
#######################################################################
#
#                 Cambridge Crystallographic Data Centre
#                                CCDC 
#
#######################################################################
#
# If this CIF has been generated from an entry in the Cambridge 
# Structural Database, then it will include bibliographic, chemical, 
# crystal, experimental, refinement or atomic coordinate data resulting 
# from the CCDC's data processing and validation procedures.
#
#######################################################################

data_YIHYOE
_symmetry_cell_setting           monoclinic
_symmetry_space_group_name_H-M   'P 21/c'
_symmetry_Int_Tables_number      14
_space_group_name_Hall           '-P 2ybc'
loop_
_symmetry_equiv_pos_site_id
_symmetry_equiv_pos_as_xyz
1 x,y,z
2 -x,1/2+y,1/2-z
3 -x,-y,-z
4 x,1/2-y,1/2+z
_cell_length_a                   6.696(7)
_cell_length_b                   17.503(17)
_cell_length_c                   11.322(11)
_cell_angle_alpha                90
_cell_angle_beta                 95.444(17)
_cell_angle_gamma                90
_cell_volume                     1320.95
loop_
_atom_site_label
_atom_site_type_symbol
_atom_site_fract_x
_atom_site_fract_y
_atom_site_fract_z
Cu1 Cu 0.16690(19) 0.83614(6) 0.41323(9)
O1 O 0.1880(10) 0.7345(3) 0.3455(5)
O2 O 0.5054(11) 0.7599(4) 0.3188(6)
O3 O 0.2838(10) 0.6887(3) 0.0826(5)
O4 O 0.2410(10) 0.5737(4) 0.0151(5)
O5 O -0.1457(10) 0.8208(5) 0.4578(6)
N1 N 0.1054(12) 0.8930(4) 0.2637(6)
C1 C 0.3654(18) 0.7164(5) 0.3224(7)
C2 C 0.3972(13) 0.6305(5) 0.3201(8)
C3 C 0.4511(13) 0.5959(5) 0.4273(7)
H1 H 0.4732 0.6269 0.4940
C4 C 0.4742(15) 0.5188(5) 0.4421(7)
C5 C 0.4471(14) 0.4739(6) 0.3374(7)
H2 H 0.4619 0.4212 0.3433
C6 C 0.3995(14) 0.5060(5) 0.2273(8)
H3 H 0.3883 0.4754 0.1599
C7 C 0.3677(13) 0.5853(5) 0.2173(7)
C8 C 0.2952(14) 0.6172(5) 0.0987(8)
C9 C 0.0709(14) 0.8584(5) 0.1575(7)
H4 H 0.0796 0.8054 0.1536
C10 C 0.0230(15) 0.8992(5) 0.0540(7)
H5 H -0.0075 0.8735 -0.0173
C11 C 0.0204(13) 0.9788(5) 0.0566(7)
C12 C 0.0556(14) 1.0131(5) 0.1661(7)
H6 H 0.0516 1.0660 0.1720
C13 C 0.0969(15) 0.9696(6) 0.2672(8)
H7 H 0.1196 0.9941 0.3401
H8 H -0.2434 0.8106 0.4119
H9 H -0.1780 0.8292 0.5250
Cu1B Cu 0.83310(19) 0.16386(6) 0.58677(9)
Cu1C Cu 0.16690(19) 0.66386(6) -0.08677(9)
Cu1A Cu 0.83310(19) 0.33614(6) 1.08677(9)
Cu1B_2 Cu -0.16690(19) 1.16386(6) -0.41323(9)
O1B O 0.8120(10) 0.2655(3) 0.6545(5)
O2B O 0.4946(11) 0.2401(4) 0.6812(6)
O3B O 0.7162(10) 0.3113(3) 0.9174(5)
O3C O 0.2838(10) 0.8113(3) 0.5826(5)
O3A O 0.7162(10) 0.1887(3) 0.4174(5)
O4B O 0.7590(10) 0.4263(4) 0.9849(5)
O4C O 0.2410(10) 0.9263(4) 0.5151(5)
O4A O 0.7590(10) 0.0737(4) 0.4849(5)
O5B O 1.1457(10) 0.1792(5) 0.5422(6)
N1B N -0.1054(12) 1.1070(4) -0.2637(6)
N1B_2 N 0.8946(12) 0.1070(4) 0.7363(6)
C1B C 0.6346(18) 0.2836(5) 0.6776(7)
C2B C 0.6028(13) 0.3695(5) 0.6799(8)
C3B C 0.5489(13) 0.4041(5) 0.5727(7)
H1B H 0.5268 0.3731 0.5060
C4B C 0.5258(15) 0.4812(5) 0.5579(7)
C5B C 0.5529(14) 0.5261(6) 0.6626(7)
H2B H 0.5381 0.5788 0.6567
C6B C 0.6005(14) 0.4940(5) 0.7727(8)
H3B H 0.6117 0.5246 0.8401
C7B C 0.6323(13) 0.4147(5) 0.7827(7)
C8B C 0.7048(14) 0.3828(5) 0.9013(8)
C9B C -0.0709(14) 1.1416(5) -0.1575(7)
H4B H -0.0796 1.1946 -0.1536
C10B C -0.0230(15) 1.1008(5) -0.0540(7)
H5B H 0.0075 1.1265 0.0173
C11B C -0.0204(13) 1.0212(5) -0.0566(7)
C12B C -0.0556(14) 0.9869(5) -0.1661(7)
H6B H -0.0516 0.9340 -0.1720
C13B C -0.0969(15) 1.0304(6) -0.2672(8)
H7B H -0.1196 1.0059 -0.3401
H8B H 1.2434 0.1894 0.5881
H9B H 1.1780 0.1708 0.4750
O6 O 0.8245(15) 0.8131(5) 0.7046(7)
H10 H 0.753(13) 0.791(13) 0.749(14)
H11 H 0.942(5) 0.811(6) 0.733(8)
loop_
_geom_bond_atom_site_label_1
_geom_bond_atom_site_label_2
_geom_bond_site_symmetry_1
_geom_bond_site_symmetry_2
Cu1 O1 1_555 1_555
O1 C1 1_555 1_555
O2 C1 1_555 1_555
O3 C8 1_555 1_555
O4 C8 1_555 1_555
O5 Cu1 1_555 1_555
O6 H10 1_555 1_555
N1 Cu1 1_555 1_555
C1 C2 1_555 1_555
C2 C3 1_555 1_555
C3 H1 1_555 1_555
C4 C3 1_555 1_555
C5 C4 1_555 1_555
H2 C5 1_555 1_555
C6 C5 1_555 1_555
H3 C6 1_555 1_555
C7 C2 1_555 1_555
C8 C7 1_555 1_555
C9 N1 1_555 1_555
H4 C9 1_555 1_555
C10 C9 1_555 1_555
H5 C10 1_555 1_555
C11 C10 1_555 1_555
C12 C11 1_555 1_555
H6 C12 1_555 1_555
C13 N1 1_555 1_555
H7 C13 1_555 1_555
H8 O5 1_555 1_555
H9 O5 1_555 1_555
H11 O6 1_555 1_555
Cu1B O1B 1_555 1_555
Cu1C O3 1_555 1_555
Cu1A O3B 1_555 1_555
Cu1B_2 N1B 1_555 1_555
O1B C1B 1_555 1_555
O2B C1B 1_555 1_555
O3B C8B 1_555 1_555
O3C Cu1 1_555 1_555
O3A Cu1B 1_555 1_555
O4B Cu1A 1_555 1_555
O4C Cu1 1_555 1_555
O4A Cu1B 1_555 1_555
O5B Cu1B 1_555 1_555
N1B C9B 1_555 1_555
N1B_2 Cu1B 1_555 1_555
C1B C2B 1_555 1_555
C2B C3B 1_555 1_555
C3B H1B 1_555 1_555
C4B C4 1_555 1_555
C5B C4B 1_555 1_555
H2B C5B 1_555 1_555
C6B C5B 1_555 1_555
H3B C6B 1_555 1_555
C7B C2B 1_555 1_555
C8B O4B 1_555 1_555
C9B H4B 1_555 1_555
C10B C9B 1_555 1_555
H5B C10B 1_555 1_555
C11B C11 1_555 1_555
C12B C11B 1_555 1_555
H6B C12B 1_555 1_555
C13B N1B 1_555 1_555
H7B C13B 1_555 1_555
H8B O5B 1_555 1_555
H9B O5B 1_555 1_555
O4 Cu1C 1_555 1_555
C6 C7 1_555 1_555
C12 C13 1_555 1_555
C3B C4B 1_555 1_555
C6B C7B 1_555 1_555
C7B C8B 1_555 1_555
C10B C11B 1_555 1_555
C12B C13B 1_555 1_555

#END
