
#######################################################################
#
#                 Cambridge Crystallographic Data Centre
#                                CCDC 
#
#######################################################################
#
# If this CIF has been generated from an entry in the Cambridge 
# Structural Database, then it will include bibliographic, chemical, 
# crystal, experimental, refinement or atomic coordinate data resulting 
# from the CCDC's data processing and validation procedures.
#
#######################################################################

data_YIHZIA
_symmetry_cell_setting           monoclinic
_symmetry_space_group_name_H-M   'P 21/c'
_symmetry_Int_Tables_number      14
_space_group_name_Hall           '-P 2ybc'
loop_
_symmetry_equiv_pos_site_id
_symmetry_equiv_pos_as_xyz
1 x,y,z
2 -x,1/2+y,1/2-z
3 -x,-y,-z
4 x,1/2-y,1/2+z
_cell_length_a                   8.2152(16)
_cell_length_b                   12.656(3)
_cell_length_c                   8.5386(17)
_cell_angle_alpha                90
_cell_angle_beta                 107.27(3)
_cell_angle_gamma                90
_cell_volume                     847.748
loop_
_atom_site_label
_atom_site_type_symbol
_atom_site_fract_x
_atom_site_fract_y
_atom_site_fract_z
Cd1 Cd 0.02047(7) 0.57206(5) 0.30002(7)
O1 O 0.2353(7) 0.5723(4) 0.1593(7)
O2 O 0.1948(7) 0.7173(4) 0.2804(7)
C1 C 0.2777(9) 0.6672(6) 0.2042(9)
C2 C 0.4232(9) 0.7172(6) 0.1617(9)
C3 C 0.5437(9) 0.6549(6) 0.1201(9)
H1 H 0.5348 0.5817 0.1220
C4 C 0.5687(9) 0.8718(6) 0.1140(9)
H2 H 0.5776 0.9451 0.1134
C5 C 0.4378(9) 0.8265(6) 0.1613(9)
H3 H 0.3602 0.8688 0.1925
C6 C 0.6768(9) 0.7007(6) 0.0756(9)
C7 C 0.6875(9) 0.8112(6) 0.0672(9)
C8 C 0.8140(9) 0.8679(7) -0.0006(10)
O3 O 0.8120(7) 0.9681(5) -0.0074(7)
O4 O 0.9152(7) 0.8137(5) -0.0526(7)
O5 O -0.0739(8) 0.4133(5) 0.1752(7)
H4 H -0.1526 0.3895 0.2114
H5 H -0.1126 0.4225 0.0722
N1 N 0.8050(9) 0.6333(6) 0.0485(9)
H6 H 0.8586 0.6680 -0.0139
H7 H 0.7540 0.5764 -0.0085
Cd1_2 Cd 1.02047(7) 0.57206(5) 0.30002(7)
Cd1A Cd 0.97953(7) 1.07206(5) 0.19998(7)
Cd1C Cd 1.02047(7) 0.92794(5) -0.19998(7)
O3A O 0.1880(7) 0.4681(5) 0.5074(7)
O3C O -0.1880(7) 0.5319(5) 0.4926(7)
O4C O -0.0848(7) 0.6863(5) 0.4474(7)
N1_2 N -0.1950(9) 0.6333(6) 0.0485(9)
loop_
_geom_bond_atom_site_label_1
_geom_bond_atom_site_label_2
_geom_bond_site_symmetry_1
_geom_bond_site_symmetry_2
Cd1 O1 1_555 1_555
O1 C1 1_555 1_555
O2 Cd1 1_555 1_555
C1 O2 1_555 1_555
C2 C1 1_555 1_555
C3 C2 1_555 1_555
H1 C3 1_555 1_555
C4 H2 1_555 1_555
C5 C2 1_555 1_555
H3 C5 1_555 1_555
C6 C3 1_555 1_555
C7 C4 1_555 1_555
C8 C7 1_555 1_555
O3 C8 1_555 1_555
O4 C8 1_555 1_555
O5 Cd1 1_555 1_555
H4 O5 1_555 1_555
H5 O5 1_555 1_555
N1 C6 1_555 1_555
H6 N1 1_555 1_555
H7 N1 1_555 1_555
Cd1_2 N1 1_555 1_555
Cd1A O3 1_555 1_555
Cd1C O3 1_555 1_555
O3A Cd1 1_555 1_555
O3C Cd1 1_555 1_555
O4C Cd1 1_555 1_555
N1_2 Cd1 1_555 1_555
C4 C5 1_555 1_555
C6 C7 1_555 1_555
O4 Cd1C 1_555 1_555

#END
