
#######################################################################
#
#                 Cambridge Crystallographic Data Centre
#                                CCDC 
#
#######################################################################
#
# If this CIF has been generated from an entry in the Cambridge 
# Structural Database, then it will include bibliographic, chemical, 
# crystal, experimental, refinement or atomic coordinate data resulting 
# from the CCDC's data processing and validation procedures.
#
#######################################################################

data_YIHZAR
_symmetry_cell_setting           triclinic
_symmetry_space_group_name_H-M   'P -1'
_symmetry_Int_Tables_number      2
_space_group_name_Hall           '-P 1'
loop_
_symmetry_equiv_pos_site_id
_symmetry_equiv_pos_as_xyz
1 x,y,z
2 -x,-y,-z
_cell_length_a                   7.9703(10)
_cell_length_b                   9.6846(12)
_cell_length_c                   12.6090(15)
_cell_angle_alpha                87.237(2)
_cell_angle_beta                 87.197(2)
_cell_angle_gamma                74.492(2)
_cell_volume                     936.098
loop_
_atom_site_label
_atom_site_type_symbol
_atom_site_fract_x
_atom_site_fract_y
_atom_site_fract_z
Mn1 Mn 0.0000 0.5000 1.0000
O1 O -0.2153(5) 0.5432(4) 0.8928(3)
O2 O 0.0309(4) 0.2690(4) 0.9766(3)
O3 O 0.1660(3) 0.5083(3) 0.86153(19)
O4 O -0.0130(3) 0.6196(3) 0.7343(2)
O5 O 0.1988(4) 0.8053(3) 0.8768(2)
O6 O 0.4799(4) 0.7593(4) 0.9017(3)
C1 C 0.3309(5) 0.5304(4) 0.6135(3)
H1 H 0.2580 0.4786 0.5898
C2 C 0.4774(5) 0.5383(4) 0.5508(3)
C3 C 0.5814(5) 0.6176(5) 0.5898(3)
H2 H 0.6801 0.6258 0.5503
C4 C 0.5418(5) 0.6845(5) 0.6858(3)
H3 H 0.6141 0.7368 0.7096
C5 C 0.3960(5) 0.6747(4) 0.7471(3)
C6 C 0.2900(5) 0.5966(4) 0.7097(3)
C7 C 0.1336(5) 0.5750(4) 0.7742(3)
C8 C 0.3512(6) 0.7520(5) 0.8503(3)
H14 H -0.312(7) 0.602(6) 0.909(4)
H15 H -0.058(5) 0.245(4) 1.016(3)
H16 H -0.171(6) 0.558(5) 0.850(3)
H17 H 0.036(7) 0.243(6) 0.917(4)
H18 H 0.437(9) 0.808(8) 0.953(4)
Mn1_2 Mn 1.0000 0.5000 0.0000
O1A O 0.2153(5) 0.4568(4) 1.1072(3)
O2A O -0.0309(4) 0.7310(4) 1.0234(3)
O3A O 0.8340(3) 0.4917(3) 0.13847(19)
O3A_2 O -0.1660(3) 0.4917(3) 1.13847(19)
O4A O 1.0130(3) 0.3804(3) 0.2657(2)
O5A O 0.8012(4) 0.1947(3) 0.1232(2)
O6A O 0.5201(4) 0.2407(4) 0.0983(3)
C1A C 0.6691(5) 0.4696(4) 0.3865(3)
H1A H 0.7420 0.5214 0.4102
C2A C 0.5226(5) 0.4617(4) 0.4492(3)
C3A C 0.4186(5) 0.3824(5) 0.4102(3)
H2A H 0.3199 0.3742 0.4497
C4A C 0.4582(5) 0.3155(5) 0.3142(3)
H3A H 0.3859 0.2632 0.2904
C5A C 0.6040(5) 0.3253(4) 0.2529(3)
C6A C 0.7100(5) 0.4034(4) 0.2903(3)
C7A C 0.8664(5) 0.4250(4) 0.2258(3)
C8A C 0.6488(6) 0.2480(5) 0.1497(3)
H14A H 0.312(7) 0.398(6) 1.091(4)
H15A H 0.058(5) 0.755(4) 0.984(3)
H16A H 0.171(6) 0.442(5) 1.150(3)
H17A H -0.036(7) 0.757(6) 1.083(4)
H18A H 0.563(9) 0.192(8) 0.047(4)
N1 N 0.0344(6) 0.2209(5) 0.7585(3)
N2 N 0.3955(5) -0.1464(4) 0.0884(3)
C9 C -0.0350(6) 0.3002(5) 0.6768(4)
H4 H -0.1171 0.3866 0.6897
C10 C 0.0063(6) 0.2636(5) 0.5729(4)
H5 H -0.0488 0.3244 0.5183
C11 C 0.1273(6) 0.1390(5) 0.5489(3)
C12 C 0.2017(7) 0.0540(6) 0.6349(4)
H6 H 0.2846 -0.0327 0.6241
C13 C 0.1520(7) 0.0989(6) 0.7372(4)
H7 H 0.2037 0.0406 0.7938
C14 C 0.1679(6) 0.0988(5) 0.4386(3)
H8 H 0.1098 0.1632 0.3869
C15 C 0.2775(6) -0.0183(5) 0.4051(3)
H9 H 0.3373 -0.0820 0.4566
C16 C 0.3158(6) -0.0592(5) 0.2938(3)
C17 C 0.2340(6) 0.0244(5) 0.2077(3)
H10 H 0.1511 0.1110 0.2186
C18 C 0.2784(6) -0.0235(5) 0.1073(4)
H11 H 0.2244 0.0322 0.0502
C19 C 0.4751(7) -0.2282(6) 0.1692(4)
H12 H 0.5575 -0.3144 0.1559
C20 C 0.4360(7) -0.1857(5) 0.2711(4)
H13 H 0.4921 -0.2440 0.3266
loop_
_geom_bond_atom_site_label_1
_geom_bond_atom_site_label_2
_geom_bond_site_symmetry_1
_geom_bond_site_symmetry_2
Mn1 O1 1_555 1_555
N1 C9 1_555 1_555
N2 C18 1_555 1_555
O1 H14 1_555 1_555
O2 Mn1 1_555 1_555
O3 Mn1 1_555 1_555
O4 C7 1_555 1_555
O5 C8 1_555 1_555
O6 C8 1_555 1_555
C1 H1 1_555 1_555
C2 C1 1_555 1_555
C3 C2 1_555 1_555
H2 C3 1_555 1_555
C4 C3 1_555 1_555
H3 C4 1_555 1_555
C5 C4 1_555 1_555
C6 C1 1_555 1_555
C7 O3 1_555 1_555
C8 C5 1_555 1_555
C9 H4 1_555 1_555
C10 C9 1_555 1_555
H5 C10 1_555 1_555
C11 C10 1_555 1_555
C12 C11 1_555 1_555
H6 C12 1_555 1_555
C13 N1 1_555 1_555
H7 C13 1_555 1_555
C14 C11 1_555 1_555
H8 C14 1_555 1_555
C15 C14 1_555 1_555
H9 C15 1_555 1_555
C16 C15 1_555 1_555
C17 C16 1_555 1_555
H10 C17 1_555 1_555
C18 C17 1_555 1_555
H11 C18 1_555 1_555
C19 N2 1_555 1_555
H12 C19 1_555 1_555
C20 C16 1_555 1_555
H13 C20 1_555 1_555
H15 O2 1_555 1_555
H16 O1 1_555 1_555
H17 O2 1_555 1_555
H18 O6 1_555 1_555
Mn1_2 O3A 1_555 1_555
O1A Mn1 1_555 1_555
O2A Mn1 1_555 1_555
O3A C7A 1_555 1_555
O3A_2 Mn1 1_555 1_555
O4A C7A 1_555 1_555
O5A C8A 1_555 1_555
O6A C8A 1_555 1_555
C1A H1A 1_555 1_555
C2A C2 1_555 1_555
C3A C2A 1_555 1_555
H2A C3A 1_555 1_555
C4A C3A 1_555 1_555
H3A C4A 1_555 1_555
C5A C4A 1_555 1_555
C6A C1A 1_555 1_555
C7A C6A 1_555 1_555
C8A C5A 1_555 1_555
H14A O1A 1_555 1_555
H15A O2A 1_555 1_555
H16A O1A 1_555 1_555
H17A O2A 1_555 1_555
H18A O6A 1_555 1_555
C5 C6 1_555 1_555
C6 C7 1_555 1_555
C12 C13 1_555 1_555
C19 C20 1_555 1_555
C1A C2A 1_555 1_555
C5A C6A 1_555 1_555

#END
