
#######################################################################
#
#                 Cambridge Crystallographic Data Centre
#                                CCDC 
#
#######################################################################
#
# If this CIF has been generated from an entry in the Cambridge 
# Structural Database, then it will include bibliographic, chemical, 
# crystal, experimental, refinement or atomic coordinate data resulting 
# from the CCDC's data processing and validation procedures.
#
#######################################################################

data_YIHZIA01
_symmetry_cell_setting           monoclinic
_symmetry_space_group_name_H-M   'P 21/c'
_symmetry_Int_Tables_number      14
_space_group_name_Hall           '-P 2ybc'
loop_
_symmetry_equiv_pos_site_id
_symmetry_equiv_pos_as_xyz
1 x,y,z
2 -x,1/2+y,1/2-z
3 -x,-y,-z
4 x,1/2-y,1/2+z
_cell_length_a                   8.1853(15)
_cell_length_b                   12.618(2)
_cell_length_c                   8.5174(16)
_cell_angle_alpha                90
_cell_angle_beta                 107.125(3)
_cell_angle_gamma                90
_cell_volume                     840.693
loop_
_atom_site_label
_atom_site_type_symbol
_atom_site_fract_x
_atom_site_fract_y
_atom_site_fract_z
C1 C 0.0766(6) 0.7162(4) 0.3392(6)
C2 C -0.0425(6) 0.6540(4) 0.3814(6)
H1 H -0.0332 0.5806 0.3797
C3 C -0.1763(6) 0.7000(4) 0.4265(6)
C4 C -0.1872(6) 0.8113(4) 0.4319(6)
C5 C -0.0702(6) 0.8727(4) 0.3862(6)
H2 H -0.0796 0.9461 0.3874
C6 C 0.0605(6) 0.8274(4) 0.3386(5)
H3 H 0.1378 0.8698 0.3064
C7 C 0.2226(6) 0.6667(4) 0.2969(6)
C8 C -0.3165(6) 0.8653(4) 0.5009(6)
Cd1 Cd 0.48158(5) 0.57224(3) 0.20242(5)
N1 N -0.3052(5) 0.6327(3) 0.4532(5)
H4 H -0.2992 0.5653 0.4414
H5 H -0.3892 0.6595 0.4812
O1 O 0.2640(4) 0.5718(3) 0.3403(4)
O2 O 0.3045(4) 0.7177(3) 0.2200(4)
O3 O -0.3136(4) 0.9679(3) 0.5071(4)
O4 O -0.4157(4) 0.8137(3) 0.5524(4)
O5 O 0.5759(4) 0.4138(3) 0.3255(4)
H6 H 0.5530 0.3680 0.2489
H7 H 0.6775 0.4009 0.3840
Cd1_2 Cd -0.51842(5) 0.57224(3) 0.20242(5)
Cd1A Cd -0.48158(5) 1.07224(3) 0.29758(5)
Cd1C Cd -0.51842(5) 0.92776(3) 0.70242(5)
N1_2 N 0.6948(5) 0.6327(3) 0.4532(5)
O3A O 0.3136(4) 0.4679(3) -0.0071(4)
O3C O 0.6864(4) 0.5321(3) 0.0071(4)
O4C O 0.5843(4) 0.6863(3) 0.0524(4)
loop_
_geom_bond_atom_site_label_1
_geom_bond_atom_site_label_2
_geom_bond_site_symmetry_1
_geom_bond_site_symmetry_2
C1 C2 1_555 1_555
C2 H1 1_555 1_555
C3 C2 1_555 1_555
C4 C3 1_555 1_555
C5 C4 1_555 1_555
H2 C5 1_555 1_555
C6 C1 1_555 1_555
H3 C6 1_555 1_555
C7 C1 1_555 1_555
C8 C4 1_555 1_555
Cd1 O1 1_555 1_555
N1 C3 1_555 1_555
H4 N1 1_555 1_555
H5 N1 1_555 1_555
O1 C7 1_555 1_555
O2 C7 1_555 1_555
O3 C8 1_555 1_555
O4 C8 1_555 1_555
O5 Cd1 1_555 1_555
H6 O5 1_555 1_555
H7 O5 1_555 1_555
Cd1_2 N1 1_555 1_555
Cd1A O3 1_555 1_555
Cd1C O3 1_555 1_555
N1_2 Cd1 1_555 1_555
O3A Cd1 1_555 1_555
O3C Cd1 1_555 1_555
O4C Cd1 1_555 1_555
C5 C6 1_555 1_555
Cd1 O2 1_555 1_555
O4 Cd1C 1_555 1_555

#END
