
#######################################################################
#
#                 Cambridge Crystallographic Data Centre
#                                CCDC 
#
#######################################################################
#
# If this CIF has been generated from an entry in the Cambridge 
# Structural Database, then it will include bibliographic, chemical, 
# crystal, experimental, refinement or atomic coordinate data resulting 
# from the CCDC's data processing and validation procedures.
#
#######################################################################

data_YIJCIE
_symmetry_cell_setting           monoclinic
_symmetry_space_group_name_H-M   'P 21/c'
_symmetry_Int_Tables_number      14
_space_group_name_Hall           '-P 2ybc'
loop_
_symmetry_equiv_pos_site_id
_symmetry_equiv_pos_as_xyz
1 x,y,z
2 -x,1/2+y,1/2-z
3 -x,-y,-z
4 x,1/2-y,1/2+z
_cell_length_a                   10.100(4)
_cell_length_b                   33.869(12)
_cell_length_c                   10.895(4)
_cell_angle_alpha                90
_cell_angle_beta                 107.104(6)
_cell_angle_gamma                90
_cell_volume                     3562.1
loop_
_atom_site_label
_atom_site_type_symbol
_atom_site_fract_x
_atom_site_fract_y
_atom_site_fract_z
Cu1 Cu -0.11773(14) 0.10692(4) -0.48990(13)
Cu2 Cu 0.09128(13) 0.16623(4) -0.39916(13)
I1 I 0.12355(7) 0.09090(2) -0.32129(7)
I2 I -0.18593(7) 0.18078(2) -0.51697(8)
N1 N -0.2522(9) 0.0787(3) -0.3864(8)
N2 N -0.4599(9) 0.0437(2) -0.3859(9)
N3 N -0.3357(9) 0.0253(2) -0.5209(8)
H1 H -0.4065 0.0112 -0.5594
N4 N 0.2098(8) 0.3307(2) -0.0246(8)
N5 N 0.2724(10) 0.3036(3) -0.2017(9)
N6 N 0.0831(9) 0.2801(2) -0.1454(8)
H2 H 0.0332 0.2805 -0.0936
P1 P -0.1725(3) 0.06316(8) -0.6474(3)
P2 P 0.1256(3) 0.20206(8) -0.2201(3)
C1 C -0.3494(11) 0.0497(3) -0.4308(10)
C2 C -0.4668(13) 0.0666(3) -0.2891(13)
H3 H -0.5418 0.0633 -0.2570
C3 C -0.3701(13) 0.0949(4) -0.2334(13)
H4 H -0.3770 0.1099 -0.1638
C4 C -0.2642(13) 0.1000(3) -0.2848(11)
H5 H -0.1971 0.1189 -0.2490
C5 C -0.2127(10) 0.0204(3) -0.5601(10)
H6 H -0.2238 -0.0028 -0.6147
H7 H -0.1349 0.0156 -0.4846
C6 C -0.3282(10) 0.0696(3) -0.7810(9)
C7 C -0.4201(12) 0.0388(3) -0.8355(11)
H8 H -0.4011 0.0133 -0.8038
C8 C -0.5380(12) 0.0461(5) -0.9355(12)
H9 H -0.5980 0.0256 -0.9720
C9 C -0.5656(14) 0.0844(5) -0.9807(13)
H10 H -0.6448 0.0895 -1.0482
C10 C -0.4810(14) 0.1138(4) -0.9293(12)
H11 H -0.5017 0.1393 -0.9609
C11 C -0.3629(11) 0.1071(4) -0.8297(11)
H12 H -0.3053 0.1282 -0.7946
C12 C -0.0431(11) 0.0431(3) -0.7150(9)
C13 C 0.0885(12) 0.0587(3) -0.6787(10)
H13 H 0.1074 0.0803 -0.6237
C14 C 0.1930(13) 0.0433(4) -0.7212(13)
H14 H 0.2812 0.0543 -0.6949
C15 C 0.1656(15) 0.0114(4) -0.8031(14)
H15 H 0.2346 0.0015 -0.8351
C16 C 0.0344(16) -0.0059(4) -0.8383(12)
H16 H 0.0168 -0.0282 -0.8907
C17 C -0.0674(13) 0.0100(3) -0.7953(11)
H17 H -0.1550 -0.0014 -0.8199
C18 C 0.1915(10) 0.3058(3) -0.1239(10)
C19 C 0.3798(14) 0.3270(4) -0.1791(13)
H18 H 0.4396 0.3253 -0.2295
C20 C 0.4050(13) 0.3546(4) -0.0791(12)
H19 H 0.4794 0.3719 -0.0643
C21 C 0.3186(12) 0.3555(3) -0.0042(11)
H20 H 0.3348 0.3736 0.0627
C22 C 0.0476(11) 0.2522(3) -0.2510(11)
H21 H 0.0742 0.2637 -0.3218
H22 H -0.0523 0.2493 -0.2790
C23 C 0.0560(10) 0.1803(3) -0.0990(10)
C24 C 0.1284(12) 0.1503(4) -0.0274(11)
H23 H 0.2148 0.1438 -0.0358
C25 C 0.0790(14) 0.1292(4) 0.0564(13)
H24 H 0.1296 0.1081 0.1013
C26 C -0.0447(15) 0.1393(4) 0.0741(14)
H25 H -0.0762 0.1257 0.1344
C27 C -0.1215(13) 0.1685(4) 0.0056(14)
H26 H -0.2073 0.1747 0.0160
C28 C -0.0710(13) 0.1899(4) -0.0825(13)
H27 H -0.1231 0.2105 -0.1295
C29 C 0.3049(11) 0.2114(3) -0.1278(11)
C30 C 0.4067(11) 0.2063(3) -0.1894(11)
H28 H 0.3824 0.1966 -0.2729
C31 C 0.5411(13) 0.2155(4) -0.1290(13)
H29 H 0.6081 0.2128 -0.1716
C32 C 0.5776(13) 0.2289(4) -0.0015(16)
H30 H 0.6687 0.2363 0.0389
C33 C 0.4826(14) 0.2313(4) 0.0636(13)
H31 H 0.5097 0.2381 0.1502
C34 C 0.3435(12) 0.2237(3) -0.0004(12)
H32 H 0.2768 0.2268 0.0421
Cu2C Cu 0.09128(13) 0.33377(4) 0.10084(13)
N4C N 0.2098(8) 0.1693(2) -0.5246(8)
loop_
_geom_bond_atom_site_label_1
_geom_bond_atom_site_label_2
_geom_bond_site_symmetry_1
_geom_bond_site_symmetry_2
Cu1 I1 1_555 1_555
Cu2 I1 1_555 1_555
I2 Cu1 1_555 1_555
N1 Cu1 1_555 1_555
N2 C1 1_555 1_555
N3 H1 1_555 1_555
N4 C18 1_555 1_555
N5 C18 1_555 1_555
N6 H2 1_555 1_555
P1 Cu1 1_555 1_555
P2 Cu2 1_555 1_555
C1 N1 1_555 1_555
C2 N2 1_555 1_555
H3 C2 1_555 1_555
C3 C2 1_555 1_555
H4 C3 1_555 1_555
C4 N1 1_555 1_555
H5 C4 1_555 1_555
C5 N3 1_555 1_555
H6 C5 1_555 1_555
H7 C5 1_555 1_555
C6 P1 1_555 1_555
C7 C6 1_555 1_555
H8 C7 1_555 1_555
C8 C7 1_555 1_555
H9 C8 1_555 1_555
C9 C8 1_555 1_555
H10 C9 1_555 1_555
C10 C9 1_555 1_555
H11 C10 1_555 1_555
C11 C6 1_555 1_555
H12 C11 1_555 1_555
C12 P1 1_555 1_555
C13 C12 1_555 1_555
H13 C13 1_555 1_555
C14 C13 1_555 1_555
H14 C14 1_555 1_555
C15 C14 1_555 1_555
H15 C15 1_555 1_555
C16 C15 1_555 1_555
H16 C16 1_555 1_555
C17 C12 1_555 1_555
H17 C17 1_555 1_555
C18 N6 1_555 1_555
C19 N5 1_555 1_555
H18 C19 1_555 1_555
C20 C19 1_555 1_555
H19 C20 1_555 1_555
C21 N4 1_555 1_555
H20 C21 1_555 1_555
C22 N6 1_555 1_555
H21 C22 1_555 1_555
H22 C22 1_555 1_555
C23 P2 1_555 1_555
C24 C23 1_555 1_555
H23 C24 1_555 1_555
C25 C24 1_555 1_555
H24 C25 1_555 1_555
C26 C25 1_555 1_555
H25 C26 1_555 1_555
C27 C26 1_555 1_555
H26 C27 1_555 1_555
C28 C23 1_555 1_555
H27 C28 1_555 1_555
C29 P2 1_555 1_555
C30 C29 1_555 1_555
H28 C30 1_555 1_555
C31 C30 1_555 1_555
H29 C31 1_555 1_555
C32 C31 1_555 1_555
H30 C32 1_555 1_555
C33 C32 1_555 1_555
H31 C33 1_555 1_555
C34 C29 1_555 1_555
H32 C34 1_555 1_555
Cu2C N4 1_555 1_555
N4C Cu2 1_555 1_555
Cu2 I2 1_555 1_555
N3 C1 1_555 1_555
P1 C5 1_555 1_555
P2 C22 1_555 1_555
C3 C4 1_555 1_555
C10 C11 1_555 1_555
C16 C17 1_555 1_555
C20 C21 1_555 1_555
C27 C28 1_555 1_555
C33 C34 1_555 1_555

#END
