
#######################################################################
#
#                 Cambridge Crystallographic Data Centre
#                                CCDC 
#
#######################################################################
#
# If this CIF has been generated from an entry in the Cambridge 
# Structural Database, then it will include bibliographic, chemical, 
# crystal, experimental, refinement or atomic coordinate data resulting 
# from the CCDC's data processing and validation procedures.
#
#######################################################################

data_YIJHUU
_symmetry_cell_setting           triclinic
_symmetry_space_group_name_H-M   'P -1'
_symmetry_Int_Tables_number      2
_space_group_name_Hall           '-P 1'
loop_
_symmetry_equiv_pos_site_id
_symmetry_equiv_pos_as_xyz
1 x,y,z
2 -x,-y,-z
_cell_length_a                   12.66(1)
_cell_length_b                   16.63(1)
_cell_length_c                   9.610(9)
_cell_angle_alpha                103.4(1)
_cell_angle_beta                 105.49(8)
_cell_angle_gamma                75.9(1)
_cell_volume                     1860.7
loop_
_atom_site_label
_atom_site_type_symbol
_atom_site_fract_x
_atom_site_fract_y
_atom_site_fract_z
V1 V -0.0776(2) 0.3597(1) 0.5768(2)
V2 V 0.2836(2) -0.0059(1) 0.2708(2)
S1 S 0.0921(3) 0.3352(2) 0.4860(3)
S2 S -0.1956(3) 0.4480(2) 0.4137(4)
S3 S -0.1146(3) 0.2421(2) 0.3646(4)
S4 S -0.2173(3) 0.3273(3) 0.6590(4)
S5 S -0.0345(3) 0.4810(2) 0.7446(3)
S6 S 0.0511(3) 0.2827(2) 0.7793(4)
S7 S 0.4568(3) -0.0178(2) 0.2122(4)
S8 S 0.1931(3) -0.0911(3) 0.0703(4)
S9 S 0.2145(3) 0.1025(2) 0.1017(4)
S10 S 0.3721(3) -0.1111(2) 0.4165(4)
S11 S 0.3101(3) 0.1170(2) 0.4617(3)
S12 S 0.1181(3) 0.0067(2) 0.3802(4)
C1 C 0.048(1) 0.299(1) 0.291(1)
C2 C -0.011(1) 0.2276(9) 0.260(1)
C3 C -0.237(1) 0.295(1) 0.254(2)
C4 C -0.236(1) 0.380(1) 0.240(2)
C5 C -0.157(2) 0.318(1) 0.849(2)
C6 C -0.046(2) 0.262(1) 0.871(2)
C7 C 0.107(1) 0.366(1) 0.910(2)
C8 C 0.099(1) 0.441(1) 0.846(2)
C9 C 0.444(1) 0.084(1) 0.168(2)
C10 C 0.340(1) 0.107(1) 0.052(2)
C11 C 0.140(1) 0.045(1) -0.064(1)
C12 C 0.184(2) -0.050(1) -0.090(1)
C13 C 0.280(1) -0.109(1) 0.533(2)
C14 C 0.158(1) -0.087(1) 0.455(2)
C15 C 0.134(1) 0.086(1) 0.544(1)
C16 C 0.252(1) 0.1039(9) 0.606(1)
O1 O 0.376(1) 0.3059(9) 0.727(1)
C17 C 0.403(2) 0.385(1) 0.789(3)
C18 C 0.525(2) 0.364(2) 0.877(3)
C19 C 0.540(2) 0.288(2) 0.905(3)
C20 C 0.433(2) 0.247(1) 0.823(2)
O2 O 0.365(1) 0.3122(8) 0.393(1)
C21 C 0.482(1) 0.310(1) 0.406(3)
C22 C 0.480(2) 0.398(1) 0.392(3)
C23 C 0.374(2) 0.427(1) 0.300(3)
C24 C 0.294(2) 0.363(2) 0.292(3)
Li1 Li 0.0000 0.5000 0.5000
Li2 Li 0.298(3) 0.268(2) 0.519(4)
Li3 Li 0.5000 0.0000 0.5000
H1 H 0.0020 0.3449 0.2459
H2 H 0.1115 0.2829 0.2464
H3 H 0.0452 0.1788 0.2819
H4 H -0.0450 0.2175 0.1581
H5 H -0.2515 0.2616 0.1581
H6 H -0.3002 0.2992 0.2965
H7 H -0.3068 0.4054 0.1893
H8 H -0.1821 0.3756 0.1818
H9 H -0.1515 0.3725 0.9061
H10 H -0.2083 0.2963 0.8845
H11 H -0.0551 0.2037 0.8348
H12 H -0.0124 0.2661 0.9744
H13 H 0.0650 0.3841 0.9872
H14 H 0.1927 0.3454 0.9558
H15 H 0.1519 0.4246 0.7831
H16 H 0.1248 0.4846 0.9242
H17 H 0.4429 0.1260 0.2562
H18 H 0.5106 0.0846 0.1364
H19 H 0.3473 0.0692 -0.0391
H20 H 0.3363 0.1632 0.0355
H21 H 0.0622 0.0547 -0.0591
H22 H 0.1409 0.0683 -0.1470
H23 H 0.2564 -0.0594 -0.1128
H24 H 0.1359 -0.0762 -0.1746
H25 H 0.2931 -0.1618 0.5648
H26 H 0.2918 -0.0663 0.6210
H27 H 0.1104 -0.0833 0.5209
H28 H 0.1425 -0.1339 0.3758
H29 H 0.0837 0.1374 0.5240
H30 H 0.1113 0.0680 0.6187
H31 H 0.2992 0.0585 0.6520
H32 H 0.2508 0.1545 0.6795
S1A S -0.0921(3) 0.6648(2) 0.5140(3)
S2A S 0.1956(3) 0.5520(2) 0.5863(4)
S5A S 0.0345(3) 0.5190(2) 0.2554(3)
S7A S 0.5432(3) 0.0178(2) 0.7878(4)
S10A S 0.6279(3) 0.1111(2) 0.5835(4)
S11A S 0.6899(3) -0.1170(2) 0.5383(3)
V2A V 0.7164(2) 0.0059(1) 0.7292(2)
C9A C 0.556(1) -0.084(1) 0.832(2)
C13A C 0.720(1) 0.109(1) 0.467(2)
C16A C 0.748(1) -0.1039(9) 0.394(1)
Li2A Li 0.702(3) -0.268(2) 0.481(4)
C10A C 0.660(1) -0.107(1) 0.948(2)
H17A H 0.5571 -0.1260 0.7438
H18A H 0.4894 -0.0846 0.8636
C14A C 0.842(1) 0.087(1) 0.545(2)
H25A H 0.7069 0.1618 0.4352
H26A H 0.7082 0.0663 0.3790
C15A C 0.866(1) -0.086(1) 0.456(1)
H31A H 0.7008 -0.0585 0.3480
H32A H 0.7492 -0.1545 0.3205
S9A S 0.7855(3) -0.1025(2) 0.8983(4)
H19A H 0.6527 -0.0692 1.0391
H20A H 0.6637 -0.1632 0.9645
S12A S 0.8819(3) -0.0067(2) 0.6198(4)
H27A H 0.8896 0.0833 0.4791
H28A H 0.8575 0.1339 0.6242
H29A H 0.9163 -0.1374 0.4760
H30A H 0.8887 -0.0680 0.3813
C11A C 0.860(1) -0.045(1) 1.064(1)
C12A C 0.816(2) 0.050(1) 1.090(1)
H21A H 0.9378 -0.0547 1.0591
H22A H 0.8591 -0.0683 1.1470
S8A S 0.8069(3) 0.0911(3) 0.9297(4)
H23A H 0.7436 0.0594 1.1128
H24A H 0.8641 0.0762 1.1746
S1A_2 S 0.9079(3) -0.3352(2) 0.5140(3)
O1A O 0.624(1) -0.3059(9) 0.273(1)
O2A O 0.635(1) -0.3122(8) 0.607(1)
C17A C 0.597(2) -0.385(1) 0.211(3)
C20A C 0.567(2) -0.247(1) 0.177(2)
C21A C 0.518(1) -0.310(1) 0.594(3)
C24A C 0.706(2) -0.363(2) 0.708(3)
V1A V 1.0776(2) -0.3597(1) 0.4232(2)
C1A C 0.952(1) -0.299(1) 0.709(1)
Li1_2 Li 1.0000 -0.5000 0.5000
C18A C 0.475(2) -0.364(2) 0.123(3)
C19A C 0.460(2) -0.288(2) 0.095(3)
C22A C 0.520(2) -0.398(1) 0.608(3)
C23A C 0.626(2) -0.427(1) 0.700(3)
C2A C 1.011(1) -0.2276(9) 0.740(1)
H1A H 0.9980 -0.3449 0.7541
H2A H 0.8885 -0.2829 0.7536
S3A S 1.1146(3) -0.2421(2) 0.6354(4)
H3A H 0.9548 -0.1788 0.7181
H4A H 1.0450 -0.2175 0.8419
C3A C 1.237(1) -0.295(1) 0.746(2)
C4A C 1.236(1) -0.380(1) 0.760(2)
H5A H 1.2515 -0.2616 0.8419
H6A H 1.3002 -0.2992 0.7035
S2A_2 S 1.1956(3) -0.4480(2) 0.5863(4)
H7A H 1.3068 -0.4054 0.8107
H8A H 1.1821 -0.3756 0.8182
S4A S 1.2173(3) -0.3273(3) 0.3410(4)
S5A_2 S 1.0345(3) -0.4810(2) 0.2554(3)
S6A S 0.9489(3) -0.2827(2) 0.2207(4)
C8A C 0.901(1) -0.441(1) 0.154(2)
C5A C 1.157(2) -0.318(1) 0.151(2)
C6A C 1.046(2) -0.262(1) 0.129(2)
C7A C 0.893(1) -0.366(1) 0.090(2)
H15A H 0.8481 -0.4246 0.2169
H16A H 0.8752 -0.4846 0.0758
H9A H 1.1515 -0.3725 0.0939
H10A H 1.2083 -0.2963 0.1155
H11A H 1.0551 -0.2037 0.1652
H12A H 1.0124 -0.2661 0.0256
H13A H 0.9350 -0.3841 0.0128
H14A H 0.8073 -0.3454 0.0442
loop_
_geom_bond_atom_site_label_1
_geom_bond_atom_site_label_2
_geom_bond_site_symmetry_1
_geom_bond_site_symmetry_2
V1 S1 1_555 1_555
V2 S7 1_555 1_555
S1 C1 1_555 1_555
S2 V1 1_555 1_555
S3 V1 1_555 1_555
S4 V1 1_555 1_555
S5 V1 1_555 1_555
S6 V1 1_555 1_555
S7 C9 1_555 1_555
S8 V2 1_555 1_555
S9 V2 1_555 1_555
S10 V2 1_555 1_555
S11 V2 1_555 1_555
S12 V2 1_555 1_555
C1 C2 1_555 1_555
C2 S3 1_555 1_555
C3 S3 1_555 1_555
C4 S2 1_555 1_555
C5 S4 1_555 1_555
C6 S6 1_555 1_555
C7 S6 1_555 1_555
C8 S5 1_555 1_555
C9 C10 1_555 1_555
C10 S9 1_555 1_555
C11 S9 1_555 1_555
C12 S8 1_555 1_555
C13 S10 1_555 1_555
C14 S12 1_555 1_555
C15 S12 1_555 1_555
C16 S11 1_555 1_555
O1 C17 1_555 1_555
C17 C18 1_555 1_555
C18 C19 1_555 1_555
C19 C20 1_555 1_555
C20 O1 1_555 1_555
O2 C21 1_555 1_555
C21 C22 1_555 1_555
C22 C23 1_555 1_555
C23 C24 1_555 1_555
C24 O2 1_555 1_555
Li1 S1 1_555 1_555
Li2 S1 1_555 1_555
Li3 S7 1_555 1_555
H1 C1 1_555 1_555
H2 C1 1_555 1_555
H3 C2 1_555 1_555
H4 C2 1_555 1_555
H5 C3 1_555 1_555
H6 C3 1_555 1_555
H7 C4 1_555 1_555
H8 C4 1_555 1_555
H9 C5 1_555 1_555
H10 C5 1_555 1_555
H11 C6 1_555 1_555
H12 C6 1_555 1_555
H13 C7 1_555 1_555
H14 C7 1_555 1_555
H15 C8 1_555 1_555
H16 C8 1_555 1_555
H17 C9 1_555 1_555
H18 C9 1_555 1_555
H19 C10 1_555 1_555
H20 C10 1_555 1_555
H21 C11 1_555 1_555
H22 C11 1_555 1_555
H23 C12 1_555 1_555
H24 C12 1_555 1_555
H25 C13 1_555 1_555
H26 C13 1_555 1_555
H27 C14 1_555 1_555
H28 C14 1_555 1_555
H29 C15 1_555 1_555
H30 C15 1_555 1_555
H31 C16 1_555 1_555
H32 C16 1_555 1_555
S1A Li1 1_555 1_555
S2A Li1 1_555 1_555
S5A Li1 1_555 1_555
S7A Li3 1_555 1_555
S10A Li3 1_555 1_555
S11A Li3 1_555 1_555
V2A S7A 1_555 1_555
C9A S7A 1_555 1_555
C13A S10A 1_555 1_555
C16A S11A 1_555 1_555
Li2A S11A 1_555 1_555
C10A C9A 1_555 1_555
H17A C9A 1_555 1_555
H18A C9A 1_555 1_555
C14A C13A 1_555 1_555
H25A C13A 1_555 1_555
H26A C13A 1_555 1_555
C15A C16A 1_555 1_555
H31A C16A 1_555 1_555
H32A C16A 1_555 1_555
S9A V2A 1_555 1_555
H19A C10A 1_555 1_555
H20A C10A 1_555 1_555
S12A V2A 1_555 1_555
H27A C14A 1_555 1_555
H28A C14A 1_555 1_555
H29A C15A 1_555 1_555
H30A C15A 1_555 1_555
C11A S9A 1_555 1_555
C12A C11A 1_555 1_555
H21A C11A 1_555 1_555
H22A C11A 1_555 1_555
S8A V2A 1_555 1_555
H23A C12A 1_555 1_555
H24A C12A 1_555 1_555
S1A_2 Li2A 1_555 1_555
O1A Li2A 1_555 1_555
O2A Li2A 1_555 1_555
C17A O1A 1_555 1_555
C20A O1A 1_555 1_555
C21A O2A 1_555 1_555
C24A O2A 1_555 1_555
V1A S1A_2 1_555 1_555
C1A S1A_2 1_555 1_555
Li1_2 S1A_2 1_555 1_555
C18A C17A 1_555 1_555
C19A C20A 1_555 1_555
C22A C21A 1_555 1_555
C23A C24A 1_555 1_555
C2A C1A 1_555 1_555
H1A C1A 1_555 1_555
H2A C1A 1_555 1_555
S3A V1A 1_555 1_555
H3A C2A 1_555 1_555
H4A C2A 1_555 1_555
C3A S3A 1_555 1_555
C4A C3A 1_555 1_555
H5A C3A 1_555 1_555
H6A C3A 1_555 1_555
S2A_2 V1A 1_555 1_555
H7A C4A 1_555 1_555
H8A C4A 1_555 1_555
S4A V1A 1_555 1_555
S5A_2 V1A 1_555 1_555
S6A V1A 1_555 1_555
C8A S5A_2 1_555 1_555
C5A S4A 1_555 1_555
C6A S6A 1_555 1_555
C7A S6A 1_555 1_555
H15A C8A 1_555 1_555
H16A C8A 1_555 1_555
H9A C5A 1_555 1_555
H10A C5A 1_555 1_555
H11A C6A 1_555 1_555
H12A C6A 1_555 1_555
H13A C7A 1_555 1_555
H14A C7A 1_555 1_555
S2 Li1 1_555 1_555
S5 Li1 1_555 1_555
S10 Li3 1_555 1_555
S11 Li2 1_555 1_555
S11 Li3 1_555 1_555
C3 C4 1_555 1_555
C5 C6 1_555 1_555
C7 C8 1_555 1_555
C11 C12 1_555 1_555
C13 C14 1_555 1_555
C15 C16 1_555 1_555
O1 Li2 1_555 1_555
O2 Li2 1_555 1_555
S10A V2A 1_555 1_555
S11A V2A 1_555 1_555
C10A S9A 1_555 1_555
C14A S12A 1_555 1_555
C15A S12A 1_555 1_555
C12A S8A 1_555 1_555
Li1_2 S2A_2 1_555 1_555
Li1_2 S5A_2 1_555 1_555
C18A C19A 1_555 1_555
C22A C23A 1_555 1_555
C2A S3A 1_555 1_555
C4A S2A_2 1_555 1_555
C8A C7A 1_555 1_555
C5A C6A 1_555 1_555

#END
