
#######################################################################
#
#                 Cambridge Crystallographic Data Centre
#                                CCDC 
#
#######################################################################
#
# If this CIF has been generated from an entry in the Cambridge 
# Structural Database, then it will include bibliographic, chemical, 
# crystal, experimental, refinement or atomic coordinate data resulting 
# from the CCDC's data processing and validation procedures.
#
#######################################################################

data_YIJROA
_symmetry_cell_setting           triclinic
_symmetry_space_group_name_H-M   'P -1'
_symmetry_Int_Tables_number      2
_space_group_name_Hall           '-P 1'
loop_
_symmetry_equiv_pos_site_id
_symmetry_equiv_pos_as_xyz
1 x,y,z
2 -x,-y,-z
_cell_length_a                   7.716(10)
_cell_length_b                   14.22(2)
_cell_length_c                   14.96(2)
_cell_angle_alpha                105.68(2)
_cell_angle_beta                 95.957(18)
_cell_angle_gamma                97.96(3)
_cell_volume                     1547.87
loop_
_atom_site_label
_atom_site_type_symbol
_atom_site_fract_x
_atom_site_fract_y
_atom_site_fract_z
Zn1 Zn 0.0000 0.0000 0.5000
Zn2 Zn 0.5000 0.0000 0.5000
N1 N 0.1817(7) -0.0130(5) 0.6164(4)
N2 N 0.3618(8) -0.0060(5) 0.6159(4)
N3 N 0.3053(8) -0.0091(5) 0.7548(4)
N4 N 0.3210(8) -0.0008(6) 0.8518(4)
N5 N 0.1114(7) -0.1112(5) 0.4040(4)
N6 N 0.2914(8) -0.1112(5) 0.4057(4)
N7 N 0.1486(8) -0.2456(5) 0.3030(4)
N8 N 0.1209(9) -0.3407(5) 0.2354(6)
N9 N 0.1873(7) 0.1179(5) 0.4805(4)
N10 N 0.3653(8) 0.1168(5) 0.4768(5)
N11 N 0.3089(9) 0.2578(5) 0.4617(5)
N12 N 0.3289(11) 0.3565(6) 0.4525(7)
C1 C 0.1499(10) -0.0163(6) 0.7003(5)
H1 H 0.0363 -0.0228 0.7195
C2 C 0.4319(10) -0.0038(6) 0.7015(5)
H2 H 0.5544 0.0009 0.7218
C3 C 0.0282(10) -0.1941(6) 0.3417(5)
H3 H -0.0965 -0.2141 0.3267
C4 C 0.3081(9) -0.1940(6) 0.3444(5)
H4 H 0.4174 -0.2142 0.3314
C5 C 0.1582(10) 0.2044(6) 0.4719(5)
H5 H 0.0470 0.2259 0.4728
C6 C 0.4350(11) 0.2017(7) 0.4653(6)
H6 H 0.5558 0.2206 0.4604
N1A N -0.1817(7) 0.0130(5) 0.3836(4)
N2A N -0.3618(8) 0.0060(5) 0.3841(4)
N3A N -0.3053(8) 0.0091(5) 0.2452(4)
N4A N -0.3210(8) 0.0008(6) 0.1482(4)
N5A N -0.1114(7) 0.1112(5) 0.5960(4)
N6A N -0.2914(8) 0.1112(5) 0.5943(4)
N7A N -0.1486(8) 0.2456(5) 0.6970(4)
N8A N -0.1209(9) 0.3407(5) 0.7646(6)
N9A N -0.1873(7) -0.1179(5) 0.5195(4)
N10A N -0.3653(8) -0.1168(5) 0.5232(5)
N11A N -0.3089(9) -0.2578(5) 0.5383(5)
N12A N -0.3289(11) -0.3565(6) 0.5475(7)
C1A C -0.1499(10) 0.0163(6) 0.2997(5)
H1A H -0.0363 0.0228 0.2805
C2A C -0.4319(10) 0.0038(6) 0.2985(5)
H2A H -0.5544 -0.0009 0.2782
C3A C -0.0282(10) 0.1941(6) 0.6583(5)
H3A H 0.0965 0.2141 0.6733
C4A C -0.3081(9) 0.1940(6) 0.6556(5)
H4A H -0.4174 0.2142 0.6686
C5A C -0.1582(10) -0.2044(6) 0.5281(5)
H5A H -0.0470 -0.2259 0.5272
C6A C -0.4350(11) -0.2017(7) 0.5347(6)
H6A H -0.5558 -0.2206 0.5396
Zn2_2 Zn -0.5000 0.0000 0.5000
N2A_2 N 0.6382(8) 0.0060(5) 0.3841(4)
N6A_2 N 0.7086(8) 0.1112(5) 0.5943(4)
N10A_2 N 0.6347(8) -0.1168(5) 0.5232(5)
O1 O 0.3679(8) 0.3432(5) 0.7075(4)
O2 O 0.3374(9) 0.1974(4) 0.7858(5)
O3 O 0.3869(8) 0.2405(4) 0.9389(5)
O4 O 0.8424(9) 0.5086(5) 1.0999(5)
O5 O 0.9211(9) 0.6287(5) 1.0382(5)
O6 O 0.7127(11) 0.5969(7) 0.7251(6)
O7 O 0.4657(11) 0.5068(6) 0.6543(5)
N13 N 0.3976(8) 0.2593(5) 0.8627(5)
N14 N 0.8309(9) 0.5480(5) 1.0357(5)
N15 N 0.5852(11) 0.5330(7) 0.7213(6)
C7 C 0.4688(10) 0.3901(6) 0.7813(6)
C8 C 0.4936(9) 0.3547(5) 0.8651(5)
C9 C 0.6050(10) 0.4054(6) 0.9449(6)
H7 H 0.6115 0.3797 0.9973
C10 C 0.7118(10) 0.4966(6) 0.9502(6)
C11 C 0.6989(10) 0.5382(7) 0.8766(6)
H8 H 0.7680 0.6005 0.8813
C12 C 0.5825(11) 0.4864(7) 0.7959(6)
O8 O -0.0098(9) 0.7733(5) 0.7190(4)
O9 O 0.3413(11) 0.7548(7) 0.7288(5)
O10 O 0.4001(13) 0.6746(7) 0.8300(6)
O11 O 0.2874(9) 0.8360(6) 1.1383(4)
O12 O 0.0450(10) 0.8937(7) 1.1558(5)
O13 O -0.3452(9) 0.9030(6) 0.8923(5)
O14 O -0.2520(10) 0.8886(7) 0.7586(6)
N16 N 0.3156(12) 0.7297(7) 0.7998(6)
N17 N 0.1490(10) 0.8567(5) 1.1050(5)
N18 N -0.2363(10) 0.8799(6) 0.8386(6)
C13 C 0.0252(12) 0.7947(6) 0.8054(7)
C14 C 0.1825(12) 0.7732(6) 0.8546(6)
C15 C 0.2231(11) 0.7924(6) 0.9487(6)
H9 H 0.3273 0.7755 0.9754
C16 C 0.1076(10) 0.8377(6) 1.0057(5)
C17 C -0.0455(11) 0.8640(7) 0.9679(6)
H10 H -0.1222 0.8951 1.0077
C18 C -0.0832(10) 0.8436(7) 0.8714(6)
O15 O 0.0807(11) 0.4263(7) 0.6451(7)
O16 O 0.0323(13) 0.5968(7) 0.6018(7)
O17 O 0.217(2) 0.6627(15) 0.4866(11)
loop_
_geom_bond_atom_site_label_1
_geom_bond_atom_site_label_2
_geom_bond_site_symmetry_1
_geom_bond_site_symmetry_2
Zn1 N1 1_555 1_555
Zn2 N2 1_555 1_555
N1 N2 1_555 1_555
N2 C2 1_555 1_555
N3 N4 1_555 1_555
N5 Zn1 1_555 1_555
N6 Zn2 1_555 1_555
N7 N8 1_555 1_555
N9 Zn1 1_555 1_555
N10 Zn2 1_555 1_555
N11 N12 1_555 1_555
C1 N1 1_555 1_555
H1 C1 1_555 1_555
C2 N3 1_555 1_555
H2 C2 1_555 1_555
C3 N5 1_555 1_555
H3 C3 1_555 1_555
C4 N6 1_555 1_555
H4 C4 1_555 1_555
C5 N9 1_555 1_555
H5 C5 1_555 1_555
C6 N10 1_555 1_555
H6 C6 1_555 1_555
O1 C7 1_555 1_555
O2 N13 1_555 1_555
O3 N13 1_555 1_555
O4 N14 1_555 1_555
O5 N14 1_555 1_555
O6 N15 1_555 1_555
O7 N15 1_555 1_555
N13 C8 1_555 1_555
N14 C10 1_555 1_555
N15 C12 1_555 1_555
C7 C8 1_555 1_555
C8 C9 1_555 1_555
C9 H7 1_555 1_555
C10 C9 1_555 1_555
C11 C10 1_555 1_555
H8 C11 1_555 1_555
C12 C7 1_555 1_555
O8 C13 1_555 1_555
O9 N16 1_555 1_555
O10 N16 1_555 1_555
O11 N17 1_555 1_555
O12 N17 1_555 1_555
O13 N18 1_555 1_555
O14 N18 1_555 1_555
N16 C14 1_555 1_555
N17 C16 1_555 1_555
N18 C18 1_555 1_555
C13 C14 1_555 1_555
C14 C15 1_555 1_555
C15 H9 1_555 1_555
C16 C15 1_555 1_555
C17 C16 1_555 1_555
H10 C17 1_555 1_555
C18 C13 1_555 1_555
N1A Zn1 1_555 1_555
N2A N1A 1_555 1_555
N3A N4A 1_555 1_555
N5A Zn1 1_555 1_555
N6A N5A 1_555 1_555
N7A N8A 1_555 1_555
N9A Zn1 1_555 1_555
N10A N9A 1_555 1_555
N11A N12A 1_555 1_555
C1A N1A 1_555 1_555
H1A C1A 1_555 1_555
C2A N2A 1_555 1_555
H2A C2A 1_555 1_555
C3A N5A 1_555 1_555
H3A C3A 1_555 1_555
C4A N6A 1_555 1_555
H4A C4A 1_555 1_555
C5A N9A 1_555 1_555
H5A C5A 1_555 1_555
C6A N10A 1_555 1_555
H6A C6A 1_555 1_555
Zn2_2 N2A 1_555 1_555
N2A_2 Zn2 1_555 1_555
N6A_2 Zn2 1_555 1_555
N10A_2 Zn2 1_555 1_555
N3 C1 1_555 1_555
N5 N6 1_555 1_555
N7 C3 1_555 1_555
N7 C4 1_555 1_555
N9 N10 1_555 1_555
N11 C5 1_555 1_555
N11 C6 1_555 1_555
C11 C12 1_555 1_555
C17 C18 1_555 1_555
N3A C1A 1_555 1_555
N3A C2A 1_555 1_555
N6A Zn2_2 1_555 1_555
N7A C3A 1_555 1_555
N7A C4A 1_555 1_555
N10A Zn2_2 1_555 1_555
N11A C5A 1_555 1_555
N11A C6A 1_555 1_555

#END
