
#######################################################################
#
#                 Cambridge Crystallographic Data Centre
#                                CCDC 
#
#######################################################################
#
# If this CIF has been generated from an entry in the Cambridge 
# Structural Database, then it will include bibliographic, chemical, 
# crystal, experimental, refinement or atomic coordinate data resulting 
# from the CCDC's data processing and validation procedures.
#
#######################################################################

data_YIJXEW
_symmetry_cell_setting           orthorhombic
_symmetry_space_group_name_H-M   'P b c a'
_symmetry_Int_Tables_number      61
_space_group_name_Hall           '-P 2ac 2ab'
loop_
_symmetry_equiv_pos_site_id
_symmetry_equiv_pos_as_xyz
1 x,y,z
2 1/2-x,-y,1/2+z
3 -x,1/2+y,1/2-z
4 1/2+x,1/2-y,-z
5 -x,-y,-z
6 1/2+x,y,1/2-z
7 x,1/2-y,1/2+z
8 1/2-x,1/2+y,z
_cell_length_a                   15.4529(7)
_cell_length_b                   9.2269(4)
_cell_length_c                   24.1404(11)
_cell_angle_alpha                90
_cell_angle_beta                 90
_cell_angle_gamma                90
_cell_volume                     3442
loop_
_atom_site_label
_atom_site_type_symbol
_atom_site_fract_x
_atom_site_fract_y
_atom_site_fract_z
Cu1 Cu 0.252721(17) 0.00605(3) 0.680254(12)
C1 C 0.38303(13) 0.2272(2) 0.65505(8)
H1 H 0.4043 0.3230 0.6597
C2 C 0.43473(12) 0.1250(2) 0.62382(8)
C3 C 0.40292(14) -0.0187(2) 0.61026(9)
C4 C 0.53663(13) -0.0651(2) 0.56073(8)
C5 C 0.56808(13) 0.0751(2) 0.57302(8)
C6 C 0.51449(13) 0.1673(2) 0.60505(8)
H2 H 0.5346 0.2618 0.6138
C7 C 0.58608(13) -0.1611(2) 0.52859(8)
H3 H 0.5653 -0.2557 0.5206
C8 C 0.66503(13) -0.1161(2) 0.50880(8)
H4 H 0.6985 -0.1804 0.4868
C9 C 0.69735(15) 0.0235(2) 0.52052(9)
H5 H 0.7523 0.0524 0.5067
C10 C 0.64921(13) 0.1167(2) 0.55180(8)
H6 H 0.6708 0.2110 0.5594
C11 C 0.20323(13) 0.24423(19) 0.73592(9)
C12 C 0.15101(13) 0.3480(2) 0.77011(8)
C13 C 0.18631(14) 0.4074(2) 0.81854(8)
C14 C 0.13573(17) 0.5058(2) 0.84804(11)
H7 H 0.1576 0.5458 0.8815
C15 C 0.05470(16) 0.5467(2) 0.82983(10)
H8 H 0.0220 0.6152 0.8505
C16 C 0.02056(16) 0.4886(2) 0.78156(11)
H9 H -0.0349 0.5180 0.7688
C17 C 0.06825(14) 0.3870(2) 0.75205(10)
H10 H 0.0447 0.3440 0.7196
C18 C 0.27552(15) 0.3687(2) 0.83752(10)
H11 H 0.2846 0.2828 0.8311
H12 H 0.2790 0.3771 0.8773
H13 H 0.3173 0.4328 0.8209
N1 N 0.31001(11) 0.19437(17) 0.67669(6)
N2 N 0.45611(11) -0.10559(17) 0.58051(7)
H14 H 0.4307 -0.2041 0.5699
N3 N 0.26634(10) 0.30223(18) 0.70649(7)
N4 N 0.12571(12) 0.0345(2) 0.57497(7)
O1 O 0.33017(9) -0.06943(14) 0.62381(6)
O2 O 0.18542(9) 0.10918(13) 0.73732(5)
O3 O 0.14075(9) 0.07586(15) 0.62398(6)
O4 O 0.09612(11) 0.12451(16) 0.54083(6)
O5 O 0.13898(10) -0.09207(15) 0.56067(6)
Cu1G Cu 0.247279(17) 0.50605(3) 0.680254(12)
N3G N 0.23366(10) -0.19777(18) 0.70649(7)
loop_
_geom_bond_atom_site_label_1
_geom_bond_atom_site_label_2
_geom_bond_site_symmetry_1
_geom_bond_site_symmetry_2
Cu1 N1 1_555 1_555
C1 H1 1_555 1_555
C2 C1 1_555 1_555
C3 C2 1_555 1_555
C4 C5 1_555 1_555
C5 C6 1_555 1_555
C6 C2 1_555 1_555
H2 C6 1_555 1_555
C7 C4 1_555 1_555
H3 C7 1_555 1_555
C8 C7 1_555 1_555
H4 C8 1_555 1_555
C9 C8 1_555 1_555
H5 C9 1_555 1_555
C10 C5 1_555 1_555
H6 C10 1_555 1_555
C11 C12 1_555 1_555
C12 C13 1_555 1_555
C13 C14 1_555 1_555
C14 H7 1_555 1_555
C15 C14 1_555 1_555
H8 C15 1_555 1_555
C16 C15 1_555 1_555
H9 C16 1_555 1_555
C17 C12 1_555 1_555
H10 C17 1_555 1_555
C18 C13 1_555 1_555
H11 C18 1_555 1_555
H12 C18 1_555 1_555
H13 C18 1_555 1_555
N1 C1 1_555 1_555
N2 C3 1_555 1_555
H14 N2 1_555 1_555
N3 C11 1_555 1_555
N4 O3 1_555 1_555
O1 Cu1 1_555 1_555
O2 Cu1 1_555 1_555
O3 Cu1 1_555 1_555
O4 N4 1_555 1_555
O5 N4 1_555 1_555
Cu1G N3 1_555 1_555
N3G Cu1 1_555 1_555
C3 O1 1_555 1_555
C4 N2 1_555 1_555
C9 C10 1_555 1_555
C11 O2 1_555 1_555
C16 C17 1_555 1_555
N1 N3 1_555 1_555

#END
