
#######################################################################
#
#                 Cambridge Crystallographic Data Centre
#                                CCDC 
#
#######################################################################
#
# If this CIF has been generated from an entry in the Cambridge 
# Structural Database, then it will include bibliographic, chemical, 
# crystal, experimental, refinement or atomic coordinate data resulting 
# from the CCDC's data processing and validation procedures.
#
#######################################################################

data_YIJYEX
_symmetry_cell_setting           monoclinic
_symmetry_space_group_name_H-M   'P 21/c'
_symmetry_Int_Tables_number      14
_space_group_name_Hall           '-P 2ybc'
loop_
_symmetry_equiv_pos_site_id
_symmetry_equiv_pos_as_xyz
1 x,y,z
2 -x,1/2+y,1/2-z
3 -x,-y,-z
4 x,1/2-y,1/2+z
_cell_length_a                   11.704(3)
_cell_length_b                   9.010(3)
_cell_length_c                   18.222(2)
_cell_angle_alpha                90
_cell_angle_beta                 125.23(3)
_cell_angle_gamma                90
_cell_volume                     1569.62
loop_
_atom_site_label
_atom_site_type_symbol
_atom_site_fract_x
_atom_site_fract_y
_atom_site_fract_z
C1 C 0.1387(5) 0.1493(5) 0.1892(3)
H1 H 0.1205 0.0530 0.2043
H2 H 0.1340 0.1379 0.1346
C2 C 0.0273(5) 0.2544(6) 0.1717(4)
H3 H -0.0635 0.2155 0.1241
H4 H 0.0402 0.3490 0.1520
C3 C 0.0324(6) 0.2770(7) 0.2569(4)
H5 H -0.0404 0.3455 0.2450
H6 H 0.0174 0.1832 0.2762
C4 C 0.1742(5) 0.3388(5) 0.3290(4)
H7 H 0.1805 0.3494 0.3841
H8 H 0.1840 0.4367 0.3110
C5 C 0.2937(5) 0.2408(5) 0.3467(3)
H9 H 0.3815 0.2952 0.3859
C6 C 0.3052(5) 0.0947(5) 0.3914(3)
C7 C 0.3149(5) -0.0735(5) 0.4824(3)
C8 C 0.3104(5) -0.1539(6) 0.5471(3)
H10 H 0.2934 -0.1076 0.5855
C9 C 0.3330(5) -0.3072(7) 0.5505(3)
H11 H 0.3291 -0.3653 0.5912
C10 C 0.3613(5) -0.3736(6) 0.4935(3)
H12 H 0.3753 -0.4757 0.4971
C11 C 0.3693(5) -0.2931(6) 0.4318(3)
H13 H 0.3908 -0.3392 0.3955
C12 C 0.3443(5) -0.1430(5) 0.4259(3)
C13 C 0.3362(5) 0.3136(5) 0.2324(3)
H14 H 0.4118 0.3671 0.2841
H15 H 0.2622 0.3839 0.1940
Cu1 Cu 0.39326(6) 0.00230(6) 0.28854(3)
N1 N 0.2822(4) 0.1971(4) 0.2629(2)
N2 N 0.3391(4) -0.0308(4) 0.3704(2)
N3 N 0.2906(4) 0.0737(5) 0.4588(2)
H16 H 0.2697 0.1407 0.4828
O1 O 0.4333(4) 0.0709(4) 0.2073(2)
O2 O 0.2869(4) 0.2398(4) 0.0728(2)
O3 O 0.5317(4) 0.3095(4) 0.1985(2)
P1 P 0.39870(13) 0.23049(13) 0.17142(8)
Cu1A Cu 0.60674(6) 0.50230(6) 0.21146(3)
O3A O 0.4683(4) -0.1905(4) 0.3015(2)
O4 O 0.1825(4) 0.6867(4) 0.1752(2)
H17 H 0.1824 0.7804 0.1799
H18 H 0.2628 0.6589 0.1903
O5 O 0.0281(4) 0.1068(4) 0.9632(3)
H19 H 0.0272 0.1394 0.9186
H20 H 0.1105 0.1083 1.0096
loop_
_geom_bond_atom_site_label_1
_geom_bond_atom_site_label_2
_geom_bond_site_symmetry_1
_geom_bond_site_symmetry_2
C1 H1 1_555 1_555
H2 C1 1_555 1_555
C2 C1 1_555 1_555
H3 C2 1_555 1_555
H4 C2 1_555 1_555
C3 C2 1_555 1_555
H5 C3 1_555 1_555
H6 C3 1_555 1_555
C4 C3 1_555 1_555
H7 C4 1_555 1_555
H8 C4 1_555 1_555
C5 C4 1_555 1_555
H9 C5 1_555 1_555
C6 C5 1_555 1_555
C7 C8 1_555 1_555
C8 H10 1_555 1_555
C9 C8 1_555 1_555
H11 C9 1_555 1_555
C10 C9 1_555 1_555
H12 C10 1_555 1_555
C11 C10 1_555 1_555
H13 C11 1_555 1_555
C12 C7 1_555 1_555
C13 H14 1_555 1_555
H15 C13 1_555 1_555
Cu1 N1 1_555 1_555
N1 C1 1_555 1_555
N2 C6 1_555 1_555
N3 C6 1_555 1_555
H16 N3 1_555 1_555
O1 Cu1 1_555 1_555
O2 P1 1_555 1_555
O3 P1 1_555 1_555
P1 C13 1_555 1_555
O4 H17 1_555 1_555
H18 O4 1_555 1_555
O5 H19 1_555 1_555
H20 O5 1_555 1_555
Cu1A O3 1_555 1_555
O3A Cu1 1_555 1_555
C5 N1 1_555 1_555
C7 N3 1_555 1_555
C11 C12 1_555 1_555
C12 N2 1_555 1_555
C13 N1 1_555 1_555
Cu1 N2 1_555 1_555
O1 P1 1_555 1_555

#END
