
#######################################################################
#
#                 Cambridge Crystallographic Data Centre
#                                CCDC 
#
#######################################################################
#
# If this CIF has been generated from an entry in the Cambridge 
# Structural Database, then it will include bibliographic, chemical, 
# crystal, experimental, refinement or atomic coordinate data resulting 
# from the CCDC's data processing and validation procedures.
#
#######################################################################

data_YIJZIC
_symmetry_cell_setting           cubic
_symmetry_space_group_name_H-M   'P 41 3 2'
_symmetry_Int_Tables_number      213
_space_group_name_Hall           'P 4bd 2ab 3'
loop_
_symmetry_equiv_pos_site_id
_symmetry_equiv_pos_as_xyz
1 x,y,z
2 1/2-x,-y,1/2+z
3 -x,1/2+y,1/2-z
4 1/2+x,1/2-y,-z
5 z,x,y
6 1/2+z,1/2-x,-y
7 1/2-z,-x,1/2+y
8 -z,1/2+x,1/2-y
9 y,z,x
10 -y,1/2+z,1/2-x
11 1/2+y,1/2-z,-x
12 1/2-y,-z,1/2+x
13 3/4+y,1/4+x,1/4-z
14 3/4-y,3/4-x,3/4-z
15 1/4+y,1/4-x,3/4+z
16 1/4-y,3/4+x,1/4+z
17 3/4+x,1/4+z,1/4-y
18 1/4-x,3/4+z,1/4+y
19 3/4-x,3/4-z,3/4-y
20 1/4+x,1/4-z,3/4+y
21 3/4+z,1/4+y,1/4-x
22 1/4+z,1/4-y,3/4+x
23 1/4-z,3/4+y,1/4+x
24 3/4-z,3/4-y,3/4-x
_cell_length_a                   15.2853(5)
_cell_length_b                   15.2853(5)
_cell_length_c                   15.2853(5)
_cell_angle_alpha                90
_cell_angle_beta                 90
_cell_angle_gamma                90
_cell_volume                     3571.26
loop_
_atom_site_label
_atom_site_type_symbol
_atom_site_fract_x
_atom_site_fract_y
_atom_site_fract_z
Ru1 Ru 0.6250 0.8750 0.1250
N1 N 0.75819(13) 0.88798(13) 0.12496(11)
C1 C 0.90647(15) 0.83449(18) 0.13007(16)
H1 H 0.9458 0.7864 0.1319
C2 C 0.78942(13) 0.97133(14) 0.12498(14)
C3 C 0.81678(15) 0.82127(16) 0.12734(15)
H2 H 0.7954 0.7629 0.1271
C4 C 0.87910(17) 0.98840(15) 0.12748(14)
H3 H 0.8997 1.0470 0.1274
C5 C 0.93727(15) 0.92039(19) 0.13008(16)
H4 H 0.9984 0.9316 0.1319
N1L N 0.63798(13) 1.00819(13) 0.12504(11)
C1L C 0.58449(18) 1.15647(15) 0.11993(16)
H1L H 0.5364 1.1958 0.1181
C2L C 0.72133(14) 1.03942(13) 0.12502(14)
C3L C 0.57127(16) 1.06678(15) 0.12266(15)
H2L H 0.5129 1.0454 0.1229
C4L C 0.73840(15) 1.12910(17) 0.12252(14)
H3L H 0.7970 1.1497 0.1226
C5L C 0.67039(19) 1.18727(15) 0.11992(16)
H4L H 0.6816 1.2484 0.1181
N1E N 0.62496(11) 0.74181(13) 0.11202(13)
C1E C 0.63007(16) 0.59353(15) 0.16551(18)
H1E H 0.6319 0.5542 0.2136
C2E C 0.62498(14) 0.71058(13) 0.02867(14)
C3E C 0.62734(15) 0.68322(15) 0.17873(16)
H2E H 0.6271 0.7046 0.2371
C4E C 0.62748(14) 0.62090(17) 0.01160(15)
H3E H 0.6274 0.6003 -0.0470
C5E C 0.63008(16) 0.56273(15) 0.07961(19)
H4E H 0.6319 0.5016 0.0684
N1W N 0.62504(11) 0.86202(13) -0.00819(13)
C1W C 0.61993(16) 0.91551(18) -0.15647(15)
H1W H 0.6181 0.9636 -0.1958
C2W C 0.62502(14) 0.77867(14) -0.03942(13)
C3W C 0.62266(15) 0.92873(16) -0.06678(15)
H2W H 0.6229 0.9871 -0.0454
C4W C 0.62252(14) 0.76160(15) -0.12910(17)
H3W H 0.6226 0.7030 -0.1497
C5W C 0.61992(16) 0.82961(19) -0.18727(15)
H4W H 0.6181 0.8184 -0.2484
N1K N 0.61202(13) 0.87504(11) 0.25819(13)
C1K C 0.66551(18) 0.86993(16) 0.40647(15)
H1K H 0.7136 0.8681 0.4458
C2K C 0.52867(14) 0.87502(14) 0.28942(13)
C3K C 0.67873(16) 0.87266(15) 0.31678(15)
H2K H 0.7371 0.8729 0.2954
C4K C 0.51160(15) 0.87252(14) 0.37910(17)
H3K H 0.4530 0.8726 0.3997
C5K C 0.57961(19) 0.86992(16) 0.43727(15)
H4K H 0.5684 0.8681 0.4984
N1Q N 0.49181(13) 0.87496(11) 0.13798(13)
C1Q C 0.34353(15) 0.88007(16) 0.08449(18)
H1Q H 0.3042 0.8819 0.0364
C2Q C 0.46058(13) 0.87498(14) 0.22133(14)
C3Q C 0.43322(15) 0.87734(15) 0.07127(16)
H2Q H 0.4546 0.8771 0.0129
C4Q C 0.37090(17) 0.87748(14) 0.23840(15)
H3Q H 0.3503 0.8774 0.2970
C5Q C 0.31273(15) 0.88008(16) 0.17039(19)
H4Q H 0.2516 0.8819 0.1816
Zn1 Zn 0.899858(18) 0.399858(18) 0.100142(18)
O1 O 0.89163(10) 0.53640(10) 0.11250(10)
O2 O 0.88602(10) 0.41169(9) 0.23661(9)
C6 C 0.8750 0.48913(13) 0.26087(13)
C7 C 0.8750 0.56141(13) 0.18859(13)
O1R O 0.85837(10) 0.63750(10) 0.21360(10)
O2R O 0.86398(10) 0.51339(9) 0.33831(9)
O1G O 0.88750(10) 0.39163(10) -0.03640(10)
O2G O 0.76339(9) 0.38602(10) 0.08831(9)
C6G C 0.73913(13) 0.3750 0.01087(13)
C7G C 0.81141(13) 0.3750 -0.06141(13)
O1N O 0.78640(10) 0.35837(10) -0.13750(10)
O2N O 0.66169(9) 0.36398(10) -0.01339(9)
O1J O 1.03640(10) 0.38750(10) 0.10837(10)
O2J O 0.91169(9) 0.26339(9) 0.11398(10)
C6J C 0.98913(13) 0.23913(13) 0.1250
C7J C 1.06141(13) 0.31141(13) 0.1250
O1V O 1.13750(10) 0.28640(10) 0.14163(10)
O2V O 1.01339(9) 0.16169(9) 0.13602(10)
Zn1O Zn 0.850142(18) 0.649858(18) 0.350142(18)
Zn1L Zn 1.149858(18) 0.149858(18) 0.149858(18)
Zn1N Zn 0.649858(18) 0.350142(18) -0.149858(18)
O1O O 0.71360(10) 0.64163(10) 0.36250(10)
O1T O 0.86250(10) 0.78640(10) 0.35837(10)
O2O O 0.83831(9) 0.63602(10) 0.48661(9)
O2T O 0.98661(9) 0.66169(9) 0.36398(10)
loop_
_geom_bond_atom_site_label_1
_geom_bond_atom_site_label_2
_geom_bond_site_symmetry_1
_geom_bond_site_symmetry_2
Ru1 N1 1_555 1_555
N1 C2 1_555 1_555
C1 H1 1_555 1_555
C2 C4 1_555 1_555
C3 N1 1_555 1_555
H2 C3 1_555 1_555
C4 H3 1_555 1_555
C5 C1 1_555 1_555
H4 C5 1_555 1_555
Zn1 O1 1_555 1_555
O1 C7 1_555 1_555
O2 Zn1 1_555 1_555
C6 O2 1_555 1_555
C7 C6 1_555 1_555
N1L Ru1 1_555 1_555
C1L H1L 1_555 1_555
C2L C2 1_555 1_555
C3L N1L 1_555 1_555
H2L C3L 1_555 1_555
C4L C2L 1_555 1_555
H3L C4L 1_555 1_555
C5L C1L 1_555 1_555
H4L C5L 1_555 1_555
N1E Ru1 1_555 1_555
C1E H1E 1_555 1_555
C2E N1E 1_555 1_555
C3E N1E 1_555 1_555
H2E C3E 1_555 1_555
C4E C2E 1_555 1_555
H3E C4E 1_555 1_555
C5E C1E 1_555 1_555
H4E C5E 1_555 1_555
N1W Ru1 1_555 1_555
C1W H1W 1_555 1_555
C2W C2E 1_555 1_555
C3W N1W 1_555 1_555
H2W C3W 1_555 1_555
C4W C2W 1_555 1_555
H3W C4W 1_555 1_555
C5W C1W 1_555 1_555
H4W C5W 1_555 1_555
N1K Ru1 1_555 1_555
C1K H1K 1_555 1_555
C2K N1K 1_555 1_555
C3K N1K 1_555 1_555
H2K C3K 1_555 1_555
C4K C2K 1_555 1_555
H3K C4K 1_555 1_555
C5K C1K 1_555 1_555
H4K C5K 1_555 1_555
N1Q Ru1 1_555 1_555
C1Q H1Q 1_555 1_555
C2Q C2K 1_555 1_555
C3Q N1Q 1_555 1_555
H2Q C3Q 1_555 1_555
C4Q C2Q 1_555 1_555
H3Q C4Q 1_555 1_555
C5Q C1Q 1_555 1_555
H4Q C5Q 1_555 1_555
O1R C7 1_555 1_555
O2R C6 1_555 1_555
O1G Zn1 1_555 1_555
O2G Zn1 1_555 1_555
C6G O2G 1_555 1_555
C7G O1G 1_555 1_555
O1N C7G 1_555 1_555
O2N C6G 1_555 1_555
O1J Zn1 1_555 1_555
O2J Zn1 1_555 1_555
C6J O2J 1_555 1_555
C7J O1J 1_555 1_555
O1V C7J 1_555 1_555
O2V C6J 1_555 1_555
Zn1O O1R 1_555 1_555
Zn1L O1V 1_555 1_555
Zn1N O1N 1_555 1_555
O1O Zn1O 1_555 1_555
O1T Zn1O 1_555 1_555
O2O Zn1O 1_555 1_555
O2T Zn1O 1_555 1_555
C1 C3 1_555 1_555
C4 C5 1_555 1_555
N1L C2L 1_555 1_555
C1L C3L 1_555 1_555
C4L C5L 1_555 1_555
C1E C3E 1_555 1_555
C4E C5E 1_555 1_555
N1W C2W 1_555 1_555
C1W C3W 1_555 1_555
C4W C5W 1_555 1_555
C1K C3K 1_555 1_555
C4K C5K 1_555 1_555
N1Q C2Q 1_555 1_555
C1Q C3Q 1_555 1_555
C4Q C5Q 1_555 1_555
O2R Zn1O 1_555 1_555
C6G C7G 1_555 1_555
O2N Zn1N 1_555 1_555
C6J C7J 1_555 1_555
O2V Zn1L 1_555 1_555

#END
