
#######################################################################
#
#                 Cambridge Crystallographic Data Centre
#                                CCDC 
#
#######################################################################
#
# If this CIF has been generated from an entry in the Cambridge 
# Structural Database, then it will include bibliographic, chemical, 
# crystal, experimental, refinement or atomic coordinate data resulting 
# from the CCDC's data processing and validation procedures.
#
#######################################################################

data_YIKCUQ
_symmetry_cell_setting           triclinic
_symmetry_space_group_name_H-M   'P -1'
_symmetry_Int_Tables_number      2
_space_group_name_Hall           '-P 1'
loop_
_symmetry_equiv_pos_site_id
_symmetry_equiv_pos_as_xyz
1 x,y,z
2 -x,-y,-z
_cell_length_a                   12.841(8)
_cell_length_b                   13.398(7)
_cell_length_c                   13.416(8)
_cell_angle_alpha                66.92(3)
_cell_angle_beta                 67.97(2)
_cell_angle_gamma                72.47(2)
_cell_volume                     1935.93
loop_
_atom_site_label
_atom_site_type_symbol
_atom_site_fract_x
_atom_site_fract_y
_atom_site_fract_z
Mn1 Mn 0.5000 0.0000 -0.5000
Mn2 Mn 0.4630(3) 0.3028(3) -0.6057(3)
Mn3 Mn 0.5000 0.5000 -1.0000
O1 O 0.4191(11) 0.0734(12) -0.3662(10)
O2 O 0.3505(11) 0.2510(11) -0.4455(11)
C1 C 0.3576(19) 0.166(2) -0.3605(19)
C2 C 0.2976(17) 0.173(2) -0.2423(18)
C3 C 0.3005(18) 0.0834(19) -0.1490(17)
H1 H 0.3396 0.0150 -0.1575
C4 C 0.248(2) 0.092(2) -0.0443(19)
H2 H 0.2503 0.0292 0.0186
C5 C 0.192(2) 0.189(3) -0.030(2)
H3 H 0.1582 0.1938 0.0426
C6 C 0.184(2) 0.282(2) -0.122(2)
H4 H 0.1420 0.3491 -0.1127
C7 C 0.239(2) 0.270(2) -0.228(2)
H5 H 0.2362 0.3321 -0.2918
O3 O 0.6366(10) -0.0800(11) -0.4184(10)
O4 O 0.6276(10) -0.2606(11) -0.3184(10)
C8 C 0.6732(18) -0.1744(19) -0.3588(16)
C9 C 0.7820(18) -0.187(2) -0.3337(16)
C10 C 0.836(2) -0.1015(18) -0.3742(19)
H6 H 0.8077 -0.0336 -0.4197
C11 C 0.933(3) -0.115(2) -0.348(2)
H7 H 0.9672 -0.0541 -0.3711
C12 C 0.982(2) -0.217(4) -0.287(2)
H8 H 1.0486 -0.2270 -0.2692
C13 C 0.928(3) -0.304(2) -0.256(2)
H9 H 0.9585 -0.3738 -0.2152
C14 C 0.831(2) -0.292(2) -0.2813(19)
H10 H 0.7992 -0.3523 -0.2638
O5 O 0.4083(10) -0.1373(9) -0.4042(10)
O6 O 0.3759(12) -0.2805(11) -0.2487(11)
C15 C 0.3444(19) -0.182(2) -0.3039(19)
C16 C 0.235(2) -0.1158(18) -0.2555(18)
C17 C 0.180(2) -0.1549(19) -0.139(2)
H11 H 0.2120 -0.2205 -0.0938
C18 C 0.074(3) -0.095(3) -0.091(2)
H12 H 0.0381 -0.1177 -0.0131
C19 C 0.026(2) 0.003(3) -0.165(3)
H13 H -0.0461 0.0415 -0.1365
C20 C 0.083(2) 0.039(2) -0.277(3)
H14 H 0.0519 0.1043 -0.3236
C21 C 0.1884(19) -0.021(2) -0.3218(18)
H15 H 0.2266 0.0042 -0.3986
O7 O 0.4073(13) 0.4674(11) -0.6763(12)
O8 O 0.3964(13) 0.5367(12) -0.8502(13)
C22 C 0.353(2) 0.5223(15) -0.746(2)
C23 C 0.231(2) 0.5714(17) -0.712(2)
C24 C 0.174(3) 0.564(2) -0.596(3)
H16 H 0.2151 0.5271 -0.5441
C25 C 0.062(3) 0.609(3) -0.557(3)
H17 H 0.0268 0.6048 -0.4812
C26 C 0.005(3) 0.660(3) -0.638(3)
H18 H -0.0725 0.6860 -0.6128
C27 C 0.050(3) 0.6774(19) -0.749(3)
H19 H 0.0072 0.7176 -0.7996
C28 C 0.163(2) 0.6315(18) -0.7829(19)
H20 H 0.1962 0.6414 -0.8600
O9 O 0.5607(12) 0.3364(12) -0.5251(11)
C29 C 0.625(2) 0.422(3) -0.570(3)
H21 H 0.6145 0.4502 -0.5095
H22 H 0.5954 0.4815 -0.6276
C30 C 0.742(2) 0.388(2) -0.616(2)
H23 H 0.7530 0.3333 -0.6502
H24 H 0.7741 0.4506 -0.6730
H25 H 0.7789 0.3579 -0.5577
O10 O 0.6505(13) 0.4420(11) -0.9429(11)
C31 C 0.720(2) 0.507(2) -0.9502(18)
H26 H 0.7170 0.5726 -1.0156
H27 H 0.6885 0.5309 -0.8835
C32 C 0.8471(19) 0.4504(19) -0.960(2)
H28 H 0.8657 0.3918 -0.9918
H29 H 0.8956 0.5037 -1.0090
H30 H 0.8583 0.4208 -0.8866
O11 O 0.5342(11) 0.6674(11) -1.0884(11)
C33 C 0.475(2) 0.769(3) -1.058(2)
H31 H 0.4161 0.7492 -0.9868
H32 H 0.4378 0.8177 -1.1150
C34 C 0.537(2) 0.827(2) -1.047(2)
H33 H 0.5824 0.8643 -1.1209
H34 H 0.4873 0.8794 -1.0104
H35 H 0.5871 0.7772 -1.0027
O1A O 0.5809(11) -0.0734(12) -0.6338(10)
O2A O 0.6495(11) -0.2510(11) -0.5545(11)
C1A C 0.6424(19) -0.166(2) -0.6395(19)
C2A C 0.7024(17) -0.173(2) -0.7577(18)
C3A C 0.6995(18) -0.0834(19) -0.8510(17)
H1A H 0.6604 -0.0150 -0.8425
C4A C 0.752(2) -0.092(2) -0.9557(19)
H2A H 0.7497 -0.0292 -1.0186
C5A C 0.808(2) -0.189(3) -0.970(2)
H3A H 0.8418 -0.1938 -1.0426
C6A C 0.816(2) -0.282(2) -0.878(2)
H4A H 0.8580 -0.3491 -0.8873
C7A C 0.761(2) -0.270(2) -0.772(2)
H5A H 0.7638 -0.3321 -0.7082
O3A O 0.3634(10) 0.0800(11) -0.5816(10)
O4A O 0.3724(10) 0.2606(11) -0.6816(10)
C8A C 0.3268(18) 0.1744(19) -0.6412(16)
C9A C 0.2180(18) 0.187(2) -0.6663(16)
C10A C 0.164(2) 0.1015(18) -0.6258(19)
H6A H 0.1923 0.0336 -0.5803
C11A C 0.067(3) 0.115(2) -0.652(2)
H7A H 0.0328 0.0541 -0.6289
C12A C 0.018(2) 0.217(4) -0.713(2)
H8A H -0.0486 0.2270 -0.7308
C13A C 0.072(3) 0.304(2) -0.744(2)
H9A H 0.0415 0.3738 -0.7848
C14A C 0.169(2) 0.292(2) -0.7187(19)
H10A H 0.2008 0.3523 -0.7362
O5A O 0.5917(10) 0.1373(9) -0.5958(10)
O6A O 0.6241(12) 0.2805(11) -0.7513(11)
C15A C 0.6556(19) 0.182(2) -0.6961(19)
C16A C 0.765(2) 0.1158(18) -0.7445(18)
C17A C 0.820(2) 0.1549(19) -0.861(2)
H11A H 0.7880 0.2205 -0.9062
C18A C 0.926(3) 0.095(3) -0.909(2)
H12A H 0.9619 0.1177 -0.9869
C19A C 0.974(2) -0.003(3) -0.835(3)
H13A H 1.0461 -0.0415 -0.8635
C20A C 0.917(2) -0.039(2) -0.723(3)
H14A H 0.9481 -0.1043 -0.6764
C21A C 0.8116(19) 0.021(2) -0.6782(18)
H15A H 0.7734 -0.0042 -0.6014
Mn2A Mn 0.5370(3) -0.3028(3) -0.3943(3)
O7A O 0.5927(13) -0.4674(11) -0.3237(12)
O8A O 0.6036(13) -0.5367(12) -0.1498(13)
C22A C 0.647(2) -0.5223(15) -0.254(2)
C23A C 0.769(2) -0.5714(17) -0.288(2)
C24A C 0.826(3) -0.564(2) -0.404(3)
H16A H 0.7849 -0.5271 -0.4559
C25A C 0.938(3) -0.609(3) -0.443(3)
H17A H 0.9732 -0.6048 -0.5188
C26A C 0.995(3) -0.660(3) -0.362(3)
H18A H 1.0725 -0.6860 -0.3872
C27A C 0.950(3) -0.6774(19) -0.251(3)
H19A H 0.9928 -0.7176 -0.2004
C28A C 0.837(2) -0.6315(18) -0.2171(19)
H20A H 0.8038 -0.6414 -0.1400
O9A O 0.4393(12) -0.3364(12) -0.4749(11)
C29A C 0.375(2) -0.422(3) -0.430(3)
H21A H 0.3855 -0.4502 -0.4905
H22A H 0.4046 -0.4815 -0.3724
C30A C 0.258(2) -0.388(2) -0.384(2)
H23A H 0.2470 -0.3333 -0.3498
H24A H 0.2259 -0.4506 -0.3270
H25A H 0.2211 -0.3579 -0.4423
O10A O 0.3495(13) 0.5580(11) -1.0571(11)
C31A C 0.280(2) 0.493(2) -1.0498(18)
H26A H 0.2830 0.4274 -0.9844
H27A H 0.3115 0.4691 -1.1165
C32A C 0.1529(19) 0.5496(19) -1.040(2)
H28A H 0.1343 0.6082 -1.0082
H29A H 0.1044 0.4963 -0.9910
H30A H 0.1417 0.5792 -1.1134
O11A O 0.4658(11) 0.3326(11) -0.9116(11)
C33A C 0.525(2) 0.231(3) -0.942(2)
H31A H 0.5839 0.2508 -1.0132
H32A H 0.5622 0.1823 -0.8850
C34A C 0.463(2) 0.173(2) -0.953(2)
H33A H 0.4176 0.1357 -0.8791
H34A H 0.5127 0.1206 -0.9896
H35A H 0.4129 0.2228 -0.9973
O8A_2 O 0.6036(13) 0.4633(12) -1.1498(13)
Mn3_2 Mn 0.5000 -0.5000 0.0000
O12 O 0.6376(15) -0.8551(13) -0.3872(15)
C35 C 0.630(3) -0.874(2) -0.271(3)
H36 H 0.5533 -0.8466 -0.2309
H37 H 0.6479 -0.9528 -0.2329
C36 C 0.706(4) -0.822(3) -0.267(3)
H38 H 0.7285 -0.7653 -0.3378
H39 H 0.7731 -0.8744 -0.2522
H40 H 0.6704 -0.7887 -0.2071
loop_
_geom_bond_atom_site_label_1
_geom_bond_atom_site_label_2
_geom_bond_site_symmetry_1
_geom_bond_site_symmetry_2
Mn1 O1 1_555 1_555
Mn2 O2 1_555 1_555
Mn3 O8 1_555 1_555
O1 C1 1_555 1_555
O2 C1 1_555 1_555
C1 C2 1_555 1_555
C2 C3 1_555 1_555
C3 H1 1_555 1_555
C4 C3 1_555 1_555
H2 C4 1_555 1_555
C5 C4 1_555 1_555
H3 C5 1_555 1_555
C6 C5 1_555 1_555
H4 C6 1_555 1_555
C7 C2 1_555 1_555
H5 C7 1_555 1_555
O3 Mn1 1_555 1_555
O4 C8 1_555 1_555
C8 O3 1_555 1_555
C9 C8 1_555 1_555
C10 C9 1_555 1_555
H6 C10 1_555 1_555
C11 C10 1_555 1_555
H7 C11 1_555 1_555
C12 C11 1_555 1_555
H8 C12 1_555 1_555
C13 C12 1_555 1_555
H9 C13 1_555 1_555
C14 C9 1_555 1_555
H10 C14 1_555 1_555
O5 Mn1 1_555 1_555
O6 C15 1_555 1_555
C15 O5 1_555 1_555
C16 C15 1_555 1_555
C17 C16 1_555 1_555
H11 C17 1_555 1_555
C18 C17 1_555 1_555
H12 C18 1_555 1_555
C19 C18 1_555 1_555
H13 C19 1_555 1_555
C20 C19 1_555 1_555
H14 C20 1_555 1_555
C21 C16 1_555 1_555
H15 C21 1_555 1_555
O7 Mn2 1_555 1_555
O8 C22 1_555 1_555
C22 O7 1_555 1_555
C23 C22 1_555 1_555
C24 C23 1_555 1_555
H16 C24 1_555 1_555
C25 C24 1_555 1_555
H17 C25 1_555 1_555
C26 C25 1_555 1_555
H18 C26 1_555 1_555
C27 C26 1_555 1_555
H19 C27 1_555 1_555
C28 C23 1_555 1_555
H20 C28 1_555 1_555
O9 Mn2 1_555 1_555
C29 O9 1_555 1_555
H21 C29 1_555 1_555
H22 C29 1_555 1_555
C30 C29 1_555 1_555
H23 C30 1_555 1_555
H24 C30 1_555 1_555
H25 C30 1_555 1_555
O10 Mn3 1_555 1_555
C31 O10 1_555 1_555
H26 C31 1_555 1_555
H27 C31 1_555 1_555
C32 C31 1_555 1_555
H28 C32 1_555 1_555
H29 C32 1_555 1_555
H30 C32 1_555 1_555
O11 Mn3 1_555 1_555
C33 O11 1_555 1_555
H31 C33 1_555 1_555
H32 C33 1_555 1_555
C34 C33 1_555 1_555
H33 C34 1_555 1_555
H34 C34 1_555 1_555
H35 C34 1_555 1_555
O12 C35 1_555 1_555
C35 H36 1_555 1_555
H37 C35 1_555 1_555
C36 C35 1_555 1_555
H38 C36 1_555 1_555
H39 C36 1_555 1_555
H40 C36 1_555 1_555
O1A Mn1 1_555 1_555
O2A C1A 1_555 1_555
C1A O1A 1_555 1_555
C2A C1A 1_555 1_555
C3A C2A 1_555 1_555
H1A C3A 1_555 1_555
C4A C3A 1_555 1_555
H2A C4A 1_555 1_555
C5A C4A 1_555 1_555
H3A C5A 1_555 1_555
C6A C5A 1_555 1_555
H4A C6A 1_555 1_555
C7A C2A 1_555 1_555
H5A C7A 1_555 1_555
O3A Mn1 1_555 1_555
O4A Mn2 1_555 1_555
C8A O3A 1_555 1_555
C9A C8A 1_555 1_555
C10A C9A 1_555 1_555
H6A C10A 1_555 1_555
C11A C10A 1_555 1_555
H7A C11A 1_555 1_555
C12A C11A 1_555 1_555
H8A C12A 1_555 1_555
C13A C12A 1_555 1_555
H9A C13A 1_555 1_555
C14A C9A 1_555 1_555
H10A C14A 1_555 1_555
O5A Mn1 1_555 1_555
O6A Mn2 1_555 1_555
C15A O5A 1_555 1_555
C16A C15A 1_555 1_555
C17A C16A 1_555 1_555
H11A C17A 1_555 1_555
C18A C17A 1_555 1_555
H12A C18A 1_555 1_555
C19A C18A 1_555 1_555
H13A C19A 1_555 1_555
C20A C19A 1_555 1_555
H14A C20A 1_555 1_555
C21A C16A 1_555 1_555
H15A C21A 1_555 1_555
Mn2A O4 1_555 1_555
O7A Mn2A 1_555 1_555
O8A C22A 1_555 1_555
C22A O7A 1_555 1_555
C23A C22A 1_555 1_555
C24A C23A 1_555 1_555
H16A C24A 1_555 1_555
C25A C24A 1_555 1_555
H17A C25A 1_555 1_555
C26A C25A 1_555 1_555
H18A C26A 1_555 1_555
C27A C26A 1_555 1_555
H19A C27A 1_555 1_555
C28A C23A 1_555 1_555
H20A C28A 1_555 1_555
O9A Mn2A 1_555 1_555
C29A O9A 1_555 1_555
H21A C29A 1_555 1_555
H22A C29A 1_555 1_555
C30A C29A 1_555 1_555
H23A C30A 1_555 1_555
H24A C30A 1_555 1_555
H25A C30A 1_555 1_555
O10A Mn3 1_555 1_555
C31A O10A 1_555 1_555
H26A C31A 1_555 1_555
H27A C31A 1_555 1_555
C32A C31A 1_555 1_555
H28A C32A 1_555 1_555
H29A C32A 1_555 1_555
H30A C32A 1_555 1_555
O11A Mn3 1_555 1_555
C33A O11A 1_555 1_555
H31A C33A 1_555 1_555
H32A C33A 1_555 1_555
C34A C33A 1_555 1_555
H33A C34A 1_555 1_555
H34A C34A 1_555 1_555
H35A C34A 1_555 1_555
O8A_2 Mn3 1_555 1_555
Mn3_2 O8A 1_555 1_555
Mn2 O5A 1_555 1_555
C6 C7 1_555 1_555
C13 C14 1_555 1_555
O5 Mn2A 1_555 1_555
O6 Mn2A 1_555 1_555
C20 C21 1_555 1_555
C27 C28 1_555 1_555
O2A Mn2A 1_555 1_555
C6A C7A 1_555 1_555
O4A C8A 1_555 1_555
C13A C14A 1_555 1_555
O6A C15A 1_555 1_555
C20A C21A 1_555 1_555
C27A C28A 1_555 1_555

#END
