
#######################################################################
#
#                 Cambridge Crystallographic Data Centre
#                                CCDC 
#
#######################################################################
#
# If this CIF has been generated from an entry in the Cambridge 
# Structural Database, then it will include bibliographic, chemical, 
# crystal, experimental, refinement or atomic coordinate data resulting 
# from the CCDC's data processing and validation procedures.
#
#######################################################################

data_YIKDAX
_symmetry_cell_setting           monoclinic
_symmetry_space_group_name_H-M   'P 2/c'
_symmetry_Int_Tables_number      13
_space_group_name_Hall           '-P 2yc'
loop_
_symmetry_equiv_pos_site_id
_symmetry_equiv_pos_as_xyz
1 x,y,z
2 -x,y,1/2-z
3 -x,-y,-z
4 x,-y,1/2+z
_cell_length_a                   9.594
_cell_length_b                   10.063
_cell_length_c                   15.012
_cell_angle_alpha                90
_cell_angle_beta                 98.83
_cell_angle_gamma                90
_cell_volume                     1432.15
loop_
_atom_site_label
_atom_site_type_symbol
_atom_site_fract_x
_atom_site_fract_y
_atom_site_fract_z
V1 V 0.29226(4) 0.60962(4) 1.02409(2)
V2 V 0.42969(4) 0.53771(4) 0.84119(2)
V3 V 0.17805(4) 0.66237(4) 1.23103(2)
O1 O 0.2453(2) 0.4631(2) 0.9935(1)
O2 O 0.2606(2) 0.7984(2) 1.2559(1)
O3 O 0.4085(2) 0.6450(2) 0.9221(1)
O4 O 0.1819(2) 0.6269(2) 1.1226(1)
O5 O 0.4615(2) 0.5825(2) 1.1159(1)
O6 O 0.5000 0.6163(3) 0.7500
O7 O 0.2661(2) 0.4731(2) 0.7969(1)
O8 O 0.00000 0.6729(3) 1.2500
N1 N 0.3370(2) 0.8301(2) 1.0474(1)
N2 N 0.1252(2) 0.7080(2) 0.9417(1)
C1 C 0.4377(3) 0.8893(3) 1.1038(2)
C2 C 0.4523(4) 1.0280(3) 1.1087(2)
C3 C 0.3605(4) 1.1070(3) 1.0543(3)
C4 C 0.1448(4) 1.1207(3) 0.9365(3)
C5 C 0.0385(4) 1.0584(4) 0.8847(2)
C6 C -0.0877(4) 0.8482(4) 0.8358(2)
C7 C -0.0936(3) 0.7127(4) 0.8420(2)
C8 C 0.0158(3) 0.6460(3) 0.8955(2)
C9 C 0.2437(3) 0.9081(3) 0.9942(2)
C10 C 0.2511(3) 1.0481(3) 0.9945(2)
C11 C 0.0264(3) 0.9183(3) 0.8846(2)
C12 C 0.1307(3) 0.8433(3) 0.9381(2)
O5B O 0.5385(2) 0.4175(2) 0.8841(1)
O7C O 0.2661(2) 0.5269(2) 1.2969(1)
V2B V 0.57031(4) 0.46229(4) 1.15881(2)
V2A V 0.57031(4) 0.53771(4) 0.65881(2)
V3C V 0.17805(4) 0.33763(4) 0.73103(2)
V3A V -0.17805(4) 0.66237(4) 1.26897(2)
V1B V 0.70774(4) 0.39038(4) 0.97591(2)
V2C V 0.42969(4) 0.46229(4) 1.34119(2)
O3B O 0.5915(2) 0.3550(2) 1.0779(1)
O6B O 0.5000 0.3837(3) 1.2500
O7B O 0.7339(2) 0.5269(2) 1.2031(1)
O7A O 0.7339(2) 0.4731(2) 0.7031(1)
O1B O 0.7547(2) 0.5369(2) 1.0065(1)
O4B O 0.8181(2) 0.3731(2) 0.8774(1)
N1B N 0.6630(2) 0.1699(2) 0.9526(1)
N2B N 0.8748(2) 0.2920(2) 1.0583(1)
V3B V 0.82195(4) 0.33763(4) 0.76897(2)
C1B C 0.5623(3) 0.1107(3) 0.8962(2)
C9B C 0.7563(3) 0.0919(3) 1.0058(2)
C8B C 0.9842(3) 0.3540(3) 1.1045(2)
C12B C 0.8693(3) 0.1567(3) 1.0619(2)
O2B O 0.7394(2) 0.2016(2) 0.7441(1)
O8B O 1.00000 0.3271(3) 0.7500
C2B C 0.5477(4) -0.0280(3) 0.8913(2)
C10B C 0.7489(3) -0.0481(3) 1.0055(2)
C7B C 1.0936(3) 0.2873(4) 1.1580(2)
C11B C 0.9736(3) 0.0817(3) 1.1154(2)
C3B C 0.6395(4) -0.1070(3) 0.9457(3)
C4B C 0.8552(4) -0.1207(3) 1.0635(3)
C6B C 1.0877(4) 0.1518(4) 1.1642(2)
C5B C 0.9615(4) -0.0584(4) 1.1153(2)
loop_
_geom_bond_atom_site_label_1
_geom_bond_atom_site_label_2
_geom_bond_site_symmetry_1
_geom_bond_site_symmetry_2
V1 O1 1_555 1_555
V2 O3 1_555 1_555
V3 O2 1_555 1_555
O3 V1 1_555 1_555
O4 V1 1_555 1_555
O5 V1 1_555 1_555
O6 V2 1_555 1_555
O7 V2 1_555 1_555
O8 V3 1_555 1_555
N1 V1 1_555 1_555
N2 V1 1_555 1_555
C1 N1 1_555 1_555
C2 C1 1_555 1_555
C3 C2 1_555 1_555
C4 C5 1_555 1_555
C5 C11 1_555 1_555
C6 C7 1_555 1_555
C7 C8 1_555 1_555
C8 N2 1_555 1_555
C9 N1 1_555 1_555
C10 C3 1_555 1_555
C11 C6 1_555 1_555
C12 N2 1_555 1_555
O5B V2 1_555 1_555
O7C V3 1_555 1_555
V2B O5 1_555 1_555
V2A O6 1_555 1_555
V3C O7 1_555 1_555
V3A O8 1_555 1_555
V1B O5B 1_555 1_555
V2C O7C 1_555 1_555
O3B V2B 1_555 1_555
O6B V2B 1_555 1_555
O7B V2B 1_555 1_555
O7A V2A 1_555 1_555
O1B V1B 1_555 1_555
O4B V1B 1_555 1_555
N1B V1B 1_555 1_555
N2B V1B 1_555 1_555
V3B O7A 1_555 1_555
C1B N1B 1_555 1_555
C9B N1B 1_555 1_555
C8B N2B 1_555 1_555
C12B N2B 1_555 1_555
O2B V3B 1_555 1_555
O8B V3B 1_555 1_555
C2B C1B 1_555 1_555
C10B C9B 1_555 1_555
C7B C8B 1_555 1_555
C11B C12B 1_555 1_555
C3B C2B 1_555 1_555
C4B C10B 1_555 1_555
C6B C7B 1_555 1_555
C5B C11B 1_555 1_555
V3 O4 1_555 1_555
C4 C10 1_555 1_555
C9 C10 1_555 1_555
C9 C12 1_555 1_555
C11 C12 1_555 1_555
V1B O3B 1_555 1_555
V2C O6B 1_555 1_555
O4B V3B 1_555 1_555
C9B C12B 1_555 1_555
C10B C3B 1_555 1_555
C11B C6B 1_555 1_555
C4B C5B 1_555 1_555

#END
