
#######################################################################
#
#                 Cambridge Crystallographic Data Centre
#                                CCDC 
#
#######################################################################
#
# If this CIF has been generated from an entry in the Cambridge 
# Structural Database, then it will include bibliographic, chemical, 
# crystal, experimental, refinement or atomic coordinate data resulting 
# from the CCDC's data processing and validation procedures.
#
#######################################################################

data_YIKGEF01
_symmetry_cell_setting           triclinic
_symmetry_space_group_name_H-M   'P -1'
_symmetry_Int_Tables_number      2
_space_group_name_Hall           '-P 1'
loop_
_symmetry_equiv_pos_site_id
_symmetry_equiv_pos_as_xyz
1 x,y,z
2 -x,-y,-z
_cell_length_a                   6.5548(13)
_cell_length_b                   8.5026(17)
_cell_length_c                   10.020(2)
_cell_angle_alpha                109.39(3)
_cell_angle_beta                 96.87(3)
_cell_angle_gamma                100.86(3)
_cell_volume                     507.233
loop_
_atom_site_label
_atom_site_type_symbol
_atom_site_fract_x
_atom_site_fract_y
_atom_site_fract_z
Cd1 Cd 0.93159(3) 0.93549(2) 0.671423(18)
Cd2 Cd 0.5000 0.5000 0.0000
C1 C 0.7888(4) 0.5631(3) 0.4065(3)
C2 C 0.7172(4) 0.3865(3) 0.3347(3)
H1 H 0.7081 0.3372 0.2356
C3 C 0.6594(4) 0.2853(3) 0.4147(3)
C4 C 0.6747(4) 0.3629(3) 0.5624(3)
H2 H 0.6332 0.2979 0.6175
C5 C 0.7533(4) 0.5398(3) 0.6260(3)
C6 C 0.7799(4) 0.6334(3) 0.7872(3)
C7 C 0.8493(4) 0.6827(3) 0.3270(3)
C8 C 0.5828(4) 0.0928(3) 0.3405(3)
N1 N 0.8102(3) 0.6382(3) 0.5498(2)
O1 O 0.9538(3) 0.8334(2) 0.40322(19)
O2 O 0.7980(3) 0.6217(2) 0.19223(19)
O3 O 0.7048(3) 0.0184(2) 0.2674(2)
O4 O 0.4068(3) 0.0199(2) 0.3533(2)
O5 O 0.7225(3) 0.5418(3) 0.8569(2)
O6 O 0.8591(4) 0.7916(2) 0.8360(2)
O7 O 0.9481(3) 1.1568(2) 0.8903(2)
H3 H 1.020(5) 1.240(3) 0.879(3)
H4 H 0.997(5) 1.151(5) 0.968(2)
O8 O 0.5662(4) 0.2423(3) -0.0405(2)
H5 H 0.469(4) 0.171(4) -0.104(3)
H6 H 0.681(3) 0.228(5) -0.060(4)
Cd1A Cd 0.06841(3) 0.06451(2) -0.671423(18)
Cd1A_2 Cd 1.06841(3) 1.06451(2) 0.328577(18)
Cd1A_3 Cd 1.06841(3) 0.06451(2) 0.328577(18)
Cd1A_4 Cd 0.06841(3) 0.06451(2) 0.328577(18)
Cd1_2 Cd -0.06841(3) -0.06451(2) -0.328577(18)
Cd1_3 Cd -0.06841(3) 0.93549(2) -0.328577(18)
Cd1_4 Cd 0.93159(3) 0.93549(2) -0.328577(18)
Cd2_2 Cd 0.5000 0.5000 1.0000
Cd2_3 Cd 0.5000 0.5000 -1.0000
C1A C 0.2112(4) 0.4369(3) -0.4065(3)
C2A C 0.2828(4) 0.6135(3) -0.3347(3)
H1A H 0.2919 0.6628 -0.2356
C3A C 0.3406(4) 0.7147(3) -0.4147(3)
C4A C 0.3253(4) 0.6371(3) -0.5624(3)
H2A H 0.3668 0.7021 -0.6175
C5A C 0.2467(4) 0.4602(3) -0.6260(3)
C6A C 0.2201(4) 0.3666(3) -0.7872(3)
C7A C 0.1507(4) 0.3173(3) -0.3270(3)
C8A C 0.4172(4) 0.9072(3) -0.3405(3)
N1A N 0.1898(3) 0.3618(3) -0.5498(2)
O1A O 0.0462(3) 0.1666(2) -0.40322(19)
O1A_2 O 1.0462(3) 1.1666(2) 0.59678(19)
O1_2 O -0.0462(3) -0.1666(2) -0.59678(19)
O2A O 0.2020(3) 0.3783(2) -0.19223(19)
O3A O 0.2952(3) 0.9816(2) -0.2674(2)
O3A_2 O 1.2952(3) 0.9816(2) 0.7326(2)
O3_2 O -0.2952(3) 0.0184(2) -0.7326(2)
O4A O 0.5932(3) 0.9801(2) -0.3533(2)
O4A_2 O 0.5932(3) 0.9801(2) 0.6467(2)
O4_2 O 0.4068(3) 0.0199(2) -0.6467(2)
O5A O 0.2775(3) 0.4582(3) -0.8569(2)
O5_2 O 0.7225(3) 0.5418(3) -0.1431(2)
O5A_2 O 0.2775(3) 0.4582(3) 0.1431(2)
O6A O 0.1409(4) 0.2084(2) -0.8360(2)
O7A O 0.0519(3) -0.1568(2) -0.8903(2)
H3A H -0.020(5) -0.240(3) -0.879(3)
H4A H 0.003(5) -0.151(5) -0.968(2)
O8A O 0.4338(4) 0.7577(3) 0.0405(2)
H5A H 0.531(4) 0.829(4) 0.104(3)
H6A H 0.319(3) 0.772(5) 0.060(4)
loop_
_geom_bond_atom_site_label_1
_geom_bond_atom_site_label_2
_geom_bond_site_symmetry_1
_geom_bond_site_symmetry_2
Cd1 N1 1_555 1_555
Cd2 O2 1_555 1_555
C1 C2 1_555 1_555
C2 H1 1_555 1_555
C3 C2 1_555 1_555
C4 C3 1_555 1_555
H2 C4 1_555 1_555
C5 C4 1_555 1_555
C6 C5 1_555 1_555
C7 C1 1_555 1_555
C8 C3 1_555 1_555
N1 C1 1_555 1_555
O1 Cd1 1_555 1_555
O2 C7 1_555 1_555
O3 C8 1_555 1_555
O4 C8 1_555 1_555
O5 C6 1_555 1_555
O6 Cd1 1_555 1_555
O7 Cd1 1_555 1_555
H3 O7 1_555 1_555
H4 O7 1_555 1_555
O8 Cd2 1_555 1_555
H5 O8 1_555 1_555
H6 O8 1_555 1_555
Cd1A N1A 1_555 1_555
Cd1A_2 O1 1_555 1_555
Cd1A_3 O3 1_555 1_555
Cd1A_4 O4 1_555 1_555
Cd1_2 O1A 1_555 1_555
Cd1_3 O3A 1_555 1_555
Cd1_4 O4A 1_555 1_555
Cd2_2 O5 1_555 1_555
Cd2_3 O5A 1_555 1_555
C1A C2A 1_555 1_555
C2A H1A 1_555 1_555
C3A C2A 1_555 1_555
C4A C3A 1_555 1_555
H2A C4A 1_555 1_555
C5A C4A 1_555 1_555
C6A C5A 1_555 1_555
C7A C1A 1_555 1_555
C8A C3A 1_555 1_555
N1A C1A 1_555 1_555
O1A Cd1A 1_555 1_555
O1A_2 Cd1 1_555 1_555
O1_2 Cd1A 1_555 1_555
O2A Cd2 1_555 1_555
O3A C8A 1_555 1_555
O3A_2 Cd1 1_555 1_555
O3_2 Cd1A 1_555 1_555
O4A C8A 1_555 1_555
O4A_2 Cd1 1_555 1_555
O4_2 Cd1A 1_555 1_555
O5A C6A 1_555 1_555
O5_2 Cd2 1_555 1_555
O5A_2 Cd2 1_555 1_555
O6A Cd1A 1_555 1_555
O7A Cd1A 1_555 1_555
H3A O7A 1_555 1_555
H4A O7A 1_555 1_555
O8A Cd2 1_555 1_555
H5A O8A 1_555 1_555
H6A O8A 1_555 1_555
C5 N1 1_555 1_555
C6 O6 1_555 1_555
C7 O1 1_555 1_555
Cd1A_2 O1A_2 1_555 1_555
Cd1_2 O1_2 1_555 1_555
C5A N1A 1_555 1_555
C6A O6A 1_555 1_555
C7A O1A 1_555 1_555
C7A O2A 1_555 1_555

#END
