
#######################################################################
#
#                 Cambridge Crystallographic Data Centre
#                                CCDC 
#
#######################################################################
#
# If this CIF has been generated from an entry in the Cambridge 
# Structural Database, then it will include bibliographic, chemical, 
# crystal, experimental, refinement or atomic coordinate data resulting 
# from the CCDC's data processing and validation procedures.
#
#######################################################################

data_YIKGAB
_symmetry_cell_setting           tetragonal
_symmetry_space_group_name_H-M   'I 41/a'
_symmetry_Int_Tables_number      88
_space_group_name_Hall           '-I 4ad'
loop_
_symmetry_equiv_pos_site_id
_symmetry_equiv_pos_as_xyz
1 x,y,z
2 3/4-y,1/4+x,1/4+z
3 1/2+x,1/2+y,1/2+z
4 1/4-y,3/4+x,3/4+z
5 1/4+y,1/4-x,1/4+z
6 1/2-x,-y,1/2+z
7 3/4+y,3/4-x,3/4+z
8 -x,1/2-y,z
9 -x,-y,-z
10 1/4+y,3/4-x,3/4-z
11 1/2-x,1/2-y,1/2-z
12 3/4+y,1/4-x,1/4-z
13 3/4-y,3/4+x,3/4-z
14 1/2+x,y,1/2-z
15 1/4-y,1/4+x,1/4-z
16 x,1/2+y,-z
_cell_length_a                   14.1134(11)
_cell_length_b                   14.1134(11)
_cell_length_c                   13.576(2)
_cell_angle_alpha                90
_cell_angle_beta                 90
_cell_angle_gamma                90
_cell_volume                     2704.18
loop_
_atom_site_label
_atom_site_type_symbol
_atom_site_fract_x
_atom_site_fract_y
_atom_site_fract_z
Cd1 Cd 0.0000 0.7500 0.130294(18)
O1 O 0.02377(13) 0.63401(14) 0.25042(16)
O2 O 0.11478(13) 0.54149(13) 0.33857(15)
O3 O 0.39220(14) 0.62807(15) 0.42635(17)
O4 O 0.26477(15) 0.54151(16) 0.41906(18)
H1 H 0.2163 0.5357 0.3816
O5 O 0.07917(15) 0.65543(17) 0.01747(17)
H2 H 0.0507 0.6212 -0.0242
H3 H 0.1242 0.6899 -0.0047
N1 N 0.16213(12) 0.75297(13) 0.20953(13)
C1 C 0.10036(16) 0.61561(17) 0.28870(17)
C2 C 0.18309(15) 0.68455(15) 0.27309(15)
C3 C 0.27430(15) 0.68137(15) 0.31529(15)
C4 C 0.31427(19) 0.61212(19) 0.39231(19)
Cd1M Cd 0.5000 0.7500 0.369706(18)
O1J O 0.47623(13) 0.86599(14) 0.24958(16)
O1G O -0.02377(13) 0.86599(14) 0.25042(16)
O2J O 0.38522(13) 0.95851(13) 0.16143(15)
O3J O 0.10780(14) 0.87193(15) 0.07365(17)
O3M O -0.10780(14) 0.62807(15) 0.07365(17)
O4J O 0.23523(15) 0.95849(16) 0.08094(18)
H1J H 0.2837 0.9643 0.1184
O5G O -0.07917(15) 0.84457(17) 0.01747(17)
H2G H -0.0507 0.8788 -0.0242
H3G H -0.1242 0.8101 -0.0047
N1J N 0.33787(12) 0.74703(13) 0.29047(13)
N1G N -0.16213(12) 0.74703(13) 0.20953(13)
C1J C 0.39964(16) 0.88439(17) 0.21130(17)
C2J C 0.31691(15) 0.81545(15) 0.22691(15)
C3J C 0.22570(15) 0.81863(15) 0.18471(15)
C4J C 0.18573(19) 0.88788(19) 0.10769(19)
O6 O 0.0389(2) 0.45309(18) 0.11419(16)
H4 H 0.0156 0.5092 0.1164
H5 H 0.0203 0.4172 0.0673
loop_
_geom_bond_atom_site_label_1
_geom_bond_atom_site_label_2
_geom_bond_site_symmetry_1
_geom_bond_site_symmetry_2
Cd1 O1 1_555 1_555
O1 C1 1_555 1_555
O2 C1 1_555 1_555
O3 C4 1_555 1_555
O4 H1 1_555 1_555
O5 Cd1 1_555 1_555
H2 O5 1_555 1_555
H3 O5 1_555 1_555
N1 Cd1 1_555 1_555
C1 C2 1_555 1_555
C2 N1 1_555 1_555
C3 C2 1_555 1_555
C4 O4 1_555 1_555
O6 H4 1_555 1_555
H5 O6 1_555 1_555
Cd1M O3 1_555 1_555
O1J Cd1M 1_555 1_555
O1G Cd1 1_555 1_555
O2J C1J 1_555 1_555
O3J Cd1 1_555 1_555
O3M Cd1 1_555 1_555
O4J H1J 1_555 1_555
O5G Cd1 1_555 1_555
H2G O5G 1_555 1_555
H3G O5G 1_555 1_555
N1J C3 1_555 1_555
N1G Cd1 1_555 1_555
C1J O1J 1_555 1_555
C2J N1J 1_555 1_555
C3J N1 1_555 1_555
C4J O3J 1_555 1_555
C3 C4 1_555 1_555
Cd1M N1J 1_555 1_555
O4J C4J 1_555 1_555
C1J C2J 1_555 1_555
C2J C3J 1_555 1_555
C3J C4J 1_555 1_555

#END
