
#######################################################################
#
#                 Cambridge Crystallographic Data Centre
#                                CCDC 
#
#######################################################################
#
# If this CIF has been generated from an entry in the Cambridge 
# Structural Database, then it will include bibliographic, chemical, 
# crystal, experimental, refinement or atomic coordinate data resulting 
# from the CCDC's data processing and validation procedures.
#
#######################################################################

data_YIKGEF
_symmetry_cell_setting           triclinic
_symmetry_space_group_name_H-M   'P -1'
_symmetry_Int_Tables_number      2
_space_group_name_Hall           '-P 1'
loop_
_symmetry_equiv_pos_site_id
_symmetry_equiv_pos_as_xyz
1 x,y,z
2 -x,-y,-z
_cell_length_a                   6.5678(13)
_cell_length_b                   8.5118(17)
_cell_length_c                   10.045(2)
_cell_angle_alpha                109.382(3)
_cell_angle_beta                 96.936(3)
_cell_angle_gamma                100.764(3)
_cell_volume                     510.19
loop_
_atom_site_label
_atom_site_type_symbol
_atom_site_fract_x
_atom_site_fract_y
_atom_site_fract_z
Cd1 Cd 0.5000 0.5000 1.0000
Cd2 Cd -0.06801(6) -0.06452(5) 0.67137(4)
O1 O 0.2013(6) 0.3784(5) 0.8077(4)
O2 O 0.0467(6) 0.1668(4) 0.5969(4)
O3 O 0.1396(7) 0.2076(5) 0.1635(4)
O4 O 0.2771(6) 0.4587(5) 0.1427(4)
O5 O 0.5930(5) 0.9791(5) 0.6460(4)
O6 O 0.2955(6) 0.9808(5) 0.7326(4)
O7 O 0.4332(7) 0.7589(5) 1.0406(5)
O8 O -0.0513(6) 0.1565(5) 0.8901(4)
N1 N 0.1893(6) 0.3618(5) 0.4502(4)
C1 C 0.1494(8) 0.3170(6) 0.6723(6)
C2 C 0.2120(8) 0.4350(6) 0.5935(5)
C3 C 0.2842(8) 0.6142(7) 0.6652(6)
H1 H 0.2943 0.6638 0.7641
C4 C 0.3400(8) 0.7151(7) 0.5859(6)
C5 C 0.3257(7) 0.6374(6) 0.4375(6)
H2 H 0.3676 0.7024 0.3828
C6 C 0.2469(7) 0.4601(6) 0.3739(5)
C7 C 0.2195(8) 0.3669(7) 0.2128(5)
C8 C 0.4182(8) 0.9063(7) 0.6591(6)
H3 H 0.309(4) 0.767(10) 1.052(8)
H4 H 0.535(8) 0.828(9) 1.107(7)
H5 H 0.020(10) 0.236(7) 0.869(7)
H6 H -0.007(10) 0.153(9) 0.972(4)
Cd1_2 Cd 0.5000 0.5000 0.0000
Cd1_3 Cd 0.5000 0.5000 2.0000
Cd2A Cd 1.06801(6) 1.06452(5) 1.32863(4)
Cd2A_2 Cd 0.06801(6) 0.06452(5) 0.32863(4)
Cd2_2 Cd 0.93199(6) 0.93548(5) 0.67137(4)
Cd2_3 Cd -0.06801(6) 0.93548(5) 0.67137(4)
Cd2_4 Cd 0.93199(6) 0.93548(5) 1.67137(4)
Cd2A_3 Cd 0.06801(6) 0.06452(5) 1.32863(4)
Cd2A_4 Cd 1.06801(6) 0.06452(5) 1.32863(4)
O1A O 0.7987(6) 0.6216(5) 1.1923(4)
O2A O 0.9533(6) 0.8332(4) 1.4031(4)
O2A_2 O -0.0467(6) -0.1668(4) 0.4031(4)
O2_2 O 1.0467(6) 1.1668(4) 1.5969(4)
O3A O 0.8604(7) 0.7924(5) 1.8365(4)
O3A_2 O -0.1396(7) -0.2076(5) 0.8365(4)
O3_2 O 1.1396(7) 1.2076(5) 1.1635(4)
O4A O 0.7229(6) 0.5413(5) 1.8573(4)
O4_2 O 0.2771(6) 0.4587(5) 1.1427(4)
O4A_2 O 0.7229(6) 0.5413(5) 0.8573(4)
O5A O 0.4070(5) 0.0209(5) 1.3540(4)
O5_2 O -0.4070(5) -0.0209(5) 0.6460(4)
O5A_2 O 1.4070(5) 1.0209(5) 1.3540(4)
O6A O 0.7045(6) 0.0192(5) 1.2674(4)
O6_2 O 0.2955(6) -0.0192(5) 0.7326(4)
O6A_2 O 0.7045(6) 1.0192(5) 1.2674(4)
O7A O 0.5668(7) 0.2411(5) 0.9594(5)
O8A O 1.0513(6) 0.8435(5) 1.1099(4)
N1A N 0.8107(6) 0.6382(5) 1.5498(4)
N1A_2 N -0.1893(6) -0.3618(5) 0.5498(4)
N1_2 N 1.1893(6) 1.3618(5) 1.4502(4)
C1A C 0.8506(8) 0.6830(6) 1.3277(6)
C2A C 0.7880(8) 0.5650(6) 1.4065(5)
C3A C 0.7158(8) 0.3858(7) 1.3348(6)
H1A H 0.7057 0.3362 1.2359
C4A C 0.6600(8) 0.2849(7) 1.4141(6)
C5A C 0.6743(7) 0.3626(6) 1.5625(6)
H2A H 0.6324 0.2976 1.6172
C6A C 0.7531(7) 0.5399(6) 1.6261(5)
C7A C 0.7805(8) 0.6331(7) 1.7872(5)
C8A C 0.5818(8) 0.0937(7) 1.3409(6)
H3A H 0.691(4) 0.233(10) 0.948(8)
H4A H 0.465(8) 0.172(9) 0.893(7)
H5A H 0.980(10) 0.764(7) 1.131(7)
H6A H 1.007(10) 0.847(9) 1.028(4)
loop_
_geom_bond_atom_site_label_1
_geom_bond_atom_site_label_2
_geom_bond_site_symmetry_1
_geom_bond_site_symmetry_2
Cd1 O1 1_555 1_555
Cd2 O2 1_555 1_555
O1 C1 1_555 1_555
O2 C1 1_555 1_555
O3 C7 1_555 1_555
O4 C7 1_555 1_555
O5 C8 1_555 1_555
O6 C8 1_555 1_555
O7 Cd1 1_555 1_555
O8 Cd2 1_555 1_555
N1 C2 1_555 1_555
C1 C2 1_555 1_555
C2 C3 1_555 1_555
C3 H1 1_555 1_555
C4 C3 1_555 1_555
C5 C4 1_555 1_555
H2 C5 1_555 1_555
C6 N1 1_555 1_555
C7 C6 1_555 1_555
C8 C4 1_555 1_555
H3 O7 1_555 1_555
H4 O7 1_555 1_555
H5 O8 1_555 1_555
H6 O8 1_555 1_555
Cd1_2 O4 1_555 1_555
Cd1_3 O4A 1_555 1_555
Cd2A O2A 1_555 1_555
Cd2A_2 O2 1_555 1_555
Cd2_2 O5 1_555 1_555
Cd2_3 O6 1_555 1_555
Cd2_4 O2A 1_555 1_555
Cd2A_3 O5A 1_555 1_555
Cd2A_4 O6A 1_555 1_555
O1A Cd1 1_555 1_555
O2A C1A 1_555 1_555
O2A_2 Cd2 1_555 1_555
O2_2 Cd2A 1_555 1_555
O3A Cd2_4 1_555 1_555
O3A_2 Cd2 1_555 1_555
O3_2 Cd2A 1_555 1_555
O4A C7A 1_555 1_555
O4_2 Cd1 1_555 1_555
O4A_2 Cd1 1_555 1_555
O5A C8A 1_555 1_555
O5_2 Cd2 1_555 1_555
O5A_2 Cd2A 1_555 1_555
O6A C8A 1_555 1_555
O6_2 Cd2 1_555 1_555
O6A_2 Cd2A 1_555 1_555
O7A Cd1 1_555 1_555
O8A Cd2A 1_555 1_555
N1A Cd2_4 1_555 1_555
N1A_2 Cd2 1_555 1_555
N1_2 Cd2A 1_555 1_555
C1A O1A 1_555 1_555
C2A N1A 1_555 1_555
C3A C2A 1_555 1_555
H1A C3A 1_555 1_555
C4A C3A 1_555 1_555
C5A C4A 1_555 1_555
H2A C5A 1_555 1_555
C6A N1A 1_555 1_555
C7A O3A 1_555 1_555
C8A C4A 1_555 1_555
H3A O7A 1_555 1_555
H4A O7A 1_555 1_555
H5A O8A 1_555 1_555
H6A O8A 1_555 1_555
O3 Cd2A_2 1_555 1_555
N1 Cd2A_2 1_555 1_555
C5 C6 1_555 1_555
Cd2A_2 O2A_2 1_555 1_555
Cd2_4 O2_2 1_555 1_555
C1A C2A 1_555 1_555
C5A C6A 1_555 1_555
C6A C7A 1_555 1_555

#END
