
#######################################################################
#
#                 Cambridge Crystallographic Data Centre
#                                CCDC 
#
#######################################################################
#
# If this CIF has been generated from an entry in the Cambridge 
# Structural Database, then it will include bibliographic, chemical, 
# crystal, experimental, refinement or atomic coordinate data resulting 
# from the CCDC's data processing and validation procedures.
#
#######################################################################

data_YIKLUZ
_symmetry_cell_setting           orthorhombic
_symmetry_space_group_name_H-M   'P c c n'
_symmetry_Int_Tables_number      56
_space_group_name_Hall           '-P 2ab 2ac'
loop_
_symmetry_equiv_pos_site_id
_symmetry_equiv_pos_as_xyz
1 x,y,z
2 1/2-x,y,1/2+z
3 x,1/2-y,1/2+z
4 1/2-x,1/2-y,z
5 -x,-y,-z
6 1/2+x,-y,1/2-z
7 -x,1/2+y,1/2-z
8 1/2+x,1/2+y,-z
_cell_length_a                   9.885(1)
_cell_length_b                   10.020(1)
_cell_length_c                   16.438(3)
_cell_angle_alpha                90
_cell_angle_beta                 90
_cell_angle_gamma                90
_cell_volume                     1628.15
loop_
_atom_site_label
_atom_site_type_symbol
_atom_site_fract_x
_atom_site_fract_y
_atom_site_fract_z
O6 O 0.0846(8) 0.5619(8) 0.1109(5)
O7 O 0.2500 0.7500 0.131(1)
Zn1 Zn 0.3562(1) 0.4034(1) 0.20335(8)
P1 P 0.0729(3) 0.3627(3) 0.2872(2)
O1 O 0.1620(8) 0.4186(9) 0.2202(5)
O2 O 0.4289(8) 0.5826(8) 0.2191(5)
O3 O 0.4336(9) 0.2893(8) 0.2876(6)
O4 O 0.416(1) 0.334(1) 0.0987(5)
O5 O 0.273(1) 0.474(1) 0.0414(6)
C1 C 0.141(1) 0.412(1) 0.3822(7)
C2 C 0.084(1) 0.341(2) 0.4548(8)
C3 C 0.361(1) 0.389(1) 0.0384(7)
O2E O -0.0711(8) 0.4174(8) 0.2809(5)
O3C O 0.0664(9) 0.2107(8) 0.2876(6)
P1E P 0.5729(3) 0.6373(3) 0.2128(2)
P1C P 0.4271(3) 0.1373(3) 0.2872(2)
C3A C 0.139(1) 0.389(1) 0.5384(7)
C2A C 0.416(1) 0.341(2) -0.0452(8)
Zn1E Zn -0.1438(1) 0.5966(1) 0.29665(8)
Zn1C Zn 0.1438(1) 0.0966(1) 0.20335(8)
O1E O 0.6620(8) 0.5814(9) 0.2798(5)
O3F O 0.5664(9) 0.7893(8) 0.2124(6)
C1E C 0.641(1) 0.588(1) 0.1178(7)
O1C O 0.3380(8) 0.0814(9) 0.2202(5)
O2F O 0.5711(8) 0.0826(8) 0.2809(5)
C1C C 0.359(1) 0.088(1) 0.3822(7)
O4A O 0.084(1) 0.334(1) 0.5987(5)
O5A O 0.227(1) 0.474(1) 0.5414(6)
C1A C 0.359(1) 0.412(1) -0.1178(7)
O1E_2 O -0.3380(8) 0.5814(9) 0.2798(5)
O3E O -0.0664(9) 0.7107(8) 0.2124(6)
O4E O -0.084(1) 0.666(1) 0.4013(5)
O2C O 0.0711(8) -0.0826(8) 0.2191(5)
O4C O 0.084(1) 0.166(1) 0.0987(5)
Zn1E_2 Zn 0.8562(1) 0.5966(1) 0.29665(8)
Zn1F Zn 0.6438(1) 0.9034(1) 0.29665(8)
C2E C 0.584(1) 0.659(2) 0.0452(8)
Zn1F_2 Zn 0.6438(1) -0.0966(1) 0.29665(8)
C2C C 0.416(1) 0.159(2) 0.4548(8)
Zn1A Zn 0.1438(1) 0.4034(1) 0.70335(8)
P1A P 0.4271(3) 0.3627(3) -0.2128(2)
P1F P -0.0729(3) 0.8627(3) 0.2128(2)
C3E C -0.139(1) 0.611(1) 0.4616(7)
P1F_2 P -0.0729(3) -0.1373(3) 0.2128(2)
C3C C 0.139(1) 0.111(1) 0.0384(7)
O1F O 0.8380(8) 0.9186(9) 0.2798(5)
O2F_2 O 0.5711(8) 1.0826(8) 0.2809(5)
O4F O 0.584(1) 0.834(1) 0.4013(5)
C3D C 0.639(1) 0.611(1) -0.0384(7)
C3B C 0.361(1) 0.111(1) 0.5384(7)
O1A O 0.3380(8) 0.4186(9) 0.7202(5)
O2A O 0.0711(8) 0.5826(8) 0.7191(5)
O3A O 0.0664(9) 0.2893(8) 0.7876(6)
O1A_2 O 0.3380(8) 0.4186(9) -0.2798(5)
O2D O 0.5711(8) 0.4174(8) -0.2191(5)
O3B O 0.4336(9) 0.2107(8) -0.2124(6)
O1F_2 O -0.1620(8) 0.9186(9) 0.2798(5)
O2C_2 O 0.0711(8) 0.9174(8) 0.2191(5)
C1F C -0.141(1) 0.912(1) 0.1178(7)
O5E O -0.227(1) 0.526(1) 0.4586(6)
C2D C -0.084(1) 0.659(2) 0.5452(8)
O5C O 0.227(1) 0.026(1) 0.0414(6)
C2B C 0.084(1) 0.159(2) -0.0452(8)
P1F_3 P 0.9271(3) 0.8627(3) 0.2128(2)
C3F C 0.639(1) 0.889(1) 0.4616(7)
O4D O 0.584(1) 0.666(1) -0.0987(5)
O5D O 0.727(1) 0.526(1) -0.0414(6)
O4B O 0.416(1) 0.166(1) 0.5987(5)
O5B O 0.273(1) 0.026(1) 0.5414(6)
P1A_2 P 0.4271(3) 0.3627(3) 0.7872(2)
P1D P -0.0729(3) 0.6373(3) 0.7128(2)
P1B P 0.0729(3) 0.1373(3) 0.7872(2)
Zn1D Zn 0.6438(1) 0.5966(1) -0.20335(8)
Zn1B Zn 0.3562(1) 0.0966(1) -0.29665(8)
C2F C -0.084(1) 0.841(2) 0.0452(8)
C1D C -0.141(1) 0.588(1) 0.6178(7)
C1B C 0.141(1) 0.088(1) -0.1178(7)
O5F O 0.727(1) 0.974(1) 0.4586(6)
C2G C 0.584(1) 0.841(2) 0.5452(8)
Zn1B_2 Zn 0.3562(1) 0.0966(1) 0.70335(8)
O1D O -0.1620(8) 0.5814(9) 0.7798(5)
O3G O -0.0664(9) 0.7893(8) 0.7124(6)
O1B O 0.1620(8) 0.0814(9) 0.7202(5)
O2G O -0.0711(8) 0.0826(8) 0.7809(5)
C1B_2 C 0.141(1) 0.088(1) 0.8822(7)
O1D_2 O 0.8380(8) 0.5814(9) -0.2202(5)
O3D O 0.5664(9) 0.7107(8) -0.2876(6)
O1B_2 O 0.1620(8) 0.0814(9) -0.2798(5)
O2B O 0.4289(8) -0.0826(8) -0.2809(5)
O4B_2 O 0.416(1) 0.166(1) -0.4013(5)
C3G C -0.139(1) 0.889(1) -0.0384(7)
P1B_2 P 0.0729(3) 0.1373(3) -0.2128(2)
C1G C 0.641(1) 0.912(1) 0.6178(7)
Zn1D_2 Zn -0.3562(1) 0.5966(1) 0.79665(8)
Zn1G Zn -0.1438(1) 0.9034(1) 0.79665(8)
Zn1G_2 Zn -0.1438(1) -0.0966(1) 0.79665(8)
P1G P 0.5729(3) 0.8627(3) -0.2872(2)
P1G_2 P 0.5729(3) -0.1373(3) -0.2872(2)
O4G O -0.084(1) 0.834(1) -0.0987(5)
O5G O -0.227(1) 0.974(1) -0.0414(6)
P1G_3 P 0.5729(3) 0.8627(3) 0.7128(2)
O1G O -0.3380(8) 0.9186(9) 0.7798(5)
O2G_2 O -0.0711(8) 1.0826(8) 0.7809(5)
O4G_2 O -0.084(1) 0.834(1) 0.9013(5)
O1G_2 O 0.6620(8) 0.9186(9) -0.2202(5)
O2B_2 O 0.4289(8) 0.9174(8) -0.2809(5)
C1G_2 C 0.641(1) 0.912(1) -0.3822(7)
Zn1G_3 Zn -0.1438(1) 0.9034(1) -0.20335(8)
P1G_4 P -0.4271(3) 0.8627(3) 0.7128(2)
loop_
_geom_bond_atom_site_label_1
_geom_bond_atom_site_label_2
_geom_bond_site_symmetry_1
_geom_bond_site_symmetry_2
Zn1 O1 1_555 1_555
P1 O1 1_555 1_555
O2 Zn1 1_555 1_555
O3 Zn1 1_555 1_555
O4 Zn1 1_555 1_555
O5 C3 1_555 1_555
C1 P1 1_555 1_555
C2 C1 1_555 1_555
C3 O4 1_555 1_555
O2E P1 1_555 1_555
O3C P1 1_555 1_555
P1E O2 1_555 1_555
P1C O3 1_555 1_555
C3A C2 1_555 1_555
C2A C3 1_555 1_555
Zn1E O2E 1_555 1_555
Zn1C O3C 1_555 1_555
O1E P1E 1_555 1_555
O3F P1E 1_555 1_555
C1E P1E 1_555 1_555
O1C P1C 1_555 1_555
O2F P1C 1_555 1_555
C1C P1C 1_555 1_555
O4A C3A 1_555 1_555
O5A C3A 1_555 1_555
C1A C2A 1_555 1_555
O1E_2 Zn1E 1_555 1_555
O3E Zn1E 1_555 1_555
O4E Zn1E 1_555 1_555
O2C Zn1C 1_555 1_555
O4C Zn1C 1_555 1_555
Zn1E_2 O1E 1_555 1_555
Zn1F O3F 1_555 1_555
C2E C1E 1_555 1_555
Zn1F_2 O2F 1_555 1_555
C2C C1C 1_555 1_555
Zn1A O4A 1_555 1_555
P1A C1A 1_555 1_555
P1F O3E 1_555 1_555
C3E O4E 1_555 1_555
P1F_2 O2C 1_555 1_555
C3C O4C 1_555 1_555
O1F Zn1F 1_555 1_555
O2F_2 Zn1F 1_555 1_555
O4F Zn1F 1_555 1_555
C3D C2E 1_555 1_555
C3B C2C 1_555 1_555
O1A Zn1A 1_555 1_555
O2A Zn1A 1_555 1_555
O3A Zn1A 1_555 1_555
O1A_2 P1A 1_555 1_555
O2D P1A 1_555 1_555
O3B P1A 1_555 1_555
O1F_2 P1F 1_555 1_555
O2C_2 P1F 1_555 1_555
C1F P1F 1_555 1_555
O5E C3E 1_555 1_555
C2D C3E 1_555 1_555
O5C C3C 1_555 1_555
C2B C3C 1_555 1_555
P1F_3 O1F 1_555 1_555
C3F O4F 1_555 1_555
O4D C3D 1_555 1_555
O5D C3D 1_555 1_555
O4B C3B 1_555 1_555
O5B C3B 1_555 1_555
P1A_2 O1A 1_555 1_555
P1D O2A 1_555 1_555
P1B O3A 1_555 1_555
Zn1D O2D 1_555 1_555
Zn1B O3B 1_555 1_555
C2F C1F 1_555 1_555
C1D C2D 1_555 1_555
C1B C2B 1_555 1_555
O5F C3F 1_555 1_555
C2G C3F 1_555 1_555
Zn1B_2 O4B 1_555 1_555
O1D P1D 1_555 1_555
O3G P1D 1_555 1_555
O1B P1B 1_555 1_555
O2G P1B 1_555 1_555
C1B_2 P1B 1_555 1_555
O1D_2 Zn1D 1_555 1_555
O3D Zn1D 1_555 1_555
O1B_2 Zn1B 1_555 1_555
O2B Zn1B 1_555 1_555
O4B_2 Zn1B 1_555 1_555
C3G C2F 1_555 1_555
P1B_2 C1B 1_555 1_555
C1G C2G 1_555 1_555
Zn1D_2 O1D 1_555 1_555
Zn1G O3G 1_555 1_555
Zn1G_2 O2G 1_555 1_555
P1G O3D 1_555 1_555
P1G_2 O2B 1_555 1_555
O4G C3G 1_555 1_555
O5G C3G 1_555 1_555
P1G_3 C1G 1_555 1_555
O1G Zn1G 1_555 1_555
O2G_2 Zn1G 1_555 1_555
O4G_2 Zn1G 1_555 1_555
O1G_2 P1G 1_555 1_555
O2B_2 P1G 1_555 1_555
C1G_2 P1G 1_555 1_555
Zn1G_3 O4G 1_555 1_555
P1G_4 O1G 1_555 1_555
Zn1C O1C 1_555 1_555
O4D Zn1D 1_555 1_555
P1D C1D 1_555 1_555
Zn1B_2 O1B 1_555 1_555

#END
