
#######################################################################
#
#                 Cambridge Crystallographic Data Centre
#                                CCDC 
#
#######################################################################
#
# If this CIF has been generated from an entry in the Cambridge 
# Structural Database, then it will include bibliographic, chemical, 
# crystal, experimental, refinement or atomic coordinate data resulting 
# from the CCDC's data processing and validation procedures.
#
#######################################################################

data_YIKMOU
_symmetry_cell_setting           monoclinic
_symmetry_space_group_name_H-M   'P 21/n'
_symmetry_Int_Tables_number      14
_space_group_name_Hall           '-P 2yn'
loop_
_symmetry_equiv_pos_site_id
_symmetry_equiv_pos_as_xyz
1 x,y,z
2 1/2-x,1/2+y,1/2-z
3 -x,-y,-z
4 1/2+x,1/2-y,1/2+z
_cell_length_a                   9.316(2)
_cell_length_b                   8.286(2)
_cell_length_c                   9.693(2)
_cell_angle_alpha                90
_cell_angle_beta                 90.52(2)
_cell_angle_gamma                90
_cell_volume                     748.195
loop_
_atom_site_label
_atom_site_type_symbol
_atom_site_fract_x
_atom_site_fract_y
_atom_site_fract_z
Cu1 Cu 0.0167(1) 0.1711(1) 0.4946(1)
O1 O 0.0438(4) 0.0003(4) 0.6264(3)
O2 O 0.2490(4) 0.1768(5) 0.4085(4)
N1 N 0.0448(4) 0.3564(5) 0.6294(4)
C1 C 0.0874(5) 0.3541(6) 0.7627(5)
C2 C 0.1069(6) 0.4960(6) 0.8342(5)
C3 C 0.0810(5) 0.6402(5) 0.7669(5)
N2 N -0.0371(4) 0.3584(5) 0.3654(4)
C4 C 0.0212(5) 0.4984(6) 0.5742(4)
H1 H -0.023(5) 0.014(7) 0.700(4)
H2 H 0.257(6) 0.114(5) 0.327(3)
H3 H 0.289(6) 0.282(3) 0.383(5)
H4 H 0.104 0.253 0.808
H5 H 0.138 0.495 0.929
H6 H 0.095 0.740 0.815
O1B O -0.0438(4) -0.0003(4) 0.3736(3)
Cu1B Cu -0.0167(1) -0.1711(1) 0.5054(1)
N2B N 0.0371(4) 0.6416(5) 0.6346(4)
C3B C -0.0810(5) 0.3598(5) 0.2331(5)
C4B C -0.0212(5) 0.5016(6) 0.4258(4)
H1B H 0.023(5) -0.014(7) 0.300(4)
O2B O -0.2490(4) -0.1768(5) 0.5915(4)
N1B N -0.0448(4) -0.3564(5) 0.3706(4)
N2B_2 N 0.0371(4) -0.3584(5) 0.6346(4)
Cu1B_2 Cu -0.0167(1) 0.8289(1) 0.5054(1)
C2B C -0.1069(6) 0.5040(6) 0.1658(5)
H6B H -0.095 0.260 0.185
N1B_2 N -0.0448(4) 0.6436(5) 0.3706(4)
H2B H -0.257(6) -0.114(5) 0.673(3)
H3B H -0.289(6) -0.282(3) 0.617(5)
C1B C -0.0874(5) 0.6459(6) 0.2373(5)
H5B H -0.138 0.505 0.071
H4B H -0.104 0.747 0.192
N3 N 0.3259(5) 0.5821(6) 0.4437(5)
O3 O 0.3120(5) 0.4945(5) 0.3357(4)
O4 O 0.3145(6) 0.7294(6) 0.4301(5)
O5 O 0.3450(5) 0.5158(5) 0.5565(4)
loop_
_geom_bond_atom_site_label_1
_geom_bond_atom_site_label_2
_geom_bond_site_symmetry_1
_geom_bond_site_symmetry_2
Cu1 O1 1_555 1_555
O1 H1 1_555 1_555
O2 Cu1 1_555 1_555
N1 Cu1 1_555 1_555
C1 N1 1_555 1_555
C2 C1 1_555 1_555
C3 C2 1_555 1_555
N2 Cu1 1_555 1_555
C4 N1 1_555 1_555
N3 O3 1_555 1_555
O4 N3 1_555 1_555
O5 N3 1_555 1_555
H2 O2 1_555 1_555
H3 O2 1_555 1_555
H4 C1 1_555 1_555
H5 C2 1_555 1_555
H6 C3 1_555 1_555
O1B Cu1 1_555 1_555
Cu1B O1 1_555 1_555
N2B C3 1_555 1_555
C3B N2 1_555 1_555
C4B N2 1_555 1_555
H1B O1B 1_555 1_555
O2B Cu1B 1_555 1_555
N1B Cu1B 1_555 1_555
N2B_2 Cu1B 1_555 1_555
Cu1B_2 N2B 1_555 1_555
C2B C3B 1_555 1_555
H6B C3B 1_555 1_555
N1B_2 C4B 1_555 1_555
H2B O2B 1_555 1_555
H3B O2B 1_555 1_555
C1B C2B 1_555 1_555
H5B C2B 1_555 1_555
H4B C1B 1_555 1_555
C4 N2B 1_555 1_555
C4 C4B 1_555 1_555
O1B Cu1B 1_555 1_555
Cu1B_2 N1B_2 1_555 1_555
N1B_2 C1B 1_555 1_555

#END
