
#######################################################################
#
#                 Cambridge Crystallographic Data Centre
#                                CCDC 
#
#######################################################################
#
# If this CIF has been generated from an entry in the Cambridge 
# Structural Database, then it will include bibliographic, chemical, 
# crystal, experimental, refinement or atomic coordinate data resulting 
# from the CCDC's data processing and validation procedures.
#
#######################################################################

data_YIKMUA
_symmetry_cell_setting           triclinic
_symmetry_space_group_name_H-M   'P -1'
_symmetry_Int_Tables_number      2
_space_group_name_Hall           '-P 1'
loop_
_symmetry_equiv_pos_site_id
_symmetry_equiv_pos_as_xyz
1 x,y,z
2 -x,-y,-z
_cell_length_a                   7.564(2)
_cell_length_b                   8.032(2)
_cell_length_c                   8.238(2)
_cell_angle_alpha                61.33(2)
_cell_angle_beta                 88.66(2)
_cell_angle_gamma                75.97(2)
_cell_volume                     423.484
loop_
_atom_site_label
_atom_site_type_symbol
_atom_site_fract_x
_atom_site_fract_y
_atom_site_fract_z
Cu1 Cu 0.4897(1) 0.1807(1) 0.3321(1)
O1 O 0.3618(3) -0.0252(3) 0.4291(3)
O2 O 0.2774(4) 0.3698(4) 0.4245(3)
N1 N 0.3572(4) 0.3351(4) 0.0693(3)
C1 C 0.2140(5) 0.3111(5) -0.0018(4)
C2 C 0.1374(5) 0.4436(5) -0.1845(4)
C3 C 0.2143(4) 0.5971(5) -0.2888(4)
N2 N 0.6400(3) 0.3810(4) 0.2170(3)
C4 C 0.4220(4) 0.4875(4) -0.0411(4)
H1 H 0.244(3) 0.006(6) 0.467(6)
H2 H 0.319(6) 0.470(4) 0.428(5)
H3 H 0.276(6) 0.280(5) 0.551(2)
H6 H 0.164 0.202 0.073
H7 H 0.034 0.429 -0.236
H8 H 0.163 0.690 -0.415
O1A O 0.6382(3) 0.0252(3) 0.5709(3)
Cu1A Cu 0.5103(1) -0.1807(1) 0.6679(1)
N2A N 0.3600(3) 0.6190(4) -0.2170(3)
C3A C 0.7857(4) 0.4029(5) 0.2888(4)
C4A C 0.5780(4) 0.5125(4) 0.0411(4)
H1A H 0.756(3) -0.006(6) 0.533(6)
O2A O 0.7226(4) -0.3698(4) 0.5755(3)
N1A N 0.6428(4) -0.3351(4) 0.9307(3)
N2A_2 N 0.3600(3) -0.3810(4) 0.7830(3)
Cu1A_2 Cu 0.5103(1) 0.8193(1) -0.3321(1)
C2A C 0.8626(5) 0.5564(5) 0.1845(4)
H8A H 0.837 0.310 0.415
N1A_2 N 0.6428(4) 0.6649(4) -0.0693(3)
H2A H 0.681(6) -0.470(4) 0.572(5)
H3A H 0.724(6) -0.280(5) 0.449(2)
C1A C 0.7860(5) 0.6889(5) 0.0018(4)
H7A H 0.966 0.571 0.236
H6A H 0.836 0.798 -0.073
N3 N 0.8548(4) 0.0318(4) 0.1855(4)
O3 O 0.8660(4) 0.1679(5) 0.0267(4)
O4 O 0.7219(4) -0.0408(4) 0.2090(4)
O5 O 0.9663(4) -0.0189(5) 0.3191(4)
O6 O 0.3862(4) 0.7147(4) 0.2815(4)
H4 H 0.378(6) 0.804(5) 0.329(5)
H5 H 0.293(4) 0.792(5) 0.180(4)
loop_
_geom_bond_atom_site_label_1
_geom_bond_atom_site_label_2
_geom_bond_site_symmetry_1
_geom_bond_site_symmetry_2
Cu1 O1 1_555 1_555
O1 H1 1_555 1_555
O2 Cu1 1_555 1_555
N1 Cu1 1_555 1_555
C1 N1 1_555 1_555
C2 C1 1_555 1_555
C3 C2 1_555 1_555
N2 Cu1 1_555 1_555
C4 N1 1_555 1_555
N3 O3 1_555 1_555
O4 N3 1_555 1_555
O5 N3 1_555 1_555
O6 H4 1_555 1_555
H2 O2 1_555 1_555
H3 O2 1_555 1_555
H5 O6 1_555 1_555
H6 C1 1_555 1_555
H7 C2 1_555 1_555
H8 C3 1_555 1_555
O1A Cu1 1_555 1_555
Cu1A O1 1_555 1_555
N2A C3 1_555 1_555
C3A N2 1_555 1_555
C4A N2 1_555 1_555
H1A O1A 1_555 1_555
O2A Cu1A 1_555 1_555
N1A Cu1A 1_555 1_555
N2A_2 Cu1A 1_555 1_555
Cu1A_2 N2A 1_555 1_555
C2A C3A 1_555 1_555
H8A C3A 1_555 1_555
N1A_2 C4A 1_555 1_555
H2A O2A 1_555 1_555
H3A O2A 1_555 1_555
C1A C2A 1_555 1_555
H7A C2A 1_555 1_555
H6A C1A 1_555 1_555
C4 N2A 1_555 1_555
C4 C4A 1_555 1_555
O1A Cu1A 1_555 1_555
Cu1A_2 N1A_2 1_555 1_555
N1A_2 C1A 1_555 1_555

#END
