
#######################################################################
#
#                 Cambridge Crystallographic Data Centre
#                                CCDC 
#
#######################################################################
#
# If this CIF has been generated from an entry in the Cambridge 
# Structural Database, then it will include bibliographic, chemical, 
# crystal, experimental, refinement or atomic coordinate data resulting 
# from the CCDC's data processing and validation procedures.
#
#######################################################################

data_YIKTET
_symmetry_cell_setting           monoclinic
_symmetry_space_group_name_H-M   'P 21'
_symmetry_Int_Tables_number      4
_space_group_name_Hall           'P 2yb'
loop_
_symmetry_equiv_pos_site_id
_symmetry_equiv_pos_as_xyz
1 x,y,z
2 -x,1/2+y,-z
_cell_length_a                   15.5137(11)
_cell_length_b                   26.7605(8)
_cell_length_c                   15.6854(11)
_cell_angle_alpha                90
_cell_angle_beta                 90.796(7)
_cell_angle_gamma                90
_cell_volume                     6511.23
loop_
_atom_site_label
_atom_site_type_symbol
_atom_site_fract_x
_atom_site_fract_y
_atom_site_fract_z
Cu1 Cu 0.57987(5) 0.82791(3) 0.11374(5)
Cu2 Cu 0.54289(5) 0.92377(3) 0.12720(5)
O1 O 0.4550(3) 0.81862(16) 0.1047(3)
O2 O 0.4236(3) 0.89901(18) 0.1211(3)
O3 O 0.5713(3) 0.83107(16) 0.2383(3)
O4 O 0.5432(3) 0.91223(15) 0.2511(3)
O5 O -0.3016(3) 0.85202(17) 0.1163(3)
O6 O -0.3320(3) 0.93256(17) 0.1297(3)
O7 O 0.5818(4) 0.84006(17) 0.9889(3)
O8 O 0.5469(4) 0.92006(19) 1.0021(3)
O9 O 0.6126(3) 0.75019(15) 0.1046(3)
O10 O 0.5169(3) 1.00172(17) 0.1302(4)
O11 O 0.0774(3) 0.96068(16) -0.0956(3)
O12 O 0.0313(3) 0.84307(17) -0.1443(3)
O13 O 0.3736(4) 0.98832(18) 0.6065(3)
O14 O 0.2868(3) 0.8896(2) 0.6489(3)
N1 N 0.6008(5) 0.6759(3) 0.0374(4)
C1 C 0.4020(4) 0.8533(3) 0.1067(4)
C2 C 0.5537(4) 0.8696(3) 0.2815(4)
C3 C -0.2805(4) 0.8977(3) 0.1202(4)
C4 C 0.5669(5) 0.8829(3) 0.9590(4)
C5 C 0.3094(4) 0.8416(3) 0.0929(4)
C6 C 0.2775(5) 0.7977(3) 0.1250(5)
C7 C 0.1905(5) 0.7861(3) 0.1200(5)
C8 C 0.1352(4) 0.8168(3) 0.0774(5)
C9 C 0.1632(4) 0.8613(3) 0.0380(4)
C10 C 0.1055(4) 0.8917(3) -0.0090(4)
C11 C 0.1373(4) 0.9350(3) -0.0505(4)
C12 C 0.2238(4) 0.9480(3) -0.0435(4)
C13 C 0.2805(4) 0.9189(3) 0.0047(4)
C14 C 0.2524(4) 0.8749(3) 0.0464(4)
C15 C 0.1033(5) 1.0074(3) -0.1333(6)
C16 C 0.0119(4) 0.8821(3) -0.0136(4)
C17 C -0.0438(4) 0.8993(3) 0.0518(4)
C18 C -0.0085(4) 0.9296(3) 0.1196(4)
C19 C -0.0614(5) 0.9508(3) 0.1791(5)
C20 C -0.1510(5) 0.9417(3) 0.1757(5)
C21 C -0.1870(4) 0.9100(3) 0.1148(4)
C22 C -0.1331(4) 0.8892(3) 0.0497(4)
C23 C -0.1666(4) 0.8611(3) -0.0205(4)
C24 C -0.1146(4) 0.8467(2) -0.0862(4)
C25 C -0.0249(4) 0.8568(3) -0.0821(4)
C26 C -0.0032(5) 0.8210(3) -0.2200(4)
C27 C 0.5435(4) 0.8618(3) 0.3752(4)
C28 C 0.5800(4) 0.8188(3) 0.4097(4)
C29 C 0.5699(5) 0.8063(3) 0.4960(4)
C30 C 0.5214(5) 0.8354(3) 0.5476(4)
C31 C 0.4858(4) 0.8812(2) 0.5181(4)
C32 C 0.4435(4) 0.9134(3) 0.5755(4)
C33 C 0.4100(4) 0.9581(3) 0.5469(4)
C34 C 0.4181(5) 0.9712(3) 0.4599(4)
C35 C 0.4595(5) 0.9411(3) 0.4059(4)
C36 C 0.4965(4) 0.8946(3) 0.4297(4)
C37 C 0.3380(7) 1.0339(3) 0.5795(6)
C38 C 0.4357(4) 0.9002(3) 0.6688(4)
C39 C 0.5100(4) 0.8992(3) 0.7228(4)
C40 C 0.5933(4) 0.9111(2) 0.6924(4)
C41 C 0.6637(4) 0.9117(3) 0.7457(4)
C42 C 0.6556(4) 0.9016(3) 0.8325(4)
C43 C 0.5744(4) 0.8895(3) 0.8653(4)
C44 C 0.5021(4) 0.8889(3) 0.8115(4)
C45 C 0.4188(4) 0.8788(3) 0.8435(4)
C46 C 0.3487(5) 0.8787(3) 0.7893(4)
C47 C 0.3552(4) 0.8900(3) 0.7017(4)
C48 C 0.2029(6) 0.8925(5) 0.6801(6)
C49 C 0.5701(5) 0.7201(3) 0.0636(4)
C50 C 0.6898(7) 0.6624(4) 0.0578(7)
C51 C 0.5505(7) 0.6416(4) -0.0130(6)
H1 H 0.3161 0.7747 0.1514
H2 H 0.1696 0.7566 0.1463
H3 H 0.0759 0.8082 0.0739
H4 H 0.4645 1.0066 0.1192
H5 H 0.5505 1.0181 0.0861
H6 H 0.2443 0.9769 -0.0719
H7 H 0.3392 0.9287 0.0098
H8 H 0.1621 1.0043 -0.1547
H9 H 0.1015 1.0339 -0.0903
H10 H 0.0640 1.0157 -0.1807
H11 H 0.0520 0.9349 0.1232
H12 H -0.0377 0.9716 0.2225
H13 H -0.1873 0.9575 0.2158
H14 H -0.2259 0.8521 -0.0218
H15 H -0.1387 0.8300 -0.1344
H16 H -0.0469 0.8432 -0.2451
H17 H -0.0296 0.7888 -0.2062
H18 H 0.0432 0.8158 -0.2609
H19 H 0.6125 0.7973 0.3741
H20 H 0.5972 0.7773 0.5185
H21 H 0.5111 0.8249 0.6045
H22 H 0.3939 1.0016 0.4397
H23 H 0.4644 0.9515 0.3483
H24 H 0.2936 1.0276 0.5357
H25 H 0.3834 1.0550 0.5557
H26 H 0.3120 1.0509 0.6281
H27 H 0.6002 0.9187 0.6338
H28 H 0.7188 0.9191 0.7234
H29 H 0.7047 0.9030 0.8693
H30 H 0.4116 0.8722 0.9024
H31 H 0.2938 0.8707 0.8115
H32 H 0.1929 0.9259 0.7035
H33 H 0.1956 0.8675 0.7251
H34 H 0.1615 0.8860 0.6337
H35 H 0.5121 0.7284 0.0495
H36 H 0.7158 0.6883 0.0941
H37 H 0.7225 0.6596 0.0050
H38 H 0.6910 0.6303 0.0880
H39 H 0.5753 0.6389 -0.0700
H40 H 0.4911 0.6538 -0.0179
H41 H 0.5509 0.6087 0.0144
Cu1_2 Cu -0.42013(5) 0.82791(3) 0.11374(5)
Cu1_3 Cu 0.57987(5) 0.82791(3) 1.11374(5)
Cu2_2 Cu -0.45711(5) 0.92377(3) 0.12720(5)
Cu2_3 Cu 0.54289(5) 0.92377(3) 1.12720(5)
O5_2 O 0.6984(3) 0.85202(17) 0.1163(3)
O6_2 O 0.6680(3) 0.93256(17) 0.1297(3)
O7_2 O 0.5818(4) 0.84006(17) -0.0111(3)
O8_2 O 0.5469(4) 0.92006(19) 0.0021(3)
Cu3 Cu -0.07966(5) 0.70630(3) 0.62558(5)
Cu4 Cu -0.04703(5) 0.60986(3) 0.64199(5)
O15 O -0.0855(4) 0.69052(17) 0.5006(3)
O16 O -0.0616(4) 0.60903(16) 0.5175(3)
O17 O 0.0446(3) 0.71401(17) 0.6159(3)
O18 O 0.0734(3) 0.63355(17) 0.6247(3)
O19 O -0.0696(3) 0.70282(17) -0.2495(3)
O20 O -0.0370(3) 0.62189(16) -0.2356(3)
O21 O 0.7992(3) 0.68751(17) 0.6296(3)
O22 O 0.8259(3) 0.60674(17) 0.6514(3)
O23 O -0.1084(3) 0.78379(16) 0.6147(3)
O24 O -0.0248(3) 0.53191(17) 0.6502(3)
O25 O 0.2036(3) 0.64756(19) 0.1728(3)
O26 O 0.1202(4) 0.54557(17) 0.1298(3)
O27 O 0.4197(3) 0.57410(17) 0.4097(3)
O28 O 0.4675(3) 0.68828(17) 0.3583(3)
C52 C -0.0783(4) 0.6466(3) 0.4742(4)
C53 C 0.0949(4) 0.6782(3) 0.6145(4)
C54 C -0.0494(4) 0.6651(3) -0.2050(4)
C55 C 0.7768(4) 0.6414(3) 0.6394(4)
C56 C -0.0871(4) 0.6395(3) 0.3795(4)
C57 C -0.1650(4) 0.6255(3) 0.3440(4)
C58 C -0.1722(4) 0.6167(3) 0.2573(4)
C59 C -0.1034(4) 0.6211(2) 0.2057(4)
C60 C -0.0199(4) 0.6335(2) 0.2396(4)
C61 C 0.0543(4) 0.6344(3) 0.1878(4)
C62 C 0.1331(4) 0.6465(3) 0.2256(4)
C63 C 0.1399(4) 0.6566(3) 0.3134(4)
C64 C 0.0696(4) 0.6563(3) 0.3629(4)
C65 C -0.0135(4) 0.6430(3) 0.3285(4)
C66 C 0.2854(6) 0.6407(5) 0.2101(6)
C67 C 0.0500(4) 0.6210(3) 0.0951(4)
C68 C 0.0072(4) 0.6528(3) 0.0360(4)
C69 C -0.0268(4) 0.6992(2) 0.0620(4)
C70 C -0.0703(5) 0.7298(3) 0.0055(4)
C71 C -0.0775(5) 0.7170(3) -0.0806(4)
C72 C -0.0432(4) 0.6723(3) -0.1108(4)
C73 C -0.0001(4) 0.6399(3) -0.0522(4)
C74 C 0.0349(5) 0.5918(3) -0.0752(4)
C75 C 0.0737(5) 0.5617(3) -0.0176(4)
C76 C 0.0811(5) 0.5753(3) 0.0693(4)
C77 C 0.1560(6) 0.4997(3) 0.1053(5)
C78 C 0.1894(4) 0.6898(3) 0.6008(4)
C79 C 0.2189(5) 0.7337(3) 0.6342(5)
C80 C 0.3080(5) 0.7479(3) 0.6269(5)
C81 C 0.3623(4) 0.7184(3) 0.5821(4)
C82 C 0.3344(4) 0.6725(3) 0.5442(4)
C83 C 0.3908(4) 0.6423(3) 0.4961(4)
C84 C 0.3609(4) 0.5997(3) 0.4567(4)
C85 C 0.2752(4) 0.5848(3) 0.4670(4)
C86 C 0.2199(4) 0.6122(3) 0.5147(4)
C87 C 0.2445(4) 0.6578(3) 0.5532(4)
C88 C 0.3972(5) 0.5261(3) 0.3792(5)
C89 C 0.4860(4) 0.6532(3) 0.4940(4)
C90 C 0.5392(4) 0.6381(3) 0.5636(4)
C91 C 0.5050(4) 0.6098(3) 0.6333(4)
C92 C 0.5571(5) 0.5938(3) 0.6976(5)
C93 C 0.6449(5) 0.6036(3) 0.6989(4)
C94 C 0.6811(4) 0.6318(3) 0.6351(4)
C95 C 0.6279(4) 0.6487(3) 0.5648(4)
C96 C 0.6627(4) 0.6728(3) 0.4927(4)
C97 C 0.6127(4) 0.6855(2) 0.4247(4)
C98 C 0.5232(4) 0.6765(2) 0.4241(4)
C99 C 0.5036(5) 0.7100(3) 0.2829(4)
H42 H -0.1313 0.7912 0.5666
H43 H -0.1474 0.7932 0.6584
H44 H 0.0252 0.5250 0.6355
H45 H -0.0654 0.5144 0.6132
H46 H -0.2140 0.6219 0.3792
H47 H -0.2265 0.6075 0.2335
H48 H -0.1106 0.6159 0.1461
H49 H 0.1947 0.6639 0.3381
H50 H 0.0752 0.6650 0.4214
H51 H 0.2856 0.6099 0.2440
H52 H 0.2991 0.6692 0.2472
H53 H 0.3286 0.6382 0.1654
H54 H -0.0194 0.7095 0.1196
H55 H -0.0956 0.7598 0.0253
H56 H -0.1061 0.7391 -0.1191
H57 H 0.0303 0.5810 -0.1328
H58 H 0.0967 0.5306 -0.0357
H59 H 0.2039 0.5057 0.0666
H60 H 0.1118 0.4795 0.0764
H61 H 0.1772 0.4819 0.1560
H62 H 0.1801 0.7553 0.6628
H63 H 0.3286 0.7777 0.6531
H64 H 0.4205 0.7286 0.5757
H65 H 0.2552 0.5551 0.4401
H66 H 0.1628 0.6002 0.5223
H67 H 0.3486 0.5289 0.3389
H68 H 0.3807 0.5049 0.4272
H69 H 0.4466 0.5113 0.3504
H70 H 0.4452 0.6022 0.6343
H71 H 0.5328 0.5755 0.7432
H72 H 0.6802 0.5908 0.7439
H73 H 0.7225 0.6803 0.4920
H74 H 0.6383 0.7006 0.3766
H75 H 0.5509 0.6890 0.2629
H76 H 0.5255 0.7435 0.2961
H77 H 0.4589 0.7123 0.2382
Cu3_2 Cu -0.07966(5) 0.70630(3) -0.37442(5)
Cu3_3 Cu 0.92034(5) 0.70630(3) 0.62558(5)
Cu4_2 Cu -0.04703(5) 0.60986(3) -0.35801(5)
Cu4_3 Cu 0.95297(5) 0.60986(3) 0.64199(5)
O19_2 O -0.0696(3) 0.70282(17) 0.7505(3)
O20_2 O -0.0370(3) 0.62189(16) 0.7644(3)
O21_2 O -0.2008(3) 0.68751(17) 0.6296(3)
O22_2 O -0.1741(3) 0.60674(17) 0.6514(3)
O29 O 0.0209(6) 0.8931(3) 0.4908(6)
N2 N 0.0360(6) 0.8304(4) 0.3987(7)
C100 C 0.0250(8) 0.8471(5) 0.4788(9)
C101 C 0.0411(8) 0.8630(5) 0.3249(8)
C102 C 0.0415(8) 0.7763(4) 0.3881(9)
H78 H 0.0989 0.8608 0.3007
H79 H 0.0297 0.8975 0.3421
H80 H -0.0017 0.8526 0.2819
H81 H 0.0101 0.7598 0.4340
H82 H 0.1021 0.7660 0.3903
H83 H 0.0160 0.7669 0.3329
H84 H 0.0204 0.8244 0.5251
O30 O 0.1861(4) 0.4985(3) 0.3269(4)
N3 N 0.0411(4) 0.4870(3) 0.3433(4)
C103 C 0.1149(6) 0.5129(3) 0.3491(6)
C104 C 0.0395(6) 0.4389(3) 0.3051(6)
C105 C -0.0395(6) 0.5070(4) 0.3760(6)
H85 H 0.0961 0.4316 0.2810
H86 H -0.0045 0.4381 0.2598
H87 H 0.0260 0.4138 0.3484
H88 H -0.0783 0.5152 0.3282
H89 H -0.0275 0.5373 0.4093
H90 H -0.0668 0.4820 0.4124
H91 H 0.1117 0.5455 0.3728
O31 O 0.6760(6) 0.5389(3) 0.1644(6)
N4 N 0.5276(5) 0.5457(3) 0.1596(5)
C106 C 0.5307(6) 0.5891(4) 0.2057(6)
C107 C 0.4488(6) 0.5280(4) 0.1282(7)
C108 C 0.6033(7) 0.5218(4) 0.1429(7)
H92 H 0.4590 0.5038 0.0824
H93 H 0.4147 0.5560 0.1057
H94 H 0.4174 0.5117 0.1742
H95 H 0.5143 0.6173 0.1689
H96 H 0.5893 0.5943 0.2280
H97 H 0.4905 0.5869 0.2533
H98 H 0.6009 0.4908 0.1135
O32 O 0.6431(6) 1.0620(4) 0.0668(6)
N5 N 0.7219(6) 1.0905(4) 0.1789(6)
C109 C 0.7089(9) 1.0614(5) 0.1116(9)
C110 C 0.6630(10) 1.1329(6) 0.2010(10)
C111 C 0.7996(8) 1.0875(6) 0.2329(8)
H99 H 0.6075 1.1285 0.1714
H100 H 0.6891 1.1646 0.1834
H101 H 0.6540 1.1334 0.2627
H102 H 0.8507 1.0865 0.1968
H103 H 0.7974 1.0571 0.2676
H104 H 0.8026 1.1168 0.2703
H105 H 0.7532 1.0386 0.0970
O33 O 0.3605(4) 1.0329(3) 0.0835(5)
N6 N 0.2340(6) 1.0271(4) 0.1462(6)
C112 C 0.3117(7) 1.0141(4) 0.1374(7)
C113 C 0.1959(8) 1.0660(6) 0.1017(9)
C114 C 0.1754(8) 1.0099(5) 0.2065(9)
H106 H 0.1972 0.9790 0.2324
H107 H 0.1197 1.0034 0.1784
H108 H 0.1681 1.0353 0.2508
H109 H 0.2355 1.0781 0.0583
H110 H 0.1825 1.0932 0.1412
H111 H 0.1426 1.0542 0.0742
H112 H 0.3342 0.9887 0.1737
O34 O 0.3571(6) 0.6897(4) 1.0272(5)
N7 N 0.2586(6) 0.7252(4) 0.9321(6)
C115 C 0.2796(9) 0.6957(6) 0.9945(8)
C116 C 0.3226(8) 0.7588(6) 0.9014(8)
C117 C 0.1713(8) 0.7315(7) 0.9009(8)
H113 H 0.3783 0.7511 0.9287
H114 H 0.3061 0.7932 0.9149
H115 H 0.3275 0.7551 0.8395
H116 H 0.1427 0.7575 0.9341
H117 H 0.1399 0.7000 0.9067
H118 H 0.1722 0.7413 0.8408
H119 H 0.2346 0.6766 1.0188
O35 O -0.2228(4) 0.7956(2) 0.7428(3)
N8 N -0.3505(4) 0.7596(3) 0.7738(4)
C118 C -0.2935(5) 0.7797(3) 0.7219(5)
C119 C -0.3278(7) 0.7531(4) 0.8621(6)
C120 C -0.4342(6) 0.7433(4) 0.7403(7)
H120 H -0.2781 0.7742 0.8764
H121 H -0.3132 0.7180 0.8728
H122 H -0.3767 0.7627 0.8975
H123 H -0.4459 0.7092 0.7596
H124 H -0.4336 0.7441 0.6778
H125 H -0.4793 0.7658 0.7609
H126 H -0.3091 0.7820 0.6632
O36 O -0.1822(6) 0.8009(3) 0.4606(4)
N9 N -0.1937(5) 0.7906(3) 0.3193(5)
C121 C -0.1873(7) 0.7745(4) 0.3983(6)
C122 C -0.2016(7) 0.8449(4) 0.3061(6)
C123 C -0.2003(8) 0.7585(4) 0.2477(7)
H127 H -0.2037 0.7237 0.2671
H128 H -0.1494 0.7627 0.2121
H129 H -0.2523 0.7668 0.2145
H130 H -0.1759 0.8626 0.3550
H131 H -0.2626 0.8540 0.3006
H132 H -0.1715 0.8545 0.2541
H133 H -0.1867 0.7394 0.4071
O37 O 0.1365(4) 0.4995(3) 0.6240(4)
N10 N 0.2274(5) 0.4510(3) 0.5510(5)
C124 C 0.1502(6) 0.4668(4) 0.5689(6)
C125 C 0.3029(6) 0.4683(5) 0.6024(7)
C126 C 0.2386(8) 0.4148(4) 0.4842(6)
H134 H 0.3090 0.4476 0.6536
H135 H 0.2944 0.5032 0.6191
H136 H 0.3552 0.4656 0.5684
H137 H 0.2643 0.4310 0.4346
H138 H 0.1824 0.4007 0.4679
H139 H 0.2766 0.3880 0.5045
H140 H 0.1023 0.4530 0.5388
O38 O 0.2521(6) 0.9143(4) 0.3313(6)
N11 N 0.2962(6) 0.8367(5) 0.3795(6)
C127 C 0.2936(8) 0.8749(6) 0.3249(9)
C128 C 0.2545(8) 0.8476(6) 0.4585(8)
C129 C 0.3497(8) 0.7960(6) 0.3633(8)
H141 H 0.4099 0.8058 0.3732
H142 H 0.3419 0.7854 0.3040
H143 H 0.3350 0.7684 0.4015
H144 H 0.1952 0.8349 0.4563
H145 H 0.2536 0.8838 0.4675
H146 H 0.2861 0.8315 0.5055
H147 H 0.3276 0.8716 0.2753
O39 O -0.1349(6) 0.4677(3) 0.5658(5)
H148 H -0.1010 0.4453 0.5497
H149 H -0.1692 0.4513 0.5976
loop_
_geom_bond_atom_site_label_1
_geom_bond_atom_site_label_2
_geom_bond_site_symmetry_1
_geom_bond_site_symmetry_2
Cu1 Cu2 1_555 1_555
Cu2 O2 1_555 1_555
O1 Cu1 1_555 1_555
O2 C1 1_555 1_555
O3 Cu1 1_555 1_555
O4 Cu2 1_555 1_555
O5 C3 1_555 1_555
O6 C3 1_555 1_555
O7 C4 1_555 1_555
O8 C4 1_555 1_555
O9 Cu1 1_555 1_555
O10 Cu2 1_555 1_555
O11 C11 1_555 1_555
O12 C25 1_555 1_555
O13 C33 1_555 1_555
O14 C47 1_555 1_555
N1 C49 1_555 1_555
C1 O1 1_555 1_555
C2 O3 1_555 1_555
C3 C21 1_555 1_555
C4 C43 1_555 1_555
C5 C1 1_555 1_555
C6 C5 1_555 1_555
C7 C6 1_555 1_555
C8 C7 1_555 1_555
C9 C8 1_555 1_555
C10 C9 1_555 1_555
C11 C10 1_555 1_555
C12 C11 1_555 1_555
C13 C12 1_555 1_555
C14 C5 1_555 1_555
C15 O11 1_555 1_555
C16 C10 1_555 1_555
C17 C16 1_555 1_555
C18 C17 1_555 1_555
C19 C18 1_555 1_555
C20 C19 1_555 1_555
C21 C20 1_555 1_555
C22 C17 1_555 1_555
C23 C22 1_555 1_555
C24 C23 1_555 1_555
C25 C16 1_555 1_555
C26 O12 1_555 1_555
C27 C2 1_555 1_555
C28 C27 1_555 1_555
C29 C28 1_555 1_555
C30 C29 1_555 1_555
C31 C30 1_555 1_555
C32 C31 1_555 1_555
C33 C32 1_555 1_555
C34 C33 1_555 1_555
C35 C34 1_555 1_555
C36 C27 1_555 1_555
C37 O13 1_555 1_555
C38 C32 1_555 1_555
C39 C38 1_555 1_555
C40 C39 1_555 1_555
C41 C40 1_555 1_555
C42 C41 1_555 1_555
C43 C42 1_555 1_555
C44 C39 1_555 1_555
C45 C44 1_555 1_555
C46 C45 1_555 1_555
C47 C38 1_555 1_555
C48 O14 1_555 1_555
C49 O9 1_555 1_555
C50 N1 1_555 1_555
C51 N1 1_555 1_555
H1 C6 1_555 1_555
H2 C7 1_555 1_555
H3 C8 1_555 1_555
H4 O10 1_555 1_555
H5 O10 1_555 1_555
H6 C12 1_555 1_555
H7 C13 1_555 1_555
H8 C15 1_555 1_555
H9 C15 1_555 1_555
H10 C15 1_555 1_555
H11 C18 1_555 1_555
H12 C19 1_555 1_555
H13 C20 1_555 1_555
H14 C23 1_555 1_555
H15 C24 1_555 1_555
H16 C26 1_555 1_555
H17 C26 1_555 1_555
H18 C26 1_555 1_555
H19 C28 1_555 1_555
H20 C29 1_555 1_555
H21 C30 1_555 1_555
H22 C34 1_555 1_555
H23 C35 1_555 1_555
H24 C37 1_555 1_555
H25 C37 1_555 1_555
H26 C37 1_555 1_555
H27 C40 1_555 1_555
H28 C41 1_555 1_555
H29 C42 1_555 1_555
H30 C45 1_555 1_555
H31 C46 1_555 1_555
H32 C48 1_555 1_555
H33 C48 1_555 1_555
H34 C48 1_555 1_555
H35 C49 1_555 1_555
H36 C50 1_555 1_555
H37 C50 1_555 1_555
H38 C50 1_555 1_555
H39 C51 1_555 1_555
H40 C51 1_555 1_555
H41 C51 1_555 1_555
Cu3 Cu4 1_555 1_555
Cu4 O16 1_555 1_555
O15 Cu3 1_555 1_555
O16 C52 1_555 1_555
O17 Cu3 1_555 1_555
O18 Cu4 1_555 1_555
O19 C54 1_555 1_555
O20 C54 1_555 1_555
O21 C55 1_555 1_555
O22 C55 1_555 1_555
O23 Cu3 1_555 1_555
O24 Cu4 1_555 1_555
O25 C62 1_555 1_555
O26 C76 1_555 1_555
O27 C84 1_555 1_555
O28 C98 1_555 1_555
C52 O15 1_555 1_555
C53 O17 1_555 1_555
C54 C72 1_555 1_555
C55 C94 1_555 1_555
C56 C52 1_555 1_555
C57 C56 1_555 1_555
C58 C57 1_555 1_555
C59 C58 1_555 1_555
C60 C59 1_555 1_555
C61 C60 1_555 1_555
C62 C61 1_555 1_555
C63 C62 1_555 1_555
C64 C63 1_555 1_555
C65 C56 1_555 1_555
C66 O25 1_555 1_555
C67 C61 1_555 1_555
C68 C67 1_555 1_555
C69 C68 1_555 1_555
C70 C69 1_555 1_555
C71 C70 1_555 1_555
C72 C71 1_555 1_555
C73 C68 1_555 1_555
C74 C73 1_555 1_555
C75 C74 1_555 1_555
C76 C67 1_555 1_555
C77 O26 1_555 1_555
C78 C53 1_555 1_555
C79 C78 1_555 1_555
C80 C79 1_555 1_555
C81 C80 1_555 1_555
C82 C81 1_555 1_555
C83 C82 1_555 1_555
C84 C83 1_555 1_555
C85 C84 1_555 1_555
C86 C85 1_555 1_555
C87 C78 1_555 1_555
C88 O27 1_555 1_555
C89 C83 1_555 1_555
C90 C89 1_555 1_555
C91 C90 1_555 1_555
C92 C91 1_555 1_555
C93 C92 1_555 1_555
C94 C93 1_555 1_555
C95 C90 1_555 1_555
C96 C95 1_555 1_555
C97 C96 1_555 1_555
C98 C89 1_555 1_555
C99 O28 1_555 1_555
H42 O23 1_555 1_555
H43 O23 1_555 1_555
H44 O24 1_555 1_555
H45 O24 1_555 1_555
H46 C57 1_555 1_555
H47 C58 1_555 1_555
H48 C59 1_555 1_555
H49 C63 1_555 1_555
H50 C64 1_555 1_555
H51 C66 1_555 1_555
H52 C66 1_555 1_555
H53 C66 1_555 1_555
H54 C69 1_555 1_555
H55 C70 1_555 1_555
H56 C71 1_555 1_555
H57 C74 1_555 1_555
H58 C75 1_555 1_555
H59 C77 1_555 1_555
H60 C77 1_555 1_555
H61 C77 1_555 1_555
H62 C79 1_555 1_555
H63 C80 1_555 1_555
H64 C81 1_555 1_555
H65 C85 1_555 1_555
H66 C86 1_555 1_555
H67 C88 1_555 1_555
H68 C88 1_555 1_555
H69 C88 1_555 1_555
H70 C91 1_555 1_555
H71 C92 1_555 1_555
H72 C93 1_555 1_555
H73 C96 1_555 1_555
H74 C97 1_555 1_555
H75 C99 1_555 1_555
H76 C99 1_555 1_555
H77 C99 1_555 1_555
O29 C100 1_555 1_555
N2 C100 1_555 1_555
C100 H84 1_555 1_555
C101 N2 1_555 1_555
C102 N2 1_555 1_555
H78 C101 1_555 1_555
H79 C101 1_555 1_555
H80 C101 1_555 1_555
H81 C102 1_555 1_555
H82 C102 1_555 1_555
H83 C102 1_555 1_555
O30 C103 1_555 1_555
N3 C103 1_555 1_555
C103 H91 1_555 1_555
C104 N3 1_555 1_555
C105 N3 1_555 1_555
H85 C104 1_555 1_555
H86 C104 1_555 1_555
H87 C104 1_555 1_555
H88 C105 1_555 1_555
H89 C105 1_555 1_555
H90 C105 1_555 1_555
O31 C108 1_555 1_555
N4 C106 1_555 1_555
C106 H95 1_555 1_555
C107 N4 1_555 1_555
C108 N4 1_555 1_555
H92 C107 1_555 1_555
H93 C107 1_555 1_555
H94 C107 1_555 1_555
H96 C106 1_555 1_555
H97 C106 1_555 1_555
H98 C108 1_555 1_555
O32 C109 1_555 1_555
N5 C109 1_555 1_555
C109 H105 1_555 1_555
C110 N5 1_555 1_555
C111 N5 1_555 1_555
H99 C110 1_555 1_555
H100 C110 1_555 1_555
H101 C110 1_555 1_555
H102 C111 1_555 1_555
H103 C111 1_555 1_555
H104 C111 1_555 1_555
O33 C112 1_555 1_555
N6 C112 1_555 1_555
C112 H112 1_555 1_555
C113 N6 1_555 1_555
C114 N6 1_555 1_555
H106 C114 1_555 1_555
H107 C114 1_555 1_555
H108 C114 1_555 1_555
H109 C113 1_555 1_555
H110 C113 1_555 1_555
H111 C113 1_555 1_555
O34 C115 1_555 1_555
N7 C115 1_555 1_555
C115 H119 1_555 1_555
C116 N7 1_555 1_555
C117 N7 1_555 1_555
H113 C116 1_555 1_555
H114 C116 1_555 1_555
H115 C116 1_555 1_555
H116 C117 1_555 1_555
H117 C117 1_555 1_555
H118 C117 1_555 1_555
O35 C118 1_555 1_555
N8 C118 1_555 1_555
C118 H126 1_555 1_555
C119 N8 1_555 1_555
C120 N8 1_555 1_555
H120 C119 1_555 1_555
H121 C119 1_555 1_555
H122 C119 1_555 1_555
H123 C120 1_555 1_555
H124 C120 1_555 1_555
H125 C120 1_555 1_555
O36 C121 1_555 1_555
N9 C121 1_555 1_555
C121 H133 1_555 1_555
C122 N9 1_555 1_555
C123 N9 1_555 1_555
H127 C123 1_555 1_555
H128 C123 1_555 1_555
H129 C123 1_555 1_555
H130 C122 1_555 1_555
H131 C122 1_555 1_555
H132 C122 1_555 1_555
O37 C124 1_555 1_555
N10 C124 1_555 1_555
C124 H140 1_555 1_555
C125 N10 1_555 1_555
C126 N10 1_555 1_555
H134 C125 1_555 1_555
H135 C125 1_555 1_555
H136 C125 1_555 1_555
H137 C126 1_555 1_555
H138 C126 1_555 1_555
H139 C126 1_555 1_555
O38 C127 1_555 1_555
N11 C127 1_555 1_555
C127 H147 1_555 1_555
C128 N11 1_555 1_555
C129 N11 1_555 1_555
H141 C129 1_555 1_555
H142 C129 1_555 1_555
H143 C129 1_555 1_555
H144 C128 1_555 1_555
H145 C128 1_555 1_555
H146 C128 1_555 1_555
O39 H148 1_555 1_555
H149 O39 1_555 1_555
Cu1_2 O5 1_555 1_555
Cu1_3 O7 1_555 1_555
Cu2_2 O6 1_555 1_555
Cu2_3 O8 1_555 1_555
O5_2 Cu1 1_555 1_555
O6_2 Cu2 1_555 1_555
O7_2 Cu1 1_555 1_555
O8_2 Cu2 1_555 1_555
Cu3_2 O19 1_555 1_555
Cu3_3 O21 1_555 1_555
Cu4_2 O20 1_555 1_555
Cu4_3 O22 1_555 1_555
O19_2 Cu3 1_555 1_555
O20_2 Cu4 1_555 1_555
O21_2 Cu3 1_555 1_555
O22_2 Cu4 1_555 1_555
O4 C2 1_555 1_555
C9 C14 1_555 1_555
C13 C14 1_555 1_555
C21 C22 1_555 1_555
C24 C25 1_555 1_555
C31 C36 1_555 1_555
C35 C36 1_555 1_555
C43 C44 1_555 1_555
C46 C47 1_555 1_555
O18 C53 1_555 1_555
C60 C65 1_555 1_555
C64 C65 1_555 1_555
C72 C73 1_555 1_555
C75 C76 1_555 1_555
C82 C87 1_555 1_555
C86 C87 1_555 1_555
C94 C95 1_555 1_555
C97 C98 1_555 1_555
Cu1_2 Cu2_2 1_555 1_555
Cu1_3 Cu2_3 1_555 1_555
Cu3_2 Cu4_2 1_555 1_555
Cu3_3 Cu4_3 1_555 1_555

#END
