
#######################################################################
#
#                 Cambridge Crystallographic Data Centre
#                                CCDC 
#
#######################################################################
#
# If this CIF has been generated from an entry in the Cambridge 
# Structural Database, then it will include bibliographic, chemical, 
# crystal, experimental, refinement or atomic coordinate data resulting 
# from the CCDC's data processing and validation procedures.
#
#######################################################################

data_YIKVIZ
_symmetry_cell_setting           monoclinic
_symmetry_space_group_name_H-M   'P 21/c'
_symmetry_Int_Tables_number      14
_space_group_name_Hall           '-P 2ybc'
loop_
_symmetry_equiv_pos_site_id
_symmetry_equiv_pos_as_xyz
1 x,y,z
2 -x,1/2+y,1/2-z
3 -x,-y,-z
4 x,1/2-y,1/2+z
_cell_length_a                   10.874(4)
_cell_length_b                   22.702(8)
_cell_length_c                   9.137(3)
_cell_angle_alpha                90
_cell_angle_beta                 106.701(8)
_cell_angle_gamma                90
_cell_volume                     2160.43
loop_
_atom_site_label
_atom_site_type_symbol
_atom_site_fract_x
_atom_site_fract_y
_atom_site_fract_z
Cu1 Cu 0.22469(3) 0.276839(14) 0.76683(3)
O1 O 0.09165(19) 0.32967(9) 0.77090(17)
O2 O 0.35735(19) 0.22366(8) 0.74037(17)
O3 O 0.3858(2) 0.15040(9) 0.41410(18)
N1 N 0.1897(2) 0.28199(9) 0.5478(2)
N2 N 0.2614(2) 0.24276(9) 0.48768(19)
C1 C 0.0278(3) 0.36435(13) 0.6588(3)
C2 C 0.0334(3) 0.35888(12) 0.5050(3)
C3 C -0.0398(3) 0.39776(15) 0.3933(3)
H1 H -0.0370 0.3941 0.2929
C4 C -0.1145(4) 0.44055(18) 0.4283(4)
H2 H -0.1621 0.4659 0.3532
C5 C -0.1182(4) 0.44561(17) 0.5791(4)
H3 H -0.1682 0.4749 0.6047
C6 C -0.0496(3) 0.40836(15) 0.6895(3)
H4 H -0.0548 0.4126 0.7888
C7 C 0.1100(3) 0.31659(12) 0.4573(3)
H5 H 0.1018 0.3138 0.3534
C8 C 0.3453(3) 0.21523(11) 0.5988(2)
C9 C 0.4375(3) 0.17330(13) 0.5631(3)
H6 H 0.5178 0.1933 0.5701
H7 H 0.4549 0.1413 0.6367
C10 C 0.4468(3) 0.10244(13) 0.3743(3)
C11 C 0.5663(3) 0.08353(13) 0.4510(3)
H8 H 0.6121 0.1029 0.5396
C12 C 0.6220(3) 0.03484(13) 0.3982(3)
C13 C 0.7478(4) 0.01502(17) 0.4716(4)
H9 H 0.7966 0.0344 0.5587
C14 C 0.7983(4) -0.03162(19) 0.4173(5)
H10 H 0.8812 -0.0440 0.4676
C15 C 0.7280(4) -0.06119(17) 0.2874(5)
H11 H 0.7640 -0.0932 0.2511
C16 C 0.6073(4) -0.04367(15) 0.2131(4)
H12 H 0.5608 -0.0640 0.1266
C17 C 0.5506(3) 0.00532(13) 0.2654(3)
C18 C 0.4268(3) 0.02601(15) 0.1906(4)
H13 H 0.3787 0.0067 0.1031
C19 C 0.3755(3) 0.07322(14) 0.2419(3)
H14 H 0.2935 0.0862 0.1897
Cu1C Cu 0.22469(3) 0.223161(14) 0.26683(3)
O3C O 0.3858(2) 0.34960(9) 0.91410(18)
N2C N 0.2614(2) 0.25724(9) 0.98768(19)
O4 O -0.1633(3) 0.23117(16) 0.5544(4)
N3 N -0.2914(3) 0.29975(15) 0.6060(3)
C20 C -0.1981(4) 0.2612(2) 0.6446(5)
H15 H -0.1557 0.2566 0.7480
C21 C -0.3523(5) 0.3130(3) 0.4469(5)
H16 H -0.3191 0.2873 0.3839
H17 H -0.3349 0.3532 0.4267
H18 H -0.4433 0.3074 0.4245
C22 C -0.3309(5) 0.3340(2) 0.7182(6)
H19 H -0.2875 0.3198 0.8187
H20 H -0.4220 0.3302 0.7002
H21 H -0.3095 0.3746 0.7100
O5 O 0.0435(3) 0.16060(13) 0.5727(3)
H22 H -0.026(2) 0.1801(15) 0.555(4)
H23 H 0.052(3) 0.1599(16) 0.488(2)
loop_
_geom_bond_atom_site_label_1
_geom_bond_atom_site_label_2
_geom_bond_site_symmetry_1
_geom_bond_site_symmetry_2
Cu1 O1 1_555 1_555
O1 C1 1_555 1_555
O2 Cu1 1_555 1_555
O3 C9 1_555 1_555
N1 Cu1 1_555 1_555
N2 N1 1_555 1_555
C1 C2 1_555 1_555
C2 C3 1_555 1_555
C3 H1 1_555 1_555
C4 C3 1_555 1_555
H2 C4 1_555 1_555
C5 C4 1_555 1_555
H3 C5 1_555 1_555
C6 C1 1_555 1_555
H4 C6 1_555 1_555
C7 N1 1_555 1_555
H5 C7 1_555 1_555
C8 O2 1_555 1_555
C9 C8 1_555 1_555
H6 C9 1_555 1_555
H7 C9 1_555 1_555
C10 O3 1_555 1_555
C11 C10 1_555 1_555
H8 C11 1_555 1_555
C12 C11 1_555 1_555
C13 C12 1_555 1_555
H9 C13 1_555 1_555
C14 C13 1_555 1_555
H10 C14 1_555 1_555
C15 C14 1_555 1_555
H11 C15 1_555 1_555
C16 C15 1_555 1_555
H12 C16 1_555 1_555
C17 C12 1_555 1_555
C18 C17 1_555 1_555
H13 C18 1_555 1_555
C19 C10 1_555 1_555
H14 C19 1_555 1_555
O4 C20 1_555 1_555
N3 C20 1_555 1_555
C20 H15 1_555 1_555
C21 N3 1_555 1_555
H16 C21 1_555 1_555
H17 C21 1_555 1_555
H18 C21 1_555 1_555
C22 N3 1_555 1_555
H19 C22 1_555 1_555
H20 C22 1_555 1_555
H21 C22 1_555 1_555
O5 H22 1_555 1_555
H23 O5 1_555 1_555
Cu1C O3 1_555 1_555
O3C Cu1 1_555 1_555
N2C Cu1 1_555 1_555
N2 C8 1_555 1_555
N2 Cu1C 1_555 1_555
C2 C7 1_555 1_555
C5 C6 1_555 1_555
C16 C17 1_555 1_555
C18 C19 1_555 1_555

#END
