
#######################################################################
#
#                 Cambridge Crystallographic Data Centre
#                                CCDC 
#
#######################################################################
#
# If this CIF has been generated from an entry in the Cambridge 
# Structural Database, then it will include bibliographic, chemical, 
# crystal, experimental, refinement or atomic coordinate data resulting 
# from the CCDC's data processing and validation procedures.
#
#######################################################################

data_YIKWUK
_symmetry_cell_setting           monoclinic
_symmetry_space_group_name_H-M   'P 21/c'
_symmetry_Int_Tables_number      14
_space_group_name_Hall           '-P 2ybc'
loop_
_symmetry_equiv_pos_site_id
_symmetry_equiv_pos_as_xyz
1 x,y,z
2 -x,1/2+y,1/2-z
3 -x,-y,-z
4 x,1/2-y,1/2+z
_cell_length_a                   6.072(2)
_cell_length_b                   17.628(2)
_cell_length_c                   9.750(2)
_cell_angle_alpha                90
_cell_angle_beta                 101.94(2)
_cell_angle_gamma                90
_cell_volume                     1021.03
loop_
_atom_site_label
_atom_site_type_symbol
_atom_site_fract_x
_atom_site_fract_y
_atom_site_fract_z
O5 O 1.0102(5) 0.1734(2) -0.4766(3)
H4 H 1.076(5) 0.203(1) -0.539(3)
H5 H 0.943(5) 0.209(1) -0.425(3)
O6 O 0.6426(6) 0.0815(2) -0.5826(4)
H6 H 0.774(4) 0.110(1) -0.543(3)
H7 H 0.691(6) 0.030(1) -0.570(4)
O7 O 1.3752(6) 0.0723(6) -0.3847(4)
H8 H 1.237(3) 0.099(2) -0.415(3)
H9 H 1.428(5) 0.074(2) -0.471(2)
Mn1 Mn 0.4984(1) 0.1714(1) 0.0164(1)
N1 N 0.7069(4) 0.0658(1) 0.0890(2)
C1 C 0.9151(5) 0.0642(2) 0.1693(3)
C2 C 1.0286(5) -0.0033(2) 0.2020(3)
C3 C 0.9218(5) -0.0690(2) 0.1521(3)
C4 C 0.6150(4) -0.0009(2) 0.0449(3)
N2 N 0.2891(4) 0.0681(1) -0.0720(3)
O1 O 0.7020(4) 0.1911(1) -0.1370(2)
O2 O 0.2953(4) 0.2479(1) -0.1308(2)
C5 C 0.6189(5) 0.2345(2) -0.2340(3)
C6 C 0.3828(5) 0.2680(2) -0.2309(3)
O3 O 0.7059(3) 0.2455(1) 0.1661(2)
O4 O 0.2976(3) 0.1882(1) 0.1721(2)
H1 H 0.986 0.111 0.205
H2 H 1.178 -0.004 0.258
H3 H 0.998 -0.117 0.174
N2B N 0.7109(4) -0.0681(1) 0.0720(3)
C4B C 0.3850(4) 0.0009(2) -0.0449(3)
C3B C 0.0782(5) 0.0690(2) -0.1521(3)
O3C O 0.7059(3) 0.2545(1) -0.3339(2)
O4C O 0.2976(3) 0.3118(1) -0.3279(2)
C5C C 0.6189(5) 0.2655(2) 0.2660(3)
C6C C 0.3828(5) 0.2320(2) 0.2691(3)
Mn1B Mn 0.5016(1) -0.1714(1) -0.0164(1)
N1B N 0.2931(4) -0.0658(1) -0.0890(2)
C2B C -0.0286(5) 0.0033(2) -0.2020(3)
H3B H 0.002 0.117 -0.174
Mn1C Mn 0.4984(1) 0.3286(1) -0.4836(1)
O1C O 0.7020(4) 0.3089(1) 0.3630(2)
O2C O 0.2953(4) 0.2521(1) 0.3692(2)
O1B O 0.2980(4) -0.1911(1) 0.1370(2)
O2B O 0.7047(4) -0.2479(1) 0.1308(2)
O3B O 0.2941(3) -0.2455(1) -0.1661(2)
O4B O 0.7024(3) -0.1882(1) -0.1721(2)
C1B C 0.0849(5) -0.0642(2) -0.1693(3)
H2B H -0.178 0.004 -0.258
N1C N 0.7069(4) 0.4342(1) -0.4110(2)
N2C N 0.2891(4) 0.4319(1) -0.5720(3)
O1C_2 O 0.7020(4) 0.3089(1) -0.6370(2)
O2C_2 O 0.2953(4) 0.2521(1) -0.6308(2)
Mn1C_2 Mn 0.4984(1) 0.3286(1) 0.5164(1)
C5B C 0.3811(5) -0.2345(2) 0.2340(3)
C6B C 0.6172(5) -0.2680(2) 0.2309(3)
C5A C 0.3811(5) -0.2655(2) -0.2660(3)
C6A C 0.6172(5) -0.2320(2) -0.2691(3)
H1B H 0.014 -0.111 -0.205
C1C C 0.9151(5) 0.4358(2) -0.3307(3)
C4C C 0.6150(4) 0.5009(2) -0.4551(3)
C3A C 0.0782(5) 0.4310(2) -0.6521(3)
C4A C 0.3850(4) 0.4991(2) -0.5449(3)
O3A O 0.2941(3) -0.2545(1) 0.3339(2)
O4A O 0.7024(3) -0.3118(1) 0.3279(2)
O1A O 0.2980(4) -0.3089(1) -0.3630(2)
O2A O 0.7047(4) -0.2521(1) -0.3692(2)
C2C C 1.0286(5) 0.5033(2) -0.2980(3)
H1C H 0.986 0.389 -0.295
N2A N 0.7109(4) 0.5681(1) -0.4280(3)
C2A C -0.0286(5) 0.4967(2) -0.7020(3)
H3A H 0.002 0.383 -0.674
N1A N 0.2931(4) 0.5658(1) -0.5890(2)
Mn1A Mn 0.5016(1) -0.3286(1) 0.4836(1)
Mn1A_2 Mn 0.5016(1) -0.3286(1) -0.5164(1)
C3C C 0.9218(5) 0.5690(2) -0.3479(3)
H2C H 1.178 0.504 -0.242
Mn1A_3 Mn 0.5016(1) 0.6714(1) -0.5164(1)
C1A C 0.0849(5) 0.5642(2) -0.6693(3)
H2A H -0.178 0.496 -0.758
N1A_2 N 0.2931(4) -0.4342(1) 0.4110(2)
N2A_2 N 0.7109(4) -0.4319(1) 0.5720(3)
O1A_2 O 0.2980(4) -0.3089(1) 0.6370(2)
O2A_2 O 0.7047(4) -0.2521(1) 0.6308(2)
H3C H 0.998 0.617 -0.326
H1A H 0.014 0.611 -0.705
loop_
_geom_bond_atom_site_label_1
_geom_bond_atom_site_label_2
_geom_bond_site_symmetry_1
_geom_bond_site_symmetry_2
Mn1 N1 1_555 1_555
N1 C1 1_555 1_555
C1 C2 1_555 1_555
C2 C3 1_555 1_555
C3 H3 1_555 1_555
C4 N1 1_555 1_555
N2 Mn1 1_555 1_555
O1 Mn1 1_555 1_555
O2 Mn1 1_555 1_555
C5 O1 1_555 1_555
C6 O2 1_555 1_555
O3 Mn1 1_555 1_555
O4 Mn1 1_555 1_555
O5 H4 1_555 1_555
O6 H6 1_555 1_555
O7 H8 1_555 1_555
H1 C1 1_555 1_555
H2 C2 1_555 1_555
H5 O5 1_555 1_555
H7 O6 1_555 1_555
H9 O7 1_555 1_555
N2B C3 1_555 1_555
C4B C4 1_555 1_555
C3B N2 1_555 1_555
O3C C5 1_555 1_555
O4C C6 1_555 1_555
C5C O3 1_555 1_555
C6C O4 1_555 1_555
Mn1B N2B 1_555 1_555
N1B C4B 1_555 1_555
C2B C3B 1_555 1_555
H3B C3B 1_555 1_555
Mn1C O3C 1_555 1_555
O1C C5C 1_555 1_555
O2C C6C 1_555 1_555
O1B Mn1B 1_555 1_555
O2B Mn1B 1_555 1_555
O3B Mn1B 1_555 1_555
O4B Mn1B 1_555 1_555
C1B N1B 1_555 1_555
H2B C2B 1_555 1_555
N1C Mn1C 1_555 1_555
N2C Mn1C 1_555 1_555
O1C_2 Mn1C 1_555 1_555
O2C_2 Mn1C 1_555 1_555
Mn1C_2 O1C 1_555 1_555
C5B O1B 1_555 1_555
C6B O2B 1_555 1_555
C5A O3B 1_555 1_555
C6A O4B 1_555 1_555
H1B C1B 1_555 1_555
C1C N1C 1_555 1_555
C4C N1C 1_555 1_555
C3A N2C 1_555 1_555
C4A N2C 1_555 1_555
O3A C5B 1_555 1_555
O4A C6B 1_555 1_555
O1A C5A 1_555 1_555
O2A C6A 1_555 1_555
C2C C1C 1_555 1_555
H1C C1C 1_555 1_555
N2A C4C 1_555 1_555
C2A C3A 1_555 1_555
H3A C3A 1_555 1_555
N1A C4A 1_555 1_555
Mn1A O3A 1_555 1_555
Mn1A_2 O1A 1_555 1_555
C3C C2C 1_555 1_555
H2C C2C 1_555 1_555
Mn1A_3 N2A 1_555 1_555
C1A C2A 1_555 1_555
H2A C2A 1_555 1_555
N1A_2 Mn1A 1_555 1_555
N2A_2 Mn1A 1_555 1_555
O1A_2 Mn1A 1_555 1_555
O2A_2 Mn1A 1_555 1_555
H3C C3C 1_555 1_555
H1A C1A 1_555 1_555
C4 N2B 1_555 1_555
N2 C4B 1_555 1_555
C5 C6 1_555 1_555
O4C Mn1C 1_555 1_555
C5C C6C 1_555 1_555
Mn1B N1B 1_555 1_555
C2B C1B 1_555 1_555
O2C Mn1C_2 1_555 1_555
C5B C6B 1_555 1_555
C5A C6A 1_555 1_555
C4C C4A 1_555 1_555
O4A Mn1A 1_555 1_555
O2A Mn1A_2 1_555 1_555
N2A C3C 1_555 1_555
N1A Mn1A_3 1_555 1_555
N1A C1A 1_555 1_555

#END
