
#######################################################################
#
#                 Cambridge Crystallographic Data Centre
#                                CCDC 
#
#######################################################################
#
# If this CIF has been generated from an entry in the Cambridge 
# Structural Database, then it will include bibliographic, chemical, 
# crystal, experimental, refinement or atomic coordinate data resulting 
# from the CCDC's data processing and validation procedures.
#
#######################################################################

data_YIKYUN
_symmetry_cell_setting           monoclinic
_symmetry_space_group_name_H-M   'P c'
_symmetry_Int_Tables_number      7
_space_group_name_Hall           'P -2yc'
loop_
_symmetry_equiv_pos_site_id
_symmetry_equiv_pos_as_xyz
1 x,y,z
2 x,-y,1/2+z
_cell_length_a                   5.710(2)
_cell_length_b                   9.622(4)
_cell_length_c                   17.509(7)
_cell_angle_alpha                90
_cell_angle_beta                 102.686(12)
_cell_angle_gamma                90
_cell_volume                     938.489
loop_
_atom_site_label
_atom_site_type_symbol
_atom_site_fract_x
_atom_site_fract_y
_atom_site_fract_z
Cu1 Cu 0.6395(5) 0.98618(10) 0.8965(2)
O1 O 0.7149(16) 0.9408(8) 0.7973(5)
O2 O 0.3889(18) 1.0628(10) 0.7594(5)
O3 O 0.9064(18) 1.1015(12) 0.5321(6)
O4 O 0.5717(16) 0.9725(8) 0.4972(6)
N1 N 0.4436(15) 0.8066(7) 0.8924(5)
N2 N -0.1647(17) 0.1657(7) 0.9024(6)
C1 C 0.569(4) 0.9951(16) 0.7472(13)
C2 C 0.566(3) 0.9537(15) 0.6600(8)
H1 H 0.4096 0.9769 0.6267
C3 C 0.736(3) 1.0381(17) 0.6426(13)
H2 H 0.8910 1.0119 0.6745
H3 H 0.7033 1.1328 0.6561
C4 C 0.750(3) 1.0326(16) 0.5498(9)
C5 C 0.628(4) 0.7958(9) 0.6469(11)
C6 C 0.423(3) 0.7160(12) 0.6112(9)
H4 H 0.2747 0.7565 0.5902
C7 C 0.460(3) 0.5741(13) 0.6098(10)
H5 H 0.3276 0.5198 0.5878
C8 C 0.655(7) 0.5106(13) 0.6354(16)
H6 H 0.6633 0.4145 0.6306
C9 C 0.864(3) 0.5878(13) 0.6719(9)
H7 H 1.0111 0.5454 0.6923
C10 C 0.832(3) 0.7306(13) 0.6747(9)
H8 H 0.9639 0.7843 0.6979
C11 C 0.4863(19) 0.6971(8) 0.8491(7)
H9 H 0.5977 0.7067 0.8179
C12 C 0.3703(19) 0.5711(9) 0.8496(6)
H10 H 0.4107 0.4967 0.8211
C13 C 0.1934(19) 0.5548(8) 0.8924(7)
C14 C 0.147(2) 0.6698(8) 0.9337(6)
H11 H 0.0286 0.6652 0.9626
C15 C 0.274(2) 0.7910(9) 0.9328(7)
H12 H 0.2389 0.8659 0.9620
C16 C 0.0660(16) 0.4207(7) 0.8960(8)
C17 C 0.115(2) 0.3041(9) 0.8547(8)
H13 H 0.2264 0.3106 0.8233
C18 C 0.001(2) 0.1797(9) 0.8599(8)
H14 H 0.0408 0.1031 0.8329
C19 C -0.206(2) 0.2742(8) 0.9422(7)
H15 H -0.3204 0.2649 0.9724
C20 C -0.096(2) 0.4008(9) 0.9432(7)
H16 H -0.1287 0.4720 0.9752
Cu1A Cu 0.6395(5) 1.01382(10) 0.3965(2)
Cu1_2 Cu -0.3605(5) -0.01382(10) 0.8965(2)
O4A O 0.5717(16) 1.0275(8) 0.9972(6)
N2_2 N 0.8353(17) 1.1657(7) 0.9024(6)
O5 O 0.178(2) 0.2698(7) 0.6561(9)
H17 H 0.2017 0.2116 0.6936
H18 H 0.2795 0.2681 0.6271
loop_
_geom_bond_atom_site_label_1
_geom_bond_atom_site_label_2
_geom_bond_site_symmetry_1
_geom_bond_site_symmetry_2
Cu1 O1 1_555 1_555
O1 C1 1_555 1_555
O2 C1 1_555 1_555
O3 C4 1_555 1_555
O4 C4 1_555 1_555
N1 Cu1 1_555 1_555
N2 C18 1_555 1_555
C1 C2 1_555 1_555
C2 H1 1_555 1_555
C3 C2 1_555 1_555
H2 C3 1_555 1_555
H3 C3 1_555 1_555
C4 C3 1_555 1_555
C5 C2 1_555 1_555
C6 C5 1_555 1_555
H4 C6 1_555 1_555
C7 C6 1_555 1_555
H5 C7 1_555 1_555
C8 C7 1_555 1_555
H6 C8 1_555 1_555
C9 C8 1_555 1_555
H7 C9 1_555 1_555
C10 C5 1_555 1_555
H8 C10 1_555 1_555
C11 N1 1_555 1_555
H9 C11 1_555 1_555
C12 C11 1_555 1_555
H10 C12 1_555 1_555
C13 C12 1_555 1_555
C14 C13 1_555 1_555
H11 C14 1_555 1_555
C15 N1 1_555 1_555
H12 C15 1_555 1_555
C16 C13 1_555 1_555
C17 C16 1_555 1_555
H13 C17 1_555 1_555
C18 C17 1_555 1_555
H14 C18 1_555 1_555
C19 N2 1_555 1_555
H15 C19 1_555 1_555
C20 C16 1_555 1_555
H16 C20 1_555 1_555
O5 H17 1_555 1_555
H18 O5 1_555 1_555
Cu1A O4 1_555 1_555
Cu1_2 N2 1_555 1_555
O4A Cu1 1_555 1_555
N2_2 Cu1 1_555 1_555
C9 C10 1_555 1_555
C14 C15 1_555 1_555
C19 C20 1_555 1_555

#END
