
#######################################################################
#
#                 Cambridge Crystallographic Data Centre
#                                CCDC 
#
#######################################################################
#
# If this CIF has been generated from an entry in the Cambridge 
# Structural Database, then it will include bibliographic, chemical, 
# crystal, experimental, refinement or atomic coordinate data resulting 
# from the CCDC's data processing and validation procedures.
#
#######################################################################

data_YIKYEX
_symmetry_cell_setting           monoclinic
_symmetry_space_group_name_H-M   'P 21'
_symmetry_Int_Tables_number      4
_space_group_name_Hall           'P 2yb'
loop_
_symmetry_equiv_pos_site_id
_symmetry_equiv_pos_as_xyz
1 x,y,z
2 -x,1/2+y,-z
_cell_length_a                   6.9209(19)
_cell_length_b                   17.591(5)
_cell_length_c                   9.088(2)
_cell_angle_alpha                90
_cell_angle_beta                 101.810(4)
_cell_angle_gamma                90
_cell_volume                     1083
loop_
_atom_site_label
_atom_site_type_symbol
_atom_site_fract_x
_atom_site_fract_y
_atom_site_fract_z
Cu1 Cu 0.59469(9) 0.37956(4) 0.56514(6)
O1 O 0.6994(5) 0.3817(3) 0.3844(3)
O2 O 0.8894(6) 0.4659(2) 0.5237(5)
O3 O 1.2492(7) 0.3626(2) 0.3930(5)
O4 O 1.4116(5) 0.4635(2) 0.4886(4)
N1 N 0.7947(7) 0.3032(3) 0.6660(5)
N2 N 0.4965(6) 0.3675(3) 0.7560(4)
C1 C 0.8308(8) 0.4325(3) 0.4014(6)
C2 C 0.9159(8) 0.4511(3) 0.2637(6)
H1 H 0.9280 0.4028 0.2127
C3 C 0.7725(9) 0.5007(3) 0.1522(7)
C4 C 0.7900(10) 0.5039(4) 0.0031(7)
H2 H 0.8900 0.4764 -0.0270
C5 C 0.6637(11) 0.5464(4) -0.1012(7)
H3 H 0.6797 0.5481 -0.2002
C6 C 0.5133(10) 0.5864(3) -0.0586(8)
H4 H 0.4240 0.6137 -0.1295
C7 C 0.4963(10) 0.5858(3) 0.0891(8)
H5 H 0.3978 0.6143 0.1189
C8 C 0.6240(9) 0.5431(3) 0.1941(6)
H6 H 0.6101 0.5428 0.2938
C9 C 1.1169(8) 0.4840(3) 0.3036(6)
H7 H 1.1103 0.5314 0.3568
H8 H 1.1614 0.4958 0.2116
C10 C 1.2682(9) 0.4330(3) 0.3996(7)
C11 C 0.9404(9) 0.2709(3) 0.6183(7)
H9 H 0.9531 0.2801 0.5199
C12 C 1.0781(10) 0.2232(3) 0.7072(8)
H10 H 1.1807 0.2020 0.6690
C13 C 1.0598(11) 0.2083(4) 0.8508(8)
H11 H 1.1487 0.1758 0.9108
C14 C 0.9107(10) 0.2410(3) 0.9067(6)
C15 C 0.8768(12) 0.2311(4) 1.0560(7)
H12 H 0.9632 0.2008 1.1231
C16 C 0.7261(13) 0.2638(4) 1.1020(8)
H13 H 0.7106 0.2558 1.2001
C17 C 0.5866(10) 0.3110(3) 1.0038(6)
C18 C 0.4229(11) 0.3467(4) 1.0424(8)
H14 H 0.3970 0.3404 1.1382
C19 C 0.3013(10) 0.3907(6) 0.9390(7)
H15 H 0.1910 0.4137 0.9634
C20 C 0.3437(9) 0.4010(3) 0.7967(7)
H16 H 0.2623 0.4324 0.7282
C21 C 0.6144(8) 0.3230(3) 0.8582(5)
C22 C 0.7747(8) 0.2879(3) 0.8098(6)
Cu1_2 Cu 1.59469(9) 0.37956(4) 0.56514(6)
O4_2 O 0.4116(5) 0.4635(2) 0.4886(4)
O5 O 0.2805(9) 0.2055(3) 0.3658(8)
H17 H 0.2504 0.2522 0.3469
H18 H 0.3651 0.1982 0.4483
O6 O 1.0353(8) 0.6091(3) 0.6340(6)
H19 H 0.9505 0.6466 0.6356
H20 H 0.9846 0.5651 0.6175
O7 O 0.6190(8) 0.1254(3) 0.4630(6)
H21 H 0.6498 0.0728 0.4520
H22 H 0.5976 0.1382 0.5488
loop_
_geom_bond_atom_site_label_1
_geom_bond_atom_site_label_2
_geom_bond_site_symmetry_1
_geom_bond_site_symmetry_2
Cu1 O1 1_555 1_555
O1 C1 1_555 1_555
O2 C1 1_555 1_555
O3 C10 1_555 1_555
O4 C10 1_555 1_555
N1 Cu1 1_555 1_555
N2 Cu1 1_555 1_555
C1 C2 1_555 1_555
C2 H1 1_555 1_555
C3 C2 1_555 1_555
C4 C3 1_555 1_555
H2 C4 1_555 1_555
C5 C4 1_555 1_555
H3 C5 1_555 1_555
C6 C5 1_555 1_555
H4 C6 1_555 1_555
C7 C6 1_555 1_555
H5 C7 1_555 1_555
C8 C3 1_555 1_555
H6 C8 1_555 1_555
C9 C2 1_555 1_555
H7 C9 1_555 1_555
H8 C9 1_555 1_555
C10 C9 1_555 1_555
C11 N1 1_555 1_555
H9 C11 1_555 1_555
C12 C11 1_555 1_555
H10 C12 1_555 1_555
C13 C12 1_555 1_555
H11 C13 1_555 1_555
C14 C13 1_555 1_555
C15 C14 1_555 1_555
H12 C15 1_555 1_555
C16 C15 1_555 1_555
H13 C16 1_555 1_555
C17 C16 1_555 1_555
C18 C17 1_555 1_555
H14 C18 1_555 1_555
C19 C18 1_555 1_555
H15 C19 1_555 1_555
C20 N2 1_555 1_555
H16 C20 1_555 1_555
C21 N2 1_555 1_555
C22 N1 1_555 1_555
O5 H17 1_555 1_555
H18 O5 1_555 1_555
O6 H19 1_555 1_555
H20 O6 1_555 1_555
O7 H21 1_555 1_555
H22 O7 1_555 1_555
Cu1_2 O4 1_555 1_555
O4_2 Cu1 1_555 1_555
C7 C8 1_555 1_555
C14 C22 1_555 1_555
C17 C21 1_555 1_555
C19 C20 1_555 1_555
C21 C22 1_555 1_555

#END
