
#######################################################################
#
#                 Cambridge Crystallographic Data Centre
#                                CCDC 
#
#######################################################################
#
# If this CIF has been generated from an entry in the Cambridge 
# Structural Database, then it will include bibliographic, chemical, 
# crystal, experimental, refinement or atomic coordinate data resulting 
# from the CCDC's data processing and validation procedures.
#
#######################################################################

data_YIKYIB
_symmetry_cell_setting           monoclinic
_symmetry_space_group_name_H-M   'C 2/c'
_symmetry_Int_Tables_number      15
_space_group_name_Hall           '-C 2yn'
loop_
_symmetry_equiv_pos_site_id
_symmetry_equiv_pos_as_xyz
1 x,y,z
2 1/2+x,1/2+y,z
3 -x,y,1/2-z
4 1/2-x,1/2+y,1/2-z
5 -x,-y,-z
6 1/2-x,1/2-y,-z
7 x,-y,1/2+z
8 1/2+x,1/2-y,1/2+z
_cell_length_a                   30.474(15)
_cell_length_b                   7.585(4)
_cell_length_c                   17.188(9)
_cell_angle_alpha                90
_cell_angle_beta                 116.810(8)
_cell_angle_gamma                90
_cell_volume                     3545.86
loop_
_atom_site_label
_atom_site_type_symbol
_atom_site_fract_x
_atom_site_fract_y
_atom_site_fract_z
Cu1 Cu 0.40053(3) 0.32644(11) 0.53479(6)
O1 O 0.3986(2) 0.1800(7) 0.6273(3)
O2 O 0.3562(2) 0.0411(8) 0.5031(4)
O3 O 0.4146(2) -0.3528(7) 0.6095(4)
O4 O 0.3500(2) -0.5145(7) 0.5291(4)
N1 N 0.4656(2) 0.2394(8) 0.5534(4)
N2 N 0.3998(2) 0.4119(8) 0.4248(4)
C1 C 0.3713(3) 0.0528(10) 0.5829(6)
C2 C 0.3576(3) -0.0835(10) 0.6335(5)
H1 H 0.3880 -0.1191 0.6840
C3 C 0.3248(3) 0.0001(10) 0.6675(5)
C4 C 0.2842(3) 0.1020(12) 0.6148(6)
H2 H 0.2770 0.1204 0.5567
C5 C 0.2546(3) 0.1763(12) 0.6477(7)
H3 H 0.2281 0.2461 0.6119
C6 C 0.2640(3) 0.1482(12) 0.7327(7)
H4 H 0.2444 0.2002 0.7549
C7 C 0.3026(3) 0.0430(11) 0.7843(6)
H5 H 0.3086 0.0205 0.8414
C8 C 0.3325(3) -0.0298(10) 0.7525(5)
H6 H 0.3586 -0.1009 0.7888
C9 C 0.3349(3) -0.2468(10) 0.5810(6)
H7 H 0.3164 -0.3065 0.6068
H8 H 0.3117 -0.2113 0.5226
C10 C 0.3703(3) -0.3761(9) 0.5743(5)
C11 C 0.4974(3) 0.1517(10) 0.6227(6)
H9 H 0.4883 0.1233 0.6661
C12 C 0.5429(3) 0.1006(12) 0.6335(6)
H10 H 0.5643 0.0399 0.6832
C13 C 0.5563(3) 0.1405(11) 0.5699(6)
H11 H 0.5871 0.1088 0.5758
C14 C 0.5229(3) 0.2301(11) 0.4958(6)
H12 H 0.5309 0.2567 0.4510
C15 C 0.4785(3) 0.2777(9) 0.4900(5)
C16 C 0.4406(3) 0.3757(9) 0.4158(5)
C17 C 0.4454(4) 0.4286(11) 0.3440(6)
H13 H 0.4738 0.4043 0.3388
C18 C 0.4065(4) 0.5200(11) 0.2790(6)
H14 H 0.4089 0.5569 0.2295
C19 C 0.3651(4) 0.5557(12) 0.2872(6)
H15 H 0.3390 0.6164 0.2438
C20 C 0.3630(3) 0.4997(11) 0.3608(6)
H16 H 0.3347 0.5235 0.3668
Cu1_2 Cu 0.40053(3) 1.32644(11) 0.53479(6)
Cu1_3 Cu 0.40053(3) -0.67356(11) 0.53479(6)
O1_2 O 0.3986(2) 1.1800(7) 0.6273(3)
O2_2 O 0.3562(2) 1.0411(8) 0.5031(4)
O3_2 O 0.4146(2) 0.6472(7) 0.6095(4)
O4_2 O 0.3500(2) 0.4855(7) 0.5291(4)
O4_3 O 0.3500(2) 1.4855(7) 0.5291(4)
N1_2 N 0.4656(2) 1.2394(8) 0.5534(4)
N2_2 N 0.3998(2) 1.4119(8) 0.4248(4)
C1_2 C 0.3713(3) 1.0528(10) 0.5829(6)
C2_2 C 0.3576(3) 0.9165(10) 0.6335(5)
H1_2 H 0.3880 0.8809 0.6840
C3_2 C 0.3248(3) 1.0001(10) 0.6675(5)
C4_2 C 0.2842(3) 1.1020(12) 0.6148(6)
H2_2 H 0.2770 1.1204 0.5567
C5_2 C 0.2546(3) 1.1763(12) 0.6477(7)
H3_2 H 0.2281 1.2461 0.6119
C6_2 C 0.2640(3) 1.1482(12) 0.7327(7)
H4_2 H 0.2444 1.2002 0.7549
C7_2 C 0.3026(3) 1.0430(11) 0.7843(6)
H5_2 H 0.3086 1.0205 0.8414
C8_2 C 0.3325(3) 0.9702(10) 0.7525(5)
H6_2 H 0.3586 0.8991 0.7888
C9_2 C 0.3349(3) 0.7532(10) 0.5810(6)
H7_2 H 0.3164 0.6935 0.6068
H8_2 H 0.3117 0.7887 0.5226
C10_2 C 0.3703(3) 0.6239(9) 0.5743(5)
C11_2 C 0.4974(3) 1.1517(10) 0.6227(6)
H9_2 H 0.4883 1.1233 0.6661
C12_2 C 0.5429(3) 1.1006(12) 0.6335(6)
H10_2 H 0.5643 1.0399 0.6832
C13_2 C 0.5563(3) 1.1405(11) 0.5699(6)
H11_2 H 0.5871 1.1088 0.5758
C14_2 C 0.5229(3) 1.2301(11) 0.4958(6)
H12_2 H 0.5309 1.2567 0.4510
C15_2 C 0.4785(3) 1.2777(9) 0.4900(5)
C16_2 C 0.4406(3) 1.3757(9) 0.4158(5)
C17_2 C 0.4454(4) 1.4286(11) 0.3440(6)
H13_2 H 0.4738 1.4043 0.3388
C18_2 C 0.4065(4) 1.5200(11) 0.2790(6)
H14_2 H 0.4089 1.5569 0.2295
C19_2 C 0.3651(4) 1.5557(12) 0.2872(6)
H15_2 H 0.3390 1.6164 0.2438
C20_2 C 0.3630(3) 1.4997(11) 0.3608(6)
H16_2 H 0.3347 1.5235 0.3668
O5 O 0.5000 0.8329(15) 0.7500
H17? H 0.479(7) 0.76(3) 0.713(12)
H18? H 0.502(12) 0.82(3) 0.800(8)
loop_
_geom_bond_atom_site_label_1
_geom_bond_atom_site_label_2
_geom_bond_site_symmetry_1
_geom_bond_site_symmetry_2
Cu1 O1 1_555 1_555
O1 C1 1_555 1_555
O2 C1 1_555 1_555
O3 C10 1_555 1_555
O4 C10 1_555 1_555
N1 Cu1 1_555 1_555
N2 Cu1 1_555 1_555
C1 C2 1_555 1_555
C2 H1 1_555 1_555
C3 C2 1_555 1_555
C4 C3 1_555 1_555
H2 C4 1_555 1_555
C5 C4 1_555 1_555
H3 C5 1_555 1_555
C6 C5 1_555 1_555
H4 C6 1_555 1_555
C7 C6 1_555 1_555
H5 C7 1_555 1_555
C8 C3 1_555 1_555
H6 C8 1_555 1_555
C9 C2 1_555 1_555
H7 C9 1_555 1_555
H8 C9 1_555 1_555
C10 C9 1_555 1_555
C11 N1 1_555 1_555
H9 C11 1_555 1_555
C12 C11 1_555 1_555
H10 C12 1_555 1_555
C13 C12 1_555 1_555
H11 C13 1_555 1_555
C14 C13 1_555 1_555
H12 C14 1_555 1_555
C15 N1 1_555 1_555
C16 N2 1_555 1_555
C17 C16 1_555 1_555
H13 C17 1_555 1_555
C18 C17 1_555 1_555
H14 C18 1_555 1_555
C19 C18 1_555 1_555
H15 C19 1_555 1_555
C20 N2 1_555 1_555
H16 C20 1_555 1_555
Cu1_2 O1_2 1_555 1_555
Cu1_3 O4 1_555 1_555
O1_2 C1_2 1_555 1_555
O2_2 C1_2 1_555 1_555
O3_2 C10_2 1_555 1_555
O4_2 Cu1 1_555 1_555
O4_3 Cu1_2 1_555 1_555
N1_2 Cu1_2 1_555 1_555
N2_2 Cu1_2 1_555 1_555
C1_2 C2_2 1_555 1_555
C2_2 H1_2 1_555 1_555
C3_2 C2_2 1_555 1_555
C4_2 C3_2 1_555 1_555
H2_2 C4_2 1_555 1_555
C5_2 C4_2 1_555 1_555
H3_2 C5_2 1_555 1_555
C6_2 C5_2 1_555 1_555
H4_2 C6_2 1_555 1_555
C7_2 C6_2 1_555 1_555
H5_2 C7_2 1_555 1_555
C8_2 C3_2 1_555 1_555
H6_2 C8_2 1_555 1_555
C9_2 C2_2 1_555 1_555
H7_2 C9_2 1_555 1_555
H8_2 C9_2 1_555 1_555
C10_2 O4_2 1_555 1_555
C11_2 N1_2 1_555 1_555
H9_2 C11_2 1_555 1_555
C12_2 C11_2 1_555 1_555
H10_2 C12_2 1_555 1_555
C13_2 C12_2 1_555 1_555
H11_2 C13_2 1_555 1_555
C14_2 C13_2 1_555 1_555
H12_2 C14_2 1_555 1_555
C15_2 N1_2 1_555 1_555
C16_2 N2_2 1_555 1_555
C17_2 C16_2 1_555 1_555
H13_2 C17_2 1_555 1_555
C18_2 C17_2 1_555 1_555
H14_2 C18_2 1_555 1_555
C19_2 C18_2 1_555 1_555
H15_2 C19_2 1_555 1_555
C20_2 N2_2 1_555 1_555
H16_2 C20_2 1_555 1_555
C7 C8 1_555 1_555
C14 C15 1_555 1_555
C15 C16 1_555 1_555
C19 C20 1_555 1_555
C7_2 C8_2 1_555 1_555
C9_2 C10_2 1_555 1_555
C14_2 C15_2 1_555 1_555
C15_2 C16_2 1_555 1_555
C19_2 C20_2 1_555 1_555

#END
