
#######################################################################
#
#                 Cambridge Crystallographic Data Centre
#                                CCDC 
#
#######################################################################
#
# If this CIF has been generated from an entry in the Cambridge 
# Structural Database, then it will include bibliographic, chemical, 
# crystal, experimental, refinement or atomic coordinate data resulting 
# from the CCDC's data processing and validation procedures.
#
#######################################################################

data_YIKYOH
_symmetry_cell_setting           orthorhombic
_symmetry_space_group_name_H-M   'P c a 21'
_symmetry_Int_Tables_number      29
_space_group_name_Hall           'P 2c -2ac'
loop_
_symmetry_equiv_pos_site_id
_symmetry_equiv_pos_as_xyz
1 x,y,z
2 -x,-y,1/2+z
3 1/2+x,-y,z
4 1/2-x,y,1/2+z
_cell_length_a                   19.329(4)
_cell_length_b                   6.3717(14)
_cell_length_c                   16.976(4)
_cell_angle_alpha                90
_cell_angle_beta                 90
_cell_angle_gamma                90
_cell_volume                     2090.74
loop_
_atom_site_label
_atom_site_type_symbol
_atom_site_fract_x
_atom_site_fract_y
_atom_site_fract_z
Cu1 Cu 0.24717(5) 0.36069(10) 0.41944(7)
O1 O 0.3104(3) 0.1433(8) 0.4596(3)
O2 O 0.2346(3) 0.1578(8) 0.5573(3)
O3 O 0.2945(2) -0.4173(7) 0.4760(3)
O4 O 0.3792(3) -0.3244(9) 0.3932(3)
O5 O 0.3159(2) 0.3866(7) 0.3133(3)
H1 H 0.3070 0.3157 0.2721
H2 H 0.3510 0.4671 0.3144
N1 N 0.1560(3) 0.5022(8) 0.4304(4)
N2 N 0.1892(3) 0.1578(10) 0.3602(4)
C1 C 0.2877(4) 0.0840(11) 0.5257(5)
C2 C 0.3285(4) -0.0751(11) 0.5712(4)
H3 H 0.2968 -0.1777 0.5931
H4 H 0.3512 -0.0051 0.6149
C3 C 0.3824(3) -0.1887(11) 0.5232(4)
H5 H 0.4114 -0.0814 0.4983
C4 C 0.3499(4) -0.3173(11) 0.4573(5)
C5 C 0.4289(3) -0.3196(10) 0.5741(4)
C6 C 0.4086(4) -0.5076(12) 0.6060(5)
H6 H 0.3648 -0.5600 0.5945
C7 C 0.4518(4) -0.6200(13) 0.6546(6)
H7 H 0.4363 -0.7448 0.6769
C8 C 0.5166(4) -0.5507(13) 0.6702(6)
H8 H 0.5466 -0.6310 0.7007
C9 C 0.5372(4) -0.3624(15) 0.6409(5)
H9 H 0.5809 -0.3103 0.6528
C10 C 0.4933(4) -0.2496(12) 0.5937(5)
H10 H 0.5080 -0.1206 0.5744
C11 C 0.1442(4) 0.6721(12) 0.4714(5)
H11 H 0.1810 0.7413 0.4953
C12 C 0.0778(4) 0.7507(14) 0.4798(5)
H12 H 0.0702 0.8730 0.5084
C13 C 0.0236(4) 0.6478(16) 0.4459(5)
H13 H -0.0214 0.6974 0.4514
C14 C 0.0369(3) 0.4723(13) 0.4043(5)
H14 H 0.0007 0.4027 0.3794
C15 C 0.1028(3) 0.3946(11) 0.3981(4)
C16 C 0.1220(4) 0.2009(11) 0.3580(4)
C17 C 0.0764(4) 0.0690(13) 0.3191(5)
H15 H 0.0293 0.0991 0.3181
C18 C 0.1012(5) -0.1054(13) 0.2822(5)
H16 H 0.0712 -0.1932 0.2548
C19 C 0.1686(5) -0.1502(13) 0.2853(5)
H17 H 0.1858 -0.2707 0.2613
C20 C 0.2121(4) -0.0152(12) 0.3245(5)
H18 H 0.2592 -0.0456 0.3263
Cu1_2 Cu 0.24717(5) -0.63931(10) 0.41944(7)
O3_2 O 0.2945(2) 0.5827(7) 0.4760(3)
O6 O 0.2761(2) 0.4928(7) 0.1663(4)
H19 H 0.2830 0.4605 0.2147
H20 H 0.3019 0.5891 0.1470
O7 O 0.4017(3) 1.0221(8) 0.2949(3)
H21 H 0.3596 0.9690 0.2942
H22 H 0.4337 0.9624 0.3225
O8 O 0.1629(3) 0.8842(8) 0.6541(4)
H23 H 0.1901 0.9844 0.6419
H24 H 0.1229 0.8844 0.6316
loop_
_geom_bond_atom_site_label_1
_geom_bond_atom_site_label_2
_geom_bond_site_symmetry_1
_geom_bond_site_symmetry_2
Cu1 O1 1_555 1_555
O1 C1 1_555 1_555
O2 C1 1_555 1_555
O3 C4 1_555 1_555
O4 C4 1_555 1_555
O5 Cu1 1_555 1_555
H1 O5 1_555 1_555
H2 O5 1_555 1_555
N1 Cu1 1_555 1_555
N2 Cu1 1_555 1_555
C1 C2 1_555 1_555
C2 H3 1_555 1_555
H4 C2 1_555 1_555
C3 C2 1_555 1_555
H5 C3 1_555 1_555
C4 C3 1_555 1_555
C5 C3 1_555 1_555
C6 C5 1_555 1_555
H6 C6 1_555 1_555
C7 C6 1_555 1_555
H7 C7 1_555 1_555
C8 C7 1_555 1_555
H8 C8 1_555 1_555
C9 C8 1_555 1_555
H9 C9 1_555 1_555
C10 C5 1_555 1_555
H10 C10 1_555 1_555
C11 N1 1_555 1_555
H11 C11 1_555 1_555
C12 C11 1_555 1_555
H12 C12 1_555 1_555
C13 C12 1_555 1_555
H13 C13 1_555 1_555
C14 C13 1_555 1_555
H14 C14 1_555 1_555
C15 N1 1_555 1_555
C16 N2 1_555 1_555
C17 C16 1_555 1_555
H15 C17 1_555 1_555
C18 C17 1_555 1_555
H16 C18 1_555 1_555
C19 C18 1_555 1_555
H17 C19 1_555 1_555
C20 N2 1_555 1_555
H18 C20 1_555 1_555
O6 H19 1_555 1_555
H20 O6 1_555 1_555
O7 H21 1_555 1_555
H22 O7 1_555 1_555
O8 H23 1_555 1_555
H24 O8 1_555 1_555
Cu1_2 O3 1_555 1_555
O3_2 Cu1 1_555 1_555
C9 C10 1_555 1_555
C14 C15 1_555 1_555
C15 C16 1_555 1_555
C19 C20 1_555 1_555

#END
