
#######################################################################
#
#                 Cambridge Crystallographic Data Centre
#                                CCDC 
#
#######################################################################
#
# If this CIF has been generated from an entry in the Cambridge 
# Structural Database, then it will include bibliographic, chemical, 
# crystal, experimental, refinement or atomic coordinate data resulting 
# from the CCDC's data processing and validation procedures.
#
#######################################################################

data_YILBIF
_symmetry_cell_setting           monoclinic
_symmetry_space_group_name_H-M   'P 21/c'
_symmetry_Int_Tables_number      14
_space_group_name_Hall           '-P 2ybc'
loop_
_symmetry_equiv_pos_site_id
_symmetry_equiv_pos_as_xyz
1 x,y,z
2 -x,1/2+y,1/2-z
3 -x,-y,-z
4 x,1/2-y,1/2+z
_cell_length_a                   11.200(5)
_cell_length_b                   13.231(6)
_cell_length_c                   13.650(6)
_cell_angle_alpha                90
_cell_angle_beta                 110.360(10)
_cell_angle_gamma                90
_cell_volume                     1896.38
loop_
_atom_site_label
_atom_site_type_symbol
_atom_site_fract_x
_atom_site_fract_y
_atom_site_fract_z
Cd1 Cd 0.29548(5) 0.10249(4) 0.21445(4)
Cd2 Cd 0.59155(5) 0.27027(4) 0.30076(4)
O1 O 0.3835(5) 0.2652(4) 0.2451(4)
N1 N 0.1364(6) 0.2222(5) 0.2012(5)
O2 O 0.3053(5) -0.0817(4) 0.1784(4)
N2 N 0.1918(6) -0.2652(5) 0.1281(5)
O3 O 0.5872(6) 0.2852(4) 0.4665(4)
O4 O 0.6091(6) 0.2425(5) 0.6429(4)
O5 O 0.5293(6) 0.0880(4) 0.3036(5)
H1 H 0.543(10) 0.087(8) 0.364(9)
H2 H 0.572(9) 0.037(9) 0.299(8)
O6 O 0.2911(6) 0.0561(5) 0.3745(5)
H3 H 0.307(13) 0.085(10) 0.403(10)
H4 H 0.341(10) 0.015(8) 0.385(9)
O7 O 0.3216(9) 0.1156(5) 0.0616(6)
H5 H 0.3504 0.1638 0.0352
H6 H 0.354(12) 0.056(10) 0.042(10)
C1 C 0.0116(8) 0.1992(7) 0.1727(7)
H7 H -0.0126 0.1316 0.1622
C2 C -0.0815(9) 0.2715(7) 0.1584(7)
H8 H -0.1672 0.2539 0.1356
C3 C -0.0435(9) 0.3715(7) 0.1792(7)
H9 H -0.1040 0.4219 0.1720
C4 C 0.0838(9) 0.3962(6) 0.2104(7)
H10 H 0.1104 0.4627 0.2261
C5 C 0.1719(7) 0.3195(6) 0.2181(6)
C6 C 0.3113(7) 0.3427(6) 0.2432(6)
O8 O 0.3482(6) 0.4315(4) 0.2585(5)
C7 C 0.1345(8) -0.3556(6) 0.1084(7)
H11 H 0.1848 -0.4134 0.1213
C8 C 0.0046(9) -0.3664(7) 0.0702(7)
H12 H -0.0319 -0.4304 0.0584
C9 C -0.0724(8) -0.2802(6) 0.0490(7)
H13 H -0.1607 -0.2853 0.0227
C10 C -0.0128(7) -0.1868(6) 0.0686(6)
H14 H -0.0605 -0.1275 0.0545
C11 C 0.1186(7) -0.1829(6) 0.1094(5)
C12 C 0.1855(8) -0.0816(6) 0.1404(6)
O9 O 0.1188(5) -0.0048(4) 0.1307(5)
S1 S 0.54885(18) 0.21142(14) 0.53222(13)
O10 O 0.5910(7) 0.1106(4) 0.5142(5)
O11 O 0.4104(6) 0.2120(5) 0.5026(5)
Cd2A Cd 0.40845(5) -0.22973(4) 0.19924(4)
Cd2C Cd 0.59155(5) 0.22973(4) 0.80076(4)
O2A O 0.6947(5) 0.4183(4) 0.3216(4)
N2A N 0.8082(6) 0.2348(5) 0.3719(5)
O4C O 0.6091(6) 0.2575(5) 0.1429(4)
O12 O 0.7108(10) 0.0384(6) 0.0756(6)
H15 H 0.625(14) 0.005(11) 0.072(11)
H16 H 0.699(16) 0.095(11) 0.057(13)
loop_
_geom_bond_atom_site_label_1
_geom_bond_atom_site_label_2
_geom_bond_site_symmetry_1
_geom_bond_site_symmetry_2
Cd1 O1 1_555 1_555
Cd2 O1 1_555 1_555
O1 C6 1_555 1_555
N1 Cd1 1_555 1_555
O2 Cd1 1_555 1_555
N2 C7 1_555 1_555
O3 Cd2 1_555 1_555
O4 S1 1_555 1_555
O5 Cd1 1_555 1_555
H1 O5 1_555 1_555
H2 O5 1_555 1_555
O6 Cd1 1_555 1_555
H3 O6 1_555 1_555
H4 O6 1_555 1_555
O7 Cd1 1_555 1_555
H5 O7 1_555 1_555
H6 O7 1_555 1_555
C1 N1 1_555 1_555
H7 C1 1_555 1_555
C2 C1 1_555 1_555
H8 C2 1_555 1_555
C3 C2 1_555 1_555
H9 C3 1_555 1_555
C4 C3 1_555 1_555
H10 C4 1_555 1_555
C5 N1 1_555 1_555
C6 C5 1_555 1_555
O8 C6 1_555 1_555
C7 H11 1_555 1_555
C8 C7 1_555 1_555
H12 C8 1_555 1_555
C9 C8 1_555 1_555
H13 C9 1_555 1_555
C10 C9 1_555 1_555
H14 C10 1_555 1_555
C11 N2 1_555 1_555
C12 O2 1_555 1_555
O9 Cd1 1_555 1_555
S1 O3 1_555 1_555
O10 S1 1_555 1_555
O11 S1 1_555 1_555
O12 H15 1_555 1_555
H16 O12 1_555 1_555
Cd2A O2 1_555 1_555
Cd2C O4 1_555 1_555
O2A Cd2 1_555 1_555
N2A Cd2 1_555 1_555
O4C Cd2 1_555 1_555
Cd2 O5 1_555 1_555
N2 Cd2A 1_555 1_555
C4 C5 1_555 1_555
C10 C11 1_555 1_555
C11 C12 1_555 1_555
C12 O9 1_555 1_555

#END
