
#######################################################################
#
#                 Cambridge Crystallographic Data Centre
#                                CCDC 
#
#######################################################################
#
# If this CIF has been generated from an entry in the Cambridge 
# Structural Database, then it will include bibliographic, chemical, 
# crystal, experimental, refinement or atomic coordinate data resulting 
# from the CCDC's data processing and validation procedures.
#
#######################################################################

data_YILBUQ
_symmetry_cell_setting           monoclinic
_symmetry_space_group_name_H-M   'C 2/c'
_symmetry_Int_Tables_number      15
_space_group_name_Hall           '-C 2yn'
loop_
_symmetry_equiv_pos_site_id
_symmetry_equiv_pos_as_xyz
1 x,y,z
2 1/2+x,1/2+y,z
3 x,-y,1/2+z
4 1/2+x,1/2-y,1/2+z
5 -x,-y,-z
6 1/2-x,1/2-y,-z
7 -x,y,1/2-z
8 1/2-x,1/2+y,1/2-z
_cell_length_a                   15.460(7)
_cell_length_b                   10.902(5)
_cell_length_c                   17.884(11)
_cell_angle_alpha                90
_cell_angle_beta                 102.60(6)
_cell_angle_gamma                90
_cell_volume                     2941.66
loop_
_atom_site_label
_atom_site_type_symbol
_atom_site_fract_x
_atom_site_fract_y
_atom_site_fract_z
Ag1 Ag -0.00266(4) 0.10576(5) 0.41713(3)
Ag2 Ag -0.77901(4) 0.51604(6) 0.29694(3)
O1 O -0.0963(3) 0.0114(5) 0.4938(3)
O2 O -0.1743(4) -0.0483(7) 0.5764(4)
O3 O -0.6051(4) 0.4753(5) 0.3123(3)
O4 O -0.6958(3) 0.3311(6) 0.3364(4)
O5 O -0.7880(5) 0.5807(6) 0.1713(3)
H1 H -0.7289 0.6132 0.1720
H2 H -0.8270 0.6523 0.1661
N1 N -0.0059(4) 0.2469(5) 0.3177(3)
N2 N 0.0811(4) 0.4051(5) 0.2696(3)
C1 C -0.3262(4) 0.0787(6) 0.4946(4)
H3 H -0.3328 0.0293 0.5374
C2 C -0.2460(4) 0.0798(6) 0.4720(4)
C3 C -0.2371(4) 0.1541(6) 0.4083(3)
H4 H -0.1812 0.1561 0.3932
C4 C -0.3071(4) 0.2224(6) 0.3683(4)
H5 H -0.3004 0.2695 0.3246
C5 C -0.4627(4) 0.2979(6) 0.3550(4)
H6 H -0.4564 0.3512 0.3137
C6 C -0.5416(4) 0.2944(6) 0.3789(4)
C7 C -0.5511(4) 0.2214(7) 0.4422(4)
H7 H -0.6063 0.2205 0.4585
C8 C -0.4808(5) 0.1517(7) 0.4800(4)
H8 H -0.4864 0.1041 0.5238
C9 C -0.3996(4) 0.1500(6) 0.4548(3)
C10 C -0.3896(4) 0.2229(6) 0.3914(4)
C11 C -0.1674(4) 0.0077(7) 0.5169(4)
C12 C -0.6199(5) 0.3742(7) 0.3394(4)
C13 C 0.0737(5) 0.3263(6) 0.3359(4)
H9 H 0.1258 0.2761 0.3498
H10 H 0.0707 0.3775 0.3790
C14 C 0.0000 0.4826(9) 0.2500
H11 H 0.0033 0.5343 0.2073
C15 C -0.0847(4) 0.3250(6) 0.2964(4)
H12 H -0.0900 0.3749 0.3394
H13 H -0.1364 0.2740 0.2835
C16 C 0.0000 0.1699(9) 0.2500
H14 H -0.0514 0.1182 0.2372
N2F N -0.0811(4) 0.4051(5) 0.2304(3)
C13F C -0.0737(5) 0.3263(6) 0.1641(4)
N1F N 0.0059(4) 0.2469(5) 0.1823(3)
C15F C 0.0847(4) 0.3250(6) 0.2036(4)
H12F H 0.0900 0.3749 0.1606
H13F H 0.1364 0.2740 0.2165
H14F H 0.0514 0.1182 0.2628
H9F H -0.1258 0.2761 0.1502
H10F H -0.0707 0.3775 0.1210
H11F H -0.0033 0.5343 0.2927
O1D O 0.0963(3) -0.0114(5) 0.5062(3)
O2D O 0.1743(4) 0.0483(7) 0.4236(4)
O3D O 0.6051(4) -0.4753(5) 0.6877(3)
O4D O 0.6958(3) -0.3311(6) 0.6636(4)
C1D C 0.3262(4) -0.0787(6) 0.5054(4)
H3D H 0.3328 -0.0293 0.4626
C2D C 0.2460(4) -0.0798(6) 0.5280(4)
C3D C 0.2371(4) -0.1541(6) 0.5917(3)
H4D H 0.1812 -0.1561 0.6068
C4D C 0.3071(4) -0.2224(6) 0.6317(4)
H5D H 0.3004 -0.2695 0.6754
C5D C 0.4627(4) -0.2979(6) 0.6450(4)
H6D H 0.4564 -0.3512 0.6863
C6D C 0.5416(4) -0.2944(6) 0.6211(4)
C7D C 0.5511(4) -0.2214(7) 0.5578(4)
H7D H 0.6063 -0.2205 0.5415
C8D C 0.4808(5) -0.1517(7) 0.5200(4)
H8D H 0.4864 -0.1041 0.4762
C9D C 0.3996(4) -0.1500(6) 0.5452(3)
C10D C 0.3896(4) -0.2229(6) 0.6086(4)
C11D C 0.1674(4) -0.0077(7) 0.4831(4)
C12D C 0.6199(5) -0.3742(7) 0.6606(4)
Ag1D Ag 0.00266(4) -0.10576(5) 0.58287(3)
Ag2D Ag 0.77901(4) -0.51604(6) 0.70306(3)
O5D O 0.7880(5) -0.5807(6) 0.8287(3)
H1D H 0.7289 -0.6132 0.8280
H2D H 0.8270 -0.6523 0.8339
O3A O -0.1051(4) -0.0247(5) 0.3123(3)
N2_2 N -0.9189(4) 0.4051(5) 0.2696(3)
C3A C -0.7371(4) 0.6541(6) 0.4083(3)
C4A C -0.8071(4) 0.7224(6) 0.3683(4)
Ag1A Ag -0.50266(4) 0.60576(5) 0.41713(3)
Ag2_2 Ag 0.22099(4) 0.51604(6) 0.29694(3)
Ag2A Ag -0.27901(4) 0.01604(6) 0.29694(3)
Ag2F Ag -0.22099(4) 0.51604(6) 0.20306(3)
Ag1F Ag 0.00266(4) 0.10576(5) 0.08287(3)
Ag1E Ag 0.50266(4) -0.60576(5) 0.58287(3)
Ag2E Ag 0.27901(4) -0.01604(6) 0.70306(3)
O3E O 0.1051(4) 0.0247(5) 0.6877(3)
N1D N 0.0059(4) -0.2469(5) 0.6823(3)
N2D N 0.9189(4) -0.4051(5) 0.7304(3)
C3E C 0.7371(4) -0.6541(6) 0.5917(3)
C4E C 0.8071(4) -0.7224(6) 0.6317(4)
H4A H -0.6812 0.6561 0.3932
H5A H -0.8004 0.7695 0.3246
H4E H 0.6812 -0.6561 0.6068
H5E H 0.8004 -0.7695 0.6754
loop_
_geom_bond_atom_site_label_1
_geom_bond_atom_site_label_2
_geom_bond_site_symmetry_1
_geom_bond_site_symmetry_2
Ag1 O1 1_555 1_555
Ag2 O4 1_555 1_555
O1 C11 1_555 1_555
O2 C11 1_555 1_555
O3 C12 1_555 1_555
O4 C12 1_555 1_555
O5 Ag2 1_555 1_555
H1 O5 1_555 1_555
H2 O5 1_555 1_555
N1 Ag1 1_555 1_555
N2 C13 1_555 1_555
C1 H3 1_555 1_555
C2 C1 1_555 1_555
C3 C2 1_555 1_555
H4 C3 1_555 1_555
C4 C3 1_555 1_555
H5 C4 1_555 1_555
C5 H6 1_555 1_555
C6 C5 1_555 1_555
C7 C6 1_555 1_555
H7 C7 1_555 1_555
C8 C7 1_555 1_555
H8 C8 1_555 1_555
C9 C1 1_555 1_555
C10 C4 1_555 1_555
C11 C2 1_555 1_555
C12 C6 1_555 1_555
C13 N1 1_555 1_555
H9 C13 1_555 1_555
H10 C13 1_555 1_555
C14 N2 1_555 1_555
H11 C14 1_555 1_555
C15 N1 1_555 1_555
H12 C15 1_555 1_555
H13 C15 1_555 1_555
C16 N1 1_555 1_555
H14 C16 1_555 1_555
N2F C14 1_555 1_555
C13F N2F 1_555 1_555
N1F C16 1_555 1_555
C15F N2 1_555 1_555
H12F C15F 1_555 1_555
H13F C15F 1_555 1_555
H14F C16 1_555 1_555
H9F C13F 1_555 1_555
H10F C13F 1_555 1_555
H11F C14 1_555 1_555
O1D Ag1 1_555 1_555
O2D C11D 1_555 1_555
O3D C12D 1_555 1_555
O4D C12D 1_555 1_555
C1D H3D 1_555 1_555
C2D C1D 1_555 1_555
C3D C2D 1_555 1_555
H4D C3D 1_555 1_555
C4D C3D 1_555 1_555
H5D C4D 1_555 1_555
C5D H6D 1_555 1_555
C6D C5D 1_555 1_555
C7D C6D 1_555 1_555
H7D C7D 1_555 1_555
C8D C7D 1_555 1_555
H8D C8D 1_555 1_555
C9D C1D 1_555 1_555
C10D C4D 1_555 1_555
C11D O1D 1_555 1_555
C12D C6D 1_555 1_555
Ag1D O1 1_555 1_555
Ag2D O4D 1_555 1_555
O5D Ag2D 1_555 1_555
H1D O5D 1_555 1_555
H2D O5D 1_555 1_555
O3A Ag1 1_555 1_555
N2_2 Ag2 1_555 1_555
C3A Ag2 1_555 1_555
C4A Ag2 1_555 1_555
Ag1A O3 1_555 1_555
Ag2_2 N2 1_555 1_555
Ag2A C3 1_555 1_555
Ag2F N2F 1_555 1_555
Ag1F N1F 1_555 1_555
Ag1E O3D 1_555 1_555
Ag2E C3D 1_555 1_555
O3E Ag1D 1_555 1_555
N1D Ag1D 1_555 1_555
N2D Ag2D 1_555 1_555
C3E Ag2D 1_555 1_555
C4E Ag2D 1_555 1_555
H4A C3A 1_555 1_555
H5A C4A 1_555 1_555
H4E C3E 1_555 1_555
H5E C4E 1_555 1_555
C4 Ag2A 1_555 1_555
C5 C10 1_555 1_555
C8 C9 1_555 1_555
C9 C10 1_555 1_555
C15 N2F 1_555 1_555
C13F N1F 1_555 1_555
N1F C15F 1_555 1_555
O1D Ag1D 1_555 1_555
C2D C11D 1_555 1_555
C4D Ag2E 1_555 1_555
C5D C10D 1_555 1_555
C8D C9D 1_555 1_555
C9D C10D 1_555 1_555
C3A C4A 1_555 1_555
C3E C4E 1_555 1_555

#END
