
#######################################################################
#
#                 Cambridge Crystallographic Data Centre
#                                CCDC 
#
#######################################################################
#
# If this CIF has been generated from an entry in the Cambridge 
# Structural Database, then it will include bibliographic, chemical, 
# crystal, experimental, refinement or atomic coordinate data resulting 
# from the CCDC's data processing and validation procedures.
#
#######################################################################

data_YILBEB
_symmetry_cell_setting           monoclinic
_symmetry_space_group_name_H-M   'P 21/n'
_symmetry_Int_Tables_number      14
_space_group_name_Hall           '-P 2yn'
loop_
_symmetry_equiv_pos_site_id
_symmetry_equiv_pos_as_xyz
1 x,y,z
2 1/2-x,1/2+y,1/2-z
3 -x,-y,-z
4 1/2+x,1/2-y,1/2+z
_cell_length_a                   18.640(9)
_cell_length_b                   8.506(4)
_cell_length_c                   11.768(5)
_cell_angle_alpha                90
_cell_angle_beta                 108.84(2)
_cell_angle_gamma                90
_cell_volume                     1765.87
loop_
_atom_site_label
_atom_site_type_symbol
_atom_site_fract_x
_atom_site_fract_y
_atom_site_fract_z
Zn1 Zn 0.858727(19) 0.30964(4) -0.08807(3)
Zn2 Zn 0.70579(2) 0.13757(4) 0.01011(3)
O1 O 0.82296(11) 0.1454(2) 0.02401(18)
N1 N 0.96079(13) 0.2214(3) 0.0227(2)
O2 O 0.91403(11) 0.4164(3) -0.19204(18)
O3 O 0.81905(10) 0.5280(2) -0.33705(17)
N2 N 0.91376(14) 0.6422(3) -0.4427(2)
O4 O 0.82503(13) 0.4971(2) -0.0214(2)
O5 O 0.70533(11) 0.3717(2) -0.04650(17)
O6 O 0.78374(14) 0.2057(3) -0.2257(2)
O7 O 0.71355(16) 0.2190(3) 0.1776(2)
O8 O 0.72327(13) -0.0863(3) 0.0896(2)
H1 H 0.718(2) -0.143(5) 0.056(4)
H2 H 0.775(2) -0.076(4) 0.123(3)
C1 C 1.02982(17) 0.2625(4) 0.0201(3)
C2 C 1.09519(18) 0.2015(4) 0.0994(3)
C3 C 1.09015(19) 0.0992(4) 0.1859(3)
C4 C 1.01949(18) 0.0551(4) 0.1904(3)
C5 C 0.95587(17) 0.1186(3) 0.1060(2)
C6 C 0.87739(17) 0.0758(4) 0.1042(3)
O9 O 0.87016(13) -0.0233(3) 0.1767(2)
C7 C 0.9594(2) 0.7150(4) -0.4929(3)
C8 C 1.0374(2) 0.7133(4) -0.4406(3)
C9 C 1.06891(19) 0.6320(4) -0.3356(3)
C10 C 1.02175(17) 0.5561(4) -0.2831(3)
C11 C 0.94439(16) 0.5657(3) -0.3392(2)
C12 C 0.88782(16) 0.4969(3) -0.2851(2)
S1 S 0.75260(4) 0.50926(8) 0.00619(6)
O10 O 0.76832(13) 0.5149(2) 0.13572(17)
O11 O 0.71346(14) 0.6537(2) -0.05120(19)
H3 H 0.752(2) 0.142(5) -0.213(4)
H4 H 0.788(2) 0.195(5) -0.289(4)
H5 H 0.726(3) 0.295(6) 0.187(4)
H6 H 0.718(3) 0.159(6) 0.244(5)
H7 H 1.035(2) 0.337(4) -0.032(3)
H8 H 1.145(2) 0.231(5) 0.104(3)
H9 H 1.128(3) 0.060(5) 0.240(4)
H10 H 1.010(2) -0.013(5) 0.248(3)
H11 H 0.9352(19) 0.777(4) -0.567(3)
H12 H 1.066(3) 0.765(6) -0.480(4)
H13 H 1.122(3) 0.623(5) -0.295(4)
H14 H 1.0418(18) 0.493(4) -0.211(3)
Zn2A Zn 0.79421(2) 0.63757(4) -0.51011(3)
O3A O 0.68095(10) 0.0280(2) -0.16295(17)
N2A N 0.58624(14) 0.1422(3) -0.0573(2)
loop_
_geom_bond_atom_site_label_1
_geom_bond_atom_site_label_2
_geom_bond_site_symmetry_1
_geom_bond_site_symmetry_2
Zn1 O1 1_555 1_555
Zn2 O1 1_555 1_555
O1 C6 1_555 1_555
N1 Zn1 1_555 1_555
O2 Zn1 1_555 1_555
O3 C12 1_555 1_555
N2 C7 1_555 1_555
O4 Zn1 1_555 1_555
O5 Zn2 1_555 1_555
O6 Zn1 1_555 1_555
O7 Zn2 1_555 1_555
O8 Zn2 1_555 1_555
H1 O8 1_555 1_555
H2 O8 1_555 1_555
C1 N1 1_555 1_555
C2 C1 1_555 1_555
C3 C2 1_555 1_555
C4 C3 1_555 1_555
C5 N1 1_555 1_555
C6 C5 1_555 1_555
O9 C6 1_555 1_555
C7 C8 1_555 1_555
C8 C9 1_555 1_555
C9 C10 1_555 1_555
C10 C11 1_555 1_555
C11 N2 1_555 1_555
C12 O2 1_555 1_555
S1 O4 1_555 1_555
O10 S1 1_555 1_555
O11 S1 1_555 1_555
H3 O6 1_555 1_555
H4 O6 1_555 1_555
H5 O7 1_555 1_555
H6 O7 1_555 1_555
H7 C1 1_555 1_555
H8 C2 1_555 1_555
H9 C3 1_555 1_555
H10 C4 1_555 1_555
H11 C7 1_555 1_555
H12 C8 1_555 1_555
H13 C9 1_555 1_555
H14 C10 1_555 1_555
Zn2A O3 1_555 1_555
O3A Zn2 1_555 1_555
N2A Zn2 1_555 1_555
N2 Zn2A 1_555 1_555
O5 S1 1_555 1_555
C4 C5 1_555 1_555
C11 C12 1_555 1_555

#END
