
#######################################################################
#
#                 Cambridge Crystallographic Data Centre
#                                CCDC 
#
#######################################################################
#
# If this CIF has been generated from an entry in the Cambridge 
# Structural Database, then it will include bibliographic, chemical, 
# crystal, experimental, refinement or atomic coordinate data resulting 
# from the CCDC's data processing and validation procedures.
#
#######################################################################

data_YILHOQ
_symmetry_cell_setting           monoclinic
_symmetry_space_group_name_H-M   'P 21/n'
_symmetry_Int_Tables_number      14
_space_group_name_Hall           '-P 2yn'
loop_
_symmetry_equiv_pos_site_id
_symmetry_equiv_pos_as_xyz
1 x,y,z
2 1/2+x,1/2-y,1/2+z
3 -x,-y,-z
4 1/2-x,1/2+y,1/2-z
_cell_length_a                   14.855(11)
_cell_length_b                   12.461(7)
_cell_length_c                   19.860(18)
_cell_angle_alpha                90
_cell_angle_beta                 95.12(8)
_cell_angle_gamma                90
_cell_volume                     3661.58
loop_
_atom_site_label
_atom_site_type_symbol
_atom_site_fract_x
_atom_site_fract_y
_atom_site_fract_z
Ag1 Ag 1.07451(5) -0.18693(6) 0.74742(4)
Ag2 Ag 0.82287(5) 0.72007(6) 0.99263(3)
O1 O 1.0406(4) 0.0005(5) 0.6627(3)
O2 O 0.9927(5) -0.0247(5) 0.7655(3)
O3 O 0.8960(4) 0.1170(5) 0.8173(3)
H1 H 0.9317 0.0638 0.8231
O4 O 0.7177(4) 0.5310(5) 0.9876(3)
O5 O 0.8365(5) 0.5541(5) 0.9269(3)
O6 O 0.8772(4) 0.4149(5) 0.8407(3)
H2 H 0.874(8) 0.463(9) 0.861(6)
N1 N 1.2237(4) -0.1888(5) 0.7094(3)
N2 N 1.3185(5) -0.2043(5) 0.6123(3)
N3 N 1.3762(5) -0.2701(7) 0.7263(4)
N4 N 1.3610(5) -0.0760(6) 0.7058(4)
N5 N 1.0682(5) -0.2121(6) 0.8684(3)
N6 N 0.9732(5) -0.2410(6) 0.9631(3)
N7 N 1.1292(5) -0.3115(6) 0.9706(4)
N8 N 1.1029(5) -0.1161(6) 0.9776(4)
C1 C 0.8223(6) 0.2504(6) 0.7463(4)
C2 C 0.8827(5) 0.1642(6) 0.7545(4)
C3 C 0.9295(5) 0.1232(7) 0.6995(4)
C4 C 0.9138(5) 0.1703(7) 0.6356(4)
H3 H 0.9451 0.1441 0.5987
C5 C 0.8314(5) 0.3054(7) 0.5588(4)
H4 H 0.8605 0.2776 0.5211
C6 C 0.7713(6) 0.3905(7) 0.5485(4)
H5 H 0.7567 0.4186 0.5039
C7 C 0.7318(6) 0.4357(7) 0.6043(5)
H6 H 0.6930 0.4971 0.5976
C8 C 0.7489(5) 0.3918(7) 0.6690(4)
H7 H 0.7208 0.4229 0.7061
C9 C 0.8076(5) 0.3006(7) 0.6808(4)
C10 C 0.8511(6) 0.2576(7) 0.6249(4)
C11 C 0.7657(5) 0.2857(6) 0.8014(4)
C12 C 0.7928(5) 0.3699(6) 0.8452(4)
C13 C 0.7355(5) 0.4090(7) 0.8942(4)
C14 C 0.6506(5) 0.3625(7) 0.8982(4)
H8 H 0.6124 0.3888 0.9311
C15 C 0.5322(6) 0.2296(8) 0.8574(4)
H9 H 0.4932 0.2568 0.8894
C16 C 0.5027(6) 0.1455(7) 0.8151(4)
H10 H 0.4433 0.1159 0.8167
C17 C 0.5631(6) 0.1037(7) 0.7687(5)
H11 H 0.5441 0.0440 0.7404
C18 C 0.6480(6) 0.1476(7) 0.7642(4)
H12 H 0.6866 0.1190 0.7323
C19 C 0.6786(6) 0.2356(6) 0.8068(4)
C20 C 0.6192(5) 0.2761(7) 0.8542(4)
C21 C 0.9939(6) 0.0276(8) 0.7085(5)
C22 C 0.7632(6) 0.5030(7) 0.9397(5)
C23 C 1.2255(5) -0.2085(6) 0.6346(4)
H13 H 1.1889 -0.1555 0.6101
H14 H 1.1996 -0.2777 0.6239
C24 C 1.3743(6) -0.2860(7) 0.6522(4)
H15 H 1.4351 -0.2830 0.6394
H16 H 1.3509 -0.3563 0.6411
C25 C 1.2833(6) -0.2722(8) 0.7458(5)
H17 H 1.2580 -0.3421 0.7364
H18 H 1.2846 -0.2601 0.7936
C26 C 1.2662(7) -0.0797(7) 0.7247(5)
H19 H 1.2656 -0.0646 0.7721
H20 H 1.2315 -0.0254 0.6999
C27 C 1.3580(6) -0.0956(7) 0.6315(5)
H21 H 1.3222 -0.0408 0.6081
H22 H 1.4182 -0.0911 0.6177
C28 C 1.4146(7) -0.1605(9) 0.7421(6)
H23 H 1.4751 -0.1574 0.7288
H24 H 1.4171 -0.1474 0.7899
C29 C 0.9755(6) -0.2321(7) 0.8875(4)
H25 H 0.9530 -0.2973 0.8666
H26 H 0.9367 -0.1746 0.8709
C30 C 1.0356(6) -0.3290(7) 0.9882(4)
H27 H 1.0143 -0.3958 0.9687
H28 H 1.0353 -0.3344 1.0363
C31 C 1.1272(6) -0.3018(7) 0.8960(5)
H29 H 1.1875 -0.2916 0.8832
H30 H 1.1044 -0.3678 0.8763
C32 C 1.1017(6) -0.1107(7) 0.9019(4)
H31 H 1.0632 -0.0525 0.8859
H32 H 1.1615 -0.0961 0.8895
C33 C 1.0088(6) -0.1383(7) 0.9937(5)
H33 H 1.0072 -0.1424 1.0418
H34 H 0.9705 -0.0801 0.9774
C34 C 1.1587(7) -0.2079(8) 1.0016(5)
H35 H 1.2202 -0.1947 0.9925
H36 H 1.1572 -0.2133 1.0497
C15C C 0.9678(6) -0.2704(8) 0.6426(4)
C16C C 0.9973(6) -0.3545(7) 0.6849(4)
N2A N 0.8185(5) 0.7043(5) 1.1123(3)
N6_2 N 0.9732(5) 0.7590(6) 0.9631(3)
C5C C 0.6686(5) 0.8054(7) 0.9412(4)
C6C C 0.7287(6) 0.8905(7) 0.9515(4)
Ag2A Ag 1.32287(5) -0.22007(6) 0.49263(3)
Ag2_2 Ag 0.82287(5) -0.27993(6) 0.99263(3)
Ag2C Ag 0.67713(5) 0.22007(6) 0.50737(3)
Ag1C Ag 0.42549(5) 0.31307(6) 0.75258(4)
H9C H 1.0068 -0.2432 0.6106
H10C H 1.0567 -0.3841 0.6833
H4C H 0.6395 0.7776 0.9789
H5C H 0.7433 0.9186 0.9961
O7 O 1.1603(5) 0.1315(7) 0.5899(4)
H37 H 1.1603 0.0915 0.5475
H38 H 1.1285 0.0784 0.6152
O8 O 1.0506(6) -0.1038(7) 0.5274(4)
H39 H 1.0180 -0.0388 0.5104
H40 H 1.1101 -0.0901 0.5521
N9 N 0.6657(7) 0.0053(10) 0.1045(5)
C35 C 0.6230(8) 0.0614(10) 0.0709(6)
C36 C 0.5676(9) 0.1369(13) 0.0298(8)
H41 H 0.5872 0.2025 0.0104
H42 H 0.5095 0.1620 0.0113
H43 H 0.5853 0.0996 -0.0092
loop_
_geom_bond_atom_site_label_1
_geom_bond_atom_site_label_2
_geom_bond_site_symmetry_1
_geom_bond_site_symmetry_2
Ag1 O2 1_555 1_555
Ag2 O5 1_555 1_555
O1 C21 1_555 1_555
O2 C21 1_555 1_555
O3 H1 1_555 1_555
O4 C22 1_555 1_555
O5 C22 1_555 1_555
O6 H2 1_555 1_555
N1 Ag1 1_555 1_555
N2 C23 1_555 1_555
N3 C24 1_555 1_555
N4 C26 1_555 1_555
N5 Ag1 1_555 1_555
N6 C29 1_555 1_555
N7 C30 1_555 1_555
N8 C32 1_555 1_555
C1 C2 1_555 1_555
C2 O3 1_555 1_555
C3 C2 1_555 1_555
C4 C3 1_555 1_555
H3 C4 1_555 1_555
C5 H4 1_555 1_555
C6 C5 1_555 1_555
H5 C6 1_555 1_555
C7 C6 1_555 1_555
H6 C7 1_555 1_555
C8 C7 1_555 1_555
H7 C8 1_555 1_555
C9 C1 1_555 1_555
C10 C4 1_555 1_555
C11 C1 1_555 1_555
C12 O6 1_555 1_555
C13 C12 1_555 1_555
C14 C13 1_555 1_555
H8 C14 1_555 1_555
C15 H9 1_555 1_555
C16 C15 1_555 1_555
H10 C16 1_555 1_555
C17 C16 1_555 1_555
H11 C17 1_555 1_555
C18 C17 1_555 1_555
H12 C18 1_555 1_555
C19 C11 1_555 1_555
C20 C14 1_555 1_555
C21 C3 1_555 1_555
C22 C13 1_555 1_555
C23 N1 1_555 1_555
H13 C23 1_555 1_555
H14 C23 1_555 1_555
C24 N2 1_555 1_555
H15 C24 1_555 1_555
H16 C24 1_555 1_555
C25 N1 1_555 1_555
H17 C25 1_555 1_555
H18 C25 1_555 1_555
C26 N1 1_555 1_555
H19 C26 1_555 1_555
H20 C26 1_555 1_555
C27 N2 1_555 1_555
H21 C27 1_555 1_555
H22 C27 1_555 1_555
C28 N3 1_555 1_555
H23 C28 1_555 1_555
H24 C28 1_555 1_555
C29 N5 1_555 1_555
H25 C29 1_555 1_555
H26 C29 1_555 1_555
C30 N6 1_555 1_555
H27 C30 1_555 1_555
H28 C30 1_555 1_555
C31 N5 1_555 1_555
H29 C31 1_555 1_555
H30 C31 1_555 1_555
C32 N5 1_555 1_555
H31 C32 1_555 1_555
H32 C32 1_555 1_555
C33 N6 1_555 1_555
H33 C33 1_555 1_555
H34 C33 1_555 1_555
C34 N7 1_555 1_555
H35 C34 1_555 1_555
H36 C34 1_555 1_555
O7 H37 1_555 1_555
H38 O7 1_555 1_555
O8 H39 1_555 1_555
H40 O8 1_555 1_555
N9 C35 1_555 1_555
C35 C36 1_555 1_555
C36 H41 1_555 1_555
H42 C36 1_555 1_555
H43 C36 1_555 1_555
C15C Ag1 1_555 1_555
C16C Ag1 1_555 1_555
N2A Ag2 1_555 1_555
N6_2 Ag2 1_555 1_555
C5C Ag2 1_555 1_555
C6C Ag2 1_555 1_555
Ag2A N2 1_555 1_555
Ag2_2 N6 1_555 1_555
Ag2C C5 1_555 1_555
Ag1C C15 1_555 1_555
H9C C15C 1_555 1_555
H10C C16C 1_555 1_555
H4C C5C 1_555 1_555
H5C C6C 1_555 1_555
N3 C25 1_555 1_555
N4 C27 1_555 1_555
N4 C28 1_555 1_555
N7 C31 1_555 1_555
N8 C33 1_555 1_555
N8 C34 1_555 1_555
C5 C10 1_555 1_555
C6 Ag2C 1_555 1_555
C8 C9 1_555 1_555
C9 C10 1_555 1_555
C11 C12 1_555 1_555
C15 C20 1_555 1_555
C16 Ag1C 1_555 1_555
C18 C19 1_555 1_555
C19 C20 1_555 1_555
C15C C16C 1_555 1_555
C5C C6C 1_555 1_555

#END
