
#######################################################################
#
#                 Cambridge Crystallographic Data Centre
#                                CCDC 
#
#######################################################################
#
# If this CIF has been generated from an entry in the Cambridge 
# Structural Database, then it will include bibliographic, chemical, 
# crystal, experimental, refinement or atomic coordinate data resulting 
# from the CCDC's data processing and validation procedures.
#
#######################################################################

data_YILJUA
_symmetry_cell_setting           monoclinic
_symmetry_space_group_name_H-M   'P 21/n'
_symmetry_Int_Tables_number      14
_space_group_name_Hall           '-P 2yn'
loop_
_symmetry_equiv_pos_site_id
_symmetry_equiv_pos_as_xyz
1 x,y,z
2 1/2-x,1/2+y,1/2-z
3 -x,-y,-z
4 1/2+x,1/2-y,1/2+z
_cell_length_a                   13.4158(4)
_cell_length_b                   21.8551(6)
_cell_length_c                   14.4779(4)
_cell_angle_alpha                90
_cell_angle_beta                 92.291(3)
_cell_angle_gamma                90
_cell_volume                     4241.58
loop_
_atom_site_label
_atom_site_type_symbol
_atom_site_fract_x
_atom_site_fract_y
_atom_site_fract_z
Cd1 Cd 0.67501(2) 0.019217(13) 0.826146(18)
Cd2 Cd 0.5000 0.0000 1.0000
O1 O 0.6727(2) -0.01283(13) 0.98000(18)
O2 O 0.7940(2) -0.05118(13) 1.74583(18)
O3 O 0.7468(2) 0.03878(12) 1.69267(17)
C1 C 0.7596(3) 0.00878(17) 0.9998(3)
C2 C 0.5353(3) 0.11528(17) 0.8618(2)
C3 C 0.8379(3) -0.02463(17) 1.5929(2)
O4 O 0.0268(2) 0.42972(13) 0.60581(19)
O5 O 0.6209(2) 0.11893(13) 0.8338(2)
C4 C 0.4762(3) 0.17474(17) 0.8689(2)
C5 C 0.8071(3) -0.00739(16) 1.0923(2)
C6 C 0.7910(3) -0.01148(17) 1.6836(2)
O6 O 0.9508(2) -0.06461(14) 1.33719(17)
O7 O 0.4928(2) 0.06720(13) 0.8817(2)
C7 C 0.9557(3) -0.0168(2) 1.1901(3)
H1 H 1.0241 -0.0114 1.1997
C8 C 0.9010(3) -0.04291(19) 1.2574(2)
C9 C 0.7531(3) -0.03408(17) 1.1612(2)
H2 H 0.6849 -0.0404 1.1514
C10 C 0.8803(3) -0.08075(18) 1.5756(3)
H3 H 0.8843 -0.1101 1.6222
C11 C 0.8345(3) 0.01930(18) 1.5235(3)
H4 H 0.8073 0.0576 1.5348
C12 C 0.7987(3) -0.05134(18) 1.2439(2)
H5 H 0.7615 -0.0684 1.2903
O8 O 0.8057(2) 0.03859(16) 0.94255(19)
C13 C 0.0981(3) 0.40337(16) 0.7511(3)
C14 C 0.3742(4) 0.2821(2) 0.8943(3)
C15 C 0.5138(3) 0.22996(18) 0.8396(3)
H6 H 0.5746 0.2308 0.8110
O9 O -0.0592(2) 0.45231(13) 0.73056(19)
C16 C 0.3331(3) 0.2277(2) 0.9213(3)
H7 H 0.2708 0.2271 0.9472
C17 C 0.9169(3) -0.09407(19) 1.4895(3)
H8 H 0.9450 -0.1321 1.4780
C18 C 0.8711(3) 0.00650(19) 1.4377(3)
H9 H 0.8688 0.0360 1.3914
O10 O 0.3304(3) 0.33670(17) 0.9199(3)
C19 C 0.0143(3) 0.43136(17) 0.6916(3)
C20 C 0.2665(3) 0.3671(2) 0.7662(3)
H10 H 0.3277 0.3597 0.7404
C21 C 0.4633(4) 0.28326(19) 0.8520(3)
H11 H 0.4894 0.3201 0.8317
C22 C 0.1884(3) 0.39098(18) 0.7133(3)
H12 H 0.1968 0.3989 0.6510
C23 C 0.9088(3) 0.0015(2) 1.1079(3)
H13 H 0.9458 0.0199 1.0626
C24 C 0.9110(3) -0.05020(19) 1.4217(2)
C25 C 0.1643(4) 0.3670(2) 0.8970(3)
H14 H 0.1564 0.3594 0.9595
C26 C 0.2525(3) 0.3544(2) 0.8577(3)
C27 C 0.3841(3) 0.17449(19) 0.9102(3)
H15 H 0.3574 0.1378 0.9302
C28 C 0.0871(3) 0.3910(2) 0.8433(3)
H16 H 0.0264 0.3990 0.8697
Cd1B Cd 0.32499(2) -0.019217(13) 1.173854(18)
O1B O 0.3273(2) 0.01283(13) 1.02000(18)
O2B O 0.2060(2) 0.05118(13) 0.25417(18)
O3B O 0.2532(2) -0.03878(12) 0.30733(17)
C1B C 0.2404(3) -0.00878(17) 1.0002(3)
C2B C 0.4647(3) -0.11528(17) 1.1382(2)
C3B C 0.1621(3) 0.02463(17) 0.4071(2)
O4B O 0.9732(2) -0.42972(13) 1.39419(19)
O5B O 0.3791(2) -0.11893(13) 1.1662(2)
C4B C 0.5238(3) -0.17474(17) 1.1311(2)
C5B C 0.1929(3) 0.00739(16) 0.9077(2)
C6B C 0.2090(3) 0.01148(17) 0.3164(2)
O6B O 0.0492(2) 0.06461(14) 0.66281(17)
O7B O 0.5072(2) -0.06720(13) 1.1183(2)
C7B C 0.0443(3) 0.0168(2) 0.8099(3)
H1B H -0.0241 0.0114 0.8003
C8B C 0.0990(3) 0.04291(19) 0.7426(2)
C9B C 0.2469(3) 0.03408(17) 0.8388(2)
H2B H 0.3151 0.0404 0.8486
C10B C 0.1197(3) 0.08075(18) 0.4244(3)
H3B H 0.1157 0.1101 0.3778
C11B C 0.1655(3) -0.01930(18) 0.4765(3)
H4B H 0.1927 -0.0576 0.4652
C12B C 0.2013(3) 0.05134(18) 0.7561(2)
H5B H 0.2385 0.0684 0.7097
O8B O 0.1943(2) -0.03859(16) 1.05745(19)
C13B C 0.9019(3) -0.40337(16) 1.2489(3)
C14B C 0.6258(4) -0.2821(2) 1.1057(3)
C15B C 0.4862(3) -0.22996(18) 1.1604(3)
H6B H 0.4254 -0.2308 1.1890
O9B O 1.0592(2) -0.45231(13) 1.26944(19)
C16B C 0.6669(3) -0.2277(2) 1.0787(3)
H7B H 0.7292 -0.2271 1.0528
C17B C 0.0831(3) 0.09407(19) 0.5105(3)
H8B H 0.0550 0.1321 0.5220
C18B C 0.1289(3) -0.00650(19) 0.5623(3)
H9B H 0.1312 -0.0360 0.6086
O10B O 0.6696(3) -0.33670(17) 1.0801(3)
C19B C 0.9857(3) -0.43136(17) 1.3084(3)
C20B C 0.7335(3) -0.3671(2) 1.2338(3)
H10B H 0.6723 -0.3597 1.2596
C21B C 0.5367(4) -0.28326(19) 1.1480(3)
H11B H 0.5106 -0.3201 1.1683
C22B C 0.8116(3) -0.39098(18) 1.2867(3)
H12B H 0.8032 -0.3989 1.3490
C23B C 0.0912(3) -0.0015(2) 0.8921(3)
H13B H 0.0542 -0.0199 0.9374
C24B C 0.0890(3) 0.05020(19) 0.5783(2)
C25B C 0.8357(4) -0.3670(2) 1.1030(3)
H14B H 0.8436 -0.3594 1.0405
C26B C 0.7475(3) -0.3544(2) 1.1423(3)
C27B C 0.6159(3) -0.17449(19) 1.0898(3)
H15B H 0.6426 -0.1378 1.0698
C28B C 0.9129(3) -0.3910(2) 1.1567(3)
H16B H 0.9736 -0.3990 1.1303
Cd1_2 Cd 0.67501(2) 0.019217(13) 1.826146(18)
Cd1A Cd -0.17501(2) 0.519217(13) 0.673854(18)
Cd1B_2 Cd 0.32499(2) -0.019217(13) 0.173854(18)
Cd1C Cd 1.17501(2) -0.519217(13) 1.326146(18)
Cd2A Cd 0.0000 0.5000 0.5000
Cd2A_2 Cd 1.0000 -0.5000 1.5000
O2_2 O 0.7940(2) -0.05118(13) 0.74583(18)
O2B_2 O 0.2060(2) 0.05118(13) 1.25417(18)
O3_2 O 0.7468(2) 0.03878(12) 0.69267(17)
O3B_2 O 0.2532(2) -0.03878(12) 1.30733(17)
O4A O 0.4732(2) -0.07028(13) 0.89419(19)
O4C O 0.5268(2) 0.07028(13) 1.10581(19)
O9A O 0.5592(2) -0.04769(13) 0.76944(19)
O9C O 0.4408(2) 0.04769(13) 1.23056(19)
P1 P 0.36775(7) 0.23446(4) 0.49654(7)
C29 C 0.4218(3) 0.16267(17) 0.5322(3)
C30 C 0.2587(3) 0.24280(17) 0.5643(2)
C31 C 0.3360(3) 0.23893(18) 0.3747(3)
C32 C 0.4594(3) 0.29297(17) 0.5216(3)
C33 C 0.1759(3) 0.2753(2) 0.5306(3)
H17 H 0.1771 0.2951 0.4737
C34 C 0.5144(3) 0.16102(19) 0.5779(3)
H18 H 0.5516 0.1967 0.5854
C35 C 0.3327(3) 0.1874(2) 0.3191(3)
H19 H 0.3451 0.1490 0.3446
C36 C 0.1707(3) 0.2175(2) 0.7000(3)
H20 H 0.1689 0.1985 0.7574
C37 C 0.5259(3) 0.3103(2) 0.4558(3)
H21 H 0.5202 0.2941 0.3965
C38 C 0.3664(3) 0.10862(18) 0.5229(3)
H22 H 0.3036 0.1091 0.4933
C39 C 0.2560(3) 0.2142(2) 0.6498(3)
H23 H 0.3115 0.1929 0.6732
C40 C 0.0891(3) 0.2485(2) 0.6656(3)
H24 H 0.0313 0.2495 0.6990
C41 C 0.4054(4) 0.0549(2) 0.5579(3)
H25 H 0.3692 0.0188 0.5510
C42 C 0.6003(4) 0.3516(2) 0.4783(3)
H26 H 0.6439 0.3640 0.4335
C43 C 0.6105(4) 0.3748(2) 0.5660(4)
H27 H 0.6612 0.4025 0.5809
C44 C 0.3185(3) 0.2966(2) 0.3366(3)
H28 H 0.3209 0.3311 0.3742
C45 C 0.5512(3) 0.1068(2) 0.6122(3)
H29 H 0.6138 0.1059 0.6421
C46 C 0.4971(4) 0.0540(2) 0.6029(3)
H30 H 0.5225 0.0175 0.6272
C47 C 0.3106(4) 0.1936(3) 0.2251(3)
H31 H 0.3071 0.1592 0.1872
C48 C 0.2941(4) 0.2509(3) 0.1882(3)
H32 H 0.2804 0.2550 0.1250
C49 C 0.0915(3) 0.2779(2) 0.5827(3)
H33 H 0.0361 0.2999 0.5610
C50 C 0.2976(4) 0.3022(2) 0.2430(3)
H34 H 0.2859 0.3406 0.2171
C51 C 0.4708(3) 0.3163(2) 0.6102(3)
H35 H 0.4274 0.3044 0.6554
C52 C 0.5465(4) 0.3571(2) 0.6313(3)
H36 H 0.5539 0.3728 0.6909
loop_
_geom_bond_atom_site_label_1
_geom_bond_atom_site_label_2
_geom_bond_site_symmetry_1
_geom_bond_site_symmetry_2
Cd1 O1 1_555 1_555
Cd2 O1 1_555 1_555
O1 C1 1_555 1_555
O2 C6 1_555 1_555
O3 C6 1_555 1_555
C1 C5 1_555 1_555
C2 O5 1_555 1_555
C3 C6 1_555 1_555
O4 C19 1_555 1_555
O5 Cd1 1_555 1_555
C4 C2 1_555 1_555
C5 C9 1_555 1_555
O6 C8 1_555 1_555
O7 Cd1 1_555 1_555
C7 H1 1_555 1_555
C8 C7 1_555 1_555
C9 H2 1_555 1_555
C10 C3 1_555 1_555
H3 C10 1_555 1_555
C11 C3 1_555 1_555
H4 C11 1_555 1_555
C12 C8 1_555 1_555
H5 C12 1_555 1_555
O8 Cd1 1_555 1_555
C13 C19 1_555 1_555
C14 C16 1_555 1_555
C15 C4 1_555 1_555
H6 C15 1_555 1_555
O9 C19 1_555 1_555
C16 H7 1_555 1_555
C17 C10 1_555 1_555
H8 C17 1_555 1_555
C18 C11 1_555 1_555
H9 C18 1_555 1_555
O10 C14 1_555 1_555
C20 H10 1_555 1_555
C21 C14 1_555 1_555
H11 C21 1_555 1_555
C22 C13 1_555 1_555
H12 C22 1_555 1_555
C23 C5 1_555 1_555
H13 C23 1_555 1_555
C24 O6 1_555 1_555
C25 H14 1_555 1_555
C26 O10 1_555 1_555
C27 C4 1_555 1_555
H15 C27 1_555 1_555
C28 C13 1_555 1_555
H16 C28 1_555 1_555
P1 C29 1_555 1_555
C29 C34 1_555 1_555
C30 P1 1_555 1_555
C31 P1 1_555 1_555
C32 P1 1_555 1_555
C33 C30 1_555 1_555
H17 C33 1_555 1_555
C34 H18 1_555 1_555
C35 C31 1_555 1_555
H19 C35 1_555 1_555
C36 H20 1_555 1_555
C37 C32 1_555 1_555
H21 C37 1_555 1_555
C38 C29 1_555 1_555
H22 C38 1_555 1_555
C39 C30 1_555 1_555
H23 C39 1_555 1_555
C40 C36 1_555 1_555
H24 C40 1_555 1_555
C41 C38 1_555 1_555
H25 C41 1_555 1_555
C42 C37 1_555 1_555
H26 C42 1_555 1_555
C43 C42 1_555 1_555
H27 C43 1_555 1_555
C44 C31 1_555 1_555
H28 C44 1_555 1_555
C45 C34 1_555 1_555
H29 C45 1_555 1_555
C46 C41 1_555 1_555
H30 C46 1_555 1_555
C47 C35 1_555 1_555
H31 C47 1_555 1_555
C48 C47 1_555 1_555
H32 C48 1_555 1_555
C49 C33 1_555 1_555
H33 C49 1_555 1_555
C50 C44 1_555 1_555
H34 C50 1_555 1_555
C51 C32 1_555 1_555
H35 C51 1_555 1_555
C52 C43 1_555 1_555
H36 C52 1_555 1_555
Cd1B O1B 1_555 1_555
O1B Cd2 1_555 1_555
O2B C6B 1_555 1_555
O3B C6B 1_555 1_555
C1B O1B 1_555 1_555
C2B O5B 1_555 1_555
C3B C6B 1_555 1_555
O4B C19B 1_555 1_555
O5B Cd1B 1_555 1_555
C4B C2B 1_555 1_555
C5B C1B 1_555 1_555
O6B C8B 1_555 1_555
O7B Cd2 1_555 1_555
C7B H1B 1_555 1_555
C8B C7B 1_555 1_555
C9B C5B 1_555 1_555
H2B C9B 1_555 1_555
C10B C3B 1_555 1_555
H3B C10B 1_555 1_555
C11B C3B 1_555 1_555
H4B C11B 1_555 1_555
C12B C8B 1_555 1_555
H5B C12B 1_555 1_555
O8B Cd1B 1_555 1_555
C13B C19B 1_555 1_555
C14B C16B 1_555 1_555
C15B C4B 1_555 1_555
H6B C15B 1_555 1_555
O9B C19B 1_555 1_555
C16B H7B 1_555 1_555
C17B C10B 1_555 1_555
H8B C17B 1_555 1_555
C18B C11B 1_555 1_555
H9B C18B 1_555 1_555
O10B C14B 1_555 1_555
C20B H10B 1_555 1_555
C21B C14B 1_555 1_555
H11B C21B 1_555 1_555
C22B C13B 1_555 1_555
H12B C22B 1_555 1_555
C23B C5B 1_555 1_555
H13B C23B 1_555 1_555
C24B O6B 1_555 1_555
C25B H14B 1_555 1_555
C26B O10B 1_555 1_555
C27B C4B 1_555 1_555
H15B C27B 1_555 1_555
C28B C13B 1_555 1_555
H16B C28B 1_555 1_555
Cd1_2 O2 1_555 1_555
Cd1A O9 1_555 1_555
Cd1B_2 O2B 1_555 1_555
Cd1C O9B 1_555 1_555
Cd2A O4 1_555 1_555
Cd2A_2 O4B 1_555 1_555
O2_2 Cd1 1_555 1_555
O2B_2 Cd1B 1_555 1_555
O3_2 Cd1 1_555 1_555
O3B_2 Cd1B 1_555 1_555
O4A Cd2 1_555 1_555
O4C Cd2 1_555 1_555
O9A Cd1 1_555 1_555
O9C Cd1B 1_555 1_555
Cd2 O7 1_555 1_555
O3 Cd1_2 1_555 1_555
C1 O8 1_555 1_555
C2 O7 1_555 1_555
C7 C23 1_555 1_555
C9 C12 1_555 1_555
C15 C21 1_555 1_555
C16 C27 1_555 1_555
C17 C24 1_555 1_555
C18 C24 1_555 1_555
C20 C22 1_555 1_555
C20 C26 1_555 1_555
C25 C26 1_555 1_555
C25 C28 1_555 1_555
C36 C39 1_555 1_555
C40 C49 1_555 1_555
C45 C46 1_555 1_555
C48 C50 1_555 1_555
C51 C52 1_555 1_555
Cd1B O7B 1_555 1_555
O3B Cd1B_2 1_555 1_555
C1B O8B 1_555 1_555
C2B O7B 1_555 1_555
C7B C23B 1_555 1_555
C9B C12B 1_555 1_555
C15B C21B 1_555 1_555
C16B C27B 1_555 1_555
C17B C24B 1_555 1_555
C18B C24B 1_555 1_555
C20B C22B 1_555 1_555
C20B C26B 1_555 1_555
C25B C26B 1_555 1_555
C25B C28B 1_555 1_555

#END
