
#######################################################################
#
#                 Cambridge Crystallographic Data Centre
#                                CCDC 
#
#######################################################################
#
# If this CIF has been generated from an entry in the Cambridge 
# Structural Database, then it will include bibliographic, chemical, 
# crystal, experimental, refinement or atomic coordinate data resulting 
# from the CCDC's data processing and validation procedures.
#
#######################################################################

data_YILKEL
_symmetry_cell_setting           monoclinic
_symmetry_space_group_name_H-M   'P 21/n'
_symmetry_Int_Tables_number      14
_space_group_name_Hall           '-P 2yn'
loop_
_symmetry_equiv_pos_site_id
_symmetry_equiv_pos_as_xyz
1 x,y,z
2 1/2-x,1/2+y,1/2-z
3 -x,-y,-z
4 1/2+x,1/2-y,1/2+z
_cell_length_a                   8.9760(7)
_cell_length_b                   25.7636(19)
_cell_length_c                   11.8280(9)
_cell_angle_alpha                90
_cell_angle_beta                 90.3230(10)
_cell_angle_gamma                90
_cell_volume                     2735.23
loop_
_atom_site_label
_atom_site_type_symbol
_atom_site_fract_x
_atom_site_fract_y
_atom_site_fract_z
Eu1 Eu 0.98860(2) 0.377846(7) 0.990280(16)
C1 C 1.5087(4) 0.32671(15) 0.5448(3)
O1 O 1.0655(3) 0.45869(10) 0.9078(2)
H1 H 1.1062 0.4784 0.9586
H2 H 0.9894 0.4748 0.8793
O2 O 1.5357(3) 0.20038(10) 0.6097(3)
O3 O 1.2384(3) 0.34486(11) 0.9138(2)
C2 C 1.4776(4) 0.37734(13) 0.5803(3)
C3 C 1.5260(4) 0.42754(13) 0.3944(3)
O4 O 1.7640(4) 0.36523(12) 0.1017(3)
O5 O 1.8135(3) 0.44623(10) 0.0723(3)
O6 O 1.0627(3) 0.35976(12) 0.7898(2)
C4 C 1.7392(4) 0.41255(15) 0.1219(3)
C5 C 1.4288(4) 0.28468(14) 0.5915(3)
O7 O 1.4024(3) 0.21474(11) 0.4582(2)
O8 O 1.1484(4) 0.49188(13) 0.1992(4)
C6 C 1.4732(4) 0.43213(14) 0.1588(3)
C7 C 1.2018(5) 0.44779(15) 0.1869(4)
C8 C 1.3557(4) 0.43798(14) 0.2357(3)
C9 C 1.6452(4) 0.42425(14) 0.3187(3)
C10 C 1.1967(5) 0.34984(14) 0.8136(3)
C11 C 1.6152(4) 0.42447(14) 0.2021(3)
C12 C 1.3817(4) 0.43580(14) 0.3522(3)
C13 C 1.4572(4) 0.23029(14) 0.5499(3)
C14 C 1.3057(4) 0.34236(14) 0.7177(3)
C15 C 1.4451(5) 0.43467(18) 0.0339(4)
H3 H 1.3902 0.4045 0.0104
H4 H 1.5385 0.4358 -0.0052
H5 H 1.3886 0.4653 0.0165
C16 C 1.8075(4) 0.42162(18) 0.3548(4)
H6 H 1.8179 0.4350 0.4302
H7 H 1.8667 0.4420 0.3040
H8 H 1.8406 0.3862 0.3531
C17 C 1.3822(5) 0.38516(14) 0.6721(3)
C18 C 1.2511(4) 0.44430(17) 0.4317(4)
H9 H 1.2496 0.4172 0.4874
H10 H 1.1597 0.4438 0.3893
H11 H 1.2618 0.4773 0.4686
O9 O 0.7792(4) 0.39249(16) 0.8558(3)
H12 H 0.7231 0.4164 0.8807
H13 H 0.7277 0.3650 0.8490
C19 C 1.3248(5) 0.29232(14) 0.6755(3)
C20 C 1.6326(5) 0.31499(16) 0.4633(4)
H14 H 1.6023 0.3247 0.3882
H15 H 1.6545 0.2785 0.4651
H16 H 1.7199 0.3343 0.4845
C21 C 1.3580(5) 0.43775(15) 0.7249(4)
H17 H 1.4526 0.4538 0.7397
H18 H 1.3047 0.4338 0.7945
H19 H 1.3012 0.4591 0.6740
C22 C 1.2374(6) 0.24756(16) 0.7239(5)
H20 H 1.2122 0.2237 0.6646
H21 H 1.1479 0.2604 0.7579
H22 H 1.2966 0.2301 0.7801
C23 C 1.5531(4) 0.42323(15) 0.5220(3)
H23 H 1.6596 0.4208 0.5353
H24 H 1.5189 0.4550 0.5574
O10 O 1.1381(3) 0.41075(11) 0.1368(2)
Eu1_2 Eu 0.98860(2) 0.377846(7) -0.009720(16)
Eu1_3 Eu 1.98860(2) 0.377846(7) -0.009720(16)
Eu1C Eu 1.48860(2) 0.122154(7) 0.490280(16)
O2C O 1.0357(3) 0.29962(10) 1.1097(3)
O4_2 O 0.7640(4) 0.36523(12) 1.1017(3)
O5_2 O 0.8135(3) 0.44623(10) 1.0723(3)
O7C O 0.9024(3) 0.28526(11) 0.9582(2)
O10_2 O 1.1381(3) 0.41075(11) 1.1368(2)
O11 O 1.5458(6) 0.3079(2) 0.9380(6)
H25 H 1.4560 0.3154 0.9219
H26 H 1.576(11) 0.322(4) 1.000(8)
N1 N 1.6933(8) 0.2304(2) 0.7983(6)
H27 H 1.6207 0.2378 0.7481
H28 H 1.7117 0.2589 0.8399
C24 C 1.6454(12) 0.1867(3) 0.8732(8)
H29 H 1.6418 0.1551 0.8303
H30 H 1.5484 0.1941 0.9030
H31 H 1.7154 0.1830 0.9343
C25 C 1.8292(12) 0.2143(9) 0.7386(12)
H32 H 1.8040 0.1891 0.6818
H33 H 1.8982 0.1992 0.7916
H34 H 1.8740 0.2439 0.7035
O12 O 0.8975(8) 0.4220(3) 0.6426(5)
H35 H 0.9486 0.4009 0.6821
H36 H 0.8791 0.4485 0.6829
loop_
_geom_bond_atom_site_label_1
_geom_bond_atom_site_label_2
_geom_bond_site_symmetry_1
_geom_bond_site_symmetry_2
Eu1 O1 1_555 1_555
C1 C2 1_555 1_555
O1 H1 1_555 1_555
H2 O1 1_555 1_555
O2 C13 1_555 1_555
O3 Eu1 1_555 1_555
C2 C17 1_555 1_555
C3 C9 1_555 1_555
O4 C4 1_555 1_555
O5 C4 1_555 1_555
O6 Eu1 1_555 1_555
C4 C11 1_555 1_555
C5 C1 1_555 1_555
O7 C13 1_555 1_555
O8 C7 1_555 1_555
C6 C8 1_555 1_555
C7 C8 1_555 1_555
C8 C12 1_555 1_555
C9 C11 1_555 1_555
C10 O3 1_555 1_555
C11 C6 1_555 1_555
C12 C3 1_555 1_555
C13 C5 1_555 1_555
C14 C10 1_555 1_555
C15 C6 1_555 1_555
H3 C15 1_555 1_555
H4 C15 1_555 1_555
H5 C15 1_555 1_555
C16 C9 1_555 1_555
H6 C16 1_555 1_555
H7 C16 1_555 1_555
H8 C16 1_555 1_555
C17 C14 1_555 1_555
C18 C12 1_555 1_555
H9 C18 1_555 1_555
H10 C18 1_555 1_555
H11 C18 1_555 1_555
O9 Eu1 1_555 1_555
H12 O9 1_555 1_555
H13 O9 1_555 1_555
C19 C5 1_555 1_555
C20 C1 1_555 1_555
H14 C20 1_555 1_555
H15 C20 1_555 1_555
H16 C20 1_555 1_555
C21 C17 1_555 1_555
H17 C21 1_555 1_555
H18 C21 1_555 1_555
H19 C21 1_555 1_555
C22 C19 1_555 1_555
H20 C22 1_555 1_555
H21 C22 1_555 1_555
H22 C22 1_555 1_555
C23 C2 1_555 1_555
H23 C23 1_555 1_555
H24 C23 1_555 1_555
O10 C7 1_555 1_555
O11 H25 1_555 1_555
H26 O11 1_555 1_555
N1 H27 1_555 1_555
H28 N1 1_555 1_555
C24 N1 1_555 1_555
H29 C24 1_555 1_555
H30 C24 1_555 1_555
H31 C24 1_555 1_555
C25 N1 1_555 1_555
H32 C25 1_555 1_555
H33 C25 1_555 1_555
H34 C25 1_555 1_555
O12 H35 1_555 1_555
H36 O12 1_555 1_555
Eu1_2 O10 1_555 1_555
Eu1_3 O4 1_555 1_555
Eu1C O2 1_555 1_555
O2C Eu1 1_555 1_555
O4_2 Eu1 1_555 1_555
O5_2 Eu1 1_555 1_555
O7C Eu1 1_555 1_555
O10_2 Eu1 1_555 1_555
C3 C23 1_555 1_555
O5 Eu1_3 1_555 1_555
O6 C10 1_555 1_555
O7 Eu1C 1_555 1_555
C14 C19 1_555 1_555

#END
