
#######################################################################
#
#                 Cambridge Crystallographic Data Centre
#                                CCDC 
#
#######################################################################
#
# If this CIF has been generated from an entry in the Cambridge 
# Structural Database, then it will include bibliographic, chemical, 
# crystal, experimental, refinement or atomic coordinate data resulting 
# from the CCDC's data processing and validation procedures.
#
#######################################################################

data_YILKAH
_symmetry_cell_setting           triclinic
_symmetry_space_group_name_H-M   'P -1'
_symmetry_Int_Tables_number      2
_space_group_name_Hall           '-P 1'
loop_
_symmetry_equiv_pos_site_id
_symmetry_equiv_pos_as_xyz
1 x,y,z
2 -x,-y,-z
_cell_length_a                   15.1394(7)
_cell_length_b                   16.5670(7)
_cell_length_c                   17.8680(7)
_cell_angle_alpha                95.399(3)
_cell_angle_beta                 97.074(3)
_cell_angle_gamma                102.332(4)
_cell_volume                     4311.19
loop_
_atom_site_label
_atom_site_type_symbol
_atom_site_fract_x
_atom_site_fract_y
_atom_site_fract_z
Cd1 Cd 0.31397(3) 0.01764(4) -0.63377(3)
Cd2 Cd 0.5000 0.0000 -0.5000
Cd3 Cd 1.0000 0.5000 0.0000
Cd4 Cd 1.86837(6) 0.63416(4) 0.07436(5)
C1 C 1.5739(9) 0.6868(8) 0.1418(9)
H1 H 1.5777 0.6348 0.1557
C2 C 0.5138(9) 0.3854(7) -0.3848(8)
C3 C 0.7689(11) 0.4773(8) -0.2276(10)
H2 H 0.8262 0.4687 -0.2346
C4 C 1.4949(9) 0.7204(8) 0.1529(9)
H3 H 1.4462 0.6888 0.1721
C5 C 0.6941(10) 0.4571(8) -0.2868(10)
H4 H 0.7004 0.4297 -0.3330
C6 C 0.5931(11) 0.5013(8) -0.2053(10)
H5 H 0.5345 0.5039 -0.1965
C7 C 0.6132(11) 0.4769(8) -0.2777(11)
C8 C 0.4721(9) 0.3881(7) -0.4590(8)
H6 H 0.4674 0.4389 -0.4752
C9 C 0.5325(9) 0.3111(7) -0.3676(8)
H7 H 0.5692 0.3100 -0.3222
C10 C 1.4920(9) 0.7974(8) 0.1356(9)
C11 C 0.6617(10) 0.5195(8) -0.1528(10)
H8 H 0.6526 0.5412 -0.1052
C12 C 1.3002(8) 0.7308(6) 0.0796(7)
H9 H 1.3393 0.7111 0.0500
C13 C 1.5589(9) 0.8397(8) 0.1043(9)
H10 H 1.5563 0.8926 0.0920
C14 C 1.6422(9) 0.7328(7) 0.1106(9)
C15 C 0.7524(11) 0.5093(8) -0.1612(10)
C16 C 0.0796(7) -0.4524(7) -0.2815(6)
H11 H 0.0928 -0.5007 -0.3036
C17 C 0.8199(11) 0.5305(8) -0.0924(10)
C18 C 0.4375(9) 0.3140(7) -0.5089(8)
H12 H 0.4057 0.3156 -0.5565
C19 C 0.0642(7) -0.3920(6) -0.3256(6)
H13 H 0.0652 -0.4002 -0.3777
C20 C 1.2100(8) 0.6983(6) 0.0653(7)
H14 H 1.1869 0.6537 0.0273
C21 C 0.0722(6) -0.1982(5) -0.4426(5)
H15 H 0.0100 -0.2059 -0.4596
C22 C 0.0932(8) -0.5085(7) -0.1582(6)
C23 C 1.3350(8) 0.7947(6) 0.1396(7)
C24 C 0.4978(9) 0.2373(7) -0.4167(8)
H16 H 0.5064 0.1869 -0.4018
C25 C 1.1867(8) 0.7946(6) 0.1658(7)
H17 H 1.1472 0.8161 0.1937
C26 C 1.7267(9) 0.7003(8) 0.0965(10)
C27 C 0.4505(9) 0.2394(7) -0.4877(8)
C28 C 1.1517(8) 0.7301(6) 0.1059(7)
C29 C 0.0754(8) -0.4421(6) -0.2044(6)
C30 C 0.0474(8) -0.3192(6) -0.2927(6)
C31 C 1.0542(8) 0.6976(6) 0.0858(7)
C32 C 1.2766(8) 0.8248(6) 0.1825(7)
H18 H 1.3000 0.8663 0.2232
C33 C 0.0437(7) -0.3083(7) -0.2146(6)
H19 H 0.0328 -0.2591 -0.1920
C34 C 0.0999(6) -0.2253(5) -0.3778(5)
C35 C 1.6322(9) 0.8079(7) 0.0896(9)
H20 H 1.6762 0.8382 0.0647
C36 C 0.0562(7) -0.3699(6) -0.1715(6)
H21 H 0.0517 -0.3634 -0.1199
C37 C 0.1356(6) -0.1587(5) -0.4845(5)
H22 H 0.1160 -0.1396 -0.5295
C38 C -0.3499(5) 0.0451(5) -0.8201(4)
H23 H -0.3401 0.0748 -0.8611
C39 C 0.1930(6) -0.2147(5) -0.3511(5)
H24 H 0.2116 -0.2342 -0.3060
C40 C -0.0078(5) 0.0490(5) -0.7016(4)
H25 H 0.0177 0.0841 -0.6569
C41 C -0.3023(5) -0.0441(5) -0.7311(4)
H26 H -0.2611 -0.0748 -0.7135
C42 C -0.4262(5) 0.0462(5) -0.7845(4)
H27 H -0.4672 0.0772 -0.8018
C43 C 0.2568(6) -0.1751(5) -0.3923(5)
H28 H 0.3188 -0.1671 -0.3747
C44 C 0.4068(9) 0.1597(7) -0.5379(8)
C45 C 0.2982(6) -0.1031(5) -0.5037(5)
C46 C -0.2885(5) -0.0007(5) -0.7941(4)
C47 C 0.2289(6) -0.1475(5) -0.4594(5)
C48 C 0.0057(5) -0.0515(5) -0.8021(4)
H29 H 0.0403 -0.0839 -0.8253
C49 C -0.1335(5) -0.0064(5) -0.8001(4)
C50 C -0.3775(5) -0.0407(5) -0.6957(5)
H30 H -0.3851 -0.0673 -0.6526
C51 C -0.0838(5) -0.0557(5) -0.8351(4)
H31 H -0.1094 -0.0910 -0.8796
C52 C -0.0974(5) 0.0459(5) -0.7336(4)
H32 H -0.1320 0.0784 -0.7107
C53 C -0.4422(5) 0.0017(5) -0.7230(4)
C54 C 0.0437(5) 0.0001(5) -0.7356(4)
C55 C -0.5260(5) 0.0001(5) -0.6882(4)
C56 C 0.1393(5) 0.0037(5) -0.6990(4)
O1 O 0.5550(16) 0.4633(8) -0.3511(14)
O2 O 1.7333(8) 0.6322(6) 0.1209(9)
O3 O 0.1023(8) -0.5764(5) -0.1902(5)
O4 O 1.4241(6) 0.8339(6) 0.1576(8)
O5 O 0.8032(7) 0.5800(6) -0.0403(6)
O6 O 0.9997(5) 0.7279(4) 0.1248(4)
O7 O 0.0331(4) -0.2578(4) -0.3350(4)
O8 O 1.0196(5) 0.6411(4) 0.0303(4)
O9 O 0.3678(4) 0.1645(4) -0.6029(4)
O10 O 0.1019(5) -0.4947(5) -0.0860(4)
O11 O 0.1706(4) 0.0524(5) -0.6394(4)
O12 O 1.7797(5) 0.7378(4) 0.0631(4)
O13 O 0.2669(4) -0.0812(4) -0.5663(3)
O14 O 0.8902(4) 0.5022(3) -0.0930(3)
O15 O 0.4065(3) 0.0934(4) -0.5129(3)
O16 O -0.5387(3) -0.0374(4) -0.6304(3)
O17 O 0.1866(3) -0.0380(3) -0.7306(3)
O18 O -0.5866(3) 0.0337(4) -0.7190(3)
O19 O -0.2198(4) -0.0080(4) -0.8368(3)
O20 O 0.3813(3) -0.0917(4) -0.4771(3)
Cd1A Cd -0.31397(3) -0.01764(4) -0.36623(3)
C2A C -0.5138(9) -0.3854(7) -0.6152(8)
C3A C -0.7689(11) -0.4773(8) -0.7724(10)
H2A H -0.8262 -0.4687 -0.7654
C5A C -0.6941(10) -0.4571(8) -0.7132(10)
H4A H -0.7004 -0.4297 -0.6670
C6A C -0.5931(11) -0.5013(8) -0.7947(10)
H5A H -0.5345 -0.5039 -0.8035
C7A C -0.6132(11) -0.4769(8) -0.7223(11)
C8A C -0.4721(9) -0.3881(7) -0.5410(8)
H6A H -0.4674 -0.4389 -0.5248
C9A C -0.5325(9) -0.3111(7) -0.6324(8)
H7A H -0.5692 -0.3100 -0.6778
C11A C -0.6617(10) -0.5195(8) -0.8472(10)
H8A H -0.6526 -0.5412 -0.8948
C15A C -0.7524(11) -0.5093(8) -0.8388(10)
C16A C -0.0796(7) 0.4524(7) -0.7185(6)
H11A H -0.0928 0.5007 -0.6964
C17A C -0.8199(11) -0.5305(8) -0.9076(10)
C18A C -0.4375(9) -0.3140(7) -0.4911(8)
H12A H -0.4057 -0.3156 -0.4435
C19A C -0.0642(7) 0.3920(6) -0.6744(6)
H13A H -0.0652 0.4002 -0.6223
C21A C -0.0722(6) 0.1982(5) -0.5574(5)
H15A H -0.0100 0.2059 -0.5404
C22A C -0.0932(8) 0.5085(7) -0.8418(6)
C24A C -0.4978(9) -0.2373(7) -0.5833(8)
H16A H -0.5064 -0.1869 -0.5982
C27A C -0.4505(9) -0.2394(7) -0.5123(8)
C29A C -0.0754(8) 0.4421(6) -0.7956(6)
C30A C -0.0474(8) 0.3192(6) -0.7073(6)
C33A C -0.0437(7) 0.3083(7) -0.7854(6)
H19A H -0.0328 0.2591 -0.8080
C34A C -0.0999(6) 0.2253(5) -0.6222(5)
C36A C -0.0562(7) 0.3699(6) -0.8285(6)
H21A H -0.0517 0.3634 -0.8801
C37A C -0.1356(6) 0.1587(5) -0.5155(5)
H22A H -0.1160 0.1396 -0.4705
C38A C 0.3499(5) -0.0451(5) -0.1799(4)
H23A H 0.3401 -0.0748 -0.1389
C39A C -0.1930(6) 0.2147(5) -0.6489(5)
H24A H -0.2116 0.2342 -0.6940
C40A C 0.0078(5) -0.0490(5) -0.2984(4)
H25A H -0.0177 -0.0841 -0.3431
C41A C 0.3023(5) 0.0441(5) -0.2689(4)
H26A H 0.2611 0.0748 -0.2865
C42A C 0.4262(5) -0.0462(5) -0.2155(4)
H27A H 0.4672 -0.0772 -0.1982
C43A C -0.2568(6) 0.1751(5) -0.6077(5)
H28A H -0.3188 0.1671 -0.6253
C44A C -0.4068(9) -0.1597(7) -0.4621(8)
C45A C -0.2982(6) 0.1031(5) -0.4963(5)
C46A C 0.2885(5) 0.0007(5) -0.2059(4)
C47A C -0.2289(6) 0.1475(5) -0.5406(5)
C48A C -0.0057(5) 0.0515(5) -0.1979(4)
H29A H -0.0403 0.0839 -0.1747
C49A C 0.1335(5) 0.0064(5) -0.1999(4)
C50A C 0.3775(5) 0.0407(5) -0.3043(5)
H30A H 0.3851 0.0673 -0.3474
C51A C 0.0838(5) 0.0557(5) -0.1649(4)
H31A H 0.1094 0.0910 -0.1204
C52A C 0.0974(5) -0.0459(5) -0.2664(4)
H32A H 0.1320 -0.0784 -0.2893
C53A C 0.4422(5) -0.0017(5) -0.2770(4)
C54A C -0.0437(5) -0.0001(5) -0.2644(4)
C55A C 0.5260(5) -0.0001(5) -0.3118(4)
C56A C -0.1393(5) -0.0037(5) -0.3010(4)
O1A O -0.5550(16) -0.4633(8) -0.6489(14)
O3A O -0.1023(8) 0.5764(5) -0.8098(5)
O5A O -0.8032(7) -0.5800(6) -0.9597(6)
O7A O -0.0331(4) 0.2578(4) -0.6650(4)
O9A O -0.3678(4) -0.1645(4) -0.3971(4)
O10A O -0.1019(5) 0.4947(5) -0.9140(4)
O11A O -0.1706(4) -0.0524(5) -0.3606(4)
O13A O -0.2669(4) 0.0812(4) -0.4337(3)
O14A O -0.8902(4) -0.5022(3) -0.9070(3)
O15A O -0.4065(3) -0.0934(4) -0.4871(3)
O16A O 0.5387(3) 0.0374(4) -0.3696(3)
O17A O -0.1866(3) 0.0380(3) -0.2694(3)
O18A O 0.5866(3) -0.0337(4) -0.2810(3)
O19A O 0.2198(4) 0.0080(4) -0.1632(3)
O20A O -0.3813(3) 0.0917(4) -0.5229(3)
Cd4A Cd 0.13163(6) 0.36584(4) -0.07436(5)
C1A C 0.4261(9) 0.3132(8) -0.1418(9)
H1A H 0.4223 0.3652 -0.1557
C4A C 0.5051(9) 0.2796(8) -0.1529(9)
H3A H 0.5538 0.3112 -0.1721
C10A C 0.5080(9) 0.2026(8) -0.1356(9)
C12A C 0.6998(8) 0.2692(6) -0.0796(7)
H9A H 0.6607 0.2889 -0.0500
C13A C 0.4411(9) 0.1603(8) -0.1043(9)
H10A H 0.4437 0.1074 -0.0920
C14A C 0.3578(9) 0.2672(7) -0.1106(9)
C20A C 0.7900(8) 0.3017(6) -0.0653(7)
H14A H 0.8131 0.3463 -0.0273
C23A C 0.6650(8) 0.2053(6) -0.1396(7)
C25A C 0.8133(8) 0.2054(6) -0.1658(7)
H17A H 0.8528 0.1839 -0.1937
C26A C 0.2733(9) 0.2997(8) -0.0965(10)
C28A C 0.8483(8) 0.2699(6) -0.1059(7)
C31A C 0.9458(8) 0.3024(6) -0.0858(7)
C32A C 0.7234(8) 0.1752(6) -0.1825(7)
H18A H 0.7000 0.1337 -0.2232
C35A C 0.3678(9) 0.1921(7) -0.0896(9)
H20A H 0.3238 0.1618 -0.0647
O2A O 0.2667(8) 0.3678(6) -0.1209(9)
O4A O 0.5759(6) 0.1661(6) -0.1576(8)
O6A O 1.0003(5) 0.2721(4) -0.1248(4)
O8A O 0.9804(5) 0.3589(4) -0.0303(4)
O12A O 0.2203(5) 0.2622(4) -0.0631(4)
Cd1_2 Cd -0.68603(3) 0.01764(4) -0.63377(3)
Cd1A_2 Cd 0.68603(3) -0.01764(4) -0.36623(3)
Cd2_2 Cd -0.5000 0.0000 -0.5000
Cd3_2 Cd -1.0000 -0.5000 -1.0000
Cd3_3 Cd 0.0000 -0.5000 0.0000
Cd3_4 Cd 0.0000 0.5000 -1.0000
Cd4_2 Cd -0.13163(6) 0.63416(4) -0.92564(5)
Cd4_3 Cd 0.86837(6) 0.63416(4) 0.07436(5)
Cd4A_2 Cd -0.86837(6) -0.63416(4) -1.07436(5)
Cd4A_3 Cd 0.13163(6) -0.63416(4) -0.07436(5)
Cd4A_4 Cd 1.13163(6) 0.36584(4) -0.07436(5)
O3_2 O 0.1023(8) 0.4236(5) -0.1902(5)
O3A_2 O 1.8977(8) 0.5764(5) 0.1902(5)
O5_2 O 1.8032(7) 0.5800(6) -0.0403(6)
O5A_2 O 0.1968(7) 0.4200(6) 0.0403(6)
O6_2 O 1.9997(5) 0.7279(4) 0.1248(4)
O6A_2 O 0.0003(5) 0.2721(4) -0.1248(4)
O8_2 O 2.0196(5) 0.6411(4) 0.0303(4)
O8A_2 O -0.0196(5) 0.3589(4) -0.0303(4)
O10_2 O 0.1019(5) 0.5053(5) -0.0860(4)
O10_3 O 1.1019(5) 0.5053(5) -0.0860(4)
O10A_2 O 0.8981(5) 0.4947(5) 0.0860(4)
O10A_3 O 1.8981(5) 0.4947(5) 0.0860(4)
O14A_2 O 1.1098(4) 0.4978(3) 0.0930(3)
O15A_2 O 0.5935(3) -0.0934(4) -0.4871(3)
O16_2 O 0.4613(3) -0.0374(4) -0.6304(3)
O16A_2 O -0.4613(3) 0.0374(4) -0.3696(3)
O18_2 O 0.4134(3) 0.0337(4) -0.7190(3)
O18A_2 O -0.4134(3) -0.0337(4) -0.2810(3)
O20A_2 O 0.6187(3) 0.0917(4) -0.5229(3)
C57 C 0.3446(15) -0.0295(12) 0.0224(8)
H33 H 0.3020 -0.0266 -0.0212
H34 H 0.3494 -0.0861 0.0242
H35 H 0.4034 0.0046 0.0188
C58 C 0.1942(10) 0.2918(13) 0.3665(9)
H36 H 0.1322 0.2585 0.3603
H37 H 0.2327 0.2653 0.3989
C59 C 0.5924(10) 0.3029(11) 0.3095(14)
H38 H 0.5924 0.2454 0.2961
H39 H 0.5871 0.3124 0.3624
H40 H 0.6485 0.3373 0.3000
C60 C 0.2257(9) 0.2934(12) 0.2903(9)
H41 H 0.1850 0.3166 0.2567
H42 H 0.2865 0.3293 0.2958
C61 C 0.5110(8) 0.3247(8) 0.2614(9)
H43 H 0.5308 0.3465 0.2162
H44 H 0.4905 0.3678 0.2904
C62 C 0.3134(9) -0.0003(8) 0.0894(7)
H45 H 0.3565 -0.0048 0.1329
H46 H 0.2553 -0.0369 0.0933
C63 C -0.0595(11) 0.1282(9) 0.0299(8)
H47 H -0.0959 0.1438 -0.0118
H48 H -0.0888 0.1316 0.0745
H49 H -0.0534 0.0722 0.0176
C64 C 0.2279(10) 0.2090(13) 0.2558(9)
H50 H 0.1665 0.1744 0.2509
H51 H 0.2666 0.1862 0.2915
C65 C 0.4301(8) 0.2476(8) 0.2376(9)
H52 H 0.4534 0.2023 0.2151
H53 H 0.4063 0.2304 0.2830
C66 C 0.3012(9) 0.0881(8) 0.0944(7)
H54 H 0.3587 0.1254 0.0899
H55 H 0.2563 0.0929 0.0524
C67 C 0.0331(8) 0.1860(7) 0.0447(6)
H56 H 0.0590 0.1880 -0.0023
H57 H 0.0270 0.2417 0.0617
C68 C 0.3513(8) 0.2608(8) 0.1815(9)
H58 H 0.3433 0.3168 0.1940
H59 H 0.3683 0.2571 0.1310
C69 C 0.1913(8) 0.2191(7) 0.1182(6)
H60 H 0.2167 0.2190 0.0709
H61 H 0.1831 0.2748 0.1319
C70 C 0.0978(8) 0.1592(7) 0.1043(6)
H62 H 0.1043 0.1037 0.0874
H63 H 0.0722 0.1573 0.1514
C71 C 0.2717(9) 0.1130(7) 0.1656(7)
H64 H 0.3155 0.1045 0.2068
H65 H 0.2137 0.0757 0.1685
N1 N 0.2604(6) 0.2003(5) 0.1796(5)
C72 C 0.197(2) 0.378(3) 0.405(2)
H66 H 0.1874 0.4135 0.3668
H67 H 0.2554 0.3996 0.4354
H68 H 0.1498 0.3744 0.4364
loop_
_geom_bond_atom_site_label_1
_geom_bond_atom_site_label_2
_geom_bond_site_symmetry_1
_geom_bond_site_symmetry_2
Cd1 O9 1_555 1_555
Cd2 O15 1_555 1_555
Cd3 O8 1_555 1_555
Cd4 O2 1_555 1_555
C1 H1 1_555 1_555
C2 C8 1_555 1_555
C3 H2 1_555 1_555
C4 C1 1_555 1_555
H3 C4 1_555 1_555
C5 C3 1_555 1_555
H4 C5 1_555 1_555
C6 H5 1_555 1_555
C7 C5 1_555 1_555
C8 H6 1_555 1_555
C9 C2 1_555 1_555
H7 C9 1_555 1_555
C10 C4 1_555 1_555
C11 C6 1_555 1_555
H8 C11 1_555 1_555
C12 H9 1_555 1_555
C13 C10 1_555 1_555
H10 C13 1_555 1_555
C14 C1 1_555 1_555
C15 C3 1_555 1_555
C16 H11 1_555 1_555
C17 C15 1_555 1_555
C18 C8 1_555 1_555
H12 C18 1_555 1_555
C19 C16 1_555 1_555
H13 C19 1_555 1_555
C20 C12 1_555 1_555
H14 C20 1_555 1_555
C21 H15 1_555 1_555
C22 C29 1_555 1_555
C23 C12 1_555 1_555
C24 C9 1_555 1_555
H16 C24 1_555 1_555
C25 H17 1_555 1_555
C26 C14 1_555 1_555
C27 C18 1_555 1_555
C28 C20 1_555 1_555
C29 C16 1_555 1_555
C30 C19 1_555 1_555
C31 C28 1_555 1_555
C32 C23 1_555 1_555
H18 C32 1_555 1_555
C33 C30 1_555 1_555
H19 C33 1_555 1_555
C34 C21 1_555 1_555
C35 C13 1_555 1_555
H20 C35 1_555 1_555
C36 C29 1_555 1_555
H21 C36 1_555 1_555
C37 C21 1_555 1_555
H22 C37 1_555 1_555
C38 H23 1_555 1_555
C39 C34 1_555 1_555
H24 C39 1_555 1_555
C40 H25 1_555 1_555
C41 H26 1_555 1_555
C42 C38 1_555 1_555
H27 C42 1_555 1_555
C43 C39 1_555 1_555
H28 C43 1_555 1_555
C44 C27 1_555 1_555
C45 C47 1_555 1_555
C46 C38 1_555 1_555
C47 C37 1_555 1_555
C48 H29 1_555 1_555
C49 C51 1_555 1_555
C50 C41 1_555 1_555
H30 C50 1_555 1_555
C51 C48 1_555 1_555
H31 C51 1_555 1_555
C52 C40 1_555 1_555
H32 C52 1_555 1_555
C53 C42 1_555 1_555
C54 C40 1_555 1_555
C55 C53 1_555 1_555
C56 C54 1_555 1_555
O1 C2 1_555 1_555
O2 C26 1_555 1_555
O3 C22 1_555 1_555
O4 C10 1_555 1_555
O5 C17 1_555 1_555
O6 C31 1_555 1_555
O7 C30 1_555 1_555
O8 C31 1_555 1_555
O9 C44 1_555 1_555
O10 C22 1_555 1_555
O11 Cd1 1_555 1_555
O12 Cd4 1_555 1_555
O13 Cd1 1_555 1_555
O14 Cd3 1_555 1_555
O15 Cd1 1_555 1_555
O16 C55 1_555 1_555
O17 Cd1 1_555 1_555
O18 C55 1_555 1_555
O19 C46 1_555 1_555
O20 Cd2 1_555 1_555
C57 H33 1_555 1_555
H34 C57 1_555 1_555
H35 C57 1_555 1_555
C58 H36 1_555 1_555
H37 C58 1_555 1_555
C59 H38 1_555 1_555
H39 C59 1_555 1_555
H40 C59 1_555 1_555
C60 C58 1_555 1_555
H41 C60 1_555 1_555
H42 C60 1_555 1_555
C61 C59 1_555 1_555
H43 C61 1_555 1_555
H44 C61 1_555 1_555
C62 C57 1_555 1_555
H45 C62 1_555 1_555
H46 C62 1_555 1_555
C63 H47 1_555 1_555
H48 C63 1_555 1_555
H49 C63 1_555 1_555
C64 C60 1_555 1_555
H50 C64 1_555 1_555
H51 C64 1_555 1_555
C65 C61 1_555 1_555
H52 C65 1_555 1_555
H53 C65 1_555 1_555
C66 C62 1_555 1_555
H54 C66 1_555 1_555
H55 C66 1_555 1_555
C67 C63 1_555 1_555
H56 C67 1_555 1_555
H57 C67 1_555 1_555
C68 C65 1_555 1_555
H58 C68 1_555 1_555
H59 C68 1_555 1_555
C69 H60 1_555 1_555
H61 C69 1_555 1_555
C70 C67 1_555 1_555
H62 C70 1_555 1_555
H63 C70 1_555 1_555
C71 C66 1_555 1_555
H64 C71 1_555 1_555
H65 C71 1_555 1_555
N1 C64 1_555 1_555
C72 C58 1_555 1_555
H66 C72 1_555 1_555
H67 C72 1_555 1_555
H68 C72 1_555 1_555
Cd1A O9A 1_555 1_555
C2A C8A 1_555 1_555
C3A H2A 1_555 1_555
C5A C3A 1_555 1_555
H4A C5A 1_555 1_555
C6A H5A 1_555 1_555
C7A C5A 1_555 1_555
C8A H6A 1_555 1_555
C9A C2A 1_555 1_555
H7A C9A 1_555 1_555
C11A C6A 1_555 1_555
H8A C11A 1_555 1_555
C15A C3A 1_555 1_555
C16A H11A 1_555 1_555
C17A C15A 1_555 1_555
C18A C8A 1_555 1_555
H12A C18A 1_555 1_555
C19A C16A 1_555 1_555
H13A C19A 1_555 1_555
C21A H15A 1_555 1_555
C22A C29A 1_555 1_555
C24A C9A 1_555 1_555
H16A C24A 1_555 1_555
C27A C18A 1_555 1_555
C29A C16A 1_555 1_555
C30A C19A 1_555 1_555
C33A C30A 1_555 1_555
H19A C33A 1_555 1_555
C34A C21A 1_555 1_555
C36A C29A 1_555 1_555
H21A C36A 1_555 1_555
C37A C21A 1_555 1_555
H22A C37A 1_555 1_555
C38A H23A 1_555 1_555
C39A C34A 1_555 1_555
H24A C39A 1_555 1_555
C40A H25A 1_555 1_555
C41A H26A 1_555 1_555
C42A C38A 1_555 1_555
H27A C42A 1_555 1_555
C43A C39A 1_555 1_555
H28A C43A 1_555 1_555
C44A C27A 1_555 1_555
C45A C47A 1_555 1_555
C46A C38A 1_555 1_555
C47A C37A 1_555 1_555
C48A H29A 1_555 1_555
C49A C51A 1_555 1_555
C50A C41A 1_555 1_555
H30A C50A 1_555 1_555
C51A C48A 1_555 1_555
H31A C51A 1_555 1_555
C52A C40A 1_555 1_555
H32A C52A 1_555 1_555
C53A C42A 1_555 1_555
C54A C40A 1_555 1_555
C55A C53A 1_555 1_555
C56A C54A 1_555 1_555
O1A C2A 1_555 1_555
O3A C22A 1_555 1_555
O5A C17A 1_555 1_555
O7A C30A 1_555 1_555
O9A C44A 1_555 1_555
O10A C22A 1_555 1_555
O11A Cd1A 1_555 1_555
O13A Cd1A 1_555 1_555
O14A C17A 1_555 1_555
O15A Cd1A 1_555 1_555
O16A Cd2 1_555 1_555
O17A Cd1A 1_555 1_555
O18A C55A 1_555 1_555
O19A C46A 1_555 1_555
O20A C45A 1_555 1_555
Cd4A O2A 1_555 1_555
C1A H1A 1_555 1_555
C4A C1A 1_555 1_555
H3A C4A 1_555 1_555
C10A C4A 1_555 1_555
C12A H9A 1_555 1_555
C13A C10A 1_555 1_555
H10A C13A 1_555 1_555
C14A C1A 1_555 1_555
C20A C12A 1_555 1_555
H14A C20A 1_555 1_555
C23A C12A 1_555 1_555
C25A H17A 1_555 1_555
C26A C14A 1_555 1_555
C28A C20A 1_555 1_555
C31A C28A 1_555 1_555
C32A C23A 1_555 1_555
H18A C32A 1_555 1_555
C35A C13A 1_555 1_555
H20A C35A 1_555 1_555
O2A C26A 1_555 1_555
O4A C10A 1_555 1_555
O6A C31A 1_555 1_555
O8A Cd3 1_555 1_555
O12A Cd4A 1_555 1_555
Cd1_2 O16 1_555 1_555
Cd1A_2 O16A 1_555 1_555
Cd2_2 O16 1_555 1_555
Cd3_2 O14A 1_555 1_555
Cd3_3 O10 1_555 1_555
Cd3_4 O10A 1_555 1_555
Cd4_2 O3A 1_555 1_555
Cd4_3 O5 1_555 1_555
Cd4A_2 O5A 1_555 1_555
Cd4A_3 O3 1_555 1_555
Cd4A_4 O6A 1_555 1_555
O3_2 Cd4A 1_555 1_555
O3A_2 Cd4 1_555 1_555
O5_2 Cd4 1_555 1_555
O5A_2 Cd4A 1_555 1_555
O6_2 Cd4 1_555 1_555
O6A_2 Cd4A 1_555 1_555
O8_2 Cd4 1_555 1_555
O8A_2 Cd4A 1_555 1_555
O10_2 Cd4A 1_555 1_555
O10_3 Cd3 1_555 1_555
O10A_2 Cd3 1_555 1_555
O10A_3 Cd4 1_555 1_555
O14A_2 Cd3 1_555 1_555
O15A_2 Cd2 1_555 1_555
O16_2 Cd1 1_555 1_555
O16A_2 Cd1A 1_555 1_555
O18_2 Cd1 1_555 1_555
O18A_2 Cd1A 1_555 1_555
O20A_2 Cd2 1_555 1_555
Cd2 O16_2 1_555 1_555
C6 C7 1_555 1_555
C7 O1 1_555 1_555
C11 C15 1_555 1_555
C14 C35 1_555 1_555
C17 O14 1_555 1_555
C23 O4 1_555 1_555
C24 C27 1_555 1_555
C25 C28 1_555 1_555
C25 C32 1_555 1_555
C26 O12 1_555 1_555
C33 C36 1_555 1_555
C34 O7 1_555 1_555
C41 C46 1_555 1_555
C43 C47 1_555 1_555
C44 O15 1_555 1_555
C45 O13 1_555 1_555
C45 O20 1_555 1_555
C48 C54 1_555 1_555
C49 C52 1_555 1_555
C49 O19 1_555 1_555
C50 C53 1_555 1_555
C56 O11 1_555 1_555
C56 O17 1_555 1_555
O6 Cd4_3 1_555 1_555
O8 Cd4_3 1_555 1_555
O10 Cd4A_3 1_555 1_555
O18 Cd1_2 1_555 1_555
C68 N1 1_555 1_555
C69 C70 1_555 1_555
C69 N1 1_555 1_555
C71 N1 1_555 1_555
C6A C7A 1_555 1_555
C7A O1A 1_555 1_555
C11A C15A 1_555 1_555
C24A C27A 1_555 1_555
C33A C36A 1_555 1_555
C34A O7A 1_555 1_555
C41A C46A 1_555 1_555
C43A C47A 1_555 1_555
C44A O15A 1_555 1_555
C45A O13A 1_555 1_555
C48A C54A 1_555 1_555
C49A C52A 1_555 1_555
C49A O19A 1_555 1_555
C50A C53A 1_555 1_555
C55A O16A 1_555 1_555
C56A O11A 1_555 1_555
C56A O17A 1_555 1_555
O10A Cd4_2 1_555 1_555
O15A Cd2_2 1_555 1_555
O18A Cd1A_2 1_555 1_555
O20A Cd2_2 1_555 1_555
C14A C35A 1_555 1_555
C23A O4A 1_555 1_555
C25A C28A 1_555 1_555
C25A C32A 1_555 1_555
C26A O12A 1_555 1_555
C31A O8A 1_555 1_555
O8A Cd4A_4 1_555 1_555
Cd1A_2 O15A_2 1_555 1_555
Cd2_2 O16A_2 1_555 1_555
Cd4_3 O10A_2 1_555 1_555
Cd4A_4 O10_3 1_555 1_555

#END
