
#######################################################################
#
#                 Cambridge Crystallographic Data Centre
#                                CCDC 
#
#######################################################################
#
# If this CIF has been generated from an entry in the Cambridge 
# Structural Database, then it will include bibliographic, chemical, 
# crystal, experimental, refinement or atomic coordinate data resulting 
# from the CCDC's data processing and validation procedures.
#
#######################################################################

data_YILROB
_symmetry_cell_setting           monoclinic
_symmetry_space_group_name_H-M   'P 21'
_symmetry_Int_Tables_number      4
_space_group_name_Hall           'P 2yb'
loop_
_symmetry_equiv_pos_site_id
_symmetry_equiv_pos_as_xyz
1 x,y,z
2 -x,1/2+y,-z
_cell_length_a                   9.8818(11)
_cell_length_b                   13.5064(15)
_cell_length_c                   12.5856(15)
_cell_angle_alpha                90
_cell_angle_beta                 91.8462(4)
_cell_angle_gamma                90
_cell_volume                     1678.9
loop_
_atom_site_label
_atom_site_type_symbol
_atom_site_fract_x
_atom_site_fract_y
_atom_site_fract_z
Cu1 Cu 0.61866(3) 0.41066(2) 0.62648(2)
Cl1 Cl 0.54268(7) 0.25384(5) 0.63446(6)
O1 O 0.40355(19) 0.49987(15) 0.65292(15)
O2 O 0.1714(2) 0.43992(14) 0.53132(14)
O3 O 0.03971(18) 0.26867(15) 0.61808(15)
O4 O 0.0255(2) 0.26777(16) 0.83764(16)
O5 O 0.32559(17) 0.42131(17) 0.79856(13)
O6 O 0.3578(2) 0.26443(19) 0.94112(16)
O7 O 0.2251(2) 0.30767(18) 0.43215(17)
O8 O -0.1408(2) 0.36456(18) 0.5861(2)
O9 O 0.1017(3) 0.1113(2) 0.8369(2)
O10 O 0.3788(2) 0.2347(2) 1.11503(17)
N1 N 0.6865(2) 0.55405(18) 0.61949(19)
N2 N 0.6002(2) 0.43032(18) 0.46979(18)
N3 N 0.6757(2) 0.42422(19) 0.77953(18)
C1 C 0.2858(2) 0.4668(2) 0.7001(2)
C2 C 0.2201(2) 0.3900(2) 0.6266(2)
C3 C 0.1007(2) 0.3458(2) 0.6820(2)
C4 C 0.1456(2) 0.3020(2) 0.7886(2)
C5 C 0.2131(2) 0.3832(2) 0.8552(2)
C6 C 0.2678(3) 0.3465(2) 0.9617(2)
C7 C 0.4585(3) 0.5900(2) 0.6975(2)
C8 C 0.5672(3) 0.6230(2) 0.6245(2)
C9 C 0.7499(3) 0.5661(2) 0.5158(2)
C10 C 0.6697(3) 0.5078(2) 0.4334(2)
C11 C 0.6721(4) 0.5288(2) 0.3261(3)
C12 C 0.6033(5) 0.4686(3) 0.2554(3)
C13 C 0.5290(4) 0.3896(2) 0.2928(2)
C14 C 0.5301(3) 0.3727(2) 0.4018(2)
C15 C 0.7839(3) 0.5708(2) 0.7097(2)
C16 C 0.7561(2) 0.5022(2) 0.8007(2)
C17 C 0.8157(3) 0.5171(2) 0.9019(2)
C18 C 0.7873(3) 0.4512(2) 0.9812(2)
C19 C 0.7017(3) 0.3739(2) 0.9603(2)
C20 C 0.6460(3) 0.3627(2) 0.8582(2)
C21 C 0.1793(3) 0.3890(2) 0.4377(2)
C22 C 0.1252(5) 0.4483(3) 0.3462(2)
C23 C -0.0826(2) 0.2877(2) 0.5740(2)
C24 C -0.1350(3) 0.2028(2) 0.5092(2)
C25 C 0.0117(3) 0.1690(2) 0.8512(2)
C26 C -0.1274(3) 0.1414(3) 0.8798(3)
C27 C 0.4065(3) 0.2139(2) 1.0255(2)
C28 C 0.4980(3) 0.1331(2) 0.9940(2)
H1 H 0.226(2) 0.524(2) 0.706(2)
H2 H 0.290(2) 0.338(2) 0.605(2)
H3 H 0.032(2) 0.400(2) 0.692(2)
H4 H 0.208(2) 0.243(2) 0.789(2)
H5 H 0.137(3) 0.432(2) 0.862(2)
H6 H 0.202(4) 0.323(3) 1.012(3)
H7 H 0.327(3) 0.401(3) 1.005(2)
H8 H 0.390(2) 0.633(2) 0.699(2)
H9 H 0.488(3) 0.583(2) 0.767(2)
H10 H 0.532(3) 0.630(2) 0.558(2)
H11 H 0.609(3) 0.681(3) 0.645(2)
H12 H 0.838(3) 0.539(2) 0.521(2)
H13 H 0.747(3) 0.647(3) 0.495(2)
H14 H 0.720(4) 0.577(3) 0.304(3)
H15 H 0.593(4) 0.493(4) 0.187(4)
H16 H 0.473(3) 0.356(2) 0.247(2)
H17 H 0.495(2) 0.313(2) 0.427(2)
H18 H 0.787(3) 0.640(2) 0.730(2)
H19 H 0.878(2) 0.554(2) 0.679(2)
H20 H 0.871(3) 0.570(2) 0.907(2)
H21 H 0.847(3) 0.455(3) 1.058(3)
H22 H 0.686(3) 0.334(2) 1.008(2)
H23 H 0.593(3) 0.326(2) 0.832(2)
H24 H 0.0281 0.4354 0.3359
H25 H 0.1722 0.4296 0.2818
H26 H 0.1396 0.5189 0.3607
H27 H -0.1061 0.2100 0.4358
H28 H -0.2342 0.2020 0.5100
H29 H -0.0993 0.1407 0.5390
H30 H -0.1341 0.1421 0.9573
H31 H -0.1483 0.0749 0.8528
H32 H -0.1919 0.1890 0.8482
H33 H 0.4454 0.0723 0.9820
H34 H 0.5665 0.1218 1.0508
H35 H 0.5426 0.1515 0.9285
Cu1_2 Cu -0.38134(3) 0.41066(2) 0.62648(2)
O8_2 O 0.8592(2) 0.36456(18) 0.5861(2)
Cl2 Cl 0.10786(9) 0.72265(7) 0.81847(7)
O11 O 0.0139(3) 0.7512(3) 0.8937(2)
O12 O 0.0621(3) 0.6595(4) 0.7409(3)
O13 O 0.2242(4) 0.6866(6) 0.8650(3)
O14 O 0.1535(8) 0.8050(4) 0.7705(6)
loop_
_geom_bond_atom_site_label_1
_geom_bond_atom_site_label_2
_geom_bond_site_symmetry_1
_geom_bond_site_symmetry_2
Cu1 Cl1 1_555 1_555
Cl2 O11 1_555 1_555
O1 Cu1 1_555 1_555
O2 C2 1_555 1_555
O3 C3 1_555 1_555
O4 C4 1_555 1_555
O5 C1 1_555 1_555
O6 C6 1_555 1_555
O7 C21 1_555 1_555
O8 C23 1_555 1_555
O9 C25 1_555 1_555
O10 C27 1_555 1_555
O12 Cl2 1_555 1_555
O13 Cl2 1_555 1_555
O14 Cl2 1_555 1_555
N1 Cu1 1_555 1_555
N2 Cu1 1_555 1_555
N3 Cu1 1_555 1_555
C1 O1 1_555 1_555
C2 C1 1_555 1_555
C3 C2 1_555 1_555
C4 C3 1_555 1_555
C5 O5 1_555 1_555
C6 C5 1_555 1_555
C7 O1 1_555 1_555
C8 N1 1_555 1_555
C9 N1 1_555 1_555
C10 N2 1_555 1_555
C11 C10 1_555 1_555
C12 C11 1_555 1_555
C13 C12 1_555 1_555
C14 N2 1_555 1_555
C15 N1 1_555 1_555
C16 N3 1_555 1_555
C17 C16 1_555 1_555
C18 C17 1_555 1_555
C19 C18 1_555 1_555
C20 N3 1_555 1_555
C21 O2 1_555 1_555
C22 C21 1_555 1_555
C23 O3 1_555 1_555
C24 C23 1_555 1_555
C25 O4 1_555 1_555
C26 C25 1_555 1_555
C27 O6 1_555 1_555
C28 C27 1_555 1_555
H1 C1 1_555 1_555
H2 C2 1_555 1_555
H3 C3 1_555 1_555
H4 C4 1_555 1_555
H5 C5 1_555 1_555
H6 C6 1_555 1_555
H7 C6 1_555 1_555
H8 C7 1_555 1_555
H9 C7 1_555 1_555
H10 C8 1_555 1_555
H11 C8 1_555 1_555
H12 C9 1_555 1_555
H13 C9 1_555 1_555
H14 C11 1_555 1_555
H15 C12 1_555 1_555
H16 C13 1_555 1_555
H17 C14 1_555 1_555
H18 C15 1_555 1_555
H19 C15 1_555 1_555
H20 C17 1_555 1_555
H21 C18 1_555 1_555
H22 C19 1_555 1_555
H23 C20 1_555 1_555
H24 C22 1_555 1_555
H25 C22 1_555 1_555
H26 C22 1_555 1_555
H27 C24 1_555 1_555
H28 C24 1_555 1_555
H29 C24 1_555 1_555
H30 C26 1_555 1_555
H31 C26 1_555 1_555
H32 C26 1_555 1_555
H33 C28 1_555 1_555
H34 C28 1_555 1_555
H35 C28 1_555 1_555
Cu1_2 O8 1_555 1_555
O8_2 Cu1 1_555 1_555
C4 C5 1_555 1_555
C7 C8 1_555 1_555
C9 C10 1_555 1_555
C13 C14 1_555 1_555
C15 C16 1_555 1_555
C19 C20 1_555 1_555

#END
