
#######################################################################
#
#                 Cambridge Crystallographic Data Centre
#                                CCDC 
#
#######################################################################
#
# If this CIF has been generated from an entry in the Cambridge 
# Structural Database, then it will include bibliographic, chemical, 
# crystal, experimental, refinement or atomic coordinate data resulting 
# from the CCDC's data processing and validation procedures.
#
#######################################################################

data_YILVOF
_symmetry_cell_setting           orthorhombic
_symmetry_space_group_name_H-M   'P b c a'
_symmetry_Int_Tables_number      61
_space_group_name_Hall           '-P 2ac 2ab'
loop_
_symmetry_equiv_pos_site_id
_symmetry_equiv_pos_as_xyz
1 x,y,z
2 1/2-x,-y,1/2+z
3 -x,1/2+y,1/2-z
4 1/2+x,1/2-y,-z
5 -x,-y,-z
6 1/2+x,y,1/2-z
7 x,1/2-y,1/2+z
8 1/2-x,1/2+y,z
_cell_length_a                   10.2286(10)
_cell_length_b                   13.3919(13)
_cell_length_c                   23.779(2)
_cell_angle_alpha                90
_cell_angle_beta                 90
_cell_angle_gamma                90
_cell_volume                     3257.26
loop_
_atom_site_label
_atom_site_type_symbol
_atom_site_fract_x
_atom_site_fract_y
_atom_site_fract_z
Ni1 Ni 0.90927(3) 0.68445(2) 0.923081(14)
Cl1 Cl 1.11702(6) 0.62657(5) 0.95754(3)
N1 N 1.1357(2) 1.31600(15) 0.82115(9)
H1 H 1.1569 1.3766 0.8134
N2 N 0.9754(2) 0.82505(15) 0.89546(9)
O1 O 0.77591(17) 1.20940(13) 0.88987(8)
O2 O 0.90962(18) 1.14780(16) 0.95599(8)
O3 O 1.1914(2) 1.03102(15) 0.73438(8)
O4 O 1.33131(18) 1.01555(13) 0.80533(8)
O5 O 0.82570(18) 0.55183(13) 0.95202(8)
H2 H 0.7484 0.5669 0.9620
H3 H 0.8559 0.5165 0.9788
O6 O 0.86788(18) 0.74929(14) 1.00093(8)
H4 H 0.7971 0.7807 1.0071
H5 H 0.9281 0.7874 1.0131
O7 O 0.95663(18) 0.63206(14) 0.84365(8)
H6 H 1.0269 0.5988 0.8402
H7 H 0.9034 0.6056 0.8206
C1 C 1.0355(2) 1.30117(18) 0.85709(11)
C2 C 1.0007(2) 1.20432(18) 0.87046(10)
C3 C 1.0726(2) 1.12498(18) 0.84793(10)
C4 C 1.1726(2) 1.14422(18) 0.80944(10)
C5 C 1.2049(2) 1.24192(18) 0.79657(10)
C6 C 0.9707(3) 1.3917(2) 0.88097(14)
H8 H 1.0107 1.4506 0.8657
H9 H 0.8795 1.3910 0.8714
H10 H 0.9802 1.3917 0.9211
C7 C 0.8858(2) 1.18567(17) 0.90929(11)
C8 C 1.2383(2) 1.05683(18) 0.78012(10)
C9 C 1.3143(3) 1.2706(2) 0.75797(13)
H11 H 1.3185 1.3421 0.7551
H12 H 1.3954 1.2457 0.7726
H13 H 1.2990 1.2426 0.7214
C10 C 1.0848(3) 0.8685(2) 0.91339(12)
H14 H 1.1397 0.8324 0.9370
C11 C 1.1209(3) 0.9645(2) 0.89870(12)
H15 H 1.1986 0.9916 0.9121
C12 C 1.0404(2) 1.01990(18) 0.86398(10)
C13 C 0.9283(3) 0.9748(2) 0.84456(14)
H16 H 0.8722 1.0089 0.8206
C14 C 0.9000(3) 0.8786(2) 0.86091(14)
H17 H 0.8242 0.8492 0.8471
Ni1G Ni 0.59073(3) 1.18445(2) 0.923081(14)
O1G O 0.72409(17) 0.70940(13) 0.88987(8)
loop_
_geom_bond_atom_site_label_1
_geom_bond_atom_site_label_2
_geom_bond_site_symmetry_1
_geom_bond_site_symmetry_2
Ni1 Cl1 1_555 1_555
N1 H1 1_555 1_555
N2 Ni1 1_555 1_555
O1 C7 1_555 1_555
O2 C7 1_555 1_555
O3 C8 1_555 1_555
O4 C8 1_555 1_555
O5 Ni1 1_555 1_555
H2 O5 1_555 1_555
H3 O5 1_555 1_555
O6 Ni1 1_555 1_555
H4 O6 1_555 1_555
H5 O6 1_555 1_555
O7 Ni1 1_555 1_555
H6 O7 1_555 1_555
H7 O7 1_555 1_555
C1 N1 1_555 1_555
C2 C1 1_555 1_555
C3 C2 1_555 1_555
C4 C3 1_555 1_555
C5 N1 1_555 1_555
C6 C1 1_555 1_555
H8 C6 1_555 1_555
H9 C6 1_555 1_555
H10 C6 1_555 1_555
C7 C2 1_555 1_555
C8 C4 1_555 1_555
C9 C5 1_555 1_555
H11 C9 1_555 1_555
H12 C9 1_555 1_555
H13 C9 1_555 1_555
C10 N2 1_555 1_555
H14 C10 1_555 1_555
C11 C10 1_555 1_555
H15 C11 1_555 1_555
C12 C3 1_555 1_555
C13 C12 1_555 1_555
H16 C13 1_555 1_555
C14 N2 1_555 1_555
H17 C14 1_555 1_555
Ni1G O1 1_555 1_555
O1G Ni1 1_555 1_555
C4 C5 1_555 1_555
C11 C12 1_555 1_555
C13 C14 1_555 1_555

#END
