
#######################################################################
#
#                 Cambridge Crystallographic Data Centre
#                                CCDC 
#
#######################################################################
#
# If this CIF has been generated from an entry in the Cambridge 
# Structural Database, then it will include bibliographic, chemical, 
# crystal, experimental, refinement or atomic coordinate data resulting 
# from the CCDC's data processing and validation procedures.
#
#######################################################################

data_YILVAR
_symmetry_cell_setting           monoclinic
_symmetry_space_group_name_H-M   'P 21/c'
_symmetry_Int_Tables_number      14
_space_group_name_Hall           '-P 2ybc'
loop_
_symmetry_equiv_pos_site_id
_symmetry_equiv_pos_as_xyz
1 x,y,z
2 -x,1/2+y,1/2-z
3 -x,-y,-z
4 x,1/2-y,1/2+z
_cell_length_a                   12.044(2)
_cell_length_b                   10.4234(14)
_cell_length_c                   15.367(2)
_cell_angle_alpha                90
_cell_angle_beta                 95.288(8)
_cell_angle_gamma                90
_cell_volume                     1920.95
loop_
_atom_site_label
_atom_site_type_symbol
_atom_site_fract_x
_atom_site_fract_y
_atom_site_fract_z
Hg1 Hg 0.77478(6) 0.56269(6) 0.10506(4)
Mn1 Mn 0.4576(2) 0.5690(2) 0.39282(14)
S1 S 0.5651(4) 0.5021(5) 0.0979(2)
S2 S 0.7956(4) 0.6630(5) -0.0434(3)
S3 S 0.8076(4) 0.7270(5) 0.2255(3)
S4 S 0.8743(4) 0.3502(5) 0.1334(4)
O1 O 0.1170(16) 0.9253(15) 0.7168(10)
O2 O 0.0210(12) 0.8876(17) 0.5988(11)
O3 O 0.4210(10) 0.5584(11) 0.5326(6)
N1 N 0.1020(14) 0.8703(15) 0.6512(10)
N2 N 0.3455(12) 0.6297(14) 0.5680(7)
N3 N 0.5341(14) 0.5281(16) 0.2733(9)
N4 N 0.5863(14) 0.7794(15) -0.0760(9)
N5 N 0.6595(15) 0.9054(17) 0.1449(9)
N6 N 0.6832(14) 0.1984(14) 0.1334(9)
C1 C 0.1878(14) 0.7797(17) 0.6259(9)
C2 C 0.1584(15) 0.6561(18) 0.6009(10)
C3 C 0.2420(16) 0.5847(17) 0.5718(11)
H1 H 0.2266 0.5008 0.5539
C4 C 0.3730(15) 0.7483(18) 0.5929(12)
H2 H 0.4445 0.7800 0.5889
C5 C 0.2901(16) 0.824(2) 0.6257(12)
H3 H 0.3074 0.9054 0.6474
C6 C 0.043(2) 0.598(2) 0.6085(18)
H4 H 0.0125 0.6330 0.6590
H5 H 0.0493 0.5070 0.6140
H6 H -0.0051 0.6193 0.5571
C7 C 0.5494(14) 0.5193(17) 0.2016(9)
C8 C 0.6709(16) 0.7308(16) -0.0619(9)
C9 C 0.7193(18) 0.8326(17) 0.1772(10)
C10 C 0.7634(16) 0.2592(15) 0.1335(10)
Mn1B Mn 0.5424(2) 0.4310(2) 0.60718(14)
Mn1C Mn 0.4576(2) 0.9310(2) -0.10718(14)
Mn1A Mn 0.5424(2) 1.0690(2) 0.10718(14)
Mn1A_2 Mn 0.5424(2) 0.0690(2) 0.10718(14)
O3B O 0.5790(10) 0.4416(11) 0.4674(6)
N4C N 0.5863(14) 0.7206(15) 0.4240(9)
N5A N 0.3405(15) 0.4054(17) 0.3551(9)
N6A N 0.3168(14) 0.6984(14) 0.3666(9)
loop_
_geom_bond_atom_site_label_1
_geom_bond_atom_site_label_2
_geom_bond_site_symmetry_1
_geom_bond_site_symmetry_2
Hg1 S1 1_555 1_555
Mn1 O3 1_555 1_555
S1 C7 1_555 1_555
S2 Hg1 1_555 1_555
S3 Hg1 1_555 1_555
S4 Hg1 1_555 1_555
O1 N1 1_555 1_555
O2 N1 1_555 1_555
O3 N2 1_555 1_555
N1 C1 1_555 1_555
N2 C3 1_555 1_555
N3 Mn1 1_555 1_555
N4 C8 1_555 1_555
N5 C9 1_555 1_555
N6 C10 1_555 1_555
C1 C2 1_555 1_555
C2 C3 1_555 1_555
C3 H1 1_555 1_555
C4 N2 1_555 1_555
H2 C4 1_555 1_555
C5 C1 1_555 1_555
H3 C5 1_555 1_555
C6 C2 1_555 1_555
H4 C6 1_555 1_555
H5 C6 1_555 1_555
H6 C6 1_555 1_555
C7 N3 1_555 1_555
C8 S2 1_555 1_555
C9 S3 1_555 1_555
C10 S4 1_555 1_555
Mn1B O3 1_555 1_555
Mn1C N4 1_555 1_555
Mn1A N5 1_555 1_555
Mn1A_2 N6 1_555 1_555
O3B Mn1 1_555 1_555
N4C Mn1 1_555 1_555
N5A Mn1 1_555 1_555
N6A Mn1 1_555 1_555
C4 C5 1_555 1_555
Mn1B O3B 1_555 1_555

#END
