
#######################################################################
#
#                 Cambridge Crystallographic Data Centre
#                                CCDC 
#
#######################################################################
#
# If this CIF has been generated from an entry in the Cambridge 
# Structural Database, then it will include bibliographic, chemical, 
# crystal, experimental, refinement or atomic coordinate data resulting 
# from the CCDC's data processing and validation procedures.
#
#######################################################################

data_YILXUM
_symmetry_cell_setting           monoclinic
_symmetry_space_group_name_H-M   'P 21/c'
_symmetry_Int_Tables_number      14
_space_group_name_Hall           '-P 2ybc'
loop_
_symmetry_equiv_pos_site_id
_symmetry_equiv_pos_as_xyz
1 x,y,z
2 -x,1/2+y,1/2-z
3 -x,-y,-z
4 x,1/2-y,1/2+z
_cell_length_a                   8.0282
_cell_length_b                   17.1568
_cell_length_c                   7.6113
_cell_angle_alpha                90
_cell_angle_beta                 94.269
_cell_angle_gamma                90
_cell_volume                     1045.46
loop_
_atom_site_label
_atom_site_type_symbol
_atom_site_fract_x
_atom_site_fract_y
_atom_site_fract_z
V1 V 0.31422(3) 0.07175(1) 0.08999(3)
Ca1 Ca 0.09314(3) 0.10972(2) -0.47965(3)
O1 O 0.65701(16) 0.23077(7) -0.01234(20)
O2 O 0.07069(14) -0.01998(6) -0.33810(14)
O3 O 0.42329(13) 0.16117(7) -0.01921(15)
O4 O 0.17461(14) 0.06307(6) -0.13915(15)
O5 O 0.53180(13) 0.05830(6) 0.20412(15)
O6 O 0.27346(14) -0.03842(6) 0.09141(12)
O7 O 0.20037(15) 0.11383(7) 0.22950(16)
O8 O 0.38264(18) 0.06836(9) -0.44485(20)
O9 O 0.22744(15) 0.21387(7) -0.31163(16)
O10 O -0.02868(17) 0.22459(8) -0.60957(20)
O11 O -0.16406(16) 0.13000(8) -0.34582(18)
C1 C 0.57806(17) 0.17462(9) 0.03530(20)
C2 C 0.65409(17) 0.11288(8) 0.16161(18)
C3 C 0.20727(18) -0.07102(8) -0.06818(19)
C4 C 0.14212(17) -0.00671(8) -0.19111(18)
H1 H 0.44915 0.06916 -0.55035
H2 H 0.43707 0.03338 -0.35131
H3 H 0.25631 0.26079 -0.38121
H4 H 0.30687 0.19638 -0.21166
H5 H -0.12451 0.25928 -0.58926
H6 H 0.04025 0.25332 -0.69150
H7 H -0.21675 0.10000 -0.25247
H8 H -0.25427 0.16762 -0.38038
H9 H 0.69976 0.13432 0.27721
H10 H 0.11144 -0.10657 -0.05076
O2B O -0.07069(14) 0.01998(6) -0.66190(14)
O7_2 O 0.20037(15) 0.11383(7) -0.77050(16)
Ca1B Ca -0.09314(3) -0.10972(2) -0.52035(3)
Ca1_2 Ca 0.09314(3) 0.10972(2) 0.52035(3)
C3B C 0.79273(18) 0.07102(8) 0.06818(19)
C2B C 0.34591(17) -0.11288(8) -0.16161(18)
O6B O 0.72654(14) 0.03842(6) -0.09141(12)
C4B C 0.85788(17) 0.00671(8) 0.19111(18)
H10B H 0.88856 0.10657 0.05076
O5B O 0.46820(13) -0.05830(6) -0.20412(15)
C1B C 0.42194(17) -0.17462(9) -0.03530(20)
H9B H 0.30024 -0.13432 -0.27721
V1B V 0.68578(3) -0.07175(1) -0.08999(3)
O1B O 0.34299(16) -0.23077(7) 0.01234(20)
O3B O 0.57671(13) -0.16117(7) 0.01921(15)
O2B_2 O 0.92931(14) 0.01998(6) 0.33810(14)
O4B O 0.82539(14) -0.06307(6) 0.13915(15)
Ca1_3 Ca 1.09314(3) 0.10972(2) 0.52035(3)
Ca1B_2 Ca 0.90686(3) -0.10972(2) 0.47965(3)
O2_2 O 1.07069(14) -0.01998(6) 0.66190(14)
O7B O 0.79963(15) -0.11383(7) 0.77050(16)
O8B O 0.61736(18) -0.06836(9) 0.44485(20)
O9B O 0.77256(15) -0.21387(7) 0.31163(16)
O10B O 1.02868(17) -0.22459(8) 0.60957(20)
O11B O 1.16406(16) -0.13000(8) 0.34582(18)
H7B H 1.21675 -0.10000 0.25247
H8B H 1.25427 -0.16762 0.38038
H5B H 1.12451 -0.25928 0.58926
H6B H 0.95975 -0.25332 0.69150
H3B H 0.74369 -0.26079 0.38121
H4B H 0.69313 -0.19638 0.21166
H1B H 0.55085 -0.06916 0.55035
H2B H 0.56293 -0.03338 0.35131
O7B_2 O 0.79963(15) -0.11383(7) -0.22950(16)
Ca1B_3 Ca 0.90686(3) -0.10972(2) -0.52035(3)
loop_
_geom_bond_atom_site_label_1
_geom_bond_atom_site_label_2
_geom_bond_site_symmetry_1
_geom_bond_site_symmetry_2
V1 O3 1_555 1_555
Ca1 O2 1_555 1_555
O1 C1 1_555 1_555
O2 C4 1_555 1_555
O3 C1 1_555 1_555
O4 V1 1_555 1_555
O5 V1 1_555 1_555
O6 V1 1_555 1_555
O7 V1 1_555 1_555
O8 Ca1 1_555 1_555
O9 Ca1 1_555 1_555
O10 Ca1 1_555 1_555
O11 Ca1 1_555 1_555
C1 C2 1_555 1_555
C2 O5 1_555 1_555
C3 O6 1_555 1_555
C4 O4 1_555 1_555
H1 O8 1_555 1_555
H2 O8 1_555 1_555
H3 O9 1_555 1_555
H4 O9 1_555 1_555
H5 O10 1_555 1_555
H6 O10 1_555 1_555
H7 O11 1_555 1_555
H8 O11 1_555 1_555
H9 C2 1_555 1_555
H10 C3 1_555 1_555
O2B Ca1 1_555 1_555
O7_2 Ca1 1_555 1_555
Ca1B O2 1_555 1_555
Ca1_2 O7 1_555 1_555
C3B C2 1_555 1_555
C2B C3 1_555 1_555
O6B C3B 1_555 1_555
C4B C3B 1_555 1_555
H10B C3B 1_555 1_555
O5B C2B 1_555 1_555
C1B C2B 1_555 1_555
H9B C2B 1_555 1_555
V1B O6B 1_555 1_555
O1B C1B 1_555 1_555
O3B C1B 1_555 1_555
O2B_2 C4B 1_555 1_555
O4B C4B 1_555 1_555
Ca1_3 O2B_2 1_555 1_555
Ca1B_2 O2B_2 1_555 1_555
O2_2 Ca1_3 1_555 1_555
O7B Ca1B_2 1_555 1_555
O8B Ca1B_2 1_555 1_555
O9B Ca1B_2 1_555 1_555
O10B Ca1B_2 1_555 1_555
O11B Ca1B_2 1_555 1_555
H7B O11B 1_555 1_555
H8B O11B 1_555 1_555
H5B O10B 1_555 1_555
H6B O10B 1_555 1_555
H3B O9B 1_555 1_555
H4B O9B 1_555 1_555
H1B O8B 1_555 1_555
H2B O8B 1_555 1_555
O7B_2 V1B 1_555 1_555
Ca1B_3 O7B_2 1_555 1_555
Ca1 O4 1_555 1_555
C3 C4 1_555 1_555
O2B Ca1B 1_555 1_555
O5B V1B 1_555 1_555
V1B O3B 1_555 1_555
V1B O4B 1_555 1_555
O4B Ca1B_2 1_555 1_555
Ca1B_2 O2_2 1_555 1_555

#END
