
#######################################################################
#
#                 Cambridge Crystallographic Data Centre
#                                CCDC 
#
#######################################################################
#
# If this CIF has been generated from an entry in the Cambridge 
# Structural Database, then it will include bibliographic, chemical, 
# crystal, experimental, refinement or atomic coordinate data resulting 
# from the CCDC's data processing and validation procedures.
#
#######################################################################

data_YIMDON
_symmetry_cell_setting           orthorhombic
_symmetry_space_group_name_H-M   'P b c a'
_symmetry_Int_Tables_number      61
_space_group_name_Hall           '-P 2ac 2ab'
loop_
_symmetry_equiv_pos_site_id
_symmetry_equiv_pos_as_xyz
1 x,y,z
2 1/2-x,-y,1/2+z
3 1/2+x,1/2-y,-z
4 -x,1/2+y,1/2-z
5 -x,-y,-z
6 1/2+x,y,1/2-z
7 1/2-x,1/2+y,z
8 x,1/2-y,1/2+z
_cell_length_a                   18.540
_cell_length_b                   13.7243
_cell_length_c                   15.2431
_cell_angle_alpha                90
_cell_angle_beta                 90
_cell_angle_gamma                90
_cell_volume                     3878.58
loop_
_atom_site_label
_atom_site_type_symbol
_atom_site_fract_x
_atom_site_fract_y
_atom_site_fract_z
Sn1 Sn 0.16532(3) 0.16712(4) 0.18178(3)
Cl1 Cl 0.1700(2) 0.3085(2) 0.2798(1)
Cl2 Cl 0.0710(1) 0.2249(2) 0.0819(2)
C1 C 0.0977(4) 0.0782(6) 0.2613(5)
C2 C 0.0547(4) 0.1217(7) 0.3255(6)
C3 C 0.0133(5) 0.0656(9) 0.3821(6)
C4 C 0.0134(5) -0.0326(8) 0.3746(6)
C5 C 0.0545(5) -0.0774(8) 0.3129(6)
C6 C 0.0972(5) -0.0213(6) 0.2561(6)
C7 C 0.2557(4) 0.2118(6) 0.1036(5)
C8 C 0.3191(5) 0.2428(6) 0.1427(6)
C9 C 0.3789(5) 0.2651(6) 0.0902(7)
C10 C 0.3756(5) 0.2535(7) 0.0008(6)
C11 C 0.3125(5) 0.2269(6) -0.0382(6)
C12 C 0.2512(5) 0.2065(6) 0.0125(5)
O1 O 0.2370(3) -0.0942(5) -0.2300(3)
O2 O 0.1715(3) 0.0239(4) 0.0951(3)
N1 N 0.1531(3) -0.0431(4) -0.1334(4)
N2 N 0.2554(3) -0.0312(5) 0.0013(4)
C13 C 0.1334(4) -0.0022(7) -0.0491(6)
C14 C 0.1895(4) -0.0020(5) 0.0201(5)
C15 C 0.2790(4) -0.0540(7) -0.0883(5)
C16 C 0.2202(4) -0.0646(5) -0.1549(5)
C17 C 0.0952(5) -0.0540(8) -0.1979(6)
C18 C 0.3126(5) -0.0324(7) 0.0678(5)
O1A O 0.2630(3) 0.0942(5) 0.2700(3)
Sn1A Sn 0.33468(3) -0.16712(4) -0.31822(3)
loop_
_geom_bond_atom_site_label_1
_geom_bond_atom_site_label_2
_geom_bond_site_symmetry_1
_geom_bond_site_symmetry_2
Sn1 Cl1 1_555 1_555
Cl2 Sn1 1_555 1_555
C1 Sn1 1_555 1_555
C2 C1 1_555 1_555
C3 C2 1_555 1_555
C4 C3 1_555 1_555
C5 C4 1_555 1_555
C6 C1 1_555 1_555
C7 Sn1 1_555 1_555
C8 C7 1_555 1_555
C9 C8 1_555 1_555
C10 C9 1_555 1_555
C11 C10 1_555 1_555
C12 C7 1_555 1_555
O1 C16 1_555 1_555
O2 Sn1 1_555 1_555
N1 C13 1_555 1_555
N2 C14 1_555 1_555
C13 C14 1_555 1_555
C14 O2 1_555 1_555
C15 N2 1_555 1_555
C16 N1 1_555 1_555
C17 N1 1_555 1_555
C18 N2 1_555 1_555
O1A Sn1 1_555 1_555
Sn1A O1 1_555 1_555
C5 C6 1_555 1_555
C11 C12 1_555 1_555
C15 C16 1_555 1_555

#END
