
#######################################################################
#
#                 Cambridge Crystallographic Data Centre
#                                CCDC 
#
#######################################################################
#
# If this CIF has been generated from an entry in the Cambridge 
# Structural Database, then it will include bibliographic, chemical, 
# crystal, experimental, refinement or atomic coordinate data resulting 
# from the CCDC's data processing and validation procedures.
#
#######################################################################

data_YIMGOS
_symmetry_cell_setting           orthorhombic
_symmetry_space_group_name_H-M   'P 21 21 21'
_symmetry_Int_Tables_number      19
_space_group_name_Hall           'P 2ac 2ab'
loop_
_symmetry_equiv_pos_site_id
_symmetry_equiv_pos_as_xyz
1 x,y,z
2 1/2-x,-y,1/2+z
3 -x,1/2+y,1/2-z
4 1/2+x,1/2-y,-z
_cell_length_a                   5.4522(9)
_cell_length_b                   8.3247(12)
_cell_length_c                   19.760(3)
_cell_angle_alpha                90
_cell_angle_beta                 90
_cell_angle_gamma                90
_cell_volume                     896.865
loop_
_atom_site_label
_atom_site_type_symbol
_atom_site_fract_x
_atom_site_fract_y
_atom_site_fract_z
Pu1 Pu 0.02213(4) 0.76347(3) 0.373552(13)
O1 O -0.2441(10) 0.6526(7) 0.3876(2)
O2 O 0.2913(10) 0.8662(7) 0.3584(3)
O3 O 0.0633(11) 0.6295(6) 0.2665(3)
O4 O 0.1761(11) 0.6833(7) 0.4808(3)
O5 O 0.1877(11) 0.4268(6) 0.2017(3)
O6 O 0.4080(11) 0.5306(6) 0.5473(3)
N1 N 0.2519(11) 0.5056(7) 0.3744(4)
C1 C 0.2821(17) 0.4218(10) 0.3191(4)
C2 C 0.4125(14) 0.2790(10) 0.3173(4)
H1 H 0.4330 0.2217 0.2761
C3 C 0.5116(11) 0.2223(6) 0.3767(3)
H2 H 0.5956 0.1223 0.3774
C4 C 0.4879(16) 0.3135(8) 0.4368(4)
H3 H 0.5633 0.2802 0.4778
C5 C 0.3521(14) 0.4514(10) 0.4336(4)
C6 C 0.1699(18) 0.4973(9) 0.2579(4)
C7 C 0.3090(16) 0.5642(10) 0.4919(4)
Pu1B Pu -0.02213(4) 0.26347(3) 0.126448(13)
Pu1C Pu 0.52213(4) 0.73653(3) 0.626448(13)
O5B O -0.1877(11) 0.9268(6) 0.2983(3)
O6C O -0.0920(11) 0.9694(6) 0.4527(3)
loop_
_geom_bond_atom_site_label_1
_geom_bond_atom_site_label_2
_geom_bond_site_symmetry_1
_geom_bond_site_symmetry_2
Pu1 O1 1_555 1_555
O2 Pu1 1_555 1_555
O3 Pu1 1_555 1_555
O4 Pu1 1_555 1_555
O5 C6 1_555 1_555
O6 C7 1_555 1_555
N1 Pu1 1_555 1_555
C1 N1 1_555 1_555
C2 C1 1_555 1_555
H1 C2 1_555 1_555
C3 C2 1_555 1_555
H2 C3 1_555 1_555
C4 C3 1_555 1_555
H3 C4 1_555 1_555
C5 N1 1_555 1_555
C6 O3 1_555 1_555
C7 O4 1_555 1_555
Pu1B O5 1_555 1_555
Pu1C O6 1_555 1_555
O5B Pu1 1_555 1_555
O6C Pu1 1_555 1_555
C1 C6 1_555 1_555
C4 C5 1_555 1_555
C5 C7 1_555 1_555

#END
