
#######################################################################
#
#                 Cambridge Crystallographic Data Centre
#                                CCDC 
#
#######################################################################
#
# If this CIF has been generated from an entry in the Cambridge 
# Structural Database, then it will include bibliographic, chemical, 
# crystal, experimental, refinement or atomic coordinate data resulting 
# from the CCDC's data processing and validation procedures.
#
#######################################################################

data_YIMHIN
_symmetry_cell_setting           orthorhombic
_symmetry_space_group_name_H-M   'P c a 21'
_symmetry_Int_Tables_number      29
_space_group_name_Hall           'P 2c -2ac'
loop_
_symmetry_equiv_pos_site_id
_symmetry_equiv_pos_as_xyz
1 x,y,z
2 -x,-y,1/2+z
3 1/2-x,y,1/2+z
4 1/2+x,-y,z
_cell_length_a                   21.155(5)
_cell_length_b                   28.507(5)
_cell_length_c                   27.460(5)
_cell_angle_alpha                90
_cell_angle_beta                 90
_cell_angle_gamma                90
_cell_volume                     16560.2
loop_
_atom_site_label
_atom_site_type_symbol
_atom_site_fract_x
_atom_site_fract_y
_atom_site_fract_z
Cu1 Cu 0.69259(8) 0.13216(7) 0.76353(5)
Cu2 Cu 0.19229(8) 0.11072(7) 0.45157(6)
C1 C 0.5740(6) 0.0963(5) 0.7108(5)
H1 H 0.6038 0.0771 0.6959
C2 C 0.5120(6) 0.0915(5) 0.6970(4)
H2 H 0.5004 0.0707 0.6725
C3 C 0.5492(6) 0.1525(5) 0.7663(5)
H3 H 0.5612 0.1737 0.7903
C4 C 0.4873(6) 0.1489(5) 0.7551(4)
H4 H 0.4581 0.1676 0.7713
C5 C 0.4671(6) 0.1188(4) 0.7207(4)
C6 C 0.4006(6) 0.1161(4) 0.7033(4)
C7 C 0.3436(5) 0.1139(4) 0.7296(4)
C8 C 0.3330(5) 0.1081(4) 0.7820(4)
C9 C 0.3767(6) 0.0897(5) 0.8118(4)
H5 H 0.4144 0.0780 0.7993
C10 C 0.3648(6) 0.0885(4) 0.8611(4)
H6 H 0.3949 0.0743 0.8810
C11 C 0.2675(6) 0.1213(5) 0.8524(5)
H7 H 0.2290 0.1310 0.8654
C12 C 0.2754(6) 0.1229(5) 0.8018(4)
H8 H 0.2430 0.1336 0.7818
C13 C 0.3270(6) 0.1159(4) 0.6508(4)
C14 C 0.2945(6) 0.1162(5) 0.6039(4)
C15 C 0.2278(7) 0.1173(6) 0.6006(5)
H9 H 0.2027 0.1181 0.6284
C16 C 0.2012(7) 0.1170(7) 0.5544(5)
H10 H 0.1574 0.1175 0.5519
C17 C 0.2984(6) 0.1163(5) 0.5169(4)
H11 H 0.3224 0.1159 0.4886
C18 C 0.3287(6) 0.1171(5) 0.5610(4)
H12 H 0.3726 0.1182 0.5620
C19 C 0.7719(6) 0.1485(5) 0.3632(4)
H13 H 0.7370 0.1641 0.3504
C20 C 0.7812(6) 0.1492(5) 0.4132(4)
H14 H 0.7532 0.1656 0.4330
C21 C 0.8593(6) 0.1016(5) 0.3534(5)
H15 H 0.8862 0.0847 0.3332
C22 C 0.8700(6) 0.1005(5) 0.4029(4)
H16 H 0.9030 0.0827 0.4155
C23 C 0.8314(6) 0.1259(5) 0.4337(4)
C24 C 0.8446(6) 0.1260(5) 0.4860(4)
C25 C 0.8988(6) 0.1192(4) 0.5120(4)
C26 C 0.9654(6) 0.1158(4) 0.4942(4)
C27 C 0.9930(6) 0.1496(5) 0.4652(5)
H17 H 0.9694 0.1745 0.4530
C28 C 1.0582(7) 0.1455(5) 0.4545(5)
H18 H 1.0766 0.1692 0.4360
C29 C 1.0649(7) 0.0778(6) 0.4965(5)
H19 H 1.0891 0.0525 0.5069
C30 C 1.0030(6) 0.0797(5) 0.5098(5)
H20 H 0.9862 0.0564 0.5296
C31 C 0.8276(6) 0.1286(5) 0.5645(4)
C32 C 0.7969(6) 0.1340(5) 0.6125(5)
C33 C 0.8289(6) 0.1248(5) 0.6536(5)
H21 H 0.8712 0.1163 0.6519
C34 C 0.7995(6) 0.1279(4) 0.6987(4)
H22 H 0.8232 0.1224 0.7266
C35 C 0.7066(7) 0.1488(6) 0.6625(4)
H23 H 0.6646 0.1579 0.6653
C36 C 0.7316(6) 0.1469(5) 0.6167(5)
H24 H 0.7073 0.1538 0.5894
N1 N 0.5942(4) 0.1270(4) 0.7446(3)
N2 N 0.3121(5) 0.1065(4) 0.8828(4)
N3 N 0.2984(5) 0.1150(4) 0.6948(3)
H25 H 0.2583 0.1152 0.6998
N4 N 0.3889(5) 0.1165(4) 0.6539(3)
N5 N 0.2350(5) 0.1162(4) 0.5132(4)
N6 N 0.8109(5) 0.1264(4) 0.3327(4)
N7 N 1.0934(5) 0.1118(4) 0.4683(4)
N8 N 0.7978(5) 0.1322(4) 0.5211(3)
H26 H 0.7582 0.1373 0.5162
N9 N 0.8883(5) 0.1218(4) 0.5612(4)
N10 N 0.7373(5) 0.1386(4) 0.7032(3)
Cu1B Cu 0.80741(8) 0.13216(7) 0.26353(5)
Cu2_2 Cu 1.19229(8) 0.11072(7) 0.45157(6)
Cu2B Cu 0.30771(8) 0.11072(7) 0.95157(6)
N2B N 0.1879(5) 0.1065(4) 0.3828(4)
N6B N 0.6891(5) 0.1264(4) 0.8327(4)
N7_2 N 0.0934(5) 0.1118(4) 0.4683(4)
Cu3 Cu 0.71623(8) 0.01847(7) 0.32208(6)
Cu4 Cu 0.30060(8) 0.23391(6) 0.37395(5)
Mo1 Mo 0.41811(6) 0.11082(4) 0.22556(4)
Mo2 Mo 0.50821(5) 0.21076(4) 0.27598(4)
Mo3 Mo 0.56905(6) 0.23405(4) 0.38274(4)
Mo4 Mo 0.58733(5) 0.11995(4) 0.33566(4)
Mo5 Mo 0.58185(6) 0.14461(4) 0.45894(4)
Mo6 Mo 0.50752(5) 0.04100(4) 0.40353(4)
Mo7 Mo 0.42756(5) 0.13377(4) 0.34814(4)
Mo8 Mo 0.44110(6) 0.01967(4) 0.29709(4)
C37 C 0.7567(7) 0.0106(5) 0.7196(5)
H27 H 0.7143 0.0104 0.7285
C38 C 0.7711(7) 0.0087(5) 0.6693(4)
H28 H 0.7391 0.0086 0.6460
C39 C 0.8603(7) 0.0104(5) 0.7406(5)
H29 H 0.8920 0.0112 0.7641
C40 C 0.8778(6) 0.0066(5) 0.6912(4)
H30 H 0.9202 0.0039 0.6827
C41 C 0.8327(6) 0.0069(5) 0.6561(4)
C42 C 0.8498(6) 0.0034(5) 0.6033(4)
C43 C 0.9030(6) -0.0061(4) 0.5807(4)
C44 C 0.9728(6) -0.0107(5) 0.5933(4)
C45 C 1.0068(7) 0.0219(5) 0.6204(4)
H31 H 0.9864 0.0474 0.6344
C46 C 1.0707(7) 0.0161(6) 0.6261(5)
H32 H 1.0924 0.0385 0.6443
C47 C 1.0712(7) -0.0503(5) 0.5810(5)
H33 H 1.0929 -0.0755 0.5674
C48 C 1.0072(6) -0.0474(5) 0.5727(4)
H34 H 0.9870 -0.0697 0.5535
C49 C 0.8275(7) -0.0006(5) 0.5273(5)
C50 C 0.7967(6) 0.0004(4) 0.4796(4)
C51 C 0.8252(6) -0.0192(5) 0.4395(4)
H35 H 0.8632 -0.0353 0.4427
C52 C 0.7969(6) -0.0148(5) 0.3944(5)
H36 H 0.8159 -0.0294 0.3678
C53 C 0.7140(6) 0.0268(5) 0.4271(4)
H37 H 0.6755 0.0420 0.4233
C54 C 0.7385(6) 0.0228(5) 0.4732(4)
H38 H 0.7167 0.0349 0.4998
C55 C 0.2303(7) 0.2383(5) -0.0244(4)
H39 H 0.2718 0.2409 -0.0353
C56 C 0.2201(6) 0.2389(5) 0.0259(4)
H40 H 0.2539 0.2418 0.0473
C57 C 0.1266(7) 0.2292(5) -0.0414(5)
H41 H 0.0939 0.2254 -0.0637
C58 C 0.1117(6) 0.2291(5) 0.0092(4)
H42 H 0.0700 0.2251 0.0192
C59 C 0.1586(6) 0.2351(5) 0.0432(4)
C60 C 0.1480(6) 0.2365(4) 0.0953(4)
C61 C 0.0897(6) 0.2378(4) 0.1213(4)
C62 C 0.0243(7) 0.2340(5) 0.1074(4)
C63 C -0.0027(7) 0.1910(6) 0.1051(6)
H43 H 0.0217 0.1642 0.1096
C64 C -0.0662(8) 0.1872(6) 0.0959(6)
H44 H -0.0827 0.1570 0.0948
C65 C -0.0794(8) 0.2652(6) 0.0885(5)
H45 H -0.1047 0.2912 0.0820
C66 C -0.0139(8) 0.2730(6) 0.0979(5)
H46 H 0.0029 0.3031 0.0978
C67 C 0.1706(6) 0.2403(5) 0.1721(4)
C68 C 0.2041(6) 0.2424(4) 0.2189(4)
C69 C 0.1728(6) 0.2499(5) 0.2615(4)
H47 H 0.1295 0.2557 0.2605
C70 C 0.2025(7) 0.2492(5) 0.3057(4)
H48 H 0.1793 0.2550 0.3338
C71 C 0.2968(6) 0.2335(5) 0.2675(4)
H49 H 0.3402 0.2286 0.2685
C72 C 0.2675(6) 0.2333(5) 0.2221(4)
H50 H 0.2908 0.2271 0.1941
N11 N 0.7996(5) 0.0128(4) 0.7552(4)
N12 N 1.1044(5) -0.0195(5) 0.6073(5)
N13 N 0.8897(5) -0.0101(4) 0.5316(3)
H51 H 0.9157 -0.0172 0.5086
N14 N 0.8010(5) 0.0074(4) 0.5699(3)
N15 N 0.7431(5) 0.0096(4) 0.3869(4)
N16 N 0.1849(5) 0.2342(4) -0.0580(3)
N17 N -0.1070(6) 0.2225(6) 0.0884(5)
N18 N 0.1068(5) 0.2408(4) 0.1684(3)
H52 H 0.0810 0.2427 0.1925
N19 N 0.1968(5) 0.2376(4) 0.1291(3)
N20 N 0.2669(5) 0.2401(4) 0.3095(3)
O1 O 0.3955(4) 0.0865(3) 0.3084(3)
O2 O 0.4527(4) 0.0527(3) 0.2350(3)
O3 O 0.3372(4) 0.1098(3) 0.2156(3)
O4 O 0.4507(5) 0.1267(3) 0.1717(3)
O5 O 0.4467(4) 0.1583(3) 0.2672(3)
O6 O 0.4547(4) 0.2522(3) 0.2834(3)
O7 O 0.5342(4) 0.2174(3) 0.2173(3)
O8 O 0.5000(3) 0.1734(3) 0.3473(3)
O9 O 0.5809(4) 0.1453(3) 0.2790(3)
O10 O 0.5752(4) 0.2353(3) 0.3127(3)
O11 O 0.5066(4) 0.2699(4) 0.3874(3)
O12 O 0.6317(4) 0.2670(4) 0.3953(3)
O13 O 0.5537(4) 0.2034(3) 0.4451(3)
O14 O 0.6169(4) 0.1671(3) 0.3761(3)
O15 O 0.6578(4) 0.1424(4) 0.4829(3)
O16 O 0.5326(5) 0.1290(3) 0.5052(3)
O17 O 0.5656(4) 0.0938(3) 0.4151(3)
O18 O 0.6494(4) 0.0822(3) 0.3303(3)
O19 O 0.4805(4) 0.0318(3) 0.4618(3)
O20 O 0.5634(4) 0.0010(3) 0.3930(4)
O21 O 0.4395(4) 0.0167(3) 0.3673(3)
O22 O 0.4343(4) 0.1068(3) 0.4045(3)
O23 O 0.5152(3) 0.0793(3) 0.3337(3)
O24 O 0.3665(4) 0.1720(3) 0.3539(3)
O25 O 0.3747(5) -0.0119(3) 0.2841(3)
O26 O 0.5030(4) -0.0166(3) 0.2876(3)
Cu3B Cu 0.78377(8) 0.01847(7) 0.82208(6)
Cu4B Cu 0.19940(8) 0.23391(6) -0.12605(5)
N11B N 0.7004(5) 0.0128(4) 0.2552(4)
N16B N 0.3151(5) 0.2342(4) 0.4420(3)
Cu5 Cu 0.80377(10) 0.27415(7) 0.34658(6)
Mo9 Mo 0.91703(4) 0.37929(4) 0.33167(4)
Mo10 Mo 1.00619(5) 0.37883(4) 0.22274(4)
Mo11 Mo 0.93887(5) 0.47578(4) 0.25663(4)
Mo12 Mo 1.01837(5) 0.47444(4) 0.35838(4)
Mo13 Mo 1.08587(5) 0.38013(4) 0.32336(4)
Mo14 Mo 0.99584(5) 0.37801(4) 0.43184(4)
Mo15 Mo 1.06839(5) 0.28241(4) 0.39840(4)
Mo16 Mo 0.98666(5) 0.28482(4) 0.29713(4)
C73 C 0.4336(8) 0.2027(8) 0.0878(6)
H53 H 0.4096 0.1786 0.1012
C74 C 0.4982(7) 0.2033(6) 0.0971(5)
H54 H 0.5169 0.1793 0.1149
C75 C 0.4376(8) 0.2685(7) 0.0442(5)
H55 H 0.4167 0.2915 0.0264
C76 C 0.5039(7) 0.2736(6) 0.0510(5)
H56 H 0.5263 0.2982 0.0370
C77 C 0.5338(6) 0.2396(5) 0.0799(4)
C78 C 0.6020(6) 0.2441(4) 0.0923(4)
C79 C 0.6578(6) 0.2550(4) 0.0687(4)
C80 C 0.6699(6) 0.2561(4) 0.0154(4)
C81 C 0.6232(7) 0.2467(5) -0.0182(4)
H57 H 0.5833 0.2376 -0.0076
C82 C 0.6355(6) 0.2509(5) -0.0678(4)
H58 H 0.6035 0.2438 -0.0898
C83 C 0.7366(7) 0.2716(5) -0.0522(5)
H59 H 0.7764 0.2794 -0.0640
C84 C 0.7289(6) 0.2680(5) -0.0034(5)
H60 H 0.7628 0.2734 0.0175
C85 C 0.6825(6) 0.2537(5) 0.1444(4)
C86 C 0.7141(6) 0.2575(4) 0.1910(4)
C87 C 0.6839(6) 0.2461(5) 0.2340(5)
H61 H 0.6425 0.2351 0.2335
C88 C 0.7145(6) 0.2510(5) 0.2765(4)
H62 H 0.6930 0.2425 0.3047
C89 C 0.8026(7) 0.2785(6) 0.2398(5)
H63 H 0.8439 0.2896 0.2418
C90 C 0.7746(6) 0.2746(5) 0.1936(5)
H64 H 0.7963 0.2834 0.1656
N21 N 0.4046(7) 0.2342(7) 0.0610(5)
N22 N 0.6901(5) 0.2644(4) -0.0844(3)
N23 N 0.7068(5) 0.2604(4) 0.1007(3)
N24 N 0.6181(5) 0.2437(3) 0.1405(3)
H65 H 0.5928 0.2381 0.1644
N25 N 0.7726(5) 0.2669(4) 0.2815(4)
O27 O 0.8577(4) 0.3469(3) 0.3559(3)
O28 O 0.9977(3) 0.3397(3) 0.3566(3)
O29 O 0.9443(3) 0.4169(3) 0.3867(3)
O30 O 0.9372(4) 0.3410(3) 0.2753(3)
O31 O 0.8782(3) 0.4245(3) 0.3000(3)
O32 O 1.0055(3) 0.4197(3) 0.2994(2)
O33 O 1.0586(4) 0.3409(3) 0.2692(3)
O34 O 0.9898(5) 0.3394(3) 0.1787(3)
O35 O 0.9368(4) 0.4210(3) 0.2169(3)
O36 O 1.0672(4) 0.4116(3) 0.2005(3)
O37 O 0.8723(4) 0.5058(3) 0.2407(3)
O38 O 1.0002(4) 0.5040(3) 0.2297(4)
O39 O 0.9505(3) 0.4982(3) 0.3224(3)
O40 O 1.0798(4) 0.5043(3) 0.3366(3)
O41 O 1.0041(5) 0.4990(3) 0.4140(3)
O42 O 1.1431(4) 0.4135(3) 0.2977(3)
O43 O 1.0654(3) 0.4185(3) 0.3804(3)
O44 O 1.1269(3) 0.3367(3) 0.3545(3)
O45 O 1.0096(5) 0.4180(3) 0.4767(3)
O46 O 1.0675(4) 0.3375(3) 0.4398(3)
O47 O 0.9370(4) 0.3434(3) 0.4545(3)
O48 O 1.1347(4) 0.2543(3) 0.4154(3)
O49 O 1.0098(4) 0.2519(3) 0.4254(3)
O50 O 1.0567(4) 0.2610(3) 0.3326(3)
O51 O 1.0011(4) 0.2566(3) 0.2434(3)
O52 O 0.9242(3) 0.2554(3) 0.3220(3)
Cu6 Cu 1.22137(10) 0.48119(8) 0.28502(6)
C91 C 1.2447(8) 0.4809(6) 0.1819(6)
H66 H 1.2866 0.4749 0.1902
C92 C 1.2287(7) 0.4836(6) 0.1333(5)
H67 H 1.2595 0.4792 0.1096
C93 C 1.1436(7) 0.4980(5) 0.2045(5)
H68 H 1.1143 0.5041 0.2290
C94 C 1.1242(7) 0.5012(5) 0.1581(5)
H69 H 1.0825 0.5089 0.1511
C95 C 1.1671(6) 0.4928(5) 0.1199(4)
C96 C 1.1480(6) 0.4937(4) 0.0682(5)
C97 C 1.0896(7) 0.4977(5) 0.0486(5)
C98 C 1.0226(6) 0.4932(6) 0.0689(4)
C99 C 0.9909(8) 0.5341(7) 0.0884(6)
H70 H 1.0100 0.5635 0.0881
C100 C 0.9307(9) 0.5274(11) 0.1076(7)
H71 H 0.9067 0.5530 0.1175
C101 C 0.9387(9) 0.4453(8) 0.0949(6)
H72 H 0.9199 0.4158 0.0969
C102 C 0.9978(7) 0.4489(7) 0.0747(5)
H73 H 1.0202 0.4223 0.0653
C103 C 1.1628(6) 0.4940(4) -0.0101(5)
C104 C 1.1898(7) 0.4924(5) -0.0580(4)
C105 C 1.1563(6) 0.4861(5) -0.1006(5)
H74 H 1.1124 0.4839 -0.0992
C106 C 1.1855(7) 0.4829(5) -0.1442(5)
H75 H 1.1604 0.4790 -0.1717
C107 C 1.2814(7) 0.4872(6) -0.1085(5)
H76 H 1.3252 0.4860 -0.1110
C108 C 1.2566(7) 0.4908(5) -0.0643(5)
H77 H 1.2830 0.4923 -0.0372
N26 N 1.2023(6) 0.4867(4) 0.2175(4)
N27 N 0.9069(8) 0.4825(9) 0.1118(6)
N28 N 1.0982(5) 0.4960(4) -0.0024(3)
H78 H 1.0691 0.4962 -0.0242
N29 N 1.1919(5) 0.4923(4) 0.0316(4)
N30 N 1.2475(5) 0.4850(4) -0.1506(4)
Cu5B Cu 0.69623(10) 0.27415(7) -0.15342(6)
N22B N 0.8099(5) 0.2644(4) 0.4156(3)
Cu6B Cu 1.27863(10) 0.48119(8) -0.21498(6)
N30B N 1.2525(5) 0.4850(4) 0.3494(4)
Cu7 Cu 0.80247(8) 0.38391(7) -0.08417(5)
Cu8 Cu 1.19526(8) 0.35227(7) -0.26109(5)
C109 C 0.7291(6) 0.3995(5) 0.3140(4)
H79 H 0.7650 0.4144 0.3259
C110 C 0.7190(6) 0.3987(5) 0.2645(5)
H80 H 0.7480 0.4129 0.2438
C111 C 0.6393(6) 0.3564(4) 0.3273(5)
H81 H 0.6117 0.3414 0.3486
C112 C 0.6276(6) 0.3540(5) 0.2781(4)
H82 H 0.5934 0.3366 0.2669
C113 C 0.6657(5) 0.3770(4) 0.2452(4)
C114 C 0.6516(5) 0.3764(4) 0.1934(4)
C115 C 0.5947(6) 0.3689(5) 0.1692(4)
C116 C 0.5298(6) 0.3615(5) 0.1859(4)
C117 C 0.5030(6) 0.3909(5) 0.2199(6)
H83 H 0.5265 0.4150 0.2337
C118 C 0.4404(7) 0.3840(6) 0.2335(5)
H84 H 0.4229 0.4046 0.2560
C119 C 0.4321(6) 0.3203(6) 0.1867(5)
H85 H 0.4088 0.2946 0.1762
C120 C 0.4924(6) 0.3246(5) 0.1703(5)
H86 H 0.5086 0.3026 0.1486
C121 C 0.6654(6) 0.3796(5) 0.1138(4)
C122 C 0.6972(6) 0.3859(5) 0.0670(4)
C123 C 0.6638(6) 0.3814(5) 0.0246(4)
H87 H 0.6204 0.3760 0.0257
C124 C 0.6945(6) 0.3849(5) -0.0199(4)
H88 H 0.6708 0.3818 -0.0483
C125 C 0.7888(6) 0.3996(5) 0.0181(4)
H89 H 0.8315 0.4072 0.0163
C126 C 0.7618(6) 0.3962(6) 0.0631(4)
H90 H 0.7861 0.4008 0.0909
C127 C 0.9194(7) 0.3406(5) -0.0273(5)
H91 H 0.8887 0.3220 -0.0126
C128 C 0.9803(6) 0.3335(5) -0.0132(4)
H92 H 0.9905 0.3095 0.0083
C129 C 0.9449(6) 0.3979(5) -0.0788(5)
H93 H 0.9340 0.4199 -0.1023
C130 C 1.0091(6) 0.3948(5) -0.0653(5)
H94 H 1.0390 0.4145 -0.0794
C131 C 1.0266(5) 0.3625(4) -0.0314(4)
C132 C 1.0928(6) 0.3593(5) -0.0132(5)
C133 C 1.1484(6) 0.3593(5) -0.0385(5)
C134 C 1.1638(6) 0.3546(4) -0.0909(4)
C135 C 1.1194(6) 0.3354(4) -0.1229(4)
H95 H 1.0814 0.3237 -0.1109
C136 C 1.1314(5) 0.3340(4) -0.1716(4)
H96 H 1.1014 0.3206 -0.1922
C137 C 1.2289(5) 0.3660(4) -0.1602(4)
H97 H 1.2680 0.3751 -0.1725
C138 C 1.2192(5) 0.3685(4) -0.1108(4)
H98 H 1.2511 0.3800 -0.0907
C139 C 1.1636(6) 0.3593(5) 0.0405(4)
C140 C 1.1974(6) 0.3601(5) 0.0877(4)
C141 C 1.1648(6) 0.3603(5) 0.1308(5)
H99 H 1.1209 0.3613 0.1301
C142 C 1.1954(6) 0.3592(5) 0.1752(4)
H100 H 1.1716 0.3597 0.2037
C143 C 1.2623(7) 0.3560(6) 0.0927(5)
H101 H 1.2871 0.3523 0.0650
C144 C 1.2901(6) 0.3573(6) 0.1359(4)
H102 H 1.3340 0.3582 0.1370
N31 N 0.6895(5) 0.3797(4) 0.3456(3)
N32 N 0.4045(5) 0.3504(4) 0.2164(4)
N33 N 0.6051(4) 0.3706(4) 0.1194(3)
N34 N 0.6941(5) 0.3844(4) 0.1573(3)
H103 H 0.7333 0.3914 0.1616
N35 N 0.7575(5) 0.3925(4) -0.0237(3)
N36 N 0.8996(5) 0.3720(4) -0.0605(4)
N37 N 1.1849(5) 0.3510(4) -0.1912(3)
N38 N 1.1939(4) 0.3594(4) -0.0029(3)
H104 H 1.2342 0.3595 -0.0073
N39 N 1.1030(5) 0.3590(4) 0.0359(3)
N40 N 1.2585(5) 0.3574(4) 0.1781(3)
Cu7B Cu 0.69753(8) 0.38391(7) 0.41583(5)
Cu8B Cu 0.30474(8) 0.35227(7) 0.23891(5)
Cu8B_2 Cu 1.30474(8) 0.35227(7) 0.23891(5)
N31B N 0.8105(5) 0.3797(4) -0.1544(3)
N32B N 1.0955(5) 0.3504(4) -0.2836(4)
N40B N 1.2415(5) 0.3574(4) -0.3219(3)
O53 O 0.8238(4) 0.4123(5) 0.1703(3)
O54 O 1.1742(4) 0.3761(4) 0.4824(3)
O55 O 1.1026(18) 0.5021(15) 0.4838(16)
O56? O 1.115(3) 0.471(2) 0.484(2)
O57? O 1.178(3) 0.4437(16) 0.5345(18)
O58? O 1.123(3) 0.470(2) 0.5024(19)
loop_
_geom_bond_atom_site_label_1
_geom_bond_atom_site_label_2
_geom_bond_site_symmetry_1
_geom_bond_site_symmetry_2
Cu1 N1 1_555 1_555
Cu2 N5 1_555 1_555
C1 H1 1_555 1_555
C2 C1 1_555 1_555
H2 C2 1_555 1_555
C3 H3 1_555 1_555
C4 C3 1_555 1_555
H4 C4 1_555 1_555
C5 C2 1_555 1_555
C6 C5 1_555 1_555
C7 C6 1_555 1_555
C8 C7 1_555 1_555
C9 C8 1_555 1_555
H5 C9 1_555 1_555
C10 C9 1_555 1_555
H6 C10 1_555 1_555
C11 H7 1_555 1_555
C12 C8 1_555 1_555
H8 C12 1_555 1_555
C13 C14 1_555 1_555
C14 C15 1_555 1_555
C15 H9 1_555 1_555
C16 C15 1_555 1_555
H10 C16 1_555 1_555
C17 H11 1_555 1_555
C18 C14 1_555 1_555
H12 C18 1_555 1_555
C19 H13 1_555 1_555
C20 C19 1_555 1_555
H14 C20 1_555 1_555
C21 H15 1_555 1_555
C22 C21 1_555 1_555
H16 C22 1_555 1_555
C23 C20 1_555 1_555
C24 C23 1_555 1_555
C25 C24 1_555 1_555
C26 C25 1_555 1_555
C27 C26 1_555 1_555
H17 C27 1_555 1_555
C28 C27 1_555 1_555
H18 C28 1_555 1_555
C29 H19 1_555 1_555
C30 C26 1_555 1_555
H20 C30 1_555 1_555
C31 C32 1_555 1_555
C32 C33 1_555 1_555
C33 H21 1_555 1_555
C34 C33 1_555 1_555
H22 C34 1_555 1_555
C35 H23 1_555 1_555
C36 C32 1_555 1_555
H24 C36 1_555 1_555
N1 C1 1_555 1_555
N2 C10 1_555 1_555
N3 C7 1_555 1_555
H25 N3 1_555 1_555
N4 C6 1_555 1_555
N5 C16 1_555 1_555
N6 C19 1_555 1_555
N7 C28 1_555 1_555
N8 C24 1_555 1_555
H26 N8 1_555 1_555
N9 C25 1_555 1_555
N10 Cu1 1_555 1_555
Cu3 N15 1_555 1_555
Cu4 N20 1_555 1_555
Mo1 O1 1_555 1_555
Mo2 O5 1_555 1_555
Mo3 O8 1_555 1_555
Mo4 O8 1_555 1_555
Mo5 O13 1_555 1_555
Mo6 O17 1_555 1_555
Mo7 O1 1_555 1_555
Mo8 O1 1_555 1_555
C37 H27 1_555 1_555
C38 C37 1_555 1_555
H28 C38 1_555 1_555
C39 H29 1_555 1_555
C40 C39 1_555 1_555
H30 C40 1_555 1_555
C41 C38 1_555 1_555
C42 C41 1_555 1_555
C43 C42 1_555 1_555
C44 C43 1_555 1_555
C45 C44 1_555 1_555
H31 C45 1_555 1_555
C46 C45 1_555 1_555
H32 C46 1_555 1_555
C47 H33 1_555 1_555
C48 C44 1_555 1_555
H34 C48 1_555 1_555
C49 C50 1_555 1_555
C50 C51 1_555 1_555
C51 H35 1_555 1_555
C52 C51 1_555 1_555
H36 C52 1_555 1_555
C53 H37 1_555 1_555
C54 C50 1_555 1_555
H38 C54 1_555 1_555
C55 H39 1_555 1_555
C56 C55 1_555 1_555
H40 C56 1_555 1_555
C57 H41 1_555 1_555
C58 C57 1_555 1_555
H42 C58 1_555 1_555
C59 C56 1_555 1_555
C60 C59 1_555 1_555
C61 C60 1_555 1_555
C62 C61 1_555 1_555
C63 C62 1_555 1_555
H43 C63 1_555 1_555
C64 C63 1_555 1_555
H44 C64 1_555 1_555
C65 H45 1_555 1_555
C66 C62 1_555 1_555
H46 C66 1_555 1_555
C67 C68 1_555 1_555
C68 C69 1_555 1_555
C69 H47 1_555 1_555
C70 C69 1_555 1_555
H48 C70 1_555 1_555
C71 H49 1_555 1_555
C72 C68 1_555 1_555
H50 C72 1_555 1_555
N11 C37 1_555 1_555
N12 C46 1_555 1_555
N13 C43 1_555 1_555
H51 N13 1_555 1_555
N14 C42 1_555 1_555
N15 C52 1_555 1_555
N16 C55 1_555 1_555
N17 C64 1_555 1_555
N18 C61 1_555 1_555
H52 N18 1_555 1_555
N19 C60 1_555 1_555
N20 C70 1_555 1_555
O2 Mo1 1_555 1_555
O3 Mo1 1_555 1_555
O4 Mo1 1_555 1_555
O5 Mo1 1_555 1_555
O6 Mo2 1_555 1_555
O7 Mo2 1_555 1_555
O8 Mo2 1_555 1_555
O9 Mo2 1_555 1_555
O10 Mo2 1_555 1_555
O11 Mo3 1_555 1_555
O12 Mo3 1_555 1_555
O13 Mo3 1_555 1_555
O14 Mo3 1_555 1_555
O15 Mo5 1_555 1_555
O16 Mo5 1_555 1_555
O17 Mo4 1_555 1_555
O18 Cu3 1_555 1_555
O19 Mo6 1_555 1_555
O20 Mo6 1_555 1_555
O21 Mo6 1_555 1_555
O22 Mo6 1_555 1_555
O23 Mo4 1_555 1_555
O24 Cu4 1_555 1_555
O25 Mo8 1_555 1_555
O26 Mo8 1_555 1_555
Cu5 N25 1_555 1_555
Mo9 O27 1_555 1_555
Mo10 O30 1_555 1_555
Mo11 O31 1_555 1_555
Mo12 O29 1_555 1_555
Mo13 O28 1_555 1_555
Mo14 O28 1_555 1_555
Mo15 O28 1_555 1_555
Mo16 O28 1_555 1_555
C73 H53 1_555 1_555
C74 C73 1_555 1_555
H54 C74 1_555 1_555
C75 H55 1_555 1_555
C76 C75 1_555 1_555
H56 C76 1_555 1_555
C77 C74 1_555 1_555
C78 C77 1_555 1_555
C79 C78 1_555 1_555
C80 C79 1_555 1_555
C81 C80 1_555 1_555
H57 C81 1_555 1_555
C82 C81 1_555 1_555
H58 C82 1_555 1_555
C83 H59 1_555 1_555
C84 C80 1_555 1_555
H60 C84 1_555 1_555
C85 C86 1_555 1_555
C86 C87 1_555 1_555
C87 H61 1_555 1_555
C88 C87 1_555 1_555
H62 C88 1_555 1_555
C89 H63 1_555 1_555
C90 C86 1_555 1_555
H64 C90 1_555 1_555
N21 C73 1_555 1_555
N22 C82 1_555 1_555
N23 C79 1_555 1_555
N24 C78 1_555 1_555
H65 N24 1_555 1_555
N25 C88 1_555 1_555
O27 Cu5 1_555 1_555
O28 Mo9 1_555 1_555
O29 Mo9 1_555 1_555
O30 Mo9 1_555 1_555
O31 Mo9 1_555 1_555
O32 Mo9 1_555 1_555
O33 Mo10 1_555 1_555
O34 Mo10 1_555 1_555
O35 Mo10 1_555 1_555
O36 Mo10 1_555 1_555
O37 Mo11 1_555 1_555
O38 Mo11 1_555 1_555
O39 Mo11 1_555 1_555
O40 Mo12 1_555 1_555
O41 Mo12 1_555 1_555
O42 Mo13 1_555 1_555
O43 Mo12 1_555 1_555
O44 Mo13 1_555 1_555
O45 Mo14 1_555 1_555
O46 Mo14 1_555 1_555
O47 Mo14 1_555 1_555
O48 Mo15 1_555 1_555
O49 Mo15 1_555 1_555
O50 Mo15 1_555 1_555
O51 Mo16 1_555 1_555
O52 Cu5 1_555 1_555
Cu6 O42 1_555 1_555
C91 H66 1_555 1_555
C92 C91 1_555 1_555
H67 C92 1_555 1_555
C93 H68 1_555 1_555
C94 C93 1_555 1_555
H69 C94 1_555 1_555
C95 C92 1_555 1_555
C96 C95 1_555 1_555
C97 C96 1_555 1_555
C98 C97 1_555 1_555
C99 C98 1_555 1_555
H70 C99 1_555 1_555
C100 C99 1_555 1_555
H71 C100 1_555 1_555
C101 H72 1_555 1_555
C102 C98 1_555 1_555
H73 C102 1_555 1_555
C103 C104 1_555 1_555
C104 C105 1_555 1_555
C105 H74 1_555 1_555
C106 C105 1_555 1_555
H75 C106 1_555 1_555
C107 H76 1_555 1_555
C108 C104 1_555 1_555
H77 C108 1_555 1_555
N26 Cu6 1_555 1_555
N27 C100 1_555 1_555
N28 C97 1_555 1_555
H78 N28 1_555 1_555
N29 C96 1_555 1_555
N30 C106 1_555 1_555
Cu7 N35 1_555 1_555
Cu8 N37 1_555 1_555
C109 H79 1_555 1_555
C110 C109 1_555 1_555
H80 C110 1_555 1_555
C111 H81 1_555 1_555
C112 C111 1_555 1_555
H82 C112 1_555 1_555
C113 C110 1_555 1_555
C114 C113 1_555 1_555
C115 C114 1_555 1_555
C116 C115 1_555 1_555
C117 C116 1_555 1_555
H83 C117 1_555 1_555
C118 C117 1_555 1_555
H84 C118 1_555 1_555
C119 H85 1_555 1_555
C120 C116 1_555 1_555
H86 C120 1_555 1_555
C121 C122 1_555 1_555
C122 C123 1_555 1_555
C123 H87 1_555 1_555
C124 C123 1_555 1_555
H88 C124 1_555 1_555
C125 H89 1_555 1_555
C126 C122 1_555 1_555
H90 C126 1_555 1_555
C127 H91 1_555 1_555
C128 C127 1_555 1_555
H92 C128 1_555 1_555
C129 H93 1_555 1_555
C130 C129 1_555 1_555
H94 C130 1_555 1_555
C131 C128 1_555 1_555
C132 C131 1_555 1_555
C133 C132 1_555 1_555
C134 C133 1_555 1_555
C135 C134 1_555 1_555
H95 C135 1_555 1_555
C136 C135 1_555 1_555
H96 C136 1_555 1_555
C137 H97 1_555 1_555
C138 C134 1_555 1_555
H98 C138 1_555 1_555
C139 C140 1_555 1_555
C140 C141 1_555 1_555
C141 H99 1_555 1_555
C142 C141 1_555 1_555
H100 C142 1_555 1_555
C143 C140 1_555 1_555
H101 C143 1_555 1_555
C144 C143 1_555 1_555
H102 C144 1_555 1_555
N31 C109 1_555 1_555
N32 C118 1_555 1_555
N33 C115 1_555 1_555
N34 C114 1_555 1_555
H103 N34 1_555 1_555
N35 C124 1_555 1_555
N36 Cu7 1_555 1_555
N37 C136 1_555 1_555
N38 C133 1_555 1_555
H104 N38 1_555 1_555
N39 C132 1_555 1_555
N40 C142 1_555 1_555
Cu1B N6 1_555 1_555
Cu2_2 N7 1_555 1_555
Cu2B N2 1_555 1_555
N2B Cu2 1_555 1_555
N6B Cu1 1_555 1_555
N7_2 Cu2 1_555 1_555
Cu3B N11 1_555 1_555
Cu4B N16 1_555 1_555
N11B Cu3 1_555 1_555
N16B Cu4 1_555 1_555
Cu5B N22 1_555 1_555
N22B Cu5 1_555 1_555
Cu6B N30 1_555 1_555
N30B Cu6 1_555 1_555
Cu7B N31 1_555 1_555
Cu8B N32 1_555 1_555
Cu8B_2 N40 1_555 1_555
N31B Cu7 1_555 1_555
N32B Cu8 1_555 1_555
N40B Cu8 1_555 1_555
C3 N1 1_555 1_555
C4 C5 1_555 1_555
C11 C12 1_555 1_555
C11 N2 1_555 1_555
C13 N3 1_555 1_555
C13 N4 1_555 1_555
C17 C18 1_555 1_555
C17 N5 1_555 1_555
C21 N6 1_555 1_555
C22 C23 1_555 1_555
C29 C30 1_555 1_555
C29 N7 1_555 1_555
C31 N8 1_555 1_555
C31 N9 1_555 1_555
C34 N10 1_555 1_555
C35 C36 1_555 1_555
C35 N10 1_555 1_555
Mo3 O10 1_555 1_555
Mo4 O9 1_555 1_555
Mo4 O14 1_555 1_555
Mo4 O18 1_555 1_555
Mo5 O14 1_555 1_555
Mo5 O17 1_555 1_555
Mo6 O23 1_555 1_555
Mo7 O5 1_555 1_555
Mo7 O8 1_555 1_555
Mo7 O22 1_555 1_555
Mo7 O23 1_555 1_555
Mo7 O24 1_555 1_555
Mo8 O2 1_555 1_555
Mo8 O21 1_555 1_555
Mo8 O23 1_555 1_555
C39 N11 1_555 1_555
C40 C41 1_555 1_555
C47 C48 1_555 1_555
C47 N12 1_555 1_555
C49 N13 1_555 1_555
C49 N14 1_555 1_555
C53 C54 1_555 1_555
C53 N15 1_555 1_555
C57 N16 1_555 1_555
C58 C59 1_555 1_555
C65 C66 1_555 1_555
C65 N17 1_555 1_555
C67 N18 1_555 1_555
C67 N19 1_555 1_555
C71 C72 1_555 1_555
C71 N20 1_555 1_555
Mo10 O32 1_555 1_555
Mo11 O32 1_555 1_555
Mo11 O35 1_555 1_555
Mo12 O32 1_555 1_555
Mo12 O39 1_555 1_555
Mo13 O32 1_555 1_555
Mo13 O33 1_555 1_555
Mo13 O43 1_555 1_555
Mo14 O29 1_555 1_555
Mo14 O43 1_555 1_555
Mo15 O44 1_555 1_555
Mo15 O46 1_555 1_555
Mo16 O30 1_555 1_555
Mo16 O33 1_555 1_555
Mo16 O50 1_555 1_555
Mo16 O52 1_555 1_555
C75 N21 1_555 1_555
C76 C77 1_555 1_555
C83 C84 1_555 1_555
C83 N22 1_555 1_555
C85 N23 1_555 1_555
C85 N24 1_555 1_555
C89 C90 1_555 1_555
C89 N25 1_555 1_555
C91 N26 1_555 1_555
C93 N26 1_555 1_555
C94 C95 1_555 1_555
C101 C102 1_555 1_555
C101 N27 1_555 1_555
C103 N28 1_555 1_555
C103 N29 1_555 1_555
C107 C108 1_555 1_555
C107 N30 1_555 1_555
C111 N31 1_555 1_555
C112 C113 1_555 1_555
C119 C120 1_555 1_555
C119 N32 1_555 1_555
C121 N33 1_555 1_555
C121 N34 1_555 1_555
C125 C126 1_555 1_555
C125 N35 1_555 1_555
C127 N36 1_555 1_555
C129 N36 1_555 1_555
C130 C131 1_555 1_555
C137 C138 1_555 1_555
C137 N37 1_555 1_555
C139 N38 1_555 1_555
C139 N39 1_555 1_555
C144 N40 1_555 1_555

#END
