
#######################################################################
#
#                 Cambridge Crystallographic Data Centre
#                                CCDC 
#
#######################################################################
#
# If this CIF has been generated from an entry in the Cambridge 
# Structural Database, then it will include bibliographic, chemical, 
# crystal, experimental, refinement or atomic coordinate data resulting 
# from the CCDC's data processing and validation procedures.
#
#######################################################################

data_YIMHAF
_symmetry_cell_setting           triclinic
_symmetry_space_group_name_H-M   'P -1'
_symmetry_Int_Tables_number      2
_space_group_name_Hall           '-P 1'
loop_
_symmetry_equiv_pos_site_id
_symmetry_equiv_pos_as_xyz
1 x,y,z
2 -x,-y,-z
_cell_length_a                   6.8669(3)
_cell_length_b                   8.2408(4)
_cell_length_c                   8.8622(4)
_cell_angle_alpha                82.723(2)
_cell_angle_beta                 68.658(2)
_cell_angle_gamma                71.038(2)
_cell_volume                     441.742
loop_
_atom_site_label
_atom_site_type_symbol
_atom_site_fract_x
_atom_site_fract_y
_atom_site_fract_z
Pu1 Pu 0.0000 0.5000 0.5000
O1 O 0.2266(4) 0.5094(3) 0.5408(3)
O2 O -0.0779(6) 0.3209(4) 1.0685(3)
H1 H -0.067(9) 0.395(5) 1.119(6)
H2 H -0.053(9) 0.228(3) 1.121(5)
O3 O -0.0399(4) 0.2630(3) 0.6947(3)
O4 O 0.0064(4) -0.0079(3) 0.7843(3)
O5 O 0.2171(4) 0.4385(3) 0.2097(3)
O6 O 0.5102(4) 0.2926(3) 0.0110(3)
N1 N 0.2271(4) 0.1807(4) 0.4071(3)
C1 C 0.0479(5) 0.0994(4) 0.6776(4)
C2 C 0.3724(5) 0.3026(4) 0.1483(4)
C3 C 0.2125(5) 0.0485(4) 0.5111(4)
C4 C 0.3382(5) -0.1207(4) 0.4684(4)
H3 H 0.3205 -0.2118 0.5442
C5 C 0.4898(6) -0.1530(4) 0.3125(4)
H4 H 0.5778 -0.2668 0.2796
C6 C 0.5105(5) -0.0159(4) 0.2056(4)
H5 H 0.6160 -0.0336 0.0993
C7 C 0.3740(5) 0.1471(4) 0.2572(4)
Li1 Li -0.2203(10) 0.3463(8) 0.9103(7)
O1A O -0.2266(4) 0.4906(3) 0.4592(3)
O2A O 0.0779(6) 0.6791(4) -0.0685(3)
H1A H 0.067(9) 0.605(5) -0.119(6)
H2A H 0.053(9) 0.772(3) -0.121(5)
O3A O 0.0399(4) 0.7370(3) 0.3053(3)
O4A O -0.0064(4) 1.0079(3) 0.2157(3)
O5A O -0.2171(4) 0.5615(3) 0.7903(3)
O6A O -0.5102(4) 0.7074(3) 0.9890(3)
N1A N -0.2271(4) 0.8193(4) 0.5929(3)
C1A C -0.0479(5) 0.9006(4) 0.3224(4)
C2A C -0.3724(5) 0.6974(4) 0.8517(4)
C3A C -0.2125(5) 0.9515(4) 0.4889(4)
C4A C -0.3382(5) 1.1207(4) 0.5316(4)
H3A H -0.3205 1.2118 0.4558
C5A C -0.4898(6) 1.1530(4) 0.6875(4)
H4A H -0.5778 1.2668 0.7204
C6A C -0.5105(5) 1.0159(4) 0.7944(4)
H5A H -0.6160 1.0336 0.9007
C7A C -0.3740(5) 0.8529(4) 0.7428(4)
Li1A Li 0.2203(10) 0.6537(8) 0.0897(7)
O6_2 O -0.4898(4) 0.2926(3) 1.0110(3)
O6A_2 O 0.4898(4) 0.7074(3) -0.0110(3)
Li1_2 Li 0.7797(10) 0.3463(8) -0.0897(7)
Li1A_2 Li -0.7797(10) 0.6537(8) 1.0897(7)
loop_
_geom_bond_atom_site_label_1
_geom_bond_atom_site_label_2
_geom_bond_site_symmetry_1
_geom_bond_site_symmetry_2
Pu1 O1 1_555 1_555
O2 H1 1_555 1_555
H2 O2 1_555 1_555
O3 Pu1 1_555 1_555
O4 C1 1_555 1_555
O5 Pu1 1_555 1_555
O6 C2 1_555 1_555
N1 Pu1 1_555 1_555
C1 O3 1_555 1_555
C2 O5 1_555 1_555
C3 N1 1_555 1_555
C4 C3 1_555 1_555
H3 C4 1_555 1_555
C5 C4 1_555 1_555
H4 C5 1_555 1_555
C6 C5 1_555 1_555
H5 C6 1_555 1_555
C7 N1 1_555 1_555
Li1 O2 1_555 1_555
O1A Pu1 1_555 1_555
O2A H1A 1_555 1_555
H2A O2A 1_555 1_555
O3A Pu1 1_555 1_555
O4A C1A 1_555 1_555
O5A Pu1 1_555 1_555
O6A C2A 1_555 1_555
N1A Pu1 1_555 1_555
C1A O3A 1_555 1_555
C2A O5A 1_555 1_555
C3A N1A 1_555 1_555
C4A C3A 1_555 1_555
H3A C4A 1_555 1_555
C5A C4A 1_555 1_555
H4A C5A 1_555 1_555
C6A C5A 1_555 1_555
H5A C6A 1_555 1_555
C7A N1A 1_555 1_555
Li1A O5 1_555 1_555
O6_2 Li1 1_555 1_555
O6A_2 Li1A 1_555 1_555
Li1_2 O6 1_555 1_555
Li1A_2 O6A 1_555 1_555
O3 Li1 1_555 1_555
C1 C3 1_555 1_555
C2 C7 1_555 1_555
C6 C7 1_555 1_555
Li1 O5A 1_555 1_555
O2A Li1A 1_555 1_555
O3A Li1A 1_555 1_555
C1A C3A 1_555 1_555
C2A C7A 1_555 1_555
C6A C7A 1_555 1_555

#END
