
#######################################################################
#
#                 Cambridge Crystallographic Data Centre
#                                CCDC 
#
#######################################################################
#
# If this CIF has been generated from an entry in the Cambridge 
# Structural Database, then it will include bibliographic, chemical, 
# crystal, experimental, refinement or atomic coordinate data resulting 
# from the CCDC's data processing and validation procedures.
#
#######################################################################

data_YIMKUC
_symmetry_cell_setting           triclinic
_symmetry_space_group_name_H-M   'P -1'
_symmetry_Int_Tables_number      2
_space_group_name_Hall           '-P 1'
loop_
_symmetry_equiv_pos_site_id
_symmetry_equiv_pos_as_xyz
1 x,y,z
2 -x,-y,-z
_cell_length_a                   10.5240(4)
_cell_length_b                   11.2622(5)
_cell_length_c                   12.3561(5)
_cell_angle_alpha                72.554(2)
_cell_angle_beta                 74.971(2)
_cell_angle_gamma                83.246(2)
_cell_volume                     1348.07
loop_
_atom_site_label
_atom_site_type_symbol
_atom_site_fract_x
_atom_site_fract_y
_atom_site_fract_z
Cd1 Cd 1.492000(10) 0.095630(10) 0.336760(9)
N1 N 1.28033(14) 0.16905(13) 0.42100(12)
N2 N 1.15413(14) 0.37880(14) 0.60113(13)
H1 H 1.2313 0.3940 0.6038
N3 N 0.85056(14) 0.83350(14) 1.06645(13)
H2 H 0.7773 0.8315 1.0486
N4 N 0.70517(13) 1.01652(13) 1.26827(11)
N5 N 1.39330(12) -0.04377(12) 0.27814(11)
O1 O 0.93611(13) 0.42621(14) 0.66308(13)
O2 O 1.06501(13) 0.76618(14) 1.02882(13)
O3 O 1.4854(5) 0.1738(5) 0.1321(4)
O4 O 1.39075(13) 0.15160(14) -0.00468(11)
O5 O 1.44122(11) -0.10244(10) 0.49110(9)
O6 O 1.33732(17) -0.28000(15) 0.54493(13)
O7 O 1.55693(17) 0.29806(13) 0.27598(12)
H3 H 1.6102 0.3117 0.2092
H4 H 1.5942 0.3097 0.3251
C1 C 1.16916(18) 0.13583(17) 0.40591(16)
H5 H 1.1750 0.0797 0.3626
C2 C 1.04738(18) 0.18164(19) 0.45202(18)
H6 H 0.9725 0.1567 0.4396
C3 C 1.03541(17) 0.26501(18) 0.51714(16)
H7 H 0.9533 0.2975 0.5480
C4 C 1.14946(16) 0.29881(15) 0.53511(14)
C5 C 1.26936(16) 0.24826(16) 0.48464(14)
H8 H 1.3460 0.2710 0.4960
C6 C 1.05051(17) 0.43559(16) 0.66180(14)
C7 C 1.09371(17) 0.51348(17) 0.72562(16)
H9 H 1.1432 0.5820 0.6686
H10 H 1.1523 0.4626 0.7721
C8 C 0.98089(18) 0.56599(17) 0.80481(15)
H11 H 0.9309 0.4980 0.8622
H12 H 0.9225 0.6180 0.7588
C9 C 1.02947(18) 0.64244(17) 0.86723(16)
H13 H 1.0829 0.5892 0.9175
H14 H 1.0843 0.7071 0.8101
C10 C 0.91599(18) 0.70179(18) 0.93981(16)
H15 H 0.8679 0.7603 0.8877
H16 H 0.8565 0.6373 0.9903
C11 C 0.95435(17) 0.76953(16) 1.01462(15)
C12 C 0.84675(15) 0.90191(15) 1.14468(13)
C13 C 0.95560(16) 0.92848(17) 1.17547(15)
H17 H 1.0397 0.8994 1.1450
C14 C 0.93533(17) 0.99944(18) 1.25271(16)
H18 H 1.0066 1.0183 1.2752
C15 C 0.81091(17) 1.04234(16) 1.29651(14)
H19 H 0.7998 1.0910 1.3475
C16 C 0.72391(15) 0.94756(16) 1.19422(14)
H20 H 0.6506 0.9289 1.1746
C17 C 1.38165(16) -0.18241(16) 0.47246(14)
C18 C 1.35894(15) -0.15507(15) 0.35100(14)
C19 C 1.30400(16) -0.24118(17) 0.31807(16)
H21 H 1.2825 -0.3192 0.3696
C20 C 1.28197(17) -0.20843(18) 0.20717(17)
H22 H 1.2448 -0.2641 0.1831
C21 C 1.31562(16) -0.09263(18) 0.13276(15)
H23 H 1.3006 -0.0689 0.0581
C22 C 1.37229(14) -0.01154(16) 0.17019(14)
C23 C 1.41580(16) 0.11655(17) 0.09346(14)
Cd1_2 Cd 0.492000(10) 1.095630(10) 1.336760(9)
Cd1A Cd 1.508000(10) -0.095630(10) 0.663240(9)
N4_2 N 1.70517(13) 0.01652(13) 0.26827(11)
O5A O 1.55878(11) 0.10244(10) 0.50890(9)
O9 O 1.3993(4) 0.4356(5) 0.6059(5)
O11 O 1.3129(5) 0.6506(6) 0.9640(5)
O13 O 1.4003(3) 0.3981(2) 0.8477(2)
H24 H 1.4871 0.3630 0.8602
H25 H 1.3409 0.3321 0.8939
O14 O 1.3347(3) -0.5213(3) 0.2306(4)
O8? O 1.4625(6) 0.1783(6) 0.1372(5)
O10? O 1.4243(5) 0.4122(8) 0.6256(7)
O12? O 1.3357(7) 0.6264(7) 0.9973(6)
O15? O 1.3937(11) -0.5475(10) 0.1274(12)
loop_
_geom_bond_atom_site_label_1
_geom_bond_atom_site_label_2
_geom_bond_site_symmetry_1
_geom_bond_site_symmetry_2
Cd1 N1 1_555 1_555
N1 C1 1_555 1_555
N2 H1 1_555 1_555
N3 H2 1_555 1_555
N4 C15 1_555 1_555
N5 Cd1 1_555 1_555
O1 C6 1_555 1_555
O2 C11 1_555 1_555
O3 Cd1 1_555 1_555
O4 C23 1_555 1_555
O5 Cd1 1_555 1_555
O6 C17 1_555 1_555
O7 Cd1 1_555 1_555
H3 O7 1_555 1_555
H4 O7 1_555 1_555
C1 H5 1_555 1_555
C2 C1 1_555 1_555
H6 C2 1_555 1_555
C3 C2 1_555 1_555
H7 C3 1_555 1_555
C4 N2 1_555 1_555
C5 N1 1_555 1_555
H8 C5 1_555 1_555
C6 N2 1_555 1_555
C7 C6 1_555 1_555
H9 C7 1_555 1_555
H10 C7 1_555 1_555
C8 C7 1_555 1_555
H11 C8 1_555 1_555
H12 C8 1_555 1_555
C9 C8 1_555 1_555
H13 C9 1_555 1_555
H14 C9 1_555 1_555
C10 C9 1_555 1_555
H15 C10 1_555 1_555
H16 C10 1_555 1_555
C11 N3 1_555 1_555
C12 N3 1_555 1_555
C13 C12 1_555 1_555
H17 C13 1_555 1_555
C14 C13 1_555 1_555
H18 C14 1_555 1_555
C15 C14 1_555 1_555
H19 C15 1_555 1_555
C16 N4 1_555 1_555
H20 C16 1_555 1_555
C17 O5 1_555 1_555
C18 N5 1_555 1_555
C19 C18 1_555 1_555
H21 C19 1_555 1_555
C20 C19 1_555 1_555
H22 C20 1_555 1_555
C21 C20 1_555 1_555
H23 C21 1_555 1_555
C22 N5 1_555 1_555
C23 O3 1_555 1_555
O13 H24 1_555 1_555
H25 O13 1_555 1_555
Cd1_2 N4 1_555 1_555
Cd1A O5 1_555 1_555
N4_2 Cd1 1_555 1_555
O5A Cd1 1_555 1_555
C3 C4 1_555 1_555
C4 C5 1_555 1_555
C10 C11 1_555 1_555
C12 C16 1_555 1_555
C17 C18 1_555 1_555
C21 C22 1_555 1_555
C22 C23 1_555 1_555
Cd1A O5A 1_555 1_555

#END
