
#######################################################################
#
#                 Cambridge Crystallographic Data Centre
#                                CCDC 
#
#######################################################################
#
# If this CIF has been generated from an entry in the Cambridge 
# Structural Database, then it will include bibliographic, chemical, 
# crystal, experimental, refinement or atomic coordinate data resulting 
# from the CCDC's data processing and validation procedures.
#
#######################################################################

data_YIMKOW
_symmetry_cell_setting           monoclinic
_symmetry_space_group_name_H-M   'P 21/n'
_symmetry_Int_Tables_number      14
_space_group_name_Hall           '-P 2yn'
loop_
_symmetry_equiv_pos_site_id
_symmetry_equiv_pos_as_xyz
1 x,y,z
2 1/2-x,1/2+y,1/2-z
3 -x,-y,-z
4 1/2+x,1/2-y,1/2+z
_cell_length_a                   12.0604(13)
_cell_length_b                   9.1735(10)
_cell_length_c                   17.818(3)
_cell_angle_alpha                90
_cell_angle_beta                 100.645(12)
_cell_angle_gamma                90
_cell_volume                     1937.39
loop_
_atom_site_label
_atom_site_type_symbol
_atom_site_fract_x
_atom_site_fract_y
_atom_site_fract_z
Zn1 Zn 1.01541(3) 0.12781(3) 1.199606(17)
O1 O 0.9981(2) -0.2305(3) 1.41464(15)
O2 O 1.02445(16) 0.90289(19) 1.19872(11)
O3 O 1.20199(17) 0.8483(2) 1.18799(13)
O4 O 1.0645(2) 0.7467(2) 1.03103(12)
O5 O 1.1704(2) 0.5521(2) 1.02328(12)
O6 O 0.89620(19) 0.1268(3) 1.09955(12)
O7 O 1.1354(2) 0.1376(3) 1.30413(14)
O8 O 1.1626(2) 0.1223(3) 1.13704(13)
N1 N 0.8885(2) 0.1112(3) 1.26992(14)
N2 N 0.8382(2) -0.1175(3) 1.43191(15)
H1 H 0.7858 -0.1194 1.4587
N3 N 1.02720(19) 0.3593(2) 1.19505(12)
C1 C 0.8053(3) 0.2063(4) 1.26720(19)
H2 H 0.7951 0.2767 1.2290
C2 C 0.7332(3) 0.2048(4) 1.3188(2)
H3 H 0.6774 0.2754 1.3168
C3 C 0.7452(3) 0.0968(4) 1.37375(19)
H4 H 0.6963 0.0929 1.4084
C4 C 0.8304(2) -0.0058(3) 1.37698(17)
C5 C 0.9009(3) 0.0062(3) 1.32373(17)
H5 H 0.9591 -0.0609 1.3253
C6 C 0.9182(3) -0.2224(3) 1.44777(17)
C7 C 0.9030(4) -0.3307(4) 1.5093(2)
H6 H 0.8326 -0.3825 1.4929
H7 H 0.8968 -0.2773 1.5554
C8 C 0.9985(4) -0.4424(5) 1.5287(2)
H8 H 1.0699 -0.3907 1.5364
H9 H 0.9924 -0.4887 1.5767
C9 C 1.0247(3) 0.4439(3) 1.25603(15)
H10 H 1.0081 0.4012 1.3000
C10 C 1.0459(2) 0.5918(3) 1.25644(15)
H11 H 1.0417 0.6475 1.2995
C11 C 1.0736(2) 0.6568(3) 1.19160(15)
C12 C 1.0774(2) 0.5692(3) 1.12821(14)
C13 C 1.0520(2) 0.4222(3) 1.13274(15)
H12 H 1.0522 0.3644 1.0899
C14 C 1.1030(2) 0.8166(3) 1.19238(14)
C15 C 1.1069(2) 0.6284(3) 1.05505(15)
H13 H 0.889(3) 0.041(5) 1.079(2)
H14 H 0.907(3) 0.169(5) 1.065(2)
H15 H 1.153(3) 0.070(5) 1.315(2)
H16 H 1.185(3) 0.191(4) 1.308(2)
H17 H 1.194(4) 0.050(5) 1.155(2)
H18 H 1.211(3) 0.183(5) 1.141(2)
O1B O 1.0019(2) -0.7695(3) 1.58536(15)
N1B N 1.1115(2) -1.1112(3) 1.73008(14)
N2B N 1.1618(2) -0.8825(3) 1.56809(15)
H1B H 1.2142 -0.8806 1.5413
C1B C 1.1947(3) -1.2063(4) 1.73280(19)
H2B H 1.2049 -1.2767 1.7710
C2B C 1.2668(3) -1.2048(4) 1.6812(2)
H3B H 1.3226 -1.2754 1.6832
C3B C 1.2548(3) -1.0968(4) 1.62625(19)
H4B H 1.3037 -1.0929 1.5916
C4B C 1.1696(2) -0.9942(3) 1.62302(17)
C5B C 1.0991(3) -1.0062(3) 1.67627(17)
H5B H 1.0409 -0.9391 1.6747
C6B C 1.0818(3) -0.7776(3) 1.55223(17)
C7B C 1.0970(4) -0.6693(4) 1.4907(2)
H6B H 1.1674 -0.6175 1.5071
H7B H 1.1032 -0.7227 1.4446
C8B C 1.0015(4) -0.5576(5) 1.4713(2)
H8B H 0.9301 -0.6093 1.4636
H9B H 1.0076 -0.5113 1.4233
Zn1B Zn 0.98459(3) -1.12781(3) 1.800394(17)
O2B O 0.97555(16) -1.90289(19) 1.80128(11)
O3B O 0.79801(17) -1.8483(2) 1.81201(13)
O4B O 0.9355(2) -1.7467(2) 1.96897(12)
O5B O 0.8296(2) -1.5521(2) 1.97672(12)
O6B O 1.10380(19) -1.1268(3) 1.90045(12)
O7B O 0.8646(2) -1.1376(3) 1.69587(14)
O8B O 0.8374(2) -1.1223(3) 1.86296(13)
N3B N 0.97280(19) -1.3593(2) 1.80495(12)
C9B C 0.9753(3) -1.4439(3) 1.74397(15)
H10B H 0.9919 -1.4012 1.7000
C10B C 0.9541(2) -1.5918(3) 1.74356(15)
H11B H 0.9583 -1.6475 1.7005
C11B C 0.9264(2) -1.6568(3) 1.80840(15)
C12B C 0.9226(2) -1.5692(3) 1.87179(14)
C13B C 0.9480(2) -1.4222(3) 1.86726(15)
H12B H 0.9478 -1.3644 1.9101
C14B C 0.8970(2) -1.8166(3) 1.80762(14)
C15B C 0.8931(2) -1.6284(3) 1.94495(15)
H13B H 1.111(3) -1.041(5) 1.921(2)
H14B H 1.093(3) -1.169(5) 1.935(2)
H15B H 0.847(3) -1.070(5) 1.685(2)
H16B H 0.815(3) -1.191(4) 1.692(2)
H17B H 0.806(4) -1.050(5) 1.845(2)
H18B H 0.789(3) -1.183(5) 1.859(2)
Zn1_2 Zn 1.01541(3) 1.12781(3) 1.199606(17)
Zn1B_2 Zn 0.98459(3) -2.12781(3) 1.800394(17)
O2_2 O 1.02445(16) -0.09711(19) 1.19872(11)
O2B_2 O 0.97555(16) -0.90289(19) 1.80128(11)
O9 O 0.8552(3) -0.1341(3) 1.03034(18)
H19 H 0.930(5) -0.163(6) 1.034(3)
H20 H 0.844(4) -0.122(5) 0.986(3)
O10 O 1.3016(2) 0.3640(3) 1.11987(15)
H21 H 1.262(4) 0.397(5) 1.085(3)
H22 H 1.344(4) 0.319(6) 1.092(3)
loop_
_geom_bond_atom_site_label_1
_geom_bond_atom_site_label_2
_geom_bond_site_symmetry_1
_geom_bond_site_symmetry_2
Zn1 O6 1_555 1_555
O1 C6 1_555 1_555
O2 C14 1_555 1_555
O3 C14 1_555 1_555
O4 C15 1_555 1_555
O5 C15 1_555 1_555
O6 H13 1_555 1_555
O7 Zn1 1_555 1_555
O8 Zn1 1_555 1_555
N1 Zn1 1_555 1_555
N2 H1 1_555 1_555
N3 Zn1 1_555 1_555
C1 N1 1_555 1_555
H2 C1 1_555 1_555
C2 C1 1_555 1_555
H3 C2 1_555 1_555
C3 C2 1_555 1_555
H4 C3 1_555 1_555
C4 N2 1_555 1_555
C5 N1 1_555 1_555
H5 C5 1_555 1_555
C6 N2 1_555 1_555
C7 C6 1_555 1_555
H6 C7 1_555 1_555
H7 C7 1_555 1_555
C8 C7 1_555 1_555
H8 C8 1_555 1_555
H9 C8 1_555 1_555
C9 N3 1_555 1_555
H10 C9 1_555 1_555
C10 C9 1_555 1_555
H11 C10 1_555 1_555
C11 C10 1_555 1_555
C12 C11 1_555 1_555
C13 N3 1_555 1_555
H12 C13 1_555 1_555
C14 C11 1_555 1_555
C15 C12 1_555 1_555
H14 O6 1_555 1_555
H15 O7 1_555 1_555
H16 O7 1_555 1_555
H17 O8 1_555 1_555
H18 O8 1_555 1_555
O9 H19 1_555 1_555
H20 O9 1_555 1_555
O10 H21 1_555 1_555
H22 O10 1_555 1_555
O1B C6B 1_555 1_555
N1B C1B 1_555 1_555
N2B H1B 1_555 1_555
C1B H2B 1_555 1_555
C2B C1B 1_555 1_555
H3B C2B 1_555 1_555
C3B C2B 1_555 1_555
H4B C3B 1_555 1_555
C4B N2B 1_555 1_555
C5B N1B 1_555 1_555
H5B C5B 1_555 1_555
C6B N2B 1_555 1_555
C7B C6B 1_555 1_555
H6B C7B 1_555 1_555
H7B C7B 1_555 1_555
C8B C8 1_555 1_555
H8B C8B 1_555 1_555
H9B C8B 1_555 1_555
Zn1B N1B 1_555 1_555
O2B C14B 1_555 1_555
O3B C14B 1_555 1_555
O4B C15B 1_555 1_555
O5B C15B 1_555 1_555
O6B Zn1B 1_555 1_555
O7B Zn1B 1_555 1_555
O8B Zn1B 1_555 1_555
N3B Zn1B 1_555 1_555
C9B N3B 1_555 1_555
H10B C9B 1_555 1_555
C10B C9B 1_555 1_555
H11B C10B 1_555 1_555
C11B C10B 1_555 1_555
C12B C11B 1_555 1_555
C13B N3B 1_555 1_555
H12B C13B 1_555 1_555
C14B C11B 1_555 1_555
C15B C12B 1_555 1_555
H13B O6B 1_555 1_555
H14B O6B 1_555 1_555
H15B O7B 1_555 1_555
H16B O7B 1_555 1_555
H17B O8B 1_555 1_555
H18B O8B 1_555 1_555
Zn1_2 O2 1_555 1_555
Zn1B_2 O2B 1_555 1_555
O2_2 Zn1 1_555 1_555
O2B_2 Zn1B 1_555 1_555
C3 C4 1_555 1_555
C4 C5 1_555 1_555
C12 C13 1_555 1_555
C3B C4B 1_555 1_555
C4B C5B 1_555 1_555
C7B C8B 1_555 1_555
C12B C13B 1_555 1_555

#END
