
#######################################################################
#
#                 Cambridge Crystallographic Data Centre
#                                CCDC 
#
#######################################################################
#
# If this CIF has been generated from an entry in the Cambridge 
# Structural Database, then it will include bibliographic, chemical, 
# crystal, experimental, refinement or atomic coordinate data resulting 
# from the CCDC's data processing and validation procedures.
#
#######################################################################

data_YIMLAJ
_symmetry_cell_setting           monoclinic
_symmetry_space_group_name_H-M   'P 21/n'
_symmetry_Int_Tables_number      14
_space_group_name_Hall           '-P 2yn'
loop_
_symmetry_equiv_pos_site_id
_symmetry_equiv_pos_as_xyz
1 x,y,z
2 1/2-x,1/2+y,1/2-z
3 -x,-y,-z
4 1/2+x,1/2-y,1/2+z
_cell_length_a                   11.6305(17)
_cell_length_b                   15.905(3)
_cell_length_c                   13.6118(15)
_cell_angle_alpha                90
_cell_angle_beta                 95.368(14)
_cell_angle_gamma                90
_cell_volume                     2506.91
loop_
_atom_site_label
_atom_site_type_symbol
_atom_site_fract_x
_atom_site_fract_y
_atom_site_fract_z
Zn1 Zn 0.77024(2) 0.782489(17) -0.080590(17)
O1 O 1.09500(16) 1.01821(15) 0.29748(14)
O2 O 0.82734(15) 0.48144(13) 0.26252(12)
O3 O 0.60513(14) 0.79095(12) -0.07408(11)
O4 O 0.64221(15) 0.78366(13) 0.08695(11)
O5 O 0.23547(18) 0.73166(16) -0.23612(13)
H1 H 0.1902 0.7235 -0.2851
O6 O 0.08507(15) 0.69300(13) -0.15708(13)
O7 O 0.15933(17) 0.66074(16) 0.21385(14)
O8 O 0.31275(14) 0.72549(12) 0.28692(11)
N1 N 0.88633(16) 0.85876(12) -0.00329(14)
N2 N 0.92084(18) 0.97620(14) 0.22641(14)
H2 H 0.8483 0.9759 0.2341
N3 N 0.81958(17) 0.66584(13) -0.02575(13)
N4 N 0.95666(17) 0.56626(13) 0.19842(14)
H3 H 1.0192 0.5946 0.2114
C1 C 0.8676(2) 0.89644(15) 0.08169(16)
H4 H 0.7935 0.8950 0.1021
C2 C 0.9536(2) 0.93749(16) 0.14069(17)
C3 C 1.0648(2) 0.93802(17) 0.11080(19)
H5 H 1.1253 0.9638 0.1489
C4 C 1.0826(2) 0.89903(17) 0.0227(2)
H6 H 1.1560 0.8991 0.0008
C5 C 0.9937(2) 0.86032(16) -0.03267(18)
H7 H 1.0077 0.8346 -0.0917
C6 C 0.9913(2) 1.01430(17) 0.29885(17)
C7 C 0.9282(2) 1.05257(18) 0.38031(17)
H8 H 0.8542 1.0248 0.3820
H9 H 0.9136 1.1115 0.3658
C8 C 0.9958(2) 1.04495(16) 0.48138(17)
H10 H 1.0731 1.0669 0.4776
H11 H 0.9587 1.0791 0.5283
C9 C 0.8702(2) 0.65365(16) 0.06585(17)
H12 H 0.8876 0.7002 0.1058
C10 C 0.89729(19) 0.57465(15) 0.10297(16)
C11 C 0.8699(2) 0.50537(16) 0.04430(18)
H13 H 0.8871 0.4515 0.0677
C12 C 0.8167(2) 0.51727(16) -0.04941(18)
H14 H 0.7965 0.4715 -0.0899
C13 C 0.7938(2) 0.59804(16) -0.08214(17)
H15 H 0.7592 0.6059 -0.1459
C14 C 0.9213(2) 0.51672(16) 0.26993(17)
C15 C 1.0076(2) 0.50590(19) 0.35878(17)
H16 H 1.0640 0.5509 0.3593
H17 H 1.0483 0.4532 0.3524
C16 C 0.9549(2) 0.50608(17) 0.45630(17)
H18 H 0.8981 0.4614 0.4561
H19 H 0.9154 0.5591 0.4637
C17 C 0.5740(2) 0.78007(15) 0.01221(15)
C18 C 0.44972(19) 0.75984(14) 0.01823(15)
C19 C 0.3773(2) 0.74951(15) -0.06788(16)
H20 H 0.4052 0.7596 -0.1286
C20 C 0.2640(2) 0.72441(15) -0.06414(15)
C21 C 0.1844(2) 0.71437(16) -0.15609(17)
C22 C 0.2227(2) 0.70809(15) 0.02676(16)
H21 H 0.1471 0.6897 0.0294
C23 C 0.29423(19) 0.71920(14) 0.11371(15)
C24 C 0.2494(2) 0.69972(15) 0.21153(16)
C25 C 0.40704(19) 0.74638(14) 0.10933(15)
H22 H 0.4543 0.7556 0.1673
O1B O 0.90500(16) 0.98179(15) 0.70252(14)
N1B N 1.11367(16) 1.14124(12) 1.00329(14)
N2B N 1.07916(18) 1.02380(14) 0.77359(14)
H2B H 1.1517 1.0241 0.7659
C1B C 1.1324(2) 1.10356(15) 0.91831(16)
H4B H 1.2065 1.1050 0.8979
C2B C 1.0464(2) 1.06251(16) 0.85931(17)
C3B C 0.9352(2) 1.06198(17) 0.88920(19)
H5B H 0.8747 1.0362 0.8511
C4B C 0.9174(2) 1.10097(17) 0.9773(2)
H6B H 0.8440 1.1009 0.9992
C5B C 1.0063(2) 1.13968(16) 1.03267(18)
H7B H 0.9923 1.1654 1.0917
C6B C 1.0087(2) 0.98570(17) 0.70115(17)
C7B C 1.0718(2) 0.94743(18) 0.61969(17)
H8B H 1.1458 0.9752 0.6180
H9B H 1.0864 0.8885 0.6342
C8B C 1.0042(2) 0.95505(16) 0.51862(17)
H10B H 0.9269 0.9331 0.5224
H11B H 1.0413 0.9209 0.4717
O2B O 1.17266(15) 0.51856(13) 0.73748(12)
N3B N 1.18042(17) 0.33416(13) 1.02575(13)
N4B N 1.04334(17) 0.43374(13) 0.80158(14)
H3B H 0.9808 0.4054 0.7886
C9B C 1.1298(2) 0.34635(16) 0.93415(17)
H12B H 1.1124 0.2998 0.8942
C10B C 1.10271(19) 0.42535(15) 0.89703(16)
C11B C 1.1301(2) 0.49463(16) 0.95570(18)
H13B H 1.1129 0.5485 0.9323
C12B C 1.1833(2) 0.48273(16) 1.04941(18)
H14B H 1.2035 0.5285 1.0899
C13B C 1.2062(2) 0.40196(16) 1.08214(17)
H15B H 1.2408 0.3941 1.1459
C14B C 1.0787(2) 0.48328(16) 0.73007(17)
C15B C 0.9924(2) 0.49410(19) 0.64122(17)
H16B H 0.9360 0.4491 0.6407
H17B H 0.9517 0.5468 0.6476
C16B C 1.0451(2) 0.49392(17) 0.54370(17)
H18B H 1.1019 0.5386 0.5439
H19B H 1.0846 0.4409 0.5363
Zn1B Zn 1.22976(2) 0.217511(17) 1.080590(17)
O3B O 1.39487(14) 0.20905(12) 1.07408(11)
O4B O 1.35779(15) 0.21634(13) 0.91305(11)
O5B O 1.76453(18) 0.26834(16) 1.23612(13)
H1B H 1.8098 0.2765 1.2851
O6B O 1.91493(15) 0.30700(13) 1.15708(13)
O7B O 1.84067(17) 0.33926(16) 0.78615(14)
O8B O 1.68725(14) 0.27451(12) 0.71308(11)
C17B C 1.4260(2) 0.21993(15) 0.98779(15)
C18B C 1.55028(19) 0.24016(14) 0.98177(15)
C19B C 1.6227(2) 0.25049(15) 1.06788(16)
H20B H 1.5948 0.2404 1.1286
C20B C 1.7360(2) 0.27559(15) 1.06414(15)
C21B C 1.8156(2) 0.28563(16) 1.15609(17)
C22B C 1.7773(2) 0.29191(15) 0.97324(16)
H21B H 1.8529 0.3103 0.9706
C23B C 1.70577(19) 0.28080(14) 0.88629(15)
C24B C 1.7506(2) 0.30028(15) 0.78847(16)
C25B C 1.59296(19) 0.25362(14) 0.89067(15)
H22B H 1.5457 0.2444 0.8327
Zn1A Zn 1.72976(2) 0.282489(17) 0.580590(17)
Zn1B_2 Zn 1.22976(2) 1.217511(17) 1.080590(17)
Zn1C Zn 0.27024(2) 0.717511(17) 0.419410(17)
O8A O 1.18725(14) 0.22549(12) 1.21308(11)
O8C O 0.81275(14) 0.77451(12) -0.21308(11)
N1B_2 N 1.11367(16) 0.14124(12) 1.00329(14)
loop_
_geom_bond_atom_site_label_1
_geom_bond_atom_site_label_2
_geom_bond_site_symmetry_1
_geom_bond_site_symmetry_2
Zn1 O3 1_555 1_555
O1 C6 1_555 1_555
O2 C14 1_555 1_555
O3 C17 1_555 1_555
O4 C17 1_555 1_555
O5 H1 1_555 1_555
O6 C21 1_555 1_555
O7 C24 1_555 1_555
O8 C24 1_555 1_555
N1 Zn1 1_555 1_555
N2 H2 1_555 1_555
N3 Zn1 1_555 1_555
N4 H3 1_555 1_555
C1 N1 1_555 1_555
H4 C1 1_555 1_555
C2 N2 1_555 1_555
C3 C2 1_555 1_555
H5 C3 1_555 1_555
C4 C3 1_555 1_555
H6 C4 1_555 1_555
C5 N1 1_555 1_555
H7 C5 1_555 1_555
C6 N2 1_555 1_555
C7 C6 1_555 1_555
H8 C7 1_555 1_555
H9 C7 1_555 1_555
C8 C7 1_555 1_555
H10 C8 1_555 1_555
H11 C8 1_555 1_555
C9 N3 1_555 1_555
H12 C9 1_555 1_555
C10 N4 1_555 1_555
C11 C10 1_555 1_555
H13 C11 1_555 1_555
C12 C11 1_555 1_555
H14 C12 1_555 1_555
C13 N3 1_555 1_555
H15 C13 1_555 1_555
C14 N4 1_555 1_555
C15 C14 1_555 1_555
H16 C15 1_555 1_555
H17 C15 1_555 1_555
C16 C15 1_555 1_555
H18 C16 1_555 1_555
H19 C16 1_555 1_555
C17 C18 1_555 1_555
C18 C19 1_555 1_555
C19 H20 1_555 1_555
C20 C19 1_555 1_555
C21 O5 1_555 1_555
C22 C20 1_555 1_555
H21 C22 1_555 1_555
C23 C22 1_555 1_555
C24 C23 1_555 1_555
C25 C18 1_555 1_555
H22 C25 1_555 1_555
O1B C6B 1_555 1_555
N1B C1B 1_555 1_555
N2B H2B 1_555 1_555
C1B H4B 1_555 1_555
C2B N2B 1_555 1_555
C3B C2B 1_555 1_555
H5B C3B 1_555 1_555
C4B C3B 1_555 1_555
H6B C4B 1_555 1_555
C5B N1B 1_555 1_555
H7B C5B 1_555 1_555
C6B N2B 1_555 1_555
C7B C6B 1_555 1_555
H8B C7B 1_555 1_555
H9B C7B 1_555 1_555
C8B C8 1_555 1_555
H10B C8B 1_555 1_555
H11B C8B 1_555 1_555
O2B C14B 1_555 1_555
N3B C9B 1_555 1_555
N4B H3B 1_555 1_555
C9B H12B 1_555 1_555
C10B N4B 1_555 1_555
C11B C10B 1_555 1_555
H13B C11B 1_555 1_555
C12B C11B 1_555 1_555
H14B C12B 1_555 1_555
C13B N3B 1_555 1_555
H15B C13B 1_555 1_555
C14B N4B 1_555 1_555
C15B C14B 1_555 1_555
H16B C15B 1_555 1_555
H17B C15B 1_555 1_555
C16B C16 1_555 1_555
H18B C16B 1_555 1_555
H19B C16B 1_555 1_555
Zn1B N3B 1_555 1_555
O3B Zn1B 1_555 1_555
O4B C17B 1_555 1_555
O5B H1B 1_555 1_555
O6B C21B 1_555 1_555
O7B C24B 1_555 1_555
O8B C24B 1_555 1_555
C17B O3B 1_555 1_555
C18B C17B 1_555 1_555
C19B C18B 1_555 1_555
H20B C19B 1_555 1_555
C20B C19B 1_555 1_555
C21B O5B 1_555 1_555
C22B C20B 1_555 1_555
H21B C22B 1_555 1_555
C23B C22B 1_555 1_555
C24B C23B 1_555 1_555
C25B C18B 1_555 1_555
H22B C25B 1_555 1_555
Zn1A O8B 1_555 1_555
Zn1B_2 N1B 1_555 1_555
Zn1C O8 1_555 1_555
O8A Zn1B 1_555 1_555
O8C Zn1 1_555 1_555
N1B_2 Zn1B 1_555 1_555
C1 C2 1_555 1_555
C4 C5 1_555 1_555
C9 C10 1_555 1_555
C12 C13 1_555 1_555
C20 C21 1_555 1_555
C23 C25 1_555 1_555
C1B C2B 1_555 1_555
C4B C5B 1_555 1_555
C7B C8B 1_555 1_555
C9B C10B 1_555 1_555
C12B C13B 1_555 1_555
C15B C16B 1_555 1_555
C20B C21B 1_555 1_555
C23B C25B 1_555 1_555

#END
