
#######################################################################
#
#                 Cambridge Crystallographic Data Centre
#                                CCDC 
#
#######################################################################
#
# If this CIF has been generated from an entry in the Cambridge 
# Structural Database, then it will include bibliographic, chemical, 
# crystal, experimental, refinement or atomic coordinate data resulting 
# from the CCDC's data processing and validation procedures.
#
#######################################################################

data_YIMLOV
_symmetry_cell_setting           monoclinic
_symmetry_space_group_name_H-M   'P 21/a'
_symmetry_Int_Tables_number      14
_space_group_name_Hall           '-P 2yab'
loop_
_symmetry_equiv_pos_site_id
_symmetry_equiv_pos_as_xyz
1 x,y,z
2 1/2-x,1/2+y,-z
3 -x,-y,-z
4 1/2+x,1/2-y,z
_cell_length_a                   21.227(3)
_cell_length_b                   7.735(3)
_cell_length_c                   11.132(2)
_cell_angle_alpha                90
_cell_angle_beta                 104.170(14)
_cell_angle_gamma                90
_cell_volume                     1772.16
loop_
_atom_site_label
_atom_site_type_symbol
_atom_site_fract_x
_atom_site_fract_y
_atom_site_fract_z
V1 V 0.24779(5) 0.3798(1) 0.0045(1)
O1 O 0.2431(2) 0.4144(6) 0.1756(4)
C1 C 0.2839(3) 0.4893(8) 0.2683(6)
C2 C 0.2632(3) 0.5253(9) 0.3770(6)
C3 C 0.3031(4) 0.6132(10) 0.4742(6)
C4 C 0.3659(5) 0.6622(12) 0.4715(7)
C5 C 0.3871(4) 0.6196(11) 0.3697(7)
C6 C 0.3475(3) 0.5365(9) 0.2668(6)
C7 C 0.3763(3) 0.4877(9) 0.1677(6)
N1 N 0.3484(2) 0.4191(7) 0.0643(5)
C8 C 0.3913(3) 0.3577(9) -0.0129(6)
C9 C 0.3765(3) 0.4286(9) -0.1448(6)
C10 C 0.3803(3) 0.6249(8) -0.1475(7)
C11 C 0.4272(4) 0.3488(12) -0.2080(8)
C12 C 0.3108(3) 0.3619(9) -0.2192(6)
N2 N 0.2537(2) 0.4246(7) -0.1776(5)
C13 C 0.2077(3) 0.4927(9) -0.2623(6)
C14 C 0.1440(3) 0.5351(8) -0.2531(6)
C15 C 0.1020(4) 0.6126(10) -0.3571(7)
C16 C 0.0374(4) 0.6370(13) -0.3634(9)
C17 C 0.0126(4) 0.5818(11) -0.2655(9)
C18 C 0.0517(3) 0.5079(10) -0.1632(7)
C19 C 0.1190(3) 0.4844(8) -0.1529(6)
O2 O 0.1547(2) 0.4162(6) -0.0496(4)
O3 O 0.2514(2) 0.1701(5) -0.0030(4)
H1 H 0.2201 0.4874 0.3834
H2 H 0.2869 0.6420 0.5469
H3 H 0.3938 0.7255 0.5407
H4 H 0.4320 0.6479 0.3684
H5 H 0.4230 0.5092 0.1814
H6 H 0.4360 0.3902 0.0284
H7 H 0.3878 0.2315 -0.0180
H8 H 0.3481 0.6743 -0.1075
H9 H 0.3714 0.6647 -0.2336
H10 H 0.4239 0.6622 -0.1032
H11 H 0.4709 0.3869 -0.1644
H12 H 0.4180 0.3866 -0.2945
H13 H 0.4248 0.2224 -0.2048
H14 H 0.3114 0.2354 -0.2139
H15 H 0.3055 0.3970 -0.3057
H16 H 0.2179 0.5181 -0.3417
H17 H 0.1195 0.6499 -0.4266
H18 H 0.0090 0.6925 -0.4359
H19 H -0.0338 0.5965 -0.2701
H20 H 0.0330 0.4701 -0.0954
O3A O 0.2486(2) 0.6701(5) 0.0030(4)
V1A V 0.25221(5) -0.1202(1) -0.0045(1)
V1A_2 V 0.25221(5) 0.8798(1) -0.0045(1)
O1A O 0.2569(2) -0.0856(6) -0.1756(4)
N1A N 0.1516(2) -0.0809(7) -0.0643(5)
N2A N 0.2463(2) -0.0754(7) 0.1776(5)
O2A O 0.3453(2) -0.0838(6) 0.0496(4)
O3A_2 O 0.2486(2) -0.3299(5) 0.0030(4)
C1A C 0.2161(3) -0.0107(8) -0.2683(6)
C7A C 0.1237(3) -0.0123(9) -0.1677(6)
C8A C 0.1087(3) -0.1423(9) 0.0129(6)
C12A C 0.1892(3) -0.1381(9) 0.2192(6)
C13A C 0.2923(3) -0.0073(9) 0.2623(6)
C19A C 0.3810(3) -0.0156(8) 0.1529(6)
C2A C 0.2368(3) 0.0253(9) -0.3770(6)
C6A C 0.1525(3) 0.0365(9) -0.2668(6)
H5A H 0.0770 0.0092 -0.1814
C9A C 0.1235(3) -0.0714(9) 0.1448(6)
H6A H 0.0640 -0.1098 -0.0284
H7A H 0.1122 -0.2685 0.0180
H14A H 0.1886 -0.2646 0.2139
H15A H 0.1945 -0.1030 0.3057
C14A C 0.3560(3) 0.0351(8) 0.2531(6)
H16A H 0.2821 0.0181 0.3417
C18A C 0.4483(3) 0.0079(10) 0.1632(7)
C3A C 0.1969(4) 0.1132(10) -0.4742(6)
H1A H 0.2799 -0.0126 -0.3834
C5A C 0.1129(4) 0.1196(11) -0.3697(7)
C10A C 0.1197(3) 0.1249(8) 0.1475(7)
C11A C 0.0728(4) -0.1512(12) 0.2080(8)
C15A C 0.3980(4) 0.1126(10) 0.3571(7)
C17A C 0.4874(4) 0.0818(11) 0.2655(9)
H20A H 0.4670 -0.0299 0.0954
C4A C 0.1341(5) 0.1622(12) -0.4715(7)
H2A H 0.2131 0.1420 -0.5469
H4A H 0.0680 0.1479 -0.3684
H8A H 0.1519 0.1743 0.1075
H9A H 0.1286 0.1647 0.2336
H10A H 0.0761 0.1622 0.1032
H11A H 0.0291 -0.1131 0.1644
H12A H 0.0820 -0.1134 0.2945
H13A H 0.0752 -0.2776 0.2048
C16A C 0.4626(4) 0.1370(13) 0.3634(9)
H17A H 0.3805 0.1499 0.4266
H19A H 0.5338 0.0965 0.2701
H3A H 0.1062 0.2255 -0.5407
H18A H 0.4910 0.1925 0.4359
loop_
_geom_bond_atom_site_label_1
_geom_bond_atom_site_label_2
_geom_bond_site_symmetry_1
_geom_bond_site_symmetry_2
V1 O1 1_555 1_555
O1 C1 1_555 1_555
C1 C2 1_555 1_555
C2 C3 1_555 1_555
C3 C4 1_555 1_555
C4 C5 1_555 1_555
C5 C6 1_555 1_555
C6 C1 1_555 1_555
C7 C6 1_555 1_555
N1 V1 1_555 1_555
C8 N1 1_555 1_555
C9 C8 1_555 1_555
C10 C9 1_555 1_555
C11 C9 1_555 1_555
C12 C9 1_555 1_555
N2 V1 1_555 1_555
C13 N2 1_555 1_555
C14 C13 1_555 1_555
C15 C14 1_555 1_555
C16 C15 1_555 1_555
C17 C16 1_555 1_555
C18 C17 1_555 1_555
C19 C14 1_555 1_555
O2 V1 1_555 1_555
O3 V1 1_555 1_555
H1 C2 1_555 1_555
H2 C3 1_555 1_555
H3 C4 1_555 1_555
H4 C5 1_555 1_555
H5 C7 1_555 1_555
H6 C8 1_555 1_555
H7 C8 1_555 1_555
H8 C10 1_555 1_555
H9 C10 1_555 1_555
H10 C10 1_555 1_555
H11 C11 1_555 1_555
H12 C11 1_555 1_555
H13 C11 1_555 1_555
H14 C12 1_555 1_555
H15 C12 1_555 1_555
H16 C13 1_555 1_555
H17 C15 1_555 1_555
H18 C16 1_555 1_555
H19 C17 1_555 1_555
H20 C18 1_555 1_555
O3A V1 1_555 1_555
V1A O3 1_555 1_555
V1A_2 O3A 1_555 1_555
O1A V1A 1_555 1_555
N1A V1A 1_555 1_555
N2A V1A 1_555 1_555
O2A V1A 1_555 1_555
O3A_2 V1A 1_555 1_555
C1A O1A 1_555 1_555
C7A N1A 1_555 1_555
C8A N1A 1_555 1_555
C12A N2A 1_555 1_555
C13A N2A 1_555 1_555
C19A O2A 1_555 1_555
C2A C1A 1_555 1_555
C6A C1A 1_555 1_555
H5A C7A 1_555 1_555
C9A C8A 1_555 1_555
H6A C8A 1_555 1_555
H7A C8A 1_555 1_555
H14A C12A 1_555 1_555
H15A C12A 1_555 1_555
C14A C13A 1_555 1_555
H16A C13A 1_555 1_555
C18A C19A 1_555 1_555
C3A C2A 1_555 1_555
H1A C2A 1_555 1_555
C5A C6A 1_555 1_555
C10A C9A 1_555 1_555
C11A C9A 1_555 1_555
C15A C14A 1_555 1_555
C17A C18A 1_555 1_555
H20A C18A 1_555 1_555
C4A C3A 1_555 1_555
H2A C3A 1_555 1_555
H4A C5A 1_555 1_555
H8A C10A 1_555 1_555
H9A C10A 1_555 1_555
H10A C10A 1_555 1_555
H11A C11A 1_555 1_555
H12A C11A 1_555 1_555
H13A C11A 1_555 1_555
C16A C15A 1_555 1_555
H17A C15A 1_555 1_555
H19A C17A 1_555 1_555
H3A C4A 1_555 1_555
H18A C16A 1_555 1_555
C7 N1 1_555 1_555
C12 N2 1_555 1_555
C18 C19 1_555 1_555
C19 O2 1_555 1_555
C7A C6A 1_555 1_555
C12A C9A 1_555 1_555
C19A C14A 1_555 1_555
C5A C4A 1_555 1_555
C17A C16A 1_555 1_555

#END
