
#######################################################################
#
#                 Cambridge Crystallographic Data Centre
#                                CCDC 
#
#######################################################################
#
# If this CIF has been generated from an entry in the Cambridge 
# Structural Database, then it will include bibliographic, chemical, 
# crystal, experimental, refinement or atomic coordinate data resulting 
# from the CCDC's data processing and validation procedures.
#
#######################################################################

data_YIMLEN
_symmetry_cell_setting           monoclinic
_symmetry_space_group_name_H-M   'P 21'
_symmetry_Int_Tables_number      4
_space_group_name_Hall           'P 2yb'
loop_
_symmetry_equiv_pos_site_id
_symmetry_equiv_pos_as_xyz
1 x,y,z
2 -x,1/2+y,-z
_cell_length_a                   11.3111(2)
_cell_length_b                   13.8834(3)
_cell_length_c                   16.8506(3)
_cell_angle_alpha                90
_cell_angle_beta                 99.992(1)
_cell_angle_gamma                90
_cell_volume                     2606.02
loop_
_atom_site_label
_atom_site_type_symbol
_atom_site_fract_x
_atom_site_fract_y
_atom_site_fract_z
Cd1 Cd -0.48022(4) 0.71067(4) 0.25313(3)
Cd2 Cd 0.01613(4) 0.58392(3) 0.28183(3)
O1 O 0.0099(4) 0.8693(4) 0.5734(3)
O2 O 0.5076(5) 1.0426(5) 0.3509(3)
O3 O -0.4964(5) 0.4779(5) -0.0530(3)
O4 O -1.0199(5) 0.2750(4) 0.1046(3)
O5 O -0.3929(5) 0.8513(4) 0.2296(3)
O6 O -0.2782(5) 0.7343(4) 0.1993(3)
O7 O -0.0353(4) 0.7382(3) 0.2998(3)
O8 O 0.0128(4) 0.7311(3) 0.1797(3)
O9 O 0.1797(5) 0.8728(4) 0.2696(3)
O10 O 0.1907(4) 0.9862(4) 0.1790(3)
H1 H 0.2642 0.9907 0.1873
O11 O -0.4898(4) 0.5532(4) 0.2312(3)
O12 O -0.5309(4) 0.5377(3) 0.3554(3)
O13 O -0.7740(4) 0.5530(4) 0.2447(3)
O14 O -0.8880(4) 0.4397(4) 0.2812(3)
H2 H -0.9231 0.4011 0.2455
O15 O -0.3074(5) 0.2801(4) 0.2381(3)
O16 O -0.3207(5) 0.4078(4) 0.3146(4)
O17 O -0.6547(4) 0.7286(4) 0.3039(2)
H3 H -0.6945 0.6764 0.2972
H4 H -0.6956 0.7744 0.2793
O18 O -0.1267(4) 0.5212(4) 0.3511(3)
H5 H -0.1908 0.5464 0.3259
H6 H -0.1367 0.4619 0.3395
N1 N -0.3787(5) 0.7429(4) 0.3853(3)
N2 N -0.0656(5) 0.8069(5) 0.4523(4)
H7 H -0.0460 0.7897 0.4073
N3 N 0.5674(5) 1.0615(5) 0.4825(3)
H8 H 0.5426 1.0632 0.5279
N4 N 0.8789(5) 1.0910(5) 0.5770(3)
N5 N -0.1103(5) 0.5407(4) 0.1612(3)
N6 N -0.4259(5) 0.5055(4) 0.0794(3)
H9 H -0.4478 0.5110 0.1255
N7 N -1.0877(5) 0.2600(4) -0.0298(3)
H10 H -1.0636 0.2592 -0.0755
N8 N -1.3997(5) 0.2287(5) -0.1206(3)
C1 C -0.4296(7) 0.7719(6) 0.4486(5)
H11 H -0.5121 0.7652 0.4457
C2 C -0.3628(6) 0.8109(6) 0.5168(4)
H12 H -0.4004 0.8288 0.5595
C3 C -0.2398(6) 0.8242(6) 0.5231(4)
H13 H -0.1942 0.8511 0.5689
C4 C -0.1877(7) 0.7956(6) 0.4580(5)
C5 C -0.2599(7) 0.7540(5) 0.3927(4)
H14 H -0.2234 0.7322 0.3507
C6 C 0.0233(6) 0.8406(6) 0.5076(5)
C7 C 0.1465(6) 0.8408(6) 0.4823(5)
H15 H 0.2046 0.8125 0.5250
H16 H 0.1433 0.8010 0.4346
C8 C 0.1877(6) 0.9402(6) 0.4644(5)
H17 H 0.1768 0.9828 0.5083
H18 H 0.1373 0.9639 0.4158
C9 C 0.3177(7) 0.9449(6) 0.4533(5)
H19 H 0.3685 0.9218 0.5019
H20 H 0.3289 0.9024 0.4095
C10 C 0.3564(6) 1.0451(6) 0.4351(5)
H21 H 0.3515 1.0864 0.4809
H22 H 0.3015 1.0702 0.3891
C11 C 0.4835(7) 1.0483(6) 0.4172(5)
C12 C 0.6915(6) 1.0727(6) 0.4857(4)
C13 C 0.7502(6) 1.0779(7) 0.4209(4)
H23 H 0.7079 1.0733 0.3686
C14 C 0.8722(6) 1.0901(7) 0.4350(4)
H24 H 0.9132 1.0947 0.3918
C15 C 0.9345(6) 1.0954(6) 0.5126(4)
H25 H 1.0175 1.1023 0.5208
C16 C 0.7607(6) 1.0780(6) 0.5615(4)
H26 H 0.7214 1.0721 0.6053
C17 C -0.0592(6) 0.5339(5) 0.0954(4)
H27 H 0.0237 0.5395 0.1006
C18 C -0.1261(7) 0.5187(6) 0.0207(5)
H28 H -0.0885 0.5158 -0.0241
C19 C -0.2485(7) 0.5077(6) 0.0113(4)
H29 H -0.2943 0.4971 -0.0394
C20 C -0.3013(6) 0.5125(5) 0.0781(4)
C21 C -0.2262(6) 0.5310(5) 0.1517(4)
H30 H -0.2619 0.5367 0.1972
C22 C -0.5144(7) 0.4909(6) 0.0146(5)
C23 C -0.6396(6) 0.4841(6) 0.0362(4)
H31 H -0.6355 0.5009 0.0925
H32 H -0.6920 0.5300 0.0041
C24 C -0.6915(6) 0.3845(5) 0.0217(5)
H33 H -0.6468 0.3405 0.0605
H34 H -0.6821 0.3633 -0.0317
C25 C -0.8258(6) 0.3797(6) 0.0288(5)
H35 H -0.8360 0.4031 0.0814
H36 H -0.8714 0.4214 -0.0115
C26 C -0.8745(6) 0.2778(5) 0.0174(4)
H37 H -0.8219 0.2346 0.0525
H38 H -0.8744 0.2578 -0.0378
C27 C -1.0009(7) 0.2691(6) 0.0355(5)
C28 C -1.2118(7) 0.2516(5) -0.0331(4)
C29 C -1.2702(7) 0.2621(5) 0.0314(4)
H39 H -1.2275 0.2756 0.0825
C30 C -1.3925(7) 0.2524(5) 0.0190(5)
H40 H -1.4331 0.2575 0.0623
C31 C -1.4556(7) 0.2350(6) -0.0570(4)
H41 H -1.5385 0.2274 -0.0643
C32 C -1.2789(6) 0.2342(5) -0.1078(4)
H42 H -1.2394 0.2260 -0.1514
C33 C -0.5283(6) 0.5074(6) 0.2862(4)
C34 C -0.5773(6) 0.4077(5) 0.2644(4)
C35 C -0.7001(6) 0.3899(5) 0.2528(4)
C36 C -0.7921(7) 0.4672(6) 0.2602(4)
C37 C -0.7435(7) 0.2976(6) 0.2327(4)
H43 H -0.8257 0.2863 0.2257
C38 C -0.6681(6) 0.2229(6) 0.2231(4)
H44 H -0.6989 0.1618 0.2094
C39 C -0.5459(6) 0.2392(6) 0.2340(4)
H45 H -0.4938 0.1892 0.2271
C40 C -0.5011(6) 0.3303(6) 0.2551(4)
C41 C -0.3675(7) 0.3444(6) 0.2720(5)
C42 C -0.2963(7) 0.8209(6) 0.2106(4)
C43 C -0.2024(7) 0.8949(6) 0.2044(4)
C44 C -0.2415(7) 0.9898(6) 0.1883(5)
H46 H -0.3228 1.0040 0.1830
C45 C -0.1607(7) 1.0627(6) 0.1803(4)
H47 H -0.1881 1.1252 0.1689
C46 C -0.0411(7) 1.0427(6) 0.1890(4)
H48 H 0.0129 1.0915 0.1830
C47 C 0.0006(6) 0.9488(6) 0.2071(4)
C48 C 0.1321(7) 0.9316(6) 0.2215(4)
C49 C -0.0780(7) 0.8746(5) 0.2136(4)
C50 C -0.0308(6) 0.7741(5) 0.2327(4)
Cd1A Cd -1.51978(4) 0.21067(4) -0.25313(3)
Cd2_2 Cd -0.98387(4) 0.58392(3) 0.28183(3)
Cd2A Cd 0.98387(4) 1.08392(3) 0.71817(3)
O13_2 O 0.2260(4) 0.5530(4) 0.2447(3)
O14_2 O 0.1120(4) 0.4397(4) 0.2812(3)
N4A N 0.1211(5) 0.5910(5) 0.4230(3)
N8A N -0.6003(5) 0.7287(5) 0.1206(3)
O19 O 0.4124(5) 0.9787(4) 0.2065(3)
H49 H 0.4436 0.9451 0.1733
H50 H 0.4670 1.0047 0.2408
O20 O -0.0744(5) 0.2897(4) 0.2602(3)
H51 H -0.1414 0.2979 0.2292
H52 H -0.0732 0.3201 0.3041
loop_
_geom_bond_atom_site_label_1
_geom_bond_atom_site_label_2
_geom_bond_site_symmetry_1
_geom_bond_site_symmetry_2
Cd1 O5 1_555 1_555
Cd2 O7 1_555 1_555
O1 C6 1_555 1_555
O2 C11 1_555 1_555
O3 C22 1_555 1_555
O4 C27 1_555 1_555
O5 C42 1_555 1_555
O6 Cd1 1_555 1_555
O7 C50 1_555 1_555
O8 Cd2 1_555 1_555
O9 C48 1_555 1_555
O10 H1 1_555 1_555
O11 Cd1 1_555 1_555
O12 C33 1_555 1_555
O13 C36 1_555 1_555
O14 H2 1_555 1_555
O15 C41 1_555 1_555
O16 C41 1_555 1_555
O17 Cd1 1_555 1_555
H3 O17 1_555 1_555
H4 O17 1_555 1_555
O18 Cd2 1_555 1_555
H5 O18 1_555 1_555
H6 O18 1_555 1_555
N1 Cd1 1_555 1_555
N2 H7 1_555 1_555
N3 H8 1_555 1_555
N4 C15 1_555 1_555
N5 Cd2 1_555 1_555
N6 H9 1_555 1_555
N7 H10 1_555 1_555
N8 C31 1_555 1_555
C1 N1 1_555 1_555
H11 C1 1_555 1_555
C2 C1 1_555 1_555
H12 C2 1_555 1_555
C3 C2 1_555 1_555
H13 C3 1_555 1_555
C4 N2 1_555 1_555
C5 N1 1_555 1_555
H14 C5 1_555 1_555
C6 N2 1_555 1_555
C7 C6 1_555 1_555
H15 C7 1_555 1_555
H16 C7 1_555 1_555
C8 C7 1_555 1_555
H17 C8 1_555 1_555
H18 C8 1_555 1_555
C9 C8 1_555 1_555
H19 C9 1_555 1_555
H20 C9 1_555 1_555
C10 C9 1_555 1_555
H21 C10 1_555 1_555
H22 C10 1_555 1_555
C11 N3 1_555 1_555
C12 N3 1_555 1_555
C13 C12 1_555 1_555
H23 C13 1_555 1_555
C14 C13 1_555 1_555
H24 C14 1_555 1_555
C15 C14 1_555 1_555
H25 C15 1_555 1_555
C16 N4 1_555 1_555
H26 C16 1_555 1_555
C17 N5 1_555 1_555
H27 C17 1_555 1_555
C18 C17 1_555 1_555
H28 C18 1_555 1_555
C19 C18 1_555 1_555
H29 C19 1_555 1_555
C20 N6 1_555 1_555
C21 N5 1_555 1_555
H30 C21 1_555 1_555
C22 N6 1_555 1_555
C23 C22 1_555 1_555
H31 C23 1_555 1_555
H32 C23 1_555 1_555
C24 C23 1_555 1_555
H33 C24 1_555 1_555
H34 C24 1_555 1_555
C25 C24 1_555 1_555
H35 C25 1_555 1_555
H36 C25 1_555 1_555
C26 C25 1_555 1_555
H37 C26 1_555 1_555
H38 C26 1_555 1_555
C27 N7 1_555 1_555
C28 N7 1_555 1_555
C29 C28 1_555 1_555
H39 C29 1_555 1_555
C30 C29 1_555 1_555
H40 C30 1_555 1_555
C31 C30 1_555 1_555
H41 C31 1_555 1_555
C32 N8 1_555 1_555
H42 C32 1_555 1_555
C33 O11 1_555 1_555
C34 C33 1_555 1_555
C35 C34 1_555 1_555
C36 O14 1_555 1_555
C37 C35 1_555 1_555
H43 C37 1_555 1_555
C38 C37 1_555 1_555
H44 C38 1_555 1_555
C39 C38 1_555 1_555
H45 C39 1_555 1_555
C40 C34 1_555 1_555
C41 C40 1_555 1_555
C42 O6 1_555 1_555
C43 C42 1_555 1_555
C44 C43 1_555 1_555
H46 C44 1_555 1_555
C45 C44 1_555 1_555
H47 C45 1_555 1_555
C46 C45 1_555 1_555
H48 C46 1_555 1_555
C47 C46 1_555 1_555
C48 O10 1_555 1_555
C49 C43 1_555 1_555
C50 O8 1_555 1_555
O19 H49 1_555 1_555
H50 O19 1_555 1_555
O20 H51 1_555 1_555
H52 O20 1_555 1_555
Cd1A N8 1_555 1_555
Cd2_2 O13 1_555 1_555
Cd2A N4 1_555 1_555
O13_2 Cd2 1_555 1_555
O14_2 Cd2 1_555 1_555
N4A Cd2 1_555 1_555
N8A Cd1 1_555 1_555
O14 Cd2_2 1_555 1_555
C3 C4 1_555 1_555
C4 C5 1_555 1_555
C10 C11 1_555 1_555
C12 C16 1_555 1_555
C19 C20 1_555 1_555
C20 C21 1_555 1_555
C26 C27 1_555 1_555
C28 C32 1_555 1_555
C35 C36 1_555 1_555
C39 C40 1_555 1_555
C47 C48 1_555 1_555
C47 C49 1_555 1_555
C49 C50 1_555 1_555

#END
