
#######################################################################
#
#                 Cambridge Crystallographic Data Centre
#                                CCDC 
#
#######################################################################
#
# If this CIF has been generated from an entry in the Cambridge 
# Structural Database, then it will include bibliographic, chemical, 
# crystal, experimental, refinement or atomic coordinate data resulting 
# from the CCDC's data processing and validation procedures.
#
#######################################################################

data_YIMNUF
_symmetry_cell_setting           triclinic
_symmetry_space_group_name_H-M   'P -1'
_symmetry_Int_Tables_number      2
_space_group_name_Hall           '-P 1'
loop_
_symmetry_equiv_pos_site_id
_symmetry_equiv_pos_as_xyz
1 x,y,z
2 -x,-y,-z
_cell_length_a                   6.89270(10)
_cell_length_b                   8.2597(2)
_cell_length_c                   8.7663(2)
_cell_angle_alpha                82.6710(11)
_cell_angle_beta                 69.5270(9)
_cell_angle_gamma                70.4690(11)
_cell_volume                     440.622
loop_
_atom_site_label
_atom_site_type_symbol
_atom_site_fract_x
_atom_site_fract_y
_atom_site_fract_z
Np1 Np 0.0000 0.5000 0.5000
O1 O 0.2140(2) 0.51342(17) 0.55791(17)
O2 O -0.0722(3) 0.3212(2) 1.0641(2)
H1 H -0.049(6) 0.228(3) 1.115(4)
H2 H -0.075(7) 0.397(3) 1.123(4)
O3 O -0.0392(2) 0.26182(16) 0.69256(15)
O4 O 0.0082(2) -0.00892(17) 0.78328(16)
O5 O 0.2327(2) 0.44037(17) 0.21528(16)
O6 O 0.5128(2) 0.29160(17) 0.01152(16)
C1 C 0.0490(3) 0.0986(2) 0.6762(2)
C2 C 0.3795(3) 0.3024(2) 0.15036(19)
C3 C 0.2133(3) 0.0468(2) 0.5106(2)
C4 C 0.3371(3) -0.1223(2) 0.4682(2)
H3 H 0.3187 -0.2135 0.5440
C5 C 0.4888(3) -0.1556(2) 0.3124(2)
H4 H 0.5755 -0.2699 0.2799
C6 C 0.5112(3) -0.0179(2) 0.2049(2)
H5 H 0.6156 -0.0359 0.0986
C7 C 0.3764(3) 0.1465(2) 0.25752(19)
N1 N 0.2299(2) 0.17987(18) 0.40717(16)
Li1 Li -0.2239(5) 0.3453(4) 0.9088(4)
O1A O -0.2140(2) 0.48658(17) 0.44209(17)
O2A O 0.0722(3) 0.6788(2) -0.0641(2)
H1A H 0.049(6) 0.772(3) -0.115(4)
H2A H 0.075(7) 0.603(3) -0.123(4)
O3A O 0.0392(2) 0.73818(16) 0.30744(15)
O4A O -0.0082(2) 1.00892(17) 0.21672(16)
O5A O -0.2327(2) 0.55963(17) 0.78472(16)
O6A O -0.5128(2) 0.70840(17) 0.98848(16)
C1A C -0.0490(3) 0.9014(2) 0.3238(2)
C2A C -0.3795(3) 0.6976(2) 0.84964(19)
C3A C -0.2133(3) 0.9532(2) 0.4894(2)
C4A C -0.3371(3) 1.1223(2) 0.5318(2)
H3A H -0.3187 1.2135 0.4560
C5A C -0.4888(3) 1.1556(2) 0.6876(2)
H4A H -0.5755 1.2699 0.7201
C6A C -0.5112(3) 1.0179(2) 0.7951(2)
H5A H -0.6156 1.0359 0.9014
C7A C -0.3764(3) 0.8535(2) 0.74248(19)
N1A N -0.2299(2) 0.82013(18) 0.59283(16)
Li1A Li 0.2239(5) 0.6547(4) 0.0912(4)
O6_2 O -0.4872(2) 0.29160(17) 1.01152(16)
O6A_2 O 0.4872(2) 0.70840(17) -0.01152(16)
Li1_2 Li 0.7761(5) 0.3453(4) -0.0912(4)
Li1A_2 Li -0.7761(5) 0.6547(4) 1.0912(4)
loop_
_geom_bond_atom_site_label_1
_geom_bond_atom_site_label_2
_geom_bond_site_symmetry_1
_geom_bond_site_symmetry_2
Np1 O1 1_555 1_555
O2 H1 1_555 1_555
H2 O2 1_555 1_555
O3 Np1 1_555 1_555
O4 C1 1_555 1_555
O5 Np1 1_555 1_555
O6 C2 1_555 1_555
C1 O3 1_555 1_555
C2 O5 1_555 1_555
C3 C1 1_555 1_555
C4 C3 1_555 1_555
H3 C4 1_555 1_555
C5 C4 1_555 1_555
H4 C5 1_555 1_555
C6 C5 1_555 1_555
H5 C6 1_555 1_555
C7 C2 1_555 1_555
N1 Np1 1_555 1_555
Li1 O2 1_555 1_555
O1A Np1 1_555 1_555
O2A H1A 1_555 1_555
H2A O2A 1_555 1_555
O3A Np1 1_555 1_555
O4A C1A 1_555 1_555
O5A Np1 1_555 1_555
O6A C2A 1_555 1_555
C1A O3A 1_555 1_555
C2A O5A 1_555 1_555
C3A C1A 1_555 1_555
C4A C3A 1_555 1_555
H3A C4A 1_555 1_555
C5A C4A 1_555 1_555
H4A C5A 1_555 1_555
C6A C5A 1_555 1_555
H5A C6A 1_555 1_555
C7A C2A 1_555 1_555
N1A Np1 1_555 1_555
Li1A O5 1_555 1_555
O6_2 Li1 1_555 1_555
O6A_2 Li1A 1_555 1_555
Li1_2 O6 1_555 1_555
Li1A_2 O6A 1_555 1_555
O3 Li1 1_555 1_555
C3 N1 1_555 1_555
C6 C7 1_555 1_555
C7 N1 1_555 1_555
Li1 O5A 1_555 1_555
O2A Li1A 1_555 1_555
O3A Li1A 1_555 1_555
C3A N1A 1_555 1_555
C6A C7A 1_555 1_555
C7A N1A 1_555 1_555

#END
