
#######################################################################
#
#                 Cambridge Crystallographic Data Centre
#                                CCDC 
#
#######################################################################
#
# If this CIF has been generated from an entry in the Cambridge 
# Structural Database, then it will include bibliographic, chemical, 
# crystal, experimental, refinement or atomic coordinate data resulting 
# from the CCDC's data processing and validation procedures.
#
#######################################################################

data_YIMPAN
_symmetry_cell_setting           triclinic
_symmetry_space_group_name_H-M   'P -1'
_symmetry_Int_Tables_number      2
_space_group_name_Hall           '-P 1'
loop_
_symmetry_equiv_pos_site_id
_symmetry_equiv_pos_as_xyz
1 x,y,z
2 -x,-y,-z
_cell_length_a                   6.9386(5)
_cell_length_b                   8.2817(5)
_cell_length_c                   8.6914(6)
_cell_angle_alpha                82.743(4)
_cell_angle_beta                 70.158(3)
_cell_angle_gamma                70.163(4)
_cell_volume                     441.876
loop_
_atom_site_label
_atom_site_type_symbol
_atom_site_fract_x
_atom_site_fract_y
_atom_site_fract_z
U1 U 0.0000 0.5000 0.5000
O1 O 0.2067(3) 0.5155(2) 0.5688(2)
O2 O -0.0725(4) 0.3231(3) 1.0635(3)
H1 H -0.102(9) 0.404(8) 1.128(7)
H2 H -0.056(8) 0.231(6) 1.123(6)
O3 O -0.0389(3) 0.2609(2) 0.6925(2)
O4 O 0.0092(3) -0.0099(2) 0.7827(2)
O5 O 0.2454(3) 0.4417(2) 0.2189(2)
O6 O 0.5156(3) 0.2899(2) 0.0133(2)
N1 N 0.2319(3) 0.1794(3) 0.4081(2)
C1 C 0.0498(4) 0.0973(3) 0.6759(3)
C2 C 0.3847(4) 0.3019(3) 0.1523(3)
C3 C 0.2143(4) 0.0461(3) 0.5108(3)
C4 C 0.3360(4) -0.1228(3) 0.4686(3)
H3 H 0.3171 -0.2140 0.5443
C5 C 0.4864(4) -0.1557(3) 0.3129(3)
H4 H 0.5718 -0.2701 0.2801
C6 C 0.5098(4) -0.0189(3) 0.2061(3)
H5 H 0.6132 -0.0375 0.0999
C7 C 0.3786(4) 0.1457(3) 0.2584(3)
Li1 Li -0.2263(7) 0.3445(6) 0.9077(5)
O1A O -0.2067(3) 0.4845(2) 0.4312(2)
O2A O 0.0725(4) 0.6769(3) -0.0635(3)
H1A H 0.102(9) 0.596(8) -0.128(7)
H2A H 0.056(8) 0.769(6) -0.123(6)
O3A O 0.0389(3) 0.7391(2) 0.3075(2)
O4A O -0.0092(3) 1.0099(2) 0.2173(2)
O5A O -0.2454(3) 0.5583(2) 0.7811(2)
O6A O -0.5156(3) 0.7101(2) 0.9867(2)
N1A N -0.2319(3) 0.8206(3) 0.5919(2)
C1A C -0.0498(4) 0.9027(3) 0.3241(3)
C2A C -0.3847(4) 0.6981(3) 0.8477(3)
C3A C -0.2143(4) 0.9539(3) 0.4892(3)
C4A C -0.3360(4) 1.1228(3) 0.5314(3)
H3A H -0.3171 1.2140 0.4557
C5A C -0.4864(4) 1.1557(3) 0.6871(3)
H4A H -0.5718 1.2701 0.7199
C6A C -0.5098(4) 1.0189(3) 0.7939(3)
H5A H -0.6132 1.0375 0.9001
C7A C -0.3786(4) 0.8543(3) 0.7416(3)
Li1A Li 0.2263(7) 0.6555(6) 0.0923(5)
O6_2 O -0.4844(3) 0.2899(2) 1.0133(2)
O6A_2 O 0.4844(3) 0.7101(2) -0.0133(2)
Li1_2 Li 0.7737(7) 0.3445(6) -0.0923(5)
Li1A_2 Li -0.7737(7) 0.6555(6) 1.0923(5)
loop_
_geom_bond_atom_site_label_1
_geom_bond_atom_site_label_2
_geom_bond_site_symmetry_1
_geom_bond_site_symmetry_2
U1 O1 1_555 1_555
O2 H1 1_555 1_555
H2 O2 1_555 1_555
O3 U1 1_555 1_555
O4 C1 1_555 1_555
O5 U1 1_555 1_555
O6 C2 1_555 1_555
N1 U1 1_555 1_555
C1 O3 1_555 1_555
C2 O5 1_555 1_555
C3 N1 1_555 1_555
C4 C3 1_555 1_555
H3 C4 1_555 1_555
C5 C4 1_555 1_555
H4 C5 1_555 1_555
C6 C5 1_555 1_555
H5 C6 1_555 1_555
C7 N1 1_555 1_555
Li1 O2 1_555 1_555
O1A U1 1_555 1_555
O2A H1A 1_555 1_555
H2A O2A 1_555 1_555
O3A U1 1_555 1_555
O4A C1A 1_555 1_555
O5A U1 1_555 1_555
O6A C2A 1_555 1_555
N1A U1 1_555 1_555
C1A O3A 1_555 1_555
C2A O5A 1_555 1_555
C3A N1A 1_555 1_555
C4A C3A 1_555 1_555
H3A C4A 1_555 1_555
C5A C4A 1_555 1_555
H4A C5A 1_555 1_555
C6A C5A 1_555 1_555
H5A C6A 1_555 1_555
C7A N1A 1_555 1_555
Li1A O5 1_555 1_555
O6_2 Li1 1_555 1_555
O6A_2 Li1A 1_555 1_555
Li1_2 O6 1_555 1_555
Li1A_2 O6A 1_555 1_555
O3 Li1 1_555 1_555
C1 C3 1_555 1_555
C2 C7 1_555 1_555
C6 C7 1_555 1_555
Li1 O5A 1_555 1_555
O2A Li1A 1_555 1_555
O3A Li1A 1_555 1_555
C1A C3A 1_555 1_555
C2A C7A 1_555 1_555
C6A C7A 1_555 1_555

#END
