
#######################################################################
#
#                 Cambridge Crystallographic Data Centre
#                                CCDC 
#
#######################################################################
#
# If this CIF has been generated from an entry in the Cambridge 
# Structural Database, then it will include bibliographic, chemical, 
# crystal, experimental, refinement or atomic coordinate data resulting 
# from the CCDC's data processing and validation procedures.
#
#######################################################################

data_YIMSUK
_symmetry_cell_setting           monoclinic
_symmetry_space_group_name_H-M   'P 21/c'
_symmetry_Int_Tables_number      14
_space_group_name_Hall           '-P 2ybc'
loop_
_symmetry_equiv_pos_site_id
_symmetry_equiv_pos_as_xyz
1 x,y,z
2 -x,1/2+y,1/2-z
3 -x,-y,-z
4 x,1/2-y,1/2+z
_cell_length_a                   10.764(2)
_cell_length_b                   12.106(2)
_cell_length_c                   7.1736(13)
_cell_angle_alpha                90
_cell_angle_beta                 92.363(3)
_cell_angle_gamma                90
_cell_volume                     933.99
loop_
_atom_site_label
_atom_site_type_symbol
_atom_site_fract_x
_atom_site_fract_y
_atom_site_fract_z
Cs1 Cs 0.06440(3) 0.85798(3) 0.23256(5)
O1 O 0.0497(4) 0.5887(3) 0.3081(6)
N1 N 0.2198(4) 0.6326(4) 0.1428(7)
C1 C 0.1653(5) 0.5722(4) 0.2764(8)
C2 C 0.2367(6) 0.4947(5) 0.3828(9)
H1 H 0.1985 0.4523 0.4761
C3 C 0.3610(6) 0.4803(5) 0.3523(9)
H2 H 0.4087 0.4277 0.4229
C4 C 0.4159(6) 0.5438(5) 0.2165(9)
H3 H 0.5018 0.5362 0.1938
C5 C 0.3424(6) 0.6186(5) 0.1151(9)
C6 C 0.3959(6) 0.6902(6) -0.0319(10)
H4 H 0.3687 0.6630 -0.1556
H5 H 0.4869 0.6880 -0.0195
H6 H 0.3672 0.7663 -0.0166
C7 C -0.2282(6) 0.6579(6) 0.1116(11)
H7 H -0.2856 0.6899 0.0169
H8 H -0.2357 0.6976 0.2297
H9 H -0.2486 0.5798 0.1295
O2 O -0.1060(4) 0.6670(5) 0.0528(7)
H10 H -0.080(9) 0.632(7) 0.147(8)
Cs1A Cs -0.06440(3) 0.35798(3) 0.26744(5)
Cs1C Cs 0.06440(3) 0.64202(3) -0.26744(5)
Cs1C_2 Cs 0.06440(3) 0.64202(3) 0.73256(5)
O1A O -0.0497(4) 1.0887(3) 0.1919(6)
O1C O 0.0497(4) 0.9113(3) -0.1919(6)
N1C N 0.2198(4) 0.8674(4) 0.6428(7)
O2C O -0.1060(4) 0.8330(5) 0.5528(7)
loop_
_geom_bond_atom_site_label_1
_geom_bond_atom_site_label_2
_geom_bond_site_symmetry_1
_geom_bond_site_symmetry_2
Cs1 O1 1_555 1_555
O1 C1 1_555 1_555
N1 Cs1 1_555 1_555
C1 N1 1_555 1_555
C2 C1 1_555 1_555
H1 C2 1_555 1_555
C3 C2 1_555 1_555
H2 C3 1_555 1_555
C4 C3 1_555 1_555
H3 C4 1_555 1_555
C5 N1 1_555 1_555
C6 C5 1_555 1_555
H4 C6 1_555 1_555
H5 C6 1_555 1_555
H6 C6 1_555 1_555
C7 H7 1_555 1_555
H8 C7 1_555 1_555
H9 C7 1_555 1_555
O2 Cs1 1_555 1_555
H10 O2 1_555 1_555
Cs1A O1 1_555 1_555
Cs1C N1 1_555 1_555
Cs1C_2 O1 1_555 1_555
O1A Cs1 1_555 1_555
O1C Cs1 1_555 1_555
N1C Cs1 1_555 1_555
O2C Cs1 1_555 1_555
C4 C5 1_555 1_555
C7 O2 1_555 1_555
O2 Cs1C 1_555 1_555
Cs1C O1C 1_555 1_555
Cs1C_2 N1C 1_555 1_555
Cs1C_2 O2C 1_555 1_555

#END
