
#######################################################################
#
#                 Cambridge Crystallographic Data Centre
#                                CCDC 
#
#######################################################################
#
# If this CIF has been generated from an entry in the Cambridge 
# Structural Database, then it will include bibliographic, chemical, 
# crystal, experimental, refinement or atomic coordinate data resulting 
# from the CCDC's data processing and validation procedures.
#
#######################################################################

data_YIMSIY
_symmetry_cell_setting           monoclinic
_symmetry_space_group_name_H-M   'P 21/c'
_symmetry_Int_Tables_number      14
_space_group_name_Hall           '-P 2ybc'
loop_
_symmetry_equiv_pos_site_id
_symmetry_equiv_pos_as_xyz
1 x,y,z
2 -x,1/2+y,1/2-z
3 -x,-y,-z
4 x,1/2-y,1/2+z
_cell_length_a                   13.9109(16)
_cell_length_b                   7.8661(9)
_cell_length_c                   7.0235(8)
_cell_angle_alpha                90
_cell_angle_beta                 98.8733(15)
_cell_angle_gamma                90
_cell_volume                     759.345
loop_
_atom_site_label
_atom_site_type_symbol
_atom_site_fract_x
_atom_site_fract_y
_atom_site_fract_z
Rb1 Rb 0.42923(2) 0.41085(3) 0.22194(3)
O1 O 0.37561(15) 0.4459(2) 0.6218(3)
N1 N 0.27157(16) 0.5266(3) 0.8276(3)
C1 C 0.2880(2) 0.4483(3) 0.6626(4)
C2 C 0.2092(2) 0.3709(4) 0.5405(4)
H1 H 0.2203 0.3122 0.4277
C3 C 0.1169(2) 0.3813(4) 0.5861(4)
H2 H 0.0639 0.3303 0.5044
C4 C 0.1009(2) 0.4668(4) 0.7525(4)
H3 H 0.0372 0.4773 0.7844
C5 C 0.1799(2) 0.5355(3) 0.8692(4)
C6 C 0.1683(3) 0.6275(4) 1.0531(5)
H4 H 0.2080 0.5713 1.1626
H5 H 0.0998 0.6252 1.0707
H6 H 0.1896 0.7457 1.0453
O2 O 0.57754(14) 0.2583(3) 0.0206(3)
H7 H 0.598(2) 0.168(3) -0.023(5)
H8 H 0.622(2) 0.326(5) 0.066(6)
Rb1_2 Rb 0.42923(2) 0.41085(3) 1.22194(3)
Rb1A Rb 0.57077(2) -0.08915(3) 0.27806(3)
Rb1B Rb 0.57077(2) 0.58915(3) -0.22194(3)
Rb1B_2 Rb 0.57077(2) 0.58915(3) 0.77806(3)
Rb1C Rb 0.42923(2) 0.08915(3) -0.27806(3)
Rb1C_2 Rb 0.42923(2) 0.08915(3) 0.72194(3)
O1B O 0.62439(15) 0.5541(2) 0.3782(3)
O1C O 0.37561(15) 0.0541(2) 0.1218(3)
N1_2 N 0.27157(16) 0.5266(3) -0.1724(3)
C1C C 0.2880(2) 0.0517(3) 0.1626(4)
O2A O 0.42246(14) 0.7583(3) 0.4794(3)
O2B O 0.42246(14) 0.7417(3) -0.0206(3)
O2C O 0.57754(14) 0.2417(3) 0.5206(3)
loop_
_geom_bond_atom_site_label_1
_geom_bond_atom_site_label_2
_geom_bond_site_symmetry_1
_geom_bond_site_symmetry_2
Rb1 O1 1_555 1_555
O1 C1 1_555 1_555
N1 C1 1_555 1_555
C1 C2 1_555 1_555
C2 H1 1_555 1_555
C3 C2 1_555 1_555
H2 C3 1_555 1_555
C4 C3 1_555 1_555
H3 C4 1_555 1_555
C5 N1 1_555 1_555
C6 C5 1_555 1_555
H4 C6 1_555 1_555
H5 C6 1_555 1_555
H6 C6 1_555 1_555
O2 Rb1 1_555 1_555
H7 O2 1_555 1_555
H8 O2 1_555 1_555
Rb1_2 N1 1_555 1_555
Rb1A O2 1_555 1_555
Rb1B O2 1_555 1_555
Rb1B_2 O1 1_555 1_555
Rb1C O2 1_555 1_555
Rb1C_2 O1 1_555 1_555
O1B Rb1 1_555 1_555
O1C Rb1 1_555 1_555
N1_2 Rb1 1_555 1_555
C1C Rb1 1_555 1_555
O2A Rb1 1_555 1_555
O2B Rb1 1_555 1_555
O2C Rb1 1_555 1_555
C1 Rb1C_2 1_555 1_555
C4 C5 1_555 1_555
Rb1A O1C 1_555 1_555
Rb1A O2C 1_555 1_555
Rb1B O2B 1_555 1_555
Rb1B_2 O1B 1_555 1_555
Rb1B_2 O2A 1_555 1_555
Rb1B_2 O2C 1_555 1_555
Rb1C O1C 1_555 1_555
Rb1C_2 O2C 1_555 1_555
O1C C1C 1_555 1_555

#END
