
#######################################################################
#
#                 Cambridge Crystallographic Data Centre
#                                CCDC 
#
#######################################################################
#
# If this CIF has been generated from an entry in the Cambridge 
# Structural Database, then it will include bibliographic, chemical, 
# crystal, experimental, refinement or atomic coordinate data resulting 
# from the CCDC's data processing and validation procedures.
#
#######################################################################

data_YIMTOE
_symmetry_cell_setting           triclinic
_symmetry_space_group_name_H-M   'P -1'
_symmetry_Int_Tables_number      2
_space_group_name_Hall           '-P 1'
loop_
_symmetry_equiv_pos_site_id
_symmetry_equiv_pos_as_xyz
1 x,y,z
2 -x,-y,-z
_cell_length_a                   7.668(2)
_cell_length_b                   8.492(2)
_cell_length_c                   9.174(2)
_cell_angle_alpha                96.90(3)
_cell_angle_beta                 114.06(3)
_cell_angle_gamma                107.49(3)
_cell_volume                     499.658
loop_
_atom_site_label
_atom_site_type_symbol
_atom_site_fract_x
_atom_site_fract_y
_atom_site_fract_z
Cu1 Cu 0.04784(9) 0.17971(7) 0.48404(7)
Br1 Br 0.30555(7) 0.05897(5) 0.66728(5)
N1 N 0.1329(6) 0.2132(5) 0.2987(5)
C1 C 0.0564(7) 0.2948(5) 0.1841(5)
C2 C 0.0823(7) 0.2858(6) 0.0426(6)
H1 H 0.0218 0.3407 -0.0371
C3 C 0.1976(8) 0.1958(6) 0.0182(6)
H2 H 0.2184 0.1890 -0.0772
C4 C 0.2808(7) 0.1167(6) 0.1369(6)
H3 H 0.3621 0.0558 0.1251
C5 C 0.2443(7) 0.1270(6) 0.2737(6)
H4 H 0.3007 0.0706 0.3534
N2 N -0.0970(6) 0.6194(5) 0.3394(5)
N3 N 0.0398(6) 0.5465(5) 0.3400(5)
C6 C -0.0584(7) 0.3969(6) 0.2157(5)
C7 C -0.2635(7) 0.3728(6) 0.1294(6)
H5 H -0.3703 0.2814 0.0349
C8 C -0.2790(7) 0.5139(6) 0.2127(6)
H6 H -0.4042 0.5320 0.1823
C9 C 0.2604(7) 0.6366(6) 0.4488(6)
H7 H 0.2834 0.7064 0.5530
H8 H 0.3216 0.7113 0.3943
H9 H 0.3252 0.5529 0.4724
Cu1A Cu -0.04784(9) -0.17971(7) 0.51596(7)
Cu1A_2 Cu -0.04784(9) 0.82029(7) 0.51596(7)
Br1A Br -0.30555(7) -0.05897(5) 0.33272(5)
N2A N 0.0970(6) 0.3806(5) 0.6606(5)
loop_
_geom_bond_atom_site_label_1
_geom_bond_atom_site_label_2
_geom_bond_site_symmetry_1
_geom_bond_site_symmetry_2
Cu1 Br1 1_555 1_555
Br1 Cu1A 1_555 1_555
N1 Cu1 1_555 1_555
C1 N1 1_555 1_555
C2 C1 1_555 1_555
H1 C2 1_555 1_555
C3 C2 1_555 1_555
H2 C3 1_555 1_555
C4 C3 1_555 1_555
H3 C4 1_555 1_555
C5 N1 1_555 1_555
H4 C5 1_555 1_555
N2 N3 1_555 1_555
N3 C6 1_555 1_555
C6 C1 1_555 1_555
C7 C6 1_555 1_555
H5 C7 1_555 1_555
C8 N2 1_555 1_555
H6 C8 1_555 1_555
C9 N3 1_555 1_555
H7 C9 1_555 1_555
H8 C9 1_555 1_555
H9 C9 1_555 1_555
Cu1A Br1A 1_555 1_555
Cu1A_2 N2 1_555 1_555
Br1A Cu1 1_555 1_555
N2A Cu1 1_555 1_555
C4 C5 1_555 1_555
C7 C8 1_555 1_555

#END
