
#######################################################################
#
#                 Cambridge Crystallographic Data Centre
#                                CCDC 
#
#######################################################################
#
# If this CIF has been generated from an entry in the Cambridge 
# Structural Database, then it will include bibliographic, chemical, 
# crystal, experimental, refinement or atomic coordinate data resulting 
# from the CCDC's data processing and validation procedures.
#
#######################################################################

data_YIMTAR
_symmetry_cell_setting           monoclinic
_symmetry_space_group_name_H-M   'P 21/c'
_symmetry_Int_Tables_number      14
_space_group_name_Hall           '-P 2ybc'
loop_
_symmetry_equiv_pos_site_id
_symmetry_equiv_pos_as_xyz
1 x,y,z
2 -x,1/2+y,1/2-z
3 -x,-y,-z
4 x,1/2-y,1/2+z
_cell_length_a                   11.6376(10)
_cell_length_b                   24.980(2)
_cell_length_c                   7.2431(6)
_cell_angle_alpha                90
_cell_angle_beta                 100.7564(11)
_cell_angle_gamma                90
_cell_volume                     2068.62
loop_
_atom_site_label
_atom_site_type_symbol
_atom_site_fract_x
_atom_site_fract_y
_atom_site_fract_z
Cs1 Cs 0.56862(2) 0.42740(2) 0.25243(3)
Cs2 Cs 0.60813(2) 0.32213(2) 0.77849(3)
O1 O 0.6394(2) 0.30188(9) 0.3731(3)
N1 N 0.7738(2) 0.33596(10) 0.2112(4)
C1 C 0.7479(3) 0.30827(11) 0.3595(5)
C2 C 0.8394(3) 0.28671(14) 0.4963(5)
H1 H 0.8212 0.2671 0.5996
C3 C 0.9532(3) 0.29390(15) 0.4803(5)
H2 H 1.0144 0.2796 0.5724
C4 C 0.9791(3) 0.32247(15) 0.3278(5)
H3 H 1.0579 0.3281 0.3142
C5 C 0.8877(3) 0.34230(13) 0.1974(5)
C6 C 0.9098(4) 0.37228(16) 0.0273(5)
H4 H 0.8889 0.3496 -0.0843
H5 H 0.9928 0.3819 0.0445
H6 H 0.8622 0.4049 0.0110
O2 O 0.5462(2) 0.45504(9) 0.8236(3)
N2 N 0.7094(2) 0.45109(10) 0.6888(4)
C7 C 0.6507(3) 0.47158(12) 0.8187(4)
C8 C 0.7060(3) 0.51065(13) 0.9495(5)
H7 H 0.6655 0.5252 1.0403
C9 C 0.8175(3) 0.52716(13) 0.9439(5)
H8 H 0.8544 0.5531 1.0310
C10 C 0.8765(3) 0.50583(13) 0.8106(5)
H9 H 0.9540 0.5167 0.8051
C11 C 0.8190(3) 0.46827(12) 0.6863(5)
C12 C 0.8786(3) 0.44357(15) 0.5390(6)
H10 H 0.8650 0.4048 0.5348
H11 H 0.9628 0.4506 0.5707
H12 H 0.8467 0.4592 0.4161
O3 O 0.4632(3) 0.30977(13) 0.0943(4)
H13 H 0.525(2) 0.3090(18) 0.174(5)
C13 C 0.3681(5) 0.2973(3) 0.1800(9)
H14 H 0.3847 0.2623 0.2431
H15 H 0.3664 0.3242 0.2799
C14 C 0.2593(6) 0.2948(4) 0.0752(11)
H16 H 0.2368 0.3301 0.0214
H17 H 0.2040 0.2836 0.1546
H18 H 0.2581 0.2687 -0.0263
O4 O 0.4236(3) 0.40245(14) 0.5464(4)
H19 H 0.465(4) 0.4193(18) 0.635(5)
C15 C 0.3039(4) 0.4137(2) 0.5399(7)
H20 H 0.2612 0.4103 0.4088
H21 H 0.2955 0.4512 0.5804
C16 C 0.2525(6) 0.3782(3) 0.6587(9)
H22 H 0.2532 0.3415 0.6110
H23 H 0.1716 0.3892 0.6587
H24 H 0.2976 0.3798 0.7871
Cs1_2 Cs 0.56862(2) 0.42740(2) 1.25243(3)
Cs1B Cs 0.43138(2) 0.57260(2) 0.74757(3)
Cs2_2 Cs 0.60813(2) 0.32213(2) -0.22151(3)
Cs2C Cs 0.60813(2) 0.17787(2) 0.27849(3)
O1C O 0.6394(2) 0.19812(9) 0.8731(3)
N1_2 N 0.7738(2) 0.33596(10) 1.2112(4)
O2_2 O 0.5462(2) 0.45504(9) -0.1764(3)
O2B O 0.4538(2) 0.54496(9) 0.1764(3)
O3_2 O 0.4632(3) 0.30977(13) 1.0943(4)
loop_
_geom_bond_atom_site_label_1
_geom_bond_atom_site_label_2
_geom_bond_site_symmetry_1
_geom_bond_site_symmetry_2
Cs1 O1 1_555 1_555
Cs2 O1 1_555 1_555
O1 C1 1_555 1_555
N1 Cs1 1_555 1_555
C1 N1 1_555 1_555
C2 C1 1_555 1_555
H1 C2 1_555 1_555
C3 C2 1_555 1_555
H2 C3 1_555 1_555
C4 C3 1_555 1_555
H3 C4 1_555 1_555
C5 N1 1_555 1_555
C6 C5 1_555 1_555
H4 C6 1_555 1_555
H5 C6 1_555 1_555
H6 C6 1_555 1_555
O2 Cs2 1_555 1_555
N2 Cs1 1_555 1_555
C7 O2 1_555 1_555
C8 C7 1_555 1_555
H7 C8 1_555 1_555
C9 C8 1_555 1_555
H8 C9 1_555 1_555
C10 C9 1_555 1_555
H9 C10 1_555 1_555
C11 N2 1_555 1_555
C12 C11 1_555 1_555
H10 C12 1_555 1_555
H11 C12 1_555 1_555
H12 C12 1_555 1_555
O3 Cs1 1_555 1_555
H13 O3 1_555 1_555
C13 O3 1_555 1_555
H14 C13 1_555 1_555
H15 C13 1_555 1_555
C14 C13 1_555 1_555
H16 C14 1_555 1_555
H17 C14 1_555 1_555
H18 C14 1_555 1_555
O4 Cs1 1_555 1_555
H19 O4 1_555 1_555
C15 O4 1_555 1_555
H20 C15 1_555 1_555
H21 C15 1_555 1_555
C16 C15 1_555 1_555
H22 C16 1_555 1_555
H23 C16 1_555 1_555
H24 C16 1_555 1_555
Cs1_2 O2 1_555 1_555
Cs1B O2 1_555 1_555
Cs2_2 N1 1_555 1_555
Cs2C O1 1_555 1_555
O1C Cs2 1_555 1_555
N1_2 Cs2 1_555 1_555
O2_2 Cs1 1_555 1_555
O2B Cs1 1_555 1_555
O3_2 Cs2 1_555 1_555
Cs2 N2 1_555 1_555
Cs2 O4 1_555 1_555
C4 C5 1_555 1_555
N2 C7 1_555 1_555
C10 C11 1_555 1_555
O3 Cs2_2 1_555 1_555
Cs1_2 N1_2 1_555 1_555
Cs1_2 O3_2 1_555 1_555
Cs2_2 O2_2 1_555 1_555

#END
