
#######################################################################
#
#                 Cambridge Crystallographic Data Centre
#                                CCDC 
#
#######################################################################
#
# If this CIF has been generated from an entry in the Cambridge 
# Structural Database, then it will include bibliographic, chemical, 
# crystal, experimental, refinement or atomic coordinate data resulting 
# from the CCDC's data processing and validation procedures.
#
#######################################################################

data_YIMWAT
_symmetry_cell_setting           orthorhombic
_symmetry_space_group_name_H-M   'P b c a'
_symmetry_Int_Tables_number      61
_space_group_name_Hall           '-P 2ac 2ab'
loop_
_symmetry_equiv_pos_site_id
_symmetry_equiv_pos_as_xyz
1 x,y,z
2 1/2-x,-y,1/2+z
3 -x,1/2+y,1/2-z
4 1/2+x,1/2-y,-z
5 -x,-y,-z
6 1/2+x,y,1/2-z
7 x,1/2-y,1/2+z
8 1/2-x,1/2+y,z
_cell_length_a                   16.528(15)
_cell_length_b                   8.168(8)
_cell_length_c                   21.62(2)
_cell_angle_alpha                90
_cell_angle_beta                 90
_cell_angle_gamma                90
_cell_volume                     2918.72
loop_
_atom_site_label
_atom_site_type_symbol
_atom_site_fract_x
_atom_site_fract_y
_atom_site_fract_z
Cu1 Cu 0.08460(3) 0.51367(6) 0.25404(2)
N1 N 0.17601(17) 0.4430(4) 0.19280(15)
N2 N 0.2284(2) 0.3425(4) 0.09725(14)
N3 N 0.09191(19) 0.3552(5) 0.11626(17)
H1 H 0.0516 0.3788 0.1398
H2 H 0.0836 0.3152 0.0800
N4 N 0.18803(19) 0.5448(5) 0.30871(16)
N5 N 0.5015(2) 0.2373(6) 0.0004(2)
N6 N 0.0183(2) 0.3157(5) 0.26356(19)
C1 C 0.1679(2) 0.3808(6) 0.1362(2)
C2 C 0.3034(2) 0.3667(5) 0.11905(19)
C3 C 0.3174(2) 0.4245(6) 0.17782(18)
H3 H 0.3699 0.4385 0.1925
C4 C 0.2513(2) 0.4612(5) 0.21446(17)
C5 C 0.2578(2) 0.5216(5) 0.27800(18)
C6 C 0.3320(2) 0.5538(6) 0.3058(2)
H4 H 0.3799 0.5367 0.2842
C7 C 0.3339(3) 0.6111(7) 0.3656(2)
H5 H 0.3830 0.6350 0.3845
C8 C 0.2627(3) 0.6325(6) 0.3969(2)
H6 H 0.2626 0.6685 0.4377
C9 C 0.1913(3) 0.5997(6) 0.3666(2)
H7 H 0.1430 0.6167 0.3876
C10 C 0.5093(3) 0.3442(7) 0.0458(2)
H8 H 0.5600 0.3910 0.0518
C11 C 0.4480(3) 0.3913(6) 0.0848(2)
H9 H 0.4574 0.4679 0.1158
C12 C 0.3718(2) 0.3229(6) 0.07733(19)
C13 C 0.3623(3) 0.2121(6) 0.0310(2)
H10 H 0.3123 0.1636 0.0241
C14 C 0.4284(3) 0.1722(7) -0.0060(2)
H11 H 0.4208 0.0951 -0.0371
C15 C -0.0232(2) 0.2042(5) 0.2576(2)
Cu1B Cu -0.08460(3) 0.01367(6) 0.24596(2)
C15B C 0.0232(2) 0.7042(5) 0.2424(2)
loop_
_geom_bond_atom_site_label_1
_geom_bond_atom_site_label_2
_geom_bond_site_symmetry_1
_geom_bond_site_symmetry_2
Cu1 N1 1_555 1_555
N1 C1 1_555 1_555
N2 C1 1_555 1_555
N3 H1 1_555 1_555
H2 N3 1_555 1_555
N4 Cu1 1_555 1_555
N5 C10 1_555 1_555
N6 Cu1 1_555 1_555
C1 N3 1_555 1_555
C2 N2 1_555 1_555
C3 C2 1_555 1_555
H3 C3 1_555 1_555
C4 N1 1_555 1_555
C5 N4 1_555 1_555
C6 C5 1_555 1_555
H4 C6 1_555 1_555
C7 C6 1_555 1_555
H5 C7 1_555 1_555
C8 C7 1_555 1_555
H6 C8 1_555 1_555
C9 N4 1_555 1_555
H7 C9 1_555 1_555
C10 H8 1_555 1_555
C11 C10 1_555 1_555
H9 C11 1_555 1_555
C12 C2 1_555 1_555
C13 C12 1_555 1_555
H10 C13 1_555 1_555
C14 N5 1_555 1_555
H11 C14 1_555 1_555
C15 N6 1_555 1_555
Cu1B C15 1_555 1_555
C15B Cu1 1_555 1_555
C3 C4 1_555 1_555
C4 C5 1_555 1_555
C8 C9 1_555 1_555
C11 C12 1_555 1_555
C13 C14 1_555 1_555

#END
