
#######################################################################
#
#                 Cambridge Crystallographic Data Centre
#                                CCDC 
#
#######################################################################
#
# If this CIF has been generated from an entry in the Cambridge 
# Structural Database, then it will include bibliographic, chemical, 
# crystal, experimental, refinement or atomic coordinate data resulting 
# from the CCDC's data processing and validation procedures.
#
#######################################################################

data_YINCIJ
_symmetry_cell_setting           monoclinic
_symmetry_space_group_name_H-M   'C 2/c'
_symmetry_Int_Tables_number      15
_space_group_name_Hall           '-C 2yn'
loop_
_symmetry_equiv_pos_site_id
_symmetry_equiv_pos_as_xyz
1 x,y,z
2 -x,y,1/2-z
3 1/2+x,1/2+y,z
4 1/2-x,1/2+y,1/2-z
5 -x,-y,-z
6 x,-y,1/2+z
7 1/2-x,1/2-y,-z
8 1/2+x,1/2-y,1/2+z
_cell_length_a                   27.579
_cell_length_b                   21.701
_cell_length_c                   9.515
_cell_angle_alpha                90
_cell_angle_beta                 106.34
_cell_angle_gamma                90
_cell_volume                     5464.64
loop_
_atom_site_label
_atom_site_type_symbol
_atom_site_fract_x
_atom_site_fract_y
_atom_site_fract_z
Mn1 Mn 0.24615(4) 0.06681(5) 0.56499(11)
O1 O 0.3093(2) 0.0148(3) 0.4997(7)
H1 H 0.3004 -0.0224 0.4788
H2 H 0.3146 0.0323 0.4254
Mn2 Mn 0.2500 0.2500 0.5000
O2 O 0.68386(18) 0.2843(2) 1.0472(6)
O3 O 0.29775(18) 0.1612(2) 0.6036(5)
O4 O 0.30531(18) 0.0864(2) 0.7623(6)
C1 C 0.3216(3) 0.1353(4) 0.7225(8)
C2 C 0.3699(3) 0.1605(3) 0.8162(8)
C3 C 0.3955(3) 0.2065(4) 0.7663(8)
H3 H 0.3805 0.2255 0.6769
C4 C 0.3920(3) 0.1339(4) 0.9492(9)
H4 H 0.3750 0.1024 0.9819
O5 O 0.27083(18) 0.4853(2) 0.8414(7)
O6 O 0.2869(2) 0.4387(3) 0.6539(6)
C5 C 0.3004(3) 0.4588(3) 0.7814(8)
C6 C 0.3539(2) 0.4491(3) 0.8641(7)
C7 C 0.3735(3) 0.4689(3) 1.0084(7)
H5 H 0.3522 0.4878 1.0557
C8 C 0.3867(3) 0.4222(3) 0.7935(8)
H6 H 0.3745 0.4090 0.6970
O7 O 0.68265(17) 0.3852(2) 1.0921(6)
O8 O 0.50632(18) 0.4300(2) 1.0844(7)
O9 O 0.2260(2) 0.2107(3) 0.2848(6)
O10 O 0.51476(18) 0.2090(2) 1.0689(7)
C9 C 0.6086(3) 0.3277(3) 1.0746(7)
C10 C 0.4553(3) 0.4340(3) 1.0110(9)
C11 C 0.5814(2) 0.3801(3) 1.0786(8)
H7 H 0.5966 0.4186 1.0823
C12 C 0.2360(4) 0.1448(5) -0.0520(10)
H8 H 0.2648 0.1199 -0.0048
H9 H 0.2458 0.1753 -0.1119
H10 H 0.2100 0.1191 -0.1120
C13 C 0.5851(3) 0.2702(3) 1.0689(7)
H11 H 0.6031 0.2342 1.0662
C14 C 0.6628(2) 0.3327(3) 1.0698(7)
C15 C 0.5353(2) 0.2674(3) 1.0675(8)
C16 C 0.5312(3) 0.3754(4) 1.0770(8)
C17 C 0.4654(3) 0.1979(4) 0.9828(9)
C18 C 0.4239(2) 0.4611(4) 1.0824(9)
H12 H 0.4363 0.4739 1.1792
N1 N 0.2170(3) 0.1754(3) 0.0594(7)
C19 C 0.4398(3) 0.1528(4) 1.0386(9)
H13 H 0.4537 0.1359 1.1309
C20 C 0.2963(4) 0.1565(4) 0.2465(11)
H14 H 0.3075 0.1555 0.3515
H15 H 0.3189 0.1817 0.2107
H16 H 0.2960 0.1155 0.2088
C21 C 0.5079(3) 0.3185(4) 1.0728(9)
H17 H 0.4743 0.3157 1.0735
C22 C 0.4441(3) 0.2249(4) 0.8500(9)
H18 H 0.4616 0.2552 0.8151
C23 C 0.4373(3) 0.4150(4) 0.8668(10)
H19 H 0.4592 0.3975 0.8194
C24 C 0.1654(4) 0.2003(4) 0.0094(10)
H20 H 0.1578 0.2221 0.0883
H21 H 0.1419 0.1671 -0.0220
H22 H 0.1630 0.2281 -0.0709
C25 C 0.2444(3) 0.1829(4) 0.1975(9)
Mn1A Mn 0.75385(4) 0.06681(5) 0.93501(11)
O1A O 0.6907(2) 0.0148(3) 1.0003(7)
H1A H 0.6996 -0.0224 1.0212
H2A H 0.6854 0.0323 1.0746
O2A O 0.31614(18) 0.2843(2) 0.4528(6)
O3A O 0.70225(18) 0.1612(2) 0.8964(5)
O4A O 0.69469(18) 0.0864(2) 0.7377(6)
C1A C 0.6784(3) 0.1353(4) 0.7775(8)
C2A C 0.6301(3) 0.1605(3) 0.6838(8)
C3A C 0.6045(3) 0.2065(4) 0.7337(8)
H3A H 0.6195 0.2255 0.8231
C4A C 0.6080(3) 0.1339(4) 0.5508(9)
H4A H 0.6250 0.1024 0.5181
O5A O 0.72917(18) 0.4853(2) 0.6586(7)
O6A O 0.7131(2) 0.4387(3) 0.8461(6)
C5A C 0.6996(3) 0.4588(3) 0.7186(8)
C6A C 0.6461(2) 0.4491(3) 0.6359(7)
C7A C 0.6265(3) 0.4689(3) 0.4916(7)
H5A H 0.6478 0.4878 0.4443
C8A C 0.6133(3) 0.4222(3) 0.7065(8)
H6A H 0.6255 0.4090 0.8030
O7A O 0.31735(17) 0.3852(2) 0.4079(6)
O8A O 0.49368(18) 0.4300(2) 0.4156(7)
O10A O 0.48524(18) 0.2090(2) 0.4311(7)
C9A C 0.3914(3) 0.3277(3) 0.4254(7)
C10A C 0.5447(3) 0.4340(3) 0.4890(9)
C11A C 0.4186(2) 0.3801(3) 0.4214(8)
H7A H 0.4034 0.4186 0.4177
C13A C 0.4149(3) 0.2702(3) 0.4311(7)
H11A H 0.3969 0.2342 0.4338
C14A C 0.3372(2) 0.3327(3) 0.4302(7)
C15A C 0.4647(2) 0.2674(3) 0.4325(8)
C16A C 0.4688(3) 0.3754(4) 0.4230(8)
C17A C 0.5346(3) 0.1979(4) 0.5172(9)
C18A C 0.5761(2) 0.4611(4) 0.4176(9)
H12A H 0.5637 0.4739 0.3208
C19A C 0.5602(3) 0.1528(4) 0.4614(9)
H13A H 0.5463 0.1359 0.3691
C21A C 0.4921(3) 0.3185(4) 0.4272(9)
H17A H 0.5257 0.3157 0.4265
C22A C 0.5559(3) 0.2249(4) 0.6500(9)
H18A H 0.5384 0.2552 0.6849
C23A C 0.5627(3) 0.4150(4) 0.6332(10)
H19A H 0.5408 0.3975 0.6806
O9F O 0.2740(2) 0.2893(3) 0.7152(6)
C12F C 0.2640(4) 0.3552(5) 1.0520(10)
H8F H 0.2352 0.3801 1.0048
H9F H 0.2542 0.3247 1.1119
H10F H 0.2900 0.3809 1.1120
N1F N 0.2830(3) 0.3246(3) 0.9406(7)
C20F C 0.2037(4) 0.3435(4) 0.7535(11)
H14F H 0.1925 0.3445 0.6485
H15F H 0.1811 0.3183 0.7893
H16F H 0.2040 0.3845 0.7912
C24F C 0.3346(4) 0.2997(4) 0.9906(10)
H20F H 0.3422 0.2779 0.9117
H21F H 0.3581 0.3329 1.0220
H22F H 0.3370 0.2719 1.0709
C25F C 0.2556(3) 0.3171(4) 0.8025(9)
Mn1B Mn 0.74615(4) 0.56681(5) 0.56499(11)
Mn1C Mn 0.25385(4) 0.56681(5) 0.93501(11)
Mn1F Mn 0.25385(4) 0.43319(5) 0.43501(11)
Mn1G Mn 0.74615(4) 0.43319(5) 1.06499(11)
Mn2A Mn 0.7500 0.2500 1.0000
O2G O 0.18386(18) 0.2157(2) 0.5472(6)
O3F O 0.20225(18) 0.3388(2) 0.3964(5)
O5B O 0.77083(18) -0.0147(2) 0.8414(7)
O5C O 0.22917(18) -0.0147(2) 0.6586(7)
O6F O 0.2131(2) 0.0613(3) 0.3461(6)
O6G O 0.7869(2) 0.0613(3) 1.1539(6)
O7F O 0.81735(17) 0.1148(2) 0.9079(6)
O7G O 0.18265(17) 0.1148(2) 0.5921(6)
loop_
_geom_bond_atom_site_label_1
_geom_bond_atom_site_label_2
_geom_bond_site_symmetry_1
_geom_bond_site_symmetry_2
Mn1 O1 1_555 1_555
O1 H1 1_555 1_555
H2 O1 1_555 1_555
Mn2 O3 1_555 1_555
O2 C14 1_555 1_555
O3 Mn1 1_555 1_555
O4 Mn1 1_555 1_555
C1 O3 1_555 1_555
C2 C1 1_555 1_555
C3 C2 1_555 1_555
H3 C3 1_555 1_555
C4 C2 1_555 1_555
H4 C4 1_555 1_555
O5 C5 1_555 1_555
O6 C5 1_555 1_555
C5 C6 1_555 1_555
C6 C7 1_555 1_555
C7 H5 1_555 1_555
C8 C6 1_555 1_555
H6 C8 1_555 1_555
O7 C14 1_555 1_555
O8 C10 1_555 1_555
O9 Mn2 1_555 1_555
O10 C15 1_555 1_555
C9 C11 1_555 1_555
C10 C18 1_555 1_555
C11 H7 1_555 1_555
C12 H8 1_555 1_555
H9 C12 1_555 1_555
H10 C12 1_555 1_555
C13 C9 1_555 1_555
H11 C13 1_555 1_555
C14 C9 1_555 1_555
C15 C13 1_555 1_555
C16 O8 1_555 1_555
C17 O10 1_555 1_555
C18 C7 1_555 1_555
H12 C18 1_555 1_555
N1 C12 1_555 1_555
C19 C4 1_555 1_555
H13 C19 1_555 1_555
C20 H14 1_555 1_555
H15 C20 1_555 1_555
H16 C20 1_555 1_555
C21 C15 1_555 1_555
H17 C21 1_555 1_555
C22 C3 1_555 1_555
H18 C22 1_555 1_555
C23 C8 1_555 1_555
H19 C23 1_555 1_555
C24 N1 1_555 1_555
H20 C24 1_555 1_555
H21 C24 1_555 1_555
H22 C24 1_555 1_555
C25 O9 1_555 1_555
Mn1A O1A 1_555 1_555
O1A H1A 1_555 1_555
H2A O1A 1_555 1_555
O2A Mn2 1_555 1_555
O3A Mn1A 1_555 1_555
O4A Mn1A 1_555 1_555
C1A O3A 1_555 1_555
C2A C1A 1_555 1_555
C3A C2A 1_555 1_555
H3A C3A 1_555 1_555
C4A C2A 1_555 1_555
H4A C4A 1_555 1_555
O5A C5A 1_555 1_555
O6A C5A 1_555 1_555
C5A C6A 1_555 1_555
C6A C7A 1_555 1_555
C7A H5A 1_555 1_555
C8A C6A 1_555 1_555
H6A C8A 1_555 1_555
O7A C14A 1_555 1_555
O8A C10A 1_555 1_555
O10A C15A 1_555 1_555
C9A C11A 1_555 1_555
C10A C18A 1_555 1_555
C11A H7A 1_555 1_555
C13A C9A 1_555 1_555
H11A C13A 1_555 1_555
C14A O2A 1_555 1_555
C15A C13A 1_555 1_555
C16A O8A 1_555 1_555
C17A O10A 1_555 1_555
C18A C7A 1_555 1_555
H12A C18A 1_555 1_555
C19A C4A 1_555 1_555
H13A C19A 1_555 1_555
C21A C15A 1_555 1_555
H17A C21A 1_555 1_555
C22A C3A 1_555 1_555
H18A C22A 1_555 1_555
C23A C8A 1_555 1_555
H19A C23A 1_555 1_555
O9F Mn2 1_555 1_555
C12F H8F 1_555 1_555
H9F C12F 1_555 1_555
H10F C12F 1_555 1_555
N1F C12F 1_555 1_555
C20F H14F 1_555 1_555
H15F C20F 1_555 1_555
H16F C20F 1_555 1_555
C24F N1F 1_555 1_555
H20F C24F 1_555 1_555
H21F C24F 1_555 1_555
H22F C24F 1_555 1_555
C25F O9F 1_555 1_555
Mn1B O5A 1_555 1_555
Mn1C O5 1_555 1_555
Mn1F O6 1_555 1_555
Mn1G O7 1_555 1_555
Mn2A O2 1_555 1_555
O2G Mn2 1_555 1_555
O3F Mn2 1_555 1_555
O5B Mn1A 1_555 1_555
O5C Mn1 1_555 1_555
O6F Mn1 1_555 1_555
O6G Mn1A 1_555 1_555
O7F Mn1A 1_555 1_555
O7G Mn1 1_555 1_555
O4 C1 1_555 1_555
C10 C23 1_555 1_555
C11 C16 1_555 1_555
C16 C21 1_555 1_555
C17 C19 1_555 1_555
C17 C22 1_555 1_555
N1 C25 1_555 1_555
C20 C25 1_555 1_555
O3A Mn2A 1_555 1_555
O4A C1A 1_555 1_555
O6A Mn1G 1_555 1_555
O7A Mn1F 1_555 1_555
C9A C14A 1_555 1_555
C10A C23A 1_555 1_555
C11A C16A 1_555 1_555
C16A C21A 1_555 1_555
C17A C19A 1_555 1_555
C17A C22A 1_555 1_555
N1F C25F 1_555 1_555
C20F C25F 1_555 1_555
Mn1F O3F 1_555 1_555

#END
