
#######################################################################
#
#                 Cambridge Crystallographic Data Centre
#                                CCDC 
#
#######################################################################
#
# If this CIF has been generated from an entry in the Cambridge 
# Structural Database, then it will include bibliographic, chemical, 
# crystal, experimental, refinement or atomic coordinate data resulting 
# from the CCDC's data processing and validation procedures.
#
#######################################################################

data_YINCOP
_symmetry_cell_setting           monoclinic
_symmetry_space_group_name_H-M   'C 2/c'
_symmetry_Int_Tables_number      15
_space_group_name_Hall           '-C 2yn'
loop_
_symmetry_equiv_pos_site_id
_symmetry_equiv_pos_as_xyz
1 x,y,z
2 -x,y,1/2-z
3 1/2+x,1/2+y,z
4 1/2-x,1/2+y,1/2-z
5 -x,-y,-z
6 x,-y,1/2+z
7 1/2-x,1/2-y,-z
8 1/2+x,1/2-y,1/2+z
_cell_length_a                   27.565(3)
_cell_length_b                   21.395(3)
_cell_length_c                   9.3865(10)
_cell_angle_alpha                90
_cell_angle_beta                 106.317(3)
_cell_angle_gamma                90
_cell_volume                     5312.75
loop_
_atom_site_label
_atom_site_type_symbol
_atom_site_fract_x
_atom_site_fract_y
_atom_site_fract_z
Mn1 Mn 0.75265(2) 0.43413(3) 0.94067(6)
Mn2 Mn 0.7500 0.2500 1.0000
O1 O 0.81573(10) 0.38415(13) 0.9094(3)
O2 O 1.22789(11) 0.48255(14) 1.1432(4)
O3 O 0.68932(12) 0.49040(19) 0.9957(4)
H1 H 0.6623 0.4823 0.9350
O4 O 1.19603(10) 0.08545(14) 1.2334(3)
O5 O 1.19998(11) 0.15780(13) 1.4040(3)
O6 O 0.81220(11) 0.28041(14) 0.9318(3)
O7 O 1.21603(12) 0.43432(17) 1.3372(3)
O8 O 0.98335(11) 0.20458(13) 0.9326(4)
O9 O 0.99244(11) 0.42909(14) 0.9204(4)
O10 O 0.71650(13) 0.21471(16) 0.7822(3)
N1 N 0.71542(16) 0.18151(18) 0.5548(4)
C1 C 0.88918(14) 0.32514(18) 0.9213(4)
C2 C 0.83460(16) 0.3309(2) 0.9208(4)
C3 C 0.91198(15) 0.26715(19) 0.9267(4)
H2 H 0.8933 0.2309 0.9260
C4 C 1.04390(16) 0.43174(19) 0.9931(5)
C5 C 1.17792(16) 0.1329(2) 1.2799(5)
C6 C 1.14537(15) 0.44669(18) 1.1305(4)
C7 C 0.99061(16) 0.3169(2) 0.9295(4)
H3 H 1.0243 0.3144 0.9293
C8 C 1.20034(16) 0.4564(2) 1.2081(5)
C9 C 1.07433(16) 0.46024(19) 0.9173(5)
H4 H 1.0606 0.4745 0.8207
C10 C 0.96239(16) 0.2635(2) 0.9333(5)
C11 C 1.12501(15) 0.46719(18) 0.9862(4)
H5 H 1.1458 0.4858 0.9356
C12 C 1.11458(16) 0.41758(19) 1.2049(5)
H6 H 1.1284 0.4029 1.3010
C13 C 0.96699(16) 0.3737(2) 0.9261(5)
C14 C 1.10208(17) 0.2035(2) 1.2353(5)
H7 H 1.1171 0.2229 1.3255
C15 C 1.12747(16) 0.15724(19) 1.1865(5)
C16 C 1.06412(17) 0.4104(2) 1.1374(5)
H8 H 1.0434 0.3914 1.1877
C17 C 1.10484(18) 0.1303(2) 1.0503(5)
H9 H 1.1219 0.0989 1.0158
C18 C 0.7367(2) 0.1890(2) 0.6980(5)
H10 H 0.7693 0.1736 0.7375
C19 C 0.6663(2) 0.2039(2) 0.4824(5)
H11 H 0.6513 0.2210 0.5546
H12 H 0.6458 0.1701 0.4310
H13 H 0.6684 0.2358 0.4125
C20 C 0.91680(15) 0.3786(2) 0.9199(4)
H14 H 0.9016 0.4177 0.9149
C21 C 1.05771(19) 0.1485(2) 0.9635(6)
H15 H 1.0436 0.1312 0.8701
C22 C 1.03253(17) 0.1929(2) 1.0199(5)
C23 C 1.05510(17) 0.2216(2) 1.1543(5)
H16 H 1.0382 0.2532 1.1892
C24 C 0.7423(2) 0.1500(2) 0.4626(6)
H17 H 0.7740 0.1345 0.5239
H18 H 0.7484 0.1790 0.3914
H19 H 0.7223 0.1158 0.4116
H20 H 0.6907(17) 0.510(3) 1.075(4)
Mn1A Mn 1.24735(2) 0.43413(3) 1.55933(6)
O1A O 1.18427(10) 0.38415(13) 1.5906(3)
O2A O 0.77211(11) 0.48255(14) 1.3568(4)
O3A O 1.31068(12) 0.49040(19) 1.5043(4)
H1A H 1.3377 0.4823 1.5650
O4A O 0.80397(10) 0.08545(14) 1.2666(3)
O5A O 0.80002(11) 0.15780(13) 1.0960(3)
O6A O 1.18780(11) 0.28041(14) 1.5682(3)
O7A O 0.78397(12) 0.43432(17) 1.1628(3)
O8A O 1.01665(11) 0.20458(13) 1.5674(4)
O9A O 1.00756(11) 0.42909(14) 1.5796(4)
C1A C 1.11082(14) 0.32514(18) 1.5787(4)
C2A C 1.16540(16) 0.3309(2) 1.5792(4)
C3A C 1.08802(15) 0.26715(19) 1.5733(4)
H2A H 1.1067 0.2309 1.5740
C4A C 0.95610(16) 0.43174(19) 1.5069(5)
C5A C 0.82208(16) 0.1329(2) 1.2201(5)
C6A C 0.85463(15) 0.44669(18) 1.3695(4)
C7A C 1.00939(16) 0.3169(2) 1.5705(4)
H3A H 0.9757 0.3144 1.5707
C8A C 0.79966(16) 0.4564(2) 1.2919(5)
C9A C 0.92567(16) 0.46024(19) 1.5827(5)
H4A H 0.9394 0.4745 1.6793
C10A C 1.03761(16) 0.2635(2) 1.5667(5)
C11A C 0.87499(15) 0.46719(18) 1.5138(4)
H5A H 0.8542 0.4858 1.5644
C12A C 0.88542(16) 0.41758(19) 1.2951(5)
H6A H 0.8716 0.4029 1.1990
C13A C 1.03301(16) 0.3737(2) 1.5739(5)
C14A C 0.89792(17) 0.2035(2) 1.2647(5)
H7A H 0.8829 0.2229 1.1745
C15A C 0.87253(16) 0.15724(19) 1.3135(5)
C16A C 0.93588(17) 0.4104(2) 1.3626(5)
H8A H 0.9566 0.3914 1.3123
C17A C 0.89516(18) 0.1303(2) 1.4497(5)
H9A H 0.8781 0.0989 1.4842
C20A C 1.08320(15) 0.3786(2) 1.5801(4)
H14A H 1.0984 0.4177 1.5851
C21A C 0.94229(19) 0.1485(2) 1.5365(6)
H15A H 0.9564 0.1312 1.6299
C22A C 0.96747(17) 0.1929(2) 1.4801(5)
C23A C 0.94490(17) 0.2216(2) 1.3457(5)
H16A H 0.9618 0.2532 1.3108
H20A H 1.3093(17) 0.510(3) 1.425(4)
O10F O 0.78350(13) 0.28529(16) 1.2178(3)
N1F N 0.78458(16) 0.31849(18) 1.4452(4)
C18F C 0.7633(2) 0.3110(2) 1.3020(5)
H10F H 0.7307 0.3264 1.2625
C19F C 0.8337(2) 0.2961(2) 1.5176(5)
H11F H 0.8487 0.2790 1.4454
H12F H 0.8542 0.3299 1.5690
H13F H 0.8316 0.2642 1.5875
C24F C 0.7577(2) 0.3500(2) 1.5374(6)
H17F H 0.7260 0.3655 1.4761
H18F H 0.7516 0.3210 1.6086
H19F H 0.7777 0.3842 1.5884
Mn1D Mn 1.24735(2) 0.56587(3) 1.05933(6)
Mn1E Mn 0.75265(2) 0.56587(3) 1.44067(6)
Mn1F Mn 0.74735(2) 0.06587(3) 1.05933(6)
Mn1G Mn 1.25265(2) 0.06587(3) 1.44067(6)
Mn2A Mn 1.2500 0.2500 1.5000
O2D O 0.77211(11) 0.51745(14) 0.8568(4)
O2E O 1.22789(11) 0.51745(14) 1.6432(4)
O4F O 1.30397(10) 0.41455(14) 1.7666(3)
O4G O 0.69603(10) 0.41455(14) 0.7334(3)
O5F O 1.30002(11) 0.34220(13) 1.5960(3)
O5G O 0.69998(11) 0.34220(13) 0.9040(3)
O6F O 0.68780(11) 0.21959(14) 1.0682(3)
loop_
_geom_bond_atom_site_label_1
_geom_bond_atom_site_label_2
_geom_bond_site_symmetry_1
_geom_bond_site_symmetry_2
Mn1 O1 1_555 1_555
Mn2 O6 1_555 1_555
O1 C2 1_555 1_555
O2 C8 1_555 1_555
O3 Mn1 1_555 1_555
H1 O3 1_555 1_555
O4 C5 1_555 1_555
O5 C5 1_555 1_555
O6 C2 1_555 1_555
O7 C8 1_555 1_555
O8 C10 1_555 1_555
O9 C4 1_555 1_555
O10 Mn2 1_555 1_555
N1 C18 1_555 1_555
C1 C2 1_555 1_555
C3 C1 1_555 1_555
H2 C3 1_555 1_555
C4 C9 1_555 1_555
C5 C15 1_555 1_555
C6 C8 1_555 1_555
C7 H3 1_555 1_555
C9 H4 1_555 1_555
C10 C3 1_555 1_555
C11 C6 1_555 1_555
H5 C11 1_555 1_555
C12 C6 1_555 1_555
H6 C12 1_555 1_555
C13 O9 1_555 1_555
C14 H7 1_555 1_555
C15 C14 1_555 1_555
C16 C4 1_555 1_555
H8 C16 1_555 1_555
C17 C15 1_555 1_555
H9 C17 1_555 1_555
C18 O10 1_555 1_555
H10 C18 1_555 1_555
C19 N1 1_555 1_555
H11 C19 1_555 1_555
H12 C19 1_555 1_555
H13 C19 1_555 1_555
C20 C1 1_555 1_555
H14 C20 1_555 1_555
C21 C17 1_555 1_555
H15 C21 1_555 1_555
C22 O8 1_555 1_555
C23 C14 1_555 1_555
H16 C23 1_555 1_555
C24 N1 1_555 1_555
H17 C24 1_555 1_555
H18 C24 1_555 1_555
H19 C24 1_555 1_555
H20 O3 1_555 1_555
Mn1A O7 1_555 1_555
O1A Mn1A 1_555 1_555
O2A C8A 1_555 1_555
O3A Mn1A 1_555 1_555
H1A O3A 1_555 1_555
O4A C5A 1_555 1_555
O5A Mn2 1_555 1_555
O6A C2A 1_555 1_555
O7A Mn1 1_555 1_555
O8A C10A 1_555 1_555
O9A C4A 1_555 1_555
C1A C2A 1_555 1_555
C2A O1A 1_555 1_555
C3A C1A 1_555 1_555
H2A C3A 1_555 1_555
C4A C9A 1_555 1_555
C5A O5A 1_555 1_555
C6A C8A 1_555 1_555
C7A H3A 1_555 1_555
C8A O7A 1_555 1_555
C9A H4A 1_555 1_555
C10A C3A 1_555 1_555
C11A C6A 1_555 1_555
H5A C11A 1_555 1_555
C12A C6A 1_555 1_555
H6A C12A 1_555 1_555
C13A O9A 1_555 1_555
C14A H7A 1_555 1_555
C15A C5A 1_555 1_555
C16A C4A 1_555 1_555
H8A C16A 1_555 1_555
C17A C15A 1_555 1_555
H9A C17A 1_555 1_555
C20A C1A 1_555 1_555
H14A C20A 1_555 1_555
C21A C17A 1_555 1_555
H15A C21A 1_555 1_555
C22A O8A 1_555 1_555
C23A C14A 1_555 1_555
H16A C23A 1_555 1_555
H20A O3A 1_555 1_555
O10F Mn2 1_555 1_555
N1F C18F 1_555 1_555
C18F O10F 1_555 1_555
H10F C18F 1_555 1_555
C19F N1F 1_555 1_555
H11F C19F 1_555 1_555
H12F C19F 1_555 1_555
H13F C19F 1_555 1_555
C24F N1F 1_555 1_555
H17F C24F 1_555 1_555
H18F C24F 1_555 1_555
H19F C24F 1_555 1_555
Mn1D O2 1_555 1_555
Mn1E O2A 1_555 1_555
Mn1F O4A 1_555 1_555
Mn1G O4 1_555 1_555
Mn2A O5 1_555 1_555
O2D Mn1 1_555 1_555
O2E Mn1A 1_555 1_555
O4F Mn1A 1_555 1_555
O4G Mn1 1_555 1_555
O5F Mn1A 1_555 1_555
O5G Mn1 1_555 1_555
O6F Mn2 1_555 1_555
Mn2 O5G 1_555 1_555
O5 Mn1G 1_555 1_555
C7 C10 1_555 1_555
C7 C13 1_555 1_555
C9 C11 1_555 1_555
C12 C16 1_555 1_555
C13 C20 1_555 1_555
C21 C22 1_555 1_555
C22 C23 1_555 1_555
O5A Mn1F 1_555 1_555
O6A Mn2A 1_555 1_555
C7A C10A 1_555 1_555
C7A C13A 1_555 1_555
C9A C11A 1_555 1_555
C12A C16A 1_555 1_555
C13A C20A 1_555 1_555
C14A C15A 1_555 1_555
C21A C22A 1_555 1_555
C22A C23A 1_555 1_555
Mn2A O5F 1_555 1_555

#END
