
#######################################################################
#
#                 Cambridge Crystallographic Data Centre
#                                CCDC 
#
#######################################################################
#
# If this CIF has been generated from an entry in the Cambridge 
# Structural Database, then it will include bibliographic, chemical, 
# crystal, experimental, refinement or atomic coordinate data resulting 
# from the CCDC's data processing and validation procedures.
#
#######################################################################

data_YINCEF
_symmetry_cell_setting           monoclinic
_symmetry_space_group_name_H-M   'C 2/c'
_symmetry_Int_Tables_number      15
_space_group_name_Hall           '-C 2yn'
loop_
_symmetry_equiv_pos_site_id
_symmetry_equiv_pos_as_xyz
1 x,y,z
2 -x,y,1/2-z
3 1/2+x,1/2+y,z
4 1/2-x,1/2+y,1/2-z
5 -x,-y,-z
6 x,-y,1/2+z
7 1/2-x,1/2-y,-z
8 1/2+x,1/2-y,1/2+z
_cell_length_a                   27.752(4)
_cell_length_b                   21.889(3)
_cell_length_c                   9.5237(13)
_cell_angle_alpha                90
_cell_angle_beta                 107.685(3)
_cell_angle_gamma                90
_cell_volume                     5511.89
loop_
_atom_site_label
_atom_site_type_symbol
_atom_site_fract_x
_atom_site_fract_y
_atom_site_fract_z
Mn1 Mn 0.7500 0.2500 0.5000
Mn2 Mn 0.75478(2) 0.43248(3) 0.43578(8)
O1 O 0.81674(11) 0.38306(15) 0.4117(4)
O2 O 0.98343(11) 0.20818(15) 0.4357(4)
O3 O 0.99153(11) 0.42783(15) 0.4165(5)
O4 O 1.22601(11) 0.48796(14) 0.6553(4)
O5 O 1.19430(12) 0.08792(16) 0.7439(4)
O6 O 1.20253(12) 0.16207(15) 0.9053(4)
O7 O 0.69059(17) 0.4826(2) 0.5031(5)
H1 H 0.7032 0.5074 0.5685
O8 O 0.71644(12) 0.21356(16) 0.2848(4)
O9 O 0.81355(11) 0.28200(14) 0.4396(4)
O10 O 1.21344(14) 0.44186(19) 0.8453(4)
N1 N 0.70607(18) 0.17972(19) 0.0517(5)
C1 C 1.04263(16) 0.4323(2) 0.4909(6)
C2 C 0.91677(16) 0.3779(2) 0.4212(5)
H2 H 0.9013 0.4158 0.4158
C3 C 0.88968(15) 0.3255(2) 0.4253(5)
C4 C 1.03254(17) 0.1968(2) 0.5241(6)
C5 C 0.91257(16) 0.2693(2) 0.4338(5)
H3 H 0.8948 0.2339 0.4393
C6 C 0.83532(16) 0.3307(2) 0.4262(5)
C7 C 1.17783(17) 0.1359(2) 0.7867(6)
C8 C 0.96681(16) 0.3743(2) 0.4251(6)
C9 C 1.12771(16) 0.1591(2) 0.6928(6)
C10 C 1.07242(16) 0.4615(2) 0.4187(6)
H4 H 1.0586 0.4751 0.3223
C11 C 1.14351(17) 0.4507(2) 0.6363(5)
C12 C 1.19823(18) 0.4618(2) 0.7168(6)
C13 C 1.10366(17) 0.2076(2) 0.7378(5)
H5 H 1.1200 0.2282 0.8248
C14 C 0.96246(17) 0.2661(2) 0.4340(5)
C15 C 1.12268(16) 0.4700(2) 0.4917(5)
H6 H 1.1432 0.4890 0.4437
C16 C 1.10255(18) 0.1300(2) 0.5616(6)
H7 H 1.1177 0.0968 0.5310
C17 C 0.98965(17) 0.3177(2) 0.4300(6)
H8 H 1.0231 0.3149 0.4306
C18 C 1.06263(19) 0.4129(2) 0.6340(6)
H9 H 1.0419 0.3942 0.6818
C19 C 1.05579(17) 0.2259(2) 0.6554(6)
H10 H 1.0395 0.2574 0.6881
C20 C 0.73305(19) 0.1886(2) 0.1920(6)
C21 C 1.11259(18) 0.4208(2) 0.7059(6)
H11 H 1.1262 0.4064 0.8016
C22 C 0.7851(2) 0.1642(3) 0.2166(7)
H12 H 0.7920 0.1311 0.2877
H13 H 0.8101 0.1961 0.2524
C23 C 0.7859(3) 0.1414(3) 0.0673(8)
H14 H 0.8098 0.1648 0.0331
H15 H 0.7957 0.0987 0.0730
C24 C 0.7329(3) 0.1495(3) -0.0360(7)
H16 H 0.7331 0.1743 -0.1203
H17 H 0.7177 0.1102 -0.0708
C25 C 0.6533(2) 0.1971(3) -0.0092(6)
H18 H 0.6421 0.2164 0.0659
H19 H 0.6333 0.1613 -0.0440
H20 H 0.6497 0.2249 -0.0895
C26 C 1.05559(18) 0.1492(2) 0.4757(6)
H21 H 1.0397 0.1303 0.3861
H22 H 0.6586(13) 0.474(3) 0.511(7)
Mn2A Mn 1.24522(2) 0.43248(3) 1.06422(8)
O1A O 1.18326(11) 0.38306(15) 1.0883(4)
O2A O 1.01657(11) 0.20818(15) 1.0643(4)
O3A O 1.00847(11) 0.42783(15) 1.0835(5)
O4A O 0.77399(11) 0.48796(14) 0.8447(4)
O5A O 0.80570(12) 0.08792(16) 0.7561(4)
O6A O 0.79747(12) 0.16207(15) 0.5947(4)
O7A O 1.30941(17) 0.4826(2) 0.9969(5)
H1A H 1.2968 0.5074 0.9315
O9A O 1.18645(11) 0.28200(14) 1.0604(4)
O10A O 0.78656(14) 0.44186(19) 0.6547(4)
C1A C 0.95737(16) 0.4323(2) 1.0091(6)
C2A C 1.08323(16) 0.3779(2) 1.0788(5)
H2A H 1.0987 0.4158 1.0842
C3A C 1.11032(15) 0.3255(2) 1.0747(5)
C4A C 0.96746(17) 0.1968(2) 0.9759(6)
C5A C 1.08743(16) 0.2693(2) 1.0662(5)
H3A H 1.1052 0.2339 1.0607
C6A C 1.16468(16) 0.3307(2) 1.0738(5)
C7A C 0.82217(17) 0.1359(2) 0.7133(6)
C8A C 1.03319(16) 0.3743(2) 1.0749(6)
C9A C 0.87229(16) 0.1591(2) 0.8072(6)
C10A C 0.92758(16) 0.4615(2) 1.0813(6)
H4A H 0.9414 0.4751 1.1777
C11A C 0.85649(17) 0.4507(2) 0.8637(5)
C12A C 0.80177(18) 0.4618(2) 0.7832(6)
C13A C 0.89634(17) 0.2076(2) 0.7622(5)
H5A H 0.8800 0.2282 0.6752
C14A C 1.03754(17) 0.2661(2) 1.0660(5)
C15A C 0.87732(16) 0.4700(2) 1.0083(5)
H6A H 0.8568 0.4890 1.0563
C16A C 0.89745(18) 0.1300(2) 0.9384(6)
H7A H 0.8823 0.0968 0.9690
C17A C 1.01035(17) 0.3177(2) 1.0700(6)
H8A H 0.9769 0.3149 1.0694
C18A C 0.93737(19) 0.4129(2) 0.8660(6)
H9A H 0.9581 0.3942 0.8182
C19A C 0.94421(17) 0.2259(2) 0.8446(6)
H10A H 0.9605 0.2574 0.8119
C21A C 0.88741(18) 0.4208(2) 0.7941(6)
H11A H 0.8738 0.4064 0.6984
C26A C 0.94441(18) 0.1492(2) 1.0243(6)
H21A H 0.9603 0.1303 1.1139
H22A H 1.3414(13) 0.474(3) 0.989(7)
O8F O 0.78356(12) 0.28644(16) 0.7152(4)
N1F N 0.79393(18) 0.32028(19) 0.9483(5)
C20F C 0.76695(19) 0.3114(2) 0.8080(6)
C22F C 0.7149(2) 0.3358(3) 0.7834(7)
H12F H 0.7080 0.3689 0.7123
H13F H 0.6899 0.3039 0.7476
C23F C 0.7141(3) 0.3586(3) 0.9327(8)
H14F H 0.6902 0.3352 0.9669
H15F H 0.7043 0.4013 0.9270
C24F C 0.7671(3) 0.3505(3) 1.0360(7)
H16F H 0.7669 0.3257 1.1203
H17F H 0.7823 0.3898 1.0708
C25F C 0.8467(2) 0.3029(3) 1.0092(6)
H18F H 0.8579 0.2836 0.9341
H19F H 0.8667 0.3387 1.0440
H20F H 0.8503 0.2751 1.0895
Mn1A Mn 1.2500 0.2500 1.0000
Mn2D Mn 1.24522(2) 0.56752(3) 0.56422(8)
Mn2E Mn 0.75478(2) 0.56752(3) 0.93578(8)
Mn2F Mn 0.74522(2) 0.06752(3) 0.56422(8)
Mn2G Mn 1.25478(2) 0.06752(3) 0.93578(8)
O4D O 0.77399(11) 0.51204(14) 0.3447(4)
O4E O 1.22601(11) 0.51204(14) 1.1553(4)
O5F O 1.30570(12) 0.41208(16) 1.2561(4)
O5G O 0.69430(12) 0.41208(16) 0.2439(4)
O6G O 0.70253(12) 0.33793(15) 0.4053(4)
O9F O 0.68645(11) 0.21800(14) 0.5604(4)
loop_
_geom_bond_atom_site_label_1
_geom_bond_atom_site_label_2
_geom_bond_site_symmetry_1
_geom_bond_site_symmetry_2
Mn1 O8 1_555 1_555
Mn2 O1 1_555 1_555
O1 C6 1_555 1_555
O2 C4 1_555 1_555
O3 C1 1_555 1_555
O4 C12 1_555 1_555
O5 C7 1_555 1_555
O6 C7 1_555 1_555
O7 Mn2 1_555 1_555
H1 O7 1_555 1_555
O8 C20 1_555 1_555
O9 Mn1 1_555 1_555
O10 C12 1_555 1_555
N1 C20 1_555 1_555
C1 C10 1_555 1_555
C2 H2 1_555 1_555
C3 C2 1_555 1_555
C4 C19 1_555 1_555
C5 C3 1_555 1_555
H3 C5 1_555 1_555
C6 O9 1_555 1_555
C7 C9 1_555 1_555
C8 O3 1_555 1_555
C9 C13 1_555 1_555
C10 H4 1_555 1_555
C11 C12 1_555 1_555
C13 H5 1_555 1_555
C14 O2 1_555 1_555
C15 C10 1_555 1_555
H6 C15 1_555 1_555
C16 C9 1_555 1_555
H7 C16 1_555 1_555
C17 C8 1_555 1_555
H8 C17 1_555 1_555
C18 C1 1_555 1_555
H9 C18 1_555 1_555
C19 C13 1_555 1_555
H10 C19 1_555 1_555
C20 C22 1_555 1_555
C21 C11 1_555 1_555
H11 C21 1_555 1_555
C22 H12 1_555 1_555
H13 C22 1_555 1_555
C23 C22 1_555 1_555
H14 C23 1_555 1_555
H15 C23 1_555 1_555
C24 N1 1_555 1_555
H16 C24 1_555 1_555
H17 C24 1_555 1_555
C25 N1 1_555 1_555
H18 C25 1_555 1_555
H19 C25 1_555 1_555
H20 C25 1_555 1_555
C26 C4 1_555 1_555
H21 C26 1_555 1_555
H22 O7 1_555 1_555
Mn2A O10 1_555 1_555
O1A Mn2A 1_555 1_555
O2A C4A 1_555 1_555
O3A C1A 1_555 1_555
O4A C12A 1_555 1_555
O5A C7A 1_555 1_555
O6A Mn1 1_555 1_555
O7A Mn2A 1_555 1_555
H1A O7A 1_555 1_555
O9A C6A 1_555 1_555
O10A Mn2 1_555 1_555
C1A C10A 1_555 1_555
C2A H2A 1_555 1_555
C3A C2A 1_555 1_555
C4A C19A 1_555 1_555
C5A C3A 1_555 1_555
H3A C5A 1_555 1_555
C6A O1A 1_555 1_555
C7A O6A 1_555 1_555
C8A O3A 1_555 1_555
C9A C7A 1_555 1_555
C10A H4A 1_555 1_555
C11A C12A 1_555 1_555
C12A O10A 1_555 1_555
C13A C9A 1_555 1_555
H5A C13A 1_555 1_555
C14A O2A 1_555 1_555
C15A C10A 1_555 1_555
H6A C15A 1_555 1_555
C16A C9A 1_555 1_555
H7A C16A 1_555 1_555
C17A C8A 1_555 1_555
H8A C17A 1_555 1_555
C18A C1A 1_555 1_555
H9A C18A 1_555 1_555
C19A C13A 1_555 1_555
H10A C19A 1_555 1_555
C21A C11A 1_555 1_555
H11A C21A 1_555 1_555
C26A C4A 1_555 1_555
H21A C26A 1_555 1_555
H22A O7A 1_555 1_555
O8F Mn1 1_555 1_555
N1F C20F 1_555 1_555
C20F O8F 1_555 1_555
C22F C20F 1_555 1_555
H12F C22F 1_555 1_555
H13F C22F 1_555 1_555
C23F C22F 1_555 1_555
H14F C23F 1_555 1_555
H15F C23F 1_555 1_555
C24F N1F 1_555 1_555
H16F C24F 1_555 1_555
H17F C24F 1_555 1_555
C25F N1F 1_555 1_555
H18F C25F 1_555 1_555
H19F C25F 1_555 1_555
H20F C25F 1_555 1_555
Mn1A O6 1_555 1_555
Mn2D O4 1_555 1_555
Mn2E O4A 1_555 1_555
Mn2F O5A 1_555 1_555
Mn2G O5 1_555 1_555
O4D Mn2 1_555 1_555
O4E Mn2A 1_555 1_555
O5F Mn2A 1_555 1_555
O5G Mn2 1_555 1_555
O6G Mn1 1_555 1_555
O9F Mn1 1_555 1_555
C2 C8 1_555 1_555
C3 C6 1_555 1_555
C5 C14 1_555 1_555
C11 C15 1_555 1_555
C14 C17 1_555 1_555
C16 C26 1_555 1_555
C18 C21 1_555 1_555
C23 C24 1_555 1_555
O9A Mn1A 1_555 1_555
C2A C8A 1_555 1_555
C3A C6A 1_555 1_555
C5A C14A 1_555 1_555
C11A C15A 1_555 1_555
C14A C17A 1_555 1_555
C16A C26A 1_555 1_555
C18A C21A 1_555 1_555
C23F C24F 1_555 1_555

#END
