
#######################################################################
#
#                 Cambridge Crystallographic Data Centre
#                                CCDC 
#
#######################################################################
#
# If this CIF has been generated from an entry in the Cambridge 
# Structural Database, then it will include bibliographic, chemical, 
# crystal, experimental, refinement or atomic coordinate data resulting 
# from the CCDC's data processing and validation procedures.
#
#######################################################################

data_YINCUV
_symmetry_cell_setting           monoclinic
_symmetry_space_group_name_H-M   'P 21/n'
_symmetry_Int_Tables_number      14
_space_group_name_Hall           '-P 2yn'
loop_
_symmetry_equiv_pos_site_id
_symmetry_equiv_pos_as_xyz
1 x,y,z
2 1/2-x,1/2+y,1/2-z
3 -x,-y,-z
4 1/2+x,1/2-y,1/2+z
_cell_length_a                   13.134(3)
_cell_length_b                   13.102(3)
_cell_length_c                   25.336(5)
_cell_angle_alpha                90
_cell_angle_beta                 93.935(4)
_cell_angle_gamma                90
_cell_volume                     4349.58
loop_
_atom_site_label
_atom_site_type_symbol
_atom_site_fract_x
_atom_site_fract_y
_atom_site_fract_z
O1 O 0.9800(2) -0.0952(2) 0.43812(10)
O2 O 1.1286(3) 0.2047(3) 0.47696(16)
H1 H 1.1573 0.2549 0.4932
H2 H 1.1600 0.1500 0.4858
O3 O 0.68537(19) -0.3051(2) 0.97465(9)
O4 O 0.7645(2) 0.4084(2) 0.05009(11)
O5 O 0.4371(3) 0.2055(3) 0.93167(14)
C1 C 0.7408(3) -0.2255(4) 0.96388(18)
O6 O 0.81958(17) -0.36613(19) 0.07404(10)
O7 O 0.9764(2) -0.3596(2) 0.04182(11)
C2 C 0.9085(4) -0.3352(3) 0.07522(14)
C3 C 0.3561(4) 0.1489(4) 0.90611(19)
O8 O 0.9348(2) 0.4104(2) 0.05992(11)
C4 C 0.8497(3) 0.3849(3) 0.07502(13)
C5 C 0.8426(3) 0.3244(3) 0.12436(12)
C6 C 0.7503(3) 0.2971(3) 0.14148(15)
H3 H 0.6912 0.3149 0.1213
C7 C 0.9328(3) 0.2957(3) 0.15465(14)
H4 H 0.9965 0.3097 0.1425
Mn1 Mn 0.5000 0.0000 0.5000
Mn2 Mn 0.76149(4) 0.05282(4) 0.484832(19)
Mn3 Mn 0.97132(4) 0.19384(4) 0.49833(2)
O9 O 0.4801(2) -0.0263(3) 0.71395(10)
O10 O 0.8158(2) -0.1788(3) 0.74646(11)
C8 C 0.7643(3) -0.2188(3) 0.90493(14)
C9 C 0.6944(3) -0.0502(3) 0.63244(12)
C10 C 0.5991(3) -0.0210(3) 0.64823(12)
H5 H 0.5523 0.0144 0.6259
C11 C 0.4620(3) 0.0180(3) 0.76076(13)
C12 C 0.7676(3) -0.0995(3) 0.66462(12)
H6 H 0.8311 -0.1156 0.6527
C13 C 0.7984(3) -0.1905(3) 0.80068(15)
C14 C 0.7335(3) -0.2936(3) 0.86877(15)
H7 H 0.7001 -0.3514 0.8800
C15 C 0.7428(3) -0.1249(3) 0.71629(14)
C16 C 0.5331(4) 0.0764(4) 0.78969(16)
H8 H 0.5980 0.0852 0.7779
C17 C 0.6484(3) -0.1002(3) 0.73507(14)
H9 H 0.6328 -0.1174 0.7692
C18 C 0.5076(3) 0.1222(3) 0.83672(17)
H10 H 0.5554 0.1607 0.8569
C19 C 0.3640(3) 0.0053(3) 0.77543(15)
H11 H 0.3169 -0.0318 0.7541
C20 C 0.3354(3) 0.0485(4) 0.82262(16)
H12 H 0.2702 0.0375 0.8336
C21 C 0.4054(3) 0.1085(4) 0.85349(15)
C22 C 0.5780(3) -0.0487(3) 0.70055(15)
C23 C 0.8322(4) -0.1169(4) 0.83643(19)
H13 H 0.8661 -0.0593 0.8253
C24 C 0.7526(3) -0.2825(4) 0.81491(14)
H14 H 0.7358 -0.3333 0.7902
C25 C 0.8145(4) -0.1303(4) 0.89050(15)
H15 H 0.8356 -0.0816 0.9156
C26 C 0.7191(3) -0.0181(3) 0.57821(13)
O11 O 0.8154(2) 0.1771(2) 0.26767(10)
O12 O 1.0612(2) -0.0919(2) 0.24863(10)
C27 C 0.9371(3) 0.0398(2) 0.25509(13)
H16 H 0.9333 0.0489 0.2186
C28 C 1.0014(3) -0.0542(3) 0.33230(13)
H17 H 1.0393 -0.1082 0.3472
C29 C 0.8823(3) 0.1017(3) 0.28708(13)
C30 C 0.9459(2) 0.0113(2) 0.36411(11)
C31 C 0.9981(3) -0.0364(3) 0.27903(13)
C32 C 0.7420(3) 0.2431(3) 0.18838(15)
H18 H 0.6789 0.2216 0.1987
C33 C 0.9177(3) -0.1817(3) 0.20274(14)
H19 H 0.8734 -0.1652 0.2286
C34 C 0.8300(3) 0.2228(3) 0.21879(13)
C35 C 0.8862(3) 0.0879(3) 0.34264(13)
H20 H 0.8491 0.1299 0.3639
C36 C 0.9249(3) 0.2462(3) 0.20302(15)
H21 H 0.9832 0.2294 0.2242
C37 C 1.0840(3) -0.1657(3) 0.16597(16)
H22 H 1.1495 -0.1383 0.1679
C38 C 1.0476(3) -0.2281(3) 0.12206(15)
H23 H 1.0906 -0.2437 0.0955
C39 C 0.9498(3) -0.2649(3) 0.11928(14)
C40 C 1.0169(3) -0.1472(3) 0.20612(14)
C41 C 0.8856(3) -0.2420(4) 0.15960(16)
H24 H 0.8195 -0.2679 0.1574
C42 C 0.9475(2) -0.0093(3) 0.42312(13)
O13 O 0.7743(3) -0.1616(2) 0.99437(10)
O14 O 0.91188(18) 0.0596(2) 0.45211(9)
O15 O 1.0015(5) 0.3313(3) 0.54516(16)
H25 H 1.0153 0.3890 0.5255
O16 O 0.64945(19) 0.0211(2) 0.54624(9)
O17 O 0.80825(19) -0.0295(2) 0.56369(10)
O18 O 0.2828(2) 0.1318(3) 0.91605(12)
C43 C 1.0033(11) 0.3450(11) 0.5916(9)
H26 H 1.0195 0.4151 0.5992
H27 H 1.0542 0.3018 0.6090
H28 H 0.9377 0.3290 0.6040
O1B O 0.0200(2) 0.0952(2) 0.56188(10)
O2B O -0.1286(3) -0.2047(3) 0.52304(16)
H1B H -0.1573 -0.2549 0.5068
H2B H -0.1600 -0.1500 0.5142
O3B O 0.31463(19) 0.3051(2) 0.02535(9)
O4B O 0.2355(2) -0.4084(2) 0.94991(11)
O5B O 0.5629(3) -0.2055(3) 0.06833(14)
C1B C 0.2592(3) 0.2255(4) 0.03612(18)
O6B O 0.18042(17) 0.36613(19) 0.92596(10)
O7B O 0.0236(2) 0.3596(2) 0.95818(11)
C2B C 0.0915(4) 0.3352(3) 0.92478(14)
C3B C 0.6439(4) -0.1489(4) 0.09389(19)
O8B O 0.0652(2) -0.4104(2) 0.94008(11)
C4B C 0.1503(3) -0.3849(3) 0.92498(13)
C5B C 0.1574(3) -0.3244(3) 0.87564(12)
C6B C 0.2497(3) -0.2971(3) 0.85852(15)
H3B H 0.3088 -0.3149 0.8787
C7B C 0.0672(3) -0.2957(3) 0.84535(14)
H4B H 0.0035 -0.3097 0.8575
Mn2B Mn 0.23851(4) -0.05282(4) 0.515168(19)
Mn3B Mn 0.02868(4) -0.19384(4) 0.50167(2)
O9B O 0.5199(2) 0.0263(3) 0.28605(10)
O10B O 0.1842(2) 0.1788(3) 0.25354(11)
C8B C 0.2357(3) 0.2188(3) 0.09507(14)
C9B C 0.3056(3) 0.0502(3) 0.36756(12)
C10B C 0.4009(3) 0.0210(3) 0.35177(12)
H5B H 0.4477 -0.0144 0.3741
C11B C 0.5380(3) -0.0180(3) 0.23924(13)
C12B C 0.2324(3) 0.0995(3) 0.33538(12)
H6B H 0.1689 0.1156 0.3473
C13B C 0.2016(3) 0.1905(3) 0.19932(15)
C14B C 0.2665(3) 0.2936(3) 0.13123(15)
H7B H 0.2999 0.3514 0.1200
C15B C 0.2572(3) 0.1249(3) 0.28371(14)
C16B C 0.4669(4) -0.0764(4) 0.21031(16)
H8B H 0.4020 -0.0852 0.2221
C17B C 0.3516(3) 0.1002(3) 0.26493(14)
H9B H 0.3672 0.1174 0.2308
C18B C 0.4924(3) -0.1222(3) 0.16328(17)
H10B H 0.4446 -0.1607 0.1431
C19B C 0.6360(3) -0.0053(3) 0.22457(15)
H11B H 0.6831 0.0318 0.2459
C20B C 0.6646(3) -0.0485(4) 0.17738(16)
H12B H 0.7298 -0.0375 0.1664
C21B C 0.5946(3) -0.1085(4) 0.14651(15)
C22B C 0.4220(3) 0.0487(3) 0.29945(15)
C23B C 0.1678(4) 0.1169(4) 0.16357(19)
H13B H 0.1339 0.0593 0.1747
C24B C 0.2474(3) 0.2825(4) 0.18509(14)
H14B H 0.2642 0.3333 0.2098
C25B C 0.1855(4) 0.1303(4) 0.10950(15)
H15B H 0.1644 0.0816 0.0844
C26B C 0.2809(3) 0.0181(3) 0.42179(13)
O11B O 0.1846(2) -0.1771(2) 0.73233(10)
O12B O -0.0612(2) 0.0919(2) 0.75137(10)
C27B C 0.0629(3) -0.0398(2) 0.74491(13)
H16B H 0.0667 -0.0489 0.7814
C28B C -0.0014(3) 0.0542(3) 0.66770(13)
H17B H -0.0393 0.1082 0.6528
C29B C 0.1177(3) -0.1017(3) 0.71292(13)
C30B C 0.0541(2) -0.0113(2) 0.63589(11)
C31B C 0.0019(3) 0.0364(3) 0.72097(13)
C32B C 0.2580(3) -0.2431(3) 0.81162(15)
H18B H 0.3211 -0.2216 0.8013
C33B C 0.0823(3) 0.1817(3) 0.79726(14)
H19B H 0.1266 0.1652 0.7714
C34B C 0.1700(3) -0.2228(3) 0.78121(13)
C35B C 0.1138(3) -0.0879(3) 0.65736(13)
H20B H 0.1509 -0.1299 0.6361
C36B C 0.0751(3) -0.2462(3) 0.79698(15)
H21B H 0.0168 -0.2294 0.7758
C37B C -0.0840(3) 0.1657(3) 0.83403(16)
H22B H -0.1495 0.1383 0.8321
C38B C -0.0476(3) 0.2281(3) 0.87794(15)
H23B H -0.0906 0.2437 0.9045
C39B C 0.0502(3) 0.2649(3) 0.88072(14)
C40B C -0.0169(3) 0.1472(3) 0.79388(14)
C41B C 0.1144(3) 0.2420(4) 0.84040(16)
H24B H 0.1805 0.2679 0.8426
C42B C 0.0525(2) 0.0093(3) 0.57688(13)
O13B O 0.2257(3) 0.1616(2) 0.00563(10)
O14B O 0.08812(18) -0.0596(2) 0.54789(9)
O15B O -0.0015(5) -0.3313(3) 0.45484(16)
H25B H -0.0153 -0.3890 0.4745
O16B O 0.35055(19) -0.0211(2) 0.45376(9)
O17B O 0.19175(19) 0.0295(2) 0.43631(10)
O18B O 0.7172(2) -0.1318(3) 0.08395(12)
C43B C -0.0033(11) -0.3450(11) 0.4084(9)
H26B H -0.0195 -0.4151 0.4008
H27B H -0.0542 -0.3018 0.3910
H28B H 0.0623 -0.3290 0.3960
O1_2 O -0.0200(2) -0.0952(2) 0.43812(10)
O1B_2 O 1.0200(2) 0.0952(2) 0.56188(10)
O3A O 0.81463(19) 0.1949(2) 0.52535(9)
O3C O 0.18537(19) -0.1949(2) 0.47465(9)
O4A O 0.7355(2) -0.0916(2) 0.44991(11)
O4C O 0.2645(2) 0.0916(2) 0.55009(11)
O5A O 0.0629(3) -0.2945(3) 0.56833(14)
O5C O 0.9371(3) 0.2945(3) 0.43167(14)
O6A O 0.68042(17) 0.13387(19) 0.42596(10)
O6C O 0.31958(17) -0.13387(19) 0.57404(10)
O7A O 0.5236(2) 0.1404(2) 0.45818(11)
O7C O 0.4764(2) -0.1404(2) 0.54182(11)
O8A O 0.5652(2) -0.0896(2) 0.44008(11)
O8C O 0.4348(2) 0.0896(2) 0.55992(11)
Mn1A Mn 0.0000 -0.5000 1.0000
Mn1A_2 Mn 0.0000 0.5000 1.0000
Mn1A_3 Mn 1.0000 -0.5000 0.0000
Mn1A_4 Mn 1.0000 0.5000 0.0000
Mn2A Mn 0.73851(4) -0.44718(4) 0.015168(19)
Mn2A_2 Mn 0.73851(4) -0.44718(4) 1.015168(19)
Mn2A_3 Mn 0.73851(4) 0.55282(4) 0.015168(19)
Mn2C Mn 0.26149(4) -0.55282(4) 0.984832(19)
Mn2C_2 Mn 0.26149(4) 0.44718(4) -0.015168(19)
Mn2C_3 Mn 0.26149(4) 0.44718(4) 0.984832(19)
Mn3_2 Mn -0.02868(4) 0.19384(4) 0.49833(2)
Mn3A Mn 0.52868(4) -0.30616(4) 0.00167(2)
Mn3A_2 Mn 0.52868(4) -0.30616(4) 1.00167(2)
Mn3B_2 Mn 1.02868(4) -0.19384(4) 0.50167(2)
Mn3C Mn 0.47132(4) 0.30616(4) -0.00167(2)
Mn3C_2 Mn 0.47132(4) 0.30616(4) 0.99833(2)
loop_
_geom_bond_atom_site_label_1
_geom_bond_atom_site_label_2
_geom_bond_site_symmetry_1
_geom_bond_site_symmetry_2
O1 C42 1_555 1_555
O2 H1 1_555 1_555
H2 O2 1_555 1_555
O3 C1 1_555 1_555
O4 C4 1_555 1_555
O5 C3 1_555 1_555
C1 C8 1_555 1_555
O6 C2 1_555 1_555
O7 C2 1_555 1_555
C2 C39 1_555 1_555
C3 C21 1_555 1_555
O8 C4 1_555 1_555
C4 C5 1_555 1_555
C5 C6 1_555 1_555
C6 H3 1_555 1_555
C7 C5 1_555 1_555
H4 C7 1_555 1_555
Mn1 O16 1_555 1_555
Mn2 O14 1_555 1_555
Mn3 O2 1_555 1_555
O9 C11 1_555 1_555
O10 C13 1_555 1_555
C8 C14 1_555 1_555
C9 C10 1_555 1_555
C10 H5 1_555 1_555
C11 C16 1_555 1_555
C12 C9 1_555 1_555
H6 C12 1_555 1_555
C13 C23 1_555 1_555
C14 H7 1_555 1_555
C15 O10 1_555 1_555
C16 H8 1_555 1_555
C17 C15 1_555 1_555
H9 C17 1_555 1_555
C18 C16 1_555 1_555
H10 C18 1_555 1_555
C19 C11 1_555 1_555
H11 C19 1_555 1_555
C20 C19 1_555 1_555
H12 C20 1_555 1_555
C21 C18 1_555 1_555
C22 O9 1_555 1_555
C23 H13 1_555 1_555
C24 C13 1_555 1_555
H14 C24 1_555 1_555
C25 C8 1_555 1_555
H15 C25 1_555 1_555
C26 C9 1_555 1_555
O11 C29 1_555 1_555
O12 C31 1_555 1_555
C27 H16 1_555 1_555
C28 H17 1_555 1_555
C29 C27 1_555 1_555
C30 C28 1_555 1_555
C31 C27 1_555 1_555
C32 C6 1_555 1_555
H18 C32 1_555 1_555
C33 H19 1_555 1_555
C34 O11 1_555 1_555
C35 C29 1_555 1_555
H20 C35 1_555 1_555
C36 C7 1_555 1_555
H21 C36 1_555 1_555
C37 H22 1_555 1_555
C38 C37 1_555 1_555
H23 C38 1_555 1_555
C39 C38 1_555 1_555
C40 O12 1_555 1_555
C41 C33 1_555 1_555
H24 C41 1_555 1_555
C42 C30 1_555 1_555
O13 C1 1_555 1_555
O14 Mn3 1_555 1_555
O15 Mn3 1_555 1_555
H25 O15 1_555 1_555
O16 Mn2 1_555 1_555
O17 Mn2 1_555 1_555
O18 C3 1_555 1_555
C43 O15 1_555 1_555
H26 C43 1_555 1_555
H27 C43 1_555 1_555
H28 C43 1_555 1_555
O1B C42B 1_555 1_555
O2B H1B 1_555 1_555
H2B O2B 1_555 1_555
O3B C1B 1_555 1_555
O4B C4B 1_555 1_555
O5B C3B 1_555 1_555
C1B C8B 1_555 1_555
O6B C2B 1_555 1_555
O7B C2B 1_555 1_555
C2B C39B 1_555 1_555
C3B C21B 1_555 1_555
O8B C4B 1_555 1_555
C4B C5B 1_555 1_555
C5B C6B 1_555 1_555
C6B H3B 1_555 1_555
C7B C5B 1_555 1_555
H4B C7B 1_555 1_555
Mn2B O14B 1_555 1_555
Mn3B O2B 1_555 1_555
O9B C11B 1_555 1_555
O10B C13B 1_555 1_555
C8B C14B 1_555 1_555
C9B C10B 1_555 1_555
C10B H5B 1_555 1_555
C11B C16B 1_555 1_555
C12B C9B 1_555 1_555
H6B C12B 1_555 1_555
C13B C23B 1_555 1_555
C14B H7B 1_555 1_555
C15B O10B 1_555 1_555
C16B H8B 1_555 1_555
C17B C15B 1_555 1_555
H9B C17B 1_555 1_555
C18B C16B 1_555 1_555
H10B C18B 1_555 1_555
C19B C11B 1_555 1_555
H11B C19B 1_555 1_555
C20B C19B 1_555 1_555
H12B C20B 1_555 1_555
C21B C18B 1_555 1_555
C22B O9B 1_555 1_555
C23B H13B 1_555 1_555
C24B C13B 1_555 1_555
H14B C24B 1_555 1_555
C25B C8B 1_555 1_555
H15B C25B 1_555 1_555
C26B C9B 1_555 1_555
O11B C29B 1_555 1_555
O12B C31B 1_555 1_555
C27B H16B 1_555 1_555
C28B H17B 1_555 1_555
C29B C27B 1_555 1_555
C30B C28B 1_555 1_555
C31B C27B 1_555 1_555
C32B C6B 1_555 1_555
H18B C32B 1_555 1_555
C33B H19B 1_555 1_555
C34B O11B 1_555 1_555
C35B C29B 1_555 1_555
H20B C35B 1_555 1_555
C36B C7B 1_555 1_555
H21B C36B 1_555 1_555
C37B H22B 1_555 1_555
C38B C37B 1_555 1_555
H23B C38B 1_555 1_555
C39B C38B 1_555 1_555
C40B O12B 1_555 1_555
C41B C33B 1_555 1_555
H24B C41B 1_555 1_555
C42B C30B 1_555 1_555
O13B C1B 1_555 1_555
O14B Mn3B 1_555 1_555
O15B Mn3B 1_555 1_555
H25B O15B 1_555 1_555
O16B Mn1 1_555 1_555
O17B Mn2B 1_555 1_555
O18B C3B 1_555 1_555
C43B O15B 1_555 1_555
H26B C43B 1_555 1_555
H27B C43B 1_555 1_555
H28B C43B 1_555 1_555
O1_2 Mn3B 1_555 1_555
O1B_2 Mn3 1_555 1_555
O3A Mn2 1_555 1_555
O3C Mn2B 1_555 1_555
O4A Mn2 1_555 1_555
O4C Mn2B 1_555 1_555
O5A Mn3B 1_555 1_555
O5C Mn3 1_555 1_555
O6A Mn2 1_555 1_555
O6C Mn2B 1_555 1_555
O7A Mn1 1_555 1_555
O7C Mn1 1_555 1_555
O8A Mn1 1_555 1_555
O8C Mn1 1_555 1_555
Mn1A O8B 1_555 1_555
Mn1A_2 O7B 1_555 1_555
Mn1A_3 O7 1_555 1_555
Mn1A_4 O8 1_555 1_555
Mn2A O6 1_555 1_555
Mn2A_2 O3 1_555 1_555
Mn2A_3 O4 1_555 1_555
Mn2C O4B 1_555 1_555
Mn2C_2 O3B 1_555 1_555
Mn2C_3 O6B 1_555 1_555
Mn3_2 O1B 1_555 1_555
Mn3A O5B 1_555 1_555
Mn3A_2 O3 1_555 1_555
Mn3B_2 O1 1_555 1_555
Mn3C O3B 1_555 1_555
Mn3C_2 O5 1_555 1_555
Mn3 O3A 1_555 1_555
C10 C22 1_555 1_555
C12 C15 1_555 1_555
C14 C24 1_555 1_555
C17 C22 1_555 1_555
C20 C21 1_555 1_555
C23 C25 1_555 1_555
C26 O16 1_555 1_555
C26 O17 1_555 1_555
C28 C31 1_555 1_555
C30 C35 1_555 1_555
C32 C34 1_555 1_555
C33 C40 1_555 1_555
C34 C36 1_555 1_555
C37 C40 1_555 1_555
C39 C41 1_555 1_555
C42 O14 1_555 1_555
Mn2B O16B 1_555 1_555
Mn3B O3C 1_555 1_555
C10B C22B 1_555 1_555
C12B C15B 1_555 1_555
C14B C24B 1_555 1_555
C17B C22B 1_555 1_555
C20B C21B 1_555 1_555
C23B C25B 1_555 1_555
C26B O16B 1_555 1_555
C26B O17B 1_555 1_555
C28B C31B 1_555 1_555
C30B C35B 1_555 1_555
C32B C34B 1_555 1_555
C33B C40B 1_555 1_555
C34B C36B 1_555 1_555
C37B C40B 1_555 1_555
C39B C41B 1_555 1_555
C42B O14B 1_555 1_555

#END
