
#######################################################################
#
#                 Cambridge Crystallographic Data Centre
#                                CCDC 
#
#######################################################################
#
# If this CIF has been generated from an entry in the Cambridge 
# Structural Database, then it will include bibliographic, chemical, 
# crystal, experimental, refinement or atomic coordinate data resulting 
# from the CCDC's data processing and validation procedures.
#
#######################################################################

data_YINDAC02
_symmetry_cell_setting           monoclinic
_symmetry_space_group_name_H-M   'C 2/c'
_symmetry_Int_Tables_number      15
_space_group_name_Hall           '-C 2yn'
loop_
_symmetry_equiv_pos_site_id
_symmetry_equiv_pos_as_xyz
1 x,y,z
2 -x,y,1/2-z
3 1/2+x,1/2+y,z
4 1/2-x,1/2+y,1/2-z
5 -x,-y,-z
6 x,-y,1/2+z
7 1/2-x,1/2-y,-z
8 1/2+x,1/2-y,1/2+z
_cell_length_a                   16.5114(18)
_cell_length_b                   9.4690(10)
_cell_length_c                   27.407(3)
_cell_angle_alpha                90
_cell_angle_beta                 102.715(2)
_cell_angle_gamma                90
_cell_volume                     4179.91
loop_
_atom_site_label
_atom_site_type_symbol
_atom_site_fract_x
_atom_site_fract_y
_atom_site_fract_z
Mn1 Mn 0.5000 0.78526(8) 0.2500
O1 O 0.36253(13) 0.7529(2) 0.21995(8)
O2 O 0.4679(2) 0.6278(5) 0.30079(15)
C1 C 0.3343(2) 0.6349(3) 0.19933(13)
C2 C 0.3299(2) 0.6194(3) 0.14477(13)
C3 C 0.3603(2) 0.7258(4) 0.11903(13)
H1 H 0.3851 0.8045 0.1364
C4 C 0.2954(2) 0.5003(4) 0.11823(13)
H2 H 0.2772 0.4258 0.1352
C5 C 0.2879(2) 0.4915(4) 0.06725(14)
H3 H 0.2634 0.4129 0.0496
C6 C 0.3546(2) 0.7171(4) 0.06812(13)
H4 H 0.3757 0.7889 0.0513
C7 C 0.3174(2) 0.6011(4) 0.04258(13)
Mn2 Mn 0.28060(3) 0.90216(5) 0.249827(18)
O3 O 0.49437(17) -0.0615(3) 0.19372(10)
O4 O 0.62287(15) 0.0214(2) 0.20350(9)
O5 O 0.16924(16) 0.8015(3) 0.20606(11)
H5 H 0.1609 0.7119 0.2008
O6 O 0.22413(15) 0.4536(2) -0.18813(9)
O7 O 0.31050(16) 0.5364(2) 0.22278(9)
O8 O 0.47518(17) 0.1968(3) -0.02154(9)
O9 O 0.28580(16) 0.2447(2) -0.18903(9)
O10 O 0.30482(18) 0.6052(3) -0.00943(9)
C8 C 0.5278(2) 0.0642(3) 0.12661(13)
C9 C 0.3732(2) 0.2749(4) -0.09102(13)
H6 H 0.3876 0.2002 -0.1095
C10 C 0.5896(2) 0.1064(4) 0.10302(13)
H7 H 0.6447 0.1021 0.1202
C11 C 0.2710(2) 0.3566(4) -0.16809(12)
C12 C 0.3136(2) 0.3713(3) -0.11316(12)
C13 C 0.4111(2) 0.2908(4) -0.04093(13)
C14 C 0.5492(2) 0.0034(4) 0.17827(13)
C15 C 0.3292(2) 0.4922(4) -0.03480(13)
C16 C 0.3902(2) 0.3989(4) -0.01204(13)
H8 H 0.4162 0.4084 0.0215
C17 C 0.4454(2) 0.0725(4) 0.10035(14)
H9 H 0.4030 0.0457 0.1159
C18 C 0.2910(2) 0.4808(4) -0.08514(13)
H10 H 0.2508 0.5458 -0.0999
C19 C 0.5709(2) 0.1549(4) 0.05438(14)
H11 H 0.6130 0.1839 0.0390
C20 C 0.4260(2) 0.1201(4) 0.05158(14)
H12 H 0.3709 0.1254 0.0343
C21 C 0.4892(2) 0.1599(4) 0.02870(13)
H13 H 0.4993 0.5681 0.2923
H14 H 0.4182 0.6085 0.2954
H15 H 0.1315 0.8501 0.1896
O1A O 0.63747(13) 0.7529(2) 0.28005(8)
O2A O 0.5321(2) 0.6278(5) 0.19921(15)
C1A C 0.6657(2) 0.6349(3) 0.30067(13)
C2A C 0.6701(2) 0.6194(3) 0.35523(13)
C3A C 0.6397(2) 0.7258(4) 0.38097(13)
H1A H 0.6149 0.8045 0.3636
C4A C 0.7046(2) 0.5003(4) 0.38177(13)
H2A H 0.7228 0.4258 0.3648
C5A C 0.7121(2) 0.4915(4) 0.43275(14)
H3A H 0.7366 0.4129 0.4504
C6A C 0.6454(2) 0.7171(4) 0.43188(13)
H4A H 0.6243 0.7889 0.4487
C7A C 0.6826(2) 0.6011(4) 0.45742(13)
Mn2A Mn 0.71940(3) 0.90216(5) 0.250173(18)
O3A O 0.50563(17) -0.0615(3) 0.30628(10)
O4A O 0.37713(15) 0.0214(2) 0.29650(9)
O5A O 0.83076(16) 0.8015(3) 0.29394(11)
H5A H 0.8391 0.7119 0.2992
O6A O 0.77587(15) 0.4536(2) 0.68813(9)
O7A O 0.68950(16) 0.5364(2) 0.27722(9)
O8A O 0.52482(17) 0.1968(3) 0.52154(9)
O9A O 0.71420(16) 0.2447(2) 0.68903(9)
O10A O 0.69518(18) 0.6052(3) 0.50943(9)
C8A C 0.4722(2) 0.0642(3) 0.37339(13)
C9A C 0.6268(2) 0.2749(4) 0.59102(13)
H6A H 0.6124 0.2002 0.6095
C10A C 0.4104(2) 0.1064(4) 0.39698(13)
H7A H 0.3553 0.1021 0.3798
C11A C 0.7290(2) 0.3566(4) 0.66809(12)
C12A C 0.6864(2) 0.3713(3) 0.61316(12)
C13A C 0.5889(2) 0.2908(4) 0.54093(13)
C14A C 0.4508(2) 0.0034(4) 0.32173(13)
C15A C 0.6708(2) 0.4922(4) 0.53480(13)
C16A C 0.6098(2) 0.3989(4) 0.51204(13)
H8A H 0.5838 0.4084 0.4785
C17A C 0.5546(2) 0.0725(4) 0.39965(14)
H9A H 0.5970 0.0457 0.3841
C18A C 0.7090(2) 0.4808(4) 0.58514(13)
H10A H 0.7492 0.5458 0.5999
C19A C 0.4291(2) 0.1549(4) 0.44562(14)
H11A H 0.3870 0.1839 0.4610
C20A C 0.5740(2) 0.1201(4) 0.44842(14)
H12A H 0.6291 0.1254 0.4657
C21A C 0.5108(2) 0.1599(4) 0.47130(13)
H13A H 0.5007 0.5681 0.2077
H14A H 0.5818 0.6085 0.2046
H15A H 0.8685 0.8501 0.3104
Mn1_2 Mn 0.5000 -0.21474(8) 0.2500
Mn2_2 Mn 0.28060(3) -0.09784(5) 0.249827(18)
Mn2A_2 Mn 0.71940(3) -0.09784(5) 0.250173(18)
Mn2B Mn 0.78060(3) 0.40216(5) 0.249827(18)
Mn2C Mn 0.21940(3) 0.40216(5) 0.250173(18)
Mn2D Mn 0.71940(3) 0.09784(5) 0.750173(18)
Mn2E Mn 0.28060(3) 0.09784(5) -0.250173(18)
Mn2F Mn 0.21940(3) 0.59784(5) -0.249827(18)
Mn2G Mn 0.78060(3) 0.59784(5) 0.749827(18)
O3_2 O 0.49437(17) 0.9385(3) 0.19372(10)
O3A_2 O 0.50563(17) 0.9385(3) 0.30628(10)
O4_2 O 0.62287(15) 1.0214(2) 0.20350(9)
O4A_2 O 0.37713(15) 1.0214(2) 0.29650(9)
O6F O 0.27587(15) 1.0464(2) 0.18813(9)
O6G O 0.72413(15) 1.0464(2) 0.31187(9)
O7B O 0.81050(16) 1.0364(2) 0.22278(9)
O7C O 0.18950(16) 1.0364(2) 0.27722(9)
O9D O 0.71420(16) 0.7553(2) 0.18903(9)
O9E O 0.28580(16) 0.7553(2) 0.31097(9)
O11 O 0.4287(2) 0.2575(4) 0.20945(17)
H16 H 0.3780 0.2821 0.2026
H17 H 0.4615 0.3264 0.2129
O12 O 0.5084(3) 0.4056(4) 0.1401(2)
H18 H 0.5361 0.3788 0.1200
H19 H 0.5137 0.4898 0.1500
loop_
_geom_bond_atom_site_label_1
_geom_bond_atom_site_label_2
_geom_bond_site_symmetry_1
_geom_bond_site_symmetry_2
Mn1 O1 1_555 1_555
O1 C1 1_555 1_555
O2 Mn1 1_555 1_555
C1 C2 1_555 1_555
C2 C3 1_555 1_555
C3 H1 1_555 1_555
C4 C2 1_555 1_555
H2 C4 1_555 1_555
C5 C4 1_555 1_555
H3 C5 1_555 1_555
C6 C3 1_555 1_555
H4 C6 1_555 1_555
C7 C5 1_555 1_555
Mn2 O1 1_555 1_555
O3 C14 1_555 1_555
O4 C14 1_555 1_555
O5 Mn2 1_555 1_555
H5 O5 1_555 1_555
O6 C11 1_555 1_555
O7 C1 1_555 1_555
O8 C13 1_555 1_555
O9 C11 1_555 1_555
O10 C7 1_555 1_555
C8 C10 1_555 1_555
C9 H6 1_555 1_555
C10 H7 1_555 1_555
C11 C12 1_555 1_555
C12 C9 1_555 1_555
C13 C9 1_555 1_555
C14 C8 1_555 1_555
C15 O10 1_555 1_555
C16 C13 1_555 1_555
H8 C16 1_555 1_555
C17 C8 1_555 1_555
H9 C17 1_555 1_555
C18 C12 1_555 1_555
H10 C18 1_555 1_555
C19 C10 1_555 1_555
H11 C19 1_555 1_555
C20 C17 1_555 1_555
H12 C20 1_555 1_555
C21 O8 1_555 1_555
H13 O2 1_555 1_555
H14 O2 1_555 1_555
H15 O5 1_555 1_555
O11 H16 1_555 1_555
H17 O11 1_555 1_555
O12 H18 1_555 1_555
H19 O12 1_555 1_555
O1A Mn1 1_555 1_555
O2A Mn1 1_555 1_555
C1A O1A 1_555 1_555
C2A C1A 1_555 1_555
C3A C2A 1_555 1_555
H1A C3A 1_555 1_555
C4A C2A 1_555 1_555
H2A C4A 1_555 1_555
C5A C4A 1_555 1_555
H3A C5A 1_555 1_555
C6A C3A 1_555 1_555
H4A C6A 1_555 1_555
C7A C5A 1_555 1_555
Mn2A O1A 1_555 1_555
O3A C14A 1_555 1_555
O4A C14A 1_555 1_555
O5A Mn2A 1_555 1_555
H5A O5A 1_555 1_555
O6A C11A 1_555 1_555
O7A C1A 1_555 1_555
O8A C13A 1_555 1_555
O9A C11A 1_555 1_555
O10A C7A 1_555 1_555
C8A C10A 1_555 1_555
C9A H6A 1_555 1_555
C10A H7A 1_555 1_555
C11A C12A 1_555 1_555
C12A C9A 1_555 1_555
C13A C9A 1_555 1_555
C14A C8A 1_555 1_555
C15A O10A 1_555 1_555
C16A C13A 1_555 1_555
H8A C16A 1_555 1_555
C17A C8A 1_555 1_555
H9A C17A 1_555 1_555
C18A C12A 1_555 1_555
H10A C18A 1_555 1_555
C19A C10A 1_555 1_555
H11A C19A 1_555 1_555
C20A C17A 1_555 1_555
H12A C20A 1_555 1_555
C21A O8A 1_555 1_555
H13A O2A 1_555 1_555
H14A O2A 1_555 1_555
H15A O5A 1_555 1_555
Mn1_2 O3 1_555 1_555
Mn2_2 O4A 1_555 1_555
Mn2A_2 O4 1_555 1_555
Mn2B O7A 1_555 1_555
Mn2C O7 1_555 1_555
Mn2D O9A 1_555 1_555
Mn2E O9 1_555 1_555
Mn2F O6 1_555 1_555
Mn2G O6A 1_555 1_555
O3_2 Mn1 1_555 1_555
O3A_2 Mn1 1_555 1_555
O4_2 Mn2A 1_555 1_555
O4A_2 Mn2 1_555 1_555
O6F Mn2 1_555 1_555
O6G Mn2A 1_555 1_555
O7B Mn2A 1_555 1_555
O7C Mn2 1_555 1_555
O9D Mn2A 1_555 1_555
O9E Mn2 1_555 1_555
C6 C7 1_555 1_555
C15 C16 1_555 1_555
C15 C18 1_555 1_555
C19 C21 1_555 1_555
C20 C21 1_555 1_555
C6A C7A 1_555 1_555
O3A Mn1_2 1_555 1_555
C15A C16A 1_555 1_555
C15A C18A 1_555 1_555
C19A C21A 1_555 1_555
C20A C21A 1_555 1_555

#END
