
#######################################################################
#
#                 Cambridge Crystallographic Data Centre
#                                CCDC 
#
#######################################################################
#
# If this CIF has been generated from an entry in the Cambridge 
# Structural Database, then it will include bibliographic, chemical, 
# crystal, experimental, refinement or atomic coordinate data resulting 
# from the CCDC's data processing and validation procedures.
#
#######################################################################

data_YINDAC01
_symmetry_cell_setting           monoclinic
_symmetry_space_group_name_H-M   'C 2/c'
_symmetry_Int_Tables_number      15
_space_group_name_Hall           '-C 2yn'
loop_
_symmetry_equiv_pos_site_id
_symmetry_equiv_pos_as_xyz
1 x,y,z
2 -x,y,1/2-z
3 1/2+x,1/2+y,z
4 1/2-x,1/2+y,1/2-z
5 -x,-y,-z
6 x,-y,1/2+z
7 1/2-x,1/2-y,-z
8 1/2+x,1/2-y,1/2+z
_cell_length_a                   16.5375(14)
_cell_length_b                   9.3952(8)
_cell_length_c                   27.346(3)
_cell_angle_alpha                90
_cell_angle_beta                 102.653(10)
_cell_angle_gamma                90
_cell_volume                     4145.65
loop_
_atom_site_label
_atom_site_type_symbol
_atom_site_fract_x
_atom_site_fract_y
_atom_site_fract_z
Mn1 Mn 0.28135(4) 0.40247(7) 1.24994(2)
Mn2 Mn 0.0000 0.21714(10) 0.7500
C1 C 0.2286(3) 0.6440(4) 1.16777(15)
C2 C 0.1865(3) 0.6286(4) 1.11289(15)
C3 C 0.2097(3) 0.5187(5) 1.08497(15)
H1 H 0.2503 0.4541 1.0997
C4 C 0.1713(3) 0.5070(5) 1.03489(16)
C5 C 0.1095(3) 0.5999(5) 1.01194(16)
H2 H 0.0828 0.5889 0.9785
C6 C 0.0891(3) 0.7091(5) 1.04062(16)
C7 C 0.1260(3) 0.7240(5) 1.09050(16)
H3 H 0.1104 0.7979 1.1091
C8 C 0.1831(3) 0.3980(5) 0.95753(16)
C9 C 0.1458(3) 0.2819(5) 0.93159(16)
H4 H 0.1250 0.2093 0.9484
C10 C 0.1393(3) 0.2727(5) 0.88071(16)
H5 H 0.1140 0.1937 0.8633
C11 C 0.1700(3) 0.3803(4) 0.85513(15)
C12 C 0.2055(3) 0.4993(5) 0.88180(16)
H6 H 0.2242 0.5741 0.8649
C13 C 0.2131(3) 0.5075(5) 0.93273(17)
H7 H 0.2382 0.5861 0.9504
C14 C 0.1662(2) 0.3650(4) 0.80070(15)
C15 C 0.0112(3) 0.8389(5) 0.97109(16)
C16 C 0.0741(3) 0.8790(5) 0.94794(18)
H8 H 0.1291 0.8738 0.9652
C17 C 0.0547(3) 0.9269(5) 0.89917(17)
H9 H 0.0968 0.9539 0.8835
C18 C -0.0273(3) 0.9349(4) 0.87328(15)
C19 C -0.0890(3) 0.8927(5) 0.89676(16)
H10 H -0.1441 0.8968 0.8795
C20 C -0.0698(3) 0.8446(5) 0.94552(17)
H11 H -0.1118 0.8159 0.9611
C21 C -0.0498(3) 0.9963(4) 0.82150(16)
O1 O 0.2756(2) 0.5461(3) 1.18770(11)
O2 O 0.2136(2) 0.7555(3) 1.18888(11)
O3 O 0.1957(2) 0.3937(3) 1.00927(11)
O4 O 0.0253(2) 0.8023(4) 1.02127(11)
O5 O 0.13723(17) 0.2477(3) 0.77980(10)
O6 O 0.1905(2) 0.4633(3) 0.77732(12)
O7 O -0.12241(19) 0.9776(3) 0.79642(11)
O8 O 0.0043(2) 1.0641(5) 0.80652(14)
O9 O 0.1706(2) 0.3011(4) 1.20505(14)
H12 H 0.1560 0.2327 1.2215
H13 H 0.1319 0.3623 1.1985
O10 O -0.0302(3) 0.3771(7) 0.8007(2)
H14 H -0.0826 0.3843 0.7958
H15 H -0.0098 0.4570 0.7952
Mn1A Mn -0.28135(4) 0.40247(7) 0.25006(2)
C1A C -0.2286(3) 0.6440(4) 0.33223(15)
C2A C -0.1865(3) 0.6286(4) 0.38711(15)
C3A C -0.2097(3) 0.5187(5) 0.41503(15)
H1A H -0.2503 0.4541 0.4003
C4A C -0.1713(3) 0.5070(5) 0.46511(16)
C5A C -0.1095(3) 0.5999(5) 0.48806(16)
H2A H -0.0828 0.5889 0.5215
C6A C -0.0891(3) 0.7091(5) 0.45938(16)
C7A C -0.1260(3) 0.7240(5) 0.40950(16)
H3A H -0.1104 0.7979 0.3909
C8A C -0.1831(3) 0.3980(5) 0.54247(16)
C9A C -0.1458(3) 0.2819(5) 0.56841(16)
H4A H -0.1250 0.2093 0.5516
C10A C -0.1393(3) 0.2727(5) 0.61929(16)
H5A H -0.1140 0.1937 0.6367
C11A C -0.1700(3) 0.3803(4) 0.64487(15)
C12A C -0.2055(3) 0.4993(5) 0.61820(16)
H6A H -0.2242 0.5741 0.6351
C13A C -0.2131(3) 0.5075(5) 0.56727(17)
H7A H -0.2382 0.5861 0.5496
C14A C -0.1662(2) 0.3650(4) 0.69930(15)
C15A C -0.0112(3) 0.8389(5) 0.52891(16)
C16A C -0.0741(3) 0.8790(5) 0.55206(18)
H8A H -0.1291 0.8738 0.5348
C17A C -0.0547(3) 0.9269(5) 0.60083(17)
H9A H -0.0968 0.9539 0.6165
C18A C 0.0273(3) 0.9349(4) 0.62672(15)
C19A C 0.0890(3) 0.8927(5) 0.60324(16)
H10A H 0.1441 0.8968 0.6205
C20A C 0.0698(3) 0.8446(5) 0.55448(17)
H11A H 0.1118 0.8159 0.5389
C21A C 0.0498(3) 0.9963(4) 0.67850(16)
O1A O -0.2756(2) 0.5461(3) 0.31230(11)
O2A O -0.2136(2) 0.7555(3) 0.31112(11)
O3A O -0.1957(2) 0.3937(3) 0.49073(11)
O4A O -0.0253(2) 0.8023(4) 0.47873(11)
O5A O -0.13723(17) 0.2477(3) 0.72020(10)
O6A O -0.1905(2) 0.4633(3) 0.72268(12)
O7A O 0.12241(19) 0.9776(3) 0.70358(11)
O8A O -0.0043(2) 1.0641(5) 0.69348(14)
O9A O -0.1706(2) 0.3011(4) 0.29495(14)
H12A H -0.1560 0.2327 0.2785
H13A H -0.1319 0.3623 0.3015
O10A O 0.0302(3) 0.3771(7) 0.6993(2)
H14A H 0.0826 0.3843 0.7042
H15A H 0.0098 0.4570 0.7048
Mn1B Mn -0.21865(4) 0.90247(7) 0.24994(2)
Mn1C Mn 0.21865(4) 0.90247(7) 1.25006(2)
Mn1D Mn -0.28135(4) 0.59753(7) 0.75006(2)
Mn1E Mn 0.28135(4) 0.59753(7) 0.74994(2)
Mn1F Mn 0.21865(4) 0.09753(7) 0.75006(2)
Mn1F_2 Mn 0.21865(4) 1.09753(7) 0.75006(2)
Mn1G Mn -0.21865(4) 0.09753(7) 0.74994(2)
Mn1G_2 Mn -0.21865(4) 1.09753(7) 0.74994(2)
Mn2_2 Mn 0.0000 1.21714(10) 0.7500
O2B O -0.2864(2) 0.2555(3) 0.18888(11)
O2C O 0.2864(2) 0.2555(3) 1.31112(11)
O5F O 0.36277(17) 0.2523(3) 1.22020(10)
O5G O -0.36277(17) 0.2523(3) 0.27980(10)
O6D O -0.1905(2) 0.5367(3) 0.22268(12)
O6E O 0.1905(2) 0.5367(3) 1.27732(12)
O7F O -0.37759(19) 0.5224(3) 0.20358(11)
O7G O 0.37759(19) 0.5224(3) 1.29642(11)
O8_2 O 0.0043(2) 0.0641(5) 0.80652(14)
O8A_2 O -0.0043(2) 0.0641(5) 0.69348(14)
O11 O 0.0700(4) 0.2637(7) 0.2901(2)
H16 H 0.1101 0.3108 0.2833
H17 H 0.0858 0.1803 0.2998
O12 O 0.9907(5) 0.5909(8) 0.8590(4)
H18 H 0.9889 0.5724 0.8892
H19 H 1.0326 0.6414 0.8574
loop_
_geom_bond_atom_site_label_1
_geom_bond_atom_site_label_2
_geom_bond_site_symmetry_1
_geom_bond_site_symmetry_2
Mn1 O1 1_555 1_555
Mn2 O5 1_555 1_555
C1 C2 1_555 1_555
C2 C3 1_555 1_555
C3 H1 1_555 1_555
C4 C3 1_555 1_555
C5 C4 1_555 1_555
H2 C5 1_555 1_555
C6 C5 1_555 1_555
C7 C2 1_555 1_555
H3 C7 1_555 1_555
C8 C9 1_555 1_555
C9 H4 1_555 1_555
C10 C9 1_555 1_555
H5 C10 1_555 1_555
C11 C10 1_555 1_555
C12 C11 1_555 1_555
H6 C12 1_555 1_555
C13 C8 1_555 1_555
H7 C13 1_555 1_555
C14 C11 1_555 1_555
C15 C16 1_555 1_555
C16 H8 1_555 1_555
C17 C16 1_555 1_555
H9 C17 1_555 1_555
C18 C17 1_555 1_555
C19 C18 1_555 1_555
H10 C19 1_555 1_555
C20 C15 1_555 1_555
H11 C20 1_555 1_555
C21 C18 1_555 1_555
O1 C1 1_555 1_555
O2 C1 1_555 1_555
O3 C4 1_555 1_555
O4 C6 1_555 1_555
O5 C14 1_555 1_555
O6 C14 1_555 1_555
O7 C21 1_555 1_555
O8 C21 1_555 1_555
O9 Mn1 1_555 1_555
H12 O9 1_555 1_555
H13 O9 1_555 1_555
O10 Mn2 1_555 1_555
H14 O10 1_555 1_555
H15 O10 1_555 1_555
O11 H16 1_555 1_555
H17 O11 1_555 1_555
O12 H18 1_555 1_555
H19 O12 1_555 1_555
Mn1A O1A 1_555 1_555
C1A C2A 1_555 1_555
C2A C3A 1_555 1_555
C3A H1A 1_555 1_555
C4A C3A 1_555 1_555
C5A C4A 1_555 1_555
H2A C5A 1_555 1_555
C6A C5A 1_555 1_555
C7A C2A 1_555 1_555
H3A C7A 1_555 1_555
C8A C9A 1_555 1_555
C9A H4A 1_555 1_555
C10A C9A 1_555 1_555
H5A C10A 1_555 1_555
C11A C10A 1_555 1_555
C12A C11A 1_555 1_555
H6A C12A 1_555 1_555
C13A C8A 1_555 1_555
H7A C13A 1_555 1_555
C14A C11A 1_555 1_555
C15A C16A 1_555 1_555
C16A H8A 1_555 1_555
C17A C16A 1_555 1_555
H9A C17A 1_555 1_555
C18A C17A 1_555 1_555
C19A C18A 1_555 1_555
H10A C19A 1_555 1_555
C20A C15A 1_555 1_555
H11A C20A 1_555 1_555
C21A C18A 1_555 1_555
O1A C1A 1_555 1_555
O2A C1A 1_555 1_555
O3A C4A 1_555 1_555
O4A C6A 1_555 1_555
O5A Mn2 1_555 1_555
O6A C14A 1_555 1_555
O7A C21A 1_555 1_555
O8A C21A 1_555 1_555
O9A Mn1A 1_555 1_555
H12A O9A 1_555 1_555
H13A O9A 1_555 1_555
O10A Mn2 1_555 1_555
H14A O10A 1_555 1_555
H15A O10A 1_555 1_555
Mn1B O2A 1_555 1_555
Mn1C O2 1_555 1_555
Mn1D O6A 1_555 1_555
Mn1E O6 1_555 1_555
Mn1F O5 1_555 1_555
Mn1F_2 O7A 1_555 1_555
Mn1G O5A 1_555 1_555
Mn1G_2 O7 1_555 1_555
Mn2_2 O8 1_555 1_555
O2B Mn1A 1_555 1_555
O2C Mn1 1_555 1_555
O5F Mn1 1_555 1_555
O5G Mn1A 1_555 1_555
O6D Mn1A 1_555 1_555
O6E Mn1 1_555 1_555
O7F Mn1A 1_555 1_555
O7G Mn1 1_555 1_555
O8_2 Mn2 1_555 1_555
O8A_2 Mn2 1_555 1_555
C6 C7 1_555 1_555
C8 O3 1_555 1_555
C12 C13 1_555 1_555
C15 O4 1_555 1_555
C19 C20 1_555 1_555
C6A C7A 1_555 1_555
C8A O3A 1_555 1_555
C12A C13A 1_555 1_555
C14A O5A 1_555 1_555
C15A O4A 1_555 1_555
C19A C20A 1_555 1_555
O8A Mn2_2 1_555 1_555

#END
