
#######################################################################
#
#                 Cambridge Crystallographic Data Centre
#                                CCDC 
#
#######################################################################
#
# If this CIF has been generated from an entry in the Cambridge 
# Structural Database, then it will include bibliographic, chemical, 
# crystal, experimental, refinement or atomic coordinate data resulting 
# from the CCDC's data processing and validation procedures.
#
#######################################################################

data_YINDOQ
_symmetry_cell_setting           monoclinic
_symmetry_space_group_name_H-M   'P 21/c'
_symmetry_Int_Tables_number      14
_space_group_name_Hall           '-P 2ybc'
loop_
_symmetry_equiv_pos_site_id
_symmetry_equiv_pos_as_xyz
1 x,y,z
2 -x,1/2+y,1/2-z
3 -x,-y,-z
4 x,1/2-y,1/2+z
_cell_length_a                   12.5497(12)
_cell_length_b                   21.783(2)
_cell_length_c                   17.7472(16)
_cell_angle_alpha                90
_cell_angle_beta                 97.507(2)
_cell_angle_gamma                90
_cell_volume                     4809.97
loop_
_atom_site_label
_atom_site_type_symbol
_atom_site_fract_x
_atom_site_fract_y
_atom_site_fract_z
O1 O -0.1830(4) 0.0408(2) 1.5408(3)
H1 H -0.2131 0.0649 1.5665
Mn1 Mn 0.52747(9) 0.37062(5) 0.97061(6)
Mn2 Mn -0.09004(8) 0.09418(4) 1.46016(5)
Mn3 Mn 0.17232(8) 0.15401(5) 1.53271(6)
O2 O 0.1826(4) 0.1127(2) 1.4225(2)
O3 O 0.0093(4) 0.1140(2) 1.3740(2)
O4 O 0.2021(4) 0.0771(2) 1.0670(2)
O5 O 0.5017(4) 0.05839(19) 0.9339(2)
O6 O 0.7590(4) 0.3874(3) 0.8970(3)
O7 O 0.5834(4) 0.3978(2) 0.8701(3)
O8 O 0.4979(4) 0.1084(3) 0.5823(3)
O9 O 0.6359(5) 0.0476(2) 0.6021(3)
O10 O 0.3913(4) 0.4260(2) 0.9323(3)
H2 H 0.4105 0.4616 0.9276
O11 O 0.4488(4) 0.2869(2) 0.9531(3)
O12 O 0.6724(4) 0.3237(3) 1.0173(3)
H3 H 0.6710 0.3172 1.0626
O13 O 1.0891(5) 0.5010(2) 0.0817(3)
O14 O 0.8917(4) 0.1909(2) 0.4908(3)
O15 O 1.0601(4) 0.22172(19) 0.4873(3)
O16 O 1.0349(4) 0.4048(2) 0.0607(2)
O17 O 0.2792(4) 0.0760(2) 1.5775(2)
H4 H 0.3423 0.0861 1.5782
O18 O 0.3138(4) 0.2971(2) 1.0216(3)
O19 O 0.1760(4) 0.1928(2) 1.6465(3)
O20 O 0.7144(4) 0.3994(2) 0.5364(2)
O21 O 1.0262(4) 0.4434(2) 0.4183(2)
N1 N 0.0903(5) 0.2269(3) 1.7422(3)
C1 C 0.9918(5) 0.3395(3) 0.4537(3)
H5 H 1.0554 0.3270 0.4367
C2 C 0.2836(5) 0.1064(3) 1.0347(3)
C3 C 0.9266(5) 0.2974(3) 0.4838(3)
C4 C 0.8085(5) 0.3774(3) 0.5095(3)
C5 C 0.1384(5) 0.1050(3) 1.2884(3)
C6 C 0.9613(6) 0.3999(3) 0.4494(3)
C7 C 0.6855(5) 0.3950(3) 0.7676(4)
C8 C 0.4409(5) 0.1596(3) 0.9620(4)
H6 H 0.4968 0.1774 0.9400
C9 C 0.1851(6) 0.0916(3) 1.1409(4)
C10 C 0.5143(5) 0.0651(3) 0.8579(3)
C11 C 0.8328(6) 0.3157(3) 0.5103(3)
H7 H 0.7872 0.2871 0.5282
C12 C 0.3679(5) 0.1962(3) 0.9934(3)
C13 C 0.4552(6) 0.0958(3) 0.7317(4)
H8 H 0.4040 0.1150 0.6969
C14 C 0.9634(6) 0.4153(3) 0.2133(4)
H9 H 0.9111 0.3972 0.1783
C15 C 0.7792(5) 0.3741(3) 0.7423(4)
H10 H 0.8349 0.3598 0.7777
C16 C 0.0597(5) 0.0853(3) 1.2305(4)
H11 H -0.0093 0.0770 1.2415
C17 C 1.0324(6) 0.4388(3) 0.3408(3)
C18 C 0.1070(6) 0.1111(3) 1.3678(4)
C19 C 0.4301(5) 0.0963(3) 0.9637(3)
C20 C 0.9618(5) 0.2318(3) 0.4878(4)
C21 C 0.4372(5) 0.0915(3) 0.8064(4)
H12 H 0.3738 0.1063 0.8215
C22 C 1.0522(6) 0.4431(3) 0.1878(3)
C23 C 1.0570(5) 0.4503(3) 0.1044(4)
C24 C 0.6756(6) 0.3937(3) 0.8506(4)
C25 C 0.2633(6) 0.1115(3) 1.1958(4)
H13 H 0.3318 0.1201 1.1842
C26 C 0.9516(6) 0.4140(3) 0.2894(4)
H14 H 0.8908 0.3969 0.3058
C27 C 1.1243(6) 0.4639(3) 0.3180(4)
H15 H 1.1791 0.4785 0.3538
C28 C 0.0830(6) 0.0780(3) 1.1569(4)
H16 H 0.0306 0.0642 1.1187
C29 C 0.6035(5) 0.4164(3) 0.7139(4)
H17 H 0.5396 0.4303 0.7291
C30 C 0.6076(6) 0.0424(3) 0.8349(4)
H18 H 0.6610 0.0256 0.8701
C31 C 0.2395(6) 0.1188(3) 1.2698(4)
H19 H 0.2924 0.1331 1.3073
C32 C 0.3764(6) 0.2659(3) 0.9890(4)
C33 C 1.1337(6) 0.4669(3) 0.2413(4)
H20 H 1.1942 0.4848 0.2253
C34 C 0.5466(6) 0.0727(3) 0.7071(3)
C35 C 0.6204(6) 0.0449(3) 0.7593(4)
H21 H 0.6810 0.0272 0.7433
C36 C 0.5623(6) 0.0760(3) 0.6256(4)
C37 C 0.0935(7) 0.2116(3) 1.6714(4)
H22 H 0.0306 0.2149 1.6376
C38 C 0.8697(6) 0.4205(3) 0.4775(3)
H23 H 0.8502 0.4617 0.4749
C39 C 0.2887(5) 0.1697(3) 1.0321(3)
H24 H 0.2413 0.1939 1.0551
C40 C -0.0122(6) 0.2457(3) 1.7673(4)
H25 H -0.0659 0.2501 1.7238
H26 H -0.0028 0.2842 1.7936
H27 H -0.0348 0.2151 1.8008
C41 C 0.1803(7) 0.2179(4) 1.7997(4)
H28 H 0.2417 0.2055 1.7764
H29 H 0.1634 0.1867 1.8344
H30 H 0.1961 0.2557 1.8269
C42 C 0.7921(5) 0.3739(3) 0.6662(4)
H31 H 0.8552 0.3592 0.6505
C43 C 0.7103(5) 0.3955(3) 0.6140(4)
C44 C 0.6169(6) 0.4170(3) 0.6380(4)
H32 H 0.5622 0.4322 0.6024
C45 C 0.3528(5) 0.0695(3) 1.0001(3)
H33 H 0.3466 0.0270 1.0016
H34 H 0.327(2) 0.4167(16) 0.921(3)
H35 H 0.731(4) 0.314(4) 1.000(2)
Mn1C Mn 0.52747(9) 0.12938(5) 0.47061(6)
Mn2_2 Mn 0.90996(8) 0.09418(4) 0.46016(5)
Mn2A Mn 1.09004(8) 0.59418(4) 0.03984(5)
Mn2C Mn 0.90996(8) 0.40582(4) -0.03984(5)
Mn2C_2 Mn 0.90996(8) 0.40582(4) 0.96016(5)
Mn3_2 Mn 1.17232(8) 0.15401(5) 0.53271(6)
Mn3C Mn 0.17232(8) 0.34599(5) 1.03271(6)
Mn3C_2 Mn 1.17232(8) 0.34599(5) 0.03271(6)
O6C O -0.2410(4) 0.1126(3) 1.3970(3)
O8C O 0.4979(4) 0.3916(3) 1.0823(3)
O13A O -0.0891(5) 0.0010(2) 1.4183(3)
O14_2 O -0.1083(4) 0.1909(2) 1.4908(3)
O15_2 O 0.0601(4) 0.22172(19) 1.4873(3)
O16C O 0.0349(4) 0.0952(2) 1.5607(2)
O18C O 0.3138(4) 0.2029(2) 1.5216(3)
O22 O 0.7131(6) 0.2088(4) 0.6642(4)
N2 N 0.5991(6) 0.2386(3) 0.7451(5)
C46 C 0.6282(11) 0.2295(5) 0.6785(6)
H36 H 0.5784 0.2400 0.6371
C47 C 0.4972(10) 0.2611(4) 0.7590(6)
H37 H 0.4548 0.2711 0.7115
H38 H 0.5069 0.2973 0.7901
H39 H 0.4609 0.2303 0.7847
C48 C 0.6742(9) 0.2216(5) 0.8135(6)
H40 H 0.7403 0.2069 0.7983
H41 H 0.6426 0.1900 0.8409
H42 H 0.6884 0.2570 0.8455
loop_
_geom_bond_atom_site_label_1
_geom_bond_atom_site_label_2
_geom_bond_site_symmetry_1
_geom_bond_site_symmetry_2
O1 H1 1_555 1_555
Mn1 O7 1_555 1_555
Mn2 O1 1_555 1_555
Mn3 O2 1_555 1_555
O2 C18 1_555 1_555
O3 Mn2 1_555 1_555
O4 C2 1_555 1_555
O5 C10 1_555 1_555
O6 C24 1_555 1_555
O7 C24 1_555 1_555
O8 C36 1_555 1_555
O9 C36 1_555 1_555
O10 Mn1 1_555 1_555
H2 O10 1_555 1_555
O11 Mn1 1_555 1_555
O12 Mn1 1_555 1_555
H3 O12 1_555 1_555
O13 C23 1_555 1_555
O14 C20 1_555 1_555
O15 C20 1_555 1_555
O16 C23 1_555 1_555
O17 Mn3 1_555 1_555
H4 O17 1_555 1_555
O18 C32 1_555 1_555
O19 Mn3 1_555 1_555
O20 C4 1_555 1_555
O21 C6 1_555 1_555
N1 C37 1_555 1_555
C1 H5 1_555 1_555
C2 C39 1_555 1_555
C3 C1 1_555 1_555
C4 C11 1_555 1_555
C5 C16 1_555 1_555
C6 C1 1_555 1_555
C7 C15 1_555 1_555
C8 H6 1_555 1_555
C9 O4 1_555 1_555
C10 C21 1_555 1_555
C11 C3 1_555 1_555
H7 C11 1_555 1_555
C12 C8 1_555 1_555
C13 H8 1_555 1_555
C14 H9 1_555 1_555
C15 H10 1_555 1_555
C16 H11 1_555 1_555
C17 O21 1_555 1_555
C18 O3 1_555 1_555
C19 O5 1_555 1_555
C20 C3 1_555 1_555
C21 C13 1_555 1_555
H12 C21 1_555 1_555
C22 C14 1_555 1_555
C23 C22 1_555 1_555
C24 C7 1_555 1_555
C25 C9 1_555 1_555
H13 C25 1_555 1_555
C26 C14 1_555 1_555
H14 C26 1_555 1_555
C27 C17 1_555 1_555
H15 C27 1_555 1_555
C28 C9 1_555 1_555
H16 C28 1_555 1_555
C29 C7 1_555 1_555
H17 C29 1_555 1_555
C30 C10 1_555 1_555
H18 C30 1_555 1_555
C31 C5 1_555 1_555
H19 C31 1_555 1_555
C32 O11 1_555 1_555
C33 C22 1_555 1_555
H20 C33 1_555 1_555
C34 C13 1_555 1_555
C35 C30 1_555 1_555
H21 C35 1_555 1_555
C36 C34 1_555 1_555
C37 O19 1_555 1_555
H22 C37 1_555 1_555
C38 C4 1_555 1_555
H23 C38 1_555 1_555
C39 C12 1_555 1_555
H24 C39 1_555 1_555
C40 N1 1_555 1_555
H25 C40 1_555 1_555
H26 C40 1_555 1_555
H27 C40 1_555 1_555
C41 N1 1_555 1_555
H28 C41 1_555 1_555
H29 C41 1_555 1_555
H30 C41 1_555 1_555
C42 C15 1_555 1_555
H31 C42 1_555 1_555
C43 O20 1_555 1_555
C44 C29 1_555 1_555
H32 C44 1_555 1_555
C45 C2 1_555 1_555
H33 C45 1_555 1_555
H34 O10 1_555 1_555
H35 O12 1_555 1_555
O22 C46 1_555 1_555
N2 C46 1_555 1_555
C46 H36 1_555 1_555
C47 N2 1_555 1_555
H37 C47 1_555 1_555
H38 C47 1_555 1_555
H39 C47 1_555 1_555
C48 N2 1_555 1_555
H40 C48 1_555 1_555
H41 C48 1_555 1_555
H42 C48 1_555 1_555
Mn1C O8 1_555 1_555
Mn2_2 O14 1_555 1_555
Mn2A O13 1_555 1_555
Mn2C O16 1_555 1_555
Mn2C_2 O6 1_555 1_555
Mn3_2 O15 1_555 1_555
Mn3C O18 1_555 1_555
Mn3C_2 O16 1_555 1_555
O6C Mn2 1_555 1_555
O8C Mn1 1_555 1_555
O13A Mn2 1_555 1_555
O14_2 Mn2 1_555 1_555
O15_2 Mn3 1_555 1_555
O16C Mn2 1_555 1_555
O18C Mn3 1_555 1_555
Mn3 O16C 1_555 1_555
C5 C18 1_555 1_555
C6 C38 1_555 1_555
C8 C19 1_555 1_555
C12 C32 1_555 1_555
C16 C28 1_555 1_555
C17 C26 1_555 1_555
C19 C45 1_555 1_555
C25 C31 1_555 1_555
C27 C33 1_555 1_555
C34 C35 1_555 1_555
C42 C43 1_555 1_555
C43 C44 1_555 1_555

#END
