
#######################################################################
#
#                 Cambridge Crystallographic Data Centre
#                                CCDC 
#
#######################################################################
#
# If this CIF has been generated from an entry in the Cambridge 
# Structural Database, then it will include bibliographic, chemical, 
# crystal, experimental, refinement or atomic coordinate data resulting 
# from the CCDC's data processing and validation procedures.
#
#######################################################################

data_YINDAC
_symmetry_cell_setting           monoclinic
_symmetry_space_group_name_H-M   'C 2/c'
_symmetry_Int_Tables_number      15
_space_group_name_Hall           '-C 2yn'
loop_
_symmetry_equiv_pos_site_id
_symmetry_equiv_pos_as_xyz
1 x,y,z
2 -x,y,1/2-z
3 1/2+x,1/2+y,z
4 1/2-x,1/2+y,1/2-z
5 -x,-y,-z
6 x,-y,1/2+z
7 1/2-x,1/2-y,-z
8 1/2+x,1/2-y,1/2+z
_cell_length_a                   16.579
_cell_length_b                   9.446
_cell_length_c                   27.370
_cell_angle_alpha                90
_cell_angle_beta                 102.71
_cell_angle_gamma                90
_cell_volume                     4181.25
loop_
_atom_site_label
_atom_site_type_symbol
_atom_site_fract_x
_atom_site_fract_y
_atom_site_fract_z
C1 C 0.2700(3) 0.6440(5) -0.16788(16)
C2 C 0.3125(3) 0.6284(4) -0.11283(15)
C3 C 0.2901(3) 0.5198(5) -0.08477(15)
H1 H 0.2494 0.4557 -0.0995
C4 C 0.3282(3) 0.5069(5) -0.03506(16)
C5 C 0.3899(3) 0.6003(5) -0.01226(16)
H2 H 0.4166 0.5893 0.0211
C6 C 0.3726(3) 0.7243(5) -0.09048(16)
H3 H 0.3874 0.7985 -0.1090
C7 C 0.4102(3) 0.7094(5) -0.04059(16)
C8 C 0.4877(3) 0.8397(5) 0.02853(15)
H4 H 0.5235 1.3996 0.1681
H5 H 0.1335 0.8374 -0.3156
C9 C 0.5698(3) 0.8448(5) 0.05408(18)
H6 H 0.6116 0.8158 0.0385
C10 C 0.5888(3) 0.8934(5) 0.10291(17)
H7 H 0.6438 0.8978 0.1201
C11 C 0.4256(3) 0.8797(5) 0.05183(18)
H8 H 0.3706 0.8751 0.0346
C12 C 0.4448(3) 0.9264(5) 0.10028(17)
H9 H 0.4026 0.9523 0.1159
C13 C 0.5272(3) 0.9357(4) 0.12667(15)
C14 C 0.5492(3) 0.9968(5) 0.17851(16)
C15 C 0.3177(3) 0.3977(5) 0.04282(16)
C16 C 0.3548(3) 0.2825(5) 0.06841(18)
H10 H 0.3762 0.2106 0.0517
C17 C 0.3603(3) 0.2741(5) 0.11915(16)
H11 H 0.3849 0.1952 0.1366
C18 C 0.2875(3) 0.5070(5) 0.06700(17)
H12 H 0.2627 0.5853 0.0492
C19 C 0.2950(3) 0.4982(5) 0.11844(16)
H13 H 0.2761 0.5722 0.1354
C20 C 0.3301(3) 0.3802(4) 0.14480(16)
C21 C 0.3332(3) 0.3655(5) 0.19945(16)
Mn1 Mn 0.28101(4) 0.90241(7) -0.25008(2)
Mn2 Mn 0.5000 1.21615(10) 0.2500
O1 O 0.2852(2) 0.7558(3) -0.18898(11)
O2 O 0.2243(2) 0.5463(3) -0.18780(11)
O3 O 0.4741(2) 0.8032(4) -0.02146(12)
O4 O 0.4954(2) 1.0631(4) 0.19375(13)
O5 O 0.6221(2) 0.9779(3) 0.20359(11)
O6 O 0.3045(2) 0.3941(3) -0.00934(11)
O7 O 0.36243(18) 0.2470(3) 0.22028(10)
O8 O 0.3097(2) 0.4629(3) 0.22285(12)
O9 O 0.1707(2) 0.8012(4) -0.29426(15)
H14 H 0.1738 0.7153 -0.2898
O10 O 0.5305(4) 1.3755(8) 0.1997(2)
H15 H 0.5585 1.4380 0.2161
C1A C 0.7300(3) 0.6440(5) 0.66788(16)
C2A C 0.6875(3) 0.6284(4) 0.61283(15)
C3A C 0.7099(3) 0.5198(5) 0.58477(15)
H1A H 0.7506 0.4557 0.5995
C4A C 0.6718(3) 0.5069(5) 0.53506(16)
C5A C 0.6101(3) 0.6003(5) 0.51226(16)
H2A H 0.5834 0.5893 0.4789
C6A C 0.6274(3) 0.7243(5) 0.59048(16)
H3A H 0.6126 0.7985 0.6090
C7A C 0.5898(3) 0.7094(5) 0.54059(16)
C8A C 0.5123(3) 0.8397(5) 0.47147(15)
H4A H 0.4765 1.3996 0.3319
H5A H 0.8665 0.8374 0.8156
C9A C 0.4302(3) 0.8448(5) 0.44592(18)
H6A H 0.3884 0.8158 0.4615
C10A C 0.4112(3) 0.8934(5) 0.39709(17)
H7A H 0.3562 0.8978 0.3799
C11A C 0.5744(3) 0.8797(5) 0.44817(18)
H8A H 0.6294 0.8751 0.4654
C12A C 0.5552(3) 0.9264(5) 0.39972(17)
H9A H 0.5974 0.9523 0.3841
C13A C 0.4728(3) 0.9357(4) 0.37333(15)
C14A C 0.4508(3) 0.9968(5) 0.32149(16)
C15A C 0.6823(3) 0.3977(5) 0.45718(16)
C16A C 0.6452(3) 0.2825(5) 0.43159(18)
H10A H 0.6238 0.2106 0.4483
C17A C 0.6397(3) 0.2741(5) 0.38085(16)
H11A H 0.6151 0.1952 0.3634
C18A C 0.7125(3) 0.5070(5) 0.43300(17)
H12A H 0.7373 0.5853 0.4508
C19A C 0.7050(3) 0.4982(5) 0.38156(16)
H13A H 0.7239 0.5722 0.3646
C20A C 0.6699(3) 0.3802(4) 0.35520(16)
C21A C 0.6668(3) 0.3655(5) 0.30055(16)
Mn1A Mn 0.71899(4) 0.90241(7) 0.75008(2)
O1A O 0.7148(2) 0.7558(3) 0.68898(11)
O2A O 0.7757(2) 0.5463(3) 0.68780(11)
O3A O 0.5259(2) 0.8032(4) 0.52146(12)
O4A O 0.5046(2) 1.0631(4) 0.30625(13)
O5A O 0.3779(2) 0.9779(3) 0.29641(11)
O6A O 0.6955(2) 0.3941(3) 0.50934(11)
O7A O 0.63757(18) 0.2470(3) 0.27972(10)
O8A O 0.6903(2) 0.4629(3) 0.27715(12)
O9A O 0.8293(2) 0.8012(4) 0.79426(15)
H14A H 0.8262 0.7153 0.7898
O10A O 0.4695(4) 1.3755(8) 0.3003(2)
H15A H 0.4415 1.4380 0.2839
Mn1B Mn 0.78101(4) 0.40241(7) 0.74992(2)
Mn1C Mn 0.21899(4) 0.40241(7) -0.24992(2)
Mn1D Mn 0.71899(4) 0.09759(7) 0.25008(2)
Mn1D_2 Mn 0.71899(4) 1.09759(7) 0.25008(2)
Mn1E Mn 0.28101(4) 0.09759(7) 0.24992(2)
Mn1E_2 Mn 0.28101(4) 1.09759(7) 0.24992(2)
Mn1F Mn 0.21899(4) 0.59759(7) 0.25008(2)
Mn1G Mn 0.78101(4) 0.59759(7) 0.24992(2)
Mn2_2 Mn 0.5000 0.21615(10) 0.2500
O2B O 0.7243(2) 1.0463(3) 0.81220(11)
O2C O 0.2757(2) 1.0463(3) -0.31220(11)
O5D O 0.3779(2) 1.0221(3) -0.20359(11)
O5E O 0.6221(2) 1.0221(3) 0.70359(11)
O7_2 O 0.36243(18) 1.2470(3) 0.22028(10)
O7A_2 O 0.63757(18) 1.2470(3) 0.27972(10)
O7D O 0.63757(18) 0.7530(3) 0.77972(10)
O7E O 0.36243(18) 0.7530(3) -0.27972(10)
O8F O 0.1903(2) 1.0371(3) -0.22285(12)
O8G O 0.8097(2) 1.0371(3) 0.72285(12)
H16 H 0.4504 0.6606 0.2105
H17 H 0.4363 0.6964 0.2435
O11 O 0.4270(4) 0.7429(6) 0.2096(2)
H18 H 0.5474 0.5769 0.1255
H19 H 0.4869 0.6743 0.1356
O12 O 0.5070(5) 0.5893(7) 0.1396(4)
loop_
_geom_bond_atom_site_label_1
_geom_bond_atom_site_label_2
_geom_bond_site_symmetry_1
_geom_bond_site_symmetry_2
C1 C2 1_555 1_555
C2 C3 1_555 1_555
C3 H1 1_555 1_555
C4 C3 1_555 1_555
C5 C4 1_555 1_555
H2 C5 1_555 1_555
C6 C2 1_555 1_555
H3 C6 1_555 1_555
C7 C5 1_555 1_555
C8 C9 1_555 1_555
H4 O10 1_555 1_555
H5 O9 1_555 1_555
C9 H6 1_555 1_555
C10 C9 1_555 1_555
H7 C10 1_555 1_555
C11 C8 1_555 1_555
H8 C11 1_555 1_555
C12 C11 1_555 1_555
H9 C12 1_555 1_555
C13 C10 1_555 1_555
C14 C13 1_555 1_555
C15 C16 1_555 1_555
C16 H10 1_555 1_555
C17 C16 1_555 1_555
H11 C17 1_555 1_555
C18 C15 1_555 1_555
H12 C18 1_555 1_555
C19 C18 1_555 1_555
H13 C19 1_555 1_555
C20 C17 1_555 1_555
C21 C20 1_555 1_555
Mn1 O1 1_555 1_555
Mn2 O4 1_555 1_555
O1 C1 1_555 1_555
O2 C1 1_555 1_555
O3 C7 1_555 1_555
O4 C14 1_555 1_555
O5 C14 1_555 1_555
O6 C4 1_555 1_555
O7 C21 1_555 1_555
O8 C21 1_555 1_555
O9 Mn1 1_555 1_555
H14 O9 1_555 1_555
O10 Mn2 1_555 1_555
H15 O10 1_555 1_555
H16 O11 1_555 1_555
H17 O11 1_555 1_555
H18 O12 1_555 1_555
H19 O12 1_555 1_555
C1A C2A 1_555 1_555
C2A C3A 1_555 1_555
C3A H1A 1_555 1_555
C4A C3A 1_555 1_555
C5A C4A 1_555 1_555
H2A C5A 1_555 1_555
C6A C2A 1_555 1_555
H3A C6A 1_555 1_555
C7A C5A 1_555 1_555
C8A C9A 1_555 1_555
H4A O10A 1_555 1_555
H5A O9A 1_555 1_555
C9A H6A 1_555 1_555
C10A C9A 1_555 1_555
H7A C10A 1_555 1_555
C11A C8A 1_555 1_555
H8A C11A 1_555 1_555
C12A C11A 1_555 1_555
H9A C12A 1_555 1_555
C13A C10A 1_555 1_555
C14A C13A 1_555 1_555
C15A C16A 1_555 1_555
C16A H10A 1_555 1_555
C17A C16A 1_555 1_555
H11A C17A 1_555 1_555
C18A C15A 1_555 1_555
H12A C18A 1_555 1_555
C19A C18A 1_555 1_555
H13A C19A 1_555 1_555
C20A C17A 1_555 1_555
C21A C20A 1_555 1_555
Mn1A O1A 1_555 1_555
O1A C1A 1_555 1_555
O2A C1A 1_555 1_555
O3A C7A 1_555 1_555
O4A Mn2 1_555 1_555
O5A C14A 1_555 1_555
O6A C4A 1_555 1_555
O7A C21A 1_555 1_555
O8A C21A 1_555 1_555
O9A Mn1A 1_555 1_555
H14A O9A 1_555 1_555
O10A Mn2 1_555 1_555
H15A O10A 1_555 1_555
Mn1B O2A 1_555 1_555
Mn1C O2 1_555 1_555
Mn1D O7A 1_555 1_555
Mn1D_2 O5 1_555 1_555
Mn1E O7 1_555 1_555
Mn1E_2 O5A 1_555 1_555
Mn1F O8 1_555 1_555
Mn1G O8A 1_555 1_555
Mn2_2 O7 1_555 1_555
O2B Mn1A 1_555 1_555
O2C Mn1 1_555 1_555
O5D Mn1 1_555 1_555
O5E Mn1A 1_555 1_555
O7_2 Mn2 1_555 1_555
O7A_2 Mn2 1_555 1_555
O7D Mn1A 1_555 1_555
O7E Mn1 1_555 1_555
O8F Mn1 1_555 1_555
O8G Mn1A 1_555 1_555
C6 C7 1_555 1_555
C8 O3 1_555 1_555
C12 C13 1_555 1_555
C15 O6 1_555 1_555
C19 C20 1_555 1_555
C6A C7A 1_555 1_555
C8A O3A 1_555 1_555
C12A C13A 1_555 1_555
C14A O4A 1_555 1_555
C15A O6A 1_555 1_555
C19A C20A 1_555 1_555
O7A Mn2_2 1_555 1_555
Mn1D_2 O7A_2 1_555 1_555
Mn1E_2 O7_2 1_555 1_555

#END
