
#######################################################################
#
#                 Cambridge Crystallographic Data Centre
#                                CCDC 
#
#######################################################################
#
# If this CIF has been generated from an entry in the Cambridge 
# Structural Database, then it will include bibliographic, chemical, 
# crystal, experimental, refinement or atomic coordinate data resulting 
# from the CCDC's data processing and validation procedures.
#
#######################################################################

data_YINJAH
_symmetry_cell_setting           orthorhombic
_symmetry_space_group_name_H-M   'P b c n'
_symmetry_Int_Tables_number      60
_space_group_name_Hall           '-P 2n 2ab'
loop_
_symmetry_equiv_pos_site_id
_symmetry_equiv_pos_as_xyz
1 x,y,z
2 1/2-x,1/2-y,1/2+z
3 1/2+x,1/2-y,-z
4 -x,y,1/2-z
5 -x,-y,-z
6 1/2+x,1/2+y,1/2-z
7 1/2-x,1/2+y,z
8 x,-y,1/2+z
_cell_length_a                   16.5390(17)
_cell_length_b                   11.6396(17)
_cell_length_c                   9.9181(12)
_cell_angle_alpha                90
_cell_angle_beta                 90
_cell_angle_gamma                90
_cell_volume                     1909.31
loop_
_atom_site_label
_atom_site_type_symbol
_atom_site_fract_x
_atom_site_fract_y
_atom_site_fract_z
Mn1 Mn 0.5000 0.46329(4) -0.2500
Cl1 Cl 0.28833(6) 0.36480(8) 0.19499(10)
Cl2 Cl 0.24040(7) 0.35899(9) -0.08310(11)
Cl3 Cl 0.23001(6) 0.57076(8) 0.06300(11)
O1 O 0.41063(17) 0.53594(18) 0.0934(2)
C1 C 0.3763(2) 0.4788(2) 0.0054(3)
N1 N 0.5000 0.2677(3) -0.2500
C2 C 0.2872(2) 0.4437(2) 0.0414(3)
C3 C 0.5685(2) 0.2078(2) -0.2720(4)
H1 H 0.6165 0.2479 -0.2853
C4 C 0.5702(2) 0.0884(3) -0.2756(4)
H2 H 0.6180 0.0499 -0.2951
C5 C 0.5000 0.0273(3) -0.2500
O2 O 0.40029(16) 0.44850(18) -0.1064(2)
N2 N 0.5000 -0.3411(3) -0.2500
C6 C 0.5223(3) -0.2811(2) -0.3590(4)
H3 H 0.4624 -0.3212 -0.0640
C7 C 0.5235(3) -0.1622(2) -0.3626(4)
H4 H 0.4599 -0.1240 -0.0599
C8 C 0.5000 -0.1008(3) -0.2500
Mn1G Mn 0.5000 0.53671(4) 0.2500
Mn1G_2 Mn 0.5000 0.53671(4) -0.7500
Mn1_2 Mn 0.5000 -0.53671(4) -0.2500
Cl1G Cl 0.28833(6) 0.63520(8) -0.30501(10)
Cl2G Cl 0.24040(7) 0.64101(9) -0.58310(11)
Cl3G Cl 0.23001(6) 0.42924(8) -0.43700(11)
O1G O 0.41063(17) 0.46406(18) -0.4066(2)
O1D O 0.58937(17) 0.46406(18) -0.0934(2)
C1G C 0.3763(2) 0.5212(2) -0.4946(3)
C2G C 0.2872(2) 0.5563(2) -0.4586(3)
C3C C 0.4315(2) 0.2078(2) -0.2280(4)
H1C H 0.3835 0.2479 -0.2147
C4C C 0.4298(2) 0.0884(3) -0.2244(4)
H2C H 0.3820 0.0499 -0.2049
O2G O 0.40029(16) 0.55150(18) -0.6064(2)
O2C O 0.59971(16) 0.44850(18) -0.3936(2)
N2_2 N 0.5000 0.6589(3) -0.2500
C6C C 0.4777(3) -0.2811(2) -0.1410(4)
H3C H 0.5376 -0.3212 -0.4360
C7C C 0.4765(3) -0.1622(2) -0.1374(4)
H4C H 0.5401 -0.1240 -0.4401
loop_
_geom_bond_atom_site_label_1
_geom_bond_atom_site_label_2
_geom_bond_site_symmetry_1
_geom_bond_site_symmetry_2
Mn1 N1 1_555 1_555
Cl1 C2 1_555 1_555
Cl2 C2 1_555 1_555
Cl3 C2 1_555 1_555
O1 C1 1_555 1_555
C1 C2 1_555 1_555
N1 C3 1_555 1_555
C3 H1 1_555 1_555
C4 C3 1_555 1_555
H2 C4 1_555 1_555
C5 C4 1_555 1_555
O2 Mn1 1_555 1_555
N2 C6 1_555 1_555
C6 C7 1_555 1_555
H3 C6C 1_555 1_555
C7 C8 1_555 1_555
H4 C7C 1_555 1_555
C8 C5 1_555 1_555
Mn1G O1 1_555 1_555
Mn1G_2 O2G 1_555 1_555
Mn1_2 N2 1_555 1_555
Cl1G C2G 1_555 1_555
Cl2G C2G 1_555 1_555
Cl3G C2G 1_555 1_555
O1G Mn1 1_555 1_555
O1D Mn1 1_555 1_555
C1G O1G 1_555 1_555
C2G C1G 1_555 1_555
C3C N1 1_555 1_555
H1C C3C 1_555 1_555
C4C C5 1_555 1_555
H2C C4C 1_555 1_555
O2G C1G 1_555 1_555
O2C Mn1 1_555 1_555
N2_2 Mn1 1_555 1_555
C6C N2 1_555 1_555
H3C C6 1_555 1_555
C7C C8 1_555 1_555
H4C C7 1_555 1_555
C1 O2 1_555 1_555
C3C C4C 1_555 1_555
C6C C7C 1_555 1_555

#END
