
#######################################################################
#
#                 Cambridge Crystallographic Data Centre
#                                CCDC 
#
#######################################################################
#
# If this CIF has been generated from an entry in the Cambridge 
# Structural Database, then it will include bibliographic, chemical, 
# crystal, experimental, refinement or atomic coordinate data resulting 
# from the CCDC's data processing and validation procedures.
#
#######################################################################

data_YINNAM
_symmetry_cell_setting           orthorhombic
_symmetry_space_group_name_H-M   'P n m a'
_symmetry_Int_Tables_number      62
_space_group_name_Hall           '-P 2ac 2n'
loop_
_symmetry_equiv_pos_site_id
_symmetry_equiv_pos_as_xyz
1 x,y,z
2 1/2-x,-y,1/2+z
3 1/2+x,1/2-y,1/2-z
4 -x,1/2+y,-z
5 -x,-y,-z
6 1/2+x,y,1/2-z
7 1/2-x,1/2+y,1/2+z
8 x,1/2-y,z
_cell_length_a                   7.84770(10)
_cell_length_b                   14.2825(3)
_cell_length_c                   12.2493(2)
_cell_angle_alpha                90
_cell_angle_beta                 90
_cell_angle_gamma                90
_cell_volume                     1372.96
loop_
_atom_site_label
_atom_site_type_symbol
_atom_site_fract_x
_atom_site_fract_y
_atom_site_fract_z
Mo1 Mo 0.294301(19) 0.250 -0.046932(13)
Cu1 Cu 0.80404(3) 0.250 -0.042502(17)
F1 F 0.09990(15) 0.250 -0.13470(11)
F2 F 0.53209(13) 0.250 0.00747(9)
O1 O 0.24043(13) 0.34448(8) 0.03397(8)
F3 F 0.40109(10) 0.15919(6) -0.16230(6)
O2 O 0.74299(12) 0.15093(7) -0.14875(8)
C1 C 0.92273(15) 0.19816(8) 0.16730(10)
C2 C 0.85504(16) 0.06518(9) 0.06666(10)
N1 N 0.86471(13) 0.15881(8) 0.07394(9)
C3 C 0.97449(18) 0.14428(10) 0.25534(10)
C4 C 0.90521(17) 0.00727(9) 0.15167(11)
C5 C 0.96633(18) 0.04710(11) 0.24717(10)
H1 H 0.896(2) -0.0574(14) 0.1444(16)
H2 H 0.815(2) 0.0399(14) 0.0002(16)
H3 H 1.003(3) 0.0087(14) 0.3050(16)
H4 H 0.639(3) 0.1553(14) -0.1605(16)
H5 H 1.014(2) 0.1707(13) 0.3177(15)
H6 H 0.795(3) 0.1544(16) -0.205(2)
C1G C 0.92273(15) 0.30184(8) 0.16730(10)
C2G C 0.85504(16) 0.43482(9) 0.06666(10)
N1G N 0.86471(13) 0.34119(8) 0.07394(9)
C3G C 0.97449(18) 0.35572(10) 0.25534(10)
C4G C 0.90521(17) 0.49273(9) 0.15167(11)
C5G C 0.96633(18) 0.45290(11) 0.24717(10)
H1G H 0.896(2) 0.5574(14) 0.1444(16)
H2G H 0.815(2) 0.4601(14) 0.0002(16)
H3G H 1.003(3) 0.4913(14) 0.3050(16)
H5G H 1.014(2) 0.3293(13) 0.3177(15)
O1G O 0.24043(13) 0.15552(8) 0.03397(8)
F3G F 0.40109(10) 0.34081(6) -0.16230(6)
O2G O 0.74299(12) 0.34907(7) -0.14875(8)
H4G H 0.639(3) 0.3447(14) -0.1605(16)
H6G H 0.795(3) 0.3456(16) -0.205(2)
Cu1_2 Cu -0.19596(3) 0.250 -0.042502(17)
F1_2 F 1.09990(15) 0.250 -0.13470(11)
loop_
_geom_bond_atom_site_label_1
_geom_bond_atom_site_label_2
_geom_bond_site_symmetry_1
_geom_bond_site_symmetry_2
Mo1 F1 1_555 1_555
Cu1 F2 1_555 1_555
F1 Cu1_2 1_555 1_555
F2 Mo1 1_555 1_555
O1 Mo1 1_555 1_555
F3 Mo1 1_555 1_555
O2 Cu1 1_555 1_555
C1 N1 1_555 1_555
C2 N1 1_555 1_555
N1 Cu1 1_555 1_555
C3 C1 1_555 1_555
C4 C2 1_555 1_555
C5 C3 1_555 1_555
H1 C4 1_555 1_555
H2 C2 1_555 1_555
H3 C5 1_555 1_555
H4 O2 1_555 1_555
H5 C3 1_555 1_555
H6 O2 1_555 1_555
C1G C1 1_555 1_555
C2G N1G 1_555 1_555
N1G Cu1 1_555 1_555
C3G C1G 1_555 1_555
C4G C2G 1_555 1_555
C5G C3G 1_555 1_555
H1G C4G 1_555 1_555
H2G C2G 1_555 1_555
H3G C5G 1_555 1_555
H5G C3G 1_555 1_555
O1G Mo1 1_555 1_555
F3G Mo1 1_555 1_555
O2G Cu1 1_555 1_555
H4G O2G 1_555 1_555
H6G O2G 1_555 1_555
F1_2 Cu1 1_555 1_555
C4 C5 1_555 1_555
C1G N1G 1_555 1_555
C4G C5G 1_555 1_555

#END
