
#######################################################################
#
#                 Cambridge Crystallographic Data Centre
#                                CCDC 
#
#######################################################################
#
# If this CIF has been generated from an entry in the Cambridge 
# Structural Database, then it will include bibliographic, chemical, 
# crystal, experimental, refinement or atomic coordinate data resulting 
# from the CCDC's data processing and validation procedures.
#
#######################################################################

data_YINPIW
_symmetry_cell_setting           monoclinic
_symmetry_space_group_name_H-M   'P 21/c'
_symmetry_Int_Tables_number      14
_space_group_name_Hall           '-P 2ybc'
loop_
_symmetry_equiv_pos_site_id
_symmetry_equiv_pos_as_xyz
1 x,y,z
2 -x,1/2+y,1/2-z
3 -x,-y,-z
4 x,1/2-y,1/2+z
_cell_length_a                   29.520(3)
_cell_length_b                   10.9641(9)
_cell_length_c                   29.373(3)
_cell_angle_alpha                90
_cell_angle_beta                 118.061(4)
_cell_angle_gamma                90
_cell_volume                     8389.31
loop_
_atom_site_label
_atom_site_type_symbol
_atom_site_fract_x
_atom_site_fract_y
_atom_site_fract_z
Cu1 Cu -0.43946(4) 0.47033(12) -0.31155(4)
Cu2 Cu -0.93891(5) 0.52805(12) -0.81535(4)
O1 O -0.6647(3) 0.1274(8) -0.4157(3)
O2 O -0.0402(3) 0.7443(8) -0.0651(3)
O3 O -0.5347(3) 0.7375(8) -0.5544(3)
O4 O -0.3214(3) 0.0646(7) -0.1118(3)
O5 O -0.8340(3) 0.1589(8) -0.5946(3)
O6 O -0.1308(3) 0.0918(8) 0.0806(3)
O7 O -0.1923(3) 0.6992(7) -0.2079(3)
O8 O -0.6951(3) 0.7893(7) -0.7256(3)
N1 N -0.5084(3) 0.3822(7) -0.3372(3)
N2 N -0.4710(3) 0.5676(7) -0.3775(3)
N3 N -0.4118(3) 0.3841(7) -0.2430(3)
N4 N 0.0310(3) 0.6245(8) 0.1184(3)
N5 N -0.9105(3) 0.4378(7) -0.7464(3)
N6 N -0.8738(3) 0.6290(7) -0.7852(3)
N7 N -0.0056(3) 0.4293(8) 0.1577(3)
N8 N -0.3739(3) 0.5650(7) -0.2846(3)
N9 N -0.6944(3) 0.3027(8) -0.4004(3)
H1 H -0.6861 0.3723 -0.3851
N10 N -0.5657(4) 0.8729(9) -0.5182(3)
H2 H -0.5661 0.8949 -0.4903
N11 N -0.3371(4) 0.2041(9) -0.0635(3)
H3 H -0.3535 0.2695 -0.0642
N12 N -0.0640(3) 0.9075(8) -0.0364(3)
H4 H -0.0612 0.9473 -0.0100
N13 N -0.8531(3) 0.3237(9) -0.5624(3)
H5 H -0.8683 0.3934 -0.5694
N14 N -0.7232(3) 0.9088(8) -0.6816(3)
H6 H -0.7495 0.9339 -0.6791
N15 N -0.1802(4) 0.2289(8) 0.0951(3)
H7 H -0.1800 0.2958 0.1105
N16 N -0.2274(3) 0.8693(8) -0.1952(3)
H8 H -0.2550 0.9037 -0.1986
C1 C -0.5335(4) 0.3868(9) -0.3112(4)
H9 H -0.5175 0.4201 -0.2782
C2 C -0.4495(4) 0.5779(11) -0.4071(4)
H10 H -0.4183 0.5389 -0.3970
C3 C -0.3845(4) 0.4356(10) -0.1970(4)
H11 H -0.3807 0.5199 -0.1954
C4 C 0.0110(8) 0.5679(13) 0.0728(6)
H12 H 0.0163 0.4841 0.0735
C5 C -0.5837(4) 0.3434(10) -0.3308(4)
H13 H -0.6016 0.3537 -0.3122
C6 C -0.4702(4) 0.6432(11) -0.4527(4)
H14 H -0.4533 0.6471 -0.4725
C7 C -0.3615(4) 0.3704(10) -0.1513(4)
H15 H -0.3436 0.4105 -0.1199
C8 C -0.0160(7) 0.6191(15) 0.0260(5)
H16 H -0.0341 0.5716 -0.0033
C9 C -0.6068(4) 0.2844(9) -0.3787(4)
C10 C -0.5165(4) 0.7024(10) -0.4685(4)
C11 C -0.3657(4) 0.2460(9) -0.1530(4)
C12 C -0.0159(4) 0.7451(11) 0.0230(4)
C13 C -0.5787(4) 0.2773(10) -0.4045(4)
H17 H -0.5922 0.2374 -0.4361
C14 C -0.5413(4) 0.6891(9) -0.4388(4)
H18 H -0.5734 0.7237 -0.4490
C15 C -0.3946(4) 0.1911(10) -0.2016(4)
H19 H -0.3983 0.1068 -0.2040
C16 C 0.0000(5) 0.8040(11) 0.0683(5)
H20 H -0.0047 0.8876 0.0691
C17 C -0.5299(4) 0.3292(9) -0.3839(4)
H21 H -0.5120 0.3271 -0.4028
C18 C -0.5170(4) 0.6234(10) -0.3938(4)
H22 H -0.5332 0.6167 -0.3733
C19 C -0.4164(4) 0.2579(9) -0.2437(4)
H23 H -0.4357 0.2191 -0.2751
C20 C 0.0236(5) 0.7375(13) 0.1135(5)
H24 H 0.0355 0.7819 0.1439
C21 C -0.6570(4) 0.2295(11) -0.3999(4)
C22 C -0.5405(4) 0.7713(12) -0.5185(4)
C23 C -0.3390(4) 0.1645(10) -0.1070(5)
C24 C -0.0402(5) 0.8019(11) -0.0298(4)
C25 C -0.8659(4) 0.3809(10) -0.7264(4)
H25 H -0.8471 0.3789 -0.7444
C26 C -0.8458(4) 0.6473(10) -0.8094(4)
H26 H -0.8581 0.6151 -0.8424
C27 C -0.0012(4) 0.3094(11) 0.1615(4)
H27 H 0.0316 0.2762 0.1785
C28 C -0.3294(5) 0.5078(11) -0.2652(5)
H28 H -0.3291 0.4231 -0.2671
C29 C -0.8466(4) 0.3237(9) -0.6784(4)
H29 H -0.8152 0.2833 -0.6653
C30 C -0.8008(4) 0.7094(9) -0.7894(4)
H30 H -0.7836 0.7198 -0.8088
C31 C -0.0419(4) 0.2316(11) 0.1420(4)
H31 H -0.0370 0.1475 0.1441
C32 C -0.2818(4) 0.5716(12) -0.2415(5)
H32 H -0.2512 0.5285 -0.2289
C33 C -0.8721(4) 0.3255(9) -0.6501(4)
C34 C -0.7804(4) 0.7575(9) -0.7398(4)
C35 C -0.0907(4) 0.2816(10) 0.1188(4)
C36 C -0.2809(4) 0.6941(10) -0.2373(4)
C37 C -0.9185(4) 0.3878(9) -0.6707(4)
H33 H -0.9369 0.3952 -0.6524
C38 C -0.8086(4) 0.7394(10) -0.7140(4)
H34 H -0.7969 0.7695 -0.6807
C39 C -0.0966(4) 0.4063(10) 0.1150(4)
H35 H -0.1291 0.4415 0.0993
C40 C -0.3280(4) 0.7522(10) -0.2598(4)
H36 H -0.3295 0.8369 -0.2596
C41 C -0.9366(4) 0.4385(10) -0.7194(5)
H37 H -0.9688 0.4752 -0.7342
C42 C -0.8553(4) 0.6748(11) -0.7385(4)
H38 H -0.8740 0.6642 -0.7207
C43 C -0.0536(4) 0.4769(10) 0.1350(4)
H39 H -0.0573 0.5613 0.1329
C44 C -0.3722(4) 0.6864(11) -0.2823(4)
H40 H -0.4031 0.7287 -0.2970
C45 C -0.8513(4) 0.2640(12) -0.5998(4)
C46 C -0.7291(4) 0.8199(9) -0.7143(4)
C47 C -0.1369(4) 0.1902(11) 0.0947(4)
C48 C -0.2301(4) 0.7564(11) -0.2130(4)
C49 C -0.7483(4) 0.2663(11) -0.4261(4)
H41 H -0.7649 0.2955 -0.4064
H42 H -0.7507 0.1780 -0.4276
C50 C -0.5926(4) 0.9472(11) -0.5653(4)
H43 H -0.5737 0.9454 -0.5847
H44 H -0.5945 1.0312 -0.5559
C51 C -0.3083(5) 0.1407(13) -0.0142(4)
H45 H -0.3034 0.0559 -0.0202
H46 H -0.3272 0.1434 0.0053
C52 C -0.0954(4) 0.9581(10) -0.0887(4)
H47 H -0.0789 0.9417 -0.1098
H48 H -0.0982 1.0458 -0.0865
C53 C -0.7752(4) 0.3170(10) -0.4794(4)
H49 H -0.7574 0.2903 -0.4982
H50 H -0.7733 0.4053 -0.4774
C54 C -0.6468(4) 0.8981(10) -0.5986(4)
H51 H -0.6449 0.8118 -0.6048
H52 H -0.6665 0.9070 -0.5800
C55 C -0.2565(5) 0.2028(13) 0.0160(5)
H53 H -0.2365 0.1900 -0.0019
H54 H -0.2620 0.2899 0.0166
C56 C -0.1496(4) 0.9005(11) -0.1140(4)
H55 H -0.1465 0.8124 -0.1113
H56 H -0.1680 0.9271 -0.0958
C57 C -0.8308(4) 0.2795(10) -0.5091(4)
H57 H -0.8334 0.1914 -0.5091
H58 H -0.8498 0.3130 -0.4926
C58 C -0.6748(4) 0.9643(10) -0.6505(4)
H59 H -0.6797 1.0493 -0.6447
H60 H -0.6541 0.9612 -0.6681
C59 C -0.2265(4) 0.1589(11) 0.0699(4)
H61 H -0.2465 0.1681 0.0881
H62 H -0.2183 0.0732 0.0701
C60 C -0.1795(4) 0.9363(10) -0.1702(4)
H63 H -0.1866 1.0232 -0.1728
H64 H -0.1592 0.9195 -0.1875
O9 O -0.4053(3) 0.3229(6) -0.3437(3)
O10 O -0.4720(3) 0.6370(8) -0.2688(3)
O11 O -0.9029(3) 0.3903(7) -0.8479(3)
O12 O -0.9804(3) 0.6860(7) -0.7797(3)
Cu2_2 Cu 0.06109(5) 0.52805(12) 0.18465(4)
N4_2 N -0.9690(3) 0.6245(8) -0.8816(3)
N7_2 N -1.0056(3) 0.4293(8) -0.8423(3)
P1 P -0.51688(13) 0.4690(3) -0.16327(12)
F1 F -0.5610(4) 0.4417(9) -0.2180(3)
F2 F -0.5467(4) 0.5792(7) -0.1563(4)
F3 F -0.4871(4) 0.3604(7) -0.1724(4)
F4 F -0.5415(3) 0.3793(6) -0.1385(3)
F5 F -0.4937(3) 0.5576(6) -0.1888(3)
F6 F -0.4706(4) 0.4913(9) -0.1089(3)
P2 P -0.1726(5) 0.3802(7) -0.0565(3)
F7 F -0.1269(12) 0.443(4) -0.0227(14)
F8 F -0.2128(13) 0.301(2) -0.0865(9)
F9 F -0.2023(12) 0.455(2) -0.0360(8)
F10 F -0.1393(10) 0.319(3) -0.0751(8)
F11 F -0.1600(5) 0.2918(14) -0.0119(4)
F12 F -0.1984(9) 0.443(2) -0.1077(8)
P3 P -0.08320(12) 0.9902(3) -0.23543(13)
F13 F -0.0766(4) 1.0982(7) -0.2662(4)
F14 F -0.1386(3) 0.9677(9) -0.2790(3)
F15 F -0.0890(3) 0.8808(6) -0.2047(3)
F16 F -0.0272(3) 1.0148(8) -0.1890(3)
F17 F -0.0594(3) 0.9032(7) -0.2607(3)
F18 F -0.1064(3) 1.0818(6) -0.2094(3)
P4 P -0.31842(17) 0.6671(5) -0.4226(2)
F19 F -0.3582(5) 0.5602(12) -0.4509(6)
F20 F -0.3585(5) 0.7614(13) -0.4561(6)
F21 F -0.3023(9) 0.659(2) -0.4634(9)
F22 F -0.3392(6) 0.6738(17) -0.3857(5)
F23 F -0.2774(6) 0.5779(15) -0.3939(10)
F24 F -0.2805(4) 0.7700(10) -0.3951(5)
O13 O -0.2767(6) 0.9609(12) -0.4750(4)
O14 O -0.2136(3) 0.0474(8) -0.3770(3)
O15 O -0.3007(4) 0.0359(9) -0.1985(4)
O16 O -0.3713(4) 0.4299(8) -0.0378(3)
O17 O -0.0714(6) 0.4144(10) -0.4720(6)
loop_
_geom_bond_atom_site_label_1
_geom_bond_atom_site_label_2
_geom_bond_site_symmetry_1
_geom_bond_site_symmetry_2
Cu1 N1 1_555 1_555
Cu2 N5 1_555 1_555
O1 C21 1_555 1_555
O2 C24 1_555 1_555
O3 C22 1_555 1_555
O4 C23 1_555 1_555
O5 C45 1_555 1_555
O6 C47 1_555 1_555
O7 C48 1_555 1_555
O8 C46 1_555 1_555
N1 C1 1_555 1_555
N2 Cu1 1_555 1_555
N3 Cu1 1_555 1_555
N4 C4 1_555 1_555
N5 C25 1_555 1_555
N6 Cu2 1_555 1_555
N7 C27 1_555 1_555
N8 Cu1 1_555 1_555
N9 H1 1_555 1_555
N10 H2 1_555 1_555
N11 H3 1_555 1_555
N12 H4 1_555 1_555
N13 H5 1_555 1_555
N14 H6 1_555 1_555
N15 H7 1_555 1_555
N16 H8 1_555 1_555
C1 H9 1_555 1_555
C2 N2 1_555 1_555
H10 C2 1_555 1_555
C3 N3 1_555 1_555
H11 C3 1_555 1_555
C4 H12 1_555 1_555
C5 C1 1_555 1_555
H13 C5 1_555 1_555
C6 C2 1_555 1_555
H14 C6 1_555 1_555
C7 C3 1_555 1_555
H15 C7 1_555 1_555
C8 C4 1_555 1_555
H16 C8 1_555 1_555
C9 C5 1_555 1_555
C10 C6 1_555 1_555
C11 C7 1_555 1_555
C12 C8 1_555 1_555
C13 C9 1_555 1_555
H17 C13 1_555 1_555
C14 C10 1_555 1_555
H18 C14 1_555 1_555
C15 C11 1_555 1_555
H19 C15 1_555 1_555
C16 C12 1_555 1_555
H20 C16 1_555 1_555
C17 N1 1_555 1_555
H21 C17 1_555 1_555
C18 N2 1_555 1_555
H22 C18 1_555 1_555
C19 N3 1_555 1_555
H23 C19 1_555 1_555
C20 N4 1_555 1_555
H24 C20 1_555 1_555
C21 N9 1_555 1_555
C22 N10 1_555 1_555
C23 N11 1_555 1_555
C24 N12 1_555 1_555
C25 H25 1_555 1_555
C26 N6 1_555 1_555
H26 C26 1_555 1_555
C27 H27 1_555 1_555
C28 N8 1_555 1_555
H28 C28 1_555 1_555
C29 C25 1_555 1_555
H29 C29 1_555 1_555
C30 C26 1_555 1_555
H30 C30 1_555 1_555
C31 C27 1_555 1_555
H31 C31 1_555 1_555
C32 C28 1_555 1_555
H32 C32 1_555 1_555
C33 C29 1_555 1_555
C34 C30 1_555 1_555
C35 C31 1_555 1_555
C36 C32 1_555 1_555
C37 C33 1_555 1_555
H33 C37 1_555 1_555
C38 C34 1_555 1_555
H34 C38 1_555 1_555
C39 C35 1_555 1_555
H35 C39 1_555 1_555
C40 C36 1_555 1_555
H36 C40 1_555 1_555
C41 N5 1_555 1_555
H37 C41 1_555 1_555
C42 N6 1_555 1_555
H38 C42 1_555 1_555
C43 N7 1_555 1_555
H39 C43 1_555 1_555
C44 N8 1_555 1_555
H40 C44 1_555 1_555
C45 N13 1_555 1_555
C46 N14 1_555 1_555
C47 N15 1_555 1_555
C48 N16 1_555 1_555
C49 N9 1_555 1_555
H41 C49 1_555 1_555
H42 C49 1_555 1_555
C50 N10 1_555 1_555
H43 C50 1_555 1_555
H44 C50 1_555 1_555
C51 N11 1_555 1_555
H45 C51 1_555 1_555
H46 C51 1_555 1_555
C52 N12 1_555 1_555
H47 C52 1_555 1_555
H48 C52 1_555 1_555
C53 C49 1_555 1_555
H49 C53 1_555 1_555
H50 C53 1_555 1_555
C54 C50 1_555 1_555
H51 C54 1_555 1_555
H52 C54 1_555 1_555
C55 C51 1_555 1_555
H53 C55 1_555 1_555
H54 C55 1_555 1_555
C56 C52 1_555 1_555
H55 C56 1_555 1_555
H56 C56 1_555 1_555
C57 N13 1_555 1_555
H57 C57 1_555 1_555
H58 C57 1_555 1_555
C58 N14 1_555 1_555
H59 C58 1_555 1_555
H60 C58 1_555 1_555
C59 N15 1_555 1_555
H61 C59 1_555 1_555
H62 C59 1_555 1_555
C60 N16 1_555 1_555
H63 C60 1_555 1_555
H64 C60 1_555 1_555
O9 Cu1 1_555 1_555
O10 Cu1 1_555 1_555
O11 Cu2 1_555 1_555
O12 Cu2 1_555 1_555
P1 F1 1_555 1_555
F2 P1 1_555 1_555
F3 P1 1_555 1_555
F4 P1 1_555 1_555
F5 P1 1_555 1_555
F6 P1 1_555 1_555
P2 F7 1_555 1_555
F8 P2 1_555 1_555
F9 P2 1_555 1_555
F10 P2 1_555 1_555
F11 P2 1_555 1_555
F12 P2 1_555 1_555
P3 F13 1_555 1_555
F14 P3 1_555 1_555
F15 P3 1_555 1_555
F16 P3 1_555 1_555
F17 P3 1_555 1_555
F18 P3 1_555 1_555
P4 F19 1_555 1_555
F20 P4 1_555 1_555
F21 P4 1_555 1_555
F22 P4 1_555 1_555
F23 P4 1_555 1_555
F24 P4 1_555 1_555
Cu2_2 N4 1_555 1_555
N4_2 Cu2 1_555 1_555
N7_2 Cu2 1_555 1_555
N7 Cu2_2 1_555 1_555
C9 C21 1_555 1_555
C10 C22 1_555 1_555
C11 C23 1_555 1_555
C12 C24 1_555 1_555
C13 C17 1_555 1_555
C14 C18 1_555 1_555
C15 C19 1_555 1_555
C16 C20 1_555 1_555
C33 C45 1_555 1_555
C34 C46 1_555 1_555
C35 C47 1_555 1_555
C36 C48 1_555 1_555
C37 C41 1_555 1_555
C38 C42 1_555 1_555
C39 C43 1_555 1_555
C40 C44 1_555 1_555
C53 C57 1_555 1_555
C54 C58 1_555 1_555
C55 C59 1_555 1_555
C56 C60 1_555 1_555

#END
