
#######################################################################
#
#                 Cambridge Crystallographic Data Centre
#                                CCDC 
#
#######################################################################
#
# If this CIF has been generated from an entry in the Cambridge 
# Structural Database, then it will include bibliographic, chemical, 
# crystal, experimental, refinement or atomic coordinate data resulting 
# from the CCDC's data processing and validation procedures.
#
#######################################################################

data_YINPUI
_symmetry_cell_setting           tetragonal
_symmetry_space_group_name_H-M   'P -4'
_symmetry_Int_Tables_number      81
_space_group_name_Hall           'P -4'
loop_
_symmetry_equiv_pos_site_id
_symmetry_equiv_pos_as_xyz
1 x,y,z
2 -x,-y,z
3 y,-x,-z
4 -y,x,-z
_cell_length_a                   12.3335(9)
_cell_length_b                   12.3335(9)
_cell_length_c                   18.836(3)
_cell_angle_alpha                90
_cell_angle_beta                 90
_cell_angle_gamma                90
_cell_volume                     2865.24
loop_
_atom_site_label
_atom_site_type_symbol
_atom_site_fract_x
_atom_site_fract_y
_atom_site_fract_z
Cu1 Cu 0.5000 0.0000 0.053264(18)
O1 O 0.6076(2) -0.1663(2) 0.06022(12)
N1 N 0.6016(2) 0.0625(3) 0.12861(10)
O2 O 0.9103(2) 0.1907(2) 0.27994(11)
C1 C 0.7094(2) 0.0481(3) 0.12334(12)
H1 H 0.7375 0.0140 0.0833
C2 C 0.7791(2) 0.0825(3) 0.17545(13)
H2 H 0.8533 0.0714 0.1705
C3 C 0.7391(3) 0.1340(3) 0.23561(12)
C4 C 0.6302(3) 0.1501(3) 0.23935(13)
H3 H 0.6005 0.1856 0.2783
C5 C 0.5640(3) 0.1141(3) 0.18564(13)
H4 H 0.4898 0.1264 0.1893
C6 C 0.8167(3) 0.1658(3) 0.29350(13)
O3 O 0.8022(2) 0.2952(2) 0.80788(11)
N2 N 0.5971(2) 0.0601(2) 0.97497(10)
C7 C 0.5947(3) 0.1652(3) 0.95927(18)
H5 H 0.5529 0.2106 0.9876
C8 C 0.6497(3) 0.2100(3) 0.90438(19)
H6 H 0.6426 0.2834 0.8942
C9 C 0.7173(3) 0.1443(3) 0.86342(12)
C10 C 0.7212(3) 0.0385(3) 0.87996(15)
H7 H 0.7656 -0.0077 0.8539
C11 C 0.6604(4) -0.0023(3) 0.93501(15)
H8 H 0.6636 -0.0761 0.9446
C12 C 0.7812(3) 0.1983(3) 0.80395(12)
N3 N 0.7788(3) 0.1618(3) 0.35976(11)
H9 H 0.7114 0.1471 0.3666
N4 N 0.8085(3) 0.1351(2) 0.75124(12)
H10 H 0.7903 0.0680 0.7539
C13 C 0.8485(3) 0.1817(3) 0.42119(14)
H11 H 0.8805 0.2533 0.4176
H12 H 0.9067 0.1288 0.4221
C14 C 0.7826(4) 0.1736(3) 0.48915(14)
H13 H 0.7292 0.2313 0.4903
H14 H 0.7444 0.1049 0.4902
C15 C 0.8553(3) 0.1822(3) 0.55345(15)
H15 H 0.8895 0.2530 0.5538
H16 H 0.9121 0.1280 0.5500
C16 C 0.7936(3) 0.1659(3) 0.62354(13)
H17 H 0.7387 0.2218 0.6279
H18 H 0.7570 0.0964 0.6224
C17 C 0.8675(3) 0.1701(3) 0.68820(14)
H19 H 0.9296 0.1232 0.6807
H20 H 0.8938 0.2435 0.6949
O1A O 0.3924(2) 0.1663(2) 0.06022(12)
N1A N 0.3984(2) -0.0625(3) 0.12861(10)
O2A O 0.0897(2) -0.1907(2) 0.27994(11)
C1A C 0.2906(2) -0.0481(3) 0.12334(12)
H1A H 0.2625 -0.0140 0.0833
C2A C 0.2209(2) -0.0825(3) 0.17545(13)
H2A H 0.1467 -0.0714 0.1705
C3A C 0.2609(3) -0.1340(3) 0.23561(12)
C4A C 0.3698(3) -0.1501(3) 0.23935(13)
H3A H 0.3995 -0.1856 0.2783
C5A C 0.4360(3) -0.1141(3) 0.18564(13)
H4A H 0.5102 -0.1264 0.1893
C6A C 0.1833(3) -0.1658(3) 0.29350(13)
O3A O 0.1978(2) -0.2952(2) 0.80788(11)
N2A N 0.4029(2) -0.0601(2) 0.97497(10)
C7A C 0.4053(3) -0.1652(3) 0.95927(18)
H5A H 0.4471 -0.2106 0.9876
C8A C 0.3503(3) -0.2100(3) 0.90438(19)
H6A H 0.3574 -0.2834 0.8942
C9A C 0.2827(3) -0.1443(3) 0.86342(12)
C10A C 0.2788(3) -0.0385(3) 0.87996(15)
H7A H 0.2344 0.0077 0.8539
C11A C 0.3396(4) 0.0023(3) 0.93501(15)
H8A H 0.3364 0.0761 0.9446
C12A C 0.2188(3) -0.1983(3) 0.80395(12)
N3A N 0.2212(3) -0.1618(3) 0.35976(11)
H9A H 0.2886 -0.1471 0.3666
N4A N 0.1915(3) -0.1351(2) 0.75124(12)
H10A H 0.2097 -0.0680 0.7539
C13A C 0.1515(3) -0.1817(3) 0.42119(14)
H11A H 0.1195 -0.2533 0.4176
H12A H 0.0933 -0.1288 0.4221
C14A C 0.2174(4) -0.1736(3) 0.48915(14)
H13A H 0.2708 -0.2313 0.4903
H14A H 0.2556 -0.1049 0.4902
C15A C 0.1447(3) -0.1822(3) 0.55345(15)
H15A H 0.1105 -0.2530 0.5538
H16A H 0.0879 -0.1280 0.5500
C16A C 0.2064(3) -0.1659(3) 0.62354(13)
H17A H 0.2613 -0.2218 0.6279
H18A H 0.2430 -0.0964 0.6224
C17A C 0.1325(3) -0.1701(3) 0.68820(14)
H19A H 0.0704 -0.1232 0.6807
H20A H 0.1062 -0.2435 0.6949
Cu1_2 Cu 0.5000 0.0000 1.053264(18)
N2_2 N 0.5971(2) 0.0601(2) -0.02503(10)
N2A_2 N 0.4029(2) -0.0601(2) -0.02503(10)
loop_
_geom_bond_atom_site_label_1
_geom_bond_atom_site_label_2
_geom_bond_site_symmetry_1
_geom_bond_site_symmetry_2
Cu1 O1 1_555 1_555
N1 Cu1 1_555 1_555
O2 C6 1_555 1_555
C1 N1 1_555 1_555
H1 C1 1_555 1_555
C2 C1 1_555 1_555
H2 C2 1_555 1_555
C3 C2 1_555 1_555
C4 C3 1_555 1_555
H3 C4 1_555 1_555
C5 N1 1_555 1_555
H4 C5 1_555 1_555
C6 C3 1_555 1_555
O3 C12 1_555 1_555
N2 C7 1_555 1_555
C7 H5 1_555 1_555
C8 C7 1_555 1_555
H6 C8 1_555 1_555
C9 C8 1_555 1_555
C10 C9 1_555 1_555
H7 C10 1_555 1_555
C11 N2 1_555 1_555
H8 C11 1_555 1_555
C12 C9 1_555 1_555
N3 C6 1_555 1_555
H9 N3 1_555 1_555
N4 C12 1_555 1_555
H10 N4 1_555 1_555
C13 N3 1_555 1_555
H11 C13 1_555 1_555
H12 C13 1_555 1_555
C14 C13 1_555 1_555
H13 C14 1_555 1_555
H14 C14 1_555 1_555
C15 C14 1_555 1_555
H15 C15 1_555 1_555
H16 C15 1_555 1_555
C16 C15 1_555 1_555
H17 C16 1_555 1_555
H18 C16 1_555 1_555
C17 N4 1_555 1_555
H19 C17 1_555 1_555
H20 C17 1_555 1_555
O1A Cu1 1_555 1_555
N1A Cu1 1_555 1_555
O2A C6A 1_555 1_555
C1A N1A 1_555 1_555
H1A C1A 1_555 1_555
C2A C1A 1_555 1_555
H2A C2A 1_555 1_555
C3A C2A 1_555 1_555
C4A C3A 1_555 1_555
H3A C4A 1_555 1_555
C5A N1A 1_555 1_555
H4A C5A 1_555 1_555
C6A C3A 1_555 1_555
O3A C12A 1_555 1_555
N2A C7A 1_555 1_555
C7A H5A 1_555 1_555
C8A C7A 1_555 1_555
H6A C8A 1_555 1_555
C9A C8A 1_555 1_555
C10A C9A 1_555 1_555
H7A C10A 1_555 1_555
C11A N2A 1_555 1_555
H8A C11A 1_555 1_555
C12A C9A 1_555 1_555
N3A C6A 1_555 1_555
H9A N3A 1_555 1_555
N4A C12A 1_555 1_555
H10A N4A 1_555 1_555
C13A N3A 1_555 1_555
H11A C13A 1_555 1_555
H12A C13A 1_555 1_555
C14A C13A 1_555 1_555
H13A C14A 1_555 1_555
H14A C14A 1_555 1_555
C15A C14A 1_555 1_555
H15A C15A 1_555 1_555
H16A C15A 1_555 1_555
C16A C15A 1_555 1_555
H17A C16A 1_555 1_555
H18A C16A 1_555 1_555
C17A N4A 1_555 1_555
H19A C17A 1_555 1_555
H20A C17A 1_555 1_555
Cu1_2 N2 1_555 1_555
N2_2 Cu1 1_555 1_555
N2A_2 Cu1 1_555 1_555
C4 C5 1_555 1_555
C10 C11 1_555 1_555
C16 C17 1_555 1_555
C4A C5A 1_555 1_555
N2A Cu1_2 1_555 1_555
C10A C11A 1_555 1_555
C16A C17A 1_555 1_555

#END
