
#######################################################################
#
#                 Cambridge Crystallographic Data Centre
#                                CCDC 
#
#######################################################################
#
# If this CIF has been generated from an entry in the Cambridge 
# Structural Database, then it will include bibliographic, chemical, 
# crystal, experimental, refinement or atomic coordinate data resulting 
# from the CCDC's data processing and validation procedures.
#
#######################################################################

data_YINPAO
_symmetry_cell_setting           orthorhombic
_symmetry_space_group_name_H-M   'F d d 2'
_symmetry_Int_Tables_number      43
_space_group_name_Hall           'F 2 -2d'
loop_
_symmetry_equiv_pos_site_id
_symmetry_equiv_pos_as_xyz
1 x,y,z
2 -x,-y,z
3 1/4+x,1/4-y,1/4+z
4 1/4-x,1/4+y,1/4+z
5 x,1/2+y,1/2+z
6 -x,1/2-y,1/2+z
7 1/4+x,3/4-y,3/4+z
8 1/4-x,3/4+y,3/4+z
9 1/2+x,y,1/2+z
10 1/2-x,-y,1/2+z
11 3/4+x,1/4-y,3/4+z
12 3/4-x,1/4+y,3/4+z
13 1/2+x,1/2+y,z
14 1/2-x,1/2-y,z
15 3/4+x,3/4-y,1/4+z
16 3/4-x,3/4+y,1/4+z
_cell_length_a                   18.609(4)
_cell_length_b                   28.378(8)
_cell_length_c                   14.152(3)
_cell_angle_alpha                90
_cell_angle_beta                 90
_cell_angle_gamma                90
_cell_volume                     7473.48
loop_
_atom_site_label
_atom_site_type_symbol
_atom_site_fract_x
_atom_site_fract_y
_atom_site_fract_z
O1 O 0.0855(5) 0.7420(3) 0.7311(6)
N1 N 0.0201(7) 0.5961(4) 0.9077(8)
C1 C -0.0087(14) 0.5978(8) 0.8265(14)
H1 H -0.0419 0.5743 0.8126
C2 C 0.0035(10) 0.6300(7) 0.7580(15)
H2 H -0.0214 0.6283 0.7011
C3 C 0.0510(7) 0.6639(4) 0.7723(7)
C4 C 0.0849(8) 0.6632(5) 0.8554(10)
H3 H 0.1206 0.6852 0.8686
C5 C 0.0658(10) 0.6286(6) 0.9235(9)
H4 H 0.0878 0.6297 0.9824
C6 C 0.0660(7) 0.7026(4) 0.7049(8)
O2 O -0.0045(6) 0.6313(3) 0.4730(6)
N2 N 0.0051(6) 0.5830(3) 0.1351(7)
C7 C 0.0368(9) 0.5694(6) 0.2079(10)
H5 H 0.0681 0.5440 0.2039
C8 C 0.0262(10) 0.5922(7) 0.2981(11)
H6 H 0.0487 0.5799 0.3513
C9 C -0.0140(7) 0.6295(4) 0.3066(9)
C10 C -0.0477(10) 0.6428(5) 0.2240(10)
H7 H -0.0795 0.6681 0.2252
C11 C -0.0360(10) 0.6203(5) 0.1420(9)
H8 H -0.0580 0.6317 0.0877
C12 C -0.0201(7) 0.6530(4) 0.4019(9)
N3 N 0.0602(6) 0.6914(4) 0.6118(7)
H9 H 0.0506 0.6629 0.5955
N4 N -0.0463(7) 0.6965(4) 0.4018(7)
H10 H -0.0567 0.7093 0.3484
C13 C 0.0703(9) 0.7275(5) 0.5392(8)
H11 H 0.1067 0.7496 0.5603
H12 H 0.0877 0.7126 0.4818
C14 C 0.0046(9) 0.7532(4) 0.5181(9)
H13 H 0.0148 0.7757 0.4682
H14 H -0.0090 0.7711 0.5738
C15 C -0.0586(10) 0.7238(5) 0.4883(8)
H15 H -0.0705 0.7022 0.5392
H16 H -0.0997 0.7443 0.4787
I1 I 0.12271(4) 0.49195(3) 0.00096(3)
Cu1 Cu 0.00655(8) 0.54490(5) 0.00902(13)
N1_2 N 0.0201(7) 0.5961(4) -0.0923(8)
I1A I -0.12271(4) 0.50805(3) 0.00096(3)
Cu1_2 Cu 0.00655(8) 0.54490(5) 1.00902(13)
Cu1A Cu -0.00655(8) 0.45510(5) 0.00902(13)
loop_
_geom_bond_atom_site_label_1
_geom_bond_atom_site_label_2
_geom_bond_site_symmetry_1
_geom_bond_site_symmetry_2
O1 C6 1_555 1_555
N1 C1 1_555 1_555
C1 H1 1_555 1_555
C2 C1 1_555 1_555
H2 C2 1_555 1_555
C3 C2 1_555 1_555
C4 C3 1_555 1_555
H3 C4 1_555 1_555
C5 N1 1_555 1_555
H4 C5 1_555 1_555
C6 C3 1_555 1_555
O2 C12 1_555 1_555
N2 C7 1_555 1_555
C7 H5 1_555 1_555
C8 C7 1_555 1_555
H6 C8 1_555 1_555
C9 C8 1_555 1_555
C10 C9 1_555 1_555
H7 C10 1_555 1_555
C11 N2 1_555 1_555
H8 C11 1_555 1_555
C12 C9 1_555 1_555
N3 C6 1_555 1_555
H9 N3 1_555 1_555
N4 C12 1_555 1_555
H10 N4 1_555 1_555
C13 N3 1_555 1_555
H11 C13 1_555 1_555
H12 C13 1_555 1_555
C14 C13 1_555 1_555
H13 C14 1_555 1_555
H14 C14 1_555 1_555
C15 N4 1_555 1_555
H15 C15 1_555 1_555
H16 C15 1_555 1_555
I1 Cu1 1_555 1_555
Cu1 N2 1_555 1_555
N1_2 Cu1 1_555 1_555
I1A Cu1 1_555 1_555
Cu1_2 N1 1_555 1_555
Cu1A I1 1_555 1_555
C4 C5 1_555 1_555
C10 C11 1_555 1_555
C14 C15 1_555 1_555
I1A Cu1A 1_555 1_555

#END
