
#######################################################################
#
#                 Cambridge Crystallographic Data Centre
#                                CCDC 
#
#######################################################################
#
# If this CIF has been generated from an entry in the Cambridge 
# Structural Database, then it will include bibliographic, chemical, 
# crystal, experimental, refinement or atomic coordinate data resulting 
# from the CCDC's data processing and validation procedures.
#
#######################################################################

data_YINPEQ
_symmetry_cell_setting           tetragonal
_symmetry_space_group_name_H-M   'P 42/n'
_symmetry_Int_Tables_number      86
_space_group_name_Hall           '-P 4bc'
loop_
_symmetry_equiv_pos_site_id
_symmetry_equiv_pos_as_xyz
1 x,y,z
2 -y,1/2+x,1/2+z
3 1/2+y,-x,1/2+z
4 1/2-x,1/2-y,z
5 -x,-y,-z
6 y,1/2-x,1/2-z
7 1/2-y,x,1/2-z
8 1/2+x,1/2+y,-z
_cell_length_a                   18.6679(2)
_cell_length_b                   18.6679(2)
_cell_length_c                   17.8347(2)
_cell_angle_alpha                90
_cell_angle_beta                 90
_cell_angle_gamma                90
_cell_volume                     6215.22
loop_
_atom_site_label
_atom_site_type_symbol
_atom_site_fract_x
_atom_site_fract_y
_atom_site_fract_z
Cd1 Cd 0.572825(19) 0.432883(19) 0.006110(17)
Cl1 Cl 0.54698(7) 0.55606(7) 0.06451(7)
O1 O 0.6526(2) 0.47857(18) -0.07849(19)
C1 C 0.7095(2) 0.4195(2) -0.1808(2)
O2 O 0.63837(19) 0.36253(19) -0.08743(19)
C2 C 0.6639(3) 0.4198(3) -0.1113(3)
C3 C 0.7233(3) 0.4824(3) -0.2189(3)
H1 H 0.7047 0.5252 -0.2008
C4 C 0.7374(3) 0.3569(2) -0.2086(3)
H2 H 0.7273 0.3139 -0.1846
C5 C 0.7803(3) 0.3570(2) -0.2718(3)
H3 H 0.8005 0.3143 -0.2886
C6 C 0.7933(2) 0.4197(2) -0.3100(2)
C7 C 0.8411(2) 0.4199(3) -0.3784(2)
C8 C 0.7643(3) 0.4827(3) -0.2833(3)
H4 H 0.7724 0.5254 -0.3088
O3 O 0.87909(18) 0.36682(17) -0.39217(19)
O4 O 0.84190(18) 0.47506(17) -0.41929(18)
Cl1D Cl 0.45302(7) 0.44394(7) -0.06451(7)
O3A O 0.63318(17) 0.37909(18) 0.10783(19)
O4A O 0.52494(17) 0.34190(18) 0.08071(18)
Cd1D Cd 0.427175(19) 0.567117(19) -0.006110(17)
Cd1B Cd 0.932883(19) 0.427175(19) -0.493890(17)
P1 P 1.01479(7) 0.65286(8) 0.06886(8)
C9 C 1.0213(3) 0.5806(3) 0.1339(3)
C10 C 1.0784(3) 0.5326(3) 0.1329(3)
H5 H 1.1142 0.5377 0.0970
C11 C 0.9292(3) 0.6492(3) 0.0238(3)
C12 C 0.8224(3) 0.5865(4) -0.0118(3)
H6 H 0.7938 0.5457 -0.0098
C13 C 0.8871(3) 0.5883(3) 0.0262(3)
H7 H 0.9022 0.5486 0.0534
C14 C 1.0095(4) 0.7213(4) 0.2550(4)
H8 H 1.0539 0.6987 0.2569
C15 C 0.9687(3) 0.5719(3) 0.1888(3)
H9 H 0.9299 0.6032 0.1904
C16 C 1.0695(3) 0.6180(3) -0.0704(3)
H10 H 1.0231 0.6045 -0.0832
C17 C 0.9737(4) 0.5176(4) 0.2404(3)
H11 H 0.9385 0.5120 0.2769
C18 C 1.0827(4) 0.4781(4) 0.1841(4)
H12 H 1.1205 0.4457 0.1824
C19 C 1.2075(3) 0.6550(4) -0.0336(4)
H13 H 1.2545 0.6663 -0.0208
C20 C 1.1926(3) 0.6292(3) -0.1026(4)
H14 H 1.2293 0.6243 -0.1375
C21 C 1.1246(3) 0.6105(3) -0.1217(3)
H15 H 1.1150 0.5927 -0.1694
C22 C 0.9847(3) 0.7479(3) 0.1867(4)
C23 C 1.0835(3) 0.6453(3) -0.0001(3)
C24 C 1.0268(4) 0.7383(3) 0.1159(4)
H16 H 1.0773 0.7440 0.1276
H17 H 1.0138 0.7762 0.0814
C25 C 1.0307(4) 0.4717(4) 0.2381(4)
H18 H 1.0343 0.4356 0.2738
C26 C 0.9697(5) 0.7277(4) 0.3200(4)
H19 H 0.9865 0.7086 0.3648
C27 C 1.1532(3) 0.6644(4) 0.0178(4)
H20 H 1.1634 0.6836 0.0647
C28 C 0.9057(3) 0.7073(3) -0.0186(4)
H21 H 0.9331 0.7488 -0.0211
C29 C 0.8007(4) 0.6448(4) -0.0523(4)
H22 H 0.7568 0.6439 -0.0769
C30 C 0.8422(4) 0.7032(4) -0.0566(4)
H23 H 0.8275 0.7417 -0.0860
C31 C 0.9199(4) 0.7819(3) 0.1863(4)
H24 H 0.9020 0.8004 0.1417
C32 C 0.8805(4) 0.7889(4) 0.2524(6)
H25 H 0.8365 0.8124 0.2515
C33 C 0.9055(5) 0.7621(5) 0.3174(5)
H26 H 0.8786 0.7672 0.3610
O5 O 0.61993(19) 0.62162(19) -0.1116(2)
O6 O 0.6733(2) 0.6789(2) -0.2443(2)
loop_
_geom_bond_atom_site_label_1
_geom_bond_atom_site_label_2
_geom_bond_site_symmetry_1
_geom_bond_site_symmetry_2
Cd1 Cl1 1_555 1_555
Cl1 Cd1D 1_555 1_555
O1 Cd1 1_555 1_555
C1 C2 1_555 1_555
O2 Cd1 1_555 1_555
C2 O1 1_555 1_555
C3 C1 1_555 1_555
H1 C3 1_555 1_555
C4 C1 1_555 1_555
H2 C4 1_555 1_555
C5 C4 1_555 1_555
H3 C5 1_555 1_555
C6 C5 1_555 1_555
C7 C6 1_555 1_555
C8 C3 1_555 1_555
H4 C8 1_555 1_555
O3 C7 1_555 1_555
O4 C7 1_555 1_555
P1 C9 1_555 1_555
C9 C10 1_555 1_555
C10 H5 1_555 1_555
C11 P1 1_555 1_555
C12 H6 1_555 1_555
C13 C11 1_555 1_555
H7 C13 1_555 1_555
C14 H8 1_555 1_555
C15 C9 1_555 1_555
H9 C15 1_555 1_555
C16 H10 1_555 1_555
C17 C15 1_555 1_555
H11 C17 1_555 1_555
C18 C10 1_555 1_555
H12 C18 1_555 1_555
C19 H13 1_555 1_555
C20 C19 1_555 1_555
H14 C20 1_555 1_555
C21 C16 1_555 1_555
H15 C21 1_555 1_555
C22 C14 1_555 1_555
C23 P1 1_555 1_555
C24 P1 1_555 1_555
H16 C24 1_555 1_555
H17 C24 1_555 1_555
C25 C17 1_555 1_555
H18 C25 1_555 1_555
C26 C14 1_555 1_555
H19 C26 1_555 1_555
C27 C19 1_555 1_555
H20 C27 1_555 1_555
C28 C11 1_555 1_555
H21 C28 1_555 1_555
C29 C12 1_555 1_555
H22 C29 1_555 1_555
C30 C28 1_555 1_555
H23 C30 1_555 1_555
C31 C22 1_555 1_555
H24 C31 1_555 1_555
C32 C31 1_555 1_555
H25 C32 1_555 1_555
C33 C26 1_555 1_555
H26 C33 1_555 1_555
Cl1D Cd1 1_555 1_555
O3A Cd1 1_555 1_555
O4A Cd1 1_555 1_555
Cd1D Cl1D 1_555 1_555
Cd1B O3 1_555 1_555
O2 C2 1_555 1_555
C6 C8 1_555 1_555
O4 Cd1B 1_555 1_555
C12 C13 1_555 1_555
C16 C23 1_555 1_555
C18 C25 1_555 1_555
C20 C21 1_555 1_555
C22 C24 1_555 1_555
C23 C27 1_555 1_555
C29 C30 1_555 1_555
C32 C33 1_555 1_555

#END
