
#######################################################################
#
#                 Cambridge Crystallographic Data Centre
#                                CCDC 
#
#######################################################################
#
# If this CIF has been generated from an entry in the Cambridge 
# Structural Database, then it will include bibliographic, chemical, 
# crystal, experimental, refinement or atomic coordinate data resulting 
# from the CCDC's data processing and validation procedures.
#
#######################################################################

data_YINPOC
_symmetry_cell_setting           orthorhombic
_symmetry_space_group_name_H-M   'P 21 21 21'
_symmetry_Int_Tables_number      19
_space_group_name_Hall           'P 2ac 2ab'
loop_
_symmetry_equiv_pos_site_id
_symmetry_equiv_pos_as_xyz
1 x,y,z
2 1/2-x,-y,1/2+z
3 -x,1/2+y,1/2-z
4 1/2+x,1/2-y,-z
_cell_length_a                   10.6903(19)
_cell_length_b                   15.235(3)
_cell_length_c                   25.040(4)
_cell_angle_alpha                90
_cell_angle_beta                 90
_cell_angle_gamma                90
_cell_volume                     4078.18
loop_
_atom_site_label
_atom_site_type_symbol
_atom_site_fract_x
_atom_site_fract_y
_atom_site_fract_z
Cu1 Cu -0.50944(7) -0.24875(5) -0.12453(3)
O1 O -0.3454(5) -0.2499(4) -0.18724(19)
N1 N -0.6074(5) 0.6592(3) -0.1654(2)
C1 C -0.5493(8) 0.6029(5) -0.1965(4)
H1 H -0.4647 0.6107 -0.2038
C2 C -0.6140(9) 0.5301(5) -0.2193(4)
H2 H -0.5707 0.4908 -0.2409
C3 C -0.7937(7) 0.5813(5) -0.1810(3)
H3 H -0.8797 0.5768 -0.1761
C4 C -0.7319(7) 0.6494(4) -0.1594(3)
H4 H -0.7762 0.6909 -0.1398
O2 O -0.7644(6) 0.0825(4) -0.2837(2)
N2 N -0.6084(6) -0.1521(3) -0.1619(2)
C5 C -0.6188(7) -0.1477(4) -0.2147(3)
H5 H -0.5801 -0.1911 -0.2349
C6 C -0.6844(7) -0.0818(4) -0.2416(3)
H6 H -0.6891 -0.0811 -0.2786
C7 C -0.7397(7) -0.0203(4) -0.2125(3)
C8 C -0.7318(8) -0.0216(4) -0.1564(3)
H7 H -0.7686 0.0222 -0.1359
C9 C -0.6674(8) -0.0905(5) -0.1326(3)
H8 H -0.6649 -0.0941 -0.0956
C10 C -0.8016(8) 0.0581(5) -0.2419(4)
N3 N -0.8998(7) 0.0952(4) -0.2145(3)
H9 H -0.9237 0.0729 -0.1846
N4 N -0.4176(5) 0.6540(3) -0.0849(2)
C11 C -0.4823(9) 0.5827(4) -0.0641(3)
H10 H -0.5692 0.5802 -0.0656
C12 C -0.4134(10) 0.5151(5) -0.0408(3)
H11 H -0.4563 0.4660 -0.0285
C13 C -0.2299(8) 0.5935(5) -0.0561(3)
H12 H -0.1435 0.5991 -0.0536
C14 C -0.2983(7) 0.6575(4) -0.0790(3)
H13 H -0.2567 0.7071 -0.0914
N5 N -0.4226(6) -0.1540(4) -0.0802(2)
C15 C -0.4193(7) -0.1571(5) -0.0263(3)
H14 H -0.4479 -0.2074 -0.0091
C16 C -0.3766(7) -0.0906(5) 0.0030(3)
H15 H -0.3808 -0.0946 0.0400
C17 C -0.3255(8) -0.0171(5) -0.0759(4)
H16 H -0.2922 0.0308 -0.0939
C18 C -0.3696(7) -0.0828(4) -0.1021(3)
H17 H -0.3642 -0.0808 -0.1391
O3 O -0.7382(7) 0.4035(4) -0.2728(3)
C19 C -0.7934(7) 0.4419(4) -0.2368(3)
N6 N -0.9008(6) 0.4149(4) -0.2192(3)
H18 H -0.9377 0.4455 -0.1950
C20 C -0.7321(8) 0.5180(4) -0.2103(3)
O4 O -0.2659(14) 0.0523(7) 0.0576(4)
C21 C -0.2673(16) 0.0587(5) 0.0102(5)
N7 N -0.3137(11) 0.1349(7) -0.0008(5)
H19 H -0.3535 0.1414 -0.0304
C22 C -0.3279(8) -0.0182(5) -0.0189(4)
O5 O -0.0992(10) 0.4375(6) -0.0300(4)
C23 C -0.2010(13) 0.4494(7) -0.0136(5)
N8 N -0.2444(11) 0.4085(7) 0.0292(4)
H20 H -0.3167 0.4219 0.0419
C24 C -0.2904(11) 0.5168(5) -0.0353(3)
C25 C -0.9630(7) 0.3340(5) -0.2387(3)
H21 H -0.9535 0.3299 -0.2771
H22 H -1.0517 0.3369 -0.2307
C26 C -0.9073(6) 0.2532(5) -0.2127(3)
H23 H -0.8175 0.2527 -0.2182
H24 H -0.9228 0.2549 -0.1745
C27 C -0.9630(8) 0.1719(5) -0.2357(3)
H25 H -1.0513 0.1692 -0.2269
H26 H -0.9551 0.1729 -0.2743
C28 C -0.1686(15) 0.3402(11) 0.0549(6)
H27 H -0.1991 0.3300 0.0909
H28 H -0.0824 0.3596 0.0573
C29 C -0.1754(18) 0.2521(14) 0.0220(7)
H29 H -0.1728 0.2627 -0.0162
H30 H -0.1091 0.2117 0.0319
C30 C -0.3000(14) 0.2205(9) 0.0396(6)
H31 H -0.3650 0.2638 0.0335
H32 H -0.3000 0.2032 0.0769
O6 O -0.6721(5) -0.2548(4) -0.0504(2)
Cu1_2 Cu -0.50944(7) 0.75125(5) -0.12453(3)
N1_2 N -0.6074(5) -0.3408(3) -0.1654(2)
N4_2 N -0.4176(5) -0.3460(3) -0.0849(2)
Cl1 Cl 1.4941(2) 0.67498(13) 0.08783(7)
O7 O 1.4679(8) 0.6036(6) 0.1232(3)
O8 O 1.6042(7) 0.6560(5) 0.0597(3)
O9 O 1.3938(6) 0.6799(5) 0.0499(3)
O10 O 1.5023(8) 0.7600(6) 0.1123(4)
O11 O 1.4364(10) 0.0149(7) 0.1387(4)
O12 O 1.5091(11) 0.4201(7) 0.0970(5)
loop_
_geom_bond_atom_site_label_1
_geom_bond_atom_site_label_2
_geom_bond_site_symmetry_1
_geom_bond_site_symmetry_2
Cu1 O1 1_555 1_555
N1 C1 1_555 1_555
C1 H1 1_555 1_555
C2 C1 1_555 1_555
H2 C2 1_555 1_555
C3 H3 1_555 1_555
C4 N1 1_555 1_555
H4 C4 1_555 1_555
O2 C10 1_555 1_555
N2 Cu1 1_555 1_555
C5 N2 1_555 1_555
H5 C5 1_555 1_555
C6 C5 1_555 1_555
H6 C6 1_555 1_555
C7 C6 1_555 1_555
C8 C7 1_555 1_555
H7 C8 1_555 1_555
C9 N2 1_555 1_555
H8 C9 1_555 1_555
C10 C7 1_555 1_555
N3 C10 1_555 1_555
H9 N3 1_555 1_555
N4 C11 1_555 1_555
C11 H10 1_555 1_555
C12 C11 1_555 1_555
H11 C12 1_555 1_555
C13 H12 1_555 1_555
C14 N4 1_555 1_555
H13 C14 1_555 1_555
N5 Cu1 1_555 1_555
C15 N5 1_555 1_555
H14 C15 1_555 1_555
C16 C15 1_555 1_555
H15 C16 1_555 1_555
C17 H16 1_555 1_555
C18 N5 1_555 1_555
H17 C18 1_555 1_555
O3 C19 1_555 1_555
C19 N6 1_555 1_555
N6 H18 1_555 1_555
C20 C2 1_555 1_555
O4 C21 1_555 1_555
C21 N7 1_555 1_555
N7 H19 1_555 1_555
C22 C16 1_555 1_555
O5 C23 1_555 1_555
C23 N8 1_555 1_555
N8 H20 1_555 1_555
C24 C12 1_555 1_555
C25 N6 1_555 1_555
H21 C25 1_555 1_555
H22 C25 1_555 1_555
C26 C25 1_555 1_555
H23 C26 1_555 1_555
H24 C26 1_555 1_555
C27 N3 1_555 1_555
H25 C27 1_555 1_555
H26 C27 1_555 1_555
C28 N8 1_555 1_555
H27 C28 1_555 1_555
H28 C28 1_555 1_555
C29 C28 1_555 1_555
H29 C29 1_555 1_555
H30 C29 1_555 1_555
C30 N7 1_555 1_555
H31 C30 1_555 1_555
H32 C30 1_555 1_555
O6 Cu1 1_555 1_555
Cl1 O7 1_555 1_555
O8 Cl1 1_555 1_555
O9 Cl1 1_555 1_555
O10 Cl1 1_555 1_555
Cu1_2 N1 1_555 1_555
N1_2 Cu1 1_555 1_555
N4_2 Cu1 1_555 1_555
C3 C4 1_555 1_555
C3 C20 1_555 1_555
C8 C9 1_555 1_555
N4 Cu1_2 1_555 1_555
C13 C14 1_555 1_555
C13 C24 1_555 1_555
C17 C18 1_555 1_555
C17 C22 1_555 1_555
C19 C20 1_555 1_555
C21 C22 1_555 1_555
C23 C24 1_555 1_555
C26 C27 1_555 1_555
C29 C30 1_555 1_555

#END
