
#######################################################################
#
#                 Cambridge Crystallographic Data Centre
#                                CCDC 
#
#######################################################################
#
# If this CIF has been generated from an entry in the Cambridge 
# Structural Database, then it will include bibliographic, chemical, 
# crystal, experimental, refinement or atomic coordinate data resulting 
# from the CCDC's data processing and validation procedures.
#
#######################################################################

data_YINQUJ
_symmetry_cell_setting           monoclinic
_symmetry_space_group_name_H-M   'P 21/c'
_symmetry_Int_Tables_number      14
_space_group_name_Hall           '-P 2ybc'
loop_
_symmetry_equiv_pos_site_id
_symmetry_equiv_pos_as_xyz
1 x,y,z
2 -x,1/2+y,1/2-z
3 -x,-y,-z
4 x,1/2-y,1/2+z
_cell_length_a                   23.545(3)
_cell_length_b                   11.8660(15)
_cell_length_c                   16.909(2)
_cell_angle_alpha                90
_cell_angle_beta                 110.064(4)
_cell_angle_gamma                90
_cell_volume                     4437.41
loop_
_atom_site_label
_atom_site_type_symbol
_atom_site_fract_x
_atom_site_fract_y
_atom_site_fract_z
Cu1 Cu 0.25555(3) 0.75219(5) 0.23876(4)
O1 O 0.33828(17) 0.8992(3) 0.2979(2)
O2 O 0.17052(19) 0.6100(3) 0.1798(2)
O3 O 0.38114(16) 0.4676(3) 0.6170(2)
N1 N 0.29828(18) 0.6521(3) 0.3381(2)
C1 C 0.3018(2) 0.5416(5) 0.3309(3)
H1 H 0.2821 0.5086 0.2788
C2 C 0.3333(2) 0.4731(4) 0.3975(3)
H2 H 0.3365 0.3961 0.3894
C3 C 0.3600(2) 0.5199(4) 0.4758(3)
C4 C 0.3551(2) 0.6348(4) 0.4839(3)
H3 H 0.3722 0.6692 0.5362
C5 C 0.3250(2) 0.6973(4) 0.4149(3)
H4 H 0.3227 0.7748 0.4211
C6 C 0.3920(2) 0.4510(4) 0.5515(3)
O4 O 0.36596(19) 0.0082(4) 0.4520(2)
N2 N 0.30074(17) -0.1785(3) 0.6702(2)
C7 C 0.3612(2) -0.1687(4) 0.6984(3)
H5 H 0.3829 -0.2020 0.7496
C8 C 0.3928(2) -0.1123(4) 0.6560(3)
H6 H 0.4349 -0.1097 0.6772
C9 C 0.3604(2) -0.0587(4) 0.5801(3)
C10 C 0.2989(2) -0.0737(4) 0.5505(3)
H7 H 0.2760 -0.0445 0.4982
C11 C 0.2711(2) -0.1304(5) 0.5962(3)
H8 H 0.2292 -0.1363 0.5750
C12 C 0.3894(2) 0.0070(4) 0.5285(3)
N3 N 0.4400(2) 0.0619(4) 0.5699(3)
H9 H 0.4554 0.0532 0.6236
N4 N 0.43153(19) 0.3763(3) 0.5435(2)
H10 H 0.4355 0.3672 0.4952
C13 C 0.4685(3) 0.3092(4) 0.6149(3)
H11 H 0.4425 0.2694 0.6393
H12 H 0.4947 0.3586 0.6577
C14 C 0.5060(2) 0.2263(5) 0.5883(4)
H13 H 0.5335 0.1901 0.6382
H14 H 0.5302 0.2669 0.5615
C15 C 0.4709(3) 0.1364(5) 0.5289(4)
H15 H 0.4413 0.1715 0.4803
H16 H 0.4982 0.0925 0.5094
O5 O 0.1481(2) 1.4132(6) 0.3820(3)
N5 N 0.21458(17) 1.6450(3) 0.6409(2)
C16 C 0.1541(2) 1.6358(4) 0.6107(3)
H17 H 0.1317 1.6795 0.6349
C17 C 0.1244(2) 1.5663(4) 0.5469(3)
H18 H 0.0824 1.5638 0.5276
C18 C 0.1561(2) 1.4992(4) 0.5104(3)
C19 C 0.2185(2) 1.5086(5) 0.5402(3)
H19 H 0.2414 1.4666 0.5157
C20 C 0.2466(2) 1.5796(5) 0.6058(3)
H20 H 0.2886 1.5830 0.6267
C21 C 0.1262(3) 1.4217(6) 0.4384(4)
O6 O 0.11029(18) 0.9456(4) 0.5105(2)
N6 N 0.20729(18) 0.8238(4) 0.3047(2)
C22 C 0.1778(3) 0.7622(5) 0.3447(3)
H21 H 0.1809 0.6841 0.3436
C23 C 0.1431(2) 0.8091(5) 0.3877(3)
H22 H 0.1236 0.7633 0.4151
C24 C 0.1378(2) 0.9245(4) 0.3893(3)
C25 C 0.1678(2) 0.9884(4) 0.3475(3)
H23 H 0.1645 1.0665 0.3464
C26 C 0.2026(2) 0.9359(4) 0.3074(3)
H24 H 0.2236 0.9801 0.2812
C27 C 0.1031(2) 0.9771(5) 0.4389(3)
N7 N 0.0759(2) 1.3720(4) 0.4368(3)
H25 H 0.0647 1.3778 0.4799
N8 N 0.0653(2) 1.0607(4) 0.4005(3)
H26 H 0.0606 1.0756 0.3488
C28 C 0.0384(3) 1.3070(5) 0.3639(4)
H27 H 0.0644 1.2681 0.3390
H28 H 0.0129 1.3583 0.3220
C29 C -0.0007(3) 1.2223(5) 0.3870(4)
H29 H -0.0286 1.1905 0.3354
H30 H -0.0246 1.2617 0.4149
C30 C 0.0318(3) 1.1276(5) 0.4425(4)
H31 H 0.0596 1.1578 0.4948
H32 H 0.0028 1.0800 0.4558
Cu1C Cu 0.25555(3) -0.25219(5) 0.73876(4)
Cu1C_2 Cu 0.25555(3) 1.74781(5) 0.73876(4)
N2C N 0.30074(17) 0.6785(3) 0.1702(2)
N5C N 0.21458(17) 0.8550(3) 0.1409(2)
Cl1 Cl 0.02347(8) 1.34959(16) 0.64839(9)
O7 O 0.0212(3) 1.4038(6) 0.5752(3)
O8 O -0.0319(4) 1.3731(8) 0.6600(6)
O9 O 0.0642(4) 1.3828(9) 0.7185(4)
O10 O 0.0250(6) 1.2338(7) 0.6382(6)
Cl2 Cl 0.46917(7) 0.34842(12) 0.33057(9)
O11 O 0.4398(4) 0.2531(6) 0.3424(4)
O12 O 0.4348(4) 0.3984(7) 0.2583(4)
O13 O 0.4823(4) 0.4141(6) 0.4007(4)
O14 O 0.5224(3) 0.3233(7) 0.3163(5)
O15 O 0.4416(2) 0.0207(4) 0.2899(2)
O16 O 0.0851(3) 0.4845(6) 0.2183(5)
N9 N 0.2518(4) 0.2905(5) 0.0543(4)
O17 O 0.2076(3) 0.3338(6) 0.0029(4)
O18 O 0.2959(4) 0.2662(6) 0.0377(4)
C31 C 0.2502(3) 0.2699(5) 0.1382(4)
C32 C 0.2968(3) 0.2134(6) 0.1944(4)
H33 H 0.3288 0.1882 0.1787
C33 C 0.2969(4) 0.1936(6) 0.2734(4)
H34 H 0.3294 0.1566 0.3125
C34 C 0.2495(5) 0.2281(7) 0.2951(5)
H35 H 0.2495 0.2150 0.3493
C35 C 0.2019(5) 0.2817(8) 0.2382(7)
H36 H 0.1693 0.3035 0.2539
C36 C 0.2009(3) 0.3036(6) 0.1601(6)
H37 H 0.1682 0.3404 0.1215
loop_
_geom_bond_atom_site_label_1
_geom_bond_atom_site_label_2
_geom_bond_site_symmetry_1
_geom_bond_site_symmetry_2
Cu1 O1 1_555 1_555
O2 Cu1 1_555 1_555
O3 C6 1_555 1_555
N1 Cu1 1_555 1_555
C1 N1 1_555 1_555
H1 C1 1_555 1_555
C2 C1 1_555 1_555
H2 C2 1_555 1_555
C3 C2 1_555 1_555
C4 C3 1_555 1_555
H3 C4 1_555 1_555
C5 N1 1_555 1_555
H4 C5 1_555 1_555
C6 C3 1_555 1_555
O4 C12 1_555 1_555
N2 C7 1_555 1_555
C7 H5 1_555 1_555
C8 C7 1_555 1_555
H6 C8 1_555 1_555
C9 C8 1_555 1_555
C10 C9 1_555 1_555
H7 C10 1_555 1_555
C11 N2 1_555 1_555
H8 C11 1_555 1_555
C12 C9 1_555 1_555
N3 C12 1_555 1_555
H9 N3 1_555 1_555
N4 C6 1_555 1_555
H10 N4 1_555 1_555
C13 N4 1_555 1_555
H11 C13 1_555 1_555
H12 C13 1_555 1_555
C14 C13 1_555 1_555
H13 C14 1_555 1_555
H14 C14 1_555 1_555
C15 N3 1_555 1_555
H15 C15 1_555 1_555
H16 C15 1_555 1_555
O5 C21 1_555 1_555
N5 C16 1_555 1_555
C16 H17 1_555 1_555
C17 C16 1_555 1_555
H18 C17 1_555 1_555
C18 C17 1_555 1_555
C19 C18 1_555 1_555
H19 C19 1_555 1_555
C20 N5 1_555 1_555
H20 C20 1_555 1_555
C21 C18 1_555 1_555
O6 C27 1_555 1_555
N6 Cu1 1_555 1_555
C22 N6 1_555 1_555
H21 C22 1_555 1_555
C23 C22 1_555 1_555
H22 C23 1_555 1_555
C24 C23 1_555 1_555
C25 C24 1_555 1_555
H23 C25 1_555 1_555
C26 N6 1_555 1_555
H24 C26 1_555 1_555
C27 C24 1_555 1_555
N7 C21 1_555 1_555
H25 N7 1_555 1_555
N8 C27 1_555 1_555
H26 N8 1_555 1_555
C28 N7 1_555 1_555
H27 C28 1_555 1_555
H28 C28 1_555 1_555
C29 C28 1_555 1_555
H29 C29 1_555 1_555
H30 C29 1_555 1_555
C30 N8 1_555 1_555
H31 C30 1_555 1_555
H32 C30 1_555 1_555
Cl1 O7 1_555 1_555
O8 Cl1 1_555 1_555
O9 Cl1 1_555 1_555
O10 Cl1 1_555 1_555
Cl2 O11 1_555 1_555
O12 Cl2 1_555 1_555
O13 Cl2 1_555 1_555
O14 Cl2 1_555 1_555
N9 O17 1_555 1_555
O18 N9 1_555 1_555
C31 N9 1_555 1_555
C32 C31 1_555 1_555
H33 C32 1_555 1_555
C33 C32 1_555 1_555
H34 C33 1_555 1_555
C34 C33 1_555 1_555
H35 C34 1_555 1_555
C35 C34 1_555 1_555
H36 C35 1_555 1_555
C36 C31 1_555 1_555
H37 C36 1_555 1_555
Cu1C N2 1_555 1_555
Cu1C_2 N5 1_555 1_555
N2C Cu1 1_555 1_555
N5C Cu1 1_555 1_555
C4 C5 1_555 1_555
C10 C11 1_555 1_555
C14 C15 1_555 1_555
C19 C20 1_555 1_555
C25 C26 1_555 1_555
C29 C30 1_555 1_555
C35 C36 1_555 1_555

#END
