
#######################################################################
#
#                 Cambridge Crystallographic Data Centre
#                                CCDC 
#
#######################################################################
#
# If this CIF has been generated from an entry in the Cambridge 
# Structural Database, then it will include bibliographic, chemical, 
# crystal, experimental, refinement or atomic coordinate data resulting 
# from the CCDC's data processing and validation procedures.
#
#######################################################################

data_YINQAN
_symmetry_cell_setting           orthorhombic
_symmetry_space_group_name_H-M   'P 21 21 21'
_symmetry_Int_Tables_number      19
_space_group_name_Hall           'P 2ac 2ab'
loop_
_symmetry_equiv_pos_site_id
_symmetry_equiv_pos_as_xyz
1 x,y,z
2 1/2-x,-y,1/2+z
3 1/2+x,1/2-y,-z
4 -x,1/2+y,1/2-z
_cell_length_a                   12.067(2)
_cell_length_b                   17.667(4)
_cell_length_c                   29.266(6)
_cell_angle_alpha                90
_cell_angle_beta                 90
_cell_angle_gamma                90
_cell_volume                     6239.15
loop_
_atom_site_label
_atom_site_type_symbol
_atom_site_fract_x
_atom_site_fract_y
_atom_site_fract_z
Cs1 Cs 0.48202(3) 1.37030(3) 0.675826(14)
Ni1 Ni 1.00000(6) 1.57729(4) 0.78413(2)
O1 O 0.5879(4) 1.5103(3) 0.80755(19)
C1 C 0.7946(5) 1.5420(3) 0.7409(2)
C2 C 0.6515(5) 1.4674(4) 0.7802(2)
C3 C 0.7683(5) 1.4958(3) 0.7792(2)
C4 C 0.8401(5) 1.4702(3) 0.8135(2)
O2 O 0.6167(4) 1.4114(3) 0.76068(18)
C5 C 0.7929(6) 1.4201(4) 0.8501(2)
H1 H 0.7867 1.3683 0.8385
H2 H 0.7194 1.4387 0.8589
H3 H 0.8419 1.4208 0.8768
C6 C 0.7043(5) 1.5576(4) 0.7064(2)
H4 H 0.7205 1.6049 0.6903
H5 H 0.6330 1.5621 0.7222
H6 H 0.7008 1.5159 0.6844
N1 N 1.1016(4) 1.5844(3) 0.83157(17)
O3 O 1.0945(4) 1.8198(2) 0.86657(16)
O4 O 0.4317(4) 1.5783(3) 0.74851(19)
C7 C 1.0286(5) 1.4614(3) 0.84342(19)
C8 C 1.1269(6) 1.3630(4) 0.8831(2)
H7 H 1.1317 1.3121 0.8934
C9 C 1.0832(5) 1.6954(3) 0.6722(2)
H8 H 1.1449 1.7270 0.6787
C10 C 1.1369(5) 1.7155(3) 0.8219(2)
C11 C 1.0233(5) 1.6615(3) 0.70766(19)
C12 C 1.0353(6) 1.3865(4) 0.8584(2)
H9 H 0.9773 1.3519 0.8517
C13 C 0.3730(6) 1.6400(4) 0.7305(3)
H10 H 0.2928 1.6290 0.7331
H11 H 0.3907 1.6440 0.6976
C14 C 1.1776(5) 1.7875(4) 0.8433(2)
N2 N 1.0519(4) 1.6645(3) 0.75485(17)
C15 C 1.1145(5) 1.5118(4) 0.8534(2)
N3 N 0.9464(4) 1.4916(3) 0.81451(16)
C16 C 1.2007(6) 1.6526(4) 0.8930(2)
H12 H 1.1680 1.6142 0.9131
H13 H 1.1896 1.7029 0.9063
H14 H 1.2802 1.6429 0.8896
N4 N 0.8951(4) 1.5722(3) 0.73719(17)
C17 C 1.0962(5) 1.7233(4) 0.7758(2)
C18 C 0.9073(5) 1.5980(3) 0.6523(2)
H15 H 0.8485 1.5641 0.6453
C19 C 1.2067(6) 1.4862(4) 0.8773(2)
H16 H 1.2670 1.5194 0.8829
C20 C 0.9358(5) 1.6110(3) 0.6980(2)
C21 C 1.1453(5) 1.6491(3) 0.8464(2)
C22 C 1.2110(6) 1.4130(4) 0.8929(2)
H17 H 1.2725 1.3967 0.9106
C23 C 0.4100(6) 1.5662(5) 0.7946(3)
H18 H 0.3291 1.5614 0.7995
H19 H 0.4369 1.6098 0.8127
C24 C 0.4677(6) 1.4948(5) 0.8101(3)
H20 H 0.4459 1.4821 0.8418
H21 H 0.4478 1.4519 0.7899
C25 C 0.9638(5) 1.6339(4) 0.6171(2)
H22 H 0.9427 1.6254 0.5863
O5 O 0.9476(4) 1.9434(3) 0.87055(16)
C26 C 1.0132(6) 1.9213(4) 0.9079(2)
H23 H 0.9745 1.8821 0.9260
H24 H 1.0282 1.9652 0.9279
C27 C 1.0511(5) 1.6822(4) 0.6271(2)
H25 H 1.0895 1.7066 0.6029
C28 C 1.1000(5) 1.8009(4) 0.7550(2)
H26 H 1.1765 1.8131 0.7465
H27 H 1.0731 1.8381 0.7773
H28 H 1.0530 1.8022 0.7277
C29 C 0.8040(6) 1.8553(5) 0.7533(3)
H29 H 0.8473 1.8529 0.7245
H30 H 0.8344 1.8173 0.7748
C30 C 0.8424(6) 1.9723(4) 0.8846(3)
H31 H 0.8525 2.0150 0.9060
H32 H 0.7992 1.9322 0.9002
C31 C 1.1189(6) 1.8905(4) 0.8893(3)
H33 H 1.1519 1.9269 0.8675
H34 H 1.1724 1.8820 0.9145
C32 C 0.8121(6) 1.9348(4) 0.7741(2)
H35 H 0.8906 1.9474 0.7803
H36 H 0.7822 1.9726 0.7524
O6 O 0.5083(4) 1.7352(2) 0.75630(14)
O7 O 0.7527(4) 1.9368(3) 0.81404(17)
O8 O 0.6906(4) 1.8398(3) 0.74432(15)
O9 O 1.2695(4) 1.8127(3) 0.84160(18)
C33 C 0.7838(6) 1.9979(4) 0.8437(3)
H37 H 0.7164 2.0257 0.8530
H38 H 0.8319 2.0334 0.8266
C34 C 0.6800(7) 1.7681(4) 0.7216(3)
H39 H 0.7154 1.7282 0.7403
H40 H 0.7187 1.7701 0.6918
C35 C 0.5624(6) 1.7493(4) 0.7143(3)
H41 H 0.5253 1.7918 0.6985
H42 H 0.5568 1.7040 0.6946
C36 C 0.3943(6) 1.7145(5) 0.7519(3)
H43 H 0.3563 1.7538 0.7335
H44 H 0.3603 1.7147 0.7826
O6C O 0.4917(4) 1.2352(2) 0.74370(14)
O7C O 0.2473(4) 1.4368(3) 0.68596(17)
O8C O 0.3094(4) 1.3398(3) 0.75568(15)
O9C O 0.7305(4) 1.3127(3) 0.65840(18)
Cs1C Cs 0.51798(3) 1.87030(3) 0.824174(14)
Cs1C_2 Cs 1.51798(3) 1.87030(3) 0.824174(14)
Co1 Co 0.48878(6) 1.62958(4) 0.53891(2)
B1 B 0.4977(6) 1.8044(4) 0.5793(3)
B2 B 0.3732(6) 1.8338(4) 0.5537(3)
B3 B 0.2843(7) 1.7537(5) 0.5487(3)
B4 B 0.6177(6) 1.4779(4) 0.5776(3)
B5 B 0.3681(6) 1.7653(5) 0.5978(3)
B6 B 0.6111(7) 1.4277(5) 0.5252(3)
B7 B 0.4861(7) 1.4556(4) 0.4976(2)
B8 B 0.4883(7) 1.4456(4) 0.5569(2)
B9 B 0.6161(7) 1.4917(4) 0.4800(3)
B10 B 0.3604(6) 1.7841(4) 0.5015(3)
B11 B 0.6967(6) 1.5059(5) 0.5298(3)
B12 B 0.4982(6) 1.5364(4) 0.5836(2)
C37 C 0.5031(6) 1.5500(3) 0.4889(2)
C38 C 0.6213(5) 1.5797(4) 0.5074(2)
B13 B 0.4923(6) 1.8170(4) 0.5199(3)
B14 B 0.4843(7) 1.7050(4) 0.5930(2)
C39 C 0.4726(5) 1.7252(3) 0.5001(2)
B15 B 0.4145(7) 1.5235(4) 0.5327(3)
C40 C 0.5491(5) 1.7368(3) 0.5445(2)
B16 B 0.3482(6) 1.6854(4) 0.5136(2)
B17 B 0.3488(6) 1.6733(4) 0.5748(2)
B18 B 0.6285(6) 1.5750(4) 0.5658(2)
H45 H 0.311(6) 1.652(3) 0.490(2)
H46 H 0.290(4) 1.634(3) 0.5993(18)
H47 H 0.693(4) 1.616(3) 0.5810(18)
H48 H 0.311(4) 1.888(3) 0.5536(17)
H49 H 0.669(4) 1.606(3) 0.4861(18)
H50 H 0.777(5) 1.509(3) 0.5273(17)
H51 H 0.479(6) 1.578(3) 0.458(2)
H52 H 0.539(5) 1.680(3) 0.6256(18)
H53 H 0.643(6) 1.384(4) 0.518(2)
H54 H 0.327(4) 1.800(3) 0.4693(18)
H55 H 0.508(8) 1.721(4) 0.473(3)
H56 H 0.670(9) 1.475(5) 0.455(4)
H57 H 0.618(7) 1.446(5) 0.607(3)
H58 H 0.463(5) 1.539(3) 0.614(2)
H59 H 0.632(5) 1.731(3) 0.5391(18)
H60 H 0.330(7) 1.773(4) 0.624(3)
H61 H 0.551(6) 1.840(4) 0.603(2)
H62 H 0.449(7) 1.410(4) 0.566(3)
H63 H 0.555(6) 1.848(3) 0.497(2)
H64 H 0.220(5) 1.747(3) 0.5474(18)
H65 H 0.309(4) 1.522(3) 0.5289(18)
H66 H 0.431(6) 1.423(4) 0.471(2)
C41 C 0.0147(9) 1.4623(4) 0.4625(3)
H67 H -0.0122 1.5096 0.4518
C42 C -0.0221(9) 1.3294(5) 0.4766(3)
C43 C 0.0931(8) 1.3216(5) 0.4901(3)
H68 H 0.1234 1.2741 0.4988
C44 C -0.0575(9) 1.4001(6) 0.4631(4)
H69 H -0.1324 1.4069 0.4540
C45 C 0.1192(8) 1.4575(6) 0.4764(3)
H70 H 0.1665 1.5004 0.4774
C46 C 0.1553(8) 1.3860(6) 0.4895(3)
H71 H 0.2304 1.3815 0.4988
C47 C -0.0968(11) 1.2640(6) 0.4817(5)
H72 H -0.1665 1.2806 0.4957
H73 H -0.0616 1.2259 0.5012
H74 H -0.1120 1.2421 0.4516
Cl1 Cl 0.1087(5) 1.1866(4) 0.59270(19)
Cl2 Cl 0.2718(4) 1.2012(5) 0.6562(3)
C48 C 0.227(4) 1.2478(12) 0.6277(6)
H75 H 0.2827 1.2683 0.6064
H76 H 0.1917 1.2905 0.6442
loop_
_geom_bond_atom_site_label_1
_geom_bond_atom_site_label_2
_geom_bond_site_symmetry_1
_geom_bond_site_symmetry_2
Cs1 O2 1_555 1_555
Ni1 N1 1_555 1_555
O1 C2 1_555 1_555
C1 C3 1_555 1_555
C2 C3 1_555 1_555
C3 C4 1_555 1_555
C4 C5 1_555 1_555
O2 C2 1_555 1_555
C5 H1 1_555 1_555
H2 C5 1_555 1_555
H3 C5 1_555 1_555
C6 C1 1_555 1_555
H4 C6 1_555 1_555
H5 C6 1_555 1_555
H6 C6 1_555 1_555
N1 C15 1_555 1_555
O3 C14 1_555 1_555
O4 C13 1_555 1_555
C7 C12 1_555 1_555
C8 H7 1_555 1_555
C9 H8 1_555 1_555
C10 C14 1_555 1_555
C11 C9 1_555 1_555
C12 C8 1_555 1_555
H9 C12 1_555 1_555
C13 H10 1_555 1_555
H11 C13 1_555 1_555
C14 O9 1_555 1_555
N2 Ni1 1_555 1_555
C15 C7 1_555 1_555
N3 Ni1 1_555 1_555
C16 H12 1_555 1_555
H13 C16 1_555 1_555
H14 C16 1_555 1_555
N4 Ni1 1_555 1_555
C17 C10 1_555 1_555
C18 H15 1_555 1_555
C19 C15 1_555 1_555
H16 C19 1_555 1_555
C20 C11 1_555 1_555
C21 N1 1_555 1_555
C22 C8 1_555 1_555
H17 C22 1_555 1_555
C23 O4 1_555 1_555
H18 C23 1_555 1_555
H19 C23 1_555 1_555
C24 O1 1_555 1_555
H20 C24 1_555 1_555
H21 C24 1_555 1_555
C25 C18 1_555 1_555
H22 C25 1_555 1_555
O5 C26 1_555 1_555
C26 H23 1_555 1_555
H24 C26 1_555 1_555
C27 C9 1_555 1_555
H25 C27 1_555 1_555
C28 C17 1_555 1_555
H26 C28 1_555 1_555
H27 C28 1_555 1_555
H28 C28 1_555 1_555
C29 H29 1_555 1_555
H30 C29 1_555 1_555
C30 O5 1_555 1_555
H31 C30 1_555 1_555
H32 C30 1_555 1_555
C31 O3 1_555 1_555
H33 C31 1_555 1_555
H34 C31 1_555 1_555
C32 C29 1_555 1_555
H35 C32 1_555 1_555
H36 C32 1_555 1_555
O6 C35 1_555 1_555
O7 C32 1_555 1_555
O8 C29 1_555 1_555
O9 Cs1C_2 1_555 1_555
C33 C30 1_555 1_555
H37 C33 1_555 1_555
H38 C33 1_555 1_555
C34 O8 1_555 1_555
H39 C34 1_555 1_555
H40 C34 1_555 1_555
C35 C34 1_555 1_555
H41 C35 1_555 1_555
H42 C35 1_555 1_555
C36 C13 1_555 1_555
H43 C36 1_555 1_555
H44 C36 1_555 1_555
Co1 B12 1_555 1_555
B1 B2 1_555 1_555
B2 B3 1_555 1_555
B3 B5 1_555 1_555
B4 B6 1_555 1_555
B5 B1 1_555 1_555
B6 B7 1_555 1_555
B7 B8 1_555 1_555
B8 B4 1_555 1_555
B9 B6 1_555 1_555
B10 B2 1_555 1_555
B11 B4 1_555 1_555
B12 B4 1_555 1_555
C37 Co1 1_555 1_555
C38 Co1 1_555 1_555
B13 B1 1_555 1_555
B14 Co1 1_555 1_555
C39 Co1 1_555 1_555
B15 Co1 1_555 1_555
C40 Co1 1_555 1_555
B16 Co1 1_555 1_555
B17 Co1 1_555 1_555
B18 Co1 1_555 1_555
H45 B16 1_555 1_555
H46 B17 1_555 1_555
H47 B18 1_555 1_555
H48 B2 1_555 1_555
H49 C38 1_555 1_555
H50 B11 1_555 1_555
H51 C37 1_555 1_555
H52 B14 1_555 1_555
H53 B6 1_555 1_555
H54 B10 1_555 1_555
H55 C39 1_555 1_555
H56 B9 1_555 1_555
H57 B4 1_555 1_555
H58 B12 1_555 1_555
H59 C40 1_555 1_555
H60 B5 1_555 1_555
H61 B1 1_555 1_555
H62 B8 1_555 1_555
H63 B13 1_555 1_555
H64 B3 1_555 1_555
H65 B15 1_555 1_555
H66 B7 1_555 1_555
C41 H67 1_555 1_555
C42 C43 1_555 1_555
C43 H68 1_555 1_555
C44 C41 1_555 1_555
H69 C44 1_555 1_555
C45 C41 1_555 1_555
H70 C45 1_555 1_555
C46 C43 1_555 1_555
H71 C46 1_555 1_555
C47 C42 1_555 1_555
H72 C47 1_555 1_555
H73 C47 1_555 1_555
H74 C47 1_555 1_555
Cl1 C48 1_555 1_555
Cl2 C48 1_555 1_555
C48 H75 1_555 1_555
H76 C48 1_555 1_555
O6C Cs1 1_555 1_555
O7C Cs1 1_555 1_555
O8C Cs1 1_555 1_555
O9C Cs1 1_555 1_555
Cs1C O6 1_555 1_555
C1 N4 1_555 1_555
C4 N3 1_555 1_555
C7 N3 1_555 1_555
C10 C21 1_555 1_555
C11 N2 1_555 1_555
N2 C17 1_555 1_555
C16 C21 1_555 1_555
N4 C20 1_555 1_555
C18 C20 1_555 1_555
C19 C22 1_555 1_555
C23 C24 1_555 1_555
C25 C27 1_555 1_555
C26 C31 1_555 1_555
O6 C36 1_555 1_555
O7 C33 1_555 1_555
O7 Cs1C 1_555 1_555
O8 Cs1C 1_555 1_555
B1 B14 1_555 1_555
B1 C40 1_555 1_555
B2 B5 1_555 1_555
B2 B13 1_555 1_555
B3 B10 1_555 1_555
B3 B16 1_555 1_555
B3 B17 1_555 1_555
B4 B18 1_555 1_555
B5 B14 1_555 1_555
B5 B17 1_555 1_555
B6 B8 1_555 1_555
B6 B11 1_555 1_555
B7 B9 1_555 1_555
B7 C37 1_555 1_555
B7 B15 1_555 1_555
B8 B12 1_555 1_555
B8 B15 1_555 1_555
B9 B11 1_555 1_555
B9 C37 1_555 1_555
B9 C38 1_555 1_555
B10 B13 1_555 1_555
B10 C39 1_555 1_555
B10 B16 1_555 1_555
B11 C38 1_555 1_555
B11 B18 1_555 1_555
B12 B15 1_555 1_555
B12 B18 1_555 1_555
C37 C38 1_555 1_555
C37 B15 1_555 1_555
C38 B18 1_555 1_555
B13 C39 1_555 1_555
B13 C40 1_555 1_555
B14 C40 1_555 1_555
B14 B17 1_555 1_555
C39 C40 1_555 1_555
C39 B16 1_555 1_555
B16 B17 1_555 1_555
C42 C44 1_555 1_555
C45 C46 1_555 1_555

#END
