
#######################################################################
#
#                 Cambridge Crystallographic Data Centre
#                                CCDC 
#
#######################################################################
#
# If this CIF has been generated from an entry in the Cambridge 
# Structural Database, then it will include bibliographic, chemical, 
# crystal, experimental, refinement or atomic coordinate data resulting 
# from the CCDC's data processing and validation procedures.
#
#######################################################################

data_YINQIX
_symmetry_cell_setting           monoclinic
_symmetry_space_group_name_H-M   'C 2/c'
_symmetry_Int_Tables_number      15
_space_group_name_Hall           '-C 2yn'
loop_
_symmetry_equiv_pos_site_id
_symmetry_equiv_pos_as_xyz
1 x,y,z
2 -x,y,1/2-z
3 1/2+x,1/2+y,z
4 1/2-x,1/2+y,1/2-z
5 -x,-y,-z
6 x,-y,1/2+z
7 1/2-x,1/2-y,-z
8 1/2+x,1/2-y,1/2+z
_cell_length_a                   20.788(4)
_cell_length_b                   9.4376(16)
_cell_length_c                   24.302(6)
_cell_angle_alpha                90
_cell_angle_beta                 114.416(5)
_cell_angle_gamma                90
_cell_volume                     4341.39
loop_
_atom_site_label
_atom_site_type_symbol
_atom_site_fract_x
_atom_site_fract_y
_atom_site_fract_z
O4 O -0.35159(17) -0.1682(4) -0.34337(16)
Cu1 Cu 0.0000 0.58591(7) 0.2500
O1 O 0.02334(16) 0.5790(4) 0.15880(14)
O2 O -0.03403(16) 0.0590(3) 0.14050(15)
N1 N -0.07431(15) 0.4321(3) 0.21330(14)
C1 C -0.1132(2) 0.2282(4) 0.14928(17)
C2 C -0.0626(2) 0.3242(4) 0.18246(18)
H1 H -0.0175 0.3142 0.1837
C3 C -0.1387(2) 0.4395(4) 0.21295(18)
H2 H -0.1475 0.5109 0.2353
C4 C -0.1921(2) 0.3484(4) 0.18176(19)
H3 H -0.2358 0.3570 0.1835
C5 C -0.1805(2) 0.2422(4) 0.14723(18)
H4 H -0.2169 0.1823 0.1234
C6 C -0.0927(2) 0.1141(4) 0.11686(18)
N2 N -0.07564(16) 0.2631(3) -0.28675(14)
O3 O -0.23148(15) -0.0521(3) -0.25227(14)
C7 C -0.15067(19) 0.0853(4) -0.27530(18)
C8 C -0.0902(2) 0.1656(4) -0.25365(18)
H5 H -0.0578 0.1516 -0.2140
C9 C -0.1211(2) 0.2792(5) -0.3447(2)
H6 H -0.1103 0.3435 -0.3687
C10 C -0.1829(2) 0.2039(5) -0.36983(19)
H7 H -0.2136 0.2167 -0.4102
C11 C -0.1988(2) 0.1096(4) -0.33446(18)
H8 H -0.2417 0.0618 -0.3500
C12 C -0.1686(2) -0.0237(4) -0.23894(19)
N3 N -0.14089(19) 0.0747(4) 0.06340(15)
H9 H -0.1829 0.1083 0.0519
N4 N -0.11610(18) -0.0881(4) -0.19480(15)
H10 H -0.0735 -0.0669 -0.1889
C13 C -0.1270(3) -0.0226(5) 0.0226(2)
H11 H -0.1673 -0.0846 0.0031
H12 H -0.0863 -0.0811 0.0456
C14 C -0.1134(3) 0.0576(6) -0.0242(3)
H13 H -0.0768 0.1272 -0.0040
H14 H -0.1560 0.1088 -0.0490
C15 C -0.0906(3) -0.0322(7) -0.0657(3)
H15 H -0.0755 0.0306 -0.0896
H16 H -0.0503 -0.0894 -0.0408
C16 C -0.1464(3) -0.1269(6) -0.1070(2)
H17 H -0.1897 -0.0731 -0.1265
H18 H -0.1551 -0.2016 -0.0836
C17 C -0.1272(3) -0.1939(5) -0.1555(2)
H19 H -0.0846 -0.2497 -0.1361
H20 H -0.1649 -0.2574 -0.1800
O1A O -0.02334(16) 0.5790(4) 0.34120(14)
O2A O 0.03403(16) 0.0590(3) 0.35950(15)
N1A N 0.07431(15) 0.4321(3) 0.28670(14)
C1A C 0.1132(2) 0.2282(4) 0.35072(17)
C2A C 0.0626(2) 0.3242(4) 0.31754(18)
H1A H 0.0175 0.3142 0.3163
C3A C 0.1387(2) 0.4395(4) 0.28705(18)
H2A H 0.1475 0.5109 0.2647
C4A C 0.1921(2) 0.3484(4) 0.31824(19)
H3A H 0.2358 0.3570 0.3165
C5A C 0.1805(2) 0.2422(4) 0.35277(18)
H4A H 0.2169 0.1823 0.3766
C6A C 0.0927(2) 0.1141(4) 0.38314(18)
N2A N 0.07564(16) 0.2631(3) 0.78675(14)
O3A O 0.23148(15) -0.0521(3) 0.75227(14)
C7A C 0.15067(19) 0.0853(4) 0.77530(18)
C8A C 0.0902(2) 0.1656(4) 0.75365(18)
H5A H 0.0578 0.1516 0.7140
C9A C 0.1211(2) 0.2792(5) 0.8447(2)
H6A H 0.1103 0.3435 0.8687
C10A C 0.1829(2) 0.2039(5) 0.86983(19)
H7A H 0.2136 0.2167 0.9102
C11A C 0.1988(2) 0.1096(4) 0.83446(18)
H8A H 0.2417 0.0618 0.8500
C12A C 0.1686(2) -0.0237(4) 0.73894(19)
N3A N 0.14089(19) 0.0747(4) 0.43660(15)
H9A H 0.1829 0.1083 0.4481
N4A N 0.11610(18) -0.0881(4) 0.69480(15)
H10A H 0.0735 -0.0669 0.6889
C13A C 0.1270(3) -0.0226(5) 0.4774(2)
H11A H 0.1673 -0.0846 0.4969
H12A H 0.0863 -0.0811 0.4544
C14A C 0.1134(3) 0.0576(6) 0.5242(3)
H13A H 0.0768 0.1272 0.5040
H14A H 0.1560 0.1088 0.5490
C15A C 0.0906(3) -0.0322(7) 0.5657(3)
H15A H 0.0755 0.0306 0.5896
H16A H 0.0503 -0.0894 0.5408
C16A C 0.1464(3) -0.1269(6) 0.6070(2)
H17A H 0.1897 -0.0731 0.6265
H18A H 0.1551 -0.2016 0.5836
C17A C 0.1272(3) -0.1939(5) 0.6555(2)
H19A H 0.0846 -0.2497 0.6361
H20A H 0.1649 -0.2574 0.6800
Cu1D Cu 0.0000 0.41409(7) -0.2500
Cu1D_2 Cu 0.0000 0.41409(7) 0.7500
N2D N 0.07564(16) 0.7369(3) 0.28675(14)
N2E N -0.07564(16) 0.7369(3) 0.21325(14)
loop_
_geom_bond_atom_site_label_1
_geom_bond_atom_site_label_2
_geom_bond_site_symmetry_1
_geom_bond_site_symmetry_2
Cu1 O1 1_555 1_555
O2 C6 1_555 1_555
N1 Cu1 1_555 1_555
C1 C2 1_555 1_555
C2 N1 1_555 1_555
H1 C2 1_555 1_555
C3 N1 1_555 1_555
H2 C3 1_555 1_555
C4 C3 1_555 1_555
H3 C4 1_555 1_555
C5 C1 1_555 1_555
H4 C5 1_555 1_555
C6 C1 1_555 1_555
N2 C8 1_555 1_555
O3 C12 1_555 1_555
C7 C8 1_555 1_555
C8 H5 1_555 1_555
C9 N2 1_555 1_555
H6 C9 1_555 1_555
C10 C9 1_555 1_555
H7 C10 1_555 1_555
C11 C7 1_555 1_555
H8 C11 1_555 1_555
C12 C7 1_555 1_555
N3 C6 1_555 1_555
H9 N3 1_555 1_555
N4 C12 1_555 1_555
H10 N4 1_555 1_555
C13 N3 1_555 1_555
H11 C13 1_555 1_555
H12 C13 1_555 1_555
C14 C13 1_555 1_555
H13 C14 1_555 1_555
H14 C14 1_555 1_555
C15 C14 1_555 1_555
H15 C15 1_555 1_555
H16 C15 1_555 1_555
C16 C15 1_555 1_555
H17 C16 1_555 1_555
H18 C16 1_555 1_555
C17 N4 1_555 1_555
H19 C17 1_555 1_555
H20 C17 1_555 1_555
O1A Cu1 1_555 1_555
O2A C6A 1_555 1_555
N1A Cu1 1_555 1_555
C1A C2A 1_555 1_555
C2A N1A 1_555 1_555
H1A C2A 1_555 1_555
C3A N1A 1_555 1_555
H2A C3A 1_555 1_555
C4A C3A 1_555 1_555
H3A C4A 1_555 1_555
C5A C1A 1_555 1_555
H4A C5A 1_555 1_555
C6A C1A 1_555 1_555
N2A C8A 1_555 1_555
O3A C12A 1_555 1_555
C7A C8A 1_555 1_555
C8A H5A 1_555 1_555
C9A N2A 1_555 1_555
H6A C9A 1_555 1_555
C10A C9A 1_555 1_555
H7A C10A 1_555 1_555
C11A C7A 1_555 1_555
H8A C11A 1_555 1_555
C12A C7A 1_555 1_555
N3A C6A 1_555 1_555
H9A N3A 1_555 1_555
N4A C12A 1_555 1_555
H10A N4A 1_555 1_555
C13A N3A 1_555 1_555
H11A C13A 1_555 1_555
H12A C13A 1_555 1_555
C14A C13A 1_555 1_555
H13A C14A 1_555 1_555
H14A C14A 1_555 1_555
C15A C14A 1_555 1_555
H15A C15A 1_555 1_555
H16A C15A 1_555 1_555
C16A C15A 1_555 1_555
H17A C16A 1_555 1_555
H18A C16A 1_555 1_555
C17A N4A 1_555 1_555
H19A C17A 1_555 1_555
H20A C17A 1_555 1_555
Cu1D N2 1_555 1_555
Cu1D_2 N2A 1_555 1_555
N2D Cu1 1_555 1_555
N2E Cu1 1_555 1_555
C4 C5 1_555 1_555
C10 C11 1_555 1_555
C16 C17 1_555 1_555
C4A C5A 1_555 1_555
C10A C11A 1_555 1_555
C16A C17A 1_555 1_555

#END
