
#######################################################################
#
#                 Cambridge Crystallographic Data Centre
#                                CCDC 
#
#######################################################################
#
# If this CIF has been generated from an entry in the Cambridge 
# Structural Database, then it will include bibliographic, chemical, 
# crystal, experimental, refinement or atomic coordinate data resulting 
# from the CCDC's data processing and validation procedures.
#
#######################################################################

data_YINQAP
_symmetry_cell_setting           monoclinic
_symmetry_space_group_name_H-M   'C 2/c'
_symmetry_Int_Tables_number      15
_space_group_name_Hall           '-C 2yn'
loop_
_symmetry_equiv_pos_site_id
_symmetry_equiv_pos_as_xyz
1 x,y,z
2 -x,y,1/2-z
3 1/2+x,1/2+y,z
4 1/2-x,1/2+y,1/2-z
5 -x,-y,-z
6 x,-y,1/2+z
7 1/2-x,1/2-y,-z
8 1/2+x,1/2-y,1/2+z
_cell_length_a                   28.150(3)
_cell_length_b                   7.2986(7)
_cell_length_c                   19.3436(19)
_cell_angle_alpha                90
_cell_angle_beta                 120.267(2)
_cell_angle_gamma                90
_cell_volume                     3432.5
loop_
_atom_site_label
_atom_site_type_symbol
_atom_site_fract_x
_atom_site_fract_y
_atom_site_fract_z
Co1 Co 0.0000 0.05518(6) 0.2500
O1 O 0.00032(7) 0.2673(2) 0.32526(10)
O2 O -0.06787(7) -0.1945(3) -0.11901(10)
O3 O -0.34270(8) -0.0445(3) -0.21636(14)
N1 N -0.40941(8) 0.4285(3) -0.18685(12)
N2 N -0.00228(8) -0.1304(3) 0.16075(12)
C1 C -0.32944(10) 0.2480(3) -0.15622(15)
C2 C -0.38587(10) 0.2737(3) -0.19220(14)
H1 H -0.4088 0.1775 -0.2219
C3 C -0.31901(11) 0.5508(4) -0.10356(18)
H2 H -0.2970 0.6477 -0.0730
C4 C -0.37564(11) 0.5652(3) -0.14280(15)
H3 H -0.3911 0.6742 -0.1386
C5 C -0.29559(11) 0.3908(4) -0.11032(17)
H4 H -0.2575 0.3787 -0.0844
C6 C -0.30996(11) 0.0690(4) -0.17089(16)
C7 C -0.03296(10) -0.1645(3) 0.02069(14)
C8 C -0.03616(10) -0.0883(3) 0.08375(14)
H5 H -0.0636 -0.0024 0.0718
C9 C 0.03673(11) -0.2558(3) 0.17672(15)
H6 H 0.0597 -0.2905 0.2297
C10 C 0.04460(11) -0.3360(4) 0.11868(15)
H7 H 0.0728 -0.4199 0.1322
C11 C 0.00924(11) -0.2878(3) 0.03976(16)
H8 H 0.0138 -0.3384 -0.0006
C12 C -0.07323(10) -0.1235(3) -0.06563(14)
N3 N -0.25561(9) 0.0407(3) -0.13250(15)
H9 H -0.2343 0.1248 -0.1010
N4 N -0.11481(9) -0.0111(3) -0.08196(12)
H10 H -0.1163 0.0379 -0.0426
C13 C -0.23090(11) -0.1251(4) -0.14155(18)
H11 H -0.2588 -0.2199 -0.1641
H12 H -0.2026 -0.1660 -0.0890
C14 C -0.20560(11) -0.1033(4) -0.19405(16)
H13 H -0.2341 -0.0644 -0.2468
H14 H -0.1925 -0.2221 -0.1998
C15 C -0.15801(12) 0.0332(4) -0.16303(16)
H15 H -0.1428 0.0324 -0.1982
H16 H -0.1717 0.1555 -0.1638
O1A O -0.00032(7) 0.2673(2) 0.17474(10)
O2A O 0.06787(7) -0.1945(3) 0.61901(10)
O3A O 0.34270(8) -0.0445(3) 0.71636(14)
N1A N 0.40941(8) 0.4285(3) 0.68685(12)
N2A N 0.00228(8) -0.1304(3) 0.33925(12)
C1A C 0.32944(10) 0.2480(3) 0.65622(15)
C2A C 0.38587(10) 0.2737(3) 0.69220(14)
H1A H 0.4088 0.1775 0.7219
C3A C 0.31901(11) 0.5508(4) 0.60356(18)
H2A H 0.2970 0.6477 0.5730
C4A C 0.37564(11) 0.5652(3) 0.64280(15)
H3A H 0.3911 0.6742 0.6386
C5A C 0.29559(11) 0.3908(4) 0.61032(17)
H4A H 0.2575 0.3787 0.5844
C6A C 0.30996(11) 0.0690(4) 0.67089(16)
C7A C 0.03296(10) -0.1645(3) 0.47931(14)
C8A C 0.03616(10) -0.0883(3) 0.41625(14)
H5A H 0.0636 -0.0024 0.4282
C9A C -0.03673(11) -0.2558(3) 0.32328(15)
H6A H -0.0597 -0.2905 0.2703
C10A C -0.04460(11) -0.3360(4) 0.38132(15)
H7A H -0.0728 -0.4199 0.3678
C11A C -0.00924(11) -0.2878(3) 0.46024(16)
H8A H -0.0138 -0.3384 0.5006
C12A C 0.07323(10) -0.1235(3) 0.56563(14)
N3A N 0.25561(9) 0.0407(3) 0.63250(15)
H9A H 0.2343 0.1248 0.6010
N4A N 0.11481(9) -0.0111(3) 0.58196(12)
H10A H 0.1163 0.0379 0.5426
C13A C 0.23090(11) -0.1251(4) 0.64155(18)
H11A H 0.2588 -0.2199 0.6641
H12A H 0.2026 -0.1660 0.5890
C14A C 0.20560(11) -0.1033(4) 0.69405(16)
H13A H 0.2341 -0.0644 0.7468
H14A H 0.1925 -0.2221 0.6998
C15A C 0.15801(12) 0.0332(4) 0.66303(16)
H15A H 0.1428 0.0324 0.6982
H16A H 0.1717 0.1555 0.6638
Co1F Co -0.5000 0.44482(6) -0.2500
Co1F_2 Co 0.5000 0.44482(6) 0.7500
N1F N -0.09059(8) 0.0715(3) 0.18685(12)
N1G N 0.09059(8) 0.0715(3) 0.31315(12)
Cl1 Cl -0.13638(3) 0.45263(9) 0.00507(4)
O4 O -0.14814(10) 0.2599(3) 0.00195(13)
O5 O -0.17489(10) 0.5525(3) 0.01595(16)
O6 O -0.08339(10) 0.4893(4) 0.0729(2)
O7 O -0.13906(17) 0.5096(5) -0.0666(2)
loop_
_geom_bond_atom_site_label_1
_geom_bond_atom_site_label_2
_geom_bond_site_symmetry_1
_geom_bond_site_symmetry_2
Co1 O1 1_555 1_555
O2 C12 1_555 1_555
O3 C6 1_555 1_555
N1 C2 1_555 1_555
N2 Co1 1_555 1_555
C1 C2 1_555 1_555
C2 H1 1_555 1_555
C3 H2 1_555 1_555
C4 N1 1_555 1_555
H3 C4 1_555 1_555
C5 C1 1_555 1_555
H4 C5 1_555 1_555
C6 C1 1_555 1_555
C7 C8 1_555 1_555
C8 N2 1_555 1_555
H5 C8 1_555 1_555
C9 N2 1_555 1_555
H6 C9 1_555 1_555
C10 C9 1_555 1_555
H7 C10 1_555 1_555
C11 C7 1_555 1_555
H8 C11 1_555 1_555
C12 C7 1_555 1_555
N3 C6 1_555 1_555
H9 N3 1_555 1_555
N4 C12 1_555 1_555
H10 N4 1_555 1_555
C13 N3 1_555 1_555
H11 C13 1_555 1_555
H12 C13 1_555 1_555
C14 C13 1_555 1_555
H13 C14 1_555 1_555
H14 C14 1_555 1_555
C15 N4 1_555 1_555
H15 C15 1_555 1_555
H16 C15 1_555 1_555
Cl1 O4 1_555 1_555
O5 Cl1 1_555 1_555
O6 Cl1 1_555 1_555
O7 Cl1 1_555 1_555
O1A Co1 1_555 1_555
O2A C12A 1_555 1_555
O3A C6A 1_555 1_555
N1A C2A 1_555 1_555
N2A Co1 1_555 1_555
C1A C2A 1_555 1_555
C2A H1A 1_555 1_555
C3A H2A 1_555 1_555
C4A N1A 1_555 1_555
H3A C4A 1_555 1_555
C5A C1A 1_555 1_555
H4A C5A 1_555 1_555
C6A C1A 1_555 1_555
C7A C8A 1_555 1_555
C8A N2A 1_555 1_555
H5A C8A 1_555 1_555
C9A N2A 1_555 1_555
H6A C9A 1_555 1_555
C10A C9A 1_555 1_555
H7A C10A 1_555 1_555
C11A C7A 1_555 1_555
H8A C11A 1_555 1_555
C12A C7A 1_555 1_555
N3A C6A 1_555 1_555
H9A N3A 1_555 1_555
N4A C12A 1_555 1_555
H10A N4A 1_555 1_555
C13A N3A 1_555 1_555
H11A C13A 1_555 1_555
H12A C13A 1_555 1_555
C14A C13A 1_555 1_555
H13A C14A 1_555 1_555
H14A C14A 1_555 1_555
C15A N4A 1_555 1_555
H15A C15A 1_555 1_555
H16A C15A 1_555 1_555
Co1F N1 1_555 1_555
Co1F_2 N1A 1_555 1_555
N1F Co1 1_555 1_555
N1G Co1 1_555 1_555
C3 C4 1_555 1_555
C3 C5 1_555 1_555
C10 C11 1_555 1_555
C14 C15 1_555 1_555
C3A C4A 1_555 1_555
C3A C5A 1_555 1_555
C10A C11A 1_555 1_555
C14A C15A 1_555 1_555

#END
