
#######################################################################
#
#                 Cambridge Crystallographic Data Centre
#                                CCDC 
#
#######################################################################
#
# If this CIF has been generated from an entry in the Cambridge 
# Structural Database, then it will include bibliographic, chemical, 
# crystal, experimental, refinement or atomic coordinate data resulting 
# from the CCDC's data processing and validation procedures.
#
#######################################################################

data_YINTOG
_symmetry_cell_setting           monoclinic
_symmetry_space_group_name_H-M   'P 21/c'
_symmetry_Int_Tables_number      14
_space_group_name_Hall           '-P 2ybc'
loop_
_symmetry_equiv_pos_site_id
_symmetry_equiv_pos_as_xyz
1 x,y,z
2 -x,1/2+y,1/2-z
3 -x,-y,-z
4 x,1/2-y,1/2+z
_cell_length_a                   14.3611(5)
_cell_length_b                   12.8622(4)
_cell_length_c                   15.1403(5)
_cell_angle_alpha                90
_cell_angle_beta                 96.862(3)
_cell_angle_gamma                90
_cell_volume                     2776.61
loop_
_atom_site_label
_atom_site_type_symbol
_atom_site_fract_x
_atom_site_fract_y
_atom_site_fract_z
Zn1 Zn 0.77133(2) 0.35111(3) 0.11101(2)
Zn2 Zn 0.75139(3) 0.25803(3) 0.41537(2)
O1 O 0.77411(15) 0.45226(17) 0.20676(13)
O2 O 0.78903(19) 0.1185(2) 0.39006(15)
O3 O 0.74927(17) 0.3287(2) 0.30169(14)
C1 C 0.6376(2) 0.5562(2) 0.32671(19)
O4 O 0.83270(18) 0.0640(2) 0.52792(15)
O5 O 0.36256(16) 0.8286(2) 0.42258(17)
C2 C 0.5202(2) 0.6747(3) 0.3916(2)
C3 C 0.9124(2) -0.0052(3) 0.1612(2)
C4 C 0.7365(2) 0.5086(3) 0.34658(19)
H1 H 0.7829 0.5631 0.3443
H2 H 0.7439 0.4804 0.4064
O6 O 0.84383(18) 0.22388(19) 0.13205(16)
O7 O 0.36992(18) 0.7287(2) 0.54287(17)
C5 C 0.7549(2) 0.4241(3) 0.28254(19)
C6 C 0.6190(2) 0.6258(3) 0.4054(2)
H3 H 0.6656 0.6808 0.4126
H4 H 0.6255 0.5848 0.4595
C7 C 0.8307(2) 0.0568(3) 0.4448(2)
C8 C 0.8815(2) -0.0612(3) 0.3155(2)
C9 C 0.9116(2) 0.0280(2) 0.2587(2)
H5 H 0.9738 0.0512 0.2825
H6 H 0.8688 0.0860 0.2613
O8 O 0.8477(2) 0.1693(2) -0.00730(16)
C10 C 0.9508(3) -0.1518(3) 0.3100(2)
H7 H 1.0133 -0.1299 0.3341
H8 H 0.9328 -0.2097 0.3454
C11 C 0.7834(2) -0.0985(3) 0.2765(2)
H9 H 0.7640 -0.1556 0.3120
H10 H 0.7386 -0.0423 0.2786
C12 C 0.9515(3) -0.1868(3) 0.2137(2)
H11 H 0.9961 -0.2441 0.2117
C13 C 0.8862(3) -0.0340(3) 0.4143(2)
H12 H 0.8673 -0.0954 0.4447
H13 H 0.9516 -0.0216 0.4359
C14 C 0.8734(2) 0.1655(3) 0.0752(2)
C15 C 0.7842(3) -0.1342(3) 0.1800(3)
H14 H 0.7213 -0.1576 0.1561
C16 C 0.9812(2) -0.0966(3) 0.1589(2)
H15 H 0.9829 -0.1188 0.0979
H16 H 1.0438 -0.0742 0.1825
C17 C 0.9455(2) 0.0839(3) 0.1047(2)
H17 H 0.9985 0.1178 0.1388
H18 H 0.9677 0.0541 0.0523
C18 C 0.5286(3) 0.6702(4) 0.2268(2)
H19 H 0.5228 0.7125 0.1726
C19 C 0.5631(2) 0.4709(3) 0.3166(3)
H20 H 0.5688 0.4282 0.3697
H21 H 0.5728 0.4268 0.2665
C20 C 0.4056(2) 0.7695(3) 0.4803(2)
C21 C 0.8134(2) -0.0439(3) 0.1249(2)
H22 H 0.7687 0.0125 0.1263
H23 H 0.8130 -0.0658 0.0635
C22 C 0.4482(2) 0.5873(3) 0.3802(2)
H24 H 0.3856 0.6166 0.3703
H25 H 0.4527 0.5457 0.4340
C23 C 0.6275(3) 0.6228(3) 0.2424(2)
H26 H 0.6385 0.5804 0.1918
H27 H 0.6738 0.6780 0.2485
C24 C 0.4651(2) 0.5188(3) 0.3016(3)
H28 H 0.4184 0.4628 0.2956
C25 C 0.5070(2) 0.7431(3) 0.4725(3)
H29 H 0.5332 0.7073 0.5261
H30 H 0.5418 0.8072 0.4684
C26 C 0.8538(3) -0.2238(3) 0.1764(3)
H31 H 0.8353 -0.2820 0.2112
H32 H 0.8540 -0.2468 0.1154
C27 C 0.5111(3) 0.7380(3) 0.3060(3)
H33 H 0.5560 0.7947 0.3121
H34 H 0.4487 0.7678 0.2956
C28 C 0.4552(3) 0.5830(4) 0.2167(3)
H35 H 0.3927 0.6125 0.2062
H36 H 0.4649 0.5392 0.1664
Zn1A Zn 0.22867(2) 0.85111(3) 0.38899(2)
Zn1C Zn 0.77133(2) 0.14889(3) 0.61101(2)
Zn2B Zn 0.24861(3) 0.74197(3) 0.58463(2)
Zn2C Zn 0.75139(3) 0.24197(3) -0.08463(2)
O4C O 0.83270(18) 0.4360(2) 0.02792(15)
O5A O 0.63744(16) 0.3286(2) 0.07742(17)
O7B O 0.63008(18) 0.2713(2) 0.45713(17)
O8C O 0.8477(2) 0.3307(2) 0.49270(16)
loop_
_geom_bond_atom_site_label_1
_geom_bond_atom_site_label_2
_geom_bond_site_symmetry_1
_geom_bond_site_symmetry_2
Zn1 O1 1_555 1_555
Zn2 O2 1_555 1_555
O1 C5 1_555 1_555
O2 C7 1_555 1_555
O3 Zn2 1_555 1_555
C1 C4 1_555 1_555
O4 C7 1_555 1_555
O5 C20 1_555 1_555
C2 C6 1_555 1_555
C3 C9 1_555 1_555
C4 H1 1_555 1_555
H2 C4 1_555 1_555
O6 Zn1 1_555 1_555
O7 C20 1_555 1_555
C5 O3 1_555 1_555
C6 C1 1_555 1_555
H3 C6 1_555 1_555
H4 C6 1_555 1_555
C7 C13 1_555 1_555
C8 C9 1_555 1_555
C9 H5 1_555 1_555
H6 C9 1_555 1_555
O8 C14 1_555 1_555
C10 C8 1_555 1_555
H7 C10 1_555 1_555
H8 C10 1_555 1_555
C11 C8 1_555 1_555
H9 C11 1_555 1_555
H10 C11 1_555 1_555
C12 C10 1_555 1_555
H11 C12 1_555 1_555
C13 C8 1_555 1_555
H12 C13 1_555 1_555
H13 C13 1_555 1_555
C14 O6 1_555 1_555
C15 C11 1_555 1_555
H14 C15 1_555 1_555
C16 C3 1_555 1_555
H15 C16 1_555 1_555
H16 C16 1_555 1_555
C17 C3 1_555 1_555
H17 C17 1_555 1_555
H18 C17 1_555 1_555
C18 H19 1_555 1_555
C19 C1 1_555 1_555
H20 C19 1_555 1_555
H21 C19 1_555 1_555
C20 C25 1_555 1_555
C21 C3 1_555 1_555
H22 C21 1_555 1_555
H23 C21 1_555 1_555
C22 C2 1_555 1_555
H24 C22 1_555 1_555
H25 C22 1_555 1_555
C23 C1 1_555 1_555
H26 C23 1_555 1_555
H27 C23 1_555 1_555
C24 C19 1_555 1_555
H28 C24 1_555 1_555
C25 C2 1_555 1_555
H29 C25 1_555 1_555
H30 C25 1_555 1_555
C26 C12 1_555 1_555
H31 C26 1_555 1_555
H32 C26 1_555 1_555
C27 C2 1_555 1_555
H33 C27 1_555 1_555
H34 C27 1_555 1_555
C28 C18 1_555 1_555
H35 C28 1_555 1_555
H36 C28 1_555 1_555
Zn1A O5 1_555 1_555
Zn1C O4 1_555 1_555
Zn2B O7 1_555 1_555
Zn2C O8 1_555 1_555
O4C Zn1 1_555 1_555
O5A Zn1 1_555 1_555
O7B Zn2 1_555 1_555
O8C Zn2 1_555 1_555
C4 C5 1_555 1_555
C12 C16 1_555 1_555
C14 C17 1_555 1_555
C15 C21 1_555 1_555
C15 C26 1_555 1_555
C18 C23 1_555 1_555
C18 C27 1_555 1_555
C22 C24 1_555 1_555
C24 C28 1_555 1_555

#END
