
#######################################################################
#
#                 Cambridge Crystallographic Data Centre
#                                CCDC 
#
#######################################################################
#
# If this CIF has been generated from an entry in the Cambridge 
# Structural Database, then it will include bibliographic, chemical, 
# crystal, experimental, refinement or atomic coordinate data resulting 
# from the CCDC's data processing and validation procedures.
#
#######################################################################

data_YINTIA
_symmetry_cell_setting           triclinic
_symmetry_space_group_name_H-M   'P -1'
_symmetry_Int_Tables_number      2
_space_group_name_Hall           '-P 1'
loop_
_symmetry_equiv_pos_site_id
_symmetry_equiv_pos_as_xyz
1 x,y,z
2 -x,-y,-z
_cell_length_a                   11.0142(3)
_cell_length_b                   13.8001(5)
_cell_length_c                   13.9728(4)
_cell_angle_alpha                109.523(3)
_cell_angle_beta                 108.236(3)
_cell_angle_gamma                93.482(3)
_cell_volume                     1868.49
loop_
_atom_site_label
_atom_site_type_symbol
_atom_site_fract_x
_atom_site_fract_y
_atom_site_fract_z
Fe1 Fe 0.22528(4) 0.77359(4) 0.38489(4)
N1 N 0.4969(3) 0.8626(3) 0.5587(3)
N2 N 0.2173(4) 0.9895(3) 0.3721(3)
N3 N 0.0812(3) 0.8326(3) 0.5460(3)
C1 C 0.3927(3) 0.8355(3) 0.4971(3)
C2 C 0.2142(3) 0.9077(3) 0.3753(3)
C3 C 0.1396(3) 0.8115(3) 0.4890(3)
N4 N 0.0575(3) 0.7028(2) 0.2664(3)
N5 N 0.0491(3) 0.6059(3) 0.1938(3)
N6 N 0.3058(3) 0.7362(3) 0.2727(3)
N7 N 0.2749(3) 0.6361(3) 0.1988(3)
N8 N 0.2500(3) 0.6392(2) 0.4029(3)
N9 N 0.2223(3) 0.5498(2) 0.3138(3)
B1 B 0.1716(4) 0.5564(3) 0.2013(4)
H1 H 0.1588(7) 0.478(3) 0.133(3)
C4 C -0.0613(3) 0.7287(3) 0.2407(3)
H2 H -0.0829 0.7928 0.2773
C5 C -0.1475(4) 0.6448(4) 0.1507(4)
H3 H -0.2379 0.6405 0.1158
C6 C -0.0750(4) 0.5709(3) 0.1236(4)
H4 H -0.1065 0.5052 0.0649
C7 C 0.3903(4) 0.7899(3) 0.2493(4)
H5 H 0.4285 0.8618 0.2883
C8 C 0.4138(4) 0.7244(4) 0.1593(4)
H6 H 0.4691 0.7423 0.1251
C9 C 0.3396(4) 0.6285(4) 0.1304(4)
H7 H 0.3350 0.5668 0.0716
C10 C 0.2953(4) 0.6133(3) 0.4898(4)
H8 H 0.3223 0.6607 0.5631
C11 C 0.2972(5) 0.5066(4) 0.4573(4)
H9 H 0.3248 0.4678 0.5025
C12 C 0.2501(4) 0.4690(3) 0.3452(4)
H10 H 0.2393 0.3985 0.2983
Cu1 Cu 0.68196(4) 0.87128(3) 0.64605(4)
Cu2 Cu 0.97027(4) 0.86071(4) 0.63727(4)
Cu3 Cu 0.93056(4) 0.99820(3) 0.87288(4)
N10 N 0.8240(3) 0.7584(3) 0.5196(3)
N11 N 0.7026(3) 0.7637(2) 0.5227(3)
N12 N 0.6524(3) 0.9471(3) 0.7792(3)
N13 N 0.7546(3) 0.9956(2) 0.8741(3)
N14 N 1.0874(3) 1.0320(2) 0.8451(3)
N15 N 1.0989(3) 0.9814(3) 0.7477(3)
O1 O 0.8681(2) 0.87439(19) 0.7347(2)
H11 H 0.8761 0.8246 0.7555
O2 O 1.0027(2) 1.1044(2) 1.0226(2)
O3 O 1.0549(3) 1.2597(2) 1.1552(3)
C13 C 0.8138(4) 0.6868(4) 0.4242(4)
H12 H 0.8848 0.6680 0.4017
C14 C 0.6836(4) 0.6436(3) 0.3627(3)
H13 H 0.6483 0.5909 0.2918
C15 C 0.6174(4) 0.6943(3) 0.4276(3)
H14 H 0.5256 0.6822 0.4083
C16 C 0.5428(4) 0.9646(3) 0.7997(4)
H15 H 0.4575 0.9398 0.7470
C17 C 0.5720(4) 1.0236(4) 0.9083(4)
H16 H 0.5132 1.0464 0.9447
C18 C 0.7066(4) 1.0421(3) 0.9522(4)
H17 H 0.7573 1.0815 1.0261
C19 C 1.1906(3) 1.1087(3) 0.9046(4)
H18 H 1.2069 1.1557 0.9766
C20 C 1.2714(4) 1.1095(3) 0.8447(4)
H19 H 1.3509 1.1558 0.8666
C21 C 1.2095(4) 1.0280(3) 0.7472(4)
H20 H 1.2402 1.0076 0.6882
C22 C 1.0034(4) 1.2026(3) 1.0561(3)
C23 C 0.9391(4) 1.2492(3) 0.9756(4)
H21 H 0.8497 1.2534 0.9732
H22 H 0.9377 1.2053 0.9036
H23 H 0.9875 1.3196 0.9970
N2A N 0.7827(4) 1.0105(3) 0.6279(3)
N3_2 N 1.0812(3) 0.8326(3) 0.5460(3)
Cu1A Cu 0.31804(4) 1.12872(3) 0.35395(4)
Cu2_2 Cu -0.02973(4) 0.86071(4) 0.63727(4)
Cu3A Cu 1.06944(4) 1.00180(3) 1.12712(4)
O2A O 0.9973(2) 0.8956(2) 0.9774(2)
O4 O 1.0678(8) 0.7270(7) 0.7084(7)
C24 C 1.0677(12) 0.6326(8) 0.6383(11)
C25 C 1.1045(14) 0.5619(9) 0.6931(11)
O5 O 1.1354(13) 0.6153(9) 0.8015(11)
loop_
_geom_bond_atom_site_label_1
_geom_bond_atom_site_label_2
_geom_bond_site_symmetry_1
_geom_bond_site_symmetry_2
Fe1 C1 1_555 1_555
N1 C1 1_555 1_555
N2 C2 1_555 1_555
N3 C3 1_555 1_555
C2 Fe1 1_555 1_555
C3 Fe1 1_555 1_555
N4 Fe1 1_555 1_555
N5 N4 1_555 1_555
N6 Fe1 1_555 1_555
N7 N6 1_555 1_555
N8 Fe1 1_555 1_555
N9 N8 1_555 1_555
B1 N5 1_555 1_555
H1 B1 1_555 1_555
C4 N4 1_555 1_555
H2 C4 1_555 1_555
C5 C4 1_555 1_555
H3 C5 1_555 1_555
C6 N5 1_555 1_555
H4 C6 1_555 1_555
C7 N6 1_555 1_555
H5 C7 1_555 1_555
C8 C7 1_555 1_555
H6 C8 1_555 1_555
C9 N7 1_555 1_555
H7 C9 1_555 1_555
C10 N8 1_555 1_555
H8 C10 1_555 1_555
C11 C10 1_555 1_555
H9 C11 1_555 1_555
C12 N9 1_555 1_555
H10 C12 1_555 1_555
Cu1 N1 1_555 1_555
Cu2 N10 1_555 1_555
Cu3 N13 1_555 1_555
N10 N11 1_555 1_555
N11 Cu1 1_555 1_555
N12 Cu1 1_555 1_555
N13 N12 1_555 1_555
N14 Cu3 1_555 1_555
N15 Cu2 1_555 1_555
O1 Cu1 1_555 1_555
H11 O1 1_555 1_555
O2 Cu3 1_555 1_555
O3 C22 1_555 1_555
C13 N10 1_555 1_555
H12 C13 1_555 1_555
C14 C13 1_555 1_555
H13 C14 1_555 1_555
C15 N11 1_555 1_555
H14 C15 1_555 1_555
C16 N12 1_555 1_555
H15 C16 1_555 1_555
C17 C16 1_555 1_555
H16 C17 1_555 1_555
C18 N13 1_555 1_555
H17 C18 1_555 1_555
C19 N14 1_555 1_555
H18 C19 1_555 1_555
C20 C19 1_555 1_555
H19 C20 1_555 1_555
C21 N15 1_555 1_555
H20 C21 1_555 1_555
C22 O2 1_555 1_555
C23 C22 1_555 1_555
H21 C23 1_555 1_555
H22 C23 1_555 1_555
H23 C23 1_555 1_555
C24 C25 1_555 1_555
C25 O5 1_555 1_555
N2A Cu1 1_555 1_555
N3_2 Cu2 1_555 1_555
Cu1A N2 1_555 1_555
Cu2_2 N3 1_555 1_555
Cu3A O2 1_555 1_555
O2A Cu3 1_555 1_555
N7 B1 1_555 1_555
N9 B1 1_555 1_555
C5 C6 1_555 1_555
C8 C9 1_555 1_555
C11 C12 1_555 1_555
Cu2 O1 1_555 1_555
Cu3 O1 1_555 1_555
N14 N15 1_555 1_555
C14 C15 1_555 1_555
C17 C18 1_555 1_555
C20 C21 1_555 1_555
Cu3A O2A 1_555 1_555

#END
