
#######################################################################
#
#                 Cambridge Crystallographic Data Centre
#                                CCDC 
#
#######################################################################
#
# If this CIF has been generated from an entry in the Cambridge 
# Structural Database, then it will include bibliographic, chemical, 
# crystal, experimental, refinement or atomic coordinate data resulting 
# from the CCDC's data processing and validation procedures.
#
#######################################################################

data_YINTUM
_symmetry_cell_setting           triclinic
_symmetry_space_group_name_H-M   'P -1'
_symmetry_Int_Tables_number      2
_space_group_name_Hall           '-P 1'
loop_
_symmetry_equiv_pos_site_id
_symmetry_equiv_pos_as_xyz
1 x,y,z
2 -x,-y,-z
_cell_length_a                   7.9641(2)
_cell_length_b                   9.8799(2)
_cell_length_c                   14.3577(3)
_cell_angle_alpha                89.3256(7)
_cell_angle_beta                 79.2529(7)
_cell_angle_gamma                69.5388(6)
_cell_volume                     1038.14
loop_
_atom_site_label
_atom_site_type_symbol
_atom_site_fract_x
_atom_site_fract_y
_atom_site_fract_z
Cl1 Cl 0.67201(10) 1.24702(7) 1.16719(5)
O1 O 0.7145(5) 1.3012(4) 1.24729(19)
O2 O 0.5345(4) 1.3623(3) 1.13267(19)
O3 O 0.8327(4) 1.1985(3) 1.09281(19)
O4 O 0.6074(4) 1.1314(3) 1.1917(2)
Ag1 Ag 0.71533(3) 1.42114(2) 0.954116(14)
N1 N 0.7044(3) 1.2541(3) 0.86340(16)
N2 N -0.2453(3) 1.5878(3) 0.03315(17)
C1 C 0.7823(4) 1.1122(3) 0.8762(2)
H1 H 0.8444 1.0846 0.9277
C2 C 0.7755(4) 1.0057(3) 0.8179(2)
H2 H 0.8326 0.9066 0.8288
C3 C 0.6843(4) 1.0450(3) 0.7432(2)
H3 H 0.6752 0.9731 0.7031
C4 C 0.6060(4) 1.1915(3) 0.72745(19)
C5 C 0.6199(4) 1.2920(3) 0.78973(19)
H4 H 0.5671 1.3920 0.7796
C6 C 0.5131(4) 1.2426(3) 0.6513(2)
C7 C 0.4364(4) 1.2938(3) 0.5873(2)
C8 C 0.3449(4) 1.3598(3) 0.5127(2)
C9 C 0.3379(5) 1.2749(4) 0.4371(2)
H5 H 0.3962 1.1728 0.4345
C10 C 0.2464(5) 1.3395(4) 0.3662(2)
H6 H 0.2426 1.2814 0.3150
C11 C 0.1595(4) 1.4896(3) 0.3694(2)
C12 C 0.1693(4) 1.5739(3) 0.4442(2)
H7 H 0.1123 1.6761 0.4463
C13 C 0.2608(4) 1.5102(3) 0.5147(2)
H8 H 0.2669 1.5688 0.5651
C14 C 0.0587(4) 1.5528(3) 0.2973(2)
C15 C -0.0270(4) 1.6005(3) 0.2358(2)
C16 C -0.3008(4) 1.7280(3) 0.0117(2)
H9 H -0.3602 1.7549 -0.0408
C17 C -0.2749(4) 1.8331(3) 0.0627(2)
H10 H -0.3172 1.9310 0.0460
C18 C -0.1862(4) 1.7952(3) 0.1390(2)
H11 H -0.1677 1.8665 0.1755
C19 C -0.1247(4) 1.6495(3) 0.16087(19)
C20 C -0.1588(4) 1.5510(3) 0.1066(2)
H12 H -0.1192 1.4524 0.1219
Ag1_2 Ag -0.28467(3) 1.42114(2) -0.045884(14)
N2_2 N 0.7547(3) 1.5878(3) 1.03315(17)
C21? C -0.0408(15) 1.9897(12) 0.4558(7)
H13? H -0.0598 2.0942 0.4598
H14? H 0.0869 1.9408 0.4221
C22? C -0.1594(9) 1.9741(8) 0.3874(5)
H15? H -0.1271 2.0149 0.3271
H16? H -0.2884 2.0259 0.4152
H17? H -0.1390 1.8714 0.3761
C23? C -0.1167(11) 2.0874(9) 0.4146(6)
H18? H -0.2192 2.1494 0.4595
H19? H -0.0987 2.1424 0.3605
O5? O 0.0437(10) 2.0507(8) 0.4564(6)
loop_
_geom_bond_atom_site_label_1
_geom_bond_atom_site_label_2
_geom_bond_site_symmetry_1
_geom_bond_site_symmetry_2
Ag1 N1 1_555 1_555
N1 C1 1_555 1_555
N2 C16 1_555 1_555
C1 H1 1_555 1_555
C2 C1 1_555 1_555
H2 C2 1_555 1_555
C3 C2 1_555 1_555
H3 C3 1_555 1_555
C4 C3 1_555 1_555
C5 N1 1_555 1_555
H4 C5 1_555 1_555
C6 C4 1_555 1_555
C7 C6 1_555 1_555
C8 C7 1_555 1_555
C9 C8 1_555 1_555
H5 C9 1_555 1_555
C10 C9 1_555 1_555
H6 C10 1_555 1_555
C11 C10 1_555 1_555
C12 C11 1_555 1_555
H7 C12 1_555 1_555
C13 C8 1_555 1_555
H8 C13 1_555 1_555
C14 C11 1_555 1_555
C15 C14 1_555 1_555
C16 H9 1_555 1_555
C17 C16 1_555 1_555
H10 C17 1_555 1_555
C18 C17 1_555 1_555
H11 C18 1_555 1_555
C19 C15 1_555 1_555
C20 N2 1_555 1_555
H12 C20 1_555 1_555
Cl1 O1 1_555 1_555
O2 Cl1 1_555 1_555
O3 Cl1 1_555 1_555
O4 Cl1 1_555 1_555
Ag1_2 N2 1_555 1_555
N2_2 Ag1 1_555 1_555
C4 C5 1_555 1_555
C12 C13 1_555 1_555
C18 C19 1_555 1_555
C19 C20 1_555 1_555

#END
