
#######################################################################
#
#                 Cambridge Crystallographic Data Centre
#                                CCDC 
#
#######################################################################
#
# If this CIF has been generated from an entry in the Cambridge 
# Structural Database, then it will include bibliographic, chemical, 
# crystal, experimental, refinement or atomic coordinate data resulting 
# from the CCDC's data processing and validation procedures.
#
#######################################################################

data_YINVEY
_symmetry_cell_setting           triclinic
_symmetry_space_group_name_H-M   'P -1'
_symmetry_Int_Tables_number      2
_space_group_name_Hall           '-P 1'
loop_
_symmetry_equiv_pos_site_id
_symmetry_equiv_pos_as_xyz
1 x,y,z
2 -x,-y,-z
_cell_length_a                   7.4996(3)
_cell_length_b                   9.6870(4)
_cell_length_c                   15.6202(5)
_cell_angle_alpha                82.288(2)
_cell_angle_beta                 86.823(3)
_cell_angle_gamma                69.603(2)
_cell_volume                     1053.97
loop_
_atom_site_label
_atom_site_type_symbol
_atom_site_fract_x
_atom_site_fract_y
_atom_site_fract_z
Ag1 Ag 1.37796(6) 0.97368(6) 0.58627(3)
N1 N 1.1546(7) 1.1257(6) 0.5060(3)
N2 N 0.5796(7) 0.8061(6) -0.3313(3)
C1 C 1.0482(9) 1.2584(8) 0.5272(4)
H1 H 1.0782 1.2895 0.5780
C2 C 0.8977(11) 1.3513(9) 0.4790(5)
H2 H 0.8248 1.4449 0.4967
C3 C 0.8507(9) 1.3104(8) 0.4044(4)
H3 H 0.7458 1.3743 0.3704
C4 C 0.9617(9) 1.1724(7) 0.3806(4)
C5 C 1.1107(9) 1.0836(7) 0.4332(3)
H4 H 1.1857 0.9890 0.4176
C6 C 0.9248(9) 1.1179(7) 0.3039(4)
C7 C 0.9030(8) 1.0651(7) 0.2423(3)
C8 C 0.8828(9) 1.0049(7) 0.1674(4)
C9 C 0.7413(9) 1.0815(8) 0.1082(4)
H5 H 0.6561 1.1770 0.1179
C10 C 0.7209(9) 1.0217(7) 0.0345(4)
H6 H 0.6229 1.0762 -0.0056
C11 C 0.8457(9) 0.8810(7) 0.0201(3)
C12 C 0.9884(10) 0.8036(8) 0.0780(4)
H7 H 1.0741 0.7085 0.0679
C13 C 1.0080(10) 0.8646(8) 0.1518(4)
H8 H 1.1068 0.8105 0.1915
C14 C 0.8244(9) 0.8201(7) -0.0562(4)
C15 C 0.7974(9) 0.7759(7) -0.1205(4)
C16 C 0.6505(10) 0.6642(7) -0.3490(4)
H9 H 0.6114 0.6398 -0.4000
C17 C 0.7798(11) 0.5520(8) -0.2942(4)
H10 H 0.8293 0.4535 -0.3087
C18 C 0.8349(11) 0.5854(8) -0.2188(4)
H11 H 0.9246 0.5112 -0.1815
C19 C 0.7550(9) 0.7320(7) -0.1986(3)
C20 C 0.6324(8) 0.8371(7) -0.2576(3)
H12 H 0.5829 0.9369 -0.2451
Ag1_2 Ag 0.37796(6) 0.97368(6) -0.41373(3)
N2_2 N 1.5796(7) 0.8061(6) 0.6687(3)
B1 B 0.4953(13) 0.7288(8) 0.3646(6)
F1 F 0.6487(14) 0.7458(15) 0.3267(4)
F2 F 0.4825(8) 0.7707(6) 0.4479(3)
F3 F 0.3353(12) 0.8070(9) 0.3205(4)
F4 F 0.4857(12) 0.5944(6) 0.3741(5)
O1 O 0.482(2) 0.5214(14) 0.0371(10)
C21 C 0.640(3) 0.5307(16) 0.0757(11)
H13 H 0.6825 0.6060 0.0412
H14 H 0.7431 0.4343 0.0791
H15 H 0.6057 0.5585 0.1341
O1A O 0.518(2) 0.4786(14) -0.0371(10)
C21A C 0.360(3) 0.4693(16) -0.0757(11)
H13A H 0.3175 0.3940 -0.0412
H14A H 0.2569 0.5657 -0.0791
H15A H 0.3943 0.4415 -0.1341
H16? H 0.4723 0.5626 -0.0141
loop_
_geom_bond_atom_site_label_1
_geom_bond_atom_site_label_2
_geom_bond_site_symmetry_1
_geom_bond_site_symmetry_2
Ag1 N1 1_555 1_555
N1 C1 1_555 1_555
N2 C16 1_555 1_555
C1 H1 1_555 1_555
C2 C1 1_555 1_555
H2 C2 1_555 1_555
C3 C2 1_555 1_555
H3 C3 1_555 1_555
C4 C3 1_555 1_555
C5 N1 1_555 1_555
H4 C5 1_555 1_555
C6 C4 1_555 1_555
C7 C6 1_555 1_555
C8 C7 1_555 1_555
C9 C8 1_555 1_555
H5 C9 1_555 1_555
C10 C9 1_555 1_555
H6 C10 1_555 1_555
C11 C10 1_555 1_555
C12 C11 1_555 1_555
H7 C12 1_555 1_555
C13 C8 1_555 1_555
H8 C13 1_555 1_555
C14 C11 1_555 1_555
C15 C14 1_555 1_555
C16 H9 1_555 1_555
C17 C16 1_555 1_555
H10 C17 1_555 1_555
C18 C17 1_555 1_555
H11 C18 1_555 1_555
C19 C15 1_555 1_555
C20 N2 1_555 1_555
H12 C20 1_555 1_555
B1 F1 1_555 1_555
F2 B1 1_555 1_555
F3 B1 1_555 1_555
F4 B1 1_555 1_555
O1 C21 1_555 1_555
C21 H13 1_555 1_555
H14 C21 1_555 1_555
H15 C21 1_555 1_555
Ag1_2 N2 1_555 1_555
N2_2 Ag1 1_555 1_555
O1A C21A 1_555 1_555
C21A H13A 1_555 1_555
H14A C21A 1_555 1_555
H15A C21A 1_555 1_555
C4 C5 1_555 1_555
C12 C13 1_555 1_555
C18 C19 1_555 1_555
C19 C20 1_555 1_555

#END
