
#######################################################################
#
#                 Cambridge Crystallographic Data Centre
#                                CCDC 
#
#######################################################################
#
# If this CIF has been generated from an entry in the Cambridge 
# Structural Database, then it will include bibliographic, chemical, 
# crystal, experimental, refinement or atomic coordinate data resulting 
# from the CCDC's data processing and validation procedures.
#
#######################################################################

data_YINVIC
_symmetry_cell_setting           monoclinic
_symmetry_space_group_name_H-M   'C 2/c'
_symmetry_Int_Tables_number      15
_space_group_name_Hall           '-C 2yn'
loop_
_symmetry_equiv_pos_site_id
_symmetry_equiv_pos_as_xyz
1 x,y,z
2 -x,y,1/2-z
3 1/2+x,1/2+y,z
4 1/2-x,1/2+y,1/2-z
5 -x,-y,-z
6 x,-y,1/2+z
7 1/2-x,1/2-y,-z
8 1/2+x,1/2-y,1/2+z
_cell_length_a                   5.2491(4)
_cell_length_b                   18.8288(16)
_cell_length_c                   17.7483(15)
_cell_angle_alpha                90
_cell_angle_beta                 94.3420(10)
_cell_angle_gamma                90
_cell_volume                     1749.11
loop_
_atom_site_label
_atom_site_type_symbol
_atom_site_fract_x
_atom_site_fract_y
_atom_site_fract_z
Ag1 Ag 1.5000 0.965262(13) 0.7500
N1 N 1.1993(3) 0.99439(10) 0.82453(10)
C1 C 1.0453(4) 0.94542(12) 0.85164(12)
C2 C 0.8526(4) 0.96187(11) 0.89889(12)
C3 C 0.8187(4) 1.03314(12) 0.91792(13)
C4 C 0.9761(5) 1.08367(12) 0.88906(15)
C5 C 1.1631(4) 1.06269(12) 0.84288(13)
C6 C 0.6955(4) 0.90615(12) 0.92591(12)
C7 C 0.5654(4) 0.85888(12) 0.94690(12)
C8 C 0.4072(4) 0.80323(11) 0.97345(13)
C9 C 0.2185(4) 0.77128(12) 0.92480(13)
C10 C 0.4366(4) 0.78108(12) 1.04869(13)
H1 H 1.066(5) 0.9006(15) 0.8382(15)
H2 H 0.555(5) 0.8024(15) 1.0804(16)
H3 H 1.268(6) 1.0951(17) 0.8233(17)
H4 H 0.690(6) 1.0461(15) 0.9483(17)
H5 H 0.199(6) 0.7853(16) 0.8747(17)
H6 H 0.952(6) 1.1313(18) 0.9011(19)
O1 O 1.7067(3) 0.83450(10) 0.75250(10)
O2 O 1.5000 0.73502(14) 0.7500
N2 N 1.5000 0.80182(15) 0.7500
N1F N -0.6993(3) 0.50561(10) 1.17547(10)
C1F C -0.5453(4) 0.55458(12) 1.14836(12)
C2F C -0.3526(4) 0.53813(11) 1.10111(12)
C3F C -0.3187(4) 0.46686(12) 1.08208(13)
C4F C -0.4761(5) 0.41633(12) 1.11094(15)
C5F C -0.6631(4) 0.43731(12) 1.15712(13)
C6F C -0.1955(4) 0.59385(12) 1.07409(12)
C7F C -0.0654(4) 0.64112(12) 1.05310(12)
C8F C 0.0928(4) 0.69677(11) 1.02655(13)
C9F C 0.2815(4) 0.72872(12) 1.07520(13)
C10F C 0.0634(4) 0.71892(12) 0.95131(13)
H1F H -0.566(5) 0.5994(15) 1.1618(15)
H2F H -0.055(5) 0.6976(15) 0.9196(16)
H3F H -0.768(6) 0.4049(17) 1.1767(17)
H4F H -0.190(6) 0.4539(15) 1.0517(17)
H5F H 0.301(6) 0.7147(16) 1.1253(17)
H6F H -0.452(6) 0.3687(18) 1.0989(19)
O1A O 1.2933(3) 0.83450(10) 0.74750(10)
Ag1F Ag -1.0000 0.534738(13) 1.2500
N1A N 1.8007(3) 0.99439(10) 0.67547(10)
O3 O 0.5000 0.17424(14) 0.7500
H7 H 0.383(6) 0.1993(17) 0.7488(19)
H7A H 0.617(6) 0.1993(17) 0.7512(19)
loop_
_geom_bond_atom_site_label_1
_geom_bond_atom_site_label_2
_geom_bond_site_symmetry_1
_geom_bond_site_symmetry_2
Ag1 N1 1_555 1_555
N1 C1 1_555 1_555
C1 C2 1_555 1_555
C2 C3 1_555 1_555
C3 C4 1_555 1_555
C4 C5 1_555 1_555
C5 N1 1_555 1_555
C6 C2 1_555 1_555
C7 C6 1_555 1_555
C8 C7 1_555 1_555
C9 C8 1_555 1_555
C10 C8 1_555 1_555
H1 C1 1_555 1_555
H2 C10 1_555 1_555
H3 C5 1_555 1_555
H4 C3 1_555 1_555
H5 C9 1_555 1_555
H6 C4 1_555 1_555
O1 Ag1 1_555 1_555
O2 N2 1_555 1_555
N2 O1 1_555 1_555
O3 H7 1_555 1_555
N1F C1F 1_555 1_555
C1F C2F 1_555 1_555
C2F C3F 1_555 1_555
C3F C4F 1_555 1_555
C4F C5F 1_555 1_555
C5F N1F 1_555 1_555
C6F C2F 1_555 1_555
C7F C6F 1_555 1_555
C8F C7F 1_555 1_555
C9F C10 1_555 1_555
C10F C9 1_555 1_555
H1F C1F 1_555 1_555
H2F C10F 1_555 1_555
H3F C5F 1_555 1_555
H4F C3F 1_555 1_555
H5F C9F 1_555 1_555
H6F C4F 1_555 1_555
O1A Ag1 1_555 1_555
Ag1F N1F 1_555 1_555
N1A Ag1 1_555 1_555
H7A O3 1_555 1_555
N2 O1A 1_555 1_555
C8F C9F 1_555 1_555
C8F C10F 1_555 1_555

#END
