
#######################################################################
#
#                 Cambridge Crystallographic Data Centre
#                                CCDC 
#
#######################################################################
#
# If this CIF has been generated from an entry in the Cambridge 
# Structural Database, then it will include bibliographic, chemical, 
# crystal, experimental, refinement or atomic coordinate data resulting 
# from the CCDC's data processing and validation procedures.
#
#######################################################################

data_YINWUP
_symmetry_cell_setting           monoclinic
_symmetry_space_group_name_H-M   'P 2/n'
_symmetry_Int_Tables_number      13
_space_group_name_Hall           '-P 2yac'
loop_
_symmetry_equiv_pos_site_id
_symmetry_equiv_pos_as_xyz
1 x,y,z
2 1/2-x,y,1/2-z
3 -x,-y,-z
4 1/2+x,-y,1/2+z
_cell_length_a                   13.2860(9)
_cell_length_b                   10.0240(5)
_cell_length_c                   17.4370(10)
_cell_angle_alpha                90
_cell_angle_beta                 98.758(5)
_cell_angle_gamma                90
_cell_volume                     2295.16
loop_
_atom_site_label
_atom_site_type_symbol
_atom_site_fract_x
_atom_site_fract_y
_atom_site_fract_z
Zn1 Zn 0.65695(5) 0.82808(6) 0.56896(3)
C1 C 0.6978(4) 1.0518(5) 0.2505(2)
C2 C 0.6442(4) 1.1738(5) 0.2503(2)
C3 C 0.6974(4) 1.2931(4) 0.2489(2)
C4 C 0.6413(4) 0.9206(5) 0.2479(3)
H1 H 0.5713 0.9348 0.2242
H2 H 0.6719 0.8586 0.2155
C5 C 0.6653(4) 0.9080(5) 0.3954(3)
H3 H 0.6890 0.9941 0.4070
C6 C 0.6143(5) 0.7137(5) 0.4022(3)
H4 H 0.5951 0.6335 0.4225
C7 C 0.5329(4) 1.1698(6) 0.2596(3)
H5 H 0.5209 1.0911 0.2893
H6 H 0.5177 1.2473 0.2891
C8 C 0.3638(4) 1.1942(5) 0.1746(3)
H7 H 0.3291 1.2289 0.2125
C9 C 0.3991(5) 1.1154(6) 0.0733(3)
H8 H 0.3919 1.0845 0.0225
C10 C 0.6398(5) 1.4262(5) 0.2410(3)
H9 H 0.5713 1.4132 0.2526
H10 H 0.6741 1.4899 0.2779
C11 C 0.6131(5) 1.4162(6) 0.0965(3)
H11 H 0.5969 1.3261 0.0915
C12 C 0.6423(6) 1.6115(6) 0.0736(4)
H12 H 0.6511 1.6897 0.0467
C13 C 0.6333(4) 0.4357(5) 0.6546(3)
C14 C 0.6392(4) 0.3087(5) 0.6227(3)
H13 H 0.6465 0.3001 0.5708
C15 C 0.6342(4) 0.1951(5) 0.6676(3)
C16 C 0.6231(4) 0.2079(5) 0.7440(3)
H14 H 0.6210 0.1319 0.7743
C17 C 0.6147(4) 0.3329(5) 0.7770(3)
C18 C 0.6221(4) 0.4451(5) 0.7317(3)
H15 H 0.6193 0.5291 0.7540
C19 C 0.6437(4) 0.5573(5) 0.6068(3)
C20 C 0.6435(4) 0.0588(5) 0.6332(3)
C21 C 0.6051(5) 0.3439(6) 0.8602(3)
N1 N 0.6507(3) 0.8178(4) 0.4482(2)
N2 N 0.6081(4) 0.7337(4) 0.3279(2)
N3 N 0.6422(3) 0.8609(4) 0.3245(2)
N4 N 0.3210(3) 1.1655(4) 0.1035(2)
N5 N 0.4625(3) 1.1675(4) 0.1856(2)
N6 N 0.4876(4) 1.1120(5) 0.1199(3)
N7 N 0.6171(4) 1.4980(5) 0.0380(3)
N8 N 0.6348(4) 1.4787(4) 0.1623(2)
N9 N 0.6541(5) 1.6074(5) 0.1491(3)
O1 O 0.6506(4) 0.5444(4) 0.5372(2)
O2 O 0.6455(3) 0.6694(3) 0.63982(19)
O3 O 0.6468(3) 0.0479(3) 0.5612(2)
O4 O 0.6482(3) -0.0408(3) 0.6758(2)
O5 O 0.5963(4) 0.2455(4) 0.8997(2)
O6 O 0.6065(3) 0.4658(4) 0.8859(2)
H16 H 0.6032 0.4707 0.9478
O7 O 0.4935(3) 0.8344(4) 0.5530(2)
H17 H 0.4538 0.8678 0.5157
H18 H 0.4649 0.7615 0.5623
C1A C 0.8022(4) 1.0518(5) 0.2495(2)
C2A C 0.8558(4) 1.1738(5) 0.2497(2)
C3A C 0.8026(4) 1.2931(4) 0.2511(2)
C4A C 0.8587(4) 0.9206(5) 0.2521(3)
H1A H 0.9287 0.9348 0.2758
H2A H 0.8281 0.8586 0.2845
C5A C 0.8347(4) 0.9080(5) 0.1046(3)
H3A H 0.8110 0.9941 0.0930
C6A C 0.8857(5) 0.7137(5) 0.0978(3)
H4A H 0.9049 0.6335 0.0775
C7A C 0.9671(4) 1.1698(6) 0.2404(3)
H5A H 0.9791 1.0911 0.2107
H6A H 0.9823 1.2473 0.2109
C8A C 1.1362(4) 1.1942(5) 0.3254(3)
H7A H 1.1709 1.2289 0.2875
C9A C 1.1009(5) 1.1154(6) 0.4267(3)
H8A H 1.1081 1.0845 0.4775
C10A C 0.8602(5) 1.4262(5) 0.2590(3)
H9A H 0.9287 1.4132 0.2474
H10A H 0.8259 1.4899 0.2221
C11A C 0.8869(5) 1.4162(6) 0.4035(3)
H11A H 0.9031 1.3261 0.4085
C12A C 0.8577(6) 1.6115(6) 0.4264(4)
H12A H 0.8489 1.6897 0.4533
N1A N 0.8493(3) 0.8178(4) 0.0518(2)
N2A N 0.8919(4) 0.7337(4) 0.1721(2)
N3A N 0.8578(3) 0.8609(4) 0.1755(2)
N4A N 1.1790(3) 1.1655(4) 0.3965(2)
N5A N 1.0375(3) 1.1675(4) 0.3144(2)
N6A N 1.0124(4) 1.1120(5) 0.3801(3)
N7A N 0.8829(4) 1.4980(5) 0.4620(3)
N8A N 0.8652(4) 1.4787(4) 0.3377(2)
N9A N 0.8459(5) 1.6074(5) 0.3509(3)
Zn1A Zn 0.84305(5) 0.82808(6) -0.06896(3)
C13A C 0.8667(4) 0.4357(5) -0.1546(3)
C14A C 0.8608(4) 0.3087(5) -0.1227(3)
H13A H 0.8535 0.3001 -0.0708
C15A C 0.8658(4) 0.1951(5) -0.1676(3)
C16A C 0.8769(4) 0.2079(5) -0.2440(3)
H14A H 0.8790 0.1319 -0.2743
C17A C 0.8853(4) 0.3329(5) -0.2770(3)
C18A C 0.8779(4) 0.4451(5) -0.2317(3)
H15A H 0.8807 0.5291 -0.2540
C19A C 0.8563(4) 0.5573(5) -0.1068(3)
C20A C 0.8565(4) 0.0588(5) -0.1332(3)
C21A C 0.8949(5) 0.3439(6) -0.3602(3)
O1A O 0.8494(4) 0.5444(4) -0.0372(2)
O2A O 0.8545(3) 0.6694(3) -0.13982(19)
O3A O 0.8532(3) 0.0479(3) -0.0612(2)
O4A O 0.8518(3) -0.0408(3) -0.1758(2)
O5A O 0.9037(4) 0.2455(4) -0.3997(2)
O6A O 0.8935(3) 0.4658(4) -0.3859(2)
H16A H 0.8968 0.4707 -0.4478
O7A O 1.0065(3) 0.8344(4) -0.0530(2)
H17A H 1.0462 0.8678 -0.0157
H18A H 1.0351 0.7615 -0.0623
Zn1_2 Zn 0.65695(5) -0.17192(6) 0.56896(3)
Zn1A_2 Zn 0.84305(5) -0.17192(6) -0.06896(3)
Zn1B Zn 1.34305(5) 1.17192(6) 0.43104(3)
Zn1C Zn 0.15695(5) 1.17192(6) 0.06896(3)
N4B N 0.6790(3) 0.8345(4) -0.1035(2)
N4C N 0.8210(3) 0.8345(4) 0.6035(2)
O3_2 O 0.6468(3) 1.0479(3) 0.5612(2)
O3A_2 O 0.8532(3) 1.0479(3) -0.0612(2)
O4_2 O 0.6482(3) 0.9592(3) 0.6758(2)
O4A_2 O 0.8518(3) 0.9592(3) -0.1758(2)
O8 O 0.3613(4) 0.6397(4) 0.5817(2)
O9 O 0.7108(5) 0.1576(5) 1.0332(3)
H19 H 0.6767 0.1983 0.9952
H20 H 0.6649 0.1306 1.0591
loop_
_geom_bond_atom_site_label_1
_geom_bond_atom_site_label_2
_geom_bond_site_symmetry_1
_geom_bond_site_symmetry_2
Zn1 N1 1_555 1_555
C1 C2 1_555 1_555
C2 C3 1_555 1_555
C3 C10 1_555 1_555
C4 C1 1_555 1_555
H1 C4 1_555 1_555
H2 C4 1_555 1_555
C5 H3 1_555 1_555
C6 H4 1_555 1_555
C7 C2 1_555 1_555
H5 C7 1_555 1_555
H6 C7 1_555 1_555
C8 H7 1_555 1_555
C9 H8 1_555 1_555
C10 H9 1_555 1_555
H10 C10 1_555 1_555
C11 H11 1_555 1_555
C12 H12 1_555 1_555
C13 C14 1_555 1_555
C14 H13 1_555 1_555
C15 C14 1_555 1_555
C16 C15 1_555 1_555
H14 C16 1_555 1_555
C17 C16 1_555 1_555
C18 C13 1_555 1_555
H15 C18 1_555 1_555
C19 C13 1_555 1_555
C20 C15 1_555 1_555
C21 C17 1_555 1_555
N1 C5 1_555 1_555
N2 C6 1_555 1_555
N3 C4 1_555 1_555
N4 C8 1_555 1_555
N5 C7 1_555 1_555
N6 C9 1_555 1_555
N7 C11 1_555 1_555
N8 C10 1_555 1_555
N9 C12 1_555 1_555
O1 C19 1_555 1_555
O2 Zn1 1_555 1_555
O3 C20 1_555 1_555
O4 C20 1_555 1_555
O5 C21 1_555 1_555
O6 C21 1_555 1_555
H16 O6 1_555 1_555
O7 Zn1 1_555 1_555
H17 O7 1_555 1_555
H18 O7 1_555 1_555
O9 H19 1_555 1_555
H20 O9 1_555 1_555
C1A C1 1_555 1_555
C2A C1A 1_555 1_555
C3A C3 1_555 1_555
C4A C1A 1_555 1_555
H1A C4A 1_555 1_555
H2A C4A 1_555 1_555
C5A H3A 1_555 1_555
C6A H4A 1_555 1_555
C7A C2A 1_555 1_555
H5A C7A 1_555 1_555
H6A C7A 1_555 1_555
C8A H7A 1_555 1_555
C9A H8A 1_555 1_555
C10A C3A 1_555 1_555
H9A C10A 1_555 1_555
H10A C10A 1_555 1_555
C11A H11A 1_555 1_555
C12A H12A 1_555 1_555
N1A C5A 1_555 1_555
N2A C6A 1_555 1_555
N3A C4A 1_555 1_555
N4A C8A 1_555 1_555
N5A C7A 1_555 1_555
N6A C9A 1_555 1_555
N7A C11A 1_555 1_555
N8A C10A 1_555 1_555
N9A C12A 1_555 1_555
Zn1A N1A 1_555 1_555
C13A C14A 1_555 1_555
C14A H13A 1_555 1_555
C15A C14A 1_555 1_555
C16A C15A 1_555 1_555
H14A C16A 1_555 1_555
C17A C16A 1_555 1_555
C18A C13A 1_555 1_555
H15A C18A 1_555 1_555
C19A C13A 1_555 1_555
C20A C15A 1_555 1_555
C21A C17A 1_555 1_555
O1A C19A 1_555 1_555
O2A Zn1A 1_555 1_555
O3A C20A 1_555 1_555
O4A C20A 1_555 1_555
O5A C21A 1_555 1_555
O6A C21A 1_555 1_555
H16A O6A 1_555 1_555
O7A Zn1A 1_555 1_555
H17A O7A 1_555 1_555
H18A O7A 1_555 1_555
Zn1_2 O3 1_555 1_555
Zn1A_2 O3A 1_555 1_555
Zn1B N4A 1_555 1_555
Zn1C N4 1_555 1_555
N4B Zn1A 1_555 1_555
N4C Zn1 1_555 1_555
O3_2 Zn1 1_555 1_555
O3A_2 Zn1A 1_555 1_555
O4_2 Zn1 1_555 1_555
O4A_2 Zn1A 1_555 1_555
C5 N3 1_555 1_555
C6 N1 1_555 1_555
C8 N5 1_555 1_555
C9 N4 1_555 1_555
C11 N8 1_555 1_555
C12 N7 1_555 1_555
C17 C18 1_555 1_555
C19 O2 1_555 1_555
N2 N3 1_555 1_555
N5 N6 1_555 1_555
N8 N9 1_555 1_555
O4 Zn1_2 1_555 1_555
C2A C3A 1_555 1_555
C5A N3A 1_555 1_555
C6A N1A 1_555 1_555
C8A N5A 1_555 1_555
C9A N4A 1_555 1_555
C11A N8A 1_555 1_555
C12A N7A 1_555 1_555
N2A N3A 1_555 1_555
N5A N6A 1_555 1_555
N8A N9A 1_555 1_555
C17A C18A 1_555 1_555
C19A O2A 1_555 1_555
O4A Zn1A_2 1_555 1_555

#END
