
#######################################################################
#
#                 Cambridge Crystallographic Data Centre
#                                CCDC 
#
#######################################################################
#
# If this CIF has been generated from an entry in the Cambridge 
# Structural Database, then it will include bibliographic, chemical, 
# crystal, experimental, refinement or atomic coordinate data resulting 
# from the CCDC's data processing and validation procedures.
#
#######################################################################

data_YINWOJ
_symmetry_cell_setting           triclinic
_symmetry_space_group_name_H-M   'P -1'
_symmetry_Int_Tables_number      2
_space_group_name_Hall           '-P 1'
loop_
_symmetry_equiv_pos_site_id
_symmetry_equiv_pos_as_xyz
1 x,y,z
2 -x,-y,-z
_cell_length_a                   10.0330(6)
_cell_length_b                   10.9540(6)
_cell_length_c                   12.8250(8)
_cell_angle_alpha                68.518(6)
_cell_angle_beta                 80.503(5)
_cell_angle_gamma                84.620(5)
_cell_volume                     1292.74
loop_
_atom_site_label
_atom_site_type_symbol
_atom_site_fract_x
_atom_site_fract_y
_atom_site_fract_z
Zn1 Zn 0.01340(4) 0.20272(4) 0.56882(3)
C1 C 0.0393(4) 0.5263(4) 0.8848(3)
C2 C 0.1060(4) 0.4263(4) 0.9633(3)
C3 C 0.0669(4) 0.4009(3) 1.0789(3)
C4 C 0.0858(4) 0.5610(4) 0.7587(3)
H1 H 0.0656 0.6535 0.7198
H2 H 0.1830 0.5466 0.7462
C5 C 0.0775(4) 0.4044(4) 0.6587(3)
H3 H 0.1701 0.3874 0.6454
C6 C -0.1323(4) 0.4058(5) 0.6648(4)
H4 H -0.2170 0.3872 0.6552
C7 C 0.2161(4) 0.3405(4) 0.9241(4)
H5 H 0.2096 0.2511 0.9779
H6 H 0.2004 0.3398 0.8517
C8 C 0.4617(6) 0.3149(6) 0.9517(6)
H7 H 0.4617 0.2283 1.0017
C9 C 0.5210(7) 0.4992(7) 0.8452(7)
H8 H 0.5748 0.5707 0.8042
C10 C 0.1405(4) 0.2932(4) 1.1638(3)
H9 H 0.2318 0.2809 1.1289
H10 H 0.1466 0.3187 1.2276
C11 C 0.0700(4) 0.0727(4) 1.3018(3)
H11 H 0.1096 0.0749 1.3617
C12 C -0.0332(5) 0.0151(4) 1.1996(4)
H12 H -0.0821 -0.0353 1.1755
C13 C 0.4150(3) 0.1796(4) 0.4573(3)
C14 C 0.5205(3) 0.1923(4) 0.5084(3)
H13 H 0.5027 0.2072 0.5763
C15 C 0.6525(3) 0.1831(4) 0.4596(3)
C16 C 0.6785(4) 0.1604(4) 0.3590(3)
H14 H 0.7673 0.1551 0.3253
C17 C 0.5730(4) 0.1455(4) 0.3085(3)
C18 C 0.4412(4) 0.1557(4) 0.3568(3)
H15 H 0.3702 0.1467 0.3222
C19 C 0.2727(4) 0.1905(4) 0.5120(3)
C20 C 0.7638(3) 0.1938(4) 0.5206(3)
N1 N -0.0164(3) 0.3518(3) 0.6282(3)
N2 N 0.0211(3) 0.4836(3) 0.7103(3)
N3 N -0.1151(4) 0.4865(4) 0.7148(4)
N4 N 0.5695(5) 0.3868(6) 0.9095(5)
N5 N 0.3529(4) 0.3842(4) 0.9123(3)
N6 N 0.3914(6) 0.5029(5) 0.8433(6)
N7 N 0.0060(3) -0.0275(3) 1.3031(3)
N8 N 0.0701(3) 0.1688(3) 1.2040(3)
N9 N 0.0041(4) 0.1332(4) 1.1366(3)
O1 O 0.1766(2) 0.1932(3) 0.4585(2)
O2 O 0.2505(3) 0.1969(3) 0.6076(3)
O3 O 0.7369(3) 0.1953(3) 0.6175(3)
O4 O 0.8841(2) 0.1997(3) 0.4691(2)
O5 O 0.6023(3) 0.1195(4) 0.2112(3)
H16 H 0.5319 0.1128 0.1895
C1A C -0.0393(4) 0.4737(4) 1.1152(3)
C2A C -0.1060(4) 0.5737(4) 1.0367(3)
C3A C -0.0669(4) 0.5991(3) 0.9211(3)
C4A C -0.0858(4) 0.4390(4) 1.2413(3)
H1A H -0.0656 0.3465 1.2802
H2A H -0.1830 0.4534 1.2538
C5A C -0.0775(4) 0.5956(4) 1.3413(3)
H3A H -0.1701 0.6126 1.3546
C6A C 0.1323(4) 0.5942(5) 1.3352(4)
H4A H 0.2170 0.6128 1.3448
C7A C -0.2161(4) 0.6595(4) 1.0759(4)
H5A H -0.2096 0.7489 1.0221
H6A H -0.2004 0.6602 1.1483
C8A C -0.4617(6) 0.6851(6) 1.0483(6)
H7A H -0.4617 0.7717 0.9983
C9A C -0.5210(7) 0.5008(7) 1.1548(7)
H8A H -0.5748 0.4293 1.1958
C10A C -0.1405(4) 0.7068(4) 0.8362(3)
H9A H -0.2318 0.7191 0.8711
H10A H -0.1466 0.6813 0.7724
C11A C -0.0700(4) 0.9273(4) 0.6982(3)
H11A H -0.1096 0.9251 0.6383
C12A C 0.0332(5) 0.9849(4) 0.8004(4)
H12A H 0.0821 1.0353 0.8245
N1A N 0.0164(3) 0.6482(3) 1.3718(3)
N2A N -0.0211(3) 0.5164(3) 1.2897(3)
N3A N 0.1151(4) 0.5135(4) 1.2852(4)
N4A N -0.5695(5) 0.6132(6) 1.0905(5)
N5A N -0.3529(4) 0.6158(4) 1.0877(3)
N6A N -0.3914(6) 0.4971(5) 1.1567(6)
N7A N -0.0060(3) 1.0275(3) 0.6969(3)
N8A N -0.0701(3) 0.8312(3) 0.7960(3)
N9A N -0.0041(4) 0.8668(4) 0.8634(3)
Zn1A Zn -0.01340(4) -0.20272(4) 1.43118(3)
C13A C -0.4150(3) -0.1796(4) 1.5427(3)
C14A C -0.5205(3) -0.1923(4) 1.4916(3)
H13A H -0.5027 -0.2072 1.4237
C15A C -0.6525(3) -0.1831(4) 1.5404(3)
C16A C -0.6785(4) -0.1604(4) 1.6410(3)
H14A H -0.7673 -0.1551 1.6747
C17A C -0.5730(4) -0.1455(4) 1.6915(3)
C18A C -0.4412(4) -0.1557(4) 1.6432(3)
H15A H -0.3702 -0.1467 1.6778
C19A C -0.2727(4) -0.1905(4) 1.4880(3)
C20A C -0.7638(3) -0.1938(4) 1.4794(3)
O1A O -0.1766(2) -0.1932(3) 1.5415(2)
O2A O -0.2505(3) -0.1969(3) 1.3924(3)
O3A O -0.7369(3) -0.1953(3) 1.3825(3)
O4A O -0.8841(2) -0.1997(3) 1.5309(2)
O5A O -0.6023(3) -0.1195(4) 1.7888(3)
H16A H -0.5319 -0.1128 1.8105
Zn1_2 Zn 0.01340(4) 1.20272(4) 0.56882(3)
Zn1_3 Zn 1.01340(4) 0.20272(4) 0.56882(3)
Zn1A_2 Zn -1.01340(4) -0.20272(4) 1.43118(3)
Zn1A_3 Zn -0.01340(4) 0.79728(4) 1.43118(3)
N1A_2 N 0.0164(3) -0.3518(3) 1.3718(3)
N7A_2 N -0.0060(3) 0.0275(3) 0.6969(3)
O4_2 O -0.1159(2) 0.1997(3) 0.4691(2)
O4A_2 O 0.1159(2) -0.1997(3) 1.5309(2)
O6 O 0.6172(5) 0.0025(5) 0.8122(4)
O7 O 0.3708(6) 0.1750(7) 0.7901(5)
O8 O 0.8300(7) 0.2345(6) 0.9498(6)
O9 O 0.7150(8) -0.0015(7) 0.9943(5)
H17 H 0.6526 0.0593 0.9883
H18 H 0.7818 0.0329 1.0056
O10 O 0.4066(13) 0.4674(12) 0.6113(12)
loop_
_geom_bond_atom_site_label_1
_geom_bond_atom_site_label_2
_geom_bond_site_symmetry_1
_geom_bond_site_symmetry_2
Zn1 N1 1_555 1_555
C1 C2 1_555 1_555
C2 C3 1_555 1_555
C3 C10 1_555 1_555
C4 C1 1_555 1_555
H1 C4 1_555 1_555
H2 C4 1_555 1_555
C5 H3 1_555 1_555
C6 H4 1_555 1_555
C7 C2 1_555 1_555
H5 C7 1_555 1_555
H6 C7 1_555 1_555
C8 H7 1_555 1_555
C9 H8 1_555 1_555
C10 H9 1_555 1_555
H10 C10 1_555 1_555
C11 H11 1_555 1_555
C12 H12 1_555 1_555
C13 C14 1_555 1_555
C14 H13 1_555 1_555
C15 C14 1_555 1_555
C16 C15 1_555 1_555
H14 C16 1_555 1_555
C17 C16 1_555 1_555
C18 C13 1_555 1_555
H15 C18 1_555 1_555
C19 C13 1_555 1_555
C20 C15 1_555 1_555
N1 C5 1_555 1_555
N2 C4 1_555 1_555
N3 C6 1_555 1_555
N4 C8 1_555 1_555
N5 C7 1_555 1_555
N6 C9 1_555 1_555
N7 C11 1_555 1_555
N8 C10 1_555 1_555
N9 C12 1_555 1_555
O1 Zn1 1_555 1_555
O2 Zn1 1_555 1_555
O3 C20 1_555 1_555
O4 C20 1_555 1_555
O5 C17 1_555 1_555
H16 O5 1_555 1_555
O9 H17 1_555 1_555
H18 O9 1_555 1_555
C1A C3 1_555 1_555
C2A C1A 1_555 1_555
C3A C1 1_555 1_555
C4A C1A 1_555 1_555
H1A C4A 1_555 1_555
H2A C4A 1_555 1_555
C5A H3A 1_555 1_555
C6A H4A 1_555 1_555
C7A C2A 1_555 1_555
H5A C7A 1_555 1_555
H6A C7A 1_555 1_555
C8A H7A 1_555 1_555
C9A H8A 1_555 1_555
C10A C3A 1_555 1_555
H9A C10A 1_555 1_555
H10A C10A 1_555 1_555
C11A H11A 1_555 1_555
C12A H12A 1_555 1_555
N1A C5A 1_555 1_555
N2A C4A 1_555 1_555
N3A C6A 1_555 1_555
N4A C8A 1_555 1_555
N5A C7A 1_555 1_555
N6A C9A 1_555 1_555
N7A C11A 1_555 1_555
N8A C10A 1_555 1_555
N9A C12A 1_555 1_555
Zn1A N7 1_555 1_555
C13A C14A 1_555 1_555
C14A H13A 1_555 1_555
C15A C14A 1_555 1_555
C16A C15A 1_555 1_555
H14A C16A 1_555 1_555
C17A C16A 1_555 1_555
C18A C13A 1_555 1_555
H15A C18A 1_555 1_555
C19A C13A 1_555 1_555
C20A C15A 1_555 1_555
O1A Zn1A 1_555 1_555
O2A Zn1A 1_555 1_555
O3A C20A 1_555 1_555
O4A C20A 1_555 1_555
O5A C17A 1_555 1_555
H16A O5A 1_555 1_555
Zn1_2 N7A 1_555 1_555
Zn1_3 O4 1_555 1_555
Zn1A_2 O4A 1_555 1_555
Zn1A_3 N1A 1_555 1_555
N1A_2 Zn1A 1_555 1_555
N7A_2 Zn1 1_555 1_555
O4_2 Zn1 1_555 1_555
O4A_2 Zn1A 1_555 1_555
C5 N2 1_555 1_555
C6 N1 1_555 1_555
C8 N5 1_555 1_555
C9 N4 1_555 1_555
C11 N8 1_555 1_555
C12 N7 1_555 1_555
C17 C18 1_555 1_555
C19 O1 1_555 1_555
C19 O2 1_555 1_555
N2 N3 1_555 1_555
N5 N6 1_555 1_555
N8 N9 1_555 1_555
C2A C3A 1_555 1_555
C5A N2A 1_555 1_555
C6A N1A 1_555 1_555
C8A N5A 1_555 1_555
C9A N4A 1_555 1_555
C11A N8A 1_555 1_555
C12A N7A 1_555 1_555
N2A N3A 1_555 1_555
N5A N6A 1_555 1_555
N8A N9A 1_555 1_555
C17A C18A 1_555 1_555
C19A O1A 1_555 1_555
C19A O2A 1_555 1_555

#END
