
#######################################################################
#
#                 Cambridge Crystallographic Data Centre
#                                CCDC 
#
#######################################################################
#
# If this CIF has been generated from an entry in the Cambridge 
# Structural Database, then it will include bibliographic, chemical, 
# crystal, experimental, refinement or atomic coordinate data resulting 
# from the CCDC's data processing and validation procedures.
#
#######################################################################

data_YINXOK
_symmetry_cell_setting           triclinic
_symmetry_space_group_name_H-M   'P -1'
_symmetry_Int_Tables_number      2
_space_group_name_Hall           '-P 1'
loop_
_symmetry_equiv_pos_site_id
_symmetry_equiv_pos_as_xyz
1 x,y,z
2 -x,-y,-z
_cell_length_a                   9.3480(5)
_cell_length_b                   12.3510(7)
_cell_length_c                   12.4570(6)
_cell_angle_alpha                100.015(5)
_cell_angle_beta                 107.880(5)
_cell_angle_gamma                111.846(5)
_cell_volume                     1200.99
loop_
_atom_site_label
_atom_site_type_symbol
_atom_site_fract_x
_atom_site_fract_y
_atom_site_fract_z
Ag1 Ag -0.12661(3) -0.52562(3) 0.54699(3)
Ag2 Ag -1.33233(4) -0.95865(3) -0.04953(3)
Ag3 Ag 0.0000 0.0000 0.0000
C1 C -0.8818(4) -0.9464(3) 0.4531(3)
C2 C -0.9876(4) -0.8947(3) 0.4695(3)
C3 C -1.1071(4) -0.9485(3) 0.5152(3)
C4 C -0.7612(4) -0.8872(3) 0.3987(3)
H1 H -0.7355 -0.9485 0.3603
H2 H -0.8156 -0.8589 0.3379
C5 C -0.5265(4) -0.6665(4) 0.4889(4)
H3 H -0.5693 -0.6351 0.4311
C6 C -0.3762(5) -0.6883(4) 0.6382(3)
H4 H -0.2865 -0.6704 0.7087
C7 C -0.9607(4) -0.7732(3) 0.4476(3)
H5 H -1.0048 -0.7328 0.4933
H6 H -0.8404 -0.7205 0.4773
C8 C -1.1337(4) -0.8799(3) 0.2238(3)
H7 H -1.1622 -0.9616 0.2198
C9 C -1.1096(5) -0.7186(4) 0.1807(4)
H8 H -1.1215 -0.6668 0.1364
C10 C -1.2227(4) -0.8915(3) 0.5288(3)
H9 H -1.2962 -0.9387 0.5619
H10 H -1.1548 -0.8080 0.5843
C11 C -1.4378(4) -0.9807(4) 0.3151(3)
H11 H -1.4691 -1.0639 0.3048
C12 C -1.4175(4) -0.8130(3) 0.2874(3)
H12 H -1.4346 -0.7573 0.2500
C13 C -0.3010(4) -0.4115(3) 0.2257(3)
C14 C -0.4750(4) -0.4683(3) 0.1885(3)
H13 H -0.5251 -0.5317 0.2158
C15 C -0.5755(4) -0.4312(3) 0.1107(3)
C16 C -0.5000(4) -0.3366(3) 0.0704(3)
H14 H -0.5664 -0.3110 0.0192
C17 C -0.3260(4) -0.2796(3) 0.1059(3)
C18 C -0.2275(4) -0.3173(3) 0.1843(3)
H15 H -0.1110 -0.2787 0.2092
C19 C -0.1935(4) -0.4505(3) 0.3129(3)
C20 C -0.2473(5) -0.1819(3) 0.0561(3)
C21 C -0.7647(4) -0.4970(4) 0.0709(3)
N1 N -0.3814(4) -0.6027(3) 0.5834(3)
N2 N -0.6034(3) -0.7825(3) 0.4877(3)
N3 N -0.5066(4) -0.7979(3) 0.5845(3)
N4 N -1.1814(4) -0.8425(3) 0.1316(3)
N5 N -1.0400(3) -0.7840(3) 0.3220(2)
N6 N -1.0217(4) -0.6780(3) 0.2964(3)
N7 N -1.4988(4) -0.9367(3) 0.2323(3)
N8 N -1.3258(3) -0.8890(3) 0.4147(2)
N9 N -1.3114(4) -0.7791(3) 0.3996(3)
O1 O -0.2641(3) -0.5197(2) 0.3627(2)
O2 O -0.0394(3) -0.4065(2) 0.3325(2)
O3 O -0.0876(3) -0.1190(3) 0.1026(2)
O4 O -0.3422(4) -0.1671(3) -0.0296(3)
O5 O -0.8462(3) -0.4409(3) 0.0243(3)
O6 O -0.8333(3) -0.5963(3) 0.0831(3)
C1A C -1.1182(4) -1.0536(3) 0.5469(3)
C2A C -1.0124(4) -1.1053(3) 0.5305(3)
C3A C -0.8929(4) -1.0515(3) 0.4848(3)
C4A C -1.2388(4) -1.1128(3) 0.6013(3)
H1A H -1.2645 -1.0515 0.6397
H2A H -1.1844 -1.1411 0.6621
C5A C -1.4735(4) -1.3335(4) 0.5111(4)
H3A H -1.4307 -1.3649 0.5689
C6A C -1.6238(5) -1.3117(4) 0.3618(3)
H4A H -1.7135 -1.3296 0.2913
C7A C -1.0393(4) -1.2268(3) 0.5524(3)
H5A H -0.9952 -1.2672 0.5067
H6A H -1.1596 -1.2795 0.5227
C8A C -0.8663(4) -1.1201(3) 0.7762(3)
H7A H -0.8378 -1.0384 0.7802
C9A C -0.8904(5) -1.2814(4) 0.8193(4)
H8A H -0.8785 -1.3332 0.8636
C10A C -0.7773(4) -1.1085(3) 0.4712(3)
H9A H -0.7038 -1.0613 0.4381
H10A H -0.8452 -1.1920 0.4157
C11A C -0.5622(4) -1.0193(4) 0.6849(3)
H11A H -0.5309 -0.9361 0.6952
C12A C -0.5825(4) -1.1870(3) 0.7126(3)
H12A H -0.5654 -1.2427 0.7500
N1A N -1.6186(4) -1.3973(3) 0.4166(3)
N2A N -1.3966(3) -1.2175(3) 0.5123(3)
N3A N -1.4934(4) -1.2021(3) 0.4155(3)
N4A N -0.8186(4) -1.1575(3) 0.8684(3)
N5A N -0.9600(3) -1.2160(3) 0.6780(2)
N6A N -0.9783(4) -1.3220(3) 0.7036(3)
N7A N -0.5012(4) -1.0633(3) 0.7677(3)
N8A N -0.6742(3) -1.1110(3) 0.5853(2)
N9A N -0.6886(4) -1.2209(3) 0.6004(3)
Ag2A Ag -1.66767(4) -1.04135(3) 0.04953(3)
Ag1A Ag 0.12661(3) -0.47438(3) 0.45301(3)
C13A C 0.3010(4) -0.5885(3) 0.7743(3)
C14A C 0.4750(4) -0.5317(3) 0.8115(3)
H13A H 0.5251 -0.4683 0.7842
C15A C 0.5755(4) -0.5688(3) 0.8893(3)
C16A C 0.5000(4) -0.6634(3) 0.9296(3)
H14A H 0.5664 -0.6890 0.9808
C17A C 0.3260(4) -0.7204(3) 0.8941(3)
C18A C 0.2275(4) -0.6827(3) 0.8157(3)
H15A H 0.1110 -0.7213 0.7908
C19A C 0.1935(4) -0.5495(3) 0.6871(3)
C20A C 0.2473(5) -0.8181(3) 0.9439(3)
C21A C 0.7647(4) -0.5030(4) 0.9291(3)
O1A O 0.2641(3) -0.4803(2) 0.6373(2)
O2A O 0.0394(3) -0.5935(2) 0.6675(2)
O3A O 0.0876(3) -0.8810(3) 0.8974(2)
O4A O 0.3422(4) -0.8329(3) 1.0296(3)
O5A O 0.8462(3) -0.5591(3) 0.9757(3)
O6A O 0.8333(3) -0.4037(3) 0.9169(3)
Ag1_2 Ag -1.12661(3) -1.52562(3) 0.54699(3)
Ag1A_2 Ag -1.87339(3) -1.47438(3) 0.45301(3)
Ag1A_3 Ag -0.87339(3) -0.47438(3) 0.45301(3)
Ag2_2 Ag -0.33233(4) -0.95865(3) 0.95047(3)
Ag2_3 Ag -0.33233(4) 0.04135(3) -0.04953(3)
Ag2A_2 Ag -0.66767(4) -1.04135(3) 1.04953(3)
Ag2A_3 Ag 0.33233(4) -1.04135(3) 1.04953(3)
Ag3_2 Ag 0.0000 -1.0000 1.0000
N1A_2 N 0.3814(4) -0.3973(3) 0.4166(3)
N4A_2 N -1.8186(4) -1.1575(3) -0.1316(3)
N6_2 N -0.0217(4) -0.6780(3) 0.2964(3)
N6A_2 N 0.0217(4) -0.3220(3) 0.7036(3)
N7A_2 N -1.5012(4) -1.0633(3) -0.2323(3)
O3A_2 O 0.0876(3) 0.1190(3) -0.1026(2)
O4_2 O -1.3422(4) -1.1671(3) -0.0296(3)
O4A_2 O -1.6578(4) -0.8329(3) 0.0296(3)
O7 O -1.1727(4) -0.7996(3) -0.1514(3)
H16 H -1.0877 -0.8135 -0.1364
H17 H -1.1390 -0.7313 -0.0989
O8 O -0.7700(4) -0.7542(3) 0.2049(3)
H18 H -0.7948 -0.7071 0.1692
H19 H -0.7232 -0.7824 0.1667
loop_
_geom_bond_atom_site_label_1
_geom_bond_atom_site_label_2
_geom_bond_site_symmetry_1
_geom_bond_site_symmetry_2
Ag1 N1 1_555 1_555
Ag2 N4 1_555 1_555
Ag3 O3 1_555 1_555
C1 C2 1_555 1_555
C2 C3 1_555 1_555
C3 C10 1_555 1_555
C4 C1 1_555 1_555
H1 C4 1_555 1_555
H2 C4 1_555 1_555
C5 H3 1_555 1_555
C6 H4 1_555 1_555
C7 C2 1_555 1_555
H5 C7 1_555 1_555
H6 C7 1_555 1_555
C8 H7 1_555 1_555
C9 H8 1_555 1_555
C10 H9 1_555 1_555
H10 C10 1_555 1_555
C11 H11 1_555 1_555
C12 H12 1_555 1_555
C13 C14 1_555 1_555
C14 H13 1_555 1_555
C15 C14 1_555 1_555
C16 C15 1_555 1_555
H14 C16 1_555 1_555
C17 C16 1_555 1_555
C18 C13 1_555 1_555
H15 C18 1_555 1_555
C19 C13 1_555 1_555
C20 C17 1_555 1_555
C21 C15 1_555 1_555
N1 C5 1_555 1_555
N2 C4 1_555 1_555
N3 C6 1_555 1_555
N4 C8 1_555 1_555
N5 C7 1_555 1_555
N6 C9 1_555 1_555
N7 C11 1_555 1_555
N8 C10 1_555 1_555
N9 C12 1_555 1_555
O1 Ag1 1_555 1_555
O2 C19 1_555 1_555
O3 C20 1_555 1_555
O4 C20 1_555 1_555
O5 C21 1_555 1_555
O6 C21 1_555 1_555
O7 H16 1_555 1_555
H17 O7 1_555 1_555
O8 H18 1_555 1_555
H19 O8 1_555 1_555
C1A C3 1_555 1_555
C2A C1A 1_555 1_555
C3A C1 1_555 1_555
C4A C1A 1_555 1_555
H1A C4A 1_555 1_555
H2A C4A 1_555 1_555
C5A H3A 1_555 1_555
C6A H4A 1_555 1_555
C7A C2A 1_555 1_555
H5A C7A 1_555 1_555
H6A C7A 1_555 1_555
C8A H7A 1_555 1_555
C9A H8A 1_555 1_555
C10A C3A 1_555 1_555
H9A C10A 1_555 1_555
H10A C10A 1_555 1_555
C11A H11A 1_555 1_555
C12A H12A 1_555 1_555
N1A C5A 1_555 1_555
N2A C4A 1_555 1_555
N3A C6A 1_555 1_555
N4A C8A 1_555 1_555
N5A C7A 1_555 1_555
N6A C9A 1_555 1_555
N7A C11A 1_555 1_555
N8A C10A 1_555 1_555
N9A C12A 1_555 1_555
Ag2A N7 1_555 1_555
Ag1A O2 1_555 1_555
C13A C14A 1_555 1_555
C14A H13A 1_555 1_555
C15A C14A 1_555 1_555
C16A C15A 1_555 1_555
H14A C16A 1_555 1_555
C17A C16A 1_555 1_555
C18A C13A 1_555 1_555
H15A C18A 1_555 1_555
C19A C13A 1_555 1_555
C20A C17A 1_555 1_555
C21A C15A 1_555 1_555
O1A Ag1A 1_555 1_555
O2A Ag1 1_555 1_555
O3A C20A 1_555 1_555
O4A C20A 1_555 1_555
O5A C21A 1_555 1_555
O6A C21A 1_555 1_555
Ag1_2 N6A 1_555 1_555
Ag1A_2 N1A 1_555 1_555
Ag1A_3 N6 1_555 1_555
Ag2_2 N7A 1_555 1_555
Ag2_3 O4 1_555 1_555
Ag2A_2 N4A 1_555 1_555
Ag2A_3 O4A 1_555 1_555
Ag3_2 O3A 1_555 1_555
N1A_2 Ag1A 1_555 1_555
N4A_2 Ag2A 1_555 1_555
N6_2 Ag1A 1_555 1_555
N6A_2 Ag1 1_555 1_555
N7A_2 Ag2 1_555 1_555
O3A_2 Ag3 1_555 1_555
O4_2 Ag2 1_555 1_555
O4A_2 Ag2A 1_555 1_555
C5 N2 1_555 1_555
C6 N1 1_555 1_555
C8 N5 1_555 1_555
C9 N4 1_555 1_555
C11 N8 1_555 1_555
C12 N7 1_555 1_555
C17 C18 1_555 1_555
C19 O1 1_555 1_555
N2 N3 1_555 1_555
N5 N6 1_555 1_555
N8 N9 1_555 1_555
C2A C3A 1_555 1_555
C5A N2A 1_555 1_555
C6A N1A 1_555 1_555
C8A N5A 1_555 1_555
C9A N4A 1_555 1_555
C11A N8A 1_555 1_555
C12A N7A 1_555 1_555
N2A N3A 1_555 1_555
N5A N6A 1_555 1_555
N8A N9A 1_555 1_555
C17A C18A 1_555 1_555
C19A O1A 1_555 1_555
C19A O2A 1_555 1_555

#END
