
#######################################################################
#
#                 Cambridge Crystallographic Data Centre
#                                CCDC 
#
#######################################################################
#
# If this CIF has been generated from an entry in the Cambridge 
# Structural Database, then it will include bibliographic, chemical, 
# crystal, experimental, refinement or atomic coordinate data resulting 
# from the CCDC's data processing and validation procedures.
#
#######################################################################

data_YINXAW
_symmetry_cell_setting           monoclinic
_symmetry_space_group_name_H-M   'P 2/n'
_symmetry_Int_Tables_number      13
_space_group_name_Hall           '-P 2yac'
loop_
_symmetry_equiv_pos_site_id
_symmetry_equiv_pos_as_xyz
1 x,y,z
2 1/2-x,y,1/2-z
3 -x,-y,-z
4 1/2+x,-y,1/2+z
_cell_length_a                   13.3020(4)
_cell_length_b                   10.0260(3)
_cell_length_c                   17.4500(5)
_cell_angle_alpha                90
_cell_angle_beta                 98.713(3)
_cell_angle_gamma                90
_cell_volume                     2300.38
loop_
_atom_site_label
_atom_site_type_symbol
_atom_site_fract_x
_atom_site_fract_y
_atom_site_fract_z
Co1 Co 0.65719(3) 0.17061(3) 0.57102(2)
C1 C 0.6972(2) -0.0530(3) 0.25072(14)
C2 C 0.64483(19) -0.1744(3) 0.25089(14)
C3 C 0.6971(2) -0.2947(3) 0.24907(14)
C4 C 0.6416(2) 0.0784(3) 0.24791(15)
H1 H 0.6728 0.1400 0.2156
H2 H 0.5717 0.0648 0.2240
C5 C 0.6660(2) 0.0904(3) 0.39570(16)
H3 H 0.6897 0.0044 0.4073
C6 C 0.6129(2) 0.2857(3) 0.40279(17)
H4 H 0.5927 0.3652 0.4234
C7 C 0.53232(19) -0.1711(3) 0.25984(16)
H5 H 0.5172 -0.2490 0.2891
H6 H 0.5200 -0.0928 0.2898
C8 C 0.3638(2) -0.1972(3) 0.17572(17)
H7 H 0.3299 -0.2344 0.2134
C9 C 0.3983(2) -0.1145(3) 0.07339(18)
H8 H 0.3908 -0.0826 0.0228
C10 C 0.6403(2) -0.4271(3) 0.24176(16)
H9 H 0.6751 -0.4906 0.2785
H10 H 0.5721 -0.4144 0.2537
C11 C 0.6112(3) -0.4168(3) 0.09583(18)
H11 H 0.5934 -0.3272 0.0909
C12 C 0.6445(3) -0.6117(4) 0.0729(2)
H12 H 0.6550 -0.6890 0.0457
C13 C 0.6340(2) 0.5658(2) 0.65497(15)
C14 C 0.6400(2) 0.6914(3) 0.62313(16)
H13 H 0.6475 0.6990 0.5712
C15 C 0.6352(2) 0.8066(2) 0.66697(16)
C16 C 0.6234(2) 0.7942(3) 0.74442(16)
H14 H 0.6205 0.8703 0.7745
C17 C 0.6160(2) 0.6696(3) 0.77720(15)
C18 C 0.6220(2) 0.5560(3) 0.73240(15)
H15 H 0.6179 0.4723 0.7546
C19 C 0.6443(2) 0.4428(3) 0.60793(17)
C20 C 0.64378(19) 0.9413(3) 0.63237(16)
C21 C 0.6051(2) 0.6596(3) 0.86066(17)
N1 N 0.65120(18) 0.1810(2) 0.44797(13)
N2 N 0.64245(17) 0.1385(2) 0.32478(13)
N3 N 0.6067(2) 0.2656(2) 0.32818(14)
N4 N 0.32029(16) -0.1655(2) 0.10459(13)
N5 N 0.46201(16) -0.1685(2) 0.18573(13)
N6 N 0.48660(18) -0.1133(3) 0.12013(14)
N7 N 0.6162(2) -0.4973(3) 0.03742(14)
N8 N 0.63500(18) -0.4797(2) 0.16285(13)
N9 N 0.6565(3) -0.6077(3) 0.14897(16)
O1 O 0.64584(15) 0.33131(18) 0.64165(12)
O2 O 0.6522(2) 0.4543(2) 0.53824(13)
O3 O 0.64696(15) 0.95187(18) 0.55992(11)
O4 O 0.64895(15) 1.04253(17) 0.67397(11)
O5 O 0.5968(2) 0.7566(2) 0.90026(13)
O6 O 0.60654(19) 0.5368(2) 0.88600(12)
H16 H 0.604(3) 0.533(4) 0.935(2)
O7 O 0.49494(14) 0.1679(2) 0.55334(11)
H17 H 0.4604 0.2347 0.5637
H18 H 0.4566 0.1279 0.5175
C1A C 0.8028(2) -0.0530(3) 0.24928(14)
C2A C 0.85517(19) -0.1744(3) 0.24911(14)
C3A C 0.8029(2) -0.2947(3) 0.25093(14)
C4A C 0.8584(2) 0.0784(3) 0.25209(15)
H1A H 0.8272 0.1400 0.2844
H2A H 0.9283 0.0648 0.2760
C5A C 0.8340(2) 0.0904(3) 0.10430(16)
H3A H 0.8103 0.0044 0.0927
C6A C 0.8871(2) 0.2857(3) 0.09721(17)
H4A H 0.9073 0.3652 0.0766
C7A C 0.96768(19) -0.1711(3) 0.24016(16)
H5A H 0.9828 -0.2490 0.2109
H6A H 0.9800 -0.0928 0.2102
C8A C 1.1362(2) -0.1972(3) 0.32428(17)
H7A H 1.1701 -0.2344 0.2866
C9A C 1.1017(2) -0.1145(3) 0.42661(18)
H8A H 1.1092 -0.0826 0.4772
C10A C 0.8597(2) -0.4271(3) 0.25824(16)
H9A H 0.8249 -0.4906 0.2215
H10A H 0.9279 -0.4144 0.2463
C11A C 0.8888(3) -0.4168(3) 0.40417(18)
H11A H 0.9066 -0.3272 0.4091
C12A C 0.8555(3) -0.6117(4) 0.4271(2)
H12A H 0.8450 -0.6890 0.4543
N1A N 0.84880(18) 0.1810(2) 0.05203(13)
N2A N 0.85755(17) 0.1385(2) 0.17522(13)
N3A N 0.8933(2) 0.2656(2) 0.17182(14)
N4A N 1.17971(16) -0.1655(2) 0.39541(13)
N5A N 1.03799(16) -0.1685(2) 0.31427(13)
N6A N 1.01340(18) -0.1133(3) 0.37987(14)
N7A N 0.8838(2) -0.4973(3) 0.46258(14)
N8A N 0.86500(18) -0.4797(2) 0.33715(13)
N9A N 0.8435(3) -0.6077(3) 0.35103(16)
Co1A Co 0.84281(3) 0.17061(3) -0.07102(2)
C13A C 0.8660(2) 0.5658(2) -0.15497(15)
C14A C 0.8600(2) 0.6914(3) -0.12313(16)
H13A H 0.8525 0.6990 -0.0712
C15A C 0.8648(2) 0.8066(2) -0.16697(16)
C16A C 0.8766(2) 0.7942(3) -0.24442(16)
H14A H 0.8795 0.8703 -0.2745
C17A C 0.8840(2) 0.6696(3) -0.27720(15)
C18A C 0.8780(2) 0.5560(3) -0.23240(15)
H15A H 0.8821 0.4723 -0.2546
C19A C 0.8557(2) 0.4428(3) -0.10793(17)
C20A C 0.85622(19) 0.9413(3) -0.13237(16)
C21A C 0.8949(2) 0.6596(3) -0.36066(17)
O1A O 0.85416(15) 0.33131(18) -0.14165(12)
O2A O 0.8478(2) 0.4543(2) -0.03824(13)
O3A O 0.85304(15) 0.95187(18) -0.05992(11)
O4A O 0.85105(15) 1.04253(17) -0.17397(11)
O5A O 0.9032(2) 0.7566(2) -0.40026(13)
O6A O 0.89346(19) 0.5368(2) -0.38600(12)
H16A H 0.896(3) 0.533(4) -0.435(2)
O7A O 1.00506(14) 0.1679(2) -0.05334(11)
H17A H 1.0396 0.2347 -0.0637
H18A H 1.0434 0.1279 -0.0175
Co1_2 Co 0.65719(3) 1.17061(3) 0.57102(2)
Co1A_2 Co 0.84281(3) 1.17061(3) -0.07102(2)
Co1B Co 1.34281(3) -0.17061(3) 0.42898(2)
Co1C Co 0.15719(3) -0.17061(3) 0.07102(2)
N4B N 0.67971(16) 0.1655(2) -0.10459(13)
N4C N 0.82029(16) 0.1655(2) 0.60459(13)
O3_2 O 0.64696(15) -0.04813(18) 0.55992(11)
O3A_2 O 0.85304(15) -0.04813(18) -0.05992(11)
O4_2 O 0.64895(15) 0.04253(17) 0.67397(11)
O4A_2 O 0.85105(15) 0.04253(17) -0.17397(11)
O8 O 0.36133(19) 0.3632(2) 0.58202(13)
H19 H 0.3655 0.4133 0.5440
H20 H 0.3106 0.3128 0.5689
O9 O 0.7900(3) 0.8413(3) 0.4648(2)
H21 H 0.8356 0.8642 0.4382
H22 H 0.8228 0.8123 0.5073
loop_
_geom_bond_atom_site_label_1
_geom_bond_atom_site_label_2
_geom_bond_site_symmetry_1
_geom_bond_site_symmetry_2
Co1 N1 1_555 1_555
C1 C2 1_555 1_555
C2 C3 1_555 1_555
C3 C10 1_555 1_555
C4 C1 1_555 1_555
H1 C4 1_555 1_555
H2 C4 1_555 1_555
C5 H3 1_555 1_555
C6 H4 1_555 1_555
C7 C2 1_555 1_555
H5 C7 1_555 1_555
H6 C7 1_555 1_555
C8 H7 1_555 1_555
C9 H8 1_555 1_555
C10 H9 1_555 1_555
H10 C10 1_555 1_555
C11 H11 1_555 1_555
C12 H12 1_555 1_555
C13 C14 1_555 1_555
C14 H13 1_555 1_555
C15 C14 1_555 1_555
C16 C15 1_555 1_555
H14 C16 1_555 1_555
C17 C16 1_555 1_555
C18 C13 1_555 1_555
H15 C18 1_555 1_555
C19 C13 1_555 1_555
C20 C15 1_555 1_555
C21 C17 1_555 1_555
N1 C5 1_555 1_555
N2 C4 1_555 1_555
N3 C6 1_555 1_555
N4 C8 1_555 1_555
N5 C7 1_555 1_555
N6 C9 1_555 1_555
N7 C11 1_555 1_555
N8 C10 1_555 1_555
N9 C12 1_555 1_555
O1 Co1 1_555 1_555
O2 C19 1_555 1_555
O3 C20 1_555 1_555
O4 C20 1_555 1_555
O5 C21 1_555 1_555
O6 C21 1_555 1_555
H16 O6 1_555 1_555
O7 Co1 1_555 1_555
H17 O7 1_555 1_555
H18 O7 1_555 1_555
O8 H19 1_555 1_555
H20 O8 1_555 1_555
O9 H21 1_555 1_555
H22 O9 1_555 1_555
C1A C1 1_555 1_555
C2A C1A 1_555 1_555
C3A C3 1_555 1_555
C4A C1A 1_555 1_555
H1A C4A 1_555 1_555
H2A C4A 1_555 1_555
C5A H3A 1_555 1_555
C6A H4A 1_555 1_555
C7A C2A 1_555 1_555
H5A C7A 1_555 1_555
H6A C7A 1_555 1_555
C8A H7A 1_555 1_555
C9A H8A 1_555 1_555
C10A C3A 1_555 1_555
H9A C10A 1_555 1_555
H10A C10A 1_555 1_555
C11A H11A 1_555 1_555
C12A H12A 1_555 1_555
N1A C5A 1_555 1_555
N2A C4A 1_555 1_555
N3A C6A 1_555 1_555
N4A C8A 1_555 1_555
N5A C7A 1_555 1_555
N6A C9A 1_555 1_555
N7A C11A 1_555 1_555
N8A C10A 1_555 1_555
N9A C12A 1_555 1_555
Co1A N1A 1_555 1_555
C13A C14A 1_555 1_555
C14A H13A 1_555 1_555
C15A C14A 1_555 1_555
C16A C15A 1_555 1_555
H14A C16A 1_555 1_555
C17A C16A 1_555 1_555
C18A C13A 1_555 1_555
H15A C18A 1_555 1_555
C19A C13A 1_555 1_555
C20A C15A 1_555 1_555
C21A C17A 1_555 1_555
O1A Co1A 1_555 1_555
O2A C19A 1_555 1_555
O3A C20A 1_555 1_555
O4A C20A 1_555 1_555
O5A C21A 1_555 1_555
O6A C21A 1_555 1_555
H16A O6A 1_555 1_555
O7A Co1A 1_555 1_555
H17A O7A 1_555 1_555
H18A O7A 1_555 1_555
Co1_2 O3 1_555 1_555
Co1A_2 O3A 1_555 1_555
Co1B N4A 1_555 1_555
Co1C N4 1_555 1_555
N4B Co1A 1_555 1_555
N4C Co1 1_555 1_555
O3_2 Co1 1_555 1_555
O3A_2 Co1A 1_555 1_555
O4_2 Co1 1_555 1_555
O4A_2 Co1A 1_555 1_555
C5 N2 1_555 1_555
C6 N1 1_555 1_555
C8 N5 1_555 1_555
C9 N4 1_555 1_555
C11 N8 1_555 1_555
C12 N7 1_555 1_555
C17 C18 1_555 1_555
C19 O1 1_555 1_555
N2 N3 1_555 1_555
N5 N6 1_555 1_555
N8 N9 1_555 1_555
O4 Co1_2 1_555 1_555
C2A C3A 1_555 1_555
C5A N2A 1_555 1_555
C6A N1A 1_555 1_555
C8A N5A 1_555 1_555
C9A N4A 1_555 1_555
C11A N8A 1_555 1_555
C12A N7A 1_555 1_555
N2A N3A 1_555 1_555
N5A N6A 1_555 1_555
N8A N9A 1_555 1_555
C17A C18A 1_555 1_555
C19A O1A 1_555 1_555
O4A Co1A_2 1_555 1_555

#END
