
#######################################################################
#
#                 Cambridge Crystallographic Data Centre
#                                CCDC 
#
#######################################################################
#
# If this CIF has been generated from an entry in the Cambridge 
# Structural Database, then it will include bibliographic, chemical, 
# crystal, experimental, refinement or atomic coordinate data resulting 
# from the CCDC's data processing and validation procedures.
#
#######################################################################

data_YINXEA
_symmetry_cell_setting           monoclinic
_symmetry_space_group_name_H-M   'P 2/n'
_symmetry_Int_Tables_number      13
_space_group_name_Hall           '-P 2yac'
loop_
_symmetry_equiv_pos_site_id
_symmetry_equiv_pos_as_xyz
1 x,y,z
2 1/2-x,y,1/2-z
3 -x,-y,-z
4 1/2+x,-y,1/2+z
_cell_length_a                   13.3950(5)
_cell_length_b                   10.1770(3)
_cell_length_c                   17.6620(9)
_cell_angle_alpha                90
_cell_angle_beta                 96.925(3)
_cell_angle_gamma                90
_cell_volume                     2390.14
loop_
_atom_site_label
_atom_site_type_symbol
_atom_site_fract_x
_atom_site_fract_y
_atom_site_fract_z
Cd1 Cd 0.158101(16) 1.18126(2) 1.070438(13)
N1 N 0.1525(2) 1.1849(2) 0.94124(16)
O1 O 0.1432(2) 1.3372(2) 1.15795(14)
O2 O 0.14496(19) 1.4444(2) 1.05031(14)
O3 O -0.01701(17) 1.1716(2) 1.05495(15)
N2 N 0.33303(19) 1.1711(3) 1.10544(17)
O4 O 0.14402(17) 0.9434(2) 1.06256(13)
O5 O 0.14658(17) 1.0360(2) 1.17488(13)
C1 C 0.1642(3) 1.0936(3) 0.8902(2)
C2 C 0.1191(3) 1.2889(3) 0.8973(2)
C3 C 0.1405(2) 1.4422(3) 1.12045(19)
H1 H -0.0537 1.1253 1.0231
H2 H -0.0513 1.2391 1.0606
H3 H 0.1852 1.0080 0.9017
N3 N 0.1423(2) 1.1401(3) 0.82090(15)
H4 H 0.1026 1.3692 0.9177
N4 N 0.1120(2) 1.2672(3) 0.82424(17)
C4 C 0.1304(2) 1.5682(3) 1.16324(18)
C5 C 0.1424(3) 1.0779(4) 0.74601(19)
C6 C 0.1361(2) 1.6895(3) 1.12887(19)
C7 C 0.1198(2) 1.5628(3) 1.24015(18)
C8 C 0.1976(2) 0.9480(3) 0.75021(17)
H5 H 0.1738 1.1369 0.7128
H6 H 0.0735 1.0639 0.7237
H7 H 0.1428 1.6939 1.0771
C9 C 0.1318(2) 1.8049(3) 1.17026(19)
C10 C 0.1137(2) 1.6769(3) 1.28235(19)
H8 H 0.1166 1.4815 1.2639
C11 C 0.1458(2) 0.8283(3) 0.75123(18)
C12 C 0.1208(2) 1.7971(3) 1.24722(19)
C13 C 0.1417(2) 1.9363(3) 1.13431(19)
C14 C 0.1033(3) 1.6707(3) 1.3648(2)
C15 C 0.1974(2) 0.7099(3) 0.74991(18)
C16 C 0.0340(2) 0.8323(4) 0.7604(2)
H9 H 0.1181 1.8738 1.2755
O6 O 0.0912(2) 1.7673(3) 1.40258(15)
O7 O 0.1076(2) 1.5506(3) 1.39193(15)
C17 C 0.1412(3) 0.5797(4) 0.74395(19)
H10 H 0.0177 0.7564 0.7897
H11 H 0.0206 0.9102 0.7891
N5 N -0.03185(19) 0.8332(3) 0.68753(16)
H12 H 0.107(4) 1.551(5) 1.434(3)
H13 H 0.1767 0.5160 0.7782
H14 H 0.0744 0.5915 0.7588
N6 N 0.1338(2) 0.5313(3) 0.66522(16)
C18 C -0.1282(2) 0.8009(3) 0.6760(2)
N7 N -0.0049(2) 0.8906(4) 0.62328(17)
C19 C 0.1131(3) 0.5958(4) 0.5999(2)
N8 N 0.1496(3) 0.4028(3) 0.6498(2)
H15 H -0.1639 0.7636 0.7126
C20 C -0.0886(3) 0.8841(4) 0.5760(2)
H16 H 0.0992 0.6853 0.5962
N9 N 0.1146(2) 0.5172(3) 0.54150(17)
C21 C 0.1365(3) 0.4010(5) 0.5746(2)
H17 H -0.0934 0.9152 0.5262
H18 H 0.1421 0.3245 0.5467
C8A C 0.3024(2) 0.9480(3) 0.74979(17)
C11A C 0.3542(2) 0.8283(3) 0.74877(18)
C5A C 0.3576(3) 1.0779(4) 0.75399(19)
O4_2 O 0.14402(17) 1.9434(2) 1.06256(13)
O5_2 O 0.14658(17) 2.0360(2) 1.17488(13)
C15A C 0.3026(2) 0.7099(3) 0.75009(18)
C16A C 0.4660(2) 0.8323(4) 0.7396(2)
H5A H 0.3262 1.1369 0.7872
H6A H 0.4265 1.0639 0.7763
N3A N 0.3577(2) 1.1401(3) 0.67910(15)
Cd1_2 Cd 0.158101(16) 2.18126(2) 1.070438(13)
C17A C 0.3588(3) 0.5797(4) 0.75605(19)
H10A H 0.4823 0.7564 0.7103
H11A H 0.4794 0.9102 0.7109
N5A N 0.53185(19) 0.8332(3) 0.81247(16)
C1A C 0.3358(3) 1.0936(3) 0.6098(2)
N4A N 0.3880(2) 1.2672(3) 0.67576(17)
H13A H 0.3233 0.5160 0.7218
H14A H 0.4256 0.5915 0.7412
N6A N 0.3662(2) 0.5313(3) 0.83478(16)
N2C N -0.16697(19) 0.8289(3) 0.60544(17)
C18A C 0.6282(2) 0.8009(3) 0.8240(2)
N7A N 0.5049(2) 0.8906(4) 0.87672(17)
H3A H 0.3148 1.0080 0.5983
N1A N 0.3475(2) 1.1849(2) 0.55876(16)
C2A C 0.3809(3) 1.2889(3) 0.6027(2)
C19A C 0.3869(3) 0.5958(4) 0.9001(2)
N8A N 0.3504(3) 0.4028(3) 0.8502(2)
Cd1C Cd -0.341899(16) 0.81874(2) 0.570438(13)
H15A H 0.6639 0.7636 0.7874
N2B N 0.66697(19) 0.8289(3) 0.89456(17)
C20A C 0.5886(3) 0.8841(4) 0.9240(2)
Cd1A Cd 0.341899(16) 1.18126(2) 0.429562(13)
H4A H 0.3974 1.3692 0.5823
H16A H 0.4008 0.6853 0.9038
N9A N 0.3854(2) 0.5172(3) 0.95850(17)
C21A C 0.3635(3) 0.4010(5) 0.9254(2)
Cd1B Cd 0.841899(16) 0.81874(2) 0.929562(13)
H17A H 0.5934 0.9152 0.9738
O1A O 0.3568(2) 1.3372(2) 0.34205(14)
O2A O 0.35504(19) 1.4444(2) 0.44969(14)
O3A O 0.51701(17) 1.1716(2) 0.44505(15)
N2A N 0.16697(19) 1.1711(3) 0.39456(17)
O4A O 0.35598(17) 0.9434(2) 0.43744(13)
O5A O 0.35342(17) 1.0360(2) 0.32512(13)
H18A H 0.3579 0.3245 0.9533
C3A C 0.3595(2) 1.4422(3) 0.37955(19)
H1A H 0.5537 1.1253 0.4769
H2A H 0.5513 1.2391 0.4394
C4A C 0.3696(2) 1.5682(3) 0.33676(18)
C6A C 0.3639(2) 1.6895(3) 0.37113(19)
C7A C 0.3802(2) 1.5628(3) 0.25985(18)
H7A H 0.3572 1.6939 0.4229
C9A C 0.3682(2) 1.8049(3) 0.32974(19)
C10A C 0.3863(2) 1.6769(3) 0.21765(19)
H8A H 0.3834 1.4815 0.2361
C12A C 0.3792(2) 1.7971(3) 0.25278(19)
C13A C 0.3583(2) 1.9363(3) 0.36569(19)
C14A C 0.3967(3) 1.6707(3) 0.1352(2)
H9A H 0.3819 1.8738 0.2245
O4A_2 O 0.35598(17) 1.9434(2) 0.43744(13)
O5A_2 O 0.35342(17) 2.0360(2) 0.32512(13)
O6A O 0.4088(2) 1.7673(3) 0.09742(15)
O7A O 0.3924(2) 1.5506(3) 0.10807(15)
Cd1A_2 Cd 0.341899(16) 2.18126(2) 0.429562(13)
H12A H 0.393(4) 1.551(5) 0.066(3)
O8 O -0.1415(2) 1.3791(3) 1.07258(15)
H19 H -0.1888 1.3263 1.0623
H20 H -0.1375 1.4306 1.0367
O9 O 0.2222(2) 1.8377(3) 1.5294(2)
H21 H 0.1778 1.8282 1.4908
H22 H 0.1849 1.8727 1.5608
loop_
_geom_bond_atom_site_label_1
_geom_bond_atom_site_label_2
_geom_bond_site_symmetry_1
_geom_bond_site_symmetry_2
Cd1 N1 1_555 1_555
N1 C1 1_555 1_555
O1 Cd1 1_555 1_555
O2 Cd1 1_555 1_555
O3 Cd1 1_555 1_555
N2 Cd1 1_555 1_555
O4 Cd1 1_555 1_555
O5 Cd1 1_555 1_555
C1 H3 1_555 1_555
C2 N1 1_555 1_555
C3 O1 1_555 1_555
H1 O3 1_555 1_555
H2 O3 1_555 1_555
N3 C1 1_555 1_555
H4 C2 1_555 1_555
N4 C2 1_555 1_555
C4 C3 1_555 1_555
C5 N3 1_555 1_555
C6 C4 1_555 1_555
C7 C4 1_555 1_555
C8 C5 1_555 1_555
H5 C5 1_555 1_555
H6 C5 1_555 1_555
H7 C6 1_555 1_555
C9 C6 1_555 1_555
C10 C7 1_555 1_555
H8 C7 1_555 1_555
C11 C8 1_555 1_555
C12 C9 1_555 1_555
C13 C9 1_555 1_555
C14 C10 1_555 1_555
C15 C11 1_555 1_555
C16 C11 1_555 1_555
H9 C12 1_555 1_555
O6 C14 1_555 1_555
O7 C14 1_555 1_555
C17 C15 1_555 1_555
H10 C16 1_555 1_555
H11 C16 1_555 1_555
N5 C16 1_555 1_555
H12 O7 1_555 1_555
H13 C17 1_555 1_555
H14 C17 1_555 1_555
N6 C17 1_555 1_555
C18 N5 1_555 1_555
N7 N5 1_555 1_555
C19 N6 1_555 1_555
N8 N6 1_555 1_555
H15 C18 1_555 1_555
C20 N7 1_555 1_555
H16 C19 1_555 1_555
N9 C19 1_555 1_555
C21 N8 1_555 1_555
H17 C20 1_555 1_555
H18 C21 1_555 1_555
O8 H19 1_555 1_555
H20 O8 1_555 1_555
O9 H21 1_555 1_555
H22 O9 1_555 1_555
C8A C8 1_555 1_555
C11A C8A 1_555 1_555
C5A C8A 1_555 1_555
O4_2 C13 1_555 1_555
O5_2 C13 1_555 1_555
C15A C15 1_555 1_555
C16A C11A 1_555 1_555
H5A C5A 1_555 1_555
H6A C5A 1_555 1_555
N3A C5A 1_555 1_555
Cd1_2 O4_2 1_555 1_555
C17A C15A 1_555 1_555
H10A C16A 1_555 1_555
H11A C16A 1_555 1_555
N5A C16A 1_555 1_555
C1A N3A 1_555 1_555
N4A N3A 1_555 1_555
H13A C17A 1_555 1_555
H14A C17A 1_555 1_555
N6A C17A 1_555 1_555
N2C C18 1_555 1_555
C18A N5A 1_555 1_555
N7A N5A 1_555 1_555
H3A C1A 1_555 1_555
N1A C1A 1_555 1_555
C2A N4A 1_555 1_555
C19A N6A 1_555 1_555
N8A N6A 1_555 1_555
Cd1C N2C 1_555 1_555
H15A C18A 1_555 1_555
N2B C18A 1_555 1_555
C20A N7A 1_555 1_555
Cd1A N1A 1_555 1_555
H4A C2A 1_555 1_555
H16A C19A 1_555 1_555
N9A C19A 1_555 1_555
C21A N8A 1_555 1_555
Cd1B N2B 1_555 1_555
H17A C20A 1_555 1_555
O1A Cd1A 1_555 1_555
O2A Cd1A 1_555 1_555
O3A Cd1A 1_555 1_555
N2A Cd1A 1_555 1_555
O4A Cd1A 1_555 1_555
O5A Cd1A 1_555 1_555
H18A C21A 1_555 1_555
C3A O1A 1_555 1_555
H1A O3A 1_555 1_555
H2A O3A 1_555 1_555
C4A C3A 1_555 1_555
C6A C4A 1_555 1_555
C7A C4A 1_555 1_555
H7A C6A 1_555 1_555
C9A C6A 1_555 1_555
C10A C7A 1_555 1_555
H8A C7A 1_555 1_555
C12A C9A 1_555 1_555
C13A C9A 1_555 1_555
C14A C10A 1_555 1_555
H9A C12A 1_555 1_555
O4A_2 C13A 1_555 1_555
O5A_2 C13A 1_555 1_555
O6A C14A 1_555 1_555
O7A C14A 1_555 1_555
Cd1A_2 O4A_2 1_555 1_555
H12A O7A 1_555 1_555
O2 C3 1_555 1_555
N3 N4 1_555 1_555
C10 C12 1_555 1_555
C20 N2C 1_555 1_555
N9 C21 1_555 1_555
C11A C15A 1_555 1_555
O5_2 Cd1_2 1_555 1_555
N1A C2A 1_555 1_555
N2B C20A 1_555 1_555
N9A C21A 1_555 1_555
O2A C3A 1_555 1_555
C10A C12A 1_555 1_555
O5A_2 Cd1A_2 1_555 1_555

#END
