
#######################################################################
#
#                 Cambridge Crystallographic Data Centre
#                                CCDC 
#
#######################################################################
#
# If this CIF has been generated from an entry in the Cambridge 
# Structural Database, then it will include bibliographic, chemical, 
# crystal, experimental, refinement or atomic coordinate data resulting 
# from the CCDC's data processing and validation procedures.
#
#######################################################################

data_YINYEB
_symmetry_cell_setting           triclinic
_symmetry_space_group_name_H-M   'P -1'
_symmetry_Int_Tables_number      2
_space_group_name_Hall           '-P 1'
loop_
_symmetry_equiv_pos_site_id
_symmetry_equiv_pos_as_xyz
1 x,y,z
2 -x,-y,-z
_cell_length_a                   12.9380(8)
_cell_length_b                   14.0410(10)
_cell_length_c                   15.3420(10)
_cell_angle_alpha                106.161(6)
_cell_angle_beta                 114.154(6)
_cell_angle_gamma                99.768(6)
_cell_volume                     2311.18
loop_
_atom_site_label
_atom_site_type_symbol
_atom_site_fract_x
_atom_site_fract_y
_atom_site_fract_z
Ag1 Ag 0.77178(8) 0.31219(8) 0.30837(9)
Ag2 Ag 0.83012(8) -0.07624(8) 0.17290(8)
Ag3 Ag 0.02335(6) 0.18626(6) 0.61338(6)
C1 C 0.4573(6) 0.0604(6) 0.4420(6)
C2 C 0.4875(6) -0.0268(6) 0.4000(6)
C3 C 0.4706(6) 0.0864(6) 0.5422(6)
C4 C 0.4137(7) 0.1262(7) 0.3806(7)
H1 H 0.3628 0.0810 0.3080
H2 H 0.3662 0.1614 0.4044
C5 C 0.5534(9) 0.2060(9) 0.3257(9)
H3 H 0.5160 0.1589 0.2572
C6 C 0.6718(10) 0.3301(10) 0.4660(10)
H4 H 0.7363 0.3896 0.5159
C7 C 0.4699(7) -0.0586(7) 0.2912(6)
H5 H 0.4274 -0.1332 0.2539
H6 H 0.4207 -0.0223 0.2558
C8 C 0.6089(8) -0.0809(7) 0.2161(7)
H7 H 0.5559 -0.1393 0.1558
C9 C 0.7602(8) 0.0465(8) 0.3342(7)
H8 H 0.8370 0.0948 0.3716
C10 C 0.4402(7) 0.1798(6) 0.5880(6)
H9 H 0.4894 0.2090 0.6627
H10 H 0.4580 0.2331 0.5626
C11 C 0.2638(7) 0.1846(6) 0.6204(6)
H11 H 0.3054 0.2312 0.6892
C12 C 0.1285(7) 0.0803(7) 0.4708(7)
H12 H 0.0530 0.0398 0.4153
C13 C 1.0320(7) 0.4400(6) 0.0607(6)
C14 C 1.0969(6) 0.5453(7) 0.0993(6)
C15 C 0.9345(7) 0.3933(6) -0.0401(6)
C16 C 1.0632(8) 0.3739(7) 0.1248(7)
H13 H 1.0317 0.3007 0.0788
H14 H 1.1496 0.3926 0.1633
C17 C 0.9157(8) 0.3295(9) 0.1878(8)
H15 H 0.8630 0.2682 0.1307
C18 C 0.9990(9) 0.4568(8) 0.3283(8)
H16 H 1.0142 0.5032 0.3920
C19 C 1.2049(6) 0.5996(6) 0.2080(6)
H17 H 1.2188 0.5489 0.2397
H18 H 1.2755 0.6270 0.2032
C20 C 1.0917(7) 0.6868(7) 0.2862(7)
H19 H 1.0213 0.6306 0.2534
C21 C 1.2239(7) 0.8344(7) 0.3778(7)
H20 H 1.2625 0.9040 0.4238
C22 C 0.8605(7) 0.2788(7) -0.0802(7)
H21 H 0.8514 0.2659 -0.0244
H22 H 0.7813 0.2667 -0.1349
C23 C 1.0197(8) 0.2125(8) -0.1127(7)
H23 H 1.0821 0.2754 -0.0805
C24 C 0.9157(9) 0.0555(8) -0.1922(9)
H24 H 0.8926 -0.0166 -0.2274
C25 C 0.3399(7) 0.4194(6) 0.9675(6)
C26 C 0.3929(7) 0.5147(7) 1.0549(6)
C27 C 0.4848(8) 0.5194(7) 1.1453(7)
H25 H 0.5212 0.5817 1.2035
C28 C 0.5246(8) 0.4351(8) 1.1523(7)
C29 C 0.4754(10) 0.3445(8) 1.0665(8)
H26 H 0.5037 0.2882 1.0693
C30 C 0.3840(8) 0.3377(7) 0.9764(7)
H27 H 0.3500 0.2753 0.9186
C31 C 0.2387(8) 0.3939(8) 0.8601(7)
C32 C 0.3663(7) 0.6176(7) 1.0642(7)
C33 C 0.7426(9) 0.6456(8) 1.5419(7)
C34 C 0.8197(8) 0.6421(7) 1.4983(7)
C35 C 0.7722(9) 0.5747(8) 1.3959(7)
H28 H 0.8222 0.5716 1.3663
C36 C 0.6556(9) 0.5130(8) 1.3372(7)
C37 C 0.5779(9) 0.5181(9) 1.3773(8)
H29 H 0.4970 0.4792 1.3364
C38 C 0.6226(9) 0.5816(8) 1.4787(8)
H30 H 0.5713 0.5825 1.5070
C39 C 0.7733(11) 0.7055(9) 1.6523(9)
C40 C 0.9512(10) 0.7037(11) 1.5485(10)
N1 N 0.6542(8) 0.2844(7) 0.3707(8)
N2 N 0.5133(6) 0.2040(6) 0.3917(6)
N3 N 0.5895(8) 0.2836(7) 0.4833(7)
N4 N 0.7203(6) -0.0325(6) 0.2408(6)
N5 N 0.5838(6) -0.0347(5) 0.2891(5)
N6 N 0.6812(6) 0.0485(6) 0.3669(6)
N7 N 0.1461(6) 0.1401(5) 0.5651(5)
N8 N 0.3132(5) 0.1514(5) 0.5611(5)
N9 N 0.2264(6) 0.0846(6) 0.4647(5)
N10 N 0.9016(7) 0.3694(7) 0.2687(7)
N11 N 1.0150(6) 0.3878(6) 0.1981(6)
N12 N 1.0705(7) 0.4703(6) 0.2884(6)
N13 N 1.1115(6) 0.7795(6) 0.3523(5)
N14 N 1.1860(6) 0.6850(5) 0.2731(5)
N15 N 1.2727(6) 0.7802(6) 0.3317(6)
N16 N 1.0256(7) 0.1189(6) -0.1576(6)
N17 N 0.9123(6) 0.2030(5) -0.1205(6)
N18 N 0.8430(7) 0.1009(6) -0.1733(7)
O1 O 0.2117(6) 0.3087(6) 0.7923(5)
O2 O 0.1817(6) 0.4583(6) 0.8437(5)
O3 O 0.2824(6) 0.6219(6) 0.9864(5)
O4 O 0.4260(6) 0.6924(5) 1.1466(5)
O5 O 1.0100(7) 0.6786(8) 1.5079(7)
O6 O 0.9965(6) 0.7848(7) 1.6336(7)
O7 O 0.8703(8) 0.7827(7) 1.7115(6)
H31 H 0.9068 0.7900 1.6797
O8 O 0.7024(8) 0.6793(8) 1.6823(6)
O9 O 0.6217(7) 0.4410(6) 1.2400(5)
C1A C 0.5427(6) -0.0604(6) 0.5580(6)
C2A C 0.5125(6) 0.0268(6) 0.6000(6)
C3A C 0.5294(6) -0.0864(6) 0.4578(6)
C4A C 0.5863(7) -0.1262(7) 0.6194(7)
H1A H 0.6372 -0.0810 0.6920
H2A H 0.6338 -0.1614 0.5956
C5A C 0.4466(9) -0.2060(9) 0.6743(9)
H3A H 0.4840 -0.1589 0.7428
C6A C 0.3282(10) -0.3301(10) 0.5340(10)
H4A H 0.2637 -0.3896 0.4841
C7A C 0.5301(7) 0.0586(7) 0.7088(6)
H5A H 0.5726 0.1332 0.7461
H6A H 0.5793 0.0223 0.7442
C8A C 0.3911(8) 0.0809(7) 0.7839(7)
H7A H 0.4441 0.1393 0.8442
C9A C 0.2398(8) -0.0465(8) 0.6658(7)
H8A H 0.1630 -0.0948 0.6284
C10A C 0.5598(7) -0.1798(6) 0.4120(6)
H9A H 0.5106 -0.2090 0.3373
H10A H 0.5420 -0.2331 0.4374
C11A C 0.7362(7) -0.1846(6) 0.3796(6)
H11A H 0.6946 -0.2312 0.3108
C12A C 0.8715(7) -0.0803(7) 0.5292(7)
H12A H 0.9470 -0.0398 0.5847
N1A N 0.3458(8) -0.2844(7) 0.6293(8)
N2A N 0.4867(6) -0.2040(6) 0.6083(6)
N3A N 0.4105(8) -0.2836(7) 0.5167(7)
N4A N 0.2797(6) 0.0325(6) 0.7592(6)
N5A N 0.4162(6) 0.0347(5) 0.7109(5)
N6A N 0.3188(6) -0.0485(6) 0.6331(6)
N7A N 0.8539(6) -0.1401(5) 0.4349(5)
N8A N 0.6868(5) -0.1514(5) 0.4389(5)
N9A N 0.7736(6) -0.0846(6) 0.5353(5)
C13A C 0.9680(7) 0.5600(6) -0.0607(6)
C14A C 0.9031(6) 0.4547(7) -0.0993(6)
C15A C 1.0655(7) 0.6067(6) 0.0401(6)
C16A C 0.9368(8) 0.6261(7) -0.1248(7)
H13A H 0.9683 0.6993 -0.0788
H14A H 0.8504 0.6074 -0.1633
C17A C 1.0843(8) 0.6705(9) -0.1878(8)
H15A H 1.1370 0.7318 -0.1307
C18A C 1.0010(9) 0.5432(8) -0.3283(8)
H16A H 0.9858 0.4968 -0.3920
C19A C 0.7951(6) 0.4004(6) -0.2080(6)
H17A H 0.7812 0.4511 -0.2397
H18A H 0.7245 0.3730 -0.2032
C20A C 0.9083(7) 0.3132(7) -0.2862(7)
H19A H 0.9787 0.3694 -0.2534
C21A C 0.7761(7) 0.1656(7) -0.3778(7)
H20A H 0.7375 0.0960 -0.4238
C22A C 1.1395(7) 0.7212(7) 0.0802(7)
H21A H 1.1486 0.7341 0.0244
H22A H 1.2187 0.7333 0.1349
C23A C 0.9803(8) 0.7875(8) 0.1127(7)
H23A H 0.9179 0.7246 0.0805
C24A C 1.0843(9) 0.9445(8) 0.1922(9)
H24A H 1.1074 1.0166 0.2274
N10A N 1.0984(7) 0.6306(7) -0.2687(7)
N11A N 0.9850(6) 0.6122(6) -0.1981(6)
N12A N 0.9295(7) 0.5297(6) -0.2884(6)
N13A N 0.8885(6) 0.2205(6) -0.3523(5)
N14A N 0.8140(6) 0.3150(5) -0.2731(5)
N15A N 0.7273(6) 0.2198(6) -0.3317(6)
N16A N 0.9744(7) 0.8811(6) 0.1576(6)
N17A N 1.0877(6) 0.7970(5) 0.1205(6)
N18A N 1.1570(7) 0.8991(6) 0.1733(7)
Ag1A Ag 0.22822(8) -0.31219(8) 0.69163(9)
Ag2A Ag 0.16988(8) 0.07624(8) 0.82710(8)
Ag3A Ag 0.97665(6) -0.18626(6) 0.38662(6)
C25A C 0.6601(7) -0.4194(6) 0.0325(6)
C26A C 0.6071(7) -0.5147(7) -0.0549(6)
C27A C 0.5152(8) -0.5194(7) -0.1453(7)
H25A H 0.4788 -0.5817 -0.2035
C28A C 0.4754(8) -0.4351(8) -0.1523(7)
C29A C 0.5246(10) -0.3445(8) -0.0665(8)
H26A H 0.4963 -0.2882 -0.0693
C30A C 0.6160(8) -0.3377(7) 0.0236(7)
H27A H 0.6500 -0.2753 0.0814
C31A C 0.7613(8) -0.3939(8) 0.1399(7)
C32A C 0.6337(7) -0.6176(7) -0.0642(7)
C33A C 0.2574(9) -0.6456(8) -0.5419(7)
C34A C 0.1803(8) -0.6421(7) -0.4983(7)
C35A C 0.2278(9) -0.5747(8) -0.3959(7)
H28A H 0.1778 -0.5716 -0.3663
C36A C 0.3444(9) -0.5130(8) -0.3372(7)
C37A C 0.4221(9) -0.5181(9) -0.3773(8)
H29A H 0.5030 -0.4792 -0.3364
C38A C 0.3774(9) -0.5816(8) -0.4787(8)
H30A H 0.4287 -0.5825 -0.5070
C39A C 0.2267(11) -0.7055(9) -0.6523(9)
C40A C 0.0488(10) -0.7037(11) -0.5485(10)
O1A O 0.7883(6) -0.3087(6) 0.2077(5)
O2A O 0.8183(6) -0.4583(6) 0.1563(5)
O3A O 0.7176(6) -0.6219(6) 0.0136(5)
O4A O 0.5740(6) -0.6924(5) -0.1466(5)
O5A O -0.0100(7) -0.6786(8) -0.5079(7)
O6A O 0.0035(6) -0.7848(7) -0.6336(7)
O7A O 0.1297(8) -0.7827(7) -0.7115(6)
H31A H 0.0932 -0.7900 -0.6797
O8A O 0.2976(8) -0.6793(8) -0.6823(6)
O9A O 0.3783(7) -0.4410(6) -0.2400(5)
Ag1A_2 Ag 1.22822(8) 0.68781(8) -0.30837(9)
Ag2_2 Ag 0.83012(8) 0.92376(8) 0.17290(8)
Ag2A_2 Ag 1.16988(8) 0.07624(8) -0.17290(8)
Ag3_2 Ag 1.02335(6) 0.18626(6) -0.38662(6)
Ag3A_2 Ag 0.97665(6) 0.81374(6) 0.38662(6)
N10A_2 N 0.0984(7) -0.3694(7) 0.7313(7)
N13_2 N 1.1115(6) -0.2205(6) 0.3523(5)
N13A_2 N -0.1115(6) 0.2205(6) 0.6477(5)
N16_2 N 0.0256(7) 0.1189(6) 0.8424(6)
N16A_2 N 0.9744(7) -0.1189(6) 0.1576(6)
O10 O 0.6841(18) -0.041(3) -0.0231(15)
O11 O 0.6171(17) 0.1485(14) 0.1250(15)
O12 O 0.0086(19) 0.1124(15) 0.0588(14)
O13 O 0.756(2) 0.7548(19) 0.8847(17)
O14? O 0.783(3) 0.054(2) 0.0590(19)
O15? O 0.625(3) 0.002(3) -0.085(3)
loop_
_geom_bond_atom_site_label_1
_geom_bond_atom_site_label_2
_geom_bond_site_symmetry_1
_geom_bond_site_symmetry_2
Ag1 N1 1_555 1_555
Ag2 N4 1_555 1_555
Ag3 N7 1_555 1_555
C1 C2 1_555 1_555
C2 C7 1_555 1_555
C3 C1 1_555 1_555
C4 C1 1_555 1_555
H1 C4 1_555 1_555
H2 C4 1_555 1_555
C5 H3 1_555 1_555
C6 H4 1_555 1_555
C7 H5 1_555 1_555
H6 C7 1_555 1_555
C8 H7 1_555 1_555
C9 H8 1_555 1_555
C10 C3 1_555 1_555
H9 C10 1_555 1_555
H10 C10 1_555 1_555
C11 H11 1_555 1_555
C12 H12 1_555 1_555
C13 C14 1_555 1_555
C14 C19 1_555 1_555
C15 C13 1_555 1_555
C16 C13 1_555 1_555
H13 C16 1_555 1_555
H14 C16 1_555 1_555
C17 H15 1_555 1_555
C18 H16 1_555 1_555
C19 H17 1_555 1_555
H18 C19 1_555 1_555
C20 H19 1_555 1_555
C21 H20 1_555 1_555
C22 C15 1_555 1_555
H21 C22 1_555 1_555
H22 C22 1_555 1_555
C23 H23 1_555 1_555
C24 H24 1_555 1_555
C25 C26 1_555 1_555
C26 C27 1_555 1_555
C27 H25 1_555 1_555
C28 C27 1_555 1_555
C29 C28 1_555 1_555
H26 C29 1_555 1_555
C30 C25 1_555 1_555
H27 C30 1_555 1_555
C31 C25 1_555 1_555
C32 C26 1_555 1_555
C33 C34 1_555 1_555
C34 C35 1_555 1_555
C35 H28 1_555 1_555
C36 C35 1_555 1_555
C37 C36 1_555 1_555
H29 C37 1_555 1_555
C38 C33 1_555 1_555
H30 C38 1_555 1_555
C39 C33 1_555 1_555
C40 C34 1_555 1_555
N1 C5 1_555 1_555
N2 C4 1_555 1_555
N3 C6 1_555 1_555
N4 C8 1_555 1_555
N5 C7 1_555 1_555
N6 C9 1_555 1_555
N7 C11 1_555 1_555
N8 C10 1_555 1_555
N9 C12 1_555 1_555
N10 Ag1 1_555 1_555
N11 C16 1_555 1_555
N12 C18 1_555 1_555
N13 C20 1_555 1_555
N14 C19 1_555 1_555
N15 C21 1_555 1_555
N16 C23 1_555 1_555
N17 C22 1_555 1_555
N18 C24 1_555 1_555
O1 Ag3 1_555 1_555
O2 C31 1_555 1_555
O3 C32 1_555 1_555
O4 C32 1_555 1_555
O5 C40 1_555 1_555
O6 C40 1_555 1_555
O7 C39 1_555 1_555
H31 O7 1_555 1_555
O8 C39 1_555 1_555
O9 C28 1_555 1_555
C1A C2A 1_555 1_555
C2A C3 1_555 1_555
C3A C2 1_555 1_555
C4A C1A 1_555 1_555
H1A C4A 1_555 1_555
H2A C4A 1_555 1_555
C5A H3A 1_555 1_555
C6A H4A 1_555 1_555
C7A C2A 1_555 1_555
H5A C7A 1_555 1_555
H6A C7A 1_555 1_555
C8A H7A 1_555 1_555
C9A H8A 1_555 1_555
C10A C3A 1_555 1_555
H9A C10A 1_555 1_555
H10A C10A 1_555 1_555
C11A H11A 1_555 1_555
C12A H12A 1_555 1_555
N1A C5A 1_555 1_555
N2A C4A 1_555 1_555
N3A C6A 1_555 1_555
N4A C8A 1_555 1_555
N5A C7A 1_555 1_555
N6A C9A 1_555 1_555
N7A C11A 1_555 1_555
N8A C10A 1_555 1_555
N9A C12A 1_555 1_555
C13A C14A 1_555 1_555
C14A C15 1_555 1_555
C15A C14 1_555 1_555
C16A C13A 1_555 1_555
H13A C16A 1_555 1_555
H14A C16A 1_555 1_555
C17A H15A 1_555 1_555
C18A H16A 1_555 1_555
C19A C14A 1_555 1_555
H17A C19A 1_555 1_555
H18A C19A 1_555 1_555
C20A H19A 1_555 1_555
C21A H20A 1_555 1_555
C22A C15A 1_555 1_555
H21A C22A 1_555 1_555
H22A C22A 1_555 1_555
C23A H23A 1_555 1_555
C24A H24A 1_555 1_555
N10A C17A 1_555 1_555
N11A C16A 1_555 1_555
N12A C18A 1_555 1_555
N13A C20A 1_555 1_555
N14A C19A 1_555 1_555
N15A C21A 1_555 1_555
N16A C23A 1_555 1_555
N17A C22A 1_555 1_555
N18A C24A 1_555 1_555
Ag1A N1A 1_555 1_555
Ag2A N4A 1_555 1_555
Ag3A N7A 1_555 1_555
C25A C26A 1_555 1_555
C26A C27A 1_555 1_555
C27A H25A 1_555 1_555
C28A C27A 1_555 1_555
C29A C28A 1_555 1_555
H26A C29A 1_555 1_555
C30A C25A 1_555 1_555
H27A C30A 1_555 1_555
C31A C25A 1_555 1_555
C32A C26A 1_555 1_555
C33A C34A 1_555 1_555
C34A C35A 1_555 1_555
C35A H28A 1_555 1_555
C36A C35A 1_555 1_555
C37A C36A 1_555 1_555
H29A C37A 1_555 1_555
C38A C33A 1_555 1_555
H30A C38A 1_555 1_555
C39A C33A 1_555 1_555
C40A C34A 1_555 1_555
O1A Ag3A 1_555 1_555
O2A C31A 1_555 1_555
O3A C32A 1_555 1_555
O4A C32A 1_555 1_555
O5A C40A 1_555 1_555
O6A C40A 1_555 1_555
O7A C39A 1_555 1_555
H31A O7A 1_555 1_555
O8A C39A 1_555 1_555
O9A C28A 1_555 1_555
Ag1A_2 N10A 1_555 1_555
Ag2_2 N16A 1_555 1_555
Ag2A_2 N16 1_555 1_555
Ag3_2 N13A 1_555 1_555
Ag3A_2 N13 1_555 1_555
N10A_2 Ag1A 1_555 1_555
N13_2 Ag3A 1_555 1_555
N13A_2 Ag3 1_555 1_555
N16_2 Ag2A 1_555 1_555
N16A_2 Ag2 1_555 1_555
C5 N2 1_555 1_555
C6 N1 1_555 1_555
C8 N5 1_555 1_555
C9 N4 1_555 1_555
C11 N8 1_555 1_555
C12 N7 1_555 1_555
C17 N10 1_555 1_555
C17 N11 1_555 1_555
C18 N10 1_555 1_555
C20 N14 1_555 1_555
C21 N13 1_555 1_555
C23 N17 1_555 1_555
C24 N16 1_555 1_555
C29 C30 1_555 1_555
C31 O1 1_555 1_555
C36 O9 1_555 1_555
C37 C38 1_555 1_555
N2 N3 1_555 1_555
N5 N6 1_555 1_555
N8 N9 1_555 1_555
N11 N12 1_555 1_555
N14 N15 1_555 1_555
N17 N18 1_555 1_555
C1A C3A 1_555 1_555
C5A N2A 1_555 1_555
C6A N1A 1_555 1_555
C8A N5A 1_555 1_555
C9A N4A 1_555 1_555
C11A N8A 1_555 1_555
C12A N7A 1_555 1_555
N2A N3A 1_555 1_555
N5A N6A 1_555 1_555
N8A N9A 1_555 1_555
C13A C15A 1_555 1_555
C17A N11A 1_555 1_555
C18A N10A 1_555 1_555
C20A N14A 1_555 1_555
C21A N13A 1_555 1_555
C23A N17A 1_555 1_555
C24A N16A 1_555 1_555
N11A N12A 1_555 1_555
N14A N15A 1_555 1_555
N17A N18A 1_555 1_555
C29A C30A 1_555 1_555
C31A O1A 1_555 1_555
C36A O9A 1_555 1_555
C37A C38A 1_555 1_555

#END
