
#######################################################################
#
#                 Cambridge Crystallographic Data Centre
#                                CCDC 
#
#######################################################################
#
# If this CIF has been generated from an entry in the Cambridge 
# Structural Database, then it will include bibliographic, chemical, 
# crystal, experimental, refinement or atomic coordinate data resulting 
# from the CCDC's data processing and validation procedures.
#
#######################################################################

data_YIPBOQ
_symmetry_cell_setting           triclinic
_symmetry_space_group_name_H-M   'P -1'
_symmetry_Int_Tables_number      2
_space_group_name_Hall           '-P 1'
loop_
_symmetry_equiv_pos_site_id
_symmetry_equiv_pos_as_xyz
1 x,y,z
2 -x,-y,-z
_cell_length_a                   8.3100(3)
_cell_length_b                   13.3694(5)
_cell_length_c                   13.6725(6)
_cell_angle_alpha                76.094(4)
_cell_angle_beta                 82.749(3)
_cell_angle_gamma                81.674(3)
_cell_volume                     1452.33
loop_
_atom_site_label
_atom_site_type_symbol
_atom_site_fract_x
_atom_site_fract_y
_atom_site_fract_z
Ag1 Ag 0.320844(18) 0.789750(12) 0.731001(11)
N1 N 0.24538(19) 0.75373(13) 0.58780(12)
N2 N 0.35670(18) 0.74315(13) 0.50858(12)
N3 N 0.53518(19) 0.86071(13) 0.61696(12)
N4 N 0.58393(18) 0.82400(13) 0.53200(12)
N5 N 1.32184(19) 0.76295(13) 0.89868(12)
N6 N 1.17909(19) 0.76465(13) 0.95972(12)
N7 N 1.04019(19) 0.88000(13) 0.76191(12)
N8 N 0.96406(18) 0.84948(12) 0.85616(12)
C1 C 0.7594(2) 0.55542(15) 0.73643(16)
C2 C 0.7065(2) 0.64011(15) 0.66095(15)
H1 H 0.7610 0.7005 0.6458
C3 C 0.5760(2) 0.63802(15) 0.60754(15)
C4 C 0.4959(3) 0.54962(17) 0.62939(17)
H2 H 0.4066 0.5474 0.5932
C5 C 0.5468(3) 0.46487(17) 0.70416(19)
H3 H 0.4916 0.4047 0.7195
C6 C 0.6779(3) 0.46739(16) 0.75675(18)
H4 H 0.7126 0.4085 0.8072
C7 C 0.5307(2) 0.72859(15) 0.52057(14)
H5 H 0.5900 0.7120 0.4570
C8 C 0.1014(2) 0.76905(16) 0.55026(16)
H6 H -0.0007 0.7801 0.5884
C9 C 0.1191(2) 0.76684(17) 0.44769(16)
H7 H 0.0349 0.7747 0.4045
C10 C 0.2844(2) 0.75079(16) 0.42310(15)
H8 H 0.3381 0.7459 0.3585
C11 C 0.6183(2) 0.94114(16) 0.60655(15)
H9 H 0.6091 0.9833 0.6543
C12 C 0.7210(2) 0.95572(17) 0.51626(16)
H10 H 0.7926 1.0075 0.4919
C13 C 0.6965(2) 0.87951(16) 0.47054(15)
H11 H 0.7485 0.8677 0.4076
C14 C 0.8965(2) 0.56123(15) 0.79445(15)
C15 C 1.0160(2) 0.47640(16) 0.81992(16)
H12 H 1.0112 0.4141 0.7991
C16 C 1.1413(2) 0.48320(16) 0.87548(16)
H13 H 1.2224 0.4256 0.8918
C17 C 1.1491(2) 0.57302(15) 0.90724(15)
H14 H 1.2340 0.5764 0.9464
C18 C 1.0325(2) 0.65837(15) 0.88168(14)
C19 C 0.9072(2) 0.65181(15) 0.82529(14)
H15 H 0.8278 0.7102 0.8076
C20 C 1.0252(2) 0.75396(15) 0.92496(14)
H16 H 0.9442 0.7443 0.9861
C21 C 1.4339(2) 0.77247(16) 0.95652(16)
H17 H 1.5469 0.7736 0.9346
C22 C 1.3651(3) 0.78060(16) 1.05332(16)
H18 H 1.4196 0.7881 1.1077
C23 C 1.2018(2) 0.77548(15) 1.05262(15)
H19 H 1.1199 0.7789 1.1072
C24 C 0.9586(2) 0.97131(16) 0.72410(15)
H20 H 0.9839 1.0123 0.6583
C25 C 0.8305(2) 0.99996(16) 0.79283(16)
H21 H 0.7552 1.0613 0.7833
C26 C 0.8380(2) 0.92002(16) 0.87667(15)
H22 H 0.7679 0.9149 0.9378
Ag1_2 Ag 1.320844(18) 0.789750(12) 0.731001(11)
N5_2 N 0.32184(19) 0.76295(13) 0.89868(12)
N7_2 N 0.04019(19) 0.88000(13) 0.76191(12)
S1 S 0.26233(6) 0.19331(4) 0.79798(3)
F1 F 0.42885(15) 0.02880(10) 0.90080(10)
F2 F 0.17383(15) 0.01449(10) 0.90272(9)
F3 F 0.33638(17) 0.00509(10) 0.76831(10)
O1 O 0.24033(17) 0.23129(11) 0.88965(11)
O2 O 0.11770(18) 0.20692(13) 0.74551(12)
O3 O 0.41026(18) 0.21748(12) 0.73397(11)
C27 C 0.3018(2) 0.05312(16) 0.84508(15)
N9 N -0.1745(6) 0.5579(4) 0.4322(3)
C28 C -0.0637(9) 0.5232(6) 0.4789(6)
C29 C 0.0753(10) 0.4834(6) 0.5401(6)
H23 H 0.1778 0.4940 0.4970
H24 H 0.0726 0.4091 0.5695
H25 H 0.0679 0.5206 0.5945
N9A N 0.1745(6) 0.4421(4) 0.5678(3)
C28A C 0.0637(9) 0.4768(6) 0.5211(6)
C29A C -0.0753(10) 0.5166(6) 0.4599(6)
H23A H -0.1778 0.5060 0.5030
H24A H -0.0726 0.5909 0.4305
H25A H -0.0679 0.4794 0.4055
loop_
_geom_bond_atom_site_label_1
_geom_bond_atom_site_label_2
_geom_bond_site_symmetry_1
_geom_bond_site_symmetry_2
Ag1 N1 1_555 1_555
N1 N2 1_555 1_555
N2 C7 1_555 1_555
N3 Ag1 1_555 1_555
N4 N3 1_555 1_555
N5 N6 1_555 1_555
N6 C20 1_555 1_555
N7 N8 1_555 1_555
N8 C20 1_555 1_555
C1 C2 1_555 1_555
C2 H1 1_555 1_555
C3 C2 1_555 1_555
C4 C3 1_555 1_555
H2 C4 1_555 1_555
C5 C4 1_555 1_555
H3 C5 1_555 1_555
C6 C1 1_555 1_555
H4 C6 1_555 1_555
C7 N4 1_555 1_555
H5 C7 1_555 1_555
C8 N1 1_555 1_555
H6 C8 1_555 1_555
C9 C8 1_555 1_555
H7 C9 1_555 1_555
C10 N2 1_555 1_555
H8 C10 1_555 1_555
C11 N3 1_555 1_555
H9 C11 1_555 1_555
C12 C11 1_555 1_555
H10 C12 1_555 1_555
C13 N4 1_555 1_555
H11 C13 1_555 1_555
C14 C1 1_555 1_555
C15 C14 1_555 1_555
H12 C15 1_555 1_555
C16 C15 1_555 1_555
H13 C16 1_555 1_555
C17 C16 1_555 1_555
H14 C17 1_555 1_555
C18 C17 1_555 1_555
C19 C14 1_555 1_555
H15 C19 1_555 1_555
C20 C18 1_555 1_555
H16 C20 1_555 1_555
C21 N5 1_555 1_555
H17 C21 1_555 1_555
C22 C21 1_555 1_555
H18 C22 1_555 1_555
C23 N6 1_555 1_555
H19 C23 1_555 1_555
C24 N7 1_555 1_555
H20 C24 1_555 1_555
C25 C24 1_555 1_555
H21 C25 1_555 1_555
C26 N8 1_555 1_555
H22 C26 1_555 1_555
S1 O1 1_555 1_555
F1 C27 1_555 1_555
F2 C27 1_555 1_555
F3 C27 1_555 1_555
O2 S1 1_555 1_555
O3 S1 1_555 1_555
C27 S1 1_555 1_555
N9 C28 1_555 1_555
C28 C29 1_555 1_555
C29 H23 1_555 1_555
H24 C29 1_555 1_555
H25 C29 1_555 1_555
Ag1_2 N5 1_555 1_555
N5_2 Ag1 1_555 1_555
N7_2 Ag1 1_555 1_555
N9A C28A 1_555 1_555
C28A C29A 1_555 1_555
C29A H23A 1_555 1_555
H24A C29A 1_555 1_555
H25A C29A 1_555 1_555
N7 Ag1_2 1_555 1_555
C3 C7 1_555 1_555
C5 C6 1_555 1_555
C9 C10 1_555 1_555
C12 C13 1_555 1_555
C18 C19 1_555 1_555
C22 C23 1_555 1_555
C25 C26 1_555 1_555

#END
