
#######################################################################
#
#                 Cambridge Crystallographic Data Centre
#                                CCDC 
#
#######################################################################
#
# If this CIF has been generated from an entry in the Cambridge 
# Structural Database, then it will include bibliographic, chemical, 
# crystal, experimental, refinement or atomic coordinate data resulting 
# from the CCDC's data processing and validation procedures.
#
#######################################################################

data_YIPBUV
_symmetry_cell_setting           triclinic
_symmetry_space_group_name_H-M   'P -1'
_symmetry_Int_Tables_number      2
_space_group_name_Hall           '-P 1'
loop_
_symmetry_equiv_pos_site_id
_symmetry_equiv_pos_as_xyz
1 x,y,z
2 -x,-y,-z
_cell_length_a                   14.6609(12)
_cell_length_b                   17.1020(14)
_cell_length_c                   19.2916(15)
_cell_angle_alpha                100.800(2)
_cell_angle_beta                 92.932(2)
_cell_angle_gamma                93.317(2)
_cell_volume                     4733.87
loop_
_atom_site_label
_atom_site_type_symbol
_atom_site_fract_x
_atom_site_fract_y
_atom_site_fract_z
Ag1 Ag 0.20956(6) 0.03894(6) 0.01410(6)
P1 P 0.1103(2) 0.1195(2) 0.09603(19)
P2 P -0.1731(2) 0.1068(2) -0.00243(19)
P3 P 0.3786(2) 0.0721(2) 0.0350(2)
Cl1 Cl 0.1519(3) 0.0718(2) -0.1076(2)
C1 C -0.0159(8) 0.1055(8) 0.0784(7)
H1 H -0.0348 0.0486 0.0725
H2 H -0.0453 0.1338 0.1193
C2 C -0.0491(8) 0.1358(8) 0.0125(7)
H3 H -0.0383 0.1939 0.0197
H4 H -0.0165 0.1117 -0.0284
C3 C 0.4476(8) -0.0070(8) -0.0075(9)
H5 H 0.4277 -0.0566 0.0074
H6 H 0.4342 -0.0149 -0.0587
C8 C 0.1313(8) 0.2274(7) 0.1073(7)
C9 C 0.1929(10) 0.2581(9) 0.0652(8)
H15 H 0.2256 0.2227 0.0342
C10 C 0.2072(13) 0.3380(11) 0.0676(10)
H16 H 0.2489 0.3570 0.0381
C11 C 0.1616(14) 0.3895(9) 0.1121(10)
H17 H 0.1715 0.4447 0.1141
C12 C 0.1000(13) 0.3613(10) 0.1551(9)
H18 H 0.0681 0.3976 0.1860
C13 C 0.0848(10) 0.2796(9) 0.1530(8)
H19 H 0.0432 0.2606 0.1825
C14 C 0.1210(8) 0.1003(7) 0.1853(7)
C15 C 0.1966(10) 0.1321(9) 0.2293(8)
H20 H 0.2383 0.1684 0.2143
C16 C 0.2126(11) 0.1120(10) 0.2947(9)
H21 H 0.2655 0.1342 0.3227
C17 C 0.1535(13) 0.0607(11) 0.3197(9)
H22 H 0.1639 0.0482 0.3647
C18 C 0.0768(12) 0.0276(9) 0.2754(10)
H23 H 0.0351 -0.0078 0.2916
C19 C 0.0602(10) 0.0448(9) 0.2095(8)
H24 H 0.0090 0.0201 0.1806
C20 C -0.2077(9) 0.1493(7) -0.0778(7)
C21 C -0.1638(14) 0.1349(11) -0.1390(10)
H25 H -0.1107 0.1065 -0.1395
C22 C -0.1933(14) 0.1598(13) -0.2010(10)
H26 H -0.1600 0.1493 -0.2417
C23 C -0.2681(17) 0.1981(13) -0.2010(11)
H27 H -0.2882 0.2162 -0.2419
C24 C -0.3177(13) 0.2120(13) -0.1416(11)
H28 H -0.3720 0.2384 -0.1427
C25 C -0.2887(12) 0.1876(12) -0.0810(10)
H29 H -0.3237 0.1967 -0.0411
C26 C -0.2223(8) 0.1682(8) 0.0741(7)
C27 C -0.2687(9) 0.1315(9) 0.1188(7)
H30 H -0.2773 0.0756 0.1104
C28 C -0.3041(11) 0.1778(11) 0.1781(8)
H31 H -0.3351 0.1530 0.2105
C29 C -0.2934(12) 0.2578(12) 0.1880(9)
H32 H -0.3188 0.2887 0.2269
C30 C -0.2476(13) 0.2942(10) 0.1438(11)
H33 H -0.2409 0.3503 0.1527
C31 C -0.2092(11) 0.2512(9) 0.0845(8)
H34 H -0.1764 0.2768 0.0535
C32 C 0.4142(9) 0.0821(9) 0.1283(8)
C33 C 0.4272(11) 0.1548(10) 0.1742(9)
H35 H 0.4211 0.2020 0.1565
C34 C 0.4491(12) 0.1598(13) 0.2457(10)
H36 H 0.4588 0.2097 0.2762
C35 C 0.4561(16) 0.0924(17) 0.2704(13)
H37 H 0.4716 0.0958 0.3189
C36 C 0.441(2) 0.0161(18) 0.2269(17)
H38 H 0.4454 -0.0309 0.2451
C37 C 0.4204(16) 0.0145(12) 0.1550(11)
H39 H 0.4102 -0.0351 0.1241
C38 C 0.4226(8) 0.1619(7) 0.0068(7)
C39 C 0.5028(9) 0.2059(7) 0.0363(8)
H40 H 0.5389 0.1875 0.0709
C40 C 0.5293(11) 0.2747(10) 0.0159(10)
H41 H 0.5816 0.3052 0.0385
C41 C 0.4819(13) 0.3003(11) -0.0366(10)
H42 H 0.5031 0.3470 -0.0514
C42 C 0.4012(13) 0.2579(10) -0.0691(9)
H43 H 0.3670 0.2756 -0.1050
C43 C 0.3745(10) 0.1892(8) -0.0458(7)
H44 H 0.3209 0.1596 -0.0670
Ag1A Ag -0.20956(6) -0.03894(6) -0.01410(6)
Ag1A_2 Ag 0.79044(6) -0.03894(6) -0.01410(6)
P1A P -0.1103(2) -0.1195(2) -0.09603(19)
P2A P 0.1731(2) -0.1068(2) 0.00243(19)
P3A P 0.6214(2) -0.0721(2) -0.0350(2)
P3A_2 P -0.3786(2) -0.0721(2) -0.0350(2)
Cl1A Cl -0.1519(3) -0.0718(2) 0.1076(2)
C1A C 0.0159(8) -0.1055(8) -0.0784(7)
H1A H 0.0348 -0.0486 -0.0725
H2A H 0.0453 -0.1338 -0.1193
C2A C 0.0491(8) -0.1358(8) -0.0125(7)
H3A H 0.0383 -0.1939 -0.0197
H4A H 0.0165 -0.1117 0.0284
C3A C 0.5524(8) 0.0070(8) 0.0075(9)
H5A H 0.5723 0.0566 -0.0074
H6A H 0.5658 0.0149 0.0587
C8A C -0.1313(8) -0.2274(7) -0.1073(7)
C9A C -0.1929(10) -0.2581(9) -0.0652(8)
H15A H -0.2256 -0.2227 -0.0342
C10A C -0.2072(13) -0.3380(11) -0.0676(10)
H16A H -0.2489 -0.3570 -0.0381
C11A C -0.1616(14) -0.3895(9) -0.1121(10)
H17A H -0.1715 -0.4447 -0.1141
C12A C -0.1000(13) -0.3613(10) -0.1551(9)
H18A H -0.0681 -0.3976 -0.1860
C13A C -0.0848(10) -0.2796(9) -0.1530(8)
H19A H -0.0432 -0.2606 -0.1825
C14A C -0.1210(8) -0.1003(7) -0.1853(7)
C15A C -0.1966(10) -0.1321(9) -0.2293(8)
H20A H -0.2383 -0.1684 -0.2143
C16A C -0.2126(11) -0.1120(10) -0.2947(9)
H21A H -0.2655 -0.1342 -0.3227
C17A C -0.1535(13) -0.0607(11) -0.3197(9)
H22A H -0.1639 -0.0482 -0.3647
C18A C -0.0768(12) -0.0276(9) -0.2754(10)
H23A H -0.0351 0.0078 -0.2916
C19A C -0.0602(10) -0.0448(9) -0.2095(8)
H24A H -0.0090 -0.0201 -0.1806
C20A C 0.2077(9) -0.1493(7) 0.0778(7)
C21A C 0.1638(14) -0.1349(11) 0.1390(10)
H25A H 0.1107 -0.1065 0.1395
C22A C 0.1933(14) -0.1598(13) 0.2010(10)
H26A H 0.1600 -0.1493 0.2417
C23A C 0.2681(17) -0.1981(13) 0.2010(11)
H27A H 0.2882 -0.2162 0.2419
C24A C 0.3177(13) -0.2120(13) 0.1416(11)
H28A H 0.3720 -0.2384 0.1427
C25A C 0.2887(12) -0.1876(12) 0.0810(10)
H29A H 0.3237 -0.1967 0.0411
C26A C 0.2223(8) -0.1682(8) -0.0741(7)
C27A C 0.2687(9) -0.1315(9) -0.1188(7)
H30A H 0.2773 -0.0756 -0.1104
C28A C 0.3041(11) -0.1778(11) -0.1781(8)
H31A H 0.3351 -0.1530 -0.2105
C29A C 0.2934(12) -0.2578(12) -0.1880(9)
H32A H 0.3188 -0.2887 -0.2269
C30A C 0.2476(13) -0.2942(10) -0.1438(11)
H33A H 0.2409 -0.3503 -0.1527
C31A C 0.2092(11) -0.2512(9) -0.0845(8)
H34A H 0.1764 -0.2768 -0.0535
C32A C 0.5858(9) -0.0821(9) -0.1283(8)
C33A C 0.5728(11) -0.1548(10) -0.1742(9)
H35A H 0.5789 -0.2020 -0.1565
C34A C 0.5509(12) -0.1598(13) -0.2457(10)
H36A H 0.5412 -0.2097 -0.2762
C35A C 0.5439(16) -0.0924(17) -0.2704(13)
H37A H 0.5284 -0.0958 -0.3189
C36A C 0.559(2) -0.0161(18) -0.2269(17)
H38A H 0.5546 0.0309 -0.2451
C37A C 0.5796(16) -0.0145(12) -0.1550(11)
H39A H 0.5898 0.0351 -0.1241
C38A C 0.5774(8) -0.1619(7) -0.0068(7)
C39A C 0.4972(9) -0.2059(7) -0.0363(8)
H40A H 0.4611 -0.1875 -0.0709
C40A C 0.4707(11) -0.2747(10) -0.0159(10)
H41A H 0.4184 -0.3052 -0.0385
C41A C 0.5181(13) -0.3003(11) 0.0366(10)
H42A H 0.4969 -0.3470 0.0514
C42A C 0.5988(13) -0.2579(10) 0.0691(9)
H43A H 0.6330 -0.2756 0.1050
C43A C 0.6255(10) -0.1892(8) 0.0458(7)
H44A H 0.6791 -0.1596 0.0670
Ag2 Ag 0.64716(8) 0.54946(7) 0.36355(6)
Ag3 Ag 0.87557(8) 0.57128(7) 0.35588(6)
P4 P 0.5695(3) 0.4390(2) 0.4058(2)
P5 P 0.6033(3) 0.6440(2) 0.2895(2)
P6 P 1.0076(3) 0.5053(2) 0.3864(2)
P7 P 0.8793(3) 0.7003(2) 0.3157(2)
Cl2 Cl 0.7665(3) 0.6131(3) 0.4650(2)
Cl3 Cl 0.7582(3) 0.4818(2) 0.2633(2)
C4 C 0.5309(10) 0.4642(9) 0.4965(7)
H7 H 0.4965 0.4178 0.5079
H8 H 0.5842 0.4778 0.5303
C5 C 0.6993(10) 0.6901(10) 0.2523(8)
H9 H 0.7321 0.6482 0.2242
H10 H 0.6759 0.7238 0.2206
C6 C 0.7679(10) 0.7419(9) 0.3099(7)
H11 H 0.7412 0.7470 0.3560
H12 H 0.7765 0.7955 0.2992
C7 C 1.0375(9) 0.5197(8) 0.4812(7)
H13 H 1.0958 0.4963 0.4891
H14 H 1.0452 0.5769 0.5013
C44 C 0.4677(9) 0.3972(7) 0.3494(9)
C45 C 0.4717(12) 0.3970(9) 0.2778(9)
H45 H 0.5254 0.4173 0.2610
C46 C 0.3985(13) 0.3676(10) 0.2306(11)
H46 H 0.4019 0.3678 0.1821
C47 C 0.3213(15) 0.3385(11) 0.2557(14)
H47 H 0.2707 0.3191 0.2240
C48 C 0.3154(11) 0.3366(10) 0.3245(13)
H48 H 0.2613 0.3152 0.3400
C49 C 0.3891(9) 0.3661(8) 0.3737(8)
H49 H 0.3849 0.3648 0.4219
C50 C 0.6349(11) 0.3546(9) 0.4117(7)
C51 C 0.5984(11) 0.2771(11) 0.3999(11)
H50 H 0.5358 0.2659 0.3865
C52 C 0.6526(15) 0.2151(11) 0.4076(11)
H51 H 0.6249 0.1631 0.4018
C53 C 0.7432(13) 0.2267(11) 0.4230(10)
H52 H 0.7797 0.1841 0.4267
C54 C 0.7789(13) 0.3017(13) 0.4328(10)
H53 H 0.8421 0.3115 0.4441
C55 C 0.7275(11) 0.3659(11) 0.4270(10)
H54 H 0.7564 0.4175 0.4337
C56 C 0.5342(11) 0.5958(9) 0.2101(8)
C57 C 0.5695(13) 0.5356(10) 0.1635(9)
H55 H 0.6308 0.5238 0.1701
C58 C 0.5157(19) 0.4931(12) 0.1078(11)
H56 H 0.5410 0.4516 0.0774
C59 C 0.4276(19) 0.5080(16) 0.0943(12)
H57 H 0.3923 0.4776 0.0554
C60 C 0.3913(14) 0.5686(16) 0.1387(12)
H58 H 0.3302 0.5802 0.1307
C61 C 0.4454(11) 0.6132(13) 0.1962(9)
H59 H 0.4207 0.6558 0.2257
C62 C 0.5398(9) 0.7292(8) 0.3289(8)
C63 C 0.4915(12) 0.7228(10) 0.3879(9)
H60 H 0.4923 0.6761 0.4069
C64 C 0.4420(13) 0.7856(15) 0.4190(9)
H61 H 0.4094 0.7814 0.4590
C65 C 0.4408(14) 0.8548(11) 0.3910(13)
H62 H 0.4074 0.8973 0.4120
C66 C 0.4891(16) 0.8611(8) 0.3319(13)
H63 H 0.4883 0.9079 0.3129
C67 C 0.5386(13) 0.7983(10) 0.3008(9)
H64 H 0.5712 0.8026 0.2609
C68 C 0.9262(10) 0.6988(9) 0.2298(8)
C69 C 0.9947(14) 0.6461(10) 0.2095(10)
H65 H 1.0136 0.6120 0.2396
C70 C 1.0347(16) 0.6440(13) 0.1454(11)
H66 H 1.0833 0.6116 0.1337
C71 C 1.0023(16) 0.6899(12) 0.0993(10)
H67 H 1.0238 0.6852 0.0537
C72 C 0.9395(14) 0.7416(11) 0.1208(10)
H68 H 0.9216 0.7754 0.0901
C73 C 0.8984(12) 0.7488(10) 0.1854(8)
H69 H 0.8542 0.7858 0.1980
C74 C 0.9466(10) 0.7819(9) 0.3766(9)
C75 C 0.9338(13) 0.7909(11) 0.4463(9)
H70 H 0.8873 0.7600 0.4625
C76 C 0.9905(15) 0.8468(13) 0.4944(11)
H71 H 0.9863 0.8486 0.5431
C77 C 1.0495(17) 0.8970(11) 0.4731(10)
H72 H 1.0797 0.9398 0.5054
C78 C 1.0653(16) 0.8853(12) 0.4048(12)
H73 H 1.1128 0.9165 0.3900
C79 C 1.0132(14) 0.8278(11) 0.3536(11)
H74 H 1.0241 0.8216 0.3053
C80 C 1.0076(9) 0.3985(8) 0.3581(6)
C81 C 0.9382(9) 0.3605(9) 0.3117(8)
H75 H 0.8938 0.3897 0.2929
C82 C 0.9347(11) 0.2756(10) 0.2926(9)
H76 H 0.8895 0.2490 0.2587
C83 C 0.9953(13) 0.2325(10) 0.3222(9)
H77 H 0.9907 0.1765 0.3101
C84 C 1.0628(10) 0.2710(10) 0.3698(9)
H78 H 1.1047 0.2418 0.3912
C85 C 1.0690(9) 0.3529(8) 0.3860(7)
H79 H 1.1171 0.3789 0.4174
C86 C 1.1136(10) 0.5501(8) 0.3595(9)
C87 C 1.1796(11) 0.5076(10) 0.3249(10)
H80 H 1.1719 0.4517 0.3134
C88 C 1.2553(16) 0.5456(12) 0.3074(13)
H81 H 1.2993 0.5148 0.2836
C89 C 1.2714(19) 0.6248(15) 0.3220(15)
H82 H 1.3237 0.6496 0.3068
C90 C 1.2082(16) 0.6691(12) 0.3603(11)
H83 H 1.2194 0.7247 0.3743
C91 C 1.1292(12) 0.6325(10) 0.3781(10)
H84 H 1.0857 0.6632 0.4027
Ag2A Ag 0.35284(8) 0.45054(7) 0.63645(6)
Ag3A Ag 1.12443(8) 0.42872(7) 0.64412(6)
Ag3A_2 Ag 0.12443(8) 0.42872(7) 0.64412(6)
P4A P 0.4305(3) 0.5610(2) 0.5942(2)
P5A P 0.3967(3) 0.3560(2) 0.7105(2)
P6A P 0.9924(3) 0.4947(2) 0.6136(2)
P7A P 0.1207(3) 0.2997(2) 0.6843(2)
P7A_2 P 1.1207(3) 0.2997(2) 0.6843(2)
Cl2A Cl 0.2335(3) 0.3869(3) 0.5350(2)
Cl2A_2 Cl 1.2335(3) 0.3869(3) 0.5350(2)
Cl3A Cl 0.2418(3) 0.5182(2) 0.7367(2)
Cl3A_2 Cl 1.2418(3) 0.5182(2) 0.7367(2)
C4A C 0.4691(10) 0.5358(9) 0.5035(7)
H7A H 0.5035 0.5822 0.4921
H8A H 0.4158 0.5222 0.4697
C5A C 0.3007(10) 0.3099(10) 0.7477(8)
H9A H 0.2679 0.3518 0.7758
H10A H 0.3241 0.2762 0.7794
C6A C 0.2321(10) 0.2581(9) 0.6901(7)
H11A H 0.2588 0.2530 0.6440
H12A H 0.2235 0.2045 0.7008
C7A C 0.9625(9) 0.4803(8) 0.5188(7)
H13A H 0.9042 0.5037 0.5109
H14A H 0.9548 0.4231 0.4987
C44A C 0.5323(9) 0.6028(7) 0.6506(9)
C45A C 0.5283(12) 0.6030(9) 0.7222(9)
H45A H 0.4746 0.5827 0.7390
C46A C 0.6015(13) 0.6324(10) 0.7694(11)
H46A H 0.5981 0.6322 0.8179
C47A C 0.6787(15) 0.6615(11) 0.7443(14)
H47A H 0.7293 0.6809 0.7760
C48A C 0.6846(11) 0.6634(10) 0.6755(13)
H48A H 0.7387 0.6848 0.6600
C49A C 0.6109(9) 0.6339(8) 0.6263(8)
H49A H 0.6151 0.6352 0.5781
C50A C 0.3651(11) 0.6454(9) 0.5883(7)
C51A C 0.4016(11) 0.7229(11) 0.6001(11)
H50A H 0.4642 0.7341 0.6135
C52A C 0.3474(15) 0.7849(11) 0.5924(11)
H51A H 0.3751 0.8369 0.5982
C53A C 0.2568(13) 0.7733(11) 0.5770(10)
H52A H 0.2203 0.8159 0.5733
C54A C 0.2211(13) 0.6983(13) 0.5672(10)
H53A H 0.1579 0.6885 0.5559
C55A C 0.2725(11) 0.6341(11) 0.5730(10)
H54A H 0.2436 0.5825 0.5663
C56A C 0.4658(11) 0.4042(9) 0.7899(8)
C57A C 0.4305(13) 0.4644(10) 0.8365(9)
H55A H 0.3692 0.4762 0.8299
C58A C 0.4843(19) 0.5069(12) 0.8922(11)
H56A H 0.4590 0.5484 0.9226
C59A C 0.5724(19) 0.4920(16) 0.9057(12)
H57A H 0.6077 0.5224 0.9446
C60A C 0.6087(14) 0.4314(16) 0.8613(12)
H58A H 0.6698 0.4198 0.8693
C61A C 0.5546(11) 0.3868(13) 0.8038(9)
H59A H 0.5793 0.3442 0.7743
C62A C 0.4602(9) 0.2708(8) 0.6711(8)
C63A C 0.5085(12) 0.2772(10) 0.6121(9)
H60A H 0.5077 0.3239 0.5931
C64A C 0.5580(13) 0.2144(15) 0.5810(9)
H61A H 0.5906 0.2186 0.5410
C65A C 0.5592(14) 0.1452(11) 0.6090(13)
H62A H 0.5926 0.1027 0.5880
C66A C 0.5109(16) 0.1389(8) 0.6681(13)
H63A H 0.5117 0.0921 0.6871
C67A C 0.4614(13) 0.2017(10) 0.6992(9)
H64A H 0.4288 0.1974 0.7391
C68A C 0.0738(10) 0.3012(9) 0.7702(8)
C69A C 0.0053(14) 0.3539(10) 0.7905(10)
H65A H -0.0136 0.3880 0.7604
C70A C -0.0347(16) 0.3560(13) 0.8546(11)
H66A H -0.0833 0.3884 0.8663
C71A C -0.0023(16) 0.3101(12) 0.9007(10)
H67A H -0.0238 0.3148 0.9463
C72A C 0.0605(14) 0.2584(11) 0.8792(10)
H68A H 0.0784 0.2246 0.9099
C73A C 0.1016(12) 0.2512(10) 0.8146(8)
H69A H 0.1458 0.2142 0.8020
C74A C 0.0534(10) 0.2181(9) 0.6234(9)
C75A C 0.0662(13) 0.2091(11) 0.5537(9)
H70A H 0.1127 0.2400 0.5375
C76A C 0.0095(15) 0.1532(13) 0.5056(11)
H71A H 0.0137 0.1514 0.4569
C77A C -0.0495(17) 0.1030(11) 0.5269(10)
H72A H -0.0797 0.0602 0.4946
C78A C -0.0653(16) 0.1147(12) 0.5952(12)
H73A H -0.1128 0.0835 0.6100
C79A C -0.0132(14) 0.1722(11) 0.6464(11)
H74A H -0.0241 0.1784 0.6947
C80A C 0.9924(9) 0.6015(8) 0.6419(6)
C81A C 1.0618(9) 0.6395(9) 0.6883(8)
H75A H 1.1062 0.6103 0.7071
C82A C 1.0653(11) 0.7244(10) 0.7074(9)
H76A H 1.1105 0.7510 0.7413
C83A C 1.0047(13) 0.7675(10) 0.6778(9)
H77A H 1.0093 0.8235 0.6899
C84A C 0.9372(10) 0.7290(10) 0.6302(9)
H78A H 0.8953 0.7582 0.6088
C85A C 0.9310(9) 0.6471(8) 0.6140(7)
H79A H 0.8829 0.6211 0.5826
C86A C 0.8864(10) 0.4499(8) 0.6405(9)
C87A C 0.8204(11) 0.4924(10) 0.6751(10)
H80A H 0.8281 0.5483 0.6866
C88A C 0.7447(16) 0.4544(12) 0.6926(13)
H81A H 0.7007 0.4852 0.7164
C89A C 0.7286(19) 0.3752(15) 0.6780(15)
H82A H 0.6763 0.3504 0.6932
C90A C 0.7918(16) 0.3309(12) 0.6397(11)
H83A H 0.7806 0.2753 0.6257
C91A C 0.8708(12) 0.3675(10) 0.6219(10)
H84A H 0.9143 0.3368 0.5973
C92 C 0.8411(11) 0.5106(12) 0.0900(11)
H85 H 0.8219 0.5131 0.1382
H86 H 0.8600 0.5647 0.0837
Cl4 Cl 0.7536(7) 0.4683(7) 0.0284(5)
Cl5 Cl 0.9298(6) 0.4470(5) 0.0729(7)
C93 C 0.7864(11) 0.0204(16) 0.2714(12)
H87 H 0.8179 0.0013 0.2285
H88 H 0.7866 0.0787 0.2785
Cl6 Cl 0.6754(7) -0.0213(9) 0.2632(8)
Cl7 Cl 0.8397(7) -0.0067(7) 0.3414(5)
Cl8 Cl 0.672(2) 0.9813(15) 0.5148(14)
Cl9 Cl 0.6714(15) 0.8320(12) 0.5200(9)
C94 C 0.723(2) 0.9021(14) 0.4743(15)
H89 H 0.7901 0.9081 0.4830
H90 H 0.7073 0.8894 0.4233
loop_
_geom_bond_atom_site_label_1
_geom_bond_atom_site_label_2
_geom_bond_site_symmetry_1
_geom_bond_site_symmetry_2
Ag1 P1 1_555 1_555
Ag2 P4 1_555 1_555
Ag3 P6 1_555 1_555
P1 C1 1_555 1_555
P2 C2 1_555 1_555
P3 Ag1 1_555 1_555
P4 C4 1_555 1_555
P5 Ag2 1_555 1_555
P6 C7 1_555 1_555
P7 Ag3 1_555 1_555
Cl1 Ag1 1_555 1_555
Cl2 Ag2 1_555 1_555
Cl3 Ag2 1_555 1_555
C1 H1 1_555 1_555
H2 C1 1_555 1_555
C2 C1 1_555 1_555
H3 C2 1_555 1_555
H4 C2 1_555 1_555
C3 P3 1_555 1_555
H5 C3 1_555 1_555
H6 C3 1_555 1_555
C4 H7 1_555 1_555
H8 C4 1_555 1_555
C5 P5 1_555 1_555
H9 C5 1_555 1_555
H10 C5 1_555 1_555
C6 P7 1_555 1_555
H11 C6 1_555 1_555
H12 C6 1_555 1_555
C7 H13 1_555 1_555
H14 C7 1_555 1_555
C8 P1 1_555 1_555
C9 C8 1_555 1_555
H15 C9 1_555 1_555
C10 C9 1_555 1_555
H16 C10 1_555 1_555
C11 C10 1_555 1_555
H17 C11 1_555 1_555
C12 C11 1_555 1_555
H18 C12 1_555 1_555
C13 C8 1_555 1_555
H19 C13 1_555 1_555
C14 P1 1_555 1_555
C15 C14 1_555 1_555
H20 C15 1_555 1_555
C16 C15 1_555 1_555
H21 C16 1_555 1_555
C17 C16 1_555 1_555
H22 C17 1_555 1_555
C18 C17 1_555 1_555
H23 C18 1_555 1_555
C19 C14 1_555 1_555
H24 C19 1_555 1_555
C20 P2 1_555 1_555
C21 C20 1_555 1_555
H25 C21 1_555 1_555
C22 C21 1_555 1_555
H26 C22 1_555 1_555
C23 C22 1_555 1_555
H27 C23 1_555 1_555
C24 C23 1_555 1_555
H28 C24 1_555 1_555
C25 C20 1_555 1_555
H29 C25 1_555 1_555
C26 P2 1_555 1_555
C27 C26 1_555 1_555
H30 C27 1_555 1_555
C28 C27 1_555 1_555
H31 C28 1_555 1_555
C29 C28 1_555 1_555
H32 C29 1_555 1_555
C30 C29 1_555 1_555
H33 C30 1_555 1_555
C31 C26 1_555 1_555
H34 C31 1_555 1_555
C32 P3 1_555 1_555
C33 C32 1_555 1_555
H35 C33 1_555 1_555
C34 C33 1_555 1_555
H36 C34 1_555 1_555
C35 C34 1_555 1_555
H37 C35 1_555 1_555
C36 C35 1_555 1_555
H38 C36 1_555 1_555
C37 C32 1_555 1_555
H39 C37 1_555 1_555
C38 P3 1_555 1_555
C39 C38 1_555 1_555
H40 C39 1_555 1_555
C40 C39 1_555 1_555
H41 C40 1_555 1_555
C41 C40 1_555 1_555
H42 C41 1_555 1_555
C42 C41 1_555 1_555
H43 C42 1_555 1_555
C43 C38 1_555 1_555
H44 C43 1_555 1_555
C44 P4 1_555 1_555
C45 C44 1_555 1_555
H45 C45 1_555 1_555
C46 C45 1_555 1_555
H46 C46 1_555 1_555
C47 C46 1_555 1_555
H47 C47 1_555 1_555
C48 C47 1_555 1_555
H48 C48 1_555 1_555
C49 C44 1_555 1_555
H49 C49 1_555 1_555
C50 P4 1_555 1_555
C51 C50 1_555 1_555
H50 C51 1_555 1_555
C52 C51 1_555 1_555
H51 C52 1_555 1_555
C53 C52 1_555 1_555
H52 C53 1_555 1_555
C54 C53 1_555 1_555
H53 C54 1_555 1_555
C55 C50 1_555 1_555
H54 C55 1_555 1_555
C56 P5 1_555 1_555
C57 C56 1_555 1_555
H55 C57 1_555 1_555
C58 C57 1_555 1_555
H56 C58 1_555 1_555
C59 C58 1_555 1_555
H57 C59 1_555 1_555
C60 C59 1_555 1_555
H58 C60 1_555 1_555
C61 C56 1_555 1_555
H59 C61 1_555 1_555
C62 P5 1_555 1_555
C63 C62 1_555 1_555
H60 C63 1_555 1_555
C64 C63 1_555 1_555
H61 C64 1_555 1_555
C65 C64 1_555 1_555
H62 C65 1_555 1_555
C66 C65 1_555 1_555
H63 C66 1_555 1_555
C67 C62 1_555 1_555
H64 C67 1_555 1_555
C68 P7 1_555 1_555
C69 C68 1_555 1_555
H65 C69 1_555 1_555
C70 C69 1_555 1_555
H66 C70 1_555 1_555
C71 C70 1_555 1_555
H67 C71 1_555 1_555
C72 C71 1_555 1_555
H68 C72 1_555 1_555
C73 C68 1_555 1_555
H69 C73 1_555 1_555
C74 P7 1_555 1_555
C75 C74 1_555 1_555
H70 C75 1_555 1_555
C76 C75 1_555 1_555
H71 C76 1_555 1_555
C77 C76 1_555 1_555
H72 C77 1_555 1_555
C78 C77 1_555 1_555
H73 C78 1_555 1_555
C79 C74 1_555 1_555
H74 C79 1_555 1_555
C80 P6 1_555 1_555
C81 C80 1_555 1_555
H75 C81 1_555 1_555
C82 C81 1_555 1_555
H76 C82 1_555 1_555
C83 C82 1_555 1_555
H77 C83 1_555 1_555
C84 C83 1_555 1_555
H78 C84 1_555 1_555
C85 C80 1_555 1_555
H79 C85 1_555 1_555
C86 P6 1_555 1_555
C87 C86 1_555 1_555
H80 C87 1_555 1_555
C88 C87 1_555 1_555
H81 C88 1_555 1_555
C89 C88 1_555 1_555
H82 C89 1_555 1_555
C90 C89 1_555 1_555
H83 C90 1_555 1_555
C91 C86 1_555 1_555
H84 C91 1_555 1_555
C92 H85 1_555 1_555
H86 C92 1_555 1_555
C93 H87 1_555 1_555
H88 C93 1_555 1_555
Cl4 C92 1_555 1_555
Cl5 C92 1_555 1_555
Cl6 C93 1_555 1_555
Cl7 C93 1_555 1_555
Cl8 C94 1_555 1_555
Cl9 C94 1_555 1_555
C94 H89 1_555 1_555
H90 C94 1_555 1_555
Ag1A P2 1_555 1_555
Ag1A_2 P3A 1_555 1_555
Ag2A P4A 1_555 1_555
Ag3A P6A 1_555 1_555
Ag3A_2 P7A 1_555 1_555
P1A Ag1A 1_555 1_555
P2A Ag1 1_555 1_555
P3A C3A 1_555 1_555
P3A_2 Ag1A 1_555 1_555
P4A C4A 1_555 1_555
P5A Ag2A 1_555 1_555
P6A C7A 1_555 1_555
P7A C6A 1_555 1_555
P7A_2 Ag3A 1_555 1_555
Cl1A Ag1A 1_555 1_555
Cl2A Ag2A 1_555 1_555
Cl2A_2 Ag3A 1_555 1_555
Cl3A Ag2A 1_555 1_555
Cl3A_2 Ag3A 1_555 1_555
C1A P1A 1_555 1_555
H1A C1A 1_555 1_555
H2A C1A 1_555 1_555
C2A P2A 1_555 1_555
H3A C2A 1_555 1_555
H4A C2A 1_555 1_555
C3A C3 1_555 1_555
H5A C3A 1_555 1_555
H6A C3A 1_555 1_555
C4A C4 1_555 1_555
H7A C4A 1_555 1_555
H8A C4A 1_555 1_555
C5A P5A 1_555 1_555
H9A C5A 1_555 1_555
H10A C5A 1_555 1_555
C6A C5A 1_555 1_555
H11A C6A 1_555 1_555
H12A C6A 1_555 1_555
C7A C7 1_555 1_555
H13A C7A 1_555 1_555
H14A C7A 1_555 1_555
C8A P1A 1_555 1_555
C9A C8A 1_555 1_555
H15A C9A 1_555 1_555
C10A C9A 1_555 1_555
H16A C10A 1_555 1_555
C11A C10A 1_555 1_555
H17A C11A 1_555 1_555
C12A C11A 1_555 1_555
H18A C12A 1_555 1_555
C13A C8A 1_555 1_555
H19A C13A 1_555 1_555
C14A P1A 1_555 1_555
C15A C14A 1_555 1_555
H20A C15A 1_555 1_555
C16A C15A 1_555 1_555
H21A C16A 1_555 1_555
C17A C16A 1_555 1_555
H22A C17A 1_555 1_555
C18A C17A 1_555 1_555
H23A C18A 1_555 1_555
C19A C14A 1_555 1_555
H24A C19A 1_555 1_555
C20A P2A 1_555 1_555
C21A C20A 1_555 1_555
H25A C21A 1_555 1_555
C22A C21A 1_555 1_555
H26A C22A 1_555 1_555
C23A C22A 1_555 1_555
H27A C23A 1_555 1_555
C24A C23A 1_555 1_555
H28A C24A 1_555 1_555
C25A C20A 1_555 1_555
H29A C25A 1_555 1_555
C26A P2A 1_555 1_555
C27A C26A 1_555 1_555
H30A C27A 1_555 1_555
C28A C27A 1_555 1_555
H31A C28A 1_555 1_555
C29A C28A 1_555 1_555
H32A C29A 1_555 1_555
C30A C29A 1_555 1_555
H33A C30A 1_555 1_555
C31A C26A 1_555 1_555
H34A C31A 1_555 1_555
C32A P3A 1_555 1_555
C33A C32A 1_555 1_555
H35A C33A 1_555 1_555
C34A C33A 1_555 1_555
H36A C34A 1_555 1_555
C35A C34A 1_555 1_555
H37A C35A 1_555 1_555
C36A C35A 1_555 1_555
H38A C36A 1_555 1_555
C37A C32A 1_555 1_555
H39A C37A 1_555 1_555
C38A P3A 1_555 1_555
C39A C38A 1_555 1_555
H40A C39A 1_555 1_555
C40A C39A 1_555 1_555
H41A C40A 1_555 1_555
C41A C40A 1_555 1_555
H42A C41A 1_555 1_555
C42A C41A 1_555 1_555
H43A C42A 1_555 1_555
C43A C38A 1_555 1_555
H44A C43A 1_555 1_555
C44A P4A 1_555 1_555
C45A C44A 1_555 1_555
H45A C45A 1_555 1_555
C46A C45A 1_555 1_555
H46A C46A 1_555 1_555
C47A C46A 1_555 1_555
H47A C47A 1_555 1_555
C48A C47A 1_555 1_555
H48A C48A 1_555 1_555
C49A C44A 1_555 1_555
H49A C49A 1_555 1_555
C50A P4A 1_555 1_555
C51A C50A 1_555 1_555
H50A C51A 1_555 1_555
C52A C51A 1_555 1_555
H51A C52A 1_555 1_555
C53A C52A 1_555 1_555
H52A C53A 1_555 1_555
C54A C53A 1_555 1_555
H53A C54A 1_555 1_555
C55A C50A 1_555 1_555
H54A C55A 1_555 1_555
C56A P5A 1_555 1_555
C57A C56A 1_555 1_555
H55A C57A 1_555 1_555
C58A C57A 1_555 1_555
H56A C58A 1_555 1_555
C59A C58A 1_555 1_555
H57A C59A 1_555 1_555
C60A C59A 1_555 1_555
H58A C60A 1_555 1_555
C61A C56A 1_555 1_555
H59A C61A 1_555 1_555
C62A P5A 1_555 1_555
C63A C62A 1_555 1_555
H60A C63A 1_555 1_555
C64A C63A 1_555 1_555
H61A C64A 1_555 1_555
C65A C64A 1_555 1_555
H62A C65A 1_555 1_555
C66A C65A 1_555 1_555
H63A C66A 1_555 1_555
C67A C62A 1_555 1_555
H64A C67A 1_555 1_555
C68A P7A 1_555 1_555
C69A C68A 1_555 1_555
H65A C69A 1_555 1_555
C70A C69A 1_555 1_555
H66A C70A 1_555 1_555
C71A C70A 1_555 1_555
H67A C71A 1_555 1_555
C72A C71A 1_555 1_555
H68A C72A 1_555 1_555
C73A C68A 1_555 1_555
H69A C73A 1_555 1_555
C74A P7A 1_555 1_555
C75A C74A 1_555 1_555
H70A C75A 1_555 1_555
C76A C75A 1_555 1_555
H71A C76A 1_555 1_555
C77A C76A 1_555 1_555
H72A C77A 1_555 1_555
C78A C77A 1_555 1_555
H73A C78A 1_555 1_555
C79A C74A 1_555 1_555
H74A C79A 1_555 1_555
C80A P6A 1_555 1_555
C81A C80A 1_555 1_555
H75A C81A 1_555 1_555
C82A C81A 1_555 1_555
H76A C82A 1_555 1_555
C83A C82A 1_555 1_555
H77A C83A 1_555 1_555
C84A C83A 1_555 1_555
H78A C84A 1_555 1_555
C85A C80A 1_555 1_555
H79A C85A 1_555 1_555
C86A P6A 1_555 1_555
C87A C86A 1_555 1_555
H80A C87A 1_555 1_555
C88A C87A 1_555 1_555
H81A C88A 1_555 1_555
C89A C88A 1_555 1_555
H82A C89A 1_555 1_555
C90A C89A 1_555 1_555
H83A C90A 1_555 1_555
C91A C86A 1_555 1_555
H84A C91A 1_555 1_555
Ag3 Cl2 1_555 1_555
Ag3 Cl3 1_555 1_555
C5 C6 1_555 1_555
C12 C13 1_555 1_555
C18 C19 1_555 1_555
C24 C25 1_555 1_555
C30 C31 1_555 1_555
C36 C37 1_555 1_555
C42 C43 1_555 1_555
C48 C49 1_555 1_555
C54 C55 1_555 1_555
C60 C61 1_555 1_555
C66 C67 1_555 1_555
C72 C73 1_555 1_555
C78 C79 1_555 1_555
C84 C85 1_555 1_555
C90 C91 1_555 1_555
Ag3A_2 Cl2A 1_555 1_555
Ag3A_2 Cl3A 1_555 1_555
C1A C2A 1_555 1_555
C12A C13A 1_555 1_555
C18A C19A 1_555 1_555
C24A C25A 1_555 1_555
C30A C31A 1_555 1_555
C36A C37A 1_555 1_555
C42A C43A 1_555 1_555
C48A C49A 1_555 1_555
C54A C55A 1_555 1_555
C60A C61A 1_555 1_555
C66A C67A 1_555 1_555
C72A C73A 1_555 1_555
C78A C79A 1_555 1_555
C84A C85A 1_555 1_555
C90A C91A 1_555 1_555

#END
