
#######################################################################
#
#                 Cambridge Crystallographic Data Centre
#                                CCDC 
#
#######################################################################
#
# If this CIF has been generated from an entry in the Cambridge 
# Structural Database, then it will include bibliographic, chemical, 
# crystal, experimental, refinement or atomic coordinate data resulting 
# from the CCDC's data processing and validation procedures.
#
#######################################################################

data_YIPBOP
_symmetry_cell_setting           monoclinic
_symmetry_space_group_name_H-M   'C 2/c'
_symmetry_Int_Tables_number      15
_space_group_name_Hall           '-C 2yn'
loop_
_symmetry_equiv_pos_site_id
_symmetry_equiv_pos_as_xyz
1 x,y,z
2 1/2+x,1/2+y,z
3 -x,y,1/2-z
4 1/2-x,1/2+y,1/2-z
5 -x,-y,-z
6 1/2-x,1/2-y,-z
7 x,-y,1/2+z
8 1/2+x,1/2-y,1/2+z
_cell_length_a                   12.920(3)
_cell_length_b                   24.327(6)
_cell_length_c                   25.854(7)
_cell_angle_alpha                90
_cell_angle_beta                 96.581(6)
_cell_angle_gamma                90
_cell_volume                     8072.49
loop_
_atom_site_label
_atom_site_type_symbol
_atom_site_fract_x
_atom_site_fract_y
_atom_site_fract_z
Ag1 Ag 0.45117(11) 0.56828(6) 0.60437(6)
P1 P 0.6380(4) 0.5500(2) 0.5979(2)
P2 P 0.3902(4) 0.6185(2) 0.67833(19)
P3 P 0.6452(4) 0.4140(2) 0.4833(2)
C1 C 0.6629(14) 0.5170(8) 0.5374(7)
H1 H 0.6276 0.5371 0.5075
H2 H 0.7379 0.5167 0.5344
C2 C 0.4415(14) 0.6001(8) 0.7453(7)
H3 H 0.4144 0.6262 0.7694
H4 H 0.4159 0.5635 0.7532
C3 C 0.6209(16) 0.4574(8) 0.5382(8)
H5 H 0.6520 0.4396 0.5703
H6 H 0.5455 0.4590 0.5397
C4 C 0.7164(14) 0.5093(8) 0.6451(7)
C5 C 0.6710(16) 0.4767(8) 0.6808(7)
H7 H 0.5987 0.4788 0.6819
C6 C 0.7286(17) 0.4418(10) 0.7141(9)
H8 H 0.6970 0.4208 0.7385
C7 C 0.8344(18) 0.4381(11) 0.7110(9)
H9 H 0.8735 0.4141 0.7341
C8 C 0.884(2) 0.4659(10) 0.6780(9)
H10 H 0.9555 0.4610 0.6765
C9 C 0.8252(16) 0.5034(9) 0.6446(8)
H11 H 0.8593 0.5249 0.6216
C10 C 0.7089(12) 0.6148(6) 0.5981(7)
C11 C 0.7488(12) 0.6382(7) 0.6452(5)
H12 H 0.7461 0.6187 0.6764
C12 C 0.7925(13) 0.6905(7) 0.6463(7)
H13 H 0.8195 0.7063 0.6782
C13 C 0.7965(16) 0.7193(6) 0.6001(9)
H14 H 0.8261 0.7546 0.6008
C14 C 0.7566(19) 0.6959(9) 0.5529(7)
H15 H 0.7592 0.7154 0.5217
C15 C 0.7128(16) 0.6437(9) 0.5519(5)
H16 H 0.6858 0.6279 0.5200
C16 C 0.2517(14) 0.6157(8) 0.6816(7)
C17 C 0.1836(17) 0.6556(10) 0.6574(9)
H17 H 0.2099 0.6853 0.6398
C18 C 0.0742(19) 0.6506(11) 0.6599(9)
H18 H 0.0286 0.6784 0.6460
C19 C 0.0365(17) 0.6059(9) 0.6823(8)
H19 H -0.0360 0.6018 0.6815
C20 C 0.1014(17) 0.5655(11) 0.7065(9)
H20 H 0.0744 0.5360 0.7242
C21 C 0.2064(16) 0.5705(10) 0.7035(8)
H21 H 0.2503 0.5419 0.7169
C22 C 0.4197(15) 0.6912(8) 0.6758(8)
C23 C 0.4932(16) 0.7107(9) 0.6459(8)
H22 H 0.5283 0.6859 0.6262
C24 C 0.5163(19) 0.7660(10) 0.6442(10)
H23 H 0.5669 0.7783 0.6235
C25 C 0.466(2) 0.8032(13) 0.6723(11)
H24 H 0.4803 0.8409 0.6695
C26 C 0.396(2) 0.7864(13) 0.7041(12)
H25 H 0.3647 0.8121 0.7244
C27 C 0.3713(19) 0.7294(10) 0.7068(9)
H26 H 0.3231 0.7173 0.7289
C28 C 0.7882(14) 0.4159(8) 0.4887(7)
C29 C 0.8473(17) 0.3983(10) 0.5338(9)
H27 H 0.8140 0.3844 0.5615
C30 C 0.9568(19) 0.4012(10) 0.5384(10)
H28 H 0.9974 0.3897 0.5690
C31 C 1.002(2) 0.4209(11) 0.4980(10)
H29 H 1.0748 0.4203 0.5002
C32 C 0.9472(18) 0.4418(10) 0.4535(9)
H30 H 0.9816 0.4577 0.4271
C33 C 0.8357(14) 0.4382(9) 0.4490(8)
H31 H 0.7955 0.4513 0.4189
C34 C 0.6153(15) 0.3454(8) 0.5052(8)
C35 C 0.637(2) 0.3032(12) 0.4746(11)
H32 H 0.6691 0.3106 0.4444
C36 C 0.614(2) 0.2482(13) 0.4862(12)
H33 H 0.6261 0.2197 0.4631
C37 C 0.572(2) 0.2367(13) 0.5316(11)
H34 H 0.5570 0.2002 0.5400
C38 C 0.554(3) 0.2781(15) 0.5641(15)
H35 H 0.5317 0.2700 0.5965
C39 C 0.569(2) 0.3351(13) 0.5497(11)
H36 H 0.5469 0.3640 0.5700
Ag1D Ag 0.54883(11) 0.43172(6) 0.39563(6)
Ag1B Ag 0.54883(11) 0.56828(6) 0.89563(6)
P1D P 0.3620(4) 0.4500(2) 0.4021(2)
P2B P 0.6098(4) 0.6185(2) 0.82167(19)
P2D P 0.6098(4) 0.3815(2) 0.32167(19)
P3D P 0.3548(4) 0.5860(2) 0.5167(2)
C1D C 0.3371(14) 0.4830(8) 0.4626(7)
H1D H 0.3724 0.4629 0.4925
H2D H 0.2621 0.4833 0.4656
C2B C 0.5585(14) 0.6001(8) 0.7547(7)
H3B H 0.5856 0.6262 0.7306
H4B H 0.5841 0.5635 0.7468
C3D C 0.3791(16) 0.5426(8) 0.4618(8)
H5D H 0.3480 0.5604 0.4297
H6D H 0.4545 0.5410 0.4603
C4D C 0.2836(14) 0.4907(8) 0.3549(7)
C5D C 0.3290(16) 0.5233(8) 0.3192(7)
H7D H 0.4013 0.5212 0.3181
C6D C 0.2714(17) 0.5582(10) 0.2859(9)
H8D H 0.3030 0.5792 0.2615
C7D C 0.1656(18) 0.5619(11) 0.2890(9)
H9D H 0.1265 0.5859 0.2659
C8D C 0.116(2) 0.5341(10) 0.3220(9)
H10D H 0.0445 0.5390 0.3235
C9D C 0.1748(16) 0.4966(9) 0.3554(8)
H11D H 0.1407 0.4751 0.3784
C10D C 0.2911(12) 0.3852(6) 0.4019(7)
C11D C 0.2512(12) 0.3618(7) 0.3548(5)
H12D H 0.2539 0.3813 0.3236
C12D C 0.2075(13) 0.3095(7) 0.3537(7)
H13D H 0.1805 0.2937 0.3218
C13D C 0.2035(16) 0.2807(6) 0.3999(9)
H14D H 0.1739 0.2454 0.3992
C14D C 0.2434(19) 0.3041(9) 0.4471(7)
H15D H 0.2408 0.2846 0.4783
C15D C 0.2872(16) 0.3563(9) 0.4481(5)
H16D H 0.3142 0.3721 0.4800
C16B C 0.7483(14) 0.6157(8) 0.8184(7)
C17B C 0.8164(17) 0.6556(10) 0.8426(9)
H17B H 0.7901 0.6853 0.8602
C18B C 0.9258(19) 0.6506(11) 0.8401(9)
H18B H 0.9714 0.6784 0.8540
C19B C 0.9635(17) 0.6059(9) 0.8177(8)
H19B H 1.0360 0.6018 0.8185
C20B C 0.8986(17) 0.5655(11) 0.7935(9)
H20B H 0.9256 0.5360 0.7758
C21B C 0.7936(16) 0.5705(10) 0.7965(8)
H21B H 0.7497 0.5419 0.7831
C22B C 0.5803(15) 0.6912(8) 0.8242(8)
C23B C 0.5068(16) 0.7107(9) 0.8541(8)
H22B H 0.4717 0.6859 0.8738
C24B C 0.4837(19) 0.7660(10) 0.8558(10)
H23B H 0.4331 0.7783 0.8765
C25B C 0.534(2) 0.8032(13) 0.8277(11)
H24B H 0.5197 0.8409 0.8305
C26B C 0.604(2) 0.7864(13) 0.7959(12)
H25B H 0.6353 0.8121 0.7756
C27B C 0.6287(19) 0.7294(10) 0.7932(9)
H26B H 0.6769 0.7173 0.7711
C28D C 0.2118(14) 0.5841(8) 0.5113(7)
C29D C 0.1527(17) 0.6017(10) 0.4662(9)
H27D H 0.1860 0.6156 0.4385
C30D C 0.0432(19) 0.5988(10) 0.4616(10)
H28D H 0.0026 0.6103 0.4310
C31D C -0.002(2) 0.5791(11) 0.5020(10)
H29D H -0.0748 0.5797 0.4998
C32D C 0.0528(18) 0.5582(10) 0.5465(9)
H30D H 0.0184 0.5423 0.5729
C33D C 0.1643(14) 0.5618(9) 0.5510(8)
H31D H 0.2045 0.5487 0.5811
C34D C 0.3847(15) 0.6546(8) 0.4948(8)
C35D C 0.363(2) 0.6968(12) 0.5254(11)
H32D H 0.3309 0.6894 0.5556
C36D C 0.386(2) 0.7518(13) 0.5138(12)
H33D H 0.3739 0.7803 0.5369
C37D C 0.428(2) 0.7633(13) 0.4684(11)
H34D H 0.4430 0.7998 0.4600
C38D C 0.446(3) 0.7219(15) 0.4359(15)
H35D H 0.4683 0.7300 0.4035
C39D C 0.431(2) 0.6649(13) 0.4503(11)
H36D H 0.4531 0.6360 0.4300
C40 C 0.240(2) 0.4036(13) 0.6311(12)
F1 F 0.2300(14) 0.3716(9) 0.6707(7)
F2 F 0.2172(15) 0.3768(9) 0.5885(7)
F3 F 0.1727(14) 0.4439(10) 0.6297(10)
O1 O 0.3729(14) 0.4624(9) 0.5885(7)
O2 O 0.3821(14) 0.4637(9) 0.6810(10)
O3 O 0.4320(14) 0.3841(9) 0.6377(10)
S1 S 0.3725(4) 0.4314(3) 0.6348(2)
Cl1 Cl 0.4006(13) 0.2856(7) 0.7694(6)
C41 C 0.5000 0.3218(16) 0.7500
H37 H 0.4721 0.3457 0.7212
H38 H 0.5279 0.3457 0.7788
Cl1B Cl 0.5994(13) 0.2856(7) 0.7306(6)
loop_
_geom_bond_atom_site_label_1
_geom_bond_atom_site_label_2
_geom_bond_site_symmetry_1
_geom_bond_site_symmetry_2
Ag1 P1 1_555 1_555
P1 C1 1_555 1_555
P2 Ag1 1_555 1_555
P3 C3 1_555 1_555
C1 H1 1_555 1_555
H2 C1 1_555 1_555
C2 P2 1_555 1_555
H3 C2 1_555 1_555
H4 C2 1_555 1_555
C3 C1 1_555 1_555
H5 C3 1_555 1_555
H6 C3 1_555 1_555
C4 P1 1_555 1_555
C5 C4 1_555 1_555
H7 C5 1_555 1_555
C6 C5 1_555 1_555
H8 C6 1_555 1_555
C7 C6 1_555 1_555
H9 C7 1_555 1_555
C8 C7 1_555 1_555
H10 C8 1_555 1_555
C9 C4 1_555 1_555
H11 C9 1_555 1_555
C10 P1 1_555 1_555
C11 C10 1_555 1_555
H12 C11 1_555 1_555
C12 C11 1_555 1_555
H13 C12 1_555 1_555
C13 C12 1_555 1_555
H14 C13 1_555 1_555
C14 C13 1_555 1_555
H15 C14 1_555 1_555
C15 C10 1_555 1_555
H16 C15 1_555 1_555
C16 P2 1_555 1_555
C17 C16 1_555 1_555
H17 C17 1_555 1_555
C18 C17 1_555 1_555
H18 C18 1_555 1_555
C19 C18 1_555 1_555
H19 C19 1_555 1_555
C20 C19 1_555 1_555
H20 C20 1_555 1_555
C21 C16 1_555 1_555
H21 C21 1_555 1_555
C22 P2 1_555 1_555
C23 C22 1_555 1_555
H22 C23 1_555 1_555
C24 C23 1_555 1_555
H23 C24 1_555 1_555
C25 C24 1_555 1_555
H24 C25 1_555 1_555
C26 C25 1_555 1_555
H25 C26 1_555 1_555
C27 C22 1_555 1_555
H26 C27 1_555 1_555
C28 P3 1_555 1_555
C29 C28 1_555 1_555
H27 C29 1_555 1_555
C30 C29 1_555 1_555
H28 C30 1_555 1_555
C31 C30 1_555 1_555
H29 C31 1_555 1_555
C32 C31 1_555 1_555
H30 C32 1_555 1_555
C33 C28 1_555 1_555
H31 C33 1_555 1_555
C34 P3 1_555 1_555
C35 C34 1_555 1_555
H32 C35 1_555 1_555
C36 C35 1_555 1_555
H33 C36 1_555 1_555
C37 C36 1_555 1_555
H34 C37 1_555 1_555
C38 C37 1_555 1_555
H35 C38 1_555 1_555
C39 C34 1_555 1_555
H36 C39 1_555 1_555
C40 F1 1_555 1_555
F2 C40 1_555 1_555
F3 C40 1_555 1_555
O1 S1 1_555 1_555
O2 S1 1_555 1_555
O3 S1 1_555 1_555
S1 C40 1_555 1_555
Cl1 C41 1_555 1_555
C41 H37 1_555 1_555
H38 C41 1_555 1_555
Ag1D P3 1_555 1_555
Ag1B P2B 1_555 1_555
P1D Ag1D 1_555 1_555
P2B C2B 1_555 1_555
P2D Ag1D 1_555 1_555
P3D Ag1 1_555 1_555
C1D P1D 1_555 1_555
H1D C1D 1_555 1_555
H2D C1D 1_555 1_555
C2B C2 1_555 1_555
H3B C2B 1_555 1_555
H4B C2B 1_555 1_555
C3D P3D 1_555 1_555
H5D C3D 1_555 1_555
H6D C3D 1_555 1_555
C4D P1D 1_555 1_555
C5D C4D 1_555 1_555
H7D C5D 1_555 1_555
C6D C5D 1_555 1_555
H8D C6D 1_555 1_555
C7D C6D 1_555 1_555
H9D C7D 1_555 1_555
C8D C7D 1_555 1_555
H10D C8D 1_555 1_555
C9D C4D 1_555 1_555
H11D C9D 1_555 1_555
C10D P1D 1_555 1_555
C11D C10D 1_555 1_555
H12D C11D 1_555 1_555
C12D C11D 1_555 1_555
H13D C12D 1_555 1_555
C13D C12D 1_555 1_555
H14D C13D 1_555 1_555
C14D C13D 1_555 1_555
H15D C14D 1_555 1_555
C15D C10D 1_555 1_555
H16D C15D 1_555 1_555
C16B P2B 1_555 1_555
C17B C16B 1_555 1_555
H17B C17B 1_555 1_555
C18B C17B 1_555 1_555
H18B C18B 1_555 1_555
C19B C18B 1_555 1_555
H19B C19B 1_555 1_555
C20B C19B 1_555 1_555
H20B C20B 1_555 1_555
C21B C16B 1_555 1_555
H21B C21B 1_555 1_555
C22B P2B 1_555 1_555
C23B C22B 1_555 1_555
H22B C23B 1_555 1_555
C24B C23B 1_555 1_555
H23B C24B 1_555 1_555
C25B C24B 1_555 1_555
H24B C25B 1_555 1_555
C26B C25B 1_555 1_555
H25B C26B 1_555 1_555
C27B C22B 1_555 1_555
H26B C27B 1_555 1_555
C28D P3D 1_555 1_555
C29D C28D 1_555 1_555
H27D C29D 1_555 1_555
C30D C29D 1_555 1_555
H28D C30D 1_555 1_555
C31D C30D 1_555 1_555
H29D C31D 1_555 1_555
C32D C31D 1_555 1_555
H30D C32D 1_555 1_555
C33D C28D 1_555 1_555
H31D C33D 1_555 1_555
C34D P3D 1_555 1_555
C35D C34D 1_555 1_555
H32D C35D 1_555 1_555
C36D C35D 1_555 1_555
H33D C36D 1_555 1_555
C37D C36D 1_555 1_555
H34D C37D 1_555 1_555
C38D C37D 1_555 1_555
H35D C38D 1_555 1_555
C39D C34D 1_555 1_555
H36D C39D 1_555 1_555
Cl1B C41 1_555 1_555
C8 C9 1_555 1_555
C14 C15 1_555 1_555
C20 C21 1_555 1_555
C26 C27 1_555 1_555
C32 C33 1_555 1_555
C38 C39 1_555 1_555
C1D C3D 1_555 1_555
C8D C9D 1_555 1_555
C14D C15D 1_555 1_555
C20B C21B 1_555 1_555
C26B C27B 1_555 1_555
C32D C33D 1_555 1_555
C38D C39D 1_555 1_555

#END
