
#######################################################################
#
#                 Cambridge Crystallographic Data Centre
#                                CCDC 
#
#######################################################################
#
# If this CIF has been generated from an entry in the Cambridge 
# Structural Database, then it will include bibliographic, chemical, 
# crystal, experimental, refinement or atomic coordinate data resulting 
# from the CCDC's data processing and validation procedures.
#
#######################################################################

data_YIPCAD
_symmetry_cell_setting           triclinic
_symmetry_space_group_name_H-M   'P -1'
_symmetry_Int_Tables_number      2
_space_group_name_Hall           '-P 1'
loop_
_symmetry_equiv_pos_site_id
_symmetry_equiv_pos_as_xyz
1 x,y,z
2 -x,-y,-z
_cell_length_a                   14.7117(5)
_cell_length_b                   15.2436(5)
_cell_length_c                   15.7380(6)
_cell_angle_alpha                87.494(3)
_cell_angle_beta                 78.842(3)
_cell_angle_gamma                66.093(3)
_cell_volume                     3163.23
loop_
_atom_site_label
_atom_site_type_symbol
_atom_site_fract_x
_atom_site_fract_y
_atom_site_fract_z
Ag1 Ag 1.01376(3) 0.24403(3) 0.45995(3)
Ag2 Ag 0.61779(3) 0.71028(3) -0.02431(3)
N1 N 0.7837(3) 0.6730(3) -0.0866(3)
N2 N 0.4744(3) 0.7536(3) -0.0860(3)
N3 N 0.8320(3) 0.7160(3) -0.0497(3)
N4 N 0.3899(3) 0.7462(3) -0.0400(3)
N5 N 0.6237(3) 0.8418(3) 0.0448(3)
N6 N 0.5524(3) 0.6114(3) 0.0533(3)
N7 N 0.7150(3) 0.8351(3) 0.0577(3)
N8 N 0.4509(3) 0.6343(3) 0.0700(3)
N9 N 0.8584(3) 0.2778(3) 0.5597(3)
N10 N 0.0609(3) 1.3625(3) 0.4121(3)
N11 N 0.7962(3) 0.2399(3) 0.5400(3)
N12 N 0.1445(3) 1.3665(3) 0.4331(3)
N13 N 0.9861(3) 0.1244(3) 0.4080(3)
N14 N 0.1097(3) 1.2312(3) 0.5730(3)
N15 N 0.8922(3) 0.1239(3) 0.4233(3)
N16 N 0.1843(3) 1.2646(3) 0.5531(3)
C1 C 0.7769(4) 0.5168(4) 0.2073(3)
C2 C 0.3446(4) 0.9601(4) 0.2201(3)
C3 C 0.7064(4) 0.6118(4) 0.2255(3)
H1 H 0.6544 0.6265 0.2757
C4 C 0.4101(4) 0.8672(4) 0.2327(3)
H2 H 0.4441 0.8546 0.2803
C5 C 0.7113(4) 0.6850(4) 0.1716(3)
H3 H 0.6623 0.7489 0.1849
C6 C 0.4267(4) 0.7923(3) 0.1765(3)
H4 H 0.4717 0.7288 0.1859
C7 C 0.7878(4) 0.6652(3) 0.0977(3)
C8 C 0.3780(4) 0.8095(4) 0.1072(3)
C9 C 0.8553(4) 0.5700(4) 0.0769(3)
H5 H 0.9052 0.5550 0.0252
C10 C 0.3117(4) 0.9030(4) 0.0937(4)
H6 H 0.2775 0.9151 0.0462
C11 C 0.8503(4) 0.4972(4) 0.1306(3)
H7 H 0.8973 0.4329 0.1156
C12 C 0.2958(4) 0.9781(4) 0.1495(4)
H8 H 0.2517 1.0417 0.1397
C13 C 0.8027(4) 0.7441(4) 0.0420(3)
H9 H 0.8602 0.7542 0.0586
C14 C 0.3780(4) 0.7286(4) 0.0535(3)
H10 H 0.3095 0.7274 0.0719
C15 C 0.8356(4) 0.6515(4) -0.1674(4)
H11 H 0.8198 0.6204 -0.2099
C16 C 0.4579(4) 0.7675(4) -0.1667(3)
H12 H 0.5046 0.7747 -0.2144
C17 C 0.9161(5) 0.6803(4) -0.1825(4)
H13 H 0.9635 0.6729 -0.2350
C18 C 0.3629(5) 0.7701(4) -0.1725(4)
H14 H 0.3338 0.7796 -0.2228
C19 C 0.9121(4) 0.7212(4) -0.1057(4)
H15 H 0.9565 0.7481 -0.0938
C20 C 0.3209(4) 0.7562(4) -0.0899(4)
H16 H 0.2565 0.7539 -0.0714
C21 C 0.5597(4) 0.9315(4) 0.0699(4)
H17 H 0.4896 0.9581 0.0677
C22 C 0.5936(4) 0.5222(4) 0.0807(3)
H18 H 0.6644 0.4859 0.0762
C23 C 0.6095(5) 0.9810(4) 0.0999(5)
H19 H 0.5805 1.0456 0.1218
C24 C 0.5189(5) 0.4890(4) 0.1168(4)
H20 H 0.5289 0.4286 0.1417
C25 C 0.7081(5) 0.9179(4) 0.0914(4)
H21 H 0.7618 0.9299 0.1063
C26 C 0.4287(4) 0.5621(4) 0.1086(3)
H22 H 0.3631 0.5622 0.1265
C27 C 0.7787(4) 0.4391(4) 0.2685(3)
C28 C 0.3212(4) 1.0403(4) 0.2832(3)
C29 C 0.8195(4) 0.3426(4) 0.2404(4)
H23 H 0.8410 0.3262 0.1801
C30 C 0.3092(4) 1.1327(4) 0.2556(4)
H24 H 0.3222 1.1433 0.1954
C31 C 0.8291(4) 0.2707(4) 0.2991(3)
H25 H 0.8589 0.2056 0.2785
C32 C 0.2789(4) 1.2081(4) 0.3145(3)
H26 H 0.2724 1.2697 0.2945
C33 C 0.7956(4) 0.2918(4) 0.3885(3)
C34 C 0.2578(4) 1.1948(4) 0.4031(3)
C35 C 0.7512(4) 0.3884(4) 0.4159(4)
H27 H 0.7259 0.4049 0.4759
C36 C 0.2757(4) 1.1028(4) 0.4321(3)
H28 H 0.2661 1.0919 0.4925
C37 C 0.7432(4) 0.4605(4) 0.3575(3)
H29 H 0.7132 0.5255 0.3782
C38 C 0.3077(4) 1.0266(4) 0.3718(3)
H30 H 0.3206 0.9638 0.3919
C39 C 0.8019(4) 0.2122(4) 0.4509(3)
H31 H 0.7418 0.1971 0.4506
C40 C 0.2214(4) 1.2816(4) 0.4646(3)
H32 H 0.2811 1.2971 0.4652
C41 C 0.8333(4) 0.2913(4) 0.6462(3)
H33 H 0.8642 0.3179 0.6793
C42 C 0.0095(4) 1.4498(4) 0.3863(4)
H34 H -0.0534 1.4689 0.3678
C43 C 0.7563(4) 0.2615(5) 0.6816(4)
H35 H 0.7268 0.2628 0.7411
C44 C 0.0592(5) 1.5096(4) 0.3898(4)
H36 H 0.0382 1.5749 0.3747
C45 C 0.7321(4) 0.2298(4) 0.6116(4)
H37 H 0.6814 0.2059 0.6130
C46 C 0.1455(4) 1.4536(4) 0.4198(4)
H38 H 0.1966 1.4729 0.4295
C47 C 1.0488(4) 0.0344(4) 0.3818(4)
H39 H 1.1204 0.0124 0.3662
C48 C 0.0923(4) 1.2284(4) 0.6590(3)
H40 H 0.0446 1.2068 0.6920
C49 C 0.9962(5) -0.0231(4) 0.3799(5)
H41 H 1.0235 -0.0895 0.3639
C50 C 0.1530(5) 1.2615(5) 0.6947(4)
H42 H 0.1539 1.2673 0.7543
C51 C 0.8966(4) 0.0365(4) 0.4063(4)
H43 H 0.8405 0.0194 0.4117
C52 C 0.2106(4) 1.2835(5) 0.6259(4)
H44 H 0.2602 1.3077 0.6284
Ag1_2 Ag 0.01376(3) 1.24403(3) 0.45995(3)
N10_2 N 1.0609(3) 0.3625(3) 0.4121(3)
N14_2 N 1.1097(3) 0.2312(3) 0.5730(3)
S1 S 0.08370(10) 0.73081(11) 0.08061(9)
F1 F 0.0542(3) 0.5725(3) 0.0911(3)
F2 F 0.2093(3) 0.5508(3) 0.0832(3)
F3 F 0.1014(4) 0.6047(3) 0.2023(3)
O1 O 0.1084(4) 0.7186(4) -0.0129(3)
O2 O 0.1497(3) 0.7592(3) 0.1185(3)
O3 O -0.0230(3) 0.7795(3) 0.1170(3)
C53 C 0.1139(4) 0.6082(4) 0.1159(4)
S2 S 0.48488(12) 0.29133(12) 0.52411(11)
F4 F 0.5288(5) 0.2018(4) 0.3738(3)
F5 F 0.4597(4) 0.1445(3) 0.4735(4)
F6 F 0.6151(3) 0.1188(4) 0.4678(4)
O4 O 0.3869(3) 0.3522(4) 0.5036(4)
O5 O 0.4810(8) 0.2554(8) 0.6104(4)
O6 O 0.5645(4) 0.3236(4) 0.4869(5)
C54 C 0.5237(5) 0.1841(5) 0.4569(4)
N17 N 0.7387(6) 0.0067(6) 0.2897(5)
C56 C 0.6739(6) -0.0176(7) 0.3065(5)
C57 C 0.5897(8) -0.0471(8) 0.3276(7)
H45 H 0.5343 0.0003 0.3685
H46 H 0.6123 -0.1099 0.3540
H47 H 0.5659 -0.0515 0.2746
N18 N 0.0843(6) 1.0573(6) 0.0560(6)
C58 C 0.0216(6) 1.0392(6) 0.0946(6)
C59 C -0.0592(8) 1.0161(7) 0.1437(6)
H48 H -0.1206 1.0486 0.1195
H49 H -0.0725 1.0377 0.2044
H50 H -0.0392 0.9466 0.1404
N19 N 0.3504(6) 0.4299(7) 0.2858(5)
C60 C 0.4010(7) 0.4567(7) 0.3132(6)
C61 C 0.4676(8) 0.4900(8) 0.3475(6)
H51 H 0.5289 0.4783 0.3036
H52 H 0.4863 0.4552 0.3995
H53 H 0.4321 0.5590 0.3622
S3? S 0.5060(6) 0.2129(6) 0.5194(6)
F7? F 0.4005(12) 0.3839(13) 0.4743(14)
F8? F 0.5495(17) 0.3589(15) 0.489(2)
F9? F 0.5290(18) 0.2980(17) 0.3759(11)
O7? O 0.6136(11) 0.1544(19) 0.5012(18)
O8? O 0.446(2) 0.177(2) 0.481(3)
O9? O 0.467(4) 0.251(3) 0.6084(14)
C55? C 0.4959(14) 0.3207(12) 0.4603(12)
loop_
_geom_bond_atom_site_label_1
_geom_bond_atom_site_label_2
_geom_bond_site_symmetry_1
_geom_bond_site_symmetry_2
Ag1 N9 1_555 1_555
Ag2 N1 1_555 1_555
N1 N3 1_555 1_555
N2 Ag2 1_555 1_555
N3 C13 1_555 1_555
N4 N2 1_555 1_555
N5 Ag2 1_555 1_555
N6 Ag2 1_555 1_555
N7 N5 1_555 1_555
N8 N6 1_555 1_555
N9 N11 1_555 1_555
N10 N12 1_555 1_555
N11 C39 1_555 1_555
N12 C40 1_555 1_555
N13 Ag1 1_555 1_555
N14 N16 1_555 1_555
N15 N13 1_555 1_555
N16 C40 1_555 1_555
C1 C3 1_555 1_555
C2 C4 1_555 1_555
C3 H1 1_555 1_555
C4 H2 1_555 1_555
C5 C3 1_555 1_555
H3 C5 1_555 1_555
C6 C4 1_555 1_555
H4 C6 1_555 1_555
C7 C5 1_555 1_555
C8 C6 1_555 1_555
C9 C7 1_555 1_555
H5 C9 1_555 1_555
C10 C8 1_555 1_555
H6 C10 1_555 1_555
C11 C1 1_555 1_555
H7 C11 1_555 1_555
C12 C2 1_555 1_555
H8 C12 1_555 1_555
C13 N7 1_555 1_555
H9 C13 1_555 1_555
C14 N4 1_555 1_555
H10 C14 1_555 1_555
C15 N1 1_555 1_555
H11 C15 1_555 1_555
C16 N2 1_555 1_555
H12 C16 1_555 1_555
C17 C15 1_555 1_555
H13 C17 1_555 1_555
C18 C16 1_555 1_555
H14 C18 1_555 1_555
C19 N3 1_555 1_555
H15 C19 1_555 1_555
C20 N4 1_555 1_555
H16 C20 1_555 1_555
C21 N5 1_555 1_555
H17 C21 1_555 1_555
C22 N6 1_555 1_555
H18 C22 1_555 1_555
C23 C21 1_555 1_555
H19 C23 1_555 1_555
C24 C22 1_555 1_555
H20 C24 1_555 1_555
C25 N7 1_555 1_555
H21 C25 1_555 1_555
C26 N8 1_555 1_555
H22 C26 1_555 1_555
C27 C1 1_555 1_555
C28 C2 1_555 1_555
C29 C27 1_555 1_555
H23 C29 1_555 1_555
C30 C28 1_555 1_555
H24 C30 1_555 1_555
C31 C29 1_555 1_555
H25 C31 1_555 1_555
C32 C30 1_555 1_555
H26 C32 1_555 1_555
C33 C31 1_555 1_555
C34 C32 1_555 1_555
C35 C33 1_555 1_555
H27 C35 1_555 1_555
C36 C34 1_555 1_555
H28 C36 1_555 1_555
C37 C27 1_555 1_555
H29 C37 1_555 1_555
C38 C28 1_555 1_555
H30 C38 1_555 1_555
C39 N15 1_555 1_555
H31 C39 1_555 1_555
C40 C34 1_555 1_555
H32 C40 1_555 1_555
C41 N9 1_555 1_555
H33 C41 1_555 1_555
C42 N10 1_555 1_555
H34 C42 1_555 1_555
C43 C41 1_555 1_555
H35 C43 1_555 1_555
C44 C42 1_555 1_555
H36 C44 1_555 1_555
C45 N11 1_555 1_555
H37 C45 1_555 1_555
C46 N12 1_555 1_555
H38 C46 1_555 1_555
C47 N13 1_555 1_555
H39 C47 1_555 1_555
C48 N14 1_555 1_555
H40 C48 1_555 1_555
C49 C47 1_555 1_555
H41 C49 1_555 1_555
C50 C48 1_555 1_555
H42 C50 1_555 1_555
C51 N15 1_555 1_555
H43 C51 1_555 1_555
C52 N16 1_555 1_555
H44 C52 1_555 1_555
S1 O1 1_555 1_555
F1 C53 1_555 1_555
F2 C53 1_555 1_555
F3 C53 1_555 1_555
O2 S1 1_555 1_555
O3 S1 1_555 1_555
C53 S1 1_555 1_555
S2 O4 1_555 1_555
F4 C54 1_555 1_555
F5 C54 1_555 1_555
F6 C54 1_555 1_555
O5 S2 1_555 1_555
O6 S2 1_555 1_555
C54 S2 1_555 1_555
N17 C56 1_555 1_555
C56 C57 1_555 1_555
C57 H45 1_555 1_555
H46 C57 1_555 1_555
H47 C57 1_555 1_555
N18 C58 1_555 1_555
C58 C59 1_555 1_555
C59 H48 1_555 1_555
H49 C59 1_555 1_555
H50 C59 1_555 1_555
N19 C60 1_555 1_555
C60 C61 1_555 1_555
C61 H51 1_555 1_555
H52 C61 1_555 1_555
H53 C61 1_555 1_555
Ag1_2 N10 1_555 1_555
N10_2 Ag1 1_555 1_555
N14_2 Ag1 1_555 1_555
N8 C14 1_555 1_555
N14 Ag1_2 1_555 1_555
C7 C13 1_555 1_555
C8 C14 1_555 1_555
C9 C11 1_555 1_555
C10 C12 1_555 1_555
C17 C19 1_555 1_555
C18 C20 1_555 1_555
C23 C25 1_555 1_555
C24 C26 1_555 1_555
C33 C39 1_555 1_555
C35 C37 1_555 1_555
C36 C38 1_555 1_555
C43 C45 1_555 1_555
C44 C46 1_555 1_555
C49 C51 1_555 1_555
C50 C52 1_555 1_555

#END
