
#######################################################################
#
#                 Cambridge Crystallographic Data Centre
#                                CCDC 
#
#######################################################################
#
# If this CIF has been generated from an entry in the Cambridge 
# Structural Database, then it will include bibliographic, chemical, 
# crystal, experimental, refinement or atomic coordinate data resulting 
# from the CCDC's data processing and validation procedures.
#
#######################################################################

data_YIPDOR
_symmetry_cell_setting           tetragonal
_symmetry_space_group_name_H-M   'P -4 n 2'
_symmetry_Int_Tables_number      118
_space_group_name_Hall           'P -4 -2n'
loop_
_symmetry_equiv_pos_site_id
_symmetry_equiv_pos_as_xyz
1 x,y,z
2 -x,-y,z
3 1/2-y,1/2-x,1/2-z
4 1/2+y,1/2+x,1/2-z
5 1/2-x,1/2+y,1/2+z
6 1/2+x,1/2-y,1/2+z
7 -y,x,-z
8 y,-x,-z
_cell_length_a                   18.443(3)
_cell_length_b                   18.443(3)
_cell_length_c                   15.166(3)
_cell_angle_alpha                90
_cell_angle_beta                 90
_cell_angle_gamma                90
_cell_volume                     5158.63
loop_
_atom_site_label
_atom_site_type_symbol
_atom_site_fract_x
_atom_site_fract_y
_atom_site_fract_z
Cu1 Cu 0.70713(6) 0.20713(6) 0.2500
C1 C 0.6336(3) 0.1361(3) 0.6196(3)
C2 C 0.5642(3) 0.1512(3) 0.5971(4)
H1 H 0.5520 0.1978 0.5788
C3 C 0.5113(3) 0.0983(3) 0.6010(4)
H2 H 0.4640 0.1097 0.5850
C4 C 0.5279(3) 0.0284(3) 0.6286(3)
C5 C 0.5988(3) 0.0142(3) 0.6554(3)
H3 H 0.6110 -0.0313 0.6772
C6 C 0.6512(3) 0.0678(3) 0.6496(3)
H4 H 0.6987 0.0576 0.6661
C7 C 0.6927(3) 0.1917(3) 0.6064(4)
H5 H 0.6742 0.2398 0.6193
H6 H 0.7327 0.1819 0.6461
C8 C 0.7679(5) 0.1399(7) 0.4108(6)
H7 H 0.7979 0.1105 0.3770
C9 C 0.6918(4) 0.2160(4) 0.4438(5)
H8 H 0.6550 0.2505 0.4436
N1 N 0.7180(2) 0.1885(3) 0.5143(3)
N2 N 0.7671(3) 0.1356(4) 0.4962(5)
N3 N 0.7218(4) 0.1906(4) 0.3722(4)
Cu1A Cu 0.29287(6) -0.20713(6) 0.2500
C1A C 0.3664(3) -0.1361(3) 0.6196(3)
C1C C 0.6361(3) 0.1336(3) -0.1196(3)
C1B C 0.3639(3) -0.1336(3) -0.1196(3)
C2A C 0.4358(3) -0.1512(3) 0.5971(4)
C2C C 0.6512(3) 0.0642(3) -0.0971(4)
C2B C 0.3488(3) -0.0642(3) -0.0971(4)
H1A H 0.4480 -0.1978 0.5788
H1C H 0.6978 0.0520 -0.0788
H1B H 0.3022 -0.0520 -0.0788
C3A C 0.4887(3) -0.0983(3) 0.6010(4)
C3C C 0.5983(3) 0.0113(3) -0.1010(4)
C3B C 0.4017(3) -0.0113(3) -0.1010(4)
H2A H 0.5360 -0.1097 0.5850
H2C H 0.6097 -0.0360 -0.0850
H2B H 0.3903 0.0360 -0.0850
C4A C 0.4721(3) -0.0284(3) 0.6286(3)
C4C C 0.5284(3) 0.0279(3) -0.1286(3)
C4B C 0.4716(3) -0.0279(3) -0.1286(3)
C5A C 0.4012(3) -0.0142(3) 0.6554(3)
C5C C 0.5142(3) 0.0988(3) -0.1554(3)
C5B C 0.4858(3) -0.0988(3) -0.1554(3)
H3A H 0.3890 0.0313 0.6772
H3C H 0.4687 0.1110 -0.1772
H3B H 0.5313 -0.1110 -0.1772
C6A C 0.3488(3) -0.0678(3) 0.6496(3)
C6C C 0.5678(3) 0.1512(3) -0.1496(3)
C6B C 0.4322(3) -0.1512(3) -0.1496(3)
H4A H 0.3013 -0.0576 0.6661
H4C H 0.5576 0.1987 -0.1661
H4B H 0.4424 -0.1987 -0.1661
C7A C 0.3073(3) -0.1917(3) 0.6064(4)
C7C C 0.6917(3) 0.1927(3) -0.1064(4)
C7B C 0.3083(3) -0.1927(3) -0.1064(4)
H5A H 0.3258 -0.2398 0.6193
H5C H 0.7398 0.1742 -0.1193
H5B H 0.2602 -0.1742 -0.1193
H6A H 0.2673 -0.1819 0.6461
H6C H 0.6819 0.2327 -0.1461
H6B H 0.3181 -0.2327 -0.1461
C8A C 0.2321(5) -0.1399(7) 0.4108(6)
C8C C 0.6399(7) 0.2679(5) 0.0892(6)
C8B C 0.3601(7) -0.2679(5) 0.0892(6)
H7A H 0.2021 -0.1105 0.3770
H7C H 0.6105 0.2979 0.1230
H7B H 0.3895 -0.2979 0.1230
C9A C 0.3082(4) -0.2160(4) 0.4438(5)
C9C C 0.7160(4) 0.1918(4) 0.0562(5)
C9B C 0.2840(4) -0.1918(4) 0.0562(5)
H8A H 0.3450 -0.2505 0.4436
H8C H 0.7505 0.1550 0.0564
H8B H 0.2495 -0.1550 0.0564
N1A N 0.2820(2) -0.1885(3) 0.5143(3)
N1C N 0.6885(3) 0.2180(2) -0.0143(3)
N1B N 0.3115(3) -0.2180(2) -0.0143(3)
N2A N 0.2329(3) -0.1356(4) 0.4962(5)
N2C N 0.6356(4) 0.2671(3) 0.0038(5)
N2B N 0.3644(4) -0.2671(3) 0.0038(5)
N3A N 0.2782(4) -0.1906(4) 0.3722(4)
N3C N 0.6906(4) 0.2218(4) 0.1278(4)
N3B N 0.3094(4) -0.2218(4) 0.1278(4)
Cu2 Cu 1.0000 1.0000 0.5000
C10 C 0.6859(3) 0.9470(4) 0.3626(4)
C11 C 0.6958(3) 0.9606(4) 0.2738(5)
H9 H 0.7321 0.9366 0.2428
C12 C 0.6512(3) 1.0102(3) 0.2312(4)
H10 H 0.6580 1.0182 0.1712
C13 C 0.5983(3) 1.0475(3) 0.2735(4)
C14 C 0.5886(3) 1.0336(4) 0.3645(4)
H11 H 0.5523 1.0580 0.3950
C15 C 0.6313(4) 0.9854(4) 0.4086(5)
H12 H 0.6245 0.9777 0.4687
C16 C 0.7320(4) 0.8909(4) 0.4087(6)
H13 H 0.7017 0.8621 0.4475
H14 H 0.7531 0.8587 0.3651
C17 C 0.8478(4) 0.9644(4) 0.5687(5)
H15 H 0.8597 0.9784 0.6258
C18 C 0.8564(3) 0.9414(3) 0.4346(4)
H16 H 0.8737 0.9349 0.3775
N4 N 0.7908(3) 0.9250(3) 0.4608(4)
N5 N 0.7844(4) 0.9394(4) 0.5471(5)
N6 N 0.8946(2) 0.9684(2) 0.5007(4)
O11 O 1.0000 1.0000 0.3534(4)
Cu2B Cu 0.5000 1.5000 0.0000
Cu2B_2 Cu 1.5000 0.5000 0.0000
C10C C 0.4470(4) 1.1859(3) 0.1374(4)
C10A C 1.3141(3) 1.0530(4) 0.3626(4)
C10B C 1.5530(4) 0.8141(3) 0.1374(4)
C11C C 0.4606(4) 1.1958(3) 0.2262(5)
C11A C 1.3042(3) 1.0394(4) 0.2738(5)
C11B C 1.5394(4) 0.8042(3) 0.2262(5)
H9C H 0.4366 1.2321 0.2572
H9A H 1.2679 1.0634 0.2428
H9B H 1.5634 0.7679 0.2572
C12C C 0.5102(3) 1.1512(3) 0.2688(4)
C12A C 1.3488(3) 0.9898(3) 0.2312(4)
C12B C 1.4898(3) 0.8488(3) 0.2688(4)
H10C H 0.5182 1.1580 0.3288
H10A H 1.3420 0.9818 0.1712
H10B H 1.4818 0.8420 0.3288
C13C C 0.5475(3) 1.0983(3) 0.2265(4)
C13A C 1.4017(3) 0.9525(3) 0.2735(4)
C13B C 1.4525(3) 0.9017(3) 0.2265(4)
C14C C 0.5336(4) 1.0886(3) 0.1355(4)
C14A C 1.4114(3) 0.9664(4) 0.3645(4)
C14B C 1.4664(4) 0.9114(3) 0.1355(4)
H11C H 0.5580 1.0523 0.1050
H11A H 1.4477 0.9420 0.3950
H11B H 1.4420 0.9477 0.1050
C15C C 0.4854(4) 1.1313(4) 0.0914(5)
C15A C 1.3687(4) 1.0146(4) 0.4086(5)
C15B C 1.5146(4) 0.8687(4) 0.0914(5)
H12C H 0.4777 1.1245 0.0313
H12A H 1.3755 1.0223 0.4687
H12B H 1.5223 0.8755 0.0313
C16C C 0.3909(4) 1.2320(4) 0.0913(6)
C16A C 1.2680(4) 1.1091(4) 0.4087(6)
C16B C 1.6091(4) 0.7680(4) 0.0913(6)
H13C H 0.3621 1.2017 0.0525
H13A H 1.2983 1.1379 0.4475
H13B H 1.6379 0.7983 0.0525
H14C H 0.3587 1.2531 0.1349
H14A H 1.2469 1.1413 0.3651
H14B H 1.6413 0.7469 0.1349
C17C C 0.4644(4) 1.3478(4) -0.0687(5)
C17A C 1.1522(4) 1.0356(4) 0.5687(5)
C17B C 1.5356(4) 0.6522(4) -0.0687(5)
H15C H 0.4784 1.3597 -0.1258
H15A H 1.1403 1.0216 0.6258
H15B H 1.5216 0.6403 -0.1258
C18C C 0.4414(3) 1.3564(3) 0.0654(4)
C18A C 1.1436(3) 1.0586(3) 0.4346(4)
C18B C 1.5586(3) 0.6436(3) 0.0654(4)
H16C H 0.4349 1.3737 0.1225
H16A H 1.1263 1.0651 0.3775
H16B H 1.5651 0.6263 0.1225
N4C N 0.4250(3) 1.2908(3) 0.0392(4)
N4A N 1.2092(3) 1.0750(3) 0.4608(4)
N4B N 1.5750(3) 0.7092(3) 0.0392(4)
N5C N 0.4394(4) 1.2844(4) -0.0471(5)
N5A N 1.2156(4) 1.0606(4) 0.5471(5)
N5B N 1.5606(4) 0.7156(4) -0.0471(5)
N6C N 0.4684(2) 1.3946(2) -0.0007(4)
N6A N 1.1054(2) 1.0316(2) 0.5007(4)
N6B N 1.5316(2) 0.6054(2) -0.0007(4)
N6F N 1.0316(2) 0.8946(2) 0.4993(4)
N6G N 0.9684(2) 1.1054(2) 0.4993(4)
O11F O 1.0000 1.0000 0.6466(4)
Mo1 Mo 1.06683(2) 0.11943(2) 0.16499(3)
Mo2 Mo 1.18442(2) 0.060340(19) 0.00737(4)
Mo3 Mo 1.12449(3) -0.05693(2) 0.16365(3)
P1 P 1.0000 0.0000 0.0000
O1 O 1.06460(16) 0.02135(16) 0.05767(19)
O2 O 1.15495(19) 0.12572(17) 0.0984(2)
O3 O 1.0822(2) 0.1811(2) 0.2441(3)
O4 O 1.01802(18) 0.17147(16) 0.0758(2)
O5 O 0.9736(2) 0.08275(19) 0.1966(2)
O6 O 1.2690(2) 0.08900(17) -0.0127(3)
O7 O 1.12787(17) 0.11565(17) -0.0741(2)
O8 O 1.1741(2) -0.1015(2) 0.2389(3)
O9 O 1.19980(18) -0.01073(19) 0.0970(2)
O10 O 1.1087(2) 0.03486(19) 0.2215(2)
Mo1A Mo 0.93317(2) -0.11943(2) 0.16499(3)
Mo1F Mo 0.88057(2) 0.06683(2) -0.16499(3)
Mo1G Mo 1.11943(2) -0.06683(2) -0.16499(3)
Mo2A Mo 0.81558(2) -0.060340(19) 0.00737(4)
Mo2F Mo 0.939660(19) 0.18442(2) -0.00737(4)
Mo2G Mo 1.060340(19) -0.18442(2) -0.00737(4)
Mo3A Mo 0.87551(3) 0.05693(2) 0.16365(3)
Mo3F Mo 1.05693(2) 0.12449(3) -0.16365(3)
Mo3G Mo 0.94307(2) -0.12449(3) -0.16365(3)
O1A O 0.93540(16) -0.02135(16) 0.05767(19)
O1F O 0.97865(16) 0.06460(16) -0.05767(19)
O1G O 1.02135(16) -0.06460(16) -0.05767(19)
O2A O 0.84505(19) -0.12572(17) 0.0984(2)
O2F O 0.87428(17) 0.15495(19) -0.0984(2)
O2G O 1.12572(17) -0.15495(19) -0.0984(2)
O3A O 0.9178(2) -0.1811(2) 0.2441(3)
O3F O 0.8189(2) 0.0822(2) -0.2441(3)
O3G O 1.1811(2) -0.0822(2) -0.2441(3)
O4G O 1.17147(16) -0.01802(18) -0.0758(2)
O4A O 0.98198(18) -0.17147(16) 0.0758(2)
O4F O 0.82853(16) 0.01802(18) -0.0758(2)
O5A O 1.0264(2) -0.08275(19) 0.1966(2)
O5F O 0.91725(19) -0.0264(2) -0.1966(2)
O5G O 1.08275(19) 0.0264(2) -0.1966(2)
O6A O 0.7310(2) -0.08900(17) -0.0127(3)
O6F O 0.91100(17) 0.2690(2) 0.0127(3)
O6G O 1.08900(17) -0.2690(2) 0.0127(3)
O7G O 1.11565(17) -0.12787(17) 0.0741(2)
O7A O 0.87213(17) -0.11565(17) -0.0741(2)
O7F O 0.88435(17) 0.12787(17) 0.0741(2)
O8A O 0.8259(2) 0.1015(2) 0.2389(3)
O8F O 1.1015(2) 0.1741(2) -0.2389(3)
O8G O 0.8985(2) -0.1741(2) -0.2389(3)
O9A O 0.80020(18) 0.01073(19) 0.0970(2)
O9F O 1.01073(19) 0.19980(18) -0.0970(2)
O9G O 0.98927(19) -0.19980(18) -0.0970(2)
O10A O 0.8913(2) -0.03486(19) 0.2215(2)
O10F O 0.96514(19) 0.1087(2) -0.2215(2)
O10G O 1.03486(19) -0.1087(2) -0.2215(2)
loop_
_geom_bond_atom_site_label_1
_geom_bond_atom_site_label_2
_geom_bond_site_symmetry_1
_geom_bond_site_symmetry_2
Cu1 N3 1_555 1_555
Cu2 N6 1_555 1_555
Mo1 O1 1_555 1_555
Mo2 O1 1_555 1_555
Mo3 O1 1_555 1_555
P1 O1 1_555 1_555
C1 C2 1_555 1_555
C2 H1 1_555 1_555
C3 C2 1_555 1_555
H2 C3 1_555 1_555
C4 C3 1_555 1_555
C5 C4 1_555 1_555
H3 C5 1_555 1_555
C6 C1 1_555 1_555
H4 C6 1_555 1_555
C7 C1 1_555 1_555
H5 C7 1_555 1_555
H6 C7 1_555 1_555
C8 H7 1_555 1_555
C9 H8 1_555 1_555
C10 C11 1_555 1_555
C11 H9 1_555 1_555
C12 C11 1_555 1_555
H10 C12 1_555 1_555
C13 C12 1_555 1_555
C14 C13 1_555 1_555
H11 C14 1_555 1_555
C15 C10 1_555 1_555
H12 C15 1_555 1_555
C16 C10 1_555 1_555
H13 C16 1_555 1_555
H14 C16 1_555 1_555
C17 H15 1_555 1_555
C18 H16 1_555 1_555
N1 C7 1_555 1_555
N2 C8 1_555 1_555
N3 C8 1_555 1_555
N4 C16 1_555 1_555
N5 C17 1_555 1_555
N6 C17 1_555 1_555
O2 Mo1 1_555 1_555
O3 Mo1 1_555 1_555
O4 Mo1 1_555 1_555
O5 Mo1 1_555 1_555
O6 Mo2 1_555 1_555
O7 Mo2 1_555 1_555
O8 Mo3 1_555 1_555
O9 Mo2 1_555 1_555
O10 Mo1 1_555 1_555
O11 Cu2 1_555 1_555
Cu1A N3A 1_555 1_555
Cu2B N6C 1_555 1_555
Cu2B_2 N6B 1_555 1_555
Mo1A O1A 1_555 1_555
Mo1F O1F 1_555 1_555
Mo1G O1G 1_555 1_555
Mo2A O1A 1_555 1_555
Mo2F O4 1_555 1_555
Mo2G O1G 1_555 1_555
Mo3A O5 1_555 1_555
Mo3F O7 1_555 1_555
Mo3G O1G 1_555 1_555
C1A C2A 1_555 1_555
C1C C2C 1_555 1_555
C1B C2B 1_555 1_555
C2A H1A 1_555 1_555
C2C H1C 1_555 1_555
C2B H1B 1_555 1_555
C3A C2A 1_555 1_555
C3C C2C 1_555 1_555
C3B C2B 1_555 1_555
H2A C3A 1_555 1_555
H2C C3C 1_555 1_555
H2B C3B 1_555 1_555
C4A C4 1_555 1_555
C4C C3C 1_555 1_555
C4B C3B 1_555 1_555
C5A C4A 1_555 1_555
C5C C4C 1_555 1_555
C5B C4B 1_555 1_555
H3A C5A 1_555 1_555
H3C C5C 1_555 1_555
H3B C5B 1_555 1_555
C6A C1A 1_555 1_555
C6C C1C 1_555 1_555
C6B C1B 1_555 1_555
H4A C6A 1_555 1_555
H4C C6C 1_555 1_555
H4B C6B 1_555 1_555
C7A C1A 1_555 1_555
C7C C1C 1_555 1_555
C7B C1B 1_555 1_555
H5A C7A 1_555 1_555
H5C C7C 1_555 1_555
H5B C7B 1_555 1_555
H6A C7A 1_555 1_555
H6C C7C 1_555 1_555
H6B C7B 1_555 1_555
C8A H7A 1_555 1_555
C8C H7C 1_555 1_555
C8B H7B 1_555 1_555
C9A H8A 1_555 1_555
C9C H8C 1_555 1_555
C9B H8B 1_555 1_555
C10C C11C 1_555 1_555
C10A C11A 1_555 1_555
C10B C11B 1_555 1_555
C11C H9C 1_555 1_555
C11A H9A 1_555 1_555
C11B H9B 1_555 1_555
C12C C11C 1_555 1_555
C12A C11A 1_555 1_555
C12B C11B 1_555 1_555
H10C C12C 1_555 1_555
H10A C12A 1_555 1_555
H10B C12B 1_555 1_555
C13C C13 1_555 1_555
C13A C12A 1_555 1_555
C13B C12B 1_555 1_555
C14C C13C 1_555 1_555
C14A C13A 1_555 1_555
C14B C13B 1_555 1_555
H11C C14C 1_555 1_555
H11A C14A 1_555 1_555
H11B C14B 1_555 1_555
C15C C10C 1_555 1_555
C15A C10A 1_555 1_555
C15B C10B 1_555 1_555
H12C C15C 1_555 1_555
H12A C15A 1_555 1_555
H12B C15B 1_555 1_555
C16C C10C 1_555 1_555
C16A C10A 1_555 1_555
C16B C10B 1_555 1_555
H13C C16C 1_555 1_555
H13A C16A 1_555 1_555
H13B C16B 1_555 1_555
H14C C16C 1_555 1_555
H14A C16A 1_555 1_555
H14B C16B 1_555 1_555
C17C H15C 1_555 1_555
C17A H15A 1_555 1_555
C17B H15B 1_555 1_555
C18C H16C 1_555 1_555
C18A H16A 1_555 1_555
C18B H16B 1_555 1_555
N1A C7A 1_555 1_555
N1C C7C 1_555 1_555
N1B C7B 1_555 1_555
N2A C8A 1_555 1_555
N2C C8C 1_555 1_555
N2B C8B 1_555 1_555
N3A C8A 1_555 1_555
N3C Cu1 1_555 1_555
N3B Cu1A 1_555 1_555
N4C C16C 1_555 1_555
N4A C16A 1_555 1_555
N4B C16B 1_555 1_555
N5C C17C 1_555 1_555
N5A C17A 1_555 1_555
N5B C17B 1_555 1_555
N6C C17C 1_555 1_555
N6A Cu2 1_555 1_555
N6B C17B 1_555 1_555
N6F Cu2 1_555 1_555
N6G Cu2 1_555 1_555
O1A P1 1_555 1_555
O1F P1 1_555 1_555
O1G P1 1_555 1_555
O2A Mo1A 1_555 1_555
O2F Mo1F 1_555 1_555
O2G Mo1G 1_555 1_555
O3A Mo1A 1_555 1_555
O3F Mo1F 1_555 1_555
O3G Mo1G 1_555 1_555
O4G Mo2 1_555 1_555
O4A Mo1A 1_555 1_555
O4F Mo1F 1_555 1_555
O5A Mo3 1_555 1_555
O5F Mo1F 1_555 1_555
O5G Mo1G 1_555 1_555
O6A Mo2A 1_555 1_555
O6F Mo2F 1_555 1_555
O6G Mo2G 1_555 1_555
O7G Mo3 1_555 1_555
O7A Mo2A 1_555 1_555
O7F Mo2F 1_555 1_555
O8A Mo3A 1_555 1_555
O8F Mo3F 1_555 1_555
O8G Mo3G 1_555 1_555
O9A Mo2A 1_555 1_555
O9F Mo2F 1_555 1_555
O9G Mo2G 1_555 1_555
O10A Mo1A 1_555 1_555
O10F Mo1F 1_555 1_555
O10G Mo1G 1_555 1_555
O11F Cu2 1_555 1_555
Mo2 O2 1_555 1_555
Mo3 O9 1_555 1_555
Mo3 O10 1_555 1_555
C5 C6 1_555 1_555
C9 N1 1_555 1_555
C9 N3 1_555 1_555
C14 C15 1_555 1_555
C18 N4 1_555 1_555
C18 N6 1_555 1_555
N1 N2 1_555 1_555
N4 N5 1_555 1_555
Mo1A O5A 1_555 1_555
Mo1G O4G 1_555 1_555
Mo2A O2A 1_555 1_555
Mo2A O4F 1_555 1_555
Mo2F O1F 1_555 1_555
Mo2F O2F 1_555 1_555
Mo2G O2G 1_555 1_555
Mo2G O4A 1_555 1_555
Mo2G O7G 1_555 1_555
Mo3A O1A 1_555 1_555
Mo3A O7F 1_555 1_555
Mo3A O9A 1_555 1_555
Mo3A O10A 1_555 1_555
Mo3F O1F 1_555 1_555
Mo3F O5G 1_555 1_555
Mo3F O9F 1_555 1_555
Mo3F O10F 1_555 1_555
Mo3G O5F 1_555 1_555
Mo3G O7A 1_555 1_555
Mo3G O9G 1_555 1_555
Mo3G O10G 1_555 1_555
C3A C4A 1_555 1_555
C4C C4B 1_555 1_555
C5A C6A 1_555 1_555
C5C C6C 1_555 1_555
C5B C6B 1_555 1_555
C8C N3C 1_555 1_555
C8B N3B 1_555 1_555
C9A N1A 1_555 1_555
C9A N3A 1_555 1_555
C9C N1C 1_555 1_555
C9C N3C 1_555 1_555
C9B N1B 1_555 1_555
C9B N3B 1_555 1_555
C12C C13C 1_555 1_555
C13A C13B 1_555 1_555
C14C C15C 1_555 1_555
C14A C15A 1_555 1_555
C14B C15B 1_555 1_555
C17A N6A 1_555 1_555
C18C N4C 1_555 1_555
C18C N6C 1_555 1_555
C18A N4A 1_555 1_555
C18A N6A 1_555 1_555
C18B N4B 1_555 1_555
C18B N6B 1_555 1_555
N1A N2A 1_555 1_555
N1C N2C 1_555 1_555
N1B N2B 1_555 1_555
N4C N5C 1_555 1_555
N4A N5A 1_555 1_555
N4B N5B 1_555 1_555

#END
