
#######################################################################
#
#                 Cambridge Crystallographic Data Centre
#                                CCDC 
#
#######################################################################
#
# If this CIF has been generated from an entry in the Cambridge 
# Structural Database, then it will include bibliographic, chemical, 
# crystal, experimental, refinement or atomic coordinate data resulting 
# from the CCDC's data processing and validation procedures.
#
#######################################################################

data_YIPGUA
_symmetry_cell_setting           monoclinic
_symmetry_space_group_name_H-M   'P 21/c'
_symmetry_Int_Tables_number      14
_space_group_name_Hall           '-P 2ybc'
loop_
_symmetry_equiv_pos_site_id
_symmetry_equiv_pos_as_xyz
1 x,y,z
2 -x,1/2+y,1/2-z
3 -x,-y,-z
4 x,1/2-y,1/2+z
_cell_length_a                   18.9555(12)
_cell_length_b                   10.2697(5)
_cell_length_c                   17.0673(10)
_cell_angle_alpha                90
_cell_angle_beta                 99.486(4)
_cell_angle_gamma                90
_cell_volume                     3277.01
loop_
_atom_site_label
_atom_site_type_symbol
_atom_site_fract_x
_atom_site_fract_y
_atom_site_fract_z
Zn1 Zn 0.315341(14) 0.57718(3) 0.456475(16)
Zn2 Zn 0.5000 0.5000 0.5000
Cl1 Cl 0.19587(3) 0.62181(8) 0.43457(4)
O1 O 0.43340(10) 0.51263(19) 0.58896(10)
O2 O 0.31959(10) 0.45802(19) 0.54836(10)
O3 O 0.43080(10) 0.12148(18) 0.92562(10)
O4 O 0.33135(10) 0.02337(19) 0.86313(10)
O5 O 0.45786(10) 0.66330(17) 0.44067(10)
O6 O 0.35896(10) 0.75195(17) 0.47136(11)
C1 C 0.37974(13) 0.3592(3) 0.66574(14)
C2 C 0.32717(15) 0.2663(3) 0.66658(16)
H1 H 0.2901 0.2602 0.6237
C3 C 0.32878(16) 0.1819(3) 0.73026(16)
H2 H 0.2936 0.1184 0.7291
C4 C 0.38249(13) 0.1919(3) 0.79560(14)
C5 C 0.43484(16) 0.2859(3) 0.79558(17)
H3 H 0.4707 0.2946 0.8395
C6 C 0.43432(16) 0.3673(3) 0.73060(18)
H4 H 0.4708 0.4278 0.7305
C7 C 0.37844(13) 0.4496(2) 0.59601(14)
C8 C 0.38244(13) 0.1046(2) 0.86747(14)
C9 C 0.46265(13) 0.8842(2) 0.48144(15)
C10 C 0.53391(15) 0.8944(3) 0.4723(2)
H5 H 0.5569 0.8238 0.4536
C11 C 0.42923(15) 0.9903(3) 0.5090(2)
H6 H 0.3815 0.9842 0.5150
C12 C 0.42430(13) 0.7572(2) 0.46351(14)
Zn1B Zn 0.684659(14) 0.42282(3) 0.543525(16)
Zn1C Zn 0.315341(14) -0.07718(3) 0.956475(16)
Zn1B_2 Zn 0.684659(14) 1.42282(3) 0.543525(16)
Zn1A Zn 0.684659(14) 1.07718(3) 0.043525(16)
Zn2C Zn 0.5000 0.0000 1.0000
Zn2_2 Zn 0.5000 1.5000 0.5000
Zn2C_2 Zn 0.5000 1.0000 0.0000
Cl1B Cl 0.80413(3) 0.37819(8) 0.56543(4)
O1B O 0.56660(10) 0.48737(19) 0.41104(10)
O2B O 0.68041(10) 0.54198(19) 0.45164(10)
O3B O 0.56920(10) 0.87852(18) 0.07438(10)
O3C O 0.43080(10) 0.37852(18) 0.42562(10)
O3A O 0.56920(10) 0.62148(18) 0.57438(10)
O4B O 0.66865(10) 0.97663(19) 0.13687(10)
O4C O 0.33135(10) 0.47663(19) 0.36313(10)
O4A O 0.66865(10) 0.52337(19) 0.63687(10)
O5B O 0.54214(10) 1.33670(17) 0.55933(10)
O5B_2 O 0.54214(10) 0.33670(17) 0.55933(10)
O6B O 0.64104(10) 1.24805(17) 0.52864(11)
O6B_2 O 0.64104(10) 0.24805(17) 0.52864(11)
C1B C 0.62026(13) 0.6408(3) 0.33426(14)
C2B C 0.67283(15) 0.7337(3) 0.33342(16)
H1B H 0.7099 0.7398 0.3763
C3B C 0.67122(16) 0.8181(3) 0.26974(16)
H2B H 0.7064 0.8816 0.2709
C4B C 0.61751(13) 0.8081(3) 0.20440(14)
C5B C 0.56516(16) 0.7141(3) 0.20442(17)
H3B H 0.5293 0.7054 0.1605
C6B C 0.56568(16) 0.6327(3) 0.26940(18)
H4B H 0.5292 0.5722 0.2695
C7B C 0.62156(13) 0.5504(2) 0.40399(14)
C8B C 0.61756(13) 0.8954(2) 0.13253(14)
C9B C 0.53735(13) 1.1158(2) 0.51856(15)
C10B C 0.46609(15) 1.1056(3) 0.5277(2)
H5B H 0.4431 1.1762 0.5464
C11B C 0.57077(15) 1.0097(3) 0.4910(2)
H6B H 0.6185 1.0158 0.4850
C12B C 0.57570(13) 1.2428(2) 0.53649(14)
P1 P 0.16076(4) -0.08141(7) 0.24365(4)
C13 C 0.11062(14) 0.0050(3) 0.16126(15)
C14 C 0.14087(16) 0.0457(3) 0.09683(17)
H7 H 0.1885 0.0271 0.0944
C15 C 0.09941(18) 0.1145(3) 0.03594(18)
H8 H 0.1192 0.1414 -0.0077
C16 C 0.02891(18) 0.1433(3) 0.03995(17)
H9 H 0.0016 0.1895 -0.0011
C17 C -0.00122(16) 0.1043(3) 0.10394(18)
H10 H -0.0488 0.1237 0.1062
C18 C 0.03937(15) 0.0361(3) 0.16481(17)
H11 H 0.0193 0.0105 0.2085
C19 C 0.18563(15) 0.0316(3) 0.32382(16)
C20 C 0.20621(18) -0.0111(3) 0.40136(18)
H12 H 0.2054 -0.0993 0.4134
C21 C 0.2281(2) 0.0800(4) 0.4611(2)
H13 H 0.2418 0.0525 0.5133
C22 C 0.22946(18) 0.2102(3) 0.4430(2)
H14 H 0.2451 0.2700 0.4830
C23 C 0.2083(2) 0.2528(3) 0.3673(2)
H15 H 0.2087 0.3414 0.3559
C24 C 0.18614(18) 0.1639(3) 0.30726(19)
H16 H 0.1715 0.1930 0.2555
C25 C 0.23838(15) -0.1577(3) 0.21684(16)
C26 C 0.23275(17) -0.2244(3) 0.14522(18)
H17 H 0.1898 -0.2242 0.1099
C27 C 0.29115(19) -0.2911(3) 0.1267(2)
H18 H 0.2877 -0.3351 0.0786
C28 C 0.3543(2) -0.2923(4) 0.1793(2)
H19 H 0.3932 -0.3385 0.1671
C29 C 0.3605(2) -0.2257(5) 0.2500(2)
H20 H 0.4037 -0.2261 0.2850
C30 C 0.30246(17) -0.1580(4) 0.2693(2)
H21 H 0.3065 -0.1130 0.3171
C31 C 0.10385(16) -0.2041(3) 0.27775(16)
H22 H 0.1295 -0.2430 0.3259
H23 H 0.0619 -0.1614 0.2913
C32 C 0.07944(17) -0.3118(3) 0.21908(16)
C33 C 0.01433(19) -0.3038(4) 0.16860(19)
H24 H -0.0142 -0.2304 0.1701
C34 C -0.0089(2) -0.4037(4) 0.1160(2)
H25 H -0.0525 -0.3970 0.0821
C35 C 0.0328(3) -0.5124(4) 0.1139(2)
H26 H 0.0175 -0.5795 0.0786
C36 C 0.0974(3) -0.5221(4) 0.1643(3)
H27 H 0.1253 -0.5964 0.1629
C37 C 0.1215(2) -0.4224(3) 0.2171(2)
H28 H 0.1652 -0.4296 0.2507
loop_
_geom_bond_atom_site_label_1
_geom_bond_atom_site_label_2
_geom_bond_site_symmetry_1
_geom_bond_site_symmetry_2
Zn1 Cl1 1_555 1_555
Zn2 O1 1_555 1_555
P1 C13 1_555 1_555
O1 C7 1_555 1_555
O2 Zn1 1_555 1_555
O3 C8 1_555 1_555
O4 C8 1_555 1_555
O5 Zn2 1_555 1_555
O6 Zn1 1_555 1_555
C1 C2 1_555 1_555
C2 H1 1_555 1_555
C3 C2 1_555 1_555
H2 C3 1_555 1_555
C4 C3 1_555 1_555
C5 C4 1_555 1_555
H3 C5 1_555 1_555
C6 C1 1_555 1_555
H4 C6 1_555 1_555
C7 O2 1_555 1_555
C8 C4 1_555 1_555
C9 C10 1_555 1_555
C10 H5 1_555 1_555
C11 C9 1_555 1_555
H6 C11 1_555 1_555
C12 O5 1_555 1_555
C13 C14 1_555 1_555
C14 H7 1_555 1_555
C15 C14 1_555 1_555
H8 C15 1_555 1_555
C16 C15 1_555 1_555
H9 C16 1_555 1_555
C17 C16 1_555 1_555
H10 C17 1_555 1_555
C18 C13 1_555 1_555
H11 C18 1_555 1_555
C19 P1 1_555 1_555
C20 C19 1_555 1_555
H12 C20 1_555 1_555
C21 C20 1_555 1_555
H13 C21 1_555 1_555
C22 C21 1_555 1_555
H14 C22 1_555 1_555
C23 C22 1_555 1_555
H15 C23 1_555 1_555
C24 C19 1_555 1_555
H16 C24 1_555 1_555
C25 P1 1_555 1_555
C26 C25 1_555 1_555
H17 C26 1_555 1_555
C27 C26 1_555 1_555
H18 C27 1_555 1_555
C28 C27 1_555 1_555
H19 C28 1_555 1_555
C29 C28 1_555 1_555
H20 C29 1_555 1_555
C30 C25 1_555 1_555
H21 C30 1_555 1_555
C31 P1 1_555 1_555
H22 C31 1_555 1_555
H23 C31 1_555 1_555
C32 C31 1_555 1_555
C33 C32 1_555 1_555
H24 C33 1_555 1_555
C34 C33 1_555 1_555
H25 C34 1_555 1_555
C35 C34 1_555 1_555
H26 C35 1_555 1_555
C36 C35 1_555 1_555
H27 C36 1_555 1_555
C37 C32 1_555 1_555
H28 C37 1_555 1_555
Zn1B Cl1B 1_555 1_555
Zn1C O4 1_555 1_555
Zn1B_2 O6B 1_555 1_555
Zn1A O4B 1_555 1_555
Zn2C O3 1_555 1_555
Zn2_2 O5B 1_555 1_555
Zn2C_2 O3B 1_555 1_555
O1B Zn2 1_555 1_555
O2B Zn1B 1_555 1_555
O3B C8B 1_555 1_555
O3C Zn2 1_555 1_555
O3A Zn2 1_555 1_555
O4B C8B 1_555 1_555
O4C Zn1 1_555 1_555
O4A Zn1B 1_555 1_555
O5B C12B 1_555 1_555
O5B_2 Zn2 1_555 1_555
O6B C12B 1_555 1_555
O6B_2 Zn1B 1_555 1_555
C1B C2B 1_555 1_555
C2B H1B 1_555 1_555
C3B C2B 1_555 1_555
H2B C3B 1_555 1_555
C4B C3B 1_555 1_555
C5B C4B 1_555 1_555
H3B C5B 1_555 1_555
C6B C1B 1_555 1_555
H4B C6B 1_555 1_555
C7B O1B 1_555 1_555
C8B C4B 1_555 1_555
C9B C10B 1_555 1_555
C10B C11 1_555 1_555
H5B C10B 1_555 1_555
C11B C10 1_555 1_555
H6B C11B 1_555 1_555
C12B C9B 1_555 1_555
O6 C12 1_555 1_555
C1 C7 1_555 1_555
C5 C6 1_555 1_555
C9 C12 1_555 1_555
C17 C18 1_555 1_555
C23 C24 1_555 1_555
C29 C30 1_555 1_555
C36 C37 1_555 1_555
O2B C7B 1_555 1_555
C1B C7B 1_555 1_555
C5B C6B 1_555 1_555
C9B C11B 1_555 1_555

#END
