
#######################################################################
#
#                 Cambridge Crystallographic Data Centre
#                                CCDC 
#
#######################################################################
#
# If this CIF has been generated from an entry in the Cambridge 
# Structural Database, then it will include bibliographic, chemical, 
# crystal, experimental, refinement or atomic coordinate data resulting 
# from the CCDC's data processing and validation procedures.
#
#######################################################################

data_YIPQOD
_symmetry_cell_setting           monoclinic
_symmetry_space_group_name_H-M   'C 2/c'
_symmetry_Int_Tables_number      15
_space_group_name_Hall           '-C 2yn'
loop_
_symmetry_equiv_pos_site_id
_symmetry_equiv_pos_as_xyz
1 x,y,z
2 1/2+x,1/2+y,z
3 -x,y,1/2-z
4 1/2-x,1/2+y,1/2-z
5 -x,-y,-z
6 1/2-x,1/2-y,-z
7 x,-y,1/2+z
8 1/2+x,1/2-y,1/2+z
_cell_length_a                   28.278(6)
_cell_length_b                   7.0410(14)
_cell_length_c                   18.894(4)
_cell_angle_alpha                90
_cell_angle_beta                 112.55(3)
_cell_angle_gamma                90
_cell_volume                     3474.28
loop_
_atom_site_label
_atom_site_type_symbol
_atom_site_fract_x
_atom_site_fract_y
_atom_site_fract_z
Ag1 Ag 0.144847(8) 0.85933(3) 0.071491(11)
N1 N 0.11405(8) 1.2261(3) 0.15288(12)
N2 N 0.08256(8) 1.5028(3) 0.10439(12)
N3 N 0.24943(8) 1.3930(3) 0.11154(12)
N4 N 0.25563(9) 0.8597(3) 0.16147(13)
N5 N 0.10447(8) 1.0828(3) -0.06813(12)
O1 O 0.14278(7) 1.0788(3) 0.17057(10)
O2 O 0.07624(7) 1.6632(3) 0.06960(11)
O3 O 0.23415(8) 0.9509(3) 0.09966(11)
O4 O 0.22897(8) 0.7581(3) 0.18598(12)
O5 O 0.30254(8) 0.8731(3) 0.19690(14)
O6 O 0.13543(8) 0.9472(3) -0.06034(12)
O7 O 0.08684(8) 1.1082(3) -0.01690(11)
O8 O 0.09241(9) 1.1887(3) -0.12430(12)
C1 C 0.16074(10) 1.4027(4) 0.08497(14)
C2 C 0.21045(10) 1.3573(4) 0.13334(14)
H1 H 0.2167 1.3021 0.1808
C3 C 0.24168(10) 1.4680(4) 0.04240(15)
H2 H 0.2695 1.4903 0.0288
C4 C 0.19302(10) 1.5119(4) -0.00832(15)
H3 H 0.1878 1.5614 -0.0564
C5 C 0.15171(10) 1.4811(4) 0.01335(14)
H4 H 0.1186 1.5126 -0.0196
C6 C 0.30208(10) 1.3533(4) 0.16654(16)
H5 H 0.3008 1.3008 0.2127
H6 H 0.3214 1.4692 0.1783
H7 H 0.3181 1.2642 0.1443
C7 C 0.11957(9) 1.3759(4) 0.11275(14)
C8 C 0.05265(9) 1.4533(4) 0.15273(14)
C9 C 0.06505(9) 1.2372(4) 0.16657(14)
C10 C -0.00356(10) 1.4995(4) 0.10978(16)
H8 H -0.0078 1.6346 0.1037
H9 H -0.0229 1.4530 0.1382
H10 H -0.0155 1.4403 0.0602
C11 C 0.07562(11) 1.5750(4) 0.22482(15)
H11 H 0.0665 1.7056 0.2122
H12 H 0.1122 1.5624 0.2454
H13 H 0.0626 1.5334 0.2622
C12 C 0.02698(10) 1.1079(4) 0.10615(16)
H14 H 0.0369 0.9777 0.1181
H15 H 0.0269 1.1381 0.0566
H16 H -0.0067 1.1270 0.1059
C13 C 0.07489(11) 1.1688(4) 0.24718(16)
H17 H 0.0822 1.0352 0.2508
H18 H 0.0451 1.1919 0.2586
H19 H 0.1036 1.2361 0.2831
O2_2 O 0.07624(7) 0.6632(3) 0.06960(11)
Ag1_2 Ag 0.144847(8) 1.85933(3) 0.071491(11)
loop_
_geom_bond_atom_site_label_1
_geom_bond_atom_site_label_2
_geom_bond_site_symmetry_1
_geom_bond_site_symmetry_2
Ag1 O1 1_555 1_555
N1 O1 1_555 1_555
N2 O2 1_555 1_555
N3 C2 1_555 1_555
N4 O3 1_555 1_555
N5 O6 1_555 1_555
O2 Ag1_2 1_555 1_555
O3 Ag1 1_555 1_555
O4 N4 1_555 1_555
O5 N4 1_555 1_555
O6 Ag1 1_555 1_555
O7 Ag1 1_555 1_555
O8 N5 1_555 1_555
C1 C2 1_555 1_555
C2 H1 1_555 1_555
C3 N3 1_555 1_555
H2 C3 1_555 1_555
C4 C3 1_555 1_555
H3 C4 1_555 1_555
C5 C1 1_555 1_555
H4 C5 1_555 1_555
C6 N3 1_555 1_555
H5 C6 1_555 1_555
H6 C6 1_555 1_555
H7 C6 1_555 1_555
C7 N1 1_555 1_555
C8 N2 1_555 1_555
C9 N1 1_555 1_555
C10 C8 1_555 1_555
H8 C10 1_555 1_555
H9 C10 1_555 1_555
H10 C10 1_555 1_555
C11 C8 1_555 1_555
H11 C11 1_555 1_555
H12 C11 1_555 1_555
H13 C11 1_555 1_555
C12 C9 1_555 1_555
H14 C12 1_555 1_555
H15 C12 1_555 1_555
H16 C12 1_555 1_555
C13 C9 1_555 1_555
H17 C13 1_555 1_555
H18 C13 1_555 1_555
H19 C13 1_555 1_555
O2_2 Ag1 1_555 1_555
N2 C7 1_555 1_555
N5 O7 1_555 1_555
C1 C7 1_555 1_555
C4 C5 1_555 1_555
C8 C9 1_555 1_555

#END
