
#######################################################################
#
#                 Cambridge Crystallographic Data Centre
#                                CCDC 
#
#######################################################################
#
# If this CIF has been generated from an entry in the Cambridge 
# Structural Database, then it will include bibliographic, chemical, 
# crystal, experimental, refinement or atomic coordinate data resulting 
# from the CCDC's data processing and validation procedures.
#
#######################################################################

data_YIPVID
_symmetry_cell_setting           monoclinic
_symmetry_space_group_name_H-M   'P 21/c'
_symmetry_Int_Tables_number      14
_space_group_name_Hall           '-P 2ybc'
loop_
_symmetry_equiv_pos_site_id
_symmetry_equiv_pos_as_xyz
1 x,y,z
2 -x,1/2+y,1/2-z
3 -x,-y,-z
4 x,1/2-y,1/2+z
_cell_length_a                   8.2030(6)
_cell_length_b                   23.1034(19)
_cell_length_c                   15.8488(12)
_cell_angle_alpha                90
_cell_angle_beta                 97.355(6)
_cell_angle_gamma                90
_cell_volume                     2978.91
loop_
_atom_site_label
_atom_site_type_symbol
_atom_site_fract_x
_atom_site_fract_y
_atom_site_fract_z
Ho1 Ho 0.47164(2) 0.460491(9) 0.293894(13)
Ho2 Ho 0.98969(2) 0.458740(9) 0.382750(13)
Cl1 Cl 0.76661(13) 0.49179(5) 0.25102(7)
Cl2 Cl 0.30443(15) 0.42419(7) 0.42059(9)
Cl3 Cl 0.15759(14) 0.50222(7) 0.26365(9)
Cl4 Cl 0.69967(15) 0.41781(7) 0.41478(9)
Cl5 Cl 0.43872(17) 0.36762(6) 0.20869(9)
C1 C 0.4724(6) 0.6593(2) 0.4186(3)
C2 C 0.3145(7) 0.6759(2) 0.4324(3)
N1 N 0.4998(5) 0.5560(2) 0.3587(3)
C3 C 0.4914(6) 0.6020(2) 0.3863(3)
Cl6 Cl 0.96943(14) 0.56415(5) 0.44410(7)
N2 N 0.4211(5) 0.5094(2) 0.1529(3)
N3 N 0.9969(6) 0.3633(2) 0.3192(3)
C4 C 0.2662(6) 0.5783(2) -0.0431(3)
C5 C 0.2258(6) 0.5597(2) 0.0349(3)
C6 C 0.3430(6) 0.5323(2) 0.0972(3)
C7 C 0.5811(7) 0.7515(3) 0.4668(4)
C8 C -0.0133(7) 0.6098(2) -0.0826(3)
C9 C 0.1469(7) 0.6038(3) -0.1015(3)
C10 C 0.2937(7) 0.7313(2) 0.4657(4)
C11 C -0.2190(6) 0.5969(3) 0.0164(4)
C12 C -0.0530(6) 0.5901(2) -0.0047(3)
C13 C 0.4264(7) 0.7689(3) 0.4826(4)
C14 C 0.0660(6) 0.5651(2) 0.0553(3)
C15 C 0.6065(7) 0.6961(2) 0.4357(4)
N4 N -0.3477(6) 0.6024(3) 0.0352(3)
C16 C 1.0873(7) 0.2590(2) 0.2918(4)
C17 C 0.9714(8) 0.2154(3) 0.2693(4)
C18 C 1.3049(8) 0.1903(3) 0.2886(4)
N5 N 1.6144(8) 0.1646(3) 0.3086(4)
C19 C 1.4777(8) 0.1766(3) 0.3000(4)
C20 C 1.2552(7) 0.2471(2) 0.3011(4)
C21 C 1.0362(7) 0.3165(2) 0.3055(4)
C22 C 1.0246(9) 0.1595(3) 0.2577(5)
C23 C 1.1891(9) 0.1469(3) 0.2659(4)
C24 C 0.1320(8) 0.7476(3) 0.4846(5)
N6 N 0.0025(7) 0.7582(3) 0.4988(5)
H1 H 0.853(8) 0.226(3) 0.266(4)
H2 H 0.036(6) 0.555(2) 0.108(4)
H3 H 0.713(8) 0.685(3) 0.420(4)
H4 H 0.379(9) 0.574(3) -0.059(4)
H5 H 1.328(7) 0.277(3) 0.315(4)
H6 H -0.101(8) 0.627(3) -0.124(4)
H7 H 0.178(7) 0.617(3) -0.157(4)
H8 H 0.224(8) 0.647(3) 0.424(4)
H9 H 0.411(8) 0.807(3) 0.500(4)
H10 H 0.672(9) 0.777(3) 0.480(5)
H11 H 0.940(10) 0.129(4) 0.241(5)
H12 H 1.229(8) 0.108(3) 0.261(4)
Ho2_2 Ho -0.01031(2) 0.458740(9) 0.382750(13)
Ho2B Ho 1.01031(2) 0.541260(9) 0.617250(13)
Cl2_2 Cl 1.30443(15) 0.42419(7) 0.42059(9)
Cl3_2 Cl 1.15759(14) 0.50222(7) 0.26365(9)
Cl6B Cl 1.03057(14) 0.43585(5) 0.55590(7)
loop_
_geom_bond_atom_site_label_1
_geom_bond_atom_site_label_2
_geom_bond_site_symmetry_1
_geom_bond_site_symmetry_2
Ho1 Cl1 1_555 1_555
Ho2 Cl1 1_555 1_555
Cl2 Ho1 1_555 1_555
Cl3 Ho1 1_555 1_555
Cl4 Ho1 1_555 1_555
Cl5 Ho1 1_555 1_555
C1 C2 1_555 1_555
C2 C10 1_555 1_555
N1 Ho1 1_555 1_555
C3 C1 1_555 1_555
Cl6 Ho2 1_555 1_555
N2 Ho1 1_555 1_555
N3 Ho2 1_555 1_555
C4 C5 1_555 1_555
C5 C6 1_555 1_555
C6 N2 1_555 1_555
C7 C13 1_555 1_555
C8 C9 1_555 1_555
C9 C4 1_555 1_555
C10 C13 1_555 1_555
C11 C12 1_555 1_555
C12 C8 1_555 1_555
C13 H9 1_555 1_555
C14 C5 1_555 1_555
C15 C1 1_555 1_555
N4 C11 1_555 1_555
C16 C17 1_555 1_555
C17 C22 1_555 1_555
C18 C19 1_555 1_555
N5 C19 1_555 1_555
C20 C16 1_555 1_555
C21 N3 1_555 1_555
C22 C23 1_555 1_555
C23 C18 1_555 1_555
C24 C10 1_555 1_555
N6 C24 1_555 1_555
H1 C17 1_555 1_555
H2 C14 1_555 1_555
H3 C15 1_555 1_555
H4 C4 1_555 1_555
H5 C20 1_555 1_555
H6 C8 1_555 1_555
H7 C9 1_555 1_555
H8 C2 1_555 1_555
H10 C7 1_555 1_555
H11 C22 1_555 1_555
H12 C23 1_555 1_555
Ho2_2 Cl2 1_555 1_555
Ho2B Cl6 1_555 1_555
Cl2_2 Ho2 1_555 1_555
Cl3_2 Ho2 1_555 1_555
Cl6B Ho2 1_555 1_555
Ho2 Cl4 1_555 1_555
Cl3 Ho2_2 1_555 1_555
N1 C3 1_555 1_555
C7 C15 1_555 1_555
C12 C14 1_555 1_555
C16 C21 1_555 1_555
C18 C20 1_555 1_555
Ho2B Cl6B 1_555 1_555

#END
