
#######################################################################
#
#                 Cambridge Crystallographic Data Centre
#                                CCDC 
#
#######################################################################
#
# If this CIF has been generated from an entry in the Cambridge 
# Structural Database, then it will include bibliographic, chemical, 
# crystal, experimental, refinement or atomic coordinate data resulting 
# from the CCDC's data processing and validation procedures.
#
#######################################################################

data_YIPWEB
_symmetry_cell_setting           monoclinic
_symmetry_space_group_name_H-M   'P 21/c'
_symmetry_Int_Tables_number      14
_space_group_name_Hall           '-P 2ybc'
loop_
_symmetry_equiv_pos_site_id
_symmetry_equiv_pos_as_xyz
1 x,y,z
2 -x,1/2+y,1/2-z
3 -x,-y,-z
4 x,1/2-y,1/2+z
_cell_length_a                   9.1365(10)
_cell_length_b                   13.0198(15)
_cell_length_c                   13.8696(16)
_cell_angle_alpha                90
_cell_angle_beta                 92.449(2)
_cell_angle_gamma                90
_cell_volume                     1648.36
loop_
_atom_site_label
_atom_site_type_symbol
_atom_site_fract_x
_atom_site_fract_y
_atom_site_fract_z
Zn1 Zn 0.32835(3) 0.14427(2) 0.17624(2)
Cl1 Cl 0.30640(8) 0.06255(5) 0.03543(5)
Cl2 Cl 0.24240(7) 0.05598(5) 0.29967(5)
S1 S -0.02373(7) 0.19021(5) -0.00906(5)
N1 N 0.2283(2) 0.28545(16) 0.17088(15)
N2 N 0.2294(2) 0.33740(16) 0.25198(16)
N3 N 0.1399(2) 0.41750(15) 0.23479(15)
N4 N 0.4517(2) 0.66732(16) 0.30182(15)
N5 N -0.1749(2) 0.36700(17) -0.01647(17)
C1 C 0.0809(3) 0.41561(18) 0.14392(18)
H1 H 0.0154 0.4624 0.1155
C2 C 0.1386(3) 0.32984(19) 0.10257(19)
C3 C 0.1198(3) 0.49507(19) 0.31056(18)
H2 H 0.1456 0.4652 0.3731
H3 H 0.0174 0.5149 0.3103
C4 C 0.3636(3) 0.58509(18) 0.31180(17)
H4 H 0.4058 0.5227 0.3302
C5 C 0.2128(3) 0.58950(19) 0.29583(17)
C6 C 0.1513(3) 0.6830(2) 0.26922(18)
H5 H 0.0509 0.6883 0.2562
C7 C 0.2402(3) 0.76840(19) 0.26215(19)
H6 H 0.2002 0.8324 0.2469
C8 C 0.3893(3) 0.75679(19) 0.27812(18)
H7 H 0.4490 0.8141 0.2721
C9 C 0.1159(3) 0.2890(2) 0.00221(19)
H8 H 0.2078 0.2611 -0.0186
H9 H 0.0887 0.3454 -0.0406
C10 C -0.1853(3) 0.2652(2) -0.01724(17)
C11 C -0.3176(3) 0.2115(2) -0.02750(19)
H10 H -0.3196 0.1401 -0.0254
C12 C -0.4449(3) 0.2674(2) -0.0408(2)
H11 H -0.5348 0.2343 -0.0486
C13 C -0.4373(3) 0.3732(2) -0.0422(2)
H12 H -0.5213 0.4127 -0.0524
C14 C -0.3024(3) 0.4188(2) -0.0283(2)
H13 H -0.2987 0.4902 -0.0268
Zn1A Zn 0.67165(3) 0.64427(2) 0.32376(2)
N4A N 0.5483(2) 0.16732(16) 0.19818(15)
loop_
_geom_bond_atom_site_label_1
_geom_bond_atom_site_label_2
_geom_bond_site_symmetry_1
_geom_bond_site_symmetry_2
Zn1 Cl1 1_555 1_555
Cl2 Zn1 1_555 1_555
S1 C9 1_555 1_555
N1 Zn1 1_555 1_555
N2 N1 1_555 1_555
N3 N2 1_555 1_555
N4 C4 1_555 1_555
N5 C10 1_555 1_555
C1 N3 1_555 1_555
H1 C1 1_555 1_555
C2 N1 1_555 1_555
C3 N3 1_555 1_555
H2 C3 1_555 1_555
H3 C3 1_555 1_555
C4 H4 1_555 1_555
C5 C3 1_555 1_555
C6 C5 1_555 1_555
H5 C6 1_555 1_555
C7 C6 1_555 1_555
H6 C7 1_555 1_555
C8 N4 1_555 1_555
H7 C8 1_555 1_555
C9 C2 1_555 1_555
H8 C9 1_555 1_555
H9 C9 1_555 1_555
C10 S1 1_555 1_555
C11 C10 1_555 1_555
H10 C11 1_555 1_555
C12 C11 1_555 1_555
H11 C12 1_555 1_555
C13 C12 1_555 1_555
H12 C13 1_555 1_555
C14 N5 1_555 1_555
H13 C14 1_555 1_555
Zn1A N4 1_555 1_555
N4A Zn1 1_555 1_555
C1 C2 1_555 1_555
C4 C5 1_555 1_555
C7 C8 1_555 1_555
C13 C14 1_555 1_555

#END
