
#######################################################################
#
#                 Cambridge Crystallographic Data Centre
#                                CCDC 
#
#######################################################################
#
# If this CIF has been generated from an entry in the Cambridge 
# Structural Database, then it will include bibliographic, chemical, 
# crystal, experimental, refinement or atomic coordinate data resulting 
# from the CCDC's data processing and validation procedures.
#
#######################################################################

data_YIQBEF01
_symmetry_cell_setting           monoclinic
_symmetry_space_group_name_H-M   'C 2/m'
_symmetry_Int_Tables_number      12
_space_group_name_Hall           '-C 2y'
loop_
_symmetry_equiv_pos_site_id
_symmetry_equiv_pos_as_xyz
1 x,y,z
2 x,-y,z
3 1/2+x,1/2+y,z
4 1/2+x,1/2-y,z
5 -x,-y,-z
6 -x,y,-z
7 1/2-x,1/2-y,-z
8 1/2-x,1/2+y,-z
_cell_length_a                   11.325(2)
_cell_length_b                   12.278(3)
_cell_length_c                   7.624(2)
_cell_angle_alpha                90
_cell_angle_beta                 129.88(1)
_cell_angle_gamma                90
_cell_volume                     813.513
loop_
_atom_site_label
_atom_site_type_symbol
_atom_site_fract_x
_atom_site_fract_y
_atom_site_fract_z
Mn1 Mn 0.7500 0.2500 0.0000
N1 N 0.7580(4) 0.0969(2) 0.1774(5)
N2 N 0.6345(4) 0.3380(3) 0.1038(6)
N3 N 0.5000 0.3364(3) 0.0000
N4 N 0.9710(4) 0.3086(3) 0.3218(5)
N5 N 1.0000 0.3096(3) 0.5000
C1 C 0.7542(7) 0.0000 0.0954(10)
C2 C 0.7656(5) 0.0958(3) 0.3599(7)
C3 C 0.7706(7) 0.0000 0.4595(10)
H1 H 0.7709 0.0000 -0.0361
H2 H 0.7542 0.1670 0.4665
H3 H 0.7728 0.0000 0.5858
N1A N 0.7580(4) -0.0969(2) 0.1774(5)
C2A C 0.7656(5) -0.0958(3) 0.3599(7)
H2A H 0.7542 -0.1670 0.4665
N2E N 0.3655(4) 0.3380(3) -0.1038(6)
N4E N 1.0290(4) 0.3086(3) 0.6782(5)
N1F N 0.7420(4) 0.4031(2) -0.1774(5)
N2F N 0.8655(4) 0.1620(3) -0.1038(6)
N4F N 0.5290(4) 0.1914(3) -0.3218(5)
Mn1A Mn 0.7500 -0.2500 0.0000
Mn1C Mn 0.2500 0.2500 0.0000
Mn1C_2 Mn 1.2500 0.2500 1.0000
loop_
_geom_bond_atom_site_label_1
_geom_bond_atom_site_label_2
_geom_bond_site_symmetry_1
_geom_bond_site_symmetry_2
Mn1 N1 1_555 1_555
N1 C1 1_555 1_555
N2 Mn1 1_555 1_555
N3 N2 1_555 1_555
N4 Mn1 1_555 1_555
N5 N4 1_555 1_555
C1 H1 1_555 1_555
C2 N1 1_555 1_555
C3 C2 1_555 1_555
H2 C2 1_555 1_555
H3 C3 1_555 1_555
N1A C1 1_555 1_555
C2A C3 1_555 1_555
H2A C2A 1_555 1_555
N2E N3 1_555 1_555
N4E N5 1_555 1_555
N1F Mn1 1_555 1_555
N2F Mn1 1_555 1_555
N4F Mn1 1_555 1_555
Mn1A N1A 1_555 1_555
Mn1C N2E 1_555 1_555
Mn1C_2 N4E 1_555 1_555
N1A C2A 1_555 1_555

#END
