
#######################################################################
#
#                 Cambridge Crystallographic Data Centre
#                                CCDC 
#
#######################################################################
#
# If this CIF has been generated from an entry in the Cambridge 
# Structural Database, then it will include bibliographic, chemical, 
# crystal, experimental, refinement or atomic coordinate data resulting 
# from the CCDC's data processing and validation procedures.
#
#######################################################################

data_YIQGUA
_symmetry_cell_setting           monoclinic
_symmetry_space_group_name_H-M   'P 21/c'
_symmetry_Int_Tables_number      14
_space_group_name_Hall           '-P 2ybc'
loop_
_symmetry_equiv_pos_site_id
_symmetry_equiv_pos_as_xyz
1 x,y,z
2 -x,1/2+y,1/2-z
3 -x,-y,-z
4 x,1/2-y,1/2+z
_cell_length_a                   15.4650(10)
_cell_length_b                   7.5430(10)
_cell_length_c                   9.1480(10)
_cell_angle_alpha                90
_cell_angle_beta                 106.240(10)
_cell_angle_gamma                90
_cell_volume                     1024.56
loop_
_atom_site_label
_atom_site_type_symbol
_atom_site_fract_x
_atom_site_fract_y
_atom_site_fract_z
Mg1 Mg 0.12193(6) 0.00670(11) 0.34429(8)
C1 C 0.3390(2) -0.0083(3) 0.3400(3)
C2 C 0.2755(2) 0.0764(3) 0.2166(3)
C3 C 0.3033(2) 0.1023(4) 0.0829(3)
C4 C 0.3850(3) 0.0472(5) 0.0731(4)
C5 C 0.4461(2) -0.0345(5) 0.1911(4)
C6 C 0.4226(2) -0.0623(4) 0.3238(3)
C7 C 0.3214(2) -0.0524(4) 0.4843(3)
C8 C 0.2358(2) -0.0923(5) 0.6575(3)
C9 C 0.1436(2) -0.1765(3) 0.6337(3)
N1 N 0.24544(15) -0.0332(3) 0.5109(2)
O1 O 0.19463(12) 0.1288(2) 0.2219(2)
O2 O 0.08417(12) -0.1491(2) 0.5093(2)
O3 O 0.13059(11) -0.2619(2) 0.7435(2)
O4 O -0.00202(14) 0.0338(3) 0.1964(2)
O5 O 0.0860(2) 0.2314(2) 0.4614(2)
H1 H 0.2582(19) 0.1550(35) -0.0042(28)
H2 H 0.4022(19) 0.0632(38) -0.0082(30)
H3 H 0.5012(20) -0.0813(36) 0.1807(29)
H4 H 0.4602(16) -0.1317(30) 0.3994(24)
H5 H 0.3669(19) -0.1076(35) 0.5588(27)
H6 H 0.2366(17) 0.0176(35) 0.7231(28)
H7 H 0.2816(19) -0.1865(38) 0.7077(28)
H8 H 0.1164(18) 0.2572(38) 0.5403(29)
H9 H 0.0313(21) 0.1990(39) 0.4783(29)
H10 H -0.0344(19) -0.0627(41) 0.1512(31)
H11 H -0.0412(30) 0.1019(61) 0.1990(47)
O3C O 0.13059(11) -0.2381(2) 0.2435(2)
Mg1C Mg 0.12193(6) -0.50670(11) 0.84429(8)
loop_
_geom_bond_atom_site_label_1
_geom_bond_atom_site_label_2
_geom_bond_site_symmetry_1
_geom_bond_site_symmetry_2
Mg1 N1 1_555 1_555
C1 C2 1_555 1_555
C2 C3 1_555 1_555
C3 C4 1_555 1_555
C4 C5 1_555 1_555
C5 C6 1_555 1_555
C6 C1 1_555 1_555
C7 C1 1_555 1_555
C8 C9 1_555 1_555
C9 O2 1_555 1_555
N1 C7 1_555 1_555
O1 Mg1 1_555 1_555
O2 Mg1 1_555 1_555
O3 C9 1_555 1_555
O4 Mg1 1_555 1_555
O5 Mg1 1_555 1_555
H1 C3 1_555 1_555
H2 C4 1_555 1_555
H3 C5 1_555 1_555
H4 C6 1_555 1_555
H5 C7 1_555 1_555
H6 C8 1_555 1_555
H7 C8 1_555 1_555
H8 O5 1_555 1_555
H9 O5 1_555 1_555
H10 O4 1_555 1_555
H11 O4 1_555 1_555
O3C Mg1 1_555 1_555
Mg1C O3 1_555 1_555
C2 O1 1_555 1_555
C8 N1 1_555 1_555

#END
