
#######################################################################
#
#                 Cambridge Crystallographic Data Centre
#                                CCDC 
#
#######################################################################
#
# If this CIF has been generated from an entry in the Cambridge 
# Structural Database, then it will include bibliographic, chemical, 
# crystal, experimental, refinement or atomic coordinate data resulting 
# from the CCDC's data processing and validation procedures.
#
#######################################################################

data_YIQJUE
_symmetry_cell_setting           monoclinic
_symmetry_space_group_name_H-M   'P 21/n'
_symmetry_Int_Tables_number      14
_space_group_name_Hall           '-P 2yn'
loop_
_symmetry_equiv_pos_site_id
_symmetry_equiv_pos_as_xyz
1 x,y,z
2 1/2-x,1/2+y,1/2-z
3 -x,-y,-z
4 1/2+x,1/2-y,1/2+z
_cell_length_a                   14.3840(2)
_cell_length_b                   23.4370(2)
_cell_length_c                   14.7350(2)
_cell_angle_alpha                90
_cell_angle_beta                 90.2880(6)
_cell_angle_gamma                90
_cell_volume                     4967.37
loop_
_atom_site_label
_atom_site_type_symbol
_atom_site_fract_x
_atom_site_fract_y
_atom_site_fract_z
W1 W 0.410923(11) 0.769827(6) 0.334423(10)
C1 C 0.4770(3) 0.80696(17) 0.4526(3)
N1 N 0.5133(3) 0.82475(15) 0.5162(2)
C2 C 0.3025(3) 0.82010(17) 0.3984(3)
N2 N 0.2449(3) 0.84657(16) 0.4310(3)
C3 C 0.3570(3) 0.71772(17) 0.4443(3)
N3 N 0.3296(3) 0.69178(16) 0.5044(3)
C4 C 0.3716(3) 0.83730(17) 0.2409(3)
N4 N 0.3494(3) 0.87249(16) 0.1911(3)
C5 C 0.2834(3) 0.73477(18) 0.2822(3)
N5 N 0.2178(3) 0.71452(17) 0.2523(3)
C6 C 0.4375(3) 0.72806(17) 0.2062(3)
N6 N 0.4488(3) 0.70434(16) 0.1390(3)
C7 C 0.5135(3) 0.70453(18) 0.3648(3)
N7 N 0.5671(3) 0.66955(17) 0.3814(3)
C8 C 0.5411(3) 0.80725(17) 0.2893(3)
N8 N 0.6099(3) 0.82683(16) 0.2656(3)
Pr1 Pr 0.591744(16) 0.847068(9) 0.673221(14)
N9 N 0.5494(3) 0.83947(15) 0.8459(2)
N10 N 0.5337(3) 0.94032(14) 0.7563(2)
N11 N 0.5911(3) 0.94151(15) 0.5784(3)
C9 C 0.5661(3) 0.79106(19) 0.8918(3)
H1 H 0.5924 0.7605 0.8608
C10 C 0.5463(4) 0.7843(2) 0.9832(3)
H2 H 0.5575 0.7498 1.0124
C11 C 0.5094(4) 0.8300(2) 1.0295(3)
H3 H 0.4974 0.8274 1.0913
C12 C 0.4904(4) 0.8799(2) 0.9830(3)
H4 H 0.4644 0.9109 1.0130
C13 C 0.5104(3) 0.88340(19) 0.8912(3)
C14 C 0.4924(3) 0.93642(18) 0.8381(3)
C15 C 0.4361(4) 0.9800(2) 0.8722(3)
H5 H 0.4065 0.9759 0.9278
C16 C 0.4252(4) 1.0293(2) 0.8216(4)
H6 H 0.3872 1.0585 0.8424
C17 C 0.4709(4) 1.03474(19) 0.7404(4)
H7 H 0.4663 1.0683 0.7070
C18 C 0.5242(3) 0.98930(17) 0.7088(3)
C19 C 0.5713(3) 0.99187(18) 0.6197(3)
C20 C 0.5953(4) 1.04348(19) 0.5789(4)
H8 H 0.5831 1.0777 0.6085
C21 C 0.6369(5) 1.0439(2) 0.4953(4)
H9 H 0.6519 1.0782 0.4675
C22 C 0.6563(4) 0.9927(2) 0.4529(3)
H10 H 0.6849 0.9917 0.3965
C23 C 0.6315(4) 0.9426(2) 0.4974(3)
H11 H 0.6439 0.9080 0.4690
O1 O 0.4208(2) 0.85352(12) 0.6856(2)
C24 C 0.3542(3) 0.82347(17) 0.6611(3)
H12 H 0.3672 0.7888 0.6332
N12 N 0.2666(3) 0.83754(15) 0.6720(2)
C25 C 0.2405(4) 0.8910(2) 0.7156(4)
H13 H 0.2956 0.9119 0.7316
H14 H 0.2055 0.8830 0.7694
H15 H 0.2033 0.9133 0.6746
C26 C 0.1911(3) 0.8002(2) 0.6424(3)
H16 H 0.2164 0.7650 0.6205
H17 H 0.1565 0.8185 0.5947
H18 H 0.1506 0.7927 0.6926
O2 O 0.5380(3) 0.74789(13) 0.6799(2)
C27 C 0.5301(3) 0.70376(18) 0.6320(3)
H19 H 0.5283 0.7085 0.5693
N13 N 0.5244(4) 0.65207(16) 0.6634(3)
C28 C 0.5236(8) 0.6411(3) 0.7603(4)
H20 H 0.5864 0.6381 0.7823
H21 H 0.4911 0.6062 0.7720
H22 H 0.4929 0.6720 0.7908
C29 C 0.5153(5) 0.60284(19) 0.6027(4)
H23 H 0.5106 0.6158 0.5410
H24 H 0.4605 0.5816 0.6181
H25 H 0.5690 0.5788 0.6091
O3 O 0.7082(2) 0.82094(15) 0.5611(2)
C30 C 0.7407(4) 0.8093(3) 0.4872(4)
H26 H 0.7477 0.8389 0.4456
N14 N 0.7668(4) 0.7572(2) 0.4617(3)
C31 C 0.7569(6) 0.7100(3) 0.5236(5)
H27 H 0.8172 0.6980 0.5443
H28 H 0.7266 0.6789 0.4931
H29 H 0.7203 0.7217 0.5746
C32 C 0.8010(8) 0.7470(5) 0.3691(6)
H30 H 0.7873 0.7795 0.3317
H31 H 0.7711 0.7139 0.3442
H32 H 0.8670 0.7410 0.3708
O4 O 0.7256(2) 0.90690(14) 0.7148(2)
C36 C 0.8101(4) 0.9051(2) 0.7277(5)
H33 H 0.8331 0.8722 0.7553
N16 N 0.8708(4) 0.9441(2) 0.7069(3)
C37 C 0.8428(8) 0.9924(5) 0.6567(9)
H34 H 0.7900 0.9827 0.6196
H35 H 0.8929 1.0047 0.6187
H36 H 0.8263 1.0226 0.6976
C38 C 0.9706(5) 0.9389(4) 0.7273(7)
H37 H 0.9801 0.9091 0.7711
H38 H 0.9933 0.9743 0.7515
H39 H 1.0036 0.9298 0.6727
N5C N 0.7178(3) 0.78548(17) 0.7523(3)
Pr1C Pr 0.091744(16) 0.652932(9) 0.173221(14)
O5 O 0.7214(3) 1.04867(15) 0.9436(3)
H40 H 0.7272 1.0744 0.9064
C39 C 0.7225(7) 0.9972(3) 0.8999(5)
H41 H 0.7668 0.9994 0.8505
H42 H 0.6616 0.9907 0.8733
C40 C 0.7461(6) 0.9485(3) 0.9556(5)
H43 H 0.8104 0.9391 0.9473
H44 H 0.7082 0.9166 0.9383
H45 H 0.7353 0.9576 1.0182
O6 O 0.7786(3) 0.86496(17) 0.1750(3)
H46 H 0.734(4) 0.851(3) 0.200(4)
H47 H 0.788(5) 0.846(3) 0.130(3)
O7 O 0.8490(4) 1.05296(17) 0.0908(3)
H48 H 0.863(6) 1.0860(13) 0.100(5)
H49 H 0.816(5) 1.049(3) 0.047(4)
O8 O 0.8755(7) 0.9677(3) 0.4147(4)
H50 H 0.930(3) 0.958(6) 0.418(8)
H51 H 0.862(8) 0.967(5) 0.360(3)
O9 O 0.8249(4) 0.97312(17) 0.2345(3)
H52 H 0.815(6) 0.9396(13) 0.220(5)
H53 H 0.831(7) 0.991(3) 0.187(3)
O10 O 0.1106(4) 0.9226(2) 0.5151(4)
O11 O 0.4535(5) 0.6308(2) -0.0248(3)
C33? C 0.7276(16) 0.7755(11) 0.5037(15)
N15? N 0.7912(15) 0.7828(8) 0.4410(14)
C34? C 0.844(2) 0.8357(11) 0.435(2)
C35? C 0.812(3) 0.7356(15) 0.380(2)
loop_
_geom_bond_atom_site_label_1
_geom_bond_atom_site_label_2
_geom_bond_site_symmetry_1
_geom_bond_site_symmetry_2
W1 C1 1_555 1_555
C1 N1 1_555 1_555
N1 Pr1 1_555 1_555
C2 W1 1_555 1_555
N2 C2 1_555 1_555
C3 W1 1_555 1_555
N3 C3 1_555 1_555
C4 W1 1_555 1_555
N4 C4 1_555 1_555
C5 W1 1_555 1_555
N5 C5 1_555 1_555
C6 W1 1_555 1_555
N6 C6 1_555 1_555
C7 W1 1_555 1_555
N7 C7 1_555 1_555
C8 W1 1_555 1_555
N8 C8 1_555 1_555
Pr1 N9 1_555 1_555
N9 C9 1_555 1_555
N10 Pr1 1_555 1_555
N11 Pr1 1_555 1_555
C9 H1 1_555 1_555
C10 C9 1_555 1_555
H2 C10 1_555 1_555
C11 C10 1_555 1_555
H3 C11 1_555 1_555
C12 C11 1_555 1_555
H4 C12 1_555 1_555
C13 N9 1_555 1_555
C14 N10 1_555 1_555
C15 C14 1_555 1_555
H5 C15 1_555 1_555
C16 C15 1_555 1_555
H6 C16 1_555 1_555
C17 C16 1_555 1_555
H7 C17 1_555 1_555
C18 N10 1_555 1_555
C19 N11 1_555 1_555
C20 C19 1_555 1_555
H8 C20 1_555 1_555
C21 C20 1_555 1_555
H9 C21 1_555 1_555
C22 C21 1_555 1_555
H10 C22 1_555 1_555
C23 N11 1_555 1_555
H11 C23 1_555 1_555
O1 Pr1 1_555 1_555
C24 O1 1_555 1_555
H12 C24 1_555 1_555
N12 C24 1_555 1_555
C25 N12 1_555 1_555
H13 C25 1_555 1_555
H14 C25 1_555 1_555
H15 C25 1_555 1_555
C26 N12 1_555 1_555
H16 C26 1_555 1_555
H17 C26 1_555 1_555
H18 C26 1_555 1_555
O2 Pr1 1_555 1_555
C27 O2 1_555 1_555
H19 C27 1_555 1_555
N13 C27 1_555 1_555
C28 N13 1_555 1_555
H20 C28 1_555 1_555
H21 C28 1_555 1_555
H22 C28 1_555 1_555
C29 N13 1_555 1_555
H23 C29 1_555 1_555
H24 C29 1_555 1_555
H25 C29 1_555 1_555
O3 Pr1 1_555 1_555
C30 O3 1_555 1_555
H26 C30 1_555 1_555
N14 C30 1_555 1_555
C31 N14 1_555 1_555
H27 C31 1_555 1_555
H28 C31 1_555 1_555
H29 C31 1_555 1_555
C32 N14 1_555 1_555
H30 C32 1_555 1_555
H31 C32 1_555 1_555
H32 C32 1_555 1_555
O4 Pr1 1_555 1_555
C36 O4 1_555 1_555
H33 C36 1_555 1_555
N16 C36 1_555 1_555
C37 N16 1_555 1_555
H34 C37 1_555 1_555
H35 C37 1_555 1_555
H36 C37 1_555 1_555
C38 N16 1_555 1_555
H37 C38 1_555 1_555
H38 C38 1_555 1_555
H39 C38 1_555 1_555
O5 H40 1_555 1_555
C39 O5 1_555 1_555
H41 C39 1_555 1_555
H42 C39 1_555 1_555
C40 C39 1_555 1_555
H43 C40 1_555 1_555
H44 C40 1_555 1_555
H45 C40 1_555 1_555
O6 H46 1_555 1_555
H47 O6 1_555 1_555
O7 H48 1_555 1_555
H49 O7 1_555 1_555
O8 H50 1_555 1_555
H51 O8 1_555 1_555
O9 H52 1_555 1_555
H53 O9 1_555 1_555
N5C Pr1 1_555 1_555
Pr1C N5 1_555 1_555
C12 C13 1_555 1_555
C13 C14 1_555 1_555
C17 C18 1_555 1_555
C18 C19 1_555 1_555
C22 C23 1_555 1_555

#END
