
#######################################################################
#
#                 Cambridge Crystallographic Data Centre
#                                CCDC 
#
#######################################################################
#
# If this CIF has been generated from an entry in the Cambridge 
# Structural Database, then it will include bibliographic, chemical, 
# crystal, experimental, refinement or atomic coordinate data resulting 
# from the CCDC's data processing and validation procedures.
#
#######################################################################

data_YIQJOY
_symmetry_cell_setting           monoclinic
_symmetry_space_group_name_H-M   'P 21/n'
_symmetry_Int_Tables_number      14
_space_group_name_Hall           '-P 2yn'
loop_
_symmetry_equiv_pos_site_id
_symmetry_equiv_pos_as_xyz
1 x,y,z
2 1/2-x,1/2+y,1/2-z
3 -x,-y,-z
4 1/2+x,1/2-y,1/2+z
_cell_length_a                   14.5980(2)
_cell_length_b                   23.7530(3)
_cell_length_c                   14.8350(2)
_cell_angle_alpha                90
_cell_angle_beta                 90.398(1)
_cell_angle_gamma                90
_cell_volume                     5143.86
loop_
_atom_site_label
_atom_site_type_symbol
_atom_site_fract_x
_atom_site_fract_y
_atom_site_fract_z
W1 W 0.411696(11) 0.770298(7) 0.335339(10)
C1 C 0.4767(3) 0.8064(2) 0.4535(3)
N1 N 0.5113(3) 0.82368(19) 0.5167(2)
C2 C 0.3067(3) 0.8210(2) 0.3987(3)
N2 N 0.2509(3) 0.8473(2) 0.4319(3)
C3 C 0.3576(3) 0.7183(2) 0.4419(3)
N3 N 0.3285(3) 0.6928(2) 0.5007(3)
C4 C 0.3720(3) 0.8355(2) 0.2408(3)
N4 N 0.3511(4) 0.8695(2) 0.1911(3)
C5 C 0.2860(3) 0.7355(2) 0.2831(3)
N5 N 0.2208(3) 0.7158(2) 0.2541(3)
C6 C 0.4396(3) 0.7290(2) 0.2083(3)
N6 N 0.4516(3) 0.7053(2) 0.1424(3)
C7 C 0.5129(3) 0.7059(2) 0.3659(3)
N7 N 0.5651(3) 0.6719(3) 0.3825(3)
C8 C 0.5384(3) 0.8083(2) 0.2913(3)
N8 N 0.6047(3) 0.8284(2) 0.2666(3)
Ce1 Ce 0.593306(15) 0.845210(10) 0.674457(14)
N9 N 0.5541(3) 0.8396(2) 0.8486(3)
N10 N 0.5364(3) 0.93878(18) 0.7581(2)
N11 N 0.5904(3) 0.93990(19) 0.5817(3)
C9 C 0.5716(4) 0.7928(3) 0.8953(4)
H1 H 0.5981 0.7628 0.8648
C10 C 0.5533(4) 0.7859(4) 0.9848(4)
H2 H 0.5655 0.7520 1.0139
C11 C 0.5161(5) 0.8308(4) 1.0303(4)
H3 H 0.5045 0.8282 1.0918
C12 C 0.4963(5) 0.8795(3) 0.9840(4)
H4 H 0.4701 0.9099 1.0137
C13 C 0.5156(3) 0.8829(3) 0.8927(3)
C14 C 0.4971(3) 0.9347(2) 0.8398(3)
C15 C 0.4420(4) 0.9778(3) 0.8724(4)
H5 H 0.4128 0.9739 0.9276
C16 C 0.4308(5) 1.0257(3) 0.8236(5)
H6 H 0.3937 1.0546 0.8448
C17 C 0.4746(5) 1.0308(2) 0.7430(4)
H7 H 0.4700 1.0640 0.7100
C18 C 0.5260(3) 0.9861(2) 0.7108(3)
C19 C 0.5704(3) 0.9894(2) 0.6219(3)
C20 C 0.5915(5) 1.0403(3) 0.5808(5)
H8 H 0.5781 1.0741 0.6094
C21 C 0.6325(5) 1.0403(3) 0.4973(4)
H9 H 0.6469 1.0741 0.4692
C22 C 0.6518(4) 0.9904(3) 0.4563(4)
H10 H 0.6794 0.9895 0.4000
C23 C 0.6292(4) 0.9411(3) 0.5004(3)
H11 H 0.6417 0.9070 0.4721
O1 O 0.4235(2) 0.85173(17) 0.6882(2)
C24 C 0.3577(3) 0.8231(3) 0.6645(3)
H12 H 0.3695 0.7893 0.6350
N12 N 0.2716(3) 0.8367(2) 0.6780(3)
C25 C 0.1961(4) 0.8008(3) 0.6488(5)
H13 H 0.2201 0.7670 0.6224
H14 H 0.1595 0.8205 0.6050
H15 H 0.1590 0.7913 0.6998
C26 C 0.2492(5) 0.8891(3) 0.7206(5)
H16 H 0.3046 0.9089 0.7358
H17 H 0.2150 0.8820 0.7744
H18 H 0.2131 0.9117 0.6801
O2 O 0.5420(3) 0.74666(17) 0.6810(3)
C27 C 0.5301(4) 0.7037(3) 0.6360(4)
H19 H 0.5174 0.7082 0.5749
N13 N 0.5337(4) 0.6527(2) 0.6665(4)
C28 C 0.5495(12) 0.6420(4) 0.7583(7)
H20 H 0.5586 0.6770 0.7896
H21 H 0.6032 0.6190 0.7651
H22 H 0.4977 0.6227 0.7832
C29 C 0.5161(6) 0.6041(3) 0.6072(6)
H23 H 0.5127 0.6167 0.5457
H24 H 0.4592 0.5868 0.6235
H25 H 0.5649 0.5773 0.6135
O3 O 0.7055(2) 0.8176(2) 0.5611(2)
C30 C 0.7418(6) 0.8082(5) 0.4895(6)
H26 H 0.7460 0.8400 0.4532
N14 N 0.7733(19) 0.7672(9) 0.4550(11)
C31 C 0.8104(11) 0.7526(8) 0.3722(8)
H27 H 0.7940 0.7145 0.3579
H28 H 0.8759 0.7559 0.3752
H29 H 0.7869 0.7774 0.3264
C32 C 0.7617(9) 0.7122(6) 0.5213(10)
H30 H 0.7167 0.7202 0.5664
H31 H 0.8193 0.7039 0.5499
H32 H 0.7422 0.6803 0.4862
O4 O 0.7277(2) 0.90407(17) 0.7125(3)
C36 C 0.8102(4) 0.9040(3) 0.7303(5)
H33 H 0.8324 0.8729 0.7616
N16 N 0.8692(3) 0.9423(3) 0.7102(4)
C37 C 0.9654(5) 0.9386(5) 0.7350(9)
H34 H 0.9959 0.9729 0.7186
H35 H 0.9930 0.9075 0.7038
H36 H 0.9710 0.9328 0.7988
C38 C 0.8430(8) 0.9879(6) 0.6568(9)
H37 H 0.8940 1.0130 0.6498
H38 H 0.7934 1.0075 0.6852
H39 H 0.8234 0.9746 0.5987
N5C N 0.7208(3) 0.7842(2) 0.7541(3)
Ce1C Ce 0.093306(15) 0.654790(10) 0.174457(14)
O5 O 0.7230(5) 1.0523(3) 0.9416(4)
H40 H 0.6917 1.0747 0.9126
C39 C 0.7208(8) 1.0009(4) 0.9002(6)
H41 H 0.7585 1.0029 0.8467
H42 H 0.6585 0.9937 0.8805
C40 C 0.7516(10) 0.9533(5) 0.9542(7)
H43 H 0.7523 0.9200 0.9176
H44 H 0.7107 0.9480 1.0038
H45 H 0.8122 0.9606 0.9769
O6 O 0.7639(4) 0.8682(3) 0.1646(4)
O7 O 0.8482(5) 1.0582(3) 0.0902(4)
O8 O 0.8737(5) 0.9682(3) 0.4091(5)
O9 O 0.8249(5) 0.9728(3) 0.2277(4)
O10 O 0.1194(4) 0.9240(3) 0.5155(5)
O11 O 0.4571(5) 0.6288(3) -0.0178(4)
C33? C 0.7405(16) 0.7700(10) 0.5349(14)
N15? N 0.773(3) 0.7518(11) 0.4680(15)
C34? C 0.808(3) 0.7016(15) 0.434(3)
C35? C 0.789(3) 0.8035(17) 0.395(2)
loop_
_geom_bond_atom_site_label_1
_geom_bond_atom_site_label_2
_geom_bond_site_symmetry_1
_geom_bond_site_symmetry_2
W1 C1 1_555 1_555
C1 N1 1_555 1_555
N1 Ce1 1_555 1_555
C2 W1 1_555 1_555
N2 C2 1_555 1_555
C3 W1 1_555 1_555
N3 C3 1_555 1_555
C4 W1 1_555 1_555
N4 C4 1_555 1_555
C5 W1 1_555 1_555
N5 C5 1_555 1_555
C6 W1 1_555 1_555
N6 C6 1_555 1_555
C7 W1 1_555 1_555
N7 C7 1_555 1_555
C8 W1 1_555 1_555
N8 C8 1_555 1_555
Ce1 N9 1_555 1_555
N9 C9 1_555 1_555
N10 Ce1 1_555 1_555
N11 Ce1 1_555 1_555
C9 H1 1_555 1_555
C10 C9 1_555 1_555
H2 C10 1_555 1_555
C11 C10 1_555 1_555
H3 C11 1_555 1_555
C12 C11 1_555 1_555
H4 C12 1_555 1_555
C13 N9 1_555 1_555
C14 N10 1_555 1_555
C15 C14 1_555 1_555
H5 C15 1_555 1_555
C16 C15 1_555 1_555
H6 C16 1_555 1_555
C17 C16 1_555 1_555
H7 C17 1_555 1_555
C18 N10 1_555 1_555
C19 N11 1_555 1_555
C20 C19 1_555 1_555
H8 C20 1_555 1_555
C21 C20 1_555 1_555
H9 C21 1_555 1_555
C22 C21 1_555 1_555
H10 C22 1_555 1_555
C23 N11 1_555 1_555
H11 C23 1_555 1_555
O1 Ce1 1_555 1_555
C24 O1 1_555 1_555
H12 C24 1_555 1_555
N12 C24 1_555 1_555
C25 N12 1_555 1_555
H13 C25 1_555 1_555
H14 C25 1_555 1_555
H15 C25 1_555 1_555
C26 N12 1_555 1_555
H16 C26 1_555 1_555
H17 C26 1_555 1_555
H18 C26 1_555 1_555
O2 Ce1 1_555 1_555
C27 O2 1_555 1_555
H19 C27 1_555 1_555
N13 C27 1_555 1_555
C28 N13 1_555 1_555
H20 C28 1_555 1_555
H21 C28 1_555 1_555
H22 C28 1_555 1_555
C29 N13 1_555 1_555
H23 C29 1_555 1_555
H24 C29 1_555 1_555
H25 C29 1_555 1_555
O3 Ce1 1_555 1_555
C30 O3 1_555 1_555
H26 C30 1_555 1_555
N14 C30 1_555 1_555
C31 N14 1_555 1_555
H27 C31 1_555 1_555
H28 C31 1_555 1_555
H29 C31 1_555 1_555
C32 N14 1_555 1_555
H30 C32 1_555 1_555
H31 C32 1_555 1_555
H32 C32 1_555 1_555
O4 Ce1 1_555 1_555
C36 O4 1_555 1_555
H33 C36 1_555 1_555
N16 C36 1_555 1_555
C37 N16 1_555 1_555
H34 C37 1_555 1_555
H35 C37 1_555 1_555
H36 C37 1_555 1_555
C38 N16 1_555 1_555
H37 C38 1_555 1_555
H38 C38 1_555 1_555
H39 C38 1_555 1_555
O5 H40 1_555 1_555
C39 O5 1_555 1_555
H41 C39 1_555 1_555
H42 C39 1_555 1_555
C40 C39 1_555 1_555
H43 C40 1_555 1_555
H44 C40 1_555 1_555
H45 C40 1_555 1_555
N5C Ce1 1_555 1_555
Ce1C N5 1_555 1_555
C12 C13 1_555 1_555
C13 C14 1_555 1_555
C17 C18 1_555 1_555
C18 C19 1_555 1_555
C22 C23 1_555 1_555

#END
