
#######################################################################
#
#                 Cambridge Crystallographic Data Centre
#                                CCDC 
#
#######################################################################
#
# If this CIF has been generated from an entry in the Cambridge 
# Structural Database, then it will include bibliographic, chemical, 
# crystal, experimental, refinement or atomic coordinate data resulting 
# from the CCDC's data processing and validation procedures.
#
#######################################################################

data_YIQKIT
_symmetry_cell_setting           monoclinic
_symmetry_space_group_name_H-M   'P 21/n'
_symmetry_Int_Tables_number      14
_space_group_name_Hall           '-P 2yn'
loop_
_symmetry_equiv_pos_site_id
_symmetry_equiv_pos_as_xyz
1 x,y,z
2 1/2-x,1/2+y,1/2-z
3 -x,-y,-z
4 1/2+x,1/2-y,1/2+z
_cell_length_a                   14.2070(2)
_cell_length_b                   23.4340(4)
_cell_length_c                   14.6280(2)
_cell_angle_alpha                90
_cell_angle_beta                 91.279(1)
_cell_angle_gamma                90
_cell_volume                     4868.84
loop_
_atom_site_label
_atom_site_type_symbol
_atom_site_fract_x
_atom_site_fract_y
_atom_site_fract_z
W1 W 0.402165(12) 0.771746(7) 0.338412(11)
C1 C 0.4697(3) 0.80820(19) 0.4585(3)
N1 N 0.5061(3) 0.82529(16) 0.5240(2)
C2 C 0.2921(3) 0.82212(19) 0.4009(3)
N2 N 0.2337(3) 0.84843(18) 0.4330(3)
C3 C 0.3487(3) 0.7199(2) 0.4498(3)
N3 N 0.3213(3) 0.69407(18) 0.5095(3)
C4 C 0.3608(3) 0.8385(2) 0.2428(3)
N4 N 0.3370(3) 0.87341(19) 0.1920(3)
C5 C 0.2748(3) 0.7342(2) 0.2847(3)
N5 N 0.2087(3) 0.71217(17) 0.2552(2)
C6 C 0.4308(3) 0.7315(2) 0.2083(3)
N6 N 0.4436(3) 0.70819(19) 0.1411(3)
C7 C 0.5053(3) 0.7055(2) 0.3687(3)
N7 N 0.5591(3) 0.67010(19) 0.3852(3)
C8 C 0.5341(3) 0.80876(19) 0.2956(3)
N8 N 0.6039(3) 0.82789(18) 0.2723(3)
Tb1 Tb 0.584851(14) 0.847875(8) 0.677331(13)
N9 N 0.5458(3) 0.84040(16) 0.8465(2)
N10 N 0.5323(3) 0.93981(16) 0.7546(2)
N11 N 0.5898(3) 0.93724(16) 0.5779(2)
C9 C 0.5605(3) 0.7918(2) 0.8938(3)
H1 H 0.5873 0.7611 0.8634
C10 C 0.5385(4) 0.7847(2) 0.9841(3)
H2 H 0.5504 0.7504 1.0141
C11 C 0.4983(5) 0.8303(3) 1.0290(4)
H3 H 0.4830 0.8272 1.0903
C12 C 0.4811(4) 0.8802(2) 0.9816(3)
H4 H 0.4535 0.9111 1.0107
C13 C 0.5054(3) 0.8843(2) 0.8900(3)
C14 C 0.4911(3) 0.9376(2) 0.8370(3)
C15 C 0.4402(4) 0.9836(2) 0.8701(3)
H5 H 0.4111 0.9810 0.9262
C16 C 0.4332(4) 1.0330(2) 0.8194(3)
H6 H 0.3983 1.0638 0.8401
C17 C 0.4789(4) 1.0358(2) 0.7372(3)
H7 H 0.4777 1.0693 0.7030
C18 C 0.5265(3) 0.9883(2) 0.7063(3)
C19 C 0.5740(3) 0.9891(2) 0.6168(3)
C20 C 0.6007(4) 1.0391(2) 0.5749(3)
H8 H 0.5892 1.0740 0.6028
C21 C 0.6445(4) 1.0376(2) 0.4917(3)
H9 H 0.6634 1.0711 0.4634
C22 C 0.6596(4) 0.9850(2) 0.4511(3)
H10 H 0.6885 0.9824 0.3948
C23 C 0.6307(3) 0.9362(2) 0.4967(3)
H11 H 0.6404 0.9010 0.4691
O1 O 0.4174(2) 0.85578(13) 0.6885(2)
C24 C 0.3493(3) 0.8254(2) 0.6651(3)
H12 H 0.3618 0.7903 0.6382
N12 N 0.2608(3) 0.83965(17) 0.6761(3)
C25 C 0.1842(3) 0.8022(2) 0.6480(3)
H13 H 0.2094 0.7682 0.6214
H14 H 0.1446 0.8214 0.6038
H15 H 0.1480 0.7923 0.7003
C26 C 0.2351(4) 0.8943(2) 0.7161(4)
H16 H 0.2911 0.9152 0.7323
H17 H 0.1991 0.8878 0.7699
H18 H 0.1981 0.9158 0.6726
O2 O 0.5326(2) 0.75172(14) 0.6851(2)
C27 C 0.5261(3) 0.7082(2) 0.6372(3)
H19 H 0.5227 0.7132 0.5741
N13 N 0.5238(3) 0.65596(17) 0.6677(3)
C28 C 0.5281(6) 0.6442(3) 0.7654(4)
H20 H 0.5374 0.6793 0.7983
H21 H 0.5796 0.6188 0.7788
H22 H 0.4703 0.6268 0.7835
C29 C 0.5160(5) 0.6070(2) 0.6062(4)
H23 H 0.5128 0.6201 0.5440
H24 H 0.4601 0.5858 0.6194
H25 H 0.5701 0.5829 0.6147
O3 O 0.6990(2) 0.81941(14) 0.5703(2)
C30 C 0.7167(5) 0.7805(4) 0.5163(5)
H26 H 0.6843 0.7463 0.5221
N14 N 0.7790(4) 0.7847(3) 0.4507(4)
C31 C 0.7924(16) 0.7402(9) 0.3834(12)
H27 H 0.7492 0.7096 0.3942
H28 H 0.8558 0.7261 0.3884
H29 H 0.7812 0.7554 0.3233
C32 C 0.8376(6) 0.8359(4) 0.4414(6)
H30 H 0.8241 0.8622 0.4897
H31 H 0.8242 0.8537 0.3834
H32 H 0.9029 0.8254 0.4451
O5 O 0.7177(2) 0.90581(15) 0.7178(2)
C36 C 0.8034(4) 0.9036(3) 0.7218(5)
H33 H 0.8284 0.8682 0.7375
N16 N 0.8642(3) 0.9429(2) 0.7075(3)
C37 C 0.9650(5) 0.9361(4) 0.7157(8)
H34 H 0.9953 0.9710 0.6987
H35 H 0.9847 0.9059 0.6761
H36 H 0.9821 0.9268 0.7778
C38 C 0.8337(8) 0.9948(6) 0.6725(12)
H37 H 0.8865 1.0200 0.6665
H38 H 0.7892 1.0115 0.7132
H39 H 0.8041 0.9889 0.6136
N5C N 0.7087(3) 0.78783(17) 0.7552(2)
Tb1C Tb 0.084851(14) 0.652125(8) 0.177331(13)
O6 O 0.7209(4) 1.04606(19) 0.9470(3)
H40 H 0.7491 1.0444 0.9964
C39 C 0.7318(9) 0.9954(4) 0.9007(6)
H41 H 0.7864 0.9986 0.8623
H42 H 0.6772 0.9898 0.8607
C40 C 0.74314(16) 0.94562(9) 0.95761(13)
H43 H 0.7437 0.9121 0.9199
H44 H 0.6919 0.9434 0.9991
H45 H 0.8015 0.9482 0.9917
O7 O 0.22422(16) 0.13713(9) 0.81730(13)
O8 O 0.17312(16) 0.02853(9) 0.76160(13)
O9 O 0.86072(16) 1.05033(9) 1.09150(13)
O10 O 0.09722(16) 0.03143(9) 0.58230(13)
O11 O 0.08374(16) -0.07510(9) 0.50487(13)
C33? C 0.7312(12) 0.8079(7) 0.4956(12)
N15? N 0.7598(9) 0.7564(5) 0.4691(8)
C34? C 0.7920(12) 0.7431(6) 0.3791(8)
C35? C 0.7499(15) 0.7075(8) 0.5313(12)
O4? O 0.9450(9) 0.8680(6) 0.4783(8)
loop_
_geom_bond_atom_site_label_1
_geom_bond_atom_site_label_2
_geom_bond_site_symmetry_1
_geom_bond_site_symmetry_2
W1 C1 1_555 1_555
C1 N1 1_555 1_555
N1 Tb1 1_555 1_555
C2 W1 1_555 1_555
N2 C2 1_555 1_555
C3 W1 1_555 1_555
N3 C3 1_555 1_555
C4 W1 1_555 1_555
N4 C4 1_555 1_555
C5 W1 1_555 1_555
N5 C5 1_555 1_555
C6 W1 1_555 1_555
N6 C6 1_555 1_555
C7 W1 1_555 1_555
N7 C7 1_555 1_555
C8 W1 1_555 1_555
N8 C8 1_555 1_555
Tb1 N9 1_555 1_555
N9 C9 1_555 1_555
N10 Tb1 1_555 1_555
N11 Tb1 1_555 1_555
C9 H1 1_555 1_555
C10 C9 1_555 1_555
H2 C10 1_555 1_555
C11 C10 1_555 1_555
H3 C11 1_555 1_555
C12 C11 1_555 1_555
H4 C12 1_555 1_555
C13 N9 1_555 1_555
C14 N10 1_555 1_555
C15 C14 1_555 1_555
H5 C15 1_555 1_555
C16 C15 1_555 1_555
H6 C16 1_555 1_555
C17 C16 1_555 1_555
H7 C17 1_555 1_555
C18 N10 1_555 1_555
C19 N11 1_555 1_555
C20 C19 1_555 1_555
H8 C20 1_555 1_555
C21 C20 1_555 1_555
H9 C21 1_555 1_555
C22 C21 1_555 1_555
H10 C22 1_555 1_555
C23 N11 1_555 1_555
H11 C23 1_555 1_555
O1 Tb1 1_555 1_555
C24 O1 1_555 1_555
H12 C24 1_555 1_555
N12 C24 1_555 1_555
C25 N12 1_555 1_555
H13 C25 1_555 1_555
H14 C25 1_555 1_555
H15 C25 1_555 1_555
C26 N12 1_555 1_555
H16 C26 1_555 1_555
H17 C26 1_555 1_555
H18 C26 1_555 1_555
O2 Tb1 1_555 1_555
C27 O2 1_555 1_555
H19 C27 1_555 1_555
N13 C27 1_555 1_555
C28 N13 1_555 1_555
H20 C28 1_555 1_555
H21 C28 1_555 1_555
H22 C28 1_555 1_555
C29 N13 1_555 1_555
H23 C29 1_555 1_555
H24 C29 1_555 1_555
H25 C29 1_555 1_555
O3 Tb1 1_555 1_555
C30 O3 1_555 1_555
H26 C30 1_555 1_555
N14 C30 1_555 1_555
C31 N14 1_555 1_555
H27 C31 1_555 1_555
H28 C31 1_555 1_555
H29 C31 1_555 1_555
C32 N14 1_555 1_555
H30 C32 1_555 1_555
H31 C32 1_555 1_555
H32 C32 1_555 1_555
O5 Tb1 1_555 1_555
C36 O5 1_555 1_555
H33 C36 1_555 1_555
N16 C36 1_555 1_555
C37 N16 1_555 1_555
H34 C37 1_555 1_555
H35 C37 1_555 1_555
H36 C37 1_555 1_555
C38 N16 1_555 1_555
H37 C38 1_555 1_555
H38 C38 1_555 1_555
H39 C38 1_555 1_555
O6 H40 1_555 1_555
C39 O6 1_555 1_555
H41 C39 1_555 1_555
H42 C39 1_555 1_555
C40 C39 1_555 1_555
H43 C40 1_555 1_555
H44 C40 1_555 1_555
H45 C40 1_555 1_555
N5C Tb1 1_555 1_555
Tb1C N5 1_555 1_555
C12 C13 1_555 1_555
C13 C14 1_555 1_555
C17 C18 1_555 1_555
C18 C19 1_555 1_555
C22 C23 1_555 1_555

#END
