
#######################################################################
#
#                 Cambridge Crystallographic Data Centre
#                                CCDC 
#
#######################################################################
#
# If this CIF has been generated from an entry in the Cambridge 
# Structural Database, then it will include bibliographic, chemical, 
# crystal, experimental, refinement or atomic coordinate data resulting 
# from the CCDC's data processing and validation procedures.
#
#######################################################################

data_YIQKEP
_symmetry_cell_setting           monoclinic
_symmetry_space_group_name_H-M   'P 21/n'
_symmetry_Int_Tables_number      14
_space_group_name_Hall           '-P 2yn'
loop_
_symmetry_equiv_pos_site_id
_symmetry_equiv_pos_as_xyz
1 x,y,z
2 1/2-x,1/2+y,1/2-z
3 -x,-y,-z
4 1/2+x,1/2-y,1/2+z
_cell_length_a                   14.2370(2)
_cell_length_b                   23.4170(3)
_cell_length_c                   14.6690(2)
_cell_angle_alpha                90
_cell_angle_beta                 90.919(1)
_cell_angle_gamma                90
_cell_volume                     4889.84
loop_
_atom_site_label
_atom_site_type_symbol
_atom_site_fract_x
_atom_site_fract_y
_atom_site_fract_z
W1 W 0.403762(12) 0.771604(8) 0.337709(12)
C1 C 0.4707(3) 0.8081(2) 0.4572(3)
N1 N 0.5068(3) 0.82521(17) 0.5224(3)
C2 C 0.2938(3) 0.8223(2) 0.4004(3)
N2 N 0.2357(3) 0.8484(2) 0.4327(3)
C3 C 0.3505(3) 0.7196(2) 0.4480(3)
N3 N 0.3225(3) 0.6938(2) 0.5078(3)
C4 C 0.3625(3) 0.8387(2) 0.2425(3)
N4 N 0.3397(3) 0.8734(2) 0.1918(3)
C5 C 0.2766(3) 0.7349(2) 0.2846(3)
N5 N 0.2100(3) 0.71403(19) 0.2549(3)
C6 C 0.4317(3) 0.7307(2) 0.2086(3)
N6 N 0.4445(3) 0.7070(2) 0.1414(3)
C7 C 0.5069(4) 0.7057(2) 0.3683(3)
N7 N 0.5612(3) 0.6707(2) 0.3849(3)
C8 C 0.5352(3) 0.8089(2) 0.2940(3)
N8 N 0.6047(3) 0.82825(19) 0.2702(3)
Eu1 Eu 0.585985(15) 0.847039(9) 0.676486(14)
N9 N 0.5458(3) 0.83976(18) 0.8465(3)
N10 N 0.5317(3) 0.93965(17) 0.7551(3)
N11 N 0.5902(3) 0.93797(17) 0.5782(3)
C9 C 0.5602(3) 0.7914(2) 0.8931(3)
H1 H 0.5864 0.7605 0.8626
C10 C 0.5386(4) 0.7845(3) 0.9835(4)
H2 H 0.5500 0.7500 1.0133
C11 C 0.4995(5) 0.8301(3) 1.0288(4)
H3 H 0.4852 0.8272 1.0902
C12 C 0.4820(5) 0.8802(3) 0.9817(4)
H4 H 0.4549 0.9113 1.0107
C13 C 0.5056(4) 0.8835(2) 0.8904(3)
C14 C 0.4907(3) 0.9370(2) 0.8373(3)
C15 C 0.4384(4) 0.9822(2) 0.8705(4)
H5 H 0.4089 0.9792 0.9263
C16 C 0.4305(4) 1.0316(2) 0.8202(4)
H6 H 0.3946 1.0620 0.8410
C17 C 0.4768(4) 1.0354(2) 0.7378(4)
H7 H 0.4750 1.0690 0.7041
C18 C 0.5256(4) 0.9886(2) 0.7068(3)
C19 C 0.5733(3) 0.9892(2) 0.6178(3)
C20 C 0.5997(4) 1.0397(2) 0.5759(4)
H8 H 0.5883 1.0745 0.6043
C21 C 0.6430(4) 1.0387(3) 0.4921(4)
H9 H 0.6609 1.0724 0.4637
C22 C 0.6591(4) 0.9864(3) 0.4517(4)
H10 H 0.6882 0.9841 0.3955
C23 C 0.6307(4) 0.9373(2) 0.4970(3)
H11 H 0.6405 0.9021 0.4692
O1 O 0.4177(2) 0.85491(15) 0.6882(2)
C24 C 0.3495(3) 0.8241(2) 0.6640(3)
H12 H 0.3622 0.7890 0.6373
N12 N 0.2609(3) 0.83876(18) 0.6743(3)
C25 C 0.1849(3) 0.8012(2) 0.6456(4)
H13 H 0.2105 0.7672 0.6191
H14 H 0.1458 0.8204 0.6014
H15 H 0.1481 0.7910 0.6975
C26 C 0.2353(4) 0.8929(3) 0.7141(5)
H16 H 0.2912 0.9137 0.7302
H17 H 0.1991 0.8863 0.7677
H18 H 0.1987 0.9145 0.6707
O2 O 0.5328(2) 0.74979(14) 0.6831(2)
C27 C 0.5264(3) 0.7063(2) 0.6353(3)
H19 H 0.5224 0.7114 0.5725
N13 N 0.5249(3) 0.65399(19) 0.6656(3)
C28 C 0.5308(8) 0.6423(3) 0.7629(5)
H20 H 0.5400 0.6774 0.7956
H21 H 0.5828 0.6172 0.7753
H22 H 0.4737 0.6246 0.7821
C29 C 0.5163(5) 0.6050(2) 0.6047(4)
H23 H 0.5128 0.6181 0.5427
H24 H 0.4603 0.5841 0.6186
H25 H 0.5700 0.5807 0.6127
O3 O 0.7007(2) 0.81885(16) 0.5677(2)
C30 C 0.7181(5) 0.7803(4) 0.5133(6)
H26 H 0.6853 0.7462 0.5181
N14 N 0.7820(5) 0.7851(4) 0.4473(5)
C31 C 0.7952(19) 0.7407(12) 0.3798(15)
H27 H 0.7645 0.7064 0.3991
H28 H 0.8611 0.7335 0.3730
H29 H 0.7687 0.7529 0.3224
C32 C 0.8400(7) 0.8362(5) 0.4408(7)
H30 H 0.8195 0.8639 0.4844
H31 H 0.8343 0.8519 0.3805
H32 H 0.9045 0.8265 0.4533
O5 O 0.7197(2) 0.90499(16) 0.7176(2)
C36 C 0.8066(4) 0.9027(3) 0.7281(5)
H33 H 0.8308 0.8691 0.7530
N16 N 0.8666(3) 0.9418(3) 0.7082(4)
C37 C 0.9682(5) 0.9352(4) 0.7227(8)
H34 H 0.9993 0.9700 0.7065
H35 H 0.9907 0.9045 0.6854
H36 H 0.9810 0.9267 0.7857
C38 C 0.8395(7) 0.9895(5) 0.6577(10)
H37 H 0.8923 1.0146 0.6514
H38 H 0.7900 1.0092 0.6886
H39 H 0.8174 0.9777 0.5985
N5C N 0.7100(3) 0.78597(19) 0.7549(3)
Eu1C Eu 0.085985(15) 0.652961(9) 0.176486(14)
O6 O 0.7216(4) 1.04649(19) 0.9462(3)
H40 H 0.6940 1.0699 0.9140
C39 C 0.7295(8) 0.9959(3) 0.8998(6)
H41 H 0.7819 0.9989 0.8586
H42 H 0.6730 0.9905 0.8629
C40 C 0.7435(7) 0.9453(4) 0.9572(6)
H43 H 0.7442 0.9118 0.9196
H44 H 0.6932 0.9425 0.9998
H45 H 0.8023 0.9485 0.9898
O7 O 0.7766(3) 0.86364(19) 0.1799(3)
O8 O 0.8547(3) 1.0520(2) 0.0913(3)
O9 O 0.9009(6) 0.9685(3) 0.4147(4)
O10 O 0.8285(4) 0.9725(2) 0.2370(3)
O11 O 0.0899(5) 0.9239(3) 0.5076(5)
C33? C 0.7353(11) 0.8090(6) 0.4920(11)
N15? N 0.7613(8) 0.7565(5) 0.4666(7)
C34? C 0.7928(14) 0.7441(7) 0.3751(10)
C35? C 0.7505(12) 0.7082(7) 0.5280(11)
O4? O 0.9467(8) 0.8676(5) 0.4788(8)
loop_
_geom_bond_atom_site_label_1
_geom_bond_atom_site_label_2
_geom_bond_site_symmetry_1
_geom_bond_site_symmetry_2
W1 C1 1_555 1_555
C1 N1 1_555 1_555
N1 Eu1 1_555 1_555
C2 W1 1_555 1_555
N2 C2 1_555 1_555
C3 W1 1_555 1_555
N3 C3 1_555 1_555
C4 W1 1_555 1_555
N4 C4 1_555 1_555
C5 W1 1_555 1_555
N5 C5 1_555 1_555
C6 W1 1_555 1_555
N6 C6 1_555 1_555
C7 W1 1_555 1_555
N7 C7 1_555 1_555
C8 W1 1_555 1_555
N8 C8 1_555 1_555
Eu1 N9 1_555 1_555
N9 C9 1_555 1_555
N10 Eu1 1_555 1_555
N11 Eu1 1_555 1_555
C9 H1 1_555 1_555
C10 C9 1_555 1_555
H2 C10 1_555 1_555
C11 C10 1_555 1_555
H3 C11 1_555 1_555
C12 C11 1_555 1_555
H4 C12 1_555 1_555
C13 N9 1_555 1_555
C14 N10 1_555 1_555
C15 C14 1_555 1_555
H5 C15 1_555 1_555
C16 C15 1_555 1_555
H6 C16 1_555 1_555
C17 C16 1_555 1_555
H7 C17 1_555 1_555
C18 N10 1_555 1_555
C19 N11 1_555 1_555
C20 C19 1_555 1_555
H8 C20 1_555 1_555
C21 C20 1_555 1_555
H9 C21 1_555 1_555
C22 C21 1_555 1_555
H10 C22 1_555 1_555
C23 N11 1_555 1_555
H11 C23 1_555 1_555
O1 Eu1 1_555 1_555
C24 O1 1_555 1_555
H12 C24 1_555 1_555
N12 C24 1_555 1_555
C25 N12 1_555 1_555
H13 C25 1_555 1_555
H14 C25 1_555 1_555
H15 C25 1_555 1_555
C26 N12 1_555 1_555
H16 C26 1_555 1_555
H17 C26 1_555 1_555
H18 C26 1_555 1_555
O2 Eu1 1_555 1_555
C27 O2 1_555 1_555
H19 C27 1_555 1_555
N13 C27 1_555 1_555
C28 N13 1_555 1_555
H20 C28 1_555 1_555
H21 C28 1_555 1_555
H22 C28 1_555 1_555
C29 N13 1_555 1_555
H23 C29 1_555 1_555
H24 C29 1_555 1_555
H25 C29 1_555 1_555
O3 Eu1 1_555 1_555
C30 O3 1_555 1_555
H26 C30 1_555 1_555
N14 C30 1_555 1_555
C31 N14 1_555 1_555
H27 C31 1_555 1_555
H28 C31 1_555 1_555
H29 C31 1_555 1_555
C32 N14 1_555 1_555
H30 C32 1_555 1_555
H31 C32 1_555 1_555
H32 C32 1_555 1_555
O5 Eu1 1_555 1_555
C36 O5 1_555 1_555
H33 C36 1_555 1_555
N16 C36 1_555 1_555
C37 N16 1_555 1_555
H34 C37 1_555 1_555
H35 C37 1_555 1_555
H36 C37 1_555 1_555
C38 N16 1_555 1_555
H37 C38 1_555 1_555
H38 C38 1_555 1_555
H39 C38 1_555 1_555
O6 H40 1_555 1_555
C39 O6 1_555 1_555
H41 C39 1_555 1_555
H42 C39 1_555 1_555
C40 C39 1_555 1_555
H43 C40 1_555 1_555
H44 C40 1_555 1_555
H45 C40 1_555 1_555
N5C Eu1 1_555 1_555
Eu1C N5 1_555 1_555
C12 C13 1_555 1_555
C13 C14 1_555 1_555
C17 C18 1_555 1_555
C18 C19 1_555 1_555
C22 C23 1_555 1_555

#END
