
#######################################################################
#
#                 Cambridge Crystallographic Data Centre
#                                CCDC 
#
#######################################################################
#
# If this CIF has been generated from an entry in the Cambridge 
# Structural Database, then it will include bibliographic, chemical, 
# crystal, experimental, refinement or atomic coordinate data resulting 
# from the CCDC's data processing and validation procedures.
#
#######################################################################

data_YIQKAL
_symmetry_cell_setting           monoclinic
_symmetry_space_group_name_H-M   'P 21/n'
_symmetry_Int_Tables_number      14
_space_group_name_Hall           '-P 2yn'
loop_
_symmetry_equiv_pos_site_id
_symmetry_equiv_pos_as_xyz
1 x,y,z
2 1/2-x,1/2+y,1/2-z
3 -x,-y,-z
4 1/2+x,1/2-y,1/2+z
_cell_length_a                   14.3360(2)
_cell_length_b                   23.4180(3)
_cell_length_c                   14.7130(2)
_cell_angle_alpha                90
_cell_angle_beta                 90.462(1)
_cell_angle_gamma                90
_cell_volume                     4939.29
loop_
_atom_site_label
_atom_site_type_symbol
_atom_site_fract_x
_atom_site_fract_y
_atom_site_fract_z
W1 W 0.408298(13) 0.770332(8) 0.335578(11)
C1 C 0.4746(3) 0.8075(2) 0.4540(3)
N1 N 0.5105(3) 0.82490(18) 0.5184(3)
C2 C 0.2994(3) 0.8208(2) 0.3988(3)
N2 N 0.2416(3) 0.8470(2) 0.4319(3)
C3 C 0.3545(3) 0.7182(2) 0.4453(3)
N3 N 0.3272(3) 0.6926(2) 0.5056(3)
C4 C 0.3679(3) 0.8375(2) 0.2417(3)
N4 N 0.3462(3) 0.8728(2) 0.1918(3)
C5 C 0.2810(3) 0.7347(2) 0.2833(3)
N5 N 0.2146(3) 0.7143(2) 0.2534(3)
C6 C 0.4359(3) 0.7287(2) 0.2068(3)
N6 N 0.4474(3) 0.7054(2) 0.1400(3)
C7 C 0.5114(4) 0.7050(2) 0.3660(3)
N7 N 0.5649(3) 0.6698(2) 0.3826(3)
C8 C 0.5389(3) 0.8077(2) 0.2908(3)
N8 N 0.6081(3) 0.82721(19) 0.2673(3)
Nd1 Nd 0.589535(17) 0.847009(10) 0.674208(15)
N9 N 0.5477(3) 0.83960(18) 0.8460(3)
N10 N 0.5331(3) 0.93984(18) 0.7555(3)
N11 N 0.5906(3) 0.94045(19) 0.5785(3)
C9 C 0.5633(4) 0.7910(2) 0.8924(3)
H1 H 0.5887 0.7602 0.8613
C10 C 0.5441(4) 0.7841(3) 0.9830(4)
H2 H 0.5569 0.7499 1.0125
C11 C 0.5048(5) 0.8299(3) 1.0294(4)
H3 H 0.4903 0.8269 1.0907
C12 C 0.4879(4) 0.8800(3) 0.9825(4)
H4 H 0.4627 0.9113 1.0125
C13 C 0.5084(3) 0.8836(2) 0.8907(3)
C14 C 0.4913(4) 0.9365(2) 0.8381(3)
C15 C 0.4363(4) 0.9808(3) 0.8712(4)
H5 H 0.4065 0.9770 0.9268
C16 C 0.4264(4) 1.0301(3) 0.8215(4)
H6 H 0.3890 1.0597 0.8424
C17 C 0.4732(4) 1.0350(2) 0.7397(4)
H7 H 0.4702 1.0687 0.7064
C18 C 0.5244(4) 0.9887(2) 0.7081(3)
C19 C 0.5720(4) 0.9911(2) 0.6185(3)
C20 C 0.5966(4) 1.0422(2) 0.5780(4)
H8 H 0.5847 1.0766 0.6073
C21 C 0.6390(5) 1.0422(3) 0.4939(4)
H9 H 0.6550 1.0764 0.4660
C22 C 0.6572(4) 0.9909(3) 0.4521(4)
H10 H 0.6861 0.9895 0.3958
C23 C 0.6309(4) 0.9409(3) 0.4973(3)
H11 H 0.6421 0.9061 0.4690
O1 O 0.4192(2) 0.85417(15) 0.6870(2)
C24 C 0.3522(3) 0.8237(2) 0.6623(3)
H12 H 0.3654 0.7888 0.6349
N12 N 0.2643(3) 0.83779(18) 0.6726(3)
C25 C 0.1886(4) 0.8005(2) 0.6437(4)
H13 H 0.2140 0.7662 0.6181
H14 H 0.1511 0.8197 0.5988
H15 H 0.1508 0.7911 0.6951
C26 C 0.2387(4) 0.8916(3) 0.7150(5)
H16 H 0.2144 0.8844 0.7745
H17 H 0.1921 0.9104 0.6786
H18 H 0.2928 0.9156 0.7199
O2 O 0.5366(3) 0.74833(16) 0.6806(2)
C27 C 0.5292(3) 0.7043(2) 0.6334(3)
H19 H 0.5258 0.7092 0.5707
N13 N 0.5258(4) 0.6524(2) 0.6639(3)
C28 C 0.5280(8) 0.6413(3) 0.7608(5)
H20 H 0.5900 0.6303 0.7788
H21 H 0.4853 0.6111 0.7747
H22 H 0.5104 0.6752 0.7929
C29 C 0.5148(5) 0.6033(3) 0.6032(4)
H23 H 0.5049 0.6165 0.5421
H24 H 0.4622 0.5810 0.6220
H25 H 0.5701 0.5802 0.6058
O3 O 0.7061(2) 0.81968(17) 0.5628(2)
C30 C 0.7377(5) 0.8082(4) 0.4879(6)
H26 H 0.7423 0.8376 0.4457
N14 N 0.7653(5) 0.7573(3) 0.4633(4)
C31 C 0.7532(7) 0.7088(4) 0.5253(7)
H27 H 0.7301 0.7223 0.5824
H28 H 0.8121 0.6902 0.5347
H29 H 0.7095 0.6823 0.4992
C32 C 0.7988(7) 0.7449(5) 0.3715(6)
H30 H 0.7628 0.7143 0.3456
H31 H 0.8633 0.7339 0.3744
H32 H 0.7923 0.7783 0.3343
O5 O 0.7239(2) 0.90646(17) 0.7155(3)
C36 C 0.8109(5) 0.9024(4) 0.7354(7)
H33 H 0.8307 0.8714 0.7700
N16 N 0.8729(5) 0.9394(4) 0.7094(5)
C37 C 0.9702(5) 0.9355(5) 0.7323(8)
H34 H 0.9818 0.9002 0.7638
H35 H 0.9874 0.9669 0.7707
H36 H 1.0065 0.9365 0.6778
C38 C 0.8447(7) 0.9870(5) 0.6494(8)
H37 H 0.7988 0.9739 0.6065
H38 H 0.8983 1.0009 0.6174
H39 H 0.8189 1.0173 0.6854
N5C N 0.7146(3) 0.7857(2) 0.7534(3)
Nd1C Nd 0.089535(17) 0.652991(10) 0.174208(15)
O4 O 0.9506(6) 0.8686(3) 0.4759(4)
O6 O 0.7219(4) 1.04813(19) 0.9442(3)
H40 H 0.7025 1.0729 0.9095
C42 C 0.7243(8) 0.9965(3) 0.8993(5)
H41 H 0.7706 0.9989 0.8518
H42 H 0.6642 0.9904 0.8702
C43 C 0.7455(7) 0.9473(3) 0.9555(5)
H43 H 0.8027 0.9538 0.9883
H44 H 0.7521 0.9141 0.9177
H45 H 0.6959 0.9412 0.9978
O7 O 0.2226(3) 0.1358(2) 0.8234(3)
O8 O 0.8507(4) 0.0528(2) 0.0911(3)
O9 O 0.1749(4) 0.0269(2) 0.7650(3)
O10 O 0.8960(5) 0.0769(2) 0.4873(4)
O11 O 0.1155(7) 0.0319(3) 0.5860(4)
C33? C 0.7244(11) 0.7775(8) 0.5074(11)
N15? N 0.7869(10) 0.7846(6) 0.4438(10)
C34? C 0.8455(12) 0.8359(7) 0.4380(12)
C35? C 0.806(4) 0.7391(19) 0.378(3)
C39? C 0.8050(15) 0.9131(9) 0.7015(14)
N17? N 0.8562(13) 0.9583(8) 0.7011(13)
C40? C 0.817(2) 1.0147(10) 0.713(2)
C41? C 0.9572(17) 0.9530(15) 0.688(2)
loop_
_geom_bond_atom_site_label_1
_geom_bond_atom_site_label_2
_geom_bond_site_symmetry_1
_geom_bond_site_symmetry_2
W1 C1 1_555 1_555
C1 N1 1_555 1_555
N1 Nd1 1_555 1_555
C2 W1 1_555 1_555
N2 C2 1_555 1_555
C3 W1 1_555 1_555
N3 C3 1_555 1_555
C4 W1 1_555 1_555
N4 C4 1_555 1_555
C5 W1 1_555 1_555
N5 C5 1_555 1_555
C6 W1 1_555 1_555
N6 C6 1_555 1_555
C7 W1 1_555 1_555
N7 C7 1_555 1_555
C8 W1 1_555 1_555
N8 C8 1_555 1_555
Nd1 N9 1_555 1_555
N9 C9 1_555 1_555
N10 Nd1 1_555 1_555
N11 Nd1 1_555 1_555
C9 H1 1_555 1_555
C10 C9 1_555 1_555
H2 C10 1_555 1_555
C11 C10 1_555 1_555
H3 C11 1_555 1_555
C12 C11 1_555 1_555
H4 C12 1_555 1_555
C13 N9 1_555 1_555
C14 N10 1_555 1_555
C15 C14 1_555 1_555
H5 C15 1_555 1_555
C16 C15 1_555 1_555
H6 C16 1_555 1_555
C17 C16 1_555 1_555
H7 C17 1_555 1_555
C18 N10 1_555 1_555
C19 N11 1_555 1_555
C20 C19 1_555 1_555
H8 C20 1_555 1_555
C21 C20 1_555 1_555
H9 C21 1_555 1_555
C22 C21 1_555 1_555
H10 C22 1_555 1_555
C23 N11 1_555 1_555
H11 C23 1_555 1_555
O1 Nd1 1_555 1_555
C24 O1 1_555 1_555
H12 C24 1_555 1_555
N12 C24 1_555 1_555
C25 N12 1_555 1_555
H13 C25 1_555 1_555
H14 C25 1_555 1_555
H15 C25 1_555 1_555
C26 N12 1_555 1_555
H16 C26 1_555 1_555
H17 C26 1_555 1_555
H18 C26 1_555 1_555
O2 Nd1 1_555 1_555
C27 O2 1_555 1_555
H19 C27 1_555 1_555
N13 C27 1_555 1_555
C28 N13 1_555 1_555
H20 C28 1_555 1_555
H21 C28 1_555 1_555
H22 C28 1_555 1_555
C29 N13 1_555 1_555
H23 C29 1_555 1_555
H24 C29 1_555 1_555
H25 C29 1_555 1_555
O3 Nd1 1_555 1_555
C30 O3 1_555 1_555
H26 C30 1_555 1_555
N14 C30 1_555 1_555
C31 N14 1_555 1_555
H27 C31 1_555 1_555
H28 C31 1_555 1_555
H29 C31 1_555 1_555
C32 N14 1_555 1_555
H30 C32 1_555 1_555
H31 C32 1_555 1_555
H32 C32 1_555 1_555
O5 Nd1 1_555 1_555
C36 O5 1_555 1_555
H33 C36 1_555 1_555
N16 C36 1_555 1_555
C37 N16 1_555 1_555
H34 C37 1_555 1_555
H35 C37 1_555 1_555
H36 C37 1_555 1_555
C38 N16 1_555 1_555
H37 C38 1_555 1_555
H38 C38 1_555 1_555
H39 C38 1_555 1_555
O6 H40 1_555 1_555
C42 O6 1_555 1_555
H41 C42 1_555 1_555
H42 C42 1_555 1_555
C43 C42 1_555 1_555
H43 C43 1_555 1_555
H44 C43 1_555 1_555
H45 C43 1_555 1_555
N5C Nd1 1_555 1_555
Nd1C N5 1_555 1_555
C12 C13 1_555 1_555
C13 C14 1_555 1_555
C17 C18 1_555 1_555
C18 C19 1_555 1_555
C22 C23 1_555 1_555

#END
