
#######################################################################
#
#                 Cambridge Crystallographic Data Centre
#                                CCDC 
#
#######################################################################
#
# If this CIF has been generated from an entry in the Cambridge 
# Structural Database, then it will include bibliographic, chemical, 
# crystal, experimental, refinement or atomic coordinate data resulting 
# from the CCDC's data processing and validation procedures.
#
#######################################################################

data_YIQLOB
_symmetry_cell_setting           monoclinic
_symmetry_space_group_name_H-M   'C 2/c'
_symmetry_Int_Tables_number      15
_space_group_name_Hall           '-C 2yn'
loop_
_symmetry_equiv_pos_site_id
_symmetry_equiv_pos_as_xyz
1 x,y,z
2 -x,y,1/2-z
3 1/2+x,1/2+y,z
4 1/2-x,1/2+y,1/2-z
5 -x,-y,-z
6 x,-y,1/2+z
7 1/2-x,1/2-y,-z
8 1/2+x,1/2-y,1/2+z
_cell_length_a                   35.290(8)
_cell_length_b                   10.453(2)
_cell_length_c                   9.3818(19)
_cell_angle_alpha                90
_cell_angle_beta                 101.43(3)
_cell_angle_gamma                90
_cell_volume                     3392.18
loop_
_atom_site_label
_atom_site_type_symbol
_atom_site_fract_x
_atom_site_fract_y
_atom_site_fract_z
Ag1 Ag -0.12874(3) 0.03807(8) 0.36788(10)
N1 N -0.1671(3) 0.1359(8) 0.1935(10)
C1 C -0.1691(3) 0.2618(12) 0.1855(13)
H1 H -0.1574 0.3098 0.2657
C2 C -0.1880(3) 0.3250(10) 0.0610(12)
H2 H -0.1889 0.4139 0.0578
C3 C -0.2055(3) 0.2533(10) -0.0578(12)
C4 C -0.2041(3) 0.1216(10) -0.0497(11)
H3 H -0.2157 0.0716 -0.1283
C5 C -0.1850(3) 0.0649(10) 0.0794(12)
H4 H -0.1845 -0.0238 0.0871
C6 C -0.2244(3) 0.3211(12) -0.1914(13)
O1 O -0.2357(2) 0.4302(7) -0.1949(8)
O2 O -0.2313(3) 0.2426(7) -0.3076(9)
C7 C -0.2509(3) 0.2992(12) -0.4401(14)
H5 H -0.2383 0.3782 -0.4588
H6 H -0.2776 0.3178 -0.4354
N2 N -0.0907(3) -0.0610(9) 0.5370(10)
C8 C -0.0681(3) 0.0065(11) 0.6452(11)
H7 H -0.0673 0.0950 0.6359
C9 C -0.0465(3) -0.0482(11) 0.7677(11)
H8 H -0.0319 0.0018 0.8403
C10 C -0.0471(3) -0.1790(11) 0.7795(12)
C11 C -0.0693(3) -0.2500(10) 0.6725(12)
H9 H -0.0703 -0.3386 0.6805
C12 C -0.0904(3) -0.1886(11) 0.5521(13)
H10 H -0.1050 -0.2378 0.4785
C13 C -0.0234(3) -0.2395(10) 0.9138(13)
C14 C -0.0011(5) -0.4330(11) 1.0251(15)
H11 H -0.0144 -0.4288 1.1061
H12 H 0.0246 -0.3970 1.0551
O3 O -0.0073(3) -0.1801(7) 1.0187(11)
O4 O -0.0227(2) -0.3650(7) 0.8998(8)
N1F N -0.3329(3) 0.3641(8) -1.1935(10)
C1F C -0.3309(3) 0.2382(12) -1.1855(13)
H1F H -0.3426 0.1902 -1.2657
C2F C -0.3120(3) 0.1750(10) -1.0610(12)
H2F H -0.3111 0.0861 -1.0578
C3F C -0.2945(3) 0.2467(10) -0.9422(12)
C4F C -0.2959(3) 0.3784(10) -0.9503(11)
H3F H -0.2843 0.4284 -0.8717
C5F C -0.3150(3) 0.4351(10) -1.0794(12)
H4F H -0.3155 0.5238 -1.0871
C6F C -0.2756(3) 0.1789(12) -0.8086(13)
O1F O -0.2643(2) 0.0698(7) -0.8051(8)
O2F O -0.2687(3) 0.2574(7) -0.6924(9)
C7F C -0.2491(3) 0.2008(12) -0.5599(14)
H5F H -0.2617 0.1218 -0.5412
H6F H -0.2224 0.1822 -0.5646
N2D N 0.0907(3) -0.9390(9) 1.4630(10)
C8D C 0.0681(3) -1.0065(11) 1.3548(11)
H7D H 0.0673 -1.0950 1.3641
C9D C 0.0465(3) -0.9518(11) 1.2323(11)
H8D H 0.0319 -1.0018 1.1597
C10D C 0.0471(3) -0.8210(11) 1.2205(12)
C11D C 0.0693(3) -0.7500(10) 1.3275(12)
H9D H 0.0703 -0.6614 1.3195
C12D C 0.0904(3) -0.8114(11) 1.4479(13)
H10D H 0.1050 -0.7622 1.5215
C13D C 0.0234(3) -0.7605(10) 1.0862(13)
C14D C 0.0011(5) -0.5670(11) 0.9749(15)
H11D H 0.0144 -0.5712 0.8939
H12D H -0.0246 -0.6030 0.9449
O3D O 0.0073(3) -0.8199(7) 0.9813(11)
O4D O 0.0227(2) -0.6350(7) 1.1002(8)
Ag1D Ag 0.12874(3) -1.03807(8) 1.63212(10)
Ag1F Ag -0.37126(3) 0.46193(8) -1.36788(10)
N1D N 0.1671(3) -1.1359(8) 1.8065(10)
P1 P -0.12361(10) 0.3428(3) 0.6320(4)
F1 F -0.1050(2) 0.2822(7) 0.5045(9)
F2 F -0.1357(3) 0.2029(7) 0.6734(10)
F3 F -0.1428(3) 0.3985(8) 0.7553(10)
F4 F -0.1122(2) 0.4786(6) 0.5902(10)
F5 F -0.0834(3) 0.3235(10) 0.7381(10)
F6 F -0.1643(2) 0.3564(7) 0.5219(10)
loop_
_geom_bond_atom_site_label_1
_geom_bond_atom_site_label_2
_geom_bond_site_symmetry_1
_geom_bond_site_symmetry_2
Ag1 N1 1_555 1_555
N1 C1 1_555 1_555
C1 H1 1_555 1_555
C2 C1 1_555 1_555
H2 C2 1_555 1_555
C3 C2 1_555 1_555
C4 C3 1_555 1_555
H3 C4 1_555 1_555
C5 N1 1_555 1_555
H4 C5 1_555 1_555
C6 C3 1_555 1_555
O1 C6 1_555 1_555
O2 C6 1_555 1_555
C7 O2 1_555 1_555
H5 C7 1_555 1_555
H6 C7 1_555 1_555
N2 Ag1 1_555 1_555
C8 N2 1_555 1_555
H7 C8 1_555 1_555
C9 C8 1_555 1_555
H8 C9 1_555 1_555
C10 C9 1_555 1_555
C11 C10 1_555 1_555
H9 C11 1_555 1_555
C12 N2 1_555 1_555
H10 C12 1_555 1_555
C13 C10 1_555 1_555
C14 H11 1_555 1_555
H12 C14 1_555 1_555
O3 C13 1_555 1_555
O4 C13 1_555 1_555
P1 F1 1_555 1_555
F2 P1 1_555 1_555
F3 P1 1_555 1_555
F4 P1 1_555 1_555
F5 P1 1_555 1_555
F6 P1 1_555 1_555
N1F C1F 1_555 1_555
C1F H1F 1_555 1_555
C2F C1F 1_555 1_555
H2F C2F 1_555 1_555
C3F C2F 1_555 1_555
C4F C3F 1_555 1_555
H3F C4F 1_555 1_555
C5F N1F 1_555 1_555
H4F C5F 1_555 1_555
C6F C3F 1_555 1_555
O1F C6F 1_555 1_555
O2F C6F 1_555 1_555
C7F C7 1_555 1_555
H5F C7F 1_555 1_555
H6F C7F 1_555 1_555
N2D C8D 1_555 1_555
C8D H7D 1_555 1_555
C9D C8D 1_555 1_555
H8D C9D 1_555 1_555
C10D C9D 1_555 1_555
C11D C10D 1_555 1_555
H9D C11D 1_555 1_555
C12D N2D 1_555 1_555
H10D C12D 1_555 1_555
C13D C10D 1_555 1_555
C14D C14 1_555 1_555
H11D C14D 1_555 1_555
H12D C14D 1_555 1_555
O3D C13D 1_555 1_555
O4D C13D 1_555 1_555
Ag1D N2D 1_555 1_555
Ag1F N1F 1_555 1_555
N1D Ag1D 1_555 1_555
C4 C5 1_555 1_555
C11 C12 1_555 1_555
C14 O4 1_555 1_555
C4F C5F 1_555 1_555
O2F C7F 1_555 1_555
C11D C12D 1_555 1_555
C14D O4D 1_555 1_555

#END
