
#######################################################################
#
#                 Cambridge Crystallographic Data Centre
#                                CCDC 
#
#######################################################################
#
# If this CIF has been generated from an entry in the Cambridge 
# Structural Database, then it will include bibliographic, chemical, 
# crystal, experimental, refinement or atomic coordinate data resulting 
# from the CCDC's data processing and validation procedures.
#
#######################################################################

data_YIQLUH
_symmetry_cell_setting           monoclinic
_symmetry_space_group_name_H-M   'P 21/c'
_symmetry_Int_Tables_number      14
_space_group_name_Hall           '-P 2ybc'
loop_
_symmetry_equiv_pos_site_id
_symmetry_equiv_pos_as_xyz
1 x,y,z
2 -x,1/2+y,1/2-z
3 -x,-y,-z
4 x,1/2-y,1/2+z
_cell_length_a                   8.9947(18)
_cell_length_b                   21.389(4)
_cell_length_c                   9.4895(19)
_cell_angle_alpha                90
_cell_angle_beta                 95.47(3)
_cell_angle_gamma                90
_cell_volume                     1817.35
loop_
_atom_site_label
_atom_site_type_symbol
_atom_site_fract_x
_atom_site_fract_y
_atom_site_fract_z
Ag1 Ag 0.54792(6) 0.74165(2) 0.02153(5)
N1 N 0.7002(5) 0.7842(2) -0.1117(5)
C1 C 0.7834(6) 0.7504(2) -0.1933(6)
H1 H 0.7866 0.7072 -0.1810
C2 C 0.8651(7) 0.7765(2) -0.2955(6)
H2 H 0.9223 0.7518 -0.3502
C3 C 0.8583(6) 0.8404(2) -0.3128(6)
C4 C 0.7743(7) 0.8757(2) -0.2283(6)
H3 H 0.7699 0.9189 -0.2381
C5 C 0.6970(7) 0.8460(3) -0.1293(6)
H4 H 0.6405 0.8700 -0.0725
C6 C 0.9456(7) 0.8701(3) -0.4222(6)
O1 O 1.0140(5) 0.8419(2) -0.5043(5)
O2 O 0.9375(5) 0.93220(18) -0.4142(5)
C7 C 1.0127(8) 0.9671(3) -0.5177(7)
H5 H 0.9702 0.9576 -0.6132
H6 H 1.1186 0.9575 -0.5099
C8 C 0.0088(7) 0.5321(3) 0.5313(7)
H7 H -0.0874 0.5524 0.5331
H8 H 0.0576 0.5304 0.6269
O3 O 0.1007(5) 0.56461(18) 0.4378(5)
O4 O 0.0718(5) 0.6552(2) 0.5493(5)
C9 C 0.1223(7) 0.6254(3) 0.4600(6)
N2 N 0.3917(5) 0.7032(2) 0.1567(5)
C10 C 0.3788(7) 0.6415(3) 0.1685(7)
H9 H 0.4280 0.6158 0.1088
C11 C 0.2938(7) 0.6139(3) 0.2675(7)
H10 H 0.2875 0.5706 0.2745
C12 C 0.2195(6) 0.6521(3) 0.3545(6)
C13 C 0.2322(7) 0.7164(3) 0.3418(6)
H11 H 0.1840 0.7433 0.3996
C14 C 0.3183(6) 0.7393(3) 0.2413(6)
H12 H 0.3256 0.7824 0.2317
N1B N 1.2998(5) 1.2158(2) -0.8883(5)
C1B C 1.2166(6) 1.2496(2) -0.8067(6)
H1B H 1.2134 1.2928 -0.8190
C2B C 1.1349(7) 1.2235(2) -0.7045(6)
H2B H 1.0777 1.2482 -0.6498
C3B C 1.1417(6) 1.1596(2) -0.6872(6)
C4B C 1.2257(7) 1.1243(2) -0.7717(6)
H3B H 1.2301 1.0811 -0.7619
C5B C 1.3030(7) 1.1540(3) -0.8707(6)
H4B H 1.3595 1.1300 -0.9275
C6B C 1.0544(7) 1.1299(3) -0.5778(6)
O1B O 0.9860(5) 1.1581(2) -0.4957(5)
O2B O 1.0625(5) 1.06780(18) -0.5858(5)
C7B C 0.9873(8) 1.0329(3) -0.4823(7)
H5B H 1.0298 1.0424 -0.3868
H6B H 0.8814 1.0425 -0.4901
C8B C -0.0088(7) 0.4679(3) 0.4687(7)
H7B H 0.0874 0.4476 0.4669
H8B H -0.0576 0.4696 0.3731
O3B O -0.1007(5) 0.43539(18) 0.5622(5)
O4B O -0.0718(5) 0.3448(2) 0.4507(5)
C9B C -0.1223(7) 0.3746(3) 0.5400(6)
N2B N -0.3917(5) 0.2968(2) 0.8433(5)
C10B C -0.3788(7) 0.3585(3) 0.8315(7)
H9B H -0.4280 0.3842 0.8912
C11B C -0.2938(7) 0.3861(3) 0.7325(7)
H10B H -0.2875 0.4294 0.7255
C12B C -0.2195(6) 0.3479(3) 0.6455(6)
C13B C -0.2322(7) 0.2836(3) 0.6582(6)
H11B H -0.1840 0.2567 0.6004
C14B C -0.3183(6) 0.2607(3) 0.7587(6)
H12B H -0.3256 0.2176 0.7683
Ag1B Ag -0.54792(6) 0.25835(2) 0.97847(5)
Ag1B_2 Ag 1.45208(6) 1.25835(2) -1.02153(5)
N1B_2 N -0.7002(5) 0.2158(2) 1.1117(5)
S1 S 0.5822(2) 0.59844(7) -0.23828(19)
O5 O 0.7023(6) 0.5605(3) -0.2762(7)
O6 O 0.5265(8) 0.6419(2) -0.3470(6)
O7 O 0.5958(7) 0.6233(2) -0.0973(5)
C15 C 0.4295(11) 0.5448(4) -0.2379(9)
F1 F 0.3094(6) 0.5719(4) -0.2044(8)
F2 F 0.3993(8) 0.5173(3) -0.3629(6)
F3 F 0.4577(9) 0.4996(3) -0.1471(7)
loop_
_geom_bond_atom_site_label_1
_geom_bond_atom_site_label_2
_geom_bond_site_symmetry_1
_geom_bond_site_symmetry_2
Ag1 N1 1_555 1_555
N1 C1 1_555 1_555
C1 H1 1_555 1_555
C2 C1 1_555 1_555
H2 C2 1_555 1_555
C3 C2 1_555 1_555
C4 C3 1_555 1_555
H3 C4 1_555 1_555
C5 N1 1_555 1_555
H4 C5 1_555 1_555
C6 C3 1_555 1_555
O1 C6 1_555 1_555
O2 C6 1_555 1_555
C7 O2 1_555 1_555
H5 C7 1_555 1_555
H6 C7 1_555 1_555
C8 H7 1_555 1_555
H8 C8 1_555 1_555
O3 C8 1_555 1_555
O4 C9 1_555 1_555
C9 O3 1_555 1_555
N2 Ag1 1_555 1_555
C10 N2 1_555 1_555
H9 C10 1_555 1_555
C11 C10 1_555 1_555
H10 C11 1_555 1_555
C12 C9 1_555 1_555
C13 C12 1_555 1_555
H11 C13 1_555 1_555
C14 N2 1_555 1_555
H12 C14 1_555 1_555
S1 O5 1_555 1_555
O6 S1 1_555 1_555
O7 S1 1_555 1_555
C15 S1 1_555 1_555
F1 C15 1_555 1_555
F2 C15 1_555 1_555
F3 C15 1_555 1_555
N1B C1B 1_555 1_555
C1B H1B 1_555 1_555
C2B C1B 1_555 1_555
H2B C2B 1_555 1_555
C3B C2B 1_555 1_555
C4B C3B 1_555 1_555
H3B C4B 1_555 1_555
C5B N1B 1_555 1_555
H4B C5B 1_555 1_555
C6B C3B 1_555 1_555
O1B C6B 1_555 1_555
O2B C6B 1_555 1_555
C7B C7 1_555 1_555
H5B C7B 1_555 1_555
H6B C7B 1_555 1_555
C8B C8 1_555 1_555
H7B C8B 1_555 1_555
H8B C8B 1_555 1_555
O3B C8B 1_555 1_555
O4B C9B 1_555 1_555
C9B O3B 1_555 1_555
N2B C10B 1_555 1_555
C10B H9B 1_555 1_555
C11B C10B 1_555 1_555
H10B C11B 1_555 1_555
C12B C9B 1_555 1_555
C13B C12B 1_555 1_555
H11B C13B 1_555 1_555
C14B N2B 1_555 1_555
H12B C14B 1_555 1_555
Ag1B N2B 1_555 1_555
Ag1B_2 N1B 1_555 1_555
N1B_2 Ag1B 1_555 1_555
C4 C5 1_555 1_555
C11 C12 1_555 1_555
C13 C14 1_555 1_555
C4B C5B 1_555 1_555
O2B C7B 1_555 1_555
C11B C12B 1_555 1_555
C13B C14B 1_555 1_555

#END
