
#######################################################################
#
#                 Cambridge Crystallographic Data Centre
#                                CCDC 
#
#######################################################################
#
# If this CIF has been generated from an entry in the Cambridge 
# Structural Database, then it will include bibliographic, chemical, 
# crystal, experimental, refinement or atomic coordinate data resulting 
# from the CCDC's data processing and validation procedures.
#
#######################################################################

data_YIQNIW
_symmetry_cell_setting           triclinic
_symmetry_space_group_name_H-M   'P -1'
_symmetry_Int_Tables_number      2
_space_group_name_Hall           '-P 1'
loop_
_symmetry_equiv_pos_site_id
_symmetry_equiv_pos_as_xyz
1 x,y,z
2 -x,-y,-z
_cell_length_a                   8.5205(9)
_cell_length_b                   8.6624(9)
_cell_length_c                   9.4999(10)
_cell_angle_alpha                90.386(2)
_cell_angle_beta                 112.6870(10)
_cell_angle_gamma                116.2610(10)
_cell_volume                     566.656
loop_
_atom_site_label
_atom_site_type_symbol
_atom_site_fract_x
_atom_site_fract_y
_atom_site_fract_z
Cu1 Cu 0.18313(5) 0.18435(4) 0.06003(4)
Cu2 Cu 0.5000 0.5000 0.0000
C1 C 0.7810(8) 1.1353(5) 0.2360(6)
H1 H 0.8966 1.1839 0.2199
H2 H 0.8111 1.1893 0.3382
H3 H 0.6854 1.1577 0.1586
C2 C 0.4761(7) 0.8594(7) 0.2395(6)
H4 H 0.4049 0.9054 0.1643
H5 H 0.5099 0.9132 0.3429
H6 H 0.3974 0.7341 0.2218
C3 C 0.2979(6) 0.5365(6) -0.4771(4)
H7 H 0.2879 0.4330 -0.5259
H8 H 0.3458 0.6318 -0.5264
H9 H 0.1722 0.5130 -0.4879
C4 C 0.4350(5) 0.5860(4) -0.3071(4)
N1 N -0.0712(4) 0.0449(4) -0.1239(3)
N2 N -0.1240(4) 0.0649(4) -0.2578(3)
N3 N -0.1756(6) 0.0829(6) -0.3806(4)
N4 N 0.2460(4) 0.4183(3) 0.0089(3)
N5 N 0.1232(4) 0.4496(4) -0.0825(3)
N6 N 0.0095(5) 0.4816(5) -0.1649(5)
O1 O 0.6009(3) 0.7171(3) -0.2653(3)
O2 O 0.3755(3) 0.4928(3) -0.2207(3)
O3 O 0.6177(4) 0.8295(3) 0.0499(3)
S1 S 0.68907(12) 0.90584(11) 0.22039(10)
Cu1A Cu 0.81687(5) 0.81565(4) -0.06003(4)
Cu1A_2 Cu -0.18313(5) -0.18435(4) -0.06003(4)
C1A C 0.2190(8) -0.1353(5) -0.2360(6)
H1A H 0.1034 -0.1839 -0.2199
H2A H 0.1889 -0.1893 -0.3382
H3A H 0.3146 -0.1577 -0.1586
C2A C 0.5239(7) 0.1406(7) -0.2395(6)
H4A H 0.5951 0.0946 -0.1643
H5A H 0.4901 0.0868 -0.3429
H6A H 0.6026 0.2659 -0.2218
C3A C 0.7021(6) 0.4635(6) 0.4771(4)
H7A H 0.7121 0.5670 0.5259
H8A H 0.6542 0.3682 0.5264
H9A H 0.8278 0.4870 0.4879
C4A C 0.5650(5) 0.4140(4) 0.3071(4)
N1A N 0.0712(4) -0.0449(4) 0.1239(3)
N1_2 N 0.9288(4) 1.0449(4) -0.1239(3)
N1A_2 N 1.0712(4) 0.9551(4) 0.1239(3)
N2A N 0.1240(4) -0.0649(4) 0.2578(3)
N3A N 0.1756(6) -0.0829(6) 0.3806(4)
N4A N 0.7540(4) 0.5817(3) -0.0089(3)
N5A N 0.8768(4) 0.5504(4) 0.0825(3)
N6A N 0.9905(5) 0.5184(5) 0.1649(5)
O1A O 0.3991(3) 0.2829(3) 0.2653(3)
O2A O 0.6245(3) 0.5072(3) 0.2207(3)
O3A O 0.3823(4) 0.1705(3) -0.0499(3)
S1A S 0.31093(12) 0.09416(11) -0.22039(10)
loop_
_geom_bond_atom_site_label_1
_geom_bond_atom_site_label_2
_geom_bond_site_symmetry_1
_geom_bond_site_symmetry_2
Cu1 N1 1_555 1_555
Cu2 N4 1_555 1_555
C1 H1 1_555 1_555
H2 C1 1_555 1_555
H3 C1 1_555 1_555
C2 H4 1_555 1_555
H5 C2 1_555 1_555
H6 C2 1_555 1_555
C3 H7 1_555 1_555
H8 C3 1_555 1_555
H9 C3 1_555 1_555
C4 C3 1_555 1_555
N1 N2 1_555 1_555
N2 N3 1_555 1_555
N4 Cu1 1_555 1_555
N5 N4 1_555 1_555
N6 N5 1_555 1_555
O1 C4 1_555 1_555
O2 Cu2 1_555 1_555
O3 Cu2 1_555 1_555
S1 C1 1_555 1_555
Cu1A O1 1_555 1_555
Cu1A_2 N1 1_555 1_555
C1A H1A 1_555 1_555
H2A C1A 1_555 1_555
H3A C1A 1_555 1_555
C2A H4A 1_555 1_555
H5A C2A 1_555 1_555
H6A C2A 1_555 1_555
C3A H7A 1_555 1_555
H8A C3A 1_555 1_555
H9A C3A 1_555 1_555
C4A C3A 1_555 1_555
N1A Cu1 1_555 1_555
N1_2 Cu1A 1_555 1_555
N1A_2 Cu1A 1_555 1_555
N2A N1A 1_555 1_555
N3A N2A 1_555 1_555
N4A Cu2 1_555 1_555
N5A N4A 1_555 1_555
N6A N5A 1_555 1_555
O1A Cu1 1_555 1_555
O2A Cu2 1_555 1_555
O3A Cu1 1_555 1_555
S1A C1A 1_555 1_555
Cu2 O3A 1_555 1_555
C2 S1 1_555 1_555
C4 O2 1_555 1_555
O3 S1 1_555 1_555
O3 Cu1A 1_555 1_555
Cu1A N4A 1_555 1_555
Cu1A_2 N1A 1_555 1_555
C2A S1A 1_555 1_555
C4A O1A 1_555 1_555
C4A O2A 1_555 1_555
O3A S1A 1_555 1_555

#END
