
#######################################################################
#
#                 Cambridge Crystallographic Data Centre
#                                CCDC 
#
#######################################################################
#
# If this CIF has been generated from an entry in the Cambridge 
# Structural Database, then it will include bibliographic, chemical, 
# crystal, experimental, refinement or atomic coordinate data resulting 
# from the CCDC's data processing and validation procedures.
#
#######################################################################

data_YIQNAO
_symmetry_cell_setting           monoclinic
_symmetry_space_group_name_H-M   'P 21/n'
_symmetry_Int_Tables_number      14
_space_group_name_Hall           '-P 2yn'
loop_
_symmetry_equiv_pos_site_id
_symmetry_equiv_pos_as_xyz
1 x,y,z
2 1/2-x,1/2+y,1/2-z
3 -x,-y,-z
4 1/2+x,1/2-y,1/2+z
_cell_length_a                   12.179(2)
_cell_length_b                   15.898(2)
_cell_length_c                   16.420(2)
_cell_angle_alpha                90
_cell_angle_beta                 102.834(4)
_cell_angle_gamma                90
_cell_volume                     3099.84
loop_
_atom_site_label
_atom_site_type_symbol
_atom_site_fract_x
_atom_site_fract_y
_atom_site_fract_z
Cu1 Cu 0.42338(5) 0.38523(4) 0.21419(4)
O1 O 0.4755(3) 0.2807(3) 0.1671(2)
O2 O 0.5993(4) 0.2998(3) 0.2855(3)
O3 O 0.7685(3) 0.2409(3) 0.1683(3)
O4 O 1.2319(4) 0.3954(3) 0.1235(3)
O5 O 1.2925(3) 0.3207(3) 0.2359(3)
N1 N 0.5139(4) 0.4592(3) 0.1570(3)
N2 N 0.6480(4) 0.5091(3) 0.0992(3)
H11 H 0.7116 0.5125 0.0849
N3 N 0.4082(4) 0.4714(3) 0.2970(3)
N4 N 0.3327(4) 0.5670(3) 0.3673(3)
H12 H 0.2825 0.5977 0.3824
C1 C 0.5601(5) 0.2565(4) 0.2215(4)
C2 C 0.6158(5) 0.1738(4) 0.2072(4)
H13 H 0.5943 0.1307 0.2425
H14 H 0.5892 0.1566 0.1495
C3 C 0.7430(5) 0.1814(4) 0.2266(4)
H15 H 0.7709 0.2010 0.2834
H16 H 0.7772 0.1274 0.2202
C4 C 0.8798(4) 0.2598(4) 0.1730(4)
C5 C 0.8999(5) 0.3188(4) 0.1135(4)
H17 H 0.8399 0.3412 0.0744
C6 C 1.0065(5) 0.3428(4) 0.1136(4)
H18 H 1.0191 0.3801 0.0731
C7 C 1.0973(4) 0.3128(4) 0.1728(3)
C8 C 1.0759(4) 0.2543(4) 0.2300(3)
H19 H 1.1361 0.2331 0.2697
C9 C 0.9696(4) 0.2267(4) 0.2302(4)
H20 H 0.9581 0.1862 0.2683
C10 C 1.2128(5) 0.3447(4) 0.1763(4)
C11 C 0.6153(5) 0.4466(4) 0.1434(4)
H21 H 0.6592 0.3997 0.1623
C12 C 0.4764(5) 0.5357(4) 0.1179(3)
C13 C 0.3774(5) 0.5787(4) 0.1105(3)
H22 H 0.3205 0.5588 0.1349
C14 C 0.3653(6) 0.6521(4) 0.0657(4)
H23 H 0.2991 0.6828 0.0599
C15 C 0.4500(7) 0.6816(4) 0.0286(4)
H24 H 0.4388 0.7315 -0.0016
C16 C 0.5487(6) 0.6396(4) 0.0355(4)
H25 H 0.6050 0.6595 0.0104
C17 C 0.5617(5) 0.5667(4) 0.0808(3)
C18 C 0.3140(5) 0.5081(4) 0.3077(4)
H26 H 0.2427 0.4941 0.2770
C19 C 0.4946(5) 0.5092(4) 0.3561(3)
C20 C 0.6081(5) 0.4948(4) 0.3737(4)
H27 H 0.6400 0.4548 0.3447
C21 C 0.6737(6) 0.5429(5) 0.4372(5)
H28 H 0.7512 0.5343 0.4511
C22 C 0.6276(7) 0.6027(4) 0.4801(5)
H29 H 0.6747 0.6343 0.5212
C23 C 0.5131(7) 0.6168(4) 0.4634(4)
H30 H 0.4815 0.6563 0.4933
C24 C 0.4475(6) 0.5696(4) 0.4002(4)
Cu1_2 Cu 1.42338(5) 0.38523(4) 0.21419(4)
O4_2 O 0.2319(4) 0.3954(3) 0.1235(3)
O5_2 O 0.2925(3) 0.3207(3) 0.2359(3)
O6 O 0.4539(7) 0.0029(5) 0.2326(6)
N5 N 0.5337(6) -0.0769(4) 0.1470(5)
C25 C 0.5381(9) -0.0393(5) 0.2196(7)
H31 H 0.6030 -0.0435 0.2617
C26 C 0.4364(13) -0.0725(14) 0.0809(11)
H32 H 0.4120 -0.0151 0.0727
H33 H 0.3773 -0.1058 0.0948
H34 H 0.4539 -0.0937 0.0306
C27 C 0.6256(8) -0.1250(6) 0.1309(7)
H35 H 0.6911 -0.1156 0.1747
H36 H 0.6409 -0.1081 0.0784
H37 H 0.6064 -0.1837 0.1287
O7 O 0.8142(4) 0.3305(3) 0.5698(3)
H1 H 0.8856 0.3333 0.5841
H2 H 0.7928 0.2797 0.5711
O8 O 0.6657(6) 0.2406(4) 0.4455(4)
H3 H 0.6472 0.2499 0.3933
H4 H 0.6073 0.2235 0.4609
O9 O 0.3860(6) 0.2179(5) 0.3771(5)
H5 H 0.4473 0.2443 0.3950
H6 H 0.3542 0.2355 0.3288
O10 O 0.4405(7) 0.0577(5) 0.3838(6)
H7 H 0.3869 0.0384 0.3462
H8 H 0.4198 0.0559 0.4299
O11 O 0.6616(4) 0.0497(4) 0.4591(3)
H9 H 0.6344 0.0923 0.4303
H10 H 0.7053 0.0653 0.5044
loop_
_geom_bond_atom_site_label_1
_geom_bond_atom_site_label_2
_geom_bond_site_symmetry_1
_geom_bond_site_symmetry_2
Cu1 O1 1_555 1_555
O1 C1 1_555 1_555
O2 C1 1_555 1_555
O3 C3 1_555 1_555
O4 C10 1_555 1_555
O5 C10 1_555 1_555
O6 C25 1_555 1_555
O7 H1 1_555 1_555
H2 O7 1_555 1_555
O8 H3 1_555 1_555
H4 O8 1_555 1_555
O9 H5 1_555 1_555
H6 O9 1_555 1_555
O10 H7 1_555 1_555
H8 O10 1_555 1_555
O11 H9 1_555 1_555
H10 O11 1_555 1_555
N1 Cu1 1_555 1_555
N2 H11 1_555 1_555
N3 Cu1 1_555 1_555
N4 H12 1_555 1_555
N5 C25 1_555 1_555
C1 C2 1_555 1_555
C2 H13 1_555 1_555
H14 C2 1_555 1_555
C3 C2 1_555 1_555
H15 C3 1_555 1_555
H16 C3 1_555 1_555
C4 O3 1_555 1_555
C5 C4 1_555 1_555
H17 C5 1_555 1_555
C6 C5 1_555 1_555
H18 C6 1_555 1_555
C7 C6 1_555 1_555
C8 C7 1_555 1_555
H19 C8 1_555 1_555
C9 C4 1_555 1_555
H20 C9 1_555 1_555
C10 C7 1_555 1_555
C11 N1 1_555 1_555
H21 C11 1_555 1_555
C12 N1 1_555 1_555
C13 C12 1_555 1_555
H22 C13 1_555 1_555
C14 C13 1_555 1_555
H23 C14 1_555 1_555
C15 C14 1_555 1_555
H24 C15 1_555 1_555
C16 C15 1_555 1_555
H25 C16 1_555 1_555
C17 N2 1_555 1_555
C18 N3 1_555 1_555
H26 C18 1_555 1_555
C19 N3 1_555 1_555
C20 C19 1_555 1_555
H27 C20 1_555 1_555
C21 C20 1_555 1_555
H28 C21 1_555 1_555
C22 C21 1_555 1_555
H29 C22 1_555 1_555
C23 C22 1_555 1_555
H30 C23 1_555 1_555
C24 N4 1_555 1_555
C25 H31 1_555 1_555
C26 N5 1_555 1_555
H32 C26 1_555 1_555
H33 C26 1_555 1_555
H34 C26 1_555 1_555
C27 N5 1_555 1_555
H35 C27 1_555 1_555
H36 C27 1_555 1_555
H37 C27 1_555 1_555
Cu1_2 O4 1_555 1_555
O4_2 Cu1 1_555 1_555
O5_2 Cu1 1_555 1_555
O5 Cu1_2 1_555 1_555
N2 C11 1_555 1_555
N4 C18 1_555 1_555
C8 C9 1_555 1_555
C12 C17 1_555 1_555
C16 C17 1_555 1_555
C19 C24 1_555 1_555
C23 C24 1_555 1_555

#END
