
#######################################################################
#
#                 Cambridge Crystallographic Data Centre
#                                CCDC 
#
#######################################################################
#
# If this CIF has been generated from an entry in the Cambridge 
# Structural Database, then it will include bibliographic, chemical, 
# crystal, experimental, refinement or atomic coordinate data resulting 
# from the CCDC's data processing and validation procedures.
#
#######################################################################

data_YIQQUL
_symmetry_cell_setting           monoclinic
_symmetry_space_group_name_H-M   'P 21/n'
_symmetry_Int_Tables_number      14
_space_group_name_Hall           '-P 2yn'
loop_
_symmetry_equiv_pos_site_id
_symmetry_equiv_pos_as_xyz
1 x,y,z
2 1/2-x,1/2+y,1/2-z
3 -x,-y,-z
4 1/2+x,1/2-y,1/2+z
_cell_length_a                   9.7620(10)
_cell_length_b                   6.4150(10)
_cell_length_c                   22.611(3)
_cell_angle_alpha                90
_cell_angle_beta                 94.353(2)
_cell_angle_gamma                90
_cell_volume                     1411.89
loop_
_atom_site_label
_atom_site_type_symbol
_atom_site_fract_x
_atom_site_fract_y
_atom_site_fract_z
Cu1 Cu 0.76386(4) 0.83895(5) 0.181248(15)
Cl1 Cl 0.87605(8) 1.08051(11) 0.24016(3)
O1 O 0.1740(3) 0.9670(5) -0.04462(13)
O2 O 0.1089(3) 1.2464(5) -0.00250(13)
O3 O 0.6076(2) 1.0252(3) 0.17348(9)
N1 N 0.1850(3) 1.0962(5) -0.00511(14)
N2 N 0.6771(3) 0.6547(4) 0.11980(11)
N3 N 0.9188(2) 0.6230(4) 0.18510(11)
C1 C 0.4874(3) 0.8788(4) 0.08619(13)
C2 C 0.5112(3) 1.0351(4) 0.13091(13)
C3 C 0.4235(3) 1.2127(5) 0.12726(15)
H1 H 0.4372 1.3183 0.1553
C4 C 0.3191(3) 1.2319(5) 0.08343(15)
H2 H 0.2629 1.3490 0.0821
C5 C 0.2974(3) 1.0762(5) 0.04096(14)
C6 C 0.3792(3) 0.9025(5) 0.04230(14)
H3 H 0.3627 0.7991 0.0138
C7 C 0.5695(3) 0.6920(4) 0.08538(13)
H4 H 0.5422 0.5905 0.0576
C8 C 0.7463(3) 0.4534(4) 0.11834(15)
H5 H 0.7286 0.3895 0.0796
H6 H 0.7124 0.3609 0.1479
C9 C 0.8987(3) 0.4889(5) 0.13117(14)
H7 H 0.9455 0.3567 0.1380
H8 H 0.9363 0.5571 0.0977
C10 C 1.0653(3) 0.6924(5) 0.19822(14)
H9 H 1.0672 0.7827 0.2332
C11 C 1.1140(4) 0.8217(6) 0.14826(17)
H10 H 1.1254 0.7339 0.1146
H11 H 1.2003 0.8856 0.1608
H12 H 1.0474 0.9279 0.1376
C12 C 1.1584(4) 0.5073(6) 0.21439(17)
H13 H 1.1618 0.4174 0.1806
H14 H 1.1229 0.4314 0.2465
H15 H 1.2492 0.5563 0.2263
H16 H 0.893(4) 0.546(6) 0.2159(12)
Cu1A Cu 0.73614(4) 1.33895(5) 0.318752(15)
Cl1A Cl 0.62395(8) 0.58051(11) 0.25984(3)
loop_
_geom_bond_atom_site_label_1
_geom_bond_atom_site_label_2
_geom_bond_site_symmetry_1
_geom_bond_site_symmetry_2
Cu1 Cl1 1_555 1_555
Cl1 Cu1A 1_555 1_555
O1 N1 1_555 1_555
O2 N1 1_555 1_555
O3 Cu1 1_555 1_555
N1 C5 1_555 1_555
N2 Cu1 1_555 1_555
N3 Cu1 1_555 1_555
C1 C2 1_555 1_555
C2 O3 1_555 1_555
C3 C2 1_555 1_555
H1 C3 1_555 1_555
C4 C3 1_555 1_555
H2 C4 1_555 1_555
C5 C4 1_555 1_555
C6 C1 1_555 1_555
H3 C6 1_555 1_555
C7 N2 1_555 1_555
H4 C7 1_555 1_555
C8 N2 1_555 1_555
H5 C8 1_555 1_555
H6 C8 1_555 1_555
C9 N3 1_555 1_555
H7 C9 1_555 1_555
H8 C9 1_555 1_555
C10 N3 1_555 1_555
H9 C10 1_555 1_555
C11 C10 1_555 1_555
H10 C11 1_555 1_555
H11 C11 1_555 1_555
H12 C11 1_555 1_555
C12 C10 1_555 1_555
H13 C12 1_555 1_555
H14 C12 1_555 1_555
H15 C12 1_555 1_555
H16 N3 1_555 1_555
Cl1A Cu1 1_555 1_555
C1 C7 1_555 1_555
C5 C6 1_555 1_555
C8 C9 1_555 1_555

#END
