
#######################################################################
#
#                 Cambridge Crystallographic Data Centre
#                                CCDC 
#
#######################################################################
#
# If this CIF has been generated from an entry in the Cambridge 
# Structural Database, then it will include bibliographic, chemical, 
# crystal, experimental, refinement or atomic coordinate data resulting 
# from the CCDC's data processing and validation procedures.
#
#######################################################################

data_YIQREX
_symmetry_cell_setting           triclinic
_symmetry_space_group_name_H-M   'P -1'
_symmetry_Int_Tables_number      2
_space_group_name_Hall           '-P 1'
loop_
_symmetry_equiv_pos_site_id
_symmetry_equiv_pos_as_xyz
1 x,y,z
2 -x,-y,-z
_cell_length_a                   12.044(2)
_cell_length_b                   14.946(3)
_cell_length_c                   20.113(4)
_cell_angle_alpha                85.33(3)
_cell_angle_beta                 80.89(3)
_cell_angle_gamma                66.26(3)
_cell_volume                     3271.74
loop_
_atom_site_label
_atom_site_type_symbol
_atom_site_fract_x
_atom_site_fract_y
_atom_site_fract_z
I1 I 0.31585(3) 0.49040(2) 0.084797(18)
Mn1 Mn 0.41348(6) 0.93540(5) 0.01982(4)
Mn2 Mn 0.37515(6) 1.01514(5) 0.16702(4)
Mn3 Mn 0.14435(6) 1.08651(6) 0.08316(4)
Mn4 Mn 0.00614(6) 0.57559(5) 0.43567(4)
Mn5 Mn -0.16267(6) 0.78591(5) 0.50761(4)
Mn6 Mn 0.08489(6) 0.63728(5) 0.56705(4)
O1 O 0.3145(3) 1.0277(3) 0.08523(17)
O2 O 0.5152(3) 0.8452(2) -0.04517(18)
O3 O 0.1537(3) 1.0178(3) 0.00552(19)
O4 O 0.4412(3) 1.0233(2) 0.24201(18)
O5 O 0.5596(3) 0.9363(2) 0.04891(17)
O6 O -0.0212(3) 1.1573(3) 0.07578(19)
O7 O 0.2204(3) 1.1056(2) 0.20897(18)
O8 O -0.0192(3) 0.6685(2) 0.50014(16)
O9 O 0.0031(3) 0.4774(2) 0.38318(16)
O10 O -0.2250(3) 0.7463(2) 0.43777(17)
O11 O -0.3006(3) 0.9027(2) 0.51428(17)
O12 O -0.0184(3) 0.7486(2) 0.61846(17)
O13 O 0.1939(3) 0.6058(2) 0.62961(17)
O14 O 0.1320(3) 0.4747(2) 0.48249(16)
O15 O 0.4055(3) 0.8206(3) 0.08802(19)
O16 O 0.3615(3) 0.8794(3) 0.19274(18)
O17 O 0.1330(3) 0.5994(2) 0.35649(17)
O18 O 0.1480(3) 0.7414(2) 0.37092(18)
N1 N 0.2671(4) 0.9552(3) -0.0248(2)
N2 N 0.5456(4) 0.9509(3) 0.1178(2)
N3 N 0.1254(4) 1.1474(3) 0.1708(2)
N4 N -0.1411(3) 0.6713(3) 0.3979(2)
N5 N -0.1106(3) 0.8203(3) 0.5885(2)
N6 N 0.1906(3) 0.5123(3) 0.5202(2)
C1 C 0.4935(5) 0.8228(4) -0.1035(3)
C2 C 0.5933(5) 0.7664(4) -0.1492(3)
H1 H 0.6723 0.7471 -0.1387
C3 C 0.5764(5) 0.7391(4) -0.2094(3)
H2 H 0.6439 0.7022 -0.2393
C4 C 0.4588(5) 0.7664(4) -0.2256(3)
H3 H 0.4476 0.7466 -0.2658
C5 C 0.3593(5) 0.8227(4) -0.1819(3)
H4 H 0.2810 0.8418 -0.1934
C6 C 0.3738(5) 0.8519(4) -0.1202(3)
C7 C 0.2664(5) 0.9144(4) -0.0786(3)
H5 H 0.1907 0.9263 -0.0914
C8 C 0.5549(4) 0.9821(3) 0.2574(3)
C9 C 0.5715(5) 0.9927(4) 0.3236(3)
H6 H 0.5048 1.0279 0.3545
C10 C 0.6877(5) 0.9504(4) 0.3425(3)
H7 H 0.6979 0.9558 0.3866
C11 C 0.7901(5) 0.8997(4) 0.2963(3)
H8 H 0.8679 0.8726 0.3092
C12 C 0.7742(5) 0.8906(4) 0.2322(3)
H9 H 0.8422 0.8574 0.2013
C13 C 0.6571(4) 0.9302(4) 0.2114(3)
C14 C 0.6473(5) 0.9182(4) 0.1428(3)
H10 H 0.7191 0.8846 0.1145
C15 C -0.0998(5) 1.2380(4) 0.1073(3)
C16 C -0.2083(5) 1.2938(4) 0.0804(3)
H11 H -0.2219 1.2744 0.0407
C17 C -0.2945(5) 1.3759(4) 0.1114(3)
H12 H -0.3655 1.4119 0.0924
C18 C -0.2768(5) 1.4066(4) 0.1716(3)
H13 H -0.3360 1.4621 0.1929
C19 C -0.1701(5) 1.3531(4) 0.1990(3)
H14 H -0.1578 1.3731 0.2388
C20 C -0.0801(4) 1.2688(4) 0.1672(3)
C21 C 0.0299(5) 1.2179(4) 0.1983(3)
H15 H 0.0316 1.2374 0.2407
C22 C -0.0061(4) 0.4957(4) 0.3164(3)
C23 C 0.0658(4) 0.4233(4) 0.2703(3)
H16 H 0.1201 0.3635 0.2852
C24 C 0.0568(5) 0.4400(4) 0.2028(3)
H17 H 0.1057 0.3915 0.1722
C25 C -0.0248(5) 0.5286(4) 0.1799(3)
H18 H -0.0298 0.5397 0.1341
C26 C -0.0980(5) 0.5998(4) 0.2251(3)
H19 H -0.1543 0.6582 0.2095
C27 C -0.0898(4) 0.5865(4) 0.2936(3)
C28 C -0.1671(4) 0.6648(4) 0.3390(3)
H20 H -0.2381 0.7122 0.3253
C29 C -0.3259(4) 0.9847(3) 0.5473(3)
C30 C -0.4235(4) 1.0705(4) 0.5311(3)
H21 H -0.4640 1.0711 0.4952
C31 C -0.4594(5) 1.1535(4) 0.5679(3)
H22 H -0.5255 1.2092 0.5572
C32 C -0.3990(5) 1.1559(4) 0.6208(3)
H23 H -0.4237 1.2127 0.6451
C33 C -0.3020(5) 1.0727(4) 0.6366(3)
H24 H -0.2610 1.0737 0.6718
C34 C -0.2640(4) 0.9865(3) 0.6005(3)
C35 C -0.1630(4) 0.9015(4) 0.6216(3)
H25 H -0.1340 0.9051 0.6611
C36 C 0.3149(4) 0.5552(3) 0.6181(3)
C37 C 0.3896(5) 0.5751(4) 0.6561(3)
H26 H 0.3548 0.6261 0.6864
C38 C 0.5139(5) 0.5206(4) 0.6492(3)
H27 H 0.5617 0.5340 0.6758
C39 C 0.5685(5) 0.4463(4) 0.6033(3)
H28 H 0.6527 0.4103 0.5985
C40 C 0.4975(5) 0.4259(4) 0.5648(3)
H29 H 0.5342 0.3756 0.5340
C41 C 0.3713(4) 0.4792(4) 0.5709(3)
C42 C 0.3018(4) 0.4554(3) 0.5279(3)
H30 H 0.3386 0.3969 0.5049
C43 C 0.3228(4) 0.7410(4) 0.1758(3)
C44 C 0.3359(5) 0.6680(4) 0.1323(3)
H31 H 0.3729 0.6680 0.0881
C45 C 0.2942(4) 0.5957(4) 0.1547(3)
C46 C 0.2386(4) 0.5944(4) 0.2201(3)
H32 H 0.2105 0.5456 0.2348
C47 C 0.2248(4) 0.6670(3) 0.2642(3)
C48 C 0.2684(4) 0.7393(4) 0.2413(3)
H33 H 0.2605 0.7870 0.2707
C49 C 0.3671(5) 0.8199(4) 0.1501(3)
C50 C 0.1632(4) 0.6697(4) 0.3354(3)
C51 C 0.0422(5) 0.9730(4) 0.2101(3)
H34 H 0.0376 0.9117 0.2248
H35 H -0.0390 1.0227 0.2107
H36 H 0.0850 0.9905 0.2397
C52 C -0.0658(5) 0.9531(4) 0.4281(3)
H37 H -0.0054 0.9559 0.3915
H38 H -0.0505 0.9730 0.4687
H39 H -0.1458 0.9961 0.4183
C53 C -0.3776(5) 0.7374(4) 0.6038(3)
H40 H -0.3961 0.6935 0.6369
H41 H -0.4155 0.7401 0.5648
H42 H -0.4084 0.8015 0.6223
C54 C 0.2029(6) 0.7946(4) 0.5278(4)
H43 H 0.2530 0.8177 0.4950
H44 H 0.2384 0.7774 0.5689
H45 H 0.1222 0.8451 0.5362
O19 O 0.1066(3) 0.9641(3) 0.14284(19)
O20 O 0.1902(4) 1.2090(4) 0.0226(3)
O21 O -0.0593(3) 0.8559(2) 0.43656(19)
O22 O -0.2489(3) 0.7036(2) 0.58548(19)
O23 O 0.1956(3) 0.7099(2) 0.50256(18)
C55 C 0.1139(9) 1.3315(9) 0.0299(7)
H46 H 0.1545 1.3640 -0.0016
H47 H 0.1123 1.3497 0.0749
H48 H 0.0315 1.3502 0.0208
Mn1A Mn 0.58652(6) 1.06460(5) -0.01982(4)
Mn4A Mn -0.00614(6) 0.42441(5) 0.56433(4)
Mn6A Mn -0.08489(6) 0.36272(5) 0.43295(4)
O5A O 0.4404(3) 1.0637(2) -0.04891(17)
O9A O -0.0031(3) 0.5226(2) 0.61682(16)
O14A O -0.1320(3) 0.5253(2) 0.51751(16)
C56 C 0.9727(6) 0.2291(4) -0.0930(3)
O24 O 1.0032(5) 0.1275(4) -0.0875(3)
C57 C 0.3328(7) 0.3576(6) -0.0907(5)
O25 O 0.3505(5) 0.3342(4) -0.0231(3)
C58 C 0.5973(15) 0.6396(13) 0.2630(9)
O26 O 0.6079(12) 0.7383(10) 0.2390(7)
loop_
_geom_bond_atom_site_label_1
_geom_bond_atom_site_label_2
_geom_bond_site_symmetry_1
_geom_bond_site_symmetry_2
I1 C45 1_555 1_555
Mn1 O1 1_555 1_555
Mn2 O1 1_555 1_555
Mn3 O1 1_555 1_555
Mn4 O8 1_555 1_555
Mn5 O8 1_555 1_555
Mn6 O8 1_555 1_555
O2 Mn1 1_555 1_555
O3 Mn3 1_555 1_555
O4 Mn2 1_555 1_555
O5 Mn1 1_555 1_555
O6 Mn3 1_555 1_555
O7 Mn2 1_555 1_555
O9 Mn4 1_555 1_555
O10 Mn5 1_555 1_555
O11 Mn5 1_555 1_555
O12 Mn6 1_555 1_555
O13 Mn6 1_555 1_555
O14 Mn4 1_555 1_555
O15 Mn1 1_555 1_555
O16 Mn2 1_555 1_555
O17 Mn4 1_555 1_555
O18 C50 1_555 1_555
N1 Mn1 1_555 1_555
N2 Mn2 1_555 1_555
N3 Mn3 1_555 1_555
N4 Mn4 1_555 1_555
N5 Mn5 1_555 1_555
N6 Mn6 1_555 1_555
C1 O2 1_555 1_555
C2 C1 1_555 1_555
H1 C2 1_555 1_555
C3 C2 1_555 1_555
H2 C3 1_555 1_555
C4 C3 1_555 1_555
H3 C4 1_555 1_555
C5 C4 1_555 1_555
H4 C5 1_555 1_555
C6 C1 1_555 1_555
C7 N1 1_555 1_555
H5 C7 1_555 1_555
C8 O4 1_555 1_555
C9 C8 1_555 1_555
H6 C9 1_555 1_555
C10 C9 1_555 1_555
H7 C10 1_555 1_555
C11 C10 1_555 1_555
H8 C11 1_555 1_555
C12 C11 1_555 1_555
H9 C12 1_555 1_555
C13 C8 1_555 1_555
C14 N2 1_555 1_555
H10 C14 1_555 1_555
C15 O6 1_555 1_555
C16 C15 1_555 1_555
H11 C16 1_555 1_555
C17 C16 1_555 1_555
H12 C17 1_555 1_555
C18 C17 1_555 1_555
H13 C18 1_555 1_555
C19 C18 1_555 1_555
H14 C19 1_555 1_555
C20 C15 1_555 1_555
C21 N3 1_555 1_555
H15 C21 1_555 1_555
C22 O9 1_555 1_555
C23 C22 1_555 1_555
H16 C23 1_555 1_555
C24 C23 1_555 1_555
H17 C24 1_555 1_555
C25 C24 1_555 1_555
H18 C25 1_555 1_555
C26 C25 1_555 1_555
H19 C26 1_555 1_555
C27 C22 1_555 1_555
C28 N4 1_555 1_555
H20 C28 1_555 1_555
C29 O11 1_555 1_555
C30 C29 1_555 1_555
H21 C30 1_555 1_555
C31 C30 1_555 1_555
H22 C31 1_555 1_555
C32 C31 1_555 1_555
H23 C32 1_555 1_555
C33 C32 1_555 1_555
H24 C33 1_555 1_555
C34 C29 1_555 1_555
C35 N5 1_555 1_555
H25 C35 1_555 1_555
C36 O13 1_555 1_555
C37 C36 1_555 1_555
H26 C37 1_555 1_555
C38 C37 1_555 1_555
H27 C38 1_555 1_555
C39 C38 1_555 1_555
H28 C39 1_555 1_555
C40 C39 1_555 1_555
H29 C40 1_555 1_555
C41 C36 1_555 1_555
C42 N6 1_555 1_555
H30 C42 1_555 1_555
C43 C44 1_555 1_555
C44 H31 1_555 1_555
C45 C44 1_555 1_555
C46 C45 1_555 1_555
H32 C46 1_555 1_555
C47 C46 1_555 1_555
C48 C43 1_555 1_555
H33 C48 1_555 1_555
C49 O15 1_555 1_555
C50 O17 1_555 1_555
C51 H34 1_555 1_555
H35 C51 1_555 1_555
H36 C51 1_555 1_555
C52 H37 1_555 1_555
H38 C52 1_555 1_555
H39 C52 1_555 1_555
C53 H40 1_555 1_555
H41 C53 1_555 1_555
H42 C53 1_555 1_555
C54 H43 1_555 1_555
H44 C54 1_555 1_555
H45 C54 1_555 1_555
O19 Mn3 1_555 1_555
O20 Mn3 1_555 1_555
O21 Mn5 1_555 1_555
O22 Mn5 1_555 1_555
O23 Mn6 1_555 1_555
C55 O20 1_555 1_555
H46 C55 1_555 1_555
H47 C55 1_555 1_555
H48 C55 1_555 1_555
C56 O24 1_555 1_555
C57 O25 1_555 1_555
C58 O26 1_555 1_555
Mn1A O5 1_555 1_555
Mn4A O14 1_555 1_555
Mn6A O9 1_555 1_555
O5A Mn1 1_555 1_555
O9A Mn6 1_555 1_555
O14A Mn4 1_555 1_555
O3 N1 1_555 1_555
O5 N2 1_555 1_555
O7 N3 1_555 1_555
O10 N4 1_555 1_555
O12 N5 1_555 1_555
O14 N6 1_555 1_555
O16 C49 1_555 1_555
C5 C6 1_555 1_555
C6 C7 1_555 1_555
C12 C13 1_555 1_555
C13 C14 1_555 1_555
C19 C20 1_555 1_555
C20 C21 1_555 1_555
C26 C27 1_555 1_555
C27 C28 1_555 1_555
C33 C34 1_555 1_555
C34 C35 1_555 1_555
C40 C41 1_555 1_555
C41 C42 1_555 1_555
C43 C49 1_555 1_555
C47 C48 1_555 1_555
C47 C50 1_555 1_555
C51 O19 1_555 1_555
C52 O21 1_555 1_555
C53 O22 1_555 1_555
C54 O23 1_555 1_555
Mn1A O5A 1_555 1_555
Mn4A O9A 1_555 1_555
Mn4A O14A 1_555 1_555

#END
