
#######################################################################
#
#                 Cambridge Crystallographic Data Centre
#                                CCDC 
#
#######################################################################
#
# If this CIF has been generated from an entry in the Cambridge 
# Structural Database, then it will include bibliographic, chemical, 
# crystal, experimental, refinement or atomic coordinate data resulting 
# from the CCDC's data processing and validation procedures.
#
#######################################################################

data_YIQRAT
_symmetry_cell_setting           orthorhombic
_symmetry_space_group_name_H-M   'P c a 21'
_symmetry_Int_Tables_number      29
_space_group_name_Hall           'P 2c -2ac'
loop_
_symmetry_equiv_pos_site_id
_symmetry_equiv_pos_as_xyz
1 x,y,z
2 -x,-y,1/2+z
3 1/2+x,-y,z
4 1/2-x,y,1/2+z
_cell_length_a                   22.135(4)
_cell_length_b                   12.401(3)
_cell_length_c                   26.475(5)
_cell_angle_alpha                90
_cell_angle_beta                 90
_cell_angle_gamma                90
_cell_volume                     7267.29
loop_
_atom_site_label
_atom_site_type_symbol
_atom_site_fract_x
_atom_site_fract_y
_atom_site_fract_z
Mn1 Mn 0.48080(5) 0.54797(11) 0.19882(5)
Mn2 Mn 0.44875(5) 0.75875(11) 0.13712(5)
Mn3 Mn 0.38302(6) 0.71479(11) 0.24592(5)
Mn4 Mn 0.39878(5) 0.43403(11) 0.10729(5)
Mn5 Mn 0.43024(5) 0.22547(11) 0.17067(5)
Mn6 Mn 0.49563(6) 0.26340(11) 0.06125(5)
N1 N 0.4549(3) 0.5363(6) 0.2708(3)
N2 N 0.4864(3) 0.6357(6) 0.1008(3)
N3 N 0.3661(3) 0.8485(6) 0.2073(3)
N4 N 0.4241(3) 0.4466(6) 0.0349(3)
N5 N 0.3914(3) 0.3503(6) 0.2057(3)
N6 N 0.5107(3) 0.1304(6) 0.1006(3)
O1 O 0.4306(2) 0.6683(4) 0.1920(2)
O2 O 0.5238(3) 0.4193(5) 0.2039(2)
O3 O 0.4051(2) 0.5932(5) 0.2862(2)
O4 O 0.4515(2) 0.8367(5) 0.0771(2)
O5 O 0.4883(2) 0.5360(4) 0.1266(2)
O6 O 0.3268(3) 0.7520(5) 0.2953(2)
O7 O 0.3953(2) 0.8665(5) 0.1615(2)
O8 O 0.4469(2) 0.3129(4) 0.1153(2)
O9 O 0.3533(2) 0.5608(5) 0.1016(3)
O10 O 0.4726(3) 0.3824(5) 0.0191(2)
O11 O 0.4285(3) 0.1513(5) 0.2326(2)
O12 O 0.3928(2) 0.4484(5) 0.1803(2)
O13 O 0.5522(2) 0.2262(5) 0.0136(2)
O14 O 0.4808(2) 0.1155(5) 0.1459(2)
O15 O 0.5581(2) 0.6485(6) 0.2079(3)
O16 O 0.5308(2) 0.8055(5) 0.1701(2)
O17 O 0.8220(2) 0.6692(6) 0.1007(2)
O18 O 0.8459(2) 0.8229(5) 0.1408(2)
O19 O 0.4593(3) 0.8055(5) 0.2852(2)
O20 O 0.3097(2) 0.6267(5) 0.2039(3)
O21 O 0.4215(3) 0.1663(5) 0.0227(2)
O22 O 0.5699(2) 0.3491(5) 0.1047(3)
C1 C 0.5470(4) 0.3714(7) 0.2453(4)
C2 C 0.5894(4) 0.2885(8) 0.2400(4)
H1 H 0.6007 0.2669 0.2077
C3 C 0.6148(5) 0.2383(8) 0.2809(4)
H2 H 0.6441 0.1854 0.2765
C4 C 0.5960(5) 0.2678(9) 0.3301(4)
H3 H 0.6123 0.2323 0.3579
C5 C 0.5550(5) 0.3464(9) 0.3374(4)
H4 H 0.5445 0.3661 0.3701
C6 C 0.5270(4) 0.4003(8) 0.2953(4)
C7 C 0.4801(4) 0.4759(8) 0.3052(4)
H5 H 0.4666 0.4827 0.3383
C8 C 0.4769(4) 0.8172(8) 0.0309(3)
C9 C 0.4739(4) 0.8938(8) -0.0064(4)
H6 H 0.4549 0.9594 -0.0003
C10 C 0.4993(4) 0.8730(9) -0.0536(4)
H7 H 0.4967 0.9258 -0.0784
C11 C 0.5274(4) 0.7801(8) -0.0647(4)
H8 H 0.5438 0.7689 -0.0967
C12 C 0.5317(4) 0.7018(9) -0.0280(4)
H9 H 0.5514 0.6375 -0.0353
C13 C 0.5062(4) 0.7178(8) 0.0212(4)
C14 C 0.5086(3) 0.6315(7) 0.0560(4)
H10 H 0.5274 0.5679 0.0459
C15 C 0.2940(4) 0.8411(7) 0.3016(4)
C16 C 0.2568(4) 0.8520(8) 0.3442(3)
H11 H 0.2568 0.7974 0.3683
C17 C 0.2210(4) 0.9395(8) 0.3517(4)
H12 H 0.1964 0.9425 0.3801
C18 C 0.2205(4) 1.0239(8) 0.3179(4)
H13 H 0.1959 1.0835 0.3235
C19 C 0.2580(4) 1.0188(7) 0.2746(4)
H14 H 0.2591 1.0759 0.2519
C20 C 0.2934(3) 0.9270(7) 0.2663(3)
C21 C 0.3315(4) 0.9269(8) 0.2192(4)
H15 H 0.3297 0.9864 0.1978
C22 C 0.3369(3) 0.6146(7) 0.0605(4)
C23 C 0.2959(4) 0.7028(7) 0.0681(4)
H16 H 0.2811 0.7177 0.1002
C24 C 0.2786(5) 0.7656(9) 0.0272(4)
H17 H 0.2536 0.8251 0.0319
C25 C 0.2985(6) 0.7396(10) -0.0198(4)
H18 H 0.2845 0.7780 -0.0476
C26 C 0.3378(5) 0.6594(9) -0.0265(4)
H19 H 0.3531 0.6473 -0.0587
C27 C 0.3567(4) 0.5939(8) 0.0124(3)
C28 C 0.4046(4) 0.5135(7) 0.0021(4)
H20 H 0.4214 0.5117 -0.0301
C29 C 0.3989(3) 0.1698(7) 0.2749(3)
C30 C 0.4018(4) 0.0918(8) 0.3136(3)
H21 H 0.4255 0.0308 0.3091
C31 C 0.3702(4) 0.1043(8) 0.3576(4)
H22 H 0.3720 0.0510 0.3823
C32 C 0.3353(4) 0.1963(9) 0.3658(4)
H23 H 0.3121 0.2033 0.3949
C33 C 0.3358(4) 0.2759(8) 0.3301(4)
H24 H 0.3151 0.3395 0.3370
C34 C 0.3652(4) 0.2672(8) 0.2848(3)
C35 C 0.3666(3) 0.3544(7) 0.2496(4)
H25 H 0.3481 0.4187 0.2590
C36 C 0.5874(4) 0.1362(9) 0.0097(3)
C37 C 0.6305(4) 0.1339(8) -0.0289(4)
H26 H 0.6348 0.1932 -0.0501
C38 C 0.6671(4) 0.0438(9) -0.0359(4)
H27 H 0.6951 0.0424 -0.0621
C39 C 0.6615(4) -0.0438(9) -0.0037(4)
H28 H 0.6853 -0.1048 -0.0086
C40 C 0.6207(4) -0.0398(8) 0.0354(4)
H29 H 0.6172 -0.0988 0.0569
C41 C 0.5842(3) 0.0503(7) 0.0438(3)
C42 C 0.5466(3) 0.0528(7) 0.0879(3)
H30 H 0.5481 -0.0067 0.1093
C43 C 0.6503(3) 0.8762(7) 0.1924(4)
C44 C 0.6882(4) 0.8247(7) 0.1574(4)
H31 H 0.6899 0.7498 0.1569
C45 C 0.7237(3) 0.8837(7) 0.1233(3)
C46 C 0.7206(3) 0.9965(8) 0.1255(4)
H32 H 0.7440 1.0373 0.1035
C47 C 0.6848(4) 1.0464(8) 0.1588(4)
H33 H 0.6841 1.1214 0.1600
C48 C 0.6486(3) 0.9874(8) 0.1916(4)
H34 H 0.6226 1.0235 0.2134
C49 C 0.6133(4) 0.8080(7) 0.2261(4)
H35 H 0.5954 0.8534 0.2519
H36 H 0.6395 0.7567 0.2430
C50 C 0.5634(4) 0.7465(10) 0.1996(4)
C51 C 0.7609(3) 0.8212(7) 0.0854(4)
H37 H 0.7754 0.8699 0.0593
H38 H 0.7358 0.7670 0.0693
C52 C 0.8141(4) 0.7672(8) 0.1107(4)
C53 C 0.4662(7) 0.8014(12) 0.3378(5)
H39 H 0.4316 0.8376 0.3527
H40 H 0.4640 0.7263 0.3478
C54 C 0.5162(6) 0.8437(14) 0.3586(6)
H41 H 0.5143 0.8360 0.3947
H42 H 0.5189 0.9188 0.3501
H43 H 0.5511 0.8065 0.3460
C55 C 0.2452(3) 0.6154(9) 0.2082(4)
H44 H 0.2256 0.6474 0.1791
H45 H 0.2310 0.6521 0.2383
C56 C 0.2302(4) 0.4968(10) 0.2112(6)
H46 H 0.1873 0.4881 0.2148
H47 H 0.2502 0.4655 0.2398
H48 H 0.2434 0.4615 0.1809
C57 C 0.3833(5) 0.2029(9) -0.0159(4)
H49 H 0.4066 0.2487 -0.0383
H50 H 0.3520 0.2473 -0.0009
C58 C 0.3542(5) 0.1189(9) -0.0462(4)
H51 H 0.3286 0.1517 -0.0711
H52 H 0.3305 0.0734 -0.0246
H53 H 0.3846 0.0765 -0.0628
C59 C 0.6325(5) 0.3659(11) 0.0933(5)
H54 H 0.6411 0.3347 0.0605
H55 H 0.6567 0.3278 0.1181
C60 C 0.6511(5) 0.4821(11) 0.0928(8)
H56 H 0.6932 0.4873 0.0846
H57 H 0.6441 0.5131 0.1255
H58 H 0.6279 0.5203 0.0680
Mn4B Mn 0.89878(5) 0.56597(11) 0.10729(5)
Mn5B Mn 0.93024(5) 0.77453(11) 0.17067(5)
O17B O 0.3220(2) 0.3308(6) 0.1007(2)
O18B O 0.3459(2) 0.1771(5) 0.1408(2)
N7 N 0.6086(7) 0.4443(10) -0.0610(7)
O23 O 0.6896(5) 0.5760(10) -0.0222(4)
O24 O 0.5467(5) 0.4065(9) -0.0704(3)
C61 C 0.7377(7) 0.4523(11) -0.1485(8)
C62 C 0.7001(7) 0.4688(14) -0.1019(7)
C63 C 0.6475(6) 0.4227(17) -0.1007(6)
C64 C 0.8017(7) 0.5040(15) -0.1512(7)
C65 C 0.7818(9) 0.6040(18) -0.0702(8)
C66 C 0.8246(10) 0.5838(18) -0.1161(9)
C67 C 0.7222(9) 0.5449(16) -0.0602(8)
O25 O 0.3700(2) 0.0044(5) 0.0720(2)
O26 O 0.5051(3) 0.9749(5) 0.2394(2)
loop_
_geom_bond_atom_site_label_1
_geom_bond_atom_site_label_2
_geom_bond_site_symmetry_1
_geom_bond_site_symmetry_2
Mn1 N1 1_555 1_555
Mn2 N2 1_555 1_555
Mn3 N3 1_555 1_555
Mn4 N4 1_555 1_555
Mn5 N5 1_555 1_555
Mn6 N6 1_555 1_555
N1 O3 1_555 1_555
N2 O5 1_555 1_555
N3 O7 1_555 1_555
N4 O10 1_555 1_555
N5 O12 1_555 1_555
N6 O14 1_555 1_555
O1 Mn1 1_555 1_555
O2 Mn1 1_555 1_555
O3 Mn3 1_555 1_555
O4 Mn2 1_555 1_555
O5 Mn1 1_555 1_555
O6 Mn3 1_555 1_555
O7 Mn2 1_555 1_555
O8 Mn4 1_555 1_555
O9 Mn4 1_555 1_555
O10 Mn6 1_555 1_555
O11 Mn5 1_555 1_555
O12 Mn1 1_555 1_555
O13 Mn6 1_555 1_555
O14 Mn5 1_555 1_555
O15 Mn1 1_555 1_555
O16 Mn2 1_555 1_555
O17 C52 1_555 1_555
O18 C52 1_555 1_555
O19 Mn3 1_555 1_555
O20 Mn3 1_555 1_555
O21 Mn6 1_555 1_555
O22 Mn6 1_555 1_555
C1 O2 1_555 1_555
C2 C1 1_555 1_555
H1 C2 1_555 1_555
C3 C2 1_555 1_555
H2 C3 1_555 1_555
C4 C3 1_555 1_555
H3 C4 1_555 1_555
C5 C4 1_555 1_555
H4 C5 1_555 1_555
C6 C1 1_555 1_555
C7 N1 1_555 1_555
H5 C7 1_555 1_555
C8 O4 1_555 1_555
C9 C8 1_555 1_555
H6 C9 1_555 1_555
C10 C9 1_555 1_555
H7 C10 1_555 1_555
C11 C10 1_555 1_555
H8 C11 1_555 1_555
C12 C11 1_555 1_555
H9 C12 1_555 1_555
C13 C8 1_555 1_555
C14 N2 1_555 1_555
H10 C14 1_555 1_555
C15 O6 1_555 1_555
C16 C15 1_555 1_555
H11 C16 1_555 1_555
C17 C16 1_555 1_555
H12 C17 1_555 1_555
C18 C17 1_555 1_555
H13 C18 1_555 1_555
C19 C18 1_555 1_555
H14 C19 1_555 1_555
C20 C15 1_555 1_555
C21 N3 1_555 1_555
H15 C21 1_555 1_555
C22 O9 1_555 1_555
C23 C22 1_555 1_555
H16 C23 1_555 1_555
C24 C23 1_555 1_555
H17 C24 1_555 1_555
C25 C24 1_555 1_555
H18 C25 1_555 1_555
C26 C25 1_555 1_555
H19 C26 1_555 1_555
C27 C22 1_555 1_555
C28 N4 1_555 1_555
H20 C28 1_555 1_555
C29 O11 1_555 1_555
C30 C29 1_555 1_555
H21 C30 1_555 1_555
C31 C30 1_555 1_555
H22 C31 1_555 1_555
C32 C31 1_555 1_555
H23 C32 1_555 1_555
C33 C32 1_555 1_555
H24 C33 1_555 1_555
C34 C29 1_555 1_555
C35 N5 1_555 1_555
H25 C35 1_555 1_555
C36 O13 1_555 1_555
C37 C36 1_555 1_555
H26 C37 1_555 1_555
C38 C37 1_555 1_555
H27 C38 1_555 1_555
C39 C38 1_555 1_555
H28 C39 1_555 1_555
C40 C39 1_555 1_555
H29 C40 1_555 1_555
C41 C36 1_555 1_555
C42 N6 1_555 1_555
H30 C42 1_555 1_555
C43 C44 1_555 1_555
C44 H31 1_555 1_555
C45 C44 1_555 1_555
C46 C45 1_555 1_555
H32 C46 1_555 1_555
C47 C46 1_555 1_555
H33 C47 1_555 1_555
C48 C43 1_555 1_555
H34 C48 1_555 1_555
C49 C43 1_555 1_555
H35 C49 1_555 1_555
H36 C49 1_555 1_555
C50 O15 1_555 1_555
C51 C45 1_555 1_555
H37 C51 1_555 1_555
H38 C51 1_555 1_555
C52 C51 1_555 1_555
C53 O19 1_555 1_555
H39 C53 1_555 1_555
H40 C53 1_555 1_555
C54 C53 1_555 1_555
H41 C54 1_555 1_555
H42 C54 1_555 1_555
H43 C54 1_555 1_555
C55 O20 1_555 1_555
H44 C55 1_555 1_555
H45 C55 1_555 1_555
C56 C55 1_555 1_555
H46 C56 1_555 1_555
H47 C56 1_555 1_555
H48 C56 1_555 1_555
C57 O21 1_555 1_555
H49 C57 1_555 1_555
H50 C57 1_555 1_555
C58 C57 1_555 1_555
H51 C58 1_555 1_555
H52 C58 1_555 1_555
H53 C58 1_555 1_555
C59 O22 1_555 1_555
H54 C59 1_555 1_555
H55 C59 1_555 1_555
C60 C59 1_555 1_555
H56 C60 1_555 1_555
H57 C60 1_555 1_555
H58 C60 1_555 1_555
N7 O24 1_555 1_555
O23 C67 1_555 1_555
C61 C62 1_555 1_555
C62 C63 1_555 1_555
C63 N7 1_555 1_555
C64 C61 1_555 1_555
C65 C66 1_555 1_555
C66 C64 1_555 1_555
C67 C62 1_555 1_555
Mn4B O17 1_555 1_555
Mn5B O18 1_555 1_555
O17B Mn4 1_555 1_555
O18B Mn5 1_555 1_555
Mn2 O1 1_555 1_555
Mn3 O1 1_555 1_555
Mn4 O5 1_555 1_555
Mn4 O12 1_555 1_555
Mn5 O8 1_555 1_555
Mn6 O8 1_555 1_555
O16 C50 1_555 1_555
C5 C6 1_555 1_555
C6 C7 1_555 1_555
C12 C13 1_555 1_555
C13 C14 1_555 1_555
C19 C20 1_555 1_555
C20 C21 1_555 1_555
C26 C27 1_555 1_555
C27 C28 1_555 1_555
C33 C34 1_555 1_555
C34 C35 1_555 1_555
C40 C41 1_555 1_555
C41 C42 1_555 1_555
C47 C48 1_555 1_555
C49 C50 1_555 1_555
C65 C67 1_555 1_555

#END
