
#######################################################################
#
#                 Cambridge Crystallographic Data Centre
#                                CCDC 
#
#######################################################################
#
# If this CIF has been generated from an entry in the Cambridge 
# Structural Database, then it will include bibliographic, chemical, 
# crystal, experimental, refinement or atomic coordinate data resulting 
# from the CCDC's data processing and validation procedures.
#
#######################################################################

data_YIQRIA
_symmetry_cell_setting           monoclinic
_symmetry_space_group_name_H-M   'P 21/n'
_symmetry_Int_Tables_number      14
_space_group_name_Hall           '-P 2yn'
loop_
_symmetry_equiv_pos_site_id
_symmetry_equiv_pos_as_xyz
1 x,y,z
2 1/2-x,1/2+y,1/2-z
3 -x,-y,-z
4 1/2+x,1/2-y,1/2+z
_cell_length_a                   8.023(2)
_cell_length_b                   22.903(6)
_cell_length_c                   11.473(3)
_cell_angle_alpha                90
_cell_angle_beta                 97.128(3)
_cell_angle_gamma                90
_cell_volume                     2091.88
loop_
_atom_site_label
_atom_site_type_symbol
_atom_site_fract_x
_atom_site_fract_y
_atom_site_fract_z
Cu1 Cu 0.54119(4) 0.233735(13) 0.83422(3)
O1 O 0.6678(2) 0.17280(7) 0.76335(15)
O2 O 0.0383(2) -0.01116(8) 0.8689(2)
O3 O 0.9281(3) 0.22272(9) 0.57311(18)
O4 O 0.8999(2) 0.20366(8) 0.38014(16)
O6 O 0.5213(3) 0.20936(9) 0.60265(17)
O7 O 0.9730(2) 0.47765(8) 0.6720(2)
N1 N -0.1684(3) 0.05588(10) 0.8562(2)
H3 H -0.2454 0.0300 0.8588
H4 H -0.1948 0.0923 0.8505
N2 N 0.7024(3) 0.29483(9) 0.79177(19)
N3 N 1.1750(3) 0.41113(10) 0.6543(2)
H5 H 1.2418 0.4367 0.6309
H6 H 1.2055 0.3752 0.6612
N4 N 0.3642(3) 0.17358(9) 0.85260(19)
C1 C 0.6209(3) 0.17375(11) 0.6516(2)
C2 C 0.6908(4) 0.02106(13) 0.5449(3)
H7 H 0.6550 -0.0165 0.5604
C3 C 0.7409(3) 0.38399(12) 0.6910(3)
H8 H 0.6936 0.4158 0.6487
C4 C 1.0243(3) 0.42715(12) 0.6799(2)
C5 C 0.8677(3) 0.29098(11) 0.8185(2)
H9 H 0.9113 0.2594 0.8634
C6 C 0.9141(3) 0.37930(11) 0.7179(2)
C7 C 0.0795(4) 0.14272(12) 0.8104(3)
H10 H -0.0303 0.1516 0.7796
C8 C 0.6898(3) 0.12431(11) 0.5849(2)
C9 C 0.8577(4) 0.08515(12) 0.4431(3)
H11 H 0.9314 0.0908 0.3876
C10 C 0.1188(3) 0.08828(11) 0.8575(2)
C11 C 0.6331(4) 0.06837(12) 0.6035(3)
H12 H 0.5552 0.0625 0.6560
C12 C -0.0085(3) 0.03971(12) 0.8608(2)
C13 C 0.8055(3) 0.13276(11) 0.5048(2)
C14 C 0.9782(3) 0.33170(11) 0.7827(2)
H13 H 1.0935 0.3271 0.8019
C15 C 0.2846(3) 0.07746(11) 0.9010(2)
H14 H 0.3159 0.0412 0.9328
C16 C 0.4028(3) 0.12067(11) 0.8968(2)
H15 H 0.5139 0.1127 0.9259
C17 C 0.8826(3) 0.19152(11) 0.4871(3)
C18 C 0.2050(3) 0.18376(12) 0.8097(3)
H16 H 0.1772 0.2203 0.7778
C19 C 0.6409(3) 0.34095(12) 0.7279(3)
H17 H 0.5253 0.3438 0.7079
C20 C 0.8012(4) 0.02959(13) 0.4637(3)
H18 H 0.8376 -0.0020 0.4228
Cu1C Cu 1.04119(4) 0.266265(13) 0.33422(3)
O4C O 0.3999(2) 0.29634(8) 0.88014(16)
O5 O 0.7108(3) 0.21483(9) 1.0445(2)
H1 H 0.6272 0.2354 1.0693
H2 H 0.8019 0.2389 1.0644
loop_
_geom_bond_atom_site_label_1
_geom_bond_atom_site_label_2
_geom_bond_site_symmetry_1
_geom_bond_site_symmetry_2
Cu1 O1 1_555 1_555
O1 C1 1_555 1_555
O2 C12 1_555 1_555
O3 C17 1_555 1_555
O4 C17 1_555 1_555
O5 H1 1_555 1_555
H2 O5 1_555 1_555
O6 C1 1_555 1_555
O7 C4 1_555 1_555
N1 H3 1_555 1_555
H4 N1 1_555 1_555
N2 Cu1 1_555 1_555
N3 H5 1_555 1_555
H6 N3 1_555 1_555
N4 Cu1 1_555 1_555
C1 C8 1_555 1_555
C2 H7 1_555 1_555
C3 H8 1_555 1_555
C4 N3 1_555 1_555
C5 N2 1_555 1_555
H9 C5 1_555 1_555
C6 C3 1_555 1_555
C7 H10 1_555 1_555
C8 C11 1_555 1_555
C9 H11 1_555 1_555
C10 C7 1_555 1_555
C11 C2 1_555 1_555
H12 C11 1_555 1_555
C12 N1 1_555 1_555
C13 C8 1_555 1_555
C14 C5 1_555 1_555
H13 C14 1_555 1_555
C15 C10 1_555 1_555
H14 C15 1_555 1_555
C16 N4 1_555 1_555
H15 C16 1_555 1_555
C17 C13 1_555 1_555
C18 N4 1_555 1_555
H16 C18 1_555 1_555
C19 N2 1_555 1_555
H17 C19 1_555 1_555
C20 C2 1_555 1_555
H18 C20 1_555 1_555
Cu1C O4 1_555 1_555
O4C Cu1 1_555 1_555
C3 C19 1_555 1_555
C4 C6 1_555 1_555
C6 C14 1_555 1_555
C7 C18 1_555 1_555
C9 C13 1_555 1_555
C9 C20 1_555 1_555
C10 C12 1_555 1_555
C15 C16 1_555 1_555

#END
