
#######################################################################
#
#                 Cambridge Crystallographic Data Centre
#                                CCDC 
#
#######################################################################
#
# If this CIF has been generated from an entry in the Cambridge 
# Structural Database, then it will include bibliographic, chemical, 
# crystal, experimental, refinement or atomic coordinate data resulting 
# from the CCDC's data processing and validation procedures.
#
#######################################################################

data_YIQSOH
_symmetry_cell_setting           monoclinic
_symmetry_space_group_name_H-M   'P 21/n'
_symmetry_Int_Tables_number      14
_space_group_name_Hall           '-P 2yn'
loop_
_symmetry_equiv_pos_site_id
_symmetry_equiv_pos_as_xyz
1 x,y,z
2 1/2-x,1/2+y,1/2-z
3 -x,-y,-z
4 1/2+x,1/2-y,1/2+z
_cell_length_a                   5.2594(10)
_cell_length_b                   16.342(3)
_cell_length_c                   8.1426(15)
_cell_angle_alpha                90
_cell_angle_beta                 97.939(2)
_cell_angle_gamma                90
_cell_volume                     693.142
loop_
_atom_site_label
_atom_site_type_symbol
_atom_site_fract_x
_atom_site_fract_y
_atom_site_fract_z
O1 O 0.1295(4) 0.71501(13) 0.5770(3)
O2 O 0.4211(4) 0.62965(13) 0.2881(3)
C1 C 0.3535(5) 0.55575(18) 0.2784(4)
Cu1 Cu 0.14625(6) 0.83280(2) 0.62933(4)
O3 O -0.0746(4) 0.70738(13) 0.3192(2)
O4 O 0.4316(4) 0.50533(13) 0.1821(3)
O5 O -0.1623(5) 0.86478(15) 0.4160(3)
C2 C 0.0292(6) 0.67549(18) 0.4505(4)
O6 O 0.3800(4) 0.90417(15) 0.5221(3)
C3 C -0.1389(6) 0.55457(18) 0.5807(4)
H1 H -0.2321 0.5916 0.6355
C4 C 0.0243(6) 0.58432(18) 0.4736(3)
C5 C 0.1668(5) 0.52859(18) 0.3918(3)
H2 H -0.120(9) 0.9099(15) 0.372(5)
H3 H 0.293(6) 0.938(2) 0.455(4)
H4 H 0.515(6) 0.888(3) 0.482(5)
H5 H -0.175(12) 0.825(2) 0.346(5)
O1B O -0.1295(4) 0.28499(13) 0.4230(3)
O2B O -0.4211(4) 0.37035(13) 0.7119(3)
O2C O -0.0789(4) 0.87035(13) 0.7881(3)
O2A O 0.0789(4) 0.12965(13) 0.2119(3)
C1B C -0.3535(5) 0.44425(18) 0.7216(4)
Cu1B Cu -0.14625(6) 0.16720(2) 0.37067(4)
Cu1C Cu 0.64625(6) 0.66720(2) 0.12933(4)
Cu1C_2 Cu -0.35375(6) 0.66720(2) 0.12933(4)
Cu1A Cu -0.64625(6) 0.33280(2) 0.87067(4)
Cu1A_2 Cu 0.35375(6) 0.33280(2) 0.87067(4)
O3B O 0.0746(4) 0.29262(13) 0.6808(2)
O3C O 0.4254(4) 0.79262(13) 0.8192(2)
O3A O -0.4254(4) 0.20738(13) 0.1808(2)
O4B O -0.4316(4) 0.49467(13) 0.8179(3)
O5B O 0.1623(5) 0.13522(15) 0.5840(3)
C2B C -0.0292(6) 0.32451(18) 0.5495(4)
O6B O -0.3800(4) 0.09583(15) 0.4779(3)
C3B C 0.1389(6) 0.44543(18) 0.4193(4)
H1B H 0.2321 0.4084 0.3645
C4B C -0.0243(6) 0.41568(18) 0.5264(3)
C5B C -0.1668(5) 0.47141(18) 0.6082(3)
H2B H 0.120(9) 0.0901(15) 0.628(5)
H3B H -0.293(6) 0.062(2) 0.545(4)
H4B H -0.515(6) 0.112(3) 0.518(5)
H5B H 0.175(12) 0.175(2) 0.654(5)
loop_
_geom_bond_atom_site_label_1
_geom_bond_atom_site_label_2
_geom_bond_site_symmetry_1
_geom_bond_site_symmetry_2
O1 Cu1 1_555 1_555
O2 C1 1_555 1_555
C1 O4 1_555 1_555
Cu1 O5 1_555 1_555
O3 C2 1_555 1_555
O5 H2 1_555 1_555
C2 O1 1_555 1_555
O6 Cu1 1_555 1_555
C3 H1 1_555 1_555
C4 C2 1_555 1_555
C5 C1 1_555 1_555
H3 O6 1_555 1_555
H4 O6 1_555 1_555
H5 O5 1_555 1_555
O1B Cu1B 1_555 1_555
O2B C1B 1_555 1_555
O2C Cu1 1_555 1_555
O2A Cu1B 1_555 1_555
C1B O4B 1_555 1_555
Cu1B O3A 1_555 1_555
Cu1C O2 1_555 1_555
Cu1C_2 O3 1_555 1_555
Cu1A O2B 1_555 1_555
Cu1A_2 O3B 1_555 1_555
O3B C2B 1_555 1_555
O3C Cu1 1_555 1_555
O5B Cu1B 1_555 1_555
C2B O1B 1_555 1_555
O6B Cu1B 1_555 1_555
C3B C5 1_555 1_555
H1B C3B 1_555 1_555
C4B C2B 1_555 1_555
C5B C3 1_555 1_555
H2B O5B 1_555 1_555
H3B O6B 1_555 1_555
H4B O6B 1_555 1_555
H5B O5B 1_555 1_555
C3 C4 1_555 1_555
C4 C5 1_555 1_555
C1B C5B 1_555 1_555
C3B C4B 1_555 1_555
C4B C5B 1_555 1_555

#END
