
#######################################################################
#
#                 Cambridge Crystallographic Data Centre
#                                CCDC 
#
#######################################################################
#
# If this CIF has been generated from an entry in the Cambridge 
# Structural Database, then it will include bibliographic, chemical, 
# crystal, experimental, refinement or atomic coordinate data resulting 
# from the CCDC's data processing and validation procedures.
#
#######################################################################

data_YIQTAU
_symmetry_cell_setting           monoclinic
_symmetry_space_group_name_H-M   'P 21/c'
_symmetry_Int_Tables_number      14
_space_group_name_Hall           '-P 2ybc'
loop_
_symmetry_equiv_pos_site_id
_symmetry_equiv_pos_as_xyz
1 x,y,z
2 -x,1/2+y,1/2-z
3 -x,-y,-z
4 x,1/2-y,1/2+z
_cell_length_a                   9.779(2)
_cell_length_b                   9.807(2)
_cell_length_c                   19.334(4)
_cell_angle_alpha                90
_cell_angle_beta                 100.915(3)
_cell_angle_gamma                90
_cell_volume                     1820.64
loop_
_atom_site_label
_atom_site_type_symbol
_atom_site_fract_x
_atom_site_fract_y
_atom_site_fract_z
Sn1 Sn 0.52733(3) 0.67363(3) 0.156159(16)
O1 O 0.5801(4) 0.6306(3) 0.05146(18)
O2 O 0.6472(4) 0.7069(4) -0.04578(19)
O3 O 0.5119(4) 0.8781(3) 0.22701(18)
O4 O 0.5509(4) 1.1034(3) 0.23984(18)
O5 O 0.5175(4) 0.4439(3) 0.14243(18)
H1 H 0.4618 0.4086 0.1092
H2 H 0.5031 0.4064 0.1857
N1 N 0.5961(4) 0.8744(4) 0.10674(19)
C1 C 0.6218(5) 0.7222(5) 0.0138(3)
C2 C 0.6398(5) 0.8629(5) 0.0454(2)
C3 C 0.6923(5) 0.9729(5) 0.0147(3)
H3 H 0.7229 0.9635 -0.0277
C4 C 0.6983(6) 1.0963(6) 0.0480(3)
H4 H 0.7351 1.1715 0.0286
C5 C 0.6502(5) 1.1100(5) 0.1103(3)
H5 H 0.6512 1.1943 0.1324
C6 C 0.6004(5) 0.9949(4) 0.1391(2)
C7 C 0.5501(5) 0.9926(5) 0.2079(2)
C8 C 0.7311(6) 0.6460(6) 0.2137(4)
C9 C 0.8249(7) 0.5751(8) 0.1817(4)
H6 H 0.7960 0.5409 0.1364
C10 C 0.9632(8) 0.5539(9) 0.2166(5)
H7 H 1.0270 0.5071 0.1954
C11 C 0.9987(9) 0.6058(10) 0.2832(5)
H8 H 1.0907 0.5963 0.3062
C12 C 0.9095(9) 0.6702(8) 0.3182(5)
H9 H 0.9382 0.6996 0.3644
C13 C 0.7720(8) 0.6909(7) 0.2821(4)
H10 H 0.7084 0.7352 0.3045
C14 C 0.3134(6) 0.6972(6) 0.1108(3)
C15 C 0.2267(7) 0.7880(7) 0.1361(4)
H11 H 0.2600 0.8396 0.1761
C16 C 0.0885(7) 0.8016(8) 0.1012(4)
H12 H 0.0311 0.8647 0.1175
C17 C 0.0364(7) 0.7242(8) 0.0437(4)
H13 H -0.0560 0.7338 0.0213
C18 C 0.1205(7) 0.6325(7) 0.0192(4)
H14 H 0.0851 0.5787 -0.0197
C19 C 0.2583(6) 0.6191(6) 0.0519(3)
H15 H 0.3150 0.5570 0.0344
Sn1A Sn 0.47267(3) 1.17363(3) 0.343841(16)
O4A O 0.4491(4) 0.6034(3) 0.26016(18)
loop_
_geom_bond_atom_site_label_1
_geom_bond_atom_site_label_2
_geom_bond_site_symmetry_1
_geom_bond_site_symmetry_2
Sn1 O1 1_555 1_555
O1 C1 1_555 1_555
O2 C1 1_555 1_555
O3 Sn1 1_555 1_555
O4 C7 1_555 1_555
O5 Sn1 1_555 1_555
H1 O5 1_555 1_555
H2 O5 1_555 1_555
N1 Sn1 1_555 1_555
C1 C2 1_555 1_555
C2 N1 1_555 1_555
C3 C2 1_555 1_555
H3 C3 1_555 1_555
C4 C3 1_555 1_555
H4 C4 1_555 1_555
C5 C4 1_555 1_555
H5 C5 1_555 1_555
C6 N1 1_555 1_555
C7 O3 1_555 1_555
C8 Sn1 1_555 1_555
C9 C8 1_555 1_555
H6 C9 1_555 1_555
C10 C9 1_555 1_555
H7 C10 1_555 1_555
C11 C10 1_555 1_555
H8 C11 1_555 1_555
C12 C11 1_555 1_555
H9 C12 1_555 1_555
C13 C8 1_555 1_555
H10 C13 1_555 1_555
C14 Sn1 1_555 1_555
C15 C14 1_555 1_555
H11 C15 1_555 1_555
C16 C15 1_555 1_555
H12 C16 1_555 1_555
C17 C16 1_555 1_555
H13 C17 1_555 1_555
C18 C17 1_555 1_555
H14 C18 1_555 1_555
C19 C14 1_555 1_555
H15 C19 1_555 1_555
Sn1A O4 1_555 1_555
O4A Sn1 1_555 1_555
C5 C6 1_555 1_555
C6 C7 1_555 1_555
C12 C13 1_555 1_555
C18 C19 1_555 1_555

#END
