
#######################################################################
#
#                 Cambridge Crystallographic Data Centre
#                                CCDC 
#
#######################################################################
#
# If this CIF has been generated from an entry in the Cambridge 
# Structural Database, then it will include bibliographic, chemical, 
# crystal, experimental, refinement or atomic coordinate data resulting 
# from the CCDC's data processing and validation procedures.
#
#######################################################################

data_YIQVOL
_symmetry_cell_setting           orthorhombic
_symmetry_space_group_name_H-M   'P n 21 a'
_symmetry_Int_Tables_number      33
_space_group_name_Hall           'P -2ac -2n'
loop_
_symmetry_equiv_pos_site_id
_symmetry_equiv_pos_as_xyz
1 x,y,z
2 -x,1/2+y,-z
3 1/2-x,1/2+y,1/2+z
4 1/2+x,y,1/2-z
_cell_length_a                   7.0587(12)
_cell_length_b                   12.432(2)
_cell_length_c                   19.090(4)
_cell_angle_alpha                90
_cell_angle_beta                 90
_cell_angle_gamma                90
_cell_volume                     1675.22
loop_
_atom_site_label
_atom_site_type_symbol
_atom_site_fract_x
_atom_site_fract_y
_atom_site_fract_z
Ba1 Ba 0.19839(3) 0.07704(2) 0.576830(10)
Ba2 Ba 0.70046(3) -0.032517(16) 0.681367(9)
O1 O 0.8214(4) 0.0893(3) 0.56764(12)
O2 O 0.5534(4) -0.0001(2) 0.54757(13)
C1 C 0.6883(5) 0.0598(3) 0.52724(17)
C2 C 0.7553(6) 0.1988(3) 0.43570(19)
H1 H 0.8024 0.2450 0.4705
C3 C 0.6923(4) 0.0950(3) 0.45205(18)
C4 C 0.6460(7) 0.0531(4) 0.33017(19)
C5 C 0.6161(5) -0.0276(4) 0.27414(16)
C6 C 0.6255(6) 0.0021(3) 0.20373(18)
H2 H 0.6423 0.0750 0.1924
C7 C 0.6359(6) 0.0250(3) 0.40090(18)
H3 H 0.5896 -0.0432 0.4135
C8 C 0.5853(5) -0.1363(3) 0.28895(18)
H4 H 0.5771 -0.1588 0.3359
C9 C 0.6942(6) 0.1586(4) 0.31400(19)
H5 H 0.6920 0.1812 0.2670
C10 C 0.7457(6) 0.2310(3) 0.36584(19)
C11 C 0.6110(5) -0.0725(3) 0.15000(17)
C12 C 0.5821(5) -0.1801(3) 0.16559(18)
H6 H 0.5730 -0.2312 0.1295
C13 C 0.5666(5) -0.2119(3) 0.23563(18)
O3 O 0.6868(4) 0.0647(3) 0.06710(13)
O4 O 0.5883(5) -0.0914(2) 0.02542(13)
C14 C 0.5322(5) -0.3274(3) 0.25668(17)
C15 C 0.6305(6) -0.0301(4) 0.07545(15)
C16 C 0.7918(5) 0.3442(3) 0.34482(18)
O5 O 0.4900(4) -0.3958(2) 0.20979(13)
O6 O 0.2256(5) 0.2835(3) 0.52979(18)
H7 H 0.1252 0.3199 0.5230
H8 H 0.2568 0.2799 0.4879
O7 O 0.6686(4) 0.3952(3) 0.30943(15)
O8 O 0.5425(4) -0.3521(2) 0.32027(13)
O9 O 0.9463(4) 0.3850(2) 0.36371(15)
O10 O 0.7156(6) -0.2420(3) 0.6290(2)
H9 H 0.7263 -0.3073 0.6187
H10 H 0.8350 -0.2314 0.6324
Ba1_2 Ba 1.19839(3) 0.07704(2) 0.576830(10)
Ba1A Ba 0.80161(3) -0.42296(2) 0.423170(10)
Ba1A_2 Ba 0.80161(3) 0.57704(2) 0.423170(10)
Ba1B Ba 0.30161(3) -0.42296(2) 0.076830(10)
Ba1C Ba 0.69839(3) 0.07704(2) -0.076830(10)
Ba2A Ba 0.29954(3) -0.532517(16) 0.318633(9)
Ba2A_2 Ba 0.29954(3) 0.467483(16) 0.318633(9)
Ba2A_3 Ba 1.29954(3) 0.467483(16) 0.318633(9)
Ba2B Ba 0.79954(3) -0.532517(16) 0.181367(9)
Ba2B_2 Ba 0.79954(3) 0.467483(16) 0.181367(9)
O1_2 O -0.1786(4) 0.0893(3) 0.56764(12)
O3C O 0.1868(4) 0.0647(3) 0.43290(13)
O4C O 0.0883(5) -0.0914(2) 0.47458(13)
O5A O 0.5100(4) 0.1042(2) 0.79021(13)
O5B O 0.0100(4) 0.1042(2) 0.70979(13)
O5B_2 O 1.0100(4) 0.1042(2) 0.70979(13)
O7A O 0.3314(4) -0.1048(3) 0.69057(15)
O7B O 0.8314(4) -0.1048(3) 0.80943(15)
O8A O 0.4575(4) 0.1479(2) 0.67973(13)
O9A O 0.0537(4) -0.1150(2) 0.63629(15)
O9A_2 O 1.0537(4) -0.1150(2) 0.63629(15)
loop_
_geom_bond_atom_site_label_1
_geom_bond_atom_site_label_2
_geom_bond_site_symmetry_1
_geom_bond_site_symmetry_2
Ba1 O2 1_555 1_555
Ba2 O1 1_555 1_555
O1 C1 1_555 1_555
O2 Ba2 1_555 1_555
C1 O2 1_555 1_555
C2 H1 1_555 1_555
C3 C1 1_555 1_555
C4 C5 1_555 1_555
C5 C6 1_555 1_555
C6 H2 1_555 1_555
C7 C3 1_555 1_555
H3 C7 1_555 1_555
C8 C5 1_555 1_555
H4 C8 1_555 1_555
C9 C4 1_555 1_555
H5 C9 1_555 1_555
C10 C2 1_555 1_555
C11 C6 1_555 1_555
C12 C11 1_555 1_555
H6 C12 1_555 1_555
C13 C8 1_555 1_555
O3 C15 1_555 1_555
O4 C15 1_555 1_555
C14 C13 1_555 1_555
C15 C11 1_555 1_555
C16 C10 1_555 1_555
O5 C14 1_555 1_555
O6 Ba1 1_555 1_555
H7 O6 1_555 1_555
H8 O6 1_555 1_555
O7 C16 1_555 1_555
O8 C14 1_555 1_555
O9 C16 1_555 1_555
O10 Ba2 1_555 1_555
H9 O10 1_555 1_555
H10 O10 1_555 1_555
Ba1_2 O1 1_555 1_555
Ba1A O8 1_555 1_555
Ba1A_2 O9 1_555 1_555
Ba1B O5 1_555 1_555
Ba1C O3 1_555 1_555
Ba2A O5 1_555 1_555
Ba2A_2 O7 1_555 1_555
Ba2A_3 O9 1_555 1_555
Ba2B O5 1_555 1_555
Ba2B_2 O7 1_555 1_555
O1_2 Ba1 1_555 1_555
O3C Ba1 1_555 1_555
O4C Ba1 1_555 1_555
O5A Ba2 1_555 1_555
O5B Ba1 1_555 1_555
O5B_2 Ba2 1_555 1_555
O7A Ba2 1_555 1_555
O7B Ba2 1_555 1_555
O8A Ba1 1_555 1_555
O9A Ba1 1_555 1_555
O9A_2 Ba2 1_555 1_555
Ba2 O8A 1_555 1_555
C2 C3 1_555 1_555
C4 C7 1_555 1_555
C9 C10 1_555 1_555
C12 C13 1_555 1_555
O4 Ba1C 1_555 1_555
O8 Ba2A 1_555 1_555
Ba1_2 O5B_2 1_555 1_555
Ba1_2 O9A_2 1_555 1_555

#END
