
#######################################################################
#
#                 Cambridge Crystallographic Data Centre
#                                CCDC 
#
#######################################################################
#
# If this CIF has been generated from an entry in the Cambridge 
# Structural Database, then it will include bibliographic, chemical, 
# crystal, experimental, refinement or atomic coordinate data resulting 
# from the CCDC's data processing and validation procedures.
#
#######################################################################

data_YIRFAI
_symmetry_cell_setting           monoclinic
_symmetry_space_group_name_H-M   'P 21/c'
_symmetry_Int_Tables_number      14
_space_group_name_Hall           '-P 2ybc'
loop_
_symmetry_equiv_pos_site_id
_symmetry_equiv_pos_as_xyz
1 x,y,z
2 -x,1/2+y,1/2-z
3 -x,-y,-z
4 x,1/2-y,1/2+z
_cell_length_a                   12.6318(6)
_cell_length_b                   24.2019(12)
_cell_length_c                   7.3555(3)
_cell_angle_alpha                90
_cell_angle_beta                 90.001(3)
_cell_angle_gamma                90
_cell_volume                     2248.68
loop_
_atom_site_label
_atom_site_type_symbol
_atom_site_fract_x
_atom_site_fract_y
_atom_site_fract_z
Bi1 Bi 0.48954(2) 0.460374(9) 0.76993(4)
Cl1 Cl 0.64853(14) 0.43150(10) 0.9652(3)
Cl2 Cl 0.63487(13) 0.46959(7) 0.4996(2)
S1 S 0.47663(15) 0.36511(8) 0.6069(3)
S2 S 0.41411(13) 0.42165(8) 1.1003(2)
N1 N 0.2824(4) 0.3453(2) 0.7696(9)
N2 N 0.3842(4) 0.2732(2) 0.7255(9)
H1 H 0.4403 0.2535 0.6971
N3 N 0.2087(4) 0.4215(2) 0.9706(8)
N4 N 0.2284(4) 0.4434(2) 1.2606(9)
H2 H 0.2585 0.4508 1.3656
B1 B 0.2350(6) 0.4048(3) 0.7715(13)
H3 H 0.2866 0.4312 0.7193
H4 H 0.1699 0.4059 0.6967
C1 C 0.3754(5) 0.3284(3) 0.7109(10)
C2 C 0.2262(5) 0.2981(3) 0.8204(10)
C3 C 0.2897(5) 0.2529(3) 0.7931(10)
C4 C 0.2564(6) 0.1994(3) 0.8258(10)
H5 H 0.3020 0.1688 0.8062
C5 C 0.1550(6) 0.1924(3) 0.8875(10)
H6 H 0.1291 0.1562 0.9106
C6 C 0.0882(6) 0.2389(3) 0.9172(10)
H7 H 0.0178 0.2332 0.9586
C7 C 0.1234(6) 0.2920(3) 0.8873(10)
H8 H 0.0798 0.3232 0.9111
C8 C 0.2782(5) 0.4303(3) 1.1074(10)
C9 C 0.1083(5) 0.4299(3) 1.0436(11)
C10 C 0.1201(5) 0.4433(3) 1.2256(11)
C11 C 0.0351(6) 0.4515(3) 1.3415(12)
H9 H 0.0445 0.4597 1.4667
C12 C -0.0642(5) 0.4472(3) 1.2640(16)
H10 H -0.1248 0.4527 1.3383
C13 C -0.0784(6) 0.4349(4) 1.0786(14)
H11 H -0.1481 0.4326 1.0306
C14 C 0.0074(6) 0.4260(3) 0.9647(10)
H12 H -0.0017 0.4177 0.8395
Bi1B Bi 0.51046(2) 0.539626(9) 0.23007(4)
Bi1B_2 Bi 0.51046(2) 0.539626(9) 1.23007(4)
Cl2B Cl 0.36513(13) 0.53041(7) 0.5004(2)
S2B S 0.58589(13) 0.57835(8) 0.8997(2)
O1 O 0.5624(8) 0.2067(4) 0.6196(16)
O3 O 0.6969(13) 0.2278(11) 0.922(3)
O6 O 0.7872(17) 0.3419(10) 0.648(3)
O2? O 0.591(2) 0.2434(14) 0.752(7)
O4? O 0.717(2) 0.1520(17) 0.798(5)
O5? O 0.735(6) 0.306(4) 0.817(11)
loop_
_geom_bond_atom_site_label_1
_geom_bond_atom_site_label_2
_geom_bond_site_symmetry_1
_geom_bond_site_symmetry_2
Bi1 Cl1 1_555 1_555
Cl2 Bi1 1_555 1_555
S1 Bi1 1_555 1_555
S2 Bi1 1_555 1_555
N1 B1 1_555 1_555
N2 H1 1_555 1_555
N3 B1 1_555 1_555
N4 H2 1_555 1_555
B1 H3 1_555 1_555
H4 B1 1_555 1_555
C1 S1 1_555 1_555
C2 N1 1_555 1_555
C3 N2 1_555 1_555
C4 C3 1_555 1_555
H5 C4 1_555 1_555
C5 C4 1_555 1_555
H6 C5 1_555 1_555
C6 C5 1_555 1_555
H7 C6 1_555 1_555
C7 C2 1_555 1_555
H8 C7 1_555 1_555
C8 S2 1_555 1_555
C9 N3 1_555 1_555
C10 N4 1_555 1_555
C11 C10 1_555 1_555
H9 C11 1_555 1_555
C12 C11 1_555 1_555
H10 C12 1_555 1_555
C13 C12 1_555 1_555
H11 C13 1_555 1_555
C14 C9 1_555 1_555
H12 C14 1_555 1_555
Bi1B Cl2 1_555 1_555
Bi1B_2 S2 1_555 1_555
Cl2B Bi1 1_555 1_555
S2B Bi1 1_555 1_555
N1 C1 1_555 1_555
N2 C1 1_555 1_555
N3 C8 1_555 1_555
N4 C8 1_555 1_555
C2 C3 1_555 1_555
C6 C7 1_555 1_555
C9 C10 1_555 1_555
C13 C14 1_555 1_555
Bi1B Cl2B 1_555 1_555
Bi1B_2 S2B 1_555 1_555

#END
