
#######################################################################
#
#                 Cambridge Crystallographic Data Centre
#                                CCDC 
#
#######################################################################
#
# If this CIF has been generated from an entry in the Cambridge 
# Structural Database, then it will include bibliographic, chemical, 
# crystal, experimental, refinement or atomic coordinate data resulting 
# from the CCDC's data processing and validation procedures.
#
#######################################################################

data_YIRLUI
_symmetry_cell_setting           monoclinic
_symmetry_space_group_name_H-M   'P 21/c'
_symmetry_Int_Tables_number      14
_space_group_name_Hall           '-P 2ybc'
loop_
_symmetry_equiv_pos_site_id
_symmetry_equiv_pos_as_xyz
1 x,y,z
2 -x,1/2+y,1/2-z
3 -x,-y,-z
4 x,1/2-y,1/2+z
_cell_length_a                   13.5428(11)
_cell_length_b                   14.5987(11)
_cell_length_c                   16.7101(10)
_cell_angle_alpha                90
_cell_angle_beta                 127.750(4)
_cell_angle_gamma                90
_cell_volume                     2612.21
loop_
_atom_site_label
_atom_site_type_symbol
_atom_site_fract_x
_atom_site_fract_y
_atom_site_fract_z
Ce1 Ce 0.95748(3) 0.68359(2) 0.84481(2)
Ce2 Ce 0.78827(3) 0.93249(2) 0.61632(3)
O1 O 0.6684(4) 0.8541(3) 0.6571(4)
O2 O 0.8976(5) 0.6527(5) 0.9542(4)
H1 H 0.9477 0.6062 1.0040
H2 H 0.8314 0.6684 0.9413
O3 O 0.7501(4) 0.7394(4) 0.7684(4)
O4 O 0.5567(4) 0.9290(3) 0.4542(4)
H3 H 0.4838 0.9231 0.4412
H4 H 0.6139 0.8903 0.4728
O5 O 0.1223(4) 0.8829(3) 0.5068(3)
O6 O 0.2620(4) 0.9855(3) 0.5343(3)
O7 O 1.1289(4) 0.6215(3) 0.8364(3)
O8 O 1.3114(4) 0.5772(3) 0.8807(4)
O9 O 1.1296(4) 1.0379(3) 0.7241(4)
O10 O 0.9924(4) 0.9250(3) 0.6521(4)
O11 O 1.0438(5) 0.8313(3) 0.9149(4)
O12 O 0.9286(5) 0.9327(3) 0.7944(4)
O13 O 1.1218(4) 1.2365(3) 0.8267(3)
O14 O 1.2414(4) 1.2936(3) 0.9805(3)
C1 C 0.5424(5) 0.7844(4) 0.6924(5)
C2 C 0.4494(5) 0.8494(4) 0.6349(5)
H5 H 0.4634 0.8981 0.6071
C3 C 0.3356(5) 0.8429(4) 0.6182(5)
C4 C 0.3164(6) 0.7701(5) 0.6620(5)
H6 H 0.2405 0.7648 0.6510
C5 C 0.4106(6) 0.7053(5) 0.7221(6)
H7 H 0.3978 0.6576 0.7517
C6 C 0.5240(6) 0.7126(5) 0.7374(5)
H8 H 0.5870 0.6699 0.7774
C7 C 0.6638(6) 0.7932(5) 0.7078(5)
C8 C 0.2327(5) 0.9091(4) 0.5489(5)
C9 C 1.1113(9) 0.9837(5) 0.9463(7)
C10 C 1.1045(7) 1.0680(4) 0.9060(5)
H9 H 1.0404 1.0798 0.8381
C11 C 1.1916(7) 1.1349(5) 0.9652(5)
C12 C 1.2872(10) 1.1168(8) 1.0641(8)
H10 H 1.3473 1.1615 1.1035
C13 C 1.2964(12) 1.0323(9) 1.1070(10)
H11 H 1.3637 1.0193 1.1737
C14 C 1.2030(9) 0.9677(7) 1.0483(8)
H12 H 1.2022 0.9138 1.0775
C15 C 1.0216(7) 0.9122(5) 0.8811(6)
C16 C 1.1852(5) 1.2271(4) 0.9212(5)
C17 C 1.2670(6) 0.7371(4) 0.8574(5)
C18 C 1.1750(6) 0.7991(4) 0.7908(5)
H13 H 1.0925 0.7796 0.7465
C19 C 1.2037(6) 0.8906(4) 0.7888(5)
C20 C 1.3256(7) 0.9197(5) 0.8550(6)
H14 H 1.3449 0.9807 0.8542
C21 C 1.4192(7) 0.8598(5) 0.9224(6)
H15 H 1.5009 0.8807 0.9678
C22 C 1.3916(6) 0.7676(5) 0.9227(5)
H16 H 1.4554 0.7265 0.9660
C23 C 1.2344(5) 0.6395(4) 0.8576(4)
C24 C 1.1011(6) 0.9560(4) 0.7158(5)
Ce1A Ce 1.04252(3) 1.18359(2) 0.65519(2)
Ce1C Ce -0.04252(3) 0.81641(2) 0.34481(2)
Ce2A Ce 1.21173(3) 0.43249(2) 0.88368(3)
Ce2A_2 Ce 1.21173(3) 1.43249(2) 0.88368(3)
Ce2B Ce 0.21173(3) 1.06751(2) 0.38368(3)
O5C O 1.1223(4) 0.6171(3) 1.0068(3)
O6B O 0.7380(4) 1.0145(3) 0.4657(3)
O7A O 0.8711(4) 1.1215(3) 0.6636(3)
O8A O 0.6886(4) 1.0772(3) 0.6193(4)
O9A O 0.8704(4) 0.5379(3) 0.7759(4)
O13A O 0.8782(4) 0.7365(3) 0.6733(3)
O14A O 0.7586(4) 0.7936(3) 0.5195(3)
loop_
_geom_bond_atom_site_label_1
_geom_bond_atom_site_label_2
_geom_bond_site_symmetry_1
_geom_bond_site_symmetry_2
Ce1 O2 1_555 1_555
Ce2 O1 1_555 1_555
O1 C7 1_555 1_555
O2 H1 1_555 1_555
H2 O2 1_555 1_555
O3 Ce1 1_555 1_555
O4 Ce2 1_555 1_555
H3 O4 1_555 1_555
H4 O4 1_555 1_555
O5 C8 1_555 1_555
O6 C8 1_555 1_555
O7 Ce1 1_555 1_555
O8 C23 1_555 1_555
O9 C24 1_555 1_555
O10 Ce2 1_555 1_555
O11 Ce1 1_555 1_555
O12 Ce2 1_555 1_555
O13 C16 1_555 1_555
O14 C16 1_555 1_555
C1 C2 1_555 1_555
C2 H5 1_555 1_555
C3 C2 1_555 1_555
C4 C3 1_555 1_555
H6 C4 1_555 1_555
C5 C4 1_555 1_555
H7 C5 1_555 1_555
C6 C1 1_555 1_555
H8 C6 1_555 1_555
C7 O3 1_555 1_555
C8 C3 1_555 1_555
C9 C10 1_555 1_555
C10 H9 1_555 1_555
C11 C10 1_555 1_555
C12 C11 1_555 1_555
H10 C12 1_555 1_555
C13 C12 1_555 1_555
H11 C13 1_555 1_555
C14 C9 1_555 1_555
H12 C14 1_555 1_555
C15 O11 1_555 1_555
C16 C11 1_555 1_555
C17 C18 1_555 1_555
C18 H13 1_555 1_555
C19 C18 1_555 1_555
C20 C19 1_555 1_555
H14 C20 1_555 1_555
C21 C20 1_555 1_555
H15 C21 1_555 1_555
C22 C17 1_555 1_555
H16 C22 1_555 1_555
C23 O7 1_555 1_555
C24 O10 1_555 1_555
Ce1A O9 1_555 1_555
Ce1C O5 1_555 1_555
Ce2A O7 1_555 1_555
Ce2A_2 O14 1_555 1_555
Ce2B O6 1_555 1_555
O5C Ce1 1_555 1_555
O6B Ce2 1_555 1_555
O7A Ce2 1_555 1_555
O8A Ce2 1_555 1_555
O9A Ce1 1_555 1_555
O13A Ce1 1_555 1_555
O14A Ce2 1_555 1_555
O8 Ce2A 1_555 1_555
O12 C15 1_555 1_555
O13 Ce1A 1_555 1_555
C1 C7 1_555 1_555
C5 C6 1_555 1_555
C9 C15 1_555 1_555
C13 C14 1_555 1_555
C17 C23 1_555 1_555
C19 C24 1_555 1_555
C21 C22 1_555 1_555
Ce1A O7A 1_555 1_555

#END
