
#######################################################################
#
#                 Cambridge Crystallographic Data Centre
#                                CCDC 
#
#######################################################################
#
# If this CIF has been generated from an entry in the Cambridge 
# Structural Database, then it will include bibliographic, chemical, 
# crystal, experimental, refinement or atomic coordinate data resulting 
# from the CCDC's data processing and validation procedures.
#
#######################################################################

data_YIRMUH
_symmetry_cell_setting           monoclinic
_symmetry_space_group_name_H-M   'P 21/n'
_symmetry_Int_Tables_number      14
_space_group_name_Hall           '-P 2yn'
loop_
_symmetry_equiv_pos_site_id
_symmetry_equiv_pos_as_xyz
1 x,y,z
2 1/2-x,1/2+y,1/2-z
3 -x,-y,-z
4 1/2+x,1/2-y,1/2+z
_cell_length_a                   9.185(1)
_cell_length_b                   11.477(4)
_cell_length_c                   7.917(3)
_cell_angle_alpha                90
_cell_angle_beta                 100.88(3)
_cell_angle_gamma                90
_cell_volume                     819.579
loop_
_atom_site_label
_atom_site_type_symbol
_atom_site_fract_x
_atom_site_fract_y
_atom_site_fract_z
Cu1 Cu 0.00783(6) 0.07507(5) 0.31720(7)
O1 O -0.1272(4) -0.0233(3) 0.1389(4)
N1 N 0.1272(4) 0.0817(4) 0.1413(5)
N2 N 0.1408(4) 0.2169(3) 0.4100(5)
N3 N -0.1268(4) 0.0767(4) 0.4816(5)
N4 N -0.2600(4) 0.0720(4) 0.4311(5)
N5 N -0.3864(5) 0.0689(5) 0.3886(7)
C1 C -0.0733(5) -0.0298(4) 0.0028(6)
C2 C 0.2594(5) 0.1548(4) 0.1659(7)
C3 C 0.2849(5) 0.1951(5) 0.3531(6)
C4 C 0.1681(6) 0.2301(5) 0.5994(7)
C5 C 0.0708(6) 0.3242(5) 0.3279(8)
H1 H 0.3546 0.1075 0.1479
H2 H 0.2279 0.2214 0.0833
H3 H 0.3379 0.1264 0.4271
H4 H 0.3350 0.2794 0.3683
H5 H 0.2275 0.2981 0.6296
H6 H 0.0704 0.2389 0.6246
H7 H 0.2371 0.1661 0.6417
H8 H -0.0207 0.3378 0.3696
H9 H 0.0561 0.3128 0.2058
H10 H 0.1271 0.3897 0.3592
N3B N 0.1268(4) -0.0767(4) 0.5184(5)
C1B C 0.0733(5) 0.0298(4) -0.0028(6)
Cu1B Cu -0.00783(6) -0.07507(5) 0.68280(7)
N1B N -0.1272(4) -0.0817(4) -0.1413(5)
N4B N 0.2600(4) -0.0720(4) 0.5689(5)
O1B O 0.1272(4) 0.0233(3) -0.1389(4)
Cu1B_2 Cu -0.00783(6) -0.07507(5) -0.31720(7)
C2B C -0.2594(5) -0.1548(4) -0.1659(7)
N5B N 0.3864(5) -0.0689(5) 0.6114(7)
C3B C -0.2849(5) -0.1951(5) -0.3531(6)
H1B H -0.3546 -0.1075 -0.1479
H2B H -0.2279 -0.2214 -0.0833
N2B N -0.1408(4) -0.2169(3) -0.4100(5)
N3_2 N -0.1268(4) 0.0767(4) -0.5184(5)
N3B_2 N 0.1268(4) -0.0767(4) -0.4816(5)
H3B H -0.3379 -0.1264 -0.4271
H4B H -0.3350 -0.2794 -0.3683
C4B C -0.1681(6) -0.2301(5) -0.5994(7)
C5B C -0.0708(6) -0.3242(5) -0.3279(8)
H5B H -0.2275 -0.2981 -0.6296
H6B H -0.0704 -0.2389 -0.6246
H7B H -0.2371 -0.1661 -0.6417
H8B H 0.0207 -0.3378 -0.3696
H9B H -0.0561 -0.3128 -0.2058
H10B H -0.1271 -0.3897 -0.3592
loop_
_geom_bond_atom_site_label_1
_geom_bond_atom_site_label_2
_geom_bond_site_symmetry_1
_geom_bond_site_symmetry_2
Cu1 O1 1_555 1_555
O1 C1 1_555 1_555
N1 Cu1 1_555 1_555
N2 Cu1 1_555 1_555
N3 Cu1 1_555 1_555
N4 N3 1_555 1_555
N5 N4 1_555 1_555
C1 C1B 1_555 1_555
C2 N1 1_555 1_555
C3 N2 1_555 1_555
C4 N2 1_555 1_555
C5 N2 1_555 1_555
H1 C2 1_555 1_555
H2 C2 1_555 1_555
H3 C3 1_555 1_555
H4 C3 1_555 1_555
H5 C4 1_555 1_555
H6 C4 1_555 1_555
H7 C4 1_555 1_555
H8 C5 1_555 1_555
H9 C5 1_555 1_555
H10 C5 1_555 1_555
N3B Cu1 1_555 1_555
C1B N1 1_555 1_555
Cu1B N3 1_555 1_555
N1B C1 1_555 1_555
N4B N3B 1_555 1_555
O1B C1B 1_555 1_555
Cu1B_2 N1B 1_555 1_555
C2B N1B 1_555 1_555
N5B N4B 1_555 1_555
C3B C2B 1_555 1_555
H1B C2B 1_555 1_555
H2B C2B 1_555 1_555
N2B Cu1B_2 1_555 1_555
N3_2 Cu1B_2 1_555 1_555
N3B_2 Cu1B_2 1_555 1_555
H3B C3B 1_555 1_555
H4B C3B 1_555 1_555
C4B N2B 1_555 1_555
C5B N2B 1_555 1_555
H5B C4B 1_555 1_555
H6B C4B 1_555 1_555
H7B C4B 1_555 1_555
H8B C5B 1_555 1_555
H9B C5B 1_555 1_555
H10B C5B 1_555 1_555
C2 C3 1_555 1_555
N3B Cu1B 1_555 1_555
O1B Cu1B_2 1_555 1_555
C3B N2B 1_555 1_555

#END
