
#######################################################################
#
#                 Cambridge Crystallographic Data Centre
#                                CCDC 
#
#######################################################################
#
# If this CIF has been generated from an entry in the Cambridge 
# Structural Database, then it will include bibliographic, chemical, 
# crystal, experimental, refinement or atomic coordinate data resulting 
# from the CCDC's data processing and validation procedures.
#
#######################################################################

data_YIRQOF01
_symmetry_cell_setting           triclinic
_symmetry_space_group_name_H-M   'P -1'
_symmetry_Int_Tables_number      2
_space_group_name_Hall           '-P 1'
loop_
_symmetry_equiv_pos_site_id
_symmetry_equiv_pos_as_xyz
1 x,y,z
2 -x,-y,-z
_cell_length_a                   4.8130(8)
_cell_length_b                   5.3483(9)
_cell_length_c                   13.7471(18)
_cell_angle_alpha                83.756(12)
_cell_angle_beta                 80.632(12)
_cell_angle_gamma                87.424(14)
_cell_volume                     346.945
loop_
_atom_site_label
_atom_site_type_symbol
_atom_site_fract_x
_atom_site_fract_y
_atom_site_fract_z
Mn1 Mn -1.0000 1.0000 -0.5000
O1 O -0.9370(3) 1.2909(2) -0.40799(9)
O2 O -0.6647(2) 0.76472(19) -0.44209(7)
O3 O -0.2929(2) 0.8501(2) -0.37407(8)
N1 N -0.5595(3) 0.7849(3) -0.18864(9)
H1 H -0.462(4) 0.918(4) -0.2002(15)
H2 H -0.429(4) 0.661(4) -0.1914(14)
C1 C -0.5451(3) 0.7981(2) -0.37018(9)
C2 C -0.7257(3) 0.7716(3) -0.26895(10)
H3 H -0.8700 0.9044 -0.2659
H4 H -0.8190 0.6117 -0.2592
C3 C -0.7336(4) 0.7681(4) -0.08879(13)
H5 H -0.8791 0.8971 -0.0872
H6 H -0.6169 0.7903 -0.0402
H7 H -0.8175 0.6061 -0.0743
H8 H -1.048(6) 1.304(5) -0.356(2)
H9 H -0.850(6) 1.411(6) -0.427(2)
O1A O -1.0630(3) 0.7091(2) -0.59201(9)
O2A O -1.3353(2) 1.23528(19) -0.55791(7)
O3A O -1.7071(2) 1.1499(2) -0.62593(8)
N1A N -1.4405(3) 1.2151(3) -0.81136(9)
H1A H -1.538(4) 1.082(4) -0.7998(15)
H2A H -1.571(4) 1.339(4) -0.8086(14)
C1A C -1.4549(3) 1.2019(2) -0.62982(9)
C2A C -1.2743(3) 1.2284(3) -0.73105(10)
H3A H -1.1300 1.0956 -0.7341
H4A H -1.1810 1.3883 -0.7408
C3A C -1.2664(4) 1.2319(4) -0.91121(13)
H5A H -1.1209 1.1029 -0.9128
H6A H -1.3831 1.2097 -0.9598
H7A H -1.1825 1.3939 -0.9257
H8A H -0.952(6) 0.696(5) -0.644(2)
H9A H -1.150(6) 0.589(6) -0.573(2)
Mn1_2 Mn -2.0000 1.0000 -0.5000
Mn1_3 Mn 0.0000 1.0000 -0.5000
O3_2 O -1.2929(2) 0.8501(2) -0.37407(8)
O3A_2 O -0.7071(2) 1.1499(2) -0.62593(8)
Cl1 Cl -0.23304(9) 0.27594(7) -0.17919(3)
loop_
_geom_bond_atom_site_label_1
_geom_bond_atom_site_label_2
_geom_bond_site_symmetry_1
_geom_bond_site_symmetry_2
Mn1 O1 1_555 1_555
O1 H8 1_555 1_555
O2 Mn1 1_555 1_555
O3 C1 1_555 1_555
N1 H1 1_555 1_555
H2 N1 1_555 1_555
C1 O2 1_555 1_555
C2 N1 1_555 1_555
H3 C2 1_555 1_555
H4 C2 1_555 1_555
C3 N1 1_555 1_555
H5 C3 1_555 1_555
H6 C3 1_555 1_555
H7 C3 1_555 1_555
H9 O1 1_555 1_555
O1A Mn1 1_555 1_555
O2A Mn1 1_555 1_555
O3A C1A 1_555 1_555
N1A H1A 1_555 1_555
H2A N1A 1_555 1_555
C1A O2A 1_555 1_555
C2A N1A 1_555 1_555
H3A C2A 1_555 1_555
H4A C2A 1_555 1_555
C3A N1A 1_555 1_555
H5A C3A 1_555 1_555
H6A C3A 1_555 1_555
H7A C3A 1_555 1_555
H8A O1A 1_555 1_555
H9A O1A 1_555 1_555
Mn1_2 O3A 1_555 1_555
Mn1_3 O3 1_555 1_555
O3_2 Mn1 1_555 1_555
O3A_2 Mn1 1_555 1_555
C1 C2 1_555 1_555
C1A C2A 1_555 1_555

#END
