
#######################################################################
#
#                 Cambridge Crystallographic Data Centre
#                                CCDC 
#
#######################################################################
#
# If this CIF has been generated from an entry in the Cambridge 
# Structural Database, then it will include bibliographic, chemical, 
# crystal, experimental, refinement or atomic coordinate data resulting 
# from the CCDC's data processing and validation procedures.
#
#######################################################################

data_YIRQOF
_symmetry_cell_setting           triclinic
_symmetry_space_group_name_H-M   'P -1'
_symmetry_Int_Tables_number      2
_space_group_name_Hall           '-P 1'
loop_
_symmetry_equiv_pos_site_id
_symmetry_equiv_pos_as_xyz
1 x,y,z
2 -x,-y,-z
_cell_length_a                   4.8220(4)
_cell_length_b                   5.3790(6)
_cell_length_c                   13.783(1)
_cell_angle_alpha                83.763(5)
_cell_angle_beta                 80.549(7)
_cell_angle_gamma                87.581(6)
_cell_volume                     350.449
loop_
_atom_site_label
_atom_site_type_symbol
_atom_site_fract_x
_atom_site_fract_y
_atom_site_fract_z
Mn1 Mn 0.5000 0.5000 0.0000
O1 O 0.2089(8) 0.3510(8) 0.1257(3)
O2 O -0.1653(8) 0.2646(7) 0.0578(3)
O3 O 0.4367(11) 0.2086(8) -0.0921(3)
H1 H 0.502(17) 0.212(14) -0.156(6)
H2 H 0.29(2) 0.092(19) -0.072(7)
N1 N -0.0589(11) 0.2853(9) 0.3113(3)
H3 H 0.0330 0.4304 0.3006
H4 H 0.0707 0.1597 0.3098
C1 C -0.0438(11) 0.2987(9) 0.1299(4)
C2 C -0.2236(12) 0.2710(12) 0.2311(4)
H5 H -0.3685 0.4019 0.2342
H6 H -0.3158 0.1114 0.2407
C3 C -0.2337(18) 0.2695(16) 0.4111(5)
H7 H -0.3567 0.4142 0.4161
H8 H -0.1138 0.2626 0.4605
H9 H -0.3436 0.1215 0.4212
O1A O 0.7911(8) 0.6490(8) -0.1257(3)
O2A O 1.1653(8) 0.7354(7) -0.0578(3)
N1A N 1.0589(11) 0.7147(9) -0.3113(3)
H3A H 0.9670 0.5696 -0.3006
H4A H 0.9293 0.8403 -0.3098
C1A C 1.0438(11) 0.7013(9) -0.1299(4)
C2A C 1.2236(12) 0.7290(12) -0.2311(4)
H5A H 1.3685 0.5981 -0.2342
H6A H 1.3158 0.8886 -0.2407
C3A C 1.2337(18) 0.7305(16) -0.4111(5)
H7A H 1.3567 0.5858 -0.4161
H8A H 1.1138 0.7374 -0.4605
H9A H 1.3436 0.8785 -0.4212
O3A O 0.5633(11) 0.7914(8) 0.0921(3)
H1A H 0.498(17) 0.788(14) 0.156(6)
H2A H 0.71(2) 0.908(19) 0.072(7)
O2_2 O 0.8347(8) 0.2646(7) 0.0578(3)
O2A_2 O 0.1653(8) 0.7354(7) -0.0578(3)
Mn1_2 Mn -0.5000 0.5000 0.0000
Mn1_3 Mn 1.5000 0.5000 0.0000
Cl1 Cl 0.2681(4) -0.2240(3) 0.32072(11)
loop_
_geom_bond_atom_site_label_1
_geom_bond_atom_site_label_2
_geom_bond_site_symmetry_1
_geom_bond_site_symmetry_2
Mn1 O1 1_555 1_555
O1 C1 1_555 1_555
O2 C1 1_555 1_555
O3 Mn1 1_555 1_555
H1 O3 1_555 1_555
H2 O3 1_555 1_555
N1 H3 1_555 1_555
H4 N1 1_555 1_555
C1 C2 1_555 1_555
C2 N1 1_555 1_555
H5 C2 1_555 1_555
H6 C2 1_555 1_555
C3 N1 1_555 1_555
H7 C3 1_555 1_555
H8 C3 1_555 1_555
H9 C3 1_555 1_555
O1A Mn1 1_555 1_555
O2A C1A 1_555 1_555
N1A H3A 1_555 1_555
H4A N1A 1_555 1_555
C1A O1A 1_555 1_555
C2A N1A 1_555 1_555
H5A C2A 1_555 1_555
H6A C2A 1_555 1_555
C3A N1A 1_555 1_555
H7A C3A 1_555 1_555
H8A C3A 1_555 1_555
H9A C3A 1_555 1_555
O3A Mn1 1_555 1_555
H1A O3A 1_555 1_555
H2A O3A 1_555 1_555
O2_2 Mn1 1_555 1_555
O2A_2 Mn1 1_555 1_555
Mn1_2 O2 1_555 1_555
Mn1_3 O2A 1_555 1_555
C1A C2A 1_555 1_555

#END
