
#######################################################################
#
#                 Cambridge Crystallographic Data Centre
#                                CCDC 
#
#######################################################################
#
# If this CIF has been generated from an entry in the Cambridge 
# Structural Database, then it will include bibliographic, chemical, 
# crystal, experimental, refinement or atomic coordinate data resulting 
# from the CCDC's data processing and validation procedures.
#
#######################################################################

data_YIRTOK
_symmetry_cell_setting           triclinic
_symmetry_space_group_name_H-M   'P -1'
_symmetry_Int_Tables_number      2
_space_group_name_Hall           '-P 1'
loop_
_symmetry_equiv_pos_site_id
_symmetry_equiv_pos_as_xyz
1 x,y,z
2 -x,-y,-z
_cell_length_a                   9.9643(5)
_cell_length_b                   11.9760(6)
_cell_length_c                   12.4981(7)
_cell_angle_alpha                67.931(5)
_cell_angle_beta                 76.363(5)
_cell_angle_gamma                80.105(4)
_cell_volume                     1337.44
loop_
_atom_site_label
_atom_site_type_symbol
_atom_site_fract_x
_atom_site_fract_y
_atom_site_fract_z
N13 N 0.1286(5) 0.1860(5) 1.3079(5)
C22 C 0.0485(7) 0.0808(7) 1.3286(7)
H10 H -0.0155 0.1059 1.2755
H11 H -0.0018 0.0546 1.4081
H12 H 0.1119 0.0152 1.3154
C23 C 0.2252(8) 0.1571(7) 1.3885(7)
H13 H 0.2719 0.2271 1.3720
H14 H 0.2921 0.0921 1.3784
H15 H 0.1748 0.1330 1.4680
Cd1 Cd 0.25100(3) 1.22737(3) 0.97504(3)
Cd2 Cd 0.52145(3) 1.28880(3) 0.67102(3)
O1 O 0.4985(3) 1.4593(3) 0.7100(3)
O2 O -0.0600(3) 1.6835(3) 0.9395(3)
O3 O 0.2958(3) 1.3871(3) 0.7978(3)
O4 O 0.0082(3) 1.8047(3) 1.0083(3)
O5 O 0.5149(3) 1.7640(3) 1.0273(3)
C1 C 0.3820(5) 1.4614(4) 0.7765(4)
C2 C 0.4259(5) 1.6876(4) 0.9095(4)
C3 C 0.3479(5) 1.5569(4) 0.8315(4)
O6 O 0.6624(3) 1.7166(3) 0.8853(3)
C4 C 0.2109(5) 1.5952(4) 0.8697(4)
H1 H 0.1386 1.5620 0.8602
C5 C 0.1816(5) 1.6829(4) 0.9219(4)
C6 C 0.0344(5) 1.7265(4) 0.9590(4)
C7 C 0.2899(5) 1.7266(4) 0.9437(4)
H2 H 0.2699 1.7827 0.9817
C8 C 0.5415(5) 1.7272(4) 0.9416(4)
C9 C 0.4543(5) 1.6058(4) 0.8505(4)
H3 H 0.5460 1.5830 0.8230
O7 O 0.4140(4) 1.3749(3) 0.5096(3)
Cd3 Cd 0.0000 2.0000 1.0000
N1 N 0.1902(4) 1.0505(3) 0.8504(4)
N2 N 0.2714(4) 1.1350(3) 0.8335(3)
N3 N 0.3675(4) 1.1434(3) 0.7380(4)
C10 C 0.4066(6) 0.9240(5) 0.5847(5)
H4 H 0.3440 0.8725 0.6412
C11 C 0.4254(5) 1.0306(4) 0.5961(5)
C12 C 0.4812(6) 0.8945(5) 0.4891(5)
H5 H 0.4682 0.8227 0.4821
N4 N 0.2310(4) 1.0021(4) 0.7662(4)
C13 C 0.3408(5) 1.0601(4) 0.6972(4)
N5 N 0.8385(4) 1.0531(4) 0.8738(4)
N6 N 1.0768(4) 1.6795(4) 0.5957(4)
N7 N 0.6407(4) 1.0331(3) 0.8392(3)
N8 N 0.7428(4) 0.9755(4) 0.8947(4)
N9 N 1.2788(4) 1.6729(4) 0.4846(4)
N10 N 1.2359(4) 1.5625(4) 0.5246(4)
N11 N 1.1831(4) 1.7455(4) 0.5262(4)
C14 C 0.7901(5) 1.1596(4) 0.8017(4)
C15 C 1.0760(5) 1.3561(5) 0.6330(5)
H6 H 1.1637 1.3486 0.5882
C16 C 1.0258(5) 1.4655(4) 0.6485(4)
C17 C 0.8670(5) 1.2684(4) 0.7485(4)
C18 C 0.9980(5) 1.2580(4) 0.6827(4)
H7 H 1.0336 1.1851 0.6720
C19 C 1.1115(5) 1.5680(4) 0.5919(4)
C20 C 0.8935(5) 1.4751(5) 0.7143(5)
H8 H 0.8575 1.5478 0.7255
C21 C 0.8151(5) 1.3767(4) 0.7633(5)
H9 H 0.7265 1.3841 0.8066
N12 N 0.6688(4) 1.1488(3) 0.7788(3)
N1A N 0.8098(4) 0.9495(3) 0.1496(4)
N2A N 0.7286(4) 0.8650(3) 0.1665(3)
N3A N 0.6325(4) 0.8566(3) 0.2620(4)
C10A C 0.5934(6) 1.0760(5) 0.4153(5)
H4A H 0.6560 1.1275 0.3588
C11A C 0.5746(5) 0.9694(4) 0.4039(5)
C12A C 0.5188(6) 1.1055(5) 0.5109(5)
H5A H 0.5318 1.1773 0.5179
N4A N 0.7690(4) 0.9979(4) 0.2338(4)
C13A C 0.6592(5) 0.9399(4) 0.3028(4)
Cd1A Cd -0.25100(3) 1.77263(3) 1.02496(3)
Cd2A Cd -0.52145(3) 1.71120(3) 1.32898(3)
O1A O -0.4985(3) 1.5407(3) 1.2900(3)
O2A O 0.0600(3) 1.3165(3) 1.0605(3)
O3A O -0.2958(3) 1.6129(3) 1.2022(3)
O4A O -0.0082(3) 1.1953(3) 0.9917(3)
O5A O -0.5149(3) 1.2360(3) 0.9727(3)
C1A C -0.3820(5) 1.5386(4) 1.2235(4)
C2A C -0.4259(5) 1.3124(4) 1.0905(4)
C3A C -0.3479(5) 1.4431(4) 1.1685(4)
O6A O -0.6624(3) 1.2834(3) 1.1147(3)
C4A C -0.2109(5) 1.4048(4) 1.1303(4)
H1A H -0.1386 1.4380 1.1398
C5A C -0.1816(5) 1.3171(4) 1.0781(4)
C6A C -0.0344(5) 1.2735(4) 1.0410(4)
C7A C -0.2899(5) 1.2734(4) 1.0563(4)
H2A H -0.2699 1.2173 1.0183
C8A C -0.5415(5) 1.2728(4) 1.0584(4)
C9A C -0.4543(5) 1.3942(4) 1.1495(4)
H3A H -0.5460 1.4170 1.1770
O7A O -0.4140(4) 1.6251(3) 1.4904(3)
N5A N -0.8385(4) 1.9469(4) 1.1262(4)
N6A N -1.0768(4) 1.3205(4) 1.4043(4)
N7A N -0.6407(4) 1.9669(3) 1.1608(3)
N8A N -0.7428(4) 2.0245(4) 1.1053(4)
N9A N -1.2788(4) 1.3271(4) 1.5154(4)
N10A N -1.2359(4) 1.4375(4) 1.4754(4)
N11A N -1.1831(4) 1.2545(4) 1.4738(4)
C14A C -0.7901(5) 1.8404(4) 1.1983(4)
C15A C -1.0760(5) 1.6439(5) 1.3670(5)
H6A H -1.1637 1.6514 1.4118
C16A C -1.0258(5) 1.5345(4) 1.3515(4)
C17A C -0.8670(5) 1.7316(4) 1.2515(4)
C18A C -0.9980(5) 1.7420(4) 1.3173(4)
H7A H -1.0336 1.8149 1.3280
C19A C -1.1115(5) 1.4320(4) 1.4081(4)
C20A C -0.8935(5) 1.5249(5) 1.2857(5)
H8A H -0.8575 1.4522 1.2745
C21A C -0.8151(5) 1.6233(4) 1.2367(5)
H9A H -0.7265 1.6159 1.1934
N12A N -0.6688(4) 1.8512(3) 1.2212(3)
Cd1_2 Cd -0.74900(3) 1.22737(3) 0.97504(3)
Cd1_3 Cd -0.74900(3) 2.22737(3) 0.97504(3)
Cd1A_2 Cd 0.74900(3) 0.77263(3) 0.02496(3)
Cd1A_3 Cd 0.74900(3) 0.77263(3) 1.02496(3)
Cd1A_4 Cd 0.74900(3) 1.77263(3) 1.02496(3)
Cd2_2 Cd -1.47855(3) 1.28880(3) 1.67102(3)
Cd2A_2 Cd 0.47855(3) 0.71120(3) 0.32898(3)
Cd2A_3 Cd 1.47855(3) 1.71120(3) 0.32898(3)
O4A_2 O -0.0082(3) 2.1953(3) 0.9917(3)
O5_2 O -0.4851(3) 1.7640(3) 1.0273(3)
O5A_2 O 0.4851(3) 1.2360(3) 0.9727(3)
O6_2 O -0.3376(3) 1.7166(3) 0.8853(3)
O6A_2 O 0.3376(3) 1.2834(3) 1.1147(3)
Cd3_2 Cd -1.0000 2.0000 1.0000
Cd3_3 Cd 0.0000 1.0000 1.0000
Cd3_4 Cd 1.0000 1.0000 0.0000
Cd3_5 Cd 1.0000 1.0000 1.0000
N1_2 N 0.1902(4) 2.0505(3) 0.8504(4)
N1A_2 N -0.1902(4) 1.9495(3) 1.1496(4)
N2A_2 N -0.2714(4) 1.8650(3) 1.1665(3)
N3A_2 N -0.3675(4) 1.8566(3) 1.2620(4)
N5_2 N -0.1615(4) 2.0531(4) 0.8738(4)
N5A_2 N 0.1615(4) 1.9469(4) 1.1262(4)
N8_2 N -0.2572(4) 1.9755(4) 0.8947(4)
N8A_2 N 0.2572(4) 1.0245(4) 1.1053(4)
N9_2 N -0.7212(4) 1.6729(4) 1.4846(4)
N9A_2 N 0.7212(4) 1.3271(4) 0.5154(4)
loop_
_geom_bond_atom_site_label_1
_geom_bond_atom_site_label_2
_geom_bond_site_symmetry_1
_geom_bond_site_symmetry_2
Cd1 O3 1_555 1_555
Cd2 O1 1_555 1_555
O1 C1 1_555 1_555
O2 C6 1_555 1_555
O3 Cd2 1_555 1_555
O4 C6 1_555 1_555
O5 C8 1_555 1_555
C1 O3 1_555 1_555
C2 C7 1_555 1_555
C3 C1 1_555 1_555
O6 C8 1_555 1_555
C4 C3 1_555 1_555
H1 C4 1_555 1_555
C5 C4 1_555 1_555
C6 C5 1_555 1_555
C7 C5 1_555 1_555
H2 C7 1_555 1_555
C8 C2 1_555 1_555
C9 C2 1_555 1_555
H3 C9 1_555 1_555
O7 Cd2 1_555 1_555
Cd3 O4 1_555 1_555
N1 N2 1_555 1_555
N2 Cd1 1_555 1_555
N3 Cd2 1_555 1_555
C10 H4 1_555 1_555
C11 C10 1_555 1_555
C12 C10 1_555 1_555
H5 C12 1_555 1_555
N4 N1 1_555 1_555
C13 N3 1_555 1_555
N5 N8 1_555 1_555
N6 N11 1_555 1_555
N7 N8 1_555 1_555
N8 Cd1A_3 1_555 1_555
N9 N10 1_555 1_555
N10 C19 1_555 1_555
N11 N9 1_555 1_555
C14 N5 1_555 1_555
C15 H6 1_555 1_555
C16 C15 1_555 1_555
C17 C14 1_555 1_555
C18 C15 1_555 1_555
H7 C18 1_555 1_555
C19 N6 1_555 1_555
C20 C16 1_555 1_555
H8 C20 1_555 1_555
C21 C17 1_555 1_555
H9 C21 1_555 1_555
N12 Cd2 1_555 1_555
N13 C22 1_555 1_555
C22 H10 1_555 1_555
H11 C22 1_555 1_555
H12 C22 1_555 1_555
C23 N13 1_555 1_555
H13 C23 1_555 1_555
H14 C23 1_555 1_555
H15 C23 1_555 1_555
N1A N2A 1_555 1_555
N2A N3A 1_555 1_555
N3A C13A 1_555 1_555
C10A H4A 1_555 1_555
C11A C12 1_555 1_555
C12A C11 1_555 1_555
H5A C12A 1_555 1_555
N4A N1A 1_555 1_555
C13A C11A 1_555 1_555
Cd1A O2 1_555 1_555
Cd2A O1A 1_555 1_555
O1A C1A 1_555 1_555
O2A Cd1 1_555 1_555
O3A Cd1A 1_555 1_555
O4A Cd1 1_555 1_555
O5A C8A 1_555 1_555
C1A O3A 1_555 1_555
C2A C7A 1_555 1_555
C3A C1A 1_555 1_555
O6A C8A 1_555 1_555
C4A C3A 1_555 1_555
H1A C4A 1_555 1_555
C5A C4A 1_555 1_555
C6A O2A 1_555 1_555
C7A C5A 1_555 1_555
H2A C7A 1_555 1_555
C8A C2A 1_555 1_555
C9A C2A 1_555 1_555
H3A C9A 1_555 1_555
O7A Cd2A 1_555 1_555
N5A N8A 1_555 1_555
N6A N11A 1_555 1_555
N7A N8A 1_555 1_555
N8A Cd1_3 1_555 1_555
N9A N10A 1_555 1_555
N10A C19A 1_555 1_555
N11A N9A 1_555 1_555
C14A N5A 1_555 1_555
C15A H6A 1_555 1_555
C16A C15A 1_555 1_555
C17A C14A 1_555 1_555
C18A C15A 1_555 1_555
H7A C18A 1_555 1_555
C19A N6A 1_555 1_555
C20A C16A 1_555 1_555
H8A C20A 1_555 1_555
C21A C17A 1_555 1_555
H9A C21A 1_555 1_555
N12A Cd2A 1_555 1_555
Cd1_2 O5A 1_555 1_555
Cd1A_2 N2A 1_555 1_555
Cd1A_4 O5 1_555 1_555
Cd2_2 N9A 1_555 1_555
Cd2A_2 N3A 1_555 1_555
Cd2A_3 N9 1_555 1_555
O4A_2 Cd3 1_555 1_555
O5_2 Cd1A 1_555 1_555
O5A_2 Cd1 1_555 1_555
O6_2 Cd1A 1_555 1_555
O6A_2 Cd1 1_555 1_555
Cd3_2 N5A 1_555 1_555
Cd3_3 N1 1_555 1_555
Cd3_4 N1A 1_555 1_555
Cd3_5 N5 1_555 1_555
N1_2 Cd3 1_555 1_555
N1A_2 Cd3 1_555 1_555
N2A_2 Cd1A 1_555 1_555
N3A_2 Cd2A 1_555 1_555
N5_2 Cd3 1_555 1_555
N5A_2 Cd3 1_555 1_555
N8_2 Cd1A 1_555 1_555
N8A_2 Cd1 1_555 1_555
N9_2 Cd2A 1_555 1_555
N9A_2 Cd2 1_555 1_555
O4 Cd1A 1_555 1_555
C3 C9 1_555 1_555
O6 Cd1A_4 1_555 1_555
N2 N3 1_555 1_555
C11 C13 1_555 1_555
N4 C13 1_555 1_555
N7 N12 1_555 1_555
C14 N12 1_555 1_555
C16 C19 1_555 1_555
C17 C18 1_555 1_555
C20 C21 1_555 1_555
C10A C11A 1_555 1_555
C10A C12A 1_555 1_555
N4A C13A 1_555 1_555
Cd2A O3A 1_555 1_555
O4A C6A 1_555 1_555
O4A Cd3_3 1_555 1_555
C3A C9A 1_555 1_555
O6A Cd1_2 1_555 1_555
C5A C6A 1_555 1_555
N7A N12A 1_555 1_555
C14A N12A 1_555 1_555
C16A C19A 1_555 1_555
C17A C18A 1_555 1_555
C20A C21A 1_555 1_555
N1A_2 N2A_2 1_555 1_555
N2A_2 N3A_2 1_555 1_555
N5_2 N8_2 1_555 1_555

#END
