
#######################################################################
#
#                 Cambridge Crystallographic Data Centre
#                                CCDC 
#
#######################################################################
#
# If this CIF has been generated from an entry in the Cambridge 
# Structural Database, then it will include bibliographic, chemical, 
# crystal, experimental, refinement or atomic coordinate data resulting 
# from the CCDC's data processing and validation procedures.
#
#######################################################################

data_YIRZAC
_symmetry_cell_setting           triclinic
_symmetry_space_group_name_H-M   'P -1'
_symmetry_Int_Tables_number      2
_space_group_name_Hall           '-P 1'
loop_
_symmetry_equiv_pos_site_id
_symmetry_equiv_pos_as_xyz
1 x,y,z
2 -x,-y,-z
_cell_length_a                   12.0876(5)
_cell_length_b                   13.9694(5)
_cell_length_c                   17.0235(6)
_cell_angle_alpha                91.703(3)
_cell_angle_beta                 110.084(3)
_cell_angle_gamma                100.902(3)
_cell_volume                     2637
loop_
_atom_site_label
_atom_site_type_symbol
_atom_site_fract_x
_atom_site_fract_y
_atom_site_fract_z
Cd1 Cd 1.25939(3) 0.72026(2) 0.253600(19)
Cd2 Cd 0.91584(3) 0.60155(2) 0.13325(2)
Cd3 Cd 1.40801(3) 1.14892(2) 0.63400(2)
Cd4 Cd 0.87024(3) 0.31269(2) 0.15817(2)
Cd5 Cd 0.63400(3) 1.12195(3) 0.36626(2)
C1 C 1.1701(4) 0.4029(3) 0.2315(3)
C2 C 0.7989(4) 1.0264(3) 0.3368(3)
C3 C 0.2912(4) 0.5721(3) -0.1595(3)
C4 C 1.0165(4) 1.0291(3) 0.4047(3)
H1 H 1.0232 1.0878 0.4349
C5 C 0.4608(4) 0.3099(3) -0.2552(3)
C6 C 0.8975(4) 0.8970(3) 0.2991(3)
H2 H 0.8232 0.8650 0.2605
C7 C 1.1173(4) 0.9882(3) 0.4200(3)
C8 C 0.6040(4) 0.5199(3) -0.0824(3)
C9 C 1.2084(4) 0.7487(3) 0.0477(3)
C10 C 1.1012(5) 0.7108(4) 0.4755(3)
H3 H 1.1244 0.7736 0.5033
C11 C 0.3782(4) 0.4380(3) -0.2010(3)
H4 H 0.3016 0.4084 -0.2380
C12 C 1.2321(4) 1.0335(4) 0.4896(3)
C13 C 0.9900(5) 0.7664(3) 0.2567(3)
C14 C 0.9991(4) 0.8575(3) 0.3104(3)
C15 C 0.4766(4) 0.3973(3) -0.1957(3)
C16 C 0.7225(5) 0.5555(4) -0.0115(3)
C17 C 1.2883(4) 0.1341(4) 0.2660(3)
C18 C 1.1074(4) 0.9026(3) 0.3719(3)
H5 H 1.1746 0.8752 0.3813
C19 C 0.5076(4) 0.5647(3) -0.0925(3)
H6 H 0.5188 0.6228 -0.0599
C20 C 0.5879(4) 0.4372(3) -0.1362(3)
H7 H 0.6531 0.4088 -0.1319
C21 C 0.3955(4) 0.5237(3) -0.1504(3)
C22 C 0.9071(4) 0.9842(3) 0.3455(3)
C23 C 1.5308(5) 0.8404(4) 0.0630(3)
H8 H 1.5927 0.8163 0.0542
C24 C 1.3032(4) 0.7270(3) 0.4619(3)
C25 C 0.8263(5) 0.5083(4) 0.3969(3)
C26 C 1.1832(4) 0.6716(3) 0.4511(3)
C27 C 1.3293(4) 0.0405(3) 0.2765(3)
C28 C 1.2083(4) 0.3086(4) 0.2434(3)
C29 C 1.0310(4) 0.5242(4) 0.3929(3)
H9 H 1.0078 0.4611 0.3655
C30 C 1.6652(4) 1.0056(4) 0.1089(3)
C31 C 1.3275(4) 0.8127(4) 0.0612(3)
C32 C 1.5506(4) 0.9386(4) 0.0933(3)
C33 C 1.4185(5) 0.7785(4) 0.0460(3)
H10 H 1.4051 0.7137 0.0242
C34 C 1.3468(5) 0.9105(4) 0.0912(3)
H11 H 1.2853 0.9344 0.1009
C35 C 1.1346(6) 0.2228(5) 0.2475(6)
H12 H 1.0558 0.2229 0.2433
C36 C 0.9490(4) 0.5651(4) 0.4164(3)
C37 C 1.1460(5) 0.5770(4) 0.4102(3)
H13 H 1.2002 0.5491 0.3944
C38 C 1.4579(5) 0.9724(4) 0.1067(3)
H14 H 1.4700 1.0377 0.1264
C39 C 0.9861(5) 0.6579(4) 0.4591(3)
H15 H 0.9328 0.6848 0.4768
C40 C 1.3624(5) 0.2188(4) 0.2660(3)
H16 H 1.4428 0.2194 0.2746
C41 C 1.3219(5) 0.3057(4) 0.2534(3)
H17 H 1.3748 0.3628 0.2520
C42 C 1.1747(6) 0.1369(4) 0.2577(5)
H18 H 1.1221 0.0795 0.2589
N1 N 0.6680(4) 0.3938(3) 0.3517(3)
N2 N 1.0659(3) 0.5120(3) 0.1980(2)
N3 N 1.4437(3) 0.0310(3) 0.3108(2)
N4 N 1.2486(4) 0.4881(3) 0.2502(3)
N5 N 1.1803(3) 0.5544(3) 0.2273(2)
N6 N 1.4648(3) 0.7840(3) 0.4383(2)
N7 N 1.3530(3) 0.7259(3) 0.4029(2)
N8 N 1.0560(3) 0.4157(3) 0.2003(2)
N9 N 1.0301(3) 0.6601(3) -0.0103(2)
N10 N 1.0540(3) 0.6711(3) 0.0701(2)
N11 N 0.7833(4) 0.4187(3) 0.3564(3)
N12 N 1.1671(3) 0.7261(3) 0.1091(2)
N13 N 1.6927(4) 1.0991(3) 0.1411(3)
N14 N 1.4812(4) 0.8191(3) 0.5141(2)
N15 N 1.4380(3) -0.0653(3) 0.3092(2)
N16 N 1.3256(3) -0.1109(3) 0.2757(2)
N17 N 1.1262(3) 0.7079(3) -0.0266(2)
N18 N 1.7604(4) 0.9854(3) 0.0929(3)
N19 N 1.3803(4) 0.7846(3) 0.5303(2)
N20 N 1.8051(4) 1.1352(3) 0.1420(3)
N21 N 0.7379(4) 0.5367(3) 0.4159(3)
N22 N 1.8467(4) 1.0678(3) 0.1134(3)
N23 N 0.6391(4) 0.4633(4) 0.3870(3)
N24 N 1.2541(3) -0.0462(3) 0.2539(2)
O1 O 0.6940(3) 0.9744(2) 0.30609(19)
O2 O 0.8185(3) 1.1159(2) 0.3654(2)
O3 O 0.5504(3) 0.2735(2) -0.2513(2)
O4 O 0.1848(3) 0.5241(2) -0.1881(2)
O5 O 1.0815(3) 0.7325(2) 0.2670(2)
O6 O 0.3160(3) 0.6639(2) -0.1385(2)
O7 O 1.3110(3) 0.9839(3) 0.5205(2)
O8 O 0.8892(3) 0.7277(3) 0.2032(2)
O9 O 0.3584(3) 0.2733(3) -0.3073(2)
O10 O 1.2435(3) 1.1211(2) 0.5188(2)
O11 O 0.7934(3) 0.4989(3) 0.0104(2)
O12 O 0.7430(3) 0.6390(3) 0.0268(2)
O13 O 0.8992(3) 0.2887(3) 0.2977(2)
H19 H 0.8798 0.2267 0.3032
H20 H 0.8546 0.3194 0.3155
O14 O 0.6085(4) 1.1978(3) 0.2461(2)
H21 H 0.6155 1.2590 0.2576
H22 H 0.5385 1.1742 0.2101
Cd1_2 Cd 1.25939(3) -0.27974(2) 0.253600(19)
Cd1A Cd 0.74061(3) 0.27974(2) -0.253600(19)
Cd2A Cd 0.08416(3) 0.39845(2) -0.13325(2)
Cd3_2 Cd 0.40801(3) 0.14892(2) -0.36600(2)
Cd3A Cd 0.59199(3) 0.85108(2) 0.36600(2)
Cd3A_2 Cd 1.59199(3) -0.14892(2) 0.36600(2)
Cd3A_3 Cd 1.59199(3) 0.85108(2) 0.36600(2)
Cd4_2 Cd 1.87024(3) 1.31269(2) 0.15817(2)
Cd4A Cd 0.12976(3) 0.68731(2) -0.15817(2)
Cd4A_2 Cd 1.12976(3) 0.68731(2) -0.15817(2)
Cd5_2 Cd 1.63400(3) 0.12195(3) 0.36626(2)
Cd5A Cd 1.36600(3) 0.87805(3) 0.63374(2)
N3_2 N 0.4437(3) 1.0310(3) 0.3108(2)
N6A N 1.5352(3) 1.2160(3) 0.5617(2)
N15A N 1.5620(3) 1.0653(3) 0.6908(2)
N16_2 N 1.3256(3) 0.8891(3) 0.2757(2)
N17A N 0.8738(3) 0.2921(3) 0.0266(2)
N19A N 0.6197(4) 1.2154(3) 0.4697(2)
N20_2 N 0.8051(4) 0.1352(3) 0.1420(3)
O1A O 1.3060(3) 1.0256(2) 0.69391(19)
O3_2 O 1.5504(3) 1.2735(2) 0.7487(2)
O3A O 1.4496(3) 0.7265(2) 0.2513(2)
O4A O 0.8152(3) 0.4759(2) 0.1881(2)
O6A O 0.6840(3) 0.3361(2) 0.1385(2)
O7A O 0.6890(3) 1.0161(3) 0.4795(2)
O9_2 O 1.3584(3) 1.2733(3) 0.6927(2)
loop_
_geom_bond_atom_site_label_1
_geom_bond_atom_site_label_2
_geom_bond_site_symmetry_1
_geom_bond_site_symmetry_2
Cd1 N5 1_555 1_555
Cd2 N2 1_555 1_555
Cd3 O7 1_555 1_555
Cd4 N8 1_555 1_555
Cd5 O1 1_555 1_555
C1 C28 1_555 1_555
C2 C22 1_555 1_555
C3 C21 1_555 1_555
C4 H1 1_555 1_555
C5 C15 1_555 1_555
C6 H2 1_555 1_555
C7 C4 1_555 1_555
C8 C16 1_555 1_555
C9 C31 1_555 1_555
C10 H3 1_555 1_555
C11 H4 1_555 1_555
C12 C7 1_555 1_555
C13 C14 1_555 1_555
C14 C6 1_555 1_555
C15 C11 1_555 1_555
C16 O11 1_555 1_555
C17 C27 1_555 1_555
C18 C7 1_555 1_555
H5 C18 1_555 1_555
C19 C8 1_555 1_555
H6 C19 1_555 1_555
C20 C8 1_555 1_555
H7 C20 1_555 1_555
C21 C11 1_555 1_555
C22 C4 1_555 1_555
C23 H8 1_555 1_555
C24 C26 1_555 1_555
C25 C36 1_555 1_555
C26 C10 1_555 1_555
C27 N3 1_555 1_555
C28 C35 1_555 1_555
C29 H9 1_555 1_555
C30 C32 1_555 1_555
C31 C33 1_555 1_555
C32 C23 1_555 1_555
C33 C23 1_555 1_555
H10 C33 1_555 1_555
C34 C31 1_555 1_555
H11 C34 1_555 1_555
C35 H12 1_555 1_555
C36 C29 1_555 1_555
C37 C26 1_555 1_555
H13 C37 1_555 1_555
C38 C32 1_555 1_555
H14 C38 1_555 1_555
C39 C10 1_555 1_555
H15 C39 1_555 1_555
C40 C17 1_555 1_555
H16 C40 1_555 1_555
C41 C28 1_555 1_555
H17 C41 1_555 1_555
C42 C17 1_555 1_555
H18 C42 1_555 1_555
N1 N11 1_555 1_555
N2 N5 1_555 1_555
N3 N15 1_555 1_555
N4 C1 1_555 1_555
N5 N4 1_555 1_555
N6 N7 1_555 1_555
N7 Cd1 1_555 1_555
N8 C1 1_555 1_555
N9 N10 1_555 1_555
N10 Cd2 1_555 1_555
N11 C25 1_555 1_555
N12 Cd1 1_555 1_555
N13 C30 1_555 1_555
N14 N6 1_555 1_555
N15 N16 1_555 1_555
N16 N24 1_555 1_555
N17 C9 1_555 1_555
N18 C30 1_555 1_555
N19 C24 1_555 1_555
N20 N13 1_555 1_555
N21 C25 1_555 1_555
N22 N18 1_555 1_555
N23 N1 1_555 1_555
N24 C27 1_555 1_555
O1 C2 1_555 1_555
O2 Cd5 1_555 1_555
O3 C5 1_555 1_555
O4 C3 1_555 1_555
O5 Cd1 1_555 1_555
O6 C3 1_555 1_555
O7 C12 1_555 1_555
O8 Cd2 1_555 1_555
O9 C5 1_555 1_555
O10 Cd3 1_555 1_555
O11 Cd2 1_555 1_555
O12 Cd2 1_555 1_555
O13 Cd4 1_555 1_555
H19 O13 1_555 1_555
H20 O13 1_555 1_555
O14 Cd5 1_555 1_555
H21 O14 1_555 1_555
H22 O14 1_555 1_555
Cd1_2 N16 1_555 1_555
Cd1A O3 1_555 1_555
Cd2A O4 1_555 1_555
Cd3_2 O3 1_555 1_555
Cd3A O1 1_555 1_555
Cd3A_2 N15 1_555 1_555
Cd3A_3 N6 1_555 1_555
Cd4_2 N20 1_555 1_555
Cd4A O4 1_555 1_555
Cd4A_2 N17 1_555 1_555
Cd5_2 N3 1_555 1_555
Cd5A N19 1_555 1_555
N3_2 Cd5 1_555 1_555
N6A Cd3 1_555 1_555
N15A Cd3 1_555 1_555
N16_2 Cd1 1_555 1_555
N17A Cd4 1_555 1_555
N19A Cd5 1_555 1_555
N20_2 Cd4 1_555 1_555
O1A Cd3 1_555 1_555
O3_2 Cd3 1_555 1_555
O3A Cd1 1_555 1_555
O4A Cd2 1_555 1_555
O6A Cd4 1_555 1_555
O7A Cd5 1_555 1_555
O9_2 Cd3 1_555 1_555
Cd2 O5 1_555 1_555
Cd4 O4A 1_555 1_555
C2 O2 1_555 1_555
C6 C22 1_555 1_555
C9 N12 1_555 1_555
C12 O10 1_555 1_555
C13 O5 1_555 1_555
C13 O8 1_555 1_555
C14 C18 1_555 1_555
C15 C20 1_555 1_555
C16 O12 1_555 1_555
C19 C21 1_555 1_555
C24 N7 1_555 1_555
C29 C37 1_555 1_555
C34 C38 1_555 1_555
C35 C42 1_555 1_555
C36 C39 1_555 1_555
C40 C41 1_555 1_555
N2 N8 1_555 1_555
N9 N17 1_555 1_555
N10 N12 1_555 1_555
N14 N19 1_555 1_555
N20 N22 1_555 1_555
N21 N23 1_555 1_555
O6 Cd4A 1_555 1_555
O7 Cd5A 1_555 1_555
O9 Cd3_2 1_555 1_555
Cd3A O7A 1_555 1_555
Cd3A_3 O3A 1_555 1_555
Cd5A O1A 1_555 1_555

#END
