
#######################################################################
#
#                 Cambridge Crystallographic Data Centre
#                                CCDC 
#
#######################################################################
#
# If this CIF has been generated from an entry in the Cambridge 
# Structural Database, then it will include bibliographic, chemical, 
# crystal, experimental, refinement or atomic coordinate data resulting 
# from the CCDC's data processing and validation procedures.
#
#######################################################################

data_YISBIL
_symmetry_cell_setting           orthorhombic
_symmetry_space_group_name_H-M   'C m c m'
_symmetry_Int_Tables_number      63
_space_group_name_Hall           '-C 2n 2'
loop_
_symmetry_equiv_pos_site_id
_symmetry_equiv_pos_as_xyz
1 x,y,z
2 1/2+x,1/2+y,z
3 -x,y,z
4 1/2-x,1/2+y,z
5 x,-y,1/2+z
6 1/2+x,1/2-y,1/2+z
7 -x,-y,1/2+z
8 1/2-x,1/2-y,1/2+z
9 -x,-y,-z
10 1/2-x,1/2-y,-z
11 x,-y,-z
12 1/2+x,1/2-y,-z
13 -x,y,1/2-z
14 1/2-x,1/2+y,1/2-z
15 x,y,1/2-z
16 1/2+x,1/2+y,1/2-z
_cell_length_a                   24.720(7)
_cell_length_b                   8.772(3)
_cell_length_c                   7.857(3)
_cell_angle_alpha                90
_cell_angle_beta                 90
_cell_angle_gamma                90
_cell_volume                     1703.74
loop_
_atom_site_label
_atom_site_type_symbol
_atom_site_fract_x
_atom_site_fract_y
_atom_site_fract_z
Bi1 Bi 0.92250(2) 0.88424(4) 0.2500
Br1 Br 0.84784(4) 1.0000 0.5000
Br2 Br 1.0000 0.76919(12) 0.5003(2)
C1 C 0.8775(4) 0.6616(12) 0.2500
C2 C 0.8216(5) 0.6630(13) 0.2500
C3 C 0.7943(5) 0.5249(13) 0.2500
C4 C 0.8210(5) 0.3909(12) 0.2500
C5 C 0.8772(5) 0.3906(11) 0.2500
C6 C 0.9057(4) 0.5263(12) 0.2500
H1 H 0.8023(5) 0.7566(13) 0.2500
H2 H 0.7559(5) 0.5248(13) 0.2500
H3 H 0.8015(5) 0.2975(12) 0.2500
H4 H 0.8962(5) 0.2965(11) 0.2500
H5 H 0.9441(4) 0.5262(12) 0.2500
Br1D Br 0.84784(4) 1.0000 0.0000
Br2L Br 1.0000 0.76919(12) -0.0003(2)
Bi1D Bi 0.92250(2) 1.11576(4) 0.7500
Bi1B Bi 1.07750(2) 0.88424(4) 0.2500
Br1B Br 1.15216(4) 1.0000 0.5000
Br1F Br 1.15216(4) 1.0000 0.0000
C1B C 1.1225(4) 0.6616(12) 0.2500
C2B C 1.1784(5) 0.6630(13) 0.2500
C6B C 1.0943(4) 0.5263(12) 0.2500
C3B C 1.2057(5) 0.5249(13) 0.2500
H1B H 1.1977(5) 0.7566(13) 0.2500
C5B C 1.1228(5) 0.3906(11) 0.2500
H5B H 1.0559(4) 0.5262(12) 0.2500
C4B C 1.1790(5) 0.3909(12) 0.2500
H2B H 1.2441(5) 0.5248(13) 0.2500
H4B H 1.1038(5) 0.2965(11) 0.2500
H3B H 1.1985(5) 0.2975(12) 0.2500
Bi1D_2 Bi 0.92250(2) 1.11576(4) -0.2500
loop_
_geom_bond_atom_site_label_1
_geom_bond_atom_site_label_2
_geom_bond_site_symmetry_1
_geom_bond_site_symmetry_2
Bi1 Br1 1_555 1_555
Br1 Bi1D 1_555 1_555
Br2 Bi1 1_555 1_555
C1 Bi1 1_555 1_555
C2 C1 1_555 1_555
C3 C2 1_555 1_555
C4 C3 1_555 1_555
C5 C4 1_555 1_555
C6 C1 1_555 1_555
H1 C2 1_555 1_555
H2 C3 1_555 1_555
H3 C4 1_555 1_555
H4 C5 1_555 1_555
H5 C6 1_555 1_555
Br1D Bi1 1_555 1_555
Br2L Bi1 1_555 1_555
Bi1B Br2 1_555 1_555
Br1B Bi1B 1_555 1_555
Br1F Bi1B 1_555 1_555
C1B Bi1B 1_555 1_555
C2B C1B 1_555 1_555
C6B C1B 1_555 1_555
C3B C2B 1_555 1_555
H1B C2B 1_555 1_555
C5B C6B 1_555 1_555
H5B C6B 1_555 1_555
C4B C3B 1_555 1_555
H2B C3B 1_555 1_555
H4B C5B 1_555 1_555
H3B C4B 1_555 1_555
Bi1D_2 Br1D 1_555 1_555
C5 C6 1_555 1_555
Br2L Bi1B 1_555 1_555
C5B C4B 1_555 1_555

#END
