
#######################################################################
#
#                 Cambridge Crystallographic Data Centre
#                                CCDC 
#
#######################################################################
#
# If this CIF has been generated from an entry in the Cambridge 
# Structural Database, then it will include bibliographic, chemical, 
# crystal, experimental, refinement or atomic coordinate data resulting 
# from the CCDC's data processing and validation procedures.
#
#######################################################################

data_YISCEJ
_symmetry_cell_setting           monoclinic
_symmetry_space_group_name_H-M   'C 2/c'
_symmetry_Int_Tables_number      15
_space_group_name_Hall           '-C 2yn'
loop_
_symmetry_equiv_pos_site_id
_symmetry_equiv_pos_as_xyz
1 x,y,z
2 1/2+x,1/2+y,z
3 -x,y,1/2-z
4 1/2-x,1/2+y,1/2-z
5 -x,-y,-z
6 1/2-x,1/2-y,-z
7 x,-y,1/2+z
8 1/2+x,1/2-y,1/2+z
_cell_length_a                   11.3254(15)
_cell_length_b                   7.8829(10)
_cell_length_c                   13.1264(17)
_cell_angle_alpha                90
_cell_angle_beta                 100.519(2)
_cell_angle_gamma                90
_cell_volume                     1152.19
loop_
_atom_site_label
_atom_site_type_symbol
_atom_site_fract_x
_atom_site_fract_y
_atom_site_fract_z
O1 O 0.4605(2) 0.0082(3) 0.13881(18)
C1 C 0.5228(3) -0.1261(4) 0.1493(2)
Cu1 Cu 0.5000 -0.79687(7) 0.2500
O2 O 0.3250(2) -0.8093(3) 0.2842(2)
O3 O 0.6348(2) -0.1345(3) 0.17267(19)
N1 N 0.4346(2) -0.5880(4) 0.1575(2)
C2 C 0.3728(3) -0.6062(4) 0.0607(3)
H1 H 0.3488 -0.7144 0.0372
C3 C 0.3433(3) -0.4699(4) -0.0057(3)
H2 H 0.2944 -0.4836 -0.0702
C4 C 0.3893(3) -0.3127(4) 0.0274(3)
H3 H 0.3751 -0.2198 -0.0168
C5 C 0.4571(3) -0.2927(4) 0.1271(3)
C6 C 0.4708(3) -0.4329(4) 0.1933(2)
H4 H 0.265(2) -0.768(4) 0.242(3)
H5 H 0.311(3) -0.912(2) 0.301(3)
O1B O 0.5395(2) -0.9918(3) 0.36119(18)
O1_2 O 0.4605(2) -0.9918(3) 0.13881(18)
O1B_2 O 0.5395(2) 0.0082(3) 0.36119(18)
C1B C 0.4772(3) -0.1261(4) 0.3507(2)
Cu1_2 Cu 0.5000 0.20313(7) 0.2500
O2B O 0.6750(2) -0.8093(3) 0.2158(2)
O3B O 0.3652(2) -0.1345(3) 0.32733(19)
N1B N 0.5654(2) -0.5880(4) 0.3425(2)
C2B C 0.6272(3) -0.6062(4) 0.4393(3)
H1B H 0.6512 -0.7144 0.4628
C3B C 0.6567(3) -0.4699(4) 0.5057(3)
H2B H 0.7056 -0.4836 0.5702
C4B C 0.6107(3) -0.3127(4) 0.4726(3)
H3B H 0.6249 -0.2198 0.5168
C5B C 0.5429(3) -0.2927(4) 0.3729(3)
C6B C 0.5292(3) -0.4329(4) 0.3067(2)
H4B H 0.735(2) -0.768(4) 0.258(3)
H5B H 0.689(3) -0.912(2) 0.199(3)
loop_
_geom_bond_atom_site_label_1
_geom_bond_atom_site_label_2
_geom_bond_site_symmetry_1
_geom_bond_site_symmetry_2
O1 C1 1_555 1_555
C1 O3 1_555 1_555
Cu1 O2 1_555 1_555
O2 H4 1_555 1_555
N1 Cu1 1_555 1_555
C2 N1 1_555 1_555
H1 C2 1_555 1_555
C3 C2 1_555 1_555
H2 C3 1_555 1_555
C4 C3 1_555 1_555
H3 C4 1_555 1_555
C5 C1 1_555 1_555
C6 N1 1_555 1_555
H5 O2 1_555 1_555
O1B Cu1 1_555 1_555
O1_2 Cu1 1_555 1_555
O1B_2 C1B 1_555 1_555
C1B O3B 1_555 1_555
Cu1_2 O1 1_555 1_555
O2B Cu1 1_555 1_555
N1B Cu1 1_555 1_555
C2B N1B 1_555 1_555
H1B C2B 1_555 1_555
C3B C2B 1_555 1_555
H2B C3B 1_555 1_555
C4B C3B 1_555 1_555
H3B C4B 1_555 1_555
C5B C1B 1_555 1_555
C6B C6 1_555 1_555
H4B O2B 1_555 1_555
H5B O2B 1_555 1_555
C4 C5 1_555 1_555
C5 C6 1_555 1_555
O1B_2 Cu1_2 1_555 1_555
N1B C6B 1_555 1_555
C4B C5B 1_555 1_555
C5B C6B 1_555 1_555

#END
