
#######################################################################
#
#                 Cambridge Crystallographic Data Centre
#                                CCDC 
#
#######################################################################
#
# If this CIF has been generated from an entry in the Cambridge 
# Structural Database, then it will include bibliographic, chemical, 
# crystal, experimental, refinement or atomic coordinate data resulting 
# from the CCDC's data processing and validation procedures.
#
#######################################################################

data_YISFEL
_symmetry_cell_setting           triclinic
_symmetry_space_group_name_H-M   'P -1'
_symmetry_Int_Tables_number      2
_space_group_name_Hall           '-P 1'
loop_
_symmetry_equiv_pos_site_id
_symmetry_equiv_pos_as_xyz
1 x,y,z
2 -x,-y,-z
_cell_length_a                   6.349(2)
_cell_length_b                   10.258(2)
_cell_length_c                   15.737(2)
_cell_angle_alpha                73.21(1)
_cell_angle_beta                 93.66(2)
_cell_angle_gamma                76.44(2)
_cell_volume                     944.297
loop_
_atom_site_label
_atom_site_type_symbol
_atom_site_fract_x
_atom_site_fract_y
_atom_site_fract_z
Sr1 Sr 0.01346(7) 0.07780(5) 0.35040(3)
Sr2 Sr 0.30596(8) -0.26746(5) 0.26373(4)
Cu1 Cu 0.00000 0.50000 0.00000
Cu2 Cu 0.50000 -0.50000 0.50000
O1 O -0.1166(13) 0.33612(66) 0.04473(36)
O2 O 0.1464(12) 0.44692(64) 0.12171(36)
C1 C -0.0531(15) 0.27622(73) 0.12821(47)
C2 C 0.0987(12) 0.34039(66) 0.17252(46)
O3 O -0.1089(11) 0.17357(55) 0.17498(36)
O4 O 0.15759(84) 0.29265(49) 0.25357(32)
O5 O 0.30792(75) -0.31156(41) 0.44963(29)
O6 O 0.56542(72) -0.51464(40) 0.38450(28)
C3 C 0.24343(89) -0.26137(54) 0.51074(39)
C4 C 0.31515(86) -0.36287(53) 0.60764(38)
O7 O 0.13103(67) -0.13900(39) 0.50034(28)
O8 O 0.25362(76) -0.32395(44) 0.67143(30)
O9 O -0.29973(7) -0.24830(48) 0.27323(41)
O10 O -0.62225(65) -0.05576(45) 0.31016(33)
C5 C -0.43078(88) -0.04569(57) 0.32124(42)
C6 C -0.24872(88) -0.15056(55) 0.29345(39)
O11 O -0.36880(74) 0.03904(57) 0.35383(44)
O12 O -0.06231(63) -0.12881(42) 0.29398(31)
O13 O 0.31615(85) 0.13862(52) 0.44479(34)
O14 O 0.07695(82) -0.45314(53) 0.30697(45)
O15 O 0.47878(84) -0.45636(48) 0.18303(35)
O16 O 0.3351(17) -0.07599(96) 0.11547(55)
O17 O 0.0198(14) -0.22283(87) 0.11144(60)
O18 O 0.1835(11) -0.60423(72) 0.48637(55)
O19 O 0.3002(18) 0.3435(10) -0.04701(74)
O7A O -0.13103(67) 0.13900(39) 0.49966(28)
O1A O 0.1166(13) 0.66388(66) -0.04473(36)
O2A O -0.1464(12) 0.55308(64) -0.12171(36)
O19A O -0.3002(18) 0.6565(10) 0.04701(74)
O5A O 0.69208(75) -0.68844(41) 0.55037(29)
O6A O 0.43458(72) -0.48536(40) 0.61550(28)
O18A O 0.8165(11) -0.39577(72) 0.51363(55)
C4A C 0.68485(86) -0.63713(53) 0.39236(38)
O8A O -0.25362(76) 0.32395(44) 0.32857(30)
Sr1A Sr -0.01346(7) -0.07780(5) 0.64960(3)
Sr2A Sr 0.69404(8) -0.73254(5) 0.73627(4)
O9_2 O 0.70027(7) -0.24830(48) 0.27323(41)
O10_2 O 0.37775(65) -0.05576(45) 0.31016(33)
Sr1_2 Sr -0.98654(7) 0.07780(5) 0.35040(3)
Sr2_2 Sr -0.69404(8) -0.26746(5) 0.26373(4)
C3A C 0.75657(89) -0.73863(54) 0.48926(39)
O8A_2 O 0.74638(76) -0.67605(44) 0.32857(30)
O7A_2 O 0.86897(67) -0.86100(39) 0.49966(28)
Sr1_3 Sr 1.01346(7) -0.92220(5) 0.35040(3)
Sr1A_2 Sr 0.98654(7) -1.07780(5) 0.64960(3)
O9A O 0.29973(7) -0.75170(48) 0.72677(41)
O10A O 0.62225(65) -0.94424(45) 0.68984(33)
O12A O 1.06231(63) -0.87119(42) 0.70602(31)
O14A O 0.92305(82) -0.54686(53) 0.69303(45)
O15A O 0.52122(84) -0.54364(48) 0.81697(35)
O16A O 0.6649(17) -0.92401(96) 0.88453(55)
O17A O 0.9802(14) -0.77717(87) 0.88856(60)
O3A O 1.1089(11) -1.17357(55) 0.82502(36)
O4A O 0.84241(84) -1.29265(49) 0.74643(32)
O7_2 O 1.13103(67) -1.13900(39) 0.50034(28)
O8_2 O 1.25362(76) -1.32395(44) 0.67143(30)
O11A O 1.36880(74) -1.03904(57) 0.64617(44)
O13A O 0.68385(85) -1.13862(52) 0.55521(34)
C1A C 1.0531(15) -1.27622(73) 0.87179(47)
C2A C 0.9013(12) -1.34039(66) 0.82748(46)
O1A_2 O 1.1166(13) -1.33612(66) 0.95527(36)
O2A_2 O 0.8536(12) -1.44692(64) 0.87829(36)
Cu1_2 Cu 1.00000 -1.50000 1.00000
C6A C 1.24872(88) -0.84944(55) 0.70655(39)
C5A C 1.43078(88) -0.95431(57) 0.67876(42)
O9A_2 O 1.29973(7) -0.75170(48) 0.72677(41)
O10A_2 O 1.62225(65) -0.94424(45) 0.68984(33)
Sr2A_2 Sr 1.69404(8) -0.73254(5) 0.73627(4)
Sr1A_3 Sr 1.98654(7) -1.07780(5) 0.64960(3)
loop_
_geom_bond_atom_site_label_1
_geom_bond_atom_site_label_2
_geom_bond_site_symmetry_1
_geom_bond_site_symmetry_2
Sr1 O3 1_555 1_555
Sr2 O5 1_555 1_555
Cu1 O1 1_555 1_555
Cu2 O5 1_555 1_555
O1 C1 1_555 1_555
O2 Cu1 1_555 1_555
C1 C2 1_555 1_555
C2 O2 1_555 1_555
O3 C1 1_555 1_555
O4 Sr1 1_555 1_555
O5 C3 1_555 1_555
O6 Sr2 1_555 1_555
C3 C4 1_555 1_555
C4 O8 1_555 1_555
O7 Sr1 1_555 1_555
O8 Sr1A 1_555 1_555
O9 C6 1_555 1_555
O10 C5 1_555 1_555
C5 C6 1_555 1_555
C6 O12 1_555 1_555
O11 Sr1 1_555 1_555
O12 Sr1 1_555 1_555
O13 Sr1 1_555 1_555
O14 Sr2 1_555 1_555
O15 Sr2 1_555 1_555
O16 Sr2 1_555 1_555
O17 Sr2 1_555 1_555
O18 Cu2 1_555 1_555
O19 Cu1 1_555 1_555
O7A Sr1 1_555 1_555
O1A Cu1 1_555 1_555
O2A Cu1 1_555 1_555
O19A Cu1 1_555 1_555
O5A Cu2 1_555 1_555
O6A Cu2 1_555 1_555
O18A Cu2 1_555 1_555
C4A O6 1_555 1_555
O8A Sr1 1_555 1_555
Sr1A O7 1_555 1_555
Sr2A O5A 1_555 1_555
O9_2 Sr2 1_555 1_555
O10_2 Sr1 1_555 1_555
Sr1_2 O10 1_555 1_555
Sr2_2 O9 1_555 1_555
C3A O5A 1_555 1_555
O8A_2 C4A 1_555 1_555
O7A_2 C3A 1_555 1_555
Sr1_3 O8A_2 1_555 1_555
Sr1A_2 O7A_2 1_555 1_555
O9A Sr2A 1_555 1_555
O10A Sr2A 1_555 1_555
O12A Sr2A 1_555 1_555
O14A Sr2A 1_555 1_555
O15A Sr2A 1_555 1_555
O16A Sr2A 1_555 1_555
O17A Sr2A 1_555 1_555
O3A Sr1A_2 1_555 1_555
O4A Sr1A_2 1_555 1_555
O7_2 Sr1_3 1_555 1_555
O8_2 Sr1A_2 1_555 1_555
O11A Sr1A_2 1_555 1_555
O13A Sr1A_2 1_555 1_555
C1A O3A 1_555 1_555
C2A O4A 1_555 1_555
O1A_2 C1A 1_555 1_555
O2A_2 C2A 1_555 1_555
Cu1_2 O1A_2 1_555 1_555
C6A O12A 1_555 1_555
C5A O11A 1_555 1_555
O9A_2 C6A 1_555 1_555
O10A_2 C5A 1_555 1_555
Sr2A_2 O9A_2 1_555 1_555
Sr1A_3 O10A_2 1_555 1_555
Sr2 O10_2 1_555 1_555
Sr2 O12 1_555 1_555
Cu2 O6 1_555 1_555
C2 O4 1_555 1_555
C3 O7 1_555 1_555
C4 O6A 1_555 1_555
O10 Sr2_2 1_555 1_555
C5 O11 1_555 1_555
O7A Sr1A 1_555 1_555
O6A Sr2A 1_555 1_555
C4A C3A 1_555 1_555
O7A_2 Sr1_3 1_555 1_555
Sr1A_2 O7_2 1_555 1_555
Sr1A_2 O10A 1_555 1_555
Sr1A_2 O12A 1_555 1_555
C1A C2A 1_555 1_555
O2A_2 Cu1_2 1_555 1_555
C6A C5A 1_555 1_555
O10A_2 Sr2A_2 1_555 1_555

#END
