
#######################################################################
#
#                 Cambridge Crystallographic Data Centre
#                                CCDC 
#
#######################################################################
#
# If this CIF has been generated from an entry in the Cambridge 
# Structural Database, then it will include bibliographic, chemical, 
# crystal, experimental, refinement or atomic coordinate data resulting 
# from the CCDC's data processing and validation procedures.
#
#######################################################################

data_YISHOY
_symmetry_cell_setting           monoclinic
_symmetry_space_group_name_H-M   'P 21/c'
_symmetry_Int_Tables_number      14
_space_group_name_Hall           '-P 2ybc'
loop_
_symmetry_equiv_pos_site_id
_symmetry_equiv_pos_as_xyz
1 x,y,z
2 -x,1/2+y,1/2-z
3 -x,-y,-z
4 x,1/2-y,1/2+z
_cell_length_a                   11.481(3)
_cell_length_b                   11.230(2)
_cell_length_c                   11.759(3)
_cell_angle_alpha                90
_cell_angle_beta                 97.054(4)
_cell_angle_gamma                90
_cell_volume                     1504.63
loop_
_atom_site_label
_atom_site_type_symbol
_atom_site_fract_x
_atom_site_fract_y
_atom_site_fract_z
Co1 Co 1.0000 0.0000 1.0000
O1 O 1.0111(2) 0.16736(19) 1.0731(2)
H1 H 1.0402 0.2289 1.0456
H2 H 0.9739 0.1832 1.1337
O2 O 0.9745(2) 0.0749(2) 0.83540(18)
H3 H 1.0021 0.0410 0.7777
H4 H 0.9457 0.1409 0.8107
N1 N 0.8124(2) 0.0040(2) 1.0136(2)
C1 C 0.7549(3) -0.0855(3) 1.0562(3)
H5 H 0.7987 -0.1486 1.0902
C2 C 0.6357(3) -0.0904(3) 1.0531(3)
H6 H 0.6012 -0.1558 1.0842
C3 C 0.5652(2) 0.0014(3) 1.0038(2)
C4 C 0.6255(3) 0.0957(3) 0.9627(3)
H7 H 0.5842 0.1614 0.9308
C5 C 0.7461(3) 0.0933(3) 0.9685(3)
H8 H 0.7833 0.1579 0.9391
Co1_2 Co 0.0000 0.0000 1.0000
O1B O 0.9889(2) -0.16736(19) 0.9269(2)
H1B H 0.9598 -0.2289 0.9544
H2B H 1.0261 -0.1832 0.8663
O2B O 1.0255(2) -0.0749(2) 1.16460(18)
H3B H 0.9979 -0.0410 1.2223
H4B H 1.0543 -0.1409 1.1893
N1B N 0.1876(2) -0.0040(2) 0.9864(2)
N1B_2 N 1.1876(2) -0.0040(2) 0.9864(2)
C1B C 0.2451(3) 0.0855(3) 0.9438(3)
H5B H 0.2013 0.1486 0.9098
C2B C 0.3643(3) 0.0904(3) 0.9469(3)
H6B H 0.3988 0.1558 0.9158
C3B C 0.4348(2) -0.0014(3) 0.9962(2)
C4B C 0.3745(3) -0.0957(3) 1.0373(3)
H7B H 0.4158 -0.1614 1.0692
C5B C 0.2539(3) -0.0933(3) 1.0315(3)
H8B H 0.2167 -0.1579 1.0609
O3 O 0.9251(3) 0.0369(3) 0.3337(2)
O4 O 0.8877(3) 0.2122(2) 0.2520(2)
C6 C 0.8560(3) 0.1200(3) 0.2986(3)
C7 C 0.7299(4) 0.1023(4) 0.3125(4)
H9 H 0.7115 0.0394 0.3586
C8 C 0.6463(4) 0.1651(4) 0.2672(4)
H10 H 0.6676 0.2298 0.2249
C9 C 0.5177(4) 0.1511(5) 0.2717(5)
C10 C 0.4417(5) 0.2237(6) 0.2050(5)
H11 H 0.4710 0.2810 0.1589
C11 C 0.3218(6) 0.2129(7) 0.2053(6)
H12 H 0.2707 0.2627 0.1599
C12 C 0.2794(6) 0.1295(7) 0.2720(6)
H13 H 0.1985 0.1232 0.2708
C13 C 0.3472(7) 0.0560(8) 0.3392(7)
H14 H 0.3160 -0.0007 0.3845
C14 C 0.4742(5) 0.0692(7) 0.3381(6)
H15 H 0.5253 0.0201 0.3841
O5 O 0.1048(2) 0.1312(2) 0.4996(2)
H16 H 0.0539 0.0997 0.4440
H17 H 0.0953 0.0783 0.5548
loop_
_geom_bond_atom_site_label_1
_geom_bond_atom_site_label_2
_geom_bond_site_symmetry_1
_geom_bond_site_symmetry_2
Co1 O1 1_555 1_555
O1 H1 1_555 1_555
H2 O1 1_555 1_555
O2 Co1 1_555 1_555
H3 O2 1_555 1_555
H4 O2 1_555 1_555
O3 C6 1_555 1_555
O4 C6 1_555 1_555
N1 Co1 1_555 1_555
C1 N1 1_555 1_555
H5 C1 1_555 1_555
C2 C1 1_555 1_555
H6 C2 1_555 1_555
C3 C2 1_555 1_555
C4 C3 1_555 1_555
H7 C4 1_555 1_555
C5 N1 1_555 1_555
H8 C5 1_555 1_555
C6 C7 1_555 1_555
C7 H9 1_555 1_555
C8 C7 1_555 1_555
H10 C8 1_555 1_555
C9 C8 1_555 1_555
C10 C9 1_555 1_555
H11 C10 1_555 1_555
C11 C10 1_555 1_555
H12 C11 1_555 1_555
C12 C11 1_555 1_555
H13 C12 1_555 1_555
C13 C12 1_555 1_555
H14 C13 1_555 1_555
C14 C9 1_555 1_555
H15 C14 1_555 1_555
O5 H16 1_555 1_555
H17 O5 1_555 1_555
Co1_2 N1B 1_555 1_555
O1B Co1 1_555 1_555
H1B O1B 1_555 1_555
H2B O1B 1_555 1_555
O2B Co1 1_555 1_555
H3B O2B 1_555 1_555
H4B O2B 1_555 1_555
N1B C1B 1_555 1_555
N1B_2 Co1 1_555 1_555
C1B H5B 1_555 1_555
C2B C1B 1_555 1_555
H6B C2B 1_555 1_555
C3B C3 1_555 1_555
C4B C3B 1_555 1_555
H7B C4B 1_555 1_555
C5B N1B 1_555 1_555
H8B C5B 1_555 1_555
C4 C5 1_555 1_555
C13 C14 1_555 1_555
C2B C3B 1_555 1_555
C4B C5B 1_555 1_555

#END
