
#######################################################################
#
#                 Cambridge Crystallographic Data Centre
#                                CCDC 
#
#######################################################################
#
# If this CIF has been generated from an entry in the Cambridge 
# Structural Database, then it will include bibliographic, chemical, 
# crystal, experimental, refinement or atomic coordinate data resulting 
# from the CCDC's data processing and validation procedures.
#
#######################################################################

data_YISJAM
_symmetry_cell_setting           monoclinic
_symmetry_space_group_name_H-M   'P 21/c'
_symmetry_Int_Tables_number      14
_space_group_name_Hall           '-P 2ybc'
loop_
_symmetry_equiv_pos_site_id
_symmetry_equiv_pos_as_xyz
1 x,y,z
2 -x,1/2+y,1/2-z
3 -x,-y,-z
4 x,1/2-y,1/2+z
_cell_length_a                   6.1252(8)
_cell_length_b                   20.706(3)
_cell_length_c                   8.8067(11)
_cell_angle_alpha                90
_cell_angle_beta                 95.608(2)
_cell_angle_gamma                90
_cell_volume                     1111.59
loop_
_atom_site_label
_atom_site_type_symbol
_atom_site_fract_x
_atom_site_fract_y
_atom_site_fract_z
Cd1 Cd 0.18170(3) 0.465858(8) 0.856828(19)
O1 O 0.6942(5) 0.21102(12) 1.0755(4)
O2 O 0.7829(4) 0.30999(11) 1.0568(3)
O3 O 0.0711(3) 0.45839(9) 1.3598(2)
O4 O 0.0966(3) 0.45961(9) 1.1124(2)
O5 O 0.4942(3) 0.41429(9) 0.95882(19)
O6 O 0.6304(3) 0.44244(9) 1.1938(2)
O7 O 0.2747(3) 0.42137(11) 0.6379(2)
H1 H 0.4049(19) 0.4291(16) 0.619(3)
H2 H 0.189(3) 0.4248(16) 0.558(2)
O8 O -0.0957(3) 0.39218(11) 0.8129(2)
H3 H -0.194(4) 0.4037(16) 0.868(3)
H4 H -0.146(4) 0.3924(17) 0.7202(13)
N1 N 0.6642(4) 0.26784(12) 1.0968(3)
C1 C 0.4725(4) 0.28694(12) 1.1748(3)
C2 C 0.3655(5) 0.23922(14) 1.2483(3)
H5 H 0.4110 0.1965 1.2445
C3 C 0.1912(5) 0.25573(15) 1.3270(3)
H6 H 0.1191 0.2241 1.3782
C4 C 0.1229(5) 0.31905(14) 1.3303(3)
H7 H 0.0073 0.3303 1.3861
C5 C 0.2258(4) 0.36634(12) 1.2506(3)
C6 C 0.4068(4) 0.35110(11) 1.1730(3)
C7 C 0.1284(4) 0.43277(12) 1.2422(3)
C8 C 0.5225(4) 0.40640(11) 1.0999(3)
Cd1B Cd -0.18170(3) 0.534142(8) 1.143172(19)
Cd1B_2 Cd 0.81830(3) 0.534142(8) 1.143172(19)
O4B O -0.0966(3) 0.54039(9) 0.8876(2)
O6B O 0.3696(3) 0.55756(9) 0.8062(2)
O9 O 0.6769(4) 0.43064(11) 0.5285(3)
H8 H 0.749(6) 0.4653(11) 0.545(4)
H9 H 0.685(8) 0.418(2) 0.437(2)
loop_
_geom_bond_atom_site_label_1
_geom_bond_atom_site_label_2
_geom_bond_site_symmetry_1
_geom_bond_site_symmetry_2
Cd1 O4 1_555 1_555
O1 N1 1_555 1_555
O2 N1 1_555 1_555
O3 C7 1_555 1_555
O4 C7 1_555 1_555
O5 Cd1 1_555 1_555
O6 C8 1_555 1_555
O7 Cd1 1_555 1_555
H1 O7 1_555 1_555
H2 O7 1_555 1_555
O8 Cd1 1_555 1_555
H3 O8 1_555 1_555
H4 O8 1_555 1_555
N1 C1 1_555 1_555
C1 C2 1_555 1_555
C2 H5 1_555 1_555
C3 C2 1_555 1_555
H6 C3 1_555 1_555
C4 C3 1_555 1_555
H7 C4 1_555 1_555
C5 C4 1_555 1_555
C6 C1 1_555 1_555
C7 C5 1_555 1_555
C8 O5 1_555 1_555
O9 H8 1_555 1_555
H9 O9 1_555 1_555
Cd1B O4 1_555 1_555
Cd1B_2 O6 1_555 1_555
O4B Cd1 1_555 1_555
O6B Cd1 1_555 1_555
C5 C6 1_555 1_555
C6 C8 1_555 1_555
Cd1B O4B 1_555 1_555

#END
