
#######################################################################
#
#                 Cambridge Crystallographic Data Centre
#                                CCDC 
#
#######################################################################
#
# If this CIF has been generated from an entry in the Cambridge 
# Structural Database, then it will include bibliographic, chemical, 
# crystal, experimental, refinement or atomic coordinate data resulting 
# from the CCDC's data processing and validation procedures.
#
#######################################################################

data_YISLIW
_symmetry_cell_setting           monoclinic
_symmetry_space_group_name_H-M   'C 2/c'
_symmetry_Int_Tables_number      15
_space_group_name_Hall           '-C 2yn'
loop_
_symmetry_equiv_pos_site_id
_symmetry_equiv_pos_as_xyz
1 x,y,z
2 1/2+x,1/2+y,z
3 -x,y,1/2-z
4 1/2-x,1/2+y,1/2-z
5 -x,-y,-z
6 1/2-x,1/2-y,-z
7 x,-y,1/2+z
8 1/2+x,1/2-y,1/2+z
_cell_length_a                   14.697(3)
_cell_length_b                   20.431(4)
_cell_length_c                   38.639(8)
_cell_angle_alpha                90
_cell_angle_beta                 99.53(3)
_cell_angle_gamma                90
_cell_volume                     11442.2
loop_
_atom_site_label
_atom_site_type_symbol
_atom_site_fract_x
_atom_site_fract_y
_atom_site_fract_z
K1 K 0.8353(3) -0.1234(2) 0.31645(10)
W1 W 1.03211(4) 0.04125(2) 0.161508(11)
W2 W 0.91611(4) -0.18268(2) 0.170114(11)
W3 W 0.98518(4) -0.07986(3) 0.099162(11)
W4 W 0.85345(4) 0.09831(3) 0.208640(12)
W5 W 0.88951(4) 0.06979(3) 0.081128(11)
W6 W 0.74994(4) -0.13049(3) 0.213699(13)
W7 W 0.75853(4) -0.15842(3) 0.083852(13)
W8 W 0.70634(4) 0.12764(3) 0.128740(12)
W9 W 0.65948(4) -0.00853(3) 0.064668(13)
W10 W 0.63707(4) 0.03045(3) 0.191008(13)
W11 W 0.59037(4) -0.10503(3) 0.127819(15)
Cu1 Cu 0.92463(10) 0.11355(7) -0.01183(4)
P1 P 0.8102(2) -0.03244(16) 0.14666(7)
Pr1 Pr 1.0000 -0.06205(5) 0.2500
C1 C 0.8015(8) 0.2145(6) -0.0361(3)
C2 C 0.8911(9) 0.2448(6) -0.0265(3)
C3 C 1.0435(10) 0.2298(7) -0.0039(3)
H1 H 1.0911 0.2011 0.0046
C4 C 1.0652(14) 0.2956(9) -0.0057(5)
H2 H 1.1245 0.3116 0.0018
C5 C 0.9943(12) 0.3345(9) -0.0189(5)
H3 H 1.0054 0.3788 -0.0216
C6 C 0.9072(13) 0.3118(7) -0.0286(3)
H4 H 0.8590 0.3404 -0.0364
C7 C 0.7190(10) 0.2446(7) -0.0502(3)
H5 H 0.7184 0.2893 -0.0550
C8 C 0.6382(10) 0.2098(9) -0.0573(4)
H6 H 0.5827 0.2302 -0.0663
C9 C 0.6417(11) 0.1457(8) -0.0509(4)
H7 H 0.5886 0.1205 -0.0566
C10 C 0.7245(11) 0.1158(7) -0.0357(4)
H8 H 0.7249 0.0715 -0.0302
C11 C 1.0458(9) 0.0163(6) 0.0064(3)
N1 N 0.9604(8) 0.2051(5) -0.0132(2)
N2 N 0.8017(7) 0.1494(5) -0.0291(2)
O1 O 0.6830(6) -0.1739(5) 0.2375(2)
O2 O 0.5468(7) 0.0440(6) 0.2125(3)
O3 O 0.7294(6) 0.0829(5) 0.21797(19)
O4 O 0.8857(7) 0.1613(5) 0.2367(2)
O5 O 0.9464(6) 0.0968(4) 0.17968(19)
O6 O 1.1341(7) 0.0814(5) 0.1730(2)
O7 O 0.9885(6) 0.0905(4) 0.11533(19)
O8 O 0.9029(7) 0.1213(4) 0.0477(2)
O9 O 1.0692(6) -0.0242(4) 0.12933(19)
O10 O 0.9557(6) -0.0050(4) 0.0695(2)
O11 O 1.0600(6) -0.1187(4) 0.07692(19)
O12 O 0.8724(6) -0.1159(4) 0.0783(2)
O13 O 0.9551(6) -0.2602(4) 0.1668(2)
O14 O 0.6419(7) -0.1680(5) 0.0990(2)
O15 O 0.8155(6) -0.2003(4) 0.19432(19)
O16 O 0.6620(6) -0.1386(5) 0.1670(2)
O17 O 0.4831(7) -0.1371(6) 0.1290(3)
O18 O 0.8419(6) -0.1065(4) 0.24637(19)
O19 O 0.8392(6) -0.0825(4) 0.17504(18)
O20 O 0.9893(6) -0.1541(4) 0.20793(18)
O21 O 0.9803(6) -0.1357(4) 0.13780(18)
O22 O 1.0331(6) -0.0167(4) 0.19506(19)
O23 O 0.8922(6) -0.0110(4) 0.13009(18)
O24 O 0.8108(6) 0.1195(4) 0.10557(19)
O25 O 0.6590(7) 0.1992(5) 0.1126(2)
O26 O 0.6177(6) 0.0998(5) 0.1576(2)
O27 O 0.6928(6) -0.0460(5) 0.2124(2)
O28 O 0.8175(6) -0.1888(4) 0.1262(2)
O29 O 0.7564(7) -0.2242(5) 0.0564(2)
O30 O 0.7710(6) 0.0292(4) 0.16211(18)
O31 O 0.5818(6) -0.0241(5) 0.1531(2)
O32 O 0.7852(6) 0.1553(4) 0.1681(2)
O33 O 0.7381(6) -0.0595(4) 0.11744(19)
O34 O 0.5680(6) -0.0509(5) 0.0856(2)
O35 O 0.5970(7) 0.0167(5) 0.0256(2)
O36 O 0.6994(7) -0.0914(4) 0.0513(2)
O37 O 0.6500(6) 0.0639(5) 0.0950(2)
O38 O 0.7790(6) 0.0236(4) 0.06282(19)
O39 O 1.0490(5) 0.0772(4) 0.00491(19)
O40 O 1.1128(5) -0.0212(4) 0.0157(2)
O41 O 0.8942(6) 0.0275(4) 0.2316(2)
W1B W 0.96789(4) 0.04125(2) 0.338492(11)
W2B W 1.08389(4) -0.18268(2) 0.329886(11)
W3B W 1.01482(4) -0.07986(3) 0.400838(11)
W4B W 1.14655(4) 0.09831(3) 0.291360(12)
W5B W 1.11049(4) 0.06979(3) 0.418872(11)
W6B W 1.25006(4) -0.13049(3) 0.286301(13)
W7B W 1.24147(4) -0.15842(3) 0.416148(13)
W8B W 1.29366(4) 0.12764(3) 0.371260(12)
W9B W 1.34052(4) -0.00853(3) 0.435332(13)
W10B W 1.36293(4) 0.03045(3) 0.308992(13)
W11B W 1.40963(4) -0.10503(3) 0.372181(15)
Cu1D Cu 1.07537(10) -0.11355(7) 0.01183(4)
Cu1B Cu 1.07537(10) 0.11355(7) 0.51183(4)
Cu1F Cu 0.92463(10) -0.11355(7) 0.48817(4)
P1B P 1.1898(2) -0.03244(16) 0.35334(7)
C1D C 1.1985(8) -0.2145(6) 0.0361(3)
C2D C 1.1089(9) -0.2448(6) 0.0265(3)
C3D C 0.9565(10) -0.2298(7) 0.0039(3)
H1D H 0.9089 -0.2011 -0.0046
C4D C 0.9348(14) -0.2956(9) 0.0057(5)
H2D H 0.8755 -0.3116 -0.0018
C5D C 1.0057(12) -0.3345(9) 0.0189(5)
H3D H 0.9946 -0.3788 0.0216
C6D C 1.0928(13) -0.3118(7) 0.0286(3)
H4D H 1.1410 -0.3404 0.0364
C7D C 1.2810(10) -0.2446(7) 0.0502(3)
H5D H 1.2816 -0.2893 0.0550
C8D C 1.3618(10) -0.2098(9) 0.0573(4)
H6D H 1.4173 -0.2302 0.0663
C9D C 1.3583(11) -0.1457(8) 0.0509(4)
H7D H 1.4114 -0.1205 0.0566
C10D C 1.2755(11) -0.1158(7) 0.0357(4)
H8D H 1.2751 -0.0715 0.0302
C11D C 0.9542(9) -0.0163(6) -0.0064(3)
N1D N 1.0396(8) -0.2051(5) 0.0132(2)
N2D N 1.1983(7) -0.1494(5) 0.0291(2)
O1B O 1.3170(6) -0.1739(5) 0.2625(2)
O2B O 1.4532(7) 0.0440(6) 0.2875(3)
O3B O 1.2706(6) 0.0829(5) 0.28203(19)
O4B O 1.1143(7) 0.1613(5) 0.2633(2)
O5B O 1.0536(6) 0.0968(4) 0.32032(19)
O6B O 0.8659(7) 0.0814(5) 0.3270(2)
O7B O 1.0115(6) 0.0905(4) 0.38467(19)
O8B O 1.0971(7) 0.1213(4) 0.4523(2)
O8D O 1.0971(7) -0.1213(4) -0.0477(2)
O9B O 0.9308(6) -0.0242(4) 0.37067(19)
O10B O 1.0443(6) -0.0050(4) 0.4305(2)
O11D O 0.9400(6) 0.1187(4) -0.07692(19)
O11B O 0.9400(6) -0.1187(4) 0.42308(19)
O12B O 1.1276(6) -0.1159(4) 0.4217(2)
O13B O 1.0449(6) -0.2602(4) 0.3332(2)
O14B O 1.3581(7) -0.1680(5) 0.4010(2)
O15B O 1.1845(6) -0.2003(4) 0.30568(19)
O16B O 1.3380(6) -0.1386(5) 0.3330(2)
O17B O 1.5169(7) -0.1371(6) 0.3710(3)
O18B O 1.1581(6) -0.1065(4) 0.25363(19)
O19B O 1.1608(6) -0.0825(4) 0.32496(18)
O20B O 1.0107(6) -0.1541(4) 0.29207(18)
O21B O 1.0197(6) -0.1357(4) 0.36220(18)
O22B O 0.9669(6) -0.0167(4) 0.30494(19)
O23B O 1.1078(6) -0.0110(4) 0.36991(18)
O24B O 1.1892(6) 0.1195(4) 0.39443(19)
O25B O 1.3410(7) 0.1992(5) 0.3874(2)
O26B O 1.3823(6) 0.0998(5) 0.3424(2)
O27B O 1.3072(6) -0.0460(5) 0.2876(2)
O28B O 1.1825(6) -0.1888(4) 0.3738(2)
O29B O 1.2436(7) -0.2242(5) 0.4436(2)
O30B O 1.2290(6) 0.0292(4) 0.33789(18)
O31B O 1.4182(6) -0.0241(5) 0.3469(2)
O32B O 1.2148(6) 0.1553(4) 0.3319(2)
O33B O 1.2619(6) -0.0595(4) 0.38256(19)
O34B O 1.4320(6) -0.0509(5) 0.4144(2)
O35B O 1.4030(7) 0.0167(5) 0.4744(2)
O36B O 1.3006(7) -0.0914(4) 0.4487(2)
O37B O 1.3500(6) 0.0639(5) 0.4050(2)
O38B O 1.2210(6) 0.0236(4) 0.43718(19)
O39D O 0.9510(5) -0.0772(4) -0.00491(19)
O40D O 0.8872(5) 0.0212(4) -0.0157(2)
O41B O 1.1058(6) 0.0275(4) 0.2684(2)
loop_
_geom_bond_atom_site_label_1
_geom_bond_atom_site_label_2
_geom_bond_site_symmetry_1
_geom_bond_site_symmetry_2
W1 O5 1_555 1_555
W2 O13 1_555 1_555
W3 O9 1_555 1_555
W4 O3 1_555 1_555
W5 O7 1_555 1_555
W6 O1 1_555 1_555
W7 O12 1_555 1_555
W8 O24 1_555 1_555
W9 O33 1_555 1_555
W10 O2 1_555 1_555
W11 O14 1_555 1_555
Cu1 N1 1_555 1_555
P1 O19 1_555 1_555
Pr1 O18 1_555 1_555
C1 C2 1_555 1_555
C2 C6 1_555 1_555
C3 H1 1_555 1_555
C4 C3 1_555 1_555
H2 C4 1_555 1_555
C5 C4 1_555 1_555
H3 C5 1_555 1_555
C6 C5 1_555 1_555
H4 C6 1_555 1_555
C7 C1 1_555 1_555
H5 C7 1_555 1_555
C8 C7 1_555 1_555
H6 C8 1_555 1_555
C9 C8 1_555 1_555
H7 C9 1_555 1_555
C10 C9 1_555 1_555
H8 C10 1_555 1_555
C11 O39 1_555 1_555
N1 C2 1_555 1_555
N2 Cu1 1_555 1_555
O3 W10 1_555 1_555
O4 W4 1_555 1_555
O5 W4 1_555 1_555
O6 W1 1_555 1_555
O7 W1 1_555 1_555
O8 W5 1_555 1_555
O9 W1 1_555 1_555
O10 W3 1_555 1_555
O11 W3 1_555 1_555
O12 W3 1_555 1_555
O14 W7 1_555 1_555
O15 W2 1_555 1_555
O16 W6 1_555 1_555
O17 W11 1_555 1_555
O18 W6 1_555 1_555
O19 W2 1_555 1_555
O20 W2 1_555 1_555
O21 W2 1_555 1_555
O22 W1 1_555 1_555
O23 W1 1_555 1_555
O24 W5 1_555 1_555
O25 W8 1_555 1_555
O26 W8 1_555 1_555
O27 W6 1_555 1_555
O28 W2 1_555 1_555
O29 W7 1_555 1_555
O30 W4 1_555 1_555
O31 W10 1_555 1_555
O32 W4 1_555 1_555
O33 W7 1_555 1_555
O34 W9 1_555 1_555
O35 W9 1_555 1_555
O36 W7 1_555 1_555
O37 W8 1_555 1_555
O38 W5 1_555 1_555
O39 Cu1 1_555 1_555
O40 C11 1_555 1_555
O41 W4 1_555 1_555
W1B O5B 1_555 1_555
W2B O13B 1_555 1_555
W3B O9B 1_555 1_555
W4B O3B 1_555 1_555
W5B O7B 1_555 1_555
W6B O1B 1_555 1_555
W7B O12B 1_555 1_555
W8B O24B 1_555 1_555
W9B O33B 1_555 1_555
W10B O2B 1_555 1_555
W11B O14B 1_555 1_555
Cu1D O11 1_555 1_555
Cu1B O8B 1_555 1_555
Cu1F O11B 1_555 1_555
P1B O19B 1_555 1_555
C1D C2D 1_555 1_555
C2D C6D 1_555 1_555
C3D H1D 1_555 1_555
C4D C3D 1_555 1_555
H2D C4D 1_555 1_555
C5D C4D 1_555 1_555
H3D C5D 1_555 1_555
C6D C5D 1_555 1_555
H4D C6D 1_555 1_555
C7D C1D 1_555 1_555
H5D C7D 1_555 1_555
C8D C7D 1_555 1_555
H6D C8D 1_555 1_555
C9D C8D 1_555 1_555
H7D C9D 1_555 1_555
C10D C9D 1_555 1_555
H8D C10D 1_555 1_555
C11D C11 1_555 1_555
N1D Cu1D 1_555 1_555
N2D Cu1D 1_555 1_555
O3B W10B 1_555 1_555
O4B W4B 1_555 1_555
O5B W4B 1_555 1_555
O6B W1B 1_555 1_555
O7B W1B 1_555 1_555
O8B W5B 1_555 1_555
O8D Cu1D 1_555 1_555
O9B W1B 1_555 1_555
O10B W3B 1_555 1_555
O11D Cu1 1_555 1_555
O11B W3B 1_555 1_555
O12B W3B 1_555 1_555
O14B W7B 1_555 1_555
O15B W2B 1_555 1_555
O16B W6B 1_555 1_555
O17B W11B 1_555 1_555
O18B Pr1 1_555 1_555
O19B W2B 1_555 1_555
O20B Pr1 1_555 1_555
O21B W2B 1_555 1_555
O22B Pr1 1_555 1_555
O23B W1B 1_555 1_555
O24B W5B 1_555 1_555
O25B W8B 1_555 1_555
O26B W8B 1_555 1_555
O27B W6B 1_555 1_555
O28B W2B 1_555 1_555
O29B W7B 1_555 1_555
O30B W4B 1_555 1_555
O31B W10B 1_555 1_555
O32B W4B 1_555 1_555
O33B W7B 1_555 1_555
O34B W9B 1_555 1_555
O35B W9B 1_555 1_555
O36B W7B 1_555 1_555
O37B W8B 1_555 1_555
O38B W5B 1_555 1_555
O39D Cu1D 1_555 1_555
O40D Cu1 1_555 1_555
O41B Pr1 1_555 1_555
W3 O21 1_555 1_555
W3 O23 1_555 1_555
W5 O10 1_555 1_555
W5 O23 1_555 1_555
W6 O15 1_555 1_555
W6 O19 1_555 1_555
W7 O28 1_555 1_555
W8 O30 1_555 1_555
W8 O32 1_555 1_555
W9 O36 1_555 1_555
W9 O37 1_555 1_555
W9 O38 1_555 1_555
W10 O26 1_555 1_555
W10 O27 1_555 1_555
W10 O30 1_555 1_555
W11 O16 1_555 1_555
W11 O31 1_555 1_555
W11 O33 1_555 1_555
W11 O34 1_555 1_555
Cu1 O8 1_555 1_555
P1 O23 1_555 1_555
P1 O30 1_555 1_555
P1 O33 1_555 1_555
Pr1 O20 1_555 1_555
Pr1 O22 1_555 1_555
Pr1 O41 1_555 1_555
C1 N2 1_555 1_555
C3 N1 1_555 1_555
C10 N2 1_555 1_555
O40 Cu1D 1_555 1_555
W1B O22B 1_555 1_555
W2B O20B 1_555 1_555
W3B O21B 1_555 1_555
W3B O23B 1_555 1_555
W4B O41B 1_555 1_555
W5B O10B 1_555 1_555
W5B O23B 1_555 1_555
W6B O15B 1_555 1_555
W6B O18B 1_555 1_555
W6B O19B 1_555 1_555
W7B O28B 1_555 1_555
W8B O30B 1_555 1_555
W8B O32B 1_555 1_555
W9B O36B 1_555 1_555
W9B O37B 1_555 1_555
W9B O38B 1_555 1_555
W10B O26B 1_555 1_555
W10B O27B 1_555 1_555
W10B O30B 1_555 1_555
W11B O16B 1_555 1_555
W11B O31B 1_555 1_555
W11B O33B 1_555 1_555
W11B O34B 1_555 1_555
P1B O23B 1_555 1_555
P1B O30B 1_555 1_555
P1B O33B 1_555 1_555
C1D N2D 1_555 1_555
C2D N1D 1_555 1_555
C3D N1D 1_555 1_555
C10D N2D 1_555 1_555
C11D O39D 1_555 1_555
C11D O40D 1_555 1_555

#END
