
#######################################################################
#
#                 Cambridge Crystallographic Data Centre
#                                CCDC 
#
#######################################################################
#
# If this CIF has been generated from an entry in the Cambridge 
# Structural Database, then it will include bibliographic, chemical, 
# crystal, experimental, refinement or atomic coordinate data resulting 
# from the CCDC's data processing and validation procedures.
#
#######################################################################

data_YISLUI
_symmetry_cell_setting           monoclinic
_symmetry_space_group_name_H-M   'C 2/c'
_symmetry_Int_Tables_number      15
_space_group_name_Hall           '-C 2yn'
loop_
_symmetry_equiv_pos_site_id
_symmetry_equiv_pos_as_xyz
1 x,y,z
2 1/2+x,1/2+y,z
3 -x,y,1/2-z
4 1/2-x,1/2+y,1/2-z
5 -x,-y,-z
6 1/2-x,1/2-y,-z
7 x,-y,1/2+z
8 1/2+x,1/2-y,1/2+z
_cell_length_a                   14.747(5)
_cell_length_b                   20.484(5)
_cell_length_c                   38.466(10)
_cell_angle_alpha                90
_cell_angle_beta                 99.707(7)
_cell_angle_gamma                90
_cell_volume                     11453.4
loop_
_atom_site_label
_atom_site_type_symbol
_atom_site_fract_x
_atom_site_fract_y
_atom_site_fract_z
K1 K 0.3345(4) -0.1265(3) 0.81525(13)
P1 P 0.6882(3) -0.03216(18) 0.85327(10)
W1 W 0.46486(5) 0.03990(3) 0.836748(16)
W2 W 0.58274(5) -0.18326(3) 0.829444(16)
W3 W 0.64394(5) 0.09661(3) 0.790023(16)
W4 W 0.60633(5) 0.07034(3) 0.917886(16)
W5 W 0.51163(5) -0.08019(3) 0.900195(15)
W6 W 0.73992(6) -0.15801(3) 0.916623(17)
W7 W 0.74867(5) -0.13079(3) 0.786154(17)
W8 W 0.78998(6) 0.12830(3) 0.870590(17)
W9 W 0.86182(5) 0.03047(4) 0.808889(18)
W10 W 0.83777(6) -0.00720(3) 0.935602(17)
W11 W 0.90839(6) -0.10444(4) 0.87284(2)
C1 C 0.5477(12) -0.0157(7) 1.0056(4)
C2 C 0.4554(14) 0.2290(8) 1.0047(5)
H1 H 0.4068 0.2002 0.9980
C3 C 0.6102(13) 0.2467(7) 1.0266(4)
C4 C 0.6988(12) 0.2143(8) 1.0356(4)
C5 C 0.7756(16) 0.1184(10) 1.0357(5)
H2 H 0.7753 0.0744 1.0297
C6 C 0.5071(16) 0.3367(8) 1.0198(5)
H3 H 0.4959 0.3806 1.0235
C7 C 0.4371(16) 0.2958(9) 1.0046(6)
H4 H 0.3798 0.3122 0.9947
C8 C 0.5918(16) 0.3115(9) 1.0290(4)
H5 H 0.6401 0.3396 1.0375
C9 C 0.7783(16) 0.2476(10) 1.0498(5)
H6 H 0.7784 0.2920 1.0548
C10 C 0.8579(15) 0.2098(12) 1.0563(5)
H7 H 0.9127 0.2314 1.0646
C11 C 0.8625(16) 0.1476(10) 1.0516(6)
H8 H 0.9164 0.1237 1.0579
Cu1 Cu 0.57462(14) 0.11395(8) 1.01176(5)
Gd1 Gd 0.5000 -0.06357(5) 0.7500
N1 N 0.5375(10) 0.2057(6) 1.0138(3)
N2 N 0.6947(9) 0.1516(5) 1.0289(3)
O1 O 0.6825(8) -0.1891(5) 0.8737(3)
O2 O 0.5067(8) 0.0895(5) 0.8840(2)
O3 O 0.6856(8) 0.1201(5) 0.8940(3)
O4 O 0.5163(8) -0.1361(5) 0.8611(2)
O5 O 0.4270(7) -0.0252(5) 0.8684(3)
O6 O 0.8413(8) -0.1376(5) 0.8333(3)
O7 O 0.7619(7) -0.0602(5) 0.8831(2)
O8 O 0.8071(8) -0.0460(5) 0.7870(3)
O9 O 0.6846(8) -0.2008(5) 0.8049(3)
O10 O 0.5399(8) -0.0040(5) 0.9296(2)
O11 O 0.6594(7) -0.0840(5) 0.8248(2)
O12 O 0.6067(7) -0.0093(5) 0.8694(2)
O13 O 0.9331(9) -0.0493(6) 0.9155(3)
O14 O 0.5475(8) 0.0963(5) 0.8186(3)
O15 O 0.8364(9) 0.1996(6) 0.8874(3)
O16 O 0.5113(8) -0.1531(5) 0.7913(2)
O17 O 0.6014(7) 0.0252(5) 0.7674(2)
O18 O 0.6247(8) -0.1167(5) 0.9217(3)
O19 O 0.8462(8) 0.0660(5) 0.9046(3)
O20 O 0.4636(7) -0.0189(5) 0.8031(2)
O21 O 0.7124(9) 0.1558(5) 0.8294(3)
O22 O 0.7311(7) 0.0282(5) 0.8373(3)
O23 O 0.8577(8) -0.1663(5) 0.9023(3)
O24 O 0.7154(9) 0.0240(5) 0.9379(3)
O25 O 0.5909(10) 0.1225(5) 0.9521(2)
O26 O 0.4344(9) -0.1181(5) 0.9219(3)
O27 O 0.6551(7) -0.1068(5) 0.7547(3)
O28 O 0.5445(9) -0.2616(5) 0.8324(3)
O29 O 0.6083(8) 0.1594(5) 0.7606(3)
O30 O 0.7411(11) -0.2240(6) 0.9445(3)
O31 O 0.9165(8) -0.0242(6) 0.8464(3)
O32 O 0.3621(9) 0.0802(5) 0.8245(3)
O33 O 0.9545(10) 0.0432(7) 0.7879(4)
O34 O 0.8136(10) -0.1751(6) 0.7625(3)
O35 O 0.8984(10) 0.0207(6) 0.9747(3)
O36 O 1.0139(10) -0.1358(7) 0.8730(4)
O37 O 0.7695(8) 0.0827(5) 0.7805(3)
O38 O 0.8793(10) 0.1014(6) 0.8425(3)
O39 O 0.7995(9) -0.0915(6) 0.9491(3)
O40 O 0.6149(8) 0.0215(5) 1.0166(3)
O41 O 0.5507(7) -0.0774(5) 1.0054(3)
P1B P 0.3118(3) -0.03216(18) 0.64673(10)
W1B W 0.53514(5) 0.03990(3) 0.663252(16)
W2B W 0.41726(5) -0.18326(3) 0.670556(16)
W3B W 0.35606(5) 0.09661(3) 0.709977(16)
W4B W 0.39367(5) 0.07034(3) 0.582114(16)
W5B W 0.48837(5) -0.08019(3) 0.599805(15)
W6B W 0.26008(6) -0.15801(3) 0.583377(17)
W7B W 0.25133(5) -0.13079(3) 0.713846(17)
W8B W 0.21002(6) 0.12830(3) 0.629410(17)
W9B W 0.13818(5) 0.03047(4) 0.691111(18)
W10B W 0.16223(6) -0.00720(3) 0.564398(17)
W11B W 0.09161(6) -0.10444(4) 0.62716(2)
C1D C 0.4523(12) 0.0157(7) 0.9944(4)
C2D C 0.5446(14) -0.2290(8) 0.9953(5)
H1D H 0.5932 -0.2002 1.0020
C3D C 0.3898(13) -0.2467(7) 0.9734(4)
C4D C 0.3012(12) -0.2143(8) 0.9644(4)
C5D C 0.2244(16) -0.1184(10) 0.9643(5)
H2D H 0.2247 -0.0744 0.9703
C6D C 0.4929(16) -0.3367(8) 0.9802(5)
H3D H 0.5041 -0.3806 0.9765
C7D C 0.5629(16) -0.2958(9) 0.9954(6)
H4D H 0.6202 -0.3122 1.0053
C8D C 0.4082(16) -0.3115(9) 0.9710(4)
H5D H 0.3599 -0.3396 0.9625
C9D C 0.2217(16) -0.2476(10) 0.9502(5)
H6D H 0.2216 -0.2920 0.9452
C10D C 0.1421(15) -0.2098(12) 0.9437(5)
H7D H 0.0873 -0.2314 0.9354
C11D C 0.1375(16) -0.1476(10) 0.9484(6)
H8D H 0.0836 -0.1237 0.9421
Cu1D Cu 0.42538(14) -0.11395(8) 0.98824(5)
Cu1B Cu 0.42538(14) 0.11395(8) 0.48824(5)
Cu1F Cu 0.57462(14) -0.11395(8) 0.51176(5)
N1D N 0.4625(10) -0.2057(6) 0.9862(3)
N2D N 0.3053(9) -0.1516(5) 0.9711(3)
O1B O 0.3175(8) -0.1891(5) 0.6263(3)
O2B O 0.4933(8) 0.0895(5) 0.6160(2)
O3B O 0.3144(8) 0.1201(5) 0.6060(3)
O4B O 0.4837(8) -0.1361(5) 0.6389(2)
O5B O 0.5730(7) -0.0252(5) 0.6316(3)
O6B O 0.1587(8) -0.1376(5) 0.6667(3)
O7B O 0.2381(7) -0.0602(5) 0.6169(2)
O8B O 0.1929(8) -0.0460(5) 0.7130(3)
O9B O 0.3154(8) -0.2008(5) 0.6951(3)
O10B O 0.4601(8) -0.0040(5) 0.5704(2)
O11B O 0.3406(7) -0.0840(5) 0.6752(2)
O12B O 0.3933(7) -0.0093(5) 0.6306(2)
O13B O 0.0669(9) -0.0493(6) 0.5845(3)
O14B O 0.4525(8) 0.0963(5) 0.6814(3)
O15B O 0.1636(9) 0.1996(6) 0.6126(3)
O16B O 0.4887(8) -0.1531(5) 0.7087(2)
O17B O 0.3986(7) 0.0252(5) 0.7326(2)
O18B O 0.3753(8) -0.1167(5) 0.5783(3)
O19B O 0.1538(8) 0.0660(5) 0.5954(3)
O20B O 0.5364(7) -0.0189(5) 0.6969(2)
O21B O 0.2876(9) 0.1558(5) 0.6706(3)
O22B O 0.2689(7) 0.0282(5) 0.6627(3)
O23B O 0.1423(8) -0.1663(5) 0.5977(3)
O24B O 0.2846(9) 0.0240(5) 0.5621(3)
O25B O 0.4091(10) 0.1225(5) 0.5479(2)
O25D O 0.4091(10) -0.1225(5) 1.0479(2)
O26D O 0.5656(9) 0.1181(5) 1.0781(3)
O26B O 0.5656(9) -0.1181(5) 0.5781(3)
O27B O 0.3449(7) -0.1068(5) 0.7453(3)
O28B O 0.4555(9) -0.2616(5) 0.6676(3)
O29B O 0.3917(8) 0.1594(5) 0.7394(3)
O30B O 0.2589(11) -0.2240(6) 0.5555(3)
O31B O 0.0835(8) -0.0242(6) 0.6536(3)
O32B O 0.6379(9) 0.0802(5) 0.6755(3)
O33B O 0.0455(10) 0.0432(7) 0.7121(4)
O34B O 0.1864(10) -0.1751(6) 0.7375(3)
O35B O 0.1016(10) 0.0207(6) 0.5253(3)
O36B O -0.0139(10) -0.1358(7) 0.6270(4)
O37B O 0.2305(8) 0.0827(5) 0.7195(3)
O38B O 0.1207(10) 0.1014(6) 0.6575(3)
O39B O 0.2005(9) -0.0915(6) 0.5509(3)
O40D O 0.3851(8) -0.0215(5) 0.9834(3)
O41D O 0.4493(7) 0.0774(5) 0.9946(3)
loop_
_geom_bond_atom_site_label_1
_geom_bond_atom_site_label_2
_geom_bond_site_symmetry_1
_geom_bond_site_symmetry_2
P1 O7 1_555 1_555
W1 O2 1_555 1_555
W2 O1 1_555 1_555
W3 O14 1_555 1_555
W4 O2 1_555 1_555
W5 O4 1_555 1_555
W6 O1 1_555 1_555
W7 O6 1_555 1_555
W8 O3 1_555 1_555
W9 O8 1_555 1_555
W10 O7 1_555 1_555
W11 O6 1_555 1_555
C1 O40 1_555 1_555
C2 H1 1_555 1_555
C3 C4 1_555 1_555
C4 C9 1_555 1_555
C5 H2 1_555 1_555
C6 H3 1_555 1_555
C7 C2 1_555 1_555
H4 C7 1_555 1_555
C8 C3 1_555 1_555
H5 C8 1_555 1_555
C9 H6 1_555 1_555
C10 C9 1_555 1_555
H7 C10 1_555 1_555
C11 C5 1_555 1_555
H8 C11 1_555 1_555
Cu1 N1 1_555 1_555
Gd1 O16 1_555 1_555
N1 C2 1_555 1_555
N2 C4 1_555 1_555
O3 W4 1_555 1_555
O4 W2 1_555 1_555
O5 W1 1_555 1_555
O7 W6 1_555 1_555
O8 W7 1_555 1_555
O9 W2 1_555 1_555
O10 W4 1_555 1_555
O11 P1 1_555 1_555
O12 P1 1_555 1_555
O13 W10 1_555 1_555
O14 W1 1_555 1_555
O15 W8 1_555 1_555
O16 W2 1_555 1_555
O17 W3 1_555 1_555
O18 W5 1_555 1_555
O19 W8 1_555 1_555
O20 W1 1_555 1_555
O21 W3 1_555 1_555
O22 P1 1_555 1_555
O23 W6 1_555 1_555
O24 W4 1_555 1_555
O25 W4 1_555 1_555
O26 W5 1_555 1_555
O27 W7 1_555 1_555
O28 W2 1_555 1_555
O29 W3 1_555 1_555
O30 W6 1_555 1_555
O31 W9 1_555 1_555
O32 W1 1_555 1_555
O33 W9 1_555 1_555
O34 W7 1_555 1_555
O35 W10 1_555 1_555
O36 W11 1_555 1_555
O37 W3 1_555 1_555
O38 W8 1_555 1_555
O39 W6 1_555 1_555
O40 Cu1 1_555 1_555
O41 C1 1_555 1_555
P1B O7B 1_555 1_555
W1B O2B 1_555 1_555
W2B O1B 1_555 1_555
W3B O14B 1_555 1_555
W4B O2B 1_555 1_555
W5B O4B 1_555 1_555
W6B O1B 1_555 1_555
W7B O6B 1_555 1_555
W8B O3B 1_555 1_555
W9B O8B 1_555 1_555
W10B O7B 1_555 1_555
W11B O6B 1_555 1_555
C1D C1 1_555 1_555
C2D H1D 1_555 1_555
C3D C4D 1_555 1_555
C4D C9D 1_555 1_555
C5D H2D 1_555 1_555
C6D H3D 1_555 1_555
C7D C2D 1_555 1_555
H4D C7D 1_555 1_555
C8D C3D 1_555 1_555
H5D C8D 1_555 1_555
C9D H6D 1_555 1_555
C10D C9D 1_555 1_555
H7D C10D 1_555 1_555
C11D C5D 1_555 1_555
H8D C11D 1_555 1_555
Cu1D O26 1_555 1_555
Cu1B O25B 1_555 1_555
Cu1F O26B 1_555 1_555
N1D C2D 1_555 1_555
N2D C4D 1_555 1_555
O3B W4B 1_555 1_555
O4B W2B 1_555 1_555
O5B W1B 1_555 1_555
O7B W6B 1_555 1_555
O8B W7B 1_555 1_555
O9B W2B 1_555 1_555
O10B W4B 1_555 1_555
O11B P1B 1_555 1_555
O12B P1B 1_555 1_555
O13B W10B 1_555 1_555
O14B W1B 1_555 1_555
O15B W8B 1_555 1_555
O16B Gd1 1_555 1_555
O17B Gd1 1_555 1_555
O18B W5B 1_555 1_555
O19B W8B 1_555 1_555
O20B Gd1 1_555 1_555
O21B W3B 1_555 1_555
O22B P1B 1_555 1_555
O23B W6B 1_555 1_555
O24B W4B 1_555 1_555
O25B W4B 1_555 1_555
O25D Cu1D 1_555 1_555
O26D Cu1 1_555 1_555
O26B W5B 1_555 1_555
O27B Gd1 1_555 1_555
O28B W2B 1_555 1_555
O29B W3B 1_555 1_555
O30B W6B 1_555 1_555
O31B W9B 1_555 1_555
O32B W1B 1_555 1_555
O33B W9B 1_555 1_555
O34B W7B 1_555 1_555
O35B W10B 1_555 1_555
O36B W11B 1_555 1_555
O37B W3B 1_555 1_555
O38B W8B 1_555 1_555
O39B W6B 1_555 1_555
O40D C1D 1_555 1_555
O41D Cu1 1_555 1_555
W1 O12 1_555 1_555
W2 O11 1_555 1_555
W3 O22 1_555 1_555
W4 O12 1_555 1_555
W5 O5 1_555 1_555
W5 O10 1_555 1_555
W5 O12 1_555 1_555
W6 O18 1_555 1_555
W7 O9 1_555 1_555
W7 O11 1_555 1_555
W8 O21 1_555 1_555
W8 O22 1_555 1_555
W9 O22 1_555 1_555
W9 O37 1_555 1_555
W9 O38 1_555 1_555
W10 O19 1_555 1_555
W10 O24 1_555 1_555
W10 O39 1_555 1_555
W11 O7 1_555 1_555
W11 O13 1_555 1_555
W11 O23 1_555 1_555
W11 O31 1_555 1_555
C3 N1 1_555 1_555
C5 N2 1_555 1_555
C6 C7 1_555 1_555
C6 C8 1_555 1_555
C10 C11 1_555 1_555
Cu1 N2 1_555 1_555
Cu1 O25 1_555 1_555
Gd1 O17 1_555 1_555
Gd1 O20 1_555 1_555
Gd1 O27 1_555 1_555
O41 Cu1D 1_555 1_555
W1B O12B 1_555 1_555
W1B O20B 1_555 1_555
W2B O11B 1_555 1_555
W2B O16B 1_555 1_555
W3B O17B 1_555 1_555
W3B O22B 1_555 1_555
W4B O12B 1_555 1_555
W5B O5B 1_555 1_555
W5B O10B 1_555 1_555
W5B O12B 1_555 1_555
W6B O18B 1_555 1_555
W7B O9B 1_555 1_555
W7B O11B 1_555 1_555
W7B O27B 1_555 1_555
W8B O21B 1_555 1_555
W8B O22B 1_555 1_555
W9B O22B 1_555 1_555
W9B O37B 1_555 1_555
W9B O38B 1_555 1_555
W10B O19B 1_555 1_555
W10B O24B 1_555 1_555
W10B O39B 1_555 1_555
W11B O7B 1_555 1_555
W11B O13B 1_555 1_555
W11B O23B 1_555 1_555
W11B O31B 1_555 1_555
C1D O41D 1_555 1_555
C3D N1D 1_555 1_555
C5D N2D 1_555 1_555
C6D C7D 1_555 1_555
C6D C8D 1_555 1_555
C10D C11D 1_555 1_555
Cu1D N1D 1_555 1_555
Cu1D N2D 1_555 1_555
Cu1D O40D 1_555 1_555

#END
