
#######################################################################
#
#                 Cambridge Crystallographic Data Centre
#                                CCDC 
#
#######################################################################
#
# If this CIF has been generated from an entry in the Cambridge 
# Structural Database, then it will include bibliographic, chemical, 
# crystal, experimental, refinement or atomic coordinate data resulting 
# from the CCDC's data processing and validation procedures.
#
#######################################################################

data_YISLOC
_symmetry_cell_setting           monoclinic
_symmetry_space_group_name_H-M   'C 2/c'
_symmetry_Int_Tables_number      15
_space_group_name_Hall           '-C 2yn'
loop_
_symmetry_equiv_pos_site_id
_symmetry_equiv_pos_as_xyz
1 x,y,z
2 1/2+x,1/2+y,z
3 -x,y,1/2-z
4 1/2-x,1/2+y,1/2-z
5 -x,-y,-z
6 1/2-x,1/2-y,-z
7 x,-y,1/2+z
8 1/2+x,1/2-y,1/2+z
_cell_length_a                   14.764(2)
_cell_length_b                   20.448(2)
_cell_length_c                   38.477(4)
_cell_angle_alpha                90
_cell_angle_beta                 99.961(3)
_cell_angle_gamma                90
_cell_volume                     11440.9
loop_
_atom_site_label
_atom_site_type_symbol
_atom_site_fract_x
_atom_site_fract_y
_atom_site_fract_z
K1 K 0.6643(3) 0.3736(2) 0.68457(9)
C1 C 0.4334(11) 0.7956(7) 1.0061(4)
H1 H 0.3745 0.8116 0.9981
C2 C 0.6936(10) 0.7151(6) 1.0356(3)
C3 C 0.6078(10) 0.7456(6) 1.0276(3)
C4 C 0.4547(11) 0.7275(6) 1.0041(4)
H2 H 0.4082 0.6983 0.9953
C5 C 0.5031(13) 0.8353(7) 1.0200(4)
H3 H 0.4923 0.8796 1.0228
C6 C 0.5890(12) 0.8109(6) 1.0299(3)
H4 H 0.6367 0.8394 1.0386
C7 C 0.4529(8) 0.5161(6) 0.9933(3)
N1 N 0.6940(8) 0.6511(5) 1.0294(2)
N2 N 0.5367(9) 0.7061(5) 1.0143(3)
O1 O 0.9008(7) 0.5188(5) 0.9746(2)
O2 O 0.7988(6) 0.4091(4) 0.9492(2)
O3 O 0.7160(7) 0.5237(4) 0.9366(2)
O4 O 0.9301(6) 0.4507(4) 0.9155(2)
O5 O 0.8467(6) 0.5658(4) 0.9052(2)
O6 O 1.0151(7) 0.3639(5) 0.8739(3)
O7 O 0.8351(7) 0.7002(4) 0.8874(2)
O8 O 0.8796(6) 0.6002(4) 0.8428(2)
O9 O 0.9504(7) 0.5438(5) 0.7870(3)
O10 O 0.8384(6) 0.3608(4) 0.8328(2)
O11 O 0.8142(6) 0.3237(4) 0.7629(2)
O12 O 0.8058(6) 0.4540(4) 0.7870(2)
O13 O 0.6578(6) 0.4163(3) 0.82487(18)
O14 O 0.6551(6) 0.3920(4) 0.75488(19)
O15 O 0.6030(6) 0.5253(4) 0.76813(18)
O16 O 0.4654(6) 0.4799(3) 0.80375(18)
O17 O 0.3638(6) 0.5795(4) 0.8254(2)
O18 O 0.5077(6) 0.5898(4) 0.88387(19)
O19 O 0.5901(7) 0.6236(4) 0.95140(19)
O20 O 0.6868(6) 0.6197(4) 0.8942(2)
O21 O 0.7121(6) 0.6547(4) 0.8297(2)
O22 O 0.5422(6) 0.4958(3) 0.93009(18)
O23 O 0.6093(6) 0.6593(4) 0.7607(2)
O24 O 0.6834(6) 0.2984(4) 0.80493(18)
O25 O 0.6807(6) 0.3110(4) 0.87493(19)
O26 O 0.7411(8) 0.2755(4) 0.9445(2)
O27 O 0.8566(7) 0.3334(4) 0.9026(2)
O28 O 0.5432(6) 0.2394(4) 0.8333(2)
O29 O 0.5111(6) 0.3455(4) 0.79105(18)
O30 O 0.4305(6) 0.4752(3) 0.8694(2)
O31 O 0.6232(6) 0.3834(4) 0.92113(18)
O32 O 0.7601(6) 0.4394(4) 0.88294(19)
O33 O 0.5168(6) 0.3627(4) 0.86167(18)
O34 O 0.4385(6) 0.3819(3) 0.92280(18)
O35 O 0.7671(6) 0.5831(4) 0.7807(2)
O36 O 0.7288(6) 0.5283(3) 0.83777(19)
O37 O 0.9139(6) 0.4749(4) 0.8469(2)
O38 O 0.6060(6) 0.4894(3) 0.86962(17)
O39 O 0.5502(6) 0.5952(3) 0.81945(19)
O40 O 0.4492(6) 0.5781(4) 0.9946(2)
O41 O 0.3858(6) 0.4791(4) 0.9834(2)
C8 C 0.8596(10) 0.6462(7) 1.0498(3)
H5 H 0.9140 0.6223 1.0543
C9 C 0.7772(11) 0.7453(7) 1.0499(3)
H6 H 0.7780 0.7898 1.0549
C10 C 0.7768(11) 0.6183(7) 1.0356(3)
H7 H 0.7766 0.5741 1.0299
C11 C 0.8564(12) 0.7109(7) 1.0568(4)
H8 H 0.9104 0.7323 1.0665
Cu1 Cu 0.57442(11) 0.61401(6) 1.01172(4)
Eu1 Eu 0.5000 0.43596(4) 0.7500
P1 P 0.6875(2) 0.46779(13) 0.85329(7)
W1 W 0.58314(4) 0.31630(2) 0.829648(12)
W2 W 0.83736(4) 0.49277(3) 0.935690(13)
W3 W 0.90772(4) 0.39544(3) 0.872926(15)
W4 W 0.51254(4) 0.41963(2) 0.900396(12)
W5 W 0.46559(4) 0.53977(2) 0.836946(12)
W6 W 0.64379(4) 0.59655(2) 0.790095(12)
W7 W 0.78946(4) 0.62817(2) 0.870626(13)
W8 W 0.60686(4) 0.57022(2) 0.918022(12)
W9 W 0.86075(4) 0.53019(3) 0.808874(14)
W10 W 0.73975(4) 0.34181(3) 0.916803(13)
W11 W 0.74823(4) 0.36876(2) 0.786273(13)
C1D C 0.5666(11) 0.2044(7) 0.9939(4)
H1D H 0.6255 0.1884 1.0019
C2D C 0.3064(10) 0.2849(6) 0.9644(3)
C3D C 0.3922(10) 0.2544(6) 0.9724(3)
C4D C 0.5453(11) 0.2725(6) 0.9959(4)
H2D H 0.5918 0.3017 1.0047
C5D C 0.4969(13) 0.1647(7) 0.9800(4)
H3D H 0.5077 0.1204 0.9772
C6D C 0.4110(12) 0.1891(6) 0.9701(3)
H4D H 0.3633 0.1606 0.9614
C7D C 0.5471(8) 0.4839(6) 1.0067(3)
N1D N 0.3060(8) 0.3489(5) 0.9706(2)
N2D N 0.4633(9) 0.2939(5) 0.9857(3)
O1B O 0.0992(7) 0.5188(5) 0.5254(2)
O2B O 0.2012(6) 0.4091(4) 0.5508(2)
O3B O 0.2840(7) 0.5237(4) 0.5634(2)
O4B O 0.0699(6) 0.4507(4) 0.5845(2)
O5B O 0.1533(6) 0.5658(4) 0.5948(2)
O6B O -0.0151(7) 0.3639(5) 0.6261(3)
O7B O 0.1649(7) 0.7002(4) 0.6126(2)
O8B O 0.1204(6) 0.6002(4) 0.6572(2)
O9B O 0.0496(7) 0.5438(5) 0.7130(3)
O10B O 0.1616(6) 0.3608(4) 0.6672(2)
O11B O 0.1858(6) 0.3237(4) 0.7371(2)
O12B O 0.1942(6) 0.4540(4) 0.7130(2)
O13B O 0.3422(6) 0.4163(3) 0.67513(18)
O14B O 0.3449(6) 0.3920(4) 0.74512(19)
O15B O 0.3970(6) 0.5253(4) 0.73187(18)
O16B O 0.5346(6) 0.4799(3) 0.69625(18)
O17B O 0.6362(6) 0.5795(4) 0.6746(2)
O18B O 0.4923(6) 0.5898(4) 0.61613(19)
O19B O 0.4099(7) 0.6236(4) 0.54860(19)
O19D O 0.4099(7) 0.3764(4) 1.04860(19)
O20B O 0.3132(6) 0.6197(4) 0.6058(2)
O21B O 0.2879(6) 0.6547(4) 0.6703(2)
O22B O 0.4578(6) 0.4958(3) 0.56991(18)
O23B O 0.3907(6) 0.6593(4) 0.7393(2)
O24B O 0.3166(6) 0.2984(4) 0.69507(18)
O25B O 0.3193(6) 0.3110(4) 0.62507(19)
O26B O 0.2589(8) 0.2755(4) 0.5555(2)
O27B O 0.1434(7) 0.3334(4) 0.5974(2)
O28B O 0.4568(6) 0.2394(4) 0.6667(2)
O29B O 0.4889(6) 0.3455(4) 0.70895(18)
O30B O 0.5695(6) 0.4752(3) 0.6306(2)
O31B O 0.3768(6) 0.3834(4) 0.57887(18)
O32B O 0.2399(6) 0.4394(4) 0.61706(19)
O33B O 0.4832(6) 0.3627(4) 0.63833(18)
O34B O 0.5615(6) 0.3819(3) 0.57720(18)
O34D O 0.5615(6) 0.6181(3) 1.07720(18)
O35B O 0.2329(6) 0.5831(4) 0.7193(2)
O36B O 0.2712(6) 0.5283(3) 0.66223(19)
O37B O 0.0861(6) 0.4749(4) 0.6531(2)
O38B O 0.3940(6) 0.4894(3) 0.63038(17)
O39B O 0.4498(6) 0.5952(3) 0.68055(19)
O40D O 0.5508(6) 0.4219(4) 1.0054(2)
O41D O 0.6142(6) 0.5209(4) 1.0166(2)
C8D C 0.1404(10) 0.3538(7) 0.9502(3)
H5D H 0.0860 0.3777 0.9457
C9D C 0.2228(11) 0.2547(7) 0.9501(3)
H6D H 0.2220 0.2102 0.9451
C10D C 0.2232(11) 0.3817(7) 0.9644(3)
H7D H 0.2234 0.4259 0.9701
C11D C 0.1436(12) 0.2891(7) 0.9432(4)
H8D H 0.0896 0.2677 0.9335
Cu1B Cu 0.42558(11) 0.61401(6) 0.48828(4)
Cu1D Cu 0.42558(11) 0.38599(6) 0.98828(4)
Cu1F Cu 0.57442(11) 0.38599(6) 0.51172(4)
P1B P 0.3125(2) 0.46779(13) 0.64671(7)
W1B W 0.41686(4) 0.31630(2) 0.670352(12)
W2B W 0.16264(4) 0.49277(3) 0.564310(13)
W3B W 0.09228(4) 0.39544(3) 0.627074(15)
W4B W 0.48746(4) 0.41963(2) 0.599604(12)
W5B W 0.53441(4) 0.53977(2) 0.663054(12)
W6B W 0.35621(4) 0.59655(2) 0.709905(12)
W7B W 0.21054(4) 0.62817(2) 0.629374(13)
W8B W 0.39314(4) 0.57022(2) 0.581978(12)
W9B W 0.13925(4) 0.53019(3) 0.691126(14)
W10B W 0.26025(4) 0.34181(3) 0.583197(13)
W11B W 0.25177(4) 0.36876(2) 0.713727(13)
loop_
_geom_bond_atom_site_label_1
_geom_bond_atom_site_label_2
_geom_bond_site_symmetry_1
_geom_bond_site_symmetry_2
C1 H1 1_555 1_555
C2 C3 1_555 1_555
C3 C6 1_555 1_555
C4 C1 1_555 1_555
H2 C4 1_555 1_555
C5 C1 1_555 1_555
H3 C5 1_555 1_555
C6 C5 1_555 1_555
H4 C6 1_555 1_555
C7 O40 1_555 1_555
N1 C2 1_555 1_555
N2 C3 1_555 1_555
O1 W2 1_555 1_555
O2 W2 1_555 1_555
O3 W2 1_555 1_555
O4 W2 1_555 1_555
O5 W2 1_555 1_555
O6 W3 1_555 1_555
O7 W7 1_555 1_555
O8 W7 1_555 1_555
O9 W9 1_555 1_555
O10 W3 1_555 1_555
O11 W11 1_555 1_555
O12 W9 1_555 1_555
O13 P1 1_555 1_555
O14 Eu1 1_555 1_555
O15 Eu1 1_555 1_555
O16 Eu1 1_555 1_555
O17 W5 1_555 1_555
O18 W5 1_555 1_555
O19 Cu1 1_555 1_555
O20 W7 1_555 1_555
O21 W6 1_555 1_555
O22 W4 1_555 1_555
O23 W6 1_555 1_555
O24 W1 1_555 1_555
O25 W1 1_555 1_555
O26 W10 1_555 1_555
O27 W3 1_555 1_555
O28 W1 1_555 1_555
O29 Eu1 1_555 1_555
O30 W4 1_555 1_555
O31 W4 1_555 1_555
O32 P1 1_555 1_555
O33 W1 1_555 1_555
O34 W4 1_555 1_555
O35 W6 1_555 1_555
O36 P1 1_555 1_555
O37 W3 1_555 1_555
O38 P1 1_555 1_555
O39 W5 1_555 1_555
O40 Cu1 1_555 1_555
O41 C7 1_555 1_555
C8 H5 1_555 1_555
C9 C2 1_555 1_555
H6 C9 1_555 1_555
C10 N1 1_555 1_555
H7 C10 1_555 1_555
C11 C8 1_555 1_555
H8 C11 1_555 1_555
Cu1 N1 1_555 1_555
Eu1 O14B 1_555 1_555
W1 O13 1_555 1_555
W2 O32 1_555 1_555
W3 O4 1_555 1_555
W4 O33 1_555 1_555
W5 O16 1_555 1_555
W6 O15 1_555 1_555
W7 O5 1_555 1_555
W8 O3 1_555 1_555
W9 O8 1_555 1_555
W10 O2 1_555 1_555
W11 O10 1_555 1_555
C1D H1D 1_555 1_555
C2D C3D 1_555 1_555
C3D C6D 1_555 1_555
C4D C1D 1_555 1_555
H2D C4D 1_555 1_555
C5D C1D 1_555 1_555
H3D C5D 1_555 1_555
C6D C5D 1_555 1_555
H4D C6D 1_555 1_555
C7D C7 1_555 1_555
N1D C2D 1_555 1_555
N2D C3D 1_555 1_555
O1B W2B 1_555 1_555
O2B W2B 1_555 1_555
O3B W2B 1_555 1_555
O4B W2B 1_555 1_555
O5B W2B 1_555 1_555
O6B W3B 1_555 1_555
O7B W7B 1_555 1_555
O8B W7B 1_555 1_555
O9B W9B 1_555 1_555
O10B W3B 1_555 1_555
O11B W11B 1_555 1_555
O12B W9B 1_555 1_555
O13B P1B 1_555 1_555
O14B W11B 1_555 1_555
O15B Eu1 1_555 1_555
O16B Eu1 1_555 1_555
O17B W5B 1_555 1_555
O18B W5B 1_555 1_555
O19B Cu1B 1_555 1_555
O19D Cu1D 1_555 1_555
O20B W7B 1_555 1_555
O21B W6B 1_555 1_555
O22B W4B 1_555 1_555
O23B W6B 1_555 1_555
O24B W1B 1_555 1_555
O25B W1B 1_555 1_555
O26B W10B 1_555 1_555
O27B W3B 1_555 1_555
O28B W1B 1_555 1_555
O29B Eu1 1_555 1_555
O30B W4B 1_555 1_555
O31B W4B 1_555 1_555
O32B P1B 1_555 1_555
O33B W1B 1_555 1_555
O34B Cu1F 1_555 1_555
O34D Cu1 1_555 1_555
O35B W6B 1_555 1_555
O36B P1B 1_555 1_555
O37B W3B 1_555 1_555
O38B P1B 1_555 1_555
O39B W5B 1_555 1_555
O40D C7D 1_555 1_555
O41D Cu1 1_555 1_555
C8D H5D 1_555 1_555
C9D C2D 1_555 1_555
H6D C9D 1_555 1_555
C10D N1D 1_555 1_555
H7D C10D 1_555 1_555
C11D C8D 1_555 1_555
H8D C11D 1_555 1_555
Cu1D O34 1_555 1_555
W1B O13B 1_555 1_555
W2B O32B 1_555 1_555
W3B O4B 1_555 1_555
W4B O33B 1_555 1_555
W5B O16B 1_555 1_555
W6B O15B 1_555 1_555
W7B O5B 1_555 1_555
W8B O3B 1_555 1_555
W9B O8B 1_555 1_555
W10B O2B 1_555 1_555
W11B O10B 1_555 1_555
C4 N2 1_555 1_555
N2 Cu1 1_555 1_555
O12 W11 1_555 1_555
O13 W11 1_555 1_555
O14 W11 1_555 1_555
O18 W8 1_555 1_555
O19 W8 1_555 1_555
O20 W8 1_555 1_555
O21 W7 1_555 1_555
O22 W8 1_555 1_555
O24 W11 1_555 1_555
O25 W10 1_555 1_555
O27 W10 1_555 1_555
O29 W1 1_555 1_555
O30 W5 1_555 1_555
O31 W10 1_555 1_555
O32 W3 1_555 1_555
O32 W10 1_555 1_555
O35 W9 1_555 1_555
O36 W6 1_555 1_555
O36 W7 1_555 1_555
O36 W9 1_555 1_555
O37 W9 1_555 1_555
O38 W4 1_555 1_555
O38 W5 1_555 1_555
O38 W8 1_555 1_555
O39 W6 1_555 1_555
O41 Cu1D 1_555 1_555
C8 C10 1_555 1_555
C9 C11 1_555 1_555
C4D N2D 1_555 1_555
C7D O41D 1_555 1_555
N1D Cu1D 1_555 1_555
N2D Cu1D 1_555 1_555
O12B W11B 1_555 1_555
O13B W11B 1_555 1_555
O18B W8B 1_555 1_555
O19B W8B 1_555 1_555
O20B W8B 1_555 1_555
O21B W7B 1_555 1_555
O22B W8B 1_555 1_555
O24B W11B 1_555 1_555
O25B W10B 1_555 1_555
O27B W10B 1_555 1_555
O29B W1B 1_555 1_555
O30B W5B 1_555 1_555
O31B W10B 1_555 1_555
O32B W3B 1_555 1_555
O32B W10B 1_555 1_555
O34B W4B 1_555 1_555
O35B W9B 1_555 1_555
O36B W6B 1_555 1_555
O36B W7B 1_555 1_555
O36B W9B 1_555 1_555
O37B W9B 1_555 1_555
O38B W4B 1_555 1_555
O38B W5B 1_555 1_555
O38B W8B 1_555 1_555
O39B W6B 1_555 1_555
O40D Cu1D 1_555 1_555
C8D C10D 1_555 1_555
C9D C11D 1_555 1_555

#END
