
#######################################################################
#
#                 Cambridge Crystallographic Data Centre
#                                CCDC 
#
#######################################################################
#
# If this CIF has been generated from an entry in the Cambridge 
# Structural Database, then it will include bibliographic, chemical, 
# crystal, experimental, refinement or atomic coordinate data resulting 
# from the CCDC's data processing and validation procedures.
#
#######################################################################

data_YISMIX01
_symmetry_cell_setting           monoclinic
_symmetry_space_group_name_H-M   'C 2/c'
_symmetry_Int_Tables_number      15
_space_group_name_Hall           '-C 2yn'
loop_
_symmetry_equiv_pos_site_id
_symmetry_equiv_pos_as_xyz
1 x,y,z
2 1/2+x,1/2+y,z
3 -x,y,1/2-z
4 1/2-x,1/2+y,1/2-z
5 -x,-y,-z
6 1/2-x,1/2-y,-z
7 x,-y,1/2+z
8 1/2+x,1/2-y,1/2+z
_cell_length_a                   30.139(6)
_cell_length_b                   9.6621(19)
_cell_length_c                   8.4106(17)
_cell_angle_alpha                90
_cell_angle_beta                 94.56(3)
_cell_angle_gamma                90
_cell_volume                     2441.46
loop_
_atom_site_label
_atom_site_type_symbol
_atom_site_fract_x
_atom_site_fract_y
_atom_site_fract_z
Cd1 Cd 0.292172(3) 0.851421(8) 0.241461(9)
O1 O 0.49476(4) 0.81568(12) -0.01826(14)
N1 N 0.34841(3) 0.70752(10) 0.41398(12)
C1 C 0.46520(4) 0.85485(14) 0.07856(17)
O2 O 0.45754(4) 0.97716(11) 0.10892(14)
C2 C 0.44154(4) 0.74014(14) 0.15254(15)
O3 O 0.27095(3) 0.62573(9) 0.22737(11)
C3 C 0.45379(4) 0.60250(14) 0.12970(15)
H1 H 0.4773 0.5806 0.0651
O4 O 0.27809(3) 0.41353(9) 0.32963(10)
C4 C 0.43116(4) 0.49864(13) 0.20257(16)
H2 H 0.4394 0.4048 0.1885
O5 O 0.29257(3) 0.91277(9) 0.50569(10)
C5 C 0.39631(4) 0.53004(13) 0.29658(15)
H3 H 0.3807 0.4576 0.3444
O6 O 0.33546(3) 0.95873(9) 0.72809(10)
C6 C 0.38435(4) 0.66765(12) 0.32043(14)
O7 O 0.32054(3) 0.78652(10) 0.00568(11)
C7 C 0.40721(4) 0.77290(13) 0.24726(15)
H4 H 0.3993 0.8669 0.2622
C8 C 0.36297(4) 0.79570(12) 0.55185(14)
H5 H 0.3894 0.8495 0.5262
H6 H 0.3719 0.7359 0.6445
C9 C 0.32013(4) 0.59353(12) 0.46308(14)
H7 H 0.3031 0.6254 0.5521
H8 H 0.3393 0.5158 0.5028
C10 C 0.32687(4) 0.89526(12) 0.59706(14)
C11 C 0.28766(4) 0.54176(12) 0.32779(13)
H9 H 0.5088(9) 0.881(3) -0.044(3)
H10 H 0.3060(8) 0.726(3) -0.041(3)
H11 H 0.3228(8) 0.842(2) -0.062(3)
Cd1C Cd 0.207828(3) 0.351421(8) 0.258539(9)
Cd1F Cd 0.292172(3) 1.148579(8) 0.741461(9)
O4C O 0.22191(3) 0.91353(9) 0.17037(10)
O6F O 0.33546(3) 1.04127(9) 0.22809(10)
loop_
_geom_bond_atom_site_label_1
_geom_bond_atom_site_label_2
_geom_bond_site_symmetry_1
_geom_bond_site_symmetry_2
Cd1 N1 1_555 1_555
O1 C1 1_555 1_555
N1 C6 1_555 1_555
C1 O2 1_555 1_555
C2 C1 1_555 1_555
O3 Cd1 1_555 1_555
C3 C2 1_555 1_555
H1 C3 1_555 1_555
O4 C11 1_555 1_555
C4 C3 1_555 1_555
H2 C4 1_555 1_555
O5 Cd1 1_555 1_555
C5 C4 1_555 1_555
H3 C5 1_555 1_555
O6 C10 1_555 1_555
C6 C5 1_555 1_555
O7 Cd1 1_555 1_555
C7 C2 1_555 1_555
H4 C7 1_555 1_555
C8 N1 1_555 1_555
H5 C8 1_555 1_555
H6 C8 1_555 1_555
C9 N1 1_555 1_555
H7 C9 1_555 1_555
H8 C9 1_555 1_555
C10 O5 1_555 1_555
C11 O3 1_555 1_555
H9 O1 1_555 1_555
H10 O7 1_555 1_555
H11 O7 1_555 1_555
Cd1C O4 1_555 1_555
Cd1F O6 1_555 1_555
O4C Cd1 1_555 1_555
O6F Cd1 1_555 1_555
C6 C7 1_555 1_555
C8 C10 1_555 1_555
C9 C11 1_555 1_555

#END
