
#######################################################################
#
#                 Cambridge Crystallographic Data Centre
#                                CCDC 
#
#######################################################################
#
# If this CIF has been generated from an entry in the Cambridge 
# Structural Database, then it will include bibliographic, chemical, 
# crystal, experimental, refinement or atomic coordinate data resulting 
# from the CCDC's data processing and validation procedures.
#
#######################################################################

data_YISMAP
_symmetry_cell_setting           monoclinic
_symmetry_space_group_name_H-M   'C 2/c'
_symmetry_Int_Tables_number      15
_space_group_name_Hall           '-C 2yn'
loop_
_symmetry_equiv_pos_site_id
_symmetry_equiv_pos_as_xyz
1 x,y,z
2 1/2+x,1/2+y,z
3 -x,y,1/2-z
4 1/2-x,1/2+y,1/2-z
5 -x,-y,-z
6 1/2-x,1/2-y,-z
7 x,-y,1/2+z
8 1/2+x,1/2-y,1/2+z
_cell_length_a                   14.6697(5)
_cell_length_b                   20.4327(7)
_cell_length_c                   38.3365(12)
_cell_angle_alpha                90
_cell_angle_beta                 100.1970(10)
_cell_angle_gamma                90
_cell_volume                     11309.5
loop_
_atom_site_label
_atom_site_type_symbol
_atom_site_fract_x
_atom_site_fract_y
_atom_site_fract_z
K1 K 0.3323(2) 0.62782(17) 0.31440(8)
P1 P 0.3139(2) 0.53206(14) 0.14700(7)
W1 W 0.53761(4) 0.46142(2) 0.164762(11)
W2 W 0.41825(4) 0.68322(2) 0.171308(11)
W3 W 0.39692(4) 0.42953(2) 0.082913(11)
W4 W 0.35811(4) 0.40483(2) 0.211068(12)
W5 W 0.25291(4) 0.63054(2) 0.214151(12)
W6 W 0.26138(4) 0.65792(2) 0.083236(12)
W7 W 0.21267(4) 0.37126(2) 0.129986(13)
W8 W 0.49072(4) 0.58063(2) 0.100407(11)
W9 W 0.13879(4) 0.46933(3) 0.191284(13)
W10 W 0.09207(4) 0.60426(3) 0.126867(14)
W11 W 0.16416(4) 0.50655(3) 0.064231(12)
Yb1 Yb 0.5000 0.56420(3) 0.2500
Cu1 Cu 0.42518(10) 0.38576(6) -0.01146(3)
C1 C 0.2243(10) 0.3806(7) -0.0341(3)
H1 H 0.2238 0.4249 -0.0285
C2 C 0.3005(8) 0.2847(5) -0.0361(2)
C3 C 0.3926(9) 0.2525(5) -0.0265(3)
C4 C 0.4125(12) 0.1870(6) -0.0293(3)
H2 H 0.3654 0.1578 -0.0381
C5 C 0.5510(9) 0.2712(6) -0.0043(3)
H3 H 0.5990 0.3000 0.0040
C6 C 0.4513(8) 0.5156(6) -0.0054(3)
C7 C 0.2213(10) 0.2523(7) -0.0507(3)
H4 H 0.2226 0.2082 -0.0564
C8 C 0.1404(10) 0.2867(7) -0.0566(3)
H5 H 0.0854 0.2659 -0.0663
C9 C 0.1398(9) 0.3494(7) -0.0485(3)
H6 H 0.0846 0.3729 -0.0523
C10 C 0.4999(12) 0.1652(7) -0.0195(4)
H7 H 0.5121 0.1208 -0.0214
C11 C 0.5689(11) 0.2054(7) -0.0071(4)
H8 H 0.6287 0.1893 -0.0004
N1 N 0.3037(7) 0.3484(4) -0.0282(2)
N2 N 0.4656(7) 0.2932(4) -0.0135(2)
O1 O 0.4892(5) 0.6514(3) 0.21032(16)
O2 O 0.3492(5) 0.6062(3) 0.24525(18)
O3 O 0.1881(5) 0.6757(4) 0.2392(2)
O4 O 0.0478(6) 0.4580(4) 0.2127(2)
O5 O -0.0157(6) 0.6365(5) 0.1264(2)
O6 O 0.0696(5) 0.5500(4) 0.0844(2)
O7 O 0.1030(6) 0.4799(4) 0.02504(19)
O8 O 0.2001(5) 0.5908(4) 0.05086(18)
O9 O 0.2877(6) 0.4748(3) 0.06355(19)
O10 O 0.4110(6) 0.3772(3) 0.04959(18)
O11 O 0.3854(5) 0.4777(3) -0.01566(18)
O12 O 0.5505(5) 0.4230(3) 0.00508(17)
O13 O 0.4987(5) 0.4106(3) 0.11844(18)
O14 O 0.4623(5) 0.5035(3) 0.07130(16)
O15 O 0.2896(6) 0.3461(4) 0.1708(2)
O16 O 0.3749(5) 0.6168(3) 0.07908(17)
O17 O 0.5677(5) 0.6181(3) 0.07860(18)
O18 O 0.6399(5) 0.4229(3) 0.17744(19)
O19 O 0.5344(5) 0.5210(3) 0.19734(16)
O20 O 0.4837(5) 0.6370(3) 0.13914(18)
O21 O 0.3999(5) 0.4772(3) 0.23257(17)
O22 O 0.3419(5) 0.5835(3) 0.17545(16)
O23 O 0.3189(5) 0.6893(3) 0.12582(18)
O24 O 0.1927(5) 0.5458(3) 0.21312(17)
O25 O 0.1611(5) 0.6384(3) 0.16675(19)
O26 O 0.3163(5) 0.7012(3) 0.19465(17)
O27 O 0.4602(6) 0.7614(3) 0.16889(18)
O28 O 0.1568(5) 0.4332(4) 0.09526(17)
O29 O 0.3188(5) 0.3801(3) 0.10701(16)
O30 O 0.1666(6) 0.2989(4) 0.11363(19)
O31 O 0.3921(6) 0.3444(3) 0.24098(19)
O32 O 0.2335(5) 0.4186(4) 0.22006(18)
O33 O 0.2746(5) 0.4710(3) 0.16303(16)
O34 O 0.4523(5) 0.4052(3) 0.18161(16)
O35 O 0.1223(5) 0.3987(4) 0.15715(19)
O36 O 0.2587(6) 0.7242(4) 0.0557(2)
O37 O 0.1429(5) 0.6669(4) 0.0971(2)
O38 O 0.5726(5) 0.5255(3) 0.13179(17)
O39 O 0.2401(5) 0.5597(3) 0.11710(17)
O40 O 0.3967(5) 0.5098(3) 0.13133(16)
O41 O 0.0851(5) 0.5252(4) 0.1521(2)
P1B P 0.6861(2) 0.53206(14) 0.35300(7)
W1B W 0.46239(4) 0.46142(2) 0.335238(11)
W2B W 0.58175(4) 0.68322(2) 0.328692(11)
W3B W 0.60308(4) 0.42953(2) 0.417087(11)
W4B W 0.64189(4) 0.40483(2) 0.288932(12)
W5B W 0.74709(4) 0.63054(2) 0.285849(12)
W6B W 0.73862(4) 0.65792(2) 0.416764(12)
W7B W 0.78733(4) 0.37126(2) 0.370014(13)
W8B W 0.50928(4) 0.58063(2) 0.399593(11)
W9B W 0.86121(4) 0.46933(3) 0.308716(13)
W10B W 0.90793(4) 0.60426(3) 0.373133(14)
W11B W 0.83584(4) 0.50655(3) 0.435769(12)
Cu1D Cu 0.57482(10) 0.61424(6) 0.01146(3)
Cu1F Cu 0.42518(10) 0.61424(6) 0.48854(3)
Cu1B Cu 0.57482(10) 0.38576(6) 0.51146(3)
C1D C 0.7757(10) 0.6194(7) 0.0341(3)
H1D H 0.7762 0.5751 0.0285
C2D C 0.6995(8) 0.7153(5) 0.0361(2)
C3D C 0.6074(9) 0.7475(5) 0.0265(3)
C4D C 0.5875(12) 0.8130(6) 0.0293(3)
H2D H 0.6346 0.8422 0.0381
C5D C 0.4490(9) 0.7288(6) 0.0043(3)
H3D H 0.4010 0.7000 -0.0040
C6D C 0.5487(8) 0.4844(6) 0.0054(3)
C7D C 0.7787(10) 0.7477(7) 0.0507(3)
H4D H 0.7774 0.7918 0.0564
C8D C 0.8596(10) 0.7133(7) 0.0566(3)
H5D H 0.9146 0.7341 0.0663
C9D C 0.8602(9) 0.6506(7) 0.0485(3)
H6D H 0.9154 0.6271 0.0523
C10D C 0.5001(12) 0.8348(7) 0.0195(4)
H7D H 0.4879 0.8792 0.0214
C11D C 0.4311(11) 0.7946(7) 0.0071(4)
H8D H 0.3713 0.8107 0.0004
N1D N 0.6963(7) 0.6516(4) 0.0282(2)
N2D N 0.5344(7) 0.7068(4) 0.0135(2)
O1B O 0.5108(5) 0.6514(3) 0.28968(16)
O2B O 0.6508(5) 0.6062(3) 0.25475(18)
O3B O 0.8119(5) 0.6757(4) 0.2608(2)
O4B O 0.9522(6) 0.4580(4) 0.2873(2)
O5B O 1.0157(6) 0.6365(5) 0.3736(2)
O6B O 0.9304(5) 0.5500(4) 0.4156(2)
O7B O 0.8970(6) 0.4799(4) 0.47496(19)
O8B O 0.7999(5) 0.5908(4) 0.44914(18)
O9B O 0.7123(6) 0.4748(3) 0.43645(19)
O10D O 0.5890(6) 0.6228(3) -0.04959(18)
O10B O 0.5890(6) 0.3772(3) 0.45041(18)
O11D O 0.6146(5) 0.5223(3) 0.01566(18)
O12D O 0.4495(5) 0.5770(3) -0.00508(17)
O13B O 0.5013(5) 0.4106(3) 0.38156(18)
O14B O 0.5377(5) 0.5035(3) 0.42870(16)
O15B O 0.7104(6) 0.3461(4) 0.3292(2)
O16B O 0.6251(5) 0.6168(3) 0.42092(17)
O17D O 0.4323(5) 0.3819(3) -0.07860(18)
O17B O 0.4323(5) 0.6181(3) 0.42140(18)
O18B O 0.3601(5) 0.4229(3) 0.32256(19)
O19B O 0.4656(5) 0.5210(3) 0.30266(16)
O20B O 0.5163(5) 0.6370(3) 0.36086(18)
O21B O 0.6001(5) 0.4772(3) 0.26743(17)
O22B O 0.6581(5) 0.5835(3) 0.32455(16)
O23B O 0.6811(5) 0.6893(3) 0.37418(18)
O24B O 0.8073(5) 0.5458(3) 0.28688(17)
O25B O 0.8389(5) 0.6384(3) 0.33325(19)
O26B O 0.6837(5) 0.7012(3) 0.30535(17)
O27B O 0.5398(6) 0.7614(3) 0.33111(18)
O28B O 0.8432(5) 0.4332(4) 0.40474(17)
O29B O 0.6812(5) 0.3801(3) 0.39299(16)
O30B O 0.8334(6) 0.2989(4) 0.38637(19)
O31B O 0.6079(6) 0.3444(3) 0.25902(19)
O32B O 0.7665(5) 0.4186(4) 0.27994(18)
O33B O 0.7254(5) 0.4710(3) 0.33697(16)
O34B O 0.5477(5) 0.4052(3) 0.31839(16)
O35B O 0.8777(5) 0.3987(4) 0.34285(19)
O36B O 0.7413(6) 0.7242(4) 0.4443(2)
O37B O 0.8571(5) 0.6669(4) 0.4029(2)
O38B O 0.4274(5) 0.5255(3) 0.36821(17)
O39B O 0.7599(5) 0.5597(3) 0.38290(17)
O40B O 0.6033(5) 0.5098(3) 0.36867(16)
O41B O 0.9149(5) 0.5252(4) 0.3479(2)
loop_
_geom_bond_atom_site_label_1
_geom_bond_atom_site_label_2
_geom_bond_site_symmetry_1
_geom_bond_site_symmetry_2
P1 O22 1_555 1_555
W1 O13 1_555 1_555
W2 O1 1_555 1_555
W3 O9 1_555 1_555
W4 O15 1_555 1_555
W5 O2 1_555 1_555
W6 O8 1_555 1_555
W7 O15 1_555 1_555
W8 O14 1_555 1_555
W9 O4 1_555 1_555
W10 O5 1_555 1_555
W11 O6 1_555 1_555
Yb1 O1 1_555 1_555
Cu1 N1 1_555 1_555
C1 H1 1_555 1_555
C2 C3 1_555 1_555
C3 C4 1_555 1_555
C4 H2 1_555 1_555
C5 H3 1_555 1_555
C6 O11 1_555 1_555
C7 C2 1_555 1_555
H4 C7 1_555 1_555
C8 C7 1_555 1_555
H5 C8 1_555 1_555
C9 C1 1_555 1_555
H6 C9 1_555 1_555
C10 C4 1_555 1_555
H7 C10 1_555 1_555
C11 C5 1_555 1_555
H8 C11 1_555 1_555
N1 C1 1_555 1_555
N2 Cu1 1_555 1_555
O2 Yb1 1_555 1_555
O3 W5 1_555 1_555
O6 W10 1_555 1_555
O7 W11 1_555 1_555
O8 W11 1_555 1_555
O9 W11 1_555 1_555
O10 W3 1_555 1_555
O11 Cu1 1_555 1_555
O12 Cu1 1_555 1_555
O13 W3 1_555 1_555
O14 W3 1_555 1_555
O16 W6 1_555 1_555
O17 W8 1_555 1_555
O18 W1 1_555 1_555
O19 W1 1_555 1_555
O20 W2 1_555 1_555
O21 W4 1_555 1_555
O22 W2 1_555 1_555
O23 W2 1_555 1_555
O24 W5 1_555 1_555
O25 W5 1_555 1_555
O26 W2 1_555 1_555
O27 W2 1_555 1_555
O28 W7 1_555 1_555
O29 W3 1_555 1_555
O30 W7 1_555 1_555
O31 W4 1_555 1_555
O32 W4 1_555 1_555
O33 P1 1_555 1_555
O34 W1 1_555 1_555
O35 W7 1_555 1_555
O36 W6 1_555 1_555
O37 W6 1_555 1_555
O38 W1 1_555 1_555
O39 P1 1_555 1_555
O40 P1 1_555 1_555
O41 W9 1_555 1_555
P1B O22B 1_555 1_555
W1B O13B 1_555 1_555
W2B O1B 1_555 1_555
W3B O9B 1_555 1_555
W4B O15B 1_555 1_555
W5B O2B 1_555 1_555
W6B O8B 1_555 1_555
W7B O15B 1_555 1_555
W8B O14B 1_555 1_555
W9B O4B 1_555 1_555
W10B O5B 1_555 1_555
W11B O6B 1_555 1_555
Cu1D O17 1_555 1_555
Cu1F O17B 1_555 1_555
Cu1B O10B 1_555 1_555
C1D H1D 1_555 1_555
C2D C3D 1_555 1_555
C3D C4D 1_555 1_555
C4D H2D 1_555 1_555
C5D H3D 1_555 1_555
C6D C6 1_555 1_555
C7D C2D 1_555 1_555
H4D C7D 1_555 1_555
C8D C7D 1_555 1_555
H5D C8D 1_555 1_555
C9D C1D 1_555 1_555
H6D C9D 1_555 1_555
C10D C4D 1_555 1_555
H7D C10D 1_555 1_555
C11D C5D 1_555 1_555
H8D C11D 1_555 1_555
N1D Cu1D 1_555 1_555
N2D Cu1D 1_555 1_555
O1B Yb1 1_555 1_555
O2B Yb1 1_555 1_555
O3B W5B 1_555 1_555
O6B W10B 1_555 1_555
O7B W11B 1_555 1_555
O8B W11B 1_555 1_555
O9B W11B 1_555 1_555
O10D Cu1D 1_555 1_555
O10B W3B 1_555 1_555
O11D Cu1D 1_555 1_555
O12D C6 1_555 1_555
O13B W3B 1_555 1_555
O14B W3B 1_555 1_555
O16B W6B 1_555 1_555
O17D Cu1 1_555 1_555
O17B W8B 1_555 1_555
O18B W1B 1_555 1_555
O19B Yb1 1_555 1_555
O20B W2B 1_555 1_555
O21B Yb1 1_555 1_555
O22B W2B 1_555 1_555
O23B W2B 1_555 1_555
O24B W5B 1_555 1_555
O25B W5B 1_555 1_555
O26B W2B 1_555 1_555
O27B W2B 1_555 1_555
O28B W7B 1_555 1_555
O29B W3B 1_555 1_555
O30B W7B 1_555 1_555
O31B W4B 1_555 1_555
O32B W4B 1_555 1_555
O33B P1B 1_555 1_555
O34B W1B 1_555 1_555
O35B W7B 1_555 1_555
O36B W6B 1_555 1_555
O37B W6B 1_555 1_555
O38B W1B 1_555 1_555
O39B P1B 1_555 1_555
O40B P1B 1_555 1_555
O41B W9B 1_555 1_555
W1 O40 1_555 1_555
W3 O40 1_555 1_555
W4 O33 1_555 1_555
W4 O34 1_555 1_555
W5 O22 1_555 1_555
W5 O26 1_555 1_555
W6 O23 1_555 1_555
W6 O39 1_555 1_555
W7 O29 1_555 1_555
W7 O33 1_555 1_555
W8 O16 1_555 1_555
W8 O20 1_555 1_555
W8 O38 1_555 1_555
W8 O40 1_555 1_555
W9 O24 1_555 1_555
W9 O32 1_555 1_555
W9 O33 1_555 1_555
W9 O35 1_555 1_555
W10 O25 1_555 1_555
W10 O37 1_555 1_555
W10 O39 1_555 1_555
W10 O41 1_555 1_555
W11 O28 1_555 1_555
W11 O39 1_555 1_555
Yb1 O19 1_555 1_555
Yb1 O21 1_555 1_555
Cu1 O10 1_555 1_555
C2 N1 1_555 1_555
C3 N2 1_555 1_555
C5 N2 1_555 1_555
C8 C9 1_555 1_555
C10 C11 1_555 1_555
O12 C6D 1_555 1_555
W1B O19B 1_555 1_555
W1B O40B 1_555 1_555
W3B O40B 1_555 1_555
W4B O21B 1_555 1_555
W4B O33B 1_555 1_555
W4B O34B 1_555 1_555
W5B O22B 1_555 1_555
W5B O26B 1_555 1_555
W6B O23B 1_555 1_555
W6B O39B 1_555 1_555
W7B O29B 1_555 1_555
W7B O33B 1_555 1_555
W8B O16B 1_555 1_555
W8B O20B 1_555 1_555
W8B O38B 1_555 1_555
W8B O40B 1_555 1_555
W9B O24B 1_555 1_555
W9B O32B 1_555 1_555
W9B O33B 1_555 1_555
W9B O35B 1_555 1_555
W10B O25B 1_555 1_555
W10B O37B 1_555 1_555
W10B O39B 1_555 1_555
W10B O41B 1_555 1_555
W11B O28B 1_555 1_555
W11B O39B 1_555 1_555
Cu1D O12D 1_555 1_555
C1D N1D 1_555 1_555
C2D N1D 1_555 1_555
C3D N2D 1_555 1_555
C5D N2D 1_555 1_555
C6D O11D 1_555 1_555
C8D C9D 1_555 1_555
C10D C11D 1_555 1_555

#END
