
#######################################################################
#
#                 Cambridge Crystallographic Data Centre
#                                CCDC 
#
#######################################################################
#
# If this CIF has been generated from an entry in the Cambridge 
# Structural Database, then it will include bibliographic, chemical, 
# crystal, experimental, refinement or atomic coordinate data resulting 
# from the CCDC's data processing and validation procedures.
#
#######################################################################

data_YISMUJ
_symmetry_cell_setting           monoclinic
_symmetry_space_group_name_H-M   'P 21/n'
_symmetry_Int_Tables_number      14
_space_group_name_Hall           '-P 2yn'
loop_
_symmetry_equiv_pos_site_id
_symmetry_equiv_pos_as_xyz
1 x,y,z
2 1/2-x,1/2+y,1/2-z
3 -x,-y,-z
4 1/2+x,1/2-y,1/2+z
_cell_length_a                   5.4335(6)
_cell_length_b                   25.563(3)
_cell_length_c                   10.4650(11)
_cell_angle_alpha                90
_cell_angle_beta                 91.133(2)
_cell_angle_gamma                90
_cell_volume                     1453.27
loop_
_atom_site_label
_atom_site_type_symbol
_atom_site_fract_x
_atom_site_fract_y
_atom_site_fract_z
Cd1 Cd -0.32304(3) 0.202499(7) 0.157641(19)
N1 N 0.5287(4) 0.42849(7) 0.2656(2)
O1 O -0.0441(3) 0.27187(7) 0.2274(2)
O2 O -0.2252(4) 0.28110(7) 0.0407(2)
O3 O 0.4387(3) 0.34161(7) 0.52820(18)
O4 O 0.2650(3) 0.41894(7) 0.48735(18)
O5 O 0.2554(4) 0.50923(8) 0.3806(2)
O6 O 0.4176(4) 0.56502(7) 0.2471(2)
O7 O -0.5809(5) 0.23959(10) 0.2949(2)
O8 O -0.0971(5) 0.16805(10) 0.3361(3)
O9 O -0.4956(5) 0.12103(9) 0.1823(3)
O10 O -0.6370(5) 0.21542(10) 0.0048(3)
C1 C -0.0844(5) 0.29817(10) 0.1270(3)
C2 C 0.0348(5) 0.35038(9) 0.1110(3)
C3 C -0.0423(5) 0.38324(10) 0.0137(3)
C4 C 0.0722(6) 0.43062(11) 0.0004(3)
C5 C 0.2595(5) 0.44600(10) 0.0818(3)
C6 C 0.3404(5) 0.41347(9) 0.1808(2)
C7 C 0.2246(5) 0.36510(10) 0.1942(3)
C8 C 0.6147(5) 0.48189(10) 0.2636(3)
C9 C 0.4203(5) 0.52209(10) 0.2960(3)
C10 C 0.6094(5) 0.39330(11) 0.3644(3)
C11 C 0.4219(5) 0.38406(10) 0.4679(3)
H1 H 0.643(5) 0.3627(10) 0.327(3)
H2 H 0.756(4) 0.4049(8) 0.409(2)
H3 H 0.283(5) 0.3406(10) 0.263(3)
H4 H 0.742(4) 0.4854(11) 0.323(2)
H5 H 0.678(5) 0.4901(11) 0.187(3)
H6 H 0.336(5) 0.4770(10) 0.066(3)
H7 H -0.161(5) 0.3743(10) -0.041(3)
H8 H 0.022(5) 0.4521(10) -0.062(3)
H9 H -0.596(7) 0.2178(15) -0.075(4)
H10 H 0.273(7) 0.4817(14) 0.404(4)
H11 H -0.753(6) 0.1987(11) 0.012(3)
H12 H -0.605(7) 0.2313(15) 0.364(4)
H13 H -0.700(7) 0.2503(14) 0.277(4)
H14 H -0.099(7) 0.1367(8) 0.338(4)
H15 H -0.624(7) 0.1111(13) 0.204(4)
H16 H -0.449(7) 0.1029(15) 0.115(4)
H17 H -0.058(9) 0.1795(18) 0.403(3)
Cd1C Cd 0.17696(3) 0.297501(7) 0.657641(19)
O3C O -0.0613(3) 0.15839(7) 0.02820(18)
loop_
_geom_bond_atom_site_label_1
_geom_bond_atom_site_label_2
_geom_bond_site_symmetry_1
_geom_bond_site_symmetry_2
Cd1 O1 1_555 1_555
N1 C6 1_555 1_555
O1 C1 1_555 1_555
O2 Cd1 1_555 1_555
O3 C11 1_555 1_555
O4 C11 1_555 1_555
O5 C9 1_555 1_555
O6 C9 1_555 1_555
O7 Cd1 1_555 1_555
O8 Cd1 1_555 1_555
O9 Cd1 1_555 1_555
O10 Cd1 1_555 1_555
C1 O2 1_555 1_555
C2 C1 1_555 1_555
C3 C2 1_555 1_555
C4 C3 1_555 1_555
C5 C4 1_555 1_555
C6 C5 1_555 1_555
C7 C2 1_555 1_555
C8 N1 1_555 1_555
C9 C8 1_555 1_555
C10 N1 1_555 1_555
C11 C10 1_555 1_555
H1 C10 1_555 1_555
H2 C10 1_555 1_555
H3 C7 1_555 1_555
H4 C8 1_555 1_555
H5 C8 1_555 1_555
H6 C5 1_555 1_555
H7 C3 1_555 1_555
H8 C4 1_555 1_555
H9 O10 1_555 1_555
H10 O5 1_555 1_555
H11 O10 1_555 1_555
H12 O7 1_555 1_555
H13 O7 1_555 1_555
H14 O8 1_555 1_555
H15 O9 1_555 1_555
H16 O9 1_555 1_555
H17 O8 1_555 1_555
Cd1C O3 1_555 1_555
O3C Cd1 1_555 1_555
C6 C7 1_555 1_555

#END
