
#######################################################################
#
#                 Cambridge Crystallographic Data Centre
#                                CCDC 
#
#######################################################################
#
# If this CIF has been generated from an entry in the Cambridge 
# Structural Database, then it will include bibliographic, chemical, 
# crystal, experimental, refinement or atomic coordinate data resulting 
# from the CCDC's data processing and validation procedures.
#
#######################################################################

data_YISMIX
_symmetry_cell_setting           monoclinic
_symmetry_space_group_name_H-M   'C 2/c'
_symmetry_Int_Tables_number      15
_space_group_name_Hall           '-C 2yn'
loop_
_symmetry_equiv_pos_site_id
_symmetry_equiv_pos_as_xyz
1 x,y,z
2 1/2+x,1/2+y,z
3 -x,y,1/2-z
4 1/2-x,1/2+y,1/2-z
5 -x,-y,-z
6 1/2-x,1/2-y,-z
7 x,-y,1/2+z
8 1/2+x,1/2-y,1/2+z
_cell_length_a                   30.192(4)
_cell_length_b                   9.6582(13)
_cell_length_c                   8.4591(11)
_cell_angle_alpha                90
_cell_angle_beta                 93.916(2)
_cell_angle_gamma                90
_cell_volume                     2460.92
loop_
_atom_site_label
_atom_site_type_symbol
_atom_site_fract_x
_atom_site_fract_y
_atom_site_fract_z
Cd1 Cd 0.292049(9) 0.35250(3) 0.73908(3)
N1 N 0.34792(10) 0.2079(3) 0.9092(4)
O1 O 0.45680(13) 0.4769(4) 0.6087(6)
O2 O 0.49555(15) 0.3183(5) 0.4869(6)
O3 O 0.29289(9) 0.4141(3) 0.9998(3)
O4 O 0.33515(10) 0.4591(3) 1.2190(3)
O5 O 0.27060(10) 0.1280(3) 0.7295(4)
O6 O 0.27778(9) -0.0834(3) 0.8284(3)
O7 O 0.31873(11) 0.2868(3) 0.5013(4)
C1 C 0.46521(17) 0.3550(6) 0.5776(7)
C2 C 0.44121(13) 0.2404(5) 0.6493(5)
C3 C 0.40663(14) 0.2720(5) 0.7428(5)
C4 C 0.38393(13) 0.1683(4) 0.8152(5)
C5 C 0.39563(14) 0.0318(5) 0.7902(5)
C6 C 0.43053(15) 0.0011(5) 0.6980(6)
C7 C 0.45317(16) 0.1042(6) 0.6276(6)
C8 C 0.36231(13) 0.2957(4) 1.0450(5)
H1 H 0.3883 0.3478 1.0194
H2 H 0.3707 0.2371 1.1352
C9 C 0.32658(14) 0.3960(4) 1.0901(5)
C10 C 0.31988(13) 0.0946(4) 0.9592(4)
H3 H 0.3035 0.1257 1.0472
H4 H 0.3386 0.0181 0.9961
C11 C 0.28724(13) 0.0439(4) 0.8265(4)
H5 H 0.4737(17) 0.086(6) 0.573(6)
H6 H 0.4394(17) -0.099(6) 0.689(6)
H7 H 0.3826(16) -0.035(5) 0.830(6)
H8 H 0.3982(16) 0.360(5) 0.750(6)
H9 H 0.310(2) 0.344(5) 0.429(6)
H10 H 0.3066(19) 0.216(4) 0.460(7)
H11 H 0.509(2) 0.396(7) 0.455(9)
Cd1F Cd 0.292049(9) 0.64750(3) 1.23908(3)
Cd1C Cd 0.207951(9) -0.14750(3) 0.76092(3)
O4F O 0.33515(10) 0.5409(3) 0.7190(3)
O6C O 0.22222(9) 0.4166(3) 0.6716(3)
loop_
_geom_bond_atom_site_label_1
_geom_bond_atom_site_label_2
_geom_bond_site_symmetry_1
_geom_bond_site_symmetry_2
Cd1 N1 1_555 1_555
N1 C4 1_555 1_555
O1 C1 1_555 1_555
O2 C1 1_555 1_555
O3 Cd1 1_555 1_555
O4 C9 1_555 1_555
O5 Cd1 1_555 1_555
O6 C11 1_555 1_555
O7 Cd1 1_555 1_555
C1 C2 1_555 1_555
C2 C3 1_555 1_555
C3 C4 1_555 1_555
C4 C5 1_555 1_555
C5 C6 1_555 1_555
C6 C7 1_555 1_555
C7 C2 1_555 1_555
C8 N1 1_555 1_555
H1 C8 1_555 1_555
H2 C8 1_555 1_555
C9 O3 1_555 1_555
C10 N1 1_555 1_555
H3 C10 1_555 1_555
H4 C10 1_555 1_555
C11 O5 1_555 1_555
H5 C7 1_555 1_555
H6 C6 1_555 1_555
H7 C5 1_555 1_555
H8 C3 1_555 1_555
H9 O7 1_555 1_555
H10 O7 1_555 1_555
H11 O2 1_555 1_555
Cd1F O4 1_555 1_555
Cd1C O6 1_555 1_555
O4F Cd1 1_555 1_555
O6C Cd1 1_555 1_555
C8 C9 1_555 1_555
C10 C11 1_555 1_555

#END
