
#######################################################################
#
#                 Cambridge Crystallographic Data Centre
#                                CCDC 
#
#######################################################################
#
# If this CIF has been generated from an entry in the Cambridge 
# Structural Database, then it will include bibliographic, chemical, 
# crystal, experimental, refinement or atomic coordinate data resulting 
# from the CCDC's data processing and validation procedures.
#
#######################################################################

data_YISMET
_symmetry_cell_setting           monoclinic
_symmetry_space_group_name_H-M   'C 2/c'
_symmetry_Int_Tables_number      15
_space_group_name_Hall           '-C 2yn'
loop_
_symmetry_equiv_pos_site_id
_symmetry_equiv_pos_as_xyz
1 x,y,z
2 1/2+x,1/2+y,z
3 -x,y,1/2-z
4 1/2-x,1/2+y,1/2-z
5 -x,-y,-z
6 1/2-x,1/2-y,-z
7 x,-y,1/2+z
8 1/2+x,1/2-y,1/2+z
_cell_length_a                   15.1688(11)
_cell_length_b                   20.2868(11)
_cell_length_c                   38.630(2)
_cell_angle_alpha                90
_cell_angle_beta                 99.987(2)
_cell_angle_gamma                90
_cell_volume                     11707.3
loop_
_atom_site_label
_atom_site_type_symbol
_atom_site_fract_x
_atom_site_fract_y
_atom_site_fract_z
K2 K 0.1496(4) -0.1216(3) 0.68285(15)
P1 P 0.1915(4) -0.0355(2) 0.85342(12)
W1 W -0.02181(5) 0.03933(4) 0.84043(2)
W2 W 0.14568(5) 0.09759(4) 0.79199(2)
W3 W 0.12203(6) 0.06605(4) 0.92073(2)
W4 W 0.08579(6) -0.18533(4) 0.82860(2)
W5 W 0.29502(6) 0.12606(4) 0.87164(2)
W6 W 0.24281(6) -0.13169(4) 0.78408(2)
W7 W 0.35681(6) 0.02948(5) 0.80775(2)
W8 W 0.34530(6) -0.01410(5) 0.93426(2)
W9 W 0.24675(7) -0.16493(4) 0.91442(2)
W10 W 0.02707(6) -0.08428(4) 0.90217(2)
W11 W 0.40652(6) -0.10975(5) 0.86928(3)
Cu1 Cu -0.07689(17) -0.11349(13) 0.98713(6)
K1 K 0.0000 -0.0621(3) 0.7500
C1 C 0.0468(12) -0.0162(10) 1.0066(5)
C2 C -0.3526(18) -0.1425(14) 0.9458(7)
H1 H -0.4051 -0.1184 0.9394
C3 C -0.351(2) -0.2107(15) 0.9425(8)
H2 H -0.4047 -0.2335 0.9353
C4 C 0.051(2) -0.3013(12) 0.9998(8)
H3 H 0.1076 -0.3188 1.0073
C5 C -0.2681(15) -0.1104(13) 0.9595(6)
H4 H -0.2652 -0.0650 0.9626
C6 C -0.0210(19) -0.3403(12) 0.9858(6)
H5 H -0.0128 -0.3857 0.9853
C7 C -0.271(2) -0.2449(14) 0.9501(7)
H6 H -0.2692 -0.2898 0.9455
C8 C -0.1056(17) -0.3146(12) 0.9722(6)
H7 H -0.1530 -0.3413 0.9621
C9 C -0.1982(17) -0.2142(11) 0.9637(6)
C10 C 0.033(2) -0.2331(11) 1.0023(7)
H8 H 0.0788 -0.2060 1.0133
C11 C -0.1140(13) -0.2477(10) 0.9747(5)
N1 N -0.0485(13) -0.2046(10) 0.9892(4)
N2 N -0.1947(12) -0.1474(9) 0.9676(4)
O1 O 0.0421(7) -0.0784(6) 1.0074(3)
O2 O 0.1100(9) 0.0179(7) 1.0194(3)
O3 O 0.1631(8) -0.0843(6) 0.8247(3)
O4 O 0.1870(8) -0.1951(6) 0.8725(3)
O5 O 0.1162(8) -0.0159(6) 0.8702(3)
O6 O 0.0574(8) -0.0105(7) 0.9323(3)
O7 O -0.0442(10) -0.1252(7) 0.9246(3)
O8 O 0.2286(10) 0.0194(7) 0.9380(3)
O9 O 0.0599(7) 0.0974(6) 0.8234(3)
O10 O 0.2202(9) 0.1555(6) 0.8319(3)
O11 O 0.3048(9) -0.1770(8) 0.7596(4)
O12 O 0.2668(8) -0.0648(6) 0.8825(3)
O13 O 0.0282(10) -0.1407(6) 0.8634(3)
O14 O 0.2503(12) -0.2317(7) 0.9419(4)
O15 O -0.1206(9) 0.0805(7) 0.8302(4)
O16 O -0.0284(8) -0.0164(6) 0.8060(3)
O17 O 0.1830(8) -0.2030(6) 0.8038(3)
O18 O 0.0137(8) -0.1554(6) 0.7921(3)
O19 O -0.0567(8) -0.0270(6) 0.8726(3)
O20 O 0.0995(8) 0.0286(6) 0.7681(3)
O21 O 0.3452(9) 0.1974(7) 0.8888(4)
O22 O 0.2321(7) 0.0272(5) 0.8375(3)
O23 O 0.2997(9) -0.0469(7) 0.7864(3)
O24 O 0.3532(9) 0.0586(7) 0.9049(3)
O25 O 0.1375(9) -0.1231(7) 0.9215(3)
O26 O 0.1096(9) 0.1635(7) 0.7648(3)
O27 O 0.1137(10) 0.1160(7) 0.9551(3)
O28 O 0.4123(8) -0.0279(8) 0.8439(3)
O29 O 0.0215(8) 0.0880(6) 0.8876(3)
O30 O 0.3100(11) -0.0985(8) 0.9473(4)
O31 O 0.1495(8) -0.1059(7) 0.7531(3)
O32 O 0.1981(8) 0.1187(6) 0.8956(3)
O33 O 0.0492(9) -0.2641(6) 0.8319(4)
O34 O 0.4078(10) 0.0130(7) 0.9732(4)
O35 O 0.4453(9) 0.0419(8) 0.7857(4)
O36 O 0.3748(9) 0.0995(7) 0.8426(3)
O37 O 0.3345(8) -0.1450(7) 0.8305(4)
O38 O 0.4305(8) -0.0563(7) 0.9126(3)
O39 O 0.3579(9) -0.1730(7) 0.8987(4)
O40 O 0.2695(10) 0.0860(8) 0.7817(4)
O41 O 0.5082(11) -0.1428(10) 0.8674(5)
P1B P -0.1915(4) -0.0355(2) 0.64658(12)
W1B W 0.02181(5) 0.03933(4) 0.65957(2)
W2B W -0.14568(5) 0.09759(4) 0.70801(2)
W3B W -0.12203(6) 0.06605(4) 0.57927(2)
W4B W -0.08579(6) -0.18533(4) 0.67140(2)
W5B W -0.29502(6) 0.12606(4) 0.62836(2)
W6B W -0.24281(6) -0.13169(4) 0.71592(2)
W7B W -0.35681(6) 0.02948(5) 0.69225(2)
W8B W -0.34530(6) -0.01410(5) 0.56574(2)
W9B W -0.24675(7) -0.16493(4) 0.58558(2)
W10B W -0.02707(6) -0.08428(4) 0.59783(2)
W11B W -0.40652(6) -0.10975(5) 0.63072(3)
Cu1D Cu 0.07689(17) 0.11349(13) 1.01287(6)
Cu1B Cu 0.07689(17) -0.11349(13) 0.51287(6)
Cu1F Cu -0.07689(17) 0.11349(13) 0.48713(6)
C1D C -0.0468(12) 0.0162(10) 0.9934(5)
C2D C 0.3526(18) 0.1425(14) 1.0542(7)
H1D H 0.4051 0.1184 1.0606
C3D C 0.351(2) 0.2107(15) 1.0575(8)
H2D H 0.4047 0.2335 1.0647
C4D C -0.051(2) 0.3013(12) 1.0002(8)
H3D H -0.1076 0.3188 0.9927
C5D C 0.2681(15) 0.1104(13) 1.0405(6)
H4D H 0.2652 0.0650 1.0374
C6D C 0.0210(19) 0.3403(12) 1.0142(6)
H5D H 0.0128 0.3857 1.0147
C7D C 0.271(2) 0.2449(14) 1.0499(7)
H6D H 0.2692 0.2898 1.0545
C8D C 0.1056(17) 0.3146(12) 1.0278(6)
H7D H 0.1530 0.3413 1.0379
C9D C 0.1982(17) 0.2142(11) 1.0363(6)
C10D C -0.033(2) 0.2331(11) 0.9977(7)
H8D H -0.0788 0.2060 0.9867
C11D C 0.1140(13) 0.2477(10) 1.0253(5)
N1D N 0.0485(13) 0.2046(10) 1.0108(4)
N2D N 0.1947(12) 0.1474(9) 1.0324(4)
O1D O -0.0421(7) 0.0784(6) 0.9926(3)
O2D O -0.1100(9) -0.0179(7) 0.9806(3)
O3B O -0.1631(8) -0.0843(6) 0.6753(3)
O4B O -0.1870(8) -0.1951(6) 0.6275(3)
O5B O -0.1162(8) -0.0159(6) 0.6298(3)
O6B O -0.0574(8) -0.0105(7) 0.5677(3)
O7B O 0.0442(10) -0.1252(7) 0.5754(3)
O7D O 0.0442(10) 0.1252(7) 1.0754(3)
O8B O -0.2286(10) 0.0194(7) 0.5620(3)
O9B O -0.0599(7) 0.0974(6) 0.6766(3)
O10B O -0.2202(9) 0.1555(6) 0.6681(3)
O11B O -0.3048(9) -0.1770(8) 0.7404(4)
O12B O -0.2668(8) -0.0648(6) 0.6175(3)
O13B O -0.0282(10) -0.1407(6) 0.6366(3)
O14B O -0.2503(12) -0.2317(7) 0.5581(4)
O15B O 0.1206(9) 0.0805(7) 0.6698(4)
O16B O 0.0284(8) -0.0164(6) 0.6940(3)
O17B O -0.1830(8) -0.2030(6) 0.6962(3)
O18B O -0.0137(8) -0.1554(6) 0.7079(3)
O19B O 0.0567(8) -0.0270(6) 0.6274(3)
O20B O -0.0995(8) 0.0286(6) 0.7319(3)
O21B O -0.3452(9) 0.1974(7) 0.6112(4)
O22B O -0.2321(7) 0.0272(5) 0.6625(3)
O23B O -0.2997(9) -0.0469(7) 0.7136(3)
O24B O -0.3532(9) 0.0586(7) 0.5951(3)
O25B O -0.1375(9) -0.1231(7) 0.5785(3)
O26B O -0.1096(9) 0.1635(7) 0.7352(3)
O27D O -0.1137(10) -0.1160(7) 1.0449(3)
O27B O -0.1137(10) 0.1160(7) 0.5449(3)
O28B O -0.4123(8) -0.0279(8) 0.6561(3)
O29B O -0.0215(8) 0.0880(6) 0.6124(3)
O30B O -0.3100(11) -0.0985(8) 0.5527(4)
O31B O -0.1495(8) -0.1059(7) 0.7469(3)
O32B O -0.1981(8) 0.1187(6) 0.6044(3)
O33B O -0.0492(9) -0.2641(6) 0.6681(4)
O34B O -0.4078(10) 0.0130(7) 0.5268(4)
O35B O -0.4453(9) 0.0419(8) 0.7143(4)
O36B O -0.3748(9) 0.0995(7) 0.6574(3)
O37B O -0.3345(8) -0.1450(7) 0.6695(4)
O38B O -0.4305(8) -0.0563(7) 0.5874(3)
O39B O -0.3579(9) -0.1730(7) 0.6013(4)
O40B O -0.2695(10) 0.0860(8) 0.7183(4)
O41B O -0.5082(11) -0.1428(10) 0.6326(5)
loop_
_geom_bond_atom_site_label_1
_geom_bond_atom_site_label_2
_geom_bond_site_symmetry_1
_geom_bond_site_symmetry_2
P1 O3 1_555 1_555
W1 O5 1_555 1_555
W2 O9 1_555 1_555
W3 O6 1_555 1_555
W4 O3 1_555 1_555
W5 O10 1_555 1_555
W6 O3 1_555 1_555
W7 O22 1_555 1_555
W8 O8 1_555 1_555
W9 O4 1_555 1_555
W10 O5 1_555 1_555
W11 O12 1_555 1_555
Cu1 N1 1_555 1_555
K1 O16 1_555 1_555
C1 O1 1_555 1_555
C2 H1 1_555 1_555
C3 C2 1_555 1_555
H2 C3 1_555 1_555
C4 H3 1_555 1_555
C5 C2 1_555 1_555
H4 C5 1_555 1_555
C6 C4 1_555 1_555
H5 C6 1_555 1_555
C7 C3 1_555 1_555
H6 C7 1_555 1_555
C8 C6 1_555 1_555
H7 C8 1_555 1_555
C9 C7 1_555 1_555
C10 C4 1_555 1_555
H8 C10 1_555 1_555
C11 C8 1_555 1_555
N1 C10 1_555 1_555
N2 Cu1 1_555 1_555
O1 Cu1 1_555 1_555
O2 C1 1_555 1_555
O4 W4 1_555 1_555
O5 P1 1_555 1_555
O6 W10 1_555 1_555
O7 W10 1_555 1_555
O8 W3 1_555 1_555
O9 W1 1_555 1_555
O10 W2 1_555 1_555
O11 W6 1_555 1_555
O12 P1 1_555 1_555
O13 W4 1_555 1_555
O14 W9 1_555 1_555
O15 W1 1_555 1_555
O16 W1 1_555 1_555
O17 W4 1_555 1_555
O18 W4 1_555 1_555
O19 W1 1_555 1_555
O20 W2 1_555 1_555
O21 W5 1_555 1_555
O22 P1 1_555 1_555
O23 W6 1_555 1_555
O24 W5 1_555 1_555
O25 W9 1_555 1_555
O26 W2 1_555 1_555
O27 W3 1_555 1_555
O28 W7 1_555 1_555
O29 W1 1_555 1_555
O30 W8 1_555 1_555
O31 W6 1_555 1_555
O32 W3 1_555 1_555
O33 W4 1_555 1_555
O34 W8 1_555 1_555
O35 W7 1_555 1_555
O36 W5 1_555 1_555
O37 W6 1_555 1_555
O38 W8 1_555 1_555
O39 W9 1_555 1_555
O40 W2 1_555 1_555
O41 W11 1_555 1_555
P1B O3B 1_555 1_555
W1B O5B 1_555 1_555
W2B O9B 1_555 1_555
W3B O6B 1_555 1_555
W4B O3B 1_555 1_555
W5B O10B 1_555 1_555
W6B O3B 1_555 1_555
W7B O22B 1_555 1_555
W8B O8B 1_555 1_555
W9B O4B 1_555 1_555
W10B O5B 1_555 1_555
W11B O12B 1_555 1_555
Cu1D O2 1_555 1_555
Cu1B O7B 1_555 1_555
Cu1F O27B 1_555 1_555
C1D C1 1_555 1_555
C2D H1D 1_555 1_555
C3D C2D 1_555 1_555
H2D C3D 1_555 1_555
C4D H3D 1_555 1_555
C5D C2D 1_555 1_555
H4D C5D 1_555 1_555
C6D C4D 1_555 1_555
H5D C6D 1_555 1_555
C7D C3D 1_555 1_555
H6D C7D 1_555 1_555
C8D C6D 1_555 1_555
H7D C8D 1_555 1_555
C9D C7D 1_555 1_555
C10D C4D 1_555 1_555
H8D C10D 1_555 1_555
C11D C8D 1_555 1_555
N1D Cu1D 1_555 1_555
N2D Cu1D 1_555 1_555
O1D Cu1D 1_555 1_555
O2D Cu1 1_555 1_555
O4B W4B 1_555 1_555
O5B P1B 1_555 1_555
O6B W10B 1_555 1_555
O7B W10B 1_555 1_555
O7D Cu1D 1_555 1_555
O8B W3B 1_555 1_555
O9B W1B 1_555 1_555
O10B W2B 1_555 1_555
O11B W6B 1_555 1_555
O12B P1B 1_555 1_555
O13B W4B 1_555 1_555
O14B W9B 1_555 1_555
O15B W1B 1_555 1_555
O16B K1 1_555 1_555
O17B W4B 1_555 1_555
O18B K1 1_555 1_555
O19B W1B 1_555 1_555
O20B K1 1_555 1_555
O21B W5B 1_555 1_555
O22B P1B 1_555 1_555
O23B W6B 1_555 1_555
O24B W5B 1_555 1_555
O25B W9B 1_555 1_555
O26B W2B 1_555 1_555
O27D Cu1 1_555 1_555
O27B W3B 1_555 1_555
O28B W7B 1_555 1_555
O29B W1B 1_555 1_555
O30B W8B 1_555 1_555
O31B K1 1_555 1_555
O32B W3B 1_555 1_555
O33B W4B 1_555 1_555
O34B W8B 1_555 1_555
O35B W7B 1_555 1_555
O36B W5B 1_555 1_555
O37B W6B 1_555 1_555
O38B W8B 1_555 1_555
O39B W9B 1_555 1_555
O40B W2B 1_555 1_555
O41B W11B 1_555 1_555
W2 O22 1_555 1_555
W3 O29 1_555 1_555
W5 O22 1_555 1_555
W5 O32 1_555 1_555
W6 O17 1_555 1_555
W7 O23 1_555 1_555
W7 O36 1_555 1_555
W7 O40 1_555 1_555
W8 O12 1_555 1_555
W8 O24 1_555 1_555
W9 O12 1_555 1_555
W9 O30 1_555 1_555
W10 O13 1_555 1_555
W10 O19 1_555 1_555
W10 O25 1_555 1_555
W11 O28 1_555 1_555
W11 O37 1_555 1_555
W11 O38 1_555 1_555
W11 O39 1_555 1_555
Cu1 O7 1_555 1_555
K1 O18 1_555 1_555
K1 O20 1_555 1_555
K1 O31 1_555 1_555
C5 N2 1_555 1_555
C9 C11 1_555 1_555
C9 N2 1_555 1_555
C11 N1 1_555 1_555
O27 Cu1D 1_555 1_555
W1B O16B 1_555 1_555
W2B O20B 1_555 1_555
W2B O22B 1_555 1_555
W3B O29B 1_555 1_555
W4B O18B 1_555 1_555
W5B O22B 1_555 1_555
W5B O32B 1_555 1_555
W6B O17B 1_555 1_555
W6B O31B 1_555 1_555
W7B O23B 1_555 1_555
W7B O36B 1_555 1_555
W7B O40B 1_555 1_555
W8B O12B 1_555 1_555
W8B O24B 1_555 1_555
W9B O12B 1_555 1_555
W9B O30B 1_555 1_555
W10B O13B 1_555 1_555
W10B O19B 1_555 1_555
W10B O25B 1_555 1_555
W11B O28B 1_555 1_555
W11B O37B 1_555 1_555
W11B O38B 1_555 1_555
W11B O39B 1_555 1_555
C1D O1D 1_555 1_555
C1D O2D 1_555 1_555
C5D N2D 1_555 1_555
C9D C11D 1_555 1_555
C9D N2D 1_555 1_555
C10D N1D 1_555 1_555
C11D N1D 1_555 1_555

#END
