
#######################################################################
#
#                 Cambridge Crystallographic Data Centre
#                                CCDC 
#
#######################################################################
#
# If this CIF has been generated from an entry in the Cambridge 
# Structural Database, then it will include bibliographic, chemical, 
# crystal, experimental, refinement or atomic coordinate data resulting 
# from the CCDC's data processing and validation procedures.
#
#######################################################################

data_YISNOE
_symmetry_cell_setting           triclinic
_symmetry_space_group_name_H-M   'P -1'
_symmetry_Int_Tables_number      2
_space_group_name_Hall           '-P 1'
loop_
_symmetry_equiv_pos_site_id
_symmetry_equiv_pos_as_xyz
1 x,y,z
2 -x,-y,-z
_cell_length_a                   9.9468(17)
_cell_length_b                   10.3520(18)
_cell_length_c                   19.365(3)
_cell_angle_alpha                77.728(3)
_cell_angle_beta                 82.270(3)
_cell_angle_gamma                84.770(3)
_cell_volume                     1926.7
loop_
_atom_site_label
_atom_site_type_symbol
_atom_site_fract_x
_atom_site_fract_y
_atom_site_fract_z
Cu1 Cu 0.61543(6) 0.41742(6) 0.44963(3)
Cu2 Cu 0.14563(6) 0.94046(6) -0.05523(3)
O1 O 0.1195(4) 1.0764(3) 0.00498(17)
O2 O 0.3367(4) 1.0930(3) -0.03772(19)
O3 O 0.2541(4) 1.8293(4) -0.11629(19)
O4 O 0.0739(4) 1.7202(5) -0.1195(2)
O5 O 0.7698(3) 0.4517(3) 0.37622(17)
O6 O 0.9400(4) 0.3870(4) 0.3049(2)
O7 O 0.4700(4) -0.1681(3) 0.49046(19)
O8 O 0.5397(3) -0.3704(3) 0.47534(16)
N1 N 0.1848(4) 0.7991(4) 0.0286(2)
N2 N 0.2729(4) 0.4909(4) 0.1977(2)
H1 H 0.226(5) 0.420(3) 0.203(3)
N3 N 0.4958(4) 0.4427(4) 0.3717(2)
N4 N 1.0923(4) 0.0718(4) 0.8605(2)
N5 N 0.9897(5) 0.3578(4) 0.6853(2)
H2 H 1.027(5) 0.433(3) 0.678(3)
N6 N 0.7465(4) 0.3874(4) 0.5225(2)
C1 C 0.1061(5) 0.6981(5) 0.0533(3)
H3 H 0.0284 0.6964 0.0318
C2 C 0.1330(5) 0.5960(5) 0.1090(3)
H4 H 0.0749 0.5274 0.1241
C3 C 0.2487(5) 0.5965(5) 0.1427(2)
C4 C 0.3324(5) 0.7001(5) 0.1155(3)
H5 H 0.4120 0.7035 0.1351
C5 C 0.2976(5) 0.7974(5) 0.0596(3)
H6 H 0.3553 0.8658 0.0423
C6 C 0.4385(5) 0.3418(5) 0.3550(3)
H7 H 0.4481 0.2582 0.3839
C7 C 0.3671(5) 0.3562(5) 0.2980(3)
H8 H 0.3300 0.2832 0.2888
C8 C 0.3496(5) 0.4806(5) 0.2533(2)
C9 C 0.4065(5) 0.5848(5) 0.2715(3)
H9 H 0.3963 0.6701 0.2445
C10 C 0.4773(5) 0.5615(5) 0.3290(3)
H10 H 0.5154 0.6330 0.3394
C11 C 1.1681(5) 0.1748(5) 0.8310(3)
H11 H 1.2461 0.1830 0.8510
C12 C 1.1368(5) 0.2679(5) 0.7732(3)
H12 H 1.1928 0.3373 0.7546
C13 C 1.0202(5) 0.2584(5) 0.7421(3)
C14 C 0.9410(5) 0.1525(5) 0.7727(3)
H13 H 0.8618 0.1425 0.7542
C15 C 0.9808(5) 0.0630(5) 0.8304(2)
H14 H 0.9273 -0.0081 0.8498
C16 C 0.7793(5) 0.2688(5) 0.5627(3)
H15 H 0.7451 0.1943 0.5535
C17 C 0.8608(5) 0.2509(5) 0.6168(3)
H16 H 0.8811 0.1664 0.6427
C18 C 0.9116(5) 0.3597(5) 0.6321(3)
C19 C 0.8837(5) 0.4833(5) 0.5877(3)
H17 H 0.9200 0.5589 0.5943
C20 C 0.8031(5) 0.4912(5) 0.5352(3)
H18 H 0.7864 0.5737 0.5064
C21 C 0.2344(5) 1.1274(5) 0.0004(3)
C22 C 0.2418(5) 1.2298(5) 0.0450(3)
H19 H 0.2792 1.1868 0.0885
H20 H 0.1504 1.2652 0.0581
C23 C 0.3282(5) 1.3436(5) 0.0069(3)
H21 H 0.4166 1.3074 -0.0105
H22 H 0.3422 1.3963 0.0409
C24 C 0.2657(5) 1.4335(5) -0.0553(3)
H23 H 0.2417 1.3793 -0.0864
H24 H 0.1825 1.4778 -0.0370
C25 C 0.3576(6) 1.5368(6) -0.0985(4)
H25 H 0.4389 1.4922 -0.1184
H26 H 0.3851 1.5880 -0.0669
C26 C 0.2941(6) 1.6327(6) -0.1595(3)
H27 H 0.3655 1.6762 -0.1931
H28 H 0.2453 1.5834 -0.1843
C27 C 0.1979(6) 1.7354(5) -0.1311(3)
C28 C 0.8392(5) 0.3609(5) 0.3484(3)
C29 C 0.7965(7) 0.2217(5) 0.3691(3)
H29 H 0.8450 0.1768 0.4086
H30 H 0.7007 0.2257 0.3870
C30 C 0.8143(11) 0.1404(8) 0.3181(4)
H31 H 0.9092 0.1423 0.2984
H32 H 0.7622 0.1848 0.2799
C31 C 0.7825(8) 0.0041(6) 0.3337(4)
H33 H 0.8675 -0.0476 0.3414
H34 H 0.7559 -0.0133 0.2903
C32 C 0.6830(9) -0.0529(7) 0.3906(4)
H35 H 0.5962 -0.0057 0.3818
H36 H 0.7062 -0.0327 0.4341
C33 C 0.6615(6) -0.1927(5) 0.4052(3)
H37 H 0.7456 -0.2405 0.4187
H38 H 0.6457 -0.2153 0.3609
C34 C 0.5491(5) -0.2444(5) 0.4607(3)
Cu1_2 Cu 0.61543(6) -0.58258(6) 0.44963(3)
Cu1A Cu 0.38457(6) -0.41742(6) 0.55037(3)
Cu2_2 Cu 0.14563(6) 1.94046(6) -0.05523(3)
Cu2_3 Cu 1.14563(6) -0.05954(6) 0.94477(3)
O3_2 O 0.2541(4) 0.8293(4) -0.11629(19)
O8_2 O 0.5397(3) 0.6296(3) 0.47534(16)
O8A O 0.4603(3) 0.3704(3) 0.52466(16)
N4_2 N 0.0923(4) 1.0718(4) -0.1395(2)
O9 O 1.1121(4) 0.2661(4) 0.2154(2)
H39 H 1.069(5) 0.287(6) 0.1789(18)
H40 H 1.065(5) 0.292(6) 0.2492(19)
O10 O -0.2935(5) 0.9662(5) -0.2613(3)
H41 H -0.372(5) 1.001(5) -0.239(2)
H42 H -0.215(4) 0.906(4) -0.264(3)
O11 O 0.4937(5) 1.9682(6) -0.1475(3)
H43 H 0.427(5) 1.921(7) -0.146(4)
H44 H 0.478(7) 2.007(7) -0.113(3)
O12 O 0.3197(7) 0.0510(5) 0.4037(3)
H45 H 0.388(5) 0.007(7) 0.422(4)
H46 H 0.247(4) 0.039(8) 0.433(3)
O13 O 1.1040(17) 0.1700(16) 0.4550(8)
O14? O 1.0484(15) 0.0553(15) 0.4808(8)
loop_
_geom_bond_atom_site_label_1
_geom_bond_atom_site_label_2
_geom_bond_site_symmetry_1
_geom_bond_site_symmetry_2
Cu1 O5 1_555 1_555
Cu2 O1 1_555 1_555
O1 C21 1_555 1_555
O2 C21 1_555 1_555
O3 C27 1_555 1_555
O4 C27 1_555 1_555
O5 C28 1_555 1_555
O6 C28 1_555 1_555
O7 C34 1_555 1_555
O8 C34 1_555 1_555
N1 Cu2 1_555 1_555
N2 H1 1_555 1_555
N3 Cu1 1_555 1_555
N4 C11 1_555 1_555
N5 H2 1_555 1_555
N6 Cu1 1_555 1_555
C1 N1 1_555 1_555
H3 C1 1_555 1_555
C2 C1 1_555 1_555
H4 C2 1_555 1_555
C3 N2 1_555 1_555
C4 C3 1_555 1_555
H5 C4 1_555 1_555
C5 N1 1_555 1_555
H6 C5 1_555 1_555
C6 N3 1_555 1_555
H7 C6 1_555 1_555
C7 C6 1_555 1_555
H8 C7 1_555 1_555
C8 N2 1_555 1_555
C9 C8 1_555 1_555
H9 C9 1_555 1_555
C10 N3 1_555 1_555
H10 C10 1_555 1_555
C11 H11 1_555 1_555
C12 C11 1_555 1_555
H12 C12 1_555 1_555
C13 N5 1_555 1_555
C14 C13 1_555 1_555
H13 C14 1_555 1_555
C15 N4 1_555 1_555
H14 C15 1_555 1_555
C16 N6 1_555 1_555
H15 C16 1_555 1_555
C17 C16 1_555 1_555
H16 C17 1_555 1_555
C18 N5 1_555 1_555
C19 C18 1_555 1_555
H17 C19 1_555 1_555
C20 N6 1_555 1_555
H18 C20 1_555 1_555
C21 C22 1_555 1_555
C22 H19 1_555 1_555
H20 C22 1_555 1_555
C23 C22 1_555 1_555
H21 C23 1_555 1_555
H22 C23 1_555 1_555
C24 C23 1_555 1_555
H23 C24 1_555 1_555
H24 C24 1_555 1_555
C25 C24 1_555 1_555
H25 C25 1_555 1_555
H26 C25 1_555 1_555
C26 C25 1_555 1_555
H27 C26 1_555 1_555
H28 C26 1_555 1_555
C27 C26 1_555 1_555
C28 C29 1_555 1_555
C29 H29 1_555 1_555
H30 C29 1_555 1_555
C30 C29 1_555 1_555
H31 C30 1_555 1_555
H32 C30 1_555 1_555
C31 C30 1_555 1_555
H33 C31 1_555 1_555
H34 C31 1_555 1_555
C32 C31 1_555 1_555
H35 C32 1_555 1_555
H36 C32 1_555 1_555
C33 C32 1_555 1_555
H37 C33 1_555 1_555
H38 C33 1_555 1_555
C34 C33 1_555 1_555
O9 H39 1_555 1_555
H40 O9 1_555 1_555
O10 H41 1_555 1_555
H42 O10 1_555 1_555
O11 H43 1_555 1_555
H44 O11 1_555 1_555
O12 H45 1_555 1_555
H46 O12 1_555 1_555
Cu1_2 O8 1_555 1_555
Cu1A O8 1_555 1_555
Cu2_2 O3 1_555 1_555
Cu2_3 N4 1_555 1_555
O3_2 Cu2 1_555 1_555
O8_2 Cu1 1_555 1_555
O8A Cu1 1_555 1_555
N4_2 Cu2 1_555 1_555
C2 C3 1_555 1_555
C4 C5 1_555 1_555
C7 C8 1_555 1_555
C9 C10 1_555 1_555
C12 C13 1_555 1_555
C14 C15 1_555 1_555
C17 C18 1_555 1_555
C19 C20 1_555 1_555

#END
