
#######################################################################
#
#                 Cambridge Crystallographic Data Centre
#                                CCDC 
#
#######################################################################
#
# If this CIF has been generated from an entry in the Cambridge 
# Structural Database, then it will include bibliographic, chemical, 
# crystal, experimental, refinement or atomic coordinate data resulting 
# from the CCDC's data processing and validation procedures.
#
#######################################################################

data_YISNUK
_symmetry_cell_setting           monoclinic
_symmetry_space_group_name_H-M   'P 21/c'
_symmetry_Int_Tables_number      14
_space_group_name_Hall           '-P 2ybc'
loop_
_symmetry_equiv_pos_site_id
_symmetry_equiv_pos_as_xyz
1 x,y,z
2 -x,1/2+y,1/2-z
3 -x,-y,-z
4 x,1/2-y,1/2+z
_cell_length_a                   7.572(4)
_cell_length_b                   17.096(9)
_cell_length_c                   15.499(9)
_cell_angle_alpha                90
_cell_angle_beta                 93.288(9)
_cell_angle_gamma                90
_cell_volume                     2003.06
loop_
_atom_site_label
_atom_site_type_symbol
_atom_site_fract_x
_atom_site_fract_y
_atom_site_fract_z
Ni1 Ni 0.15240(2) 0.297928(10) 0.667955(12)
O1 O 0.25999(16) 0.18318(7) 0.65232(7)
O2 O 0.07003(15) 0.23535(6) 0.55811(7)
O3 O 0.59926(14) -0.14956(7) 0.86071(7)
O4 O 0.69313(13) -0.15570(6) 0.73024(7)
N1 N 0.01841(16) 0.40095(7) 0.63707(8)
N2 N -0.95093(16) 0.75687(7) 0.75959(8)
C1 C 0.0515(2) 0.46897(9) 0.67760(11)
H1 H 0.1376 0.4700 0.7228
C2 C -0.0356(2) 0.53756(9) 0.65575(11)
H2 H -0.0071 0.5834 0.6858
C3 C -0.16573(19) 0.53830(9) 0.58900(9)
C4 C -0.2006(2) 0.46789(9) 0.54801(10)
H3 H -0.2874 0.4651 0.5032
C5 C -0.1072(2) 0.40157(9) 0.57313(10)
H4 H -0.1332 0.3550 0.5440
C6 C -0.2674(2) 0.61124(10) 0.56494(10)
H5 H -0.3207 0.6057 0.5069
H6 H -0.1867 0.6553 0.5652
C7 C -0.4115(2) 0.62735(9) 0.62720(10)
H7 H -0.4915 0.5830 0.6273
H8 H -0.3580 0.6333 0.6852
C8 C -0.5157(2) 0.70068(9) 0.60246(11)
H9 H -0.4357 0.7450 0.6058
H10 H -0.5606 0.6958 0.5428
C9 C -0.9588(2) 0.76950(10) 0.67441(10)
H11 H -1.0609 0.7920 0.6490
C10 C -0.8235(2) 0.75094(9) 0.62214(10)
H12 H -0.8360 0.7608 0.5631
C11 C -0.6685(2) 0.71749(8) 0.65768(10)
C12 C -0.6617(2) 0.70309(9) 0.74610(11)
H13 H -0.5622 0.6797 0.7729
C13 C -0.8021(2) 0.72336(10) 0.79391(10)
H14 H -0.7938 0.7134 0.8530
C14 C 0.1679(2) 0.17856(9) 0.58253(10)
C15 C 0.1666(3) 0.10634(11) 0.52658(12)
H15 H 0.1810 0.1224 0.4674
H16 H 0.0515 0.0817 0.5284
C16 C 0.3068(3) 0.04598(11) 0.55111(12)
H17 H 0.4206 0.0721 0.5574
H18 H 0.3123 0.0088 0.5040
C17 C 0.2782(2) 0.00114(10) 0.63357(11)
H19 H 0.1747 -0.0320 0.6246
H20 H 0.2554 0.0379 0.6793
C18 C 0.4364(2) -0.04928(11) 0.66189(11)
H21 H 0.4509 -0.0897 0.6189
H22 H 0.5420 -0.0171 0.6643
C19 C 0.4194(2) -0.08719(9) 0.74824(10)
H23 H 0.3177 -0.1217 0.7444
H24 H 0.3961 -0.0468 0.7900
C20 C 0.57825(18) -0.13356(8) 0.78178(9)
Ni1A Ni 0.84760(2) -0.202072(10) 0.832045(12)
Ni1A_2 Ni -1.15240(2) 0.797928(10) 0.832045(12)
O3A O 0.40074(14) 0.35044(7) 0.63929(7)
O4A O 0.30687(13) 0.34430(6) 0.76976(7)
N2A N -0.04907(16) 0.25687(7) 0.74041(8)
loop_
_geom_bond_atom_site_label_1
_geom_bond_atom_site_label_2
_geom_bond_site_symmetry_1
_geom_bond_site_symmetry_2
Ni1 O1 1_555 1_555
O1 C14 1_555 1_555
O2 Ni1 1_555 1_555
O3 C20 1_555 1_555
O4 C20 1_555 1_555
N1 Ni1 1_555 1_555
N2 C9 1_555 1_555
C1 N1 1_555 1_555
H1 C1 1_555 1_555
C2 C1 1_555 1_555
H2 C2 1_555 1_555
C3 C2 1_555 1_555
C4 C3 1_555 1_555
H3 C4 1_555 1_555
C5 N1 1_555 1_555
H4 C5 1_555 1_555
C6 C3 1_555 1_555
H5 C6 1_555 1_555
H6 C6 1_555 1_555
C7 C6 1_555 1_555
H7 C7 1_555 1_555
H8 C7 1_555 1_555
C8 C7 1_555 1_555
H9 C8 1_555 1_555
H10 C8 1_555 1_555
C9 H11 1_555 1_555
C10 C9 1_555 1_555
H12 C10 1_555 1_555
C11 C8 1_555 1_555
C12 C11 1_555 1_555
H13 C12 1_555 1_555
C13 N2 1_555 1_555
H14 C13 1_555 1_555
C14 O2 1_555 1_555
C15 C14 1_555 1_555
H15 C15 1_555 1_555
H16 C15 1_555 1_555
C16 C15 1_555 1_555
H17 C16 1_555 1_555
H18 C16 1_555 1_555
C17 C16 1_555 1_555
H19 C17 1_555 1_555
H20 C17 1_555 1_555
C18 C17 1_555 1_555
H21 C18 1_555 1_555
H22 C18 1_555 1_555
C19 C18 1_555 1_555
H23 C19 1_555 1_555
H24 C19 1_555 1_555
C20 C19 1_555 1_555
Ni1A O3 1_555 1_555
Ni1A_2 N2 1_555 1_555
O3A Ni1 1_555 1_555
O4A Ni1 1_555 1_555
N2A Ni1 1_555 1_555
O4 Ni1A 1_555 1_555
C4 C5 1_555 1_555
C10 C11 1_555 1_555
C12 C13 1_555 1_555

#END
