
#######################################################################
#
#                 Cambridge Crystallographic Data Centre
#                                CCDC 
#
#######################################################################
#
# If this CIF has been generated from an entry in the Cambridge 
# Structural Database, then it will include bibliographic, chemical, 
# crystal, experimental, refinement or atomic coordinate data resulting 
# from the CCDC's data processing and validation procedures.
#
#######################################################################

data_YISNIY
_symmetry_cell_setting           monoclinic
_symmetry_space_group_name_H-M   'P 21/c'
_symmetry_Int_Tables_number      14
_space_group_name_Hall           '-P 2ybc'
loop_
_symmetry_equiv_pos_site_id
_symmetry_equiv_pos_as_xyz
1 x,y,z
2 -x,1/2+y,1/2-z
3 -x,-y,-z
4 x,1/2-y,1/2+z
_cell_length_a                   8.736(4)
_cell_length_b                   16.295(7)
_cell_length_c                   13.337(6)
_cell_angle_alpha                90
_cell_angle_beta                 104.513(7)
_cell_angle_gamma                90
_cell_volume                     1837.98
loop_
_atom_site_label
_atom_site_type_symbol
_atom_site_fract_x
_atom_site_fract_y
_atom_site_fract_z
Co1 Co 0.35799(3) 0.085308(15) 0.10900(2)
O1 O 0.60680(17) 0.04919(9) 0.15713(12)
O2 O 0.49807(17) 0.11711(9) 0.26180(11)
O3 O 0.7153(2) -0.29461(10) 0.59920(13)
O4 O 0.56271(16) -0.30418(9) 0.43981(11)
O5 O 0.25532(19) 0.05266(10) -0.04485(12)
H1 H 0.291(3) 0.0165(12) -0.0776(18)
H2 H 0.263(4) 0.0994(12) -0.071(2)
N1 N 0.14519(18) 0.14169(10) 0.11825(13)
N2 N -0.26078(19) 0.25340(11) 0.16781(15)
H3 H -0.349(2) 0.2319(14) 0.1356(17)
N3 N -0.30663(19) 0.46784(10) 0.33198(14)
C1 C 0.0004(2) 0.12722(13) 0.05715(16)
H4 H -0.0087 0.0902 0.0029
C2 C -0.1348(2) 0.16377(13) 0.06997(16)
H5 H -0.2323 0.1512 0.0256
C3 C -0.1247(2) 0.22007(12) 0.15028(16)
C4 C 0.0250(2) 0.23482(13) 0.21419(16)
H6 H 0.0377 0.2712 0.2694
C5 C 0.1532(2) 0.19549(12) 0.19542(16)
H7 H 0.2521 0.2067 0.2389
C6 C -0.1927(3) 0.45983(13) 0.28200(19)
H8 H -0.1246 0.5039 0.2833
C7 C -0.1697(3) 0.39051(14) 0.2288(2)
H9 H -0.0879 0.3884 0.1957
C8 C -0.2695(2) 0.32378(12) 0.22484(16)
C9 C -0.3876(2) 0.33084(12) 0.27745(17)
H10 H -0.4567 0.2875 0.2779
C10 C -0.4012(2) 0.40257(12) 0.32885(17)
H11 H -0.4809 0.4060 0.3636
C11 C 0.6166(2) 0.08168(12) 0.24488(16)
C12 C 0.7694(3) 0.07677(16) 0.3285(2)
H12 H 0.7616 0.1112 0.3863
H13 H 0.8553 0.0975 0.3015
C13 C 0.8061(3) -0.01047(17) 0.3661(2)
H14 H 0.9138 -0.0127 0.4086
H15 H 0.7998 -0.0458 0.3067
C14 C 0.6952(3) -0.04367(15) 0.4288(2)
H16 H 0.7100 -0.0124 0.4923
H17 H 0.5866 -0.0363 0.3893
C15 C 0.7238(3) -0.13367(15) 0.4552(2)
H18 H 0.8312 -0.1402 0.4971
H19 H 0.7149 -0.1642 0.3915
C16 C 0.6114(3) -0.17073(13) 0.51285(18)
H20 H 0.5033 -0.1574 0.4771
H21 H 0.6325 -0.1478 0.5821
C17 C 0.6317(2) -0.26325(13) 0.51949(16)
Co1A Co 0.64201(3) -0.414692(15) 0.39100(2)
Co1A_2 Co -0.35799(3) 0.585308(15) 0.39100(2)
O4A O 0.43729(16) 0.19582(9) 0.06019(11)
N3A N 0.30663(19) -0.03216(10) 0.16802(14)
loop_
_geom_bond_atom_site_label_1
_geom_bond_atom_site_label_2
_geom_bond_site_symmetry_1
_geom_bond_site_symmetry_2
Co1 O1 1_555 1_555
O1 C11 1_555 1_555
O2 Co1 1_555 1_555
O3 C17 1_555 1_555
O4 C17 1_555 1_555
O5 Co1 1_555 1_555
H1 O5 1_555 1_555
H2 O5 1_555 1_555
N1 Co1 1_555 1_555
N2 H3 1_555 1_555
N3 C6 1_555 1_555
C1 N1 1_555 1_555
H4 C1 1_555 1_555
C2 C1 1_555 1_555
H5 C2 1_555 1_555
C3 N2 1_555 1_555
C4 C3 1_555 1_555
H6 C4 1_555 1_555
C5 N1 1_555 1_555
H7 C5 1_555 1_555
C6 H8 1_555 1_555
C7 C6 1_555 1_555
H9 C7 1_555 1_555
C8 N2 1_555 1_555
C9 C8 1_555 1_555
H10 C9 1_555 1_555
C10 N3 1_555 1_555
H11 C10 1_555 1_555
C11 O2 1_555 1_555
C12 C11 1_555 1_555
H12 C12 1_555 1_555
H13 C12 1_555 1_555
C13 C12 1_555 1_555
H14 C13 1_555 1_555
H15 C13 1_555 1_555
C14 C13 1_555 1_555
H16 C14 1_555 1_555
H17 C14 1_555 1_555
C15 C14 1_555 1_555
H18 C15 1_555 1_555
H19 C15 1_555 1_555
C16 C15 1_555 1_555
H20 C16 1_555 1_555
H21 C16 1_555 1_555
C17 C16 1_555 1_555
Co1A O4 1_555 1_555
Co1A_2 N3 1_555 1_555
O4A Co1 1_555 1_555
N3A Co1 1_555 1_555
C2 C3 1_555 1_555
C4 C5 1_555 1_555
C7 C8 1_555 1_555
C9 C10 1_555 1_555

#END
