
#######################################################################
#
#                 Cambridge Crystallographic Data Centre
#                                CCDC 
#
#######################################################################
#
# If this CIF has been generated from an entry in the Cambridge 
# Structural Database, then it will include bibliographic, chemical, 
# crystal, experimental, refinement or atomic coordinate data resulting 
# from the CCDC's data processing and validation procedures.
#
#######################################################################

data_YISPUL
_symmetry_cell_setting           monoclinic
_symmetry_space_group_name_H-M   'P 21/a'
_symmetry_Int_Tables_number      14
_space_group_name_Hall           '-P 2yab'
loop_
_symmetry_equiv_pos_site_id
_symmetry_equiv_pos_as_xyz
1 x,y,z
2 1/2-x,1/2+y,-z
3 -x,-y,-z
4 1/2+x,1/2-y,z
_cell_length_a                   8.679(13)
_cell_length_b                   5.205(8)
_cell_length_c                   27.486(42)
_cell_angle_alpha                90
_cell_angle_beta                 97.36(12)
_cell_angle_gamma                90
_cell_volume                     1231.43
loop_
_atom_site_label
_atom_site_type_symbol
_atom_site_fract_x
_atom_site_fract_y
_atom_site_fract_z
Li1 Li 0.1446 -0.6155 0.0053
O1 O 0.0636 -0.3211 0.0354
O2 O 0.1965 0.0450 0.0337
C1 C 0.1108 -0.1084 0.0535
C2 C 0.0662 -0.0396 0.1034
C3 C 0.1264 0.1705 0.1293
C4 C 0.0953 0.2182 0.1757
C5 C -0.0114 0.0636 0.1967
C6 C -0.0731 -0.1501 0.1708
C7 C -0.0423 -0.2005 0.1248
H1 H 0.1870 0.2923 0.1136
H2 H 0.1478 0.3555 0.1944
H3 H -0.0406 0.1020 0.2284
H4 H -0.1402 -0.2647 0.1856
H5 H -0.0936 -0.3392 0.1062
O1B O -0.0636 -0.6789 -0.0354
O2_2 O 0.1965 -0.9550 0.0337
O2A O 0.3035 -0.4550 -0.0337
Li1B Li -0.1446 -0.3845 -0.0053
Li1_2 Li 0.1446 0.3845 0.0053
Li1A Li 0.3554 -0.1155 -0.0053
Li2 Li 0.1426 -1.1166 0.4964
O3 O 0.0323 -0.8285 0.4644
O4 O 0.1686 -0.4585 0.4661
C8 C 0.0651 -0.6169 0.4460
C9 C -0.0127 -0.5473 0.3950
C10 C 0.0303 -0.3425 0.3688
C11 C -0.0313 -0.2932 0.3215
C12 C -0.1487 -0.4535 0.3001
C13 C -0.1966 -0.6604 0.3254
C14 C -0.1346 -0.7121 0.3726
H6 H 0.1104 -0.2324 0.3844
H7 H 0.0018 -0.1474 0.3041
H8 H -0.1949 -0.4229 0.2670
H9 H -0.2759 -0.7706 0.3093
H10 H -0.1709 -0.8535 0.3905
O3B O -0.0323 -1.1715 0.5356
O4_2 O 0.1686 -1.4585 0.4661
O4A O 0.3314 -0.9585 0.5339
Li2B Li -0.1426 -0.8834 0.5036
Li2_2 Li 0.1426 -0.1166 0.4964
Li2A Li 0.3574 -0.6166 0.5036
loop_
_geom_bond_atom_site_label_1
_geom_bond_atom_site_label_2
_geom_bond_site_symmetry_1
_geom_bond_site_symmetry_2
Li1 O1 1_555 1_555
O1 C1 1_555 1_555
O2 C1 1_555 1_555
C1 C2 1_555 1_555
C2 C3 1_555 1_555
C3 C4 1_555 1_555
C4 C5 1_555 1_555
C5 C6 1_555 1_555
C6 C7 1_555 1_555
C7 C2 1_555 1_555
Li2 O3 1_555 1_555
O3 C8 1_555 1_555
O4 C8 1_555 1_555
C8 C9 1_555 1_555
C9 C10 1_555 1_555
C10 C11 1_555 1_555
C11 C12 1_555 1_555
C12 C13 1_555 1_555
C13 C14 1_555 1_555
C14 C9 1_555 1_555
H1 C3 1_555 1_555
H2 C4 1_555 1_555
H3 C5 1_555 1_555
H4 C6 1_555 1_555
H5 C7 1_555 1_555
H6 C10 1_555 1_555
H7 C11 1_555 1_555
H8 C12 1_555 1_555
H9 C13 1_555 1_555
H10 C14 1_555 1_555
O1B Li1 1_555 1_555
O2_2 Li1 1_555 1_555
O2A Li1 1_555 1_555
Li1B O1 1_555 1_555
Li1_2 O2 1_555 1_555
Li1A O2 1_555 1_555
O3B Li2 1_555 1_555
O4_2 Li2 1_555 1_555
O4A Li2 1_555 1_555
Li2B O3 1_555 1_555
Li2_2 O4 1_555 1_555
Li2A O4 1_555 1_555
O1B Li1B 1_555 1_555
O2A Li1A 1_555 1_555
O3B Li2B 1_555 1_555
O4A Li2A 1_555 1_555

#END
