
#######################################################################
#
#                 Cambridge Crystallographic Data Centre
#                                CCDC 
#
#######################################################################
#
# If this CIF has been generated from an entry in the Cambridge 
# Structural Database, then it will include bibliographic, chemical, 
# crystal, experimental, refinement or atomic coordinate data resulting 
# from the CCDC's data processing and validation procedures.
#
#######################################################################

data_YISTUR
_symmetry_cell_setting           triclinic
_symmetry_space_group_name_H-M   'P -1'
_symmetry_Int_Tables_number      2
_space_group_name_Hall           '-P 1'
loop_
_symmetry_equiv_pos_site_id
_symmetry_equiv_pos_as_xyz
1 x,y,z
2 -x,-y,-z
_cell_length_a                   9.921(3)
_cell_length_b                   10.389(4)
_cell_length_c                   11.688(6)
_cell_angle_alpha                90.726(8)
_cell_angle_beta                 104.572(8)
_cell_angle_gamma                97.646(7)
_cell_volume                     1154.22
loop_
_atom_site_label
_atom_site_type_symbol
_atom_site_fract_x
_atom_site_fract_y
_atom_site_fract_z
Cd1 Cd 0.521873(16) 0.940872(15) -0.161791(14)
O1 O 0.56261(18) 0.89340(16) 0.05927(14)
O2 O 0.7033(2) 0.7391(2) 0.08036(17)
O3 O 0.7210(2) 0.7412(2) 0.68136(16)
O4 O 0.5567(2) 0.8726(2) 0.64256(16)
O5 O 0.5827(2) 0.72910(18) -0.14801(16)
H1 H 0.6442 0.7227 -0.0816
H2 H 0.5089 0.6727 -0.1510
N1 N 0.5672(3) 0.8881(2) 0.29208(18)
N2 N 0.2966(2) 0.8404(2) -0.2177(2)
N3 N 0.1278(2) 0.7033(2) -0.3321(2)
N4 N 0.7363(2) 1.0609(2) -0.11232(19)
N5 N 0.8873(2) 1.24033(19) -0.06804(19)
C1 C 0.6339(3) 0.8126(2) 0.1183(2)
C2 C 0.6350(3) 0.8048(2) 0.2483(2)
C3 C 0.7043(4) 0.7140(3) 0.3178(3)
C4 C 0.7067(4) 0.7126(3) 0.4366(3)
C5 C 0.6378(3) 0.7990(3) 0.4827(2)
C6 C 0.5687(4) 0.8830(3) 0.4065(2)
C7 C 0.6384(3) 0.8043(3) 0.6135(2)
C8 C 0.2666(3) 0.7382(3) -0.2909(3)
C9 C 0.1684(3) 0.8724(3) -0.2123(3)
C10 C 0.0634(3) 0.7886(3) -0.2817(3)
C11 C 0.8613(3) 1.0397(3) -0.1340(3)
C12 C 0.9556(3) 1.1488(3) -0.1067(3)
C13 C 0.7562(3) 1.1830(3) -0.0728(2)
C14 C 0.7418(3) 1.4470(3) -0.1929(3)
H3 H 0.7381 1.3646 -0.2325
H4 H 0.7419 1.5146 -0.2482
H5 H 0.6611 1.4458 -0.1614
C15 C 0.8744(3) 1.4724(3) -0.0932(2)
C16 C 0.9430(3) 1.3744(2) -0.0345(2)
C17 C 1.0644(3) 1.4005(2) 0.0558(3)
H6 H 1.1064 1.3317 0.0925
C18 C 0.0618(3) 0.5994(3) -0.4200(2)
C19 C 0.0587(3) 0.6194(3) -0.5369(3)
C20 C 0.0050(3) 0.4848(3) -0.3825(3)
H7 H 0.0090 0.4764 -0.3026
C21 C 0.1175(6) 0.7479(4) -0.5775(4)
H8 H 0.0981 0.8180 -0.5326
H9 H 0.0743 0.7551 -0.6600
H10 H 0.2173 0.7520 -0.5655
H11 H 0.687(3) 1.224(3) -0.051(3)
H12 H 0.163(4) 0.938(4) -0.166(3)
H13 H 0.872(4) 0.962(4) -0.164(3)
H14 H 1.043(4) 1.168(3) -0.110(3)
H15 H 0.331(4) 0.694(3) -0.306(3)
H16 H -0.025(4) 0.788(3) -0.302(3)
H17 H 0.517(4) 0.939(4) 0.433(3)
H18 H 0.747(4) 0.654(3) 0.284(3)
H19 H 0.759(4) 0.658(4) 0.488(4)
N2A N -0.2966(2) 0.1596(2) -0.7823(2)
N3A N -0.1278(2) 0.2967(2) -0.6679(2)
C8A C -0.2666(3) 0.2618(3) -0.7091(3)
C9A C -0.1684(3) 0.1276(3) -0.7877(3)
C10A C -0.0634(3) 0.2114(3) -0.7183(3)
C18A C -0.0618(3) 0.4006(3) -0.5800(2)
C19A C -0.0587(3) 0.3806(3) -0.4631(3)
C20A C -0.0050(3) 0.5152(3) -0.6175(3)
H7A H -0.0090 0.5236 -0.6974
C21A C -0.1175(6) 0.2521(4) -0.4225(4)
H8A H -0.0981 0.1820 -0.4674
H9A H -0.0743 0.2449 -0.3400
H10A H -0.2173 0.2480 -0.4345
H12A H -0.163(4) 0.062(4) -0.834(3)
H15A H -0.331(4) 0.306(3) -0.694(3)
H16A H 0.025(4) 0.212(3) -0.698(3)
N4A N 1.2637(2) 1.9391(2) 0.11232(19)
N5A N 1.1127(2) 1.75967(19) 0.06804(19)
C11A C 1.1387(3) 1.9603(3) 0.1340(3)
C12A C 1.0444(3) 1.8512(3) 0.1067(3)
C13A C 1.2438(3) 1.8170(3) 0.0728(2)
C14A C 1.2582(3) 1.5530(3) 0.1929(3)
H3A H 1.2619 1.6354 0.2325
H4A H 1.2581 1.4854 0.2482
H5A H 1.3389 1.5542 0.1614
C15A C 1.1256(3) 1.5276(3) 0.0932(2)
C16A C 1.0570(3) 1.6256(2) 0.0345(2)
C17A C 0.9356(3) 1.5995(2) -0.0558(3)
H6A H 0.8936 1.6683 -0.0925
H11A H 1.313(3) 1.776(3) 0.051(3)
H13A H 1.128(4) 2.038(4) 0.164(3)
H14A H 0.957(4) 1.832(3) 0.110(3)
Cd1A Cd -0.521873(16) 0.059128(15) -0.838209(14)
O1A O -0.56261(18) 0.10660(16) -1.05927(14)
O2A O -0.7033(2) 0.2609(2) -1.08036(17)
O3A O -0.7210(2) 0.2588(2) -1.68136(16)
O4A O -0.5567(2) 0.1274(2) -1.64256(16)
O5A O -0.5827(2) 0.27090(18) -0.85199(16)
H1A H -0.6442 0.2773 -0.9184
H2A H -0.5089 0.3273 -0.8490
N1A N -0.5672(3) 0.1119(2) -1.29208(18)
C1A C -0.6339(3) 0.1874(2) -1.1183(2)
C2A C -0.6350(3) 0.1952(2) -1.2483(2)
C3A C -0.7043(4) 0.2860(3) -1.3178(3)
C4A C -0.7067(4) 0.2874(3) -1.4366(3)
C5A C -0.6378(3) 0.2010(3) -1.4827(2)
C6A C -0.5687(4) 0.1170(3) -1.4065(2)
C7A C -0.6384(3) 0.1957(3) -1.6135(2)
H17A H -0.517(4) 0.061(4) -1.433(3)
H18A H -0.747(4) 0.346(3) -1.284(3)
H19A H -0.759(4) 0.342(4) -1.488(4)
Cd1_2 Cd -0.478127(16) -0.059128(15) -1.161791(14)
Cd1_3 Cd 0.521873(16) 0.940872(15) 0.838209(14)
Cd1A_2 Cd -0.521873(16) 0.059128(15) -1.838209(14)
Cd1A_3 Cd 0.478127(16) 1.059128(15) 0.161791(14)
Cd1A_4 Cd 1.478127(16) 2.059128(15) 0.161791(14)
O1_2 O -0.43739(18) -0.10660(16) -0.94073(14)
O1A_2 O 0.43739(18) 1.10660(16) -0.05927(14)
O4_2 O 0.5567(2) 0.8726(2) -0.35744(16)
O4A_2 O -0.5567(2) 0.1274(2) -0.64256(16)
N1_2 N -0.4328(3) -0.1119(2) -0.70792(18)
N1A_2 N 0.4328(3) 1.1119(2) -0.29208(18)
N4A_2 N -0.7363(2) -0.0609(2) -0.88768(19)
O6 O 0.6579(8) 0.4392(5) 0.0794(7)
H20 H 0.6088 0.4029 0.1231
H21 H 0.6591 0.5211 0.0843
loop_
_geom_bond_atom_site_label_1
_geom_bond_atom_site_label_2
_geom_bond_site_symmetry_1
_geom_bond_site_symmetry_2
Cd1 O1 1_555 1_555
O1 C1 1_555 1_555
O2 C1 1_555 1_555
O3 C7 1_555 1_555
O4 C7 1_555 1_555
O5 Cd1 1_555 1_555
H1 O5 1_555 1_555
H2 O5 1_555 1_555
N1 C2 1_555 1_555
N2 Cd1 1_555 1_555
N3 C8 1_555 1_555
N4 Cd1 1_555 1_555
N5 C12 1_555 1_555
C1 C2 1_555 1_555
C2 C3 1_555 1_555
C3 C4 1_555 1_555
C4 C5 1_555 1_555
C5 C6 1_555 1_555
C6 N1 1_555 1_555
C7 C5 1_555 1_555
C8 N2 1_555 1_555
C9 N2 1_555 1_555
C10 N3 1_555 1_555
C11 N4 1_555 1_555
C12 C11 1_555 1_555
C13 N4 1_555 1_555
C14 H3 1_555 1_555
H4 C14 1_555 1_555
H5 C14 1_555 1_555
C15 C14 1_555 1_555
C16 N5 1_555 1_555
C17 C16 1_555 1_555
H6 C17 1_555 1_555
C18 N3 1_555 1_555
C19 C18 1_555 1_555
C20 C18 1_555 1_555
H7 C20 1_555 1_555
C21 C19 1_555 1_555
H8 C21 1_555 1_555
H9 C21 1_555 1_555
H10 C21 1_555 1_555
H11 C13 1_555 1_555
H12 C9 1_555 1_555
H13 C11 1_555 1_555
H14 C12 1_555 1_555
H15 C8 1_555 1_555
H16 C10 1_555 1_555
H17 C6 1_555 1_555
H18 C3 1_555 1_555
H19 C4 1_555 1_555
O6 H20 1_555 1_555
H21 O6 1_555 1_555
N2A C8A 1_555 1_555
N3A C8A 1_555 1_555
C8A H15A 1_555 1_555
C9A N2A 1_555 1_555
C10A N3A 1_555 1_555
C18A N3A 1_555 1_555
C19A C20 1_555 1_555
C20A C19 1_555 1_555
H7A C20A 1_555 1_555
C21A C19A 1_555 1_555
H8A C21A 1_555 1_555
H9A C21A 1_555 1_555
H10A C21A 1_555 1_555
H12A C9A 1_555 1_555
H16A C10A 1_555 1_555
N4A C11A 1_555 1_555
N5A C12A 1_555 1_555
C11A C12A 1_555 1_555
C12A H14A 1_555 1_555
C13A N4A 1_555 1_555
C14A H3A 1_555 1_555
H4A C14A 1_555 1_555
H5A C14A 1_555 1_555
C15A C17 1_555 1_555
C16A N5A 1_555 1_555
C17A C15 1_555 1_555
H6A C17A 1_555 1_555
H11A C13A 1_555 1_555
H13A C11A 1_555 1_555
Cd1A N2A 1_555 1_555
O1A Cd1A 1_555 1_555
O2A C1A 1_555 1_555
O3A C7A 1_555 1_555
O4A C7A 1_555 1_555
O5A Cd1A 1_555 1_555
H1A O5A 1_555 1_555
H2A O5A 1_555 1_555
N1A C2A 1_555 1_555
C1A O1A 1_555 1_555
C2A C1A 1_555 1_555
C3A C2A 1_555 1_555
C4A C3A 1_555 1_555
C5A C4A 1_555 1_555
C6A N1A 1_555 1_555
C7A C5A 1_555 1_555
H17A C6A 1_555 1_555
H18A C3A 1_555 1_555
H19A C4A 1_555 1_555
Cd1_2 O1A 1_555 1_555
Cd1_3 O4 1_555 1_555
Cd1A_2 O4A 1_555 1_555
Cd1A_3 O1 1_555 1_555
Cd1A_4 N4A 1_555 1_555
O1_2 Cd1A 1_555 1_555
O1A_2 Cd1 1_555 1_555
O4_2 Cd1 1_555 1_555
O4A_2 Cd1A 1_555 1_555
N1_2 Cd1A 1_555 1_555
N1A_2 Cd1 1_555 1_555
N4A_2 Cd1A 1_555 1_555
N1 Cd1A_3 1_555 1_555
N5 C13 1_555 1_555
C9 C10 1_555 1_555
C15 C16 1_555 1_555
C9A C10A 1_555 1_555
C18A C19A 1_555 1_555
C18A C20A 1_555 1_555
N5A C13A 1_555 1_555
C14A C15A 1_555 1_555
C15A C16A 1_555 1_555
C16A C17A 1_555 1_555
N1A Cd1_2 1_555 1_555
C5A C6A 1_555 1_555
Cd1_2 O1_2 1_555 1_555
Cd1A_3 O1A_2 1_555 1_555

#END
