
#######################################################################
#
#                 Cambridge Crystallographic Data Centre
#                                CCDC 
#
#######################################################################
#
# If this CIF has been generated from an entry in the Cambridge 
# Structural Database, then it will include bibliographic, chemical, 
# crystal, experimental, refinement or atomic coordinate data resulting 
# from the CCDC's data processing and validation procedures.
#
#######################################################################

data_YISYAC
_symmetry_cell_setting           monoclinic
_symmetry_space_group_name_H-M   'P 21'
_symmetry_Int_Tables_number      4
_space_group_name_Hall           'P 2yb'
loop_
_symmetry_equiv_pos_site_id
_symmetry_equiv_pos_as_xyz
1 x,y,z
2 -x,1/2+y,-z
_cell_length_a                   9.3619(14)
_cell_length_b                   21.298(3)
_cell_length_c                   10.9661(17)
_cell_angle_alpha                90
_cell_angle_beta                 110.224(3)
_cell_angle_gamma                90
_cell_volume                     2051.72
loop_
_atom_site_label
_atom_site_type_symbol
_atom_site_fract_x
_atom_site_fract_y
_atom_site_fract_z
Zn1 Zn 0.52055(14) 0.39712(6) 0.56651(12)
O1 O 0.3537(10) 0.3709(4) 0.3680(8)
N1 N 0.5566(11) 0.3047(5) 0.5504(10)
C1 C 0.3362(13) 0.4126(5) 0.2643(11)
Zn2 Zn 0.67331(15) 0.64891(6) 0.57378(13)
O2 O 0.6807(9) 0.4213(4) 0.4533(7)
N2 N 0.7011(11) 0.3861(5) 0.7407(9)
C2 C 0.2136(15) 0.4543(6) 0.2408(13)
H1 H 0.1445 0.4505 0.2842
O3 O 0.4849(10) 0.2122(4) 0.4400(8)
N3 N 0.3410(11) 0.4140(5) 0.6297(10)
C3 C 0.1996(14) 0.5017(6) 0.1495(13)
H2 H 0.1209 0.5307 0.1344
O4 O 0.5732(10) 0.5830(4) 0.4565(8)
N4 N 0.4853(12) 0.4914(5) 0.5231(10)
C4 C 0.2970(13) 0.5074(6) 0.0813(11)
N5 N 0.8268(14) 0.7097(6) 0.4450(13)
O5 O 0.8597(11) 0.6836(6) 0.5484(13)
C5 C 0.2868(16) 0.5577(7) -0.0056(14)
H3 H 0.2137 0.5886 -0.0148
N6 N 0.8270(17) 0.6210(8) 0.8273(14)
O6 O 0.9258(14) 0.7341(7) 0.4056(13)
C6 C 0.380(2) 0.5620(8) -0.0753(13)
H4 H 0.3653 0.5934 -0.1373
O7 O 0.6891(13) 0.7147(6) 0.3797(11)
C7 C 0.5012(16) 0.5176(8) -0.0524(13)
H5 H 0.5671 0.5205 -0.0992
C8 C 0.5205(16) 0.4721(7) 0.0356(15)
H6 H 0.6018 0.4445 0.0509
O8 O 0.7505(14) 0.5903(6) 0.7254(11)
C9 C 0.4191(13) 0.4646(6) 0.1073(11)
O9 O 0.8905(15) 0.5937(8) 0.9303(12)
C10 C 0.4418(13) 0.4174(5) 0.2013(10)
O10 O 0.8326(18) 0.6792(8) 0.8160(14)
C11 C 0.5765(13) 0.3750(6) 0.2387(12)
C12 C 0.5930(15) 0.3250(6) 0.1486(12)
C13 C 0.476(2) 0.3136(7) 0.0333(13)
H7 H 0.3899 0.3389 0.0091
C14 C 0.486(2) 0.2657(8) -0.0453(16)
H8 H 0.4072 0.2590 -0.1240
C15 C 0.608(2) 0.2282(8) -0.0094(19)
H9 H 0.6148 0.1961 -0.0646
C16 C 0.729(2) 0.2368(8) 0.113(2)
H10 H 0.8124 0.2097 0.1393
C17 C 0.7178(16) 0.2858(7) 0.1878(13)
C18 C 0.8328(16) 0.2934(7) 0.3065(15)
H11 H 0.9199 0.2688 0.3273
C19 C 0.8186(16) 0.3391(7) 0.3975(14)
H12 H 0.8920 0.3423 0.4800
C20 C 0.3498(14) 0.3042(6) 0.3436(12)
H13 H 0.3654 0.2963 0.2620
H14 H 0.2511 0.2874 0.3372
C21 C 0.4763(14) 0.2714(6) 0.4560(12)
C22 C 0.6764(12) 0.2808(6) 0.6602(11)
C23 C 0.7338(18) 0.2215(7) 0.6768(16)
H15 H 0.6924 0.1921 0.6114
C24 C 0.855(2) 0.2028(8) 0.7907(17)
H16 H 0.8867 0.1612 0.7999
C25 C 0.9232(17) 0.2436(8) 0.8838(15)
H17 H 1.0039 0.2311 0.9569
C26 C 0.8699(13) 0.3078(7) 0.8696(12)
C27 C 0.9375(16) 0.3545(10) 0.9655(15)
H18 H 1.0162 0.3444 1.0419
C28 C 0.8827(16) 0.4157(9) 0.9417(15)
H19 H 0.9249 0.4474 1.0016
C29 C 0.7672(16) 0.4282(7) 0.8301(13)
H20 H 0.7321 0.4693 0.8155
C30 C 0.7517(12) 0.3252(6) 0.7582(11)
C31 C 0.2699(16) 0.3745(7) 0.6851(13)
H21 H 0.3047 0.3334 0.7014
C32 C 0.1472(16) 0.3927(10) 0.7186(14)
H22 H 0.0989 0.3630 0.7531
C33 C 0.0979(16) 0.4488(9) 0.7039(13)
H23 H 0.0177 0.4596 0.7315
C34 C 0.1624(13) 0.4950(7) 0.6466(14)
C35 C 0.1124(16) 0.5576(8) 0.6192(16)
H24 H 0.0305 0.5719 0.6411
C36 C 0.1820(18) 0.5964(8) 0.562(2)
H25 H 0.1428 0.6365 0.5391
C37 C 0.3121(14) 0.5785(7) 0.5354(14)
H26 H 0.3638 0.6081 0.5041
C38 C 0.3644(12) 0.5179(6) 0.5548(11)
C39 C 0.2897(13) 0.4748(6) 0.6096(11)
C40 C 0.5751(12) 0.5245(6) 0.4748(11)
C41 C 0.6873(12) 0.4872(6) 0.4321(12)
H27 H 0.6667 0.4946 0.3403
H28 H 0.7895 0.5021 0.4792
C42 C 0.6886(13) 0.3796(6) 0.3585(11)
Zn2A Zn 0.32669(15) 0.14891(6) 0.42622(13)
O3A O 0.5151(10) 0.7122(4) 0.5600(8)
loop_
_geom_bond_atom_site_label_1
_geom_bond_atom_site_label_2
_geom_bond_site_symmetry_1
_geom_bond_site_symmetry_2
Zn1 O1 1_555 1_555
O1 C1 1_555 1_555
N1 Zn1 1_555 1_555
C1 C2 1_555 1_555
Zn2 O4 1_555 1_555
O2 Zn1 1_555 1_555
N2 Zn1 1_555 1_555
C2 H1 1_555 1_555
O3 C21 1_555 1_555
N3 Zn1 1_555 1_555
C3 C2 1_555 1_555
H2 C3 1_555 1_555
O4 C40 1_555 1_555
N4 Zn1 1_555 1_555
C4 C3 1_555 1_555
N5 O5 1_555 1_555
O5 Zn2 1_555 1_555
C5 C4 1_555 1_555
H3 C5 1_555 1_555
N6 O8 1_555 1_555
O6 N5 1_555 1_555
C6 C5 1_555 1_555
H4 C6 1_555 1_555
O7 N5 1_555 1_555
C7 C6 1_555 1_555
H5 C7 1_555 1_555
C8 C7 1_555 1_555
H6 C8 1_555 1_555
O8 Zn2 1_555 1_555
C9 C4 1_555 1_555
O9 N6 1_555 1_555
C10 C1 1_555 1_555
O10 N6 1_555 1_555
C11 C10 1_555 1_555
C12 C11 1_555 1_555
C13 C12 1_555 1_555
H7 C13 1_555 1_555
C14 C13 1_555 1_555
H8 C14 1_555 1_555
C15 C14 1_555 1_555
H9 C15 1_555 1_555
C16 C15 1_555 1_555
H10 C16 1_555 1_555
C17 C12 1_555 1_555
C18 C17 1_555 1_555
H11 C18 1_555 1_555
C19 C18 1_555 1_555
H12 C19 1_555 1_555
C20 O1 1_555 1_555
H13 C20 1_555 1_555
H14 C20 1_555 1_555
C21 N1 1_555 1_555
C22 N1 1_555 1_555
C23 C22 1_555 1_555
H15 C23 1_555 1_555
C24 C23 1_555 1_555
H16 C24 1_555 1_555
C25 C24 1_555 1_555
H17 C25 1_555 1_555
C26 C25 1_555 1_555
C27 C26 1_555 1_555
H18 C27 1_555 1_555
C28 C27 1_555 1_555
H19 C28 1_555 1_555
C29 N2 1_555 1_555
H20 C29 1_555 1_555
C30 N2 1_555 1_555
C31 N3 1_555 1_555
H21 C31 1_555 1_555
C32 C31 1_555 1_555
H22 C32 1_555 1_555
C33 C32 1_555 1_555
H23 C33 1_555 1_555
C34 C33 1_555 1_555
C35 C34 1_555 1_555
H24 C35 1_555 1_555
C36 C35 1_555 1_555
H25 C36 1_555 1_555
C37 C36 1_555 1_555
H26 C37 1_555 1_555
C38 N4 1_555 1_555
C39 N3 1_555 1_555
C40 N4 1_555 1_555
C41 O2 1_555 1_555
H27 C41 1_555 1_555
H28 C41 1_555 1_555
C42 O2 1_555 1_555
Zn2A O3 1_555 1_555
O3A Zn2 1_555 1_555
C8 C9 1_555 1_555
C9 C10 1_555 1_555
C11 C42 1_555 1_555
C16 C17 1_555 1_555
C19 C42 1_555 1_555
C20 C21 1_555 1_555
C22 C30 1_555 1_555
C26 C30 1_555 1_555
C28 C29 1_555 1_555
C34 C39 1_555 1_555
C37 C38 1_555 1_555
C38 C39 1_555 1_555
C40 C41 1_555 1_555

#END
