
#######################################################################
#
#                 Cambridge Crystallographic Data Centre
#                                CCDC 
#
#######################################################################
#
# If this CIF has been generated from an entry in the Cambridge 
# Structural Database, then it will include bibliographic, chemical, 
# crystal, experimental, refinement or atomic coordinate data resulting 
# from the CCDC's data processing and validation procedures.
#
#######################################################################

data_YITBUA
_symmetry_cell_setting           triclinic
_symmetry_space_group_name_H-M   'P -1'
_symmetry_Int_Tables_number      2
_space_group_name_Hall           '-P 1'
loop_
_symmetry_equiv_pos_site_id
_symmetry_equiv_pos_as_xyz
1 x,y,z
2 -x,-y,-z
_cell_length_a                   9.863(9)
_cell_length_b                   10.441(9)
_cell_length_c                   12.734(11)
_cell_angle_alpha                77.971(13)
_cell_angle_beta                 86.031(14)
_cell_angle_gamma                86.938(14)
_cell_volume                     1278.45
loop_
_atom_site_label
_atom_site_type_symbol
_atom_site_fract_x
_atom_site_fract_y
_atom_site_fract_z
Cd1 Cd 0.52770(4) 0.73386(3) -0.18696(3)
O1 O 0.5345(5) 1.4624(4) -0.1471(3)
O2 O 0.3826(5) 0.6906(5) -0.0361(3)
O3 O 0.5767(4) 1.5978(3) -0.2990(3)
O4 O 0.5463(5) 0.9765(4) -0.1515(3)
O5 O 0.6193(4) 0.9178(4) -0.2996(3)
N1 N 0.7159(4) 0.6964(4) -0.0958(3)
N2 N 0.8507(4) 0.6482(4) 0.0371(3)
N3 N 1.1850(4) -0.0534(4) 0.6413(3)
C1 C 1.2101(6) -0.2498(5) 0.7372(5)
H1 H 1.1923 -0.3346 0.7738
C2 C 0.7299(5) 0.6326(5) 0.0027(4)
H2 H 0.6630 0.5820 0.0441
C3 C 0.8356(6) 0.7556(6) -0.1261(4)
H3 H 0.8564 0.8087 -0.1929
C4 C 0.9192(6) 0.7262(6) -0.0456(4)
H4 H 1.0073 0.7540 -0.0462
C5 C 0.8909(5) 0.6006(5) 0.1441(4)
C6 C 0.8001(5) 0.6069(5) 0.2281(4)
H5 H 0.7133 0.6438 0.2154
C7 C 0.8358(5) 0.5593(5) 0.3313(4)
H6 H 0.7724 0.5615 0.3885
C8 C 0.9664(5) 0.5076(5) 0.3506(4)
C9 C 1.0553(5) 0.5032(5) 0.2657(4)
H7 H 1.1430 0.4682 0.2778
C10 C 1.0194(6) 0.5491(6) 0.1615(4)
H8 H 1.0817 0.5450 0.1039
C11 C 1.0045(5) 0.4609(5) 0.4654(4)
C12 C 1.0459(5) 0.3198(5) 0.4996(4)
C13 C 1.1688(5) 0.2709(5) 0.4656(4)
H9 H 1.2236 0.3230 0.4131
C14 C 1.2114(6) 0.1443(5) 0.5091(4)
H10 H 1.2945 0.1107 0.4854
C15 C 1.1321(5) 0.0685(5) 0.5866(4)
C16 C 1.0069(6) 0.1144(5) 0.6165(4)
H11 H 0.9504 0.0606 0.6664
C17 C 0.9643(5) 0.2399(5) 0.5731(4)
H12 H 0.8787 0.2711 0.5938
C18 C 1.3110(6) -0.0745(5) 0.6753(5)
H13 H 1.3778 -0.0127 0.6591
N4 N 1.3295(5) -0.1922(4) 0.7338(4)
C19 C 1.1204(6) -0.1672(5) 0.6800(5)
H14 H 1.0315 -0.1844 0.6690
C20 C 0.5643(5) 1.4842(5) -0.2441(4)
C21 C 0.5834(5) 1.3741(5) -0.3012(4)
C22 C 0.6007(6) 1.4005(5) -0.4128(4)
H15 H 0.6052 1.4868 -0.4503
C23 C 0.5888(6) 1.0028(5) -0.2477(4)
C24 C 0.5943(5) 1.1438(5) -0.3034(4)
C25 C 0.6092(6) 1.1745(5) -0.4138(4)
H16 H 0.6179 1.1075 -0.4521
C26 C 0.6113(6) 1.3011(5) -0.4680(4)
H17 H 0.6200 1.3200 -0.5428
C27 C 0.5800(5) 1.2436(5) -0.2481(4)
H18 H 0.5677 1.2236 -0.1735
N1A N 1.2841(4) 0.3036(4) 1.0958(3)
N2A N 1.1493(4) 0.3518(4) 0.9629(3)
N3A N 0.8150(4) 1.0534(4) 0.3587(3)
C1A C 0.7899(6) 1.2498(5) 0.2628(5)
H1A H 0.8077 1.3346 0.2262
C2A C 1.2701(5) 0.3674(5) 0.9973(4)
H2A H 1.3370 0.4180 0.9559
C3A C 1.1644(6) 0.2444(6) 1.1261(4)
H3A H 1.1436 0.1913 1.1929
C4A C 1.0808(6) 0.2738(6) 1.0456(4)
H4A H 0.9927 0.2460 1.0462
C5A C 1.1091(5) 0.3994(5) 0.8559(4)
C6A C 1.1999(5) 0.3931(5) 0.7719(4)
H5A H 1.2867 0.3562 0.7846
C7A C 1.1642(5) 0.4407(5) 0.6687(4)
H6A H 1.2276 0.4385 0.6115
C8A C 1.0336(5) 0.4924(5) 0.6494(4)
C9A C 0.9447(5) 0.4968(5) 0.7343(4)
H7A H 0.8570 0.5318 0.7222
C10A C 0.9806(6) 0.4509(6) 0.8385(4)
H8A H 0.9183 0.4550 0.8961
C11A C 0.9955(5) 0.5391(5) 0.5346(4)
C12A C 0.9541(5) 0.6802(5) 0.5004(4)
C13A C 0.8312(5) 0.7291(5) 0.5344(4)
H9A H 0.7764 0.6770 0.5869
C14A C 0.7886(6) 0.8557(5) 0.4909(4)
H10A H 0.7055 0.8893 0.5146
C15A C 0.8679(5) 0.9315(5) 0.4134(4)
C16A C 0.9931(6) 0.8856(5) 0.3835(4)
H11A H 1.0496 0.9394 0.3336
C17A C 1.0357(5) 0.7601(5) 0.4269(4)
H12A H 1.1213 0.7289 0.4062
C18A C 0.6890(6) 1.0745(5) 0.3247(5)
H13A H 0.6222 1.0127 0.3409
N4A N 0.6705(5) 1.1922(4) 0.2662(4)
C19A C 0.8796(6) 1.1672(5) 0.3200(5)
H14A H 0.9685 1.1844 0.3310
Cd1A Cd 0.47230(4) 1.26614(3) 0.18696(3)
O1A O 0.4655(5) 0.5376(4) 0.1471(3)
O2A O 0.6174(5) 1.3094(5) 0.0361(3)
O3A O 0.4233(4) 0.4022(3) 0.2990(3)
O4A O 0.4537(5) 1.0235(4) 0.1515(3)
O5A O 0.3807(4) 1.0822(4) 0.2996(3)
C20A C 0.4357(5) 0.5158(5) 0.2441(4)
C21A C 0.4166(5) 0.6259(5) 0.3012(4)
C22A C 0.3993(6) 0.5995(5) 0.4128(4)
H15A H 0.3948 0.5132 0.4503
C23A C 0.4112(6) 0.9972(5) 0.2477(4)
C24A C 0.4057(5) 0.8562(5) 0.3034(4)
C25A C 0.3908(6) 0.8255(5) 0.4138(4)
H16A H 0.3821 0.8925 0.4521
C26A C 0.3887(6) 0.6989(5) 0.4680(4)
H17A H 0.3800 0.6800 0.5428
C27A C 0.4200(5) 0.7564(5) 0.2481(4)
H18A H 0.4323 0.7764 0.1735
Cd1_2 Cd 0.52770(4) 1.73386(3) -0.18696(3)
Cd1_3 Cd 1.52770(4) -0.26614(3) 0.81304(3)
Cd1A_2 Cd 0.47230(4) 0.26614(3) 0.18696(3)
Cd1A_3 Cd 1.47230(4) 0.26614(3) 1.18696(3)
O1_2 O 0.5345(5) 0.4624(4) -0.1471(3)
O1A_2 O 0.4655(5) 1.5376(4) 0.1471(3)
O3_2 O 0.5767(4) 0.5978(3) -0.2990(3)
O3A_2 O 0.4233(4) 1.4022(3) 0.2990(3)
N1A_2 N 0.2841(4) 1.3036(4) 0.0958(3)
N4_2 N 0.3295(5) 0.8078(4) -0.2662(4)
O6 O 0.6676(6) -0.0852(6) 1.0540(5)
O7 O 0.8149(7) 0.1266(7) 0.9953(5)
H19 H 0.7559 0.0725 1.0136
C28 C 0.8777(10) 0.1126(10) 0.8951(8)
H20 H 0.8715 0.1948 0.8448
H21 H 0.8326 0.0475 0.8686
H22 H 0.9716 0.0858 0.9037
loop_
_geom_bond_atom_site_label_1
_geom_bond_atom_site_label_2
_geom_bond_site_symmetry_1
_geom_bond_site_symmetry_2
Cd1 O2 1_555 1_555
O1 C20 1_555 1_555
O3 C20 1_555 1_555
O4 Cd1 1_555 1_555
O5 Cd1 1_555 1_555
N1 Cd1 1_555 1_555
N2 C2 1_555 1_555
N3 C15 1_555 1_555
C1 H1 1_555 1_555
C2 N1 1_555 1_555
H2 C2 1_555 1_555
C3 N1 1_555 1_555
H3 C3 1_555 1_555
C4 N2 1_555 1_555
H4 C4 1_555 1_555
C5 N2 1_555 1_555
C6 C5 1_555 1_555
H5 C6 1_555 1_555
C7 C6 1_555 1_555
H6 C7 1_555 1_555
C8 C7 1_555 1_555
C9 C8 1_555 1_555
H7 C9 1_555 1_555
C10 C5 1_555 1_555
H8 C10 1_555 1_555
C11 C8 1_555 1_555
C12 C11 1_555 1_555
C13 C12 1_555 1_555
H9 C13 1_555 1_555
C14 C13 1_555 1_555
H10 C14 1_555 1_555
C15 C14 1_555 1_555
C16 C15 1_555 1_555
H11 C16 1_555 1_555
C17 C12 1_555 1_555
H12 C17 1_555 1_555
C18 N3 1_555 1_555
H13 C18 1_555 1_555
N4 C1 1_555 1_555
C19 N3 1_555 1_555
H14 C19 1_555 1_555
C20 C21 1_555 1_555
C21 C22 1_555 1_555
C22 H15 1_555 1_555
C23 O4 1_555 1_555
C24 C23 1_555 1_555
C25 C24 1_555 1_555
H16 C25 1_555 1_555
C26 C22 1_555 1_555
H17 C26 1_555 1_555
C27 C21 1_555 1_555
H18 C27 1_555 1_555
O7 H19 1_555 1_555
C28 O7 1_555 1_555
H20 C28 1_555 1_555
H21 C28 1_555 1_555
H22 C28 1_555 1_555
N1A C2A 1_555 1_555
N2A C2A 1_555 1_555
N3A C15A 1_555 1_555
C1A H1A 1_555 1_555
C2A H2A 1_555 1_555
C3A N1A 1_555 1_555
H3A C3A 1_555 1_555
C4A N2A 1_555 1_555
H4A C4A 1_555 1_555
C5A N2A 1_555 1_555
C6A C5A 1_555 1_555
H5A C6A 1_555 1_555
C7A C6A 1_555 1_555
H6A C7A 1_555 1_555
C8A C7A 1_555 1_555
C9A C8A 1_555 1_555
H7A C9A 1_555 1_555
C10A C5A 1_555 1_555
H8A C10A 1_555 1_555
C11A C11 1_555 1_555
C12A C11A 1_555 1_555
C13A C12A 1_555 1_555
H9A C13A 1_555 1_555
C14A C13A 1_555 1_555
H10A C14A 1_555 1_555
C15A C14A 1_555 1_555
C16A C15A 1_555 1_555
H11A C16A 1_555 1_555
C17A C12A 1_555 1_555
H12A C17A 1_555 1_555
C18A N3A 1_555 1_555
H13A C18A 1_555 1_555
N4A C1A 1_555 1_555
C19A N3A 1_555 1_555
H14A C19A 1_555 1_555
Cd1A N4A 1_555 1_555
O1A C20A 1_555 1_555
O2A Cd1A 1_555 1_555
O3A C20A 1_555 1_555
O4A Cd1A 1_555 1_555
O5A Cd1A 1_555 1_555
C20A C21A 1_555 1_555
C21A C22A 1_555 1_555
C22A H15A 1_555 1_555
C23A O4A 1_555 1_555
C24A C23A 1_555 1_555
C25A C24A 1_555 1_555
H16A C25A 1_555 1_555
C26A C22A 1_555 1_555
H17A C26A 1_555 1_555
C27A C21A 1_555 1_555
H18A C27A 1_555 1_555
Cd1_2 O1 1_555 1_555
Cd1_3 N4 1_555 1_555
Cd1A_2 O1A 1_555 1_555
Cd1A_3 N1A 1_555 1_555
O1_2 Cd1 1_555 1_555
O1A_2 Cd1A 1_555 1_555
O3_2 Cd1 1_555 1_555
O3A_2 Cd1A 1_555 1_555
N1A_2 Cd1A 1_555 1_555
N4_2 Cd1 1_555 1_555
O3 Cd1_2 1_555 1_555
O5 C23 1_555 1_555
C1 C19 1_555 1_555
C3 C4 1_555 1_555
C9 C10 1_555 1_555
C16 C17 1_555 1_555
C18 N4 1_555 1_555
C24 C27 1_555 1_555
C25 C26 1_555 1_555
C1A C19A 1_555 1_555
C3A C4A 1_555 1_555
C8A C11A 1_555 1_555
C9A C10A 1_555 1_555
C16A C17A 1_555 1_555
C18A N4A 1_555 1_555
O3A Cd1A_2 1_555 1_555
O5A C23A 1_555 1_555
C24A C27A 1_555 1_555
C25A C26A 1_555 1_555

#END
