
#######################################################################
#
#                 Cambridge Crystallographic Data Centre
#                                CCDC 
#
#######################################################################
#
# If this CIF has been generated from an entry in the Cambridge 
# Structural Database, then it will include bibliographic, chemical, 
# crystal, experimental, refinement or atomic coordinate data resulting 
# from the CCDC's data processing and validation procedures.
#
#######################################################################

data_YITDIQ
_symmetry_cell_setting           orthorhombic
_symmetry_space_group_name_H-M   'P b c a'
_symmetry_Int_Tables_number      61
_space_group_name_Hall           '-P 2ac 2ab'
loop_
_symmetry_equiv_pos_site_id
_symmetry_equiv_pos_as_xyz
1 x,y,z
2 1/2-x,-y,1/2+z
3 -x,1/2+y,1/2-z
4 1/2+x,1/2-y,-z
5 -x,-y,-z
6 1/2+x,y,1/2-z
7 x,1/2-y,1/2+z
8 1/2-x,1/2+y,z
_cell_length_a                   20.0620(10)
_cell_length_b                   8.5384(6)
_cell_length_c                   29.537(8)
_cell_angle_alpha                90
_cell_angle_beta                 90
_cell_angle_gamma                90
_cell_volume                     5059.61
loop_
_atom_site_label
_atom_site_type_symbol
_atom_site_fract_x
_atom_site_fract_y
_atom_site_fract_z
O8 O 0.4278(3) 0.0903(6) 0.3609(2)
Cd1 Cd 0.5000(5) 0.4905(9) 0.49478(19)
Cd2 Cd 0.297319(16) 0.35113(4) 0.480682(14)
C1 C 0.5324(3) 0.5299(6) 0.3486(2)
C2 C 0.5818(4) 0.6383(8) 0.3441(2)
H1 H 0.6042 0.6751 0.3696
C3 C 0.5986(4) 0.6937(9) 0.3013(3)
H2 H 0.6321 0.7686 0.2985
C4 C 0.5673(5) 0.6408(8) 0.2632(3)
H3 H 0.5794 0.6784 0.2348
C5 C 0.5184(4) 0.5325(10) 0.2675(3)
H4 H 0.4967 0.4953 0.2419
C6 C 0.5004(3) 0.4768(8) 0.3097(2)
H5 H 0.4665 0.4030 0.3122
C7 C 0.5127(3) 0.4671(7) 0.3947(2)
C8 C 0.3355(3) 0.0261(6) 0.6003(2)
C9 C 0.3813(3) -0.0831(7) 0.6157(2)
H6 H 0.4183 -0.1090 0.5982
C10 C 0.3712(5) -0.1530(9) 0.6574(3)
H7 H 0.4022 -0.2255 0.6677
C11 C 0.3169(5) -0.1190(8) 0.6841(3)
H8 H 0.3112 -0.1674 0.7120
C12 C 0.2708(4) -0.0112(9) 0.6685(3)
H9 H 0.2334 0.0129 0.6857
C13 C 0.2807(3) 0.0605(8) 0.6272(2)
H10 H 0.2499 0.1338 0.6170
C14 C 0.3468(2) 0.1104(6) 0.55645(19)
C15 C 0.2197(3) 0.1996(6) 0.3649(2)
C16 C 0.2652(3) 0.2897(6) 0.3416(2)
H11 H 0.3088 0.2978 0.3520
C17 C 0.2461(4) 0.3689(7) 0.3023(2)
H12 H 0.2771 0.4281 0.2863
C18 C 0.1820(4) 0.3592(7) 0.2875(3)
H13 H 0.1692 0.4130 0.2615
C19 C 0.1359(3) 0.2709(8) 0.3104(2)
H14 H 0.0921 0.2657 0.3002
C20 C 0.1548(3) 0.1903(6) 0.3485(2)
H15 H 0.1238 0.1284 0.3636
C21 C 0.2387(2) 0.1148(5) 0.40720(18)
C22 C 0.4176(2) 0.8134(6) 0.4556(2)
C23 C 0.3555(2) 0.6938(5) 0.50126(19)
O1 O 0.54187(18) 0.5259(4) 0.42890(14)
O2 O 0.41497(15) 0.3190(4) 0.47707(12)
H16 H 0.4125 0.2355 0.4926
H17 H 0.4462 0.2929 0.4592
O3 O 0.4693(2) 0.3631(5) 0.39697(16)
O4 O 0.30009(16) 0.1965(4) 0.54217(14)
O5 O 0.40171(18) 0.0937(4) 0.53640(14)
O6 O 0.29484(16) 0.1459(4) 0.42580(15)
O7 O 0.19878(17) 0.0146(4) 0.42235(13)
N1 N 0.31664(19) 0.8052(5) 0.48626(15)
N2 N 0.35788(18) 0.8825(5) 0.45566(16)
H18 H 0.3467 0.9620 0.4394
N3 N 0.41824(18) 0.6915(4) 0.48460(15)
N4 N 0.4674(2) 0.8575(5) 0.42802(19)
H19 H 0.4616 0.9335 0.4093
H20 H 0.5051 0.8097 0.4291
N5 N 0.33067(19) 0.5732(4) 0.52835(15)
H21 H 0.2990 0.5987 0.5460
H22 H 0.3575 0.5752 0.5506
Cd1D Cd 0.5000(5) 0.5095(9) 0.50522(19)
Cd2G Cd 0.202681(16) -0.14887(4) 0.480682(14)
Cd2G_2 Cd 0.202681(16) 0.85113(4) 0.480682(14)
O1D O 0.45813(18) 0.4741(4) 0.57110(14)
O2D O 0.58503(15) 0.6810(4) 0.52293(12)
O7G O 0.30122(17) 0.5146(4) 0.42235(13)
N1G N 0.18336(19) 0.3052(5) 0.48626(15)
N3D N 0.58176(18) 0.3085(4) 0.51540(15)
loop_
_geom_bond_atom_site_label_1
_geom_bond_atom_site_label_2
_geom_bond_site_symmetry_1
_geom_bond_site_symmetry_2
Cd1 O1 1_555 1_555
Cd2 O2 1_555 1_555
C1 C2 1_555 1_555
C2 H1 1_555 1_555
C3 C2 1_555 1_555
H2 C3 1_555 1_555
C4 C3 1_555 1_555
H3 C4 1_555 1_555
C5 C4 1_555 1_555
H4 C5 1_555 1_555
C6 C1 1_555 1_555
H5 C6 1_555 1_555
C7 C1 1_555 1_555
C8 C9 1_555 1_555
C9 H6 1_555 1_555
C10 C9 1_555 1_555
H7 C10 1_555 1_555
C11 C10 1_555 1_555
H8 C11 1_555 1_555
C12 C11 1_555 1_555
H9 C12 1_555 1_555
C13 C8 1_555 1_555
H10 C13 1_555 1_555
C14 C8 1_555 1_555
C15 C16 1_555 1_555
C16 H11 1_555 1_555
C17 C16 1_555 1_555
H12 C17 1_555 1_555
C18 C17 1_555 1_555
H13 C18 1_555 1_555
C19 C18 1_555 1_555
H14 C19 1_555 1_555
C20 C15 1_555 1_555
H15 C20 1_555 1_555
C21 C15 1_555 1_555
C22 N2 1_555 1_555
C23 N1 1_555 1_555
O1 C7 1_555 1_555
O2 Cd1 1_555 1_555
H16 O2 1_555 1_555
H17 O2 1_555 1_555
O3 C7 1_555 1_555
O4 Cd2 1_555 1_555
O5 C14 1_555 1_555
O6 Cd2 1_555 1_555
O7 C21 1_555 1_555
N1 N2 1_555 1_555
N2 H18 1_555 1_555
N3 Cd1 1_555 1_555
N4 C22 1_555 1_555
H19 N4 1_555 1_555
H20 N4 1_555 1_555
N5 Cd2 1_555 1_555
H21 N5 1_555 1_555
H22 N5 1_555 1_555
Cd1D Cd1 1_555 1_555
Cd2G O7 1_555 1_555
Cd2G_2 N1 1_555 1_555
O1D Cd1 1_555 1_555
O2D Cd1 1_555 1_555
O7G Cd2 1_555 1_555
N1G Cd2 1_555 1_555
N3D Cd1 1_555 1_555
C5 C6 1_555 1_555
C12 C13 1_555 1_555
C14 O4 1_555 1_555
C19 C20 1_555 1_555
C21 O6 1_555 1_555
C22 N3 1_555 1_555
C23 N3 1_555 1_555
C23 N5 1_555 1_555
O1 Cd1D 1_555 1_555
O2 Cd1D 1_555 1_555
N3 Cd1D 1_555 1_555
Cd1D O1D 1_555 1_555
Cd1D O2D 1_555 1_555
Cd1D N3D 1_555 1_555

#END
