
#######################################################################
#
#                 Cambridge Crystallographic Data Centre
#                                CCDC 
#
#######################################################################
#
# If this CIF has been generated from an entry in the Cambridge 
# Structural Database, then it will include bibliographic, chemical, 
# crystal, experimental, refinement or atomic coordinate data resulting 
# from the CCDC's data processing and validation procedures.
#
#######################################################################

data_YITDUC
_symmetry_cell_setting           triclinic
_symmetry_space_group_name_H-M   'P -1'
_symmetry_Int_Tables_number      2
_space_group_name_Hall           '-P 1'
loop_
_symmetry_equiv_pos_site_id
_symmetry_equiv_pos_as_xyz
1 x,y,z
2 -x,-y,-z
_cell_length_a                   7.751(3)
_cell_length_b                   8.856(3)
_cell_length_c                   15.751(6)
_cell_angle_alpha                85.522(9)
_cell_angle_beta                 88.914(7)
_cell_angle_gamma                75.376(7)
_cell_volume                     1042.97
loop_
_atom_site_label
_atom_site_type_symbol
_atom_site_fract_x
_atom_site_fract_y
_atom_site_fract_z
Ag1 Ag 0.85165(3) 0.39622(3) 0.511160(15)
Ag2 Ag 0.55810(3) 0.65114(3) 0.506504(15)
O1 O 0.5679(3) 0.5816(2) 0.64847(15)
O2 O 0.7306(3) 0.3379(3) 0.63025(14)
N1 N 0.4504(5) 0.1874(4) 1.0800(2)
C1 C 0.4833(5) 0.2292(4) 1.0126(2)
C2 C 0.5227(4) 0.2844(4) 0.9280(2)
C3 C 0.6414(4) 0.1825(4) 0.8768(2)
H1 H 0.6963 0.0810 0.8979
C4 C 0.6753(4) 0.2340(4) 0.7954(2)
H2 H 0.7528 0.1667 0.7612
C5 C 0.5948(4) 0.3864(4) 0.7634(2)
C6 C 0.4762(4) 0.4868(4) 0.8147(2)
H3 H 0.4214 0.5882 0.7934
C7 C 0.4401(4) 0.4365(4) 0.8962(2)
H4 H 0.3611 0.5035 0.9300
C8 C 0.6332(4) 0.4395(4) 0.6738(2)
O3 O 0.9101(3) 0.4815(3) 0.38365(15)
O4 O 0.6691(3) 0.6861(3) 0.37631(14)
N2 N 1.0538(5) 0.8008(4) -0.0601(2)
C9 C 1.0097(5) 0.7684(4) 0.0078(2)
C10 C 0.9569(4) 0.7254(4) 0.0926(2)
C11 C 1.0288(5) 0.5754(4) 0.1298(2)
H5 H 1.1081 0.5020 0.0994
C12 C 0.9818(4) 0.5360(4) 0.2119(2)
H6 H 1.0313 0.4365 0.2373
C13 C 0.8595(4) 0.6459(4) 0.2570(2)
C14 C 0.7864(4) 0.7948(4) 0.2186(2)
H7 H 0.7038 0.8672 0.2481
C15 C 0.8351(5) 0.8356(4) 0.1376(2)
H8 H 0.7875 0.9359 0.1126
C16 C 0.8074(4) 0.6009(4) 0.3461(2)
N3 N 0.3403(3) 0.8833(3) 0.51384(17)
N4 N 0.0866(3) 1.1656(3) 0.51687(17)
C17 C 0.3104(4) 0.9853(3) 0.4449(2)
H9 H 0.3749 0.9611 0.3953
C18 C 0.1835(4) 1.1269(3) 0.4475(2)
H10 H 0.1656 1.1969 0.3994
C19 C 0.1165(4) 1.0638(3) 0.5849(2)
H11 H 0.0508 1.0875 0.6343
C20 C 0.2448(4) 0.9222(3) 0.5831(2)
H12 H 0.2640 0.8533 0.6316
Ag1_2 Ag -0.14835(3) 1.39622(3) 0.511160(15)
N4_2 N 1.0866(3) 0.1656(3) 0.51687(17)
O5 O 0.6324(4) 0.8325(3) 0.73638(17)
H13 H 0.587(6) 0.829(5) 0.7857(13)
H14 H 0.603(6) 0.761(4) 0.712(2)
O6 O 0.9842(5) 0.8884(4) 0.75123(19)
H15 H 1.018(6) 0.856(6) 0.8025(14)
H16 H 0.896(5) 0.847(6) 0.745(3)
loop_
_geom_bond_atom_site_label_1
_geom_bond_atom_site_label_2
_geom_bond_site_symmetry_1
_geom_bond_site_symmetry_2
Ag1 Ag2 1_555 1_555
Ag2 O1 1_555 1_555
O1 C8 1_555 1_555
O2 Ag1 1_555 1_555
N1 C1 1_555 1_555
C1 C2 1_555 1_555
C2 C3 1_555 1_555
C3 H1 1_555 1_555
C4 C3 1_555 1_555
H2 C4 1_555 1_555
C5 C4 1_555 1_555
C6 C5 1_555 1_555
H3 C6 1_555 1_555
C7 C2 1_555 1_555
H4 C7 1_555 1_555
C8 O2 1_555 1_555
O3 Ag1 1_555 1_555
O4 Ag2 1_555 1_555
N2 C9 1_555 1_555
C9 C10 1_555 1_555
C10 C11 1_555 1_555
C11 H5 1_555 1_555
C12 C11 1_555 1_555
H6 C12 1_555 1_555
C13 C12 1_555 1_555
C14 C13 1_555 1_555
H7 C14 1_555 1_555
C15 C10 1_555 1_555
H8 C15 1_555 1_555
C16 O3 1_555 1_555
N3 Ag2 1_555 1_555
N4 C18 1_555 1_555
C17 N3 1_555 1_555
H9 C17 1_555 1_555
C18 C17 1_555 1_555
H10 C18 1_555 1_555
C19 N4 1_555 1_555
H11 C19 1_555 1_555
C20 N3 1_555 1_555
H12 C20 1_555 1_555
O5 H13 1_555 1_555
H14 O5 1_555 1_555
O6 H15 1_555 1_555
H16 O6 1_555 1_555
Ag1_2 N4 1_555 1_555
N4_2 Ag1 1_555 1_555
C5 C8 1_555 1_555
C6 C7 1_555 1_555
O4 C16 1_555 1_555
C13 C16 1_555 1_555
C14 C15 1_555 1_555
C19 C20 1_555 1_555

#END
