
#######################################################################
#
#                 Cambridge Crystallographic Data Centre
#                                CCDC 
#
#######################################################################
#
# If this CIF has been generated from an entry in the Cambridge 
# Structural Database, then it will include bibliographic, chemical, 
# crystal, experimental, refinement or atomic coordinate data resulting 
# from the CCDC's data processing and validation procedures.
#
#######################################################################

data_YITFOW
_symmetry_cell_setting           orthorhombic
_symmetry_space_group_name_H-M   'P 21 21 2'
_symmetry_Int_Tables_number      18
_space_group_name_Hall           'P 2 2ab'
loop_
_symmetry_equiv_pos_site_id
_symmetry_equiv_pos_as_xyz
1 x,y,z
2 -x,-y,z
3 1/2+x,1/2-y,-z
4 1/2-x,1/2+y,-z
_cell_length_a                   25.800
_cell_length_b                   7.916
_cell_length_c                   4.046
_cell_angle_alpha                90
_cell_angle_beta                 90
_cell_angle_gamma                90
_cell_volume                     826.326
loop_
_atom_site_label
_atom_site_type_symbol
_atom_site_fract_x
_atom_site_fract_y
_atom_site_fract_z
Tl1 Tl -0.51216(3) -0.73241(8) -0.2950(2)
S1 S -0.5596(2) -1.0402(5) 0.185(2)
O1 O -0.5712(5) -0.573(1) 0.166(6)
N1 N -0.5721(5) -0.412(2) 0.103(6)
N2 N -0.6627(5) -1.072(2) 0.130(6)
N3 N -0.6887(8) -0.502(2) 0.484(6)
C1 C -0.6144(5) -0.334(2) 0.182(6)
C2 C -0.6167(5) -1.146(2) 0.162(6)
C3 C -0.6572(7) -0.423(2) 0.354(7)
C4 C -0.7096(7) -1.151(3) 0.022(7)
C5 C -0.6679(7) -0.884(2) 0.14(1)
Tl1A Tl -0.48784(3) -0.26759(8) -0.2950(2)
S1_2 S -0.5596(2) -1.0402(5) -0.815(2)
S1A S -0.4404(2) -0.9598(5) 0.185(2)
S1A_2 S -0.4404(2) -0.9598(5) -0.815(2)
Tl1_2 Tl -0.51216(3) -0.73241(8) 0.7050(2)
Tl1A_2 Tl -0.48784(3) -1.26759(8) -0.2950(2)
Tl1A_3 Tl -0.48784(3) -1.26759(8) 0.7050(2)
C2_2 C -0.6167(5) -0.146(2) 0.162(6)
C1_2 C -0.6144(5) -1.334(2) 0.182(6)
S1_3 S -0.5596(2) -0.0402(5) 0.185(2)
S1_4 S -0.5596(2) -0.0402(5) -0.815(2)
S1A_3 S -0.4404(2) 0.0402(5) 0.185(2)
S1A_4 S -0.4404(2) 0.0402(5) -0.815(2)
O1A O -0.4288(5) -0.427(1) 0.166(6)
C2A C -0.3833(5) -0.854(2) 0.162(6)
N1A N -0.4279(5) -0.588(2) 0.103(6)
N2A N -0.3373(5) -0.928(2) 0.130(6)
C1A C -0.3856(5) -0.666(2) 0.182(6)
C4A C -0.2904(7) -0.849(3) 0.022(7)
C5A C -0.3321(7) -1.116(2) 0.14(1)
C3A C -0.3428(7) -0.577(2) 0.354(7)
N3A N -0.3113(8) -0.498(2) 0.484(6)
loop_
_geom_bond_atom_site_label_1
_geom_bond_atom_site_label_2
_geom_bond_site_symmetry_1
_geom_bond_site_symmetry_2
Tl1 S1 1_555 1_555
S1 C2 1_555 1_555
O1 Tl1 1_555 1_555
N1 O1 1_555 1_555
N2 C2 1_555 1_555
N3 C3 1_555 1_555
C1 N1 1_555 1_555
C2 C1_2 1_555 1_555
C3 C1 1_555 1_555
C4 N2 1_555 1_555
C5 N2 1_555 1_555
Tl1A Tl1 1_555 1_555
S1_2 Tl1 1_555 1_555
S1A Tl1 1_555 1_555
S1A_2 Tl1 1_555 1_555
Tl1_2 S1 1_555 1_555
Tl1A_2 S1 1_555 1_555
Tl1A_3 S1 1_555 1_555
C2_2 C1 1_555 1_555
S1_3 Tl1A 1_555 1_555
S1_4 Tl1A 1_555 1_555
S1A_3 Tl1A 1_555 1_555
S1A_4 Tl1A 1_555 1_555
O1A Tl1A 1_555 1_555
C2A S1A 1_555 1_555
N1A O1A 1_555 1_555
N2A C2A 1_555 1_555
C1A C2A 1_555 1_555
C4A N2A 1_555 1_555
C5A N2A 1_555 1_555
C3A C1A 1_555 1_555
N3A C3A 1_555 1_555
S1 S1A 1_555 1_555
S1A Tl1_2 1_555 1_555
S1A Tl1A_2 1_555 1_555
S1A Tl1A_3 1_555 1_555
N1A C1A 1_555 1_555

#END
