
#######################################################################
#
#                 Cambridge Crystallographic Data Centre
#                                CCDC 
#
#######################################################################
#
# If this CIF has been generated from an entry in the Cambridge 
# Structural Database, then it will include bibliographic, chemical, 
# crystal, experimental, refinement or atomic coordinate data resulting 
# from the CCDC's data processing and validation procedures.
#
#######################################################################

data_YITHIU01
_symmetry_cell_setting           monoclinic
_symmetry_space_group_name_H-M   'C 2'
_symmetry_Int_Tables_number      5
_space_group_name_Hall           'C 2y'
loop_
_symmetry_equiv_pos_site_id
_symmetry_equiv_pos_as_xyz
1 x,y,z
2 -x,y,-z
3 1/2+x,1/2+y,z
4 1/2-x,1/2+y,-z
_cell_length_a                   21.963(4)
_cell_length_b                   7.6577(15)
_cell_length_c                   6.1689(12)
_cell_angle_alpha                90
_cell_angle_beta                 91.48(3)
_cell_angle_gamma                90
_cell_volume                     1037.18
loop_
_atom_site_label
_atom_site_type_symbol
_atom_site_fract_x
_atom_site_fract_y
_atom_site_fract_z
Ce1 Ce 0.354680(10) 0.74659(7) 0.94994(3)
S1 S 0.5000 0.7451(6) 1.0000
O1 O 0.4561(2) 0.6383(7) 1.1142(8)
O2 O 0.4627(2) 0.8558(7) 0.8514(8)
O3 O 0.3440(2) 0.7989(5) 1.3445(6)
O4 O 0.3409(2) 0.9555(6) 1.6466(6)
O5 O 0.3623(2) 1.0559(6) 1.0972(7)
H1 H 0.3938 1.1129 1.0613
O6 O 0.23679(18) 1.1092(5) 1.2825(6)
H2 H 0.2451 1.0242 1.1986
O7 O 0.3353(2) 1.4618(6) 1.1392(8)
O8 O 0.2499(2) 1.3545(6) 0.9956(7)
C1 C 0.3444(3) 0.9392(8) 1.4453(8)
C2 C 0.3496(3) 1.1074(7) 1.3093(8)
H3 H 0.3832 1.1789 1.3675
C3 C 0.2903(2) 1.2123(6) 1.3138(8)
H4 H 0.2882 1.2702 1.4551
C4 C 0.2929(3) 1.3543(6) 1.1372(8)
O9 O 0.3885(3) 0.5478(6) 0.6431(7)
H5 H 0.4162 0.4915 0.5758
H6 H 0.3667 0.6130 0.5580
O1A O 0.5439(2) 0.6383(7) 0.8858(8)
O2A O 0.5373(2) 0.8558(7) 1.1486(8)
Ce1A Ce 0.645320(10) 0.74659(7) 1.05006(3)
O3A O 0.6560(2) 0.7989(5) 0.6555(6)
O4A O 0.6591(2) 0.9555(6) 0.3534(6)
O5A O 0.6377(2) 1.0559(6) 0.9028(7)
H1A H 0.6062 1.1129 0.9387
O6A O 0.76321(18) 1.1092(5) 0.7175(6)
H2A H 0.7549 1.0242 0.8014
O7A O 0.6647(2) 1.4618(6) 0.8608(8)
O8A O 0.7501(2) 1.3545(6) 1.0044(7)
C1A C 0.6556(3) 0.9392(8) 0.5547(8)
C2A C 0.6504(3) 1.1074(7) 0.6907(8)
H3A H 0.6168 1.1789 0.6325
C3A C 0.7097(2) 1.2123(6) 0.6862(8)
H4A H 0.7118 1.2702 0.5449
C4A C 0.7071(3) 1.3543(6) 0.8628(8)
O9A O 0.6115(3) 0.5478(6) 1.3569(7)
H5A H 0.5838 0.4915 1.4242
H6A H 0.6333 0.6130 1.4420
Ce1_2 Ce 0.354680(10) 0.74659(7) 1.94994(3)
Ce1_3 Ce 0.354680(10) 1.74659(7) 0.94994(3)
Ce1A_2 Ce 0.645320(10) 0.74659(7) 0.05006(3)
Ce1A_3 Ce 0.645320(10) 1.74659(7) 1.05006(3)
Ce1B Ce 0.854680(10) 1.24659(7) 0.94994(3)
Ce1C Ce 0.145320(10) 1.24659(7) 1.05006(3)
O4_2 O 0.3409(2) 0.9555(6) 0.6466(6)
O4A_2 O 0.6591(2) 0.9555(6) 1.3534(6)
O6B O 0.73679(18) 0.6092(5) 1.2825(6)
O6C O 0.26321(18) 0.6092(5) 0.7175(6)
O7_2 O 0.3353(2) 0.4618(6) 1.1392(8)
O7A_2 O 0.6647(2) 0.4618(6) 0.8608(8)
O8B O 0.7499(2) 0.8545(6) 0.9956(7)
O8C O 0.2501(2) 0.8545(6) 1.0044(7)
O10 O 0.4257(5) 1.241(3) 0.8390(18)
H7 H 0.4069 1.3268 0.7830
H8 H 0.4459 1.1889 0.7415
O12 O 0.5000 1.0618(13) 0.5000
H9 H 0.4840 1.0025 0.5978
H9A H 0.5160 1.0025 0.4022
O13 O 0.5000 0.4306(19) 0.5000
H10 H 0.5126 0.3729 0.3886
H10A H 0.4874 0.3729 0.6114
O11? O 0.4543(6) 1.2781(14) 1.001(2)
loop_
_geom_bond_atom_site_label_1
_geom_bond_atom_site_label_2
_geom_bond_site_symmetry_1
_geom_bond_site_symmetry_2
Ce1 O1 1_555 1_555
S1 O1 1_555 1_555
O2 Ce1 1_555 1_555
O3 Ce1 1_555 1_555
O4 C1 1_555 1_555
O5 Ce1 1_555 1_555
H1 O5 1_555 1_555
O6 H2 1_555 1_555
O7 C4 1_555 1_555
O8 C4 1_555 1_555
C1 O3 1_555 1_555
C2 O5 1_555 1_555
H3 C2 1_555 1_555
C3 O6 1_555 1_555
H4 C3 1_555 1_555
C4 C3 1_555 1_555
O9 Ce1 1_555 1_555
H5 O9 1_555 1_555
H6 O9 1_555 1_555
O10 H7 1_555 1_555
H8 O10 1_555 1_555
O12 H9 1_555 1_555
O13 H10 1_555 1_555
O1A S1 1_555 1_555
O2A S1 1_555 1_555
Ce1A O1A 1_555 1_555
O3A Ce1A 1_555 1_555
O4A C1A 1_555 1_555
O5A Ce1A 1_555 1_555
H1A O5A 1_555 1_555
O6A H2A 1_555 1_555
O7A C4A 1_555 1_555
O8A C4A 1_555 1_555
C1A O3A 1_555 1_555
C2A O5A 1_555 1_555
H3A C2A 1_555 1_555
C3A O6A 1_555 1_555
H4A C3A 1_555 1_555
C4A C3A 1_555 1_555
O9A Ce1A 1_555 1_555
H5A O9A 1_555 1_555
H6A O9A 1_555 1_555
Ce1_2 O4 1_555 1_555
Ce1_3 O7 1_555 1_555
Ce1A_2 O4A 1_555 1_555
Ce1A_3 O7A 1_555 1_555
Ce1B O6A 1_555 1_555
Ce1C O6 1_555 1_555
O4_2 Ce1 1_555 1_555
O4A_2 Ce1A 1_555 1_555
O6B Ce1A 1_555 1_555
O6C Ce1 1_555 1_555
O7_2 Ce1 1_555 1_555
O7A_2 Ce1A 1_555 1_555
O8B Ce1A 1_555 1_555
O8C Ce1 1_555 1_555
H9A O12 1_555 1_555
H10A O13 1_555 1_555
S1 O2 1_555 1_555
O8 Ce1C 1_555 1_555
C1 C2 1_555 1_555
C2 C3 1_555 1_555
O2A Ce1A 1_555 1_555
O8A Ce1B 1_555 1_555
C1A C2A 1_555 1_555
C2A C3A 1_555 1_555

#END
