
#######################################################################
#
#                 Cambridge Crystallographic Data Centre
#                                CCDC 
#
#######################################################################
#
# If this CIF has been generated from an entry in the Cambridge 
# Structural Database, then it will include bibliographic, chemical, 
# crystal, experimental, refinement or atomic coordinate data resulting 
# from the CCDC's data processing and validation procedures.
#
#######################################################################

data_YITHEQ
_symmetry_cell_setting           monoclinic
_symmetry_space_group_name_H-M   'P 21/c'
_symmetry_Int_Tables_number      14
_space_group_name_Hall           '-P 2ybc'
loop_
_symmetry_equiv_pos_site_id
_symmetry_equiv_pos_as_xyz
1 x,y,z
2 -x,1/2+y,1/2-z
3 -x,-y,-z
4 x,1/2-y,1/2+z
_cell_length_a                   5.9704(12)
_cell_length_b                   23.888(5)
_cell_length_c                   10.792(2)
_cell_angle_alpha                90
_cell_angle_beta                 105.03(3)
_cell_angle_gamma                90
_cell_volume                     1486.51
loop_
_atom_site_label
_atom_site_type_symbol
_atom_site_fract_x
_atom_site_fract_y
_atom_site_fract_z
Ce1 Ce 0.19740(4) 0.440674(11) 0.14343(2)
Ce2 Ce 0.12796(5) 0.345792(11) -0.39547(3)
O1 O 0.1933(7) 0.33804(16) 0.1609(4)
O2 O 0.0634(8) 0.25308(16) 0.1010(4)
O3 O -0.1305(6) 0.38704(14) -0.0214(3)
H1 H -0.2592 0.3999 -0.0247
O4 O 0.1021(6) 0.31211(16) -0.1649(3)
H2 H 0.1143 0.2957 -0.2297
O5 O -0.5087(6) 0.32090(19) -0.2469(4)
O6 O -0.2530(7) 0.34093(19) -0.3553(4)
C1 C 0.0573(9) 0.3047(2) 0.0913(5)
C2 C -0.1397(9) 0.3271(2) -0.0179(5)
H3 H -0.2881 0.3158 -0.0026
C3 C -0.1192(8) 0.3011(2) -0.1449(5)
H4 H -0.1379 0.2605 -0.1401
C4 C -0.3079(9) 0.3232(2) -0.2574(5)
S1 S 0.29849(19) 0.45500(5) -0.13265(11)
O7 O 0.3964(6) 0.41310(15) -0.0323(3)
O8 O 0.1381(6) 0.48932(14) -0.0778(3)
O9 O 0.1633(6) 0.42865(15) -0.2509(3)
O10 O 0.4837(6) 0.48893(16) -0.1590(4)
S2 S -0.2082(2) 0.39711(5) -0.64798(11)
O11 O -0.1104(7) 0.42743(17) -0.5267(4)
O12 O -0.1564(7) 0.33762(16) -0.6186(4)
O13 O -0.4601(6) 0.40640(18) -0.6896(4)
O14 O -0.1023(7) 0.41631(19) -0.7475(4)
O15 O 0.2442(7) 0.50320(19) 0.3371(4)
H5 H 0.2632 0.4772 0.3917
H6 H 0.1123 0.5174 0.3211
O16 O 0.3355(7) 0.30229(19) -0.5678(4)
H7 H 0.3346 0.3123 -0.6427
H8 H 0.4471 0.3153 -0.5099
O17 O 0.3852(8) 0.42326(19) -0.4563(4)
H9 H 0.4299 0.4137 -0.5211
H10 H 0.4921 0.4441 -0.4135
Ce1_2 Ce -0.80260(4) 0.440674(11) -0.85657(2)
Ce1_3 Ce 0.19740(4) 0.440674(11) -0.85657(2)
Ce1B Ce -0.19740(4) 0.559326(11) -0.14343(2)
Ce1B_2 Ce 0.80260(4) 0.559326(11) -0.14343(2)
Ce2_2 Ce -0.87204(5) 0.345792(11) -0.39547(3)
Ce2C Ce 0.12796(5) 0.154208(11) 0.10453(3)
O2C O 0.0634(8) 0.24692(16) -0.3990(4)
O5_2 O 0.4913(6) 0.32090(19) -0.2469(4)
O8B O -0.1381(6) 0.51068(14) 0.0778(3)
O10B O 0.5163(6) 0.51107(16) 0.1590(4)
O13_2 O 0.5399(6) 0.40640(18) 0.3104(4)
O14_2 O -0.1023(7) 0.41631(19) 0.2525(4)
loop_
_geom_bond_atom_site_label_1
_geom_bond_atom_site_label_2
_geom_bond_site_symmetry_1
_geom_bond_site_symmetry_2
Ce1 O1 1_555 1_555
Ce2 O4 1_555 1_555
O1 C1 1_555 1_555
O2 C1 1_555 1_555
O3 Ce1 1_555 1_555
H1 O3 1_555 1_555
O4 H2 1_555 1_555
O5 C4 1_555 1_555
O6 Ce2 1_555 1_555
C1 C2 1_555 1_555
C2 O3 1_555 1_555
H3 C2 1_555 1_555
C3 O4 1_555 1_555
H4 C3 1_555 1_555
C4 O6 1_555 1_555
S1 O7 1_555 1_555
O7 Ce1 1_555 1_555
O8 Ce1 1_555 1_555
O9 Ce2 1_555 1_555
O10 S1 1_555 1_555
S2 O11 1_555 1_555
O11 Ce2 1_555 1_555
O12 Ce2 1_555 1_555
O13 S2 1_555 1_555
O14 S2 1_555 1_555
O15 Ce1 1_555 1_555
H5 O15 1_555 1_555
H6 O15 1_555 1_555
O16 Ce2 1_555 1_555
H7 O16 1_555 1_555
H8 O16 1_555 1_555
O17 Ce2 1_555 1_555
H9 O17 1_555 1_555
H10 O17 1_555 1_555
Ce1_2 O13 1_555 1_555
Ce1_3 O14 1_555 1_555
Ce1B O8 1_555 1_555
Ce1B_2 O10 1_555 1_555
Ce2_2 O5 1_555 1_555
Ce2C O2 1_555 1_555
O2C Ce2 1_555 1_555
O5_2 Ce2 1_555 1_555
O8B Ce1 1_555 1_555
O10B Ce1 1_555 1_555
O13_2 Ce1 1_555 1_555
O14_2 Ce1 1_555 1_555
C2 C3 1_555 1_555
C3 C4 1_555 1_555
S1 O8 1_555 1_555
S1 O9 1_555 1_555
S2 O12 1_555 1_555
Ce1B O8B 1_555 1_555

#END
