
#######################################################################
#
#                 Cambridge Crystallographic Data Centre
#                                CCDC 
#
#######################################################################
#
# If this CIF has been generated from an entry in the Cambridge 
# Structural Database, then it will include bibliographic, chemical, 
# crystal, experimental, refinement or atomic coordinate data resulting 
# from the CCDC's data processing and validation procedures.
#
#######################################################################

data_YITHIU
_symmetry_cell_setting           orthorhombic
_symmetry_space_group_name_H-M   'P 21 21 2'
_symmetry_Int_Tables_number      18
_space_group_name_Hall           'P 2 2ab'
loop_
_symmetry_equiv_pos_site_id
_symmetry_equiv_pos_as_xyz
1 x,y,z
2 -x,-y,z
3 1/2-x,1/2+y,-z
4 1/2+x,1/2-y,-z
_cell_length_a                   7.6486(15)
_cell_length_b                   22.019(4)
_cell_length_c                   6.1550(12)
_cell_angle_alpha                90
_cell_angle_beta                 90
_cell_angle_gamma                90
_cell_volume                     1036.59
loop_
_atom_site_label
_atom_site_type_symbol
_atom_site_fract_x
_atom_site_fract_y
_atom_site_fract_z
Ce1 Ce 0.47938(2) 0.854215(8) 0.56072(3)
S1 S 0.5000 1.0000 0.5532(2)
O1 O 0.3847(5) 0.96179(14) 0.4185(6)
O2 O 0.6013(4) 0.95719(13) 0.6870(6)
O3 O 0.5274(3) 0.84580(14) 0.1649(4)
O4 O 0.6861(4) 0.83676(14) -0.1368(4)
O5 O 0.7878(3) 0.86209(12) 0.4166(4)
H1 H 0.8592 0.8853 0.4712
O6 O 0.8416(3) 0.73682(12) 0.2173(4)
H2 H 0.7635 0.7436 0.3054
O7 O 1.1927(4) 0.83551(14) 0.3678(5)
O8 O 1.0860(4) 0.75043(13) 0.5063(5)
C1 C 0.6701(5) 0.84335(16) 0.0653(7)
C2 C 0.8379(4) 0.84894(17) 0.1991(6)
H3 H 0.9082 0.8826 0.1424
C3 C 0.9454(5) 0.79023(16) 0.1898(7)
H4 H 1.0035 0.7881 0.0481
C4 C 1.0867(5) 0.79219(17) 0.3678(6)
O9 O 0.2715(4) 0.88630(14) 0.8668(5)
H5 H 0.2691 0.9230 0.8985
H6 H 0.3369 0.8687 0.9538
O1A O 0.6153(5) 1.03821(14) 0.4185(6)
O2A O 0.3987(4) 1.04281(13) 0.6870(6)
Ce1A Ce 0.52062(2) 1.145785(8) 0.56072(3)
O3A O 0.4726(3) 1.15420(14) 0.1649(4)
O4A O 0.3139(4) 1.16324(14) -0.1368(4)
O5A O 0.2122(3) 1.13791(12) 0.4166(4)
H1A H 0.1408 1.1147 0.4712
O6A O 0.1584(3) 1.26318(12) 0.2173(4)
H2A H 0.2365 1.2564 0.3054
O7A O -0.1927(4) 1.16449(14) 0.3678(5)
O8A O -0.0860(4) 1.24957(13) 0.5063(5)
C1A C 0.3299(5) 1.15665(16) 0.0653(7)
C2A C 0.1621(4) 1.15106(17) 0.1991(6)
H3A H 0.0918 1.1174 0.1424
C3A C 0.0546(5) 1.20977(16) 0.1898(7)
H4A H -0.0035 1.2119 0.0481
C4A C -0.0867(5) 1.20781(17) 0.3678(6)
O9A O 0.7285(4) 1.11370(14) 0.8668(5)
H5A H 0.7309 1.0770 0.8985
H6A H 0.6631 1.1313 0.9538
Ce1_2 Ce 0.47938(2) 0.854215(8) -0.43928(3)
Ce1_3 Ce 1.47938(2) 0.854215(8) 0.56072(3)
Ce1A_2 Ce -0.47938(2) 1.145785(8) 0.56072(3)
Ce1A_3 Ce 0.52062(2) 1.145785(8) -0.43928(3)
Ce1B Ce 0.02062(2) 1.354215(8) 0.43928(3)
Ce1C Ce 0.97938(2) 0.645785(8) 0.43928(3)
O4_2 O 0.6861(4) 0.83676(14) 0.8632(4)
O4A_2 O 0.3139(4) 1.16324(14) 0.8632(4)
O6B O 0.6584(3) 1.23682(12) 0.7827(4)
O6C O 0.3416(3) 0.76318(12) 0.7827(4)
O7_2 O 0.1927(4) 0.83551(14) 0.3678(5)
O7A_2 O 0.8073(4) 1.16449(14) 0.3678(5)
O8B O 0.4140(4) 1.25043(13) 0.4937(5)
O8C O 0.5860(4) 0.74957(13) 0.4937(5)
O10 O 0.9679(9) 0.9344(3) 0.6653(13)
H7 H 1.0505 0.9123 0.7073
H8 H 0.9156 0.9460 0.7788
O12 O 0.8129(10) 1.0034(2) 1.0451(6)
H9 H 0.7386 1.0106 1.1428
H10 H 0.7498 0.9834 0.9579
O11? O 1.0026(9) 0.9538(3) 0.4872(12)
loop_
_geom_bond_atom_site_label_1
_geom_bond_atom_site_label_2
_geom_bond_site_symmetry_1
_geom_bond_site_symmetry_2
Ce1 O1 1_555 1_555
S1 O1 1_555 1_555
O2 Ce1 1_555 1_555
O3 Ce1 1_555 1_555
O4 C1 1_555 1_555
O5 Ce1 1_555 1_555
H1 O5 1_555 1_555
O6 H2 1_555 1_555
O7 C4 1_555 1_555
O8 C4 1_555 1_555
C1 O3 1_555 1_555
C2 O5 1_555 1_555
H3 C2 1_555 1_555
C3 O6 1_555 1_555
H4 C3 1_555 1_555
C4 C3 1_555 1_555
O9 Ce1 1_555 1_555
H5 O9 1_555 1_555
H6 O9 1_555 1_555
O10 H7 1_555 1_555
H8 O10 1_555 1_555
O12 H9 1_555 1_555
H10 O12 1_555 1_555
O1A S1 1_555 1_555
O2A S1 1_555 1_555
Ce1A O1A 1_555 1_555
O3A Ce1A 1_555 1_555
O4A C1A 1_555 1_555
O5A Ce1A 1_555 1_555
H1A O5A 1_555 1_555
O6A H2A 1_555 1_555
O7A C4A 1_555 1_555
O8A C4A 1_555 1_555
C1A O3A 1_555 1_555
C2A O5A 1_555 1_555
H3A C2A 1_555 1_555
C3A O6A 1_555 1_555
H4A C3A 1_555 1_555
C4A C3A 1_555 1_555
O9A Ce1A 1_555 1_555
H5A O9A 1_555 1_555
H6A O9A 1_555 1_555
Ce1_2 O4 1_555 1_555
Ce1_3 O7 1_555 1_555
Ce1A_2 O7A 1_555 1_555
Ce1A_3 O4A 1_555 1_555
Ce1B O6A 1_555 1_555
Ce1C O6 1_555 1_555
O4_2 Ce1 1_555 1_555
O4A_2 Ce1A 1_555 1_555
O6B Ce1A 1_555 1_555
O6C Ce1 1_555 1_555
O7_2 Ce1 1_555 1_555
O7A_2 Ce1A 1_555 1_555
O8B Ce1A 1_555 1_555
O8C Ce1 1_555 1_555
S1 O2 1_555 1_555
O8 Ce1C 1_555 1_555
C1 C2 1_555 1_555
C2 C3 1_555 1_555
O2A Ce1A 1_555 1_555
O8A Ce1B 1_555 1_555
C1A C2A 1_555 1_555
C2A C3A 1_555 1_555

#END
