
#######################################################################
#
#                 Cambridge Crystallographic Data Centre
#                                CCDC 
#
#######################################################################
#
# If this CIF has been generated from an entry in the Cambridge 
# Structural Database, then it will include bibliographic, chemical, 
# crystal, experimental, refinement or atomic coordinate data resulting 
# from the CCDC's data processing and validation procedures.
#
#######################################################################

data_YITJIU
_symmetry_cell_setting           monoclinic
_symmetry_space_group_name_H-M   'P 21/c'
_symmetry_Int_Tables_number      14
_space_group_name_Hall           '-P 2ybc'
loop_
_symmetry_equiv_pos_site_id
_symmetry_equiv_pos_as_xyz
1 x,y,z
2 -x,1/2+y,1/2-z
3 -x,-y,-z
4 x,1/2-y,1/2+z
_cell_length_a                   16.443
_cell_length_b                   10.234
_cell_length_c                   18.477
_cell_angle_alpha                90
_cell_angle_beta                 118.85
_cell_angle_gamma                90
_cell_volume                     2723.36
loop_
_atom_site_label
_atom_site_type_symbol
_atom_site_fract_x
_atom_site_fract_y
_atom_site_fract_z
Sn1 Sn -0.46334(5) 0.1696(7) 0.29561(4)
S1 S -0.2301(2) 0.4998(3) 0.5004(2)
S2 S -0.1566(2) 0.4087(5) 0.3888(2)
O1 O -0.3756(2) 0.3292(7) 0.3726(4)
O2 O -0.4539(2) 0.4798(7) 0.2794(4)
N1 N -0.0802(6) 0.359(1) 0.5486(5)
C1 C -0.3867(6) 0.444(1) 0.3465(6)
C2 C -0.3165(8) 0.547(1) 0.3994(7)
C3 C -0.1474(7) 0.416(1) 0.4824(6)
C4 C -0.0021(7) 0.288(1) 0.5466(8)
C5 C -0.0797(7) 0.367(1) 0.6265(6)
C6 C -0.1230(8) 0.277(1) 0.6490(7)
C7 C -0.1192(9) 0.282(2) 0.7258(8)
C8 C -0.073(1) 0.381(2) 0.7785(7)
C9 C -0.028(1) 0.469(2) 0.7563(8)
C10 C -0.0315(9) 0.467(2) 0.6797(7)
C11 C -0.372(1) 0.034(1) 0.3896(8)
C12 C -0.272(1) 0.042(2) 0.413(1)
C13 C -0.218(1) -0.067(2) 0.477(1)
C14 C -0.156(1) -0.082(2) 0.470(1)
C15 C -0.5867(7) 0.235(1) 0.2960(7)
C16 C -0.6301(8) 0.146(2) 0.3295(8)
C17 C -0.751(2) 0.162(2) 0.3250(1)
C18 C -0.732(1) 0.264(2) 0.326(1)
C19 C -0.4356(8) 0.212(1) 0.1956(7)
C20 C -0.394(1) 0.152(3) 0.172(1)
C21 C -0.380(1) 0.232(3) 0.0959(9)
C22 C -0.419(1) 0.178(3) 0.049(1)
O2A O -0.5461(2) -0.0202(7) 0.2206(4)
Sn1A Sn -0.53666(5) 0.6696(7) 0.20439(4)
loop_
_geom_bond_atom_site_label_1
_geom_bond_atom_site_label_2
_geom_bond_site_symmetry_1
_geom_bond_site_symmetry_2
Sn1 O1 1_555 1_555
S1 C2 1_555 1_555
S2 C3 1_555 1_555
O1 C1 1_555 1_555
O2 C1 1_555 1_555
N1 C3 1_555 1_555
C1 C2 1_555 1_555
C3 S1 1_555 1_555
C4 N1 1_555 1_555
C5 N1 1_555 1_555
C6 C5 1_555 1_555
C7 C6 1_555 1_555
C8 C7 1_555 1_555
C9 C8 1_555 1_555
C10 C5 1_555 1_555
C11 Sn1 1_555 1_555
C12 C11 1_555 1_555
C13 C12 1_555 1_555
C14 C13 1_555 1_555
C15 Sn1 1_555 1_555
C16 C15 1_555 1_555
C17 C16 1_555 1_555
C18 C17 1_555 1_555
C19 Sn1 1_555 1_555
C20 C19 1_555 1_555
C21 C20 1_555 1_555
C22 C21 1_555 1_555
O2A Sn1 1_555 1_555
Sn1A O2 1_555 1_555
C9 C10 1_555 1_555

#END
