
#######################################################################
#
#                 Cambridge Crystallographic Data Centre
#                                CCDC 
#
#######################################################################
#
# If this CIF has been generated from an entry in the Cambridge 
# Structural Database, then it will include bibliographic, chemical, 
# crystal, experimental, refinement or atomic coordinate data resulting 
# from the CCDC's data processing and validation procedures.
#
#######################################################################

data_YITKES
_symmetry_cell_setting           triclinic
_symmetry_space_group_name_H-M   'P -1'
_symmetry_Int_Tables_number      2
_space_group_name_Hall           '-P 1'
loop_
_symmetry_equiv_pos_site_id
_symmetry_equiv_pos_as_xyz
1 x,y,z
2 -x,-y,-z
_cell_length_a                   8.6624(10)
_cell_length_b                   9.8659(11)
_cell_length_c                   10.6864(12)
_cell_angle_alpha                62.9880(10)
_cell_angle_beta                 84.0450(10)
_cell_angle_gamma                78.2360(10)
_cell_volume                     796.501
loop_
_atom_site_label
_atom_site_type_symbol
_atom_site_fract_x
_atom_site_fract_y
_atom_site_fract_z
Cu1 Cu 1.0000 0.0000 0.5000
K1 K 0.83575(5) 0.35268(4) -0.39382(4)
S1 S 0.78333(4) 0.35105(4) -0.04329(4)
S2 S 0.28159(4) 0.06521(4) 0.21222(4)
O1 O 0.65088(13) 0.47293(13) -0.10536(12)
O2 O 0.90705(14) 0.32103(15) -0.13308(12)
O3 O 0.69723(16) 0.27243(14) 0.41460(13)
O4 O 0.89482(14) 0.15714(13) 0.32546(11)
O5 O 0.23198(14) -0.06902(12) 0.22130(12)
O6 O 0.20302(13) 0.21665(13) 0.12005(13)
O7 O 0.05414(14) 0.16261(12) 0.53032(12)
O8 O 0.1827(2) 0.34930(13) 0.48856(15)
N1 N 0.86593(15) 0.38804(14) 0.06276(13)
N2 N 0.26708(15) 0.04918(13) 0.37141(13)
C1 C 0.70432(17) 0.17922(16) 0.05586(14)
C2 C 0.80366(19) 0.03588(18) 0.10098(17)
H1 H 0.9113 0.0302 0.0815
C3 C 0.7413(2) -0.09733(18) 0.17463(19)
H2 H 0.8069 -0.1931 0.2025
C4 C 0.5814(2) -0.08960(17) 0.20755(17)
H3 H 0.5395 -0.1795 0.2575
C5 C 0.48469(17) 0.05442(15) 0.16484(14)
C6 C 0.54378(17) 0.19047(16) 0.08740(14)
H4 H 0.4779 0.2863 0.0575
C7 C 0.7721(2) 0.41154(17) 0.17472(16)
H5 H 0.6621 0.4434 0.1479
H6 H 0.8037 0.4950 0.1846
C8 C 0.78751(19) 0.26803(17) 0.31727(15)
C9 C 0.2991(2) 0.17579(18) 0.39687(19)
H7 H 0.3156 0.2616 0.3071
H8 H 0.3960 0.1405 0.4493
C10 C 0.1680(2) 0.23383(16) 0.47727(16)
H9 H 0.3008(19) -0.0322(17) 0.4211(16)
H10 H 0.946(2) 0.332(2) 0.0876(18)
O9 O 0.5182(3) 0.4422(2) -0.3490(3)
H11 H 0.5106 0.5323 -0.3483
H12 H 0.4905 0.4615 -0.4414
Cu1_2 Cu 0.0000 0.0000 0.5000
Cu1_3 Cu 2.0000 0.0000 0.5000
K1A K 1.16425(5) -0.35268(4) 1.39382(4)
K1_2 K 0.83575(5) 0.35268(4) 0.60618(4)
K1A_2 K 0.16425(5) -0.35268(4) 0.39382(4)
K1_3 K -0.16425(5) 0.35268(4) 0.60618(4)
K1A_3 K 0.16425(5) 0.64732(4) 0.39382(4)
K1A_4 K 1.16425(5) -0.35268(4) 0.39382(4)
K1_4 K 1.83575(5) 0.35268(4) 0.60618(4)
K1A_5 K 2.16425(5) -0.35268(4) 0.39382(4)
K1_5 K 1.83575(5) -0.64732(4) 0.60618(4)
S1A S 1.21667(4) -0.35105(4) 1.04329(4)
S2A S 1.71841(4) -0.06521(4) 0.78778(4)
O1A O 1.34912(13) -0.47293(13) 1.10536(12)
O2A O 1.09295(14) -0.32103(15) 1.13308(12)
O3A O 1.30277(16) -0.27243(14) 0.58540(13)
O3_2 O 0.69723(16) 0.27243(14) -0.58540(13)
O3A_2 O 1.30277(16) -0.27243(14) 1.58540(13)
O4A O 1.10518(14) -0.15714(13) 0.67454(11)
O5A O 1.76802(14) 0.06902(12) 0.77870(12)
O5A_2 O 0.76802(14) 0.06902(12) -0.22130(12)
O5_2 O 1.23198(14) -0.06902(12) 1.22130(12)
O6A O 1.79698(13) -0.21665(13) 0.87995(13)
O7A O 1.94586(14) -0.16261(12) 0.46968(12)
O7_2 O 1.05414(14) 0.16261(12) 0.53032(12)
O7A_2 O 0.94586(14) -0.16261(12) 0.46968(12)
O7_3 O 1.05414(14) 0.16261(12) -0.46968(12)
O7A_3 O 0.94586(14) -0.16261(12) 1.46968(12)
O8A O 1.8173(2) -0.34930(13) 0.51144(15)
O8A_2 O 0.8173(2) 0.65070(13) -0.48856(15)
O8_2 O 1.1827(2) -0.65070(13) 1.48856(15)
N1A N 1.13407(15) -0.38804(14) 0.93724(13)
N2A N 1.73292(15) -0.04918(13) 0.62859(13)
N2_2 N 1.26708(15) 0.04918(13) 0.37141(13)
N2A_2 N 0.73292(15) -0.04918(13) 0.62859(13)
C1A C 1.29568(17) -0.17922(16) 0.94414(14)
C2A C 1.19634(19) -0.03588(18) 0.89902(17)
H1A H 1.0887 -0.0302 0.9185
C3A C 1.2587(2) 0.09733(18) 0.82537(19)
H2A H 1.1931 0.1931 0.7975
C4A C 1.4186(2) 0.08960(17) 0.79245(17)
H3A H 1.4605 0.1795 0.7425
C5A C 1.51531(17) -0.05442(15) 0.83516(14)
C6A C 1.45622(17) -0.19047(16) 0.91260(14)
H4A H 1.5221 -0.2863 0.9425
C7A C 1.2279(2) -0.41154(17) 0.82528(16)
H5A H 1.3379 -0.4434 0.8521
H6A H 1.1963 -0.4950 0.8154
C8A C 1.21249(19) -0.26803(17) 0.68273(15)
C9A C 1.7009(2) -0.17579(18) 0.60313(19)
H7A H 1.6844 -0.2616 0.6929
H8A H 1.6040 -0.1405 0.5507
C10A C 1.8320(2) -0.23383(16) 0.52273(16)
H9A H 1.6992(19) 0.0322(17) 0.5789(16)
H9_2 H 1.3008(19) -0.0322(17) 0.4211(16)
H9A_2 H 0.6992(19) 0.0322(17) 0.5789(16)
H10A H 1.054(2) -0.332(2) 0.9124(18)
O9A O 1.4818(3) -0.4422(2) 1.3490(3)
H11A H 1.4894 -0.5323 1.3483
H12A H 1.5095 -0.4615 1.4414
loop_
_geom_bond_atom_site_label_1
_geom_bond_atom_site_label_2
_geom_bond_site_symmetry_1
_geom_bond_site_symmetry_2
Cu1 O4 1_555 1_555
K1 O2 1_555 1_555
S1 O1 1_555 1_555
S2 O5 1_555 1_555
O2 S1 1_555 1_555
O3 C8 1_555 1_555
O4 C8 1_555 1_555
O5 K1A_2 1_555 1_555
O6 S2 1_555 1_555
O7 C10 1_555 1_555
O8 C10 1_555 1_555
N1 S1 1_555 1_555
N2 S2 1_555 1_555
C1 S1 1_555 1_555
C2 C1 1_555 1_555
H1 C2 1_555 1_555
C3 C2 1_555 1_555
H2 C3 1_555 1_555
C4 C3 1_555 1_555
H3 C4 1_555 1_555
C5 S2 1_555 1_555
C6 C1 1_555 1_555
H4 C6 1_555 1_555
C7 N1 1_555 1_555
H5 C7 1_555 1_555
H6 C7 1_555 1_555
C8 C7 1_555 1_555
C9 N2 1_555 1_555
H7 C9 1_555 1_555
H8 C9 1_555 1_555
C10 C9 1_555 1_555
H9 N2 1_555 1_555
H10 N1 1_555 1_555
O9 K1 1_555 1_555
H11 O9 1_555 1_555
H12 O9 1_555 1_555
Cu1_2 O7 1_555 1_555
Cu1_3 O7A 1_555 1_555
K1A O2A 1_555 1_555
K1_2 O3 1_555 1_555
K1_3 O7 1_555 1_555
K1A_3 O8 1_555 1_555
K1A_4 O3A 1_555 1_555
K1_4 O5A 1_555 1_555
K1A_5 O7A 1_555 1_555
K1_5 O8A 1_555 1_555
S1A O1A 1_555 1_555
S2A O5A 1_555 1_555
O2A S1A 1_555 1_555
O3A C8A 1_555 1_555
O3_2 K1 1_555 1_555
O3A_2 K1A 1_555 1_555
O4A Cu1 1_555 1_555
O5A_2 K1 1_555 1_555
O5_2 K1A 1_555 1_555
O6A S2A 1_555 1_555
O7A C10A 1_555 1_555
O7_2 Cu1 1_555 1_555
O7A_2 Cu1 1_555 1_555
O7_3 K1 1_555 1_555
O7A_3 K1A 1_555 1_555
O8A C10A 1_555 1_555
O8A_2 K1 1_555 1_555
O8_2 K1A 1_555 1_555
N1A S1A 1_555 1_555
N2A Cu1_3 1_555 1_555
N2_2 Cu1 1_555 1_555
N2A_2 Cu1 1_555 1_555
C1A S1A 1_555 1_555
C2A C1A 1_555 1_555
H1A C2A 1_555 1_555
C3A C2A 1_555 1_555
H2A C3A 1_555 1_555
C4A C3A 1_555 1_555
H3A C4A 1_555 1_555
C5A S2A 1_555 1_555
C6A C1A 1_555 1_555
H4A C6A 1_555 1_555
C7A N1A 1_555 1_555
H5A C7A 1_555 1_555
H6A C7A 1_555 1_555
C8A O4A 1_555 1_555
C9A N2A 1_555 1_555
H7A C9A 1_555 1_555
H8A C9A 1_555 1_555
C10A C9A 1_555 1_555
H9A N2A 1_555 1_555
H9_2 N2_2 1_555 1_555
H9A_2 N2A_2 1_555 1_555
H10A N1A 1_555 1_555
O9A K1A 1_555 1_555
H11A O9A 1_555 1_555
H12A O9A 1_555 1_555
N2 Cu1_2 1_555 1_555
C4 C5 1_555 1_555
C5 C6 1_555 1_555
K1_2 O7_2 1_555 1_555
K1A_4 O7A_2 1_555 1_555
S2A N2A 1_555 1_555
C4A C5A 1_555 1_555
C5A C6A 1_555 1_555
C7A C8A 1_555 1_555

#END
