
#######################################################################
#
#                 Cambridge Crystallographic Data Centre
#                                CCDC 
#
#######################################################################
#
# If this CIF has been generated from an entry in the Cambridge 
# Structural Database, then it will include bibliographic, chemical, 
# crystal, experimental, refinement or atomic coordinate data resulting 
# from the CCDC's data processing and validation procedures.
#
#######################################################################

data_YITMAQ01
_symmetry_cell_setting           triclinic
_symmetry_space_group_name_H-M   'P 1'
_symmetry_Int_Tables_number      1
_space_group_name_Hall           'P 1'
loop_
_symmetry_equiv_pos_site_id
_symmetry_equiv_pos_as_xyz
1 x,y,z
_cell_length_a                   4.276(2)
_cell_length_b                   8.4020(12)
_cell_length_c                   9.453(6)
_cell_angle_alpha                87.65(3)
_cell_angle_beta                 83.98(5)
_cell_angle_gamma                87.31(3)
_cell_volume                     337.15
loop_
_atom_site_label
_atom_site_type_symbol
_atom_site_fract_x
_atom_site_fract_y
_atom_site_fract_z
Sn1 Sn 0.8630 0.0860 0.4010
F1 F 0.3698(18) 0.0660(7) 0.4034(8)
F2 F 0.869(2) -0.1272(9) 0.4946(10)
C1 C 0.850(2) 0.3822(12) 0.5735(11)
C2 C 0.686(2) 0.1533(12) 0.7194(10)
H1 H 0.6601 0.0440 0.7307
C3 C 0.620(2) 0.2520(14) 0.8352(11)
H2 H 0.5480 0.2084 0.9240
C4 C 0.791(3) 0.2214(17) 0.5858(13)
C5 C 1.000(2) 0.4522(12) 0.4356(12)
H3 H 0.9396 0.5634 0.4273
H4 H 1.2254 0.4402 0.4330
N1 N 0.899(3) 0.3660(14) 0.3127(11)
C6 C 0.839(2) -0.1452(13) 0.1592(11)
H5 H 0.9683 -0.2176 0.2116
H6 H 0.6214 -0.1617 0.1893
C7 C 0.768(2) 0.4789(13) 0.6920(11)
H7 H 0.7867 0.5887 0.6830
C8 C 0.913(3) 0.0214(17) 0.1839(12)
H8 H 0.7739 0.0879 0.1311
H9 H 1.1261 0.0339 0.1438
C9 C 0.899(3) -0.1875(13) 0.0001(12)
H10 H 0.8236 -0.2915 -0.0122
H11 H 0.7893 -0.1101 -0.0564
C10 C 0.660(3) 0.4092(14) 0.8189(12)
H12 H 0.6128 0.4727 0.8972
C11 C 1.241(3) -0.1880(15) -0.0572(12)
H13 H 1.2640 -0.2145 -0.1557
H14 H 1.3553 -0.2660 -0.0037
H15 H 1.3210 -0.0847 -0.0478
C12 C 0.588(2) 0.4250(12) 0.2812(11)
H16 H 0.5958 0.5340 0.2467
H17 H 0.4455 0.4183 0.3666
H18 H 0.5162 0.3611 0.2102
C13 C 1.129(3) 0.3970(12) 0.1862(10)
H19 H 1.1248 0.5087 0.1602
H20 H 1.0734 0.3379 0.1084
H21 H 1.3369 0.3630 0.2078
Sn1_2 Sn -0.1370 0.0860 0.4010
F1_2 F 1.3698(18) 0.0660(7) 0.4034(8)
loop_
_geom_bond_atom_site_label_1
_geom_bond_atom_site_label_2
_geom_bond_site_symmetry_1
_geom_bond_site_symmetry_2
Sn1 F1 1_555 1_555
F1 Sn1_2 1_555 1_555
F2 Sn1 1_555 1_555
C1 C4 1_555 1_555
C2 H1 1_555 1_555
C3 C2 1_555 1_555
H2 C3 1_555 1_555
C4 Sn1 1_555 1_555
C5 C1 1_555 1_555
H3 C5 1_555 1_555
H4 C5 1_555 1_555
N1 Sn1 1_555 1_555
C6 H5 1_555 1_555
H6 C6 1_555 1_555
C7 C1 1_555 1_555
H7 C7 1_555 1_555
C8 Sn1 1_555 1_555
H8 C8 1_555 1_555
H9 C8 1_555 1_555
C9 C6 1_555 1_555
H10 C9 1_555 1_555
H11 C9 1_555 1_555
C10 C3 1_555 1_555
H12 C10 1_555 1_555
C11 C9 1_555 1_555
H13 C11 1_555 1_555
H14 C11 1_555 1_555
H15 C11 1_555 1_555
C12 N1 1_555 1_555
H16 C12 1_555 1_555
H17 C12 1_555 1_555
H18 C12 1_555 1_555
C13 N1 1_555 1_555
H19 C13 1_555 1_555
H20 C13 1_555 1_555
H21 C13 1_555 1_555
F1_2 Sn1 1_555 1_555
C2 C4 1_555 1_555
C5 N1 1_555 1_555
C6 C8 1_555 1_555
C7 C10 1_555 1_555

#END
