
#######################################################################
#
#                 Cambridge Crystallographic Data Centre
#                                CCDC 
#
#######################################################################
#
# If this CIF has been generated from an entry in the Cambridge 
# Structural Database, then it will include bibliographic, chemical, 
# crystal, experimental, refinement or atomic coordinate data resulting 
# from the CCDC's data processing and validation procedures.
#
#######################################################################

data_YITPUM
_symmetry_cell_setting           monoclinic
_symmetry_space_group_name_H-M   'C 2'
_symmetry_Int_Tables_number      5
_space_group_name_Hall           'C 2y'
loop_
_symmetry_equiv_pos_site_id
_symmetry_equiv_pos_as_xyz
1 x,y,z
2 -x,y,-z
3 1/2+x,1/2+y,z
4 1/2-x,1/2+y,-z
_cell_length_a                   18.936(4)
_cell_length_b                   7.717(2)
_cell_length_c                   10.545(2)
_cell_angle_alpha                90
_cell_angle_beta                 117.41(3)
_cell_angle_gamma                90
_cell_volume                     1367.94
loop_
_atom_site_label
_atom_site_type_symbol
_atom_site_fract_x
_atom_site_fract_y
_atom_site_fract_z
Hg1 Hg 0.2655(1) 0.6490(1) 0.1437(1)
Hg2 Hg 0.0954(1) 0.6446(9) -0.2678(1)
Cl1 Cl 0.2694(6) 0.6219(54) -0.0722(11)
Cl2 Cl 0.2225(6) 0.6397(41) 0.3140(10)
Cl3 Cl 0.0677(5) 0.6510(28) -0.0777(9)
Cl4 Cl 0.1118(9) 0.6047(16) -0.4687(12)
O1 O 0.3924(16) 0.4899(44) 0.2649(30)
O2 O 0.4191(21) 0.7623(60) 0.2588(41)
C1 C 0.4346(26) 0.5950(51) 0.2673(47)
C2 C 0.5161(16) 0.5568(42) 0.2893(32)
N1 N 0.5730(1) 0.6250(41) 0.2724(21)
C3 C 0.6413(25) 0.5528(61) 0.2927(48)
C4 C 0.5921(22) 0.8091(60) 0.3884(44)
C5 C 0.5363(23) 0.7499(61) 0.1290(42)
C6 C 0.5000 0.661(12) 0.0000
H1 H 0.5081 0.4493 0.2387
H2 H 0.5424 0.5255 0.3885
H3 H 0.6307 0.4552 0.2301
H4 H 0.6721 0.6370 0.2724
H5 H 0.6705 0.5151 0.3901
H6 H 0.6142 0.7705 0.4857
H7 H 0.6285 0.8872 0.3780
H8 H 0.5427 0.8677 0.3632
H9 H 0.5789 0.8162 0.1278
H10 H 0.4982 0.8295 0.1323
H11 H 0.4607 0.5875 0.0058
C5A C 0.4637(23) 0.7499(61) -0.1290(42)
N1A N 0.4270(1) 0.6250(41) -0.2724(21)
C2A C 0.4839(16) 0.5568(42) -0.2893(32)
C1A C 0.5654(26) 0.5950(51) -0.2673(47)
O1A O 0.6076(16) 0.4899(44) -0.2649(30)
O2A O 0.5809(21) 0.7623(60) -0.2588(41)
H1A H 0.4919 0.4493 -0.2387
H2A H 0.4576 0.5255 -0.3885
C3A C 0.3587(25) 0.5528(61) -0.2927(48)
H3A H 0.3693 0.4552 -0.2301
H4A H 0.3279 0.6370 -0.2724
H5A H 0.3295 0.5151 -0.3901
C4A C 0.4079(22) 0.8091(60) -0.3884(44)
H6A H 0.3858 0.7705 -0.4857
H7A H 0.3715 0.8872 -0.3780
H8A H 0.4573 0.8677 -0.3632
H9A H 0.4211 0.8162 -0.1278
H10A H 0.5018 0.8295 -0.1323
H11A H 0.5393 0.5875 -0.0058
Hg1A Hg 0.7345(1) 0.6490(1) -0.1437(1)
Hg2C Hg 0.4046(1) 0.1446(9) 0.2678(1)
Cl1A Cl 0.7306(6) 0.6219(54) 0.0722(11)
Cl2A Cl 0.7775(6) 0.6397(41) -0.3140(10)
Cl3C Cl 0.4323(5) 0.1510(28) 0.0777(9)
Cl4C Cl 0.3882(9) 0.1047(16) 0.4687(12)
O1C O 0.1076(16) 0.9899(44) -0.2649(30)
Hg2B Hg 0.5954(1) 0.1446(9) -0.2678(1)
Cl1C Cl 0.2306(6) 0.1219(54) 0.0722(11)
Hg2A Hg 0.9046(1) 0.6446(9) 0.2678(1)
loop_
_geom_bond_atom_site_label_1
_geom_bond_atom_site_label_2
_geom_bond_site_symmetry_1
_geom_bond_site_symmetry_2
Hg1 Cl1 1_555 1_555
Hg2 Cl1 1_555 1_555
Cl2 Hg1 1_555 1_555
Cl3 Hg2 1_555 1_555
Cl4 Hg2 1_555 1_555
O1 Hg1 1_555 1_555
O2 Hg1 1_555 1_555
C1 O1 1_555 1_555
C2 C1 1_555 1_555
N1 C2 1_555 1_555
C3 N1 1_555 1_555
C4 N1 1_555 1_555
C5 N1 1_555 1_555
C6 C5 1_555 1_555
H1 C2 1_555 1_555
H2 C2 1_555 1_555
H3 C3 1_555 1_555
H4 C3 1_555 1_555
H5 C3 1_555 1_555
H6 C4 1_555 1_555
H7 C4 1_555 1_555
H8 C4 1_555 1_555
H9 C5 1_555 1_555
H10 C5 1_555 1_555
H11 C6 1_555 1_555
C5A C6 1_555 1_555
N1A C5A 1_555 1_555
C2A N1A 1_555 1_555
C1A C2A 1_555 1_555
O1A C1A 1_555 1_555
O2A C1A 1_555 1_555
H1A C2A 1_555 1_555
H2A C2A 1_555 1_555
C3A N1A 1_555 1_555
H3A C3A 1_555 1_555
H4A C3A 1_555 1_555
H5A C3A 1_555 1_555
C4A N1A 1_555 1_555
H6A C4A 1_555 1_555
H7A C4A 1_555 1_555
H8A C4A 1_555 1_555
H9A C5A 1_555 1_555
H10A C5A 1_555 1_555
H11A C6 1_555 1_555
Hg1A O1A 1_555 1_555
Hg2C O1 1_555 1_555
Cl1A Hg1A 1_555 1_555
Cl2A Hg1A 1_555 1_555
Cl3C Hg2C 1_555 1_555
Cl4C Hg2C 1_555 1_555
O1C Hg2 1_555 1_555
Hg2B O1A 1_555 1_555
Cl1C Hg2C 1_555 1_555
Hg2A Cl1A 1_555 1_555
O2 C1 1_555 1_555
O2A Hg1A 1_555 1_555

#END
