
#######################################################################
#
#                 Cambridge Crystallographic Data Centre
#                                CCDC 
#
#######################################################################
#
# If this CIF has been generated from an entry in the Cambridge 
# Structural Database, then it will include bibliographic, chemical, 
# crystal, experimental, refinement or atomic coordinate data resulting 
# from the CCDC's data processing and validation procedures.
#
#######################################################################

data_YITPOG
_symmetry_cell_setting           monoclinic
_symmetry_space_group_name_H-M   'P 21/n'
_symmetry_Int_Tables_number      14
_space_group_name_Hall           '-P 2yn'
loop_
_symmetry_equiv_pos_site_id
_symmetry_equiv_pos_as_xyz
1 x,y,z
2 1/2-x,1/2+y,1/2-z
3 -x,-y,-z
4 1/2+x,1/2-y,1/2+z
_cell_length_a                   9.150(2)
_cell_length_b                   7.509(2)
_cell_length_c                   13.947(3)
_cell_angle_alpha                90
_cell_angle_beta                 101.32(3)
_cell_angle_gamma                90
_cell_volume                     939.62
loop_
_atom_site_label
_atom_site_type_symbol
_atom_site_fract_x
_atom_site_fract_y
_atom_site_fract_z
Hg1 Hg 0.2371(1) 0.0212(1) 0.1779(1)
Cl1 Cl -0.0188(7) 0.0725(9) 0.1444(5)
Cl2 Cl 0.4720(7) -0.0160(8) 0.1375(5)
O1 O 0.3161(16) 0.1557(18) 0.3402(10)
O2 O 0.2280(17) -0.1054(20) 0.3622(11)
C1 C 0.2754(21) 0.0451(25) 0.3913(14)
C2 C 0.2766(22) 0.1073(27) 0.4968(14)
N1 N 0.2078(7) -0.0210(19) 0.5640(11)
C3 C 0.2023(26) 0.0775(29) 0.6550(16)
C4 C 0.2946(25) -0.1809(27) 0.5848(17)
C5 C 0.0516(21) -0.0809(25) 0.5162(14)
H1 H 0.2244 0.2187 0.4932
H2 H 0.3783 0.1298 0.5276
H3 H 0.1603 0.0046 0.6993
H4 H 0.3015 0.1123 0.6855
H5 H 0.1419 0.1818 0.6387
H6 H 0.2492 -0.2569 0.6260
H7 H 0.2980 -0.2416 0.5247
H8 H 0.3940 -0.1514 0.6175
H9 H 0.0094 -0.1466 0.5632
H10 H 0.0561 -0.1579 0.4619
O1A O 0.1839(16) -0.3443(18) 0.1598(10)
O2A O 0.2720(17) 0.3946(20) 0.1378(11)
Hg1A Hg 0.2629(1) 0.5212(1) 0.3221(1)
Hg1A_2 Hg 0.2629(1) -0.4788(1) 0.3221(1)
C5B C -0.0516(21) 0.0809(25) 0.4838(14)
N1B N -0.2078(7) 0.0210(19) 0.4360(11)
H9B H -0.0094 0.1466 0.4368
H10B H -0.0561 0.1579 0.5381
C2B C -0.2766(22) -0.1073(27) 0.5032(14)
C3B C -0.2023(26) -0.0775(29) 0.3450(16)
C4B C -0.2946(25) 0.1809(27) 0.4152(17)
C1B C -0.2754(21) -0.0451(25) 0.6087(14)
H1B H -0.2244 -0.2187 0.5068
H2B H -0.3783 -0.1298 0.4724
H3B H -0.1603 -0.0046 0.3007
H4B H -0.3015 -0.1123 0.3145
H5B H -0.1419 -0.1818 0.3613
H6B H -0.2492 0.2569 0.3740
H7B H -0.2980 0.2416 0.4753
H8B H -0.3940 0.1514 0.3825
O1B O -0.3161(16) -0.1557(18) 0.6598(10)
O2B O -0.2280(17) 0.1054(20) 0.6378(11)
Hg1B Hg -0.2371(1) -0.0212(1) 0.8221(1)
Hg1C Hg -0.2629(1) -0.5212(1) 0.6779(1)
Hg1C_2 Hg -0.2629(1) 0.4788(1) 0.6779(1)
Cl1B Cl 0.0188(7) -0.0725(9) 0.8556(5)
Cl2B Cl -0.4720(7) 0.0160(8) 0.8625(5)
O1C O -0.1839(16) 0.3443(18) 0.8402(10)
O2C O -0.2720(17) -0.3946(20) 0.8622(11)
loop_
_geom_bond_atom_site_label_1
_geom_bond_atom_site_label_2
_geom_bond_site_symmetry_1
_geom_bond_site_symmetry_2
Hg1 Cl1 1_555 1_555
Cl2 Hg1 1_555 1_555
O1 Hg1 1_555 1_555
O2 Hg1 1_555 1_555
C1 O1 1_555 1_555
C2 C1 1_555 1_555
N1 C2 1_555 1_555
C3 N1 1_555 1_555
C4 N1 1_555 1_555
C5 N1 1_555 1_555
H1 C2 1_555 1_555
H2 C2 1_555 1_555
H3 C3 1_555 1_555
H4 C3 1_555 1_555
H5 C3 1_555 1_555
H6 C4 1_555 1_555
H7 C4 1_555 1_555
H8 C4 1_555 1_555
H9 C5 1_555 1_555
H10 C5 1_555 1_555
O1A Hg1 1_555 1_555
O2A Hg1 1_555 1_555
Hg1A O1 1_555 1_555
Hg1A_2 O2 1_555 1_555
C5B C5 1_555 1_555
N1B C5B 1_555 1_555
H9B C5B 1_555 1_555
H10B C5B 1_555 1_555
C2B N1B 1_555 1_555
C3B N1B 1_555 1_555
C4B N1B 1_555 1_555
C1B C2B 1_555 1_555
H1B C2B 1_555 1_555
H2B C2B 1_555 1_555
H3B C3B 1_555 1_555
H4B C3B 1_555 1_555
H5B C3B 1_555 1_555
H6B C4B 1_555 1_555
H7B C4B 1_555 1_555
H8B C4B 1_555 1_555
O1B C1B 1_555 1_555
O2B C1B 1_555 1_555
Hg1B O1B 1_555 1_555
Hg1C O1B 1_555 1_555
Hg1C_2 O2B 1_555 1_555
Cl1B Hg1B 1_555 1_555
Cl2B Hg1B 1_555 1_555
O1C Hg1B 1_555 1_555
O2C Hg1B 1_555 1_555
O2 C1 1_555 1_555
O1A Hg1A_2 1_555 1_555
O2A Hg1A 1_555 1_555
O2B Hg1B 1_555 1_555
Hg1C O2C 1_555 1_555
Hg1C_2 O1C 1_555 1_555

#END
