
#######################################################################
#
#                 Cambridge Crystallographic Data Centre
#                                CCDC 
#
#######################################################################
#
# If this CIF has been generated from an entry in the Cambridge 
# Structural Database, then it will include bibliographic, chemical, 
# crystal, experimental, refinement or atomic coordinate data resulting 
# from the CCDC's data processing and validation procedures.
#
#######################################################################

data_YITROJ
_symmetry_cell_setting           orthorhombic
_symmetry_space_group_name_H-M   'C c c a'
_symmetry_Int_Tables_number      68
_space_group_name_Hall           '-C 2b 2bc'
loop_
_symmetry_equiv_pos_site_id
_symmetry_equiv_pos_as_xyz
1 x,y,z
2 1/2+x,1/2+y,z
3 1/2-x,-y,z
4 -x,y,1/2-z
5 1/2+x,-y,1/2-z
6 -x,1/2-y,z
7 1/2-x,1/2+y,1/2-z
8 x,1/2-y,1/2-z
9 -x,-y,-z
10 1/2-x,1/2-y,-z
11 1/2+x,y,-z
12 x,-y,1/2+z
13 1/2-x,y,1/2+z
14 x,1/2+y,-z
15 1/2+x,1/2-y,1/2+z
16 -x,1/2+y,1/2+z
_cell_length_a                   26.360(5)
_cell_length_b                   35.070(7)
_cell_length_c                   38.697(8)
_cell_angle_alpha                90
_cell_angle_beta                 90
_cell_angle_gamma                90
_cell_volume                     35773.3
loop_
_atom_site_label
_atom_site_type_symbol
_atom_site_fract_x
_atom_site_fract_y
_atom_site_fract_z
Cu1 Cu 0.37139(2) 0.2500 0.2500
N1 N 0.5000 0.2500 0.2500
O1 O 0.46217(19) 0.2500 0.2500
O2 O 0.5000 0.2958(2) 0.2500
N2 N 0.2307(2) 0.2500 0.2500
O3 O 0.27768(13) 0.2500 0.2500
O4 O 0.2216(9) 0.2733(5) 0.2352(10)
Cu2 Cu 0.000688(15) 0.448325(13) 0.072686(10)
N3 N 0.0188(3) 0.51151(18) 0.00540(14)
O5 O -0.00816(11) 0.49577(8) 0.02651(6)
O6 O 0.0558(3) 0.53253(16) 0.01409(12)
S1 S 0.00359(7) 0.37469(7) 0.14707(5)
O7 O 0.00216(8) 0.40140(7) 0.11836(6)
C1 C 0.0089(6) 0.3282(3) 0.1276(5)
H1 H -0.0207 0.3235 0.1129
H2 H 0.0105 0.3088 0.1458
H3 H 0.0398 0.3271 0.1136
C2 C -0.0604(4) 0.3688(3) 0.1604(3)
H4 H -0.0686 0.3878 0.1781
H5 H -0.0649 0.3431 0.1699
H6 H -0.0829 0.3722 0.1405
O8 O 0.29615(9) 0.43231(7) 0.18717(7)
O9 O 0.10577(9) 0.53335(6) 0.22029(6)
O10 O 0.23242(11) 0.45662(11) 0.34069(8)
N4 N 0.36993(9) 0.30131(8) 0.22581(8)
N5 N 0.29639(10) 0.38938(7) 0.23159(10)
H7 H 0.2821 0.3841 0.2516
N6 N 0.02554(11) 0.48846(7) 0.10589(6)
N7 N 0.11542(11) 0.48924(7) 0.17725(7)
H8 H 0.1319 0.4685 0.1712
N8 N 0.07216(11) 0.46001(8) 0.41570(6)
N9 N 0.14900(10) 0.47126(8) 0.33806(7)
H9 H 0.1241 0.4773 0.3239
C3 C 0.40202(14) 0.30966(11) 0.20058(14)
H10 H 0.4259 0.2909 0.1937
C4 C 0.4023(2) 0.34413(13) 0.1840(2)
H11 H 0.4261 0.3491 0.1661
C5 C 0.3675(2) 0.37171(12) 0.1937(2)
H12 H 0.3673 0.3958 0.1825
C6 C 0.33344(13) 0.36409(9) 0.21932(12)
C7 C 0.33588(11) 0.32817(9) 0.23526(9)
H13 H 0.3127 0.3225 0.2534
C8 C 0.28090(12) 0.42150(9) 0.21497(11)
C9 C 0.01201(17) 0.52525(11) 0.10399(10)
H14 H -0.0112 0.5327 0.0865
C10 C 0.0296(2) 0.55215(11) 0.12570(11)
H15 H 0.0184 0.5778 0.1237
C11 C 0.06488(17) 0.54184(10) 0.15138(10)
H16 H 0.0784 0.5603 0.1668
C12 C 0.07928(13) 0.50402(9) 0.15347(8)
C13 C 0.05892(12) 0.47848(9) 0.13062(8)
H17 H 0.0688 0.4525 0.1323
C14 C 0.12650(12) 0.50492(9) 0.20886(8)
C15 C 0.10699(18) 0.46511(14) 0.44064(10)
H18 H 0.0967 0.4640 0.4641
C16 C 0.15649(19) 0.47183(16) 0.43320(11)
H19 H 0.1803 0.4749 0.4514
C17 C 0.17206(16) 0.47424(14) 0.40020(11)
H20 H 0.2068 0.4790 0.3952
C18 C 0.13743(12) 0.46971(9) 0.37352(8)
C19 C 0.08794(12) 0.46220(9) 0.38302(8)
H21 H 0.0637 0.4584 0.3652
C20 C 0.19440(13) 0.46441(9) 0.32396(9)
C21 C 0.23959(12) 0.44324(8) 0.23403(10)
C22 C 0.20488(12) 0.46338(9) 0.21365(9)
H22 H 0.2082 0.4633 0.1892
C23 C 0.16566(11) 0.48344(8) 0.22900(8)
C24 C 0.16176(11) 0.48482(8) 0.26466(8)
H23 H 0.1354 0.4992 0.2751
C25 C 0.19634(12) 0.46525(9) 0.28522(8)
C26 C 0.23564(12) 0.44447(8) 0.26953(9)
H24 H 0.2596 0.4312 0.2834
O11 O 0.27719(18) 0.28081(9) 0.14085(10)
O12 O 0.08730(17) 0.32373(8) 0.05402(11)
O13 O 0.13144(14) 0.15482(8) 0.08590(8)
N10 N 0.37233(10) 0.22340(8) 0.20402(8)
N11 N 0.29415(15) 0.21930(10) 0.12568(8)
H25 H 0.2868 0.2011 0.1109
N12 N 0.07411(12) 0.43757(8) 0.06051(7)
N13 N 0.16116(15) 0.35568(9) 0.06041(9)
H26 H 0.1941 0.3532 0.0633
N14 N 0.02024(14) 0.09300(9) 0.03896(7)
N15 N 0.09656(14) 0.18038(8) 0.03747(7)
H27 H 0.0968 0.2006 0.0240
C27 C 0.40777(14) 0.19713(9) 0.19649(11)
H28 H 0.4340 0.1920 0.2127
C28 C 0.40663(19) 0.17740(11) 0.16541(13)
H29 H 0.4315 0.1585 0.1606
C29 C 0.3693(2) 0.18540(10) 0.14166(12)
H30 H 0.3682 0.1722 0.1202
C30 C 0.33335(16) 0.21271(10) 0.14929(9)
C31 C 0.33548(13) 0.23141(10) 0.18082(9)
H31 H 0.3107 0.2501 0.1862
C32 C 0.2672(3) 0.25156(12) 0.12425(13)
C33 C 0.10558(18) 0.46538(11) 0.04943(10)
H32 H 0.0934 0.4908 0.0473
C34 C 0.15488(18) 0.45721(12) 0.04121(13)
H33 H 0.1765 0.4770 0.0332
C35 C 0.17325(18) 0.42129(12) 0.04439(12)
H34 H 0.2076 0.4159 0.0388
C36 C 0.14175(16) 0.39300(10) 0.05570(9)
C37 C 0.09197(15) 0.40241(10) 0.06391(8)
H35 H 0.0700 0.3830 0.0722
C38 C 0.1328(2) 0.32389(12) 0.06078(12)
C39 C -0.00076(17) 0.09481(15) 0.00724(10)
H36 H -0.0243 0.0757 0.0003
C40 C 0.0110(2) 0.12315(16) -0.01478(10)
H37 H -0.0033 0.1233 -0.0373
C41 C 0.04318(19) 0.15164(13) -0.00527(9)
H38 H 0.0508 0.1718 -0.0208
C42 C 0.06462(15) 0.15062(10) 0.02749(8)
C43 C 0.05205(14) 0.12055(9) 0.04871(7)
H39 H 0.0666 0.1194 0.0711
C44 C 0.12728(19) 0.18155(11) 0.06562(10)
C45 C 0.2219(2) 0.25155(10) 0.10029(11)
C46 C 0.2020(2) 0.28617(12) 0.08943(10)
H40 H 0.2189 0.3092 0.0954
C47 C 0.15848(19) 0.28763(11) 0.07028(10)
C48 C 0.1331(2) 0.25350(10) 0.06181(12)
H41 H 0.1025 0.2544 0.0489
C49 C 0.15278(19) 0.21874(11) 0.07225(9)
C50 C 0.1967(2) 0.21763(12) 0.09190(10)
H42 H 0.2096 0.1939 0.0997
Cu1C Cu 0.62861(2) 0.2500 0.2500
Cu1C_2 Cu -0.37139(2) 0.2500 0.2500
O1C O 0.53783(19) 0.2500 0.2500
O2E O 0.5000 0.2042(2) 0.2500
N2C N 0.7693(2) 0.2500 0.2500
O3C O 0.72232(13) 0.2500 0.2500
O4G O 0.2216(9) 0.2267(5) 0.2648(10)
O4C O 0.7784(9) 0.2733(5) 0.2648(10)
O4E O 0.7784(9) 0.2267(5) 0.2352(10)
Cu2G Cu 0.000688(15) 0.051675(13) 0.427314(10)
Cu2C Cu -0.000688(15) 0.448325(13) 0.427314(10)
Cu2E Cu -0.000688(15) 0.051675(13) 0.072686(10)
Cu2H Cu -0.000688(15) 0.551675(13) -0.072686(10)
Cu2C_2 Cu 0.999312(15) 0.448325(13) 0.427314(10)
Cu2_2 Cu 1.000688(15) 0.448325(13) 0.072686(10)
Cu2G_2 Cu 1.000688(15) 0.051675(13) 0.427314(10)
Cu2O Cu -0.000688(15) -0.051675(13) 0.572686(10)
N3H N -0.0188(3) 0.48849(18) -0.00540(14)
N3G N 0.0188(3) -0.01151(18) 0.49460(14)
N3O N -0.0188(3) 0.01151(18) 0.50540(14)
O5H O 0.00816(11) 0.50423(8) -0.02651(6)
O5G O -0.00816(11) 0.00423(8) 0.47349(6)
O5O O 0.00816(11) -0.00423(8) 0.52651(6)
O5C O 0.00816(11) 0.49577(8) 0.47349(6)
O5E O 0.00816(11) 0.00423(8) 0.02651(6)
O6H O -0.0558(3) 0.46747(16) -0.01409(12)
O6G O 0.0558(3) -0.03253(16) 0.48591(12)
O6O O -0.0558(3) 0.03253(16) 0.51409(12)
S1G S 0.00359(7) 0.12531(7) 0.35293(5)
S1C S -0.00359(7) 0.37469(7) 0.35293(5)
S1E S -0.00359(7) 0.12531(7) 0.14707(5)
O7G O 0.00216(8) 0.09860(7) 0.38164(6)
O7C O -0.00216(8) 0.40140(7) 0.38164(6)
O7E O -0.00216(8) 0.09860(7) 0.11836(6)
C1G C 0.0089(6) 0.1718(3) 0.3724(5)
C1C C -0.0089(6) 0.3282(3) 0.3724(5)
C1E C -0.0089(6) 0.1718(3) 0.1276(5)
H1G H -0.0207 0.1765 0.3871
H1C H 0.0207 0.3235 0.3871
H1E H 0.0207 0.1765 0.1129
H2G H 0.0105 0.1912 0.3542
H2C H -0.0105 0.3088 0.3542
H2E H -0.0105 0.1912 0.1458
H3G H 0.0398 0.1729 0.3864
H3C H -0.0398 0.3271 0.3864
H3E H -0.0398 0.1729 0.1136
C2G C -0.0604(4) 0.1312(3) 0.3396(3)
C2C C 0.0604(4) 0.3688(3) 0.3396(3)
C2E C 0.0604(4) 0.1312(3) 0.1604(3)
H4G H -0.0686 0.1122 0.3219
H4C H 0.0686 0.3878 0.3219
H4E H 0.0686 0.1122 0.1781
H5G H -0.0649 0.1569 0.3301
H5C H 0.0649 0.3431 0.3301
H5E H 0.0649 0.1569 0.1699
H6G H -0.0829 0.1278 0.3595
H6C H 0.0829 0.3722 0.3595
H6E H 0.0829 0.1278 0.1405
O8G O 0.29615(9) 0.06769(7) 0.31283(7)
O8C O -0.29615(9) 0.43231(7) 0.31283(7)
O8C_2 O 0.70385(9) 0.43231(7) 0.31283(7)
O9G O 0.10577(9) -0.03335(6) 0.27971(6)
O9C O -0.10577(9) 0.53335(6) 0.27971(6)
O9C_2 O 0.89423(9) 0.53335(6) 0.27971(6)
O10G O 0.23242(11) 0.04338(11) 0.15931(8)
O10C O -0.23242(11) 0.45662(11) 0.15931(8)
O10C_2 O 0.76758(11) 0.45662(11) 0.15931(8)
N4G N 0.36993(9) 0.19869(8) 0.27419(8)
N4C N -0.36993(9) 0.30131(8) 0.27419(8)
N4C_2 N 0.63007(9) 0.30131(8) 0.27419(8)
N4E N 0.63007(9) 0.19869(8) 0.22581(8)
N5G N 0.29639(10) 0.11062(7) 0.26841(10)
N5C N -0.29639(10) 0.38938(7) 0.26841(10)
N5C_2 N 0.70361(10) 0.38938(7) 0.26841(10)
H7G H 0.2821 0.1159 0.2484
H7C H -0.2821 0.3841 0.2484
H7C_2 H 0.7179 0.3841 0.2484
N6G N 0.02554(11) 0.01154(7) 0.39411(6)
N6C N -0.02554(11) 0.48846(7) 0.39411(6)
N6C_2 N 0.97446(11) 0.48846(7) 0.39411(6)
N6E N -0.02554(11) 0.01154(7) 0.10589(6)
N7G N 0.11542(11) 0.01076(7) 0.32275(7)
N7C N -0.11542(11) 0.48924(7) 0.32275(7)
N7C_2 N 0.88458(11) 0.48924(7) 0.32275(7)
H8G H 0.1319 0.0315 0.3288
H8C H -0.1319 0.4685 0.3288
H8C_2 H 0.8681 0.4685 0.3288
N8G N 0.07216(11) 0.03999(8) 0.08430(6)
N8C N -0.07216(11) 0.46001(8) 0.08430(6)
N8C_2 N 0.92784(11) 0.46001(8) 0.08430(6)
N8E N -0.07216(11) 0.03999(8) 0.41570(6)
N9G N 0.14900(10) 0.02874(8) 0.16194(7)
N9C N -0.14900(10) 0.47126(8) 0.16194(7)
N9C_2 N 0.85100(10) 0.47126(8) 0.16194(7)
H9G H 0.1241 0.0227 0.1761
H9C H -0.1241 0.4773 0.1761
H9C_2 H 0.8759 0.4773 0.1761
C3G C 0.40202(14) 0.19034(11) 0.29942(14)
C3C C -0.40202(14) 0.30966(11) 0.29942(14)
C3C_2 C 0.59798(14) 0.30966(11) 0.29942(14)
H10G H 0.4259 0.2091 0.3063
H10C H -0.4259 0.2909 0.3063
H10C_2 H 0.5741 0.2909 0.3063
C4G C 0.4023(2) 0.15587(13) 0.3160(2)
C4C C -0.4023(2) 0.34413(13) 0.3160(2)
C4C_2 C 0.5977(2) 0.34413(13) 0.3160(2)
H11G H 0.4261 0.1509 0.3339
H11C H -0.4261 0.3491 0.3339
H11C_2 H 0.5739 0.3491 0.3339
C5G C 0.3675(2) 0.12829(12) 0.3063(2)
C5C C -0.3675(2) 0.37171(12) 0.3063(2)
C5C_2 C 0.6325(2) 0.37171(12) 0.3063(2)
H12G H 0.3673 0.1042 0.3175
H12C H -0.3673 0.3958 0.3175
H12C_2 H 0.6327 0.3958 0.3175
C6G C 0.33344(13) 0.13591(9) 0.28068(12)
C6C C -0.33344(13) 0.36409(9) 0.28068(12)
C6C_2 C 0.66656(13) 0.36409(9) 0.28068(12)
C7G C 0.33588(11) 0.17183(9) 0.26474(9)
C7C C -0.33588(11) 0.32817(9) 0.26474(9)
C7C_2 C 0.66412(11) 0.32817(9) 0.26474(9)
H13G H 0.3127 0.1775 0.2466
H13C H -0.3127 0.3225 0.2466
H13C_2 H 0.6873 0.3225 0.2466
C8G C 0.28090(12) 0.07850(9) 0.28503(11)
C8C C -0.28090(12) 0.42150(9) 0.28503(11)
C8C_2 C 0.71910(12) 0.42150(9) 0.28503(11)
C9G C 0.01201(17) -0.02525(11) 0.39601(10)
C9C C -0.01201(17) 0.52525(11) 0.39601(10)
C9C_2 C 0.98799(17) 0.52525(11) 0.39601(10)
H14G H -0.0112 -0.0327 0.4135
H14C H 0.0112 0.5327 0.4135
H14C_2 H 1.0112 0.5327 0.4135
C10G C 0.0296(2) -0.05215(11) 0.37430(11)
C10C C -0.0296(2) 0.55215(11) 0.37430(11)
C10C_2 C 0.9704(2) 0.55215(11) 0.37430(11)
H15G H 0.0184 -0.0778 0.3763
H15C H -0.0184 0.5778 0.3763
H15C_2 H 0.9816 0.5778 0.3763
C11G C 0.06488(17) -0.04184(10) 0.34862(10)
C11C C -0.06488(17) 0.54184(10) 0.34862(10)
C11C_2 C 0.93512(17) 0.54184(10) 0.34862(10)
H16G H 0.0784 -0.0603 0.3332
H16C H -0.0784 0.5603 0.3332
H16C_2 H 0.9216 0.5603 0.3332
C12G C 0.07928(13) -0.00402(9) 0.34653(8)
C12C C -0.07928(13) 0.50402(9) 0.34653(8)
C12C_2 C 0.92072(13) 0.50402(9) 0.34653(8)
C13G C 0.05892(12) 0.02152(9) 0.36938(8)
C13C C -0.05892(12) 0.47848(9) 0.36938(8)
C13C_2 C 0.94108(12) 0.47848(9) 0.36938(8)
H17G H 0.0688 0.0475 0.3677
H17C H -0.0688 0.4525 0.3677
H17C_2 H 0.9312 0.4525 0.3677
C14G C 0.12650(12) -0.00492(9) 0.29114(8)
C14C C -0.12650(12) 0.50492(9) 0.29114(8)
C14C_2 C 0.87350(12) 0.50492(9) 0.29114(8)
C15G C 0.10699(18) 0.03489(14) 0.05936(10)
C15C C -0.10699(18) 0.46511(14) 0.05936(10)
C15C_2 C 0.89301(18) 0.46511(14) 0.05936(10)
H18G H 0.0967 0.0360 0.0359
H18C H -0.0967 0.4640 0.0359
H18C_2 H 0.9033 0.4640 0.0359
C16G C 0.15649(19) 0.02817(16) 0.06680(11)
C16C C -0.15649(19) 0.47183(16) 0.06680(11)
C16C_2 C 0.84351(19) 0.47183(16) 0.06680(11)
H19G H 0.1803 0.0251 0.0486
H19C H -0.1803 0.4749 0.0486
H19C_2 H 0.8197 0.4749 0.0486
C17G C 0.17206(16) 0.02576(14) 0.09980(11)
C17C C -0.17206(16) 0.47424(14) 0.09980(11)
C17C_2 C 0.82794(16) 0.47424(14) 0.09980(11)
H20G H 0.2068 0.0210 0.1048
H20C H -0.2068 0.4790 0.1048
H20C_2 H 0.7932 0.4790 0.1048
C18G C 0.13743(12) 0.03029(9) 0.12648(8)
C18C C -0.13743(12) 0.46971(9) 0.12648(8)
C18C_2 C 0.86257(12) 0.46971(9) 0.12648(8)
C19G C 0.08794(12) 0.03780(9) 0.11698(8)
C19C C -0.08794(12) 0.46220(9) 0.11698(8)
C19C_2 C 0.91206(12) 0.46220(9) 0.11698(8)
H21G H 0.0637 0.0416 0.1348
H21C H -0.0637 0.4584 0.1348
H21C_2 H 0.9363 0.4584 0.1348
C20G C 0.19440(13) 0.03559(9) 0.17604(9)
C20C C -0.19440(13) 0.46441(9) 0.17604(9)
C20C_2 C 0.80560(13) 0.46441(9) 0.17604(9)
C21G C 0.23959(12) 0.05676(8) 0.26597(10)
C21C C -0.23959(12) 0.44324(8) 0.26597(10)
C21C_2 C 0.76041(12) 0.44324(8) 0.26597(10)
C22G C 0.20488(12) 0.03662(9) 0.28635(9)
C22C C -0.20488(12) 0.46338(9) 0.28635(9)
C22C_2 C 0.79512(12) 0.46338(9) 0.28635(9)
H22G H 0.2082 0.0367 0.3108
H22C H -0.2082 0.4633 0.3108
H22C_2 H 0.7918 0.4633 0.3108
C23G C 0.16566(11) 0.01656(8) 0.27100(8)
C23C C -0.16566(11) 0.48344(8) 0.27100(8)
C23C_2 C 0.83434(11) 0.48344(8) 0.27100(8)
C24G C 0.16176(11) 0.01518(8) 0.23534(8)
C24C C -0.16176(11) 0.48482(8) 0.23534(8)
C24C_2 C 0.83824(11) 0.48482(8) 0.23534(8)
H23G H 0.1354 0.0008 0.2249
H23C H -0.1354 0.4992 0.2249
H23C_2 H 0.8646 0.4992 0.2249
C25G C 0.19634(12) 0.03475(9) 0.21478(8)
C25C C -0.19634(12) 0.46525(9) 0.21478(8)
C25C_2 C 0.80366(12) 0.46525(9) 0.21478(8)
C26G C 0.23564(12) 0.05553(8) 0.23047(9)
C26C C -0.23564(12) 0.44447(8) 0.23047(9)
C26C_2 C 0.76436(12) 0.44447(8) 0.23047(9)
H24G H 0.2596 0.0688 0.2166
H24C H -0.2596 0.4312 0.2166
H24C_2 H 0.7404 0.4312 0.2166
O11G O 0.27719(18) 0.21919(9) 0.35915(10)
O11E O -0.27719(18) 0.21919(9) 0.14085(10)
O11C O 0.72281(18) 0.28081(9) 0.35915(10)
O12G O 0.08730(17) 0.17627(8) 0.44598(11)
O12E O -0.08730(17) 0.17627(8) 0.05402(11)
O12C O 0.91270(17) 0.32373(8) 0.44598(11)
O13G O 0.13144(14) 0.34518(8) 0.41410(8)
O13E O -0.13144(14) 0.34518(8) 0.08590(8)
O13C O 0.86856(14) 0.15482(8) 0.41410(8)
N10G N 0.37233(10) 0.27660(8) 0.29598(8)
N10E N -0.37233(10) 0.27660(8) 0.20402(8)
N10C N 0.62767(10) 0.22340(8) 0.29598(8)
N10E_2 N 0.62767(10) 0.27660(8) 0.20402(8)
N11G N 0.29415(15) 0.28070(10) 0.37432(8)
N11E N -0.29415(15) 0.28070(10) 0.12568(8)
N11C N 0.70585(15) 0.21930(10) 0.37432(8)
H25G H 0.2868 0.2989 0.3891
H25E H -0.2868 0.2989 0.1109
H25C H 0.7132 0.2011 0.3891
N12G N 0.07411(12) 0.06243(8) 0.43949(7)
N12E N -0.07411(12) 0.06243(8) 0.06051(7)
N12C N 0.92589(12) 0.43757(8) 0.43949(7)
N12C_2 N -0.07411(12) 0.43757(8) 0.43949(7)
N13G N 0.16116(15) 0.14432(9) 0.43959(9)
N13E N -0.16116(15) 0.14432(9) 0.06041(9)
N13C N 0.83884(15) 0.35568(9) 0.43959(9)
H26G H 0.1941 0.1468 0.4367
H26E H -0.1941 0.1468 0.0633
H26C H 0.8059 0.3532 0.4367
N14G N 0.02024(14) 0.40700(9) 0.46104(7)
N14E N -0.02024(14) 0.40700(9) 0.03896(7)
N14C N 0.97976(14) 0.09300(9) 0.46104(7)
N14C_2 N -0.02024(14) 0.09300(9) 0.46104(7)
N15G N 0.09656(14) 0.31962(8) 0.46253(7)
N15E N -0.09656(14) 0.31962(8) 0.03747(7)
N15C N 0.90344(14) 0.18038(8) 0.46253(7)
H27G H 0.0968 0.2994 0.4760
H27E H -0.0968 0.2994 0.0240
H27C H 0.9032 0.2006 0.4760
C27G C 0.40777(14) 0.30287(9) 0.30351(11)
C27E C -0.40777(14) 0.30287(9) 0.19649(11)
C27C C 0.59223(14) 0.19713(9) 0.30351(11)
H28G H 0.4340 0.3080 0.2873
H28E H -0.4340 0.3080 0.2127
H28C H 0.5660 0.1920 0.2873
C28G C 0.40663(19) 0.32260(11) 0.33459(13)
C28E C -0.40663(19) 0.32260(11) 0.16541(13)
C28C C 0.59337(19) 0.17740(11) 0.33459(13)
H29G H 0.4315 0.3415 0.3394
H29E H -0.4315 0.3415 0.1606
H29C H 0.5685 0.1585 0.3394
C29G C 0.3693(2) 0.31460(10) 0.35834(12)
C29E C -0.3693(2) 0.31460(10) 0.14166(12)
C29C C 0.6307(2) 0.18540(10) 0.35834(12)
H30G H 0.3682 0.3278 0.3798
H30E H -0.3682 0.3278 0.1202
H30C H 0.6318 0.1722 0.3798
C30G C 0.33335(16) 0.28729(10) 0.35071(9)
C30E C -0.33335(16) 0.28729(10) 0.14929(9)
C30C C 0.66665(16) 0.21271(10) 0.35071(9)
C31G C 0.33548(13) 0.26859(10) 0.31918(9)
C31E C -0.33548(13) 0.26859(10) 0.18082(9)
C31C C 0.66452(13) 0.23141(10) 0.31918(9)
H31G H 0.3107 0.2499 0.3138
H31E H -0.3107 0.2499 0.1862
H31C H 0.6893 0.2501 0.3138
C32G C 0.2672(3) 0.24844(12) 0.37575(13)
C32E C -0.2672(3) 0.24844(12) 0.12425(13)
C32C C 0.7328(3) 0.25156(12) 0.37575(13)
C33G C 0.10558(18) 0.03462(11) 0.45057(10)
C33E C -0.10558(18) 0.03462(11) 0.04943(10)
C33C C 0.89442(18) 0.46538(11) 0.45057(10)
H32G H 0.0934 0.0092 0.4527
H32E H -0.0934 0.0092 0.0473
H32C H 0.9066 0.4908 0.4527
C34G C 0.15488(18) 0.04279(12) 0.45879(13)
C34E C -0.15488(18) 0.04279(12) 0.04121(13)
C34C C 0.84512(18) 0.45721(12) 0.45879(13)
H33G H 0.1765 0.0230 0.4668
H33E H -0.1765 0.0230 0.0332
H33C H 0.8235 0.4770 0.4668
C35G C 0.17325(18) 0.07871(12) 0.45561(12)
C35E C -0.17325(18) 0.07871(12) 0.04439(12)
C35C C 0.82675(18) 0.42129(12) 0.45561(12)
H34G H 0.2076 0.0841 0.4612
H34E H -0.2076 0.0841 0.0388
H34C H 0.7924 0.4159 0.4612
C36G C 0.14175(16) 0.10700(10) 0.44430(9)
C36E C -0.14175(16) 0.10700(10) 0.05570(9)
C36C C 0.85825(16) 0.39300(10) 0.44430(9)
C37G C 0.09197(15) 0.09759(10) 0.43609(8)
C37E C -0.09197(15) 0.09759(10) 0.06391(8)
C37C C 0.90803(15) 0.40241(10) 0.43609(8)
H35G H 0.0700 0.1170 0.4278
H35E H -0.0700 0.1170 0.0722
H35C H 0.9300 0.3830 0.4278
C38G C 0.1328(2) 0.17611(12) 0.43922(12)
C38E C -0.1328(2) 0.17611(12) 0.06078(12)
C38C C 0.8672(2) 0.32389(12) 0.43922(12)
C39G C -0.00076(17) 0.40519(15) 0.49276(10)
C39E C 0.00076(17) 0.40519(15) 0.00724(10)
C39C C 1.00076(17) 0.09481(15) 0.49276(10)
H36G H -0.0243 0.4243 0.4997
H36E H 0.0243 0.4243 0.0003
H36C H 1.0243 0.0757 0.4997
C40G C 0.0110(2) 0.37685(16) 0.51478(10)
C40E C -0.0110(2) 0.37685(16) -0.01478(10)
C40C C 0.9890(2) 0.12315(16) 0.51478(10)
H37G H -0.0033 0.3767 0.5373
H37E H 0.0033 0.3767 -0.0373
H37C H 1.0033 0.1233 0.5373
C41G C 0.04318(19) 0.34836(13) 0.50527(9)
C41E C -0.04318(19) 0.34836(13) -0.00527(9)
C41C C 0.95682(19) 0.15164(13) 0.50527(9)
H38G H 0.0508 0.3282 0.5208
H38E H -0.0508 0.3282 -0.0208
H38C H 0.9492 0.1718 0.5208
C42G C 0.06462(15) 0.34938(10) 0.47251(8)
C42E C -0.06462(15) 0.34938(10) 0.02749(8)
C42C C 0.93538(15) 0.15062(10) 0.47251(8)
C43G C 0.05205(14) 0.37945(9) 0.45129(7)
C43E C -0.05205(14) 0.37945(9) 0.04871(7)
C43C C 0.94795(14) 0.12055(9) 0.45129(7)
H39G H 0.0666 0.3806 0.4289
H39E H -0.0666 0.3806 0.0711
H39C H 0.9334 0.1194 0.4289
C44G C 0.12728(19) 0.31845(11) 0.43438(10)
C44E C -0.12728(19) 0.31845(11) 0.06562(10)
C44C C 0.87272(19) 0.18155(11) 0.43438(10)
C45G C 0.2219(2) 0.24845(10) 0.39971(11)
C45E C -0.2219(2) 0.24845(10) 0.10029(11)
C45C C 0.7781(2) 0.25155(10) 0.39971(11)
C46G C 0.2020(2) 0.21383(12) 0.41057(10)
C46E C -0.2020(2) 0.21383(12) 0.08943(10)
C46C C 0.7980(2) 0.28617(12) 0.41057(10)
H40G H 0.2189 0.1908 0.4046
H40E H -0.2189 0.1908 0.0954
H40C H 0.7811 0.3092 0.4046
C47G C 0.15848(19) 0.21237(11) 0.42972(10)
C47E C -0.15848(19) 0.21237(11) 0.07028(10)
C47C C 0.84152(19) 0.28763(11) 0.42972(10)
C48G C 0.1331(2) 0.24650(10) 0.43819(12)
C48E C -0.1331(2) 0.24650(10) 0.06181(12)
C48C C 0.8669(2) 0.25350(10) 0.43819(12)
H41G H 0.1025 0.2456 0.4511
H41E H -0.1025 0.2456 0.0489
H41C H 0.8975 0.2544 0.4511
C49G C 0.15278(19) 0.28126(11) 0.42775(9)
C49E C -0.15278(19) 0.28126(11) 0.07225(9)
C49C C 0.84722(19) 0.21874(11) 0.42775(9)
C50G C 0.1967(2) 0.28237(12) 0.40810(10)
C50E C -0.1967(2) 0.28237(12) 0.09190(10)
C50C C 0.8033(2) 0.21763(12) 0.40810(10)
H42G H 0.2096 0.3061 0.4003
H42E H -0.2096 0.3061 0.0997
H42C H 0.7904 0.1939 0.4003
loop_
_geom_bond_atom_site_label_1
_geom_bond_atom_site_label_2
_geom_bond_site_symmetry_1
_geom_bond_site_symmetry_2
Cu1 O1 1_555 1_555
N1 O1 1_555 1_555
O2 N1 1_555 1_555
N2 O3 1_555 1_555
O3 Cu1 1_555 1_555
O4 N2 1_555 1_555
Cu2 O5 1_555 1_555
N3 O5 1_555 1_555
O5 N3H 1_555 1_555
O6 N3 1_555 1_555
S1 O7 1_555 1_555
O7 Cu2 1_555 1_555
C1 S1 1_555 1_555
H1 C1 1_555 1_555
H2 C1 1_555 1_555
H3 C1 1_555 1_555
C2 S1 1_555 1_555
H4 C2 1_555 1_555
H5 C2 1_555 1_555
H6 C2 1_555 1_555
O8 C8 1_555 1_555
O9 C14 1_555 1_555
O10 C20 1_555 1_555
N4 Cu1 1_555 1_555
N5 H7 1_555 1_555
N6 Cu2 1_555 1_555
N7 H8 1_555 1_555
N8 C15 1_555 1_555
N9 H9 1_555 1_555
C3 N4 1_555 1_555
H10 C3 1_555 1_555
C4 C3 1_555 1_555
H11 C4 1_555 1_555
C5 C4 1_555 1_555
H12 C5 1_555 1_555
C6 N5 1_555 1_555
C7 N4 1_555 1_555
H13 C7 1_555 1_555
C8 N5 1_555 1_555
C9 N6 1_555 1_555
H14 C9 1_555 1_555
C10 C9 1_555 1_555
H15 C10 1_555 1_555
C11 C10 1_555 1_555
H16 C11 1_555 1_555
C12 N7 1_555 1_555
C13 N6 1_555 1_555
H17 C13 1_555 1_555
C14 N7 1_555 1_555
C15 H18 1_555 1_555
C16 C15 1_555 1_555
H19 C16 1_555 1_555
C17 C16 1_555 1_555
H20 C17 1_555 1_555
C18 N9 1_555 1_555
C19 N8 1_555 1_555
H21 C19 1_555 1_555
C20 N9 1_555 1_555
C21 C8 1_555 1_555
C22 C21 1_555 1_555
H22 C22 1_555 1_555
C23 C14 1_555 1_555
C24 C23 1_555 1_555
H23 C24 1_555 1_555
C25 C20 1_555 1_555
C26 C21 1_555 1_555
H24 C26 1_555 1_555
O11 C32 1_555 1_555
O12 C38 1_555 1_555
O13 C44 1_555 1_555
N10 Cu1 1_555 1_555
N11 H25 1_555 1_555
N12 Cu2 1_555 1_555
N13 H26 1_555 1_555
N14 C39 1_555 1_555
N15 H27 1_555 1_555
C27 N10 1_555 1_555
H28 C27 1_555 1_555
C28 C27 1_555 1_555
H29 C28 1_555 1_555
C29 C28 1_555 1_555
H30 C29 1_555 1_555
C30 N11 1_555 1_555
C31 N10 1_555 1_555
H31 C31 1_555 1_555
C32 N11 1_555 1_555
C33 N12 1_555 1_555
H32 C33 1_555 1_555
C34 C33 1_555 1_555
H33 C34 1_555 1_555
C35 C34 1_555 1_555
H34 C35 1_555 1_555
C36 N13 1_555 1_555
C37 N12 1_555 1_555
H35 C37 1_555 1_555
C38 N13 1_555 1_555
C39 H36 1_555 1_555
C40 C39 1_555 1_555
H37 C40 1_555 1_555
C41 C40 1_555 1_555
H38 C41 1_555 1_555
C42 N15 1_555 1_555
C43 N14 1_555 1_555
H39 C43 1_555 1_555
C44 N15 1_555 1_555
C45 C32 1_555 1_555
C46 C45 1_555 1_555
H40 C46 1_555 1_555
C47 C38 1_555 1_555
C48 C47 1_555 1_555
H41 C48 1_555 1_555
C49 C44 1_555 1_555
C50 C45 1_555 1_555
H42 C50 1_555 1_555
Cu1C O1C 1_555 1_555
Cu1C_2 N4C 1_555 1_555
O1C N1 1_555 1_555
O2E N1 1_555 1_555
N2C O3C 1_555 1_555
O3C Cu1C 1_555 1_555
O4G N2 1_555 1_555
O4C N2C 1_555 1_555
O4E N2C 1_555 1_555
Cu2G O5G 1_555 1_555
Cu2C N8 1_555 1_555
Cu2E N14 1_555 1_555
Cu2H O5H 1_555 1_555
Cu2C_2 N6C_2 1_555 1_555
Cu2_2 N8C_2 1_555 1_555
Cu2G_2 N14C 1_555 1_555
Cu2O O5O 1_555 1_555
N3H N3 1_555 1_555
N3G N3O 1_555 1_555
N3O O5G 1_555 1_555
O5H N3 1_555 1_555
O5G N3G 1_555 1_555
O5O N3G 1_555 1_555
O5C Cu2C 1_555 1_555
O5E Cu2E 1_555 1_555
O6H N3H 1_555 1_555
O6G N3G 1_555 1_555
O6O N3O 1_555 1_555
S1G O7G 1_555 1_555
S1C O7C 1_555 1_555
S1E O7E 1_555 1_555
O7G Cu2G 1_555 1_555
O7C Cu2C 1_555 1_555
O7E Cu2E 1_555 1_555
C1G S1G 1_555 1_555
C1C S1C 1_555 1_555
C1E S1E 1_555 1_555
H1G C1G 1_555 1_555
H1C C1C 1_555 1_555
H1E C1E 1_555 1_555
H2G C1G 1_555 1_555
H2C C1C 1_555 1_555
H2E C1E 1_555 1_555
H3G C1G 1_555 1_555
H3C C1C 1_555 1_555
H3E C1E 1_555 1_555
C2G S1G 1_555 1_555
C2C S1C 1_555 1_555
C2E S1E 1_555 1_555
H4G C2G 1_555 1_555
H4C C2C 1_555 1_555
H4E C2E 1_555 1_555
H5G C2G 1_555 1_555
H5C C2C 1_555 1_555
H5E C2E 1_555 1_555
H6G C2G 1_555 1_555
H6C C2C 1_555 1_555
H6E C2E 1_555 1_555
O8G C8G 1_555 1_555
O8C C8C 1_555 1_555
O8C_2 C8C_2 1_555 1_555
O9G C14G 1_555 1_555
O9C C14C 1_555 1_555
O9C_2 C14C_2 1_555 1_555
O10G C20G 1_555 1_555
O10C C20C 1_555 1_555
O10C_2 C20C_2 1_555 1_555
N4G Cu1 1_555 1_555
N4C C3C 1_555 1_555
N4C_2 Cu1C 1_555 1_555
N4E Cu1C 1_555 1_555
N5G H7G 1_555 1_555
N5C H7C 1_555 1_555
N5C_2 H7C_2 1_555 1_555
N6G Cu2G 1_555 1_555
N6C Cu2C 1_555 1_555
N6C_2 C9C_2 1_555 1_555
N6E Cu2E 1_555 1_555
N7G H8G 1_555 1_555
N7C H8C 1_555 1_555
N7C_2 H8C_2 1_555 1_555
N8G Cu2E 1_555 1_555
N8C Cu2 1_555 1_555
N8C_2 C15C_2 1_555 1_555
N8E Cu2G 1_555 1_555
N9G H9G 1_555 1_555
N9C H9C 1_555 1_555
N9C_2 H9C_2 1_555 1_555
C3G N4G 1_555 1_555
C3C H10C 1_555 1_555
C3C_2 N4C_2 1_555 1_555
H10G C3G 1_555 1_555
H10C_2 C3C_2 1_555 1_555
C4G C3G 1_555 1_555
C4C C3C 1_555 1_555
C4C_2 C3C_2 1_555 1_555
H11G C4G 1_555 1_555
H11C C4C 1_555 1_555
H11C_2 C4C_2 1_555 1_555
C5G C4G 1_555 1_555
C5C C4C 1_555 1_555
C5C_2 C4C_2 1_555 1_555
H12G C5G 1_555 1_555
H12C C5C 1_555 1_555
H12C_2 C5C_2 1_555 1_555
C6G N5G 1_555 1_555
C6C N5C 1_555 1_555
C6C_2 N5C_2 1_555 1_555
C7G N4G 1_555 1_555
C7C N4C 1_555 1_555
C7C_2 N4C_2 1_555 1_555
H13G C7G 1_555 1_555
H13C C7C 1_555 1_555
H13C_2 C7C_2 1_555 1_555
C8G N5G 1_555 1_555
C8C N5C 1_555 1_555
C8C_2 N5C_2 1_555 1_555
C9G N6G 1_555 1_555
C9C N6C 1_555 1_555
C9C_2 H14C_2 1_555 1_555
H14G C9G 1_555 1_555
H14C C9C 1_555 1_555
C10G C9G 1_555 1_555
C10C C9C 1_555 1_555
C10C_2 C9C_2 1_555 1_555
H15G C10G 1_555 1_555
H15C C10C 1_555 1_555
H15C_2 C10C_2 1_555 1_555
C11G C10G 1_555 1_555
C11C C10C 1_555 1_555
C11C_2 C10C_2 1_555 1_555
H16G C11G 1_555 1_555
H16C C11C 1_555 1_555
H16C_2 C11C_2 1_555 1_555
C12G N7G 1_555 1_555
C12C N7C 1_555 1_555
C12C_2 N7C_2 1_555 1_555
C13G N6G 1_555 1_555
C13C N6C 1_555 1_555
C13C_2 N6C_2 1_555 1_555
H17G C13G 1_555 1_555
H17C C13C 1_555 1_555
H17C_2 C13C_2 1_555 1_555
C14G N7G 1_555 1_555
C14C N7C 1_555 1_555
C14C_2 N7C_2 1_555 1_555
C15G N8G 1_555 1_555
C15C N8C 1_555 1_555
C15C_2 H18C_2 1_555 1_555
H18G C15G 1_555 1_555
H18C C15C 1_555 1_555
C16G C15G 1_555 1_555
C16C C15C 1_555 1_555
C16C_2 C15C_2 1_555 1_555
H19G C16G 1_555 1_555
H19C C16C 1_555 1_555
H19C_2 C16C_2 1_555 1_555
C17G C16G 1_555 1_555
C17C C16C 1_555 1_555
C17C_2 C16C_2 1_555 1_555
H20G C17G 1_555 1_555
H20C C17C 1_555 1_555
H20C_2 C17C_2 1_555 1_555
C18G N9G 1_555 1_555
C18C N9C 1_555 1_555
C18C_2 N9C_2 1_555 1_555
C19G N8G 1_555 1_555
C19C N8C 1_555 1_555
C19C_2 N8C_2 1_555 1_555
H21G C19G 1_555 1_555
H21C C19C 1_555 1_555
H21C_2 C19C_2 1_555 1_555
C20G N9G 1_555 1_555
C20C N9C 1_555 1_555
C20C_2 N9C_2 1_555 1_555
C21G C8G 1_555 1_555
C21C C8C 1_555 1_555
C21C_2 C8C_2 1_555 1_555
C22G C21G 1_555 1_555
C22C C21C 1_555 1_555
C22C_2 C21C_2 1_555 1_555
H22G C22G 1_555 1_555
H22C C22C 1_555 1_555
H22C_2 C22C_2 1_555 1_555
C23G C14G 1_555 1_555
C23C C14C 1_555 1_555
C23C_2 C14C_2 1_555 1_555
C24G C23G 1_555 1_555
C24C C23C 1_555 1_555
C24C_2 C23C_2 1_555 1_555
H23G C24G 1_555 1_555
H23C C24C 1_555 1_555
H23C_2 C24C_2 1_555 1_555
C25G C20G 1_555 1_555
C25C C20C 1_555 1_555
C25C_2 C20C_2 1_555 1_555
C26G C21G 1_555 1_555
C26C C21C 1_555 1_555
C26C_2 C21C_2 1_555 1_555
H24G C26G 1_555 1_555
H24C C26C 1_555 1_555
H24C_2 C26C_2 1_555 1_555
O11G C32G 1_555 1_555
O11E C32E 1_555 1_555
O11C C32C 1_555 1_555
O12G C38G 1_555 1_555
O12E C38E 1_555 1_555
O12C C38C 1_555 1_555
O13G C44G 1_555 1_555
O13E C44E 1_555 1_555
O13C C44C 1_555 1_555
N10G Cu1 1_555 1_555
N10E Cu1C_2 1_555 1_555
N10C Cu1C 1_555 1_555
N10E_2 Cu1C 1_555 1_555
N11G H25G 1_555 1_555
N11E H25E 1_555 1_555
N11C H25C 1_555 1_555
N12G Cu2G 1_555 1_555
N12E Cu2E 1_555 1_555
N12C Cu2C_2 1_555 1_555
N12C_2 Cu2C 1_555 1_555
N13G H26G 1_555 1_555
N13E H26E 1_555 1_555
N13C H26C 1_555 1_555
N14G Cu2C 1_555 1_555
N14E Cu2 1_555 1_555
N14C C39C 1_555 1_555
N14C_2 Cu2G 1_555 1_555
N15G H27G 1_555 1_555
N15E H27E 1_555 1_555
N15C H27C 1_555 1_555
C27G N10G 1_555 1_555
C27E N10E 1_555 1_555
C27C N10C 1_555 1_555
H28G C27G 1_555 1_555
H28E C27E 1_555 1_555
H28C C27C 1_555 1_555
C28G C27G 1_555 1_555
C28E C27E 1_555 1_555
C28C C27C 1_555 1_555
H29G C28G 1_555 1_555
H29E C28E 1_555 1_555
H29C C28C 1_555 1_555
C29G C28G 1_555 1_555
C29E C28E 1_555 1_555
C29C C28C 1_555 1_555
H30G C29G 1_555 1_555
H30E C29E 1_555 1_555
H30C C29C 1_555 1_555
C30G N11G 1_555 1_555
C30E N11E 1_555 1_555
C30C N11C 1_555 1_555
C31G N10G 1_555 1_555
C31E N10E 1_555 1_555
C31C N10C 1_555 1_555
H31G C31G 1_555 1_555
H31E C31E 1_555 1_555
H31C C31C 1_555 1_555
C32G N11G 1_555 1_555
C32E N11E 1_555 1_555
C32C N11C 1_555 1_555
C33G N12G 1_555 1_555
C33E N12E 1_555 1_555
C33C N12C 1_555 1_555
H32G C33G 1_555 1_555
H32E C33E 1_555 1_555
H32C C33C 1_555 1_555
C34G C33G 1_555 1_555
C34E C33E 1_555 1_555
C34C C33C 1_555 1_555
H33G C34G 1_555 1_555
H33E C34E 1_555 1_555
H33C C34C 1_555 1_555
C35G C34G 1_555 1_555
C35E C34E 1_555 1_555
C35C C34C 1_555 1_555
H34G C35G 1_555 1_555
H34E C35E 1_555 1_555
H34C C35C 1_555 1_555
C36G N13G 1_555 1_555
C36E N13E 1_555 1_555
C36C N13C 1_555 1_555
C37G N12G 1_555 1_555
C37E N12E 1_555 1_555
C37C N12C 1_555 1_555
H35G C37G 1_555 1_555
H35E C37E 1_555 1_555
H35C C37C 1_555 1_555
C38G N13G 1_555 1_555
C38E N13E 1_555 1_555
C38C N13C 1_555 1_555
C39G N14G 1_555 1_555
C39E N14E 1_555 1_555
C39C H36C 1_555 1_555
H36G C39G 1_555 1_555
H36E C39E 1_555 1_555
C40G C39G 1_555 1_555
C40E C39E 1_555 1_555
C40C C39C 1_555 1_555
H37G C40G 1_555 1_555
H37E C40E 1_555 1_555
H37C C40C 1_555 1_555
C41G C40G 1_555 1_555
C41E C40E 1_555 1_555
C41C C40C 1_555 1_555
H38G C41G 1_555 1_555
H38E C41E 1_555 1_555
H38C C41C 1_555 1_555
C42G N15G 1_555 1_555
C42E N15E 1_555 1_555
C42C N15C 1_555 1_555
C43G N14G 1_555 1_555
C43E N14E 1_555 1_555
C43C N14C 1_555 1_555
H39G C43G 1_555 1_555
H39E C43E 1_555 1_555
H39C C43C 1_555 1_555
C44G N15G 1_555 1_555
C44E N15E 1_555 1_555
C44C N15C 1_555 1_555
C45G C32G 1_555 1_555
C45E C32E 1_555 1_555
C45C C32C 1_555 1_555
C46G C45G 1_555 1_555
C46E C45E 1_555 1_555
C46C C45C 1_555 1_555
H40G C46G 1_555 1_555
H40E C46E 1_555 1_555
H40C C46C 1_555 1_555
C47G C38G 1_555 1_555
C47E C38E 1_555 1_555
C47C C38C 1_555 1_555
C48G C47G 1_555 1_555
C48E C47E 1_555 1_555
C48C C47C 1_555 1_555
H41G C48G 1_555 1_555
H41E C48E 1_555 1_555
H41C C48C 1_555 1_555
C49G C44G 1_555 1_555
C49E C44E 1_555 1_555
C49C C44C 1_555 1_555
C50G C45G 1_555 1_555
C50E C45E 1_555 1_555
C50C C45C 1_555 1_555
H42G C50G 1_555 1_555
H42E C50E 1_555 1_555
H42C C50C 1_555 1_555
C5 C6 1_555 1_555
C6 C7 1_555 1_555
C11 C12 1_555 1_555
C12 C13 1_555 1_555
C17 C18 1_555 1_555
C18 C19 1_555 1_555
C22 C23 1_555 1_555
C24 C25 1_555 1_555
C25 C26 1_555 1_555
C29 C30 1_555 1_555
C30 C31 1_555 1_555
C35 C36 1_555 1_555
C36 C37 1_555 1_555
C41 C42 1_555 1_555
C42 C43 1_555 1_555
C46 C47 1_555 1_555
C48 C49 1_555 1_555
C49 C50 1_555 1_555
N3H O5H 1_555 1_555
N3O O5O 1_555 1_555
C5G C6G 1_555 1_555
C5C C6C 1_555 1_555
C5C_2 C6C_2 1_555 1_555
C6G C7G 1_555 1_555
C6C C7C 1_555 1_555
C6C_2 C7C_2 1_555 1_555
C11G C12G 1_555 1_555
C11C C12C 1_555 1_555
C11C_2 C12C_2 1_555 1_555
C12G C13G 1_555 1_555
C12C C13C 1_555 1_555
C12C_2 C13C_2 1_555 1_555
C17G C18G 1_555 1_555
C17C C18C 1_555 1_555
C17C_2 C18C_2 1_555 1_555
C18G C19G 1_555 1_555
C18C C19C 1_555 1_555
C18C_2 C19C_2 1_555 1_555
C22G C23G 1_555 1_555
C22C C23C 1_555 1_555
C22C_2 C23C_2 1_555 1_555
C24G C25G 1_555 1_555
C24C C25C 1_555 1_555
C24C_2 C25C_2 1_555 1_555
C25G C26G 1_555 1_555
C25C C26C 1_555 1_555
C25C_2 C26C_2 1_555 1_555
C29G C30G 1_555 1_555
C29E C30E 1_555 1_555
C29C C30C 1_555 1_555
C30G C31G 1_555 1_555
C30E C31E 1_555 1_555
C30C C31C 1_555 1_555
C35G C36G 1_555 1_555
C35E C36E 1_555 1_555
C35C C36C 1_555 1_555
C36G C37G 1_555 1_555
C36E C37E 1_555 1_555
C36C C37C 1_555 1_555
C41G C42G 1_555 1_555
C41E C42E 1_555 1_555
C41C C42C 1_555 1_555
C42G C43G 1_555 1_555
C42E C43E 1_555 1_555
C42C C43C 1_555 1_555
C46G C47G 1_555 1_555
C46E C47E 1_555 1_555
C46C C47C 1_555 1_555
C48G C49G 1_555 1_555
C48E C49E 1_555 1_555
C48C C49C 1_555 1_555
C49G C50G 1_555 1_555
C49E C50E 1_555 1_555
C49C C50C 1_555 1_555

#END
