
#######################################################################
#
#                 Cambridge Crystallographic Data Centre
#                                CCDC 
#
#######################################################################
#
# If this CIF has been generated from an entry in the Cambridge 
# Structural Database, then it will include bibliographic, chemical, 
# crystal, experimental, refinement or atomic coordinate data resulting 
# from the CCDC's data processing and validation procedures.
#
#######################################################################

data_YITRAU
_symmetry_cell_setting           monoclinic
_symmetry_space_group_name_H-M   'P 21/n'
_symmetry_Int_Tables_number      14
_space_group_name_Hall           '-P 2yn'
loop_
_symmetry_equiv_pos_site_id
_symmetry_equiv_pos_as_xyz
1 x,y,z
2 1/2-x,1/2+y,1/2-z
3 -x,-y,-z
4 1/2+x,1/2-y,1/2+z
_cell_length_a                   11.266(3)
_cell_length_b                   7.758(2)
_cell_length_c                   16.390(3)
_cell_angle_alpha                90
_cell_angle_beta                 99.99(1)
_cell_angle_gamma                90
_cell_volume                     1410.79
loop_
_atom_site_label
_atom_site_type_symbol
_atom_site_fract_x
_atom_site_fract_y
_atom_site_fract_z
Hg1 Hg 0.3663(1) 0.5106(3) 0.7396(1)
Hg2 Hg 0.1340(1) 0.4920(2) 0.9054(1)
Cl1 Cl 0.1570(6) 0.4946(21) 0.7244(4)
Cl2 Cl 0.5677(5) 0.5329(15) 0.7917(4)
Cl3 Cl 0.3388(5) 0.5066(14) 0.9443(4)
Cl4 Cl -0.0693(7) 0.4543(10) 0.8809(4)
O1 O 0.3808(14) 0.3282(23) 0.6122(9)
O2 O 0.3456(15) 0.6053(26) 0.5804(9)
C1 C 0.3444(25) 0.4508(38) 0.5594(16)
C2 C 0.3100(22) 0.3923(35) 0.4722(12)
N1 N 0.2296(14) 0.5157(32) 0.4115(9)
C3 C 0.1896(26) 0.4105(42) 0.3335(14)
C4 C 0.3032(21) 0.6525(35) 0.3920(13)
C5 C 0.1259(19) 0.5798(34) 0.4468(12)
C6 C 0.0533(21) 0.4609(37) 0.4856(14)
H1 H 0.2694 0.2834 0.4722
H2 H 0.3830 0.3724 0.4509
H3 H 0.1388 0.4800 0.2932
H4 H 0.2592 0.3746 0.3115
H5 H 0.1457 0.3108 0.3462
H6 H 0.2559 0.7308 0.3542
H7 H 0.3366 0.7127 0.4419
H8 H 0.3673 0.6065 0.3669
H9 H 0.0731 0.6386 0.4034
H10 H 0.1563 0.6648 0.4877
H11 H 0.1035 0.4069 0.5319
H12 H 0.0247 0.3721 0.4463
C6B C -0.0533(21) 0.5391(37) 0.5144(14)
C5B C -0.1259(19) 0.4202(34) 0.5532(12)
N1B N -0.2296(14) 0.4843(32) 0.5885(9)
C2B C -0.3100(22) 0.6077(35) 0.5278(12)
C1B C -0.3444(25) 0.5492(38) 0.4406(16)
O1B O -0.3808(14) 0.6718(23) 0.3878(9)
O2B O -0.3456(15) 0.3947(26) 0.4196(9)
H1B H -0.2694 0.7166 0.5278
H2B H -0.3830 0.6276 0.5491
C3B C -0.1896(26) 0.5895(42) 0.6665(14)
H3B H -0.1388 0.5200 0.7068
H4B H -0.2592 0.6254 0.6885
H5B H -0.1457 0.6892 0.6538
C4B C -0.3032(21) 0.3475(35) 0.6080(13)
H6B H -0.2559 0.2692 0.6458
H7B H -0.3366 0.2873 0.5581
H8B H -0.3673 0.3935 0.6331
H9B H -0.0731 0.3614 0.5966
H10B H -0.1563 0.3352 0.5123
H11B H -0.1035 0.5931 0.4681
H12B H -0.0247 0.6279 0.5537
Hg1B Hg -0.3663(1) 0.4894(3) 0.2604(1)
Hg2A Hg 0.3660(1) -0.0080(2) 0.5946(1)
Cl1B Cl -0.1570(6) 0.5054(21) 0.2756(4)
Cl2B Cl -0.5677(5) 0.4671(15) 0.2083(4)
Cl3A Cl 0.1612(5) 0.0066(14) 0.5557(4)
Cl4A Cl 0.5693(7) -0.0457(10) 0.6191(4)
O1A O 0.1192(14) 0.8282(23) 0.8878(9)
Hg2C Hg -0.3660(1) 1.0080(2) 0.4054(1)
Cl1A Cl 0.3430(6) -0.0054(21) 0.7756(4)
Hg2B Hg -0.1340(1) 0.5080(2) 0.0946(1)
loop_
_geom_bond_atom_site_label_1
_geom_bond_atom_site_label_2
_geom_bond_site_symmetry_1
_geom_bond_site_symmetry_2
Hg1 Cl1 1_555 1_555
Hg2 Cl1 1_555 1_555
Cl2 Hg1 1_555 1_555
Cl3 Hg2 1_555 1_555
Cl4 Hg2 1_555 1_555
O1 Hg1 1_555 1_555
O2 Hg1 1_555 1_555
C1 O1 1_555 1_555
C2 C1 1_555 1_555
N1 C2 1_555 1_555
C3 N1 1_555 1_555
C4 N1 1_555 1_555
C5 N1 1_555 1_555
C6 C5 1_555 1_555
H1 C2 1_555 1_555
H2 C2 1_555 1_555
H3 C3 1_555 1_555
H4 C3 1_555 1_555
H5 C3 1_555 1_555
H6 C4 1_555 1_555
H7 C4 1_555 1_555
H8 C4 1_555 1_555
H9 C5 1_555 1_555
H10 C5 1_555 1_555
H11 C6 1_555 1_555
H12 C6 1_555 1_555
C6B C6 1_555 1_555
C5B C6B 1_555 1_555
N1B C5B 1_555 1_555
C2B N1B 1_555 1_555
C1B C2B 1_555 1_555
O1B C1B 1_555 1_555
O2B C1B 1_555 1_555
H1B C2B 1_555 1_555
H2B C2B 1_555 1_555
C3B N1B 1_555 1_555
H3B C3B 1_555 1_555
H4B C3B 1_555 1_555
H5B C3B 1_555 1_555
C4B N1B 1_555 1_555
H6B C4B 1_555 1_555
H7B C4B 1_555 1_555
H8B C4B 1_555 1_555
H9B C5B 1_555 1_555
H10B C5B 1_555 1_555
H11B C6B 1_555 1_555
H12B C6B 1_555 1_555
Hg1B O1B 1_555 1_555
Hg2A O1 1_555 1_555
Cl1B Hg1B 1_555 1_555
Cl2B Hg1B 1_555 1_555
Cl3A Hg2A 1_555 1_555
Cl4A Hg2A 1_555 1_555
O1A Hg2 1_555 1_555
Hg2C O1B 1_555 1_555
Cl1A Hg2A 1_555 1_555
Hg2B Cl1B 1_555 1_555
O2 C1 1_555 1_555
O2B Hg1B 1_555 1_555

#END
