
#######################################################################
#
#                 Cambridge Crystallographic Data Centre
#                                CCDC 
#
#######################################################################
#
# If this CIF has been generated from an entry in the Cambridge 
# Structural Database, then it will include bibliographic, chemical, 
# crystal, experimental, refinement or atomic coordinate data resulting 
# from the CCDC's data processing and validation procedures.
#
#######################################################################

data_YITVIH
_symmetry_cell_setting           monoclinic
_symmetry_space_group_name_H-M   'C 2/c'
_symmetry_Int_Tables_number      15
_space_group_name_Hall           '-C 2yn'
loop_
_symmetry_equiv_pos_site_id
_symmetry_equiv_pos_as_xyz
1 x,y,z
2 1/2+x,1/2+y,z
3 -x,y,1/2-z
4 1/2-x,1/2+y,1/2-z
5 -x,-y,-z
6 1/2-x,1/2-y,-z
7 x,-y,1/2+z
8 1/2+x,1/2-y,1/2+z
_cell_length_a                   25.794(4)
_cell_length_b                   12.311(2)
_cell_length_c                   16.348(2)
_cell_angle_alpha                90
_cell_angle_beta                 128.316(8)
_cell_angle_gamma                90
_cell_volume                     4073.12
loop_
_atom_site_label
_atom_site_type_symbol
_atom_site_fract_x
_atom_site_fract_y
_atom_site_fract_z
Hg1 Hg 0.242952(11) 0.147422(15) 0.214767(16)
N1 N 0.2450(2) 0.3174(4) 0.2028(3)
N2 N 0.2500(2) 0.4933(3) 0.2246(3)
N3 N 0.2385(2) 0.3636(4) 0.1206(3)
C1 C 0.2415(3) 0.4696(4) 0.1366(4)
C4 C 0.2513(3) 0.3951(4) 0.2638(4)
C10 C 0.2572(3) 0.3752(5) 0.3595(5)
H11 H 0.2614 0.4433 0.3917
H12 H 0.2956 0.3314 0.4075
H13 H 0.2185 0.3379 0.3408
C11 C 0.2356(3) 0.5528(5) 0.0641(4)
H14 H 0.2391 0.6242 0.0908
H15 H 0.1935 0.5453 -0.0036
H16 H 0.2703 0.5422 0.0588
Hg1C Hg 0.257048(11) -0.352578(15) 0.285233(16)
Hg1C_2 Hg 0.257048(11) 0.647422(15) 0.285233(16)
N1C N 0.2550(2) -0.1826(4) 0.2972(3)
N2C N 0.2500(2) -0.0067(3) 0.2754(3)
N2_2 N 0.2500(2) -0.5067(3) 0.2246(3)
N3C N 0.2615(2) -0.1364(4) 0.3794(3)
C1C C 0.2585(3) -0.0304(4) 0.3634(4)
C4C C 0.2487(3) -0.1049(4) 0.2362(4)
C10C C 0.2428(3) -0.1248(5) 0.1405(5)
H11C H 0.2386 -0.0567 0.1083
H12C H 0.2044 -0.1686 0.0925
H13C H 0.2815 -0.1621 0.1592
C11C C 0.2644(3) 0.0528(5) 0.4359(4)
H14C H 0.2609 0.1242 0.4092
H15C H 0.3065 0.0453 0.5036
H16C H 0.2297 0.0422 0.4412
Hg2 Hg 0.2500 0.2500 0.0000
Hg3 Hg 0.5000 0.56920(3) 0.2500
N4 N 0.4226(2) 0.4512(4) 0.1308(3)
N5 N 0.5501(3) 0.6600(4) 0.2002(4)
N6 N 0.3357(2) 0.3432(3) 0.0507(3)
N8 N 0.3414(2) 0.3809(4) -0.0239(3)
N9 N 0.5221(3) 0.7343(5) 0.1231(5)
N10 N 0.6264(3) 0.7042(5) 0.1920(4)
C2 C 0.3933(3) 0.4464(5) 0.0272(4)
C3 C 0.3847(3) 0.3859(4) 0.1408(4)
C5 C 0.3998(3) 0.3638(5) 0.2437(4)
H1 H 0.4379 0.4049 0.2972
H2 H 0.4084 0.2878 0.2595
H3 H 0.3626 0.3846 0.2405
C6 C 0.4179(3) 0.5056(6) -0.0224(5)
H4 H 0.4560 0.5479 0.0293
H5 H 0.3838 0.5528 -0.0760
H6 H 0.4297 0.4542 -0.0526
C7 C 0.5713(4) 0.7609(6) 0.1203(6)
C8 C 0.5656(4) 0.8407(7) 0.0452(7)
H7 H 0.6073 0.8459 0.0582
H8 H 0.5536 0.9107 0.0545
H9 H 0.5324 0.8163 -0.0249
C9 C 0.6099(3) 0.6418(5) 0.2390(5)
H10 H 0.6378 0.5924 0.2920
Hg3G Hg 0.0000 -0.06920(3) -0.2500
N4E N 0.0774(2) 0.0488(4) -0.1308(3)
N4B N 0.5774(2) 0.4512(4) 0.3692(3)
N5B N 0.4499(3) 0.6600(4) 0.2998(4)
N6E N 0.1643(2) 0.1568(3) -0.0507(3)
N8E N 0.1586(2) 0.1191(4) 0.0239(3)
N9B N 0.4779(3) 0.7343(5) 0.3769(5)
N10B N 0.3736(3) 0.7042(5) 0.3080(4)
C2E C 0.1067(3) 0.0536(5) -0.0272(4)
C3E C 0.1153(3) 0.1141(4) -0.1408(4)
C5E C 0.1002(3) 0.1362(5) -0.2437(4)
H1E H 0.0621 0.0951 -0.2972
H2E H 0.0916 0.2122 -0.2595
H3E H 0.1374 0.1154 -0.2405
C6E C 0.0821(3) -0.0056(6) 0.0224(5)
H4E H 0.0440 -0.0479 -0.0293
H5E H 0.1162 -0.0528 0.0760
H6E H 0.0703 0.0458 0.0526
C7B C 0.4287(4) 0.7609(6) 0.3797(6)
C8B C 0.4344(4) 0.8407(7) 0.4548(7)
H7B H 0.3927 0.8459 0.4418
H8B H 0.4464 0.9107 0.4455
H9B H 0.4676 0.8163 0.5249
C9B C 0.3901(3) 0.6418(5) 0.2610(5)
H10B H 0.3622 0.5924 0.2080
O1 O 0.3087(3) 0.1174(4) 0.1517(4)
O2 O 0.4111(4) 0.0624(7) 0.1992(6)
O3 O 0.3875(3) 0.0862(5) 0.3176(5)
N7 N 0.3655(4) 0.0900(6) 0.2246(6)
O4 O 0.3842(4) 0.2020(7) 0.4578(6)
H17 H 0.400(3) 0.166(3) 0.511(2)
H18 H 0.3869(12) 0.173(3) 0.4151(17)
loop_
_geom_bond_atom_site_label_1
_geom_bond_atom_site_label_2
_geom_bond_site_symmetry_1
_geom_bond_site_symmetry_2
Hg1 N1 1_555 1_555
Hg2 N6 1_555 1_555
Hg3 N4 1_555 1_555
O1 N7 1_555 1_555
O2 N7 1_555 1_555
O3 N7 1_555 1_555
N1 N3 1_555 1_555
N2 C1 1_555 1_555
N3 C1 1_555 1_555
N4 C2 1_555 1_555
N5 Hg3 1_555 1_555
N6 N8 1_555 1_555
N8 C2 1_555 1_555
N9 N5 1_555 1_555
N10 C7 1_555 1_555
C1 C11 1_555 1_555
C2 C6 1_555 1_555
C3 N4 1_555 1_555
C4 N1 1_555 1_555
C5 C3 1_555 1_555
H1 C5 1_555 1_555
H2 C5 1_555 1_555
H3 C5 1_555 1_555
C6 H4 1_555 1_555
H5 C6 1_555 1_555
H6 C6 1_555 1_555
C7 N9 1_555 1_555
C8 C7 1_555 1_555
H7 C8 1_555 1_555
H8 C8 1_555 1_555
H9 C8 1_555 1_555
C9 N5 1_555 1_555
H10 C9 1_555 1_555
C10 C4 1_555 1_555
H11 C10 1_555 1_555
H12 C10 1_555 1_555
H13 C10 1_555 1_555
C11 H14 1_555 1_555
H15 C11 1_555 1_555
H16 C11 1_555 1_555
O4 H17 1_555 1_555
H18 O4 1_555 1_555
Hg1C N1C 1_555 1_555
Hg1C_2 N2 1_555 1_555
Hg3G N4E 1_555 1_555
N1C N3C 1_555 1_555
N2C Hg1 1_555 1_555
N2_2 Hg1C 1_555 1_555
N3C C1C 1_555 1_555
N4E C2E 1_555 1_555
N4B Hg3 1_555 1_555
N5B Hg3 1_555 1_555
N6E Hg2 1_555 1_555
N8E N6E 1_555 1_555
N9B N5B 1_555 1_555
N10B C7B 1_555 1_555
C1C N2C 1_555 1_555
C2E N8E 1_555 1_555
C3E N4E 1_555 1_555
C4C N1C 1_555 1_555
C5E C3E 1_555 1_555
H1E C5E 1_555 1_555
H2E C5E 1_555 1_555
H3E C5E 1_555 1_555
C6E C2E 1_555 1_555
H4E C6E 1_555 1_555
H5E C6E 1_555 1_555
H6E C6E 1_555 1_555
C7B N9B 1_555 1_555
C8B C7B 1_555 1_555
H7B C8B 1_555 1_555
H8B C8B 1_555 1_555
H9B C8B 1_555 1_555
C9B N5B 1_555 1_555
H10B C9B 1_555 1_555
C10C C4C 1_555 1_555
H11C C10C 1_555 1_555
H12C C10C 1_555 1_555
H13C C10C 1_555 1_555
C11C C1C 1_555 1_555
H14C C11C 1_555 1_555
H15C C11C 1_555 1_555
H16C C11C 1_555 1_555
N2 C4 1_555 1_555
N6 C3 1_555 1_555
N10 C9 1_555 1_555
N2C C4C 1_555 1_555
N6E C3E 1_555 1_555
N10B C9B 1_555 1_555

#END
