
#######################################################################
#
#                 Cambridge Crystallographic Data Centre
#                                CCDC 
#
#######################################################################
#
# If this CIF has been generated from an entry in the Cambridge 
# Structural Database, then it will include bibliographic, chemical, 
# crystal, experimental, refinement or atomic coordinate data resulting 
# from the CCDC's data processing and validation procedures.
#
#######################################################################

data_YITVEE
_symmetry_cell_setting           triclinic
_symmetry_space_group_name_H-M   'P -1'
_symmetry_Int_Tables_number      2
_space_group_name_Hall           '-P 1'
loop_
_symmetry_equiv_pos_site_id
_symmetry_equiv_pos_as_xyz
1 x,y,z
2 -x,-y,-z
_cell_length_a                   8.768(2)
_cell_length_b                   8.851(2)
_cell_length_c                   12.344(3)
_cell_angle_alpha                76.950(2)
_cell_angle_beta                 77.453(2)
_cell_angle_gamma                63.795(2)
_cell_volume                     829.701
loop_
_atom_site_label
_atom_site_type_symbol
_atom_site_fract_x
_atom_site_fract_y
_atom_site_fract_z
C1 C 0.6408(3) 0.0148(4) 0.6769(2)
H1 H 0.7008 -0.0530 0.7363
C2 C 0.5859(3) 0.1590(3) 0.5153(2)
H2 H 0.5978 0.2108 0.4414
N1 N 0.7142(2) 0.0640(3) 0.57276(18)
Cd1 Cd 0.0000 1.0000 0.5000
O1 O -0.0466(2) 0.9609(2) 0.32915(16)
H3 H 0.0340 0.9046 0.2824
H4 H -0.1109 1.0417 0.2854
N2 N 0.0803(3) 0.7124(2) 0.57075(18)
N3 N 0.1806(2) 0.4354(2) 0.57640(18)
N4 N 0.4349(2) 0.1720(2) 0.57651(18)
C3 C 0.0448(4) 0.6397(3) 0.6782(2)
H5 H -0.0119 0.6988 0.7388
C4 C 0.1046(4) 0.4691(4) 0.6831(2)
H6 H 0.0960 0.3906 0.7458
C5 C 0.1632(3) 0.5856(3) 0.5125(2)
H7 H 0.2048 0.5979 0.4365
C6 C 0.2666(3) 0.2689(3) 0.5389(3)
H8 H 0.1963 0.2056 0.5680
H9 H 0.2798 0.2840 0.4576
C7 C 0.4690(3) 0.0792(4) 0.6801(2)
H10 H 0.3900 0.0637 0.7403
C1A C -0.6408(3) 1.9852(4) 0.3231(2)
H1A H -0.7008 2.0530 0.2637
C2A C -0.5859(3) 1.8410(3) 0.4847(2)
H2A H -0.5978 1.7892 0.5586
N1A N -0.7142(2) 1.9360(3) 0.42724(18)
O1A O 0.0466(2) 1.0391(2) 0.67085(16)
H3A H -0.0340 1.0954 0.7176
H4A H 0.1109 0.9583 0.7146
N2A N -0.0803(3) 1.2876(2) 0.42925(18)
N3A N -0.1806(2) 1.5646(2) 0.42360(18)
N4A N -0.4349(2) 1.8280(2) 0.42349(18)
C3A C -0.0448(4) 1.3603(3) 0.3218(2)
H5A H 0.0119 1.3012 0.2612
C4A C -0.1046(4) 1.5309(4) 0.3169(2)
H6A H -0.0960 1.6094 0.2542
C5A C -0.1632(3) 1.4144(3) 0.4875(2)
H7A H -0.2048 1.4021 0.5635
C6A C -0.2666(3) 1.7311(3) 0.4611(3)
H8A H -0.1963 1.7944 0.4320
H9A H -0.2798 1.7160 0.5424
C7A C -0.4690(3) 1.9208(4) 0.3199(2)
H10A H -0.3900 1.9363 0.2597
N1_2 N -0.2858(2) 1.0640(3) 0.57276(18)
N1A_2 N 0.2858(2) 0.9360(3) 0.42724(18)
Cd1_2 Cd -1.0000 2.0000 0.5000
Cd1_3 Cd 1.0000 0.0000 0.5000
S1 S 0.74831(17) 0.6336(2) -0.06131(10)
O2 O 0.4473(5) 0.4197(4) 0.2823(2)
O3 O 0.7069(5) 0.2362(4) 0.2226(3)
O4 O 0.2491(4) 0.7009(4) 0.2284(2)
O5 O 0.2211(4) 0.9233(4) 0.1010(3)
C8 C 0.5883(6) 0.3757(5) 0.2133(3)
C9 C 0.6070(4) 0.5070(4) 0.1145(2)
C10 C 0.7534(5) 0.4684(5) 0.0410(3)
H11 H 0.8464 0.3628 0.0461
C11 C 0.5487(5) 0.7596(5) -0.0082(3)
H12 H 0.4886 0.8718 -0.0394
C12 C 0.4856(4) 0.6788(4) 0.0854(2)
C13 C 0.3070(5) 0.7750(5) 0.1404(3)
O6 O 0.1149(4) 0.1454(4) 0.8986(2)
H13 H 0.0252 0.1835 0.8671
H14 H 0.1468 0.0799 0.9590
loop_
_geom_bond_atom_site_label_1
_geom_bond_atom_site_label_2
_geom_bond_site_symmetry_1
_geom_bond_site_symmetry_2
C1 H1 1_555 1_555
C2 H2 1_555 1_555
N1 C1 1_555 1_555
Cd1 O1 1_555 1_555
O1 H3 1_555 1_555
H4 O1 1_555 1_555
N2 Cd1 1_555 1_555
N3 C4 1_555 1_555
N4 C2 1_555 1_555
C3 N2 1_555 1_555
H5 C3 1_555 1_555
C4 C3 1_555 1_555
H6 C4 1_555 1_555
C5 N2 1_555 1_555
H7 C5 1_555 1_555
C6 N3 1_555 1_555
H8 C6 1_555 1_555
H9 C6 1_555 1_555
C7 C1 1_555 1_555
H10 C7 1_555 1_555
S1 C10 1_555 1_555
O2 C8 1_555 1_555
O3 C8 1_555 1_555
O4 C13 1_555 1_555
O5 C13 1_555 1_555
C8 C9 1_555 1_555
C9 C10 1_555 1_555
C10 H11 1_555 1_555
C11 S1 1_555 1_555
H12 C11 1_555 1_555
C12 C9 1_555 1_555
C13 C12 1_555 1_555
O6 H13 1_555 1_555
H14 O6 1_555 1_555
C1A H1A 1_555 1_555
C2A H2A 1_555 1_555
N1A C1A 1_555 1_555
O1A Cd1 1_555 1_555
H3A O1A 1_555 1_555
H4A O1A 1_555 1_555
N2A Cd1 1_555 1_555
N3A C4A 1_555 1_555
N4A C2A 1_555 1_555
C3A N2A 1_555 1_555
H5A C3A 1_555 1_555
C4A C3A 1_555 1_555
H6A C4A 1_555 1_555
C5A N2A 1_555 1_555
H7A C5A 1_555 1_555
C6A N3A 1_555 1_555
H8A C6A 1_555 1_555
H9A C6A 1_555 1_555
C7A C1A 1_555 1_555
H10A C7A 1_555 1_555
N1_2 Cd1 1_555 1_555
N1A_2 Cd1 1_555 1_555
Cd1_2 N1A 1_555 1_555
Cd1_3 N1 1_555 1_555
C2 N1 1_555 1_555
N3 C5 1_555 1_555
N4 C6 1_555 1_555
N4 C7 1_555 1_555
C11 C12 1_555 1_555
C2A N1A 1_555 1_555
N3A C5A 1_555 1_555
N4A C6A 1_555 1_555
N4A C7A 1_555 1_555

#END
