
#######################################################################
#
#                 Cambridge Crystallographic Data Centre
#                                CCDC 
#
#######################################################################
#
# If this CIF has been generated from an entry in the Cambridge 
# Structural Database, then it will include bibliographic, chemical, 
# crystal, experimental, refinement or atomic coordinate data resulting 
# from the CCDC's data processing and validation procedures.
#
#######################################################################

data_YITVOO
_symmetry_cell_setting           monoclinic
_symmetry_space_group_name_H-M   'C 2/c'
_symmetry_Int_Tables_number      15
_space_group_name_Hall           '-C 2yn'
loop_
_symmetry_equiv_pos_site_id
_symmetry_equiv_pos_as_xyz
1 x,y,z
2 -x,y,1/2-z
3 1/2+x,1/2+y,z
4 1/2-x,1/2+y,1/2-z
5 -x,-y,-z
6 x,-y,1/2+z
7 1/2-x,1/2-y,-z
8 1/2+x,1/2-y,1/2+z
_cell_length_a                   15.539(3)
_cell_length_b                   8.9486(15)
_cell_length_c                   13.056(2)
_cell_angle_alpha                90
_cell_angle_beta                 103.428(2)
_cell_angle_gamma                90
_cell_volume                     1765.84
loop_
_atom_site_label
_atom_site_type_symbol
_atom_site_fract_x
_atom_site_fract_y
_atom_site_fract_z
Cd1 Cd 0.5000 0.0000 0.0000
S1 S 0.5000 0.65251(8) -0.2500
O1 O 0.54864(9) 0.13440(15) -0.13520(10)
O2 O 0.45582(9) 0.24871(15) -0.05552(11)
N1 N 0.71376(11) 0.12040(19) 0.27058(13)
N2 N 0.61787(11) 0.08987(19) 0.11866(13)
C1 C 0.50003(12) 0.2445(2) -0.12485(14)
C2 C 0.49660(12) 0.3771(2) -0.19590(15)
C3 C 0.49355(16) 0.5193(2) -0.15789(19)
H1 H 0.4886 0.5410 -0.0898
C4 C 0.63721(13) 0.0574(2) 0.22023(15)
H2 H 0.6021 -0.0018 0.2527
C5 C 0.68587(15) 0.1803(3) 0.10368(18)
H3 H 0.6902 0.2218 0.0398
C6 C 0.74529(15) 0.1991(3) 0.19668(18)
H4 H 0.7973 0.2545 0.2082
C7 C 0.75140(14) 0.1152(3) 0.38496(16)
H5 H 0.8151 0.1040 0.3977
H6 H 0.7282 0.0284 0.4141
C8 C 0.73048(15) 0.2540(3) 0.44084(16)
H7 H 0.6668 0.2657 0.4280
H8 H 0.7540 0.3409 0.4123
O1A O 0.45136(9) 0.13440(15) -0.36480(10)
O2A O 0.54418(9) 0.24871(15) -0.44448(11)
C1A C 0.49997(12) 0.2445(2) -0.37515(14)
C2A C 0.50340(12) 0.3771(2) -0.30410(15)
C3A C 0.50645(16) 0.5193(2) -0.34211(19)
H1A H 0.5114 0.5410 -0.4102
N1F N 0.78624(11) 0.37960(19) 0.72942(13)
N2F N 0.88213(11) 0.41013(19) 0.88134(13)
C4F C 0.86279(13) 0.4426(2) 0.77977(15)
H2F H 0.8979 0.5018 0.7473
C5F C 0.81413(15) 0.3197(3) 0.89632(18)
H3F H 0.8098 0.2782 0.9602
C6F C 0.75471(15) 0.3009(3) 0.80332(18)
H4F H 0.7027 0.2455 0.7918
C7F C 0.74860(14) 0.3848(3) 0.61504(16)
H5F H 0.6849 0.3960 0.6023
H6F H 0.7718 0.4716 0.5859
C8F C 0.76952(15) 0.2460(3) 0.55916(16)
H7F H 0.8332 0.2343 0.5720
H8F H 0.7460 0.1591 0.5877
Cd1A Cd 0.5000 0.0000 -0.5000
Cd1B Cd 1.0000 0.5000 1.0000
O1D O 0.45136(9) -0.13440(15) 0.13520(10)
O2D O 0.54418(9) -0.24871(15) 0.05552(11)
N2D N 0.38213(11) -0.08987(19) -0.11866(13)
loop_
_geom_bond_atom_site_label_1
_geom_bond_atom_site_label_2
_geom_bond_site_symmetry_1
_geom_bond_site_symmetry_2
Cd1 O1 1_555 1_555
S1 C3 1_555 1_555
O1 C1 1_555 1_555
O2 Cd1 1_555 1_555
N1 C4 1_555 1_555
N2 Cd1 1_555 1_555
C1 O2 1_555 1_555
C2 C1 1_555 1_555
C3 C2 1_555 1_555
H1 C3 1_555 1_555
C4 N2 1_555 1_555
H2 C4 1_555 1_555
C5 N2 1_555 1_555
H3 C5 1_555 1_555
C6 N1 1_555 1_555
H4 C6 1_555 1_555
C7 N1 1_555 1_555
H5 C7 1_555 1_555
H6 C7 1_555 1_555
C8 C7 1_555 1_555
H7 C8 1_555 1_555
H8 C8 1_555 1_555
O1A C1A 1_555 1_555
O2A C1A 1_555 1_555
C1A C2A 1_555 1_555
C2A C2 1_555 1_555
C3A S1 1_555 1_555
H1A C3A 1_555 1_555
N1F C4F 1_555 1_555
N2F C4F 1_555 1_555
C4F H2F 1_555 1_555
C5F N2F 1_555 1_555
H3F C5F 1_555 1_555
C6F N1F 1_555 1_555
H4F C6F 1_555 1_555
C7F N1F 1_555 1_555
H5F C7F 1_555 1_555
H6F C7F 1_555 1_555
C8F C8 1_555 1_555
H7F C8F 1_555 1_555
H8F C8F 1_555 1_555
Cd1A O1A 1_555 1_555
Cd1B N2F 1_555 1_555
O1D Cd1 1_555 1_555
O2D Cd1 1_555 1_555
N2D Cd1 1_555 1_555
C5 C6 1_555 1_555
O2A Cd1A 1_555 1_555
C2A C3A 1_555 1_555
C5F C6F 1_555 1_555
C7F C8F 1_555 1_555

#END
