
#######################################################################
#
#                 Cambridge Crystallographic Data Centre
#                                CCDC 
#
#######################################################################
#
# If this CIF has been generated from an entry in the Cambridge 
# Structural Database, then it will include bibliographic, chemical, 
# crystal, experimental, refinement or atomic coordinate data resulting 
# from the CCDC's data processing and validation procedures.
#
#######################################################################

data_YITVUU
_symmetry_cell_setting           monoclinic
_symmetry_space_group_name_H-M   'C 2/c'
_symmetry_Int_Tables_number      15
_space_group_name_Hall           '-C 2yn'
loop_
_symmetry_equiv_pos_site_id
_symmetry_equiv_pos_as_xyz
1 x,y,z
2 -x,y,1/2-z
3 1/2+x,1/2+y,z
4 1/2-x,1/2+y,1/2-z
5 -x,-y,-z
6 x,-y,1/2+z
7 1/2-x,1/2-y,-z
8 1/2+x,1/2-y,1/2+z
_cell_length_a                   16.714(6)
_cell_length_b                   16.289(6)
_cell_length_c                   13.976(5)
_cell_angle_alpha                90
_cell_angle_beta                 95.587(3)
_cell_angle_gamma                90
_cell_volume                     3786.95
loop_
_atom_site_label
_atom_site_type_symbol
_atom_site_fract_x
_atom_site_fract_y
_atom_site_fract_z
Cd1 Cd 0.41990(3) 0.24462(3) 0.45975(3)
S1 S 0.23997(16) 0.16554(19) 0.12815(18)
O1 O 0.2948(3) 0.2233(4) 0.3967(4)
O2 O 0.3736(3) 0.1958(3) 0.2827(3)
O3 O 0.1148(3) 0.2914(4) 0.3783(4)
O4 O 0.1143(3) 0.1610(4) 0.4187(4)
N1 N 0.4941(3) 0.3435(3) 0.3988(4)
N2 N 0.5908(3) 0.4072(4) 0.3327(4)
N3 N 0.9129(3) 0.4483(4) 0.4381(5)
N4 N 0.9892(3) 0.3556(4) 0.5166(4)
C1 C 0.2316(4) 0.1904(5) 0.2446(6)
C2 C 0.1526(4) 0.1943(5) 0.2628(5)
C3 C 0.0928(5) 0.1734(5) 0.1773(5)
H1 H 0.0370 0.1715 0.1745
C4 C 0.1420(5) 0.1577(6) 0.1039(6)
H2 H 0.1198 0.1432 0.0426
C5 C 0.1268(4) 0.2174(5) 0.3607(5)
C6 C 0.3054(4) 0.2040(4) 0.3113(4)
C7 C 0.4861(4) 0.4266(4) 0.4121(5)
H3 H 0.4461 0.4515 0.4439
C8 C 0.5455(4) 0.4666(4) 0.3717(5)
H4 H 0.5540 0.5230 0.3706
C9 C 0.5576(4) 0.3345(4) 0.3499(5)
H5 H 0.5766 0.2842 0.3301
C10 C 0.6628(4) 0.4209(5) 0.2824(5)
H6 H 0.6520 0.4642 0.2353
H7 H 0.6749 0.3712 0.2483
C11 C 0.7351(4) 0.4443(5) 0.3509(5)
H8 H 0.7465 0.4008 0.3976
H9 H 0.7230 0.4938 0.3854
C12 C 0.8091(4) 0.4591(5) 0.2967(6)
H10 H 0.8276 0.4069 0.2738
H11 H 0.7938 0.4932 0.2410
C13 C 0.8779(4) 0.5003(5) 0.3581(6)
H12 H 0.9197 0.5146 0.3176
H13 H 0.8584 0.5508 0.3843
C14 C 0.8927(4) 0.4487(5) 0.5310(6)
H14 H 0.8542 0.4814 0.5560
C15 C 0.9404(4) 0.3918(4) 0.5789(6)
H15 H 0.9403 0.3791 0.6437
C16 C 0.9705(4) 0.3916(5) 0.4328(5)
H16 H 0.9944 0.3793 0.3772
Cd1F Cd 0.08010(3) 0.25538(3) 0.54025(3)
Cd1F_2 Cd 1.08010(3) 0.25538(3) 0.54025(3)
O3F O 0.3852(3) 0.2086(4) 0.6217(4)
O4F O 0.3857(3) 0.3390(4) 0.5813(4)
N4F N 0.5108(3) 0.1444(4) 0.4834(4)
O5 O 0.2486(5) 0.0902(4) 0.5554(5)
H17 H 0.2647 0.1341 0.5840
H18 H 0.2097 0.1131 0.5218
loop_
_geom_bond_atom_site_label_1
_geom_bond_atom_site_label_2
_geom_bond_site_symmetry_1
_geom_bond_site_symmetry_2
Cd1 O1 1_555 1_555
S1 C1 1_555 1_555
O1 C6 1_555 1_555
O2 Cd1 1_555 1_555
O3 C5 1_555 1_555
O4 C5 1_555 1_555
N1 Cd1 1_555 1_555
N2 C8 1_555 1_555
N3 C13 1_555 1_555
N4 C15 1_555 1_555
C1 C2 1_555 1_555
C2 C3 1_555 1_555
C3 H1 1_555 1_555
C4 S1 1_555 1_555
H2 C4 1_555 1_555
C5 C2 1_555 1_555
C6 O2 1_555 1_555
C7 N1 1_555 1_555
H3 C7 1_555 1_555
C8 C7 1_555 1_555
H4 C8 1_555 1_555
C9 N1 1_555 1_555
H5 C9 1_555 1_555
C10 N2 1_555 1_555
H6 C10 1_555 1_555
H7 C10 1_555 1_555
C11 C10 1_555 1_555
H8 C11 1_555 1_555
H9 C11 1_555 1_555
C12 C11 1_555 1_555
H10 C12 1_555 1_555
H11 C12 1_555 1_555
C13 C12 1_555 1_555
H12 C13 1_555 1_555
H13 C13 1_555 1_555
C14 N3 1_555 1_555
H14 C14 1_555 1_555
C15 C14 1_555 1_555
H15 C15 1_555 1_555
C16 N3 1_555 1_555
H16 C16 1_555 1_555
O5 H17 1_555 1_555
H18 O5 1_555 1_555
Cd1F O3 1_555 1_555
Cd1F_2 N4 1_555 1_555
O3F Cd1 1_555 1_555
O4F Cd1 1_555 1_555
N4F Cd1 1_555 1_555
O4 Cd1F 1_555 1_555
N2 C9 1_555 1_555
N4 C16 1_555 1_555
C1 C6 1_555 1_555
C3 C4 1_555 1_555

#END
