
#######################################################################
#
#                 Cambridge Crystallographic Data Centre
#                                CCDC 
#
#######################################################################
#
# If this CIF has been generated from an entry in the Cambridge 
# Structural Database, then it will include bibliographic, chemical, 
# crystal, experimental, refinement or atomic coordinate data resulting 
# from the CCDC's data processing and validation procedures.
#
#######################################################################

data_YITVII
_symmetry_cell_setting           monoclinic
_symmetry_space_group_name_H-M   'C 2/c'
_symmetry_Int_Tables_number      15
_space_group_name_Hall           '-C 2yn'
loop_
_symmetry_equiv_pos_site_id
_symmetry_equiv_pos_as_xyz
1 x,y,z
2 -x,y,1/2-z
3 1/2+x,1/2+y,z
4 1/2-x,1/2+y,1/2-z
5 -x,-y,-z
6 x,-y,1/2+z
7 1/2-x,1/2-y,-z
8 1/2+x,1/2-y,1/2+z
_cell_length_a                   21.534(6)
_cell_length_b                   8.764(3)
_cell_length_c                   16.832(5)
_cell_angle_alpha                90
_cell_angle_beta                 106.950(4)
_cell_angle_gamma                90
_cell_volume                     3038.61
loop_
_atom_site_label
_atom_site_type_symbol
_atom_site_fract_x
_atom_site_fract_y
_atom_site_fract_z
Cd1 Cd 0.2500 -0.2500 0.5000
S1 S 0.40072(11) 0.1710(3) 0.54877(17)
O1 O 0.35211(18) -0.1296(5) 0.5399(3)
O2 O 0.4437(3) -0.2520(4) 0.6015(4)
O3 O 0.5554(2) -0.1861(8) 0.6819(4)
H1 H 0.5189 -0.2313 0.6658
O4 O 0.6177(2) 0.0167(7) 0.7134(3)
N1 N 0.2240(2) -0.0667(5) 0.3945(3)
N2 N 0.2339(2) 0.1318(5) 0.3214(3)
N3 N 0.2872(2) 0.3796(5) 0.3421(3)
N4 N 0.2848(2) 0.5787(5) 0.4196(3)
C1 C 0.4118(3) -0.1330(6) 0.5776(4)
C2 C 0.4463(2) 0.0158(6) 0.5928(3)
C3 C 0.5096(3) 0.0588(7) 0.6325(4)
C4 C 0.5643(3) -0.0375(10) 0.6785(5)
C5 C 0.5241(3) 0.2205(6) 0.6309(4)
H2 H 0.5634 0.2697 0.6543
C6 C 0.4635(4) 0.2865(9) 0.5849(6)
H3 H 0.4594 0.3911 0.5756
C7 C 0.2651(3) 0.0220(6) 0.3744(3)
H4 H 0.3100 0.0116 0.3938
C8 C 0.1700(3) 0.1113(7) 0.3093(4)
H5 H 0.1364 0.1709 0.2768
C9 C 0.1645(3) -0.0129(7) 0.3534(4)
H6 H 0.1255 -0.0557 0.3554
C10 C 0.2654(5) 0.2509(5) 0.2845(4)
H7 H 0.3024 0.2073 0.2708
H8 H 0.2350 0.2875 0.2335
C11 C 0.2488(3) 0.4766(6) 0.3682(4)
H9 H 0.2037 0.4726 0.3525
C12 C 0.3474(3) 0.5424(6) 0.4249(4)
H10 H 0.3836 0.5955 0.4564
C13 C 0.3495(3) 0.4198(7) 0.3787(4)
H11 H 0.3865 0.3718 0.3728
S1F S 0.09928(11) -0.6710(3) 0.45123(17)
O1F O 0.14789(18) -0.3704(5) 0.4601(3)
O2F O 0.0563(3) -0.2480(4) 0.3985(4)
O3F O -0.0554(2) -0.3139(8) 0.3181(4)
H1F H -0.0189 -0.2687 0.3342
O4F O -0.1177(2) -0.5167(7) 0.2866(3)
N1F N 0.2760(2) -0.4333(5) 0.6055(3)
N2F N 0.2661(2) -0.6318(5) 0.6786(3)
N3F N 0.2128(2) -0.8796(5) 0.6579(3)
N4F N 0.2152(2) -1.0787(5) 0.5804(3)
C1F C 0.0882(3) -0.3670(6) 0.4224(4)
C2F C 0.0537(2) -0.5158(6) 0.4072(3)
C3F C -0.0096(3) -0.5588(7) 0.3675(4)
C4F C -0.0643(3) -0.4625(10) 0.3215(5)
C5F C -0.0241(3) -0.7205(6) 0.3691(4)
H2F H -0.0634 -0.7697 0.3457
C6F C 0.0365(4) -0.7865(9) 0.4151(6)
H3F H 0.0406 -0.8911 0.4244
C7F C 0.2349(3) -0.5220(6) 0.6256(3)
H4F H 0.1900 -0.5116 0.6062
C8F C 0.3300(3) -0.6113(7) 0.6907(4)
H5F H 0.3636 -0.6709 0.7232
C9F C 0.3355(3) -0.4871(7) 0.6466(4)
H6F H 0.3745 -0.4443 0.6446
C10F C 0.2346(5) -0.7509(5) 0.7155(4)
H7F H 0.1976 -0.7073 0.7292
H8F H 0.2650 -0.7875 0.7665
C11F C 0.2512(3) -0.9766(6) 0.6318(4)
H9F H 0.2963 -0.9726 0.6475
C12F C 0.1526(3) -1.0424(6) 0.5751(4)
H10F H 0.1164 -1.0955 0.5436
C13F C 0.1505(3) -0.9198(7) 0.6213(4)
H11F H 0.1135 -0.8718 0.6272
Cd1_2 Cd 0.2500 -1.2500 0.5000
Cd1_3 Cd 0.2500 0.7500 0.5000
N4_2 N 0.2848(2) -0.4213(5) 0.4196(3)
N4F_2 N 0.2152(2) -0.0787(5) 0.5804(3)
loop_
_geom_bond_atom_site_label_1
_geom_bond_atom_site_label_2
_geom_bond_site_symmetry_1
_geom_bond_site_symmetry_2
Cd1 O1 1_555 1_555
S1 C2 1_555 1_555
O1 C1 1_555 1_555
O2 C1 1_555 1_555
O3 H1 1_555 1_555
O4 C4 1_555 1_555
N1 Cd1 1_555 1_555
N2 C7 1_555 1_555
N3 C10 1_555 1_555
N4 C11 1_555 1_555
C1 C2 1_555 1_555
C2 C3 1_555 1_555
C3 C4 1_555 1_555
C4 O3 1_555 1_555
C5 C3 1_555 1_555
H2 C5 1_555 1_555
C6 S1 1_555 1_555
H3 C6 1_555 1_555
C7 N1 1_555 1_555
H4 C7 1_555 1_555
C8 N2 1_555 1_555
H5 C8 1_555 1_555
C9 N1 1_555 1_555
H6 C9 1_555 1_555
C10 N2 1_555 1_555
H7 C10 1_555 1_555
H8 C10 1_555 1_555
C11 N3 1_555 1_555
H9 C11 1_555 1_555
C12 N4 1_555 1_555
H10 C12 1_555 1_555
C13 N3 1_555 1_555
H11 C13 1_555 1_555
S1F C2F 1_555 1_555
O1F Cd1 1_555 1_555
O2F C1F 1_555 1_555
O3F H1F 1_555 1_555
O4F C4F 1_555 1_555
N1F Cd1 1_555 1_555
N2F C7F 1_555 1_555
N3F C10F 1_555 1_555
N4F C11F 1_555 1_555
C1F O1F 1_555 1_555
C2F C1F 1_555 1_555
C3F C2F 1_555 1_555
C4F O3F 1_555 1_555
C5F C3F 1_555 1_555
H2F C5F 1_555 1_555
C6F S1F 1_555 1_555
H3F C6F 1_555 1_555
C7F N1F 1_555 1_555
H4F C7F 1_555 1_555
C8F N2F 1_555 1_555
H5F C8F 1_555 1_555
C9F N1F 1_555 1_555
H6F C9F 1_555 1_555
C10F N2F 1_555 1_555
H7F C10F 1_555 1_555
H8F C10F 1_555 1_555
C11F N3F 1_555 1_555
H9F C11F 1_555 1_555
C12F N4F 1_555 1_555
H10F C12F 1_555 1_555
C13F N3F 1_555 1_555
H11F C13F 1_555 1_555
Cd1_2 N4F 1_555 1_555
Cd1_3 N4 1_555 1_555
N4_2 Cd1 1_555 1_555
N4F_2 Cd1 1_555 1_555
C5 C6 1_555 1_555
C8 C9 1_555 1_555
C12 C13 1_555 1_555
C3F C4F 1_555 1_555
C5F C6F 1_555 1_555
C8F C9F 1_555 1_555
C12F C13F 1_555 1_555

#END
