
#######################################################################
#
#                 Cambridge Crystallographic Data Centre
#                                CCDC 
#
#######################################################################
#
# If this CIF has been generated from an entry in the Cambridge 
# Structural Database, then it will include bibliographic, chemical, 
# crystal, experimental, refinement or atomic coordinate data resulting 
# from the CCDC's data processing and validation procedures.
#
#######################################################################

data_YITWEF
_symmetry_cell_setting           tetragonal
_symmetry_space_group_name_H-M   'I -4 2 d'
_symmetry_Int_Tables_number      122
_space_group_name_Hall           'I -4 2bw'
loop_
_symmetry_equiv_pos_site_id
_symmetry_equiv_pos_as_xyz
1 x,y,z
2 -x,-y,z
3 y,-x,-z
4 -y,x,-z
5 1/2-x,y,3/4-z
6 1/2+x,-y,3/4-z
7 1/2-y,-x,3/4+z
8 1/2+y,x,3/4+z
9 1/2+x,1/2+y,1/2+z
10 1/2-x,1/2-y,1/2+z
11 1/2+y,1/2-x,1/2-z
12 1/2-y,1/2+x,1/2-z
13 -x,1/2+y,1/4-z
14 x,1/2-y,1/4-z
15 -y,1/2-x,1/4+z
16 y,1/2+x,1/4+z
_cell_length_a                   9.4643(12)
_cell_length_b                   9.4643(12)
_cell_length_c                   42.890(11)
_cell_angle_alpha                90
_cell_angle_beta                 90
_cell_angle_gamma                90
_cell_volume                     3841.78
loop_
_atom_site_label
_atom_site_type_symbol
_atom_site_fract_x
_atom_site_fract_y
_atom_site_fract_z
O3 O 0.5963(9) 0.8405(9) 0.73418(17)
H6 H 0.6150 0.9165 0.7439
H7 H 0.5770 0.8434 0.7148
Cd1 Cd 0.0000 1.0000 0.679484(10)
N1 N 0.0000 1.0000 0.73604(12)
N2 N -0.1235(5) 0.7723(5) 0.79999(11)
C1 C -0.1650(7) 0.6010(7) 0.83361(14)
O1 O 0.1306(5) 1.0998(5) 0.63907(10)
O2 O 0.2347(6) 1.1333(7) 0.68394(11)
C2 C 0.5917(11) 1.2500 0.6250
H1 H 0.6900 1.2500 0.6250
C3 C 0.3586(7) 1.2094(7) 0.63853(14)
C4 C 0.2318(6) 1.1453(6) 0.65505(14)
C5 C -0.0559(6) 0.8920(6) 0.75203(15)
H2 H -0.0939 0.8162 0.7411
C6 C -0.0590(6) 0.8898(6) 0.78416(13)
C7 C 0.0000 1.0000 0.80114(15)
H3 H 0.0000 1.0000 0.8228
C8 C -0.0656(7) 0.6977(7) 0.82466(15)
H4 H 0.0234 0.7107 0.8334
N3 N -0.2844(5) 0.6178(5) 0.81481(11)
C9 C -0.2550(7) 0.7203(7) 0.79543(15)
H5 H -0.3171 0.7535 0.7803
S1 S 0.5232(4) 1.1815(8) 0.65061(13)
N2A N 0.1235(5) 1.2277(5) 0.79999(11)
C1A C 0.1650(7) 1.3990(7) 0.83361(14)
C5A C 0.0559(6) 1.1080(6) 0.75203(15)
H2A H 0.0939 1.1838 0.7411
C6A C 0.0590(6) 1.1102(6) 0.78416(13)
C8A C 0.0656(7) 1.3023(7) 0.82466(15)
H4A H -0.0234 1.2893 0.8334
N3A N 0.2844(5) 1.3822(5) 0.81481(11)
C9A C 0.2550(7) 1.2797(7) 0.79543(15)
H5A H 0.3171 1.2465 0.7803
O1M O 0.1306(5) 1.4002(5) 0.61093(10)
O2M O 0.2347(6) 1.3667(7) 0.56606(11)
C3M C 0.3586(7) 1.2906(7) 0.61147(14)
C4M C 0.2318(6) 1.3547(6) 0.59495(14)
S1M S 0.5232(4) 1.3185(8) 0.59939(13)
Cd1J Cd -0.5000 0.5000 0.820516(10)
Cd1J_2 Cd 0.5000 1.5000 0.820516(10)
Cd1L Cd 0.0000 1.5000 0.570516(10)
O1A O -0.1306(5) 0.9002(5) 0.63907(10)
O2A O -0.2347(6) 0.8667(7) 0.68394(11)
N3J N 0.1178(5) 0.7844(5) 0.68519(11)
N3K N -0.1178(5) 1.2156(5) 0.68519(11)
H8? H 0.5379 1.1367 0.6651
C10? C 0.5066(11) 1.186(3) 0.6476(4)
loop_
_geom_bond_atom_site_label_1
_geom_bond_atom_site_label_2
_geom_bond_site_symmetry_1
_geom_bond_site_symmetry_2
Cd1 N1 1_555 1_555
N1 C5 1_555 1_555
N2 C6 1_555 1_555
C1 C8 1_555 1_555
O1 Cd1 1_555 1_555
O2 Cd1 1_555 1_555
C2 H1 1_555 1_555
C3 C4 1_555 1_555
C4 O1 1_555 1_555
C5 H2 1_555 1_555
C6 C5 1_555 1_555
C7 C6 1_555 1_555
H3 C7 1_555 1_555
C8 N2 1_555 1_555
H4 C8 1_555 1_555
N3 C1 1_555 1_555
C9 N2 1_555 1_555
H5 C9 1_555 1_555
S1 C2 1_555 1_555
O3 H6 1_555 1_555
H7 O3 1_555 1_555
N2A C6A 1_555 1_555
C1A C8A 1_555 1_555
C5A N1 1_555 1_555
H2A C5A 1_555 1_555
C6A C7 1_555 1_555
C8A N2A 1_555 1_555
H4A C8A 1_555 1_555
N3A C1A 1_555 1_555
C9A N2A 1_555 1_555
H5A C9A 1_555 1_555
O1M C4M 1_555 1_555
O2M C4M 1_555 1_555
C3M C3 1_555 1_555
C4M C3M 1_555 1_555
S1M C2 1_555 1_555
Cd1J N3 1_555 1_555
Cd1J_2 N3A 1_555 1_555
Cd1L O1M 1_555 1_555
O1A Cd1 1_555 1_555
O2A Cd1 1_555 1_555
N3J Cd1 1_555 1_555
N3K Cd1 1_555 1_555
O2 C4 1_555 1_555
C3 S1 1_555 1_555
N3 C9 1_555 1_555
C5A C6A 1_555 1_555
N3A C9A 1_555 1_555
O2M Cd1L 1_555 1_555
C3M S1M 1_555 1_555

#END
