
#######################################################################
#
#                 Cambridge Crystallographic Data Centre
#                                CCDC 
#
#######################################################################
#
# If this CIF has been generated from an entry in the Cambridge 
# Structural Database, then it will include bibliographic, chemical, 
# crystal, experimental, refinement or atomic coordinate data resulting 
# from the CCDC's data processing and validation procedures.
#
#######################################################################

data_YITZUY
_symmetry_cell_setting           triclinic
_symmetry_space_group_name_H-M   'P -1'
_symmetry_Int_Tables_number      2
_space_group_name_Hall           '-P 1'
loop_
_symmetry_equiv_pos_site_id
_symmetry_equiv_pos_as_xyz
1 x,y,z
2 -x,-y,-z
_cell_length_a                   9.2436(5)
_cell_length_b                   11.0384(5)
_cell_length_c                   22.7044(9)
_cell_angle_alpha                91.226(4)
_cell_angle_beta                 91.585(4)
_cell_angle_gamma                113.366(5)
_cell_volume                     2124.51
loop_
_atom_site_label
_atom_site_type_symbol
_atom_site_fract_x
_atom_site_fract_y
_atom_site_fract_z
Ni1 Ni 0.64983(6) 0.80520(5) 0.76005(2)
Ni2 Ni 0.0000 0.0000 0.5000
Ni3 Ni 0.5000 0.0000 1.0000
C1 C 0.5667(5) 0.5490(4) 0.62653(18)
C2 C 0.4161(5) 0.4503(4) 0.61682(18)
H1 H 0.3345 0.4482 0.6404
C3 C 0.3879(4) 0.3554(4) 0.57218(18)
C4 C 0.5095(5) 0.3584(4) 0.53684(19)
H2 H 0.4908 0.2952 0.5066
C5 C 0.6587(4) 0.4562(4) 0.54711(19)
C6 C 0.6871(5) 0.5515(4) 0.59189(18)
H3 H 0.7878 0.6171 0.5984
C7 C 0.5951(5) 0.6511(4) 0.67478(19)
C8 C 0.2246(5) 0.2457(4) 0.5635(2)
C9 C 0.7737(5) 0.3901(4) 0.4640(2)
H4 H 0.8569 0.4371 0.4377
H5 H 0.6735 0.3737 0.4438
C10 C 0.7072(5) 0.0652(4) 0.4948(3)
H6 H 0.6442 -0.0219 0.5027
C11 C 0.9059(5) 0.2355(4) 0.48091(19)
H7 H 1.0092 0.2954 0.4766
C12 C 0.4831(5) 0.5499(4) 0.88479(18)
C13 C 0.5309(4) 0.4465(4) 0.89029(18)
H8 H 0.6111 0.4426 0.8674
C14 C 0.4587(4) 0.3483(4) 0.93010(18)
C15 C 0.3382(4) 0.3539(4) 0.96363(18)
H9 H 0.2915 0.2898 0.9910
C16 C 0.2880(4) 0.4545(4) 0.95626(19)
C17 C 0.3598(5) 0.5530(4) 0.91706(19)
H10 H 0.3252 0.6208 0.9124
C18 C 0.5599(5) 0.6565(4) 0.84253(19)
C19 C 0.5037(5) 0.2320(4) 0.9344(2)
C20 C 0.1019(5) 0.3895(4) 1.0347(2)
H11 H 0.0625 0.4375 1.0617
H12 H 0.1854 0.3733 1.0553
C21 C -0.1413(6) 0.0638(5) 1.0008(3)
H13 H -0.1613 -0.0248 0.9938
C22 C -0.1779(5) 0.2341(4) 1.0130(2)
H14 H -0.2238 0.2950 1.0173
C23 C 0.9180(6) 1.0681(5) 0.7829(2)
H15 H 0.8779 1.1064 0.7541
C24 C 1.0725(9) 1.0451(7) 0.8504(3)
H16 H 1.1571 1.0599 0.8768
C25 C 0.9449(10) 0.9316(7) 0.8401(3)
H17 H 0.9254 0.8545 0.8602
C26 C 1.1613(6) 1.2706(5) 0.8075(3)
H18 H 1.2309 1.2987 0.8424
H19 H 1.1017 1.3257 0.8056
C27 C 1.2595(6) 1.2932(6) 0.7545(3)
H20 H 1.3246 1.3869 0.7534
H21 H 1.1894 1.2696 0.7197
C28 C 1.3652(9) 1.2195(9) 0.7507(3)
H22 H 1.4539 1.2674 0.7776
C29 C 1.3031(13) 1.1056(10) 0.7171(5)
H23 H 1.2573 1.1205 0.6804
H24 H 1.2211 1.0381 0.7379
C30 C 1.4770(9) 0.9817(7) 0.7418(3)
H25 H 1.4354 0.9649 0.7790
C31 C 1.6035(11) 0.9804(7) 0.6663(3)
H26 H 1.6686 0.9621 0.6402
C32 C 1.5255(13) 1.0577(9) 0.6554(4)
H27 H 1.5270 1.1023 0.6210
N1 N 0.7815(4) 0.2649(3) 0.47739(16)
N2 N 0.6501(4) 0.1545(4) 0.4861(2)
N3 N 0.8643(4) 0.1098(3) 0.49131(16)
N4 N -0.0243(4) 0.2645(3) 1.01778(17)
N5 N 0.0012(5) 0.1535(4) 1.0107(3)
N6 N -0.2568(4) 0.1084(3) 1.00149(17)
N7 N 0.8484(5) 0.9444(4) 0.79678(18)
N8 N 1.0511(5) 1.1334(4) 0.81379(19)
N9 N 1.4444(11) 1.0586(7) 0.7037(3)
N10 N 1.5732(5) 0.9327(4) 0.72144(18)
O1 O 0.7298(3) 0.7405(3) 0.68528(14)
O2 O 0.4817(3) 0.6447(3) 0.70678(14)
O3 O 0.1253(4) 0.2394(3) 0.60088(15)
O4 O 0.2026(3) 0.1681(3) 0.51944(14)
O5 O 0.7894(3) 0.4698(3) 0.51513(14)
O6 O 0.5128(4) 0.7486(3) 0.83612(13)
O7 O 0.6693(4) 0.6526(3) 0.81213(14)
O8 O 0.5750(5) 0.2082(3) 0.89314(16)
O9 O 0.4625(3) 0.1651(3) 0.97954(14)
O10 O 0.1647(3) 0.4681(3) 0.98595(15)
O11 O -0.0587(4) -0.0182(3) 0.58858(14)
H28 H -0.024(6) 0.060(2) 0.603(2)
H29 H -0.016(5) -0.067(4) 0.603(2)
O12 O 0.5032(5) 0.0474(3) 1.08977(15)
H30 H 0.471(6) 0.106(4) 1.101(2)
H31 H 0.462(6) -0.026(3) 1.106(2)
Ni1A Ni -0.64983(6) -0.80520(5) 0.23995(2)
C1A C -0.5667(5) -0.5490(4) 0.37347(18)
C2A C -0.4161(5) -0.4503(4) 0.38318(18)
H1A H -0.3345 -0.4482 0.3596
C3A C -0.3879(4) -0.3554(4) 0.42782(18)
C4A C -0.5095(5) -0.3584(4) 0.46316(19)
H2A H -0.4908 -0.2952 0.4934
C5A C -0.6587(4) -0.4562(4) 0.45289(19)
C6A C -0.6871(5) -0.5515(4) 0.40811(18)
H3A H -0.7878 -0.6171 0.4016
C7A C -0.5951(5) -0.6511(4) 0.32522(19)
C8A C -0.2246(5) -0.2457(4) 0.4365(2)
C9A C -0.7737(5) -0.3901(4) 0.5360(2)
H4A H -0.8569 -0.4371 0.5623
H5A H -0.6735 -0.3737 0.5562
C10A C -0.7072(5) -0.0652(4) 0.5052(3)
H6A H -0.6442 0.0219 0.4973
C11A C -0.9059(5) -0.2355(4) 0.51909(19)
H7A H -1.0092 -0.2954 0.5234
C12A C -0.4831(5) -0.5499(4) 0.11521(18)
C13A C -0.5309(4) -0.4465(4) 0.10971(18)
H8A H -0.6111 -0.4426 0.1326
C14A C -0.4587(4) -0.3483(4) 0.06990(18)
C15A C -0.3382(4) -0.3539(4) 0.03637(18)
H9A H -0.2915 -0.2898 0.0090
C16A C -0.2880(4) -0.4545(4) 0.04374(19)
C17A C -0.3598(5) -0.5530(4) 0.08294(19)
H10A H -0.3252 -0.6208 0.0876
C18A C -0.5599(5) -0.6565(4) 0.15747(19)
C19A C -0.5037(5) -0.2320(4) 0.0656(2)
C20A C -0.1019(5) -0.3895(4) -0.0347(2)
H11A H -0.0625 -0.4375 -0.0617
H12A H -0.1854 -0.3733 -0.0553
C21A C 0.1413(6) -0.0638(5) -0.0008(3)
H13A H 0.1613 0.0248 0.0062
C22A C 0.1779(5) -0.2341(4) -0.0130(2)
H14A H 0.2238 -0.2950 -0.0173
C23A C -0.9180(6) -1.0681(5) 0.2171(2)
H15A H -0.8779 -1.1064 0.2459
C24A C -1.0725(9) -1.0451(7) 0.1496(3)
H16A H -1.1571 -1.0599 0.1232
C25A C -0.9449(10) -0.9316(7) 0.1599(3)
H17A H -0.9254 -0.8545 0.1398
C26A C -1.1613(6) -1.2706(5) 0.1925(3)
H18A H -1.2309 -1.2987 0.1576
H19A H -1.1017 -1.3257 0.1944
C27A C -1.2595(6) -1.2932(6) 0.2455(3)
H20A H -1.3246 -1.3869 0.2466
H21A H -1.1894 -1.2696 0.2803
C28A C -1.3652(9) -1.2195(9) 0.2493(3)
H22A H -1.4539 -1.2674 0.2224
C29A C -1.3031(13) -1.1056(10) 0.2829(5)
H23A H -1.2573 -1.1205 0.3196
H24A H -1.2211 -1.0381 0.2621
C30A C -1.4770(9) -0.9817(7) 0.2582(3)
H25A H -1.4354 -0.9649 0.2210
C31A C -1.6035(11) -0.9804(7) 0.3337(3)
H26A H -1.6686 -0.9621 0.3598
C32A C -1.5255(13) -1.0577(9) 0.3446(4)
H27A H -1.5270 -1.1023 0.3790
N1A N -0.7815(4) -0.2649(3) 0.52261(16)
N2A N -0.6501(4) -0.1545(4) 0.5139(2)
N3A N -0.8643(4) -0.1098(3) 0.50869(16)
N4A N 0.0243(4) -0.2645(3) -0.01778(17)
N5A N -0.0012(5) -0.1535(4) -0.0107(3)
N6A N 0.2568(4) -0.1084(3) -0.00149(17)
N7A N -0.8484(5) -0.9444(4) 0.20322(18)
N8A N -1.0511(5) -1.1334(4) 0.18621(19)
N9A N -1.4444(11) -1.0586(7) 0.2963(3)
N10A N -1.5732(5) -0.9327(4) 0.27856(18)
O1A O -0.7298(3) -0.7405(3) 0.31472(14)
O2A O -0.4817(3) -0.6447(3) 0.29322(14)
O3A O -0.1253(4) -0.2394(3) 0.39912(15)
O4A O -0.2026(3) -0.1681(3) 0.48056(14)
O5A O -0.7894(3) -0.4698(3) 0.48487(14)
O6A O -0.5128(4) -0.7486(3) 0.16388(13)
O7A O -0.6693(4) -0.6526(3) 0.18787(14)
O8A O -0.5750(5) -0.2082(3) 0.10686(16)
O9A O -0.4625(3) -0.1651(3) 0.02046(14)
O10A O -0.1647(3) -0.4681(3) 0.01405(15)
O11A O 0.0587(4) 0.0182(3) 0.41142(14)
H28A H 0.024(6) -0.060(2) 0.397(2)
H29A H 0.016(5) 0.067(4) 0.397(2)
O12A O 0.4968(5) -0.0474(3) 0.91023(15)
H30A H 0.529(6) -0.106(4) 0.899(2)
H31A H 0.538(6) 0.026(3) 0.894(2)
Ni1_2 Ni 1.64983(6) 0.80520(5) 0.76005(2)
Ni1A_2 Ni -1.64983(6) -0.80520(5) 0.23995(2)
Ni2_2 Ni -1.0000 0.0000 0.5000
Ni2_3 Ni 1.0000 0.0000 0.5000
Ni3_2 Ni -0.5000 0.0000 0.0000
Ni3_3 Ni -0.5000 0.0000 1.0000
Ni3_4 Ni 0.5000 0.0000 0.0000
N3_2 N -0.1357(4) 0.1098(3) 0.49131(16)
N3A_2 N 0.1357(4) -0.1098(3) 0.50869(16)
N6_2 N 0.7432(4) 0.1084(3) 1.00149(17)
N6A_2 N 0.2568(4) -0.1084(3) 0.99851(17)
N10_2 N 0.5732(5) 0.9327(4) 0.72144(18)
N10A_2 N -0.5732(5) -0.9327(4) 0.27856(18)
O9A_2 O 0.5375(3) -0.1651(3) 1.02046(14)
O13 O 1.0452(6) 0.8258(6) 0.6595(3)
H32 H 0.959(5) 0.802(9) 0.677(4)
H33 H 1.114(7) 0.803(10) 0.676(4)
O14 O 0.1797(7) 0.6483(7) 0.6932(5)
O15 O 0.8224(15) 1.3244(11) 0.8108(10)
O16 O -0.0080(9) 0.4073(8) 0.6445(4)
O17 O 0.195(2) 0.732(2) 0.8111(14)
O18 O -0.0597(12) 0.5849(10) 0.8180(6)
C33? C 1.429(3) 1.188(3) 0.7034(11)
H34? H 1.5336 1.2571 0.6994
H35? H 1.3662 1.1890 0.6687
H36? H 1.3075 1.1359 0.7687
loop_
_geom_bond_atom_site_label_1
_geom_bond_atom_site_label_2
_geom_bond_site_symmetry_1
_geom_bond_site_symmetry_2
Ni1 N7 1_555 1_555
Ni2 O4 1_555 1_555
Ni3 O9 1_555 1_555
C1 C2 1_555 1_555
C2 H1 1_555 1_555
C3 C2 1_555 1_555
C4 C3 1_555 1_555
H2 C4 1_555 1_555
C5 C4 1_555 1_555
C6 C1 1_555 1_555
H3 C6 1_555 1_555
C7 C1 1_555 1_555
C8 C3 1_555 1_555
C9 H4 1_555 1_555
H5 C9 1_555 1_555
C10 H6 1_555 1_555
C11 H7 1_555 1_555
C12 C13 1_555 1_555
C13 H8 1_555 1_555
C14 C13 1_555 1_555
C15 C14 1_555 1_555
H9 C15 1_555 1_555
C16 C15 1_555 1_555
C17 C12 1_555 1_555
H10 C17 1_555 1_555
C18 C12 1_555 1_555
C19 C14 1_555 1_555
C20 H11 1_555 1_555
H12 C20 1_555 1_555
C21 H13 1_555 1_555
C22 H14 1_555 1_555
C23 H15 1_555 1_555
C24 H16 1_555 1_555
C25 C24 1_555 1_555
H17 C25 1_555 1_555
C26 H18 1_555 1_555
H19 C26 1_555 1_555
C27 C26 1_555 1_555
H20 C27 1_555 1_555
H21 C27 1_555 1_555
C28 C27 1_555 1_555
H22 C28 1_555 1_555
C29 C28 1_555 1_555
H23 C29 1_555 1_555
H24 C29 1_555 1_555
C30 H25 1_555 1_555
C31 H26 1_555 1_555
C32 C31 1_555 1_555
H27 C32 1_555 1_555
N1 C9 1_555 1_555
N2 C10 1_555 1_555
N3 C10 1_555 1_555
N4 C20 1_555 1_555
N5 C21 1_555 1_555
N6 C21 1_555 1_555
N7 C23 1_555 1_555
N8 C23 1_555 1_555
N9 C29 1_555 1_555
N10 C30 1_555 1_555
O1 Ni1 1_555 1_555
O2 Ni1 1_555 1_555
O3 C8 1_555 1_555
O4 C8 1_555 1_555
O5 C5 1_555 1_555
O6 Ni1 1_555 1_555
O7 Ni1 1_555 1_555
O8 C19 1_555 1_555
O9 C19 1_555 1_555
O10 C16 1_555 1_555
O11 Ni2 1_555 1_555
H28 O11 1_555 1_555
H29 O11 1_555 1_555
O12 Ni3 1_555 1_555
H30 O12 1_555 1_555
H31 O12 1_555 1_555
O13 H32 1_555 1_555
H33 O13 1_555 1_555
Ni1A N7A 1_555 1_555
C1A C2A 1_555 1_555
C2A H1A 1_555 1_555
C3A C2A 1_555 1_555
C4A C3A 1_555 1_555
H2A C4A 1_555 1_555
C5A C4A 1_555 1_555
C6A C1A 1_555 1_555
H3A C6A 1_555 1_555
C7A C1A 1_555 1_555
C8A C3A 1_555 1_555
C9A H4A 1_555 1_555
H5A C9A 1_555 1_555
C10A H6A 1_555 1_555
C11A H7A 1_555 1_555
C12A C13A 1_555 1_555
C13A H8A 1_555 1_555
C14A C13A 1_555 1_555
C15A C14A 1_555 1_555
H9A C15A 1_555 1_555
C16A C15A 1_555 1_555
C17A C12A 1_555 1_555
H10A C17A 1_555 1_555
C18A C12A 1_555 1_555
C19A C14A 1_555 1_555
C20A H11A 1_555 1_555
H12A C20A 1_555 1_555
C21A H13A 1_555 1_555
C22A H14A 1_555 1_555
C23A H15A 1_555 1_555
C24A H16A 1_555 1_555
C25A C24A 1_555 1_555
H17A C25A 1_555 1_555
C26A H18A 1_555 1_555
H19A C26A 1_555 1_555
C27A C26A 1_555 1_555
H20A C27A 1_555 1_555
H21A C27A 1_555 1_555
C28A C27A 1_555 1_555
H22A C28A 1_555 1_555
C29A C28A 1_555 1_555
H23A C29A 1_555 1_555
H24A C29A 1_555 1_555
C30A H25A 1_555 1_555
C31A H26A 1_555 1_555
C32A C31A 1_555 1_555
H27A C32A 1_555 1_555
N1A C9A 1_555 1_555
N2A C10A 1_555 1_555
N3A C10A 1_555 1_555
N4A C20A 1_555 1_555
N5A C21A 1_555 1_555
N6A C21A 1_555 1_555
N7A C23A 1_555 1_555
N8A C23A 1_555 1_555
N9A C29A 1_555 1_555
N10A C30A 1_555 1_555
O1A Ni1A 1_555 1_555
O2A Ni1A 1_555 1_555
O3A C8A 1_555 1_555
O4A Ni2 1_555 1_555
O5A C5A 1_555 1_555
O6A Ni1A 1_555 1_555
O7A Ni1A 1_555 1_555
O8A C19A 1_555 1_555
O9A C19A 1_555 1_555
O10A C16A 1_555 1_555
O11A Ni2 1_555 1_555
H28A O11A 1_555 1_555
H29A O11A 1_555 1_555
O12A Ni3 1_555 1_555
H30A O12A 1_555 1_555
H31A O12A 1_555 1_555
Ni1_2 N10 1_555 1_555
Ni1A_2 N10A 1_555 1_555
Ni2_2 N3A 1_555 1_555
Ni2_3 N3 1_555 1_555
Ni3_2 O9A 1_555 1_555
Ni3_3 N6 1_555 1_555
Ni3_4 N6A 1_555 1_555
N3_2 Ni2 1_555 1_555
N3A_2 Ni2 1_555 1_555
N6_2 Ni3 1_555 1_555
N6A_2 Ni3 1_555 1_555
N10_2 Ni1 1_555 1_555
N10A_2 Ni1A 1_555 1_555
O9A_2 Ni3 1_555 1_555
C5 C6 1_555 1_555
C7 O1 1_555 1_555
C7 O2 1_555 1_555
C9 O5 1_555 1_555
C11 N1 1_555 1_555
C11 N3 1_555 1_555
C16 C17 1_555 1_555
C18 O6 1_555 1_555
C18 O7 1_555 1_555
C20 O10 1_555 1_555
C22 N4 1_555 1_555
C22 N6 1_555 1_555
C24 N8 1_555 1_555
C25 N7 1_555 1_555
C26 N8 1_555 1_555
C30 N9 1_555 1_555
C31 N10 1_555 1_555
C32 N9 1_555 1_555
N1 N2 1_555 1_555
N4 N5 1_555 1_555
C5A C6A 1_555 1_555
C7A O1A 1_555 1_555
C7A O2A 1_555 1_555
C8A O4A 1_555 1_555
C9A O5A 1_555 1_555
C11A N1A 1_555 1_555
C11A N3A 1_555 1_555
C16A C17A 1_555 1_555
C18A O6A 1_555 1_555
C18A O7A 1_555 1_555
C20A O10A 1_555 1_555
C22A N4A 1_555 1_555
C22A N6A 1_555 1_555
C24A N8A 1_555 1_555
C25A N7A 1_555 1_555
C26A N8A 1_555 1_555
C30A N9A 1_555 1_555
C31A N10A 1_555 1_555
C32A N9A 1_555 1_555
N1A N2A 1_555 1_555
N4A N5A 1_555 1_555

#END
