
#######################################################################
#
#                 Cambridge Crystallographic Data Centre
#                                CCDC 
#
#######################################################################
#
# If this CIF has been generated from an entry in the Cambridge 
# Structural Database, then it will include bibliographic, chemical, 
# crystal, experimental, refinement or atomic coordinate data resulting 
# from the CCDC's data processing and validation procedures.
#
#######################################################################

data_YITZOS
_symmetry_cell_setting           triclinic
_symmetry_space_group_name_H-M   'P -1'
_symmetry_Int_Tables_number      2
_space_group_name_Hall           '-P 1'
loop_
_symmetry_equiv_pos_site_id
_symmetry_equiv_pos_as_xyz
1 x,y,z
2 -x,-y,-z
_cell_length_a                   8.9623(13)
_cell_length_b                   10.1747(11)
_cell_length_c                   12.1422(10)
_cell_angle_alpha                100.966(9)
_cell_angle_beta                 110.157(11)
_cell_angle_gamma                103.494(11)
_cell_volume                     965.28
loop_
_atom_site_label
_atom_site_type_symbol
_atom_site_fract_x
_atom_site_fract_y
_atom_site_fract_z
Mn1 Mn 0.16203(4) 0.36217(3) 0.01972(3)
C1 C 0.3820(2) 0.06533(19) 0.10827(17)
C2 C 0.2789(2) -0.06948(19) 0.08628(17)
H1 H 0.1628 -0.0904 0.0533
C3 C 0.3489(2) -0.17397(18) 0.11350(17)
C4 C 0.5214(2) -0.14156(19) 0.16517(17)
H2 H 0.5686 -0.2122 0.1795
C5 C 0.6239(2) -0.0037(2) 0.19551(17)
C6 C 0.5559(2) 0.09970(19) 0.16543(18)
H3 H 0.6254 0.1914 0.1831
C7 C 0.3046(2) 0.1742(2) 0.07096(18)
C8 C 0.2374(2) -0.32066(19) 0.09051(17)
C9 C 0.8936(3) 0.1511(2) 0.34093(19)
H4 H 0.9849 0.1401 0.4063
H5 H 0.8269 0.1909 0.3771
C10 C 1.0436(3) 0.4356(2) 0.2464(2)
H6 H 1.0670 0.5300 0.2474
C11 C 1.0273(3) 0.2240(2) 0.2019(2)
H7 H 1.0342 0.1368 0.1680
C12 C 0.0871(3) 0.2500(2) -0.2667(2)
H8 H -0.0005 0.1731 -0.2753
C13 C 0.2934(3) 0.4350(2) -0.18595(19)
H9 H 0.3810 0.5153 -0.1303
C14 C 0.3374(3) 0.4585(3) -0.3757(2)
H10 H 0.3825 0.5602 -0.3378
H11 H 0.2551 0.4400 -0.4584
C15 C 0.4779(3) 0.4038(3) -0.3821(2)
H12 H 0.5422 0.4641 -0.4142
H13 H 0.5524 0.4126 -0.2992
C16 C 0.4250(4) 0.2533(3) -0.4590(2)
H14 H 0.3544 0.2440 -0.5431
H15 H 0.3589 0.1920 -0.4288
C17 C 0.5755(4) 0.2057(3) -0.4571(3)
H16 H 0.6381 0.2655 -0.4905
H17 H 0.6487 0.2213 -0.3722
C18 C 0.5340(4) 0.0526(3) -0.5273(3)
H18 H 0.4527 0.0342 -0.6103
H19 H 0.6352 0.0390 -0.5327
N1 N 0.9624(2) 0.24761(17) 0.28288(15)
N2 N 0.9717(3) 0.38551(19) 0.31369(18)
N3 N 1.0815(2) 0.34124(18) 0.17546(16)
N4 N 0.1902(2) 0.34660(17) -0.15709(15)
N5 N 0.1196(3) 0.2724(2) -0.36012(18)
N6 N 0.2543(2) 0.39305(19) -0.30547(16)
O1 O 0.39402(17) 0.30249(14) 0.11182(13)
O2 O 0.15144(17) 0.13519(14) 0.00094(13)
O3 O 0.09352(17) -0.33576(14) 0.08777(13)
O4 O 0.29839(17) -0.41943(13) 0.07976(13)
O5 O 0.79402(17) 0.01929(14) 0.25638(14)
C12A C 0.9129(3) -0.2500(2) -0.7333(2)
H8A H 1.0005 -0.1731 -0.7247
C13A C 0.7066(3) -0.4350(2) -0.81405(19)
H9A H 0.6190 -0.5153 -0.8697
C14A C 0.6626(3) -0.4585(3) -0.6243(2)
H10A H 0.6175 -0.5602 -0.6622
H11A H 0.7449 -0.4400 -0.5416
C15A C 0.5221(3) -0.4038(3) -0.6179(2)
H12A H 0.4578 -0.4641 -0.5858
H13A H 0.4476 -0.4126 -0.7008
C16A C 0.5750(4) -0.2533(3) -0.5410(2)
H14A H 0.6456 -0.2440 -0.4569
H15A H 0.6411 -0.1920 -0.5712
C17A C 0.4245(4) -0.2057(3) -0.5429(3)
H16A H 0.3619 -0.2655 -0.5095
H17A H 0.3513 -0.2213 -0.6278
C18A C 0.4660(4) -0.0526(3) -0.4727(3)
H18A H 0.5473 -0.0342 -0.3897
H19A H 0.3648 -0.0390 -0.4673
N4A N 0.8098(2) -0.34660(17) -0.84291(15)
N5A N 0.8804(3) -0.2724(2) -0.63988(18)
N6A N 0.7457(2) -0.39305(19) -0.69453(16)
Mn1A Mn -0.16203(4) -0.36217(3) -0.01972(3)
C1A C -0.3820(2) -0.06533(19) -0.10827(17)
C2A C -0.2789(2) 0.06948(19) -0.08628(17)
H1A H -0.1628 0.0904 -0.0533
C3A C -0.3489(2) 0.17397(18) -0.11350(17)
C4A C -0.5214(2) 0.14156(19) -0.16517(17)
H2A H -0.5686 0.2122 -0.1795
C5A C -0.6239(2) 0.0037(2) -0.19551(17)
C6A C -0.5559(2) -0.09970(19) -0.16543(18)
H3A H -0.6254 -0.1914 -0.1831
C7A C -0.3046(2) -0.1742(2) -0.07096(18)
C8A C -0.2374(2) 0.32066(19) -0.09051(17)
C9A C -0.8936(3) -0.1511(2) -0.34093(19)
H4A H -0.9849 -0.1401 -0.4063
H5A H -0.8269 -0.1909 -0.3771
C10A C -1.0436(3) -0.4356(2) -0.2464(2)
H6A H -1.0670 -0.5300 -0.2474
C11A C -1.0273(3) -0.2240(2) -0.2019(2)
H7A H -1.0342 -0.1368 -0.1680
N1A N -0.9624(2) -0.24761(17) -0.28288(15)
N2A N -0.9717(3) -0.38551(19) -0.31369(18)
N3A N -1.0815(2) -0.34124(18) -0.17546(16)
O1A O -0.39402(17) -0.30249(14) -0.11182(13)
O2A O -0.15144(17) -0.13519(14) -0.00094(13)
O3A O -0.09352(17) 0.33576(14) -0.08777(13)
O4A O -0.29839(17) 0.41943(13) -0.07976(13)
O5A O -0.79402(17) -0.01929(14) -0.25638(14)
Mn1_2 Mn 0.16203(4) -0.63783(3) 0.01972(3)
Mn1_3 Mn 1.16203(4) 0.36217(3) 0.01972(3)
Mn1A_2 Mn -1.16203(4) -0.36217(3) -0.01972(3)
Mn1A_3 Mn -0.16203(4) 0.63783(3) -0.01972(3)
Mn1A_4 Mn 0.83797(4) -0.36217(3) -1.01972(3)
N3_2 N 0.0815(2) 0.34124(18) 0.17546(16)
N3A_2 N -0.0815(2) -0.34124(18) -0.17546(16)
N4A_2 N -0.1902(2) -0.34660(17) 0.15709(15)
O4_2 O 0.29839(17) 0.58057(13) 0.07976(13)
O4A_2 O -0.29839(17) -0.58057(13) -0.07976(13)
loop_
_geom_bond_atom_site_label_1
_geom_bond_atom_site_label_2
_geom_bond_site_symmetry_1
_geom_bond_site_symmetry_2
Mn1 N4 1_555 1_555
C1 C2 1_555 1_555
C2 H1 1_555 1_555
C3 C2 1_555 1_555
C4 C3 1_555 1_555
H2 C4 1_555 1_555
C5 C4 1_555 1_555
C6 C1 1_555 1_555
H3 C6 1_555 1_555
C7 C1 1_555 1_555
C8 C3 1_555 1_555
C9 H4 1_555 1_555
H5 C9 1_555 1_555
C10 H6 1_555 1_555
C11 H7 1_555 1_555
C12 H8 1_555 1_555
C13 H9 1_555 1_555
C14 H10 1_555 1_555
H11 C14 1_555 1_555
C15 C14 1_555 1_555
H12 C15 1_555 1_555
H13 C15 1_555 1_555
C16 C15 1_555 1_555
H14 C16 1_555 1_555
H15 C16 1_555 1_555
C17 C16 1_555 1_555
H16 C17 1_555 1_555
H17 C17 1_555 1_555
C18 C17 1_555 1_555
H18 C18 1_555 1_555
H19 C18 1_555 1_555
N1 C9 1_555 1_555
N2 C10 1_555 1_555
N3 C10 1_555 1_555
N4 C12 1_555 1_555
N5 C12 1_555 1_555
N6 C13 1_555 1_555
O1 Mn1 1_555 1_555
O2 Mn1 1_555 1_555
O3 C8 1_555 1_555
O4 C8 1_555 1_555
O5 C5 1_555 1_555
C12A H8A 1_555 1_555
C13A H9A 1_555 1_555
C14A H10A 1_555 1_555
H11A C14A 1_555 1_555
C15A C14A 1_555 1_555
H12A C15A 1_555 1_555
H13A C15A 1_555 1_555
C16A C15A 1_555 1_555
H14A C16A 1_555 1_555
H15A C16A 1_555 1_555
C17A C16A 1_555 1_555
H16A C17A 1_555 1_555
H17A C17A 1_555 1_555
C18A C18 1_555 1_555
H18A C18A 1_555 1_555
H19A C18A 1_555 1_555
N4A C12A 1_555 1_555
N5A C12A 1_555 1_555
N6A C13A 1_555 1_555
Mn1A O3 1_555 1_555
C1A C2A 1_555 1_555
C2A H1A 1_555 1_555
C3A C2A 1_555 1_555
C4A C3A 1_555 1_555
H2A C4A 1_555 1_555
C5A C4A 1_555 1_555
C6A C1A 1_555 1_555
H3A C6A 1_555 1_555
C7A C1A 1_555 1_555
C8A C3A 1_555 1_555
C9A H4A 1_555 1_555
H5A C9A 1_555 1_555
C10A H6A 1_555 1_555
C11A H7A 1_555 1_555
N1A C9A 1_555 1_555
N2A C10A 1_555 1_555
N3A C10A 1_555 1_555
O1A Mn1A 1_555 1_555
O2A Mn1A 1_555 1_555
O3A Mn1 1_555 1_555
O4A C8A 1_555 1_555
O5A C5A 1_555 1_555
Mn1_2 O4 1_555 1_555
Mn1_3 N3 1_555 1_555
Mn1A_2 N3A 1_555 1_555
Mn1A_3 O4A 1_555 1_555
Mn1A_4 N4A 1_555 1_555
N3_2 Mn1 1_555 1_555
N3A_2 Mn1A 1_555 1_555
N4A_2 Mn1A 1_555 1_555
O4_2 Mn1 1_555 1_555
O4A_2 Mn1A 1_555 1_555
C5 C6 1_555 1_555
C7 O1 1_555 1_555
C7 O2 1_555 1_555
C9 O5 1_555 1_555
C11 N1 1_555 1_555
C11 N3 1_555 1_555
C13 N4 1_555 1_555
C14 N6 1_555 1_555
N1 N2 1_555 1_555
N5 N6 1_555 1_555
C13A N4A 1_555 1_555
C14A N6A 1_555 1_555
C17A C18A 1_555 1_555
N5A N6A 1_555 1_555
C5A C6A 1_555 1_555
C7A O1A 1_555 1_555
C7A O2A 1_555 1_555
C8A O3A 1_555 1_555
C9A O5A 1_555 1_555
C11A N1A 1_555 1_555
C11A N3A 1_555 1_555
N1A N2A 1_555 1_555

#END
