
#######################################################################
#
#                 Cambridge Crystallographic Data Centre
#                                CCDC 
#
#######################################################################
#
# If this CIF has been generated from an entry in the Cambridge 
# Structural Database, then it will include bibliographic, chemical, 
# crystal, experimental, refinement or atomic coordinate data resulting 
# from the CCDC's data processing and validation procedures.
#
#######################################################################

data_YIVBIQ
_symmetry_cell_setting           triclinic
_symmetry_space_group_name_H-M   'P -1'
_symmetry_Int_Tables_number      2
_space_group_name_Hall           '-P 1'
loop_
_symmetry_equiv_pos_site_id
_symmetry_equiv_pos_as_xyz
1 x,y,z
2 -x,-y,-z
_cell_length_a                   9.7409(14)
_cell_length_b                   10.3056(16)
_cell_length_c                   11.2358(18)
_cell_angle_alpha                116.914(16)
_cell_angle_beta                 96.328(13)
_cell_angle_gamma                109.365(14)
_cell_volume                     902.277
loop_
_atom_site_label
_atom_site_type_symbol
_atom_site_fract_x
_atom_site_fract_y
_atom_site_fract_z
Zn1 Zn 0.39928(5) 0.39226(5) 0.24603(5)
C1 C 0.3416(4) 0.8041(4) 0.3437(4)
C2 C 0.3653(4) 0.8997(4) 0.2845(4)
H1 H 0.4086 0.8773 0.2121
C3 C 0.3256(4) 1.0267(4) 0.3315(4)
C4 C 0.2602(4) 1.0603(4) 0.4389(4)
H2 H 0.2320 1.1450 0.4703
C5 C 0.2371(4) 0.9669(4) 0.4993(4)
C6 C 0.2763(4) 0.8388(4) 0.4519(4)
H3 H 0.2591 0.7760 0.4923
C7 C 0.3850(4) 0.6657(4) 0.2894(4)
C8 C 0.3525(4) 1.1276(5) 0.2664(4)
C9 C 0.1707(5) 1.1441(5) 0.6836(4)
H4 H 0.0779 1.1432 0.6411
H5 H 0.2578 1.2263 0.6855
C10 C 0.1156(5) 1.1691(5) 0.9907(5)
H6 H 0.0586 1.1449 1.0451
C11 C 0.3000(5) 1.2720(5) 0.9342(5)
H7 H 0.3963 1.3318 0.9357
C12 C 0.6787(5) 0.4055(5) 0.1585(5)
H8 H 0.6234 0.3556 0.0648
C13 C 0.8656(5) 0.5145(5) 0.3448(5)
H9 H 0.9620 0.5551 0.4059
C14 C 0.7372(5) 0.5118(5) 0.3794(5)
H10 H 0.7304 0.5508 0.4700
C15 C 0.9253(5) 0.4162(5) 0.1136(5)
H11 H 0.8775 0.3036 0.0392
H12 H 1.0227 0.4379 0.1689
C16 C 0.9526(5) 0.5199(5) 0.0496(4)
H13 H 1.0058 0.6326 0.1237
H14 H 0.8551 0.5027 -0.0016
N1 N 0.1786(4) 1.1778(4) 0.8228(4)
N2 N 0.0549(4) 1.1072(4) 0.8561(4)
N3 N 0.2655(4) 1.2699(4) 1.0449(3)
N4 N 0.6187(4) 0.4437(4) 0.2623(4)
N5 N 0.8270(4) 0.4465(4) 0.2036(4)
O1 O 0.3548(3) 0.5788(3) 0.3444(3)
O2 O 0.4448(3) 0.6402(3) 0.1946(3)
O3 O 0.4005(4) 1.0884(3) 0.1639(3)
O4 O 0.3272(3) 1.2528(3) 0.3225(3)
O5 O 0.1711(3) 0.9915(3) 0.6053(3)
C12A C 1.3213(5) 0.5945(5) -0.1585(5)
H8A H 1.3766 0.6444 -0.0648
C13A C 1.1344(5) 0.4855(5) -0.3448(5)
H9A H 1.0380 0.4449 -0.4059
C14A C 1.2628(5) 0.4882(5) -0.3794(5)
H10A H 1.2696 0.4492 -0.4700
C15A C 1.0747(5) 0.5838(5) -0.1136(5)
H11A H 1.1225 0.6964 -0.0392
H12A H 0.9773 0.5621 -0.1689
C16A C 1.0474(5) 0.4801(5) -0.0496(4)
H13A H 0.9942 0.3674 -0.1237
H14A H 1.1449 0.4973 0.0016
N4A N 1.3813(4) 0.5563(4) -0.2623(4)
N5A N 1.1730(4) 0.5535(4) -0.2036(4)
Zn1A Zn 1.60072(5) 0.60774(5) -0.24603(5)
C1A C 1.6584(4) 0.1959(4) -0.3437(4)
C2A C 1.6347(4) 0.1003(4) -0.2845(4)
H1A H 1.5914 0.1227 -0.2121
C3A C 1.6744(4) -0.0267(4) -0.3315(4)
C4A C 1.7398(4) -0.0603(4) -0.4389(4)
H2A H 1.7680 -0.1450 -0.4703
C5A C 1.7629(4) 0.0331(4) -0.4993(4)
C6A C 1.7237(4) 0.1612(4) -0.4519(4)
H3A H 1.7409 0.2240 -0.4923
C7A C 1.6150(4) 0.3343(4) -0.2894(4)
C8A C 1.6475(4) -0.1276(5) -0.2664(4)
C9A C 1.8293(5) -0.1441(5) -0.6836(4)
H4A H 1.9221 -0.1432 -0.6411
H5A H 1.7422 -0.2263 -0.6855
C10A C 1.8844(5) -0.1691(5) -0.9907(5)
H6A H 1.9414 -0.1449 -1.0451
C11A C 1.7000(5) -0.2720(5) -0.9342(5)
H7A H 1.6037 -0.3318 -0.9357
N1A N 1.8214(4) -0.1778(4) -0.8228(4)
N2A N 1.9451(4) -0.1072(4) -0.8561(4)
N3A N 1.7345(4) -0.2699(4) -1.0449(3)
O1A O 1.6452(3) 0.4212(3) -0.3444(3)
O2A O 1.5552(3) 0.3598(3) -0.1946(3)
O3A O 1.5995(4) -0.0884(3) -0.1639(3)
O4A O 1.6728(3) -0.2528(3) -0.3225(3)
O5A O 1.8289(3) 0.0085(3) -0.6053(3)
Zn1_2 Zn 0.39928(5) 1.39226(5) 0.24603(5)
Zn1_3 Zn 0.39928(5) 1.39226(5) 1.24603(5)
Zn1A_2 Zn 1.60072(5) -0.39226(5) -1.24603(5)
Zn1A_3 Zn 1.60072(5) -0.39226(5) -0.24603(5)
N3_2 N 0.2655(4) 0.2699(4) 0.0449(3)
N3A_2 N 1.7345(4) 0.7301(4) -0.0449(3)
O4_2 O 0.3272(3) 0.2528(3) 0.3225(3)
O4A_2 O 1.6728(3) 0.7472(3) -0.3225(3)
O6 O 0.3219(5) 0.9480(5) -0.1310(4)
H15 H 0.398(4) 0.930(7) -0.150(5)
H16 H 0.317(6) 0.968(8) -0.050(3)
H17 H 0.9032(15) 0.213(6) 0.268(7)
O7 O 1.0006(5) 0.2567(5) 0.2846(5)
H18 H 1.044(5) 0.201(6) 0.295(7)
loop_
_geom_bond_atom_site_label_1
_geom_bond_atom_site_label_2
_geom_bond_site_symmetry_1
_geom_bond_site_symmetry_2
Zn1 N4 1_555 1_555
C1 C2 1_555 1_555
C2 H1 1_555 1_555
C3 C2 1_555 1_555
C4 C3 1_555 1_555
H2 C4 1_555 1_555
C5 C4 1_555 1_555
C6 C1 1_555 1_555
H3 C6 1_555 1_555
C7 C1 1_555 1_555
C8 C3 1_555 1_555
C9 H4 1_555 1_555
H5 C9 1_555 1_555
C10 H6 1_555 1_555
C11 H7 1_555 1_555
C12 H8 1_555 1_555
C13 H9 1_555 1_555
C14 C13 1_555 1_555
H10 C14 1_555 1_555
C15 H11 1_555 1_555
H12 C15 1_555 1_555
C16 C15 1_555 1_555
H13 C16 1_555 1_555
H14 C16 1_555 1_555
N1 C9 1_555 1_555
N2 C10 1_555 1_555
N3 C10 1_555 1_555
N4 C12 1_555 1_555
N5 C12 1_555 1_555
O1 Zn1 1_555 1_555
O2 C7 1_555 1_555
O3 C8 1_555 1_555
O4 C8 1_555 1_555
O5 C5 1_555 1_555
O6 H15 1_555 1_555
H16 O6 1_555 1_555
H17 O7 1_555 1_555
O7 H18 1_555 1_555
C12A H8A 1_555 1_555
C13A H9A 1_555 1_555
C14A C13A 1_555 1_555
H10A C14A 1_555 1_555
C15A H11A 1_555 1_555
H12A C15A 1_555 1_555
C16A C16 1_555 1_555
H13A C16A 1_555 1_555
H14A C16A 1_555 1_555
N4A C12A 1_555 1_555
N5A C12A 1_555 1_555
Zn1A N4A 1_555 1_555
C1A C2A 1_555 1_555
C2A H1A 1_555 1_555
C3A C2A 1_555 1_555
C4A C3A 1_555 1_555
H2A C4A 1_555 1_555
C5A C4A 1_555 1_555
C6A C1A 1_555 1_555
H3A C6A 1_555 1_555
C7A C1A 1_555 1_555
C8A C3A 1_555 1_555
C9A H4A 1_555 1_555
H5A C9A 1_555 1_555
C10A H6A 1_555 1_555
C11A H7A 1_555 1_555
N1A C9A 1_555 1_555
N2A C10A 1_555 1_555
N3A C10A 1_555 1_555
O1A Zn1A 1_555 1_555
O2A C7A 1_555 1_555
O3A C8A 1_555 1_555
O4A C8A 1_555 1_555
O5A C5A 1_555 1_555
Zn1_2 O4 1_555 1_555
Zn1_3 N3 1_555 1_555
Zn1A_2 N3A 1_555 1_555
Zn1A_3 O4A 1_555 1_555
N3_2 Zn1 1_555 1_555
N3A_2 Zn1A 1_555 1_555
O4_2 Zn1 1_555 1_555
O4A_2 Zn1A 1_555 1_555
C5 C6 1_555 1_555
C7 O1 1_555 1_555
C9 O5 1_555 1_555
C11 N1 1_555 1_555
C11 N3 1_555 1_555
C13 N5 1_555 1_555
C14 N4 1_555 1_555
C15 N5 1_555 1_555
N1 N2 1_555 1_555
C13A N5A 1_555 1_555
C14A N4A 1_555 1_555
C15A C16A 1_555 1_555
C15A N5A 1_555 1_555
C5A C6A 1_555 1_555
C7A O1A 1_555 1_555
C9A O5A 1_555 1_555
C11A N1A 1_555 1_555
C11A N3A 1_555 1_555
N1A N2A 1_555 1_555

#END
