
#######################################################################
#
#                 Cambridge Crystallographic Data Centre
#                                CCDC 
#
#######################################################################
#
# If this CIF has been generated from an entry in the Cambridge 
# Structural Database, then it will include bibliographic, chemical, 
# crystal, experimental, refinement or atomic coordinate data resulting 
# from the CCDC's data processing and validation procedures.
#
#######################################################################

data_YIVBOW
_symmetry_cell_setting           monoclinic
_symmetry_space_group_name_H-M   'C 2/c'
_symmetry_Int_Tables_number      15
_space_group_name_Hall           '-C 2yn'
loop_
_symmetry_equiv_pos_site_id
_symmetry_equiv_pos_as_xyz
1 x,y,z
2 -x,y,1/2-z
3 1/2+x,1/2+y,z
4 1/2-x,1/2+y,1/2-z
5 -x,-y,-z
6 x,-y,1/2+z
7 1/2-x,1/2-y,-z
8 1/2+x,1/2-y,1/2+z
_cell_length_a                   18.5740(10)
_cell_length_b                   11.8625(6)
_cell_length_c                   16.8934(8)
_cell_angle_alpha                90
_cell_angle_beta                 112.071(6)
_cell_angle_gamma                90
_cell_volume                     3449.43
loop_
_atom_site_label
_atom_site_type_symbol
_atom_site_fract_x
_atom_site_fract_y
_atom_site_fract_z
Zn1 Zn 0.28677(2) 0.23064(4) 0.70386(2)
C1 C 0.05790(19) 0.3151(3) 0.5707(2)
C2 C 0.0154(2) 0.3302(3) 0.4836(2)
H1 H 0.0416 0.3410 0.4468
C3 C -0.0650(2) 0.3295(3) 0.45106(19)
C4 C -0.1043(2) 0.3181(3) 0.5062(2)
H2 H -0.1583 0.3182 0.4851
C5 C -0.06221(19) 0.3066(3) 0.5929(2)
C6 C 0.01807(19) 0.3039(3) 0.6250(2)
H3 H 0.0454 0.2945 0.6833
C7 C 0.1439(2) 0.2993(3) 0.6010(2)
C8 C -0.1076(2) 0.3291(3) 0.3556(2)
C9 C -0.1760(2) 0.2928(3) 0.6305(2)
H4 H -0.1897 0.2578 0.6748
H5 H -0.2008 0.2505 0.5781
C10 C -0.2506(2) 0.5579(4) 0.5567(2)
H6 H -0.2758 0.6107 0.5147
C11 C -0.1899(2) 0.4876(3) 0.6767(2)
H7 H -0.1635 0.4768 0.7350
C12 C 0.4126(2) 0.3389(3) 0.6606(2)
H8 H 0.4360 0.2699 0.6593
C13 C 0.3895(3) 0.5182(4) 0.6528(3)
H9 H 0.3929 0.5955 0.6453
C14 C 0.3370(2) 0.4646(3) 0.6764(3)
H10 H 0.2970 0.4994 0.6877
C15 C 0.4990(2) 0.4571(4) 0.6099(2)
H11 H 0.5302 0.3894 0.6176
H12 H 0.5325 0.5168 0.6430
C16 C 0.4678(2) 0.4896(3) 0.5168(2)
H13 H 0.4367 0.5574 0.5091
H14 H 0.4342 0.4299 0.4836
N1 N -0.20376(17) 0.4076(3) 0.61801(17)
N2 N -0.2430(2) 0.4523(3) 0.53938(18)
N3 N -0.21873(17) 0.5842(3) 0.64088(17)
N4 N 0.35115(17) 0.3515(3) 0.68121(17)
N5 N 0.43696(18) 0.4369(3) 0.64209(18)
O1 O 0.18118(13) 0.2878(2) 0.68284(14)
O2 O 0.17578(15) 0.2915(2) 0.54956(15)
O3 O -0.07110(15) 0.3442(3) 0.30870(15)
O4 O -0.18002(14) 0.3057(2) 0.32759(14)
O5 O -0.09467(14) 0.2893(2) 0.65400(14)
C12D C 0.5874(2) 0.6611(3) 0.3394(2)
H8D H 0.5640 0.7301 0.3407
C13D C 0.6105(3) 0.4818(4) 0.3472(3)
H9D H 0.6071 0.4045 0.3547
C14D C 0.6630(2) 0.5354(3) 0.3236(3)
H10D H 0.7030 0.5006 0.3123
C15D C 0.5010(2) 0.5429(4) 0.3901(2)
H11D H 0.4698 0.6106 0.3824
H12D H 0.4675 0.4832 0.3570
C16D C 0.5322(2) 0.5104(3) 0.4832(2)
H13D H 0.5633 0.4426 0.4909
H14D H 0.5658 0.5701 0.5164
N4D N 0.64885(17) 0.6485(3) 0.31879(17)
N5D N 0.56304(18) 0.5631(3) 0.35791(18)
Zn1D Zn 0.71323(2) 0.76936(4) 0.29614(2)
C1D C 0.94210(19) 0.6849(3) 0.4293(2)
C2D C 0.9846(2) 0.6698(3) 0.5164(2)
H1D H 0.9584 0.6590 0.5532
C3D C 1.0650(2) 0.6705(3) 0.54894(19)
C4D C 1.1043(2) 0.6819(3) 0.4938(2)
H2D H 1.1583 0.6818 0.5149
C5D C 1.06221(19) 0.6934(3) 0.4071(2)
C6D C 0.98193(19) 0.6961(3) 0.3750(2)
H3D H 0.9546 0.7055 0.3167
C7D C 0.8561(2) 0.7007(3) 0.3990(2)
C8D C 1.1076(2) 0.6709(3) 0.6444(2)
C9D C 1.1760(2) 0.7072(3) 0.3695(2)
H4D H 1.1897 0.7422 0.3252
H5D H 1.2008 0.7495 0.4219
C10D C 1.2506(2) 0.4421(4) 0.4433(2)
H6D H 1.2758 0.3893 0.4853
C11D C 1.1899(2) 0.5124(3) 0.3233(2)
H7D H 1.1635 0.5232 0.2650
N1D N 1.20376(17) 0.5924(3) 0.38199(17)
N2D N 1.2430(2) 0.5477(3) 0.46062(18)
N3D N 1.21873(17) 0.4158(3) 0.35912(17)
O1D O 0.81882(13) 0.7122(2) 0.31716(14)
O2D O 0.82422(15) 0.7085(2) 0.45044(15)
O3D O 1.07110(15) 0.6558(3) 0.69130(15)
O4D O 1.18002(14) 0.6943(2) 0.67241(14)
O5D O 1.09467(14) 0.7107(2) 0.34600(14)
Zn1B Zn -0.21323(2) 0.73064(4) 0.70386(2)
Zn1C Zn 1.21323(2) 0.73064(4) 0.79614(2)
Zn1F Zn 1.21323(2) 0.26936(4) 0.29614(2)
Zn1G Zn -0.21323(2) 0.26936(4) 0.20386(2)
N3B N 0.28127(17) 0.0842(3) 0.64088(17)
N3F N 0.71873(17) 0.9158(3) 0.35912(17)
O4C O 0.68002(14) 0.8057(2) 0.17241(14)
O4G O 0.31998(14) 0.1943(2) 0.82759(14)
O6 O 0.0000 0.486(3) 0.2500
loop_
_geom_bond_atom_site_label_1
_geom_bond_atom_site_label_2
_geom_bond_site_symmetry_1
_geom_bond_site_symmetry_2
Zn1 N4 1_555 1_555
C1 C2 1_555 1_555
C2 H1 1_555 1_555
C3 C2 1_555 1_555
C4 C3 1_555 1_555
H2 C4 1_555 1_555
C5 C4 1_555 1_555
C6 C1 1_555 1_555
H3 C6 1_555 1_555
C7 C1 1_555 1_555
C8 C3 1_555 1_555
C9 H4 1_555 1_555
H5 C9 1_555 1_555
C10 H6 1_555 1_555
C11 H7 1_555 1_555
C12 H8 1_555 1_555
C13 H9 1_555 1_555
C14 C13 1_555 1_555
H10 C14 1_555 1_555
C15 H11 1_555 1_555
H12 C15 1_555 1_555
C16 C15 1_555 1_555
H13 C16 1_555 1_555
H14 C16 1_555 1_555
N1 C9 1_555 1_555
N2 C10 1_555 1_555
N3 C10 1_555 1_555
N4 C12 1_555 1_555
N5 C12 1_555 1_555
O1 Zn1 1_555 1_555
O2 C7 1_555 1_555
O3 C8 1_555 1_555
O4 C8 1_555 1_555
O5 C5 1_555 1_555
C12D H8D 1_555 1_555
C13D H9D 1_555 1_555
C14D C13D 1_555 1_555
H10D C14D 1_555 1_555
C15D H11D 1_555 1_555
H12D C15D 1_555 1_555
C16D C16 1_555 1_555
H13D C16D 1_555 1_555
H14D C16D 1_555 1_555
N4D C12D 1_555 1_555
N5D C12D 1_555 1_555
Zn1D N4D 1_555 1_555
C1D C2D 1_555 1_555
C2D H1D 1_555 1_555
C3D C2D 1_555 1_555
C4D C3D 1_555 1_555
H2D C4D 1_555 1_555
C5D C4D 1_555 1_555
C6D C1D 1_555 1_555
H3D C6D 1_555 1_555
C7D C1D 1_555 1_555
C8D C3D 1_555 1_555
C9D H4D 1_555 1_555
H5D C9D 1_555 1_555
C10D H6D 1_555 1_555
C11D H7D 1_555 1_555
N1D C9D 1_555 1_555
N2D C10D 1_555 1_555
N3D C10D 1_555 1_555
O1D Zn1D 1_555 1_555
O2D C7D 1_555 1_555
O3D C8D 1_555 1_555
O4D C8D 1_555 1_555
O5D C5D 1_555 1_555
Zn1B N3 1_555 1_555
Zn1C O4D 1_555 1_555
Zn1F N3D 1_555 1_555
Zn1G O4 1_555 1_555
N3B Zn1 1_555 1_555
N3F Zn1D 1_555 1_555
O4C Zn1D 1_555 1_555
O4G Zn1 1_555 1_555
C5 C6 1_555 1_555
C7 O1 1_555 1_555
C9 O5 1_555 1_555
C11 N1 1_555 1_555
C11 N3 1_555 1_555
C13 N5 1_555 1_555
C14 N4 1_555 1_555
C15 N5 1_555 1_555
N1 N2 1_555 1_555
C13D N5D 1_555 1_555
C14D N4D 1_555 1_555
C15D C16D 1_555 1_555
C15D N5D 1_555 1_555
C5D C6D 1_555 1_555
C7D O1D 1_555 1_555
C9D O5D 1_555 1_555
C11D N1D 1_555 1_555
C11D N3D 1_555 1_555
N1D N2D 1_555 1_555

#END
