
#######################################################################
#
#                 Cambridge Crystallographic Data Centre
#                                CCDC 
#
#######################################################################
#
# If this CIF has been generated from an entry in the Cambridge 
# Structural Database, then it will include bibliographic, chemical, 
# crystal, experimental, refinement or atomic coordinate data resulting 
# from the CCDC's data processing and validation procedures.
#
#######################################################################

data_YIVNEY
_symmetry_cell_setting           triclinic
_symmetry_space_group_name_H-M   'P -1'
_symmetry_Int_Tables_number      2
_space_group_name_Hall           '-P 1'
loop_
_symmetry_equiv_pos_site_id
_symmetry_equiv_pos_as_xyz
1 x,y,z
2 -x,-y,-z
_cell_length_a                   7.7303(16)
_cell_length_b                   8.8568(18)
_cell_length_c                   19.593(4)
_cell_angle_alpha                96.322(4)
_cell_angle_beta                 92.562(3)
_cell_angle_gamma                105.445(3)
_cell_volume                     1281.3
loop_
_atom_site_label
_atom_site_type_symbol
_atom_site_fract_x
_atom_site_fract_y
_atom_site_fract_z
V1 V 1.19986(8) 0.81554(7) 0.75657(3)
V2 V 1.66535(8) 0.82898(7) 0.77012(3)
V3 V 1.99312(8) 1.08743(8) 0.71595(3)
Cu1 Cu 0.85373(6) 0.54703(5) 0.67028(2)
Cu2 Cu 0.88984(6) 0.59647(5) 0.84892(2)
O1 O 1.1013(3) 0.6860(3) 0.68959(14)
O2 O 0.8509(3) 0.4793(3) 0.75936(13)
H1 H 0.921(5) 0.422(4) 0.763(2)
O3 O 1.1004(3) 0.7578(3) 0.82668(13)
O4 O 1.1718(4) 1.0023(3) 0.74407(16)
O5 O 1.4324(3) 0.8311(3) 0.76641(14)
O6 O 1.7172(3) 0.7637(3) 0.84195(13)
O7 O 1.7048(3) 0.7152(3) 0.70462(13)
O8 O 1.8039(3) 1.0266(3) 0.76844(13)
O9 O 2.0696(4) 1.2810(3) 0.73125(14)
O10 O 1.9318(4) 1.0349(3) 0.63463(15)
N1 N 0.8637(4) 0.6004(4) 0.57329(16)
N2 N 0.6626(4) 0.3551(4) 0.62400(16)
N3 N 0.7208(4) 0.4194(4) 0.89123(16)
N4 N 0.9468(4) 0.6870(4) 0.94940(16)
C1 C 0.9667(5) 0.7277(4) 0.54975(19)
H2 H 1.0452 0.8083 0.5815
C2 C 0.9623(5) 0.7458(5) 0.4797(2)
H3 H 1.0375 0.8375 0.4646
C3 C 0.8501(5) 0.6319(5) 0.43281(19)
H4 H 0.8486 0.6428 0.3851
C4 C 0.7359(5) 0.4971(5) 0.4565(2)
C5 C 0.7482(5) 0.4887(4) 0.52727(19)
C6 C 0.6062(5) 0.3732(5) 0.4128(2)
H5 H 0.5973 0.3774 0.3646
C7 C 0.4965(5) 0.2508(5) 0.4393(2)
H6 H 0.4093 0.1724 0.4096
C8 C 0.6377(5) 0.3555(4) 0.55532(19)
C9 C 0.5104(5) 0.2380(4) 0.5114(2)
C10 C 0.4026(5) 0.1148(5) 0.5431(2)
H7 H 0.3122 0.0329 0.5163
C11 C 0.4283(5) 0.1132(5) 0.6126(2)
H8 H 0.3571 0.0294 0.6340
C12 C 0.5595(5) 0.2350(5) 0.6517(2)
H9 H 0.5759 0.2323 0.6999
C13 C 0.6108(5) 0.2849(5) 0.8607(2)
H10 H 0.6099 0.2612 0.8122
C14 C 0.4953(5) 0.1758(5) 0.8968(2)
H11 H 0.4185 0.0804 0.8732
C15 C 0.4960(5) 0.2100(5) 0.9668(2)
H12 H 0.4175 0.1385 0.9919
C16 C 0.6118(5) 0.3496(5) 1.0015(2)
C17 C 0.7213(5) 0.4506(5) 0.96070(19)
C18 C 0.8444(5) 0.5961(5) 0.99238(19)
C19 C 0.6256(5) 0.3952(5) 1.0745(2)
H13 H 0.5514 0.3278 1.1024
C20 C 0.7413(5) 0.5312(5) 1.1045(2)
H14 H 0.7475 0.5574 1.1530
C21 C 0.8553(5) 0.6370(5) 1.06419(19)
C22 C 0.9800(5) 0.7818(5) 1.0907(2)
H15 H 0.9930 0.8157 1.1389
C23 C 1.0819(5) 0.8733(5) 1.0475(2)
H16 H 1.1651 0.9712 1.0652
C24 C 1.0623(5) 0.8212(5) 0.9766(2)
H17 H 1.1349 0.8849 0.9470
V3_2 V 0.99312(8) 1.08743(8) 0.71595(3)
Cu1_2 Cu 1.85373(6) 0.54703(5) 0.67028(2)
Cu2_2 Cu 1.88984(6) 0.59647(5) 0.84892(2)
O4_2 O 2.1718(4) 1.0023(3) 0.74407(16)
O6_2 O 0.7172(3) 0.7637(3) 0.84195(13)
O7_2 O 0.7048(3) 0.7152(3) 0.70462(13)
loop_
_geom_bond_atom_site_label_1
_geom_bond_atom_site_label_2
_geom_bond_site_symmetry_1
_geom_bond_site_symmetry_2
V1 O1 1_555 1_555
V2 O5 1_555 1_555
V3 O8 1_555 1_555
Cu1 O1 1_555 1_555
Cu2 O2 1_555 1_555
O2 Cu1 1_555 1_555
H1 O2 1_555 1_555
O3 V1 1_555 1_555
O4 V1 1_555 1_555
O5 V1 1_555 1_555
O6 V2 1_555 1_555
O7 V2 1_555 1_555
O8 V2 1_555 1_555
O9 V3 1_555 1_555
O10 V3 1_555 1_555
N1 Cu1 1_555 1_555
N2 Cu1 1_555 1_555
N3 Cu2 1_555 1_555
N4 Cu2 1_555 1_555
C1 N1 1_555 1_555
H2 C1 1_555 1_555
C2 C1 1_555 1_555
H3 C2 1_555 1_555
C3 C2 1_555 1_555
H4 C3 1_555 1_555
C4 C3 1_555 1_555
C5 N1 1_555 1_555
C6 C4 1_555 1_555
H5 C6 1_555 1_555
C7 C6 1_555 1_555
H6 C7 1_555 1_555
C8 N2 1_555 1_555
C9 C7 1_555 1_555
C10 C9 1_555 1_555
H7 C10 1_555 1_555
C11 C10 1_555 1_555
H8 C11 1_555 1_555
C12 N2 1_555 1_555
H9 C12 1_555 1_555
C13 N3 1_555 1_555
H10 C13 1_555 1_555
C14 C13 1_555 1_555
H11 C14 1_555 1_555
C15 C14 1_555 1_555
H12 C15 1_555 1_555
C16 C15 1_555 1_555
C17 N3 1_555 1_555
C18 N4 1_555 1_555
C19 C16 1_555 1_555
H13 C19 1_555 1_555
C20 C19 1_555 1_555
H14 C20 1_555 1_555
C21 C18 1_555 1_555
C22 C21 1_555 1_555
H15 C22 1_555 1_555
C23 C22 1_555 1_555
H16 C23 1_555 1_555
C24 N4 1_555 1_555
H17 C24 1_555 1_555
V3_2 O4 1_555 1_555
Cu1_2 O7 1_555 1_555
Cu2_2 O6 1_555 1_555
O4_2 V3 1_555 1_555
O6_2 Cu2 1_555 1_555
O7_2 Cu1 1_555 1_555
Cu2 O3 1_555 1_555
C4 C5 1_555 1_555
C5 C8 1_555 1_555
C8 C9 1_555 1_555
C11 C12 1_555 1_555
C16 C17 1_555 1_555
C17 C18 1_555 1_555
C20 C21 1_555 1_555
C23 C24 1_555 1_555

#END
