
#######################################################################
#
#                 Cambridge Crystallographic Data Centre
#                                CCDC 
#
#######################################################################
#
# If this CIF has been generated from an entry in the Cambridge 
# Structural Database, then it will include bibliographic, chemical, 
# crystal, experimental, refinement or atomic coordinate data resulting 
# from the CCDC's data processing and validation procedures.
#
#######################################################################

data_YIVPUP
_symmetry_cell_setting           monoclinic
_symmetry_space_group_name_H-M   'C c'
_symmetry_Int_Tables_number      9
_space_group_name_Hall           'C -2yc'
loop_
_symmetry_equiv_pos_site_id
_symmetry_equiv_pos_as_xyz
1 x,y,z
2 x,-y,1/2+z
3 1/2+x,1/2+y,z
4 1/2+x,1/2-y,1/2+z
_cell_length_a                   14.569(3)
_cell_length_b                   14.262(3)
_cell_length_c                   21.821(4)
_cell_angle_alpha                90
_cell_angle_beta                 106.02(3)
_cell_angle_gamma                90
_cell_volume                     4357.96
loop_
_atom_site_label
_atom_site_type_symbol
_atom_site_fract_x
_atom_site_fract_y
_atom_site_fract_z
Cd1 Cd -0.19533(3) 0.50772(3) 0.37157(2)
S1 S -0.33791(13) 0.52654(15) 0.26406(8)
C1 C -0.4257(5) 0.5313(5) 0.2983(3)
N1 N -0.4894(5) 0.5332(5) 0.3211(3)
N2 N -0.0380(4) 0.5104(4) 0.4455(3)
N3 N -0.0068(4) 0.4428(4) 0.4893(3)
N4 N 0.1105(4) 0.5903(4) 0.4797(2)
N5 N -0.1060(4) 0.6396(4) 0.3544(3)
C2 C 0.0814(4) 0.4482(4) 0.5288(3)
C3 C 0.1411(4) 0.5259(4) 0.5250(3)
C4 C 0.0225(5) 0.5784(4) 0.4418(3)
C5 C -0.0144(5) 0.6518(4) 0.3914(3)
C6 C -0.1419(5) 0.7070(5) 0.3117(3)
H1 H -0.2043 0.7005 0.2862
C7 C -0.0915(7) 0.7849(5) 0.3037(4)
H2 H -0.1193 0.8294 0.2730
C8 C 0.0004(7) 0.7971(6) 0.3412(4)
H3 H 0.0355 0.8499 0.3368
C9 C 0.0397(6) 0.7282(5) 0.3861(4)
H4 H 0.1018 0.7341 0.4121
C10 C 0.1073(5) 0.3700(4) 0.5747(3)
C11 C 0.1930(5) 0.3208(5) 0.5836(3)
H5 H 0.2357 0.3370 0.5606
C12 C 0.2135(6) 0.2476(5) 0.6273(3)
H6 H 0.2693 0.2131 0.6325
C13 C 0.1524(6) 0.2261(5) 0.6624(4)
H7 H 0.1681 0.1785 0.6927
C14 C 0.0670(6) 0.2740(5) 0.6537(4)
H8 H 0.0255 0.2581 0.6777
C15 C 0.0435(5) 0.3455(5) 0.6094(4)
H9 H -0.0143 0.3770 0.6028
C16 C 0.2381(5) 0.5403(5) 0.5684(3)
C17 C 0.3085(5) 0.5788(5) 0.5427(3)
H10 H 0.2930 0.5970 0.5001
C18 C 0.4015(5) 0.5894(5) 0.5814(4)
H11 H 0.4479 0.6154 0.5647
C19 C 0.4251(5) 0.5613(5) 0.6448(4)
H12 H 0.4881 0.5652 0.6698
C20 C 0.3552(6) 0.5276(5) 0.6706(4)
H13 H 0.3705 0.5124 0.7137
C21 C 0.2619(6) 0.5164(5) 0.6327(3)
H14 H 0.2154 0.4928 0.6503
Cd2 Cd -0.56759(3) 0.63032(3) 0.377370(19)
S2 S -0.42097(13) 0.72144(12) 0.44487(9)
C22 C -0.3338(5) 0.6580(5) 0.4307(3)
N6 N -0.2705(5) 0.6174(5) 0.4221(3)
N7 N -0.5464(4) 0.5000(3) 0.4477(3)
N8 N -0.4614(4) 0.4843(4) 0.4901(3)
N9 N -0.6128(4) 0.3641(4) 0.4793(3)
N10 N -0.7086(4) 0.5329(4) 0.3547(3)
C23 C -0.5307(5) 0.3492(4) 0.5241(3)
C24 C -0.4514(4) 0.4101(4) 0.5280(3)
C25 C -0.6164(5) 0.4390(5) 0.4417(3)
C26 C -0.7074(5) 0.4574(5) 0.3926(3)
C27 C -0.7901(6) 0.5539(6) 0.3116(4)
H15 H -0.7913 0.6048 0.2847
C28 C -0.8738(6) 0.5027(6) 0.3050(4)
H16 H -0.9298 0.5198 0.2746
C29 C -0.8728(6) 0.4269(7) 0.3436(4)
H17 H -0.9278 0.3917 0.3400
C30 C -0.7871(6) 0.4036(6) 0.3889(4)
H18 H -0.7842 0.3527 0.4160
C31 C -0.5285(5) 0.2683(4) 0.5674(3)
C32 C -0.4788(6) 0.2719(6) 0.6318(3)
H19 H -0.4475 0.3265 0.6494
C33 C -0.4767(7) 0.1934(7) 0.6691(4)
H20 H -0.4434 0.1953 0.7121
C34 C -0.5238(6) 0.1109(6) 0.6432(4)
H21 H -0.5200 0.0578 0.6685
C35 C -0.5756(6) 0.1087(5) 0.5802(4)
H22 H -0.6082 0.0545 0.5631
C36 C -0.5795(5) 0.1874(5) 0.5419(3)
H23 H -0.6157 0.1864 0.4995
C37 C -0.3543(5) 0.3992(5) 0.5725(3)
C38 C -0.3117(5) 0.4784(5) 0.6061(3)
H24 H -0.3430 0.5358 0.5993
C39 C -0.2226(5) 0.4710(6) 0.6494(3)
H25 H -0.1945 0.5237 0.6719
C40 C -0.1749(5) 0.3865(6) 0.6595(3)
H26 H -0.1155 0.3819 0.6893
C41 C -0.2162(5) 0.3081(6) 0.6248(4)
H27 H -0.1835 0.2513 0.6306
C42 C -0.3061(5) 0.3140(5) 0.5816(3)
H28 H -0.3339 0.2612 0.5589
S3 S -0.25869(14) 0.38875(13) 0.43994(9)
C43 C -0.1979(5) 0.2945(5) 0.4305(3)
N11 N -0.1581(5) 0.2267(4) 0.4240(3)
S4 S -0.11188(19) 0.22275(14) 0.26962(8)
C44 C -0.1223(5) 0.3290(5) 0.2960(3)
N12 N -0.1272(5) 0.4055(5) 0.3119(3)
Cd2B Cd -0.06759(3) 0.13032(3) 0.377370(19)
N11B N -0.6581(5) 0.7267(4) 0.4240(3)
S4B S -0.61188(19) 0.72275(14) 0.26962(8)
loop_
_geom_bond_atom_site_label_1
_geom_bond_atom_site_label_2
_geom_bond_site_symmetry_1
_geom_bond_site_symmetry_2
Cd1 S1 1_555 1_555
S1 C1 1_555 1_555
C1 N1 1_555 1_555
N1 Cd2 1_555 1_555
N2 Cd1 1_555 1_555
N3 N2 1_555 1_555
N4 C3 1_555 1_555
N5 Cd1 1_555 1_555
C2 N3 1_555 1_555
C3 C2 1_555 1_555
C4 N2 1_555 1_555
C5 N5 1_555 1_555
C6 N5 1_555 1_555
H1 C6 1_555 1_555
C7 C6 1_555 1_555
H2 C7 1_555 1_555
C8 C7 1_555 1_555
H3 C8 1_555 1_555
C9 C5 1_555 1_555
H4 C9 1_555 1_555
C10 C2 1_555 1_555
C11 C10 1_555 1_555
H5 C11 1_555 1_555
C12 C11 1_555 1_555
H6 C12 1_555 1_555
C13 C12 1_555 1_555
H7 C13 1_555 1_555
C14 C13 1_555 1_555
H8 C14 1_555 1_555
C15 C10 1_555 1_555
H9 C15 1_555 1_555
C16 C3 1_555 1_555
C17 C16 1_555 1_555
H10 C17 1_555 1_555
C18 C17 1_555 1_555
H11 C18 1_555 1_555
C19 C18 1_555 1_555
H12 C19 1_555 1_555
C20 C19 1_555 1_555
H13 C20 1_555 1_555
C21 C16 1_555 1_555
H14 C21 1_555 1_555
Cd2 S2 1_555 1_555
S2 C22 1_555 1_555
C22 N6 1_555 1_555
N6 Cd1 1_555 1_555
N7 Cd2 1_555 1_555
N8 N7 1_555 1_555
N9 C23 1_555 1_555
N10 Cd2 1_555 1_555
C23 C24 1_555 1_555
C24 N8 1_555 1_555
C25 N7 1_555 1_555
C26 N10 1_555 1_555
C27 N10 1_555 1_555
H15 C27 1_555 1_555
C28 C27 1_555 1_555
H16 C28 1_555 1_555
C29 C28 1_555 1_555
H17 C29 1_555 1_555
C30 C26 1_555 1_555
H18 C30 1_555 1_555
C31 C23 1_555 1_555
C32 C31 1_555 1_555
H19 C32 1_555 1_555
C33 C32 1_555 1_555
H20 C33 1_555 1_555
C34 C33 1_555 1_555
H21 C34 1_555 1_555
C35 C34 1_555 1_555
H22 C35 1_555 1_555
C36 C31 1_555 1_555
H23 C36 1_555 1_555
C37 C24 1_555 1_555
C38 C37 1_555 1_555
H24 C38 1_555 1_555
C39 C38 1_555 1_555
H25 C39 1_555 1_555
C40 C39 1_555 1_555
H26 C40 1_555 1_555
C41 C40 1_555 1_555
H27 C41 1_555 1_555
C42 C37 1_555 1_555
H28 C42 1_555 1_555
S3 Cd1 1_555 1_555
C43 S3 1_555 1_555
N11 C43 1_555 1_555
S4 C44 1_555 1_555
C44 N12 1_555 1_555
N12 Cd1 1_555 1_555
Cd2B N11 1_555 1_555
N11B Cd2 1_555 1_555
S4B Cd2 1_555 1_555
N4 C4 1_555 1_555
C4 C5 1_555 1_555
C8 C9 1_555 1_555
C14 C15 1_555 1_555
C20 C21 1_555 1_555
N9 C25 1_555 1_555
C25 C26 1_555 1_555
C29 C30 1_555 1_555
C35 C36 1_555 1_555
C41 C42 1_555 1_555
S4 Cd2B 1_555 1_555

#END
