
#######################################################################
#
#                 Cambridge Crystallographic Data Centre
#                                CCDC 
#
#######################################################################
#
# If this CIF has been generated from an entry in the Cambridge 
# Structural Database, then it will include bibliographic, chemical, 
# crystal, experimental, refinement or atomic coordinate data resulting 
# from the CCDC's data processing and validation procedures.
#
#######################################################################

data_YIVPAW
_symmetry_cell_setting           triclinic
_symmetry_space_group_name_H-M   'P -1'
_symmetry_Int_Tables_number      2
_space_group_name_Hall           '-P 1'
loop_
_symmetry_equiv_pos_site_id
_symmetry_equiv_pos_as_xyz
1 x,y,z
2 -x,-y,-z
_cell_length_a                   10.0921(3)
_cell_length_b                   10.4958(3)
_cell_length_c                   10.8431(3)
_cell_angle_alpha                86.403(2)
_cell_angle_beta                 79.041(2)
_cell_angle_gamma                81.993(2)
_cell_volume                     1115.84
loop_
_atom_site_label
_atom_site_type_symbol
_atom_site_fract_x
_atom_site_fract_y
_atom_site_fract_z
Cu1 Cu 1.13648(8) 0.11383(9) 0.08810(7)
S1 S 0.88202(17) 0.4235(2) -0.07980(18)
O1 O 0.9728(5) 0.1496(6) -0.0284(5)
O2 O 0.8676(5) 0.7013(6) -0.0988(5)
O3 O 0.6789(6) 0.7456(7) -0.1793(6)
O4 O 0.8116(5) 0.0717(6) -0.1071(5)
N1 N 1.0027(6) 0.1081(7) 0.2517(6)
N2 N 0.2791(5) 0.1197(7) 0.9282(6)
C1 C 0.8682(6) 0.1618(8) -0.0749(6)
C2 C 0.8033(7) 0.2949(9) -0.1007(7)
C3 C 0.6826(8) 0.3325(10) -0.1412(9)
H1 H 0.6258 0.2752 -0.1568
C4 C 0.6543(8) 0.4650(10) -0.1566(9)
H2 H 0.5756 0.5059 -0.1821
C5 C 0.7555(7) 0.5307(9) -0.1299(7)
C6 C 0.7649(7) 0.6668(9) -0.1366(8)
C7 C 1.0079(8) 0.1732(11) 0.3508(8)
H3 H 1.0733 0.2288 0.3441
C8 C 0.9192(8) 0.1615(12) 0.4647(8)
H4 H 0.9276 0.2069 0.5332
C9 C 0.8177(7) 0.0816(11) 0.4761(7)
C10 C 0.8118(8) 0.0201(13) 0.3703(8)
H5 H 0.7443 -0.0323 0.3719
C11 C 0.9048(7) 0.0349(10) 0.2611(7)
H6 H 0.8981 -0.0086 0.1909
C12 C 0.7186(9) 0.0598(13) 0.5985(7)
H7 H 0.7010 -0.0292 0.6067
H8 H 0.7579 0.0775 0.6697
C13 C 0.2730(7) 0.2171(10) 0.8472(7)
H9 H 0.1989 0.2812 0.8627
C14 C 0.3708(8) 0.2310(10) 0.7389(8)
H10 H 0.3631 0.3029 0.6847
C15 C 0.4804(7) 0.1335(10) 0.7147(7)
C16 C 0.4855(7) 0.0308(10) 0.7984(7)
H11 H 0.5574 -0.0355 0.7843
C17 C 0.3845(6) 0.0245(9) 0.9045(7)
H12 H 0.3895 -0.0464 0.9601
C18 C 0.5874(8) 0.1481(12) 0.5971(7)
H13 H 0.5507 0.1308 0.5244
H14 H 0.6068 0.2366 0.5884
Cu1_2 Cu 0.13648(8) 0.11383(9) 1.08810(7)
Cu1A Cu 0.86352(8) -0.11383(9) -0.08810(7)
Cu1A_2 Cu 0.86352(8) 0.88617(9) -0.08810(7)
O2A O 1.1324(5) 0.2987(6) 0.0988(5)
O4A O 1.1884(5) -0.0717(6) 0.1071(5)
N2_2 N 1.2791(5) 0.1197(7) -0.0718(6)
O5 O 0.6293(14) 0.7037(16) 0.5913(11)
O6 O 0.365(3) 0.587(2) 0.659(3)
loop_
_geom_bond_atom_site_label_1
_geom_bond_atom_site_label_2
_geom_bond_site_symmetry_1
_geom_bond_site_symmetry_2
Cu1 O1 1_555 1_555
S1 C2 1_555 1_555
O1 C1 1_555 1_555
O2 C6 1_555 1_555
O3 C6 1_555 1_555
O4 C1 1_555 1_555
N1 Cu1 1_555 1_555
N2 C13 1_555 1_555
C1 C2 1_555 1_555
C2 C3 1_555 1_555
C3 H1 1_555 1_555
C4 C3 1_555 1_555
H2 C4 1_555 1_555
C5 S1 1_555 1_555
C6 C5 1_555 1_555
C7 N1 1_555 1_555
H3 C7 1_555 1_555
C8 C7 1_555 1_555
H4 C8 1_555 1_555
C9 C8 1_555 1_555
C10 C9 1_555 1_555
H5 C10 1_555 1_555
C11 N1 1_555 1_555
H6 C11 1_555 1_555
C12 C9 1_555 1_555
H7 C12 1_555 1_555
H8 C12 1_555 1_555
C13 H9 1_555 1_555
C14 C13 1_555 1_555
H10 C14 1_555 1_555
C15 C14 1_555 1_555
C16 C15 1_555 1_555
H11 C16 1_555 1_555
C17 N2 1_555 1_555
H12 C17 1_555 1_555
C18 C12 1_555 1_555
H13 C18 1_555 1_555
H14 C18 1_555 1_555
Cu1_2 N2 1_555 1_555
Cu1A O4 1_555 1_555
Cu1A_2 O2 1_555 1_555
O2A Cu1 1_555 1_555
O4A Cu1 1_555 1_555
N2_2 Cu1 1_555 1_555
C4 C5 1_555 1_555
C10 C11 1_555 1_555
C15 C18 1_555 1_555
C16 C17 1_555 1_555

#END
