
#######################################################################
#
#                 Cambridge Crystallographic Data Centre
#                                CCDC 
#
#######################################################################
#
# If this CIF has been generated from an entry in the Cambridge 
# Structural Database, then it will include bibliographic, chemical, 
# crystal, experimental, refinement or atomic coordinate data resulting 
# from the CCDC's data processing and validation procedures.
#
#######################################################################

data_YIVSOM
_symmetry_cell_setting           monoclinic
_symmetry_space_group_name_H-M   'C 2/c'
_symmetry_Int_Tables_number      15
_space_group_name_Hall           '-C 2yn'
loop_
_symmetry_equiv_pos_site_id
_symmetry_equiv_pos_as_xyz
1 x,y,z
2 1/2+x,1/2+y,z
3 -x,y,1/2-z
4 1/2-x,1/2+y,1/2-z
5 -x,-y,-z
6 1/2-x,1/2-y,-z
7 x,-y,1/2+z
8 1/2+x,1/2-y,1/2+z
_cell_length_a                   16.329(4)
_cell_length_b                   16.899(2)
_cell_length_c                   17.410(3)
_cell_angle_alpha                90
_cell_angle_beta                 114.377(13)
_cell_angle_gamma                90
_cell_volume                     4375.89
loop_
_atom_site_label
_atom_site_type_symbol
_atom_site_fract_x
_atom_site_fract_y
_atom_site_fract_z
Cd1 Cd 0.226187(16) 0.243891(14) 0.381617(16)
C1 C 0.3866(2) 0.1617(2) 0.5769(2)
C2 C 0.4640(2) 0.1292(2) 0.5621(2)
C3 C 0.4602(3) 0.1265(3) 0.4813(3)
H1 H 0.4073 0.1412 0.4362
C4 C 0.5329(3) 0.1026(3) 0.4658(3)
H2 H 0.5295 0.1018 0.4112
C5 C 0.6103(3) 0.0798(3) 0.5327(3)
C6 C 0.6150(3) 0.0799(3) 0.6131(3)
H3 H 0.6672 0.0630 0.6577
C7 C 0.5420(3) 0.1050(3) 0.6284(3)
H4 H 0.5456 0.1054 0.6831
C8 C 0.7009(3) 0.0855(3) 0.4552(3)
C9 C 0.7562(3) 0.1504(3) 0.4701(3)
H5 H 0.7815 0.1733 0.5234
C10 C 0.7739(3) 0.1813(3) 0.4049(3)
H6 H 0.8119 0.2247 0.4145
C11 C 0.7350(3) 0.1478(2) 0.3252(2)
C12 C 0.6799(3) 0.0824(3) 0.3117(3)
H7 H 0.6538 0.0597 0.2583
C13 C 0.6631(3) 0.0501(3) 0.3776(3)
H8 H 0.6270 0.0054 0.3691
C14 C 0.7540(2) 0.1819(2) 0.2542(2)
C15 C 0.4192(4) 0.3375(3) 0.4335(4)
H9 H 0.4427 0.2957 0.4710
C16 C 0.4784(3) 0.3947(3) 0.4292(4)
H10 H 0.5396 0.3902 0.4630
C17 C 0.4470(2) 0.4571(2) 0.3756(3)
C18 C 0.3556(3) 0.4591(3) 0.3259(5)
H11 H 0.3307 0.4989 0.2862
C19 C 0.3016(4) 0.4000(3) 0.3367(5)
H12 H 0.2398 0.4038 0.3058
C20 C 0.5343(3) 0.6572(2) 0.3513(3)
H13 H 0.5116 0.7080 0.3358
C21 C 0.4758(3) 0.5977(2) 0.3507(3)
H14 H 0.4155 0.6091 0.3363
C22 C 0.5072(2) 0.5214(2) 0.3717(2)
C23 C 0.5979(3) 0.5086(2) 0.3918(3)
H15 H 0.6219 0.4581 0.4056
C24 C 0.6519(3) 0.5710(2) 0.3914(3)
H16 H 0.7122 0.5610 0.4046
N1 N 0.3329(2) 0.33888(19) 0.3880(2)
N2 N 0.6217(2) 0.64506(18) 0.3729(2)
O1 O 0.32204(18) 0.19369(18) 0.51695(18)
O2 O 0.38960(18) 0.16077(17) 0.65000(17)
O3 O 0.6871(2) 0.0546(2) 0.5235(2)
O4 O 0.7165(2) 0.1499(2) 0.18279(18)
O5 O 0.8056(2) 0.23949(18) 0.2676(2)
Cd1A Cd 0.726187(16) 0.743891(14) 0.381617(16)
Cd1E Cd 0.273813(16) 0.256109(14) 0.618383(16)
Cd1B Cd 0.773813(16) 0.243891(14) 0.118383(16)
N2A N 0.1217(2) 0.14506(18) 0.3729(2)
O1E O 0.17796(18) 0.30631(18) 0.48305(18)
O2E O 0.11040(18) 0.33923(17) 0.35000(17)
O4B O 0.2835(2) 0.1499(2) 0.31721(18)
O5B O 0.1944(2) 0.23949(18) 0.2324(2)
loop_
_geom_bond_atom_site_label_1
_geom_bond_atom_site_label_2
_geom_bond_site_symmetry_1
_geom_bond_site_symmetry_2
Cd1 N1 1_555 1_555
C1 C2 1_555 1_555
C2 C3 1_555 1_555
C3 H1 1_555 1_555
C4 C3 1_555 1_555
H2 C4 1_555 1_555
C5 C4 1_555 1_555
C6 C5 1_555 1_555
H3 C6 1_555 1_555
C7 C2 1_555 1_555
H4 C7 1_555 1_555
C8 C9 1_555 1_555
C9 H5 1_555 1_555
C10 C9 1_555 1_555
H6 C10 1_555 1_555
C11 C10 1_555 1_555
C12 C11 1_555 1_555
H7 C12 1_555 1_555
C13 C8 1_555 1_555
H8 C13 1_555 1_555
C14 C11 1_555 1_555
C15 H9 1_555 1_555
C16 C15 1_555 1_555
H10 C16 1_555 1_555
C17 C16 1_555 1_555
C18 C17 1_555 1_555
H11 C18 1_555 1_555
C19 C18 1_555 1_555
H12 C19 1_555 1_555
C20 H13 1_555 1_555
C21 C20 1_555 1_555
H14 C21 1_555 1_555
C22 C17 1_555 1_555
C23 C22 1_555 1_555
H15 C23 1_555 1_555
C24 C23 1_555 1_555
H16 C24 1_555 1_555
N1 C15 1_555 1_555
N2 C20 1_555 1_555
O1 Cd1 1_555 1_555
O2 C1 1_555 1_555
O3 C5 1_555 1_555
O4 C14 1_555 1_555
O5 C14 1_555 1_555
Cd1A N2 1_555 1_555
Cd1E O1 1_555 1_555
Cd1B O4 1_555 1_555
N2A Cd1 1_555 1_555
O1E Cd1 1_555 1_555
O2E Cd1 1_555 1_555
O4B Cd1 1_555 1_555
O5B Cd1 1_555 1_555
C1 O1 1_555 1_555
C6 C7 1_555 1_555
C8 O3 1_555 1_555
C12 C13 1_555 1_555
C19 N1 1_555 1_555
C21 C22 1_555 1_555
C24 N2 1_555 1_555
O2 Cd1E 1_555 1_555
O5 Cd1B 1_555 1_555
Cd1E O1E 1_555 1_555

#END
