
#######################################################################
#
#                 Cambridge Crystallographic Data Centre
#                                CCDC 
#
#######################################################################
#
# If this CIF has been generated from an entry in the Cambridge 
# Structural Database, then it will include bibliographic, chemical, 
# crystal, experimental, refinement or atomic coordinate data resulting 
# from the CCDC's data processing and validation procedures.
#
#######################################################################

data_YIVTUT
_symmetry_cell_setting           monoclinic
_symmetry_space_group_name_H-M   'P 21/n'
_symmetry_Int_Tables_number      14
_space_group_name_Hall           '-P 2yn'
loop_
_symmetry_equiv_pos_site_id
_symmetry_equiv_pos_as_xyz
1 x,y,z
2 1/2-x,1/2+y,1/2-z
3 -x,-y,-z
4 1/2+x,1/2-y,1/2+z
_cell_length_a                   12.311(3)
_cell_length_b                   12.010(3)
_cell_length_c                   20.460(5)
_cell_angle_alpha                90
_cell_angle_beta                 93.378(4)
_cell_angle_gamma                90
_cell_volume                     3019.86
loop_
_atom_site_label
_atom_site_type_symbol
_atom_site_fract_x
_atom_site_fract_y
_atom_site_fract_z
Mn1 Mn 0.43643(7) 0.48378(7) 0.37989(4)
O1 O 0.5123(3) 0.3482(3) 0.40341(19)
O2 O 0.3681(3) 0.6157(3) 0.34518(18)
O3 O 0.3535(3) 0.4761(3) 0.45281(18)
H1 H 0.3775 0.4290 0.4867
O4 O 0.5684(4) 0.5818(4) 0.4328(2)
H2 H 0.5783 0.5670 0.4774
N1 N 0.6677(4) 0.2393(4) 0.4008(3)
N2 N 0.7579(5) 0.2268(5) 0.3642(3)
N3 N 0.5161(4) 0.5000(4) 0.2981(2)
N4 N 0.4681(4) 0.5821(4) 0.2550(2)
N5 N 0.1928(4) 0.8736(4) 0.1818(2)
C1 C 0.6543(5) 0.1635(5) 0.4535(3)
C2 C 0.5979(6) 0.1943(6) 0.5069(3)
H3 H 0.5674 0.2650 0.5091
C3 C 0.5875(7) 0.1184(8) 0.5573(4)
H4 H 0.5494 0.1382 0.5935
C4 C 0.6331(8) 0.0137(8) 0.5541(5)
H5 H 0.6272 -0.0366 0.5883
C5 C 0.6861(8) -0.0147(7) 0.5011(5)
H6 H 0.7150 -0.0860 0.4987
C6 C 0.6992(7) 0.0592(6) 0.4497(4)
H7 H 0.7373 0.0385 0.4137
C7 C 0.7449(6) 0.2987(5) 0.3162(3)
C8 C 0.8354(7) 0.3074(7) 0.2692(4)
H8 H 0.8869 0.2477 0.2787
H9 H 0.8042 0.2960 0.2250
C9 C 0.8957(7) 0.4152(8) 0.2712(5)
C10 C 0.9116(12) 0.4768(13) 0.3282(7)
H10 H 0.8839 0.4509 0.3667
C11 C 0.9685(19) 0.577(2) 0.3286(10)
H11 H 0.9789 0.6179 0.3670
C12 C 1.0081(15) 0.613(2) 0.2727(12)
H12 H 1.0497 0.6775 0.2733
C13 C 0.9893(14) 0.5582(17) 0.2162(11)
H13 H 1.0132 0.5871 0.1774
C14 C 0.9358(10) 0.4616(11) 0.2164(6)
H14 H 0.9251 0.4235 0.1770
C15 C 0.6487(5) 0.3621(5) 0.3203(3)
C16 C 0.6009(5) 0.3218(5) 0.3769(3)
C17 C 0.5994(5) 0.4447(5) 0.2780(3)
C18 C 0.6406(6) 0.4690(6) 0.2121(3)
H15 H 0.5821 0.4971 0.1837
H16 H 0.6685 0.4018 0.1940
H17 H 0.6975 0.5235 0.2165
C19 C 0.3938(5) 0.6343(5) 0.2847(3)
C20 C 0.3283(5) 0.7201(5) 0.2483(3)
C21 C 0.3212(6) 0.7251(6) 0.1806(3)
H18 H 0.3617 0.6770 0.1560
C22 C 0.2539(6) 0.8018(7) 0.1505(3)
H19 H 0.2503 0.8043 0.1050
C23 C 0.2029(6) 0.8694(6) 0.2473(3)
H20 H 0.1631 0.9199 0.2707
C24 C 0.2677(6) 0.7961(6) 0.2817(3)
H21 H 0.2714 0.7969 0.3272
C25 C 0.2584(6) 0.5356(6) 0.4602(4)
H22 H 0.2713 0.6133 0.4526
H23 H 0.2355 0.5257 0.5039
H24 H 0.2025 0.5092 0.4294
C26 C 0.6383(7) 0.6618(7) 0.4093(4)
H25 H 0.7058 0.6273 0.3996
H26 H 0.6518 0.7184 0.4420
H27 H 0.6054 0.6948 0.3703
Mn1A Mn 0.06357(7) 0.98378(7) 0.12011(4)
N5A N 0.3072(4) 0.3736(4) 0.3182(2)
Cl1 Cl 0.5866(4) 0.6855(4) -0.0675(2)
Cl2 Cl 0.4692(7) 0.6144(6) 0.0416(4)
Cl3 Cl 0.4868(5) 0.8441(5) 0.0139(3)
C27 C 0.5465(9) 0.7162(7) 0.0095(5)
H28 H 0.6135 0.7201 0.0378
loop_
_geom_bond_atom_site_label_1
_geom_bond_atom_site_label_2
_geom_bond_site_symmetry_1
_geom_bond_site_symmetry_2
Mn1 O1 1_555 1_555
O1 C16 1_555 1_555
O2 Mn1 1_555 1_555
O3 Mn1 1_555 1_555
H1 O3 1_555 1_555
O4 Mn1 1_555 1_555
H2 O4 1_555 1_555
N1 N2 1_555 1_555
N2 C7 1_555 1_555
N3 Mn1 1_555 1_555
N4 N3 1_555 1_555
N5 C22 1_555 1_555
C1 N1 1_555 1_555
C2 C1 1_555 1_555
H3 C2 1_555 1_555
C3 C2 1_555 1_555
H4 C3 1_555 1_555
C4 C3 1_555 1_555
H5 C4 1_555 1_555
C5 C4 1_555 1_555
H6 C5 1_555 1_555
C6 C1 1_555 1_555
H7 C6 1_555 1_555
C7 C8 1_555 1_555
C8 H8 1_555 1_555
H9 C8 1_555 1_555
C9 C8 1_555 1_555
C10 C9 1_555 1_555
H10 C10 1_555 1_555
C11 C10 1_555 1_555
H11 C11 1_555 1_555
C12 C11 1_555 1_555
H12 C12 1_555 1_555
C13 C12 1_555 1_555
H13 C13 1_555 1_555
C14 C9 1_555 1_555
H14 C14 1_555 1_555
C15 C7 1_555 1_555
C16 N1 1_555 1_555
C17 N3 1_555 1_555
C18 C17 1_555 1_555
H15 C18 1_555 1_555
H16 C18 1_555 1_555
H17 C18 1_555 1_555
C19 O2 1_555 1_555
C20 C19 1_555 1_555
C21 C20 1_555 1_555
H18 C21 1_555 1_555
C22 C21 1_555 1_555
H19 C22 1_555 1_555
C23 N5 1_555 1_555
H20 C23 1_555 1_555
C24 C20 1_555 1_555
H21 C24 1_555 1_555
C25 O3 1_555 1_555
H22 C25 1_555 1_555
H23 C25 1_555 1_555
H24 C25 1_555 1_555
C26 O4 1_555 1_555
H25 C26 1_555 1_555
H26 C26 1_555 1_555
H27 C26 1_555 1_555
Cl1 C27 1_555 1_555
Cl2 C27 1_555 1_555
Cl3 C27 1_555 1_555
C27 H28 1_555 1_555
Mn1A N5 1_555 1_555
N5A Mn1 1_555 1_555
N4 C19 1_555 1_555
C5 C6 1_555 1_555
C13 C14 1_555 1_555
C15 C16 1_555 1_555
C15 C17 1_555 1_555
C23 C24 1_555 1_555

#END
