
#######################################################################
#
#                 Cambridge Crystallographic Data Centre
#                                CCDC 
#
#######################################################################
#
# If this CIF has been generated from an entry in the Cambridge 
# Structural Database, then it will include bibliographic, chemical, 
# crystal, experimental, refinement or atomic coordinate data resulting 
# from the CCDC's data processing and validation procedures.
#
#######################################################################

data_YIVWEH
_symmetry_cell_setting           monoclinic
_symmetry_space_group_name_H-M   'C 2/c'
_symmetry_Int_Tables_number      15
_space_group_name_Hall           '-C 2yn'
loop_
_symmetry_equiv_pos_site_id
_symmetry_equiv_pos_as_xyz
1 x,y,z
2 -x,y,1/2-z
3 1/2+x,1/2+y,z
4 1/2-x,1/2+y,1/2-z
5 -x,-y,-z
6 x,-y,1/2+z
7 1/2-x,1/2-y,-z
8 1/2+x,1/2-y,1/2+z
_cell_length_a                   23.010(3)
_cell_length_b                   5.8131(7)
_cell_length_c                   15.1544(17)
_cell_angle_alpha                90
_cell_angle_beta                 102.782(3)
_cell_angle_gamma                90
_cell_volume                     1976.81
loop_
_atom_site_label
_atom_site_type_symbol
_atom_site_fract_x
_atom_site_fract_y
_atom_site_fract_z
Li1 Li 0.2860(3) -0.3711(11) -0.0352(5)
P1 P 0.33280(4) 0.12830(16) 0.06202(6)
C1 C 0.41270(17) 0.0879(7) 0.0866(3)
C2 C 0.4387(2) -0.1139(9) 0.1202(5)
H1 H 0.4150 -0.2368 0.1300
C3 C 0.5006(3) -0.1374(11) 0.1401(5)
H2 H 0.5177 -0.2764 0.1626
C4 C 0.5359(2) 0.0398(10) 0.1272(4)
H3 H 0.5771 0.0230 0.1412
C5 C 0.5113(2) 0.2393(10) 0.0941(4)
H4 H 0.5354 0.3610 0.0845
C6 C 0.4496(2) 0.2649(9) 0.0740(4)
H5 H 0.4331 0.4048 0.0516
C7 C 0.31413(18) 0.2117(7) 0.1672(3)
H6 H 0.2713 0.2320 0.1559
H7 H 0.3243 0.0849 0.2094
C8 C 0.3432(2) 0.4272(7) 0.2130(3)
H8 H 0.3860 0.4161 0.2191
H9 H 0.3292 0.5587 0.1748
C9 C 0.33046(17) 0.4671(7) 0.3046(3)
O1 O 0.30071(12) -0.0963(4) 0.03411(18)
O2 O 0.32025(12) 0.3261(5) -0.00448(17)
O3 O 0.35076(17) 0.6664(6) 0.3398(2)
H10 H 0.345(3) 0.666(11) 0.392(2)
O4 O 0.30462(15) 0.3318(5) 0.3425(2)
Li1_2 Li 0.2860(3) 0.6289(11) -0.0352(5)
Li1E Li 0.2860(3) 0.3711(11) 0.4648(5)
Li1F Li 0.2140(3) -0.1289(11) 0.0352(5)
O1F O 0.19929(12) -0.4037(4) -0.03411(18)
O2_2 O 0.32025(12) -0.6739(5) -0.00448(17)
O4E O 0.30462(15) -0.3318(5) -0.1575(2)
loop_
_geom_bond_atom_site_label_1
_geom_bond_atom_site_label_2
_geom_bond_site_symmetry_1
_geom_bond_site_symmetry_2
Li1 O1 1_555 1_555
P1 C1 1_555 1_555
C1 C2 1_555 1_555
C2 H1 1_555 1_555
C3 C2 1_555 1_555
H2 C3 1_555 1_555
C4 C3 1_555 1_555
H3 C4 1_555 1_555
C5 C4 1_555 1_555
H4 C5 1_555 1_555
C6 C1 1_555 1_555
H5 C6 1_555 1_555
C7 P1 1_555 1_555
H6 C7 1_555 1_555
H7 C7 1_555 1_555
C8 C7 1_555 1_555
H8 C8 1_555 1_555
H9 C8 1_555 1_555
C9 C8 1_555 1_555
O1 P1 1_555 1_555
O2 P1 1_555 1_555
O3 C9 1_555 1_555
H10 O3 1_555 1_555
O4 C9 1_555 1_555
Li1_2 O2 1_555 1_555
Li1E O4 1_555 1_555
Li1F O1 1_555 1_555
O1F Li1 1_555 1_555
O2_2 Li1 1_555 1_555
O4E Li1 1_555 1_555
C5 C6 1_555 1_555
Li1F O1F 1_555 1_555

#END
