
#######################################################################
#
#                 Cambridge Crystallographic Data Centre
#                                CCDC 
#
#######################################################################
#
# If this CIF has been generated from an entry in the Cambridge 
# Structural Database, then it will include bibliographic, chemical, 
# crystal, experimental, refinement or atomic coordinate data resulting 
# from the CCDC's data processing and validation procedures.
#
#######################################################################

data_YIVXAE
_symmetry_cell_setting           monoclinic
_symmetry_space_group_name_H-M   'C 2/c'
_symmetry_Int_Tables_number      15
_space_group_name_Hall           '-C 2yn'
loop_
_symmetry_equiv_pos_site_id
_symmetry_equiv_pos_as_xyz
1 x,y,z
2 -x,y,1/2-z
3 1/2+x,1/2+y,z
4 1/2-x,1/2+y,1/2-z
5 -x,-y,-z
6 x,-y,1/2+z
7 1/2-x,1/2-y,-z
8 1/2+x,1/2-y,1/2+z
_cell_length_a                   16.5174(11)
_cell_length_b                   10.9988(7)
_cell_length_c                   21.3902(15)
_cell_angle_alpha                90
_cell_angle_beta                 95.814(2)
_cell_angle_gamma                90
_cell_volume                     3866
loop_
_atom_site_label
_atom_site_type_symbol
_atom_site_fract_x
_atom_site_fract_y
_atom_site_fract_z
C1 C 0.1193(2) 0.8486(3) 0.17855(17)
C2 C 0.1107(2) 0.7755(3) 0.12476(17)
H1 H 0.0798 0.7048 0.1247
C3 C 0.1469(3) 0.8063(4) 0.07205(19)
H2 H 0.1399 0.7562 0.0369
C4 C 0.1936(3) 0.9101(4) 0.0700(2)
H3 H 0.2170 0.9311 0.0337
C5 C 0.2045(3) 0.9810(4) 0.1224(2)
H4 H 0.2371 1.0499 0.1219
C6 C 0.1682(2) 0.9535(3) 0.17719(17)
C7 C 0.1853(2) 1.0341(3) 0.2298(2)
H5 H 0.2167 1.1021 0.2230
C8 C 0.1884(3) 1.1170(4) 0.3315(2)
H6 H 0.2339 1.1618 0.3177
H7 H 0.2064 1.0789 0.3714
C9 C 0.1196(4) 1.2035(4) 0.3402(3)
H8 H 0.1366 1.2574 0.3749
H9 H 0.1100 1.2532 0.3027
C10 C 0.0412(4) 1.1455(4) 0.3525(3)
H10 H 0.0204 1.1004 0.3153
H11 H 0.0022 1.2093 0.3588
C11 C 0.0452(3) 1.0613(4) 0.4078(2)
H12 H 0.0790 1.0984 0.4424
H13 H -0.0091 1.0524 0.4207
C12 C 0.0858(3) 0.8674(4) 0.4436(2)
H14 H 0.0832 0.9037 0.4826
C13 C 0.0979(2) 0.7378(4) 0.44385(18)
C14 C 0.1136(3) 0.6794(5) 0.5022(2)
H15 H 0.1235 0.7260 0.5385
C15 C 0.1147(3) 0.5549(5) 0.5067(2)
H16 H 0.1261 0.5173 0.5455
C16 C 0.0986(3) 0.4864(4) 0.4532(2)
H17 H 0.0981 0.4021 0.4562
C17 C 0.0835(2) 0.5401(3) 0.39549(19)
H18 H 0.0731 0.4917 0.3599
C18 C 0.0833(2) 0.6672(3) 0.38927(17)
C19 C -0.1019(2) 0.4539(3) 0.2988(2)
C20 C -0.1980(2) 0.3340(3) 0.33487(18)
Co1 Co 0.0000 0.67431(5) 0.2500
Cu1 Cu 0.10721(3) 0.87807(3) 0.31373(2)
N1 N 0.16227(19) 1.0228(3) 0.28492(15)
N2 N 0.07803(19) 0.9386(3) 0.39613(16)
N3 N -0.2595(2) 0.3082(3) 0.34975(19)
N4 N -0.07345(19) 0.5397(3) 0.28074(16)
N5 N -0.1247(2) 0.3500(3) 0.3196(2)
O1 O 0.08234(14) 0.8194(2) 0.22885(11)
O2 O 0.06753(14) 0.7185(2) 0.33361(11)
C1A C -0.1193(2) 0.8486(3) 0.32145(17)
C2A C -0.1107(2) 0.7755(3) 0.37524(17)
H1A H -0.0798 0.7048 0.3753
C3A C -0.1469(3) 0.8063(4) 0.42795(19)
H2A H -0.1399 0.7562 0.4631
C4A C -0.1936(3) 0.9101(4) 0.4300(2)
H3A H -0.2170 0.9311 0.4663
C5A C -0.2045(3) 0.9810(4) 0.3776(2)
H4A H -0.2371 1.0499 0.3781
C6A C -0.1682(2) 0.9535(3) 0.32281(17)
C7A C -0.1853(2) 1.0341(3) 0.2702(2)
H5A H -0.2167 1.1021 0.2770
C8A C -0.1884(3) 1.1170(4) 0.1685(2)
H6A H -0.2339 1.1618 0.1823
H7A H -0.2064 1.0789 0.1286
C9A C -0.1196(4) 1.2035(4) 0.1598(3)
H8A H -0.1366 1.2574 0.1251
H9A H -0.1100 1.2532 0.1973
C10A C -0.0412(4) 1.1455(4) 0.1475(3)
H10A H -0.0204 1.1004 0.1847
H11A H -0.0022 1.2093 0.1412
C11A C -0.0452(3) 1.0613(4) 0.0922(2)
H12A H -0.0790 1.0984 0.0576
H13A H 0.0091 1.0524 0.0793
C12A C -0.0858(3) 0.8674(4) 0.0564(2)
H14A H -0.0832 0.9037 0.0174
C13A C -0.0979(2) 0.7378(4) 0.05615(18)
C14A C -0.1136(3) 0.6794(5) -0.0022(2)
H15A H -0.1235 0.7260 -0.0385
C15A C -0.1147(3) 0.5549(5) -0.0067(2)
H16A H -0.1261 0.5173 -0.0455
C16A C -0.0986(3) 0.4864(4) 0.0468(2)
H17A H -0.0981 0.4021 0.0438
C17A C -0.0835(2) 0.5401(3) 0.10451(19)
H18A H -0.0731 0.4917 0.1401
C18A C -0.0833(2) 0.6672(3) 0.11073(17)
C19A C 0.1019(2) 0.4539(3) 0.2012(2)
C20A C 0.1980(2) 0.3340(3) 0.16513(18)
Cu1A Cu -0.10721(3) 0.87807(3) 0.18627(2)
N1A N -0.16227(19) 1.0228(3) 0.21508(15)
N2A N -0.07803(19) 0.9386(3) 0.10387(16)
N3A N 0.2595(2) 0.3082(3) 0.15025(19)
N4A N 0.07345(19) 0.5397(3) 0.21926(16)
N5A N 0.1247(2) 0.3500(3) 0.1804(2)
O1A O -0.08234(14) 0.8194(2) 0.27115(11)
O2A O -0.06753(14) 0.7185(2) 0.16639(11)
Cu1B Cu -0.39279(3) 0.37807(3) 0.31373(2)
Cu1C Cu 0.39279(3) 0.37807(3) 0.18627(2)
N3B N 0.2405(2) 0.8082(3) 0.34975(19)
N3C N -0.2405(2) 0.8082(3) 0.15025(19)
loop_
_geom_bond_atom_site_label_1
_geom_bond_atom_site_label_2
_geom_bond_site_symmetry_1
_geom_bond_site_symmetry_2
C1 C2 1_555 1_555
C2 H1 1_555 1_555
C3 C2 1_555 1_555
H2 C3 1_555 1_555
C4 C3 1_555 1_555
H3 C4 1_555 1_555
C5 C4 1_555 1_555
H4 C5 1_555 1_555
C6 C1 1_555 1_555
C7 C6 1_555 1_555
H5 C7 1_555 1_555
C8 H6 1_555 1_555
H7 C8 1_555 1_555
C9 C8 1_555 1_555
H8 C9 1_555 1_555
H9 C9 1_555 1_555
C10 C9 1_555 1_555
H10 C10 1_555 1_555
H11 C10 1_555 1_555
C11 C10 1_555 1_555
H12 C11 1_555 1_555
H13 C11 1_555 1_555
C12 H14 1_555 1_555
C13 C12 1_555 1_555
C14 C13 1_555 1_555
H15 C14 1_555 1_555
C15 C14 1_555 1_555
H16 C15 1_555 1_555
C16 C15 1_555 1_555
H17 C16 1_555 1_555
C17 C16 1_555 1_555
H18 C17 1_555 1_555
C18 C13 1_555 1_555
C19 N4 1_555 1_555
C20 N3 1_555 1_555
Co1 N4 1_555 1_555
Cu1 N1 1_555 1_555
N1 C7 1_555 1_555
N2 C11 1_555 1_555
N3 Cu1B 1_555 1_555
N5 C19 1_555 1_555
O1 C1 1_555 1_555
O2 C18 1_555 1_555
C1A C2A 1_555 1_555
C2A H1A 1_555 1_555
C3A C2A 1_555 1_555
H2A C3A 1_555 1_555
C4A C3A 1_555 1_555
H3A C4A 1_555 1_555
C5A C4A 1_555 1_555
H4A C5A 1_555 1_555
C6A C1A 1_555 1_555
C7A C6A 1_555 1_555
H5A C7A 1_555 1_555
C8A H6A 1_555 1_555
H7A C8A 1_555 1_555
C9A C8A 1_555 1_555
H8A C9A 1_555 1_555
H9A C9A 1_555 1_555
C10A C9A 1_555 1_555
H10A C10A 1_555 1_555
H11A C10A 1_555 1_555
C11A C10A 1_555 1_555
H12A C11A 1_555 1_555
H13A C11A 1_555 1_555
C12A H14A 1_555 1_555
C13A C12A 1_555 1_555
C14A C13A 1_555 1_555
H15A C14A 1_555 1_555
C15A C14A 1_555 1_555
H16A C15A 1_555 1_555
C16A C15A 1_555 1_555
H17A C16A 1_555 1_555
C17A C16A 1_555 1_555
H18A C17A 1_555 1_555
C18A C13A 1_555 1_555
C19A N4A 1_555 1_555
C20A N3A 1_555 1_555
Cu1A N1A 1_555 1_555
N1A C7A 1_555 1_555
N2A C11A 1_555 1_555
N3A Cu1C 1_555 1_555
N4A Co1 1_555 1_555
N5A C19A 1_555 1_555
O1A Co1 1_555 1_555
O2A Co1 1_555 1_555
N3B Cu1 1_555 1_555
N3C Cu1A 1_555 1_555
C5 C6 1_555 1_555
C8 N1 1_555 1_555
C12 N2 1_555 1_555
C17 C18 1_555 1_555
C20 N5 1_555 1_555
Co1 O1 1_555 1_555
Co1 O2 1_555 1_555
Cu1 N2 1_555 1_555
Cu1 O1 1_555 1_555
Cu1 O2 1_555 1_555
C1A O1A 1_555 1_555
C5A C6A 1_555 1_555
C8A N1A 1_555 1_555
C12A N2A 1_555 1_555
C17A C18A 1_555 1_555
C18A O2A 1_555 1_555
C20A N5A 1_555 1_555
Cu1A N2A 1_555 1_555
Cu1A O1A 1_555 1_555
Cu1A O2A 1_555 1_555

#END
