
#######################################################################
#
#                 Cambridge Crystallographic Data Centre
#                                CCDC 
#
#######################################################################
#
# If this CIF has been generated from an entry in the Cambridge 
# Structural Database, then it will include bibliographic, chemical, 
# crystal, experimental, refinement or atomic coordinate data resulting 
# from the CCDC's data processing and validation procedures.
#
#######################################################################

data_YIVZEI
_symmetry_cell_setting           triclinic
_symmetry_space_group_name_H-M   'P -1'
_symmetry_Int_Tables_number      2
_space_group_name_Hall           '-P 1'
loop_
_symmetry_equiv_pos_site_id
_symmetry_equiv_pos_as_xyz
1 x,y,z
2 -x,-y,-z
_cell_length_a                   8.254(2)
_cell_length_b                   8.605(2)
_cell_length_c                   9.066(2)
_cell_angle_alpha                95.38(2)
_cell_angle_beta                 115.82(2)
_cell_angle_gamma                110.39(2)
_cell_volume                     519.808
loop_
_atom_site_label
_atom_site_type_symbol
_atom_site_fract_x
_atom_site_fract_y
_atom_site_fract_z
Gd1 Gd 0.0819(1) 0.0070(1) -0.7357(1)
O1 O 0.2577(6) 0.2909(5) -0.7540(5)
O2 O -0.0318(7) 0.2168(5) -0.6618(5)
O3 O 0.2081(6) -0.1627(5) -0.5446(5)
O5 O 0.3427(6) 0.1878(5) -0.4559(4)
O6 O -0.1798(6) -0.1351(6) -0.6869(6)
O7 O 0.9194(5) 0.7067(6) 0.0905(5)
O8 O 0.9319(7) 0.5124(5) 0.2368(5)
O9 O 0.1514(5) -0.0205(5) -0.9923(4)
O10 O 0.3887(5) 0.0097(5) -0.7377(5)
C1 C 0.8549(7) 0.5575(6) 0.1084(6)
C2 C 0.6693(9) 0.4280(7) -0.0426(7)
C3 C 0.5172(8) 0.3267(7) -0.1668(7)
C4 C 0.3328(7) 0.2073(6) -0.3239(6)
C5 C 0.4518(8) -0.0007(8) -0.9667(7)
C6 C 0.3232(7) -0.0050(6) -0.8954(6)
O9A O -0.1514(5) 0.0205(5) -1.0077(4)
C4A C -0.3328(7) -0.2073(6) -0.6761(6)
Gd1A Gd -0.0819(1) -0.0070(1) -1.2643(1)
O6A O 0.1798(6) 0.1351(6) -0.3131(6)
C5A C 0.5482(8) 0.0007(8) -1.0333(7)
Gd1A_2 Gd -0.0819(1) -0.0070(1) -0.2643(1)
O1A O -0.2577(6) -0.2909(5) -0.2460(5)
O2A O 0.0318(7) -0.2168(5) -0.3382(5)
O3A O -0.2081(6) 0.1627(5) -0.4554(5)
O5A O -0.3427(6) -0.1878(5) -0.5441(4)
O7A O 0.0806(5) 0.2933(6) -0.0905(5)
O9_2 O 0.1514(5) -0.0205(5) 0.0077(4)
O9A_2 O -0.1514(5) 0.0205(5) -0.0077(4)
O10A O -0.3887(5) -0.0097(5) -0.2623(5)
C3A C -0.5172(8) -0.3267(7) -0.8332(7)
C2A C -0.6693(9) -0.4280(7) -0.9574(7)
C1A C -0.8549(7) -0.5575(6) -1.1084(6)
O7_2 O -0.0806(5) -0.2933(6) -0.9095(5)
O7A_2 O -0.9194(5) -0.7067(6) -1.0905(5)
O8A O -0.9319(7) -0.5124(5) -1.2368(5)
Gd1_2 Gd 1.0819(1) 1.0070(1) 0.2643(1)
Gd1A_3 Gd -1.0819(1) -1.0070(1) -1.2643(1)
C6A C 0.6768(7) 0.0050(6) -1.1046(6)
O9A_3 O 0.8486(5) 0.0205(5) -1.0077(4)
O10A_2 O 0.6113(5) -0.0097(5) -1.2623(5)
Gd1_3 Gd 1.0819(1) 0.0070(1) -0.7357(1)
Gd1A_4 Gd 0.9181(1) -0.0070(1) -1.2643(1)
O4 O 0.6687(10) 0.4389(9) -0.5808(12)
loop_
_geom_bond_atom_site_label_1
_geom_bond_atom_site_label_2
_geom_bond_site_symmetry_1
_geom_bond_site_symmetry_2
Gd1 O1 1_555 1_555
O2 Gd1 1_555 1_555
O3 Gd1 1_555 1_555
O5 Gd1 1_555 1_555
O6 Gd1 1_555 1_555
O7 C1 1_555 1_555
O8 C1 1_555 1_555
O9 Gd1 1_555 1_555
O10 Gd1 1_555 1_555
C1 C2 1_555 1_555
C2 C3 1_555 1_555
C3 C4 1_555 1_555
C4 O5 1_555 1_555
C5 C6 1_555 1_555
C6 O9 1_555 1_555
O9A Gd1 1_555 1_555
C4A O6 1_555 1_555
Gd1A O9 1_555 1_555
O6A C4 1_555 1_555
C5A C5 1_555 1_555
Gd1A_2 O6A 1_555 1_555
O1A Gd1A_2 1_555 1_555
O2A Gd1A_2 1_555 1_555
O3A Gd1A_2 1_555 1_555
O5A C4A 1_555 1_555
O7A Gd1A_2 1_555 1_555
O9_2 Gd1A_2 1_555 1_555
O9A_2 Gd1A_2 1_555 1_555
O10A Gd1A_2 1_555 1_555
C3A C4A 1_555 1_555
C2A C3A 1_555 1_555
C1A C2A 1_555 1_555
O7_2 Gd1 1_555 1_555
O7A_2 C1A 1_555 1_555
O8A C1A 1_555 1_555
Gd1_2 O7 1_555 1_555
Gd1A_3 O7A_2 1_555 1_555
C6A C5A 1_555 1_555
O9A_3 C6A 1_555 1_555
O10A_2 C6A 1_555 1_555
Gd1_3 O9A_3 1_555 1_555
Gd1A_4 O9A_3 1_555 1_555
O10 C6 1_555 1_555
O9A Gd1A 1_555 1_555
Gd1A_2 O5A 1_555 1_555
O10A_2 Gd1A_4 1_555 1_555

#END
