
#######################################################################
#
#                 Cambridge Crystallographic Data Centre
#                                CCDC 
#
#######################################################################
#
# If this CIF has been generated from an entry in the Cambridge 
# Structural Database, then it will include bibliographic, chemical, 
# crystal, experimental, refinement or atomic coordinate data resulting 
# from the CCDC's data processing and validation procedures.
#
#######################################################################

data_YIWCIS
_symmetry_cell_setting           triclinic
_symmetry_space_group_name_H-M   'P -1'
_symmetry_Int_Tables_number      2
_space_group_name_Hall           '-P 1'
loop_
_symmetry_equiv_pos_site_id
_symmetry_equiv_pos_as_xyz
1 x,y,z
2 -x,-y,-z
_cell_length_a                   8.6945(17)
_cell_length_b                   8.9967(18)
_cell_length_c                   13.246(3)
_cell_angle_alpha                86.66(3)
_cell_angle_beta                 89.75(3)
_cell_angle_gamma                74.51(3)
_cell_volume                     996.727
loop_
_atom_site_label
_atom_site_type_symbol
_atom_site_fract_x
_atom_site_fract_y
_atom_site_fract_z
Eu1 Eu 0.28803(4) 0.68572(4) 0.99147(3)
Cd1 Cd -0.13521(6) 0.83519(6) 0.78527(4)
S1 S 0.2095(2) 0.5584(2) 0.79627(14)
O1 O -0.4040(6) 0.9456(6) 0.8380(4)
O2 O 0.4225(7) 0.7191(7) 1.1475(5)
H1 H 0.5134 0.6529 1.1524
H2 H 0.4351 0.8100 1.1470
O3 O -0.2157(6) 0.6587(6) 0.8824(5)
O4 O 0.0866(7) 0.6445(6) 1.1029(4)
H3 H 0.0571 0.5643 1.0865
H4 H 0.1224 0.6288 1.1647
O5 O 0.0390(6) 0.8624(5) 0.9101(4)
O6 O -0.1615(6) 1.0744(6) 0.9192(4)
O7 O -0.5987(6) 0.8847(6) 0.9278(5)
O8 O -0.4210(6) 0.5922(5) 0.9547(4)
O9 O 0.3197(7) 0.6547(7) 0.8099(4)
O10 O 0.1528(7) 0.5302(6) 0.9001(4)
O11 O 0.0762(6) 0.6395(6) 0.7307(4)
O12 O 0.2921(8) 0.4124(7) 0.7552(5)
N1 N -0.2563(8) 0.7777(8) 0.6416(5)
N2 N -0.1437(8) 1.0272(8) 0.6625(5)
C1 C -0.3115(12) 0.6552(11) 0.6350(8)
H5 H -0.3071 0.5884 0.6918
C2 C -0.3756(14) 0.6237(14) 0.5458(9)
H6 H -0.4124 0.5360 0.5424
C3 C -0.3839(12) 0.7227(15) 0.4632(9)
H7 H -0.4260 0.7027 0.4025
C4 C -0.3291(11) 0.8546(13) 0.4696(7)
C5 C -0.3380(15) 0.9638(18) 0.3876(7)
H8 H -0.3867 0.9518 0.3273
C6 C -0.2777(14) 1.0835(18) 0.3952(7)
H9 H -0.2784 1.1499 0.3386
C7 C -0.2117(12) 1.1130(13) 0.4882(7)
C8 C -0.1461(14) 1.2370(14) 0.5018(8)
H10 H -0.1435 1.3071 0.4478
C9 C -0.0869(14) 1.2555(11) 0.5926(9)
H11 H -0.0472 1.3401 0.6018
C10 C -0.0853(12) 1.1471(11) 0.6727(8)
H12 H -0.0420 1.1595 0.7347
C11 C -0.2045(10) 1.0071(10) 0.5730(6)
C12 C -0.2669(10) 0.8771(11) 0.5628(6)
C13 C -0.4618(8) 0.8548(8) 0.8903(5)
C14 C -0.3575(9) 0.6876(8) 0.9114(6)
C15 C -0.0356(8) 0.9834(8) 0.9515(5)
O5A O -0.0390(6) 1.1376(5) 1.0899(4)
O6A O 0.1615(6) 0.9256(6) 1.0808(4)
C15A C 0.0356(8) 1.0166(8) 1.0485(5)
Eu1A Eu -0.28803(4) 0.31428(4) 1.00853(3)
Cd1A Cd 0.13521(6) 0.16481(6) 1.21473(4)
S1A S -0.2095(2) 0.4416(2) 1.20373(14)
O1A O 0.4040(6) 0.0544(6) 1.1620(4)
O2A O -0.4225(7) 0.2809(7) 0.8525(5)
H1A H -0.5134 0.3471 0.8476
H2A H -0.4351 0.1900 0.8530
O3A O 0.2157(6) 0.3413(6) 1.1176(5)
O4A O -0.0866(7) 0.3555(6) 0.8971(4)
H3A H -0.0571 0.4357 0.9135
H4A H -0.1224 0.3712 0.8353
O7A O 0.5987(6) 0.1153(6) 1.0722(5)
O8A O 0.4210(6) 0.4078(5) 1.0453(4)
O9A O -0.3197(7) 0.3453(7) 1.1901(4)
O10A O -0.1528(7) 0.4698(6) 1.0999(4)
O11A O -0.0762(6) 0.3605(6) 1.2693(4)
O12A O -0.2921(8) 0.5876(7) 1.2448(5)
N1A N 0.2563(8) 0.2223(8) 1.3584(5)
N2A N 0.1437(8) -0.0272(8) 1.3375(5)
C1A C 0.3115(12) 0.3448(11) 1.3650(8)
H5A H 0.3071 0.4116 1.3082
C2A C 0.3756(14) 0.3763(14) 1.4542(9)
H6A H 0.4124 0.4640 1.4576
C3A C 0.3839(12) 0.2773(15) 1.5368(9)
H7A H 0.4260 0.2973 1.5975
C4A C 0.3291(11) 0.1454(13) 1.5304(7)
C5A C 0.3380(15) 0.0362(18) 1.6124(7)
H8A H 0.3867 0.0482 1.6727
C6A C 0.2777(14) -0.0835(18) 1.6048(7)
H9A H 0.2784 -0.1499 1.6614
C7A C 0.2117(12) -0.1130(13) 1.5118(7)
C8A C 0.1461(14) -0.2370(14) 1.4982(8)
H10A H 0.1435 -0.3071 1.5522
C9A C 0.0869(14) -0.2555(11) 1.4074(9)
H11A H 0.0472 -0.3401 1.3982
C10A C 0.0853(12) -0.1471(11) 1.3273(8)
H12A H 0.0420 -0.1595 1.2653
C11A C 0.2045(10) -0.0071(10) 1.4270(6)
C12A C 0.2669(10) 0.1229(11) 1.4372(6)
C13A C 0.4618(8) 0.1452(8) 1.1097(5)
C14A C 0.3575(9) 0.3124(8) 1.0886(6)
Eu1_2 Eu -0.71197(4) 0.68572(4) 0.99147(3)
Eu1A_2 Eu -0.28803(4) 1.31428(4) 1.00853(3)
Eu1A_3 Eu 0.71197(4) 0.31428(4) 1.00853(3)
Cd1A_2 Cd 0.13521(6) 1.16481(6) 1.21473(4)
O5A_2 O -0.0390(6) 0.1376(5) 1.0899(4)
O6_2 O -0.1615(6) 0.0744(6) 0.9192(4)
O7_2 O 0.4013(6) 0.8847(6) 0.9278(5)
O7A_2 O -0.4013(6) 0.1153(6) 1.0722(5)
O8_2 O 0.5790(6) 0.5922(5) 0.9547(4)
O8A_2 O -0.5790(6) 0.4078(5) 1.0453(4)
O13 O -0.1992(10) 0.8335(10) 1.1312(11)
H13 H -0.2363 0.7759 1.1723
H14 H -0.2758 0.9017 1.1024
loop_
_geom_bond_atom_site_label_1
_geom_bond_atom_site_label_2
_geom_bond_site_symmetry_1
_geom_bond_site_symmetry_2
Eu1 O2 1_555 1_555
Cd1 O1 1_555 1_555
S1 O9 1_555 1_555
O1 C13 1_555 1_555
O2 H1 1_555 1_555
H2 O2 1_555 1_555
O3 Cd1 1_555 1_555
O4 Eu1 1_555 1_555
H3 O4 1_555 1_555
H4 O4 1_555 1_555
O5 Eu1 1_555 1_555
O6 C15 1_555 1_555
O7 C13 1_555 1_555
O8 C14 1_555 1_555
O9 Eu1 1_555 1_555
O10 Eu1 1_555 1_555
O11 Cd1 1_555 1_555
O12 S1 1_555 1_555
N1 Cd1 1_555 1_555
N2 Cd1 1_555 1_555
C1 N1 1_555 1_555
H5 C1 1_555 1_555
C2 C1 1_555 1_555
H6 C2 1_555 1_555
C3 C2 1_555 1_555
H7 C3 1_555 1_555
C4 C3 1_555 1_555
C5 C4 1_555 1_555
H8 C5 1_555 1_555
C6 C5 1_555 1_555
H9 C6 1_555 1_555
C7 C6 1_555 1_555
C8 C7 1_555 1_555
H10 C8 1_555 1_555
C9 C8 1_555 1_555
H11 C9 1_555 1_555
C10 N2 1_555 1_555
H12 C10 1_555 1_555
C11 N2 1_555 1_555
C12 N1 1_555 1_555
C13 C14 1_555 1_555
C14 O3 1_555 1_555
C15 O5 1_555 1_555
O13 H13 1_555 1_555
H14 O13 1_555 1_555
O5A C15A 1_555 1_555
O6A Eu1 1_555 1_555
C15A C15 1_555 1_555
Eu1A O8 1_555 1_555
Cd1A O1A 1_555 1_555
S1A O9A 1_555 1_555
O1A C13A 1_555 1_555
O2A Eu1A 1_555 1_555
H1A O2A 1_555 1_555
H2A O2A 1_555 1_555
O3A Cd1A 1_555 1_555
O4A Eu1A 1_555 1_555
H3A O4A 1_555 1_555
H4A O4A 1_555 1_555
O7A C13A 1_555 1_555
O8A Eu1 1_555 1_555
O9A Eu1A 1_555 1_555
O10A Eu1A 1_555 1_555
O11A Cd1A 1_555 1_555
O12A S1A 1_555 1_555
N1A Cd1A 1_555 1_555
N2A Cd1A 1_555 1_555
C1A N1A 1_555 1_555
H5A C1A 1_555 1_555
C2A C1A 1_555 1_555
H6A C2A 1_555 1_555
C3A C2A 1_555 1_555
H7A C3A 1_555 1_555
C4A C3A 1_555 1_555
C5A C4A 1_555 1_555
H8A C5A 1_555 1_555
C6A C5A 1_555 1_555
H9A C6A 1_555 1_555
C7A C6A 1_555 1_555
C8A C7A 1_555 1_555
H10A C8A 1_555 1_555
C9A C8A 1_555 1_555
H11A C9A 1_555 1_555
C10A N2A 1_555 1_555
H12A C10A 1_555 1_555
C11A N2A 1_555 1_555
C12A N1A 1_555 1_555
C13A C14A 1_555 1_555
C14A O3A 1_555 1_555
Eu1_2 O7 1_555 1_555
Eu1A_2 O6 1_555 1_555
Eu1A_3 O7A 1_555 1_555
Cd1A_2 O5A 1_555 1_555
O5A_2 Eu1A 1_555 1_555
O6_2 Eu1A 1_555 1_555
O7_2 Eu1 1_555 1_555
O7A_2 Eu1A 1_555 1_555
O8_2 Eu1 1_555 1_555
O8A_2 Eu1A 1_555 1_555
Cd1 O5 1_555 1_555
S1 O10 1_555 1_555
S1 O11 1_555 1_555
O8 Eu1_2 1_555 1_555
C4 C12 1_555 1_555
C7 C11 1_555 1_555
C9 C10 1_555 1_555
C11 C12 1_555 1_555
O5A Eu1A_2 1_555 1_555
O6A C15A 1_555 1_555
Cd1A O5A_2 1_555 1_555
S1A O10A 1_555 1_555
S1A O11A 1_555 1_555
O8A C14A 1_555 1_555
O8A Eu1A_3 1_555 1_555
C4A C12A 1_555 1_555
C7A C11A 1_555 1_555
C9A C10A 1_555 1_555
C11A C12A 1_555 1_555
Eu1_2 O8A_2 1_555 1_555
Eu1A_3 O8_2 1_555 1_555

#END
