
#######################################################################
#
#                 Cambridge Crystallographic Data Centre
#                                CCDC 
#
#######################################################################
#
# If this CIF has been generated from an entry in the Cambridge 
# Structural Database, then it will include bibliographic, chemical, 
# crystal, experimental, refinement or atomic coordinate data resulting 
# from the CCDC's data processing and validation procedures.
#
#######################################################################

data_YIWCEO
_symmetry_cell_setting           triclinic
_symmetry_space_group_name_H-M   'P -1'
_symmetry_Int_Tables_number      2
_space_group_name_Hall           '-P 1'
loop_
_symmetry_equiv_pos_site_id
_symmetry_equiv_pos_as_xyz
1 x,y,z
2 -x,-y,-z
_cell_length_a                   8.8213(18)
_cell_length_b                   9.1383(18)
_cell_length_c                   13.398(3)
_cell_angle_alpha                86.62(3)
_cell_angle_beta                 89.74(3)
_cell_angle_gamma                74.37(3)
_cell_volume                     1038.22
loop_
_atom_site_label
_atom_site_type_symbol
_atom_site_fract_x
_atom_site_fract_y
_atom_site_fract_z
Sm1 Sm 0.21188(4) 0.81422(4) 0.50826(3)
Cd1 Cd 0.36530(7) 0.33444(7) 0.28486(5)
S1 S 0.2908(3) 0.9419(3) 0.70401(17)
O1 O 0.0977(7) 0.6162(7) 0.5732(5)
O2 O 0.0772(9) 0.7794(8) 0.3530(6)
H1 H 0.0937 0.6846 0.3449
H2 H -0.0214 0.8199 0.3579
O3 O -0.0784(7) 0.9069(6) 0.5459(5)
O4 O 0.4137(7) 0.8569(7) 0.3970(5)
H3 H 0.5033 0.7946 0.4137
H4 H 0.3911 0.8431 0.3364
O5 O -0.2847(7) 0.8396(8) 0.6170(6)
O6 O -0.0972(7) 0.5548(7) 0.6619(5)
O7 O 0.5388(7) 0.3641(6) 0.4091(5)
O8 O 0.3392(7) 0.5742(7) 0.4186(5)
O9 O 0.1810(8) 0.8447(8) 0.6904(5)
O10 O 0.3488(8) 0.9680(7) 0.6011(5)
O11 O 0.4253(8) 0.8601(7) 0.7694(5)
O12 O 0.2062(9) 1.0869(9) 0.7450(6)
N1 N 0.2443(10) 0.2776(10) 0.1412(6)
N2 N 0.3599(10) 0.5269(9) 0.1640(6)
C1 C 0.1906(15) 0.1560(14) 0.1330(11)
H5 H 0.1951 0.0902 0.1892
C2 C 0.1284(16) 0.1219(17) 0.0453(11)
H6 H 0.0968 0.0331 0.0419
C3 C 0.1148(15) 0.2218(19) -0.0356(11)
H7 H 0.0679 0.2038 -0.0939
C4 C 0.1706(13) 0.3523(15) -0.0327(8)
C5 C 0.1627(17) 0.465(2) -0.1136(9)
H8 H 0.1161 0.4542 -0.1737
C6 C 0.2193(16) 0.585(2) -0.1055(9)
H9 H 0.2129 0.6532 -0.1605
C7 C 0.2905(13) 0.6117(13) -0.0141(8)
C8 C 0.3523(16) 0.7344(14) 0.0003(10)
H10 H 0.3518 0.8045 -0.0530
C9 C 0.4142(16) 0.7548(14) 0.0915(12)
H11 H 0.4540 0.8380 0.0989
C10 C 0.4172(15) 0.6471(12) 0.1752(10)
H12 H 0.4586 0.6609 0.2365
C11 C 0.2971(11) 0.5106(11) 0.0722(7)
C12 C 0.2323(11) 0.3770(13) 0.0629(7)
C13 C 0.4645(9) 0.4844(9) 0.4519(6)
C14 C -0.0377(10) 0.6452(9) 0.6097(7)
C15 C -0.1425(10) 0.8121(10) 0.5881(6)
O7A O 0.4612(7) 0.6359(6) 0.5909(5)
O8A O 0.6608(7) 0.4258(7) 0.5814(5)
C13A C 0.5355(9) 0.5156(9) 0.5481(6)
Sm1A Sm -0.21188(4) 0.18578(4) 0.49174(3)
Cd1A Cd -0.36530(7) 0.66556(7) 0.71514(5)
S1A S -0.2908(3) 0.0581(3) 0.29599(17)
O1A O -0.0977(7) 0.3838(7) 0.4268(5)
O2A O -0.0772(9) 0.2206(8) 0.6470(6)
H1A H -0.0937 0.3154 0.6551
H2A H 0.0214 0.1801 0.6421
O3A O 0.0784(7) 0.0931(6) 0.4541(5)
O4A O -0.4137(7) 0.1431(7) 0.6030(5)
H3A H -0.5033 0.2054 0.5863
H4A H -0.3911 0.1569 0.6636
O5A O 0.2847(7) 0.1604(8) 0.3830(6)
O6A O 0.0972(7) 0.4452(7) 0.3381(5)
O9A O -0.1810(8) 0.1553(8) 0.3096(5)
O10A O -0.3488(8) 0.0320(7) 0.3989(5)
O11A O -0.4253(8) 0.1399(7) 0.2306(5)
O12A O -0.2062(9) -0.0869(9) 0.2550(6)
N1A N -0.2443(10) 0.7224(10) 0.8588(6)
N2A N -0.3599(10) 0.4731(9) 0.8360(6)
C1A C -0.1906(15) 0.8440(14) 0.8670(11)
H5A H -0.1951 0.9098 0.8108
C2A C -0.1284(16) 0.8781(17) 0.9547(11)
H6A H -0.0968 0.9669 0.9581
C3A C -0.1148(15) 0.7782(19) 1.0356(11)
H7A H -0.0679 0.7962 1.0939
C4A C -0.1706(13) 0.6477(15) 1.0327(8)
C5A C -0.1627(17) 0.535(2) 1.1136(9)
H8A H -0.1161 0.5458 1.1737
C6A C -0.2193(16) 0.415(2) 1.1055(9)
H9A H -0.2129 0.3468 1.1605
C7A C -0.2905(13) 0.3883(13) 1.0141(8)
C8A C -0.3523(16) 0.2656(14) 0.9997(10)
H10A H -0.3518 0.1955 1.0530
C9A C -0.4142(16) 0.2452(14) 0.9085(12)
H11A H -0.4540 0.1620 0.9011
C10A C -0.4172(15) 0.3529(12) 0.8248(10)
H12A H -0.4586 0.3391 0.7635
C11A C -0.2971(11) 0.4894(11) 0.9278(7)
C12A C -0.2323(11) 0.6230(13) 0.9371(7)
C14A C 0.0377(10) 0.3548(9) 0.3903(7)
C15A C 0.1425(10) 0.1879(10) 0.4119(6)
Sm1_2 Sm 0.21188(4) -0.18578(4) 0.50826(3)
Sm1A_2 Sm -0.21188(4) 1.18578(4) 0.49174(3)
Sm1A_3 Sm 0.78812(4) 0.18578(4) 0.49174(3)
Cd1_2 Cd -0.63470(7) 0.33444(7) 0.28486(5)
Cd1A_2 Cd 0.63470(7) 0.66556(7) 0.71514(5)
O3_2 O -0.0784(7) -0.0931(6) 0.5459(5)
O3A_2 O 0.0784(7) 1.0931(6) 0.4541(5)
O7_2 O -0.4612(7) 0.3641(6) 0.4091(5)
O7A_2 O -0.5388(7) 0.6359(6) 0.5909(5)
O8A_2 O -0.3392(7) 0.4258(7) 0.5814(5)
O11_2 O -0.5747(8) 0.8601(7) 0.7694(5)
O11A_2 O 0.5747(8) 0.1399(7) 0.2306(5)
O13 O 0.7004(11) 0.6682(11) 0.3709(11)
loop_
_geom_bond_atom_site_label_1
_geom_bond_atom_site_label_2
_geom_bond_site_symmetry_1
_geom_bond_site_symmetry_2
Sm1 O1 1_555 1_555
Cd1 O7 1_555 1_555
S1 O9 1_555 1_555
O1 C14 1_555 1_555
O2 Sm1 1_555 1_555
H1 O2 1_555 1_555
H2 O2 1_555 1_555
O3 Sm1 1_555 1_555
O4 Sm1 1_555 1_555
H3 O4 1_555 1_555
H4 O4 1_555 1_555
O5 C15 1_555 1_555
O6 C14 1_555 1_555
O7 C13 1_555 1_555
O8 Sm1 1_555 1_555
O9 Sm1 1_555 1_555
O10 Sm1 1_555 1_555
O11 S1 1_555 1_555
O12 S1 1_555 1_555
N1 Cd1 1_555 1_555
N2 Cd1 1_555 1_555
C1 N1 1_555 1_555
H5 C1 1_555 1_555
C2 C1 1_555 1_555
H6 C2 1_555 1_555
C3 C2 1_555 1_555
H7 C3 1_555 1_555
C4 C3 1_555 1_555
C5 C4 1_555 1_555
H8 C5 1_555 1_555
C6 C5 1_555 1_555
H9 C6 1_555 1_555
C7 C6 1_555 1_555
C8 C7 1_555 1_555
H10 C8 1_555 1_555
C9 C8 1_555 1_555
H11 C9 1_555 1_555
C10 N2 1_555 1_555
H12 C10 1_555 1_555
C11 N2 1_555 1_555
C12 N1 1_555 1_555
C13 O8 1_555 1_555
C14 C15 1_555 1_555
C15 O3 1_555 1_555
O7A Sm1 1_555 1_555
O8A C13A 1_555 1_555
C13A C13 1_555 1_555
Sm1A O1A 1_555 1_555
Cd1A O5 1_555 1_555
S1A O9A 1_555 1_555
O1A C14A 1_555 1_555
O2A Sm1A 1_555 1_555
H1A O2A 1_555 1_555
H2A O2A 1_555 1_555
O3A Sm1A 1_555 1_555
O4A Sm1A 1_555 1_555
H3A O4A 1_555 1_555
H4A O4A 1_555 1_555
O5A Cd1 1_555 1_555
O6A Cd1 1_555 1_555
O9A Sm1A 1_555 1_555
O10A Sm1A 1_555 1_555
O11A S1A 1_555 1_555
O12A S1A 1_555 1_555
N1A Cd1A 1_555 1_555
N2A Cd1A 1_555 1_555
C1A N1A 1_555 1_555
H5A C1A 1_555 1_555
C2A C1A 1_555 1_555
H6A C2A 1_555 1_555
C3A C2A 1_555 1_555
H7A C3A 1_555 1_555
C4A C3A 1_555 1_555
C5A C4A 1_555 1_555
H8A C5A 1_555 1_555
C6A C5A 1_555 1_555
H9A C6A 1_555 1_555
C7A C6A 1_555 1_555
C8A C7A 1_555 1_555
H10A C8A 1_555 1_555
C9A C8A 1_555 1_555
H11A C9A 1_555 1_555
C10A N2A 1_555 1_555
H12A C10A 1_555 1_555
C11A N2A 1_555 1_555
C12A N1A 1_555 1_555
C14A O6A 1_555 1_555
C15A O3A 1_555 1_555
Sm1_2 O3A 1_555 1_555
Sm1A_2 O3 1_555 1_555
Sm1A_3 O7 1_555 1_555
Cd1_2 O11A 1_555 1_555
Cd1A_2 O11 1_555 1_555
O3_2 Sm1A 1_555 1_555
O3A_2 Sm1 1_555 1_555
O7_2 Sm1A 1_555 1_555
O7A_2 Cd1A 1_555 1_555
O8A_2 Sm1A 1_555 1_555
O11_2 Cd1A 1_555 1_555
O11A_2 Cd1 1_555 1_555
S1 O10 1_555 1_555
O6 Cd1A 1_555 1_555
C4 C12 1_555 1_555
C7 C11 1_555 1_555
C9 C10 1_555 1_555
C11 C12 1_555 1_555
O7A C13A 1_555 1_555
O7A Cd1A_2 1_555 1_555
O8A Sm1A_3 1_555 1_555
S1A O10A 1_555 1_555
O5A C15A 1_555 1_555
C4A C12A 1_555 1_555
C7A C11A 1_555 1_555
C9A C10A 1_555 1_555
C11A C12A 1_555 1_555
C14A C15A 1_555 1_555
Sm1_2 O3_2 1_555 1_555
Sm1A_2 O3A_2 1_555 1_555
Cd1_2 O7_2 1_555 1_555

#END
