
#######################################################################
#
#                 Cambridge Crystallographic Data Centre
#                                CCDC 
#
#######################################################################
#
# If this CIF has been generated from an entry in the Cambridge 
# Structural Database, then it will include bibliographic, chemical, 
# crystal, experimental, refinement or atomic coordinate data resulting 
# from the CCDC's data processing and validation procedures.
#
#######################################################################

data_YIWCOY
_symmetry_cell_setting           monoclinic
_symmetry_space_group_name_H-M   'P 21/n'
_symmetry_Int_Tables_number      14
_space_group_name_Hall           '-P 2yn'
loop_
_symmetry_equiv_pos_site_id
_symmetry_equiv_pos_as_xyz
1 x,y,z
2 1/2-x,1/2+y,1/2-z
3 -x,-y,-z
4 1/2+x,1/2-y,1/2+z
_cell_length_a                   9.6399(19)
_cell_length_b                   9.924(2)
_cell_length_c                   22.078(4)
_cell_angle_alpha                90
_cell_angle_beta                 91.64(3)
_cell_angle_gamma                90
_cell_volume                     2111.26
loop_
_atom_site_label
_atom_site_type_symbol
_atom_site_fract_x
_atom_site_fract_y
_atom_site_fract_z
Eu1 Eu 0.44070(2) 0.18911(2) 0.032927(9)
Cd1 Cd 0.30719(4) 0.53848(3) 0.094576(15)
Cd2 Cd -0.03814(3) 1.03894(3) 0.218804(15)
O1 O 0.1542(4) 1.1629(3) 0.18330(17)
O2 O 0.1322(4) 0.4029(4) 0.1269(2)
H1 H 0.0881 0.3675 0.0958
H2 H 0.1650 0.3377 0.1494
O3 O 0.3238(4) 1.1558(4) 0.11854(17)
O4 O 0.2331(4) 0.1099(4) -0.01868(18)
H3 H 0.2464 0.0294 -0.0328
H4 H 0.1645 0.1070 0.0060
O5 O 0.4457(3) 0.9446(3) 0.04991(14)
O6 O 0.4288(3) 0.7250(3) 0.05368(15)
O7 O -0.1542(4) 1.0628(4) 0.11709(16)
O8 O -0.3430(4) 1.1482(4) 0.07468(16)
O9 O -0.4971(4) 1.3835(3) 0.09594(14)
O10 O -0.5292(4) 1.5035(3) 0.17710(15)
O11 O 0.1739(4) 0.5592(4) 0.00313(19)
O12 O 0.3084(4) 0.3836(4) 0.00624(17)
N1 N 0.2272(4) 0.7276(4) 0.13711(17)
N2 N 0.1182(4) 0.8938(4) 0.18334(18)
N3 N -0.1670(4) 1.2251(4) 0.21670(17)
N4 N -0.3073(4) 1.3962(4) 0.23833(17)
C1 C 0.1304(5) 0.7591(5) 0.1767(2)
C2 C 0.2812(5) 0.8473(4) 0.11749(19)
C3 C 0.2158(5) 0.9506(4) 0.1472(2)
C4 C 0.0513(6) 0.6598(5) 0.2124(3)
H5 H 0.0512 0.6875 0.2541
H6 H 0.0941 0.5728 0.2095
H7 H -0.0425 0.6550 0.1967
C5 C 0.3895(4) 0.8400(4) 0.07207(18)
C6 C 0.2311(5) 1.0985(5) 0.1493(2)
C7 C -0.1975(5) 1.3215(5) 0.2566(2)
C8 C -0.3485(5) 1.3462(4) 0.18233(19)
C9 C -0.2622(5) 1.2392(4) 0.1695(2)
C10 C -0.1167(6) 1.3429(6) 0.3142(3)
H8 H -0.0665 1.4263 0.3121
H9 H -0.0525 1.2699 0.3204
H10 H -0.1789 1.3464 0.3474
C11 C -0.4631(5) 1.4119(4) 0.1504(2)
C12 C -0.2533(5) 1.1454(5) 0.1177(2)
C13 C 0.2202(5) 0.4570(5) -0.0216(2)
C14 C 0.1709(7) 0.4200(7) -0.0847(3)
H11 H 0.0916 0.3618 -0.0826
H12 H 0.2439 0.3743 -0.1051
H13 H 0.1457 0.5002 -0.1066
Eu1_2 Eu -0.55930(2) 1.18911(2) 0.032927(9)
Eu1_3 Eu 0.44070(2) 1.18911(2) 0.032927(9)
Eu1B Eu 0.55930(2) 0.81089(2) -0.032927(9)
Cd1_2 Cd -0.69281(4) 1.53848(3) 0.094576(15)
Cd2A Cd -0.46186(3) 1.53894(3) 0.281196(15)
O3_2 O 0.3238(4) 0.1558(4) 0.11854(17)
O5_2 O 0.4457(3) -0.0554(3) 0.04991(14)
O5B O 0.5543(3) 0.0554(3) -0.04991(14)
O6B O 0.5712(3) 0.2750(3) -0.05368(15)
O8_2 O 0.6570(4) 0.1482(4) 0.07468(16)
O9_2 O 0.5029(4) 0.3835(3) 0.09594(14)
O10_2 O 0.4708(4) 0.5035(3) 0.17710(15)
O10A O 0.0292(4) 1.0035(3) 0.32290(15)
N4A N -0.1927(4) 0.8962(4) 0.26167(17)
O13 O -0.0027(5) 0.7648(5) -0.0316(2)
loop_
_geom_bond_atom_site_label_1
_geom_bond_atom_site_label_2
_geom_bond_site_symmetry_1
_geom_bond_site_symmetry_2
Eu1 O4 1_555 1_555
Cd1 O2 1_555 1_555
Cd2 O1 1_555 1_555
O1 C6 1_555 1_555
O2 H1 1_555 1_555
H2 O2 1_555 1_555
O3 C6 1_555 1_555
O4 H3 1_555 1_555
H4 O4 1_555 1_555
O5 C5 1_555 1_555
O6 Cd1 1_555 1_555
O7 Cd2 1_555 1_555
O8 C12 1_555 1_555
O9 C11 1_555 1_555
O10 C11 1_555 1_555
O11 Cd1 1_555 1_555
O12 Eu1 1_555 1_555
N1 Cd1 1_555 1_555
N2 Cd2 1_555 1_555
N3 Cd2 1_555 1_555
N4 C7 1_555 1_555
C1 N1 1_555 1_555
C2 N1 1_555 1_555
C3 N2 1_555 1_555
C4 C1 1_555 1_555
H5 C4 1_555 1_555
H6 C4 1_555 1_555
H7 C4 1_555 1_555
C5 O6 1_555 1_555
C6 C3 1_555 1_555
C7 N3 1_555 1_555
C8 N4 1_555 1_555
C9 N3 1_555 1_555
C10 C7 1_555 1_555
H8 C10 1_555 1_555
H9 C10 1_555 1_555
H10 C10 1_555 1_555
C11 C8 1_555 1_555
C12 O7 1_555 1_555
C13 O11 1_555 1_555
C14 C13 1_555 1_555
H11 C14 1_555 1_555
H12 C14 1_555 1_555
H13 C14 1_555 1_555
Eu1_2 O8 1_555 1_555
Eu1_3 O3 1_555 1_555
Eu1B O5 1_555 1_555
Cd1_2 O9 1_555 1_555
Cd2A O10 1_555 1_555
O3_2 Eu1 1_555 1_555
O5_2 Eu1 1_555 1_555
O5B Eu1 1_555 1_555
O6B Eu1 1_555 1_555
O8_2 Eu1 1_555 1_555
O9_2 Eu1 1_555 1_555
O10_2 Cd1 1_555 1_555
O10A Cd2 1_555 1_555
N4A Cd2 1_555 1_555
Cd1 O12 1_555 1_555
Cd1 O9_2 1_555 1_555
O5 Eu1_3 1_555 1_555
O6 Eu1B 1_555 1_555
O9 Eu1_2 1_555 1_555
O10 Cd1_2 1_555 1_555
O12 C13 1_555 1_555
N2 C1 1_555 1_555
N4 Cd2A 1_555 1_555
C2 C3 1_555 1_555
C2 C5 1_555 1_555
C8 C9 1_555 1_555
C9 C12 1_555 1_555

#END
