
#######################################################################
#
#                 Cambridge Crystallographic Data Centre
#                                CCDC 
#
#######################################################################
#
# If this CIF has been generated from an entry in the Cambridge 
# Structural Database, then it will include bibliographic, chemical, 
# crystal, experimental, refinement or atomic coordinate data resulting 
# from the CCDC's data processing and validation procedures.
#
#######################################################################

data_YIWDEO
_symmetry_cell_setting           monoclinic
_symmetry_space_group_name_H-M   'P 21'
_symmetry_Int_Tables_number      4
_space_group_name_Hall           'P 2yb'
loop_
_symmetry_equiv_pos_site_id
_symmetry_equiv_pos_as_xyz
1 x,y,z
2 -x,1/2+y,-z
_cell_length_a                   7.935(2)
_cell_length_b                   11.205(3)
_cell_length_c                   9.169(2)
_cell_angle_alpha                90
_cell_angle_beta                 108.471(7)
_cell_angle_gamma                90
_cell_volume                     773.234
loop_
_atom_site_label
_atom_site_type_symbol
_atom_site_fract_x
_atom_site_fract_y
_atom_site_fract_z
Zn1 Zn 0.44891(6) 0.25025(9) 0.48483(5)
O1 O 0.4004(5) 0.2439(6) 0.2668(4)
O2 O 0.6598(5) 0.2601(6) 0.6606(4)
C1 C 0.3049(6) 0.2347(5) -0.0506(6)
H1 H 0.2558 0.2953 -0.0058
N1 N 0.2903(6) 0.1363(5) -0.4407(5)
H2 H 0.2224 0.1907 -0.4977
H3 H 0.3337 0.0797 -0.4831
C2 C 0.3311(6) 0.1400(5) -0.2754(6)
C3 C 0.9705(11) 0.4876(7) 0.8464(11)
H4 H 0.9927 0.5202 0.7598
O3 O 0.5722(7) 0.0851(5) 0.2956(5)
C4 C 0.4682(7) 0.1592(5) 0.2130(6)
C5 C 0.2629(6) 0.2290(5) -0.2086(6)
H5 H 0.1871 0.2865 -0.2706
C6 C 0.7617(8) 0.3506(5) 0.6702(7)
C7 C 0.4201(6) 0.1507(5) 0.0433(6)
C8 C 0.8522(7) 0.3949(5) 0.8271(7)
O4 O 0.7858(8) 0.3962(4) 0.5561(6)
C9 C 0.4857(9) 0.0604(6) -0.0289(7)
H6 H 0.5612 0.0023 0.0321
C10 C 0.8117(8) 0.3523(6) 0.9535(7)
H7 H 0.7244 0.2928 0.9397
C11 C 1.0167(12) 0.4907(8) 1.1136(12)
C12 C 0.8961(10) 0.3948(8) 1.0989(8)
H8 H 0.8746 0.3615 1.1854
O5 O 0.3416(11) 0.4089(6) 0.4948(7)
C13 C 0.4437(7) 0.0537(5) -0.1857(7)
H9 H 0.4897 -0.0078 -0.2317
N2 N 1.1028(12) 0.5348(8) 1.2673(9)
H10 H 1.1830 0.5905 1.2827
H11 H 1.0744 0.5058 1.3443
C14 C 1.0573(10) 0.5338(8) 0.9895(12)
H12 H 1.1431 0.5941 1.0017
H13 H 0.358(14) 0.438(11) 0.576(8)
H14 H 0.352(11) 0.432(8) 0.417(7)
Zn1_2 Zn 0.44891(6) 0.25025(9) -0.51517(5)
N1_2 N 0.2903(6) 0.1363(5) 0.5593(5)
H2_2 H 0.2224 0.1907 0.5023
H3_2 H 0.3337 0.0797 0.5169
O6 O 0.0858(7) 0.6991(6) 0.5710(7)
H15 H 0.111(8) 0.721(5) 0.501(5)
H16 H 0.186(8) 0.717(17) 0.603(17)
loop_
_geom_bond_atom_site_label_1
_geom_bond_atom_site_label_2
_geom_bond_site_symmetry_1
_geom_bond_site_symmetry_2
Zn1 O1 1_555 1_555
O1 C4 1_555 1_555
O2 Zn1 1_555 1_555
C1 H1 1_555 1_555
N1 H2 1_555 1_555
H3 N1 1_555 1_555
C2 N1 1_555 1_555
C3 H4 1_555 1_555
O3 C4 1_555 1_555
C4 C7 1_555 1_555
C5 C1 1_555 1_555
H5 C5 1_555 1_555
C6 O2 1_555 1_555
C7 C1 1_555 1_555
C8 C3 1_555 1_555
O4 C6 1_555 1_555
C9 C7 1_555 1_555
H6 C9 1_555 1_555
C10 C8 1_555 1_555
H7 C10 1_555 1_555
C11 C12 1_555 1_555
C12 C10 1_555 1_555
H8 C12 1_555 1_555
O5 Zn1 1_555 1_555
C13 C2 1_555 1_555
H9 C13 1_555 1_555
N2 C11 1_555 1_555
H10 N2 1_555 1_555
H11 N2 1_555 1_555
C14 C3 1_555 1_555
H12 C14 1_555 1_555
H13 O5 1_555 1_555
H14 O5 1_555 1_555
O6 H15 1_555 1_555
H16 O6 1_555 1_555
Zn1_2 N1 1_555 1_555
N1_2 Zn1 1_555 1_555
H2_2 N1_2 1_555 1_555
H3_2 N1_2 1_555 1_555
C2 C5 1_555 1_555
C6 C8 1_555 1_555
C9 C13 1_555 1_555
C11 C14 1_555 1_555

#END
