
#######################################################################
#
#                 Cambridge Crystallographic Data Centre
#                                CCDC 
#
#######################################################################
#
# If this CIF has been generated from an entry in the Cambridge 
# Structural Database, then it will include bibliographic, chemical, 
# crystal, experimental, refinement or atomic coordinate data resulting 
# from the CCDC's data processing and validation procedures.
#
#######################################################################

data_YIWDAK
_symmetry_cell_setting           triclinic
_symmetry_space_group_name_H-M   'P -1'
_symmetry_Int_Tables_number      2
_space_group_name_Hall           '-P 1'
loop_
_symmetry_equiv_pos_site_id
_symmetry_equiv_pos_as_xyz
1 x,y,z
2 -x,-y,-z
_cell_length_a                   8.9612(10)
_cell_length_b                   11.324(2)
_cell_length_c                   11.3250(11)
_cell_angle_alpha                103.960(2)
_cell_angle_beta                 109.996(2)
_cell_angle_gamma                97.911(2)
_cell_volume                     1017.06
loop_
_atom_site_label
_atom_site_type_symbol
_atom_site_fract_x
_atom_site_fract_y
_atom_site_fract_z
Ni1 Ni 0.0000(3) 0.7500(2) 0.7500(2)
N1 N -0.2446(11) 0.6781(9) 0.7003(10)
N2 N -0.5831(12) 0.6003(10) 0.6077(11)
N3 N 0.2439(11) 0.8236(9) 0.7980(9)
N4 N 0.5824(12) 0.8981(11) 0.8930(11)
N5 N -0.0018(10) 0.5985(9) 0.6007(8)
N6 N -0.0013(10) 0.8991(8) 0.9023(9)
O1 O -0.0961(10) 0.8369(8) 0.6151(8)
O2 O -0.3351(11) 0.8541(9) 0.4779(9)
O3 O 0.0966(10) 0.6630(7) 0.8848(8)
O4 O 0.3348(10) 0.6457(9) 1.0214(9)
C1 C -0.3417(14) 0.7211(12) 0.6090(11)
C2 C -0.5092(14) 0.6809(12) 0.5650(12)
H1 H -0.5742 0.7118 0.5019
C3 C -0.4846(16) 0.5591(12) 0.6995(12)
C4 C -0.3141(11) 0.5988(10) 0.7440(10)
H2 H -0.2483 0.5677 0.8065
C5 C -0.2504(17) 0.8120(11) 0.5624(13)
C6 C -0.5660(13) 0.4690(10) 0.7455(11)
H3 H -0.4991 0.4120 0.7677
H4 H -0.6701 0.4229 0.6768
H5 H -0.5821 0.5133 0.8222
C7 C 0.3390(14) 0.7791(12) 0.8900(12)
C8 C 0.5078(16) 0.8183(12) 0.9364(13)
H6 H 0.5717 0.7876 1.0003
C9 C 0.4899(14) 0.9425(12) 0.8032(12)
C10 C 0.3206(14) 0.9044(11) 0.7562(11)
H7 H 0.2578 0.9364 0.6931
C11 C 0.2520(16) 0.6896(12) 0.9369(13)
C12 C 0.5667(13) 1.0312(12) 0.7505(11)
H8 H 0.6771 1.0246 0.7662
H9 H 0.5673 1.1153 0.7941
H10 H 0.5053 1.0108 0.6572
C13 C 0.0320(10) 0.6166(8) 0.5000(9)
H11 H 0.0599 0.6984 0.4989
C14 C -0.0277(12) 0.4796(9) 0.6020(10)
H12 H -0.0430 0.4620 0.6737
C15 C 0.0300(12) 1.0155(11) 0.8974(10)
H13 H 0.0564 1.0294 0.8285
C16 C -0.0244(10) 0.8841(8) 1.0092(9)
H14 H -0.0368 0.8051 1.0201
Ni1A Ni 0.0000(3) 0.2500(2) 0.2500(2)
Ni1A_2 Ni 0.0000(3) 1.2500(2) 1.2500(2)
N1A N 0.2446(11) 0.3219(9) 0.2997(10)
N2A N 0.5831(12) 0.3997(10) 0.3923(11)
N3A N -0.2439(11) 0.1764(9) 0.2020(9)
N4A N -0.5824(12) 0.1019(11) 0.1070(11)
N5A N 0.0018(10) 0.4015(9) 0.3993(8)
N6A N 0.0013(10) 1.1009(8) 1.0977(9)
N6A_2 N 0.0013(10) 0.1009(8) 0.0977(9)
O1A O 0.0961(10) 0.1631(8) 0.3849(8)
O2A O 0.3351(11) 0.1459(9) 0.5221(9)
O3A O -0.0966(10) 0.3370(7) 0.1152(8)
O4A O -0.3348(10) 0.3543(9) -0.0214(9)
C1A C 0.3417(14) 0.2789(12) 0.3910(11)
C2A C 0.5092(14) 0.3191(12) 0.4350(12)
H1A H 0.5742 0.2882 0.4981
C3A C 0.4846(16) 0.4409(12) 0.3005(12)
C4A C 0.3141(11) 0.4012(10) 0.2560(10)
H2A H 0.2483 0.4323 0.1935
C5A C 0.2504(17) 0.1880(11) 0.4376(13)
C6A C 0.5660(13) 0.5310(10) 0.2545(11)
H3A H 0.4991 0.5880 0.2323
H4A H 0.6701 0.5771 0.3232
H5A H 0.5821 0.4867 0.1778
C7A C -0.3390(14) 0.2209(12) 0.1100(12)
C8A C -0.5078(16) 0.1817(12) 0.0636(13)
H6A H -0.5717 0.2124 -0.0003
C9A C -0.4899(14) 0.0575(12) 0.1968(12)
C10A C -0.3206(14) 0.0956(11) 0.2438(11)
H7A H -0.2578 0.0636 0.3069
C11A C -0.2520(16) 0.3104(12) 0.0631(13)
C12A C -0.5667(13) -0.0312(12) 0.2495(11)
H8A H -0.6771 -0.0246 0.2338
H9A H -0.5673 -0.1153 0.2059
H10A H -0.5053 -0.0108 0.3428
C13A C -0.0320(10) 0.3834(8) 0.5000(9)
H11A H -0.0599 0.3016 0.5011
C14A C 0.0277(12) 0.5204(9) 0.3980(10)
H12A H 0.0430 0.5380 0.3263
C15A C -0.0300(12) 0.9845(11) 1.1026(10)
H13A H -0.0564 0.9706 1.1715
C16A C 0.0244(10) 1.1159(8) 0.9908(9)
H14A H 0.0368 1.1949 0.9799
O5 O 0.8278(12) 0.1252(8) 0.5820(9)
H15 H 0.8073 0.1925 0.6301
H16 H 0.7702 0.0457 0.5576
O6 O 0.8262(11) 0.6252(8) 0.0823(9)
H17 H 0.7800 0.5473 0.0538
H18 H 0.8248 0.6864 0.1422
O7 O 0.1685(10) 0.6696(10) 0.2100(9)
H19 H 0.0485 0.6598 0.1751
H20 H 0.2455 0.6697 0.1705
O8 O 0.8200(10) 0.8286(9) 0.2837(9)
H21 H 0.7746 0.8359 0.3389
H22 H 0.9233 0.8421 0.3220
loop_
_geom_bond_atom_site_label_1
_geom_bond_atom_site_label_2
_geom_bond_site_symmetry_1
_geom_bond_site_symmetry_2
Ni1 N1 1_555 1_555
N1 C1 1_555 1_555
N2 C2 1_555 1_555
N3 Ni1 1_555 1_555
N4 C8 1_555 1_555
N5 Ni1 1_555 1_555
N6 Ni1 1_555 1_555
O1 Ni1 1_555 1_555
O2 C5 1_555 1_555
O3 Ni1 1_555 1_555
O4 C11 1_555 1_555
C1 C2 1_555 1_555
C2 H1 1_555 1_555
C3 N2 1_555 1_555
C4 N1 1_555 1_555
H2 C4 1_555 1_555
C5 O1 1_555 1_555
C6 C3 1_555 1_555
H3 C6 1_555 1_555
H4 C6 1_555 1_555
H5 C6 1_555 1_555
C7 N3 1_555 1_555
C8 C7 1_555 1_555
H6 C8 1_555 1_555
C9 N4 1_555 1_555
C10 N3 1_555 1_555
H7 C10 1_555 1_555
C11 O3 1_555 1_555
C12 C9 1_555 1_555
H8 C12 1_555 1_555
H9 C12 1_555 1_555
H10 C12 1_555 1_555
C13 N5 1_555 1_555
H11 C13 1_555 1_555
C14 N5 1_555 1_555
H12 C14 1_555 1_555
C15 N6 1_555 1_555
H13 C15 1_555 1_555
C16 N6 1_555 1_555
H14 C16 1_555 1_555
O5 H15 1_555 1_555
H16 O5 1_555 1_555
O6 H17 1_555 1_555
H18 O6 1_555 1_555
O7 H19 1_555 1_555
H20 O7 1_555 1_555
O8 H21 1_555 1_555
H22 O8 1_555 1_555
Ni1A N1A 1_555 1_555
Ni1A_2 N6A 1_555 1_555
N1A C1A 1_555 1_555
N2A C2A 1_555 1_555
N3A Ni1A 1_555 1_555
N4A C8A 1_555 1_555
N5A Ni1A 1_555 1_555
N6A C15A 1_555 1_555
N6A_2 Ni1A 1_555 1_555
O1A Ni1A 1_555 1_555
O2A C5A 1_555 1_555
O3A Ni1A 1_555 1_555
O4A C11A 1_555 1_555
C1A C2A 1_555 1_555
C2A H1A 1_555 1_555
C3A N2A 1_555 1_555
C4A N1A 1_555 1_555
H2A C4A 1_555 1_555
C5A O1A 1_555 1_555
C6A C3A 1_555 1_555
H3A C6A 1_555 1_555
H4A C6A 1_555 1_555
H5A C6A 1_555 1_555
C7A N3A 1_555 1_555
C8A C7A 1_555 1_555
H6A C8A 1_555 1_555
C9A N4A 1_555 1_555
C10A N3A 1_555 1_555
H7A C10A 1_555 1_555
C11A O3A 1_555 1_555
C12A C9A 1_555 1_555
H8A C12A 1_555 1_555
H9A C12A 1_555 1_555
H10A C12A 1_555 1_555
C13A C14 1_555 1_555
H11A C13A 1_555 1_555
C14A C13 1_555 1_555
H12A C14A 1_555 1_555
C15A C16 1_555 1_555
H13A C15A 1_555 1_555
C16A C15 1_555 1_555
H14A C16A 1_555 1_555
C1 C5 1_555 1_555
C3 C4 1_555 1_555
C7 C11 1_555 1_555
C9 C10 1_555 1_555
N5A C13A 1_555 1_555
N5A C14A 1_555 1_555
N6A C16A 1_555 1_555
C1A C5A 1_555 1_555
C3A C4A 1_555 1_555
C7A C11A 1_555 1_555
C9A C10A 1_555 1_555

#END
