
#######################################################################
#
#                 Cambridge Crystallographic Data Centre
#                                CCDC 
#
#######################################################################
#
# If this CIF has been generated from an entry in the Cambridge 
# Structural Database, then it will include bibliographic, chemical, 
# crystal, experimental, refinement or atomic coordinate data resulting 
# from the CCDC's data processing and validation procedures.
#
#######################################################################

data_YIWFOA
_symmetry_cell_setting           triclinic
_symmetry_space_group_name_H-M   'P -1'
_symmetry_Int_Tables_number      2
_space_group_name_Hall           '-P 1'
loop_
_symmetry_equiv_pos_site_id
_symmetry_equiv_pos_as_xyz
1 x,y,z
2 -x,-y,-z
_cell_length_a                   7.8170(16)
_cell_length_b                   12.679(3)
_cell_length_c                   12.775(3)
_cell_angle_alpha                66.96(3)
_cell_angle_beta                 76.50(3)
_cell_angle_gamma                79.49(3)
_cell_volume                     1127.08
loop_
_atom_site_label
_atom_site_type_symbol
_atom_site_fract_x
_atom_site_fract_y
_atom_site_fract_z
La1 La 0.144212(17) 0.985646(11) 0.752293(11)
S1 S -0.07875(9) 0.74846(5) 0.73312(6)
S2 S -0.15228(9) 0.16826(5) 0.92412(5)
S3 S 0.47019(8) 1.21278(5) 0.57949(6)
O1 O 0.0605(3) 0.80278(16) 0.74617(18)
O2 O -0.2508(3) 0.77528(17) 0.7975(2)
O3 O -0.0846(4) 0.77260(19) 0.61330(19)
O4 O 0.0077(3) 0.12964(16) 0.85802(18)
O5 O -0.1294(3) 0.14958(16) 1.04022(16)
O6 O -0.3080(3) 0.11861(15) 0.92578(16)
O7 O 0.3084(3) 1.15599(16) 0.62064(18)
O8 O 0.5678(3) 1.20430(18) 0.4712(2)
O9 O 0.5810(3) 1.17400(17) 0.66791(18)
O10 O 0.2045(4) 0.9924(2) 0.5424(2)
H1 H 0.255(6) 0.940(4) 0.525(4)
H2 H 0.196(7) 1.044(5) 0.490(5)
O11 O 0.4221(3) 0.8556(3) 0.7175(3)
H3 H 0.506(6) 0.836(3) 0.745(3)
H4 H 0.450(6) 0.830(4) 0.664(4)
O12 O -0.1762(3) 0.9567(2) 0.8342(3)
H5 H -0.230(6) 0.995(4) 0.866(4)
H6 H -0.217(7) 0.904(5) 0.831(5)
O13 O -0.0533(3) 1.1415(3) 0.6255(2)
H7 H -0.161(6) 1.151(4) 0.639(4)
H8 H -0.040(8) 1.173(5) 0.558(5)
O14 O 0.3919(3) 1.0060(2) 0.8408(2)
H9 H 0.457(6) 1.057(4) 0.811(4)
H10 H 0.384(6) 0.988(4) 0.905(4)
C1 C -0.0233(3) 0.5974(2) 0.7989(2)
C2 C -0.1346(3) 0.5183(2) 0.8009(2)
C3 C -0.2899(4) 0.5548(2) 0.7509(2)
H11 H -0.3235 0.6331 0.7167
C4 C -0.3904(4) 0.4769(2) 0.7521(2)
H12 H -0.4905 0.5025 0.7179
C5 C -0.3437(4) 0.3579(2) 0.8050(2)
H13 H -0.4133 0.3052 0.8060
C6 C -0.1957(4) 0.3195(2) 0.8550(2)
C7 C -0.0843(3) 0.3980(2) 0.8540(2)
C8 C 0.0715(4) 0.3619(2) 0.9030(3)
H14 H 0.1053 0.2837 0.9376
C9 C 0.1721(4) 0.4404(2) 0.9000(3)
H15 H 0.2730 0.4151 0.9334
C10 C 0.1254(4) 0.5597(2) 0.8471(3)
H16 H 0.1958 0.6124 0.8450
C11 C 0.2260(3) 1.3927(2) 0.5806(2)
H17 H 0.148(5) 1.340(3) 0.615(3)
C12 C 0.4024(3) 1.3602(2) 0.5532(2)
C13 C 0.5310(3) 1.44118(19) 0.5080(2)
C14 C 0.7142(3) 1.4108(2) 0.4780(2)
H18 H 0.7547 1.3346 0.4871
C15 C 0.1676(4) 1.5090(2) 0.5639(3)
H19 H 0.046(4) 1.529(3) 0.582(3)
La1_2 La 0.144212(17) 1.985646(11) 0.752293(11)
La1_3 La 0.144212(17) -0.014354(11) 0.752293(11)
La1A La -0.144212(17) 0.014354(11) 1.247707(11)
La1A_2 La 0.855788(17) 2.014354(11) 0.247707(11)
La1A_3 La -0.144212(17) 1.014354(11) 1.247707(11)
S1_2 S -0.07875(9) 1.74846(5) 0.73312(6)
S2_2 S -0.15228(9) 1.16826(5) 0.92412(5)
S3A S 0.52981(8) 1.78722(5) 0.42051(6)
O1_2 O 0.0605(3) 1.80278(16) 0.74617(18)
O2_2 O -0.2508(3) 1.77528(17) 0.7975(2)
O3_2 O -0.0846(4) 1.77260(19) 0.61330(19)
O4_2 O 0.0077(3) 1.12964(16) 0.85802(18)
O4_3 O 0.0077(3) 2.12964(16) 0.85802(18)
O5_2 O -0.1294(3) 1.14958(16) 1.04022(16)
O5A O 0.1294(3) 0.85042(16) 0.95978(16)
O5A_2 O 0.1294(3) 1.85042(16) 0.95978(16)
O6_2 O -0.3080(3) 1.11861(15) 0.92578(16)
O7A O 0.6916(3) 1.84401(16) 0.37936(18)
O7_2 O 0.3084(3) 2.15599(16) 0.62064(18)
O8A O 0.4322(3) 1.79570(18) 0.5288(2)
O9A O 0.4190(3) 1.82600(17) 0.33209(18)
O10_2 O 0.2045(4) 1.9924(2) 0.5424(2)
H1_2 H 0.255(6) 1.940(4) 0.525(4)
H2_2 H 0.196(7) 2.044(5) 0.490(5)
O11_2 O 0.4221(3) 1.8556(3) 0.7175(3)
H3_2 H 0.506(6) 1.836(3) 0.745(3)
H4_2 H 0.450(6) 1.830(4) 0.664(4)
O12_2 O -0.1762(3) 1.9567(2) 0.8342(3)
H5_2 H -0.230(6) 1.995(4) 0.866(4)
H6_2 H -0.217(7) 1.904(5) 0.831(5)
O13_2 O -0.0533(3) 2.1415(3) 0.6255(2)
H7_2 H -0.161(6) 2.151(4) 0.639(4)
H8_2 H -0.040(8) 2.173(5) 0.558(5)
O14_2 O 0.3919(3) 2.0060(2) 0.8408(2)
H9_2 H 0.457(6) 2.057(4) 0.811(4)
H10_2 H 0.384(6) 1.988(4) 0.905(4)
C1_2 C -0.0233(3) 1.5974(2) 0.7989(2)
C2_2 C -0.1346(3) 1.5183(2) 0.8009(2)
C3_2 C -0.2899(4) 1.5548(2) 0.7509(2)
H11_2 H -0.3235 1.6331 0.7167
C4_2 C -0.3904(4) 1.4769(2) 0.7521(2)
H12_2 H -0.4905 1.5025 0.7179
C5_2 C -0.3437(4) 1.3579(2) 0.8050(2)
H13_2 H -0.4133 1.3052 0.8060
C6_2 C -0.1957(4) 1.3195(2) 0.8550(2)
C7_2 C -0.0843(3) 1.3980(2) 0.8540(2)
C8_2 C 0.0715(4) 1.3619(2) 0.9030(3)
H14_2 H 0.1053 1.2837 0.9376
C9_2 C 0.1721(4) 1.4404(2) 0.9000(3)
H15_2 H 0.2730 1.4151 0.9334
C10_2 C 0.1254(4) 1.5597(2) 0.8471(3)
H16_2 H 0.1958 1.6124 0.8450
C11A C 0.7740(3) 1.6073(2) 0.4194(2)
H17A H 0.852(5) 1.660(3) 0.385(3)
C12A C 0.5976(3) 1.6398(2) 0.4468(2)
C13A C 0.4690(3) 1.55882(19) 0.4920(2)
C14A C 0.2858(3) 1.5892(2) 0.5220(2)
H18A H 0.2453 1.6654 0.5129
C15A C 0.8324(4) 1.4910(2) 0.4361(3)
H19A H 0.954(4) 1.471(3) 0.418(3)
loop_
_geom_bond_atom_site_label_1
_geom_bond_atom_site_label_2
_geom_bond_site_symmetry_1
_geom_bond_site_symmetry_2
La1 O1 1_555 1_555
S1 O1 1_555 1_555
S2 O4 1_555 1_555
S3 O7 1_555 1_555
O2 S1 1_555 1_555
O3 S1 1_555 1_555
O4 La1_3 1_555 1_555
O5 S2 1_555 1_555
O6 S2 1_555 1_555
O7 La1 1_555 1_555
O8 S3 1_555 1_555
O9 S3 1_555 1_555
O10 La1 1_555 1_555
H1 O10 1_555 1_555
H2 O10 1_555 1_555
O11 La1 1_555 1_555
H3 O11 1_555 1_555
H4 O11 1_555 1_555
O12 La1 1_555 1_555
H5 O12 1_555 1_555
H6 O12 1_555 1_555
O13 La1 1_555 1_555
H7 O13 1_555 1_555
H8 O13 1_555 1_555
O14 La1 1_555 1_555
H9 O14 1_555 1_555
H10 O14 1_555 1_555
C1 S1 1_555 1_555
C2 C1 1_555 1_555
C3 C2 1_555 1_555
H11 C3 1_555 1_555
C4 C3 1_555 1_555
H12 C4 1_555 1_555
C5 C4 1_555 1_555
H13 C5 1_555 1_555
C6 S2 1_555 1_555
C7 C2 1_555 1_555
C8 C7 1_555 1_555
H14 C8 1_555 1_555
C9 C8 1_555 1_555
H15 C9 1_555 1_555
C10 C1 1_555 1_555
H16 C10 1_555 1_555
C11 H17 1_555 1_555
C12 S3 1_555 1_555
C13 C12 1_555 1_555
C14 C13 1_555 1_555
H18 C14 1_555 1_555
C15 C11 1_555 1_555
H19 C15 1_555 1_555
La1_2 O1_2 1_555 1_555
La1A O5 1_555 1_555
La1A_2 O7A 1_555 1_555
La1A_3 O5_2 1_555 1_555
S1_2 O1_2 1_555 1_555
S2_2 O4_2 1_555 1_555
S3A O7A 1_555 1_555
O2_2 S1_2 1_555 1_555
O3_2 S1_2 1_555 1_555
O4_2 La1 1_555 1_555
O4_3 La1_2 1_555 1_555
O5_2 S2_2 1_555 1_555
O5A La1 1_555 1_555
O5A_2 La1_2 1_555 1_555
O6_2 S2_2 1_555 1_555
O7_2 La1_2 1_555 1_555
O8A S3A 1_555 1_555
O9A S3A 1_555 1_555
O10_2 La1_2 1_555 1_555
H1_2 O10_2 1_555 1_555
H2_2 O10_2 1_555 1_555
O11_2 La1_2 1_555 1_555
H3_2 O11_2 1_555 1_555
H4_2 O11_2 1_555 1_555
O12_2 La1_2 1_555 1_555
H5_2 O12_2 1_555 1_555
H6_2 O12_2 1_555 1_555
O13_2 La1_2 1_555 1_555
H7_2 O13_2 1_555 1_555
H8_2 O13_2 1_555 1_555
O14_2 La1_2 1_555 1_555
H9_2 O14_2 1_555 1_555
H10_2 O14_2 1_555 1_555
C1_2 S1_2 1_555 1_555
C2_2 C1_2 1_555 1_555
C3_2 C2_2 1_555 1_555
H11_2 C3_2 1_555 1_555
C4_2 C3_2 1_555 1_555
H12_2 C4_2 1_555 1_555
C5_2 C4_2 1_555 1_555
H13_2 C5_2 1_555 1_555
C6_2 S2_2 1_555 1_555
C7_2 C2_2 1_555 1_555
C8_2 C7_2 1_555 1_555
H14_2 C8_2 1_555 1_555
C9_2 C8_2 1_555 1_555
H15_2 C9_2 1_555 1_555
C10_2 C1_2 1_555 1_555
H16_2 C10_2 1_555 1_555
C11A H17A 1_555 1_555
C12A S3A 1_555 1_555
C13A C13 1_555 1_555
C14A C15 1_555 1_555
H18A C14A 1_555 1_555
C15A C14 1_555 1_555
H19A C15A 1_555 1_555
C5 C6 1_555 1_555
C6 C7 1_555 1_555
C9 C10 1_555 1_555
C11 C12 1_555 1_555
C5_2 C6_2 1_555 1_555
C6_2 C7_2 1_555 1_555
C9_2 C10_2 1_555 1_555
C11A C12A 1_555 1_555
C11A C15A 1_555 1_555
C12A C13A 1_555 1_555
C13A C14A 1_555 1_555

#END
