
#######################################################################
#
#                 Cambridge Crystallographic Data Centre
#                                CCDC 
#
#######################################################################
#
# If this CIF has been generated from an entry in the Cambridge 
# Structural Database, then it will include bibliographic, chemical, 
# crystal, experimental, refinement or atomic coordinate data resulting 
# from the CCDC's data processing and validation procedures.
#
#######################################################################

data_YIWHIX
_symmetry_cell_setting           monoclinic
_symmetry_space_group_name_H-M   'P 21/c'
_symmetry_Int_Tables_number      14
_space_group_name_Hall           '-P 2ybc'
loop_
_symmetry_equiv_pos_site_id
_symmetry_equiv_pos_as_xyz
1 x,y,z
2 -x,1/2+y,1/2-z
3 -x,-y,-z
4 x,1/2-y,1/2+z
_cell_length_a                   10.430(5)
_cell_length_b                   20.209(8)
_cell_length_c                   16.880(7)
_cell_angle_alpha                90
_cell_angle_beta                 104.816(7)
_cell_angle_gamma                90
_cell_volume                     3439.67
loop_
_atom_site_label
_atom_site_type_symbol
_atom_site_fract_x
_atom_site_fract_y
_atom_site_fract_z
Cd1 Cd 0.81240(3) 0.556469(15) 0.445483(18)
C1 C 0.5646(4) 0.6103(2) 0.4156(3)
C2 C 0.1162(4) 0.5950(2) 0.4692(3)
C3 C 0.4310(4) 0.6407(2) 0.4080(3)
C4 C 0.3402(4) 0.6083(2) 0.4426(3)
H1 H 0.3633 0.5678 0.4685
C5 C 0.2165(4) 0.6350(2) 0.4391(3)
C6 C 0.1833(4) 0.6962(2) 0.4021(3)
C7 C 0.2736(4) 0.7292(2) 0.3683(3)
H2 H 0.2509 0.7702 0.3437
C8 C 0.3967(4) 0.7022(2) 0.3705(3)
C9 C 0.0543(4) 0.7306(2) 0.4024(3)
C10 C 0.0333(5) 0.7471(2) 0.4846(3)
C11 C 0.1387(6) 0.7564(3) 0.5531(4)
H3 H 0.2251 0.7511 0.5485
C12 C 0.1167(8) 0.7733(3) 0.6281(4)
H4 H 0.1881 0.7808 0.6731
C13 C -0.0107(9) 0.7790(3) 0.6358(5)
H5 H -0.0257 0.7893 0.6864
C14 C -0.1156(8) 0.7695(3) 0.5692(5)
H6 H -0.2015 0.7737 0.5749
C15 C -0.0961(5) 0.7537(3) 0.4931(4)
H7 H -0.1683 0.7475 0.4482
C16 C 0.4858(5) 0.7452(2) 0.3336(3)
C17 C 0.5076(5) 0.7283(3) 0.2514(3)
C18 C 0.5395(7) 0.7807(4) 0.2058(4)
H8 H 0.5507 0.8233 0.2273
C19 C 0.5542(9) 0.7677(5) 0.1272(5)
H9 H 0.5746 0.8023 0.0962
C20 C 0.5394(7) 0.7063(6) 0.0953(5)
H10 H 0.5481 0.6990 0.0426
C21 C 0.5113(7) 0.6541(4) 0.1412(5)
H11 H 0.5045 0.6114 0.1200
C22 C 0.4931(6) 0.6650(3) 0.2188(4)
H12 H 0.4714 0.6300 0.2487
C23 C 0.6951(6) 0.4681(3) 1.2844(3)
H13 H 0.6474 0.4511 1.3194
C24 C 0.6745(6) 0.4404(3) 1.2072(3)
H14 H 0.6137 0.4062 1.1907
C25 C 0.7464(5) 0.4647(2) 1.1548(3)
C26 C 0.8338(5) 0.5161(3) 1.1829(3)
H15 H 0.8845 0.5334 1.1498
C27 C 0.8453(5) 0.5416(3) 1.2600(3)
H16 H 0.9021 0.5773 1.2768
C28 C 0.7314(6) 0.4342(3) 1.0706(3)
H17 H 0.7843 0.3942 1.0759
H18 H 0.6394 0.4221 1.0476
C29 C 0.7985(6) 0.4490(2) 0.9422(3)
H19 H 0.7164 0.4312 0.9081
H20 H 0.8606 0.4128 0.9584
C30 C 0.8549(5) 0.4995(2) 0.8942(3)
H21 H 0.9424 0.5126 0.9260
H22 H 0.8646 0.4792 0.8439
C31 C 0.7434(6) 0.5856(3) 0.9486(3)
H23 H 0.6841 0.6232 0.9344
H24 H 0.8253 0.6009 0.9854
C32 C 0.6811(6) 0.5341(3) 0.9908(3)
H25 H 0.6596 0.5531 1.0386
H26 H 0.5998 0.5181 0.9540
C33 C 0.8364(7) 0.6086(3) 0.8358(3)
H27 H 0.9274 0.6133 0.8680
H28 H 0.7922 0.6506 0.8373
C34 C 0.7261(6) 0.5550(2) 0.6146(3)
H29 H 0.6517 0.5355 0.5800
C35 C 0.7285(6) 0.5634(3) 0.6959(3)
H30 H 0.6576 0.5490 0.7154
C36 C 0.8366(6) 0.5935(2) 0.7485(3)
C37 C 0.9383(5) 0.6129(3) 0.7159(3)
H31 H 1.0123 0.6337 0.7490
C38 C 0.9316(5) 0.6017(3) 0.6346(3)
H32 H 1.0032 0.6144 0.6146
N1 N 0.7790(4) 0.5177(2) 1.3117(2)
N2 N 0.7733(4) 0.4800(2) 1.0153(2)
N3 N 0.7714(5) 0.5584(2) 0.8738(2)
N4 N 0.8269(4) 0.57356(19) 0.5828(2)
O1 O 0.6589(3) 0.64728(17) 0.4101(2)
O2 O 0.5772(3) 0.54864(15) 0.4280(2)
O3 O 0.1564(4) 0.55397(15) 0.5251(2)
O4 O -0.0036(3) 0.60684(16) 0.4335(2)
O5 O -0.0211(4) 0.7487(2) 0.3393(2)
O6 O 0.5241(4) 0.79717(19) 0.3677(3)
Cd1_2 Cd -0.18760(3) 0.556469(15) 0.445483(18)
Cd1_3 Cd 0.81240(3) 0.556469(15) 1.445483(18)
Cd1B Cd 0.18760(3) 0.443531(15) 0.554517(18)
N1_2 N 0.7790(4) 0.5177(2) 0.3117(2)
O3B O 0.8436(4) 0.44603(15) 0.4749(2)
O4_2 O 0.9964(3) 0.60684(16) 0.4335(2)
loop_
_geom_bond_atom_site_label_1
_geom_bond_atom_site_label_2
_geom_bond_site_symmetry_1
_geom_bond_site_symmetry_2
Cd1 N4 1_555 1_555
C1 C3 1_555 1_555
C2 C5 1_555 1_555
C3 C4 1_555 1_555
C4 H1 1_555 1_555
C5 C4 1_555 1_555
C6 C5 1_555 1_555
C7 C6 1_555 1_555
H2 C7 1_555 1_555
C8 C3 1_555 1_555
C9 C6 1_555 1_555
C10 C9 1_555 1_555
C11 C10 1_555 1_555
H3 C11 1_555 1_555
C12 C11 1_555 1_555
H4 C12 1_555 1_555
C13 C12 1_555 1_555
H5 C13 1_555 1_555
C14 C13 1_555 1_555
H6 C14 1_555 1_555
C15 C10 1_555 1_555
H7 C15 1_555 1_555
C16 C8 1_555 1_555
C17 C16 1_555 1_555
C18 C17 1_555 1_555
H8 C18 1_555 1_555
C19 C18 1_555 1_555
H9 C19 1_555 1_555
C20 C19 1_555 1_555
H10 C20 1_555 1_555
C21 C20 1_555 1_555
H11 C21 1_555 1_555
C22 C17 1_555 1_555
H12 C22 1_555 1_555
C23 H13 1_555 1_555
C24 C23 1_555 1_555
H14 C24 1_555 1_555
C25 C24 1_555 1_555
C26 C25 1_555 1_555
H15 C26 1_555 1_555
C27 C26 1_555 1_555
H16 C27 1_555 1_555
C28 C25 1_555 1_555
H17 C28 1_555 1_555
H18 C28 1_555 1_555
C29 H19 1_555 1_555
H20 C29 1_555 1_555
C30 C29 1_555 1_555
H21 C30 1_555 1_555
H22 C30 1_555 1_555
C31 H23 1_555 1_555
H24 C31 1_555 1_555
C32 C31 1_555 1_555
H25 C32 1_555 1_555
H26 C32 1_555 1_555
C33 H27 1_555 1_555
H28 C33 1_555 1_555
C34 H29 1_555 1_555
C35 C34 1_555 1_555
H30 C35 1_555 1_555
C36 C33 1_555 1_555
C37 C36 1_555 1_555
H31 C37 1_555 1_555
C38 C37 1_555 1_555
H32 C38 1_555 1_555
N1 C23 1_555 1_555
N2 C28 1_555 1_555
N3 C30 1_555 1_555
N4 C34 1_555 1_555
O1 Cd1 1_555 1_555
O2 Cd1 1_555 1_555
O3 C2 1_555 1_555
O4 C2 1_555 1_555
O5 C9 1_555 1_555
O6 C16 1_555 1_555
Cd1_2 O4 1_555 1_555
Cd1_3 N1 1_555 1_555
Cd1B O3 1_555 1_555
N1_2 Cd1 1_555 1_555
O3B Cd1 1_555 1_555
O4_2 Cd1 1_555 1_555
C1 O1 1_555 1_555
C1 O2 1_555 1_555
C7 C8 1_555 1_555
C14 C15 1_555 1_555
C21 C22 1_555 1_555
C27 N1 1_555 1_555
C29 N2 1_555 1_555
C31 N3 1_555 1_555
C32 N2 1_555 1_555
C33 N3 1_555 1_555
C35 C36 1_555 1_555
C38 N4 1_555 1_555

#END
