
#######################################################################
#
#                 Cambridge Crystallographic Data Centre
#                                CCDC 
#
#######################################################################
#
# If this CIF has been generated from an entry in the Cambridge 
# Structural Database, then it will include bibliographic, chemical, 
# crystal, experimental, refinement or atomic coordinate data resulting 
# from the CCDC's data processing and validation procedures.
#
#######################################################################

data_YIWHOD
_symmetry_cell_setting           monoclinic
_symmetry_space_group_name_H-M   'P 21/c'
_symmetry_Int_Tables_number      14
_space_group_name_Hall           '-P 2ybc'
loop_
_symmetry_equiv_pos_site_id
_symmetry_equiv_pos_as_xyz
1 x,y,z
2 -x,1/2+y,1/2-z
3 -x,-y,-z
4 x,1/2-y,1/2+z
_cell_length_a                   15.402(5)
_cell_length_b                   10.522(3)
_cell_length_c                   20.877(5)
_cell_angle_alpha                90
_cell_angle_beta                 114.070(17)
_cell_angle_gamma                90
_cell_volume                     3089.14
loop_
_atom_site_label
_atom_site_type_symbol
_atom_site_fract_x
_atom_site_fract_y
_atom_site_fract_z
Cd1 Cd 0.58425(2) 0.83607(3) 0.48887(2)
C1 C 0.6338(3) 0.5936(5) 0.4708(3)
C2 C 0.5858(4) 0.1222(5) 0.4528(3)
C3 C 0.6649(3) 0.4655(4) 0.4563(2)
C4 C 0.6144(4) 0.3569(5) 0.4589(3)
H1 H 0.5631 0.3652 0.4713
C5 C 0.6377(3) 0.2386(5) 0.4438(3)
C6 C 0.7147(4) 0.2257(5) 0.4235(3)
C7 C 0.7635(4) 0.3335(5) 0.4187(3)
H2 H 0.8126 0.3257 0.4039
C8 C 0.7406(4) 0.4524(5) 0.4354(3)
C9 C 0.7415(4) 0.1003(5) 0.4017(4)
C10 C 0.6695(5) 0.0333(6) 0.3396(3)
C11 C 0.5931(6) 0.0969(7) 0.2889(4)
H3 H 0.5848 0.1832 0.2942
C12 C 0.5305(7) 0.0339(9) 0.2317(4)
H4 H 0.4785 0.0762 0.1987
C13 C 0.5451(10) -0.0945(11) 0.2233(5)
H5 H 0.5037 -0.1370 0.1835
C14 C 0.6202(10) -0.1594(8) 0.2731(6)
H6 H 0.6284 -0.2457 0.2677
C15 C 0.6820(7) -0.0958(7) 0.3302(4)
H7 H 0.7333 -0.1388 0.3635
C16 C 0.7963(4) 0.5631(6) 0.4263(3)
C17 C 0.8611(4) 0.6390(5) 0.4883(3)
C18 C 0.8788(5) 0.6060(6) 0.5569(4)
H8 H 0.8494 0.5353 0.5660
C19 C 0.9411(6) 0.6798(8) 0.6120(4)
H9 H 0.9524 0.6589 0.6580
C20 C 0.9862(6) 0.7834(8) 0.5988(5)
H10 H 1.0298 0.8299 0.6358
C21 C 0.9668(7) 0.8170(8) 0.5322(5)
H11 H 0.9958 0.8883 0.5232
C22 C 0.9044(6) 0.7465(7) 0.4773(4)
H12 H 0.8911 0.7720 0.4316
C23 C 0.7791(4) 0.9205(6) 0.6269(4)
H13 H 0.7925 0.9888 0.6041
C24 C 0.7211(6) 0.7596(9) 0.6506(4)
H14 H 0.6821 0.6892 0.6450
C25 C 0.8970(4) 0.9711(7) 0.7501(4)
H15 H 0.8707 0.9966 0.7832
H16 H 0.9106 1.0477 0.7300
C26 C 0.9888(4) 0.8999(7) 0.7891(3)
C27 C 1.0677(4) 0.9206(7) 0.7744(3)
H17 H 1.0632 0.9751 0.7381
C28 C 1.1546(4) 0.8596(6) 0.8140(3)
C29 C 1.1600(4) 0.7792(6) 0.8676(3)
H18 H 1.2168 0.7380 0.8940
C30 C 1.0806(5) 0.7594(8) 0.8823(4)
H19 H 1.0853 0.7067 0.9193
C31 C 0.9948(5) 0.8173(8) 0.8424(4)
H20 H 0.9415 0.8009 0.8514
C32 C 1.2367(4) 0.8857(8) 0.7957(4)
H21 H 1.2611 0.9700 0.8121
H22 H 1.2149 0.8848 0.7450
C33 C 1.3956(4) 0.8065(6) 0.8819(3)
H23 H 1.4168 0.8804 0.9082
C34 C 1.3830(4) 0.6223(7) 0.8419(4)
H24 H 1.3979 0.5383 0.8369
N1 N 0.7120(3) 0.8382(5) 0.5960(3)
N2 N 0.8256(3) 0.8961(6) 0.6939(3)
N3 N 0.7876(5) 0.7901(8) 0.7104(4)
N4 N 1.3135(3) 0.7937(5) 0.8259(3)
N5 N 1.4421(3) 0.6975(5) 0.8941(3)
N6 N 1.3046(4) 0.6741(6) 0.7993(3)
O1 O 0.6530(3) 0.6878(3) 0.4414(2)
O2 O 0.5897(3) 0.6007(4) 0.5094(2)
O3 O 0.5016(3) 0.1326(4) 0.4437(2)
O4 O 0.6353(3) 0.0231(4) 0.4701(2)
O5 O 0.8218(3) 0.0614(5) 0.4305(4)
O6 O 0.7937(4) 0.5848(5) 0.3682(3)
Cd1_2 Cd 0.58425(2) -0.16393(3) 0.48887(2)
Cd1B Cd 0.41575(2) 0.16393(3) 0.51113(2)
Cd1C Cd 1.58425(2) 0.66393(3) 0.98887(2)
N5C N 0.4421(3) 0.8025(5) 0.3941(3)
O3B O 0.4984(3) 0.8674(4) 0.5563(2)
O4_2 O 0.6353(3) 1.0231(4) 0.4701(2)
loop_
_geom_bond_atom_site_label_1
_geom_bond_atom_site_label_2
_geom_bond_site_symmetry_1
_geom_bond_site_symmetry_2
Cd1 N1 1_555 1_555
C1 C3 1_555 1_555
C2 C5 1_555 1_555
C3 C4 1_555 1_555
C4 H1 1_555 1_555
C5 C4 1_555 1_555
C6 C5 1_555 1_555
C7 C6 1_555 1_555
H2 C7 1_555 1_555
C8 C3 1_555 1_555
C9 C6 1_555 1_555
C10 C9 1_555 1_555
C11 C10 1_555 1_555
H3 C11 1_555 1_555
C12 C11 1_555 1_555
H4 C12 1_555 1_555
C13 C12 1_555 1_555
H5 C13 1_555 1_555
C14 C13 1_555 1_555
H6 C14 1_555 1_555
C15 C10 1_555 1_555
H7 C15 1_555 1_555
C16 C8 1_555 1_555
C17 C16 1_555 1_555
C18 C17 1_555 1_555
H8 C18 1_555 1_555
C19 C18 1_555 1_555
H9 C19 1_555 1_555
C20 C19 1_555 1_555
H10 C20 1_555 1_555
C21 C20 1_555 1_555
H11 C21 1_555 1_555
C22 C17 1_555 1_555
H12 C22 1_555 1_555
C23 H13 1_555 1_555
C24 H14 1_555 1_555
C25 H15 1_555 1_555
H16 C25 1_555 1_555
C26 C25 1_555 1_555
C27 C26 1_555 1_555
H17 C27 1_555 1_555
C28 C27 1_555 1_555
C29 C28 1_555 1_555
H18 C29 1_555 1_555
C30 C29 1_555 1_555
H19 C30 1_555 1_555
C31 C26 1_555 1_555
H20 C31 1_555 1_555
C32 C28 1_555 1_555
H21 C32 1_555 1_555
H22 C32 1_555 1_555
C33 H23 1_555 1_555
C34 H24 1_555 1_555
N1 C23 1_555 1_555
N2 C23 1_555 1_555
N3 C24 1_555 1_555
N4 C32 1_555 1_555
N5 C33 1_555 1_555
N6 C34 1_555 1_555
O1 Cd1 1_555 1_555
O2 Cd1 1_555 1_555
O3 C2 1_555 1_555
O4 C2 1_555 1_555
O5 C9 1_555 1_555
O6 C16 1_555 1_555
Cd1_2 O4 1_555 1_555
Cd1B O3 1_555 1_555
Cd1C N5 1_555 1_555
N5C Cd1 1_555 1_555
O3B Cd1 1_555 1_555
O4_2 Cd1 1_555 1_555
C1 O1 1_555 1_555
C1 O2 1_555 1_555
C7 C8 1_555 1_555
C14 C15 1_555 1_555
C21 C22 1_555 1_555
C24 N1 1_555 1_555
C25 N2 1_555 1_555
C30 C31 1_555 1_555
C33 N4 1_555 1_555
C34 N5 1_555 1_555
N2 N3 1_555 1_555
N4 N6 1_555 1_555

#END
