
#######################################################################
#
#                 Cambridge Crystallographic Data Centre
#                                CCDC 
#
#######################################################################
#
# If this CIF has been generated from an entry in the Cambridge 
# Structural Database, then it will include bibliographic, chemical, 
# crystal, experimental, refinement or atomic coordinate data resulting 
# from the CCDC's data processing and validation procedures.
#
#######################################################################

data_YIWMUN
_symmetry_cell_setting           monoclinic
_symmetry_space_group_name_H-M   'C 2'
_symmetry_Int_Tables_number      5
_space_group_name_Hall           'C 2y'
loop_
_symmetry_equiv_pos_site_id
_symmetry_equiv_pos_as_xyz
1 x,y,z
2 -x,y,-z
3 1/2+x,1/2+y,z
4 1/2-x,1/2+y,-z
_cell_length_a                   11.9355(9)
_cell_length_b                   15.5223(10)
_cell_length_c                   7.9542(6)
_cell_angle_alpha                90
_cell_angle_beta                 112.591(2)
_cell_angle_gamma                90
_cell_volume                     1360.57
loop_
_atom_site_label
_atom_site_type_symbol
_atom_site_fract_x
_atom_site_fract_y
_atom_site_fract_z
Mn1 Mn 0.09853(13) 0.3858(2) 0.42149(19)
N1 N 0.2460(7) 0.3839(14) 0.3271(12)
C1 C 0.112(2) 0.2620(18) 0.716(4)
C2 C 0.1740(16) 0.1727(12) 0.821(2)
C3 C 0.1449(15) 0.1582(10) 0.970(2)
H1 H 0.0781 0.1875 0.9751
C4 C 0.208(2) 0.1022(17) 1.118(4)
H2 H 0.1890 0.0961 1.2198
C5 C 0.279(2) 0.1350(17) 0.828(4)
C6 C 0.3363(14) 0.0722(10) 0.944(2)
H3 H 0.3962 0.0393 0.9271
C7 C 0.3018(14) 0.0579(11) 1.095(2)
C8 C 0.374(2) 0.005(3) 1.255(4)
C9 C 0.2449(18) 0.421(2) 0.202(3)
H4 H 0.1794 0.4583 0.1531
C10 C 0.3230(19) 0.421(2) 0.110(3)
H5 H 0.3034 0.4521 0.0024
C11 C 0.4284(11) 0.3179(10) 0.3137(18)
H6 H 0.4896 0.2766 0.3521
C12 C 0.3429(13) 0.3220(11) 0.3918(19)
H7 H 0.3481 0.2847 0.4860
C13 C 0.4216(11) 0.378(2) 0.1727(14)
C14 C 0.5174(12) 0.392(3) 0.0904(17)
H8 H 0.5568 0.4466 0.1351
H9 H 0.5785 0.3474 0.1386
O1 O 0.1626(18) 0.2871(11) 0.607(3)
N2 N 0.3179(14) 0.1491(13) 0.690(3)
H10 H 0.3759 0.1185 0.6824
H11 H 0.2846 0.1886 0.6106
O2 O 0.0203(14) 0.2924(14) 0.740(3)
O3 O 0.4770(15) -0.0203(14) 1.262(2)
O4 O 0.3342(13) -0.0251(13) 1.362(2)
Mn1A Mn 0.90147(13) 0.3858(2) -0.42149(19)
Mn1A_2 Mn -0.09853(13) 0.3858(2) 0.57851(19)
Mn1B Mn 0.59853(13) -0.1142(2) 1.42149(19)
Mn1C Mn 0.40147(13) -0.1142(2) 1.57851(19)
Mn1C_2 Mn -0.59853(13) -0.1142(2) -0.42149(19)
Mn1B_2 Mn -0.40147(13) -0.1142(2) -0.57851(19)
Mn1_2 Mn 1.09853(13) 0.3858(2) -0.57851(19)
N1A N 0.7540(7) 0.3839(14) -0.3271(12)
C1A C -0.112(2) 0.2620(18) 0.284(4)
C2A C -0.1740(16) 0.1727(12) 0.179(2)
C3A C -0.1449(15) 0.1582(10) 0.030(2)
H1A H -0.0781 0.1875 0.0249
C4A C -0.208(2) 0.1022(17) -0.118(4)
H2A H -0.1890 0.0961 -0.2198
C5A C -0.279(2) 0.1350(17) 0.172(4)
C6A C -0.3363(14) 0.0722(10) 0.056(2)
H3A H -0.3962 0.0393 0.0729
C7A C -0.3018(14) 0.0579(11) -0.095(2)
C8A C -0.374(2) 0.005(3) -0.255(4)
C9A C 0.7551(18) 0.421(2) -0.202(3)
H4A H 0.8206 0.4583 -0.1531
C10A C 0.6770(19) 0.421(2) -0.110(3)
H5A H 0.6966 0.4521 -0.0024
C11A C 0.5716(11) 0.3179(10) -0.3137(18)
H6A H 0.5104 0.2766 -0.3521
C12A C 0.6571(13) 0.3220(11) -0.3918(19)
H7A H 0.6519 0.2847 -0.4860
C13A C 0.5784(11) 0.378(2) -0.1727(14)
C14A C 0.4826(12) 0.392(3) -0.0904(17)
H8A H 0.4432 0.4466 -0.1351
H9A H 0.4215 0.3474 -0.1386
O1A O -0.1626(18) 0.2871(11) 0.393(3)
O1A_2 O 0.8374(18) 0.2871(11) -0.607(3)
N2A N -0.3179(14) 0.1491(13) 0.310(3)
H10A H -0.3759 0.1185 0.3176
H11A H -0.2846 0.1886 0.3894
O2A O -0.0203(14) 0.2924(14) 0.260(3)
O2_2 O 1.0203(14) 0.2924(14) -0.260(3)
O3A O -0.4770(15) -0.0203(14) -0.262(2)
O3B O -0.0230(15) 0.4797(14) 0.262(2)
O3C O 1.0230(15) 0.4797(14) -0.262(2)
O4A O -0.3342(13) -0.0251(13) -0.362(2)
O4C O 0.1658(13) 0.4749(13) 0.638(2)
O4B O 0.8342(13) 0.4749(13) -0.638(2)
loop_
_geom_bond_atom_site_label_1
_geom_bond_atom_site_label_2
_geom_bond_site_symmetry_1
_geom_bond_site_symmetry_2
Mn1 N1 1_555 1_555
N1 C9 1_555 1_555
C1 C2 1_555 1_555
C2 C3 1_555 1_555
C3 H1 1_555 1_555
C4 C3 1_555 1_555
H2 C4 1_555 1_555
C5 C2 1_555 1_555
C6 C5 1_555 1_555
H3 C6 1_555 1_555
C7 C4 1_555 1_555
C8 C7 1_555 1_555
C9 H4 1_555 1_555
C10 C9 1_555 1_555
H5 C10 1_555 1_555
C11 H6 1_555 1_555
C12 N1 1_555 1_555
H7 C12 1_555 1_555
C13 C10 1_555 1_555
C14 C13 1_555 1_555
H8 C14 1_555 1_555
H9 C14 1_555 1_555
O1 Mn1 1_555 1_555
N2 C5 1_555 1_555
H10 N2 1_555 1_555
H11 N2 1_555 1_555
O2 C1 1_555 1_555
O3 C8 1_555 1_555
O4 C8 1_555 1_555
Mn1A Mn1_2 1_555 1_555
Mn1A_2 Mn1 1_555 1_555
Mn1B O3 1_555 1_555
Mn1C O4 1_555 1_555
Mn1C_2 Mn1B_2 1_555 1_555
Mn1B_2 O4A 1_555 1_555
N1A Mn1A 1_555 1_555
C1A C2A 1_555 1_555
C2A C3A 1_555 1_555
C3A H1A 1_555 1_555
C4A C3A 1_555 1_555
H2A C4A 1_555 1_555
C5A C2A 1_555 1_555
C6A C5A 1_555 1_555
H3A C6A 1_555 1_555
C7A C4A 1_555 1_555
C8A C7A 1_555 1_555
C9A N1A 1_555 1_555
H4A C9A 1_555 1_555
C10A C9A 1_555 1_555
H5A C10A 1_555 1_555
C11A H6A 1_555 1_555
C12A N1A 1_555 1_555
H7A C12A 1_555 1_555
C13A C10A 1_555 1_555
C14A C14 1_555 1_555
H8A C14A 1_555 1_555
H9A C14A 1_555 1_555
O1A Mn1A_2 1_555 1_555
O1A_2 Mn1A 1_555 1_555
N2A C5A 1_555 1_555
H10A N2A 1_555 1_555
H11A N2A 1_555 1_555
O2A Mn1 1_555 1_555
O2_2 Mn1A 1_555 1_555
O3A Mn1C_2 1_555 1_555
O3B Mn1 1_555 1_555
O3C Mn1A 1_555 1_555
O4A C8A 1_555 1_555
O4C Mn1 1_555 1_555
O4B Mn1A 1_555 1_555
C1 O1 1_555 1_555
C6 C7 1_555 1_555
C11 C12 1_555 1_555
C11 C13 1_555 1_555
O2 Mn1A_2 1_555 1_555
Mn1B Mn1C 1_555 1_555
C1A O1A 1_555 1_555
C1A O2A 1_555 1_555
C6A C7A 1_555 1_555
C8A O3A 1_555 1_555
C11A C12A 1_555 1_555
C11A C13A 1_555 1_555
C13A C14A 1_555 1_555

#END
