
#######################################################################
#
#                 Cambridge Crystallographic Data Centre
#                                CCDC 
#
#######################################################################
#
# If this CIF has been generated from an entry in the Cambridge 
# Structural Database, then it will include bibliographic, chemical, 
# crystal, experimental, refinement or atomic coordinate data resulting 
# from the CCDC's data processing and validation procedures.
#
#######################################################################

data_YIWQOM
_symmetry_cell_setting           triclinic
_symmetry_space_group_name_H-M   'P -1'
_symmetry_Int_Tables_number      2
_space_group_name_Hall           '-P 1'
loop_
_symmetry_equiv_pos_site_id
_symmetry_equiv_pos_as_xyz
1 x,y,z
2 -x,-y,-z
_cell_length_a                   10.916(5)
_cell_length_b                   13.680(5)
_cell_length_c                   15.678(5)
_cell_angle_alpha                89.988(5)
_cell_angle_beta                 80.935(5)
_cell_angle_gamma                103.519(5)
_cell_volume                     2246.24
loop_
_atom_site_label
_atom_site_type_symbol
_atom_site_fract_x
_atom_site_fract_y
_atom_site_fract_z
Co1 Co 0.61795(4) -0.49051(3) 0.87840(3)
N1 N 0.6063(3) -0.33508(17) 0.88181(17)
N2 N 0.6364(2) 0.35615(17) 0.87812(16)
O1 O 0.4290(2) -0.54183(14) 0.87207(14)
O2 O 0.3353(2) -0.51740(15) 1.00365(14)
O3 O 0.8198(2) -0.44833(14) 0.81709(14)
O4 O 0.6671(2) -0.48150(15) 0.73966(14)
C1 C 0.3318(3) -0.5471(2) 0.9286(2)
C2 C 0.2001(3) -0.5854(2) 0.9029(2)
C3 C 0.2064(3) -0.6445(3) 0.8222(2)
H1 H 0.2363 -0.7034 0.8324
H2 H 0.2639 -0.6036 0.7761
H3 H 0.1228 -0.6643 0.8064
C4 C 0.1089(3) -0.6470(3) 0.9768(2)
H4 H 0.1369 -0.7065 0.9880
H5 H 0.0249 -0.6656 0.9617
H6 H 0.1071 -0.6078 1.0276
C5 C 0.1528(4) -0.4918(3) 0.8852(3)
H7 H 0.0691 -0.5118 0.8698
H8 H 0.2102 -0.4518 0.8386
H9 H 0.1493 -0.4531 0.9362
C6 C 0.7839(3) -0.4602(2) 0.7450(2)
C7 C 0.8842(4) -0.4484(3) 0.6633(2)
C8 C 0.9797(5) -0.5066(5) 0.6747(3)
H10 H 1.0424 -0.4990 0.6233
H11 H 0.9378 -0.5764 0.6854
H12 H 1.0208 -0.4820 0.7229
C9 C 0.8244(5) -0.4892(5) 0.5882(3)
H13 H 0.7632 -0.4521 0.5779
H14 H 0.7822 -0.5588 0.6001
H15 H 0.8890 -0.4831 0.5380
C10 C 0.9451(7) -0.3439(4) 0.6480(4)
H16 H 0.8825 -0.3071 0.6401
H17 H 1.0086 -0.3355 0.5969
H18 H 0.9850 -0.3191 0.6966
C11 C 0.4969(3) -0.3068(2) 0.8976(3)
H19 H 0.4215 -0.3566 0.9101
C12 C 0.4888(3) -0.2086(2) 0.8965(2)
H20 H 0.4090 -0.1938 0.9080
C13 C 0.5956(3) -0.1317(2) 0.8791(2)
C14 C 0.7088(3) -0.1606(2) 0.8640(2)
H21 H 0.7854 -0.1119 0.8527
C15 C 0.7104(3) -0.2613(2) 0.8652(2)
H22 H 0.7890 -0.2781 0.8538
C16 C 0.5850(3) -0.0274(2) 0.8764(2)
H23 H 0.5056 -0.0167 0.8706
C17 C 0.6772(3) 0.0532(2) 0.8815(2)
H24 H 0.7571 0.0434 0.8869
C18 C 0.6627(3) 0.1571(2) 0.8793(2)
C19 C 0.5569(3) 0.1820(2) 0.8546(2)
H25 H 0.4923 0.1322 0.8378
C20 C 0.5478(3) 0.2804(2) 0.8553(2)
H26 H 0.4757 0.2951 0.8388
C21 C 0.7405(3) 0.3327(2) 0.8995(2)
H27 H 0.8050 0.3844 0.9140
C22 C 0.7565(3) 0.2362(2) 0.9011(2)
H28 H 0.8303 0.2237 0.9168
Co1_2 Co 0.61795(4) 0.50949(3) 0.87840(3)
Co1A Co 0.38205(4) -0.50949(3) 1.12160(3)
N2_2 N 0.6364(2) -0.64385(17) 0.87812(16)
O2A O 0.6647(2) -0.48260(15) 0.99635(14)
Co2 Co 0.39611(4) 0.01169(3) 0.61964(3)
N3 N 0.3889(2) 0.16673(17) 0.61293(17)
N4 N 0.4082(2) 0.85746(18) 0.62462(17)
O5 O 0.3615(2) 0.01073(15) 0.76219(13)
O6 O 0.2038(2) -0.02580(15) 0.68877(14)
O7 O 0.58662(19) 0.05970(14) 0.61916(13)
O8 O 0.6655(2) 0.00295(15) 0.49528(13)
C23 C 0.2434(3) -0.0133(2) 0.7593(2)
C24 C 0.1461(3) -0.0272(3) 0.8427(2)
C25 C 0.0525(4) 0.0373(3) 0.8350(3)
H29 H 0.0967 0.1070 0.8309
H30 H -0.0129 0.0253 0.8850
H31 H 0.0144 0.0205 0.7841
C26 C 0.0744(4) -0.1356(3) 0.8520(3)
H32 H 0.1325 -0.1772 0.8577
H33 H 0.0352 -0.1537 0.8018
H34 H 0.0097 -0.1453 0.9024
C27 C 0.2118(4) 0.0030(5) 0.9203(2)
H35 H 0.2704 -0.0384 0.9254
H36 H 0.1489 -0.0058 0.9717
H37 H 0.2576 0.0723 0.9130
C28 C 0.6776(3) 0.0459(2) 0.5649(2)
C29 C 0.8116(3) 0.0791(2) 0.5881(2)
C30 C 0.9130(3) 0.1017(3) 0.5074(2)
H38 H 0.9064 0.0431 0.4730
H39 H 0.9962 0.1196 0.5239
H40 H 0.9003 0.1565 0.4743
C31 C 0.8325(3) -0.0087(3) 0.6394(2)
H41 H 0.8259 -0.0667 0.6044
H42 H 0.7689 -0.0237 0.6904
H43 H 0.9158 0.0090 0.6557
C32 C 0.8229(4) 0.1723(3) 0.6425(3)
H44 H 0.8103 0.2271 0.6094
H45 H 0.9062 0.1900 0.6587
H46 H 0.7593 0.1583 0.6935
C33 C 0.2988(3) 0.1958(2) 0.5785(2)
H47 H 0.2374 0.1470 0.5574
C34 C 0.2917(3) 0.2948(2) 0.5725(2)
H48 H 0.2271 0.3112 0.5474
C35 C 0.3797(3) 0.3697(2) 0.6034(2)
C36 C 0.4727(3) 0.3394(2) 0.6405(2)
H49 H 0.5339 0.3866 0.6633
C37 C 0.4738(3) 0.2391(2) 0.6432(2)
H50 H 0.5378 0.2207 0.6676
C38 C 0.3712(3) 0.4749(2) 0.5982(2)
H51 H 0.3108 0.4886 0.5672
C39 C 0.4401(3) 0.5517(2) 0.6328(2)
H52 H 0.5020 0.5387 0.6627
C40 C 0.4285(3) 0.6557(2) 0.6287(2)
C41 C 0.5047(3) 0.7303(2) 0.6681(2)
H53 H 0.5660 0.7146 0.6972
C42 C 0.4919(3) 0.8286(2) 0.6653(2)
H54 H 0.5449 0.8768 0.6934
C43 C 0.3355(3) 0.7857(2) 0.5863(2)
H55 H 0.2754 0.8034 0.5573
C44 C 0.3423(3) 0.6866(2) 0.5864(2)
H56 H 0.2882 0.6401 0.5576
Co2_2 Co 0.39611(4) 1.01169(3) 0.61964(3)
Co2A Co 0.60389(4) -0.01169(3) 0.38036(3)
N4_2 N 0.4082(2) -0.14254(18) 0.62462(17)
O8A O 0.3345(2) -0.00295(15) 0.50472(13)
loop_
_geom_bond_atom_site_label_1
_geom_bond_atom_site_label_2
_geom_bond_site_symmetry_1
_geom_bond_site_symmetry_2
Co1 N1 1_555 1_555
N1 C11 1_555 1_555
N2 C20 1_555 1_555
O1 Co1 1_555 1_555
O2 C1 1_555 1_555
O3 Co1 1_555 1_555
O4 Co1 1_555 1_555
C1 O1 1_555 1_555
C2 C1 1_555 1_555
C3 C2 1_555 1_555
H1 C3 1_555 1_555
H2 C3 1_555 1_555
H3 C3 1_555 1_555
C4 C2 1_555 1_555
H4 C4 1_555 1_555
H5 C4 1_555 1_555
H6 C4 1_555 1_555
C5 C2 1_555 1_555
H7 C5 1_555 1_555
H8 C5 1_555 1_555
H9 C5 1_555 1_555
C6 O3 1_555 1_555
C7 C6 1_555 1_555
C8 C7 1_555 1_555
H10 C8 1_555 1_555
H11 C8 1_555 1_555
H12 C8 1_555 1_555
C9 C7 1_555 1_555
H13 C9 1_555 1_555
H14 C9 1_555 1_555
H15 C9 1_555 1_555
C10 C7 1_555 1_555
H16 C10 1_555 1_555
H17 C10 1_555 1_555
H18 C10 1_555 1_555
C11 H19 1_555 1_555
C12 C11 1_555 1_555
H20 C12 1_555 1_555
C13 C12 1_555 1_555
C14 C13 1_555 1_555
H21 C14 1_555 1_555
C15 N1 1_555 1_555
H22 C15 1_555 1_555
C16 C13 1_555 1_555
H23 C16 1_555 1_555
C17 C16 1_555 1_555
H24 C17 1_555 1_555
C18 C17 1_555 1_555
C19 C18 1_555 1_555
H25 C19 1_555 1_555
C20 C19 1_555 1_555
H26 C20 1_555 1_555
C21 N2 1_555 1_555
H27 C21 1_555 1_555
C22 C18 1_555 1_555
H28 C22 1_555 1_555
Co2 N3 1_555 1_555
N3 C33 1_555 1_555
N4 C42 1_555 1_555
O5 Co2 1_555 1_555
O6 Co2 1_555 1_555
O7 Co2 1_555 1_555
O8 C28 1_555 1_555
C23 O5 1_555 1_555
C24 C23 1_555 1_555
C25 C24 1_555 1_555
H29 C25 1_555 1_555
H30 C25 1_555 1_555
H31 C25 1_555 1_555
C26 C24 1_555 1_555
H32 C26 1_555 1_555
H33 C26 1_555 1_555
H34 C26 1_555 1_555
C27 C24 1_555 1_555
H35 C27 1_555 1_555
H36 C27 1_555 1_555
H37 C27 1_555 1_555
C28 O7 1_555 1_555
C29 C28 1_555 1_555
C30 C29 1_555 1_555
H38 C30 1_555 1_555
H39 C30 1_555 1_555
H40 C30 1_555 1_555
C31 C29 1_555 1_555
H41 C31 1_555 1_555
H42 C31 1_555 1_555
H43 C31 1_555 1_555
C32 C29 1_555 1_555
H44 C32 1_555 1_555
H45 C32 1_555 1_555
H46 C32 1_555 1_555
C33 H47 1_555 1_555
C34 C33 1_555 1_555
H48 C34 1_555 1_555
C35 C34 1_555 1_555
C36 C35 1_555 1_555
H49 C36 1_555 1_555
C37 N3 1_555 1_555
H50 C37 1_555 1_555
C38 C35 1_555 1_555
H51 C38 1_555 1_555
C39 C38 1_555 1_555
H52 C39 1_555 1_555
C40 C39 1_555 1_555
C41 C40 1_555 1_555
H53 C41 1_555 1_555
C42 C41 1_555 1_555
H54 C42 1_555 1_555
C43 N4 1_555 1_555
H55 C43 1_555 1_555
C44 C40 1_555 1_555
H56 C44 1_555 1_555
Co1_2 N2 1_555 1_555
Co1A O2 1_555 1_555
N2_2 Co1 1_555 1_555
O2A Co1 1_555 1_555
Co2_2 N4 1_555 1_555
Co2A O8 1_555 1_555
N4_2 Co2 1_555 1_555
O8A Co2 1_555 1_555
O4 C6 1_555 1_555
C14 C15 1_555 1_555
C21 C22 1_555 1_555
O6 C23 1_555 1_555
C36 C37 1_555 1_555
C43 C44 1_555 1_555

#END
