
#######################################################################
#
#                 Cambridge Crystallographic Data Centre
#                                CCDC 
#
#######################################################################
#
# If this CIF has been generated from an entry in the Cambridge 
# Structural Database, then it will include bibliographic, chemical, 
# crystal, experimental, refinement or atomic coordinate data resulting 
# from the CCDC's data processing and validation procedures.
#
#######################################################################

data_YIWRED
_symmetry_cell_setting           triclinic
_symmetry_space_group_name_H-M   'P -1'
_symmetry_Int_Tables_number      2
_space_group_name_Hall           '-P 1'
loop_
_symmetry_equiv_pos_site_id
_symmetry_equiv_pos_as_xyz
1 x,y,z
2 -x,-y,-z
_cell_length_a                   11.154(6)
_cell_length_b                   11.942(7)
_cell_length_c                   15.043(9)
_cell_angle_alpha                94.772(14)
_cell_angle_beta                 104.824(14)
_cell_angle_gamma                90.837(12)
_cell_volume                     1929
loop_
_atom_site_label
_atom_site_type_symbol
_atom_site_fract_x
_atom_site_fract_y
_atom_site_fract_z
Cu1 Cu 0.43656(7) 0.90340(7) 0.48787(6)
O1 O 0.3080(4) 1.0107(5) 0.4988(4)
O2 O 0.4130(4) 1.1743(4) 0.5228(4)
O3 O 0.4027(5) 0.9238(5) 0.3554(3)
O4 O 0.5054(5) 1.0892(4) 0.3786(3)
N1 N 0.3031(5) 0.7657(4) 0.4772(4)
C1 C 0.3169(7) 1.1147(7) 0.5149(5)
C2 C 0.2010(7) 1.1715(7) 0.5312(6)
C3 C 0.1370(9) 1.0962(8) 0.5831(8)
H1 H 0.1903 1.0892 0.6434
H2 H 0.1195 1.0233 0.5497
H3 H 0.0608 1.1287 0.5889
C4 C 0.1149(9) 1.1843(9) 0.4368(7)
H4 H 0.1547 1.2320 0.4038
H5 H 0.0396 1.2172 0.4440
H6 H 0.0960 1.1117 0.4028
C5 C 0.2341(8) 1.2848(8) 0.5853(8)
H7 H 0.2886 1.2752 0.6447
H8 H 0.1600 1.3193 0.5933
H9 H 0.2750 1.3318 0.5525
C6 C 0.4425(7) 1.0102(7) 0.3274(5)
C7 C 0.4130(11) 1.0170(10) 0.2254(6)
C8 C 0.2820(14) 0.994(2) 0.1840(12)
H10 H 0.2586 0.9215 0.1981
H11 H 0.2652 0.9959 0.1183
H12 H 0.2352 1.0505 0.2082
C9 C 0.4579(16) 1.1176(12) 0.1962(7)
H13 H 0.4366 1.1133 0.1300
H14 H 0.5464 1.1250 0.2197
H15 H 0.4205 1.1817 0.2195
C10 C 0.456(3) 0.9199(17) 0.1839(10)
H16 H 0.4316 0.8542 0.2085
H17 H 0.5450 0.9253 0.1968
H18 H 0.4210 0.9147 0.1183
C11 C 0.2992(6) 0.7102(6) 0.5501(5)
H19 H 0.3612 0.7274 0.6043
C12 C 0.2109(7) 0.6300(6) 0.5509(5)
H20 H 0.2131 0.5954 0.6044
C13 C 0.1169(6) 0.6007(6) 0.4701(5)
C14 C 0.1235(6) 0.6560(6) 0.3932(5)
H21 H 0.0657 0.6382 0.3369
C15 C 0.2154(7) 0.7368(6) 0.4005(5)
H22 H 0.2160 0.7734 0.3484
C16 C 0.0162(6) 0.5169(6) 0.4630(5)
N1A N -0.3031(5) 0.2343(4) 0.5228(4)
C11A C -0.2992(6) 0.2898(6) 0.4499(5)
H19A H -0.3612 0.2726 0.3957
C12A C -0.2109(7) 0.3700(6) 0.4491(5)
H20A H -0.2131 0.4046 0.3956
C13A C -0.1169(6) 0.3993(6) 0.5299(5)
C14A C -0.1235(6) 0.3440(6) 0.6068(5)
H21A H -0.0657 0.3618 0.6631
C15A C -0.2154(7) 0.2632(6) 0.5995(5)
H22A H -0.2160 0.2266 0.6516
C16A C -0.0162(6) 0.4831(6) 0.5370(5)
Cu1A Cu -0.43656(7) 0.09660(7) 0.51213(6)
O1A O -0.3080(4) -0.0107(5) 0.5012(4)
O2A O -0.4130(4) -0.1743(4) 0.4772(4)
O3A O -0.4027(5) 0.0762(5) 0.6446(3)
O4A O -0.5054(5) -0.0892(4) 0.6214(3)
C1A C -0.3169(7) -0.1147(7) 0.4851(5)
C2A C -0.2010(7) -0.1715(7) 0.4688(6)
C3A C -0.1370(9) -0.0962(8) 0.4169(8)
H1A H -0.1903 -0.0892 0.3566
H2A H -0.1195 -0.0233 0.4503
H3A H -0.0608 -0.1287 0.4111
C4A C -0.1149(9) -0.1843(9) 0.5632(7)
H4A H -0.1547 -0.2320 0.5962
H5A H -0.0396 -0.2172 0.5560
H6A H -0.0960 -0.1117 0.5972
C5A C -0.2341(8) -0.2848(8) 0.4147(8)
H7A H -0.2886 -0.2752 0.3553
H8A H -0.1600 -0.3193 0.4067
H9A H -0.2750 -0.3318 0.4475
C6A C -0.4425(7) -0.0102(7) 0.6726(5)
C7A C -0.4130(11) -0.0170(10) 0.7746(6)
C8A C -0.2820(14) 0.006(2) 0.8160(12)
H10A H -0.2586 0.0785 0.8019
H11A H -0.2652 0.0041 0.8817
H12A H -0.2352 -0.0505 0.7918
C9A C -0.4579(16) -0.1176(12) 0.8038(7)
H13A H -0.4366 -0.1133 0.8700
H14A H -0.5464 -0.1250 0.7803
H15A H -0.4205 -0.1817 0.7805
C10A C -0.456(3) 0.0801(17) 0.8161(10)
H16A H -0.4316 0.1458 0.7915
H17A H -0.5450 0.0747 0.8032
H18A H -0.4210 0.0853 0.8817
Cu1_2 Cu -0.56344(7) -0.09660(7) 0.48787(6)
Cu1A_2 Cu 0.56344(7) 1.09660(7) 0.51213(6)
O2_2 O -0.5870(4) 0.1743(4) 0.5228(4)
O2A_2 O 0.5870(4) 0.8257(4) 0.4772(4)
O4_2 O -0.4946(5) 0.0892(4) 0.3786(3)
O4A_2 O 0.4946(5) 0.9108(4) 0.6214(3)
Cu2 Cu -0.08952(9) 0.49984(8) -0.07622(6)
O5 O -0.1817(5) 0.4137(5) -0.0081(4)
O6 O -0.0310(6) 0.4156(6) 0.1210(4)
O7 O -0.1290(6) 0.6394(5) -0.0160(4)
O8 O 0.0211(5) 0.6405(5) 0.1148(4)
N2 N -0.2404(6) 0.5021(6) -0.1998(4)
C17 C -0.1391(10) 0.3882(8) 0.0736(6)
C18 C -0.2261(11) 0.3294(11) 0.1162(7)
C19 C -0.3368(15) 0.2789(19) 0.0489(9)
H23 H -0.3144 0.2133 0.0162
H24 H -0.3712 0.3323 0.0059
H25 H -0.3972 0.2579 0.0805
C20 C -0.1578(15) 0.2423(17) 0.1712(17)
H26 H -0.1029 0.2066 0.1388
H27 H -0.2157 0.1872 0.1807
H28 H -0.1103 0.2767 0.2299
C21 C -0.2727(18) 0.4130(15) 0.1759(12)
H29 H -0.2044 0.4584 0.2145
H30 H -0.3143 0.3748 0.2139
H31 H -0.3299 0.4600 0.1383
C22 C -0.0707(9) 0.6814(8) 0.0635(6)
C23 C -0.1137(13) 0.7924(11) 0.0969(7)
C24 C -0.0458(13) 0.8359(10) 0.1895(8)
H32 H -0.0652 0.7897 0.2336
H33 H -0.0691 0.9115 0.2017
H34 H 0.0417 0.8351 0.1944
C25 C -0.2496(15) 0.7852(19) 0.084(2)
H35 H -0.2891 0.7524 0.0232
H36 H -0.2795 0.8592 0.0931
H37 H -0.2684 0.7392 0.1289
C26 C -0.102(3) 0.8743(13) 0.0380(12)
H38 H -0.1442 0.8481 -0.0244
H39 H -0.0154 0.8883 0.0420
H40 H -0.1373 0.9425 0.0559
C27 C -0.3206(7) 0.4176(7) -0.2293(5)
H41 H -0.3195 0.3612 -0.1901
C28 C -0.4060(7) 0.4055(7) -0.3135(5)
H42 H -0.4601 0.3428 -0.3294
C29 C -0.4118(7) 0.4859(7) -0.3742(5)
C30 C -0.3320(8) 0.5789(7) -0.3427(5)
H43 H -0.3346 0.6384 -0.3792
C31 C -0.2481(8) 0.5829(7) -0.2562(5)
H44 H -0.1945 0.6456 -0.2369
C32 C -0.4963(7) 0.4648(7) -0.4680(5)
N2A N -0.7596(6) 0.4979(6) -0.8002(4)
C27A C -0.6794(7) 0.5824(7) -0.7707(5)
H41A H -0.6805 0.6388 -0.8099
C28A C -0.5940(7) 0.5945(7) -0.6865(5)
H42A H -0.5399 0.6572 -0.6706
C29A C -0.5882(7) 0.5141(7) -0.6258(5)
C30A C -0.6680(8) 0.4211(7) -0.6573(5)
H43A H -0.6654 0.3616 -0.6208
C31A C -0.7519(8) 0.4171(7) -0.7438(5)
H44A H -0.8055 0.3544 -0.7631
C32A C -0.5037(7) 0.5352(7) -0.5320(5)
Cu2A Cu -0.91048(9) 0.50016(8) -0.92378(6)
O5A O -0.8183(5) 0.5863(5) -0.9919(4)
O6A O -0.9690(6) 0.5844(6) -1.1210(4)
O7A O -0.8710(6) 0.3606(5) -0.9840(4)
O8A O -1.0211(5) 0.3595(5) -1.1148(4)
C17A C -0.8609(10) 0.6118(8) -1.0736(6)
C18A C -0.7739(11) 0.6706(11) -1.1162(7)
C19A C -0.6632(15) 0.7211(19) -1.0489(9)
H23A H -0.6856 0.7867 -1.0162
H24A H -0.6288 0.6677 -1.0059
H25A H -0.6028 0.7421 -1.0805
C20A C -0.8422(15) 0.7577(17) -1.1712(17)
H26A H -0.8971 0.7934 -1.1388
H27A H -0.7843 0.8128 -1.1807
H28A H -0.8897 0.7233 -1.2299
C21A C -0.7273(18) 0.5870(15) -1.1759(12)
H29A H -0.7956 0.5416 -1.2145
H30A H -0.6857 0.6252 -1.2139
H31A H -0.6701 0.5400 -1.1383
C22A C -0.9293(9) 0.3186(8) -1.0635(6)
C23A C -0.8863(13) 0.2076(11) -1.0969(7)
C24A C -0.9542(13) 0.1641(10) -1.1895(8)
H32A H -0.9348 0.2103 -1.2336
H33A H -0.9309 0.0885 -1.2017
H34A H -1.0417 0.1649 -1.1944
C25A C -0.7504(15) 0.2148(19) -1.084(2)
H35A H -0.7109 0.2476 -1.0232
H36A H -0.7205 0.1408 -1.0931
H37A H -0.7316 0.2608 -1.1289
C26A C -0.898(3) 0.1257(13) -1.0380(12)
H38A H -0.8558 0.1519 -0.9756
H39A H -0.9846 0.1117 -1.0420
H40A H -0.8627 0.0575 -1.0559
Cu2_2 Cu -1.08952(9) 0.49984(8) -1.07622(6)
Cu2A_2 Cu 0.08952(9) 0.50016(8) 0.07622(6)
O6_2 O -1.0310(6) 0.4156(6) -0.8790(4)
O6A_2 O 0.0310(6) 0.5844(6) -0.1210(4)
O8_2 O -0.9789(5) 0.6405(5) -0.8852(4)
O8A_2 O -0.0211(5) 0.3595(5) -0.1148(4)
loop_
_geom_bond_atom_site_label_1
_geom_bond_atom_site_label_2
_geom_bond_site_symmetry_1
_geom_bond_site_symmetry_2
Cu1 O1 1_555 1_555
O1 C1 1_555 1_555
O2 C1 1_555 1_555
O3 Cu1 1_555 1_555
O4 C6 1_555 1_555
N1 Cu1 1_555 1_555
C1 C2 1_555 1_555
C2 C3 1_555 1_555
C3 H1 1_555 1_555
H2 C3 1_555 1_555
H3 C3 1_555 1_555
C4 C2 1_555 1_555
H4 C4 1_555 1_555
H5 C4 1_555 1_555
H6 C4 1_555 1_555
C5 C2 1_555 1_555
H7 C5 1_555 1_555
H8 C5 1_555 1_555
H9 C5 1_555 1_555
C6 O3 1_555 1_555
C7 C6 1_555 1_555
C8 C7 1_555 1_555
H10 C8 1_555 1_555
H11 C8 1_555 1_555
H12 C8 1_555 1_555
C9 C7 1_555 1_555
H13 C9 1_555 1_555
H14 C9 1_555 1_555
H15 C9 1_555 1_555
C10 C7 1_555 1_555
H16 C10 1_555 1_555
H17 C10 1_555 1_555
H18 C10 1_555 1_555
C11 N1 1_555 1_555
H19 C11 1_555 1_555
C12 C11 1_555 1_555
H20 C12 1_555 1_555
C13 C12 1_555 1_555
C14 C13 1_555 1_555
H21 C14 1_555 1_555
C15 N1 1_555 1_555
H22 C15 1_555 1_555
C16 C13 1_555 1_555
Cu2 O5 1_555 1_555
O5 C17 1_555 1_555
O6 C17 1_555 1_555
O7 Cu2 1_555 1_555
O8 C22 1_555 1_555
N2 Cu2 1_555 1_555
C17 C18 1_555 1_555
C18 C19 1_555 1_555
C19 H23 1_555 1_555
H24 C19 1_555 1_555
H25 C19 1_555 1_555
C20 C18 1_555 1_555
H26 C20 1_555 1_555
H27 C20 1_555 1_555
H28 C20 1_555 1_555
C21 C18 1_555 1_555
H29 C21 1_555 1_555
H30 C21 1_555 1_555
H31 C21 1_555 1_555
C22 O7 1_555 1_555
C23 C22 1_555 1_555
C24 C23 1_555 1_555
H32 C24 1_555 1_555
H33 C24 1_555 1_555
H34 C24 1_555 1_555
C25 C23 1_555 1_555
H35 C25 1_555 1_555
H36 C25 1_555 1_555
H37 C25 1_555 1_555
C26 C23 1_555 1_555
H38 C26 1_555 1_555
H39 C26 1_555 1_555
H40 C26 1_555 1_555
C27 N2 1_555 1_555
H41 C27 1_555 1_555
C28 C27 1_555 1_555
H42 C28 1_555 1_555
C29 C28 1_555 1_555
C30 C29 1_555 1_555
H43 C30 1_555 1_555
C31 N2 1_555 1_555
H44 C31 1_555 1_555
C32 C29 1_555 1_555
N1A C11A 1_555 1_555
C11A H19A 1_555 1_555
C12A C11A 1_555 1_555
H20A C12A 1_555 1_555
C13A C12A 1_555 1_555
C14A C13A 1_555 1_555
H21A C14A 1_555 1_555
C15A N1A 1_555 1_555
H22A C15A 1_555 1_555
C16A C16 1_555 1_555
Cu1A N1A 1_555 1_555
O1A Cu1A 1_555 1_555
O2A C1A 1_555 1_555
O3A Cu1A 1_555 1_555
O4A C6A 1_555 1_555
C1A O1A 1_555 1_555
C2A C1A 1_555 1_555
C3A C2A 1_555 1_555
H1A C3A 1_555 1_555
H2A C3A 1_555 1_555
H3A C3A 1_555 1_555
C4A C2A 1_555 1_555
H4A C4A 1_555 1_555
H5A C4A 1_555 1_555
H6A C4A 1_555 1_555
C5A C2A 1_555 1_555
H7A C5A 1_555 1_555
H8A C5A 1_555 1_555
H9A C5A 1_555 1_555
C6A O3A 1_555 1_555
C7A C6A 1_555 1_555
C8A C7A 1_555 1_555
H10A C8A 1_555 1_555
H11A C8A 1_555 1_555
H12A C8A 1_555 1_555
C9A C7A 1_555 1_555
H13A C9A 1_555 1_555
H14A C9A 1_555 1_555
H15A C9A 1_555 1_555
C10A C7A 1_555 1_555
H16A C10A 1_555 1_555
H17A C10A 1_555 1_555
H18A C10A 1_555 1_555
Cu1_2 O2A 1_555 1_555
Cu1A_2 O2 1_555 1_555
O2_2 Cu1A 1_555 1_555
O2A_2 Cu1 1_555 1_555
O4_2 Cu1A 1_555 1_555
O4A_2 Cu1 1_555 1_555
N2A C27A 1_555 1_555
C27A H41A 1_555 1_555
C28A C27A 1_555 1_555
H42A C28A 1_555 1_555
C29A C28A 1_555 1_555
C30A C29A 1_555 1_555
H43A C30A 1_555 1_555
C31A N2A 1_555 1_555
H44A C31A 1_555 1_555
C32A C32 1_555 1_555
Cu2A N2A 1_555 1_555
O5A Cu2A 1_555 1_555
O6A C17A 1_555 1_555
O7A Cu2A 1_555 1_555
O8A C22A 1_555 1_555
C17A O5A 1_555 1_555
C18A C17A 1_555 1_555
C19A C18A 1_555 1_555
H23A C19A 1_555 1_555
H24A C19A 1_555 1_555
H25A C19A 1_555 1_555
C20A C18A 1_555 1_555
H26A C20A 1_555 1_555
H27A C20A 1_555 1_555
H28A C20A 1_555 1_555
C21A C18A 1_555 1_555
H29A C21A 1_555 1_555
H30A C21A 1_555 1_555
H31A C21A 1_555 1_555
C22A O7A 1_555 1_555
C23A C22A 1_555 1_555
C24A C23A 1_555 1_555
H32A C24A 1_555 1_555
H33A C24A 1_555 1_555
H34A C24A 1_555 1_555
C25A C23A 1_555 1_555
H35A C25A 1_555 1_555
H36A C25A 1_555 1_555
H37A C25A 1_555 1_555
C26A C23A 1_555 1_555
H38A C26A 1_555 1_555
H39A C26A 1_555 1_555
H40A C26A 1_555 1_555
Cu2_2 O6A 1_555 1_555
Cu2A_2 O6 1_555 1_555
O6_2 Cu2A 1_555 1_555
O6A_2 Cu2 1_555 1_555
O8_2 Cu2A 1_555 1_555
O8A_2 Cu2 1_555 1_555
O4 Cu1A_2 1_555 1_555
C14 C15 1_555 1_555
O8 Cu2A_2 1_555 1_555
C30 C31 1_555 1_555
C13A C16A 1_555 1_555
C14A C15A 1_555 1_555
O4A Cu1_2 1_555 1_555
C29A C32A 1_555 1_555
C30A C31A 1_555 1_555
O8A Cu2_2 1_555 1_555

#END
