
#######################################################################
#
#                 Cambridge Crystallographic Data Centre
#                                CCDC 
#
#######################################################################
#
# If this CIF has been generated from an entry in the Cambridge 
# Structural Database, then it will include bibliographic, chemical, 
# crystal, experimental, refinement or atomic coordinate data resulting 
# from the CCDC's data processing and validation procedures.
#
#######################################################################

data_YIWRAZ
_symmetry_cell_setting           triclinic
_symmetry_space_group_name_H-M   'P -1'
_symmetry_Int_Tables_number      2
_space_group_name_Hall           '-P 1'
loop_
_symmetry_equiv_pos_site_id
_symmetry_equiv_pos_as_xyz
1 x,y,z
2 -x,-y,-z
_cell_length_a                   7.7345(13)
_cell_length_b                   8.3324(14)
_cell_length_c                   9.2020(15)
_cell_angle_alpha                97.737(3)
_cell_angle_beta                 97.830(3)
_cell_angle_gamma                100.529(3)
_cell_volume                     569.82
loop_
_atom_site_label
_atom_site_type_symbol
_atom_site_fract_x
_atom_site_fract_y
_atom_site_fract_z
Cu1 Cu 0.0000 0.0000 0.0000
O1 O 0.2569(6) 0.0635(6) 0.0568(5)
O2 O 0.1529(7) 0.2423(7) 0.1977(5)
N1 N -0.0102(7) -0.1429(7) 0.1531(6)
C1 C 0.2781(9) 0.1884(9) 0.1556(7)
C2 C 0.4705(11) 0.2656(10) 0.2279(9)
C3 C 0.4843(15) 0.4444(12) 0.2949(15)
H1 H 0.6077 0.4929 0.3418
H2 H 0.4060 0.4501 0.3699
H3 H 0.4480 0.5062 0.2166
C4 C 0.5994(14) 0.2554(17) 0.1214(13)
H4 H 0.7205 0.3053 0.1734
H5 H 0.5687 0.3150 0.0399
H6 H 0.5936 0.1392 0.0811
C5 C 0.5182(19) 0.169(2) 0.3508(15)
H7 H 0.6413 0.2143 0.4001
H8 H 0.5066 0.0524 0.3081
H9 H 0.4374 0.1774 0.4235
C6 C -0.0849(12) -0.1051(10) 0.2746(8)
H10 H -0.1351 -0.0091 0.2829
C7 C -0.0914(13) -0.1961(11) 0.3832(8)
H11 H -0.1456 -0.1639 0.4661
C8 C -0.0189(10) -0.3389(9) 0.3762(7)
C9 C 0.0519(13) -0.3780(11) 0.2509(8)
H12 H 0.0986 -0.4758 0.2378
C10 C 0.0565(13) -0.2803(11) 0.1460(8)
H13 H 0.1100 -0.3106 0.0622
C11 C -0.0240(11) -0.4290(10) 0.4976(8)
H14 H -0.0659 -0.3815 0.5823
N1A N 0.0102(7) -0.8571(7) 0.8469(6)
C6A C 0.0849(12) -0.8949(10) 0.7254(8)
H10A H 0.1351 -0.9909 0.7171
C7A C 0.0914(13) -0.8039(11) 0.6168(8)
H11A H 0.1456 -0.8361 0.5339
C8A C 0.0189(10) -0.6611(9) 0.6238(7)
C9A C -0.0519(13) -0.6220(11) 0.7491(8)
H12A H -0.0986 -0.5242 0.7622
C10A C -0.0565(13) -0.7197(11) 0.8540(8)
H13A H -0.1100 -0.6894 0.9378
C11A C 0.0240(11) -0.5710(10) 0.5024(8)
H14A H 0.0659 -0.6185 0.4177
O1A O -0.2569(6) -0.0635(6) -0.0568(5)
O2A O -0.1529(7) -0.2423(7) -0.1977(5)
C1A C -0.2781(9) -0.1884(9) -0.1556(7)
C2A C -0.4705(11) -0.2656(10) -0.2279(9)
C3A C -0.4843(15) -0.4444(12) -0.2949(15)
H1A H -0.6077 -0.4929 -0.3418
H2A H -0.4060 -0.4501 -0.3699
H3A H -0.4480 -0.5062 -0.2166
C4A C -0.5994(14) -0.2554(17) -0.1214(13)
H4A H -0.7205 -0.3053 -0.1734
H5A H -0.5687 -0.3150 -0.0399
H6A H -0.5936 -0.1392 -0.0811
C5A C -0.5182(19) -0.169(2) -0.3508(15)
H7A H -0.6413 -0.2143 -0.4001
H8A H -0.5066 -0.0524 -0.3081
H9A H -0.4374 -0.1774 -0.4235
Cu1_2 Cu 0.0000 -1.0000 1.0000
N1A_2 N 0.0102(7) 0.1429(7) -0.1531(6)
loop_
_geom_bond_atom_site_label_1
_geom_bond_atom_site_label_2
_geom_bond_site_symmetry_1
_geom_bond_site_symmetry_2
Cu1 O1 1_555 1_555
O1 C1 1_555 1_555
O2 Cu1 1_555 1_555
N1 Cu1 1_555 1_555
C1 O2 1_555 1_555
C2 C1 1_555 1_555
C3 C2 1_555 1_555
H1 C3 1_555 1_555
H2 C3 1_555 1_555
H3 C3 1_555 1_555
C4 C2 1_555 1_555
H4 C4 1_555 1_555
H5 C4 1_555 1_555
H6 C4 1_555 1_555
C5 C2 1_555 1_555
H7 C5 1_555 1_555
H8 C5 1_555 1_555
H9 C5 1_555 1_555
C6 N1 1_555 1_555
H10 C6 1_555 1_555
C7 C6 1_555 1_555
H11 C7 1_555 1_555
C8 C7 1_555 1_555
C9 C8 1_555 1_555
H12 C9 1_555 1_555
C10 N1 1_555 1_555
H13 C10 1_555 1_555
C11 C8 1_555 1_555
H14 C11 1_555 1_555
N1A C6A 1_555 1_555
C6A H10A 1_555 1_555
C7A C6A 1_555 1_555
H11A C7A 1_555 1_555
C8A C7A 1_555 1_555
C9A C8A 1_555 1_555
H12A C9A 1_555 1_555
C10A N1A 1_555 1_555
H13A C10A 1_555 1_555
C11A C11 1_555 1_555
H14A C11A 1_555 1_555
O1A Cu1 1_555 1_555
O2A Cu1 1_555 1_555
C1A O1A 1_555 1_555
C2A C1A 1_555 1_555
C3A C2A 1_555 1_555
H1A C3A 1_555 1_555
H2A C3A 1_555 1_555
H3A C3A 1_555 1_555
C4A C2A 1_555 1_555
H4A C4A 1_555 1_555
H5A C4A 1_555 1_555
H6A C4A 1_555 1_555
C5A C2A 1_555 1_555
H7A C5A 1_555 1_555
H8A C5A 1_555 1_555
H9A C5A 1_555 1_555
Cu1_2 N1A 1_555 1_555
N1A_2 Cu1 1_555 1_555
C9 C10 1_555 1_555
C8A C11A 1_555 1_555
C9A C10A 1_555 1_555
O2A C1A 1_555 1_555

#END
