
#######################################################################
#
#                 Cambridge Crystallographic Data Centre
#                                CCDC 
#
#######################################################################
#
# If this CIF has been generated from an entry in the Cambridge 
# Structural Database, then it will include bibliographic, chemical, 
# crystal, experimental, refinement or atomic coordinate data resulting 
# from the CCDC's data processing and validation procedures.
#
#######################################################################

data_YIWSEE
_symmetry_cell_setting           cubic
_symmetry_space_group_name_H-M   'I a -3'
_symmetry_Int_Tables_number      206
_space_group_name_Hall           '-I 2b 2c 3'
loop_
_symmetry_equiv_pos_site_id
_symmetry_equiv_pos_as_xyz
1 x,y,z
2 1/2-x,-y,1/2+z
3 -x,1/2+y,1/2-z
4 1/2+x,1/2-y,-z
5 z,x,y
6 1/2+z,1/2-x,-y
7 1/2-z,-x,1/2+y
8 -z,1/2+x,1/2-y
9 y,z,x
10 -y,1/2+z,1/2-x
11 1/2+y,1/2-z,-x
12 1/2-y,-z,1/2+x
13 1/2+x,1/2+y,1/2+z
14 -x,1/2-y,z
15 1/2-x,y,-z
16 x,-y,1/2-z
17 1/2+z,1/2+x,1/2+y
18 z,-x,1/2-y
19 -z,1/2-x,y
20 1/2-z,x,-y
21 1/2+y,1/2+z,1/2+x
22 1/2-y,z,-x
23 y,-z,1/2-x
24 -y,1/2-z,x
25 -x,-y,-z
26 1/2+x,y,1/2-z
27 x,1/2-y,1/2+z
28 1/2-x,1/2+y,z
29 -z,-x,-y
30 1/2-z,1/2+x,y
31 1/2+z,x,1/2-y
32 z,1/2-x,1/2+y
33 -y,-z,-x
34 y,1/2-z,1/2+x
35 1/2-y,1/2+z,x
36 1/2+y,z,1/2-x
37 1/2-x,1/2-y,1/2-z
38 x,1/2+y,-z
39 1/2+x,-y,z
40 -x,y,1/2+z
41 1/2-z,1/2-x,1/2-y
42 -z,x,1/2+y
43 z,1/2+x,-y
44 1/2+z,-x,y
45 1/2-y,1/2-z,1/2-x
46 1/2+y,-z,x
47 -y,z,1/2+x
48 y,1/2+z,-x
_cell_length_a                   30.69(2)
_cell_length_b                   30.69(2)
_cell_length_c                   30.69(2)
_cell_angle_alpha                90
_cell_angle_beta                 90
_cell_angle_gamma                90
_cell_volume                     28906.2
loop_
_atom_site_label
_atom_site_type_symbol
_atom_site_fract_x
_atom_site_fract_y
_atom_site_fract_z
Cu1 Cu 0.65759(3) 0.54185(3) 0.25834(3)
N1 N 0.6635(2) 0.60735(19) 0.2845(2)
N2 N 0.7712(2) 0.68323(18) 0.2565(2)
O1 O 0.70674(17) 0.54746(19) 0.21909(18)
O2 O 0.69864(18) 0.4782(2) 0.19624(18)
O3 O 0.61708(17) 0.54394(18) 0.20746(18)
O4 O 0.60870(16) 0.47268(18) 0.20370(17)
C1 C 0.7186(3) 0.5142(3) 0.1960(3)
C2 C 0.7589(4) 0.5183(4) 0.1654(4)
C3 C 0.7786(3) 0.5646(3) 0.1716(3)
H1 H 0.8032 0.5684 0.1516
H2 H 0.7888 0.5679 0.2017
H3 H 0.7563 0.5866 0.1654
C4 C 0.7912(3) 0.4828(4) 0.1774(5)
H4 H 0.7776 0.4542 0.1730
H5 H 0.7996 0.4860 0.2081
H6 H 0.8171 0.4853 0.1589
C5 C 0.7421(4) 0.5113(4) 0.1192(4)
H7 H 0.7293 0.4822 0.1168
H8 H 0.7664 0.5140 0.0986
H9 H 0.7199 0.5333 0.1125
C6 C 0.6006(3) 0.5102(3) 0.1906(3)
C7 C 0.5686(3) 0.5165(3) 0.1544(3)
C8 C 0.5636(4) 0.5599(3) 0.1367(3)
H10 H 0.5562 0.5802 0.1602
H11 H 0.5403 0.5599 0.1149
H12 H 0.5910 0.5690 0.1230
C9 C 0.5226(4) 0.5049(4) 0.1728(4)
H13 H 0.5152 0.5250 0.1965
H14 H 0.5228 0.4750 0.1839
H15 H 0.5009 0.5074 0.1495
C10 C 0.5774(4) 0.4836(4) 0.1177(4)
H16 H 0.6053 0.4903 0.1038
H17 H 0.5540 0.4854 0.0960
H18 H 0.5783 0.4541 0.1299
C11 C 0.6342(3) 0.6231(3) 0.3117(3)
H19 H 0.6080 0.6072 0.3163
C12 C 0.6401(3) 0.6617(3) 0.3336(3)
H20 H 0.6183 0.6723 0.3528
C13 C 0.6776(3) 0.6845(3) 0.3276(3)
H21 H 0.6819 0.7113 0.3426
C14 C 0.7086(3) 0.6694(3) 0.3004(3)
C15 C 0.6995(3) 0.6305(3) 0.2792(3)
H22 H 0.7206 0.6197 0.2593
C16 C 0.7471(2) 0.6952(3) 0.2907(3)
N1E N 0.7845(2) 0.8365(2) 0.39265(19)
N2E N 0.7565(2) 0.7288(2) 0.31677(18)
C11E C 0.8117(3) 0.8658(3) 0.3769(3)
H19E H 0.8163 0.8920 0.3928
C12E C 0.8336(3) 0.8599(3) 0.3383(3)
H20E H 0.8528 0.8817 0.3277
C13E C 0.8276(3) 0.8224(3) 0.3155(3)
H21E H 0.8426 0.8181 0.2887
C14E C 0.8004(3) 0.7914(3) 0.3306(3)
C15E C 0.7792(3) 0.8005(3) 0.3695(3)
H22E H 0.7593 0.7794 0.3803
C16E C 0.7907(3) 0.7529(2) 0.3048(3)
N1K N 0.89265(19) 0.7155(2) 0.1635(2)
N2K N 0.81677(18) 0.7435(2) 0.2712(2)
C11K C 0.8769(3) 0.6883(3) 0.1342(3)
H19K H 0.8928 0.6837 0.1080
C12K C 0.8383(3) 0.6664(3) 0.1401(3)
H20K H 0.8277 0.6472 0.1183
C13K C 0.8155(3) 0.6724(3) 0.1776(3)
H21K H 0.7887 0.6574 0.1819
C14K C 0.8306(3) 0.6996(3) 0.2086(3)
C15K C 0.8695(3) 0.7208(3) 0.1995(3)
H22K H 0.8803 0.7407 0.2206
C16K C 0.8048(3) 0.7093(3) 0.2471(2)
Cu1E Cu 0.75834(3) 0.84241(3) 0.45815(3)
O1E O 0.71909(18) 0.79326(17) 0.45254(19)
O2E O 0.69624(18) 0.80136(18) 0.5218(2)
O3E O 0.70746(18) 0.88292(17) 0.45606(18)
O4E O 0.70370(17) 0.89130(16) 0.52732(18)
C1E C 0.6960(3) 0.7814(3) 0.4858(3)
C2E C 0.6654(4) 0.7411(4) 0.4817(4)
C3E C 0.6716(3) 0.7214(3) 0.4354(3)
H1E H 0.6516 0.6968 0.4316
H2E H 0.7017 0.7112 0.4321
H3E H 0.6654 0.7437 0.4134
C4E C 0.6774(5) 0.7088(3) 0.5172(4)
H4E H 0.6730 0.7224 0.5458
H5E H 0.7081 0.7004 0.5140
H6E H 0.6589 0.6829 0.5147
C5E C 0.6192(4) 0.7579(4) 0.4887(4)
H7E H 0.6168 0.7707 0.5178
H8E H 0.5986 0.7336 0.4860
H9E H 0.6125 0.7801 0.4667
C6E C 0.6906(3) 0.8994(3) 0.4898(3)
C7E C 0.6544(3) 0.9314(3) 0.4835(3)
C8E C 0.6367(3) 0.9364(4) 0.4401(3)
H10E H 0.6602 0.9438 0.4198
H11E H 0.6149 0.9597 0.4401
H12E H 0.6230 0.9090 0.4310
C9E C 0.6728(4) 0.9774(4) 0.4951(4)
H13E H 0.6965 0.9848 0.4750
H14E H 0.6839 0.9772 0.5250
H15E H 0.6495 0.9991 0.4926
C10E C 0.6177(4) 0.9226(4) 0.5164(4)
H16E H 0.6038 0.8947 0.5097
H17E H 0.5960 0.9460 0.5146
H18E H 0.6299 0.9217 0.5459
Cu1K Cu 0.95815(3) 0.74166(3) 0.15759(3)
O1K O 0.95254(19) 0.78091(18) 0.20674(17)
O2K O 1.0218(2) 0.80376(18) 0.19864(18)
O3K O 0.95606(18) 0.79254(18) 0.11708(17)
O4K O 1.02732(18) 0.79630(17) 0.10870(16)
C1K C 0.9858(3) 0.8040(3) 0.2186(3)
C2K C 0.9817(4) 0.8346(4) 0.2589(4)
C3K C 0.9354(3) 0.8284(3) 0.2786(3)
H1K H 0.9316 0.8484 0.3032
H2K H 0.9321 0.7983 0.2888
H3K H 0.9134 0.8346 0.2563
C4K C 1.0172(4) 0.8226(5) 0.2912(3)
H4K H 1.0458 0.8270 0.2776
H5K H 1.0140 0.7919 0.2996
H6K H 1.0147 0.8411 0.3171
C5K C 0.9887(4) 0.8808(4) 0.2421(4)
H7K H 1.0178 0.8832 0.2293
H8K H 0.9860 0.9014 0.2664
H9K H 0.9667 0.8875 0.2199
C6K C 0.9898(3) 0.8094(3) 0.1006(3)
C7K C 0.9835(3) 0.8456(3) 0.0686(3)
C8K C 0.9401(3) 0.8633(3) 0.0636(4)
H10K H 0.9198 0.8398 0.0562
H11K H 0.9401 0.8851 0.0403
H12K H 0.9310 0.8770 0.0910
C9K C 0.9951(4) 0.8272(4) 0.0226(4)
H13K H 0.9750 0.8035 0.0152
H14K H 1.0250 0.8161 0.0228
H15K H 0.9926 0.8505 0.0009
C10K C 1.0164(4) 0.8823(4) 0.0774(4)
H16K H 1.0097 0.8962 0.1053
H17K H 1.0146 0.9040 0.0540
H18K H 1.0459 0.8701 0.0783
Cu1O Cu 0.65759(3) 0.45815(3) 0.24166(3)
Cu1R Cu 0.74166(3) 0.84241(3) 0.54185(3)
Cu1T Cu 1.04185(3) 0.75834(3) 0.15759(3)
O2O O 0.69864(18) 0.5218(2) 0.30376(18)
O2R O 0.80376(18) 0.80136(18) 0.4782(2)
O2T O 0.9782(2) 0.69624(18) 0.19864(18)
O4O O 0.60870(16) 0.52732(18) 0.29630(17)
O4R O 0.79630(17) 0.89130(16) 0.47268(18)
O4T O 0.97268(18) 0.70370(17) 0.10870(16)
loop_
_geom_bond_atom_site_label_1
_geom_bond_atom_site_label_2
_geom_bond_site_symmetry_1
_geom_bond_site_symmetry_2
Cu1 N1 1_555 1_555
N1 C11 1_555 1_555
N2 C16 1_555 1_555
O1 Cu1 1_555 1_555
O2 C1 1_555 1_555
O3 Cu1 1_555 1_555
O4 C6 1_555 1_555
C1 O1 1_555 1_555
C2 C1 1_555 1_555
C3 C2 1_555 1_555
H1 C3 1_555 1_555
H2 C3 1_555 1_555
H3 C3 1_555 1_555
C4 C2 1_555 1_555
H4 C4 1_555 1_555
H5 C4 1_555 1_555
H6 C4 1_555 1_555
C5 C2 1_555 1_555
H7 C5 1_555 1_555
H8 C5 1_555 1_555
H9 C5 1_555 1_555
C6 O3 1_555 1_555
C7 C6 1_555 1_555
C8 C7 1_555 1_555
H10 C8 1_555 1_555
H11 C8 1_555 1_555
H12 C8 1_555 1_555
C9 C7 1_555 1_555
H13 C9 1_555 1_555
H14 C9 1_555 1_555
H15 C9 1_555 1_555
C10 C7 1_555 1_555
H16 C10 1_555 1_555
H17 C10 1_555 1_555
H18 C10 1_555 1_555
C11 H19 1_555 1_555
C12 C11 1_555 1_555
H20 C12 1_555 1_555
C13 C12 1_555 1_555
H21 C13 1_555 1_555
C14 C13 1_555 1_555
C15 N1 1_555 1_555
H22 C15 1_555 1_555
C16 C14 1_555 1_555
N1E C11E 1_555 1_555
N2E C16 1_555 1_555
C11E H19E 1_555 1_555
C12E C11E 1_555 1_555
H20E C12E 1_555 1_555
C13E C12E 1_555 1_555
H21E C13E 1_555 1_555
C14E C13E 1_555 1_555
C15E N1E 1_555 1_555
H22E C15E 1_555 1_555
C16E N2E 1_555 1_555
N1K C11K 1_555 1_555
N2K C16E 1_555 1_555
C11K H19K 1_555 1_555
C12K C11K 1_555 1_555
H20K C12K 1_555 1_555
C13K C12K 1_555 1_555
H21K C13K 1_555 1_555
C14K C13K 1_555 1_555
C15K N1K 1_555 1_555
H22K C15K 1_555 1_555
C16K N2 1_555 1_555
Cu1E N1E 1_555 1_555
O1E Cu1E 1_555 1_555
O2E C1E 1_555 1_555
O3E Cu1E 1_555 1_555
O4E C6E 1_555 1_555
C1E O1E 1_555 1_555
C2E C1E 1_555 1_555
C3E C2E 1_555 1_555
H1E C3E 1_555 1_555
H2E C3E 1_555 1_555
H3E C3E 1_555 1_555
C4E C2E 1_555 1_555
H4E C4E 1_555 1_555
H5E C4E 1_555 1_555
H6E C4E 1_555 1_555
C5E C2E 1_555 1_555
H7E C5E 1_555 1_555
H8E C5E 1_555 1_555
H9E C5E 1_555 1_555
C6E O3E 1_555 1_555
C7E C6E 1_555 1_555
C8E C7E 1_555 1_555
H10E C8E 1_555 1_555
H11E C8E 1_555 1_555
H12E C8E 1_555 1_555
C9E C7E 1_555 1_555
H13E C9E 1_555 1_555
H14E C9E 1_555 1_555
H15E C9E 1_555 1_555
C10E C7E 1_555 1_555
H16E C10E 1_555 1_555
H17E C10E 1_555 1_555
H18E C10E 1_555 1_555
Cu1K N1K 1_555 1_555
O1K Cu1K 1_555 1_555
O2K C1K 1_555 1_555
O3K Cu1K 1_555 1_555
O4K C6K 1_555 1_555
C1K O1K 1_555 1_555
C2K C1K 1_555 1_555
C3K C2K 1_555 1_555
H1K C3K 1_555 1_555
H2K C3K 1_555 1_555
H3K C3K 1_555 1_555
C4K C2K 1_555 1_555
H4K C4K 1_555 1_555
H5K C4K 1_555 1_555
H6K C4K 1_555 1_555
C5K C2K 1_555 1_555
H7K C5K 1_555 1_555
H8K C5K 1_555 1_555
H9K C5K 1_555 1_555
C6K O3K 1_555 1_555
C7K C6K 1_555 1_555
C8K C7K 1_555 1_555
H10K C8K 1_555 1_555
H11K C8K 1_555 1_555
H12K C8K 1_555 1_555
C9K C7K 1_555 1_555
H13K C9K 1_555 1_555
H14K C9K 1_555 1_555
H15K C9K 1_555 1_555
C10K C7K 1_555 1_555
H16K C10K 1_555 1_555
H17K C10K 1_555 1_555
H18K C10K 1_555 1_555
Cu1O Cu1 1_555 1_555
Cu1R Cu1E 1_555 1_555
Cu1T Cu1K 1_555 1_555
O2O Cu1 1_555 1_555
O2R Cu1E 1_555 1_555
O2T Cu1K 1_555 1_555
O4O Cu1 1_555 1_555
O4R Cu1E 1_555 1_555
O4T Cu1K 1_555 1_555
O2 Cu1O 1_555 1_555
O4 Cu1O 1_555 1_555
C14 C15 1_555 1_555
C14E C15E 1_555 1_555
C14E C16E 1_555 1_555
N2K C16K 1_555 1_555
C14K C15K 1_555 1_555
C14K C16K 1_555 1_555
O2E Cu1R 1_555 1_555
O4E Cu1R 1_555 1_555
O2K Cu1T 1_555 1_555
O4K Cu1T 1_555 1_555

#END
