
#######################################################################
#
#                 Cambridge Crystallographic Data Centre
#                                CCDC 
#
#######################################################################
#
# If this CIF has been generated from an entry in the Cambridge 
# Structural Database, then it will include bibliographic, chemical, 
# crystal, experimental, refinement or atomic coordinate data resulting 
# from the CCDC's data processing and validation procedures.
#
#######################################################################

data_YIWSAA
_symmetry_cell_setting           triclinic
_symmetry_space_group_name_H-M   'P -1'
_symmetry_Int_Tables_number      2
_space_group_name_Hall           '-P 1'
loop_
_symmetry_equiv_pos_site_id
_symmetry_equiv_pos_as_xyz
1 x,y,z
2 -x,-y,-z
_cell_length_a                   9.418(11)
_cell_length_b                   16.050(19)
_cell_length_c                   16.948(19)
_cell_angle_alpha                95.820(17)
_cell_angle_beta                 104.139(18)
_cell_angle_gamma                102.716(17)
_cell_volume                     2390.47
loop_
_atom_site_label
_atom_site_type_symbol
_atom_site_fract_x
_atom_site_fract_y
_atom_site_fract_z
Cu1 Cu -0.04345(18) -0.00643(10) 0.06679(9)
Cu2 Cu -0.90760(18) -0.43097(10) 0.49087(10)
N1 N -0.1055(13) -0.0139(7) 0.1800(7)
N2 N -0.1691(15) 0.0360(8) 0.4688(8)
N3 N -0.3363(15) -0.0366(8) 0.5406(7)
N4 N -0.3487(15) -0.0976(8) 0.4044(7)
N5 N -0.0301(19) 0.2380(8) 0.7408(8)
N6 N -0.7466(13) -0.3150(7) 0.4819(7)
O1 O -0.2488(11) -0.0420(8) -0.0088(5)
O2 O -0.1758(8) -0.0288(7) -0.1235(5)
O3 O -0.0353(12) -0.1287(7) 0.0472(6)
O4 O 0.0362(13) -0.1176(6) -0.0685(6)
O5 O -1.0351(13) -0.4506(7) 0.3767(7)
O6 O -1.1969(11) -0.5697(6) 0.3920(6)
O7 O -0.8023(12) -0.5125(6) 0.4526(8)
O8 O -0.9578(14) -0.6314(7) 0.4704(9)
C1 C -0.2751(11) -0.0463(9) -0.0856(6)
C2 C -0.4413(11) -0.0746(11) -0.1392(7)
C3 C -0.487(3) 0.0091(14) -0.1576(16)
H1 H -0.5892 -0.0050 -0.1920
H2 H -0.4204 0.0404 -0.1854
H3 H -0.4799 0.0443 -0.1067
C4 C -0.549(2) -0.1246(17) -0.0954(12)
H4 H -0.6507 -0.1404 -0.1310
H5 H -0.5456 -0.0887 -0.0456
H6 H -0.5191 -0.1760 -0.0820
C5 C -0.449(2) -0.1322(18) -0.2191(11)
H7 H -0.5517 -0.1488 -0.2536
H8 H -0.4172 -0.1831 -0.2059
H9 H -0.3844 -0.1007 -0.2476
C6 C -0.0072(18) -0.1591(9) -0.0155(10)
C7 C -0.038(2) -0.2582(9) -0.0337(9)
C8 C -0.062(3) -0.3045(11) 0.0379(10)
H10 H 0.0300 -0.2899 0.0817
H11 H -0.0929 -0.3659 0.0195
H12 H -0.1401 -0.2867 0.0577
C9 C 0.070(3) -0.2899(15) -0.0775(18)
H13 H 0.1716 -0.2699 -0.0428
H14 H 0.0627 -0.2675 -0.1284
H15 H 0.0416 -0.3520 -0.0889
C10 C -0.198(2) -0.2945(18) -0.0937(16)
H16 H -0.2196 -0.3564 -0.1060
H17 H -0.2031 -0.2707 -0.1438
H18 H -0.2715 -0.2787 -0.0685
C11 C -1.149(2) -0.5130(11) 0.3520(8)
C12 C -1.247(2) -0.5231(11) 0.2623(8)
C13 C -1.151(2) -0.4830(14) 0.2073(10)
H19 H -1.2145 -0.4892 0.1522
H20 H -1.0727 -0.5122 0.2067
H21 H -1.1064 -0.4227 0.2289
C14 C -1.332(4) -0.6179(13) 0.2268(13)
H22 H -1.3920 -0.6215 0.1713
H23 H -1.3963 -0.6395 0.2601
H24 H -1.2598 -0.6519 0.2266
C15 C -1.366(3) -0.470(2) 0.2600(19)
H25 H -1.4269 -0.4762 0.2042
H26 H -1.3161 -0.4103 0.2805
H27 H -1.4303 -0.4913 0.2937
C16 C -0.8440(17) -0.5937(10) 0.4518(9)
C17 C -0.7656(18) -0.6522(10) 0.4095(13)
C18 C -0.597(2) -0.6085(16) 0.426(2)
H28 H -0.5853 -0.5527 0.4091
H29 H -0.5518 -0.6437 0.3955
H30 H -0.5479 -0.6017 0.4839
C19 C -0.795(3) -0.7437(12) 0.433(3)
H31 H -0.7436 -0.7779 0.4053
H32 H -0.9016 -0.7704 0.4155
H33 H -0.7575 -0.7397 0.4912
C20 C -0.829(7) -0.656(4) 0.3161(14)
H34 H -0.8099 -0.5989 0.3028
H35 H -0.9365 -0.6819 0.3002
H36 H -0.7813 -0.6910 0.2869
C21 C -0.0633(17) 0.0552(9) 0.2419(9)
H37 H -0.0061 0.1074 0.2343
C22 C -0.1006(17) 0.0518(9) 0.3147(9)
H38 H -0.0667 0.1007 0.3553
C23 C -0.1893(17) -0.0242(9) 0.3286(9)
C24 C -0.2281(19) -0.0966(10) 0.2663(9)
H39 H -0.2844 -0.1495 0.2727
C25 C -0.1837(18) -0.0890(10) 0.1977(9)
H40 H -0.2079 -0.1388 0.1588
C26 C -0.2381(18) -0.0300(10) 0.4048(9)
C27 C -0.2226(17) 0.0279(9) 0.5341(9)
C28 C -0.3948(18) -0.0979(10) 0.4735(9)
C29 C -0.1508(19) 0.0999(10) 0.6082(9)
C30 C -0.056(2) 0.1760(11) 0.6000(9)
H41 H -0.0302 0.1820 0.5508
C31 C 0.001(2) 0.2441(11) 0.6678(10)
H42 H 0.0628 0.2956 0.6619
C32 C -0.121(2) 0.1612(10) 0.7463(10)
H43 H -0.1445 0.1552 0.7959
C33 C -0.1794(19) 0.0922(10) 0.6829(9)
H44 H -0.2381 0.0406 0.6907
C34 C -0.5213(19) -0.1717(10) 0.4751(9)
C35 C -0.5779(17) -0.1762(9) 0.5440(9)
H45 H -0.5433 -0.1310 0.5884
C36 C -0.6868(16) -0.2499(9) 0.5440(8)
H46 H -0.7202 -0.2538 0.5911
C37 C -0.692(2) -0.3099(10) 0.4164(10)
H47 H -0.7316 -0.3556 0.3724
C38 C -0.581(2) -0.2406(10) 0.4099(9)
H48 H -0.5461 -0.2402 0.3629
Cu1A Cu 0.04345(18) 0.00643(10) -0.06679(9)
Cu2A Cu -1.09240(18) -0.56903(10) 0.50913(10)
O2A O 0.1758(8) 0.0288(7) 0.1235(5)
O4A O -0.0362(13) 0.1176(6) 0.0685(6)
O6A O -0.8031(11) -0.4303(6) 0.6080(6)
O8A O -1.0422(14) -0.3686(7) 0.5296(9)
C39 C -0.334(2) -0.5517(12) -0.0567(13)
H49 H -0.3082 -0.4985 -0.0224
C40 C -0.448(2) -0.6190(18) -0.0480(14)
H50 H -0.4975 -0.6108 -0.0077
C41 C -0.487(2) -0.6985(14) -0.0993(18)
H51 H -0.5629 -0.7435 -0.0934
C42 C -0.413(3) -0.7106(13) -0.1595(15)
H52 H -0.4392 -0.7638 -0.1938
C43 C -0.300(3) -0.6433(17) -0.1682(12)
H53 H -0.2499 -0.6515 -0.2085
C44 C -0.260(2) -0.5638(13) -0.1169(15)
H54 H -0.1845 -0.5188 -0.1228
loop_
_geom_bond_atom_site_label_1
_geom_bond_atom_site_label_2
_geom_bond_site_symmetry_1
_geom_bond_site_symmetry_2
Cu1 N1 1_555 1_555
Cu2 N6 1_555 1_555
N1 C21 1_555 1_555
N2 C26 1_555 1_555
N3 C27 1_555 1_555
N4 C26 1_555 1_555
N5 C31 1_555 1_555
N6 C36 1_555 1_555
O1 Cu1 1_555 1_555
O2 C1 1_555 1_555
O3 Cu1 1_555 1_555
O4 C6 1_555 1_555
O5 Cu2 1_555 1_555
O6 C11 1_555 1_555
O7 Cu2 1_555 1_555
O8 C16 1_555 1_555
C1 O1 1_555 1_555
C2 C1 1_555 1_555
C3 C2 1_555 1_555
H1 C3 1_555 1_555
H2 C3 1_555 1_555
H3 C3 1_555 1_555
C4 C2 1_555 1_555
H4 C4 1_555 1_555
H5 C4 1_555 1_555
H6 C4 1_555 1_555
C5 C2 1_555 1_555
H7 C5 1_555 1_555
H8 C5 1_555 1_555
H9 C5 1_555 1_555
C6 O3 1_555 1_555
C7 C6 1_555 1_555
C8 C7 1_555 1_555
H10 C8 1_555 1_555
H11 C8 1_555 1_555
H12 C8 1_555 1_555
C9 C7 1_555 1_555
H13 C9 1_555 1_555
H14 C9 1_555 1_555
H15 C9 1_555 1_555
C10 C7 1_555 1_555
H16 C10 1_555 1_555
H17 C10 1_555 1_555
H18 C10 1_555 1_555
C11 O5 1_555 1_555
C12 C11 1_555 1_555
C13 C12 1_555 1_555
H19 C13 1_555 1_555
H20 C13 1_555 1_555
H21 C13 1_555 1_555
C14 C12 1_555 1_555
H22 C14 1_555 1_555
H23 C14 1_555 1_555
H24 C14 1_555 1_555
C15 C12 1_555 1_555
H25 C15 1_555 1_555
H26 C15 1_555 1_555
H27 C15 1_555 1_555
C16 O7 1_555 1_555
C17 C16 1_555 1_555
C18 C17 1_555 1_555
H28 C18 1_555 1_555
H29 C18 1_555 1_555
H30 C18 1_555 1_555
C19 C17 1_555 1_555
H31 C19 1_555 1_555
H32 C19 1_555 1_555
H33 C19 1_555 1_555
C20 C17 1_555 1_555
H34 C20 1_555 1_555
H35 C20 1_555 1_555
H36 C20 1_555 1_555
C21 H37 1_555 1_555
C22 C21 1_555 1_555
H38 C22 1_555 1_555
C23 C22 1_555 1_555
C24 C23 1_555 1_555
H39 C24 1_555 1_555
C25 N1 1_555 1_555
H40 C25 1_555 1_555
C26 C23 1_555 1_555
C27 N2 1_555 1_555
C28 N3 1_555 1_555
C29 C27 1_555 1_555
C30 C29 1_555 1_555
H41 C30 1_555 1_555
C31 C30 1_555 1_555
H42 C31 1_555 1_555
C32 N5 1_555 1_555
H43 C32 1_555 1_555
C33 C29 1_555 1_555
H44 C33 1_555 1_555
C34 C28 1_555 1_555
C35 C34 1_555 1_555
H45 C35 1_555 1_555
C36 C35 1_555 1_555
H46 C36 1_555 1_555
C37 N6 1_555 1_555
H47 C37 1_555 1_555
C38 C34 1_555 1_555
H48 C38 1_555 1_555
C39 H49 1_555 1_555
C40 C39 1_555 1_555
H50 C40 1_555 1_555
C41 C40 1_555 1_555
H51 C41 1_555 1_555
C42 C41 1_555 1_555
H52 C42 1_555 1_555
C43 C42 1_555 1_555
H53 C43 1_555 1_555
C44 C39 1_555 1_555
H54 C44 1_555 1_555
Cu1A Cu1 1_555 1_555
Cu2A Cu2 1_555 1_555
O2A Cu1 1_555 1_555
O4A Cu1 1_555 1_555
O6A Cu2 1_555 1_555
O8A Cu2 1_555 1_555
N4 C28 1_555 1_555
O2 Cu1A 1_555 1_555
O4 Cu1A 1_555 1_555
O6 Cu2A 1_555 1_555
O8 Cu2A 1_555 1_555
C24 C25 1_555 1_555
C32 C33 1_555 1_555
C37 C38 1_555 1_555
C43 C44 1_555 1_555

#END
