
#######################################################################
#
#                 Cambridge Crystallographic Data Centre
#                                CCDC 
#
#######################################################################
#
# If this CIF has been generated from an entry in the Cambridge 
# Structural Database, then it will include bibliographic, chemical, 
# crystal, experimental, refinement or atomic coordinate data resulting 
# from the CCDC's data processing and validation procedures.
#
#######################################################################

data_YIWZIP
_symmetry_cell_setting           tetragonal
_symmetry_space_group_name_H-M   'I 41/a c d'
_symmetry_Int_Tables_number      142
_space_group_name_Hall           '-I 4bd 2c'
loop_
_symmetry_equiv_pos_site_id
_symmetry_equiv_pos_as_xyz
1 x,y,z
2 -x,1/2-y,z
3 x,-y,1/2-z
4 1/2-x,y,-z
5 1/4-y,1/4-x,1/4-z
6 3/4+y,1/4+x,1/4-z
7 1/4+y,1/4-x,3/4+z
8 1/4-y,3/4+x,1/4+z
9 1/2+x,1/2+y,1/2+z
10 1/2-x,-y,1/2+z
11 1/2+x,1/2-y,-z
12 -x,1/2+y,1/2-z
13 3/4-y,3/4-x,3/4-z
14 1/4+y,3/4+x,3/4-z
15 3/4+y,3/4-x,1/4+z
16 3/4-y,1/4+x,3/4+z
17 -x,-y,-z
18 x,1/2+y,-z
19 -x,y,1/2+z
20 1/2+x,-y,z
21 3/4+y,3/4+x,3/4+z
22 1/4-y,3/4-x,3/4+z
23 3/4-y,3/4+x,1/4-z
24 3/4+y,1/4-x,3/4-z
25 1/2-x,1/2-y,1/2-z
26 1/2+x,y,1/2-z
27 1/2-x,1/2+y,z
28 x,1/2-y,1/2+z
29 1/4+y,1/4+x,1/4+z
30 3/4-y,1/4-x,1/4+z
31 1/4-y,1/4+x,3/4-z
32 1/4+y,3/4-x,1/4-z
_cell_length_a                   18.9727(7)
_cell_length_b                   18.9727(7)
_cell_length_c                   17.9724(12)
_cell_angle_alpha                90
_cell_angle_beta                 90
_cell_angle_gamma                90
_cell_volume                     6469.41
loop_
_atom_site_label
_atom_site_type_symbol
_atom_site_fract_x
_atom_site_fract_y
_atom_site_fract_z
Zn1 Zn 0.5000 0.2500 0.1250
C1 C 0.4407(2) 0.1262(3) 0.0366(3)
N1 N 0.4542(2) 0.0898(2) -0.0252(2)
C2 C 0.5197(3) 0.1166(3) -0.0524(3)
H1 H 0.5432 0.1025 -0.0953
N2 N 0.4910(2) 0.1716(2) 0.0521(2)
C3 C 0.4130(3) 0.0396(3) -0.0673(3)
H2 H 0.3769 0.0196 -0.0355
H3 H 0.4433 0.0016 -0.0839
C4 C 0.3784(3) 0.0736(3) -0.1345(3)
H4 H 0.4146 0.0954 -0.1647
H5 H 0.3564 0.0370 -0.1642
C5 C 0.5405(3) 0.1652(3) -0.0045(3)
H6 H 0.5819 0.1911 -0.0081
C6 C 0.3778(3) 0.1135(3) 0.0834(3)
H7 H 0.3493 0.0774 0.0611
H8 H 0.3509 0.1562 0.0873
H9 H 0.3924 0.0987 0.1321
C1M C 0.3762(3) 0.1907(2) -0.2866(3)
N1M N 0.3398(2) 0.2042(2) -0.2248(2)
C2M C 0.3666(3) 0.2697(3) -0.1976(3)
H1M H 0.3525 0.2932 -0.1547
N2M N 0.4216(2) 0.2410(2) -0.3021(2)
C3M C 0.2896(3) 0.1630(3) -0.1827(3)
H2M H 0.2696 0.1269 -0.2145
H3M H 0.2516 0.1933 -0.1661
C4M C 0.3236(3) 0.1284(3) -0.1155(3)
H4M H 0.3454 0.1646 -0.0853
H5M H 0.2870 0.1064 -0.0858
C5M C 0.4152(3) 0.2905(3) -0.2455(3)
H6M H 0.4411 0.3319 -0.2419
C6M C 0.3635(3) 0.1278(3) -0.3334(3)
H7M H 0.3274 0.0993 -0.3111
H8M H 0.4062 0.1009 -0.3373
H9M H 0.3487 0.1424 -0.3821
C1A C 0.5593(2) 0.3738(3) 0.0366(3)
N1A N 0.5458(2) 0.4102(2) -0.0252(2)
C2A C 0.4803(3) 0.3834(3) -0.0524(3)
H1A H 0.4568 0.3975 -0.0953
N2A N 0.5090(2) 0.3284(2) 0.0521(2)
C3A C 0.5870(3) 0.4604(3) -0.0673(3)
H2A H 0.6231 0.4804 -0.0355
H3A H 0.5567 0.4984 -0.0839
C4A C 0.6216(3) 0.4264(3) -0.1345(3)
H4A H 0.5854 0.4046 -0.1647
H5A H 0.6436 0.4630 -0.1642
C5A C 0.4595(3) 0.3348(3) -0.0045(3)
H6A H 0.4181 0.3089 -0.0081
C6A C 0.6222(3) 0.3865(3) 0.0834(3)
H7A H 0.6507 0.4226 0.0611
H8A H 0.6491 0.3438 0.0873
H9A H 0.6076 0.4013 0.1321
C1L C 0.6238(3) 0.3093(2) -0.2866(3)
N1L N 0.6602(2) 0.2958(2) -0.2248(2)
C2L C 0.6334(3) 0.2303(3) -0.1976(3)
H1L H 0.6475 0.2068 -0.1547
N2L N 0.5784(2) 0.2590(2) -0.3021(2)
C3L C 0.7104(3) 0.3370(3) -0.1827(3)
H2L H 0.7304 0.3731 -0.2145
H3L H 0.7484 0.3067 -0.1661
C4L C 0.6764(3) 0.3716(3) -0.1155(3)
H4L H 0.6546 0.3354 -0.0853
H5L H 0.7130 0.3936 -0.0858
C5L C 0.5848(3) 0.2095(3) -0.2455(3)
H6L H 0.5589 0.1681 -0.2419
C6L C 0.6365(3) 0.3722(3) -0.3334(3)
H7L H 0.6726 0.4007 -0.3111
H8L H 0.5938 0.3991 -0.3373
H9L H 0.6513 0.3576 -0.3821
Zn1L Zn 0.5000 0.2500 -0.3750
N2V N 0.5784(2) 0.2410(2) 0.1979(2)
N2EA N 0.4216(2) 0.2590(2) 0.1979(2)
Cl1 Cl 0.2500 0.79931(11) 0.0000
O1 O 0.2114(2) 0.8413(4) -0.0478(3)
O2 O 0.2015(2) 0.7564(3) 0.0392(4)
O1C O 0.2886(2) 0.8413(4) 0.0478(3)
O2C O 0.2985(2) 0.7564(3) -0.0392(4)
O3 O 0.2246(10) 0.9753(9) -0.0857(9)
loop_
_geom_bond_atom_site_label_1
_geom_bond_atom_site_label_2
_geom_bond_site_symmetry_1
_geom_bond_site_symmetry_2
Zn1 N2 1_555 1_555
C1 N1 1_555 1_555
N1 C2 1_555 1_555
C2 H1 1_555 1_555
N2 C1 1_555 1_555
C3 N1 1_555 1_555
H2 C3 1_555 1_555
H3 C3 1_555 1_555
C4 C3 1_555 1_555
H4 C4 1_555 1_555
H5 C4 1_555 1_555
C5 C2 1_555 1_555
H6 C5 1_555 1_555
C6 C1 1_555 1_555
H7 C6 1_555 1_555
H8 C6 1_555 1_555
H9 C6 1_555 1_555
Cl1 O1 1_555 1_555
O2 Cl1 1_555 1_555
C1M N1M 1_555 1_555
N1M C2M 1_555 1_555
C2M H1M 1_555 1_555
N2M C1M 1_555 1_555
C3M N1M 1_555 1_555
H2M C3M 1_555 1_555
H3M C3M 1_555 1_555
C4M C4 1_555 1_555
H4M C4M 1_555 1_555
H5M C4M 1_555 1_555
C5M C2M 1_555 1_555
H6M C5M 1_555 1_555
C6M C1M 1_555 1_555
H7M C6M 1_555 1_555
H8M C6M 1_555 1_555
H9M C6M 1_555 1_555
C1A N1A 1_555 1_555
N1A C2A 1_555 1_555
C2A H1A 1_555 1_555
N2A Zn1 1_555 1_555
C3A N1A 1_555 1_555
H2A C3A 1_555 1_555
H3A C3A 1_555 1_555
C4A C3A 1_555 1_555
H4A C4A 1_555 1_555
H5A C4A 1_555 1_555
C5A C2A 1_555 1_555
H6A C5A 1_555 1_555
C6A C1A 1_555 1_555
H7A C6A 1_555 1_555
H8A C6A 1_555 1_555
H9A C6A 1_555 1_555
C1L N1L 1_555 1_555
N1L C2L 1_555 1_555
C2L H1L 1_555 1_555
N2L C1L 1_555 1_555
C3L N1L 1_555 1_555
H2L C3L 1_555 1_555
H3L C3L 1_555 1_555
C4L C4A 1_555 1_555
H4L C4L 1_555 1_555
H5L C4L 1_555 1_555
C5L C2L 1_555 1_555
H6L C5L 1_555 1_555
C6L C1L 1_555 1_555
H7L C6L 1_555 1_555
H8L C6L 1_555 1_555
H9L C6L 1_555 1_555
Zn1L N2M 1_555 1_555
N2V Zn1 1_555 1_555
N2EA Zn1 1_555 1_555
O1C Cl1 1_555 1_555
O2C Cl1 1_555 1_555
N2 C5 1_555 1_555
N2M C5M 1_555 1_555
C3M C4M 1_555 1_555
C1A N2A 1_555 1_555
N2A C5A 1_555 1_555
N2L C5L 1_555 1_555
N2L Zn1L 1_555 1_555
C3L C4L 1_555 1_555

#END
