
#######################################################################
#
#                 Cambridge Crystallographic Data Centre
#                                CCDC 
#
#######################################################################
#
# If this CIF has been generated from an entry in the Cambridge 
# Structural Database, then it will include bibliographic, chemical, 
# crystal, experimental, refinement or atomic coordinate data resulting 
# from the CCDC's data processing and validation procedures.
#
#######################################################################

data_YIWZEL
_symmetry_cell_setting           orthorhombic
_symmetry_space_group_name_H-M   'P b c n'
_symmetry_Int_Tables_number      60
_space_group_name_Hall           '-P 2n 2ab'
loop_
_symmetry_equiv_pos_site_id
_symmetry_equiv_pos_as_xyz
1 x,y,z
2 1/2-x,1/2-y,1/2+z
3 -x,y,1/2-z
4 1/2+x,1/2-y,-z
5 -x,-y,-z
6 1/2+x,1/2+y,1/2-z
7 x,-y,1/2+z
8 1/2-x,1/2+y,z
_cell_length_a                   23.610(3)
_cell_length_b                   12.0241(16)
_cell_length_c                   7.7755(13)
_cell_angle_alpha                90
_cell_angle_beta                 90
_cell_angle_gamma                90
_cell_volume                     2207.38
loop_
_atom_site_label
_atom_site_type_symbol
_atom_site_fract_x
_atom_site_fract_y
_atom_site_fract_z
Mn1 Mn 0.5000 0.64028(3) 1.2500
P1 P 0.42821(2) 0.58516(5) 0.87523(7)
H1 H 0.4523(10) 0.6321(18) 0.736(3)
O1 O 0.44174(6) 0.65641(13) 1.02744(19)
O2 O 0.44297(6) 0.46428(13) 0.8819(2)
N1 N 0.54831(8) 0.79359(15) 1.1554(2)
C1 C 0.35378(9) 0.59915(19) 0.8228(3)
C2 C 0.32326(10) 0.6931(2) 0.8696(3)
H2 H 0.3407 0.7486 0.9362
C3 C 0.26731(12) 0.7057(3) 0.8190(4)
H3 H 0.2468 0.7693 0.8518
C4 C 0.24185(12) 0.6245(3) 0.7205(3)
H4 H 0.2041 0.6336 0.6842
C5 C 0.27150(11) 0.5302(3) 0.6750(3)
H5 H 0.2538 0.4745 0.6092
C6 C 0.32734(10) 0.5175(2) 0.7262(3)
H6 H 0.3474 0.4531 0.6952
C7 C 0.52547(10) 0.89309(18) 1.1993(3)
C8 C 0.55039(11) 0.9952(2) 1.1510(3)
C9 C 0.60052(12) 0.9901(2) 1.0542(4)
H7 H 0.6184 1.0561 1.0189
C10 C 0.62334(11) 0.8896(3) 1.0112(3)
H8 H 0.6571 0.8857 0.9472
C11 C 0.59558(10) 0.7921(2) 1.0641(3)
H9 H 0.6112 0.7230 1.0334
C12 C 0.52357(13) 1.0968(2) 1.2024(3)
H10 H 0.5395 1.1650 1.1685
N1B N 0.45169(8) 0.79359(15) 1.3446(2)
C7B C 0.47453(10) 0.89309(18) 1.3007(3)
C8B C 0.44961(11) 0.9952(2) 1.3490(3)
C9B C 0.39948(12) 0.9901(2) 1.4458(4)
H7B H 0.3816 1.0561 1.4811
C10B C 0.37666(11) 0.8896(3) 1.4888(3)
H8B H 0.3429 0.8857 1.5528
C11B C 0.40442(10) 0.7921(2) 1.4359(3)
H9B H 0.3888 0.7230 1.4666
C12B C 0.47643(13) 1.0968(2) 1.2976(3)
H10B H 0.4605 1.1650 1.3315
P1B P 0.57179(2) 0.58516(5) 1.62477(7)
H1B H 0.5477(10) 0.6321(18) 1.764(3)
O1B O 0.55826(6) 0.65641(13) 1.47256(19)
O2B O 0.55703(6) 0.46428(13) 1.6181(2)
C1B C 0.64622(9) 0.59915(19) 1.6772(3)
C2B C 0.67674(10) 0.6931(2) 1.6304(3)
H2B H 0.6593 0.7486 1.5638
C3B C 0.73269(12) 0.7057(3) 1.6810(4)
H3B H 0.7532 0.7693 1.6482
C4B C 0.75815(12) 0.6245(3) 1.7795(3)
H4B H 0.7959 0.6336 1.8158
C5B C 0.72850(11) 0.5302(3) 1.8250(3)
H5B H 0.7462 0.4745 1.8908
C6B C 0.67266(10) 0.5175(2) 1.7738(3)
H6B H 0.6526 0.4531 1.8048
Mn1D Mn 0.5000 0.35972(3) 0.7500
Mn1D_2 Mn 0.5000 0.35972(3) 1.7500
O2D O 0.55703(6) 0.53572(13) 1.1181(2)
O2F O 0.44297(6) 0.53572(13) 1.3819(2)
loop_
_geom_bond_atom_site_label_1
_geom_bond_atom_site_label_2
_geom_bond_site_symmetry_1
_geom_bond_site_symmetry_2
Mn1 O1 1_555 1_555
P1 H1 1_555 1_555
O1 P1 1_555 1_555
O2 P1 1_555 1_555
N1 Mn1 1_555 1_555
C1 P1 1_555 1_555
C2 C1 1_555 1_555
H2 C2 1_555 1_555
C3 C2 1_555 1_555
H3 C3 1_555 1_555
C4 C3 1_555 1_555
H4 C4 1_555 1_555
C5 C4 1_555 1_555
H5 C5 1_555 1_555
C6 C1 1_555 1_555
H6 C6 1_555 1_555
C7 N1 1_555 1_555
C8 C7 1_555 1_555
C9 C8 1_555 1_555
H7 C9 1_555 1_555
C10 C9 1_555 1_555
H8 C10 1_555 1_555
C11 N1 1_555 1_555
H9 C11 1_555 1_555
C12 C8 1_555 1_555
H10 C12 1_555 1_555
N1B Mn1 1_555 1_555
C7B C7 1_555 1_555
C8B C7B 1_555 1_555
C9B C8B 1_555 1_555
H7B C9B 1_555 1_555
C10B C9B 1_555 1_555
H8B C10B 1_555 1_555
C11B N1B 1_555 1_555
H9B C11B 1_555 1_555
C12B C12 1_555 1_555
H10B C12B 1_555 1_555
P1B H1B 1_555 1_555
O1B Mn1 1_555 1_555
O2B P1B 1_555 1_555
C1B P1B 1_555 1_555
C2B C1B 1_555 1_555
H2B C2B 1_555 1_555
C3B C2B 1_555 1_555
H3B C3B 1_555 1_555
C4B C3B 1_555 1_555
H4B C4B 1_555 1_555
C5B C4B 1_555 1_555
H5B C5B 1_555 1_555
C6B C1B 1_555 1_555
H6B C6B 1_555 1_555
Mn1D O2 1_555 1_555
Mn1D_2 O2B 1_555 1_555
O2D Mn1 1_555 1_555
O2F Mn1 1_555 1_555
C5 C6 1_555 1_555
C10 C11 1_555 1_555
N1B C7B 1_555 1_555
C8B C12B 1_555 1_555
C10B C11B 1_555 1_555
P1B O1B 1_555 1_555
C5B C6B 1_555 1_555

#END
