
#######################################################################
#
#                 Cambridge Crystallographic Data Centre
#                                CCDC 
#
#######################################################################
#
# If this CIF has been generated from an entry in the Cambridge 
# Structural Database, then it will include bibliographic, chemical, 
# crystal, experimental, refinement or atomic coordinate data resulting 
# from the CCDC's data processing and validation procedures.
#
#######################################################################

data_YIWZUB
_symmetry_cell_setting           monoclinic
_symmetry_space_group_name_H-M   'P 21/n'
_symmetry_Int_Tables_number      14
_space_group_name_Hall           '-P 2yn'
loop_
_symmetry_equiv_pos_site_id
_symmetry_equiv_pos_as_xyz
1 x,y,z
2 1/2-x,1/2+y,1/2-z
3 -x,-y,-z
4 1/2+x,1/2-y,1/2+z
_cell_length_a                   13.9476(9)
_cell_length_b                   23.4840(16)
_cell_length_c                   14.0807(10)
_cell_angle_alpha                90
_cell_angle_beta                 116.1540(10)
_cell_angle_gamma                90
_cell_volume                     4139.85
loop_
_atom_site_label
_atom_site_type_symbol
_atom_site_fract_x
_atom_site_fract_y
_atom_site_fract_z
S1 S 0.01093(9) 0.04593(5) -0.38005(9)
S2 S 0.44377(9) 0.20908(4) 0.41238(9)
S3 S 0.46985(9) 0.05275(4) -0.14771(9)
S4 S -0.01297(9) 0.18912(5) 0.17620(10)
N1 N 0.1015(2) 0.14267(11) -0.2648(2)
N2 N 0.3680(2) 0.10763(12) 0.3091(2)
N3 N 0.3451(2) 0.14870(12) -0.1977(2)
C1 C 0.3963(2) 0.10856(13) -0.1772(2)
C2 C 0.3992(2) 0.14999(14) 0.3516(2)
N4 N 0.1246(2) 0.09793(12) 0.2395(2)
C3 C 0.0676(3) 0.13601(14) 0.2142(2)
N5 N 0.20781(19) 0.25413(9) 0.58164(18)
C4 C 0.1610(3) 0.29770(12) 0.5159(2)
N6 N 0.17794(19) 0.25307(9) 0.66151(17)
C5 C 0.1112(3) 0.29714(12) 0.6443(2)
C6 C 0.0999(3) 0.32543(13) 0.5541(3)
H1 H 0.0581 0.3575 0.5249
C7 C 0.1783(4) 0.30825(16) 0.4190(3)
H2 H 0.2266 0.2802 0.4152
H3 H 0.2081 0.3455 0.4230
H4 H 0.1112 0.3057 0.3569
C8 C 0.0587(3) 0.30814(15) 0.7145(3)
H5 H 0.0841 0.2812 0.7716
H6 H -0.0173 0.3043 0.6746
H7 H 0.0755 0.3460 0.7427
Zn1 Zn 0.25254(3) 0.052125(14) 0.27220(3)
Zn2 Zn 0.22112(3) 0.195777(13) -0.22045(3)
N7 N 0.29548(18) 0.00053(9) 0.39849(18)
N8 N 0.25441(19) 0.00931(10) 0.06728(18)
N9 N 0.25943(18) 0.23780(9) -0.08420(18)
C9 C 0.1988(2) 0.05162(11) 0.4799(2)
H8 H 0.1651 0.0425 0.5253
H9 H 0.1427 0.0600 0.4099
N10 N 0.21539(19) 0.23310(9) -0.01491(17)
N11 N 0.25876(18) 0.00258(9) 0.47337(17)
C10 C 0.3290(2) 0.05360(12) 0.0721(2)
H10 H 0.3783 0.0383 0.0469
H11 H 0.3703 0.0650 0.1452
N12 N 0.21719(19) 0.00476(10) 0.14150(18)
C11 C 0.3570(3) -0.04609(13) 0.4205(3)
C12 C 0.2708(2) 0.20734(11) 0.5700(2)
H12 H 0.3276 0.1977 0.6388
H13 H 0.3032 0.2194 0.5250
C13 C 0.2067(3) -0.02928(14) -0.0100(3)
C14 C 0.2021(2) 0.15522(11) 0.5224(2)
H14 H 0.1625 0.1462 0.5624
H15 H 0.1510 0.1636 0.4503
C15 C 0.2684(2) 0.10412(11) 0.5228(2)
H16 H 0.3219 0.0968 0.5944
H17 H 0.3052 0.1123 0.4797
C16 C 0.0864(3) -0.05417(18) 0.1714(3)
H18 H 0.1099 -0.0312 0.2340
H19 H 0.1000 -0.0936 0.1911
H20 H 0.0112 -0.0486 0.1289
C17 C 0.3943(3) 0.29856(16) -0.1041(3)
H21 H 0.3760 0.2751 -0.1655
H22 H 0.4689 0.2943 -0.0575
H23 H 0.3794 0.3377 -0.1253
C18 C 0.0639(2) 0.10189(14) -0.3130(2)
C19 C 0.4147(3) -0.06192(17) 0.3569(3)
H24 H 0.3990 -0.0346 0.3014
H25 H 0.3920 -0.0990 0.3267
H26 H 0.4902 -0.0624 0.4018
C20 C 0.2955(3) -0.04143(12) 0.5404(2)
C21 C 0.1986(3) 0.13509(12) 0.0412(2)
H27 H 0.2383 0.1463 0.1147
H28 H 0.1446 0.1079 0.0375
C22 C 0.3299(2) 0.28084(13) -0.0480(3)
C23 C 0.2571(3) 0.27225(14) 0.0620(2)
C24 C 0.1384(3) -0.05940(15) 0.0159(3)
H29 H 0.0949 -0.0893 -0.0225
C25 C 0.3292(3) 0.30300(15) 0.0425(3)
H30 H 0.3702 0.3332 0.0825
C26 C 0.1455(3) -0.03743(14) 0.1099(3)
C27 C 0.3574(3) -0.07317(14) 0.5079(3)
H31 H 0.3931 -0.1067 0.5388
C28 C 0.2676(3) -0.04960(16) 0.6313(3)
H32 H 0.2226 -0.0189 0.6323
H33 H 0.3318 -0.0500 0.6965
H34 H 0.2306 -0.0851 0.6229
C29 C 0.2311(4) -0.03501(18) -0.1029(3)
H35 H 0.2837 -0.0072 -0.0977
H36 H 0.1671 -0.0290 -0.1670
H37 H 0.2582 -0.0725 -0.1035
C30 C 0.2235(4) 0.27779(18) 0.1494(3)
H38 H 0.1709 0.2493 0.1408
H39 H 0.1937 0.3149 0.1468
H40 H 0.2845 0.2726 0.2165
C31 C 0.1429(2) 0.18726(11) -0.0232(2)
H41 H 0.1041 0.1764 -0.0969
H42 H 0.0913 0.2009 0.0003
C32 C 0.2739(3) 0.10594(13) 0.0064(2)
H43 H 0.3280 0.1330 0.0103
H44 H 0.2343 0.0946 -0.0670
N6_2 N 0.17794(19) 0.25307(9) -0.33849(17)
Zn2_2 Zn 0.22112(3) 0.195777(13) 0.77955(3)
loop_
_geom_bond_atom_site_label_1
_geom_bond_atom_site_label_2
_geom_bond_site_symmetry_1
_geom_bond_site_symmetry_2
S1 C18 1_555 1_555
S2 C2 1_555 1_555
S3 C1 1_555 1_555
S4 C3 1_555 1_555
N1 Zn2 1_555 1_555
N2 C2 1_555 1_555
N3 C1 1_555 1_555
N4 C3 1_555 1_555
N5 C4 1_555 1_555
C4 C6 1_555 1_555
N6 N5 1_555 1_555
C5 N6 1_555 1_555
C6 C5 1_555 1_555
H1 C6 1_555 1_555
C7 C4 1_555 1_555
H2 C7 1_555 1_555
H3 C7 1_555 1_555
H4 C7 1_555 1_555
C8 C5 1_555 1_555
H5 C8 1_555 1_555
H6 C8 1_555 1_555
H7 C8 1_555 1_555
Zn1 N2 1_555 1_555
Zn2 N3 1_555 1_555
N7 Zn1 1_555 1_555
N8 C10 1_555 1_555
N9 Zn2 1_555 1_555
C9 H8 1_555 1_555
H9 C9 1_555 1_555
N10 N9 1_555 1_555
N11 N7 1_555 1_555
C10 H10 1_555 1_555
H11 C10 1_555 1_555
N12 Zn1 1_555 1_555
C11 N7 1_555 1_555
C12 N5 1_555 1_555
H12 C12 1_555 1_555
H13 C12 1_555 1_555
C13 N8 1_555 1_555
C14 C12 1_555 1_555
H14 C14 1_555 1_555
H15 C14 1_555 1_555
C15 C9 1_555 1_555
H16 C15 1_555 1_555
H17 C15 1_555 1_555
C16 H18 1_555 1_555
H19 C16 1_555 1_555
H20 C16 1_555 1_555
C17 H21 1_555 1_555
H22 C17 1_555 1_555
H23 C17 1_555 1_555
C18 N1 1_555 1_555
C19 C11 1_555 1_555
H24 C19 1_555 1_555
H25 C19 1_555 1_555
H26 C19 1_555 1_555
C20 N11 1_555 1_555
C21 H27 1_555 1_555
H28 C21 1_555 1_555
C22 N9 1_555 1_555
C23 N10 1_555 1_555
C24 C13 1_555 1_555
H29 C24 1_555 1_555
C25 C22 1_555 1_555
H30 C25 1_555 1_555
C26 N12 1_555 1_555
C27 C11 1_555 1_555
H31 C27 1_555 1_555
C28 C20 1_555 1_555
H32 C28 1_555 1_555
H33 C28 1_555 1_555
H34 C28 1_555 1_555
C29 C13 1_555 1_555
H35 C29 1_555 1_555
H36 C29 1_555 1_555
H37 C29 1_555 1_555
C30 C23 1_555 1_555
H38 C30 1_555 1_555
H39 C30 1_555 1_555
H40 C30 1_555 1_555
C31 N10 1_555 1_555
H41 C31 1_555 1_555
H42 C31 1_555 1_555
C32 C10 1_555 1_555
H43 C32 1_555 1_555
H44 C32 1_555 1_555
N6_2 Zn2 1_555 1_555
Zn2_2 N6 1_555 1_555
N4 Zn1 1_555 1_555
N8 N12 1_555 1_555
C9 N11 1_555 1_555
C14 C15 1_555 1_555
C16 C26 1_555 1_555
C17 C22 1_555 1_555
C20 C27 1_555 1_555
C21 C31 1_555 1_555
C21 C32 1_555 1_555
C23 C25 1_555 1_555
C24 C26 1_555 1_555

#END
