
#######################################################################
#
#                 Cambridge Crystallographic Data Centre
#                                CCDC 
#
#######################################################################
#
# If this CIF has been generated from an entry in the Cambridge 
# Structural Database, then it will include bibliographic, chemical, 
# crystal, experimental, refinement or atomic coordinate data resulting 
# from the CCDC's data processing and validation procedures.
#
#######################################################################

data_YIXBAK
_symmetry_cell_setting           monoclinic
_symmetry_space_group_name_H-M   'C 2/c'
_symmetry_Int_Tables_number      15
_space_group_name_Hall           '-C 2yn'
loop_
_symmetry_equiv_pos_site_id
_symmetry_equiv_pos_as_xyz
1 x,y,z
2 -x,y,1/2-z
3 1/2+x,1/2+y,z
4 1/2-x,1/2+y,1/2-z
5 -x,-y,-z
6 x,-y,1/2+z
7 1/2-x,1/2-y,-z
8 1/2+x,1/2-y,1/2+z
_cell_length_a                   12.6785(6)
_cell_length_b                   11.4031(6)
_cell_length_c                   15.0587(8)
_cell_angle_alpha                90
_cell_angle_beta                 112.944(6)
_cell_angle_gamma                90
_cell_volume                     2004.86
loop_
_atom_site_label
_atom_site_type_symbol
_atom_site_fract_x
_atom_site_fract_y
_atom_site_fract_z
C1 C 0.0050(3) -0.2925(3) 0.4830(2)
C2 C 0.0890(3) -0.3455(3) 0.4607(2)
H1 H 0.1341 -0.4112 0.4922
C3 C -0.0359(3) -0.3202(3) 0.5614(2)
H2 H -0.0223 -0.2527 0.6047
H3 H 0.0058 -0.3884 0.5979
H4 H -0.1181 -0.3377 0.5328
I1 I 0.181609(15) 0.050707(19) 0.324389(13)
Zn1 Zn 0.0000 -0.07838(4) 0.2500
N1 N 0.01904(18) -0.1962(2) 0.35826(15)
C4 C -0.0550(2) 0.0053(3) 0.45493(18)
H5 H -0.1079 0.0596 0.4683
H6 H -0.0366 0.0396 0.4023
N2 N -0.03703(19) -0.2037(2) 0.41989(15)
C5 C 0.0952(2) -0.2845(3) 0.3835(2)
C6 C -0.1150(2) -0.1114(3) 0.4214(2)
H7 H -0.1531 -0.1347 0.4649
H8 H -0.1750 -0.1019 0.3559
C7 C 0.1727(3) -0.3069(4) 0.3317(2)
H9 H 0.1299 -0.3471 0.2706
H10 H 0.2369 -0.3561 0.3718
H11 H 0.2020 -0.2321 0.3187
C1D C -0.0050(3) 0.2925(3) 0.5170(2)
C2D C -0.0890(3) 0.3455(3) 0.5393(2)
H1D H -0.1341 0.4112 0.5078
C3D C 0.0359(3) 0.3202(3) 0.4386(2)
H2D H 0.0223 0.2527 0.3953
H3D H -0.0058 0.3884 0.4021
H4D H 0.1181 0.3377 0.4672
N1D N -0.01904(18) 0.1962(2) 0.64174(15)
C4D C 0.0550(2) -0.0053(3) 0.54507(18)
H5D H 0.1079 -0.0596 0.5317
H6D H 0.0366 -0.0396 0.5977
N2D N 0.03703(19) 0.2037(2) 0.58011(15)
C5D C -0.0952(2) 0.2845(3) 0.6165(2)
C6D C 0.1150(2) 0.1114(3) 0.5786(2)
H7D H 0.1531 0.1347 0.5351
H8D H 0.1750 0.1019 0.6441
C7D C -0.1727(3) 0.3069(4) 0.6683(2)
H9D H -0.1299 0.3471 0.7294
H10D H -0.2369 0.3561 0.6282
H11D H -0.2020 0.2321 0.6813
I1A I -0.181609(15) 0.050707(19) 0.175611(13)
Zn1D Zn 0.0000 0.07838(4) 0.7500
N1A N -0.01904(18) -0.1962(2) 0.14174(15)
loop_
_geom_bond_atom_site_label_1
_geom_bond_atom_site_label_2
_geom_bond_site_symmetry_1
_geom_bond_site_symmetry_2
C1 C2 1_555 1_555
C2 H1 1_555 1_555
C3 C1 1_555 1_555
H2 C3 1_555 1_555
H3 C3 1_555 1_555
H4 C3 1_555 1_555
I1 Zn1 1_555 1_555
Zn1 N1 1_555 1_555
N1 N2 1_555 1_555
C4 H5 1_555 1_555
H6 C4 1_555 1_555
N2 C1 1_555 1_555
C5 C2 1_555 1_555
C6 C4 1_555 1_555
H7 C6 1_555 1_555
H8 C6 1_555 1_555
C7 C5 1_555 1_555
H9 C7 1_555 1_555
H10 C7 1_555 1_555
H11 C7 1_555 1_555
C1D C2D 1_555 1_555
C2D H1D 1_555 1_555
C3D C1D 1_555 1_555
H2D C3D 1_555 1_555
H3D C3D 1_555 1_555
H4D C3D 1_555 1_555
N1D N2D 1_555 1_555
C4D C4 1_555 1_555
H5D C4D 1_555 1_555
H6D C4D 1_555 1_555
N2D C1D 1_555 1_555
C5D C2D 1_555 1_555
C6D C4D 1_555 1_555
H7D C6D 1_555 1_555
H8D C6D 1_555 1_555
C7D C5D 1_555 1_555
H9D C7D 1_555 1_555
H10D C7D 1_555 1_555
H11D C7D 1_555 1_555
I1A Zn1 1_555 1_555
Zn1D N1D 1_555 1_555
N1A Zn1 1_555 1_555
N1 C5 1_555 1_555
N2 C6 1_555 1_555
N1D C5D 1_555 1_555
N2D C6D 1_555 1_555

#END
