
#######################################################################
#
#                 Cambridge Crystallographic Data Centre
#                                CCDC 
#
#######################################################################
#
# If this CIF has been generated from an entry in the Cambridge 
# Structural Database, then it will include bibliographic, chemical, 
# crystal, experimental, refinement or atomic coordinate data resulting 
# from the CCDC's data processing and validation procedures.
#
#######################################################################

data_YIXCAK
_symmetry_cell_setting           monoclinic
_symmetry_space_group_name_H-M   'P m'
_symmetry_Int_Tables_number      6
_space_group_name_Hall           'P -2y'
loop_
_symmetry_equiv_pos_site_id
_symmetry_equiv_pos_as_xyz
1 x,y,z
2 x,-y,z
_cell_length_a                   6.6644(13)
_cell_length_b                   18.931(4)
_cell_length_c                   6.6919(13)
_cell_angle_alpha                90
_cell_angle_beta                 90.70(3)
_cell_angle_gamma                90
_cell_volume                     844.212
loop_
_atom_site_label
_atom_site_type_symbol
_atom_site_fract_x
_atom_site_fract_y
_atom_site_fract_z
Yb1 Yb 0.9143(10) 0.0000 0.7195(9)
N1 N 0.743(5) 0.081(2) 0.533(6)
C1 C 0.519(7) 0.131(3) 0.324(7)
H1 H 0.4348 0.1343 0.2090
Yb2 Yb 0.3960(12) 0.0000 0.1940(9)
N2 N 0.565(4) 0.0780(13) 0.403(2)
C2 C 0.597(5) 0.182(2) 0.413(4)
H2 H 0.5633 0.2302 0.3855
N3 N 0.987(5) 0.083(3) 0.942(5)
C3 C 0.749(4) 0.1606(15) 0.566(4)
H3 H 0.8261 0.1882 0.6570
N4 N 1.126(5) 0.0995(17) 0.796(5)
C4 C 1.238(4) 0.1563(17) 0.832(4)
H4 H 1.3652 0.1658 0.7758
N5 N 0.586(4) 0.0000 0.891(5)
H5 H 0.5275 0.0383 0.8286
C5 C 1.144(5) 0.197(2) 0.961(5)
H6 H 1.1622 0.2467 0.9807
N6 N 1.092(4) 0.0000 0.392(5)
H7 H 1.0289 -0.0383 0.3338
C6 C 1.005(5) 0.1512(15) 1.064(6)
H8 H 0.9383 0.1613 1.1851
N1A N 0.743(5) -0.081(2) 0.533(6)
C1A C 0.519(7) -0.131(3) 0.324(7)
H1A H 0.4348 -0.1343 0.2090
Yb2_2 Yb 0.3960(12) 0.0000 1.1940(9)
Yb2_3 Yb 1.3960(12) 0.0000 0.1940(9)
N2A N 0.565(4) -0.0780(13) 0.403(2)
C2A C 0.597(5) -0.182(2) 0.413(4)
H2A H 0.5633 -0.2302 0.3855
N3A N 0.987(5) -0.083(3) 0.942(5)
C3A C 0.749(4) -0.1606(15) 0.566(4)
H3A H 0.8261 -0.1882 0.6570
N4A N 1.126(5) -0.0995(17) 0.796(5)
C4A C 1.238(4) -0.1563(17) 0.832(4)
H4A H 1.3652 -0.1658 0.7758
N5_2 N 0.586(4) 0.0000 -0.109(5)
H5A H 0.5275 -0.0383 0.8286
H5_2 H 0.5275 0.0383 -0.1714
H5A_2 H 0.5275 -0.0383 -0.1714
C5A C 1.144(5) -0.197(2) 0.961(5)
H6A H 1.1622 -0.2467 0.9807
N6_2 N 0.092(4) 0.0000 0.392(5)
H7A H 1.0289 0.0383 0.3338
H7_2 H 0.0289 -0.0383 0.3338
H7A_2 H 0.0289 0.0383 0.3338
C6A C 1.005(5) -0.1512(15) 1.064(6)
H8A H 0.9383 -0.1613 1.1851
Yb3 Yb 0.40349(10) 0.5000 0.70962(9)
N7 N 0.479(3) 0.4095(7) 0.932(2)
C7 C 0.720(3) 0.3455(12) 0.793(3)
H9 H 0.8189 0.3298 0.7019
N8 N 0.625(2) 0.4093(9) 0.784(2)
C8 C 0.649(4) 0.3054(16) 0.960(4)
H10 H 0.6977 0.2615 1.0093
N9 N 0.211(3) 0.5873(10) 0.533(3)
C9 C 0.489(3) 0.3471(11) 1.035(4)
H11 H 0.4020 0.3335 1.1395
N10 N 0.085(3) 0.5712(12) 0.378(3)
C10 C -0.006(4) 0.6298(16) 0.302(4)
H12 H -0.1105 0.6304 0.2047
N11 N 0.086(4) 0.5000 0.889(4)
C11 C 0.079(4) 0.687(2) 0.388(5)
H13 H 0.0522 0.7353 0.3593
N12 N 0.586(4) 0.5000 0.394(4)
C12 C 0.224(3) 0.6590(15) 0.538(3)
H14 H 0.3099 0.6861 0.6224
N7A N 0.479(3) 0.5905(7) 0.932(2)
C7A C 0.720(3) 0.6545(12) 0.793(3)
H9A H 0.8189 0.6702 0.7019
N8A N 0.625(2) 0.5907(9) 0.784(2)
C8A C 0.649(4) 0.6946(16) 0.960(4)
H10A H 0.6977 0.7385 1.0093
N9A N 0.211(3) 0.4127(10) 0.533(3)
C9A C 0.489(3) 0.6529(11) 1.035(4)
H11A H 0.4020 0.6665 1.1395
N10A N 0.085(3) 0.4288(12) 0.378(3)
C10A C -0.006(4) 0.3702(16) 0.302(4)
H12A H -0.1105 0.3696 0.2047
C11A C 0.079(4) 0.313(2) 0.388(5)
H13A H 0.0522 0.2647 0.3593
C12A C 0.224(3) 0.3410(15) 0.538(3)
H14A H 0.3099 0.3139 0.6224
loop_
_geom_bond_atom_site_label_1
_geom_bond_atom_site_label_2
_geom_bond_site_symmetry_1
_geom_bond_site_symmetry_2
Yb1 N1 1_555 1_555
N1 N2 1_555 1_555
C1 H1 1_555 1_555
Yb2 N2 1_555 1_555
N2 C1 1_555 1_555
C2 C1 1_555 1_555
H2 C2 1_555 1_555
Yb3 N7 1_555 1_555
N3 Yb1 1_555 1_555
C3 N1 1_555 1_555
H3 C3 1_555 1_555
N4 Yb1 1_555 1_555
C4 N4 1_555 1_555
H4 C4 1_555 1_555
N5 Yb1 1_555 1_555
H5 N5 1_555 1_555
C5 C4 1_555 1_555
H6 C5 1_555 1_555
N6 Yb1 1_555 1_555
H7 N6 1_555 1_555
C6 N3 1_555 1_555
H8 C6 1_555 1_555
N7 N8 1_555 1_555
C7 H9 1_555 1_555
N8 Yb3 1_555 1_555
C8 C7 1_555 1_555
H10 C8 1_555 1_555
N9 Yb3 1_555 1_555
C9 N7 1_555 1_555
H11 C9 1_555 1_555
N10 N9 1_555 1_555
C10 N10 1_555 1_555
H12 C10 1_555 1_555
N11 Yb3 1_555 1_555
C11 C10 1_555 1_555
H13 C11 1_555 1_555
N12 Yb3 1_555 1_555
C12 N9 1_555 1_555
H14 C12 1_555 1_555
N1A Yb1 1_555 1_555
C1A H1A 1_555 1_555
Yb2_2 N5 1_555 1_555
Yb2_3 N6 1_555 1_555
N2A Yb2 1_555 1_555
C2A C1A 1_555 1_555
H2A C2A 1_555 1_555
N3A Yb1 1_555 1_555
C3A N1A 1_555 1_555
H3A C3A 1_555 1_555
N4A Yb1 1_555 1_555
C4A N4A 1_555 1_555
H4A C4A 1_555 1_555
N5_2 Yb2 1_555 1_555
H5A N5 1_555 1_555
H5_2 N5_2 1_555 1_555
H5A_2 N5_2 1_555 1_555
C5A C4A 1_555 1_555
H6A C5A 1_555 1_555
N6_2 Yb2 1_555 1_555
H7A N6 1_555 1_555
H7_2 N6_2 1_555 1_555
H7A_2 N6_2 1_555 1_555
C6A N3A 1_555 1_555
H8A C6A 1_555 1_555
N7A Yb3 1_555 1_555
C7A H9A 1_555 1_555
N8A Yb3 1_555 1_555
C8A C7A 1_555 1_555
H10A C8A 1_555 1_555
N9A Yb3 1_555 1_555
C9A N7A 1_555 1_555
H11A C9A 1_555 1_555
N10A N9A 1_555 1_555
C10A N10A 1_555 1_555
H12A C10A 1_555 1_555
C11A C10A 1_555 1_555
H13A C11A 1_555 1_555
C12A N9A 1_555 1_555
H14A C12A 1_555 1_555
C2 C3 1_555 1_555
N3 N4 1_555 1_555
C5 C6 1_555 1_555
C7 N8 1_555 1_555
C8 C9 1_555 1_555
C11 C12 1_555 1_555
N1A N2A 1_555 1_555
C1A N2A 1_555 1_555
C2A C3A 1_555 1_555
N3A N4A 1_555 1_555
C5A C6A 1_555 1_555
N7A N8A 1_555 1_555
C7A N8A 1_555 1_555
C8A C9A 1_555 1_555
C11A C12A 1_555 1_555

#END
