
#######################################################################
#
#                 Cambridge Crystallographic Data Centre
#                                CCDC 
#
#######################################################################
#
# If this CIF has been generated from an entry in the Cambridge 
# Structural Database, then it will include bibliographic, chemical, 
# crystal, experimental, refinement or atomic coordinate data resulting 
# from the CCDC's data processing and validation procedures.
#
#######################################################################

data_YIXFOC
_symmetry_cell_setting           monoclinic
_symmetry_space_group_name_H-M   'P 21/c'
_symmetry_Int_Tables_number      14
_space_group_name_Hall           '-P 2ybc'
loop_
_symmetry_equiv_pos_site_id
_symmetry_equiv_pos_as_xyz
1 x,y,z
2 -x,1/2+y,1/2-z
3 -x,-y,-z
4 x,1/2-y,1/2+z
_cell_length_a                   8.0556(3)
_cell_length_b                   21.4095(6)
_cell_length_c                   18.3825(6)
_cell_angle_alpha                90
_cell_angle_beta                 90.208(2)
_cell_angle_gamma                90
_cell_volume                     3170.34
loop_
_atom_site_label
_atom_site_type_symbol
_atom_site_fract_x
_atom_site_fract_y
_atom_site_fract_z
Eu1 Eu 0.15201(3) 0.631619(12) 0.275405(15)
Eu2 Eu 0.64434(3) 0.581158(12) 0.250316(14)
Cl1 Cl 0.4330(2) 0.59927(10) 0.36704(9)
O1 O 0.0322(7) 0.2075(2) 0.2643(3)
O2 O 0.2940(8) 0.1867(2) 0.2369(4)
O3 O 0.1936(7) 0.5225(2) 0.2656(5)
O4 O 0.4500(6) 0.5061(2) 0.2248(3)
O5 O 0.2774(6) 0.7650(2) -0.1800(3)
O6 O 0.0968(6) 0.8142(2) -0.1117(3)
O7 O 0.5805(7) 0.6144(3) 0.1279(3)
O8 O 0.3793(6) 0.6473(2) 0.1964(2)
O9 O 0.0453(13) 0.5950(3) 0.1613(3)
O10 O -0.1665(8) 0.5312(4) 0.1787(3)
O11 O 0.9035(6) 0.5848(2) 0.3292(2)
O12 O 0.7457(6) 0.5013(2) 0.3348(3)
C1 C 0.2085(9) 0.2930(3) 0.2401(4)
C2 C 0.0777(9) 0.3337(3) 0.2461(5)
H1 H -0.0302 0.3188 0.2510
C3 C 0.1097(9) 0.3980(3) 0.2446(6)
H2 H 0.0227 0.4264 0.2477
C4 C 0.2720(9) 0.4192(3) 0.2387(5)
C5 C 0.4033(9) 0.3769(3) 0.2318(5)
H3 H 0.5115 0.3913 0.2263
C6 C 0.3709(9) 0.3130(3) 0.2331(4)
H4 H 0.4570 0.2843 0.2293
C7 C 0.1735(9) 0.2237(3) 0.2474(4)
C8 C 0.3073(8) 0.4884(3) 0.2437(4)
C9 C 0.2663(8) 0.7379(3) -0.0538(3)
C10 C 0.3631(9) 0.6854(3) -0.0602(3)
H5 H 0.3905 0.6706 -0.1061
C11 C 0.4205(9) 0.6542(3) 0.0011(4)
H6 H 0.4868 0.6189 -0.0040
C12 C 0.3788(8) 0.6758(3) 0.0702(3)
C13 C 0.2772(10) 0.7285(3) 0.0775(4)
H7 H 0.2462 0.7426 0.1233
C14 C 0.2239(10) 0.7593(4) 0.0154(4)
H8 H 0.1586 0.7949 0.0199
C15 C 0.2111(8) 0.7741(3) -0.1201(3)
C16 C 0.4510(8) 0.6435(3) 0.1354(3)
C17 C -0.1462(11) 0.4912(6) 0.0358(5)
H9 H -0.2454 0.4843 0.0603
C18 C -0.0246(9) 0.5238(3) 0.0692(4)
C19 C 0.1271(13) 0.5323(6) 0.0337(5)
H10 H 0.2138 0.5533 0.0566
C20 C -0.0529(12) 0.5519(4) 0.1425(4)
C21 C 1.0408(10) 0.5573(3) 0.4687(4)
H11 H 1.0677 0.5959 0.4486
C22 C 0.9382(8) 0.5161(3) 0.4313(3)
C23 C 0.8967(10) 0.4598(4) 0.4629(4)
H12 H 0.8259 0.4327 0.4383
C24 C 0.8597(7) 0.5337(3) 0.3612(3)
O9B O -0.0453(13) 0.4050(3) -0.1613(3)
O10B O 0.1665(8) 0.4688(4) -0.1787(3)
C17B C 0.1462(11) 0.5088(6) -0.0358(5)
H9B H 0.2454 0.5157 -0.0603
C18B C 0.0246(9) 0.4762(3) -0.0692(4)
C19B C -0.1271(13) 0.4677(6) -0.0337(5)
H10B H -0.2138 0.4467 -0.0566
C20B C 0.0529(12) 0.4481(4) -0.1425(4)
O11B O 1.0965(6) 0.4152(2) 0.6708(2)
O12B O 1.2543(6) 0.4987(2) 0.6652(3)
C21B C 0.9592(10) 0.4427(3) 0.5313(4)
H11B H 0.9323 0.4041 0.5514
C22B C 1.0618(8) 0.4839(3) 0.5687(3)
C23B C 1.1033(10) 0.5402(4) 0.5371(4)
H12B H 1.1741 0.5673 0.5617
C24B C 1.1403(7) 0.4663(3) 0.6388(3)
Eu1B Eu -0.15201(3) 0.368381(12) -0.275405(15)
Eu2B Eu -0.64434(3) 0.418842(12) -0.250316(14)
Cl1B Cl -0.4330(2) 0.40073(10) -0.36704(9)
O1B O -0.0322(7) 0.7925(2) -0.2643(3)
O2B O -0.2940(8) 0.8133(2) -0.2369(4)
O3B O -0.1936(7) 0.4775(2) -0.2656(5)
O4B O -0.4500(6) 0.4939(2) -0.2248(3)
O5B O -0.2774(6) 0.2350(2) 0.1800(3)
O6B O -0.0968(6) 0.1858(2) 0.1117(3)
O7B O -0.5805(7) 0.3856(3) -0.1279(3)
O8B O -0.3793(6) 0.3527(2) -0.1964(2)
C1B C -0.2085(9) 0.7070(3) -0.2401(4)
C2B C -0.0777(9) 0.6663(3) -0.2461(5)
H1B H 0.0302 0.6812 -0.2510
C3B C -0.1097(9) 0.6020(3) -0.2446(6)
H2B H -0.0227 0.5736 -0.2477
C4B C -0.2720(9) 0.5808(3) -0.2387(5)
C5B C -0.4033(9) 0.6231(3) -0.2318(5)
H3B H -0.5115 0.6087 -0.2263
C6B C -0.3709(9) 0.6870(3) -0.2331(4)
H4B H -0.4570 0.7157 -0.2293
C7B C -0.1735(9) 0.7763(3) -0.2474(4)
C8B C -0.3073(8) 0.5116(3) -0.2437(4)
C9B C -0.2663(8) 0.2621(3) 0.0538(3)
C10B C -0.3631(9) 0.3146(3) 0.0602(3)
H5B H -0.3905 0.3294 0.1061
C11B C -0.4205(9) 0.3458(3) -0.0011(4)
H6B H -0.4868 0.3811 0.0040
C12B C -0.3788(8) 0.3242(3) -0.0702(3)
C13B C -0.2772(10) 0.2715(3) -0.0775(4)
H7B H -0.2462 0.2574 -0.1233
C14B C -0.2239(10) 0.2407(4) -0.0154(4)
H8B H -0.1586 0.2051 -0.0199
C15B C -0.2111(8) 0.2259(3) 0.1201(3)
C16B C -0.4510(8) 0.3565(3) -0.1354(3)
Eu1_2 Eu 1.15201(3) 0.631619(12) 0.275405(15)
Eu1A Eu -0.15201(3) 0.131619(12) 0.224595(15)
Eu1B_2 Eu 0.84799(3) 0.368381(12) 0.724595(15)
Eu1C Eu 0.15201(3) 0.868381(12) -0.224595(15)
Eu2_2 Eu -0.35566(3) 0.581158(12) 0.250316(14)
Eu2A Eu 0.35566(3) 0.081158(12) 0.249684(14)
Eu2B_2 Eu 0.35566(3) 0.418842(12) -0.250316(14)
Eu2B_3 Eu 1.35566(3) 0.418842(12) 0.749684(14)
Eu2C Eu -0.35566(3) 0.918842(12) -0.249684(14)
O1A O -0.0322(7) 0.7075(2) 0.2357(3)
O1C O 0.0322(7) 0.2925(2) -0.2357(3)
O2A O 0.7060(8) 0.6867(2) 0.2631(4)
O2C O -0.7060(8) 0.3133(2) -0.2631(4)
O5A O -0.2774(6) 0.2650(2) -0.3200(3)
O5C O 0.2774(6) 0.7350(2) 0.3200(3)
O6A O -0.0968(6) 0.3142(2) -0.3883(3)
O6C O 0.0968(6) 0.6858(2) 0.3883(3)
O10_2 O 0.8335(8) 0.5312(4) 0.1787(3)
O10B_2 O -0.8335(8) 0.4688(4) -0.1787(3)
O11_2 O -0.0965(6) 0.5848(2) 0.3292(2)
O11B_2 O -0.9035(6) 0.4152(2) -0.3292(2)
O11B_3 O 0.0965(6) 0.4152(2) -0.3292(2)
O12B_2 O -0.7457(6) 0.4987(2) -0.3348(3)
loop_
_geom_bond_atom_site_label_1
_geom_bond_atom_site_label_2
_geom_bond_site_symmetry_1
_geom_bond_site_symmetry_2
Eu1 Cl1 1_555 1_555
Eu2 Cl1 1_555 1_555
O1 C7 1_555 1_555
O2 C7 1_555 1_555
O3 Eu1 1_555 1_555
O4 Eu2 1_555 1_555
O5 C15 1_555 1_555
O6 C15 1_555 1_555
O7 Eu2 1_555 1_555
O8 Eu1 1_555 1_555
O9 Eu1 1_555 1_555
O10 C20 1_555 1_555
O11 Eu2 1_555 1_555
O12 Eu2 1_555 1_555
C1 C2 1_555 1_555
C2 H1 1_555 1_555
C3 C2 1_555 1_555
H2 C3 1_555 1_555
C4 C3 1_555 1_555
C5 C4 1_555 1_555
H3 C5 1_555 1_555
C6 C1 1_555 1_555
H4 C6 1_555 1_555
C7 C1 1_555 1_555
C8 O3 1_555 1_555
C9 C10 1_555 1_555
C10 H5 1_555 1_555
C11 C10 1_555 1_555
H6 C11 1_555 1_555
C12 C11 1_555 1_555
C13 C12 1_555 1_555
H7 C13 1_555 1_555
C14 C9 1_555 1_555
H8 C14 1_555 1_555
C15 C9 1_555 1_555
C16 O7 1_555 1_555
C17 H9 1_555 1_555
C18 C17 1_555 1_555
C19 C18 1_555 1_555
H10 C19 1_555 1_555
C20 O9 1_555 1_555
C21 H11 1_555 1_555
C22 C21 1_555 1_555
C23 C22 1_555 1_555
H12 C23 1_555 1_555
C24 O11 1_555 1_555
O9B C20B 1_555 1_555
O10B C20B 1_555 1_555
C17B C19 1_555 1_555
H9B C17B 1_555 1_555
C18B C17B 1_555 1_555
C19B C17 1_555 1_555
H10B C19B 1_555 1_555
C20B C18B 1_555 1_555
O11B C24B 1_555 1_555
O12B C24B 1_555 1_555
C21B C23 1_555 1_555
H11B C21B 1_555 1_555
C22B C21B 1_555 1_555
C23B C21 1_555 1_555
H12B C23B 1_555 1_555
C24B C22B 1_555 1_555
Eu1B O9B 1_555 1_555
Eu2B Cl1B 1_555 1_555
Cl1B Eu1B 1_555 1_555
O1B C7B 1_555 1_555
O2B C7B 1_555 1_555
O3B Eu1B 1_555 1_555
O4B Eu2B 1_555 1_555
O5B C15B 1_555 1_555
O6B C15B 1_555 1_555
O7B Eu2B 1_555 1_555
O8B Eu1B 1_555 1_555
C1B C2B 1_555 1_555
C2B H1B 1_555 1_555
C3B C2B 1_555 1_555
H2B C3B 1_555 1_555
C4B C3B 1_555 1_555
C5B C4B 1_555 1_555
H3B C5B 1_555 1_555
C6B C1B 1_555 1_555
H4B C6B 1_555 1_555
C7B C1B 1_555 1_555
C8B O3B 1_555 1_555
C9B C10B 1_555 1_555
C10B H5B 1_555 1_555
C11B C10B 1_555 1_555
H6B C11B 1_555 1_555
C12B C11B 1_555 1_555
C13B C12B 1_555 1_555
H7B C13B 1_555 1_555
C14B C9B 1_555 1_555
H8B C14B 1_555 1_555
C15B C9B 1_555 1_555
C16B O7B 1_555 1_555
Eu1_2 O11 1_555 1_555
Eu1A O1 1_555 1_555
Eu1B_2 O11B 1_555 1_555
Eu1C O5 1_555 1_555
Eu2_2 O10 1_555 1_555
Eu2A O2 1_555 1_555
Eu2B_2 O10B 1_555 1_555
Eu2B_3 O11B 1_555 1_555
Eu2C O2B 1_555 1_555
O1A Eu1 1_555 1_555
O1C Eu1B 1_555 1_555
O2A Eu2 1_555 1_555
O2C Eu2B 1_555 1_555
O5A Eu1B 1_555 1_555
O5C Eu1 1_555 1_555
O6A Eu1B 1_555 1_555
O6C Eu1 1_555 1_555
O10_2 Eu2 1_555 1_555
O10B_2 Eu2B 1_555 1_555
O11_2 Eu1 1_555 1_555
O11B_2 Eu2B 1_555 1_555
O11B_3 Eu1B 1_555 1_555
O12B_2 Eu2B 1_555 1_555
Eu2 O8 1_555 1_555
O4 C8 1_555 1_555
O6 Eu1C 1_555 1_555
O8 C16 1_555 1_555
O12 C24 1_555 1_555
C4 C8 1_555 1_555
C5 C6 1_555 1_555
C12 C16 1_555 1_555
C13 C14 1_555 1_555
C18 C20 1_555 1_555
C22 C24 1_555 1_555
C18B C19B 1_555 1_555
O12B Eu2B_3 1_555 1_555
C22B C23B 1_555 1_555
Eu2B O8B 1_555 1_555
O1B Eu1C 1_555 1_555
O4B C8B 1_555 1_555
O5B Eu1A 1_555 1_555
O6B Eu1A 1_555 1_555
O8B C16B 1_555 1_555
C4B C8B 1_555 1_555
C5B C6B 1_555 1_555
C12B C16B 1_555 1_555
C13B C14B 1_555 1_555
Eu2_2 O11_2 1_555 1_555
Eu2B_2 O11B_3 1_555 1_555

#END
