
#######################################################################
#
#                 Cambridge Crystallographic Data Centre
#                                CCDC 
#
#######################################################################
#
# If this CIF has been generated from an entry in the Cambridge 
# Structural Database, then it will include bibliographic, chemical, 
# crystal, experimental, refinement or atomic coordinate data resulting 
# from the CCDC's data processing and validation procedures.
#
#######################################################################

data_YIXFUI
_symmetry_cell_setting           monoclinic
_symmetry_space_group_name_H-M   'P 21/c'
_symmetry_Int_Tables_number      14
_space_group_name_Hall           '-P 2ybc'
loop_
_symmetry_equiv_pos_site_id
_symmetry_equiv_pos_as_xyz
1 x,y,z
2 -x,1/2+y,1/2-z
3 -x,-y,-z
4 x,1/2-y,1/2+z
_cell_length_a                   8.0556(5)
_cell_length_b                   21.3294(12)
_cell_length_c                   18.3473(11)
_cell_angle_alpha                90
_cell_angle_beta                 90.014(3)
_cell_angle_gamma                90
_cell_volume                     3152.45
loop_
_atom_site_label
_atom_site_type_symbol
_atom_site_fract_x
_atom_site_fract_y
_atom_site_fract_z
Tb1 Tb 0.15774(3) 0.631356(12) 0.277651(15)
Tb2 Tb 0.64551(3) 0.580647(12) 0.250734(14)
Cl1 Cl 0.4428(2) 0.60181(11) 0.36815(9)
O1 O 0.9779(7) 0.7069(2) 0.2378(3)
O2 O 0.7114(7) 0.6849(2) 0.2553(5)
O3 O 0.8002(7) 1.0227(2) 0.2278(4)
O4 O 0.5471(6) 1.0047(2) 0.2710(3)
O5 O 0.2842(7) 0.7651(2) -0.1792(3)
O6 O 0.1048(6) 0.8148(2) -0.1103(3)
O7 O 0.5768(8) 0.6094(3) 0.1288(3)
O8 O 0.3814(6) 0.6465(2) 0.1987(3)
O9 O 0.0607(10) 0.5936(3) 0.1624(3)
O10 O -0.1618(7) 0.5342(3) 0.1799(3)
O11 O 0.9064(6) 0.5865(2) 0.3293(2)
O12 O 0.7493(6) 0.5023(2) 0.3338(3)
C1 C 0.7945(9) 0.7916(3) 0.2563(5)
C2 C 0.9240(9) 0.8339(3) 0.2478(6)
H1 H 1.0320 0.8195 0.2416
C3 C 0.8917(10) 0.8978(3) 0.2486(6)
H2 H 0.9779 0.9266 0.2444
C4 C 0.7269(9) 0.9182(3) 0.2558(5)
C5 C 0.5974(9) 0.8760(3) 0.2649(5)
H3 H 0.4891 0.8900 0.2714
C6 C 0.6329(9) 0.8120(3) 0.2640(5)
H4 H 0.5473 0.7830 0.2686
C7 C 0.8333(9) 0.7224(3) 0.2499(4)
C8 C 0.6890(9) 0.9881(3) 0.2511(5)
C9 C 0.2682(8) 0.7371(3) -0.0527(3)
C10 C 0.3679(10) 0.6844(4) -0.0593(4)
H5 H 0.3984 0.6702 -0.1053
C11 C 0.4223(10) 0.6528(4) 0.0024(4)
H6 H 0.4897 0.6176 -0.0025
C12 C 0.3767(9) 0.6733(3) 0.0716(4)
C13 C 0.2735(10) 0.7256(4) 0.0787(4)
H7 H 0.2392 0.7390 0.1245
C14 C 0.2228(10) 0.7571(4) 0.0163(4)
H8 H 0.1567 0.7926 0.0210
C15 C 0.2165(8) 0.7737(3) -0.1194(4)
C16 C 0.4475(9) 0.6403(3) 0.1369(3)
C17 C -0.1492(11) 0.4956(5) 0.0358(5)
H9 H -0.2506 0.4922 0.0597
C18 C -0.0208(10) 0.5239(4) 0.0699(4)
C19 C 0.1335(11) 0.5283(5) 0.0335(5)
H10 H 0.2237 0.5473 0.0562
C20 C -0.0415(10) 0.5534(4) 0.1435(4)
C21 C 1.0428(11) 0.5572(4) 0.4685(4)
H11 H 1.0712 0.5956 0.4479
C22 C 0.9401(8) 0.5163(3) 0.4315(3)
C23 C 0.8962(10) 0.4595(4) 0.4627(4)
H12 H 0.8259 0.4323 0.4379
C24 C 0.8625(8) 0.5346(3) 0.3607(3)
O9B O -0.0607(10) 0.4064(3) -0.1624(3)
O10B O 0.1618(7) 0.4658(3) -0.1799(3)
C17B C 0.1492(11) 0.5044(5) -0.0358(5)
H9B H 0.2506 0.5078 -0.0597
C18B C 0.0208(10) 0.4761(4) -0.0699(4)
C19B C -0.1335(11) 0.4717(5) -0.0335(5)
H10B H -0.2237 0.4527 -0.0562
C20B C 0.0415(10) 0.4466(4) -0.1435(4)
O11B O 1.0936(6) 0.4135(2) 0.6707(2)
O12B O 1.2507(6) 0.4977(2) 0.6662(3)
C21B C 0.9572(11) 0.4428(4) 0.5315(4)
H11B H 0.9288 0.4044 0.5521
C22B C 1.0599(8) 0.4837(3) 0.5685(3)
C23B C 1.1038(10) 0.5405(4) 0.5373(4)
H12B H 1.1741 0.5677 0.5621
C24B C 1.1375(8) 0.4654(3) 0.6393(3)
Tb1B Tb -0.15774(3) 0.368644(12) -0.277651(15)
Tb2B Tb -0.64551(3) 0.419353(12) -0.250734(14)
Cl1B Cl -0.4428(2) 0.39819(11) -0.36815(9)
O1B O -0.9779(7) 0.2931(2) -0.2378(3)
O2B O -0.7114(7) 0.3151(2) -0.2553(5)
O3B O -0.8002(7) -0.0227(2) -0.2278(4)
O4B O -0.5471(6) -0.0047(2) -0.2710(3)
O5B O -0.2842(7) 0.2349(2) 0.1792(3)
O6B O -0.1048(6) 0.1852(2) 0.1103(3)
O7B O -0.5768(8) 0.3906(3) -0.1288(3)
O8B O -0.3814(6) 0.3535(2) -0.1987(3)
C1B C -0.7945(9) 0.2084(3) -0.2563(5)
C2B C -0.9240(9) 0.1661(3) -0.2478(6)
H1B H -1.0320 0.1805 -0.2416
C3B C -0.8917(10) 0.1022(3) -0.2486(6)
H2B H -0.9779 0.0734 -0.2444
C4B C -0.7269(9) 0.0818(3) -0.2558(5)
C5B C -0.5974(9) 0.1240(3) -0.2649(5)
H3B H -0.4891 0.1100 -0.2714
C6B C -0.6329(9) 0.1880(3) -0.2640(5)
H4B H -0.5473 0.2170 -0.2686
C7B C -0.8333(9) 0.2776(3) -0.2499(4)
C8B C -0.6890(9) 0.0119(3) -0.2511(5)
C9B C -0.2682(8) 0.2629(3) 0.0527(3)
C10B C -0.3679(10) 0.3156(4) 0.0593(4)
H5B H -0.3984 0.3298 0.1053
C11B C -0.4223(10) 0.3472(4) -0.0024(4)
H6B H -0.4897 0.3824 0.0025
C12B C -0.3767(9) 0.3267(3) -0.0716(4)
C13B C -0.2735(10) 0.2744(4) -0.0787(4)
H7B H -0.2392 0.2610 -0.1245
C14B C -0.2228(10) 0.2429(4) -0.0163(4)
H8B H -0.1567 0.2074 -0.0210
C15B C -0.2165(8) 0.2263(3) 0.1194(4)
C16B C -0.4475(9) 0.3597(3) -0.1369(3)
Tb1_2 Tb 1.15774(3) 0.631356(12) 0.277651(15)
Tb1A Tb -0.15774(3) 0.131356(12) 0.222349(15)
Tb1A_2 Tb 0.84226(3) 1.131356(12) 0.222349(15)
Tb1B_2 Tb -1.15774(3) 0.368644(12) -0.277651(15)
Tb1B_3 Tb 0.84226(3) 0.368644(12) 0.722349(15)
Tb1C Tb -0.84226(3) -0.131356(12) -0.222349(15)
Tb1C_2 Tb 0.15774(3) 0.868644(12) -0.222349(15)
Tb2_2 Tb -0.35449(3) 0.580647(12) 0.250734(14)
Tb2A Tb 0.35449(3) 1.080647(12) 0.249266(14)
Tb2B_2 Tb 0.35449(3) 0.419353(12) -0.250734(14)
Tb2B_3 Tb 1.35449(3) 0.419353(12) 0.749266(14)
Tb2C Tb -0.35449(3) -0.080647(12) -0.249266(14)
O1_2 O -0.0221(7) 0.7069(2) 0.2378(3)
O1B_2 O 0.0221(7) 0.2931(2) -0.2378(3)
O3A O 0.1998(7) 0.5227(2) 0.2722(4)
O3C O -0.1998(7) 0.4773(2) -0.2722(4)
O4A O 0.4529(6) 0.5047(2) 0.2290(3)
O4C O -0.4529(6) 0.4953(2) -0.2290(3)
O5A O -0.2842(7) 0.2651(2) -0.3208(3)
O5C O 0.2842(7) 0.7349(2) 0.3208(3)
O6A O -0.1048(6) 0.3148(2) -0.3897(3)
O6C O 0.1048(6) 0.6852(2) 0.3897(3)
O10_2 O 0.8382(7) 0.5342(3) 0.1799(3)
O10B_2 O -0.8382(7) 0.4658(3) -0.1799(3)
O11_2 O -0.0936(6) 0.5865(2) 0.3293(2)
O11B_2 O -0.9064(6) 0.4135(2) -0.3293(2)
O11B_3 O 0.0936(6) 0.4135(2) -0.3293(2)
O12B_2 O -0.7493(6) 0.4977(2) -0.3338(3)
loop_
_geom_bond_atom_site_label_1
_geom_bond_atom_site_label_2
_geom_bond_site_symmetry_1
_geom_bond_site_symmetry_2
Tb1 Cl1 1_555 1_555
Tb2 Cl1 1_555 1_555
O1 C7 1_555 1_555
O2 Tb2 1_555 1_555
O3 C8 1_555 1_555
O4 C8 1_555 1_555
O5 C15 1_555 1_555
O6 C15 1_555 1_555
O7 Tb2 1_555 1_555
O8 Tb1 1_555 1_555
O9 Tb1 1_555 1_555
O10 C20 1_555 1_555
O11 Tb2 1_555 1_555
O12 Tb2 1_555 1_555
C1 C2 1_555 1_555
C2 H1 1_555 1_555
C3 C2 1_555 1_555
H2 C3 1_555 1_555
C4 C3 1_555 1_555
C5 C4 1_555 1_555
H3 C5 1_555 1_555
C6 C1 1_555 1_555
H4 C6 1_555 1_555
C7 O2 1_555 1_555
C8 C4 1_555 1_555
C9 C10 1_555 1_555
C10 H5 1_555 1_555
C11 C10 1_555 1_555
H6 C11 1_555 1_555
C12 C11 1_555 1_555
C13 C12 1_555 1_555
H7 C13 1_555 1_555
C14 C9 1_555 1_555
H8 C14 1_555 1_555
C15 C9 1_555 1_555
C16 O7 1_555 1_555
C17 H9 1_555 1_555
C18 C17 1_555 1_555
C19 C18 1_555 1_555
H10 C19 1_555 1_555
C20 O9 1_555 1_555
C21 H11 1_555 1_555
C22 C21 1_555 1_555
C23 C22 1_555 1_555
H12 C23 1_555 1_555
C24 O11 1_555 1_555
O9B C20B 1_555 1_555
O10B C20B 1_555 1_555
C17B C19 1_555 1_555
H9B C17B 1_555 1_555
C18B C17B 1_555 1_555
C19B C17 1_555 1_555
H10B C19B 1_555 1_555
C20B C18B 1_555 1_555
O11B C24B 1_555 1_555
O12B C24B 1_555 1_555
C21B C23 1_555 1_555
H11B C21B 1_555 1_555
C22B C21B 1_555 1_555
C23B C21 1_555 1_555
H12B C23B 1_555 1_555
C24B C22B 1_555 1_555
Tb1B O9B 1_555 1_555
Tb2B Cl1B 1_555 1_555
Cl1B Tb1B 1_555 1_555
O1B C7B 1_555 1_555
O2B Tb2B 1_555 1_555
O3B C8B 1_555 1_555
O4B C8B 1_555 1_555
O5B C15B 1_555 1_555
O6B C15B 1_555 1_555
O7B Tb2B 1_555 1_555
O8B Tb1B 1_555 1_555
C1B C2B 1_555 1_555
C2B H1B 1_555 1_555
C3B C2B 1_555 1_555
H2B C3B 1_555 1_555
C4B C3B 1_555 1_555
C5B C4B 1_555 1_555
H3B C5B 1_555 1_555
C6B C1B 1_555 1_555
H4B C6B 1_555 1_555
C7B O2B 1_555 1_555
C8B C4B 1_555 1_555
C9B C10B 1_555 1_555
C10B H5B 1_555 1_555
C11B C10B 1_555 1_555
H6B C11B 1_555 1_555
C12B C11B 1_555 1_555
C13B C12B 1_555 1_555
H7B C13B 1_555 1_555
C14B C9B 1_555 1_555
H8B C14B 1_555 1_555
C15B C9B 1_555 1_555
C16B O7B 1_555 1_555
Tb1_2 O1 1_555 1_555
Tb1A O5B 1_555 1_555
Tb1A_2 O3 1_555 1_555
Tb1B_2 O1B 1_555 1_555
Tb1B_3 O11B 1_555 1_555
Tb1C O3B 1_555 1_555
Tb1C_2 O5 1_555 1_555
Tb2_2 O10 1_555 1_555
Tb2A O4 1_555 1_555
Tb2B_2 O10B 1_555 1_555
Tb2B_3 O11B 1_555 1_555
Tb2C O4B 1_555 1_555
O1_2 Tb1 1_555 1_555
O1B_2 Tb1B 1_555 1_555
O3A Tb1 1_555 1_555
O3C Tb1B 1_555 1_555
O4A Tb2 1_555 1_555
O4C Tb2B 1_555 1_555
O5A Tb1B 1_555 1_555
O5C Tb1 1_555 1_555
O6A Tb1B 1_555 1_555
O6C Tb1 1_555 1_555
O10_2 Tb2 1_555 1_555
O10B_2 Tb2B 1_555 1_555
O11_2 Tb1 1_555 1_555
O11B_2 Tb2B 1_555 1_555
O11B_3 Tb1B 1_555 1_555
O12B_2 Tb2B 1_555 1_555
Tb2 O8 1_555 1_555
O6 Tb1C_2 1_555 1_555
O8 C16 1_555 1_555
O11 Tb1_2 1_555 1_555
O12 C24 1_555 1_555
C1 C7 1_555 1_555
C5 C6 1_555 1_555
C12 C16 1_555 1_555
C13 C14 1_555 1_555
C18 C20 1_555 1_555
C22 C24 1_555 1_555
C18B C19B 1_555 1_555
O12B Tb2B_3 1_555 1_555
C22B C23B 1_555 1_555
Tb2B O8B 1_555 1_555
O6B Tb1A 1_555 1_555
O8B C16B 1_555 1_555
C1B C7B 1_555 1_555
C5B C6B 1_555 1_555
C12B C16B 1_555 1_555
C13B C14B 1_555 1_555
Tb1B_2 O11B_2 1_555 1_555
Tb2_2 O11_2 1_555 1_555
Tb2B_2 O11B_3 1_555 1_555

#END
