
#######################################################################
#
#                 Cambridge Crystallographic Data Centre
#                                CCDC 
#
#######################################################################
#
# If this CIF has been generated from an entry in the Cambridge 
# Structural Database, then it will include bibliographic, chemical, 
# crystal, experimental, refinement or atomic coordinate data resulting 
# from the CCDC's data processing and validation procedures.
#
#######################################################################

data_YIXFIW
_symmetry_cell_setting           monoclinic
_symmetry_space_group_name_H-M   'P 21/n'
_symmetry_Int_Tables_number      14
_space_group_name_Hall           '-P 2yn'
loop_
_symmetry_equiv_pos_site_id
_symmetry_equiv_pos_as_xyz
1 x,y,z
2 1/2-x,1/2+y,1/2-z
3 -x,-y,-z
4 1/2+x,1/2-y,1/2+z
_cell_length_a                   13.0196(7)
_cell_length_b                   13.1488(6)
_cell_length_c                   14.0444(8)
_cell_angle_alpha                90
_cell_angle_beta                 103.955(2)
_cell_angle_gamma                90
_cell_volume                     2333.33
loop_
_atom_site_label
_atom_site_type_symbol
_atom_site_fract_x
_atom_site_fract_y
_atom_site_fract_z
Sm1 Sm 0.408873(19) 0.446752(17) 0.088168(16)
O1 O 0.8495(3) 0.1127(3) 0.4233(3)
O2 O 0.4727(4) 0.3877(3) 0.2564(3)
O3 O 0.3585(3) 0.5120(3) 0.2399(3)
O4 O 0.5700(3) 0.4146(3) 0.0404(3)
O5 O 0.4412(4) 0.2512(3) 0.0862(3)
C1 C 0.8826(5) 0.1142(4) 0.3464(4)
C2 C 0.4652(4) 0.4795(4) 0.4003(4)
C3 C 0.3925(5) 0.1770(4) 0.0478(5)
C4 C 0.7138(4) 0.3073(4) 0.1157(4)
C5 C 0.7932(5) 0.2433(4) 0.0997(4)
H1 H 0.8110 0.2442 0.0394
C6 C 0.4291(4) 0.4579(4) 0.2919(4)
O6 O 0.2901(4) 0.1701(4) 0.0235(5)
H2 H 0.2642 0.2230 0.0380
C7 C 0.8455(5) 0.1783(4) 0.1729(4)
H3 H 0.8970 0.1342 0.1612
C8 C 0.5450(5) 0.4217(5) 0.4588(4)
H4 H 0.5753 0.3685 0.4315
C9 C 0.4202(6) 0.5569(5) 0.4421(4)
H5 H 0.3658 0.5952 0.4035
O7 O 0.9620(4) 0.0695(4) 0.3323(3)
O8 O 0.7041(3) 0.4064(3) -0.0269(3)
C10 C 0.7425(5) 0.2423(4) 0.2797(4)
H6 H 0.7254 0.2419 0.3403
C11 C 0.8211(5) 0.1789(4) 0.2641(4)
C12 C 0.6592(4) 0.3793(4) 0.0380(4)
C13 C 0.6882(5) 0.3071(4) 0.2058(4)
H7 H 0.6353 0.3497 0.2170
C14 C 0.4479(5) 0.0840(4) 0.0236(5)
C15 C 0.5562(6) 0.0744(5) 0.0597(6)
H8 H 0.5938 0.1250 0.0997
C16 C 0.3916(6) 0.0096(5) -0.0368(6)
H9 H 0.3189 0.0163 -0.0616
Cl1 Cl 0.19673(10) 0.36139(9) 0.07667(10)
O2B O 0.5273(4) 0.6123(3) 0.7436(3)
O3B O 0.6415(3) 0.4880(3) 0.7601(3)
C2B C 0.5348(4) 0.5205(4) 0.5997(4)
C6B C 0.5709(4) 0.5421(4) 0.7081(4)
C8B C 0.4550(5) 0.5783(5) 0.5412(4)
H4B H 0.4247 0.6315 0.5685
C9B C 0.5798(6) 0.4431(5) 0.5579(4)
H5B H 0.6342 0.4048 0.5965
O5B O 0.5588(4) -0.2512(3) -0.0862(3)
C3B C 0.6075(5) -0.1770(4) -0.0478(5)
O6B O 0.7099(4) -0.1701(4) -0.0235(5)
H2B H 0.7358 -0.2230 -0.0380
C14B C 0.5521(5) -0.0840(4) -0.0236(5)
C15B C 0.4438(6) -0.0744(5) -0.0597(6)
H8B H 0.4062 -0.1250 -0.0997
C16B C 0.6084(6) -0.0096(5) 0.0368(6)
H9B H 0.6811 -0.0163 0.0616
Sm1B Sm 0.591127(19) -0.446752(17) -0.088168(16)
O1B O 0.1505(3) -0.1127(3) -0.4233(3)
O4B O 0.4300(3) -0.4146(3) -0.0404(3)
C1B C 0.1174(5) -0.1142(4) -0.3464(4)
C4B C 0.2862(4) -0.3073(4) -0.1157(4)
C5B C 0.2068(5) -0.2433(4) -0.0997(4)
H1B H 0.1890 -0.2442 -0.0394
C7B C 0.1545(5) -0.1783(4) -0.1729(4)
H3B H 0.1030 -0.1342 -0.1612
O7B O 0.0380(4) -0.0695(4) -0.3323(3)
O8B O 0.2959(3) -0.4064(3) 0.0269(3)
C10B C 0.2575(5) -0.2423(4) -0.2797(4)
H6B H 0.2746 -0.2419 -0.3403
C11B C 0.1789(5) -0.1789(4) -0.2641(4)
C12B C 0.3408(4) -0.3793(4) -0.0380(4)
C13B C 0.3118(5) -0.3071(4) -0.2058(4)
H7B H 0.3647 -0.3497 -0.2170
Cl1B Cl 0.80327(10) -0.36139(9) -0.07667(10)
Sm1_2 Sm 0.408873(19) -0.553248(17) 0.088168(16)
Sm1A Sm 0.091127(19) -0.053248(17) -0.588168(16)
Sm1A_2 Sm 1.091127(19) -0.053248(17) 0.411832(16)
Sm1B_2 Sm 0.591127(19) 0.553248(17) -0.088168(16)
Sm1B_3 Sm 0.591127(19) 0.553248(17) 0.911832(16)
Sm1C Sm -0.091127(19) 0.053248(17) -0.411832(16)
Sm1C_2 Sm 0.908873(19) 0.053248(17) 0.588168(16)
O1A O 0.6505(3) -0.3873(3) 0.0767(3)
O1C O 0.3495(3) 0.3873(3) -0.0767(3)
O2B_2 O 0.5273(4) -0.3877(3) -0.2564(3)
O3B_2 O 0.6415(3) -0.5120(3) -0.2399(3)
O4_2 O 0.5700(3) -0.5854(3) 0.0404(3)
O4B_2 O 0.4300(3) 0.5854(3) -0.0404(3)
O7A O 0.5380(4) 0.5695(4) 0.1677(3)
O7C O 0.4620(4) -0.5695(4) -0.1677(3)
O8_2 O 0.7041(3) -0.5936(3) -0.0269(3)
O8B_2 O 0.2959(3) 0.5936(3) 0.0269(3)
N1 N 0.0418(9) 0.5617(7) 0.1782(11)
C17 C 0.1103(9) 0.4985(11) 0.2336(9)
H10 H 0.1833 0.5076 0.2494
N2 N 0.0625(9) 0.4222(10) 0.2629(8)
C18 C -0.0423(11) 0.4362(12) 0.2268(12)
H11 H -0.0959 0.3937 0.2367
C19 C -0.0554(10) 0.5222(13) 0.1741(11)
H12 H -0.1198 0.5499 0.1406
C20 C 0.0599(17) 0.6578(13) 0.121(2)
H13 H 0.0320 0.6470 0.0508
H14 H 0.0233 0.7154 0.1403
C21 C 0.119(2) 0.3210(19) 0.3192(13)
H15 H 0.1945 0.3309 0.3377
H16 H 0.1030 0.2633 0.2762
H17 H 0.0937 0.3091 0.3769
C22 C 0.168(3) 0.677(10) 0.140(9)
H18 H 0.1805 0.7357 0.1033
H19 H 0.2040 0.6195 0.1219
H20 H 0.1947 0.6907 0.2090
loop_
_geom_bond_atom_site_label_1
_geom_bond_atom_site_label_2
_geom_bond_site_symmetry_1
_geom_bond_site_symmetry_2
Sm1 O2 1_555 1_555
O1 C1 1_555 1_555
O2 C6 1_555 1_555
O3 Sm1 1_555 1_555
O4 Sm1 1_555 1_555
O5 Sm1 1_555 1_555
C1 O7 1_555 1_555
C2 C6 1_555 1_555
C3 O5 1_555 1_555
C4 C5 1_555 1_555
C5 H1 1_555 1_555
C6 O3 1_555 1_555
O6 C3 1_555 1_555
H2 O6 1_555 1_555
C7 C5 1_555 1_555
H3 C7 1_555 1_555
C8 C2 1_555 1_555
H4 C8 1_555 1_555
C9 C2 1_555 1_555
H5 C9 1_555 1_555
O7 Sm1A_2 1_555 1_555
O8 C12 1_555 1_555
C10 H6 1_555 1_555
C11 C1 1_555 1_555
C12 O4 1_555 1_555
C13 C4 1_555 1_555
H7 C13 1_555 1_555
C14 C3 1_555 1_555
C15 C14 1_555 1_555
H8 C15 1_555 1_555
C16 C14 1_555 1_555
H9 C16 1_555 1_555
Cl1 Sm1 1_555 1_555
N1 C17 1_555 1_555
C17 H10 1_555 1_555
N2 C17 1_555 1_555
C18 N2 1_555 1_555
H11 C18 1_555 1_555
C19 N1 1_555 1_555
H12 C19 1_555 1_555
C20 N1 1_555 1_555
H13 C20 1_555 1_555
H14 C20 1_555 1_555
C21 N2 1_555 1_555
H15 C21 1_555 1_555
H16 C21 1_555 1_555
H17 C21 1_555 1_555
C22 C20 1_555 1_555
H18 C22 1_555 1_555
H19 C22 1_555 1_555
H20 C22 1_555 1_555
O2B C6B 1_555 1_555
O3B C6B 1_555 1_555
C2B C6B 1_555 1_555
C8B C9 1_555 1_555
H4B C8B 1_555 1_555
C9B C8 1_555 1_555
H5B C9B 1_555 1_555
O5B C3B 1_555 1_555
C3B O6B 1_555 1_555
O6B H2B 1_555 1_555
C14B C3B 1_555 1_555
C15B C16 1_555 1_555
H8B C15B 1_555 1_555
C16B C15 1_555 1_555
H9B C16B 1_555 1_555
Sm1B O5B 1_555 1_555
O1B C1B 1_555 1_555
O4B Sm1B 1_555 1_555
C1B O7B 1_555 1_555
C4B C5B 1_555 1_555
C5B H1B 1_555 1_555
C7B C5B 1_555 1_555
H3B C7B 1_555 1_555
O7B Sm1C 1_555 1_555
O8B C12B 1_555 1_555
C10B H6B 1_555 1_555
C11B C1B 1_555 1_555
C12B O4B 1_555 1_555
C13B C4B 1_555 1_555
H7B C13B 1_555 1_555
Cl1B Sm1B 1_555 1_555
Sm1_2 O4B 1_555 1_555
Sm1A O1B 1_555 1_555
Sm1B_2 O4 1_555 1_555
Sm1B_3 O2B 1_555 1_555
Sm1C_2 O1 1_555 1_555
O1A Sm1B 1_555 1_555
O1C Sm1 1_555 1_555
O2B_2 Sm1B 1_555 1_555
O3B_2 Sm1B 1_555 1_555
O4_2 Sm1B 1_555 1_555
O4B_2 Sm1 1_555 1_555
O7A Sm1 1_555 1_555
O7C Sm1B 1_555 1_555
O8_2 Sm1B 1_555 1_555
O8B_2 Sm1 1_555 1_555
C4 C12 1_555 1_555
C7 C11 1_555 1_555
O8 Sm1B_2 1_555 1_555
C10 C11 1_555 1_555
C10 C13 1_555 1_555
C18 C19 1_555 1_555
O3B Sm1B_3 1_555 1_555
C2B C8B 1_555 1_555
C2B C9B 1_555 1_555
C14B C15B 1_555 1_555
C14B C16B 1_555 1_555
C4B C12B 1_555 1_555
C7B C11B 1_555 1_555
O8B Sm1_2 1_555 1_555
C10B C11B 1_555 1_555
C10B C13B 1_555 1_555
Sm1_2 O4_2 1_555 1_555
Sm1B_2 O4B_2 1_555 1_555

#END
