
#######################################################################
#
#                 Cambridge Crystallographic Data Centre
#                                CCDC 
#
#######################################################################
#
# If this CIF has been generated from an entry in the Cambridge 
# Structural Database, then it will include bibliographic, chemical, 
# crystal, experimental, refinement or atomic coordinate data resulting 
# from the CCDC's data processing and validation procedures.
#
#######################################################################

data_YIXGIX
_symmetry_cell_setting           orthorhombic
_symmetry_space_group_name_H-M   'P c a n'
_symmetry_Int_Tables_number      60
_space_group_name_Hall           '-P 2n 2c'
loop_
_symmetry_equiv_pos_site_id
_symmetry_equiv_pos_as_xyz
1 x,y,z
2 1/2-x,1/2-y,1/2+z
3 x,-y,1/2-z
4 1/2-x,1/2+y,-z
5 -x,-y,-z
6 1/2+x,1/2+y,1/2-z
7 -x,y,1/2+z
8 1/2+x,1/2-y,z
_cell_length_a                   10.9960(4)
_cell_length_b                   23.2710(9)
_cell_length_c                   11.0750(4)
_cell_angle_alpha                90
_cell_angle_beta                 90
_cell_angle_gamma                90
_cell_volume                     2833.96
loop_
_atom_site_label
_atom_site_type_symbol
_atom_site_fract_x
_atom_site_fract_y
_atom_site_fract_z
C1 C 0.1126(4) -0.48683(18) 0.6882(3)
C2 C 0.2009(4) -0.50233(19) 0.6014(4)
C3 C 0.2942(4) -0.54326(18) 0.6217(4)
H1 H 0.2989 -0.5628 0.6969
C4 C 0.3768(4) -0.55449(19) 0.5336(4)
H2 H 0.4387 -0.5823 0.5468
C5 C 0.3709(4) -0.52486(19) 0.4220(4)
H3 H 0.4301 -0.5325 0.3616
C6 C 0.2818(4) -0.48557(19) 0.3998(4)
H4 H 0.2797 -0.4657 0.3248
C7 C 0.1931(3) -0.47443(18) 0.4880(4)
C8 C 0.0233(4) -0.42588(18) 0.5528(3)
H5 H -0.0405 -0.3995 0.5360
C9 C -0.2469(4) -0.3305(2) 0.6488(5)
C10 C -0.3254(5) -0.2963(2) 0.5709(5)
H6 H -0.2926 -0.2573 0.5642
H7 H -0.4073 -0.2948 0.6056
H8 H -0.3291 -0.3139 0.4906
C11 C 0.0402(5) -0.2869(2) 0.8727(5)
H9 H 0.1112 -0.2636 0.8942
H10 H -0.0182 -0.2865 0.9395
H11 H 0.0018 -0.2710 0.8002
N1 N 0.0273(3) -0.44827(14) 0.6667(3)
N2 N 0.0991(3) -0.43722(14) 0.4639(3)
N3 N -0.1851(4) -0.35772(17) 0.7081(3)
O1 O 0.0779(3) -0.34503(15) 0.8494(4)
Cu1 Cu -0.07087(5) -0.40574(2) 0.79873(4)
C1B C 0.1126(4) -0.51317(18) 0.8118(3)
C2B C 0.2009(4) -0.49767(19) 0.8986(4)
C3B C 0.2942(4) -0.45674(18) 0.8783(4)
H1B H 0.2989 -0.4372 0.8031
C4B C 0.3768(4) -0.44551(19) 0.9664(4)
H2B H 0.4387 -0.4177 0.9532
C5B C 0.3709(4) -0.47514(19) 1.0780(4)
H3B H 0.4301 -0.4675 1.1384
C6B C 0.2818(4) -0.51443(19) 1.1002(4)
H4B H 0.2797 -0.5343 1.1752
C7B C 0.1931(3) -0.52557(18) 1.0120(4)
C8B C 0.0233(4) -0.57412(18) 0.9472(3)
H5B H -0.0405 -0.6005 0.9640
N1B N 0.0273(3) -0.55173(14) 0.8333(3)
N2B N 0.0991(3) -0.56278(14) 1.0361(3)
C9B C -0.2469(4) -0.6695(2) 0.8512(5)
C10B C -0.3254(5) -0.7037(2) 0.9291(5)
H6B H -0.2926 -0.7427 0.9358
H7B H -0.4073 -0.7052 0.8944
H8B H -0.3291 -0.6861 1.0094
C11B C 0.0402(5) -0.7131(2) 0.6273(5)
H9B H 0.1112 -0.7364 0.6058
H10B H -0.0182 -0.7135 0.5605
H11B H 0.0018 -0.7290 0.6998
N3B N -0.1851(4) -0.64228(17) 0.7919(3)
O1B O 0.0779(3) -0.65497(15) 0.6506(4)
Cu1B Cu -0.07087(5) -0.59426(2) 0.70127(4)
N2D N -0.0991(3) -0.56278(14) 0.5361(3)
N2F N -0.0991(3) -0.43722(14) 0.9639(3)
Cu1D Cu 0.07087(5) -0.59426(2) 1.20127(4)
Cu1F Cu 0.07087(5) -0.40574(2) 0.29873(4)
B1 B 0.345(2) -0.3398(11) 0.6591(15)
F1 F 0.4060(13) -0.3910(7) 0.6313(13)
F2 F 0.238(2) -0.3582(19) 0.655(4)
F3 F 0.3813(9) -0.2958(5) 0.5908(10)
F4 F 0.3650(9) -0.3259(4) 0.7799(7)
B2? B 0.357(2) -0.3452(11) 0.6225(17)
F5? F 0.4369(14) -0.3824(7) 0.6764(13)
F6? F 0.219(2) -0.353(2) 0.645(4)
F7? F 0.3659(9) -0.3454(5) 0.4986(8)
F8? F 0.3805(11) -0.2917(5) 0.6652(13)
loop_
_geom_bond_atom_site_label_1
_geom_bond_atom_site_label_2
_geom_bond_site_symmetry_1
_geom_bond_site_symmetry_2
C1 C2 1_555 1_555
C2 C3 1_555 1_555
C3 H1 1_555 1_555
C4 C3 1_555 1_555
H2 C4 1_555 1_555
C5 C4 1_555 1_555
H3 C5 1_555 1_555
C6 C5 1_555 1_555
H4 C6 1_555 1_555
C7 C2 1_555 1_555
C8 H5 1_555 1_555
C9 C10 1_555 1_555
C10 H6 1_555 1_555
H7 C10 1_555 1_555
H8 C10 1_555 1_555
C11 H9 1_555 1_555
H10 C11 1_555 1_555
H11 C11 1_555 1_555
N1 C1 1_555 1_555
N2 C7 1_555 1_555
N3 C9 1_555 1_555
O1 C11 1_555 1_555
Cu1 N1 1_555 1_555
B1 F1 1_555 1_555
F2 B1 1_555 1_555
F3 B1 1_555 1_555
F4 B1 1_555 1_555
C1B C1 1_555 1_555
C2B C1B 1_555 1_555
C3B C2B 1_555 1_555
H1B C3B 1_555 1_555
C4B C3B 1_555 1_555
H2B C4B 1_555 1_555
C5B C4B 1_555 1_555
H3B C5B 1_555 1_555
C6B C5B 1_555 1_555
H4B C6B 1_555 1_555
C7B C2B 1_555 1_555
C8B H5B 1_555 1_555
N1B C1B 1_555 1_555
N2B C7B 1_555 1_555
C9B C10B 1_555 1_555
C10B H6B 1_555 1_555
H7B C10B 1_555 1_555
H8B C10B 1_555 1_555
C11B H9B 1_555 1_555
H10B C11B 1_555 1_555
H11B C11B 1_555 1_555
N3B C9B 1_555 1_555
O1B C11B 1_555 1_555
Cu1B N1B 1_555 1_555
N2D Cu1B 1_555 1_555
N2F Cu1 1_555 1_555
Cu1D N2B 1_555 1_555
Cu1F N2 1_555 1_555
C6 C7 1_555 1_555
C8 N1 1_555 1_555
C8 N2 1_555 1_555
N3 Cu1 1_555 1_555
O1 Cu1 1_555 1_555
C6B C7B 1_555 1_555
C8B N1B 1_555 1_555
C8B N2B 1_555 1_555
N3B Cu1B 1_555 1_555
O1B Cu1B 1_555 1_555

#END
