
#######################################################################
#
#                 Cambridge Crystallographic Data Centre
#                                CCDC 
#
#######################################################################
#
# If this CIF has been generated from an entry in the Cambridge 
# Structural Database, then it will include bibliographic, chemical, 
# crystal, experimental, refinement or atomic coordinate data resulting 
# from the CCDC's data processing and validation procedures.
#
#######################################################################

data_YIXGAP
_symmetry_cell_setting           monoclinic
_symmetry_space_group_name_H-M   'P 21/c'
_symmetry_Int_Tables_number      14
_space_group_name_Hall           '-P 2ybc'
loop_
_symmetry_equiv_pos_site_id
_symmetry_equiv_pos_as_xyz
1 x,y,z
2 -x,1/2+y,1/2-z
3 -x,-y,-z
4 x,1/2-y,1/2+z
_cell_length_a                   11.475(5)
_cell_length_b                   23.181(9)
_cell_length_c                   12.711(6)
_cell_angle_alpha                90
_cell_angle_beta                 110.778(6)
_cell_angle_gamma                90
_cell_volume                     3161.25
loop_
_atom_site_label
_atom_site_type_symbol
_atom_site_fract_x
_atom_site_fract_y
_atom_site_fract_z
Cu1 Cu 0.74878(4) 0.449965(18) 0.68365(4)
N1 N 0.5603(3) 0.44425(12) 0.6084(3)
N2 N 0.3584(3) 0.46958(12) 0.6095(3)
N3 N 0.8347(3) 0.37281(13) 0.7225(3)
N4 N 0.1361(3) 0.50617(12) 0.3841(3)
N5 N -0.0795(3) 0.48581(12) 0.3471(3)
N6 N 0.7771(3) 0.48834(14) 0.8326(3)
C1 C 0.4846(4) 0.46643(14) 0.6547(3)
C2 C 0.3063(3) 0.44901(13) 0.5038(3)
C3 C 0.3759(3) 0.42139(14) 0.4464(3)
C4 C 0.3210(4) 0.39631(15) 0.3377(3)
C5 C 0.3961(4) 0.36837(15) 0.2907(3)
C6 C 0.5267(4) 0.36525(15) 0.3487(3)
C7 C 0.5813(4) 0.38955(14) 0.4540(3)
C8 C 0.5064(3) 0.41826(14) 0.5039(3)
C9 C 0.8459(4) 0.32726(16) 0.7569(3)
C10 C 0.8552(5) 0.26856(18) 0.8005(4)
C11 C 0.0119(3) 0.51784(14) 0.3389(3)
C12 C -0.0472(3) 0.43377(14) 0.4037(3)
C13 C -0.1399(3) 0.39617(15) 0.4117(3)
C14 C -0.1068(4) 0.34526(15) 0.4713(3)
C15 C 0.0204(4) 0.32988(15) 0.5230(3)
C16 C 0.1130(3) 0.36594(15) 0.5170(3)
C17 C 0.0804(3) 0.41875(14) 0.4576(3)
C18 C 0.1684(3) 0.45827(14) 0.4458(3)
C19 C 0.8156(4) 0.50805(16) 0.9213(4)
C20 C 0.8676(5) 0.5314(3) 1.0347(4)
H1 H 0.5225 0.4820 0.7281
H2 H 0.2336 0.3989 0.2983
H3 H 0.3602 0.3510 0.2187
H4 H 0.5775 0.3462 0.3146
H5 H 0.6688 0.3869 0.4923
H6 H 0.8011 0.2430 0.7420
H7 H 0.8290 0.2680 0.8660
H8 H 0.9416 0.2552 0.8228
H9 H -0.0113 0.5526 0.2973
H10 H -0.2254 0.4058 0.3761
H11 H -0.1698 0.3204 0.4777
H12 H 0.0420 0.2943 0.5622
H13 H 0.1981 0.3555 0.5523
H14 H 0.9097 0.5006 1.0873
H15 H 0.8004 0.5476 1.0563
H16 H 0.9277 0.5619 1.0369
Cu2 Cu 0.26210(4) 0.483912(18) 0.71843(4)
N7 N 0.2471(3) 0.40483(14) 0.7819(3)
N8 N 0.3572(3) 0.53632(15) 0.8458(3)
C21 C 0.2424(4) 0.35908(18) 0.8127(4)
C22 C 0.2377(5) 0.30073(19) 0.8555(4)
C23 C 0.3858(4) 0.56951(18) 0.9181(4)
C24 C 0.4208(5) 0.6120(2) 1.0098(4)
H17 H 0.1753 0.2779 0.7977
H18 H 0.2150 0.3029 0.9229
H19 H 0.3196 0.2824 0.8747
H20 H 0.4973 0.5994 1.0696
H21 H 0.3536 0.6155 1.0399
H22 H 0.4351 0.6495 0.9809
Cu1B Cu 0.25122(4) 0.550035(18) 0.31635(4)
N4B N 0.8639(3) 0.49383(12) 0.6159(3)
N5B N 0.0795(3) 0.51419(12) 0.6529(3)
Cu2B Cu -0.26210(4) 0.516088(18) 0.28157(4)
P1 P 1.03673(10) 0.64955(4) 0.88145(9)
F1 F 0.9769(3) 0.58739(11) 0.8333(3)
F2 F 1.1451(3) 0.63904(10) 0.8322(2)
F3 F 1.1200(3) 0.61946(11) 0.9965(2)
F4 F 1.0975(3) 0.71114(10) 0.9285(3)
F5 F 0.9281(3) 0.65993(14) 0.9299(3)
F6 F 0.9527(3) 0.67931(12) 0.7648(3)
P2 P 0.54453(10) 0.77925(4) 0.84660(9)
F7 F 0.4816(3) 0.76491(12) 0.7166(3)
F8 F 0.5212(3) 0.71389(10) 0.8769(3)
F9 F 0.6778(3) 0.76036(12) 0.8429(3)
F10 F 0.6096(3) 0.79375(11) 0.9771(2)
F11 F 0.5706(3) 0.84439(10) 0.8168(3)
F12 F 0.4139(3) 0.79838(12) 0.8523(3)
loop_
_geom_bond_atom_site_label_1
_geom_bond_atom_site_label_2
_geom_bond_site_symmetry_1
_geom_bond_site_symmetry_2
Cu1 N1 1_555 1_555
N1 C1 1_555 1_555
N2 C1 1_555 1_555
N3 Cu1 1_555 1_555
N4 C11 1_555 1_555
N5 C11 1_555 1_555
N6 Cu1 1_555 1_555
C1 H1 1_555 1_555
C2 N2 1_555 1_555
C3 C2 1_555 1_555
C4 C3 1_555 1_555
C5 C4 1_555 1_555
C6 C5 1_555 1_555
C7 C6 1_555 1_555
C8 N1 1_555 1_555
C9 N3 1_555 1_555
C10 C9 1_555 1_555
C11 H9 1_555 1_555
C12 N5 1_555 1_555
C13 C12 1_555 1_555
C14 C13 1_555 1_555
C15 C14 1_555 1_555
C16 C15 1_555 1_555
C17 C12 1_555 1_555
C18 N4 1_555 1_555
C19 N6 1_555 1_555
C20 C19 1_555 1_555
H2 C4 1_555 1_555
H3 C5 1_555 1_555
H4 C6 1_555 1_555
H5 C7 1_555 1_555
H6 C10 1_555 1_555
H7 C10 1_555 1_555
H8 C10 1_555 1_555
H10 C13 1_555 1_555
H11 C14 1_555 1_555
H12 C15 1_555 1_555
H13 C16 1_555 1_555
H14 C20 1_555 1_555
H15 C20 1_555 1_555
H16 C20 1_555 1_555
Cu2 N2 1_555 1_555
N7 Cu2 1_555 1_555
N8 Cu2 1_555 1_555
C21 N7 1_555 1_555
C22 C21 1_555 1_555
C23 N8 1_555 1_555
C24 C23 1_555 1_555
H17 C22 1_555 1_555
H18 C22 1_555 1_555
H19 C22 1_555 1_555
H20 C24 1_555 1_555
H21 C24 1_555 1_555
H22 C24 1_555 1_555
P1 F1 1_555 1_555
F2 P1 1_555 1_555
F3 P1 1_555 1_555
F4 P1 1_555 1_555
F5 P1 1_555 1_555
F6 P1 1_555 1_555
P2 F7 1_555 1_555
F8 P2 1_555 1_555
F9 P2 1_555 1_555
F10 P2 1_555 1_555
F11 P2 1_555 1_555
F12 P2 1_555 1_555
Cu1B N4 1_555 1_555
N4B Cu1 1_555 1_555
N5B Cu2 1_555 1_555
Cu2B N5 1_555 1_555
C2 C18 1_555 1_555
C3 C8 1_555 1_555
C7 C8 1_555 1_555
C16 C17 1_555 1_555
C17 C18 1_555 1_555

#END
