
#######################################################################
#
#                 Cambridge Crystallographic Data Centre
#                                CCDC 
#
#######################################################################
#
# If this CIF has been generated from an entry in the Cambridge 
# Structural Database, then it will include bibliographic, chemical, 
# crystal, experimental, refinement or atomic coordinate data resulting 
# from the CCDC's data processing and validation procedures.
#
#######################################################################

data_YIXHEU
_symmetry_cell_setting           orthorhombic
_symmetry_space_group_name_H-M   'P b n a'
_symmetry_Int_Tables_number      60
_space_group_name_Hall           '-P 2ac 2b'
loop_
_symmetry_equiv_pos_site_id
_symmetry_equiv_pos_as_xyz
1 x,y,z
2 1/2-x,-y,1/2+z
3 x,1/2-y,-z
4 1/2-x,1/2+y,1/2-z
5 -x,-y,-z
6 1/2+x,y,1/2-z
7 -x,1/2+y,z
8 1/2+x,1/2-y,1/2+z
_cell_length_a                   11.061(5)
_cell_length_b                   8.562(5)
_cell_length_c                   23.052(5)
_cell_angle_alpha                90
_cell_angle_beta                 90
_cell_angle_gamma                90
_cell_volume                     2183.12
loop_
_atom_site_label
_atom_site_type_symbol
_atom_site_fract_x
_atom_site_fract_y
_atom_site_fract_z
Mn1 Mn 0.85906(6) -0.2500 0.5000
P1 P 1.09781(9) -0.40632(12) 0.57309(4)
O1 O 0.9706(3) -0.3837(4) 0.55432(12)
O2 O 1.1557(2) -0.5617(3) 0.56428(12)
N1 N 0.6909(3) -0.1493(4) 0.45660(17)
C1 C 0.5832(4) -0.1944(6) 0.4761(3)
C2 C 0.4772(6) -0.1360(10) 0.4505(5)
H1 H 0.4019 -0.1681 0.4641
C3 C 0.4849(12) -0.0330(15) 0.4062(6)
H2 H 0.4149 0.0056 0.3891
C4 C 0.5947(11) 0.0141(10) 0.3866(4)
H3 H 0.6013 0.0856 0.3565
C5 C 0.6972(7) -0.0478(7) 0.4130(2)
H4 H 0.7729 -0.0170 0.3997
C6 C 1.1096(3) -0.3528(4) 0.64862(15)
C7 C 1.1982(4) -0.4145(6) 0.68389(19)
C8 C 1.2090(5) -0.3694(7) 0.7412(2)
C9 C 1.1298(6) -0.2642(6) 0.7636(2)
C10 C 1.0414(7) -0.2021(7) 0.7296(2)
C11 C 1.0303(5) -0.2463(6) 0.6721(2)
H5 H 1.171(4) -0.301(5) 0.5477(18)
H6 H 1.254(5) -0.486(6) 0.670(2)
H7 H 1.269(5) -0.413(6) 0.762(2)
H8 H 1.137(4) -0.235(6) 0.803(3)
H9 H 0.988(5) -0.140(6) 0.743(2)
H10 H 0.969(5) -0.205(6) 0.648(2)
N1B N 0.6909(3) -0.3507(4) 0.54340(17)
C1B C 0.5832(4) -0.3056(6) 0.5239(3)
C2B C 0.4772(6) -0.3640(10) 0.5495(5)
H1B H 0.4019 -0.3319 0.5359
C3B C 0.4849(12) -0.4670(15) 0.5938(6)
H2B H 0.4149 -0.5056 0.6109
C4B C 0.5947(11) -0.5141(10) 0.6134(4)
H3B H 0.6013 -0.5856 0.6435
C5B C 0.6972(7) -0.4522(7) 0.5870(2)
H4B H 0.7729 -0.4830 0.6003
P1B P 1.09781(9) -0.09368(12) 0.42691(4)
O1B O 0.9706(3) -0.1163(4) 0.44568(12)
O2B O 1.1557(2) 0.0617(3) 0.43572(12)
C6B C 1.1096(3) -0.1472(4) 0.35138(15)
C7B C 1.1982(4) -0.0855(6) 0.31611(19)
C8B C 1.2090(5) -0.1306(7) 0.2588(2)
C9B C 1.1298(6) -0.2358(6) 0.2364(2)
C10B C 1.0414(7) -0.2979(7) 0.2704(2)
C11B C 1.0303(5) -0.2537(6) 0.3279(2)
H5B H 1.171(4) -0.199(5) 0.4523(18)
H6B H 1.254(5) -0.014(6) 0.330(2)
H7B H 1.269(5) -0.087(6) 0.238(2)
H8B H 1.137(4) -0.265(6) 0.197(3)
H9B H 0.988(5) -0.360(6) 0.257(2)
H10B H 0.969(5) -0.295(6) 0.352(2)
Mn1D Mn 1.14094(6) -0.7500 0.5000
Mn1D_2 Mn 1.14094(6) 0.2500 0.5000
O2D O 0.8443(2) -0.4383(3) 0.43572(12)
O2F O 0.8443(2) -0.0617(3) 0.56428(12)
loop_
_geom_bond_atom_site_label_1
_geom_bond_atom_site_label_2
_geom_bond_site_symmetry_1
_geom_bond_site_symmetry_2
Mn1 O1 1_555 1_555
P1 O1 1_555 1_555
O2 P1 1_555 1_555
N1 Mn1 1_555 1_555
C1 N1 1_555 1_555
C2 C1 1_555 1_555
H1 C2 1_555 1_555
C3 C2 1_555 1_555
H2 C3 1_555 1_555
C4 C3 1_555 1_555
H3 C4 1_555 1_555
C5 N1 1_555 1_555
H4 C5 1_555 1_555
C6 P1 1_555 1_555
C7 C6 1_555 1_555
C8 C7 1_555 1_555
C9 C8 1_555 1_555
C10 C9 1_555 1_555
C11 C6 1_555 1_555
H5 P1 1_555 1_555
H6 C7 1_555 1_555
H7 C8 1_555 1_555
H8 C9 1_555 1_555
H9 C10 1_555 1_555
H10 C11 1_555 1_555
N1B Mn1 1_555 1_555
C1B C1 1_555 1_555
C2B C1B 1_555 1_555
H1B C2B 1_555 1_555
C3B C2B 1_555 1_555
H2B C3B 1_555 1_555
C4B C3B 1_555 1_555
H3B C4B 1_555 1_555
C5B N1B 1_555 1_555
H4B C5B 1_555 1_555
P1B O1B 1_555 1_555
O1B Mn1 1_555 1_555
O2B P1B 1_555 1_555
C6B P1B 1_555 1_555
C7B C6B 1_555 1_555
C8B C7B 1_555 1_555
C9B C8B 1_555 1_555
C10B C9B 1_555 1_555
C11B C6B 1_555 1_555
H5B P1B 1_555 1_555
H6B C7B 1_555 1_555
H7B C8B 1_555 1_555
H8B C9B 1_555 1_555
H9B C10B 1_555 1_555
H10B C11B 1_555 1_555
Mn1D O2 1_555 1_555
Mn1D_2 O2B 1_555 1_555
O2D Mn1 1_555 1_555
O2F Mn1 1_555 1_555
C4 C5 1_555 1_555
C10 C11 1_555 1_555
N1B C1B 1_555 1_555
C4B C5B 1_555 1_555
C10B C11B 1_555 1_555

#END
