
#######################################################################
#
#                 Cambridge Crystallographic Data Centre
#                                CCDC 
#
#######################################################################
#
# If this CIF has been generated from an entry in the Cambridge 
# Structural Database, then it will include bibliographic, chemical, 
# crystal, experimental, refinement or atomic coordinate data resulting 
# from the CCDC's data processing and validation procedures.
#
#######################################################################

data_YIXKEV
_symmetry_cell_setting           monoclinic
_symmetry_space_group_name_H-M   'P 21/c'
_symmetry_Int_Tables_number      14
_space_group_name_Hall           '-P 2ybc'
loop_
_symmetry_equiv_pos_site_id
_symmetry_equiv_pos_as_xyz
1 x,y,z
2 -x,1/2+y,1/2-z
3 -x,-y,-z
4 x,1/2-y,1/2+z
_cell_length_a                   10.620
_cell_length_b                   5.384
_cell_length_c                   14.916
_cell_angle_alpha                90
_cell_angle_beta                 93.18
_cell_angle_gamma                90
_cell_volume                     851.555
loop_
_atom_site_label
_atom_site_type_symbol
_atom_site_fract_x
_atom_site_fract_y
_atom_site_fract_z
Cu1 Cu 0.0000 0.0000 0.0000
N1 N -0.1052(1) -0.2921(3) -0.03317(8)
S1 S -0.14783(3) -0.43369(7) -0.11892(2)
O1 O -0.0976(1) -0.6771(2) -0.13543(8)
C1 C -0.1157(2) -0.2403(3) -0.2090(1)
C2 C -0.3141(1) -0.4580(3) -0.1222(1)
C3 C -0.3727(2) -0.6574(3) -0.1651(1)
C4 C -0.5028(2) -0.6725(4) -0.1678(1)
C5 C -0.5723(2) -0.4903(4) -0.1287(1)
C6 C -0.5130(2) -0.2910(4) -0.0873(1)
C7 C -0.3827(2) -0.2744(3) -0.0831(1)
Cl1 Cl 0.16077(4) -0.13129(9) -0.08471(3)
H1 H -0.1404 -0.3693 0.0210
H2 H -0.0225 -0.2181 -0.2113
H3 H -0.1499 -0.3174 -0.2663
H4 H -0.1565 -0.0750 -0.2009
H5 H -0.3219 -0.7888 -0.1937
H6 H -0.5466 -0.8163 -0.1983
H7 H -0.6663 -0.5031 -0.1304
H8 H -0.5640 -0.1574 -0.0601
H9 H -0.3391 -0.1311 -0.0520
N1B N 0.1052(1) 0.2921(3) 0.03317(8)
O1B O 0.0976(1) -0.3229(2) 0.13543(8)
Cl1B Cl -0.16077(4) 0.13129(9) 0.08471(3)
O1_2 O -0.0976(1) 0.3229(2) -0.13543(8)
S1B S 0.14783(3) 0.43369(7) 0.11892(2)
H1B H 0.1404 0.3693 -0.0210
Cu1_2 Cu 0.0000 -1.0000 0.0000
O1B_2 O 0.0976(1) 0.6771(2) 0.13543(8)
C1B C 0.1157(2) 0.2403(3) 0.2090(1)
C2B C 0.3141(1) 0.4580(3) 0.1222(1)
Cu1_3 Cu 0.0000 1.0000 0.0000
H2B H 0.0225 0.2181 0.2113
H3B H 0.1499 0.3174 0.2663
H4B H 0.1565 0.0750 0.2009
C3B C 0.3727(2) 0.6574(3) 0.1651(1)
C7B C 0.3827(2) 0.2744(3) 0.0831(1)
C4B C 0.5028(2) 0.6725(4) 0.1678(1)
H5B H 0.3219 0.7888 0.1937
C6B C 0.5130(2) 0.2910(4) 0.0873(1)
H9B H 0.3391 0.1311 0.0520
C5B C 0.5723(2) 0.4903(4) 0.1287(1)
H6B H 0.5466 0.8163 0.1983
H8B H 0.5640 0.1574 0.0601
H7B H 0.6663 0.5031 0.1304
loop_
_geom_bond_atom_site_label_1
_geom_bond_atom_site_label_2
_geom_bond_site_symmetry_1
_geom_bond_site_symmetry_2
Cu1 N1 1_555 1_555
N1 S1 1_555 1_555
S1 O1 1_555 1_555
O1 Cu1_2 1_555 1_555
C1 S1 1_555 1_555
C2 S1 1_555 1_555
C3 C2 1_555 1_555
C4 C3 1_555 1_555
C5 C4 1_555 1_555
C6 C5 1_555 1_555
C7 C2 1_555 1_555
Cl1 Cu1 1_555 1_555
H1 N1 1_555 1_555
H2 C1 1_555 1_555
H3 C1 1_555 1_555
H4 C1 1_555 1_555
H5 C3 1_555 1_555
H6 C4 1_555 1_555
H7 C5 1_555 1_555
H8 C6 1_555 1_555
H9 C7 1_555 1_555
N1B Cu1 1_555 1_555
O1B Cu1 1_555 1_555
Cl1B Cu1 1_555 1_555
O1_2 Cu1 1_555 1_555
S1B N1B 1_555 1_555
H1B N1B 1_555 1_555
O1B_2 S1B 1_555 1_555
C1B S1B 1_555 1_555
C2B S1B 1_555 1_555
Cu1_3 O1B_2 1_555 1_555
H2B C1B 1_555 1_555
H3B C1B 1_555 1_555
H4B C1B 1_555 1_555
C3B C2B 1_555 1_555
C7B C2B 1_555 1_555
C4B C3B 1_555 1_555
H5B C3B 1_555 1_555
C6B C7B 1_555 1_555
H9B C7B 1_555 1_555
C5B C4B 1_555 1_555
H6B C4B 1_555 1_555
H8B C6B 1_555 1_555
H7B C5B 1_555 1_555
C6 C7 1_555 1_555
C6B C5B 1_555 1_555

#END
