
#######################################################################
#
#                 Cambridge Crystallographic Data Centre
#                                CCDC 
#
#######################################################################
#
# If this CIF has been generated from an entry in the Cambridge 
# Structural Database, then it will include bibliographic, chemical, 
# crystal, experimental, refinement or atomic coordinate data resulting 
# from the CCDC's data processing and validation procedures.
#
#######################################################################

data_YIXQAZ
_symmetry_cell_setting           orthorhombic
_symmetry_space_group_name_H-M   'F d d 2'
_symmetry_Int_Tables_number      43
_space_group_name_Hall           'F 2 -2d'
loop_
_symmetry_equiv_pos_site_id
_symmetry_equiv_pos_as_xyz
1 x,y,z
2 x,1/2+y,1/2+z
3 1/2+x,y,1/2+z
4 1/2+x,1/2+y,z
5 -x,-y,z
6 1/2-x,-y,1/2+z
7 -x,1/2-y,1/2+z
8 1/4-x,1/4+y,1/4+z
9 1/4-x,3/4+y,3/4+z
10 3/4-x,1/4+y,3/4+z
11 3/4-x,3/4+y,1/4+z
12 1/2-x,1/2-y,z
13 3/4+x,3/4-y,1/4+z
14 3/4+x,1/4-y,3/4+z
15 1/4+x,3/4-y,3/4+z
16 1/4+x,1/4-y,1/4+z
_cell_length_a                   15.4367(7)
_cell_length_b                   46.264(2)
_cell_length_c                   14.2833(6)
_cell_angle_alpha                90
_cell_angle_beta                 90
_cell_angle_gamma                90
_cell_volume                     10200.6
loop_
_atom_site_label
_atom_site_type_symbol
_atom_site_fract_x
_atom_site_fract_y
_atom_site_fract_z
Fe1 Fe 0.73300(4) 0.466733(13) 0.47903(8)
Au1 Au 0.482427(15) 0.466882(4) 0.728135(12)
Au2 Au 0.977268(13) 0.467412(4) 0.737656(11)
C1 C 0.8877(4) 0.46771(12) 0.3216(4)
C2 C 0.5765(4) 0.46245(12) 0.3235(4)
C3 C 0.5776(4) 0.46481(11) 0.6353(5)
C4 C 0.8796(4) 0.47128(12) 0.6470(4)
C5 C 0.7588(4) 0.40617(13) 0.5710(4)
H1 H 0.7476 0.4172 0.6241
C6 C 0.7772(4) 0.37725(12) 0.5838(4)
C7 C 0.7958(4) 0.36083(11) 0.5067(4)
H2 H 0.8086 0.3413 0.5122
C8 C 0.7950(5) 0.37445(13) 0.4197(4)
H3 H 0.8072 0.3640 0.3657
C9 C 0.7760(4) 0.40348(14) 0.4139(4)
H4 H 0.7774 0.4123 0.3555
C10 C 0.7263(4) 0.52428(12) 0.3713(4)
H5 H 0.7305 0.5112 0.3220
C11 C 0.7299(4) 0.55367(12) 0.3520(4)
H6 H 0.7344 0.5601 0.2905
C12 C 0.7269(4) 0.57305(13) 0.4241(4)
H7 H 0.7314 0.5928 0.4128
C13 C 0.7169(4) 0.56270(12) 0.5139(3)
C14 C 0.7125(3) 0.53375(11) 0.5293(4)
H8 H 0.7061 0.5272 0.5904
C15 C 0.7781(4) 0.36476(14) 0.6798(4)
C16 C 0.7906(5) 0.32196(14) 0.7687(4)
H9 H 0.7355 0.3242 0.8006
H10 H 0.8358 0.3299 0.8081
C17 C 0.8078(4) 0.29099(12) 0.7489(5)
H11 H 0.7583 0.2826 0.7186
H12 H 0.8189 0.2810 0.8065
H13 H 0.8574 0.2894 0.7087
C18 C 0.7114(5) 0.58269(14) 0.5973(5)
C19 C 0.6950(6) 0.63338(18) 0.6409(6)
H14 H 0.6591 0.6490 0.6171
H15 H 0.6693 0.6259 0.6980
C20 C 0.7804(7) 0.6429(2) 0.6568(7)
H16 H 0.8156 0.6269 0.6757
H17 H 0.7803 0.6573 0.7053
H18 H 0.8033 0.6511 0.6003
N1 N 0.8347(3) 0.46805(10) 0.3764(3)
N2 N 0.6346(3) 0.46041(10) 0.3720(4)
N3 N 0.6332(3) 0.46431(10) 0.5820(4)
N4 N 0.8261(3) 0.47237(11) 0.5914(3)
N5 N 0.7558(2) 0.41943(8) 0.4886(3)
N6 N 0.7168(3) 0.51405(9) 0.4590(3)
O1 O 0.7674(4) 0.37887(9) 0.7499(3)
O2 O 0.7887(3) 0.33659(8) 0.6795(3)
O3 O 0.7136(5) 0.57535(11) 0.6765(3)
O4 O 0.7050(5) 0.60964(11) 0.5684(4)
Au1B Au 0.982427(15) 0.466882(4) 0.228135(12)
Au1D Au 0.517573(15) 0.533118(4) 0.728135(12)
Au2B Au 0.477268(13) 0.467412(4) 0.237656(11)
Au2D Au 1.022732(13) 0.532588(4) 0.737656(11)
C1B C 0.3877(4) 0.46771(12) 0.8216(4)
C2B C 1.0765(4) 0.46245(12) 0.8235(4)
loop_
_geom_bond_atom_site_label_1
_geom_bond_atom_site_label_2
_geom_bond_site_symmetry_1
_geom_bond_site_symmetry_2
Fe1 N1 1_555 1_555
Au1 C3 1_555 1_555
Au2 C4 1_555 1_555
C1 N1 1_555 1_555
C2 N2 1_555 1_555
C3 N3 1_555 1_555
C4 N4 1_555 1_555
C5 H1 1_555 1_555
C6 C5 1_555 1_555
C7 C6 1_555 1_555
H2 C7 1_555 1_555
C8 C7 1_555 1_555
H3 C8 1_555 1_555
C9 C8 1_555 1_555
H4 C9 1_555 1_555
C10 H5 1_555 1_555
C11 C10 1_555 1_555
H6 C11 1_555 1_555
C12 C11 1_555 1_555
H7 C12 1_555 1_555
C13 C12 1_555 1_555
C14 C13 1_555 1_555
H8 C14 1_555 1_555
C15 C6 1_555 1_555
C16 H9 1_555 1_555
H10 C16 1_555 1_555
C17 C16 1_555 1_555
H11 C17 1_555 1_555
H12 C17 1_555 1_555
H13 C17 1_555 1_555
C18 C13 1_555 1_555
C19 H14 1_555 1_555
H15 C19 1_555 1_555
C20 C19 1_555 1_555
H16 C20 1_555 1_555
H17 C20 1_555 1_555
H18 C20 1_555 1_555
N2 Fe1 1_555 1_555
N3 Fe1 1_555 1_555
N4 Fe1 1_555 1_555
N5 Fe1 1_555 1_555
N6 Fe1 1_555 1_555
O1 C15 1_555 1_555
O2 C15 1_555 1_555
O3 C18 1_555 1_555
O4 C18 1_555 1_555
Au1B C1 1_555 1_555
Au1D Au1 1_555 1_555
Au2B C2 1_555 1_555
Au2D Au2 1_555 1_555
C1B Au1 1_555 1_555
C2B Au2 1_555 1_555
C5 N5 1_555 1_555
C9 N5 1_555 1_555
C10 N6 1_555 1_555
C14 N6 1_555 1_555
C16 O2 1_555 1_555
C19 O4 1_555 1_555

#END
