
#######################################################################
#
#                 Cambridge Crystallographic Data Centre
#                                CCDC 
#
#######################################################################
#
# If this CIF has been generated from an entry in the Cambridge 
# Structural Database, then it will include bibliographic, chemical, 
# crystal, experimental, refinement or atomic coordinate data resulting 
# from the CCDC's data processing and validation procedures.
#
#######################################################################

data_YIXXUA
_symmetry_cell_setting           orthorhombic
_symmetry_space_group_name_H-M   'C c c a'
_symmetry_Int_Tables_number      68
_space_group_name_Hall           '-C 2b 2bc'
loop_
_symmetry_equiv_pos_site_id
_symmetry_equiv_pos_as_xyz
1 x,y,z
2 1/2-x,-y,z
3 -x,y,1/2-z
4 1/2+x,-y,1/2-z
5 1/2+x,1/2+y,z
6 -x,1/2-y,z
7 1/2-x,1/2+y,1/2-z
8 x,1/2-y,1/2-z
9 -x,-y,-z
10 1/2+x,y,-z
11 x,-y,1/2+z
12 1/2-x,y,1/2+z
13 1/2-x,1/2-y,-z
14 x,1/2+y,-z
15 1/2+x,1/2-y,1/2+z
16 -x,1/2+y,1/2+z
_cell_length_a                   13.177(8)
_cell_length_b                   15.668(8)
_cell_length_c                   28.949(15)
_cell_angle_alpha                90
_cell_angle_beta                 90
_cell_angle_gamma                90
_cell_volume                     5976.73
loop_
_atom_site_label
_atom_site_type_symbol
_atom_site_fract_x
_atom_site_fract_y
_atom_site_fract_z
Co1 Co 0.2500 1.0000 0.03616(2)
F1 F -0.21242(16) 1.14814(13) 0.22529(7)
F2 F -0.28618(17) 1.08955(15) 0.28319(7)
F3 F -0.12963(16) 1.06145(15) 0.26891(8)
O1 O 0.15027(18) 0.87733(16) 0.09880(9)
N1 N 0.23181(19) 0.90216(18) -0.00869(10)
O2 O 0.12466(17) 1.00999(15) 0.07202(9)
C1 C -0.2500 1.0000 0.21751(16)
C2 C 0.0123(2) 0.9585(2) 0.12927(11)
C3 C -0.2201(3) 1.0750(3) 0.24931(14)
C4 C -0.0540(2) 1.0263(2) 0.12218(12)
H1 H -0.0420 1.0648 0.0984
N2 N 0.1738(2) 0.78750(17) -0.04398(10)
C5 C 0.1034(2) 0.9462(2) 0.09829(12)
C6 C 0.1607(3) 0.8426(2) -0.00900(12)
H2 H 0.1081 0.8393 0.0124
C7 C 0.0946(3) 0.7120(2) -0.14130(12)
H3 H 0.1581 0.6862 -0.1414
C8 C -0.1563(2) 0.9811(2) 0.18684(12)
C9 C -0.0064(3) 0.9023(2) 0.16526(12)
H4 H 0.0371 0.8564 0.1700
C10 C -0.1380(2) 1.0365(2) 0.15040(12)
H5 H -0.1827 1.0812 0.1449
C11 C 0.0485(2) 0.7316(2) -0.09947(11)
C12 C -0.0892(2) 0.9139(2) 0.19435(12)
H6 H -0.0998 0.8766 0.2189
C13 C 0.0471(3) 0.7303(2) -0.18279(12)
H7 H 0.0783 0.7163 -0.2106
C14 C 0.2588(3) 0.8131(2) -0.06750(12)
H8 H 0.2872 0.7869 -0.0933
C15 C 0.1084(3) 0.7139(2) -0.05601(13)
H9 H 0.0620 0.7025 -0.0307
H10 H 0.1502 0.6637 -0.0605
C16 C 0.2933(3) 0.8838(2) -0.04584(13)
H11 H 0.3499 0.9152 -0.0547
F1A F -0.28758(16) 0.85186(13) 0.22529(7)
F2A F -0.21382(17) 0.91045(15) 0.28319(7)
F3A F -0.37037(16) 0.93855(15) 0.26891(8)
O1A O -0.65027(18) 1.12267(16) 0.09880(9)
O2A O -0.62466(17) 0.99001(15) 0.07202(9)
C2A C -0.5123(2) 1.0415(2) 0.12927(11)
C3A C -0.2799(3) 0.9250(3) 0.24931(14)
C4A C -0.4460(2) 0.9737(2) 0.12218(12)
H1A H -0.4580 0.9352 0.0984
C5A C -0.6034(2) 1.0538(2) 0.09829(12)
C8A C -0.3437(2) 1.0189(2) 0.18684(12)
C9A C -0.4936(3) 1.0977(2) 0.16526(12)
H4A H -0.5371 1.1436 0.1700
C10A C -0.3620(2) 0.9635(2) 0.15040(12)
H5A H -0.3173 0.9188 0.1449
C12A C -0.4108(2) 1.0861(2) 0.19435(12)
H6A H -0.4002 1.1234 0.2189
N1E N -0.23181(19) 0.59784(18) -0.00869(10)
N2E N -0.1738(2) 0.71250(17) -0.04398(10)
C6E C -0.1607(3) 0.6574(2) -0.00900(12)
H2E H -0.1081 0.6607 0.0124
C7E C -0.0946(3) 0.7880(2) -0.14130(12)
H3E H -0.1581 0.8138 -0.1414
C11E C -0.0485(2) 0.7684(2) -0.09947(11)
C13E C -0.0471(3) 0.7697(2) -0.18279(12)
H7E H -0.0783 0.7837 -0.2106
C14E C -0.2588(3) 0.6869(2) -0.06750(12)
H8E H -0.2872 0.7131 -0.0933
C15E C -0.1084(3) 0.7861(2) -0.05601(13)
H9E H -0.0620 0.7975 -0.0307
H10E H -0.1502 0.8363 -0.0605
C16E C -0.2933(3) 0.6162(2) -0.04584(13)
H11E H -0.3499 0.5848 -0.0547
Co1_2 Co -0.7500 1.0000 0.03616(2)
Co1D Co -0.2500 0.5000 0.03616(2)
N1A N 0.26819(19) 1.09784(18) -0.00869(10)
O2A_2 O 0.37534(17) 0.99001(15) 0.07202(9)
O3 O 0.5000 0.2500 0.06694(14)
loop_
_geom_bond_atom_site_label_1
_geom_bond_atom_site_label_2
_geom_bond_site_symmetry_1
_geom_bond_site_symmetry_2
Co1 N1 1_555 1_555
F1 C3 1_555 1_555
F2 C3 1_555 1_555
F3 C3 1_555 1_555
O1 C5 1_555 1_555
N1 C6 1_555 1_555
O2 Co1 1_555 1_555
C1 C3 1_555 1_555
C2 C4 1_555 1_555
C4 H1 1_555 1_555
N2 C6 1_555 1_555
C5 O2 1_555 1_555
C6 H2 1_555 1_555
C7 H3 1_555 1_555
C8 C1 1_555 1_555
C9 C2 1_555 1_555
H4 C9 1_555 1_555
C10 C4 1_555 1_555
H5 C10 1_555 1_555
C11 C7 1_555 1_555
C12 C8 1_555 1_555
H6 C12 1_555 1_555
C13 C7 1_555 1_555
H7 C13 1_555 1_555
C14 N2 1_555 1_555
H8 C14 1_555 1_555
C15 N2 1_555 1_555
H9 C15 1_555 1_555
H10 C15 1_555 1_555
C16 N1 1_555 1_555
H11 C16 1_555 1_555
F1A C3A 1_555 1_555
F2A C3A 1_555 1_555
F3A C3A 1_555 1_555
O1A C5A 1_555 1_555
O2A C5A 1_555 1_555
C2A C4A 1_555 1_555
C3A C1 1_555 1_555
C4A H1A 1_555 1_555
C5A C2A 1_555 1_555
C8A C1 1_555 1_555
C9A C2A 1_555 1_555
H4A C9A 1_555 1_555
C10A C4A 1_555 1_555
H5A C10A 1_555 1_555
C12A C8A 1_555 1_555
H6A C12A 1_555 1_555
N1E C6E 1_555 1_555
N2E C6E 1_555 1_555
C6E H2E 1_555 1_555
C7E H3E 1_555 1_555
C11E C11 1_555 1_555
C13E C13 1_555 1_555
H7E C13E 1_555 1_555
C14E N2E 1_555 1_555
H8E C14E 1_555 1_555
C15E N2E 1_555 1_555
H9E C15E 1_555 1_555
H10E C15E 1_555 1_555
C16E N1E 1_555 1_555
H11E C16E 1_555 1_555
Co1_2 O2A 1_555 1_555
Co1D N1E 1_555 1_555
N1A Co1 1_555 1_555
O2A_2 Co1 1_555 1_555
C2 C5 1_555 1_555
C8 C10 1_555 1_555
C9 C12 1_555 1_555
C11 C15 1_555 1_555
C14 C16 1_555 1_555
C8A C10A 1_555 1_555
C9A C12A 1_555 1_555
C7E C11E 1_555 1_555
C7E C13E 1_555 1_555
C11E C15E 1_555 1_555
C14E C16E 1_555 1_555

#END
