
#######################################################################
#
#                 Cambridge Crystallographic Data Centre
#                                CCDC 
#
#######################################################################
#
# If this CIF has been generated from an entry in the Cambridge 
# Structural Database, then it will include bibliographic, chemical, 
# crystal, experimental, refinement or atomic coordinate data resulting 
# from the CCDC's data processing and validation procedures.
#
#######################################################################

data_YIXYAH
_symmetry_cell_setting           monoclinic
_symmetry_space_group_name_H-M   'P 21/c'
_symmetry_Int_Tables_number      14
_space_group_name_Hall           '-P 2ybc'
loop_
_symmetry_equiv_pos_site_id
_symmetry_equiv_pos_as_xyz
1 x,y,z
2 -x,1/2+y,1/2-z
3 -x,-y,-z
4 x,1/2-y,1/2+z
_cell_length_a                   11.5867(3)
_cell_length_b                   12.6968(4)
_cell_length_c                   17.5141(5)
_cell_angle_alpha                90
_cell_angle_beta                 96.216(3)
_cell_angle_gamma                90
_cell_volume                     2561.42
loop_
_atom_site_label
_atom_site_type_symbol
_atom_site_fract_x
_atom_site_fract_y
_atom_site_fract_z
C1 C 0.6537(3) -0.4911(3) 0.50586(17)
H1 H 0.6685 -0.4855 0.4549
C2 C 1.0463(3) 0.5436(3) 0.33016(18)
H2 H 1.0769 0.5961 0.3672
H3 H 1.1013 0.4859 0.3313
C3 C 0.6192(3) -0.2996(3) 0.53209(19)
H4 H 0.5657 -0.2925 0.4858
H5 H 0.5862 -0.2622 0.5729
C4 C 0.9300(3) 0.5036(3) 0.35076(17)
C5 C 0.6168(3) -0.0972(2) 0.45945(18)
H6 H 0.5646 -0.1476 0.4322
H7 H 0.5834 -0.0771 0.5058
C6 C 0.6526(3) -0.5806(3) 0.54730(16)
H8 H 0.6676 -0.6478 0.5297
C7 C 0.8387(3) -0.2947(2) 0.54321(16)
H9 H 0.8403 -0.3592 0.5685
C8 C 0.8360(2) -0.1050(2) 0.46871(15)
H10 H 0.8355 -0.0410 0.4429
C9 C 0.9412(3) -0.2471(3) 0.53051(17)
H11 H 1.0115 -0.2791 0.5476
C10 C 0.8803(3) 0.4203(2) 0.29350(15)
H12 H 0.8063 0.3956 0.3077
H13 H 0.9327 0.3606 0.2948
C11 C 1.0298(3) 0.5916(3) 0.25047(18)
C12 C 0.9820(2) 0.5087(2) 0.19302(16)
H14 H 1.0367 0.4509 0.1931
H15 H 0.9728 0.5391 0.1419
C13 C 0.6562(3) 0.0954(2) 0.43439(16)
H16 H 0.6768 0.1182 0.4845
C14 C 0.9403(3) -0.1525(2) 0.49275(17)
H17 H 1.0097 -0.1207 0.4834
C15 C 0.6119(2) -0.4535(2) 0.62023(15)
H18 H 0.5926 -0.4153 0.6624
O1 O 0.54434(19) 0.77282(17) 0.23436(15)
C16 C 0.6534(3) 0.1535(2) 0.37044(16)
H19 H 0.6721 0.2246 0.3688
C17 C 0.8437(3) 0.5943(2) 0.35013(15)
H20 H 0.7704 0.5685 0.3647
H21 H 0.8731 0.6471 0.3873
C18 C 0.6185(3) 0.7224(2) 0.27607(18)
C19 C 0.7327(2) -0.2483(2) 0.51898(14)
C20 C 0.9430(2) 0.6819(2) 0.24911(18)
H22 H 0.9331 0.7129 0.1982
H23 H 0.9730 0.7359 0.2851
C21 C 0.8217(2) 0.3863(2) 0.14969(15)
H24 H 0.8079 0.4244 0.1015
H25 H 0.8851 0.3377 0.1447
C22 C 0.6010(2) -0.0018(2) 0.33470(15)
H26 H 0.5765 -0.0595 0.3045
C23 C 0.8637(2) 0.4664(2) 0.21245(14)
C24 C 0.8246(2) 0.6437(2) 0.27048(15)
O2 O 0.63176(18) 0.32264(19) 0.10854(12)
C25 C 0.7318(2) -0.1507(2) 0.48227(14)
N1 N 0.6293(2) -0.4108(2) 0.55248(13)
N2 N 0.6227(2) -0.00450(19) 0.41161(12)
C26 C 0.7146(2) 0.3215(2) 0.15860(16)
N3 N 0.62559(19) -0.55630(18) 0.61952(12)
N4 N 0.6186(2) 0.09199(17) 0.30754(12)
C27 C 0.7791(2) 0.5594(2) 0.21215(14)
H27 H 0.7683 0.5902 0.1612
H28 H 0.7043 0.5342 0.2245
O3 O 0.71803(17) 0.26071(16) 0.21589(12)
O4 O 0.58679(18) 0.65967(18) 0.32527(12)
Co1 Co 0.58677(3) 0.16223(3) 0.201572(18)
C28 C 0.7453(2) 0.7415(2) 0.26796(18)
H29 H 1.104(3) 0.620(2) 0.2359(16)
H30 H 0.935(2) 0.473(2) 0.3984(17)
O1A O 0.45566(19) 0.27282(17) 0.26564(15)
N3C N 0.62559(19) 0.05630(18) 0.11952(12)
O4A O 0.41321(18) 0.15967(18) 0.17473(12)
Co1A Co 0.41323(3) 0.66223(3) 0.298428(18)
Co1C Co 0.58677(3) -0.66223(3) 0.701572(18)
loop_
_geom_bond_atom_site_label_1
_geom_bond_atom_site_label_2
_geom_bond_site_symmetry_1
_geom_bond_site_symmetry_2
C1 H1 1_555 1_555
C2 H2 1_555 1_555
H3 C2 1_555 1_555
C3 H4 1_555 1_555
H5 C3 1_555 1_555
C4 C2 1_555 1_555
C5 H6 1_555 1_555
H7 C5 1_555 1_555
C6 C1 1_555 1_555
H8 C6 1_555 1_555
C7 H9 1_555 1_555
C8 H10 1_555 1_555
C9 C7 1_555 1_555
H11 C9 1_555 1_555
C10 C4 1_555 1_555
H12 C10 1_555 1_555
H13 C10 1_555 1_555
C11 C2 1_555 1_555
C12 C11 1_555 1_555
H14 C12 1_555 1_555
H15 C12 1_555 1_555
C13 H16 1_555 1_555
C14 C8 1_555 1_555
H17 C14 1_555 1_555
C15 H18 1_555 1_555
O1 C18 1_555 1_555
C16 C13 1_555 1_555
H19 C16 1_555 1_555
C17 C4 1_555 1_555
H20 C17 1_555 1_555
H21 C17 1_555 1_555
C18 O4 1_555 1_555
C19 C3 1_555 1_555
C20 C11 1_555 1_555
H22 C20 1_555 1_555
H23 C20 1_555 1_555
C21 H24 1_555 1_555
H25 C21 1_555 1_555
C22 H26 1_555 1_555
C23 C10 1_555 1_555
C24 C17 1_555 1_555
O2 C26 1_555 1_555
C25 C5 1_555 1_555
N1 C1 1_555 1_555
N2 C5 1_555 1_555
C26 C21 1_555 1_555
N3 C6 1_555 1_555
N4 C16 1_555 1_555
C27 C23 1_555 1_555
H27 C27 1_555 1_555
H28 C27 1_555 1_555
O3 C26 1_555 1_555
O4 Co1A 1_555 1_555
Co1 N4 1_555 1_555
C28 C18 1_555 1_555
H29 C11 1_555 1_555
H30 C4 1_555 1_555
O1A Co1 1_555 1_555
N3C Co1 1_555 1_555
O4A Co1 1_555 1_555
Co1A O1 1_555 1_555
Co1C N3 1_555 1_555
C3 N1 1_555 1_555
C7 C19 1_555 1_555
C8 C25 1_555 1_555
C9 C14 1_555 1_555
C12 C23 1_555 1_555
C13 N2 1_555 1_555
C15 N1 1_555 1_555
C15 N3 1_555 1_555
C19 C25 1_555 1_555
C20 C24 1_555 1_555
C21 C23 1_555 1_555
C22 N2 1_555 1_555
C22 N4 1_555 1_555
C24 C27 1_555 1_555
C24 C28 1_555 1_555
O3 Co1 1_555 1_555

#END
