
#######################################################################
#
#                 Cambridge Crystallographic Data Centre
#                                CCDC 
#
#######################################################################
#
# If this CIF has been generated from an entry in the Cambridge 
# Structural Database, then it will include bibliographic, chemical, 
# crystal, experimental, refinement or atomic coordinate data resulting 
# from the CCDC's data processing and validation procedures.
#
#######################################################################

data_YIXYIP
_symmetry_cell_setting           triclinic
_symmetry_space_group_name_H-M   'P -1'
_symmetry_Int_Tables_number      2
_space_group_name_Hall           '-P 1'
loop_
_symmetry_equiv_pos_site_id
_symmetry_equiv_pos_as_xyz
1 x,y,z
2 -x,-y,-z
_cell_length_a                   9.3717(8)
_cell_length_b                   10.1843(9)
_cell_length_c                   11.7377(11)
_cell_angle_alpha                112.9560(10)
_cell_angle_beta                 108.3580(10)
_cell_angle_gamma                90.6960(10)
_cell_volume                     967.324
loop_
_atom_site_label
_atom_site_type_symbol
_atom_site_fract_x
_atom_site_fract_y
_atom_site_fract_z
Co1 Co 0.83127(3) 0.32521(3) 0.36168(3)
O1 O 0.65533(19) 0.44365(19) 0.33507(18)
O2 O 0.5683(2) 0.2514(2) 0.3432(2)
O3 O 0.16357(19) -0.11447(17) -0.32535(17)
O4 O -0.0759(2) -0.15824(19) -0.34927(18)
N1 N 0.7785(2) 0.2594(2) 0.14742(18)
N2 N 0.9813(2) 0.47294(18) 0.35245(17)
N3 N 1.0892(2) 0.58818(19) 0.43279(17)
N4 N 1.1296(2) 0.6446(2) 0.36195(18)
N5 N 1.0494(2) 0.5685(2) 0.23375(18)
N6 N 0.7016(3) 0.2327(3) -0.1094(2)
C1 C 0.6741(3) 0.1522(3) 0.0471(2)
H1 H 0.6262 0.0846 0.0637
C2 C 0.6358(3) 0.1396(3) -0.0804(2)
H2 H 0.5620 0.0640 -0.1479
C3 C 0.8459(3) 0.3512(2) 0.1180(2)
C4 C 0.9602(2) 0.4649(2) 0.2320(2)
C5 C 0.5463(3) 0.3642(3) 0.3282(2)
C6 C 0.3883(3) 0.4044(3) 0.2939(2)
H3 H 0.3955 0.5071 0.3158
H4 H 0.3352 0.3833 0.3450
C7 C 0.3001(3) 0.3201(2) 0.1479(2)
C8 C 0.3365(3) 0.3478(3) 0.0537(3)
H5 H 0.4181 0.4188 0.0802
C9 C 0.1784(3) 0.2136(3) 0.1043(3)
H6 H 0.1513 0.1916 0.1652
C10 C 0.0965(3) 0.1392(3) -0.0289(3)
H7 H 0.0150 0.0680 -0.0556
C11 C 0.0397(3) -0.0722(2) -0.3179(2)
C12 C 0.0356(3) 0.0882(2) -0.2676(2)
H8 H -0.0687 0.1050 -0.2798
H9 H 0.0724 0.1265 -0.3188
C13 C 0.1322(3) 0.1676(2) -0.1228(2)
C14 C 0.2546(3) 0.2724(3) -0.0796(3)
H10 H 0.2827 0.2930 -0.1408
C15 C 0.8089(3) 0.3377(3) -0.0106(2)
H11 H 0.8596 0.4027 -0.0279
Co1A Co 0.16873(3) -0.32521(3) -0.36168(3)
Co1A_2 Co 1.16873(3) 0.67479(3) 0.63832(3)
O3A O 0.83643(19) 0.11447(17) 0.32535(17)
N3A N 0.9108(2) 0.41182(19) 0.56721(17)
Co2 Co 0.5000 0.0000 0.5000
O5 O 0.63061(19) -0.08442(18) 0.62715(16)
H12 H 0.5894 -0.1361 0.6419
H13 H 0.7064 -0.1063 0.6369
O6 O 0.6449(2) -0.03857(19) 0.39020(19)
H14 H 0.6889 0.0090 0.3713
H15 H 0.6818 -0.1153 0.3736
O7 O 0.61434(19) 0.20380(17) 0.62945(15)
H16 H 0.6818 0.2361 0.6160
H17 H 0.6531 0.2104 0.7200
O5A O 0.36939(19) 0.08442(18) 0.37285(16)
H12A H 0.4106 0.1361 0.3581
H13A H 0.2936 0.1063 0.3631
O6A O 0.3551(2) 0.03857(19) 0.60980(19)
H14A H 0.3111 -0.0090 0.6287
H15A H 0.3182 0.1153 0.6264
O7A O 0.38566(19) -0.20380(17) 0.37055(15)
H16A H 0.3182 -0.2361 0.3840
H17A H 0.3469 -0.2104 0.2800
O8 O 0.2391(2) 0.28304(19) 0.62468(19)
H18 H 0.2920 0.3662 0.6457
H19 H 0.1841 0.2694 0.5508
loop_
_geom_bond_atom_site_label_1
_geom_bond_atom_site_label_2
_geom_bond_site_symmetry_1
_geom_bond_site_symmetry_2
Co1 O1 1_555 1_555
O1 C5 1_555 1_555
O2 C5 1_555 1_555
O3 C11 1_555 1_555
O4 C11 1_555 1_555
N1 Co1 1_555 1_555
N2 Co1 1_555 1_555
N3 N2 1_555 1_555
N4 N3 1_555 1_555
N5 N4 1_555 1_555
N6 C2 1_555 1_555
C1 N1 1_555 1_555
H1 C1 1_555 1_555
C2 C1 1_555 1_555
H2 C2 1_555 1_555
C3 N1 1_555 1_555
C4 N2 1_555 1_555
C5 C6 1_555 1_555
C6 H3 1_555 1_555
H4 C6 1_555 1_555
C7 C6 1_555 1_555
C8 C7 1_555 1_555
H5 C8 1_555 1_555
C9 C7 1_555 1_555
H6 C9 1_555 1_555
C10 C9 1_555 1_555
H7 C10 1_555 1_555
C11 C12 1_555 1_555
C12 H8 1_555 1_555
H9 C12 1_555 1_555
C13 C10 1_555 1_555
C14 C8 1_555 1_555
H10 C14 1_555 1_555
C15 N6 1_555 1_555
H11 C15 1_555 1_555
Co2 O5 1_555 1_555
O5 H12 1_555 1_555
H13 O5 1_555 1_555
O6 Co2 1_555 1_555
H14 O6 1_555 1_555
H15 O6 1_555 1_555
O7 Co2 1_555 1_555
H16 O7 1_555 1_555
H17 O7 1_555 1_555
O8 H18 1_555 1_555
H19 O8 1_555 1_555
Co1A O3 1_555 1_555
Co1A_2 N3 1_555 1_555
O3A Co1 1_555 1_555
N3A Co1 1_555 1_555
O5A Co2 1_555 1_555
H12A O5A 1_555 1_555
H13A O5A 1_555 1_555
O6A Co2 1_555 1_555
H14A O6A 1_555 1_555
H15A O6A 1_555 1_555
O7A Co2 1_555 1_555
H16A O7A 1_555 1_555
H17A O7A 1_555 1_555
N5 C4 1_555 1_555
C3 C4 1_555 1_555
C3 C15 1_555 1_555
C12 C13 1_555 1_555
C13 C14 1_555 1_555

#END
