
#######################################################################
#
#                 Cambridge Crystallographic Data Centre
#                                CCDC 
#
#######################################################################
#
# If this CIF has been generated from an entry in the Cambridge 
# Structural Database, then it will include bibliographic, chemical, 
# crystal, experimental, refinement or atomic coordinate data resulting 
# from the CCDC's data processing and validation procedures.
#
#######################################################################

data_YIXYOT
_symmetry_cell_setting           triclinic
_symmetry_space_group_name_H-M   'P -1'
_symmetry_Int_Tables_number      2
_space_group_name_Hall           '-P 1'
loop_
_symmetry_equiv_pos_site_id
_symmetry_equiv_pos_as_xyz
1 x,y,z
2 -x,-y,-z
_cell_length_a                   8.910(6)
_cell_length_b                   13.677(9)
_cell_length_c                   14.888(10)
_cell_angle_alpha                65.69(4)
_cell_angle_beta                 78.31(4)
_cell_angle_gamma                80.27(3)
_cell_volume                     1611.65
loop_
_atom_site_label
_atom_site_type_symbol
_atom_site_fract_x
_atom_site_fract_y
_atom_site_fract_z
O1 O 0.2947(3) 0.3754(2) 0.1930(2)
O2 O 0.1829(3) 0.1876(2) 0.3448(2)
C1 C 0.1693(5) 0.3303(4) 0.1832(3)
C2 C 0.1807(5) 0.2111(4) 0.2412(3)
C3 C 0.3073(5) 0.2351(3) 0.3547(3)
C4 C 0.2962(5) 0.3527(3) 0.2955(3)
Li1 Li 0.4079(7) 0.4740(5) 0.0752(4)
N1 N 0.3720(3) 0.4896(2) -0.0544(2)
C5 C 0.3808(5) 0.3915(3) -0.0732(3)
C6 C 0.4813(4) 0.3953(3) -0.1692(3)
C7 C 0.4231(5) 0.4321(3) -0.2582(3)
C8 C 0.5175(5) 0.4395(3) -0.3463(3)
C9 C 0.6731(6) 0.4080(4) -0.3464(4)
C10 C 0.7331(5) 0.3702(4) -0.2586(4)
C11 C 0.6380(5) 0.3650(3) -0.1711(3)
C12 C 0.2711(5) 0.5733(3) -0.1161(3)
C13 C 0.2261(5) 0.6650(3) -0.0825(3)
C14 C 0.0967(5) 0.6640(4) -0.0139(4)
C15 C 0.0512(7) 0.7478(6) 0.0185(5)
C16 C 0.1398(9) 0.8330(15) -0.0187(5)
C17 C 0.2713(8) 0.8357(4) -0.0859(4)
C18 C 0.3135(6) 0.7514(4) -0.1185(3)
Li2 Li 0.0618(8) 0.0784(5) 0.4457(4)
N2 N 0.0531(3) 0.0071(2) 0.5921(2)
C19 C 0.2022(5) -0.0411(3) 0.6239(3)
C20 C 0.2804(5) -0.1106(3) 0.5699(3)
C21 C 0.3724(5) -0.0687(4) 0.4787(3)
C22 C 0.4427(5) -0.1339(5) 0.4281(4)
C23 C 0.4207(7) -0.2410(5) 0.4694(6)
C24 C 0.3284(7) -0.2824(4) 0.5585(6)
C25 C 0.2592(5) -0.2183(4) 0.6079(4)
C26 C -0.0313(5) 0.0616(3) 0.6560(3)
C27 C 0.0359(4) 0.1613(3) 0.6445(3)
C28 C 0.1165(5) 0.1637(4) 0.7138(3)
C29 C 0.1798(5) 0.2564(4) 0.6991(4)
C30 C 0.1631(6) 0.3478(4) 0.6161(4)
C31 C 0.0836(6) 0.3481(4) 0.5463(4)
C32 C 0.0214(5) 0.2558(3) 0.5603(3)
H1 H 0.1699(5) 0.3459(4) 0.1120(3)
H2 H 0.0711(5) 0.3636(4) 0.2078(3)
H3 H 0.0916(5) 0.1809(4) 0.2350(3)
H4 H 0.2758(5) 0.1771(4) 0.2141(3)
H5 H 0.4067(5) 0.2016(3) 0.3317(3)
H6 H 0.3046(5) 0.2211(3) 0.4257(3)
H7 H 0.2009(5) 0.3871(3) 0.3220(3)
H8 H 0.3850(5) 0.3833(3) 0.3015(3)
H9 H 0.2755(5) 0.3786(3) -0.0748(3)
H10 H 0.4210(5) 0.3296(3) -0.0170(3)
H11 H 0.3159(5) 0.4527(3) -0.2586(3)
H12 H 0.4753(5) 0.4663(3) -0.4067(3)
H13 H 0.7383(6) 0.4124(4) -0.4066(4)
H14 H 0.8399(5) 0.3477(4) -0.2581(4)
H15 H 0.6810(5) 0.3401(3) -0.1112(3)
H16 H 0.1771(5) 0.5424(3) -0.1142(3)
H17 H 0.3234(5) 0.6008(3) -0.1859(3)
H18 H 0.0369(5) 0.6044(4) 0.0121(4)
H19 H -0.0392(7) 0.7463(6) 0.0653(5)
H20 H 0.1095(9) 0.8910(5) 0.0026(5)
H21 H 0.3328(8) 0.8943(4) -0.1099(4)
H22 H 0.4032(6) 0.7534(4) -0.1660(3)
H23 H 0.1877(5) -0.0847(3) 0.6965(3)
H24 H 0.2676(5) 0.0166(3) 0.6106(3)
H25 H 0.3877(5) 0.0057(4) 0.4503(3)
H26 H 0.5055(5) -0.1043(5) 0.3654(4)
H27 H 0.4699(7) -0.2865(5) 0.4360(6)
H28 H 0.3120(7) -0.3566(4) 0.5864(6)
H29 H 0.1951(5) -0.2487(4) 0.6700(4)
H30 H -0.0352(5) 0.0100(3) 0.7263(3)
H31 H -0.1385(5) 0.0822(3) 0.6415(3)
H32 H 0.1288(5) 0.1008(4) 0.7725(3)
H33 H 0.2353(5) 0.2559(4) 0.7475(4)
H34 H 0.2063(6) 0.4109(4) 0.6066(4)
H35 H 0.0712(6) 0.4116(4) 0.4882(4)
H36 H -0.0327(5) 0.2570(3) 0.5110(3)
N1A N 0.6280(3) 0.5104(2) 0.0544(2)
Li1A Li 0.5921(7) 0.5260(5) -0.0752(4)
N2A N -0.0531(3) -0.0071(2) 0.4079(2)
Li2A Li -0.0618(8) -0.0784(5) 0.5543(4)
C5A C 0.6192(5) 0.6085(3) 0.0732(3)
C12A C 0.7289(5) 0.4267(3) 0.1161(3)
O1A O 0.7053(3) 0.6246(2) -0.1930(2)
C19A C -0.2022(5) 0.0411(3) 0.3761(3)
C26A C 0.0313(5) -0.0616(3) 0.3440(3)
O2A O -0.1829(3) -0.1876(2) 0.6552(2)
C6A C 0.5187(4) 0.6047(3) 0.1692(3)
H9A H 0.7245(5) 0.6214(3) 0.0748(3)
H10A H 0.5790(5) 0.6704(3) 0.0170(3)
C13A C 0.7739(5) 0.3350(3) 0.0825(3)
H16A H 0.8229(5) 0.4576(3) 0.1142(3)
H17A H 0.6766(5) 0.3992(3) 0.1859(3)
C1A C 0.8307(5) 0.6697(4) -0.1832(3)
C4A C 0.7038(5) 0.6473(3) -0.2955(3)
C20A C -0.2804(5) 0.1106(3) 0.4301(3)
H23A H -0.1877(5) 0.0847(3) 0.3035(3)
H24A H -0.2676(5) -0.0166(3) 0.3894(3)
C27A C -0.0359(4) -0.1613(3) 0.3555(3)
H30A H 0.0352(5) -0.0100(3) 0.2737(3)
H31A H 0.1385(5) -0.0822(3) 0.3585(3)
C7A C 0.5769(5) 0.5679(3) 0.2582(3)
C11A C 0.3620(5) 0.6350(3) 0.1711(3)
C14A C 0.9033(5) 0.3360(4) 0.0139(4)
C18A C 0.6865(6) 0.2486(4) 0.1185(3)
C2A C 0.8193(5) 0.7889(4) -0.2412(3)
H1A H 0.8301(5) 0.6541(4) -0.1120(3)
H2A H 0.9289(5) 0.6364(4) -0.2078(3)
C3A C 0.6927(5) 0.7649(3) -0.3547(3)
H7A H 0.7991(5) 0.6129(3) -0.3220(3)
H8A H 0.6150(5) 0.6167(3) -0.3015(3)
C21A C -0.3724(5) 0.0687(4) 0.5213(3)
C25A C -0.2592(5) 0.2183(4) 0.3921(4)
C28A C -0.1165(5) -0.1637(4) 0.2862(3)
C32A C -0.0214(5) -0.2558(3) 0.4397(3)
C8A C 0.4825(5) 0.5605(3) 0.3463(3)
H11A H 0.6841(5) 0.5473(3) 0.2586(3)
C10A C 0.2669(5) 0.6298(4) 0.2586(4)
H15A H 0.3190(5) 0.6599(3) 0.1112(3)
C15A C 0.9488(7) 0.2522(6) -0.0185(5)
H18A H 0.9631(5) 0.3956(4) -0.0121(4)
C17A C 0.7287(8) 0.1643(4) 0.0859(4)
H22A H 0.5968(6) 0.2466(4) 0.1660(3)
C22A C -0.4427(5) 0.1339(5) 0.5719(4)
H25A H -0.3877(5) -0.0057(4) 0.5497(3)
C24A C -0.3284(7) 0.2824(4) 0.4415(6)
H29A H -0.1951(5) 0.2487(4) 0.3300(4)
C29A C -0.1798(5) -0.2564(4) 0.3009(4)
H32A H -0.1288(5) -0.1008(4) 0.2275(3)
C31A C -0.0836(6) -0.3481(4) 0.4537(4)
H36A H 0.0327(5) -0.2570(3) 0.4890(3)
C9A C 0.3269(6) 0.5920(4) 0.3464(4)
H12A H 0.5247(5) 0.5337(3) 0.4067(3)
H14A H 0.1601(5) 0.6523(4) 0.2581(4)
C16A C 0.8602(9) 0.1670(15) 0.0187(5)
H19A H 1.0392(7) 0.2537(6) -0.0653(5)
H21A H 0.6672(8) 0.1057(4) 0.1099(4)
C23A C -0.4207(7) 0.2410(5) 0.5306(6)
H26A H -0.5055(5) 0.1043(5) 0.6346(4)
H28A H -0.3120(7) 0.3566(4) 0.4136(6)
C30A C -0.1631(6) -0.3478(4) 0.3839(4)
H33A H -0.2353(5) -0.2559(4) 0.2525(4)
H35A H -0.0712(6) -0.4116(4) 0.5118(4)
H13A H 0.2617(6) 0.5876(4) 0.4066(4)
H20A H 0.8905(9) 0.1090(5) -0.0026(5)
H27A H -0.4699(7) 0.2865(5) 0.5640(6)
H34A H -0.2063(6) -0.4109(4) 0.3934(4)
O2A_2 O 0.8171(3) 0.8124(2) -0.3448(2)
H3A H 0.9084(5) 0.8191(4) -0.2350(3)
H4A H 0.7242(5) 0.8229(4) -0.2141(3)
H5A H 0.5933(5) 0.7984(3) -0.3317(3)
H6A H 0.6954(5) 0.7789(3) -0.4257(3)
Li2A_2 Li 0.9382(8) 0.9216(5) -0.4457(4)
loop_
_geom_bond_atom_site_label_1
_geom_bond_atom_site_label_2
_geom_bond_site_symmetry_1
_geom_bond_site_symmetry_2
O1 C1 1_555 1_555
O2 C2 1_555 1_555
C1 C2 1_555 1_555
C2 H3 1_555 1_555
C3 O2 1_555 1_555
C4 O1 1_555 1_555
Li1 O1 1_555 1_555
N1 Li1 1_555 1_555
C5 N1 1_555 1_555
C6 C5 1_555 1_555
C7 C6 1_555 1_555
C8 C7 1_555 1_555
C9 C8 1_555 1_555
C10 C9 1_555 1_555
C11 C6 1_555 1_555
C12 N1 1_555 1_555
C13 C12 1_555 1_555
C14 C13 1_555 1_555
C15 C14 1_555 1_555
C16 C15 1_555 1_555
C17 C16 1_555 1_555
C18 C13 1_555 1_555
Li2 O2 1_555 1_555
N2 Li2 1_555 1_555
C19 N2 1_555 1_555
C20 C19 1_555 1_555
C21 C20 1_555 1_555
C22 C21 1_555 1_555
C23 C22 1_555 1_555
C24 C23 1_555 1_555
C25 C20 1_555 1_555
C26 N2 1_555 1_555
C27 C26 1_555 1_555
C28 C27 1_555 1_555
C29 C28 1_555 1_555
C30 C29 1_555 1_555
C31 C30 1_555 1_555
C32 C27 1_555 1_555
H1 C1 1_555 1_555
H2 C1 1_555 1_555
H4 C2 1_555 1_555
H5 C3 1_555 1_555
H6 C3 1_555 1_555
H7 C4 1_555 1_555
H8 C4 1_555 1_555
H9 C5 1_555 1_555
H10 C5 1_555 1_555
H11 C7 1_555 1_555
H12 C8 1_555 1_555
H13 C9 1_555 1_555
H14 C10 1_555 1_555
H15 C11 1_555 1_555
H16 C12 1_555 1_555
H17 C12 1_555 1_555
H18 C14 1_555 1_555
H19 C15 1_555 1_555
H20 C16 1_555 1_555
H21 C17 1_555 1_555
H22 C18 1_555 1_555
H23 C19 1_555 1_555
H24 C19 1_555 1_555
H25 C21 1_555 1_555
H26 C22 1_555 1_555
H27 C23 1_555 1_555
H28 C24 1_555 1_555
H29 C25 1_555 1_555
H30 C26 1_555 1_555
H31 C26 1_555 1_555
H32 C28 1_555 1_555
H33 C29 1_555 1_555
H34 C30 1_555 1_555
H35 C31 1_555 1_555
H36 C32 1_555 1_555
N1A Li1 1_555 1_555
Li1A N1 1_555 1_555
N2A Li2 1_555 1_555
Li2A N2 1_555 1_555
C5A N1A 1_555 1_555
C12A N1A 1_555 1_555
O1A Li1A 1_555 1_555
C19A N2A 1_555 1_555
C26A N2A 1_555 1_555
O2A Li2A 1_555 1_555
C6A C5A 1_555 1_555
H9A C5A 1_555 1_555
H10A C5A 1_555 1_555
C13A C12A 1_555 1_555
H16A C12A 1_555 1_555
H17A C12A 1_555 1_555
C1A O1A 1_555 1_555
C4A O1A 1_555 1_555
C20A C19A 1_555 1_555
H23A C19A 1_555 1_555
H24A C19A 1_555 1_555
C27A C26A 1_555 1_555
H30A C26A 1_555 1_555
H31A C26A 1_555 1_555
C7A C6A 1_555 1_555
C11A C6A 1_555 1_555
C14A C13A 1_555 1_555
C18A C13A 1_555 1_555
C2A C1A 1_555 1_555
H1A C1A 1_555 1_555
H2A C1A 1_555 1_555
C3A C4A 1_555 1_555
H7A C4A 1_555 1_555
H8A C4A 1_555 1_555
C21A C20A 1_555 1_555
C25A C20A 1_555 1_555
C28A C27A 1_555 1_555
C32A C27A 1_555 1_555
C8A C7A 1_555 1_555
H11A C7A 1_555 1_555
C10A C11A 1_555 1_555
H15A C11A 1_555 1_555
C15A C14A 1_555 1_555
H18A C14A 1_555 1_555
C17A C18A 1_555 1_555
H22A C18A 1_555 1_555
C22A C21A 1_555 1_555
H25A C21A 1_555 1_555
C24A C25A 1_555 1_555
H29A C25A 1_555 1_555
C29A C28A 1_555 1_555
H32A C28A 1_555 1_555
C31A C32A 1_555 1_555
H36A C32A 1_555 1_555
C9A C8A 1_555 1_555
H12A C8A 1_555 1_555
H14A C10A 1_555 1_555
C16A C15A 1_555 1_555
H19A C15A 1_555 1_555
H21A C17A 1_555 1_555
C23A C22A 1_555 1_555
H26A C22A 1_555 1_555
H28A C24A 1_555 1_555
C30A C29A 1_555 1_555
H33A C29A 1_555 1_555
H35A C31A 1_555 1_555
H13A C9A 1_555 1_555
H20A C16A 1_555 1_555
H27A C23A 1_555 1_555
H34A C30A 1_555 1_555
O2A_2 C2A 1_555 1_555
H3A C2A 1_555 1_555
H4A C2A 1_555 1_555
H5A C3A 1_555 1_555
H6A C3A 1_555 1_555
Li2A_2 O2A_2 1_555 1_555
C3 C4 1_555 1_555
C10 C11 1_555 1_555
C17 C18 1_555 1_555
C24 C25 1_555 1_555
C31 C32 1_555 1_555
N1A Li1A 1_555 1_555
N2A Li2A 1_555 1_555
C3A O2A_2 1_555 1_555
C10A C9A 1_555 1_555
C17A C16A 1_555 1_555
C24A C23A 1_555 1_555
C31A C30A 1_555 1_555

#END
