
#######################################################################
#
#                 Cambridge Crystallographic Data Centre
#                                CCDC 
#
#######################################################################
#
# If this CIF has been generated from an entry in the Cambridge 
# Structural Database, then it will include bibliographic, chemical, 
# crystal, experimental, refinement or atomic coordinate data resulting 
# from the CCDC's data processing and validation procedures.
#
#######################################################################

data_YIXYOV
_symmetry_cell_setting           monoclinic
_symmetry_space_group_name_H-M   'P 21/n'
_symmetry_Int_Tables_number      14
_space_group_name_Hall           '-P 2yn'
loop_
_symmetry_equiv_pos_site_id
_symmetry_equiv_pos_as_xyz
1 x,y,z
2 1/2-x,1/2+y,1/2-z
3 -x,-y,-z
4 1/2+x,1/2-y,1/2+z
_cell_length_a                   8.9732(4)
_cell_length_b                   20.4712(9)
_cell_length_c                   10.4084(5)
_cell_angle_alpha                90
_cell_angle_beta                 102.998(5)
_cell_angle_gamma                90
_cell_volume                     1862.95
loop_
_atom_site_label
_atom_site_type_symbol
_atom_site_fract_x
_atom_site_fract_y
_atom_site_fract_z
Co1 Co -0.15185(6) 0.15328(3) 0.31825(6)
Co2 Co -0.36779(7) 0.26718(3) 0.10106(6)
O1 O -0.2818(4) 0.18091(15) 0.1524(3)
N1 N -0.2834(4) 0.55302(17) 0.2209(4)
C1 C -0.1446(5) 0.3580(2) 0.3294(4)
O2 O 0.0662(4) 0.12726(16) 0.3326(4)
C2 C -0.1938(5) 0.4244(2) 0.2881(4)
C3 C -0.1415(5) 0.5382(2) 0.2893(5)
H1 H -0.0723 0.5722 0.3142
C4 C -0.0935(5) 0.4758(2) 0.3241(5)
H2 H 0.0058 0.4682 0.3717
C5 C 0.2970(5) -0.0275(2) 0.3331(5)
H3 H 0.3371 -0.0335 0.4229
C6 C -0.3400(5) 0.4387(2) 0.2148(5)
H4 H -0.4100 0.4054 0.1860
C7 C 0.1956(5) -0.0723(3) 0.1192(5)
H5 H 0.1651 -0.1078 0.0638
C8 C 0.2794(5) 0.0353(2) 0.2837(5)
C9 C 0.1796(5) -0.0095(3) 0.0680(5)
H6 H 0.1405 -0.0033 -0.0218
C10 C 0.2212(5) 0.0439(3) 0.1490(5)
H7 H 0.2103 0.0858 0.1135
C11 C 0.1968(5) 0.1347(2) 0.4016(5)
C12 C -0.3795(6) 0.5030(2) 0.1855(5)
H8 H -0.4783 0.5121 0.1385
C13 C 0.3254(5) 0.0937(3) 0.3728(6)
H9 H 0.3870 0.0782 0.4560
H10 H 0.3899 0.1216 0.3331
C14 C 0.2567(5) -0.0827(2) 0.2526(5)
N2 N -0.0148(4) 0.28218(17) 0.4399(4)
N3 N -0.2040(4) 0.30194(17) 0.2747(3)
N4 N -0.1197(4) 0.25504(17) 0.3466(3)
N5 N -0.0266(4) 0.34693(16) 0.4323(4)
O3 O 0.2346(4) 0.17289(18) 0.4972(3)
C15 C 0.1715(6) -0.1664(2) 0.3947(5)
C16 C 0.2819(6) -0.1511(2) 0.3072(5)
H11 H 0.3862 -0.1553 0.3580
H12 H 0.2671 -0.1821 0.2350
O4 O 0.0504(4) -0.19608(18) 0.3433(4)
O5 O 0.2081(5) -0.14466(18) 0.5083(4)
Co1A Co -0.34815(6) 0.65328(3) 0.18175(6)
Co1B Co 0.15185(6) -0.15328(3) 0.68175(6)
Co2A Co -0.13221(7) -0.23282(3) 0.39894(6)
Co2C Co 0.13221(7) 0.23282(3) 0.60106(6)
N1A N -0.2166(4) 0.05302(17) 0.2791(4)
N2C N -0.5148(4) 0.21782(17) -0.0601(4)
O3C O -0.2654(4) 0.32711(18) -0.0028(3)
O4A O -0.5504(4) 0.30392(18) 0.1567(4)
O5B O -0.2081(5) 0.14466(18) 0.4917(4)
loop_
_geom_bond_atom_site_label_1
_geom_bond_atom_site_label_2
_geom_bond_site_symmetry_1
_geom_bond_site_symmetry_2
Co1 O1 1_555 1_555
Co2 O1 1_555 1_555
N1 C3 1_555 1_555
C1 C2 1_555 1_555
O2 Co1 1_555 1_555
C2 C4 1_555 1_555
C3 H1 1_555 1_555
C4 C3 1_555 1_555
H2 C4 1_555 1_555
C5 H3 1_555 1_555
C6 C2 1_555 1_555
H4 C6 1_555 1_555
C7 H5 1_555 1_555
C8 C5 1_555 1_555
C9 C7 1_555 1_555
H6 C9 1_555 1_555
C10 C8 1_555 1_555
H7 C10 1_555 1_555
C11 O2 1_555 1_555
C12 N1 1_555 1_555
H8 C12 1_555 1_555
C13 C8 1_555 1_555
H9 C13 1_555 1_555
H10 C13 1_555 1_555
C14 C5 1_555 1_555
N2 N4 1_555 1_555
N3 Co2 1_555 1_555
N4 Co1 1_555 1_555
N5 C1 1_555 1_555
O3 C11 1_555 1_555
C15 C16 1_555 1_555
C16 C14 1_555 1_555
H11 C16 1_555 1_555
H12 C16 1_555 1_555
O4 C15 1_555 1_555
O5 C15 1_555 1_555
Co1A N1 1_555 1_555
Co1B O5 1_555 1_555
Co2A O4 1_555 1_555
Co2C N2 1_555 1_555
N1A Co1 1_555 1_555
N2C Co2 1_555 1_555
O3C Co2 1_555 1_555
O4A Co2 1_555 1_555
O5B Co1 1_555 1_555
C1 N3 1_555 1_555
C6 C12 1_555 1_555
C7 C14 1_555 1_555
C9 C10 1_555 1_555
C11 C13 1_555 1_555
N2 N5 1_555 1_555
N3 N4 1_555 1_555
O3 Co2C 1_555 1_555

#END
