
#######################################################################
#
#                 Cambridge Crystallographic Data Centre
#                                CCDC 
#
#######################################################################
#
# If this CIF has been generated from an entry in the Cambridge 
# Structural Database, then it will include bibliographic, chemical, 
# crystal, experimental, refinement or atomic coordinate data resulting 
# from the CCDC's data processing and validation procedures.
#
#######################################################################

data_YIXZAI
_symmetry_cell_setting           tetragonal
_symmetry_space_group_name_H-M   'P 42/n'
_symmetry_Int_Tables_number      86
_space_group_name_Hall           '-P 4bc'
loop_
_symmetry_equiv_pos_site_id
_symmetry_equiv_pos_as_xyz
1 x,y,z
2 1/2-x,1/2-y,z
3 -y,1/2+x,1/2+z
4 1/2+y,-x,1/2+z
5 -x,-y,-z
6 1/2+x,1/2+y,-z
7 y,1/2-x,1/2-z
8 1/2-y,x,1/2-z
_cell_length_a                   20.8164(13)
_cell_length_b                   20.8164(13)
_cell_length_c                   5.8701(4)
_cell_angle_alpha                90
_cell_angle_beta                 90
_cell_angle_gamma                90
_cell_volume                     2543.65
loop_
_atom_site_label
_atom_site_type_symbol
_atom_site_fract_x
_atom_site_fract_y
_atom_site_fract_z
Cd1 Cd 0.268443(14) 0.670339(14) 0.03871(6)
O1 O -0.09574(14) 0.29904(15) 0.1571(5)
O2 O -0.09994(17) 0.35617(17) 0.4722(6)
O3 O 0.18788(13) 0.73321(13) 0.1640(5)
H1 H 0.158(2) 0.717(2) 0.088(10)
N1 N 0.13348(19) 0.50081(18) -0.0069(7)
N2 N 0.1611(2) 0.4934(2) -0.2172(8)
N3 N 0.20113(18) 0.58004(18) -0.0367(7)
C1 C -0.0752(2) 0.3433(2) 0.2816(9)
C2 C 0.0048(2) 0.3778(2) -0.0164(5)
H2 H -0.0137 0.3490 -0.1183
C3 C -0.01870(15) 0.38258(16) 0.2045(5)
C4 C 0.0090(2) 0.4255(2) 0.3568(5)
H3 H -0.0067 0.4288 0.5046
C5 C 0.0603(2) 0.4637(2) 0.2881(5)
H4 H 0.0789 0.4924 0.3899
C6 C 0.08385(16) 0.45885(17) 0.0671(6)
C7 C 0.0561(2) 0.4159(2) -0.0851(5)
H5 H 0.0718 0.4127 -0.2329
C8 C 0.2016(2) 0.5423(2) -0.2254(10)
H6 H 0.2281 0.5502 -0.3498
C9 C 0.1574(2) 0.5528(2) 0.0935(9)
H7 H 0.1450 0.5678 0.2360
Cd1A Cd 0.231557(14) 0.829661(14) 0.03871(6)
Cd1C Cd 0.170339(14) 0.731557(14) 0.53871(6)
Cd1G Cd -0.170339(14) 0.268443(14) 0.46129(6)
O1F O 0.29904(15) 0.59574(14) 0.3429(5)
O2F O 0.35617(17) 0.59994(17) 0.0278(6)
O3A O 0.31212(13) 0.76679(13) 0.1640(5)
O3B O 0.26679(13) 0.68788(13) -0.3360(5)
loop_
_geom_bond_atom_site_label_1
_geom_bond_atom_site_label_2
_geom_bond_site_symmetry_1
_geom_bond_site_symmetry_2
Cd1 O3 1_555 1_555
O1 C1 1_555 1_555
O2 C1 1_555 1_555
O3 H1 1_555 1_555
N1 N2 1_555 1_555
N2 C8 1_555 1_555
N3 Cd1 1_555 1_555
C1 C3 1_555 1_555
C2 H2 1_555 1_555
C3 C2 1_555 1_555
C4 C3 1_555 1_555
H3 C4 1_555 1_555
C5 C4 1_555 1_555
H4 C5 1_555 1_555
C6 N1 1_555 1_555
C7 C2 1_555 1_555
H5 C7 1_555 1_555
C8 N3 1_555 1_555
H6 C8 1_555 1_555
C9 N1 1_555 1_555
H7 C9 1_555 1_555
Cd1A O3 1_555 1_555
Cd1C O3 1_555 1_555
Cd1G O1 1_555 1_555
O1F Cd1 1_555 1_555
O2F Cd1 1_555 1_555
O3A Cd1 1_555 1_555
O3B Cd1 1_555 1_555
O2 Cd1G 1_555 1_555
N3 C9 1_555 1_555
C5 C6 1_555 1_555
C6 C7 1_555 1_555
Cd1A O3A 1_555 1_555

#END
