
#######################################################################
#
#                 Cambridge Crystallographic Data Centre
#                                CCDC 
#
#######################################################################
#
# If this CIF has been generated from an entry in the Cambridge 
# Structural Database, then it will include bibliographic, chemical, 
# crystal, experimental, refinement or atomic coordinate data resulting 
# from the CCDC's data processing and validation procedures.
#
#######################################################################

data_YIXZAH
_symmetry_cell_setting           monoclinic
_symmetry_space_group_name_H-M   'P 21/c'
_symmetry_Int_Tables_number      14
_space_group_name_Hall           '-P 2ybc'
loop_
_symmetry_equiv_pos_site_id
_symmetry_equiv_pos_as_xyz
1 x,y,z
2 -x,1/2+y,1/2-z
3 -x,-y,-z
4 x,1/2-y,1/2+z
_cell_length_a                   11.421(2)
_cell_length_b                   16.337(3)
_cell_length_c                   9.4177(19)
_cell_angle_alpha                90
_cell_angle_beta                 112.15(3)
_cell_angle_gamma                90
_cell_volume                     1627.52
loop_
_atom_site_label
_atom_site_type_symbol
_atom_site_fract_x
_atom_site_fract_y
_atom_site_fract_z
Mn1 Mn 0.5000 0.5000 0.0000
N1 N 0.69879(12) 0.49597(9) 0.19180(16)
O1 O 0.40446(11) 0.51325(8) 0.16537(13)
O2 O 0.42135(15) 0.38487(9) 0.24727(16)
C1 C 0.38506(15) 0.45669(12) 0.24597(18)
C2 C 0.31583(18) 0.47978(13) 0.3506(2)
H1 H 0.3738 0.5084 0.4395
H2 H 0.2474 0.5170 0.2963
C3 C 0.26237(16) 0.40629(12) 0.4036(2)
C4 C 0.33124(18) 0.36837(13) 0.5375(2)
H3 H 0.4091 0.3905 0.5984
C5 C 0.2899(2) 0.29752(15) 0.5877(2)
H4 H 0.3403 0.2731 0.6796
C6 C 0.1758(2) 0.26439(14) 0.5014(2)
H5 H 0.1487 0.2170 0.5344
C7 C 0.09838(17) 0.30153(12) 0.3626(2)
C8 C 0.14178(16) 0.37331(12) 0.3125(2)
C9 C 0.0610(2) 0.40956(14) 0.1725(2)
H6 H 0.0872 0.4563 0.1365
C10 C -0.0550(2) 0.37628(18) 0.0900(3)
H7 H -0.1066 0.4008 -0.0012
C11 C -0.0967(2) 0.30571(18) 0.1413(3)
H8 H -0.1759 0.2840 0.0845
C12 C -0.0222(2) 0.26929(15) 0.2731(3)
H9 H -0.0505 0.2222 0.3057
C13 C 0.73462(15) 0.43770(12) 0.2987(2)
H10 H 0.6785 0.3952 0.2913
C14 C 0.85038(15) 0.43683(11) 0.4199(2)
H11 H 0.8699 0.3947 0.4915
C15 C 0.93728(14) 0.49865(10) 0.43474(18)
C16 C 0.90082(16) 0.55849(12) 0.3222(2)
H12 H 0.9557 0.6011 0.3255
C17 C 0.78309(16) 0.55500(12) 0.2051(2)
H13 H 0.7613 0.5961 0.1314
O3 O 0.51718(13) 0.63187(9) -0.00702(15)
H14 H 0.535(2) 0.6414(15) -0.077(3)
H15 H 0.492(2) 0.6761(17) 0.016(3)
Mn1_2 Mn 1.5000 0.5000 1.0000
N1B N 1.30121(12) 0.50403(9) 0.80820(16)
N1B_2 N 0.30121(12) 0.50403(9) -0.19180(16)
O1B O 0.59554(11) 0.48675(8) -0.16537(13)
O2B O 0.57865(15) 0.61513(9) -0.24727(16)
C1B C 0.61494(15) 0.54331(12) -0.24597(18)
C2B C 0.68417(18) 0.52022(13) -0.3506(2)
H1B H 0.6262 0.4916 -0.4395
H2B H 0.7526 0.4830 -0.2963
C3B C 0.73763(16) 0.59371(12) -0.4036(2)
C4B C 0.66876(18) 0.63163(13) -0.5375(2)
H3B H 0.5909 0.6095 -0.5984
C5B C 0.7101(2) 0.70248(15) -0.5877(2)
H4B H 0.6597 0.7269 -0.6796
C6B C 0.8242(2) 0.73561(14) -0.5014(2)
H5B H 0.8513 0.7830 -0.5344
C7B C 0.90162(17) 0.69847(12) -0.3626(2)
C8B C 0.85822(16) 0.62669(12) -0.3125(2)
C9B C 0.9390(2) 0.59044(14) -0.1725(2)
H6B H 0.9128 0.5437 -0.1365
C10B C 1.0550(2) 0.62372(18) -0.0900(3)
H7B H 1.1066 0.5992 0.0012
C11B C 1.0967(2) 0.69429(18) -0.1413(3)
H8B H 1.1759 0.7160 -0.0845
C12B C 1.0222(2) 0.73071(15) -0.2731(3)
H9B H 1.0505 0.7778 -0.3057
C13B C 1.26538(15) 0.56230(12) 0.7013(2)
H10B H 1.3215 0.6048 0.7087
C14B C 1.14962(15) 0.56317(11) 0.5801(2)
H11B H 1.1301 0.6053 0.5085
C15B C 1.06272(14) 0.50135(10) 0.56526(18)
C16B C 1.09918(16) 0.44151(12) 0.6778(2)
H12B H 1.0443 0.3989 0.6745
C17B C 1.21691(16) 0.44500(12) 0.7949(2)
H13B H 1.2387 0.4039 0.8686
O3B O 0.48282(13) 0.36813(9) 0.00702(15)
H14B H 0.465(2) 0.3586(15) 0.077(3)
H15B H 0.508(2) 0.3239(17) -0.016(3)
O4 O 0.33778(16) 0.67307(11) 0.23457(18)
H16 H 0.360(3) 0.630(2) 0.214(3)
H17 H 0.349(3) 0.7034(19) 0.178(3)
O5 O 0.41695(16) 0.72107(10) 0.53938(18)
H18 H 0.467(3) 0.6924(18) 0.594(3)
H19 H 0.393(2) 0.7066(17) 0.454(3)
loop_
_geom_bond_atom_site_label_1
_geom_bond_atom_site_label_2
_geom_bond_site_symmetry_1
_geom_bond_site_symmetry_2
Mn1 N1 1_555 1_555
N1 C13 1_555 1_555
O1 Mn1 1_555 1_555
O2 C1 1_555 1_555
C1 O1 1_555 1_555
C2 C1 1_555 1_555
H1 C2 1_555 1_555
H2 C2 1_555 1_555
C3 C2 1_555 1_555
C4 C3 1_555 1_555
H3 C4 1_555 1_555
C5 C4 1_555 1_555
H4 C5 1_555 1_555
C6 C5 1_555 1_555
H5 C6 1_555 1_555
C7 C6 1_555 1_555
C8 C3 1_555 1_555
C9 C8 1_555 1_555
H6 C9 1_555 1_555
C10 C9 1_555 1_555
H7 C10 1_555 1_555
C11 C10 1_555 1_555
H8 C11 1_555 1_555
C12 C7 1_555 1_555
H9 C12 1_555 1_555
C13 H10 1_555 1_555
C14 C13 1_555 1_555
H11 C14 1_555 1_555
C15 C14 1_555 1_555
C16 C15 1_555 1_555
H12 C16 1_555 1_555
C17 N1 1_555 1_555
H13 C17 1_555 1_555
O3 Mn1 1_555 1_555
H14 O3 1_555 1_555
H15 O3 1_555 1_555
O4 H16 1_555 1_555
H17 O4 1_555 1_555
O5 H18 1_555 1_555
H19 O5 1_555 1_555
Mn1_2 N1B 1_555 1_555
N1B C13B 1_555 1_555
N1B_2 Mn1 1_555 1_555
O1B Mn1 1_555 1_555
O2B C1B 1_555 1_555
C1B O1B 1_555 1_555
C2B C1B 1_555 1_555
H1B C2B 1_555 1_555
H2B C2B 1_555 1_555
C3B C2B 1_555 1_555
C4B C3B 1_555 1_555
H3B C4B 1_555 1_555
C5B C4B 1_555 1_555
H4B C5B 1_555 1_555
C6B C5B 1_555 1_555
H5B C6B 1_555 1_555
C7B C6B 1_555 1_555
C8B C3B 1_555 1_555
C9B C8B 1_555 1_555
H6B C9B 1_555 1_555
C10B C9B 1_555 1_555
H7B C10B 1_555 1_555
C11B C10B 1_555 1_555
H8B C11B 1_555 1_555
C12B C7B 1_555 1_555
H9B C12B 1_555 1_555
C13B H10B 1_555 1_555
C14B C13B 1_555 1_555
H11B C14B 1_555 1_555
C15B C15 1_555 1_555
C16B C15B 1_555 1_555
H12B C16B 1_555 1_555
C17B N1B 1_555 1_555
H13B C17B 1_555 1_555
O3B Mn1 1_555 1_555
H14B O3B 1_555 1_555
H15B O3B 1_555 1_555
C7 C8 1_555 1_555
C11 C12 1_555 1_555
C16 C17 1_555 1_555
C7B C8B 1_555 1_555
C11B C12B 1_555 1_555
C14B C15B 1_555 1_555
C16B C17B 1_555 1_555

#END
