
#######################################################################
#
#                 Cambridge Crystallographic Data Centre
#                                CCDC 
#
#######################################################################
#
# If this CIF has been generated from an entry in the Cambridge 
# Structural Database, then it will include bibliographic, chemical, 
# crystal, experimental, refinement or atomic coordinate data resulting 
# from the CCDC's data processing and validation procedures.
#
#######################################################################

data_YIXZIQ
_symmetry_cell_setting           monoclinic
_symmetry_space_group_name_H-M   'I 2/a'
_symmetry_Int_Tables_number      15
_space_group_name_Hall           '-I 2ya'
loop_
_symmetry_equiv_pos_site_id
_symmetry_equiv_pos_as_xyz
1 x,y,z
2 1/2-x,y,-z
3 1/2+x,1/2+y,1/2+z
4 -x,1/2+y,1/2-z
5 -x,-y,-z
6 1/2+x,-y,z
7 1/2-x,1/2-y,1/2-z
8 x,1/2-y,1/2+z
_cell_length_a                   9.276(1)
_cell_length_b                   4.764(1)
_cell_length_c                   50.154(3)
_cell_angle_alpha                90
_cell_angle_beta                 95.02(2)
_cell_angle_gamma                90
_cell_volume                     2207.85
loop_
_atom_site_label
_atom_site_type_symbol
_atom_site_fract_x
_atom_site_fract_y
_atom_site_fract_z
Co1 Co 0.47978(6) 0.46111(10) 0.12353(1)
O1 O 0.6900(3) 0.4833(6) 0.13284(6)
O2 O 0.4577(4) 0.0653(6) 0.11391(6)
O3 O 0.8963(3) 0.3988(7) 0.15584(6)
O4 O 0.4116(3) -0.3222(6) 0.09159(6)
C1 C 0.7614(4) 0.3735(8) 0.15271(7)
C2 C 0.6850(4) 0.2035(10) 0.17252(8)
C3 C 0.7826(5) 0.0818(10) 0.19561(9)
C4 C 0.6969(5) -0.0629(11) 0.21590(10)
C5 C 0.7919(5) -0.1789(11) 0.23957(9)
C6 C 0.0421(5) -0.0875(10) 0.01058(9)
C7 C 0.1253(5) 0.0870(9) 0.03230(8)
C8 C 0.2129(4) -0.0888(9) 0.05305(8)
C9 C 0.2964(5) 0.0920(9) 0.07393(8)
C10 C 0.3946(4) -0.0612(7) 0.09434(8)
H1 H 0.63420 0.05040 0.16300
H2 H 0.61290 0.32160 0.17980
H3 H 0.84870 -0.05180 0.18860
H4 H 0.83970 0.23150 0.20440
H5 H 0.64190 -0.21550 0.20720
H6 H 0.62870 0.06970 0.22240
H7 H 0.85920 -0.31300 0.23300
H8 H 0.84820 -0.02640 0.24800
H9 H 0.10990 -0.20510 0.00200
H10 H -0.02450 -0.21000 0.01890
H11 H 0.19000 0.21330 0.02400
H12 H 0.05720 0.20070 0.04120
H13 H 0.28010 -0.20510 0.04420
H14 H 0.14830 -0.21190 0.06180
H15 H 0.35410 0.22490 0.06480
H16 H 0.22750 0.19920 0.08330
O1F O 0.8100(3) -0.9833(6) 0.36716(6)
O3F O 0.6037(3) -0.8988(7) 0.34416(6)
C1F C 0.7386(4) -0.8735(8) 0.34729(7)
C2F C 0.8150(4) -0.7035(10) 0.32748(8)
C3F C 0.7174(5) -0.5818(10) 0.30439(9)
C4F C 0.8031(5) -0.4371(11) 0.28410(10)
C5F C 0.7081(5) -0.3211(11) 0.26043(9)
H1F H 0.86580 -0.55040 0.33700
H2F H 0.88710 -0.82160 0.32020
H3F H 0.65130 -0.44820 0.31140
H4F H 0.66030 -0.73150 0.29560
H5F H 0.85810 -0.28450 0.29280
H6F H 0.87130 -0.56970 0.27760
H7F H 0.64080 -0.18700 0.26700
H8F H 0.65180 -0.47360 0.25200
O2D O -0.4577(4) -0.0653(6) -0.11391(6)
O4D O -0.4116(3) 0.3222(6) -0.09159(6)
C6D C -0.0421(5) 0.0875(10) -0.01058(9)
C7D C -0.1253(5) -0.0870(9) -0.03230(8)
C8D C -0.2129(4) 0.0888(9) -0.05305(8)
C9D C -0.2964(5) -0.0920(9) -0.07393(8)
C10D C -0.3946(4) 0.0612(7) -0.09434(8)
H9D H -0.10990 0.20510 -0.00200
H10D H 0.02450 0.21000 -0.01890
H11D H -0.19000 -0.21330 -0.02400
H12D H -0.05720 -0.20070 -0.04120
H13D H -0.28010 0.20510 -0.04420
H14D H -0.14830 0.21190 -0.06180
H15D H -0.35410 -0.22490 -0.06480
H16D H -0.22750 -0.19920 -0.08330
Co1D Co -0.47978(6) -0.46111(10) -0.12353(1)
Co1_2 Co 0.47978(6) -0.53889(10) 0.12353(1)
Co1D_2 Co -0.47978(6) 0.53889(10) -0.12353(1)
Co1E Co 0.97978(6) 0.53889(10) 0.12353(1)
Co1C Co 0.52022(6) -1.03889(10) 0.37647(1)
Co1F Co 1.02022(6) -0.96111(10) 0.37647(1)
O1D O -0.6900(3) -0.4833(6) -0.13284(6)
O3A O -0.3963(3) -0.6012(7) -0.15584(6)
O3E O 0.3963(3) 0.6012(7) 0.15584(6)
O4_2 O 0.4116(3) 0.6778(6) 0.09159(6)
O4D_2 O -0.4116(3) -0.6778(6) -0.09159(6)
loop_
_geom_bond_atom_site_label_1
_geom_bond_atom_site_label_2
_geom_bond_site_symmetry_1
_geom_bond_site_symmetry_2
Co1 O1 1_555 1_555
O1 C1 1_555 1_555
O2 Co1 1_555 1_555
O3 C1 1_555 1_555
O4 C10 1_555 1_555
C1 C2 1_555 1_555
C2 C3 1_555 1_555
C3 C4 1_555 1_555
C4 C5 1_555 1_555
C5 H7 1_555 1_555
C6 C7 1_555 1_555
C7 C8 1_555 1_555
C8 C9 1_555 1_555
C9 C10 1_555 1_555
C10 O2 1_555 1_555
H1 C2 1_555 1_555
H2 C2 1_555 1_555
H3 C3 1_555 1_555
H4 C3 1_555 1_555
H5 C4 1_555 1_555
H6 C4 1_555 1_555
H8 C5 1_555 1_555
H9 C6 1_555 1_555
H10 C6 1_555 1_555
H11 C7 1_555 1_555
H12 C7 1_555 1_555
H13 C8 1_555 1_555
H14 C8 1_555 1_555
H15 C9 1_555 1_555
H16 C9 1_555 1_555
O1F C1F 1_555 1_555
O3F C1F 1_555 1_555
C1F C2F 1_555 1_555
C2F C3F 1_555 1_555
C3F C4F 1_555 1_555
C4F C5F 1_555 1_555
C5F C5 1_555 1_555
H1F C2F 1_555 1_555
H2F C2F 1_555 1_555
H3F C3F 1_555 1_555
H4F C3F 1_555 1_555
H5F C4F 1_555 1_555
H6F C4F 1_555 1_555
H7F C5F 1_555 1_555
H8F C5F 1_555 1_555
O2D C10D 1_555 1_555
O4D C10D 1_555 1_555
C6D C6 1_555 1_555
C7D C6D 1_555 1_555
C8D C7D 1_555 1_555
C9D C8D 1_555 1_555
C10D C9D 1_555 1_555
H9D C6D 1_555 1_555
H10D C6D 1_555 1_555
H11D C7D 1_555 1_555
H12D C7D 1_555 1_555
H13D C8D 1_555 1_555
H14D C8D 1_555 1_555
H15D C9D 1_555 1_555
H16D C9D 1_555 1_555
Co1D O2D 1_555 1_555
Co1_2 O4 1_555 1_555
Co1D_2 O4D 1_555 1_555
Co1E O3 1_555 1_555
Co1C O3F 1_555 1_555
Co1F O1F 1_555 1_555
O1D Co1D 1_555 1_555
O3A Co1D 1_555 1_555
O3E Co1 1_555 1_555
O4_2 Co1 1_555 1_555
O4D_2 Co1D 1_555 1_555

#END
