
#######################################################################
#
#                 Cambridge Crystallographic Data Centre
#                                CCDC 
#
#######################################################################
#
# If this CIF has been generated from an entry in the Cambridge 
# Structural Database, then it will include bibliographic, chemical, 
# crystal, experimental, refinement or atomic coordinate data resulting 
# from the CCDC's data processing and validation procedures.
#
#######################################################################

data_YIXZOW
_symmetry_cell_setting           triclinic
_symmetry_space_group_name_H-M   'P -1'
_symmetry_Int_Tables_number      2
_space_group_name_Hall           '-P 1'
loop_
_symmetry_equiv_pos_site_id
_symmetry_equiv_pos_as_xyz
1 x,y,z
2 -x,-y,-z
_cell_length_a                   4.7079(4)
_cell_length_b                   7.0524(8)
_cell_length_c                   14.1691(17)
_cell_angle_alpha                94.124(4)
_cell_angle_beta                 91.235(3)
_cell_angle_gamma                102.963(3)
_cell_volume                     456.922
loop_
_atom_site_label
_atom_site_type_symbol
_atom_site_fract_x
_atom_site_fract_y
_atom_site_fract_z
Mg1 Mg 0.5000 0.0000 0.0000
O1 O 0.23464(17) -0.01210(12) -0.11883(6)
N1 N 0.1144(2) -0.07654(14) -0.30413(7)
H1 H 0.271(3) 0.014(2) -0.2812(10)
C1 C -0.0891(2) -0.15548(16) -0.24393(8)
C2 C -0.3353(2) -0.28980(17) -0.27902(8)
H2 H -0.474(3) -0.344(2) -0.2367(10)
C3 C -0.3677(3) -0.34231(18) -0.37602(8)
H3 H -0.541(3) -0.440(2) -0.3997(11)
C4 C -0.1544(3) -0.25870(18) -0.43612(8)
H4 H -0.174(3) -0.291(2) -0.5034(11)
C5 C 0.0873(3) -0.12346(18) -0.39797(8)
H5 H 0.248(3) -0.057(2) -0.4360(10)
C6 C -0.0266(2) -0.09127(16) -0.13964(8)
O2 O 0.30890(18) -0.28478(13) 0.02605(6)
H6 H 0.283(4) -0.361(3) -0.0221(13)
H7 H 0.154(4) -0.312(3) 0.0553(14)
O3 O -0.23704(17) -0.12639(12) -0.08722(6)
O1A O -0.23464(17) 0.01210(12) 0.11883(6)
N1A N -0.1144(2) 0.07654(14) 0.30413(7)
H1A H -0.271(3) -0.014(2) 0.2812(10)
C1A C 0.0891(2) 0.15548(16) 0.24393(8)
C2A C 0.3353(2) 0.28980(17) 0.27902(8)
H2A H 0.474(3) 0.344(2) 0.2367(10)
C3A C 0.3677(3) 0.34231(18) 0.37602(8)
H3A H 0.541(3) 0.440(2) 0.3997(11)
C4A C 0.1544(3) 0.25870(18) 0.43612(8)
H4A H 0.174(3) 0.291(2) 0.5034(11)
C5A C -0.0873(3) 0.12346(18) 0.39797(8)
H5A H -0.248(3) 0.057(2) 0.4360(10)
C6A C 0.0266(2) 0.09127(16) 0.13964(8)
O3A O 0.23704(17) 0.12639(12) 0.08722(6)
O2A O 0.69110(18) 0.28478(13) -0.02605(6)
H6A H 0.717(4) 0.361(3) 0.0221(13)
H7A H 0.846(4) 0.312(3) -0.0553(14)
Mg1_2 Mg -0.5000 0.0000 0.0000
O1A_2 O 0.76536(17) 0.01210(12) 0.11883(6)
O3_2 O 0.76296(17) -0.12639(12) -0.08722(6)
O4 O 0.66802(19) 0.20825(14) -0.40563(6)
O5 O 0.64176(18) 0.20237(13) -0.25278(6)
O6 O 1.03755(18) 0.35877(13) -0.31375(6)
N2 N 0.7816(2) 0.25651(15) -0.32451(7)
O7 O -0.20293(19) -0.41637(13) 0.11886(6)
H8 H -0.154(4) -0.392(3) 0.1773(14)
H9 H -0.328(4) -0.351(3) 0.1101(13)
loop_
_geom_bond_atom_site_label_1
_geom_bond_atom_site_label_2
_geom_bond_site_symmetry_1
_geom_bond_site_symmetry_2
Mg1 O1 1_555 1_555
O1 C6 1_555 1_555
N1 H1 1_555 1_555
C1 N1 1_555 1_555
C2 C1 1_555 1_555
H2 C2 1_555 1_555
C3 C2 1_555 1_555
H3 C3 1_555 1_555
C4 C3 1_555 1_555
H4 C4 1_555 1_555
C5 N1 1_555 1_555
H5 C5 1_555 1_555
C6 C1 1_555 1_555
O2 Mg1 1_555 1_555
H6 O2 1_555 1_555
H7 O2 1_555 1_555
O3 C6 1_555 1_555
O4 N2 1_555 1_555
O5 N2 1_555 1_555
O6 N2 1_555 1_555
O7 H8 1_555 1_555
H9 O7 1_555 1_555
O1A C6A 1_555 1_555
N1A H1A 1_555 1_555
C1A N1A 1_555 1_555
C2A C1A 1_555 1_555
H2A C2A 1_555 1_555
C3A C2A 1_555 1_555
H3A C3A 1_555 1_555
C4A C3A 1_555 1_555
H4A C4A 1_555 1_555
C5A N1A 1_555 1_555
H5A C5A 1_555 1_555
C6A C1A 1_555 1_555
O3A Mg1 1_555 1_555
O2A Mg1 1_555 1_555
H6A O2A 1_555 1_555
H7A O2A 1_555 1_555
Mg1_2 O3 1_555 1_555
O1A_2 Mg1 1_555 1_555
O3_2 Mg1 1_555 1_555
C4 C5 1_555 1_555
O1A Mg1_2 1_555 1_555
C4A C5A 1_555 1_555
C6A O3A 1_555 1_555

#END
