
#######################################################################
#
#                 Cambridge Crystallographic Data Centre
#                                CCDC 
#
#######################################################################
#
# If this CIF has been generated from an entry in the Cambridge 
# Structural Database, then it will include bibliographic, chemical, 
# crystal, experimental, refinement or atomic coordinate data resulting 
# from the CCDC's data processing and validation procedures.
#
#######################################################################

data_YIXZEM
_symmetry_cell_setting           tetragonal
_symmetry_space_group_name_H-M   'P 42/n'
_symmetry_Int_Tables_number      86
_space_group_name_Hall           '-P 4bc'
loop_
_symmetry_equiv_pos_site_id
_symmetry_equiv_pos_as_xyz
1 x,y,z
2 -y,1/2+x,1/2+z
3 1/2+y,-x,1/2+z
4 1/2-x,1/2-y,z
5 -x,-y,-z
6 y,1/2-x,1/2-z
7 1/2-y,x,1/2-z
8 1/2+x,1/2+y,-z
_cell_length_a                   21.23(6)
_cell_length_b                   21.23(6)
_cell_length_c                   6.029(17)
_cell_angle_alpha                90
_cell_angle_beta                 90
_cell_angle_gamma                90
_cell_volume                     2717.35
loop_
_atom_site_label
_atom_site_type_symbol
_atom_site_fract_x
_atom_site_fract_y
_atom_site_fract_z
Cd1 Cd 0.32981(3) 0.76936(3) 0.96341(13)
O1 O 0.4002(4) 0.8567(4) 0.9749(13)
O2 O 0.4040(3) 0.8009(3) 0.6589(12)
O3 O 0.3128(3) 0.7674(3) 1.3422(12)
H1 H 0.347(5) 0.797(5) 1.34(2)
N1 N 0.6354(5) 1.0009(4) 0.4955(16)
N2 N 0.6632(5) 0.9922(4) 0.2865(18)
N3 N 0.7026(4) 1.0799(5) 0.4603(15)
C1 C 0.4249(6) 0.8448(6) 0.783(2)
C2 C 0.4821(6) 0.8821(6) 0.707(2)
C3 C 0.5104(7) 0.9224(7) 0.847(3)
H2 H 0.4966 0.9237 0.9929
C4 C 0.5615(7) 0.9641(7) 0.781(2)
H3 H 0.5776 0.9938 0.8798
C5 C 0.5856(7) 0.9584(7) 0.567(2)
C6 C 0.5539(7) 0.9185(7) 0.427(2)
H4 H 0.5654 0.9172 0.2787
C7 C 0.5055(8) 0.8802(8) 0.499(2)
H5 H 0.4881 0.8517 0.3992
C8 C 0.6586(6) 1.0505(7) 0.595(2)
H6 H 0.6472 1.0640 0.7358
C9 C 0.7029(6) 1.0410(6) 0.274(2)
H7 H 0.7285 1.0483 0.1510
Cd1A Cd 0.23064(3) 0.82981(3) 1.46341(13)
Cd1B Cd 0.26936(3) 0.67019(3) 1.46341(13)
Cd1E Cd 0.76936(3) 1.17019(3) 0.53659(13)
O3A O 0.2326(3) 0.8128(3) 0.8422(12)
O3B O 0.2674(3) 0.6872(3) 0.8422(12)
N3F N 0.4201(5) 0.7026(4) 1.0397(15)
I1 I 0.7652(12) 0.8640(11) 0.484(3)
I2? I 0.7386(11) 0.8647(14) 0.921(5)
loop_
_geom_bond_atom_site_label_1
_geom_bond_atom_site_label_2
_geom_bond_site_symmetry_1
_geom_bond_site_symmetry_2
Cd1 O1 1_555 1_555
O1 C1 1_555 1_555
O2 Cd1 1_555 1_555
O3 Cd1 1_555 1_555
H1 O3 1_555 1_555
N1 N2 1_555 1_555
N2 C9 1_555 1_555
N3 C8 1_555 1_555
C1 O2 1_555 1_555
C2 C1 1_555 1_555
C3 C2 1_555 1_555
H2 C3 1_555 1_555
C4 C3 1_555 1_555
H3 C4 1_555 1_555
C5 N1 1_555 1_555
C6 C5 1_555 1_555
H4 C6 1_555 1_555
C7 C2 1_555 1_555
H5 C7 1_555 1_555
C8 N1 1_555 1_555
H6 C8 1_555 1_555
C9 N3 1_555 1_555
H7 C9 1_555 1_555
Cd1A O3 1_555 1_555
Cd1B O3 1_555 1_555
Cd1E N3 1_555 1_555
O3A Cd1 1_555 1_555
O3B Cd1 1_555 1_555
N3F Cd1 1_555 1_555
C4 C5 1_555 1_555
C6 C7 1_555 1_555

#END
