
#######################################################################
#
#                 Cambridge Crystallographic Data Centre
#                                CCDC 
#
#######################################################################
#
# If this CIF has been generated from an entry in the Cambridge 
# Structural Database, then it will include bibliographic, chemical, 
# crystal, experimental, refinement or atomic coordinate data resulting 
# from the CCDC's data processing and validation procedures.
#
#######################################################################

data_YIYBEP
_symmetry_cell_setting           monoclinic
_symmetry_space_group_name_H-M   'P 21/n'
_symmetry_Int_Tables_number      14
_space_group_name_Hall           '-P 2yn'
loop_
_symmetry_equiv_pos_site_id
_symmetry_equiv_pos_as_xyz
1 x,y,z
2 1/2-x,1/2+y,1/2-z
3 -x,-y,-z
4 1/2+x,1/2-y,1/2+z
_cell_length_a                   9.9683(6)
_cell_length_b                   6.8418(3)
_cell_length_c                   18.8376(10)
_cell_angle_alpha                90
_cell_angle_beta                 103.938(2)
_cell_angle_gamma                90
_cell_volume                     1246.92
loop_
_atom_site_label
_atom_site_type_symbol
_atom_site_fract_x
_atom_site_fract_y
_atom_site_fract_z
Mg1 Mg 0.42357(6) 0.38918(8) 0.25102(3)
O1 O 0.29465(12) 0.38835(17) 0.32270(6)
O2 O 0.56117(12) 0.39652(17) 0.18011(6)
O3 O 0.71861(13) 0.59320(18) 0.24342(7)
O4 O 0.75848(13) 0.43455(18) 0.15134(6)
O5 O 0.57104(13) 0.27403(19) 0.33609(7)
O6 O 0.27339(13) 0.4849(2) 0.16425(7)
O7 O 0.12944(13) 0.61265(17) 0.28380(6)
O8 O 0.47864(14) 0.67350(18) 0.28247(7)
N1 N 0.67981(14) 0.4747(2) 0.19208(7)
N2 N 0.19095(16) 0.3179(2) 0.44081(8)
C1 C 0.18471(17) 0.4767(2) 0.32400(8)
C2 C 0.11162(18) 0.4044(2) 0.38061(9)
C3 C -0.02892(18) 0.4163(3) 0.37318(9)
C4 C -0.0868(2) 0.3335(3) 0.42691(10)
C5 C -0.0015(2) 0.2463(3) 0.48780(10)
C6 C 0.1387(2) 0.2415(3) 0.49395(9)
H1 H 0.564(3) 0.683(4) 0.2815(16)
H2 H 0.475(3) 0.723(4) 0.3232(17)
H3 H 0.617(3) 0.172(4) 0.3344(14)
H4 H 0.554(3) 0.271(4) 0.3789(16)
H5 H 0.230(3) 0.581(4) 0.1671(14)
H6 H 0.234(3) 0.421(4) 0.1274(15)
H7 H -0.082(2) 0.477(3) 0.3345(11)
H8 H -0.187(2) 0.343(3) 0.4215(12)
H9 H -0.035(2) 0.189(3) 0.5287(13)
H10 H 0.203(2) 0.187(3) 0.5348(13)
H11 H 0.290(3) 0.315(4) 0.4448(13)
Mg1A Mg 0.07643(6) 0.88918(8) 0.24898(3)
O7A O 0.37056(13) 0.11265(17) 0.21620(6)
O9 O 0.52177(14) 0.8046(2) 0.42944(7)
O10 O 0.32770(13) 0.7596(2) 0.46057(7)
O11 O 0.52303(13) 0.7085(2) 0.53925(6)
N3 N 0.45637(16) 0.7582(2) 0.47568(8)
loop_
_geom_bond_atom_site_label_1
_geom_bond_atom_site_label_2
_geom_bond_site_symmetry_1
_geom_bond_site_symmetry_2
Mg1 O1 1_555 1_555
O1 C1 1_555 1_555
O2 Mg1 1_555 1_555
O3 N1 1_555 1_555
O4 N1 1_555 1_555
O5 Mg1 1_555 1_555
O6 Mg1 1_555 1_555
O7 C1 1_555 1_555
O8 Mg1 1_555 1_555
N1 O2 1_555 1_555
N2 C2 1_555 1_555
C1 C2 1_555 1_555
C2 C3 1_555 1_555
C3 C4 1_555 1_555
C4 C5 1_555 1_555
C5 C6 1_555 1_555
C6 N2 1_555 1_555
H1 O8 1_555 1_555
H2 O8 1_555 1_555
H3 O5 1_555 1_555
H4 O5 1_555 1_555
H5 O6 1_555 1_555
H6 O6 1_555 1_555
H7 C3 1_555 1_555
H8 C4 1_555 1_555
H9 C5 1_555 1_555
H10 C6 1_555 1_555
H11 N2 1_555 1_555
O9 N3 1_555 1_555
O10 N3 1_555 1_555
O11 N3 1_555 1_555
Mg1A O7 1_555 1_555
O7A Mg1 1_555 1_555

#END
