
#######################################################################
#
#                 Cambridge Crystallographic Data Centre
#                                CCDC 
#
#######################################################################
#
# If this CIF has been generated from an entry in the Cambridge 
# Structural Database, then it will include bibliographic, chemical, 
# crystal, experimental, refinement or atomic coordinate data resulting 
# from the CCDC's data processing and validation procedures.
#
#######################################################################

data_YIYGOC
_symmetry_cell_setting           orthorhombic
_symmetry_space_group_name_H-M   'P 21 21 21'
_symmetry_Int_Tables_number      19
_space_group_name_Hall           'P 2ac 2ab'
loop_
_symmetry_equiv_pos_site_id
_symmetry_equiv_pos_as_xyz
1 x,y,z
2 1/2-x,-y,1/2+z
3 1/2+x,1/2-y,-z
4 -x,1/2+y,1/2-z
_cell_length_a                   13.065(5)
_cell_length_b                   18.684(7)
_cell_length_c                   8.810(5)
_cell_angle_alpha                90
_cell_angle_beta                 90
_cell_angle_gamma                90
_cell_volume                     2150.58
loop_
_atom_site_label
_atom_site_type_symbol
_atom_site_fract_x
_atom_site_fract_y
_atom_site_fract_z
Ag1 Ag 0.48681(4) -0.62880(4) -0.23620(9)
O1 O 0.4994(4) -0.4109(3) -0.1421(8)
O2 O 0.5234(4) -0.3063(3) -0.2723(9)
N1 N 0.3215(4) -0.6319(3) -0.2395(7)
N2 N 0.3540(4) -0.1131(3) -0.3108(9)
C1 C 0.2749(6) -0.6889(4) -0.297(1)
C2 C 0.1699(7) -0.6909(5) -0.321(1)
C3 C 0.1129(5) -0.6349(5) -0.282(1)
C4 C 0.1608(5) -0.5740(4) -0.221(1)
C5 C 0.2648(5) -0.5744(3) -0.1983(8)
C6 C 0.3204(7) -0.5098(4) -0.139(1)
C7 C 0.3504(6) -0.4586(3) -0.2678(9)
C8 C 0.4021(6) -0.3922(4) -0.210(1)
C9 C 0.5615(8) -0.3502(5) -0.162(2)
C10 C 0.4328(7) -0.3385(4) -0.330(1)
C11 C 0.3558(8) -0.2807(4) -0.372(1)
C12 C 0.3202(7) -0.2363(4) -0.239(1)
C13 C 0.2831(5) -0.1639(4) -0.294(1)
C14 C 0.1834(7) -0.1495(5) -0.340(2)
C15 C 0.1528(7) -0.0860(6) -0.385(2)
C16 C 0.2249(9) -0.0331(6) -0.401(2)
C17 C 0.3244(7) -0.0474(4) -0.362(1)
H1 H 0.328(5) -0.727(4) -0.369(8)
H2 H 0.142(6) -0.731(4) -0.360(9)
H3 H 0.0355 -0.6365 -0.2974
H4 H 0.128(5) -0.523(3) -0.203(8)
H5 H 0.293(5) -0.487(4) -0.091(9)
H6 H 0.3892 -0.5264 -0.0789
H7 H 0.390(5) -0.480(3) -0.331(8)
H8 H 0.279(6) -0.443(4) -0.32(1)
H9 H 0.367(5) -0.369(3) -0.118(8)
H10 H 0.5611 -0.3198 -0.0512
H11 H 0.6399 -0.3653 -0.1849
H12 H 0.444(6) -0.373(4) -0.382(8)
H13 H 0.297(6) -0.303(4) -0.41(1)
H14 H 0.3834 -0.2461 -0.4633
H15 H 0.260(6) -0.259(4) -0.185(9)
H16 H 0.370(5) -0.230(4) -0.165(8)
H17 H 0.115(6) -0.185(4) -0.321(9)
H18 H 0.0769 -0.0761 -0.4039
H19 H 0.210(8) 0.002(5) -0.44(1)
H20 H 0.374(7) -0.020(4) -0.38(1)
N2C N 0.6460(4) -0.6131(3) -0.1892(9)
Ag1C Ag 0.51319(4) -0.12880(4) -0.26380(9)
S1 S 0.4573(2) -0.6306(1) -0.6144(3)
F1 F 0.6254(7) -0.6337(4) -0.766(1)
F2 F 0.5149(9) -0.5611(4) -0.8514(9)
F3 F 0.493(1) -0.6790(5) -0.875(1)
O3 O 0.500(1) -0.5650(5) -0.5350(9)
O4 O 0.4783(7) -0.6967(4) -0.554(1)
O5 O 0.3543(6) -0.6207(4) -0.654(2)
C18 C 0.525(1) -0.6244(6) -0.786(2)
loop_
_geom_bond_atom_site_label_1
_geom_bond_atom_site_label_2
_geom_bond_site_symmetry_1
_geom_bond_site_symmetry_2
Ag1 N1 1_555 1_555
O1 C8 1_555 1_555
O2 C9 1_555 1_555
N1 C1 1_555 1_555
N2 C13 1_555 1_555
C1 C2 1_555 1_555
C2 C3 1_555 1_555
C3 C4 1_555 1_555
C4 C5 1_555 1_555
C5 N1 1_555 1_555
C6 C5 1_555 1_555
C7 C6 1_555 1_555
C8 C7 1_555 1_555
C9 O1 1_555 1_555
C10 O2 1_555 1_555
C11 C10 1_555 1_555
C12 C11 1_555 1_555
C13 C12 1_555 1_555
C14 C13 1_555 1_555
C15 C14 1_555 1_555
C16 C15 1_555 1_555
C17 N2 1_555 1_555
H1 C1 1_555 1_555
H2 C2 1_555 1_555
H3 C3 1_555 1_555
H4 C4 1_555 1_555
H5 C6 1_555 1_555
H6 C6 1_555 1_555
H7 C7 1_555 1_555
H8 C7 1_555 1_555
H9 C8 1_555 1_555
H10 C9 1_555 1_555
H11 C9 1_555 1_555
H12 C10 1_555 1_555
H13 C11 1_555 1_555
H14 C11 1_555 1_555
H15 C12 1_555 1_555
H16 C12 1_555 1_555
H17 C14 1_555 1_555
H18 C15 1_555 1_555
H19 C16 1_555 1_555
H20 C17 1_555 1_555
S1 O3 1_555 1_555
F1 C18 1_555 1_555
F2 C18 1_555 1_555
F3 C18 1_555 1_555
O4 S1 1_555 1_555
O5 S1 1_555 1_555
C18 S1 1_555 1_555
N2C Ag1 1_555 1_555
Ag1C N2 1_555 1_555
C8 C10 1_555 1_555
C16 C17 1_555 1_555

#END
