
#######################################################################
#
#                 Cambridge Crystallographic Data Centre
#                                CCDC 
#
#######################################################################
#
# If this CIF has been generated from an entry in the Cambridge 
# Structural Database, then it will include bibliographic, chemical, 
# crystal, experimental, refinement or atomic coordinate data resulting 
# from the CCDC's data processing and validation procedures.
#
#######################################################################

data_YIYHAQ
_symmetry_cell_setting           triclinic
_symmetry_space_group_name_H-M   'P -1'
_symmetry_Int_Tables_number      2
_space_group_name_Hall           '-P 1'
loop_
_symmetry_equiv_pos_site_id
_symmetry_equiv_pos_as_xyz
1 x,y,z
2 -x,-y,-z
_cell_length_a                   13.2249(10)
_cell_length_b                   13.2989(11)
_cell_length_c                   20.3488(16)
_cell_angle_alpha                81.2660(10)
_cell_angle_beta                 81.4260(10)
_cell_angle_gamma                81.2460(10)
_cell_volume                     3466.98
loop_
_atom_site_label
_atom_site_type_symbol
_atom_site_fract_x
_atom_site_fract_y
_atom_site_fract_z
Zn1 Zn 0.84308(2) 0.73529(2) 0.295242(15)
N1 N 0.73473(19) 0.81938(19) 0.35314(12)
C1 C 0.7329(2) 0.9201(3) 0.35484(16)
H1 H 0.7877 0.9536 0.3298
C2 C 0.6538(3) 0.9774(3) 0.3917(2)
H2 H 0.6547 1.0488 0.3915
C3 C 0.5741(2) 0.9294(3) 0.42871(17)
C4 C 0.5773(2) 0.8249(3) 0.42814(16)
H3 H 0.5243 0.7893 0.4537
C5 C 0.6583(3) 0.7726(3) 0.38999(16)
H4 H 0.6596 0.7010 0.3900
C6 C 0.4863(3) 0.9916(4) 0.4675(2)
H5 H 0.4686 1.0588 0.4405
H6 H 0.4247 0.9552 0.4756
O1 O 0.8757(2) 0.6102(2) 0.40389(13)
O2 O 0.97865(18) 0.6677(2) 0.31628(12)
C7 C 0.9622(3) 0.6111(3) 0.37248(17)
C8 C 1.0551(3) 0.5456(4) 0.3990(2)
H7 H 1.0912 0.5873 0.4211
H8 H 1.1017 0.5187 0.3617
H9 H 1.0324 0.4883 0.4313
N2 N 0.89141(19) 0.82871(19) 0.20965(12)
C9 C 0.8358(2) 0.9149(2) 0.18392(15)
H10 H 0.7684 0.9340 0.2057
C10 C 0.8723(3) 0.9776(2) 0.12689(15)
H11 H 0.8307 1.0383 0.1106
C11 C 0.9701(2) 0.9505(2) 0.09411(14)
C12 C 1.0277(2) 0.8610(2) 0.12057(15)
H12 H 1.0950 0.8399 0.0994
C13 C 0.9868(2) 0.8029(2) 0.17759(14)
H13 H 1.0274 0.7423 0.1950
C14 C 1.0131(3) 1.0164(2) 0.03211(14)
H14 H 1.0890 1.0107 0.0303
H15 H 0.9843 1.0891 0.0346
N3 N 0.75640(19) 0.64310(19) 0.26369(12)
C15 C 0.7433(2) 0.5496(2) 0.29787(14)
H16 H 0.7787 0.5255 0.3358
C16 C 0.6802(2) 0.4880(2) 0.27931(15)
H17 H 0.6740 0.4220 0.3038
C17 C 0.6259(3) 0.5218(3) 0.22509(17)
C18 C 0.6399(3) 0.6189(3) 0.19016(19)
H18 H 0.6044 0.6454 0.1527
C19 C 0.7051(3) 0.6755(3) 0.21032(17)
H19 H 0.7145 0.7407 0.1855
C20 C 0.5559(3) 0.4561(3) 0.20480(18)
H20 H 0.4859 0.4950 0.2040
H21 H 0.5508 0.3945 0.2386
Zn2 Zn 0.29404(3) 0.17530(3) 0.033355(17)
N4 N 0.40112(19) 0.2401(2) 0.06589(12)
C21 C 0.4027(3) 0.2392(3) 0.13173(15)
H22 H 0.3586 0.1990 0.1625
C22 C 0.4652(3) 0.2939(3) 0.15661(16)
H23 H 0.4655 0.2890 0.2036
C23 C 0.5282(2) 0.3566(3) 0.11285(16)
C24 C 0.5289(2) 0.3538(3) 0.04470(16)
H24 H 0.5730 0.3925 0.0128
C25 C 0.4667(2) 0.2959(3) 0.02335(15)
H25 H 0.4695 0.2947 -0.0235
C26 C 0.5947(3) 0.4226(3) 0.13605(17)
H26 H 0.6001 0.4847 0.1027
H27 H 0.6649 0.3844 0.1372
O3 O 0.3900(2) 0.1692(2) -0.07955(14)
O4 O 0.3211(2) 0.0480(2) -0.00975(14)
C27 C 0.3745(3) 0.0782(3) -0.06502(17)
C28 C 0.4206(4) -0.0001(4) -0.1113(3)
H28 H 0.3707 -0.0474 -0.1119
H29 H 0.4834 -0.0389 -0.0954
H30 H 0.4376 0.0349 -0.1567
N5 N 0.2117(2) 0.1095(2) 0.11876(12)
C29 C 0.2474(2) 0.0155(3) 0.14729(18)
H31 H 0.3122 -0.0168 0.1286
C30 C 0.1946(3) -0.0361(3) 0.20240(18)
H32 H 0.2238 -0.1017 0.2217
C31 C 0.0997(2) 0.0074(3) 0.22945(15)
C32 C 0.0621(3) 0.1049(3) 0.20083(15)
H33 H -0.0026 0.1382 0.2188
C33 C 0.1196(3) 0.1532(2) 0.14592(15)
H34 H 0.0929 0.2198 0.1267
C34 C 0.0391(3) -0.0472(3) 0.28900(15)
H35 H 0.0565 -0.1223 0.2890
H36 H -0.0355 -0.0289 0.2857
N6 N -0.13720(19) -0.14048(19) 0.52516(12)
C35 C -0.0560(2) -0.1998(2) 0.49663(15)
H37 H -0.0431 -0.2698 0.5152
C36 C 0.0095(3) -0.1636(3) 0.44151(16)
H38 H 0.0660 -0.2081 0.4228
C37 C -0.0083(3) -0.0613(3) 0.41383(15)
C38 C -0.0933(3) -0.0010(3) 0.44204(16)
H39 H -0.1094 0.0685 0.4233
C39 C -0.1549(3) -0.0419(2) 0.49741(15)
H40 H -0.2120 0.0012 0.5167
C40 C 0.0626(3) -0.0185(3) 0.35438(16)
H41 H 0.1351 -0.0453 0.3606
H42 H 0.0546 0.0572 0.3518
N7 N 0.19449(18) 0.29569(18) -0.00419(11)
C41 C 0.2137(2) 0.3936(2) -0.01095(15)
H43 H 0.2706 0.4077 0.0080
C42 C 0.1543(2) 0.4743(2) -0.04417(16)
H44 H 0.1712 0.5421 -0.0485
C43 C 0.0696(2) 0.4555(2) -0.07127(13)
C44 C 0.0470(2) 0.3557(2) -0.06146(16)
H45 H -0.0121 0.3402 -0.0773
C45 C 0.1108(2) 0.2784(2) -0.02847(15)
H46 H 0.0946 0.2102 -0.0228
C46 C 0.0074(3) 0.5382(3) -0.11303(15)
H47 H 0.0146 0.6064 -0.1018
H48 H -0.0665 0.5289 -0.1036
Zn3 Zn -0.23247(3) -0.18832(3) 0.609810(17)
N8 N -0.13870(19) 0.72516(19) -0.32655(12)
C47 C -0.0359(2) 0.7242(2) -0.33347(14)
H49 H -0.0042 0.7663 -0.3704
C48 C 0.0257(2) 0.6645(2) -0.28903(15)
H50 H 0.0980 0.6665 -0.2954
C49 C -0.0187(2) 0.6017(2) -0.23510(14)
C50 C -0.1249(3) 0.6029(3) -0.22871(16)
H51 H -0.1585 0.5608 -0.1927
C51 C -0.1819(3) 0.6648(3) -0.27448(17)
H52 H -0.2545 0.6647 -0.2689
C52 C 0.0460(2) 0.5322(3) -0.18726(14)
H53 H 0.1173 0.5496 -0.1968
H54 H 0.0485 0.4605 -0.1959
O5 O -0.3023(2) -0.0516(2) 0.62798(12)
O6 O -0.3604(2) -0.1563(2) 0.71341(13)
C53 C -0.3603(3) -0.0690(3) 0.68353(16)
C54 C -0.4287(5) 0.0199(5) 0.7112(3)
H55 H -0.5011 0.0096 0.7139
H56 H -0.4168 0.0836 0.6818
H57 H -0.4128 0.0245 0.7561
N9 N -0.31655(19) -0.2880(2) 0.58438(12)
C55 C -0.2724(2) -0.3569(2) 0.54251(15)
H58 H -0.2027 -0.3544 0.5233
C56 C -0.3238(2) -0.4303(2) 0.52667(15)
H59 H -0.2892 -0.4778 0.4977
C57 C -0.4268(2) -0.4353(2) 0.55305(14)
C58 C -0.4728(2) -0.3621(2) 0.59465(15)
H60 H -0.5434 -0.3610 0.6126
C59 C -0.4167(2) -0.2917(2) 0.60983(15)
H61 H -0.4494 -0.2439 0.6392
C60 C -0.4855(2) -0.5141(2) 0.53599(15)
H62 H -0.5491 -0.5185 0.5682
H63 H -0.4429 -0.5821 0.5399
Zn1A Zn 0.15692(2) 1.26471(2) 0.704758(15)
Zn1A_2 Zn 1.15692(2) 1.26471(2) -0.295242(15)
N1A N 0.26527(19) 1.18062(19) 0.64686(12)
C1A C 0.2671(2) 1.0799(3) 0.64516(16)
H1A H 0.2123 1.0464 0.6702
C2A C 0.3462(3) 1.0226(3) 0.6083(2)
H2A H 0.3453 0.9512 0.6085
C3A C 0.4259(2) 1.0706(3) 0.57129(17)
C4A C 0.4227(2) 1.1751(3) 0.57186(16)
H3A H 0.4757 1.2107 0.5463
C5A C 0.3417(3) 1.2274(3) 0.61001(16)
H4A H 0.3404 1.2990 0.6100
C6A C 0.5137(3) 1.0084(4) 0.5325(2)
H5A H 0.5314 0.9412 0.5595
H6A H 0.5753 1.0448 0.5244
O1A O 0.1243(2) 1.3898(2) 0.59611(13)
O2A O 0.02135(18) 1.3323(2) 0.68372(12)
C7A C 0.0378(3) 1.3889(3) 0.62752(17)
C8A C -0.0551(3) 1.4544(4) 0.6010(2)
H7A H -0.0912 1.4127 0.5789
H8A H -0.1017 1.4813 0.6383
H9A H -0.0324 1.5117 0.5687
N2A N 1.10859(19) 1.17129(19) -0.20965(12)
N2A_2 N 0.10859(19) 1.17129(19) 0.79035(12)
C9A C 1.1642(2) 1.0851(2) -0.18392(15)
H10A H 1.2316 1.0660 -0.2057
C10A C 1.1277(3) 1.0224(2) -0.12689(15)
H11A H 1.1693 0.9617 -0.1106
C11A C 1.0299(2) 1.0495(2) -0.09411(14)
C12A C 0.9723(2) 1.1390(2) -0.12057(15)
H12A H 0.9050 1.1601 -0.0994
C13A C 1.0132(2) 1.1971(2) -0.17759(14)
H13A H 0.9726 1.2577 -0.1950
C14A C 0.9869(3) 0.9836(2) -0.03211(14)
H14A H 0.9110 0.9893 -0.0303
H15A H 1.0157 0.9109 -0.0346
N3A N 0.24360(19) 1.35690(19) 0.73631(12)
C15A C 0.2567(2) 1.4504(2) 0.70213(14)
H16A H 0.2213 1.4745 0.6642
C16A C 0.3198(2) 1.5120(2) 0.72069(15)
H17A H 0.3260 1.5780 0.6962
C17A C 0.3741(3) 1.4782(3) 0.77491(17)
C18A C 0.3601(3) 1.3811(3) 0.80984(19)
H18A H 0.3956 1.3546 0.8473
C19A C 0.2949(3) 1.3245(3) 0.78968(17)
H19A H 0.2855 1.2593 0.8145
C20A C 0.4441(3) 1.5439(3) 0.79520(18)
H20A H 0.5141 1.5050 0.7960
H21A H 0.4492 1.6055 0.7614
Zn2A Zn 0.70596(3) 1.82470(3) 0.966645(17)
Zn2_2 Zn 0.29404(3) -0.82470(3) 1.033355(17)
N4A N 0.59888(19) 1.7599(2) 0.93411(12)
C21A C 0.5973(3) 1.7608(3) 0.86827(15)
H22A H 0.6414 1.8010 0.8375
C22A C 0.5348(3) 1.7061(3) 0.84339(16)
H23A H 0.5345 1.7110 0.7964
C23A C 0.4718(2) 1.6434(3) 0.88715(16)
C24A C 0.4711(2) 1.6462(3) 0.95530(16)
H24A H 0.4270 1.6075 0.9872
C25A C 0.5333(2) 1.7041(3) 0.97665(15)
H25A H 0.5305 1.7053 1.0235
C26A C 0.4053(3) 1.5774(3) 0.86395(17)
H26A H 0.3999 1.5153 0.8973
H27A H 0.3351 1.6156 0.8628
O3A O 0.6100(2) 1.8308(2) 1.07955(14)
O4A O 0.6789(2) 1.9520(2) 1.00975(14)
C27A C 0.6255(3) 1.9218(3) 1.06502(17)
C28A C 0.5794(4) 2.0001(4) 1.1113(3)
H28A H 0.6293 2.0474 1.1119
H29A H 0.5166 2.0389 1.0954
H30A H 0.5624 1.9651 1.1567
N5A N 0.7883(2) 1.8905(2) 0.88124(12)
C29A C 0.7526(2) 1.9845(3) 0.85271(18)
H31A H 0.6878 2.0168 0.8714
C30A C 0.8054(3) 2.0361(3) 0.79760(18)
H32A H 0.7762 2.1017 0.7783
C31A C 0.9003(2) 1.9926(3) 0.77055(15)
C32A C 0.9379(3) 1.8951(3) 0.79917(15)
H33A H 1.0026 1.8618 0.7812
C33A C 0.8804(3) 1.8468(2) 0.85408(15)
H34A H 0.9071 1.7802 0.8733
C34A C 0.9609(3) 2.0472(3) 0.71100(15)
H35A H 0.9435 2.1223 0.7110
H36A H 1.0355 2.0289 0.7143
N6A N 1.13720(19) 2.14048(19) 0.47484(12)
N6_2 N -0.13720(19) 0.85952(19) -0.47484(12)
C35A C 1.0560(2) 2.1998(2) 0.50337(15)
H37A H 1.0431 2.2698 0.4848
C36A C 0.9905(3) 2.1636(3) 0.55849(16)
H38A H 0.9340 2.2081 0.5772
C37A C 1.0083(3) 2.0613(3) 0.58617(15)
C38A C 1.0933(3) 2.0010(3) 0.55796(16)
H39A H 1.1094 1.9315 0.5767
C39A C 1.1549(3) 2.0419(2) 0.50259(15)
H40A H 1.2120 1.9988 0.4833
C40A C 0.9374(3) 2.0185(3) 0.64562(16)
H41A H 0.8649 2.0453 0.6394
H42A H 0.9454 1.9428 0.6482
N7_2 N 0.19449(18) -0.70431(18) 0.99581(11)
N7A N 0.80551(18) 1.70431(18) 1.00419(11)
C41_2 C 0.2137(2) -0.6064(2) 0.98905(15)
H43_2 H 0.2706 -0.5923 1.0080
C42_2 C 0.1543(2) -0.5257(2) 0.95583(16)
H44_2 H 0.1712 -0.4579 0.9515
C43_2 C 0.0696(2) -0.5445(2) 0.92873(13)
C44_2 C 0.0470(2) -0.6443(2) 0.93854(16)
H45_2 H -0.0121 -0.6598 0.9227
C45_2 C 0.1108(2) -0.7216(2) 0.97153(15)
H46_2 H 0.0946 -0.7898 0.9772
C46_2 C 0.0074(3) -0.4618(3) 0.88697(15)
H47_2 H 0.0146 -0.3936 0.8982
H48_2 H -0.0665 -0.4711 0.8964
Zn3_2 Zn -0.23247(3) 0.81168(3) -0.390190(17)
Zn3A Zn -0.76753(3) -0.81168(3) 0.390190(17)
Zn3A_2 Zn 1.23247(3) 2.18832(3) 0.390190(17)
N8_2 N -0.13870(19) -0.27484(19) 0.67345(12)
C47_2 C -0.0359(2) -0.2758(2) 0.66653(14)
H49_2 H -0.0042 -0.2337 0.6296
C48_2 C 0.0257(2) -0.3355(2) 0.71097(15)
H50_2 H 0.0980 -0.3335 0.7046
C49_2 C -0.0187(2) -0.3983(2) 0.76490(14)
C50_2 C -0.1249(3) -0.3971(3) 0.77129(16)
H51_2 H -0.1585 -0.4392 0.8073
C51_2 C -0.1819(3) -0.3352(3) 0.72552(17)
H52_2 H -0.2545 -0.3353 0.7311
C52_2 C 0.0460(2) -0.4678(3) 0.81274(14)
H53_2 H 0.1173 -0.4504 0.8032
H54_2 H 0.0485 -0.5395 0.8041
O5_2 O -0.3023(2) 0.9484(2) -0.37202(12)
O6_2 O -0.3604(2) 0.8437(2) -0.28659(13)
C53_2 C -0.3603(3) 0.9310(3) -0.31647(16)
C54_2 C -0.4287(5) 1.0199(5) -0.2888(3)
H55_2 H -0.5011 1.0096 -0.2861
H56_2 H -0.4168 1.0836 -0.3182
H57_2 H -0.4128 1.0245 -0.2439
N9A N -0.68345(19) -0.7120(2) 0.41562(12)
N9_2 N -0.31655(19) 0.7120(2) -0.41562(12)
C55A C -0.7276(2) -0.6431(2) 0.45749(15)
H58A H -0.7973 -0.6456 0.4767
C56A C -0.6762(2) -0.5697(2) 0.47333(15)
H59A H -0.7108 -0.5222 0.5023
C57A C -0.5732(2) -0.5647(2) 0.44695(14)
C58A C -0.5272(2) -0.6379(2) 0.40535(15)
H60A H -0.4566 -0.6390 0.3874
C59A C -0.5833(2) -0.7083(2) 0.39017(15)
H61A H -0.5506 -0.7561 0.3608
C60A C -0.5145(2) -0.4859(2) 0.46401(15)
H62A H -0.4509 -0.4815 0.4318
H63A H -0.5571 -0.4179 0.4601
Cl1 Cl 0.73783(6) 0.18848(6) 0.25304(4)
O7 O 0.7853(2) 0.2722(2) 0.21180(15)
O8 O 0.6994(3) 0.1282(2) 0.21221(18)
O9 O 0.6544(2) 0.2294(2) 0.29855(17)
O10 O 0.8154(2) 0.1255(2) 0.28885(17)
Cl2 Cl 0.75075(7) 0.28721(7) 0.46936(4)
O11 O 0.7104(2) 0.37573(19) 0.42709(13)
O12 O 0.6797(3) 0.2140(3) 0.4815(2)
O13 O 0.8444(2) 0.2410(3) 0.4375(2)
O14 O 0.7659(4) 0.3164(3) 0.53180(19)
Cl3 Cl 0.71515(13) 0.39718(17) 0.86551(11)
O15 O 0.7015(4) 0.4403(7) 0.7991(3)
O16 O 0.8227(4) 0.3600(4) 0.8685(3)
O17 O 0.6879(6) 0.4754(5) 0.9079(5)
O18 O 0.6565(5) 0.3138(5) 0.8951(3)
O23 O 0.8686(4) 0.2545(3) 0.0717(2)
O24 O 0.2520(4) 0.8508(3) 0.0097(3)
O25 O 0.5818(5) 0.1823(6) 0.8342(5)
O26 O 0.400(2) 0.6973(13) 0.2795(14)
O27 O 0.2806(9) 0.8243(8) 0.3594(4)
O28 O 0.2211(15) 0.7307(11) 0.3050(7)
Cl4? Cl 0.7357(3) 0.3809(3) 0.9006(2)
O19? O 0.6272(8) 0.3762(8) 0.8845(5)
O20? O 0.7998(11) 0.3502(13) 0.8410(6)
O21? O 0.7597(11) 0.3113(14) 0.9585(6)
O22? O 0.7365(10) 0.4827(10) 0.9067(9)
loop_
_geom_bond_atom_site_label_1
_geom_bond_atom_site_label_2
_geom_bond_site_symmetry_1
_geom_bond_site_symmetry_2
Zn1 N1 1_555 1_555
N1 C1 1_555 1_555
C1 H1 1_555 1_555
C2 C1 1_555 1_555
H2 C2 1_555 1_555
C3 C2 1_555 1_555
C4 C3 1_555 1_555
H3 C4 1_555 1_555
C5 N1 1_555 1_555
H4 C5 1_555 1_555
C6 C3 1_555 1_555
H5 C6 1_555 1_555
H6 C6 1_555 1_555
O1 Zn1 1_555 1_555
O2 Zn1 1_555 1_555
C7 O1 1_555 1_555
C8 C7 1_555 1_555
H7 C8 1_555 1_555
H8 C8 1_555 1_555
H9 C8 1_555 1_555
N2 Zn1 1_555 1_555
C9 N2 1_555 1_555
H10 C9 1_555 1_555
C10 C9 1_555 1_555
H11 C10 1_555 1_555
C11 C10 1_555 1_555
C12 C11 1_555 1_555
H12 C12 1_555 1_555
C13 N2 1_555 1_555
H13 C13 1_555 1_555
C14 C11 1_555 1_555
H14 C14 1_555 1_555
H15 C14 1_555 1_555
N3 Zn1 1_555 1_555
C15 N3 1_555 1_555
H16 C15 1_555 1_555
C16 C15 1_555 1_555
H17 C16 1_555 1_555
C17 C16 1_555 1_555
C18 C17 1_555 1_555
H18 C18 1_555 1_555
C19 N3 1_555 1_555
H19 C19 1_555 1_555
C20 C17 1_555 1_555
H20 C20 1_555 1_555
H21 C20 1_555 1_555
Zn2 N4 1_555 1_555
N4 C21 1_555 1_555
C21 H22 1_555 1_555
C22 C21 1_555 1_555
H23 C22 1_555 1_555
C23 C22 1_555 1_555
C24 C23 1_555 1_555
H24 C24 1_555 1_555
C25 N4 1_555 1_555
H25 C25 1_555 1_555
C26 C20 1_555 1_555
H26 C26 1_555 1_555
H27 C26 1_555 1_555
O3 Zn2 1_555 1_555
O4 Zn2 1_555 1_555
C27 O3 1_555 1_555
C28 C27 1_555 1_555
H28 C28 1_555 1_555
H29 C28 1_555 1_555
H30 C28 1_555 1_555
N5 Zn2 1_555 1_555
C29 N5 1_555 1_555
H31 C29 1_555 1_555
C30 C29 1_555 1_555
H32 C30 1_555 1_555
C31 C30 1_555 1_555
C32 C31 1_555 1_555
H33 C32 1_555 1_555
C33 N5 1_555 1_555
H34 C33 1_555 1_555
C34 C31 1_555 1_555
H35 C34 1_555 1_555
H36 C34 1_555 1_555
N6 C35 1_555 1_555
C35 H37 1_555 1_555
C36 C35 1_555 1_555
H38 C36 1_555 1_555
C37 C36 1_555 1_555
C38 C37 1_555 1_555
H39 C38 1_555 1_555
C39 N6 1_555 1_555
H40 C39 1_555 1_555
C40 C34 1_555 1_555
H41 C40 1_555 1_555
H42 C40 1_555 1_555
N7 Zn2 1_555 1_555
C41 N7 1_555 1_555
H43 C41 1_555 1_555
C42 C41 1_555 1_555
H44 C42 1_555 1_555
C43 C42 1_555 1_555
C44 C43 1_555 1_555
H45 C44 1_555 1_555
C45 N7 1_555 1_555
H46 C45 1_555 1_555
C46 C43 1_555 1_555
H47 C46 1_555 1_555
H48 C46 1_555 1_555
Zn3 N6 1_555 1_555
N8 C47 1_555 1_555
C47 H49 1_555 1_555
C48 C47 1_555 1_555
H50 C48 1_555 1_555
C49 C48 1_555 1_555
C50 C49 1_555 1_555
H51 C50 1_555 1_555
C51 N8 1_555 1_555
H52 C51 1_555 1_555
C52 C46 1_555 1_555
H53 C52 1_555 1_555
H54 C52 1_555 1_555
O5 Zn3 1_555 1_555
O6 Zn3 1_555 1_555
C53 O5 1_555 1_555
C54 C53 1_555 1_555
H55 C54 1_555 1_555
H56 C54 1_555 1_555
H57 C54 1_555 1_555
N9 Zn3 1_555 1_555
C55 N9 1_555 1_555
H58 C55 1_555 1_555
C56 C55 1_555 1_555
H59 C56 1_555 1_555
C57 C56 1_555 1_555
C58 C57 1_555 1_555
H60 C58 1_555 1_555
C59 N9 1_555 1_555
H61 C59 1_555 1_555
C60 C57 1_555 1_555
H62 C60 1_555 1_555
H63 C60 1_555 1_555
Cl1 O7 1_555 1_555
O8 Cl1 1_555 1_555
O9 Cl1 1_555 1_555
O10 Cl1 1_555 1_555
Cl2 O11 1_555 1_555
O12 Cl2 1_555 1_555
O13 Cl2 1_555 1_555
O14 Cl2 1_555 1_555
Cl3 O15 1_555 1_555
O16 Cl3 1_555 1_555
O17 Cl3 1_555 1_555
O18 Cl3 1_555 1_555
Zn1A N1A 1_555 1_555
Zn1A_2 N2A 1_555 1_555
N1A C1A 1_555 1_555
C1A H1A 1_555 1_555
C2A C1A 1_555 1_555
H2A C2A 1_555 1_555
C3A C2A 1_555 1_555
C4A C3A 1_555 1_555
H3A C4A 1_555 1_555
C5A N1A 1_555 1_555
H4A C5A 1_555 1_555
C6A C6 1_555 1_555
H5A C6A 1_555 1_555
H6A C6A 1_555 1_555
O1A Zn1A 1_555 1_555
O2A Zn1A 1_555 1_555
C7A O1A 1_555 1_555
C8A C7A 1_555 1_555
H7A C8A 1_555 1_555
H8A C8A 1_555 1_555
H9A C8A 1_555 1_555
N2A C9A 1_555 1_555
N2A_2 Zn1A 1_555 1_555
C9A H10A 1_555 1_555
C10A C9A 1_555 1_555
H11A C10A 1_555 1_555
C11A C10A 1_555 1_555
C12A C11A 1_555 1_555
H12A C12A 1_555 1_555
C13A N2A 1_555 1_555
H13A C13A 1_555 1_555
C14A C14 1_555 1_555
H14A C14A 1_555 1_555
H15A C14A 1_555 1_555
N3A Zn1A 1_555 1_555
C15A N3A 1_555 1_555
H16A C15A 1_555 1_555
C16A C15A 1_555 1_555
H17A C16A 1_555 1_555
C17A C16A 1_555 1_555
C18A C17A 1_555 1_555
H18A C18A 1_555 1_555
C19A N3A 1_555 1_555
H19A C19A 1_555 1_555
C20A C17A 1_555 1_555
H20A C20A 1_555 1_555
H21A C20A 1_555 1_555
Zn2A N4A 1_555 1_555
Zn2_2 N7_2 1_555 1_555
N4A C21A 1_555 1_555
C21A H22A 1_555 1_555
C22A C21A 1_555 1_555
H23A C22A 1_555 1_555
C23A C22A 1_555 1_555
C24A C23A 1_555 1_555
H24A C24A 1_555 1_555
C25A N4A 1_555 1_555
H25A C25A 1_555 1_555
C26A C20A 1_555 1_555
H26A C26A 1_555 1_555
H27A C26A 1_555 1_555
O3A Zn2A 1_555 1_555
O4A Zn2A 1_555 1_555
C27A O3A 1_555 1_555
C28A C27A 1_555 1_555
H28A C28A 1_555 1_555
H29A C28A 1_555 1_555
H30A C28A 1_555 1_555
N5A Zn2A 1_555 1_555
C29A N5A 1_555 1_555
H31A C29A 1_555 1_555
C30A C29A 1_555 1_555
H32A C30A 1_555 1_555
C31A C30A 1_555 1_555
C32A C31A 1_555 1_555
H33A C32A 1_555 1_555
C33A N5A 1_555 1_555
H34A C33A 1_555 1_555
C34A C31A 1_555 1_555
H35A C34A 1_555 1_555
H36A C34A 1_555 1_555
N6A C35A 1_555 1_555
N6_2 Zn3_2 1_555 1_555
C35A H37A 1_555 1_555
C36A C35A 1_555 1_555
H38A C36A 1_555 1_555
C37A C36A 1_555 1_555
C38A C37A 1_555 1_555
H39A C38A 1_555 1_555
C39A N6A 1_555 1_555
H40A C39A 1_555 1_555
C40A C34A 1_555 1_555
H41A C40A 1_555 1_555
H42A C40A 1_555 1_555
N7_2 C41_2 1_555 1_555
N7A Zn2A 1_555 1_555
C41_2 H43_2 1_555 1_555
C42_2 C41_2 1_555 1_555
H44_2 C42_2 1_555 1_555
C43_2 C42_2 1_555 1_555
C44_2 C43_2 1_555 1_555
H45_2 C44_2 1_555 1_555
C45_2 N7_2 1_555 1_555
H46_2 C45_2 1_555 1_555
C46_2 C43_2 1_555 1_555
H47_2 C46_2 1_555 1_555
H48_2 C46_2 1_555 1_555
Zn3_2 N8 1_555 1_555
Zn3A N9A 1_555 1_555
Zn3A_2 N6A 1_555 1_555
N8_2 Zn3 1_555 1_555
C47_2 N8_2 1_555 1_555
H49_2 C47_2 1_555 1_555
C48_2 C47_2 1_555 1_555
H50_2 C48_2 1_555 1_555
C49_2 C48_2 1_555 1_555
C50_2 C49_2 1_555 1_555
H51_2 C50_2 1_555 1_555
C51_2 N8_2 1_555 1_555
H52_2 C51_2 1_555 1_555
C52_2 C46_2 1_555 1_555
H53_2 C52_2 1_555 1_555
H54_2 C52_2 1_555 1_555
O5_2 Zn3_2 1_555 1_555
O6_2 Zn3_2 1_555 1_555
C53_2 O5_2 1_555 1_555
C54_2 C53_2 1_555 1_555
H55_2 C54_2 1_555 1_555
H56_2 C54_2 1_555 1_555
H57_2 C54_2 1_555 1_555
N9A C55A 1_555 1_555
N9_2 Zn3_2 1_555 1_555
C55A H58A 1_555 1_555
C56A C55A 1_555 1_555
H59A C56A 1_555 1_555
C57A C56A 1_555 1_555
C58A C57A 1_555 1_555
H60A C58A 1_555 1_555
C59A N9A 1_555 1_555
H61A C59A 1_555 1_555
C60A C60 1_555 1_555
H62A C60A 1_555 1_555
H63A C60A 1_555 1_555
C4 C5 1_555 1_555
O2 C7 1_555 1_555
C12 C13 1_555 1_555
C18 C19 1_555 1_555
C23 C26 1_555 1_555
C24 C25 1_555 1_555
O4 C27 1_555 1_555
C32 C33 1_555 1_555
C37 C40 1_555 1_555
C38 C39 1_555 1_555
C44 C45 1_555 1_555
C49 C52 1_555 1_555
C50 C51 1_555 1_555
O6 C53 1_555 1_555
C58 C59 1_555 1_555
C3A C6A 1_555 1_555
C4A C5A 1_555 1_555
O2A C7A 1_555 1_555
C11A C14A 1_555 1_555
C12A C13A 1_555 1_555
C18A C19A 1_555 1_555
C23A C26A 1_555 1_555
C24A C25A 1_555 1_555
O4A C27A 1_555 1_555
C32A C33A 1_555 1_555
C37A C40A 1_555 1_555
C38A C39A 1_555 1_555
C44_2 C45_2 1_555 1_555
C49_2 C52_2 1_555 1_555
C50_2 C51_2 1_555 1_555
O6_2 C53_2 1_555 1_555
C57A C60A 1_555 1_555
C58A C59A 1_555 1_555

#END
