
#######################################################################
#
#                 Cambridge Crystallographic Data Centre
#                                CCDC 
#
#######################################################################
#
# If this CIF has been generated from an entry in the Cambridge 
# Structural Database, then it will include bibliographic, chemical, 
# crystal, experimental, refinement or atomic coordinate data resulting 
# from the CCDC's data processing and validation procedures.
#
#######################################################################

data_YIYJUL01
_symmetry_cell_setting           triclinic
_symmetry_space_group_name_H-M   'P -1'
_symmetry_Int_Tables_number      2
_space_group_name_Hall           '-P 1'
loop_
_symmetry_equiv_pos_site_id
_symmetry_equiv_pos_as_xyz
1 x,y,z
2 -x,-y,-z
_cell_length_a                   8.350(3)
_cell_length_b                   8.744(3)
_cell_length_c                   10.021(1)
_cell_angle_alpha                82.21(2)
_cell_angle_beta                 70.33(1)
_cell_angle_gamma                85.05(2)
_cell_volume                     681.956
loop_
_atom_site_label
_atom_site_type_symbol
_atom_site_fract_x
_atom_site_fract_y
_atom_site_fract_z
Ce1 Ce 0.00077(3) 0.23904(3) 0.07322(3)
Cl1 Cl -0.0683(2) 0.4669(1) -0.1323(1)
Cl2 Cl -0.3158(2) 0.2345(2) 0.2538(2)
Cl3 Cl -0.1067(2) 0.0755(1) -0.1090(2)
O1 O 0.3042(5) 0.2548(5) -0.0848(5)
C1 C 0.350(1) 0.197(1) -0.220(1)
C2 C 0.485(1) 0.282(2) -0.316(1)
C3 C 0.5621(9) 0.353(1) -0.2323(9)
C4 C 0.447(1) 0.333(1) -0.0867(9)
O2 O 0.0757(5) 0.2014(4) 0.2993(4)
C5 C -0.0260(9) 0.2672(7) 0.4297(6)
C6 C 0.097(1) 0.281(1) 0.5040(9)
C7 C 0.233(1) 0.166(1) 0.4553(7)
C8 C 0.2409(9) 0.152(1) 0.3083(7)
H1 H 0.3871 0.0891 -0.2144
H2 H 0.2539 0.2039 -0.2548
H3 H 0.5653 0.2230 -0.3836
H4 H 0.4401 0.3661 -0.3737
H5 H 0.6712 0.2993 -0.2400
H6 H 0.5838 0.4589 -0.2668
H7 H 0.5036 0.2761 -0.0276
H8 H 0.4118 0.4328 -0.0561
H9 H -0.0763 0.3659 0.4081
H10 H -0.1136 0.1996 0.4873
H11 H 0.1404 0.3849 0.4804
H12 H 0.0432 0.2649 0.6054
H13 H 0.3412 0.1988 0.4553
H14 H 0.2097 0.0688 0.5126
H15 H 0.2691 0.0478 0.2870
H16 H 0.3273 0.2172 0.2410
Ce1A Ce -0.00077(3) 0.76096(3) -0.07322(3)
Cl1A Cl 0.0683(2) 0.5331(1) 0.1323(1)
Ce1A_2 Ce -0.00077(3) -0.23904(3) -0.07322(3)
Cl3A Cl 0.1067(2) -0.0755(1) 0.1090(2)
loop_
_geom_bond_atom_site_label_1
_geom_bond_atom_site_label_2
_geom_bond_site_symmetry_1
_geom_bond_site_symmetry_2
Ce1 Cl1 1_555 1_555
Cl1 Ce1A 1_555 1_555
Cl2 Ce1 1_555 1_555
Cl3 Ce1 1_555 1_555
O1 Ce1 1_555 1_555
C1 O1 1_555 1_555
C2 C1 1_555 1_555
C3 C2 1_555 1_555
C4 O1 1_555 1_555
O2 Ce1 1_555 1_555
C5 O2 1_555 1_555
C6 C5 1_555 1_555
C7 C6 1_555 1_555
C8 O2 1_555 1_555
H1 C1 1_555 1_555
H2 C1 1_555 1_555
H3 C2 1_555 1_555
H4 C2 1_555 1_555
H5 C3 1_555 1_555
H6 C3 1_555 1_555
H7 C4 1_555 1_555
H8 C4 1_555 1_555
H9 C5 1_555 1_555
H10 C5 1_555 1_555
H11 C6 1_555 1_555
H12 C6 1_555 1_555
H13 C7 1_555 1_555
H14 C7 1_555 1_555
H15 C8 1_555 1_555
H16 C8 1_555 1_555
Ce1A Cl1A 1_555 1_555
Cl1A Ce1 1_555 1_555
Ce1A_2 Cl3 1_555 1_555
Cl3A Ce1 1_555 1_555
C3 C4 1_555 1_555
C7 C8 1_555 1_555
Ce1A_2 Cl3A 1_555 1_555

#END
