
#######################################################################
#
#                 Cambridge Crystallographic Data Centre
#                                CCDC 
#
#######################################################################
#
# If this CIF has been generated from an entry in the Cambridge 
# Structural Database, then it will include bibliographic, chemical, 
# crystal, experimental, refinement or atomic coordinate data resulting 
# from the CCDC's data processing and validation procedures.
#
#######################################################################

data_YIYQUU
_symmetry_cell_setting           monoclinic
_symmetry_space_group_name_H-M   'C 2/c'
_symmetry_Int_Tables_number      15
_space_group_name_Hall           '-C 2yn'
loop_
_symmetry_equiv_pos_site_id
_symmetry_equiv_pos_as_xyz
1 x,y,z
2 -x,y,1/2-z
3 1/2+x,1/2+y,z
4 1/2-x,1/2+y,1/2-z
5 -x,-y,-z
6 x,-y,1/2+z
7 1/2-x,1/2-y,-z
8 1/2+x,1/2-y,1/2+z
_cell_length_a                   31.331(3)
_cell_length_b                   31.780(8)
_cell_length_c                   18.834(3)
_cell_angle_alpha                90
_cell_angle_beta                 115.962(7)
_cell_angle_gamma                90
_cell_volume                     16860.5
loop_
_atom_site_label
_atom_site_type_symbol
_atom_site_fract_x
_atom_site_fract_y
_atom_site_fract_z
Zn1 Zn 0.5000 0.25317(2) 0.2500
Zn2 Zn 0.28198(2) 0.46727(2) 0.25541(3)
Zn3 Zn 0.21464(2) 0.53292(2) 0.25095(3)
C1 C 0.38928(12) 0.36248(11) 0.2615(2)
C2 C 0.37404(12) 0.32954(11) 0.2058(2)
H1 H 0.3417 0.3278 0.1684
C3 C 0.40658(12) 0.29942(11) 0.2054(2)
H2 H 0.3954 0.2775 0.1675
N1 N 0.45265(10) 0.30013(9) 0.25607(19)
C4 C 0.46751(13) 0.33126(11) 0.3089(3)
H3 H 0.5002 0.3324 0.3452
C5 C 0.43731(13) 0.36213(12) 0.3131(3)
H4 H 0.4498 0.3835 0.3523
B1 B 0.35248(15) 0.39820(13) 0.2604(3)
O1 O 0.37331(10) 0.41788(9) 0.33924(19)
N2 N 0.34953(11) 0.45358(10) 0.3486(2)
C6 C 0.37509(13) 0.47414(11) 0.4112(2)
H5 H 0.4060 0.4635 0.4432
C7 C 0.36094(13) 0.51263(11) 0.4379(2)
C8 C 0.31473(13) 0.53051(11) 0.3996(2)
C9 C 0.30659(13) 0.56852(11) 0.4316(2)
C10 C 0.34305(14) 0.58723(12) 0.4970(2)
H6 H 0.3366 0.6128 0.5168
C11 C 0.38854(14) 0.57011(13) 0.5346(3)
C12 C 0.39642(14) 0.53249(12) 0.5045(3)
H7 H 0.4268 0.5197 0.5297
C13 C 0.26114(13) 0.59081(13) 0.3984(2)
H8 H 0.2588 0.6152 0.4256
N3 N 0.22415(11) 0.58043(10) 0.3357(2)
O2 O 0.18674(10) 0.60901(10) 0.31946(19)
B2 B 0.14350(16) 0.60236(14) 0.2444(3)
O3 O 0.30727(9) 0.37612(9) 0.24202(19)
N4 N 0.27012(11) 0.40148(10) 0.2409(2)
C14 C 0.23453(12) 0.37890(12) 0.2331(2)
H9 H 0.2368 0.3495 0.2266
C15 C 0.19062(13) 0.39435(12) 0.2332(2)
C16 C 0.18090(13) 0.43823(12) 0.2360(3)
C17 C 0.13737(15) 0.44831(13) 0.2391(3)
C18 C 0.10722(17) 0.41621(13) 0.2412(4)
H10 H 0.0788 0.4239 0.2445
C19 C 0.11691(16) 0.37374(13) 0.2387(3)
C20 C 0.15860(15) 0.36377(14) 0.2334(3)
H11 H 0.1656 0.3350 0.2297
C21 C 0.12195(15) 0.49155(12) 0.2404(3)
H12 H 0.0917 0.4952 0.2399
N5 N 0.14500(12) 0.52501(10) 0.2420(3)
O4 O 0.11984(11) 0.56152(9) 0.2446(2)
O5 O 0.34922(10) 0.42756(9) 0.1975(2)
N6 N 0.31739(12) 0.46116(10) 0.1820(2)
C22 C 0.31731(14) 0.48508(12) 0.1271(2)
H13 H 0.3379 0.4774 0.1043
C23 C 0.28874(14) 0.52294(12) 0.0964(2)
C24 C 0.25739(14) 0.53902(12) 0.1267(2)
C25 C 0.23052(15) 0.57538(12) 0.0896(2)
C26 C 0.23675(17) 0.59509(14) 0.0282(3)
H14 H 0.2189 0.6197 0.0051
C27 C 0.26789(17) 0.58019(14) -0.0002(3)
C28 C 0.29295(16) 0.54350(13) 0.0342(3)
H15 H 0.3137 0.5321 0.0145
C29 C 0.19603(15) 0.59497(13) 0.1124(2)
H16 H 0.1796 0.6191 0.0836
N7 N 0.18624(12) 0.58233(11) 0.1679(2)
O6 O 0.15132(12) 0.60764(10) 0.1740(2)
C30 C 0.10798(13) 0.63908(11) 0.2440(2)
C31 C 0.09496(14) 0.67292(12) 0.1910(3)
H17 H 0.1067 0.6744 0.1524
C32 C 0.06487(13) 0.70457(12) 0.1943(2)
H18 H 0.0569 0.7272 0.1578
N8 N 0.04697(11) 0.70418(9) 0.2468(2)
C33 C 0.05861(13) 0.67156(11) 0.2976(3)
H19 H 0.0459 0.6708 0.3351
C34 C 0.08827(13) 0.63895(12) 0.2978(2)
H20 H 0.0952 0.6165 0.3346
O7 O 0.28069(9) 0.51162(8) 0.33867(17)
C35 C 0.42802(16) 0.59141(16) 0.6056(3)
H21 H 0.4588 0.5847 0.6065
H22 H 0.4274 0.5812 0.6543
H23 H 0.4232 0.6219 0.6016
O8 O 0.21023(9) 0.46726(8) 0.23557(18)
C36 C 0.0831(2) 0.34010(17) 0.2420(5)
H24 H 0.0589 0.3533 0.2544
H25 H 0.1010 0.3195 0.2829
H26 H 0.0677 0.3259 0.1907
O9 O 0.25353(11) 0.52080(9) 0.18612(19)
C37 C 0.2748(2) 0.60273(19) -0.0649(3)
H27 H 0.2785 0.5820 -0.1005
H28 H 0.3034 0.6203 -0.0416
H29 H 0.2472 0.6205 -0.0948
N9 N 0.42399(16) 0.25419(15) -0.0106(3)
C38 C 0.4196(3) 0.2330(3) -0.0822(4)
H30 H 0.3860 0.2312 -0.1200
H31 H 0.4328 0.2045 -0.0690
H32 H 0.4370 0.2489 -0.1057
C39 C 0.3962(3) 0.2929(2) -0.0186(4)
H33 H 0.3624 0.2870 -0.0501
H34 H 0.4063 0.3147 -0.0450
H35 H 0.4015 0.3029 0.0339
C40 C 0.45308(16) 0.24026(15) 0.0611(3)
H36 H 0.4700 0.2150 0.0642
O10 O 0.45975(10) 0.25729(9) 0.12278(17)
Zn2A Zn 0.71802(2) 0.46727(2) 0.24459(3)
Zn3A Zn 0.78536(2) 0.53292(2) 0.24905(3)
C1A C 0.61072(12) 0.36248(11) 0.2385(2)
C2A C 0.62596(12) 0.32954(11) 0.2942(2)
H1A H 0.6583 0.3278 0.3316
C3A C 0.59342(12) 0.29942(11) 0.2946(2)
H2A H 0.6046 0.2775 0.3325
N1A N 0.54735(10) 0.30013(9) 0.24393(19)
C4A C 0.53249(13) 0.33126(11) 0.1911(3)
H3A H 0.4998 0.3324 0.1548
C5A C 0.56269(13) 0.36213(12) 0.1869(3)
H4A H 0.5502 0.3835 0.1477
B1A B 0.64752(15) 0.39820(13) 0.2396(3)
O1A O 0.62669(10) 0.41788(9) 0.16076(19)
N2A N 0.65047(11) 0.45358(10) 0.1514(2)
C6A C 0.62491(13) 0.47414(11) 0.0888(2)
H5A H 0.5940 0.4635 0.0568
C7A C 0.63906(13) 0.51263(11) 0.0621(2)
C8A C 0.68527(13) 0.53051(11) 0.1004(2)
C9A C 0.69341(13) 0.56852(11) 0.0684(2)
C10A C 0.65695(14) 0.58723(12) 0.0030(2)
H6A H 0.6634 0.6128 -0.0168
C11A C 0.61146(14) 0.57011(13) -0.0346(3)
C12A C 0.60358(14) 0.53249(12) -0.0045(3)
H7A H 0.5732 0.5197 -0.0297
C13A C 0.73886(13) 0.59081(13) 0.1016(2)
H8A H 0.7412 0.6152 0.0744
N3A N 0.77585(11) 0.58043(10) 0.1643(2)
O2A O 0.81326(10) 0.60901(10) 0.18054(19)
B2A B 0.85650(16) 0.60236(14) 0.2556(3)
O3A O 0.69273(9) 0.37612(9) 0.25798(19)
N4A N 0.72988(11) 0.40148(10) 0.2591(2)
C14A C 0.76547(12) 0.37890(12) 0.2669(2)
H9A H 0.7632 0.3495 0.2734
C15A C 0.80938(13) 0.39435(12) 0.2668(2)
C16A C 0.81910(13) 0.43823(12) 0.2640(3)
C17A C 0.86263(15) 0.44831(13) 0.2609(3)
C18A C 0.89278(17) 0.41621(13) 0.2588(4)
H10A H 0.9212 0.4239 0.2555
C19A C 0.88309(16) 0.37374(13) 0.2613(3)
C20A C 0.84140(15) 0.36377(14) 0.2666(3)
H11A H 0.8344 0.3350 0.2703
C21A C 0.87805(15) 0.49155(12) 0.2596(3)
H12A H 0.9083 0.4952 0.2601
N5A N 0.85500(12) 0.52501(10) 0.2580(3)
O4A O 0.88016(11) 0.56152(9) 0.2554(2)
O5A O 0.65078(10) 0.42756(9) 0.3025(2)
N6A N 0.68261(12) 0.46116(10) 0.3180(2)
C22A C 0.68269(14) 0.48508(12) 0.3729(2)
H13A H 0.6621 0.4774 0.3957
C23A C 0.71126(14) 0.52294(12) 0.4036(2)
C24A C 0.74261(14) 0.53902(12) 0.3733(2)
C25A C 0.76948(15) 0.57538(12) 0.4104(2)
C26A C 0.76325(17) 0.59509(14) 0.4718(3)
H14A H 0.7811 0.6197 0.4949
C27A C 0.73211(17) 0.58019(14) 0.5002(3)
C28A C 0.70705(16) 0.54350(13) 0.4658(3)
H15A H 0.6863 0.5321 0.4855
C29A C 0.80397(15) 0.59497(13) 0.3876(2)
H16A H 0.8204 0.6191 0.4164
N7A N 0.81376(12) 0.58233(11) 0.3321(2)
O6A O 0.84868(12) 0.60764(10) 0.3260(2)
C30A C 0.89202(13) 0.63908(11) 0.2560(2)
C31A C 0.90504(14) 0.67292(12) 0.3090(3)
H17A H 0.8933 0.6744 0.3476
C32A C 0.93513(13) 0.70457(12) 0.3057(2)
H18A H 0.9431 0.7272 0.3422
N8A N 0.95303(11) 0.70418(9) 0.2532(2)
C33A C 0.94139(13) 0.67156(11) 0.2024(3)
H19A H 0.9541 0.6708 0.1649
C34A C 0.91173(13) 0.63895(12) 0.2022(2)
H20A H 0.9048 0.6165 0.1654
O7A O 0.71931(9) 0.51162(8) 0.16133(17)
C35A C 0.57198(16) 0.59141(16) -0.1056(3)
H21A H 0.5412 0.5847 -0.1065
H22A H 0.5726 0.5812 -0.1543
H23A H 0.5768 0.6219 -0.1016
O8A O 0.78977(9) 0.46726(8) 0.26443(18)
C36A C 0.9169(2) 0.34010(17) 0.2580(5)
H24A H 0.9411 0.3533 0.2456
H25A H 0.8990 0.3195 0.2171
H26A H 0.9323 0.3259 0.3093
O9A O 0.74647(11) 0.52080(9) 0.31388(19)
C37A C 0.7252(2) 0.60273(19) 0.5649(3)
H27A H 0.7215 0.5820 0.6005
H28A H 0.6966 0.6203 0.5416
H29A H 0.7528 0.6205 0.5948
N9A N 0.57601(16) 0.25419(15) 0.5106(3)
C38A C 0.5804(3) 0.2330(3) 0.5822(4)
H30A H 0.6140 0.2312 0.6200
H31A H 0.5672 0.2045 0.5690
H32A H 0.5630 0.2489 0.6057
C39A C 0.6038(3) 0.2929(2) 0.5186(4)
H33A H 0.6376 0.2870 0.5501
H34A H 0.5937 0.3147 0.5450
H35A H 0.5985 0.3029 0.4661
C40A C 0.54692(16) 0.24026(15) 0.4389(3)
H36A H 0.5300 0.2150 0.4358
O10A O 0.54025(10) 0.25729(9) 0.37722(17)
Zn1B Zn 0.0000 0.75317(2) 0.2500
Zn1B_2 Zn 1.0000 0.75317(2) 0.2500
N8B N 0.54697(11) 0.20418(9) 0.2468(2)
N8C N 0.45303(11) 0.20418(9) 0.2532(2)
N10 N 0.2399(3) 0.7268(2) 0.2611(6)
C41 C 0.2252(5) 0.6846(4) 0.2349(12)
H37 H 0.2514 0.6652 0.2636
H38 H 0.2161 0.6826 0.1781
H39 H 0.1980 0.6772 0.2450
C42 C 0.1982(5) 0.7561(4) 0.2370(13)
H40 H 0.1769 0.7518 0.1810
H41 H 0.2095 0.7852 0.2456
H42 H 0.1811 0.7502 0.2687
C43 C 0.2821(4) 0.7430(3) 0.2932(8)
H43 H 0.3070 0.7232 0.3042
O11 O 0.29441(18) 0.77622(16) 0.3104(4)
N11 N 0.0852(2) 0.6586(2) -0.0440(4)
C44 C 0.0934(3) 0.6182(3) -0.0727(6)
H44 H 0.0670 0.6119 -0.1240
H45 H 0.0958 0.5960 -0.0349
H46 H 0.1230 0.6195 -0.0784
C45 C 0.0417(4) 0.6655(5) -0.0375(8)
H47 H 0.0147 0.6616 -0.0893
H48 H 0.0413 0.6943 -0.0191
H49 H 0.0394 0.6455 0.0002
C46 C 0.1187(3) 0.6891(3) -0.0174(5)
H50 H 0.1103 0.7151 -0.0017
O12 O 0.1599(3) 0.6856(2) -0.0120(6)
N12 N 0.1628(3) 0.4729(3) -0.0019(5)
C47 C 0.1953(3) 0.4383(3) 0.0338(6)
H51 H 0.1855 0.4140 -0.0019
H52 H 0.1948 0.4306 0.0839
H53 H 0.2274 0.4468 0.0438
C48 C 0.1636(4) 0.4909(3) -0.0721(5)
H54 H 0.1401 0.5135 -0.0923
H55 H 0.1559 0.4690 -0.1126
H56 H 0.1953 0.5022 -0.0590
C49 C 0.1331(4) 0.4884(4) 0.0270(7)
H57 H 0.1371 0.4778 0.0768
O13 O 0.1023(4) 0.5141(4) -0.0037(6)
N13 N 0.2065(3) 0.6876(2) 0.4961(5)
C50 C 0.1671(4) 0.6777(4) 0.5184(7)
H58 H 0.1516 0.7038 0.5218
H59 H 0.1802 0.6634 0.5696
H60 H 0.1439 0.6593 0.4782
C51 C 0.1908(4) 0.7131(4) 0.4247(7)
H61 H 0.2181 0.7202 0.4148
H62 H 0.1760 0.7389 0.4315
H63 H 0.1677 0.6971 0.3798
C52 C 0.2480(3) 0.6739(3) 0.5380(5)
H64 H 0.2537 0.6579 0.5839
O14 O 0.2849(2) 0.68155(18) 0.5193(4)
N14 N 0.4281(3) 0.3247(2) 0.4850(4)
C53 C 0.3793(3) 0.3128(3) 0.4389(6)
H65 H 0.3621 0.3359 0.4036
H66 H 0.3646 0.3065 0.4742
H67 H 0.3778 0.2877 0.4075
C54 C 0.4364(5) 0.3659(3) 0.5202(7)
H68 H 0.4655 0.3777 0.5209
H69 H 0.4399 0.3639 0.5743
H70 H 0.4095 0.3843 0.4892
C55 C 0.4633(4) 0.2972(3) 0.4935(5)
H71 H 0.4954 0.3058 0.5223
O15 O 0.4546(3) 0.2605(2) 0.4642(4)
N15 N 0.4926(2) 0.08103(17) 0.0298(3)
C56 C 0.5323(3) 0.0514(3) 0.0650(6)
H72 H 0.5200 0.0228 0.0612
H73 H 0.5514 0.0587 0.1207
H74 H 0.5522 0.0531 0.0368
C57 C 0.4612(3) 0.0754(3) -0.0538(4)
H75 H 0.4384 0.0987 -0.0723
H76 H 0.4439 0.0487 -0.0614
H77 H 0.4799 0.0749 -0.0840
C58 C 0.4861(3) 0.1115(2) 0.0724(4)
H78 H 0.5073 0.1133 0.1269
O16 O 0.4536(2) 0.13788(18) 0.0446(4)
N16? N 0.1591(7) 0.4809(9) -0.0177(13)
C59? C 0.1347(11) 0.4582(12) 0.0212(18)
H79? H 0.1007 0.4648 -0.0051
H80? H 0.1477 0.4669 0.0767
H81? H 0.1393 0.4279 0.0183
C60? C 0.1975(8) 0.4593(12) -0.0261(17)
H82? H 0.1865 0.4316 -0.0499
H83? H 0.2244 0.4559 0.0260
H84? H 0.2074 0.4760 -0.0600
C61? C 0.1475(10) 0.5214(10) -0.0469(14)
H85? H 0.1651 0.5342 -0.0715
O17? O 0.1152(10) 0.5414(12) -0.0421(17)
loop_
_geom_bond_atom_site_label_1
_geom_bond_atom_site_label_2
_geom_bond_site_symmetry_1
_geom_bond_site_symmetry_2
Zn1 N1 1_555 1_555
Zn2 N2 1_555 1_555
Zn3 N3 1_555 1_555
C1 C2 1_555 1_555
C2 H1 1_555 1_555
C3 C2 1_555 1_555
H2 C3 1_555 1_555
N1 C3 1_555 1_555
C4 N1 1_555 1_555
H3 C4 1_555 1_555
C5 C1 1_555 1_555
H4 C5 1_555 1_555
B1 C1 1_555 1_555
O1 B1 1_555 1_555
N2 O1 1_555 1_555
C6 N2 1_555 1_555
H5 C6 1_555 1_555
C7 C6 1_555 1_555
C8 C7 1_555 1_555
C9 C8 1_555 1_555
C10 C9 1_555 1_555
H6 C10 1_555 1_555
C11 C10 1_555 1_555
C12 C7 1_555 1_555
H7 C12 1_555 1_555
C13 C9 1_555 1_555
H8 C13 1_555 1_555
N3 C13 1_555 1_555
O2 N3 1_555 1_555
B2 O2 1_555 1_555
O3 B1 1_555 1_555
N4 Zn2 1_555 1_555
C14 N4 1_555 1_555
H9 C14 1_555 1_555
C15 C14 1_555 1_555
C16 C15 1_555 1_555
C17 C16 1_555 1_555
C18 C17 1_555 1_555
H10 C18 1_555 1_555
C19 C18 1_555 1_555
C20 C15 1_555 1_555
H11 C20 1_555 1_555
C21 C17 1_555 1_555
H12 C21 1_555 1_555
N5 Zn3 1_555 1_555
O4 B2 1_555 1_555
O5 B1 1_555 1_555
N6 Zn2 1_555 1_555
C22 N6 1_555 1_555
H13 C22 1_555 1_555
C23 C22 1_555 1_555
C24 C23 1_555 1_555
C25 C24 1_555 1_555
C26 C25 1_555 1_555
H14 C26 1_555 1_555
C27 C26 1_555 1_555
C28 C23 1_555 1_555
H15 C28 1_555 1_555
C29 C25 1_555 1_555
H16 C29 1_555 1_555
N7 Zn3 1_555 1_555
O6 B2 1_555 1_555
C30 B2 1_555 1_555
C31 C30 1_555 1_555
H17 C31 1_555 1_555
C32 C31 1_555 1_555
H18 C32 1_555 1_555
N8 C32 1_555 1_555
C33 N8 1_555 1_555
H19 C33 1_555 1_555
C34 C30 1_555 1_555
H20 C34 1_555 1_555
O7 Zn2 1_555 1_555
C35 C11 1_555 1_555
H21 C35 1_555 1_555
H22 C35 1_555 1_555
H23 C35 1_555 1_555
O8 Zn2 1_555 1_555
C36 C19 1_555 1_555
H24 C36 1_555 1_555
H25 C36 1_555 1_555
H26 C36 1_555 1_555
O9 Zn2 1_555 1_555
C37 C27 1_555 1_555
H27 C37 1_555 1_555
H28 C37 1_555 1_555
H29 C37 1_555 1_555
N9 C38 1_555 1_555
C38 H30 1_555 1_555
H31 C38 1_555 1_555
H32 C38 1_555 1_555
C39 N9 1_555 1_555
H33 C39 1_555 1_555
H34 C39 1_555 1_555
H35 C39 1_555 1_555
C40 N9 1_555 1_555
H36 C40 1_555 1_555
O10 Zn1 1_555 1_555
N10 C41 1_555 1_555
C41 H37 1_555 1_555
H38 C41 1_555 1_555
H39 C41 1_555 1_555
C42 N10 1_555 1_555
H40 C42 1_555 1_555
H41 C42 1_555 1_555
H42 C42 1_555 1_555
C43 N10 1_555 1_555
H43 C43 1_555 1_555
O11 C43 1_555 1_555
N11 C44 1_555 1_555
C44 H44 1_555 1_555
H45 C44 1_555 1_555
H46 C44 1_555 1_555
C45 N11 1_555 1_555
H47 C45 1_555 1_555
H48 C45 1_555 1_555
H49 C45 1_555 1_555
C46 N11 1_555 1_555
H50 C46 1_555 1_555
O12 C46 1_555 1_555
N12 C47 1_555 1_555
C47 H51 1_555 1_555
H52 C47 1_555 1_555
H53 C47 1_555 1_555
C48 N12 1_555 1_555
H54 C48 1_555 1_555
H55 C48 1_555 1_555
H56 C48 1_555 1_555
C49 N12 1_555 1_555
H57 C49 1_555 1_555
O13 C49 1_555 1_555
N13 C50 1_555 1_555
C50 H58 1_555 1_555
H59 C50 1_555 1_555
H60 C50 1_555 1_555
C51 N13 1_555 1_555
H61 C51 1_555 1_555
H62 C51 1_555 1_555
H63 C51 1_555 1_555
C52 N13 1_555 1_555
H64 C52 1_555 1_555
O14 C52 1_555 1_555
N14 C53 1_555 1_555
C53 H65 1_555 1_555
H66 C53 1_555 1_555
H67 C53 1_555 1_555
C54 N14 1_555 1_555
H68 C54 1_555 1_555
H69 C54 1_555 1_555
H70 C54 1_555 1_555
C55 N14 1_555 1_555
H71 C55 1_555 1_555
O15 C55 1_555 1_555
N15 C56 1_555 1_555
C56 H72 1_555 1_555
H73 C56 1_555 1_555
H74 C56 1_555 1_555
C57 N15 1_555 1_555
H75 C57 1_555 1_555
H76 C57 1_555 1_555
H77 C57 1_555 1_555
C58 N15 1_555 1_555
H78 C58 1_555 1_555
O16 C58 1_555 1_555
Zn2A N2A 1_555 1_555
Zn3A N3A 1_555 1_555
C1A C2A 1_555 1_555
C2A H1A 1_555 1_555
C3A C2A 1_555 1_555
H2A C3A 1_555 1_555
N1A Zn1 1_555 1_555
C4A N1A 1_555 1_555
H3A C4A 1_555 1_555
C5A C1A 1_555 1_555
H4A C5A 1_555 1_555
B1A C1A 1_555 1_555
O1A B1A 1_555 1_555
N2A O1A 1_555 1_555
C6A N2A 1_555 1_555
H5A C6A 1_555 1_555
C7A C6A 1_555 1_555
C8A C7A 1_555 1_555
C9A C8A 1_555 1_555
C10A C9A 1_555 1_555
H6A C10A 1_555 1_555
C11A C10A 1_555 1_555
C12A C7A 1_555 1_555
H7A C12A 1_555 1_555
C13A C9A 1_555 1_555
H8A C13A 1_555 1_555
N3A C13A 1_555 1_555
O2A N3A 1_555 1_555
B2A O2A 1_555 1_555
O3A B1A 1_555 1_555
N4A Zn2A 1_555 1_555
C14A N4A 1_555 1_555
H9A C14A 1_555 1_555
C15A C14A 1_555 1_555
C16A C15A 1_555 1_555
C17A C16A 1_555 1_555
C18A C17A 1_555 1_555
H10A C18A 1_555 1_555
C19A C18A 1_555 1_555
C20A C15A 1_555 1_555
H11A C20A 1_555 1_555
C21A C17A 1_555 1_555
H12A C21A 1_555 1_555
N5A Zn3A 1_555 1_555
O4A B2A 1_555 1_555
O5A B1A 1_555 1_555
N6A Zn2A 1_555 1_555
C22A N6A 1_555 1_555
H13A C22A 1_555 1_555
C23A C22A 1_555 1_555
C24A C23A 1_555 1_555
C25A C24A 1_555 1_555
C26A C25A 1_555 1_555
H14A C26A 1_555 1_555
C27A C26A 1_555 1_555
C28A C23A 1_555 1_555
H15A C28A 1_555 1_555
C29A C25A 1_555 1_555
H16A C29A 1_555 1_555
N7A Zn3A 1_555 1_555
O6A B2A 1_555 1_555
C30A B2A 1_555 1_555
C31A C30A 1_555 1_555
H17A C31A 1_555 1_555
C32A C31A 1_555 1_555
H18A C32A 1_555 1_555
N8A C32A 1_555 1_555
C33A N8A 1_555 1_555
H19A C33A 1_555 1_555
C34A C30A 1_555 1_555
H20A C34A 1_555 1_555
O7A Zn2A 1_555 1_555
C35A C11A 1_555 1_555
H21A C35A 1_555 1_555
H22A C35A 1_555 1_555
H23A C35A 1_555 1_555
O8A Zn2A 1_555 1_555
C36A C19A 1_555 1_555
H24A C36A 1_555 1_555
H25A C36A 1_555 1_555
H26A C36A 1_555 1_555
O9A Zn2A 1_555 1_555
C37A C27A 1_555 1_555
H27A C37A 1_555 1_555
H28A C37A 1_555 1_555
H29A C37A 1_555 1_555
N9A C38A 1_555 1_555
C38A H30A 1_555 1_555
H31A C38A 1_555 1_555
H32A C38A 1_555 1_555
C39A N9A 1_555 1_555
H33A C39A 1_555 1_555
H34A C39A 1_555 1_555
H35A C39A 1_555 1_555
C40A N9A 1_555 1_555
H36A C40A 1_555 1_555
O10A Zn1 1_555 1_555
Zn1B N8 1_555 1_555
Zn1B_2 N8A 1_555 1_555
N8B Zn1 1_555 1_555
N8C Zn1 1_555 1_555
Zn3 O7 1_555 1_555
Zn3 O8 1_555 1_555
Zn3 O9 1_555 1_555
C4 C5 1_555 1_555
C8 O7 1_555 1_555
C11 C12 1_555 1_555
O3 N4 1_555 1_555
C16 O8 1_555 1_555
C19 C20 1_555 1_555
C21 N5 1_555 1_555
N5 O4 1_555 1_555
O5 N6 1_555 1_555
C24 O9 1_555 1_555
C27 C28 1_555 1_555
C29 N7 1_555 1_555
N7 O6 1_555 1_555
C33 C34 1_555 1_555
C40 O10 1_555 1_555
Zn3A O7A 1_555 1_555
Zn3A O8A 1_555 1_555
Zn3A O9A 1_555 1_555
C3A N1A 1_555 1_555
C4A C5A 1_555 1_555
C8A O7A 1_555 1_555
C11A C12A 1_555 1_555
O3A N4A 1_555 1_555
C16A O8A 1_555 1_555
C19A C20A 1_555 1_555
C21A N5A 1_555 1_555
N5A O4A 1_555 1_555
O5A N6A 1_555 1_555
C24A O9A 1_555 1_555
C27A C28A 1_555 1_555
C29A N7A 1_555 1_555
N7A O6A 1_555 1_555
C33A C34A 1_555 1_555
C40A O10A 1_555 1_555

#END
