
#######################################################################
#
#                 Cambridge Crystallographic Data Centre
#                                CCDC 
#
#######################################################################
#
# If this CIF has been generated from an entry in the Cambridge 
# Structural Database, then it will include bibliographic, chemical, 
# crystal, experimental, refinement or atomic coordinate data resulting 
# from the CCDC's data processing and validation procedures.
#
#######################################################################

data_YIYQIH
_symmetry_cell_setting           triclinic
_symmetry_space_group_name_H-M   'P -1'
_symmetry_Int_Tables_number      2
_space_group_name_Hall           '-P 1'
loop_
_symmetry_equiv_pos_site_id
_symmetry_equiv_pos_as_xyz
1 x,y,z
2 -x,-y,-z
_cell_length_a                   10.403(1)
_cell_length_b                   10.719(1)
_cell_length_c                   11.372(1)
_cell_angle_alpha                69.80(5)
_cell_angle_beta                 87.18(5)
_cell_angle_gamma                67.07(5)
_cell_volume                     1090.7
loop_
_atom_site_label
_atom_site_type_symbol
_atom_site_fract_x
_atom_site_fract_y
_atom_site_fract_z
Pb1 Pb 0.31876(3) -0.00356(3) 0.06709(3)
Pb2 Pb 0.33757(3) 0.03484(3) -0.29198(3)
O1 O 0.2521(6) 0.1636(6) -0.1630(5)
O2 O 0.4818(6) -0.0917(5) -0.0653(5)
O3 O 0.0786(7) 0.0716(7) -0.3026(6)
C1 C 0.0403(14) -0.0300(15) -0.3260(13)
H1 H 0.0422 -0.1036 -0.2476
H2 H -0.0525 0.0175 -0.3688
H3 H 0.1052 -0.0736 -0.3775
N1 N 0.1226(8) -0.1506(8) 0.0416(8)
O4 O 0.2080(6) -0.1172(7) -0.0319(6)
O5 O 0.1331(7) -0.1517(9) 0.1518(7)
O6 O 0.0311(8) -0.1767(10) 0.0024(10)
N2 N 0.3577(12) -0.0422(10) 0.4270(7)
O7 O 0.4125(9) -0.0582(10) 0.3277(7)
O8 O 0.3387(17) -0.1408(14) 0.5046(11)
O9 O 0.316(3) 0.0640(14) 0.4454(11)
N3 N 0.2550(7) 0.2928(8) -0.4112(6)
N4 N 0.4660(7) -0.2652(7) 0.1676(6)
C2 C 0.2623(11) 0.3582(12) -0.5327(9)
H4 H 0.3089 0.3015 -0.5801
C3 C 0.2027(13) 0.5087(13) -0.5920(9)
H5 H 0.2129 0.5505 -0.6765
C4 C 0.1308(12) 0.5928(11) -0.5272(10)
H6 H 0.0891 0.6928 -0.5675
C5 C 0.1180(9) 0.5309(10) -0.3983(9)
C6 C 0.1854(8) 0.3786(9) -0.3440(8)
C7 C 0.1823(8) 0.3074(9) -0.2121(8)
C8 C 0.1064(9) 0.3902(10) -0.1452(8)
H7 H 0.0983 0.3454 -0.0607
C9 C 0.0395(10) 0.5426(10) -0.2011(10)
H8 H -0.0096 0.5969 -0.1526
C10 C 0.0465(10) 0.6105(10) -0.3258(10)
H9 H 0.0029 0.7109 -0.3618
C11 C 0.4613(10) -0.3490(9) 0.2824(8)
H10 H 0.4100 -0.3061 0.3376
C12 C 0.5302(10) -0.5001(10) 0.3248(8)
H11 H 0.5238 -0.5554 0.4066
C13 C 0.6052(10) -0.5652(10) 0.2480(9)
H12 H 0.6516 -0.6656 0.2765
C14 C 0.6139(9) -0.4817(9) 0.1240(9)
C15 C 0.5429(8) -0.3283(9) 0.0881(7)
C16 C 0.5501(8) -0.2348(9) -0.0336(7)
C17 C 0.6295(9) -0.2971(10) -0.1162(9)
H13 H 0.6363 -0.2384 -0.1965
C18 C 0.6991(10) -0.4479(10) -0.0787(9)
H14 H 0.7518 -0.4870 -0.1354
C19 C 0.6931(10) -0.5387(10) 0.0361(9)
H15 H 0.7407 -0.6383 0.0573
Pb1A Pb 0.68124(3) 0.00356(3) -0.06709(3)
Pb2A Pb 0.66243(3) -0.03484(3) 0.29198(3)
Pb2_2 Pb 0.33757(3) 0.03484(3) 0.70802(3)
O2A O 0.5182(6) 0.0917(5) 0.0653(5)
O7A O 0.5875(9) 0.0582(10) -0.3277(7)
O9_2 O 0.316(3) 0.0640(14) -0.5546(11)
loop_
_geom_bond_atom_site_label_1
_geom_bond_atom_site_label_2
_geom_bond_site_symmetry_1
_geom_bond_site_symmetry_2
Pb1 O1 1_555 1_555
Pb2 O1 1_555 1_555
O1 C7 1_555 1_555
O2 Pb1 1_555 1_555
O3 Pb2 1_555 1_555
C1 O3 1_555 1_555
H1 C1 1_555 1_555
H2 C1 1_555 1_555
H3 C1 1_555 1_555
N1 O4 1_555 1_555
O4 Pb1 1_555 1_555
O5 Pb1 1_555 1_555
O6 N1 1_555 1_555
N2 O7 1_555 1_555
O7 Pb1 1_555 1_555
O8 N2 1_555 1_555
O9 N2 1_555 1_555
N3 Pb2 1_555 1_555
N4 Pb1 1_555 1_555
C2 N3 1_555 1_555
H4 C2 1_555 1_555
C3 C2 1_555 1_555
H5 C3 1_555 1_555
C4 C3 1_555 1_555
H6 C4 1_555 1_555
C5 C4 1_555 1_555
C6 N3 1_555 1_555
C7 C6 1_555 1_555
C8 C7 1_555 1_555
H7 C8 1_555 1_555
C9 C8 1_555 1_555
H8 C9 1_555 1_555
C10 C5 1_555 1_555
H9 C10 1_555 1_555
C11 N4 1_555 1_555
H10 C11 1_555 1_555
C12 C11 1_555 1_555
H11 C12 1_555 1_555
C13 C12 1_555 1_555
H12 C13 1_555 1_555
C14 C13 1_555 1_555
C15 N4 1_555 1_555
C16 O2 1_555 1_555
C17 C16 1_555 1_555
H13 C17 1_555 1_555
C18 C17 1_555 1_555
H14 C18 1_555 1_555
C19 C14 1_555 1_555
H15 C19 1_555 1_555
Pb1A O2 1_555 1_555
Pb2A O7 1_555 1_555
Pb2_2 O9 1_555 1_555
O2A Pb1 1_555 1_555
O7A Pb2 1_555 1_555
O9_2 Pb2 1_555 1_555
Pb2 O2 1_555 1_555
N1 O5 1_555 1_555
C5 C6 1_555 1_555
C9 C10 1_555 1_555
C14 C15 1_555 1_555
C15 C16 1_555 1_555
C18 C19 1_555 1_555
Pb1A O2A 1_555 1_555
Pb1A O7A 1_555 1_555
Pb2A O2A 1_555 1_555

#END
