
#######################################################################
#
#                 Cambridge Crystallographic Data Centre
#                                CCDC 
#
#######################################################################
#
# If this CIF has been generated from an entry in the Cambridge 
# Structural Database, then it will include bibliographic, chemical, 
# crystal, experimental, refinement or atomic coordinate data resulting 
# from the CCDC's data processing and validation procedures.
#
#######################################################################

data_YIYRIJ
_symmetry_cell_setting           triclinic
_symmetry_space_group_name_H-M   'P -1'
_symmetry_Int_Tables_number      2
_space_group_name_Hall           '-P 1'
loop_
_symmetry_equiv_pos_site_id
_symmetry_equiv_pos_as_xyz
1 x,y,z
2 -x,-y,-z
_cell_length_a                   22.243(4)
_cell_length_b                   22.810(5)
_cell_length_c                   31.765(6)
_cell_angle_alpha                77.27(3)
_cell_angle_beta                 80.38(3)
_cell_angle_gamma                85.85(3)
_cell_volume                     15488.6
loop_
_atom_site_label
_atom_site_type_symbol
_atom_site_fract_x
_atom_site_fract_y
_atom_site_fract_z
Cd1 Cd 0.03976(5) 0.66266(4) 0.85478(4)
Zn1 Zn 0.47619(8) 0.64834(8) 0.85745(6)
Zn2 Zn 0.60601(8) 0.64553(8) 0.85932(6)
C1 C 0.8116(5) 0.6484(5) 0.8624(4)
C2 C 0.8456(6) 0.6891(6) 0.8302(5)
H1 H 0.8265 0.7143 0.8077
C3 C 0.9067(6) 0.6933(7) 0.8304(5)
H2 H 0.9286 0.7216 0.8075
N1 N 0.9368(5) 0.6607(5) 0.8601(4)
C4 C 0.9058(6) 0.6216(6) 0.8914(4)
H3 H 0.9262 0.5979 0.9137
C5 C 0.8439(6) 0.6139(6) 0.8930(4)
H4 H 0.8236 0.5842 0.9156
B1 B 0.7406(5) 0.6445(7) 0.8612(5)
O1 O 0.7362(4) 0.6472(5) 0.8165(3)
N2 N 0.6767(5) 0.6449(5) 0.8087(4)
C6 C 0.6778(5) 0.6458(5) 0.7686(4)
H5 H 0.7164 0.6446 0.7507
C7 C 0.6235(5) 0.6485(5) 0.7485(4)
C8 C 0.5631(5) 0.6448(5) 0.7721(4)
C9 C 0.5165(5) 0.6508(5) 0.7457(4)
C10 C 0.5291(5) 0.6598(6) 0.7004(4)
H6 H 0.4964 0.6652 0.6839
C11 C 0.5886(5) 0.6611(6) 0.6791(4)
C12 C 0.6347(6) 0.6571(6) 0.7036(4)
H7 H 0.6757 0.6603 0.6892
C13 C 0.4518(5) 0.6495(5) 0.7645(4)
H8 H 0.4228 0.6524 0.7452
N3 N 0.4319(5) 0.6447(5) 0.8049(4)
O2 O 0.3693(4) 0.6410(5) 0.8137(3)
B2 B 0.3403(5) 0.6483(7) 0.8576(5)
O3 O 0.7150(5) 0.6983(5) 0.8784(4)
N4 N 0.6528(5) 0.7084(5) 0.8793(4)
C14 C 0.6366(6) 0.7559(5) 0.8945(4)
H9 H 0.6676 0.7761 0.9022
C15 C 0.5743(5) 0.7814(5) 0.9008(4)
C16 C 0.5255(5) 0.7540(5) 0.8875(4)
C17 C 0.4682(5) 0.7866(4) 0.8971(4)
C18 C 0.4622(6) 0.8357(5) 0.9179(4)
H10 H 0.4225 0.8537 0.9230
C19 C 0.5094(5) 0.8605(5) 0.9317(4)
C20 C 0.5648(6) 0.8300(5) 0.9221(4)
H11 H 0.5995 0.8432 0.9307
C21 C 0.4139(6) 0.7642(5) 0.8863(4)
H12 H 0.3771 0.7877 0.8897
N5 N 0.4116(5) 0.7158(5) 0.8728(4)
O4 O 0.3525(4) 0.7077(4) 0.8685(3)
O5 O 0.7228(5) 0.5879(4) 0.8883(3)
N6 N 0.6613(5) 0.5801(5) 0.8917(4)
C22 C 0.6476(6) 0.5291(5) 0.9149(5)
H13 H 0.6797 0.5042 0.9264
C23 C 0.5870(5) 0.5052(5) 0.9256(4)
C24 C 0.5330(5) 0.5401(5) 0.9156(4)
C25 C 0.4776(5) 0.5102(5) 0.9305(4)
C26 C 0.4751(6) 0.4511(5) 0.9515(4)
H14 H 0.4368 0.4328 0.9611
C27 C 0.5287(5) 0.4179(4) 0.9589(4)
C28 C 0.5836(5) 0.4455(5) 0.9475(4)
H15 H 0.6198 0.4235 0.9547
C29 C 0.4197(6) 0.5380(5) 0.9200(4)
H16 H 0.3835 0.5184 0.9348
N7 N 0.4142(5) 0.5868(5) 0.8922(4)
O6 O 0.3526(4) 0.5987(4) 0.8894(4)
C30 C 0.2693(5) 0.6515(5) 0.8563(4)
C31 C 0.2430(6) 0.6168(6) 0.8338(5)
H17 H 0.2679 0.5904 0.8183
C32 C 0.1807(6) 0.6208(6) 0.8339(4)
H18 H 0.1643 0.5969 0.8179
N8 N 0.1423(5) 0.6560(5) 0.8549(4)
C33 C 0.1669(6) 0.6883(6) 0.8773(5)
H19 H 0.1403 0.7125 0.8936
C34 C 0.2295(5) 0.6890(6) 0.8784(5)
H20 H 0.2447 0.7144 0.8939
O7 O 0.5534(4) 0.6362(4) 0.8128(3)
C35 C 0.5999(7) 0.6726(8) 0.6296(4)
C36 C 0.6449(7) 0.7241(8) 0.6173(6)
H21 H 0.6552 0.7356 0.5854
H22 H 0.6821 0.7107 0.6300
H23 H 0.6260 0.7588 0.6286
C37 C 0.6257(9) 0.6178(8) 0.6133(6)
H24 H 0.6321 0.6270 0.5813
H25 H 0.5972 0.5851 0.6243
H26 H 0.6648 0.6054 0.6236
C38 C 0.5429(7) 0.6986(9) 0.6120(6)
H27 H 0.5505 0.7060 0.5800
H28 H 0.5309 0.7366 0.6213
H29 H 0.5100 0.6702 0.6233
O8 O 0.5336(4) 0.7080(4) 0.8691(3)
C39 C 0.5020(7) 0.9128(6) 0.9552(5)
C40 C 0.4484(7) 0.9555(7) 0.9452(6)
H30 H 0.4467 0.9878 0.9613
H31 H 0.4105 0.9336 0.9541
H32 H 0.4534 0.9728 0.9138
C41 C 0.4882(9) 0.8895(8) 1.0047(5)
H33 H 0.4838 0.9235 1.0193
H34 H 0.5219 0.8625 1.0144
H35 H 0.4503 0.8676 1.0121
C42 C 0.5563(7) 0.9512(7) 0.9457(6)
H36 H 0.5482 0.9836 0.9618
H37 H 0.5647 0.9685 0.9143
H38 H 0.5918 0.9265 0.9547
O9 O 0.5370(4) 0.5954(4) 0.8936(3)
C43 C 0.5273(7) 0.3512(5) 0.9803(5)
C44 C 0.5705(8) 0.3353(7) 1.0136(5)
H39 H 0.5688 0.2923 1.0268
H40 H 0.5585 0.3586 1.0364
H41 H 0.6122 0.3448 0.9991
C45 C 0.5455(8) 0.3125(6) 0.9441(5)
H42 H 0.5446 0.2696 0.9580
H43 H 0.5867 0.3222 0.9287
H44 H 0.5164 0.3217 0.9233
C46 C 0.4630(7) 0.3354(6) 1.0043(5)
H45 H 0.4624 0.2924 1.0179
H46 H 0.4341 0.3445 0.9834
H47 H 0.4514 0.3591 1.0268
Zn3 Zn 0.03289(8) 0.09920(7) 0.85426(6)
Zn4 Zn 0.03232(8) 0.22898(7) 0.85289(6)
C47 C 0.0363(6) 0.4344(4) 0.8525(4)
C48 C 0.0139(7) 0.4800(5) 0.8217(5)
H48 H -0.0038 0.4695 0.7993
C49 C 0.0163(7) 0.5396(5) 0.8225(4)
H49 H -0.0023 0.5681 0.8015
N9 N 0.0425(5) 0.5608(5) 0.8503(4)
C50 C 0.0673(6) 0.5189(5) 0.8778(4)
H50 H 0.0898 0.5314 0.8970
C51 C 0.0635(6) 0.4578(5) 0.8815(4)
H51 H 0.0799 0.4309 0.9045
B3 B 0.0333(7) 0.3650(5) 0.8518(5)
O10 O 0.0782(4) 0.3370(4) 0.8777(3)
N10 N 0.0920(5) 0.2766(4) 0.8774(4)
C52 C 0.1411(5) 0.2579(5) 0.8924(4)
H52 H 0.1630 0.2867 0.9006
C53 C 0.1672(5) 0.1966(5) 0.8983(4)
C54 C 0.1418(5) 0.1495(5) 0.8851(4)
C55 C 0.1731(5) 0.0931(5) 0.8912(4)
C56 C 0.2259(6) 0.0871(6) 0.9096(4)
H53 H 0.2470 0.0490 0.9135
C57 C 0.2499(5) 0.1332(5) 0.9227(4)
C58 C 0.2193(5) 0.1883(5) 0.9179(4)
H54 H 0.2337 0.2202 0.9279
C59 C 0.1496(5) 0.0396(5) 0.8816(4)
H55 H 0.1752 0.0042 0.8855
N11 N 0.0993(5) 0.0347(5) 0.8688(4)
O11 O 0.0930(4) -0.0255(4) 0.8621(3)
B4 B 0.0327(7) -0.0377(5) 0.8571(5)
O12 O 0.0479(5) 0.3562(4) 0.8070(3)
N12 N 0.0432(5) 0.2973(5) 0.7991(4)
C60 C 0.0506(6) 0.2947(5) 0.7591(4)
H56 H 0.0566 0.3318 0.7386
C61 C 0.0511(5) 0.2411(4) 0.7411(4)
C62 C 0.0406(6) 0.1814(5) 0.7655(4)
C63 C 0.0464(5) 0.1325(4) 0.7435(4)
C64 C 0.0630(6) 0.1403(5) 0.6982(4)
H57 H 0.0676 0.1072 0.6840
C65 C 0.0723(6) 0.1987(5) 0.6750(4)
C66 C 0.0665(6) 0.2473(5) 0.6958(4)
H58 H 0.0735 0.2865 0.6783
C67 C 0.0363(6) 0.0694(5) 0.7624(4)
H59 H 0.0369 0.0414 0.7442
N13 N 0.0266(5) 0.0523(4) 0.8037(4)
O13 O 0.0200(4) -0.0085(4) 0.8131(3)
O14 O -0.0289(4) 0.3489(4) 0.8714(3)
N14 N -0.0358(5) 0.2869(5) 0.8799(4)
C68 C -0.0903(6) 0.2758(5) 0.8976(4)
H60 H -0.1171 0.3086 0.9028
C69 C -0.1144(6) 0.2159(5) 0.9104(4)
C70 C -0.0783(6) 0.1629(5) 0.9047(4)
C71 C -0.1066(6) 0.1063(5) 0.9206(4)
C72 C -0.1682(6) 0.1062(6) 0.9403(5)
H61 H -0.1872 0.0687 0.9511
C73 C -0.2023(6) 0.1583(6) 0.9448(5)
C74 C -0.1756(6) 0.2133(6) 0.9301(5)
H62 H -0.1985 0.2492 0.9334
C75 C -0.0778(6) 0.0480(5) 0.9150(4)
H63 H -0.0987 0.0133 0.9314
N15 N -0.0281(5) 0.0385(4) 0.8907(4)
O15 O -0.0144(4) -0.0218(4) 0.8913(3)
C76 C 0.0306(5) -0.1078(4) 0.8572(4)
C77 C 0.0603(7) -0.1343(5) 0.8240(5)
H64 H 0.0810 -0.1086 0.7989
C78 C 0.0627(7) -0.1955(5) 0.8241(5)
H65 H 0.0849 -0.2096 0.7998
N16 N 0.0346(5) -0.2342(5) 0.8575(4)
C79 C 0.0044(6) -0.2097(5) 0.8891(5)
H66 H -0.0167 -0.2364 0.9134
C80 C 0.0001(6) -0.1489(5) 0.8909(4)
H67 H -0.0237 -0.1361 0.9152
O16 O 0.0938(4) 0.1559(4) 0.8667(3)
C81 C 0.3091(6) 0.1212(7) 0.9421(6)
C82 C 0.3300(9) 0.1804(7) 0.9479(7)
H68 H 0.3680 0.1734 0.9604
H69 H 0.2985 0.1977 0.9676
H70 H 0.3370 0.2084 0.9195
C83 C 0.3584(8) 0.0952(9) 0.9090(6)
H71 H 0.3968 0.0870 0.9208
H72 H 0.3649 0.1245 0.8811
H73 H 0.3442 0.0578 0.9042
C84 C 0.3034(9) 0.0664(8) 0.9789(6)
H74 H 0.3415 0.0589 0.9912
H75 H 0.2951 0.0315 0.9678
H76 H 0.2698 0.0733 1.0017
O17 O 0.0257(5) 0.1733(4) 0.8069(3)
C85 C 0.0867(8) 0.2083(8) 0.6246(4)
C86 C 0.1230(10) 0.2628(8) 0.6065(6)
H77 H 0.1321 0.2685 0.5746
H78 H 0.1613 0.2578 0.6185
H79 H 0.0997 0.2980 0.6143
C87 C 0.0229(9) 0.2341(10) 0.6096(6)
H80 H 0.0272 0.2420 0.5776
H81 H 0.0111 0.2716 0.6195
H82 H -0.0085 0.2045 0.6223
C88 C 0.1023(11) 0.1518(8) 0.6092(6)
H83 H 0.1111 0.1607 0.5772
H84 H 0.0679 0.1250 0.6191
H85 H 0.1383 0.1321 0.6212
O18 O -0.0212(5) 0.1611(4) 0.8866(4)
C89 C -0.2685(7) 0.1587(9) 0.9667(7)
C90 C -0.2864(10) 0.2113(9) 0.9880(8)
H86 H -0.3294 0.2089 1.0015
H87 H -0.2806 0.2488 0.9659
H88 H -0.2610 0.2106 1.0105
C91 C -0.2752(11) 0.1028(10) 1.0069(8)
H89 H -0.3174 0.1016 1.0220
H90 H -0.2478 0.1068 1.0272
H91 H -0.2645 0.0656 0.9963
C92 C -0.3100(10) 0.1478(13) 0.9365(8)
H92 H -0.3524 0.1482 0.9511
H93 H -0.2993 0.1086 0.9288
H94 H -0.3053 0.1795 0.9099
O19 O 0.0270(4) 0.6408(4) 0.9384(5)
O20 O 0.0546(5) 0.6824(4) 0.7736(4)
Cd1_2 Cd 0.03976(5) -0.33734(4) 0.85478(4)
Cd1_3 Cd 1.03976(5) 0.66266(4) 0.85478(4)
N1_2 N -0.0632(5) 0.6607(5) 0.8601(4)
N16_2 N 0.0346(5) 0.7658(5) 0.8575(4)
Cd2 Cd 0.33780(5) 0.95978(4) 0.64511(4)
Zn5 Zn -0.09860(8) 0.96690(8) 0.64581(6)
Zn6 Zn -0.22849(8) 0.96748(8) 0.64703(6)
C93 C 0.1067(5) 0.9672(5) 0.6430(4)
C94 C 0.1488(6) 0.9978(6) 0.6102(5)
H95 H 0.1342 1.0218 0.5852
C95 C 0.2111(6) 0.9960(6) 0.6111(5)
H96 H 0.2368 1.0189 0.5872
N17 N 0.2357(5) 0.9637(5) 0.6438(4)
C96 C 0.1969(6) 0.9346(6) 0.6759(5)
H97 H 0.2128 0.9113 0.7006
C97 C 0.1347(6) 0.9353(6) 0.6765(5)
H98 H 0.1103 0.9126 0.7013
B5 B 0.0347(5) 0.9661(7) 0.6440(5)
O21 O 0.0230(4) 1.0126(4) 0.6080(3)
N18 N -0.0391(5) 1.0273(5) 0.6083(4)
C98 C -0.0480(6) 1.0790(5) 0.5851(4)
H99 H -0.0129 1.1006 0.5702
C99 C -0.1070(5) 1.1078(5) 0.5795(4)
C100 C -0.1626(5) 1.0778(5) 0.5949(4)
C101 C -0.2163(5) 1.1146(5) 0.5898(4)
C102 C -0.2152(7) 1.1760(5) 0.5713(5)
H100 H -0.2522 1.1994 0.5698
C103 C -0.1600(6) 1.2023(5) 0.5552(5)
C104 C -0.1062(7) 1.1693(5) 0.5608(5)
H101 H -0.0683 1.1885 0.5518
C105 C -0.2754(6) 1.0891(5) 0.6020(5)
H102 H -0.3098 1.1147 0.5955
N19 N -0.2852(5) 1.0350(5) 0.6207(4)
O22 O -0.3489(5) 1.0285(4) 0.6275(3)
B6 B -0.3629(5) 0.9667(7) 0.6466(5)
O23 O 0.0104(4) 0.9790(4) 0.6856(3)
N20 N -0.0509(5) 0.9726(5) 0.6955(4)
C106 C -0.0688(6) 0.9639(6) 0.7363(4)
H103 H -0.0389 0.9632 0.7546
C107 C -0.1307(5) 0.9551(5) 0.7569(4)
C108 C -0.1818(5) 0.9592(5) 0.7339(4)
C109 C -0.2407(5) 0.9489(5) 0.7586(4)
C110 C -0.2489(6) 0.9350(6) 0.8038(4)
H104 H -0.2886 0.9281 0.8200
C111 C -0.1987(6) 0.9312(6) 0.8253(4)
C112 C -0.1396(6) 0.9405(6) 0.8025(4)
H105 H -0.1059 0.9370 0.8179
C113 C -0.2965(6) 0.9498(5) 0.7408(4)
H106 H -0.3343 0.9455 0.7600
N21 N -0.2961(5) 0.9563(5) 0.7002(4)
O24 O -0.3558(4) 0.9501(4) 0.6936(3)
O25 O 0.0258(4) 0.9057(4) 0.6395(3)
N22 N -0.0335(5) 0.8991(5) 0.6317(4)
C114 C -0.0365(6) 0.8491(5) 0.6200(4)
H107 H -0.0002 0.8246 0.6180
C115 C -0.0907(5) 0.8266(5) 0.6094(4)
C116 C -0.1485(5) 0.8584(5) 0.6156(4)
C117 C -0.1971(5) 0.8318(4) 0.6022(3)
C118 C -0.1884(6) 0.7790(5) 0.5851(4)
H108 H -0.2225 0.7630 0.5776
C119 C -0.1315(5) 0.7495(5) 0.5789(4)
C120 C -0.0847(6) 0.7750(5) 0.5921(4)
H109 H -0.0454 0.7556 0.5891
C121 C -0.2588(6) 0.8603(5) 0.6067(4)
H110 H -0.2893 0.8427 0.5963
N23 N -0.2755(5) 0.9065(5) 0.6232(4)
O26 O -0.3360(4) 0.9213(4) 0.6227(3)
C122 C -0.4347(5) 0.9639(5) 0.6481(4)
C123 C -0.4584(6) 0.9374(6) 0.6185(5)
H111 H -0.4314 0.9209 0.5973
C124 C -0.5212(6) 0.9354(6) 0.6204(5)
H112 H -0.5363 0.9176 0.6001
N24 N -0.5606(5) 0.9575(5) 0.6495(4)
C125 C -0.5408(6) 0.9800(6) 0.6795(5)
H113 H -0.5692 0.9933 0.7016
C126 C -0.4788(6) 0.9841(6) 0.6789(5)
H114 H -0.4658 1.0014 0.7003
O27 O -0.1621(4) 1.0216(4) 0.6133(4)
C127 C -0.1569(9) 1.2686(6) 0.5326(7)
C128 C -0.0989(10) 1.2786(9) 0.4992(8)
H115 H -0.0970 1.3212 0.4847
H116 H -0.0990 1.2541 0.4774
H117 H -0.0632 1.2669 0.5141
C129 C -0.1644(12) 1.3046(9) 0.5672(7)
H118 H -0.1630 1.3475 0.5535
H119 H -0.1314 1.2935 0.5847
H120 H -0.2038 1.2964 0.5860
C130 C -0.2088(10) 1.2850(9) 0.5061(8)
H121 H -0.2072 1.3277 0.4917
H122 H -0.2478 1.2776 0.5256
H123 H -0.2048 1.2604 0.4840
O28 O -0.1742(4) 0.9741(5) 0.6929(3)
C131 C -0.2070(8) 0.9162(8) 0.8755(4)
C132 C -0.1500(9) 0.8931(11) 0.8923(6)
H124 H -0.1577 0.8837 0.9243
H125 H -0.1190 0.9237 0.8820
H126 H -0.1353 0.8566 0.8817
C133 C -0.2230(11) 0.9774(9) 0.8923(6)
H127 H -0.2285 0.9688 0.9243
H128 H -0.2608 0.9959 0.8824
H129 H -0.1897 1.0051 0.8805
C134 C -0.2552(9) 0.8725(9) 0.8922(6)
H130 H -0.2605 0.8623 0.9242
H131 H -0.2438 0.8360 0.8807
H132 H -0.2936 0.8900 0.8828
O29 O -0.1554(5) 0.9071(4) 0.6331(3)
C135 C -0.1215(7) 0.6918(6) 0.5607(6)
C136 C -0.0704(9) 0.6968(9) 0.5229(6)
H133 H -0.0655 0.6592 0.5124
H134 H -0.0324 0.7045 0.5323
H135 H -0.0798 0.7301 0.4993
C137 C -0.0966(9) 0.6405(7) 0.5938(6)
H136 H -0.0905 0.6040 0.5819
H137 H -0.1257 0.6331 0.6210
H138 H -0.0575 0.6516 0.5997
C138 C -0.1787(8) 0.6724(9) 0.5496(8)
H139 H -0.1700 0.6355 0.5383
H140 H -0.1939 0.7042 0.5273
H141 H -0.2096 0.6649 0.5758
Zn7 Zn 0.35264(8) 0.52359(7) 0.64247(6)
Zn8 Zn 0.35533(8) 0.39359(7) 0.64078(6)
C139 C 0.3490(6) 0.7312(4) 0.6436(4)
C140 C 0.3101(6) 0.7719(5) 0.6202(5)
H142 H 0.2845 0.7585 0.6033
C141 C 0.3095(6) 0.8320(5) 0.6222(5)
H143 H 0.2823 0.8585 0.6063
N25 N 0.3433(5) 0.8561(5) 0.6443(4)
C142 C 0.3804(6) 0.8184(5) 0.6663(4)
H144 H 0.4063 0.8338 0.6820
C143 C 0.3831(6) 0.7567(5) 0.6676(5)
H145 H 0.4090 0.7312 0.6853
B7 B 0.3520(8) 0.6616(5) 0.6416(6)
O30 O 0.2929(5) 0.6481(4) 0.6315(3)
N26 N 0.2851(5) 0.5875(5) 0.6278(4)
C144 C 0.2363(6) 0.5865(5) 0.6120(4)
H146 H 0.2126 0.6228 0.6061
C145 C 0.2150(5) 0.5319(5) 0.6026(4)
C146 C 0.2458(6) 0.4738(5) 0.6113(4)
C147 C 0.2213(5) 0.4250(5) 0.5984(4)
C148 C 0.1696(5) 0.4346(5) 0.5776(4)
H147 H 0.1539 0.4022 0.5690
C149 C 0.1412(5) 0.4914(5) 0.5696(4)
C150 C 0.1641(6) 0.5393(5) 0.5813(4)
H148 H 0.1447 0.5780 0.5747
C151 C 0.2459(6) 0.3634(5) 0.6044(4)
H149 H 0.2243 0.3346 0.5959
N27 N 0.2946(6) 0.3459(5) 0.6203(4)
O31 O 0.3011(5) 0.2848(4) 0.6228(4)
B8 B 0.3553(8) 0.2572(5) 0.6395(5)
O32 O 0.3609(5) 0.6295(4) 0.6864(3)
N28 N 0.3550(6) 0.5691(5) 0.6942(4)
C152 C 0.3507(6) 0.5482(5) 0.7352(4)
H150 H 0.3485 0.5749 0.7546
C153 C 0.3490(5) 0.4839(5) 0.7523(4)
C154 C 0.3553(5) 0.4374(5) 0.7280(4)
C155 C 0.3524(5) 0.3769(4) 0.7509(4)
C156 C 0.3423(6) 0.3661(6) 0.7963(4)
H151 H 0.3390 0.3257 0.8121
C157 C 0.3368(6) 0.4116(5) 0.8199(4)
C158 C 0.3386(6) 0.4713(5) 0.7979(4)
H152 H 0.3329 0.5028 0.8135
C159 C 0.3547(6) 0.3243(5) 0.7311(4)
H153 H 0.3569 0.2862 0.7504
N29 N 0.3541(6) 0.3233(5) 0.6910(4)
O33 O 0.3534(5) 0.2649(4) 0.6841(3)
O34 O 0.4002(5) 0.6471(4) 0.6102(4)
N30 N 0.4140(6) 0.5854(5) 0.6083(4)
C160 C 0.4612(6) 0.5771(6) 0.5811(4)
H154 H 0.4814 0.6126 0.5657
C161 C 0.4891(6) 0.5212(5) 0.5701(4)
C162 C 0.4605(6) 0.4649(5) 0.5846(4)
C163 C 0.4942(6) 0.4136(5) 0.5740(4)
C164 C 0.5545(6) 0.4164(5) 0.5521(4)
H155 H 0.5761 0.3811 0.5459
C165 C 0.5819(5) 0.4710(5) 0.5396(4)
C166 C 0.5487(6) 0.5224(6) 0.5475(4)
H156 H 0.5673 0.5601 0.5370
C167 C 0.4714(6) 0.3535(5) 0.5852(4)
H157 H 0.4969 0.3228 0.5748
N31 N 0.4203(6) 0.3386(5) 0.6077(4)
O35 O 0.4120(5) 0.2783(4) 0.6118(3)
C168 C 0.3528(6) 0.1878(4) 0.6380(4)
C169 C 0.3853(7) 0.1569(5) 0.6079(4)
H158 H 0.4145 0.1779 0.5854
C170 C 0.3769(7) 0.0966(5) 0.6090(5)
H159 H 0.3997 0.0792 0.5865
N32 N 0.3394(5) 0.0622(5) 0.6394(4)
C171 C 0.3085(7) 0.0913(5) 0.6682(5)
H160 H 0.2803 0.0687 0.6907
C172 C 0.3127(7) 0.1514(5) 0.6692(5)
H161 H 0.2878 0.1677 0.6916
O36 O 0.2917(4) 0.4657(4) 0.6317(3)
C173 C 0.0870(6) 0.4975(7) 0.5450(5)
C174 C 0.0525(7) 0.4411(6) 0.5522(6)
H162 H 0.0185 0.4489 0.5354
H163 H 0.0366 0.4281 0.5833
H164 H 0.0799 0.4094 0.5424
C175 C 0.0455(8) 0.5482(8) 0.5575(7)
H165 H 0.0103 0.5531 0.5421
H166 H 0.0679 0.5856 0.5495
H167 H 0.0315 0.5390 0.5891
C176 C 0.1115(8) 0.5084(8) 0.4959(5)
H168 H 0.0773 0.5127 0.4795
H169 H 0.1383 0.4743 0.4897
H170 H 0.1347 0.5453 0.4872
O37 O 0.3622(4) 0.4469(4) 0.6868(3)
C177 C 0.3255(8) 0.3982(8) 0.8698(4)
C178 C 0.2766(9) 0.3503(8) 0.8849(6)
H171 H 0.2676 0.3409 0.9169
H172 H 0.2916 0.3138 0.8745
H173 H 0.2393 0.3658 0.8729
C179 C 0.3865(9) 0.3633(10) 0.8826(6)
H174 H 0.3835 0.3529 0.9145
H175 H 0.4213 0.3889 0.8701
H176 H 0.3922 0.3264 0.8712
C180 C 0.3083(10) 0.4540(7) 0.8889(6)
H177 H 0.3013 0.4424 0.9209
H178 H 0.2710 0.4733 0.8787
H179 H 0.3415 0.4823 0.8794
O38 O 0.4050(5) 0.4629(4) 0.6065(3)
C181 C 0.6488(6) 0.4729(7) 0.5170(5)
C182 C 0.6640(9) 0.4278(7) 0.4873(5)
H180 H 0.7069 0.4308 0.4737
H181 H 0.6379 0.4367 0.4645
H182 H 0.6569 0.3870 0.5046
C183 C 0.6865(7) 0.4557(8) 0.5551(5)
H183 H 0.7301 0.4560 0.5433
H184 H 0.6760 0.4155 0.5722
H185 H 0.6773 0.4850 0.5740
C184 C 0.6655(8) 0.5358(6) 0.4937(5)
H186 H 0.7082 0.5357 0.4797
H187 H 0.6599 0.5620 0.5148
H188 H 0.6392 0.5507 0.4715
N33 N 0.2865(8) 0.8920(7) 0.7826(5)
C185 C 0.2946(13) 0.8331(10) 0.8121(8)
H189 H 0.3335 0.8139 0.8018
H190 H 0.2611 0.8074 0.8122
H191 H 0.2946 0.8389 0.8417
C186 C 0.2292(10) 0.9254(11) 0.7960(8)
H192 H 0.2265 0.9637 0.7751
H193 H 0.2293 0.9331 0.8252
H194 H 0.1942 0.9014 0.7966
C187 C 0.3297(10) 0.9155(9) 0.7441(7)
H195 H 0.3701 0.8988 0.7405
O39 O 0.3161(5) 0.9507(5) 0.7206(4)
O40 O 0.3572(5) 0.9732(4) 0.5646(5)
Cd2_2 Cd -0.66220(5) 0.95978(4) 0.64511(4)
Cd2_3 Cd 0.33780(5) -0.04022(4) 0.64511(4)
N24_2 N 0.4394(5) 0.9575(5) 0.6495(4)
N32_2 N 0.3394(5) 1.0622(5) 0.6394(4)
N34 N 0.5580(9) 0.4721(9) 0.6925(6)
C188 C 0.5700(12) 0.4198(11) 0.6731(8)
H196 H 0.6105 0.4021 0.6777
H197 H 0.5685 0.4317 0.6417
H198 H 0.5390 0.3901 0.6868
C189 C 0.5008(10) 0.5052(10) 0.6897(7)
H199 H 0.4996 0.5393 0.7041
H200 H 0.4672 0.4788 0.7042
H201 H 0.4965 0.5202 0.6590
C190 C 0.6010(11) 0.4955(11) 0.7135(8)
H202 H 0.5900 0.5292 0.7265
O41 O 0.6528(10) 0.4705(10) 0.7143(8)
N35 N 0.1897(7) 0.4553(8) 0.7469(6)
C191 C 0.1931(11) 0.4029(9) 0.7264(7)
H203 H 0.1971 0.4166 0.6946
H204 H 0.1559 0.3801 0.7372
H205 H 0.2286 0.3770 0.7338
C192 C 0.1848(12) 0.4375(10) 0.7949(6)
H206 H 0.1825 0.4736 0.8072
H207 H 0.2208 0.4126 0.8025
H208 H 0.1480 0.4146 0.8069
C193 C 0.1941(10) 0.5137(9) 0.7268(7)
H209 H 0.2031 0.5242 0.6959
O42 O 0.1865(7) 0.5553(7) 0.7486(6)
N36 N 0.0765(9) 0.1101(8) 0.9887(5)
C194 C 0.0329(11) 0.0695(10) 0.9837(8)
H210 H 0.0520 0.0291 0.9856
H211 H 0.0194 0.0833 0.9553
H212 H -0.0023 0.0684 1.0070
C195 C 0.0529(10) 0.1705(8) 0.9868(7)
H213 H 0.0848 0.1956 0.9903
H214 H 0.0182 0.1711 1.0102
H215 H 0.0394 0.1862 0.9584
C196 C 0.1361(11) 0.0915(11) 0.9963(7)
H216 H 0.1625 0.1226 0.9958
O43 O 0.1587(9) 0.0387(8) 1.0035(6)
N37 N -0.1778(9) 0.1386(8) 0.8051(5)
C197 C -0.1182(9) 0.1100(10) 0.8052(7)
H217 H -0.1198 0.0687 0.8015
H218 H -0.1045 0.1096 0.8331
H219 H -0.0896 0.1323 0.7812
C198 C -0.1831(11) 0.1997(9) 0.8102(8)
H220 H -0.2254 0.2148 0.8095
H221 H -0.1561 0.2245 0.7865
H222 H -0.1715 0.2016 0.8383
C199 C -0.2264(11) 0.1071(11) 0.7994(8)
H223 H -0.2195 0.0670 0.7954
O44 O -0.2804(9) 0.1315(10) 0.7996(7)
N38 N 0.5453(8) 0.8116(6) 0.7531(6)
C200 C 0.5618(10) 0.8159(9) 0.7062(6)
H224 H 0.5247 0.8213 0.6927
H225 H 0.5840 0.7789 0.7008
H226 H 0.5877 0.8503 0.6936
C201 C 0.5968(9) 0.8038(10) 0.7774(7)
H227 H 0.5815 0.8017 0.8085
H228 H 0.6235 0.8380 0.7663
H229 H 0.6199 0.7666 0.7738
C202 C 0.4856(10) 0.8138(9) 0.7741(8)
H230 H 0.4766 0.8131 0.8045
O45 O 0.4452(8) 0.8166(8) 0.7522(6)
N39 N 0.1093(10) 1.0775(9) 0.4916(5)
C203 C 0.1705(10) 1.0529(10) 0.4864(7)
H231 H 0.1986 1.0821 0.4897
H232 H 0.1812 1.0436 0.4573
H233 H 0.1736 1.0159 0.5087
C204 C 0.0626(11) 1.0398(10) 0.4877(8)
H234 H 0.0228 1.0609 0.4916
H235 H 0.0627 1.0026 0.5101
H236 H 0.0705 1.0300 0.4587
C205 C 0.0904(12) 1.1355(11) 0.4977(7)
H237 H 0.1218 1.1617 0.4974
O46 O 0.0370(10) 1.1567(10) 0.5034(6)
N40 N 0.1421(8) 0.8590(9) 0.9463(6)
C206 C 0.1811(11) 0.8550(10) 0.9056(7)
H238 H 0.1869 0.8128 0.9032
H239 H 0.2208 0.8715 0.9050
H240 H 0.1621 0.8780 0.8811
C207 C 0.1240(12) 0.9155(9) 0.9601(7)
H241 H 0.0973 0.9073 0.9885
H242 H 0.1022 0.9418 0.9384
H243 H 0.1605 0.9353 0.9628
C208 C 0.1184(11) 0.8061(10) 0.9745(8)
H244 H 0.0892 0.8088 0.9995
O47 O 0.1357(10) 0.7555(8) 0.9667(6)
N41 N 0.2340(10) 0.1744(11) 0.7824(5)
C209 C 0.2126(12) 0.2363(11) 0.7768(9)
H245 H 0.2414 0.2596 0.7861
H246 H 0.1724 0.2388 0.7946
H247 H 0.2095 0.2526 0.7460
C210 C 0.1973(12) 0.1330(11) 0.7704(8)
H248 H 0.2169 0.0928 0.7753
H249 H 0.1931 0.1463 0.7395
H250 H 0.1568 0.1319 0.7884
C211 C 0.2858(12) 0.1505(13) 0.7988(8)
H251 H 0.3015 0.1101 0.8033
O48 O 0.3104(11) 0.2028(12) 0.8077(8)
N42 N 0.5286(10) 0.4424(9) 0.8073(6)
C212 C 0.4964(11) 0.4990(9) 0.8100(8)
H252 H 0.4583 0.5008 0.7980
H253 H 0.5219 0.5321 0.7932
H254 H 0.4871 0.5025 0.8406
C213 C 0.5863(12) 0.4305(12) 0.8230(10)
H255 H 0.6027 0.3907 0.8192
H256 H 0.5805 0.4318 0.8541
H257 H 0.6151 0.4611 0.8066
C214 C 0.5035(13) 0.3994(11) 0.7877(8)
H258 H 0.4668 0.4090 0.7757
O49 O 0.5308(11) 0.3496(9) 0.7869(7)
N43 N -0.1380(9) 0.1800(8) 0.6933(5)
C215 C -0.1115(10) 0.1199(8) 0.6950(7)
H259 H -0.0691 0.1191 0.6999
H260 H -0.1127 0.1081 0.6673
H261 H -0.1348 0.0918 0.7190
C216 C -0.2013(9) 0.1897(11) 0.6865(8)
H262 H -0.2139 0.2320 0.6858
H263 H -0.2272 0.1639 0.7103
H264 H -0.2055 0.1799 0.6586
C217 C -0.1056(12) 0.2292(10) 0.6977(8)
H265 H -0.0648 0.2199 0.7027
O50 O -0.1228(10) 0.2820(9) 0.6961(7)
N44 N 0.1434(9) 0.8588(8) 0.5515(7)
C218 C 0.1465(11) 0.8203(11) 0.5935(7)
H266 H 0.1893 0.8127 0.5976
H267 H 0.1279 0.7820 0.5950
H268 H 0.1244 0.8398 0.6164
C219 C 0.0842(9) 0.8767(11) 0.5370(8)
H269 H 0.0905 0.9032 0.5079
H270 H 0.0590 0.8980 0.5577
H271 H 0.0635 0.8408 0.5357
C220 C 0.1991(11) 0.8784(11) 0.5233(9)
H272 H 0.1969 0.9064 0.4965
O51 O 0.2503(9) 0.8596(10) 0.5328(7)
N45 N 0.8153(11) 0.7677(10) 0.7159(6)
C221 C 0.7545(12) 0.7932(12) 0.7223(8)
H273 H 0.7269 0.7701 0.7117
H274 H 0.7538 0.8351 0.7061
H275 H 0.7411 0.7918 0.7535
C222 C 0.8623(13) 0.7971(12) 0.7292(9)
H276 H 0.9016 0.7758 0.7234
H277 H 0.8523 0.7966 0.7605
H278 H 0.8648 0.8388 0.7127
C223 C 0.8262(14) 0.7156(12) 0.6971(9)
H279 H 0.8016 0.6912 0.6867
O52 O 0.8925(13) 0.7155(12) 0.7010(9)
loop_
_geom_bond_atom_site_label_1
_geom_bond_atom_site_label_2
_geom_bond_site_symmetry_1
_geom_bond_site_symmetry_2
Cd1 N8 1_555 1_555
Zn1 N3 1_555 1_555
Zn2 N2 1_555 1_555
C1 C2 1_555 1_555
C2 H1 1_555 1_555
C3 C2 1_555 1_555
H2 C3 1_555 1_555
N1 C3 1_555 1_555
C4 N1 1_555 1_555
H3 C4 1_555 1_555
C5 C1 1_555 1_555
H4 C5 1_555 1_555
B1 C1 1_555 1_555
O1 B1 1_555 1_555
N2 O1 1_555 1_555
C6 N2 1_555 1_555
H5 C6 1_555 1_555
C7 C6 1_555 1_555
C8 C7 1_555 1_555
C9 C8 1_555 1_555
C10 C9 1_555 1_555
H6 C10 1_555 1_555
C11 C10 1_555 1_555
C12 C7 1_555 1_555
H7 C12 1_555 1_555
C13 C9 1_555 1_555
H8 C13 1_555 1_555
N3 C13 1_555 1_555
O2 N3 1_555 1_555
B2 O2 1_555 1_555
O3 B1 1_555 1_555
N4 Zn2 1_555 1_555
C14 N4 1_555 1_555
H9 C14 1_555 1_555
C15 C14 1_555 1_555
C16 C15 1_555 1_555
C17 C16 1_555 1_555
C18 C17 1_555 1_555
H10 C18 1_555 1_555
C19 C18 1_555 1_555
C20 C15 1_555 1_555
H11 C20 1_555 1_555
C21 C17 1_555 1_555
H12 C21 1_555 1_555
N5 Zn1 1_555 1_555
O4 B2 1_555 1_555
O5 B1 1_555 1_555
N6 Zn2 1_555 1_555
C22 N6 1_555 1_555
H13 C22 1_555 1_555
C23 C22 1_555 1_555
C24 C23 1_555 1_555
C25 C24 1_555 1_555
C26 C25 1_555 1_555
H14 C26 1_555 1_555
C27 C26 1_555 1_555
C28 C23 1_555 1_555
H15 C28 1_555 1_555
C29 C25 1_555 1_555
H16 C29 1_555 1_555
N7 Zn1 1_555 1_555
O6 B2 1_555 1_555
C30 B2 1_555 1_555
C31 C30 1_555 1_555
H17 C31 1_555 1_555
C32 C31 1_555 1_555
H18 C32 1_555 1_555
N8 C32 1_555 1_555
C33 N8 1_555 1_555
H19 C33 1_555 1_555
C34 C30 1_555 1_555
H20 C34 1_555 1_555
O7 Zn1 1_555 1_555
C35 C11 1_555 1_555
C36 C35 1_555 1_555
H21 C36 1_555 1_555
H22 C36 1_555 1_555
H23 C36 1_555 1_555
C37 C35 1_555 1_555
H24 C37 1_555 1_555
H25 C37 1_555 1_555
H26 C37 1_555 1_555
C38 C35 1_555 1_555
H27 C38 1_555 1_555
H28 C38 1_555 1_555
H29 C38 1_555 1_555
O8 Zn1 1_555 1_555
C39 C19 1_555 1_555
C40 C39 1_555 1_555
H30 C40 1_555 1_555
H31 C40 1_555 1_555
H32 C40 1_555 1_555
C41 C39 1_555 1_555
H33 C41 1_555 1_555
H34 C41 1_555 1_555
H35 C41 1_555 1_555
C42 C39 1_555 1_555
H36 C42 1_555 1_555
H37 C42 1_555 1_555
H38 C42 1_555 1_555
O9 Zn1 1_555 1_555
C43 C27 1_555 1_555
C44 C43 1_555 1_555
H39 C44 1_555 1_555
H40 C44 1_555 1_555
H41 C44 1_555 1_555
C45 C43 1_555 1_555
H42 C45 1_555 1_555
H43 C45 1_555 1_555
H44 C45 1_555 1_555
C46 C43 1_555 1_555
H45 C46 1_555 1_555
H46 C46 1_555 1_555
H47 C46 1_555 1_555
Zn3 N11 1_555 1_555
Zn4 N10 1_555 1_555
C47 C48 1_555 1_555
C48 H48 1_555 1_555
C49 C48 1_555 1_555
H49 C49 1_555 1_555
N9 Cd1 1_555 1_555
C50 N9 1_555 1_555
H50 C50 1_555 1_555
C51 C47 1_555 1_555
H51 C51 1_555 1_555
B3 C47 1_555 1_555
O10 B3 1_555 1_555
N10 O10 1_555 1_555
C52 N10 1_555 1_555
H52 C52 1_555 1_555
C53 C52 1_555 1_555
C54 C53 1_555 1_555
C55 C54 1_555 1_555
C56 C55 1_555 1_555
H53 C56 1_555 1_555
C57 C56 1_555 1_555
C58 C53 1_555 1_555
H54 C58 1_555 1_555
C59 C55 1_555 1_555
H55 C59 1_555 1_555
N11 C59 1_555 1_555
O11 N11 1_555 1_555
B4 O11 1_555 1_555
O12 B3 1_555 1_555
N12 Zn4 1_555 1_555
C60 N12 1_555 1_555
H56 C60 1_555 1_555
C61 C60 1_555 1_555
C62 C61 1_555 1_555
C63 C62 1_555 1_555
C64 C63 1_555 1_555
H57 C64 1_555 1_555
C65 C64 1_555 1_555
C66 C61 1_555 1_555
H58 C66 1_555 1_555
C67 C63 1_555 1_555
H59 C67 1_555 1_555
N13 Zn3 1_555 1_555
O13 B4 1_555 1_555
O14 B3 1_555 1_555
N14 Zn4 1_555 1_555
C68 N14 1_555 1_555
H60 C68 1_555 1_555
C69 C68 1_555 1_555
C70 C69 1_555 1_555
C71 C70 1_555 1_555
C72 C71 1_555 1_555
H61 C72 1_555 1_555
C73 C72 1_555 1_555
C74 C69 1_555 1_555
H62 C74 1_555 1_555
C75 C71 1_555 1_555
H63 C75 1_555 1_555
N15 Zn3 1_555 1_555
O15 B4 1_555 1_555
C76 B4 1_555 1_555
C77 C76 1_555 1_555
H64 C77 1_555 1_555
C78 C77 1_555 1_555
H65 C78 1_555 1_555
N16 C78 1_555 1_555
C79 N16 1_555 1_555
H66 C79 1_555 1_555
C80 C76 1_555 1_555
H67 C80 1_555 1_555
O16 Zn3 1_555 1_555
C81 C57 1_555 1_555
C82 C81 1_555 1_555
H68 C82 1_555 1_555
H69 C82 1_555 1_555
H70 C82 1_555 1_555
C83 C81 1_555 1_555
H71 C83 1_555 1_555
H72 C83 1_555 1_555
H73 C83 1_555 1_555
C84 C81 1_555 1_555
H74 C84 1_555 1_555
H75 C84 1_555 1_555
H76 C84 1_555 1_555
O17 Zn3 1_555 1_555
C85 C65 1_555 1_555
C86 C85 1_555 1_555
H77 C86 1_555 1_555
H78 C86 1_555 1_555
H79 C86 1_555 1_555
C87 C85 1_555 1_555
H80 C87 1_555 1_555
H81 C87 1_555 1_555
H82 C87 1_555 1_555
C88 C85 1_555 1_555
H83 C88 1_555 1_555
H84 C88 1_555 1_555
H85 C88 1_555 1_555
O18 Zn3 1_555 1_555
C89 C73 1_555 1_555
C90 C89 1_555 1_555
H86 C90 1_555 1_555
H87 C90 1_555 1_555
H88 C90 1_555 1_555
C91 C89 1_555 1_555
H89 C91 1_555 1_555
H90 C91 1_555 1_555
H91 C91 1_555 1_555
C92 C89 1_555 1_555
H92 C92 1_555 1_555
H93 C92 1_555 1_555
H94 C92 1_555 1_555
O19 Cd1 1_555 1_555
O20 Cd1 1_555 1_555
Cd2 N17 1_555 1_555
Zn5 N18 1_555 1_555
Zn6 N19 1_555 1_555
C93 C94 1_555 1_555
C94 H95 1_555 1_555
C95 C94 1_555 1_555
H96 C95 1_555 1_555
N17 C95 1_555 1_555
C96 N17 1_555 1_555
H97 C96 1_555 1_555
C97 C93 1_555 1_555
H98 C97 1_555 1_555
B5 C93 1_555 1_555
O21 B5 1_555 1_555
N18 O21 1_555 1_555
C98 N18 1_555 1_555
H99 C98 1_555 1_555
C99 C98 1_555 1_555
C100 C99 1_555 1_555
C101 C100 1_555 1_555
C102 C101 1_555 1_555
H100 C102 1_555 1_555
C103 C102 1_555 1_555
C104 C99 1_555 1_555
H101 C104 1_555 1_555
C105 C101 1_555 1_555
H102 C105 1_555 1_555
N19 C105 1_555 1_555
O22 N19 1_555 1_555
B6 O22 1_555 1_555
O23 B5 1_555 1_555
N20 Zn5 1_555 1_555
C106 N20 1_555 1_555
H103 C106 1_555 1_555
C107 C106 1_555 1_555
C108 C107 1_555 1_555
C109 C108 1_555 1_555
C110 C109 1_555 1_555
H104 C110 1_555 1_555
C111 C110 1_555 1_555
C112 C107 1_555 1_555
H105 C112 1_555 1_555
C113 C109 1_555 1_555
H106 C113 1_555 1_555
N21 Zn6 1_555 1_555
O24 B6 1_555 1_555
O25 B5 1_555 1_555
N22 Zn5 1_555 1_555
C114 N22 1_555 1_555
H107 C114 1_555 1_555
C115 C114 1_555 1_555
C116 C115 1_555 1_555
C117 C116 1_555 1_555
C118 C117 1_555 1_555
H108 C118 1_555 1_555
C119 C118 1_555 1_555
C120 C115 1_555 1_555
H109 C120 1_555 1_555
C121 C117 1_555 1_555
H110 C121 1_555 1_555
N23 Zn6 1_555 1_555
O26 B6 1_555 1_555
C122 B6 1_555 1_555
C123 C122 1_555 1_555
H111 C123 1_555 1_555
C124 C123 1_555 1_555
H112 C124 1_555 1_555
N24 C124 1_555 1_555
C125 N24 1_555 1_555
H113 C125 1_555 1_555
C126 C122 1_555 1_555
H114 C126 1_555 1_555
O27 Zn5 1_555 1_555
C127 C103 1_555 1_555
C128 C127 1_555 1_555
H115 C128 1_555 1_555
H116 C128 1_555 1_555
H117 C128 1_555 1_555
C129 C127 1_555 1_555
H118 C129 1_555 1_555
H119 C129 1_555 1_555
H120 C129 1_555 1_555
C130 C127 1_555 1_555
H121 C130 1_555 1_555
H122 C130 1_555 1_555
H123 C130 1_555 1_555
O28 Zn5 1_555 1_555
C131 C111 1_555 1_555
C132 C131 1_555 1_555
H124 C132 1_555 1_555
H125 C132 1_555 1_555
H126 C132 1_555 1_555
C133 C131 1_555 1_555
H127 C133 1_555 1_555
H128 C133 1_555 1_555
H129 C133 1_555 1_555
C134 C131 1_555 1_555
H130 C134 1_555 1_555
H131 C134 1_555 1_555
H132 C134 1_555 1_555
O29 Zn5 1_555 1_555
C135 C119 1_555 1_555
C136 C135 1_555 1_555
H133 C136 1_555 1_555
H134 C136 1_555 1_555
H135 C136 1_555 1_555
C137 C135 1_555 1_555
H136 C137 1_555 1_555
H137 C137 1_555 1_555
H138 C137 1_555 1_555
C138 C135 1_555 1_555
H139 C138 1_555 1_555
H140 C138 1_555 1_555
H141 C138 1_555 1_555
Zn7 N26 1_555 1_555
Zn8 N27 1_555 1_555
C139 C140 1_555 1_555
C140 H142 1_555 1_555
C141 C140 1_555 1_555
H143 C141 1_555 1_555
N25 Cd2 1_555 1_555
C142 N25 1_555 1_555
H144 C142 1_555 1_555
C143 C139 1_555 1_555
H145 C143 1_555 1_555
B7 C139 1_555 1_555
O30 B7 1_555 1_555
N26 O30 1_555 1_555
C144 N26 1_555 1_555
H146 C144 1_555 1_555
C145 C144 1_555 1_555
C146 C145 1_555 1_555
C147 C146 1_555 1_555
C148 C147 1_555 1_555
H147 C148 1_555 1_555
C149 C148 1_555 1_555
C150 C145 1_555 1_555
H148 C150 1_555 1_555
C151 C147 1_555 1_555
H149 C151 1_555 1_555
N27 C151 1_555 1_555
O31 N27 1_555 1_555
B8 O31 1_555 1_555
O32 B7 1_555 1_555
N28 Zn7 1_555 1_555
C152 N28 1_555 1_555
H150 C152 1_555 1_555
C153 C152 1_555 1_555
C154 C153 1_555 1_555
C155 C154 1_555 1_555
C156 C155 1_555 1_555
H151 C156 1_555 1_555
C157 C156 1_555 1_555
C158 C153 1_555 1_555
H152 C158 1_555 1_555
C159 C155 1_555 1_555
H153 C159 1_555 1_555
N29 Zn8 1_555 1_555
O33 B8 1_555 1_555
O34 B7 1_555 1_555
N30 Zn7 1_555 1_555
C160 N30 1_555 1_555
H154 C160 1_555 1_555
C161 C160 1_555 1_555
C162 C161 1_555 1_555
C163 C162 1_555 1_555
C164 C163 1_555 1_555
H155 C164 1_555 1_555
C165 C164 1_555 1_555
C166 C161 1_555 1_555
H156 C166 1_555 1_555
C167 C163 1_555 1_555
H157 C167 1_555 1_555
N31 Zn8 1_555 1_555
O35 B8 1_555 1_555
C168 B8 1_555 1_555
C169 C168 1_555 1_555
H158 C169 1_555 1_555
C170 C169 1_555 1_555
H159 C170 1_555 1_555
N32 C170 1_555 1_555
C171 N32 1_555 1_555
H160 C171 1_555 1_555
C172 C168 1_555 1_555
H161 C172 1_555 1_555
O36 Zn7 1_555 1_555
C173 C149 1_555 1_555
C174 C173 1_555 1_555
H162 C174 1_555 1_555
H163 C174 1_555 1_555
H164 C174 1_555 1_555
C175 C173 1_555 1_555
H165 C175 1_555 1_555
H166 C175 1_555 1_555
H167 C175 1_555 1_555
C176 C173 1_555 1_555
H168 C176 1_555 1_555
H169 C176 1_555 1_555
H170 C176 1_555 1_555
O37 Zn7 1_555 1_555
C177 C157 1_555 1_555
C178 C177 1_555 1_555
H171 C178 1_555 1_555
H172 C178 1_555 1_555
H173 C178 1_555 1_555
C179 C177 1_555 1_555
H174 C179 1_555 1_555
H175 C179 1_555 1_555
H176 C179 1_555 1_555
C180 C177 1_555 1_555
H177 C180 1_555 1_555
H178 C180 1_555 1_555
H179 C180 1_555 1_555
O38 Zn7 1_555 1_555
C181 C165 1_555 1_555
C182 C181 1_555 1_555
H180 C182 1_555 1_555
H181 C182 1_555 1_555
H182 C182 1_555 1_555
C183 C181 1_555 1_555
H183 C183 1_555 1_555
H184 C183 1_555 1_555
H185 C183 1_555 1_555
C184 C181 1_555 1_555
H186 C184 1_555 1_555
H187 C184 1_555 1_555
H188 C184 1_555 1_555
N33 C185 1_555 1_555
C185 H189 1_555 1_555
H190 C185 1_555 1_555
H191 C185 1_555 1_555
C186 N33 1_555 1_555
H192 C186 1_555 1_555
H193 C186 1_555 1_555
H194 C186 1_555 1_555
C187 N33 1_555 1_555
H195 C187 1_555 1_555
O39 Cd2 1_555 1_555
O40 Cd2 1_555 1_555
N34 C188 1_555 1_555
C188 H196 1_555 1_555
H197 C188 1_555 1_555
H198 C188 1_555 1_555
C189 N34 1_555 1_555
H199 C189 1_555 1_555
H200 C189 1_555 1_555
H201 C189 1_555 1_555
C190 N34 1_555 1_555
H202 C190 1_555 1_555
O41 C190 1_555 1_555
N35 C191 1_555 1_555
C191 H203 1_555 1_555
H204 C191 1_555 1_555
H205 C191 1_555 1_555
C192 N35 1_555 1_555
H206 C192 1_555 1_555
H207 C192 1_555 1_555
H208 C192 1_555 1_555
C193 N35 1_555 1_555
H209 C193 1_555 1_555
O42 C193 1_555 1_555
N36 C194 1_555 1_555
C194 H210 1_555 1_555
H211 C194 1_555 1_555
H212 C194 1_555 1_555
C195 N36 1_555 1_555
H213 C195 1_555 1_555
H214 C195 1_555 1_555
H215 C195 1_555 1_555
C196 N36 1_555 1_555
H216 C196 1_555 1_555
O43 C196 1_555 1_555
N37 C197 1_555 1_555
C197 H217 1_555 1_555
H218 C197 1_555 1_555
H219 C197 1_555 1_555
C198 N37 1_555 1_555
H220 C198 1_555 1_555
H221 C198 1_555 1_555
H222 C198 1_555 1_555
C199 N37 1_555 1_555
H223 C199 1_555 1_555
O44 C199 1_555 1_555
N38 C200 1_555 1_555
C200 H224 1_555 1_555
H225 C200 1_555 1_555
H226 C200 1_555 1_555
C201 N38 1_555 1_555
H227 C201 1_555 1_555
H228 C201 1_555 1_555
H229 C201 1_555 1_555
C202 N38 1_555 1_555
H230 C202 1_555 1_555
O45 C202 1_555 1_555
N39 C203 1_555 1_555
C203 H231 1_555 1_555
H232 C203 1_555 1_555
H233 C203 1_555 1_555
C204 N39 1_555 1_555
H234 C204 1_555 1_555
H235 C204 1_555 1_555
H236 C204 1_555 1_555
C205 N39 1_555 1_555
H237 C205 1_555 1_555
O46 C205 1_555 1_555
N40 C206 1_555 1_555
C206 H238 1_555 1_555
H239 C206 1_555 1_555
H240 C206 1_555 1_555
C207 N40 1_555 1_555
H241 C207 1_555 1_555
H242 C207 1_555 1_555
H243 C207 1_555 1_555
C208 N40 1_555 1_555
H244 C208 1_555 1_555
O47 C208 1_555 1_555
N41 C209 1_555 1_555
C209 H245 1_555 1_555
H246 C209 1_555 1_555
H247 C209 1_555 1_555
C210 N41 1_555 1_555
H248 C210 1_555 1_555
H249 C210 1_555 1_555
H250 C210 1_555 1_555
C211 N41 1_555 1_555
H251 C211 1_555 1_555
O48 C211 1_555 1_555
N42 C212 1_555 1_555
C212 H252 1_555 1_555
H253 C212 1_555 1_555
H254 C212 1_555 1_555
C213 N42 1_555 1_555
H255 C213 1_555 1_555
H256 C213 1_555 1_555
H257 C213 1_555 1_555
C214 N42 1_555 1_555
H258 C214 1_555 1_555
O49 C214 1_555 1_555
N43 C215 1_555 1_555
C215 H259 1_555 1_555
H260 C215 1_555 1_555
H261 C215 1_555 1_555
C216 N43 1_555 1_555
H262 C216 1_555 1_555
H263 C216 1_555 1_555
H264 C216 1_555 1_555
C217 N43 1_555 1_555
H265 C217 1_555 1_555
O50 C217 1_555 1_555
N44 C218 1_555 1_555
C218 H266 1_555 1_555
H267 C218 1_555 1_555
H268 C218 1_555 1_555
C219 N44 1_555 1_555
H269 C219 1_555 1_555
H270 C219 1_555 1_555
H271 C219 1_555 1_555
C220 N44 1_555 1_555
H272 C220 1_555 1_555
O51 C220 1_555 1_555
N45 C221 1_555 1_555
C221 H273 1_555 1_555
H274 C221 1_555 1_555
H275 C221 1_555 1_555
C222 N45 1_555 1_555
H276 C222 1_555 1_555
H277 C222 1_555 1_555
H278 C222 1_555 1_555
C223 N45 1_555 1_555
H279 C223 1_555 1_555
O52 C223 1_555 1_555
Cd1_2 N16 1_555 1_555
Cd1_3 N1 1_555 1_555
N1_2 Cd1 1_555 1_555
N16_2 Cd1 1_555 1_555
Cd2_2 N24 1_555 1_555
Cd2_3 N32 1_555 1_555
N24_2 Cd2 1_555 1_555
N32_2 Cd2 1_555 1_555
Zn2 O7 1_555 1_555
Zn2 O8 1_555 1_555
Zn2 O9 1_555 1_555
C4 C5 1_555 1_555
C8 O7 1_555 1_555
C11 C12 1_555 1_555
O3 N4 1_555 1_555
C16 O8 1_555 1_555
C19 C20 1_555 1_555
C21 N5 1_555 1_555
N5 O4 1_555 1_555
O5 N6 1_555 1_555
C24 O9 1_555 1_555
C27 C28 1_555 1_555
C29 N7 1_555 1_555
N7 O6 1_555 1_555
C33 C34 1_555 1_555
Zn4 O16 1_555 1_555
Zn4 O17 1_555 1_555
Zn4 O18 1_555 1_555
C49 N9 1_555 1_555
C50 C51 1_555 1_555
C54 O16 1_555 1_555
C57 C58 1_555 1_555
O12 N12 1_555 1_555
C62 O17 1_555 1_555
C65 C66 1_555 1_555
C67 N13 1_555 1_555
N13 O13 1_555 1_555
O14 N14 1_555 1_555
C70 O18 1_555 1_555
C73 C74 1_555 1_555
C75 N15 1_555 1_555
N15 O15 1_555 1_555
C79 C80 1_555 1_555
Zn6 O27 1_555 1_555
Zn6 O28 1_555 1_555
Zn6 O29 1_555 1_555
C96 C97 1_555 1_555
C100 O27 1_555 1_555
C103 C104 1_555 1_555
O23 N20 1_555 1_555
C108 O28 1_555 1_555
C111 C112 1_555 1_555
C113 N21 1_555 1_555
N21 O24 1_555 1_555
O25 N22 1_555 1_555
C116 O29 1_555 1_555
C119 C120 1_555 1_555
C121 N23 1_555 1_555
N23 O26 1_555 1_555
C125 C126 1_555 1_555
Zn8 O36 1_555 1_555
Zn8 O37 1_555 1_555
Zn8 O38 1_555 1_555
C141 N25 1_555 1_555
C142 C143 1_555 1_555
C146 O36 1_555 1_555
C149 C150 1_555 1_555
O32 N28 1_555 1_555
C154 O37 1_555 1_555
C157 C158 1_555 1_555
C159 N29 1_555 1_555
N29 O33 1_555 1_555
O34 N30 1_555 1_555
C162 O38 1_555 1_555
C165 C166 1_555 1_555
C167 N31 1_555 1_555
N31 O35 1_555 1_555
C171 C172 1_555 1_555
C187 O39 1_555 1_555

#END
