
#######################################################################
#
#                 Cambridge Crystallographic Data Centre
#                                CCDC 
#
#######################################################################
#
# If this CIF has been generated from an entry in the Cambridge 
# Structural Database, then it will include bibliographic, chemical, 
# crystal, experimental, refinement or atomic coordinate data resulting 
# from the CCDC's data processing and validation procedures.
#
#######################################################################

data_YIYYIP
_symmetry_cell_setting           monoclinic
_symmetry_space_group_name_H-M   'P 21/c'
_symmetry_Int_Tables_number      14
_space_group_name_Hall           '-P 2ybc'
loop_
_symmetry_equiv_pos_site_id
_symmetry_equiv_pos_as_xyz
1 x,y,z
2 -x,1/2+y,1/2-z
3 -x,-y,-z
4 x,1/2-y,1/2+z
_cell_length_a                   8.4826(7)
_cell_length_b                   13.9955(12)
_cell_length_c                   11.1165(9)
_cell_angle_alpha                90
_cell_angle_beta                 110.7400(10)
_cell_angle_gamma                90
_cell_volume                     1234.21
loop_
_atom_site_label
_atom_site_type_symbol
_atom_site_fract_x
_atom_site_fract_y
_atom_site_fract_z
Cu1 Cu 0.25465(4) 0.25371(2) 0.40050(3)
S1 S -0.09968(8) 0.56173(4) 0.22882(6)
S2 S 0.01901(8) 0.43547(4) 0.29177(6)
S3 S 0.44733(8) 0.15873(5) 0.56766(6)
N1 N 0.1501(3) 0.56463(16) 0.1306(2)
N2 N 0.2814(3) 0.39174(14) 0.49206(18)
N3 N 0.3203(3) 0.22036(16) 0.7555(2)
N4 N -0.0386(2) 0.69675(14) 0.08977(19)
N5 N 0.2097(3) 0.55750(15) 0.4735(2)
C1 C 0.0206(3) 0.61145(17) 0.1408(2)
C2 C 0.0384(3) 0.73591(18) 0.0150(3)
H1 H 0.0000 0.7950 -0.0249
C3 C 0.1726(3) 0.6916(2) -0.0050(3)
H2 H 0.2258 0.7190 -0.0578
C4 C 0.2248(3) 0.6057(2) 0.0559(3)
H3 H 0.3166 0.5744 0.0447
C5 C 0.4141(3) 0.41164(18) 0.5987(2)
H4 H 0.4856 0.3614 0.6416
C6 C 0.4493(3) 0.50250(19) 0.6474(2)
H5 H 0.5423 0.5154 0.7223
C7 C 0.3417(4) 0.57364(19) 0.5813(3)
H6 H 0.3618 0.6364 0.6131
C8 C 0.1873(3) 0.46738(16) 0.4351(2)
C9 C 0.3701(3) 0.19473(17) 0.6775(2)
Cu1C Cu 0.25465(4) 0.24629(2) 0.90050(3)
Cu1A Cu -0.25465(4) 0.75371(2) 0.09950(3)
N3C N 0.3203(3) 0.27964(16) 0.2555(2)
N4A N 0.0386(2) 0.19675(14) 0.41023(19)
loop_
_geom_bond_atom_site_label_1
_geom_bond_atom_site_label_2
_geom_bond_site_symmetry_1
_geom_bond_site_symmetry_2
Cu1 S3 1_555 1_555
S1 S2 1_555 1_555
S2 C8 1_555 1_555
S3 C9 1_555 1_555
N1 C1 1_555 1_555
N2 Cu1 1_555 1_555
N3 C9 1_555 1_555
N4 C1 1_555 1_555
N5 C7 1_555 1_555
C1 S1 1_555 1_555
C2 N4 1_555 1_555
H1 C2 1_555 1_555
C3 C2 1_555 1_555
H2 C3 1_555 1_555
C4 N1 1_555 1_555
H3 C4 1_555 1_555
C5 N2 1_555 1_555
H4 C5 1_555 1_555
C6 C5 1_555 1_555
H5 C6 1_555 1_555
C7 C6 1_555 1_555
H6 C7 1_555 1_555
C8 N2 1_555 1_555
Cu1C N3 1_555 1_555
Cu1A N4 1_555 1_555
N3C Cu1 1_555 1_555
N4A Cu1 1_555 1_555
N5 C8 1_555 1_555
C3 C4 1_555 1_555

#END
