
#######################################################################
#
#                 Cambridge Crystallographic Data Centre
#                                CCDC 
#
#######################################################################
#
# If this CIF has been generated from an entry in the Cambridge 
# Structural Database, then it will include bibliographic, chemical, 
# crystal, experimental, refinement or atomic coordinate data resulting 
# from the CCDC's data processing and validation procedures.
#
#######################################################################

data_YIYYEL
_symmetry_cell_setting           monoclinic
_symmetry_space_group_name_H-M   'P 21/n'
_symmetry_Int_Tables_number      14
_space_group_name_Hall           '-P 2yn'
loop_
_symmetry_equiv_pos_site_id
_symmetry_equiv_pos_as_xyz
1 x,y,z
2 1/2-x,1/2+y,1/2-z
3 -x,-y,-z
4 1/2+x,1/2-y,1/2+z
_cell_length_a                   10.5531(11)
_cell_length_b                   11.7012(12)
_cell_length_c                   11.8476(12)
_cell_angle_alpha                90
_cell_angle_beta                 113.387(2)
_cell_angle_gamma                90
_cell_volume                     1342.8
loop_
_atom_site_label
_atom_site_type_symbol
_atom_site_fract_x
_atom_site_fract_y
_atom_site_fract_z
Cu1 Cu 0.41297(3) 0.51486(2) 0.10497(3)
Cl1 Cl 0.49972(6) 0.36070(5) 0.04128(6)
Cl2 Cl 0.33335(7) 0.66341(6) 0.17789(6)
N1 N 0.2188(2) 0.49259(16) -0.0288(2)
N2 N 0.0008(2) 0.3992(2) -0.1243(2)
N3 N 0.0926(2) -0.02636(18) -0.2425(2)
N4 N 0.2226(3) 0.0204(2) -0.0320(2)
C1 C 0.1643(3) 0.5841(2) -0.1003(2)
H1 H 0.2203 0.6488 -0.0917
C2 C 0.0304(3) 0.5870(2) -0.1854(3)
H2 H -0.0054 0.6508 -0.2363
C3 C -0.0491(3) 0.4917(2) -0.1925(3)
H3 H -0.1422 0.4922 -0.2477
C4 C 0.1332(3) 0.4023(2) -0.0456(2)
C5 C 0.0490(3) 0.1926(2) -0.0004(2)
H4 H -0.0249 0.2386 0.0071
H5 H 0.0685 0.1295 0.0586
C6 C 0.1913(3) -0.0994(2) -0.2392(3)
H6 H 0.1795 -0.1419 -0.3100
C7 C 0.3099(3) -0.1141(2) -0.1347(3)
H7 H 0.3811 -0.1631 -0.1333
C8 C 0.3187(3) -0.0535(3) -0.0327(3)
H8 H 0.3968 -0.0646 0.0408
C9 C 0.1131(3) 0.0325(2) -0.1396(3)
S1 S 0.20165(7) 0.28028(6) 0.04330(6)
S2 S -0.01415(7) 0.13290(6) -0.15313(7)
Cu1B Cu 0.58703(3) 0.48514(2) -0.10497(3)
Cu1C Cu -0.08703(3) -0.01486(2) -0.39503(3)
Cl1B Cl 0.50028(6) 0.63930(5) -0.04128(6)
N3C N 0.5926(2) 0.52636(18) 0.2575(2)
loop_
_geom_bond_atom_site_label_1
_geom_bond_atom_site_label_2
_geom_bond_site_symmetry_1
_geom_bond_site_symmetry_2
Cu1 Cl1 1_555 1_555
Cl1 Cu1B 1_555 1_555
Cl2 Cu1 1_555 1_555
N1 Cu1 1_555 1_555
N2 C3 1_555 1_555
N3 C6 1_555 1_555
N4 C8 1_555 1_555
C1 N1 1_555 1_555
H1 C1 1_555 1_555
C2 C1 1_555 1_555
H2 C2 1_555 1_555
C3 C2 1_555 1_555
H3 C3 1_555 1_555
C4 N1 1_555 1_555
C5 H4 1_555 1_555
H5 C5 1_555 1_555
C6 H6 1_555 1_555
C7 C6 1_555 1_555
H7 C7 1_555 1_555
C8 C7 1_555 1_555
H8 C8 1_555 1_555
C9 N3 1_555 1_555
S1 C4 1_555 1_555
S2 C5 1_555 1_555
Cu1B Cl1B 1_555 1_555
Cu1C N3 1_555 1_555
Cl1B Cu1 1_555 1_555
N3C Cu1 1_555 1_555
N2 C4 1_555 1_555
N4 C9 1_555 1_555
C5 S1 1_555 1_555
C9 S2 1_555 1_555

#END
