
#######################################################################
#
#                 Cambridge Crystallographic Data Centre
#                                CCDC 
#
#######################################################################
#
# If this CIF has been generated from an entry in the Cambridge 
# Structural Database, then it will include bibliographic, chemical, 
# crystal, experimental, refinement or atomic coordinate data resulting 
# from the CCDC's data processing and validation procedures.
#
#######################################################################

data_YIYZUC
_symmetry_cell_setting           monoclinic
_symmetry_space_group_name_H-M   'P 21/n'
_symmetry_Int_Tables_number      14
_space_group_name_Hall           '-P 2yn'
loop_
_symmetry_equiv_pos_site_id
_symmetry_equiv_pos_as_xyz
1 x,y,z
2 1/2-x,1/2+y,1/2-z
3 -x,-y,-z
4 1/2+x,1/2-y,1/2+z
_cell_length_a                   10.341(2)
_cell_length_b                   8.8227(19)
_cell_length_c                   22.545(5)
_cell_angle_alpha                90
_cell_angle_beta                 91.704(3)
_cell_angle_gamma                90
_cell_volume                     2056
loop_
_atom_site_label
_atom_site_type_symbol
_atom_site_fract_x
_atom_site_fract_y
_atom_site_fract_z
Zn1 Zn 1.19919(5) 0.41538(6) 0.11948(2)
N1 N 1.0356(3) 0.3396(4) 0.15815(13)
N2 N 0.8286(3) 0.2965(5) 0.17662(15)
N3 N 0.9058(3) 0.2158(3) 0.21444(13)
N4 N 0.7965(3) 0.4005(4) 0.49304(14)
N5 N 0.8429(4) 0.4765(5) 0.54100(16)
N6 N 0.7599(3) 0.2568(4) 0.56814(13)
N7 N 1.1760(8) 0.5985(6) 0.0755(3)
N8 N 1.1176(6) 0.6307(6) 0.0341(2)
N9 N 1.0600(13) 0.6728(11) -0.0053(4)
N10 N 1.3231(4) 0.4367(6) 0.1880(2)
N11 N 1.2852(3) 0.4472(5) 0.23592(18)
N12 N 1.2542(4) 0.4613(7) 0.2828(2)
C1 C 1.0283(4) 0.2437(5) 0.20274(17)
H1 H 1.0992 0.2017 0.2231
C2 C 0.9103(4) 0.3691(6) 0.14380(18)
H2 H 0.8847 0.4348 0.1134
C3 C 0.8510(4) 0.1181(4) 0.25995(17)
H3 H 0.9207 0.0703 0.2828
H4 H 0.7998 0.0388 0.2409
C4 C 0.7671(3) 0.2067(4) 0.30114(14)
C5 C 0.6336(3) 0.2123(4) 0.29002(15)
C6 C 0.5580(4) 0.2960(5) 0.32843(17)
H5 H 0.4686 0.2969 0.3223
C7 C 0.6108(4) 0.3768(4) 0.37477(17)
C8 C 0.7456(4) 0.3729(4) 0.38521(15)
C9 C 0.8238(3) 0.2845(4) 0.34962(14)
C10 C 0.8042(5) 0.4712(5) 0.43397(17)
H6 H 0.8942 0.4907 0.4257
H7 H 0.7594 0.5678 0.4342
C11 C 0.9676(4) 0.2763(6) 0.36193(18)
H8 H 1.0098 0.3547 0.3403
H9 H 0.9992 0.1792 0.3497
H10 H 0.9853 0.2896 0.4036
C12 C 0.5676(5) 0.1330(5) 0.2379(2)
H11 H 0.4756 0.1448 0.2401
H12 H 0.5891 0.0271 0.2389
H13 H 0.5963 0.1767 0.2016
C13 C 0.5213(5) 0.4660(6) 0.4141(2)
H14 H 0.4333 0.4519 0.4004
H15 H 0.5430 0.5717 0.4124
H16 H 0.5311 0.4307 0.4542
C14 C 0.7491(4) 0.2705(5) 0.50955(17)
H17 H 0.7131 0.1981 0.4840
C15 C 0.8173(5) 0.3857(6) 0.58457(19)
H18 H 0.8374 0.4090 0.6240
Zn1C Zn 0.69919(5) 0.08462(6) 0.61948(2)
N6C N 1.2599(3) 0.2432(4) 0.06814(13)
O1 O 0.6048(15) 0.4094(16) 0.0579(6)
O2? O 0.5569(14) 0.333(3) 0.0140(8)
loop_
_geom_bond_atom_site_label_1
_geom_bond_atom_site_label_2
_geom_bond_site_symmetry_1
_geom_bond_site_symmetry_2
Zn1 N1 1_555 1_555
N1 C1 1_555 1_555
N2 N3 1_555 1_555
N3 C1 1_555 1_555
N4 N5 1_555 1_555
N5 C15 1_555 1_555
N6 C14 1_555 1_555
N7 Zn1 1_555 1_555
N8 N7 1_555 1_555
N9 N8 1_555 1_555
N10 Zn1 1_555 1_555
N11 N10 1_555 1_555
N12 N11 1_555 1_555
C1 H1 1_555 1_555
C2 N1 1_555 1_555
H2 C2 1_555 1_555
C3 N3 1_555 1_555
H3 C3 1_555 1_555
H4 C3 1_555 1_555
C4 C3 1_555 1_555
C5 C4 1_555 1_555
C6 C5 1_555 1_555
H5 C6 1_555 1_555
C7 C6 1_555 1_555
C8 C7 1_555 1_555
C9 C4 1_555 1_555
C10 N4 1_555 1_555
H6 C10 1_555 1_555
H7 C10 1_555 1_555
C11 C9 1_555 1_555
H8 C11 1_555 1_555
H9 C11 1_555 1_555
H10 C11 1_555 1_555
C12 C5 1_555 1_555
H11 C12 1_555 1_555
H12 C12 1_555 1_555
H13 C12 1_555 1_555
C13 C7 1_555 1_555
H14 C13 1_555 1_555
H15 C13 1_555 1_555
H16 C13 1_555 1_555
C14 N4 1_555 1_555
H17 C14 1_555 1_555
C15 N6 1_555 1_555
H18 C15 1_555 1_555
Zn1C N6 1_555 1_555
N6C Zn1 1_555 1_555
N2 C2 1_555 1_555
C8 C9 1_555 1_555
C8 C10 1_555 1_555

#END
