
#######################################################################
#
#                 Cambridge Crystallographic Data Centre
#                                CCDC 
#
#######################################################################
#
# If this CIF has been generated from an entry in the Cambridge 
# Structural Database, then it will include bibliographic, chemical, 
# crystal, experimental, refinement or atomic coordinate data resulting 
# from the CCDC's data processing and validation procedures.
#
#######################################################################

data_YIZBAL
_symmetry_cell_setting           triclinic
_symmetry_space_group_name_H-M   'P -1'
_symmetry_Int_Tables_number      2
_space_group_name_Hall           '-P 1'
loop_
_symmetry_equiv_pos_site_id
_symmetry_equiv_pos_as_xyz
1 x,y,z
2 -x,-y,-z
_cell_length_a                   11.388(2)
_cell_length_b                   12.038(2)
_cell_length_c                   15.878(3)
_cell_angle_alpha                68.97(3)
_cell_angle_beta                 70.78(3)
_cell_angle_gamma                78.81(3)
_cell_volume                     1911.33
loop_
_atom_site_label
_atom_site_type_symbol
_atom_site_fract_x
_atom_site_fract_y
_atom_site_fract_z
Cu1 Cu 0.5000 1.0000 0.0000
Cu2 Cu 0.0000 0.0000 0.5000
Br1 Br 0.45759(4) 1.04857(4) 0.17790(3)
Br2 Br 0.12452(4) -0.11391(4) 0.34824(3)
N1 N 0.8439(3) 0.8650(3) 0.0454(3)
N2 N 0.8872(3) 0.8994(3) -0.0501(3)
N3 N 0.6805(3) 0.9398(3) -0.0036(2)
N4 N 0.4487(3) 0.8342(3) 0.0729(2)
N5 N 0.4342(4) 0.6389(3) 0.1065(3)
N6 N 0.3689(3) 0.6779(3) 0.1819(2)
N7 N 0.3495(3) 0.1113(3) 0.4297(2)
N8 N 0.3140(3) 0.1083(3) 0.5208(2)
N9 N 0.1663(3) 0.0463(3) 0.4892(2)
N10 N 0.9789(3) 0.1581(3) 0.3969(2)
N11 N 0.9531(4) 0.2970(3) 0.2701(2)
N12 N 0.9393(4) 0.3540(3) 0.3331(3)
C1 C 0.7848(4) 0.9436(4) -0.0755(3)
H1 H 0.7845 0.9751 -0.1381
C2 C 0.7217(4) 0.8904(4) 0.0712(3)
H2 H 0.6721 0.8755 0.1331
C3 C 0.9278(5) 0.8102(4) 0.1062(4)
H3 H 0.8796 0.7970 0.1714
H4 H 0.9895 0.8650 0.0911
C4 C 0.9937(4) 0.6929(4) 0.0941(3)
C5 C 0.9327(4) 0.5873(4) 0.1386(3)
C6 C 0.9986(4) 0.4790(4) 0.1296(3)
C7 C 1.1233(4) 0.4763(4) 0.0770(3)
C8 C 1.1808(4) 0.5817(5) 0.0336(3)
H5 H 1.2642 0.5798 -0.0015
C9 C 1.1185(4) 0.6891(4) 0.0408(4)
C10 C 1.1915(5) 0.8002(5) -0.0124(5)
H6 H 1.2680 0.7809 -0.0553
H7 H 1.2099 0.8268 0.0317
H8 H 1.1422 0.8626 -0.0469
C11 C 0.7968(5) 0.5905(5) 0.1951(4)
H9 H 0.7768 0.6564 0.2193
H10 H 0.7820 0.5172 0.2465
H11 H 0.7452 0.5997 0.1554
C12 C 1.1999(6) 0.3625(5) 0.0646(4)
H12 H 1.2809 0.3813 0.0218
H13 H 1.1586 0.3245 0.0397
H14 H 1.2088 0.3096 0.1244
C13 C 0.4801(4) 0.7364(4) 0.0429(3)
H15 H 0.5297 0.7390 -0.0174
C14 C 0.3788(4) 0.7923(3) 0.1606(3)
H16 H 0.3422 0.8371 0.2012
C15 C 0.3040(4) 0.5938(4) 0.2718(3)
H17 H 0.2414 0.5594 0.2619
H18 H 0.2616 0.6370 0.3162
C16 C 0.3924(4) 0.4949(3) 0.3131(3)
C17 C 0.3948(4) 0.3785(3) 0.3121(3)
C18 C 0.4710(3) 0.2867(3) 0.3581(3)
C19 C 0.5481(4) 0.3126(4) 0.3997(3)
C20 C 0.5481(4) 0.4291(4) 0.3954(3)
H19 H 0.6020 0.4462 0.4214
C21 C 0.4717(4) 0.5212(4) 0.3543(3)
C22 C 0.4742(6) 0.6466(4) 0.3537(4)
H20 H 0.5234 0.6448 0.3931
H21 H 0.3906 0.6788 0.3771
H22 H 0.5101 0.6959 0.2906
C23 C 0.3165(5) 0.3535(4) 0.2614(4)
H23 H 0.2321 0.3458 0.3008
H24 H 0.3497 0.2806 0.2471
H25 H 0.3180 0.4181 0.2040
C24 C 0.6318(5) 0.2167(4) 0.4498(4)
H26 H 0.5829 0.1541 0.4969
H27 H 0.6707 0.2505 0.4791
H28 H 0.6949 0.1846 0.4051
C25 C 0.4682(4) 0.1589(3) 0.3645(3)
H29 H 0.4776 0.1552 0.3025
H30 H 0.5374 0.1102 0.3864
C26 C 0.2612(4) 0.0723(3) 0.4127(3)
H31 H 0.2656 0.0645 0.3556
C27 C 0.2024(4) 0.0698(4) 0.5536(3)
H32 H 0.1530 0.0596 0.6152
C28 C 0.9771(4) 0.1808(4) 0.3099(3)
H33 H 0.9906 0.1233 0.2804
C29 C 0.9555(5) 0.2675(4) 0.4077(3)
H34 H 0.9513 0.2799 0.4632
C30 C 0.9343(5) 0.3634(4) 0.1764(3)
H35 H 0.8456 0.3819 0.1830
H36 H 0.9667 0.3132 0.1363
Cu2_2 Cu 1.0000 0.0000 0.5000
Cu2_3 Cu 0.0000 2.0000 -0.5000
Cu2_4 Cu 1.0000 2.0000 -0.5000
Br1A Br 0.54241(4) 0.95143(4) -0.17790(3)
Br2A Br -0.12452(4) 0.11391(4) 0.65176(3)
N1A N 0.1561(3) 1.1350(3) -0.0454(3)
N2A N 0.1128(3) 1.1006(3) 0.0501(3)
N3A N 0.3195(3) 1.0602(3) 0.0036(2)
N4A N 0.5513(3) 1.1658(3) -0.0729(2)
N5A N 0.5658(4) 1.3611(3) -0.1065(3)
N6A N 0.6311(3) 1.3221(3) -0.1819(2)
N7A N 0.6505(3) 1.8887(3) -0.4297(2)
N8A N 0.6860(3) 1.8917(3) -0.5208(2)
N9A N 0.8337(3) 1.9537(3) -0.4892(2)
N9A_2 N -0.1663(3) -0.0463(3) 0.5108(2)
N10A N 0.0211(3) 1.8419(3) -0.3969(2)
N10_2 N -0.0211(3) 0.1581(3) 0.3969(2)
N10A_2 N 0.0211(3) -0.1581(3) 0.6031(2)
N11A N 0.0469(4) 1.7030(3) -0.2701(2)
N12A N 0.0607(4) 1.6460(3) -0.3331(3)
C1A C 0.2152(4) 1.0564(4) 0.0755(3)
H1A H 0.2155 1.0249 0.1381
C2A C 0.2783(4) 1.1096(4) -0.0712(3)
H2A H 0.3279 1.1245 -0.1331
C3A C 0.0722(5) 1.1898(4) -0.1062(4)
H3A H 0.1204 1.2030 -0.1714
H4A H 0.0105 1.1350 -0.0911
C4A C 0.0063(4) 1.3071(4) -0.0941(3)
C5A C 0.0673(4) 1.4127(4) -0.1386(3)
C6A C 0.0014(4) 1.5210(4) -0.1296(3)
C7A C -0.1233(4) 1.5237(4) -0.0770(3)
C8A C -0.1808(4) 1.4183(5) -0.0336(3)
H5A H -0.2642 1.4202 0.0015
C9A C -0.1185(4) 1.3109(4) -0.0408(4)
C10A C -0.1915(5) 1.1998(5) 0.0124(5)
H6A H -0.2680 1.2191 0.0553
H7A H -0.2099 1.1732 -0.0317
H8A H -0.1422 1.1374 0.0469
C11A C 0.2032(5) 1.4095(5) -0.1951(4)
H9A H 0.2232 1.3436 -0.2193
H10A H 0.2180 1.4828 -0.2465
H11A H 0.2548 1.4003 -0.1554
C12A C -0.1999(6) 1.6375(5) -0.0646(4)
H12A H -0.2809 1.6187 -0.0218
H13A H -0.1586 1.6755 -0.0397
H14A H -0.2088 1.6904 -0.1244
C13A C 0.5199(4) 1.2636(4) -0.0429(3)
H15A H 0.4703 1.2610 0.0174
C14A C 0.6212(4) 1.2077(3) -0.1606(3)
H16A H 0.6578 1.1629 -0.2012
C15A C 0.6960(4) 1.4062(4) -0.2718(3)
H17A H 0.7586 1.4406 -0.2619
H18A H 0.7384 1.3630 -0.3162
C16A C 0.6076(4) 1.5051(3) -0.3131(3)
C17A C 0.6052(4) 1.6215(3) -0.3121(3)
C18A C 0.5290(3) 1.7133(3) -0.3581(3)
C19A C 0.4519(4) 1.6874(4) -0.3997(3)
C20A C 0.4519(4) 1.5709(4) -0.3954(3)
H19A H 0.3980 1.5538 -0.4214
C21A C 0.5283(4) 1.4788(4) -0.3543(3)
C22A C 0.5258(6) 1.3534(4) -0.3537(4)
H20A H 0.4766 1.3552 -0.3931
H21A H 0.6094 1.3212 -0.3771
H22A H 0.4899 1.3041 -0.2906
C23A C 0.6835(5) 1.6465(4) -0.2614(4)
H23A H 0.7679 1.6542 -0.3008
H24A H 0.6503 1.7194 -0.2471
H25A H 0.6820 1.5819 -0.2040
C24A C 0.3682(5) 1.7833(4) -0.4498(4)
H26A H 0.4171 1.8459 -0.4969
H27A H 0.3293 1.7495 -0.4791
H28A H 0.3051 1.8154 -0.4051
C25A C 0.5318(4) 1.8411(3) -0.3645(3)
H29A H 0.5224 1.8448 -0.3025
H30A H 0.4626 1.8898 -0.3864
C26A C 0.7388(4) 1.9277(3) -0.4127(3)
H31A H 0.7344 1.9355 -0.3556
C27A C 0.7976(4) 1.9302(4) -0.5536(3)
H32A H 0.8470 1.9404 -0.6152
C28A C 0.0229(4) 1.8192(4) -0.3099(3)
H33A H 0.0094 1.8767 -0.2804
C29A C 0.0445(5) 1.7325(4) -0.4077(3)
H34A H 0.0487 1.7201 -0.4632
C30A C 0.0657(5) 1.6366(4) -0.1764(3)
H35A H 0.1544 1.6181 -0.1830
H36A H 0.0333 1.6868 -0.1363
C31 C 0.9454(10) 0.7268(10) 0.3178(7)
H37 H 0.9551 0.7138 0.2596
H38 H 1.0109 0.7724 0.3100
H39 H 0.8660 0.7699 0.3356
C32 C 0.9520(12) 0.6100(10) 0.3922(8)
H40 H 0.9995 0.6132 0.4318
H41 H 0.9912 0.5473 0.3645
O1 O 0.8186(11) 0.5875(11) 0.4484(8)
H42 H 0.7718 0.6287 0.4171
O2 O 0.3256(6) 0.1035(6) 0.7147(4)
O3 O 0.8589(11) 0.0597(12) 0.2169(6)
loop_
_geom_bond_atom_site_label_1
_geom_bond_atom_site_label_2
_geom_bond_site_symmetry_1
_geom_bond_site_symmetry_2
Cu1 Br1 1_555 1_555
Cu2 Br2 1_555 1_555
N1 N2 1_555 1_555
N2 C1 1_555 1_555
N3 Cu1 1_555 1_555
N4 Cu1 1_555 1_555
N5 N6 1_555 1_555
N6 C14 1_555 1_555
N7 N8 1_555 1_555
N8 C27 1_555 1_555
N9 Cu2 1_555 1_555
N10 C28 1_555 1_555
N11 N12 1_555 1_555
N12 C29 1_555 1_555
C1 N3 1_555 1_555
H1 C1 1_555 1_555
C2 N1 1_555 1_555
H2 C2 1_555 1_555
C3 N1 1_555 1_555
H3 C3 1_555 1_555
H4 C3 1_555 1_555
C4 C3 1_555 1_555
C5 C4 1_555 1_555
C6 C5 1_555 1_555
C7 C6 1_555 1_555
C8 C7 1_555 1_555
H5 C8 1_555 1_555
C9 C4 1_555 1_555
C10 C9 1_555 1_555
H6 C10 1_555 1_555
H7 C10 1_555 1_555
H8 C10 1_555 1_555
C11 C5 1_555 1_555
H9 C11 1_555 1_555
H10 C11 1_555 1_555
H11 C11 1_555 1_555
C12 C7 1_555 1_555
H12 C12 1_555 1_555
H13 C12 1_555 1_555
H14 C12 1_555 1_555
C13 N4 1_555 1_555
H15 C13 1_555 1_555
C14 N4 1_555 1_555
H16 C14 1_555 1_555
C15 N6 1_555 1_555
H17 C15 1_555 1_555
H18 C15 1_555 1_555
C16 C15 1_555 1_555
C17 C16 1_555 1_555
C18 C17 1_555 1_555
C19 C18 1_555 1_555
C20 C19 1_555 1_555
H19 C20 1_555 1_555
C21 C16 1_555 1_555
C22 C21 1_555 1_555
H20 C22 1_555 1_555
H21 C22 1_555 1_555
H22 C22 1_555 1_555
C23 C17 1_555 1_555
H23 C23 1_555 1_555
H24 C23 1_555 1_555
H25 C23 1_555 1_555
C24 C19 1_555 1_555
H26 C24 1_555 1_555
H27 C24 1_555 1_555
H28 C24 1_555 1_555
C25 N7 1_555 1_555
H29 C25 1_555 1_555
H30 C25 1_555 1_555
C26 N7 1_555 1_555
H31 C26 1_555 1_555
C27 N9 1_555 1_555
H32 C27 1_555 1_555
C28 N11 1_555 1_555
H33 C28 1_555 1_555
C29 N10 1_555 1_555
H34 C29 1_555 1_555
C30 N11 1_555 1_555
H35 C30 1_555 1_555
H36 C30 1_555 1_555
C31 H37 1_555 1_555
H38 C31 1_555 1_555
H39 C31 1_555 1_555
C32 C31 1_555 1_555
H40 C32 1_555 1_555
H41 C32 1_555 1_555
O1 C32 1_555 1_555
H42 O1 1_555 1_555
Cu2_2 N10 1_555 1_555
Cu2_3 N10A 1_555 1_555
Cu2_4 N9A 1_555 1_555
Br1A Cu1 1_555 1_555
Br2A Cu2 1_555 1_555
N1A N2A 1_555 1_555
N2A C1A 1_555 1_555
N3A Cu1 1_555 1_555
N4A Cu1 1_555 1_555
N5A N6A 1_555 1_555
N6A C14A 1_555 1_555
N7A N8A 1_555 1_555
N8A C27A 1_555 1_555
N9A C26A 1_555 1_555
N9A_2 Cu2 1_555 1_555
N10A C28A 1_555 1_555
N10_2 Cu2 1_555 1_555
N10A_2 Cu2 1_555 1_555
N11A N12A 1_555 1_555
N12A C29A 1_555 1_555
C1A N3A 1_555 1_555
H1A C1A 1_555 1_555
C2A N1A 1_555 1_555
H2A C2A 1_555 1_555
C3A N1A 1_555 1_555
H3A C3A 1_555 1_555
H4A C3A 1_555 1_555
C4A C3A 1_555 1_555
C5A C4A 1_555 1_555
C6A C5A 1_555 1_555
C7A C6A 1_555 1_555
C8A C7A 1_555 1_555
H5A C8A 1_555 1_555
C9A C4A 1_555 1_555
C10A C9A 1_555 1_555
H6A C10A 1_555 1_555
H7A C10A 1_555 1_555
H8A C10A 1_555 1_555
C11A C5A 1_555 1_555
H9A C11A 1_555 1_555
H10A C11A 1_555 1_555
H11A C11A 1_555 1_555
C12A C7A 1_555 1_555
H12A C12A 1_555 1_555
H13A C12A 1_555 1_555
H14A C12A 1_555 1_555
C13A N4A 1_555 1_555
H15A C13A 1_555 1_555
C14A N4A 1_555 1_555
H16A C14A 1_555 1_555
C15A N6A 1_555 1_555
H17A C15A 1_555 1_555
H18A C15A 1_555 1_555
C16A C15A 1_555 1_555
C17A C16A 1_555 1_555
C18A C17A 1_555 1_555
C19A C18A 1_555 1_555
C20A C19A 1_555 1_555
H19A C20A 1_555 1_555
C21A C16A 1_555 1_555
C22A C21A 1_555 1_555
H20A C22A 1_555 1_555
H21A C22A 1_555 1_555
H22A C22A 1_555 1_555
C23A C17A 1_555 1_555
H23A C23A 1_555 1_555
H24A C23A 1_555 1_555
H25A C23A 1_555 1_555
C24A C19A 1_555 1_555
H26A C24A 1_555 1_555
H27A C24A 1_555 1_555
H28A C24A 1_555 1_555
C25A N7A 1_555 1_555
H29A C25A 1_555 1_555
H30A C25A 1_555 1_555
C26A N7A 1_555 1_555
H31A C26A 1_555 1_555
C27A N9A 1_555 1_555
H32A C27A 1_555 1_555
C28A N11A 1_555 1_555
H33A C28A 1_555 1_555
C29A N10A 1_555 1_555
H34A C29A 1_555 1_555
C30A N11A 1_555 1_555
H35A C30A 1_555 1_555
H36A C30A 1_555 1_555
N3 C2 1_555 1_555
N5 C13 1_555 1_555
N9 C26 1_555 1_555
C6 C30 1_555 1_555
C8 C9 1_555 1_555
C18 C25 1_555 1_555
C20 C21 1_555 1_555
N3A C2A 1_555 1_555
N5A C13A 1_555 1_555
C6A C30A 1_555 1_555
C8A C9A 1_555 1_555
C18A C25A 1_555 1_555
C20A C21A 1_555 1_555

#END
