
#######################################################################
#
#                 Cambridge Crystallographic Data Centre
#                                CCDC 
#
#######################################################################
#
# If this CIF has been generated from an entry in the Cambridge 
# Structural Database, then it will include bibliographic, chemical, 
# crystal, experimental, refinement or atomic coordinate data resulting 
# from the CCDC's data processing and validation procedures.
#
#######################################################################

data_YIZMID
_symmetry_cell_setting           orthorhombic
_symmetry_space_group_name_H-M   'P b c n'
_symmetry_Int_Tables_number      60
_space_group_name_Hall           '-P 2n 2ab'
loop_
_symmetry_equiv_pos_site_id
_symmetry_equiv_pos_as_xyz
1 x,y,z
2 1/2-x,1/2-y,1/2+z
3 1/2+x,1/2-y,-z
4 -x,y,1/2-z
5 -x,-y,-z
6 1/2+x,1/2+y,1/2-z
7 1/2-x,1/2+y,z
8 x,-y,1/2+z
_cell_length_a                   17.270(1)
_cell_length_b                   11.264(2)
_cell_length_c                   28.562(2)
_cell_angle_alpha                90
_cell_angle_beta                 90
_cell_angle_gamma                90
_cell_volume                     5556.15
loop_
_atom_site_label
_atom_site_type_symbol
_atom_site_fract_x
_atom_site_fract_y
_atom_site_fract_z
Ag1 Ag 0.3474(1) -0.0521(2) -0.19849(7)
Pd1 Pd 0.5000 -0.1033(2) -0.2500
Pd2 Pd 0.25845(9) -0.3096(2) -0.19669(5)
S1 S 0.5022(3) 0.0216(5) -0.1852(2)
S2 S 0.5084(4) -0.2285(5) -0.1863(2)
S3 S 0.3092(3) -0.1949(6) -0.1358(2)
S4 S 0.3635(3) -0.4012(5) -0.2319(2)
S5 S 0.2055(3) -0.4177(5) -0.2579(2)
S6 S 0.1507(3) -0.2281(6) -0.1615(2)
N1 N 0.5281(8) -0.103(2) -0.1060(5)
N2 N 0.1915(10) -0.101(2) -0.0860(7)
N3 N 0.3173(10) -0.529(1) -0.3079(6)
C1 C 0.5154(10) -0.103(2) -0.1515(7)
C2 C 0.533(1) 0.011(2) -0.0791(7)
C3 C 0.456(1) 0.044(2) -0.0593(7)
C4 C 0.532(1) -0.218(2) -0.0793(8)
C5 C 0.611(2) -0.254(3) -0.071(1)
C6 C 0.212(1) -0.162(2) -0.1231(8)
C7 C 0.252(2) -0.071(3) -0.039(1)
C8 C 0.256(2) 0.041(4) -0.056(1)
C9 C 0.103(1) -0.093(2) -0.0730(8)
C10 C 0.073(1) 0.008(2) -0.0978(9)
C11 C 0.3005(10) -0.463(2) -0.2707(6)
C12 C 0.255(1) -0.577(2) -0.3388(7)
C13 C 0.238(1) -0.489(2) -0.3754(8)
C14 C 0.405(1) -0.552(2) -0.3192(8)
C15 C 0.426(1) -0.668(2) -0.2995(9)
S1C S 0.4978(3) 0.0216(5) -0.3148(2)
S2C S 0.4916(4) -0.2285(5) -0.3137(2)
Ag1C Ag 0.6526(1) -0.0521(2) -0.30151(7)
S5F S 0.2945(3) 0.0823(5) -0.2579(2)
C1C C 0.4846(10) -0.103(2) -0.3485(7)
S3C S 0.6908(3) -0.1949(6) -0.3642(2)
S5E S 0.7055(3) 0.0823(5) -0.2421(2)
N1C N 0.4719(8) -0.103(2) -0.3940(5)
C2C C 0.467(1) 0.011(2) -0.4209(7)
C4C C 0.468(1) -0.218(2) -0.4207(8)
C3C C 0.544(1) 0.044(2) -0.4407(7)
C5C C 0.389(2) -0.254(3) -0.429(1)
Ag1F Ag 0.1526(1) -0.5521(2) -0.19849(7)
Pd2E Pd 0.75845(9) 0.1904(2) -0.30331(5)
C11E C 0.8005(10) 0.037(2) -0.2293(6)
S4E S 0.8635(3) 0.0988(5) -0.2681(2)
N3E N 0.8173(10) -0.029(1) -0.1921(6)
C12E C 0.755(1) -0.077(2) -0.1612(7)
C14E C 0.905(1) -0.052(2) -0.1808(8)
C13E C 0.738(1) 0.011(2) -0.1246(8)
C15E C 0.926(1) -0.168(2) -0.2005(9)
S3E S 0.8092(3) 0.3051(6) -0.3642(2)
S6E S 0.6507(3) 0.2719(6) -0.3385(2)
C6E C 0.712(1) 0.338(2) -0.3769(8)
Ag1E Ag 0.8474(1) 0.4479(2) -0.30151(7)
N2E N 0.6915(10) 0.399(2) -0.4140(7)
C7E C 0.752(2) 0.429(3) -0.461(1)
C9E C 0.603(1) 0.407(2) -0.4270(8)
C8E C 0.756(2) 0.541(4) -0.444(1)
C10E C 0.573(1) 0.508(2) -0.4022(9)
Cl1 Cl -0.1213(5) -0.1883(9) -0.0427(3)
O1 O -0.085(2) -0.213(2) -0.0843(8)
O2 O -0.194(2) -0.210(3) -0.044(1)
O3 O -0.114(2) -0.067(2) -0.0390(9)
O4 O -0.092(1) -0.248(3) -0.0070(8)
loop_
_geom_bond_atom_site_label_1
_geom_bond_atom_site_label_2
_geom_bond_site_symmetry_1
_geom_bond_site_symmetry_2
Ag1 Pd1 1_555 1_555
Pd1 S1 1_555 1_555
Pd2 S3 1_555 1_555
Cl1 O1 1_555 1_555
S1 Ag1 1_555 1_555
S2 Pd1 1_555 1_555
S3 Ag1 1_555 1_555
S4 Pd2 1_555 1_555
S5 Pd2 1_555 1_555
S6 Pd2 1_555 1_555
O2 Cl1 1_555 1_555
O3 Cl1 1_555 1_555
O4 Cl1 1_555 1_555
N1 C1 1_555 1_555
N2 C6 1_555 1_555
N3 C11 1_555 1_555
C1 S1 1_555 1_555
C2 N1 1_555 1_555
C3 C2 1_555 1_555
C4 N1 1_555 1_555
C5 C4 1_555 1_555
C6 S3 1_555 1_555
C7 N2 1_555 1_555
C8 C7 1_555 1_555
C9 N2 1_555 1_555
C10 C9 1_555 1_555
C11 S4 1_555 1_555
C12 N3 1_555 1_555
C13 C12 1_555 1_555
C14 N3 1_555 1_555
C15 C14 1_555 1_555
S1C Pd1 1_555 1_555
S2C Pd1 1_555 1_555
Ag1C Pd1 1_555 1_555
S5F Ag1 1_555 1_555
C1C S1C 1_555 1_555
S3C Ag1C 1_555 1_555
S5E Ag1C 1_555 1_555
N1C C1C 1_555 1_555
C2C N1C 1_555 1_555
C4C N1C 1_555 1_555
C3C C2C 1_555 1_555
C5C C4C 1_555 1_555
Ag1F S5 1_555 1_555
Pd2E S5E 1_555 1_555
C11E S5E 1_555 1_555
S4E Pd2E 1_555 1_555
N3E C11E 1_555 1_555
C12E N3E 1_555 1_555
C14E N3E 1_555 1_555
C13E C12E 1_555 1_555
C15E C14E 1_555 1_555
S3E Pd2E 1_555 1_555
S6E Pd2E 1_555 1_555
C6E S3E 1_555 1_555
Ag1E S3E 1_555 1_555
N2E C6E 1_555 1_555
C7E N2E 1_555 1_555
C9E N2E 1_555 1_555
C8E C7E 1_555 1_555
C10E C9E 1_555 1_555
S2 C1 1_555 1_555
S5 C11 1_555 1_555
S6 C6 1_555 1_555
S1C Ag1C 1_555 1_555
S2C C1C 1_555 1_555
C11E S4E 1_555 1_555
S6E C6E 1_555 1_555

#END
