
#######################################################################
#
#                 Cambridge Crystallographic Data Centre
#                                CCDC 
#
#######################################################################
#
# If this CIF has been generated from an entry in the Cambridge 
# Structural Database, then it will include bibliographic, chemical, 
# crystal, experimental, refinement or atomic coordinate data resulting 
# from the CCDC's data processing and validation procedures.
#
#######################################################################

data_YIZNUR
_symmetry_cell_setting           monoclinic
_symmetry_space_group_name_H-M   'C 2/c'
_symmetry_Int_Tables_number      15
_space_group_name_Hall           '-C 2yn'
loop_
_symmetry_equiv_pos_site_id
_symmetry_equiv_pos_as_xyz
1 x,y,z
2 1/2+x,1/2+y,z
3 -x,y,1/2-z
4 1/2-x,1/2+y,1/2-z
5 -x,-y,-z
6 1/2-x,1/2-y,-z
7 x,-y,1/2+z
8 1/2+x,1/2-y,1/2+z
_cell_length_a                   21.965(2)
_cell_length_b                   8.0160(10)
_cell_length_c                   23.359(3)
_cell_angle_alpha                90
_cell_angle_beta                 90.970(10)
_cell_angle_gamma                90
_cell_volume                     4112.26
loop_
_atom_site_label
_atom_site_type_symbol
_atom_site_fract_x
_atom_site_fract_y
_atom_site_fract_z
Cu1 Cu -0.04324(3) -0.38502(7) -0.00543(3)
O1 O 0.01238(17) -0.2612(4) 0.04525(14)
O2 O 0.07668(17) 0.5006(4) 0.43778(14)
O3 O 0.08516(17) -0.4558(5) 0.05612(15)
N1 N -0.1155(2) -0.2035(5) -0.00595(18)
O4 O 0.00310(18) 0.3097(5) 0.42788(15)
C1 C 0.0935(3) -0.2061(7) 0.1093(2)
C2 C -0.1098(3) -0.0645(8) 0.0246(3)
H1 H -0.0747 -0.0502 0.0469
C3 C 0.0616(3) -0.3148(7) 0.0665(2)
C4 C 0.0654(3) 0.1597(7) 0.3381(2)
H2 H 0.0323 0.103 0.3531
C5 C 0.0517(3) 0.3770(7) 0.4130(2)
C6 C 0.0832(3) 0.3113(7) 0.3620(2)
C7 C -0.2115(3) -0.1002(6) -0.0392(2)
H3 H -0.246 -0.1184 -0.0619
C8 C -0.1659(3) -0.2176(7) -0.0366(2)
H4 H -0.1711 -0.3142 -0.0582
C9 C 0.0753(3) -0.0408(7) 0.1145(2)
H5 H 0.0442 0.00000 0.091
C10 C 0.1325(3) 0.3898(8) 0.3385(3)
H6 H 0.1458 0.49 0.3544
C11 C -0.2057(2) 0.0446(7) -0.0077(2)
C12 C -0.2522(3) 0.1733(6) -0.0102(2)
H7 H -0.289 0.1448 -0.0279
C13 C 0.1029(3) 0.0636(8) 0.1542(3)
H8 H 0.0905 0.174 0.1578
C14 C -0.1533(3) 0.0600(7) 0.0251(3)
H9 H -0.1472 0.1544 0.0476
C15 C 0.0962(3) 0.0921(8) 0.2923(3)
H10 H 0.0834 -0.0084 0.2763
C16 C 0.1490(3) 0.0004(10) 0.1881(3)
O5 O 0.1795(2) 0.1064(6) 0.2274(2)
C17 C 0.1410(3) -0.2653(8) 0.1427(3)
H11 H 0.1547 -0.3742 0.138
C18 C 0.1626(3) 0.3268(9) 0.2927(3)
H12 H 0.1944 0.3854 0.2762
C19 C 0.1445(3) 0.1721(9) 0.2714(3)
C20 C 0.1685(3) -0.1623(10) 0.1832(3)
H13 H 0.1996 -0.2026 0.2068
Cu1B Cu 0.04324(3) -1.38502(7) 0.50543(3)
Cu1D Cu 0.04324(3) -0.61498(7) 0.00543(3)
Cu1B_2 Cu 0.04324(3) 0.61498(7) 0.50543(3)
Cu1F Cu -0.04324(3) 0.38502(7) 0.49457(3)
Cu1E Cu -0.45676(3) 0.88502(7) 0.00543(3)
Cu1F_2 Cu -0.04324(3) -1.61498(7) 0.49457(3)
O1B O -0.01238(17) -1.2612(4) 0.45475(14)
O1D O -0.01238(17) -0.7388(4) -0.04525(14)
O2B O -0.07668(17) -0.4994(4) 0.06222(14)
O2F O 0.07668(17) -0.5006(4) -0.06222(14)
O3B O -0.08516(17) -1.4558(5) 0.44388(15)
O3D O -0.08516(17) -0.5442(5) -0.05612(15)
N1E N -0.3845(2) 0.7035(5) 0.00595(18)
N1D N 0.1155(2) -0.7965(5) 0.00595(18)
O4B O -0.00310(18) -0.6903(5) 0.07212(15)
O4F O 0.00310(18) -0.3097(5) -0.07212(15)
C1B C -0.0935(3) -1.2061(7) 0.3907(2)
C2E C -0.3902(3) 0.5645(8) -0.0246(3)
H1E H -0.4253 0.5502 -0.0469
C3B C -0.0616(3) -1.3148(7) 0.4335(2)
C4B C -0.0654(3) -0.8403(7) 0.1619(2)
H2B H -0.0323 -0.897 0.1469
C5B C -0.0517(3) -0.6230(7) 0.0870(2)
C6B C -0.0832(3) -0.6887(7) 0.1380(2)
C7E C -0.2885(3) 0.6002(6) 0.0392(2)
H3E H -0.254 0.6184 0.0619
C8E C -0.3341(3) 0.7176(7) 0.0366(2)
H4E H -0.3289 0.8142 0.0582
C9B C -0.0753(3) -1.0408(7) 0.3855(2)
H5B H -0.0442 -1.00000 0.409
C10B C -0.1325(3) -0.6102(8) 0.1615(3)
H6B H -0.1458 -0.51 0.1456
C11E C -0.2943(2) 0.4554(7) 0.0077(2)
C12E C -0.2478(3) 0.3267(6) 0.0102(2)
H7E H -0.211 0.3552 0.0279
C13B C -0.1029(3) -0.9364(8) 0.3458(3)
H8B H -0.0905 -0.826 0.3422
C14E C -0.3467(3) 0.4400(7) -0.0251(3)
H9E H -0.3528 0.3456 -0.0476
C15B C -0.0962(3) -0.9079(8) 0.2077(3)
H10B H -0.0834 -1.0084 0.2237
C16B C -0.1490(3) -0.9996(10) 0.3119(3)
O5B O -0.1795(2) -0.8936(6) 0.2726(2)
C17B C -0.1410(3) -1.2653(8) 0.3573(3)
H11B H -0.1547 -1.3742 0.362
C18B C -0.1626(3) -0.6732(9) 0.2073(3)
H12B H -0.1944 -0.6146 0.2238
C19B C -0.1445(3) -0.8279(9) 0.2286(3)
C20B C -0.1685(3) -1.1623(10) 0.3168(3)
H13B H -0.1996 -1.2026 0.2932
loop_
_geom_bond_atom_site_label_1
_geom_bond_atom_site_label_2
_geom_bond_site_symmetry_1
_geom_bond_site_symmetry_2
Cu1 O1 1_555 1_555
O1 C3 1_555 1_555
O2 C5 1_555 1_555
O3 C3 1_555 1_555
N1 Cu1 1_555 1_555
O4 C5 1_555 1_555
C1 C3 1_555 1_555
C2 N1 1_555 1_555
H1 C2 1_555 1_555
C4 H2 1_555 1_555
C5 C6 1_555 1_555
C6 C4 1_555 1_555
C7 H3 1_555 1_555
C8 N1 1_555 1_555
H4 C8 1_555 1_555
C9 C1 1_555 1_555
H5 C9 1_555 1_555
C10 C6 1_555 1_555
H6 C10 1_555 1_555
C11 C7 1_555 1_555
C12 C11 1_555 1_555
H7 C12 1_555 1_555
C13 C9 1_555 1_555
H8 C13 1_555 1_555
C14 C2 1_555 1_555
H9 C14 1_555 1_555
C15 C4 1_555 1_555
H10 C15 1_555 1_555
C16 C13 1_555 1_555
O5 C16 1_555 1_555
C17 C1 1_555 1_555
H11 C17 1_555 1_555
C18 C10 1_555 1_555
H12 C18 1_555 1_555
C19 C15 1_555 1_555
C20 C16 1_555 1_555
H13 C20 1_555 1_555
Cu1B Cu1F_2 1_555 1_555
Cu1D Cu1 1_555 1_555
Cu1B_2 O2 1_555 1_555
Cu1F O4 1_555 1_555
Cu1E N1E 1_555 1_555
Cu1F_2 O3B 1_555 1_555
O1B Cu1B 1_555 1_555
O1D Cu1D 1_555 1_555
O2B Cu1 1_555 1_555
O2F Cu1D 1_555 1_555
O3B C3B 1_555 1_555
O3D Cu1 1_555 1_555
N1E C2E 1_555 1_555
N1D Cu1D 1_555 1_555
O4B Cu1D 1_555 1_555
O4F Cu1 1_555 1_555
C1B C3B 1_555 1_555
C2E H1E 1_555 1_555
C3B O1B 1_555 1_555
C4B H2B 1_555 1_555
C5B O2B 1_555 1_555
C6B C4B 1_555 1_555
C7E H3E 1_555 1_555
C8E N1E 1_555 1_555
H4E C8E 1_555 1_555
C9B C1B 1_555 1_555
H5B C9B 1_555 1_555
C10B C6B 1_555 1_555
H6B C10B 1_555 1_555
C11E C7E 1_555 1_555
C12E C12 1_555 1_555
H7E C12E 1_555 1_555
C13B C9B 1_555 1_555
H8B C13B 1_555 1_555
C14E C2E 1_555 1_555
H9E C14E 1_555 1_555
C15B C4B 1_555 1_555
H10B C15B 1_555 1_555
C16B C13B 1_555 1_555
O5B C16B 1_555 1_555
C17B C1B 1_555 1_555
H11B C17B 1_555 1_555
C18B C10B 1_555 1_555
H12B C18B 1_555 1_555
C19B C15B 1_555 1_555
C20B C16B 1_555 1_555
H13B C20B 1_555 1_555
O3 Cu1D 1_555 1_555
C7 C8 1_555 1_555
C11 C14 1_555 1_555
O5 C19 1_555 1_555
C17 C20 1_555 1_555
C18 C19 1_555 1_555
Cu1B_2 Cu1F 1_555 1_555
O4B C5B 1_555 1_555
C5B C6B 1_555 1_555
C7E C8E 1_555 1_555
C11E C12E 1_555 1_555
C11E C14E 1_555 1_555
O5B C19B 1_555 1_555
C17B C20B 1_555 1_555
C18B C19B 1_555 1_555

#END
