
#######################################################################
#
#                 Cambridge Crystallographic Data Centre
#                                CCDC 
#
#######################################################################
#
# If this CIF has been generated from an entry in the Cambridge 
# Structural Database, then it will include bibliographic, chemical, 
# crystal, experimental, refinement or atomic coordinate data resulting 
# from the CCDC's data processing and validation procedures.
#
#######################################################################

data_YIZTOS
_symmetry_cell_setting           monoclinic
_symmetry_space_group_name_H-M   'P 2'
_symmetry_Int_Tables_number      3
_space_group_name_Hall           'P 2y'
loop_
_symmetry_equiv_pos_site_id
_symmetry_equiv_pos_as_xyz
1 x,y,z
2 -x,y,-z
_cell_length_a                   9.2155(11)
_cell_length_b                   8.1742(10)
_cell_length_c                   9.2726(11)
_cell_angle_alpha                90
_cell_angle_beta                 105.913(5)
_cell_angle_gamma                90
_cell_volume                     671.732
loop_
_atom_site_label
_atom_site_type_symbol
_atom_site_fract_x
_atom_site_fract_y
_atom_site_fract_z
O13 O 0.000 0.1060(8) 0.500
H10 H -0.0008 0.1823 0.5887
H10A H 0.0008 0.1823 0.4113
O14 O 0.000 0.9405(11) 0.000
H11 H 0.0777 0.857 0.0594
H11A H -0.0777 0.857 -0.0594
O15 O 0.3203(13) 0.006(2) 0.9056(10)
O16 O -0.002(9) 1.221(5) 0.033(7)
O16A O 0.002(9) 1.221(5) -0.033(7)
Gd1 Gd 0.500 0.000 0.500
Ge1 Ge 0.18873(4) 0.50934(9) 0.73139(4)
O1 O 0.2827(4) 0.3259(5) 0.6653(3)
O2 O 0.3401(4) 0.2335(5) 0.4615(4)
O3 O -0.0687(4) 0.6780(5) 0.2114(4)
O4 O 0.1587(4) 0.7289(5) 0.1890(4)
O5 O 0.1835(4) 0.6045(4) 0.5501(3)
O6 O -0.0111(3) 0.3922(4) 0.3244(3)
O7 O 0.2331(4) 0.4006(5) 0.9234(4)
O8 O 0.3938(4) 0.4043(5) 1.1506(4)
O9 O 0.3571(3) 0.6352(4) 0.8194(3)
O10 O 0.2584(4) -0.0849(5) 0.5189(4)
H1 H 0.1818 -0.0111 0.5021
H2 H 0.2259 -0.1758 0.5386
O11 O 0.4371(5) 0.0872(5) 0.2431(4)
H3 H 0.4298 0.1835 0.2154
H4 H 0.4136 0.0409 0.1678
O12 O 0.5395(4) -0.2352(5) 0.6646(3)
H5 H 0.4968 -0.3027 0.7183
H6 H 0.6287 -0.2556 0.6794
C1 C 0.2902(5) 0.3398(6) 0.5295(5)
C2 C 0.2368(4) 0.4996(9) 0.4527(4)
H7 H 0.3237 0.5531 0.431
C3 C 0.1164(5) 0.4745(8) 0.3039(4)
H8 H 0.1597 0.4088 0.2375
C4 C 0.0679(5) 0.6375(7) 0.2301(5)
C5 C 0.3462(5) 0.4609(6) 1.0244(5)
C6 C 0.4134(5) 0.6133(6) 0.9755(4)
H9 H 0.3798 0.7069 1.024
O7A O 0.7669(4) 0.4006(5) 1.0766(4)
O8A O 0.6062(4) 0.4043(5) 0.8494(4)
O9A O 0.6429(3) 0.6352(4) 1.1806(3)
C5A C 0.6538(5) 0.4609(6) 0.9756(5)
C6A C 0.5866(5) 0.6133(6) 1.0245(4)
H9A H 0.6202 0.7069 0.976
Ge1A Ge -0.18873(4) 0.50934(9) 0.26861(4)
O1A O -0.2827(4) 0.3259(5) 0.3347(3)
O2A O -0.3401(4) 0.2335(5) 0.5385(4)
O3A O 0.0687(4) 0.6780(5) 0.7886(4)
O4A O -0.1587(4) 0.7289(5) 0.8110(4)
O5A O -0.1835(4) 0.6045(4) 0.4499(3)
O6A O 0.0111(3) 0.3922(4) 0.6756(3)
C1A C -0.2902(5) 0.3398(6) 0.4705(5)
C2A C -0.2368(4) 0.4996(9) 0.5473(4)
H7A H -0.3237 0.5531 0.569
C3A C -0.1164(5) 0.4745(8) 0.6961(4)
H8A H -0.1597 0.4088 0.7625
C4A C -0.0679(5) 0.6375(7) 0.7699(5)
O10A O 0.7416(4) -0.0849(5) 0.4811(4)
H1A H 0.8182 -0.0111 0.4979
H2A H 0.7741 -0.1758 0.4614
O11A O 0.5629(5) 0.0872(5) 0.7569(4)
H3A H 0.5702 0.1835 0.7846
H4A H 0.5864 0.0409 0.8322
O12A O 0.4605(4) -0.2352(5) 0.3354(3)
H5A H 0.5032 -0.3027 0.2817
H6A H 0.3713 -0.2556 0.3206
Gd1_2 Gd -0.500 0.000 0.500
Ge1A_2 Ge 0.81127(4) 0.50934(9) 1.26861(4)
O2A_2 O 0.6599(4) 0.2335(5) 0.5385(4)
O7A_2 O -0.2331(4) 0.4006(5) 0.0766(4)
O9A_2 O -0.3571(3) 0.6352(4) 0.1806(3)
O17? O 0.212(3) 0.043(4) 0.865(3)
loop_
_geom_bond_atom_site_label_1
_geom_bond_atom_site_label_2
_geom_bond_site_symmetry_1
_geom_bond_site_symmetry_2
Gd1 O2 1_555 1_555
Ge1 O1 1_555 1_555
O1 C1 1_555 1_555
O2 C1 1_555 1_555
O3 C4 1_555 1_555
O4 C4 1_555 1_555
O5 Ge1 1_555 1_555
O6 C3 1_555 1_555
O7 Ge1 1_555 1_555
O8 C5 1_555 1_555
O9 Ge1 1_555 1_555
O10 Gd1 1_555 1_555
H1 O10 1_555 1_555
H2 O10 1_555 1_555
O11 Gd1 1_555 1_555
H3 O11 1_555 1_555
H4 O11 1_555 1_555
O12 Gd1 1_555 1_555
H5 O12 1_555 1_555
H6 O12 1_555 1_555
C1 C2 1_555 1_555
C2 O5 1_555 1_555
H7 C2 1_555 1_555
C3 C2 1_555 1_555
H8 C3 1_555 1_555
C4 C3 1_555 1_555
C5 O7 1_555 1_555
C6 O9 1_555 1_555
H9 C6 1_555 1_555
O13 H10 1_555 1_555
O14 H11 1_555 1_555
O16 O16A 1_555 1_555
O7A C5A 1_555 1_555
O8A C5A 1_555 1_555
O9A C6A 1_555 1_555
C5A C6A 1_555 1_555
C6A C6 1_555 1_555
H9A C6A 1_555 1_555
Ge1A O3 1_555 1_555
O1A Ge1A 1_555 1_555
O2A C1A 1_555 1_555
O3A Ge1 1_555 1_555
O4A C4A 1_555 1_555
O5A Ge1A 1_555 1_555
O6A Ge1 1_555 1_555
C1A O1A 1_555 1_555
C2A O5A 1_555 1_555
H7A C2A 1_555 1_555
C3A O6A 1_555 1_555
H8A C3A 1_555 1_555
C4A O3A 1_555 1_555
O10A Gd1 1_555 1_555
H1A O10A 1_555 1_555
H2A O10A 1_555 1_555
O11A Gd1 1_555 1_555
H3A O11A 1_555 1_555
H4A O11A 1_555 1_555
O12A Gd1 1_555 1_555
H5A O12A 1_555 1_555
H6A O12A 1_555 1_555
Gd1_2 O2A 1_555 1_555
Ge1A_2 O7A 1_555 1_555
O2A_2 Gd1 1_555 1_555
O7A_2 Ge1A 1_555 1_555
O9A_2 Ge1A 1_555 1_555
H10A O13 1_555 1_555
H11A O14 1_555 1_555
O6 Ge1A 1_555 1_555
C5 C6 1_555 1_555
O9A Ge1A_2 1_555 1_555
C1A C2A 1_555 1_555
C2A C3A 1_555 1_555
C3A C4A 1_555 1_555

#END
