
#######################################################################
#
#                 Cambridge Crystallographic Data Centre
#                                CCDC 
#
#######################################################################
#
# If this CIF has been generated from an entry in the Cambridge 
# Structural Database, then it will include bibliographic, chemical, 
# crystal, experimental, refinement or atomic coordinate data resulting 
# from the CCDC's data processing and validation procedures.
#
#######################################################################

data_YIZTEI
_symmetry_cell_setting           monoclinic
_symmetry_space_group_name_H-M   'P 21'
_symmetry_Int_Tables_number      4
_space_group_name_Hall           'P 2yb'
loop_
_symmetry_equiv_pos_site_id
_symmetry_equiv_pos_as_xyz
1 x,y,z
2 -x,1/2+y,-z
_cell_length_a                   9.240(2)
_cell_length_b                   16.542(4)
_cell_length_c                   9.915(2)
_cell_angle_alpha                90
_cell_angle_beta                 109.603(4)
_cell_angle_gamma                90
_cell_volume                     1427.65
loop_
_atom_site_label
_atom_site_type_symbol
_atom_site_fract_x
_atom_site_fract_y
_atom_site_fract_z
Ge1 Ge 0.16479(6) 0.25021(3) 0.24325(6)
Ge2 Ge -0.18007(6) 0.25937(3) -0.22728(6)
Cu1 Cu -0.40478(7) 0.00000(5) -0.11584(7)
Cu2 Cu 0.08739(7) 0.50448(6) -0.40113(7)
O1 O 0.2122(4) 0.1940(2) 0.4254(4)
O2 O 0.4017(5) 0.1787(3) 0.6328(5)
O3 O 0.7820(5) 0.2098(3) 0.5846(4)
O4 O 0.6019(5) 0.2007(3) 0.3691(5)
O5 O 0.3315(4) 0.3148(2) 0.3437(4)
O6 O 0.6417(4) 0.3153(2) 0.6820(4)
O7 O 0.2660(4) 0.1643(2) 0.1876(4)
O8 O 0.3522(5) 0.1266(3) 0.0142(5)
O9 O -0.0596(5) 0.3469(2) -0.2561(5)
O10 O 0.1777(5) 0.3776(3) -0.2495(5)
O11 O 0.1624(4) 0.3022(2) 0.0782(4)
O12 O 0.0034(4) 0.2025(2) -0.1648(4)
O13 O 0.0336(4) 0.3304(2) 0.2855(4)
O14 O -0.2080(5) 0.3575(3) 0.2637(5)
O15 O -0.2699(4) 0.1604(2) -0.1842(4)
O16 O -0.3339(4) 0.1030(2) -0.0108(5)
O17 O -0.0151(4) 0.1900(2) 0.1768(4)
O18 O -0.1858(4) 0.2954(2) -0.0538(4)
O19 O -0.6131(4) 0.0458(3) -0.2044(5)
H1 H -0.6002 0.0855 -0.2496
H2 H -0.6321 0.0644 -0.1416
O20 O -0.1891(4) -0.0377(2) -0.0569(5)
H3 H -0.1186 -0.0074 -0.0801
H4 H -0.1648 -0.0902 -0.0788
O21 O -0.4475(5) -0.0404(3) 0.0884(5)
H5 H -0.5385 -0.0401 0.1132
H6 H -0.4008 -0.0785 0.1104
O22 O -0.4782(5) -0.1060(3) -0.1957(5)
H7 H -0.5654 -0.1294 -0.1995
H8 H -0.4476 -0.1491 -0.2292
O23 O -0.1197(5) 0.4604(3) -0.4956(5)
H9 H -0.1393 0.4322 -0.4482
H10 H -0.1418 0.4407 -0.5793
O24 O 0.2947(6) 0.5530(3) -0.3156(6)
H11 H 0.3187 0.5886 -0.339
H12 H 0.3599 0.5342 -0.237
O25 O 0.1504(6) 0.4637(3) -0.5576(6)
H13 H 0.2317 0.4684 -0.5547
H14 H 0.1326 0.418 -0.5826
O26 O 0.0006(6) 0.6173(3) -0.5265(6)
H15 H -0.0676 0.6469 -0.4976
H16 H 0.0748 0.6601 -0.5319
O27 O 0.0196(5) 0.5347(2) -0.2389(5)
H17 H 0.0199 0.5833 -0.2265
H18 H 0.0805 0.5113 -0.1792
O28 O -0.3896(5) 0.0261(3) -0.3812(5)
H19 H -0.3628 0.0724 -0.3592
H20 H -0.473 0.0264 -0.4689
C1 C 0.3398(6) 0.2171(4) 0.5225(6)
C2 C 0.4017(6) 0.2969(3) 0.4913(6)
H21 H 0.3686 0.3386 0.5449
C3 C 0.5774(6) 0.3028(3) 0.5350(6)
H22 H 0.6 0.351 0.4883
C4 C 0.6538(6) 0.2321(4) 0.4888(6)
C5 C 0.2910(6) 0.1765(3) 0.0672(6)
C6 C 0.2383(6) 0.2583(4) -0.0021(6)
H23 H 0.3294 0.289 -0.0011
C7 C 0.1351(6) 0.2475(3) -0.1583(6)
H24 H 0.192 0.2191 -0.2115
C8 C 0.0857(6) 0.3305(3) -0.2248(6)
C9 C -0.1136(6) 0.3132(3) 0.2444(6)
C10 C -0.1510(6) 0.2306(3) 0.1716(6)
H25 H -0.2059 0.198 0.2215
C11 C -0.2542(6) 0.2428(4) 0.0168(6)
H26 H -0.3514 0.2666 0.0167
C12 C -0.2889(6) 0.1615(3) -0.0631(6)
Ge2_2 Ge 0.81993(6) 0.25937(3) 0.77272(6)
O3_2 O -0.2180(5) 0.2098(3) -0.4154(4)
O6_2 O -0.3583(4) 0.3153(2) -0.3180(4)
O29 O -0.3434(6) 0.5080(4) -0.3764(6)
H27 H -0.3223 0.4821 -0.2804
H28 H -0.2647 0.5092 -0.4103
O30 O 0.0191(6) 0.0384(3) -0.1470(6)
H29 H 0.0266 0.1012 -0.1561
H30 H -0.0117 0.0235 -0.2583
O31 O -0.2623(6) 0.4542(3) -0.0808(6)
H31 H -0.2044 0.4004 -0.0586
H32 H -0.2121 0.4958 -0.0209
loop_
_geom_bond_atom_site_label_1
_geom_bond_atom_site_label_2
_geom_bond_site_symmetry_1
_geom_bond_site_symmetry_2
Ge1 O1 1_555 1_555
Ge2 O9 1_555 1_555
Cu1 O16 1_555 1_555
Cu2 O10 1_555 1_555
O1 C1 1_555 1_555
O2 C1 1_555 1_555
O3 C4 1_555 1_555
O4 C4 1_555 1_555
O5 Ge1 1_555 1_555
O6 C3 1_555 1_555
O7 Ge1 1_555 1_555
O8 C5 1_555 1_555
O9 C8 1_555 1_555
O10 C8 1_555 1_555
O11 Ge1 1_555 1_555
O12 Ge2 1_555 1_555
O13 Ge1 1_555 1_555
O14 C9 1_555 1_555
O15 Ge2 1_555 1_555
O16 C12 1_555 1_555
O17 Ge1 1_555 1_555
O18 Ge2 1_555 1_555
O19 Cu1 1_555 1_555
H1 O19 1_555 1_555
H2 O19 1_555 1_555
O20 Cu1 1_555 1_555
H3 O20 1_555 1_555
H4 O20 1_555 1_555
O21 Cu1 1_555 1_555
H5 O21 1_555 1_555
H6 O21 1_555 1_555
O22 Cu1 1_555 1_555
H7 O22 1_555 1_555
H8 O22 1_555 1_555
O23 Cu2 1_555 1_555
H9 O23 1_555 1_555
H10 O23 1_555 1_555
O24 Cu2 1_555 1_555
H11 O24 1_555 1_555
H12 O24 1_555 1_555
O25 Cu2 1_555 1_555
H13 O25 1_555 1_555
H14 O25 1_555 1_555
O26 Cu2 1_555 1_555
H15 O26 1_555 1_555
H16 O26 1_555 1_555
O27 Cu2 1_555 1_555
H17 O27 1_555 1_555
H18 O27 1_555 1_555
O28 Cu1 1_555 1_555
H19 O28 1_555 1_555
H20 O28 1_555 1_555
C1 C2 1_555 1_555
C2 O5 1_555 1_555
H21 C2 1_555 1_555
C3 C2 1_555 1_555
H22 C3 1_555 1_555
C4 C3 1_555 1_555
C5 O7 1_555 1_555
C6 O11 1_555 1_555
H23 C6 1_555 1_555
C7 O12 1_555 1_555
H24 C7 1_555 1_555
C8 C7 1_555 1_555
C9 O13 1_555 1_555
C10 O17 1_555 1_555
H25 C10 1_555 1_555
C11 O18 1_555 1_555
H26 C11 1_555 1_555
C12 O15 1_555 1_555
O29 H27 1_555 1_555
H28 O29 1_555 1_555
O30 H29 1_555 1_555
H30 O30 1_555 1_555
O31 H31 1_555 1_555
H32 O31 1_555 1_555
Ge2_2 O3 1_555 1_555
O3_2 Ge2 1_555 1_555
O6_2 Ge2 1_555 1_555
O6 Ge2_2 1_555 1_555
C5 C6 1_555 1_555
C6 C7 1_555 1_555
C9 C10 1_555 1_555
C10 C11 1_555 1_555
C11 C12 1_555 1_555

#END
