
#######################################################################
#
#                 Cambridge Crystallographic Data Centre
#                                CCDC 
#
#######################################################################
#
# If this CIF has been generated from an entry in the Cambridge 
# Structural Database, then it will include bibliographic, chemical, 
# crystal, experimental, refinement or atomic coordinate data resulting 
# from the CCDC's data processing and validation procedures.
#
#######################################################################

data_YIZTIM
_symmetry_cell_setting           monoclinic
_symmetry_space_group_name_H-M   'P 2'
_symmetry_Int_Tables_number      3
_space_group_name_Hall           'P 2y'
loop_
_symmetry_equiv_pos_site_id
_symmetry_equiv_pos_as_xyz
1 x,y,z
2 -x,y,-z
_cell_length_a                   9.1956(8)
_cell_length_b                   8.1109(7)
_cell_length_c                   9.2089(8)
_cell_angle_alpha                90
_cell_angle_beta                 105.5810(10)
_cell_angle_gamma                90
_cell_volume                     661.602
loop_
_atom_site_label
_atom_site_type_symbol
_atom_site_fract_x
_atom_site_fract_y
_atom_site_fract_z
Tm1 Tm 0.500 0.000 0.500
Ge1 Ge 0.18928(4) 0.50941(7) 0.73156(4)
O1 O 0.2836(3) 0.3241(4) 0.6650(3)
O2 O 0.3427(4) 0.2302(4) 0.4619(4)
O3 O -0.0693(3) 0.6790(4) 0.2111(3)
O4 O 0.1590(3) 0.7304(4) 0.1886(4)
O5 O 0.1854(3) 0.6043(3) 0.5482(3)
O6 O -0.0114(3) 0.3912(4) 0.3240(3)
O7 O 0.2331(3) 0.4005(4) 0.9243(3)
O8 O 0.3945(4) 0.4037(4) 1.1522(4)
O9 O 0.3575(3) 0.6364(4) 0.8195(3)
O10 O 0.2641(3) -0.0852(4) 0.5163(4)
H1 H 0.1953 -0.0055 0.5174
H2 H 0.2374 -0.1802 0.5228
O11 O 0.4453(4) 0.0873(4) 0.2486(4)
H3 H 0.4367 0.1951 0.2311
H4 H 0.4587 0.0053 0.1795
O12 O 0.5415(3) -0.2321(4) 0.6608(3)
H5 H 0.4764 -0.2747 0.7008
H6 H 0.6305 -0.2731 0.7113
C1 C 0.2917(4) 0.3361(4) 0.5287(4)
C2 C 0.2381(3) 0.4983(7) 0.4510(3)
H7 H 0.3247 0.5517 0.4276
C3 C 0.1153(4) 0.4721(5) 0.3014(4)
H8 H 0.1575 0.4055 0.2337
C4 C 0.0689(4) 0.6386(5) 0.2288(4)
C5 C 0.3464(4) 0.4608(4) 1.0258(4)
C6 C 0.4133(4) 0.6163(5) 0.9759(4)
H9 H 0.379 0.7108 1.0244
O7A O 0.7669(3) 0.4005(4) 1.0757(3)
O8A O 0.6055(4) 0.4037(4) 0.8478(4)
O9A O 0.6425(3) 0.6364(4) 1.1805(3)
C5A C 0.6536(4) 0.4608(4) 0.9742(4)
C6A C 0.5867(4) 0.6163(5) 1.0241(4)
H9A H 0.621 0.7108 0.9756
Ge1A Ge -0.18928(4) 0.50941(7) 0.26844(4)
O1A O -0.2836(3) 0.3241(4) 0.3350(3)
O2A O -0.3427(4) 0.2302(4) 0.5381(4)
O3A O 0.0693(3) 0.6790(4) 0.7889(3)
O4A O -0.1590(3) 0.7304(4) 0.8114(4)
O5A O -0.1854(3) 0.6043(3) 0.4518(3)
O6A O 0.0114(3) 0.3912(4) 0.6760(3)
C1A C -0.2917(4) 0.3361(4) 0.4713(4)
C2A C -0.2381(3) 0.4983(7) 0.5490(3)
H7A H -0.3247 0.5517 0.5724
C3A C -0.1153(4) 0.4721(5) 0.6986(4)
H8A H -0.1575 0.4055 0.7663
C4A C -0.0689(4) 0.6386(5) 0.7712(4)
O10A O 0.7359(3) -0.0852(4) 0.4837(4)
H1A H 0.8047 -0.0055 0.4826
H2A H 0.7626 -0.1802 0.4772
O11A O 0.5547(4) 0.0873(4) 0.7514(4)
H3A H 0.5633 0.1951 0.7689
H4A H 0.5413 0.0053 0.8205
O12A O 0.4585(3) -0.2321(4) 0.3392(3)
H5A H 0.5236 -0.2747 0.2992
H6A H 0.3695 -0.2731 0.2887
Tm1_2 Tm -0.500 0.000 0.500
Ge1A_2 Ge 0.81072(4) 0.50941(7) 1.26844(4)
O2A_2 O 0.6573(4) 0.2302(4) 0.5381(4)
O7A_2 O -0.2331(3) 0.4005(4) 0.0757(3)
O9A_2 O -0.3575(3) 0.6364(4) 0.1805(3)
O13 O 0.000 0.1021(7) 0.500
H10 H 0.004 0.1856 0.5838
H10A H -0.004 0.1856 0.4162
O14 O 0.000 0.9423(9) 0.000
H11 H 0.0814 0.8565 0.0544
H11A H -0.0814 0.8565 -0.0544
O15 O 0.3279(15) 0.005(2) 0.9098(11)
O16? O 0.228(2) 0.026(3) 0.867(2)
loop_
_geom_bond_atom_site_label_1
_geom_bond_atom_site_label_2
_geom_bond_site_symmetry_1
_geom_bond_site_symmetry_2
Tm1 O2 1_555 1_555
Ge1 O1 1_555 1_555
O1 C1 1_555 1_555
O2 C1 1_555 1_555
O3 C4 1_555 1_555
O4 C4 1_555 1_555
O5 Ge1 1_555 1_555
O6 C3 1_555 1_555
O7 Ge1 1_555 1_555
O8 C5 1_555 1_555
O9 Ge1 1_555 1_555
O10 Tm1 1_555 1_555
H1 O10 1_555 1_555
H2 O10 1_555 1_555
O11 Tm1 1_555 1_555
H3 O11 1_555 1_555
H4 O11 1_555 1_555
O12 Tm1 1_555 1_555
H5 O12 1_555 1_555
H6 O12 1_555 1_555
C1 C2 1_555 1_555
C2 O5 1_555 1_555
H7 C2 1_555 1_555
C3 C2 1_555 1_555
H8 C3 1_555 1_555
C4 C3 1_555 1_555
C5 O7 1_555 1_555
C6 O9 1_555 1_555
H9 C6 1_555 1_555
O13 H10 1_555 1_555
O14 H11 1_555 1_555
O7A C5A 1_555 1_555
O8A C5A 1_555 1_555
O9A C6A 1_555 1_555
C5A C6A 1_555 1_555
C6A C6 1_555 1_555
H9A C6A 1_555 1_555
Ge1A O3 1_555 1_555
O1A Ge1A 1_555 1_555
O2A C1A 1_555 1_555
O3A Ge1 1_555 1_555
O4A C4A 1_555 1_555
O5A Ge1A 1_555 1_555
O6A Ge1 1_555 1_555
C1A O1A 1_555 1_555
C2A O5A 1_555 1_555
H7A C2A 1_555 1_555
C3A O6A 1_555 1_555
H8A C3A 1_555 1_555
C4A O3A 1_555 1_555
O10A Tm1 1_555 1_555
H1A O10A 1_555 1_555
H2A O10A 1_555 1_555
O11A Tm1 1_555 1_555
H3A O11A 1_555 1_555
H4A O11A 1_555 1_555
O12A Tm1 1_555 1_555
H5A O12A 1_555 1_555
H6A O12A 1_555 1_555
Tm1_2 O2A 1_555 1_555
Ge1A_2 O7A 1_555 1_555
O2A_2 Tm1 1_555 1_555
O7A_2 Ge1A 1_555 1_555
O9A_2 Ge1A 1_555 1_555
H10A O13 1_555 1_555
H11A O14 1_555 1_555
O6 Ge1A 1_555 1_555
C5 C6 1_555 1_555
O9A Ge1A_2 1_555 1_555
C1A C2A 1_555 1_555
C2A C3A 1_555 1_555
C3A C4A 1_555 1_555

#END
