
#######################################################################
#
#                 Cambridge Crystallographic Data Centre
#                                CCDC 
#
#######################################################################
#
# If this CIF has been generated from an entry in the Cambridge 
# Structural Database, then it will include bibliographic, chemical, 
# crystal, experimental, refinement or atomic coordinate data resulting 
# from the CCDC's data processing and validation procedures.
#
#######################################################################

data_YIZVEJ
_symmetry_cell_setting           monoclinic
_symmetry_space_group_name_H-M   'P 21'
_symmetry_Int_Tables_number      4
_space_group_name_Hall           'P 2yb'
loop_
_symmetry_equiv_pos_site_id
_symmetry_equiv_pos_as_xyz
1 x,y,z
2 -x,1/2+y,-z
_cell_length_a                   11.0098(8)
_cell_length_b                   7.7495(6)
_cell_length_c                   11.2271(8)
_cell_angle_alpha                90
_cell_angle_beta                 116.361(7)
_cell_angle_gamma                90
_cell_volume                     858.293
loop_
_atom_site_label
_atom_site_type_symbol
_atom_site_fract_x
_atom_site_fract_y
_atom_site_fract_z
Bi1 Bi 0.52365(2) 0.74857(10) 0.45945(2)
N1 N 0.7853(7) 0.7695(19) 0.5658(6)
C1 C 0.8603(18) 0.622(2) 0.5930(16)
C2 C 0.9968(16) 0.622(2) 0.6361(16)
H1 H 1.0459 0.5170 0.6543
C3 C 1.0637(9) 0.7812(14) 0.6531(8)
H2 H 1.1587 0.7847 0.6807
C4 C 0.9914(15) 0.929(2) 0.6298(15)
H3 H 1.0344 1.0387 0.6421
C5 C 0.8503(15) 0.9162(19) 0.5866(14)
H4 H 0.7995 1.0198 0.5718
C6 C 0.7802(9) 0.4574(13) 0.5734(9)
O1 O 0.8445(7) 0.3200(8) 0.6015(8)
O2 O 0.6520(6) 0.4754(8) 0.5315(6)
N2 N 0.3143(7) 0.768(2) 0.2234(7)
C7 C 0.2560(13) 0.6253(16) 0.1592(13)
C8 C 0.1476(17) 0.628(2) 0.0316(16)
H5 H 0.1111 0.5226 -0.0139
C9 C 0.0940(10) 0.7848(16) -0.0276(9)
H6 H 0.0175 0.7902 -0.1122
C10 C 0.1544(15) 0.930(2) 0.0391(14)
H7 H 0.1208 1.0390 -0.0004
C11 C 0.2656(13) 0.9233(17) 0.1652(13)
H8 H 0.3068 1.0270 0.2100
C12 C 0.3104(9) 0.4578(13) 0.2331(8)
O3 O 0.2575(7) 0.3195(8) 0.1731(6)
O4 O 0.4022(6) 0.4721(8) 0.3517(6)
N3 N 0.5938(7) 0.7129(11) 0.2840(8)
C13 C 0.6133(13) 0.8698(19) 0.2332(11)
C14 C 0.6465(16) 0.866(2) 0.1247(15)
H9 H 0.6576 0.9715 0.0873
C15 C 0.6625(10) 0.7135(16) 0.0739(10)
H10 H 0.6842 0.7108 0.0009
C16 C 0.6467(18) 0.563(2) 0.1305(15)
H11 H 0.6585 0.4552 0.0965
C17 C 0.6137(15) 0.5654(18) 0.2370(14)
H12 H 0.6054 0.4598 0.2758
C18 C 0.5912(8) 1.0303(11) 0.2907(8)
O5 O 0.6053(7) 1.1646(9) 0.2450(7)
O6 O 0.5555(6) 1.0123(8) 0.3846(6)
Bi1A Bi 0.47635(2) 0.24857(10) 0.54055(2)
O2A O 0.3480(6) 0.9754(8) 0.4685(6)
O4A O 0.5978(6) 0.9721(8) 0.6483(6)
loop_
_geom_bond_atom_site_label_1
_geom_bond_atom_site_label_2
_geom_bond_site_symmetry_1
_geom_bond_site_symmetry_2
Bi1 N1 1_555 1_555
N1 C1 1_555 1_555
C1 C2 1_555 1_555
C2 H1 1_555 1_555
C3 C2 1_555 1_555
H2 C3 1_555 1_555
C4 C3 1_555 1_555
H3 C4 1_555 1_555
C5 N1 1_555 1_555
H4 C5 1_555 1_555
C6 C1 1_555 1_555
O1 C6 1_555 1_555
O2 Bi1 1_555 1_555
N2 Bi1 1_555 1_555
C7 N2 1_555 1_555
C8 C7 1_555 1_555
H5 C8 1_555 1_555
C9 C8 1_555 1_555
H6 C9 1_555 1_555
C10 C9 1_555 1_555
H7 C10 1_555 1_555
C11 N2 1_555 1_555
H8 C11 1_555 1_555
C12 C7 1_555 1_555
O3 C12 1_555 1_555
O4 Bi1 1_555 1_555
N3 Bi1 1_555 1_555
C13 N3 1_555 1_555
C14 C13 1_555 1_555
H9 C14 1_555 1_555
C15 C14 1_555 1_555
H10 C15 1_555 1_555
C16 C15 1_555 1_555
H11 C16 1_555 1_555
C17 N3 1_555 1_555
H12 C17 1_555 1_555
C18 C13 1_555 1_555
O5 C18 1_555 1_555
O6 Bi1 1_555 1_555
Bi1A O2 1_555 1_555
O2A Bi1 1_555 1_555
O4A Bi1 1_555 1_555
C4 C5 1_555 1_555
C6 O2 1_555 1_555
C10 C11 1_555 1_555
C12 O4 1_555 1_555
O4 Bi1A 1_555 1_555
C16 C17 1_555 1_555
C18 O6 1_555 1_555

#END
