
#######################################################################
#
#                 Cambridge Crystallographic Data Centre
#                                CCDC 
#
#######################################################################
#
# If this CIF has been generated from an entry in the Cambridge 
# Structural Database, then it will include bibliographic, chemical, 
# crystal, experimental, refinement or atomic coordinate data resulting 
# from the CCDC's data processing and validation procedures.
#
#######################################################################

data_YIZVEJ01
_symmetry_cell_setting           monoclinic
_symmetry_space_group_name_H-M   'P 21/n'
_symmetry_Int_Tables_number      14
_space_group_name_Hall           '-P 2yn'
loop_
_symmetry_equiv_pos_site_id
_symmetry_equiv_pos_as_xyz
1 x,y,z
2 1/2-x,1/2+y,1/2-z
3 -x,-y,-z
4 1/2+x,1/2-y,1/2+z
_cell_length_a                   11.822(3)
_cell_length_b                   7.738(2)
_cell_length_c                   18.931(6)
_cell_angle_alpha                90
_cell_angle_beta                 91.165(4)
_cell_angle_gamma                90
_cell_volume                     1731.42
loop_
_atom_site_label
_atom_site_type_symbol
_atom_site_fract_x
_atom_site_fract_y
_atom_site_fract_z
Bi1 Bi 0.258800(17) 0.25451(2) 0.217143(10)
C1 C 0.0318(5) 0.0793(8) 0.1180(3)
H1 H 0.0642 -0.0232 0.1342
C2 C -0.0604(6) 0.0707(9) 0.0719(4)
H2 H -0.0900 -0.0354 0.0578
C3 C -0.1075(7) 0.2227(9) 0.0475(4)
H3 H -0.1683 0.2209 0.0155
C4 C -0.0630(6) 0.3778(9) 0.0710(4)
H4 H -0.0935 0.4820 0.0552
C5 C 0.0266(5) 0.3763(7) 0.1181(3)
C6 C 0.0754(5) 0.5422(7) 0.1470(3)
C7 C 0.5317(6) 0.0685(8) 0.1975(3)
H5 H 0.4891 -0.0326 0.1976
C8 C 0.6472(6) 0.0573(9) 0.1910(4)
H6 H 0.6819 -0.0501 0.1872
C9 C 0.7104(6) 0.2050(10) 0.1902(4)
H7 H 0.7887 0.1995 0.1864
C10 C 0.6561(5) 0.3630(9) 0.1952(3)
H8 H 0.6971 0.4654 0.1928
C11 C 0.5413(5) 0.3668(7) 0.2036(3)
C12 C 0.4792(5) 0.5348(7) 0.2131(3)
C13 C 0.3222(6) 0.4416(8) 0.0626(4)
H9 H 0.3096 0.5426 0.0879
C14 C 0.3554(6) 0.4521(9) -0.0069(4)
H10 H 0.3642 0.5589 -0.0286
C15 C 0.3752(8) 0.3008(11) -0.0433(4)
H11 H 0.3974 0.3045 -0.0901
C16 C 0.3619(7) 0.1443(9) -0.0097(4)
H12 H 0.3755 0.0413 -0.0334
C17 C 0.3282(5) 0.1429(8) 0.0596(3)
C18 C 0.3117(5) -0.0250(8) 0.0986(3)
N1 N 0.0762(4) 0.2289(6) 0.1401(3)
N2 N 0.4785(4) 0.2217(6) 0.2039(3)
N3 N 0.3078(4) 0.2885(6) 0.0942(3)
O1 O 0.1604(3) 0.5252(5) 0.1899(2)
O2 O 0.0325(5) 0.6807(6) 0.1286(3)
O3 O 0.3742(3) 0.5224(5) 0.2254(2)
O4 O 0.5336(4) 0.6706(5) 0.2111(3)
O5 O 0.2797(4) -0.0121(5) 0.1635(2)
O6 O 0.3301(5) -0.1601(6) 0.0682(3)
Bi1A Bi 0.241200(17) 0.75451(2) 0.282857(10)
Bi1A_2 Bi 0.241200(17) -0.24549(2) 0.282857(10)
O1A O 0.3396(3) 0.0252(5) 0.3101(2)
O3A O 0.1258(3) 0.0224(5) 0.2746(2)
O5A O 0.2203(4) 0.4879(5) 0.3365(2)
loop_
_geom_bond_atom_site_label_1
_geom_bond_atom_site_label_2
_geom_bond_site_symmetry_1
_geom_bond_site_symmetry_2
Bi1 N1 1_555 1_555
C1 H1 1_555 1_555
C2 C1 1_555 1_555
H2 C2 1_555 1_555
C3 C2 1_555 1_555
H3 C3 1_555 1_555
C4 C3 1_555 1_555
H4 C4 1_555 1_555
C5 C4 1_555 1_555
C6 C5 1_555 1_555
C7 H5 1_555 1_555
C8 C7 1_555 1_555
H6 C8 1_555 1_555
C9 C8 1_555 1_555
H7 C9 1_555 1_555
C10 C9 1_555 1_555
H8 C10 1_555 1_555
C11 C10 1_555 1_555
C12 C11 1_555 1_555
C13 H9 1_555 1_555
C14 C13 1_555 1_555
H10 C14 1_555 1_555
C15 C14 1_555 1_555
H11 C15 1_555 1_555
C16 C15 1_555 1_555
H12 C16 1_555 1_555
C17 C16 1_555 1_555
C18 C17 1_555 1_555
N1 C1 1_555 1_555
N2 Bi1 1_555 1_555
N3 Bi1 1_555 1_555
O1 Bi1 1_555 1_555
O2 C6 1_555 1_555
O3 Bi1 1_555 1_555
O4 C12 1_555 1_555
O5 Bi1 1_555 1_555
O6 C18 1_555 1_555
Bi1A O1 1_555 1_555
Bi1A_2 O5 1_555 1_555
O1A Bi1 1_555 1_555
O3A Bi1 1_555 1_555
O5A Bi1 1_555 1_555
C5 N1 1_555 1_555
C6 O1 1_555 1_555
C7 N2 1_555 1_555
C11 N2 1_555 1_555
C12 O3 1_555 1_555
C13 N3 1_555 1_555
C17 N3 1_555 1_555
C18 O5 1_555 1_555
O3 Bi1A 1_555 1_555
Bi1A O5A 1_555 1_555
Bi1A_2 O1A 1_555 1_555
Bi1A_2 O3A 1_555 1_555

#END
