
#######################################################################
#
#                 Cambridge Crystallographic Data Centre
#                                CCDC 
#
#######################################################################
#
# If this CIF has been generated from an entry in the Cambridge 
# Structural Database, then it will include bibliographic, chemical, 
# crystal, experimental, refinement or atomic coordinate data resulting 
# from the CCDC's data processing and validation procedures.
#
#######################################################################

data_YIZVAF
_symmetry_cell_setting           monoclinic
_symmetry_space_group_name_H-M   'P 21/n'
_symmetry_Int_Tables_number      14
_space_group_name_Hall           '-P 2yn'
loop_
_symmetry_equiv_pos_site_id
_symmetry_equiv_pos_as_xyz
1 x,y,z
2 1/2-x,1/2+y,1/2-z
3 -x,-y,-z
4 1/2+x,1/2-y,1/2+z
_cell_length_a                   11.42140(17)
_cell_length_b                   7.81680(10)
_cell_length_c                   29.0941(5)
_cell_angle_alpha                90
_cell_angle_beta                 94.0338(14)
_cell_angle_gamma                90
_cell_volume                     2591.05
loop_
_atom_site_label
_atom_site_type_symbol
_atom_site_fract_x
_atom_site_fract_y
_atom_site_fract_z
Bi1 Bi 0.26736(2) 0.76608(3) 0.134494(9)
N1 N 0.0270(5) 0.7318(7) 0.13495(19)
C1 C -0.0334(6) 0.8732(8) 0.1430(2)
C2 C -0.1543(7) 0.8762(9) 0.1468(2)
H1 H -0.1938 0.9803 0.1524
C3 C -0.2155(7) 0.7228(10) 0.1421(2)
H2 H -0.2979 0.7190 0.1447
C4 C -0.1531(7) 0.5754(10) 0.1335(3)
H3 H -0.1930 0.4692 0.1296
C5 C -0.0327(7) 0.5826(10) 0.1305(3)
H4 H 0.0090 0.4801 0.1252
C6 C 0.0377(6) 1.0363(9) 0.1493(2)
O1 O -0.0154(4) 1.1702(6) 0.15497(17)
O2 O 0.1481(4) 1.0240(6) 0.14718(17)
N2 N 0.1887(5) 0.8063(7) 0.05308(19)
C7 C 0.1651(5) 0.6629(8) 0.0288(2)
C8 C 0.1311(6) 0.6657(9) -0.0177(3)
H5 H 0.1159 0.5624 -0.0343
C9 C 0.1196(7) 0.8232(10) -0.0396(3)
H6 H 0.0983 0.8292 -0.0717
C10 C 0.1393(6) 0.9704(9) -0.0144(3)
H7 H 0.1299 1.0792 -0.0287
C11 C 0.1731(6) 0.9583(9) 0.0321(3)
H8 H 0.1855 1.0601 0.0496
C12 C 0.1798(6) 0.4951(9) 0.0542(3)
O3 O 0.1546(4) 0.3624(6) 0.03381(17)
O4 O 0.2184(4) 0.5052(5) 0.09672(17)
N3 N 0.4392(4) 0.7246(6) 0.08777(19)
C13 C 0.4915(6) 0.8672(8) 0.0728(2)
C14 C 0.5827(7) 0.8589(9) 0.0449(3)
H9 H 0.6161 0.9610 0.0339
C15 C 0.6259(6) 0.7022(9) 0.0329(3)
H10 H 0.6896 0.6950 0.0137
C16 C 0.5758(6) 0.5558(9) 0.0490(3)
H11 H 0.6052 0.4463 0.0416
C17 C 0.4807(6) 0.5717(9) 0.0765(2)
H12 H 0.4448 0.4713 0.0873
C18 C 0.4433(6) 1.0360(9) 0.0882(2)
O5 O 0.4916(5) 1.1681(6) 0.07701(19)
O6 O 0.3554(4) 1.0287(5) 0.11319(15)
N4 N 0.4593(5) 0.8198(7) 0.19460(19)
C19 C 0.5070(6) 0.6813(8) 0.2157(2)
C20 C 0.6038(6) 0.6945(9) 0.2470(2)
H13 H 0.6392 0.5945 0.2603
C21 C 0.6483(7) 0.8538(9) 0.2588(3)
H14 H 0.7132 0.8653 0.2808
C22 C 0.5971(7) 0.9948(9) 0.2381(3)
H15 H 0.6264 1.1058 0.2456
C23 C 0.5023(7) 0.9748(9) 0.2061(3)
H16 H 0.4670 1.0734 0.1919
C24 C 0.4536(6) 0.5120(9) 0.2029(3)
O7 O 0.4912(5) 0.3829(6) 0.22472(19)
O8 O 0.3729(4) 0.5096(5) 0.17065(17)
Na1 Na 0.2639(2) 1.2705(3) 0.14341(8)
O9 O 0.1584(5) 1.3502(6) 0.20698(18)
H17 H 0.160(8) 1.4652(8) 0.208(3)
H18 H 0.086(3) 1.315(11) 0.197(3)
O4_2 O 0.2184(4) 1.5052(5) 0.09672(17)
O8_2 O 0.3729(4) 1.5096(5) 0.17065(17)
Na1_2 Na 0.2639(2) 0.2705(3) 0.14341(8)
O10 O 0.3145(4) 0.2065(6) 0.27427(18)
H19 H 0.378(3) 0.266(7) 0.267(2)
H20 H 0.253(3) 0.259(7) 0.2596(19)
O11 O 0.6508(7) 1.2777(12) 0.1505(3)
loop_
_geom_bond_atom_site_label_1
_geom_bond_atom_site_label_2
_geom_bond_site_symmetry_1
_geom_bond_site_symmetry_2
Bi1 N1 1_555 1_555
N1 C1 1_555 1_555
C1 C2 1_555 1_555
C2 H1 1_555 1_555
C3 C2 1_555 1_555
H2 C3 1_555 1_555
C4 C3 1_555 1_555
H3 C4 1_555 1_555
C5 N1 1_555 1_555
H4 C5 1_555 1_555
C6 C1 1_555 1_555
O1 C6 1_555 1_555
O2 Bi1 1_555 1_555
N2 Bi1 1_555 1_555
C7 N2 1_555 1_555
C8 C7 1_555 1_555
H5 C8 1_555 1_555
C9 C8 1_555 1_555
H6 C9 1_555 1_555
C10 C9 1_555 1_555
H7 C10 1_555 1_555
C11 N2 1_555 1_555
H8 C11 1_555 1_555
C12 C7 1_555 1_555
O3 C12 1_555 1_555
O4 Bi1 1_555 1_555
N3 Bi1 1_555 1_555
C13 N3 1_555 1_555
C14 C13 1_555 1_555
H9 C14 1_555 1_555
C15 C14 1_555 1_555
H10 C15 1_555 1_555
C16 C15 1_555 1_555
H11 C16 1_555 1_555
C17 N3 1_555 1_555
H12 C17 1_555 1_555
C18 C13 1_555 1_555
O5 C18 1_555 1_555
O6 Bi1 1_555 1_555
N4 Bi1 1_555 1_555
C19 N4 1_555 1_555
C20 C19 1_555 1_555
H13 C20 1_555 1_555
C21 C20 1_555 1_555
H14 C21 1_555 1_555
C22 C21 1_555 1_555
H15 C22 1_555 1_555
C23 N4 1_555 1_555
H16 C23 1_555 1_555
C24 C19 1_555 1_555
O7 C24 1_555 1_555
O8 Bi1 1_555 1_555
Na1 O2 1_555 1_555
O9 Na1 1_555 1_555
H17 O9 1_555 1_555
H18 O9 1_555 1_555
O10 H19 1_555 1_555
H20 O10 1_555 1_555
O4_2 Na1 1_555 1_555
O8_2 Na1 1_555 1_555
Na1_2 O4 1_555 1_555
C4 C5 1_555 1_555
C6 O2 1_555 1_555
C10 C11 1_555 1_555
C12 O4 1_555 1_555
C16 C17 1_555 1_555
C18 O6 1_555 1_555
O6 Na1 1_555 1_555
C22 C23 1_555 1_555
C24 O8 1_555 1_555
O8 Na1_2 1_555 1_555

#END
