
#######################################################################
#
#                 Cambridge Crystallographic Data Centre
#                                CCDC 
#
#######################################################################
#
# If this CIF has been generated from an entry in the Cambridge 
# Structural Database, then it will include bibliographic, chemical, 
# crystal, experimental, refinement or atomic coordinate data resulting 
# from the CCDC's data processing and validation procedures.
#
#######################################################################

data_YIZWUZ
_symmetry_cell_setting           trigonal
_symmetry_space_group_name_H-M   'P -3 c 1'
_symmetry_Int_Tables_number      165
_space_group_name_Hall           '-P 3 2"c'
loop_
_symmetry_equiv_pos_site_id
_symmetry_equiv_pos_as_xyz
1 x,y,z
2 -y,x-y,z
3 y,x,1/2-z
4 -x+y,-x,z
5 -x,-x+y,1/2-z
6 x-y,-y,1/2-z
7 -x,-y,-z
8 y,-x+y,-z
9 -y,-x,1/2+z
10 x-y,x,-z
11 x,x-y,1/2+z
12 -x+y,y,1/2+z
_cell_length_a                   16.969(3)
_cell_length_b                   16.969(3)
_cell_length_c                   12.521(3)
_cell_angle_alpha                90
_cell_angle_beta                 90
_cell_angle_gamma                120
_cell_volume                     3122.35
loop_
_atom_site_label
_atom_site_type_symbol
_atom_site_fract_x
_atom_site_fract_y
_atom_site_fract_z
Cr1 Cr 0.0000 -0.3401(1) 0.2500
Na1 Na -0.3246(6) -0.3246 0.2500
O1 O -0.1142(5) -0.3911(5) 0.3328(6)
O2 O -0.0594(5) -0.2882(5) 0.1624(6)
O3 O 0.0476(6) -0.4041(5) 0.3377(6)
O4 O -0.1851(5) -0.2777(6) 0.1588(7)
O5 O -0.2382(6) -0.3758(6) 0.3455(7)
O6 O 0.0585(5) -0.5295(6) 0.3372(7)
C1 C -0.1371(8) -0.3049(8) 0.1974(11)
C2 C -0.1692(8) -0.3641(9) 0.3021(11)
C3 C 0.0314(8) -0.4815(7) 0.2988(10)
O1D O 0.1142(5) -0.2769(7) 0.1672(6)
O2D O 0.0594(5) -0.2288(7) 0.3376(6)
O3D O -0.0476(6) -0.4517(8) 0.1623(6)
O4B O -0.2777(6) -0.1851(5) 0.3412(7)
O5B O -0.3758(6) -0.2382(6) 0.1545(7)
O6E O -0.4120(8) -0.4705(6) 0.1628(7)
O6A O -0.4705(6) -0.4120(8) 0.3372(7)
C3D C -0.0314(8) -0.5129(11) 0.2012(10)
C2D C 0.1692(8) -0.1949(12) 0.1979(11)
C1D C 0.1371(8) -0.1678(11) 0.3026(11)
Na1C Na 0.0000(6) -0.6754(6) 0.2500
O6D O -0.0585(5) -0.5880(8) 0.1628(7)
O5D O 0.2382(6) -0.1376(8) 0.1545(7)
O4D O 0.1851(5) -0.0926(8) 0.3412(7)
Na1A Na 0.3246 0.0000(6) 0.2500
Mg1 Mg 0.0000 0.0000 -0.2500
O7 O -0.0567(12) -0.1136(13) -0.1538(13)
O7A O 0.1136(13) 0.0569(18) -0.1538(13)
O7B O -0.1136(13) -0.0567(12) -0.3462(13)
O7C O -0.0569(18) 0.0567(12) -0.1538(13)
O7D O 0.0567(12) -0.0569(18) -0.3462(13)
O7E O 0.0569(18) 0.1136(13) -0.3462(13)
Mg2 Mg -0.3333 -0.6667 0.2572
O8 O -0.2508(5) -0.6957(5) 0.1586(6)
O9 O -0.3621(5) -0.7778(5) 0.3500(6)
O8A O -0.3043(5) -0.5551(7) 0.1586(6)
O8C O -0.4449(7) -0.7492(5) 0.1586(6)
O9A O -0.2222(5) -0.5843(7) 0.3500(6)
O9C O -0.4157(7) -0.6379(5) 0.3500(6)
O10 O -0.1598(12) -0.1690(12) -0.0047(15)
O11 O -0.3289(5) -0.8246(4) 0.0008(6)
loop_
_geom_bond_atom_site_label_1
_geom_bond_atom_site_label_2
_geom_bond_site_symmetry_1
_geom_bond_site_symmetry_2
Cr1 O1 1_555 1_555
Na1 O4 1_555 1_555
O1 C2 1_555 1_555
O2 Cr1 1_555 1_555
O3 Cr1 1_555 1_555
O4 C1 1_555 1_555
O5 Na1 1_555 1_555
O6 C3 1_555 1_555
C1 O2 1_555 1_555
C2 O5 1_555 1_555
C3 O3 1_555 1_555
Mg1 O7 1_555 1_555
Mg2 O8 1_555 1_555
O9 Mg2 1_555 1_555
O1D Cr1 1_555 1_555
O2D Cr1 1_555 1_555
O3D Cr1 1_555 1_555
O4B Na1 1_555 1_555
O5B Na1 1_555 1_555
O6E Na1 1_555 1_555
O6A Na1 1_555 1_555
C3D C3 1_555 1_555
C2D O1D 1_555 1_555
C1D O2D 1_555 1_555
Na1C O6 1_555 1_555
O6D C3D 1_555 1_555
O5D C2D 1_555 1_555
O4D C1D 1_555 1_555
Na1A O5D 1_555 1_555
O7A Mg1 1_555 1_555
O7B Mg1 1_555 1_555
O7C Mg1 1_555 1_555
O7D Mg1 1_555 1_555
O7E Mg1 1_555 1_555
O8A Mg2 1_555 1_555
O8C Mg2 1_555 1_555
O9A Mg2 1_555 1_555
O9C Mg2 1_555 1_555
C1 C2 1_555 1_555
O3D C3D 1_555 1_555
C2D C1D 1_555 1_555
Na1C O6D 1_555 1_555
O4D Na1A 1_555 1_555

#END
