
#######################################################################
#
#                 Cambridge Crystallographic Data Centre
#                                CCDC 
#
#######################################################################
#
# If this CIF has been generated from an entry in the Cambridge 
# Structural Database, then it will include bibliographic, chemical, 
# crystal, experimental, refinement or atomic coordinate data resulting 
# from the CCDC's data processing and validation procedures.
#
#######################################################################

data_YIZXUC
_symmetry_cell_setting           monoclinic
_symmetry_space_group_name_H-M   'C 2/c'
_symmetry_Int_Tables_number      15
_space_group_name_Hall           '-C 2yn'
loop_
_symmetry_equiv_pos_site_id
_symmetry_equiv_pos_as_xyz
1 x,y,z
2 -x,y,1/2-z
3 1/2+x,1/2+y,z
4 1/2-x,1/2+y,1/2-z
5 -x,-y,-z
6 x,-y,1/2+z
7 1/2-x,1/2-y,-z
8 1/2+x,1/2-y,1/2+z
_cell_length_a                   18.538(17)
_cell_length_b                   16.748(16)
_cell_length_c                   16.019(15)
_cell_angle_alpha                90
_cell_angle_beta                 103.804(12)
_cell_angle_gamma                90
_cell_volume                     4829.84
loop_
_atom_site_label
_atom_site_type_symbol
_atom_site_fract_x
_atom_site_fract_y
_atom_site_fract_z
Ca1 Ca 0.34244(5) 0.17847(6) 0.34674(6)
S1 S 0.66057(6) 0.31793(8) 0.70481(8)
S2 S 0.53818(7) 0.14123(9) 0.42474(7)
N1 N 0.65746(19) 0.1786(2) 0.9959(2)
O1 O 0.33280(19) 0.0980(2) 0.2175(2)
H1 H 0.3585 0.0801 0.1848
H2 H 0.2881 0.0826 0.1980
C1 C 0.6019(2) 0.1637(3) 0.7198(3)
C2 C 0.6721(2) 0.1115(3) 0.9563(3)
C3 C 0.6556(2) 0.1056(3) 0.8667(3)
H3 H 0.6688 0.0599 0.8411
N2 N 0.7079(2) 0.0524(3) 1.0985(2)
C4 C 0.5969(2) 0.2170(3) 0.5772(3)
H4 H 0.6062 0.2587 0.5429
C5 C 0.6197(2) 0.1674(3) 0.8160(3)
C6 C 0.7082(2) 0.0454(3) 1.0144(3)
N3 N 0.6370(2) 0.3144(3) 1.0784(3)
C7 C 0.6137(3) 0.3152(3) 0.9928(3)
C8 C 0.6227(2) 0.2402(3) 0.9461(3)
C9 C 0.7688(3) -0.0811(4) 1.0402(3)
H5 H 0.7893 -0.1258 1.0203
C10 C 0.6005(2) 0.2340(3) 0.8579(3)
H6 H 0.5725 0.2746 0.8261
C11 C 0.5689(3) 0.0942(3) 0.6788(3)
H7 H 0.5597 0.0519 0.7124
C12 C 0.7675(3) -0.0749(4) 1.1251(3)
H8 H 0.7860 -0.1156 1.1638
C13 C 0.5494(3) 0.0863(3) 0.5900(3)
H9 H 0.5267 0.0398 0.5648
C14 C 0.7394(3) -0.0207(3) 0.9848(3)
H10 H 0.7404 -0.0241 0.9272
O2 O 0.3910(3) 0.2605(3) 0.2502(3)
H11 H 0.3593 0.2488 0.2039
H12 H 0.4259 0.2865 0.2365
C15 C 0.6335(4) 0.3833(4) 1.1183(4)
H13 H 0.6492 0.3834 1.1780
C16 C 0.7388(3) -0.0078(4) 1.1509(3)
H14 H 0.7403 -0.0027 1.2091
C17 C 0.6091(3) 0.4534(4) 1.0798(4)
H15 H 0.6087 0.4995 1.1120
C18 C 0.5885(4) 0.3843(4) 0.9482(4)
H16 H 0.5736 0.3837 0.8885
O3 O 0.45925(18) 0.1269(3) 0.4035(2)
O4 O 0.57593(19) 0.0726(3) 0.4001(2)
C19 C 0.5641(2) 0.1482(3) 0.5389(3)
O5 O 0.5601(3) 0.2150(3) 0.3939(2)
C20 C 0.6163(2) 0.2250(3) 0.6660(3)
O6 O 0.71836(17) 0.2973(2) 0.78107(19)
O7 O 0.6909(2) 0.3485(2) 0.6360(2)
O8 O 0.6036(2) 0.3689(2) 0.7245(2)
C21 C 0.5854(4) 0.4545(4) 0.9930(4)
H17 H 0.5674 0.5012 0.9642
Ca1A Ca 0.65756(5) 0.17847(6) 1.15326(6)
Ca1G Ca 0.84244(5) 0.32153(6) 0.84674(6)
N1A N 0.34254(19) 0.1786(2) 0.5041(2)
N2A N 0.2921(2) 0.0524(3) 0.4015(2)
N3A N 0.3630(2) 0.3144(3) 0.4216(3)
O6G O 0.21836(17) 0.2027(2) 0.28107(19)
O9 O 0.5000 0.4831(4) 0.7500
O10 O 0.4897(9) 0.3651(8) 0.1914(9)
H18? H 0.5362 0.4605 0.7353
H19? H 0.4610 0.4563 0.7280
loop_
_geom_bond_atom_site_label_1
_geom_bond_atom_site_label_2
_geom_bond_site_symmetry_1
_geom_bond_site_symmetry_2
Ca1 O1 1_555 1_555
S1 C20 1_555 1_555
S2 O3 1_555 1_555
N1 C2 1_555 1_555
O1 H1 1_555 1_555
H2 O1 1_555 1_555
C1 C5 1_555 1_555
C2 C3 1_555 1_555
C3 H3 1_555 1_555
N2 C6 1_555 1_555
C4 H4 1_555 1_555
C5 C3 1_555 1_555
C6 C2 1_555 1_555
N3 C7 1_555 1_555
C7 C8 1_555 1_555
C8 N1 1_555 1_555
C9 H5 1_555 1_555
C10 C5 1_555 1_555
H6 C10 1_555 1_555
C11 C1 1_555 1_555
H7 C11 1_555 1_555
C12 C9 1_555 1_555
H8 C12 1_555 1_555
C13 C11 1_555 1_555
H9 C13 1_555 1_555
C14 C6 1_555 1_555
H10 C14 1_555 1_555
O2 Ca1 1_555 1_555
H11 O2 1_555 1_555
H12 O2 1_555 1_555
C15 N3 1_555 1_555
H13 C15 1_555 1_555
C16 N2 1_555 1_555
H14 C16 1_555 1_555
C17 C15 1_555 1_555
H15 C17 1_555 1_555
C18 C7 1_555 1_555
H16 C18 1_555 1_555
O3 Ca1 1_555 1_555
O4 S2 1_555 1_555
C19 S2 1_555 1_555
O5 S2 1_555 1_555
C20 C1 1_555 1_555
O6 S1 1_555 1_555
O7 S1 1_555 1_555
O8 S1 1_555 1_555
C21 C17 1_555 1_555
H17 C21 1_555 1_555
Ca1A N1 1_555 1_555
Ca1G O6 1_555 1_555
N1A Ca1 1_555 1_555
N2A Ca1 1_555 1_555
N3A Ca1 1_555 1_555
O6G Ca1 1_555 1_555
N2 Ca1A 1_555 1_555
C4 C19 1_555 1_555
C4 C20 1_555 1_555
N3 Ca1A 1_555 1_555
C8 C10 1_555 1_555
C9 C14 1_555 1_555
C12 C16 1_555 1_555
C13 C19 1_555 1_555
C18 C21 1_555 1_555

#END
