
#######################################################################
#
#                 Cambridge Crystallographic Data Centre
#                                CCDC 
#
#######################################################################
#
# If this CIF has been generated from an entry in the Cambridge 
# Structural Database, then it will include bibliographic, chemical, 
# crystal, experimental, refinement or atomic coordinate data resulting 
# from the CCDC's data processing and validation procedures.
#
#######################################################################

data_YIZYIR
_symmetry_cell_setting           triclinic
_symmetry_space_group_name_H-M   'P -1'
_symmetry_Int_Tables_number      2
_space_group_name_Hall           '-P 1'
loop_
_symmetry_equiv_pos_site_id
_symmetry_equiv_pos_as_xyz
1 x,y,z
2 -x,-y,-z
_cell_length_a                   13.8500(12)
_cell_length_b                   14.6293(12)
_cell_length_c                   17.9504(16)
_cell_angle_alpha                97.4430(10)
_cell_angle_beta                 101.7930(10)
_cell_angle_gamma                90.4240(10)
_cell_volume                     3528.12
loop_
_atom_site_label
_atom_site_type_symbol
_atom_site_fract_x
_atom_site_fract_y
_atom_site_fract_z
Pb1 Pb 0.32397(3) 0.19604(2) 0.36178(2)
Pb2 Pb 0.70139(3) 0.87636(3) 0.11358(2)
Pb3 Pb 0.99354(3) 0.35793(3) 0.20642(3)
C1 C 0.7944(8) 0.9598(7) 0.3004(7)
H1 H 0.7941 1.0137 0.2780
C2 C 0.8351(8) 0.9629(8) 0.3797(8)
H2 H 0.8632 1.0172 0.4092
C3 C 0.8315(8) 0.8834(8) 0.4112(7)
H3 H 0.8562 0.8833 0.4634
C4 C 0.7918(8) 0.8035(7) 0.3664(6)
H4 H 0.7902 0.7493 0.3882
C5 C 0.7540(7) 0.8035(7) 0.2888(6)
C6 C 0.7106(6) 0.7200(6) 0.2382(6)
C7 C 0.6987(7) 0.6387(6) 0.2656(6)
H5 H 0.7157 0.6365 0.3182
C8 C 0.6623(7) 0.5598(7) 0.2172(6)
C9 C 0.6368(6) 0.5669(7) 0.1398(7)
H6 H 0.6108 0.5152 0.1055
C10 C 0.6488(6) 0.6489(6) 0.1122(6)
C11 C 0.6217(7) 0.6595(7) 0.0301(6)
C12 C 0.5982(7) 0.5847(7) -0.0261(6)
H7 H 0.5965 0.5252 -0.0133
C13 C 0.5773(7) 0.6004(8) -0.1019(7)
H8 H 0.5625 0.5509 -0.1410
C14 C 0.5784(9) 0.6884(9) -0.1197(7)
H9 H 0.5635 0.6993 -0.1706
C15 C 0.6015(9) 0.7592(9) -0.0624(7)
H10 H 0.6016 0.8191 -0.0746
C16 C 0.6432(7) 0.4737(6) 0.2501(6)
C17 C 0.6760(7) 0.3854(7) 0.2280(6)
C18 C 0.6545(6) 0.3128(7) 0.2661(6)
H11 H 0.6779 0.2546 0.2534
C19 C 0.5997(7) 0.3260(7) 0.3216(6)
C20 C 0.5648(8) 0.4102(7) 0.3429(6)
H12 H 0.5271 0.4184 0.3804
C21 C 0.5876(8) 0.4838(7) 0.3063(7)
H13 H 0.5644 0.5417 0.3202
C22 C 0.9089(9) 0.3762(8) 0.3692(7)
H14 H 0.9112 0.3127 0.3567
C23 C 0.8713(10) 0.4100(9) 0.4326(9)
H15 H 0.8449 0.3705 0.4604
C24 C 0.8743(10) 0.5043(9) 0.4533(7)
H16 H 0.8526 0.5291 0.4971
C25 C 0.9091(9) 0.5618(8) 0.4093(7)
H17 H 0.9110 0.6255 0.4222
C26 C 0.9416(7) 0.5207(7) 0.3440(6)
C27 C 0.9805(6) 0.5773(7) 0.2933(6)
C28 C 0.9854(7) 0.6744(7) 0.3047(6)
H18 H 0.9607 0.7058 0.3448
C29 C 1.0254(6) 0.7234(6) 0.2584(6)
C30 C 1.0564(6) 0.6734(6) 0.1958(5)
H19 H 1.0823 0.7044 0.1618
C31 C 1.0484(7) 0.5784(6) 0.1846(5)
C32 C 1.0828(7) 0.5237(6) 0.1197(5)
C33 C 1.1345(7) 0.5626(7) 0.0727(6)
H20 H 1.1514 0.6253 0.0820
C34 C 1.1606(8) 0.5077(8) 0.0122(7)
H21 H 1.1954 0.5331 -0.0198
C35 C 1.1349(8) 0.4148(8) -0.0007(7)
H22 H 1.1518 0.3766 -0.0413
C36 C 1.0850(8) 0.3814(8) 0.0468(8)
H23 H 1.0679 0.3187 0.0381
C37 C 1.0311(6) 0.8278(6) 0.2729(6)
C38 C 1.0056(6) 0.8890(6) 0.2202(5)
C39 C 1.0180(7) 0.9844(6) 0.2455(6)
H24 H 1.0000 1.0256 0.2102
C40 C 1.0563(6) 1.0181(6) 0.3211(5)
C41 C 1.0829(7) 0.9568(6) 0.3741(6)
H25 H 1.1089 0.9782 0.4254
C42 C 1.0699(7) 0.8627(6) 0.3487(5)
H26 H 1.0879 0.8215 0.3841
C43 C 1.4185(7) 1.1800(8) 0.5516(7)
H27 H 1.4297 1.2429 0.5520
C44 C 1.4339(7) 1.1455(9) 0.6203(7)
H28 H 1.4536 1.1843 0.6664
C45 C 1.4202(7) 1.0551(9) 0.6197(7)
H29 H 1.4322 1.0302 0.6657
C46 C 1.3883(8) 0.9982(7) 0.5516(7)
H30 H 1.3757 0.9356 0.5513
C47 C 1.3752(6) 1.0362(6) 0.4832(5)
C48 C 1.3431(6) 0.9775(6) 0.4068(5)
C49 C 1.3415(6) 0.8825(6) 0.4002(6)
H31 H 1.3612 0.8531 0.4435
C50 C 1.3097(6) 0.8308(6) 0.3276(6)
C51 C 1.2806(7) 0.8792(6) 0.2661(6)
H32 H 1.2569 0.8472 0.2174
C52 C 1.2864(6) 0.9748(6) 0.2760(6)
C53 C 1.2525(7) 1.0262(7) 0.2097(6)
C54 C 1.2110(8) 0.9842(7) 0.1374(6)
H33 H 1.2067 0.9201 0.1272
C55 C 1.1754(9) 1.0367(8) 0.0794(7)
H34 H 1.1465 1.0091 0.0302
C56 C 1.1843(10) 1.1299(8) 0.0971(7)
H35 H 1.1612 1.1672 0.0596
C57 C 1.2273(8) 1.1691(8) 0.1703(7)
H36 H 1.2342 1.2330 0.1807
C58 C 1.2997(6) 0.7276(6) 0.3209(6)
C59 C 1.3239(7) 0.6648(6) 0.2618(6)
C60 C 1.3075(6) 0.5714(6) 0.2618(5)
H37 H 1.3218 0.5296 0.2222
C61 C 1.2704(7) 0.5392(6) 0.3193(6)
C62 C 1.2456(8) 0.5986(6) 0.3772(6)
H38 H 1.2180 0.5770 0.4150
C63 C 1.2631(8) 0.6930(6) 0.3777(6)
H39 H 1.2494 0.7340 0.4181
N1 N 0.7565(6) 0.8819(5) 0.2568(5)
N2 N 0.6842(5) 0.7257(5) 0.1625(4)
N3 N 0.6247(6) 0.7456(6) 0.0132(5)
N4 N 1.0118(5) 0.5304(5) 0.2323(5)
N5 N 0.9415(6) 0.4299(6) 0.3260(5)
N6 N 1.0576(6) 0.4333(6) 0.1071(6)
N7 N 1.3873(6) 1.1259(5) 0.4823(5)
N8 N 1.3184(5) 1.0238(5) 0.3458(4)
N9 N 1.2592(6) 1.1199(6) 0.2261(5)
O1 O 0.6737(6) 0.3566(5) 0.0831(4)
O2 O 0.7895(6) 0.2719(5) 0.1692(5)
O3 O 0.8216(5) 0.4322(5) 0.1656(4)
O4 O 0.5518(7) 0.2630(6) 0.4385(5)
O5 O 0.6603(6) 0.1734(6) 0.3671(6)
O6 O 0.4868(5) 0.1791(5) 0.3141(5)
O7 O 0.8702(5) 0.7894(4) 0.1220(4)
O8 O 0.9061(6) 0.9411(5) 0.0947(4)
O9 O 1.0227(5) 0.8195(5) 0.0822(4)
O10 O 1.1654(5) 1.1546(5) 0.3982(5)
O11 O 1.0475(8) 1.1863(5) 0.2882(5)
O12 O 0.9967(6) 1.1542(5) 0.4031(6)
O13 O 1.2947(5) 0.7332(5) 0.1319(4)
O14 O 1.4534(5) 0.7644(5) 0.2181(4)
O15 O 1.4121(6) 0.6121(5) 0.1492(4)
O16 O 1.3408(11) 0.3769(11) 0.3164(12)
O17 O 1.1768(9) 0.3911(8) 0.2414(8)
O18 O 1.2017(14) 0.4068(11) 0.3790(10)
S1 S 0.7447(2) 0.36017(19) 0.15546(18)
S2 S 0.5742(2) 0.2278(2) 0.3649(2)
S3 S 0.94804(19) 0.85738(18) 0.12125(15)
S4 S 1.06443(19) 1.13886(17) 0.35291(17)
S5 S 1.3762(2) 0.69553(18) 0.18390(16)
S6 S 1.2486(2) 0.41860(17) 0.31712(19)
O19 O 0.5363(6) 0.8855(5) 0.1467(5)
H40 H 0.4975 0.8636 0.1050
H41 H 0.5370 0.8465 0.1783
Pb1_2 Pb 1.32397(3) 0.19604(2) 0.36178(2)
Pb1_3 Pb 1.32397(3) 1.19604(2) 0.36178(2)
N7_2 N 0.3873(6) 0.1259(5) 0.4823(5)
N8_2 N 0.3184(5) 0.0238(5) 0.3458(4)
N9_2 N 0.2592(6) 0.1199(6) 0.2261(5)
O10_2 O 0.1654(5) 0.1546(5) 0.3982(5)
O16_2 O 0.3408(11) 0.3769(11) 0.3164(12)
O23 O 0.5982(8) 0.9974(8) -0.0071(9)
O24 O 0.3224(11) -0.1800(7) 0.0073(6)
O25 O 0.5026(10) 1.0706(7) 0.1755(7)
O26 O 0.8412(6) 0.1963(6) 0.4777(5)
O27 O 0.7267(19) 1.0858(9) 0.1495(9)
O28 O 0.4906(14) 0.4163(10) 0.5287(10)
O29 O 1.0794(9) 0.7808(9) -0.0616(7)
O30 O 1.267(2) 0.3383(15) 0.5095(12)
O20? O 1.3036(17) 0.4049(12) 0.4000(12)
O21? O 1.1547(13) 0.4019(12) 0.3248(13)
O22? O 1.3004(16) 0.3688(13) 0.2696(12)
loop_
_geom_bond_atom_site_label_1
_geom_bond_atom_site_label_2
_geom_bond_site_symmetry_1
_geom_bond_site_symmetry_2
Pb1 O6 1_555 1_555
Pb2 N1 1_555 1_555
Pb3 N4 1_555 1_555
C1 H1 1_555 1_555
C2 C1 1_555 1_555
H2 C2 1_555 1_555
C3 C2 1_555 1_555
H3 C3 1_555 1_555
C4 C3 1_555 1_555
H4 C4 1_555 1_555
C5 C4 1_555 1_555
C6 C5 1_555 1_555
C7 C6 1_555 1_555
H5 C7 1_555 1_555
C8 C7 1_555 1_555
C9 C8 1_555 1_555
H6 C9 1_555 1_555
C10 C9 1_555 1_555
C11 C10 1_555 1_555
C12 C11 1_555 1_555
H7 C12 1_555 1_555
C13 C12 1_555 1_555
H8 C13 1_555 1_555
C14 C13 1_555 1_555
H9 C14 1_555 1_555
C15 C14 1_555 1_555
H10 C15 1_555 1_555
C16 C8 1_555 1_555
C17 C16 1_555 1_555
C18 C17 1_555 1_555
H11 C18 1_555 1_555
C19 C18 1_555 1_555
C20 C19 1_555 1_555
H12 C20 1_555 1_555
C21 C16 1_555 1_555
H13 C21 1_555 1_555
C22 H14 1_555 1_555
C23 C22 1_555 1_555
H15 C23 1_555 1_555
C24 C23 1_555 1_555
H16 C24 1_555 1_555
C25 C24 1_555 1_555
H17 C25 1_555 1_555
C26 C25 1_555 1_555
C27 C26 1_555 1_555
C28 C27 1_555 1_555
H18 C28 1_555 1_555
C29 C28 1_555 1_555
C30 C29 1_555 1_555
H19 C30 1_555 1_555
C31 C30 1_555 1_555
C32 C31 1_555 1_555
C33 C32 1_555 1_555
H20 C33 1_555 1_555
C34 C33 1_555 1_555
H21 C34 1_555 1_555
C35 C34 1_555 1_555
H22 C35 1_555 1_555
C36 C35 1_555 1_555
H23 C36 1_555 1_555
C37 C29 1_555 1_555
C38 C37 1_555 1_555
C39 C38 1_555 1_555
H24 C39 1_555 1_555
C40 C39 1_555 1_555
C41 C40 1_555 1_555
H25 C41 1_555 1_555
C42 C37 1_555 1_555
H26 C42 1_555 1_555
C43 H27 1_555 1_555
C44 C43 1_555 1_555
H28 C44 1_555 1_555
C45 C44 1_555 1_555
H29 C45 1_555 1_555
C46 C45 1_555 1_555
H30 C46 1_555 1_555
C47 C46 1_555 1_555
C48 C47 1_555 1_555
C49 C48 1_555 1_555
H31 C49 1_555 1_555
C50 C49 1_555 1_555
C51 C50 1_555 1_555
H32 C51 1_555 1_555
C52 C51 1_555 1_555
C53 C52 1_555 1_555
C54 C53 1_555 1_555
H33 C54 1_555 1_555
C55 C54 1_555 1_555
H34 C55 1_555 1_555
C56 C55 1_555 1_555
H35 C56 1_555 1_555
C57 C56 1_555 1_555
H36 C57 1_555 1_555
C58 C50 1_555 1_555
C59 C58 1_555 1_555
C60 C59 1_555 1_555
H37 C60 1_555 1_555
C61 C60 1_555 1_555
C62 C61 1_555 1_555
H38 C62 1_555 1_555
C63 C58 1_555 1_555
H39 C63 1_555 1_555
N1 C1 1_555 1_555
N2 Pb2 1_555 1_555
N3 Pb2 1_555 1_555
N4 C27 1_555 1_555
N5 Pb3 1_555 1_555
N6 Pb3 1_555 1_555
N7 C43 1_555 1_555
N8 C48 1_555 1_555
N9 C53 1_555 1_555
O1 S1 1_555 1_555
O2 S1 1_555 1_555
O3 Pb3 1_555 1_555
O4 S2 1_555 1_555
O5 S2 1_555 1_555
O6 S2 1_555 1_555
O7 Pb2 1_555 1_555
O8 S3 1_555 1_555
O9 S3 1_555 1_555
O10 S4 1_555 1_555
O11 S4 1_555 1_555
O12 S4 1_555 1_555
O13 S5 1_555 1_555
O14 S5 1_555 1_555
O15 S5 1_555 1_555
O16 S6 1_555 1_555
O17 Pb3 1_555 1_555
O18 S6 1_555 1_555
S1 C17 1_555 1_555
S2 C19 1_555 1_555
S3 C38 1_555 1_555
S4 C40 1_555 1_555
S5 C59 1_555 1_555
S6 C61 1_555 1_555
O19 Pb2 1_555 1_555
H40 O19 1_555 1_555
H41 O19 1_555 1_555
Pb1_2 O16 1_555 1_555
Pb1_3 N7 1_555 1_555
N7_2 Pb1 1_555 1_555
N8_2 Pb1 1_555 1_555
N9_2 Pb1 1_555 1_555
O10_2 Pb1 1_555 1_555
O16_2 Pb1 1_555 1_555
C5 N1 1_555 1_555
C6 N2 1_555 1_555
C10 N2 1_555 1_555
C11 N3 1_555 1_555
C15 N3 1_555 1_555
C20 C21 1_555 1_555
C22 N5 1_555 1_555
C26 N5 1_555 1_555
C31 N4 1_555 1_555
C32 N6 1_555 1_555
C36 N6 1_555 1_555
C41 C42 1_555 1_555
C47 N7 1_555 1_555
C52 N8 1_555 1_555
C57 N9 1_555 1_555
C62 C63 1_555 1_555
N8 Pb1_3 1_555 1_555
N9 Pb1_3 1_555 1_555
O3 S1 1_555 1_555
O7 S3 1_555 1_555
O10 Pb1_3 1_555 1_555
O17 S6 1_555 1_555

#END
