
#######################################################################
#
#                 Cambridge Crystallographic Data Centre
#                                CCDC 
#
#######################################################################
#
# If this CIF has been generated from an entry in the Cambridge 
# Structural Database, then it will include bibliographic, chemical, 
# crystal, experimental, refinement or atomic coordinate data resulting 
# from the CCDC's data processing and validation procedures.
#
#######################################################################

data_YIZYAJ
_symmetry_cell_setting           triclinic
_symmetry_space_group_name_H-M   'P -1'
_symmetry_Int_Tables_number      2
_space_group_name_Hall           '-P 1'
loop_
_symmetry_equiv_pos_site_id
_symmetry_equiv_pos_as_xyz
1 x,y,z
2 -x,-y,-z
_cell_length_a                   8.9535(11)
_cell_length_b                   11.4510(14)
_cell_length_c                   12.3912(15)
_cell_angle_alpha                69.024(2)
_cell_angle_beta                 81.056(2)
_cell_angle_gamma                79.498(2)
_cell_volume                     1160.72
loop_
_atom_site_label
_atom_site_type_symbol
_atom_site_fract_x
_atom_site_fract_y
_atom_site_fract_z
S1 S 0.9636(2) 1.1041(2) 1.73321(18)
S2 S 0.5103(2) 1.46591(19) 1.78798(17)
N1 N 1.2251(7) 1.2510(5) 1.2886(5)
C1 C 0.6531(8) 1.4156(7) 1.6914(6)
C2 C 0.7472(8) 1.3013(7) 1.7362(6)
H1 H 0.7319 1.2535 1.8144
C3 C 0.8863(8) 1.3309(7) 1.5464(6)
C4 C 1.2636(8) 1.2311(7) 1.3956(7)
O1 O 0.8724(7) 1.0511(5) 1.8438(5)
C5 C 1.1556(9) 1.2533(7) 1.4815(6)
H2 H 1.1851 1.2388 1.5544
C6 C 0.7870(9) 1.4428(7) 1.5044(6)
H3 H 0.7996 1.4912 1.4261
N2 N 1.5209(7) 1.1661(6) 1.3274(6)
C7 C 1.0773(9) 1.2916(7) 1.2666(6)
C8 C 0.8933(10) 1.3471(8) 1.1162(7)
H4 H 0.8131 1.3630 1.1687
O2 O 1.1118(7) 1.1253(6) 1.7496(5)
C9 C 0.6701(9) 1.4842(7) 1.5758(6)
H5 H 0.6042 1.5580 1.5450
N3 N 1.1591(8) 1.2890(7) 1.0734(6)
C10 C 1.4800(9) 1.1618(7) 1.5212(7)
H6 H 1.4134 1.1746 1.5827
C11 C 1.6688(9) 1.1225(7) 1.3421(8)
H7 H 1.7336 1.1083 1.2804
C12 C 0.8617(8) 1.2587(7) 1.6664(6)
O3 O 0.9700(7) 1.0367(5) 1.6546(5)
C13 C 0.9672(9) 1.3148(7) 1.3495(6)
H8 H 0.8668 1.3428 1.3317
C14 C 1.0420(9) 1.3107(7) 1.1479(7)
C15 C 1.4249(8) 1.1867(7) 1.4165(7)
O4 O 0.5873(7) 1.5317(6) 1.8402(5)
O5 O 0.4656(7) 1.3529(6) 1.8745(5)
O6 O 1.3901(9) 1.0408(7) 1.1568(7)
H9 H 1.3202 1.0520 1.1134
H10 H 1.3519 1.0126 1.2269
O7 O 0.3942(7) 1.5482(6) 1.7184(5)
C16 C 1.0041(9) 1.2968(7) 1.4608(6)
C17 C 1.7275(10) 1.0981(7) 1.4456(8)
H11 H 1.8305 1.0685 1.4533
C18 C 1.6324(10) 1.1181(8) 1.5371(8)
H12 H 1.6691 1.1027 1.6078
C19 C 0.8672(11) 1.3591(9) 1.0055(8)
H13 H 0.7686 1.3822 0.9830
C20 C 1.1283(13) 1.3004(11) 0.9661(8)
H14 H 1.2086 1.2822 0.9147
C21 C 0.9861(12) 1.3371(11) 0.9299(9)
H15 H 0.9707 1.3468 0.8544
Pb1 Pb 1.42982(4) 1.25231(3) 1.12675(3)
O4A O 1.4127(7) 1.4683(6) 1.1598(5)
O5_2 O 1.4656(7) 1.3529(6) 0.8745(5)
Pb1_2 Pb 0.42982(4) 1.25231(3) 2.12675(3)
Pb1A Pb 0.57018(4) 1.74769(3) 1.87325(3)
O8 O 0.7279(10) 2.0656(10) 1.0698(7)
H16 H 0.7779 2.0539 1.0096
H17 H 0.6370 2.0548 1.0718
O9 O 1.5839(15) 0.8343(14) 1.2126(14)
H18 H 1.6323 0.7629 1.2135
H19 H 1.6462 0.8765 1.2223
loop_
_geom_bond_atom_site_label_1
_geom_bond_atom_site_label_2
_geom_bond_site_symmetry_1
_geom_bond_site_symmetry_2
S1 O1 1_555 1_555
S2 C1 1_555 1_555
N1 C4 1_555 1_555
C1 C2 1_555 1_555
C2 H1 1_555 1_555
C3 C6 1_555 1_555
C4 C5 1_555 1_555
C5 H2 1_555 1_555
C6 H3 1_555 1_555
N2 C11 1_555 1_555
C7 N1 1_555 1_555
C8 H4 1_555 1_555
O2 S1 1_555 1_555
C9 C1 1_555 1_555
H5 C9 1_555 1_555
N3 C14 1_555 1_555
C10 H6 1_555 1_555
C11 H7 1_555 1_555
C12 S1 1_555 1_555
O3 S1 1_555 1_555
C13 C7 1_555 1_555
H8 C13 1_555 1_555
C14 C7 1_555 1_555
C15 C4 1_555 1_555
O4 S2 1_555 1_555
O5 S2 1_555 1_555
O6 H9 1_555 1_555
H10 O6 1_555 1_555
O7 S2 1_555 1_555
C16 C3 1_555 1_555
C17 C11 1_555 1_555
H11 C17 1_555 1_555
C18 C10 1_555 1_555
H12 C18 1_555 1_555
C19 C8 1_555 1_555
H13 C19 1_555 1_555
C20 N3 1_555 1_555
H14 C20 1_555 1_555
C21 C19 1_555 1_555
H15 C21 1_555 1_555
Pb1 N1 1_555 1_555
O8 H16 1_555 1_555
H17 O8 1_555 1_555
O9 H18 1_555 1_555
H19 O9 1_555 1_555
O4A Pb1 1_555 1_555
O5_2 Pb1 1_555 1_555
Pb1_2 O5 1_555 1_555
Pb1A O4 1_555 1_555
C2 C12 1_555 1_555
C3 C12 1_555 1_555
C5 C16 1_555 1_555
C6 C9 1_555 1_555
N2 C15 1_555 1_555
N2 Pb1 1_555 1_555
C8 C14 1_555 1_555
N3 Pb1 1_555 1_555
C10 C15 1_555 1_555
C13 C16 1_555 1_555
O6 Pb1 1_555 1_555
C17 C18 1_555 1_555
C20 C21 1_555 1_555

#END
