
#######################################################################
#
#                 Cambridge Crystallographic Data Centre
#                                CCDC 
#
#######################################################################
#
# If this CIF has been generated from an entry in the Cambridge 
# Structural Database, then it will include bibliographic, chemical, 
# crystal, experimental, refinement or atomic coordinate data resulting 
# from the CCDC's data processing and validation procedures.
#
#######################################################################

data_YOBMUZ
_symmetry_cell_setting           monoclinic
_symmetry_space_group_name_H-M   'C 2/c'
_symmetry_Int_Tables_number      15
_space_group_name_Hall           '-C 2yn'
loop_
_symmetry_equiv_pos_site_id
_symmetry_equiv_pos_as_xyz
1 x,y,z
2 -x,y,1/2-z
3 1/2+x,1/2+y,z
4 1/2-x,1/2+y,1/2-z
5 -x,-y,-z
6 x,-y,1/2+z
7 1/2-x,1/2-y,-z
8 1/2+x,1/2-y,1/2+z
_cell_length_a                   21.2605(14)
_cell_length_b                   17.6423(10)
_cell_length_c                   18.6323(10)
_cell_angle_alpha                90
_cell_angle_beta                 115.852(10)
_cell_angle_gamma                90
_cell_volume                     6289.28
loop_
_atom_site_label
_atom_site_type_symbol
_atom_site_fract_x
_atom_site_fract_y
_atom_site_fract_z
Zn1 Zn 0.0000 0.03817(7) 0.7500
Zn2 Zn 0.0000 -0.53044(7) 1.2500
F1 F 0.2123(5) -0.0373(7) 0.9435(6)
F2 F 0.1746(7) -0.0252(6) 1.0222(7)
F3 F 0.2394(5) 0.0476(6) 1.0318(8)
F4 F 0.2272(6) -0.5388(7) 1.1835(9)
F5 F 0.2100(6) -0.4537(8) 1.2552(6)
F6 F 0.1518(6) -0.4677(5) 1.1376(7)
O1 O 0.0874(3) -0.5234(3) 1.2235(3)
O2 O 0.1536(3) -0.6242(4) 1.2318(5)
O3 O 0.0855(3) 0.0281(3) 0.8645(4)
O4 O 0.1452(5) 0.1305(5) 0.9285(6)
N1 N -0.0499(3) -0.0493(3) 0.7903(4)
N2 N -0.0470(3) -0.4424(3) 1.1605(4)
N3 N -0.0499(3) -0.6158(3) 1.1596(3)
N4 N -0.0537(3) -0.8752(3) 0.7839(4)
C1 C -0.0513(4) -0.0418(4) 0.8615(5)
H1 H -0.0256 -0.0030 0.8953
C2 C -0.0893(4) -0.0894(5) 0.8861(5)
H2 H -0.0894 -0.0819 0.9354
C3 C -0.1270(4) -0.1481(4) 0.8380(5)
C4 C -0.1229(4) -0.1575(4) 0.7675(5)
H3 H -0.1455 -0.1982 0.7345
C5 C -0.0855(4) -0.1071(4) 0.7449(5)
H4 H -0.0851 -0.1137 0.6956
C6 C -0.1697(4) -0.1993(4) 0.8649(5)
H5 H -0.1986 -0.2320 0.8210
H6 H -0.2005 -0.1685 0.8789
C7 C -0.1246(4) -0.2480(4) 0.9360(4)
H7 H -0.0959 -0.2814 0.9212
H8 H -0.0937 -0.2157 0.9790
C8 C -0.1684(4) -0.2948(4) 0.9645(5)
H9 H -0.2000 -0.3261 0.9209
H10 H -0.1965 -0.2612 0.9799
C9 C -0.1251(3) -0.3451(4) 1.0344(5)
C10 C -0.0826(4) -0.4018(4) 1.0257(5)
H11 H -0.0800 -0.4084 0.9775
C11 C -0.0449(4) -0.4474(4) 1.0900(5)
H12 H -0.0161 -0.4841 1.0841
C12 C -0.0872(4) -0.3879(4) 1.1675(5)
H13 H -0.0896 -0.3833 1.2160
C13 C -0.1250(4) -0.3385(4) 1.1081(5)
H14 H -0.1507 -0.3004 1.1174
C14 C -0.0160(4) -0.6765(4) 1.1509(5)
H15 H 0.0315 -0.6819 1.1842
C15 C -0.0494(4) -0.7311(4) 1.0940(5)
H16 H -0.0242 -0.7728 1.0904
C16 C -0.1181(4) -0.7254(4) 1.0432(5)
C17 C -0.1522(3) -0.6615(4) 1.0531(4)
H17 H -0.1994 -0.6543 1.0196
C18 C -0.1180(4) -0.6106(4) 1.1102(4)
H18 H -0.1429 -0.5694 1.1157
C19 C -0.1564(4) -0.7859(5) 0.9813(5)
H19 H -0.1221 -0.8181 0.9749
H20 H -0.1829 -0.8174 1.0010
C20 C -0.2052(4) -0.7548(5) 0.9010(5)
H21 H -0.2366 -0.7188 0.9081
H22 H -0.2335 -0.7960 0.8683
C21 C -0.1231(4) -0.8806(4) 0.7587(5)
H23 H -0.1470 -0.9202 0.7249
C22 C -0.1602(4) -0.8297(4) 0.7812(5)
H24 H -0.2082 -0.8355 0.7626
C23 C -0.1270(4) -0.7708(4) 0.8304(5)
C24 C -0.0561(4) -0.7653(4) 0.8548(5)
H25 H -0.0314 -0.7252 0.8873
C25 C -0.0217(4) -0.8179(4) 0.8319(5)
H26 H 0.0265 -0.8135 0.8509
C26 C -0.1688(4) -0.7160(4) 0.8571(5)
H27 H -0.1374 -0.6777 0.8916
H28 H -0.2035 -0.6905 0.8106
C27 C 0.1380(4) -0.5582(5) 1.2230(5)
C28 C 0.1869(7) -0.5093(7) 1.2099(12)
C29 C 0.1330(6) 0.0595(6) 0.9180(7)
C30 C 0.1896(6) 0.0166(7) 0.9748(8)
F1A F -0.2123(5) -0.0373(7) 0.5565(6)
F2A F -0.1746(7) -0.0252(6) 0.4778(7)
F3A F -0.2394(5) 0.0476(6) 0.4682(8)
O3A O -0.0855(3) 0.0281(3) 0.6355(4)
O4A O -0.1452(5) 0.1305(5) 0.5715(6)
N1A N 0.0499(3) -0.0493(3) 0.7097(4)
N2A N 0.0470(3) -0.4424(3) 0.3395(4)
C1A C 0.0513(4) -0.0418(4) 0.6385(5)
H1A H 0.0256 -0.0030 0.6047
C2A C 0.0893(4) -0.0894(5) 0.6139(5)
H2A H 0.0894 -0.0819 0.5646
C3A C 0.1270(4) -0.1481(4) 0.6620(5)
C4A C 0.1229(4) -0.1575(4) 0.7325(5)
H3A H 0.1455 -0.1982 0.7655
C5A C 0.0855(4) -0.1071(4) 0.7551(5)
H4A H 0.0851 -0.1137 0.8044
C6A C 0.1697(4) -0.1993(4) 0.6351(5)
H5A H 0.1986 -0.2320 0.6790
H6A H 0.2005 -0.1685 0.6211
C7A C 0.1246(4) -0.2480(4) 0.5640(4)
H7A H 0.0959 -0.2814 0.5788
H8A H 0.0937 -0.2157 0.5210
C8A C 0.1684(4) -0.2948(4) 0.5355(5)
H9A H 0.2000 -0.3261 0.5791
H10A H 0.1965 -0.2612 0.5201
C9A C 0.1251(3) -0.3451(4) 0.4656(5)
C10A C 0.0826(4) -0.4018(4) 0.4743(5)
H11A H 0.0800 -0.4084 0.5225
C11A C 0.0449(4) -0.4474(4) 0.4100(5)
H12A H 0.0161 -0.4841 0.4159
C12A C 0.0872(4) -0.3879(4) 0.3325(5)
H13A H 0.0896 -0.3833 0.2840
C13A C 0.1250(4) -0.3385(4) 0.3919(5)
H14A H 0.1507 -0.3004 0.3826
C29A C -0.1330(6) 0.0595(6) 0.5820(7)
C30A C -0.1896(6) 0.0166(7) 0.5252(8)
N3A N 0.0499(3) 0.3842(3) 0.3404(3)
N4A N 0.0537(3) 0.1248(3) 0.7161(4)
C14A C 0.0160(4) 0.3235(4) 0.3491(5)
H15A H -0.0315 0.3181 0.3158
C15A C 0.0494(4) 0.2689(4) 0.4060(5)
H16A H 0.0242 0.2272 0.4096
C16A C 0.1181(4) 0.2746(4) 0.4568(5)
C17A C 0.1522(3) 0.3385(4) 0.4469(4)
H17A H 0.1994 0.3457 0.4804
C18A C 0.1180(4) 0.3894(4) 0.3898(4)
H18A H 0.1429 0.4306 0.3843
C19A C 0.1564(4) 0.2141(5) 0.5187(5)
H19A H 0.1221 0.1819 0.5251
H20A H 0.1829 0.1826 0.4990
C20A C 0.2052(4) 0.2452(5) 0.5990(5)
H21A H 0.2366 0.2812 0.5919
H22A H 0.2335 0.2040 0.6317
C21A C 0.1231(4) 0.1194(4) 0.7413(5)
H23A H 0.1470 0.0798 0.7751
C22A C 0.1602(4) 0.1703(4) 0.7188(5)
H24A H 0.2082 0.1645 0.7374
C23A C 0.1270(4) 0.2292(4) 0.6696(5)
C24A C 0.0561(4) 0.2347(4) 0.6452(5)
H25A H 0.0314 0.2748 0.6127
C25A C 0.0217(4) 0.1821(4) 0.6681(5)
H26A H -0.0265 0.1865 0.6491
C26A C 0.1688(4) 0.2840(4) 0.6429(5)
H27A H 0.1374 0.3223 0.6084
H28A H 0.2035 0.3095 0.6894
F4A F -0.2272(6) -0.5388(7) 1.3165(9)
F5A F -0.2100(6) -0.4537(8) 1.2448(6)
F6A F -0.1518(6) -0.4677(5) 1.3624(7)
O1A O -0.0874(3) -0.5234(3) 1.2765(3)
O2A O -0.1536(3) -0.6242(4) 1.2682(5)
C27A C -0.1380(4) -0.5582(5) 1.2770(5)
C28A C -0.1869(7) -0.5093(7) 1.2901(12)
Zn1_2 Zn 0.0000 -0.96183(7) 0.7500
Zn2_2 Zn 0.0000 -0.53044(7) 0.2500
Zn2_3 Zn 0.0000 0.46956(7) 0.2500
N2A_2 N 0.0470(3) -0.4424(3) 1.3395(4)
N3A_2 N 0.0499(3) -0.6158(3) 1.3404(3)
N4_2 N -0.0537(3) 0.1248(3) 0.7839(4)
loop_
_geom_bond_atom_site_label_1
_geom_bond_atom_site_label_2
_geom_bond_site_symmetry_1
_geom_bond_site_symmetry_2
Zn1 O3 1_555 1_555
Zn2 O1 1_555 1_555
F1 C30 1_555 1_555
F2 C30 1_555 1_555
F3 C30 1_555 1_555
F4 C28 1_555 1_555
F5 C28 1_555 1_555
F6 C28 1_555 1_555
O1 C27 1_555 1_555
O2 C27 1_555 1_555
O3 C29 1_555 1_555
O4 C29 1_555 1_555
N1 Zn1 1_555 1_555
N2 Zn2 1_555 1_555
N3 Zn2 1_555 1_555
N4 C21 1_555 1_555
C1 N1 1_555 1_555
H1 C1 1_555 1_555
C2 C1 1_555 1_555
H2 C2 1_555 1_555
C3 C2 1_555 1_555
C4 C3 1_555 1_555
H3 C4 1_555 1_555
C5 N1 1_555 1_555
H4 C5 1_555 1_555
C6 C3 1_555 1_555
H5 C6 1_555 1_555
H6 C6 1_555 1_555
C7 C6 1_555 1_555
H7 C7 1_555 1_555
H8 C7 1_555 1_555
C8 C7 1_555 1_555
H9 C8 1_555 1_555
H10 C8 1_555 1_555
C9 C8 1_555 1_555
C10 C9 1_555 1_555
H11 C10 1_555 1_555
C11 N2 1_555 1_555
H12 C11 1_555 1_555
C12 N2 1_555 1_555
H13 C12 1_555 1_555
C13 C9 1_555 1_555
H14 C13 1_555 1_555
C14 N3 1_555 1_555
H15 C14 1_555 1_555
C15 C14 1_555 1_555
H16 C15 1_555 1_555
C16 C15 1_555 1_555
C17 C16 1_555 1_555
H17 C17 1_555 1_555
C18 N3 1_555 1_555
H18 C18 1_555 1_555
C19 C16 1_555 1_555
H19 C19 1_555 1_555
H20 C19 1_555 1_555
C20 C19 1_555 1_555
H21 C20 1_555 1_555
H22 C20 1_555 1_555
C21 H23 1_555 1_555
C22 C21 1_555 1_555
H24 C22 1_555 1_555
C23 C22 1_555 1_555
C24 C23 1_555 1_555
H25 C24 1_555 1_555
C25 N4 1_555 1_555
H26 C25 1_555 1_555
C26 C20 1_555 1_555
H27 C26 1_555 1_555
H28 C26 1_555 1_555
C27 C28 1_555 1_555
C29 C30 1_555 1_555
F1A C30A 1_555 1_555
F2A C30A 1_555 1_555
F3A C30A 1_555 1_555
O3A Zn1 1_555 1_555
O4A C29A 1_555 1_555
N1A Zn1 1_555 1_555
N2A C11A 1_555 1_555
C1A N1A 1_555 1_555
H1A C1A 1_555 1_555
C2A C1A 1_555 1_555
H2A C2A 1_555 1_555
C3A C2A 1_555 1_555
C4A C3A 1_555 1_555
H3A C4A 1_555 1_555
C5A N1A 1_555 1_555
H4A C5A 1_555 1_555
C6A C3A 1_555 1_555
H5A C6A 1_555 1_555
H6A C6A 1_555 1_555
C7A C6A 1_555 1_555
H7A C7A 1_555 1_555
H8A C7A 1_555 1_555
C8A C7A 1_555 1_555
H9A C8A 1_555 1_555
H10A C8A 1_555 1_555
C9A C8A 1_555 1_555
C10A C9A 1_555 1_555
H11A C10A 1_555 1_555
C11A C10A 1_555 1_555
H12A C11A 1_555 1_555
C12A N2A 1_555 1_555
H13A C12A 1_555 1_555
C13A C9A 1_555 1_555
H14A C13A 1_555 1_555
C29A O3A 1_555 1_555
C30A C29A 1_555 1_555
N3A C14A 1_555 1_555
N4A Zn1 1_555 1_555
C14A H15A 1_555 1_555
C15A C14A 1_555 1_555
H16A C15A 1_555 1_555
C16A C15A 1_555 1_555
C17A C16A 1_555 1_555
H17A C17A 1_555 1_555
C18A N3A 1_555 1_555
H18A C18A 1_555 1_555
C19A C16A 1_555 1_555
H19A C19A 1_555 1_555
H20A C19A 1_555 1_555
C20A C19A 1_555 1_555
H21A C20A 1_555 1_555
H22A C20A 1_555 1_555
C21A N4A 1_555 1_555
H23A C21A 1_555 1_555
C22A C21A 1_555 1_555
H24A C22A 1_555 1_555
C23A C22A 1_555 1_555
C24A C23A 1_555 1_555
H25A C24A 1_555 1_555
C25A N4A 1_555 1_555
H26A C25A 1_555 1_555
C26A C20A 1_555 1_555
H27A C26A 1_555 1_555
H28A C26A 1_555 1_555
F4A C28A 1_555 1_555
F5A C28A 1_555 1_555
F6A C28A 1_555 1_555
O1A Zn2 1_555 1_555
O2A C27A 1_555 1_555
C27A O1A 1_555 1_555
C28A C27A 1_555 1_555
Zn1_2 N4 1_555 1_555
Zn2_2 N2A 1_555 1_555
Zn2_3 N3A 1_555 1_555
N2A_2 Zn2 1_555 1_555
N3A_2 Zn2 1_555 1_555
N4_2 Zn1 1_555 1_555
C4 C5 1_555 1_555
C10 C11 1_555 1_555
C12 C13 1_555 1_555
C17 C18 1_555 1_555
C23 C26 1_555 1_555
C24 C25 1_555 1_555
C4A C5A 1_555 1_555
C12A C13A 1_555 1_555
C17A C18A 1_555 1_555
C23A C26A 1_555 1_555
C24A C25A 1_555 1_555

#END
