
#######################################################################
#
#                 Cambridge Crystallographic Data Centre
#                                CCDC 
#
#######################################################################
#
# If this CIF has been generated from an entry in the Cambridge 
# Structural Database, then it will include bibliographic, chemical, 
# crystal, experimental, refinement or atomic coordinate data resulting 
# from the CCDC's data processing and validation procedures.
#
#######################################################################

data_YOBRIR
_symmetry_cell_setting           orthorhombic
_symmetry_space_group_name_H-M   'C 2 2 21'
_symmetry_Int_Tables_number      20
_space_group_name_Hall           'C 2n 2'
loop_
_symmetry_equiv_pos_site_id
_symmetry_equiv_pos_as_xyz
1 x,y,z
2 -x,-y,1/2+z
3 x,-y,-z
4 -x,y,1/2-z
5 1/2+x,1/2+y,z
6 1/2-x,1/2-y,1/2+z
7 1/2+x,1/2-y,-z
8 1/2-x,1/2+y,1/2-z
_cell_length_a                   15.9435(2)
_cell_length_b                   16.2883(2)
_cell_length_c                   14.6276(2)
_cell_angle_alpha                90
_cell_angle_beta                 90
_cell_angle_gamma                90
_cell_volume                     3798.68
loop_
_atom_site_label
_atom_site_type_symbol
_atom_site_fract_x
_atom_site_fract_y
_atom_site_fract_z
Ag1 Ag 0.92538(3) 0.59705(2) 0.59627(3)
Ag2 Ag 0.89453(3) 0.63246(3) 0.38350(3)
Cl1 Cl 1.03492(11) 0.50000 0.50000
S1 S 0.91916(7) 0.73597(7) 0.51237(8)
C1 C 1.0240(3) 0.7577(3) 0.4951(3)
N1 N 1.0539(3) 0.8337(3) 0.4867(4)
H1 H 1.0232 0.8771 0.4861
C2 C 1.1458(4) 0.8345(4) 0.4784(5)
H2 H 1.172 0.8547 0.5339
H3 H 1.1638 0.8678 0.4271
C3 C 1.1658(3) 0.7435(3) 0.4628(4)
H4 H 1.1801 0.7329 0.3994
H5 H 1.2115 0.7253 0.5016
N2 N 1.0863(2) 0.7030(2) 0.4881(3)
H6 H 1.0807 0.6512 0.4972
S2 S 0.80486(7) 0.49550(6) 0.61941(7)
C4 C 0.7824(2) 0.5026(2) 0.7353(3)
N3 N 0.7726(4) 0.4397(3) 0.7903(3)
H7 H 0.7772 0.3894 0.7732
C5 C 0.7530(4) 0.4647(3) 0.8836(3)
H8 H 0.7935 0.4427 0.9267
H9 H 0.6972 0.4472 0.9012
C6 C 0.7587(4) 0.5580(3) 0.8780(3)
H10 H 0.7077 0.5838 0.9
H11 H 0.8061 0.5786 0.9128
N4 N 0.7702(4) 0.5717(2) 0.7801(3)
H12 H 0.7691 0.6193 0.7547
S3 S 1.00000 0.63193(14) 0.75000
C7 C 1.00000 0.7377(5) 0.75000
N5 N 0.9365(3) 0.7842(3) 0.7749(4)
H13 H 0.8908 0.7659 0.7984
C8 C 0.9534(4) 0.8704(4) 0.7576(6)
H14 H 0.9381 0.9041 0.8097
H15 H 0.9236 0.8897 0.7039
S4 S 1.00000 0.66614(12) 0.25000
C9 C 1.00000 0.7716(4) 0.25000
N6 N 0.9342(3) 0.8186(3) 0.2692(4)
H16 H 0.8858 0.7997 0.2843
C10 C 0.9535(3) 0.9063(3) 0.2617(4)
H17 H 0.943 0.9345 0.319
H18 H 0.9207 0.9319 0.2137
Ag1B Ag 0.92538(3) 0.40295(2) 0.40373(3)
Ag1C Ag 1.07462(3) 0.59705(2) 0.90373(3)
Ag2B Ag 0.89453(3) 0.36754(3) 0.61650(3)
Ag2C Ag 1.10547(3) 0.63246(3) 0.11650(3)
S1B S 0.91916(7) 0.26403(7) 0.48763(8)
C1B C 1.0240(3) 0.2423(3) 0.5049(3)
N1B N 1.0539(3) 0.1663(3) 0.5133(4)
H1B H 1.0232 0.1229 0.5139
C2B C 1.1458(4) 0.1655(4) 0.5216(5)
H2B H 1.172 0.1453 0.4661
H3B H 1.1638 0.1322 0.5729
C3B C 1.1658(3) 0.2565(3) 0.5372(4)
H4B H 1.1801 0.2671 0.6006
H5B H 1.2115 0.2747 0.4984
N2B N 1.0863(2) 0.2970(2) 0.5119(3)
H6B H 1.0807 0.3488 0.5028
S2B S 0.80486(7) 0.50450(6) 0.38059(7)
C4B C 0.7824(2) 0.4974(2) 0.2647(3)
N3B N 0.7726(4) 0.5603(3) 0.2097(3)
H7B H 0.7772 0.6106 0.2268
C5B C 0.7530(4) 0.5353(3) 0.1164(3)
H8B H 0.7935 0.5573 0.0733
H9B H 0.6972 0.5528 0.0988
C6B C 0.7587(4) 0.4420(3) 0.1220(3)
H10B H 0.7077 0.4162 0.1
H11B H 0.8061 0.4214 0.0872
N4B N 0.7702(4) 0.4283(2) 0.2199(3)
H12B H 0.7691 0.3807 0.2453
S3A S 1.00000 0.36807(14) 0.25000
N5C N 1.0635(3) 0.7842(3) 0.7251(4)
H13C H 1.1092 0.7659 0.7016
C8C C 1.0466(4) 0.8704(4) 0.7424(6)
H14C H 1.0619 0.9041 0.6903
H15C H 1.0764 0.8897 0.7961
S4A S 1.00000 0.33386(12) 0.75000
N6C N 1.0658(3) 0.8186(3) 0.2308(4)
H16C H 1.1142 0.7997 0.2157
C10C C 1.0465(3) 0.9063(3) 0.2383(4)
H17C H 1.057 0.9345 0.181
H18C H 1.0793 0.9319 0.2863
Cl2 Cl 0.95344(13) 1.00000 0.50000
Cl3 Cl 0.74273(7) 0.76339(7) 0.79942(11)
loop_
_geom_bond_atom_site_label_1
_geom_bond_atom_site_label_2
_geom_bond_site_symmetry_1
_geom_bond_site_symmetry_2
Ag1 Cl1 1_555 1_555
Ag2 S1 1_555 1_555
Cl1 Ag1B 1_555 1_555
S1 Ag1 1_555 1_555
C1 S1 1_555 1_555
N1 C1 1_555 1_555
H1 N1 1_555 1_555
C2 N1 1_555 1_555
H2 C2 1_555 1_555
H3 C2 1_555 1_555
C3 C2 1_555 1_555
H4 C3 1_555 1_555
H5 C3 1_555 1_555
N2 C1 1_555 1_555
H6 N2 1_555 1_555
S2 Ag1 1_555 1_555
C4 S2 1_555 1_555
N3 C4 1_555 1_555
H7 N3 1_555 1_555
C5 N3 1_555 1_555
H8 C5 1_555 1_555
H9 C5 1_555 1_555
C6 C5 1_555 1_555
H10 C6 1_555 1_555
H11 C6 1_555 1_555
N4 C4 1_555 1_555
H12 N4 1_555 1_555
S3 Ag1 1_555 1_555
C7 S3 1_555 1_555
N5 C7 1_555 1_555
H13 N5 1_555 1_555
C8 N5 1_555 1_555
H14 C8 1_555 1_555
H15 C8 1_555 1_555
S4 Ag2 1_555 1_555
C9 S4 1_555 1_555
N6 C9 1_555 1_555
H16 N6 1_555 1_555
C10 N6 1_555 1_555
H17 C10 1_555 1_555
H18 C10 1_555 1_555
Ag1B S1B 1_555 1_555
Ag1C S3 1_555 1_555
Ag2B S2 1_555 1_555
Ag2C S4 1_555 1_555
S1B Ag2B 1_555 1_555
C1B S1B 1_555 1_555
N1B C1B 1_555 1_555
H1B N1B 1_555 1_555
C2B N1B 1_555 1_555
H2B C2B 1_555 1_555
H3B C2B 1_555 1_555
C3B C2B 1_555 1_555
H4B C3B 1_555 1_555
H5B C3B 1_555 1_555
N2B C1B 1_555 1_555
H6B N2B 1_555 1_555
S2B Ag2 1_555 1_555
C4B S2B 1_555 1_555
N3B C4B 1_555 1_555
H7B N3B 1_555 1_555
C5B N3B 1_555 1_555
H8B C5B 1_555 1_555
H9B C5B 1_555 1_555
C6B C5B 1_555 1_555
H10B C6B 1_555 1_555
H11B C6B 1_555 1_555
N4B C4B 1_555 1_555
H12B N4B 1_555 1_555
S3A Ag1B 1_555 1_555
N5C C7 1_555 1_555
H13C N5C 1_555 1_555
C8C C8 1_555 1_555
H14C C8C 1_555 1_555
H15C C8C 1_555 1_555
S4A Ag2B 1_555 1_555
N6C C9 1_555 1_555
H16C N6C 1_555 1_555
C10C C10 1_555 1_555
H17C C10C 1_555 1_555
H18C C10C 1_555 1_555
C3 N2 1_555 1_555
C6 N4 1_555 1_555
Ag1B S2B 1_555 1_555
C3B N2B 1_555 1_555
C6B N4B 1_555 1_555
N5C C8C 1_555 1_555
N6C C10C 1_555 1_555

#END
