
#######################################################################
#
#                 Cambridge Crystallographic Data Centre
#                                CCDC 
#
#######################################################################
#
# If this CIF has been generated from an entry in the Cambridge 
# Structural Database, then it will include bibliographic, chemical, 
# crystal, experimental, refinement or atomic coordinate data resulting 
# from the CCDC's data processing and validation procedures.
#
#######################################################################

data_YOBROW
_symmetry_cell_setting           monoclinic
_symmetry_space_group_name_H-M   'P 21/n'
_symmetry_Int_Tables_number      14
_space_group_name_Hall           '-P 2yn'
loop_
_symmetry_equiv_pos_site_id
_symmetry_equiv_pos_as_xyz
1 x,y,z
2 1/2-x,1/2+y,1/2-z
3 -x,-y,-z
4 1/2+x,1/2-y,1/2+z
_cell_length_a                   8.140
_cell_length_b                   15.953
_cell_length_c                   8.918
_cell_angle_alpha                90
_cell_angle_beta                 105.95
_cell_angle_gamma                90
_cell_volume                     1113.48
loop_
_atom_site_label
_atom_site_type_symbol
_atom_site_fract_x
_atom_site_fract_y
_atom_site_fract_z
Mn1 Mn 0.0000 0.5000 0.5000
B1 B 0.5722(5) 0.3643(2) 0.9657(6)
N1 N 0.3903(3) 0.4027(1) 0.8986(3)
N2 N 0.2546(4) 0.3812(2) 0.9550(4)
C1 C 0.1239(5) 0.4194(2) 0.8555(5)
N3 N 0.1628(3) 0.4620(1) 0.7394(3)
C2 C 0.3313(4) 0.4494(2) 0.7734(4)
N4 N 0.5551(3) 0.2690(1) 0.9182(3)
N5 N 0.5098(4) 0.2425(2) 0.7653(4)
C3 C 0.4895(5) 0.1607(2) 0.7769(5)
N6 N -0.0186(3) 0.6321(1) 0.5765(3)
C4 C 0.5589(4) 0.2022(2) 1.0071(4)
O1 O 0.2248(3) 0.5336(2) 0.4244(4)
H1 H 0.6613(42) 0.3982(19) 0.9039(43)
H2 H 0.6149(39) 0.3690(17) 1.0949(42)
H3 H 0.0094(50) 0.4165(21) 0.8530(50)
H4 H 0.3985(42) 0.4695(18) 0.7134(43)
H5 H 0.4647(45) 0.1254(20) 0.6827(48)
H6 H 0.5928(42) 0.2045(19) 1.1239(45)
H7 H 0.2736(10) 0.4961(27) 0.3777(60)
H8 H 0.2714(45) 0.5786(21) 0.4268(47)
N3B N -0.1628(3) 0.5380(1) 0.2606(3)
N6B N 0.0186(3) 0.3679(1) 0.4235(3)
O1B O -0.2248(3) 0.4664(2) 0.5756(4)
N6A N 0.5186(3) 0.1321(1) 0.9235(3)
C3A C 0.0105(5) 0.6607(2) 0.7231(5)
C4A C -0.0589(4) 0.7022(2) 0.4929(4)
H7B H -0.2736(10) 0.5039(27) 0.6223(60)
H8B H -0.2714(45) 0.4214(21) 0.5732(47)
Mn1A Mn 0.5000 0.0000 1.0000
N5A N -0.0098(4) 0.7425(2) 0.7347(4)
H5A H 0.0353(45) 0.6254(20) 0.8173(48)
N4A N -0.0551(3) 0.7690(1) 0.5818(3)
H6A H -0.0928(42) 0.7045(19) 0.3761(45)
B1A B -0.0722(5) 0.8643(2) 0.5343(6)
N1A N 0.1097(3) 0.9027(1) 0.6014(3)
H1A H -0.1613(42) 0.8982(19) 0.5961(43)
H2A H -0.1149(39) 0.8690(17) 0.4051(42)
N2A N 0.2454(4) 0.8812(2) 0.5450(4)
C2A C 0.1687(4) 0.9494(2) 0.7266(4)
C1A C 0.3761(5) 0.9194(2) 0.6445(5)
N3A N 0.3372(3) 0.9620(1) 0.7606(3)
H4A H 0.1015(42) 0.9695(18) 0.7866(43)
H3A H 0.4906(50) 0.9165(21) 0.6470(50)
Mn1A_2 Mn 0.5000 1.0000 1.0000
O2 O 0.3809(4) 0.4129(2) 0.3029(4)
H9 H 0.3322(63) 0.3953(29) 0.2022(62)
H10 H 0.4421(65) 0.3723(29) 0.3683(65)
O3 O 0.3834(5) 0.6938(2) 0.4846(4)
H11 H 0.3149(80) 0.7254(38) 0.4552(91)
H12 H 0.4263(67) 0.7122(31) 0.4006(64)
loop_
_geom_bond_atom_site_label_1
_geom_bond_atom_site_label_2
_geom_bond_site_symmetry_1
_geom_bond_site_symmetry_2
Mn1 N3 1_555 1_555
B1 N1 1_555 1_555
N1 N2 1_555 1_555
N2 C1 1_555 1_555
C1 N3 1_555 1_555
N3 C2 1_555 1_555
C2 N1 1_555 1_555
N4 B1 1_555 1_555
N5 N4 1_555 1_555
C3 N5 1_555 1_555
N6 Mn1 1_555 1_555
C4 N4 1_555 1_555
O1 Mn1 1_555 1_555
H1 B1 1_555 1_555
H2 B1 1_555 1_555
H3 C1 1_555 1_555
H4 C2 1_555 1_555
H5 C3 1_555 1_555
H6 C4 1_555 1_555
H7 O1 1_555 1_555
H8 O1 1_555 1_555
O2 H9 1_555 1_555
H10 O2 1_555 1_555
O3 H11 1_555 1_555
H12 O3 1_555 1_555
N3B Mn1 1_555 1_555
N6B Mn1 1_555 1_555
O1B Mn1 1_555 1_555
N6A C3 1_555 1_555
C3A N6 1_555 1_555
C4A N6 1_555 1_555
H7B O1B 1_555 1_555
H8B O1B 1_555 1_555
Mn1A N6A 1_555 1_555
N5A C3A 1_555 1_555
H5A C3A 1_555 1_555
N4A C4A 1_555 1_555
H6A C4A 1_555 1_555
B1A N4A 1_555 1_555
N1A B1A 1_555 1_555
H1A B1A 1_555 1_555
H2A B1A 1_555 1_555
N2A N1A 1_555 1_555
C2A N1A 1_555 1_555
C1A N2A 1_555 1_555
N3A C2A 1_555 1_555
H4A C2A 1_555 1_555
H3A C1A 1_555 1_555
Mn1A_2 N3A 1_555 1_555
C4 N6A 1_555 1_555
N5A N4A 1_555 1_555
C1A N3A 1_555 1_555

#END
