
#######################################################################
#
#                 Cambridge Crystallographic Data Centre
#                                CCDC 
#
#######################################################################
#
# If this CIF has been generated from an entry in the Cambridge 
# Structural Database, then it will include bibliographic, chemical, 
# crystal, experimental, refinement or atomic coordinate data resulting 
# from the CCDC's data processing and validation procedures.
#
#######################################################################

data_YOBRUC
_symmetry_cell_setting           orthorhombic
_symmetry_space_group_name_H-M   'P c c n'
_symmetry_Int_Tables_number      56
_space_group_name_Hall           '-P 2ab 2ac'
loop_
_symmetry_equiv_pos_site_id
_symmetry_equiv_pos_as_xyz
1 x,y,z
2 1/2-x,1/2-y,z
3 1/2+x,-y,1/2-z
4 -x,1/2+y,1/2-z
5 -x,-y,-z
6 1/2+x,1/2+y,-z
7 1/2-x,y,1/2+z
8 x,1/2-y,1/2+z
_cell_length_a                   9.483
_cell_length_b                   14.080
_cell_length_c                   17.688
_cell_angle_alpha                90
_cell_angle_beta                 90
_cell_angle_gamma                90
_cell_volume                     2361.71
loop_
_atom_site_label
_atom_site_type_symbol
_atom_site_fract_x
_atom_site_fract_y
_atom_site_fract_z
Cu1 Cu 0.2500 0.7500 0.3552(1)
B1 B 0.4083(15) 0.5330(9) 0.1045(8)
N1 N 0.3258(10) 0.5658(6) 0.1780(4)
N2 N 0.2194(9) 0.5155(5) 0.2118(4)
C1 C 0.1845(15) 0.5670(8) 0.2684(7)
N3 N 0.2551(12) 0.6490(15) 0.2747(4)
C2 C 0.3396(13) 0.6450(7) 0.2169(6)
N4 N 0.3257(11) 0.5671(6) 0.0342(4)
N5 N 0.2105(10) 0.5210(5) 0.0051(5)
C3 C 0.1738(13) 0.5716(7) -0.0525(6)
N6 N 0.2444(12) 0.6488(4) 0.4359(4)
C4 C 0.3454(12) 0.6430(7) -0.0075(6)
O1 O 0.5019(8) 0.7402(7) 0.3570(5)
H1 H 0.524(10) 0.5674(60) 0.1002(54)
H2 H 0.412(13) 0.4658(83) 0.1131(69)
H3 H 0.128(11) 0.5475(69) 0.3103(61)
H4 H 0.431(11) 0.6767(63) 0.1990(51)
H5 H 0.1038(90) 0.5461(53) -0.0881(44)
H6 H 0.428(14) 0.6737(88) -0.0003(66)
H7 H 0.563(13) 0.6945(75) 0.3798(61)
H8 H 0.564(10) 0.7798(67) 0.3311(60)
N3A N 0.2449(12) 0.8510(15) 0.2747(4)
N6A N 0.2556(12) 0.8512(4) 0.4359(4)
O1A O -0.0019(8) 0.7598(7) 0.3570(5)
N6F N 0.2556(12) 0.6488(4) -0.0641(4)
C3F C 0.3262(13) 0.5716(7) 0.4475(6)
C4F C 0.1546(12) 0.6430(7) 0.4925(6)
H7A H -0.063(13) 0.8055(75) 0.3798(61)
H8A H -0.064(10) 0.7202(67) 0.3311(60)
Cu1F Cu 0.2500 0.7500 -0.1448(1)
N5F N 0.2895(10) 0.5210(5) 0.5051(5)
H5F H 0.3962(90) 0.5461(53) 0.4119(44)
N4F N 0.1743(11) 0.5671(6) 0.5342(4)
H6F H 0.072(14) 0.6737(88) 0.4997(66)
B1F B 0.0917(15) 0.5330(9) 0.6045(8)
N1F N 0.1742(10) 0.5658(6) 0.6780(4)
H1F H -0.024(10) 0.5674(60) 0.6002(54)
H2F H 0.088(13) 0.4658(83) 0.6131(69)
N2F N 0.2806(9) 0.5155(5) 0.7118(4)
C2F C 0.1604(13) 0.6450(7) 0.7169(6)
C1F C 0.3155(15) 0.5670(8) 0.7684(7)
N3F N 0.2449(12) 0.6490(15) 0.7747(4)
H4F H 0.069(11) 0.6767(63) 0.6990(51)
H3F H 0.372(11) 0.5475(69) 0.8103(61)
Cu1F_2 Cu 0.2500 0.7500 0.8552(1)
O2 O 0.6496(10) 0.6808(6) 0.4866(5)
H9 H 0.600(13) 0.7086(77) 0.5242(63)
H10 H 0.683(10) 0.6302(55) 0.4837(58)
O3 O 0.6649(11) 0.8306(6) 0.2452(6)
H11 H 0.716(13) 0.8737(72) 0.2237(66)
H12 H 0.697(11) 0.7739(62) 0.2410(58)
O4 O 0.4958(10) 0.6595(7) 0.6194(6)
H13 H 0.502(12) 0.5970(57) 0.6353(61)
H14 H 0.546(12) 0.6629(76) 0.5709(51)
loop_
_geom_bond_atom_site_label_1
_geom_bond_atom_site_label_2
_geom_bond_site_symmetry_1
_geom_bond_site_symmetry_2
Cu1 N3 1_555 1_555
B1 N1 1_555 1_555
N1 N2 1_555 1_555
N2 C1 1_555 1_555
C1 N3 1_555 1_555
N3 C2 1_555 1_555
C2 N1 1_555 1_555
N4 B1 1_555 1_555
N5 N4 1_555 1_555
C3 N5 1_555 1_555
N6 Cu1 1_555 1_555
C4 N4 1_555 1_555
O1 Cu1 1_555 1_555
H1 B1 1_555 1_555
H2 B1 1_555 1_555
H3 C1 1_555 1_555
H4 C2 1_555 1_555
H5 C3 1_555 1_555
H6 C4 1_555 1_555
H7 O1 1_555 1_555
H8 O1 1_555 1_555
O2 H9 1_555 1_555
H10 O2 1_555 1_555
O3 H11 1_555 1_555
H12 O3 1_555 1_555
O4 H13 1_555 1_555
H14 O4 1_555 1_555
N3A Cu1 1_555 1_555
N6A Cu1 1_555 1_555
O1A Cu1 1_555 1_555
N6F C3 1_555 1_555
C3F N6 1_555 1_555
C4F N6 1_555 1_555
H7A O1A 1_555 1_555
H8A O1A 1_555 1_555
Cu1F N6F 1_555 1_555
N5F C3F 1_555 1_555
H5F C3F 1_555 1_555
N4F C4F 1_555 1_555
H6F C4F 1_555 1_555
B1F N4F 1_555 1_555
N1F B1F 1_555 1_555
H1F B1F 1_555 1_555
H2F B1F 1_555 1_555
N2F N1F 1_555 1_555
C2F N1F 1_555 1_555
C1F N2F 1_555 1_555
N3F C2F 1_555 1_555
H4F C2F 1_555 1_555
H3F C1F 1_555 1_555
Cu1F_2 N3F 1_555 1_555
C4 N6F 1_555 1_555
N5F N4F 1_555 1_555
C1F N3F 1_555 1_555

#END
