
#######################################################################
#
#                 Cambridge Crystallographic Data Centre
#                                CCDC 
#
#######################################################################
#
# If this CIF has been generated from an entry in the Cambridge 
# Structural Database, then it will include bibliographic, chemical, 
# crystal, experimental, refinement or atomic coordinate data resulting 
# from the CCDC's data processing and validation procedures.
#
#######################################################################

data_YOBWIW
_symmetry_cell_setting           monoclinic
_symmetry_space_group_name_H-M   'C 2/c'
_symmetry_Int_Tables_number      15
_space_group_name_Hall           '-C 2yn'
loop_
_symmetry_equiv_pos_site_id
_symmetry_equiv_pos_as_xyz
1 x,y,z
2 1/2+x,1/2+y,z
3 -x,y,1/2-z
4 1/2-x,1/2+y,1/2-z
5 -x,-y,-z
6 1/2-x,1/2-y,-z
7 x,-y,1/2+z
8 1/2+x,1/2-y,1/2+z
_cell_length_a                   18.2664(10)
_cell_length_b                   19.1141(11)
_cell_length_c                   11.0179(6)
_cell_angle_alpha                90
_cell_angle_beta                 119.647(3)
_cell_angle_gamma                90
_cell_volume                     3343.26
loop_
_atom_site_label
_atom_site_type_symbol
_atom_site_fract_x
_atom_site_fract_y
_atom_site_fract_z
Cu1 Cu 0.5000 -0.07866(9) 0.2500
Cu2 Cu 0.39878(8) 0.06521(7) -0.00732(12)
O1 O 0.3972(4) -0.0881(4) 0.0733(7)
N1 N 0.3570(5) -0.0314(4) 0.0061(8)
C1 C 0.2769(7) -0.0358(6) -0.0789(10)
C2 C 0.2335(7) -0.1008(7) -0.0898(11)
N2 N 0.2017(7) -0.1531(6) -0.0981(12)
C3 C 0.2314(7) 0.0276(6) -0.1606(10)
O2 O 0.1509(5) 0.0238(4) -0.2388(7)
N3 N 0.2795(6) 0.0810(5) -0.1397(9)
C4 C 0.2420(7) 0.1467(6) -0.2059(13)
H1 H 0.2152 0.1685 -0.1562
H2 H 0.1974 0.1377 -0.3033
C5 C 0.3050(9) 0.1967(7) -0.2067(15)
H3 H 0.2740 0.2383 -0.2618
H4 H 0.3312 0.1740 -0.2567
C6 C 0.3766(8) 0.2224(7) -0.0634(14)
H5 H 0.4099 0.2591 -0.0772
H6 H 0.3524 0.2424 -0.0080
N4 N 0.4314(6) 0.1617(5) 0.0115(10)
C7 C 0.5124(8) 0.1764(6) 0.1031(12)
O3 O 0.5501(5) 0.2322(4) 0.1393(8)
C8 C 0.5614(7) 0.1100(6) 0.1666(11)
C9 C 0.6509(8) 0.1130(6) 0.2652(11)
N5 N 0.7210(6) 0.1179(6) 0.3447(10)
N6 N 0.5184(6) 0.0512(5) 0.1316(8)
O4 O 0.5621(4) -0.0080(4) 0.1839(7)
O5 O 0.5000 -0.1810(6) 0.2500
Ba1 Ba 0.0000 0.02165(5) -0.2500
O6 O 0.1157(8) 0.0526(6) 0.0223(10)
H7 H 0.1262 0.0296 0.0952
H8 H 0.1321 0.0363 -0.0289
O7 O 0.0000 0.1599(6) -0.2500
H9 H 0.0155 0.1929 -0.2841
O8 O -0.0079(7) -0.0921(6) -0.4122(17)
H10 H -0.0354 -0.0541 -0.4372
H11 H 0.0372 -0.0977 -0.4102
Cu2B Cu 0.60122(8) 0.06521(7) 0.50732(12)
Cu2D Cu 0.60122(8) -0.06521(7) 0.00732(12)
Cu2F Cu 0.39878(8) -0.06521(7) 0.49268(12)
O1B O 0.6028(4) -0.0881(4) 0.4267(7)
N1B N 0.6430(5) -0.0314(4) 0.4939(8)
C1B C 0.7231(7) -0.0358(6) 0.5789(10)
C2B C 0.7665(7) -0.1008(7) 0.5898(11)
N2B N 0.7983(7) -0.1531(6) 0.5981(12)
C3B C 0.7686(7) 0.0276(6) 0.6606(10)
O2B O 0.8491(5) 0.0238(4) 0.7388(7)
O2B_2 O -0.1509(5) 0.0238(4) -0.2612(7)
N3B N 0.7205(6) 0.0810(5) 0.6397(9)
C4B C 0.7580(7) 0.1467(6) 0.7059(13)
H1B H 0.7848 0.1685 0.6562
H2B H 0.8026 0.1377 0.8033
C5B C 0.6950(9) 0.1967(7) 0.7067(15)
H3B H 0.7260 0.2383 0.7618
H4B H 0.6688 0.1740 0.7567
C6B C 0.6234(8) 0.2224(7) 0.5634(14)
H5B H 0.5901 0.2591 0.5772
H6B H 0.6476 0.2424 0.5080
N4B N 0.5686(6) 0.1617(5) 0.4885(10)
C7B C 0.4876(8) 0.1764(6) 0.3969(12)
O3B O 0.4499(5) 0.2322(4) 0.3607(8)
C8B C 0.4386(7) 0.1100(6) 0.3334(11)
C9B C 0.3491(8) 0.1130(6) 0.2348(11)
N5B N 0.2790(6) 0.1179(6) 0.1553(10)
N6B N 0.4816(6) 0.0512(5) 0.3684(8)
O4B O 0.4379(4) -0.0080(4) 0.3161(7)
O4D O 0.4379(4) 0.0080(4) -0.1839(7)
O4F O 0.5621(4) 0.0080(4) 0.6839(7)
Ba1_2 Ba 1.0000 0.02165(5) 0.7500
O6B O -0.1157(8) 0.0526(6) -0.5223(10)
H7B H -0.1262 0.0296 -0.5952
H8B H -0.1321 0.0363 -0.4711
H9B H -0.0155 0.1929 -0.2159
O8B O 0.0079(7) -0.0921(6) -0.0878(17)
H10B H 0.0354 -0.0541 -0.0628
H11B H -0.0372 -0.0977 -0.0898
O9 O -0.0823(6) -0.2233(5) -0.4419(8)
H12 H -0.0736 -0.1811 -0.4312
H13 H -0.0723 -0.2377 -0.5053
loop_
_geom_bond_atom_site_label_1
_geom_bond_atom_site_label_2
_geom_bond_site_symmetry_1
_geom_bond_site_symmetry_2
Cu1 O1 1_555 1_555
Cu2 N1 1_555 1_555
O1 N1 1_555 1_555
N1 C1 1_555 1_555
C1 C2 1_555 1_555
C2 N2 1_555 1_555
C3 C1 1_555 1_555
O2 C3 1_555 1_555
N3 Cu2 1_555 1_555
C4 N3 1_555 1_555
H1 C4 1_555 1_555
H2 C4 1_555 1_555
C5 C4 1_555 1_555
H3 C5 1_555 1_555
H4 C5 1_555 1_555
C6 C5 1_555 1_555
H5 C6 1_555 1_555
H6 C6 1_555 1_555
N4 Cu2 1_555 1_555
C7 N4 1_555 1_555
O3 C7 1_555 1_555
C8 C7 1_555 1_555
C9 C8 1_555 1_555
N5 C9 1_555 1_555
N6 Cu2 1_555 1_555
O4 Cu1 1_555 1_555
O5 Cu1 1_555 1_555
Ba1 O2 1_555 1_555
O6 Ba1 1_555 1_555
H7 O6 1_555 1_555
H8 O6 1_555 1_555
O7 Ba1 1_555 1_555
H9 O7 1_555 1_555
O8 Ba1 1_555 1_555
H10 O8 1_555 1_555
H11 O8 1_555 1_555
O9 H12 1_555 1_555
H13 O9 1_555 1_555
Cu2B N1B 1_555 1_555
Cu2D O4 1_555 1_555
Cu2F O4B 1_555 1_555
O1B Cu1 1_555 1_555
N1B O1B 1_555 1_555
C1B N1B 1_555 1_555
C2B C1B 1_555 1_555
N2B C2B 1_555 1_555
C3B C1B 1_555 1_555
O2B C3B 1_555 1_555
O2B_2 Ba1 1_555 1_555
N3B Cu2B 1_555 1_555
C4B N3B 1_555 1_555
H1B C4B 1_555 1_555
H2B C4B 1_555 1_555
C5B C4B 1_555 1_555
H3B C5B 1_555 1_555
H4B C5B 1_555 1_555
C6B C5B 1_555 1_555
H5B C6B 1_555 1_555
H6B C6B 1_555 1_555
N4B Cu2B 1_555 1_555
C7B N4B 1_555 1_555
O3B C7B 1_555 1_555
C8B C7B 1_555 1_555
C9B C8B 1_555 1_555
N5B C9B 1_555 1_555
N6B Cu2B 1_555 1_555
O4B Cu1 1_555 1_555
O4D Cu2 1_555 1_555
O4F Cu2B 1_555 1_555
Ba1_2 O2B 1_555 1_555
O6B Ba1 1_555 1_555
H7B O6B 1_555 1_555
H8B O6B 1_555 1_555
H9B O7 1_555 1_555
O8B Ba1 1_555 1_555
H10B O8B 1_555 1_555
H11B O8B 1_555 1_555
C3 N3 1_555 1_555
C6 N4 1_555 1_555
C8 N6 1_555 1_555
N6 O4 1_555 1_555
C3B N3B 1_555 1_555
C6B N4B 1_555 1_555
C8B N6B 1_555 1_555
N6B O4B 1_555 1_555

#END
