
#######################################################################
#
#                 Cambridge Crystallographic Data Centre
#                                CCDC 
#
#######################################################################
#
# If this CIF has been generated from an entry in the Cambridge 
# Structural Database, then it will include bibliographic, chemical, 
# crystal, experimental, refinement or atomic coordinate data resulting 
# from the CCDC's data processing and validation procedures.
#
#######################################################################

data_YOBWUJ
_symmetry_cell_setting           monoclinic
_symmetry_space_group_name_H-M   'P 21/n'
_symmetry_Int_Tables_number      14
_space_group_name_Hall           '-P 2yn'
loop_
_symmetry_equiv_pos_site_id
_symmetry_equiv_pos_as_xyz
1 x,y,z
2 1/2-x,1/2+y,1/2-z
3 -x,-y,-z
4 1/2+x,1/2-y,1/2+z
_cell_length_a                   11.362(2)
_cell_length_b                   22.440(5)
_cell_length_c                   14.232(3)
_cell_angle_alpha                90
_cell_angle_beta                 106.16(3)
_cell_angle_gamma                90
_cell_volume                     3485.26
loop_
_atom_site_label
_atom_site_type_symbol
_atom_site_fract_x
_atom_site_fract_y
_atom_site_fract_z
O1 O 1.1666(8) 0.8976(4) 0.0240(7)
O2 O 0.4482(8) 0.9238(4) -0.0660(7)
Gd1 Gd 0.71892(5) 1.02851(3) 0.04138(5)
Gd2 Gd 1.03811(5) 0.95862(3) 0.12242(5)
O3 O 0.8767(7) 0.9811(4) -0.0223(6)
O4 O 0.6600(8) 0.9648(4) 0.1657(6)
O5 O 0.5957(8) 1.0547(4) -0.1211(7)
O6 O 0.8427(7) 0.9457(4) 0.1513(6)
O7 O 0.6469(8) 0.9387(4) -0.0366(7)
O8 O 0.8209(8) 1.0818(5) 0.1843(7)
O9 O 1.2493(8) 0.9546(5) 0.2311(7)
O10 O 1.0009(9) 1.0502(4) 0.1774(7)
O11 O 1.0239(12) 0.8584(5) 0.0739(11)
C1 C 0.5548(13) 0.8663(7) -0.1569(13)
C2 C 0.5475(12) 0.9124(6) -0.0801(9)
C3 C 0.7565(14) 0.8739(7) 0.2399(13)
C4 C 0.9896(13) 1.1023(8) 0.3224(12)
O12 O 1.1035(10) 0.9279(7) 0.2910(8)
C5 C 0.9350(15) 1.0764(6) 0.2218(10)
C6 C 0.7544(11) 0.9309(6) 0.1840(9)
C7 C 1.2138(14) 0.9319(8) 0.3000(11)
C8 C 1.1118(15) 0.8527(6) 0.0414(12)
C9 C 0.9678(18) 1.0531(9) 0.3935(12)
H1 H 0.8839 1.0543 0.3951
H2 H 1.0206 1.0601 0.4580
H3 H 0.9854 1.0147 0.3710
C10 C 1.158(2) 0.7921(8) 0.029(2)
C11 C 1.1242(15) 1.1117(10) 0.3441(15)
H4 H 1.1631 1.0749 0.3359
H5 H 1.1561 1.1254 0.4102
H6 H 1.1403 1.1410 0.3000
C12 C 0.921(2) 1.1576(9) 0.3363(14)
H7 H 0.9330 1.1882 0.2927
H8 H 0.9513 1.1711 0.4026
H9 H 0.8353 1.1487 0.3224
C13 C 0.637(2) 0.8446(10) 0.215(2)
H10 H 0.6253 0.8231 0.1548
H11 H 0.5738 0.8740 0.2076
H12 H 0.6337 0.8174 0.2662
C14 C 1.130(4) 0.7489(13) 0.088(3)
H13 H 1.0449 0.7390 0.0644
H14 H 1.1477 0.7634 0.1538
H15 H 1.1787 0.7140 0.0866
C15 C 1.264(3) 0.7871(10) -0.005(2)
H16 H 1.3362 0.7876 0.0496
H17 H 1.2668 0.8200 -0.0475
H18 H 1.2608 0.7504 -0.0403
C16 C 0.683(2) 0.8485(14) -0.148(2)
H19 H 0.6849 0.8218 -0.2003
H20 H 0.7169 0.8290 -0.0864
H21 H 0.7309 0.8833 -0.1517
C17 C 1.4319(15) 0.9147(14) 0.3877(14)
H22 H 1.4877 0.9076 0.4510
H23 H 1.4459 0.9538 0.3655
H24 H 1.4446 0.8855 0.3423
C18 C 1.305(3) 0.9608(17) 0.4714(17)
H25 H 1.3343 0.9446 0.5362
H26 H 1.2227 0.9751 0.4614
H27 H 1.3569 0.9930 0.4636
C19 C 0.848(2) 0.8339(13) 0.229(3)
H28 H 0.9158 0.8560 0.2185
H29 H 0.8151 0.8082 0.1744
H30 H 0.8765 0.8104 0.2875
C20 C 0.793(4) 0.8891(14) 0.3448(18)
H31 H 0.8243 0.8541 0.3825
H32 H 0.7234 0.9038 0.3632
H33 H 0.8557 0.9191 0.3572
C21 C 1.262(2) 0.8570(14) 0.431(2)
H34 H 1.3078 0.8506 0.4980
H35 H 1.2714 0.8234 0.3924
H36 H 1.1766 0.8617 0.4277
C22 C 0.483(4) 0.8146(13) -0.149(3)
H37 H 0.4345 0.8231 -0.1051
H38 H 0.5371 0.7818 -0.1236
H39 H 0.4307 0.8045 -0.2120
C23 C 0.503(4) 0.8915(17) -0.2503(18)
H40 H 0.5462 0.8776 -0.2949
H41 H 0.5079 0.9342 -0.2458
H42 H 0.4181 0.8798 -0.2736
C24 C 1.3060(16) 0.9107(12) 0.3941(14)
C25 C 1.060(4) 0.770(2) -0.065(5)
H43 H 1.0474 0.8001 -0.1147
H44 H 0.9842 0.7625 -0.0495
H45 H 1.0880 0.7340 -0.0879
H46 H 0.879(11) 0.949(5) -0.047(8)
O1B O 0.8334(8) 1.1024(4) -0.0240(7)
O2B O 0.5518(8) 1.0762(4) 0.0660(7)
Gd1B Gd 0.28108(5) 0.97149(3) -0.04138(5)
Gd1B_2 Gd 1.28108(5) 0.97149(3) -0.04138(5)
Gd2B Gd 0.96189(5) 1.04138(3) -0.12242(5)
O3B O 1.1233(7) 1.0189(4) 0.0223(6)
loop_
_geom_bond_atom_site_label_1
_geom_bond_atom_site_label_2
_geom_bond_site_symmetry_1
_geom_bond_site_symmetry_2
O1 Gd2 1_555 1_555
O2 C2 1_555 1_555
Gd1 O3 1_555 1_555
Gd2 O3 1_555 1_555
O3 H46 1_555 1_555
O4 Gd1 1_555 1_555
O5 Gd1 1_555 1_555
O6 Gd1 1_555 1_555
O7 Gd1 1_555 1_555
O8 Gd1 1_555 1_555
O9 Gd2 1_555 1_555
O10 Gd2 1_555 1_555
O11 Gd2 1_555 1_555
C1 C2 1_555 1_555
C2 O7 1_555 1_555
C3 C6 1_555 1_555
C4 C5 1_555 1_555
O12 Gd2 1_555 1_555
C5 O8 1_555 1_555
C6 O4 1_555 1_555
C7 O9 1_555 1_555
C8 O1 1_555 1_555
C9 C4 1_555 1_555
H1 C9 1_555 1_555
H2 C9 1_555 1_555
H3 C9 1_555 1_555
C10 C8 1_555 1_555
C11 C4 1_555 1_555
H4 C11 1_555 1_555
H5 C11 1_555 1_555
H6 C11 1_555 1_555
C12 C4 1_555 1_555
H7 C12 1_555 1_555
H8 C12 1_555 1_555
H9 C12 1_555 1_555
C13 C3 1_555 1_555
H10 C13 1_555 1_555
H11 C13 1_555 1_555
H12 C13 1_555 1_555
C14 C10 1_555 1_555
H13 C14 1_555 1_555
H14 C14 1_555 1_555
H15 C14 1_555 1_555
C15 C10 1_555 1_555
H16 C15 1_555 1_555
H17 C15 1_555 1_555
H18 C15 1_555 1_555
C16 C1 1_555 1_555
H19 C16 1_555 1_555
H20 C16 1_555 1_555
H21 C16 1_555 1_555
C17 H22 1_555 1_555
H23 C17 1_555 1_555
H24 C17 1_555 1_555
C18 H25 1_555 1_555
H26 C18 1_555 1_555
H27 C18 1_555 1_555
C19 C3 1_555 1_555
H28 C19 1_555 1_555
H29 C19 1_555 1_555
H30 C19 1_555 1_555
C20 C3 1_555 1_555
H31 C20 1_555 1_555
H32 C20 1_555 1_555
H33 C20 1_555 1_555
C21 H34 1_555 1_555
H35 C21 1_555 1_555
H36 C21 1_555 1_555
C22 C1 1_555 1_555
H37 C22 1_555 1_555
H38 C22 1_555 1_555
H39 C22 1_555 1_555
C23 C1 1_555 1_555
H40 C23 1_555 1_555
H41 C23 1_555 1_555
H42 C23 1_555 1_555
C24 C7 1_555 1_555
C25 C10 1_555 1_555
H43 C25 1_555 1_555
H44 C25 1_555 1_555
H45 C25 1_555 1_555
O1B Gd1 1_555 1_555
O2B Gd1 1_555 1_555
Gd1B O2 1_555 1_555
Gd1B_2 O1 1_555 1_555
Gd2B O3 1_555 1_555
O3B Gd2 1_555 1_555
Gd2 O6 1_555 1_555
O6 C6 1_555 1_555
O10 C5 1_555 1_555
O11 C8 1_555 1_555
O12 C7 1_555 1_555
C17 C24 1_555 1_555
C18 C24 1_555 1_555
C21 C24 1_555 1_555
O1B Gd2B 1_555 1_555
Gd1B_2 O3B 1_555 1_555
Gd2B O3B 1_555 1_555

#END
