
#######################################################################
#
#                 Cambridge Crystallographic Data Centre
#                                CCDC 
#
#######################################################################
#
# If this CIF has been generated from an entry in the Cambridge 
# Structural Database, then it will include bibliographic, chemical, 
# crystal, experimental, refinement or atomic coordinate data resulting 
# from the CCDC's data processing and validation procedures.
#
#######################################################################

data_YOBXEU
_symmetry_cell_setting           triclinic
_symmetry_space_group_name_H-M   'P -1'
_symmetry_Int_Tables_number      2
_space_group_name_Hall           '-P 1'
loop_
_symmetry_equiv_pos_site_id
_symmetry_equiv_pos_as_xyz
1 x,y,z
2 -x,-y,-z
_cell_length_a                   11.846(2)
_cell_length_b                   15.519(3)
_cell_length_c                   15.909(3)
_cell_angle_alpha                66.90(3)
_cell_angle_beta                 68.52(3)
_cell_angle_gamma                80.72(3)
_cell_volume                     2502.81
loop_
_atom_site_label
_atom_site_type_symbol
_atom_site_fract_x
_atom_site_fract_y
_atom_site_fract_z
O1 O 0.4482(9) 1.1355(8) 0.8398(8)
O2 O -0.1003(11) 0.7568(9) 0.9906(10)
O3 O 0.0432(10) 1.1094(9) 0.8247(9)
Gd1 Gd 0.39683(7) 0.89572(5) 1.09550(6)
Gd2 Gd 0.25112(7) 1.12570(6) 1.00037(6)
Gd3 Gd 0.10930(7) 0.89904(5) 1.02610(6)
O4 O 0.3802(11) 1.2688(9) 0.9363(9)
O5 O 0.3358(11) 0.7415(9) 1.2238(9)
O6 O 0.1664(10) 0.9848(8) 0.8539(8)
C1 C 0.2385(14) 0.7400(12) 1.2116(13)
C2 C 0.1375(14) 1.0621(13) 0.7992(14)
C3 C 0.4736(15) 1.2834(12) 0.9458(13)
C4 C 0.0753(16) 0.9632(12) 1.3245(13)
O7 O 0.2758(11) 0.9204(10) 1.2458(9)
O8 O 0.2716(10) 1.2028(9) 0.8309(9)
C5 C -0.0319(16) 0.7133(15) 1.0394(15)
O9 O 0.2324(13) 1.1758(10) 1.1372(10)
C6 C 0.1627(16) 0.6543(12) 1.2712(13)
C7 C 0.1795(17) 0.9630(13) 1.2363(13)
C8 C 0.043(2) 0.6591(15) 1.2799(16)
H1 H 0.0087 0.7153 1.2485
C9 C 0.2189(15) 1.0972(12) 0.6971(12)
C10 C 0.4437(17) 1.4561(13) 0.8633(13)
H2 H 0.3817 1.4425 0.8480
C11 C -0.0374(16) 0.6077(14) 1.0801(15)
C12 C 0.4717(18) 1.5484(13) 0.8367(13)
H3 H 0.4295 1.5974 0.8035
O10 O 0.0392(11) 0.7526(9) 1.0566(11)
C13 C 0.0650(18) 0.8894(14) 1.4131(13)
H4 H 0.1256 0.8433 1.4171
O11 O 0.1654(12) 1.0047(10) 1.1546(9)
C14 C 0.5623(18) 1.5649(14) 0.8605(14)
C15 C 0.371(2) 1.1655(17) 0.5114(15)
C16 C 0.2136(18) 0.5724(14) 1.3187(16)
H5 H 0.2944 0.5708 1.3142
C17 C -0.1144(18) 1.0273(15) 1.4006(16)
H6 H -0.1750 1.0736 1.3979
C18 C 0.3288(18) 1.0535(17) 0.6668(15)
H7 H 0.3510 0.9995 0.7109
C19 C 0.045(2) 0.5565(15) 1.1231(17)
H8 H 0.1065 0.5861 1.1245
C20 C -0.028(2) 0.5807(16) 1.3355(16)
H9 H -0.1091 0.5832 1.3410
C21 C 0.6327(18) 1.4971(13) 0.9021(15)
H10 H 0.6990 1.5118 0.9118
O12 O -0.138(3) 0.2794(16) 1.188(2)
C22 C 0.5073(16) 1.3842(12) 0.9125(13)
C23 C 0.025(2) 0.4975(15) 1.3834(16)
N1 N -0.2287(18) 0.950(2) 1.5731(17)
C24 C 0.1854(19) 1.1768(13) 0.6295(13)
H11 H 0.1114 1.2072 0.6482
C25 C -0.0169(17) 1.0303(14) 1.3183(15)
H12 H -0.0133 1.0772 1.2589
O13 O -0.2990(17) 1.0154(19) 1.5686(16)
C26 C 0.036(3) 0.4581(16) 1.1655(17)
H13 H 0.0890 0.4217 1.1972
C27 C -0.0341(19) 0.8846(15) 1.4944(14)
H14 H -0.0423 0.8351 1.5530
O14 O 0.004(2) 0.3401(15) 1.4786(19)
C28 C 0.425(4) 1.380(2) 0.547(2)
H15 H 0.3832 1.4329 0.5187
N2 N -0.063(3) 0.3159(17) 1.202(3)
O15 O 0.509(2) 1.7230(11) 0.8292(13)
N3 N -0.048(3) 0.4116(16) 1.4406(17)
O16 O -0.238(2) 0.8791(19) 1.6441(16)
C29 C -0.054(2) 0.4175(15) 1.1589(18)
C30 C 0.6034(16) 1.4055(13) 0.9299(13)
H16 H 0.6489 1.3573 0.9606
C31 C 0.263(2) 1.2103(15) 0.5345(15)
H17 H 0.2414 1.2622 0.4881
C32 C -0.1200(18) 0.9551(18) 1.4863(15)
N4 N 0.587(2) 1.6630(13) 0.8364(14)
O17 O 0.690(2) 1.6793(13) 0.829(2)
C33 C 0.376(3) 1.3267(16) 0.6418(17)
H18 H 0.2993 1.3416 0.6777
C34 C -0.1249(19) 0.5673(15) 1.0720(17)
H19 H -0.1778 0.6043 1.0403
O18 O 0.4222(9) 1.0580(8) 1.0465(7)
O19 O 0.2954(10) 0.9729(8) 0.9831(9)
O20 O 0.2752(12) 0.8125(10) 0.9384(10)
C35 C 0.3850(17) 1.1921(12) 0.7911(13)
C36 C 0.4408(16) 1.2493(14) 0.6864(12)
C37 C 0.4063(19) 1.0880(19) 0.5729(15)
H20 H 0.4806 1.0585 0.5528
C38 C 0.145(2) 0.4920(16) 1.3734(19)
H21 H 0.1807 0.4355 1.4027
C39 C 0.553(2) 1.226(2) 0.6328(16)
H22 H 0.5959 1.1742 0.6611
C40 C -0.135(2) 0.4683(15) 1.112(2)
H23 H -0.1935 0.4388 1.1079
O21 O -0.154(2) 0.4190(19) 1.451(2)
O22 O 0.007(3) 0.2698(16) 1.242(2)
C41 C 0.536(4) 1.356(3) 0.4922(19)
C42 C 0.601(3) 1.281(3) 0.5357(18)
H24 H 0.6782 1.2676 0.4994
O23 O 0.438(3) 1.2850(17) 0.3623(13)
N5 N 0.454(3) 1.205(2) 0.4101(16)
O24 O 0.537(3) 1.156(2) 0.3802(18)
O25 O 0.519(5) 1.484(3) 0.359(2)
N6 N 0.589(6) 1.414(4) 0.391(2)
O26 O 0.0692(9) 1.0590(6) 1.0163(7)
O27 O 0.5461(10) 1.2225(8) 0.9764(9)
O28 O 0.2056(11) 0.8085(8) 1.1474(9)
O29 O 0.678(4) 1.392(5) 0.344(2)
O1A O 0.5518(9) 0.8645(8) 1.1602(8)
O2A O 0.1003(11) 1.2432(9) 1.0094(10)
O3A O -0.0432(10) 0.8906(9) 1.1753(9)
Gd1A Gd 0.60317(7) 1.10428(5) 0.90450(6)
Gd2A Gd -0.25112(7) 0.87430(6) 0.99963(6)
Gd3A Gd -0.10930(7) 1.10096(5) 0.97390(6)
O18A O 0.5778(9) 0.9420(8) 0.9535(7)
O26A O -0.0692(9) 0.9410(6) 0.9837(7)
O27A O 0.4539(10) 0.7775(8) 1.0236(9)
O30 O 0.4711(15) 0.0755(11) 0.2023(11)
loop_
_geom_bond_atom_site_label_1
_geom_bond_atom_site_label_2
_geom_bond_site_symmetry_1
_geom_bond_site_symmetry_2
O1 Gd2 1_555 1_555
O2 C5 1_555 1_555
O3 C2 1_555 1_555
Gd1 O5 1_555 1_555
Gd2 O4 1_555 1_555
Gd3 O6 1_555 1_555
O4 C3 1_555 1_555
O5 C1 1_555 1_555
O6 C2 1_555 1_555
C1 C6 1_555 1_555
C2 C9 1_555 1_555
C3 C22 1_555 1_555
C4 C7 1_555 1_555
O7 Gd1 1_555 1_555
O8 Gd2 1_555 1_555
C5 C11 1_555 1_555
O9 Gd2 1_555 1_555
C6 C8 1_555 1_555
C7 O7 1_555 1_555
C8 H1 1_555 1_555
C9 C18 1_555 1_555
C10 H2 1_555 1_555
C11 C19 1_555 1_555
C12 C10 1_555 1_555
H3 C12 1_555 1_555
O10 Gd3 1_555 1_555
C13 C4 1_555 1_555
H4 C13 1_555 1_555
O11 Gd2 1_555 1_555
C14 C12 1_555 1_555
C15 C31 1_555 1_555
C16 C6 1_555 1_555
H5 C16 1_555 1_555
C17 H6 1_555 1_555
C18 H7 1_555 1_555
C19 H8 1_555 1_555
C20 C8 1_555 1_555
H9 C20 1_555 1_555
C21 C14 1_555 1_555
H10 C21 1_555 1_555
O12 N2 1_555 1_555
C22 C10 1_555 1_555
C23 C20 1_555 1_555
N1 O13 1_555 1_555
C24 C9 1_555 1_555
H11 C24 1_555 1_555
C25 C4 1_555 1_555
H12 C25 1_555 1_555
C26 C19 1_555 1_555
H13 C26 1_555 1_555
C27 C13 1_555 1_555
H14 C27 1_555 1_555
O14 N3 1_555 1_555
C28 H15 1_555 1_555
N2 C29 1_555 1_555
O15 N4 1_555 1_555
N3 C23 1_555 1_555
O16 N1 1_555 1_555
C29 C26 1_555 1_555
C30 C21 1_555 1_555
H16 C30 1_555 1_555
C31 C24 1_555 1_555
H17 C31 1_555 1_555
C32 C17 1_555 1_555
N4 C14 1_555 1_555
O17 N4 1_555 1_555
C33 C28 1_555 1_555
H18 C33 1_555 1_555
C34 C11 1_555 1_555
H19 C34 1_555 1_555
O18 Gd1 1_555 1_555
O19 Gd1 1_555 1_555
O20 Gd3 1_555 1_555
C35 O1 1_555 1_555
C36 C33 1_555 1_555
C37 C15 1_555 1_555
H20 C37 1_555 1_555
C38 C16 1_555 1_555
H21 C38 1_555 1_555
C39 C36 1_555 1_555
H22 C39 1_555 1_555
C40 C29 1_555 1_555
H23 C40 1_555 1_555
O21 N3 1_555 1_555
O22 N2 1_555 1_555
C41 C28 1_555 1_555
C42 C39 1_555 1_555
H24 C42 1_555 1_555
O23 N5 1_555 1_555
N5 C15 1_555 1_555
O24 N5 1_555 1_555
O25 N6 1_555 1_555
N6 C41 1_555 1_555
O26 Gd2 1_555 1_555
O27 C3 1_555 1_555
O28 Gd1 1_555 1_555
O29 N6 1_555 1_555
O1A Gd1 1_555 1_555
O2A Gd2 1_555 1_555
O3A Gd3 1_555 1_555
Gd1A O1 1_555 1_555
Gd2A O2 1_555 1_555
Gd3A O3 1_555 1_555
O18A Gd1 1_555 1_555
O26A Gd3 1_555 1_555
O27A Gd1 1_555 1_555
Gd2 O18 1_555 1_555
Gd2 O19 1_555 1_555
Gd3 O19 1_555 1_555
Gd3 O26 1_555 1_555
Gd3 O28 1_555 1_555
C1 O28 1_555 1_555
O8 C35 1_555 1_555
C5 O10 1_555 1_555
C7 O11 1_555 1_555
C17 C25 1_555 1_555
C18 C37 1_555 1_555
C22 C30 1_555 1_555
C23 C38 1_555 1_555
N1 C32 1_555 1_555
C27 C32 1_555 1_555
C34 C40 1_555 1_555
O18 Gd1A 1_555 1_555
C35 C36 1_555 1_555
C41 C42 1_555 1_555
O26 Gd3A 1_555 1_555
O27 Gd1A 1_555 1_555
Gd1A O18A 1_555 1_555
Gd2A O26A 1_555 1_555
Gd3A O26A 1_555 1_555

#END
