
#######################################################################
#
#                 Cambridge Crystallographic Data Centre
#                                CCDC 
#
#######################################################################
#
# If this CIF has been generated from an entry in the Cambridge 
# Structural Database, then it will include bibliographic, chemical, 
# crystal, experimental, refinement or atomic coordinate data resulting 
# from the CCDC's data processing and validation procedures.
#
#######################################################################

data_YOBZAR
_symmetry_cell_setting           tetragonal
_symmetry_space_group_name_H-M   'I 4/m c m'
_symmetry_Int_Tables_number      140
_space_group_name_Hall           '-I 4 2c'
loop_
_symmetry_equiv_pos_site_id
_symmetry_equiv_pos_as_xyz
1 x,y,z
2 -y,x,z
3 y,-x,z
4 y,x,1/2-z
5 1/2+x,1/2+y,1/2+z
6 1/2-y,1/2+x,1/2+z
7 1/2+y,1/2-x,1/2+z
8 1/2+y,1/2+x,-z
9 -x,-y,z
10 x,-y,1/2-z
11 -x,y,1/2-z
12 -y,-x,1/2-z
13 1/2-x,1/2-y,1/2+z
14 1/2+x,1/2-y,-z
15 1/2-x,1/2+y,-z
16 1/2-y,1/2-x,-z
17 -x,-y,-z
18 y,-x,-z
19 -y,x,-z
20 -y,-x,1/2+z
21 1/2-x,1/2-y,1/2-z
22 1/2+y,1/2-x,1/2-z
23 1/2-y,1/2+x,1/2-z
24 1/2-y,1/2-x,z
25 x,y,-z
26 -x,y,1/2+z
27 x,-y,1/2+z
28 y,x,1/2+z
29 1/2+x,1/2+y,1/2-z
30 1/2-x,1/2+y,z
31 1/2+x,1/2-y,z
32 1/2+y,1/2+x,z
_cell_length_a                   14.796(2)
_cell_length_b                   14.796(2)
_cell_length_c                   17.399(4)
_cell_angle_alpha                90
_cell_angle_beta                 90
_cell_angle_gamma                90
_cell_volume                     3809.02
loop_
_atom_site_label
_atom_site_type_symbol
_atom_site_fract_x
_atom_site_fract_y
_atom_site_fract_z
Fe1 Fe 0.5000 0.0000 0.0000
N1 N 0.4268(4) 0.0732(4) 0.0889(5)
C1 C 0.2821(5) 0.2179(5) 0.2669(8)
C2 C 0.3348(5) 0.1652(5) 0.2074(6)
C3 C 0.3549(11) 0.0484(8) 0.1186(9)
H1 H 0.3302 -0.0067 0.1000
C4 C 0.3054(13) 0.0925(9) 0.1769(11)
H2 H 0.2495 0.0678 0.1936
N2 N 0.4003(8) -0.0997(8) 0.0000
S1 S 0.2679(4) -0.2321(4) 0.0000
C5 C 0.3449(9) -0.1551(9) 0.0000
O1 O 0.3388(10) 0.2575(12) 0.3149(7)
H3 H 0.3577 0.2194 0.3469
Fe1C Fe 0.0000 0.5000 0.5000
Fe1C_2 Fe 1.0000 -0.5000 -0.5000
N1C N 0.0732(4) 0.4268(4) 0.4111(5)
N1G N 0.5732(4) -0.0732(4) -0.0889(5)
N1D N 0.9268(4) -0.4268(4) -0.4111(5)
N1X N 0.4268(4) 0.0732(4) -0.0889(5)
N1EA N 0.5732(4) -0.0732(4) 0.0889(5)
C1C C 0.2179(5) 0.2821(5) 0.2331(8)
C1G C 0.7179(5) -0.2179(5) -0.2669(8)
C1D C 0.7821(5) -0.2821(5) -0.2331(8)
C2C C 0.1652(5) 0.3348(5) 0.2926(6)
C2G C 0.6652(5) -0.1652(5) -0.2074(6)
C2D C 0.8348(5) -0.3348(5) -0.2926(6)
C3C C 0.0484(8) 0.3549(11) 0.3814(9)
C3T C 0.1451(11) 0.4516(8) 0.3814(9)
C3W C 0.4516(8) 0.1451(11) 0.1186(9)
C3G C 0.5484(8) -0.1451(11) -0.1186(9)
C3D C 0.8549(11) -0.4516(8) -0.3814(9)
C3S C 0.9516(8) -0.3549(11) -0.3814(9)
C3P C 0.6451(11) -0.0484(8) -0.1186(9)
H1T H 0.1698 0.5067 0.4000
H1C H -0.0067 0.3302 0.4000
H1W H 0.5067 0.1698 0.1000
H1G H 0.4933 -0.1698 -0.1000
H1S H 1.0067 -0.3302 -0.4000
H1D H 0.8302 -0.5067 -0.4000
H1P H 0.6698 0.0067 -0.1000
C4C C 0.0925(9) 0.3054(13) 0.3231(11)
C4T C 0.1946(13) 0.4075(9) 0.3231(11)
C4W C 0.4075(9) 0.1946(13) 0.1769(11)
C4G C 0.5925(9) -0.1946(13) -0.1769(11)
C4D C 0.8054(13) -0.4075(9) -0.3231(11)
C4S C 0.9075(9) -0.3054(13) -0.3231(11)
C4P C 0.6946(13) -0.0925(9) -0.1769(11)
H2T H 0.2505 0.4322 0.3064
H2C H 0.0678 0.2495 0.3064
H2W H 0.4322 0.2505 0.1936
H2G H 0.5678 -0.2505 -0.1936
H2S H 0.9322 -0.2495 -0.3064
H2D H 0.7495 -0.4322 -0.3064
H2P H 0.7505 -0.0678 -0.1936
N2P N 0.5997(8) 0.0997(8) 0.0000
S1P S 0.7321(4) 0.2321(4) 0.0000
C5P C 0.6551(9) 0.1551(9) 0.0000
O1C O 0.2575(12) 0.3388(10) 0.1851(7)
O1T O 0.1612(10) 0.2425(12) 0.1851(7)
O1W O 0.2425(12) 0.1612(10) 0.3149(7)
O1G O 0.7575(12) -0.1612(10) -0.3149(7)
O1D O 0.8388(10) -0.2425(12) -0.1851(7)
O1S O 0.7425(12) -0.3388(10) -0.1851(7)
O1P O 0.6612(10) -0.2575(12) -0.3149(7)
H3C H 0.2194 0.3577 0.1531
H3T H 0.1423 0.2806 0.1531
H3W H 0.2806 0.1423 0.3469
H3G H 0.7194 -0.1423 -0.3469
H3D H 0.8577 -0.2806 -0.1531
H3S H 0.7806 -0.3577 -0.1531
H3P H 0.6423 -0.2194 -0.3469
loop_
_geom_bond_atom_site_label_1
_geom_bond_atom_site_label_2
_geom_bond_site_symmetry_1
_geom_bond_site_symmetry_2
Fe1 N1 1_555 1_555
N1 C3 1_555 1_555
C1 C2 1_555 1_555
C2 C4 1_555 1_555
C3 H1 1_555 1_555
C4 C3 1_555 1_555
H2 C4 1_555 1_555
N2 Fe1 1_555 1_555
S1 C5 1_555 1_555
C5 N2 1_555 1_555
O1 C1 1_555 1_555
H3 O1 1_555 1_555
Fe1C N1C 1_555 1_555
Fe1C_2 N1D 1_555 1_555
N1C C3C 1_555 1_555
N1G Fe1 1_555 1_555
N1D C3D 1_555 1_555
N1X Fe1 1_555 1_555
N1EA Fe1 1_555 1_555
C1C C1 1_555 1_555
C1G C1D 1_555 1_555
C1D C2D 1_555 1_555
C2C C1C 1_555 1_555
C2G C1G 1_555 1_555
C2D C4D 1_555 1_555
C3C H1C 1_555 1_555
C3T N1C 1_555 1_555
C3W N1 1_555 1_555
C3G N1G 1_555 1_555
C3D H1D 1_555 1_555
C3S N1D 1_555 1_555
C3P N1G 1_555 1_555
H1T C3T 1_555 1_555
H1W C3W 1_555 1_555
H1G C3G 1_555 1_555
H1S C3S 1_555 1_555
H1P C3P 1_555 1_555
C4C C2C 1_555 1_555
C4T C2C 1_555 1_555
C4W C2 1_555 1_555
C4G C2G 1_555 1_555
C4D C3D 1_555 1_555
C4S C2D 1_555 1_555
C4P C2G 1_555 1_555
H2T C4T 1_555 1_555
H2C C4C 1_555 1_555
H2W C4W 1_555 1_555
H2G C4G 1_555 1_555
H2S C4S 1_555 1_555
H2D C4D 1_555 1_555
H2P C4P 1_555 1_555
N2P Fe1 1_555 1_555
S1P C5P 1_555 1_555
C5P N2P 1_555 1_555
O1C C1C 1_555 1_555
O1T C1C 1_555 1_555
O1W C1 1_555 1_555
O1G C1G 1_555 1_555
O1D C1D 1_555 1_555
O1S C1D 1_555 1_555
O1P C1G 1_555 1_555
H3C O1C 1_555 1_555
H3T O1T 1_555 1_555
H3W O1W 1_555 1_555
H3G O1G 1_555 1_555
H3D O1D 1_555 1_555
H3S O1S 1_555 1_555
H3P O1P 1_555 1_555
C3C C4C 1_555 1_555
C3T C4T 1_555 1_555
C3W C4W 1_555 1_555
C3G C4G 1_555 1_555
C3S C4S 1_555 1_555
C3P C4P 1_555 1_555

#END
