
#######################################################################
#
#                 Cambridge Crystallographic Data Centre
#                                CCDC 
#
#######################################################################
#
# If this CIF has been generated from an entry in the Cambridge 
# Structural Database, then it will include bibliographic, chemical, 
# crystal, experimental, refinement or atomic coordinate data resulting 
# from the CCDC's data processing and validation procedures.
#
#######################################################################

data_YOCCEA
_symmetry_cell_setting           monoclinic
_symmetry_space_group_name_H-M   'C 2/c'
_symmetry_Int_Tables_number      15
_space_group_name_Hall           '-C 2yn'
loop_
_symmetry_equiv_pos_site_id
_symmetry_equiv_pos_as_xyz
1 x,y,z
2 -x,y,1/2-z
3 1/2+x,1/2+y,z
4 1/2-x,1/2+y,1/2-z
5 -x,-y,-z
6 x,-y,1/2+z
7 1/2-x,1/2-y,-z
8 1/2+x,1/2-y,1/2+z
_cell_length_a                   30.260(3)
_cell_length_b                   6.4818(7)
_cell_length_c                   24.1766(16)
_cell_angle_alpha                90
_cell_angle_beta                 91.876(7)
_cell_angle_gamma                90
_cell_volume                     4739.44
loop_
_atom_site_label
_atom_site_type_symbol
_atom_site_fract_x
_atom_site_fract_y
_atom_site_fract_z
Ni1 Ni 0.2500 0.7500 0.5000
Ni2 Ni 0.5000 0.70138(14) 0.2500
Ni3 Ni 0.29826(2) 1.24919(8) 0.48704(2)
C1 C 0.39412(16) 1.0199(7) 0.20461(18)
C2 C 0.37577(16) 0.9771(7) 0.15255(19)
H1 H 0.3858 0.8651 0.1325
C3 C 0.34196(16) 1.1039(7) 0.13029(18)
C4 C 0.32733(16) 1.2695(7) 0.16116(19)
H2 H 0.3062 1.3584 0.1456
C5 C 0.34341(16) 1.3056(7) 0.21454(19)
C6 C 0.37778(16) 1.1796(8) 0.23528(19)
H3 H 0.3898 1.2047 0.2705
C7 C 0.32430(16) 1.4722(7) 0.24854(19)
C8 C 0.31710(15) 1.4427(7) 0.30420(18)
H4 H 0.3241 1.3161 0.3203
C9 C 0.29974(16) 1.5974(7) 0.33644(19)
C10 C 0.28769(18) 1.7833(7) 0.31145(19)
H5 H 0.2757 1.8883 0.3324
C11 C 0.29344(18) 1.8121(8) 0.2565(2)
H6 H 0.2854 1.9374 0.2403
C12 C 0.31092(16) 1.6587(7) 0.22430(19)
H7 H 0.3138 1.6793 0.1865
C13 C 0.43218(17) 0.8939(7) 0.22558(19)
C14 C 0.32128(15) 1.0576(7) 0.07498(18)
C15 C 0.28997(16) 1.5557(7) 0.39637(18)
C16 C 0.5677(2) -0.0577(13) -0.0196(3)
H8 H 0.5809 -0.0202 -0.0524
C17 C 0.5637(2) 0.0901(12) 0.0206(3)
H9 H 0.5743 0.2229 0.0150
C18 C 0.5438(2) 0.0404(9) 0.0692(2)
C19 C 0.5296(3) -0.1581(10) 0.0742(3)
H10 H 0.5158 -0.1996 0.1062
C20 C 0.5355(3) -0.2957(11) 0.0326(3)
H11 H 0.5259 -0.4305 0.0378
C21 C 0.53782(19) 0.1940(9) 0.1134(2)
C22 C 0.5689(2) 0.3432(9) 0.1271(2)
H12 H 0.5955 0.3504 0.1089
C23 C 0.5595(2) 0.4817(9) 0.1687(2)
H13 H 0.5805 0.5819 0.1776
C24 C 0.4922(2) 0.3377(8) 0.1820(2)
H14 H 0.4656 0.3365 0.2001
C25 C 0.4991(2) 0.1942(8) 0.1418(2)
H15 H 0.4774 0.0960 0.1335
N1 N 0.5540(2) -0.2502(10) -0.0145(3)
N2 N 0.52297(15) 0.4817(6) 0.19627(17)
O1 O 0.45112(12) 0.9319(6) 0.27125(14)
O2 O 0.44696(13) 0.7486(5) 0.19610(15)
O3 O 0.31891(12) 0.8723(5) 0.06076(13)
O4 O 0.30771(12) 1.2085(5) 0.04649(13)
O5 O 0.28783(12) 1.3723(5) 0.41048(12)
O6 O 0.28491(13) 1.7092(5) 0.42741(13)
O7 O 0.24558(10) 1.0546(4) 0.47738(12)
H16 H 0.2378 1.0547 0.4377
O8 O 0.33798(12) 1.0449(5) 0.44201(15)
H17 H 0.3226 0.9420 0.4311
H18 H 0.3593 1.0035 0.4628
O9 O 0.35107(12) 1.4537(5) 0.50153(15)
H19 H 0.3422 1.5559 0.5202
H20 H 0.3718 1.3924 0.5195
Ni3A Ni 0.70174(2) 1.24919(8) 0.01296(2)
C1A C 0.60588(16) 1.0199(7) 0.29539(18)
C2A C 0.62423(16) 0.9771(7) 0.34745(19)
H1A H 0.6142 0.8651 0.3675
C3A C 0.65804(16) 1.1039(7) 0.36971(18)
C4A C 0.67267(16) 1.2695(7) 0.33884(19)
H2A H 0.6938 1.3584 0.3544
C5A C 0.65659(16) 1.3056(7) 0.28546(19)
C6A C 0.62222(16) 1.1796(8) 0.26472(19)
H3A H 0.6102 1.2047 0.2295
C7A C 0.67570(16) 1.4722(7) 0.25146(19)
C8A C 0.68290(15) 1.4427(7) 0.19580(18)
H4A H 0.6759 1.3161 0.1797
C9A C 0.70026(16) 1.5974(7) 0.16356(19)
C10A C 0.71231(18) 1.7833(7) 0.18855(19)
H5A H 0.7243 1.8883 0.1676
C11A C 0.70656(18) 1.8121(8) 0.2435(2)
H6A H 0.7146 1.9374 0.2597
C12A C 0.68908(16) 1.6587(7) 0.27570(19)
H7A H 0.6862 1.6793 0.3135
C13A C 0.56782(17) 0.8939(7) 0.27442(19)
C14A C 0.67872(15) 1.0576(7) 0.42502(18)
C15A C 0.71003(16) 1.5557(7) 0.10363(18)
C16A C 0.4323(2) -0.0577(13) 0.5196(3)
H8A H 0.4191 -0.0202 0.5524
C17A C 0.4363(2) 0.0901(12) 0.4794(3)
H9A H 0.4257 0.2229 0.4850
C18A C 0.4562(2) 0.0404(9) 0.4308(2)
C19A C 0.4704(3) -0.1581(10) 0.4258(3)
H10A H 0.4842 -0.1996 0.3938
C20A C 0.4645(3) -0.2957(11) 0.4674(3)
H11A H 0.4741 -0.4305 0.4622
C21A C 0.46218(19) 0.1940(9) 0.3866(2)
C22A C 0.4311(2) 0.3432(9) 0.3729(2)
H12A H 0.4045 0.3504 0.3911
C23A C 0.4405(2) 0.4817(9) 0.3313(2)
H13A H 0.4195 0.5819 0.3224
C24A C 0.5078(2) 0.3377(8) 0.3180(2)
H14A H 0.5344 0.3365 0.2999
C25A C 0.5009(2) 0.1942(8) 0.3582(2)
H15A H 0.5226 0.0960 0.3665
N1A N 0.4460(2) -0.2502(10) 0.5145(3)
N2A N 0.47703(15) 0.4817(6) 0.30373(17)
O1A O 0.54888(12) 0.9319(6) 0.22875(14)
O2A O 0.55304(13) 0.7486(5) 0.30390(15)
O3A O 0.68109(12) 0.8723(5) 0.43924(13)
O4A O 0.69229(12) 1.2085(5) 0.45351(13)
O5A O 0.71217(12) 1.3723(5) 0.08952(12)
O6A O 0.71509(13) 1.7092(5) 0.07259(13)
O7A O 0.75442(10) 1.0546(4) 0.02262(12)
H16A H 0.7622 1.0547 0.0623
O8A O 0.66202(12) 1.0449(5) 0.05799(15)
H17A H 0.6774 0.9420 0.0689
H18A H 0.6407 1.0035 0.0372
O9A O 0.64893(12) 1.4537(5) -0.00153(15)
H19A H 0.6578 1.5559 -0.0202
H20A H 0.6282 1.3924 -0.0195
Ni1_2 Ni 0.2500 1.7500 0.5000
Ni1A Ni 0.7500 0.7500 0.0000
Ni1A_2 Ni 0.7500 1.7500 0.0000
Ni1B Ni 0.7500 1.2500 0.5000
Ni1C Ni 0.2500 1.2500 0.0000
Ni3D Ni 0.70174(2) 0.75081(8) 0.51296(2)
Ni3E Ni 0.29826(2) 0.75081(8) -0.01296(2)
Ni3F Ni 0.20174(2) 1.25081(8) 0.51296(2)
Ni3G Ni 0.79826(2) 1.25081(8) -0.01296(2)
O3D O 0.68109(12) 1.1277(5) -0.06076(13)
O3E O 0.31891(12) 1.1277(5) 0.56076(13)
O4C O 0.19229(12) 0.7085(5) 0.45351(13)
O4E O 0.30771(12) 0.7915(5) 0.54649(13)
O6_2 O 0.28491(13) 0.7092(5) 0.42741(13)
O6F O 0.21509(13) 0.7908(5) 0.57259(13)
O7F O 0.25442(10) 0.4454(4) 0.52262(12)
O7F_2 O 0.25442(10) 1.4454(4) 0.52262(12)
O7G O 0.74558(10) 1.4454(4) -0.02262(12)
O10 O 0.41881(17) 0.4283(7) 0.58513(18)
H21 H 0.4318 0.5294 0.5703
H22 H 0.4316 0.4018 0.6161
loop_
_geom_bond_atom_site_label_1
_geom_bond_atom_site_label_2
_geom_bond_site_symmetry_1
_geom_bond_site_symmetry_2
Ni1 O7 1_555 1_555
Ni2 N2 1_555 1_555
Ni3 O5 1_555 1_555
C1 C2 1_555 1_555
C2 H1 1_555 1_555
C3 C2 1_555 1_555
C4 C3 1_555 1_555
H2 C4 1_555 1_555
C5 C4 1_555 1_555
C6 C1 1_555 1_555
H3 C6 1_555 1_555
C7 C5 1_555 1_555
C8 C7 1_555 1_555
H4 C8 1_555 1_555
C9 C8 1_555 1_555
C10 C9 1_555 1_555
H5 C10 1_555 1_555
C11 C10 1_555 1_555
H6 C11 1_555 1_555
C12 C7 1_555 1_555
H7 C12 1_555 1_555
C13 C1 1_555 1_555
C14 C3 1_555 1_555
C15 C9 1_555 1_555
C16 H8 1_555 1_555
C17 C16 1_555 1_555
H9 C17 1_555 1_555
C18 C17 1_555 1_555
C19 C18 1_555 1_555
H10 C19 1_555 1_555
C20 C19 1_555 1_555
H11 C20 1_555 1_555
C21 C18 1_555 1_555
C22 C21 1_555 1_555
H12 C22 1_555 1_555
C23 C22 1_555 1_555
H13 C23 1_555 1_555
C24 H14 1_555 1_555
C25 C21 1_555 1_555
H15 C25 1_555 1_555
N1 C16 1_555 1_555
N2 C23 1_555 1_555
O1 Ni2 1_555 1_555
O2 Ni2 1_555 1_555
O3 C14 1_555 1_555
O4 C14 1_555 1_555
O5 C15 1_555 1_555
O6 C15 1_555 1_555
O7 Ni3 1_555 1_555
H16 O7 1_555 1_555
O8 Ni3 1_555 1_555
H17 O8 1_555 1_555
H18 O8 1_555 1_555
O9 Ni3 1_555 1_555
H19 O9 1_555 1_555
H20 O9 1_555 1_555
O10 H21 1_555 1_555
H22 O10 1_555 1_555
Ni3A O5A 1_555 1_555
C1A C2A 1_555 1_555
C2A H1A 1_555 1_555
C3A C2A 1_555 1_555
C4A C3A 1_555 1_555
H2A C4A 1_555 1_555
C5A C4A 1_555 1_555
C6A C1A 1_555 1_555
H3A C6A 1_555 1_555
C7A C5A 1_555 1_555
C8A C7A 1_555 1_555
H4A C8A 1_555 1_555
C9A C8A 1_555 1_555
C10A C9A 1_555 1_555
H5A C10A 1_555 1_555
C11A C10A 1_555 1_555
H6A C11A 1_555 1_555
C12A C7A 1_555 1_555
H7A C12A 1_555 1_555
C13A C1A 1_555 1_555
C14A C3A 1_555 1_555
C15A C9A 1_555 1_555
C16A H8A 1_555 1_555
C17A C16A 1_555 1_555
H9A C17A 1_555 1_555
C18A C17A 1_555 1_555
C19A C18A 1_555 1_555
H10A C19A 1_555 1_555
C20A C19A 1_555 1_555
H11A C20A 1_555 1_555
C21A C18A 1_555 1_555
C22A C21A 1_555 1_555
H12A C22A 1_555 1_555
C23A C22A 1_555 1_555
H13A C23A 1_555 1_555
C24A H14A 1_555 1_555
C25A C21A 1_555 1_555
H15A C25A 1_555 1_555
N1A C16A 1_555 1_555
N2A Ni2 1_555 1_555
O1A Ni2 1_555 1_555
O2A Ni2 1_555 1_555
O3A C14A 1_555 1_555
O4A C14A 1_555 1_555
O5A C15A 1_555 1_555
O6A C15A 1_555 1_555
O7A Ni3A 1_555 1_555
H16A O7A 1_555 1_555
O8A Ni3A 1_555 1_555
H17A O8A 1_555 1_555
H18A O8A 1_555 1_555
O9A Ni3A 1_555 1_555
H19A O9A 1_555 1_555
H20A O9A 1_555 1_555
Ni1_2 O6 1_555 1_555
Ni1A O7A 1_555 1_555
Ni1A_2 O6A 1_555 1_555
Ni1B O4A 1_555 1_555
Ni1C O4 1_555 1_555
Ni3D O3A 1_555 1_555
Ni3E O3 1_555 1_555
Ni3F O7 1_555 1_555
Ni3G O7A 1_555 1_555
O3D Ni3A 1_555 1_555
O3E Ni3 1_555 1_555
O4C Ni1 1_555 1_555
O4E Ni1 1_555 1_555
O6_2 Ni1 1_555 1_555
O6F Ni1 1_555 1_555
O7F Ni1 1_555 1_555
O7F_2 Ni3 1_555 1_555
O7G Ni3A 1_555 1_555
C5 C6 1_555 1_555
C11 C12 1_555 1_555
C13 O1 1_555 1_555
C13 O2 1_555 1_555
C20 N1 1_555 1_555
C24 C25 1_555 1_555
C24 N2 1_555 1_555
C5A C6A 1_555 1_555
C11A C12A 1_555 1_555
C13A O1A 1_555 1_555
C13A O2A 1_555 1_555
C20A N1A 1_555 1_555
C23A N2A 1_555 1_555
C24A C25A 1_555 1_555
C24A N2A 1_555 1_555
Ni1_2 O7F_2 1_555 1_555
Ni1A_2 O7G 1_555 1_555
Ni3F O7F_2 1_555 1_555
Ni3G O7G 1_555 1_555

#END
