
#######################################################################
#
#                 Cambridge Crystallographic Data Centre
#                                CCDC 
#
#######################################################################
#
# If this CIF has been generated from an entry in the Cambridge 
# Structural Database, then it will include bibliographic, chemical, 
# crystal, experimental, refinement or atomic coordinate data resulting 
# from the CCDC's data processing and validation procedures.
#
#######################################################################

data_YOCDIF
_symmetry_cell_setting           monoclinic
_symmetry_space_group_name_H-M   'C 2/c'
_symmetry_Int_Tables_number      15
_space_group_name_Hall           '-C 2yn'
loop_
_symmetry_equiv_pos_site_id
_symmetry_equiv_pos_as_xyz
1 x,y,z
2 -x,y,1/2-z
3 1/2+x,1/2+y,z
4 1/2-x,1/2+y,1/2-z
5 -x,-y,-z
6 x,-y,1/2+z
7 1/2-x,1/2-y,-z
8 1/2+x,1/2-y,1/2+z
_cell_length_a                   27.6151(14)
_cell_length_b                   15.1386(8)
_cell_length_c                   8.2366(4)
_cell_angle_alpha                90
_cell_angle_beta                 105.617(4)
_cell_angle_gamma                90
_cell_volume                     3316.22
loop_
_atom_site_label
_atom_site_type_symbol
_atom_site_fract_x
_atom_site_fract_y
_atom_site_fract_z
Co1 Co -0.083687(17) 0.24802(2) -0.85225(5)
C1 C -0.17801(16) 0.2424(2) -0.9600(6)
C2 C -0.23425(17) 0.2344(3) -1.0362(6)
H1 H -0.2461 0.2057 -1.1391
C3 C -0.00750(15) 0.24789(17) -0.4907(4)
C4 C -0.01743(14) 0.24563(18) -0.3210(4)
H2 H -0.0507 0.2441 -0.3169
C5 C -0.05349(14) 0.0588(2) -0.6812(5)
H3 H -0.0246 0.0796 -0.6045
C6 C -0.06944(14) -0.0257(2) -0.6926(5)
H4 H -0.0539 -0.0729 -0.6264
C7 C -0.12076(14) 0.0536(2) -0.8809(4)
H5 H -0.1477 0.0694 -0.9709
C8 C -0.14060(13) -0.1083(2) -0.8877(5)
H6 H -0.1315 -0.1550 -0.8045
H7 H -0.1303 -0.1268 -0.9862
C9 C -0.19705(13) -0.0981(2) -0.9371(4)
C10 C -0.22265(14) -0.0467(2) -0.8463(4)
H8 H -0.2046 -0.0125 -0.7565
C11 C -0.27453(14) -0.0460(2) -0.8884(4)
H9 H -0.2911 -0.0111 -0.8272
C12 C -0.30226(14) -0.0968(2) -1.0213(4)
C13 C -0.27670(13) -0.1465(2) -1.1121(4)
H10 H -0.2947 -0.1804 -1.2024
C14 C -0.22472(13) -0.1466(2) -1.0707(4)
H11 H -0.2083 -0.1801 -1.1344
C15 C -0.35830(14) -0.1055(2) -1.0628(5)
H12 H -0.3703 -0.1290 -1.1761
H13 H -0.3665 -0.1482 -0.9864
C16 C -0.44461(17) 0.0645(3) -1.0307(7)
H14 H -0.4738 0.0859 -1.0086
C17 C -0.42917(16) -0.0195(3) -1.0081(7)
H15 H -0.4452 -0.0658 -0.9693
C18 C -0.37694(14) 0.0581(2) -1.0990(5)
H16 H -0.3488 0.0736 -1.1341
O1 O -0.15929(11) 0.26417(17) -0.8086(4)
O2 O -0.15097(10) 0.22472(17) -1.0563(3)
O3 O -0.04343(10) 0.27260(16) -0.6101(3)
O4 O 0.03575(9) 0.22709(15) -0.4996(3)
N1 N -0.08596(10) 0.10920(18) -0.7983(3)
N2 N -0.11237(10) -0.02851(17) -0.8189(3)
N3 N -0.41225(10) 0.11444(18) -1.0901(4)
N4 N -0.38551(11) -0.02362(18) -1.0529(4)
C1F C -0.32199(16) 0.2576(2) -1.0400(6)
C2F C -0.26575(17) 0.2656(3) -0.9638(6)
H1F H -0.2539 0.2943 -0.8609
O1F O -0.34071(11) 0.23583(17) -1.1914(4)
O2F O -0.34903(10) 0.27528(17) -0.9437(3)
C3A C 0.00750(15) 0.24789(17) -0.0093(4)
C4A C 0.01743(14) 0.24563(18) -0.1790(4)
H2A H 0.0507 0.2441 -0.1831
O3A O 0.04343(10) 0.27260(16) 0.1101(3)
O4A O -0.03575(9) 0.22709(15) -0.0004(3)
Co1A Co 0.083687(17) 0.24802(2) -0.64775(5)
C5A C 0.05349(14) 0.0588(2) -0.8188(5)
H3A H 0.0246 0.0796 -0.8955
C6A C 0.06944(14) -0.0257(2) -0.8074(5)
H4A H 0.0539 -0.0729 -0.8736
C7A C 0.12076(14) 0.0536(2) -0.6191(4)
H5A H 0.1477 0.0694 -0.5291
C8A C 0.14060(13) -0.1083(2) -0.6123(5)
H6A H 0.1315 -0.1550 -0.6955
H7A H 0.1303 -0.1268 -0.5138
C9A C 0.19705(13) -0.0981(2) -0.5629(4)
C10A C 0.22265(14) -0.0467(2) -0.6537(4)
H8A H 0.2046 -0.0125 -0.7435
C11A C 0.27453(14) -0.0460(2) -0.6116(4)
H9A H 0.2911 -0.0111 -0.6728
C12A C 0.30226(14) -0.0968(2) -0.4787(4)
C13A C 0.27670(13) -0.1465(2) -0.3879(4)
H10A H 0.2947 -0.1804 -0.2976
C14A C 0.22472(13) -0.1466(2) -0.4293(4)
H11A H 0.2083 -0.1801 -0.3656
C15A C 0.35830(14) -0.1055(2) -0.4372(5)
H12A H 0.3703 -0.1290 -0.3239
H13A H 0.3665 -0.1482 -0.5136
C16A C 0.44461(17) 0.0645(3) -0.4693(7)
H14A H 0.4738 0.0859 -0.4914
C17A C 0.42917(16) -0.0195(3) -0.4919(7)
H15A H 0.4452 -0.0658 -0.5307
C18A C 0.37694(14) 0.0581(2) -0.4010(5)
H16A H 0.3488 0.0736 -0.3659
N1A N 0.08596(10) 0.10920(18) -0.7017(3)
N2A N 0.11237(10) -0.02851(17) -0.6811(3)
N3A N 0.41225(10) 0.11444(18) -0.4099(4)
N4A N 0.38551(11) -0.02362(18) -0.4471(4)
Co1_2 Co -0.083687(17) 0.24802(2) 0.14775(5)
Co1A_2 Co 0.083687(17) 0.24802(2) 0.35225(5)
Co1F Co -0.416313(17) 0.25198(2) -1.14775(5)
Co1G Co 0.416313(17) 0.25198(2) -0.35225(5)
O1A O 0.15929(11) 0.26417(17) -0.6914(4)
O2A O 0.15097(10) 0.22472(17) -0.4437(3)
O3A_2 O 0.04343(10) 0.27260(16) -0.8899(3)
O4A_2 O -0.03575(9) 0.22709(15) -1.0004(3)
N3F N -0.08775(10) 0.38556(18) -0.9099(4)
N3G N 0.08775(10) 0.38556(18) -0.5901(4)
loop_
_geom_bond_atom_site_label_1
_geom_bond_atom_site_label_2
_geom_bond_site_symmetry_1
_geom_bond_site_symmetry_2
Co1 O1 1_555 1_555
C1 C2 1_555 1_555
C2 H1 1_555 1_555
C3 C4 1_555 1_555
C4 H2 1_555 1_555
C5 H3 1_555 1_555
C6 C5 1_555 1_555
H4 C6 1_555 1_555
C7 H5 1_555 1_555
C8 H6 1_555 1_555
H7 C8 1_555 1_555
C9 C8 1_555 1_555
C10 C9 1_555 1_555
H8 C10 1_555 1_555
C11 C10 1_555 1_555
H9 C11 1_555 1_555
C12 C11 1_555 1_555
C13 C12 1_555 1_555
H10 C13 1_555 1_555
C14 C9 1_555 1_555
H11 C14 1_555 1_555
C15 C12 1_555 1_555
H12 C15 1_555 1_555
H13 C15 1_555 1_555
C16 H14 1_555 1_555
C17 C16 1_555 1_555
H15 C17 1_555 1_555
C18 H16 1_555 1_555
O1 C1 1_555 1_555
O2 Co1 1_555 1_555
O3 Co1 1_555 1_555
O4 C3 1_555 1_555
N1 Co1 1_555 1_555
N2 C6 1_555 1_555
N3 C16 1_555 1_555
N4 C15 1_555 1_555
C1F C2F 1_555 1_555
C2F C2 1_555 1_555
H1F C2F 1_555 1_555
O1F C1F 1_555 1_555
O2F C1F 1_555 1_555
C3A C4A 1_555 1_555
C4A C4 1_555 1_555
H2A C4A 1_555 1_555
O3A C3A 1_555 1_555
O4A C3A 1_555 1_555
Co1A O4 1_555 1_555
C5A H3A 1_555 1_555
C6A C5A 1_555 1_555
H4A C6A 1_555 1_555
C7A H5A 1_555 1_555
C8A H6A 1_555 1_555
H7A C8A 1_555 1_555
C9A C8A 1_555 1_555
C10A C9A 1_555 1_555
H8A C10A 1_555 1_555
C11A C10A 1_555 1_555
H9A C11A 1_555 1_555
C12A C11A 1_555 1_555
C13A C12A 1_555 1_555
H10A C13A 1_555 1_555
C14A C9A 1_555 1_555
H11A C14A 1_555 1_555
C15A C12A 1_555 1_555
H12A C15A 1_555 1_555
H13A C15A 1_555 1_555
C16A H14A 1_555 1_555
C17A C16A 1_555 1_555
H15A C17A 1_555 1_555
C18A H16A 1_555 1_555
N1A Co1A 1_555 1_555
N2A C6A 1_555 1_555
N3A C16A 1_555 1_555
N4A C15A 1_555 1_555
Co1_2 O4A 1_555 1_555
Co1A_2 O3A 1_555 1_555
Co1F N3 1_555 1_555
Co1G N3A 1_555 1_555
O1A Co1A 1_555 1_555
O2A Co1A 1_555 1_555
O3A_2 Co1A 1_555 1_555
O4A_2 Co1 1_555 1_555
N3F Co1 1_555 1_555
N3G Co1A 1_555 1_555
C1 O2 1_555 1_555
C3 O3 1_555 1_555
C5 N1 1_555 1_555
C7 N1 1_555 1_555
C7 N2 1_555 1_555
C8 N2 1_555 1_555
C13 C14 1_555 1_555
C17 N4 1_555 1_555
C18 N3 1_555 1_555
C18 N4 1_555 1_555
O1F Co1F 1_555 1_555
O2F Co1F 1_555 1_555
C5A N1A 1_555 1_555
C7A N1A 1_555 1_555
C7A N2A 1_555 1_555
C8A N2A 1_555 1_555
C13A C14A 1_555 1_555
C17A N4A 1_555 1_555
C18A N3A 1_555 1_555
C18A N4A 1_555 1_555

#END
