
#######################################################################
#
#                 Cambridge Crystallographic Data Centre
#                                CCDC 
#
#######################################################################
#
# If this CIF has been generated from an entry in the Cambridge 
# Structural Database, then it will include bibliographic, chemical, 
# crystal, experimental, refinement or atomic coordinate data resulting 
# from the CCDC's data processing and validation procedures.
#
#######################################################################

data_YOCDEB01
_symmetry_cell_setting           monoclinic
_symmetry_space_group_name_H-M   'C 2/c'
_symmetry_Int_Tables_number      15
_space_group_name_Hall           '-C 2yn'
loop_
_symmetry_equiv_pos_site_id
_symmetry_equiv_pos_as_xyz
1 x,y,z
2 -x,y,1/2-z
3 1/2+x,1/2+y,z
4 1/2-x,1/2+y,1/2-z
5 -x,-y,-z
6 x,-y,1/2+z
7 1/2-x,1/2-y,-z
8 1/2+x,1/2-y,1/2+z
_cell_length_a                   14.066(5)
_cell_length_b                   11.787(5)
_cell_length_c                   10.883(5)
_cell_angle_alpha                90
_cell_angle_beta                 111.949(5)
_cell_angle_gamma                90
_cell_volume                     1673.57
loop_
_atom_site_label
_atom_site_type_symbol
_atom_site_fract_x
_atom_site_fract_y
_atom_site_fract_z
Co1 Co 0.5000 0.04714(4) 0.7500
C1 C 0.5735(2) 0.2260(2) 0.9771(3)
H1 H 0.5373 0.1925 1.0236
O1 O 0.41103(16) -0.07729(18) 0.61417(19)
O2 O 0.39591(16) 0.03834(17) 0.8531(2)
N1 N 0.61965(19) 0.3279(2) 1.0068(3)
O3 O 0.3070(2) -0.1388(2) 0.7127(2)
N2 N 0.58601(18) 0.1797(2) 0.8738(2)
C2 C 0.6429(2) 0.2574(3) 0.8351(3)
H2 H 0.6639 0.2482 0.7642
C3 C 0.3387(2) -0.1389(2) 0.6208(3)
C4 C 0.2888(2) -0.2170(3) 0.5064(3)
H3 H 0.3148 -0.2185 0.4394
C5 C 0.6634(2) 0.3487(3) 0.9157(3)
H4 H 0.7000 0.4130 0.9105
C6 C 0.6150(3) 0.4065(3) 1.1091(4)
H5 H 0.6830 0.4363 1.1579
H6 H 0.5928 0.3656 1.1709
C7 C 0.5441(5) 0.5016(6) 1.0516(5)
H7 H 0.5276 0.5320 1.1240
H8 H 0.5848 0.5592 1.0305
C1D C 0.4265(2) 0.7740(2) 1.0229(3)
H1D H 0.4627 0.8075 0.9764
N1D N 0.38035(19) 0.6721(2) 0.9932(3)
N2D N 0.41399(18) 0.8203(2) 1.1262(2)
C2D C 0.3571(2) 0.7426(3) 1.1649(3)
H2D H 0.3361 0.7518 1.2358
C5D C 0.3366(2) 0.6513(3) 1.0843(3)
H4D H 0.3000 0.5870 1.0895
C6D C 0.3850(3) 0.5935(3) 0.8909(4)
H5D H 0.3170 0.5637 0.8421
H6D H 0.4072 0.6344 0.8291
C7D C 0.4559(5) 0.4984(6) 0.9484(5)
H7D H 0.4724 0.4680 0.8760
H8D H 0.4152 0.4408 0.9695
O1F O 0.08897(16) -0.42271(18) 0.38583(19)
O3F O 0.1930(2) -0.3612(2) 0.2873(2)
C3F C 0.1613(2) -0.3611(2) 0.3792(3)
C4F C 0.2112(2) -0.2830(3) 0.4936(3)
H3F H 0.1852 -0.2815 0.5606
O2A O 0.60409(16) 0.03834(17) 0.6469(2)
Co1D Co 0.5000 0.95286(4) 1.2500
Co1F Co 0.0000 -0.54714(4) 0.2500
O1A O 0.58897(16) -0.07729(18) 0.88583(19)
N2A N 0.41399(18) 0.1797(2) 0.6262(2)
loop_
_geom_bond_atom_site_label_1
_geom_bond_atom_site_label_2
_geom_bond_site_symmetry_1
_geom_bond_site_symmetry_2
Co1 O1 1_555 1_555
C1 H1 1_555 1_555
O1 C3 1_555 1_555
O2 Co1 1_555 1_555
N1 C1 1_555 1_555
O3 C3 1_555 1_555
N2 Co1 1_555 1_555
C2 N2 1_555 1_555
H2 C2 1_555 1_555
C3 C4 1_555 1_555
C4 H3 1_555 1_555
C5 N1 1_555 1_555
H4 C5 1_555 1_555
C6 N1 1_555 1_555
H5 C6 1_555 1_555
H6 C6 1_555 1_555
C7 C6 1_555 1_555
H7 C7 1_555 1_555
H8 C7 1_555 1_555
C1D H1D 1_555 1_555
N1D C1D 1_555 1_555
N2D C1D 1_555 1_555
C2D N2D 1_555 1_555
H2D C2D 1_555 1_555
C5D N1D 1_555 1_555
H4D C5D 1_555 1_555
C6D N1D 1_555 1_555
H5D C6D 1_555 1_555
H6D C6D 1_555 1_555
C7D C7 1_555 1_555
H7D C7D 1_555 1_555
H8D C7D 1_555 1_555
O1F C3F 1_555 1_555
O3F C3F 1_555 1_555
C3F C4F 1_555 1_555
C4F C4 1_555 1_555
H3F C4F 1_555 1_555
O2A Co1 1_555 1_555
Co1D N2D 1_555 1_555
Co1F O1F 1_555 1_555
O1A Co1 1_555 1_555
N2A Co1 1_555 1_555
C1 N2 1_555 1_555
C2 C5 1_555 1_555
C2D C5D 1_555 1_555
C6D C7D 1_555 1_555

#END
