
#######################################################################
#
#                 Cambridge Crystallographic Data Centre
#                                CCDC 
#
#######################################################################
#
# If this CIF has been generated from an entry in the Cambridge 
# Structural Database, then it will include bibliographic, chemical, 
# crystal, experimental, refinement or atomic coordinate data resulting 
# from the CCDC's data processing and validation procedures.
#
#######################################################################

data_YOCDAX
_symmetry_cell_setting           monoclinic
_symmetry_space_group_name_H-M   'C 2/c'
_symmetry_Int_Tables_number      15
_space_group_name_Hall           '-C 2yn'
loop_
_symmetry_equiv_pos_site_id
_symmetry_equiv_pos_as_xyz
1 x,y,z
2 -x,y,1/2-z
3 1/2+x,1/2+y,z
4 1/2-x,1/2+y,1/2-z
5 -x,-y,-z
6 x,-y,1/2+z
7 1/2-x,1/2-y,-z
8 1/2+x,1/2-y,1/2+z
_cell_length_a                   9.9920(9)
_cell_length_b                   16.0213(15)
_cell_length_c                   17.924(2)
_cell_angle_alpha                90
_cell_angle_beta                 106.245(3)
_cell_angle_gamma                90
_cell_volume                     2754.8
loop_
_atom_site_label
_atom_site_type_symbol
_atom_site_fract_x
_atom_site_fract_y
_atom_site_fract_z
O5 O 0.4582(8) 0.4000(5) 0.3266(6)
O6 O 0.4613(13) 0.5374(9) 0.9590(13)
Ni1 Ni 0.0000 0.25224(3) 0.2500
O1 O 0.0511(2) 0.43023(14) 0.01700(17)
H1 H 0.0267 0.4791 0.0093
O2 O 0.2555(3) 0.48123(17) 0.0149(2)
O3 O 0.2519(3) 0.36158(15) 0.17842(14)
O4 O 0.1182(3) 0.24831(12) 0.16980(15)
N1 N -0.1220(3) 0.34560(16) 0.18741(14)
N2 N -0.1260(3) 0.15615(18) 0.18460(16)
N3 N -0.2366(3) 0.24997(16) 0.07802(18)
C1 C 0.2549(3) 0.30902(18) -0.05484(17)
H2 H 0.2592 0.3491 -0.0916
C2 C 0.2228(3) 0.33377(17) 0.01233(16)
C3 C 0.2192(3) 0.27416(19) 0.06866(17)
C4 C 0.1783(3) 0.42311(18) 0.01676(18)
C5 C 0.1945(3) 0.29802(19) 0.14501(17)
C6 C -0.0391(3) 0.42384(18) 0.20675(17)
H3 H 0.0308 0.4231 0.1778
C7 C -0.1204(16) 0.4996(8) 0.1854(9)
H4 H -0.1600 0.5012 0.1300
H5 H -0.0611 0.5473 0.2016
H6 H -0.1937 0.5006 0.2104
C8 C -0.1721(3) 0.3323(2) 0.10294(17)
H7 H -0.0941 0.3395 0.0813
H8 H -0.2399 0.3754 0.0809
C9 C -0.1503(4) 0.1749(2) 0.10121(19)
H9 H -0.0614 0.1830 0.0904
H10 H -0.1962 0.1277 0.0707
C10 C -0.3772(4) 0.2369(3) 0.0903(2)
H11 H -0.4282 0.1957 0.0535
H12 H -0.4292 0.2888 0.0806
C11 C -0.3650(4) 0.2075(3) 0.1728(2)
H13 H -0.3347 0.2537 0.2084
H14 H -0.4561 0.1899 0.1761
C12 C -0.2648(5) 0.1370(3) 0.1968(2)
H15 H -0.3032 0.0876 0.1670
H16 H -0.2527 0.1247 0.2513
C13 C -0.0342(6) 0.0821(2) 0.2063(2)
H17 H 0.0370 0.0834 0.1790
H18 H -0.0886 0.0316 0.1915
H19 H -0.186(4) 0.350(2) 0.204(2)
O1F O 0.4489(2) 0.06977(14) -0.01700(17)
H1F H 0.4733 0.0209 -0.0093
O2F O 0.2445(3) 0.01877(17) -0.0149(2)
O3F O 0.2481(3) 0.13842(15) -0.17842(14)
O4F O 0.3818(3) 0.25169(12) -0.16980(15)
C1F C 0.2451(3) 0.19098(18) 0.05484(17)
H2F H 0.2408 0.1509 0.0916
C2F C 0.2772(3) 0.16623(17) -0.01233(16)
C3F C 0.2808(3) 0.22584(19) -0.06866(17)
C4F C 0.3217(3) 0.07689(18) -0.01676(18)
C5F C 0.3055(3) 0.20198(19) -0.14501(17)
N1A N 0.1220(3) 0.34560(16) 0.31259(14)
N2A N 0.1260(3) 0.15615(18) 0.31540(16)
N3A N 0.2366(3) 0.24997(16) 0.42198(18)
C6A C 0.0391(3) 0.42384(18) 0.29325(17)
H3A H -0.0308 0.4231 0.3222
C7A C 0.1204(16) 0.4996(8) 0.3146(9)
H4A H 0.1600 0.5012 0.3700
H5A H 0.0611 0.5473 0.2984
H6A H 0.1937 0.5006 0.2896
C8A C 0.1721(3) 0.3323(2) 0.39706(17)
H7A H 0.0941 0.3395 0.4187
H8A H 0.2399 0.3754 0.4191
C9A C 0.1503(4) 0.1749(2) 0.39879(19)
H9A H 0.0614 0.1830 0.4096
H10A H 0.1962 0.1277 0.4293
C10A C 0.3772(4) 0.2369(3) 0.4097(2)
H11A H 0.4282 0.1957 0.4465
H12A H 0.4292 0.2888 0.4194
C11A C 0.3650(4) 0.2075(3) 0.3272(2)
H13A H 0.3347 0.2537 0.2916
H14A H 0.4561 0.1899 0.3239
C12A C 0.2648(5) 0.1370(3) 0.3032(2)
H15A H 0.3032 0.0876 0.3330
H16A H 0.2527 0.1247 0.2487
C13A C 0.0342(6) 0.0821(2) 0.2937(2)
H17A H -0.0370 0.0834 0.3210
H18A H 0.0886 0.0316 0.3085
H19A H 0.186(4) 0.350(2) 0.296(2)
Ni1F Ni 0.5000 0.24776(3) -0.2500
O4A O -0.1182(3) 0.24831(12) 0.33020(15)
loop_
_geom_bond_atom_site_label_1
_geom_bond_atom_site_label_2
_geom_bond_site_symmetry_1
_geom_bond_site_symmetry_2
Ni1 O4 1_555 1_555
O1 H1 1_555 1_555
O2 C4 1_555 1_555
O3 C5 1_555 1_555
O4 C5 1_555 1_555
N1 Ni1 1_555 1_555
N2 Ni1 1_555 1_555
N3 C8 1_555 1_555
C1 H2 1_555 1_555
C2 C1 1_555 1_555
C3 C2 1_555 1_555
C4 O1 1_555 1_555
C5 C3 1_555 1_555
C6 N1 1_555 1_555
H3 C6 1_555 1_555
C7 C6 1_555 1_555
H4 C7 1_555 1_555
H5 C7 1_555 1_555
H6 C7 1_555 1_555
C8 N1 1_555 1_555
H7 C8 1_555 1_555
H8 C8 1_555 1_555
C9 N2 1_555 1_555
H9 C9 1_555 1_555
H10 C9 1_555 1_555
C10 N3 1_555 1_555
H11 C10 1_555 1_555
H12 C10 1_555 1_555
C11 C10 1_555 1_555
H13 C11 1_555 1_555
H14 C11 1_555 1_555
C12 N2 1_555 1_555
H15 C12 1_555 1_555
H16 C12 1_555 1_555
C13 N2 1_555 1_555
H17 C13 1_555 1_555
H18 C13 1_555 1_555
H19 N1 1_555 1_555
O1F H1F 1_555 1_555
O2F C4F 1_555 1_555
O3F C5F 1_555 1_555
O4F C5F 1_555 1_555
C1F C3 1_555 1_555
H2F C1F 1_555 1_555
C2F C1F 1_555 1_555
C3F C1 1_555 1_555
C4F O1F 1_555 1_555
C5F C3F 1_555 1_555
N1A Ni1 1_555 1_555
N2A Ni1 1_555 1_555
N3A C8A 1_555 1_555
C6A C6 1_555 1_555
H3A C6A 1_555 1_555
C7A C6A 1_555 1_555
H4A C7A 1_555 1_555
H5A C7A 1_555 1_555
H6A C7A 1_555 1_555
C8A N1A 1_555 1_555
H7A C8A 1_555 1_555
H8A C8A 1_555 1_555
C9A N2A 1_555 1_555
H9A C9A 1_555 1_555
H10A C9A 1_555 1_555
C10A N3A 1_555 1_555
H11A C10A 1_555 1_555
H12A C10A 1_555 1_555
C11A C10A 1_555 1_555
H13A C11A 1_555 1_555
H14A C11A 1_555 1_555
C12A N2A 1_555 1_555
H15A C12A 1_555 1_555
H16A C12A 1_555 1_555
C13A C13 1_555 1_555
H17A C13A 1_555 1_555
H18A C13A 1_555 1_555
H19A N1A 1_555 1_555
Ni1F O4F 1_555 1_555
O4A Ni1 1_555 1_555
N3 C9 1_555 1_555
C2 C4 1_555 1_555
C11 C12 1_555 1_555
C2F C3F 1_555 1_555
C2F C4F 1_555 1_555
N1A C6A 1_555 1_555
N2A C13A 1_555 1_555
N3A C9A 1_555 1_555
C11A C12A 1_555 1_555

#END
