
#######################################################################
#
#                 Cambridge Crystallographic Data Centre
#                                CCDC 
#
#######################################################################
#
# If this CIF has been generated from an entry in the Cambridge 
# Structural Database, then it will include bibliographic, chemical, 
# crystal, experimental, refinement or atomic coordinate data resulting 
# from the CCDC's data processing and validation procedures.
#
#######################################################################

data_YOCDEB
_symmetry_cell_setting           monoclinic
_symmetry_space_group_name_H-M   'C 2/c'
_symmetry_Int_Tables_number      15
_space_group_name_Hall           '-C 2yn'
loop_
_symmetry_equiv_pos_site_id
_symmetry_equiv_pos_as_xyz
1 x,y,z
2 -x,y,1/2-z
3 1/2+x,1/2+y,z
4 1/2-x,1/2+y,1/2-z
5 -x,-y,-z
6 x,-y,1/2+z
7 1/2-x,1/2-y,-z
8 1/2+x,1/2-y,1/2+z
_cell_length_a                   14.0434(10)
_cell_length_b                   11.7692(7)
_cell_length_c                   10.8618(8)
_cell_angle_alpha                90
_cell_angle_beta                 111.890(8)
_cell_angle_gamma                90
_cell_volume                     1665.8
loop_
_atom_site_label
_atom_site_type_symbol
_atom_site_fract_x
_atom_site_fract_y
_atom_site_fract_z
Co1 Co 0.0000 0.45281(7) 0.2500
C1 C -0.1612(4) 0.6392(4) 0.1209(4)
C2 C -0.2111(4) 0.7166(4) 0.0064(5)
H1 H -0.1852 0.7176 -0.0608
C3 C 0.1430(4) 0.2426(4) 0.3347(5)
H2 H 0.1642 0.2519 0.2638
C4 C 0.1631(4) 0.1518(4) 0.4153(5)
H3 H 0.1997 0.0874 0.4100
C5 C 0.0733(4) 0.2737(4) 0.4768(5)
H4 H 0.0370 0.3073 0.5233
C6 C 0.1151(5) 0.0941(5) 0.6094(6)
H5 H 0.0877 0.1340 0.6671
H6 H 0.1839 0.0689 0.6627
C7 C 0.0481(5) -0.0089(6) 0.5493(7)
H7 H 0.0864 -0.0584 0.5131
H8 H 0.0381 -0.0500 0.6210
O1 O -0.1039(2) 0.4610(3) 0.3527(3)
H9 H -0.1448 0.5165 0.3234
H10 H -0.0918 0.4548 0.4351
O2 O -0.0890(3) 0.5775(3) 0.1143(3)
O3 O -0.1926(3) 0.6395(4) 0.2130(4)
N1 N 0.0860(3) 0.3197(3) 0.3737(4)
N2 N 0.1195(3) 0.1720(4) 0.5064(4)
C1F C -0.3388(4) 0.8608(4) -0.1209(4)
C2F C -0.2889(4) 0.7834(4) -0.0064(5)
H1F H -0.3148 0.7824 0.0608
O2F O -0.4110(3) 0.9225(3) -0.1143(3)
O3F O -0.3074(3) 0.8605(4) -0.2130(4)
C3D C -0.1430(4) -0.2426(4) 0.6653(5)
H2D H -0.1642 -0.2519 0.7362
C4D C -0.1631(4) -0.1518(4) 0.5847(5)
H3D H -0.1997 -0.0874 0.5900
C5D C -0.0733(4) -0.2737(4) 0.5232(5)
H4D H -0.0370 -0.3073 0.4767
C6D C -0.1151(5) -0.0941(5) 0.3906(6)
H5D H -0.0877 -0.1340 0.3329
H6D H -0.1839 -0.0689 0.3373
C7D C -0.0481(5) 0.0089(6) 0.4507(7)
H7D H -0.0864 0.0584 0.4869
H8D H -0.0381 0.0500 0.3790
N1D N -0.0860(3) -0.3197(3) 0.6263(4)
N2D N -0.1195(3) -0.1720(4) 0.4936(4)
O1A O 0.1039(2) 0.4610(3) 0.1473(3)
H9A H 0.1448 0.5165 0.1766
H10A H 0.0918 0.4548 0.0649
Co1D Co 0.0000 -0.45281(7) 0.7500
Co1F Co -0.5000 1.04719(7) -0.2500
O2A O 0.0890(3) 0.5775(3) 0.3857(3)
N1A N -0.0860(3) 0.3197(3) 0.1263(4)
loop_
_geom_bond_atom_site_label_1
_geom_bond_atom_site_label_2
_geom_bond_site_symmetry_1
_geom_bond_site_symmetry_2
Co1 O1 1_555 1_555
C1 C2 1_555 1_555
C2 H1 1_555 1_555
C3 H2 1_555 1_555
C4 C3 1_555 1_555
H3 C4 1_555 1_555
C5 H4 1_555 1_555
C6 H5 1_555 1_555
H6 C6 1_555 1_555
C7 C6 1_555 1_555
H7 C7 1_555 1_555
H8 C7 1_555 1_555
O1 H9 1_555 1_555
H10 O1 1_555 1_555
O2 Co1 1_555 1_555
O3 C1 1_555 1_555
N1 Co1 1_555 1_555
N2 C4 1_555 1_555
C1F C2F 1_555 1_555
C2F C2 1_555 1_555
H1F C2F 1_555 1_555
O2F C1F 1_555 1_555
O3F C1F 1_555 1_555
C3D H2D 1_555 1_555
C4D C3D 1_555 1_555
H3D C4D 1_555 1_555
C5D H4D 1_555 1_555
C6D H5D 1_555 1_555
H6D C6D 1_555 1_555
C7D C7 1_555 1_555
H7D C7D 1_555 1_555
H8D C7D 1_555 1_555
N1D C3D 1_555 1_555
N2D C4D 1_555 1_555
O1A Co1 1_555 1_555
H9A O1A 1_555 1_555
H10A O1A 1_555 1_555
Co1D N1D 1_555 1_555
Co1F O2F 1_555 1_555
O2A Co1 1_555 1_555
N1A Co1 1_555 1_555
C1 O2 1_555 1_555
C3 N1 1_555 1_555
C5 N1 1_555 1_555
C5 N2 1_555 1_555
C6 N2 1_555 1_555
C5D N1D 1_555 1_555
C5D N2D 1_555 1_555
C6D C7D 1_555 1_555
C6D N2D 1_555 1_555

#END
