
#######################################################################
#
#                 Cambridge Crystallographic Data Centre
#                                CCDC 
#
#######################################################################
#
# If this CIF has been generated from an entry in the Cambridge 
# Structural Database, then it will include bibliographic, chemical, 
# crystal, experimental, refinement or atomic coordinate data resulting 
# from the CCDC's data processing and validation procedures.
#
#######################################################################

data_YOCFIH
_symmetry_cell_setting           monoclinic
_symmetry_space_group_name_H-M   'P 21/c'
_symmetry_Int_Tables_number      14
_space_group_name_Hall           '-P 2ybc'
loop_
_symmetry_equiv_pos_site_id
_symmetry_equiv_pos_as_xyz
1 x,y,z
2 -x,1/2+y,1/2-z
3 -x,-y,-z
4 x,1/2-y,1/2+z
_cell_length_a                   10.7916(6)
_cell_length_b                   18.5791(11)
_cell_length_c                   11.2595(6)
_cell_angle_alpha                90
_cell_angle_beta                 118.5770(10)
_cell_angle_gamma                90
_cell_volume                     1982.49
loop_
_atom_site_label
_atom_site_type_symbol
_atom_site_fract_x
_atom_site_fract_y
_atom_site_fract_z
Ag1 Ag 0.39388(5) 0.29643(3) 1.39875(5)
Ag2 Ag 0.55125(5) 0.25071(3) 1.27068(5)
S1 S -0.26056(15) 0.41015(8) 0.79330(15)
O1 O -0.2771(5) 0.2813(3) 0.4768(4)
O2 O -0.4072(4) 0.2804(3) 0.5814(4)
O3 O -0.3102(5) 0.4357(2) 0.6572(5)
O4 O -0.3722(5) 0.3812(3) 0.8157(6)
O5 O -0.1774(5) 0.4640(3) 0.8924(6)
O6 O 0.2257(5) 0.3126(3) 1.1943(5)
O7 O 0.3308(5) 0.2572(3) 1.0925(5)
O8 O 0.3841(8) 0.4227(4) 1.4817(7)
H1 H 0.4666 0.4355 1.5405
H2 H 0.3531 0.4517 1.4153
C1 C -0.2916(6) 0.2846(3) 0.5789(6)
C2 C -0.1593(6) 0.2902(3) 0.7141(6)
C3 C -0.1392(6) 0.3389(3) 0.8162(5)
C4 C -0.0145(6) 0.3374(3) 0.9396(6)
H3 H -0.0016 0.3699 1.0074
C5 C 0.0907(6) 0.2872(3) 0.9616(6)
C6 C 0.0699(6) 0.2398(3) 0.8576(7)
H4 H 0.1398 0.2066 0.8710
C7 C -0.0513(6) 0.2413(3) 0.7365(6)
H5 H -0.0624 0.2095 0.6682
C8 C 0.2269(6) 0.2851(3) 1.0921(6)
Ag1_2 Ag -0.60612(5) 0.29643(3) 0.39875(5)
Ag2_2 Ag -0.44875(5) 0.25071(3) 0.27068(5)
Ag2C Ag -0.44875(5) 0.24929(3) 0.77068(5)
O1_2 O 0.7229(5) 0.2813(3) 1.4768(4)
O2_2 O 0.5928(4) 0.2804(3) 1.5814(4)
O2C O 0.5928(4) 0.2196(3) 1.0814(4)
O4C O 0.6278(5) 0.1188(3) 1.3157(6)
N1 N 0.5284(7) 0.0926(3) 0.5415(7)
N2 N 0.3077(8) 0.0559(3) 0.5013(8)
H6 H 0.2949 0.0096 0.5159
H7 H 0.2572 0.0815 0.5310
N3 N 0.3088(7) 0.0908(3) 0.3063(7)
C9 C 0.6636(9) 0.1088(4) 0.6248(9)
H8 H 0.7206 0.1245 0.5888
C10 C 0.7187(9) 0.1030(4) 0.7601(8)
H9 H 0.8126 0.1151 0.8161
C11 C 0.6372(9) 0.0791(4) 0.8166(8)
H10 H 0.6750 0.0748 0.9098
C12 C 0.5007(9) 0.0622(4) 0.7323(9)
H11 H 0.4444 0.0454 0.7682
C13 C 0.4436(8) 0.0694(3) 0.5944(8)
C14 C 0.2342(9) 0.0628(4) 0.3656(8)
C15 C 0.0943(9) 0.0448(4) 0.2913(9)
H12 H 0.0461 0.0237 0.3322
C16 C 0.0279(10) 0.0587(5) 0.1558(10)
H13 H -0.0682 0.0500 0.1032
C17 C 0.1045(11) 0.0854(6) 0.0995(10)
H14 H 0.0613 0.0926 0.0065
C18 C 0.2378(11) 0.1011(5) 0.1733(9)
H15 H 0.2857 0.1206 0.1307
loop_
_geom_bond_atom_site_label_1
_geom_bond_atom_site_label_2
_geom_bond_site_symmetry_1
_geom_bond_site_symmetry_2
Ag1 Ag2 1_555 1_555
Ag2 O7 1_555 1_555
S1 O3 1_555 1_555
O1 C1 1_555 1_555
O2 C1 1_555 1_555
O4 S1 1_555 1_555
O5 S1 1_555 1_555
O6 Ag1 1_555 1_555
O7 C8 1_555 1_555
O8 Ag1 1_555 1_555
H1 O8 1_555 1_555
H2 O8 1_555 1_555
C1 C2 1_555 1_555
C2 C3 1_555 1_555
C3 S1 1_555 1_555
C4 C3 1_555 1_555
H3 C4 1_555 1_555
C5 C4 1_555 1_555
C6 C5 1_555 1_555
H4 C6 1_555 1_555
C7 C2 1_555 1_555
H5 C7 1_555 1_555
C8 O6 1_555 1_555
N1 C9 1_555 1_555
N2 H6 1_555 1_555
H7 N2 1_555 1_555
N3 C14 1_555 1_555
C9 H8 1_555 1_555
C10 C9 1_555 1_555
H9 C10 1_555 1_555
C11 C10 1_555 1_555
H10 C11 1_555 1_555
C12 C11 1_555 1_555
H11 C12 1_555 1_555
C13 N1 1_555 1_555
C14 N2 1_555 1_555
C15 C14 1_555 1_555
H12 C15 1_555 1_555
C16 C15 1_555 1_555
H13 C16 1_555 1_555
C17 C16 1_555 1_555
H14 C17 1_555 1_555
C18 N3 1_555 1_555
H15 C18 1_555 1_555
Ag1_2 O2 1_555 1_555
Ag2_2 O1 1_555 1_555
Ag2C O2 1_555 1_555
O1_2 Ag2 1_555 1_555
O2_2 Ag1 1_555 1_555
O2C Ag2 1_555 1_555
O4C Ag2 1_555 1_555
O4 Ag2C 1_555 1_555
C5 C8 1_555 1_555
C6 C7 1_555 1_555
N2 C13 1_555 1_555
C12 C13 1_555 1_555
C17 C18 1_555 1_555
Ag1_2 Ag2_2 1_555 1_555

#END
