
#######################################################################
#
#                 Cambridge Crystallographic Data Centre
#                                CCDC 
#
#######################################################################
#
# If this CIF has been generated from an entry in the Cambridge 
# Structural Database, then it will include bibliographic, chemical, 
# crystal, experimental, refinement or atomic coordinate data resulting 
# from the CCDC's data processing and validation procedures.
#
#######################################################################

data_YOCHOP
_symmetry_cell_setting           monoclinic
_symmetry_space_group_name_H-M   'C 2/c'
_symmetry_Int_Tables_number      15
_space_group_name_Hall           '-C 2yn'
loop_
_symmetry_equiv_pos_site_id
_symmetry_equiv_pos_as_xyz
1 x,y,z
2 -x,y,1/2-z
3 1/2+x,1/2+y,z
4 1/2-x,1/2+y,1/2-z
5 -x,-y,-z
6 x,-y,1/2+z
7 1/2-x,1/2-y,-z
8 1/2+x,1/2-y,1/2+z
_cell_length_a                   31.738(5)
_cell_length_b                   9.6199(14)
_cell_length_c                   16.300(2)
_cell_angle_alpha                90
_cell_angle_beta                 91.566(2)
_cell_angle_gamma                90
_cell_volume                     4974.8
loop_
_atom_site_label
_atom_site_type_symbol
_atom_site_fract_x
_atom_site_fract_y
_atom_site_fract_z
C1 C 0.39650(12) 0.8719(4) 0.7376(3)
H1 H 0.4083 0.9583 0.7585
H2 H 0.3815 0.8916 0.6863
C2 C 0.43191(11) 0.7677(5) 0.7227(2)
H3 H 0.4479 0.7553 0.7745
C3 C 0.46052(16) 0.8319(6) 0.6623(3)
H4 H 0.4847 0.7734 0.6558
H5 H 0.4695 0.9216 0.6819
H6 H 0.4458 0.8422 0.6104
C4 C 0.44205(11) 0.5126(5) 0.6958(2)
H7 H 0.4596 0.5244 0.6485
H8 H 0.4605 0.5143 0.7443
C5 C 0.40082(11) 0.3325(4) 0.7638(2)
H9 H 0.4151 0.3686 0.8127
H10 H 0.3997 0.2319 0.7673
C6 C 0.38907(14) 0.3629(5) 0.6245(2)
H11 H 0.3944 0.2822 0.5906
H12 H 0.3885 0.4449 0.5898
C7 C 0.34728(12) 0.3468(4) 0.6688(2)
H13 H 0.3255 0.4049 0.6438
H14 H 0.3378 0.2509 0.6679
C8 C 0.32741(11) 0.3474(4) 0.8159(2)
H15 H 0.3414 0.3431 0.8694
H16 H 0.3169 0.2553 0.8023
C9 C 0.29106(10) 0.4496(4) 0.8179(2)
H17 H 0.2766 0.4520 0.7647
H18 H 0.2711 0.4199 0.8583
C10 C 0.31267(12) 0.6168(4) 0.9283(2)
H19 H 0.3395 0.5808 0.9488
H20 H 0.2902 0.5747 0.9589
C11 C 0.27775(10) 0.7037(4) 0.8158(2)
H21 H 0.2758 0.7146 0.7566
H22 H 0.2498 0.6862 0.8361
C12 C 0.31134(14) 0.7741(5) 0.9351(2)
H23 H 0.2924 0.8024 0.9777
H24 H 0.3392 0.8107 0.9483
C13 C 0.32764(12) 0.8939(4) 0.8066(3)
H25 H 0.3345 0.9821 0.8326
H26 H 0.3157 0.9139 0.7525
C14 C 0.42805(10) 0.6383(4) 0.92090(19)
C15 C 0.46497(9) 0.5650(3) 0.96288(17)
C16 C 0.46837(10) 0.4228(3) 0.9627(2)
H27 H 0.4472 0.3694 0.9379
C17 C 0.49685(11) 0.6420(4) 1.0007(2)
H28 H 0.4949 0.7385 1.0016
C18 C 0.32625(9) 0.6903(4) 0.59479(19)
C19 C 0.28656(8) 0.7220(3) 0.54600(16)
C20 C 0.28622(9) 0.8241(3) 0.48627(17)
H29 H 0.3107 0.8742 0.4769
C21 C 0.24997(9) 0.6475(3) 0.55964(17)
H30 H 0.2498 0.5786 0.5996
N1 N 0.36737(9) 0.8144(3) 0.7968(2)
N2 N 0.41281(8) 0.6321(4) 0.69967(19)
N3 N 0.35760(8) 0.3925(3) 0.75373(16)
N4 N 0.30690(8) 0.5890(3) 0.83891(15)
N5 N 0.29607(10) 0.8253(3) 0.8540(2)
N6 N 0.42197(10) 0.3765(4) 0.6904(2)
Ni1 Ni 0.361891(11) 0.60741(4) 0.77126(2)
O1 O 0.40382(7) 0.5646(2) 0.87643(13)
O2 O 0.42434(8) 0.7653(3) 0.93170(16)
O3 O 0.32153(6) 0.6453(3) 0.66653(12)
O4 O 0.36054(7) 0.7095(4) 0.56171(16)
H31 H 0.3828(14) 0.810(4) 0.844(3)
H32 H 0.4027(13) 0.645(4) 0.654(3)
C14D C 0.57195(10) 0.3617(4) 1.07910(19)
C15D C 0.53503(9) 0.4350(3) 1.03712(17)
C16D C 0.53163(10) 0.5772(3) 1.0373(2)
H27D H 0.5528 0.6306 1.0621
C17D C 0.50315(11) 0.3580(4) 0.9993(2)
H28D H 0.5051 0.2615 0.9984
O1D O 0.59618(7) 0.4354(2) 1.12357(13)
O2D O 0.57566(8) 0.2347(3) 1.06830(16)
C18F C 0.17375(9) 0.8097(4) 0.40521(19)
C19F C 0.21344(8) 0.7780(3) 0.45400(16)
C20F C 0.21378(9) 0.6759(3) 0.51373(17)
H29F H 0.1893 0.6258 0.5231
C21F C 0.25003(9) 0.8525(3) 0.44036(17)
H30F H 0.2502 0.9214 0.4004
O3F O 0.17847(6) 0.8547(3) 0.33347(12)
O4F O 0.13946(7) 0.7905(4) 0.43829(16)
C1D C 0.60350(12) 0.1281(4) 1.2624(3)
H1D H 0.5917 0.0417 1.2415
H2D H 0.6185 0.1084 1.3137
C2D C 0.56809(11) 0.2323(5) 1.2773(2)
H3D H 0.5521 0.2447 1.2255
C3D C 0.53948(16) 0.1681(6) 1.3377(3)
H4D H 0.5153 0.2266 1.3442
H5D H 0.5305 0.0784 1.3181
H6D H 0.5542 0.1578 1.3896
C4D C 0.55795(11) 0.4874(5) 1.3042(2)
H7D H 0.5404 0.4756 1.3515
H8D H 0.5395 0.4857 1.2557
C5D C 0.59918(11) 0.6675(4) 1.2362(2)
H9D H 0.5849 0.6314 1.1873
H10D H 0.6003 0.7681 1.2327
C6D C 0.61093(14) 0.6371(5) 1.3755(2)
H11D H 0.6056 0.7178 1.4094
H12D H 0.6115 0.5551 1.4102
C7D C 0.65272(12) 0.6532(4) 1.3312(2)
H13D H 0.6745 0.5951 1.3562
H14D H 0.6622 0.7491 1.3321
C8D C 0.67259(11) 0.6526(4) 1.1841(2)
H15D H 0.6586 0.6569 1.1306
H16D H 0.6831 0.7447 1.1977
C9D C 0.70894(10) 0.5504(4) 1.1821(2)
H17D H 0.7234 0.5480 1.2353
H18D H 0.7289 0.5801 1.1417
C10D C 0.68733(12) 0.3832(4) 1.0717(2)
H19D H 0.6605 0.4192 1.0512
H20D H 0.7098 0.4253 1.0411
C11D C 0.72225(10) 0.2963(4) 1.1842(2)
H21D H 0.7242 0.2854 1.2434
H22D H 0.7502 0.3138 1.1639
C12D C 0.68866(14) 0.2259(5) 1.0649(2)
H23D H 0.7076 0.1976 1.0223
H24D H 0.6608 0.1893 1.0517
C13D C 0.67236(12) 0.1061(4) 1.1934(3)
H25D H 0.6655 0.0179 1.1674
H26D H 0.6843 0.0861 1.2475
N1D N 0.63263(9) 0.1856(3) 1.2032(2)
N2D N 0.58719(8) 0.3679(4) 1.30033(19)
N3D N 0.64240(8) 0.6075(3) 1.24627(16)
N4D N 0.69310(8) 0.4110(3) 1.16109(15)
N5D N 0.70393(10) 0.1747(3) 1.1460(2)
N6D N 0.57803(10) 0.6235(4) 1.3096(2)
Ni1D Ni 0.638109(11) 0.39259(4) 1.22874(2)
H31D H 0.6172(14) 0.190(4) 1.156(3)
H32D H 0.5973(13) 0.355(4) 1.346(3)
Ni1F Ni 0.138109(11) 0.89259(4) 0.22874(2)
O3D O 0.67847(6) 0.3547(3) 1.33347(12)
O5 O 0.46830(12) 1.0145(4) 0.9422(3)
O6 O 0.4939(3) 0.1803(7) 0.6829(5)
O7 O 0.38772(11) 0.8791(4) 0.4352(2)
loop_
_geom_bond_atom_site_label_1
_geom_bond_atom_site_label_2
_geom_bond_site_symmetry_1
_geom_bond_site_symmetry_2
C1 H1 1_555 1_555
H2 C1 1_555 1_555
C2 C1 1_555 1_555
H3 C2 1_555 1_555
C3 C2 1_555 1_555
H4 C3 1_555 1_555
H5 C3 1_555 1_555
H6 C3 1_555 1_555
C4 H7 1_555 1_555
H8 C4 1_555 1_555
C5 H9 1_555 1_555
H10 C5 1_555 1_555
C6 H11 1_555 1_555
H12 C6 1_555 1_555
C7 C6 1_555 1_555
H13 C7 1_555 1_555
H14 C7 1_555 1_555
C8 H15 1_555 1_555
H16 C8 1_555 1_555
C9 C8 1_555 1_555
H17 C9 1_555 1_555
H18 C9 1_555 1_555
C10 H19 1_555 1_555
H20 C10 1_555 1_555
C11 H21 1_555 1_555
H22 C11 1_555 1_555
C12 C10 1_555 1_555
H23 C12 1_555 1_555
H24 C12 1_555 1_555
C13 H25 1_555 1_555
H26 C13 1_555 1_555
C14 C15 1_555 1_555
C15 C16 1_555 1_555
C16 H27 1_555 1_555
C17 C15 1_555 1_555
H28 C17 1_555 1_555
C18 C19 1_555 1_555
C19 C20 1_555 1_555
C20 H29 1_555 1_555
C21 C19 1_555 1_555
H30 C21 1_555 1_555
N1 C1 1_555 1_555
N2 C2 1_555 1_555
N3 C5 1_555 1_555
N4 C9 1_555 1_555
N5 C11 1_555 1_555
N6 C4 1_555 1_555
Ni1 N1 1_555 1_555
O1 C14 1_555 1_555
O2 C14 1_555 1_555
O3 C18 1_555 1_555
O4 C18 1_555 1_555
H31 N1 1_555 1_555
H32 N2 1_555 1_555
C14D C15D 1_555 1_555
C15D C16D 1_555 1_555
C16D C17 1_555 1_555
H27D C16D 1_555 1_555
C17D C16 1_555 1_555
H28D C17D 1_555 1_555
O1D C14D 1_555 1_555
O2D C14D 1_555 1_555
C18F C19F 1_555 1_555
C19F C20F 1_555 1_555
C20F C21 1_555 1_555
H29F C20F 1_555 1_555
C21F C20 1_555 1_555
H30F C21F 1_555 1_555
O3F C18F 1_555 1_555
O4F C18F 1_555 1_555
C1D H1D 1_555 1_555
H2D C1D 1_555 1_555
C2D C1D 1_555 1_555
H3D C2D 1_555 1_555
C3D C2D 1_555 1_555
H4D C3D 1_555 1_555
H5D C3D 1_555 1_555
H6D C3D 1_555 1_555
C4D H7D 1_555 1_555
H8D C4D 1_555 1_555
C5D H9D 1_555 1_555
H10D C5D 1_555 1_555
C6D H11D 1_555 1_555
H12D C6D 1_555 1_555
C7D C6D 1_555 1_555
H13D C7D 1_555 1_555
H14D C7D 1_555 1_555
C8D H15D 1_555 1_555
H16D C8D 1_555 1_555
C9D C8D 1_555 1_555
H17D C9D 1_555 1_555
H18D C9D 1_555 1_555
C10D H19D 1_555 1_555
H20D C10D 1_555 1_555
C11D H21D 1_555 1_555
H22D C11D 1_555 1_555
C12D C10D 1_555 1_555
H23D C12D 1_555 1_555
H24D C12D 1_555 1_555
C13D H25D 1_555 1_555
H26D C13D 1_555 1_555
N1D C1D 1_555 1_555
N2D C2D 1_555 1_555
N3D C5D 1_555 1_555
N4D C9D 1_555 1_555
N5D C11D 1_555 1_555
N6D C4D 1_555 1_555
Ni1D O1D 1_555 1_555
H31D N1D 1_555 1_555
H32D N2D 1_555 1_555
Ni1F O3F 1_555 1_555
O3D Ni1D 1_555 1_555
C4 N2 1_555 1_555
C5 N6 1_555 1_555
C6 N6 1_555 1_555
C7 N3 1_555 1_555
C8 N3 1_555 1_555
C10 N4 1_555 1_555
C11 N4 1_555 1_555
C12 N5 1_555 1_555
C13 N1 1_555 1_555
C13 N5 1_555 1_555
N2 Ni1 1_555 1_555
N3 Ni1 1_555 1_555
N4 Ni1 1_555 1_555
Ni1 O1 1_555 1_555
Ni1 O3 1_555 1_555
C15D C17D 1_555 1_555
C19F C21F 1_555 1_555
C4D N2D 1_555 1_555
C5D N6D 1_555 1_555
C6D N6D 1_555 1_555
C7D N3D 1_555 1_555
C8D N3D 1_555 1_555
C10D N4D 1_555 1_555
C11D N4D 1_555 1_555
C12D N5D 1_555 1_555
C13D N1D 1_555 1_555
C13D N5D 1_555 1_555
N1D Ni1D 1_555 1_555
N2D Ni1D 1_555 1_555
N3D Ni1D 1_555 1_555
N4D Ni1D 1_555 1_555

#END
