
#######################################################################
#
#                 Cambridge Crystallographic Data Centre
#                                CCDC 
#
#######################################################################
#
# If this CIF has been generated from an entry in the Cambridge 
# Structural Database, then it will include bibliographic, chemical, 
# crystal, experimental, refinement or atomic coordinate data resulting 
# from the CCDC's data processing and validation procedures.
#
#######################################################################

data_YOCHEF
_symmetry_cell_setting           monoclinic
_symmetry_space_group_name_H-M   'P c'
_symmetry_Int_Tables_number      7
_space_group_name_Hall           'P -2yc'
loop_
_symmetry_equiv_pos_site_id
_symmetry_equiv_pos_as_xyz
1 x,y,z
2 x,-y,1/2+z
_cell_length_a                   12.8679(3)
_cell_length_b                   16.4521(4)
_cell_length_c                   17.3925(4)
_cell_angle_alpha                90
_cell_angle_beta                 104.763(3)
_cell_angle_gamma                90
_cell_volume                     3560.51
loop_
_atom_site_label
_atom_site_type_symbol
_atom_site_fract_x
_atom_site_fract_y
_atom_site_fract_z
W1 W -0.18260(6) -0.33261(5) 0.62085(4)
O1 O -0.2744(12) -0.3550(9) 0.6719(8)
O2 O -0.2193(11) -0.2247(8) 0.5890(8)
O3 O -0.2545(9) -0.3729(7) 0.5194(6)
O4 O -0.1036(10) -0.4317(8) 0.6340(7)
O5 O -0.0669(11) -0.2892(7) 0.7014(7)
O6 O -0.0638(8) -0.3271(6) 0.5381(6)
Cu1 Cu -0.4567(2) -0.29176(15) 0.65906(14)
W2 W -0.17842(6) -0.11526(5) 0.57998(4)
W3 W -0.19447(6) -0.37927(5) 0.42803(4)
W4 W 0.00484(6) -0.45843(4) 0.57704(4)
W5 W 0.03460(6) -0.20608(5) 0.73645(4)
Si1 Si 0.0119(4) -0.2486(3) 0.5340(3)
N1 N -0.4872(12) -0.2830(9) 0.5416(9)
N2 N -0.4514(12) -0.1681(10) 0.6499(10)
O7 O -0.5098(11) -0.4037(7) 0.6511(7)
N3 N -0.4244(11) -0.2984(8) 0.7750(7)
O8 O -0.0985(10) -0.0267(7) 0.5522(7)
O9 O -0.2685(12) -0.0599(8) 0.6172(8)
O10 O -0.2556(10) -0.1260(9) 0.4746(7)
O11 O -0.0641(10) -0.1357(8) 0.6719(8)
O12 O -0.0642(9) -0.1695(6) 0.5087(5)
O13 O -0.1101(11) -0.4693(7) 0.4843(7)
O14 O -0.2305(9) -0.2695(7) 0.4083(7)
O15 O -0.0912(9) -0.3618(7) 0.3689(7)
O16 O -0.2953(12) -0.4308(10) 0.3663(9)
O17 O 0.0254(12) -0.5573(8) 0.6020(7)
O18 O 0.0978(10) -0.4363(7) 0.5092(7)
O19 O 0.1087(10) -0.4066(8) 0.6588(6)
O20 O 0.1480(10) -0.1265(7) 0.7296(7)
O21 O 0.1490(11) -0.2860(8) 0.7632(7)
O22 O 0.0220(13) -0.1855(8) 0.8291(7)
O23 O 0.0950(9) -0.2345(7) 0.6223(6)
O24 O 0.0820(8) -0.2661(6) 0.4691(6)
C1 C -0.4917(16) -0.3445(14) 0.4900(10)
C2 C -0.4928(16) -0.2055(12) 0.5123(11)
C3 C -0.4406(13) -0.1003(10) 0.6928(9)
C4 C -0.4881(14) -0.1432(12) 0.5713(10)
W6 W 0.00441(6) -0.03960(4) 0.48941(4)
W7 W -0.19777(6) -0.16123(5) 0.38680(4)
W8 W 0.00206(7) -0.29291(5) 0.33285(4)
W9 W 0.20157(6) -0.37473(5) 0.47928(4)
W10 W 0.22060(6) -0.32868(5) 0.68837(4)
W11 W 0.21877(6) -0.12727(5) 0.64693(4)
W12 W 0.20213(6) -0.17280(5) 0.43845(4)
H1 H -0.4862 -0.3974 0.5094
C5 C -0.5036(18) -0.3334(15) 0.4120(13)
C6 C -0.4992(15) -0.1904(13) 0.4313(12)
C7 C -0.3922(10) -0.0928(7) 0.7748(5)
N4 N -0.4731(10) -0.0404(8) 0.6411(7)
N5 N -0.5028(11) -0.0662(9) 0.5644(8)
O25 O 0.0946(9) -0.0927(8) 0.4370(7)
O26 O -0.1132(10) -0.0622(8) 0.4007(7)
O27 O 0.0275(12) 0.0604(8) 0.4739(7)
O28 O 0.1097(10) -0.0611(8) 0.5870(7)
O29 O -0.2945(11) -0.1346(9) 0.3065(7)
O30 O -0.0912(10) -0.2081(7) 0.3406(7)
O31 O 0.1158(12) -0.2160(8) 0.3386(8)
O32 O -0.0260(12) -0.3162(8) 0.2342(7)
O33 O 0.1160(11) -0.3722(8) 0.3745(8)
O34 O 0.2933(12) -0.4448(9) 0.4695(9)
O35 O 0.2522(11) -0.3488(9) 0.5911(7)
O36 O 0.2705(10) -0.2767(8) 0.4547(7)
O37 O 0.2944(10) -0.2255(8) 0.6940(7)
O38 O 0.3194(11) -0.3823(9) 0.7511(8)
O39 O 0.2508(10) -0.1557(7) 0.5500(7)
O40 O 0.3132(12) -0.0588(8) 0.6889(8)
O41 O 0.2923(12) -0.1176(9) 0.4010(9)
H2 H -0.5110 -0.3783 0.3784
C8 C -0.5050(16) -0.2592(16) 0.3819(11)
H3 H -0.4995 -0.1378 0.4116
N6 N -0.2895(10) -0.1246(7) 0.8033(6)
C9 C -0.4428(8) -0.0544(8) 0.8266(7)
C10 C -0.4669(15) 0.0467(12) 0.6546(12)
Cu2 Cu 0.1276(2) 0.18190(14) 0.57812(13)
H4 H -0.5099 -0.2525 0.3280
C11 C -0.2374(8) -0.1179(8) 0.8836(7)
H5 H -0.5116 -0.0331 0.8075
C12 C -0.3907(11) -0.0477(7) 0.9068(6)
H6 H -0.4446 0.0722 0.6111
H7 H -0.4116 0.0574 0.7030
N7 N -0.5688(11) 0.0860(8) 0.6615(9)
N8 N 0.0493(13) 0.1280(9) 0.6497(8)
N9 N -0.0139(12) 0.2401(9) 0.5358(9)
O42 O 0.1750(10) 0.1900(9) 0.4793(6)
O43 O 0.1810(13) 0.2989(8) 0.6484(9)
N10 N 0.2718(13) 0.1378(10) 0.6326(9)
C13 C -0.2880(11) -0.0794(8) 0.9353(5)
H8 H -0.1686 -0.1391 0.9026
H9 H -0.4245 -0.0220 0.9414
C14 C -0.6592(15) 0.0983(10) 0.6041(10)
N11 N -0.5801(12) 0.1155(9) 0.7304(8)
C15 C 0.0841(17) 0.0718(12) 0.7062(11)
C16 C -0.0603(15) 0.1487(13) 0.6328(12)
C17 C -0.0710(16) 0.2985(11) 0.4872(10)
C18 C -0.0895(14) 0.2118(9) 0.5724(9)
H10 H -0.2531 -0.0750 0.9890
H11 H -0.6706 0.0811 0.5516
C19 C -0.6754(17) 0.1466(12) 0.7106(12)
H12 H 0.1561 0.0568 0.7180
C20 C 0.0180(16) 0.0343(11) 0.7487(11)
C21 C -0.1323(18) 0.1119(11) 0.6704(11)
C22 C -0.0271(16) 0.3503(11) 0.4316(10)
N12 N -0.1673(12) 0.3026(8) 0.4956(7)
N13 N -0.1828(11) 0.2468(9) 0.5510(7)
H13 H -0.7057 0.1730 0.7469
H14 H 0.0458 -0.0031 0.7887
C23 C -0.0897(16) 0.0548(11) 0.7290(10)
H15 H -0.2050 0.1249 0.6568
C24 C 0.074(2) 0.3633(13) 0.4437(11)
N14 N -0.0993(14) 0.3831(9) 0.3732(8)
C25 C -0.2519(17) 0.3622(13) 0.4636(10)
H16 H -0.1351 0.0298 0.7558
H17 H 0.1213 0.3394 0.4874
C26 C 0.1172(17) 0.4134(13) 0.3920(13)
C27 C -0.0637(18) 0.4321(11) 0.3253(9)
H18 H -0.2205 0.4102 0.4463
H19 H -0.2857 0.3785 0.5051
N15 N -0.3348(13) 0.3274(9) 0.3952(8)
H20 H 0.1904 0.4222 0.3992
C28 C 0.0404(18) 0.4472(12) 0.3311(11)
H21 H -0.1143 0.4579 0.2849
C29 C -0.3389(19) 0.3370(13) 0.3194(11)
N16 N -0.4189(12) 0.2808(9) 0.4051(8)
H22 H 0.0603 0.4803 0.2939
H23 H -0.2895 0.3663 0.2997
C30 C -0.4714(15) 0.2639(10) 0.3292(10)
H24 H -0.5331 0.2320 0.3152
N10_2 N -0.7282(13) 0.1378(10) 0.6326(9)
Cu2_2 Cu -0.8724(2) 0.18190(14) 0.57812(13)
N3A N -0.4244(11) 0.2984(8) 0.2750(7)
Cu1A Cu -0.4567(2) 0.29176(15) 0.15906(14)
O44 O -0.2210(16) -0.5829(11) 0.6578(11)
O45 O -0.492(2) -0.4915(16) 0.7892(16)
O46 O -0.431(2) 0.2063(15) 0.5625(13)
O47 O 0.446(2) -0.5541(19) 0.422(2)
O48 O 0.348(3) 0.041(2) 0.378(2)
O49 O 0.403(3) 0.360(2) 0.680(3)
O50 O -0.422(4) -0.533(3) 0.588(2)
O51 O -0.385(4) 0.286(2) 0.7019(18)
O52 O 0.267(4) 0.434(3) 0.770(3)
loop_
_geom_bond_atom_site_label_1
_geom_bond_atom_site_label_2
_geom_bond_site_symmetry_1
_geom_bond_site_symmetry_2
W1 O1 1_555 1_555
O1 Cu1 1_555 1_555
O2 W1 1_555 1_555
O3 W1 1_555 1_555
O4 W1 1_555 1_555
O5 W1 1_555 1_555
O6 W1 1_555 1_555
Cu1 N1 1_555 1_555
W2 O2 1_555 1_555
W3 O3 1_555 1_555
W4 O4 1_555 1_555
W5 O5 1_555 1_555
Si1 O6 1_555 1_555
N1 C1 1_555 1_555
N2 Cu1 1_555 1_555
O7 Cu1 1_555 1_555
N3 Cu1 1_555 1_555
O8 W2 1_555 1_555
O9 W2 1_555 1_555
O10 W2 1_555 1_555
O11 W2 1_555 1_555
O12 W2 1_555 1_555
O13 W3 1_555 1_555
O14 W3 1_555 1_555
O15 W3 1_555 1_555
O16 W3 1_555 1_555
O17 W4 1_555 1_555
O18 W4 1_555 1_555
O19 W4 1_555 1_555
O20 W5 1_555 1_555
O21 W5 1_555 1_555
O22 W5 1_555 1_555
O23 W5 1_555 1_555
O24 Si1 1_555 1_555
C1 H1 1_555 1_555
C2 N1 1_555 1_555
C3 N2 1_555 1_555
C4 N2 1_555 1_555
W6 O8 1_555 1_555
W7 O10 1_555 1_555
W8 O15 1_555 1_555
W9 O18 1_555 1_555
W10 O19 1_555 1_555
W11 O20 1_555 1_555
W12 O24 1_555 1_555
C5 C1 1_555 1_555
C6 C2 1_555 1_555
C7 C3 1_555 1_555
N4 C3 1_555 1_555
N5 C4 1_555 1_555
O25 W6 1_555 1_555
O26 W6 1_555 1_555
O27 W6 1_555 1_555
O28 W6 1_555 1_555
O29 W7 1_555 1_555
O30 W7 1_555 1_555
O31 W8 1_555 1_555
O32 W8 1_555 1_555
O33 W8 1_555 1_555
O34 W9 1_555 1_555
O35 W9 1_555 1_555
O36 W9 1_555 1_555
O37 W10 1_555 1_555
O38 W10 1_555 1_555
O39 W11 1_555 1_555
O40 W11 1_555 1_555
O41 W12 1_555 1_555
H2 C5 1_555 1_555
C8 C5 1_555 1_555
H3 C6 1_555 1_555
N6 C7 1_555 1_555
C9 C7 1_555 1_555
C10 N4 1_555 1_555
Cu2 O27 1_555 1_555
H4 C8 1_555 1_555
C11 N6 1_555 1_555
H5 C9 1_555 1_555
C12 C9 1_555 1_555
H6 C10 1_555 1_555
H7 C10 1_555 1_555
N7 C10 1_555 1_555
N8 Cu2 1_555 1_555
N9 Cu2 1_555 1_555
O42 Cu2 1_555 1_555
O43 Cu2 1_555 1_555
N10 Cu2 1_555 1_555
C13 C11 1_555 1_555
H8 C11 1_555 1_555
H9 C12 1_555 1_555
C14 N7 1_555 1_555
N11 N7 1_555 1_555
C15 N8 1_555 1_555
C16 N8 1_555 1_555
C17 N9 1_555 1_555
C18 N9 1_555 1_555
H10 C13 1_555 1_555
H11 C14 1_555 1_555
C19 N11 1_555 1_555
H12 C15 1_555 1_555
C20 C15 1_555 1_555
C21 C16 1_555 1_555
C22 C17 1_555 1_555
N12 C17 1_555 1_555
N13 C18 1_555 1_555
H13 C19 1_555 1_555
H14 C20 1_555 1_555
C23 C20 1_555 1_555
H15 C21 1_555 1_555
C24 C22 1_555 1_555
N14 C22 1_555 1_555
C25 N12 1_555 1_555
H16 C23 1_555 1_555
H17 C24 1_555 1_555
C26 C24 1_555 1_555
C27 N14 1_555 1_555
H18 C25 1_555 1_555
H19 C25 1_555 1_555
N15 C25 1_555 1_555
H20 C26 1_555 1_555
C28 C26 1_555 1_555
H21 C27 1_555 1_555
C29 N15 1_555 1_555
N16 N15 1_555 1_555
H22 C28 1_555 1_555
H23 C29 1_555 1_555
C30 N16 1_555 1_555
H24 C30 1_555 1_555
N10_2 C14 1_555 1_555
Cu2_2 N10_2 1_555 1_555
N3A C29 1_555 1_555
Cu1A N3A 1_555 1_555
O6 W3 1_555 1_555
O6 W4 1_555 1_555
W4 O13 1_555 1_555
W5 O11 1_555 1_555
Si1 O12 1_555 1_555
Si1 O23 1_555 1_555
O12 W6 1_555 1_555
O12 W7 1_555 1_555
O14 W7 1_555 1_555
O21 W10 1_555 1_555
O23 W10 1_555 1_555
O23 W11 1_555 1_555
O24 W8 1_555 1_555
O24 W9 1_555 1_555
C2 C4 1_555 1_555
W7 O26 1_555 1_555
W8 O30 1_555 1_555
W9 O33 1_555 1_555
W10 O35 1_555 1_555
W11 O28 1_555 1_555
W11 O37 1_555 1_555
W12 O25 1_555 1_555
W12 O31 1_555 1_555
W12 O36 1_555 1_555
W12 O39 1_555 1_555
C6 C8 1_555 1_555
N4 N5 1_555 1_555
C12 C13 1_555 1_555
C16 C18 1_555 1_555
C19 N10_2 1_555 1_555
C21 C23 1_555 1_555
N12 N13 1_555 1_555
C27 C28 1_555 1_555
C30 N3A 1_555 1_555

#END
