
#######################################################################
#
#                 Cambridge Crystallographic Data Centre
#                                CCDC 
#
#######################################################################
#
# If this CIF has been generated from an entry in the Cambridge 
# Structural Database, then it will include bibliographic, chemical, 
# crystal, experimental, refinement or atomic coordinate data resulting 
# from the CCDC's data processing and validation procedures.
#
#######################################################################

data_YOCLAE
_symmetry_cell_setting           monoclinic
_symmetry_space_group_name_H-M   'C 2/c'
_symmetry_Int_Tables_number      15
_space_group_name_Hall           '-C 2yn'
loop_
_symmetry_equiv_pos_site_id
_symmetry_equiv_pos_as_xyz
1 x,y,z
2 1/2+x,1/2+y,z
3 -x,y,1/2-z
4 1/2-x,1/2+y,1/2-z
5 -x,-y,-z
6 1/2-x,1/2-y,-z
7 x,-y,1/2+z
8 1/2+x,1/2-y,1/2+z
_cell_length_a                   16.025(4)
_cell_length_b                   16.296(7)
_cell_length_c                   9.3103(17)
_cell_angle_alpha                90
_cell_angle_beta                 105.660(19)
_cell_angle_gamma                90
_cell_volume                     2341.07
loop_
_atom_site_label
_atom_site_type_symbol
_atom_site_fract_x
_atom_site_fract_y
_atom_site_fract_z
Cu1 Cu 0.200534(18) 0.046307(17) 0.73287(3)
S1 S 0.58681(4) 0.09504(5) 0.45165(9)
N1 N 0.46673(11) 0.17752(12) 0.5455(2)
N2 N 0.55869(14) 0.25077(17) 0.4267(2)
N3 N 0.25417(11) 0.16006(11) 0.71533(19)
N4 N 0.18704(14) 0.00114(12) 0.5379(2)
C1 C 0.52978(14) 0.18272(17) 0.4778(3)
C2 C 0.52069(18) 0.3195(2) 0.4501(3)
H1 H 0.5387 0.3684 0.4167
C3 C 0.45586(16) 0.32250(16) 0.5214(3)
H2 H 0.4308 0.3719 0.5373
C4 C 0.42959(13) 0.24839(14) 0.5686(2)
C5 C 0.35930(13) 0.24308(13) 0.6430(2)
C6 C 0.33133(15) 0.31071(14) 0.7073(3)
H3 H 0.3570 0.3617 0.7045
C7 C 0.26579(16) 0.30235(15) 0.7749(3)
H4 H 0.2461 0.3475 0.8174
C8 C 0.22945(14) 0.22636(15) 0.7791(3)
H5 H 0.1862 0.2206 0.8279
C9 C 0.31811(13) 0.16915(13) 0.6502(2)
H6 H 0.3361 0.1233 0.6071
C10 C 0.54252(17) 0.01639(19) 0.5480(3)
H7 H 0.5837 -0.0283 0.5753
H8 H 0.5337 0.0392 0.6390
C11 C 0.18755(15) -0.01827(14) 0.4207(3)
Cu1D Cu 0.799466(18) -0.046307(17) 0.26713(3)
Cu1F Cu 0.200534(18) -0.046307(17) 0.23287(3)
Cu1F_2 Cu 0.200534(18) -0.046307(17) 1.23287(3)
S1D S 0.41319(4) -0.09504(5) 0.54835(9)
N1D N 0.53327(11) -0.17752(12) 0.4545(2)
N2D N 0.44131(14) -0.25077(17) 0.5733(2)
N3D N 0.74583(11) -0.16006(11) 0.28467(19)
N4F N 0.18704(14) -0.00114(12) 1.0379(2)
N4D N 0.81296(14) -0.00114(12) 0.4621(2)
C1D C 0.47022(14) -0.18272(17) 0.5222(3)
C2D C 0.47931(18) -0.3195(2) 0.5499(3)
H1D H 0.4613 -0.3684 0.5833
C3D C 0.54414(16) -0.32250(16) 0.4786(3)
H2D H 0.5692 -0.3719 0.4627
C4D C 0.57041(13) -0.24839(14) 0.4314(2)
C5D C 0.64070(13) -0.24308(13) 0.3570(2)
C6D C 0.66867(15) -0.31071(14) 0.2927(3)
H3D H 0.6430 -0.3617 0.2955
C7D C 0.73421(16) -0.30235(15) 0.2251(3)
H4D H 0.7539 -0.3475 0.1826
C8D C 0.77055(14) -0.22636(15) 0.2209(3)
H5D H 0.8138 -0.2206 0.1721
C9D C 0.68189(13) -0.16915(13) 0.3498(2)
H6D H 0.6639 -0.1233 0.3929
C10D C 0.45748(17) -0.01639(19) 0.4520(3)
H7D H 0.4163 0.0283 0.4247
H8D H 0.4663 -0.0392 0.3610
C11F C 0.18755(15) 0.01827(14) 0.9207(3)
C11B C 0.81245(15) -0.01827(14) 0.0793(3)
loop_
_geom_bond_atom_site_label_1
_geom_bond_atom_site_label_2
_geom_bond_site_symmetry_1
_geom_bond_site_symmetry_2
Cu1 N3 1_555 1_555
S1 C1 1_555 1_555
N1 C1 1_555 1_555
N2 C1 1_555 1_555
N3 C8 1_555 1_555
N4 Cu1 1_555 1_555
C2 N2 1_555 1_555
H1 C2 1_555 1_555
C3 C2 1_555 1_555
H2 C3 1_555 1_555
C4 N1 1_555 1_555
C5 C4 1_555 1_555
C6 C5 1_555 1_555
H3 C6 1_555 1_555
C7 C6 1_555 1_555
H4 C7 1_555 1_555
C8 C7 1_555 1_555
H5 C8 1_555 1_555
C9 N3 1_555 1_555
H6 C9 1_555 1_555
C10 S1 1_555 1_555
H7 C10 1_555 1_555
H8 C10 1_555 1_555
C11 N4 1_555 1_555
Cu1D N3D 1_555 1_555
Cu1F C11 1_555 1_555
Cu1F_2 N4F 1_555 1_555
S1D C1D 1_555 1_555
N1D C1D 1_555 1_555
N2D C1D 1_555 1_555
N3D C8D 1_555 1_555
N4F C11F 1_555 1_555
N4D Cu1D 1_555 1_555
C2D N2D 1_555 1_555
H1D C2D 1_555 1_555
C3D C2D 1_555 1_555
H2D C3D 1_555 1_555
C4D N1D 1_555 1_555
C5D C4D 1_555 1_555
C6D C5D 1_555 1_555
H3D C6D 1_555 1_555
C7D C6D 1_555 1_555
H4D C7D 1_555 1_555
C8D C7D 1_555 1_555
H5D C8D 1_555 1_555
C9D N3D 1_555 1_555
H6D C9D 1_555 1_555
C10D C10 1_555 1_555
H7D C10D 1_555 1_555
H8D C10D 1_555 1_555
C11F Cu1 1_555 1_555
C11B Cu1D 1_555 1_555
C3 C4 1_555 1_555
C5 C9 1_555 1_555
S1D C10D 1_555 1_555
C3D C4D 1_555 1_555
C5D C9D 1_555 1_555

#END
