
#######################################################################
#
#                 Cambridge Crystallographic Data Centre
#                                CCDC 
#
#######################################################################
#
# If this CIF has been generated from an entry in the Cambridge 
# Structural Database, then it will include bibliographic, chemical, 
# crystal, experimental, refinement or atomic coordinate data resulting 
# from the CCDC's data processing and validation procedures.
#
#######################################################################

data_YOCMAF
_symmetry_cell_setting           monoclinic
_symmetry_space_group_name_H-M   'C 2/c'
_symmetry_Int_Tables_number      15
_space_group_name_Hall           '-C 2yn'
loop_
_symmetry_equiv_pos_site_id
_symmetry_equiv_pos_as_xyz
1 x,y,z
2 1/2+x,1/2+y,z
3 -x,y,1/2-z
4 1/2-x,1/2+y,1/2-z
5 -x,-y,-z
6 1/2-x,1/2-y,-z
7 x,-y,1/2+z
8 1/2+x,1/2-y,1/2+z
_cell_length_a                   17.1805(2)
_cell_length_b                   12.31240(10)
_cell_length_c                   11.15410(10)
_cell_angle_alpha                90
_cell_angle_beta                 127.52(2)
_cell_angle_gamma                90
_cell_volume                     1871.39
loop_
_atom_site_label
_atom_site_type_symbol
_atom_site_fract_x
_atom_site_fract_y
_atom_site_fract_z
C1 C 0.1884(3) -0.1161(3) 0.2581(4)
C2 C 0.1195(3) -0.1715(3) 0.2802(5)
H1 H 0.0538 -0.1675 0.1852
H2 H 0.1192 -0.1296 0.3536
C3 C 0.1393(3) -0.2890(3) 0.3314(4)
C4 C 0.4246(2) 0.2993(3) 0.6243(4)
C5 C 0.5000 0.3747(4) 0.7500
H3 H 0.4703 0.4205 0.7829
H4 H 0.5297 0.4205 0.7171
Dy1 Dy 0.283235(12) 0.148077(13) 0.379865(19)
O1 O 0.2011(2) -0.0168(2) 0.2856(4)
O2 O 0.2259(2) -0.1685(2) 0.2082(3)
O3 O 0.1283(2) -0.3156(2) 0.4277(3)
O4 O 0.1645(2) -0.35563(19) 0.2741(3)
O5 O 0.44917(18) 0.2424(2) 0.5591(3)
O6 O 0.34060(17) 0.2909(2) 0.5918(3)
O7 O 0.1257(2) 0.1789(2) 0.1179(3)
H5 H 0.0785 0.2029 0.1100
H6 H 0.1369 0.2230 0.0756
O8 O 0.4141(3) 0.0048(3) 0.4897(5)
H7 H 0.4088 -0.0512 0.5238
H8 H 0.4700 0.0253 0.5538
O9 O 0.3194(2) 0.0640(2) 0.6116(4)
H9 H 0.3294 -0.0003 0.6333
H10 H 0.3019 0.0889 0.6593
C1C C 0.3116(3) 0.3839(3) 0.2419(4)
C2C C 0.3805(3) 0.3285(3) 0.2198(5)
H1C H 0.4462 0.3325 0.3148
H2C H 0.3808 0.3704 0.1464
C3C C 0.3607(3) 0.2110(3) 0.1686(4)
C4B C 0.5754(2) 0.2993(3) 0.8757(4)
Dy1C Dy 0.216765(12) 0.648077(13) 0.120135(19)
Dy1C_2 Dy 0.216765(12) -0.351923(13) 0.120135(19)
Dy1E Dy 0.216765(12) 0.351923(13) 0.620135(19)
Dy1B Dy 0.716765(12) 0.148077(13) 1.120135(19)
Dy1G Dy 0.783235(12) 0.351923(13) 0.879865(19)
O1C O 0.2989(2) 0.4832(2) 0.2144(4)
O2C O 0.2741(2) 0.3315(2) 0.2918(3)
O2_2 O 0.2259(2) 0.8315(2) 0.2082(3)
O3C O 0.3717(2) 0.1844(2) 0.0723(3)
O4C O 0.3355(2) 0.14437(19) 0.2259(3)
O4_2 O 0.1645(2) 0.64437(19) 0.2741(3)
O5B O 0.55083(18) 0.2424(2) 0.9409(3)
O5C O 0.05083(18) 0.7424(2) -0.0591(3)
O6B O 0.65940(17) 0.2909(2) 0.9082(3)
O6E O 0.15940(17) 0.2091(2) 0.4082(3)
O6F O 0.34060(17) 0.7091(2) 0.0918(3)
O6C O 0.15940(17) 0.7909(2) -0.0918(3)
O7C O 0.3743(2) 0.6789(2) 0.3821(3)
H5C H 0.4215 0.7029 0.3900
H6C H 0.3631 0.7230 0.4244
O8C O 0.0859(3) 0.5048(3) 0.0103(5)
H7C H 0.0912 0.4488 -0.0238
H8C H 0.0300 0.5253 -0.0538
O9C O 0.1806(2) 0.5640(2) -0.1116(4)
H9C H 0.1706 0.4997 -0.1333
H10C H 0.1981 0.5889 -0.1593
loop_
_geom_bond_atom_site_label_1
_geom_bond_atom_site_label_2
_geom_bond_site_symmetry_1
_geom_bond_site_symmetry_2
C1 C2 1_555 1_555
C2 H1 1_555 1_555
H2 C2 1_555 1_555
C3 C2 1_555 1_555
C4 C5 1_555 1_555
C5 H3 1_555 1_555
H4 C5 1_555 1_555
Dy1 O1 1_555 1_555
O1 C1 1_555 1_555
O2 C1 1_555 1_555
O3 C3 1_555 1_555
O4 C3 1_555 1_555
O5 C4 1_555 1_555
O6 C4 1_555 1_555
O7 Dy1 1_555 1_555
H5 O7 1_555 1_555
H6 O7 1_555 1_555
O8 Dy1 1_555 1_555
H7 O8 1_555 1_555
H8 O8 1_555 1_555
O9 Dy1 1_555 1_555
H9 O9 1_555 1_555
H10 O9 1_555 1_555
C1C C2C 1_555 1_555
C2C H1C 1_555 1_555
H2C C2C 1_555 1_555
C3C C2C 1_555 1_555
C4B C5 1_555 1_555
Dy1C O1C 1_555 1_555
Dy1C_2 O2 1_555 1_555
Dy1E O6 1_555 1_555
Dy1B O5B 1_555 1_555
Dy1G O6B 1_555 1_555
O1C C1C 1_555 1_555
O2C Dy1 1_555 1_555
O2_2 Dy1C 1_555 1_555
O3C C3C 1_555 1_555
O4C Dy1 1_555 1_555
O4_2 Dy1C 1_555 1_555
O5B C4B 1_555 1_555
O5C Dy1C 1_555 1_555
O6B C4B 1_555 1_555
O6E Dy1 1_555 1_555
O6F Dy1C 1_555 1_555
O6C Dy1C 1_555 1_555
O7C Dy1C 1_555 1_555
H5C O7C 1_555 1_555
H6C O7C 1_555 1_555
O8C Dy1C 1_555 1_555
H7C O8C 1_555 1_555
H8C O8C 1_555 1_555
O9C Dy1C 1_555 1_555
H9C O9C 1_555 1_555
H10C O9C 1_555 1_555
Dy1 O5 1_555 1_555
Dy1 O6 1_555 1_555
O4 Dy1C_2 1_555 1_555
C1C O2C 1_555 1_555
C3C O4C 1_555 1_555
Dy1E O6E 1_555 1_555
Dy1B O6B 1_555 1_555

#END
