
#######################################################################
#
#                 Cambridge Crystallographic Data Centre
#                                CCDC 
#
#######################################################################
#
# If this CIF has been generated from an entry in the Cambridge 
# Structural Database, then it will include bibliographic, chemical, 
# crystal, experimental, refinement or atomic coordinate data resulting 
# from the CCDC's data processing and validation procedures.
#
#######################################################################

data_YOCMIN
_symmetry_cell_setting           triclinic
_symmetry_space_group_name_H-M   'P -1'
_symmetry_Int_Tables_number      2
_space_group_name_Hall           '-P 1'
loop_
_symmetry_equiv_pos_site_id
_symmetry_equiv_pos_as_xyz
1 x,y,z
2 -x,-y,-z
_cell_length_a                   7.9159(7)
_cell_length_b                   8.8846(8)
_cell_length_c                   9.0219(14)
_cell_angle_alpha                100.442(9)
_cell_angle_beta                 101.559(9)
_cell_angle_gamma                114.396(6)
_cell_volume                     540.784
loop_
_atom_site_label
_atom_site_type_symbol
_atom_site_fract_x
_atom_site_fract_y
_atom_site_fract_z
Ni1 Ni 0.0000 0.0000 0.0000
O1 O -0.0204(5) 0.1748(4) 0.1738(4)
O2 O 0.2732(7) 0.2924(6) 0.3536(5)
O3 O 0.2791(6) 0.0643(5) 0.1351(4)
H1 H 0.2848 0.1228 0.2320
N1 N 0.1405(7) 0.2043(5) -0.0943(5)
F1 F 0.2568(6) 0.6330(4) 0.3438(4)
F2 F -0.1649(6) 0.1587(4) 0.4752(4)
C1 C 0.1084(10) 0.2749(7) 0.3031(7)
C2 C 0.0498(8) 0.3903(7) 0.4030(6)
C3 C -0.0823(9) 0.3286(7) 0.4841(6)
C4 C 0.1304(8) 0.5655(7) 0.4223(6)
C5 C 0.2384(9) 0.1849(8) -0.1928(7)
H2 H 0.2395 0.0793 -0.2204
C6 C 0.3374(10) 0.3084(10) -0.2565(8)
H3 H 0.4006 0.2858 -0.3274
C7 C 0.3426(10) 0.4657(10) -0.2148(8)
H4 H 0.4120 0.5537 -0.2543
C8 C 0.2427(11) 0.4911(9) -0.1129(8)
H5 H 0.2415 0.5964 -0.0830
C9 C 0.1441(10) 0.3574(8) -0.0557(7)
H6 H 0.0767 0.3754 0.0133
C10 C 0.3668(15) -0.0333(11) 0.1774(13)
H7 H 0.3276 -0.0734 0.2628
H8 H 0.5059 0.0361 0.2107
H9 H 0.3283 -0.1308 0.0882
Ni1_2 Ni 0.0000 1.0000 1.0000
O1A O 0.0204(5) 0.8252(4) 0.8262(4)
O1A_2 O 0.0204(5) -0.1748(4) -0.1738(4)
O2A O -0.2732(7) 0.7076(6) 0.6464(5)
O3A O -0.2791(6) -0.0643(5) -0.1351(4)
H1A H -0.2848 -0.1228 -0.2320
N1A N -0.1405(7) -0.2043(5) 0.0943(5)
F1A F -0.2568(6) 0.3670(4) 0.6562(4)
F2A F 0.1649(6) 0.8413(4) 0.5248(4)
C1A C -0.1084(10) 0.7251(7) 0.6969(7)
C2A C -0.0498(8) 0.6097(7) 0.5970(6)
C3A C 0.0823(9) 0.6714(7) 0.5159(6)
C4A C -0.1304(8) 0.4345(7) 0.5777(6)
C5A C -0.2384(9) -0.1849(8) 0.1928(7)
H2A H -0.2395 -0.0793 0.2204
C6A C -0.3374(10) -0.3084(10) 0.2565(8)
H3A H -0.4006 -0.2858 0.3274
C7A C -0.3426(10) -0.4657(10) 0.2148(8)
H4A H -0.4120 -0.5537 0.2543
C8A C -0.2427(11) -0.4911(9) 0.1129(8)
H5A H -0.2415 -0.5964 0.0830
C9A C -0.1441(10) -0.3574(8) 0.0557(7)
H6A H -0.0767 -0.3754 -0.0133
C10A C -0.3668(15) 0.0333(11) -0.1774(13)
H7A H -0.3276 0.0734 -0.2628
H8A H -0.5059 -0.0361 -0.2107
H9A H -0.3283 0.1308 -0.0882
loop_
_geom_bond_atom_site_label_1
_geom_bond_atom_site_label_2
_geom_bond_site_symmetry_1
_geom_bond_site_symmetry_2
Ni1 O1 1_555 1_555
O1 C1 1_555 1_555
O2 C1 1_555 1_555
O3 Ni1 1_555 1_555
H1 O3 1_555 1_555
N1 Ni1 1_555 1_555
F1 C4 1_555 1_555
F2 C3 1_555 1_555
C1 C2 1_555 1_555
C2 C3 1_555 1_555
C3 C4A 1_555 1_555
C4 C2 1_555 1_555
C5 N1 1_555 1_555
H2 C5 1_555 1_555
C6 C5 1_555 1_555
H3 C6 1_555 1_555
C7 C6 1_555 1_555
H4 C7 1_555 1_555
C8 C7 1_555 1_555
H5 C8 1_555 1_555
C9 N1 1_555 1_555
H6 C9 1_555 1_555
C10 O3 1_555 1_555
H7 C10 1_555 1_555
H8 C10 1_555 1_555
H9 C10 1_555 1_555
Ni1_2 O1A 1_555 1_555
O1A C1A 1_555 1_555
O1A_2 Ni1 1_555 1_555
O2A C1A 1_555 1_555
O3A Ni1 1_555 1_555
H1A O3A 1_555 1_555
N1A Ni1 1_555 1_555
F1A C4A 1_555 1_555
F2A C3A 1_555 1_555
C1A C2A 1_555 1_555
C2A C3A 1_555 1_555
C3A C4 1_555 1_555
C4A C2A 1_555 1_555
C5A N1A 1_555 1_555
H2A C5A 1_555 1_555
C6A C5A 1_555 1_555
H3A C6A 1_555 1_555
C7A C6A 1_555 1_555
H4A C7A 1_555 1_555
C8A C7A 1_555 1_555
H5A C8A 1_555 1_555
C9A N1A 1_555 1_555
H6A C9A 1_555 1_555
C10A O3A 1_555 1_555
H7A C10A 1_555 1_555
H8A C10A 1_555 1_555
H9A C10A 1_555 1_555
C8 C9 1_555 1_555
C8A C9A 1_555 1_555

#END
