
#######################################################################
#
#                 Cambridge Crystallographic Data Centre
#                                CCDC 
#
#######################################################################
#
# If this CIF has been generated from an entry in the Cambridge 
# Structural Database, then it will include bibliographic, chemical, 
# crystal, experimental, refinement or atomic coordinate data resulting 
# from the CCDC's data processing and validation procedures.
#
#######################################################################

data_YOCNUB
_symmetry_cell_setting           triclinic
_symmetry_space_group_name_H-M   'P -1'
_symmetry_Int_Tables_number      2
_space_group_name_Hall           '-P 1'
loop_
_symmetry_equiv_pos_site_id
_symmetry_equiv_pos_as_xyz
1 x,y,z
2 -x,-y,-z
_cell_length_a                   11.9999(5)
_cell_length_b                   14.3992(5)
_cell_length_c                   20.8142(8)
_cell_angle_alpha                95.634(3)
_cell_angle_beta                 99.522(3)
_cell_angle_gamma                103.801(3)
_cell_volume                     3408.76
loop_
_atom_site_label
_atom_site_type_symbol
_atom_site_fract_x
_atom_site_fract_y
_atom_site_fract_z
Cu1 Cu 0.5000 0.5000 1.0000
Cu2 Cu 1.0000 0.0000 0.5000
W1 W 0.61506(6) 0.37334(5) 0.85442(4)
W2 W 0.93091(7) 0.43928(5) 0.85868(4)
W3 W 0.73500(7) 0.51499(6) 0.73293(4)
W4 W 0.85086(8) 0.40803(7) 0.61525(4)
W5 W 1.04297(7) 0.32993(6) 0.74090(5)
W6 W 0.92786(6) 0.19869(5) 0.85581(4)
W7 W 0.61101(7) 0.13301(6) 0.84960(5)
W8 W 0.42790(7) 0.20347(7) 0.72842(6)
W9 W 0.55116(8) 0.34376(8) 0.60838(5)
W10 W 0.54838(10) 0.09055(8) 0.60709(6)
W11 W 0.73388(8) 0.01793(6) 0.72238(5)
W12 W 0.84652(8) 0.15144(7) 0.60890(4)
P1 P 0.7355(4) 0.2673(3) 0.7324(2)
C1 C 0.3749(17) 0.3385(16) 1.0654(11)
H1 H 0.3195 0.3719 1.0721
C2 C 0.521(2) 0.3036(17) 1.0370(11)
H2 H 0.5887 0.3047 1.0203
C3 C 0.4942(19) 0.1447(15) 1.0781(11)
H3 H 0.4219 0.0958 1.0759
H4 H 0.5309 0.1245 1.0429
C4 C 0.6128(18) 0.1522(15) 1.2425(11)
C5 C 0.619(2) 0.1724(17) 1.3123(13)
C6 C 0.551(3) 0.222(2) 1.3392(14)
H5 H 0.4953 0.2442 1.3127
C7 C 0.566(4) 0.239(3) 1.4087(19)
H6 H 0.5186 0.2713 1.4274
C8 C 0.707(3) 0.160(3) 1.4220(16)
H7 H 0.7571 0.1352 1.4498
C9 C 0.700(3) 0.143(3) 1.3528(16)
H8 H 0.7513 0.1127 1.3358
C10 C 0.6549(16) 0.1056(12) 1.1531(10)
C11 C 0.7058(15) 0.0568(13) 1.1047(10)
C12 C 0.7197(16) -0.0350(15) 1.1109(10)
H9 H 0.6975 -0.0667 1.1454
C13 C 0.7674(18) -0.0772(17) 1.0641(11)
H10 H 0.7728 -0.1402 1.0662
C14 C 0.7962(18) 0.0534(17) 1.0107(11)
H11 H 0.8217 0.0828 0.9760
C15 C 0.7502(18) 0.1053(16) 1.0529(12)
H12 H 0.7475 0.1685 1.0487
C16 C 0.9497(18) 0.0202(14) 0.3567(9)
H13 H 0.9104 -0.0449 0.3455
C17 C 1.0394(19) 0.1527(15) 0.4138(10)
H14 H 1.0776 0.2012 0.4488
C18 C 1.0732(17) 0.2527(13) 0.3221(9)
H15 H 1.1128 0.3057 0.3571
H16 H 1.1299 0.2401 0.2964
C19 C 0.8515(15) 0.3509(15) 0.2514(10)
C20 C 0.7620(16) 0.4043(15) 0.2589(10)
C21 C 0.741(2) 0.4341(17) 0.3179(12)
H17 H 0.7845 0.4229 0.3563
C22 C 0.653(2) 0.4822(19) 0.3211(15)
H18 H 0.6364 0.5000 0.3619
C23 C 0.6140(19) 0.4732(17) 0.2064(16)
H19 H 0.5719 0.4864 0.1682
C24 C 0.6973(18) 0.4246(17) 0.2022(12)
H20 H 0.7115 0.4046 0.1612
C25 C 0.9569(17) 0.2724(14) 0.2136(11)
C26 C 1.0070(16) 0.2213(14) 0.1658(10)
C27 C 1.0367(15) 0.2647(14) 0.1139(9)
H21 H 1.0272 0.3262 0.1096
C28 C 1.0810(17) 0.2170(13) 0.0676(11)
H22 H 1.0974 0.2454 0.0308
C29 C 1.076(2) 0.0900(15) 0.1263(13)
H23 H 1.0933 0.0311 0.1315
C30 C 1.028(2) 0.1304(17) 0.1720(12)
H24 H 1.0082 0.0986 0.2070
N1 N 0.3736(16) 0.2550(13) 1.0842(11)
N2 N 0.4623(14) 0.3711(12) 1.0359(9)
N3 N 0.4660(14) 0.2350(12) 1.0664(9)
N4 N 0.5704(14) 0.1482(10) 1.1402(9)
N5 N 0.5390(15) 0.1789(13) 1.1971(9)
N6 N 0.6853(13) 0.1065(13) 1.2176(8)
N7 N 0.644(3) 0.210(3) 1.4472(18)
N8 N 0.8074(14) -0.0321(13) 1.0146(9)
H25 H 0.8390 -0.0603 0.9869
N9 N 0.9929(14) 0.0616(12) 0.4192(7)
N10 N 1.0234(13) 0.1644(11) 0.3510(7)
N11 N 0.9668(15) 0.0782(12) 0.3122(8)
N12 N 0.9781(15) 0.2793(12) 0.2797(8)
N13 N 0.9110(13) 0.3302(11) 0.3052(8)
N14 N 0.8727(14) 0.3157(12) 0.1951(8)
N15 N 0.5915(16) 0.5033(15) 0.2671(11)
N16 N 1.1009(14) 0.1309(13) 0.0746(8)
O1 O 0.5750(12) 0.4390(11) 0.9135(7)
O2 O 0.6070(12) 0.2564(11) 0.8929(8)
O3 O 0.4649(12) 0.3114(11) 0.8014(8)
O4 O 0.6392(12) 0.4610(11) 0.7925(7)
O5 O 0.7804(11) 0.4058(10) 0.8828(7)
O6 O 0.9615(11) 0.3304(10) 0.9022(7)
O7 O 1.0500(11) 0.4295(10) 0.8120(7)
O8 O 1.0067(12) 0.5292(10) 0.9232(7)
O9 O 0.8645(11) 0.5060(10) 0.7953(7)
O10 O 0.7386(14) 0.6335(12) 0.7481(8)
O11 O 0.5987(12) 0.4683(11) 0.6648(7)
O12 O 0.6883(12) 0.3825(11) 0.5719(7)
O13 O 0.8299(12) 0.5152(11) 0.6678(7)
O14 O 0.9216(15) 0.4625(13) 0.5588(9)
O15 O 0.8369(13) 0.2733(11) 0.5880(8)
O16 O 0.9758(12) 0.4006(10) 0.6819(7)
O17 O 1.1853(11) 0.3541(10) 0.7316(7)
O18 O 0.9729(12) 0.2180(11) 0.6794(7)
O19 O 1.0500(12) 0.2460(10) 0.8099(7)
O20 O 0.9990(12) 0.1499(10) 0.9152(7)
O21 O 0.8645(12) 0.0930(10) 0.7898(7)
O22 O 0.7785(12) 0.1773(10) 0.8780(7)
O23 O 0.6406(12) 0.0471(11) 0.7849(8)
O24 O 0.5694(12) 0.0630(10) 0.9076(7)
O25 O 0.4642(12) 0.1279(11) 0.7976(8)
O26 O 0.4611(13) 0.1164(11) 0.6704(8)
O27 O 0.2754(13) 0.1700(12) 0.7171(9)
O28 O 0.4615(13) 0.2982(11) 0.6730(8)
O29 O 0.4465(14) 0.3661(13) 0.5483(8)
O30 O 0.5520(13) 0.2154(11) 0.5809(8)
O31 O 0.4390(17) 0.0157(15) 0.5485(10)
O32 O 0.5994(14) -0.0016(12) 0.6544(8)
O33 O 0.7375(14) -0.0969(12) 0.7305(9)
O34 O 0.8292(13) 0.0450(11) 0.6586(8)
O35 O 0.6870(13) 0.0994(12) 0.5668(8)
O36 O 0.9156(13) 0.1144(11) 0.5503(8)
O37 O 0.7225(12) 0.1732(10) 0.6889(7)
O38 O 0.6408(12) 0.2546(10) 0.7750(7)
O39 O 0.7245(12) 0.3496(11) 0.6933(7)
O40 O 0.8578(11) 0.2969(10) 0.7786(7)
O41 O 0.6595(11) 0.5368(10) 1.0578(7)
O42 O 0.8418(13) -0.0862(11) 0.4615(7)
W1A W 0.38494(6) 0.62666(5) 1.14558(4)
W2A W 0.06909(7) 0.56072(5) 1.14132(4)
W3A W 0.26500(7) 0.48501(6) 1.26707(4)
W4A W 0.14914(8) 0.59197(7) 1.38475(4)
W5A W -0.04297(7) 0.67007(6) 1.25910(5)
W6A W 0.07214(6) 0.80131(5) 1.14419(4)
W7A W 0.38899(7) 0.86699(6) 1.15040(5)
W8A W 0.57210(7) 0.79653(7) 1.27158(6)
W9A W 0.44884(8) 0.65624(8) 1.39162(5)
W10A W 0.45162(10) 0.90945(8) 1.39291(6)
W11A W 0.26612(8) 0.98207(6) 1.27762(5)
W12A W 0.15348(8) 0.84856(7) 1.39110(4)
P1A P 0.2645(4) 0.7327(3) 1.2676(2)
C1A C 0.6251(17) 0.6615(16) 0.9346(11)
H1A H 0.6805 0.6281 0.9279
C2A C 0.479(2) 0.6964(17) 0.9630(11)
H2A H 0.4113 0.6953 0.9797
C3A C 0.5058(19) 0.8553(15) 0.9219(11)
H3A H 0.5781 0.9042 0.9241
H4A H 0.4691 0.8755 0.9571
C4A C 0.3872(18) 0.8478(15) 0.7575(11)
C5A C 0.381(2) 0.8276(17) 0.6877(13)
C6A C 0.449(3) 0.778(2) 0.6608(14)
H5A H 0.5047 0.7558 0.6873
C7A C 0.434(4) 0.761(3) 0.5913(19)
H6A H 0.4814 0.7287 0.5726
C8A C 0.293(3) 0.840(3) 0.5780(16)
H7A H 0.2429 0.8648 0.5502
C9A C 0.300(3) 0.857(3) 0.6472(16)
H8A H 0.2487 0.8873 0.6642
C10A C 0.3451(16) 0.8944(12) 0.8469(10)
C11A C 0.2942(15) 0.9432(13) 0.8953(10)
C12A C 0.2803(16) 1.0350(15) 0.8891(10)
H9A H 0.3025 1.0667 0.8546
C13A C 0.2326(18) 1.0772(17) 0.9359(11)
H10A H 0.2272 1.1402 0.9338
C14A C 0.2038(18) 0.9466(17) 0.9893(11)
H11A H 0.1783 0.9172 1.0240
C15A C 0.2498(18) 0.8947(16) 0.9471(12)
H12A H 0.2525 0.8315 0.9513
N1A N 0.6264(16) 0.7450(13) 0.9158(11)
N2A N 0.5377(14) 0.6289(12) 0.9641(9)
N3A N 0.5340(14) 0.7650(12) 0.9336(9)
N4A N 0.4296(14) 0.8518(10) 0.8598(9)
N5A N 0.4610(15) 0.8211(13) 0.8029(9)
N6A N 0.3147(13) 0.8935(13) 0.7824(8)
N7A N 0.356(3) 0.790(3) 0.5528(18)
N8A N 0.1926(14) 1.0321(13) 0.9854(9)
H25A H 0.1610 1.0603 1.0131
O1A O 0.4250(12) 0.5610(11) 1.0865(7)
O2A O 0.3930(12) 0.7436(11) 1.1071(8)
O3A O 0.5351(12) 0.6886(11) 1.1986(8)
O4A O 0.3608(12) 0.5390(11) 1.2075(7)
O5A O 0.2196(11) 0.5942(10) 1.1172(7)
O6A O 0.0385(11) 0.6696(10) 1.0978(7)
O7A O -0.0500(11) 0.5705(10) 1.1880(7)
O8A O -0.0067(12) 0.4708(10) 1.0768(7)
O9A O 0.1355(11) 0.4940(10) 1.2047(7)
O10A O 0.2614(14) 0.3665(12) 1.2519(8)
O11A O 0.4013(12) 0.5317(11) 1.3352(7)
O12A O 0.3117(12) 0.6175(11) 1.4281(7)
O13A O 0.1701(12) 0.4848(11) 1.3322(7)
O14A O 0.0784(15) 0.5375(13) 1.4412(9)
O15A O 0.1631(13) 0.7267(11) 1.4120(8)
O16A O 0.0242(12) 0.5994(10) 1.3181(7)
O17A O -0.1853(11) 0.6459(10) 1.2684(7)
O18A O 0.0271(12) 0.7820(11) 1.3206(7)
O19A O -0.0500(12) 0.7540(10) 1.1901(7)
O20A O 0.0010(12) 0.8501(10) 1.0848(7)
O21A O 0.1355(12) 0.9070(10) 1.2102(7)
O22A O 0.2215(12) 0.8227(10) 1.1220(7)
O23A O 0.3594(12) 0.9529(11) 1.2151(8)
O24A O 0.4306(12) 0.9370(10) 1.0924(7)
O25A O 0.5358(12) 0.8721(11) 1.2024(8)
O26A O 0.5389(13) 0.8836(11) 1.3296(8)
O27A O 0.7246(13) 0.8300(12) 1.2829(9)
O28A O 0.5385(13) 0.7018(11) 1.3270(8)
O29A O 0.5535(14) 0.6339(13) 1.4517(8)
O30A O 0.4480(13) 0.7846(11) 1.4191(8)
O31A O 0.5610(17) 0.9843(15) 1.4515(10)
O32A O 0.4006(14) 1.0016(12) 1.3456(8)
O33A O 0.2625(14) 1.0969(12) 1.2695(9)
O34A O 0.1708(13) 0.9550(11) 1.3414(8)
O35A O 0.3130(13) 0.9006(12) 1.4332(8)
O36A O 0.0844(13) 0.8856(11) 1.4497(8)
O37A O 0.2775(12) 0.8268(10) 1.3111(7)
O38A O 0.3592(12) 0.7454(10) 1.2250(7)
O39A O 0.2755(12) 0.6504(11) 1.3067(7)
O40A O 0.1422(11) 0.7031(10) 1.2214(7)
O41A O 0.3405(11) 0.4632(10) 0.9422(7)
C16A C 1.0503(18) -0.0202(14) 0.6433(9)
H13A H 1.0896 0.0449 0.6545
C17A C 0.9606(19) -0.1527(15) 0.5862(10)
H14A H 0.9224 -0.2012 0.5512
C18A C 0.9268(17) -0.2527(13) 0.6779(9)
H15A H 0.8872 -0.3057 0.6429
H16A H 0.8701 -0.2401 0.7036
C19A C 1.1485(15) -0.3509(15) 0.7486(10)
C20A C 1.2380(16) -0.4043(15) 0.7411(10)
C21A C 1.259(2) -0.4341(17) 0.6821(12)
H17A H 1.2155 -0.4229 0.6437
C22A C 1.347(2) -0.4822(19) 0.6789(15)
H18A H 1.3636 -0.5000 0.6381
C23A C 1.3860(19) -0.4732(17) 0.7936(16)
H19A H 1.4281 -0.4864 0.8318
C24A C 1.3027(18) -0.4246(17) 0.7978(12)
H20A H 1.2885 -0.4046 0.8388
C25A C 1.0431(17) -0.2724(14) 0.7864(11)
C26A C 0.9930(16) -0.2213(14) 0.8342(10)
C27A C 0.9633(15) -0.2647(14) 0.8861(9)
H21A H 0.9728 -0.3262 0.8904
C28A C 0.9190(17) -0.2170(13) 0.9324(11)
H22A H 0.9026 -0.2454 0.9692
C29A C 0.924(2) -0.0900(15) 0.8737(13)
H23A H 0.9067 -0.0311 0.8685
C30A C 0.972(2) -0.1304(17) 0.8280(12)
H24A H 0.9918 -0.0986 0.7930
N9A N 1.0071(14) -0.0616(12) 0.5808(7)
N10A N 0.9766(13) -0.1644(11) 0.6490(7)
N11A N 1.0332(15) -0.0782(12) 0.6878(8)
N12A N 1.0219(15) -0.2793(12) 0.7203(8)
N13A N 1.0890(13) -0.3302(11) 0.6948(8)
N14A N 1.1273(14) -0.3157(12) 0.8049(8)
N15A N 1.4085(16) -0.5033(15) 0.7329(11)
N16A N 0.8991(14) -0.1309(13) 0.9254(8)
O42A O 1.1582(13) 0.0862(11) 0.5385(7)
Cu2_2 Cu 0.0000 1.0000 1.5000
O36A_2 O 1.0844(13) -0.1144(11) 0.4497(8)
O43 O 0.8399(12) 0.5806(11) 0.9980(7)
H26 H 0.7816 0.5662 1.0168
H27 H 0.9000 0.6072 1.0276
O44 O 0.7148(13) 0.7153(12) 1.1243(8)
H28 H 0.6966 0.6586 1.1030
H29 H 0.7856 0.7275 1.1442
O45 O 0.6819(14) -0.1245(12) 0.5392(8)
H30 H 0.7144 -0.0823 0.5727
H31 H 0.7273 -0.1183 0.5117
O46 O 0.8036(16) -0.2700(13) 0.4058(9)
H32 H 0.8122 -0.2129 0.4246
H33 H 0.8362 -0.2998 0.4335
O47 O 1.2169(14) 0.6745(13) 0.9808(9)
H34 H 1.1551 0.6351 0.9583
H35 H 1.2267 0.6594 1.0194
O48 O 1.092(4) 0.365(3) 0.506(2)
H36 H 1.1114 0.4245 0.5211
H37 H 1.0508 0.3570 0.4679
O49 O 1.325(4) 0.363(3) 0.426(2)
H38 H 1.3548 0.4076 0.4054
H39 H 1.3588 0.3785 0.4664
O50 O 1.319(2) 0.500(2) 0.5269(13)
loop_
_geom_bond_atom_site_label_1
_geom_bond_atom_site_label_2
_geom_bond_site_symmetry_1
_geom_bond_site_symmetry_2
Cu1 N2 1_555 1_555
Cu2 N9 1_555 1_555
W1 O1 1_555 1_555
W2 O5 1_555 1_555
W3 O4 1_555 1_555
W4 O12 1_555 1_555
W5 O7 1_555 1_555
W6 O6 1_555 1_555
W7 O2 1_555 1_555
W8 O3 1_555 1_555
W9 O11 1_555 1_555
W10 O26 1_555 1_555
W11 O21 1_555 1_555
W12 O15 1_555 1_555
P1 O37 1_555 1_555
C1 H1 1_555 1_555
C2 H2 1_555 1_555
C3 H3 1_555 1_555
H4 C3 1_555 1_555
C4 C5 1_555 1_555
C5 C6 1_555 1_555
C6 H5 1_555 1_555
C7 C6 1_555 1_555
H6 C7 1_555 1_555
C8 H7 1_555 1_555
C9 C5 1_555 1_555
H8 C9 1_555 1_555
C10 C11 1_555 1_555
C11 C12 1_555 1_555
C12 H9 1_555 1_555
C13 C12 1_555 1_555
H10 C13 1_555 1_555
C14 H11 1_555 1_555
C15 C11 1_555 1_555
H12 C15 1_555 1_555
C16 H13 1_555 1_555
C17 H14 1_555 1_555
C18 H15 1_555 1_555
H16 C18 1_555 1_555
C19 C20 1_555 1_555
C20 C21 1_555 1_555
C21 H17 1_555 1_555
C22 C21 1_555 1_555
H18 C22 1_555 1_555
C23 H19 1_555 1_555
C24 C20 1_555 1_555
H20 C24 1_555 1_555
C25 C26 1_555 1_555
C26 C27 1_555 1_555
C27 H21 1_555 1_555
C28 C27 1_555 1_555
H22 C28 1_555 1_555
C29 H23 1_555 1_555
C30 C26 1_555 1_555
H24 C30 1_555 1_555
N1 C1 1_555 1_555
N2 C1 1_555 1_555
N3 C2 1_555 1_555
N4 C3 1_555 1_555
N5 C4 1_555 1_555
N6 C4 1_555 1_555
N7 C7 1_555 1_555
N8 C13 1_555 1_555
H25 N8 1_555 1_555
N9 C16 1_555 1_555
N10 C17 1_555 1_555
N11 C16 1_555 1_555
N12 C18 1_555 1_555
N13 C19 1_555 1_555
N14 C19 1_555 1_555
N15 C22 1_555 1_555
N16 C28 1_555 1_555
O1 Cu1 1_555 1_555
O2 W1 1_555 1_555
O3 W1 1_555 1_555
O4 W1 1_555 1_555
O5 W1 1_555 1_555
O6 W2 1_555 1_555
O7 W2 1_555 1_555
O8 W2 1_555 1_555
O9 W2 1_555 1_555
O10 W3 1_555 1_555
O11 W3 1_555 1_555
O12 W9 1_555 1_555
O13 W3 1_555 1_555
O14 W4 1_555 1_555
O15 W4 1_555 1_555
O16 W4 1_555 1_555
O17 W5 1_555 1_555
O18 W5 1_555 1_555
O19 W5 1_555 1_555
O20 W6 1_555 1_555
O21 W6 1_555 1_555
O22 W6 1_555 1_555
O23 W7 1_555 1_555
O24 W7 1_555 1_555
O25 W7 1_555 1_555
O26 W8 1_555 1_555
O27 W8 1_555 1_555
O28 W8 1_555 1_555
O29 W9 1_555 1_555
O30 W9 1_555 1_555
O31 W10 1_555 1_555
O32 W10 1_555 1_555
O33 W11 1_555 1_555
O34 W11 1_555 1_555
O35 W10 1_555 1_555
O36 Cu2 1_555 1_555
O37 W10 1_555 1_555
O38 W1 1_555 1_555
O39 W3 1_555 1_555
O40 W2 1_555 1_555
O41 Cu1 1_555 1_555
O42 Cu2 1_555 1_555
O43 H26 1_555 1_555
H27 O43 1_555 1_555
O44 H28 1_555 1_555
H29 O44 1_555 1_555
O45 H30 1_555 1_555
H31 O45 1_555 1_555
O46 H32 1_555 1_555
H33 O46 1_555 1_555
O47 H34 1_555 1_555
H35 O47 1_555 1_555
O48 H36 1_555 1_555
H37 O48 1_555 1_555
O49 H38 1_555 1_555
H39 O49 1_555 1_555
W1A O1A 1_555 1_555
W2A O5A 1_555 1_555
W3A O4A 1_555 1_555
W4A O12A 1_555 1_555
W5A O7A 1_555 1_555
W6A O6A 1_555 1_555
W7A O2A 1_555 1_555
W8A O3A 1_555 1_555
W9A O11A 1_555 1_555
W10A O26A 1_555 1_555
W11A O21A 1_555 1_555
W12A O15A 1_555 1_555
P1A O37A 1_555 1_555
C1A H1A 1_555 1_555
C2A H2A 1_555 1_555
C3A H3A 1_555 1_555
H4A C3A 1_555 1_555
C4A C5A 1_555 1_555
C5A C6A 1_555 1_555
C6A H5A 1_555 1_555
C7A C6A 1_555 1_555
H6A C7A 1_555 1_555
C8A H7A 1_555 1_555
C9A C5A 1_555 1_555
H8A C9A 1_555 1_555
C10A C11A 1_555 1_555
C11A C12A 1_555 1_555
C12A H9A 1_555 1_555
C13A C12A 1_555 1_555
H10A C13A 1_555 1_555
C14A H11A 1_555 1_555
C15A C11A 1_555 1_555
H12A C15A 1_555 1_555
N1A C1A 1_555 1_555
N2A Cu1 1_555 1_555
N3A C2A 1_555 1_555
N4A C3A 1_555 1_555
N5A C4A 1_555 1_555
N6A C4A 1_555 1_555
N7A C7A 1_555 1_555
N8A C13A 1_555 1_555
H25A N8A 1_555 1_555
O1A Cu1 1_555 1_555
O2A W1A 1_555 1_555
O3A W1A 1_555 1_555
O4A W1A 1_555 1_555
O5A W1A 1_555 1_555
O6A W2A 1_555 1_555
O7A W2A 1_555 1_555
O8A W2A 1_555 1_555
O9A W2A 1_555 1_555
O10A W3A 1_555 1_555
O11A W3A 1_555 1_555
O12A W9A 1_555 1_555
O13A W3A 1_555 1_555
O14A W4A 1_555 1_555
O15A W4A 1_555 1_555
O16A W4A 1_555 1_555
O17A W5A 1_555 1_555
O18A W5A 1_555 1_555
O19A W5A 1_555 1_555
O20A W6A 1_555 1_555
O21A W6A 1_555 1_555
O22A W6A 1_555 1_555
O23A W7A 1_555 1_555
O24A W7A 1_555 1_555
O25A W7A 1_555 1_555
O26A W8A 1_555 1_555
O27A W8A 1_555 1_555
O28A W8A 1_555 1_555
O29A W9A 1_555 1_555
O30A W9A 1_555 1_555
O31A W10A 1_555 1_555
O32A W10A 1_555 1_555
O33A W11A 1_555 1_555
O34A W11A 1_555 1_555
O35A W10A 1_555 1_555
O36A W12A 1_555 1_555
O37A W10A 1_555 1_555
O38A W1A 1_555 1_555
O39A W3A 1_555 1_555
O40A W2A 1_555 1_555
O41A Cu1 1_555 1_555
C16A H13A 1_555 1_555
C17A H14A 1_555 1_555
C18A H15A 1_555 1_555
H16A C18A 1_555 1_555
C19A C20A 1_555 1_555
C20A C21A 1_555 1_555
C21A H17A 1_555 1_555
C22A C21A 1_555 1_555
H18A C22A 1_555 1_555
C23A H19A 1_555 1_555
C24A C20A 1_555 1_555
H20A C24A 1_555 1_555
C25A C26A 1_555 1_555
C26A C27A 1_555 1_555
C27A H21A 1_555 1_555
C28A C27A 1_555 1_555
H22A C28A 1_555 1_555
C29A H23A 1_555 1_555
C30A C26A 1_555 1_555
H24A C30A 1_555 1_555
N9A Cu2 1_555 1_555
N10A C17A 1_555 1_555
N11A C16A 1_555 1_555
N12A C18A 1_555 1_555
N13A C19A 1_555 1_555
N14A C19A 1_555 1_555
N15A C22A 1_555 1_555
N16A C28A 1_555 1_555
O42A Cu2 1_555 1_555
Cu2_2 O36A 1_555 1_555
O36A_2 Cu2 1_555 1_555
W3 O9 1_555 1_555
W4 O13 1_555 1_555
W4 O39 1_555 1_555
W5 O16 1_555 1_555
W5 O40 1_555 1_555
W6 O19 1_555 1_555
W6 O40 1_555 1_555
W7 O22 1_555 1_555
W7 O38 1_555 1_555
W8 O25 1_555 1_555
W8 O38 1_555 1_555
W9 O28 1_555 1_555
W9 O39 1_555 1_555
W10 O30 1_555 1_555
W11 O23 1_555 1_555
W11 O32 1_555 1_555
W11 O37 1_555 1_555
W12 O18 1_555 1_555
W12 O34 1_555 1_555
W12 O35 1_555 1_555
W12 O36 1_555 1_555
W12 O37 1_555 1_555
P1 O38 1_555 1_555
P1 O39 1_555 1_555
P1 O40 1_555 1_555
C2 N2 1_555 1_555
C3 N3 1_555 1_555
C8 C9 1_555 1_555
C8 N7 1_555 1_555
C10 N4 1_555 1_555
C10 N6 1_555 1_555
C14 C15 1_555 1_555
C14 N8 1_555 1_555
C17 N9 1_555 1_555
C18 N10 1_555 1_555
C23 C24 1_555 1_555
C23 N15 1_555 1_555
C25 N12 1_555 1_555
C25 N14 1_555 1_555
C29 C30 1_555 1_555
C29 N16 1_555 1_555
N1 N3 1_555 1_555
N4 N5 1_555 1_555
N10 N11 1_555 1_555
N12 N13 1_555 1_555
W3A O9A 1_555 1_555
W4A O13A 1_555 1_555
W4A O39A 1_555 1_555
W5A O16A 1_555 1_555
W5A O40A 1_555 1_555
W6A O19A 1_555 1_555
W6A O40A 1_555 1_555
W7A O22A 1_555 1_555
W7A O38A 1_555 1_555
W8A O25A 1_555 1_555
W8A O38A 1_555 1_555
W9A O28A 1_555 1_555
W9A O39A 1_555 1_555
W10A O30A 1_555 1_555
W11A O23A 1_555 1_555
W11A O32A 1_555 1_555
W11A O37A 1_555 1_555
W12A O18A 1_555 1_555
W12A O34A 1_555 1_555
W12A O35A 1_555 1_555
W12A O37A 1_555 1_555
P1A O38A 1_555 1_555
P1A O39A 1_555 1_555
P1A O40A 1_555 1_555
C1A N2A 1_555 1_555
C2A N2A 1_555 1_555
C3A N3A 1_555 1_555
C8A C9A 1_555 1_555
C8A N7A 1_555 1_555
C10A N4A 1_555 1_555
C10A N6A 1_555 1_555
C14A C15A 1_555 1_555
C14A N8A 1_555 1_555
N1A N3A 1_555 1_555
N4A N5A 1_555 1_555
C16A N9A 1_555 1_555
C17A N9A 1_555 1_555
C18A N10A 1_555 1_555
C23A C24A 1_555 1_555
C23A N15A 1_555 1_555
C25A N12A 1_555 1_555
C25A N14A 1_555 1_555
C29A C30A 1_555 1_555
C29A N16A 1_555 1_555
N10A N11A 1_555 1_555
N12A N13A 1_555 1_555

#END
