
#######################################################################
#
#                 Cambridge Crystallographic Data Centre
#                                CCDC 
#
#######################################################################
#
# If this CIF has been generated from an entry in the Cambridge 
# Structural Database, then it will include bibliographic, chemical, 
# crystal, experimental, refinement or atomic coordinate data resulting 
# from the CCDC's data processing and validation procedures.
#
#######################################################################

data_YOCPEM01
_symmetry_cell_setting           monoclinic
_symmetry_space_group_name_H-M   'C 2/c'
_symmetry_Int_Tables_number      15
_space_group_name_Hall           '-C 2yn'
loop_
_symmetry_equiv_pos_site_id
_symmetry_equiv_pos_as_xyz
1 x,y,z
2 -x,y,1/2-z
3 1/2+x,1/2+y,z
4 1/2-x,1/2+y,1/2-z
5 -x,-y,-z
6 x,-y,1/2+z
7 1/2-x,1/2-y,-z
8 1/2+x,1/2-y,1/2+z
_cell_length_a                   19.484(3)
_cell_length_b                   15.971(3)
_cell_length_c                   14.785(3)
_cell_angle_alpha                90
_cell_angle_beta                 111.495(4)
_cell_angle_gamma                90
_cell_volume                     4280.79
loop_
_atom_site_label
_atom_site_type_symbol
_atom_site_fract_x
_atom_site_fract_y
_atom_site_fract_z
Br1 Br 1.103712(18) 1.02675(2) 0.93314(3)
C1 C 0.90419(18) 0.90425(18) 0.8205(2)
C2 C 0.85401(19) 0.96972(19) 0.7950(2)
H1 H 0.8038 0.9583 0.7677
C3 C 0.87793(17) 1.05141(19) 0.8098(2)
C4 C 0.95254(18) 1.06879(19) 0.8501(2)
H2 H 0.9692 1.1239 0.8593
C5 C 1.00181(17) 1.0034(2) 0.8762(3)
C6 C 0.97878(18) 0.92126(18) 0.8613(2)
H3 H 1.0130 0.8779 0.8784
C7 C 0.87751(18) 0.81591(19) 0.8066(2)
C8 C 0.82272(18) 1.12328(19) 0.7817(2)
C9 C 0.7786(2) 0.6320(2) 0.5707(3)
H4 H 0.7453 0.5996 0.5872
C10 C 0.7684(2) 0.6384(3) 0.4739(3)
H5 H 0.7295 0.6110 0.4268
C11 C 0.8169(2) 0.6859(2) 0.4483(3)
H6 H 0.8107 0.6929 0.3833
C12 C 0.8747(2) 0.7229(3) 0.5205(3)
H7 H 0.9093 0.7541 0.5054
C13 C 0.8809(2) 0.7133(2) 0.6153(3)
H8 H 0.9204 0.7388 0.6636
C14 C 0.8572(2) 0.7348(2) 0.9945(3)
H9 H 0.8813 0.7787 0.9772
C15 C 0.8480(2) 0.7398(2) 1.0827(3)
H10 H 0.8665 0.7854 1.1235
C16 C 0.8115(2) 0.6770(2) 1.1092(3)
H11 H 0.8020 0.6800 1.1664
C17 C 0.7893(2) 0.6087(3) 1.0475(3)
H12 H 0.7666 0.5635 1.0646
C18 C 0.8007(2) 0.6078(2) 0.9610(3)
H13 H 0.7850 0.5614 0.9206
C19 C 0.9755(2) 0.5755(2) 0.8665(3)
H14 H 0.9922 0.6304 0.8795
C20 C 1.0269(2) 0.5117(3) 0.8925(4)
H15 H 1.0770 0.5232 0.9219
C21 C 1.0020(2) 0.4311(3) 0.8738(4)
H16 H 1.0351 0.3866 0.8903
C22 C 0.9285(3) 0.4168(2) 0.8310(3)
H17 H 0.9105 0.3623 0.8192
C23 C 0.8804(2) 0.4845(2) 0.8052(3)
H18 H 0.8303 0.4744 0.7736
Ni1 Ni 0.83588(2) 0.66871(2) 0.78876(3)
N1 N 0.83259(16) 0.66883(15) 0.6420(2)
N2 N 0.83358(16) 0.67079(15) 0.9324(2)
N3 N 0.90348(15) 0.56260(16) 0.8239(2)
O1 O 0.80926(12) 0.80065(14) 0.77227(18)
O2 O 0.92377(12) 0.75640(13) 0.83069(18)
O3 O 0.84565(14) 1.19499(16) 0.7900(2)
O4 O 0.75559(12) 1.09994(15) 0.75260(17)
Ni1C Ni 0.66412(2) 1.16871(2) 0.71124(3)
O4C O 0.74441(12) 0.59994(15) 0.74740(17)
loop_
_geom_bond_atom_site_label_1
_geom_bond_atom_site_label_2
_geom_bond_site_symmetry_1
_geom_bond_site_symmetry_2
Br1 C5 1_555 1_555
C1 C2 1_555 1_555
C2 H1 1_555 1_555
C3 C2 1_555 1_555
C4 C3 1_555 1_555
H2 C4 1_555 1_555
C5 C4 1_555 1_555
C6 C1 1_555 1_555
H3 C6 1_555 1_555
C7 C1 1_555 1_555
C8 C3 1_555 1_555
C9 H4 1_555 1_555
C10 C9 1_555 1_555
H5 C10 1_555 1_555
C11 C10 1_555 1_555
H6 C11 1_555 1_555
C12 C11 1_555 1_555
H7 C12 1_555 1_555
C13 C12 1_555 1_555
H8 C13 1_555 1_555
C14 H9 1_555 1_555
C15 C14 1_555 1_555
H10 C15 1_555 1_555
C16 C15 1_555 1_555
H11 C16 1_555 1_555
C17 C16 1_555 1_555
H12 C17 1_555 1_555
C18 C17 1_555 1_555
H13 C18 1_555 1_555
C19 H14 1_555 1_555
C20 C19 1_555 1_555
H15 C20 1_555 1_555
C21 C20 1_555 1_555
H16 C21 1_555 1_555
C22 C21 1_555 1_555
H17 C22 1_555 1_555
C23 C22 1_555 1_555
H18 C23 1_555 1_555
Ni1 N1 1_555 1_555
N1 C9 1_555 1_555
N2 C14 1_555 1_555
N3 C19 1_555 1_555
O1 C7 1_555 1_555
O2 C7 1_555 1_555
O3 C8 1_555 1_555
O4 C8 1_555 1_555
Ni1C O4 1_555 1_555
O4C Ni1 1_555 1_555
C5 C6 1_555 1_555
C13 N1 1_555 1_555
C18 N2 1_555 1_555
C23 N3 1_555 1_555
Ni1 N2 1_555 1_555
Ni1 N3 1_555 1_555
Ni1 O1 1_555 1_555
Ni1 O2 1_555 1_555

#END
