
#######################################################################
#
#                 Cambridge Crystallographic Data Centre
#                                CCDC 
#
#######################################################################
#
# If this CIF has been generated from an entry in the Cambridge 
# Structural Database, then it will include bibliographic, chemical, 
# crystal, experimental, refinement or atomic coordinate data resulting 
# from the CCDC's data processing and validation procedures.
#
#######################################################################

data_YOCPAJ
_symmetry_cell_setting           orthorhombic
_symmetry_space_group_name_H-M   'P n m a'
_symmetry_Int_Tables_number      62
_space_group_name_Hall           '-P 2ac 2n'
loop_
_symmetry_equiv_pos_site_id
_symmetry_equiv_pos_as_xyz
1 x,y,z
2 1/2-x,-y,1/2+z
3 1/2+x,1/2-y,1/2-z
4 -x,1/2+y,-z
5 -x,-y,-z
6 1/2+x,y,1/2-z
7 1/2-x,1/2+y,1/2+z
8 x,1/2-y,z
_cell_length_a                   22.8645(6)
_cell_length_b                   23.8954(5)
_cell_length_c                   14.2051(3)
_cell_angle_alpha                90
_cell_angle_beta                 90
_cell_angle_gamma                90
_cell_volume                     7761.05
loop_
_atom_site_label
_atom_site_type_symbol
_atom_site_fract_x
_atom_site_fract_y
_atom_site_fract_z
Cu1 Cu 0.16230(5) 0.50714(5) 0.30904(6)
C1 C 0.1809(4) 0.5263(4) 0.1043(6)
H1 H 0.2080 0.5532 0.1230
C2 C 0.1767(4) 0.5135(4) 0.0098(5)
H2 H 0.2006 0.5312 -0.0340
C3 C 0.1361(4) 0.4737(4) -0.0190(5)
C4 C 0.1007(5) 0.4503(4) 0.0492(6)
H3 H 0.0716 0.4249 0.0327
C5 C 0.1090(5) 0.4651(4) 0.1415(6)
H4 H 0.0857 0.4481 0.1869
C6 C 0.1294(4) 0.4578(4) -0.1171(5)
C7 C 0.1385(4) 0.4557(4) -0.2646(5)
C8 C 0.1541(4) 0.4682(4) -0.3630(5)
C9 C 0.1535(4) 0.5231(4) -0.3932(6)
H5 H 0.1476 0.5520 -0.3504
C10 C 0.1617(4) 0.5350(4) -0.4878(6)
H6 H 0.1610 0.5720 -0.5077
C11 C 0.1744(4) 0.4421(4) -0.5212(6)
H7 H 0.1827 0.4142 -0.5649
C12 C 0.1670(4) 0.4274(4) -0.4298(6)
H8 H 0.1704 0.3901 -0.4118
C13 C 0.0525(4) 0.3916(3) -0.2955(6)
H9 H 0.0372 0.3598 -0.2608
H10 H 0.0713 0.3776 -0.3520
C14 C -0.0490(4) 0.4322(4) -0.2854(6)
H11 H -0.0633 0.4105 -0.2363
C15 C -0.0392(4) 0.4920(4) -0.3935(6)
H12 H -0.0478 0.5212 -0.4346
N1 N 0.1483(3) 0.5023(3) 0.1696(4)
N2 N 0.1612(3) 0.4797(3) -0.1905(4)
N3 N 0.0883(3) 0.4225(3) -0.1436(4)
N4 N 0.0947(3) 0.4208(3) -0.2385(4)
N5 N 0.1705(3) 0.4946(3) -0.5509(4)
N6 N 0.0045(3) 0.4287(3) -0.3215(4)
N7 N 0.0110(3) 0.4674(3) -0.3912(5)
N8 N -0.0785(3) 0.4714(3) -0.3303(4)
O1 O 0.2350(3) 0.4636(3) 0.2897(4)
H13 H 0.2704 0.4664 0.3029
H14 H 0.2234 0.4313 0.3098
O2 O 0.2029(3) 0.5894(3) 0.3079(5)
H15 H 0.2225 0.6052 0.3512
H16 H 0.1945 0.6145 0.2684
Cu1_2 Cu 0.16230(5) 0.50714(5) -0.69096(6)
Cu1D Cu -0.16230(5) 0.49286(5) -0.30904(6)
N5_2 N 0.1705(3) 0.4946(3) 0.4491(4)
N8D N 0.0785(3) 0.5286(3) 0.3303(4)
W1 W -0.050194(18) 0.396835(15) 0.19210(3)
W2 W 0.079806(18) 0.319874(16) 0.27611(3)
W3 W -0.05537(2) 0.320427(16) 0.41823(3)
W4 W -0.17271(3) 0.2500 0.34209(4)
W5 W -0.167636(17) 0.172749(15) 0.11685(3)
W6 W -0.043821(18) 0.173015(15) -0.01104(2)
W7 W 0.08650(2) 0.2500 0.07185(4)
Si1 Si -0.04661(14) 0.2500 0.19999(19)
O3 O -0.0397(3) 0.4657(3) 0.2124(5)
O4 O -0.0348(3) 0.3942(2) 0.0595(4)
O5 O -0.1315(3) 0.3941(2) 0.1631(4)
O6 O -0.0678(3) 0.3704(2) 0.3157(4)
O7 O 0.0265(3) 0.3682(2) 0.2150(4)
O8 O 0.1289(3) 0.3671(3) 0.3196(5)
O9 O 0.1161(3) 0.3058(3) 0.1554(4)
O10 O 0.1126(4) 0.2500 0.3185(6)
O11 O 0.0240(3) 0.3162(3) 0.3747(4)
O12 O -0.0493(4) 0.3657(3) 0.5116(5)
O13 O -0.0432(4) 0.2500 0.4810(6)
O14 O -0.1377(3) 0.3059(3) 0.4206(4)
O15 O -0.2417(5) 0.2500 0.3872(8)
O16 O -0.1789(3) 0.1946(3) 0.2452(5)
O17 O -0.1752(4) 0.2500 0.0866(6)
O18 O -0.2351(3) 0.1487(3) 0.0866(6)
O19 O -0.1270(3) 0.1613(2) -0.0005(4)
O20 O -0.0348(3) 0.1496(3) -0.1234(4)
O21 O -0.0596(4) 0.2500 -0.0325(6)
O22 O 0.0325(3) 0.1961(3) 0.0231(4)
O23 O 0.1400(4) 0.2500 -0.0114(7)
O24 O 0.0243(3) 0.2500 0.2044(5)
O25 O -0.0737(4) 0.2500 0.3055(5)
O26 O -0.0697(3) 0.3057(2) 0.1449(4)
O26G O -0.0697(3) 0.1943(2) 0.1449(4)
W1G W -0.050194(18) 0.103165(15) 0.19210(3)
W2G W 0.079806(18) 0.180126(16) 0.27611(3)
W3G W -0.05537(2) 0.179573(16) 0.41823(3)
W5G W -0.167636(17) 0.327251(15) 0.11685(3)
W6G W -0.043821(18) 0.326985(15) -0.01104(2)
O3G O -0.0397(3) 0.0343(3) 0.2124(5)
O4G O -0.0348(3) 0.1058(2) 0.0595(4)
O5G O -0.1315(3) 0.1059(2) 0.1631(4)
O6G O -0.0678(3) 0.1296(2) 0.3157(4)
O7G O 0.0265(3) 0.1318(2) 0.2150(4)
O8G O 0.1289(3) 0.1329(3) 0.3196(5)
O9G O 0.1161(3) 0.1942(3) 0.1554(4)
O11G O 0.0240(3) 0.1838(3) 0.3747(4)
O12G O -0.0493(4) 0.1343(3) 0.5116(5)
O14G O -0.1377(3) 0.1941(3) 0.4206(4)
O16G O -0.1789(3) 0.3054(3) 0.2452(5)
O18G O -0.2351(3) 0.3513(3) 0.0866(6)
O19G O -0.1270(3) 0.3387(2) -0.0005(4)
O20G O -0.0348(3) 0.3504(3) -0.1234(4)
O22G O 0.0325(3) 0.3039(3) 0.0231(4)
O27 O 0.2294(4) 0.3772(3) 0.1588(5)
H17 H 0.1946 0.3713 0.1401
H18 H 0.2316 0.4114 0.1752
O28 O 0.2673(6) 0.6432(5) 0.4491(8)
H19 H 0.2520 0.6601 0.4951
H20 H 0.2987 0.6603 0.4344
O29 O 0.1775(7) 0.6699(6) 0.1809(10)
H21 H 0.1678 0.6707 0.1227
H22 H 0.1688 0.7014 0.2043
O30 O 0.2013(13) 0.7500 0.4011(19)
H23 H 0.2218 0.7204 0.4027
H23G H 0.2218 0.7796 0.4027
O31 O 0.118(4) 0.2500 0.785(5)
O32 O 0.0024(16) 0.2500 0.691(2)
H24 H -0.0017 0.2500 0.6313
H25 H -0.0316 0.2500 0.7150
O33 O -0.1047(17) 0.2500 0.722(3)
O34 O 0.270(3) 0.7500 0.153(4)
O35 O 0.325(2) 0.685(2) 0.265(3)
O36 O 0.1909(16) 0.2500 0.485(3)
O37? O 0.061(3) 0.2500 0.781(4)
O38? O 0.0854(14) 0.2842(13) 0.559(2)
O39? O 0.174(2) 0.2851(19) 0.509(3)
loop_
_geom_bond_atom_site_label_1
_geom_bond_atom_site_label_2
_geom_bond_site_symmetry_1
_geom_bond_site_symmetry_2
Cu1 N1 1_555 1_555
C1 H1 1_555 1_555
C2 C1 1_555 1_555
H2 C2 1_555 1_555
C3 C2 1_555 1_555
C4 C3 1_555 1_555
H3 C4 1_555 1_555
C5 C4 1_555 1_555
H4 C5 1_555 1_555
C6 C3 1_555 1_555
C7 C8 1_555 1_555
C8 C9 1_555 1_555
C9 H5 1_555 1_555
C10 C9 1_555 1_555
H6 C10 1_555 1_555
C11 H7 1_555 1_555
C12 C8 1_555 1_555
H8 C12 1_555 1_555
C13 H9 1_555 1_555
H10 C13 1_555 1_555
C14 H11 1_555 1_555
C15 H12 1_555 1_555
N1 C1 1_555 1_555
N2 C6 1_555 1_555
N3 C6 1_555 1_555
N4 C7 1_555 1_555
N5 C10 1_555 1_555
N6 C13 1_555 1_555
N7 C15 1_555 1_555
N8 C14 1_555 1_555
O1 Cu1 1_555 1_555
H13 O1 1_555 1_555
H14 O1 1_555 1_555
O2 Cu1 1_555 1_555
H15 O2 1_555 1_555
H16 O2 1_555 1_555
W1 O3 1_555 1_555
W2 O7 1_555 1_555
W3 O6 1_555 1_555
W4 O14 1_555 1_555
W5 O16 1_555 1_555
W6 O19 1_555 1_555
W7 O9 1_555 1_555
Si1 O24 1_555 1_555
O4 W1 1_555 1_555
O5 W1 1_555 1_555
O6 W1 1_555 1_555
O7 W1 1_555 1_555
O8 W2 1_555 1_555
O9 W2 1_555 1_555
O10 W2 1_555 1_555
O11 W2 1_555 1_555
O12 W3 1_555 1_555
O13 W3 1_555 1_555
O14 W3 1_555 1_555
O15 W4 1_555 1_555
O16 W4 1_555 1_555
O17 W5 1_555 1_555
O18 W5 1_555 1_555
O19 W5 1_555 1_555
O20 W6 1_555 1_555
O21 W6 1_555 1_555
O22 W6 1_555 1_555
O23 W7 1_555 1_555
O24 W2 1_555 1_555
O25 W3 1_555 1_555
O26 W1 1_555 1_555
O27 H17 1_555 1_555
H18 O27 1_555 1_555
O28 H19 1_555 1_555
H20 O28 1_555 1_555
O29 H21 1_555 1_555
H22 O29 1_555 1_555
O30 H23 1_555 1_555
O32 H24 1_555 1_555
H25 O32 1_555 1_555
Cu1_2 N5 1_555 1_555
Cu1D N8 1_555 1_555
N5_2 Cu1 1_555 1_555
N8D Cu1 1_555 1_555
O26G W5 1_555 1_555
W1G O26G 1_555 1_555
W2G O10 1_555 1_555
W3G O13 1_555 1_555
W5G O5 1_555 1_555
W6G O4 1_555 1_555
O3G W1G 1_555 1_555
O4G W6 1_555 1_555
O5G W5 1_555 1_555
O6G W1G 1_555 1_555
O7G W1G 1_555 1_555
O8G W2G 1_555 1_555
O9G W7 1_555 1_555
O11G W2G 1_555 1_555
O12G W3G 1_555 1_555
O14G W4 1_555 1_555
O16G W4 1_555 1_555
O18G W5G 1_555 1_555
O19G W5G 1_555 1_555
O20G W6G 1_555 1_555
O22G W7 1_555 1_555
H23G O30 1_555 1_555
C5 N1 1_555 1_555
C7 N2 1_555 1_555
C11 C12 1_555 1_555
C11 N5 1_555 1_555
C13 N4 1_555 1_555
C14 N6 1_555 1_555
C15 N8 1_555 1_555
N3 N4 1_555 1_555
N6 N7 1_555 1_555
W3 O11 1_555 1_555
W4 O25 1_555 1_555
W6 O26G 1_555 1_555
W7 O22 1_555 1_555
W7 O24 1_555 1_555
Si1 O25 1_555 1_555
Si1 O26 1_555 1_555
Si1 O26G 1_555 1_555
O17 W5G 1_555 1_555
O21 W6G 1_555 1_555
O24 W2G 1_555 1_555
O25 W3G 1_555 1_555
O26 W5G 1_555 1_555
O26 W6G 1_555 1_555
W1G O4G 1_555 1_555
W1G O5G 1_555 1_555
W2G O7G 1_555 1_555
W2G O9G 1_555 1_555
W3G O6G 1_555 1_555
W3G O11G 1_555 1_555
W3G O14G 1_555 1_555
W5G O16G 1_555 1_555
W6G O19G 1_555 1_555
W6G O22G 1_555 1_555

#END
