
#######################################################################
#
#                 Cambridge Crystallographic Data Centre
#                                CCDC 
#
#######################################################################
#
# If this CIF has been generated from an entry in the Cambridge 
# Structural Database, then it will include bibliographic, chemical, 
# crystal, experimental, refinement or atomic coordinate data resulting 
# from the CCDC's data processing and validation procedures.
#
#######################################################################

data_YOCPEL
_symmetry_cell_setting           triclinic
_symmetry_space_group_name_H-M   'P -1'
_symmetry_Int_Tables_number      2
_space_group_name_Hall           '-P 1'
loop_
_symmetry_equiv_pos_site_id
_symmetry_equiv_pos_as_xyz
1 x,y,z
2 -x,-y,-z
_cell_length_a                   10.434
_cell_length_b                   11.410
_cell_length_c                   13.805
_cell_angle_alpha                69.48
_cell_angle_beta                 69.20
_cell_angle_gamma                77.62
_cell_volume                     1431.3
loop_
_atom_site_label
_atom_site_type_symbol
_atom_site_fract_x
_atom_site_fract_y
_atom_site_fract_z
Mn1 Mn 0.0000 1.0000 0.0000
O1 O -0.7858(4) 0.0466(4) -0.0857(3)
O2 O 0.0748(4) 0.8017(3) 0.0123(3)
O3 O 0.9766(4) 0.0371(3) -0.1574(3)
C1 C -0.7044(7) 0.0928(5) -0.0635(4)
C2 C -0.5642(7) 0.0992(5) -0.1263(5)
C3 C -0.4769(6) 0.1457(5) -0.1006(5)
N1 N -0.5170(5) 0.1888(4) -0.0142(4)
C4 C -0.6496(7) 0.1858(5) 0.0468(5)
C5 C -0.7419(6) 0.1421(5) 0.0256(5)
C6 C -0.4203(7) 0.2382(6) 0.0148(5)
C7 C -0.4592(6) 0.3736(5) 0.0068(5)
C8 C -0.4396(6) 0.4639(6) -0.0919(5)
C9 C -0.5232(6) 0.4130(6) 0.1001(5)
C10 C 0.1045(5) 0.7259(5) -0.0415(4)
C11 C 0.1037(6) 0.7602(5) -0.1502(5)
C12 C 0.1272(6) 0.6722(6) -0.2014(5)
N2 N 0.1550(5) 0.5502(4) -0.1548(4)
C13 C 0.1651(6) 0.5139(5) -0.0527(5)
C14 C 0.1414(5) 0.5954(5) 0.0036(4)
C15 C 0.1792(6) 0.4597(6) -0.2131(5)
C16 C 0.3269(7) 0.4449(5) -0.2834(4)
C17 C 0.3672(7) 0.3454(6) -0.3268(5)
C18 C 0.5008(7) 0.3245(6) -0.3874(5)
C19 C 0.5774(7) 0.4766(6) 0.3060(5)
C20 C 0.9290(5) 0.1145(5) -0.2303(4)
C21 C 0.9167(6) 0.2457(5) -0.2509(4)
C22 C 0.8629(6) 0.3246(6) -0.3287(5)
N3 N 0.8195(5) 0.2836(5) -0.3909(4)
C23 C 0.1670(6) 0.8406(6) 0.3758(5)
C24 C 0.1162(6) 0.9251(5) 0.2983(4)
C25 C 0.7487(7) 0.3725(6) -0.4672(5)
C26 C 0.4423(7) 0.4981(6) 0.3674(5)
C27 C 0.5973(6) 0.4011(6) -0.4075(4)
H1 H -0.5307 0.0685 -0.1883
H2 H -0.3828 0.1497 -0.1461
H3 H -0.6790 0.2175 0.1080
H4 H -0.8358 0.1422 0.0716
H5 H -0.3289 0.2282 -0.0334
H6 H -0.4196 0.1907 0.0874
H7 H -0.3964 0.4382 -0.1563
H8 H -0.5403 0.3505 0.1700
H9 H 0.9136 0.1528 0.1885
H10 H 0.8769 0.3005 0.2745
H11 H 0.1885 0.4265 -0.0192
H12 H 0.1490 0.5648 0.0758
H13 H 0.8442 0.6206 0.1614
H14 H 0.8804 0.5150 0.2579
H15 H 0.6998 0.7087 0.3140
H16 H 0.4740 0.7448 0.4170
H17 H 0.6048 0.4065 0.2773
H18 H 0.0536 0.7206 0.2086
H19 H 0.1444 0.5863 0.3412
H20 H 0.1948 0.8697 0.4219
H21 H 0.1111 1.0133 0.2887
H22 H 0.2455 0.6623 0.5229
H23 H 0.2072 0.5513 0.5013
H24 H 0.3765 0.4416 0.3828
C9A C -0.4768(6) 0.5870(6) -0.1001(5)
C7A C -0.5408(6) 0.6264(5) -0.0068(5)
C6A C -0.5797(7) 0.7618(6) -0.0148(5)
N1A N -0.4830(5) 0.8112(4) 0.0142(4)
C3A C -0.5231(6) 0.8543(5) 0.1006(5)
C2A C -0.4358(7) 0.9008(5) 0.1263(5)
C1A C -0.2956(7) 0.9072(5) 0.0635(4)
O1A O -0.2142(4) 0.9534(4) 0.0857(3)
Mn1_2 Mn -1.0000 0.0000 0.0000
O1_2 O 0.2142(4) 1.0466(4) -0.0857(3)
Mn1_3 Mn 1.0000 0.0000 0.0000
O2A O 0.9252(4) 0.1983(3) -0.0123(3)
C10A C 0.8955(5) 0.2741(5) 0.0415(4)
C11A C 0.8963(6) 0.2398(5) 0.1502(5)
C12A C 0.8728(6) 0.3278(6) 0.2014(5)
N2A N 0.8450(5) 0.4498(4) 0.1548(4)
C13A C 0.8349(6) 0.4861(5) 0.0527(5)
C14A C 0.8586(5) 0.4046(5) -0.0036(4)
H12A H 0.8510 0.4352 -0.0758
H11A H 0.8115 0.5735 0.0192
C15A C 0.8208(6) 0.5403(6) 0.2131(5)
C16A C 0.6731(7) 0.5551(5) 0.2834(4)
C17A C 0.6328(7) 0.6546(6) 0.3268(5)
C18A C 0.4992(7) 0.6755(6) 0.3874(5)
C27A C 0.4027(6) 0.5989(6) 0.4075(4)
C25A C 0.2513(7) 0.6275(6) 0.4672(5)
N3A N 0.1805(5) 0.7164(5) 0.3909(4)
C22A C 0.1371(6) 0.6754(6) 0.3287(5)
C21A C 0.0833(6) 0.7543(5) 0.2509(4)
C20A C 0.0710(5) 0.8855(5) 0.2303(4)
O3A O 0.0234(4) 0.9629(3) 0.1574(3)
O2A_2 O -0.0748(4) 1.1983(3) -0.0123(3)
O3_2 O -0.0234(4) 1.0371(3) -0.1574(3)
C24A C 0.8838(6) 0.0749(5) -0.2983(4)
C23A C 0.8330(6) 0.1594(6) -0.3758(5)
H20A H 0.8052 0.1303 -0.4219
H21A H 0.8889 -0.0133 -0.2887
H18A H 0.9464 0.2794 -0.2086
H19A H 0.8556 0.4137 -0.3412
H22A H 0.7545 0.3377 -0.5229
H23A H 0.7928 0.4487 -0.5013
C26A C 0.5577(7) 0.5019(6) -0.3674(5)
C19A C 0.4226(7) 0.5234(6) -0.3060(5)
H17A H 0.3952 0.5935 -0.2773
H24A H 0.6235 0.5584 -0.3828
H16A H 0.5260 0.2552 -0.4170
H15A H 0.3002 0.2913 -0.3140
H13A H 0.1558 0.3794 -0.1614
H14A H 0.1196 0.4850 -0.2579
H10A H 0.1231 0.6995 -0.2745
H9A H 0.0864 0.8472 -0.1885
C5A C -0.2581(6) 0.8579(5) -0.0256(5)
C4A C -0.3504(7) 0.8142(5) -0.0468(5)
H3A H -0.3210 0.7825 -0.1080
H4A H -0.1642 0.8578 -0.0716
H1A H -0.4693 0.9315 0.1883
H2A H -0.6172 0.8503 0.1461
H5A H -0.6711 0.7718 0.0334
H6A H -0.5804 0.8093 -0.0874
C8A C -0.5604(6) 0.5361(6) 0.0919(5)
H7A H -0.6036 0.5618 0.1563
H8A H -0.4597 0.6495 -0.1700
Cl1 Cl -0.8576(2) 0.2949(2) 0.3444(2)
O4 O -0.8641(9) 0.3868(10) 0.2528(7)
O5 O -0.8430(16) 0.3360(10) 0.4171(10)
O6 O -0.7383(10) 0.2254(11) 0.3228(8)
O7 O -0.9603(8) 0.2180(7) 0.3900(5)
N4 N -0.3248(11) 0.1203(9) 0.4481(7)
C28 C -0.3107(10) 0.0373(10) 0.4203(8)
C29 C -0.2904(12) -0.0705(10) 0.3830(10)
H25 H -0.3274 -0.1411 0.4426
H26 H -0.1938 -0.0909 0.3512
H27 H -0.3369 -0.0505 0.3295
loop_
_geom_bond_atom_site_label_1
_geom_bond_atom_site_label_2
_geom_bond_site_symmetry_1
_geom_bond_site_symmetry_2
Mn1 O2 1_555 1_555
O1 C1 1_555 1_555
O2 C10 1_555 1_555
O3 C20 1_555 1_555
C1 C2 1_555 1_555
C2 C3 1_555 1_555
C3 N1 1_555 1_555
N1 C4 1_555 1_555
C4 C5 1_555 1_555
C5 C1 1_555 1_555
C6 N1 1_555 1_555
C7 C6 1_555 1_555
C8 C7 1_555 1_555
C9 C7 1_555 1_555
C10 C11 1_555 1_555
C11 C12 1_555 1_555
C12 N2 1_555 1_555
N2 C13 1_555 1_555
C13 C14 1_555 1_555
C14 C10 1_555 1_555
C15 N2 1_555 1_555
C16 C15 1_555 1_555
C17 C16 1_555 1_555
C18 C17 1_555 1_555
C19 C26 1_555 1_555
C20 C21 1_555 1_555
C21 C22 1_555 1_555
C22 N3 1_555 1_555
N3 C25 1_555 1_555
C23 C24 1_555 1_555
C24 H21 1_555 1_555
C25 C27 1_555 1_555
C26 H24 1_555 1_555
C27 C18 1_555 1_555
Cl1 O4 1_555 1_555
O5 Cl1 1_555 1_555
O6 Cl1 1_555 1_555
O7 Cl1 1_555 1_555
N4 C28 1_555 1_555
C28 C29 1_555 1_555
C29 H25 1_555 1_555
H1 C2 1_555 1_555
H2 C3 1_555 1_555
H3 C4 1_555 1_555
H4 C5 1_555 1_555
H5 C6 1_555 1_555
H6 C6 1_555 1_555
H7 C8 1_555 1_555
H8 C9 1_555 1_555
H9 C11A 1_555 1_555
H10 C12A 1_555 1_555
H11 C13 1_555 1_555
H12 C14 1_555 1_555
H13 C15A 1_555 1_555
H14 C15A 1_555 1_555
H15 C17A 1_555 1_555
H16 C18A 1_555 1_555
H17 C19 1_555 1_555
H18 C21A 1_555 1_555
H19 C22A 1_555 1_555
H20 C23 1_555 1_555
H22 C25A 1_555 1_555
H23 C25A 1_555 1_555
H26 C29 1_555 1_555
H27 C29 1_555 1_555
C9A C8 1_555 1_555
C7A C9A 1_555 1_555
C6A C7A 1_555 1_555
N1A C6A 1_555 1_555
C3A N1A 1_555 1_555
C2A C3A 1_555 1_555
C1A C2A 1_555 1_555
O1A Mn1 1_555 1_555
Mn1_2 O1 1_555 1_555
O1_2 Mn1 1_555 1_555
Mn1_3 O3 1_555 1_555
O2A Mn1_3 1_555 1_555
C10A O2A 1_555 1_555
C11A C10A 1_555 1_555
C12A C11A 1_555 1_555
N2A C12A 1_555 1_555
C13A N2A 1_555 1_555
C14A C10A 1_555 1_555
H12A C14A 1_555 1_555
H11A C13A 1_555 1_555
C15A N2A 1_555 1_555
C16A C19 1_555 1_555
C17A C16A 1_555 1_555
C18A C17A 1_555 1_555
C27A C26 1_555 1_555
C25A C27A 1_555 1_555
N3A C23 1_555 1_555
C22A N3A 1_555 1_555
C21A C22A 1_555 1_555
C20A C24 1_555 1_555
O3A Mn1 1_555 1_555
O2A_2 Mn1 1_555 1_555
O3_2 Mn1 1_555 1_555
C24A C20 1_555 1_555
C23A N3 1_555 1_555
H20A C23A 1_555 1_555
H21A C24A 1_555 1_555
H18A C21 1_555 1_555
H19A C22 1_555 1_555
H22A C25 1_555 1_555
H23A C25 1_555 1_555
C26A C27 1_555 1_555
C19A C16 1_555 1_555
H17A C19A 1_555 1_555
H24A C26A 1_555 1_555
H16A C18 1_555 1_555
H15A C17 1_555 1_555
H13A C15 1_555 1_555
H14A C15 1_555 1_555
H10A C12 1_555 1_555
H9A C11 1_555 1_555
C5A C1A 1_555 1_555
C4A N1A 1_555 1_555
H3A C4A 1_555 1_555
H4A C5A 1_555 1_555
H1A C2A 1_555 1_555
H2A C3A 1_555 1_555
H5A C6A 1_555 1_555
H6A C6A 1_555 1_555
C8A C9 1_555 1_555
H7A C8A 1_555 1_555
H8A C9A 1_555 1_555
C7A C8A 1_555 1_555
C1A O1A 1_555 1_555
C13A C14A 1_555 1_555
C15A C16A 1_555 1_555
C18A C27A 1_555 1_555
C25A N3A 1_555 1_555
C21A C20A 1_555 1_555
C20A O3A 1_555 1_555
C24A C23A 1_555 1_555
C26A C19A 1_555 1_555
C5A C4A 1_555 1_555

#END
