
#######################################################################
#
#                 Cambridge Crystallographic Data Centre
#                                CCDC 
#
#######################################################################
#
# If this CIF has been generated from an entry in the Cambridge 
# Structural Database, then it will include bibliographic, chemical, 
# crystal, experimental, refinement or atomic coordinate data resulting 
# from the CCDC's data processing and validation procedures.
#
#######################################################################

data_YOCPIR
_symmetry_cell_setting           tetragonal
_symmetry_space_group_name_H-M   'P 4/n c c'
_symmetry_Int_Tables_number      130
_space_group_name_Hall           '-P 4a 2ac'
loop_
_symmetry_equiv_pos_site_id
_symmetry_equiv_pos_as_xyz
1 x,y,z
2 1/2-x,1/2-y,z
3 1/2+x,-y,1/2-z
4 -x,1/2+y,1/2-z
5 -y,-x,1/2-z
6 1/2+y,1/2+x,1/2-z
7 y,1/2-x,z
8 1/2-y,x,z
9 -x,-y,-z
10 1/2+x,1/2+y,-z
11 1/2-x,y,1/2+z
12 x,1/2-y,1/2+z
13 y,x,1/2+z
14 1/2-y,1/2-x,1/2+z
15 -y,1/2+x,-z
16 1/2+y,-x,-z
_cell_length_a                   26.2444(4)
_cell_length_b                   26.2444(4)
_cell_length_c                   19.1620(5)
_cell_angle_alpha                90
_cell_angle_beta                 90
_cell_angle_gamma                90
_cell_volume                     13198.2
loop_
_atom_site_label
_atom_site_type_symbol
_atom_site_fract_x
_atom_site_fract_y
_atom_site_fract_z
O22 O -0.4076(11) -0.0085(11) 0.4625(15)
H13 H -0.3894 -0.0045 0.4988
H14 H -0.4219 0.0198 0.4536
O23 O -0.4376(11) -0.0988(11) 0.5254(16)
H15 H -0.4279 -0.0713 0.5059
H16 H -0.4678 -0.0943 0.5398
O24 O -0.4584(11) 0.0812(11) 0.4264(16)
H17 H -0.4381 0.1021 0.4110
H18 H -0.4696 0.0622 0.3941
W1 W -0.33384(3) 0.21273(3) 0.63085(4)
O1 O -0.3826(5) 0.2068(5) 0.6891(7)
O2 O -0.3042(5) 0.2753(5) 0.6553(7)
O3 O -0.3679(5) 0.2491(6) 0.5572(7)
O4 O -0.2822(5) 0.1745(5) 0.6748(7)
O5 O -0.3486(5) 0.1498(5) 0.5786(7)
O6 O -0.2713(5) 0.2040(5) 0.5492(7)
Cu1 Cu -0.46604(10) 0.19273(10) 0.69444(13)
W2 W -0.28058(3) 0.34269(3) 0.63071(4)
W3 W -0.37224(3) 0.30422(3) 0.49384(4)
Si1 Si -0.2500 0.2500 0.5000
N1 N -0.4590(7) 0.1172(7) 0.6744(9)
O7 O -0.5607(7) 0.1930(7) 0.7122(10)
N2 N -0.3152(7) 0.0304(7) 0.6997(10)
N3 N -0.2336(7) 0.0262(7) 0.7775(9)
N4 N -0.2064(7) 0.0183(6) 0.4088(10)
C1 C -0.4990(9) 0.0891(9) 0.6557(12)
C2 C -0.4122(9) 0.0944(9) 0.6745(11)
W4 W -0.62170(3) 0.21202(3) 0.71493(5)
H1 H -0.5309 0.1045 0.6550
C3 C -0.4956(9) 0.0389(10) 0.6375(16)
C4 C -0.4047(8) 0.0448(8) 0.6549(11)
H2 H -0.3842 0.1134 0.6886
O8 O -0.6186(8) 0.2620(7) 0.7835(10)
O9 O -0.6207(8) 0.2641(7) 0.6468(10)
O10 O -0.7026(14) 0.2359(14) 0.7652(17)
O11 O -0.7004(13) 0.2364(14) 0.6678(17)
O12 O -0.6407(15) 0.1643(15) 0.791(2)
H3 H -0.5249 0.0203 0.6273
C5 C -0.4482(10) 0.0157(10) 0.6343(15)
C6 C -0.3542(9) 0.0238(7) 0.6528(11)
W5 W -0.66699(3) 0.29608(4) 0.84568(4)
W6 W -0.66682(3) 0.29550(4) 0.58412(4)
Si2 Si -0.7500 0.2500 0.7145(5)
H4 H -0.4448 -0.0177 0.6192
N5 N -0.3378(7) -0.0027(7) 0.5969(9)
O13 O -0.6808(8) 0.2300(7) 0.8800(9)
O14 O -0.6267(7) 0.3191(7) 0.9067(9)
O15 O -0.6245(7) 0.3175(7) 0.5248(9)
O16 O -0.6828(8) 0.2295(7) 0.5498(10)
O17 O -0.6671(8) 0.3516(8) 0.6444(10)
C7 C -0.2750(9) 0.0075(7) 0.6735(10)
N6 N -0.2868(7) -0.0109(7) 0.6103(9)
C8 C -0.2260(8) 0.0094(8) 0.7116(13)
C9 C -0.2578(11) -0.0425(8) 0.5614(11)
C10 C -0.1789(11) -0.0038(10) 0.6877(15)
C11 C -0.1930(10) 0.0335(12) 0.8169(13)
H5 H -0.2323 -0.0616 0.5869
H6 H -0.2806 -0.0666 0.5392
N7 N -0.2330(7) -0.0121(7) 0.5083(9)
H7 H -0.1744 -0.0181 0.6437
C12 C -0.1375(12) 0.0052(15) 0.7323(14)
C13 C -0.1452(10) 0.0230(16) 0.7968(14)
H8 H -0.1979 0.0469 0.8614
C14 C -0.2392(9) -0.0125(8) 0.4385(12)
N8 N -0.1956(9) 0.0209(7) 0.5244(9)
H9 H -0.1046 -0.0013 0.7169
H10 H -0.1179 0.0280 0.8270
H11 H -0.2633 -0.0318 0.4148
C15 C -0.1808(10) 0.0393(9) 0.4635(11)
H12 H -0.1556 0.0639 0.4585
O18 O -0.3092(6) 0.3807(5) 0.6916(7)
O19 O -0.3297(5) 0.3410(5) 0.5588(7)
O20 O -0.2423(5) 0.3914(5) 0.5796(7)
O21 O -0.4303(6) 0.3293(6) 0.5141(10)
O6A O -0.2287(5) 0.2960(5) 0.5492(7)
O6N O -0.2040(5) 0.2287(5) 0.4508(7)
O6O O -0.2960(5) 0.2713(5) 0.4508(7)
O10A O -0.7974(14) 0.2641(14) 0.7652(17)
O11A O -0.7996(13) 0.2636(14) 0.6678(17)
O10F O -0.7641(14) 0.2026(14) 0.7652(17)
O11F O -0.7636(14) 0.2004(13) 0.6678(17)
O10G O -0.7359(14) 0.2974(14) 0.7652(17)
O11G O -0.7364(14) 0.2996(13) 0.6678(17)
W1A W -1.16616(3) 0.28727(3) 0.63085(4)
O1A O -1.1174(5) 0.2932(5) 0.6891(7)
O2A O -1.1958(5) 0.2247(5) 0.6553(7)
O3A O -1.1321(5) 0.2509(6) 0.5572(7)
O4A O -1.2178(5) 0.3255(5) 0.6748(7)
O5A O -1.1514(5) 0.3502(5) 0.5786(7)
Cu1A Cu -1.03396(10) 0.30727(10) 0.69444(13)
W2A W -1.21942(3) 0.15731(3) 0.63071(4)
W3A W -1.12776(3) 0.19578(3) 0.49384(4)
N1A N -1.0410(7) 0.3828(7) 0.6744(9)
O7A O -0.9393(7) 0.3070(7) 0.7122(10)
N2A N -1.1848(7) 0.4696(7) 0.6997(10)
N3A N -1.2664(7) 0.4738(7) 0.7775(9)
N4A N -1.2936(7) 0.4817(6) 0.4088(10)
C1A C -1.0010(9) 0.4109(9) 0.6557(12)
C2A C -1.0878(9) 0.4056(9) 0.6745(11)
W4A W -0.87830(3) 0.28798(3) 0.71493(5)
H1A H -0.9691 0.3955 0.6550
C3A C -1.0044(9) 0.4611(10) 0.6375(16)
C4A C -1.0953(8) 0.4552(8) 0.6549(11)
H2A H -1.1158 0.3866 0.6886
O8A O -0.8814(8) 0.2380(7) 0.7835(10)
O9A O -0.8793(8) 0.2359(7) 0.6468(10)
O12A O -0.8593(15) 0.3357(15) 0.791(2)
H3A H -0.9751 0.4797 0.6273
C5A C -1.0518(10) 0.4843(10) 0.6343(15)
C6A C -1.1458(9) 0.4762(7) 0.6528(11)
W5A W -0.83301(3) 0.20392(4) 0.84568(4)
W6A W -0.83318(3) 0.20450(4) 0.58412(4)
H4A H -1.0552 0.5177 0.6192
N5A N -1.1622(7) 0.5027(7) 0.5969(9)
O13A O -0.8192(8) 0.2700(7) 0.8800(9)
O14A O -0.8733(7) 0.1809(7) 0.9067(9)
O15A O -0.8755(7) 0.1825(7) 0.5248(9)
O16A O -0.8172(8) 0.2705(7) 0.5498(10)
O17A O -0.8329(8) 0.1484(8) 0.6444(10)
C7A C -1.2250(9) 0.4925(7) 0.6735(10)
N6A N -1.2132(7) 0.5109(7) 0.6103(9)
C8A C -1.2740(8) 0.4906(8) 0.7116(13)
C9A C -1.2422(11) 0.5425(8) 0.5614(11)
C10A C -1.3211(11) 0.5038(10) 0.6877(15)
C11A C -1.3070(10) 0.4665(12) 0.8169(13)
H5A H -1.2677 0.5616 0.5869
H6A H -1.2194 0.5666 0.5392
N7A N -1.2670(7) 0.5121(7) 0.5083(9)
H7A H -1.3256 0.5181 0.6437
C12A C -1.3625(12) 0.4948(15) 0.7323(14)
C13A C -1.3548(10) 0.4770(16) 0.7968(14)
H8A H -1.3021 0.4531 0.8614
C14A C -1.2608(9) 0.5125(8) 0.4385(12)
N8A N -1.3044(9) 0.4791(7) 0.5244(9)
H9A H -1.3954 0.5013 0.7169
H10A H -1.3821 0.4720 0.8270
H11A H -1.2367 0.5318 0.4148
C15A C -1.3192(10) 0.4607(9) 0.4635(11)
H12A H -1.3444 0.4361 0.4585
O18A O -1.1908(6) 0.1193(5) 0.6916(7)
O19A O -1.1703(5) 0.1590(5) 0.5588(7)
O20A O -1.2577(5) 0.1086(5) 0.5796(7)
O21A O -1.0697(6) 0.1707(6) 0.5141(10)
W1F W -0.78727(3) -0.16616(3) 0.63085(4)
O1F O -0.7932(5) -0.1174(5) 0.6891(7)
O2F O -0.7247(5) -0.1958(5) 0.6553(7)
O3F O -0.7509(6) -0.1321(5) 0.5572(7)
O4F O -0.8255(5) -0.2178(5) 0.6748(7)
O5F O -0.8502(5) -0.1514(5) 0.5786(7)
Cu1F Cu -0.80727(10) -0.03396(10) 0.69444(13)
W2F W -0.65731(3) -0.21942(3) 0.63071(4)
W3F W -0.69578(3) -0.12776(3) 0.49384(4)
N1F N -0.8828(7) -0.0410(7) 0.6744(9)
O7F O -0.8070(7) 0.0607(7) 0.7122(10)
N2F N -0.9696(7) -0.1848(7) 0.6997(10)
N3F N -0.9738(7) -0.2664(7) 0.7775(9)
N4F N -0.9817(6) -0.2936(7) 0.4088(10)
C1F C -0.9109(9) -0.0010(9) 0.6557(12)
C2F C -0.9056(9) -0.0878(9) 0.6745(11)
W4F W -0.78798(3) 0.12170(3) 0.71493(5)
H1F H -0.8955 0.0309 0.6550
C3F C -0.9611(10) -0.0044(9) 0.6375(16)
C4F C -0.9552(8) -0.0953(8) 0.6549(11)
H2F H -0.8866 -0.1158 0.6886
O8F O -0.7380(7) 0.1186(8) 0.7835(10)
O9F O -0.7359(7) 0.1207(8) 0.6468(10)
O12F O -0.8357(15) 0.1407(15) 0.791(2)
H3F H -0.9797 0.0249 0.6273
C5F C -0.9843(10) -0.0518(10) 0.6343(15)
C6F C -0.9762(7) -0.1458(9) 0.6528(11)
W5F W -0.70392(4) 0.16699(3) 0.84568(4)
W6F W -0.70450(4) 0.16682(3) 0.58412(4)
H4F H -1.0177 -0.0552 0.6192
N5F N -1.0027(7) -0.1622(7) 0.5969(9)
O13F O -0.7700(7) 0.1808(8) 0.8800(9)
O14F O -0.6809(7) 0.1267(7) 0.9067(9)
O15F O -0.6825(7) 0.1245(7) 0.5248(9)
O16F O -0.7705(7) 0.1828(8) 0.5498(10)
O17F O -0.6484(8) 0.1671(8) 0.6444(10)
C7F C -0.9925(7) -0.2250(9) 0.6735(10)
N6F N -1.0109(7) -0.2132(7) 0.6103(9)
C8F C -0.9906(8) -0.2740(8) 0.7116(13)
C9F C -1.0425(8) -0.2422(11) 0.5614(11)
C10F C -1.0038(10) -0.3211(11) 0.6877(15)
C11F C -0.9665(12) -0.3070(10) 0.8169(13)
H5F H -1.0616 -0.2677 0.5869
H6F H -1.0666 -0.2194 0.5392
N7F N -1.0121(7) -0.2670(7) 0.5083(9)
H7F H -1.0181 -0.3256 0.6437
C12F C -0.9948(15) -0.3625(12) 0.7323(14)
C13F C -0.9770(16) -0.3548(10) 0.7968(14)
H8F H -0.9531 -0.3021 0.8614
C14F C -1.0125(8) -0.2608(9) 0.4385(12)
N8F N -0.9791(7) -0.3044(9) 0.5244(9)
H9F H -1.0013 -0.3954 0.7169
H10F H -0.9720 -0.3821 0.8270
H11F H -1.0318 -0.2367 0.4148
C15F C -0.9607(9) -0.3192(10) 0.4635(11)
H12F H -0.9361 -0.3444 0.4585
O18F O -0.6193(5) -0.1908(6) 0.6916(7)
O19F O -0.6590(5) -0.1703(5) 0.5588(7)
O20F O -0.6086(5) -0.2577(5) 0.5796(7)
O21F O -0.6707(6) -0.0697(6) 0.5141(10)
W1G W -0.71273(3) -0.33384(3) 0.63085(4)
O1G O -0.7068(5) -0.3826(5) 0.6891(7)
O2G O -0.7753(5) -0.3042(5) 0.6553(7)
O3G O -0.7491(6) -0.3679(5) 0.5572(7)
O4G O -0.6745(5) -0.2822(5) 0.6748(7)
O5G O -0.6498(5) -0.3486(5) 0.5786(7)
Cu1G Cu -0.69273(10) -0.46604(10) 0.69444(13)
W2G W -0.84269(3) -0.28058(3) 0.63071(4)
W3G W -0.80422(3) -0.37224(3) 0.49384(4)
N1G N -0.6172(7) -0.4590(7) 0.6744(9)
O7G O -0.6930(7) -0.5607(7) 0.7122(10)
N2G N -0.5304(7) -0.3152(7) 0.6997(10)
N3G N -0.5262(7) -0.2336(7) 0.7775(9)
N4G N -0.5183(6) -0.2064(7) 0.4088(10)
C1G C -0.5891(9) -0.4990(9) 0.6557(12)
C2G C -0.5944(9) -0.4122(9) 0.6745(11)
W4G W -0.71202(3) -0.62170(3) 0.71493(5)
H1G H -0.6045 -0.5309 0.6550
C3G C -0.5389(10) -0.4956(9) 0.6375(16)
C4G C -0.5448(8) -0.4047(8) 0.6549(11)
H2G H -0.6134 -0.3842 0.6886
O8G O -0.7620(7) -0.6186(8) 0.7835(10)
O9G O -0.7641(7) -0.6207(8) 0.6468(10)
O12G O -0.6643(15) -0.6407(15) 0.791(2)
H3G H -0.5203 -0.5249 0.6273
C5G C -0.5157(10) -0.4482(10) 0.6343(15)
C6G C -0.5238(7) -0.3542(9) 0.6528(11)
W5G W -0.79608(4) -0.66699(3) 0.84568(4)
W6G W -0.79550(4) -0.66682(3) 0.58412(4)
H4G H -0.4823 -0.4448 0.6192
N5G N -0.4973(7) -0.3378(7) 0.5969(9)
O13G O -0.7300(7) -0.6808(8) 0.8800(9)
O14G O -0.8191(7) -0.6267(7) 0.9067(9)
O15G O -0.8175(7) -0.6245(7) 0.5248(9)
O16G O -0.7295(7) -0.6828(8) 0.5498(10)
O17G O -0.8516(8) -0.6671(8) 0.6444(10)
C7G C -0.5075(7) -0.2750(9) 0.6735(10)
N6G N -0.4891(7) -0.2868(7) 0.6103(9)
C8G C -0.5094(8) -0.2260(8) 0.7116(13)
C9G C -0.4575(8) -0.2578(11) 0.5614(11)
C10G C -0.4962(10) -0.1789(11) 0.6877(15)
C11G C -0.5335(12) -0.1930(10) 0.8169(13)
H5G H -0.4384 -0.2323 0.5869
H6G H -0.4334 -0.2806 0.5392
N7G N -0.4879(7) -0.2330(7) 0.5083(9)
H7G H -0.4819 -0.1744 0.6437
C12G C -0.5052(15) -0.1375(12) 0.7323(14)
C13G C -0.5230(16) -0.1452(10) 0.7968(14)
H8G H -0.5469 -0.1979 0.8614
C14G C -0.4875(8) -0.2392(9) 0.4385(12)
N8G N -0.5209(7) -0.1956(9) 0.5244(9)
H9G H -0.4987 -0.1046 0.7169
H10G H -0.5280 -0.1179 0.8270
H11G H -0.4682 -0.2633 0.4148
C15G C -0.5393(9) -0.1808(10) 0.4635(11)
H12G H -0.5639 -0.1556 0.4585
O18G O -0.8807(5) -0.3092(6) 0.6916(7)
O19G O -0.8410(5) -0.3297(5) 0.5588(7)
O20G O -0.8914(5) -0.2423(5) 0.5796(7)
O21G O -0.8293(6) -0.4303(6) 0.5141(10)
W1A_2 W -0.16616(3) 0.28727(3) 0.63085(4)
W1N W -0.21273(3) 0.16616(3) 0.36915(4)
W1O W -0.28727(3) 0.33384(3) 0.36915(4)
O4_2 O -1.2822(5) 0.1745(5) 0.6748(7)
O4A_2 O -0.2178(5) 0.3255(5) 0.6748(7)
O5H O -0.6514(5) -0.1498(5) 0.4214(7)
O5I O -0.8486(5) -0.3502(5) 0.4214(7)
O5N O -1.1498(5) 0.1514(5) 0.4214(7)
O5O O -0.3502(5) 0.3486(5) 0.4214(7)
O6_2 O -1.2713(5) 0.2040(5) 0.5492(7)
O6A_2 O -1.2287(5) 0.2960(5) 0.5492(7)
O6F O -0.7960(5) -0.2287(5) 0.5492(7)
O6G O -0.7040(5) -0.2713(5) 0.5492(7)
O6H O -0.7287(5) -0.2040(5) 0.4508(7)
O6I O -0.7713(5) -0.2960(5) 0.4508(7)
O6N_2 O -1.2040(5) 0.2287(5) 0.4508(7)
Cu1B Cu -0.96604(10) -0.19273(10) 0.80556(13)
Cu1C Cu -0.53396(10) -0.30727(10) 0.80556(13)
Cu1D Cu -1.19273(10) 0.46604(10) 0.80556(13)
Cu1E Cu -0.30727(10) 0.03396(10) 0.80556(13)
Cu1H Cu -0.53396(10) -0.19273(10) 0.30556(13)
Cu1I Cu -0.96604(10) -0.30727(10) 0.30556(13)
Cu1N Cu -0.19273(10) 0.03396(10) 0.30556(13)
Cu1O Cu -1.30727(10) 0.46604(10) 0.30556(13)
W2_2 W -1.28058(3) 0.34269(3) 0.63071(4)
W2A_2 W -0.21942(3) 0.15731(3) 0.63071(4)
W2N W -0.34269(3) 0.21942(3) 0.36929(4)
W2O W -0.15731(3) 0.28058(3) 0.36929(4)
W3A_2 W -0.12776(3) 0.19578(3) 0.49384(4)
W3H W -0.62776(3) -0.30422(3) 0.50616(4)
W3I W -0.87224(3) -0.19578(3) 0.50616(4)
W3N W -1.30422(3) 0.12776(3) 0.50616(4)
W3N_2 W -0.30422(3) 0.12776(3) 0.50616(4)
W3O W -1.19578(3) 0.37224(3) 0.50616(4)
W3O_2 W -0.19578(3) 0.37224(3) 0.50616(4)
N2B N -0.8152(7) -0.0304(7) 0.8003(10)
N2C N -0.6848(7) -0.4696(7) 0.8003(10)
N2D N -1.0304(7) 0.3152(7) 0.8003(10)
N2E N -0.4696(7) 0.1848(7) 0.8003(10)
N3B N -0.7336(7) -0.0262(7) 0.7225(9)
N3C N -0.7664(7) -0.4738(7) 0.7225(9)
N3D N -1.0262(7) 0.2336(7) 0.7225(9)
N3E N -0.4738(7) 0.2664(7) 0.7225(9)
N4H N -0.7936(7) -0.0183(6) 0.5912(10)
N4I N -0.7064(7) -0.4817(6) 0.5912(10)
N4N N -1.0183(6) 0.2936(7) 0.5912(10)
N4O N -0.4817(6) 0.2064(7) 0.5912(10)
W4A_2 W -0.87830(3) -0.71202(3) 0.71493(5)
W4G_2 W -0.71202(3) 0.37830(3) 0.71493(5)
O10A_2 O -0.7974(14) -0.7359(14) 0.7652(17)
O10G_2 O -0.7359(14) -0.7026(14) 0.7652(17)
O11A_2 O -0.7996(13) -0.7364(14) 0.6678(17)
O11G_2 O -0.7364(14) -0.7004(13) 0.6678(17)
O12A_2 O -0.8593(15) -0.6643(15) 0.791(2)
O12G_2 O -0.6643(15) 0.3593(15) 0.791(2)
W5_2 W -0.66699(3) -0.70392(4) 0.84568(4)
W5G_2 W -0.79608(4) 0.33301(3) 0.84568(4)
W6_2 W -0.66682(3) -0.70450(4) 0.58412(4)
W6G_2 W -0.79550(4) 0.33318(3) 0.58412(4)
O13A_2 O -0.8192(8) -0.7300(7) 0.8800(9)
O13G_2 O -0.7300(7) 0.3192(8) 0.8800(9)
O16A_2 O -0.8172(8) -0.7295(7) 0.5498(10)
O16G_2 O -0.7295(7) 0.3172(8) 0.5498(10)
O17_2 O -0.6671(8) -0.6484(8) 0.6444(10)
O17G_2 O -0.8516(8) 0.3329(8) 0.6444(10)
O20H O -0.7577(5) -0.3914(5) 0.4204(7)
O20I O -0.7423(5) -0.1086(5) 0.4204(7)
O20N O -0.3914(5) 0.2577(5) 0.4204(7)
O20O O -1.1086(5) 0.2423(5) 0.4204(7)
O25? O -0.6600(15) 0.1716(16) 0.7726(19)
loop_
_geom_bond_atom_site_label_1
_geom_bond_atom_site_label_2
_geom_bond_site_symmetry_1
_geom_bond_site_symmetry_2
W1 O1 1_555 1_555
O1 Cu1 1_555 1_555
O2 W1 1_555 1_555
O3 W1 1_555 1_555
O4 W1 1_555 1_555
O5 W1 1_555 1_555
O6 W1 1_555 1_555
Cu1 N1 1_555 1_555
W2 O2 1_555 1_555
W3 O3 1_555 1_555
Si1 O6 1_555 1_555
N1 C1 1_555 1_555
O7 Cu1 1_555 1_555
N2 C6 1_555 1_555
N3 C8 1_555 1_555
N4 C14 1_555 1_555
C1 H1 1_555 1_555
C2 N1 1_555 1_555
W4 O7 1_555 1_555
C3 C1 1_555 1_555
C4 C2 1_555 1_555
H2 C2 1_555 1_555
O8 W4 1_555 1_555
O9 W4 1_555 1_555
O10 W4 1_555 1_555
O11 W4 1_555 1_555
O12 W4 1_555 1_555
H3 C3 1_555 1_555
C5 C3 1_555 1_555
C6 C4 1_555 1_555
W5 O8 1_555 1_555
W6 O9 1_555 1_555
Si2 O10 1_555 1_555
H4 C5 1_555 1_555
N5 C6 1_555 1_555
O13 W5 1_555 1_555
O14 W5 1_555 1_555
O15 W6 1_555 1_555
O16 W6 1_555 1_555
O17 W6 1_555 1_555
C7 N2 1_555 1_555
N6 N5 1_555 1_555
C8 C7 1_555 1_555
C9 N6 1_555 1_555
C10 C8 1_555 1_555
C11 N3 1_555 1_555
H5 C9 1_555 1_555
H6 C9 1_555 1_555
N7 C9 1_555 1_555
H7 C10 1_555 1_555
C12 C10 1_555 1_555
C13 C11 1_555 1_555
H8 C11 1_555 1_555
C14 N7 1_555 1_555
N8 N7 1_555 1_555
H9 C12 1_555 1_555
H10 C13 1_555 1_555
H11 C14 1_555 1_555
C15 N4 1_555 1_555
H12 C15 1_555 1_555
O18 W2 1_555 1_555
O19 W2 1_555 1_555
O20 W2 1_555 1_555
O21 W3 1_555 1_555
O22 H13 1_555 1_555
H14 O22 1_555 1_555
O23 H15 1_555 1_555
H16 O23 1_555 1_555
O24 H17 1_555 1_555
H18 O24 1_555 1_555
O6A W2 1_555 1_555
O6N Si1 1_555 1_555
O6O W3 1_555 1_555
O10A Si2 1_555 1_555
O11A Si2 1_555 1_555
O10F Si2 1_555 1_555
O11F Si2 1_555 1_555
O10G W5 1_555 1_555
O11G W6 1_555 1_555
W1A O1A 1_555 1_555
O1A Cu1A 1_555 1_555
O2A W1A 1_555 1_555
O3A W1A 1_555 1_555
O4A W1A 1_555 1_555
O5A W1A 1_555 1_555
Cu1A N1A 1_555 1_555
W2A O2A 1_555 1_555
W3A O3A 1_555 1_555
N1A C1A 1_555 1_555
O7A Cu1A 1_555 1_555
N2A C6A 1_555 1_555
N3A C8A 1_555 1_555
N4A C14A 1_555 1_555
C1A H1A 1_555 1_555
C2A N1A 1_555 1_555
W4A O10A 1_555 1_555
C3A C1A 1_555 1_555
C4A C2A 1_555 1_555
H2A C2A 1_555 1_555
O8A W4A 1_555 1_555
O9A W4A 1_555 1_555
O12A W4A 1_555 1_555
H3A C3A 1_555 1_555
C5A C3A 1_555 1_555
C6A C4A 1_555 1_555
W5A O10A 1_555 1_555
W6A O11A 1_555 1_555
H4A C5A 1_555 1_555
N5A C6A 1_555 1_555
O13A W5A 1_555 1_555
O14A W5A 1_555 1_555
O15A W6A 1_555 1_555
O16A W6A 1_555 1_555
O17A W6A 1_555 1_555
C7A N2A 1_555 1_555
N6A N5A 1_555 1_555
C8A C7A 1_555 1_555
C9A N6A 1_555 1_555
C10A C8A 1_555 1_555
C11A N3A 1_555 1_555
H5A C9A 1_555 1_555
H6A C9A 1_555 1_555
N7A C9A 1_555 1_555
H7A C10A 1_555 1_555
C12A C10A 1_555 1_555
C13A C11A 1_555 1_555
H8A C11A 1_555 1_555
C14A N7A 1_555 1_555
N8A N7A 1_555 1_555
H9A C12A 1_555 1_555
H10A C13A 1_555 1_555
H11A C14A 1_555 1_555
C15A N4A 1_555 1_555
H12A C15A 1_555 1_555
O18A W2A 1_555 1_555
O19A W2A 1_555 1_555
O20A W2A 1_555 1_555
O21A W3A 1_555 1_555
W1F O1F 1_555 1_555
O1F Cu1F 1_555 1_555
O2F W1F 1_555 1_555
O3F W1F 1_555 1_555
O4F W1F 1_555 1_555
O5F W1F 1_555 1_555
Cu1F N1F 1_555 1_555
W2F O2F 1_555 1_555
W3F O3F 1_555 1_555
N1F C1F 1_555 1_555
O7F Cu1F 1_555 1_555
N2F C6F 1_555 1_555
N3F C8F 1_555 1_555
N4F C14F 1_555 1_555
C1F H1F 1_555 1_555
C2F N1F 1_555 1_555
W4F O10F 1_555 1_555
C3F C1F 1_555 1_555
C4F C2F 1_555 1_555
H2F C2F 1_555 1_555
O8F W4F 1_555 1_555
O9F W4F 1_555 1_555
O12F W5A 1_555 1_555
H3F C3F 1_555 1_555
C5F C3F 1_555 1_555
C6F C4F 1_555 1_555
W5F O10 1_555 1_555
W6F O11 1_555 1_555
H4F C5F 1_555 1_555
N5F C6F 1_555 1_555
O13F W5A 1_555 1_555
O14F W5F 1_555 1_555
O15F W6F 1_555 1_555
O16F W6A 1_555 1_555
O17F W4 1_555 1_555
C7F N2F 1_555 1_555
N6F N5F 1_555 1_555
C8F C7F 1_555 1_555
C9F N6F 1_555 1_555
C10F C8F 1_555 1_555
C11F N3F 1_555 1_555
H5F C9F 1_555 1_555
H6F C9F 1_555 1_555
N7F C9F 1_555 1_555
H7F C10F 1_555 1_555
C12F C10F 1_555 1_555
C13F C11F 1_555 1_555
H8F C11F 1_555 1_555
C14F N7F 1_555 1_555
N8F N7F 1_555 1_555
H9F C12F 1_555 1_555
H10F C13F 1_555 1_555
H11F C14F 1_555 1_555
C15F N4F 1_555 1_555
H12F C15F 1_555 1_555
O18F W2F 1_555 1_555
O19F W2F 1_555 1_555
O20F W2F 1_555 1_555
O21F W3F 1_555 1_555
W1G O1G 1_555 1_555
O1G Cu1G 1_555 1_555
O2G W1G 1_555 1_555
O3G W1G 1_555 1_555
O4G W2F 1_555 1_555
O5G W1G 1_555 1_555
Cu1G N1G 1_555 1_555
W2G O4F 1_555 1_555
W3G O3G 1_555 1_555
N1G C1G 1_555 1_555
O7G Cu1G 1_555 1_555
N2G C6G 1_555 1_555
N3G C8G 1_555 1_555
N4G C14G 1_555 1_555
C1G H1G 1_555 1_555
C2G N1G 1_555 1_555
W4G O7G 1_555 1_555
C3G C1G 1_555 1_555
C4G C2G 1_555 1_555
H2G C2G 1_555 1_555
O8G W4G 1_555 1_555
O9G W4G 1_555 1_555
O12G W4G 1_555 1_555
H3G C3G 1_555 1_555
C5G C3G 1_555 1_555
C6G C4G 1_555 1_555
W5G O8G 1_555 1_555
W6G O9G 1_555 1_555
H4G C5G 1_555 1_555
N5G C6G 1_555 1_555
O13G W5G 1_555 1_555
O14G W5G 1_555 1_555
O15G W6G 1_555 1_555
O16G W6G 1_555 1_555
O17G W6G 1_555 1_555
C7G N2G 1_555 1_555
N6G N5G 1_555 1_555
C8G C7G 1_555 1_555
C9G N6G 1_555 1_555
C10G C8G 1_555 1_555
C11G N3G 1_555 1_555
H5G C9G 1_555 1_555
H6G C9G 1_555 1_555
N7G C9G 1_555 1_555
H7G C10G 1_555 1_555
C12G C10G 1_555 1_555
C13G C11G 1_555 1_555
H8G C11G 1_555 1_555
C14G N7G 1_555 1_555
N8G N7G 1_555 1_555
H9G C12G 1_555 1_555
H10G C13G 1_555 1_555
H11G C14G 1_555 1_555
C15G N4G 1_555 1_555
H12G C15G 1_555 1_555
O18G W2G 1_555 1_555
O19G W2G 1_555 1_555
O20G W2G 1_555 1_555
O21G W3G 1_555 1_555
W1A_2 O6A 1_555 1_555
W1N O6N 1_555 1_555
W1O O6O 1_555 1_555
O4_2 W2A 1_555 1_555
O4A_2 W2 1_555 1_555
O5H W3F 1_555 1_555
O5I W3G 1_555 1_555
O5N W3A 1_555 1_555
O5O W3 1_555 1_555
O6_2 W2A 1_555 1_555
O6A_2 W1A 1_555 1_555
O6F W1F 1_555 1_555
O6G W2F 1_555 1_555
O6H W3F 1_555 1_555
O6I W3G 1_555 1_555
O6N_2 W3A 1_555 1_555
Cu1B N2F 1_555 1_555
Cu1C N2G 1_555 1_555
Cu1D N2A 1_555 1_555
Cu1E N2 1_555 1_555
Cu1H N4G 1_555 1_555
Cu1I N4F 1_555 1_555
Cu1N N4 1_555 1_555
Cu1O N4A 1_555 1_555
W2_2 O4A 1_555 1_555
W2A_2 O4 1_555 1_555
W2N O6O 1_555 1_555
W2O O6N 1_555 1_555
W3A_2 O6N 1_555 1_555
W3H O20F 1_555 1_555
W3I O5F 1_555 1_555
W3N O20A 1_555 1_555
W3N_2 O5 1_555 1_555
W3O O5A 1_555 1_555
W3O_2 O20 1_555 1_555
N2B Cu1F 1_555 1_555
N2C Cu1G 1_555 1_555
N2D Cu1A 1_555 1_555
N2E Cu1 1_555 1_555
N3B Cu1F 1_555 1_555
N3C Cu1G 1_555 1_555
N3D Cu1A 1_555 1_555
N3E Cu1 1_555 1_555
N4H Cu1F 1_555 1_555
N4I Cu1G 1_555 1_555
N4N Cu1A 1_555 1_555
N4O Cu1 1_555 1_555
W4A_2 O17G 1_555 1_555
W4G_2 O17 1_555 1_555
O10A_2 W5G 1_555 1_555
O10G_2 W4G 1_555 1_555
O11A_2 W6G 1_555 1_555
O11G_2 W4G 1_555 1_555
O12A_2 W5G 1_555 1_555
O12G_2 W5 1_555 1_555
W5_2 O12G 1_555 1_555
W5G_2 O10A 1_555 1_555
W6_2 O16G 1_555 1_555
W6G_2 O11A 1_555 1_555
O13A_2 W5G 1_555 1_555
O13G_2 W5 1_555 1_555
O16A_2 W6G 1_555 1_555
O16G_2 W6 1_555 1_555
O17_2 W4G 1_555 1_555
O17G_2 W4A 1_555 1_555
O20H W3G 1_555 1_555
O20I W3F 1_555 1_555
O20N W3 1_555 1_555
O20O W3A 1_555 1_555
O6 W2A_2 1_555 1_555
O6 W3N_2 1_555 1_555
W3 O19 1_555 1_555
Si1 O6A 1_555 1_555
Si1 O6O 1_555 1_555
N3 Cu1E 1_555 1_555
C4 C5 1_555 1_555
O10 W5 1_555 1_555
O11 W6 1_555 1_555
O11 Si2 1_555 1_555
O12 W5F 1_555 1_555
Si2 O10G 1_555 1_555
Si2 O11G 1_555 1_555
O13 W5F 1_555 1_555
O16 W6F 1_555 1_555
C7 N6 1_555 1_555
C12 C13 1_555 1_555
N8 C15 1_555 1_555
O6A W3O_2 1_555 1_555
O11A W4A 1_555 1_555
O10F W5A 1_555 1_555
O10F W5F 1_555 1_555
O11F W6A 1_555 1_555
O11F W4F 1_555 1_555
O11F W6F 1_555 1_555
O10G W4G_2 1_555 1_555
O10G W5G_2 1_555 1_555
O11G W4G_2 1_555 1_555
O11G W6G_2 1_555 1_555
W3A O19A 1_555 1_555
O7A W4A 1_555 1_555
N3A Cu1D 1_555 1_555
C4A C5A 1_555 1_555
O8A W5A 1_555 1_555
O9A W6A 1_555 1_555
O12A W5G_2 1_555 1_555
O13A W5G_2 1_555 1_555
O16A W6G_2 1_555 1_555
O17A W4F 1_555 1_555
C7A N6A 1_555 1_555
C12A C13A 1_555 1_555
N8A C15A 1_555 1_555
W3F O19F 1_555 1_555
O7F W4F 1_555 1_555
N3F Cu1B 1_555 1_555
W4F O12F 1_555 1_555
C4F C5F 1_555 1_555
O8F W5F 1_555 1_555
O9F W6F 1_555 1_555
W5F O13F 1_555 1_555
W6F O16F 1_555 1_555
W6F O17F 1_555 1_555
C7F N6F 1_555 1_555
C12F C13F 1_555 1_555
N8F C15F 1_555 1_555
W1G O4G 1_555 1_555
W1G O6G 1_555 1_555
O2G W2G 1_555 1_555
O5G W3H 1_555 1_555
W2G O6F 1_555 1_555
W3G O19G 1_555 1_555
N3G Cu1C 1_555 1_555
C4G C5G 1_555 1_555
W5G O10G_2 1_555 1_555
W6G O11G_2 1_555 1_555
O13G W5_2 1_555 1_555
C7G N6G 1_555 1_555
C12G C13G 1_555 1_555
N8G C15G 1_555 1_555
O20G W3I 1_555 1_555
W1A_2 O4A_2 1_555 1_555
W1O O5O 1_555 1_555
O6_2 W3N 1_555 1_555
O6A_2 W2_2 1_555 1_555
O6A_2 W3O 1_555 1_555
O6F W3I 1_555 1_555
O6G W3H 1_555 1_555
W2N O20N 1_555 1_555
W4A_2 O10A_2 1_555 1_555
W4A_2 O11A_2 1_555 1_555
W4A_2 O12A_2 1_555 1_555
W4G_2 O12G_2 1_555 1_555
O10G_2 W5_2 1_555 1_555
O11G_2 W6_2 1_555 1_555
W5G_2 O13G_2 1_555 1_555
W6_2 O17_2 1_555 1_555
W6G_2 O16G_2 1_555 1_555
W6G_2 O17G_2 1_555 1_555

#END
