
#######################################################################
#
#                 Cambridge Crystallographic Data Centre
#                                CCDC 
#
#######################################################################
#
# If this CIF has been generated from an entry in the Cambridge 
# Structural Database, then it will include bibliographic, chemical, 
# crystal, experimental, refinement or atomic coordinate data resulting 
# from the CCDC's data processing and validation procedures.
#
#######################################################################

data_YOCWIY
_symmetry_cell_setting           monoclinic
_symmetry_space_group_name_H-M   'P 21/c'
_symmetry_Int_Tables_number      14
_space_group_name_Hall           '-P 2ybc'
loop_
_symmetry_equiv_pos_site_id
_symmetry_equiv_pos_as_xyz
1 x,y,z
2 -x,1/2+y,1/2-z
3 -x,-y,-z
4 x,1/2-y,1/2+z
_cell_length_a                   16.3637(12)
_cell_length_b                   15.2242(11)
_cell_length_c                   11.6726(8)
_cell_angle_alpha                90
_cell_angle_beta                 97.3070(10)
_cell_angle_gamma                90
_cell_volume                     2884.31
loop_
_atom_site_label
_atom_site_type_symbol
_atom_site_fract_x
_atom_site_fract_y
_atom_site_fract_z
C1 C 0.2099(4) 0.0573(5) 0.4437(6)
H1 H 0.2373 0.0984 0.4036
C2 C 0.2416(5) 0.0376(6) 0.5548(6)
H2 H 0.2890 0.0652 0.5899
C3 C 0.2014(5) -0.0242(6) 0.6131(6)
H3 H 0.2219 -0.0395 0.6885
C4 C 0.1315(4) -0.0630(5) 0.5599(6)
H4 H 0.1036 -0.1046 0.5986
C5 C 0.1027(4) -0.0395(4) 0.4472(5)
C6 C 0.0283(4) -0.0787(4) 0.3836(6)
C7 C -0.0207(4) -0.1420(4) 0.4311(6)
H5 H -0.0078 -0.1593 0.5077
C8 C -0.0866(5) -0.1775(5) 0.3648(7)
H6 H -0.1192 -0.2187 0.3965
C9 C -0.1055(4) -0.1531(5) 0.2513(7)
H7 H -0.1500 -0.1777 0.2047
C10 C -0.0567(4) -0.0918(5) 0.2099(6)
H8 H -0.0687 -0.0756 0.1327
C11 C 0.2353(5) 0.1276(7) 0.1085(7)
C12 C 0.3027(5) 0.1924(7) 0.1145(7)
C13 C 0.3449(6) 0.2063(9) 0.0197(8)
H9 H 0.3294 0.1750 -0.0480
C14 C 0.4104(5) 0.2666(8) 0.0242(9)
H10 H 0.4390 0.2735 -0.0392
C15 C 0.4325(5) 0.3162(7) 0.1245(9)
C16 C 0.3898(5) 0.3014(6) 0.2203(8)
H11 H 0.4056 0.3301 0.2900
C17 C 0.3243(4) 0.2438(6) 0.2092(6)
H12 H 0.2929 0.2397 0.2701
C18 C 0.5067(5) 0.3804(9) 0.1241(11)
H13 H 0.5077 0.4227 0.1864
H14 H 0.5031 0.4119 0.0514
C19 C 0.5867(5) 0.3204(6) 0.1411(8)
H15 H 0.5839 0.2790 0.0764
C20 C 0.5877(7) 0.2667(8) 0.2556(12)
C21 C 0.5928(10) 0.1689(10) 0.2551(15)
H16 H 0.5923 0.1472 0.3322
H17 H 0.6429 0.1512 0.2270
H18 H 0.5466 0.1455 0.2057
C22 C 0.6620(4) 0.3761(5) 0.1400(7)
H19 H 0.6652 0.4181 0.2030
H20 H 0.6579 0.4088 0.0682
C23 C 0.7397(4) 0.3207(5) 0.1523(6)
C24 C 0.7932(4) 0.3229(4) 0.2500(6)
H21 H 0.7829 0.3599 0.3099
C25 C 0.8642(4) 0.2705(4) 0.2629(6)
H22 H 0.9004 0.2723 0.3311
C26 C 0.8799(4) 0.2160(4) 0.1736(5)
C27 C 0.8257(4) 0.2133(5) 0.0745(6)
H23 H 0.8358 0.1761 0.0147
C28 C 0.7563(4) 0.2652(5) 0.0627(6)
H24 H 0.7201 0.2633 -0.0055
C29 C 0.9574(4) 0.1617(4) 0.1862(6)
N1 N 0.1408(3) 0.0202(4) 0.3892(4)
N2 N 0.0086(3) -0.0521(3) 0.2738(4)
O1 O 0.1099(3) -0.0268(4) 0.0709(4)
H25 H 0.0750 -0.0656 0.0605
O2 O 0.1892(3) 0.1303(3) 0.1849(4)
O3 O 0.2270(4) 0.0739(7) 0.0263(7)
O4 O 0.5920(5) 0.3042(6) 0.3520(8)
O5 O 0.9758(3) 0.1172(3) 0.1009(4)
O6 O 1.0032(3) 0.1602(3) 0.2806(4)
Mn1 Mn 0.08328(6) 0.05658(7) 0.21085(8)
H26 H 0.149(3) -0.002(3) 0.059(4)
O5_2 O -0.0242(3) 0.1172(3) 0.1009(4)
O6_2 O 0.0032(3) 0.1602(3) 0.2806(4)
Mn1_2 Mn 1.08328(6) 0.05658(7) 0.21085(8)
O7 O 0.475(3) -0.029(2) 0.072(3)
O8 O 0.3421(15) -0.0159(17) -0.077(3)
loop_
_geom_bond_atom_site_label_1
_geom_bond_atom_site_label_2
_geom_bond_site_symmetry_1
_geom_bond_site_symmetry_2
C1 H1 1_555 1_555
C2 C1 1_555 1_555
H2 C2 1_555 1_555
C3 C2 1_555 1_555
H3 C3 1_555 1_555
C4 C3 1_555 1_555
H4 C4 1_555 1_555
C5 C4 1_555 1_555
C6 C5 1_555 1_555
C7 C6 1_555 1_555
H5 C7 1_555 1_555
C8 C7 1_555 1_555
H6 C8 1_555 1_555
C9 C8 1_555 1_555
H7 C9 1_555 1_555
C10 C9 1_555 1_555
H8 C10 1_555 1_555
C11 C12 1_555 1_555
C12 C13 1_555 1_555
C13 H9 1_555 1_555
C14 C13 1_555 1_555
H10 C14 1_555 1_555
C15 C14 1_555 1_555
C16 C15 1_555 1_555
H11 C16 1_555 1_555
C17 C12 1_555 1_555
H12 C17 1_555 1_555
C18 C15 1_555 1_555
H13 C18 1_555 1_555
H14 C18 1_555 1_555
C19 C18 1_555 1_555
H15 C19 1_555 1_555
C20 C19 1_555 1_555
C21 C20 1_555 1_555
H16 C21 1_555 1_555
H17 C21 1_555 1_555
H18 C21 1_555 1_555
C22 C19 1_555 1_555
H19 C22 1_555 1_555
H20 C22 1_555 1_555
C23 C22 1_555 1_555
C24 C23 1_555 1_555
H21 C24 1_555 1_555
C25 C24 1_555 1_555
H22 C25 1_555 1_555
C26 C25 1_555 1_555
C27 C26 1_555 1_555
H23 C27 1_555 1_555
C28 C23 1_555 1_555
H24 C28 1_555 1_555
C29 C26 1_555 1_555
N1 C1 1_555 1_555
N2 C6 1_555 1_555
O1 H25 1_555 1_555
O2 C11 1_555 1_555
O3 C11 1_555 1_555
O4 C20 1_555 1_555
O5 C29 1_555 1_555
O6 C29 1_555 1_555
Mn1 N1 1_555 1_555
H26 O1 1_555 1_555
O5_2 Mn1 1_555 1_555
O6_2 Mn1 1_555 1_555
Mn1_2 O5 1_555 1_555
C5 N1 1_555 1_555
C10 N2 1_555 1_555
C16 C17 1_555 1_555
C27 C28 1_555 1_555
N2 Mn1 1_555 1_555
O1 Mn1 1_555 1_555
O2 Mn1 1_555 1_555
O6 Mn1_2 1_555 1_555

#END
