
#######################################################################
#
#                 Cambridge Crystallographic Data Centre
#                                CCDC 
#
#######################################################################
#
# If this CIF has been generated from an entry in the Cambridge 
# Structural Database, then it will include bibliographic, chemical, 
# crystal, experimental, refinement or atomic coordinate data resulting 
# from the CCDC's data processing and validation procedures.
#
#######################################################################

data_YOCXAR
_symmetry_cell_setting           triclinic
_symmetry_space_group_name_H-M   'P -1'
_symmetry_Int_Tables_number      2
_space_group_name_Hall           '-P 1'
loop_
_symmetry_equiv_pos_site_id
_symmetry_equiv_pos_as_xyz
1 x,y,z
2 -x,-y,-z
_cell_length_a                   10.746(7)
_cell_length_b                   11.879(8)
_cell_length_c                   14.597(9)
_cell_angle_alpha                71.830(8)
_cell_angle_beta                 76.515(8)
_cell_angle_gamma                71.439(8)
_cell_volume                     1659.67
loop_
_atom_site_label
_atom_site_type_symbol
_atom_site_fract_x
_atom_site_fract_y
_atom_site_fract_z
Zn1 Zn 0.55969(6) 0.83657(6) 0.65621(4)
Zn2 Zn 0.85990(7) 0.71923(6) 0.67776(5)
Co1 Co 1.0000 0.5000 0.0000
N1 N 0.8763(5) 0.3778(4) 1.0458(3)
N2 N 0.7788(5) 0.2374(5) 1.0512(3)
N3 N 0.4955(5) 0.6928(4) 0.6617(3)
N4 N 0.4507(5) 0.5143(5) 0.7046(4)
N5 N 0.9295(5) -0.1321(4) 0.6489(3)
N6 N 0.9558(5) 0.0394(4) 0.6560(4)
O1 O 0.8255(4) 0.7038(4) 0.5534(3)
O2 O 0.6478(4) 0.8583(3) 0.5180(3)
O3 O 0.4686(4) 0.9391(4) 0.3498(4)
O4 O 0.6135(4) 1.0440(3) 0.3241(3)
O5 O 0.8067(5) 0.7726(4) 0.0433(3)
O6 O 0.9035(4) 0.5784(3) 0.1113(3)
O7 O 1.1171(4) 0.5200(4) 0.2357(3)
O8 O 0.9730(4) 0.4117(4) 0.3169(3)
O9 O 0.6835(4) 0.7656(4) 0.7486(3)
O10 O 1.1314(5) 0.3630(4) 0.0969(3)
C1 C 0.7444(6) 0.7734(5) 0.4974(4)
C2 C 0.5829(6) 0.9461(5) 0.3360(4)
C3 C 0.8487(5) 0.6884(6) 0.1127(4)
C4 C 1.0039(6) 0.5120(5) 0.2755(4)
C5 C 0.7672(5) 0.7531(5) 0.3976(4)
C6 C 0.6967(5) 0.8350(5) 0.3227(4)
C7 C 0.7289(5) 0.8127(5) 0.2316(4)
H1 H 0.6831 0.8678 0.1817
C8 C 0.8266(5) 0.7117(5) 0.2119(4)
C9 C 0.8947(5) 0.6273(5) 0.2862(4)
C10 C 0.8645(5) 0.6502(5) 0.3778(4)
H2 H 0.9109 0.5951 0.4274
C11 C 0.8391(6) 0.3236(6) 0.9939(4)
H3 H 0.8529 0.3430 0.9261
C12 C 0.8388(7) 0.3208(6) 1.1415(4)
H4 H 0.8523 0.3391 1.1953
C13 C 0.7787(6) 0.2335(6) 1.1457(4)
H5 H 0.7446 0.1820 1.2015
C14 C 0.7280(7) 0.1538(6) 1.0215(5)
H6 H 0.6420 0.1493 1.0598
H7 H 0.7879 0.0719 1.0352
C15 C 0.5261(6) 0.5788(6) 0.7151(5)
H8 H 0.5917 0.5470 0.7551
C16 C 0.3977(7) 0.6996(6) 0.6144(5)
H9 H 0.3568 0.7696 0.5702
C17 C 0.3678(7) 0.5906(6) 0.6404(5)
H10 H 0.3039 0.5718 0.6188
C18 C 0.4508(7) 0.3857(6) 0.7547(5)
H11 H 0.4286 0.3499 0.7114
H12 H 0.3827 0.3842 0.8116
C19 C 0.8697(6) -0.0267(6) 0.6714(5)
H13 H 0.7797 -0.0018 0.6948
C20 C 1.0577(7) -0.1306(6) 0.6168(5)
H14 H 1.1237 -0.1933 0.5950
C21 C 1.0762(6) -0.0260(6) 0.6209(5)
H15 H 1.1553 -0.0030 0.6033
C22 C 0.9279(7) 0.1634(6) 0.6722(5)
H16 H 0.9156 0.2247 0.6107
H17 H 1.0047 0.1683 0.6934
C23 C 0.7144(6) 0.1957(5) 0.9141(4)
C24 C 0.8209(6) 0.1539(5) 0.8460(5)
C25 C 0.8070(7) 0.1941(5) 0.7467(5)
C26 C 0.6878(7) 0.2683(5) 0.7166(5)
C27 C 0.5823(6) 0.3085(5) 0.7862(5)
C28 C 0.5975(6) 0.2786(5) 0.8833(5)
C29 C 0.4910(7) 0.3337(7) 0.9576(5)
H18 H 0.4403 0.2762 0.9939
H19 H 0.4334 0.4081 0.9246
H20 H 0.5320 0.3516 1.0013
C30 C 0.9493(7) 0.0631(6) 0.8790(5)
H21 H 0.9992 0.1053 0.8966
H22 H 1.0011 0.0277 0.8267
H23 H 0.9283 -0.0009 0.9343
C31 C 0.6701(9) 0.3073(7) 0.6103(5)
H24 H 0.5772 0.3368 0.6052
H25 H 0.7092 0.2383 0.5825
H26 H 0.7127 0.3716 0.5757
H27 H 0.678(3) 0.810(3) 0.779(2)
H28 H 1.1815 0.3331 0.0425
H29 H 1.1295 0.3101 0.1464
Zn1A Zn 0.44031(6) 1.16343(6) 0.34379(4)
Zn2A Zn 0.14010(7) 1.28077(6) 0.32224(5)
N1A N 0.1237(5) 1.6222(4) -0.0458(3)
N2A N 0.2212(5) 1.7626(5) -0.0512(3)
N3A N 0.5045(5) 1.3072(4) 0.3383(3)
N4A N 0.5493(5) 1.4857(5) 0.2954(4)
N5A N 0.0705(5) 2.1321(4) 0.3511(3)
N6A N 0.0442(5) 1.9606(4) 0.3440(4)
O1A O 0.1745(4) 1.2962(4) 0.4466(3)
O2A O 0.3522(4) 1.1417(3) 0.4820(3)
O3A O 0.5314(4) 1.0609(4) 0.6502(4)
O4A O 0.3865(4) 0.9560(3) 0.6759(3)
O5A O 0.1933(5) 1.2274(4) 0.9567(3)
O6A O 0.0965(4) 1.4216(3) 0.8887(3)
O7A O -0.1171(4) 1.4800(4) 0.7643(3)
O8A O 0.0270(4) 1.5883(4) 0.6831(3)
O9A O 0.3165(4) 1.2344(4) 0.2514(3)
C1A C 0.2556(6) 1.2266(5) 0.5026(4)
C2A C 0.4171(6) 1.0539(5) 0.6640(4)
C3A C 0.1513(5) 1.3116(6) 0.8873(4)
C4A C -0.0039(6) 1.4880(5) 0.7245(4)
C5A C 0.2328(5) 1.2469(5) 0.6024(4)
C6A C 0.3033(5) 1.1650(5) 0.6773(4)
C7A C 0.2711(5) 1.1873(5) 0.7684(4)
H1A H 0.3169 1.1322 0.8183
C8A C 0.1734(5) 1.2883(5) 0.7881(4)
C9A C 0.1053(5) 1.3727(5) 0.7138(4)
C10A C 0.1355(5) 1.3498(5) 0.6222(4)
H2A H 0.0891 1.4049 0.5726
C11A C 0.1609(6) 1.6764(6) 0.0061(4)
H3A H 0.1471 1.6570 0.0739
C12A C 0.1612(7) 1.6792(6) -0.1415(4)
H4A H 0.1477 1.6609 -0.1953
C13A C 0.2213(6) 1.7665(6) -0.1457(4)
H5A H 0.2554 1.8180 -0.2015
C14A C 0.2720(7) 1.8462(6) -0.0215(5)
H6A H 0.3580 1.8507 -0.0598
H7A H 0.2121 1.9281 -0.0352
C15A C 0.4739(6) 1.4212(6) 0.2849(5)
H8A H 0.4083 1.4530 0.2449
C16A C 0.6023(7) 1.3004(6) 0.3856(5)
H9A H 0.6432 1.2304 0.4298
C17A C 0.6322(7) 1.4094(6) 0.3596(5)
H10A H 0.6961 1.4282 0.3812
C18A C 0.5492(7) 1.6143(6) 0.2453(5)
H11A H 0.5714 1.6501 0.2886
H12A H 0.6173 1.6158 0.1884
C19A C 0.1303(6) 2.0267(6) 0.3286(5)
H13A H 0.2203 2.0018 0.3052
C20A C -0.0577(7) 2.1306(6) 0.3832(5)
H14A H -0.1237 2.1933 0.4050
C21A C -0.0762(6) 2.0260(6) 0.3791(5)
H15A H -0.1553 2.0030 0.3967
C22A C 0.0721(7) 1.8366(6) 0.3278(5)
H16A H 0.0844 1.7753 0.3893
H17A H -0.0047 1.8317 0.3066
C23A C 0.2856(6) 1.8043(5) 0.0859(4)
C24A C 0.1791(6) 1.8461(5) 0.1540(5)
C25A C 0.1930(7) 1.8059(5) 0.2533(5)
C26A C 0.3122(7) 1.7317(5) 0.2834(5)
C27A C 0.4177(6) 1.6915(5) 0.2138(5)
C28A C 0.4025(6) 1.7214(5) 0.1167(5)
C29A C 0.5090(7) 1.6663(7) 0.0424(5)
H18A H 0.5597 1.7238 0.0061
H19A H 0.5666 1.5919 0.0754
H20A H 0.4680 1.6484 -0.0013
C30A C 0.0507(7) 1.9369(6) 0.1210(5)
H21A H 0.0008 1.8947 0.1034
H22A H -0.0011 1.9723 0.1733
H23A H 0.0717 2.0009 0.0657
C31A C 0.3299(9) 1.6927(7) 0.3897(5)
H24A H 0.4228 1.6632 0.3948
H25A H 0.2908 1.7617 0.4175
H26A H 0.2873 1.6284 0.4243
H27A H 0.322(3) 1.190(3) 0.221(2)
O10A O 0.8686(5) 0.6370(4) -0.0969(3)
H28A H 0.8185 0.6669 -0.0425
H29A H 0.8705 0.6899 -0.1464
Zn2_2 Zn -0.14010(7) 1.71923(6) 0.67776(5)
Zn2_3 Zn 0.85990(7) -0.28077(6) 0.67776(5)
Zn2A_2 Zn 0.14010(7) 2.28077(6) 0.32224(5)
Zn2A_3 Zn 1.14010(7) 0.28077(6) 0.32224(5)
Co1_2 Co 0.0000 1.5000 0.0000
Co1_3 Co 0.0000 1.5000 1.0000
Co1_4 Co 1.0000 0.5000 1.0000
N1_2 N 0.8763(5) 0.3778(4) 0.0458(3)
N1A_2 N 1.1237(5) 0.6222(4) -0.0458(3)
N5_2 N 0.9295(5) 0.8679(4) 0.6489(3)
N5A_2 N 0.0705(5) 1.1321(4) 0.3511(3)
O6A_2 O 1.0965(4) 0.4216(3) -0.1113(3)
O8_2 O -0.0270(4) 1.4117(4) 0.3169(3)
O8A_2 O 1.0270(4) 0.5883(4) 0.6831(3)
O11 O 0.6413(9) 0.9246(7) 0.8881(6)
loop_
_geom_bond_atom_site_label_1
_geom_bond_atom_site_label_2
_geom_bond_site_symmetry_1
_geom_bond_site_symmetry_2
Zn1 N3 1_555 1_555
Zn2 O1 1_555 1_555
Co1 O6 1_555 1_555
N1 C11 1_555 1_555
N2 C11 1_555 1_555
N3 C15 1_555 1_555
N4 C15 1_555 1_555
N5 C19 1_555 1_555
N6 C19 1_555 1_555
O1 C1 1_555 1_555
O2 Zn1 1_555 1_555
O3 C2 1_555 1_555
O4 C2 1_555 1_555
O5 C3 1_555 1_555
O6 C3 1_555 1_555
O7 C4 1_555 1_555
O8 C4 1_555 1_555
O9 Zn1 1_555 1_555
O10 Co1 1_555 1_555
C1 O2 1_555 1_555
C2 C6 1_555 1_555
C3 C8 1_555 1_555
C4 C9 1_555 1_555
C5 C1 1_555 1_555
C6 C5 1_555 1_555
C7 C6 1_555 1_555
H1 C7 1_555 1_555
C8 C7 1_555 1_555
C9 C8 1_555 1_555
C10 C5 1_555 1_555
H2 C10 1_555 1_555
C11 H3 1_555 1_555
C12 N1 1_555 1_555
H4 C12 1_555 1_555
C13 N2 1_555 1_555
H5 C13 1_555 1_555
C14 N2 1_555 1_555
H6 C14 1_555 1_555
H7 C14 1_555 1_555
C15 H8 1_555 1_555
C16 N3 1_555 1_555
H9 C16 1_555 1_555
C17 N4 1_555 1_555
H10 C17 1_555 1_555
C18 N4 1_555 1_555
H11 C18 1_555 1_555
H12 C18 1_555 1_555
C19 H13 1_555 1_555
C20 N5 1_555 1_555
H14 C20 1_555 1_555
C21 N6 1_555 1_555
H15 C21 1_555 1_555
C22 N6 1_555 1_555
H16 C22 1_555 1_555
H17 C22 1_555 1_555
C23 C14 1_555 1_555
C24 C23 1_555 1_555
C25 C22 1_555 1_555
C26 C25 1_555 1_555
C27 C18 1_555 1_555
C28 C23 1_555 1_555
C29 C28 1_555 1_555
H18 C29 1_555 1_555
H19 C29 1_555 1_555
H20 C29 1_555 1_555
C30 C24 1_555 1_555
H21 C30 1_555 1_555
H22 C30 1_555 1_555
H23 C30 1_555 1_555
C31 C26 1_555 1_555
H24 C31 1_555 1_555
H25 C31 1_555 1_555
H26 C31 1_555 1_555
H27 O9 1_555 1_555
H28 O10 1_555 1_555
H29 O10 1_555 1_555
Zn1A O3 1_555 1_555
Zn2A O1A 1_555 1_555
N1A C11A 1_555 1_555
N2A C11A 1_555 1_555
N3A Zn1A 1_555 1_555
N4A C15A 1_555 1_555
N5A C19A 1_555 1_555
N6A C19A 1_555 1_555
O1A C1A 1_555 1_555
O2A Zn1A 1_555 1_555
O3A Zn1 1_555 1_555
O4A Zn1 1_555 1_555
O5A C3A 1_555 1_555
O6A C3A 1_555 1_555
O7A C4A 1_555 1_555
O8A C4A 1_555 1_555
O9A Zn1A 1_555 1_555
C1A O2A 1_555 1_555
C2A O3A 1_555 1_555
C3A C8A 1_555 1_555
C4A C9A 1_555 1_555
C5A C1A 1_555 1_555
C6A C2A 1_555 1_555
C7A C6A 1_555 1_555
H1A C7A 1_555 1_555
C8A C7A 1_555 1_555
C9A C8A 1_555 1_555
C10A C5A 1_555 1_555
H2A C10A 1_555 1_555
C11A H3A 1_555 1_555
C12A N1A 1_555 1_555
H4A C12A 1_555 1_555
C13A N2A 1_555 1_555
H5A C13A 1_555 1_555
C14A N2A 1_555 1_555
H6A C14A 1_555 1_555
H7A C14A 1_555 1_555
C15A N3A 1_555 1_555
H8A C15A 1_555 1_555
C16A N3A 1_555 1_555
H9A C16A 1_555 1_555
C17A N4A 1_555 1_555
H10A C17A 1_555 1_555
C18A N4A 1_555 1_555
H11A C18A 1_555 1_555
H12A C18A 1_555 1_555
C19A H13A 1_555 1_555
C20A N5A 1_555 1_555
H14A C20A 1_555 1_555
C21A N6A 1_555 1_555
H15A C21A 1_555 1_555
C22A N6A 1_555 1_555
H16A C22A 1_555 1_555
H17A C22A 1_555 1_555
C23A C14A 1_555 1_555
C24A C23A 1_555 1_555
C25A C22A 1_555 1_555
C26A C25A 1_555 1_555
C27A C18A 1_555 1_555
C28A C23A 1_555 1_555
C29A C28A 1_555 1_555
H18A C29A 1_555 1_555
H19A C29A 1_555 1_555
H20A C29A 1_555 1_555
C30A C24A 1_555 1_555
H21A C30A 1_555 1_555
H22A C30A 1_555 1_555
H23A C30A 1_555 1_555
C31A C26A 1_555 1_555
H24A C31A 1_555 1_555
H25A C31A 1_555 1_555
H26A C31A 1_555 1_555
H27A O9A 1_555 1_555
O10A Co1 1_555 1_555
H28A O10A 1_555 1_555
H29A O10A 1_555 1_555
Zn2_2 O8A 1_555 1_555
Zn2_3 N5 1_555 1_555
Zn2A_2 N5A 1_555 1_555
Zn2A_3 O8 1_555 1_555
Co1_2 N1A 1_555 1_555
Co1_3 O6A 1_555 1_555
Co1_4 N1 1_555 1_555
N1_2 Co1 1_555 1_555
N1A_2 Co1 1_555 1_555
N5_2 Zn2 1_555 1_555
N5A_2 Zn2A 1_555 1_555
O6A_2 Co1 1_555 1_555
O8_2 Zn2A 1_555 1_555
O8A_2 Zn2 1_555 1_555
Zn2 O9 1_555 1_555
O4 Zn1A 1_555 1_555
C9 C10 1_555 1_555
C12 C13 1_555 1_555
C16 C17 1_555 1_555
C20 C21 1_555 1_555
C24 C25 1_555 1_555
C26 C27 1_555 1_555
C27 C28 1_555 1_555
Zn2A O9A 1_555 1_555
O4A C2A 1_555 1_555
C5A C6A 1_555 1_555
C9A C10A 1_555 1_555
C12A C13A 1_555 1_555
C16A C17A 1_555 1_555
C20A C21A 1_555 1_555
C24A C25A 1_555 1_555
C26A C27A 1_555 1_555
C27A C28A 1_555 1_555

#END
