
#######################################################################
#
#                 Cambridge Crystallographic Data Centre
#                                CCDC 
#
#######################################################################
#
# If this CIF has been generated from an entry in the Cambridge 
# Structural Database, then it will include bibliographic, chemical, 
# crystal, experimental, refinement or atomic coordinate data resulting 
# from the CCDC's data processing and validation procedures.
#
#######################################################################

data_YOCZOG01
_symmetry_cell_setting           monoclinic
_symmetry_space_group_name_H-M   'P 21/m'
_symmetry_Int_Tables_number      11
_space_group_name_Hall           '-P 2yb'
loop_
_symmetry_equiv_pos_site_id
_symmetry_equiv_pos_as_xyz
1 x,y,z
2 -x,1/2+y,-z
3 -x,-y,-z
4 x,1/2-y,z
_cell_length_a                   5.189(1)
_cell_length_b                   12.980(1)
_cell_length_c                   10.493(1)
_cell_angle_alpha                90
_cell_angle_beta                 93.589(2)
_cell_angle_gamma                90
_cell_volume                     705.351
loop_
_atom_site_label
_atom_site_type_symbol
_atom_site_fract_x
_atom_site_fract_y
_atom_site_fract_z
Co1 Co 0.95217(7) 0.25000 0.72232(3)
Cl1 Cl 1.24273(14) 0.25000 0.89109(7)
Cl2 Cl 1.04514(16) 0.25000 0.51669(7)
N1 N 0.7432(3) 0.11862(11) 0.74201(14)
C1 C 0.5501(4) 0.09328(15) 0.65758(19)
H1 H 0.5177 0.1354 0.5866
C2 C 0.3974(4) 0.00814(16) 0.6706(2)
H2 H 0.2635 -0.0056 0.6099
C3 C 0.4418(4) -0.05726(14) 0.77341(19)
C4 C 0.6439(4) -0.03101(15) 0.8599(2)
H3 H 0.6832 -0.0728 0.9304
C5 C 0.7861(4) 0.05590(15) 0.84214(19)
H4 H 0.9187 0.0721 0.9025
C6 C 0.2867(4) -0.15279(15) 0.7913(2)
H5 H 0.1316 -0.1504 0.7347
H6 H 0.2343 -0.1552 0.8784
C7 C 0.4381(5) -0.25 0.7640(3)
H7 H 0.599 -0.25 0.8163
H8 H 0.4798 -0.25 0.6751
Co1_2 Co 0.95217(7) -0.75000 0.72232(3)
N1C N 0.7432(3) -0.61862(11) 0.74201(14)
N1C_2 N 0.7432(3) 0.38138(11) 0.74201(14)
C1C C 0.5501(4) -0.59328(15) 0.65758(19)
H1C H 0.5177 -0.6354 0.5866
C2C C 0.3974(4) -0.50814(16) 0.6706(2)
H2C H 0.2635 -0.4944 0.6099
C3C C 0.4418(4) -0.44274(14) 0.77341(19)
C4C C 0.6439(4) -0.46899(15) 0.8599(2)
H3C H 0.6832 -0.4272 0.9304
C5C C 0.7861(4) -0.55590(15) 0.84214(19)
H4C H 0.9187 -0.5721 0.9025
C6C C 0.2867(4) -0.34721(15) 0.7913(2)
H5C H 0.1316 -0.3496 0.7347
H6C H 0.2343 -0.3448 0.8784
loop_
_geom_bond_atom_site_label_1
_geom_bond_atom_site_label_2
_geom_bond_site_symmetry_1
_geom_bond_site_symmetry_2
Co1 Cl1 1_555 1_555
Cl2 Co1 1_555 1_555
N1 Co1 1_555 1_555
C1 N1 1_555 1_555
H1 C1 1_555 1_555
C2 C1 1_555 1_555
H2 C2 1_555 1_555
C3 C2 1_555 1_555
C4 C3 1_555 1_555
H3 C4 1_555 1_555
C5 N1 1_555 1_555
H4 C5 1_555 1_555
C6 C3 1_555 1_555
H5 C6 1_555 1_555
H6 C6 1_555 1_555
C7 C6 1_555 1_555
H7 C7 1_555 1_555
H8 C7 1_555 1_555
Co1_2 N1C 1_555 1_555
N1C C1C 1_555 1_555
N1C_2 Co1 1_555 1_555
C1C H1C 1_555 1_555
C2C C1C 1_555 1_555
H2C C2C 1_555 1_555
C3C C2C 1_555 1_555
C4C C3C 1_555 1_555
H3C C4C 1_555 1_555
C5C N1C 1_555 1_555
H4C C5C 1_555 1_555
C6C C7 1_555 1_555
H5C C6C 1_555 1_555
H6C C6C 1_555 1_555
C4 C5 1_555 1_555
C3C C6C 1_555 1_555
C4C C5C 1_555 1_555

#END
