
#######################################################################
#
#                 Cambridge Crystallographic Data Centre
#                                CCDC 
#
#######################################################################
#
# If this CIF has been generated from an entry in the Cambridge 
# Structural Database, then it will include bibliographic, chemical, 
# crystal, experimental, refinement or atomic coordinate data resulting 
# from the CCDC's data processing and validation procedures.
#
#######################################################################

data_YOCZOG
_symmetry_cell_setting           monoclinic
_symmetry_space_group_name_H-M   'P 21/m'
_symmetry_Int_Tables_number      11
_space_group_name_Hall           '-P 2yb'
loop_
_symmetry_equiv_pos_site_id
_symmetry_equiv_pos_as_xyz
1 x,y,z
2 -x,1/2+y,-z
3 -x,-y,-z
4 x,1/2-y,z
_cell_length_a                   5.1899(10)
_cell_length_b                   12.989(3)
_cell_length_c                   10.490(2)
_cell_angle_alpha                90
_cell_angle_beta                 93.58(3)
_cell_angle_gamma                90
_cell_volume                     705.768
loop_
_atom_site_label
_atom_site_type_symbol
_atom_site_fract_x
_atom_site_fract_y
_atom_site_fract_z
Co1 Co 0.45224(11) 0.2500 0.72216(5)
Cl1 Cl 0.5449(2) 0.2500 0.51643(11)
Cl2 Cl 0.7429(2) 0.2500 0.89105(11)
N1 N 0.2438(5) 0.38105(17) 0.7418(2)
C1 C -0.1030(6) 0.4919(2) 0.6704(3)
H1 H -0.2369 0.5056 0.6097
C2 C 0.0502(6) 0.4066(2) 0.6576(3)
H2 H 0.0175 0.3645 0.5867
C3 C 0.2864(6) 0.4443(2) 0.8422(3)
H3 H 0.4195 0.4283 0.9025
C4 C 0.1436(6) 0.5310(2) 0.8601(3)
H4 H 0.1821 0.5727 0.9309
C5 C -0.0580(6) 0.5572(2) 0.7735(3)
C6 C -0.2140(6) 0.6529(2) 0.7913(3)
H5 H -0.2666 0.6554 0.8784
H6 H -0.3688 0.6506 0.7346
C7 C -0.0613(8) 0.7500 0.7639(4)
H7 H -0.0195 0.7500 0.6750
H8 H 0.0993 0.7500 0.8163
Co1_2 Co 0.45224(11) 1.2500 0.72216(5)
N1C N 0.2438(5) 1.11895(17) 0.7418(2)
N1C_2 N 0.2438(5) 0.11895(17) 0.7418(2)
C1C C -0.1030(6) 1.0081(2) 0.6704(3)
H1C H -0.2369 0.9944 0.6097
C2C C 0.0502(6) 1.0934(2) 0.6576(3)
H2C H 0.0175 1.1355 0.5867
C3C C 0.2864(6) 1.0557(2) 0.8422(3)
H3C H 0.4195 1.0717 0.9025
C4C C 0.1436(6) 0.9690(2) 0.8601(3)
H4C H 0.1821 0.9273 0.9309
C5C C -0.0580(6) 0.9428(2) 0.7735(3)
C6C C -0.2140(6) 0.8471(2) 0.7913(3)
H5C H -0.2666 0.8446 0.8784
H6C H -0.3688 0.8494 0.7346
loop_
_geom_bond_atom_site_label_1
_geom_bond_atom_site_label_2
_geom_bond_site_symmetry_1
_geom_bond_site_symmetry_2
Co1 Cl1 1_555 1_555
Cl2 Co1 1_555 1_555
N1 Co1 1_555 1_555
C1 H1 1_555 1_555
C2 N1 1_555 1_555
H2 C2 1_555 1_555
C3 N1 1_555 1_555
H3 C3 1_555 1_555
C4 C3 1_555 1_555
H4 C4 1_555 1_555
C5 C1 1_555 1_555
C6 C5 1_555 1_555
H5 C6 1_555 1_555
H6 C6 1_555 1_555
C7 C6 1_555 1_555
H7 C7 1_555 1_555
H8 C7 1_555 1_555
Co1_2 N1C 1_555 1_555
N1C C2C 1_555 1_555
N1C_2 Co1 1_555 1_555
C1C H1C 1_555 1_555
C2C C1C 1_555 1_555
H2C C2C 1_555 1_555
C3C N1C 1_555 1_555
H3C C3C 1_555 1_555
C4C C3C 1_555 1_555
H4C C4C 1_555 1_555
C5C C1C 1_555 1_555
C6C C7 1_555 1_555
H5C C6C 1_555 1_555
H6C C6C 1_555 1_555
C1 C2 1_555 1_555
C4 C5 1_555 1_555
C4C C5C 1_555 1_555
C5C C6C 1_555 1_555

#END
