
#######################################################################
#
#                 Cambridge Crystallographic Data Centre
#                                CCDC 
#
#######################################################################
#
# If this CIF has been generated from an entry in the Cambridge 
# Structural Database, then it will include bibliographic, chemical, 
# crystal, experimental, refinement or atomic coordinate data resulting 
# from the CCDC's data processing and validation procedures.
#
#######################################################################

data_YODBID
_symmetry_cell_setting           monoclinic
_symmetry_space_group_name_H-M   'P 21/n'
_symmetry_Int_Tables_number      14
_space_group_name_Hall           '-P 2yn'
loop_
_symmetry_equiv_pos_site_id
_symmetry_equiv_pos_as_xyz
1 x,y,z
2 1/2-x,1/2+y,1/2-z
3 -x,-y,-z
4 1/2+x,1/2-y,1/2+z
_cell_length_a                   11.334(2)
_cell_length_b                   14.266(3)
_cell_length_c                   13.299(3)
_cell_angle_alpha                90
_cell_angle_beta                 96.55(3)
_cell_angle_gamma                90
_cell_volume                     2136.29
loop_
_atom_site_label
_atom_site_type_symbol
_atom_site_fract_x
_atom_site_fract_y
_atom_site_fract_z
Cu1 Cu 0.59615(4) 0.21166(4) 0.34471(4)
Cl1 Cl 0.73943(10) 0.14413(9) 0.10813(9)
Cl2 Cl 0.62782(13) 0.18070(11) 0.60732(10)
N1 N 0.6774(3) 0.0876(3) 0.3709(3)
N2 N 0.7638(3) 0.2575(3) 0.3759(3)
N3 N 0.8653(4) 0.0233(3) 0.4312(3)
N4 N 0.9612(3) 0.2015(3) 0.4100(4)
N5 N 0.4387(3) 0.1567(3) 0.2901(3)
N6 N -0.0235(3) -0.1609(3) 0.1722(3)
C1 C 0.6283(5) 0.0024(3) 0.3741(4)
H1 H 0.5471 -0.0046 0.3557
C2 C 0.6961(6) -0.0750(4) 0.4043(5)
H2 H 0.6629 -0.1346 0.4050
C3 C 0.8144(5) -0.0602(4) 0.4332(4)
H3 H 0.8614 -0.1113 0.4553
C4 C 0.7946(4) 0.0938(3) 0.3996(3)
C5 C 0.8442(4) 0.1889(3) 0.3958(3)
C6 C 0.9985(4) 0.2895(4) 0.4055(5)
H4 H 1.0798 0.3009 0.4147
C7 C 0.9233(5) 0.3644(4) 0.3880(5)
H5 H 0.9516 0.4255 0.3858
C8 C 0.8037(4) 0.3446(4) 0.3737(4)
H6 H 0.7496 0.3935 0.3623
C9 C 0.4280(4) 0.1042(4) 0.2051(4)
H7 H 0.4910 0.1029 0.1661
C10 C 0.3281(4) 0.0526(3) 0.1737(4)
H8 H 0.3243 0.0166 0.1151
C11 C 0.3444(4) 0.1639(3) 0.3396(4)
H9 H 0.3486 0.2039 0.3951
C12 C 0.2399(4) 0.1153(3) 0.3132(4)
H10 H 0.1756 0.1228 0.3501
C13 C 0.2324(4) 0.0551(3) 0.2310(3)
C14 C 0.1326(4) -0.0117(3) 0.2077(4)
C15 C 0.0802(4) -0.0526(4) 0.2857(4)
H11 H 0.0956 -0.0296 0.3514
C16 C 0.0050(4) -0.1276(3) 0.2654(4)
H12 H -0.0273 -0.1562 0.3188
C17 C 0.0193(4) -0.1170(3) 0.0946(4)
H13 H -0.0041 -0.1368 0.0287
C18 C 0.0976(4) -0.0428(3) 0.1113(3)
H14 H 0.1269 -0.0137 0.0567
O1 O 0.8332(5) 0.1061(6) 0.1735(4)
O2 O 0.7807(4) 0.1965(3) 0.0279(3)
O3 O 0.6646(5) 0.0702(3) 0.0637(4)
O4 O 0.6684(3) 0.2050(3) 0.1635(3)
O5 O 0.5763(7) 0.1934(7) 0.6933(5)
O6 O 0.6507(6) 0.0798(4) 0.6044(5)
O7 O 0.7399(5) 0.2209(5) 0.6042(5)
O8 O 0.5503(4) 0.1986(3) 0.5175(3)
Cu1A Cu -0.09615(4) -0.28834(4) 0.15529(4)
N6A N 0.5235(3) 0.3391(3) 0.3278(3)
loop_
_geom_bond_atom_site_label_1
_geom_bond_atom_site_label_2
_geom_bond_site_symmetry_1
_geom_bond_site_symmetry_2
Cu1 N1 1_555 1_555
Cl1 O1 1_555 1_555
Cl2 O5 1_555 1_555
N1 C1 1_555 1_555
N2 Cu1 1_555 1_555
N3 C3 1_555 1_555
N4 C5 1_555 1_555
N5 Cu1 1_555 1_555
N6 C16 1_555 1_555
C1 H1 1_555 1_555
C2 C1 1_555 1_555
H2 C2 1_555 1_555
C3 C2 1_555 1_555
H3 C3 1_555 1_555
C4 N1 1_555 1_555
C5 N2 1_555 1_555
C6 N4 1_555 1_555
H4 C6 1_555 1_555
C7 C6 1_555 1_555
H5 C7 1_555 1_555
C8 N2 1_555 1_555
H6 C8 1_555 1_555
C9 N5 1_555 1_555
H7 C9 1_555 1_555
C10 C9 1_555 1_555
H8 C10 1_555 1_555
C11 N5 1_555 1_555
H9 C11 1_555 1_555
C12 C11 1_555 1_555
H10 C12 1_555 1_555
C13 C10 1_555 1_555
C14 C13 1_555 1_555
C15 C14 1_555 1_555
H11 C15 1_555 1_555
C16 C15 1_555 1_555
H12 C16 1_555 1_555
C17 N6 1_555 1_555
H13 C17 1_555 1_555
C18 C14 1_555 1_555
H14 C18 1_555 1_555
O2 Cl1 1_555 1_555
O3 Cl1 1_555 1_555
O4 Cu1 1_555 1_555
O6 Cl2 1_555 1_555
O7 Cl2 1_555 1_555
O8 Cu1 1_555 1_555
Cu1A N6 1_555 1_555
N6A Cu1 1_555 1_555
Cl1 O4 1_555 1_555
Cl2 O8 1_555 1_555
N3 C4 1_555 1_555
C4 C5 1_555 1_555
C7 C8 1_555 1_555
C12 C13 1_555 1_555
C17 C18 1_555 1_555

#END
