
#######################################################################
#
#                 Cambridge Crystallographic Data Centre
#                                CCDC 
#
#######################################################################
#
# If this CIF has been generated from an entry in the Cambridge 
# Structural Database, then it will include bibliographic, chemical, 
# crystal, experimental, refinement or atomic coordinate data resulting 
# from the CCDC's data processing and validation procedures.
#
#######################################################################

data_YODBOJ
_symmetry_cell_setting           monoclinic
_symmetry_space_group_name_H-M   'P 21/n'
_symmetry_Int_Tables_number      14
_space_group_name_Hall           '-P 2yn'
loop_
_symmetry_equiv_pos_site_id
_symmetry_equiv_pos_as_xyz
1 x,y,z
2 1/2-x,1/2+y,1/2-z
3 -x,-y,-z
4 1/2+x,1/2-y,1/2+z
_cell_length_a                   10.903(2)
_cell_length_b                   12.180(2)
_cell_length_c                   13.015(3)
_cell_angle_alpha                90
_cell_angle_beta                 110.02(3)
_cell_angle_gamma                90
_cell_volume                     1623.93
loop_
_atom_site_label
_atom_site_type_symbol
_atom_site_fract_x
_atom_site_fract_y
_atom_site_fract_z
Mn1 Mn 0.93671(3) 0.50175(2) 0.16410(2)
O1 O 0.87201(17) 0.38008(13) 0.03681(14)
O2 O 0.79806(18) 0.41661(16) 0.22877(17)
N1 N 0.77113(19) 0.61593(15) 0.06381(16)
C1 C 0.7734(2) 0.27522(17) -0.12181(17)
C2 C 0.8682(2) 0.36318(16) -0.05830(18)
C3 C 0.6930(3) 0.2208(2) -0.0751(2)
C4 C 0.7818(2) 0.72543(19) 0.0584(2)
C5 C 0.7617(2) 0.2480(2) -0.2283(2)
C6 C 0.6582(2) 0.5717(2) 0.0011(2)
C7 C 0.5536(2) 0.63237(19) -0.0664(2)
C8 C 0.5668(2) 0.74530(17) -0.07336(16)
C9 C 0.6847(2) 0.79184(19) -0.00909(19)
C10 C 0.4577(2) 0.81308(17) -0.15183(17)
O3 O 0.34326(15) 0.77890(14) -0.17448(14)
O4 O 0.49329(16) 0.89829(13) -0.18801(14)
O5 O 0.9325(2) 0.40991(17) -0.10687(17)
C11 C 0.6056(3) 0.1433(2) -0.1362(2)
C12 C 0.6720(2) 0.1688(2) -0.2837(2)
N2 N 0.59483(18) 0.11618(15) -0.23923(15)
H1 H 0.804(3) 0.287(2) -0.269(2)
D1 D 0.662(2) 0.1472(19) -0.355(2)
D2 D 0.648(4) 0.495(3) 0.008(3)
D3 D 0.549(3) 0.109(2) -0.105(3)
H2 H 0.701(3) 0.872(2) -0.015(2)
D4 D 0.864(3) 0.758(2) 0.109(2)
H3 H 0.708(3) 0.236(3) 0.002(3)
H4 H 0.472(3) 0.591(3) -0.105(3)
H5 H 0.758(4) 0.351(3) 0.202(3)
H6 H 0.751(4) 0.450(3) 0.252(3)
Mn1C Mn 0.43671(3) 0.99825(2) -0.33590(2)
Mn1B Mn 1.06329(3) 0.49825(2) -0.16410(2)
Mn1C_2 Mn 0.43671(3) -0.00175(2) -0.33590(2)
O4C O 0.99329(16) 0.60171(13) 0.31199(14)
O5B O 1.0675(2) 0.59009(17) 0.10687(17)
N2C N 1.09483(18) 0.38382(15) 0.26077(15)
O6 O 0.6716(3) 0.5555(2) 0.3174(4)
H7 H 0.7151(3) 0.6101(2) 0.3078(4)
C13 C 0.5578(4) 0.5893(4) 0.3214(6)
H8 H 0.5176(4) 0.6222(4) 0.2618(6)
H9 H 0.5716(4) 0.6358(4) 0.3729(6)
C14 C 0.4751(7) 0.5076(5) 0.3359(7)
H10 H 0.3950(7) 0.5394(5) 0.3370(7)
H11 H 0.4566(7) 0.4556(5) 0.2771(7)
H12 H 0.5183(7) 0.4711(5) 0.4041(7)
loop_
_geom_bond_atom_site_label_1
_geom_bond_atom_site_label_2
_geom_bond_site_symmetry_1
_geom_bond_site_symmetry_2
Mn1 O1 1_555 1_555
O1 C2 1_555 1_555
O2 Mn1 1_555 1_555
N1 Mn1 1_555 1_555
C1 C2 1_555 1_555
C2 O5 1_555 1_555
C3 C1 1_555 1_555
C4 N1 1_555 1_555
C5 C1 1_555 1_555
C6 N1 1_555 1_555
C7 C6 1_555 1_555
C8 C7 1_555 1_555
C9 C4 1_555 1_555
C10 C8 1_555 1_555
O3 C10 1_555 1_555
O4 C10 1_555 1_555
O5 Mn1B 1_555 1_555
C11 C3 1_555 1_555
C12 C5 1_555 1_555
N2 C11 1_555 1_555
H1 C5 1_555 1_555
D1 C12 1_555 1_555
D2 C6 1_555 1_555
D3 C11 1_555 1_555
H2 C9 1_555 1_555
D4 C4 1_555 1_555
H3 C3 1_555 1_555
H4 C7 1_555 1_555
H5 O2 1_555 1_555
H6 O2 1_555 1_555
O6 H7 1_555 1_555
C13 O6 1_555 1_555
H8 C13 1_555 1_555
H9 C13 1_555 1_555
C14 C13 1_555 1_555
H10 C14 1_555 1_555
H11 C14 1_555 1_555
H12 C14 1_555 1_555
Mn1C O4 1_555 1_555
Mn1C_2 N2 1_555 1_555
O4C Mn1 1_555 1_555
O5B Mn1 1_555 1_555
N2C Mn1 1_555 1_555
C8 C9 1_555 1_555
C12 N2 1_555 1_555

#END
