
#######################################################################
#
#                 Cambridge Crystallographic Data Centre
#                                CCDC 
#
#######################################################################
#
# If this CIF has been generated from an entry in the Cambridge 
# Structural Database, then it will include bibliographic, chemical, 
# crystal, experimental, refinement or atomic coordinate data resulting 
# from the CCDC's data processing and validation procedures.
#
#######################################################################

data_YODBUP
_symmetry_cell_setting           monoclinic
_symmetry_space_group_name_H-M   'C 2/c'
_symmetry_Int_Tables_number      15
_space_group_name_Hall           '-C 2yn'
loop_
_symmetry_equiv_pos_site_id
_symmetry_equiv_pos_as_xyz
1 x,y,z
2 1/2+x,1/2+y,z
3 -x,y,1/2-z
4 1/2-x,1/2+y,1/2-z
5 -x,-y,-z
6 1/2-x,1/2-y,-z
7 x,-y,1/2+z
8 1/2+x,1/2-y,1/2+z
_cell_length_a                   10.6751(16)
_cell_length_b                   10.9051(14)
_cell_length_c                   25.321(5)
_cell_angle_alpha                90
_cell_angle_beta                 94.972(13)
_cell_angle_gamma                90
_cell_volume                     2936.6
loop_
_atom_site_label
_atom_site_type_symbol
_atom_site_fract_x
_atom_site_fract_y
_atom_site_fract_z
Zn1 Zn 0.16630(3) 0.40663(2) 0.032125(11)
N1 N 0.11712(19) 0.60243(17) 0.02478(8)
N2 N 0.0847(2) 0.4084(2) 0.10837(9)
H1 H 0.0285 0.4696 0.1097
H2 H 0.0438 0.3365 0.1038
C1 C 0.1638(2) 0.4052(2) 0.15692(10)
N3 N 0.3503(2) 0.49221(19) 0.04291(9)
H3 H 0.4105 0.4343 0.0445
H4 H 0.3521 0.5348 0.0125
C2 C 0.2582(2) 0.3162(2) 0.16320(9)
N4 N 0.24495(18) 0.23775(18) 0.06944(8)
C3 C 0.1781(2) 0.6906(2) 0.05410(10)
C4 C 0.2884(2) 0.6711(2) 0.09210(10)
C5 C 0.3353(3) 0.3134(3) 0.21067(10)
H5 H 0.3983 0.2545 0.2154
C6 C 0.3720(2) 0.5736(2) 0.08704(11)
C7 C 0.3197(3) 0.3964(3) 0.25076(12)
H6 H 0.3718 0.3934 0.2821
C8 C 0.4704(3) 0.5554(3) 0.12574(13)
H7 H 0.5265 0.4913 0.1222
C9 C 0.3079(3) 0.7491(3) 0.13564(11)
H8 H 0.2553 0.8163 0.1385
C10 C 0.4044(3) 0.7281(3) 0.17470(12)
H9 H 0.4142 0.7788 0.2043
C11 C 0.4859(3) 0.6316(3) 0.16940(13)
H10 H 0.5515 0.6177 0.1953
C12 C 0.1483(3) 0.4882(3) 0.19728(12)
H11 H 0.0852 0.5470 0.1931
C13 C 0.2265(3) 0.4838(3) 0.24397(12)
H12 H 0.2160 0.5402 0.2708
C14 C 0.2794(2) 0.2265(2) 0.12170(9)
N5 N 0.3457(2) 0.0666(2) 0.08495(9)
N6 N 0.3411(2) 0.1218(2) 0.13199(9)
N7 N 0.2890(2) 0.13536(19) 0.04763(8)
N8 N 0.1206(2) 0.79890(19) 0.04653(9)
N9 N 0.0204(2) 0.77701(19) 0.01204(9)
N10 N 0.01805(19) 0.65985(19) -0.00074(9)
Zn1E Zn 0.33370(3) 0.09337(2) -0.032125(11)
Zn1D Zn -0.16630(3) 0.59337(2) -0.032125(11)
N7E N 0.2110(2) 0.36464(19) -0.04763(8)
N10D N -0.01805(19) 0.34015(19) 0.00074(9)
loop_
_geom_bond_atom_site_label_1
_geom_bond_atom_site_label_2
_geom_bond_site_symmetry_1
_geom_bond_site_symmetry_2
Zn1 N1 1_555 1_555
N1 C3 1_555 1_555
N2 Zn1 1_555 1_555
H1 N2 1_555 1_555
H2 N2 1_555 1_555
C1 N2 1_555 1_555
N3 Zn1 1_555 1_555
H3 N3 1_555 1_555
H4 N3 1_555 1_555
C2 C1 1_555 1_555
N4 Zn1 1_555 1_555
C3 C4 1_555 1_555
C4 C6 1_555 1_555
C5 C2 1_555 1_555
H5 C5 1_555 1_555
C6 N3 1_555 1_555
C7 C5 1_555 1_555
H6 C7 1_555 1_555
C8 C6 1_555 1_555
H7 C8 1_555 1_555
C9 C4 1_555 1_555
H8 C9 1_555 1_555
C10 C9 1_555 1_555
H9 C10 1_555 1_555
C11 C8 1_555 1_555
H10 C11 1_555 1_555
C12 C1 1_555 1_555
H11 C12 1_555 1_555
C13 C7 1_555 1_555
H12 C13 1_555 1_555
C14 C2 1_555 1_555
N5 N6 1_555 1_555
N6 C14 1_555 1_555
N7 N4 1_555 1_555
N8 C3 1_555 1_555
N9 N8 1_555 1_555
N10 N1 1_555 1_555
Zn1E N7 1_555 1_555
Zn1D N10 1_555 1_555
N7E Zn1 1_555 1_555
N10D Zn1 1_555 1_555
N4 C14 1_555 1_555
C10 C11 1_555 1_555
C12 C13 1_555 1_555
N5 N7 1_555 1_555
N9 N10 1_555 1_555

#END
