
#######################################################################
#
#                 Cambridge Crystallographic Data Centre
#                                CCDC 
#
#######################################################################
#
# If this CIF has been generated from an entry in the Cambridge 
# Structural Database, then it will include bibliographic, chemical, 
# crystal, experimental, refinement or atomic coordinate data resulting 
# from the CCDC's data processing and validation procedures.
#
#######################################################################

data_YODDAX
_symmetry_cell_setting           monoclinic
_symmetry_space_group_name_H-M   'C 2/c'
_symmetry_Int_Tables_number      15
_space_group_name_Hall           '-C 2yn'
loop_
_symmetry_equiv_pos_site_id
_symmetry_equiv_pos_as_xyz
1 x,y,z
2 1/2+x,1/2+y,z
3 -x,y,1/2-z
4 1/2-x,1/2+y,1/2-z
5 -x,-y,-z
6 1/2-x,1/2-y,-z
7 x,-y,1/2+z
8 1/2+x,1/2-y,1/2+z
_cell_length_a                   14.357(3)
_cell_length_b                   10.801(2)
_cell_length_c                   8.6669(17)
_cell_angle_alpha                90
_cell_angle_beta                 91.52(3)
_cell_angle_gamma                90
_cell_volume                     1343.5
loop_
_atom_site_label
_atom_site_type_symbol
_atom_site_fract_x
_atom_site_fract_y
_atom_site_fract_z
Ni1 Ni 0.5000 0.35667(4) 0.2500
O1 O 0.57949(11) 0.49601(17) 0.1553(2)
O2 O 0.57299(12) 0.62481(16) -0.0453(2)
N1 N 0.59041(14) 0.2248(2) 0.1633(3)
C1 C 0.5679(2) 0.1569(3) 0.0391(5)
H1 H 0.5088 0.1664 -0.0059
C2 C 0.6274(3) 0.0743(4) -0.0251(6)
H2 H 0.6085 0.0290 -0.1116
C3 C 0.7145(3) 0.0584(3) 0.0378(5)
H3 H 0.7558 0.0019 -0.0040
C4 C 0.7395(2) 0.1274(4) 0.1630(5)
H4 H 0.7986 0.1190 0.2083
C5 C 0.6764(2) 0.2103(3) 0.2231(4)
H5 H 0.6946 0.2577 0.3083
C6 C 0.54390(16) 0.5345(2) 0.0324(3)
Ni1F Ni 0.5000 0.64333(4) -0.2500
O1D O 0.42051(11) 0.50399(17) -0.1553(2)
O1B O 0.42051(11) 0.49601(17) 0.3447(2)
O2D O 0.42701(12) 0.37519(16) 0.0453(2)
O2F O 0.57299(12) 0.37519(16) 0.4547(2)
N1B N 0.40959(14) 0.2248(2) 0.3367(3)
C1B C 0.4321(2) 0.1569(3) 0.4609(5)
H1B H 0.4912 0.1664 0.5059
C2B C 0.3726(3) 0.0743(4) 0.5251(6)
H2B H 0.3915 0.0290 0.6116
C3B C 0.2855(3) 0.0584(3) 0.4622(5)
H3B H 0.2442 0.0019 0.5040
C4B C 0.2605(2) 0.1274(4) 0.3370(5)
H4B H 0.2014 0.1190 0.2917
C5B C 0.3236(2) 0.2103(3) 0.2769(4)
H5B H 0.3054 0.2577 0.1917
C6D C 0.45610(16) 0.4655(2) -0.0324(3)
loop_
_geom_bond_atom_site_label_1
_geom_bond_atom_site_label_2
_geom_bond_site_symmetry_1
_geom_bond_site_symmetry_2
Ni1 O1 1_555 1_555
O1 C6 1_555 1_555
O2 C6 1_555 1_555
N1 Ni1 1_555 1_555
C1 N1 1_555 1_555
H1 C1 1_555 1_555
C2 C1 1_555 1_555
H2 C2 1_555 1_555
C3 C2 1_555 1_555
H3 C3 1_555 1_555
C4 C3 1_555 1_555
H4 C4 1_555 1_555
C5 N1 1_555 1_555
H5 C5 1_555 1_555
C6 C6D 1_555 1_555
Ni1F O2 1_555 1_555
O1D Ni1F 1_555 1_555
O1B Ni1 1_555 1_555
O2D Ni1 1_555 1_555
O2F Ni1 1_555 1_555
N1B Ni1 1_555 1_555
C1B N1B 1_555 1_555
H1B C1B 1_555 1_555
C2B C1B 1_555 1_555
H2B C2B 1_555 1_555
C3B C2B 1_555 1_555
H3B C3B 1_555 1_555
C4B C3B 1_555 1_555
H4B C4B 1_555 1_555
C5B N1B 1_555 1_555
H5B C5B 1_555 1_555
C6D O1D 1_555 1_555
C4 C5 1_555 1_555
O2D C6D 1_555 1_555
C4B C5B 1_555 1_555

#END
