
#######################################################################
#
#                 Cambridge Crystallographic Data Centre
#                                CCDC 
#
#######################################################################
#
# If this CIF has been generated from an entry in the Cambridge 
# Structural Database, then it will include bibliographic, chemical, 
# crystal, experimental, refinement or atomic coordinate data resulting 
# from the CCDC's data processing and validation procedures.
#
#######################################################################

data_YODSUH
_symmetry_cell_setting           monoclinic
_symmetry_space_group_name_H-M   'P 21/c'
_symmetry_Int_Tables_number      14
_space_group_name_Hall           '-P 2ybc'
loop_
_symmetry_equiv_pos_site_id
_symmetry_equiv_pos_as_xyz
1 x,y,z
2 -x,1/2+y,1/2-z
3 -x,-y,-z
4 x,1/2-y,1/2+z
_cell_length_a                   8.508(5)
_cell_length_b                   10.185(5)
_cell_length_c                   25.503(5)
_cell_angle_alpha                90
_cell_angle_beta                 92.598(5)
_cell_angle_gamma                90
_cell_volume                     2207.66
loop_
_atom_site_label
_atom_site_type_symbol
_atom_site_fract_x
_atom_site_fract_y
_atom_site_fract_z
Co1 Co 0.11665(11) 0.34243(9) 0.40084(4)
Cl1 Cl 0.0655(2) 0.32371(18) 0.48832(7)
O1 O 0.0298(6) 0.5426(5) 0.40372(19)
H1 H 0.008(8) 0.559(7) 0.433(3)
H2 H 0.095(8) 0.604(7) 0.393(3)
N1 N 0.1431(8) 0.3676(5) 0.3211(2)
C1 C 0.2774(9) 0.4086(6) 0.3032(3)
C2 C 0.3980(8) 0.4448(7) 0.3446(3)
C3 C 0.5376(9) 0.5035(6) 0.3330(3)
H3 H 0.5603 0.5232 0.2977
C4 C 0.6434(8) 0.5328(7) 0.3734(3)
H4 H 0.7409 0.5735 0.3668
C5 C 0.6057(9) 0.5024(7) 0.4233(3)
H5 H 0.6778 0.5214 0.4519
C6 C 0.4617(9) 0.4434(7) 0.4326(3)
H6 H 0.4380 0.4214 0.4676
N2 N 0.3562(7) 0.4170(5) 0.3937(3)
C7 C 0.0268(8) 0.3375(7) 0.2863(3)
C8 C -0.1150(8) 0.2841(6) 0.3096(3)
C9 C -0.2470(9) 0.2436(7) 0.2804(3)
H7 H -0.2510 0.2485 0.2432
C10 C -0.3733(8) 0.1957(7) 0.3069(3)
H8 H -0.4661 0.1675 0.2881
C11 C -0.3627(8) 0.1893(6) 0.3610(3)
H9 H -0.4486 0.1578 0.3799
C12 C -0.2264(9) 0.2292(7) 0.3871(3)
H10 H -0.2196 0.2232 0.4243
N3 N -0.1035(7) 0.2759(5) 0.3627(2)
N4 N 0.3072(6) 0.4165(5) 0.2526(2)
N5 N 0.0399(7) 0.3527(5) 0.2346(2)
C13 C 0.1833(9) 0.3880(7) 0.2202(3)
C14 C 0.2098(8) 0.3958(6) 0.1636(3)
C15 C 0.3545(8) 0.3737(6) 0.1439(3)
H11 H 0.4421 0.3540 0.1670
C16 C 0.3728(9) 0.3802(6) 0.0903(3)
H12 H 0.4719 0.3638 0.0759
C17 C 0.2429(9) 0.4111(6) 0.0584(3)
H13 H 0.2510 0.4161 0.0214
C18 C 0.1012(8) 0.4346(6) 0.0807(3)
H14 H 0.0130 0.4568 0.0583
N6 N 0.0816(6) 0.4278(5) 0.1325(2)
Co2 Co -0.13950(11) 0.45676(9) 0.16050(4)
Cl2 Cl -0.2115(2) 0.57005(18) 0.23196(7)
Cl3 Cl -0.2564(2) 0.26061(18) 0.13931(7)
Cl4 Cl -0.2343(2) 0.60892(17) 0.09738(7)
Co1A Co -0.11665(11) 0.84243(9) 0.09916(4)
Cl4A Cl 0.2343(2) 0.10892(17) 0.40262(7)
O2 O -0.295(2) 0.226(3) 0.0148(7)
loop_
_geom_bond_atom_site_label_1
_geom_bond_atom_site_label_2
_geom_bond_site_symmetry_1
_geom_bond_site_symmetry_2
Co1 Cl1 1_555 1_555
O1 Co1 1_555 1_555
H1 O1 1_555 1_555
H2 O1 1_555 1_555
N1 Co1 1_555 1_555
C1 N1 1_555 1_555
C2 C1 1_555 1_555
C3 C2 1_555 1_555
H3 C3 1_555 1_555
C4 C3 1_555 1_555
H4 C4 1_555 1_555
C5 C4 1_555 1_555
H5 C5 1_555 1_555
C6 C5 1_555 1_555
H6 C6 1_555 1_555
N2 Co1 1_555 1_555
C7 N1 1_555 1_555
C8 C7 1_555 1_555
C9 C8 1_555 1_555
H7 C9 1_555 1_555
C10 C9 1_555 1_555
H8 C10 1_555 1_555
C11 C10 1_555 1_555
H9 C11 1_555 1_555
C12 C11 1_555 1_555
H10 C12 1_555 1_555
N3 Co1 1_555 1_555
N4 C1 1_555 1_555
N5 C7 1_555 1_555
C13 N4 1_555 1_555
C14 C13 1_555 1_555
C15 C14 1_555 1_555
H11 C15 1_555 1_555
C16 C15 1_555 1_555
H12 C16 1_555 1_555
C17 C16 1_555 1_555
H13 C17 1_555 1_555
C18 C17 1_555 1_555
H14 C18 1_555 1_555
N6 C14 1_555 1_555
Co2 N6 1_555 1_555
Cl2 Co2 1_555 1_555
Cl3 Co2 1_555 1_555
Cl4 Co2 1_555 1_555
Co1A Cl4 1_555 1_555
Cl4A Co1 1_555 1_555
C2 N2 1_555 1_555
C6 N2 1_555 1_555
C8 N3 1_555 1_555
C12 N3 1_555 1_555
N5 C13 1_555 1_555
C18 N6 1_555 1_555

#END
