
#######################################################################
#
#                 Cambridge Crystallographic Data Centre
#                                CCDC 
#
#######################################################################
#
# If this CIF has been generated from an entry in the Cambridge 
# Structural Database, then it will include bibliographic, chemical, 
# crystal, experimental, refinement or atomic coordinate data resulting 
# from the CCDC's data processing and validation procedures.
#
#######################################################################

data_YODTAN
_symmetry_cell_setting           hexagonal
_symmetry_space_group_name_H-M   'P 63'
_symmetry_Int_Tables_number      173
_space_group_name_Hall           'P 6c'
loop_
_symmetry_equiv_pos_site_id
_symmetry_equiv_pos_as_xyz
1 x,y,z
2 -x,-y,1/2+z
3 -y,x-y,z
4 -x+y,-x,z
5 x-y,x,1/2+z
6 y,-x+y,1/2+z
_cell_length_a                   9.4410(10)
_cell_length_b                   9.4410(10)
_cell_length_c                   16.831(2)
_cell_angle_alpha                90
_cell_angle_beta                 90
_cell_angle_gamma                120
_cell_volume                     1299.2
loop_
_atom_site_label
_atom_site_type_symbol
_atom_site_fract_x
_atom_site_fract_y
_atom_site_fract_z
N1 N 0.3333 0.6667 0.3019(7)
C3 C 0.320(4) 0.739(4) 0.2271(12)
C4 C 0.3333 0.6667 0.1507(18)
C5 C 0.399(4) 0.750(4) 0.0716(16)
C6 C 0.488(3) 0.719(3) 0.3474(12)
C7 C 0.615(7) 0.685(6) 0.346(4)
C8 C 0.691(6) 0.611(7) 0.387(4)
C9 C 0.521(11) 0.880(9) 0.383(7)
C3B C 0.261(4) 0.581(6) 0.2271(12)
C3C C 0.419(6) 0.680(4) 0.2271(12)
C5B C 0.250(4) 0.649(6) 0.0716(16)
C5C C 0.351(6) 0.601(4) 0.0716(16)
C6B C 0.281(3) 0.769(4) 0.3474(12)
C6C C 0.231(4) 0.512(3) 0.3474(12)
C7B C 0.315(6) 0.930(9) 0.346(4)
C7C C 0.070(9) 0.385(7) 0.346(4)
C8B C 0.389(7) 1.080(9) 0.387(4)
C8C C -0.080(9) 0.309(6) 0.387(4)
C9B C 0.120(9) 0.641(14) 0.383(7)
C9C C 0.359(14) 0.479(11) 0.383(7)
Cr1 Cr 0.6667 0.3333 0.12540(16)
Mn1 Mn 0.0000 0.0000 0.12463(13)
O1 O 0.2012(7) 0.0219(6) 0.0571(3)
O2 O 0.2033(7) 0.1819(6) 0.1913(3)
O3 O 0.4796(7) 0.1593(6) 0.0593(3)
O4 O 0.4767(7) 0.3167(6) 0.1906(3)
C1 C 0.3379(8) 0.1240(8) 0.0863(5)
C2 C 0.3357(8) 0.2138(8) 0.1630(4)
Mn1_2 Mn 1.0000 0.0000 0.12463(13)
Mn1_3 Mn 1.0000 1.0000 0.12463(13)
O1B O 0.9781(6) 0.1793(9) 0.0571(3)
O1C O 0.8207(9) 0.7988(7) 0.0571(3)
O1B_2 O -0.0219(6) 0.1793(9) 0.0571(3)
O1C_2 O -0.1793(9) -0.2012(7) 0.0571(3)
O2B O 0.8181(6) 0.0214(9) 0.1913(3)
O2C O 0.9786(9) 0.7967(7) 0.1913(3)
O2B_2 O -0.1819(6) 0.0214(9) 0.1913(3)
O2C_2 O -0.0214(9) -0.2033(7) 0.1913(3)
O3B O 0.8407(6) 0.3203(9) 0.0593(3)
O3C O 0.6797(9) 0.5204(7) 0.0593(3)
O4B O 0.6833(6) 0.1600(9) 0.1906(3)
O4C O 0.8400(9) 0.5233(7) 0.1906(3)
C1B C 0.8760(8) 0.2139(11) 0.0863(5)
C1C C 0.7861(11) 0.6621(8) 0.0863(5)
C2B C 0.7862(8) 0.1219(11) 0.1630(4)
C2C C 0.8781(11) 0.6643(8) 0.1630(4)
loop_
_geom_bond_atom_site_label_1
_geom_bond_atom_site_label_2
_geom_bond_site_symmetry_1
_geom_bond_site_symmetry_2
Cr1 O3 1_555 1_555
Mn1 O1 1_555 1_555
O1 C1 1_555 1_555
O2 Mn1 1_555 1_555
O3 C1 1_555 1_555
O4 Cr1 1_555 1_555
C1 C2 1_555 1_555
C2 O2 1_555 1_555
N1 C3 1_555 1_555
C3 C4 1_555 1_555
C4 C5 1_555 1_555
C5 C5B 1_555 1_555
C6 N1 1_555 1_555
C7 C6 1_555 1_555
C8 C7 1_555 1_555
C9 C6 1_555 1_555
Mn1_2 O1B 1_555 1_555
Mn1_3 O1C 1_555 1_555
O1B C1B 1_555 1_555
O1C C1C 1_555 1_555
O1B_2 Mn1 1_555 1_555
O1C_2 Mn1 1_555 1_555
O2B Mn1_2 1_555 1_555
O2C Mn1_3 1_555 1_555
O2B_2 Mn1 1_555 1_555
O2C_2 Mn1 1_555 1_555
O3B Cr1 1_555 1_555
O3C Cr1 1_555 1_555
O4B Cr1 1_555 1_555
O4C Cr1 1_555 1_555
C1B O3B 1_555 1_555
C1C O3C 1_555 1_555
C2B O2B 1_555 1_555
C2C O2C 1_555 1_555
C3B N1 1_555 1_555
C3C N1 1_555 1_555
C5B C4 1_555 1_555
C5C C4 1_555 1_555
C6B N1 1_555 1_555
C6C N1 1_555 1_555
C7B C6B 1_555 1_555
C7C C6C 1_555 1_555
C8B C7B 1_555 1_555
C8C C7C 1_555 1_555
C9B C6B 1_555 1_555
C9C C6C 1_555 1_555
O4 C2 1_555 1_555
C3 C3B 1_555 1_555
C3 C3C 1_555 1_555
C4 C3B 1_555 1_555
C4 C3C 1_555 1_555
C5 C5C 1_555 1_555
O4B C2B 1_555 1_555
O4C C2C 1_555 1_555
C1B C2B 1_555 1_555
C1C C2C 1_555 1_555
C3B C3C 1_555 1_555
C5B C5C 1_555 1_555

#END
