
#######################################################################
#
#                 Cambridge Crystallographic Data Centre
#                                CCDC 
#
#######################################################################
#
# If this CIF has been generated from an entry in the Cambridge 
# Structural Database, then it will include bibliographic, chemical, 
# crystal, experimental, refinement or atomic coordinate data resulting 
# from the CCDC's data processing and validation procedures.
#
#######################################################################

data_YODWUL
_symmetry_cell_setting           cubic
_symmetry_space_group_name_H-M   'P m -3'
_symmetry_Int_Tables_number      200
_space_group_name_Hall           '-P 2 2 3'
loop_
_symmetry_equiv_pos_site_id
_symmetry_equiv_pos_as_xyz
1 x,y,z
2 -x,-y,z
3 -x,y,-z
4 x,-y,-z
5 z,x,y
6 z,-x,-y
7 -z,-x,y
8 -z,x,-y
9 y,z,x
10 -y,z,-x
11 y,-z,-x
12 -y,-z,x
13 -x,-y,-z
14 x,y,-z
15 x,-y,z
16 -x,y,z
17 -z,-x,-y
18 -z,x,y
19 z,x,-y
20 z,-x,y
21 -y,-z,-x
22 y,-z,x
23 -y,z,x
24 y,z,-x
_cell_length_a                   31.102(4)
_cell_length_b                   31.102(4)
_cell_length_c                   31.102(4)
_cell_angle_alpha                90
_cell_angle_beta                 90
_cell_angle_gamma                90
_cell_volume                     30086
loop_
_atom_site_label
_atom_site_type_symbol
_atom_site_fract_x
_atom_site_fract_y
_atom_site_fract_z
Zn1 Zn 0.5000 0.5000 0.12743(14)
Zn2 Zn 0.5000 0.5000 0.22334(17)
Zn3 Zn 0.34329(11) 0.34329(11) 0.34329(11)
Zn4 Zn 0.27804(11) 0.27804(11) 0.27804(11)
O1 O 0.4572(6) 0.4581(5) 0.1403(6)
O2 O 0.4562(5) 0.4569(5) 0.2113(4)
O3 O 0.3581(5) 0.3585(5) 0.2858(5)
O4 O 0.3151(5) 0.3178(5) 0.2473(5)
O5 O 0.3218(11) 0.2767(12) 0.1038(10)
N1 N 0.3854(5) 0.3101(5) 0.1034(5)
H1 H 0.4101 0.3061 0.0901
C1 C 0.4191(5) 0.4034(5) 0.1718(5)
C2 C 0.3957(5) 0.3969(5) 0.2093(5)
H2 H 0.3969 0.4175 0.2319
C3 C 0.3705(5) 0.3603(5) 0.2139(5)
C4 C 0.3687(5) 0.3302(5) 0.1809(5)
H3 H 0.3514 0.3052 0.1840
C5 C 0.3921(5) 0.3367(5) 0.1434(5)
C6 C 0.4173(5) 0.3733(5) 0.1389(5)
H4 H 0.4334 0.3777 0.1133
C7 C 0.4447(6) 0.4405(6) 0.1758(7)
C8 C 0.3470(6) 0.3448(6) 0.2488(7)
C9 C 0.3540(11) 0.2909(16) 0.0820(9)
C10 C 0.3568(16) 0.2955(13) 0.0000
H5 H 0.3499 0.3253 0.0000
C11 C 0.3619(9) 0.2735(9) 0.0388(5)
C12 C 0.3730(13) 0.2304(10) 0.0387(6)
H6 H 0.3767 0.2156 0.0651
C13 C 0.3788(18) 0.2087(13) 0.0000
H7 H 0.3867 0.1791 0.0000
O6 O 0.5000 0.5000 0.0636(6)
O7 O 0.5000 0.5000 0.2898(5)
O8 O 0.3804(3) 0.3804(3) 0.3804(3)
O9 O 0.2409(4) 0.2409(4) 0.2409(4)
O1M O 0.4572(6) 0.4581(5) -0.1403(6)
O2M O 0.4562(5) 0.4569(5) -0.2113(4)
O3M O 0.3581(5) 0.3585(5) -0.2858(5)
O4M O 0.3151(5) 0.3178(5) -0.2473(5)
O5M O 0.3218(11) 0.2767(12) -0.1038(10)
N1M N 0.3854(5) 0.3101(5) -0.1034(5)
H1M H 0.4101 0.3061 -0.0901
C1M C 0.4191(5) 0.4034(5) -0.1718(5)
C2M C 0.3957(5) 0.3969(5) -0.2093(5)
H2M H 0.3969 0.4175 -0.2319
C3M C 0.3705(5) 0.3603(5) -0.2139(5)
C4M C 0.3687(5) 0.3302(5) -0.1809(5)
H3M H 0.3514 0.3052 -0.1840
C5M C 0.3921(5) 0.3367(5) -0.1434(5)
C6M C 0.4173(5) 0.3733(5) -0.1389(5)
H4M H 0.4334 0.3777 -0.1133
C7M C 0.4447(6) 0.4405(6) -0.1758(7)
C8M C 0.3470(6) 0.3448(6) -0.2488(7)
C9M C 0.3540(11) 0.2909(16) -0.0820(9)
C11M C 0.3619(9) 0.2735(9) -0.0388(5)
C12M C 0.3730(13) 0.2304(10) -0.0387(6)
H6M H 0.3767 0.2156 -0.0651
Zn3A Zn 0.65671(11) 0.65671(11) 0.34329(11)
Zn4A Zn 0.72196(11) 0.72196(11) 0.27804(11)
O1A O 0.5428(6) 0.5419(5) 0.1403(6)
O2A O 0.5438(5) 0.5431(5) 0.2113(4)
O3A O 0.6419(5) 0.6415(5) 0.2858(5)
O4A O 0.6849(5) 0.6822(5) 0.2473(5)
O5A O 0.6782(11) 0.7233(12) 0.1038(10)
N1A N 0.6146(5) 0.6899(5) 0.1034(5)
H1A H 0.5899 0.6939 0.0901
C1A C 0.5809(5) 0.5966(5) 0.1718(5)
C2A C 0.6043(5) 0.6031(5) 0.2093(5)
H2A H 0.6031 0.5825 0.2319
C3A C 0.6295(5) 0.6397(5) 0.2139(5)
C4A C 0.6313(5) 0.6698(5) 0.1809(5)
H3A H 0.6486 0.6948 0.1840
C5A C 0.6079(5) 0.6633(5) 0.1434(5)
C6A C 0.5827(5) 0.6267(5) 0.1389(5)
H4A H 0.5666 0.6223 0.1133
C7A C 0.5553(6) 0.5595(6) 0.1758(7)
C8A C 0.6530(6) 0.6552(6) 0.2488(7)
C9A C 0.6460(11) 0.7091(16) 0.0820(9)
C10A C 0.6432(16) 0.7045(13) 0.0000
H5A H 0.6501 0.6747 0.0000
C11A C 0.6381(9) 0.7265(9) 0.0388(5)
C12A C 0.6270(13) 0.7696(10) 0.0387(6)
H6A H 0.6233 0.7844 0.0651
C13A C 0.6212(18) 0.7913(13) 0.0000
H7A H 0.6133 0.8209 0.0000
O8A O 0.6196(3) 0.6196(3) 0.3804(3)
O9A O 0.7591(4) 0.7591(4) 0.2409(4)
O1L O 0.5428(6) 0.5419(5) -0.1403(6)
O2L O 0.5438(5) 0.5431(5) -0.2113(4)
O3L O 0.6419(5) 0.6415(5) -0.2858(5)
O4L O 0.6849(5) 0.6822(5) -0.2473(5)
O5L O 0.6782(11) 0.7233(12) -0.1038(10)
N1L N 0.6146(5) 0.6899(5) -0.1034(5)
H1L H 0.5899 0.6939 -0.0901
C1L C 0.5809(5) 0.5966(5) -0.1718(5)
C2L C 0.6043(5) 0.6031(5) -0.2093(5)
H2L H 0.6031 0.5825 -0.2319
C3L C 0.6295(5) 0.6397(5) -0.2139(5)
C4L C 0.6313(5) 0.6698(5) -0.1809(5)
H3L H 0.6486 0.6948 -0.1840
C5L C 0.6079(5) 0.6633(5) -0.1434(5)
C6L C 0.5827(5) 0.6267(5) -0.1389(5)
H4L H 0.5666 0.6223 -0.1133
C7L C 0.5553(6) 0.5595(6) -0.1758(7)
C8L C 0.6530(6) 0.6552(6) -0.2488(7)
C9L C 0.6460(11) 0.7091(16) -0.0820(9)
C11L C 0.6381(9) 0.7265(9) -0.0388(5)
C12L C 0.6270(13) 0.7696(10) -0.0387(6)
H6L H 0.6233 0.7844 -0.0651
Zn1B Zn 0.5000 0.5000 -0.12743(14)
Zn2B Zn 0.5000 0.5000 -0.22334(17)
O1B O 0.5428(6) 0.4581(5) -0.1403(6)
O2B O 0.5438(5) 0.4569(5) -0.2113(4)
O3B O 0.6419(5) 0.3585(5) -0.2858(5)
O4B O 0.6849(5) 0.3178(5) -0.2473(5)
O5B O 0.6782(11) 0.2767(12) -0.1038(10)
N1B N 0.6146(5) 0.3101(5) -0.1034(5)
H1B H 0.5899 0.3061 -0.0901
C1B C 0.5809(5) 0.4034(5) -0.1718(5)
C2B C 0.6043(5) 0.3969(5) -0.2093(5)
H2B H 0.6031 0.4175 -0.2319
C3B C 0.6295(5) 0.3603(5) -0.2139(5)
C4B C 0.6313(5) 0.3302(5) -0.1809(5)
H3B H 0.6486 0.3052 -0.1840
C5B C 0.6079(5) 0.3367(5) -0.1434(5)
C6B C 0.5827(5) 0.3733(5) -0.1389(5)
H4B H 0.5666 0.3777 -0.1133
C7B C 0.5553(6) 0.4405(6) -0.1758(7)
C8B C 0.6530(6) 0.3448(6) -0.2488(7)
C9B C 0.6460(11) 0.2909(16) -0.0820(9)
C10B C 0.6432(16) 0.2955(13) 0.0000
H5B H 0.6501 0.3253 0.0000
C11B C 0.6381(9) 0.2735(9) -0.0388(5)
C12B C 0.6270(13) 0.2304(10) -0.0387(6)
H6B H 0.6233 0.2156 -0.0651
C13B C 0.6212(18) 0.2087(13) 0.0000
H7B H 0.6133 0.1791 0.0000
O6B O 0.5000 0.5000 -0.0636(6)
O7B O 0.5000 0.5000 -0.2898(5)
O1O O 0.5428(6) 0.4581(5) 0.1403(6)
O2O O 0.5438(5) 0.4569(5) 0.2113(4)
O3O O 0.6419(5) 0.3585(5) 0.2858(5)
O4O O 0.6849(5) 0.3178(5) 0.2473(5)
O5O O 0.6782(11) 0.2767(12) 0.1038(10)
N1O N 0.6146(5) 0.3101(5) 0.1034(5)
H1O H 0.5899 0.3061 0.0901
C1O C 0.5809(5) 0.4034(5) 0.1718(5)
C2O C 0.6043(5) 0.3969(5) 0.2093(5)
H2O H 0.6031 0.4175 0.2319
C3O C 0.6295(5) 0.3603(5) 0.2139(5)
C4O C 0.6313(5) 0.3302(5) 0.1809(5)
H3O H 0.6486 0.3052 0.1840
C5O C 0.6079(5) 0.3367(5) 0.1434(5)
C6O C 0.5827(5) 0.3733(5) 0.1389(5)
H4O H 0.5666 0.3777 0.1133
C7O C 0.5553(6) 0.4405(6) 0.1758(7)
C8O C 0.6530(6) 0.3448(6) 0.2488(7)
C9O C 0.6460(11) 0.2909(16) 0.0820(9)
C11O C 0.6381(9) 0.2735(9) 0.0388(5)
C12O C 0.6270(13) 0.2304(10) 0.0387(6)
H6O H 0.6233 0.2156 0.0651
O1C O 0.4572(6) 0.5419(5) -0.1403(6)
O2C O 0.4562(5) 0.5431(5) -0.2113(4)
O3C O 0.3581(5) 0.6415(5) -0.2858(5)
O4C O 0.3151(5) 0.6822(5) -0.2473(5)
O5C O 0.3218(11) 0.7233(12) -0.1038(10)
N1C N 0.3854(5) 0.6899(5) -0.1034(5)
H1C H 0.4101 0.6939 -0.0901
C1C C 0.4191(5) 0.5966(5) -0.1718(5)
C2C C 0.3957(5) 0.6031(5) -0.2093(5)
H2C H 0.3969 0.5825 -0.2319
C3C C 0.3705(5) 0.6397(5) -0.2139(5)
C4C C 0.3687(5) 0.6698(5) -0.1809(5)
H3C H 0.3514 0.6948 -0.1840
C5C C 0.3921(5) 0.6633(5) -0.1434(5)
C6C C 0.4173(5) 0.6267(5) -0.1389(5)
H4C H 0.4334 0.6223 -0.1133
C7C C 0.4447(6) 0.5595(6) -0.1758(7)
C8C C 0.3470(6) 0.6552(6) -0.2488(7)
C9C C 0.3540(11) 0.7091(16) -0.0820(9)
C10C C 0.3568(16) 0.7045(13) 0.0000
H5C H 0.3499 0.6747 0.0000
C11C C 0.3619(9) 0.7265(9) -0.0388(5)
C12C C 0.3730(13) 0.7696(10) -0.0387(6)
H6C H 0.3767 0.7844 -0.0651
C13C C 0.3788(18) 0.7913(13) 0.0000
H7C H 0.3867 0.8209 0.0000
O1N O 0.4572(6) 0.5419(5) 0.1403(6)
O2N O 0.4562(5) 0.5431(5) 0.2113(4)
O3N O 0.3581(5) 0.6415(5) 0.2858(5)
O4N O 0.3151(5) 0.6822(5) 0.2473(5)
O5N O 0.3218(11) 0.7233(12) 0.1038(10)
N1N N 0.3854(5) 0.6899(5) 0.1034(5)
H1N H 0.4101 0.6939 0.0901
C1N C 0.4191(5) 0.5966(5) 0.1718(5)
C2N C 0.3957(5) 0.6031(5) 0.2093(5)
H2N H 0.3969 0.5825 0.2319
C3N C 0.3705(5) 0.6397(5) 0.2139(5)
C4N C 0.3687(5) 0.6698(5) 0.1809(5)
H3N H 0.3514 0.6948 0.1840
C5N C 0.3921(5) 0.6633(5) 0.1434(5)
C6N C 0.4173(5) 0.6267(5) 0.1389(5)
H4N H 0.4334 0.6223 0.1133
C7N C 0.4447(6) 0.5595(6) 0.1758(7)
C8N C 0.3470(6) 0.6552(6) 0.2488(7)
C9N C 0.3540(11) 0.7091(16) 0.0820(9)
C11N C 0.3619(9) 0.7265(9) 0.0388(5)
C12N C 0.3730(13) 0.7696(10) 0.0387(6)
H6N H 0.3767 0.7844 0.0651
Zn1D Zn 0.12743(14) 0.5000 0.5000
Zn2D Zn 0.22334(17) 0.5000 0.5000
O1D O 0.1403(6) 0.4572(6) 0.4581(5)
O2D O 0.2113(4) 0.4562(5) 0.4569(5)
O3D O 0.2858(5) 0.3581(5) 0.3585(5)
O4D O 0.2473(5) 0.3151(5) 0.3178(5)
O5D O 0.1038(10) 0.3218(11) 0.2767(12)
N1D N 0.1034(5) 0.3854(5) 0.3101(5)
H1D H 0.0901 0.4101 0.3061
C1D C 0.1718(5) 0.4191(5) 0.4034(5)
C2D C 0.2093(5) 0.3957(5) 0.3969(5)
H2D H 0.2319 0.3969 0.4175
C3D C 0.2139(5) 0.3705(5) 0.3603(5)
C4D C 0.1809(5) 0.3687(5) 0.3302(5)
H3D H 0.1840 0.3514 0.3052
C5D C 0.1434(5) 0.3921(5) 0.3367(5)
C6D C 0.1389(5) 0.4173(5) 0.3733(5)
H4D H 0.1133 0.4334 0.3777
C7D C 0.1758(7) 0.4447(6) 0.4405(6)
C8D C 0.2488(7) 0.3470(6) 0.3448(6)
C9D C 0.0820(9) 0.3540(11) 0.2909(16)
C10D C 0.0000 0.3568(16) 0.2955(13)
H5D H 0.0000 0.3499 0.3253
C11D C 0.0388(5) 0.3619(9) 0.2735(9)
C12D C 0.0387(6) 0.3730(13) 0.2304(10)
H6D H 0.0651 0.3767 0.2156
C13D C 0.0000 0.3788(18) 0.2087(13)
H7D H 0.0000 0.3867 0.1791
O6D O 0.0636(6) 0.5000 0.5000
O7D O 0.2898(5) 0.5000 0.5000
O1Q O -0.1403(6) 0.4572(6) 0.4581(5)
O2Q O -0.2113(4) 0.4562(5) 0.4569(5)
O3Q O -0.2858(5) 0.3581(5) 0.3585(5)
O4Q O -0.2473(5) 0.3151(5) 0.3178(5)
O5Q O -0.1038(10) 0.3218(11) 0.2767(12)
N1Q N -0.1034(5) 0.3854(5) 0.3101(5)
H1Q H -0.0901 0.4101 0.3061
C1Q C -0.1718(5) 0.4191(5) 0.4034(5)
C2Q C -0.2093(5) 0.3957(5) 0.3969(5)
H2Q H -0.2319 0.3969 0.4175
C3Q C -0.2139(5) 0.3705(5) 0.3603(5)
C4Q C -0.1809(5) 0.3687(5) 0.3302(5)
H3Q H -0.1840 0.3514 0.3052
C5Q C -0.1434(5) 0.3921(5) 0.3367(5)
C6Q C -0.1389(5) 0.4173(5) 0.3733(5)
H4Q H -0.1133 0.4334 0.3777
C7Q C -0.1758(7) 0.4447(6) 0.4405(6)
C8Q C -0.2488(7) 0.3470(6) 0.3448(6)
C9Q C -0.0820(9) 0.3540(11) 0.2909(16)
C11Q C -0.0388(5) 0.3619(9) 0.2735(9)
C12Q C -0.0387(6) 0.3730(13) 0.2304(10)
H6Q H -0.0651 0.3767 0.2156
O1H O 0.4581(5) 0.1403(6) 0.4572(6)
O2H O 0.4569(5) 0.2113(4) 0.4562(5)
O3H O 0.3585(5) 0.2858(5) 0.3581(5)
O4H O 0.3178(5) 0.2473(5) 0.3151(5)
O5H O 0.2767(12) 0.1038(10) 0.3218(11)
N1H N 0.3101(5) 0.1034(5) 0.3854(5)
H1H H 0.3061 0.0901 0.4101
C1H C 0.4034(5) 0.1718(5) 0.4191(5)
C2H C 0.3969(5) 0.2093(5) 0.3957(5)
H2H H 0.4175 0.2319 0.3969
C3H C 0.3603(5) 0.2139(5) 0.3705(5)
C4H C 0.3302(5) 0.1809(5) 0.3687(5)
H3H H 0.3052 0.1840 0.3514
C5H C 0.3367(5) 0.1434(5) 0.3921(5)
C6H C 0.3733(5) 0.1389(5) 0.4173(5)
H4H H 0.3777 0.1133 0.4334
C7H C 0.4405(6) 0.1758(7) 0.4447(6)
C8H C 0.3448(6) 0.2488(7) 0.3470(6)
C9H C 0.2909(16) 0.0820(9) 0.3540(11)
C10H C 0.2955(13) 0.0000 0.3568(16)
H5H H 0.3253 0.0000 0.3499
C11H C 0.2735(9) 0.0388(5) 0.3619(9)
C12H C 0.2304(10) 0.0387(6) 0.3730(13)
H6H H 0.2156 0.0651 0.3767
C13H C 0.2087(13) 0.0000 0.3788(18)
H7H H 0.1791 0.0000 0.3867
O1U O 0.4581(5) -0.1403(6) 0.4572(6)
O2U O 0.4569(5) -0.2113(4) 0.4562(5)
O3U O 0.3585(5) -0.2858(5) 0.3581(5)
O4U O 0.3178(5) -0.2473(5) 0.3151(5)
O5U O 0.2767(12) -0.1038(10) 0.3218(11)
N1U N 0.3101(5) -0.1034(5) 0.3854(5)
H1U H 0.3061 -0.0901 0.4101
C1U C 0.4034(5) -0.1718(5) 0.4191(5)
C2U C 0.3969(5) -0.2093(5) 0.3957(5)
H2U H 0.4175 -0.2319 0.3969
C3U C 0.3603(5) -0.2139(5) 0.3705(5)
C4U C 0.3302(5) -0.1809(5) 0.3687(5)
H3U H 0.3052 -0.1840 0.3514
C5U C 0.3367(5) -0.1434(5) 0.3921(5)
C6U C 0.3733(5) -0.1389(5) 0.4173(5)
H4U H 0.3777 -0.1133 0.4334
C7U C 0.4405(6) -0.1758(7) 0.4447(6)
C8U C 0.3448(6) -0.2488(7) 0.3470(6)
C9U C 0.2909(16) -0.0820(9) 0.3540(11)
C11U C 0.2735(9) -0.0388(5) 0.3619(9)
C12U C 0.2304(10) -0.0387(6) 0.3730(13)
H6U H 0.2156 -0.0651 0.3767
Zn3L Zn 0.65671(11) 0.65671(11) -0.34329(11)
Zn4L Zn 0.72196(11) 0.72196(11) -0.27804(11)
O8L O 0.6196(3) 0.6196(3) -0.3804(3)
O9L O 0.7591(4) 0.7591(4) -0.2409(4)
Zn3M Zn 0.34329(11) 0.34329(11) -0.34329(11)
Zn4M Zn 0.27804(11) 0.27804(11) -0.27804(11)
O8M O 0.3804(3) 0.3804(3) -0.3804(3)
O9M O 0.2409(4) 0.2409(4) -0.2409(4)
Zn1F Zn -0.12743(14) 0.5000 0.5000
Zn1H Zn 0.5000 0.12743(14) 0.5000
Zn1J Zn 0.5000 -0.12743(14) 0.5000
Zn2F Zn -0.22334(17) 0.5000 0.5000
Zn2H Zn 0.5000 0.22334(17) 0.5000
Zn2J Zn 0.5000 -0.22334(17) 0.5000
Zn3B Zn 0.65671(11) 0.34329(11) -0.34329(11)
Zn3C Zn 0.34329(11) 0.65671(11) -0.34329(11)
Zn3N Zn 0.34329(11) -0.34329(11) 0.34329(11)
Zn3N_2 Zn 0.34329(11) 0.65671(11) 0.34329(11)
Zn3O Zn -0.34329(11) 0.34329(11) 0.34329(11)
Zn3O_2 Zn 0.65671(11) 0.34329(11) 0.34329(11)
Zn4B Zn 0.72196(11) 0.27804(11) -0.27804(11)
Zn4C Zn 0.27804(11) 0.72196(11) -0.27804(11)
Zn4N Zn 0.27804(11) -0.27804(11) 0.27804(11)
Zn4N_2 Zn 0.27804(11) 0.72196(11) 0.27804(11)
Zn4O Zn -0.27804(11) 0.27804(11) 0.27804(11)
Zn4O_2 Zn 0.72196(11) 0.27804(11) 0.27804(11)
O1E O 0.1403(6) 0.5428(6) 0.5419(5)
O1R O 0.1403(6) 0.4572(6) 0.5419(5)
O1S O 0.1403(6) 0.5428(6) 0.4581(5)
O2E O 0.2113(4) 0.5438(5) 0.5431(5)
O2R O 0.2113(4) 0.4562(5) 0.5431(5)
O2S O 0.2113(4) 0.5438(5) 0.4569(5)
O3F O 0.7142(5) 0.6419(5) 0.3585(5)
O3K O 0.6415(5) 0.7142(5) 0.3581(5)
O3P O 0.7142(5) 0.6419(5) -0.3585(5)
O3R O 0.2858(5) 0.3581(5) -0.3585(5)
O3T O 0.6415(5) 0.7142(5) -0.3581(5)
O3W O 0.3585(5) 0.2858(5) -0.3581(5)
O4F O 0.7527(5) 0.6849(5) 0.3178(5)
O4K O 0.6822(5) 0.7527(5) 0.3151(5)
O4P O 0.7527(5) 0.6849(5) -0.3178(5)
O4R O 0.2473(5) 0.3151(5) -0.3178(5)
O4T O 0.6822(5) 0.7527(5) -0.3151(5)
O4W O 0.3178(5) 0.2473(5) -0.3151(5)
loop_
_geom_bond_atom_site_label_1
_geom_bond_atom_site_label_2
_geom_bond_site_symmetry_1
_geom_bond_site_symmetry_2
Zn1 O1 1_555 1_555
Zn2 O2 1_555 1_555
Zn3 O3 1_555 1_555
Zn4 O4 1_555 1_555
O1 C7 1_555 1_555
O2 C7 1_555 1_555
O3 C8 1_555 1_555
O4 C8 1_555 1_555
O5 C9 1_555 1_555
N1 H1 1_555 1_555
C1 C2 1_555 1_555
C2 H2 1_555 1_555
C3 C2 1_555 1_555
C4 C3 1_555 1_555
H3 C4 1_555 1_555
C5 N1 1_555 1_555
C6 C1 1_555 1_555
H4 C6 1_555 1_555
C7 C1 1_555 1_555
C8 C3 1_555 1_555
C9 N1 1_555 1_555
C10 H5 1_555 1_555
C11 C9 1_555 1_555
C12 C11 1_555 1_555
H6 C12 1_555 1_555
C13 C12 1_555 1_555
H7 C13 1_555 1_555
O6 Zn1 1_555 1_555
O7 Zn2 1_555 1_555
O8 Zn3 1_555 1_555
O9 Zn4 1_555 1_555
O1M C7M 1_555 1_555
O2M C7M 1_555 1_555
O3M C8M 1_555 1_555
O4M C8M 1_555 1_555
O5M C9M 1_555 1_555
N1M H1M 1_555 1_555
C1M C2M 1_555 1_555
C2M H2M 1_555 1_555
C3M C2M 1_555 1_555
C4M C3M 1_555 1_555
H3M C4M 1_555 1_555
C5M N1M 1_555 1_555
C6M C1M 1_555 1_555
H4M C6M 1_555 1_555
C7M C1M 1_555 1_555
C8M C3M 1_555 1_555
C9M N1M 1_555 1_555
C11M C10 1_555 1_555
C12M C13 1_555 1_555
H6M C12M 1_555 1_555
Zn3A O3A 1_555 1_555
Zn4A O4A 1_555 1_555
O1A Zn1 1_555 1_555
O2A Zn2 1_555 1_555
O3A C8A 1_555 1_555
O4A C8A 1_555 1_555
O5A C9A 1_555 1_555
N1A H1A 1_555 1_555
C1A C2A 1_555 1_555
C2A H2A 1_555 1_555
C3A C2A 1_555 1_555
C4A C3A 1_555 1_555
H3A C4A 1_555 1_555
C5A N1A 1_555 1_555
C6A C1A 1_555 1_555
H4A C6A 1_555 1_555
C7A O1A 1_555 1_555
C8A C3A 1_555 1_555
C9A N1A 1_555 1_555
C10A H5A 1_555 1_555
C11A C9A 1_555 1_555
C12A C11A 1_555 1_555
H6A C12A 1_555 1_555
C13A C12A 1_555 1_555
H7A C13A 1_555 1_555
O8A Zn3A 1_555 1_555
O9A Zn4A 1_555 1_555
O1L C7L 1_555 1_555
O2L C7L 1_555 1_555
O3L C8L 1_555 1_555
O4L C8L 1_555 1_555
O5L C9L 1_555 1_555
N1L H1L 1_555 1_555
C1L C2L 1_555 1_555
C2L H2L 1_555 1_555
C3L C2L 1_555 1_555
C4L C3L 1_555 1_555
H3L C4L 1_555 1_555
C5L N1L 1_555 1_555
C6L C1L 1_555 1_555
H4L C6L 1_555 1_555
C7L C1L 1_555 1_555
C8L C3L 1_555 1_555
C9L N1L 1_555 1_555
C11L C10A 1_555 1_555
C12L C13A 1_555 1_555
H6L C12L 1_555 1_555
Zn1B O1M 1_555 1_555
Zn2B O2M 1_555 1_555
O1B Zn1B 1_555 1_555
O2B Zn2B 1_555 1_555
O3B C8B 1_555 1_555
O4B C8B 1_555 1_555
O5B C9B 1_555 1_555
N1B H1B 1_555 1_555
C1B C2B 1_555 1_555
C2B H2B 1_555 1_555
C3B C2B 1_555 1_555
C4B C3B 1_555 1_555
H3B C4B 1_555 1_555
C5B N1B 1_555 1_555
C6B C1B 1_555 1_555
H4B C6B 1_555 1_555
C7B O1B 1_555 1_555
C8B C3B 1_555 1_555
C9B N1B 1_555 1_555
C10B H5B 1_555 1_555
C11B C9B 1_555 1_555
C12B C11B 1_555 1_555
H6B C12B 1_555 1_555
C13B C12B 1_555 1_555
H7B C13B 1_555 1_555
O6B Zn1B 1_555 1_555
O7B Zn2B 1_555 1_555
O1O Zn1 1_555 1_555
O2O Zn2 1_555 1_555
O3O C8O 1_555 1_555
O4O C8O 1_555 1_555
O5O C9O 1_555 1_555
N1O H1O 1_555 1_555
C1O C2O 1_555 1_555
C2O H2O 1_555 1_555
C3O C2O 1_555 1_555
C4O C3O 1_555 1_555
H3O C4O 1_555 1_555
C5O N1O 1_555 1_555
C6O C1O 1_555 1_555
H4O C6O 1_555 1_555
C7O O1O 1_555 1_555
C8O C3O 1_555 1_555
C9O N1O 1_555 1_555
C11O C10B 1_555 1_555
C12O C13B 1_555 1_555
H6O C12O 1_555 1_555
O1C Zn1B 1_555 1_555
O2C Zn2B 1_555 1_555
O3C C8C 1_555 1_555
O4C C8C 1_555 1_555
O5C C9C 1_555 1_555
N1C H1C 1_555 1_555
C1C C2C 1_555 1_555
C2C H2C 1_555 1_555
C3C C2C 1_555 1_555
C4C C3C 1_555 1_555
H3C C4C 1_555 1_555
C5C N1C 1_555 1_555
C6C C1C 1_555 1_555
H4C C6C 1_555 1_555
C7C O1C 1_555 1_555
C8C C3C 1_555 1_555
C9C N1C 1_555 1_555
C10C H5C 1_555 1_555
C11C C9C 1_555 1_555
C12C C11C 1_555 1_555
H6C C12C 1_555 1_555
C13C C12C 1_555 1_555
H7C C13C 1_555 1_555
O1N Zn1 1_555 1_555
O2N Zn2 1_555 1_555
O3N C8N 1_555 1_555
O4N C8N 1_555 1_555
O5N C9N 1_555 1_555
N1N H1N 1_555 1_555
C1N C2N 1_555 1_555
C2N H2N 1_555 1_555
C3N C2N 1_555 1_555
C4N C3N 1_555 1_555
H3N C4N 1_555 1_555
C5N N1N 1_555 1_555
C6N C1N 1_555 1_555
H4N C6N 1_555 1_555
C7N O1N 1_555 1_555
C8N C3N 1_555 1_555
C9N N1N 1_555 1_555
C11N C10C 1_555 1_555
C12N C13C 1_555 1_555
H6N C12N 1_555 1_555
Zn1D O1D 1_555 1_555
Zn2D O2D 1_555 1_555
O1D C7D 1_555 1_555
O2D C7D 1_555 1_555
O3D Zn3 1_555 1_555
O4D Zn4 1_555 1_555
O5D C9D 1_555 1_555
N1D H1D 1_555 1_555
C1D C2D 1_555 1_555
C2D H2D 1_555 1_555
C3D C2D 1_555 1_555
C4D C3D 1_555 1_555
H3D C4D 1_555 1_555
C5D N1D 1_555 1_555
C6D C1D 1_555 1_555
H4D C6D 1_555 1_555
C7D C1D 1_555 1_555
C8D O3D 1_555 1_555
C9D N1D 1_555 1_555
C10D H5D 1_555 1_555
C11D C9D 1_555 1_555
C12D C11D 1_555 1_555
H6D C12D 1_555 1_555
C13D C12D 1_555 1_555
H7D C13D 1_555 1_555
O6D Zn1D 1_555 1_555
O7D Zn2D 1_555 1_555
O1Q C7Q 1_555 1_555
O2Q C7Q 1_555 1_555
O3Q C8Q 1_555 1_555
O4Q C8Q 1_555 1_555
O5Q C9Q 1_555 1_555
N1Q H1Q 1_555 1_555
C1Q C2Q 1_555 1_555
C2Q H2Q 1_555 1_555
C3Q C2Q 1_555 1_555
C4Q C3Q 1_555 1_555
H3Q C4Q 1_555 1_555
C5Q N1Q 1_555 1_555
C6Q C1Q 1_555 1_555
H4Q C6Q 1_555 1_555
C7Q C1Q 1_555 1_555
C8Q C3Q 1_555 1_555
C9Q N1Q 1_555 1_555
C11Q C10D 1_555 1_555
C12Q C13D 1_555 1_555
H6Q C12Q 1_555 1_555
O1H C7H 1_555 1_555
O2H C7H 1_555 1_555
O3H Zn3 1_555 1_555
O4H Zn4 1_555 1_555
O5H C9H 1_555 1_555
N1H H1H 1_555 1_555
C1H C2H 1_555 1_555
C2H H2H 1_555 1_555
C3H C2H 1_555 1_555
C4H C3H 1_555 1_555
H3H C4H 1_555 1_555
C5H N1H 1_555 1_555
C6H C1H 1_555 1_555
H4H C6H 1_555 1_555
C7H C1H 1_555 1_555
C8H O3H 1_555 1_555
C9H N1H 1_555 1_555
C10H H5H 1_555 1_555
C11H C9H 1_555 1_555
C12H C11H 1_555 1_555
H6H C12H 1_555 1_555
C13H C12H 1_555 1_555
H7H C13H 1_555 1_555
O1U C7U 1_555 1_555
O2U C7U 1_555 1_555
O3U C8U 1_555 1_555
O4U C8U 1_555 1_555
O5U C9U 1_555 1_555
N1U H1U 1_555 1_555
C1U C2U 1_555 1_555
C2U H2U 1_555 1_555
C3U C2U 1_555 1_555
C4U C3U 1_555 1_555
H3U C4U 1_555 1_555
C5U N1U 1_555 1_555
C6U C1U 1_555 1_555
H4U C6U 1_555 1_555
C7U C1U 1_555 1_555
C8U C3U 1_555 1_555
C9U N1U 1_555 1_555
C11U C10H 1_555 1_555
C12U C13H 1_555 1_555
H6U C12U 1_555 1_555
Zn3L O3L 1_555 1_555
Zn4L O4L 1_555 1_555
O8L Zn3L 1_555 1_555
O9L Zn4L 1_555 1_555
Zn3M O3M 1_555 1_555
Zn4M O4M 1_555 1_555
O8M Zn3M 1_555 1_555
O9M Zn4M 1_555 1_555
Zn1F O1Q 1_555 1_555
Zn1H O1H 1_555 1_555
Zn1J O1U 1_555 1_555
Zn2F O2Q 1_555 1_555
Zn2H O2H 1_555 1_555
Zn2J O2U 1_555 1_555
Zn3B O3B 1_555 1_555
Zn3C O3C 1_555 1_555
Zn3N O3U 1_555 1_555
Zn3N_2 O3N 1_555 1_555
Zn3O O3Q 1_555 1_555
Zn3O_2 O3O 1_555 1_555
Zn4B O4B 1_555 1_555
Zn4C O4C 1_555 1_555
Zn4N O4U 1_555 1_555
Zn4N_2 O4N 1_555 1_555
Zn4O O4Q 1_555 1_555
Zn4O_2 O4O 1_555 1_555
O1E Zn1D 1_555 1_555
O1R Zn1D 1_555 1_555
O1S Zn1D 1_555 1_555
O2E Zn2D 1_555 1_555
O2R Zn2D 1_555 1_555
O2S Zn2D 1_555 1_555
O3F Zn3A 1_555 1_555
O3K Zn3A 1_555 1_555
O3P Zn3L 1_555 1_555
O3R Zn3M 1_555 1_555
O3T Zn3L 1_555 1_555
O3W Zn3M 1_555 1_555
O4F Zn4A 1_555 1_555
O4K Zn4A 1_555 1_555
O4P Zn4L 1_555 1_555
O4R Zn4M 1_555 1_555
O4T Zn4L 1_555 1_555
O4W Zn4M 1_555 1_555
C4 C5 1_555 1_555
C5 C6 1_555 1_555
C10 C11 1_555 1_555
C4M C5M 1_555 1_555
C5M C6M 1_555 1_555
C9M C11M 1_555 1_555
C11M C12M 1_555 1_555
O2A C7A 1_555 1_555
C1A C7A 1_555 1_555
C4A C5A 1_555 1_555
C5A C6A 1_555 1_555
C10A C11A 1_555 1_555
O1L Zn1B 1_555 1_555
O2L Zn2B 1_555 1_555
C4L C5L 1_555 1_555
C5L C6L 1_555 1_555
C9L C11L 1_555 1_555
C11L C12L 1_555 1_555
O2B C7B 1_555 1_555
C1B C7B 1_555 1_555
C4B C5B 1_555 1_555
C5B C6B 1_555 1_555
C10B C11B 1_555 1_555
O2O C7O 1_555 1_555
C1O C7O 1_555 1_555
C4O C5O 1_555 1_555
C5O C6O 1_555 1_555
C9O C11O 1_555 1_555
C11O C12O 1_555 1_555
O2C C7C 1_555 1_555
C1C C7C 1_555 1_555
C4C C5C 1_555 1_555
C5C C6C 1_555 1_555
C10C C11C 1_555 1_555
O2N C7N 1_555 1_555
C1N C7N 1_555 1_555
C4N C5N 1_555 1_555
C5N C6N 1_555 1_555
C9N C11N 1_555 1_555
C11N C12N 1_555 1_555
O4D C8D 1_555 1_555
C3D C8D 1_555 1_555
C4D C5D 1_555 1_555
C5D C6D 1_555 1_555
C10D C11D 1_555 1_555
C4Q C5Q 1_555 1_555
C5Q C6Q 1_555 1_555
C9Q C11Q 1_555 1_555
C11Q C12Q 1_555 1_555
O4H C8H 1_555 1_555
C3H C8H 1_555 1_555
C4H C5H 1_555 1_555
C5H C6H 1_555 1_555
C10H C11H 1_555 1_555
C4U C5U 1_555 1_555
C5U C6U 1_555 1_555
C9U C11U 1_555 1_555
C11U C12U 1_555 1_555

#END
