
#######################################################################
#
#                 Cambridge Crystallographic Data Centre
#                                CCDC 
#
#######################################################################
#
# If this CIF has been generated from an entry in the Cambridge 
# Structural Database, then it will include bibliographic, chemical, 
# crystal, experimental, refinement or atomic coordinate data resulting 
# from the CCDC's data processing and validation procedures.
#
#######################################################################

data_YODWOF
_symmetry_cell_setting           cubic
_symmetry_space_group_name_H-M   'P m -3 m'
_symmetry_Int_Tables_number      221
_space_group_name_Hall           '-P 4 2 3'
loop_
_symmetry_equiv_pos_site_id
_symmetry_equiv_pos_as_xyz
1 x,y,z
2 -x,-y,z
3 -x,y,-z
4 x,-y,-z
5 z,x,y
6 z,-x,-y
7 -z,-x,y
8 -z,x,-y
9 y,z,x
10 -y,z,-x
11 y,-z,-x
12 -y,-z,x
13 y,x,-z
14 -y,-x,-z
15 y,-x,z
16 -y,x,z
17 x,z,-y
18 -x,z,y
19 -x,-z,-y
20 x,-z,y
21 z,y,-x
22 z,-y,x
23 -z,y,x
24 -z,-y,-x
25 -x,-y,-z
26 x,y,-z
27 x,-y,z
28 -x,y,z
29 -z,-x,-y
30 -z,x,y
31 z,x,-y
32 z,-x,y
33 -y,-z,-x
34 y,-z,x
35 -y,z,x
36 y,z,-x
37 -y,-x,z
38 y,x,z
39 -y,x,-z
40 y,-x,-z
41 -x,-z,y
42 x,-z,-y
43 x,z,y
44 -x,z,-y
45 -z,-y,x
46 -z,y,-x
47 z,-y,-x
48 z,y,x
_cell_length_a                   32.366(5)
_cell_length_b                   32.366(5)
_cell_length_c                   32.366(5)
_cell_angle_alpha                90
_cell_angle_beta                 90
_cell_angle_gamma                90
_cell_volume                     33905.3
loop_
_atom_site_label
_atom_site_type_symbol
_atom_site_fract_x
_atom_site_fract_y
_atom_site_fract_z
Zn1 Zn 0.28530(10) 0.28530(10) 0.28530(10)
Zn2 Zn 0.34927(10) 0.34927(10) 0.34927(10)
Zn3 Zn 0.5000 0.1389(2) 0.5000
Zn4 Zn 0.5000 0.2301(2) 0.5000
O1 O 0.3203(6) 0.2529(9) 0.3203(6)
O2 O 0.3626(6) 0.2925(8) 0.3626(6)
O3 O 0.4588(5) 0.1491(7) 0.4588(5)
O4 O 0.4574(5) 0.2199(7) 0.4574(5)
C1 C 0.3667(7) 0.2218(6) 0.3667(7)
C2 C 0.3971(6) 0.2223(6) 0.3971(3)
H1 H 0.4070 0.2474 0.4070
C3 C 0.4126(4) 0.1854(7) 0.4126(4)
C4 C 0.3978(8) 0.1479(6) 0.3978(8)
H2 H 0.4081 0.1232 0.4081
C5 C 0.3674(9) 0.1474(6) 0.3674(10)
C6 C 0.3519(7) 0.1843(8) 0.3519(6)
H3 H 0.3316 0.1840 0.3316
C7 C 0.3478(6) 0.2593(8) 0.3478(6)
C8 C 0.4450(4) 0.1838(8) 0.4450(4)
C9 C 0.3520(9) 0.1087(9) 0.3520(9)
C10 C 0.3408(9) 0.0757(7) 0.3408(9)
C11 C 0.3259(9) 0.0367(5) 0.3259(9)
C12 C 0.3415(11) 0.0000 0.3415(11)
H4 H 0.3618 0.0000 0.3618
C13 C 0.2955(9) 0.0373(5) 0.2955(9)
H5 H 0.2855 0.0623 0.2855
C14 C 0.2802(10) 0.0000 0.2802(10)
H6 H 0.2598 0.0000 0.2598
O5 O 0.2499(3) 0.2499(3) 0.2499(3)
O6 O 0.3849(3) 0.3849(3) 0.3849(3)
O7 O 0.5000 0.0772(6) 0.5000
O8 O 0.5000 0.2918(6) 0.5000
O1U O 0.3203(6) -0.2529(9) 0.3203(6)
O2U O 0.3626(6) -0.2925(8) 0.3626(6)
O3U O 0.4588(5) -0.1491(7) 0.4588(5)
O4U O 0.4574(5) -0.2199(7) 0.4574(5)
C1U C 0.3667(7) -0.2218(6) 0.3667(7)
C2U C 0.3971(3) -0.2223(6) 0.3971(6)
H1U H 0.4070 -0.2474 0.4070
C3U C 0.4126(4) -0.1854(7) 0.4126(4)
C4U C 0.3978(8) -0.1479(6) 0.3978(8)
H2U H 0.4081 -0.1232 0.4081
C5U C 0.3674(10) -0.1474(6) 0.3674(9)
C6U C 0.3519(6) -0.1843(8) 0.3519(7)
H3U H 0.3316 -0.1840 0.3316
C7U C 0.3478(6) -0.2593(8) 0.3478(6)
C8U C 0.4450(4) -0.1838(8) 0.4450(4)
C9U C 0.3520(9) -0.1087(9) 0.3520(9)
C10U C 0.3408(9) -0.0757(7) 0.3408(9)
C11U C 0.3259(9) -0.0367(5) 0.3259(9)
C13U C 0.2955(9) -0.0373(5) 0.2955(9)
H5U H 0.2855 -0.0623 0.2855
Zn3A Zn 0.5000 -0.1389(2) 0.5000
Zn4A Zn 0.5000 -0.2301(2) 0.5000
O1A O 0.6797(6) -0.2529(9) 0.3203(6)
O2A O 0.6374(6) -0.2925(8) 0.3626(6)
O3A O 0.5412(5) -0.1491(7) 0.4588(5)
O4A O 0.5426(5) -0.2199(7) 0.4574(5)
C1A C 0.6333(7) -0.2218(6) 0.3667(7)
C2A C 0.6029(6) -0.2223(6) 0.3971(3)
H1A H 0.5930 -0.2474 0.4070
C3A C 0.5874(4) -0.1854(7) 0.4126(4)
C4A C 0.6022(8) -0.1479(6) 0.3978(8)
H2A H 0.5919 -0.1232 0.4081
C5A C 0.6326(9) -0.1474(6) 0.3674(10)
C6A C 0.6481(7) -0.1843(8) 0.3519(6)
H3A H 0.6684 -0.1840 0.3316
C7A C 0.6522(6) -0.2593(8) 0.3478(6)
C8A C 0.5550(4) -0.1838(8) 0.4450(4)
C9A C 0.6480(9) -0.1087(9) 0.3520(9)
C10A C 0.6592(9) -0.0757(7) 0.3408(9)
C11A C 0.6741(9) -0.0367(5) 0.3259(9)
C12A C 0.6585(11) 0.0000 0.3415(11)
H4A H 0.6382 0.0000 0.3618
C13A C 0.7045(9) -0.0373(5) 0.2955(9)
H5A H 0.7145 -0.0623 0.2855
C14A C 0.7198(10) 0.0000 0.2802(10)
H6A H 0.7402 0.0000 0.2598
O7A O 0.5000 -0.0772(6) 0.5000
O8A O 0.5000 -0.2918(6) 0.5000
O1V O 0.6797(6) 0.2529(9) 0.3203(6)
O2V O 0.6374(6) 0.2925(8) 0.3626(6)
O3V O 0.5412(5) 0.1491(7) 0.4588(5)
O4V O 0.5426(5) 0.2199(7) 0.4574(5)
C1V C 0.6333(7) 0.2218(6) 0.3667(7)
C2V C 0.6029(3) 0.2223(6) 0.3971(6)
H1V H 0.5930 0.2474 0.4070
C3V C 0.5874(4) 0.1854(7) 0.4126(4)
C4V C 0.6022(8) 0.1479(6) 0.3978(8)
H2V H 0.5919 0.1232 0.4081
C5V C 0.6326(10) 0.1474(6) 0.3674(9)
C6V C 0.6481(6) 0.1843(8) 0.3519(7)
H3V H 0.6684 0.1840 0.3316
C7V C 0.6522(6) 0.2593(8) 0.3478(6)
C8V C 0.5550(4) 0.1838(8) 0.4450(4)
C9V C 0.6480(9) 0.1087(9) 0.3520(9)
C10V C 0.6592(9) 0.0757(7) 0.3408(9)
C11V C 0.6741(9) 0.0367(5) 0.3259(9)
C13V C 0.7045(9) 0.0373(5) 0.2955(9)
H5V H 0.7145 0.0623 0.2855
Zn1B Zn 0.71470(10) 0.28530(10) 0.71470(10)
Zn2B Zn 0.65073(10) 0.34927(10) 0.65073(10)
O1B O 0.6797(6) 0.2529(9) 0.6797(6)
O2B O 0.6374(6) 0.2925(8) 0.6374(6)
O3B O 0.5412(5) 0.1491(7) 0.5412(5)
O4B O 0.5426(5) 0.2199(7) 0.5426(5)
C1B C 0.6333(7) 0.2218(6) 0.6333(7)
C2B C 0.6029(6) 0.2223(6) 0.6029(3)
H1B H 0.5930 0.2474 0.5930
C3B C 0.5874(4) 0.1854(7) 0.5874(4)
C4B C 0.6022(8) 0.1479(6) 0.6022(8)
H2B H 0.5919 0.1232 0.5919
C5B C 0.6326(9) 0.1474(6) 0.6326(10)
C6B C 0.6481(7) 0.1843(8) 0.6481(6)
H3B H 0.6684 0.1840 0.6684
C7B C 0.6522(6) 0.2593(8) 0.6522(6)
C8B C 0.5550(4) 0.1838(8) 0.5550(4)
C9B C 0.6480(9) 0.1087(9) 0.6480(9)
C10B C 0.6592(9) 0.0757(7) 0.6592(9)
C11B C 0.6741(9) 0.0367(5) 0.6741(9)
C12B C 0.6585(11) 0.0000 0.6585(11)
H4B H 0.6382 0.0000 0.6382
C13B C 0.7045(9) 0.0373(5) 0.7045(9)
H5B H 0.7145 0.0623 0.7145
C14B C 0.7198(10) 0.0000 0.7198(10)
H6B H 0.7402 0.0000 0.7402
O5B O 0.7501(3) 0.2499(3) 0.7501(3)
O6B O 0.6151(3) 0.3849(3) 0.6151(3)
O1W O 0.6797(6) -0.2529(9) 0.6797(6)
O2W O 0.6374(6) -0.2925(8) 0.6374(6)
O3W O 0.5412(5) -0.1491(7) 0.5412(5)
O4W O 0.5426(5) -0.2199(7) 0.5426(5)
C1W C 0.6333(7) -0.2218(6) 0.6333(7)
C2W C 0.6029(3) -0.2223(6) 0.6029(6)
H1W H 0.5930 -0.2474 0.5930
C3W C 0.5874(4) -0.1854(7) 0.5874(4)
C4W C 0.6022(8) -0.1479(6) 0.6022(8)
H2W H 0.5919 -0.1232 0.5919
C5W C 0.6326(10) -0.1474(6) 0.6326(9)
C6W C 0.6481(6) -0.1843(8) 0.6481(7)
H3W H 0.6684 -0.1840 0.6684
C7W C 0.6522(6) -0.2593(8) 0.6522(6)
C8W C 0.5550(4) -0.1838(8) 0.5550(4)
C9W C 0.6480(9) -0.1087(9) 0.6480(9)
C10W C 0.6592(9) -0.0757(7) 0.6592(9)
C11W C 0.6741(9) -0.0367(5) 0.6741(9)
C13W C 0.7045(9) -0.0373(5) 0.7045(9)
H5W H 0.7145 -0.0623 0.7145
O1C O 0.3203(6) -0.2529(9) 0.6797(6)
O2C O 0.3626(6) -0.2925(8) 0.6374(6)
O3C O 0.4588(5) -0.1491(7) 0.5412(5)
O4C O 0.4574(5) -0.2199(7) 0.5426(5)
C1C C 0.3667(7) -0.2218(6) 0.6333(7)
C2C C 0.3971(6) -0.2223(6) 0.6029(3)
H1C H 0.4070 -0.2474 0.5930
C3C C 0.4126(4) -0.1854(7) 0.5874(4)
C4C C 0.3978(8) -0.1479(6) 0.6022(8)
H2C H 0.4081 -0.1232 0.5919
C5C C 0.3674(9) -0.1474(6) 0.6326(10)
C6C C 0.3519(7) -0.1843(8) 0.6481(6)
H3C H 0.3316 -0.1840 0.6684
C7C C 0.3478(6) -0.2593(8) 0.6522(6)
C8C C 0.4450(4) -0.1838(8) 0.5550(4)
C9C C 0.3520(9) -0.1087(9) 0.6480(9)
C10C C 0.3408(9) -0.0757(7) 0.6592(9)
C11C C 0.3259(9) -0.0367(5) 0.6741(9)
C12C C 0.3415(11) 0.0000 0.6585(11)
H4C H 0.3618 0.0000 0.6382
C13C C 0.2955(9) -0.0373(5) 0.7045(9)
H5C H 0.2855 -0.0623 0.7145
C14C C 0.2802(10) 0.0000 0.7198(10)
H6C H 0.2598 0.0000 0.7402
O1T O 0.3203(6) 0.2529(9) 0.6797(6)
O2T O 0.3626(6) 0.2925(8) 0.6374(6)
O3T O 0.4588(5) 0.1491(7) 0.5412(5)
O4T O 0.4574(5) 0.2199(7) 0.5426(5)
C1T C 0.3667(7) 0.2218(6) 0.6333(7)
C2T C 0.3971(3) 0.2223(6) 0.6029(6)
H1T H 0.4070 0.2474 0.5930
C3T C 0.4126(4) 0.1854(7) 0.5874(4)
C4T C 0.3978(8) 0.1479(6) 0.6022(8)
H2T H 0.4081 0.1232 0.5919
C5T C 0.3674(10) 0.1474(6) 0.6326(9)
C6T C 0.3519(6) 0.1843(8) 0.6481(7)
H3T H 0.3316 0.1840 0.6684
C7T C 0.3478(6) 0.2593(8) 0.6522(6)
C8T C 0.4450(4) 0.1838(8) 0.5550(4)
C9T C 0.3520(9) 0.1087(9) 0.6480(9)
C10T C 0.3408(9) 0.0757(7) 0.6592(9)
C11T C 0.3259(9) 0.0367(5) 0.6741(9)
C13T C 0.2955(9) 0.0373(5) 0.7045(9)
H5T H 0.2855 0.0623 0.7145
Zn3D Zn 0.5000 0.5000 0.1389(2)
Zn4D Zn 0.5000 0.5000 0.2301(2)
O1D O 0.3203(6) 0.3203(6) 0.2529(9)
O2D O 0.3626(6) 0.3626(6) 0.2925(8)
O3D O 0.4588(5) 0.4588(5) 0.1491(7)
O4D O 0.4574(5) 0.4574(5) 0.2199(7)
C1D C 0.3667(7) 0.3667(7) 0.2218(6)
C2D C 0.3971(3) 0.3971(6) 0.2223(6)
H1D H 0.4070 0.4070 0.2474
C3D C 0.4126(4) 0.4126(4) 0.1854(7)
C4D C 0.3978(8) 0.3978(8) 0.1479(6)
H2D H 0.4081 0.4081 0.1232
C5D C 0.3674(10) 0.3674(9) 0.1474(6)
C6D C 0.3519(6) 0.3519(7) 0.1843(8)
H3D H 0.3316 0.3316 0.1840
C7D C 0.3478(6) 0.3478(6) 0.2593(8)
C8D C 0.4450(4) 0.4450(4) 0.1838(8)
C9D C 0.3520(9) 0.3520(9) 0.1087(9)
C10D C 0.3408(9) 0.3408(9) 0.0757(7)
C11D C 0.3259(9) 0.3259(9) 0.0367(5)
C12D C 0.3415(11) 0.3415(11) 0.0000
H4D H 0.3618 0.3618 0.0000
C13D C 0.2955(9) 0.2955(9) 0.0373(5)
H5D H 0.2855 0.2855 0.0623
C14D C 0.2802(10) 0.2802(10) 0.0000
H6D H 0.2598 0.2598 0.0000
O7D O 0.5000 0.5000 0.0772(6)
O8D O 0.5000 0.5000 0.2918(6)
O1P O 0.3203(6) 0.3203(6) -0.2529(9)
O2P O 0.3626(6) 0.3626(6) -0.2925(8)
O3P O 0.4588(5) 0.4588(5) -0.1491(7)
O4P O 0.4574(5) 0.4574(5) -0.2199(7)
C1P C 0.3667(7) 0.3667(7) -0.2218(6)
C2P C 0.3971(6) 0.3971(3) -0.2223(6)
H1P H 0.4070 0.4070 -0.2474
C3P C 0.4126(4) 0.4126(4) -0.1854(7)
C4P C 0.3978(8) 0.3978(8) -0.1479(6)
H2P H 0.4081 0.4081 -0.1232
C5P C 0.3674(9) 0.3674(10) -0.1474(6)
C6P C 0.3519(7) 0.3519(6) -0.1843(8)
H3P H 0.3316 0.3316 -0.1840
C7P C 0.3478(6) 0.3478(6) -0.2593(8)
C8P C 0.4450(4) 0.4450(4) -0.1838(8)
C9P C 0.3520(9) 0.3520(9) -0.1087(9)
C10P C 0.3408(9) 0.3408(9) -0.0757(7)
C11P C 0.3259(9) 0.3259(9) -0.0367(5)
C13P C 0.2955(9) 0.2955(9) -0.0373(5)
H5P H 0.2855 0.2855 -0.0623
O1H O 0.2529(9) 0.3203(6) 0.3203(6)
O2H O 0.2925(8) 0.3626(6) 0.3626(6)
O3H O 0.1491(7) 0.4588(5) 0.4588(5)
O4H O 0.2199(7) 0.4574(5) 0.4574(5)
C1H C 0.2218(6) 0.3667(7) 0.3667(7)
C2H C 0.2223(6) 0.3971(3) 0.3971(6)
H1H H 0.2474 0.4070 0.4070
C3H C 0.1854(7) 0.4126(4) 0.4126(4)
C4H C 0.1479(6) 0.3978(8) 0.3978(8)
H2H H 0.1232 0.4081 0.4081
C5H C 0.1474(6) 0.3674(10) 0.3674(9)
C6H C 0.1843(8) 0.3519(6) 0.3519(7)
H3H H 0.1840 0.3316 0.3316
C7H C 0.2593(8) 0.3478(6) 0.3478(6)
C8H C 0.1838(8) 0.4450(4) 0.4450(4)
C9H C 0.1087(9) 0.3520(9) 0.3520(9)
C10H C 0.0757(7) 0.3408(9) 0.3408(9)
C11H C 0.0367(5) 0.3259(9) 0.3259(9)
C12H C 0.0000 0.3415(11) 0.3415(11)
H4H H 0.0000 0.3618 0.3618
C13H C 0.0373(5) 0.2955(9) 0.2955(9)
H5H H 0.0623 0.2855 0.2855
C14H C 0.0000 0.2802(10) 0.2802(10)
H6H H 0.0000 0.2598 0.2598
O1O O -0.2529(9) 0.3203(6) 0.3203(6)
O2O O -0.2925(8) 0.3626(6) 0.3626(6)
O3O O -0.1491(7) 0.4588(5) 0.4588(5)
O4O O -0.2199(7) 0.4574(5) 0.4574(5)
C1O C -0.2218(6) 0.3667(7) 0.3667(7)
C2O C -0.2223(6) 0.3971(6) 0.3971(3)
H1O H -0.2474 0.4070 0.4070
C3O C -0.1854(7) 0.4126(4) 0.4126(4)
C4O C -0.1479(6) 0.3978(8) 0.3978(8)
H2O H -0.1232 0.4081 0.4081
C5O C -0.1474(6) 0.3674(9) 0.3674(10)
C6O C -0.1843(8) 0.3519(7) 0.3519(6)
H3O H -0.1840 0.3316 0.3316
C7O C -0.2593(8) 0.3478(6) 0.3478(6)
C8O C -0.1838(8) 0.4450(4) 0.4450(4)
C9O C -0.1087(9) 0.3520(9) 0.3520(9)
C10O C -0.0757(7) 0.3408(9) 0.3408(9)
C11O C -0.0367(5) 0.3259(9) 0.3259(9)
C13O C -0.0373(5) 0.2955(9) 0.2955(9)
H5O H -0.0623 0.2855 0.2855
Zn1L Zn 0.28530(10) 0.28530(10) 0.71470(10)
Zn2L Zn 0.34927(10) 0.34927(10) 0.65073(10)
O5L O 0.2499(3) 0.2499(3) 0.7501(3)
O6L O 0.3849(3) 0.3849(3) 0.6151(3)
Zn1N Zn 0.28530(10) -0.28530(10) 0.28530(10)
Zn2N Zn 0.34927(10) -0.34927(10) 0.34927(10)
O5N O 0.2499(3) -0.2499(3) 0.2499(3)
O6N O 0.3849(3) -0.3849(3) 0.3849(3)
Zn1A Zn 0.71470(10) -0.28530(10) 0.28530(10)
Zn1C Zn 0.28530(10) -0.28530(10) 0.71470(10)
Zn1L_2 Zn 0.28530(10) 0.28530(10) -0.28530(10)
Zn1M Zn 0.71470(10) -0.28530(10) 0.71470(10)
Zn1O Zn -0.28530(10) 0.28530(10) 0.28530(10)
Zn1O_2 Zn 0.71470(10) 0.28530(10) 0.28530(10)
Zn2A Zn 0.65073(10) -0.34927(10) 0.34927(10)
Zn2C Zn 0.34927(10) -0.34927(10) 0.65073(10)
Zn2L_2 Zn 0.34927(10) 0.34927(10) -0.34927(10)
Zn2M Zn 0.65073(10) -0.34927(10) 0.65073(10)
Zn2O Zn -0.34927(10) 0.34927(10) 0.34927(10)
Zn2O_2 Zn 0.65073(10) 0.34927(10) 0.34927(10)
Zn3E Zn 0.5000 0.5000 -0.1389(2)
Zn3H Zn 0.1389(2) 0.5000 0.5000
Zn3I Zn -0.1389(2) 0.5000 0.5000
Zn4E Zn 0.5000 0.5000 -0.2301(2)
Zn4H Zn 0.2301(2) 0.5000 0.5000
Zn4I Zn -0.2301(2) 0.5000 0.5000
O1G O 0.6797(6) 0.3203(6) 0.7471(9)
O1I O 0.7471(9) 0.3203(6) 0.6797(6)
O1L O 0.2529(9) 0.3203(6) 0.6797(6)
O1N O 0.2529(9) -0.3203(6) 0.3203(6)
O1P_2 O 0.3203(6) 0.3203(6) 0.7471(9)
O1S O 0.3203(6) -0.3203(6) 0.2529(9)
O2G O 0.6374(6) 0.3626(6) 0.7075(8)
O2I O 0.7075(8) 0.3626(6) 0.6374(6)
O2L O 0.2925(8) 0.3626(6) 0.6374(6)
O2N O 0.2925(8) -0.3626(6) 0.3626(6)
O2P_2 O 0.3626(6) 0.3626(6) 0.7075(8)
O2S O 0.3626(6) -0.3626(6) 0.2925(8)
O3F O 0.5412(5) 0.5412(5) 0.1491(7)
O3Q O 0.5412(5) 0.4588(5) 0.1491(7)
O3S O 0.4588(5) 0.5412(5) 0.1491(7)
O4F O 0.5426(5) 0.5426(5) 0.2199(7)
O4Q O 0.5426(5) 0.4574(5) 0.2199(7)
O4S O 0.4574(5) 0.5426(5) 0.2199(7)
loop_
_geom_bond_atom_site_label_1
_geom_bond_atom_site_label_2
_geom_bond_site_symmetry_1
_geom_bond_site_symmetry_2
Zn1 O1 1_555 1_555
Zn2 O2 1_555 1_555
Zn3 O3 1_555 1_555
Zn4 O4 1_555 1_555
O1 C7 1_555 1_555
O2 C7 1_555 1_555
O3 C8 1_555 1_555
O4 C8 1_555 1_555
C1 C2 1_555 1_555
C2 H1 1_555 1_555
C3 C2 1_555 1_555
C4 C3 1_555 1_555
H2 C4 1_555 1_555
C5 C4 1_555 1_555
C6 C1 1_555 1_555
H3 C6 1_555 1_555
C7 C1 1_555 1_555
C8 C3 1_555 1_555
C9 C5 1_555 1_555
C10 C9 1_555 1_555
C11 C10 1_555 1_555
C12 C11 1_555 1_555
H4 C12 1_555 1_555
C13 C11 1_555 1_555
H5 C13 1_555 1_555
C14 C13 1_555 1_555
H6 C14 1_555 1_555
O5 Zn1 1_555 1_555
O6 Zn2 1_555 1_555
O7 Zn3 1_555 1_555
O8 Zn4 1_555 1_555
O1U C7U 1_555 1_555
O2U C7U 1_555 1_555
O3U C8U 1_555 1_555
O4U C8U 1_555 1_555
C1U C2U 1_555 1_555
C2U H1U 1_555 1_555
C3U C2U 1_555 1_555
C4U C3U 1_555 1_555
H2U C4U 1_555 1_555
C5U C4U 1_555 1_555
C6U C1U 1_555 1_555
H3U C6U 1_555 1_555
C7U C1U 1_555 1_555
C8U C3U 1_555 1_555
C9U C5U 1_555 1_555
C10U C9U 1_555 1_555
C11U C12 1_555 1_555
C13U C14 1_555 1_555
H5U C13U 1_555 1_555
Zn3A O3U 1_555 1_555
Zn4A O4U 1_555 1_555
O1A C7A 1_555 1_555
O2A C7A 1_555 1_555
O3A Zn3A 1_555 1_555
O4A Zn4A 1_555 1_555
C1A C2A 1_555 1_555
C2A H1A 1_555 1_555
C3A C2A 1_555 1_555
C4A C3A 1_555 1_555
H2A C4A 1_555 1_555
C5A C4A 1_555 1_555
C6A C1A 1_555 1_555
H3A C6A 1_555 1_555
C7A C1A 1_555 1_555
C8A O3A 1_555 1_555
C9A C5A 1_555 1_555
C10A C9A 1_555 1_555
C11A C10A 1_555 1_555
C12A C11A 1_555 1_555
H4A C12A 1_555 1_555
C13A C11A 1_555 1_555
H5A C13A 1_555 1_555
C14A C13A 1_555 1_555
H6A C14A 1_555 1_555
O7A Zn3A 1_555 1_555
O8A Zn4A 1_555 1_555
O1V C7V 1_555 1_555
O2V C7V 1_555 1_555
O3V Zn3 1_555 1_555
O4V Zn4 1_555 1_555
C1V C2V 1_555 1_555
C2V H1V 1_555 1_555
C3V C2V 1_555 1_555
C4V C3V 1_555 1_555
H2V C4V 1_555 1_555
C5V C4V 1_555 1_555
C6V C1V 1_555 1_555
H3V C6V 1_555 1_555
C7V C1V 1_555 1_555
C8V O3V 1_555 1_555
C9V C5V 1_555 1_555
C10V C9V 1_555 1_555
C11V C12A 1_555 1_555
C13V C14A 1_555 1_555
H5V C13V 1_555 1_555
Zn1B O1B 1_555 1_555
Zn2B O2B 1_555 1_555
O1B C7B 1_555 1_555
O2B C7B 1_555 1_555
O3B Zn3 1_555 1_555
O4B Zn4 1_555 1_555
C1B C2B 1_555 1_555
C2B H1B 1_555 1_555
C3B C2B 1_555 1_555
C4B C3B 1_555 1_555
H2B C4B 1_555 1_555
C5B C4B 1_555 1_555
C6B C1B 1_555 1_555
H3B C6B 1_555 1_555
C7B C1B 1_555 1_555
C8B O3B 1_555 1_555
C9B C5B 1_555 1_555
C10B C9B 1_555 1_555
C11B C10B 1_555 1_555
C12B C11B 1_555 1_555
H4B C12B 1_555 1_555
C13B C11B 1_555 1_555
H5B C13B 1_555 1_555
C14B C13B 1_555 1_555
H6B C14B 1_555 1_555
O5B Zn1B 1_555 1_555
O6B Zn2B 1_555 1_555
O1W C7W 1_555 1_555
O2W C7W 1_555 1_555
O3W Zn3A 1_555 1_555
O4W Zn4A 1_555 1_555
C1W C2W 1_555 1_555
C2W H1W 1_555 1_555
C3W C2W 1_555 1_555
C4W C3W 1_555 1_555
H2W C4W 1_555 1_555
C5W C4W 1_555 1_555
C6W C1W 1_555 1_555
H3W C6W 1_555 1_555
C7W C1W 1_555 1_555
C8W O3W 1_555 1_555
C9W C5W 1_555 1_555
C10W C9W 1_555 1_555
C11W C12B 1_555 1_555
C13W C14B 1_555 1_555
H5W C13W 1_555 1_555
O1C C7C 1_555 1_555
O2C C7C 1_555 1_555
O3C Zn3A 1_555 1_555
O4C Zn4A 1_555 1_555
C1C C2C 1_555 1_555
C2C H1C 1_555 1_555
C3C C2C 1_555 1_555
C4C C3C 1_555 1_555
H2C C4C 1_555 1_555
C5C C4C 1_555 1_555
C6C C1C 1_555 1_555
H3C C6C 1_555 1_555
C7C C1C 1_555 1_555
C8C O3C 1_555 1_555
C9C C5C 1_555 1_555
C10C C9C 1_555 1_555
C11C C10C 1_555 1_555
C12C C11C 1_555 1_555
H4C C12C 1_555 1_555
C13C C11C 1_555 1_555
H5C C13C 1_555 1_555
C14C C13C 1_555 1_555
H6C C14C 1_555 1_555
O1T C7T 1_555 1_555
O2T C7T 1_555 1_555
O3T Zn3 1_555 1_555
O4T Zn4 1_555 1_555
C1T C2T 1_555 1_555
C2T H1T 1_555 1_555
C3T C2T 1_555 1_555
C4T C3T 1_555 1_555
H2T C4T 1_555 1_555
C5T C4T 1_555 1_555
C6T C1T 1_555 1_555
H3T C6T 1_555 1_555
C7T C1T 1_555 1_555
C8T O3T 1_555 1_555
C9T C5T 1_555 1_555
C10T C9T 1_555 1_555
C11T C12C 1_555 1_555
C13T C14C 1_555 1_555
H5T C13T 1_555 1_555
Zn3D O3D 1_555 1_555
Zn4D O4D 1_555 1_555
O1D Zn1 1_555 1_555
O2D Zn2 1_555 1_555
O3D C8D 1_555 1_555
O4D C8D 1_555 1_555
C1D C2D 1_555 1_555
C2D H1D 1_555 1_555
C3D C2D 1_555 1_555
C4D C3D 1_555 1_555
H2D C4D 1_555 1_555
C5D C4D 1_555 1_555
C6D C1D 1_555 1_555
H3D C6D 1_555 1_555
C7D O1D 1_555 1_555
C8D C3D 1_555 1_555
C9D C5D 1_555 1_555
C10D C9D 1_555 1_555
C11D C10D 1_555 1_555
C12D C11D 1_555 1_555
H4D C12D 1_555 1_555
C13D C11D 1_555 1_555
H5D C13D 1_555 1_555
C14D C13D 1_555 1_555
H6D C14D 1_555 1_555
O7D Zn3D 1_555 1_555
O8D Zn4D 1_555 1_555
O1P C7P 1_555 1_555
O2P C7P 1_555 1_555
O3P C8P 1_555 1_555
O4P C8P 1_555 1_555
C1P C2P 1_555 1_555
C2P H1P 1_555 1_555
C3P C2P 1_555 1_555
C4P C3P 1_555 1_555
H2P C4P 1_555 1_555
C5P C4P 1_555 1_555
C6P C1P 1_555 1_555
H3P C6P 1_555 1_555
C7P C1P 1_555 1_555
C8P C3P 1_555 1_555
C9P C5P 1_555 1_555
C10P C9P 1_555 1_555
C11P C12D 1_555 1_555
C13P C14D 1_555 1_555
H5P C13P 1_555 1_555
O1H Zn1 1_555 1_555
O2H Zn2 1_555 1_555
O3H C8H 1_555 1_555
O4H C8H 1_555 1_555
C1H C2H 1_555 1_555
C2H H1H 1_555 1_555
C3H C2H 1_555 1_555
C4H C3H 1_555 1_555
H2H C4H 1_555 1_555
C5H C4H 1_555 1_555
C6H C1H 1_555 1_555
H3H C6H 1_555 1_555
C7H O1H 1_555 1_555
C8H C3H 1_555 1_555
C9H C5H 1_555 1_555
C10H C9H 1_555 1_555
C11H C10H 1_555 1_555
C12H C11H 1_555 1_555
H4H C12H 1_555 1_555
C13H C11H 1_555 1_555
H5H C13H 1_555 1_555
C14H C13H 1_555 1_555
H6H C14H 1_555 1_555
O1O C7O 1_555 1_555
O2O C7O 1_555 1_555
O3O C8O 1_555 1_555
O4O C8O 1_555 1_555
C1O C2O 1_555 1_555
C2O H1O 1_555 1_555
C3O C2O 1_555 1_555
C4O C3O 1_555 1_555
H2O C4O 1_555 1_555
C5O C4O 1_555 1_555
C6O C1O 1_555 1_555
H3O C6O 1_555 1_555
C7O C1O 1_555 1_555
C8O C3O 1_555 1_555
C9O C5O 1_555 1_555
C10O C9O 1_555 1_555
C11O C12H 1_555 1_555
C13O C14H 1_555 1_555
H5O C13O 1_555 1_555
Zn1L O1T 1_555 1_555
Zn2L O2T 1_555 1_555
O5L Zn1L 1_555 1_555
O6L Zn2L 1_555 1_555
Zn1N O1U 1_555 1_555
Zn2N O2U 1_555 1_555
O5N Zn1N 1_555 1_555
O6N Zn2N 1_555 1_555
Zn1A O1A 1_555 1_555
Zn1C O1C 1_555 1_555
Zn1L_2 O1P 1_555 1_555
Zn1M O1W 1_555 1_555
Zn1O O1O 1_555 1_555
Zn1O_2 O1V 1_555 1_555
Zn2A O2A 1_555 1_555
Zn2C O2C 1_555 1_555
Zn2L_2 O2P 1_555 1_555
Zn2M O2W 1_555 1_555
Zn2O O2O 1_555 1_555
Zn2O_2 O2V 1_555 1_555
Zn3E O3P 1_555 1_555
Zn3H O3H 1_555 1_555
Zn3I O3O 1_555 1_555
Zn4E O4P 1_555 1_555
Zn4H O4H 1_555 1_555
Zn4I O4O 1_555 1_555
O1G Zn1B 1_555 1_555
O1I Zn1B 1_555 1_555
O1L Zn1L 1_555 1_555
O1N Zn1N 1_555 1_555
O1P_2 Zn1L 1_555 1_555
O1S Zn1N 1_555 1_555
O2G Zn2B 1_555 1_555
O2I Zn2B 1_555 1_555
O2L Zn2L 1_555 1_555
O2N Zn2N 1_555 1_555
O2P_2 Zn2L 1_555 1_555
O2S Zn2N 1_555 1_555
O3F Zn3D 1_555 1_555
O3Q Zn3D 1_555 1_555
O3S Zn3D 1_555 1_555
O4F Zn4D 1_555 1_555
O4Q Zn4D 1_555 1_555
O4S Zn4D 1_555 1_555
C5 C6 1_555 1_555
C5U C6U 1_555 1_555
C10U C11U 1_555 1_555
C11U C13U 1_555 1_555
O4A C8A 1_555 1_555
C3A C8A 1_555 1_555
C5A C6A 1_555 1_555
O4V C8V 1_555 1_555
C3V C8V 1_555 1_555
C5V C6V 1_555 1_555
C10V C11V 1_555 1_555
C11V C13V 1_555 1_555
O4B C8B 1_555 1_555
C3B C8B 1_555 1_555
C5B C6B 1_555 1_555
O4W C8W 1_555 1_555
C3W C8W 1_555 1_555
C5W C6W 1_555 1_555
C10W C11W 1_555 1_555
C11W C13W 1_555 1_555
O4C C8C 1_555 1_555
C3C C8C 1_555 1_555
C5C C6C 1_555 1_555
O4T C8T 1_555 1_555
C3T C8T 1_555 1_555
C5T C6T 1_555 1_555
C10T C11T 1_555 1_555
C11T C13T 1_555 1_555
O2D C7D 1_555 1_555
C1D C7D 1_555 1_555
C5D C6D 1_555 1_555
C5P C6P 1_555 1_555
C10P C11P 1_555 1_555
C11P C13P 1_555 1_555
O2H C7H 1_555 1_555
C1H C7H 1_555 1_555
C5H C6H 1_555 1_555
C5O C6O 1_555 1_555
C10O C11O 1_555 1_555
C11O C13O 1_555 1_555

#END
