
#######################################################################
#
#                 Cambridge Crystallographic Data Centre
#                                CCDC 
#
#######################################################################
#
# If this CIF has been generated from an entry in the Cambridge 
# Structural Database, then it will include bibliographic, chemical, 
# crystal, experimental, refinement or atomic coordinate data resulting 
# from the CCDC's data processing and validation procedures.
#
#######################################################################

data_YODWUK
_symmetry_cell_setting           trigonal
_symmetry_space_group_name_H-M   'P 3 c 1'
_symmetry_Int_Tables_number      158
_space_group_name_Hall           'P 3 -2"c'
loop_
_symmetry_equiv_pos_site_id
_symmetry_equiv_pos_as_xyz
1 x,y,z
2 -y,x-y,z
3 -x+y,-x,z
4 -y,-x,1/2+z
5 -x+y,y,1/2+z
6 x,x-y,1/2+z
_cell_length_a                   16.7348(4)
_cell_length_b                   16.7348(4)
_cell_length_c                   12.6333(3)
_cell_angle_alpha                90
_cell_angle_beta                 90
_cell_angle_gamma                120
_cell_volume                     3064
loop_
_atom_site_label
_atom_site_type_symbol
_atom_site_fract_x
_atom_site_fract_y
_atom_site_fract_z
Mg2 Mg 0.66667 0.33333 0.24821(7)
O3 O 0.55362(8) 0.30123(9) 0.15330(10)
O4 O 0.63533(9) 0.41551(9) 0.34175(10)
H5 H 0.51339 0.32966 0.15419
H6 H 0.53308 0.25428 0.09543
H7 H 0.67260 0.48435 0.34570
H8 H 0.59061 0.39164 0.40199
O3A O 0.69877(9) 0.25239(12) 0.15330(10)
H5A H 0.67034 0.18373 0.15419
H6A H 0.74572 0.27880 0.09543
O3B O 0.74761(12) 0.44638(8) 0.15330(10)
H5B H 0.81627 0.48661 0.15419
H6B H 0.72120 0.46692 0.09543
O4A O 0.58449(9) 0.21982(13) 0.34175(10)
H7A H 0.51565 0.18825 0.34570
H8A H 0.60836 0.19897 0.40199
O4B O 0.78018(13) 0.36467(9) 0.34175(10)
H7B H 0.81175 0.32740 0.34570
H8B H 0.80103 0.40939 0.40199
Mg3 Mg 0.33333 0.66667 0.24194(6)
O5 O 0.36473(9) 0.58457(9) 0.14684(10)
O6 O 0.25242(9) 0.55341(9) 0.33585(10)
H9 H 0.33956 0.51638 0.14934
H10 H 0.41277 0.61223 0.09023
H11 H 0.18402 0.52566 0.34183
H12 H 0.27554 0.53230 0.39659
O5A O 0.41543(9) 0.78016(13) 0.14684(10)
H9A H 0.48362 0.82318 0.14934
H10A H 0.38777 0.80054 0.09023
O5B O 0.21984(13) 0.63527(9) 0.14684(10)
H9B H 0.17682 0.66044 0.14934
H10B H 0.19946 0.58723 0.09023
O6A O 0.44659(9) 0.69901(13) 0.33585(10)
H11A H 0.47434 0.65836 0.34183
H12A H 0.46770 0.74324 0.39659
O6B O 0.30099(13) 0.74758(9) 0.33585(10)
H11B H 0.34164 0.81598 0.34183
H12B H 0.25676 0.72446 0.39659
O7 O 0.15869(10) 0.16443(11) 0.00558(14)
H13 H 0.20830 0.18944 0.06060
H14 H 0.17361 0.21215 -0.05035
O8 O 0.50921(10) 0.33837(12) 0.50077(13)
H15 H 0.46170 0.31388 0.44337
H16 H 0.49136 0.36960 0.55568
O9 O 0.32594(12) 0.50212(10) 0.49641(12)
H17 H 0.35005 0.47569 0.44255
H18 H 0.29312 0.45565 0.55353
Al1 Al 0.33767(5) 0.33002(5) 0.25312(8)
Na1 Na 0.66322(6) 0.67076(6) 0.25217(12)
O10 O 0.44684(9) 0.39226(9) 0.17044(11)
O11 O 0.39638(9) 0.43609(9) 0.34125(11)
O12 O 0.57429(9) 0.53137(9) 0.15651(11)
O13 O 0.51896(9) 0.57941(9) 0.34126(11)
O14 O 0.28006(9) 0.38168(9) 0.16868(11)
O15 O 0.22797(9) 0.28056(9) 0.33577(12)
O16 O 0.14629(9) 0.38101(11) 0.15674(11)
O17 O 0.09747(9) 0.28672(11) 0.34676(12)
O18 O 0.29079(9) 0.22349(9) 0.16566(11)
O19 O 0.38346(10) 0.26733(9) 0.33708(11)
O20 O 0.27479(10) 0.08209(9) 0.16306(12)
O21 O 0.39099(9) 0.13768(9) 0.34009(12)
C1 C 0.50272(12) 0.47511(12) 0.20031(11)
C2 C 0.47223(12) 0.50215(12) 0.30372(11)
C3 C 0.19873(10) 0.36065(10) 0.20034(13)
C4 C 0.16962(10) 0.30418(10) 0.30411(13)
C5 C 0.30447(10) 0.15880(11) 0.20110(12)
C6 C 0.36516(9) 0.18762(11) 0.30188(12)
Na1B Na 0.00754(8) 0.33678(6) 0.25217(12)
Na1A Na 0.32924(6) -0.00754(8) 0.25217(12)
O14A O 0.61832(9) 0.89838(13) 0.16868(11)
O15A O 0.71944(9) 0.94741(13) 0.33577(12)
O16A O 0.61899(11) 0.76528(14) 0.15674(11)
O17A O 0.71328(11) 0.81075(14) 0.34676(12)
C3A C 0.63935(10) 0.83808(14) 0.20034(13)
C4A C 0.69582(10) 0.86544(14) 0.30411(13)
O18B O 0.93270(13) 0.70921(9) 0.16566(11)
O19B O 0.88387(13) 0.61654(10) 0.33708(11)
O20B O 0.80730(13) 0.72521(10) 0.16306(12)
O21B O 0.74669(13) 0.60901(9) 0.34009(12)
C5B C 0.85433(15) 0.69553(10) 0.20110(12)
C6B C 0.82246(14) 0.63484(9) 0.30188(12)
O10B O -0.05458(13) 0.55316(9) 0.17044(11)
O11B O 0.03971(13) 0.60362(9) 0.34125(11)
O12B O -0.04292(13) 0.42571(9) 0.15651(11)
O13B O 0.06045(13) 0.48104(9) 0.34126(11)
C1B C -0.02761(17) 0.49728(12) 0.20031(11)
C2B C 0.02992(17) 0.52777(12) 0.30372(11)
O18A O -0.22349(9) 0.06730(13) 0.16566(11)
O19A O -0.26733(9) 0.11613(13) 0.33708(11)
O20A O -0.08209(9) 0.19270(13) 0.16306(12)
O21A O -0.13768(9) 0.25331(13) 0.34009(12)
C5A C -0.15880(11) 0.14567(15) 0.20110(12)
C6A C -0.18762(11) 0.17754(14) 0.30188(12)
O10A O 0.60774(9) 0.05458(13) 0.17044(11)
O11A O 0.56391(9) -0.03971(13) 0.34125(11)
O12A O 0.46863(9) 0.04292(13) 0.15651(11)
O13A O 0.42059(9) -0.06045(13) 0.34126(11)
C1A C 0.52489(12) 0.02761(17) 0.20031(11)
C2A C 0.49785(12) -0.02992(17) 0.30372(11)
O14B O 0.10162(13) -0.28006(9) 0.16868(11)
O15B O 0.05259(13) -0.22797(9) 0.33577(12)
O16B O 0.23472(14) -0.14629(9) 0.15674(11)
O17B O 0.18925(14) -0.09747(9) 0.34676(12)
C3B C 0.16192(14) -0.19873(10) 0.20034(13)
C4B C 0.13456(14) -0.16962(10) 0.30411(13)
Al1B Al -0.00765(7) 0.66233(5) 0.25312(8)
Al1A Al 0.66998(5) 0.00765(7) 0.25312(8)
Al1A_2 Al 0.66998(5) 1.00765(7) 0.25312(8)
Al1B_2 Al 0.99235(7) 0.66233(5) 0.25312(8)
Al1A_3 Al -0.33002(5) 0.00765(7) 0.25312(8)
Al1B_3 Al -0.00765(7) -0.33767(5) 0.25312(8)
O14B_2 O 0.10162(13) 0.71994(9) 0.16868(11)
O15B_2 O 0.05259(13) 0.77203(9) 0.33577(12)
O18B_2 O -0.06730(13) 0.70921(9) 0.16566(11)
O19B_2 O -0.11613(13) 0.61654(10) 0.33708(11)
O14A_2 O 0.61832(9) -0.10162(13) 0.16868(11)
O15A_2 O 0.71944(9) -0.05259(13) 0.33577(12)
O18A_2 O 0.77651(9) 0.06730(13) 0.16566(11)
O19A_2 O 0.73267(9) 0.11613(13) 0.33708(11)
Mg1 Mg 0.00000 0.00000 0.25985(5)
O1 O 0.03249(9) 0.11333(8) 0.16621(10)
O2 O 0.11334(9) 0.08095(8) 0.35442(10)
H1 H -0.00614 0.14338 0.16124
H2 H 0.07717 0.13432 0.10591
H3 H 0.15550 0.14931 0.35240
H4 H 0.13385 0.05370 0.41136
O1A O -0.11333(8) -0.08084(12) 0.16621(10)
H1A H -0.14338 -0.14952 0.16124
H2A H -0.13432 -0.05715 0.10591
O1B O 0.08084(12) -0.03249(9) 0.16621(10)
H1B H 0.14952 0.00614 0.16124
H2B H 0.05715 -0.07717 0.10591
O2A O -0.08095(8) 0.03239(12) 0.35442(10)
H3A H -0.14931 0.00619 0.35240
H4A H -0.05370 0.08015 0.41136
O2B O -0.03239(12) -0.11334(9) 0.35442(10)
H3B H -0.00619 -0.15550 0.35240
H4B H -0.08015 -0.13385 0.41136
loop_
_geom_bond_atom_site_label_1
_geom_bond_atom_site_label_2
_geom_bond_site_symmetry_1
_geom_bond_site_symmetry_2
Mg1 O1 1_555 1_555
O1 H1 1_555 1_555
O2 Mg1 1_555 1_555
H2 O1 1_555 1_555
H3 O2 1_555 1_555
H4 O2 1_555 1_555
Mg2 O3 1_555 1_555
O3 H5 1_555 1_555
O4 Mg2 1_555 1_555
H6 O3 1_555 1_555
H7 O4 1_555 1_555
H8 O4 1_555 1_555
Mg3 O5 1_555 1_555
O5 H9 1_555 1_555
O6 Mg3 1_555 1_555
H10 O5 1_555 1_555
H11 O6 1_555 1_555
H12 O6 1_555 1_555
O7 H13 1_555 1_555
H14 O7 1_555 1_555
O8 H15 1_555 1_555
H16 O8 1_555 1_555
O9 H17 1_555 1_555
H18 O9 1_555 1_555
Al1 O10 1_555 1_555
Na1 O12 1_555 1_555
O10 C1 1_555 1_555
O11 Al1 1_555 1_555
O12 C1 1_555 1_555
O13 Na1 1_555 1_555
O14 Al1 1_555 1_555
O15 Al1 1_555 1_555
O16 C3 1_555 1_555
O17 C4 1_555 1_555
O18 Al1 1_555 1_555
O19 Al1 1_555 1_555
O20 C5 1_555 1_555
O21 C6 1_555 1_555
C1 C2 1_555 1_555
C2 O11 1_555 1_555
C3 O14 1_555 1_555
C4 O15 1_555 1_555
C5 O18 1_555 1_555
C6 O19 1_555 1_555
O1A Mg1 1_555 1_555
H1A O1A 1_555 1_555
H2A O1A 1_555 1_555
O1B Mg1 1_555 1_555
H1B O1B 1_555 1_555
H2B O1B 1_555 1_555
O2A Mg1 1_555 1_555
H3A O2A 1_555 1_555
H4A O2A 1_555 1_555
O2B Mg1 1_555 1_555
H3B O2B 1_555 1_555
H4B O2B 1_555 1_555
O3A Mg2 1_555 1_555
H5A O3A 1_555 1_555
H6A O3A 1_555 1_555
O3B Mg2 1_555 1_555
H5B O3B 1_555 1_555
H6B O3B 1_555 1_555
O4A Mg2 1_555 1_555
H7A O4A 1_555 1_555
H8A O4A 1_555 1_555
O4B Mg2 1_555 1_555
H7B O4B 1_555 1_555
H8B O4B 1_555 1_555
O5A Mg3 1_555 1_555
H9A O5A 1_555 1_555
H10A O5A 1_555 1_555
O5B Mg3 1_555 1_555
H9B O5B 1_555 1_555
H10B O5B 1_555 1_555
O6A Mg3 1_555 1_555
H11A O6A 1_555 1_555
H12A O6A 1_555 1_555
O6B Mg3 1_555 1_555
H11B O6B 1_555 1_555
H12B O6B 1_555 1_555
Na1B O16 1_555 1_555
Na1A O20 1_555 1_555
O14A C3A 1_555 1_555
O15A C4A 1_555 1_555
O16A Na1 1_555 1_555
O17A Na1 1_555 1_555
C3A O16A 1_555 1_555
C4A O17A 1_555 1_555
O18B C5B 1_555 1_555
O19B C6B 1_555 1_555
O20B Na1 1_555 1_555
O21B Na1 1_555 1_555
C5B O20B 1_555 1_555
C6B O21B 1_555 1_555
O10B C1B 1_555 1_555
O11B C2B 1_555 1_555
O12B Na1B 1_555 1_555
O13B Na1B 1_555 1_555
C1B O12B 1_555 1_555
C2B O13B 1_555 1_555
O18A C5A 1_555 1_555
O19A C6A 1_555 1_555
O20A Na1B 1_555 1_555
O21A Na1B 1_555 1_555
C5A O20A 1_555 1_555
C6A O21A 1_555 1_555
O10A C1A 1_555 1_555
O11A C2A 1_555 1_555
O12A Na1A 1_555 1_555
O13A Na1A 1_555 1_555
C1A O12A 1_555 1_555
C2A O13A 1_555 1_555
O14B C3B 1_555 1_555
O15B C4B 1_555 1_555
O16B Na1A 1_555 1_555
O17B Na1A 1_555 1_555
C3B O16B 1_555 1_555
C4B O17B 1_555 1_555
Al1B O10B 1_555 1_555
Al1A O10A 1_555 1_555
Al1A_2 O14A 1_555 1_555
Al1B_2 O18B 1_555 1_555
Al1A_3 O18A 1_555 1_555
Al1B_3 O14B 1_555 1_555
O14B_2 Al1B 1_555 1_555
O15B_2 Al1B 1_555 1_555
O18B_2 Al1B 1_555 1_555
O19B_2 Al1B 1_555 1_555
O14A_2 Al1A 1_555 1_555
O15A_2 Al1A 1_555 1_555
O18A_2 Al1A 1_555 1_555
O19A_2 Al1A 1_555 1_555
O13 C2 1_555 1_555
O17 Na1B 1_555 1_555
O21 Na1A 1_555 1_555
C3 C4 1_555 1_555
C5 C6 1_555 1_555
O15A Al1A_2 1_555 1_555
C3A C4A 1_555 1_555
O19B Al1B_2 1_555 1_555
C5B C6B 1_555 1_555
O11B Al1B 1_555 1_555
C1B C2B 1_555 1_555
O19A Al1A_3 1_555 1_555
C5A C6A 1_555 1_555
O11A Al1A 1_555 1_555
C1A C2A 1_555 1_555
O15B Al1B_3 1_555 1_555
C3B C4B 1_555 1_555

#END
