
#######################################################################
#
#                 Cambridge Crystallographic Data Centre
#                                CCDC 
#
#######################################################################
#
# If this CIF has been generated from an entry in the Cambridge 
# Structural Database, then it will include bibliographic, chemical, 
# crystal, experimental, refinement or atomic coordinate data resulting 
# from the CCDC's data processing and validation procedures.
#
#######################################################################

data_YODWAQ
_symmetry_cell_setting           orthorhombic
_symmetry_space_group_name_H-M   'P c n n'
_symmetry_Int_Tables_number      52
_space_group_name_Hall           '-P 2ab 2c'
loop_
_symmetry_equiv_pos_site_id
_symmetry_equiv_pos_as_xyz
1 x,y,z
2 1/2-x,1/2-y,z
3 x,-y,1/2-z
4 1/2-x,1/2+y,1/2-z
5 -x,-y,-z
6 1/2+x,1/2+y,-z
7 -x,y,1/2+z
8 1/2+x,1/2-y,1/2+z
_cell_length_a                   7.4911(2)
_cell_length_b                   12.0515(4)
_cell_length_c                   20.3869(6)
_cell_angle_alpha                90
_cell_angle_beta                 90
_cell_angle_gamma                90
_cell_volume                     1840.51
loop_
_atom_site_label
_atom_site_type_symbol
_atom_site_fract_x
_atom_site_fract_y
_atom_site_fract_z
Cu1 Cu 0.81876(6) 0.45858(4) 0.13168(2)
O1 O 0.6791(3) 0.5675(2) 0.18265(14)
O2 O 0.5189(4) 0.7220(2) 0.17325(14)
O3 O 0.8872(4) 0.3830(2) 0.21173(13)
H1 H 0.8120 0.3258 0.2294
H2 H 0.9958 0.4028 0.2338
O4 O 1.0813(4) 0.5640(3) 0.14192(14)
H3 H 1.1904 0.5379 0.1226
H4 H 1.0795 0.6331 0.1653
O5 O 0.4177(4) 0.8452(2) -0.07251(13)
O6 O 0.4541(5) 0.7039(3) -0.14345(15)
N1 N 0.7212(4) 0.5463(2) 0.05701(16)
C1 C 0.5996(5) 0.6435(3) 0.1495(2)
C2 C 0.6163(5) 0.6318(3) 0.07577(19)
C3 C 0.5320(5) 0.7001(3) 0.03108(19)
H5 H 0.4569 0.7605 0.0446
C4 C 0.5546(5) 0.6794(3) -0.03535(19)
C5 C 0.6622(5) 0.5912(3) -0.0543(2)
H6 H 0.6796 0.5754 -0.1000
C6 C 0.7457(6) 0.5274(3) -0.00721(19)
H7 H 0.8224 0.4680 -0.0211
C7 C 0.4676(5) 0.7475(3) -0.08889(19)
Cu1E Cu 1.31876(6) -0.04142(4) -0.13168(2)
Cu1E_2 Cu 0.31876(6) 0.95858(4) -0.13168(2)
Cu1D Cu 0.18124(6) 0.54142(4) -0.13168(2)
Cu1A Cu 0.68124(6) 0.04142(4) 0.13168(2)
O1E O 1.1791(3) 0.0675(2) -0.18265(14)
O2E O 1.0189(4) 0.2220(2) -0.17325(14)
O3E O 1.3872(4) -0.1170(2) -0.21173(13)
H1E H 1.3120 -0.1742 -0.2294
H2E H 1.4958 -0.0972 -0.2338
O4E O 1.5813(4) 0.0640(3) -0.14192(14)
H3E H 1.6904 0.0379 -0.1226
H4E H 1.5795 0.1331 -0.1653
O5E O 0.9177(4) 0.3452(2) 0.07251(13)
O5_2 O 1.4177(4) -0.1548(2) -0.07251(13)
O6E O 0.9541(5) 0.2039(3) 0.14345(15)
O6D O 0.5459(5) 0.2961(3) 0.14345(15)
O6A O 1.0459(5) -0.2039(3) -0.14345(15)
N1E N 1.2212(4) 0.0463(2) -0.05701(16)
C1E C 1.0996(5) 0.1435(3) -0.1495(2)
C2E C 1.1163(5) 0.1318(3) -0.07577(19)
C3E C 1.0320(5) 0.2001(3) -0.03108(19)
H5E H 0.9569 0.2605 -0.0446
C4E C 1.0546(5) 0.1794(3) 0.03535(19)
C5E C 1.1622(5) 0.0912(3) 0.0543(2)
H6E H 1.1796 0.0754 0.1000
C6E C 1.2457(6) 0.0274(3) 0.00721(19)
H7E H 1.3224 -0.0320 0.0211
C7E C 0.9676(5) 0.2475(3) 0.08889(19)
O8 O 0.2500 0.2500 0.2244(12)
O7? O 0.1846(8) 0.0262(8) 0.2398(6)
loop_
_geom_bond_atom_site_label_1
_geom_bond_atom_site_label_2
_geom_bond_site_symmetry_1
_geom_bond_site_symmetry_2
Cu1 O1 1_555 1_555
O1 C1 1_555 1_555
O2 C1 1_555 1_555
O3 Cu1 1_555 1_555
H1 O3 1_555 1_555
H2 O3 1_555 1_555
O4 Cu1 1_555 1_555
H3 O4 1_555 1_555
H4 O4 1_555 1_555
O5 C7 1_555 1_555
O6 C7 1_555 1_555
N1 Cu1 1_555 1_555
C1 C2 1_555 1_555
C2 N1 1_555 1_555
C3 C2 1_555 1_555
H5 C3 1_555 1_555
C4 C3 1_555 1_555
C5 C4 1_555 1_555
H6 C5 1_555 1_555
C6 N1 1_555 1_555
H7 C6 1_555 1_555
C7 C4 1_555 1_555
Cu1E O1E 1_555 1_555
Cu1E_2 O5 1_555 1_555
Cu1D O6 1_555 1_555
Cu1A O6E 1_555 1_555
O1E C1E 1_555 1_555
O2E C1E 1_555 1_555
O3E Cu1E 1_555 1_555
H1E O3E 1_555 1_555
H2E O3E 1_555 1_555
O4E Cu1E 1_555 1_555
H3E O4E 1_555 1_555
H4E O4E 1_555 1_555
O5E Cu1 1_555 1_555
O5_2 Cu1E 1_555 1_555
O6E C7E 1_555 1_555
O6D Cu1 1_555 1_555
O6A Cu1E 1_555 1_555
N1E Cu1E 1_555 1_555
C1E C2E 1_555 1_555
C2E N1E 1_555 1_555
C3E C2E 1_555 1_555
H5E C3E 1_555 1_555
C4E C3E 1_555 1_555
C5E C4E 1_555 1_555
H6E C5E 1_555 1_555
C6E N1E 1_555 1_555
H7E C6E 1_555 1_555
C7E O5E 1_555 1_555
C5 C6 1_555 1_555
C4E C7E 1_555 1_555
C5E C6E 1_555 1_555

#END
