
#######################################################################
#
#                 Cambridge Crystallographic Data Centre
#                                CCDC 
#
#######################################################################
#
# If this CIF has been generated from an entry in the Cambridge 
# Structural Database, then it will include bibliographic, chemical, 
# crystal, experimental, refinement or atomic coordinate data resulting 
# from the CCDC's data processing and validation procedures.
#
#######################################################################

data_YODYUM
_symmetry_cell_setting           monoclinic
_symmetry_space_group_name_H-M   'C c'
_symmetry_Int_Tables_number      9
_space_group_name_Hall           'C -2yc'
loop_
_symmetry_equiv_pos_site_id
_symmetry_equiv_pos_as_xyz
1 x,y,z
2 x,-y,1/2+z
3 1/2+x,1/2+y,z
4 1/2+x,1/2-y,1/2+z
_cell_length_a                   9.9670(12)
_cell_length_b                   35.170(3)
_cell_length_c                   15.151(3)
_cell_angle_alpha                90
_cell_angle_beta                 107.658(2)
_cell_angle_gamma                90
_cell_volume                     5060.79
loop_
_atom_site_label
_atom_site_type_symbol
_atom_site_fract_x
_atom_site_fract_y
_atom_site_fract_z
Co1 Co 0.68424(8) 0.19286(2) 0.27577(5)
Co2 Co -0.14131(8) 0.19115(2) 0.05587(6)
O1 O 0.0748(5) 0.19644(12) 0.0515(3)
O2 O -0.0640(5) 0.19583(12) 0.1999(3)
N1 N 0.8063(6) 0.19342(15) 0.9061(4)
O3 O 0.4685(4) 0.19771(13) 0.2792(3)
O4 O 0.6128(5) 0.19672(12) 0.1308(3)
N2 N 0.7369(5) 0.19525(15) 0.4251(3)
O5 O -0.0235(4) 0.14005(12) 0.0522(3)
O6 O -0.1334(5) 0.16152(13) 0.3014(3)
O7 O 0.6800(5) 0.15897(13) 0.0338(3)
N3 N 0.7331(6) 0.25144(15) 0.2733(4)
N4 N -0.1864(5) 0.24955(15) 0.0590(3)
O8 O 0.4715(5) 0.02469(13) 0.0635(4)
N5 N -0.2470(6) 0.45001(16) 0.0567(4)
N7 N 0.7977(6) 0.45197(16) 0.3250(4)
O9 O 0.3225(5) 0.02675(13) 0.3375(3)
H1 H 0.3120 0.0034 0.3444
O10 O 0.5696(4) 0.14147(12) 0.2840(3)
O11 O 0.0911(5) 0.02777(13) 0.3197(3)
O12 O 0.2411(5) 0.02477(13) 0.0521(4)
H2 H 0.2516 0.0011 0.0534
C7 C 0.0831(7) 0.1604(2) 0.0521(4)
C8 C 0.3623(8) 0.04146(18) 0.0568(5)
C9 C -0.2291(7) 0.37100(19) 0.0525(4)
C10 C -0.0465(7) 0.16934(19) 0.2591(4)
C11 C 0.4636(7) 0.1618(2) 0.2843(4)
C12 C 0.1996(7) 0.04445(19) 0.3239(5)
C13 C 0.6743(7) 0.43390(19) 0.3095(5)
H14 H 0.5932 0.4487 0.3058
C14 C 0.7701(7) 0.16177(19) 0.8552(4)
H15 H 0.7512 0.1395 0.8847
C15 C 0.4631(7) 0.14457(18) 0.0641(4)
C16 C -0.0848(7) 0.27206(19) 0.1094(5)
H16 H -0.0011 0.2607 0.1482
C17 C 0.8170(7) 0.22561(18) 0.7687(5)
H17 H 0.8334 0.2485 0.7404
C18 C 0.7754(7) 0.37262(19) 0.3048(4)
C19 C 0.3333(7) 0.14274(18) 0.2911(4)
C20 C 0.7735(7) 0.16353(19) 0.4747(4)
H18 H 0.7920 0.1415 0.4441
C21 C 0.3383(6) 0.16266(18) 0.0619(4)
H19 H 0.3349 0.1896 0.0654
C22 C 0.8514(7) 0.26764(19) 0.3257(4)
H20 H 0.9275 0.2514 0.3564
C23 C 0.0861(7) 0.14635(17) 0.2794(4)
C24 C 0.6308(7) 0.27511(18) 0.2270(4)
H21 H 0.5471 0.2645 0.1863
C25 C -0.3275(7) 0.30540(18) 0.0029(4)
H22 H -0.4142 0.3158 -0.0342
C26 C -0.0955(7) 0.31149(18) 0.1077(5)
H23 H -0.0190 0.3264 0.1437
C27 C 0.7289(7) 0.22642(19) 0.5646(5)
H24 H 0.7157 0.2491 0.5950
C28 C 0.2251(7) 0.10165(18) 0.0520(4)
H25 H 0.1438 0.0869 0.0486
C29 C 0.7617(7) 0.33079(19) 0.2933(5)
C30 C -0.3072(8) 0.26624(19) 0.0081(5)
H26 H -0.3822 0.2504 -0.0261
C31 C 0.8709(8) 0.30622(18) 0.3383(5)
H27 H 0.9576 0.3160 0.3771
C32 C 0.7585(7) 0.1598(2) 0.7616(5)
H28 H 0.7370 0.1364 0.7291
C33 C 0.3297(7) 0.10386(18) 0.3062(5)
H29 H 0.4123 0.0892 0.3133
C34 C -0.2182(7) 0.32933(19) 0.0534(4)
C35 C 0.2092(6) 0.16431(19) 0.2762(4)
H30 H 0.2095 0.1908 0.2641
C36 C 0.7862(7) 0.16070(19) 0.5680(5)
H31 H 0.8092 0.1371 0.5993
C37 C 0.6412(7) 0.31379(19) 0.2354(5)
H32 H 0.5649 0.3293 0.2013
C38 C 0.0865(7) 0.10754(17) 0.2998(4)
H33 H 0.0039 0.0959 0.3061
C39 C 0.4692(7) 0.10577(19) 0.0585(4)
H34 H 0.5541 0.0938 0.0572
C40 C 0.7787(7) 0.19228(18) 0.7165(4)
C41 C 0.2179(6) 0.14103(18) 0.0544(4)
C42 C 0.2076(7) 0.08598(17) 0.3110(4)
C43 C -0.3551(7) 0.38948(18) 0.0475(5)
H35 H -0.4378 0.3750 0.0417
C44 C 0.9040(7) 0.39143(19) 0.3205(5)
H36 H 0.9870 0.3774 0.3244
C45 C 0.7125(7) 0.22697(19) 0.4722(5)
H37 H 0.6832 0.2499 0.4387
C46 C 0.3503(7) 0.08353(17) 0.0547(5)
C47 C 0.8303(7) 0.22449(18) 0.8628(4)
H38 H 0.8580 0.2471 0.8981
C48 C 0.6582(7) 0.39567(18) 0.2989(4)
H39 H 0.5677 0.3846 0.2875
C49 C -0.1132(7) 0.39361(19) 0.0594(5)
H40 H -0.0250 0.3823 0.0630
C50 C -0.3603(7) 0.4283(2) 0.0509(5)
H41 H -0.4465 0.4403 0.0492
C51 C 0.9100(7) 0.4300(2) 0.3302(5)
H42 H 0.9990 0.4420 0.3414
C52 C 0.7649(7) 0.19290(17) 0.6151(5)
C53 C 0.5935(7) 0.16819(19) 0.0771(4)
C54 C -0.1259(7) 0.43259(19) 0.0608(5)
H43 H -0.0453 0.4477 0.0649
Co1_2 Co -0.31576(8) 0.19286(2) 0.27577(5)
Co2_2 Co 0.85869(8) 0.19115(2) 1.05587(6)
Co2_3 Co 0.85869(8) 0.19115(2) 0.05587(6)
N1_2 N -0.1937(6) 0.19342(15) -0.0939(4)
O6_2 O 0.8666(5) 0.16152(13) 0.3014(3)
O7_2 O -0.3200(5) 0.15897(13) 0.0338(3)
Br1 Br 1.28876(8) 0.435918(19) 0.14655(5)
N6 N 1.2947(6) 0.45982(16) 0.5263(4)
N8 N 1.2249(5) 0.49074(16) 0.3973(4)
C1 C 1.3249(8) 0.4502(2) 0.6258(5)
H3 H 1.2822 0.4693 0.6559
H4 H 1.4270 0.4497 0.6555
H5 H 1.2855 0.4251 0.6315
C2 C 1.2264(7) 0.49108(19) 0.4872(5)
H6 H 1.1864 0.5099 0.5165
C3 C 1.3407(8) 0.4390(2) 0.4634(5)
H7 H 1.3911 0.4157 0.4748
C4 C 1.2988(7) 0.4588(2) 0.3813(5)
H8 H 1.3163 0.4522 0.3250
C5 C 1.1651(8) 0.5212(2) 0.3298(6)
H9 H 1.0690 0.5273 0.3315
H10 H 1.1581 0.5122 0.2667
C6 C 1.2541(8) 0.5561(2) 0.3508(6)
H11 H 1.2126 0.5757 0.3047
H12 H 1.3491 0.5501 0.3488
H13 H 1.2591 0.5654 0.4126
loop_
_geom_bond_atom_site_label_1
_geom_bond_atom_site_label_2
_geom_bond_site_symmetry_1
_geom_bond_site_symmetry_2
Co1 O3 1_555 1_555
Co2 O1 1_555 1_555
O1 C7 1_555 1_555
O2 Co2 1_555 1_555
N1 C14 1_555 1_555
O3 C11 1_555 1_555
O4 Co1 1_555 1_555
N2 Co1 1_555 1_555
O5 Co2 1_555 1_555
O6 C10 1_555 1_555
O7 C53 1_555 1_555
N3 Co1 1_555 1_555
N4 Co2 1_555 1_555
O8 C8 1_555 1_555
N5 C50 1_555 1_555
N6 C1 1_555 1_555
N7 C13 1_555 1_555
N8 C2 1_555 1_555
O9 H1 1_555 1_555
O10 Co1 1_555 1_555
O11 C12 1_555 1_555
O12 H2 1_555 1_555
C1 H3 1_555 1_555
H4 C1 1_555 1_555
H5 C1 1_555 1_555
C2 N6 1_555 1_555
H6 C2 1_555 1_555
C3 N6 1_555 1_555
H7 C3 1_555 1_555
C4 N8 1_555 1_555
H8 C4 1_555 1_555
C5 N8 1_555 1_555
H9 C5 1_555 1_555
H10 C5 1_555 1_555
C6 C5 1_555 1_555
H11 C6 1_555 1_555
H12 C6 1_555 1_555
H13 C6 1_555 1_555
C7 O5 1_555 1_555
C8 O12 1_555 1_555
C9 C34 1_555 1_555
C10 O2 1_555 1_555
C11 O10 1_555 1_555
C12 O9 1_555 1_555
C13 H14 1_555 1_555
C14 H15 1_555 1_555
C15 C21 1_555 1_555
C16 N4 1_555 1_555
H16 C16 1_555 1_555
C17 H17 1_555 1_555
C18 C29 1_555 1_555
C19 C11 1_555 1_555
C20 N2 1_555 1_555
H18 C20 1_555 1_555
C21 H19 1_555 1_555
C22 N3 1_555 1_555
H20 C22 1_555 1_555
C23 C10 1_555 1_555
C24 N3 1_555 1_555
H21 C24 1_555 1_555
C25 H22 1_555 1_555
C26 C16 1_555 1_555
H23 C26 1_555 1_555
C27 H24 1_555 1_555
C28 H25 1_555 1_555
C29 C31 1_555 1_555
C30 N4 1_555 1_555
H26 C30 1_555 1_555
C31 C22 1_555 1_555
H27 C31 1_555 1_555
C32 C14 1_555 1_555
H28 C32 1_555 1_555
C33 C19 1_555 1_555
H29 C33 1_555 1_555
C34 C25 1_555 1_555
C35 C19 1_555 1_555
H30 C35 1_555 1_555
C36 C20 1_555 1_555
H31 C36 1_555 1_555
C37 C24 1_555 1_555
H32 C37 1_555 1_555
C38 C23 1_555 1_555
H33 C38 1_555 1_555
C39 C15 1_555 1_555
H34 C39 1_555 1_555
C40 C17 1_555 1_555
C41 C7 1_555 1_555
C42 C12 1_555 1_555
C43 C9 1_555 1_555
H35 C43 1_555 1_555
C44 C18 1_555 1_555
H36 C44 1_555 1_555
C45 N2 1_555 1_555
H37 C45 1_555 1_555
C46 C8 1_555 1_555
C47 N1 1_555 1_555
H38 C47 1_555 1_555
C48 C13 1_555 1_555
H39 C48 1_555 1_555
C49 C9 1_555 1_555
H40 C49 1_555 1_555
C50 C43 1_555 1_555
H41 C50 1_555 1_555
C51 N7 1_555 1_555
H42 C51 1_555 1_555
C52 C27 1_555 1_555
C53 O4 1_555 1_555
C54 N5 1_555 1_555
H43 C54 1_555 1_555
Co1_2 O6 1_555 1_555
Co2_2 N1 1_555 1_555
Co2_3 O7 1_555 1_555
N1_2 Co2 1_555 1_555
O6_2 Co1 1_555 1_555
O7_2 Co2 1_555 1_555
C3 C4 1_555 1_555
C15 C53 1_555 1_555
C17 C47 1_555 1_555
C18 C48 1_555 1_555
C21 C41 1_555 1_555
C23 C35 1_555 1_555
C25 C30 1_555 1_555
C26 C34 1_555 1_555
C27 C45 1_555 1_555
C28 C41 1_555 1_555
C28 C46 1_555 1_555
C29 C37 1_555 1_555
C32 C40 1_555 1_555
C33 C42 1_555 1_555
C36 C52 1_555 1_555
C38 C42 1_555 1_555
C39 C46 1_555 1_555
C40 C52 1_555 1_555
C44 C51 1_555 1_555
C49 C54 1_555 1_555

#END
