
#######################################################################
#
#                 Cambridge Crystallographic Data Centre
#                                CCDC 
#
#######################################################################
#
# If this CIF has been generated from an entry in the Cambridge 
# Structural Database, then it will include bibliographic, chemical, 
# crystal, experimental, refinement or atomic coordinate data resulting 
# from the CCDC's data processing and validation procedures.
#
#######################################################################

data_YODZEX
_symmetry_cell_setting           monoclinic
_symmetry_space_group_name_H-M   'P 21'
_symmetry_Int_Tables_number      4
_space_group_name_Hall           'P 2yb'
loop_
_symmetry_equiv_pos_site_id
_symmetry_equiv_pos_as_xyz
1 x,y,z
2 -x,1/2+y,-z
_cell_length_a                   7.6770(14)
_cell_length_b                   16.387(2)
_cell_length_c                   8.2916(15)
_cell_angle_alpha                90
_cell_angle_beta                 116.458(3)
_cell_angle_gamma                90
_cell_volume                     933.854
loop_
_atom_site_label
_atom_site_type_symbol
_atom_site_fract_x
_atom_site_fract_y
_atom_site_fract_z
Co1 Co 0.76451(8) 0.45055(4) 0.86683(8)
O1 O 0.5821(5) 0.36525(17) 0.6870(4)
O2 O 0.6776(5) 0.3310(2) 0.9698(5)
C1 C 0.3156(7) 0.1340(3) 0.5170(6)
C2 C 0.5875(7) 0.3146(3) 0.8035(7)
C3 C 0.4021(7) 0.2106(2) 0.5678(7)
H1 H 0.4003 0.2467 0.4805
C4 C 0.4907(6) 0.2333(2) 0.7481(6)
C5 C 0.3094(7) 0.0833(3) 0.6481(6)
H2 H 0.2450 0.0335 0.6141
C6 C 0.4899(7) 0.1800(2) 0.8775(7)
H3 H 0.5526 0.1947 0.9984
N1 N 1.0382(6) 0.4029(2) 0.9683(5)
N2 N 1.3488(6) 0.3852(3) 1.0300(6)
H4 H 1.4622 0.3929 1.0357
C7 C 1.1092(8) 0.3344(3) 1.0727(7)
H5 H 1.0378 0.3014 1.1128
C8 C 1.1893(7) 0.4325(3) 0.9432(7)
H6 H 1.1841 0.4787 0.8760
C9 C 1.2924(8) 0.3216(3) 1.1083(7)
H7 H 1.3698 0.2783 1.1736
C14 C 0.3967(6) 0.1048(3) 0.8289(6)
C15 C 0.3855(7) 0.0499(3) 0.9689(7)
O3 O 0.5190(5) 0.0502(2) 1.1268(5)
O4 O 0.2367(5) 0.00415(17) 0.9179(4)
C16 C 0.2347(7) 0.1050(3) 0.3245(7)
O5 O 0.2102(5) 0.02791(18) 0.3026(4)
O6 O 0.2033(7) 0.1555(2) 0.2042(5)
Co1A Co 0.23549(8) -0.04945(4) 1.13317(8)
Co1A_2 Co 0.23549(8) -0.04945(4) 0.13317(8)
O4A O 0.7633(5) 0.50415(17) 1.0821(4)
O5A O 0.7898(5) 0.52791(18) 0.6974(4)
C10 C 0.7513(8) 0.0137(3) 0.6230(8)
H8 H 0.6792 -0.0065 0.5025
H9 H 0.6695 0.0135 0.6832
H10 H 0.8622 -0.0207 0.6874
C11 C 0.7838(8) 0.1392(3) 0.4698(7)
H11 H 0.7116 0.1207 0.3526
N3 N 0.8704(7) 0.2117(2) 0.5167(6)
C12 C 0.9260(8) 0.1461(3) 0.7618(7)
H12 H 0.9698 0.1317 0.8821
N4 N 0.8176(6) 0.0983(2) 0.6170(6)
C13 C 0.9584(8) 0.2169(3) 0.7010(7)
H13 H 1.0272 0.2613 0.7700
C17 C 0.8799(10) 0.2725(3) 0.3889(8)
H14 H 1.0043 0.2672 0.3860
H15 H 0.7789 0.2602 0.2692
C18 C 0.8571(12) 0.3556(3) 0.4321(9)
H16 H 0.8656 0.3914 0.3443
H17 H 0.9580 0.3688 0.5494
H18 H 0.7325 0.3619 0.4314
loop_
_geom_bond_atom_site_label_1
_geom_bond_atom_site_label_2
_geom_bond_site_symmetry_1
_geom_bond_site_symmetry_2
Co1 O1 1_555 1_555
O1 C2 1_555 1_555
O2 Co1 1_555 1_555
C1 C3 1_555 1_555
C2 O2 1_555 1_555
C3 H1 1_555 1_555
C4 C2 1_555 1_555
C5 C1 1_555 1_555
H2 C5 1_555 1_555
C6 C4 1_555 1_555
H3 C6 1_555 1_555
N1 Co1 1_555 1_555
N2 H4 1_555 1_555
C7 N1 1_555 1_555
H5 C7 1_555 1_555
C8 N1 1_555 1_555
H6 C8 1_555 1_555
C9 N2 1_555 1_555
H7 C9 1_555 1_555
C10 H8 1_555 1_555
H9 C10 1_555 1_555
H10 C10 1_555 1_555
C11 H11 1_555 1_555
N3 C11 1_555 1_555
C12 H12 1_555 1_555
N4 C10 1_555 1_555
C13 N3 1_555 1_555
H13 C13 1_555 1_555
C14 C5 1_555 1_555
C15 C14 1_555 1_555
O3 C15 1_555 1_555
O4 C15 1_555 1_555
C16 C1 1_555 1_555
O5 C16 1_555 1_555
O6 C16 1_555 1_555
C17 N3 1_555 1_555
H14 C17 1_555 1_555
H15 C17 1_555 1_555
C18 C17 1_555 1_555
H16 C18 1_555 1_555
H17 C18 1_555 1_555
H18 C18 1_555 1_555
Co1A O4 1_555 1_555
Co1A_2 O5 1_555 1_555
O4A Co1 1_555 1_555
O5A Co1 1_555 1_555
C3 C4 1_555 1_555
C6 C14 1_555 1_555
N2 C8 1_555 1_555
C7 C9 1_555 1_555
C11 N4 1_555 1_555
C12 N4 1_555 1_555
C12 C13 1_555 1_555

#END
