
#######################################################################
#
#                 Cambridge Crystallographic Data Centre
#                                CCDC 
#
#######################################################################
#
# If this CIF has been generated from an entry in the Cambridge 
# Structural Database, then it will include bibliographic, chemical, 
# crystal, experimental, refinement or atomic coordinate data resulting 
# from the CCDC's data processing and validation procedures.
#
#######################################################################

data_YODZIB
_symmetry_cell_setting           orthorhombic
_symmetry_space_group_name_H-M   'F d d d'
_symmetry_Int_Tables_number      70
_space_group_name_Hall           '-F 2uv 2vw'
loop_
_symmetry_equiv_pos_site_id
_symmetry_equiv_pos_as_xyz
1 x,y,z
2 1/4-x,1/4-y,z
3 x,1/4-y,1/4-z
4 1/4-x,y,1/4-z
5 x,1/2+y,1/2+z
6 1/2+x,y,1/2+z
7 1/2+x,1/2+y,z
8 1/4-x,3/4-y,1/2+z
9 x,3/4-y,3/4-z
10 1/4-x,1/2+y,3/4-z
11 3/4-x,1/4-y,1/2+z
12 1/2+x,1/4-y,3/4-z
13 3/4-x,y,3/4-z
14 3/4-x,3/4-y,z
15 1/2+x,3/4-y,1/4-z
16 3/4-x,1/2+y,1/4-z
17 -x,-y,-z
18 3/4+x,3/4+y,-z
19 -x,3/4+y,3/4+z
20 3/4+x,-y,3/4+z
21 -x,1/2-y,1/2-z
22 1/2-x,-y,1/2-z
23 1/2-x,1/2-y,-z
24 3/4+x,1/4+y,1/2-z
25 -x,1/4+y,1/4+z
26 3/4+x,1/2-y,1/4+z
27 1/4+x,3/4+y,1/2-z
28 1/2-x,3/4+y,1/4+z
29 1/4+x,-y,1/4+z
30 1/4+x,1/4+y,-z
31 1/2-x,1/4+y,3/4+z
32 1/4+x,1/2-y,3/4+z
_cell_length_a                   11.3058(18)
_cell_length_b                   17.284(3)
_cell_length_c                   37.082(6)
_cell_angle_alpha                90
_cell_angle_beta                 90
_cell_angle_gamma                90
_cell_volume                     7246.17
loop_
_atom_site_label
_atom_site_type_symbol
_atom_site_fract_x
_atom_site_fract_y
_atom_site_fract_z
C7 C 0.3933(12) 0.4941(7) 0.3545(3)
H3 H 0.3391 0.5260 0.3407
H4 H 0.4724 0.5152 0.3518
N1 N 0.3901(10) 0.4133(6) 0.3409(3)
H5 H 0.4124 0.4224 0.3070
C8 C 0.4807(6) 0.3700(4) 0.35448(19)
H6 H 0.5556 0.3859 0.3448
H7 H 0.2819 0.4332 0.3482
C7L C 0.3567(12) 0.4941(7) 0.3955(3)
C7H C 0.3933(12) 0.2559(7) 0.3955(3)
C7M C 0.3567(12) 0.2559(7) 0.3545(3)
H3L H 0.4109 0.5260 0.4093
H3M H 0.4109 0.2240 0.3407
H3H H 0.3391 0.2240 0.4093
H4L H 0.2776 0.5152 0.3982
H4M H 0.2776 0.2348 0.3518
H4H H 0.4724 0.2348 0.3982
N1L N 0.3599(10) 0.4133(6) 0.4091(3)
N1H N 0.3901(10) 0.3367(6) 0.4091(3)
N1M N 0.3599(10) 0.3367(6) 0.3409(3)
H5M H 0.3376 0.3276 0.3070
H5L H 0.3376 0.4224 0.4430
H5H H 0.4124 0.3276 0.4430
C8M C 0.2693(6) 0.3800(4) 0.35448(19)
C8L C 0.2693(6) 0.3700(4) 0.39552(19)
C8H C 0.4807(6) 0.3800(4) 0.39552(19)
H6L H 0.1944 0.3859 0.4052
H6H H 0.5556 0.3641 0.4052
H6M H 0.1944 0.3641 0.3448
H7H H 0.2819 0.3168 0.4018
H7M H 0.4681 0.3168 0.3482
H7L H 0.4681 0.4332 0.4018
N2 N -0.0214(11) 0.2365(9) 0.2436(4)
N3 N -0.0534(12) 0.1204(6) 0.2474(2)
C9 C -0.0357(17) 0.1698(14) 0.2256(5)
C10 C -0.0495(14) 0.1536(9) 0.2812(3)
C11 C 0.0179(12) 0.2879(12) 0.2233(4)
C12 C -0.0718(17) 0.1055(9) 0.3160(4)
N2T N 0.0214(11) 0.2635(9) 0.2564(4)
N3T N 0.0534(12) 0.3796(6) 0.2526(2)
C9T C 0.0357(17) 0.3302(14) 0.2744(5)
C10T C 0.0495(14) 0.3464(9) 0.2188(3)
C11T C -0.0179(12) 0.2121(12) 0.2767(4)
C12T C 0.0718(17) 0.3945(9) 0.1840(4)
Co1 Co 0.1250 0.1250 0.1250
O1 O 0.2962(4) 0.2399(3) 0.10598(12)
O2 O 0.2176(4) 0.1954(2) 0.15736(12)
O3 O 0.4074(6) 0.4351(3) 0.27244(12)
C1 C 0.3286(5) 0.3122(3) 0.15980(15)
C2 C 0.3280(6) 0.3123(3) 0.19750(16)
H1 H 0.2964 0.2705 0.2101
C3 C 0.3750 0.3750 0.2162(2)
C4 C 0.3750 0.3750 0.1415(2)
H2 H 0.3750 0.3750 0.1164
C5 C 0.2771(5) 0.2444(4) 0.13946(16)
C6 C 0.3750 0.3750 0.2570(2)
Co1F Co 0.6250 0.6250 0.1250
Co1F_2 Co -0.3750 -0.3750 0.1250
O1M O 0.4538(4) 0.5101(3) 0.10598(12)
O1A O -0.0462(4) 0.0101(3) 0.10598(12)
O1F O -0.2038(4) -0.2601(3) 0.10598(12)
O2M O 0.5324(4) 0.5546(2) 0.15736(12)
O2A O 0.0324(4) 0.0546(2) 0.15736(12)
O2F O -0.2824(4) -0.3046(2) 0.15736(12)
O2B O 0.2176(4) 0.0546(2) 0.09264(12)
O2C O 0.0324(4) 0.1954(2) 0.09264(12)
O3M O 0.3426(6) 0.3149(3) 0.27244(12)
O3A O -0.1574(6) -0.1851(3) 0.27244(12)
O3F O -0.0926(6) -0.0649(3) 0.27244(12)
C1M C 0.4214(5) 0.4378(3) 0.15980(15)
C1A C -0.0786(5) -0.0622(3) 0.15980(15)
C1F C -0.1714(5) -0.1878(3) 0.15980(15)
C2M C 0.4220(6) 0.4377(3) 0.19750(16)
C2A C -0.0780(6) -0.0623(3) 0.19750(16)
C2F C -0.1720(6) -0.1877(3) 0.19750(16)
H1M H 0.4536 0.4795 0.2101
H1A H -0.0464 -0.0205 0.2101
H1F H -0.2036 -0.2295 0.2101
C3A C -0.1250 -0.1250 0.2162(2)
C4A C -0.1250 -0.1250 0.1415(2)
H2A H -0.1250 -0.1250 0.1164
C5M C 0.4729(5) 0.5056(4) 0.13946(16)
C5A C -0.0271(5) 0.0056(4) 0.13946(16)
C5F C -0.2229(5) -0.2556(4) 0.13946(16)
C6A C -0.1250 -0.1250 0.2570(2)
loop_
_geom_bond_atom_site_label_1
_geom_bond_atom_site_label_2
_geom_bond_site_symmetry_1
_geom_bond_site_symmetry_2
Co1 O2 1_555 1_555
O1 C5 1_555 1_555
O2 C5 1_555 1_555
O3 C6 1_555 1_555
C1 C2 1_555 1_555
C2 H1 1_555 1_555
C3 C2 1_555 1_555
C4 C1 1_555 1_555
H2 C4 1_555 1_555
C5 C1 1_555 1_555
C6 C3 1_555 1_555
C7 H3 1_555 1_555
H4 C7 1_555 1_555
N1 C7 1_555 1_555
H5 N1 1_555 1_555
C8 N1 1_555 1_555
H6 C8 1_555 1_555
H7 N1 1_555 1_555
N2 C9 1_555 1_555
N3 C9 1_555 1_555
C10 N3 1_555 1_555
C11 N2 1_555 1_555
C12 C10 1_555 1_555
Co1F O2M 1_555 1_555
Co1F_2 O2F 1_555 1_555
O1M C5M 1_555 1_555
O1A C5A 1_555 1_555
O1F C5F 1_555 1_555
O2M C5M 1_555 1_555
O2A Co1 1_555 1_555
O2F C5F 1_555 1_555
O2B Co1 1_555 1_555
O2C Co1 1_555 1_555
O3M C6 1_555 1_555
O3A C6A 1_555 1_555
O3F C6A 1_555 1_555
C1M C4 1_555 1_555
C1A C2A 1_555 1_555
C1F C2F 1_555 1_555
C2M C3 1_555 1_555
C2A H1A 1_555 1_555
C2F H1F 1_555 1_555
H1M C2M 1_555 1_555
C3A C2A 1_555 1_555
C4A C1A 1_555 1_555
H2A C4A 1_555 1_555
C5M C1M 1_555 1_555
C5A O2A 1_555 1_555
C5F C1F 1_555 1_555
C6A C3A 1_555 1_555
C7L C7 1_555 1_555
C7H C7M 1_555 1_555
C7M H3M 1_555 1_555
H3L C7L 1_555 1_555
H3H C7H 1_555 1_555
H4L C7L 1_555 1_555
H4M C7M 1_555 1_555
H4H C7H 1_555 1_555
N1L C7L 1_555 1_555
N1H C7H 1_555 1_555
N1M N1 1_555 1_555
H5M N1M 1_555 1_555
H5L N1L 1_555 1_555
H5H N1H 1_555 1_555
C8M N1 1_555 1_555
C8L N1L 1_555 1_555
C8H C8 1_555 1_555
H6L C8L 1_555 1_555
H6H C8H 1_555 1_555
H6M C8M 1_555 1_555
H7H N1H 1_555 1_555
H7M C8 1_555 1_555
H7L N1L 1_555 1_555
N2T N2 1_555 1_555
N3T C9T 1_555 1_555
C9T N2T 1_555 1_555
C10T C11 1_555 1_555
C11T N2 1_555 1_555
C12T C10T 1_555 1_555
C8 N1M 1_555 1_555
H7 C8M 1_555 1_555
C10 C11T 1_555 1_555
C11 N2T 1_555 1_555
C1M C2M 1_555 1_555
C1A C5A 1_555 1_555
C1F C4A 1_555 1_555
C2F C3A 1_555 1_555
C7M N1M 1_555 1_555
N1L N1H 1_555 1_555
N1L C8H 1_555 1_555
N1H C8L 1_555 1_555
N1H C8H 1_555 1_555
N1M C8M 1_555 1_555
N1M H7M 1_555 1_555
C8M C8L 1_555 1_555
C8L H7H 1_555 1_555
C8H H7L 1_555 1_555
N2T C11T 1_555 1_555
N3T C10T 1_555 1_555

#END
