
#######################################################################
#
#                 Cambridge Crystallographic Data Centre
#                                CCDC 
#
#######################################################################
#
# If this CIF has been generated from an entry in the Cambridge 
# Structural Database, then it will include bibliographic, chemical, 
# crystal, experimental, refinement or atomic coordinate data resulting 
# from the CCDC's data processing and validation procedures.
#
#######################################################################

data_YOFCED
_symmetry_cell_setting           triclinic
_symmetry_space_group_name_H-M   'P -1'
_symmetry_Int_Tables_number      2
_space_group_name_Hall           '-P 1'
loop_
_symmetry_equiv_pos_site_id
_symmetry_equiv_pos_as_xyz
1 x,y,z
2 -x,-y,-z
_cell_length_a                   11.126(2)
_cell_length_b                   12.074(2)
_cell_length_c                   12.431(3)
_cell_angle_alpha                75.67(3)
_cell_angle_beta                 75.95(3)
_cell_angle_gamma                69.44(3)
_cell_volume                     1492.39
loop_
_atom_site_label
_atom_site_type_symbol
_atom_site_fract_x
_atom_site_fract_y
_atom_site_fract_z
C1 C 0.19884(18) -0.16876(19) 0.32975(19)
C2 C 0.18081(19) -0.28452(18) 0.32723(18)
C3 C 0.1702(3) -0.3682(3) 0.4253(2)
H1 H 0.1759 -0.3528 0.4933
C4 C 0.1512(4) -0.4739(3) 0.4224(3)
H2 H 0.1475 -0.5304 0.4883
C5 C 0.1376(3) -0.4979(2) 0.3240(3)
C6 C 0.1452(2) -0.4130(2) 0.2272(2)
H3 H 0.1328 -0.4260 0.1606
C7 C 0.1710(2) -0.3090(2) 0.2274(2)
H4 H 0.1817 -0.2556 0.1603
C8 C 0.1115(5) -0.6118(3) 0.3227(4)
H5 H 0.0306 -0.5920 0.2969
H6 H 0.1064 -0.6585 0.3974
H7 H 0.1809 -0.6576 0.2729
C9 C 0.00293(19) 0.18442(18) 0.24407(17)
C10 C -0.13326(19) 0.25289(19) 0.22562(18)
C11 C -0.2387(2) 0.2389(2) 0.3077(2)
H8 H -0.2251 0.1896 0.3770
C12 C -0.3635(2) 0.2978(3) 0.2868(2)
H9 H -0.4335 0.2865 0.3420
C13 C -0.3873(2) 0.3731(3) 0.1859(2)
C14 C -0.2818(3) 0.3887(3) 0.1053(2)
H10 H -0.2958 0.4403 0.0371
C15 C -0.1554(2) 0.3285(2) 0.1247(2)
H11 H -0.0854 0.3392 0.0693
C16 C -0.5250(3) 0.4357(4) 0.1652(3)
H12 H -0.5249 0.4947 0.0973
H13 H -0.5759 0.4746 0.2275
H14 H -0.5620 0.3778 0.1574
C17 C 0.22588(19) 0.09379(19) 0.50869(18)
C18 C 0.2762(2) 0.15642(19) 0.56959(18)
C19 C 0.1967(2) 0.2133(2) 0.6567(2)
H15 H 0.1122 0.2091 0.6808
C20 C 0.2414(3) 0.2765(3) 0.7086(2)
H16 H 0.1859 0.3160 0.7659
C21 C 0.3685(3) 0.2817(3) 0.6760(2)
C22 C 0.4489(3) 0.2217(3) 0.5901(2)
H17 H 0.5348 0.2224 0.5683
C23 C 0.4034(2) 0.1614(2) 0.5367(2)
H18 H 0.4580 0.1235 0.4780
C24 C 0.4175(4) 0.3509(4) 0.7319(4)
H19 H 0.4420 0.4141 0.6768
H20 H 0.4919 0.2977 0.7645
H21 H 0.3500 0.3850 0.7899
C25 C 0.5199(2) 0.0589(2) 0.1893(2)
H22 H 0.5401 0.0184 0.2598
C26 C 0.4156(2) 0.1482(3) 0.0531(2)
H23 H 0.3481 0.1834 0.0117
C27 C 0.5401(2) 0.1465(3) 0.0137(2)
H24 H 0.5749 0.1762 -0.0592
C28 C 0.7447(2) 0.0687(3) 0.1029(3)
H25 H 0.7672 0.1419 0.0690
H26 H 0.7602 0.0465 0.1800
C29 C 0.8292(2) -0.0279(3) 0.0402(2)
H27 H 0.8126 -0.0065 -0.0366
H28 H 0.8080 -0.1015 0.0750
C30 C 0.9750(2) -0.0496(3) 0.0384(3)
H29 H 0.9881 -0.0562 0.1144
H30 H 1.0255 -0.1253 0.0137
Mn1 Mn 0.23774(3) 0.05180(3) 0.27456(3)
Mn2 Mn 0.0000 0.0000 0.5000
N1 N 0.40328(16) 0.09059(19) 0.16290(16)
N2 N 0.60529(17) 0.0918(2) 0.10326(18)
O1 O 0.17072(14) -0.13179(14) 0.42127(14)
O2 O 0.24235(16) -0.11088(15) 0.23877(14)
O3 O 0.02248(14) 0.11853(15) 0.33921(13)
O4 O 0.09745(14) 0.18977(15) 0.16790(13)
O5 O 0.12278(14) 0.06900(15) 0.55488(14)
O6 O 0.29119(14) 0.07272(16) 0.41323(14)
C25A C 1.4801(2) -0.0589(2) -0.1893(2)
H22A H 1.4599 -0.0184 -0.2598
C26A C 1.5844(2) -0.1482(3) -0.0531(2)
H23A H 1.6519 -0.1834 -0.0117
C27A C 1.4599(2) -0.1465(3) -0.0137(2)
H24A H 1.4251 -0.1762 0.0592
C28A C 1.2553(2) -0.0687(3) -0.1029(3)
H25A H 1.2328 -0.1419 -0.0690
H26A H 1.2398 -0.0465 -0.1800
C29A C 1.1708(2) 0.0279(3) -0.0402(2)
H27A H 1.1874 0.0065 0.0366
H28A H 1.1920 0.1015 -0.0750
C30A C 1.0250(2) 0.0496(3) -0.0384(3)
H29A H 1.0119 0.0562 -0.1144
H30A H 0.9745 0.1253 -0.0137
N1A N 1.59672(16) -0.09059(19) -0.16290(16)
N2A N 1.39471(17) -0.0918(2) -0.10326(18)
C1A C -0.19884(18) 0.16876(19) 0.67025(19)
C2A C -0.18081(19) 0.28452(18) 0.67277(18)
C3A C -0.1702(3) 0.3682(3) 0.5747(2)
H1A H -0.1759 0.3528 0.5067
C4A C -0.1512(4) 0.4739(3) 0.5776(3)
H2A H -0.1475 0.5304 0.5117
C5A C -0.1376(3) 0.4979(2) 0.6760(3)
C6A C -0.1452(2) 0.4130(2) 0.7728(2)
H3A H -0.1328 0.4260 0.8394
C7A C -0.1710(2) 0.3090(2) 0.7726(2)
H4A H -0.1817 0.2556 0.8397
C8A C -0.1115(5) 0.6118(3) 0.6773(4)
H5A H -0.0306 0.5920 0.7031
H6A H -0.1064 0.6585 0.6026
H7A H -0.1809 0.6576 0.7271
C9A C -0.00293(19) -0.18442(18) 0.75593(17)
C10A C 0.13326(19) -0.25289(19) 0.77438(18)
C11A C 0.2387(2) -0.2389(2) 0.6923(2)
H8A H 0.2251 -0.1896 0.6230
C12A C 0.3635(2) -0.2978(3) 0.7132(2)
H9A H 0.4335 -0.2865 0.6580
C13A C 0.3873(2) -0.3731(3) 0.8141(2)
C14A C 0.2818(3) -0.3887(3) 0.8947(2)
H10A H 0.2958 -0.4403 0.9629
C15A C 0.1554(2) -0.3285(2) 0.8753(2)
H11A H 0.0854 -0.3392 0.9307
C16A C 0.5250(3) -0.4357(4) 0.8348(3)
H12A H 0.5249 -0.4947 0.9027
H13A H 0.5759 -0.4746 0.7725
H14A H 0.5620 -0.3778 0.8426
C17A C -0.22588(19) -0.09379(19) 0.49131(18)
C18A C -0.2762(2) -0.15642(19) 0.43041(18)
C19A C -0.1967(2) -0.2133(2) 0.3433(2)
H15A H -0.1122 -0.2091 0.3192
C20A C -0.2414(3) -0.2765(3) 0.2914(2)
H16A H -0.1859 -0.3160 0.2341
C21A C -0.3685(3) -0.2817(3) 0.3240(2)
C22A C -0.4489(3) -0.2217(3) 0.4099(2)
H17A H -0.5348 -0.2224 0.4317
C23A C -0.4034(2) -0.1614(2) 0.4633(2)
H18A H -0.4580 -0.1235 0.5220
C24A C -0.4175(4) -0.3509(4) 0.2681(4)
H19A H -0.4420 -0.4141 0.3232
H20A H -0.4919 -0.2977 0.2355
H21A H -0.3500 -0.3850 0.2101
Mn1A Mn -0.23774(3) -0.05180(3) 0.72544(3)
O1A O -0.17072(14) 0.13179(14) 0.57873(14)
O2A O -0.24235(16) 0.11088(15) 0.76123(14)
O3A O -0.02248(14) -0.11853(15) 0.66079(13)
O4A O -0.09745(14) -0.18977(15) 0.83210(13)
O5A O -0.12278(14) -0.06900(15) 0.44512(14)
O6A O -0.29119(14) -0.07272(16) 0.58677(14)
Mn1A_2 Mn 1.76226(3) -0.05180(3) -0.27456(3)
N1A_2 N -0.40328(16) -0.09059(19) 0.83710(16)
loop_
_geom_bond_atom_site_label_1
_geom_bond_atom_site_label_2
_geom_bond_site_symmetry_1
_geom_bond_site_symmetry_2
C1 C2 1_555 1_555
C2 C3 1_555 1_555
C3 H1 1_555 1_555
C4 C3 1_555 1_555
H2 C4 1_555 1_555
C5 C4 1_555 1_555
C6 C5 1_555 1_555
H3 C6 1_555 1_555
C7 C2 1_555 1_555
H4 C7 1_555 1_555
C8 C5 1_555 1_555
H5 C8 1_555 1_555
H6 C8 1_555 1_555
H7 C8 1_555 1_555
C9 C10 1_555 1_555
C10 C11 1_555 1_555
C11 H8 1_555 1_555
C12 C11 1_555 1_555
H9 C12 1_555 1_555
C13 C12 1_555 1_555
C14 C13 1_555 1_555
H10 C14 1_555 1_555
C15 C10 1_555 1_555
H11 C15 1_555 1_555
C16 C13 1_555 1_555
H12 C16 1_555 1_555
H13 C16 1_555 1_555
H14 C16 1_555 1_555
C17 C18 1_555 1_555
C18 C19 1_555 1_555
C19 H15 1_555 1_555
C20 C19 1_555 1_555
H16 C20 1_555 1_555
C21 C20 1_555 1_555
C22 C21 1_555 1_555
H17 C22 1_555 1_555
C23 C18 1_555 1_555
H18 C23 1_555 1_555
C24 C21 1_555 1_555
H19 C24 1_555 1_555
H20 C24 1_555 1_555
H21 C24 1_555 1_555
C25 H22 1_555 1_555
C26 H23 1_555 1_555
C27 C26 1_555 1_555
H24 C27 1_555 1_555
C28 H25 1_555 1_555
H26 C28 1_555 1_555
C29 C28 1_555 1_555
H27 C29 1_555 1_555
H28 C29 1_555 1_555
C30 C29 1_555 1_555
H29 C30 1_555 1_555
H30 C30 1_555 1_555
Mn1 N1 1_555 1_555
Mn2 O1 1_555 1_555
N1 C25 1_555 1_555
N2 C25 1_555 1_555
O1 C1 1_555 1_555
O2 C1 1_555 1_555
O3 C9 1_555 1_555
O4 C9 1_555 1_555
O5 C17 1_555 1_555
O6 C17 1_555 1_555
C25A H22A 1_555 1_555
C26A H23A 1_555 1_555
C27A C26A 1_555 1_555
H24A C27A 1_555 1_555
C28A H25A 1_555 1_555
H26A C28A 1_555 1_555
C29A C28A 1_555 1_555
H27A C29A 1_555 1_555
H28A C29A 1_555 1_555
C30A C30 1_555 1_555
H29A C30A 1_555 1_555
H30A C30A 1_555 1_555
N1A C25A 1_555 1_555
N2A C25A 1_555 1_555
C1A C2A 1_555 1_555
C2A C3A 1_555 1_555
C3A H1A 1_555 1_555
C4A C3A 1_555 1_555
H2A C4A 1_555 1_555
C5A C4A 1_555 1_555
C6A C5A 1_555 1_555
H3A C6A 1_555 1_555
C7A C2A 1_555 1_555
H4A C7A 1_555 1_555
C8A C5A 1_555 1_555
H5A C8A 1_555 1_555
H6A C8A 1_555 1_555
H7A C8A 1_555 1_555
C9A C10A 1_555 1_555
C10A C11A 1_555 1_555
C11A H8A 1_555 1_555
C12A C11A 1_555 1_555
H9A C12A 1_555 1_555
C13A C12A 1_555 1_555
C14A C13A 1_555 1_555
H10A C14A 1_555 1_555
C15A C10A 1_555 1_555
H11A C15A 1_555 1_555
C16A C13A 1_555 1_555
H12A C16A 1_555 1_555
H13A C16A 1_555 1_555
H14A C16A 1_555 1_555
C17A C18A 1_555 1_555
C18A C19A 1_555 1_555
C19A H15A 1_555 1_555
C20A C19A 1_555 1_555
H16A C20A 1_555 1_555
C21A C20A 1_555 1_555
C22A C21A 1_555 1_555
H17A C22A 1_555 1_555
C23A C18A 1_555 1_555
H18A C23A 1_555 1_555
C24A C21A 1_555 1_555
H19A C24A 1_555 1_555
H20A C24A 1_555 1_555
H21A C24A 1_555 1_555
Mn1A O2A 1_555 1_555
O1A Mn2 1_555 1_555
O2A C1A 1_555 1_555
O3A Mn2 1_555 1_555
O4A C9A 1_555 1_555
O5A Mn2 1_555 1_555
O6A C17A 1_555 1_555
Mn1A_2 N1A 1_555 1_555
N1A_2 Mn1A 1_555 1_555
C6 C7 1_555 1_555
C14 C15 1_555 1_555
C22 C23 1_555 1_555
C26 N1 1_555 1_555
C27 N2 1_555 1_555
C28 N2 1_555 1_555
Mn1 O2 1_555 1_555
Mn1 O3 1_555 1_555
Mn1 O4 1_555 1_555
Mn1 O6 1_555 1_555
Mn2 O3 1_555 1_555
Mn2 O5 1_555 1_555
C26A N1A 1_555 1_555
C27A N2A 1_555 1_555
C28A N2A 1_555 1_555
C29A C30A 1_555 1_555
C1A O1A 1_555 1_555
C6A C7A 1_555 1_555
C9A O3A 1_555 1_555
C14A C15A 1_555 1_555
C17A O5A 1_555 1_555
C22A C23A 1_555 1_555
Mn1A O3A 1_555 1_555
Mn1A O4A 1_555 1_555
Mn1A O6A 1_555 1_555

#END
