
#######################################################################
#
#                 Cambridge Crystallographic Data Centre
#                                CCDC 
#
#######################################################################
#
# If this CIF has been generated from an entry in the Cambridge 
# Structural Database, then it will include bibliographic, chemical, 
# crystal, experimental, refinement or atomic coordinate data resulting 
# from the CCDC's data processing and validation procedures.
#
#######################################################################

data_YOFCIH
_symmetry_cell_setting           monoclinic
_symmetry_space_group_name_H-M   'P n'
_symmetry_Int_Tables_number      7
_space_group_name_Hall           'P -2yac'
loop_
_symmetry_equiv_pos_site_id
_symmetry_equiv_pos_as_xyz
1 x,y,z
2 1/2+x,-y,1/2+z
_cell_length_a                   8.5110(3)
_cell_length_b                   8.1429(2)
_cell_length_c                   13.2704(4)
_cell_angle_alpha                90
_cell_angle_beta                 90.352(3)
_cell_angle_gamma                90
_cell_volume                     919.677
loop_
_atom_site_label
_atom_site_type_symbol
_atom_site_fract_x
_atom_site_fract_y
_atom_site_fract_z
Hg1 Hg -0.7716(9) -0.16646(3) -0.8441(9)
Co1 Co -1.26977(10) 0.30668(9) -0.91439(6)
S1 S -1.0205(2) -0.1447(2) -0.73312(15)
S2 S -1.7760(2) 0.0328(2) -0.98577(15)
S3 S -1.04038(19) 0.0939(2) -1.22630(12)
S4 S -0.74033(18) 0.5263(2) -0.8538(2)
N1 N -1.3471(6) 0.3917(7) -0.7729(4)
N2 N -1.4427(9) 0.3140(9) -0.7112(6)
H1 H -1.4901 0.2239 -0.7260
N3 N -1.3466(6) 0.5240(6) -0.9874(4)
N4 N -1.3213(11) 0.6795(8) -0.9667(7)
H2 H -1.2726 0.7125 -0.9135
N5 N -1.1863(6) 0.0924(7) -0.8421(4)
N6 N -1.4906(6) 0.1885(6) -0.9415(4)
N7 N -1.0505(6) 0.4241(6) -0.8846(4)
N8 N -1.1871(6) 0.2148(6) -1.0529(4)
C1 C -1.4573(12) 0.3920(16) -0.6229(6)
H3 H -1.5191 0.3595 -0.5689
C2 C -1.3685(13) 0.5220(12) -0.6271(6)
H4 H -1.3526 0.6009 -0.5775
C3 C -1.3063(12) 0.5165(10) -0.7180(6)
H5 H -1.2377 0.5968 -0.7411
C4 C -1.4329(13) 0.5322(9) -1.0682(6)
H6 H -1.4786 0.4413 -1.0990
C5 C -1.449(2) 0.6871(13) -1.1024(9)
H7 H -1.4998 0.7196 -1.1614
C6 C -1.3797(13) 0.7823(11) -1.0374(9)
H8 H -1.3720 0.8962 -1.0392
C7 C -1.1182(6) -0.0041(7) -0.7983(4)
C8 C -1.6071(7) 0.1233(7) -0.9582(4)
C9 C -0.9266(7) 0.4700(7) -0.8721(4)
C10 C -1.1266(7) 0.1632(7) -1.1234(5)
Hg1_2 Hg -1.7716(9) -0.16646(3) -0.8441(9)
Hg1_3 Hg -0.7716(9) 0.83354(3) -0.8441(9)
Hg1A Hg -1.2716(9) 0.16646(3) -1.3441(9)
S2_2 S -0.7760(2) 0.0328(2) -0.98577(15)
S3A S -0.54038(19) -0.0939(2) -0.72630(12)
S4_2 S -0.74033(18) -0.4737(2) -0.8538(2)
loop_
_geom_bond_atom_site_label_1
_geom_bond_atom_site_label_2
_geom_bond_site_symmetry_1
_geom_bond_site_symmetry_2
Hg1 S1 1_555 1_555
Co1 N1 1_555 1_555
S1 C7 1_555 1_555
S2 C8 1_555 1_555
S3 C10 1_555 1_555
S4 C9 1_555 1_555
N1 N2 1_555 1_555
N2 H1 1_555 1_555
N3 Co1 1_555 1_555
N4 N3 1_555 1_555
H2 N4 1_555 1_555
N5 Co1 1_555 1_555
N6 Co1 1_555 1_555
N7 Co1 1_555 1_555
N8 Co1 1_555 1_555
C1 N2 1_555 1_555
H3 C1 1_555 1_555
C2 C1 1_555 1_555
H4 C2 1_555 1_555
C3 N1 1_555 1_555
H5 C3 1_555 1_555
C4 N3 1_555 1_555
H6 C4 1_555 1_555
C5 C4 1_555 1_555
H7 C5 1_555 1_555
C6 N4 1_555 1_555
H8 C6 1_555 1_555
C7 N5 1_555 1_555
C8 N6 1_555 1_555
C9 N7 1_555 1_555
C10 N8 1_555 1_555
Hg1_2 S2 1_555 1_555
Hg1_3 S4 1_555 1_555
Hg1A S3 1_555 1_555
S2_2 Hg1 1_555 1_555
S3A Hg1 1_555 1_555
S4_2 Hg1 1_555 1_555
C2 C3 1_555 1_555
C5 C6 1_555 1_555

#END
