
#######################################################################
#
#                 Cambridge Crystallographic Data Centre
#                                CCDC 
#
#######################################################################
#
# If this CIF has been generated from an entry in the Cambridge 
# Structural Database, then it will include bibliographic, chemical, 
# crystal, experimental, refinement or atomic coordinate data resulting 
# from the CCDC's data processing and validation procedures.
#
#######################################################################

data_YOFFEG
_symmetry_cell_setting           triclinic
_symmetry_space_group_name_H-M   'P -1'
_symmetry_Int_Tables_number      2
_space_group_name_Hall           '-P 1'
loop_
_symmetry_equiv_pos_site_id
_symmetry_equiv_pos_as_xyz
1 x,y,z
2 -x,-y,-z
_cell_length_a                   10.312(2)
_cell_length_b                   11.373(2)
_cell_length_c                   11.579(2)
_cell_angle_alpha                88.94(3)
_cell_angle_beta                 84.90(3)
_cell_angle_gamma                77.45(3)
_cell_volume                     1320.27
loop_
_atom_site_label
_atom_site_type_symbol
_atom_site_fract_x
_atom_site_fract_y
_atom_site_fract_z
C1 C -0.1255(2) 0.72865(19) 0.78559(19)
C2 C 0.02242(19) 0.72480(17) 0.77870(17)
C3 C 0.07693(19) 0.79950(17) 0.70012(17)
H1 H 0.0212 0.8542 0.6559
C4 C 0.21353(19) 0.79289(17) 0.68750(16)
C5 C 0.29582(19) 0.70854(18) 0.75199(16)
H2 H 0.3876 0.7021 0.7421
C6 C 0.24389(18) 0.63346(17) 0.83099(16)
C7 C 0.10626(18) 0.64319(17) 0.84496(16)
H3 H 0.0702 0.5949 0.8989
C8 C 0.33913(19) 0.54223(17) 0.89732(16)
C9 C 0.2718(2) 0.87586(18) 0.60381(17)
C10 C -0.1568(3) 0.3501(2) 0.8215(2)
H4 H -0.1249 0.3614 0.8922
C11 C -0.2676(3) 0.3758(3) 0.6744(3)
H5 H -0.3288 0.4101 0.6225
C12 C -0.1837(3) 0.2670(3) 0.6607(3)
H6 H -0.1762 0.2136 0.5993
C13 C -0.0154(3) 0.1419(3) 0.7817(3)
H7 H 0.0315 0.1074 0.7097
H8 H -0.0632 0.0838 0.8169
C14 C 0.0841(3) 0.1616(3) 0.8606(3)
H9 H 0.0383 0.1971 0.9326
H10 H 0.1351 0.2170 0.8250
C15 C 0.1779(3) 0.0426(3) 0.8858(3)
H11 H 0.1271 -0.0088 0.9288
H12 H 0.2138 0.0029 0.8128
C16 C 0.4611(2) -0.1320(2) 0.9018(2)
H13 H 0.4834 -0.1092 0.8264
C17 C 0.4514(3) -0.2341(2) 1.0582(2)
H14 H 0.4664 -0.2965 1.1118
C18 C 0.3673(3) -0.1260(3) 1.0779(2)
H15 H 0.3150 -0.1006 1.1462
C19 C 0.2899(3) 0.0556(2) 0.9524(3)
H16 H 0.3434 0.1042 0.9085
H17 H 0.2548 0.0971 1.0247
C20 C 0.7393(2) 0.7708(2) 0.4314(2)
H18 H 0.8009 0.7991 0.4710
C21 C 0.6465(4) 0.6510(3) 0.3402(3)
H19 H 0.6299 0.5835 0.3051
C22 C 0.5626(3) 0.7595(3) 0.3555(3)
H20 H 0.4774 0.7797 0.3305
C23 C 0.8781(3) 0.5626(3) 0.3903(3)
H21 H 0.9430 0.5731 0.3271
H22 H 0.8523 0.4871 0.3775
C24 C 0.9414(3) 0.5547(3) 0.4995(3)
H23 H 0.8760 0.5485 0.5635
H24 H 0.9734 0.6276 0.5102
H25 H 0.693(2) 0.9336(17) 0.663(2)
H26 H -0.321(3) 0.722(3) 0.687(3)
H27 H 0.711(2) 1.016(3) 0.583(2)
H28 H -0.448(2) 0.725(3) 0.649(3)
Mn1 Mn -0.35949(3) 0.59638(3) 0.86679(3)
Mn2 Mn 0.5000 1.0000 0.5000
N1 N 0.51151(19) -0.23803(17) 0.94692(17)
N2 N 0.3744(2) -0.06154(18) 0.97752(19)
N3 N -0.25008(19) 0.42831(19) 0.77510(18)
N4 N -0.1123(2) 0.2515(2) 0.7552(2)
N5 N 0.6205(2) 0.83528(17) 0.41289(17)
N6 N 0.7608(2) 0.6608(2) 0.3869(2)
O1 O -0.17038(15) 0.65842(16) 0.85277(14)
O2 O -0.19203(17) 0.8006(2) 0.7191(2)
O3 O 0.19341(16) 0.94093(16) 0.54119(15)
O4 O 0.39427(14) 0.87517(14) 0.60419(13)
O5 O 0.46066(14) 0.52592(13) 0.86557(13)
O6 O 0.28767(14) 0.48731(14) 0.97721(13)
O7 O 0.65134(16) 0.99422(15) 0.62808(14)
O8 O -0.38300(16) 0.68411(17) 0.68350(15)
C20A C 1.2607(2) 0.2292(2) 0.5686(2)
H18A H 1.1991 0.2009 0.5290
C21A C 1.3535(4) 0.3490(3) 0.6598(3)
H19A H 1.3701 0.4165 0.6949
C22A C 1.4374(3) 0.2405(3) 0.6445(3)
H20A H 1.5226 0.2203 0.6695
C23A C 1.1219(3) 0.4374(3) 0.6097(3)
H21A H 1.0570 0.4269 0.6729
H22A H 1.1477 0.5129 0.6225
C24A C 1.0586(3) 0.4453(3) 0.5005(3)
H23A H 1.1240 0.4515 0.4365
H24A H 1.0266 0.3724 0.4898
N5A N 1.3795(2) 0.16472(17) 0.58711(17)
N6A N 1.2392(2) 0.3392(2) 0.6131(2)
C1A C 0.1255(2) 0.27135(19) 1.21441(19)
C2A C -0.02242(19) 0.27520(17) 1.22130(17)
C3A C -0.07693(19) 0.20050(17) 1.29988(17)
H1A H -0.0212 0.1458 1.3441
C4A C -0.21353(19) 0.20711(17) 1.31250(16)
C5A C -0.29582(19) 0.29146(18) 1.24801(16)
H2A H -0.3876 0.2979 1.2579
C6A C -0.24389(18) 0.36654(17) 1.16901(16)
C7A C -0.10626(18) 0.35681(17) 1.15504(16)
H3A H -0.0702 0.4051 1.1011
C8A C -0.33913(19) 0.45777(17) 1.10268(16)
C9A C -0.2718(2) 0.12414(18) 1.39619(17)
C10A C 0.1568(3) 0.6499(2) 1.1785(2)
H4A H 0.1249 0.6386 1.1078
C11A C 0.2676(3) 0.6242(3) 1.3256(3)
H5A H 0.3288 0.5899 1.3775
C12A C 0.1837(3) 0.7330(3) 1.3393(3)
H6A H 0.1762 0.7864 1.4007
C13A C 0.0154(3) 0.8581(3) 1.2183(3)
H7A H -0.0315 0.8926 1.2903
H8A H 0.0632 0.9162 1.1831
C14A C -0.0841(3) 0.8384(3) 1.1394(3)
H9A H -0.0383 0.8029 1.0674
H10A H -0.1351 0.7830 1.1750
C15A C -0.1779(3) 0.9574(3) 1.1142(3)
H11A H -0.1271 1.0088 1.0712
H12A H -0.2138 0.9971 1.1872
C16A C -0.4611(2) 1.1320(2) 1.0982(2)
H13A H -0.4834 1.1092 1.1736
C17A C -0.4514(3) 1.2341(2) 0.9418(2)
H14A H -0.4664 1.2965 0.8882
C18A C -0.3673(3) 1.1260(3) 0.9221(2)
H15A H -0.3150 1.1006 0.8538
C19A C -0.2899(3) 0.9444(2) 1.0476(3)
H16A H -0.3434 0.8958 1.0915
H17A H -0.2548 0.9029 0.9753
H26A H 0.321(3) 0.278(3) 1.313(3)
H28A H 0.448(2) 0.275(3) 1.351(3)
Mn1A Mn 0.35949(3) 0.40362(3) 1.13321(3)
N1A N -0.51151(19) 1.23803(17) 1.05308(17)
N2A N -0.3744(2) 1.06154(18) 1.02248(19)
N3A N 0.25008(19) 0.57169(19) 1.22490(18)
N4A N 0.1123(2) 0.7485(2) 1.2448(2)
O1A O 0.17038(15) 0.34158(16) 1.14723(14)
O2A O 0.19203(17) 0.1994(2) 1.2809(2)
O3A O -0.19341(16) 0.05907(16) 1.45881(15)
O4A O -0.39427(14) 0.12483(14) 1.39581(13)
O5A O -0.46066(14) 0.47408(13) 1.13443(13)
O6A O -0.28767(14) 0.51269(14) 1.02279(13)
O8A O 0.38300(16) 0.31589(17) 1.31650(15)
H25A H 0.307(2) 1.0664(17) 0.337(2)
H27A H 0.289(2) 0.984(3) 0.417(2)
O7A O 0.34866(16) 1.00578(15) 0.37192(14)
Mn1_2 Mn 0.64051(3) -0.40362(3) 0.86679(3)
Mn1_3 Mn 0.64051(3) 0.59638(3) 0.86679(3)
Mn1A_2 Mn -0.64051(3) 0.40362(3) 1.13321(3)
Mn1A_3 Mn -0.64051(3) 1.40362(3) 1.13321(3)
Mn2_2 Mn -0.5000 0.0000 1.5000
Mn2_3 Mn 1.5000 0.0000 0.5000
N1_2 N -0.48849(19) 0.76197(17) 0.94692(17)
N1A_2 N 0.48849(19) 0.23803(17) 1.05308(17)
N5A_2 N 0.3795(2) 1.16472(17) 0.58711(17)
O4A_2 O 0.60573(14) 1.12483(14) 0.39581(13)
O5_2 O -0.53934(14) 0.52592(13) 0.86557(13)
O5A_2 O 0.53934(14) 0.47408(13) 1.13443(13)
loop_
_geom_bond_atom_site_label_1
_geom_bond_atom_site_label_2
_geom_bond_site_symmetry_1
_geom_bond_site_symmetry_2
C1 C2 1_555 1_555
C2 C3 1_555 1_555
C3 H1 1_555 1_555
C4 C3 1_555 1_555
C5 C4 1_555 1_555
H2 C5 1_555 1_555
C6 C5 1_555 1_555
C7 C2 1_555 1_555
H3 C7 1_555 1_555
C8 C6 1_555 1_555
C9 C4 1_555 1_555
C10 H4 1_555 1_555
C11 H5 1_555 1_555
C12 C11 1_555 1_555
H6 C12 1_555 1_555
C13 H7 1_555 1_555
H8 C13 1_555 1_555
C14 C13 1_555 1_555
H9 C14 1_555 1_555
H10 C14 1_555 1_555
C15 C14 1_555 1_555
H11 C15 1_555 1_555
H12 C15 1_555 1_555
C16 H13 1_555 1_555
C17 H14 1_555 1_555
C18 C17 1_555 1_555
H15 C18 1_555 1_555
C19 C15 1_555 1_555
H16 C19 1_555 1_555
H17 C19 1_555 1_555
C20 H18 1_555 1_555
C21 H19 1_555 1_555
C22 C21 1_555 1_555
H20 C22 1_555 1_555
C23 H21 1_555 1_555
H22 C23 1_555 1_555
C24 C23 1_555 1_555
H23 C24 1_555 1_555
H24 C24 1_555 1_555
H25 O7 1_555 1_555
H26 O8 1_555 1_555
H27 O7 1_555 1_555
H28 O8 1_555 1_555
Mn1 N3 1_555 1_555
Mn2 N5 1_555 1_555
N1 C16 1_555 1_555
N2 C16 1_555 1_555
N3 C10 1_555 1_555
N4 C10 1_555 1_555
N5 C20 1_555 1_555
N6 C20 1_555 1_555
O1 C1 1_555 1_555
O2 C1 1_555 1_555
O3 C9 1_555 1_555
O4 C9 1_555 1_555
O5 C8 1_555 1_555
O6 C8 1_555 1_555
O7 Mn2 1_555 1_555
O8 Mn1 1_555 1_555
C20A H18A 1_555 1_555
C21A H19A 1_555 1_555
C22A C21A 1_555 1_555
H20A C22A 1_555 1_555
C23A H21A 1_555 1_555
H22A C23A 1_555 1_555
C24A C24 1_555 1_555
H23A C24A 1_555 1_555
H24A C24A 1_555 1_555
N5A C20A 1_555 1_555
N6A C20A 1_555 1_555
C1A C2A 1_555 1_555
C2A C3A 1_555 1_555
C3A H1A 1_555 1_555
C4A C3A 1_555 1_555
C5A C4A 1_555 1_555
H2A C5A 1_555 1_555
C6A C5A 1_555 1_555
C7A C2A 1_555 1_555
H3A C7A 1_555 1_555
C8A C6A 1_555 1_555
C9A C4A 1_555 1_555
C10A H4A 1_555 1_555
C11A H5A 1_555 1_555
C12A C11A 1_555 1_555
H6A C12A 1_555 1_555
C13A H7A 1_555 1_555
H8A C13A 1_555 1_555
C14A C13A 1_555 1_555
H9A C14A 1_555 1_555
H10A C14A 1_555 1_555
C15A C14A 1_555 1_555
H11A C15A 1_555 1_555
H12A C15A 1_555 1_555
C16A H13A 1_555 1_555
C17A H14A 1_555 1_555
C18A C17A 1_555 1_555
H15A C18A 1_555 1_555
C19A C15A 1_555 1_555
H16A C19A 1_555 1_555
H17A C19A 1_555 1_555
H26A O8A 1_555 1_555
H28A O8A 1_555 1_555
Mn1A O6 1_555 1_555
N1A C16A 1_555 1_555
N2A C16A 1_555 1_555
N3A C10A 1_555 1_555
N4A C10A 1_555 1_555
O1A C1A 1_555 1_555
O2A C1A 1_555 1_555
O3A C9A 1_555 1_555
O4A C9A 1_555 1_555
O5A C8A 1_555 1_555
O6A Mn1 1_555 1_555
O8A Mn1A 1_555 1_555
H25A O7A 1_555 1_555
H27A O7A 1_555 1_555
O7A Mn2 1_555 1_555
Mn1_2 N1 1_555 1_555
Mn1_3 O5 1_555 1_555
Mn1A_2 O5A 1_555 1_555
Mn1A_3 N1A 1_555 1_555
Mn2_2 O4A 1_555 1_555
Mn2_3 N5A 1_555 1_555
N1_2 Mn1 1_555 1_555
N1A_2 Mn1A 1_555 1_555
N5A_2 Mn2 1_555 1_555
O4A_2 Mn2 1_555 1_555
O5_2 Mn1 1_555 1_555
O5A_2 Mn1A 1_555 1_555
C6 C7 1_555 1_555
C11 N3 1_555 1_555
C12 N4 1_555 1_555
C13 N4 1_555 1_555
C17 N1 1_555 1_555
C18 N2 1_555 1_555
C19 N2 1_555 1_555
C21 N6 1_555 1_555
C22 N5 1_555 1_555
C23 N6 1_555 1_555
Mn1 O1 1_555 1_555
Mn2 O4 1_555 1_555
C21A N6A 1_555 1_555
C22A N5A 1_555 1_555
C23A C24A 1_555 1_555
C23A N6A 1_555 1_555
C6A C7A 1_555 1_555
C8A O6A 1_555 1_555
C11A N3A 1_555 1_555
C12A N4A 1_555 1_555
C13A N4A 1_555 1_555
C17A N1A 1_555 1_555
C18A N2A 1_555 1_555
C19A N2A 1_555 1_555
Mn1A N3A 1_555 1_555
Mn1A O1A 1_555 1_555

#END
