
#######################################################################
#
#                 Cambridge Crystallographic Data Centre
#                                CCDC 
#
#######################################################################
#
# If this CIF has been generated from an entry in the Cambridge 
# Structural Database, then it will include bibliographic, chemical, 
# crystal, experimental, refinement or atomic coordinate data resulting 
# from the CCDC's data processing and validation procedures.
#
#######################################################################

data_YOFFIK
_symmetry_cell_setting           triclinic
_symmetry_space_group_name_H-M   'P -1'
_symmetry_Int_Tables_number      2
_space_group_name_Hall           '-P 1'
loop_
_symmetry_equiv_pos_site_id
_symmetry_equiv_pos_as_xyz
1 x,y,z
2 -x,-y,-z
_cell_length_a                   10.181(2)
_cell_length_b                   11.869(2)
_cell_length_c                   13.345(3)
_cell_angle_alpha                81.35(3)
_cell_angle_beta                 68.96(3)
_cell_angle_gamma                75.20(3)
_cell_volume                     1452.06
loop_
_atom_site_label
_atom_site_type_symbol
_atom_site_fract_x
_atom_site_fract_y
_atom_site_fract_z
C1 C 0.2086(6) 0.4230(6) 0.3613(5)
C2 C 0.3594(6) 0.3579(6) 0.3274(5)
C3 C 0.4601(6) 0.3839(6) 0.3643(5)
H1 H 0.4306 0.4423 0.4121
C4 C 0.6011(6) 0.3251(6) 0.3313(5)
C5 C 0.6463(6) 0.2374(6) 0.2586(5)
H2 H 0.7430 0.2001 0.2327
C6 C 0.5463(7) 0.2066(6) 0.2255(5)
C7 C 0.4060(7) 0.2684(6) 0.2576(5)
H3 H 0.3404 0.2501 0.2323
C8 C 0.7105(7) 0.3527(6) 0.3685(6)
C9 C 0.5947(8) 0.1080(7) 0.1505(6)
C10 C 0.3803(11) 0.2735(8) -0.0396(7)
H4 H 0.3010 0.2743 0.0231
C11 C 0.5706(10) 0.2170(9) -0.1684(7)
H5 H 0.6520 0.1692 -0.2124
C12 C 0.5315(11) 0.3332(9) -0.1852(8)
H6 H 0.5776 0.3798 -0.2429
C13 C 0.3271(14) 0.4888(9) -0.0853(7)
H7 H 0.3833 0.5428 -0.1324
H8 H 0.2412 0.4979 -0.1040
C14 C 0.2847(13) 0.5180(9) 0.0273(8)
H9 H 0.3696 0.5006 0.0488
H10 H 0.2192 0.4703 0.0738
C15 C 0.2107(12) 0.6483(9) 0.0406(8)
H11 H 0.2025 0.6681 0.1109
H12 H 0.2716 0.6949 -0.0131
C16 C 0.0626(10) 0.6804(9) 0.0299(8)
H13 H 0.0047 0.6282 0.0782
H14 H 0.0719 0.6688 -0.0429
C17 C -0.0155(10) 0.8055(8) 0.0549(7)
H15 H -0.1061 0.8210 0.0412
H16 H 0.0422 0.8574 0.0058
C18 C -0.0469(9) 0.8347(8) 0.1693(7)
H17 H 0.0430 0.8311 0.1807
H18 H -0.1044 0.9136 0.1802
C19 C -0.0682(8) 0.6610(7) 0.3012(6)
H19 H 0.0268 0.6442 0.2998
C20 C -0.2632(9) 0.7467(9) 0.2681(8)
H20 H -0.3297 0.7992 0.2413
C21 C -0.2878(9) 0.6492(9) 0.3358(8)
H21 H -0.3735 0.6233 0.3627
C22 C 0.0808(9) 0.1754(7) 0.4980(7)
H22 H 0.1663 0.1894 0.4468
C23 C -0.1376(10) 0.1935(9) 0.5927(7)
H23 H -0.2363 0.2237 0.6207
C24 C -0.0684(12) 0.0913(9) 0.6290(8)
H24 H -0.1086 0.0396 0.6844
C25 C 0.1966(15) -0.0148(10) 0.5737(10)
H25 H 0.1807 -0.0873 0.5597
H26 H 0.1983 -0.0229 0.6467
C26 C 0.3468(13) 0.0013(16) 0.4955(13)
C27 C 0.506(2) -0.060(2) 0.4834(18)
H27 H 0.746(12) 0.013(9) -0.021(6)
H28 H 0.791(5) -0.079(2) -0.096(4)
Mn1 Mn -0.10865(10) 0.42042(10) 0.43250(8)
Mn2 Mn 0.5000 0.0000 0.0000
N1 N 0.4743(7) 0.1799(6) -0.0780(5)
N2 N 0.4127(9) 0.3680(6) -0.1021(5)
N3 N -0.1248(7) 0.7528(6) 0.2473(5)
N4 N -0.1616(6) 0.5970(6) 0.3564(5)
N5 N -0.0457(7) 0.2458(6) 0.5111(5)
N6 N 0.0721(9) 0.0808(6) 0.5672(6)
O1 O 0.1713(5) 0.5127(4) 0.4139(4)
O2 O 0.1187(4) 0.3852(4) 0.3373(4)
O3 O 0.6679(5) 0.3957(5) 0.4585(4)
O4 O 0.8404(5) 0.3367(5) 0.3094(4)
O5 O 0.7238(5) 0.0667(5) 0.1110(5)
O6 O 0.4925(5) 0.0769(4) 0.1369(4)
O7 O 0.7393(6) -0.0131(5) -0.0740(5)
C22A C 0.9192(9) -0.1754(7) 0.5020(7)
H22A H 0.8337 -0.1894 0.5532
C23A C 1.1376(10) -0.1935(9) 0.4073(7)
H23A H 1.2363 -0.2237 0.3793
C24A C 1.0684(12) -0.0913(9) 0.3710(8)
H24A H 1.1086 -0.0396 0.3156
C25A C 0.8034(15) 0.0148(10) 0.4263(10)
H25A H 0.8193 0.0873 0.4403
H26A H 0.8017 0.0229 0.3533
C26A C 0.6532(13) -0.0013(16) 0.5045(13)
C27A C 0.494(2) 0.060(2) 0.5166(18)
N5A N 1.0457(7) -0.2458(6) 0.4889(5)
N6A N 0.9279(9) -0.0808(6) 0.4328(6)
C1A C -0.2086(6) 0.5770(6) 0.6387(5)
C2A C -0.3594(6) 0.6421(6) 0.6726(5)
C3A C -0.4601(6) 0.6161(6) 0.6357(5)
H1A H -0.4306 0.5577 0.5879
C4A C -0.6011(6) 0.6749(6) 0.6687(5)
C5A C -0.6463(6) 0.7626(6) 0.7414(5)
H2A H -0.7430 0.7999 0.7673
C6A C -0.5463(7) 0.7934(6) 0.7745(5)
C7A C -0.4060(7) 0.7316(6) 0.7424(5)
H3A H -0.3404 0.7499 0.7677
C8A C -0.7105(7) 0.6473(6) 0.6315(6)
C9A C -0.5947(8) 0.8920(7) 0.8495(6)
C10A C -0.3803(11) 0.7265(8) 1.0396(7)
H4A H -0.3010 0.7257 0.9769
C11A C -0.5706(10) 0.7830(9) 1.1684(7)
H5A H -0.6520 0.8308 1.2124
C12A C -0.5315(11) 0.6668(9) 1.1852(8)
H6A H -0.5776 0.6202 1.2429
C13A C -0.3271(14) 0.5112(9) 1.0853(7)
H7A H -0.3833 0.4572 1.1324
H8A H -0.2412 0.5021 1.1040
C14A C -0.2847(13) 0.4820(9) 0.9727(8)
H9A H -0.3696 0.4994 0.9512
H10A H -0.2192 0.5297 0.9262
C15A C -0.2107(12) 0.3517(9) 0.9594(8)
H11A H -0.2025 0.3319 0.8891
H12A H -0.2716 0.3051 1.0131
C16A C -0.0626(10) 0.3196(9) 0.9701(8)
H13A H -0.0047 0.3718 0.9218
H14A H -0.0719 0.3312 1.0429
C17A C 0.0155(10) 0.1945(8) 0.9451(7)
H15A H 0.1061 0.1790 0.9588
H16A H -0.0422 0.1426 0.9942
C18A C 0.0469(9) 0.1653(8) 0.8307(7)
H17A H -0.0430 0.1689 0.8193
H18A H 0.1044 0.0864 0.8198
C19A C 0.0682(8) 0.3390(7) 0.6988(6)
H19A H -0.0268 0.3558 0.7002
C20A C 0.2632(9) 0.2533(9) 0.7319(8)
H20A H 0.3297 0.2008 0.7587
C21A C 0.2878(9) 0.3508(9) 0.6642(8)
H21A H 0.3735 0.3767 0.6373
Mn1A Mn 0.10865(10) 0.57958(10) 0.56750(8)
N1A N -0.4743(7) 0.8201(6) 1.0780(5)
N2A N -0.4127(9) 0.6320(6) 1.1021(5)
N3A N 0.1248(7) 0.2472(6) 0.7527(5)
N4A N 0.1616(6) 0.4030(6) 0.6436(5)
O1A O -0.1713(5) 0.4873(4) 0.5861(4)
O2A O -0.1187(4) 0.6148(4) 0.6627(4)
O3A O -0.6679(5) 0.6043(5) 0.5415(4)
O4A O -0.8404(5) 0.6633(5) 0.6906(4)
O5A O -0.7238(5) 0.9333(5) 0.8890(5)
O6A O -0.4925(5) 0.9231(4) 0.8631(4)
H27A H 0.254(12) -0.013(9) 0.021(6)
H28A H 0.209(5) 0.079(2) 0.096(4)
O7A O 0.2607(6) 0.0131(5) 0.0740(5)
Mn1_2 Mn 0.89135(10) 0.42042(10) 0.43250(8)
Mn1A_2 Mn -0.89135(10) 0.57958(10) 0.56750(8)
Mn1A_3 Mn 1.10865(10) -0.42042(10) 0.56750(8)
Mn2_2 Mn -0.5000 1.0000 1.0000
N1A_2 N 0.5257(7) -0.1799(6) 0.0780(5)
N5A_2 N 0.0457(7) 0.7542(6) 0.4889(5)
O3_2 O -0.3321(5) 0.3957(5) 0.4585(4)
O3A_2 O 0.3321(5) 0.6043(5) 0.5415(4)
O4_2 O -0.1596(5) 0.3367(5) 0.3094(4)
O4A_2 O 0.1596(5) 0.6633(5) 0.6906(4)
O6A_2 O 0.5075(5) -0.0769(4) -0.1369(4)
H29 H 0.028(10) 0.269(7) 0.206(12)
H30 H 0.067(14) 0.151(7) 0.229(10)
O8 O 0.0992(8) 0.2105(12) 0.1964(8)
loop_
_geom_bond_atom_site_label_1
_geom_bond_atom_site_label_2
_geom_bond_site_symmetry_1
_geom_bond_site_symmetry_2
C1 C2 1_555 1_555
C2 C3 1_555 1_555
C3 H1 1_555 1_555
C4 C3 1_555 1_555
C5 C4 1_555 1_555
H2 C5 1_555 1_555
C6 C5 1_555 1_555
C7 C2 1_555 1_555
H3 C7 1_555 1_555
C8 C4 1_555 1_555
C9 C6 1_555 1_555
C10 H4 1_555 1_555
C11 H5 1_555 1_555
C12 C11 1_555 1_555
H6 C12 1_555 1_555
C13 H7 1_555 1_555
H8 C13 1_555 1_555
C14 C13 1_555 1_555
H9 C14 1_555 1_555
H10 C14 1_555 1_555
C15 C14 1_555 1_555
H11 C15 1_555 1_555
H12 C15 1_555 1_555
C16 C15 1_555 1_555
H13 C16 1_555 1_555
H14 C16 1_555 1_555
C17 C16 1_555 1_555
H15 C17 1_555 1_555
H16 C17 1_555 1_555
C18 C17 1_555 1_555
H17 C18 1_555 1_555
H18 C18 1_555 1_555
C19 H19 1_555 1_555
C20 H20 1_555 1_555
C21 C20 1_555 1_555
H21 C21 1_555 1_555
C22 H22 1_555 1_555
C23 H23 1_555 1_555
C24 C23 1_555 1_555
H24 C24 1_555 1_555
C25 H25 1_555 1_555
H26 C25 1_555 1_555
C26 C25 1_555 1_555
C27 C26 1_555 1_555
H27 O7 1_555 1_555
H28 O7 1_555 1_555
Mn1 N4 1_555 1_555
Mn2 N1 1_555 1_555
N1 C10 1_555 1_555
N2 C10 1_555 1_555
N3 C18 1_555 1_555
N4 C19 1_555 1_555
N5 C22 1_555 1_555
N6 C22 1_555 1_555
O1 C1 1_555 1_555
O2 C1 1_555 1_555
O3 C8 1_555 1_555
O4 C8 1_555 1_555
O5 C9 1_555 1_555
O6 C9 1_555 1_555
O7 Mn2 1_555 1_555
H29 O8 1_555 1_555
H30 O8 1_555 1_555
C22A H22A 1_555 1_555
C23A H23A 1_555 1_555
C24A C23A 1_555 1_555
H24A C24A 1_555 1_555
C25A H25A 1_555 1_555
H26A C25A 1_555 1_555
C26A C25A 1_555 1_555
C27A C27 1_555 1_555
N5A C22A 1_555 1_555
N6A C22A 1_555 1_555
C1A C2A 1_555 1_555
C2A C3A 1_555 1_555
C3A H1A 1_555 1_555
C4A C3A 1_555 1_555
C5A C4A 1_555 1_555
H2A C5A 1_555 1_555
C6A C5A 1_555 1_555
C7A C2A 1_555 1_555
H3A C7A 1_555 1_555
C8A C4A 1_555 1_555
C9A C6A 1_555 1_555
C10A H4A 1_555 1_555
C11A H5A 1_555 1_555
C12A C11A 1_555 1_555
H6A C12A 1_555 1_555
C13A H7A 1_555 1_555
H8A C13A 1_555 1_555
C14A C13A 1_555 1_555
H9A C14A 1_555 1_555
H10A C14A 1_555 1_555
C15A C14A 1_555 1_555
H11A C15A 1_555 1_555
H12A C15A 1_555 1_555
C16A C15A 1_555 1_555
H13A C16A 1_555 1_555
H14A C16A 1_555 1_555
C17A C16A 1_555 1_555
H15A C17A 1_555 1_555
H16A C17A 1_555 1_555
C18A C17A 1_555 1_555
H17A C18A 1_555 1_555
H18A C18A 1_555 1_555
C19A H19A 1_555 1_555
C20A H20A 1_555 1_555
C21A C20A 1_555 1_555
H21A C21A 1_555 1_555
Mn1A O1 1_555 1_555
N1A C10A 1_555 1_555
N2A C10A 1_555 1_555
N3A C18A 1_555 1_555
N4A C19A 1_555 1_555
O1A Mn1 1_555 1_555
O2A C1A 1_555 1_555
O3A C8A 1_555 1_555
O4A C8A 1_555 1_555
O5A C9A 1_555 1_555
O6A C9A 1_555 1_555
H27A O7A 1_555 1_555
H28A O7A 1_555 1_555
O7A Mn2 1_555 1_555
Mn1_2 O3 1_555 1_555
Mn1A_2 O3A 1_555 1_555
Mn1A_3 N5A 1_555 1_555
Mn2_2 N1A 1_555 1_555
N1A_2 Mn2 1_555 1_555
N5A_2 Mn1A 1_555 1_555
O3_2 Mn1 1_555 1_555
O3A_2 Mn1A 1_555 1_555
O4_2 Mn1 1_555 1_555
O4A_2 Mn1A 1_555 1_555
O6A_2 Mn2 1_555 1_555
C6 C7 1_555 1_555
C11 N1 1_555 1_555
C12 N2 1_555 1_555
C13 N2 1_555 1_555
C19 N3 1_555 1_555
C20 N3 1_555 1_555
C21 N4 1_555 1_555
C23 N5 1_555 1_555
C24 N6 1_555 1_555
C25 N6 1_555 1_555
Mn1 N5 1_555 1_555
Mn1 O2 1_555 1_555
Mn2 O6 1_555 1_555
O4 Mn1_2 1_555 1_555
C23A N5A 1_555 1_555
C24A N6A 1_555 1_555
C25A N6A 1_555 1_555
C26A C27A 1_555 1_555
C1A O1A 1_555 1_555
C6A C7A 1_555 1_555
C11A N1A 1_555 1_555
C12A N2A 1_555 1_555
C13A N2A 1_555 1_555
C19A N3A 1_555 1_555
C20A N3A 1_555 1_555
C21A N4A 1_555 1_555
Mn1A N4A 1_555 1_555
Mn1A O2A 1_555 1_555
O4A Mn1A_2 1_555 1_555
O6A Mn2_2 1_555 1_555

#END
