
#######################################################################
#
#                 Cambridge Crystallographic Data Centre
#                                CCDC 
#
#######################################################################
#
# If this CIF has been generated from an entry in the Cambridge 
# Structural Database, then it will include bibliographic, chemical, 
# crystal, experimental, refinement or atomic coordinate data resulting 
# from the CCDC's data processing and validation procedures.
#
#######################################################################

data_YOFGOR
_symmetry_cell_setting           orthorhombic
_symmetry_space_group_name_H-M   'F d d 2'
_symmetry_Int_Tables_number      43
_space_group_name_Hall           'F 2 -2d'
loop_
_symmetry_equiv_pos_site_id
_symmetry_equiv_pos_as_xyz
1 x,y,z
2 -x,-y,z
3 1/4-x,1/4+y,1/4+z
4 3/4+x,3/4-y,1/4+z
5 x,1/2+y,1/2+z
6 -x,1/2-y,1/2+z
7 1/4-x,3/4+y,3/4+z
8 3/4+x,1/4-y,3/4+z
9 1/2+x,y,1/2+z
10 1/2-x,-y,1/2+z
11 3/4-x,1/4+y,3/4+z
12 1/4+x,3/4-y,3/4+z
13 1/2+x,1/2+y,z
14 1/2-x,1/2-y,z
15 3/4-x,3/4+y,1/4+z
16 1/4+x,1/4-y,1/4+z
_cell_length_a                   39.120(8)
_cell_length_b                   22.963(4)
_cell_length_c                   8.9473(18)
_cell_angle_alpha                90
_cell_angle_beta                 90
_cell_angle_gamma                90
_cell_volume                     8037.47
loop_
_atom_site_label
_atom_site_type_symbol
_atom_site_fract_x
_atom_site_fract_y
_atom_site_fract_z
Mn1 Mn 0.044300(11) 0.234924(17) 0.66496(5)
Mn2 Mn 0.013351(10) 0.169648(18) 0.31761(4)
O1 O 0.05548(5) 0.22022(9) 0.4324(2)
O2 O 0.06937(6) 0.15671(11) 0.2594(3)
O3 O 0.18751(6) 0.07126(10) 0.3896(3)
O4 O 0.22876(6) 0.13310(10) 0.4542(3)
O5 O 0.01202(8) 0.10658(12) 0.4881(3)
O6 O 0.02773(8) 0.14817(10) 0.7029(3)
O7 O -0.00914(5) 0.26804(9) 0.6184(2)
O8 O -0.02284(5) 0.23793(9) 0.3898(2)
O9 O 0.09112(7) 0.21456(16) 0.7785(4)
N1 N 0.14257(12) 0.1825(3) 0.8483(8)
C1 C 0.11487(7) 0.20319(12) 0.3928(3)
C2 C 0.13891(8) 0.15954(13) 0.3793(3)
H1 H 0.1324 0.1230 0.3443
C3 C 0.17277(7) 0.16984(11) 0.4179(4)
C4 C 0.18278(8) 0.22486(14) 0.4675(4)
H2 H 0.2055 0.2319 0.4927
C5 C 0.15857(9) 0.26916(14) 0.4792(5)
H3 H 0.1651 0.3061 0.5107
C6 C 0.12489(8) 0.25811(13) 0.4440(4)
H4 H 0.1087 0.2875 0.4543
C7 C 0.07793(7) 0.19225(12) 0.3582(3)
C8 C 0.19848(7) 0.12081(12) 0.4184(4)
C9 C 0.00798(8) 0.05086(12) 0.7089(4)
C10 C 0.0000 0.0000 0.6319(5)
C11 C 0.00781(10) 0.05071(15) 0.8646(4)
H5 H 0.0129 0.0846 0.9169
C12 C 0.0000 0.0000 0.9415(5)
C13 C 0.01649(8) 0.10650(13) 0.6261(4)
C14 C -0.02650(8) 0.26952(13) 0.5018(4)
H6 H -0.0439 0.2970 0.4979
C15 C 0.11455(11) 0.1797(2) 0.7690(6)
H7 H 0.1123 0.1493 0.7011
C16 C 0.1713(2) 0.1417(4) 0.8188(12)
H8 H 0.1661 0.1184 0.7313
H9 H 0.1919 0.1639 0.7977
C17 C 0.1777(2) 0.1027(4) 0.9470(12)
H10 H 0.1962 0.0769 0.9236
H11 H 0.1575 0.0804 0.9675
H12 H 0.1835 0.1256 1.0331
C18 C 0.1568(2) 0.2409(4) 0.8773(9)
H13 H 0.1815 0.2412 0.8650
H14 H 0.1468 0.2697 0.8113
C19 C 0.14726(19) 0.2517(4) 1.0333(10)
H15 H 0.1546 0.2900 1.0620
H16 H 0.1580 0.2233 1.0965
H17 H 0.1229 0.2489 1.0436
H18 H 0.0000 0.0000 0.536(8)
H19 H 0.0000 0.0000 1.046(15)
O5A O -0.01202(8) -0.10658(12) 0.4881(3)
O6A O -0.02773(8) -0.14817(10) 0.7029(3)
C9A C -0.00798(8) -0.05086(12) 0.7089(4)
C11A C -0.00781(10) -0.05071(15) 0.8646(4)
H5A H -0.0129 -0.0846 0.9169
C13A C -0.01649(8) -0.10650(13) 0.6261(4)
Mn1A Mn -0.044300(11) -0.234924(17) 0.66496(5)
Mn2A Mn -0.013351(10) -0.169648(18) 0.31761(4)
O1A O -0.05548(5) -0.22022(9) 0.4324(2)
O2A O -0.06937(6) -0.15671(11) 0.2594(3)
O3A O -0.18751(6) -0.07126(10) 0.3896(3)
O4A O -0.22876(6) -0.13310(10) 0.4542(3)
O7A O 0.00914(5) -0.26804(9) 0.6184(2)
O8A O 0.02284(5) -0.23793(9) 0.3898(2)
O9A O -0.09112(7) -0.21456(16) 0.7785(4)
N1A N -0.14257(12) -0.1825(3) 0.8483(8)
C1A C -0.11487(7) -0.20319(12) 0.3928(3)
C2A C -0.13891(8) -0.15954(13) 0.3793(3)
H1A H -0.1324 -0.1230 0.3443
C3A C -0.17277(7) -0.16984(11) 0.4179(4)
C4A C -0.18278(8) -0.22486(14) 0.4675(4)
H2A H -0.2055 -0.2319 0.4927
C5A C -0.15857(9) -0.26916(14) 0.4792(5)
H3A H -0.1651 -0.3061 0.5107
C6A C -0.12489(8) -0.25811(13) 0.4440(4)
H4A H -0.1087 -0.2875 0.4543
C7A C -0.07793(7) -0.19225(12) 0.3582(3)
C8A C -0.19848(7) -0.12081(12) 0.4184(4)
C14A C 0.02650(8) -0.26952(13) 0.5018(4)
H6A H 0.0439 -0.2970 0.4979
C15A C -0.11455(11) -0.1797(2) 0.7690(6)
H7A H -0.1123 -0.1493 0.7011
C16A C -0.1713(2) -0.1417(4) 0.8188(12)
H8A H -0.1661 -0.1184 0.7313
H9A H -0.1919 -0.1639 0.7977
C17A C -0.1777(2) -0.1027(4) 0.9470(12)
H10A H -0.1962 -0.0769 0.9236
H11A H -0.1575 -0.0804 0.9675
H12A H -0.1835 -0.1256 1.0331
C18A C -0.1568(2) -0.2409(4) 0.8773(9)
H13A H -0.1815 -0.2412 0.8650
H14A H -0.1468 -0.2697 0.8113
C19A C -0.14726(19) -0.2517(4) 1.0333(10)
H15A H -0.1546 -0.2900 1.0620
H16A H -0.1580 -0.2233 1.0965
H17A H -0.1229 -0.2489 1.0436
Mn1D Mn 0.044300(11) -0.265076(17) 0.16496(5)
Mn1E Mn -0.044300(11) 0.265076(17) 0.16496(5)
Mn1F Mn 0.205700(11) -0.015076(17) 0.41496(5)
Mn1G Mn -0.205700(11) 0.015076(17) 0.41496(5)
Mn2D Mn 0.013351(10) -0.330352(18) 0.81761(4)
Mn2E Mn -0.013351(10) 0.330352(18) 0.81761(4)
Mn2N Mn -0.263351(10) -0.080352(18) 0.56761(4)
Mn2O Mn 0.263351(10) 0.080352(18) 0.56761(4)
O3B O 0.06249(6) 0.32126(10) 0.6396(3)
O3C O -0.06249(6) -0.32126(10) 0.6396(3)
O4F O 0.02124(6) -0.11690(10) 0.2042(3)
O4G O -0.02124(6) 0.11690(10) 0.2042(3)
O7D O -0.00914(5) -0.23196(9) 0.1184(2)
O7E O 0.00914(5) 0.23196(9) 0.1184(2)
O8D O -0.02284(5) -0.26207(9) 0.8898(2)
O8E O 0.02284(5) 0.26207(9) 0.8898(2)
loop_
_geom_bond_atom_site_label_1
_geom_bond_atom_site_label_2
_geom_bond_site_symmetry_1
_geom_bond_site_symmetry_2
Mn1 O1 1_555 1_555
Mn2 O1 1_555 1_555
O1 C7 1_555 1_555
O2 Mn2 1_555 1_555
O3 C8 1_555 1_555
O4 C8 1_555 1_555
O5 Mn2 1_555 1_555
O6 Mn1 1_555 1_555
O7 Mn1 1_555 1_555
O8 Mn2 1_555 1_555
O9 Mn1 1_555 1_555
N1 C15 1_555 1_555
C1 C2 1_555 1_555
C2 H1 1_555 1_555
C3 C2 1_555 1_555
C4 C3 1_555 1_555
H2 C4 1_555 1_555
C5 C4 1_555 1_555
H3 C5 1_555 1_555
C6 C1 1_555 1_555
H4 C6 1_555 1_555
C7 O2 1_555 1_555
C8 C3 1_555 1_555
C9 C10 1_555 1_555
C10 H18 1_555 1_555
C11 C9 1_555 1_555
H5 C11 1_555 1_555
C12 C11 1_555 1_555
C13 O5 1_555 1_555
C14 O7 1_555 1_555
H6 C14 1_555 1_555
C15 O9 1_555 1_555
H7 C15 1_555 1_555
C16 N1 1_555 1_555
H8 C16 1_555 1_555
H9 C16 1_555 1_555
C17 C16 1_555 1_555
H10 C17 1_555 1_555
H11 C17 1_555 1_555
H12 C17 1_555 1_555
C18 N1 1_555 1_555
H13 C18 1_555 1_555
H14 C18 1_555 1_555
C19 C18 1_555 1_555
H15 C19 1_555 1_555
H16 C19 1_555 1_555
H17 C19 1_555 1_555
H19 C12 1_555 1_555
O5A C13A 1_555 1_555
O6A C13A 1_555 1_555
C9A C10 1_555 1_555
C11A C12 1_555 1_555
H5A C11A 1_555 1_555
C13A C9A 1_555 1_555
Mn1A O6A 1_555 1_555
Mn2A O5A 1_555 1_555
O1A Mn1A 1_555 1_555
O2A Mn2A 1_555 1_555
O3A C8A 1_555 1_555
O4A C8A 1_555 1_555
O7A Mn1A 1_555 1_555
O8A Mn2A 1_555 1_555
O9A Mn1A 1_555 1_555
N1A C15A 1_555 1_555
C1A C2A 1_555 1_555
C2A H1A 1_555 1_555
C3A C2A 1_555 1_555
C4A C3A 1_555 1_555
H2A C4A 1_555 1_555
C5A C4A 1_555 1_555
H3A C5A 1_555 1_555
C6A C1A 1_555 1_555
H4A C6A 1_555 1_555
C7A O1A 1_555 1_555
C8A C3A 1_555 1_555
C14A O7A 1_555 1_555
H6A C14A 1_555 1_555
C15A O9A 1_555 1_555
H7A C15A 1_555 1_555
C16A N1A 1_555 1_555
H8A C16A 1_555 1_555
H9A C16A 1_555 1_555
C17A C16A 1_555 1_555
H10A C17A 1_555 1_555
H11A C17A 1_555 1_555
H12A C17A 1_555 1_555
C18A N1A 1_555 1_555
H13A C18A 1_555 1_555
H14A C18A 1_555 1_555
C19A C18A 1_555 1_555
H15A C19A 1_555 1_555
H16A C19A 1_555 1_555
H17A C19A 1_555 1_555
Mn1D O8A 1_555 1_555
Mn1E O8 1_555 1_555
Mn1F O3 1_555 1_555
Mn1G O3A 1_555 1_555
Mn2D O7A 1_555 1_555
Mn2E O7 1_555 1_555
Mn2N O4A 1_555 1_555
Mn2O O4 1_555 1_555
O3B Mn1 1_555 1_555
O3C Mn1A 1_555 1_555
O4F Mn2A 1_555 1_555
O4G Mn2 1_555 1_555
O7D Mn2A 1_555 1_555
O7E Mn2 1_555 1_555
O8D Mn1A 1_555 1_555
O8E Mn1 1_555 1_555
O6 C13 1_555 1_555
O8 C14 1_555 1_555
C1 C7 1_555 1_555
C5 C6 1_555 1_555
C9 C13 1_555 1_555
C9A C11A 1_555 1_555
Mn2A O1A 1_555 1_555
O2A C7A 1_555 1_555
O8A C14A 1_555 1_555
C1A C7A 1_555 1_555
C5A C6A 1_555 1_555
Mn1D O7D 1_555 1_555
Mn1E O7E 1_555 1_555
Mn2D O8D 1_555 1_555
Mn2E O8E 1_555 1_555

#END
