
#######################################################################
#
#                 Cambridge Crystallographic Data Centre
#                                CCDC 
#
#######################################################################
#
# If this CIF has been generated from an entry in the Cambridge 
# Structural Database, then it will include bibliographic, chemical, 
# crystal, experimental, refinement or atomic coordinate data resulting 
# from the CCDC's data processing and validation procedures.
#
#######################################################################

data_YOFGEH
_symmetry_cell_setting           monoclinic
_symmetry_space_group_name_H-M   'P 21/n'
_symmetry_Int_Tables_number      14
_space_group_name_Hall           '-P 2yn'
loop_
_symmetry_equiv_pos_site_id
_symmetry_equiv_pos_as_xyz
1 x,y,z
2 1/2-x,1/2+y,1/2-z
3 -x,-y,-z
4 1/2+x,1/2-y,1/2+z
_cell_length_a                   17.1870(13)
_cell_length_b                   8.1645(7)
_cell_length_c                   26.895(2)
_cell_angle_alpha                90
_cell_angle_beta                 92.370(3)
_cell_angle_gamma                90
_cell_volume                     3770.77
loop_
_atom_site_label
_atom_site_type_symbol
_atom_site_fract_x
_atom_site_fract_y
_atom_site_fract_z
U1 U -0.056994(15) 0.08016(4) 0.218241(11)
U2 U 0.375171(15) -0.14823(3) 0.094932(10)
S1 S 0.56531(11) 0.3667(2) 0.06941(8)
S2 S -0.17018(13) 0.5835(3) 0.31678(8)
S3 S 0.06924(12) -0.0940(3) 0.04266(8)
O1 O -0.0212(3) 0.3658(6) 0.2407(2)
O2 O 0.2406(3) -0.0552(7) 0.0769(2)
O3 O 0.4015(3) 0.5674(6) 0.1238(2)
O4 O 0.4863(3) 0.0244(6) 0.07225(19)
O5 O -0.1373(3) 0.1535(7) 0.18163(19)
O6 O 0.5029(3) 0.7169(6) 0.10768(19)
O7 O 0.3804(3) -0.0732(6) 0.15607(18)
O8 O 0.2544(3) -0.2940(7) 0.11236(19)
O9 O -0.1012(3) 0.2425(7) 0.28843(19)
O10 O -0.1496(3) 0.9325(7) 0.2691(2)
O11 O -0.1013(3) 0.7960(6) 0.2075(2)
O12 O 0.3711(3) -0.2229(7) 0.03355(18)
O13 O -0.0076(3) -0.0574(7) 0.1432(2)
O14 O 0.3707(3) 0.1347(7) 0.0643(2)
O15 O 0.0231(3) 0.0055(7) 0.25514(19)
O16 O 0.0314(3) 0.1947(7) 0.1585(2)
C1 C 0.4429(4) 0.1424(9) 0.0599(3)
C2 C 0.2124(4) -0.1886(10) 0.0902(3)
C3 C 0.4770(4) 0.2962(10) 0.0369(3)
H1 H 0.4381 0.3839 0.0371
H2 H 0.4883 0.2736 0.0022
C4 C 0.1276(4) -0.2331(10) 0.0805(3)
H3 H 0.1033 -0.2442 0.1126
H4 H 0.1255 -0.341 0.0644
C5 C -0.1469(4) 0.8037(10) 0.2434(3)
C6 C 0.0670(5) 0.0855(10) 0.0815(3)
H5 H 0.1209 0.1205 0.0886
H6 H 0.0411 0.1732 0.0622
C7 C 0.5259(4) 0.4319(9) 0.1270(3)
H7 H 0.496 0.3419 0.1408
H8 H 0.5687 0.4582 0.1508
C8 C 0.0275(4) 0.0703(11) 0.1303(3)
C9 C -0.0640(4) 0.3687(10) 0.2779(3)
C10 C -0.1949(4) 0.6576(10) 0.2555(3)
H9 H -0.1863 0.5707 0.2312
H10 H -0.2502 0.6872 0.2532
C11 C 0.4740(4) 0.5796(10) 0.1201(3)
C12 C -0.0712(4) 0.5210(10) 0.3082(3)
H11 H -0.0438 0.6101 0.292
H12 H -0.0454 0.5031 0.3409
U1_2 U -0.056994(15) 1.08016(4) 0.218241(11)
U2_2 U 0.375171(15) 0.85177(3) 0.094932(10)
O3_2 O 0.4015(3) -0.4326(6) 0.1238(2)
O6_2 O 0.5029(3) -0.2831(6) 0.10768(19)
O10_2 O -0.1496(3) -0.0675(7) 0.2691(2)
O11_2 O -0.1013(3) -0.2040(6) 0.2075(2)
O17 O 0.0541(3) 0.6287(8) 0.1965(2)
H13 H 0.018(4) 0.691(9) 0.176(3)
H14 H 0.034(4) 0.534(7) 0.213(3)
N1 N 0.3222(4) 0.2391(9) 0.2470(3)
H15 H 0.3625 0.2117 0.2658
C13 C 0.1984(5) 0.3252(12) 0.1875(4)
H16 H 0.1553 0.3554 0.1669
C14 C 0.3318(5) 0.2854(13) 0.2003(4)
H17 H 0.3824 0.2887 0.1884
C15 C 0.2726(6) 0.3272(13) 0.1700(4)
H18 H 0.281 0.3578 0.137
C16 C 0.2502(6) 0.2338(12) 0.2657(3)
H19 H 0.2432 0.2001 0.2986
C17 C 0.1888(5) 0.2779(13) 0.2359(4)
H20 H 0.1386 0.2765 0.2485
N2 N 0.6596(5) 0.8050(10) 0.0916(3)
H21 H 0.6127 0.7713 0.0971
C18 C 0.7411(6) 0.9764(14) 0.0494(3)
H22 H 0.7486 1.0597 0.026
C19 C 0.6688(5) 0.9238(13) 0.0588(3)
H23 H 0.6251 0.9712 0.0422
C20 C 0.8038(5) 0.9056(16) 0.0748(4)
H24 H 0.8549 0.9392 0.0691
C21 C 0.7190(8) 0.7357(14) 0.1165(4)
H25 H 0.7103 0.6518 0.1395
C22 C 0.7893(7) 0.7844(15) 0.1087(4)
H26 H 0.8313 0.7358 0.1267
C23 C 0.7728(9) 0.4247(17) 0.0350(5)
H27 H 0.722 0.3889 0.0264
C24 C 0.8160(9) 0.546(2) 0.0061(5)
C25 C 0.8925(7) 0.5882(17) 0.0200(5)
H28 H 0.9191 0.6646 0.0008
C26 C 0.7727(8) 0.6167(18) -0.0353(5)
H29 H 0.7711 0.7348 -0.0315
H30 H 0.7201 0.5736 -0.0365
H31 H 0.7977 0.5895 -0.0659
C27 C 0.8920(16) 0.414(2) 0.0915(7)
H32 H 0.9129 0.3689 0.1213
C28 C 0.9327(10) 0.5146(18) 0.0643(6)
H33 H 0.985 0.5388 0.0728
C29 C 0.8126(10) 0.374(2) 0.0728(9)
H34 H 0.7865 0.2985 0.0925
loop_
_geom_bond_atom_site_label_1
_geom_bond_atom_site_label_2
_geom_bond_site_symmetry_1
_geom_bond_site_symmetry_2
U1 O1 1_555 1_555
U2 O2 1_555 1_555
S1 C3 1_555 1_555
S2 C10 1_555 1_555
S3 C4 1_555 1_555
O1 C9 1_555 1_555
O2 C2 1_555 1_555
O3 C11 1_555 1_555
O4 U2 1_555 1_555
O5 U1 1_555 1_555
O6 C11 1_555 1_555
O7 U2 1_555 1_555
O8 U2 1_555 1_555
O9 U1 1_555 1_555
O10 C5 1_555 1_555
O11 C5 1_555 1_555
O12 U2 1_555 1_555
O13 U1 1_555 1_555
O14 U2 1_555 1_555
O15 U1 1_555 1_555
O16 U1 1_555 1_555
C1 O4 1_555 1_555
C2 O8 1_555 1_555
C3 C1 1_555 1_555
H1 C3 1_555 1_555
H2 C3 1_555 1_555
C4 C2 1_555 1_555
H3 C4 1_555 1_555
H4 C4 1_555 1_555
C5 C10 1_555 1_555
C6 S3 1_555 1_555
H5 C6 1_555 1_555
H6 C6 1_555 1_555
C7 S1 1_555 1_555
H7 C7 1_555 1_555
H8 C7 1_555 1_555
C8 O13 1_555 1_555
C9 O9 1_555 1_555
C10 H9 1_555 1_555
H10 C10 1_555 1_555
C11 C7 1_555 1_555
C12 S2 1_555 1_555
H11 C12 1_555 1_555
H12 C12 1_555 1_555
O17 H13 1_555 1_555
H14 O17 1_555 1_555
N1 H15 1_555 1_555
C13 H16 1_555 1_555
C14 N1 1_555 1_555
H17 C14 1_555 1_555
C15 C13 1_555 1_555
H18 C15 1_555 1_555
C16 N1 1_555 1_555
H19 C16 1_555 1_555
C17 C13 1_555 1_555
H20 C17 1_555 1_555
N2 H21 1_555 1_555
C18 H22 1_555 1_555
C19 N2 1_555 1_555
H23 C19 1_555 1_555
C20 C18 1_555 1_555
H24 C20 1_555 1_555
C21 N2 1_555 1_555
H25 C21 1_555 1_555
C22 C20 1_555 1_555
H26 C22 1_555 1_555
C23 H27 1_555 1_555
C24 C23 1_555 1_555
C25 C24 1_555 1_555
H28 C25 1_555 1_555
C26 C24 1_555 1_555
H29 C26 1_555 1_555
H30 C26 1_555 1_555
H31 C26 1_555 1_555
C27 H32 1_555 1_555
C28 C25 1_555 1_555
H33 C28 1_555 1_555
C29 C23 1_555 1_555
H34 C29 1_555 1_555
U1_2 O10 1_555 1_555
U2_2 O3 1_555 1_555
O3_2 U2 1_555 1_555
O6_2 U2 1_555 1_555
O10_2 U1 1_555 1_555
O11_2 U1 1_555 1_555
O6 U2_2 1_555 1_555
O11 U1_2 1_555 1_555
O14 C1 1_555 1_555
O16 C8 1_555 1_555
C6 C8 1_555 1_555
C9 C12 1_555 1_555
C14 C15 1_555 1_555
C16 C17 1_555 1_555
C18 C19 1_555 1_555
C21 C22 1_555 1_555
C27 C28 1_555 1_555
C27 C29 1_555 1_555

#END
