
#######################################################################
#
#                 Cambridge Crystallographic Data Centre
#                                CCDC 
#
#######################################################################
#
# If this CIF has been generated from an entry in the Cambridge 
# Structural Database, then it will include bibliographic, chemical, 
# crystal, experimental, refinement or atomic coordinate data resulting 
# from the CCDC's data processing and validation procedures.
#
#######################################################################

data_YOFGAD
_symmetry_cell_setting           monoclinic
_symmetry_space_group_name_H-M   'P 21/c'
_symmetry_Int_Tables_number      14
_space_group_name_Hall           '-P 2ybc'
loop_
_symmetry_equiv_pos_site_id
_symmetry_equiv_pos_as_xyz
1 x,y,z
2 -x,1/2+y,1/2-z
3 -x,-y,-z
4 x,1/2-y,1/2+z
_cell_length_a                   15.4597(13)
_cell_length_b                   8.4774(7)
_cell_length_c                   24.835(2)
_cell_angle_alpha                90
_cell_angle_beta                 105.932(2)
_cell_angle_gamma                90
_cell_volume                     3129.8
loop_
_atom_site_label
_atom_site_type_symbol
_atom_site_fract_x
_atom_site_fract_y
_atom_site_fract_z
U1 U 0.417525(10) 0.624873(15) 0.359587(6)
U2 U 0.050567(9) 0.395310(16) 0.122421(6)
S1 S 0.35950(8) 1.12670(11) 0.47851(4)
S2 S 0.38130(7) 0.62815(13) 0.14744(5)
S3 S -0.16950(7) 0.89063(11) 0.10549(6)
O1 O 0.3732(2) 0.9057(3) 0.35004(12)
O2 O 0.40841(19) 1.4790(3) 0.44414(11)
O3 O 0.02517(19) 0.6780(3) 0.10158(14)
O4 O 0.0519(2) 1.1105(3) 0.14343(14)
O5 O 0.35482(18) 0.7842(3) 0.42304(11)
O6 O 0.19339(19) 0.5474(3) 0.13921(14)
O7 O 0.0458(2) 0.3565(4) 0.05194(13)
O8 O 0.20551(19) 0.2909(3) 0.14532(13)
O9 O 0.4335(2) 0.7464(3) 0.27450(12)
O10 O 0.4589(3) 1.3517(4) 0.38349(14)
O11 O -0.09498(19) 0.5319(3) 0.08655(15)
O12 O 0.0568(2) 0.4358(4) 0.19309(13)
O13 O 0.5269(2) 0.6871(4) 0.39744(13)
O14 O -0.0782(2) 1.2278(3) 0.12141(14)
O15 O 0.3094(2) 0.5640(4) 0.32195(13)
O16 O 0.4841(3) 0.5080(4) 0.28995(15)
C1 C 0.3056(3) 1.0555(4) 0.40911(17)
H1 H 0.2416 1.0341 0.4062
H2 H 0.3078 1.1394 0.3818
C2 C 0.4408(3) 1.3555(4) 0.42958(16)
C3 C 0.4855(3) 0.6241(5) 0.20217(16)
H3 H 0.5196 0.5277 0.1986
H4 H 0.5225 0.7167 0.1985
C4 C 0.3473(3) 0.9085(4) 0.39346(16)
C5 C -0.0313(3) 1.1078(4) 0.13923(18)
C6 C 0.4674(3) 0.6264(5) 0.25847(18)
C7 C -0.0588(3) 0.6640(5) 0.08273(18)
C8 C 0.4596(3) 1.2115(5) 0.46640(17)
H5 H 0.5017 1.2402 0.5029
H6 H 0.4894 1.1311 0.4487
C9 C 0.2408(3) 0.4248(5) 0.14596(18)
C10 C -0.0732(3) 0.9643(5) 0.15756(19)
H7 H -0.0914 0.9909 0.1917
H8 H -0.0274 0.8798 0.1675
C11 C -0.1144(3) 0.8031(5) 0.05758(18)
H9 H -0.1603 0.7698 0.0232
H10 H -0.0754 0.8829 0.0468
C12 C 0.3410(3) 0.4330(6) 0.1577(3)
H11 H 0.3605 0.3578 0.1329
H12 H 0.3688 0.3998 0.1969
U1_2 U 0.417525(10) 1.624873(15) 0.359587(6)
U2_2 U 0.050567(9) 1.395310(16) 0.122421(6)
O2_2 O 0.40841(19) 0.4790(3) 0.44414(11)
O4_2 O 0.0519(2) 0.1105(3) 0.14343(14)
O10_2 O 0.4589(3) 0.3517(4) 0.38349(14)
O14_2 O -0.0782(2) 0.2278(3) 0.12141(14)
N1 N 0.2810(2) 0.6618(5) 0.50188(14)
H13 H 0.3142 0.6901 0.4798
C13 C 0.2069(3) 0.7431(6) 0.4998(2)
H14 H 0.1905 0.8298 0.4749
C14 C 0.3071(3) 0.5400(6) 0.53564(19)
H15 H 0.3608 0.4848 0.5362
C15 C 0.2557(4) 0.4950(6) 0.5696(2)
H16 H 0.2731 0.4072 0.5939
C16 C 0.1549(3) 0.7027(7) 0.5331(2)
H17 H 0.1019 0.7611 0.532
C17 C 0.1789(4) 0.5766(7) 0.5685(2)
H18 H 0.1427 0.5462 0.5921
N2 N 0.2378(3) 0.8376(5) 0.21316(17)
H19 H 0.2576 0.769 0.1927
C18 C 0.1710(4) 0.7943(7) 0.2337(2)
H20 H 0.1456 0.6917 0.227
C19 C 0.1395(4) 0.9011(9) 0.2649(2)
H21 H 0.0925 0.8731 0.2809
C20 C 0.2764(4) 0.9769(8) 0.2215(2)
H22 H 0.3256 1.0005 0.2068
C21 C 0.1762(5) 1.0484(9) 0.2728(2)
H23 H 0.1535 1.1247 0.2934
C22 C 0.2455(6) 1.0860(7) 0.2510(3)
H24 H 0.2717 1.1882 0.2566
loop_
_geom_bond_atom_site_label_1
_geom_bond_atom_site_label_2
_geom_bond_site_symmetry_1
_geom_bond_site_symmetry_2
U1 O1 1_555 1_555
U2 O3 1_555 1_555
S1 C1 1_555 1_555
S2 C3 1_555 1_555
S3 C10 1_555 1_555
O1 C4 1_555 1_555
O2 C2 1_555 1_555
O3 C7 1_555 1_555
O4 C5 1_555 1_555
O5 U1 1_555 1_555
O6 U2 1_555 1_555
O7 U2 1_555 1_555
O8 U2 1_555 1_555
O9 U1 1_555 1_555
O10 C2 1_555 1_555
O11 U2 1_555 1_555
O12 U2 1_555 1_555
O13 U1 1_555 1_555
O14 C5 1_555 1_555
O15 U1 1_555 1_555
O16 U1 1_555 1_555
C1 H1 1_555 1_555
H2 C1 1_555 1_555
C2 C8 1_555 1_555
C3 H3 1_555 1_555
H4 C3 1_555 1_555
C4 O5 1_555 1_555
C5 C10 1_555 1_555
C6 O9 1_555 1_555
C7 O11 1_555 1_555
C8 S1 1_555 1_555
H5 C8 1_555 1_555
H6 C8 1_555 1_555
C9 O6 1_555 1_555
C10 H7 1_555 1_555
H8 C10 1_555 1_555
C11 S3 1_555 1_555
H9 C11 1_555 1_555
H10 C11 1_555 1_555
C12 S2 1_555 1_555
H11 C12 1_555 1_555
H12 C12 1_555 1_555
N1 H13 1_555 1_555
C13 N1 1_555 1_555
H14 C13 1_555 1_555
C14 N1 1_555 1_555
H15 C14 1_555 1_555
C15 C14 1_555 1_555
H16 C15 1_555 1_555
C16 C13 1_555 1_555
H17 C16 1_555 1_555
C17 C15 1_555 1_555
H18 C17 1_555 1_555
N2 H19 1_555 1_555
C18 N2 1_555 1_555
H20 C18 1_555 1_555
C19 C18 1_555 1_555
H21 C19 1_555 1_555
C20 N2 1_555 1_555
H22 C20 1_555 1_555
C21 C19 1_555 1_555
H23 C21 1_555 1_555
C22 C20 1_555 1_555
H24 C22 1_555 1_555
U1_2 O2 1_555 1_555
U2_2 O4 1_555 1_555
O2_2 U1 1_555 1_555
O4_2 U2 1_555 1_555
O10_2 U1 1_555 1_555
O14_2 U2 1_555 1_555
O8 C9 1_555 1_555
O10 U1_2 1_555 1_555
O14 U2_2 1_555 1_555
O16 C6 1_555 1_555
C1 C4 1_555 1_555
C3 C6 1_555 1_555
C7 C11 1_555 1_555
C9 C12 1_555 1_555
C16 C17 1_555 1_555
C21 C22 1_555 1_555

#END
