
#######################################################################
#
#                 Cambridge Crystallographic Data Centre
#                                CCDC 
#
#######################################################################
#
# If this CIF has been generated from an entry in the Cambridge 
# Structural Database, then it will include bibliographic, chemical, 
# crystal, experimental, refinement or atomic coordinate data resulting 
# from the CCDC's data processing and validation procedures.
#
#######################################################################

data_YOFHUY
_symmetry_cell_setting           triclinic
_symmetry_space_group_name_H-M   'P -1'
_symmetry_Int_Tables_number      2
_space_group_name_Hall           '-P 1'
loop_
_symmetry_equiv_pos_site_id
_symmetry_equiv_pos_as_xyz
1 x,y,z
2 -x,-y,-z
_cell_length_a                   7.7114(15)
_cell_length_b                   11.473(2)
_cell_length_c                   12.557(3)
_cell_angle_alpha                75.10(3)
_cell_angle_beta                 72.81(3)
_cell_angle_gamma                78.14(3)
_cell_volume                     1015.5
loop_
_atom_site_label
_atom_site_type_symbol
_atom_site_fract_x
_atom_site_fract_y
_atom_site_fract_z
C1 C -0.0776(2) 0.72510(14) 0.54941(14)
H1 H -0.1098 0.6761 0.5117
C2 C 0.0742(3) 0.80123(17) 0.62585(18)
H2 H 0.1686 0.8145 0.6513
C3 C -0.0940(3) 0.86677(18) 0.63903(19)
H3 H -0.1365 0.9328 0.6744
C4 C -0.3798(2) 0.85777(15) 0.58321(16)
H4 H -0.4584 0.8600 0.6591
H5 H -0.4183 0.7996 0.5540
C5 C -0.4024(2) 0.98258(15) 0.50689(16)
H6 H -0.3168 0.9826 0.4327
H7 H -0.3748 1.0424 0.5396
C6 C 0.6667(3) 0.68572(16) 0.35980(15)
C7 C 0.7599(3) 0.79220(16) 0.28562(15)
C8 C 0.6568(3) 0.89845(18) 0.24202(17)
H8 H 0.5309 0.9018 0.2552
C9 C 0.7408(4) 0.99945(19) 0.17892(18)
H9 H 0.6704 1.0692 0.1488
C10 C 0.9260(4) 0.9987(2) 0.15990(18)
C11 C 1.0280(4) 0.8923(2) 0.20202(19)
H10 H 1.1539 0.8894 0.1887
C12 C 0.9467(3) 0.7892(2) 0.26396(17)
H11 H 1.0184 0.7183 0.2907
C13 C 1.0156(5) 1.1098(3) 0.0926(2)
H12 H 0.9818 1.1380 0.0216
H13 H 1.1464 1.0892 0.0778
H14 H 0.9756 1.1730 0.1355
C14 C 0.4047(3) 0.46285(16) 0.32580(15)
C15 C 0.3818(3) 0.42940(16) 0.22321(15)
C16 C 0.2138(3) 0.4568(2) 0.19713(17)
H15 H 0.1141 0.4975 0.2426
C17 C 0.1942(4) 0.4234(2) 0.10317(19)
H16 H 0.0801 0.4408 0.0872
C18 C 0.3407(5) 0.3647(2) 0.03247(19)
C19 C 0.5057(4) 0.3386(2) 0.05907(19)
H17 H 0.6055 0.2992 0.0126
C20 C 0.5286(3) 0.36932(18) 0.15419(17)
H18 H 0.6421 0.3495 0.1711
C21 C 0.3174(6) 0.3332(3) -0.0723(2)
H19 H 0.2808 0.4065 -0.1226
H20 H 0.2251 0.2805 -0.0495
H21 H 0.4315 0.2927 -0.1109
Mn1 Mn 0.31657(3) 0.58285(2) 0.51784(2)
N1 N 0.08434(19) 0.71155(12) 0.56877(12)
N2 N -0.1903(2) 0.81730(12) 0.59019(13)
O1 O 0.49587(19) 0.70377(13) 0.39738(12)
O2 O 0.7674(2) 0.58640(12) 0.38271(12)
O3 O 0.2774(2) 0.53354(14) 0.37553(12)
O4 O 0.5481(2) 0.41698(13) 0.35709(12)
C1A C -0.9224(2) 1.27490(14) 0.45059(14)
H1A H -0.8902 1.3239 0.4883
C2A C -1.0742(3) 1.19877(17) 0.37415(18)
H2A H -1.1686 1.1855 0.3487
C3A C -0.9060(3) 1.13323(18) 0.36097(19)
H3A H -0.8635 1.0672 0.3256
C4A C -0.6202(2) 1.14223(15) 0.41679(16)
H4A H -0.5416 1.1400 0.3409
H5A H -0.5817 1.2004 0.4460
C5A C -0.5976(2) 1.01742(15) 0.49311(16)
H6A H -0.6832 1.0174 0.5673
H7A H -0.6252 0.9576 0.4604
N1A N -1.08434(19) 1.28845(12) 0.43123(12)
N2A N -0.8097(2) 1.18270(12) 0.40981(13)
C6A C -1.6667(3) 1.31428(16) 0.64020(15)
C7A C -1.7599(3) 1.20780(16) 0.71438(15)
C8A C -1.6568(3) 1.10155(18) 0.75798(17)
H8A H -1.5309 1.0982 0.7448
C9A C -1.7408(4) 1.00055(19) 0.82108(18)
H9A H -1.6704 0.9308 0.8512
C10A C -1.9260(4) 1.0013(2) 0.84010(18)
C11A C -2.0280(4) 1.1077(2) 0.79798(19)
H10A H -2.1539 1.1106 0.8113
C12A C -1.9467(3) 1.2108(2) 0.73604(17)
H11A H -2.0184 1.2817 0.7093
C13A C -2.0156(5) 0.8902(3) 0.9074(2)
H12A H -1.9818 0.8620 0.9784
H13A H -2.1464 0.9108 0.9222
H14A H -1.9756 0.8270 0.8645
C14A C -1.4047(3) 1.53715(16) 0.67420(15)
C15A C -1.3818(3) 1.57060(16) 0.77679(15)
C16A C -1.2138(3) 1.5432(2) 0.80287(17)
H15A H -1.1141 1.5025 0.7574
C17A C -1.1942(4) 1.5766(2) 0.89683(19)
H16A H -1.0801 1.5592 0.9128
C18A C -1.3407(5) 1.6353(2) 0.96753(19)
C19A C -1.5057(4) 1.6614(2) 0.94093(19)
H17A H -1.6055 1.7008 0.9874
C20A C -1.5286(3) 1.63068(18) 0.84581(17)
H18A H -1.6421 1.6505 0.8289
C21A C -1.3174(6) 1.6668(3) 1.0723(2)
H19A H -1.2808 1.5935 1.1226
H20A H -1.2251 1.7195 1.0495
H21A H -1.4315 1.7073 1.1109
Mn1A Mn -1.31657(3) 1.41715(2) 0.48216(2)
O1A O -1.49587(19) 1.29623(13) 0.60262(12)
O2A O -1.7674(2) 1.41360(12) 0.61729(12)
O3A O -1.2774(2) 1.46646(14) 0.62447(12)
O4A O -1.5481(2) 1.58302(13) 0.64291(12)
Mn1_2 Mn -1.68343(3) 1.58285(2) 0.51784(2)
Mn1A_2 Mn 0.68343(3) 0.41715(2) 0.48216(2)
O2_2 O -1.2326(2) 1.58640(12) 0.38271(12)
O2A_2 O 0.2326(2) 0.41360(12) 0.61729(12)
O4_2 O -1.4519(2) 1.41698(13) 0.35709(12)
O4A_2 O 0.4519(2) 0.58302(13) 0.64291(12)
loop_
_geom_bond_atom_site_label_1
_geom_bond_atom_site_label_2
_geom_bond_site_symmetry_1
_geom_bond_site_symmetry_2
C1 H1 1_555 1_555
C2 H2 1_555 1_555
C3 C2 1_555 1_555
H3 C3 1_555 1_555
C4 H4 1_555 1_555
H5 C4 1_555 1_555
C5 C4 1_555 1_555
H6 C5 1_555 1_555
H7 C5 1_555 1_555
C6 C7 1_555 1_555
C7 C8 1_555 1_555
C8 H8 1_555 1_555
C9 C8 1_555 1_555
H9 C9 1_555 1_555
C10 C9 1_555 1_555
C11 C10 1_555 1_555
H10 C11 1_555 1_555
C12 C7 1_555 1_555
H11 C12 1_555 1_555
C13 C10 1_555 1_555
H12 C13 1_555 1_555
H13 C13 1_555 1_555
H14 C13 1_555 1_555
C14 C15 1_555 1_555
C15 C16 1_555 1_555
C16 H15 1_555 1_555
C17 C16 1_555 1_555
H16 C17 1_555 1_555
C18 C17 1_555 1_555
C19 C18 1_555 1_555
H17 C19 1_555 1_555
C20 C15 1_555 1_555
H18 C20 1_555 1_555
C21 C18 1_555 1_555
H19 C21 1_555 1_555
H20 C21 1_555 1_555
H21 C21 1_555 1_555
Mn1 N1 1_555 1_555
N1 C1 1_555 1_555
N2 C1 1_555 1_555
O1 C6 1_555 1_555
O2 C6 1_555 1_555
O3 C14 1_555 1_555
O4 C14 1_555 1_555
C1A H1A 1_555 1_555
C2A H2A 1_555 1_555
C3A C2A 1_555 1_555
H3A C3A 1_555 1_555
C4A H4A 1_555 1_555
H5A C4A 1_555 1_555
C5A C5 1_555 1_555
H6A C5A 1_555 1_555
H7A C5A 1_555 1_555
N1A C1A 1_555 1_555
N2A C1A 1_555 1_555
C6A C7A 1_555 1_555
C7A C8A 1_555 1_555
C8A H8A 1_555 1_555
C9A C8A 1_555 1_555
H9A C9A 1_555 1_555
C10A C9A 1_555 1_555
C11A C10A 1_555 1_555
H10A C11A 1_555 1_555
C12A C7A 1_555 1_555
H11A C12A 1_555 1_555
C13A C10A 1_555 1_555
H12A C13A 1_555 1_555
H13A C13A 1_555 1_555
H14A C13A 1_555 1_555
C14A C15A 1_555 1_555
C15A C16A 1_555 1_555
C16A H15A 1_555 1_555
C17A C16A 1_555 1_555
H16A C17A 1_555 1_555
C18A C17A 1_555 1_555
C19A C18A 1_555 1_555
H17A C19A 1_555 1_555
C20A C15A 1_555 1_555
H18A C20A 1_555 1_555
C21A C18A 1_555 1_555
H19A C21A 1_555 1_555
H20A C21A 1_555 1_555
H21A C21A 1_555 1_555
Mn1A N1A 1_555 1_555
O1A C6A 1_555 1_555
O2A C6A 1_555 1_555
O3A C14A 1_555 1_555
O4A C14A 1_555 1_555
Mn1_2 Mn1A 1_555 1_555
Mn1A_2 Mn1 1_555 1_555
O2_2 Mn1A 1_555 1_555
O2A_2 Mn1 1_555 1_555
O4_2 Mn1A 1_555 1_555
O4A_2 Mn1 1_555 1_555
C2 N1 1_555 1_555
C3 N2 1_555 1_555
C4 N2 1_555 1_555
C11 C12 1_555 1_555
C19 C20 1_555 1_555
Mn1 O1 1_555 1_555
Mn1 O3 1_555 1_555
O2 Mn1A_2 1_555 1_555
O4 Mn1A_2 1_555 1_555
C2A N1A 1_555 1_555
C3A N2A 1_555 1_555
C4A C5A 1_555 1_555
C4A N2A 1_555 1_555
C11A C12A 1_555 1_555
C19A C20A 1_555 1_555
Mn1A O1A 1_555 1_555
Mn1A O3A 1_555 1_555
O2A Mn1_2 1_555 1_555
O4A Mn1_2 1_555 1_555

#END
