
#######################################################################
#
#                 Cambridge Crystallographic Data Centre
#                                CCDC 
#
#######################################################################
#
# If this CIF has been generated from an entry in the Cambridge 
# Structural Database, then it will include bibliographic, chemical, 
# crystal, experimental, refinement or atomic coordinate data resulting 
# from the CCDC's data processing and validation procedures.
#
#######################################################################

data_YOFLIP
_symmetry_cell_setting           triclinic
_symmetry_space_group_name_H-M   'P -1'
_symmetry_Int_Tables_number      2
_space_group_name_Hall           '-P 1'
loop_
_symmetry_equiv_pos_site_id
_symmetry_equiv_pos_as_xyz
1 x,y,z
2 -x,-y,-z
_cell_length_a                   6.9795(6)
_cell_length_b                   10.9746(10)
_cell_length_c                   12.0015(11)
_cell_angle_alpha                90.1750(10)
_cell_angle_beta                 97.2740(10)
_cell_angle_gamma                93.0990(10)
_cell_volume                     910.504
loop_
_atom_site_label
_atom_site_type_symbol
_atom_site_fract_x
_atom_site_fract_y
_atom_site_fract_z
La1 La -0.49821(3) 0.337720(15) 0.167300(13)
C1 C -0.1439(5) 0.2741(3) 0.4995(3)
C2 C -0.1959(5) 0.3790(3) 0.5510(3)
H1 H -0.2253 0.4483 0.5093
C3 C -0.2031(5) 0.3778(3) 0.6672(3)
C4 C -0.1633(5) 0.2731(3) 0.7281(3)
H2 H -0.1652 0.2744 0.8055
C5 C -0.1205(4) 0.1659(3) 0.6762(3)
C6 C -0.1102(5) 0.1688(3) 0.5611(3)
H3 H -0.0801 0.0987 0.5247
C7 C -0.1221(5) 0.2731(3) 0.3760(3)
C8 C -0.2688(5) 0.4857(3) 0.7259(3)
C9 C -0.4124(5) -0.0528(3) 0.2634(3)
C10 C -0.3954(5) -0.1409(3) 0.1824(2)
H4 H -0.4083 -0.1201 0.1069
C11 C -0.3595(4) -0.2594(3) 0.2136(2)
C12 C -0.3399(4) -0.2920(3) 0.3257(3)
H5 H -0.3147 -0.3716 0.3468
C13 C -0.3587(4) -0.2040(3) 0.4054(2)
C14 C -0.3946(5) -0.0852(3) 0.3759(3)
H6 H -0.4068 -0.0272 0.4309
C15 C -0.4493(5) 0.0757(3) 0.2314(3)
C16 C -0.3499(5) -0.3557(3) 0.1252(3)
N1 N -0.0919(5) 0.0612(3) 0.7365(3)
H7 H -0.0670 -0.0046 0.7033
H8 H -0.0989 0.0613 0.8076
N2 N -0.3374(4) -0.2362(3) 0.5240(2)
H9 H -0.3133 -0.3097 0.5439
H10 H -0.3489 -0.1818 0.5741
O1 O -0.2123(4) 0.3456(2) 0.3118(2)
O2 O -0.0084(4) 0.1982(3) 0.34475(19)
H11 H 0.0977 0.2083 0.3826
O3 O -0.3524(4) 0.5687(2) 0.6671(2)
O4 O -0.2522(5) 0.4896(3) 0.8312(2)
O5 O -0.4302(4) 0.1109(2) 0.1329(2)
O6 O -0.4976(4) 0.1481(2) 0.30317(19)
O7 O -0.3602(5) -0.3226(2) 0.0257(2)
O8 O -0.3343(5) -0.4630(2) 0.1564(2)
O9 O -0.2020(6) 0.3382(3) 0.0390(3)
O10 O -0.8422(4) 0.2319(3) 0.1517(2)
H13 H -0.8915 0.2276 0.2130
H14 H -0.2203 0.3887 -0.0150
H16 H -0.0733 0.3877 0.0045
H17 H -0.9373 0.2349 0.1003
La1A La -0.50179(3) 0.662280(15) 0.832700(13)
La1A_2 La -0.50179(3) -0.337720(15) -0.167300(13)
La1_2 La -0.49821(3) -0.662280(15) 0.167300(13)
O3A O -0.6476(4) 0.4313(2) 0.3329(2)
O4A O -0.7478(5) 0.5104(3) 0.1688(2)
O7A O -0.6398(5) 0.3226(2) -0.0257(2)
O8_2 O -0.3343(5) 0.5370(2) 0.1564(2)
O11 O -0.1739(7) 0.0543(6) 0.9761(3)
H12 H -0.0862 0.1043 1.0077
H15 H -0.1781 -0.0216 0.9611
loop_
_geom_bond_atom_site_label_1
_geom_bond_atom_site_label_2
_geom_bond_site_symmetry_1
_geom_bond_site_symmetry_2
La1 O1 1_555 1_555
C1 C2 1_555 1_555
C2 H1 1_555 1_555
C3 C2 1_555 1_555
C4 C3 1_555 1_555
H2 C4 1_555 1_555
C5 C4 1_555 1_555
C6 C1 1_555 1_555
H3 C6 1_555 1_555
C7 C1 1_555 1_555
C8 C3 1_555 1_555
C9 C10 1_555 1_555
C10 H4 1_555 1_555
C11 C10 1_555 1_555
C12 C11 1_555 1_555
H5 C12 1_555 1_555
C13 C12 1_555 1_555
C14 C9 1_555 1_555
H6 C14 1_555 1_555
C15 C9 1_555 1_555
C16 C11 1_555 1_555
N1 C5 1_555 1_555
H7 N1 1_555 1_555
H8 N1 1_555 1_555
N2 C13 1_555 1_555
H9 N2 1_555 1_555
H10 N2 1_555 1_555
O1 C7 1_555 1_555
O2 C7 1_555 1_555
H11 O2 1_555 1_555
O3 C8 1_555 1_555
O4 C8 1_555 1_555
O5 La1 1_555 1_555
O6 La1 1_555 1_555
O7 C16 1_555 1_555
O8 C16 1_555 1_555
O9 La1 1_555 1_555
O10 La1 1_555 1_555
O11 H12 1_555 1_555
H13 O10 1_555 1_555
H14 O9 1_555 1_555
H15 O11 1_555 1_555
H16 O9 1_555 1_555
H17 O10 1_555 1_555
La1A O3 1_555 1_555
La1A_2 O7 1_555 1_555
La1_2 O8 1_555 1_555
O3A La1 1_555 1_555
O4A La1 1_555 1_555
O7A La1 1_555 1_555
O8_2 La1 1_555 1_555
C5 C6 1_555 1_555
C13 C14 1_555 1_555
C15 O5 1_555 1_555
C15 O6 1_555 1_555
O4 La1A 1_555 1_555

#END
