
#######################################################################
#
#                 Cambridge Crystallographic Data Centre
#                                CCDC 
#
#######################################################################
#
# If this CIF has been generated from an entry in the Cambridge 
# Structural Database, then it will include bibliographic, chemical, 
# crystal, experimental, refinement or atomic coordinate data resulting 
# from the CCDC's data processing and validation procedures.
#
#######################################################################

data_YOFLEL
_symmetry_cell_setting           triclinic
_symmetry_space_group_name_H-M   'P -1'
_symmetry_Int_Tables_number      2
_space_group_name_Hall           '-P 1'
loop_
_symmetry_equiv_pos_site_id
_symmetry_equiv_pos_as_xyz
1 x,y,z
2 -x,-y,-z
_cell_length_a                   11.488(4)
_cell_length_b                   13.368(4)
_cell_length_c                   17.563(5)
_cell_angle_alpha                87.080(4)
_cell_angle_beta                 84.670(4)
_cell_angle_gamma                70.228(4)
_cell_volume                     2526.65
loop_
_atom_site_label
_atom_site_type_symbol
_atom_site_fract_x
_atom_site_fract_y
_atom_site_fract_z
Sm1 Sm 0.07409(3) 0.34143(3) 0.490302(19)
Sm2 Sm 0.43309(3) 0.16072(3) 0.972853(19)
C1 C 0.0282(9) 0.2012(8) 0.6656(5)
H1 H 0.0793 0.2360 0.6816
C2 C -0.0249(12) 0.1498(11) 0.7207(7)
H2 H -0.0110 0.1507 0.7720
C3 C -0.0989(12) 0.0971(10) 0.6980(8)
H3 H -0.1347 0.0604 0.7339
C4 C -0.1204(9) 0.0983(8) 0.6223(8)
C5 C -0.1978(13) 0.0474(11) 0.5951(13)
H4 H -0.2381 0.0125 0.6297
C6 C -0.2144(12) 0.0486(9) 0.5185(12)
H5 H -0.2658 0.0143 0.5025
C7 C -0.1558(10) 0.1004(8) 0.4634(9)
C8 C -0.1698(13) 0.0992(11) 0.3891(10)
H6 H -0.2200 0.0646 0.3719
C9 C -0.1092(14) 0.1497(11) 0.3382(8)
H7 H -0.1147 0.1471 0.2859
C10 C -0.0375(11) 0.2064(9) 0.3666(6)
H8 H 0.0000 0.2433 0.3319
C11 C -0.0815(9) 0.1571(7) 0.4899(7)
C12 C -0.0612(9) 0.1533(8) 0.5678(7)
C13 C 0.3537(7) 0.5286(6) 0.4304(4)
C14 C 0.4340(7) 0.4527(7) 0.3813(5)
H9 H 0.4132 0.3953 0.3670
C15 C 0.5457(7) 0.4646(7) 0.3545(5)
C16 C 0.5796(8) 0.5474(8) 0.3760(6)
H10 H 0.6547 0.5540 0.3564
C17 C 0.5025(7) 0.6208(6) 0.4267(5)
C18 C 0.3866(8) 0.6146(7) 0.4520(5)
H11 H 0.3313 0.6670 0.4830
C19 C 0.2313(7) 0.5184(7) 0.4586(5)
C20 C 0.6268(8) 0.3870(7) 0.2972(5)
C21 C 0.0759(7) 0.4584(6) 0.7227(4)
C22 C 0.1574(7) 0.3841(6) 0.7678(4)
H12 H 0.2182 0.3252 0.7459
C23 C 0.1473(7) 0.3985(6) 0.8459(4)
C24 C 0.0591(7) 0.4867(6) 0.8791(5)
H13 H 0.0577 0.4977 0.9311
C25 C -0.0267(7) 0.5586(6) 0.8358(4)
C26 C -0.0176(7) 0.5460(6) 0.7556(4)
H14 H -0.0729 0.5952 0.7252
C27 C 0.0830(7) 0.4398(6) 0.6379(4)
C28 C 0.2372(7) 0.3143(6) 0.8948(4)
C29 C 0.1391(7) 0.0012(6) 1.0659(4)
C30 C 0.0459(7) 0.0934(7) 1.0945(5)
H15 H 0.0615 0.1571 1.0956
C31 C -0.0690(7) 0.0878(7) 1.1209(5)
C32 C -0.0954(8) -0.0070(7) 1.1178(5)
H16 H -0.1737 -0.0089 1.1350
C33 C -0.0054(8) -0.0970(7) 1.0896(5)
C34 C 0.1124(8) -0.0944(6) 1.0653(5)
H17 H 0.1743 -0.1563 1.0485
C35 C 0.2615(8) 0.0043(7) 1.0322(5)
C36 C -0.1681(8) 0.1828(7) 1.1542(5)
C37 C 0.4668(7) 0.0696(6) 0.2241(4)
C38 C 0.3767(7) 0.1411(6) 0.2708(4)
H18 H 0.3140 0.1963 0.2496
C39 C 0.3807(7) 0.1298(6) 0.3503(4)
C40 C 0.4758(7) 0.0497(6) 0.3820(4)
H19 H 0.4776 0.0431 0.4349
C41 C 0.5699(7) -0.0220(6) 0.3351(4)
C42 C 0.5629(7) -0.0116(6) 0.2556(5)
H20 H 0.6230 -0.0594 0.2236
C43 C 0.4597(7) 0.0786(6) 0.1391(4)
C44 C 0.5062(10) 0.3448(7) 1.0828(6)
H21 H 0.4542 0.3239 1.1190
C45 C 0.5670(12) 0.4145(8) 1.1051(7)
H22 H 0.5508 0.4413 1.1543
C46 C 0.6482(12) 0.4415(7) 1.0545(9)
H23 H 0.6919 0.4835 1.0693
C47 C 0.6656(10) 0.4054(7) 0.9794(8)
C48 C 0.7453(11) 0.4319(9) 0.9197(11)
H24 H 0.7943 0.4704 0.9325
C49 C 0.7531(11) 0.4043(10) 0.8466(11)
H25 H 0.8050 0.4249 0.8102
C50 C 0.6807(9) 0.3426(8) 0.8248(7)
C51 C 0.6803(10) 0.3168(9) 0.7499(7)
H26 H 0.7274 0.3393 0.7113
C52 C 0.6095(10) 0.2573(9) 0.7331(6)
H27 H 0.6087 0.2382 0.6830
C53 C 0.5388(9) 0.2261(8) 0.7924(5)
H28 H 0.4905 0.1865 0.7803
C54 C 0.6068(8) 0.3093(7) 0.8825(6)
C55 C 0.5990(9) 0.3383(7) 0.9588(7)
C56 C 0.2755(7) 0.2023(6) 0.4013(4)
N1 N 0.0122(6) 0.2053(5) 0.5906(4)
N2 N -0.0225(8) 0.2085(6) 0.4393(5)
N3 N 0.5212(7) 0.3084(6) 1.0121(5)
N4 N 0.5370(6) 0.2495(6) 0.8643(4)
O1 O 0.2240(5) 0.4272(4) 0.4644(4)
O2 O 0.1424(5) 0.6020(5) 0.4749(4)
O3 O 0.5950(7) 0.3076(6) 0.2824(5)
H29 H 0.6230 0.2590 0.3131
O4 O 0.7221(6) 0.4028(6) 0.2645(5)
N5 N 0.5343(7) 0.7069(6) 0.4478(5)
H30 H 0.6028 0.7145 0.4292
H31 H 0.4854 0.7523 0.4795
O5 O 0.0142(5) 0.5099(5) 0.5947(3)
O6 O 0.1549(5) 0.3537(4) 0.6123(3)
O7 O 0.2927(5) 0.2235(4) 0.8681(3)
O8 O 0.2533(5) 0.3366(4) 0.9620(3)
N6 N -0.1206(7) 0.6456(6) 0.8694(4)
H32 H -0.1254 0.6548 0.9178
H33 H -0.1735 0.6898 0.8415
O9 O 0.2705(5) 0.0935(4) 1.0131(3)
O10 O 0.3490(5) -0.0830(4) 1.0244(4)
O11 O -0.1417(7) 0.2670(6) 1.1584(5)
H34 H -0.0945 0.2596 1.1922
O12 O -0.2700(6) 0.1746(6) 1.1796(4)
N7 N -0.0299(7) -0.1934(6) 1.0885(6)
H35 H -0.1015 -0.1960 1.1056
H36 H 0.0266 -0.2496 1.0708
O13 O 0.4061(5) 0.1686(4) 0.1102(3)
O14 O 0.5095(5) -0.0024(5) 0.0982(3)
O15 O 0.1892(5) 0.2720(5) 0.3697(3)
O16 O 0.2746(5) 0.1899(4) 0.4729(3)
N8 N 0.6669(7) -0.0995(6) 0.3667(4)
H37 H 0.7245 -0.1425 0.3376
H38 H 0.6699 -0.1048 0.4155
Sm1A Sm -0.07409(3) 0.65857(3) 0.509698(19)
Sm2A Sm 0.56691(3) -0.16072(3) 1.027147(19)
Sm2_2 Sm 0.43309(3) 0.16072(3) -0.027147(19)
Sm2A_2 Sm 0.56691(3) -0.16072(3) 0.027147(19)
O2A O -0.1424(5) 0.3980(5) 0.5251(4)
O5A O -0.0142(5) 0.4901(5) 0.4053(3)
O10A O 0.6510(5) 0.0830(4) 0.9756(4)
O13_2 O 0.4061(5) 0.1686(4) 1.1102(3)
O14A O 0.4905(5) 0.0024(5) 0.9018(3)
loop_
_geom_bond_atom_site_label_1
_geom_bond_atom_site_label_2
_geom_bond_site_symmetry_1
_geom_bond_site_symmetry_2
Sm1 N1 1_555 1_555
Sm2 N3 1_555 1_555
C1 H1 1_555 1_555
C2 C1 1_555 1_555
H2 C2 1_555 1_555
C3 C2 1_555 1_555
H3 C3 1_555 1_555
C4 C3 1_555 1_555
C5 C4 1_555 1_555
H4 C5 1_555 1_555
C6 C5 1_555 1_555
H5 C6 1_555 1_555
C7 C6 1_555 1_555
C8 C7 1_555 1_555
H6 C8 1_555 1_555
C9 C8 1_555 1_555
H7 C9 1_555 1_555
C10 C9 1_555 1_555
H8 C10 1_555 1_555
C11 C7 1_555 1_555
C12 C4 1_555 1_555
C13 C14 1_555 1_555
C14 H9 1_555 1_555
C15 C14 1_555 1_555
C16 C15 1_555 1_555
H10 C16 1_555 1_555
C17 C16 1_555 1_555
C18 C13 1_555 1_555
H11 C18 1_555 1_555
C19 C13 1_555 1_555
C20 C15 1_555 1_555
C21 C22 1_555 1_555
C22 H12 1_555 1_555
C23 C22 1_555 1_555
C24 C23 1_555 1_555
H13 C24 1_555 1_555
C25 C24 1_555 1_555
C26 C21 1_555 1_555
H14 C26 1_555 1_555
C27 C21 1_555 1_555
C28 C23 1_555 1_555
C29 C30 1_555 1_555
C30 H15 1_555 1_555
C31 C30 1_555 1_555
C32 C31 1_555 1_555
H16 C32 1_555 1_555
C33 C32 1_555 1_555
C34 C29 1_555 1_555
H17 C34 1_555 1_555
C35 C29 1_555 1_555
C36 C31 1_555 1_555
C37 C38 1_555 1_555
C38 H18 1_555 1_555
C39 C38 1_555 1_555
C40 C39 1_555 1_555
H19 C40 1_555 1_555
C41 C40 1_555 1_555
C42 C37 1_555 1_555
H20 C42 1_555 1_555
C43 C37 1_555 1_555
C44 H21 1_555 1_555
C45 C44 1_555 1_555
H22 C45 1_555 1_555
C46 C45 1_555 1_555
H23 C46 1_555 1_555
C47 C46 1_555 1_555
C48 C47 1_555 1_555
H24 C48 1_555 1_555
C49 C48 1_555 1_555
H25 C49 1_555 1_555
C50 C49 1_555 1_555
C51 C50 1_555 1_555
H26 C51 1_555 1_555
C52 C51 1_555 1_555
H27 C52 1_555 1_555
C53 C52 1_555 1_555
H28 C53 1_555 1_555
C54 C50 1_555 1_555
C55 C47 1_555 1_555
C56 C39 1_555 1_555
N1 C1 1_555 1_555
N2 Sm1 1_555 1_555
N3 C44 1_555 1_555
N4 Sm2 1_555 1_555
O1 Sm1 1_555 1_555
O2 C19 1_555 1_555
O3 C20 1_555 1_555
H29 O3 1_555 1_555
O4 C20 1_555 1_555
N5 C17 1_555 1_555
H30 N5 1_555 1_555
H31 N5 1_555 1_555
O5 Sm1 1_555 1_555
O6 Sm1 1_555 1_555
O7 Sm2 1_555 1_555
O8 Sm2 1_555 1_555
N6 C25 1_555 1_555
H32 N6 1_555 1_555
H33 N6 1_555 1_555
O9 Sm2 1_555 1_555
O10 C35 1_555 1_555
O11 C36 1_555 1_555
H34 O11 1_555 1_555
O12 C36 1_555 1_555
N7 C33 1_555 1_555
H35 N7 1_555 1_555
H36 N7 1_555 1_555
O13 C43 1_555 1_555
O14 C43 1_555 1_555
O15 Sm1 1_555 1_555
O16 Sm1 1_555 1_555
N8 C41 1_555 1_555
H37 N8 1_555 1_555
H38 N8 1_555 1_555
Sm1A O2 1_555 1_555
Sm2A O10 1_555 1_555
Sm2_2 O13 1_555 1_555
Sm2A_2 O14 1_555 1_555
O2A Sm1 1_555 1_555
O5A Sm1 1_555 1_555
O10A Sm2 1_555 1_555
O13_2 Sm2 1_555 1_555
O14A Sm2 1_555 1_555
C10 N2 1_555 1_555
C11 C12 1_555 1_555
C11 N2 1_555 1_555
C12 N1 1_555 1_555
C17 C18 1_555 1_555
C19 O1 1_555 1_555
C25 C26 1_555 1_555
C27 O5 1_555 1_555
C27 O6 1_555 1_555
C28 O7 1_555 1_555
C28 O8 1_555 1_555
C33 C34 1_555 1_555
C35 O9 1_555 1_555
C41 C42 1_555 1_555
C53 N4 1_555 1_555
C54 C55 1_555 1_555
C54 N4 1_555 1_555
C55 N3 1_555 1_555
C56 O15 1_555 1_555
C56 O16 1_555 1_555
O5 Sm1A 1_555 1_555
Sm1A O5A 1_555 1_555

#END
