
#######################################################################
#
#                 Cambridge Crystallographic Data Centre
#                                CCDC 
#
#######################################################################
#
# If this CIF has been generated from an entry in the Cambridge 
# Structural Database, then it will include bibliographic, chemical, 
# crystal, experimental, refinement or atomic coordinate data resulting 
# from the CCDC's data processing and validation procedures.
#
#######################################################################

data_YOFLUB
_symmetry_cell_setting           monoclinic
_symmetry_space_group_name_H-M   'P 21/n'
_symmetry_Int_Tables_number      14
_space_group_name_Hall           '-P 2yn'
loop_
_symmetry_equiv_pos_site_id
_symmetry_equiv_pos_as_xyz
1 x,y,z
2 1/2-x,1/2+y,1/2-z
3 -x,-y,-z
4 1/2+x,1/2-y,1/2+z
_cell_length_a                   13.9590(5)
_cell_length_b                   22.4850(7)
_cell_length_c                   19.1568(6)
_cell_angle_alpha                90
_cell_angle_beta                 97.778(2)
_cell_angle_gamma                90
_cell_volume                     5957.39
loop_
_atom_site_label
_atom_site_type_symbol
_atom_site_fract_x
_atom_site_fract_y
_atom_site_fract_z
Mo1 Mo -0.48638(3) 0.705635(17) 0.33774(2)
Mo2 Mo -0.43222(3) 0.676854(17) 0.51482(2)
Mo3 Mo -0.55777(3) 0.771625(18) 0.60311(2)
Mo4 Mo -0.64376(3) 0.888562(18) 0.47503(2)
Mo5 Mo -0.62035(3) 0.830679(19) 0.31454(2)
Cu1 Cu -0.25912(4) 0.73676(2) 0.23209(3)
Cu2 Cu -0.5000 0.5000 0.5000
P1 P -0.66680(9) 0.72994(5) 0.44460(6)
P2 P -0.43410(9) 0.81959(5) 0.45814(6)
O1 O -0.5781(2) 0.69477(13) 0.42593(17)
O2 O -0.3988(2) 0.68921(14) 0.42274(16)
O3 O -0.4787(2) 0.80116(13) 0.38336(16)
O4 O -0.5982(2) 0.74722(14) 0.29405(16)
O5 O -0.3978(2) 0.72781(14) 0.28779(16)
O6 O -0.5115(3) 0.63537(14) 0.30743(18)
O7 O -0.4593(2) 0.77178(13) 0.51186(16)
O8 O -0.5045(3) 0.69472(14) 0.59188(17)
O9 O -0.4683(2) 0.60354(14) 0.50793(17)
O10 O -0.3189(3) 0.67468(16) 0.55952(19)
O11 O -0.6121(3) 0.84077(15) 0.55699(17)
O12 O -0.6678(2) 0.73001(14) 0.52256(17)
O13 O -0.6365(2) 0.75749(14) 0.66318(16)
O14 O -0.4637(3) 0.80382(16) 0.65554(18)
O15 O -0.6633(3) 0.79371(14) 0.41467(17)
O16 O -0.6256(3) 0.89539(14) 0.37825(17)
O17 O -0.4761(2) 0.87855(13) 0.47737(16)
O18 O -0.7678(3) 0.88817(16) 0.4683(2)
O19 O -0.6137(3) 0.95837(15) 0.50591(19)
O20 O -0.7353(3) 0.83259(17) 0.2709(2)
O21 O -0.5525(3) 0.86366(17) 0.2577(2)
O22 O -0.7613(3) 0.69915(17) 0.4111(2)
H1 H -0.7630 0.6982 0.3682
O23 O -0.3238(2) 0.82112(15) 0.4634(2)
H2 H -0.3077 0.8463 0.4362
N1 N -0.2543(3) 0.82898(16) 0.2491(2)
N2 N -0.2428(3) 1.14398(17) 0.2797(2)
N3 N -0.3535(3) 0.74505(17) 0.14318(19)
N4 N -0.6649(3) 0.77030(17) -0.17882(19)
N5 N -0.3853(3) 0.48998(19) 0.4434(2)
N6 N 0.1068(5) 0.5130(4) 0.3890(4)
N7 N -0.4048(3) 0.49161(18) 0.5902(2)
N8 N -0.0971(4) 0.4299(2) 0.9019(2)
C1 C -0.1850(4) 0.8627(2) 0.2268(3)
H3 H -0.1393 0.8442 0.2029
C2 C -0.1782(4) 0.9234(2) 0.2374(3)
H4 H -0.1280 0.9447 0.2219
C3 C -0.2462(4) 0.9524(2) 0.2712(3)
C4 C -0.3167(4) 0.9175(2) 0.2951(3)
H5 H -0.3636 0.9350 0.3186
C5 C -0.3178(4) 0.8563(2) 0.2841(3)
H6 H -0.3647 0.8336 0.3018
C6 C -0.1600(4) 1.1124(2) 0.2843(3)
H7 H -0.1017 1.1329 0.2878
C7 C -0.1577(4) 1.0506(2) 0.2840(3)
H8 H -0.0988 1.0307 0.2876
C8 C -0.2442(4) 1.0185(2) 0.2782(3)
C9 C -0.3289(4) 1.0515(2) 0.2759(3)
H9 H -0.3881 1.0321 0.2736
C10 C -0.3255(4) 1.1130(2) 0.2769(3)
H10 H -0.3832 1.1338 0.2756
C11 C -0.4332(4) 0.7795(2) 0.1391(2)
H11 H -0.4472 0.7983 0.1798
C12 C -0.4943(4) 0.7881(2) 0.0775(3)
H12 H -0.5485 0.8122 0.0770
C13 C -0.4752(3) 0.7606(2) 0.0160(2)
C14 C -0.3943(4) 0.7244(2) 0.0204(2)
H13 H -0.3795 0.7046 -0.0194
C15 C -0.3352(3) 0.7177(2) 0.0848(2)
H14 H -0.2811 0.6933 0.0870
C16 C -0.6976(4) 0.7770(2) -0.1171(3)
H15 H -0.7636 0.7824 -0.1170
C17 C -0.6385(4) 0.7764(2) -0.0535(2)
H16 H -0.6647 0.7821 -0.0118
C18 C -0.5405(4) 0.7671(2) -0.0515(2)
C19 C -0.5063(4) 0.7606(3) -0.1154(3)
H17 H -0.4405 0.7553 -0.1165
C20 C -0.5694(4) 0.7621(3) -0.1777(3)
H18 H -0.5448 0.7572 -0.2201
C21 C -0.3510(4) 0.5398(2) 0.4162(3)
H19 H -0.3923 0.5721 0.4068
C22 C -0.2579(4) 0.5446(2) 0.4018(3)
H20 H -0.2368 0.5800 0.3839
C23 C -0.1946(4) 0.4968(3) 0.4139(3)
C24 C -0.2322(4) 0.4436(2) 0.4365(3)
H21 H -0.1942 0.4095 0.4423
C25 C -0.3269(4) 0.4426(2) 0.4500(3)
H22 H -0.3515 0.4069 0.4644
C26 C 0.0569(6) 0.4617(4) 0.3768(5)
H23 H 0.0903 0.4289 0.3629
C27 C -0.0392(5) 0.4542(3) 0.3831(4)
H24 H -0.0690 0.4176 0.3730
C28 C -0.0913(5) 0.5016(3) 0.4048(3)
C29 C -0.0433(5) 0.5552(3) 0.4163(4)
H25 H -0.0756 0.5888 0.4291
C30 C 0.0538(6) 0.5581(4) 0.4085(5)
H26 H 0.0848 0.5945 0.4176
C31 C -0.3722(6) 0.5367(2) 0.6338(3)
H27 H -0.3941 0.5750 0.6223
C32 C -0.3084(6) 0.5286(2) 0.6942(3)
H28 H -0.2870 0.5610 0.7222
C33 C -0.2766(4) 0.4721(2) 0.7128(3)
C34 C -0.3083(4) 0.4257(2) 0.6682(3)
H29 H -0.2873 0.3870 0.6786
C35 C -0.3712(4) 0.4377(2) 0.6084(3)
H30 H -0.3916 0.4061 0.5787
C36 C -0.0761(5) 0.4776(3) 0.8662(3)
H31 H -0.0234 0.5012 0.8834
C37 C -0.1312(5) 0.4923(2) 0.8047(3)
H32 H -0.1150 0.5252 0.7792
C38 C -0.2117(4) 0.4581(2) 0.7795(3)
C39 C -0.2326(5) 0.4086(3) 0.8180(3)
H33 H -0.2861 0.3850 0.8029
C40 C -0.1728(5) 0.3954(3) 0.8785(3)
H34 H -0.1849 0.3616 0.9040
Mo1B Mo -0.51362(3) 0.294365(17) 0.66226(2)
Mo2B Mo -0.56778(3) 0.323146(17) 0.48518(2)
Mo3B Mo -0.44223(3) 0.228375(18) 0.39689(2)
Mo4B Mo -0.35624(3) 0.111438(18) 0.52497(2)
Mo5B Mo -0.37965(3) 0.169321(19) 0.68546(2)
Cu1B Cu -0.74088(4) 0.26324(2) 0.76791(3)
Cu1C Cu -0.75912(4) 0.76324(2) 0.73209(3)
Cu1A Cu -0.24088(4) 1.23676(2) 0.26791(3)
Cu1C_2 Cu -0.75912(4) 0.76324(2) -0.26791(3)
Cu1A_2 Cu -0.24088(4) 0.23676(2) 0.26791(3)
Cu1C_3 Cu 0.24088(4) 0.76324(2) 0.73209(3)
P1B P -0.33320(9) 0.27006(5) 0.55540(6)
P2B P -0.56590(9) 0.18041(5) 0.54186(6)
O1B O -0.4219(2) 0.30523(13) 0.57407(17)
O2B O -0.6012(2) 0.31079(14) 0.57726(16)
O3B O -0.5213(2) 0.19884(13) 0.61664(16)
O4B O -0.4018(2) 0.25278(14) 0.70595(16)
O5B O -0.6022(2) 0.27219(14) 0.71221(16)
O6B O -0.4885(3) 0.36463(14) 0.69257(18)
O7B O -0.5407(2) 0.22822(13) 0.48814(16)
O8B O -0.4955(3) 0.30528(14) 0.40812(17)
O9B O -0.5317(2) 0.39646(14) 0.49207(17)
O10B O -0.6811(3) 0.32532(16) 0.44048(19)
O11B O -0.3879(3) 0.15923(15) 0.44301(17)
O12B O -0.3322(2) 0.26999(14) 0.47744(17)
O13B O -0.3635(2) 0.24251(14) 0.33682(16)
O13C O -0.1365(2) 0.74251(14) 0.16318(16)
O13A O -0.8635(2) 0.25749(14) 0.83682(16)
O14B O -0.5363(3) 0.19618(16) 0.34446(18)
O15B O -0.3367(3) 0.20629(14) 0.58533(17)
O16B O -0.3744(3) 0.10461(14) 0.62175(17)
O17B O -0.5239(2) 0.12145(13) 0.52263(16)
O18B O -0.2322(3) 0.11183(16) 0.5317(2)
O19B O -0.3863(3) 0.04163(15) 0.49409(19)
O20B O -0.2647(3) 0.16741(17) 0.7291(2)
O21B O -0.4475(3) 0.13634(17) 0.7423(2)
O22B O -0.2387(3) 0.30085(17) 0.5889(2)
H1B H -0.2370 0.3018 0.6318
O23B O -0.6762(2) 0.17888(15) 0.5366(2)
H2B H -0.6923 0.1537 0.5638
N1A N -0.2457(3) 0.32898(16) 0.2509(2)
N1B N -0.7457(3) 0.17102(16) 0.7509(2)
N2A N -0.2572(3) 0.64398(17) 0.2203(2)
N2C N -0.7428(3) 0.35602(17) 0.7797(2)
N3C N 0.1465(3) 0.75495(17) 0.64318(19)
N3B N -0.6465(3) 0.25495(17) 0.85682(19)
N4C N -0.1649(3) 0.72970(17) 0.32118(19)
N4A N -0.8351(3) 0.27030(17) 0.67882(19)
N5B N -0.6147(3) 0.51002(19) 0.5566(2)
N6B N -1.1068(5) 0.4870(4) 0.6110(4)
N7B N -0.5952(3) 0.50839(18) 0.4098(2)
N8B N -0.9029(4) 0.5701(2) 0.0981(2)
C1A C -0.3150(4) 0.3627(2) 0.2732(3)
H3A H -0.3607 0.3442 0.2971
C2A C -0.3218(4) 0.4234(2) 0.2626(3)
H4A H -0.3720 0.4447 0.2781
C3A C -0.2538(4) 0.4524(2) 0.2288(3)
C4A C -0.1833(4) 0.4175(2) 0.2049(3)
H5A H -0.1364 0.4350 0.1814
C5A C -0.1822(4) 0.3563(2) 0.2159(3)
H6A H -0.1353 0.3336 0.1982
C6A C -0.3400(4) 0.6124(2) 0.2157(3)
H7A H -0.3983 0.6329 0.2122
C7A C -0.3423(4) 0.5506(2) 0.2160(3)
H8A H -0.4012 0.5307 0.2124
C8A C -0.2558(4) 0.5185(2) 0.2218(3)
C9A C -0.1711(4) 0.5515(2) 0.2241(3)
H9A H -0.1119 0.5321 0.2264
C10A C -0.1745(4) 0.6130(2) 0.2231(3)
H10A H -0.1168 0.6338 0.2244
C11C C 0.0668(4) 0.7205(2) 0.6391(2)
H11C H 0.0528 0.7017 0.6798
C12C C 0.0057(4) 0.7119(2) 0.5775(3)
H12C H -0.0485 0.6878 0.5770
C13C C 0.0248(3) 0.7394(2) 0.5160(2)
C14C C 0.1057(4) 0.7756(2) 0.5204(2)
H13C H 0.1205 0.7954 0.4806
C15C C 0.1648(3) 0.7823(2) 0.5848(2)
H14C H 0.2189 0.8067 0.5870
C16C C -0.1976(4) 0.7230(2) 0.3829(3)
H15C H -0.2636 0.7176 0.3830
C17C C -0.1385(4) 0.7236(2) 0.4465(2)
H16C H -0.1647 0.7179 0.4882
C18C C -0.0405(4) 0.7329(2) 0.4485(2)
C19C C -0.0063(4) 0.7394(3) 0.3846(3)
H17C H 0.0595 0.7447 0.3835
C20C C -0.0694(4) 0.7379(3) 0.3223(3)
H18C H -0.0448 0.7428 0.2799
C21B C -0.6490(4) 0.4602(2) 0.5838(3)
H19B H -0.6077 0.4279 0.5932
C22B C -0.7421(4) 0.4554(2) 0.5982(3)
H20B H -0.7632 0.4200 0.6161
C23B C -0.8054(4) 0.5032(3) 0.5861(3)
C24B C -0.7678(4) 0.5564(2) 0.5635(3)
H21B H -0.8058 0.5905 0.5577
C25B C -0.6731(4) 0.5574(2) 0.5500(3)
H22B H -0.6485 0.5931 0.5356
C26B C -1.0569(6) 0.5383(4) 0.6232(5)
H23B H -1.0903 0.5711 0.6371
C27B C -0.9608(5) 0.5458(3) 0.6169(4)
H24B H -0.9310 0.5824 0.6270
C28B C -0.9087(5) 0.4984(3) 0.5952(3)
C29B C -0.9567(5) 0.4448(3) 0.5837(4)
H25B H -0.9244 0.4112 0.5709
C30B C -1.0538(6) 0.4419(4) 0.5915(5)
H26B H -1.0848 0.4055 0.5824
C31B C -0.6278(6) 0.4633(2) 0.3662(3)
H27B H -0.6059 0.4250 0.3777
C32B C -0.6916(6) 0.4714(2) 0.3058(3)
H28B H -0.7130 0.4390 0.2778
C33B C -0.7234(4) 0.5279(2) 0.2872(3)
C34B C -0.6917(4) 0.5743(2) 0.3318(3)
H29B H -0.7127 0.6130 0.3214
C35B C -0.6288(4) 0.5623(2) 0.3916(3)
H30B H -0.6084 0.5939 0.4213
C36B C -0.9239(5) 0.5224(3) 0.1338(3)
H31B H -0.9766 0.4988 0.1166
C37B C -0.8688(5) 0.5077(2) 0.1953(3)
H32B H -0.8850 0.4748 0.2208
C38B C -0.7883(4) 0.5419(2) 0.2205(3)
C39B C -0.7674(5) 0.5914(3) 0.1820(3)
H33B H -0.7139 0.6150 0.1971
C40B C -0.8272(5) 0.6046(3) 0.1215(3)
H34B H -0.8151 0.6384 0.0960
O24 O 0.4412(4) 0.3454(3) 0.2650(3)
O25 O 0.1943(4) 0.2309(3) 0.3593(3)
O26 O 0.8207(4) 0.2879(2) 0.7263(2)
N9 N 0.2030(15) 0.0995(9) 0.5403(9)
C41 C 0.1122(11) 0.1190(6) 0.4767(12)
C43 C 0.0316(11) 0.0818(6) 0.4651(12)
C45 C 0.0429(14) 0.0202(8) 0.5215(10)
C47 C 0.1345(4) 0.0017(3) 0.5177(4)
C48 C 0.2102(4) 0.0420(3) 0.5276(4)
N9B N -0.2030(15) -0.0995(9) 0.4597(9)
C41B C -0.1122(11) -0.1190(6) 0.5233(12)
C43B C -0.0316(11) -0.0818(6) 0.5349(12)
C45B C -0.0429(14) -0.0202(8) 0.4785(10)
C47B C -0.1345(4) -0.0017(3) 0.4823(4)
C48B C -0.2102(4) -0.0420(3) 0.4724(4)
N10? N 0.1929(15) 0.0986(11) 0.5081(9)
C42? C 0.1110(11) 0.1171(6) 0.5517(12)
C44? C 0.0282(11) 0.0788(6) 0.5440(12)
C46? C 0.0422(17) 0.0223(9) 0.4822(10)
loop_
_geom_bond_atom_site_label_1
_geom_bond_atom_site_label_2
_geom_bond_site_symmetry_1
_geom_bond_site_symmetry_2
Mo1 O1 1_555 1_555
Mo2 O1 1_555 1_555
Mo3 O7 1_555 1_555
Mo4 O11 1_555 1_555
Mo5 O3 1_555 1_555
Cu1 O5 1_555 1_555
Cu2 O9 1_555 1_555
P1 O1 1_555 1_555
P2 O3 1_555 1_555
O2 Mo1 1_555 1_555
O3 Mo1 1_555 1_555
O4 Mo1 1_555 1_555
O5 Mo1 1_555 1_555
O6 Mo1 1_555 1_555
O7 Mo2 1_555 1_555
O8 Mo2 1_555 1_555
O9 Mo2 1_555 1_555
O10 Mo2 1_555 1_555
O11 Mo3 1_555 1_555
O12 Mo3 1_555 1_555
O13 Mo3 1_555 1_555
O14 Mo3 1_555 1_555
O15 Mo4 1_555 1_555
O16 Mo4 1_555 1_555
O17 Mo4 1_555 1_555
O18 Mo4 1_555 1_555
O19 Mo4 1_555 1_555
O20 Mo5 1_555 1_555
O21 Mo5 1_555 1_555
O22 P1 1_555 1_555
H1 O22 1_555 1_555
O23 P2 1_555 1_555
H2 O23 1_555 1_555
N1 Cu1 1_555 1_555
N2 C6 1_555 1_555
N3 Cu1 1_555 1_555
N4 C16 1_555 1_555
N5 Cu2 1_555 1_555
N6 C26 1_555 1_555
N7 Cu2 1_555 1_555
N8 C36 1_555 1_555
N9 C41 1_555 1_555
C1 N1 1_555 1_555
H3 C1 1_555 1_555
C2 C1 1_555 1_555
H4 C2 1_555 1_555
C3 C2 1_555 1_555
C4 C3 1_555 1_555
H5 C4 1_555 1_555
C5 N1 1_555 1_555
H6 C5 1_555 1_555
C6 H7 1_555 1_555
C7 C6 1_555 1_555
H8 C7 1_555 1_555
C8 C3 1_555 1_555
C9 C8 1_555 1_555
H9 C9 1_555 1_555
C10 N2 1_555 1_555
H10 C10 1_555 1_555
C11 N3 1_555 1_555
H11 C11 1_555 1_555
C12 C11 1_555 1_555
H12 C12 1_555 1_555
C13 C12 1_555 1_555
C14 C13 1_555 1_555
H13 C14 1_555 1_555
C15 N3 1_555 1_555
H14 C15 1_555 1_555
C16 H15 1_555 1_555
C17 C16 1_555 1_555
H16 C17 1_555 1_555
C18 C13 1_555 1_555
C19 C18 1_555 1_555
H17 C19 1_555 1_555
C20 N4 1_555 1_555
H18 C20 1_555 1_555
C21 N5 1_555 1_555
H19 C21 1_555 1_555
C22 C21 1_555 1_555
H20 C22 1_555 1_555
C23 C22 1_555 1_555
C24 C23 1_555 1_555
H21 C24 1_555 1_555
C25 N5 1_555 1_555
H22 C25 1_555 1_555
C26 H23 1_555 1_555
C27 C26 1_555 1_555
H24 C27 1_555 1_555
C28 C23 1_555 1_555
C29 C28 1_555 1_555
H25 C29 1_555 1_555
C30 N6 1_555 1_555
H26 C30 1_555 1_555
C31 N7 1_555 1_555
H27 C31 1_555 1_555
C32 C31 1_555 1_555
H28 C32 1_555 1_555
C33 C32 1_555 1_555
C34 C33 1_555 1_555
H29 C34 1_555 1_555
C35 N7 1_555 1_555
H30 C35 1_555 1_555
C36 H31 1_555 1_555
C37 C36 1_555 1_555
H32 C37 1_555 1_555
C38 C33 1_555 1_555
C39 C38 1_555 1_555
H33 C39 1_555 1_555
C40 N8 1_555 1_555
H34 C40 1_555 1_555
C41 C43 1_555 1_555
C43 C45 1_555 1_555
C45 C47 1_555 1_555
C47 C48 1_555 1_555
C48 N9 1_555 1_555
Mo1B O1B 1_555 1_555
Mo2B O1B 1_555 1_555
Mo3B O7B 1_555 1_555
Mo4B O11B 1_555 1_555
Mo5B O3B 1_555 1_555
Cu1B O5B 1_555 1_555
Cu1C O13 1_555 1_555
Cu1A N2 1_555 1_555
Cu1C_2 N4 1_555 1_555
Cu1A_2 O13B 1_555 1_555
Cu1C_3 N3C 1_555 1_555
P1B O1B 1_555 1_555
P2B O3B 1_555 1_555
O2B Mo1B 1_555 1_555
O3B Mo1B 1_555 1_555
O4B Mo1B 1_555 1_555
O5B Mo1B 1_555 1_555
O6B Mo1B 1_555 1_555
O7B Mo2B 1_555 1_555
O8B Mo2B 1_555 1_555
O9B Cu2 1_555 1_555
O10B Mo2B 1_555 1_555
O11B Mo3B 1_555 1_555
O12B Mo3B 1_555 1_555
O13B Mo3B 1_555 1_555
O13C Cu1 1_555 1_555
O13A Cu1B 1_555 1_555
O14B Mo3B 1_555 1_555
O15B Mo4B 1_555 1_555
O16B Mo4B 1_555 1_555
O17B Mo4B 1_555 1_555
O18B Mo4B 1_555 1_555
O19B Mo4B 1_555 1_555
O20B Mo5B 1_555 1_555
O21B Mo5B 1_555 1_555
O22B P1B 1_555 1_555
H1B O22B 1_555 1_555
O23B P2B 1_555 1_555
H2B O23B 1_555 1_555
N1A Cu1A_2 1_555 1_555
N1B Cu1B 1_555 1_555
N2A Cu1 1_555 1_555
N2C Cu1B 1_555 1_555
N3C C11C 1_555 1_555
N3B Cu1B 1_555 1_555
N4C Cu1 1_555 1_555
N4A Cu1B 1_555 1_555
N5B Cu2 1_555 1_555
N6B C26B 1_555 1_555
N7B Cu2 1_555 1_555
N8B C36B 1_555 1_555
N9B C41B 1_555 1_555
C1A N1A 1_555 1_555
H3A C1A 1_555 1_555
C2A C1A 1_555 1_555
H4A C2A 1_555 1_555
C3A C2A 1_555 1_555
C4A C3A 1_555 1_555
H5A C4A 1_555 1_555
C5A N1A 1_555 1_555
H6A C5A 1_555 1_555
C6A N2A 1_555 1_555
H7A C6A 1_555 1_555
C7A C6A 1_555 1_555
H8A C7A 1_555 1_555
C8A C3A 1_555 1_555
C9A C8A 1_555 1_555
H9A C9A 1_555 1_555
C10A N2A 1_555 1_555
H10A C10A 1_555 1_555
C11C H11C 1_555 1_555
C12C C11C 1_555 1_555
H12C C12C 1_555 1_555
C13C C12C 1_555 1_555
C14C C13C 1_555 1_555
H13C C14C 1_555 1_555
C15C N3C 1_555 1_555
H14C C15C 1_555 1_555
C16C N4C 1_555 1_555
H15C C16C 1_555 1_555
C17C C16C 1_555 1_555
H16C C17C 1_555 1_555
C18C C13C 1_555 1_555
C19C C18C 1_555 1_555
H17C C19C 1_555 1_555
C20C N4C 1_555 1_555
H18C C20C 1_555 1_555
C21B N5B 1_555 1_555
H19B C21B 1_555 1_555
C22B C21B 1_555 1_555
H20B C22B 1_555 1_555
C23B C22B 1_555 1_555
C24B C23B 1_555 1_555
H21B C24B 1_555 1_555
C25B N5B 1_555 1_555
H22B C25B 1_555 1_555
C26B H23B 1_555 1_555
C27B C26B 1_555 1_555
H24B C27B 1_555 1_555
C28B C23B 1_555 1_555
C29B C28B 1_555 1_555
H25B C29B 1_555 1_555
C30B N6B 1_555 1_555
H26B C30B 1_555 1_555
C31B N7B 1_555 1_555
H27B C31B 1_555 1_555
C32B C31B 1_555 1_555
H28B C32B 1_555 1_555
C33B C32B 1_555 1_555
C34B C33B 1_555 1_555
H29B C34B 1_555 1_555
C35B N7B 1_555 1_555
H30B C35B 1_555 1_555
C36B H31B 1_555 1_555
C37B C36B 1_555 1_555
H32B C37B 1_555 1_555
C38B C33B 1_555 1_555
C39B C38B 1_555 1_555
H33B C39B 1_555 1_555
C40B N8B 1_555 1_555
H34B C40B 1_555 1_555
C41B C43B 1_555 1_555
C43B C45B 1_555 1_555
C45B C45 1_555 1_555
C47B C45B 1_555 1_555
C48B N9B 1_555 1_555
Mo2 O2 1_555 1_555
Mo3 O8 1_555 1_555
Mo5 O4 1_555 1_555
Mo5 O15 1_555 1_555
Mo5 O16 1_555 1_555
P1 O12 1_555 1_555
P1 O15 1_555 1_555
P2 O7 1_555 1_555
P2 O17 1_555 1_555
C4 C5 1_555 1_555
C7 C8 1_555 1_555
C9 C10 1_555 1_555
C14 C15 1_555 1_555
C17 C18 1_555 1_555
C19 C20 1_555 1_555
C24 C25 1_555 1_555
C27 C28 1_555 1_555
C29 C30 1_555 1_555
C34 C35 1_555 1_555
C37 C38 1_555 1_555
C39 C40 1_555 1_555
Mo2B O2B 1_555 1_555
Mo2B O9B 1_555 1_555
Mo3B O8B 1_555 1_555
Mo5B O4B 1_555 1_555
Mo5B O15B 1_555 1_555
Mo5B O16B 1_555 1_555
P1B O12B 1_555 1_555
P1B O15B 1_555 1_555
P2B O7B 1_555 1_555
P2B O17B 1_555 1_555
C4A C5A 1_555 1_555
C7A C8A 1_555 1_555
C9A C10A 1_555 1_555
C14C C15C 1_555 1_555
C17C C18C 1_555 1_555
C19C C20C 1_555 1_555
C24B C25B 1_555 1_555
C27B C28B 1_555 1_555
C29B C30B 1_555 1_555
C34B C35B 1_555 1_555
C37B C38B 1_555 1_555
C39B C40B 1_555 1_555
C47B C48B 1_555 1_555

#END
