
#######################################################################
#
#                 Cambridge Crystallographic Data Centre
#                                CCDC 
#
#######################################################################
#
# If this CIF has been generated from an entry in the Cambridge 
# Structural Database, then it will include bibliographic, chemical, 
# crystal, experimental, refinement or atomic coordinate data resulting 
# from the CCDC's data processing and validation procedures.
#
#######################################################################

data_YOFMOW
_symmetry_cell_setting           orthorhombic
_symmetry_space_group_name_H-M   'C m c a'
_symmetry_Int_Tables_number      64
_space_group_name_Hall           '-C 2ac 2'
loop_
_symmetry_equiv_pos_site_id
_symmetry_equiv_pos_as_xyz
1 x,y,z
2 1/2+x,1/2+y,z
3 -x,1/2-y,1/2+z
4 -x,1/2+y,1/2-z
5 x,-y,-z
6 1/2-x,-y,1/2+z
7 1/2-x,y,1/2-z
8 1/2+x,1/2-y,-z
9 -x,-y,-z
10 1/2-x,1/2-y,-z
11 x,1/2+y,1/2-z
12 x,1/2-y,1/2+z
13 -x,y,z
14 1/2+x,y,1/2-z
15 1/2+x,-y,1/2+z
16 1/2-x,1/2+y,z
_cell_length_a                   7.3616(8)
_cell_length_b                   13.2834(14)
_cell_length_c                   17.4096(19)
_cell_angle_alpha                90
_cell_angle_beta                 90
_cell_angle_gamma                90
_cell_volume                     1702.43
loop_
_atom_site_label
_atom_site_type_symbol
_atom_site_fract_x
_atom_site_fract_y
_atom_site_fract_z
Cd1 Cd 0.5000 0.58821(4) -0.28204(3)
Cd2 Cd 0.5000 0.22165(4) -0.03198(3)
C1 C 0.5000 0.3358(6) -0.2615(5)
H1 H 0.5000 0.3238 -0.3153
C2 C 0.5000 0.4064(6) -0.1560(6)
H2 H 0.5000 0.4565 -0.1171
C3 C 0.5000 0.0129(6) 0.0434(4)
C4 C 0.1058(8) 0.1523(4) -0.1137(3)
N1 N 0.5000 0.4285(5) -0.2305(4)
N2 N 0.5000 0.3099(5) -0.1406(4)
N3 N 0.5000 0.2634(5) -0.2100(4)
O1 O 0.5000 0.0605(3) -0.0889(3)
O2 O 0.5000 0.1035(4) 0.0629(3)
O3 O 0.1843(5) 0.1185(3) -0.1724(2)
O4 O 0.1813(6) 0.1856(3) -0.0536(2)
Cd1J Cd 0.5000 0.08821(4) -0.21796(3)
Cd1_2 Cd 0.5000 -0.41179(4) -0.28204(3)
Cd1A Cd 0.0000 0.08821(4) -0.28204(3)
Cd1A_2 Cd 1.0000 0.08821(4) -0.28204(3)
Cd1K Cd 0.5000 -0.08821(4) 0.21796(3)
Cd1J_2 Cd -0.5000 0.08821(4) -0.21796(3)
Cd1J_3 Cd 1.5000 0.08821(4) -0.21796(3)
Cd2J Cd 0.5000 -0.27835(4) -0.46802(3)
Cd2I Cd 1.0000 0.27835(4) 0.03198(3)
Cd2I_2 Cd 0.0000 0.27835(4) 0.03198(3)
Cd2H Cd 0.5000 -0.22165(4) 0.03198(3)
Cd2_2 Cd -0.5000 0.22165(4) -0.03198(3)
Cd2_3 Cd 1.5000 0.22165(4) -0.03198(3)
C1J C 0.5000 -0.1642(6) -0.2385(5)
H1J H 0.5000 -0.1762 -0.1847
C2J C 0.5000 -0.0936(6) -0.3440(6)
H2J H 0.5000 -0.0435 -0.3829
C3H C 0.5000 -0.0129(6) -0.0434(4)
C4L C 0.8942(8) 0.1523(4) -0.1137(3)
C4L_2 C -0.1058(8) 0.1523(4) -0.1137(3)
C4_2 C 1.1058(8) 0.1523(4) -0.1137(3)
N1J N 0.5000 -0.0715(5) -0.2695(4)
N2J N 0.5000 -0.1901(5) -0.3594(4)
N3J N 0.5000 0.7634(5) -0.2900(4)
N3J_2 N 0.5000 -0.2366(5) -0.2900(4)
O1J O 0.5000 -0.4395(3) -0.4111(3)
O1J_2 O 0.5000 0.5605(3) -0.4111(3)
O1H O 0.5000 -0.0605(3) 0.0889(3)
O2J O 0.5000 -0.3965(4) -0.5629(3)
O2H O 0.5000 -0.1035(4) -0.0629(3)
O3J O 0.1843(5) 0.6185(3) -0.3276(2)
O3L O 0.8157(5) 0.1185(3) -0.1724(2)
O3M O 0.6843(5) 0.1185(3) -0.3276(2)
O3F O 0.3157(5) 0.1185(3) -0.3276(2)
O3C O 0.8157(5) 0.6185(3) -0.3276(2)
O3A O 0.6843(5) 0.6185(3) -0.1724(2)
O3O O 0.3157(5) 0.6185(3) -0.1724(2)
O3L_2 O -0.1843(5) 0.1185(3) -0.1724(2)
O3_2 O 1.1843(5) 0.1185(3) -0.1724(2)
O4E O 0.3187(6) -0.1856(3) -0.5536(2)
O4N O 0.6813(6) -0.1856(3) -0.5536(2)
O4I O 0.3187(6) 0.3144(3) 0.0536(2)
O4G O 0.6813(6) 0.3144(3) 0.0536(2)
O4J O 0.1813(6) -0.3144(3) -0.4464(2)
O4C O 0.8187(6) -0.3144(3) -0.4464(2)
O4L O 0.8187(6) 0.1856(3) -0.0536(2)
O4L_2 O -0.1813(6) 0.1856(3) -0.0536(2)
O4_2 O 1.1813(6) 0.1856(3) -0.0536(2)
loop_
_geom_bond_atom_site_label_1
_geom_bond_atom_site_label_2
_geom_bond_site_symmetry_1
_geom_bond_site_symmetry_2
Cd1 N1 1_555 1_555
Cd2 N2 1_555 1_555
C1 H1 1_555 1_555
C2 H2 1_555 1_555
C3 O2 1_555 1_555
C4 O3 1_555 1_555
N1 C1 1_555 1_555
N2 C2 1_555 1_555
N3 C1 1_555 1_555
O1 Cd2 1_555 1_555
O2 Cd2 1_555 1_555
O3 Cd1J 1_555 1_555
O4 Cd2 1_555 1_555
Cd1J N3 1_555 1_555
Cd1_2 N3J_2 1_555 1_555
Cd1A O3 1_555 1_555
Cd1A_2 O3L 1_555 1_555
Cd1K O1H 1_555 1_555
Cd1J_2 O3L_2 1_555 1_555
Cd1J_3 O3_2 1_555 1_555
Cd2J N2J 1_555 1_555
Cd2I O4G 1_555 1_555
Cd2I_2 O4 1_555 1_555
Cd2H O1H 1_555 1_555
Cd2_2 O4L_2 1_555 1_555
Cd2_3 O4_2 1_555 1_555
C1J H1J 1_555 1_555
C2J H2J 1_555 1_555
C3H C3 1_555 1_555
C4L C4_2 1_555 1_555
C4L_2 C4 1_555 1_555
C4_2 O3_2 1_555 1_555
N1J Cd1J 1_555 1_555
N2J C2J 1_555 1_555
N3J Cd1 1_555 1_555
N3J_2 C1J 1_555 1_555
O1J Cd1_2 1_555 1_555
O1J_2 Cd1 1_555 1_555
O1H C3 1_555 1_555
O2J Cd2J 1_555 1_555
O2H Cd2H 1_555 1_555
O3J Cd1 1_555 1_555
O3L Cd1J 1_555 1_555
O3M Cd1J 1_555 1_555
O3F Cd1J 1_555 1_555
O3C Cd1 1_555 1_555
O3A Cd1 1_555 1_555
O3O Cd1 1_555 1_555
O3L_2 Cd1A 1_555 1_555
O3_2 Cd1A_2 1_555 1_555
O4E Cd2J 1_555 1_555
O4N Cd2J 1_555 1_555
O4I Cd2 1_555 1_555
O4G Cd2 1_555 1_555
O4J Cd2J 1_555 1_555
O4C Cd2J 1_555 1_555
O4L Cd2 1_555 1_555
O4L_2 Cd2I_2 1_555 1_555
O4_2 Cd2I 1_555 1_555
C2 N1 1_555 1_555
C4 O4 1_555 1_555
N2 N3 1_555 1_555
O1 Cd1J 1_555 1_555
O1 C3H 1_555 1_555
Cd1A O3F 1_555 1_555
Cd1A_2 O3M 1_555 1_555
Cd2J O1J 1_555 1_555
Cd2I O4L 1_555 1_555
Cd2I_2 O4I 1_555 1_555
C1J N1J 1_555 1_555
C2J N1J 1_555 1_555
C3H O2H 1_555 1_555
C4L O3L 1_555 1_555
C4L O4L 1_555 1_555
C4L_2 O3L_2 1_555 1_555
C4L_2 O4L_2 1_555 1_555
C4_2 O4_2 1_555 1_555
N2J N3J_2 1_555 1_555

#END
