
#######################################################################
#
#                 Cambridge Crystallographic Data Centre
#                                CCDC 
#
#######################################################################
#
# If this CIF has been generated from an entry in the Cambridge 
# Structural Database, then it will include bibliographic, chemical, 
# crystal, experimental, refinement or atomic coordinate data resulting 
# from the CCDC's data processing and validation procedures.
#
#######################################################################

data_YOFMAH
_symmetry_cell_setting           monoclinic
_symmetry_space_group_name_H-M   'P 21/c'
_symmetry_Int_Tables_number      14
_space_group_name_Hall           '-P 2ybc'
loop_
_symmetry_equiv_pos_site_id
_symmetry_equiv_pos_as_xyz
1 x,y,z
2 -x,1/2+y,1/2-z
3 -x,-y,-z
4 x,1/2-y,1/2+z
_cell_length_a                   19.665
_cell_length_b                   16.966
_cell_length_c                   22.233
_cell_angle_alpha                90
_cell_angle_beta                 111.45
_cell_angle_gamma                90
_cell_volume                     6903.96
loop_
_atom_site_label
_atom_site_type_symbol
_atom_site_fract_x
_atom_site_fract_y
_atom_site_fract_z
Cr1 Cr 0.1140(1) -0.2700(1) 0.2315(1)
O1 O 0.0089(2) -0.2649(2) 0.1767(2)
O2 O 0.0876(2) -0.1865(2) 0.2794(2)
C1 C -0.0275(4) -0.2177(4) 0.1995(3)
C2 C 0.0193(3) -0.1726(3) 0.2601(3)
O3 O -0.0938(2) -0.2083(3) 0.1774(2)
O4 O -0.0095(2) -0.1289(3) 0.2871(2)
O5 O 0.1432(2) -0.1924(2) 0.1801(2)
O6 O 0.2170(2) -0.2621(2) 0.2879(2)
C3 C 0.2102(4) -0.1694(4) 0.2053(3)
C4 C 0.2539(3) -0.2114(4) 0.2693(3)
O7 O 0.2392(2) -0.1200(3) 0.1838(2)
O8 O 0.3192(2) -0.1994(3) 0.2961(2)
O9 O 0.0963(2) -0.3533(2) 0.2855(2)
O10 O 0.1336(2) -0.3613(2) 0.1855(2)
C5 C 0.1305(3) -0.4288(4) 0.2114(3)
C6 C 0.1100(3) -0.4233(4) 0.2717(3)
O11 O 0.1436(2) -0.4922(2) 0.1927(2)
O12 O 0.1073(2) -0.4829(2) 0.3010(2)
Cr2 Cr 0.6203(1) -0.2783(1) 0.2437(1)
O13 O 0.7252(2) -0.2706(2) 0.2965(2)
O14 O 0.6450(2) -0.1990(2) 0.1915(2)
C7 C 0.7602(4) -0.2206(4) 0.2756(3)
C8 C 0.7125(4) -0.1789(4) 0.2125(3)
O15 O 0.8249(2) -0.2048(3) 0.3019(2)
O16 O 0.7403(2) -0.1304(3) 0.1880(2)
O17 O 0.5947(2) -0.1975(2) 0.2955(2)
O18 O 0.5147(2) -0.2715(2) 0.1919(2)
C9 C 0.5273(4) -0.1799(4) 0.2744(3)
C10 C 0.4797(4) -0.2237(4) 0.2133(3)
O19 O 0.4995(2) -0.1317(3) 0.2997(2)
O20 O 0.4144(2) -0.2091(3) 0.1884(2)
O21 O 0.6041(2) -0.3641(2) 0.2962(2)
O22 O 0.6354(2) -0.3659(2) 0.1924(2)
C11 C 0.6112(3) -0.4330(4) 0.2764(3)
C12 C 0.6293(3) -0.4347(4) 0.2146(3)
O23 O 0.6053(2) -0.4950(2) 0.3025(2)
O24 O 0.6373(3) -0.4970(3) 0.1912(2)
Na1 Na 0.3698(1) -0.1094(1) 0.2453(1)
Na2 Na -0.1345(1) -0.1046(1) 0.2416(1)
Na2A Na 0.1345(1) -0.6046(1) 0.2584(1)
Na2_2 Na 0.8655(1) -0.1046(1) 0.2416(1)
O23A O 0.3947(2) 0.0050(2) 0.1975(2)
O24A O 0.3627(3) 0.0030(3) 0.3088(2)
O11A O -0.1436(2) 0.0078(2) 0.3073(2)
O12A O -0.1073(2) 0.0171(2) 0.1990(2)
O15_2 O -0.1751(2) -0.2048(3) 0.3019(2)
O16_2 O -0.2597(2) -0.1304(3) 0.1880(2)
Na1A Na 0.6302(1) -0.6094(1) 0.2547(1)
N1 N 0.2372(3) -0.7638(4) 0.5018(3)
C13 C 0.2860(6) -0.7980(5) 0.5617(4)
C14 C 0.2545(8) -0.7990(6) 0.4478(5)
C15 C 0.1615(5) -0.7884(6) 0.4917(7)
C16 C 0.2410(2) -0.6778(2) 0.5014(2)
C17 C 0.2609(2) -0.6360(2) 0.5593(2)
C18 C 0.2637(2) -0.5539(2) 0.5590(2)
C19 C 0.2465(2) -0.5135(2) 0.5006(2)
C20 C 0.2265(2) -0.5553(2) 0.4427(2)
C21 C 0.2237(2) -0.6374(2) 0.4431(2)
H1 H 0.276(1) -0.776(1) 0.598(1)
H2 H 0.336(1) -0.787(1) 0.567(1)
H3 H 0.279(1) -0.855(1) 0.560(1)
H4 H 0.304(1) -0.785(1) 0.452(1)
H5 H 0.220(1) -0.779(1) 0.407(1)
H6 H 0.251(1) -0.856(1) 0.449(1)
H7 H 0.147(1) -0.767(1) 0.526(1)
H8 H 0.159(1) -0.845(1) 0.492(1)
H9 H 0.129(1) -0.769(1) 0.450(1)
H10 H 0.273(1) -0.664(1) 0.600(1)
H11 H 0.278(1) -0.525(1) 0.599(1)
H12 H 0.248(1) -0.456(1) 0.500(1)
H13 H 0.215(1) -0.527(1) 0.402(1)
H14 H 0.210(1) -0.666(1) 0.403(1)
N2 N 0.3584(3) -0.4494(3) 0.2219(2)
C22 C 0.4267(4) -0.4420(4) 0.2076(4)
C23 C 0.3197(4) -0.5256(4) 0.1933(3)
C24 C 0.3097(4) -0.3827(4) 0.1858(4)
C25 C 0.3730(2) -0.4500(3) 0.2907(2)
C26 C 0.4283(2) -0.4985(3) 0.3308(2)
C27 C 0.4413(2) -0.5024(3) 0.3967(2)
C28 C 0.3990(2) -0.4578(3) 0.4226(2)
C29 C 0.3436(2) -0.4093(3) 0.3825(2)
C30 C 0.3307(2) -0.4054(3) 0.3165(2)
H15 H 0.460(1) -0.484(1) 0.230(1)
H16 H 0.449(1) -0.391(1) 0.223(1)
H17 H 0.415(1) -0.446(1) 0.161(1)
H19 H 0.351(1) -0.570(1) 0.213(1)
H20 H 0.264(1) -0.384(1) 0.193(1)
H21 H 0.300(1) -0.388(1) 0.140(1)
H22 H 0.334(1) -0.333(1) 0.201(1)
H23 H 0.458(1) -0.529(1) 0.313(1)
H24 H 0.480(1) -0.536(1) 0.425(1)
H25 H 0.408(1) -0.461(1) 0.468(1)
H26 H 0.314(1) -0.378(1) 0.400(1)
H27 H 0.292(1) -0.372(1) 0.289(1)
N3 N 0.4521(3) -0.1592(3) 0.4969(3)
C31 C 0.4120(5) -0.1122(5) 0.4391(4)
C32 C 0.5048(5) -0.1037(5) 0.5455(4)
C33 C 0.3991(6) -0.1902(6) 0.5250(5)
C34 C 0.4925(2) -0.2252(2) 0.4838(2)
C35 C 0.5398(2) -0.2671(2) 0.5365(2)
C36 C 0.5792(2) -0.3308(2) 0.5265(2)
C37 C 0.5714(2) -0.3526(2) 0.4639(2)
C38 C 0.5242(2) -0.3107(2) 0.4112(2)
C39 C 0.4847(2) -0.2470(2) 0.4211(2)
H28 H 0.378(1) -0.146(1) 0.407(1)
H29 H 0.446(1) -0.090(1) 0.422(1)
H30 H 0.386(1) -0.070(1) 0.451(1)
H31 H 0.532(1) -0.132(1) 0.584(1)
H32 H 0.478(1) -0.062(1) 0.556(1)
H33 H 0.538(1) -0.081(1) 0.527(1)
H34 H 0.372(1) -0.147(1) 0.534(1)
H35 H 0.425(1) -0.218(1) 0.565(1)
H36 H 0.365(1) -0.226(1) 0.494(1)
H37 H 0.545(1) -0.252(1) 0.580(1)
H38 H 0.612(1) -0.360(1) 0.563(1)
H39 H 0.599(1) -0.397(1) 0.457(1)
H40 H 0.519(1) -0.326(1) 0.368(1)
H41 H 0.452(1) -0.218(1) 0.385(1)
N4 N 0.0915(3) -0.9331(3) 0.1769(3)
C40 C 0.0681(4) -1.0086(4) 0.1995(4)
C41 C 0.1724(4) -0.9403(5) 0.1919(4)
C42 C 0.0805(4) -0.8664(4) 0.2165(3)
C43 C 0.0490(2) -0.9189(3) 0.1080(2)
C44 C -0.0266(2) -0.9126(3) 0.0889(2)
C45 C -0.0692(2) -0.8978(3) 0.0244(2)
C46 C -0.0361(2) -0.8893(3) -0.0210(2)
C47 C 0.0395(2) -0.8956(3) -0.0019(2)
C48 C 0.0821(2) -0.9104(3) 0.0626(2)
H42 H 0.016(1) -1.006(1) 0.191(1)
H43 H 0.095(1) -1.014(1) 0.246(1)
H44 H 0.079(1) -1.052(1) 0.177(1)
H45 H 0.190(1) -0.893(1) 0.178(1)
H46 H 0.182(1) -0.985(1) 0.169(1)
H47 H 0.198(1) -0.947(1) 0.238(1)
H48 H 0.029(1) -0.860(1) 0.208(1)
H49 H 0.100(1) -0.818(1) 0.205(1)
H50 H 0.106(1) -0.878(1) 0.262(1)
H51 H -0.049(1) -0.919(1) 0.121(1)
H52 H -0.121(1) -0.893(1) 0.011(1)
H53 H -0.065(1) -0.879(1) -0.065(1)
H54 H 0.062(1) -0.890(1) -0.033(1)
H55 H 0.135(1) -0.915(1) 0.076(1)
N5 N 0.0408(3) -0.1507(3) 0.4712(2)
C49 C 0.0448(4) -0.0722(4) 0.4407(3)
C50 C 0.0254(4) -0.1341(4) 0.5310(3)
C51 C -0.0227(4) -0.1958(4) 0.4250(3)
C52 C 0.1100(2) -0.1937(2) 0.4837(2)
C53 C 0.1551(2) -0.2156(2) 0.5460(2)
C54 C 0.2185(2) -0.2589(2) 0.5556(2)
C55 C 0.2368(2) -0.2803(2) 0.5028(2)
C56 C 0.1917(2) -0.2584(2) 0.4405(2)
C57 C 0.1282(2) -0.2151(2) 0.4309(2)
H56 H 0.055(1) -0.081(1) 0.402(1)
H57 H 0.084(1) -0.041(1) 0.471(1)
H58 H 0.021(1) -0.045(1) 0.430(1)
H59 H 0.022(1) -0.183(1) 0.552(1)
H60 H -0.020(1) -0.106(1) 0.520(1)
H61 H 0.064(1) -0.102(1) 0.560(1)
H62 H -0.013(1) -0.207(1) 0.386(1)
H63 H -0.066(1) -0.165(1) 0.414(1)
H64 H -0.028(1) -0.245(1) 0.445(1)
H65 H 0.142(1) -0.201(1) 0.583(1)
H66 H 0.250(1) -0.274(1) 0.599(1)
H67 H 0.281(1) -0.310(1) 0.509(1)
H68 H 0.204(1) -0.273(1) 0.404(1)
H69 H 0.097(1) -0.200(1) 0.388(1)
Cl1 Cl 0.2670(1) -0.4824(1) 0.0192(1)
O25 O 0.1421(3) -0.5417(3) 0.0697(2)
O26 O 0.4254(3) -0.5596(4) 0.0734(3)
O27 O 0.3933(5) -0.0952(5) 0.0852(4)
O28 O 0.0513(5) -0.9212(6) 0.3685(5)
O29 O 0.1744(8) -0.0378(9) 0.3658(7)
O30 O 0.2380(10) -0.9397(10) 0.3528(8)
H18? H -0.074(1) -0.029(1) 0.299(1)
loop_
_geom_bond_atom_site_label_1
_geom_bond_atom_site_label_2
_geom_bond_site_symmetry_1
_geom_bond_site_symmetry_2
Cr1 O1 1_555 1_555
O1 C1 1_555 1_555
O2 Cr1 1_555 1_555
C1 C2 1_555 1_555
C2 O2 1_555 1_555
O3 C1 1_555 1_555
O4 C2 1_555 1_555
O5 Cr1 1_555 1_555
O6 Cr1 1_555 1_555
C3 O5 1_555 1_555
C4 O6 1_555 1_555
O7 C3 1_555 1_555
O8 C4 1_555 1_555
O9 Cr1 1_555 1_555
O10 Cr1 1_555 1_555
C5 O10 1_555 1_555
C6 O9 1_555 1_555
O11 C5 1_555 1_555
O12 C6 1_555 1_555
Cr2 O13 1_555 1_555
O13 C7 1_555 1_555
O14 Cr2 1_555 1_555
C7 C8 1_555 1_555
C8 O14 1_555 1_555
O15 C7 1_555 1_555
O16 C8 1_555 1_555
O17 Cr2 1_555 1_555
O18 Cr2 1_555 1_555
C9 O17 1_555 1_555
C10 O18 1_555 1_555
O19 C9 1_555 1_555
O20 C10 1_555 1_555
O21 Cr2 1_555 1_555
O22 Cr2 1_555 1_555
C11 O21 1_555 1_555
C12 O22 1_555 1_555
O23 C11 1_555 1_555
O24 C12 1_555 1_555
N1 C13 1_555 1_555
C13 H1 1_555 1_555
C14 N1 1_555 1_555
C15 N1 1_555 1_555
C16 N1 1_555 1_555
C17 C16 1_555 1_555
C18 C17 1_555 1_555
C19 C18 1_555 1_555
C20 C19 1_555 1_555
C21 C16 1_555 1_555
N2 C22 1_555 1_555
C22 H15 1_555 1_555
C23 N2 1_555 1_555
C24 N2 1_555 1_555
C25 N2 1_555 1_555
C26 C25 1_555 1_555
C27 C26 1_555 1_555
C28 C27 1_555 1_555
C29 C28 1_555 1_555
C30 C25 1_555 1_555
N3 C31 1_555 1_555
C31 H28 1_555 1_555
C32 N3 1_555 1_555
C33 N3 1_555 1_555
C34 N3 1_555 1_555
C35 C34 1_555 1_555
C36 C35 1_555 1_555
C37 C36 1_555 1_555
C38 C37 1_555 1_555
C39 C34 1_555 1_555
N4 C40 1_555 1_555
C40 H42 1_555 1_555
C41 N4 1_555 1_555
C42 N4 1_555 1_555
C43 N4 1_555 1_555
C44 C43 1_555 1_555
C45 C44 1_555 1_555
C46 C45 1_555 1_555
C47 C46 1_555 1_555
C48 C43 1_555 1_555
N5 C49 1_555 1_555
C49 H56 1_555 1_555
C50 N5 1_555 1_555
C51 N5 1_555 1_555
C52 N5 1_555 1_555
C53 C52 1_555 1_555
C54 C53 1_555 1_555
C55 C54 1_555 1_555
C56 C55 1_555 1_555
C57 C52 1_555 1_555
Na1 O7 1_555 1_555
Na2 O3 1_555 1_555
H2 C13 1_555 1_555
H3 C13 1_555 1_555
H4 C14 1_555 1_555
H5 C14 1_555 1_555
H6 C14 1_555 1_555
H7 C15 1_555 1_555
H8 C15 1_555 1_555
H9 C15 1_555 1_555
H10 C17 1_555 1_555
H11 C18 1_555 1_555
H12 C19 1_555 1_555
H13 C20 1_555 1_555
H14 C21 1_555 1_555
H16 C22 1_555 1_555
H17 C22 1_555 1_555
H19 C23 1_555 1_555
H20 C24 1_555 1_555
H21 C24 1_555 1_555
H22 C24 1_555 1_555
H23 C26 1_555 1_555
H24 C27 1_555 1_555
H25 C28 1_555 1_555
H26 C29 1_555 1_555
H27 C30 1_555 1_555
H29 C31 1_555 1_555
H30 C31 1_555 1_555
H31 C32 1_555 1_555
H32 C32 1_555 1_555
H33 C32 1_555 1_555
H34 C33 1_555 1_555
H35 C33 1_555 1_555
H36 C33 1_555 1_555
H37 C35 1_555 1_555
H38 C36 1_555 1_555
H39 C37 1_555 1_555
H40 C38 1_555 1_555
H41 C39 1_555 1_555
H43 C40 1_555 1_555
H44 C40 1_555 1_555
H45 C41 1_555 1_555
H46 C41 1_555 1_555
H47 C41 1_555 1_555
H48 C42 1_555 1_555
H49 C42 1_555 1_555
H50 C42 1_555 1_555
H51 C44 1_555 1_555
H52 C45 1_555 1_555
H53 C46 1_555 1_555
H54 C47 1_555 1_555
H55 C48 1_555 1_555
H57 C49 1_555 1_555
H58 C49 1_555 1_555
H59 C50 1_555 1_555
H60 C50 1_555 1_555
H61 C50 1_555 1_555
H62 C51 1_555 1_555
H63 C51 1_555 1_555
H64 C51 1_555 1_555
H65 C53 1_555 1_555
H66 C54 1_555 1_555
H67 C55 1_555 1_555
H68 C56 1_555 1_555
H69 C57 1_555 1_555
Na2A O11 1_555 1_555
Na2_2 O15 1_555 1_555
O23A Na1 1_555 1_555
O24A Na1 1_555 1_555
O11A Na2 1_555 1_555
O12A Na2 1_555 1_555
O15_2 Na2 1_555 1_555
O16_2 Na2 1_555 1_555
Na1A O23 1_555 1_555
O4 Na2 1_555 1_555
C3 C4 1_555 1_555
O8 Na1 1_555 1_555
C5 C6 1_555 1_555
O12 Na2A 1_555 1_555
O16 Na2_2 1_555 1_555
C9 C10 1_555 1_555
O19 Na1 1_555 1_555
O20 Na1 1_555 1_555
C11 C12 1_555 1_555
O24 Na1A 1_555 1_555
C20 C21 1_555 1_555
C29 C30 1_555 1_555
C38 C39 1_555 1_555
C47 C48 1_555 1_555
C56 C57 1_555 1_555

#END
