
#######################################################################
#
#                 Cambridge Crystallographic Data Centre
#                                CCDC 
#
#######################################################################
#
# If this CIF has been generated from an entry in the Cambridge 
# Structural Database, then it will include bibliographic, chemical, 
# crystal, experimental, refinement or atomic coordinate data resulting 
# from the CCDC's data processing and validation procedures.
#
#######################################################################

data_YOFMEM
_symmetry_cell_setting           orthorhombic
_symmetry_space_group_name_H-M   'P n n a'
_symmetry_Int_Tables_number      52
_space_group_name_Hall           '-P 2a 2bc'
loop_
_symmetry_equiv_pos_site_id
_symmetry_equiv_pos_as_xyz
1 x,y,z
2 1/2-x,-y,z
3 1/2-x,1/2+y,1/2-z
4 x,1/2-y,1/2-z
5 -x,-y,-z
6 1/2+x,y,-z
7 1/2+x,1/2-y,1/2+z
8 -x,1/2+y,1/2+z
_cell_length_a                   10.1681(8)
_cell_length_b                   13.5490(11)
_cell_length_c                   8.4116(7)
_cell_angle_alpha                90
_cell_angle_beta                 90
_cell_angle_gamma                90
_cell_volume                     1158.85
loop_
_atom_site_label
_atom_site_type_symbol
_atom_site_fract_x
_atom_site_fract_y
_atom_site_fract_z
Cd1 Cd -0.47194(2) 0.2500 0.2500
Cd2 Cd -0.2500 0.5000 0.31798(3)
C1 C -0.2468(3) 0.2311(2) 0.5369(3)
H1 H -0.2890 0.2818 0.5959
C2 C -0.1084(3) 0.1285(2) 0.4584(4)
H2 H -0.0306 0.0901 0.4490
C3 C -0.5242(3) 0.0470(2) 0.0438(4)
N1 N -0.3009(2) 0.31227(16) 0.0873(3)
N2 N -0.2089(2) 0.11977(18) 0.3610(3)
N3 N -0.1259(2) 0.19648(17) 0.5723(3)
O1 O -0.44368(19) 0.08762(14) 0.1385(3)
O2 O -0.3629(2) -0.07629(16) -0.0173(3)
Cd1E Cd 0.02806(2) 0.2500 0.7500
Cd1E_2 Cd 0.02806(2) 0.2500 -0.2500
Cd1G Cd -0.52806(2) -0.2500 -0.2500
Cd2B Cd -0.2500 0.0000 0.18202(3)
Cd2F Cd -0.7500 0.0000 -0.18202(3)
C1C C -0.2468(3) 0.2689(2) -0.0369(3)
H1C H -0.2890 0.2182 -0.0959
C2C C -0.1084(3) 0.3715(2) 0.0416(4)
H2C H -0.0306 0.4099 0.0510
C3D C -0.4758(3) -0.0470(2) -0.0438(4)
N1C N -0.3009(2) 0.18773(16) 0.4127(3)
N2B N -0.2911(2) 0.61977(18) 0.1390(3)
N2C N -0.2089(2) 0.38023(18) 0.1390(3)
N3F N -0.6259(2) 0.30352(17) 0.0723(3)
N3C N -0.1259(2) 0.30352(17) -0.0723(3)
N3E N -0.6259(2) 0.19648(17) 0.4277(3)
O1D O -0.55632(19) -0.08762(14) -0.1385(3)
O1C O -0.44368(19) 0.41238(14) 0.3615(3)
O1B O -0.05632(19) 0.58762(14) 0.3615(3)
O2C O -0.3629(2) 0.57629(16) 0.5173(3)
O2B O -0.1371(2) 0.42371(16) 0.5173(3)
O2D O -0.6371(2) 0.07629(16) 0.0173(3)
loop_
_geom_bond_atom_site_label_1
_geom_bond_atom_site_label_2
_geom_bond_site_symmetry_1
_geom_bond_site_symmetry_2
Cd1 N1 1_555 1_555
Cd2 N2B 1_555 1_555
C1 H1 1_555 1_555
C2 H2 1_555 1_555
C3 O1 1_555 1_555
N1 C1C 1_555 1_555
N2 C2 1_555 1_555
N3 C1 1_555 1_555
O1 Cd1 1_555 1_555
O2 Cd2B 1_555 1_555
Cd1E N3 1_555 1_555
Cd1E_2 N3C 1_555 1_555
Cd1G O1D 1_555 1_555
Cd2B N2 1_555 1_555
Cd2F O1D 1_555 1_555
C1C H1C 1_555 1_555
C2C H2C 1_555 1_555
C3D C3 1_555 1_555
N1C Cd1 1_555 1_555
N2C Cd2 1_555 1_555
N3F Cd1 1_555 1_555
N3C C1C 1_555 1_555
N3E Cd1 1_555 1_555
O1D C3D 1_555 1_555
O1C Cd1 1_555 1_555
O1B Cd2 1_555 1_555
O2C Cd2 1_555 1_555
O2B Cd2 1_555 1_555
O2D C3 1_555 1_555
Cd2 O1C 1_555 1_555
C1 N1C 1_555 1_555
C2 N3 1_555 1_555
N1 N2C 1_555 1_555
N2 N1C 1_555 1_555
O1 Cd2B 1_555 1_555
O2 C3D 1_555 1_555
Cd2F O2D 1_555 1_555
C2C N2C 1_555 1_555
C2C N3C 1_555 1_555

#END
