
#######################################################################
#
#                 Cambridge Crystallographic Data Centre
#                                CCDC 
#
#######################################################################
#
# If this CIF has been generated from an entry in the Cambridge 
# Structural Database, then it will include bibliographic, chemical, 
# crystal, experimental, refinement or atomic coordinate data resulting 
# from the CCDC's data processing and validation procedures.
#
#######################################################################

data_YOFNEM
_symmetry_cell_setting           orthorhombic
_symmetry_space_group_name_H-M   'P c 21 b'
_symmetry_Int_Tables_number      29
_space_group_name_Hall           'P -2bc -2c'
loop_
_symmetry_equiv_pos_site_id
_symmetry_equiv_pos_as_xyz
1 x,y,z
2 x,1/2+y,1/2-z
3 -x,y,1/2+z
4 -x,1/2+y,-z
_cell_length_a                   7.804
_cell_length_b                   24.686
_cell_length_c                   34.376
_cell_angle_alpha                90
_cell_angle_beta                 90
_cell_angle_gamma                90
_cell_volume                     6622.52
loop_
_atom_site_label
_atom_site_type_symbol
_atom_site_fract_x
_atom_site_fract_y
_atom_site_fract_z
Cu1 Cu 0.3443(4) 0.4558(1) 0.44883(8)
Cl1 Cl 0.1430(9) 0.3899(2) 0.4458(2)
N1 N 0.443(2) 0.5338(7) 0.4450(5)
C1 C 0.467(3) 0.547(1) 0.4104(7)
C2 C 0.479(3) 0.569(1) 0.4800(8)
C3 C 0.328(3) 0.5599(9) 0.5081(6)
N2 N 0.353(3) 0.4597(8) 0.5067(5)
C4 C 0.364(4) 0.410(1) 0.5253(7)
C5 C 0.370(4) 0.404(1) 0.5657(8)
C6 C 0.368(3) 0.455(1) 0.5887(7)
C7 C 0.359(4) 0.504(1) 0.5689(8)
C8 C 0.337(3) 0.5067(9) 0.5290(6)
N3 N 0.357(3) 0.4618(8) 0.3886(5)
C9 C 0.321(4) 0.421(1) 0.3627(8)
C10 C 0.359(3) 0.4313(9) 0.3233(6)
C11 C 0.419(3) 0.481(1) 0.3134(7)
C12 C 0.431(3) 0.5086(9) 0.3787(6)
C13 C 0.460(4) 0.520(1) 0.3380(8)
Cu2 Cu -0.1582(4) 0.3591(1) 0.48597(8)
Cl2 Cl 0.6453(9) 0.3946(3) 0.4442(2)
N4 N -0.063(2) 0.3122(7) 0.5298(5)
C14 C -0.049(3) 0.260(1) 0.5201(7)
C15 C -0.043(3) 0.3329(8) 0.5696(6)
C16 C -0.181(3) 0.371(1) 0.5797(7)
N5 N -0.145(2) 0.4269(6) 0.5184(5)
C17 C -0.161(4) 0.286(1) 0.4185(9)
C18 C -0.143(3) 0.232(1) 0.4022(7)
C19 C -0.084(4) 0.192(1) 0.426(1)
C20 C -0.043(3) 0.1976(9) 0.4646(7)
C21 C -0.080(4) 0.251(1) 0.4769(8)
N6 N -0.137(3) 0.2907(8) 0.4562(6)
C22 C -0.127(3) 0.4755(9) 0.5011(6)
C23 C -0.121(3) 0.5234(9) 0.5226(6)
C24 C -0.130(4) 0.523(1) 0.5598(7)
C25 C -0.149(4) 0.472(1) 0.5817(7)
C26 C -0.164(3) 0.4253(9) 0.5583(7)
Cu2_2 Cu 0.8418(4) 0.3591(1) 0.48597(8)
Cl2_2 Cl -0.3547(9) 0.3946(3) 0.4442(2)
Cu3 Cu 0.2732(4) 0.2259(1) 0.29955(8)
Cl3 Cl 0.0746(9) 0.2929(3) 0.3043(2)
N7 N 0.360(2) 0.1511(6) 0.3032(5)
C27 C 0.393(3) 0.1294(9) 0.3363(7)
C28 C 0.373(3) 0.1133(8) 0.2682(6)
C29 C 0.226(3) 0.1275(8) 0.2433(6)
N8 N 0.317(2) 0.2218(7) 0.3575(4)
C30 C 0.298(3) 0.265(1) 0.3849(7)
C31 C 0.347(3) 0.2538(9) 0.4233(7)
C32 C 0.403(3) 0.202(1) 0.4339(7)
C33 C 0.425(3) 0.159(1) 0.4083(7)
C34 C 0.373(3) 0.1723(9) 0.3662(7)
N9 N 0.271(2) 0.2247(7) 0.2420(5)
C35 C 0.286(3) 0.2752(9) 0.2240(6)
C36 C 0.293(3) 0.2788(9) 0.1832(7)
C37 C 0.271(3) 0.231(1) 0.1604(6)
C38 C 0.252(3) 0.1812(9) 0.1804(7)
C39 C 0.255(3) 0.1819(9) 0.2204(6)
Cu4 Cu -0.2272(4) 0.3220(1) 0.26401(8)
Cl4 Cl 0.5764(8) 0.2909(3) 0.3062(2)
N10 N -0.140(3) 0.3720(8) 0.2216(5)
C40 C -0.108(3) 0.4188(9) 0.2302(7)
C41 C -0.137(3) 0.353(1) 0.1811(7)
C42 C -0.270(3) 0.3158(8) 0.1727(5)
N11 N -0.185(2) 0.3926(6) 0.2950(5)
C43 C -0.193(3) 0.3991(8) 0.3333(6)
C44 C -0.138(3) 0.446(1) 0.3515(6)
C45 C -0.083(3) 0.492(1) 0.3291(8)
C46 C -0.074(3) 0.484(1) 0.2874(8)
C47 C -0.121(3) 0.4359(9) 0.2709(6)
N12 N -0.230(2) 0.2583(7) 0.2283(5)
C48 C -0.210(2) 0.2129(8) 0.2485(6)
C49 C -0.205(3) 0.1589(8) 0.2310(6)
C50 C -0.224(3) 0.1615(9) 0.1873(7)
C51 C -0.243(3) 0.2103(8) 0.1703(6)
C52 C -0.244(3) 0.2593(7) 0.1905(5)
Cu4_2 Cu 0.7728(4) 0.3220(1) 0.26401(8)
Cl4_2 Cl -0.4236(8) 0.2909(3) 0.3062(2)
P1 P -0.005(1) 0.1045(4) 0.0847(3)
F1 F -0.039(2) 0.1630(7) 0.0973(5)
F2 F 0.099(3) 0.0920(8) 0.1224(6)
F3 F 0.034(2) 0.0458(6) 0.0719(5)
F4 F -0.116(3) 0.1128(9) 0.0496(7)
F5 F -0.163(3) 0.086(1) 0.1061(7)
F6 F 0.151(3) 0.1207(8) 0.0646(7)
P2 P -0.113(1) 0.0798(4) 0.3339(3)
F7 F -0.076(2) 0.1424(7) 0.3217(6)
F8 F -0.001(2) 0.0620(7) 0.2972(6)
F9 F -0.142(2) 0.0182(7) 0.3448(4)
F10 F -0.273(3) 0.0805(9) 0.3045(6)
F11 F -0.221(2) 0.0994(8) 0.3668(5)
F12 F 0.051(3) 0.0836(9) 0.3588(7)
P3 P 0.535(1) 0.2386(4) 0.0490(3)
F13 F 0.405(2) 0.2063(8) 0.0261(7)
F14 F 0.545(2) 0.1893(7) 0.0784(5)
F15 F 0.517(2) 0.2873(8) 0.0218(6)
F16 F 0.384(3) 0.2642(9) 0.0735(5)
F17 F 0.677(2) 0.2706(8) 0.0732(6)
F18 F 0.681(2) 0.2138(9) 0.0231(6)
P4 P 0.378(1) 0.4454(3) 0.1976(3)
F19 F 0.383(3) 0.3959(7) 0.2287(5)
F20 F 0.262(2) 0.4771(6) 0.2274(4)
F21 F 0.494(3) 0.4144(8) 0.1661(6)
F22 F 0.222(3) 0.4207(9) 0.1762(6)
F23 F 0.372(2) 0.4954(6) 0.1686(5)
F24 F 0.540(2) 0.4713(8) 0.2189(6)
loop_
_geom_bond_atom_site_label_1
_geom_bond_atom_site_label_2
_geom_bond_site_symmetry_1
_geom_bond_site_symmetry_2
Cu1 Cl1 1_555 1_555
Cl1 Cu2 1_555 1_555
N1 Cu1 1_555 1_555
C1 N1 1_555 1_555
C2 N1 1_555 1_555
C3 C2 1_555 1_555
N2 Cu1 1_555 1_555
C4 N2 1_555 1_555
C5 C4 1_555 1_555
C6 C5 1_555 1_555
C7 C6 1_555 1_555
C8 C3 1_555 1_555
N3 Cu1 1_555 1_555
C9 N3 1_555 1_555
C10 C9 1_555 1_555
C11 C10 1_555 1_555
C12 C1 1_555 1_555
C13 C11 1_555 1_555
Cu2 N4 1_555 1_555
Cl2 Cu1 1_555 1_555
N4 C14 1_555 1_555
C14 C21 1_555 1_555
C15 N4 1_555 1_555
C16 C15 1_555 1_555
N5 Cu2 1_555 1_555
C17 C18 1_555 1_555
C18 C19 1_555 1_555
C19 C20 1_555 1_555
C20 C21 1_555 1_555
C21 N6 1_555 1_555
N6 Cu2 1_555 1_555
C22 N5 1_555 1_555
C23 C22 1_555 1_555
C24 C23 1_555 1_555
C25 C24 1_555 1_555
C26 C16 1_555 1_555
Cu3 Cl3 1_555 1_555
Cl3 Cu4 1_555 1_555
N7 Cu3 1_555 1_555
C27 N7 1_555 1_555
C28 N7 1_555 1_555
C29 C28 1_555 1_555
N8 Cu3 1_555 1_555
C30 N8 1_555 1_555
C31 C30 1_555 1_555
C32 C31 1_555 1_555
C33 C32 1_555 1_555
C34 C27 1_555 1_555
N9 Cu3 1_555 1_555
C35 N9 1_555 1_555
C36 C35 1_555 1_555
C37 C36 1_555 1_555
C38 C37 1_555 1_555
C39 C29 1_555 1_555
Cu4 N10 1_555 1_555
Cl4 Cu3 1_555 1_555
N10 C40 1_555 1_555
C40 C47 1_555 1_555
C41 N10 1_555 1_555
C42 C41 1_555 1_555
N11 Cu4 1_555 1_555
C43 N11 1_555 1_555
C44 C43 1_555 1_555
C45 C44 1_555 1_555
C46 C45 1_555 1_555
C47 N11 1_555 1_555
N12 Cu4 1_555 1_555
C48 N12 1_555 1_555
C49 C48 1_555 1_555
C50 C49 1_555 1_555
C51 C50 1_555 1_555
C52 C42 1_555 1_555
P1 F1 1_555 1_555
F2 P1 1_555 1_555
F3 P1 1_555 1_555
F4 P1 1_555 1_555
F5 P1 1_555 1_555
F6 P1 1_555 1_555
P2 F7 1_555 1_555
F8 P2 1_555 1_555
F9 P2 1_555 1_555
F10 P2 1_555 1_555
F11 P2 1_555 1_555
F12 P2 1_555 1_555
P3 F13 1_555 1_555
F14 P3 1_555 1_555
F15 P3 1_555 1_555
F16 P3 1_555 1_555
F17 P3 1_555 1_555
F18 P3 1_555 1_555
P4 F19 1_555 1_555
F20 P4 1_555 1_555
F21 P4 1_555 1_555
F22 P4 1_555 1_555
F23 P4 1_555 1_555
F24 P4 1_555 1_555
Cu2_2 Cl2 1_555 1_555
Cl2_2 Cu2 1_555 1_555
Cu4_2 Cl4 1_555 1_555
Cl4_2 Cu4 1_555 1_555
N2 C8 1_555 1_555
C7 C8 1_555 1_555
N3 C12 1_555 1_555
C12 C13 1_555 1_555
N5 C26 1_555 1_555
C17 N6 1_555 1_555
C25 C26 1_555 1_555
N8 C34 1_555 1_555
C33 C34 1_555 1_555
N9 C39 1_555 1_555
C38 C39 1_555 1_555
C46 C47 1_555 1_555
N12 C52 1_555 1_555
C51 C52 1_555 1_555

#END
