
#######################################################################
#
#                 Cambridge Crystallographic Data Centre
#                                CCDC 
#
#######################################################################
#
# If this CIF has been generated from an entry in the Cambridge 
# Structural Database, then it will include bibliographic, chemical, 
# crystal, experimental, refinement or atomic coordinate data resulting 
# from the CCDC's data processing and validation procedures.
#
#######################################################################

data_YOFRIV
_symmetry_cell_setting           monoclinic
_symmetry_space_group_name_H-M   'P 21/n'
_symmetry_Int_Tables_number      14
_space_group_name_Hall           '-P 2yn'
loop_
_symmetry_equiv_pos_site_id
_symmetry_equiv_pos_as_xyz
1 x,y,z
2 1/2-x,1/2+y,1/2-z
3 -x,-y,-z
4 1/2+x,1/2-y,1/2+z
_cell_length_a                   8.7296(11)
_cell_length_b                   14.4136(19)
_cell_length_c                   22.956(3)
_cell_angle_alpha                90
_cell_angle_beta                 95.295(2)
_cell_angle_gamma                90
_cell_volume                     2876.11
loop_
_atom_site_label
_atom_site_type_symbol
_atom_site_fract_x
_atom_site_fract_y
_atom_site_fract_z
Cd1 Cd 0.748072(19) 0.858899(13) 0.003616(8)
O1 O 0.4884(2) 0.87394(13) 0.03719(10)
O3 O 0.5851(2) 0.73376(14) 0.03411(9)
O5 O 0.0086(2) 0.86919(13) -0.03150(10)
O7 O -0.0898(2) 0.73171(14) -0.01828(10)
O9 O 0.7511(2) 1.01652(16) -0.00026(11)
H9 H 0.673(3) 1.054(2) -0.0085(17)
H10 H 0.824(3) 1.056(2) 0.0098(17)
N1 N 0.8907(3) 0.86329(16) 0.09437(11)
N2 N 1.3325(3) 0.78197(17) 0.24618(10)
N3 N 1.6571(3) 0.73770(16) 0.26435(9)
N4 N 2.1050(3) 0.64838(16) 0.41290(11)
C1 C 0.9531(4) 0.9401(2) 0.11922(15)
H15 H 0.9250 0.9985 0.1023
C2 C 1.0577(4) 0.9380(2) 0.16898(15)
H16 H 1.0995 0.9942 0.1852
C3 C 1.1001(3) 0.8541(2) 0.19446(12)
C4 C 1.0369(3) 0.7747(2) 0.16783(14)
H17 H 1.0648 0.7153 0.1833
C5 C 0.9334(3) 0.7820(2) 0.11882(14)
H18 H 0.8905 0.7267 0.1017
C6 C 1.2073(4) 0.8490(2) 0.25009(13)
H19 H 1.2520 0.9112 0.2587
H20 H 1.1474 0.8314 0.2830
C7 C 1.4104(3) 0.7665(2) 0.30514(12)
H21 H 1.3366 0.7399 0.3309
H22 H 1.4477 0.8264 0.3221
C8 C 1.5447(3) 0.7008(2) 0.30196(12)
H23 H 1.5955 0.6905 0.3418
H24 H 1.5063 0.6402 0.2864
C9 C 1.4444(3) 0.8198(2) 0.20849(12)
H25 H 1.4822 0.8805 0.2241
H26 H 1.3934 0.8301 0.1687
C10 C 1.5797(3) 0.7543(2) 0.20516(11)
H27 H 1.5429 0.6947 0.1876
H28 H 1.6538 0.7816 0.1798
C11 C 1.7806(4) 0.6699(2) 0.25995(13)
H29 H 1.8395 0.6871 0.2267
H30 H 1.7343 0.6081 0.2515
C12 C 2.0544(3) 0.73111(19) 0.39304(12)
H31 H 2.0928 0.7853 0.4129
C13 C 1.9488(3) 0.7411(2) 0.34479(13)
H32 H 1.9164 0.8013 0.3321
C14 C 1.8899(3) 0.6636(2) 0.31485(12)
C15 C 1.9420(4) 0.5781(2) 0.33588(15)
H33 H 1.9050 0.5228 0.3169
C16 C 2.0481(4) 0.5732(2) 0.38467(15)
H34 H 2.0816 0.5138 0.3986
C17 C 0.4750(3) 0.78715(18) 0.04209(11)
C18 C 0.3242(3) 0.7452(2) 0.05709(12)
H35 H 0.2523 0.7959 0.0649
H36 H 0.3431 0.7081 0.0933
C19 C 0.2484(3) 0.6831(2) 0.00833(13)
H37 H 0.3278 0.6418 -0.0058
H38 H 0.1708 0.6433 0.0249
C20 C 0.1704(3) 0.7366(2) -0.04370(12)
H39 H 0.2417 0.7850 -0.0556
H40 H 0.1494 0.6935 -0.0771
C21 C 0.0207(3) 0.78220(19) -0.03037(12)
Cd1_2 Cd -0.251928(19) 0.858899(13) 0.003616(8)
Cd1C Cd 2.248072(19) 0.641101(13) 0.503616(8)
O5_2 O 1.0086(2) 0.86919(13) -0.03150(10)
O7_2 O 0.9102(2) 0.73171(14) -0.01828(10)
N4C N 0.6050(3) 0.85162(16) -0.08710(11)
O2 O 0.2154(3) 1.08407(18) 0.29452(14)
H1 H 0.217(5) 1.1415(16) 0.2821(19)
H2 H 0.312(3) 1.073(3) 0.3100(17)
O4 O 0.7166(3) 0.93755(17) 0.28858(14)
H3 H 0.713(5) 0.8779(15) 0.2793(19)
H4 H 0.810(3) 0.947(3) 0.3051(17)
O6 O 0.9962(3) 0.97803(19) 0.34659(14)
H5 H 0.992(5) 0.993(3) 0.3833(9)
H6 H 1.056(4) 1.019(2) 0.3304(16)
O8 O 0.5947(3) 0.54397(17) 0.04418(12)
H7 H 0.603(5) 0.545(3) 0.0058(4)
H8 H 0.587(4) 0.6055(3) 0.0454(16)
O10 O 0.9946(3) 0.5435(2) 0.15550(14)
H11 H 0.991(5) 0.526(3) 0.1181(9)
H12 H 0.949(5) 0.501(2) 0.1745(16)
O11 O -0.0953(3) 0.55479(18) 0.03055(13)
H13 H -0.093(5) 0.6135(8) 0.0184(16)
H14 H -0.106(5) 0.540(3) -0.0074(5)
loop_
_geom_bond_atom_site_label_1
_geom_bond_atom_site_label_2
_geom_bond_site_symmetry_1
_geom_bond_site_symmetry_2
Cd1 O1 1_555 1_555
O1 C17 1_555 1_555
O2 H1 1_555 1_555
H2 O2 1_555 1_555
O3 Cd1 1_555 1_555
O4 H3 1_555 1_555
H4 O4 1_555 1_555
O5 C21 1_555 1_555
O6 H5 1_555 1_555
H6 O6 1_555 1_555
O7 C21 1_555 1_555
O8 H7 1_555 1_555
H8 O8 1_555 1_555
O9 Cd1 1_555 1_555
H9 O9 1_555 1_555
H10 O9 1_555 1_555
O10 H11 1_555 1_555
H12 O10 1_555 1_555
O11 H13 1_555 1_555
H14 O11 1_555 1_555
N1 Cd1 1_555 1_555
N2 C6 1_555 1_555
N3 C8 1_555 1_555
N4 C12 1_555 1_555
C1 N1 1_555 1_555
H15 C1 1_555 1_555
C2 C1 1_555 1_555
H16 C2 1_555 1_555
C3 C2 1_555 1_555
C4 C3 1_555 1_555
H17 C4 1_555 1_555
C5 N1 1_555 1_555
H18 C5 1_555 1_555
C6 C3 1_555 1_555
H19 C6 1_555 1_555
H20 C6 1_555 1_555
C7 N2 1_555 1_555
H21 C7 1_555 1_555
H22 C7 1_555 1_555
C8 C7 1_555 1_555
H23 C8 1_555 1_555
H24 C8 1_555 1_555
C9 N2 1_555 1_555
H25 C9 1_555 1_555
H26 C9 1_555 1_555
C10 N3 1_555 1_555
H27 C10 1_555 1_555
H28 C10 1_555 1_555
C11 N3 1_555 1_555
H29 C11 1_555 1_555
H30 C11 1_555 1_555
C12 H31 1_555 1_555
C13 C12 1_555 1_555
H32 C13 1_555 1_555
C14 C11 1_555 1_555
C15 C14 1_555 1_555
H33 C15 1_555 1_555
C16 N4 1_555 1_555
H34 C16 1_555 1_555
C17 O3 1_555 1_555
C18 C17 1_555 1_555
H35 C18 1_555 1_555
H36 C18 1_555 1_555
C19 C18 1_555 1_555
H37 C19 1_555 1_555
H38 C19 1_555 1_555
C20 C19 1_555 1_555
H39 C20 1_555 1_555
H40 C20 1_555 1_555
C21 C20 1_555 1_555
Cd1_2 O5 1_555 1_555
Cd1C N4 1_555 1_555
O5_2 Cd1 1_555 1_555
O7_2 Cd1 1_555 1_555
N4C Cd1 1_555 1_555
O7 Cd1_2 1_555 1_555
C4 C5 1_555 1_555
C9 C10 1_555 1_555
C13 C14 1_555 1_555
C15 C16 1_555 1_555

#END
