
#######################################################################
#
#                 Cambridge Crystallographic Data Centre
#                                CCDC 
#
#######################################################################
#
# If this CIF has been generated from an entry in the Cambridge 
# Structural Database, then it will include bibliographic, chemical, 
# crystal, experimental, refinement or atomic coordinate data resulting 
# from the CCDC's data processing and validation procedures.
#
#######################################################################

data_YOFSAO
_symmetry_cell_setting           monoclinic
_symmetry_space_group_name_H-M   'P 21/c'
_symmetry_Int_Tables_number      14
_space_group_name_Hall           '-P 2ybc'
loop_
_symmetry_equiv_pos_site_id
_symmetry_equiv_pos_as_xyz
1 x,y,z
2 -x,1/2+y,1/2-z
3 -x,-y,-z
4 x,1/2-y,1/2+z
_cell_length_a                   15.061(3)
_cell_length_b                   10.0600(14)
_cell_length_c                   16.569(4)
_cell_angle_alpha                90
_cell_angle_beta                 110.809(16)
_cell_angle_gamma                90
_cell_volume                     2346.67
loop_
_atom_site_label
_atom_site_type_symbol
_atom_site_fract_x
_atom_site_fract_y
_atom_site_fract_z
Cu1 Cu 0.24277(4) 0.20211(6) 0.28390(4)
N1 N 0.3343(4) 0.2827(5) 0.3949(3)
H3 H 0.2995 0.3220 0.4225
H4 H 0.3664 0.2156 0.4287
N2 N 0.2163(3) 0.3888(4) 0.2295(3)
H5 H 0.1805 0.4310 0.2559
N3 N 0.1055(3) 0.1462(5) 0.2148(3)
H6 H 0.1035 0.0569 0.2172
H7 H 0.0691 0.1774 0.2434
N4 N 0.2579(3) 0.0247(4) 0.3504(3)
H8 H 0.2386 -0.0420 0.3118
H9 H 0.3199 0.0119 0.3809
N5 N 0.2380(3) -0.3367(5) 0.5047(3)
H10 H 0.1944 -0.3892 0.5082
N6 N 0.3332(3) -0.6365(4) 0.7125(3)
H11 H 0.3351 -0.7019 0.6761
H12 H 0.3926 -0.6253 0.7505
C1 C 0.4036(5) 0.3792(7) 0.3886(4)
H13 H 0.4427 0.4078 0.4454
H14 H 0.4427 0.3389 0.3605
C2 C 0.3549(5) 0.4999(6) 0.3380(5)
H15 H 0.3106 0.5360 0.3619
H16 H 0.4020 0.5657 0.3404
C3 C 0.3015(5) 0.4739(6) 0.2449(4)
H17 H 0.3441 0.4299 0.2221
H18 H 0.2833 0.5583 0.2168
C4 C 0.1587(5) 0.3898(7) 0.1364(4)
H19 H 0.1508 0.4800 0.1161
H20 H 0.1906 0.3396 0.1056
C5 C 0.0600(5) 0.3333(7) 0.1142(4)
H21 H 0.0299 0.3709 0.1512
H22 H 0.0228 0.3529 0.0551
C6 C 0.0591(5) 0.1840(7) 0.1239(4)
H23 H 0.0917 0.1423 0.0903
H24 H -0.0056 0.1538 0.1043
C7 C 0.2043(5) 0.0163(6) 0.4104(4)
H25 H 0.2120 0.0981 0.4420
H26 H 0.1382 0.0030 0.3771
C8 C 0.2351(6) -0.0961(6) 0.4773(4)
H27 H 0.3012 -0.0865 0.5114
H28 H 0.1983 -0.0921 0.5141
C9 C 0.2187(5) -0.2294(6) 0.4381(4)
H29 H 0.2619 -0.2391 0.4076
H30 H 0.1545 -0.2355 0.3980
C10 C 0.3366(4) -0.3456(6) 0.5631(4)
H31 H 0.3779 -0.3337 0.5309
H32 H 0.3494 -0.2780 0.6067
C11 C 0.3617(4) -0.4794(6) 0.6077(4)
H33 H 0.3510 -0.5491 0.5656
H34 H 0.4272 -0.4799 0.6450
C12 C 0.3036(4) -0.5125(5) 0.6623(4)
H35 H 0.3085 -0.4419 0.7026
H36 H 0.2383 -0.5246 0.6263
Cu1C Cu 0.24277(4) -0.70211(6) 0.78390(4)
N6C N 0.3332(3) 0.1365(4) 0.2125(3)
H11C H 0.3351 0.2019 0.1761
H12C H 0.3926 0.1253 0.2505
Cl1 Cl 0.48956(10) 0.37597(17) 0.12054(10)
O1 O 0.3927(3) 0.3534(6) 0.0748(4)
O2 O 0.5085(5) 0.5116(6) 0.1333(5)
O3 O 0.5126(5) 0.3113(7) 0.2017(4)
O4 O 0.5438(6) 0.3186(8) 0.0770(6)
Cl2 Cl 0.07236(12) -0.23913(17) 0.17146(12)
O5 O 0.0549(8) -0.3610(7) 0.1985(9)
O6 O 0.1678(6) -0.2169(10) 0.2087(7)
O7 O 0.0334(7) -0.1479(7) 0.2112(5)
O8 O 0.0513(11) -0.2171(19) 0.0924(6)
O9 O 0.1731(4) 0.4250(6) 0.4162(5)
H1 H 0.2385 0.4516 0.4405
H2 H 0.1293 0.4516 0.4434
loop_
_geom_bond_atom_site_label_1
_geom_bond_atom_site_label_2
_geom_bond_site_symmetry_1
_geom_bond_site_symmetry_2
Cu1 N1 1_555 1_555
Cl1 O1 1_555 1_555
Cl2 O5 1_555 1_555
O2 Cl1 1_555 1_555
O3 Cl1 1_555 1_555
O4 Cl1 1_555 1_555
O6 Cl2 1_555 1_555
O7 Cl2 1_555 1_555
O8 Cl2 1_555 1_555
O9 H1 1_555 1_555
H2 O9 1_555 1_555
N1 H3 1_555 1_555
H4 N1 1_555 1_555
N2 Cu1 1_555 1_555
H5 N2 1_555 1_555
N3 Cu1 1_555 1_555
H6 N3 1_555 1_555
H7 N3 1_555 1_555
N4 Cu1 1_555 1_555
H8 N4 1_555 1_555
H9 N4 1_555 1_555
N5 H10 1_555 1_555
N6 H11 1_555 1_555
H12 N6 1_555 1_555
C1 N1 1_555 1_555
H13 C1 1_555 1_555
H14 C1 1_555 1_555
C2 C1 1_555 1_555
H15 C2 1_555 1_555
H16 C2 1_555 1_555
C3 N2 1_555 1_555
H17 C3 1_555 1_555
H18 C3 1_555 1_555
C4 N2 1_555 1_555
H19 C4 1_555 1_555
H20 C4 1_555 1_555
C5 C4 1_555 1_555
H21 C5 1_555 1_555
H22 C5 1_555 1_555
C6 N3 1_555 1_555
H23 C6 1_555 1_555
H24 C6 1_555 1_555
C7 N4 1_555 1_555
H25 C7 1_555 1_555
H26 C7 1_555 1_555
C8 C7 1_555 1_555
H27 C8 1_555 1_555
H28 C8 1_555 1_555
C9 N5 1_555 1_555
H29 C9 1_555 1_555
H30 C9 1_555 1_555
C10 N5 1_555 1_555
H31 C10 1_555 1_555
H32 C10 1_555 1_555
C11 C10 1_555 1_555
H33 C11 1_555 1_555
H34 C11 1_555 1_555
C12 N6 1_555 1_555
H35 C12 1_555 1_555
H36 C12 1_555 1_555
Cu1C N6 1_555 1_555
N6C Cu1 1_555 1_555
H11C N6C 1_555 1_555
H12C N6C 1_555 1_555
C2 C3 1_555 1_555
C5 C6 1_555 1_555
C8 C9 1_555 1_555
C11 C12 1_555 1_555

#END
