
#######################################################################
#
#                 Cambridge Crystallographic Data Centre
#                                CCDC 
#
#######################################################################
#
# If this CIF has been generated from an entry in the Cambridge 
# Structural Database, then it will include bibliographic, chemical, 
# crystal, experimental, refinement or atomic coordinate data resulting 
# from the CCDC's data processing and validation procedures.
#
#######################################################################

data_YOFXOH
_symmetry_cell_setting           trigonal
_symmetry_space_group_name_H-M   'P -3 c 1'
_symmetry_Int_Tables_number      165
_space_group_name_Hall           '-P 3 2"c'
loop_
_symmetry_equiv_pos_site_id
_symmetry_equiv_pos_as_xyz
1 x,y,z
2 -y,x-y,z
3 -x+y,-x,z
4 y,x,1/2-z
5 x-y,-y,1/2-z
6 -x,-x+y,1/2-z
7 -x,-y,-z
8 y,-x+y,-z
9 x-y,x,-z
10 -y,-x,1/2+z
11 -x+y,y,1/2+z
12 x,x-y,1/2+z
_cell_length_a                   13.6663(9)
_cell_length_b                   13.6663(9)
_cell_length_c                   13.0090(16)
_cell_angle_alpha                90
_cell_angle_beta                 90
_cell_angle_gamma                120
_cell_volume                     2104.15
loop_
_atom_site_label
_atom_site_type_symbol
_atom_site_fract_x
_atom_site_fract_y
_atom_site_fract_z
Zn1 Zn 0.0000 0.0000 0.5000
Zn2 Zn 0.50076(6) 0.20889(6) 0.34027(7)
O1 O 0.6667 0.3333 0.3584(18)
N1 N 0.3286(4) 0.1023(4) 0.3689(4)
N2 N 0.2742(4) -0.0124(4) 0.3717(4)
N3 N 0.1686(4) -0.0501(4) 0.3908(4)
N4 N 0.1480(4) 0.0366(4) 0.4036(4)
N5 N 0.2628(4) 0.2350(4) 0.3869(4)
H1 H 0.2034 0.2415 0.3893
N6 N 0.3767(4) 0.4341(4) 0.3808(4)
N7 N 0.4886(4) 0.5056(4) 0.3746(4)
N8 N 0.5405(4) 0.4476(4) 0.3718(4)
N9 N 0.4638(4) 0.3347(4) 0.3768(4)
C1 C 0.2485(5) 0.1284(5) 0.3875(4)
C2 C 0.3656(5) 0.3316(5) 0.3826(5)
O2 O 0.4988(4) 0.2161(4) 0.1810(4)
Zn2A Zn -0.20889(6) 0.29187(8) 0.34027(7)
Zn2B Zn -0.29187(8) -0.50076(6) 0.34027(7)
Zn2F Zn -0.50076(6) -0.20889(6) 0.65973(7)
Zn2G Zn 0.20889(6) -0.29187(8) 0.65973(7)
Zn2H Zn 0.29187(8) 0.50076(6) 0.65973(7)
Zn2A_2 Zn 0.79111(6) 0.29187(8) 0.34027(7)
Zn2B_2 Zn 0.70813(8) 0.49924(6) 0.34027(7)
Zn2_2 Zn -0.49924(6) 0.20889(6) 0.34027(7)
Zn2A_3 Zn -0.20889(6) -0.70813(8) 0.34027(7)
Zn2H_2 Zn -0.70813(8) -0.49924(6) 0.65973(7)
Zn2F_2 Zn 0.49924(6) -0.20889(6) 0.65973(7)
Zn2G_2 Zn 0.20889(6) 0.70813(8) 0.65973(7)
Zn2B_3 Zn -0.29187(8) 0.49924(6) 0.34027(7)
O1A O -0.3333 0.3334 0.3584(18)
O1_2 O -0.3333 -0.6667 0.3584(18)
O1F O -0.6667 -0.3333 0.6416(18)
O1F_2 O 0.3333 -0.3333 0.6416(18)
O1F_3 O 0.3333 0.6667 0.6416(18)
N1A N -0.1023(4) 0.2263(6) 0.3689(4)
N1B N -0.2263(6) -0.3286(4) 0.3689(4)
N1F N -0.3286(4) -0.1023(4) 0.6311(4)
N1G N 0.1023(4) -0.2263(6) 0.6311(4)
N1H N 0.2263(6) 0.3286(4) 0.6311(4)
N2A N 0.0124(4) 0.2866(6) 0.3717(4)
N2B N -0.2866(6) -0.2742(4) 0.3717(4)
N2F N -0.2742(4) 0.0124(4) 0.6283(4)
N2G N -0.0124(4) -0.2866(6) 0.6283(4)
N2H N 0.2866(6) 0.2742(4) 0.6283(4)
N3A N 0.0501(4) 0.2187(6) 0.3908(4)
N3B N -0.2187(6) -0.1686(4) 0.3908(4)
N3F N -0.1686(4) 0.0501(4) 0.6092(4)
N3G N -0.0501(4) -0.2187(6) 0.6092(4)
N3H N 0.2187(6) 0.1686(4) 0.6092(4)
N4A N -0.0366(4) 0.1114(6) 0.4036(4)
N4B N -0.1114(6) -0.1480(4) 0.4036(4)
N4F N -0.1480(4) -0.0366(4) 0.5964(4)
N4G N 0.0366(4) -0.1114(6) 0.5964(4)
N4H N 0.1114(6) 0.1480(4) 0.5964(4)
N5A N -0.2350(4) 0.0278(6) 0.3869(4)
N5B N -0.0278(6) -0.2628(4) 0.3869(4)
N5F N -0.2628(4) -0.2350(4) 0.6131(4)
N5G N 0.2350(4) -0.0278(6) 0.6131(4)
N5H N 0.0278(6) 0.2628(4) 0.6131(4)
H1A H -0.2415 -0.0381 0.3893
H1B H 0.0381 -0.2034 0.3893
H1F H -0.2034 -0.2415 0.6107
H1G H 0.2415 0.0381 0.6107
H1H H -0.0381 0.2034 0.6107
N6A N -0.4341(4) -0.0574(6) 0.3808(4)
N6B N 0.0574(6) -0.3767(4) 0.3808(4)
N6F N -0.3767(4) -0.4341(4) 0.6192(4)
N6G N 0.4341(4) 0.0574(6) 0.6192(4)
N6H N -0.0574(6) 0.3767(4) 0.6192(4)
N7A N -0.5056(4) -0.0170(6) 0.3746(4)
N7B N 0.0170(6) -0.4886(4) 0.3746(4)
N7F N -0.4886(4) -0.5056(4) 0.6254(4)
N7G N 0.5056(4) 0.0170(6) 0.6254(4)
N7H N -0.0170(6) 0.4886(4) 0.6254(4)
N8A N -0.4476(4) 0.0929(6) 0.3718(4)
N8B N -0.0929(6) -0.5405(4) 0.3718(4)
N8F N -0.5405(4) -0.4476(4) 0.6282(4)
N8G N 0.4476(4) -0.0929(6) 0.6282(4)
N8H N 0.0929(6) 0.5405(4) 0.6282(4)
N8A_2 N 0.5524(4) 0.0929(6) 0.3718(4)
N8B_2 N -0.0929(6) 0.4595(4) 0.3718(4)
N8_2 N -0.4595(4) -0.5524(4) 0.3718(4)
N8G_2 N -0.5524(4) -0.0929(6) 0.6282(4)
N8H_2 N 0.0929(6) -0.4595(4) 0.6282(4)
N8F_2 N 0.4595(4) 0.5524(4) 0.6282(4)
N9A N -0.3347(4) 0.1291(6) 0.3768(4)
N9B N -0.1291(6) -0.4638(4) 0.3768(4)
N9F N -0.4638(4) -0.3347(4) 0.6232(4)
N9G N 0.3347(4) -0.1291(6) 0.6232(4)
N9H N 0.1291(6) 0.4638(4) 0.6232(4)
C1A C -0.1284(5) 0.1201(7) 0.3875(4)
C1B C -0.1201(7) -0.2485(5) 0.3875(4)
C1F C -0.2485(5) -0.1284(5) 0.6125(4)
C1G C 0.1284(5) -0.1201(7) 0.6125(4)
C1H C 0.1201(7) 0.2485(5) 0.6125(4)
C2A C -0.3316(5) 0.0340(7) 0.3826(5)
C2B C -0.0340(7) -0.3656(5) 0.3826(5)
C2F C -0.3656(5) -0.3316(5) 0.6174(5)
C2G C 0.3316(5) -0.0340(7) 0.6174(5)
C2H C 0.0340(7) 0.3656(5) 0.6174(5)
O2A O -0.2161(4) 0.2827(6) 0.1810(4)
O2B O -0.2827(6) -0.4988(4) 0.1810(4)
O2F O -0.4988(4) -0.2161(4) 0.8190(4)
O2G O 0.2161(4) -0.2827(6) 0.8190(4)
O2H O 0.2827(6) 0.4988(4) 0.8190(4)
loop_
_geom_bond_atom_site_label_1
_geom_bond_atom_site_label_2
_geom_bond_site_symmetry_1
_geom_bond_site_symmetry_2
Zn1 N4 1_555 1_555
Zn2 O1 1_555 1_555
O1 Zn2A_2 1_555 1_555
N1 Zn2 1_555 1_555
N2 N1 1_555 1_555
N3 N2 1_555 1_555
N4 N3 1_555 1_555
N5 H1 1_555 1_555
N6 N7 1_555 1_555
N7 N8 1_555 1_555
N8 N9 1_555 1_555
N9 Zn2 1_555 1_555
C1 N1 1_555 1_555
C2 N5 1_555 1_555
O2 Zn2 1_555 1_555
Zn2A O1A 1_555 1_555
Zn2B O1_2 1_555 1_555
Zn2F O1F 1_555 1_555
Zn2G O1F_2 1_555 1_555
Zn2H O1F_3 1_555 1_555
Zn2B_2 O1 1_555 1_555
Zn2_2 O1A 1_555 1_555
Zn2A_3 O1_2 1_555 1_555
Zn2H_2 O1F 1_555 1_555
Zn2F_2 O1F_2 1_555 1_555
Zn2G_2 O1F_3 1_555 1_555
Zn2B_3 O1A 1_555 1_555
N1A Zn2A 1_555 1_555
N1B Zn2B 1_555 1_555
N1F Zn2F 1_555 1_555
N1G Zn2G 1_555 1_555
N1H Zn2H 1_555 1_555
N2A N1A 1_555 1_555
N2B N1B 1_555 1_555
N2F N1F 1_555 1_555
N2G N1G 1_555 1_555
N2H N1H 1_555 1_555
N3A N2A 1_555 1_555
N3B N2B 1_555 1_555
N3F N2F 1_555 1_555
N3G N2G 1_555 1_555
N3H N2H 1_555 1_555
N4A Zn1 1_555 1_555
N4B Zn1 1_555 1_555
N4F Zn1 1_555 1_555
N4G Zn1 1_555 1_555
N4H Zn1 1_555 1_555
N5A H1A 1_555 1_555
N5B H1B 1_555 1_555
N5F H1F 1_555 1_555
N5G H1G 1_555 1_555
N5H H1H 1_555 1_555
N6A N7A 1_555 1_555
N6B N7B 1_555 1_555
N6F N7F 1_555 1_555
N6G N7G 1_555 1_555
N6H N7H 1_555 1_555
N7A N8A 1_555 1_555
N7B N8B 1_555 1_555
N7F N8F 1_555 1_555
N7G N8G 1_555 1_555
N7H N8H 1_555 1_555
N8A Zn2_2 1_555 1_555
N8B Zn2A_3 1_555 1_555
N8F Zn2H_2 1_555 1_555
N8G Zn2F_2 1_555 1_555
N8H Zn2G_2 1_555 1_555
N8A_2 Zn2 1_555 1_555
N8B_2 Zn2A 1_555 1_555
N8_2 Zn2B 1_555 1_555
N8G_2 Zn2F 1_555 1_555
N8H_2 Zn2G 1_555 1_555
N8F_2 Zn2H 1_555 1_555
N9A Zn2A 1_555 1_555
N9B Zn2B 1_555 1_555
N9F Zn2F 1_555 1_555
N9G Zn2G 1_555 1_555
N9H Zn2H 1_555 1_555
C1A N1A 1_555 1_555
C1B N1B 1_555 1_555
C1F N1F 1_555 1_555
C1G N1G 1_555 1_555
C1H N1H 1_555 1_555
C2A N5A 1_555 1_555
C2B N5B 1_555 1_555
C2F N5F 1_555 1_555
C2G N5G 1_555 1_555
C2H N5H 1_555 1_555
O2A Zn2A 1_555 1_555
O2B Zn2B 1_555 1_555
O2F Zn2F 1_555 1_555
O2G Zn2G 1_555 1_555
O2H Zn2H 1_555 1_555
N4 C1 1_555 1_555
N5 C1 1_555 1_555
N6 C2 1_555 1_555
N8 Zn2B_2 1_555 1_555
N9 C2 1_555 1_555
N3A N4A 1_555 1_555
N3B N4B 1_555 1_555
N3F N4F 1_555 1_555
N3G N4G 1_555 1_555
N3H N4H 1_555 1_555
N4A C1A 1_555 1_555
N4B C1B 1_555 1_555
N4F C1F 1_555 1_555
N4G C1G 1_555 1_555
N4H C1H 1_555 1_555
N5A C1A 1_555 1_555
N5B C1B 1_555 1_555
N5F C1F 1_555 1_555
N5G C1G 1_555 1_555
N5H C1H 1_555 1_555
N6A C2A 1_555 1_555
N6B C2B 1_555 1_555
N6F C2F 1_555 1_555
N6G C2G 1_555 1_555
N6H C2H 1_555 1_555
N8A N9A 1_555 1_555
N8B N9B 1_555 1_555
N8F N9F 1_555 1_555
N8G N9G 1_555 1_555
N8H N9H 1_555 1_555
N9A C2A 1_555 1_555
N9B C2B 1_555 1_555
N9F C2F 1_555 1_555
N9G C2G 1_555 1_555
N9H C2H 1_555 1_555

#END
