
#######################################################################
#
#                 Cambridge Crystallographic Data Centre
#                                CCDC 
#
#######################################################################
#
# If this CIF has been generated from an entry in the Cambridge 
# Structural Database, then it will include bibliographic, chemical, 
# crystal, experimental, refinement or atomic coordinate data resulting 
# from the CCDC's data processing and validation procedures.
#
#######################################################################

data_YOFXIC
_symmetry_cell_setting           tetragonal
_symmetry_space_group_name_H-M   'I 41/a'
_symmetry_Int_Tables_number      88
_space_group_name_Hall           '-I 4ad'
loop_
_symmetry_equiv_pos_site_id
_symmetry_equiv_pos_as_xyz
1 x,y,z
2 1/2-x,-y,1/2+z
3 3/4-y,1/4+x,1/4+z
4 3/4+y,3/4-x,3/4+z
5 1/2+x,1/2+y,1/2+z
6 -x,1/2-y,z
7 1/4-y,3/4+x,3/4+z
8 1/4+y,1/4-x,1/4+z
9 -x,-y,-z
10 1/2+x,y,1/2-z
11 1/4+y,3/4-x,3/4-z
12 1/4-y,1/4+x,1/4-z
13 1/2-x,1/2-y,1/2-z
14 x,1/2+y,-z
15 3/4+y,1/4-x,1/4-z
16 3/4-y,3/4+x,3/4-z
_cell_length_a                   35.9978(6)
_cell_length_b                   35.9978(6)
_cell_length_c                   9.9081(3)
_cell_angle_alpha                90
_cell_angle_beta                 90
_cell_angle_gamma                90
_cell_volume                     12839.3
loop_
_atom_site_label
_atom_site_type_symbol
_atom_site_fract_x
_atom_site_fract_y
_atom_site_fract_z
Cu1 Cu 0.0000 0.0000 0.0000
N1 N 0.05269(13) 0.03764(14) 0.0464(4)
N2 N 0.05489(13) 0.04872(13) 0.1796(4)
C1 C 0.08055(17) 0.05472(18) -0.0108(6)
H1 H 0.0861 0.0522 -0.1020
C2 C 0.08366(16) 0.07109(17) 0.1918(6)
H2 H 0.0912 0.0818 0.2727
N3 N 0.10064(14) 0.07647(14) 0.0735(5)
N4 N -0.02686(12) 0.03745(13) 0.1131(4)
N5 N -0.01285(13) 0.05031(12) 0.2316(4)
C3 C -0.05850(17) 0.05419(17) 0.0985(6)
H3 H -0.0740 0.0504 0.0248
C4 C -0.03728(17) 0.07404(17) 0.2802(6)
H4 H -0.0344 0.0869 0.3611
N6 N -0.06670(14) 0.07748(14) 0.1995(5)
N7 N 0.01412(13) -0.02635(14) 0.1780(5)
N8 N 0.02421(12) -0.00573(13) 0.2882(4)
C5 C 0.0167(2) -0.06062(19) 0.2211(7)
H5 H 0.0110 -0.0809 0.1668
C6 C 0.03259(19) -0.02931(19) 0.3876(7)
H6 H 0.0405 -0.0222 0.4731
N9 N 0.02807(18) -0.06436(16) 0.3486(7)
B1 B 0.02550(18) 0.03665(19) 0.2837(6)
H7 H 0.0310 0.0470 0.3730
Mn1 Mn 0.13631(3) 0.12910(3) 0.05550(9)
N10 N 0.12722(16) 0.13264(15) -0.1411(5)
C7 C 0.0960(3) 0.1397(2) -0.1951(8)
H8 H 0.0947 0.1390 -0.2888
C8 C 0.0627(3) 0.1488(2) -0.1233(11)
C9 C 0.0290(3) 0.1505(3) -0.1978(12)
H9 H 0.0287 0.1468 -0.2907
C10 C -0.0035(3) 0.1578(3) -0.128(2)
H10 H -0.0258 0.1585 -0.1753
C11 C -0.0042(4) 0.1640(4) 0.008(2)
H11 H -0.0266 0.1693 0.0510
C12 C 0.0281(3) 0.1626(3) 0.0797(13)
H12 H 0.0275 0.1666 0.1724
C13 C 0.0618(2) 0.1552(2) 0.0167(10)
O1 O 0.09271(13) 0.15567(13) 0.0923(5)
N11 N 0.18045(15) 0.10064(15) -0.0061(5)
C14 C 0.20709(19) 0.0893(2) 0.0702(7)
H13 H 0.2264 0.0766 0.0285
C15 C 0.2098(2) 0.0943(2) 0.2138(7)
C16 C 0.2426(2) 0.0846(3) 0.2775(9)
H14 H 0.2613 0.0731 0.2279
C17 C 0.2482(3) 0.0915(4) 0.4128(11)
H15 H 0.2702 0.0846 0.4552
C18 C 0.2205(3) 0.1088(4) 0.4830(10)
H16 H 0.2239 0.1138 0.5743
C19 C 0.1884(3) 0.1188(3) 0.4234(7)
H17 H 0.1702 0.1305 0.4747
C20 C 0.1815(2) 0.1120(2) 0.2873(6)
O2 O 0.14980(13) 0.12374(13) 0.2367(4)
C21 C 0.1603(2) 0.1233(2) -0.2198(6)
H18 H 0.1764 0.1448 -0.2270
H19 H 0.1532 0.1157 -0.3101
C22 C 0.1805(2) 0.0925(2) -0.1516(7)
H20 H 0.1681 0.0690 -0.1689
H21 H 0.2057 0.0909 -0.1850
N1H N -0.05269(13) -0.03764(14) -0.0464(4)
N2H N -0.05489(13) -0.04872(13) -0.1796(4)
C1H C -0.08055(17) -0.05472(18) 0.0108(6)
H1H H -0.0861 -0.0522 0.1020
C2H C -0.08366(16) -0.07109(17) -0.1918(6)
H2H H -0.0912 -0.0818 -0.2727
N3H N -0.10064(14) -0.07647(14) -0.0735(5)
N4H N 0.02686(12) -0.03745(13) -0.1131(4)
N5H N 0.01285(13) -0.05031(12) -0.2316(4)
C3H C 0.05850(17) -0.05419(17) -0.0985(6)
H3H H 0.0740 -0.0504 -0.0248
C4H C 0.03728(17) -0.07404(17) -0.2802(6)
H4H H 0.0344 -0.0869 -0.3611
N6H N 0.06670(14) -0.07748(14) -0.1995(5)
N7H N -0.01412(13) 0.02635(14) -0.1780(5)
N8H N -0.02421(12) 0.00573(13) -0.2882(4)
C5H C -0.0167(2) 0.06062(19) -0.2211(7)
H5H H -0.0110 0.0809 -0.1668
C6H C -0.03259(19) 0.02931(19) -0.3876(7)
H6H H -0.0405 0.0222 -0.4731
N9H N -0.02807(18) 0.06436(16) -0.3486(7)
B1H B -0.02550(18) -0.03665(19) -0.2837(6)
H7H H -0.0310 -0.0470 -0.3730
Mn1H Mn -0.13631(3) -0.12910(3) -0.05550(9)
N10H N -0.12722(16) -0.13264(15) 0.1411(5)
C7H C -0.0960(3) -0.1397(2) 0.1951(8)
H8H H -0.0947 -0.1390 0.2888
C8H C -0.0627(3) -0.1488(2) 0.1233(11)
C9H C -0.0290(3) -0.1505(3) 0.1978(12)
H9H H -0.0287 -0.1468 0.2907
C10H C 0.0035(3) -0.1578(3) 0.128(2)
H10H H 0.0258 -0.1585 0.1753
C11H C 0.0042(4) -0.1640(4) -0.008(2)
H11H H 0.0266 -0.1693 -0.0510
C12H C -0.0281(3) -0.1626(3) -0.0797(13)
H12H H -0.0275 -0.1666 -0.1724
C13H C -0.0618(2) -0.1552(2) -0.0167(10)
O1H O -0.09271(13) -0.15567(13) -0.0923(5)
N11H N -0.18045(15) -0.10064(15) 0.0061(5)
C14H C -0.20709(19) -0.0893(2) -0.0702(7)
H13H H -0.2264 -0.0766 -0.0285
C15H C -0.2098(2) -0.0943(2) -0.2138(7)
C16H C -0.2426(2) -0.0846(3) -0.2775(9)
H14H H -0.2613 -0.0731 -0.2279
C17H C -0.2482(3) -0.0915(4) -0.4128(11)
H15H H -0.2702 -0.0846 -0.4552
C18H C -0.2205(3) -0.1088(4) -0.4830(10)
H16H H -0.2239 -0.1138 -0.5743
C19H C -0.1884(3) -0.1188(3) -0.4234(7)
H17H H -0.1702 -0.1305 -0.4747
C20H C -0.1815(2) -0.1120(2) -0.2873(6)
O2H O -0.14980(13) -0.12374(13) -0.2367(4)
C21H C -0.1603(2) -0.1233(2) 0.2198(6)
H18H H -0.1764 -0.1448 0.2270
H19H H -0.1532 -0.1157 0.3101
C22H C -0.1805(2) -0.0925(2) 0.1516(7)
H20H H -0.1681 -0.0690 0.1689
H21H H -0.2057 -0.0909 0.1850
N6C N -0.17252(14) -0.18330(14) -0.0505(5)
N6K N 0.17252(14) 0.18330(14) 0.0505(5)
Mn1F Mn 0.12090(3) -0.11369(3) -0.19450(9)
Mn1N Mn -0.12090(3) 0.11369(3) 0.19450(9)
Cl1 Cl 0.39546(7) 0.96662(6) 0.10005(19)
O3 O 0.3920(2) 0.9789(3) -0.0248(8)
O4 O 0.3659(3) 0.9698(2) 0.1824(10)
O5 O 0.4051(3) 0.9311(2) 0.0982(14)
O6 O 0.4245(4) 0.9886(4) 0.1511(10)
loop_
_geom_bond_atom_site_label_1
_geom_bond_atom_site_label_2
_geom_bond_site_symmetry_1
_geom_bond_site_symmetry_2
Cu1 N1 1_555 1_555
N1 N2 1_555 1_555
N2 C2 1_555 1_555
C1 N1 1_555 1_555
H1 C1 1_555 1_555
C2 H2 1_555 1_555
N3 C1 1_555 1_555
N4 Cu1 1_555 1_555
N5 N4 1_555 1_555
C3 N4 1_555 1_555
H3 C3 1_555 1_555
C4 N5 1_555 1_555
H4 C4 1_555 1_555
N6 C3 1_555 1_555
N7 Cu1 1_555 1_555
N8 N7 1_555 1_555
C5 N7 1_555 1_555
H5 C5 1_555 1_555
C6 N8 1_555 1_555
H6 C6 1_555 1_555
N9 C5 1_555 1_555
B1 N2 1_555 1_555
H7 B1 1_555 1_555
Mn1 N3 1_555 1_555
N10 Mn1 1_555 1_555
C7 N10 1_555 1_555
H8 C7 1_555 1_555
C8 C7 1_555 1_555
C9 C8 1_555 1_555
H9 C9 1_555 1_555
C10 C9 1_555 1_555
H10 C10 1_555 1_555
C11 C10 1_555 1_555
H11 C11 1_555 1_555
C12 C11 1_555 1_555
H12 C12 1_555 1_555
C13 C8 1_555 1_555
O1 Mn1 1_555 1_555
N11 Mn1 1_555 1_555
C14 N11 1_555 1_555
H13 C14 1_555 1_555
C15 C14 1_555 1_555
C16 C15 1_555 1_555
H14 C16 1_555 1_555
C17 C16 1_555 1_555
H15 C17 1_555 1_555
C18 C17 1_555 1_555
H16 C18 1_555 1_555
C19 C18 1_555 1_555
H17 C19 1_555 1_555
C20 C15 1_555 1_555
O2 Mn1 1_555 1_555
C21 N10 1_555 1_555
H18 C21 1_555 1_555
H19 C21 1_555 1_555
C22 N11 1_555 1_555
H20 C22 1_555 1_555
H21 C22 1_555 1_555
Cl1 O3 1_555 1_555
O4 Cl1 1_555 1_555
O5 Cl1 1_555 1_555
O6 Cl1 1_555 1_555
N1H Cu1 1_555 1_555
N2H N1H 1_555 1_555
C1H N1H 1_555 1_555
H1H C1H 1_555 1_555
C2H N2H 1_555 1_555
H2H C2H 1_555 1_555
N3H C1H 1_555 1_555
N4H Cu1 1_555 1_555
N5H N4H 1_555 1_555
C3H N4H 1_555 1_555
H3H C3H 1_555 1_555
C4H N5H 1_555 1_555
H4H C4H 1_555 1_555
N6H C3H 1_555 1_555
N7H Cu1 1_555 1_555
N8H N7H 1_555 1_555
C5H N7H 1_555 1_555
H5H C5H 1_555 1_555
C6H N8H 1_555 1_555
H6H C6H 1_555 1_555
N9H C5H 1_555 1_555
B1H N2H 1_555 1_555
H7H B1H 1_555 1_555
Mn1H N3H 1_555 1_555
N10H Mn1H 1_555 1_555
C7H N10H 1_555 1_555
H8H C7H 1_555 1_555
C8H C7H 1_555 1_555
C9H C8H 1_555 1_555
H9H C9H 1_555 1_555
C10H C9H 1_555 1_555
H10H C10H 1_555 1_555
C11H C10H 1_555 1_555
H11H C11H 1_555 1_555
C12H C11H 1_555 1_555
H12H C12H 1_555 1_555
C13H C8H 1_555 1_555
O1H Mn1H 1_555 1_555
N11H Mn1H 1_555 1_555
C14H N11H 1_555 1_555
H13H C14H 1_555 1_555
C15H C14H 1_555 1_555
C16H C15H 1_555 1_555
H14H C16H 1_555 1_555
C17H C16H 1_555 1_555
H15H C17H 1_555 1_555
C18H C17H 1_555 1_555
H16H C18H 1_555 1_555
C19H C18H 1_555 1_555
H17H C19H 1_555 1_555
C20H C15H 1_555 1_555
O2H Mn1H 1_555 1_555
C21H N10H 1_555 1_555
H18H C21H 1_555 1_555
H19H C21H 1_555 1_555
C22H N11H 1_555 1_555
H20H C22H 1_555 1_555
H21H C22H 1_555 1_555
N6C Mn1H 1_555 1_555
N6K Mn1 1_555 1_555
Mn1F N6H 1_555 1_555
Mn1N N6 1_555 1_555
C2 N3 1_555 1_555
N5 B1 1_555 1_555
C4 N6 1_555 1_555
N8 B1 1_555 1_555
C6 N9 1_555 1_555
C12 C13 1_555 1_555
C13 O1 1_555 1_555
C19 C20 1_555 1_555
C20 O2 1_555 1_555
C21 C22 1_555 1_555
C2H N3H 1_555 1_555
N5H B1H 1_555 1_555
C4H N6H 1_555 1_555
N8H B1H 1_555 1_555
C6H N9H 1_555 1_555
C12H C13H 1_555 1_555
C13H O1H 1_555 1_555
C19H C20H 1_555 1_555
C20H O2H 1_555 1_555
C21H C22H 1_555 1_555

#END
