
#######################################################################
#
#                 Cambridge Crystallographic Data Centre
#                                CCDC 
#
#######################################################################
#
# If this CIF has been generated from an entry in the Cambridge 
# Structural Database, then it will include bibliographic, chemical, 
# crystal, experimental, refinement or atomic coordinate data resulting 
# from the CCDC's data processing and validation procedures.
#
#######################################################################

data_YOFYEZ
_symmetry_cell_setting           monoclinic
_symmetry_space_group_name_H-M   'P 21/c'
_symmetry_Int_Tables_number      14
_space_group_name_Hall           '-P 2ybc'
loop_
_symmetry_equiv_pos_site_id
_symmetry_equiv_pos_as_xyz
1 x,y,z
2 -x,1/2+y,1/2-z
3 -x,-y,-z
4 x,1/2-y,1/2+z
_cell_length_a                   17.787(3)
_cell_length_b                   6.6764(13)
_cell_length_c                   8.4841(16)
_cell_angle_alpha                90
_cell_angle_beta                 102.003(3)
_cell_angle_gamma                90
_cell_volume                     985.486
loop_
_atom_site_label
_atom_site_type_symbol
_atom_site_fract_x
_atom_site_fract_y
_atom_site_fract_z
Cu1 Cu 1.01452(5) 0.42131(11) 0.80177(9)
C1 C 0.6903(4) 0.7238(13) 0.6447(9)
H1 H 0.6952 0.8560 0.6799
C2 C 0.6303(4) 0.6725(15) 0.5118(9)
H2 H 0.5963 0.7702 0.4617
C3 C 0.6230(4) 0.4790(16) 0.4580(10)
C4 C 0.6743(5) 0.3391(14) 0.5369(11)
H3 H 0.6700 0.2066 0.5023
C5 C 0.7326(4) 0.3915(12) 0.6678(9)
H4 H 0.7664 0.2942 0.7192
C6 C 0.7401(4) 0.5860(11) 0.7208(8)
C7 C 0.5589(5) 0.4156(18) 0.3178(12)
H5 H 0.5101 0.4316 0.3476
H6 H 0.5658 0.2777 0.2919
H7 H 0.5605 0.4975 0.2255
C8 C 0.8035(4) 0.6458(12) 0.8662(8)
H8 H 0.7892 0.7708 0.9105
H9 H 0.8071 0.5440 0.9491
C9 C 0.8805(3) 0.6702(10) 0.8228(7)
N1 N 1.0781(4) 0.6422(8) 0.5860(7)
N2 N 1.1218(4) 0.6336(10) 0.5077(8)
N3 N 1.0300(3) 0.6553(8) 0.6701(7)
O1 O 0.9332(3) 0.5503(6) 0.8900(5)
O2 O 0.8898(2) 0.8086(6) 0.7285(5)
Cu1A Cu 0.98548(5) 0.92131(11) 0.69823(9)
Cu1B Cu 0.98548(5) 0.57869(11) 1.19823(9)
N3A N 0.9700(3) 0.1553(8) 0.8299(7)
O1B O 1.0668(3) 0.4497(6) 1.1100(5)
O2A O 1.1102(2) 0.3086(6) 0.7715(5)
loop_
_geom_bond_atom_site_label_1
_geom_bond_atom_site_label_2
_geom_bond_site_symmetry_1
_geom_bond_site_symmetry_2
Cu1 N3 1_555 1_555
C1 H1 1_555 1_555
C2 C1 1_555 1_555
H2 C2 1_555 1_555
C3 C2 1_555 1_555
C4 C3 1_555 1_555
H3 C4 1_555 1_555
C5 C4 1_555 1_555
H4 C5 1_555 1_555
C6 C1 1_555 1_555
C7 C3 1_555 1_555
H5 C7 1_555 1_555
H6 C7 1_555 1_555
H7 C7 1_555 1_555
C8 C6 1_555 1_555
H8 C8 1_555 1_555
H9 C8 1_555 1_555
C9 C8 1_555 1_555
N1 N2 1_555 1_555
N3 N1 1_555 1_555
O1 Cu1 1_555 1_555
O2 C9 1_555 1_555
Cu1A N3 1_555 1_555
Cu1B O1 1_555 1_555
N3A Cu1 1_555 1_555
O1B Cu1 1_555 1_555
O2A Cu1 1_555 1_555
C5 C6 1_555 1_555
C9 O1 1_555 1_555
O2 Cu1A 1_555 1_555
Cu1B O1B 1_555 1_555

#END
