
#######################################################################
#
#                 Cambridge Crystallographic Data Centre
#                                CCDC 
#
#######################################################################
#
# If this CIF has been generated from an entry in the Cambridge 
# Structural Database, then it will include bibliographic, chemical, 
# crystal, experimental, refinement or atomic coordinate data resulting 
# from the CCDC's data processing and validation procedures.
#
#######################################################################

data_YOGGIM
_symmetry_cell_setting           tetragonal
_symmetry_space_group_name_H-M   'I -4 2 d'
_symmetry_Int_Tables_number      122
_space_group_name_Hall           'I -4 2bw'
loop_
_symmetry_equiv_pos_site_id
_symmetry_equiv_pos_as_xyz
1 x,y,z
2 y,-x,-z
3 -x,-y,z
4 -y,x,-z
5 x,1/2-y,1/4-z
6 -x,1/2+y,1/4-z
7 -y,1/2-x,1/4+z
8 y,1/2+x,1/4+z
9 1/2+x,1/2+y,1/2+z
10 1/2+y,1/2-x,1/2-z
11 1/2-x,1/2-y,1/2+z
12 1/2-y,1/2+x,1/2-z
13 1/2+x,-y,3/4-z
14 1/2-x,y,3/4-z
15 1/2-y,-x,3/4+z
16 1/2+y,x,3/4+z
_cell_length_a                   19.379(3)
_cell_length_b                   19.379(3)
_cell_length_c                   23.744(5)
_cell_angle_alpha                90
_cell_angle_beta                 90
_cell_angle_gamma                90
_cell_volume                     8916.96
loop_
_atom_site_label
_atom_site_type_symbol
_atom_site_fract_x
_atom_site_fract_y
_atom_site_fract_z
Cu1 Cu 0.13837(4) 0.2500 0.1250
O1 O 0.1348(3) 0.1438(4) 0.1149(4)
O2 O 0.1386(4) 0.2737(6) 0.0338(4)
O3 O 0.1237(14) 0.1740(12) 0.0125(16)
O4 O 0.1353(9) 0.2412(11) -0.0463(9)
O5 O 0.4558(2) 0.3225(3) 0.0503(2)
O6 O 0.8192(2) 0.3202(3) 0.0498(3)
N1 N 0.1559(9) 0.0317(8) 0.1147(8)
N2 N 0.1340(7) 0.2297(9) 0.0008(10)
N3 N 0.2415(3) 0.2500 0.1250
N4 N 0.4578(3) 0.2500 0.1250
N5 N 0.8191(3) 0.2500 0.1250
N6 N 1.0347(3) 0.2500 0.1250
C1 C 0.1640(6) 0.0915(8) 0.1327(7)
C2 C 0.2166(8) 0.0867(9) 0.1839(8)
H1 H 0.2594 0.1105 0.1754
H2 H 0.1968 0.1061 0.2179
C3 C 0.2269(13) 0.0170(12) 0.1892(14)
H3 H 0.2086 0.0007 0.2249
H4 H 0.2758 0.0063 0.1877
C4 C 0.1900(19) -0.0165(12) 0.1413(15)
H5 H 0.2227 -0.0383 0.1161
H6 H 0.1584 -0.0514 0.1552
C5 C 0.1167(18) 0.0212(12) 0.0600(11)
H7 H 0.1021 -0.0261 0.0573
H8 H 0.1462 0.0320 0.0287
H9 H 0.0770 0.0508 0.0593
C6 C 0.2767(3) 0.2149(4) 0.0884(4)
H10 H 0.2525 0.1892 0.0619
C7 C 0.3483(3) 0.2135(4) 0.0863(4)
H11 H 0.3713 0.1879 0.0590
C8 C 0.3833(3) 0.2500 0.1250
C9 C 0.4887(3) 0.2901(4) 0.0842(3)
C10 C 0.5660(3) 0.2897(4) 0.0839(3)
C11 C 0.6032(3) 0.3278(4) 0.0456(4)
H12 H 0.5804 0.3544 0.0189
C12 C 0.6032(3) 0.2500 0.1250
C13 C 0.6759(3) 0.2500 0.1250
C14 C 0.6747(3) 0.3265(4) 0.0467(3)
H13 H 0.6990 0.3519 0.0200
C15 C 0.7096(3) 0.2901(3) 0.0847(3)
C16 C 0.7858(3) 0.2887(4) 0.0821(3)
C17 C 0.8942(4) 0.2500 0.1250
C18 C 0.9283(3) 0.2045(5) 0.0893(5)
H14 H 0.9056 0.1739 0.0655
C19 C 0.9999(3) 0.2093(5) 0.0927(4)
H15 H 1.0252 0.1803 0.0694
O5D O 0.4558(2) 0.1775(3) 0.1997(2)
O6D O 0.8192(2) 0.1798(3) 0.2002(3)
C6D C 0.2767(3) 0.2851(4) 0.1616(4)
H10D H 0.2525 0.3108 0.1881
C7D C 0.3483(3) 0.2865(4) 0.1637(4)
H11D H 0.3713 0.3121 0.1910
C9D C 0.4887(3) 0.2099(4) 0.1658(3)
C10D C 0.5660(3) 0.2103(4) 0.1661(3)
C11D C 0.6032(3) 0.1722(4) 0.2044(4)
H12D H 0.5804 0.1456 0.2311
C14D C 0.6747(3) 0.1735(4) 0.2033(3)
H13D H 0.6990 0.1481 0.2300
C15D C 0.7096(3) 0.2099(3) 0.1653(3)
C16D C 0.7858(3) 0.2113(4) 0.1679(3)
C18D C 0.9283(3) 0.2955(5) 0.1607(5)
H14D H 0.9056 0.3261 0.1845
C19D C 0.9999(3) 0.2907(5) 0.1573(4)
H15D H 1.0252 0.3197 0.1806
O1D O 0.1348(3) 0.3562(4) 0.1351(4)
O2D O 0.1386(4) 0.2263(6) 0.2162(4)
O3D O 0.1237(14) 0.3260(12) 0.2375(16)
O4D O 0.1353(9) 0.2588(11) 0.2963(9)
N1D N 0.1559(9) 0.4683(8) 0.1353(8)
N2D N 0.1340(7) 0.2703(9) 0.2492(10)
C1D C 0.1640(6) 0.4085(8) 0.1173(7)
C2D C 0.2166(8) 0.4133(9) 0.0661(8)
H1D H 0.2594 0.3895 0.0746
H2D H 0.1968 0.3939 0.0321
C3D C 0.2269(13) 0.4830(12) 0.0608(14)
H3D H 0.2086 0.4993 0.0251
H4D H 0.2758 0.4937 0.0623
C4D C 0.1900(19) 0.5165(12) 0.1087(15)
H5D H 0.2227 0.5383 0.1339
H6D H 0.1584 0.5514 0.0948
C5D C 0.1167(18) 0.4788(12) 0.1900(11)
H7D H 0.1021 0.5261 0.1927
H8D H 0.1462 0.4680 0.2213
H9D H 0.0770 0.4492 0.1907
Cu1_2 Cu 1.13837(4) 0.2500 0.1250
N6_2 N 0.0347(3) 0.2500 0.1250
loop_
_geom_bond_atom_site_label_1
_geom_bond_atom_site_label_2
_geom_bond_site_symmetry_1
_geom_bond_site_symmetry_2
Cu1 O1 1_555 1_555
O1 C1 1_555 1_555
O2 Cu1 1_555 1_555
O3 N2 1_555 1_555
O4 N2 1_555 1_555
O5 C9 1_555 1_555
O6 C16 1_555 1_555
N1 C1 1_555 1_555
N2 O2 1_555 1_555
N3 Cu1 1_555 1_555
N4 C8 1_555 1_555
N5 C16 1_555 1_555
N6 C19 1_555 1_555
C1 C2 1_555 1_555
C2 H1 1_555 1_555
H2 C2 1_555 1_555
C3 C2 1_555 1_555
H3 C3 1_555 1_555
H4 C3 1_555 1_555
C4 N1 1_555 1_555
H5 C4 1_555 1_555
H6 C4 1_555 1_555
C5 N1 1_555 1_555
H7 C5 1_555 1_555
H8 C5 1_555 1_555
H9 C5 1_555 1_555
C6 N3 1_555 1_555
H10 C6 1_555 1_555
C7 C6 1_555 1_555
H11 C7 1_555 1_555
C8 C7 1_555 1_555
C9 N4 1_555 1_555
C10 C9 1_555 1_555
C11 C10 1_555 1_555
H12 C11 1_555 1_555
C12 C10 1_555 1_555
C13 C12 1_555 1_555
C14 C11 1_555 1_555
H13 C14 1_555 1_555
C15 C13 1_555 1_555
C16 C15 1_555 1_555
C17 N5 1_555 1_555
C18 C17 1_555 1_555
H14 C18 1_555 1_555
C19 C18 1_555 1_555
H15 C19 1_555 1_555
O5D C9D 1_555 1_555
O6D C16D 1_555 1_555
C6D N3 1_555 1_555
H10D C6D 1_555 1_555
C7D C8 1_555 1_555
H11D C7D 1_555 1_555
C9D N4 1_555 1_555
C10D C12 1_555 1_555
C11D C10D 1_555 1_555
H12D C11D 1_555 1_555
C14D C11D 1_555 1_555
H13D C14D 1_555 1_555
C15D C13 1_555 1_555
C16D N5 1_555 1_555
C18D C17 1_555 1_555
H14D C18D 1_555 1_555
C19D N6 1_555 1_555
H15D C19D 1_555 1_555
O1D Cu1 1_555 1_555
O2D Cu1 1_555 1_555
O3D N2D 1_555 1_555
O4D N2D 1_555 1_555
N1D C1D 1_555 1_555
N2D O2D 1_555 1_555
C1D O1D 1_555 1_555
C2D C1D 1_555 1_555
H1D C2D 1_555 1_555
H2D C2D 1_555 1_555
C3D C2D 1_555 1_555
H3D C3D 1_555 1_555
H4D C3D 1_555 1_555
C4D N1D 1_555 1_555
H5D C4D 1_555 1_555
H6D C4D 1_555 1_555
C5D N1D 1_555 1_555
H7D C5D 1_555 1_555
H8D C5D 1_555 1_555
H9D C5D 1_555 1_555
Cu1_2 N6 1_555 1_555
N6_2 Cu1 1_555 1_555
C3 C4 1_555 1_555
C14 C15 1_555 1_555
C6D C7D 1_555 1_555
C9D C10D 1_555 1_555
C14D C15D 1_555 1_555
C15D C16D 1_555 1_555
C18D C19D 1_555 1_555
C3D C4D 1_555 1_555

#END
