
#######################################################################
#
#                 Cambridge Crystallographic Data Centre
#                                CCDC 
#
#######################################################################
#
# If this CIF has been generated from an entry in the Cambridge 
# Structural Database, then it will include bibliographic, chemical, 
# crystal, experimental, refinement or atomic coordinate data resulting 
# from the CCDC's data processing and validation procedures.
#
#######################################################################

data_YOGGEI
_symmetry_cell_setting           triclinic
_symmetry_space_group_name_H-M   'P -1'
_symmetry_Int_Tables_number      2
_space_group_name_Hall           '-P 1'
loop_
_symmetry_equiv_pos_site_id
_symmetry_equiv_pos_as_xyz
1 x,y,z
2 -x,-y,-z
_cell_length_a                   12.280(3)
_cell_length_b                   12.491(3)
_cell_length_c                   14.649(3)
_cell_angle_alpha                91.44(3)
_cell_angle_beta                 102.46(3)
_cell_angle_gamma                115.88(3)
_cell_volume                     1955.75
loop_
_atom_site_label
_atom_site_type_symbol
_atom_site_fract_x
_atom_site_fract_y
_atom_site_fract_z
Co1 Co 0.82744(4) 0.18131(4) 0.25451(3)
O1 O 0.2478(2) -0.13247(19) 0.07611(17)
O2 O 0.3737(2) -0.4232(2) 0.1185(2)
O3 O 0.6802(2) 0.3623(2) 0.10900(18)
O4 O 0.7821(2) 0.2567(2) 0.12671(17)
O5 O 0.6957(2) 0.2745(2) 0.23488(16)
O6 O 0.9188(2) 0.1221(2) 0.18111(18)
H1 H 0.9976(18) 0.148(3) 0.191(3)
H2 H 0.891(3) 0.0484(17) 0.169(3)
O7 O 0.7919(2) 0.1837(2) 0.39275(17)
O8 O 0.9189(3) 0.1132(3) 0.3810(2)
O9 O 0.8937(3) 0.1506(3) 0.52020(19)
O10 O 1.2009(2) 0.7721(2) 0.27475(17)
O11 O 1.3166(2) 0.6407(2) 0.54690(17)
N1 N 0.3094(2) -0.2785(2) 0.09713(19)
N2 N 0.6677(2) 0.0121(2) 0.20424(19)
N3 N 0.7181(3) 0.3001(2) 0.1562(2)
N4 N 0.8697(3) 0.1486(3) 0.4343(2)
N5 N 0.9754(2) 0.3598(2) 0.30507(18)
N6 N 1.2605(2) 0.7102(2) 0.41170(18)
C1 C 0.1295(3) -0.6099(3) 0.0401(3)
H3 H 0.1943 -0.6327 0.0603
C2 C 0.1571(3) -0.4902(3) 0.0499(2)
C3 C 0.0623(3) -0.4552(3) 0.0197(2)
C4 C 0.0882(3) -0.3334(3) 0.0292(2)
C5 C -0.0058(3) -0.3008(3) -0.0005(3)
H4 H 0.0124 -0.2185 0.0055
C6 C 0.2179(3) -0.2389(3) 0.0685(2)
C7 C 0.2880(3) -0.3985(3) 0.0911(2)
C8 C 0.4365(3) -0.1850(3) 0.1341(2)
C9 C 0.4937(3) -0.1638(3) 0.2280(2)
H5 H 0.4559 -0.2161 0.2701
C10 C 0.4986(3) -0.1140(3) 0.0739(2)
H6 H 0.4626 -0.1308 0.0077
C11 C 0.6147(3) -0.0174(3) 0.1115(2)
H7 H 0.6587 0.0301 0.0696
C12 C 0.6088(3) -0.0637(3) 0.2602(2)
H8 H 0.6480 -0.0481 0.3258
C13 C 1.0852(3) 0.4015(3) 0.2821(3)
H9 H 1.0974 0.3504 0.2406
C14 C 0.9587(3) 0.4345(3) 0.3612(2)
H10 H 0.8809 0.4064 0.3774
C15 C 1.0492(3) 0.5505(3) 0.3968(2)
H11 H 1.0334 0.6014 0.4357
C16 C 1.1818(3) 0.5155(3) 0.3159(3)
H12 H 1.2591 0.5416 0.2992
C17 C 1.1627(3) 0.5902(3) 0.3745(2)
C18 C 1.3354(3) 0.7257(3) 0.5032(2)
C19 C 1.2714(3) 0.7979(3) 0.3529(2)
C20 C 1.3937(3) 1.0108(3) 0.3355(3)
H13 H 1.3411 0.9951 0.2738
C21 C 1.3739(3) 0.9200(3) 0.3909(2)
C22 C 1.4513(3) 0.9415(3) 0.4822(2)
C23 C 1.4346(3) 0.8494(3) 0.5398(2)
C24 C 1.5091(3) 0.8739(3) 0.6301(2)
H14 H 1.4944 0.8121 0.6693
O1A O -0.2478(2) -0.86753(19) -0.07611(17)
O2A O -0.3737(2) -0.5768(2) -0.1185(2)
N1A N -0.3094(2) -0.7215(2) -0.09713(19)
N2A N -0.6677(2) -1.0121(2) -0.20424(19)
C1A C -0.1295(3) -0.3901(3) -0.0401(3)
H3A H -0.1943 -0.3673 -0.0603
C2A C -0.1571(3) -0.5098(3) -0.0499(2)
C3A C -0.0623(3) -0.5448(3) -0.0197(2)
C4A C -0.0882(3) -0.6666(3) -0.0292(2)
C5A C 0.0058(3) -0.6992(3) 0.0005(3)
H4A H -0.0124 -0.7815 -0.0055
C6A C -0.2179(3) -0.7611(3) -0.0685(2)
C7A C -0.2880(3) -0.6015(3) -0.0911(2)
C8A C -0.4365(3) -0.8150(3) -0.1341(2)
C9A C -0.4937(3) -0.8362(3) -0.2280(2)
H5A H -0.4559 -0.7839 -0.2701
C10A C -0.4986(3) -0.8860(3) -0.0739(2)
H6A H -0.4626 -0.8692 -0.0077
C11A C -0.6147(3) -0.9826(3) -0.1115(2)
H7A H -0.6587 -1.0301 -0.0696
C12A C -0.6088(3) -0.9363(3) -0.2602(2)
H8A H -0.6480 -0.9519 -0.3258
O10A O 1.7991(2) 1.2279(2) 0.72525(17)
O11A O 1.6834(2) 1.3593(2) 0.45310(17)
N5A N 2.0246(2) 1.6402(2) 0.69493(18)
N6A N 1.7395(2) 1.2898(2) 0.58830(18)
C13A C 1.9148(3) 1.5985(3) 0.7179(3)
H9A H 1.9026 1.6496 0.7594
C14A C 2.0413(3) 1.5655(3) 0.6388(2)
H10A H 2.1191 1.5936 0.6226
C15A C 1.9508(3) 1.4495(3) 0.6032(2)
H11A H 1.9666 1.3986 0.5643
C16A C 1.8182(3) 1.4845(3) 0.6841(3)
H12A H 1.7409 1.4584 0.7008
C17A C 1.8373(3) 1.4098(3) 0.6255(2)
C18A C 1.6646(3) 1.2743(3) 0.4968(2)
C19A C 1.7286(3) 1.2021(3) 0.6471(2)
C20A C 1.6063(3) 0.9892(3) 0.6645(3)
H13A H 1.6589 1.0049 0.7262
C21A C 1.6261(3) 1.0800(3) 0.6091(2)
C22A C 1.5487(3) 1.0585(3) 0.5178(2)
C23A C 1.5654(3) 1.1506(3) 0.4602(2)
C24A C 1.4909(3) 1.1261(3) 0.3699(2)
H14A H 1.5056 1.1879 0.3307
Co1A Co -0.82744(4) -1.18131(4) -0.25451(3)
O3A O -0.6802(2) -1.3623(2) -0.10900(18)
O4A O -0.7821(2) -1.2567(2) -0.12671(17)
O5A O -0.6957(2) -1.2745(2) -0.23488(16)
O6A O -0.9188(2) -1.1221(2) -0.18111(18)
H1A H -0.9976(18) -1.148(3) -0.191(3)
H2A H -0.891(3) -1.0484(17) -0.169(3)
O7A O -0.7919(2) -1.1837(2) -0.39275(17)
O8A O -0.9189(3) -1.1132(3) -0.3810(2)
O9A O -0.8937(3) -1.1506(3) -0.52020(19)
N3A N -0.7181(3) -1.3001(2) -0.1562(2)
N4A N -0.8697(3) -1.1486(3) -0.4343(2)
Co1A_2 Co 2.17256(4) 1.81869(4) 0.74549(3)
N5A_2 N -0.9754(2) -1.3598(2) -0.30507(18)
O12 O 0.1681(2) 0.2106(2) 0.2096(2)
N7 N 0.3334(3) 0.2274(3) 0.1591(2)
C25 C 0.3891(4) 0.1832(5) 0.0981(3)
H15 H 0.4347 0.1442 0.1347
H16 H 0.4469 0.2506 0.0727
H17 H 0.3229 0.1251 0.0459
C26 C 0.4142(4) 0.3393(4) 0.2212(3)
H18 H 0.4105 0.4063 0.1896
H19 H 0.5004 0.3500 0.2368
H20 H 0.3863 0.3372 0.2793
C27 C 0.2125(3) 0.1708(3) 0.1577(3)
C28 C 0.1324(4) 0.0589(4) 0.0902(3)
H21 H 0.0461 0.0269 0.0959
H22 H 0.1633 -0.0007 0.1046
H23 H 0.1350 0.0766 0.0257
O13 O 0.8252(2) 0.8842(2) 0.14224(18)
N8 N 0.8056(4) 0.7073(3) 0.1811(3)
C29 C 0.6830(5) 0.6446(4) 0.1110(5)
H24 H 0.6176 0.6472 0.1379
H25 H 0.6644 0.5608 0.0946
H26 H 0.6860 0.6844 0.0541
C30 C 0.8578(7) 0.6321(5) 0.2300(7)
H27 H 0.9479 0.6805 0.2568
H28 H 0.8433 0.5650 0.1849
H29 H 0.8169 0.6007 0.2806
C31 C 0.8666(4) 0.8265(3) 0.1933(3)
C32 C 0.9901(5) 0.8888(4) 0.2666(4)
H30 H 1.0504 0.8654 0.2497
H31 H 0.9782 0.8655 0.3284
H32 H 1.0218 0.9760 0.2692
loop_
_geom_bond_atom_site_label_1
_geom_bond_atom_site_label_2
_geom_bond_site_symmetry_1
_geom_bond_site_symmetry_2
Co1 O4 1_555 1_555
O1 C6 1_555 1_555
O2 C7 1_555 1_555
O3 N3 1_555 1_555
O4 N3 1_555 1_555
O5 Co1 1_555 1_555
O6 Co1 1_555 1_555
H1 O6 1_555 1_555
H2 O6 1_555 1_555
O7 Co1 1_555 1_555
O8 Co1 1_555 1_555
O9 N4 1_555 1_555
O10 C19 1_555 1_555
O11 C18 1_555 1_555
N1 C6 1_555 1_555
N2 Co1 1_555 1_555
N3 O5 1_555 1_555
N4 O7 1_555 1_555
N5 Co1 1_555 1_555
N6 C17 1_555 1_555
C1 H3 1_555 1_555
C2 C1 1_555 1_555
C3 C2 1_555 1_555
C4 C3 1_555 1_555
C5 C4 1_555 1_555
H4 C5 1_555 1_555
C6 C4 1_555 1_555
C7 N1 1_555 1_555
C8 N1 1_555 1_555
C9 C8 1_555 1_555
H5 C9 1_555 1_555
C10 C8 1_555 1_555
H6 C10 1_555 1_555
C11 N2 1_555 1_555
H7 C11 1_555 1_555
C12 N2 1_555 1_555
H8 C12 1_555 1_555
C13 N5 1_555 1_555
H9 C13 1_555 1_555
C14 N5 1_555 1_555
H10 C14 1_555 1_555
C15 C14 1_555 1_555
H11 C15 1_555 1_555
C16 C13 1_555 1_555
H12 C16 1_555 1_555
C17 C15 1_555 1_555
C18 N6 1_555 1_555
C19 N6 1_555 1_555
C20 H13 1_555 1_555
C21 C19 1_555 1_555
C22 C21 1_555 1_555
C23 C18 1_555 1_555
C24 C23 1_555 1_555
H14 C24 1_555 1_555
O12 C27 1_555 1_555
N7 C25 1_555 1_555
C25 H15 1_555 1_555
H16 C25 1_555 1_555
H17 C25 1_555 1_555
C26 N7 1_555 1_555
H18 C26 1_555 1_555
H19 C26 1_555 1_555
H20 C26 1_555 1_555
C27 N7 1_555 1_555
C28 C27 1_555 1_555
H21 C28 1_555 1_555
H22 C28 1_555 1_555
H23 C28 1_555 1_555
O13 C31 1_555 1_555
N8 C29 1_555 1_555
C29 H24 1_555 1_555
H25 C29 1_555 1_555
H26 C29 1_555 1_555
C30 N8 1_555 1_555
H27 C30 1_555 1_555
H28 C30 1_555 1_555
H29 C30 1_555 1_555
C31 N8 1_555 1_555
C32 C31 1_555 1_555
H30 C32 1_555 1_555
H31 C32 1_555 1_555
H32 C32 1_555 1_555
O1A C6A 1_555 1_555
O2A C7A 1_555 1_555
N1A C6A 1_555 1_555
N2A C11A 1_555 1_555
C1A C5 1_555 1_555
H3A C1A 1_555 1_555
C2A C1A 1_555 1_555
C3A C3 1_555 1_555
C4A C3A 1_555 1_555
C5A C1 1_555 1_555
H4A C5A 1_555 1_555
C6A C4A 1_555 1_555
C7A N1A 1_555 1_555
C8A N1A 1_555 1_555
C9A C8A 1_555 1_555
H5A C9A 1_555 1_555
C10A C8A 1_555 1_555
H6A C10A 1_555 1_555
C11A C10A 1_555 1_555
H7A C11A 1_555 1_555
C12A N2A 1_555 1_555
H8A C12A 1_555 1_555
O10A C19A 1_555 1_555
O11A C18A 1_555 1_555
N5A C13A 1_555 1_555
N6A C17A 1_555 1_555
C13A H9A 1_555 1_555
C14A N5A 1_555 1_555
H10A C14A 1_555 1_555
C15A C14A 1_555 1_555
H11A C15A 1_555 1_555
C16A C13A 1_555 1_555
H12A C16A 1_555 1_555
C17A C15A 1_555 1_555
C18A N6A 1_555 1_555
C19A N6A 1_555 1_555
C20A C24 1_555 1_555
H13A C20A 1_555 1_555
C21A C19A 1_555 1_555
C22A C22 1_555 1_555
C23A C18A 1_555 1_555
C24A C20 1_555 1_555
H14A C24A 1_555 1_555
Co1A N2A 1_555 1_555
O3A N3A 1_555 1_555
O4A Co1A 1_555 1_555
O5A Co1A 1_555 1_555
O6A Co1A 1_555 1_555
H1A O6A 1_555 1_555
H2A O6A 1_555 1_555
O7A Co1A 1_555 1_555
O8A Co1A 1_555 1_555
O9A N4A 1_555 1_555
N3A O4A 1_555 1_555
N4A O7A 1_555 1_555
Co1A_2 N5A 1_555 1_555
N5A_2 Co1A 1_555 1_555
O8 N4 1_555 1_555
C2 C7 1_555 1_555
C9 C12 1_555 1_555
C10 C11 1_555 1_555
C16 C17 1_555 1_555
C20 C21 1_555 1_555
C22 C23 1_555 1_555
C2A C3A 1_555 1_555
C2A C7A 1_555 1_555
C4A C5A 1_555 1_555
C9A C12A 1_555 1_555
C16A C17A 1_555 1_555
C20A C21A 1_555 1_555
C21A C22A 1_555 1_555
C22A C23A 1_555 1_555
C23A C24A 1_555 1_555
O5A N3A 1_555 1_555
O8A N4A 1_555 1_555

#END
