
#######################################################################
#
#                 Cambridge Crystallographic Data Centre
#                                CCDC 
#
#######################################################################
#
# If this CIF has been generated from an entry in the Cambridge 
# Structural Database, then it will include bibliographic, chemical, 
# crystal, experimental, refinement or atomic coordinate data resulting 
# from the CCDC's data processing and validation procedures.
#
#######################################################################

data_YOGGOS
_symmetry_cell_setting           tetragonal
_symmetry_space_group_name_H-M   'I -4 2 d'
_symmetry_Int_Tables_number      122
_space_group_name_Hall           'I -4 2bw'
loop_
_symmetry_equiv_pos_site_id
_symmetry_equiv_pos_as_xyz
1 x,y,z
2 y,-x,-z
3 -x,-y,z
4 -y,x,-z
5 x,1/2-y,1/4-z
6 -x,1/2+y,1/4-z
7 -y,1/2-x,1/4+z
8 y,1/2+x,1/4+z
9 1/2+x,1/2+y,1/2+z
10 1/2+y,1/2-x,1/2-z
11 1/2-x,1/2-y,1/2+z
12 1/2-y,1/2+x,1/2-z
13 1/2+x,-y,3/4-z
14 1/2-x,y,3/4-z
15 1/2-y,-x,3/4+z
16 1/2+y,x,3/4+z
_cell_length_a                   19.642(3)
_cell_length_b                   19.642(3)
_cell_length_c                   23.896(5)
_cell_angle_alpha                90
_cell_angle_beta                 90
_cell_angle_gamma                90
_cell_volume                     9219.27
loop_
_atom_site_label
_atom_site_type_symbol
_atom_site_fract_x
_atom_site_fract_y
_atom_site_fract_z
Co1 Co 0.13496(3) 0.2500 0.1250
N1 N 0.1528(4) 0.4655(3) 0.1351(3)
N2 N 0.1310(2) 0.2312(2) -0.00372(15)
N3 N 0.24365(18) 0.2500 0.1250
N4 N 0.45635(18) 0.2500 0.1250
N5 N 0.81270(16) 0.2500 0.1250
N6 N 1.02644(16) 0.2500 0.1250
O1 O 0.13154(15) 0.35569(16) 0.13017(14)
O2 O 0.1388(2) 0.26704(19) 0.03730(12)
O3 O 0.1173(6) 0.1711(3) -0.0003(2)
O4 O 0.1398(3) 0.2505(3) -0.05123(15)
O5 O 0.45558(13) 0.32218(19) 0.05099(13)
O6 O 0.81471(12) 0.32298(17) 0.05232(12)
C1 C 0.1615(3) 0.4062(3) 0.1124(2)
C2 C 0.2124(4) 0.4106(3) 0.0661(3)
H1 H 0.2547 0.3886 0.0767
H2 H 0.1951 0.3892 0.0324
C3 C 0.2227(7) 0.4848(4) 0.0574(5)
H3 H 0.2707 0.4954 0.0535
H4 H 0.1988 0.5004 0.0243
C4 C 0.1944(9) 0.5168(5) 0.1085(4)
H5 H 0.2307 0.5312 0.1333
H6 H 0.1671 0.5562 0.0988
C5 C 0.1105(7) 0.4776(5) 0.1846(4)
H7 H 0.0688 0.4524 0.1813
H8 H 0.1004 0.5253 0.1876
H9 H 0.1346 0.4630 0.2175
C6 C 0.27795(17) 0.2182(2) 0.08527(17)
H10 H 0.2538 0.1963 0.0571
C7 C 0.34922(17) 0.2161(2) 0.08380(17)
H11 H 0.3721 0.1925 0.0558
C8 C 0.3842(2) 0.2500 0.1250
C9 C 0.48840(16) 0.2899(2) 0.08443(15)
C10 C 0.56450(16) 0.2898(2) 0.08537(15)
C11 C 0.5998(2) 0.2500 0.1250
C12 C 0.60005(18) 0.3296(2) 0.04823(15)
H12 H 0.5764 0.3570 0.0231
C13 C 0.67065(17) 0.3295(2) 0.04761(16)
H13 H 0.6942 0.3554 0.0214
C14 C 0.67141(19) 0.2500 0.1250
C15 C 0.70595(16) 0.29053(18) 0.08640(13)
C16 C 0.78106(16) 0.29033(19) 0.08535(15)
C17 C 0.88761(19) 0.2500 0.1250
C18 C 0.92152(17) 0.2033(2) 0.09281(19)
H14 H 0.8985 0.1714 0.0712
C19 C 0.99184(18) 0.2062(2) 0.09422(17)
H15 H 1.0161 0.1755 0.0723
O5D O 0.45558(13) 0.17782(19) 0.19901(13)
O6D O 0.81471(12) 0.17702(17) 0.19768(12)
C6D C 0.27795(17) 0.2818(2) 0.16473(17)
H10D H 0.2538 0.3037 0.1929
C7D C 0.34922(17) 0.2839(2) 0.16620(17)
H11D H 0.3721 0.3075 0.1942
C9D C 0.48840(16) 0.2101(2) 0.16557(15)
C10D C 0.56450(16) 0.2102(2) 0.16463(15)
C12D C 0.60005(18) 0.1704(2) 0.20177(15)
H12D H 0.5764 0.1430 0.2269
C13D C 0.67065(17) 0.1705(2) 0.20239(16)
H13D H 0.6942 0.1446 0.2286
C15D C 0.70595(16) 0.20947(18) 0.16360(13)
C16D C 0.78106(16) 0.20967(19) 0.16465(15)
C18D C 0.92152(17) 0.2967(2) 0.15719(19)
H14D H 0.8985 0.3286 0.1788
C19D C 0.99184(18) 0.2938(2) 0.15578(17)
H15D H 1.0161 0.3245 0.1777
N1D N 0.1528(4) 0.0345(3) 0.1149(3)
N2D N 0.1310(2) 0.2688(2) 0.25372(15)
O1D O 0.13154(15) 0.14431(16) 0.11983(14)
O2D O 0.1388(2) 0.23296(19) 0.21270(12)
O3D O 0.1173(6) 0.3289(3) 0.2503(2)
O4D O 0.1398(3) 0.2495(3) 0.30123(15)
C1D C 0.1615(3) 0.0938(3) 0.1376(2)
C2D C 0.2124(4) 0.0894(3) 0.1839(3)
H1D H 0.2547 0.1114 0.1733
H2D H 0.1951 0.1108 0.2176
C3D C 0.2227(7) 0.0152(4) 0.1926(5)
H3D H 0.2707 0.0046 0.1965
H4D H 0.1988 -0.0004 0.2257
C4D C 0.1944(9) -0.0168(5) 0.1415(4)
H5D H 0.2307 -0.0312 0.1167
H6D H 0.1671 -0.0562 0.1512
C5D C 0.1105(7) 0.0224(5) 0.0654(4)
H7D H 0.0688 0.0476 0.0687
H8D H 0.1004 -0.0253 0.0624
H9D H 0.1346 0.0370 0.0325
Co1_2 Co 1.13496(3) 0.2500 0.1250
N6_2 N 0.02644(16) 0.2500 0.1250
loop_
_geom_bond_atom_site_label_1
_geom_bond_atom_site_label_2
_geom_bond_site_symmetry_1
_geom_bond_site_symmetry_2
Co1 N3 1_555 1_555
N1 C1 1_555 1_555
N2 O2 1_555 1_555
N3 C6 1_555 1_555
N4 C8 1_555 1_555
N5 C16 1_555 1_555
N6 C19 1_555 1_555
O1 Co1 1_555 1_555
O2 Co1 1_555 1_555
O3 N2 1_555 1_555
O4 N2 1_555 1_555
O5 C9 1_555 1_555
O6 C16 1_555 1_555
C1 O1 1_555 1_555
C2 C1 1_555 1_555
H1 C2 1_555 1_555
H2 C2 1_555 1_555
C3 C2 1_555 1_555
H3 C3 1_555 1_555
H4 C3 1_555 1_555
C4 N1 1_555 1_555
H5 C4 1_555 1_555
H6 C4 1_555 1_555
C5 N1 1_555 1_555
H7 C5 1_555 1_555
H8 C5 1_555 1_555
H9 C5 1_555 1_555
C6 H10 1_555 1_555
C7 C6 1_555 1_555
H11 C7 1_555 1_555
C8 C7 1_555 1_555
C9 N4 1_555 1_555
C10 C9 1_555 1_555
C11 C10 1_555 1_555
C12 C10 1_555 1_555
H12 C12 1_555 1_555
C13 C12 1_555 1_555
H13 C13 1_555 1_555
C14 C11 1_555 1_555
C15 C13 1_555 1_555
C16 C15 1_555 1_555
C17 N5 1_555 1_555
C18 C17 1_555 1_555
H14 C18 1_555 1_555
C19 C18 1_555 1_555
H15 C19 1_555 1_555
O5D C9D 1_555 1_555
O6D C16D 1_555 1_555
C6D N3 1_555 1_555
H10D C6D 1_555 1_555
C7D C8 1_555 1_555
H11D C7D 1_555 1_555
C9D N4 1_555 1_555
C10D C11 1_555 1_555
C12D C10D 1_555 1_555
H12D C12D 1_555 1_555
C13D C12D 1_555 1_555
H13D C13D 1_555 1_555
C15D C14 1_555 1_555
C16D N5 1_555 1_555
C18D C17 1_555 1_555
H14D C18D 1_555 1_555
C19D N6 1_555 1_555
H15D C19D 1_555 1_555
N1D C1D 1_555 1_555
N2D O2D 1_555 1_555
O1D Co1 1_555 1_555
O2D Co1 1_555 1_555
O3D N2D 1_555 1_555
O4D N2D 1_555 1_555
C1D O1D 1_555 1_555
C2D C1D 1_555 1_555
H1D C2D 1_555 1_555
H2D C2D 1_555 1_555
C3D C2D 1_555 1_555
H3D C3D 1_555 1_555
H4D C3D 1_555 1_555
C4D N1D 1_555 1_555
H5D C4D 1_555 1_555
H6D C4D 1_555 1_555
C5D N1D 1_555 1_555
H7D C5D 1_555 1_555
H8D C5D 1_555 1_555
H9D C5D 1_555 1_555
Co1_2 N6 1_555 1_555
N6_2 Co1 1_555 1_555
C3 C4 1_555 1_555
C14 C15 1_555 1_555
C6D C7D 1_555 1_555
C9D C10D 1_555 1_555
C13D C15D 1_555 1_555
C15D C16D 1_555 1_555
C18D C19D 1_555 1_555
C3D C4D 1_555 1_555

#END
