
#######################################################################
#
#                 Cambridge Crystallographic Data Centre
#                                CCDC 
#
#######################################################################
#
# If this CIF has been generated from an entry in the Cambridge 
# Structural Database, then it will include bibliographic, chemical, 
# crystal, experimental, refinement or atomic coordinate data resulting 
# from the CCDC's data processing and validation procedures.
#
#######################################################################

data_YOGKOW
_symmetry_cell_setting           rhombohedral
_symmetry_space_group_name_H-M   'R -3 m'
_symmetry_Int_Tables_number      166
_space_group_name_Hall           '-R 3 2"'
loop_
_symmetry_equiv_pos_site_id
_symmetry_equiv_pos_as_xyz
1 x,y,z
2 -y,x-y,z
3 -x+y,-x,z
4 x-y,-y,-z
5 -x,-x+y,-z
6 y,x,-z
7 2/3+x,1/3+y,1/3+z
8 2/3-y,1/3+x-y,1/3+z
9 2/3-x+y,1/3-x,1/3+z
10 2/3+x-y,1/3-y,1/3-z
11 2/3-x,1/3-x+y,1/3-z
12 2/3+y,1/3+x,1/3-z
13 1/3+x,2/3+y,2/3+z
14 1/3-y,2/3+x-y,2/3+z
15 1/3-x+y,2/3-x,2/3+z
16 1/3+x-y,2/3-y,2/3-z
17 1/3-x,2/3-x+y,2/3-z
18 1/3+y,2/3+x,2/3-z
19 -x,-y,-z
20 y,-x+y,-z
21 x-y,x,-z
22 -x+y,y,z
23 x,x-y,z
24 -y,-x,z
25 1/3-x,2/3-y,2/3-z
26 1/3+y,2/3-x+y,2/3-z
27 1/3+x-y,2/3+x,2/3-z
28 1/3-x+y,2/3+y,2/3+z
29 1/3+x,2/3+x-y,2/3+z
30 1/3-y,2/3-x,2/3+z
31 2/3-x,1/3-y,1/3-z
32 2/3+y,1/3-x+y,1/3-z
33 2/3+x-y,1/3+x,1/3-z
34 2/3-x+y,1/3+y,1/3+z
35 2/3+x,1/3+x-y,1/3+z
36 2/3-y,1/3-x,1/3+z
_cell_length_a                   27.063(9)
_cell_length_b                   27.063(9)
_cell_length_c                   16.107(3)
_cell_angle_alpha                90
_cell_angle_beta                 90
_cell_angle_gamma                120
_cell_volume                     10216.4
loop_
_atom_site_label
_atom_site_type_symbol
_atom_site_fract_x
_atom_site_fract_y
_atom_site_fract_z
Zn1 Zn 0.13443(2) 0.26886(2) 0.34117(3)
O1 O 0.19512(11) 0.28390(14) 0.25573(19)
O2 O 0.24271(13) 0.37919(14) 0.2422(2)
O3 O 0.09245(8) 0.18491(16) 0.3448(4)
C1 C 0.3333 0.3766(2) 0.1667
H1 H 0.3333 0.4117 0.1667
C2 C 0.28670(13) 0.32749(16) 0.1964(2)
C3 C 0.28620(13) 0.27624(16) 0.1954(2)
H2 H 0.2534 0.2426 0.2144
C4 C 0.3333 0.27329(19) 0.1667
C5 C 0.23715(15) 0.3307(2) 0.2336(2)
C6 C 0.3333 0.21845(19) 0.1667
C7 C 0.31263(15) 0.18280(15) 0.0976(2)
C8 C 0.29101(19) 0.1971(2) 0.0247(2)
H3 H 0.2906 0.2320 0.0233
C9 C 0.2715(2) 0.1618(2) -0.0414(3)
H4 H 0.2576 0.1722 -0.0885
O1J O 0.47155(11) 0.42211(18) 0.07760(19)
O2J O 0.42396(13) 0.46981(19) 0.0911(2)
C2J C 0.37997(13) 0.37412(21) 0.1369(2)
C3J C 0.38047(13) 0.32337(21) 0.1379(2)
H2J H 0.4133 0.3225 0.1189
C5J C 0.42952(15) 0.42688(25) 0.0997(2)
C7J C 0.35404(15) 0.20350(21) 0.2357(2)
C8J C 0.37566(19) 0.23942(28) 0.3086(2)
H3J H 0.3761 0.2747 0.3100
C9J C 0.3952(2) 0.2236(3) 0.3747(3)
H4J H 0.4091 0.2479 0.4218
O1V O 0.19512(11) -0.08878(18) 0.25573(19)
O2V O 0.24271(13) -0.13648(19) 0.2422(2)
C1V C 0.3333 -0.0433(2) 0.1667
H1V H 0.3333 -0.0784 0.1667
C2V C 0.28670(13) -0.04079(21) 0.1964(2)
C3V C 0.28620(13) 0.00996(21) 0.1954(2)
H2V H 0.2534 0.0108 0.2144
C4V C 0.3333 0.06001(19) 0.1667
C5V C 0.23715(15) -0.09355(25) 0.2336(2)
C6V C 0.3333 0.11485(19) 0.1667
C7V C 0.31263(15) 0.12983(21) 0.0976(2)
C8V C 0.29101(19) 0.09391(28) 0.0247(2)
H3V H 0.2906 0.0586 0.0233
C9V C 0.2715(2) 0.1097(3) -0.0414(3)
H4V H 0.2576 0.0854 -0.0885
O1DA O 0.47155(11) 0.04943(14) 0.07760(19)
O2DA O 0.42396(13) -0.04586(14) 0.0911(2)
C2DA C 0.37997(13) 0.00584(16) 0.1369(2)
C3DA C 0.38047(13) 0.05709(16) 0.1379(2)
H2DA H 0.4133 0.0907 0.1189
C5DA C 0.42952(15) 0.0026(2) 0.0997(2)
C7DA C 0.35404(15) 0.15053(15) 0.2357(2)
C8DA C 0.37566(19) 0.1362(2) 0.3086(2)
H3DA H 0.3761 0.1013 0.3100
C9DA C 0.3952(2) 0.1715(2) 0.3747(3)
H4DA H 0.4091 0.1611 0.4218
Zn1O Zn 0.19890(3) 0.39781(2) 0.32550(3)
O3O O 0.24087(18) 0.48176(16) 0.3219(4)
Zn1B Zn 0.13443(3) -0.13443(2) 0.34117(3)
Zn1I Zn 0.53224(3) 0.06447(2) -0.00784(3)
Zn1J Zn 0.53224(2) 0.46776(3) -0.00784(3)
Zn1L Zn 0.46776(2) -0.06447(2) 0.00784(3)
Zn1N Zn 0.46776(3) 0.53224(2) 0.00784(3)
Zn1P Zn 0.19890(2) -0.19890(3) 0.32550(3)
O1O O 0.24455(18) 0.38277(14) 0.41094(19)
O1U O 0.08878(18) 0.28390(14) 0.25573(19)
O1X O 0.13821(11) 0.38277(14) 0.41094(19)
O2O O 0.19685(19) 0.28748(14) 0.4245(2)
O2U O 0.13648(19) 0.37919(14) 0.2422(2)
O2X O 0.09062(13) 0.28748(14) 0.4245(2)
loop_
_geom_bond_atom_site_label_1
_geom_bond_atom_site_label_2
_geom_bond_site_symmetry_1
_geom_bond_site_symmetry_2
Zn1 O1 1_555 1_555
O1 C5 1_555 1_555
O2 C5 1_555 1_555
O3 Zn1 1_555 1_555
C1 H1 1_555 1_555
C2 C1 1_555 1_555
C3 C2 1_555 1_555
H2 C3 1_555 1_555
C4 C3 1_555 1_555
C5 C2 1_555 1_555
C6 C4 1_555 1_555
C7 C6 1_555 1_555
C8 C7 1_555 1_555
H3 C8 1_555 1_555
C9 C8 1_555 1_555
H4 C9 1_555 1_555
O1J C5J 1_555 1_555
O2J C5J 1_555 1_555
C2J C1 1_555 1_555
C3J C4 1_555 1_555
H2J C3J 1_555 1_555
C5J C2J 1_555 1_555
C7J C6 1_555 1_555
C8J C7J 1_555 1_555
H3J C8J 1_555 1_555
C9J C8J 1_555 1_555
H4J C9J 1_555 1_555
O1V C5V 1_555 1_555
O2V C5V 1_555 1_555
C1V H1V 1_555 1_555
C2V C1V 1_555 1_555
C3V C2V 1_555 1_555
H2V C3V 1_555 1_555
C4V C3V 1_555 1_555
C5V C2V 1_555 1_555
C6V C4V 1_555 1_555
C7V C7 1_555 1_555
C8V C7V 1_555 1_555
H3V C8V 1_555 1_555
C9V C9 1_555 1_555
H4V C9V 1_555 1_555
O1DA C5DA 1_555 1_555
O2DA C5DA 1_555 1_555
C2DA C1V 1_555 1_555
C3DA C4V 1_555 1_555
H2DA C3DA 1_555 1_555
C5DA C2DA 1_555 1_555
C7DA C7J 1_555 1_555
C8DA C7DA 1_555 1_555
H3DA C8DA 1_555 1_555
C9DA C9J 1_555 1_555
H4DA C9DA 1_555 1_555
Zn1O O2 1_555 1_555
O3O Zn1O 1_555 1_555
Zn1B O1V 1_555 1_555
Zn1I O1DA 1_555 1_555
Zn1J O1J 1_555 1_555
Zn1L O2DA 1_555 1_555
Zn1N O2J 1_555 1_555
Zn1P O2V 1_555 1_555
O1O Zn1O 1_555 1_555
O1U Zn1 1_555 1_555
O1X Zn1O 1_555 1_555
O2O Zn1 1_555 1_555
O2U Zn1O 1_555 1_555
O2X Zn1 1_555 1_555
C2J C3J 1_555 1_555
C6V C7V 1_555 1_555
C6V C7DA 1_555 1_555
C8V C9V 1_555 1_555
C2DA C3DA 1_555 1_555
C8DA C9DA 1_555 1_555

#END
