
#######################################################################
#
#                 Cambridge Crystallographic Data Centre
#                                CCDC 
#
#######################################################################
#
# If this CIF has been generated from an entry in the Cambridge 
# Structural Database, then it will include bibliographic, chemical, 
# crystal, experimental, refinement or atomic coordinate data resulting 
# from the CCDC's data processing and validation procedures.
#
#######################################################################

data_YOGLOX
_symmetry_cell_setting           trigonal
_symmetry_space_group_name_H-M   'P 3 c 1'
_symmetry_Int_Tables_number      158
_space_group_name_Hall           'P 3 -2"c'
loop_
_symmetry_equiv_pos_site_id
_symmetry_equiv_pos_as_xyz
1 x,y,z
2 -y,x-y,z
3 -x+y,-x,z
4 -x+y,y,1/2+z
5 x,x-y,1/2+z
6 -y,-x,1/2+z
_cell_length_a                   24.0122(6)
_cell_length_b                   24.0122(6)
_cell_length_c                   7.8167(2)
_cell_angle_alpha                90
_cell_angle_beta                 90
_cell_angle_gamma                120
_cell_volume                     3903.17
loop_
_atom_site_label
_atom_site_type_symbol
_atom_site_fract_x
_atom_site_fract_y
_atom_site_fract_z
Bi1 Bi 0.0000 0.0000 -0.03646(4)
S1 S 0.05349(3) 0.10394(4) 0.16882(13)
N1 N 0.18366(13) 0.17551(14) 0.1031(4)
N2 N 0.22776(14) 0.17230(14) -0.0021(4)
N3 N 0.19706(14) 0.11847(14) -0.0840(4)
N4 N 0.13401(13) 0.08569(14) -0.0352(4)
C1 C 0.12700(15) 0.12176(16) 0.0798(5)
C2 C 0.19891(16) 0.23006(16) 0.2100(5)
C3 C 0.18193(17) 0.21976(17) 0.3800(5)
H1 H 0.1690(18) 0.1834(19) 0.419(5)
C4 C 0.19266(18) 0.27189(18) 0.4809(6)
H2 H 0.182(2) 0.267(2) 0.608(6)
C5 C 0.2214(2) 0.3334(2) 0.4099(6)
H3 H 0.228(2) 0.372(2) 0.479(6)
C6 C 0.2389(2) 0.34252(18) 0.2408(6)
H4 H 0.256(2) 0.381(2) 0.200(6)
C7 C 0.22770(19) 0.29063(18) 0.1367(6)
H5 H 0.2401(17) 0.2934(16) 0.033(5)
S1A S -0.10394(4) -0.05045(5) 0.16882(13)
N1A N -0.17551(14) 0.00815(19) 0.1031(4)
N2A N -0.17230(14) 0.05546(20) -0.0021(4)
N3A N -0.11847(14) 0.07859(20) -0.0840(4)
N4A N -0.08569(14) 0.04832(19) -0.0352(4)
C1A C -0.12176(16) 0.00524(22) 0.0798(5)
C2A C -0.23006(16) -0.03115(23) 0.2100(5)
C3A C -0.21976(17) -0.03783(24) 0.3800(5)
H1A H -0.1834(19) -0.0144(26) 0.419(5)
C4A C -0.27189(18) -0.07923(25) 0.4809(6)
H2A H -0.267(2) -0.085(3) 0.608(6)
C5A C -0.3334(2) -0.1120(3) 0.4099(6)
H3A H -0.372(2) -0.144(3) 0.479(6)
C6A C -0.34252(18) -0.10362(27) 0.2408(6)
H4A H -0.381(2) -0.125(3) 0.200(6)
C7A C -0.29063(18) -0.06293(26) 0.1367(6)
H5A H -0.2934(16) -0.0533(23) 0.033(5)
S1B S 0.05045(5) -0.05349(3) 0.16882(13)
N1B N -0.00815(19) -0.18366(13) 0.1031(4)
N2B N -0.05546(20) -0.22776(14) -0.0021(4)
N3B N -0.07859(20) -0.19706(14) -0.0840(4)
N4B N -0.04832(19) -0.13401(13) -0.0352(4)
C1B C -0.00524(22) -0.12700(15) 0.0798(5)
C2B C 0.03115(23) -0.19891(16) 0.2100(5)
C3B C 0.03783(24) -0.18193(17) 0.3800(5)
H1B H 0.0144(26) -0.1690(18) 0.419(5)
C4B C 0.07923(25) -0.19266(18) 0.4809(6)
H2B H 0.085(3) -0.182(2) 0.608(6)
C5B C 0.1120(3) -0.2214(2) 0.4099(6)
H3B H 0.144(3) -0.228(2) 0.479(6)
C6B C 0.10362(27) -0.2389(2) 0.2408(6)
H4B H 0.125(3) -0.256(2) 0.200(6)
C7B C 0.06293(26) -0.22770(19) 0.1367(6)
H5B H 0.0533(23) -0.2401(17) 0.033(5)
Bi1C Bi 0.0000 0.0000 0.46354(4)
S1C S 0.05045(5) 0.10394(4) -0.33118(13)
S1D S 0.05349(3) -0.05045(5) -0.33118(13)
S1E S -0.10394(4) -0.05349(3) -0.33118(13)
Bi2 Bi 0.6667 0.3333 0.94882(2)
S2 S 0.56376(5) 0.28258(4) 0.74394(12)
N5 N 0.48716(14) 0.33550(14) 0.8102(4)
N6 N 0.48722(15) 0.38062(15) 0.9174(4)
N7 N 0.54045(16) 0.40516(15) 1.0020(4)
N8 N 0.57632(13) 0.37829(13) 0.9540(4)
C8 C 0.54236(16) 0.33473(15) 0.8345(4)
C9 C 0.43596(16) 0.29895(17) 0.6926(5)
C10 C 0.45133(18) 0.29501(18) 0.5244(5)
H6 H 0.491(2) 0.3184(19) 0.490(5)
C11 C 0.40252(18) 0.25906(19) 0.4087(5)
H7 H 0.4115(18) 0.2511(18) 0.298(5)
C12 C 0.3390(2) 0.2283(2) 0.4640(6)
H8 H 0.308(3) 0.214(3) 0.400(7)
C13 C 0.3245(2) 0.2327(2) 0.6324(6)
H9 H 0.283(2) 0.214(2) 0.661(5)
C14 C 0.37278(19) 0.2678(2) 0.7498(6)
H10 H 0.359(2) 0.267(2) 0.843(6)
S2A S 0.71742(4) 0.28118(6) 0.74394(12)
N5A N 0.66450(14) 0.15166(20) 0.8102(4)
N6A N 0.61938(15) 0.10660(21) 0.9174(4)
N7A N 0.59484(15) 0.13529(22) 1.0020(4)
N8A N 0.62171(13) 0.19803(18) 0.9540(4)
C8A C 0.66527(15) 0.20763(22) 0.8345(4)
C9A C 0.70105(17) 0.13701(23) 0.6926(5)
C10A C 0.70499(18) 0.15632(25) 0.5244(5)
H6A H 0.6816(19) 0.1726(28) 0.490(5)
C11A C 0.74094(19) 0.14346(26) 0.4087(5)
H7A H 0.7489(18) 0.1604(25) 0.298(5)
C12A C 0.7717(2) 0.1107(3) 0.4640(6)
H8A H 0.786(3) 0.094(4) 0.400(7)
C13A C 0.7673(2) 0.0918(3) 0.6324(6)
H9A H 0.786(2) 0.069(3) 0.661(5)
C14A C 0.7322(2) 0.10498(28) 0.7498(6)
H10A H 0.733(2) 0.092(3) 0.843(6)
S2B S 0.71882(6) 0.43624(5) 0.74394(12)
N5B N 0.84834(20) 0.51284(14) 0.8102(4)
N6B N 0.89340(21) 0.51278(15) 0.9174(4)
N7B N 0.86471(22) 0.45955(16) 1.0020(4)
N8B N 0.80197(18) 0.42368(13) 0.9540(4)
C8B C 0.79237(22) 0.45764(16) 0.8345(4)
C9B C 0.86299(23) 0.56404(16) 0.6926(5)
C10B C 0.84368(25) 0.54867(18) 0.5244(5)
H6B H 0.8274(28) 0.509(2) 0.490(5)
C11B C 0.85654(26) 0.59748(18) 0.4087(5)
H7B H 0.8396(25) 0.5885(18) 0.298(5)
C12B C 0.8893(3) 0.6610(2) 0.4640(6)
H8B H 0.906(4) 0.692(3) 0.400(7)
C13B C 0.9082(3) 0.6755(2) 0.6324(6)
H9B H 0.931(3) 0.717(2) 0.661(5)
C14B C 0.89502(28) 0.62722(19) 0.7498(6)
H10B H 0.908(3) 0.641(2) 0.843(6)
Bi2C Bi 0.6666 0.3333 0.44882(2)
S2C S 0.71882(6) 0.28258(4) 1.24394(12)
S2D S 0.56376(5) 0.28118(6) 1.24394(12)
S2E S 0.71742(4) 0.43624(5) 1.24394(12)
Bi3 Bi 0.3333 0.6667 0.84022(3)
S3 S 0.38323(4) 0.61411(3) 0.63389(13)
N9 N 0.32837(14) 0.48437(13) 0.6985(4)
N10 N 0.28448(15) 0.43955(14) 0.8079(4)
N11 N 0.26110(14) 0.46928(14) 0.8949(4)
N12 N 0.28839(13) 0.53216(13) 0.8468(4)
C15 C 0.33048(15) 0.54032(15) 0.7250(4)
C16 C 0.36558(17) 0.47044(16) 0.5801(5)
C17 C 0.4026(2) 0.44449(19) 0.6406(6)
H11 H 0.4072(19) 0.4396(19) 0.730(6)
C18 C 0.4415(2) 0.4361(2) 0.5265(7)
H12 H 0.467(2) 0.421(2) 0.560(6)
C19 C 0.4423(2) 0.4511(2) 0.3560(6)
H13 H 0.468(3) 0.453(3) 0.287(7)
C20 C 0.4051(2) 0.47670(19) 0.2974(6)
H14 H 0.4035(17) 0.4845(17) 0.194(5)
C21 C 0.36613(17) 0.48647(16) 0.4111(5)
H15 H 0.3364(17) 0.5058(17) 0.378(5)
S3A S 0.38589(3) 0.76912(5) 0.63389(13)
N9A N 0.51563(13) 0.84400(19) 0.6985(4)
N10A N 0.56045(14) 0.84493(21) 0.8079(4)
N11A N 0.53072(14) 0.79182(20) 0.8949(4)
N12A N 0.46784(13) 0.75623(18) 0.8468(4)
C15A C 0.45968(15) 0.79016(21) 0.7250(4)
C16A C 0.52956(16) 0.89514(23) 0.5801(5)
C17A C 0.55551(19) 0.95811(28) 0.6406(6)
H11A H 0.5604(19) 0.9676(27) 0.730(6)
C18A C 0.5639(2) 1.0054(3) 0.5265(7)
H12A H 0.579(2) 1.046(3) 0.560(6)
C19A C 0.5489(2) 0.9912(3) 0.3560(6)
H13A H 0.547(3) 1.015(4) 0.287(7)
C20A C 0.52330(19) 0.92840(28) 0.2974(6)
H14A H 0.5155(17) 0.9190(24) 0.194(5)
C21A C 0.51353(16) 0.87966(23) 0.4111(5)
H15A H 0.4942(17) 0.8306(24) 0.378(5)
S3B S 0.23088(5) 0.61677(4) 0.63389(13)
N9B N 0.15600(19) 0.67163(14) 0.6985(4)
N10B N 0.15507(21) 0.71552(15) 0.8079(4)
N11B N 0.20818(20) 0.73890(14) 0.8949(4)
N12B N 0.24377(18) 0.71161(13) 0.8468(4)
C15B C 0.20984(21) 0.66952(15) 0.7250(4)
C16B C 0.10486(23) 0.63442(17) 0.5801(5)
C17B C 0.04189(28) 0.5974(2) 0.6406(6)
H11B H 0.0324(27) 0.5928(19) 0.730(6)
C18B C -0.0054(3) 0.5585(2) 0.5265(7)
H12B H -0.046(3) 0.533(2) 0.560(6)
C19B C 0.0088(3) 0.5577(2) 0.3560(6)
H13B H -0.015(4) 0.532(3) 0.287(7)
C20B C 0.07160(28) 0.5949(2) 0.2974(6)
H14B H 0.0810(24) 0.5965(17) 0.194(5)
C21B C 0.12034(23) 0.63387(17) 0.4111(5)
H15B H 0.1694(24) 0.6636(17) 0.378(5)
Bi3C Bi 0.3334 0.6667 0.34022(3)
S3C S 0.23088(5) 0.61411(3) 1.13389(13)
S3D S 0.38323(4) 0.76912(5) 1.13389(13)
S3E S 0.38589(3) 0.61677(4) 1.13389(13)
loop_
_geom_bond_atom_site_label_1
_geom_bond_atom_site_label_2
_geom_bond_site_symmetry_1
_geom_bond_site_symmetry_2
Bi1 S1 1_555 1_555
S1 C1 1_555 1_555
N1 N2 1_555 1_555
N2 N3 1_555 1_555
N3 N4 1_555 1_555
N4 Bi1 1_555 1_555
C1 N1 1_555 1_555
C2 N1 1_555 1_555
C3 C2 1_555 1_555
H1 C3 1_555 1_555
C4 C3 1_555 1_555
H2 C4 1_555 1_555
C5 C4 1_555 1_555
H3 C5 1_555 1_555
C6 C5 1_555 1_555
H4 C6 1_555 1_555
C7 C2 1_555 1_555
H5 C7 1_555 1_555
Bi2 S2 1_555 1_555
S2 C8 1_555 1_555
N5 N6 1_555 1_555
N6 N7 1_555 1_555
N7 N8 1_555 1_555
N8 Bi2 1_555 1_555
C8 N5 1_555 1_555
C9 N5 1_555 1_555
C10 C9 1_555 1_555
H6 C10 1_555 1_555
C11 C10 1_555 1_555
H7 C11 1_555 1_555
C12 C11 1_555 1_555
H8 C12 1_555 1_555
C13 C12 1_555 1_555
H9 C13 1_555 1_555
C14 C9 1_555 1_555
H10 C14 1_555 1_555
Bi3 S3 1_555 1_555
S3 C15 1_555 1_555
N9 N10 1_555 1_555
N10 N11 1_555 1_555
N11 N12 1_555 1_555
N12 Bi3 1_555 1_555
C15 N9 1_555 1_555
C16 N9 1_555 1_555
C17 C16 1_555 1_555
H11 C17 1_555 1_555
C18 C17 1_555 1_555
H12 C18 1_555 1_555
C19 C18 1_555 1_555
H13 C19 1_555 1_555
C20 C19 1_555 1_555
H14 C20 1_555 1_555
C21 C16 1_555 1_555
H15 C21 1_555 1_555
S1A Bi1 1_555 1_555
N1A N2A 1_555 1_555
N2A N3A 1_555 1_555
N3A N4A 1_555 1_555
N4A Bi1 1_555 1_555
C1A S1A 1_555 1_555
C2A N1A 1_555 1_555
C3A C2A 1_555 1_555
H1A C3A 1_555 1_555
C4A C3A 1_555 1_555
H2A C4A 1_555 1_555
C5A C4A 1_555 1_555
H3A C5A 1_555 1_555
C6A C5A 1_555 1_555
H4A C6A 1_555 1_555
C7A C2A 1_555 1_555
H5A C7A 1_555 1_555
S1B Bi1 1_555 1_555
N1B N2B 1_555 1_555
N2B N3B 1_555 1_555
N3B N4B 1_555 1_555
N4B Bi1 1_555 1_555
C1B S1B 1_555 1_555
C2B N1B 1_555 1_555
C3B C2B 1_555 1_555
H1B C3B 1_555 1_555
C4B C3B 1_555 1_555
H2B C4B 1_555 1_555
C5B C4B 1_555 1_555
H3B C5B 1_555 1_555
C6B C5B 1_555 1_555
H4B C6B 1_555 1_555
C7B C2B 1_555 1_555
H5B C7B 1_555 1_555
Bi1C S1 1_555 1_555
S1C Bi1 1_555 1_555
S1D Bi1 1_555 1_555
S1E Bi1 1_555 1_555
S2A Bi2 1_555 1_555
N5A N6A 1_555 1_555
N6A N7A 1_555 1_555
N7A N8A 1_555 1_555
N8A Bi2 1_555 1_555
C8A S2A 1_555 1_555
C9A N5A 1_555 1_555
C10A C9A 1_555 1_555
H6A C10A 1_555 1_555
C11A C10A 1_555 1_555
H7A C11A 1_555 1_555
C12A C11A 1_555 1_555
H8A C12A 1_555 1_555
C13A C12A 1_555 1_555
H9A C13A 1_555 1_555
C14A C9A 1_555 1_555
H10A C14A 1_555 1_555
S2B Bi2 1_555 1_555
N5B N6B 1_555 1_555
N6B N7B 1_555 1_555
N7B N8B 1_555 1_555
N8B Bi2 1_555 1_555
C8B S2B 1_555 1_555
C9B N5B 1_555 1_555
C10B C9B 1_555 1_555
H6B C10B 1_555 1_555
C11B C10B 1_555 1_555
H7B C11B 1_555 1_555
C12B C11B 1_555 1_555
H8B C12B 1_555 1_555
C13B C12B 1_555 1_555
H9B C13B 1_555 1_555
C14B C9B 1_555 1_555
H10B C14B 1_555 1_555
Bi2C S2 1_555 1_555
S2C Bi2 1_555 1_555
S2D Bi2 1_555 1_555
S2E Bi2 1_555 1_555
S3A Bi3 1_555 1_555
N9A N10A 1_555 1_555
N10A N11A 1_555 1_555
N11A N12A 1_555 1_555
N12A Bi3 1_555 1_555
C15A S3A 1_555 1_555
C16A N9A 1_555 1_555
C17A C16A 1_555 1_555
H11A C17A 1_555 1_555
C18A C17A 1_555 1_555
H12A C18A 1_555 1_555
C19A C18A 1_555 1_555
H13A C19A 1_555 1_555
C20A C19A 1_555 1_555
H14A C20A 1_555 1_555
C21A C16A 1_555 1_555
H15A C21A 1_555 1_555
S3B Bi3 1_555 1_555
N9B N10B 1_555 1_555
N10B N11B 1_555 1_555
N11B N12B 1_555 1_555
N12B Bi3 1_555 1_555
C15B S3B 1_555 1_555
C16B N9B 1_555 1_555
C17B C16B 1_555 1_555
H11B C17B 1_555 1_555
C18B C17B 1_555 1_555
H12B C18B 1_555 1_555
C19B C18B 1_555 1_555
H13B C19B 1_555 1_555
C20B C19B 1_555 1_555
H14B C20B 1_555 1_555
C21B C16B 1_555 1_555
H15B C21B 1_555 1_555
Bi3C S3 1_555 1_555
S3C Bi3 1_555 1_555
S3D Bi3 1_555 1_555
S3E Bi3 1_555 1_555
N4 C1 1_555 1_555
C6 C7 1_555 1_555
N8 C8 1_555 1_555
C13 C14 1_555 1_555
N12 C15 1_555 1_555
C20 C21 1_555 1_555
S1A Bi1C 1_555 1_555
N1A C1A 1_555 1_555
N4A C1A 1_555 1_555
C6A C7A 1_555 1_555
S1B Bi1C 1_555 1_555
N1B C1B 1_555 1_555
N4B C1B 1_555 1_555
C6B C7B 1_555 1_555
S2A Bi2C 1_555 1_555
N5A C8A 1_555 1_555
N8A C8A 1_555 1_555
C13A C14A 1_555 1_555
S2B Bi2C 1_555 1_555
N5B C8B 1_555 1_555
N8B C8B 1_555 1_555
C13B C14B 1_555 1_555
S3A Bi3C 1_555 1_555
N9A C15A 1_555 1_555
N12A C15A 1_555 1_555
C20A C21A 1_555 1_555
S3B Bi3C 1_555 1_555
N9B C15B 1_555 1_555
N12B C15B 1_555 1_555
C20B C21B 1_555 1_555

#END
