
#######################################################################
#
#                 Cambridge Crystallographic Data Centre
#                                CCDC 
#
#######################################################################
#
# If this CIF has been generated from an entry in the Cambridge 
# Structural Database, then it will include bibliographic, chemical, 
# crystal, experimental, refinement or atomic coordinate data resulting 
# from the CCDC's data processing and validation procedures.
#
#######################################################################

data_YOGMIS
_symmetry_cell_setting           tetragonal
_symmetry_space_group_name_H-M   'I -4 2 d'
_symmetry_Int_Tables_number      122
_space_group_name_Hall           'I -4 2bw'
loop_
_symmetry_equiv_pos_site_id
_symmetry_equiv_pos_as_xyz
1 x,y,z
2 y,-x,-z
3 -x,-y,z
4 -y,x,-z
5 x,1/2-y,1/4-z
6 -x,1/2+y,1/4-z
7 -y,1/2-x,1/4+z
8 y,1/2+x,1/4+z
9 1/2+x,1/2+y,1/2+z
10 1/2+y,1/2-x,1/2-z
11 1/2-x,1/2-y,1/2+z
12 1/2-y,1/2+x,1/2-z
13 1/2+x,-y,3/4-z
14 1/2-x,y,3/4-z
15 1/2-y,-x,3/4+z
16 1/2+y,x,3/4+z
_cell_length_a                   19.586(3)
_cell_length_b                   19.586(3)
_cell_length_c                   24.077(5)
_cell_angle_alpha                90
_cell_angle_beta                 90
_cell_angle_gamma                90
_cell_volume                     9236.21
loop_
_atom_site_label
_atom_site_type_symbol
_atom_site_fract_x
_atom_site_fract_y
_atom_site_fract_z
Zn1 Zn 0.13468(4) 0.2500 0.1250
O1 O 0.1310(2) 0.3574(2) 0.1294(2)
O2 O 0.1372(3) 0.2671(3) 0.0365(2)
O3 O 0.1188(8) 0.1708(5) -0.0004(4)
O4 O 0.1399(4) 0.2497(5) -0.0517(3)
O5 O 0.45467(18) 0.3218(3) 0.0503(2)
O6 O 0.81493(18) 0.3217(2) 0.05131(19)
N1 N 0.1505(6) 0.4677(4) 0.1324(5)
N2 N 0.1309(3) 0.2298(4) -0.0039(3)
N3 N 0.2417(3) 0.2500 0.1250
N4 N 0.4553(3) 0.2500 0.1250
N5 N 0.8129(2) 0.2500 0.1250
N6 N 1.0274(2) 0.2500 0.1250
C1 C 0.1615(4) 0.4081(4) 0.1123(3)
C2 C 0.2125(5) 0.4132(5) 0.0670(4)
H1 H 0.2544 0.3902 0.0775
H2 H 0.1950 0.3923 0.0334
C3 C 0.2254(10) 0.4864(6) 0.0578(6)
H3 H 0.2739 0.4958 0.0560
H4 H 0.2039 0.5020 0.0238
C4 C 0.1946(10) 0.5190(7) 0.1064(6)
H5 H 0.1680 0.5584 0.0953
H6 H 0.2297 0.5337 0.1321
C5 C 0.1068(9) 0.4773(8) 0.1841(6)
H7 H 0.0623 0.4584 0.1778
H8 H 0.1028 0.5252 0.1922
H9 H 0.1279 0.4545 0.2150
C6 C 0.2766(3) 0.2161(3) 0.0856(3)
H10 H 0.2528 0.1925 0.0583
C7 C 0.3482(3) 0.2157(3) 0.0848(3)
H11 H 0.3715 0.1922 0.0571
C8 C 0.3832(3) 0.2500 0.1250
C9 C 0.4884(2) 0.2896(3) 0.0843(2)
C10 C 0.5631(2) 0.2902(3) 0.0858(3)
C11 C 0.6000(3) 0.3285(3) 0.0474(3)
H12 H 0.5769 0.3547 0.0213
C12 C 0.6003(4) 0.2500 0.1250
C13 C 0.6712(2) 0.2500 0.1250
C14 C 0.6708(2) 0.3280(3) 0.0478(2)
H13 H 0.6947 0.3541 0.0221
C15 C 0.7054(2) 0.2899(3) 0.0851(2)
C16 C 0.7813(2) 0.2897(3) 0.0855(3)
C17 C 0.8891(3) 0.2500 0.1250
C18 C 0.9222(2) 0.2037(3) 0.0922(3)
H14 H 0.8993 0.1717 0.0706
C19 C 0.9933(3) 0.2082(3) 0.0938(3)
H15 H 1.0180 0.1792 0.0708
O5D O 0.45467(18) 0.1782(3) 0.1997(2)
O6D O 0.81493(18) 0.1783(2) 0.19869(19)
C6D C 0.2766(3) 0.2839(3) 0.1644(3)
H10D H 0.2528 0.3075 0.1917
C7D C 0.3482(3) 0.2843(3) 0.1652(3)
H11D H 0.3715 0.3078 0.1929
C9D C 0.4884(2) 0.2104(3) 0.1657(2)
C10D C 0.5631(2) 0.2098(3) 0.1642(3)
C11D C 0.6000(3) 0.1715(3) 0.2026(3)
H12D H 0.5769 0.1453 0.2287
C14D C 0.6708(2) 0.1720(3) 0.2022(2)
H13D H 0.6947 0.1459 0.2279
C15D C 0.7054(2) 0.2101(3) 0.1649(2)
C16D C 0.7813(2) 0.2103(3) 0.1645(3)
C18D C 0.9222(2) 0.2963(3) 0.1578(3)
H14D H 0.8993 0.3283 0.1794
C19D C 0.9933(3) 0.2918(3) 0.1562(3)
H15D H 1.0180 0.3208 0.1792
O1D O 0.1310(2) 0.1426(2) 0.1206(2)
O2D O 0.1372(3) 0.2329(3) 0.2135(2)
O3D O 0.1188(8) 0.3292(5) 0.2504(4)
O4D O 0.1399(4) 0.2503(5) 0.3017(3)
N1D N 0.1505(6) 0.0323(4) 0.1176(5)
N2D N 0.1309(3) 0.2702(4) 0.2539(3)
C1D C 0.1615(4) 0.0919(4) 0.1377(3)
C2D C 0.2125(5) 0.0868(5) 0.1830(4)
H1D H 0.2544 0.1098 0.1725
H2D H 0.1950 0.1077 0.2166
C3D C 0.2254(10) 0.0136(6) 0.1922(6)
H3D H 0.2739 0.0042 0.1940
H4D H 0.2039 -0.0020 0.2262
C4D C 0.1946(10) -0.0190(7) 0.1436(6)
H5D H 0.1680 -0.0584 0.1547
H6D H 0.2297 -0.0337 0.1179
C5D C 0.1068(9) 0.0227(8) 0.0659(6)
H7D H 0.0623 0.0416 0.0722
H8D H 0.1028 -0.0252 0.0578
H9D H 0.1279 0.0455 0.0350
Zn1_2 Zn 1.13468(4) 0.2500 0.1250
N6_2 N 0.0274(2) 0.2500 0.1250
loop_
_geom_bond_atom_site_label_1
_geom_bond_atom_site_label_2
_geom_bond_site_symmetry_1
_geom_bond_site_symmetry_2
Zn1 O1 1_555 1_555
O1 C1 1_555 1_555
O2 Zn1 1_555 1_555
O3 N2 1_555 1_555
O4 N2 1_555 1_555
O5 C9 1_555 1_555
O6 C16 1_555 1_555
N1 C1 1_555 1_555
N2 O2 1_555 1_555
N3 Zn1 1_555 1_555
N4 C8 1_555 1_555
N5 C16 1_555 1_555
N6 C19 1_555 1_555
C1 C2 1_555 1_555
C2 H1 1_555 1_555
H2 C2 1_555 1_555
C3 C2 1_555 1_555
H3 C3 1_555 1_555
H4 C3 1_555 1_555
C4 N1 1_555 1_555
H5 C4 1_555 1_555
H6 C4 1_555 1_555
C5 N1 1_555 1_555
H7 C5 1_555 1_555
H8 C5 1_555 1_555
H9 C5 1_555 1_555
C6 N3 1_555 1_555
H10 C6 1_555 1_555
C7 C6 1_555 1_555
H11 C7 1_555 1_555
C8 C7 1_555 1_555
C9 N4 1_555 1_555
C10 C9 1_555 1_555
C11 C10 1_555 1_555
H12 C11 1_555 1_555
C12 C10 1_555 1_555
C13 C12 1_555 1_555
C14 C11 1_555 1_555
H13 C14 1_555 1_555
C15 C13 1_555 1_555
C16 C15 1_555 1_555
C17 N5 1_555 1_555
C18 C17 1_555 1_555
H14 C18 1_555 1_555
C19 C18 1_555 1_555
H15 C19 1_555 1_555
O5D C9D 1_555 1_555
O6D C16D 1_555 1_555
C6D N3 1_555 1_555
H10D C6D 1_555 1_555
C7D C8 1_555 1_555
H11D C7D 1_555 1_555
C9D N4 1_555 1_555
C10D C12 1_555 1_555
C11D C10D 1_555 1_555
H12D C11D 1_555 1_555
C14D C11D 1_555 1_555
H13D C14D 1_555 1_555
C15D C13 1_555 1_555
C16D N5 1_555 1_555
C18D C17 1_555 1_555
H14D C18D 1_555 1_555
C19D N6 1_555 1_555
H15D C19D 1_555 1_555
O1D Zn1 1_555 1_555
O2D Zn1 1_555 1_555
O3D N2D 1_555 1_555
O4D N2D 1_555 1_555
N1D C1D 1_555 1_555
N2D O2D 1_555 1_555
C1D O1D 1_555 1_555
C2D C1D 1_555 1_555
H1D C2D 1_555 1_555
H2D C2D 1_555 1_555
C3D C2D 1_555 1_555
H3D C3D 1_555 1_555
H4D C3D 1_555 1_555
C4D N1D 1_555 1_555
H5D C4D 1_555 1_555
H6D C4D 1_555 1_555
C5D N1D 1_555 1_555
H7D C5D 1_555 1_555
H8D C5D 1_555 1_555
H9D C5D 1_555 1_555
Zn1_2 N6 1_555 1_555
N6_2 Zn1 1_555 1_555
C3 C4 1_555 1_555
C14 C15 1_555 1_555
C6D C7D 1_555 1_555
C9D C10D 1_555 1_555
C14D C15D 1_555 1_555
C15D C16D 1_555 1_555
C18D C19D 1_555 1_555
C3D C4D 1_555 1_555

#END
