
#######################################################################
#
#                 Cambridge Crystallographic Data Centre
#                                CCDC 
#
#######################################################################
#
# If this CIF has been generated from an entry in the Cambridge 
# Structural Database, then it will include bibliographic, chemical, 
# crystal, experimental, refinement or atomic coordinate data resulting 
# from the CCDC's data processing and validation procedures.
#
#######################################################################

data_YOGPIU
_symmetry_cell_setting           monoclinic
_symmetry_space_group_name_H-M   'P c'
_symmetry_Int_Tables_number      7
_space_group_name_Hall           'P -2yc'
loop_
_symmetry_equiv_pos_site_id
_symmetry_equiv_pos_as_xyz
1 x,y,z
2 x,-y,1/2+z
_cell_length_a                   11.275(2)
_cell_length_b                   8.8409(18)
_cell_length_c                   15.945(5)
_cell_angle_alpha                90
_cell_angle_beta                 128.952(19)
_cell_angle_gamma                90
_cell_volume                     1236.05
loop_
_atom_site_label
_atom_site_type_symbol
_atom_site_fract_x
_atom_site_fract_y
_atom_site_fract_z
C1 C 0.1882(5) 0.7663(5) 0.5129(3)
H1 H 0.2786 0.8200 0.5460
C2 C -0.0052(5) 0.6581(5) 0.4826(3)
H2 H -0.0747 0.6229 0.4913
C3 C -0.0144(4) 0.6353(5) 0.3954(3)
H3 H -0.0903 0.5822 0.3334
C4 C 0.1477(4) 0.7098(5) 0.3431(3)
H4 H 0.1663 0.8138 0.3349
H5 H 0.0624 0.6722 0.2726
C5 C 0.2871(5) 0.6161(5) 0.3863(3)
H6 H 0.2714 0.5138 0.3996
H7 H 0.3742 0.6582 0.4544
C6 C 0.3204(4) 0.6122(5) 0.3070(3)
H8 H 0.2344 0.5686 0.2391
H9 H 0.3357 0.7143 0.2932
C7 C 0.4612(5) 0.5191(5) 0.3535(3)
H10 H 0.5443 0.5585 0.4241
H11 H 0.4423 0.4158 0.3628
C8 C 0.5327(5) 0.6402(4) 0.2465(4)
H12 H 0.5178 0.7414 0.2537
C9 C 0.5427(4) 0.3962(4) 0.2563(3)
H13 H 0.5343 0.2973 0.2720
C10 C 0.5828(5) 0.5866(4) 0.1954(4)
H14 H 0.6089 0.6451 0.1607
C11 C -0.2696(5) 0.9688(4) 1.1642(4)
H15 H -0.2859 0.9424 1.2127
C12 C -0.2358(4) 0.8708(5) 1.1164(4)
H16 H -0.2236 0.7665 1.1261
C13 C -0.2471(5) 1.0996(5) 1.0627(4)
H17 H -0.2437 1.1812 1.0274
C14 C -0.1953(5) 0.9054(8) 0.9775(4)
H18 H -0.2072 0.9906 0.9344
H19 H -0.2717 0.8307 0.9288
C15 C -0.0419(4) 0.8386(5) 1.0330(3)
H20 H -0.0393 0.7371 1.0572
H21 H 0.0340 0.8989 1.0957
C16 C -0.0049(5) 0.8332(6) 0.9559(4)
H22 H -0.0839 0.7768 0.8919
H23 H -0.0046 0.9353 0.9338
C17 C 0.1460(5) 0.7612(6) 1.0061(4)
H24 H 0.2182 0.7926 1.0809
H25 H 0.1355 0.6522 1.0048
C18 C 0.1401(5) 0.7767(6) 0.8459(3)
H26 H 0.0481 0.7264 0.7970
C19 C 0.3478(4) 0.8952(5) 0.9165(3)
H27 H 0.4285 0.9423 0.9250
C20 C 0.3360(5) 0.8793(5) 0.9945(3)
H28 H 0.4041 0.9141 1.0651
Cl1 Cl 0.42003(11) 0.97957(10) 0.74234(7)
Cl2 Cl 0.82420(11) 0.46946(10) 0.12800(8)
Cu1 Cu 0.20103(4) 0.81499(6) 0.69475(3)
Cu2 Cu 0.67866(5) 0.30176(6) 0.16054(4)
N1 N 0.1227(4) 0.7416(4) 0.5569(3)
N2 N 0.1089(3) 0.7048(4) 0.4150(2)
N3 N 0.5077(3) 0.5186(3) 0.2863(3)
N4 N 0.5899(3) 0.4323(4) 0.2021(3)
N5 N -0.2759(4) 1.1110(4) 1.1300(3)
N6 N -0.2234(4) 0.9570(4) 1.0511(3)
N7 N 0.2050(4) 0.8023(4) 0.9500(3)
N8 N 0.2245(4) 0.8325(4) 0.8228(2)
Cu2_2 Cu -0.32134(5) 1.30176(6) 1.16054(4)
N5_2 N 0.7241(4) 0.1110(4) 0.1300(3)
loop_
_geom_bond_atom_site_label_1
_geom_bond_atom_site_label_2
_geom_bond_site_symmetry_1
_geom_bond_site_symmetry_2
C1 H1 1_555 1_555
C2 H2 1_555 1_555
C3 C2 1_555 1_555
H3 C3 1_555 1_555
C4 H4 1_555 1_555
H5 C4 1_555 1_555
C5 C4 1_555 1_555
H6 C5 1_555 1_555
H7 C5 1_555 1_555
C6 C5 1_555 1_555
H8 C6 1_555 1_555
H9 C6 1_555 1_555
C7 C6 1_555 1_555
H10 C7 1_555 1_555
H11 C7 1_555 1_555
C8 H12 1_555 1_555
C9 H13 1_555 1_555
C10 C8 1_555 1_555
H14 C10 1_555 1_555
C11 H15 1_555 1_555
C12 C11 1_555 1_555
H16 C12 1_555 1_555
C13 H17 1_555 1_555
C14 H18 1_555 1_555
H19 C14 1_555 1_555
C15 C14 1_555 1_555
H20 C15 1_555 1_555
H21 C15 1_555 1_555
C16 C15 1_555 1_555
H22 C16 1_555 1_555
H23 C16 1_555 1_555
C17 C16 1_555 1_555
H24 C17 1_555 1_555
H25 C17 1_555 1_555
C18 H26 1_555 1_555
C19 H27 1_555 1_555
C20 C19 1_555 1_555
H28 C20 1_555 1_555
Cl1 Cu1 1_555 1_555
Cl2 Cu2 1_555 1_555
Cu1 N1 1_555 1_555
Cu2 N4 1_555 1_555
N1 C1 1_555 1_555
N2 C1 1_555 1_555
N3 C7 1_555 1_555
N4 C9 1_555 1_555
N5 C11 1_555 1_555
N6 C12 1_555 1_555
N7 C17 1_555 1_555
N8 C18 1_555 1_555
Cu2_2 N5 1_555 1_555
N5_2 Cu2 1_555 1_555
C2 N1 1_555 1_555
C3 N2 1_555 1_555
C4 N2 1_555 1_555
C8 N3 1_555 1_555
C9 N3 1_555 1_555
C10 N4 1_555 1_555
C13 N5 1_555 1_555
C13 N6 1_555 1_555
C14 N6 1_555 1_555
C18 N7 1_555 1_555
C19 N8 1_555 1_555
C20 N7 1_555 1_555
Cu1 N8 1_555 1_555

#END
