
#######################################################################
#
#                 Cambridge Crystallographic Data Centre
#                                CCDC 
#
#######################################################################
#
# If this CIF has been generated from an entry in the Cambridge 
# Structural Database, then it will include bibliographic, chemical, 
# crystal, experimental, refinement or atomic coordinate data resulting 
# from the CCDC's data processing and validation procedures.
#
#######################################################################

data_YOGPUG
_symmetry_cell_setting           monoclinic
_symmetry_space_group_name_H-M   'P 21/c'
_symmetry_Int_Tables_number      14
_space_group_name_Hall           '-P 2ybc'
loop_
_symmetry_equiv_pos_site_id
_symmetry_equiv_pos_as_xyz
1 x,y,z
2 -x,1/2+y,1/2-z
3 -x,-y,-z
4 x,1/2-y,1/2+z
_cell_length_a                   10.908(2)
_cell_length_b                   12.664(3)
_cell_length_c                   15.038(3)
_cell_angle_alpha                90
_cell_angle_beta                 100.02(3)
_cell_angle_gamma                90
_cell_volume                     2045.65
loop_
_atom_site_label
_atom_site_type_symbol
_atom_site_fract_x
_atom_site_fract_y
_atom_site_fract_z
C1 C 0.2170(3) -0.0375(3) 0.2574(2)
C2 C 0.3514(3) -0.0458(3) 0.2495(2)
C3 C 0.3921(3) -0.1274(3) 0.2014(2)
H1 H 0.3361 -0.1785 0.1749
C4 C 0.5158(4) -0.1335(4) 0.1923(3)
H2 H 0.5429 -0.1893 0.1605
C5 C 0.5993(4) -0.0576(4) 0.2302(3)
H3 H 0.6821 -0.0614 0.2230
C6 C 0.5599(3) 0.0230(4) 0.2783(3)
H4 H 0.6165 0.0738 0.3044
C7 C 0.4362(3) 0.0300(3) 0.2887(2)
H5 H 0.4101 0.0851 0.3217
C8 C -0.8885(3) 0.3667(3) 0.0992(2)
H6 H -0.9027 0.4117 0.0497
C9 C -0.8836(3) 0.3010(3) 0.2315(3)
H7 H -0.8950 0.2924 0.2910
C10 C -0.8275(3) 0.2312(3) 0.1845(3)
H8 H -0.7923 0.1669 0.2052
C11 C -0.7870(3) 0.2234(3) 0.0235(3)
H9 H -0.8308 0.2535 -0.0324
H10 H -0.8058 0.1485 0.0230
C12 C -0.1410(3) 0.1709(3) 0.1636(2)
H11 H -0.1564 0.2123 0.2115
C13 C -0.0785(3) 0.0453(3) 0.0864(2)
H12 H -0.0414 -0.0169 0.0717
C14 C -0.1384(3) 0.1157(3) 0.0258(2)
H13 H -0.1509 0.1107 -0.0368
C15 C -0.2544(3) 0.2862(3) 0.0425(2)
H14 H -0.2393 0.3043 -0.0173
H15 H -0.2306 0.3464 0.0817
C16 C -0.3926(3) 0.2650(3) 0.0378(2)
C17 C -0.4395(3) 0.1694(3) 0.0596(2)
H16 H -0.3854 0.1136 0.0775
C18 C -0.5671(3) 0.1553(3) 0.0550(3)
H17 H -0.5976 0.0904 0.0702
C19 C -0.6488(3) 0.2378(3) 0.0279(2)
C20 C -0.6011(3) 0.3325(3) 0.0057(3)
H18 H -0.6552 0.3881 -0.0131
C21 C -0.4745(3) 0.3474(3) 0.0107(3)
H19 H -0.4443 0.4125 -0.0040
Cl1 Cl -0.05970(7) 0.14095(7) 0.38880(5)
Co1 Co 0.00346(4) 0.02101(4) 0.29219(3)
N1 N -0.9216(2) 0.3870(2) 0.17805(19)
N2 N -0.8322(2) 0.2733(2) 0.1001(2)
N3 N -0.0808(2) 0.0796(2) 0.17276(17)
N4 N -0.1769(2) 0.1958(2) 0.07638(17)
O1 O 0.13550(19) -0.0880(2) 0.20673(16)
O2 O 0.18874(18) 0.02574(19) 0.31800(15)
Co1A Co -1.00346(4) 0.52101(4) 0.20781(3)
N1A N -0.0784(2) -0.1130(2) 0.32195(19)
loop_
_geom_bond_atom_site_label_1
_geom_bond_atom_site_label_2
_geom_bond_site_symmetry_1
_geom_bond_site_symmetry_2
C1 C2 1_555 1_555
C2 C3 1_555 1_555
C3 H1 1_555 1_555
C4 C3 1_555 1_555
H2 C4 1_555 1_555
C5 C4 1_555 1_555
H3 C5 1_555 1_555
C6 C5 1_555 1_555
H4 C6 1_555 1_555
C7 C2 1_555 1_555
H5 C7 1_555 1_555
C8 H6 1_555 1_555
C9 H7 1_555 1_555
C10 C9 1_555 1_555
H8 C10 1_555 1_555
C11 H9 1_555 1_555
H10 C11 1_555 1_555
C12 H11 1_555 1_555
C13 H12 1_555 1_555
C14 C13 1_555 1_555
H13 C14 1_555 1_555
C15 H14 1_555 1_555
H15 C15 1_555 1_555
C16 C15 1_555 1_555
C17 C16 1_555 1_555
H16 C17 1_555 1_555
C18 C17 1_555 1_555
H17 C18 1_555 1_555
C19 C11 1_555 1_555
C20 C19 1_555 1_555
H18 C20 1_555 1_555
C21 C16 1_555 1_555
H19 C21 1_555 1_555
Cl1 Co1 1_555 1_555
Co1 N3 1_555 1_555
N1 C8 1_555 1_555
N2 C8 1_555 1_555
N3 C12 1_555 1_555
N4 C12 1_555 1_555
O1 C1 1_555 1_555
O2 C1 1_555 1_555
Co1A N1 1_555 1_555
N1A Co1 1_555 1_555
C6 C7 1_555 1_555
C9 N1 1_555 1_555
C10 N2 1_555 1_555
C11 N2 1_555 1_555
C13 N3 1_555 1_555
C14 N4 1_555 1_555
C15 N4 1_555 1_555
C18 C19 1_555 1_555
C20 C21 1_555 1_555
Co1 O2 1_555 1_555

#END
