
#######################################################################
#
#                 Cambridge Crystallographic Data Centre
#                                CCDC 
#
#######################################################################
#
# If this CIF has been generated from an entry in the Cambridge 
# Structural Database, then it will include bibliographic, chemical, 
# crystal, experimental, refinement or atomic coordinate data resulting 
# from the CCDC's data processing and validation procedures.
#
#######################################################################

data_YOGPOA
_symmetry_cell_setting           monoclinic
_symmetry_space_group_name_H-M   'P 21/c'
_symmetry_Int_Tables_number      14
_space_group_name_Hall           '-P 2ybc'
loop_
_symmetry_equiv_pos_site_id
_symmetry_equiv_pos_as_xyz
1 x,y,z
2 -x,1/2+y,1/2-z
3 -x,-y,-z
4 x,1/2-y,1/2+z
_cell_length_a                   18.399(4)
_cell_length_b                   15.088(3)
_cell_length_c                   24.678(8)
_cell_angle_alpha                90
_cell_angle_beta                 132.003(18)
_cell_angle_gamma                90
_cell_volume                     5090.83
loop_
_atom_site_label
_atom_site_type_symbol
_atom_site_fract_x
_atom_site_fract_y
_atom_site_fract_z
Co1 Co 0.34304(3) 0.12735(3) 0.28176(2)
O1 O 0.48361(18) 0.09741(14) 0.37311(13)
O2 O 0.47700(18) 0.20367(15) 0.30938(13)
O3 O 0.9372(2) 0.1405(2) 0.55091(15)
O4 O 0.3249(2) 0.07724(16) 0.19663(14)
O5 O 0.1862(2) 0.13106(17) 0.15766(14)
O6 O 0.0346(2) -0.0486(2) -0.13360(14)
N1 N 0.2868(2) 0.03032(16) 0.30353(14)
N2 N 0.1913(2) -0.07423(16) 0.28814(15)
N3 N -0.2928(2) -0.25948(16) 0.20745(15)
N4 N -0.1861(2) -0.16296(18) 0.23051(17)
C1 C 0.5246(3) 0.14942(19) 0.36112(18)
C2 C 0.6340(3) 0.1453(2) 0.40984(17)
C3 C 0.6822(3) 0.2022(2) 0.3993(2)
H1 H 0.6460 0.2409 0.3599
C4 C 0.7827(3) 0.2031(3) 0.4456(2)
H2 H 0.8134 0.2434 0.4381
C5 C 0.8380(3) 0.1444(2) 0.50325(19)
C6 C 0.7906(3) 0.0847(2) 0.51369(19)
H3 H 0.8267 0.0438 0.5516
C7 C 0.6900(3) 0.0863(2) 0.46775(18)
H4 H 0.6591 0.0470 0.4757
C8 C 0.9865(3) 0.2071(3) 0.5446(2)
H5 H 0.9689 0.2646 0.5493
H6 H 0.9678 0.2023 0.4979
H7 H 1.0559 0.1991 0.5825
C9 C 0.2341(3) 0.0928(2) 0.1456(2)
C10 C 0.1835(3) 0.0596(2) 0.07076(18)
C11 C 0.0858(3) 0.0732(3) 0.0146(2)
H8 H 0.0512 0.1070 0.0224
C12 C 0.0374(3) 0.0377(3) -0.0536(2)
H9 H -0.0292 0.0479 -0.0915
C13 C 0.0890(3) -0.0134(3) -0.06515(19)
C14 C 0.1872(3) -0.0257(3) -0.0099(2)
H10 H 0.2222 -0.0582 -0.0179
C15 C 0.2348(3) 0.0106(3) 0.05846(19)
H11 H 0.3017 0.0019 0.0962
C16 C 0.0846(3) -0.1036(3) -0.1468(2)
H12 H 0.1163 -0.1513 -0.1122
H13 H 0.1326 -0.0690 -0.1417
H14 H 0.0385 -0.1273 -0.1953
C17 C 0.1982(3) -0.0029(2) 0.25911(19)
H15 H 0.1465 0.0199 0.2132
C18 C 0.3397(3) -0.0215(2) 0.36528(18)
H16 H 0.4053 -0.0136 0.4067
C19 C 0.2812(3) -0.0856(2) 0.35612(19)
H17 H 0.2987 -0.1292 0.3897
C20 C 0.1033(3) -0.1275(2) 0.2534(2)
H18 H 0.1216 -0.1894 0.2656
H19 H 0.0600 -0.1216 0.2008
C21 C 0.0500(3) -0.0999(2) 0.2770(2)
H20 H 0.0370 -0.0367 0.2687
H21 H 0.0917 -0.1103 0.3290
C22 C -0.0456(3) -0.1482(2) 0.2376(2)
H22 H -0.0891 -0.1363 0.1858
H23 H -0.0337 -0.2115 0.2449
C23 C -0.0930(3) -0.1185(3) 0.2660(2)
H24 H -0.0485 -0.1298 0.3180
H25 H -0.1041 -0.0550 0.2587
C24 C -0.1993(3) -0.2400(2) 0.24925(19)
H26 H -0.1487 -0.2756 0.2872
C25 C -0.3404(3) -0.1907(2) 0.1606(2)
H27 H -0.4079 -0.1850 0.1241
C26 C -0.2743(3) -0.1318(3) 0.1752(3)
H28 H -0.2881 -0.0787 0.1507
Co1A Co -0.34304(3) -0.37265(3) 0.21824(2)
N3A N 0.2928(2) 0.24052(16) 0.29255(15)
Co2 Co 0.18186(3) 0.63413(3) 0.23175(2)
O7 O 0.05169(17) 0.63080(15) 0.20441(12)
O8 O 0.03304(19) 0.68664(15) 0.11351(14)
O9 O 0.2595(2) 0.70886(15) 0.36457(14)
O10 O 0.28098(18) 0.58250(13) 0.33267(12)
O11 O -0.4028(2) 0.72840(18) -0.01818(14)
O12 O 0.49227(19) 0.50741(15) 0.66439(12)
N5 N 0.1886(2) 0.53749(17) 0.17731(14)
N6 N 0.2526(2) 0.42926(17) 0.16038(16)
N7 N 0.7534(2) 0.24349(16) 0.26750(15)
N8 N 0.6395(2) 0.33905(18) 0.23396(18)
C27 C -0.0026(3) 0.6648(2) 0.14053(19)
C28 C -0.1080(3) 0.67932(19) 0.09950(17)
C29 C -0.1532(3) 0.6414(2) 0.12162(18)
H29 H -0.1168 0.6056 0.1629
C30 C -0.2513(3) 0.6554(2) 0.08373(19)
H30 H -0.2802 0.6285 0.0992
C31 C -0.3062(3) 0.7096(2) 0.02280(19)
C32 C -0.2606(3) 0.7492(2) 0.0012(2)
H31 H -0.2963 0.7868 -0.0390
C33 C -0.1640(3) 0.7336(2) 0.03822(19)
H32 H -0.1354 0.7596 0.0222
C34 C -0.4532(3) 0.6822(3) -0.0011(2)
H33 H -0.4232 0.6955 0.0481
H34 H -0.4498 0.6196 -0.0060
H35 H -0.5204 0.7006 -0.0340
C35 C 0.2952(3) 0.6335(2) 0.37987(18)
C36 C 0.3548(3) 0.5995(2) 0.45664(18)
C37 C 0.3726(3) 0.6535(2) 0.50982(18)
H36 H 0.3521 0.7123 0.4990
C38 C 0.4209(3) 0.6205(2) 0.57905(18)
H37 H 0.4336 0.6578 0.6146
C39 C 0.4502(3) 0.5334(2) 0.59576(18)
C40 C 0.4357(4) 0.4803(3) 0.5450(2)
H38 H 0.4562 0.4215 0.5559
C41 C 0.3898(4) 0.5144(3) 0.4762(2)
H39 H 0.3827 0.4782 0.4424
C42 C 0.5040(4) 0.4141(2) 0.6792(2)
H40 H 0.5542 0.3917 0.6807
H41 H 0.4435 0.3844 0.6414
H42 H 0.5222 0.4039 0.7253
C43 C 0.1277(3) 0.5189(2) 0.10430(19)
H43 H 0.0687 0.5472 0.0678
C44 C 0.1668(3) 0.4527(2) 0.0934(2)
H44 H 0.1402 0.4282 0.0488
C45 C 0.2628(3) 0.4822(2) 0.20859(19)
H45 H 0.3162 0.4803 0.2585
C46 C 0.3253(3) 0.3649(2) 0.1783(2)
H46 H 0.2921 0.3121 0.1489
H47 H 0.3663 0.3479 0.2291
C47 C 0.3889(3) 0.4018(2) 0.1652(2)
H48 H 0.4074 0.4621 0.1834
H49 H 0.3517 0.4034 0.1132
C48 C 0.4806(3) 0.3467(2) 0.2025(2)
H50 H 0.5175 0.3445 0.2545
H51 H 0.4621 0.2865 0.1839
C49 C 0.5443(3) 0.3841(2) 0.1901(2)
H52 H 0.5105 0.3786 0.1389
H53 H 0.5549 0.4466 0.2022
C50 C 0.6620(3) 0.2685(2) 0.2148(2)
H54 H 0.6184 0.2404 0.1698
C51 C 0.7916(3) 0.3026(2) 0.3235(2)
H55 H 0.8556 0.3024 0.3682
C52 C 0.7215(3) 0.3609(2) 0.3031(2)
H56 H 0.7280 0.4072 0.3310
Co2A Co 0.81814(3) 0.13413(3) 0.26825(2)
N7A N 0.2466(2) 0.74349(16) 0.23250(15)
loop_
_geom_bond_atom_site_label_1
_geom_bond_atom_site_label_2
_geom_bond_site_symmetry_1
_geom_bond_site_symmetry_2
Co1 O1 1_555 1_555
O1 C1 1_555 1_555
O2 Co1 1_555 1_555
O3 C5 1_555 1_555
O4 Co1 1_555 1_555
O5 C9 1_555 1_555
O6 C13 1_555 1_555
N1 Co1 1_555 1_555
N2 C17 1_555 1_555
N3 C24 1_555 1_555
N4 C23 1_555 1_555
C1 O2 1_555 1_555
C2 C1 1_555 1_555
C3 C2 1_555 1_555
H1 C3 1_555 1_555
C4 C3 1_555 1_555
H2 C4 1_555 1_555
C5 C4 1_555 1_555
C6 C5 1_555 1_555
H3 C6 1_555 1_555
C7 C2 1_555 1_555
H4 C7 1_555 1_555
C8 O3 1_555 1_555
H5 C8 1_555 1_555
H6 C8 1_555 1_555
H7 C8 1_555 1_555
C9 O4 1_555 1_555
C10 C9 1_555 1_555
C11 C10 1_555 1_555
H8 C11 1_555 1_555
C12 C11 1_555 1_555
H9 C12 1_555 1_555
C13 C12 1_555 1_555
C14 C13 1_555 1_555
H10 C14 1_555 1_555
C15 C10 1_555 1_555
H11 C15 1_555 1_555
C16 O6 1_555 1_555
H12 C16 1_555 1_555
H13 C16 1_555 1_555
H14 C16 1_555 1_555
C17 N1 1_555 1_555
H15 C17 1_555 1_555
C18 N1 1_555 1_555
H16 C18 1_555 1_555
C19 N2 1_555 1_555
H17 C19 1_555 1_555
C20 N2 1_555 1_555
H18 C20 1_555 1_555
H19 C20 1_555 1_555
C21 C20 1_555 1_555
H20 C21 1_555 1_555
H21 C21 1_555 1_555
C22 C21 1_555 1_555
H22 C22 1_555 1_555
H23 C22 1_555 1_555
C23 C22 1_555 1_555
H24 C23 1_555 1_555
H25 C23 1_555 1_555
C24 N4 1_555 1_555
H26 C24 1_555 1_555
C25 N3 1_555 1_555
H27 C25 1_555 1_555
C26 N4 1_555 1_555
H28 C26 1_555 1_555
Co2 O7 1_555 1_555
O7 C27 1_555 1_555
O8 C27 1_555 1_555
O9 C35 1_555 1_555
O10 Co2 1_555 1_555
O11 C31 1_555 1_555
O12 C39 1_555 1_555
N5 Co2 1_555 1_555
N6 C44 1_555 1_555
N7 C50 1_555 1_555
N8 C49 1_555 1_555
C27 C28 1_555 1_555
C28 C29 1_555 1_555
C29 H29 1_555 1_555
C30 C29 1_555 1_555
H30 C30 1_555 1_555
C31 C30 1_555 1_555
C32 C31 1_555 1_555
H31 C32 1_555 1_555
C33 C28 1_555 1_555
H32 C33 1_555 1_555
C34 O11 1_555 1_555
H33 C34 1_555 1_555
H34 C34 1_555 1_555
H35 C34 1_555 1_555
C35 O10 1_555 1_555
C36 C35 1_555 1_555
C37 C36 1_555 1_555
H36 C37 1_555 1_555
C38 C37 1_555 1_555
H37 C38 1_555 1_555
C39 C38 1_555 1_555
C40 C39 1_555 1_555
H38 C40 1_555 1_555
C41 C36 1_555 1_555
H39 C41 1_555 1_555
C42 O12 1_555 1_555
H40 C42 1_555 1_555
H41 C42 1_555 1_555
H42 C42 1_555 1_555
C43 N5 1_555 1_555
H43 C43 1_555 1_555
C44 C43 1_555 1_555
H44 C44 1_555 1_555
C45 N5 1_555 1_555
H45 C45 1_555 1_555
C46 N6 1_555 1_555
H46 C46 1_555 1_555
H47 C46 1_555 1_555
C47 C46 1_555 1_555
H48 C47 1_555 1_555
H49 C47 1_555 1_555
C48 C47 1_555 1_555
H50 C48 1_555 1_555
H51 C48 1_555 1_555
C49 C48 1_555 1_555
H52 C49 1_555 1_555
H53 C49 1_555 1_555
C50 N8 1_555 1_555
H54 C50 1_555 1_555
C51 N7 1_555 1_555
H55 C51 1_555 1_555
C52 N8 1_555 1_555
H56 C52 1_555 1_555
Co1A N3 1_555 1_555
N3A Co1 1_555 1_555
Co2A N7 1_555 1_555
N7A Co2 1_555 1_555
C6 C7 1_555 1_555
C14 C15 1_555 1_555
C18 C19 1_555 1_555
C25 C26 1_555 1_555
N6 C45 1_555 1_555
C32 C33 1_555 1_555
C40 C41 1_555 1_555
C51 C52 1_555 1_555

#END
