
#######################################################################
#
#                 Cambridge Crystallographic Data Centre
#                                CCDC 
#
#######################################################################
#
# If this CIF has been generated from an entry in the Cambridge 
# Structural Database, then it will include bibliographic, chemical, 
# crystal, experimental, refinement or atomic coordinate data resulting 
# from the CCDC's data processing and validation procedures.
#
#######################################################################

data_YOGQOB
_symmetry_cell_setting           monoclinic
_symmetry_space_group_name_H-M   'C 2/c'
_symmetry_Int_Tables_number      15
_space_group_name_Hall           '-C 2yn'
loop_
_symmetry_equiv_pos_site_id
_symmetry_equiv_pos_as_xyz
1 x,y,z
2 1/2+x,1/2+y,z
3 -x,y,1/2-z
4 1/2-x,1/2+y,1/2-z
5 -x,-y,-z
6 1/2-x,1/2-y,-z
7 x,-y,1/2+z
8 1/2+x,1/2-y,1/2+z
_cell_length_a                   21.308(4)
_cell_length_b                   6.7964(14)
_cell_length_c                   16.577(3)
_cell_angle_alpha                90
_cell_angle_beta                 96.71(3)
_cell_angle_gamma                90
_cell_volume                     2384.2
loop_
_atom_site_label
_atom_site_type_symbol
_atom_site_fract_x
_atom_site_fract_y
_atom_site_fract_z
C1 C 0.09305(14) 0.5127(4) 0.22888(18)
C2 C 0.14130(13) 0.3770(4) 0.19953(17)
C3 C 0.14630(15) 0.1870(4) 0.22842(18)
H1 H 0.1225 0.1475 0.2691
C4 C 0.18664(15) 0.0538(4) 0.19716(19)
H2 H 0.1893 -0.0751 0.2161
C5 C 0.22221(14) 0.1136(4) 0.13861(18)
C6 C 0.21945(13) 0.3042(5) 0.10998(17)
H3 H 0.2445 0.3442 0.0707
C7 C 0.17838(14) 0.4353(4) 0.14107(18)
H4 H 0.1759 0.5642 0.1222
C8 C 0.02322(14) 1.0659(4) 0.36745(17)
H5 H -0.0140 1.1299 0.3476
C9 C 0.11132(15) 0.9995(5) 0.44090(19)
H6 H 0.1461 1.0051 0.4803
C10 C 0.09973(15) 0.8617(5) 0.38318(19)
H7 H 0.1258 0.7550 0.3758
C11 C 0.06067(17) 1.3110(5) 0.4788(2)
H8 H 0.0744 1.2805 0.5353
H9 H 0.0908 1.4036 0.4608
C12 C -0.00050(16) 1.4061(4) 0.47388(19)
H10 H -0.0310 1.3145 0.4916
H11 H -0.0142 1.4398 0.4177
Cl1 Cl 0.27089(4) -0.05579(12) 0.09602(5)
N1 N 0.04334(10) 0.9018(3) 0.33635(13)
N2 N 0.06262(12) 1.1293(3) 0.43086(14)
Ni1 Ni 0.0000 0.71940(7) 0.2500
O1 O 0.07867(9) 0.6701(3) 0.18865(11)
O2 O 0.06488(9) 0.4693(3) 0.28869(12)
C1B C -0.09305(14) 0.5127(4) 0.27112(18)
C2B C -0.14130(13) 0.3770(4) 0.30047(17)
C3B C -0.14630(15) 0.1870(4) 0.27158(18)
H1B H -0.1225 0.1475 0.2309
C4B C -0.18664(15) 0.0538(4) 0.30284(19)
H2B H -0.1893 -0.0751 0.2839
C5B C -0.22221(14) 0.1136(4) 0.36139(18)
C6B C -0.21945(13) 0.3042(5) 0.39002(17)
H3B H -0.2445 0.3442 0.4293
C7B C -0.17838(14) 0.4353(4) 0.35893(18)
H4B H -0.1759 0.5642 0.3778
C8D C -0.02322(14) 1.9341(4) 0.63255(17)
H5D H 0.0140 1.8701 0.6524
C9D C -0.11132(15) 2.0005(5) 0.55910(19)
H6D H -0.1461 1.9949 0.5197
C10D C -0.09973(15) 2.1383(5) 0.61682(19)
H7D H -0.1258 2.2450 0.6242
C11D C -0.06067(17) 1.6890(5) 0.5212(2)
H8D H -0.0744 1.7195 0.4647
H9D H -0.0908 1.5964 0.5392
C12D C 0.00050(16) 1.5939(4) 0.52612(19)
H10D H 0.0310 1.6855 0.5084
H11D H 0.0142 1.5602 0.5823
Cl1B Cl -0.27089(4) -0.05579(12) 0.40398(5)
N1D N -0.04334(10) 2.0982(3) 0.66365(13)
N1B N -0.04334(10) 0.9018(3) 0.16365(13)
N2D N -0.06262(12) 1.8707(3) 0.56914(14)
Ni1F Ni 0.0000 2.28060(7) 0.7500
O1B O -0.07867(9) 0.6701(3) 0.31135(11)
O2B O -0.06488(9) 0.4693(3) 0.21131(12)
loop_
_geom_bond_atom_site_label_1
_geom_bond_atom_site_label_2
_geom_bond_site_symmetry_1
_geom_bond_site_symmetry_2
C1 C2 1_555 1_555
C2 C3 1_555 1_555
C3 H1 1_555 1_555
C4 C3 1_555 1_555
H2 C4 1_555 1_555
C5 C4 1_555 1_555
C6 C5 1_555 1_555
H3 C6 1_555 1_555
C7 C2 1_555 1_555
H4 C7 1_555 1_555
C8 H5 1_555 1_555
C9 H6 1_555 1_555
C10 C9 1_555 1_555
H7 C10 1_555 1_555
C11 H8 1_555 1_555
H9 C11 1_555 1_555
C12 C11 1_555 1_555
H10 C12 1_555 1_555
H11 C12 1_555 1_555
Cl1 C5 1_555 1_555
N1 C8 1_555 1_555
N2 C8 1_555 1_555
Ni1 N1 1_555 1_555
O1 C1 1_555 1_555
O2 C1 1_555 1_555
C1B C2B 1_555 1_555
C2B C3B 1_555 1_555
C3B H1B 1_555 1_555
C4B C3B 1_555 1_555
H2B C4B 1_555 1_555
C5B C4B 1_555 1_555
C6B C5B 1_555 1_555
H3B C6B 1_555 1_555
C7B C2B 1_555 1_555
H4B C7B 1_555 1_555
C8D H5D 1_555 1_555
C9D H6D 1_555 1_555
C10D C9D 1_555 1_555
H7D C10D 1_555 1_555
C11D H8D 1_555 1_555
H9D C11D 1_555 1_555
C12D C12 1_555 1_555
H10D C12D 1_555 1_555
H11D C12D 1_555 1_555
Cl1B C5B 1_555 1_555
N1D C8D 1_555 1_555
N1B Ni1 1_555 1_555
N2D C8D 1_555 1_555
Ni1F N1D 1_555 1_555
O1B Ni1 1_555 1_555
O2B Ni1 1_555 1_555
C6 C7 1_555 1_555
C9 N2 1_555 1_555
C10 N1 1_555 1_555
C11 N2 1_555 1_555
Ni1 O1 1_555 1_555
Ni1 O2 1_555 1_555
C1B O1B 1_555 1_555
C1B O2B 1_555 1_555
C6B C7B 1_555 1_555
C9D N2D 1_555 1_555
C10D N1D 1_555 1_555
C11D C12D 1_555 1_555
C11D N2D 1_555 1_555

#END
