
#######################################################################
#
#                 Cambridge Crystallographic Data Centre
#                                CCDC 
#
#######################################################################
#
# If this CIF has been generated from an entry in the Cambridge 
# Structural Database, then it will include bibliographic, chemical, 
# crystal, experimental, refinement or atomic coordinate data resulting 
# from the CCDC's data processing and validation procedures.
#
#######################################################################

data_YOGQUH
_symmetry_cell_setting           triclinic
_symmetry_space_group_name_H-M   'P -1'
_symmetry_Int_Tables_number      2
_space_group_name_Hall           '-P 1'
loop_
_symmetry_equiv_pos_site_id
_symmetry_equiv_pos_as_xyz
1 x,y,z
2 -x,-y,-z
_cell_length_a                   10.228(2)
_cell_length_b                   12.029(2)
_cell_length_c                   12.062(2)
_cell_angle_alpha                70.60(3)
_cell_angle_beta                 85.77(3)
_cell_angle_gamma                76.54(3)
_cell_volume                     1361.3
loop_
_atom_site_label
_atom_site_type_symbol
_atom_site_fract_x
_atom_site_fract_y
_atom_site_fract_z
Tb1 Tb -0.328210(9) -0.148610(9) -0.442420(9)
O1 O -0.18623(13) -0.24968(13) -0.26580(13)
O2 O -0.11790(14) -0.10729(15) -0.40926(14)
O3 O 0.32948(15) -0.02480(14) -0.40306(15)
O4 O 0.48648(14) -0.19252(14) -0.32842(14)
O5 O 0.3414(2) -0.4585(3) 0.0474(2)
O6 O 0.13954(18) -0.47913(18) 0.06845(16)
O7 O -0.38634(16) 0.00103(14) -0.35589(15)
O8 O -0.54810(16) 0.16773(14) -0.41061(14)
O9 O -0.7497(3) 0.3215(3) -0.0753(2)
O10 O -0.6323(2) 0.2491(2) 0.08816(17)
O11 O -0.1899(3) 0.0079(3) 0.1151(2)
O12 O -0.1092(3) -0.0674(3) -0.0199(2)
N1 N 0.2263(2) -0.4314(2) 0.01299(18)
N2 N -0.1968(3) -0.0041(2) 0.0207(2)
N3 N -0.1544(2) -0.24437(17) -0.56381(18)
N4 N -0.31265(19) -0.37417(16) -0.40864(17)
C1 C 0.03386(19) -0.21797(17) -0.25155(18)
C2 C 0.13206(19) -0.15961(17) -0.31247(18)
H1 H 0.1105 -0.0975 -0.3833
C3 C 0.26274(19) -0.19307(17) -0.26868(18)
C4 C 0.2948(2) -0.28529(19) -0.16294(18)
H2 H 0.3823 -0.3112 -0.1339
C5 C 0.1928(2) -0.33792(19) -0.10171(19)
C6 C 0.0633(2) -0.30713(19) -0.14323(18)
H3 H -0.0026 -0.3449 -0.1001
C7 C -0.09942(19) -0.18927(18) -0.31153(18)
C8 C 0.36833(19) -0.13204(18) -0.33866(17)
C9 C -0.4455(2) 0.10974(18) -0.22428(19)
C10 C -0.5475(2) 0.1826(2) -0.1807(2)
H4 H -0.6238 0.2262 -0.2262
C11 C -0.5362(2) 0.1905(2) -0.0702(2)
C12 C -0.4213(2) 0.1295(2) -0.0039(2)
H5 H -0.4124 0.1343 0.0704
C13 C -0.3202(2) 0.0613(2) -0.0510(2)
C14 C -0.3302(2) 0.0485(2) -0.1587(2)
H6 H -0.2609 -0.0003 -0.1869
C15 C -0.4615(2) 0.09181(18) -0.33994(19)
C16 C -0.6518(3) 0.2618(3) -0.0207(2)
C17 C -0.0738(3) -0.1836(3) -0.6365(3)
H7 H -0.0698 -0.1088 -0.6319
C18 C 0.0061(3) -0.2248(3) -0.7199(3)
H8 H 0.0623 -0.1788 -0.7686
C19 C 0.0002(3) -0.3315(3) -0.7286(3)
H9 H 0.0518 -0.3598 -0.7845
C20 C -0.0834(3) -0.4005(3) -0.6537(3)
C21 C -0.0945(4) -0.5143(3) -0.6572(3)
H10 H -0.0445 -0.5460 -0.7116
C22 C -0.1749(4) -0.5764(3) -0.5843(4)
H11 H -0.1813 -0.6501 -0.5903
C23 C -0.2525(3) -0.5343(2) -0.4965(3)
C24 C -0.3353(4) -0.5974(3) -0.4166(4)
H12 H -0.3452 -0.6713 -0.4196
C25 C -0.4019(4) -0.5525(3) -0.3341(4)
H13 H -0.4567 -0.5952 -0.2796
C26 C -0.3864(3) -0.4397(2) -0.3326(3)
H14 H -0.4308 -0.4100 -0.2747
C27 C -0.2441(3) -0.4212(2) -0.4901(2)
C28 C -0.1591(3) -0.3534(2) -0.5704(2)
H15 H -0.690(4) 0.274(3) 0.108(3)
Tb1A Tb -0.671790(9) 0.148610(9) -0.557580(9)
Tb1A_2 Tb 0.328210(9) 0.148610(9) -0.557580(9)
Tb1_2 Tb 0.671790(9) -0.148610(9) -0.442420(9)
O3A O -0.32948(15) 0.02480(14) -0.59694(15)
O4_2 O -0.51352(14) -0.19252(14) -0.32842(14)
O8A O -0.45190(16) -0.16773(14) -0.58939(14)
loop_
_geom_bond_atom_site_label_1
_geom_bond_atom_site_label_2
_geom_bond_site_symmetry_1
_geom_bond_site_symmetry_2
Tb1 O1 1_555 1_555
O1 C7 1_555 1_555
O2 Tb1 1_555 1_555
O3 C8 1_555 1_555
O4 C8 1_555 1_555
O5 N1 1_555 1_555
O6 N1 1_555 1_555
O7 Tb1 1_555 1_555
O8 C15 1_555 1_555
O9 C16 1_555 1_555
O10 C16 1_555 1_555
O11 N2 1_555 1_555
O12 N2 1_555 1_555
N1 C5 1_555 1_555
N2 C13 1_555 1_555
N3 Tb1 1_555 1_555
N4 Tb1 1_555 1_555
C1 C2 1_555 1_555
C2 H1 1_555 1_555
C3 C2 1_555 1_555
C4 C3 1_555 1_555
H2 C4 1_555 1_555
C5 C4 1_555 1_555
C6 C1 1_555 1_555
H3 C6 1_555 1_555
C7 O2 1_555 1_555
C8 C3 1_555 1_555
C9 C10 1_555 1_555
C10 H4 1_555 1_555
C11 C10 1_555 1_555
C12 C11 1_555 1_555
H5 C12 1_555 1_555
C13 C12 1_555 1_555
C14 C9 1_555 1_555
H6 C14 1_555 1_555
C15 O7 1_555 1_555
C16 C11 1_555 1_555
C17 N3 1_555 1_555
H7 C17 1_555 1_555
C18 C17 1_555 1_555
H8 C18 1_555 1_555
C19 C18 1_555 1_555
H9 C19 1_555 1_555
C20 C19 1_555 1_555
C21 C20 1_555 1_555
H10 C21 1_555 1_555
C22 C21 1_555 1_555
H11 C22 1_555 1_555
C23 C22 1_555 1_555
C24 C23 1_555 1_555
H12 C24 1_555 1_555
C25 C24 1_555 1_555
H13 C25 1_555 1_555
C26 N4 1_555 1_555
H14 C26 1_555 1_555
C27 N4 1_555 1_555
C28 N3 1_555 1_555
H15 O10 1_555 1_555
Tb1A O8 1_555 1_555
Tb1A_2 O3 1_555 1_555
Tb1_2 O4 1_555 1_555
O3A Tb1 1_555 1_555
O4_2 Tb1 1_555 1_555
O8A Tb1 1_555 1_555
C1 C7 1_555 1_555
C5 C6 1_555 1_555
C9 C15 1_555 1_555
C13 C14 1_555 1_555
C20 C28 1_555 1_555
C23 C27 1_555 1_555
C25 C26 1_555 1_555
C27 C28 1_555 1_555

#END
