
#######################################################################
#
#                 Cambridge Crystallographic Data Centre
#                                CCDC 
#
#######################################################################
#
# If this CIF has been generated from an entry in the Cambridge 
# Structural Database, then it will include bibliographic, chemical, 
# crystal, experimental, refinement or atomic coordinate data resulting 
# from the CCDC's data processing and validation procedures.
#
#######################################################################

data_YOGQIV
_symmetry_cell_setting           monoclinic
_symmetry_space_group_name_H-M   'C 2/c'
_symmetry_Int_Tables_number      15
_space_group_name_Hall           '-C 2yn'
loop_
_symmetry_equiv_pos_site_id
_symmetry_equiv_pos_as_xyz
1 x,y,z
2 1/2+x,1/2+y,z
3 -x,y,1/2-z
4 1/2-x,1/2+y,1/2-z
5 -x,-y,-z
6 1/2-x,1/2-y,-z
7 x,-y,1/2+z
8 1/2+x,1/2-y,1/2+z
_cell_length_a                   25.709(5)
_cell_length_b                   6.8939(14)
_cell_length_c                   16.300(3)
_cell_angle_alpha                90
_cell_angle_beta                 121.44(3)
_cell_angle_gamma                90
_cell_volume                     2464.8
loop_
_atom_site_label
_atom_site_type_symbol
_atom_site_fract_x
_atom_site_fract_y
_atom_site_fract_z
C1 C 0.08915(11) 0.9742(4) 0.35869(19)
C2 C 0.13676(11) 1.1074(4) 0.43392(19)
C3 C 0.17307(13) 1.0444(5) 0.5277(2)
H1 H 0.1695 0.9178 0.5439
C4 C 0.21468(14) 1.1691(5) 0.5976(2)
H2 H 0.2397 1.1274 0.6608
C5 C 0.21829(13) 1.3563(5) 0.5716(2)
C6 C 0.18303(13) 1.4220(5) 0.4794(2)
H3 H 0.1863 1.5491 0.4635
C7 C 0.14237(13) 1.2946(4) 0.4103(2)
H4 H 0.1184 1.3359 0.3469
C8 C -0.02245(12) 0.4316(4) 0.3453(2)
H5 H 0.0139 0.3709 0.3608
C9 C -0.09698(13) 0.6296(5) 0.2883(2)
H6 H -0.1221 0.7351 0.2565
C10 C -0.10857(14) 0.4909(5) 0.3345(2)
H7 H -0.1427 0.4824 0.3402
C11 C -0.05923(15) 0.1838(5) 0.4202(3)
H8 H -0.0737 0.2101 0.4634
H9 H -0.0872 0.0920 0.3723
C12 C 0.00097(14) 0.0941(5) 0.4750(2)
H10 H 0.0293 0.1847 0.5232
H11 H 0.0155 0.0644 0.4322
N1 N 0.26199(13) 1.4904(5) 0.6464(3)
N2 N -0.04233(9) 0.5918(3) 0.29535(15)
N3 N -0.06094(10) 0.3654(3) 0.37129(17)
Ni1 Ni 0.0000 0.77162(6) 0.2500
O1 O 0.07599(8) 0.8205(3) 0.38603(13)
O2 O 0.06232(9) 1.0208(3) 0.27187(14)
O3 O 0.29403(14) 1.4279(5) 0.7279(2)
O4 O 0.26556(15) 1.6541(5) 0.6231(3)
C1B C -0.08915(11) 0.9742(4) 0.14131(19)
C2B C -0.13676(11) 1.1074(4) 0.06608(19)
C3B C -0.17307(13) 1.0444(5) -0.0277(2)
H1B H -0.1695 0.9178 -0.0439
C4B C -0.21468(14) 1.1691(5) -0.0976(2)
H2B H -0.2397 1.1274 -0.1608
C5B C -0.21829(13) 1.3563(5) -0.0716(2)
C6B C -0.18303(13) 1.4220(5) 0.0206(2)
H3B H -0.1863 1.5491 0.0365
C7B C -0.14237(13) 1.2946(4) 0.0897(2)
H4B H -0.1184 1.3359 0.1531
C8D C 0.02245(12) -0.4316(4) 0.6547(2)
H5D H -0.0139 -0.3709 0.6392
C9D C 0.09698(13) -0.6296(5) 0.7117(2)
H6D H 0.1221 -0.7351 0.7435
C10D C 0.10857(14) -0.4909(5) 0.6655(2)
H7D H 0.1427 -0.4824 0.6598
C11D C 0.05923(15) -0.1838(5) 0.5798(3)
H8D H 0.0737 -0.2101 0.5366
H9D H 0.0872 -0.0920 0.6277
C12D C -0.00097(14) -0.0941(5) 0.5250(2)
H10D H -0.0293 -0.1847 0.4768
H11D H -0.0155 -0.0644 0.5678
N1B N -0.26199(13) 1.4904(5) -0.1464(3)
N2D N 0.04233(9) -0.5918(3) 0.70465(15)
N2B N 0.04233(9) 0.5918(3) 0.20465(15)
N3D N 0.06094(10) -0.3654(3) 0.62871(17)
Ni1F Ni 0.0000 -0.77162(6) 0.7500
O1B O -0.07599(8) 0.8205(3) 0.11397(13)
O2B O -0.06232(9) 1.0208(3) 0.22813(14)
O3B O -0.29403(14) 1.4279(5) -0.2279(2)
O4B O -0.26556(15) 1.6541(5) -0.1231(3)
loop_
_geom_bond_atom_site_label_1
_geom_bond_atom_site_label_2
_geom_bond_site_symmetry_1
_geom_bond_site_symmetry_2
C1 C2 1_555 1_555
C2 C3 1_555 1_555
C3 H1 1_555 1_555
C4 C3 1_555 1_555
H2 C4 1_555 1_555
C5 C4 1_555 1_555
C6 C5 1_555 1_555
H3 C6 1_555 1_555
C7 C2 1_555 1_555
H4 C7 1_555 1_555
C8 H5 1_555 1_555
C9 H6 1_555 1_555
C10 C9 1_555 1_555
H7 C10 1_555 1_555
C11 H8 1_555 1_555
H9 C11 1_555 1_555
C12 C11 1_555 1_555
H10 C12 1_555 1_555
H11 C12 1_555 1_555
N1 C5 1_555 1_555
N2 C8 1_555 1_555
N3 C8 1_555 1_555
Ni1 N2 1_555 1_555
O1 C1 1_555 1_555
O2 C1 1_555 1_555
O3 N1 1_555 1_555
O4 N1 1_555 1_555
C1B C2B 1_555 1_555
C2B C3B 1_555 1_555
C3B H1B 1_555 1_555
C4B C3B 1_555 1_555
H2B C4B 1_555 1_555
C5B C4B 1_555 1_555
C6B C5B 1_555 1_555
H3B C6B 1_555 1_555
C7B C2B 1_555 1_555
H4B C7B 1_555 1_555
C8D H5D 1_555 1_555
C9D H6D 1_555 1_555
C10D C9D 1_555 1_555
H7D C10D 1_555 1_555
C11D H8D 1_555 1_555
H9D C11D 1_555 1_555
C12D C12 1_555 1_555
H10D C12D 1_555 1_555
H11D C12D 1_555 1_555
N1B C5B 1_555 1_555
N2D C8D 1_555 1_555
N2B Ni1 1_555 1_555
N3D C8D 1_555 1_555
Ni1F N2D 1_555 1_555
O1B Ni1 1_555 1_555
O2B Ni1 1_555 1_555
O3B N1B 1_555 1_555
O4B N1B 1_555 1_555
C6 C7 1_555 1_555
C9 N2 1_555 1_555
C10 N3 1_555 1_555
C11 N3 1_555 1_555
Ni1 O1 1_555 1_555
Ni1 O2 1_555 1_555
C1B O1B 1_555 1_555
C1B O2B 1_555 1_555
C6B C7B 1_555 1_555
C9D N2D 1_555 1_555
C10D N3D 1_555 1_555
C11D C12D 1_555 1_555
C11D N3D 1_555 1_555

#END
