
#######################################################################
#
#                 Cambridge Crystallographic Data Centre
#                                CCDC 
#
#######################################################################
#
# If this CIF has been generated from an entry in the Cambridge 
# Structural Database, then it will include bibliographic, chemical, 
# crystal, experimental, refinement or atomic coordinate data resulting 
# from the CCDC's data processing and validation procedures.
#
#######################################################################

data_YOGQER
_symmetry_cell_setting           monoclinic
_symmetry_space_group_name_H-M   'P 2/c'
_symmetry_Int_Tables_number      13
_space_group_name_Hall           '-P 2yc'
loop_
_symmetry_equiv_pos_site_id
_symmetry_equiv_pos_as_xyz
1 x,y,z
2 -x,y,1/2-z
3 -x,-y,-z
4 x,-y,1/2+z
_cell_length_a                   12.301(3)
_cell_length_b                   6.6095(13)
_cell_length_c                   16.694(6)
_cell_angle_alpha                90
_cell_angle_beta                 112.97(2)
_cell_angle_gamma                90
_cell_volume                     1249.66
loop_
_atom_site_label
_atom_site_type_symbol
_atom_site_fract_x
_atom_site_fract_y
_atom_site_fract_z
C1 C 0.04286(17) -0.4279(3) 0.16124(13)
H1 H -0.0330 -0.3814 0.1501
C2 C 0.19859(18) -0.6131(3) 0.20186(14)
H2 H 0.2504 -0.7205 0.2244
C3 C 0.22366(17) -0.4420(3) 0.16841(14)
H3 H 0.2945 -0.4097 0.1637
C4 C 0.10848(18) -0.1203(3) 0.10619(13)
H4 H 0.1815 -0.0776 0.1020
H5 H 0.0920 -0.0278 0.1452
C5 C 0.00924(19) -0.1087(3) 0.01705(13)
H6 H -0.0631 -0.1584 0.0204
H7 H 0.0278 -0.1945 -0.0231
C6 C -0.19136(16) 0.8921(3) -0.38857(12)
C7 C -0.28650(16) 1.0152(3) -0.45594(12)
C8 C -0.30060(18) 1.2216(3) -0.44748(14)
H8 H -0.2498 1.2897 -0.3984
C9 C -0.3897(2) 1.3259(3) -0.51155(17)
H9 H -0.3976 1.4643 -0.5054
C10 C -0.46738(19) 1.2279(3) -0.58488(15)
H10 H -0.5276 1.2980 -0.6280
C11 C -0.45236(17) 1.0223(3) -0.59172(13)
C12 C -0.36313(16) 0.9148(3) -0.52908(12)
H11 H -0.3546 0.7768 -0.5359
Co1 Co 0.0000 0.79018(5) -0.2500
N1 N 0.08472(14) -0.6045(2) 0.19751(10)
N2 N 0.12359(14) -0.3251(2) 0.14274(10)
N3 N -0.53367(15) 0.9082(3) -0.66688(11)
O1 O -0.11349(12) 0.9908(2) -0.32617(9)
O2 O -0.19042(13) 0.7071(2) -0.39625(10)
O3 O -0.52163(14) 0.7252(2) -0.66826(10)
O4 O -0.61140(15) 1.0028(3) -0.72435(11)
C1B C -0.04286(17) 0.4279(3) -0.16124(13)
H1B H 0.0330 0.3814 -0.1501
C2B C -0.19859(18) 0.6131(3) -0.20186(14)
H2B H -0.2504 0.7205 -0.2244
C3B C -0.22366(17) 0.4420(3) -0.16841(14)
H3B H -0.2945 0.4097 -0.1637
C4B C -0.10848(18) 0.1203(3) -0.10619(13)
H4B H -0.1815 0.0776 -0.1020
H5B H -0.0920 0.0278 -0.1452
C5B C -0.00924(19) 0.1087(3) -0.01705(13)
H6B H 0.0631 0.1584 -0.0204
H7B H -0.0278 0.1945 0.0231
C6A C 0.19136(16) 0.8921(3) -0.11143(12)
C7A C 0.28650(16) 1.0152(3) -0.04406(12)
C8A C 0.30060(18) 1.2216(3) -0.05252(14)
H8A H 0.2498 1.2897 -0.1016
C9A C 0.3897(2) 1.3259(3) 0.01155(17)
H9A H 0.3976 1.4643 0.0054
C10A C 0.46738(19) 1.2279(3) 0.08488(15)
H10A H 0.5276 1.2980 0.1280
C11A C 0.45236(17) 1.0223(3) 0.09172(13)
C12A C 0.36313(16) 0.9148(3) 0.02908(12)
H11A H 0.3546 0.7768 0.0359
Co1C Co 0.0000 -0.79018(5) 0.2500
N1B N -0.08472(14) 0.6045(2) -0.19751(10)
N1C N 0.08472(14) 0.6045(2) -0.30249(10)
N2B N -0.12359(14) 0.3251(2) -0.14274(10)
N3A N 0.53367(15) 0.9082(3) 0.16688(11)
O1A O 0.11349(12) 0.9908(2) -0.17383(9)
O2A O 0.19042(13) 0.7071(2) -0.10375(10)
O3A O 0.52163(14) 0.7252(2) 0.16826(10)
O4A O 0.61140(15) 1.0028(3) 0.22435(11)
loop_
_geom_bond_atom_site_label_1
_geom_bond_atom_site_label_2
_geom_bond_site_symmetry_1
_geom_bond_site_symmetry_2
C1 H1 1_555 1_555
C2 H2 1_555 1_555
C3 C2 1_555 1_555
H3 C3 1_555 1_555
C4 H4 1_555 1_555
H5 C4 1_555 1_555
C5 C4 1_555 1_555
H6 C5 1_555 1_555
H7 C5 1_555 1_555
C6 C7 1_555 1_555
C7 C8 1_555 1_555
C8 H8 1_555 1_555
C9 C8 1_555 1_555
H9 C9 1_555 1_555
C10 C9 1_555 1_555
H10 C10 1_555 1_555
C11 C10 1_555 1_555
C12 C7 1_555 1_555
H11 C12 1_555 1_555
Co1 O1 1_555 1_555
N1 C1 1_555 1_555
N2 C1 1_555 1_555
N3 C11 1_555 1_555
O1 C6 1_555 1_555
O2 C6 1_555 1_555
O3 N3 1_555 1_555
O4 N3 1_555 1_555
C1B H1B 1_555 1_555
C2B H2B 1_555 1_555
C3B C2B 1_555 1_555
H3B C3B 1_555 1_555
C4B H4B 1_555 1_555
H5B C4B 1_555 1_555
C5B C5 1_555 1_555
H6B C5B 1_555 1_555
H7B C5B 1_555 1_555
C6A C7A 1_555 1_555
C7A C8A 1_555 1_555
C8A H8A 1_555 1_555
C9A C8A 1_555 1_555
H9A C9A 1_555 1_555
C10A C9A 1_555 1_555
H10A C10A 1_555 1_555
C11A C10A 1_555 1_555
C12A C7A 1_555 1_555
H11A C12A 1_555 1_555
Co1C N1 1_555 1_555
N1B Co1 1_555 1_555
N1C Co1 1_555 1_555
N2B C1B 1_555 1_555
N3A C11A 1_555 1_555
O1A Co1 1_555 1_555
O2A C6A 1_555 1_555
O3A N3A 1_555 1_555
O4A N3A 1_555 1_555
C2 N1 1_555 1_555
C3 N2 1_555 1_555
C4 N2 1_555 1_555
C11 C12 1_555 1_555
C1B N1B 1_555 1_555
C2B N1B 1_555 1_555
C3B N2B 1_555 1_555
C4B C5B 1_555 1_555
C4B N2B 1_555 1_555
C6A O1A 1_555 1_555
C11A C12A 1_555 1_555

#END
