
#######################################################################
#
#                 Cambridge Crystallographic Data Centre
#                                CCDC 
#
#######################################################################
#
# If this CIF has been generated from an entry in the Cambridge 
# Structural Database, then it will include bibliographic, chemical, 
# crystal, experimental, refinement or atomic coordinate data resulting 
# from the CCDC's data processing and validation procedures.
#
#######################################################################

data_YOGRES
_symmetry_cell_setting           triclinic
_symmetry_space_group_name_H-M   'P -1'
_symmetry_Int_Tables_number      2
_space_group_name_Hall           '-P 1'
loop_
_symmetry_equiv_pos_site_id
_symmetry_equiv_pos_as_xyz
1 x,y,z
2 -x,-y,-z
_cell_length_a                   10.173(2)
_cell_length_b                   12.012(2)
_cell_length_c                   12.044(2)
_cell_angle_alpha                70.71(3)
_cell_angle_beta                 76.45(3)
_cell_angle_gamma                85.45(3)
_cell_volume                     1350.46
loop_
_atom_site_label
_atom_site_type_symbol
_atom_site_fract_x
_atom_site_fract_y
_atom_site_fract_z
Er1 Er -0.171200(15) -0.056520(13) -0.351080(14)
O1 O -0.3101(2) -0.2315(2) -0.2498(2)
O2 O -0.3802(2) -0.0876(2) -0.3914(2)
O3 O -0.8267(3) -0.0971(2) -0.4788(2)
O4 O -0.9855(2) -0.1681(2) -0.3123(2)
O5 O -0.8398(4) -0.5461(4) -0.0435(5)
O6 O -0.6370(3) -0.5665(3) -0.0219(3)
O7 O -0.1151(3) -0.1429(3) -0.4979(3)
O8 O 0.0462(3) -0.0878(2) -0.6658(2)
O9 O 0.2470(5) -0.4236(5) -0.8223(7)
O10 O 0.1291(4) -0.5881(3) -0.7496(4)
O11 O -0.3121(5) -0.6149(4) -0.5045(5)
O12 O -0.3929(5) -0.4791(5) -0.4299(5)
N1 N -0.7249(4) -0.5116(3) -0.0699(3)
N2 N -0.3053(5) -0.5194(4) -0.4931(5)
N3 N -0.1831(3) -0.0922(3) -0.1285(3)
N4 N -0.3429(3) 0.0642(3) -0.2560(3)
C1 C -0.5316(3) -0.2458(3) -0.2828(3)
C2 C -0.6302(3) -0.1861(3) -0.3425(3)
H1 H -0.6085 -0.1157 -0.4053
C3 C -0.7606(3) -0.2297(3) -0.3098(3)
C4 C -0.7932(3) -0.3355(3) -0.2168(3)
H2 H -0.8812 -0.3640 -0.1909
C5 C -0.6908(4) -0.3973(3) -0.1638(3)
C6 C -0.5607(4) -0.3546(3) -0.1935(3)
H3 H -0.4946 -0.3973 -0.1550
C7 C -0.3988(3) -0.1862(3) -0.3104(3)
C8 C -0.8668(3) -0.1597(3) -0.3720(3)
C9 C -0.0565(4) -0.2738(3) -0.6084(3)
C10 C 0.0456(4) -0.3174(3) -0.6811(3)
H4 H 0.1224 -0.2722 -0.7242
C11 C 0.0339(4) -0.4292(3) -0.6903(4)
C12 C -0.0809(4) -0.4954(4) -0.6282(4)
H5 H -0.0896 -0.5702 -0.6328
C13 C -0.1828(4) -0.4479(4) -0.5592(4)
C14 C -0.1727(4) -0.3394(4) -0.5468(4)
H6 H -0.2423 -0.3107 -0.4982
C15 C -0.0408(4) -0.1579(3) -0.5898(3)
C16 C 0.1498(5) -0.4782(4) -0.7619(5)
C17 C -0.1080(5) -0.1701(4) -0.0645(4)
H7 H -0.0632 -0.2278 -0.0952
C18 C -0.0930(7) -0.1691(6) 0.0490(5)
H8 H -0.0378 -0.2242 0.0913
C19 C -0.1598(7) -0.0872(6) 0.0949(5)
H9 H -0.1496 -0.0851 0.1689
C20 C -0.2434(6) -0.0060(5) 0.0331(4)
C21 C -0.3216(8) 0.0811(7) 0.0768(6)
H10 H -0.3144 0.0865 0.1504
C22 C -0.4043(7) 0.1545(6) 0.0161(6)
H11 H -0.4555 0.2083 0.0489
C23 C -0.4155(6) 0.1519(5) -0.0976(5)
C24 C -0.5002(6) 0.2279(5) -0.1663(6)
H12 H -0.5521 0.2840 -0.1375
C25 C -0.5066(6) 0.2198(5) -0.2730(6)
H13 H -0.5644 0.2686 -0.3177
C26 C -0.4257(5) 0.1373(4) -0.3165(4)
H14 H -0.4299 0.1334 -0.3914
C27 C -0.3384(4) 0.0700(4) -0.1466(4)
C28 C -0.2521(5) -0.0112(4) -0.0805(3)
H15 H 0.196(7) -0.608(6) -0.774(6)
Er1A Er 0.171200(15) 0.056520(13) -0.648920(14)
Er1A_2 Er -0.828800(15) 0.056520(13) -0.648920(14)
Er1_2 Er -1.171200(15) -0.056520(13) -0.351080(14)
O3A O -0.1733(3) 0.0971(2) -0.5212(2)
O4_2 O 0.0145(2) -0.1681(2) -0.3123(2)
O8A O -0.0462(3) 0.0878(2) -0.3342(2)
loop_
_geom_bond_atom_site_label_1
_geom_bond_atom_site_label_2
_geom_bond_site_symmetry_1
_geom_bond_site_symmetry_2
Er1 O1 1_555 1_555
O1 C7 1_555 1_555
O2 Er1 1_555 1_555
O3 C8 1_555 1_555
O4 C8 1_555 1_555
O5 N1 1_555 1_555
O6 N1 1_555 1_555
O7 Er1 1_555 1_555
O8 C15 1_555 1_555
O9 C16 1_555 1_555
O10 C16 1_555 1_555
O11 N2 1_555 1_555
O12 N2 1_555 1_555
N1 C5 1_555 1_555
N2 C13 1_555 1_555
N3 Er1 1_555 1_555
N4 Er1 1_555 1_555
C1 C2 1_555 1_555
C2 H1 1_555 1_555
C3 C2 1_555 1_555
C4 C3 1_555 1_555
H2 C4 1_555 1_555
C5 C4 1_555 1_555
C6 C1 1_555 1_555
H3 C6 1_555 1_555
C7 O2 1_555 1_555
C8 C3 1_555 1_555
C9 C10 1_555 1_555
C10 H4 1_555 1_555
C11 C10 1_555 1_555
C12 C11 1_555 1_555
H5 C12 1_555 1_555
C13 C12 1_555 1_555
C14 C9 1_555 1_555
H6 C14 1_555 1_555
C15 O7 1_555 1_555
C16 C11 1_555 1_555
C17 N3 1_555 1_555
H7 C17 1_555 1_555
C18 C17 1_555 1_555
H8 C18 1_555 1_555
C19 C18 1_555 1_555
H9 C19 1_555 1_555
C20 C19 1_555 1_555
C21 C20 1_555 1_555
H10 C21 1_555 1_555
C22 C21 1_555 1_555
H11 C22 1_555 1_555
C23 C22 1_555 1_555
C24 C23 1_555 1_555
H12 C24 1_555 1_555
C25 C24 1_555 1_555
H13 C25 1_555 1_555
C26 N4 1_555 1_555
H14 C26 1_555 1_555
C27 N4 1_555 1_555
C28 N3 1_555 1_555
H15 O10 1_555 1_555
Er1A O8 1_555 1_555
Er1A_2 O3 1_555 1_555
Er1_2 O4 1_555 1_555
O3A Er1 1_555 1_555
O4_2 Er1 1_555 1_555
O8A Er1 1_555 1_555
C1 C7 1_555 1_555
C5 C6 1_555 1_555
C9 C15 1_555 1_555
C13 C14 1_555 1_555
C20 C28 1_555 1_555
C23 C27 1_555 1_555
C25 C26 1_555 1_555
C27 C28 1_555 1_555

#END
