
#######################################################################
#
#                 Cambridge Crystallographic Data Centre
#                                CCDC 
#
#######################################################################
#
# If this CIF has been generated from an entry in the Cambridge 
# Structural Database, then it will include bibliographic, chemical, 
# crystal, experimental, refinement or atomic coordinate data resulting 
# from the CCDC's data processing and validation procedures.
#
#######################################################################

data_YOGRAO
_symmetry_cell_setting           triclinic
_symmetry_space_group_name_H-M   'P -1'
_symmetry_Int_Tables_number      2
_space_group_name_Hall           '-P 1'
loop_
_symmetry_equiv_pos_site_id
_symmetry_equiv_pos_as_xyz
1 x,y,z
2 -x,-y,-z
_cell_length_a                   10.194(2)
_cell_length_b                   12.031(2)
_cell_length_c                   12.047(2)
_cell_angle_alpha                70.69(3)
_cell_angle_beta                 76.48(3)
_cell_angle_gamma                85.58(3)
_cell_volume                     1355.73
loop_
_atom_site_label
_atom_site_type_symbol
_atom_site_fract_x
_atom_site_fract_y
_atom_site_fract_z
Ho1 Ho -0.171410(15) -0.056790(13) -0.351070(13)
O1 O -0.9855(3) -0.1688(3) -0.3116(3)
O2 O -0.8271(3) -0.0973(3) -0.4783(3)
O3 O -0.3809(3) -0.0882(3) -0.3914(3)
O4 O -0.3119(3) -0.2321(2) -0.2501(3)
O5 O -0.6373(4) -0.5669(3) -0.0213(3)
O6 O -0.8395(5) -0.5461(4) -0.0432(5)
O7 O -0.1146(3) -0.1431(3) -0.4991(3)
O8 O 0.0458(3) -0.0883(3) -0.6663(3)
O9 O 0.2485(7) -0.4237(6) -0.8227(8)
O10 O 0.1300(4) -0.5882(3) -0.7490(4)
O11 O -0.3126(6) -0.6152(5) -0.5053(6)
O12 O -0.3915(6) -0.4801(6) -0.4298(6)
N1 N -0.7252(4) -0.5116(3) -0.0692(4)
N2 N -0.3052(6) -0.5194(5) -0.4937(5)
N3 N -0.1839(4) -0.0922(3) -0.1274(3)
N4 N -0.3436(4) 0.0642(3) -0.2562(3)
C1 C -0.7615(4) -0.2305(3) -0.3086(3)
C2 C -0.6307(4) -0.1862(3) -0.3420(3)
H1 H -0.6092 -0.1157 -0.4046
C3 C -0.5323(3) -0.2466(3) -0.2826(3)
C4 C -0.5614(4) -0.3551(3) -0.1934(3)
H2 H -0.4954 -0.3980 -0.1552
C5 C -0.6915(4) -0.3972(3) -0.1635(3)
C6 C -0.7929(4) -0.3360(3) -0.2168(4)
H3 H -0.8806 -0.3651 -0.1914
C7 C -0.8668(4) -0.1605(3) -0.3710(3)
C8 C -0.3991(4) -0.1867(3) -0.3107(3)
C9 C -0.0562(4) -0.2743(3) -0.6087(3)
C10 C 0.0458(4) -0.3183(4) -0.6812(4)
H4 H 0.1227 -0.2734 -0.7242
C11 C 0.0335(5) -0.4292(4) -0.6898(4)
C12 C -0.0800(5) -0.4958(4) -0.6284(4)
H5 H -0.0880 -0.5703 -0.6335
C13 C -0.1830(5) -0.4494(4) -0.5582(4)
C14 C -0.1724(4) -0.3408(4) -0.5462(4)
H6 H -0.2415 -0.3123 -0.4972
C15 C -0.0403(4) -0.1588(3) -0.5904(3)
C16 C 0.1516(6) -0.4786(5) -0.7615(6)
C17 C -0.1091(6) -0.1692(5) -0.0635(4)
H7 H -0.0652 -0.2270 -0.0940
C18 C -0.0921(8) -0.1684(7) 0.0488(5)
H8 H -0.0358 -0.2227 0.0902
C19 C -0.1600(9) -0.0866(8) 0.0951(6)
H9 H -0.1501 -0.0848 0.1694
C20 C -0.2444(8) -0.0048(7) 0.0332(5)
C21 C -0.3224(9) 0.0823(8) 0.0770(7)
H10 H -0.3148 0.0881 0.1504
C22 C -0.4053(10) 0.1552(8) 0.0164(7)
H11 H -0.4575 0.2081 0.0495
C23 C -0.4150(6) 0.1529(5) -0.0986(5)
C24 C -0.4972(8) 0.2295(6) -0.1677(7)
H12 H -0.5466 0.2870 -0.1399
C25 C -0.5055(7) 0.2208(6) -0.2740(7)
H13 H -0.5631 0.2694 -0.3188
C26 C -0.4260(6) 0.1371(5) -0.3159(5)
H14 H -0.4312 0.1325 -0.3902
C27 C -0.3380(5) 0.0703(4) -0.1471(4)
C28 C -0.2530(5) -0.0103(5) -0.0802(4)
H15 H 0.192(4) -0.640(4) -0.764(5)
Ho1A Ho 0.171410(15) 0.056790(13) -0.648930(13)
Ho1_2 Ho -1.171410(15) -0.056790(13) -0.351070(13)
Ho1A_2 Ho -0.828590(15) 0.056790(13) -0.648930(13)
O1_2 O 0.0145(3) -0.1688(3) -0.3116(3)
O2A O -0.1729(3) 0.0973(3) -0.5217(3)
O8A O -0.0458(3) 0.0883(3) -0.3337(3)
loop_
_geom_bond_atom_site_label_1
_geom_bond_atom_site_label_2
_geom_bond_site_symmetry_1
_geom_bond_site_symmetry_2
Ho1 O3 1_555 1_555
O1 C7 1_555 1_555
O2 C7 1_555 1_555
O3 C8 1_555 1_555
O4 Ho1 1_555 1_555
O5 N1 1_555 1_555
O6 N1 1_555 1_555
O7 Ho1 1_555 1_555
O8 C15 1_555 1_555
O9 C16 1_555 1_555
O10 C16 1_555 1_555
O11 N2 1_555 1_555
O12 N2 1_555 1_555
N1 C5 1_555 1_555
N2 C13 1_555 1_555
N3 Ho1 1_555 1_555
N4 Ho1 1_555 1_555
C1 C2 1_555 1_555
C2 H1 1_555 1_555
C3 C2 1_555 1_555
C4 C3 1_555 1_555
H2 C4 1_555 1_555
C5 C4 1_555 1_555
C6 C1 1_555 1_555
H3 C6 1_555 1_555
C7 C1 1_555 1_555
C8 O4 1_555 1_555
C9 C10 1_555 1_555
C10 H4 1_555 1_555
C11 C10 1_555 1_555
C12 C11 1_555 1_555
H5 C12 1_555 1_555
C13 C12 1_555 1_555
C14 C9 1_555 1_555
H6 C14 1_555 1_555
C15 O7 1_555 1_555
C16 C11 1_555 1_555
C17 N3 1_555 1_555
H7 C17 1_555 1_555
C18 C17 1_555 1_555
H8 C18 1_555 1_555
C19 C18 1_555 1_555
H9 C19 1_555 1_555
C20 C19 1_555 1_555
C21 C20 1_555 1_555
H10 C21 1_555 1_555
C22 C21 1_555 1_555
H11 C22 1_555 1_555
C23 C22 1_555 1_555
C24 C23 1_555 1_555
H12 C24 1_555 1_555
C25 C24 1_555 1_555
H13 C25 1_555 1_555
C26 N4 1_555 1_555
H14 C26 1_555 1_555
C27 N4 1_555 1_555
C28 N3 1_555 1_555
H15 O10 1_555 1_555
Ho1A O8 1_555 1_555
Ho1_2 O1 1_555 1_555
Ho1A_2 O2 1_555 1_555
O1_2 Ho1 1_555 1_555
O2A Ho1 1_555 1_555
O8A Ho1 1_555 1_555
C3 C8 1_555 1_555
C5 C6 1_555 1_555
C9 C15 1_555 1_555
C13 C14 1_555 1_555
C20 C28 1_555 1_555
C23 C27 1_555 1_555
C25 C26 1_555 1_555
C27 C28 1_555 1_555

#END
