
#######################################################################
#
#                 Cambridge Crystallographic Data Centre
#                                CCDC 
#
#######################################################################
#
# If this CIF has been generated from an entry in the Cambridge 
# Structural Database, then it will include bibliographic, chemical, 
# crystal, experimental, refinement or atomic coordinate data resulting 
# from the CCDC's data processing and validation procedures.
#
#######################################################################

data_YOGRIW
_symmetry_cell_setting           triclinic
_symmetry_space_group_name_H-M   'P -1'
_symmetry_Int_Tables_number      2
_space_group_name_Hall           '-P 1'
loop_
_symmetry_equiv_pos_site_id
_symmetry_equiv_pos_as_xyz
1 x,y,z
2 -x,-y,-z
_cell_length_a                   10.468(2)
_cell_length_b                   11.164(2)
_cell_length_c                   13.177(3)
_cell_angle_alpha                101.97(3)
_cell_angle_beta                 111.60(3)
_cell_angle_gamma                96.40(3)
_cell_volume                     1370.47
loop_
_atom_site_label
_atom_site_type_symbol
_atom_site_fract_x
_atom_site_fract_y
_atom_site_fract_z
La1 La 0.791839(3) -0.089063(3) 0.369771(3)
O1 O 0.98853(5) -0.08104(6) 0.31175(5)
O2 O 1.20275(6) -0.04439(6) 0.45147(5)
O3 O 1.57962(5) -0.22803(5) 0.35420(5)
O4 O 1.48822(6) -0.40330(6) 0.21294(6)
O5 O 1.04332(10) -0.42667(12) -0.09389(7)
O6 O 0.90441(11) -0.30949(14) -0.06758(9)
O7 O 0.95147(8) -0.14796(6) 0.52588(5)
O8 O 1.16254(6) -0.12522(5) 0.65867(6)
O9 O 1.30359(7) -0.51409(6) 0.70653(8)
O10 O 1.15757(6) -0.68287(5) 0.69402(5)
O11 O 0.64341(8) -0.64055(7) 0.54905(8)
O12 O 0.62019(8) -0.45444(9) 0.61317(9)
N1 N 1.01316(10) -0.34603(11) -0.03500(7)
N2 N 0.68757(8) -0.52876(8) 0.58724(8)
N3 N 0.62812(7) -0.16666(6) 0.14562(5)
N4 N 0.56188(7) 0.01033(6) 0.28405(6)
C1 C 1.16487(7) -0.16241(7) 0.26793(6)
C2 C 1.30012(7) -0.18654(7) 0.30400(6)
H1 H 1.3653 -0.1475 0.3774
C3 C 1.33752(7) -0.26892(7) 0.23034(6)
C4 C 1.24285(8) -0.32419(8) 0.11931(7)
H2 H 1.2664 -0.3809 0.0701
C5 C 1.11239(9) -0.29255(9) 0.08392(7)
C6 C 1.07093(8) -0.21426(9) 0.15621(7)
H3 H 0.9815 -0.1966 0.1305
C7 C 1.11524(8) -0.08883(7) 0.35051(6)
C8 C 1.47984(7) -0.30137(7) 0.27015(6)
C9 C 1.00002(8) -0.31178(7) 0.61313(6)
C10 C 1.10262(8) -0.38228(7) 0.64500(6)
H4 H 1.1952 -0.3484 0.6603
C11 C 1.06884(8) -0.50223(7) 0.65430(6)
C12 C 0.93175(8) -0.55217(7) 0.63374(6)
H5 H 0.9070 -0.6327 0.6388
C13 C 0.83234(8) -0.47874(8) 0.60535(7)
C14 C 0.86256(8) -0.36051(7) 0.59355(7)
H6 H 0.7928 -0.3146 0.5730
C15 C 1.04079(8) -0.18555(7) 0.59861(6)
C16 C 1.18300(9) -0.57504(7) 0.68755(7)
C17 C 0.65750(10) -0.25424(9) 0.07744(7)
H7 H 0.7380 -0.2851 0.1085
C18 C 0.57463(13) -0.30251(11) -0.03800(8)
H8 H 0.5998 -0.3635 -0.0825
C19 C 0.45534(13) -0.25831(12) -0.08474(8)
H9 H 0.3989 -0.2888 -0.1617
C20 C 0.41910(10) -0.16754(9) -0.01644(7)
C21 C 0.29598(11) -0.11611(11) -0.05937(8)
H10 H 0.2376 -0.1437 -0.1361
C22 C 0.26392(11) -0.02976(11) 0.00853(9)
H11 H 0.1830 0.0008 -0.0217
C23 C 0.35141(9) 0.01681(9) 0.12689(8)
C24 C 0.32390(11) 0.10970(10) 0.20142(10)
H12 H 0.2442 0.1429 0.1747
C25 C 0.41350(11) 0.15104(10) 0.31243(11)
H13 H 0.3966 0.2132 0.3621
C26 C 0.53164(10) 0.09822(9) 0.35038(9)
H14 H 0.5923 0.1266 0.4265
C27 C 0.47438(8) -0.02960(7) 0.17285(7)
C28 C 0.50898(8) -0.12334(8) 0.09968(6)
H15 H 1.3872(10) -0.5554(10) 0.7393(8)
La1A La 1.208161(3) 0.089063(3) 0.630229(3)
La1_2 La 1.791839(3) -0.089063(3) 0.369771(3)
La1A_2 La 1.208161(3) -0.910937(3) 0.630229(3)
O2A O 0.79725(6) 0.04439(6) 0.54853(5)
O3_2 O 0.57962(5) -0.22803(5) 0.35420(5)
O8A O 0.83746(6) 0.12522(5) 0.34133(6)
O10A O 0.84243(6) -0.31713(5) 0.30598(5)
loop_
_geom_bond_atom_site_label_1
_geom_bond_atom_site_label_2
_geom_bond_site_symmetry_1
_geom_bond_site_symmetry_2
La1 O1 1_555 1_555
O1 C7 1_555 1_555
O2 C7 1_555 1_555
O3 C8 1_555 1_555
O4 C8 1_555 1_555
O5 N1 1_555 1_555
O6 N1 1_555 1_555
O7 La1 1_555 1_555
O8 C15 1_555 1_555
O9 C16 1_555 1_555
O10 C16 1_555 1_555
O11 N2 1_555 1_555
O12 N2 1_555 1_555
N1 C5 1_555 1_555
N2 C13 1_555 1_555
N3 La1 1_555 1_555
N4 La1 1_555 1_555
C1 C2 1_555 1_555
C2 H1 1_555 1_555
C3 C2 1_555 1_555
C4 C3 1_555 1_555
H2 C4 1_555 1_555
C5 C4 1_555 1_555
C6 C1 1_555 1_555
H3 C6 1_555 1_555
C7 C1 1_555 1_555
C8 C3 1_555 1_555
C9 C10 1_555 1_555
C10 H4 1_555 1_555
C11 C10 1_555 1_555
C12 C11 1_555 1_555
H5 C12 1_555 1_555
C13 C12 1_555 1_555
C14 C9 1_555 1_555
H6 C14 1_555 1_555
C15 O7 1_555 1_555
C16 C11 1_555 1_555
C17 N3 1_555 1_555
H7 C17 1_555 1_555
C18 C17 1_555 1_555
H8 C18 1_555 1_555
C19 C18 1_555 1_555
H9 C19 1_555 1_555
C20 C19 1_555 1_555
C21 C20 1_555 1_555
H10 C21 1_555 1_555
C22 C21 1_555 1_555
H11 C22 1_555 1_555
C23 C22 1_555 1_555
C24 C23 1_555 1_555
H12 C24 1_555 1_555
C25 C24 1_555 1_555
H13 C25 1_555 1_555
C26 N4 1_555 1_555
H14 C26 1_555 1_555
C27 N4 1_555 1_555
C28 N3 1_555 1_555
H15 O9 1_555 1_555
La1A O2 1_555 1_555
La1_2 O3 1_555 1_555
La1A_2 O10 1_555 1_555
O2A La1 1_555 1_555
O3_2 La1 1_555 1_555
O8A La1 1_555 1_555
O10A La1 1_555 1_555
O8 La1A 1_555 1_555
C5 C6 1_555 1_555
C9 C15 1_555 1_555
C13 C14 1_555 1_555
C20 C28 1_555 1_555
C23 C27 1_555 1_555
C25 C26 1_555 1_555
C27 C28 1_555 1_555

#END
