
#######################################################################
#
#                 Cambridge Crystallographic Data Centre
#                                CCDC 
#
#######################################################################
#
# If this CIF has been generated from an entry in the Cambridge 
# Structural Database, then it will include bibliographic, chemical, 
# crystal, experimental, refinement or atomic coordinate data resulting 
# from the CCDC's data processing and validation procedures.
#
#######################################################################

data_YOGRIW01
_symmetry_cell_setting           triclinic
_symmetry_space_group_name_H-M   'P -1'
_symmetry_Int_Tables_number      2
_space_group_name_Hall           '-P 1'
loop_
_symmetry_equiv_pos_site_id
_symmetry_equiv_pos_as_xyz
1 x,y,z
2 -x,-y,-z
_cell_length_a                   10.4741(8)
_cell_length_b                   11.1745(9)
_cell_length_c                   13.1789(11)
_cell_angle_alpha                102.0340(10)
_cell_angle_beta                 111.6130(10)
_cell_angle_gamma                96.3010(10)
_cell_volume                     1372.7
loop_
_atom_site_label
_atom_site_type_symbol
_atom_site_fract_x
_atom_site_fract_y
_atom_site_fract_z
La1 La -0.208200(17) -0.089140(15) -0.130210(14)
O1 O -0.5795(2) 0.2278(2) 0.1459(2)
O2 O -0.4875(3) 0.4028(2) 0.2870(3)
H1 H -0.5595 0.4299 0.2634
O3 O -0.2024(3) 0.0444(3) 0.0486(2)
O4 O 0.0114(3) 0.0815(2) 0.1879(2)
O5 O 0.0954(5) 0.3099(6) 0.5673(3)
O6 O -0.0441(4) 0.4261(5) 0.5934(3)
O7 O 0.1579(3) -0.6826(2) 0.1938(2)
O8 O 0.3040(3) -0.5143(3) 0.2069(3)
O9 O 0.1626(3) -0.1249(2) 0.1588(2)
O10 O -0.0492(3) -0.1483(3) 0.0259(2)
O11 O -0.3793(4) -0.4546(4) 0.1130(4)
O12 O -0.3559(3) -0.6405(3) 0.0495(3)
N1 N -0.3719(3) -0.1669(3) -0.3546(2)
N2 N -0.4382(3) 0.0104(3) -0.2158(3)
N3 N -0.0135(4) 0.3458(5) 0.5348(3)
N4 N -0.3119(4) -0.5287(3) 0.0876(3)
C1 C -0.3418(4) -0.2541(4) -0.4223(3)
H2 H -0.2611 -0.2845 -0.3911
C2 C -0.4253(5) -0.3028(4) -0.5382(4)
H3 H -0.4006 -0.3641 -0.5829
C3 C -0.5443(5) -0.2578(5) -0.5842(4)
H4 H -0.6009 -0.2881 -0.6612
C4 C -0.5804(4) -0.1674(4) -0.5164(3)
C5 C -0.7037(5) -0.1157(5) -0.5591(4)
H5 H -0.7621 -0.1429 -0.6359
C6 C -0.7355(4) -0.0297(5) -0.4908(4)
H6 H -0.8167 0.0006 -0.5209
C7 C -0.6489(4) 0.0172(4) -0.3729(4)
C8 C -0.6763(5) 0.1090(5) -0.2991(4)
H7 H -0.7563 0.1419 -0.3258
C9 C -0.5860(5) 0.1511(4) -0.1874(5)
H8 H -0.6026 0.2136 -0.1378
C10 C -0.4684(4) 0.0982(4) -0.1496(4)
H9 H -0.4079 0.1263 -0.0734
C11 C -0.5260(4) -0.0299(3) -0.3274(3)
C12 C -0.4908(4) -0.1230(3) -0.4002(3)
C13 C -0.4799(3) 0.3010(3) 0.2297(3)
C14 C -0.3374(3) 0.2686(3) 0.2702(3)
C15 C -0.2995(3) 0.1867(3) 0.1963(3)
H10 H -0.3646 0.1480 0.1228
C16 C -0.1650(3) 0.1624(3) 0.2319(3)
C17 C -0.0712(4) 0.2147(4) 0.3437(3)
H11 H 0.0182 0.1972 0.3694
C18 C -0.1123(4) 0.2925(4) 0.4160(3)
C19 C -0.2421(4) 0.3243(4) 0.3807(3)
H12 H -0.2651 0.3817 0.4298
C20 C -0.1157(4) 0.0891(3) 0.1497(3)
C21 C 0.1834(4) -0.5750(3) 0.1876(3)
C22 C 0.0689(4) -0.5022(3) 0.1545(3)
C23 C 0.1029(4) -0.3821(3) 0.1452(3)
H13 H 0.1953 -0.3484 0.1604
C24 C 0.0003(4) -0.3117(3) 0.1133(3)
C25 C -0.1365(4) -0.3604(3) 0.0939(3)
H14 H -0.2062 -0.3144 0.0736
C26 C -0.1667(4) -0.4787(3) 0.1054(3)
C27 C -0.0677(4) -0.5515(3) 0.1341(3)
H15 H -0.0924 -0.6317 0.1395
C28 C 0.0408(4) -0.1856(3) 0.0986(3)
La1A La -0.791800(17) 0.089140(15) 0.130210(14)
La1A_2 La 0.208200(17) -0.910860(15) 0.130210(14)
La1A_3 La 0.208200(17) 0.089140(15) 0.130210(14)
O1A O -0.4205(2) -0.2278(2) -0.1459(2)
O4A O -0.0114(3) -0.0815(2) -0.1879(2)
O7A O -0.1579(3) -0.3174(2) -0.1938(2)
O9A O -0.1626(3) 0.1249(2) -0.1588(2)
loop_
_geom_bond_atom_site_label_1
_geom_bond_atom_site_label_2
_geom_bond_site_symmetry_1
_geom_bond_site_symmetry_2
La1 O3 1_555 1_555
O1 C13 1_555 1_555
O2 H1 1_555 1_555
O3 C20 1_555 1_555
O4 C20 1_555 1_555
O5 N3 1_555 1_555
O6 N3 1_555 1_555
O7 C21 1_555 1_555
O8 C21 1_555 1_555
O9 C28 1_555 1_555
O10 La1 1_555 1_555
O11 N4 1_555 1_555
O12 N4 1_555 1_555
N1 La1 1_555 1_555
N2 La1 1_555 1_555
N3 C18 1_555 1_555
N4 C26 1_555 1_555
C1 N1 1_555 1_555
H2 C1 1_555 1_555
C2 C1 1_555 1_555
H3 C2 1_555 1_555
C3 C2 1_555 1_555
H4 C3 1_555 1_555
C4 C3 1_555 1_555
C5 C4 1_555 1_555
H5 C5 1_555 1_555
C6 C5 1_555 1_555
H6 C6 1_555 1_555
C7 C6 1_555 1_555
C8 C7 1_555 1_555
H7 C8 1_555 1_555
C9 C8 1_555 1_555
H8 C9 1_555 1_555
C10 N2 1_555 1_555
H9 C10 1_555 1_555
C11 N2 1_555 1_555
C12 N1 1_555 1_555
C13 O2 1_555 1_555
C14 C13 1_555 1_555
C15 C14 1_555 1_555
H10 C15 1_555 1_555
C16 C15 1_555 1_555
C17 C16 1_555 1_555
H11 C17 1_555 1_555
C18 C17 1_555 1_555
C19 C14 1_555 1_555
H12 C19 1_555 1_555
C20 C16 1_555 1_555
C21 C22 1_555 1_555
C22 C23 1_555 1_555
C23 H13 1_555 1_555
C24 C23 1_555 1_555
C25 C24 1_555 1_555
H14 C25 1_555 1_555
C26 C25 1_555 1_555
C27 C22 1_555 1_555
H15 C27 1_555 1_555
C28 O10 1_555 1_555
La1A O1 1_555 1_555
La1A_2 O7 1_555 1_555
La1A_3 O4 1_555 1_555
O1A La1 1_555 1_555
O4A La1 1_555 1_555
O7A La1 1_555 1_555
O9A La1 1_555 1_555
O9 La1A_3 1_555 1_555
C4 C12 1_555 1_555
C7 C11 1_555 1_555
C9 C10 1_555 1_555
C11 C12 1_555 1_555
C18 C19 1_555 1_555
C24 C28 1_555 1_555
C26 C27 1_555 1_555

#END
