
#######################################################################
#
#                 Cambridge Crystallographic Data Centre
#                                CCDC 
#
#######################################################################
#
# If this CIF has been generated from an entry in the Cambridge 
# Structural Database, then it will include bibliographic, chemical, 
# crystal, experimental, refinement or atomic coordinate data resulting 
# from the CCDC's data processing and validation procedures.
#
#######################################################################

data_YOGSIX
_symmetry_cell_setting           triclinic
_symmetry_space_group_name_H-M   'P -1'
_symmetry_Int_Tables_number      2
_space_group_name_Hall           '-P 1'
loop_
_symmetry_equiv_pos_site_id
_symmetry_equiv_pos_as_xyz
1 x,y,z
2 -x,-y,-z
_cell_length_a                   12.845(3)
_cell_length_b                   14.724(3)
_cell_length_c                   14.778(3)
_cell_angle_alpha                103.85(3)
_cell_angle_beta                 90.16(3)
_cell_angle_gamma                115.30(3)
_cell_volume                     2435.76
loop_
_atom_site_label
_atom_site_type_symbol
_atom_site_fract_x
_atom_site_fract_y
_atom_site_fract_z
Nd1 Nd -0.635440(5) -0.139850(5) -0.561160(4)
Nd2 Nd 0.068450(5) 0.148520(5) -0.034260(5)
O1 O -0.81375(8) -0.23473(8) -0.66830(8)
O2 O -0.70100(8) -0.31422(7) -0.68226(7)
O3 O -0.86221(9) -0.68352(7) -0.90650(8)
O4 O -0.98037(9) -0.70748(7) -1.02790(7)
O5 O -1.23236(9) -0.52535(10) -0.96823(9)
O6 O -1.21385(10) -0.43128(9) -0.82815(11)
O7 O -0.47518(8) -0.16572(7) -0.50068(7)
O8 O -0.33306(8) -0.00951(7) -0.42575(7)
O9 O -0.10207(9) 0.03210(9) -0.14508(8)
O10 O -0.13855(9) -0.10168(9) -0.08607(8)
O11 O -0.35004(16) -0.45070(10) -0.31028(15)
O12 O -0.48759(18) -0.47208(11) -0.40255(14)
O13 O -0.53667(12) -0.12049(9) -0.71029(8)
O14 O -0.44843(8) 0.01321(7) -0.58929(6)
O15 O -0.13639(9) -0.02720(7) -0.88112(8)
O16 O -0.08767(8) 0.11194(8) -0.93640(8)
O17 O -0.29110(12) 0.32883(10) -0.84847(12)
O18 O -0.43057(12) 0.28686(10) -0.76806(13)
N1 N -1.17982(10) -0.47827(9) -0.88999(10)
N2 N -0.40052(15) -0.41636(10) -0.34839(11)
N3 N -0.35285(13) 0.27319(10) -0.80447(12)
N4 N -0.80765(10) -0.14595(9) -0.45401(8)
N5 N -0.73433(10) -0.29889(9) -0.48607(9)
N6 N 0.28342(11) 0.25771(12) -0.05792(11)
N7 N 0.11225(10) 0.19129(8) -0.19904(9)
C1 C -0.88227(11) -0.40010(10) -0.78039(10)
C2 C -0.86348(11) -0.48532(10) -0.82606(10)
H1 H -0.7952 -0.4883 -0.8097
C3 C -0.94605(11) -0.56575(9) -0.89572(10)
C4 C -1.04934(12) -0.56241(10) -0.91943(10)
H2 H -1.1039 -0.6144 -0.9678
C5 C -1.06877(11) -0.48026(10) -0.86948(10)
C6 C -0.98702(11) -0.39835(10) -0.80049(10)
H3 H -1.0019 -0.3434 -0.7684
C7 C -0.79245(11) -0.31097(10) -0.70557(10)
C8 C -0.92725(12) -0.65777(10) -0.94632(10)
C9 C -0.34950(10) -0.15556(9) -0.37595(9)
C10 C -0.27187(11) -0.09186(10) -0.29674(10)
H4 H -0.2416 -0.0199 -0.2856
C11 C -0.23833(11) -0.13333(10) -0.23345(10)
C12 C -0.27957(12) -0.24110(10) -0.25258(10)
H5 H -0.2553 -0.2703 -0.2127
C13 C -0.35604(13) -0.30266(10) -0.33074(11)
C14 C -0.39450(12) -0.26352(10) -0.39344(10)
H6 H -0.4484 -0.3078 -0.4453
C15 C -0.38976(10) -0.10700(9) -0.44022(9)
C16 C -0.15391(11) -0.06274(12) -0.14791(11)
C17 C -0.38947(11) 0.03386(10) -0.73789(9)
C18 C -0.30980(11) 0.00888(10) -0.78828(9)
H7 H -0.3034 -0.0514 -0.7872
C19 C -0.23928(11) 0.07392(10) -0.84057(9)
C20 C -0.25272(12) 0.16033(10) -0.84691(11)
H8 H -0.2077 0.2029 -0.8830
C21 C -0.33492(12) 0.18219(10) -0.79824(11)
C22 C -0.40211(12) 0.12195(10) -0.74191(11)
H9 H -0.4542 0.1401 -0.7077
C23 C -0.46347(11) -0.03039(10) -0.67691(9)
C24 C -0.14766(11) 0.05058(10) -0.89035(10)
C25 C -0.84009(13) -0.06991(12) -0.43363(12)
H10 H -0.8015 -0.0125 -0.4571
C26 C -0.92997(15) -0.07119(15) -0.37820(14)
H11 H -0.9509 -0.0167 -0.3668
C27 C -0.98494(15) -0.15337(17) -0.34207(14)
H12 H -1.0437 -0.1555 -0.3048
C28 C -0.95278(15) -0.23558(15) -0.36115(12)
C29 C -1.00592(18) -0.32376(18) -0.32260(15)
H13 H -1.0667 -0.3295 -0.2868
C30 C -0.96901(19) -0.39654(17) -0.33770(16)
H14 H -1.0027 -0.4511 -0.3098
C31 C -0.87861(18) -0.39467(14) -0.39573(14)
C32 C -0.8345(2) -0.46888(15) -0.41161(17)
H15 H -0.8660 -0.5253 -0.3857
C33 C -0.74741(19) -0.45843(14) -0.46387(16)
H16 H -0.7188 -0.5079 -0.4753
C34 C -0.69991(15) -0.37288(12) -0.50102(14)
H17 H -0.6406 -0.3678 -0.5384
C35 C -0.82464(13) -0.30897(12) -0.43436(11)
C36 C -0.86271(12) -0.22805(12) -0.41652(11)
C37 C 0.36745(18) 0.2936(2) 0.01036(17)
H18 H 0.3478 0.2864 0.0696
C38 C 0.48438(19) 0.3418(3) -0.0007(2)
H19 H 0.5408 0.3692 0.0506
C39 C 0.51498(18) 0.3483(2) -0.08790(19)
H20 H 0.5929 0.3771 -0.0971
C40 C 0.42913(15) 0.31154(16) -0.16365(15)
C41 C 0.45649(17) 0.32158(17) -0.25502(15)
H21 H 0.5335 0.3506 -0.2665
C42 C 0.37149(17) 0.28924(17) -0.32452(15)
H22 H 0.3903 0.2946 -0.3844
C43 C 0.25151(15) 0.24633(13) -0.30856(12)
C44 C 0.16296(17) 0.22142(16) -0.37566(13)
H23 H 0.1789 0.2297 -0.4353
C45 C 0.04876(18) 0.18361(15) -0.35457(13)
H24 H -0.0118 0.1689 -0.3988
C46 C 0.02808(14) 0.16869(12) -0.26695(12)
H25 H -0.0484 0.1414 -0.2537
C47 C 0.22246(12) 0.23224(11) -0.21919(11)
C48 C 0.31311(13) 0.26611(12) -0.14556(12)
Nd1A Nd -0.364560(5) 0.139850(5) -0.438840(4)
Nd2_2 Nd -0.931550(5) -0.851480(5) -1.034260(5)
Nd2A Nd -0.068450(5) -0.148520(5) 0.034260(5)
Nd2A_2 Nd -0.068450(5) -0.148520(5) -0.965740(5)
Nd2_3 Nd 0.068450(5) 0.148520(5) -1.034260(5)
O3_2 O 0.13779(9) 0.31648(7) 0.09350(8)
O4_2 O 0.01963(9) 0.29252(7) -0.02790(7)
O8A O -0.66694(8) 0.00951(7) -0.57425(7)
O10A O 0.13855(9) 0.10168(9) 0.08607(8)
O14A O -0.55157(8) -0.01321(7) -0.41071(6)
O15A O 0.13639(9) 0.02720(7) -0.11888(8)
O16_2 O -0.08767(8) 0.11194(8) 0.06360(8)
loop_
_geom_bond_atom_site_label_1
_geom_bond_atom_site_label_2
_geom_bond_site_symmetry_1
_geom_bond_site_symmetry_2
Nd1 O1 1_555 1_555
Nd2 O9 1_555 1_555
O1 C7 1_555 1_555
O2 Nd1 1_555 1_555
O3 C8 1_555 1_555
O4 C8 1_555 1_555
O5 N1 1_555 1_555
O6 N1 1_555 1_555
O7 Nd1 1_555 1_555
O8 C15 1_555 1_555
O9 C16 1_555 1_555
O10 C16 1_555 1_555
O11 N2 1_555 1_555
O12 N2 1_555 1_555
O13 Nd1 1_555 1_555
O14 Nd1 1_555 1_555
O15 C24 1_555 1_555
O16 C24 1_555 1_555
O17 N3 1_555 1_555
O18 N3 1_555 1_555
N1 C5 1_555 1_555
N2 C13 1_555 1_555
N3 C21 1_555 1_555
N4 Nd1 1_555 1_555
N5 Nd1 1_555 1_555
N6 Nd2 1_555 1_555
N7 Nd2 1_555 1_555
C1 C2 1_555 1_555
C2 H1 1_555 1_555
C3 C2 1_555 1_555
C4 C3 1_555 1_555
H2 C4 1_555 1_555
C5 C4 1_555 1_555
C6 C1 1_555 1_555
H3 C6 1_555 1_555
C7 O2 1_555 1_555
C8 C3 1_555 1_555
C9 C10 1_555 1_555
C10 H4 1_555 1_555
C11 C10 1_555 1_555
C12 C11 1_555 1_555
H5 C12 1_555 1_555
C13 C12 1_555 1_555
C14 C9 1_555 1_555
H6 C14 1_555 1_555
C15 O7 1_555 1_555
C16 C11 1_555 1_555
C17 C18 1_555 1_555
C18 H7 1_555 1_555
C19 C18 1_555 1_555
C20 C19 1_555 1_555
H8 C20 1_555 1_555
C21 C20 1_555 1_555
C22 C17 1_555 1_555
H9 C22 1_555 1_555
C23 O13 1_555 1_555
C24 C19 1_555 1_555
C25 N4 1_555 1_555
H10 C25 1_555 1_555
C26 C25 1_555 1_555
H11 C26 1_555 1_555
C27 C26 1_555 1_555
H12 C27 1_555 1_555
C28 C27 1_555 1_555
C29 C28 1_555 1_555
H13 C29 1_555 1_555
C30 C29 1_555 1_555
H14 C30 1_555 1_555
C31 C30 1_555 1_555
C32 C31 1_555 1_555
H15 C32 1_555 1_555
C33 C32 1_555 1_555
H16 C33 1_555 1_555
C34 N5 1_555 1_555
H17 C34 1_555 1_555
C35 N5 1_555 1_555
C36 N4 1_555 1_555
C37 N6 1_555 1_555
H18 C37 1_555 1_555
C38 C37 1_555 1_555
H19 C38 1_555 1_555
C39 C38 1_555 1_555
H20 C39 1_555 1_555
C40 C39 1_555 1_555
C41 C40 1_555 1_555
H21 C41 1_555 1_555
C42 C41 1_555 1_555
H22 C42 1_555 1_555
C43 C42 1_555 1_555
C44 C43 1_555 1_555
H23 C44 1_555 1_555
C45 C44 1_555 1_555
H24 C45 1_555 1_555
C46 N7 1_555 1_555
H25 C46 1_555 1_555
C47 N7 1_555 1_555
C48 N6 1_555 1_555
Nd1A O8 1_555 1_555
Nd2_2 O3 1_555 1_555
Nd2A O10 1_555 1_555
Nd2A_2 O15 1_555 1_555
Nd2_3 O16 1_555 1_555
O3_2 Nd2 1_555 1_555
O4_2 Nd2 1_555 1_555
O8A Nd1 1_555 1_555
O10A Nd2 1_555 1_555
O14A Nd1 1_555 1_555
O15A Nd2 1_555 1_555
O16_2 Nd2 1_555 1_555
O4 Nd2_2 1_555 1_555
O14 C23 1_555 1_555
O14 Nd1A 1_555 1_555
C1 C7 1_555 1_555
C5 C6 1_555 1_555
C9 C15 1_555 1_555
C13 C14 1_555 1_555
C17 C23 1_555 1_555
C21 C22 1_555 1_555
C28 C36 1_555 1_555
C31 C35 1_555 1_555
C33 C34 1_555 1_555
C35 C36 1_555 1_555
C40 C48 1_555 1_555
C43 C47 1_555 1_555
C45 C46 1_555 1_555
C47 C48 1_555 1_555
Nd1A O14A 1_555 1_555

#END
