
#######################################################################
#
#                 Cambridge Crystallographic Data Centre
#                                CCDC 
#
#######################################################################
#
# If this CIF has been generated from an entry in the Cambridge 
# Structural Database, then it will include bibliographic, chemical, 
# crystal, experimental, refinement or atomic coordinate data resulting 
# from the CCDC's data processing and validation procedures.
#
#######################################################################

data_YOGSET
_symmetry_cell_setting           triclinic
_symmetry_space_group_name_H-M   'P -1'
_symmetry_Int_Tables_number      2
_space_group_name_Hall           '-P 1'
loop_
_symmetry_equiv_pos_site_id
_symmetry_equiv_pos_as_xyz
1 x,y,z
2 -x,-y,-z
_cell_length_a                   13.104(3)
_cell_length_b                   14.325(3)
_cell_length_c                   14.761(3)
_cell_angle_alpha                105.50(3)
_cell_angle_beta                 115.10(3)
_cell_angle_gamma                90.68(3)
_cell_volume                     2392.92
loop_
_atom_site_label
_atom_site_type_symbol
_atom_site_fract_x
_atom_site_fract_y
_atom_site_fract_z
Eu1 Eu -0.004594(7) 0.561325(7) 0.135704(6)
Eu2 Eu 0.424100(7) 0.036160(7) -0.145750(7)
O1 O 0.17132(12) 0.49793(12) 0.16608(11)
O2 O 0.16542(12) 0.41732(11) 0.01122(10)
O3 O 0.38396(14) 0.14830(12) -0.01891(11)
O4 O 0.47047(14) 0.09186(12) 0.11783(13)
O5 O 0.5842(2) 0.3482(2) 0.46712(16)
O6 O 0.43709(19) 0.40777(18) 0.47811(13)
O7 O -0.07942(13) 0.67213(13) 0.23464(11)
O8 O 0.10706(13) 0.68259(13) 0.31324(11)
O9 O 0.31880(15) 0.91568(15) 0.68259(12)
O10 O 0.22912(15) 1.03539(12) 0.72848(13)
O11 O -0.19301(17) 0.97862(16) 0.54552(16)
O12 O -0.27367(17) 0.8371(2) 0.43815(17)
O13 O 0.30889(13) 0.93663(13) -0.10941(12)
O14 O 0.39437(13) 0.87645(13) 0.02380(13)
O15 O 0.06664(17) 0.71958(13) 0.12249(12)
O16 O 0.05182(12) 0.59074(11) -0.00192(10)
O17 O -0.2009(2) 0.7849(3) -0.2660(2)
O18 O -0.1022(2) 0.8533(2) -0.31726(19)
N1 N 0.4880(2) 0.36742(17) 0.42818(15)
N2 N -0.19082(18) 0.89897(18) 0.49245(15)
N3 N -0.1105(2) 0.8161(2) -0.2573(2)
N4 N -0.17845(16) 0.45783(15) 0.12847(14)
N5 N 0.03616(18) 0.48193(16) 0.28571(14)
N6 N 0.41773(15) 0.19795(14) -0.19297(13)
N7 N 0.53995(18) 0.05959(16) -0.24512(15)
C1 C 0.29267(16) 0.37790(15) 0.16074(14)
C2 C 0.31758(17) 0.29844(15) 0.09919(15)
H1 H 0.2812 0.2841 0.0266
C3 C 0.39585(16) 0.24020(15) 0.14438(14)
C4 C 0.45384(18) 0.26396(16) 0.25283(15)
H2 H 0.5083 0.2271 0.2845
C5 C 0.42866(19) 0.34352(17) 0.31233(15)
C6 C 0.34883(17) 0.40059(16) 0.26959(15)
H3 H 0.3328 0.4529 0.3123
C7 C 0.20326(16) 0.43659(15) 0.10913(14)
C8 C 0.41884(17) 0.15328(16) 0.07659(15)
C9 C 0.01809(18) 0.78492(16) 0.40566(14)
C10 C 0.12057(18) 0.83157(17) 0.49074(15)
H4 H 0.1893 0.8154 0.4912
C11 C 0.11938(19) 0.90335(17) 0.57615(15)
C12 C 0.01807(19) 0.92746(17) 0.57593(15)
H5 H 0.0171 0.9768 0.6311
C13 C -0.08224(18) 0.87678(17) 0.49185(15)
C14 C -0.08403(18) 0.80644(18) 0.40714(16)
H6 H -0.1529 0.7736 0.3514
C15 C 0.01711(18) 0.70898(16) 0.31251(15)
C16 C 0.23034(19) 0.95525(17) 0.66799(16)
C17 C 0.19459(17) 0.84298(15) -0.06848(15)
C18 C 0.18568(17) 0.78974(15) -0.00528(15)
H7 H 0.2509 0.7846 0.0514
C19 C 0.08168(18) 0.74463(15) -0.02553(15)
C20 C -0.01526(19) 0.75308(19) -0.10834(19)
H8 H -0.0860 0.7233 -0.1223
C21 C -0.0061(2) 0.8064(2) -0.1705(2)
C22 C 0.0970(2) 0.85169(18) -0.15180(18)
H9 H 0.1011 0.8876 -0.1944
C23 C 0.30809(17) 0.88902(16) -0.04979(16)
C24 C 0.06695(17) 0.68237(16) 0.03696(15)
C25 C -0.2819(2) 0.4415(2) 0.0513(2)
H10 H -0.2935 0.4664 -0.0038
C26 C -0.3753(3) 0.3895(3) 0.0466(2)
H11 H -0.4469 0.3813 -0.0094
C27 C -0.3599(3) 0.3515(3) 0.1242(3)
H12 H -0.4213 0.3162 0.1222
C28 C -0.2520(3) 0.3646(2) 0.2082(2)
C29 C -0.2255(3) 0.3236(3) 0.2954(3)
H13 H -0.2834 0.2877 0.2979
C30 C -0.1216(4) 0.3368(3) 0.3697(3)
H14 H -0.1080 0.3104 0.4243
C31 C -0.0292(3) 0.3895(3) 0.3706(2)
C32 C 0.0832(4) 0.4038(3) 0.4495(3)
H15 H 0.0997 0.3778 0.5047
C33 C 0.1659(3) 0.4545(3) 0.4453(2)
H16 H 0.2403 0.4629 0.4971
C34 C 0.1416(3) 0.4956(3) 0.3631(2)
H17 H 0.1998 0.5328 0.3625
C35 C -0.0495(2) 0.43092(19) 0.28897(18)
C36 C -0.1619(2) 0.41872(18) 0.20676(18)
C37 C 0.3506(2) 0.26182(18) -0.17709(18)
H18 H 0.3027 0.2467 -0.1496
C38 C 0.3477(2) 0.3506(2) -0.1993(2)
H19 H 0.2967 0.3921 -0.1899
C39 C 0.4214(2) 0.3751(2) -0.2349(2)
H20 H 0.4232 0.4355 -0.2470
C40 C 0.4946(2) 0.31022(18) -0.2537(2)
C41 C 0.5719(2) 0.3302(2) -0.2924(2)
H21 H 0.5777 0.3905 -0.3037
C42 C 0.6369(3) 0.2642(2) -0.3132(2)
H22 H 0.6875 0.2792 -0.3380
C43 C 0.6285(2) 0.1708(2) -0.2972(2)
C44 C 0.6906(3) 0.0993(3) -0.3227(3)
H23 H 0.7417 0.1119 -0.3479
C45 C 0.6752(3) 0.0099(3) -0.3099(3)
H24 H 0.7141 -0.0400 -0.3281
C46 C 0.6010(3) -0.0051(2) -0.2695(2)
H25 H 0.5939 -0.0655 -0.2589
C47 C 0.55302(19) 0.14840(18) -0.25910(16)
C48 C 0.48683(18) 0.22045(16) -0.23372(15)
Eu1A Eu 0.004594(7) 0.438675(7) -0.135704(6)
Eu2A Eu 0.575900(7) -0.036160(7) 0.145750(7)
Eu2_2 Eu 0.424100(7) 1.036160(7) 0.854250(7)
Eu2_3 Eu 0.424100(7) 1.036160(7) -0.145750(7)
Eu2A_2 Eu 0.575900(7) 0.963840(7) 0.145750(7)
O2A O -0.16542(12) 0.58268(11) -0.01122(10)
O4A O 0.52953(14) -0.09186(12) -0.11783(13)
O9_2 O 0.31880(15) -0.08432(15) -0.31741(12)
O10_2 O 0.22912(15) 0.03539(12) -0.27152(13)
O13_2 O 0.30889(13) -0.06337(13) -0.10941(12)
O14A O 0.60563(13) 0.12355(13) -0.02380(13)
O16A O -0.05182(12) 0.40926(11) 0.00192(10)
loop_
_geom_bond_atom_site_label_1
_geom_bond_atom_site_label_2
_geom_bond_site_symmetry_1
_geom_bond_site_symmetry_2
Eu1 O1 1_555 1_555
Eu2 O3 1_555 1_555
O1 C7 1_555 1_555
O2 C7 1_555 1_555
O3 C8 1_555 1_555
O4 C8 1_555 1_555
O5 N1 1_555 1_555
O6 N1 1_555 1_555
O7 Eu1 1_555 1_555
O8 Eu1 1_555 1_555
O9 C16 1_555 1_555
O10 C16 1_555 1_555
O11 N2 1_555 1_555
O12 N2 1_555 1_555
O13 C23 1_555 1_555
O14 C23 1_555 1_555
O15 Eu1 1_555 1_555
O16 Eu1 1_555 1_555
O17 N3 1_555 1_555
O18 N3 1_555 1_555
N1 C5 1_555 1_555
N2 C13 1_555 1_555
N3 C21 1_555 1_555
N4 Eu1 1_555 1_555
N5 Eu1 1_555 1_555
N6 Eu2 1_555 1_555
N7 Eu2 1_555 1_555
C1 C2 1_555 1_555
C2 H1 1_555 1_555
C3 C2 1_555 1_555
C4 C3 1_555 1_555
H2 C4 1_555 1_555
C5 C4 1_555 1_555
C6 C1 1_555 1_555
H3 C6 1_555 1_555
C7 C1 1_555 1_555
C8 C3 1_555 1_555
C9 C10 1_555 1_555
C10 H4 1_555 1_555
C11 C10 1_555 1_555
C12 C11 1_555 1_555
H5 C12 1_555 1_555
C13 C12 1_555 1_555
C14 C9 1_555 1_555
H6 C14 1_555 1_555
C15 O7 1_555 1_555
C16 C11 1_555 1_555
C17 C18 1_555 1_555
C18 H7 1_555 1_555
C19 C18 1_555 1_555
C20 C19 1_555 1_555
H8 C20 1_555 1_555
C21 C20 1_555 1_555
C22 C17 1_555 1_555
H9 C22 1_555 1_555
C23 C17 1_555 1_555
C24 O15 1_555 1_555
C25 N4 1_555 1_555
H10 C25 1_555 1_555
C26 C25 1_555 1_555
H11 C26 1_555 1_555
C27 C26 1_555 1_555
H12 C27 1_555 1_555
C28 C27 1_555 1_555
C29 C28 1_555 1_555
H13 C29 1_555 1_555
C30 C29 1_555 1_555
H14 C30 1_555 1_555
C31 C30 1_555 1_555
C32 C31 1_555 1_555
H15 C32 1_555 1_555
C33 C32 1_555 1_555
H16 C33 1_555 1_555
C34 N5 1_555 1_555
H17 C34 1_555 1_555
C35 N5 1_555 1_555
C36 N4 1_555 1_555
C37 N6 1_555 1_555
H18 C37 1_555 1_555
C38 C37 1_555 1_555
H19 C38 1_555 1_555
C39 C38 1_555 1_555
H20 C39 1_555 1_555
C40 C39 1_555 1_555
C41 C40 1_555 1_555
H21 C41 1_555 1_555
C42 C41 1_555 1_555
H22 C42 1_555 1_555
C43 C42 1_555 1_555
C44 C43 1_555 1_555
H23 C44 1_555 1_555
C45 C44 1_555 1_555
H24 C45 1_555 1_555
C46 N7 1_555 1_555
H25 C46 1_555 1_555
C47 N7 1_555 1_555
C48 N6 1_555 1_555
Eu1A O2 1_555 1_555
Eu2A O4 1_555 1_555
Eu2_2 O9 1_555 1_555
Eu2_3 O13 1_555 1_555
Eu2A_2 O14 1_555 1_555
O2A Eu1 1_555 1_555
O4A Eu2 1_555 1_555
O9_2 Eu2 1_555 1_555
O10_2 Eu2 1_555 1_555
O13_2 Eu2 1_555 1_555
O14A Eu2 1_555 1_555
O16A Eu1 1_555 1_555
O8 C15 1_555 1_555
O10 Eu2_2 1_555 1_555
O16 C24 1_555 1_555
O16 Eu1A 1_555 1_555
C5 C6 1_555 1_555
C9 C15 1_555 1_555
C13 C14 1_555 1_555
C19 C24 1_555 1_555
C21 C22 1_555 1_555
C28 C36 1_555 1_555
C31 C35 1_555 1_555
C33 C34 1_555 1_555
C35 C36 1_555 1_555
C40 C48 1_555 1_555
C43 C47 1_555 1_555
C45 C46 1_555 1_555
C47 C48 1_555 1_555
Eu1A O16A 1_555 1_555

#END
