
#######################################################################
#
#                 Cambridge Crystallographic Data Centre
#                                CCDC 
#
#######################################################################
#
# If this CIF has been generated from an entry in the Cambridge 
# Structural Database, then it will include bibliographic, chemical, 
# crystal, experimental, refinement or atomic coordinate data resulting 
# from the CCDC's data processing and validation procedures.
#
#######################################################################

data_YOGVEX
_symmetry_cell_setting           monoclinic
_symmetry_space_group_name_H-M   'P 21/n'
_symmetry_Int_Tables_number      14
_space_group_name_Hall           '-P 2yn'
loop_
_symmetry_equiv_pos_site_id
_symmetry_equiv_pos_as_xyz
1 x,y,z
2 1/2-x,1/2+y,1/2-z
3 -x,-y,-z
4 1/2+x,1/2-y,1/2+z
_cell_length_a                   8.130(2)
_cell_length_b                   20.174(5)
_cell_length_c                   9.014(2)
_cell_angle_alpha                90
_cell_angle_beta                 91.423(4)
_cell_angle_gamma                90
_cell_volume                     1477.97
loop_
_atom_site_label
_atom_site_type_symbol
_atom_site_fract_x
_atom_site_fract_y
_atom_site_fract_z
Zn1 Zn 0.5000 0.5000 0.5000
N1 N 0.3515(2) 0.57290(9) 0.61039(19)
N2 N 0.1812(2) 0.57947(10) 0.5883(2)
N3 N 0.2777(2) 0.66451(9) 0.7140(2)
N4 N 0.3035(2) 0.72663(10) 0.7762(2)
N5 N 0.1736(2) 0.75897(9) 0.7702(2)
N6 N 0.2016(2) 0.82169(9) 0.8289(2)
N7 N 0.1381(2) 0.91925(9) 0.90871(19)
N8 N 0.3086(2) 0.91289(10) 0.9206(2)
N9 N 0.6596(2) 0.49666(8) 0.69416(17)
N10 N 0.5818(2) 0.49526(9) 0.83065(19)
N11 N 0.8475(2) 0.49757(8) 0.86827(18)
N12 N 1.0039(2) 0.49955(9) 0.93118(18)
C1 C 0.4053(3) 0.62378(11) 0.6852(2)
H1 H 0.5167 0.6312 0.7151
C2 C 0.1404(3) 0.63518(12) 0.6500(3)
H2 H 0.0323 0.6530 0.6509
C3 C 0.0777(3) 0.86501(11) 0.8519(3)
H3 H -0.0355 0.8570 0.8299
C4 C 0.3438(3) 0.85379(12) 0.8716(3)
H4 H 0.4514 0.8358 0.8663
C5 C 0.8184(2) 0.49777(9) 0.7190(2)
H5 H 0.8999 0.4986 0.6452
C6 C 0.6967(2) 0.49612(11) 0.9336(2)
H6 H 0.6791 0.4958 1.0375
N9B N 1.3404(2) 0.50334(8) 1.30584(17)
N10B N 1.4182(2) 0.50474(9) 1.16935(19)
N11B N 1.1525(2) 0.50243(8) 1.13173(18)
N12B N 0.9961(2) 0.50045(9) 1.06882(18)
C5B C 1.1816(2) 0.50223(9) 1.2810(2)
H5B H 1.1001 0.5014 1.3548
C6B C 1.3033(2) 0.50388(11) 1.0664(2)
H6B H 1.3209 0.5042 0.9625
N1B N 0.6485(2) 0.42710(9) 0.38961(19)
N2B N 0.8188(2) 0.42053(10) 0.4117(2)
N3B N 0.7223(2) 0.33549(9) 0.2860(2)
N4B N 0.6965(2) 0.27337(10) 0.2238(2)
N5B N 0.8264(2) 0.24103(9) 0.2298(2)
N6B N 0.7984(2) 0.17831(9) 0.1711(2)
N7B N 0.8619(2) 0.08075(9) 0.09129(19)
N8B N 0.6914(2) 0.08711(10) 0.0794(2)
C1B C 0.5947(3) 0.37622(11) 0.3148(2)
H1B H 0.4833 0.3688 0.2849
C2B C 0.8596(3) 0.36482(12) 0.3500(3)
H2B H 0.9677 0.3470 0.3491
C3B C 0.9223(3) 0.13499(11) 0.1481(3)
H3B H 1.0355 0.1430 0.1701
C4B C 0.6562(3) 0.14621(12) 0.1284(3)
H4B H 0.5486 0.1642 0.1337
Zn1_2 Zn 1.5000 0.5000 1.5000
Zn1A Zn 0.0000 1.0000 1.0000
Zn1A_2 Zn 1.0000 0.0000 0.0000
N7A N 0.3619(2) 0.41925(9) 0.59129(19)
N7C N 0.6381(2) 0.58075(9) 0.40871(19)
N9B_2 N 0.3404(2) 0.50334(8) 0.30584(17)
Cl1 Cl 0.30807(10) 0.81531(4) 0.41051(8)
O1 O 0.2763(2) 0.81923(12) 0.2533(2)
O2 O 0.3297(4) 0.74790(12) 0.4547(3)
O3 O 0.4621(4) 0.85077(14) 0.4413(3)
O4 O 0.1745(4) 0.84489(16) 0.4864(3)
O5 O 0.1954(3) 0.66758(14) 0.1898(4)
H7 H 0.1036 0.6569 0.1181
H8 H 0.2246 0.7124 0.1860
loop_
_geom_bond_atom_site_label_1
_geom_bond_atom_site_label_2
_geom_bond_site_symmetry_1
_geom_bond_site_symmetry_2
Zn1 N1 1_555 1_555
N1 N2 1_555 1_555
N2 C2 1_555 1_555
N3 N4 1_555 1_555
N4 N5 1_555 1_555
N5 N6 1_555 1_555
N6 C3 1_555 1_555
N7 N8 1_555 1_555
N8 C4 1_555 1_555
N9 Zn1 1_555 1_555
N10 N9 1_555 1_555
N11 N12 1_555 1_555
N12 N12B 1_555 1_555
C1 N1 1_555 1_555
H1 C1 1_555 1_555
C2 N3 1_555 1_555
H2 C2 1_555 1_555
C3 N7 1_555 1_555
H3 C3 1_555 1_555
C4 N6 1_555 1_555
H4 C4 1_555 1_555
C5 N9 1_555 1_555
H5 C5 1_555 1_555
C6 N10 1_555 1_555
H6 C6 1_555 1_555
Cl1 O1 1_555 1_555
O2 Cl1 1_555 1_555
O3 Cl1 1_555 1_555
O4 Cl1 1_555 1_555
O5 H7 1_555 1_555
H8 O5 1_555 1_555
N9B N10B 1_555 1_555
N10B C6B 1_555 1_555
N11B N12B 1_555 1_555
C5B N9B 1_555 1_555
H5B C5B 1_555 1_555
C6B N11B 1_555 1_555
H6B C6B 1_555 1_555
N1B Zn1 1_555 1_555
N2B N1B 1_555 1_555
N3B N4B 1_555 1_555
N4B N5B 1_555 1_555
N5B N6B 1_555 1_555
N6B C3B 1_555 1_555
N7B N8B 1_555 1_555
N8B C4B 1_555 1_555
C1B N1B 1_555 1_555
H1B C1B 1_555 1_555
C2B N2B 1_555 1_555
H2B C2B 1_555 1_555
C3B N7B 1_555 1_555
H3B C3B 1_555 1_555
C4B N6B 1_555 1_555
H4B C4B 1_555 1_555
Zn1_2 N9B 1_555 1_555
Zn1A N7 1_555 1_555
Zn1A_2 N7B 1_555 1_555
N7A Zn1 1_555 1_555
N7C Zn1 1_555 1_555
N9B_2 Zn1 1_555 1_555
N3 C1 1_555 1_555
N11 C5 1_555 1_555
N11 C6 1_555 1_555
N11B C5B 1_555 1_555
N3B C1B 1_555 1_555
N3B C2B 1_555 1_555

#END
