
#######################################################################
#
#                 Cambridge Crystallographic Data Centre
#                                CCDC 
#
#######################################################################
#
# If this CIF has been generated from an entry in the Cambridge 
# Structural Database, then it will include bibliographic, chemical, 
# crystal, experimental, refinement or atomic coordinate data resulting 
# from the CCDC's data processing and validation procedures.
#
#######################################################################

data_YOGXOJ
_symmetry_cell_setting           monoclinic
_symmetry_space_group_name_H-M   'P 21/n'
_symmetry_Int_Tables_number      14
_space_group_name_Hall           '-P 2yn'
loop_
_symmetry_equiv_pos_site_id
_symmetry_equiv_pos_as_xyz
1 x,y,z
2 1/2-x,1/2+y,1/2-z
3 -x,-y,-z
4 1/2+x,1/2-y,1/2+z
_cell_length_a                   8.82110(10)
_cell_length_b                   16.10670(10)
_cell_length_c                   12.83460(10)
_cell_angle_alpha                90
_cell_angle_beta                 103.1234(6)
_cell_angle_gamma                90
_cell_volume                     1775.9
loop_
_atom_site_label
_atom_site_type_symbol
_atom_site_fract_x
_atom_site_fract_y
_atom_site_fract_z
K1 K 0.37794(3) 0.608737(15) 0.961980(18)
S1 S 0.18936(3) 0.559125(15) 0.71332(2)
S2 S 0.02784(3) 0.686399(16) 0.94791(2)
S3 S 0.55469(3) 0.808609(18) 0.83551(2)
O1 O 0.56555(10) 0.50545(5) 0.87594(6)
H1 H 0.517(2) 0.4789(11) 0.8237(15)
H2 H 0.619(2) 0.5396(13) 0.8497(16)
N1 N 0.05802(10) 0.71408(5) 0.67054(7)
N2 N -0.07682(10) 0.74712(6) 0.61020(7)
N3 N -0.16213(11) 0.68787(6) 0.56298(7)
N4 N -0.08473(10) 0.61586(5) 0.59214(7)
N5 N 0.08281(10) 0.81536(5) 0.82185(7)
N6 N 0.05552(11) 0.89849(5) 0.81359(7)
N7 N -0.01087(11) 0.92099(6) 0.88810(7)
N8 N -0.02717(10) 0.85239(5) 0.94559(7)
N9 N 0.26670(10) 0.82688(5) 0.69829(7)
N10 N 0.20201(10) 0.87414(5) 0.61105(7)
N11 N 0.30803(10) 0.92092(6) 0.58887(7)
N12 N 0.44204(10) 0.90424(6) 0.66099(7)
B1 B 0.17450(13) 0.76599(7) 0.75212(9)
H3 H 0.2532(15) 0.7242(8) 0.8031(10)
C1 C 0.05500(12) 0.62991(6) 0.66001(8)
C2 C -0.15835(13) 0.53702(7) 0.55613(9)
H4 H -0.1807(17) 0.5345(9) 0.4816(13)
H5 H -0.0858(17) 0.4935(9) 0.5857(12)
H6 H -0.2530(17) 0.5340(9) 0.5806(11)
C3 C 0.02904(11) 0.78472(6) 0.90493(8)
C4 C -0.09238(14) 0.85724(8) 1.03972(9)
H7 H -0.198(3) 0.8452(13) 1.0228(17)
H8 H -0.039(2) 0.8210(12) 1.0889(16)
H9 H -0.080(2) 0.9146(12) 1.0651(14)
C5 C 0.42041(12) 0.84589(6) 0.73151(8)
C6 C 0.58509(14) 0.94845(8) 0.65900(10)
H10 H 0.575(2) 0.9712(11) 0.5890(15)
H11 H 0.666(2) 0.9090(12) 0.6689(15)
H12 H 0.604(2) 0.9839(12) 0.7127(16)
K1B K 0.62206(3) 0.391263(15) 1.038020(18)
K1C K -0.12206(3) 0.891263(15) 0.461980(18)
O1B O 0.43445(10) 0.49455(5) 1.12406(6)
N2C N 0.42318(10) 0.75288(6) 1.11020(7)
N10C N 0.70201(10) 0.62586(5) 1.11105(7)
O2 O 0.79041(12) 0.12887(6) 0.71859(8)
H13 H 0.712(3) 0.1400(12) 0.6795(17)
H14 H 0.844(2) 0.1702(13) 0.7195(15)
loop_
_geom_bond_atom_site_label_1
_geom_bond_atom_site_label_2
_geom_bond_site_symmetry_1
_geom_bond_site_symmetry_2
K1 S1 1_555 1_555
S1 C1 1_555 1_555
S2 K1 1_555 1_555
S3 C5 1_555 1_555
O1 K1 1_555 1_555
H1 O1 1_555 1_555
H2 O1 1_555 1_555
N1 N2 1_555 1_555
N2 N3 1_555 1_555
N3 N4 1_555 1_555
N4 C1 1_555 1_555
N5 N6 1_555 1_555
N6 N7 1_555 1_555
N7 N8 1_555 1_555
N8 C3 1_555 1_555
N9 N10 1_555 1_555
N10 N11 1_555 1_555
N11 N12 1_555 1_555
N12 C5 1_555 1_555
B1 N1 1_555 1_555
H3 K1 1_555 1_555
C1 N1 1_555 1_555
C2 N4 1_555 1_555
H4 C2 1_555 1_555
H5 C2 1_555 1_555
H6 C2 1_555 1_555
C3 S2 1_555 1_555
C4 N8 1_555 1_555
H7 C4 1_555 1_555
H8 C4 1_555 1_555
H9 C4 1_555 1_555
C5 N9 1_555 1_555
C6 N12 1_555 1_555
H10 C6 1_555 1_555
H11 C6 1_555 1_555
H12 C6 1_555 1_555
O2 H13 1_555 1_555
H14 O2 1_555 1_555
K1B O1 1_555 1_555
K1C N2 1_555 1_555
O1B K1 1_555 1_555
N2C K1 1_555 1_555
N10C K1 1_555 1_555
N5 B1 1_555 1_555
N5 C3 1_555 1_555
N9 B1 1_555 1_555
N10 K1C 1_555 1_555
B1 H3 1_555 1_555
K1B O1B 1_555 1_555

#END
