
#######################################################################
#
#                 Cambridge Crystallographic Data Centre
#                                CCDC 
#
#######################################################################
#
# If this CIF has been generated from an entry in the Cambridge 
# Structural Database, then it will include bibliographic, chemical, 
# crystal, experimental, refinement or atomic coordinate data resulting 
# from the CCDC's data processing and validation procedures.
#
#######################################################################

data_YOGXID
_symmetry_cell_setting           triclinic
_symmetry_space_group_name_H-M   'P -1'
_symmetry_Int_Tables_number      2
_space_group_name_Hall           '-P 1'
loop_
_symmetry_equiv_pos_site_id
_symmetry_equiv_pos_as_xyz
1 x,y,z
2 -x,-y,-z
_cell_length_a                   9.3355(2)
_cell_length_b                   12.8329(3)
_cell_length_c                   15.7966(3)
_cell_angle_alpha                83.0920(13)
_cell_angle_beta                 89.0734(15)
_cell_angle_gamma                85.1892(11)
_cell_volume                     1872.06
loop_
_atom_site_label
_atom_site_type_symbol
_atom_site_fract_x
_atom_site_fract_y
_atom_site_fract_z
S1 S 0.78286(7) 0.41871(5) 0.24793(4)
S2 S 0.55046(7) 0.17153(5) 0.10250(4)
S3 S 1.07016(7) 0.14815(5) 0.03830(4)
S4 S 0.61357(6) 0.65433(5) 0.09138(4)
S5 S 0.06133(7) 0.66273(5) 0.14001(4)
S6 S 0.34209(7) 0.35698(5) 0.31751(4)
Na1 Na 0.88523(10) 0.50374(7) 0.08777(6)
Na2 Na 0.5000 0.5000 0.0000
Na3 Na 0.5000 0.0000 0.5000
N1 N 0.9274(2) 0.22312(15) 0.28237(12)
N2 N 1.0202(2) 0.17193(15) 0.34237(13)
N3 N 1.0510(2) 0.23630(15) 0.39380(13)
N4 N 0.9764(2) 0.33029(15) 0.36827(12)
N5 N 0.7143(2) 0.13194(15) 0.24766(12)
N6 N 0.6953(2) 0.09750(16) 0.33206(12)
N7 N 0.5628(2) 0.08236(15) 0.34483(12)
N8 N 0.4944(2) 0.10692(14) 0.26920(12)
N9 N 0.9616(2) 0.07138(15) 0.19416(12)
N10 N 0.9813(2) -0.01994(16) 0.24976(13)
N11 N 1.0738(2) -0.08317(15) 0.21774(12)
N12 N 1.1162(2) -0.03451(15) 0.14160(12)
N13 N 0.4504(2) 0.71374(14) 0.22803(11)
N14 N 0.4335(2) 0.80008(14) 0.27123(12)
N15 N 0.5131(2) 0.87007(15) 0.23583(13)
N16 N 0.5831(2) 0.82941(14) 0.16991(12)
N17 N 0.2199(2) 0.64601(14) 0.28682(11)
N18 N 0.1959(2) 0.66203(16) 0.37004(12)
N19 N 0.0621(2) 0.68630(16) 0.38072(13)
N20 N -0.0028(2) 0.68685(14) 0.30487(12)
N21 N 0.45682(19) 0.54566(14) 0.32576(11)
N22 N 0.5586(2) 0.58383(15) 0.37224(12)
N23 N 0.6149(2) 0.50803(14) 0.42478(12)
N24 N 0.5495(2) 0.42043(14) 0.41313(12)
O1 O 1.08790(18) 0.39974(13) 0.05099(11)
H1 H 1.165(2) 0.397(2) 0.0750(17)
H2 H 1.076(3) 0.3348(15) 0.0529(18)
O2 O 0.72547(18) 0.39730(13) 0.02169(11)
H3 H 0.762(3) 0.378(2) -0.0217(14)
H4 H 0.716(3) 0.3431(17) 0.0540(16)
O3 O 0.36999(18) 0.39671(13) 0.10708(11)
H5 H 0.370(3) 0.405(2) 0.1577(12)
H6 H 0.403(3) 0.3354(16) 0.1040(18)
O4 O 0.6922(2) -0.13335(18) 0.49374(15)
H7 H 0.776(3) -0.122(3) 0.478(2)
H8 H 0.706(4) -0.177(3) 0.5360(18)
O5 O 0.6718(2) 0.09703(15) 0.56513(12)
H9 H 0.761(2) 0.099(3) 0.560(2)
H10 H 0.655(3) 0.135(2) 0.6046(17)
B1 B 0.8603(3) 0.1679(2) 0.21318(17)
H11 H 0.839(2) 0.2250(18) 0.1547(15)
B2 B 0.3714(3) 0.6135(2) 0.25343(17)
H12 H 0.363(2) 0.5721(18) 0.1959(14)
C1 C 0.8969(2) 0.32452(18) 0.29811(15)
C2 C 0.9930(3) 0.42205(19) 0.41147(16)
H13 H 1.0611 0.4662 0.3796
H14 H 1.0294 0.3994 0.4692
H15 H 0.8997 0.4625 0.4148
C3 C 0.5871(2) 0.13795(17) 0.20668(15)
C4 C 0.3407(2) 0.09893(19) 0.26235(17)
H16 H 0.2972 0.1619 0.2279
H17 H 0.2972 0.0931 0.3194
H18 H 0.3241 0.0364 0.2351
C5 C 1.0480(2) 0.06312(18) 0.12515(14)
C6 C 1.2258(3) -0.08382(19) 0.08923(16)
H19 H 1.1879 -0.0850 0.0319
H20 H 1.2523 -0.1561 0.1150
H21 H 1.3108 -0.0435 0.0856
C7 C 0.5467(2) 0.73092(17) 0.16368(14)
C8 C 0.6817(3) 0.88823(19) 0.11476(17)
H22 H 0.7798 0.8555 0.1237
H23 H 0.6770 0.9610 0.1282
H24 H 0.6548 0.8878 0.0551
C9 C 0.0939(2) 0.66316(16) 0.24403(14)
C10 C -0.1571(2) 0.7138(2) 0.29607(17)
H25 H -0.2037 0.7014 0.3520
H26 H -0.1964 0.6699 0.2569
H27 H -0.1748 0.7882 0.2734
C11 C 0.4501(2) 0.44137(17) 0.35163(14)
C12 C 0.5945(3) 0.31806(18) 0.45949(15)
H28 H 0.6326 0.2702 0.4192
H29 H 0.5119 0.2890 0.4900
H30 H 0.6693 0.3262 0.5004
S1A S 0.21714(7) -0.41871(5) 0.75207(4)
S2A S 0.44954(7) -0.17153(5) 0.89750(4)
S3A S -0.07016(7) -0.14815(5) 0.96170(4)
S4A S 0.38643(6) -0.65433(5) 0.90862(4)
S5A S 0.93867(7) -0.66273(5) 0.85999(4)
S6A S 0.65791(7) -0.35698(5) 0.68249(4)
Na1A Na 0.11477(10) -0.50374(7) 0.91223(6)
N1A N 0.0726(2) -0.22312(15) 0.71763(12)
N2A N -0.0202(2) -0.17193(15) 0.65763(13)
N3A N -0.0510(2) -0.23630(15) 0.60620(13)
N4A N 0.0236(2) -0.33029(15) 0.63173(12)
N5A N 0.2857(2) -0.13194(15) 0.75234(12)
N6A N 0.3047(2) -0.09750(16) 0.66794(12)
N7A N 0.4372(2) -0.08236(15) 0.65517(12)
N8A N 0.5056(2) -0.10692(14) 0.73080(12)
N9A N 0.0384(2) -0.07138(15) 0.80584(12)
N10A N 0.0187(2) 0.01994(16) 0.75024(13)
N11A N -0.0738(2) 0.08317(15) 0.78226(12)
N12A N -0.1162(2) 0.03451(15) 0.85840(12)
N13A N 0.5496(2) -0.71374(14) 0.77197(11)
N14A N 0.5665(2) -0.80008(14) 0.72877(12)
N15A N 0.4869(2) -0.87007(15) 0.76417(13)
N16A N 0.4169(2) -0.82941(14) 0.83009(12)
N17A N 0.7801(2) -0.64601(14) 0.71318(11)
N18A N 0.8041(2) -0.66203(16) 0.62996(12)
N19A N 0.9379(2) -0.68630(16) 0.61928(13)
N20A N 1.0028(2) -0.68685(14) 0.69513(12)
N21A N 0.54318(19) -0.54566(14) 0.67424(11)
N22A N 0.4414(2) -0.58383(15) 0.62776(12)
N23A N 0.3851(2) -0.50803(14) 0.57522(12)
N24A N 0.4505(2) -0.42043(14) 0.58687(12)
O1A O -0.08790(18) -0.39974(13) 0.94901(11)
H1A H -0.165(2) -0.397(2) 0.9250(17)
H2A H -0.076(3) -0.3348(15) 0.9471(18)
O2A O 0.27453(18) -0.39730(13) 0.97831(11)
H3A H 0.238(3) -0.378(2) 1.0217(14)
H4A H 0.284(3) -0.3431(17) 0.9460(16)
O4A O 0.3078(2) 0.13335(18) 0.50626(15)
H7A H 0.224(3) 0.122(3) 0.522(2)
H8A H 0.294(4) 0.177(3) 0.4640(18)
O5A O 0.3282(2) -0.09703(15) 0.43487(12)
H9A H 0.239(2) -0.099(3) 0.440(2)
H10A H 0.345(3) -0.135(2) 0.3954(17)
B1A B 0.1397(3) -0.1679(2) 0.78682(17)
H11A H 0.161(2) -0.2250(18) 0.8453(15)
B2A B 0.6286(3) -0.6135(2) 0.74657(17)
H12A H 0.637(2) -0.5721(18) 0.8041(14)
C1A C 0.1031(2) -0.32452(18) 0.70189(15)
C2A C 0.0070(3) -0.42205(19) 0.58853(16)
H13A H -0.0611 -0.4662 0.6204
H14A H -0.0294 -0.3994 0.5308
H15A H 0.1003 -0.4625 0.5852
C3A C 0.4129(2) -0.13795(17) 0.79332(15)
C4A C 0.6593(2) -0.09893(19) 0.73765(17)
H16A H 0.7028 -0.1619 0.7721
H17A H 0.7028 -0.0931 0.6806
H18A H 0.6759 -0.0364 0.7649
C5A C -0.0480(2) -0.06312(18) 0.87485(14)
C6A C -0.2258(3) 0.08382(19) 0.91077(16)
H19A H -0.1879 0.0850 0.9681
H20A H -0.2523 0.1561 0.8850
H21A H -0.3108 0.0435 0.9144
C7A C 0.4533(2) -0.73092(17) 0.83632(14)
C8A C 0.3183(3) -0.88823(19) 0.88524(17)
H22A H 0.2202 -0.8555 0.8763
H23A H 0.3230 -0.9610 0.8718
H24A H 0.3452 -0.8878 0.9449
C9A C 0.9061(2) -0.66316(16) 0.75597(14)
C10A C 1.1571(2) -0.7138(2) 0.70393(17)
H25A H 1.2037 -0.7014 0.6480
H26A H 1.1964 -0.6699 0.7431
H27A H 1.1748 -0.7882 0.7266
C11A C 0.5499(2) -0.44137(17) 0.64837(14)
C12A C 0.4055(3) -0.31806(18) 0.54051(15)
H28A H 0.3674 -0.2702 0.5808
H29A H 0.4881 -0.2890 0.5100
H30A H 0.3307 -0.3262 0.4996
O3A O 0.63001(18) 0.60329(13) -0.10708(11)
H5A H 0.630(3) 0.595(2) -0.1577(12)
H6A H 0.597(3) 0.6646(16) -0.1040(18)
S4A_2 S 0.38643(6) 0.34567(5) -0.09138(4)
S5_2 S 1.06133(7) 0.66273(5) 0.14001(4)
S5A_2 S -0.06133(7) -0.66273(5) 0.85999(4)
Na1_2 Na -0.11477(10) -0.49626(7) 1.08777(6)
Na1_3 Na -0.11477(10) 0.50374(7) 0.08777(6)
Na1A_2 Na 1.11477(10) -0.50374(7) 0.91223(6)
Na1A_3 Na 1.11477(10) 0.49626(7) -0.08777(6)
Na2_2 Na 0.5000 -0.5000 1.0000
O1_2 O 0.08790(18) -0.60026(13) 1.05099(11)
O1A_2 O 0.91210(18) 0.60026(13) -0.05099(11)
O2A_2 O 0.27453(18) 0.60270(13) -0.02169(11)
O6 O 0.9972(3) -0.0725(2) 0.43950(14)
H31 H 0.994(5) -0.038(3) 0.3899(16)
H32 H 0.995(11) -0.023(5) 0.472(5)
H33? H 0.931(7) -0.111(6) 0.429(6)
loop_
_geom_bond_atom_site_label_1
_geom_bond_atom_site_label_2
_geom_bond_site_symmetry_1
_geom_bond_site_symmetry_2
S1 Na1 1_555 1_555
S2 C3 1_555 1_555
S3 C5 1_555 1_555
S4 Na1 1_555 1_555
S5 C9 1_555 1_555
S6 C11 1_555 1_555
Na1 O1 1_555 1_555
Na2 S4 1_555 1_555
Na3 N7 1_555 1_555
N1 N2 1_555 1_555
N2 N3 1_555 1_555
N3 N4 1_555 1_555
N4 C1 1_555 1_555
N5 N6 1_555 1_555
N6 N7 1_555 1_555
N7 N8 1_555 1_555
N8 C3 1_555 1_555
N9 N10 1_555 1_555
N10 N11 1_555 1_555
N11 N12 1_555 1_555
N12 C5 1_555 1_555
N13 N14 1_555 1_555
N14 N15 1_555 1_555
N15 N16 1_555 1_555
N16 C7 1_555 1_555
N17 N18 1_555 1_555
N18 N19 1_555 1_555
N19 N20 1_555 1_555
N20 C9 1_555 1_555
N21 N22 1_555 1_555
N22 N23 1_555 1_555
N23 N24 1_555 1_555
N24 C11 1_555 1_555
O1 H1 1_555 1_555
H2 O1 1_555 1_555
O2 Na1 1_555 1_555
H3 O2 1_555 1_555
H4 O2 1_555 1_555
O3 Na2 1_555 1_555
H5 O3 1_555 1_555
H6 O3 1_555 1_555
O4 Na3 1_555 1_555
H7 O4 1_555 1_555
H8 O4 1_555 1_555
O5 Na3 1_555 1_555
H9 O5 1_555 1_555
H10 O5 1_555 1_555
B1 N1 1_555 1_555
H11 B1 1_555 1_555
B2 N13 1_555 1_555
H12 B2 1_555 1_555
C1 S1 1_555 1_555
C2 N4 1_555 1_555
H13 C2 1_555 1_555
H14 C2 1_555 1_555
H15 C2 1_555 1_555
C3 N5 1_555 1_555
C4 N8 1_555 1_555
H16 C4 1_555 1_555
H17 C4 1_555 1_555
H18 C4 1_555 1_555
C5 N9 1_555 1_555
C6 N12 1_555 1_555
H19 C6 1_555 1_555
H20 C6 1_555 1_555
H21 C6 1_555 1_555
C7 S4 1_555 1_555
C8 N16 1_555 1_555
H22 C8 1_555 1_555
H23 C8 1_555 1_555
H24 C8 1_555 1_555
C9 N17 1_555 1_555
C10 N20 1_555 1_555
H25 C10 1_555 1_555
H26 C10 1_555 1_555
H27 C10 1_555 1_555
C11 N21 1_555 1_555
C12 N24 1_555 1_555
H28 C12 1_555 1_555
H29 C12 1_555 1_555
H30 C12 1_555 1_555
O6 H31 1_555 1_555
H32 O6 1_555 1_555
S1A Na1A 1_555 1_555
S2A C3A 1_555 1_555
S3A C5A 1_555 1_555
S4A Na1A 1_555 1_555
S5A C9A 1_555 1_555
S6A C11A 1_555 1_555
Na1A O1A 1_555 1_555
N1A N2A 1_555 1_555
N2A N3A 1_555 1_555
N3A N4A 1_555 1_555
N4A C1A 1_555 1_555
N5A N6A 1_555 1_555
N6A N7A 1_555 1_555
N7A Na3 1_555 1_555
N8A N7A 1_555 1_555
N9A N10A 1_555 1_555
N10A N11A 1_555 1_555
N11A N12A 1_555 1_555
N12A C5A 1_555 1_555
N13A N14A 1_555 1_555
N14A N15A 1_555 1_555
N15A N16A 1_555 1_555
N16A C7A 1_555 1_555
N17A N18A 1_555 1_555
N18A N19A 1_555 1_555
N19A N20A 1_555 1_555
N20A C9A 1_555 1_555
N21A N22A 1_555 1_555
N22A N23A 1_555 1_555
N23A N24A 1_555 1_555
N24A C11A 1_555 1_555
O1A H1A 1_555 1_555
H2A O1A 1_555 1_555
O2A Na1A 1_555 1_555
H3A O2A 1_555 1_555
H4A O2A 1_555 1_555
O4A Na3 1_555 1_555
H7A O4A 1_555 1_555
H8A O4A 1_555 1_555
O5A Na3 1_555 1_555
H9A O5A 1_555 1_555
H10A O5A 1_555 1_555
B1A N1A 1_555 1_555
H11A B1A 1_555 1_555
B2A N13A 1_555 1_555
H12A B2A 1_555 1_555
C1A S1A 1_555 1_555
C2A N4A 1_555 1_555
H13A C2A 1_555 1_555
H14A C2A 1_555 1_555
H15A C2A 1_555 1_555
C3A N5A 1_555 1_555
C4A N8A 1_555 1_555
H16A C4A 1_555 1_555
H17A C4A 1_555 1_555
H18A C4A 1_555 1_555
C5A N9A 1_555 1_555
C6A N12A 1_555 1_555
H19A C6A 1_555 1_555
H20A C6A 1_555 1_555
H21A C6A 1_555 1_555
C7A S4A 1_555 1_555
C8A N16A 1_555 1_555
H22A C8A 1_555 1_555
H23A C8A 1_555 1_555
H24A C8A 1_555 1_555
C9A N17A 1_555 1_555
C10A N20A 1_555 1_555
H25A C10A 1_555 1_555
H26A C10A 1_555 1_555
H27A C10A 1_555 1_555
C11A N21A 1_555 1_555
C12A N24A 1_555 1_555
H28A C12A 1_555 1_555
H29A C12A 1_555 1_555
H30A C12A 1_555 1_555
O3A Na2 1_555 1_555
H5A O3A 1_555 1_555
H6A O3A 1_555 1_555
S4A_2 Na2 1_555 1_555
S5_2 Na1 1_555 1_555
S5A_2 Na1A 1_555 1_555
Na1_2 O1A 1_555 1_555
Na1_3 S5 1_555 1_555
Na1A_2 S5A 1_555 1_555
Na1A_3 O1 1_555 1_555
Na2_2 S4A 1_555 1_555
O1_2 Na1A 1_555 1_555
O1A_2 Na1 1_555 1_555
O2A_2 Na2 1_555 1_555
Na2 O2 1_555 1_555
N1 C1 1_555 1_555
N5 B1 1_555 1_555
N9 B1 1_555 1_555
N13 C7 1_555 1_555
N17 B2 1_555 1_555
N21 B2 1_555 1_555
N1A C1A 1_555 1_555
N5A B1A 1_555 1_555
N8A C3A 1_555 1_555
N9A B1A 1_555 1_555
N13A C7A 1_555 1_555
N17A B2A 1_555 1_555
N21A B2A 1_555 1_555
O2A Na2_2 1_555 1_555
Na1_2 O1_2 1_555 1_555
Na1A_3 O1A_2 1_555 1_555

#END
