
#######################################################################
#
#                 Cambridge Crystallographic Data Centre
#                                CCDC 
#
#######################################################################
#
# If this CIF has been generated from an entry in the Cambridge 
# Structural Database, then it will include bibliographic, chemical, 
# crystal, experimental, refinement or atomic coordinate data resulting 
# from the CCDC's data processing and validation procedures.
#
#######################################################################

data_YOGYAW
_symmetry_cell_setting           monoclinic
_symmetry_space_group_name_H-M   'P 21/c'
_symmetry_Int_Tables_number      14
_space_group_name_Hall           '-P 2ybc'
loop_
_symmetry_equiv_pos_site_id
_symmetry_equiv_pos_as_xyz
1 x,y,z
2 -x,1/2+y,1/2-z
3 -x,-y,-z
4 x,1/2-y,1/2+z
_cell_length_a                   7.1466(2)
_cell_length_b                   6.1686(2)
_cell_length_c                   43.2407(11)
_cell_angle_alpha                90
_cell_angle_beta                 92.3920(10)
_cell_angle_gamma                90
_cell_volume                     1904.58
loop_
_atom_site_label
_atom_site_type_symbol
_atom_site_fract_x
_atom_site_fract_y
_atom_site_fract_z
Na1 Na 0.72619(16) 0.3077(2) 0.37552(3)
S1 S 0.49936(9) 0.62753(12) 0.334052(16)
S2 S -0.05994(10) 0.54824(13) 0.423918(16)
N1 N 0.1553(3) 0.4748(4) 0.34979(5)
N2 N -0.0286(3) 0.5193(4) 0.34301(5)
N3 N -0.0413(3) 0.6738(4) 0.32323(5)
N4 N 0.1376(3) 0.7326(4) 0.31694(5)
N5 N 0.2802(3) 0.4165(4) 0.40380(5)
N6 N 0.4654(3) 0.4413(4) 0.41238(6)
N7 N 0.4800(3) 0.5669(4) 0.43597(5)
N8 N 0.3022(3) 0.6285(4) 0.44280(5)
O1 O 0.6582(4) 0.1345(4) 0.32493(6)
H1 H 0.564(5) 0.216(7) 0.3183(10)
H2 H 0.615(6) -0.003(4) 0.3227(10)
O2 O 0.6976(4) -0.0401(5) 0.39405(7)
H3 H 0.733(7) -0.028(9) 0.3732(12)
H4 H 0.788(7) -0.139(9) 0.4047(12)
B1 B 0.2165(4) 0.2933(5) 0.37379(7)
H5 H 0.1103 0.1955 0.3778
H6 H 0.3208 0.2062 0.3660
C1 C 0.2633(4) 0.6103(5) 0.33371(6)
C2 C 0.1719(4) 0.8959(5) 0.29414(6)
C3 C 0.0812(4) 1.0948(5) 0.29577(7)
H7 H -0.0011 1.1244 0.3119
C4 C 0.1138(4) 1.2488(5) 0.27328(7)
H8 H 0.0532 1.3856 0.2740
C5 C 0.2348(4) 1.2043(5) 0.24963(7)
H9 H 0.2587 1.3116 0.2345
C6 C 0.3202(4) 1.0035(5) 0.24820(7)
H10 H 0.4006 0.9721 0.2318
C7 C 0.2892(4) 0.8475(5) 0.27054(7)
H11 H 0.3477 0.7096 0.2696
C8 C 0.1744(4) 0.5332(5) 0.42295(6)
C9 C 0.2722(4) 0.7835(5) 0.46677(6)
C10 C 0.3145(4) 0.7290(5) 0.49733(7)
H12 H 0.3558 0.5869 0.5027
C11 C 0.2954(4) 0.8856(5) 0.52002(7)
H13 H 0.3257 0.8516 0.5411
C12 C 0.2320(4) 1.0918(5) 0.51207(7)
H14 H 0.2205 1.1991 0.5276
C13 C 0.1857(4) 1.1411(5) 0.48145(7)
H15 H 0.1390 1.2811 0.4762
C14 C 0.2067(4) 0.9878(5) 0.45841(7)
H16 H 0.1768 1.0219 0.4373
Na1_2 Na -0.27381(16) 0.3077(2) 0.37552(3)
S2_2 S 0.94006(10) 0.54824(13) 0.423918(16)
N2_2 N 0.9714(3) 0.5193(4) 0.34301(5)
loop_
_geom_bond_atom_site_label_1
_geom_bond_atom_site_label_2
_geom_bond_site_symmetry_1
_geom_bond_site_symmetry_2
Na1 S1 1_555 1_555
S1 C1 1_555 1_555
S2 C8 1_555 1_555
N1 N2 1_555 1_555
N2 N3 1_555 1_555
N3 N4 1_555 1_555
N4 C1 1_555 1_555
N5 N6 1_555 1_555
N6 Na1 1_555 1_555
N7 N6 1_555 1_555
N8 N7 1_555 1_555
O1 Na1 1_555 1_555
H1 O1 1_555 1_555
H2 O1 1_555 1_555
O2 Na1 1_555 1_555
H3 O2 1_555 1_555
H4 O2 1_555 1_555
B1 N1 1_555 1_555
H5 B1 1_555 1_555
H6 B1 1_555 1_555
C1 N1 1_555 1_555
C2 N4 1_555 1_555
C3 C2 1_555 1_555
H7 C3 1_555 1_555
C4 C3 1_555 1_555
H8 C4 1_555 1_555
C5 C4 1_555 1_555
H9 C5 1_555 1_555
C6 C5 1_555 1_555
H10 C6 1_555 1_555
C7 C2 1_555 1_555
H11 C7 1_555 1_555
C8 N5 1_555 1_555
C9 N8 1_555 1_555
C10 C9 1_555 1_555
H12 C10 1_555 1_555
C11 C10 1_555 1_555
H13 C11 1_555 1_555
C12 C11 1_555 1_555
H14 C12 1_555 1_555
C13 C12 1_555 1_555
H15 C13 1_555 1_555
C14 C9 1_555 1_555
H16 C14 1_555 1_555
Na1_2 S2 1_555 1_555
S2_2 Na1 1_555 1_555
N2_2 Na1 1_555 1_555
N2 Na1_2 1_555 1_555
N5 B1 1_555 1_555
N8 C8 1_555 1_555
C6 C7 1_555 1_555
C13 C14 1_555 1_555

#END
