
#######################################################################
#
#                 Cambridge Crystallographic Data Centre
#                                CCDC 
#
#######################################################################
#
# If this CIF has been generated from an entry in the Cambridge 
# Structural Database, then it will include bibliographic, chemical, 
# crystal, experimental, refinement or atomic coordinate data resulting 
# from the CCDC's data processing and validation procedures.
#
#######################################################################

data_YOGZUP
_symmetry_cell_setting           monoclinic
_symmetry_space_group_name_H-M   'P 1 1 21/a'
_symmetry_Int_Tables_number      14
_space_group_name_Hall           '-P 2ac'
loop_
_symmetry_equiv_pos_site_id
_symmetry_equiv_pos_as_xyz
1 x,y,z
2 1/2-x,-y,1/2+z
3 -x,-y,-z
4 1/2+x,y,1/2-z
_cell_length_a                   35.016(11)
_cell_length_b                   6.531(2)
_cell_length_c                   3.894(1)
_cell_angle_alpha                90
_cell_angle_beta                 90
_cell_angle_gamma                92.49(2)
_cell_volume                     889.676
loop_
_atom_site_label
_atom_site_type_symbol
_atom_site_fract_x
_atom_site_fract_y
_atom_site_fract_z
Ag1 Ag 0.04071(3) 0.2115(1) 0.1303(3)
O1 O 0.1074(2) 0.1241(11) 0.4168(31)
O2 O 0.0087(2) -0.2187(11) 0.3561(30)
N1 N 0.0398(2) -0.1065(12) 0.3567(30)
N2 N 0.0602(2) -0.5172(13) 0.8431(33)
C1 C 0.1065(3) -0.0569(15) 0.5078(29)
C2 C 0.0705(3) -0.1795(15) 0.5159(32)
C3 C 0.0657(3) -0.3676(18) 0.6959(27)
C4 C 0.14277(3) -0.1515(18) 0.6157(36)
C5 C 0.1494(3) -0.3632(20) 0.5316(32)
C6 C 0.1855(4) -0.4288(27) 0.6152(51)
C7 C 0.2126(4) -0.3037(35) 0.7734(43)
C8 C 0.2056(4) -0.1025(34) 0.8687(45)
C9 C 0.1703(3) -0.0241(25) 0.7793(36)
O2B O -0.0087(2) 0.2187(11) -0.3561(30)
O2B_2 O -0.0087(2) 0.2187(11) 0.6439(30)
N2_2 N 0.0602(2) 0.4828(13) -0.1569(33)
Ag1B Ag -0.04071(3) -0.2115(1) -0.1303(3)
Ag1B_2 Ag -0.04071(3) -0.2115(1) 0.8697(3)
Ag1_2 Ag 0.04071(3) -0.7885(1) 1.1303(3)
loop_
_geom_bond_atom_site_label_1
_geom_bond_atom_site_label_2
_geom_bond_site_symmetry_1
_geom_bond_site_symmetry_2
Ag1 O1 1_555 1_555
O1 C1 1_555 1_555
O2 N1 1_555 1_555
N1 Ag1 1_555 1_555
N2 C3 1_555 1_555
C1 C2 1_555 1_555
C2 N1 1_555 1_555
C3 C2 1_555 1_555
C4 C1 1_555 1_555
C5 C4 1_555 1_555
C6 C5 1_555 1_555
C7 C6 1_555 1_555
C8 C7 1_555 1_555
C9 C4 1_555 1_555
O2B Ag1 1_555 1_555
O2B_2 Ag1 1_555 1_555
N2_2 Ag1 1_555 1_555
Ag1B O2 1_555 1_555
Ag1B_2 O2 1_555 1_555
Ag1_2 N2 1_555 1_555
C8 C9 1_555 1_555

#END
