
#######################################################################
#
#                 Cambridge Crystallographic Data Centre
#                                CCDC 
#
#######################################################################
#
# If this CIF has been generated from an entry in the Cambridge 
# Structural Database, then it will include bibliographic, chemical, 
# crystal, experimental, refinement or atomic coordinate data resulting 
# from the CCDC's data processing and validation procedures.
#
#######################################################################

data_YOHCIJ
_symmetry_cell_setting           triclinic
_symmetry_space_group_name_H-M   'P -1'
_symmetry_Int_Tables_number      2
_space_group_name_Hall           '-P 1'
loop_
_symmetry_equiv_pos_site_id
_symmetry_equiv_pos_as_xyz
1 x,y,z
2 -x,-y,-z
_cell_length_a                   10.893(2)
_cell_length_b                   11.639(2)
_cell_length_c                   12.166(2)
_cell_angle_alpha                65.35(3)
_cell_angle_beta                 78.14(3)
_cell_angle_gamma                79.71(3)
_cell_volume                     1364.46
loop_
_atom_site_label
_atom_site_type_symbol
_atom_site_fract_x
_atom_site_fract_y
_atom_site_fract_z
O1 O -0.1912(3) 0.4818(3) 0.8961(3)
O2 O -0.1427(3) 0.4819(3) 0.7087(3)
C1 C -0.1850(4) 0.4338(4) 0.8192(4)
C2 C -0.2365(4) 0.3062(4) 0.8690(4)
C3 C -0.3239(4) 0.2711(4) 0.9761(4)
H1 H -0.3450 0.3238 1.0188
C4 C -0.3792(5) 0.1602(5) 1.0193(4)
H2 H -0.4389 0.1397 1.0895
O3 O 0.0581(3) 0.6591(3) 0.6780(3)
O4 O 0.0551(3) 0.5332(3) 0.8733(3)
C5 C 0.1081(4) 0.5690(4) 0.7634(4)
C6 C 0.2394(4) 0.5097(4) 0.7405(4)
C7 C 0.3216(4) 0.5122(4) 0.8146(4)
H3 H 0.2913 0.5456 0.8736
Gd1 Gd 0.057918(19) 0.342024(18) 0.465637(18)
Cu1 Cu 0.11576(5) 0.37021(5) 0.12620(5)
O5 O 0.2186(3) 0.2496(3) 0.3595(3)
O6 O -0.1507(3) 0.2781(3) 0.5927(3)
O7 O 0.0050(3) 0.2461(3) 0.6946(3)
O8 O 0.2066(3) -0.0168(3) 0.3902(3)
O9 O 0.3454(3) -0.1880(3) 0.4133(3)
O10 O 0.0944(3) 0.4806(2) 0.5687(3)
O11 O 0.2481(3) 0.3414(3) 0.5426(3)
O12 O 0.2703(3) 0.2559(3) 0.1706(3)
N1 N 0.0639(4) 0.2402(3) 0.0828(3)
C8 C -0.0214(5) 0.1602(5) 0.1523(5)
H4 H -0.0641 0.1680 0.2238
C9 C -0.1091(2) 0.2534(2) 0.6925(2)
O13 O 0.0455(2) 0.1119(2) 0.5328(2)
H5 H 0.0885 0.0821 0.4826
H6 H -0.0287 0.0946 0.5405
C10 C -0.2033(4) 0.2249(4) 0.8077(4)
C11 C 0.2890(4) 0.2190(4) 0.2797(4)
C12 C 0.2048(4) 0.4249(4) 0.5848(4)
C13 C 0.2847(4) 0.4524(4) 0.6565(4)
C14 C 0.1220(5) 0.2271(4) -0.0195(4)
H7 H 0.1819 0.2820 -0.0693
C15 C 0.4467(5) 0.4654(5) 0.8004(6)
H8 H 0.5004 0.4682 0.8495
C16 C 0.4121(4) 0.1379(4) 0.3118(4)
C17 C 0.4271(4) 0.0054(4) 0.3571(4)
C18 C 0.5467(4) -0.0590(4) 0.3776(4)
H9 H 0.5578 -0.1471 0.4046
C19 C 0.5156(4) 0.2026(4) 0.2937(4)
H10 H 0.5059 0.2909 0.2644
C20 C 0.6322(5) 0.1368(5) 0.3189(4)
H11 H 0.7000 0.1804 0.3093
C21 C 0.4930(5) 0.4146(5) 0.7140(6)
H12 H 0.5781 0.3862 0.7025
C22 C -0.3464(4) 0.0793(4) 0.9590(4)
H13 H -0.3833 0.0038 0.9888
C23 C -0.2579(4) 0.1109(4) 0.8533(4)
H14 H -0.2351 0.0560 0.8130
C24 C 0.6475(5) 0.0051(5) 0.3588(4)
H15 H 0.7265 -0.0394 0.3726
C25 C 0.4122(5) 0.4062(5) 0.6450(5)
H16 H 0.4432 0.3688 0.5892
C26 C 0.3161(4) -0.0662(4) 0.3877(4)
C27 C 0.0983(5) 0.1370(4) -0.0556(4)
H17 H 0.1405 0.1334 -0.1289
C28 C 0.0120(4) 0.0515(4) 0.0169(4)
C29 C -0.0493(5) 0.0659(5) 0.1226(5)
H18 H -0.1095 0.0121 0.1740
H19 H 0.279(6) -0.226(5) 0.417(5)
N1A N -0.0639(4) -0.2402(3) -0.0828(3)
C8A C 0.0214(5) -0.1602(5) -0.1523(5)
H4A H 0.0641 -0.1680 -0.2238
C14A C -0.1220(5) -0.2271(4) 0.0195(4)
H7A H -0.1819 -0.2820 0.0693
C27A C -0.0983(5) -0.1370(4) 0.0556(4)
H17A H -0.1405 -0.1334 0.1289
C28A C -0.0120(4) -0.0515(4) -0.0169(4)
C29A C 0.0493(5) -0.0659(5) -0.1226(5)
H18A H 0.1095 -0.0121 -0.1740
O1A O 0.1912(3) -0.4818(3) -0.8961(3)
O2A O 0.1427(3) -0.4819(3) -0.7087(3)
C1A C 0.1850(4) -0.4338(4) -0.8192(4)
C2A C 0.2365(4) -0.3062(4) -0.8690(4)
C3A C 0.3239(4) -0.2711(4) -0.9761(4)
H1A H 0.3450 -0.3238 -1.0188
C4A C 0.3792(5) -0.1602(5) -1.0193(4)
H2A H 0.4389 -0.1397 -1.0895
O3A O -0.0581(3) -0.6591(3) -0.6780(3)
O4A O -0.0551(3) -0.5332(3) -0.8733(3)
C5A C -0.1081(4) -0.5690(4) -0.7634(4)
C6A C -0.2394(4) -0.5097(4) -0.7405(4)
C7A C -0.3216(4) -0.5122(4) -0.8146(4)
H3A H -0.2913 -0.5456 -0.8736
Gd1A Gd -0.057918(19) -0.342024(18) -0.465637(18)
Cu1A Cu -0.11576(5) -0.37021(5) -0.12620(5)
O5A O -0.2186(3) -0.2496(3) -0.3595(3)
O6A O 0.1507(3) -0.2781(3) -0.5927(3)
O7A O -0.0050(3) -0.2461(3) -0.6946(3)
O8A O -0.2066(3) 0.0168(3) -0.3902(3)
O9A O -0.3454(3) 0.1880(3) -0.4133(3)
O10A O -0.0944(3) -0.4806(2) -0.5687(3)
O11A O -0.2481(3) -0.3414(3) -0.5426(3)
O12A O -0.2703(3) -0.2559(3) -0.1706(3)
C9A C 0.1091(2) -0.2534(2) -0.6925(2)
O13A O -0.0455(2) -0.1119(2) -0.5328(2)
H5A H -0.0885 -0.0821 -0.4826
H6A H 0.0287 -0.0946 -0.5405
C10A C 0.2033(4) -0.2249(4) -0.8077(4)
C11A C -0.2890(4) -0.2190(4) -0.2797(4)
C12A C -0.2048(4) -0.4249(4) -0.5848(4)
C13A C -0.2847(4) -0.4524(4) -0.6565(4)
C15A C -0.4467(5) -0.4654(5) -0.8004(6)
H8A H -0.5004 -0.4682 -0.8495
C16A C -0.4121(4) -0.1379(4) -0.3118(4)
C17A C -0.4271(4) -0.0054(4) -0.3571(4)
C18A C -0.5467(4) 0.0590(4) -0.3776(4)
H9A H -0.5578 0.1471 -0.4046
C19A C -0.5156(4) -0.2026(4) -0.2937(4)
H10A H -0.5059 -0.2909 -0.2644
C20A C -0.6322(5) -0.1368(5) -0.3189(4)
H11A H -0.7000 -0.1804 -0.3093
C21A C -0.4930(5) -0.4146(5) -0.7140(6)
H12A H -0.5781 -0.3862 -0.7025
C22A C 0.3464(4) -0.0793(4) -0.9590(4)
H13A H 0.3833 -0.0038 -0.9888
C23A C 0.2579(4) -0.1109(4) -0.8533(4)
H14A H 0.2351 -0.0560 -0.8130
C24A C -0.6475(5) -0.0051(5) -0.3588(4)
H15A H -0.7265 0.0394 -0.3726
C25A C -0.4122(5) -0.4062(5) -0.6450(5)
H16A H -0.4432 -0.3688 -0.5892
C26A C -0.3161(4) 0.0662(4) -0.3877(4)
H19A H -0.279(6) 0.226(5) -0.417(5)
O1_2 O -0.1912(3) -0.5182(3) -0.1039(3)
O1A_2 O 0.1912(3) 0.5182(3) 0.1039(3)
O2_2 O -0.1427(3) -0.5181(3) -0.2913(3)
O2A_2 O 0.1427(3) 0.5181(3) 0.2913(3)
O3_2 O 0.0581(3) -0.3409(3) -0.3220(3)
O3A_2 O -0.0581(3) 0.3409(3) 0.3220(3)
O4_2 O 0.0551(3) -0.4668(3) -0.1267(3)
O4A_2 O -0.0551(3) 0.4668(3) 0.1267(3)
Gd1_2 Gd 0.057918(19) -0.657976(18) -0.534363(18)
Gd1A_2 Gd -0.057918(19) 0.657976(18) 0.534363(18)
Cu1_2 Cu 0.11576(5) -0.62979(5) -0.87380(5)
Cu1A_2 Cu -0.11576(5) 0.62979(5) 0.87380(5)
O10_2 O 0.0944(3) -0.5194(2) -0.4313(3)
O10A_2 O -0.0944(3) 0.5194(2) 0.4313(3)
loop_
_geom_bond_atom_site_label_1
_geom_bond_atom_site_label_2
_geom_bond_site_symmetry_1
_geom_bond_site_symmetry_2
O1 C1 1_555 1_555
O2 C1 1_555 1_555
C1 C2 1_555 1_555
C2 C3 1_555 1_555
C3 H1 1_555 1_555
C4 C3 1_555 1_555
H2 C4 1_555 1_555
O3 C5 1_555 1_555
O4 C5 1_555 1_555
C5 C6 1_555 1_555
C6 C7 1_555 1_555
C7 H3 1_555 1_555
Gd1 O5 1_555 1_555
Cu1 O12 1_555 1_555
O5 C11 1_555 1_555
O6 Gd1 1_555 1_555
O7 Gd1 1_555 1_555
O8 C26 1_555 1_555
O9 C26 1_555 1_555
O10 Gd1 1_555 1_555
O11 Gd1 1_555 1_555
O12 C11 1_555 1_555
N1 Cu1 1_555 1_555
C8 N1 1_555 1_555
H4 C8 1_555 1_555
C9 O6 1_555 1_555
O13 Gd1 1_555 1_555
H5 O13 1_555 1_555
H6 O13 1_555 1_555
C10 C2 1_555 1_555
C11 C16 1_555 1_555
C12 O10 1_555 1_555
C13 C6 1_555 1_555
C14 N1 1_555 1_555
H7 C14 1_555 1_555
C15 C7 1_555 1_555
H8 C15 1_555 1_555
C16 C17 1_555 1_555
C17 C18 1_555 1_555
C18 H9 1_555 1_555
C19 C16 1_555 1_555
H10 C19 1_555 1_555
C20 C19 1_555 1_555
H11 C20 1_555 1_555
C21 C15 1_555 1_555
H12 C21 1_555 1_555
C22 C4 1_555 1_555
H13 C22 1_555 1_555
C23 C10 1_555 1_555
H14 C23 1_555 1_555
C24 C18 1_555 1_555
H15 C24 1_555 1_555
C25 C13 1_555 1_555
H16 C25 1_555 1_555
C26 C17 1_555 1_555
C27 C14 1_555 1_555
H17 C27 1_555 1_555
C28 C27 1_555 1_555
C29 C8 1_555 1_555
H18 C29 1_555 1_555
H19 O9 1_555 1_555
N1A C8A 1_555 1_555
C8A H4A 1_555 1_555
C14A N1A 1_555 1_555
H7A C14A 1_555 1_555
C27A C14A 1_555 1_555
H17A C27A 1_555 1_555
C28A C28 1_555 1_555
C29A C8A 1_555 1_555
H18A C29A 1_555 1_555
O1A C1A 1_555 1_555
O2A C1A 1_555 1_555
C1A C2A 1_555 1_555
C2A C3A 1_555 1_555
C3A H1A 1_555 1_555
C4A C3A 1_555 1_555
H2A C4A 1_555 1_555
O3A C5A 1_555 1_555
O4A C5A 1_555 1_555
C5A C6A 1_555 1_555
C6A C7A 1_555 1_555
C7A H3A 1_555 1_555
Gd1A O5A 1_555 1_555
Cu1A N1A 1_555 1_555
O5A C11A 1_555 1_555
O6A Gd1A 1_555 1_555
O7A Gd1A 1_555 1_555
O8A C26A 1_555 1_555
O9A C26A 1_555 1_555
O10A Gd1A 1_555 1_555
O11A Gd1A 1_555 1_555
O12A Cu1A 1_555 1_555
C9A O6A 1_555 1_555
O13A Gd1A 1_555 1_555
H5A O13A 1_555 1_555
H6A O13A 1_555 1_555
C10A C2A 1_555 1_555
C11A O12A 1_555 1_555
C12A O10A 1_555 1_555
C13A C6A 1_555 1_555
C15A C7A 1_555 1_555
H8A C15A 1_555 1_555
C16A C11A 1_555 1_555
C17A C16A 1_555 1_555
C18A C17A 1_555 1_555
H9A C18A 1_555 1_555
C19A C16A 1_555 1_555
H10A C19A 1_555 1_555
C20A C19A 1_555 1_555
H11A C20A 1_555 1_555
C21A C15A 1_555 1_555
H12A C21A 1_555 1_555
C22A C4A 1_555 1_555
H13A C22A 1_555 1_555
C23A C10A 1_555 1_555
H14A C23A 1_555 1_555
C24A C18A 1_555 1_555
H15A C24A 1_555 1_555
C25A C13A 1_555 1_555
H16A C25A 1_555 1_555
C26A C17A 1_555 1_555
H19A O9A 1_555 1_555
O1_2 Cu1A 1_555 1_555
O1A_2 Cu1 1_555 1_555
O2_2 Gd1A 1_555 1_555
O2A_2 Gd1 1_555 1_555
O3_2 Gd1A 1_555 1_555
O3A_2 Gd1 1_555 1_555
O4_2 Cu1A 1_555 1_555
O4A_2 Cu1 1_555 1_555
Gd1_2 O2A 1_555 1_555
Gd1A_2 O2 1_555 1_555
Cu1_2 O1A 1_555 1_555
Cu1A_2 O1 1_555 1_555
O10_2 Gd1A 1_555 1_555
O10A_2 Gd1 1_555 1_555
O3 Gd1A_2 1_555 1_555
O3 Cu1A_2 1_555 1_555
O4 Cu1A_2 1_555 1_555
Cu1 O3A_2 1_555 1_555
O7 C9 1_555 1_555
O10 Gd1A_2 1_555 1_555
O11 C12 1_555 1_555
C9 C10 1_555 1_555
C12 C13 1_555 1_555
C20 C24 1_555 1_555
C21 C25 1_555 1_555
C22 C23 1_555 1_555
C28 C29 1_555 1_555
C27A C28A 1_555 1_555
C28A C29A 1_555 1_555
O3A Gd1_2 1_555 1_555
O3A Cu1_2 1_555 1_555
O4A Cu1_2 1_555 1_555
Cu1A O3_2 1_555 1_555
O7A C9A 1_555 1_555
O10A Gd1_2 1_555 1_555
O11A C12A 1_555 1_555
C9A C10A 1_555 1_555
C12A C13A 1_555 1_555
C20A C24A 1_555 1_555
C21A C25A 1_555 1_555
C22A C23A 1_555 1_555
Gd1_2 O10_2 1_555 1_555
Gd1A_2 O10A_2 1_555 1_555

#END
