
#######################################################################
#
#                 Cambridge Crystallographic Data Centre
#                                CCDC 
#
#######################################################################
#
# If this CIF has been generated from an entry in the Cambridge 
# Structural Database, then it will include bibliographic, chemical, 
# crystal, experimental, refinement or atomic coordinate data resulting 
# from the CCDC's data processing and validation procedures.
#
#######################################################################

data_YOHKOX01
_symmetry_cell_setting           triclinic
_symmetry_space_group_name_H-M   'P 1'
_symmetry_Int_Tables_number      1
_space_group_name_Hall           'P 1'
loop_
_symmetry_equiv_pos_site_id
_symmetry_equiv_pos_as_xyz
1 x,y,z
_cell_length_a                   22.750(6)
_cell_length_b                   5.747(3)
_cell_length_c                   10.866(3)
_cell_angle_alpha                89.61(4)
_cell_angle_beta                 98.20(1)
_cell_angle_gamma                92.11(6)
_cell_volume                     1405.19
loop_
_atom_site_label
_atom_site_type_symbol
_atom_site_fract_x
_atom_site_fract_y
_atom_site_fract_z
Na1 Na 0.43818(45) 0.4222(13) 0.50968(70)
Na2 Na 0.56009(49) 0.6793(15) 0.44384(70)
O1 O 0.47548(68) 0.1887(27) 0.3537(12)
O2 O 0.55449(66) 0.9615(35) 0.6089(12)
O3 O 0.54239(48) 0.3920(21) 0.59072(63)
O4 O 0.45697(49) 0.7126(20) 0.36224(73)
H1 H 0.4928(23) 0.311(17) 0.3027(56)
H2 H 0.4404(17) 0.122(19) 0.2966(54)
H3 H 0.5213(17) 0.905(23) 0.6526(47)
H4 H 0.5914(16) 0.965(21) 0.6718(58)
H5 H 0.5679(21) 0.442(20) 0.6670(83)
H6 H 0.5473(17) 0.223(19) 0.5897(49)
H7 H 0.4323(18) 0.678(22) 0.2819(56)
H8 H 0.4538(18) 0.884(17) 0.3736(53)
O5 O 0.39781(94) 0.6999(27) 0.6273(18)
O6 O 0.41432(99) 1.0838(28) 0.6082(27)
O7 O 0.04650(68) 0.9116(29) 0.9149(15)
C1 C 0.21890(52) 0.8028(27) 0.6061(12)
C2 C 0.17386(45) 0.8258(33) 0.68282(91)
C3 C 0.12356(52) 0.6699(26) 0.6814(11)
C4 C 0.08174(53) 0.6973(26) 0.7568(12)
C5 C 0.08725(53) 0.8864(35) 0.8393(12)
C6 C 0.13362(50) 1.0452(27) 0.8471(11)
C7 C 0.17920(36) 1.0232(33) 0.76969(82)
C8 C 0.22939(51) 1.1777(28) 0.7694(12)
C9 C 0.27075(55) 1.1450(28) 0.6913(12)
C10 C 0.26696(54) 0.9558(35) 0.6098(12)
C11 C 0.31442(51) 0.9362(29) 0.5269(11)
C12 C 0.37837(59) 0.9068(35) 0.5989(19)
C13 C 0.29901(52) 0.7489(29) 0.4322(10)
C14 C 0.06042(49) 1.1161(26) 0.99141(99)
H9 H 0.2147(17) 0.659(18) 0.5433(57)
H10 H 0.1187(19) 0.529(21) 0.6192(60)
H11 H 0.0445(16) 0.576(15) 0.7552(61)
H12 H 0.1362(18) 1.190(16) 0.9138(60)
H13 H 0.2349(17) 1.326(16) 0.8319(56)
H14 H 0.3086(19) 1.267(16) 0.6934(52)
H15 H 0.3162(21) 1.107(14) 0.4805(51)
H16 H 0.2573(16) 0.782(19) 0.3710(55)
H17 H 0.3347(20) 0.742(25) 0.3736(56)
H18 H 0.2939(17) 0.582(15) 0.4803(53)
H19 H 0.0186(19) 1.182(19) 1.0114(68)
H20 H 0.0826(19) 1.253(13) 0.9412(65)
H21 H 0.0898(18) 1.080(19) 1.0791(50)
O8 O 0.5782(11) 0.3372(26) 0.3415(20)
O9 O 0.6056(11) -0.0336(28) 0.3330(21)
O10 O 0.94955(68) 0.3975(28) 0.1293(15)
C15 C 0.76680(52) 0.1618(22) 0.4157(13)
C16 C 0.81426(46) 0.2203(31) 0.34345(97)
C17 C 0.86787(51) 0.0909(30) 0.3454(12)
C18 C 0.91107(52) 0.1546(28) 0.2746(12)
C19 C 0.90508(52) 0.3514(38) 0.1974(12)
C20 C 0.85547(50) 0.4831(29) 0.1899(12)
C21 C 0.80850(40) 0.4262(28) 0.26084(79)
C22 C 0.75649(52) 0.5514(28) 0.2598(12)
C23 C 0.71341(53) 0.4866(25) 0.3328(13)
C24 C 0.71763(52) 0.2933(29) 0.4101(13)
C25 C 0.66673(54) 0.2415(26) 0.4815(10)
C26 C 0.61174(70) 0.1699(25) 0.3830(17)
C27 C 0.68137(53) 0.0764(27) 0.5900(10)
C28 C 0.94214(49) 0.5966(28) 0.0510(10)
H22 H 0.7706(17) 0.014(18) 0.4777(60)
H23 H 0.8744(19) -0.061(16) 0.4035(54)
H24 H 0.9503(17) 0.056(16) 0.2763(64)
H25 H 0.8514(19) 0.632(22) 0.1290(58)
H26 H 0.7507(17) 0.701(17) 0.1991(60)
H27 H 0.6736(18) 0.585(19) 0.3295(58)
H28 H 0.6556(19) 0.407(15) 0.5198(53)
H29 H 0.6814(19) -0.104(15) 0.5584(56)
H30 H 0.7260(15) 0.119(19) 0.6383(55)
H31 H 0.6492(17) 0.090(18) 0.6560(55)
H32 H 0.9857(19) 0.648(24) 0.0282(67)
H33 H 0.9113(16) 0.560(20) -0.0343(56)
H34 H 0.9246(17) 0.737(15) 0.1003(64)
Na1_2 Na 0.43818(45) 1.4222(13) 0.50968(70)
Na2_2 Na 0.56009(49) -0.3207(15) 0.44384(70)
O6_2 O 0.41432(99) 0.0838(28) 0.6082(27)
O9_2 O 0.6056(11) 0.9664(28) 0.3330(21)
Na3 Na 0.44546(46) -0.1021(14) 1.02158(69)
Na4 Na 0.56578(46) 0.1423(16) 0.95216(72)
O11 O 0.46821(68) -0.3941(29) 0.8745(12)
O12 O 0.54566(68) 0.4400(26) 1.1009(12)
O13 O 0.54761(49) -0.1270(18) 1.11042(75)
O14 O 0.46417(49) 0.1719(20) 0.86070(66)
H35 H 0.4959(20) -0.306(19) 0.8269(51)
H36 H 0.4319(17) -0.436(18) 0.8138(56)
H37 H 0.5206(18) 0.353(18) 1.1553(49)
H38 H 0.5839(19) 0.481(24) 1.1577(63)
H39 H 0.5699(21) -0.094(25) 1.1935(75)
H40 H 0.5505(17) -0.300(17) 1.1007(50)
H41 H 0.4425(17) 0.140(20) 0.7766(57)
H42 H 0.4616(17) 0.344(24) 0.8705(55)
O15 O 0.42079(91) 0.2492(26) 1.1091(20)
O16 O 0.38913(93) 0.6107(27) 1.1190(25)
O17 O 0.05719(69) 0.3819(27) 1.4146(15)
C29 C 0.24760(52) 0.2162(24) 1.1622(12)
C30 C 0.19931(35) 0.2547(27) 1.22704(93)
C31 C 0.17921(53) 0.0859(28) 1.3107(12)
C32 C 0.13056(55) 0.1268(24) 1.3737(12)
C33 C 0.10155(53) 0.3425(35) 1.3526(13)
C34 C 0.11890(48) 0.5128(28) 1.2734(11)
C35 C 0.16808(33) 0.4753(30) 1.20867(81)
C36 C 0.18839(53) 0.6386(26) 1.1265(12)
C37 C 0.23680(55) 0.5917(30) 1.0656(13)
C38 C 0.26654(54) 0.3809(31) 1.0841(12)
C39 C 0.31597(51) 0.3319(25) 1.0140(11)
C40 C 0.37876(61) 0.3996(32) 1.0862(22)
C41 C 0.30901(50) 0.0833(23) 0.9688(11)
C42 C 0.03699(49) 0.6101(27) 1.3851(11)
H43 H 0.2701(17) 0.054(22) 1.1751(63)
H44 H 0.2026(17) -0.077(23) 1.3234(61)
H45 H 0.1146(16) -0.001(18) 1.4386(54)
H46 H 0.0958(18) 0.678(18) 1.2595(51)
H47 H 0.1650(20) 0.802(17) 1.1124(58)
H48 H 0.2524(17) 0.719(17) 1.0016(64)
H49 H 0.3108(19) 0.450(15) 0.9340(53)
H50 H 0.2639(17) 0.033(16) 0.9291(65)
H51 H 0.3369(20) 0.059(17) 0.8945(60)
H52 H 0.3213(21) -0.036(17) 1.0458(61)
H53 H 0.0223(19) 0.681(21) 1.4693(65)
H54 H 0.0011(23) 0.603(17) 1.3065(50)
H55 H 0.0740(18) 0.724(16) 1.3611(60)
O18 O 0.5837(12) -0.2047(26) 0.8599(18)
O19 O 0.5965(13) -0.5753(29) 0.8136(18)
O20 O 0.93947(67) -0.1907(28) 0.5939(15)
C43 C 0.73881(52) -0.4222(29) 0.8205(11)
C44 C 0.79007(33) -0.3555(29) 0.76683(88)
C45 C 0.80368(53) -0.4715(35) 0.6597(11)
C46 C 0.85524(54) -0.4054(30) 0.6075(12)
C47 C 0.89430(53) -0.2236(29) 0.6598(12)
C48 C 0.88330(49) -0.1019(26) 0.7628(11)
C49 C 0.83084(36) -0.1637(28) 0.82023(88)
C50 C 0.81321(53) -0.0607(23) 0.9252(12)
C51 C 0.76067(55) -0.1349(25) 0.9731(12)
C52 C 0.72332(54) -0.3121(32) 0.9196(12)
C53 C 0.67094(51) -0.3974(28) 0.9778(11)
C54 C 0.61161(69) -0.3966(28) 0.8819(17)
C55 C 0.68813(53) -0.6380(24) 1.0275(11)
C56 C 0.98038(48) -0.0082(28) 0.6296(10)
H56 H 0.7100(18) -0.562(22) 0.7794(57)
H57 H 0.7736(16) -0.615(17) 0.6188(56)
H58 H 0.8666(19) -0.491(18) 0.5232(58)
H59 H 0.9133(17) 0.036(15) 0.7997(56)
H60 H 0.8421(21) 0.077(22) 0.9687(53)
H61 H 0.7480(17) -0.057(18) 1.0554(52)
H62 H 0.6664(19) -0.283(17) 1.0573(53)
H63 H 0.7320(17) -0.624(17) 1.0811(56)
H64 H 0.6580(18) -0.708(18) 1.0910(57)
H65 H 0.6907(19) -0.755(17) 0.9492(57)
H66 H 1.0254(16) -0.071(21) 0.6275(52)
H67 H 0.9717(16) 0.134(19) 0.5637(61)
H68 H 0.9752(17) 0.050(14) 0.7222(56)
Na3_2 Na 0.44546(46) 0.8979(14) 1.02158(69)
Na4_2 Na 0.56578(46) -0.8577(16) 0.95216(72)
O16_2 O 0.38913(93) -0.3893(27) 1.1190(25)
O19_2 O 0.5965(13) 0.4247(29) 0.8136(18)
loop_
_geom_bond_atom_site_label_1
_geom_bond_atom_site_label_2
_geom_bond_site_symmetry_1
_geom_bond_site_symmetry_2
Na1 O1 1_555 1_555
Na2 O2 1_555 1_555
O1 H1 1_555 1_555
O2 H3 1_555 1_555
O3 Na1 1_555 1_555
O4 Na1 1_555 1_555
H2 O1 1_555 1_555
H4 O2 1_555 1_555
H5 O3 1_555 1_555
H6 O3 1_555 1_555
H7 O4 1_555 1_555
H8 O4 1_555 1_555
O5 Na1 1_555 1_555
O6 C12 1_555 1_555
O7 C5 1_555 1_555
C1 C2 1_555 1_555
C2 C3 1_555 1_555
C3 C4 1_555 1_555
C4 C5 1_555 1_555
C5 C6 1_555 1_555
C6 C7 1_555 1_555
C7 C2 1_555 1_555
C8 C7 1_555 1_555
C9 C8 1_555 1_555
C10 C1 1_555 1_555
C11 C10 1_555 1_555
C12 O5 1_555 1_555
C13 C11 1_555 1_555
C14 O7 1_555 1_555
H9 C1 1_555 1_555
H10 C3 1_555 1_555
H11 C4 1_555 1_555
H12 C6 1_555 1_555
H13 C8 1_555 1_555
H14 C9 1_555 1_555
H15 C11 1_555 1_555
H16 C13 1_555 1_555
H17 C13 1_555 1_555
H18 C13 1_555 1_555
H19 C14 1_555 1_555
H20 C14 1_555 1_555
H21 C14 1_555 1_555
O8 Na2 1_555 1_555
O9 C26 1_555 1_555
O10 C19 1_555 1_555
C15 C16 1_555 1_555
C16 C17 1_555 1_555
C17 C18 1_555 1_555
C18 C19 1_555 1_555
C19 C20 1_555 1_555
C20 C21 1_555 1_555
C21 C16 1_555 1_555
C22 C21 1_555 1_555
C23 C22 1_555 1_555
C24 C15 1_555 1_555
C25 C24 1_555 1_555
C26 O8 1_555 1_555
C27 C25 1_555 1_555
C28 O10 1_555 1_555
H22 C15 1_555 1_555
H23 C17 1_555 1_555
H24 C18 1_555 1_555
H25 C20 1_555 1_555
H26 C22 1_555 1_555
H27 C23 1_555 1_555
H28 C25 1_555 1_555
H29 C27 1_555 1_555
H30 C27 1_555 1_555
H31 C27 1_555 1_555
H32 C28 1_555 1_555
H33 C28 1_555 1_555
H34 C28 1_555 1_555
Na3 O11 1_555 1_555
Na4 O12 1_555 1_555
O11 H35 1_555 1_555
O12 H37 1_555 1_555
O13 Na3 1_555 1_555
O14 Na3 1_555 1_555
H36 O11 1_555 1_555
H38 O12 1_555 1_555
H39 O13 1_555 1_555
H40 O13 1_555 1_555
H41 O14 1_555 1_555
H42 O14 1_555 1_555
O15 Na3 1_555 1_555
O16 C40 1_555 1_555
O17 C33 1_555 1_555
C29 C30 1_555 1_555
C30 C31 1_555 1_555
C31 C32 1_555 1_555
C32 C33 1_555 1_555
C33 C34 1_555 1_555
C34 C35 1_555 1_555
C35 C30 1_555 1_555
C36 C35 1_555 1_555
C37 C36 1_555 1_555
C38 C29 1_555 1_555
C39 C38 1_555 1_555
C40 O15 1_555 1_555
C41 C39 1_555 1_555
C42 O17 1_555 1_555
H43 C29 1_555 1_555
H44 C31 1_555 1_555
H45 C32 1_555 1_555
H46 C34 1_555 1_555
H47 C36 1_555 1_555
H48 C37 1_555 1_555
H49 C39 1_555 1_555
H50 C41 1_555 1_555
H51 C41 1_555 1_555
H52 C41 1_555 1_555
H53 C42 1_555 1_555
H54 C42 1_555 1_555
H55 C42 1_555 1_555
O18 Na4 1_555 1_555
O19 C54 1_555 1_555
O20 C47 1_555 1_555
C43 C44 1_555 1_555
C44 C45 1_555 1_555
C45 C46 1_555 1_555
C46 C47 1_555 1_555
C47 C48 1_555 1_555
C48 C49 1_555 1_555
C49 C44 1_555 1_555
C50 C49 1_555 1_555
C51 C50 1_555 1_555
C52 C43 1_555 1_555
C53 C52 1_555 1_555
C54 O18 1_555 1_555
C55 C53 1_555 1_555
C56 O20 1_555 1_555
H56 C43 1_555 1_555
H57 C45 1_555 1_555
H58 C46 1_555 1_555
H59 C48 1_555 1_555
H60 C50 1_555 1_555
H61 C51 1_555 1_555
H62 C53 1_555 1_555
H63 C55 1_555 1_555
H64 C55 1_555 1_555
H65 C55 1_555 1_555
H66 C56 1_555 1_555
H67 C56 1_555 1_555
H68 C56 1_555 1_555
Na1_2 O6 1_555 1_555
Na2_2 O9 1_555 1_555
O6_2 Na1 1_555 1_555
O9_2 Na2 1_555 1_555
Na3_2 O16 1_555 1_555
Na4_2 O19 1_555 1_555
O16_2 Na3 1_555 1_555
O19_2 Na4 1_555 1_555
Na2 O3 1_555 1_555
Na2 O4 1_555 1_555
C9 C10 1_555 1_555
C11 C12 1_555 1_555
C23 C24 1_555 1_555
C25 C26 1_555 1_555
Na4 O13 1_555 1_555
Na4 O14 1_555 1_555
C37 C38 1_555 1_555
C39 C40 1_555 1_555
C51 C52 1_555 1_555
C53 C54 1_555 1_555

#END
