
#######################################################################
#
#                 Cambridge Crystallographic Data Centre
#                                CCDC 
#
#######################################################################
#
# If this CIF has been generated from an entry in the Cambridge 
# Structural Database, then it will include bibliographic, chemical, 
# crystal, experimental, refinement or atomic coordinate data resulting 
# from the CCDC's data processing and validation procedures.
#
#######################################################################

data_YOHKEL
_symmetry_cell_setting           monoclinic
_symmetry_space_group_name_H-M   'P 21/n'
_symmetry_Int_Tables_number      14
_space_group_name_Hall           '-P 2yn'
loop_
_symmetry_equiv_pos_site_id
_symmetry_equiv_pos_as_xyz
1 x,y,z
2 1/2-x,1/2+y,1/2-z
3 -x,-y,-z
4 1/2+x,1/2-y,1/2+z
_cell_length_a                   7.696(7)
_cell_length_b                   8.017(7)
_cell_length_c                   19.230(10)
_cell_angle_alpha                90
_cell_angle_beta                 110.80(1)
_cell_angle_gamma                90
_cell_volume                     1109.14
loop_
_atom_site_label
_atom_site_type_symbol
_atom_site_fract_x
_atom_site_fract_y
_atom_site_fract_z
Cu1 Cu 0.5000 0.5000 0.5000
C1 C 0.0329(15) 0.0096(14) 0.3934(6)
C2 C 0.1693(15) 0.0153(15) 0.4618(6)
C3 C 0.2392(15) -0.1261(14) 0.4966(6)
C4 C 0.1706(15) -0.2791(14) 0.4621(6)
C5 C 0.0314(15) -0.2822(14) 0.3942(6)
C6 C -0.0368(16) -0.1365(15) 0.3609(7)
S1 S -0.0558(4) 0.1910(4) 0.3464(2)
O1 O -0.0428(11) 0.3190(10) 0.3990(5)
O2 O -0.2300(10) 0.1581(10) 0.2895(5)
N1 N 0.0804(12) 0.2330(12) 0.2997(5)
C7 C 0.2630(17) 0.2818(15) 0.3311(7)
C8 C 0.3684(19) 0.2736(19) 0.2778(8)
O3 O 0.3294(11) 0.3126(12) 0.3958(5)
N2 N 0.2488(12) -0.4300(11) 0.4983(5)
N3 N 0.5251(12) 0.7164(16) 0.3917(6)
O4 O 0.5355(11) 0.7051(10) 0.4542(5)
O5 O 0.5201(16) 0.8610(14) 0.3632(6)
O6 O 0.5392(20) 0.6101(16) 0.3525(6)
N2_2 N 0.2488(12) 0.5700(11) 0.4983(5)
Cu1_2 Cu 0.5000 -0.5000 0.5000
O3B O 0.6706(11) -0.3126(12) 0.6042(5)
C7B C 0.7370(17) -0.2818(15) 0.6689(7)
N1B N 0.9196(12) -0.2330(12) 0.7003(5)
S1B S 1.0558(4) -0.1910(4) 0.6536(2)
C1B C 0.9671(15) -0.0096(14) 0.6066(6)
C2B C 0.8307(15) -0.0153(15) 0.5382(6)
C3B C 0.7608(15) 0.1261(14) 0.5034(6)
C4B C 0.8294(15) 0.2791(14) 0.5379(6)
C5B C 0.9686(15) 0.2822(14) 0.6058(6)
C6B C 1.0368(16) 0.1365(15) 0.6391(7)
N2B N 0.7512(12) 0.4300(11) 0.5017(5)
O3B_2 O 0.6706(11) 0.6874(12) 0.6042(5)
O4B O 0.4645(11) 0.2949(10) 0.5458(5)
N3B N 0.4749(12) 0.2836(16) 0.6083(6)
O5B O 0.4799(16) 0.1390(14) 0.6368(6)
O6B O 0.4608(20) 0.3899(16) 0.6475(6)
O1B O 1.0428(11) -0.3190(10) 0.6010(5)
O2B O 1.2300(10) -0.1581(10) 0.7105(5)
C8B C 0.6316(19) -0.2736(19) 0.7222(8)
loop_
_geom_bond_atom_site_label_1
_geom_bond_atom_site_label_2
_geom_bond_site_symmetry_1
_geom_bond_site_symmetry_2
Cu1 O3 1_555 1_555
C1 C2 1_555 1_555
C2 C3 1_555 1_555
C3 C4 1_555 1_555
C4 C5 1_555 1_555
C5 C6 1_555 1_555
C6 C1 1_555 1_555
S1 C1 1_555 1_555
O1 S1 1_555 1_555
O2 S1 1_555 1_555
N1 S1 1_555 1_555
C7 N1 1_555 1_555
C8 C7 1_555 1_555
O3 C7 1_555 1_555
N2 C4 1_555 1_555
N3 O4 1_555 1_555
O4 Cu1 1_555 1_555
O5 N3 1_555 1_555
O6 N3 1_555 1_555
N2_2 Cu1 1_555 1_555
Cu1_2 N2 1_555 1_555
O3B Cu1_2 1_555 1_555
C7B O3B 1_555 1_555
N1B C7B 1_555 1_555
S1B N1B 1_555 1_555
C1B S1B 1_555 1_555
C2B C1B 1_555 1_555
C3B C2B 1_555 1_555
C4B C3B 1_555 1_555
C5B C4B 1_555 1_555
C6B C1B 1_555 1_555
N2B Cu1 1_555 1_555
O3B_2 Cu1 1_555 1_555
O4B Cu1 1_555 1_555
N3B O4B 1_555 1_555
O5B N3B 1_555 1_555
O6B N3B 1_555 1_555
O1B S1B 1_555 1_555
O2B S1B 1_555 1_555
C8B C7B 1_555 1_555
C4B N2B 1_555 1_555
C5B C6B 1_555 1_555

#END
