
#######################################################################
#
#                 Cambridge Crystallographic Data Centre
#                                CCDC 
#
#######################################################################
#
# If this CIF has been generated from an entry in the Cambridge 
# Structural Database, then it will include bibliographic, chemical, 
# crystal, experimental, refinement or atomic coordinate data resulting 
# from the CCDC's data processing and validation procedures.
#
#######################################################################

data_YOHLUC
_symmetry_cell_setting           monoclinic
_symmetry_space_group_name_H-M   'C 2/c'
_symmetry_Int_Tables_number      15
_space_group_name_Hall           '-C 2yn'
loop_
_symmetry_equiv_pos_site_id
_symmetry_equiv_pos_as_xyz
1 x,y,z
2 1/2+x,1/2+y,z
3 x,-y,1/2+z
4 1/2+x,1/2-y,1/2+z
5 -x,-y,-z
6 1/2-x,1/2-y,-z
7 -x,y,1/2-z
8 1/2-x,1/2+y,1/2-z
_cell_length_a                   13.0610(7)
_cell_length_b                   6.8155(4)
_cell_length_c                   20.7293(11)
_cell_angle_alpha                90
_cell_angle_beta                 99.6770(10)
_cell_angle_gamma                90
_cell_volume                     1819.01
loop_
_atom_site_label
_atom_site_type_symbol
_atom_site_fract_x
_atom_site_fract_y
_atom_site_fract_z
S1 S 0.92560(3) 0.19080(6) 0.15613(2)
Na1 Na 1.20264(6) 0.46982(10) 0.23785(3)
O1 O 1.13443(9) 0.78414(18) 0.24050(6)
H1 H 1.0972(14) 0.842(3) 0.2114(7)
H2 H 1.1116(16) 0.810(3) 0.2741(6)
O2 O 1.00939(10) 0.32593(19) 0.17193(6)
O3 O 0.84291(10) 0.21684(19) 0.19272(6)
O4 O 0.87654(10) 0.22657(17) 0.07865(5)
O5 O 0.80116(11) -0.3934(2) -0.12360(6)
O6 O 0.78181(12) -0.0843(2) -0.14476(6)
N1 N 0.95956(10) -0.0322(2) 0.15242(6)
N2 N 0.80933(11) -0.2208(2) -0.10668(7)
C1 C 0.92845(11) -0.0968(2) 0.08939(7)
C2 C 0.93669(13) -0.2855(2) 0.06555(8)
H3 H 0.9683 -0.3844 0.0928
C3 C 0.89724(12) -0.3238(2) 0.00093(8)
H4 H 0.9007 -0.4502 -0.0155
C4 C 0.85239(11) -0.1745(2) -0.03979(7)
C5 C 0.84363(12) 0.0177(2) -0.01812(8)
H5 H 0.8140 0.1174 -0.0458
C6 C 0.88135(11) 0.0492(2) 0.04626(7)
O1G O 1.36557(9) 0.28414(18) 0.25950(6)
O3A O 1.34291(10) 0.71684(19) 0.19272(6)
O3F O 1.15709(10) 0.21684(19) 0.30728(6)
O5D O 1.19884(11) 0.3934(2) 0.12360(6)
O6C O 1.28181(12) 0.5843(2) 0.35524(6)
Na1G Na 1.29736(6) 0.96982(10) 0.26215(3)
Na1A Na 0.70264(6) -0.03018(10) 0.23785(3)
Na1F Na 0.79736(6) 0.46982(10) 0.26215(3)
Na1D Na 0.79736(6) -0.46982(10) -0.23785(3)
Na1C Na 0.70264(6) 0.03018(10) -0.26215(3)
H1G H 1.4028(14) 0.342(3) 0.2886(7)
H2G H 1.3884(16) 0.310(3) 0.2259(6)
loop_
_geom_bond_atom_site_label_1
_geom_bond_atom_site_label_2
_geom_bond_site_symmetry_1
_geom_bond_site_symmetry_2
S1 O2 1_555 1_555
Na1 O1 1_555 1_555
O1 H1 1_555 1_555
H2 O1 1_555 1_555
O2 Na1 1_555 1_555
O3 S1 1_555 1_555
O4 S1 1_555 1_555
O5 N2 1_555 1_555
O6 N2 1_555 1_555
N1 S1 1_555 1_555
N2 C4 1_555 1_555
C1 N1 1_555 1_555
C2 C1 1_555 1_555
H3 C2 1_555 1_555
C3 C2 1_555 1_555
H4 C3 1_555 1_555
C4 C3 1_555 1_555
C5 C4 1_555 1_555
H5 C5 1_555 1_555
C6 O4 1_555 1_555
O1G Na1 1_555 1_555
O3A Na1 1_555 1_555
O3F Na1 1_555 1_555
O5D Na1 1_555 1_555
O6C Na1 1_555 1_555
Na1G O1 1_555 1_555
Na1A O3 1_555 1_555
Na1F O3 1_555 1_555
Na1D O5 1_555 1_555
Na1C O6 1_555 1_555
H1G O1G 1_555 1_555
H2G O1G 1_555 1_555
C1 C6 1_555 1_555
C5 C6 1_555 1_555
O3A Na1G 1_555 1_555

#END
