
#######################################################################
#
#                 Cambridge Crystallographic Data Centre
#                                CCDC 
#
#######################################################################
#
# If this CIF has been generated from an entry in the Cambridge 
# Structural Database, then it will include bibliographic, chemical, 
# crystal, experimental, refinement or atomic coordinate data resulting 
# from the CCDC's data processing and validation procedures.
#
#######################################################################

data_YOHMIT
_symmetry_cell_setting           triclinic
_symmetry_space_group_name_H-M   'P -1'
_symmetry_Int_Tables_number      2
_space_group_name_Hall           '-P 1'
loop_
_symmetry_equiv_pos_site_id
_symmetry_equiv_pos_as_xyz
1 x,y,z
2 -x,-y,-z
_cell_length_a                   15.078(5)
_cell_length_b                   15.311(5)
_cell_length_c                   22.730(5)
_cell_angle_alpha                76.136(5)
_cell_angle_beta                 72.873(5)
_cell_angle_gamma                70.769(5)
_cell_volume                     4675.38
loop_
_atom_site_label
_atom_site_type_symbol
_atom_site_fract_x
_atom_site_fract_y
_atom_site_fract_z
C1 C 1.3960(9) 0.3014(9) 0.5697(7)
H1 H 1.4301 0.3175 0.5916
C2 C 1.3307(8) 0.3704(8) 0.5419(6)
H2 H 1.3192 0.4323 0.5463
C3 C 1.2804(8) 0.3490(7) 0.5064(5)
C4 C 1.2989(8) 0.2553(7) 0.5054(6)
H3 H 1.2652 0.2370 0.4843
C5 C 1.3653(8) 0.1876(7) 0.5343(5)
H4 H 1.3774 0.1250 0.5315
C6 C 1.2058(7) 0.4212(6) 0.4771(5)
C7 C 1.1248(7) 0.5723(6) 0.4563(4)
C8 C 1.0895(6) 0.4590(6) 0.4273(5)
C9 C 1.1277(7) 0.7972(7) 0.4955(5)
H5 H 1.1670 0.8188 0.5100
C10 C 1.1581(7) 0.7036(7) 0.4872(5)
H6 H 1.2148 0.6633 0.4974
C11 C 1.1010(7) 0.6722(6) 0.4633(5)
C12 C 1.0153(7) 0.7351(6) 0.4506(5)
H7 H 0.9745 0.7158 0.4359
C13 C 0.9921(7) 0.8266(7) 0.4601(5)
H8 H 0.9366 0.8689 0.4495
C14 C 0.9846(8) 0.3148(7) 0.3690(5)
H9 H 0.9988 0.2530 0.3634
C15 C 1.0475(8) 0.3386(6) 0.3925(5)
H10 H 1.1014 0.2940 0.4036
C16 C 1.0262(7) 0.4324(6) 0.3986(5)
C17 C 0.9464(7) 0.4960(7) 0.3809(5)
H11 H 0.9319 0.5590 0.3837
C18 C 0.8886(7) 0.4651(7) 0.3589(5)
H12 H 0.8349 0.5086 0.3467
C19 C 1.2879(9) 0.2434(10) 0.2684(7)
H13 H 1.3425 0.2160 0.2845
C20 C 1.2475(8) 0.3397(9) 0.2637(6)
H14 H 1.2752 0.3762 0.2761
C21 C 1.1676(8) 0.3799(8) 0.2410(5)
C22 C 1.1254(9) 0.3271(8) 0.2230(6)
H15 H 1.0702 0.3537 0.2073
C23 C 1.1709(10) 0.2297(10) 0.2295(8)
H16 H 1.1431 0.1919 0.2185
C24 C 1.1177(7) 0.4826(8) 0.2396(5)
C25 C 1.1000(8) 0.6220(8) 0.2631(5)
C26 C 0.9888(8) 0.6047(8) 0.2219(5)
C27 C 0.7826(7) 0.6272(7) 0.1562(5)
H17 H 0.7687 0.5995 0.1291
C28 C 0.8744(7) 0.5922(8) 0.1679(5)
H18 H 0.9184 0.5390 0.1530
C29 C 0.8972(8) 0.6426(8) 0.2042(5)
C30 C 0.8257(9) 0.7162(8) 0.2269(6)
H19 H 0.8390 0.7499 0.2507
C31 C 0.7344(8) 0.7432(9) 0.2161(6)
H20 H 0.6873 0.7933 0.2332
C32 C 1.2544(8) 0.7070(9) 0.3261(5)
H21 H 1.3107 0.6815 0.3406
C33 C 1.2208(8) 0.6470(8) 0.3074(5)
H22 H 1.2535 0.5835 0.3098
C34 C 1.1385(8) 0.6824(8) 0.2853(5)
C35 C 1.0926(9) 0.7790(9) 0.2830(6)
H23 H 1.0370 0.8065 0.2680
C36 C 1.1315(9) 0.8312(9) 0.3034(6)
H24 H 1.0997 0.8947 0.3023
C37 C 0.6226(7) 0.5426(7) 0.0697(5)
H25 H 0.6716 0.5146 0.0910
C38 C 0.5918(7) 0.4875(7) 0.0447(5)
H26 H 0.6198 0.4230 0.0492
C39 C 0.5188(7) 0.5283(6) 0.0127(4)
C40 C 0.4838(8) 0.6251(7) 0.0055(5)
H27 H 0.4379 0.6552 -0.0180
C41 C 0.5148(8) 0.6775(7) 0.0322(5)
H28 H 0.4879 0.7421 0.0280
C42 C 0.3562(8) 0.7666(7) 0.1630(5)
H29 H 0.3560 0.8256 0.1673
C43 C 0.2832(8) 0.7610(7) 0.1399(6)
H30 H 0.2385 0.8149 0.1263
C44 C 0.2789(7) 0.6730(7) 0.1377(5)
C45 C 0.3461(7) 0.5946(7) 0.1603(5)
H31 H 0.3422 0.5346 0.1621
C46 C 0.4195(7) 0.6077(7) 0.1802(5)
H32 H 0.4649 0.5551 0.1944
C47 C 0.2092(8) 0.6599(7) 0.1092(5)
C48 C 0.1673(8) 0.5646(7) 0.0667(5)
C49 C 0.0823(7) 0.7177(7) 0.0675(5)
C50 C -0.1366(10) 0.9242(9) 0.0842(9)
H33 H -0.1747 0.9637 0.1131
C51 C -0.0545(9) 0.8561(8) 0.0965(7)
H34 H -0.0347 0.8520 0.1323
C52 C -0.0018(8) 0.7939(7) 0.0549(6)
C53 C -0.0341(9) 0.8037(8) 0.0006(7)
H35 H -0.0020 0.7609 -0.0270
C54 C -0.1110(11) 0.8744(9) -0.0115(8)
H36 H -0.1295 0.8830 -0.0485
C55 C 0.2593(10) 0.3081(8) 0.0621(6)
H37 H 0.3024 0.2567 0.0796
C56 C 0.2484(9) 0.3959(7) 0.0749(6)
H38 H 0.2859 0.4025 0.0987
C57 C 0.1827(7) 0.4726(7) 0.0525(5)
C58 C 0.1306(9) 0.4577(8) 0.0148(6)
H39 H 0.0860 0.5076 -0.0025
C59 C 0.1469(8) 0.3683(8) 0.0042(6)
H40 H 0.1109 0.3595 -0.0197
N1 N 1.1956(6) 0.5116(6) 0.4806(4)
N2 N 1.1575(6) 0.3919(5) 0.4500(4)
N3 N 1.0699(6) 0.5497(5) 0.4289(4)
N4 N 1.4127(7) 0.2117(7) 0.5667(6)
N5 N 1.0461(6) 0.8571(5) 0.4839(4)
N6 N 0.9053(6) 0.3757(5) 0.3542(4)
N7 N 1.0179(6) 0.6622(7) 0.2452(4)
N8 N 1.1505(6) 0.5336(6) 0.2640(4)
N9 N 1.0390(6) 0.5186(7) 0.2145(4)
N10 N 1.2504(8) 0.1886(9) 0.2504(7)
N11 N 1.2130(7) 0.7982(7) 0.3251(5)
N12 N 0.7136(6) 0.6972(6) 0.1810(4)
N13 N 0.2296(6) 0.5737(6) 0.0942(5)
N14 N 0.1364(6) 0.7327(6) 0.0982(4)
N15 N 0.0926(6) 0.6350(6) 0.0512(4)
N16 N 0.2115(8) 0.2932(7) 0.0263(5)
N17 N -0.1612(10) 0.9331(8) 0.0306(8)
N18 N 0.4272(6) 0.6929(5) 0.1796(4)
N19 N 0.5835(6) 0.6365(6) 0.0641(4)
O1 O 0.6865(5) 0.0844(4) 0.1412(3)
O2 O 0.7056(5) -0.0150(4) 0.2530(3)
O3 O 0.5368(5) 0.0854(4) 0.3029(3)
O4 O 0.5159(4) 0.1838(4) 0.1932(3)
O5 O 0.8918(5) 0.1961(4) 0.3365(3)
O6 O 0.9732(5) 0.0441(4) 0.2834(3)
O7 O 0.8492(4) -0.0372(4) 0.3655(3)
O8 O 0.7616(5) 0.1156(4) 0.4155(3)
O9 O 0.9591(5) 0.0359(4) 0.4140(3)
O10 O 0.4745(4) 0.3100(4) 0.2688(3)
O11 O 0.5335(6) 0.8523(5) 0.1502(4)
H41 H 0.5179 0.8728 0.1153
H42 H 0.5791 0.8739 0.1493
O12 O 0.5971(5) 0.3890(4) 0.1886(3)
O13 O 0.5183(6) 0.7303(6) 0.2742(4)
H43 H 0.4767 0.7789 0.2862
H44 H 0.5254 0.6884 0.3059
O14 O 0.6367(5) 0.2681(5) 0.1103(3)
O15 O 1.1368(5) 0.0131(5) 0.4529(4)
H45 H 1.1584 0.0591 0.4507
H46 H 1.1549 -0.0017 0.4164
O16 O 0.4450(5) 0.3774(4) 0.1469(3)
O17 O 0.5754(5) 0.1247(4) 0.4470(3)
O18 O 0.5266(5) 0.3092(4) 0.4199(3)
O19 O 0.7143(5) 0.3014(4) 0.3933(3)
O20 O 0.6369(5) 0.2251(5) 0.5106(3)
O21 O 0.5569(5) 0.4074(4) 0.3034(3)
O22 O 0.4459(4) 0.2094(4) 0.3813(3)
O23 O 0.8540(5) 0.0859(5) 0.1533(3)
O24 O 0.8075(5) 0.2675(4) 0.1227(3)
O25 O 0.7664(5) 0.4253(4) 0.1670(3)
O26 O 0.7221(5) 0.4522(4) 0.2876(3)
O27 O 0.4681(5) 0.0203(5) 0.4302(3)
O28 O 1.0480(5) 0.0028(5) 0.1631(4)
O29 O 0.9375(5) 0.1818(4) 0.1869(3)
O30 O 0.8903(5) -0.0529(4) 0.2447(3)
O31 O 0.9596(5) 0.3513(5) 0.1036(3)
O32 O 0.9068(5) 0.3433(4) 0.2290(3)
O33 O 0.6687(4) 0.1894(4) 0.2205(3)
O34 O 0.6284(4) 0.2052(4) 0.3336(3)
O35 O 0.7463(4) 0.2858(4) 0.2552(3)
O36 O 0.6144(5) 0.6877(5) 0.0899(3)
O37 O 0.5489(5) -0.0121(5) 0.2090(3)
O38 O 0.3677(5) 0.4069(4) 0.3676(3)
O39 O 0.6616(5) 0.0002(4) 0.3697(3)
O40 O 0.6000(4) 0.5606(4) 0.2154(3)
O41 O 0.8064(5) 0.1657(5) 0.0368(3)
O42 O 0.7901(5) -0.1707(5) 0.3349(4)
O43 O 0.7931(4) 0.1109(4) 0.2853(3)
P1 P 0.70972(17) 0.19804(15) 0.27327(11)
Co1 Co 0.56464(10) 0.70546(9) 0.18201(7)
Co2 Co 1.0000 0.0000 0.5000
Co3 Co 0.81921(10) 0.33099(9) 0.31643(6)
W1 W 0.60001(3) 0.06643(3) 0.219730(19)
W2 W 0.88663(3) 0.07997(3) 0.360972(18)
W3 W 0.53615(3) 0.30701(3) 0.182132(19)
W4 W 0.64819(3) 0.22110(3) 0.433862(19)
W5 W 0.47660(3) 0.32813(3) 0.347681(19)
W6 W 0.75968(3) 0.17834(3) 0.113633(19)
W7 W 0.65788(3) 0.44361(3) 0.235860(19)
W8 W 0.53892(3) 0.09042(3) 0.386969(19)
W9 W 0.94036(3) 0.05516(3) 0.206898(19)
W10 W 0.78198(3) -0.05440(3) 0.314528(19)
W11 W 0.87894(3) 0.31626(3) 0.16636(2)
C37A C 0.3774(7) 0.4574(7) -0.0697(5)
H25A H 0.3284 0.4854 -0.0910
C38A C 0.4082(7) 0.5125(7) -0.0447(5)
H26A H 0.3802 0.5770 -0.0492
C39A C 0.4812(7) 0.4717(6) -0.0127(4)
C40A C 0.5162(8) 0.3749(7) -0.0055(5)
H27A H 0.5621 0.3448 0.0180
C41A C 0.4852(8) 0.3225(7) -0.0322(5)
H28A H 0.5121 0.2579 -0.0280
N19A N 0.4165(6) 0.3635(6) -0.0641(4)
O36A O 0.3856(5) 0.3123(5) -0.0899(3)
C1A C -0.3960(9) 0.6986(9) -0.5697(7)
H1A H -0.4301 0.6825 -0.5916
C2A C -0.3307(8) 0.6296(8) -0.5419(6)
H2A H -0.3192 0.5677 -0.5463
C3A C -0.2804(8) 0.6510(7) -0.5064(5)
C4A C -0.2989(8) 0.7447(7) -0.5054(6)
H3A H -0.2652 0.7630 -0.4843
C5A C -0.3653(8) 0.8124(7) -0.5343(5)
H4A H -0.3774 0.8750 -0.5315
C6A C -0.2058(7) 0.5788(6) -0.4771(5)
C7A C -0.1248(7) 0.4277(6) -0.4563(4)
C8A C -0.0895(6) 0.5410(6) -0.4273(5)
C9A C -0.1277(7) 0.2028(7) -0.4955(5)
H5A H -0.1670 0.1812 -0.5100
C10A C -0.1581(7) 0.2964(7) -0.4872(5)
H6A H -0.2148 0.3367 -0.4974
C11A C -0.1010(7) 0.3278(6) -0.4633(5)
C12A C -0.0153(7) 0.2649(6) -0.4506(5)
H7A H 0.0255 0.2842 -0.4359
C13A C 0.0079(7) 0.1734(7) -0.4601(5)
H8A H 0.0634 0.1311 -0.4495
C14A C 0.0154(8) 0.6852(7) -0.3690(5)
H9A H 0.0012 0.7470 -0.3634
C15A C -0.0475(8) 0.6614(6) -0.3925(5)
H10A H -0.1014 0.7060 -0.4036
C16A C -0.0262(7) 0.5676(6) -0.3986(5)
C17A C 0.0536(7) 0.5040(7) -0.3809(5)
H11A H 0.0681 0.4410 -0.3837
C18A C 0.1114(7) 0.5349(7) -0.3589(5)
H12A H 0.1651 0.4914 -0.3467
C19A C -0.2879(9) 0.7566(10) -0.2684(7)
H13A H -0.3425 0.7840 -0.2845
C20A C -0.2475(8) 0.6603(9) -0.2637(6)
H14A H -0.2752 0.6238 -0.2761
C21A C -0.1676(8) 0.6201(8) -0.2410(5)
C22A C -0.1254(9) 0.6729(8) -0.2230(6)
H15A H -0.0702 0.6463 -0.2073
C23A C -0.1709(10) 0.7703(10) -0.2295(8)
H16A H -0.1431 0.8081 -0.2185
C24A C -0.1177(7) 0.5174(8) -0.2396(5)
C25A C -0.1000(8) 0.3780(8) -0.2631(5)
C26A C 0.0112(8) 0.3953(8) -0.2219(5)
C27A C 0.2174(7) 0.3728(7) -0.1562(5)
H17A H 0.2313 0.4005 -0.1291
C28A C 0.1256(7) 0.4078(8) -0.1679(5)
H18A H 0.0816 0.4610 -0.1530
C29A C 0.1028(8) 0.3574(8) -0.2042(5)
C30A C 0.1743(9) 0.2838(8) -0.2269(6)
H19A H 0.1610 0.2501 -0.2507
C31A C 0.2656(8) 0.2568(9) -0.2161(6)
H20A H 0.3127 0.2067 -0.2332
C32A C -0.2544(8) 0.2930(9) -0.3261(5)
H21A H -0.3107 0.3185 -0.3406
C33A C -0.2208(8) 0.3530(8) -0.3074(5)
H22A H -0.2535 0.4165 -0.3098
C34A C -0.1385(8) 0.3176(8) -0.2853(5)
C35A C -0.0926(9) 0.2210(9) -0.2830(6)
H23A H -0.0370 0.1935 -0.2680
C36A C -0.1315(9) 0.1688(9) -0.3034(6)
H24A H -0.0997 0.1053 -0.3023
C42A C 0.6438(8) 0.2334(7) -0.1630(5)
H29A H 0.6440 0.1744 -0.1673
C43A C 0.7168(8) 0.2390(7) -0.1399(6)
H30A H 0.7615 0.1851 -0.1263
C44A C 0.7211(7) 0.3270(7) -0.1377(5)
C45A C 0.6539(7) 0.4054(7) -0.1603(5)
H31A H 0.6578 0.4654 -0.1621
C46A C 0.5805(7) 0.3923(7) -0.1802(5)
H32A H 0.5351 0.4449 -0.1944
C47A C 0.7908(8) 0.3401(7) -0.1092(5)
C48A C 0.8327(8) 0.4354(7) -0.0667(5)
C49A C 0.9177(7) 0.2823(7) -0.0675(5)
C50A C 1.1366(10) 0.0758(9) -0.0842(9)
H33A H 1.1747 0.0363 -0.1131
C51A C 1.0545(9) 0.1439(8) -0.0965(7)
H34A H 1.0347 0.1480 -0.1323
C52A C 1.0018(8) 0.2061(7) -0.0549(6)
C53A C 1.0341(9) 0.1963(8) -0.0006(7)
H35A H 1.0020 0.2391 0.0270
C54A C 1.1110(11) 0.1256(9) 0.0115(8)
H36A H 1.1295 0.1170 0.0485
C55A C 0.7407(10) 0.6919(8) -0.0621(6)
H37A H 0.6976 0.7433 -0.0796
C56A C 0.7516(9) 0.6041(7) -0.0749(6)
H38A H 0.7141 0.5975 -0.0987
C57A C 0.8173(7) 0.5274(7) -0.0525(5)
C58A C 0.8694(9) 0.5423(8) -0.0148(6)
H39A H 0.9140 0.4924 0.0025
C59A C 0.8531(8) 0.6317(8) -0.0042(6)
H40A H 0.8891 0.6405 0.0197
N1A N -0.1956(6) 0.4884(6) -0.4806(4)
N2A N -0.1575(6) 0.6081(5) -0.4500(4)
N3A N -0.0699(6) 0.4503(5) -0.4289(4)
N4A N -0.4127(7) 0.7883(7) -0.5667(6)
N5A N -0.0461(6) 0.1429(5) -0.4839(4)
N6A N 0.0947(6) 0.6243(5) -0.3542(4)
N7A N -0.0179(6) 0.3378(7) -0.2452(4)
N8A N -0.1505(6) 0.4664(6) -0.2640(4)
N9A N -0.0390(6) 0.4814(7) -0.2145(4)
N10A N -0.2504(8) 0.8114(9) -0.2504(7)
N11A N -0.2130(7) 0.2018(7) -0.3251(5)
N12A N 0.2864(6) 0.3028(6) -0.1810(4)
N13A N 0.7704(6) 0.4263(6) -0.0942(5)
N14A N 0.8636(6) 0.2673(6) -0.0982(4)
N15A N 0.9074(6) 0.3650(6) -0.0512(4)
N16A N 0.7885(8) 0.7068(7) -0.0263(5)
N17A N 1.1612(10) 0.0669(8) -0.0306(8)
N18A N 0.5728(6) 0.3071(5) -0.1796(4)
O1A O 0.3135(5) 0.9156(4) -0.1412(3)
O2A O 0.2944(5) 1.0150(4) -0.2530(3)
O3A O 0.4632(5) 0.9146(4) -0.3029(3)
O4A O 0.4841(4) 0.8162(4) -0.1932(3)
O5A O 0.1082(5) 0.8039(4) -0.3365(3)
O6A O 0.0268(5) 0.9559(4) -0.2834(3)
O7A O 0.1508(4) 1.0372(4) -0.3655(3)
O8A O 0.2384(5) 0.8844(4) -0.4155(3)
O9A O 0.0409(5) 0.9641(4) -0.4140(3)
O10A O 0.5255(4) 0.6900(4) -0.2688(3)
O11A O 0.4665(6) 0.1477(5) -0.1502(4)
H41A H 0.4821 0.1272 -0.1153
H42A H 0.4209 0.1261 -0.1493
O12A O 0.4029(5) 0.6110(4) -0.1886(3)
O13A O 0.4817(6) 0.2697(6) -0.2742(4)
H43A H 0.5233 0.2211 -0.2862
H44A H 0.4746 0.3116 -0.3059
O14A O 0.3633(5) 0.7319(5) -0.1103(3)
O16A O 0.5550(5) 0.6226(4) -0.1469(3)
O17A O 0.4246(5) 0.8753(4) -0.4470(3)
O18A O 0.4734(5) 0.6908(4) -0.4199(3)
O19A O 0.2857(5) 0.6986(4) -0.3933(3)
O20A O 0.3631(5) 0.7749(5) -0.5106(3)
O21A O 0.4431(5) 0.5926(4) -0.3034(3)
O22A O 0.5541(4) 0.7906(4) -0.3813(3)
O23A O 0.1460(5) 0.9141(5) -0.1533(3)
O24A O 0.1925(5) 0.7325(4) -0.1227(3)
O25A O 0.2336(5) 0.5747(4) -0.1670(3)
O26A O 0.2779(5) 0.5478(4) -0.2876(3)
O27A O 0.5319(5) 0.9797(5) -0.4302(3)
O28A O -0.0480(5) 0.9972(5) -0.1631(4)
O29A O 0.0625(5) 0.8182(4) -0.1869(3)
O30A O 0.1097(5) 1.0529(4) -0.2447(3)
O31A O 0.0404(5) 0.6487(5) -0.1036(3)
O32A O 0.0932(5) 0.6567(4) -0.2290(3)
O33A O 0.3313(4) 0.8106(4) -0.2205(3)
O34A O 0.3716(4) 0.7948(4) -0.3336(3)
O35A O 0.2537(4) 0.7142(4) -0.2552(3)
O37A O 0.4511(5) 1.0121(5) -0.2090(3)
O38A O 0.6323(5) 0.5931(4) -0.3676(3)
O39A O 0.3384(5) 0.9998(4) -0.3697(3)
O40A O 0.4000(4) 0.4394(4) -0.2154(3)
O41A O 0.1936(5) 0.8343(5) -0.0368(3)
O42A O 0.2099(5) 1.1707(5) -0.3349(4)
O43A O 0.2069(4) 0.8891(4) -0.2853(3)
P1A P 0.29028(17) 0.80196(15) -0.27327(11)
Co1A Co 0.43536(10) 0.29454(9) -0.18201(7)
Co3A Co 0.18079(10) 0.66901(9) -0.31643(6)
W1A W 0.39999(3) 0.93357(3) -0.219730(19)
W2A W 0.11337(3) 0.92003(3) -0.360972(18)
W3A W 0.46385(3) 0.69299(3) -0.182132(19)
W4A W 0.35181(3) 0.77890(3) -0.433862(19)
W5A W 0.52340(3) 0.67187(3) -0.347681(19)
W6A W 0.24032(3) 0.82166(3) -0.113633(19)
W7A W 0.34212(3) 0.55639(3) -0.235860(19)
W8A W 0.46108(3) 0.90958(3) -0.386969(19)
W9A W 0.05964(3) 0.94484(3) -0.206898(19)
W10A W 0.21802(3) 1.05440(3) -0.314528(19)
W11A W 0.12106(3) 0.68374(3) -0.16636(2)
O15A O 0.8632(5) -0.0131(5) 0.5471(4)
H45A H 0.8416 -0.0591 0.5493
H46A H 0.8451 0.0017 0.5836
N5_2 N 1.0461(6) -0.1429(5) 0.4839(4)
N5A_2 N 0.9539(6) 0.1429(5) 0.5161(4)
O9A_2 O 1.0409(5) -0.0359(4) 0.5860(3)
Co2_2 Co 0.0000 0.0000 -0.5000
Co2_3 Co 0.0000 1.0000 -0.5000
Co2_4 Co 1.0000 1.0000 0.5000
O44 O 1.2672(5) 0.0536(5) 0.4958(4)
H47 H 1.3137 0.0041 0.4911
H48 H 1.2369 0.0485 0.5339
O45 O 0.4740(7) 0.8770(6) 0.3425(5)
H49 H 0.4966 0.9231 0.3238
H50 H 0.4919 0.8571 0.3766
O46 O 1.2779(8) 0.9165(9) 0.3645(7)
H51 H 1.2452 0.9008 0.3463
O47 O -0.3121(9) 1.0729(11) -0.0057(7)
H52 H -0.2757 1.0526 0.0199
O48 O 0.4944(10) 0.8675(9) -0.0716(6)
H53 H 0.4858 0.8562 -0.1041
O49 O 0.6501(11) 0.8753(8) 0.0297(7)
H54 H 0.6991 0.8322 0.0160
O50 O 1.3325(11) 0.0164(10) 0.2300(11)
H55 H 1.3330 0.0708 0.2323
H56 H 1.3906 -0.0161 0.2194
O51 O 1.4285(16) 0.5085(15) 0.5786(11)
H57 H 1.3762 0.5069 0.6057
H58 H 1.4380 0.5611 0.5760
O52 O 0.2472(10) 1.0027(11) 0.1378(11)
H59 H 0.1945 0.9992 0.1641
O53 O 0.4496(15) 0.627(2) 0.3781(12)
H60 H 0.4686 0.5587 0.3720
loop_
_geom_bond_atom_site_label_1
_geom_bond_atom_site_label_2
_geom_bond_site_symmetry_1
_geom_bond_site_symmetry_2
C1 H1 1_555 1_555
C2 C1 1_555 1_555
H2 C2 1_555 1_555
C3 C2 1_555 1_555
C4 C3 1_555 1_555
H3 C4 1_555 1_555
C5 C4 1_555 1_555
H4 C5 1_555 1_555
C6 C3 1_555 1_555
C7 C11 1_555 1_555
C8 C16 1_555 1_555
C9 H5 1_555 1_555
C10 C9 1_555 1_555
H6 C10 1_555 1_555
C11 C10 1_555 1_555
C12 C11 1_555 1_555
H7 C12 1_555 1_555
C13 C12 1_555 1_555
H8 C13 1_555 1_555
C14 H9 1_555 1_555
C15 C14 1_555 1_555
H10 C15 1_555 1_555
C16 C15 1_555 1_555
C17 C16 1_555 1_555
H11 C17 1_555 1_555
C18 C17 1_555 1_555
H12 C18 1_555 1_555
C19 H13 1_555 1_555
C20 C19 1_555 1_555
H14 C20 1_555 1_555
C21 C20 1_555 1_555
C22 C21 1_555 1_555
H15 C22 1_555 1_555
C23 C22 1_555 1_555
H16 C23 1_555 1_555
C24 C21 1_555 1_555
C25 C34 1_555 1_555
C26 C29 1_555 1_555
C27 H17 1_555 1_555
C28 C27 1_555 1_555
H18 C28 1_555 1_555
C29 C28 1_555 1_555
C30 C29 1_555 1_555
H19 C30 1_555 1_555
C31 C30 1_555 1_555
H20 C31 1_555 1_555
C32 H21 1_555 1_555
C33 C32 1_555 1_555
H22 C33 1_555 1_555
C34 C33 1_555 1_555
C35 C34 1_555 1_555
H23 C35 1_555 1_555
C36 C35 1_555 1_555
H24 C36 1_555 1_555
C37 H25 1_555 1_555
C38 C37 1_555 1_555
H26 C38 1_555 1_555
C39 C38 1_555 1_555
C40 C39 1_555 1_555
H27 C40 1_555 1_555
C41 C40 1_555 1_555
H28 C41 1_555 1_555
C42 H29 1_555 1_555
C43 C42 1_555 1_555
H30 C43 1_555 1_555
C44 C43 1_555 1_555
C45 C44 1_555 1_555
H31 C45 1_555 1_555
C46 C45 1_555 1_555
H32 C46 1_555 1_555
C47 C44 1_555 1_555
C48 C57 1_555 1_555
C49 C52 1_555 1_555
C50 H33 1_555 1_555
C51 C50 1_555 1_555
H34 C51 1_555 1_555
C52 C51 1_555 1_555
C53 C52 1_555 1_555
H35 C53 1_555 1_555
C54 C53 1_555 1_555
H36 C54 1_555 1_555
C55 H37 1_555 1_555
C56 C55 1_555 1_555
H38 C56 1_555 1_555
C57 C56 1_555 1_555
C58 C57 1_555 1_555
H39 C58 1_555 1_555
C59 C58 1_555 1_555
H40 C59 1_555 1_555
N1 C6 1_555 1_555
N2 C6 1_555 1_555
N3 C7 1_555 1_555
N4 C1 1_555 1_555
N5 C9 1_555 1_555
N6 C14 1_555 1_555
N7 C25 1_555 1_555
N8 C24 1_555 1_555
N9 C24 1_555 1_555
N10 C19 1_555 1_555
N11 C32 1_555 1_555
N12 C27 1_555 1_555
N13 C47 1_555 1_555
N14 C47 1_555 1_555
N15 C48 1_555 1_555
N16 C55 1_555 1_555
N17 C50 1_555 1_555
N18 C42 1_555 1_555
N19 C37 1_555 1_555
O1 W1 1_555 1_555
O2 W1 1_555 1_555
O3 W1 1_555 1_555
O4 W1 1_555 1_555
O5 Co3 1_555 1_555
O6 W2 1_555 1_555
O7 W2 1_555 1_555
O8 W2 1_555 1_555
O9 Co2 1_555 1_555
O10 W3 1_555 1_555
O11 H41 1_555 1_555
H42 O11 1_555 1_555
O12 W3 1_555 1_555
O13 H43 1_555 1_555
H44 O13 1_555 1_555
O14 W3 1_555 1_555
O15 H45 1_555 1_555
H46 O15 1_555 1_555
O16 W3 1_555 1_555
O17 W4 1_555 1_555
O18 W4 1_555 1_555
O19 Co3 1_555 1_555
O20 W4 1_555 1_555
O21 W5 1_555 1_555
O22 W5 1_555 1_555
O23 W6 1_555 1_555
O24 W6 1_555 1_555
O25 W7 1_555 1_555
O26 Co3 1_555 1_555
O27 W8 1_555 1_555
O28 W9 1_555 1_555
O29 W9 1_555 1_555
O30 W9 1_555 1_555
O31 W11 1_555 1_555
O32 Co3 1_555 1_555
O33 P1 1_555 1_555
O34 P1 1_555 1_555
O35 P1 1_555 1_555
O36 N19 1_555 1_555
O37 W1 1_555 1_555
O38 W5 1_555 1_555
O39 W8 1_555 1_555
O40 Co1 1_555 1_555
O41 W6 1_555 1_555
O42 W10 1_555 1_555
O43 P1 1_555 1_555
Co1 N12 1_555 1_555
Co2 O15 1_555 1_555
Co3 N6 1_555 1_555
W1 O33 1_555 1_555
W2 O5 1_555 1_555
W3 O4 1_555 1_555
W4 O8 1_555 1_555
W5 O10 1_555 1_555
W6 O1 1_555 1_555
W7 O12 1_555 1_555
W8 O3 1_555 1_555
W9 O6 1_555 1_555
W10 O2 1_555 1_555
W11 O24 1_555 1_555
O44 H47 1_555 1_555
H48 O44 1_555 1_555
O45 H49 1_555 1_555
H50 O45 1_555 1_555
O46 H51 1_555 1_555
O47 H52 1_555 1_555
O48 H53 1_555 1_555
O49 H54 1_555 1_555
O50 H55 1_555 1_555
H56 O50 1_555 1_555
O51 H57 1_555 1_555
H58 O51 1_555 1_555
O52 H59 1_555 1_555
O53 H60 1_555 1_555
C37A H25A 1_555 1_555
C38A C37A 1_555 1_555
H26A C38A 1_555 1_555
C39A C39 1_555 1_555
C40A C39A 1_555 1_555
H27A C40A 1_555 1_555
C41A C40A 1_555 1_555
H28A C41A 1_555 1_555
N19A C37A 1_555 1_555
O36A N19A 1_555 1_555
C1A H1A 1_555 1_555
C2A C1A 1_555 1_555
H2A C2A 1_555 1_555
C3A C2A 1_555 1_555
C4A C3A 1_555 1_555
H3A C4A 1_555 1_555
C5A C4A 1_555 1_555
H4A C5A 1_555 1_555
C6A C3A 1_555 1_555
C7A C11A 1_555 1_555
C8A C16A 1_555 1_555
C9A H5A 1_555 1_555
C10A C9A 1_555 1_555
H6A C10A 1_555 1_555
C11A C10A 1_555 1_555
C12A C11A 1_555 1_555
H7A C12A 1_555 1_555
C13A C12A 1_555 1_555
H8A C13A 1_555 1_555
C14A H9A 1_555 1_555
C15A C14A 1_555 1_555
H10A C15A 1_555 1_555
C16A C15A 1_555 1_555
C17A C16A 1_555 1_555
H11A C17A 1_555 1_555
C18A C17A 1_555 1_555
H12A C18A 1_555 1_555
C19A H13A 1_555 1_555
C20A C19A 1_555 1_555
H14A C20A 1_555 1_555
C21A C20A 1_555 1_555
C22A C21A 1_555 1_555
H15A C22A 1_555 1_555
C23A C22A 1_555 1_555
H16A C23A 1_555 1_555
C24A C21A 1_555 1_555
C25A C34A 1_555 1_555
C26A C29A 1_555 1_555
C27A H17A 1_555 1_555
C28A C27A 1_555 1_555
H18A C28A 1_555 1_555
C29A C28A 1_555 1_555
C30A C29A 1_555 1_555
H19A C30A 1_555 1_555
C31A C30A 1_555 1_555
H20A C31A 1_555 1_555
C32A H21A 1_555 1_555
C33A C32A 1_555 1_555
H22A C33A 1_555 1_555
C34A C33A 1_555 1_555
C35A C34A 1_555 1_555
H23A C35A 1_555 1_555
C36A C35A 1_555 1_555
H24A C36A 1_555 1_555
C42A H29A 1_555 1_555
C43A C42A 1_555 1_555
H30A C43A 1_555 1_555
C44A C43A 1_555 1_555
C45A C44A 1_555 1_555
H31A C45A 1_555 1_555
C46A C45A 1_555 1_555
H32A C46A 1_555 1_555
C47A C44A 1_555 1_555
C48A C57A 1_555 1_555
C49A C52A 1_555 1_555
C50A H33A 1_555 1_555
C51A C50A 1_555 1_555
H34A C51A 1_555 1_555
C52A C51A 1_555 1_555
C53A C52A 1_555 1_555
H35A C53A 1_555 1_555
C54A C53A 1_555 1_555
H36A C54A 1_555 1_555
C55A H37A 1_555 1_555
C56A C55A 1_555 1_555
H38A C56A 1_555 1_555
C57A C56A 1_555 1_555
C58A C57A 1_555 1_555
H39A C58A 1_555 1_555
C59A C58A 1_555 1_555
H40A C59A 1_555 1_555
N1A C6A 1_555 1_555
N2A C6A 1_555 1_555
N3A C7A 1_555 1_555
N4A C1A 1_555 1_555
N5A C9A 1_555 1_555
N6A C14A 1_555 1_555
N7A C25A 1_555 1_555
N8A C24A 1_555 1_555
N9A C24A 1_555 1_555
N10A C19A 1_555 1_555
N11A C32A 1_555 1_555
N12A C27A 1_555 1_555
N13A C47A 1_555 1_555
N14A C47A 1_555 1_555
N15A C48A 1_555 1_555
N16A C55A 1_555 1_555
N17A C50A 1_555 1_555
N18A C42A 1_555 1_555
O1A W1A 1_555 1_555
O2A W1A 1_555 1_555
O3A W1A 1_555 1_555
O4A W1A 1_555 1_555
O5A Co3A 1_555 1_555
O6A W2A 1_555 1_555
O7A W2A 1_555 1_555
O8A W2A 1_555 1_555
O9A W2A 1_555 1_555
O10A W3A 1_555 1_555
O11A H41A 1_555 1_555
H42A O11A 1_555 1_555
O12A W3A 1_555 1_555
O13A H43A 1_555 1_555
H44A O13A 1_555 1_555
O14A W3A 1_555 1_555
O16A W3A 1_555 1_555
O17A W4A 1_555 1_555
O18A W4A 1_555 1_555
O19A Co3A 1_555 1_555
O20A W4A 1_555 1_555
O21A W5A 1_555 1_555
O22A W5A 1_555 1_555
O23A W6A 1_555 1_555
O24A W6A 1_555 1_555
O25A W7A 1_555 1_555
O26A Co3A 1_555 1_555
O27A W8A 1_555 1_555
O28A W9A 1_555 1_555
O29A W9A 1_555 1_555
O30A W9A 1_555 1_555
O31A W11A 1_555 1_555
O32A Co3A 1_555 1_555
O33A P1A 1_555 1_555
O34A P1A 1_555 1_555
O35A P1A 1_555 1_555
O37A W1A 1_555 1_555
O38A W5A 1_555 1_555
O39A W8A 1_555 1_555
O40A Co1A 1_555 1_555
O41A W6A 1_555 1_555
O42A W10A 1_555 1_555
O43A P1A 1_555 1_555
Co1A O36A 1_555 1_555
Co3A N6A 1_555 1_555
W1A O33A 1_555 1_555
W2A O5A 1_555 1_555
W3A O4A 1_555 1_555
W4A O8A 1_555 1_555
W5A O10A 1_555 1_555
W6A O1A 1_555 1_555
W7A O12A 1_555 1_555
W8A O3A 1_555 1_555
W9A O6A 1_555 1_555
W10A O2A 1_555 1_555
W11A O24A 1_555 1_555
O15A Co2 1_555 1_555
H45A O15A 1_555 1_555
H46A O15A 1_555 1_555
N5_2 Co2 1_555 1_555
N5A_2 Co2 1_555 1_555
O9A_2 Co2 1_555 1_555
Co2_2 N5A 1_555 1_555
Co2_3 O9A 1_555 1_555
Co2_4 N5 1_555 1_555
C5 N4 1_555 1_555
C7 N1 1_555 1_555
C8 N2 1_555 1_555
C8 N3 1_555 1_555
C13 N5 1_555 1_555
C18 N6 1_555 1_555
C23 N10 1_555 1_555
C25 N8 1_555 1_555
C26 N7 1_555 1_555
C26 N9 1_555 1_555
C31 N12 1_555 1_555
C36 N11 1_555 1_555
C41 N19 1_555 1_555
C46 N18 1_555 1_555
C48 N13 1_555 1_555
C49 N14 1_555 1_555
C49 N15 1_555 1_555
C54 N17 1_555 1_555
C59 N16 1_555 1_555
N18 Co1 1_555 1_555
O7 W10 1_555 1_555
O9 W2 1_555 1_555
O11 Co1 1_555 1_555
O13 Co1 1_555 1_555
O14 W6 1_555 1_555
O17 W8 1_555 1_555
O18 W5 1_555 1_555
O19 W4 1_555 1_555
O21 W7 1_555 1_555
O22 W8 1_555 1_555
O23 W9 1_555 1_555
O25 W11 1_555 1_555
O26 W7 1_555 1_555
O29 W11 1_555 1_555
O30 W10 1_555 1_555
O32 W11 1_555 1_555
O33 W3 1_555 1_555
O33 W6 1_555 1_555
O34 W4 1_555 1_555
O34 W5 1_555 1_555
O34 W8 1_555 1_555
O35 Co3 1_555 1_555
O35 W7 1_555 1_555
O35 W11 1_555 1_555
O36 Co1 1_555 1_555
O39 W10 1_555 1_555
O40 W7 1_555 1_555
O43 W2 1_555 1_555
O43 W9 1_555 1_555
C38A C39A 1_555 1_555
C41A N19A 1_555 1_555
C5A N4A 1_555 1_555
C7A N1A 1_555 1_555
C8A N2A 1_555 1_555
C8A N3A 1_555 1_555
C13A N5A 1_555 1_555
C18A N6A 1_555 1_555
C23A N10A 1_555 1_555
C25A N8A 1_555 1_555
C26A N7A 1_555 1_555
C26A N9A 1_555 1_555
C31A N12A 1_555 1_555
C36A N11A 1_555 1_555
C46A N18A 1_555 1_555
C48A N13A 1_555 1_555
C49A N14A 1_555 1_555
C49A N15A 1_555 1_555
C54A N17A 1_555 1_555
C59A N16A 1_555 1_555
N12A Co1A 1_555 1_555
N18A Co1A 1_555 1_555
O7A W10A 1_555 1_555
O11A Co1A 1_555 1_555
O13A Co1A 1_555 1_555
O14A W6A 1_555 1_555
O17A W8A 1_555 1_555
O18A W5A 1_555 1_555
O19A W4A 1_555 1_555
O21A W7A 1_555 1_555
O22A W8A 1_555 1_555
O23A W9A 1_555 1_555
O25A W11A 1_555 1_555
O26A W7A 1_555 1_555
O29A W11A 1_555 1_555
O30A W10A 1_555 1_555
O32A W11A 1_555 1_555
O33A W3A 1_555 1_555
O33A W6A 1_555 1_555
O34A W4A 1_555 1_555
O34A W5A 1_555 1_555
O34A W8A 1_555 1_555
O35A Co3A 1_555 1_555
O35A W7A 1_555 1_555
O35A W11A 1_555 1_555
O39A W10A 1_555 1_555
O40A W7A 1_555 1_555
O43A W2A 1_555 1_555
O43A W9A 1_555 1_555

#END
