
#######################################################################
#
#                 Cambridge Crystallographic Data Centre
#                                CCDC 
#
#######################################################################
#
# If this CIF has been generated from an entry in the Cambridge 
# Structural Database, then it will include bibliographic, chemical, 
# crystal, experimental, refinement or atomic coordinate data resulting 
# from the CCDC's data processing and validation procedures.
#
#######################################################################

data_YOHMEP
_symmetry_cell_setting           triclinic
_symmetry_space_group_name_H-M   'P -1'
_symmetry_Int_Tables_number      2
_space_group_name_Hall           '-P 1'
loop_
_symmetry_equiv_pos_site_id
_symmetry_equiv_pos_as_xyz
1 x,y,z
2 -x,-y,-z
_cell_length_a                   15.049(5)
_cell_length_b                   15.269(5)
_cell_length_c                   22.867(5)
_cell_angle_alpha                75.758(5)
_cell_angle_beta                 72.920(5)
_cell_angle_gamma                70.938(5)
_cell_volume                     4681.32
loop_
_atom_site_label
_atom_site_type_symbol
_atom_site_fract_x
_atom_site_fract_y
_atom_site_fract_z
C1 C 0.3712(9) 0.2033(8) 0.5028(6)
H1 H 0.3326 0.1826 0.4871
C2 C 0.5079(9) 0.1745(8) 0.5380(5)
H2 H 0.5643 0.1325 0.5477
C3 C 0.4852(8) 0.2642(7) 0.5479(5)
H3 H 0.5259 0.2825 0.5633
C4 C 0.3993(8) 0.3292(7) 0.5349(5)
C5 C 0.3406(9) 0.2955(8) 0.5126(5)
H4 H 0.2820 0.3347 0.5046
C6 C 0.3729(8) 0.4286(7) 0.5430(5)
C7 C 0.4105(8) 0.5412(7) 0.5718(5)
C8 C 0.4717(8) 0.5682(7) 0.6002(5)
C9 C 0.4505(8) 0.6604(8) 0.6080(5)
H5 H 0.3960 0.7054 0.5978
C10 C 0.3970(9) 0.6391(9) 0.2048(5)
C11 C 0.2838(9) 0.6254(8) 0.1561(5)
H6 H 0.2711 0.5966 0.1291
C12 C 0.2356(11) 0.7419(9) 0.2150(7)
H7 H 0.1895 0.7935 0.2306
C13 C 0.3280(9) 0.7134(9) 0.2270(6)
H8 H 0.3421 0.7464 0.2508
C14 C 0.3728(9) 0.5945(9) 0.1682(6)
H9 H 0.4180 0.5431 0.1519
C15 C 0.4921(9) 0.6050(9) 0.2218(5)
C16 C 0.6015(9) 0.6211(10) 0.2642(5)
C17 C 0.5939(10) 0.7766(11) 0.2848(7)
H10 H 0.5379 0.8042 0.2701
C18 C 0.7221(10) 0.6454(9) 0.3078(6)
H11 H 0.7549 0.5819 0.3099
C19 C 0.6381(8) 0.6808(9) 0.2862(5)
C20 C -0.1414(9) 0.7667(8) 0.1615(6)
H12 H -0.1402 0.8264 0.1634
C21 C -0.0803(8) 0.6077(8) 0.1793(5)
H13 H -0.0367 0.5549 0.1953
C22 C -0.2150(9) 0.7580(8) 0.1410(6)
H14 H -0.2628 0.8114 0.1301
C23 C -0.2184(9) 0.6716(8) 0.1366(5)
C24 C -0.1513(8) 0.5946(8) 0.1574(5)
H15 H -0.1530 0.5344 0.1569
C25 C -0.2897(8) 0.6582(8) 0.1089(5)
C26 C -0.4183(8) 0.7156(8) 0.0670(6)
C27 C -0.3338(9) 0.5655(8) 0.0670(6)
C28 C -0.5026(9) 0.7942(9) 0.0528(7)
C29 C -0.5329(10) 0.8022(10) -0.0010(7)
H16 H -0.5008 0.7594 -0.0283
C30 C -0.3170(9) 0.4716(9) 0.0522(5)
C31 C -0.2527(10) 0.3934(8) 0.0761(6)
H17 H -0.2173 0.3989 0.1015
C32 C 0.0190(9) 0.6764(8) 0.0304(5)
H18 H -0.0042 0.7416 0.0244
C33 C -0.0166(8) 0.6267(8) 0.0055(5)
H19 H -0.0645 0.6577 -0.0164
C34 C 0.0918(8) 0.4887(8) 0.0444(5)
H20 H 0.1200 0.4242 0.0486
C35 C 0.0193(8) 0.5280(8) 0.0128(5)
C36 C 0.1004(12) 0.7007(10) 0.4326(8)
H21 H 0.0662 0.6857 0.4104
C37 C 0.1659(10) 0.6301(10) 0.4600(7)
H22 H 0.1765 0.5679 0.4566
C38 C 0.2166(8) 0.6539(7) 0.4931(5)
C39 C 0.1322(9) 0.8139(9) 0.4678(6)
H23 H 0.1191 0.8769 0.4703
C40 C 0.2009(9) 0.7474(8) 0.4961(6)
H24 H 0.2357 0.7649 0.5167
C41 C 0.2905(7) 0.5792(7) 0.5229(5)
C42 C 0.5527(8) 0.5027(8) 0.6183(5)
H25 H 0.5667 0.4399 0.6151
C43 C 0.5138(8) 0.6830(8) 0.6315(5)
H26 H 0.4995 0.7447 0.6374
C44 C -0.3701(9) 0.4579(9) 0.0146(6)
H27 H -0.4160 0.5079 -0.0016
C45 C 0.1234(9) 0.5408(8) 0.0696(5)
H28 H 0.1713 0.5113 0.0916
C46 C 0.6194(9) 0.4828(9) 0.2392(6)
C47 C 0.6673(9) 0.3801(10) 0.2402(6)
C48 C 0.6118(8) 0.5322(8) 0.6408(5)
H29 H 0.6656 0.4882 0.6527
C49 C 0.7489(9) 0.3386(11) 0.2638(7)
H30 H 0.7770 0.3740 0.2770
C50 C 0.7564(10) 0.7055(11) 0.3261(6)
H31 H 0.8132 0.6802 0.3401
C51 C 0.6328(11) 0.8315(11) 0.3052(7)
H32 H 0.6006 0.8949 0.3049
C52 C -0.2412(11) 0.3069(9) 0.0621(7)
H33 H -0.1963 0.2555 0.0781
C53 C -0.3517(10) 0.3686(11) 0.0031(6)
H34 H -0.3840 0.3606 -0.0234
C54 C 0.7870(11) 0.2426(12) 0.2672(8)
H35 H 0.8418 0.2147 0.2830
C55 C 0.6262(11) 0.3240(10) 0.2234(7)
H36 H 0.5691 0.3495 0.2098
C56 C -0.5517(11) 0.8540(11) 0.0956(8)
H37 H -0.5309 0.8481 0.1312
C57 C -0.6107(12) 0.8741(11) -0.0122(9)
H38 H -0.6295 0.8833 -0.0491
C58 C 0.6721(12) 0.2290(12) 0.2275(8)
H39 H 0.6464 0.1917 0.2141
C59 C -0.6345(12) 0.9241(12) 0.0827(11)
H40 H -0.6706 0.9644 0.1111
N1 N 0.4532(6) 0.1423(6) 0.5147(4)
N2 N 0.4289(6) 0.4496(6) 0.5695(4)
N3 N 0.3411(7) 0.6075(6) 0.5495(4)
N4 N 0.3024(6) 0.4888(6) 0.5186(4)
N5 N -0.3634(7) 0.7316(7) 0.0977(5)
N6 N -0.2709(7) 0.5745(7) 0.0940(5)
N7 N -0.4065(7) 0.6347(7) 0.0491(5)
N8 N 0.0866(7) 0.6347(7) 0.0634(4)
N9 N 0.5178(7) 0.6607(7) 0.2459(5)
N10 N 0.5406(7) 0.5142(7) 0.2158(5)
N11 N 0.6536(7) 0.5314(7) 0.2625(5)
N12 N 0.0843(7) 0.7890(7) 0.4368(5)
N13 N 0.2130(7) 0.6952(7) 0.1810(5)
N14 N -0.0715(7) 0.6927(7) 0.1786(4)
N15 N 0.7142(8) 0.7971(8) 0.3251(6)
N16 N -0.2902(10) 0.2925(9) 0.0273(6)
N17 N 0.7519(9) 0.1875(9) 0.2497(7)
N18 N -0.6625(11) 0.9340(9) 0.0303(9)
N19 N 0.5942(7) 0.6221(7) 0.6462(4)
O1 O 0.2459(5) 0.2823(4) 0.2531(3)
O2 O 0.2930(5) 0.1081(5) 0.2838(3)
O3 O 0.1305(5) 0.2017(5) 0.3320(3)
O4 O 0.1695(5) 0.1851(5) 0.2204(3)
O5 O 0.0350(6) 0.8511(5) 0.1499(4)
H41 H -0.0189 0.8764 0.1389
H42 H 0.0442 0.8931 0.1650
O6 O 0.1377(6) 0.2207(6) 0.5081(4)
O7 O 0.0157(7) 0.7268(6) 0.2747(4)
H43 H 0.0544 0.6855 0.2929
H44 H -0.0196 0.7664 0.2995
O8 O 0.0760(5) 0.1203(5) 0.4453(3)
O9 O 0.0263(5) 0.3049(5) 0.4172(3)
O10 O 0.2160(5) 0.3000(5) 0.3904(4)
O11 O 0.2619(5) 0.1147(5) 0.4132(3)
O12 O 0.4605(5) 0.0348(5) 0.4126(4)
O13 O 0.4748(5) 0.0409(5) 0.2834(3)
O14 O 0.3497(5) -0.0394(5) 0.3652(3)
O15 O -0.0326(6) 0.0164(5) 0.4295(3)
O16 O 0.6367(6) 0.0171(6) 0.4511(4)
H45 H 0.6412 0.0682 0.4570
H46 H 0.6794 -0.0276 0.4660
O17 O 0.0363(5) 0.0817(5) 0.3023(3)
O18 O -0.0538(5) 0.2068(5) 0.3790(3)
O19 O 0.3905(5) -0.0545(5) 0.2466(3)
O20 O 0.3552(5) 0.0818(5) 0.1536(3)
O21 O 0.4397(6) 0.1798(5) 0.1863(3)
O22 O 0.3096(5) 0.2650(5) 0.1222(3)
O23 O 0.4612(6) 0.3485(6) 0.1030(4)
O24 O 0.2676(5) 0.4228(5) 0.1653(3)
O25 O 0.4089(5) 0.3414(5) 0.2278(3)
O26 O 0.1032(6) 0.5579(5) 0.2127(4)
O27 O 0.2247(5) 0.4476(5) 0.2853(4)
O28 O 0.0597(5) 0.4032(5) 0.3016(3)
O29 O 0.0996(5) 0.3863(5) 0.1877(3)
O30 O -0.1309(6) 0.4043(5) 0.3659(4)
O31 O 0.1169(6) 0.6874(5) 0.0883(4)
O32 O -0.0531(5) 0.3740(5) 0.1456(4)
O33 O 0.1380(5) 0.2649(5) 0.1099(3)
O34 O 0.0166(5) 0.1801(5) 0.1927(3)
O35 O 0.3066(6) 0.1635(5) 0.0380(4)
O36 O 0.1859(5) 0.0819(5) 0.1416(3)
O37 O 0.2053(5) -0.0181(5) 0.2532(3)
O38 O 0.0502(6) -0.0169(5) 0.2097(4)
O39 O -0.0241(5) 0.3052(5) 0.2670(3)
O40 O 0.5486(6) -0.0006(5) 0.1631(4)
O41 O 0.1628(5) -0.0027(5) 0.3681(3)
O42 O 0.3922(5) 0.1950(5) 0.3351(3)
O43 O 0.2907(6) -0.1742(5) 0.3364(4)
P1 P 0.2098(2) 0.19559(19) 0.27197(13)
Zn1 Zn 0.06503(10) 0.70648(9) 0.18165(6)
Zn2 Zn 0.32320(9) 0.33219(9) 0.31701(6)
Zn3 Zn 0.5000 0.0000 0.5000
W1 W 0.14902(3) 0.21838(3) 0.43148(2)
W2 W 0.38735(3) 0.07856(3) 0.35969(2)
W3 W 0.03937(3) 0.08689(3) 0.38572(2)
W4 W 0.44056(3) 0.05257(3) 0.20713(2)
W5 W 0.37983(3) 0.31409(3) 0.16630(2)
W6 W 0.15985(3) 0.43997(3) 0.23427(2)
W7 W -0.02249(3) 0.32500(3) 0.34579(2)
W8 W 0.03676(3) 0.30381(3) 0.18147(2)
W9 W 0.26020(3) 0.17594(3) 0.11382(2)
W10 W 0.28254(3) -0.05760(3) 0.31507(2)
W11 W 0.10116(3) 0.06277(3) 0.21977(2)
C32A C -0.0190(9) 0.3236(8) -0.0304(5)
H18A H 0.0042 0.2584 -0.0244
C33A C 0.0166(8) 0.3733(8) -0.0055(5)
H19A H 0.0645 0.3423 0.0164
C34A C -0.0918(8) 0.5113(8) -0.0444(5)
H20A H -0.1200 0.5758 -0.0486
C35A C -0.0193(8) 0.4720(8) -0.0128(5)
C45A C -0.1234(9) 0.4592(8) -0.0696(5)
H28A H -0.1713 0.4887 -0.0916
N8A N -0.0866(7) 0.3653(7) -0.0634(4)
O31A O -0.1169(6) 0.3126(5) -0.0883(4)
C10A C -0.3970(9) 0.3609(9) -0.2048(5)
C11A C -0.2838(9) 0.3746(8) -0.1561(5)
H6A H -0.2711 0.4034 -0.1291
C12A C -0.2356(11) 0.2581(9) -0.2150(7)
H7A H -0.1895 0.2065 -0.2306
C13A C -0.3280(9) 0.2866(9) -0.2270(6)
H8A H -0.3421 0.2536 -0.2508
C14A C -0.3728(9) 0.4055(9) -0.1682(6)
H9A H -0.4180 0.4569 -0.1519
C15A C -0.4921(9) 0.3950(9) -0.2218(5)
C16A C -0.6015(9) 0.3789(10) -0.2642(5)
C17A C -0.5939(10) 0.2234(11) -0.2848(7)
H10A H -0.5379 0.1958 -0.2701
C18A C -0.7221(10) 0.3546(9) -0.3078(6)
H11A H -0.7549 0.4181 -0.3099
C19A C -0.6381(8) 0.3192(9) -0.2862(5)
C20A C 0.1414(9) 0.2333(8) -0.1615(6)
H12A H 0.1402 0.1736 -0.1634
C21A C 0.0803(8) 0.3923(8) -0.1793(5)
H13A H 0.0367 0.4451 -0.1953
C22A C 0.2150(9) 0.2420(8) -0.1410(6)
H14A H 0.2628 0.1886 -0.1301
C23A C 0.2184(9) 0.3284(8) -0.1366(5)
C24A C 0.1513(8) 0.4054(8) -0.1574(5)
H15A H 0.1530 0.4656 -0.1569
C25A C 0.2897(8) 0.3418(8) -0.1089(5)
C26A C 0.4183(8) 0.2844(8) -0.0670(6)
C27A C 0.3338(9) 0.4345(8) -0.0670(6)
C28A C 0.5026(9) 0.2058(9) -0.0528(7)
C29A C 0.5329(10) 0.1978(10) 0.0010(7)
H16A H 0.5008 0.2406 0.0283
C30A C 0.3170(9) 0.5284(9) -0.0522(5)
C31A C 0.2527(10) 0.6066(8) -0.0761(6)
H17A H 0.2173 0.6011 -0.1015
C44A C 0.3701(9) 0.5421(9) -0.0146(6)
H27A H 0.4160 0.4921 0.0016
C46A C -0.6194(9) 0.5172(9) -0.2392(6)
C47A C -0.6673(9) 0.6199(10) -0.2402(6)
C49A C -0.7489(9) 0.6614(11) -0.2638(7)
H30A H -0.7770 0.6260 -0.2770
C50A C -0.7564(10) 0.2945(11) -0.3261(6)
H31A H -0.8132 0.3198 -0.3401
C51A C -0.6328(11) 0.1685(11) -0.3052(7)
H32A H -0.6006 0.1051 -0.3049
C52A C 0.2412(11) 0.6931(9) -0.0621(7)
H33A H 0.1963 0.7445 -0.0781
C53A C 0.3517(10) 0.6314(11) -0.0031(6)
H34A H 0.3840 0.6394 0.0234
C54A C -0.7870(11) 0.7574(12) -0.2672(8)
H35A H -0.8418 0.7853 -0.2830
C55A C -0.6262(11) 0.6760(10) -0.2234(7)
H36A H -0.5691 0.6505 -0.2098
C56A C 0.5517(11) 0.1460(11) -0.0956(8)
H37A H 0.5309 0.1519 -0.1312
C57A C 0.6107(12) 0.1259(11) 0.0122(9)
H38A H 0.6295 0.1167 0.0491
C58A C -0.6721(12) 0.7710(12) -0.2275(8)
H39A H -0.6464 0.8083 -0.2141
C59A C 0.6345(12) 0.0759(12) -0.0827(11)
H40A H 0.6706 0.0356 -0.1111
N5A N 0.3634(7) 0.2684(7) -0.0977(5)
N6A N 0.2709(7) 0.4255(7) -0.0940(5)
N7A N 0.4065(7) 0.3653(7) -0.0491(5)
N9A N -0.5178(7) 0.3393(7) -0.2459(5)
N10A N -0.5406(7) 0.4858(7) -0.2158(5)
N11A N -0.6536(7) 0.4686(7) -0.2625(5)
N13A N -0.2130(7) 0.3048(7) -0.1810(5)
N14A N 0.0715(7) 0.3073(7) -0.1786(4)
N15A N -0.7142(8) 0.2029(8) -0.3251(6)
N16A N 0.2902(10) 0.7075(9) -0.0273(6)
N17A N -0.7519(9) 0.8125(9) -0.2497(7)
N18A N 0.6625(11) 0.0660(9) -0.0303(9)
O1A O -0.2459(5) 0.7177(4) -0.2531(3)
O2A O -0.2930(5) 0.8919(5) -0.2838(3)
O3A O -0.1305(5) 0.7983(5) -0.3320(3)
O4A O -0.1695(5) 0.8149(5) -0.2204(3)
O5A O -0.0350(6) 0.1489(5) -0.1499(4)
H41A H 0.0189 0.1236 -0.1389
H42A H -0.0442 0.1069 -0.1650
O6A O -0.1377(6) 0.7793(6) -0.5081(4)
O7A O -0.0157(7) 0.2732(6) -0.2747(4)
H43A H -0.0544 0.3145 -0.2929
H44A H 0.0196 0.2336 -0.2995
O8A O -0.0760(5) 0.8797(5) -0.4453(3)
O9A O -0.0263(5) 0.6951(5) -0.4172(3)
O10A O -0.2160(5) 0.7000(5) -0.3904(4)
O11A O -0.2619(5) 0.8853(5) -0.4132(3)
O12A O -0.4605(5) 0.9652(5) -0.4126(4)
O13A O -0.4748(5) 0.9591(5) -0.2834(3)
O14A O -0.3497(5) 1.0394(5) -0.3652(3)
O15A O 0.0326(6) 0.9836(5) -0.4295(3)
O17A O -0.0363(5) 0.9183(5) -0.3023(3)
O18A O 0.0538(5) 0.7932(5) -0.3790(3)
O19A O -0.3905(5) 1.0545(5) -0.2466(3)
O20A O -0.3552(5) 0.9182(5) -0.1536(3)
O21A O -0.4397(6) 0.8202(5) -0.1863(3)
O22A O -0.3096(5) 0.7350(5) -0.1222(3)
O23A O -0.4612(6) 0.6515(6) -0.1030(4)
O24A O -0.2676(5) 0.5772(5) -0.1653(3)
O25A O -0.4089(5) 0.6586(5) -0.2278(3)
O26A O -0.1032(6) 0.4421(5) -0.2127(4)
O27A O -0.2247(5) 0.5524(5) -0.2853(4)
O28A O -0.0597(5) 0.5968(5) -0.3016(3)
O29A O -0.0996(5) 0.6137(5) -0.1877(3)
O30A O 0.1309(6) 0.5957(5) -0.3659(4)
O32A O 0.0531(5) 0.6260(5) -0.1456(4)
O33A O -0.1380(5) 0.7351(5) -0.1099(3)
O34A O -0.0166(5) 0.8199(5) -0.1927(3)
O35A O -0.3066(6) 0.8365(5) -0.0380(4)
O36A O -0.1859(5) 0.9181(5) -0.1416(3)
O37A O -0.2053(5) 1.0181(5) -0.2532(3)
O38A O -0.0502(6) 1.0169(5) -0.2097(4)
O39A O 0.0241(5) 0.6948(5) -0.2670(3)
O40A O -0.5486(6) 1.0006(5) -0.1631(4)
O41A O -0.1628(5) 1.0027(5) -0.3681(3)
O42A O -0.3922(5) 0.8050(5) -0.3351(3)
O43A O -0.2907(6) 1.1742(5) -0.3364(4)
P1A P -0.2098(2) 0.80441(19) -0.27197(13)
Zn1A Zn -0.06503(10) 0.29352(9) -0.18165(6)
Zn2A Zn -0.32320(9) 0.66781(9) -0.31701(6)
W1A W -0.14902(3) 0.78162(3) -0.43148(2)
W2A W -0.38735(3) 0.92144(3) -0.35969(2)
W3A W -0.03937(3) 0.91311(3) -0.38572(2)
W4A W -0.44056(3) 0.94743(3) -0.20713(2)
W5A W -0.37983(3) 0.68591(3) -0.16630(2)
W6A W -0.15985(3) 0.56003(3) -0.23427(2)
W7A W 0.02249(3) 0.67500(3) -0.34579(2)
W8A W -0.03676(3) 0.69619(3) -0.18147(2)
W9A W -0.26020(3) 0.82406(3) -0.11382(2)
W10A W -0.28254(3) 1.05760(3) -0.31507(2)
W11A W -0.10116(3) 0.93723(3) -0.21977(2)
C1A C 0.6288(9) 0.7967(8) 0.4972(6)
H1A H 0.6674 0.8174 0.5129
C2A C 0.4921(9) 0.8255(8) 0.4620(5)
H2A H 0.4357 0.8675 0.4523
C3A C 0.5148(8) 0.7358(7) 0.4521(5)
H3A H 0.4741 0.7175 0.4367
C4A C 0.6007(8) 0.6708(7) 0.4651(5)
C5A C 0.6594(9) 0.7045(8) 0.4874(5)
H4A H 0.7180 0.6653 0.4954
C6A C 0.6271(8) 0.5714(7) 0.4570(5)
C7A C 0.5895(8) 0.4588(7) 0.4282(5)
C8A C 0.5283(8) 0.4318(7) 0.3998(5)
C9A C 0.5495(8) 0.3396(8) 0.3920(5)
H5A H 0.6040 0.2946 0.4022
C36A C 0.8996(12) 0.2993(10) 0.5674(8)
H21A H 0.9338 0.3143 0.5896
C37A C 0.8341(10) 0.3699(10) 0.5400(7)
H22A H 0.8235 0.4321 0.5434
C38A C 0.7834(8) 0.3461(7) 0.5069(5)
C39A C 0.8678(9) 0.1861(9) 0.5322(6)
H23A H 0.8809 0.1231 0.5297
C40A C 0.7991(9) 0.2526(8) 0.5039(6)
H24A H 0.7643 0.2351 0.4833
C41A C 0.7095(7) 0.4208(7) 0.4771(5)
C42A C 0.4473(8) 0.4973(8) 0.3817(5)
H25A H 0.4333 0.5601 0.3849
C43A C 0.4862(8) 0.3170(8) 0.3685(5)
H26A H 0.5005 0.2553 0.3626
C48A C 0.3882(8) 0.4678(8) 0.3592(5)
H29A H 0.3344 0.5118 0.3473
N1A N 0.5468(6) 0.8577(6) 0.4853(4)
N2A N 0.5711(6) 0.5504(6) 0.4305(4)
N3A N 0.6589(7) 0.3925(6) 0.4505(4)
N4A N 0.6976(6) 0.5112(6) 0.4814(4)
N12A N 0.9157(7) 0.2110(7) 0.5632(5)
N19A N 0.4058(7) 0.3779(7) 0.3538(4)
O16A O 0.3633(6) -0.0171(6) 0.5489(4)
H45A H 0.3588 -0.0682 0.5430
H46A H 0.3206 0.0276 0.5340
N1A_2 N 0.5468(6) -0.1423(6) 0.4853(4)
N19_2 N -0.4058(7) 0.6221(7) -0.3538(4)
O12A_2 O 0.5395(5) -0.0348(5) 0.5874(4)
Zn2A_2 Zn 0.67680(9) 0.66781(9) 0.68299(6)
Zn3_2 Zn -0.5000 1.0000 -0.5000
Zn3_3 Zn 0.5000 1.0000 0.5000
O44 O 0.7685(6) 0.0509(6) 0.4959(4)
H47 H 0.7638 0.0310 0.5351
H48 H 0.8268 0.0463 0.4790
O45 O 0.007(3) 0.578(2) 0.3685(16)
H49 H -0.0126 0.5446 0.3532
O46 O 0.8323(11) 0.0094(11) 0.2317(11)
H50 H 0.8353 0.0647 0.2336
H51 H 0.8865 -0.0274 0.2307
O47 O 0.7765(9) 0.9162(12) 0.3641(7)
H52 H 0.7600 0.8668 0.3634
H53 H 0.7321 0.9632 0.3529
O48 O -0.8109(10) 1.0738(11) -0.0054(7)
H54 H -0.7602 1.0698 0.0081
O49 O 0.7466(11) 0.0030(11) 0.1386(10)
H55 H 0.6853 0.0019 0.1504
O50 O 0.1465(13) 0.8750(9) 0.0314(7)
H56 H 0.1832 0.8358 0.0060
H57 H 0.1847 0.8884 0.0463
O51 O -0.0283(7) 0.8721(6) 0.3437(5)
H58 H -0.0021 0.8531 0.3750
H59 H -0.0007 0.9137 0.3196
O52 O 0.0114(12) 0.1321(9) 0.0705(7)
H60 H -0.0393 0.1158 0.0935
O53 O -0.093(3) 0.010(2) 0.0697(13)
H61 H -0.1017 0.0242 0.0331
O54 O 0.083(3) 0.481(2) 0.4310(15)
H62 H 0.1284 0.4298 0.4291
loop_
_geom_bond_atom_site_label_1
_geom_bond_atom_site_label_2
_geom_bond_site_symmetry_1
_geom_bond_site_symmetry_2
C1 H1 1_555 1_555
C2 H2 1_555 1_555
C3 C2 1_555 1_555
H3 C3 1_555 1_555
C4 C3 1_555 1_555
C5 C1 1_555 1_555
H4 C5 1_555 1_555
C6 C4 1_555 1_555
C7 C8 1_555 1_555
C8 C9 1_555 1_555
C9 H5 1_555 1_555
C10 C13 1_555 1_555
C11 H6 1_555 1_555
C12 H7 1_555 1_555
C13 C12 1_555 1_555
H8 C13 1_555 1_555
C14 C10 1_555 1_555
H9 C14 1_555 1_555
C15 C10 1_555 1_555
C16 C19 1_555 1_555
C17 H10 1_555 1_555
C18 H11 1_555 1_555
C19 C17 1_555 1_555
C20 H12 1_555 1_555
C21 H13 1_555 1_555
C22 C20 1_555 1_555
H14 C22 1_555 1_555
C23 C22 1_555 1_555
C24 C21 1_555 1_555
H15 C24 1_555 1_555
C25 C23 1_555 1_555
C26 C28 1_555 1_555
C27 C30 1_555 1_555
C28 C29 1_555 1_555
C29 H16 1_555 1_555
C30 C31 1_555 1_555
C31 H17 1_555 1_555
C32 H18 1_555 1_555
C33 C32 1_555 1_555
H19 C33 1_555 1_555
C34 H20 1_555 1_555
C35 C33 1_555 1_555
C36 H21 1_555 1_555
C37 C36 1_555 1_555
H22 C37 1_555 1_555
C38 C37 1_555 1_555
C39 H23 1_555 1_555
C40 C38 1_555 1_555
H24 C40 1_555 1_555
C41 C38 1_555 1_555
C42 C8 1_555 1_555
H25 C42 1_555 1_555
C43 C9 1_555 1_555
H26 C43 1_555 1_555
C44 C30 1_555 1_555
H27 C44 1_555 1_555
C45 C34 1_555 1_555
H28 C45 1_555 1_555
C46 C47 1_555 1_555
C47 C49 1_555 1_555
C48 C42 1_555 1_555
H29 C48 1_555 1_555
C49 H30 1_555 1_555
C50 C18 1_555 1_555
H31 C50 1_555 1_555
C51 C17 1_555 1_555
H32 C51 1_555 1_555
C52 C31 1_555 1_555
H33 C52 1_555 1_555
C53 C44 1_555 1_555
H34 C53 1_555 1_555
C54 C49 1_555 1_555
H35 C54 1_555 1_555
C55 C47 1_555 1_555
H36 C55 1_555 1_555
C56 C28 1_555 1_555
H37 C56 1_555 1_555
C57 C29 1_555 1_555
H38 C57 1_555 1_555
C58 C55 1_555 1_555
H39 C58 1_555 1_555
C59 C56 1_555 1_555
H40 C59 1_555 1_555
N1 C1 1_555 1_555
N2 C6 1_555 1_555
N3 C7 1_555 1_555
N4 C6 1_555 1_555
N5 C25 1_555 1_555
N6 C25 1_555 1_555
N7 C26 1_555 1_555
N8 C32 1_555 1_555
N9 C15 1_555 1_555
N10 C15 1_555 1_555
N11 C16 1_555 1_555
N12 C36 1_555 1_555
N13 C11 1_555 1_555
N14 C20 1_555 1_555
N15 C50 1_555 1_555
N16 C52 1_555 1_555
N17 C54 1_555 1_555
N18 C57 1_555 1_555
N19 C43 1_555 1_555
O1 P1 1_555 1_555
O2 P1 1_555 1_555
O3 P1 1_555 1_555
O4 P1 1_555 1_555
O5 H41 1_555 1_555
H42 O5 1_555 1_555
O6 W1 1_555 1_555
O7 H43 1_555 1_555
H44 O7 1_555 1_555
O8 W1 1_555 1_555
O9 W1 1_555 1_555
O10 Zn2 1_555 1_555
O11 W1 1_555 1_555
O12 Zn3 1_555 1_555
O13 W2 1_555 1_555
O14 W2 1_555 1_555
O15 W3 1_555 1_555
O16 H45 1_555 1_555
H46 O16 1_555 1_555
O17 W3 1_555 1_555
O18 W3 1_555 1_555
O19 W4 1_555 1_555
O20 W4 1_555 1_555
O21 W4 1_555 1_555
O22 W5 1_555 1_555
O23 W5 1_555 1_555
O24 W5 1_555 1_555
O25 Zn2 1_555 1_555
O26 Zn1 1_555 1_555
O27 Zn2 1_555 1_555
O28 W6 1_555 1_555
O29 W6 1_555 1_555
O30 W7 1_555 1_555
O31 N8 1_555 1_555
O32 W8 1_555 1_555
O33 W8 1_555 1_555
O34 W8 1_555 1_555
O35 W9 1_555 1_555
O36 W9 1_555 1_555
O37 W10 1_555 1_555
O38 W11 1_555 1_555
O39 W7 1_555 1_555
O40 W4 1_555 1_555
O41 W3 1_555 1_555
O42 Zn2 1_555 1_555
O43 W10 1_555 1_555
Zn1 N13 1_555 1_555
Zn2 O1 1_555 1_555
Zn3 N1 1_555 1_555
W1 O3 1_555 1_555
W2 O2 1_555 1_555
W3 O3 1_555 1_555
W4 O2 1_555 1_555
W5 O1 1_555 1_555
W6 O1 1_555 1_555
W7 O3 1_555 1_555
W8 O4 1_555 1_555
W9 O4 1_555 1_555
W10 O2 1_555 1_555
W11 O4 1_555 1_555
O44 H47 1_555 1_555
H48 O44 1_555 1_555
O45 H49 1_555 1_555
O46 H50 1_555 1_555
H51 O46 1_555 1_555
O47 H52 1_555 1_555
H53 O47 1_555 1_555
O48 H54 1_555 1_555
O49 H55 1_555 1_555
O50 H56 1_555 1_555
H57 O50 1_555 1_555
O51 H58 1_555 1_555
H59 O51 1_555 1_555
O52 H60 1_555 1_555
O53 H61 1_555 1_555
O54 H62 1_555 1_555
C32A H18A 1_555 1_555
C33A C32A 1_555 1_555
H19A C33A 1_555 1_555
C34A H20A 1_555 1_555
C35A C35 1_555 1_555
C45A C34A 1_555 1_555
H28A C45A 1_555 1_555
N8A C32A 1_555 1_555
O31A N8A 1_555 1_555
C10A C13A 1_555 1_555
C11A H6A 1_555 1_555
C12A H7A 1_555 1_555
C13A C12A 1_555 1_555
H8A C13A 1_555 1_555
C14A C10A 1_555 1_555
H9A C14A 1_555 1_555
C15A C10A 1_555 1_555
C16A C19A 1_555 1_555
C17A H10A 1_555 1_555
C18A H11A 1_555 1_555
C19A C17A 1_555 1_555
C20A H12A 1_555 1_555
C21A H13A 1_555 1_555
C22A C20A 1_555 1_555
H14A C22A 1_555 1_555
C23A C22A 1_555 1_555
C24A C21A 1_555 1_555
H15A C24A 1_555 1_555
C25A C23A 1_555 1_555
C26A C28A 1_555 1_555
C27A C30A 1_555 1_555
C28A C29A 1_555 1_555
C29A H16A 1_555 1_555
C30A C31A 1_555 1_555
C31A H17A 1_555 1_555
C44A C30A 1_555 1_555
H27A C44A 1_555 1_555
C46A C47A 1_555 1_555
C47A C49A 1_555 1_555
C49A H30A 1_555 1_555
C50A C18A 1_555 1_555
H31A C50A 1_555 1_555
C51A C17A 1_555 1_555
H32A C51A 1_555 1_555
C52A C31A 1_555 1_555
H33A C52A 1_555 1_555
C53A C44A 1_555 1_555
H34A C53A 1_555 1_555
C54A C49A 1_555 1_555
H35A C54A 1_555 1_555
C55A C47A 1_555 1_555
H36A C55A 1_555 1_555
C56A C28A 1_555 1_555
H37A C56A 1_555 1_555
C57A C29A 1_555 1_555
H38A C57A 1_555 1_555
C58A C55A 1_555 1_555
H39A C58A 1_555 1_555
C59A C56A 1_555 1_555
H40A C59A 1_555 1_555
N5A C25A 1_555 1_555
N6A C25A 1_555 1_555
N7A C26A 1_555 1_555
N9A C15A 1_555 1_555
N10A C15A 1_555 1_555
N11A C16A 1_555 1_555
N13A C11A 1_555 1_555
N14A C20A 1_555 1_555
N15A C50A 1_555 1_555
N16A C52A 1_555 1_555
N17A C54A 1_555 1_555
N18A C57A 1_555 1_555
O1A P1A 1_555 1_555
O2A P1A 1_555 1_555
O3A P1A 1_555 1_555
O4A P1A 1_555 1_555
O5A H41A 1_555 1_555
H42A O5A 1_555 1_555
O6A W1A 1_555 1_555
O7A H43A 1_555 1_555
H44A O7A 1_555 1_555
O8A W1A 1_555 1_555
O9A W1A 1_555 1_555
O10A Zn2A 1_555 1_555
O11A W1A 1_555 1_555
O12A W2A 1_555 1_555
O13A W2A 1_555 1_555
O14A W2A 1_555 1_555
O15A W3A 1_555 1_555
O17A W3A 1_555 1_555
O18A W3A 1_555 1_555
O19A W4A 1_555 1_555
O20A W4A 1_555 1_555
O21A W4A 1_555 1_555
O22A W5A 1_555 1_555
O23A W5A 1_555 1_555
O24A W5A 1_555 1_555
O25A Zn2A 1_555 1_555
O26A Zn1A 1_555 1_555
O27A Zn2A 1_555 1_555
O28A W6A 1_555 1_555
O29A W6A 1_555 1_555
O30A W7A 1_555 1_555
O32A W8A 1_555 1_555
O33A W8A 1_555 1_555
O34A W8A 1_555 1_555
O35A W9A 1_555 1_555
O36A W9A 1_555 1_555
O37A W10A 1_555 1_555
O38A W11A 1_555 1_555
O39A W7A 1_555 1_555
O40A W4A 1_555 1_555
O41A W3A 1_555 1_555
O42A Zn2A 1_555 1_555
O43A W10A 1_555 1_555
Zn1A O31A 1_555 1_555
Zn2A O1A 1_555 1_555
W1A O3A 1_555 1_555
W2A O2A 1_555 1_555
W3A O3A 1_555 1_555
W4A O2A 1_555 1_555
W5A O1A 1_555 1_555
W6A O1A 1_555 1_555
W7A O3A 1_555 1_555
W8A O4A 1_555 1_555
W9A O4A 1_555 1_555
W10A O2A 1_555 1_555
W11A O4A 1_555 1_555
C1A H1A 1_555 1_555
C2A H2A 1_555 1_555
C3A C2A 1_555 1_555
H3A C3A 1_555 1_555
C4A C3A 1_555 1_555
C5A C1A 1_555 1_555
H4A C5A 1_555 1_555
C6A C4A 1_555 1_555
C7A C8A 1_555 1_555
C8A C9A 1_555 1_555
C9A H5A 1_555 1_555
C36A H21A 1_555 1_555
C37A C36A 1_555 1_555
H22A C37A 1_555 1_555
C38A C37A 1_555 1_555
C39A H23A 1_555 1_555
C40A C38A 1_555 1_555
H24A C40A 1_555 1_555
C41A C38A 1_555 1_555
C42A C8A 1_555 1_555
H25A C42A 1_555 1_555
C43A C9A 1_555 1_555
H26A C43A 1_555 1_555
C48A C42A 1_555 1_555
H29A C48A 1_555 1_555
N1A C1A 1_555 1_555
N2A C6A 1_555 1_555
N3A C7A 1_555 1_555
N4A C6A 1_555 1_555
N12A C36A 1_555 1_555
N19A Zn2 1_555 1_555
O16A Zn3 1_555 1_555
H45A O16A 1_555 1_555
H46A O16A 1_555 1_555
N1A_2 Zn3 1_555 1_555
N19_2 Zn2A 1_555 1_555
O12A_2 Zn3 1_555 1_555
Zn2A_2 N19 1_555 1_555
Zn3_2 O12A 1_555 1_555
Zn3_3 N1A 1_555 1_555
C2 N1 1_555 1_555
C4 C5 1_555 1_555
C7 N2 1_555 1_555
C11 C14 1_555 1_555
C12 N13 1_555 1_555
C16 N9 1_555 1_555
C18 C19 1_555 1_555
C21 N14 1_555 1_555
C23 C24 1_555 1_555
C26 N5 1_555 1_555
C27 N6 1_555 1_555
C27 N7 1_555 1_555
C34 C35 1_555 1_555
C39 C40 1_555 1_555
C39 N12 1_555 1_555
C41 N3 1_555 1_555
C41 N4 1_555 1_555
C45 N8 1_555 1_555
C46 N10 1_555 1_555
C46 N11 1_555 1_555
C48 N19 1_555 1_555
C51 N15 1_555 1_555
C53 N16 1_555 1_555
C58 N17 1_555 1_555
C59 N18 1_555 1_555
N14 Zn1 1_555 1_555
O5 Zn1 1_555 1_555
O7 Zn1 1_555 1_555
O8 W3 1_555 1_555
O9 W7 1_555 1_555
O10 W1 1_555 1_555
O11 W2 1_555 1_555
O12 W2 1_555 1_555
O13 W4 1_555 1_555
O14 W10 1_555 1_555
O16 Zn3 1_555 1_555
O17 W11 1_555 1_555
O18 W7 1_555 1_555
O19 W10 1_555 1_555
O20 W9 1_555 1_555
O21 W5 1_555 1_555
O22 W9 1_555 1_555
O24 W6 1_555 1_555
O25 W5 1_555 1_555
O26 W6 1_555 1_555
O27 W6 1_555 1_555
O28 W7 1_555 1_555
O29 W8 1_555 1_555
O31 Zn1 1_555 1_555
O33 W9 1_555 1_555
O34 W11 1_555 1_555
O36 W11 1_555 1_555
O37 W11 1_555 1_555
O39 W8 1_555 1_555
O41 W10 1_555 1_555
O42 W2 1_555 1_555
C33A C35A 1_555 1_555
C34A C35A 1_555 1_555
C45A N8A 1_555 1_555
C11A C14A 1_555 1_555
C12A N13A 1_555 1_555
C16A N9A 1_555 1_555
C18A C19A 1_555 1_555
C21A N14A 1_555 1_555
C23A C24A 1_555 1_555
C26A N5A 1_555 1_555
C27A N6A 1_555 1_555
C27A N7A 1_555 1_555
C46A N10A 1_555 1_555
C46A N11A 1_555 1_555
C51A N15A 1_555 1_555
C53A N16A 1_555 1_555
C58A N17A 1_555 1_555
C59A N18A 1_555 1_555
N13A Zn1A 1_555 1_555
N14A Zn1A 1_555 1_555
O5A Zn1A 1_555 1_555
O7A Zn1A 1_555 1_555
O8A W3A 1_555 1_555
O9A W7A 1_555 1_555
O10A W1A 1_555 1_555
O11A W2A 1_555 1_555
O13A W4A 1_555 1_555
O14A W10A 1_555 1_555
O17A W11A 1_555 1_555
O18A W7A 1_555 1_555
O19A W10A 1_555 1_555
O20A W9A 1_555 1_555
O21A W5A 1_555 1_555
O22A W9A 1_555 1_555
O24A W6A 1_555 1_555
O25A W5A 1_555 1_555
O26A W6A 1_555 1_555
O27A W6A 1_555 1_555
O28A W7A 1_555 1_555
O29A W8A 1_555 1_555
O33A W9A 1_555 1_555
O34A W11A 1_555 1_555
O36A W11A 1_555 1_555
O37A W11A 1_555 1_555
O39A W8A 1_555 1_555
O41A W10A 1_555 1_555
O42A W2A 1_555 1_555
C2A N1A 1_555 1_555
C4A C5A 1_555 1_555
C7A N2A 1_555 1_555
C39A C40A 1_555 1_555
C39A N12A 1_555 1_555
C41A N3A 1_555 1_555
C41A N4A 1_555 1_555
C43A N19A 1_555 1_555
C48A N19A 1_555 1_555

#END
