
#######################################################################
#
#                 Cambridge Crystallographic Data Centre
#                                CCDC 
#
#######################################################################
#
# If this CIF has been generated from an entry in the Cambridge 
# Structural Database, then it will include bibliographic, chemical, 
# crystal, experimental, refinement or atomic coordinate data resulting 
# from the CCDC's data processing and validation procedures.
#
#######################################################################

data_YOHSAQ
_symmetry_cell_setting           monoclinic
_symmetry_space_group_name_H-M   'P 21/c'
_symmetry_Int_Tables_number      14
_space_group_name_Hall           '-P 2ybc'
loop_
_symmetry_equiv_pos_site_id
_symmetry_equiv_pos_as_xyz
1 x,y,z
2 -x,1/2+y,1/2-z
3 -x,-y,-z
4 x,1/2-y,1/2+z
_cell_length_a                   14.0489(3)
_cell_length_b                   18.5549(5)
_cell_length_c                   15.6531(4)
_cell_angle_alpha                90
_cell_angle_beta                 104.023(3)
_cell_angle_gamma                90
_cell_volume                     3958.78
loop_
_atom_site_label
_atom_site_type_symbol
_atom_site_fract_x
_atom_site_fract_y
_atom_site_fract_z
Eu1 Eu 0.480628(15) 0.371968(11) 0.244008(13)
Eu2 Eu 0.143900(14) 0.634400(11) 0.184390(14)
O1 O 0.0858(2) 0.74392(18) 0.1016(2)
H1 H 0.108(4) 0.7831(19) 0.129(3)
H2 H 0.080(4) 0.753(2) 0.0465(13)
O2 O -0.0317(2) 0.62576(17) 0.1479(2)
H3 H -0.058(3) 0.629(2) 0.190(2)
H4 H -0.053(3) 0.5914(17) 0.114(2)
O3 O 0.3653(2) 0.47066(16) 0.2081(2)
O4 O 0.28676(19) 0.56548(15) 0.24822(19)
O5 O 0.6068(2) 0.28448(15) 0.2540(2)
O6 O 0.7157(2) 0.20430(15) 0.3250(2)
O7 O 0.3527(2) 0.28651(16) 0.2284(2)
O8 O 0.2350(2) 0.21564(17) 0.1476(2)
O9 O 0.6074(2) 0.45597(17) 0.2902(2)
O10 O 0.7412(2) 0.5121(2) 0.2739(2)
O11 O 0.1316(2) 0.58073(16) 0.0466(2)
O12 O 0.1119(2) 0.48941(18) -0.0483(2)
O13 O 0.1249(2) 0.71126(16) 0.2997(2)
O14 O 0.0936(2) 0.73578(17) 0.4297(2)
N1 N 0.4217(2) 0.42513(18) 0.3719(2)
N2 N 0.5547(2) 0.32069(18) 0.3965(2)
N3 N 0.4077(2) 0.32874(18) 0.0886(2)
N4 N 0.5566(2) 0.42010(17) 0.1243(2)
N5 N 0.1079(2) 0.49931(19) 0.1747(2)
N6 N 0.1059(2) 0.57330(19) 0.3193(2)
C1 C 0.3627(3) 0.4815(2) 0.3584(3)
C2 C 0.3296(3) 0.5151(2) 0.4263(3)
H5 H 0.2903 0.5559 0.4150
C3 C 0.3564(3) 0.4864(2) 0.5095(3)
H6 H 0.3323 0.5063 0.5547
C4 C 0.4202(3) 0.4272(2) 0.5264(3)
C5 C 0.4520(3) 0.3992(2) 0.4543(3)
C6 C 0.5254(3) 0.3426(2) 0.4679(3)
C7 C 0.5638(3) 0.3163(2) 0.5531(3)
C8 C 0.6396(3) 0.2641(2) 0.5629(3)
H7 H 0.6685 0.2450 0.6180
C9 C 0.6697(3) 0.2421(2) 0.4893(3)
H8 H 0.7190 0.2078 0.4944
C10 C 0.6255(3) 0.2716(2) 0.4071(3)
C11 C 0.4577(3) 0.3960(3) 0.6118(3)
H9 H 0.4337 0.4116 0.6590
C12 C 0.5276(3) 0.3442(2) 0.6244(3)
H10 H 0.5526 0.3262 0.6808
C13 C 0.3350(3) 0.5086(2) 0.2642(3)
C14 C 0.6525(3) 0.2513(2) 0.3214(3)
C15 C 0.3338(3) 0.2818(2) 0.0739(3)
C16 C 0.2900(3) 0.2561(2) -0.0103(3)
H11 H 0.2381 0.2237 -0.0186
C17 C 0.3240(3) 0.2790(2) -0.0808(3)
H12 H 0.2948 0.2625 -0.1372
C18 C 0.4033(3) 0.3276(2) -0.0676(3)
C19 C 0.4420(3) 0.3508(2) 0.0189(3)
C20 C 0.5231(3) 0.4001(2) 0.0390(3)
C21 C 0.5655(3) 0.4245(2) -0.0279(3)
C22 C 0.6451(3) 0.4720(2) -0.0030(3)
H13 H 0.6749 0.4903 -0.0454
C23 C 0.6791(3) 0.4914(2) 0.0830(3)
H14 H 0.7325 0.5223 0.0998
C24 C 0.6320(3) 0.4638(2) 0.1463(3)
C25 C 0.4472(3) 0.3539(2) -0.1359(3)
H15 H 0.4224 0.3392 -0.1938
C26 C 0.5244(3) 0.3999(2) -0.1163(3)
H16 H 0.5516 0.4160 -0.1614
C27 C 0.3032(3) 0.2588(2) 0.1566(3)
C28 C 0.6642(3) 0.4802(2) 0.2432(3)
C29 C 0.1076(3) 0.4648(2) 0.1006(3)
C30 C 0.1004(3) 0.3890(3) 0.0937(3)
H17 H 0.1006 0.3661 0.0410
C31 C 0.0930(3) 0.3495(3) 0.1666(4)
H18 H 0.0869 0.2996 0.1630
C32 C 0.0948(3) 0.3848(2) 0.2457(3)
C33 C 0.1003(3) 0.4605(2) 0.2458(3)
C34 C 0.1008(3) 0.5005(2) 0.3242(3)
C35 C 0.0981(3) 0.4645(3) 0.4028(3)
C36 C 0.1030(3) 0.5073(3) 0.4782(3)
H19 H 0.1055 0.4860 0.5324
C37 C 0.1039(3) 0.5815(3) 0.4703(3)
H20 H 0.1036 0.6104 0.5188
C38 C 0.1053(3) 0.6130(2) 0.3896(3)
C39 C 0.0896(3) 0.3490(3) 0.3269(4)
H21 H 0.0841 0.2991 0.3277
C40 C 0.0925(3) 0.3867(3) 0.4010(4)
H22 H 0.0908 0.3620 0.4523
C41 C 0.1186(3) 0.5140(3) 0.0266(3)
C42 C 0.1079(3) 0.6937(3) 0.3727(3)
Eu2A Eu 0.856100(14) 0.134400(11) 0.315610(14)
O6A O 0.2843(2) 0.70430(15) 0.1750(2)
O15 O 0.8405(3) 0.3698(2) 0.1369(3)
H23 H 0.864(3) 0.4034(13) 0.113(3)
H24 H 0.864(3) 0.3305(11) 0.124(3)
O16 O 0.8444(3) 0.3674(2) 0.3130(3)
H25 H 0.850(5) 0.364(3) 0.2605(19)
H26 H 0.823(3) 0.4089(15) 0.321(3)
O17 O 1.1324(4) 0.1249(2) 0.2294(5)
H27 H 1.149(5) 0.089(2) 0.203(5)
H28 H 1.182(3) 0.152(3) 0.248(5)
loop_
_geom_bond_atom_site_label_1
_geom_bond_atom_site_label_2
_geom_bond_site_symmetry_1
_geom_bond_site_symmetry_2
Eu1 O3 1_555 1_555
Eu2 O1 1_555 1_555
O1 H1 1_555 1_555
H2 O1 1_555 1_555
O2 Eu2 1_555 1_555
H3 O2 1_555 1_555
H4 O2 1_555 1_555
O3 C13 1_555 1_555
O4 Eu2 1_555 1_555
O5 Eu1 1_555 1_555
O6 C14 1_555 1_555
O7 Eu1 1_555 1_555
O8 C27 1_555 1_555
O9 Eu1 1_555 1_555
O10 C28 1_555 1_555
O11 Eu2 1_555 1_555
O12 C41 1_555 1_555
O13 Eu2 1_555 1_555
O14 C42 1_555 1_555
N1 Eu1 1_555 1_555
N2 Eu1 1_555 1_555
N3 Eu1 1_555 1_555
N4 Eu1 1_555 1_555
N5 Eu2 1_555 1_555
N6 Eu2 1_555 1_555
C1 N1 1_555 1_555
C2 C1 1_555 1_555
H5 C2 1_555 1_555
C3 C2 1_555 1_555
H6 C3 1_555 1_555
C4 C3 1_555 1_555
C5 N1 1_555 1_555
C6 N2 1_555 1_555
C7 C6 1_555 1_555
C8 C7 1_555 1_555
H7 C8 1_555 1_555
C9 C8 1_555 1_555
H8 C9 1_555 1_555
C10 N2 1_555 1_555
C11 C4 1_555 1_555
H9 C11 1_555 1_555
C12 C7 1_555 1_555
H10 C12 1_555 1_555
C13 O4 1_555 1_555
C14 O5 1_555 1_555
C15 N3 1_555 1_555
C16 C15 1_555 1_555
H11 C16 1_555 1_555
C17 C16 1_555 1_555
H12 C17 1_555 1_555
C18 C17 1_555 1_555
C19 N3 1_555 1_555
C20 N4 1_555 1_555
C21 C20 1_555 1_555
C22 C21 1_555 1_555
H13 C22 1_555 1_555
C23 C22 1_555 1_555
H14 C23 1_555 1_555
C24 N4 1_555 1_555
C25 C18 1_555 1_555
H15 C25 1_555 1_555
C26 C21 1_555 1_555
H16 C26 1_555 1_555
C27 O7 1_555 1_555
C28 O9 1_555 1_555
C29 N5 1_555 1_555
C30 C29 1_555 1_555
H17 C30 1_555 1_555
C31 C30 1_555 1_555
H18 C31 1_555 1_555
C32 C31 1_555 1_555
C33 N5 1_555 1_555
C34 N6 1_555 1_555
C35 C34 1_555 1_555
C36 C35 1_555 1_555
H19 C36 1_555 1_555
C37 C36 1_555 1_555
H20 C37 1_555 1_555
C38 N6 1_555 1_555
C39 C32 1_555 1_555
H21 C39 1_555 1_555
C40 C35 1_555 1_555
H22 C40 1_555 1_555
C41 O11 1_555 1_555
C42 O13 1_555 1_555
O15 H23 1_555 1_555
H24 O15 1_555 1_555
O16 H25 1_555 1_555
H26 O16 1_555 1_555
O17 H27 1_555 1_555
H28 O17 1_555 1_555
Eu2A O6 1_555 1_555
O6A Eu2 1_555 1_555
C1 C13 1_555 1_555
C4 C5 1_555 1_555
C5 C6 1_555 1_555
C9 C10 1_555 1_555
C10 C14 1_555 1_555
C11 C12 1_555 1_555
C15 C27 1_555 1_555
C18 C19 1_555 1_555
C19 C20 1_555 1_555
C23 C24 1_555 1_555
C24 C28 1_555 1_555
C25 C26 1_555 1_555
C29 C41 1_555 1_555
C32 C33 1_555 1_555
C33 C34 1_555 1_555
C37 C38 1_555 1_555
C38 C42 1_555 1_555
C39 C40 1_555 1_555

#END
