
#######################################################################
#
#                 Cambridge Crystallographic Data Centre
#                                CCDC 
#
#######################################################################
#
# If this CIF has been generated from an entry in the Cambridge 
# Structural Database, then it will include bibliographic, chemical, 
# crystal, experimental, refinement or atomic coordinate data resulting 
# from the CCDC's data processing and validation procedures.
#
#######################################################################

data_YOJFUA
_symmetry_cell_setting           monoclinic
_symmetry_space_group_name_H-M   'C 2/c'
_symmetry_Int_Tables_number      15
_space_group_name_Hall           '-C 2yn'
loop_
_symmetry_equiv_pos_site_id
_symmetry_equiv_pos_as_xyz
1 x,y,z
2 -x,y,1/2-z
3 1/2+x,1/2+y,z
4 1/2-x,1/2+y,1/2-z
5 -x,-y,-z
6 x,-y,1/2+z
7 1/2-x,1/2-y,-z
8 1/2+x,1/2-y,1/2+z
_cell_length_a                   10.1151(3)
_cell_length_b                   10.4202(3)
_cell_length_c                   16.6017(4)
_cell_angle_alpha                90
_cell_angle_beta                 102.895(3)
_cell_angle_gamma                90
_cell_volume                     1705.71
loop_
_atom_site_label
_atom_site_type_symbol
_atom_site_fract_x
_atom_site_fract_y
_atom_site_fract_z
Ag1 Ag 0.50000 0.87688(2) 0.75000
K1 K 0.00000 0.92562(5) 0.75000
O1 O 0.10311(12) 0.97369(13) 0.92200(7)
O2 O 0.1693(2) 1.12724(16) 0.75487(15)
O3 O 0.34623(19) 1.1762(2) 0.71077(12)
O4 O 0.28293(16) 1.29613(16) 0.79901(9)
N1 N 0.46747(14) 0.86752(13) 0.87367(8)
N2 N 0.17730(16) 0.96141(16) 1.05991(9)
N3 N 0.26658(14) 1.19798(15) 0.75526(9)
C1 C 0.35494(15) 0.91275(15) 0.89322(9)
C2 C 0.32814(14) 0.90000(14) 0.97137(9)
C3 C 0.42474(16) 0.84042(15) 1.03206(9)
C4 C 0.54040(16) 0.79152(16) 1.01160(10)
C5 C 0.55768(16) 0.80555(16) 0.93229(10)
C6 C 0.19377(15) 0.94859(14) 0.98313(9)
H1 H 0.29160 0.95480 0.85260
H2 H 0.098(2) 0.985(2) 1.0662(13)
H3 H 0.235(3) 0.940(2) 1.0997(15)
H4 H 0.41220 0.83330 1.08570
H5 H 0.60570 0.74960 1.05120
H6 H 0.63460 0.77090 0.91880
O1A O -0.10311(12) 0.97369(13) 0.57800(7)
O2A O -0.1693(2) 1.12724(16) 0.74513(15)
O3A O -0.34623(19) 1.1762(2) 0.78923(12)
O4A O -0.28293(16) 1.29613(16) 0.70099(9)
N1A N -0.46747(14) 0.86752(13) 0.62633(8)
N2A N -0.17730(16) 0.96141(16) 0.44009(9)
N3A N -0.26658(14) 1.19798(15) 0.74474(9)
C1A C -0.35494(15) 0.91275(15) 0.60678(9)
C2A C -0.32814(14) 0.90000(14) 0.52863(9)
C3A C -0.42474(16) 0.84042(15) 0.46794(9)
C4A C -0.54040(16) 0.79152(16) 0.48840(10)
C5A C -0.55768(16) 0.80555(16) 0.56771(10)
C6A C -0.19377(15) 0.94859(14) 0.51687(9)
H1A H -0.29160 0.95480 0.64740
H2A H -0.098(2) 0.985(2) 0.4338(13)
H3A H -0.235(3) 0.940(2) 0.4003(15)
H4A H -0.41220 0.83330 0.41430
H5A H -0.60570 0.74960 0.44880
H6A H -0.63460 0.77090 0.58120
Ag1_2 Ag -0.50000 0.87688(2) 0.75000
K1B K -0.50000 1.42562(5) 0.75000
K1B_2 K 0.50000 1.42562(5) 0.75000
O3B O -0.15377(19) 0.6762(2) 0.71077(12)
O3C O 0.15377(19) 0.6762(2) 0.78923(12)
O4B O -0.21707(16) 0.79613(16) 0.79901(9)
O4C O 0.21707(16) 0.79613(16) 0.70099(9)
N1A_2 N 0.53253(14) 0.86752(13) 0.62633(8)
loop_
_geom_bond_atom_site_label_1
_geom_bond_atom_site_label_2
_geom_bond_site_symmetry_1
_geom_bond_site_symmetry_2
Ag1 N1 1_555 1_555
K1 O1 1_555 1_555
O1 C6 1_555 1_555
O2 K1 1_555 1_555
O3 N3 1_555 1_555
O4 N3 1_555 1_555
N1 C1 1_555 1_555
N2 C6 1_555 1_555
N3 O2 1_555 1_555
C1 C2 1_555 1_555
C2 C3 1_555 1_555
C3 C4 1_555 1_555
C4 C5 1_555 1_555
C5 N1 1_555 1_555
C6 C2 1_555 1_555
H1 C1 1_555 1_555
H2 N2 1_555 1_555
H3 N2 1_555 1_555
H4 C3 1_555 1_555
H5 C4 1_555 1_555
H6 C5 1_555 1_555
O1A K1 1_555 1_555
O2A K1 1_555 1_555
O3A N3A 1_555 1_555
O4A N3A 1_555 1_555
N1A C1A 1_555 1_555
N2A C6A 1_555 1_555
N3A O2A 1_555 1_555
C1A C2A 1_555 1_555
C2A C3A 1_555 1_555
C3A C4A 1_555 1_555
C4A C5A 1_555 1_555
C5A N1A 1_555 1_555
C6A O1A 1_555 1_555
H1A C1A 1_555 1_555
H2A N2A 1_555 1_555
H3A N2A 1_555 1_555
H4A C3A 1_555 1_555
H5A C4A 1_555 1_555
H6A C5A 1_555 1_555
Ag1_2 N1A 1_555 1_555
K1B O3A 1_555 1_555
K1B_2 O3 1_555 1_555
O3B K1 1_555 1_555
O3C K1 1_555 1_555
O4B K1 1_555 1_555
O4C K1 1_555 1_555
N1A_2 Ag1 1_555 1_555
O4 K1B_2 1_555 1_555
O4A K1B 1_555 1_555
C2A C6A 1_555 1_555

#END
