
#######################################################################
#
#                 Cambridge Crystallographic Data Centre
#                                CCDC 
#
#######################################################################
#
# If this CIF has been generated from an entry in the Cambridge 
# Structural Database, then it will include bibliographic, chemical, 
# crystal, experimental, refinement or atomic coordinate data resulting 
# from the CCDC's data processing and validation procedures.
#
#######################################################################

data_YOJQAP
_symmetry_cell_setting           monoclinic
_symmetry_space_group_name_H-M   'P 21/c'
_symmetry_Int_Tables_number      14
_space_group_name_Hall           '-P 2ybc'
loop_
_symmetry_equiv_pos_site_id
_symmetry_equiv_pos_as_xyz
1 x,y,z
2 x,1/2-y,1/2+z
3 -x,-y,-z
4 -x,1/2+y,1/2-z
_cell_length_a                   25.0078(8)
_cell_length_b                   6.74160(10)
_cell_length_c                   14.3677(4)
_cell_angle_alpha                90
_cell_angle_beta                 92.4950(10)
_cell_angle_gamma                90
_cell_volume                     2419.99
loop_
_atom_site_label
_atom_site_type_symbol
_atom_site_fract_x
_atom_site_fract_y
_atom_site_fract_z
Sr1 Sr 0.278327(10) 0.14831(4) 0.407412(18)
N1 N 0.01874(9) 0.2683(4) 0.53178(17)
C1 C 0.05038(11) 0.2338(4) 0.4614(2)
N2 N 0.10277(9) 0.2441(4) 0.47859(17)
C2 C 0.12639(11) 0.3021(4) 0.5692(2)
C3 C 0.18571(11) 0.3467(4) 0.5615(2)
O1 O 0.20475(8) 0.3312(3) 0.48286(15)
O2 O 0.21081(8) 0.3955(3) 0.63527(15)
C4 C 0.06986(12) 0.1649(5) 0.2968(2)
N3 N 0.03225(9) 0.1908(4) 0.37172(17)
C5 C -0.02214(11) 0.1642(4) 0.3499(2)
O3 O -0.03737(8) 0.1097(3) 0.27222(15)
C6 C -0.05790(11) 0.2048(4) 0.4251(2)
N4 N -0.11010(10) 0.1790(4) 0.40233(18)
O4 O -0.14334(8) 0.2143(3) 0.46589(15)
C7 C -0.03460(11) 0.2595(4) 0.5153(2)
N5 N -0.06507(10) 0.3018(4) 0.58490(18)
N6 N 0.45799(10) -0.1293(3) 0.17412(17)
C8 C 0.42906(11) -0.1471(4) 0.0951(2)
N7 N 0.37728(9) -0.1013(4) 0.09359(17)
C9 C 0.35075(11) -0.0345(4) 0.17601(19)
C10 C 0.32671(11) -0.2006(4) 0.2331(2)
O5 O 0.31165(8) -0.1533(3) 0.31213(14)
O6 O 0.32238(9) -0.3706(3) 0.19718(15)
C11 C 0.41327(11) -0.2412(5) -0.0713(2)
N8 N 0.44894(9) -0.2118(4) 0.01147(16)
C12 C 0.50256(11) -0.2608(4) 0.0059(2)
O7 O 0.51986(8) -0.3288(3) -0.06648(14)
C13 C 0.53598(11) -0.2266(4) 0.0896(2)
N9 N 0.58752(9) -0.2685(4) 0.07911(17)
O8 O 0.62163(8) -0.2452(3) 0.14750(14)
C14 C 0.51094(11) -0.1593(4) 0.1726(2)
N10 N 0.54082(10) -0.1304(4) 0.24855(17)
O9 O 0.25470(8) 0.3568(3) 0.26200(14)
O10 O 0.34375(8) 0.1136(3) 0.55056(15)
O11 O 0.29895(8) 0.5366(3) 0.44185(14)
O12 O 0.24605(8) -0.1119(3) 0.52799(15)
O13 O 0.19435(8) -0.0023(3) 0.32021(15)
H1 H 0.1242 0.2149 0.4336
H2 H 0.1218 0.1936 0.6146
H3 H 0.1079 0.4212 0.5921
H4 H 0.0914 0.0454 0.3088
H5 H 0.0935 0.2807 0.2948
H6 H 0.0498 0.1513 0.2371
H7 H -0.0504 0.3343 0.6396
H8 H -0.1001 0.2977 0.5768
H9 H 0.3584 -0.1119 0.0407
H10 H 0.3219 0.0590 0.1565
H11 H 0.3769 0.0393 0.2164
H12 H 0.3842 -0.3314 -0.0561
H13 H 0.4336 -0.2987 -0.1215
H14 H 0.3982 -0.1133 -0.0916
H15 H 0.5261 -0.0916 0.3000
H16 H 0.5756 -0.1498 0.2481
H17 H 0.2817 0.4222 0.2405
H18 H 0.2337 0.2858 0.2165
H19 H 0.3793 0.1390 0.5398
H20 H 0.3489 0.0223 0.5938
H21 H 0.3052 0.6360 0.4020
H22 H 0.2696 0.5802 0.4805
H23 H 0.2111 -0.1501 0.5350
H24 H 0.2670 -0.1227 0.5810
H25 H 0.1875 -0.1460 0.3263
H26 H 0.1976 0.0242 0.2603
O8C O 0.37837(8) 0.2548(3) 0.35250(14)
Sr1C Sr 0.721673(10) -0.35169(4) 0.092588(18)
O14 O 0.15973(9) -0.3963(3) 0.29473(16)
H27 H 0.1412 -0.3777 0.2341
H28 H 0.1916 -0.4864 0.2983
loop_
_geom_bond_atom_site_label_1
_geom_bond_atom_site_label_2
_geom_bond_site_symmetry_1
_geom_bond_site_symmetry_2
Sr1 O1 1_555 1_555
N1 C1 1_555 1_555
C1 N2 1_555 1_555
N2 C2 1_555 1_555
C2 C3 1_555 1_555
C3 O1 1_555 1_555
O2 C3 1_555 1_555
C4 N3 1_555 1_555
N3 C1 1_555 1_555
C5 N3 1_555 1_555
O3 C5 1_555 1_555
C6 C5 1_555 1_555
N4 C6 1_555 1_555
O4 N4 1_555 1_555
C7 N1 1_555 1_555
N5 C7 1_555 1_555
N6 C8 1_555 1_555
C8 N7 1_555 1_555
N7 C9 1_555 1_555
C9 C10 1_555 1_555
C10 O5 1_555 1_555
O5 Sr1 1_555 1_555
O6 C10 1_555 1_555
C11 N8 1_555 1_555
N8 C8 1_555 1_555
C12 N8 1_555 1_555
O7 C12 1_555 1_555
C13 C12 1_555 1_555
N9 C13 1_555 1_555
O8 N9 1_555 1_555
C14 N6 1_555 1_555
N10 C14 1_555 1_555
O9 Sr1 1_555 1_555
O10 Sr1 1_555 1_555
O11 Sr1 1_555 1_555
O12 Sr1 1_555 1_555
O13 Sr1 1_555 1_555
O14 H27 1_555 1_555
H1 N2 1_555 1_555
H2 C2 1_555 1_555
H3 C2 1_555 1_555
H4 C4 1_555 1_555
H5 C4 1_555 1_555
H6 C4 1_555 1_555
H7 N5 1_555 1_555
H8 N5 1_555 1_555
H9 N7 1_555 1_555
H10 C9 1_555 1_555
H11 C9 1_555 1_555
H12 C11 1_555 1_555
H13 C11 1_555 1_555
H14 C11 1_555 1_555
H15 N10 1_555 1_555
H16 N10 1_555 1_555
H17 O9 1_555 1_555
H18 O9 1_555 1_555
H19 O10 1_555 1_555
H20 O10 1_555 1_555
H21 O11 1_555 1_555
H22 O11 1_555 1_555
H23 O12 1_555 1_555
H24 O12 1_555 1_555
H25 O13 1_555 1_555
H26 O13 1_555 1_555
H28 O14 1_555 1_555
O8C Sr1 1_555 1_555
Sr1C O8 1_555 1_555
C6 C7 1_555 1_555
C13 C14 1_555 1_555

#END
