
#######################################################################
#
#                 Cambridge Crystallographic Data Centre
#                                CCDC 
#
#######################################################################
#
# If this CIF has been generated from an entry in the Cambridge 
# Structural Database, then it will include bibliographic, chemical, 
# crystal, experimental, refinement or atomic coordinate data resulting 
# from the CCDC's data processing and validation procedures.
#
#######################################################################

data_YOJSUM
_symmetry_cell_setting           orthorhombic
_symmetry_space_group_name_H-M   'P c a n'
_symmetry_Int_Tables_number      60
_space_group_name_Hall           '-P 2n 2c'
loop_
_symmetry_equiv_pos_site_id
_symmetry_equiv_pos_as_xyz
1 x,y,z
2 1/2-x,1/2-y,1/2+z
3 1/2-x,1/2+y,-z
4 x,-y,1/2-z
5 -x,-y,-z
6 1/2+x,1/2+y,1/2-z
7 1/2+x,1/2-y,z
8 -x,y,1/2+z
_cell_length_a                   7.7731(4)
_cell_length_b                   14.3441(15)
_cell_length_c                   36.246(8)
_cell_angle_alpha                90
_cell_angle_beta                 90
_cell_angle_gamma                90
_cell_volume                     4041.36
loop_
_atom_site_label
_atom_site_type_symbol
_atom_site_fract_x
_atom_site_fract_y
_atom_site_fract_z
Zn1 Zn 0.21751(17) 0.74847(8) 0.62252(4)
Zn2 Zn 0.09242(17) 0.79782(9) 0.52899(4)
Zn3 Zn 0.3805(2) 0.79783(10) 0.71650(5)
P1 P -0.04344(18) 0.63568(9) 0.57882(4)
P2 P -0.01393(18) 0.86632(10) 0.66467(5)
O1 O 0.0334(5) 0.6556(3) 0.61667(11)
O2 O 0.0695(4) 0.6704(2) 0.54780(12)
O3 O -0.2269(4) 0.6787(2) 0.57750(11)
O4 O 0.2608(5) 0.3633(3) 0.50614(12)
O5 O 0.1024(6) 0.2345(3) 0.51085(12)
O6 O 0.1748(4) 0.8331(3) 0.66482(12)
O7 O -0.1169(5) 0.8265(3) 0.69666(12)
O8 O -0.0947(5) 0.8420(3) 0.62724(11)
O9 O 0.0688(6) 1.2619(3) 0.74308(13)
O10 O 0.2384(6) 1.1381(3) 0.74873(13)
O11 O -0.0681(5) 0.8937(3) 0.55111(14)
O12 O 0.5215(6) 0.8966(4) 0.69244(14)
C1 C -0.0624(6) 0.5116(4) 0.57433(16)
C2 C 0.0358(6) 0.4637(4) 0.54922(16)
C3 C 0.0271(7) 0.3668(4) 0.54737(16)
C4 C -0.0800(8) 0.3185(4) 0.57102(19)
C5 C -0.1785(8) 0.3649(4) 0.5966(2)
C6 C -0.1689(8) 0.4628(4) 0.59801(18)
C7 C 0.1334(7) 0.3161(4) 0.51973(18)
C8 C -0.0306(7) 0.9900(4) 0.66912(16)
C9 C 0.0569(7) 1.0376(4) 0.69725(16)
C10 C 0.0260(8) 1.1342(4) 0.70206(17)
C11 C -0.0856(8) 1.1818(4) 0.67946(19)
C12 C -0.1676(9) 1.1353(4) 0.6513(2)
C13 C -0.1403(8) 1.0402(4) 0.64635(17)
C14 C 0.1158(8) 1.1827(4) 0.73397(18)
H1 H 0.113450 0.499310 0.532330
H2 H -0.086410 0.248980 0.569570
H3 H -0.254460 0.328780 0.613700
H4 H -0.239420 0.498590 0.616230
H5 H 0.139460 1.003430 0.713520
H6 H -0.107010 1.249790 0.683500
H7 H -0.246440 1.17031 0.634460
H8 H -0.201290 1.007040 0.625900
Zn1F Zn -0.28249(17) 0.75153(8) 0.62252(4)
Zn2F Zn -0.40758(17) 0.70218(9) 0.52899(4)
Zn2B Zn 0.40758(17) 0.29782(9) 0.47101(4)
Zn2D Zn -0.09242(17) 0.20218(9) 0.47101(4)
Zn3F Zn -0.1195(2) 0.70217(10) 0.71650(5)
Zn3E Zn -0.1195(2) 1.29783(10) 0.78350(5)
Zn3C Zn 0.3805(2) 1.20217(10) 0.78350(5)
O3F O 0.2731(4) 0.8213(2) 0.57750(11)
O4B O 0.2392(5) 0.8633(3) 0.49386(12)
O5D O -0.1024(6) 0.7655(3) 0.48915(12)
O7F O 0.3831(5) 0.6735(3) 0.69666(12)
O8F O 0.4053(5) 0.6580(3) 0.62724(11)
O9E O 0.5688(6) 0.7619(3) 0.75692(13)
O10C O 0.2384(6) 0.8619(3) 0.75127(13)
loop_
_geom_bond_atom_site_label_1
_geom_bond_atom_site_label_2
_geom_bond_site_symmetry_1
_geom_bond_site_symmetry_2
Zn1 O1 1_555 1_555
Zn2 O2 1_555 1_555
Zn3 O6 1_555 1_555
P1 O1 1_555 1_555
P2 O6 1_555 1_555
O2 P1 1_555 1_555
O3 P1 1_555 1_555
O4 C7 1_555 1_555
O5 C7 1_555 1_555
O6 Zn1 1_555 1_555
O7 P2 1_555 1_555
O8 P2 1_555 1_555
O9 C14 1_555 1_555
O10 C14 1_555 1_555
O11 Zn2 1_555 1_555
O12 Zn3 1_555 1_555
C1 P1 1_555 1_555
C2 C1 1_555 1_555
C3 C2 1_555 1_555
C4 C3 1_555 1_555
C5 C4 1_555 1_555
C6 C1 1_555 1_555
C7 C3 1_555 1_555
C8 P2 1_555 1_555
C9 C8 1_555 1_555
C10 C9 1_555 1_555
C11 C10 1_555 1_555
C12 C11 1_555 1_555
C13 C8 1_555 1_555
C14 C10 1_555 1_555
H1 C2 1_555 1_555
H2 C4 1_555 1_555
H3 C5 1_555 1_555
H4 C6 1_555 1_555
H5 C9 1_555 1_555
H6 C11 1_555 1_555
H7 C12 1_555 1_555
H8 C13 1_555 1_555
Zn1F O3 1_555 1_555
Zn2F O3 1_555 1_555
Zn2B O4 1_555 1_555
Zn2D O5 1_555 1_555
Zn3F O7 1_555 1_555
Zn3E O9 1_555 1_555
Zn3C O10 1_555 1_555
O3F Zn1 1_555 1_555
O4B Zn2 1_555 1_555
O5D Zn2 1_555 1_555
O7F Zn3 1_555 1_555
O8F Zn1 1_555 1_555
O9E Zn3 1_555 1_555
O10C Zn3 1_555 1_555
Zn2 O3F 1_555 1_555
O8 Zn1F 1_555 1_555
C5 C6 1_555 1_555
C12 C13 1_555 1_555

#END
