
#######################################################################
#
#                 Cambridge Crystallographic Data Centre
#                                CCDC 
#
#######################################################################
#
# If this CIF has been generated from an entry in the Cambridge 
# Structural Database, then it will include bibliographic, chemical, 
# crystal, experimental, refinement or atomic coordinate data resulting 
# from the CCDC's data processing and validation procedures.
#
#######################################################################

data_YOJSIA
_symmetry_cell_setting           monoclinic
_symmetry_space_group_name_H-M   'P 21/n'
_symmetry_Int_Tables_number      14
_space_group_name_Hall           '-P 2yn'
loop_
_symmetry_equiv_pos_site_id
_symmetry_equiv_pos_as_xyz
1 x,y,z
2 1/2-x,1/2+y,1/2-z
3 -x,-y,-z
4 1/2+x,1/2-y,1/2+z
_cell_length_a                   4.9119(3)
_cell_length_b                   32.316(5)
_cell_length_c                   5.7481(8)
_cell_angle_alpha                90
_cell_angle_beta                 93.859(9)
_cell_angle_gamma                90
_cell_volume                     910.344
loop_
_atom_site_label
_atom_site_type_symbol
_atom_site_fract_x
_atom_site_fract_y
_atom_site_fract_z
Co1 Co 0.06470(4) 0.243736(7) 0.46313(3)
P1 P 0.62354(7) 0.301840(12) 0.47021(6)
O1 O 0.3148(2) 0.29557(4) 0.46063(18)
O2 O 0.7722(2) 0.28382(4) 0.69650(18)
O3 O 0.7612(2) 0.27999(4) 0.26381(17)
O4 O 0.4008(4) 0.44883(6) 0.9007(3)
O5 O 0.7112(4) 0.49361(5) 0.7847(3)
O6 O -0.2225(2) 0.19408(4) 0.4661(2)
C1 C 0.6961(3) 0.35670(5) 0.4507(3)
C2 C 0.6066(4) 0.38539(5) 0.6146(3)
C3 C 0.6809(4) 0.42749(6) 0.5992(3)
C4 C 0.8435(5) 0.44092(6) 0.4209(4)
C5 C 0.9237(5) 0.41293(6) 0.2550(4)
C6 C 0.8489(4) 0.37124(6) 0.2688(3)
C7 C 0.5930(5) 0.45874(6) 0.7706(4)
H1 H 0.499(5) 0.3758(7) 0.737(4)
H2 H 0.908(5) 0.4712(9) 0.412(5)
H3 H 1.024(6) 0.4231(10) 0.128(5)
H4 H 0.910(4) 0.3516(8) 0.150(4)
H5 H 0.375(10) 0.4712(17) 0.998(9)
H6 H -0.277(6) 0.1949(10) 0.587(6)
H7 H -0.375(6) 0.1963(9) 0.380(5)
Co1_2 Co 1.06470(4) 0.243736(7) 0.46313(3)
Co1C Co 0.56470(4) 0.256264(7) 0.96313(3)
Co1C_2 Co 0.56470(4) 0.256264(7) -0.03687(3)
O2_2 O -0.2278(2) 0.28382(4) 0.69650(18)
O2C O 0.2722(2) 0.21618(4) 0.19650(18)
O3_2 O -0.2388(2) 0.27999(4) 0.26381(17)
O3C O 0.2612(2) 0.22001(4) 0.76381(17)
loop_
_geom_bond_atom_site_label_1
_geom_bond_atom_site_label_2
_geom_bond_site_symmetry_1
_geom_bond_site_symmetry_2
Co1 O1 1_555 1_555
P1 O1 1_555 1_555
O2 P1 1_555 1_555
O3 P1 1_555 1_555
O4 C7 1_555 1_555
O5 C7 1_555 1_555
O6 Co1 1_555 1_555
C1 P1 1_555 1_555
C2 C1 1_555 1_555
C3 C2 1_555 1_555
C4 C3 1_555 1_555
C5 C4 1_555 1_555
C6 C1 1_555 1_555
C7 C3 1_555 1_555
H1 C2 1_555 1_555
H2 C4 1_555 1_555
H3 C5 1_555 1_555
H4 C6 1_555 1_555
H5 O4 1_555 1_555
H6 O6 1_555 1_555
H7 O6 1_555 1_555
Co1_2 O2 1_555 1_555
Co1C O2 1_555 1_555
Co1C_2 O3 1_555 1_555
O2_2 Co1 1_555 1_555
O2C Co1 1_555 1_555
O3_2 Co1 1_555 1_555
O3C Co1 1_555 1_555
O3 Co1_2 1_555 1_555
C5 C6 1_555 1_555
Co1C O3C 1_555 1_555
Co1C_2 O2C 1_555 1_555

#END
