
#######################################################################
#
#                 Cambridge Crystallographic Data Centre
#                                CCDC 
#
#######################################################################
#
# If this CIF has been generated from an entry in the Cambridge 
# Structural Database, then it will include bibliographic, chemical, 
# crystal, experimental, refinement or atomic coordinate data resulting 
# from the CCDC's data processing and validation procedures.
#
#######################################################################

data_YOJTEX
_symmetry_cell_setting           monoclinic
_symmetry_space_group_name_H-M   'P 21/n'
_symmetry_Int_Tables_number      14
_space_group_name_Hall           '-P 2yn'
loop_
_symmetry_equiv_pos_site_id
_symmetry_equiv_pos_as_xyz
1 x,y,z
2 1/2-x,1/2+y,1/2-z
3 -x,-y,-z
4 1/2+x,1/2-y,1/2+z
_cell_length_a                   4.87269(2)
_cell_length_b                   32.02159(18)
_cell_length_c                   5.69479(2)
_cell_angle_alpha                90
_cell_angle_beta                 95.6714(4)
_cell_angle_gamma                90
_cell_volume                     884.216
loop_
_atom_site_label
_atom_site_type_symbol
_atom_site_fract_x
_atom_site_fract_y
_atom_site_fract_z
Zn1 Zn 0.1137(3) 0.24162(5) 0.4933(3)
P1 P 0.6602(8) 0.30070(10) 0.5030(7)
O1 O 0.3454(15) 0.29471(17) 0.4903(12)
O2 O 0.8182(14) 0.2889(2) 0.7422(13)
O3 O 0.7953(14) 0.2763(2) 0.3063(13)
O4 O 0.4087(12) 0.44994(16) 0.9159(11)
O5 O 0.7090(13) 0.49431(19) 0.7833(10)
O6 O -0.1844(13) 0.19300(18) 0.5079(12)
C1 C 0.70470(9) 0.356450(2) 0.45584(5)
C2 C 0.61384(9) 0.385170(3) 0.61899(6)
C3 C 0.68449(9) 0.427380(3) 0.60139(5)
C4 C 0.84460(9) 0.440900(3) 0.42155(6)
C5 C 0.92461(10) 0.412910(3) 0.25555(6)
C6 C 0.85405(9) 0.371080(3) 0.27191(5)
C7 C 0.5978(3) 0.458590(9) 0.77358(17)
Zn1_2 Zn 1.1137(3) 0.24162(5) 0.4933(3)
Zn1C Zn 0.6137(3) 0.25838(5) 0.9933(3)
Zn1C_2 Zn 0.6137(3) 0.25838(5) -0.0067(3)
O2_2 O -0.1818(14) 0.2889(2) 0.7422(13)
O2C O 0.3182(14) 0.2111(2) 0.2422(13)
O3_2 O -0.2047(14) 0.2763(2) 0.3063(13)
O3C O 0.2953(14) 0.2237(2) 0.8063(13)
loop_
_geom_bond_atom_site_label_1
_geom_bond_atom_site_label_2
_geom_bond_site_symmetry_1
_geom_bond_site_symmetry_2
Zn1 O1 1_555 1_555
P1 O1 1_555 1_555
O2 P1 1_555 1_555
O3 P1 1_555 1_555
O4 C7 1_555 1_555
O5 C7 1_555 1_555
O6 Zn1 1_555 1_555
C1 P1 1_555 1_555
C2 C1 1_555 1_555
C3 C2 1_555 1_555
C4 C3 1_555 1_555
C5 C4 1_555 1_555
C6 C1 1_555 1_555
C7 C3 1_555 1_555
Zn1_2 O2 1_555 1_555
Zn1C O2 1_555 1_555
Zn1C_2 O3 1_555 1_555
O2_2 Zn1 1_555 1_555
O2C Zn1 1_555 1_555
O3_2 Zn1 1_555 1_555
O3C Zn1 1_555 1_555
O3 Zn1_2 1_555 1_555
C5 C6 1_555 1_555
Zn1C O3C 1_555 1_555
Zn1C_2 O2C 1_555 1_555

#END
