
#######################################################################
#
#                 Cambridge Crystallographic Data Centre
#                                CCDC 
#
#######################################################################
#
# If this CIF has been generated from an entry in the Cambridge 
# Structural Database, then it will include bibliographic, chemical, 
# crystal, experimental, refinement or atomic coordinate data resulting 
# from the CCDC's data processing and validation procedures.
#
#######################################################################

data_YOJTOI
_symmetry_cell_setting           monoclinic
_symmetry_space_group_name_H-M   'P 21'
_symmetry_Int_Tables_number      4
_space_group_name_Hall           'P 2yb'
loop_
_symmetry_equiv_pos_site_id
_symmetry_equiv_pos_as_xyz
1 x,y,z
2 -x,1/2+y,-z
_cell_length_a                   9.759(2)
_cell_length_b                   5.7608(12)
_cell_length_c                   15.322(3)
_cell_angle_alpha                90
_cell_angle_beta                 105.81(3)
_cell_angle_gamma                90
_cell_volume                     828.811
loop_
_atom_site_label
_atom_site_type_symbol
_atom_site_fract_x
_atom_site_fract_y
_atom_site_fract_z
Cu1 Cu 0.31236(6) -0.42922(11) -0.02009(4)
O1 O 0.4585(4) -0.6648(6) 0.0097(2)
O2 O 0.6133(4) -0.8339(5) 0.1239(2)
O3 O 0.3060(3) -0.4935(6) 0.1068(3)
H1 H 0.2233 -0.5484 0.0862
C1 C 0.5038(5) -0.7158(8) 0.0933(4)
C2 C 0.4171(5) -0.6421(9) 0.1587(3)
H2 H 0.3757 -0.7787 0.1800
C3 C 0.5073(5) -0.5078(8) 0.2385(4)
C4 C 0.5032(6) -0.5443(10) 0.3281(4)
C5 C 0.5805(7) -0.4106(15) 0.3993(4)
H3 H 0.5782 -0.4425 0.4584
C6 C 0.6610(7) -0.2296(13) 0.3819(5)
H4 H 0.7105 -0.1348 0.4291
Cl1 Cl 0.3965(2) -0.7624(4) 0.35115(12)
O4 O 0.1817(4) -0.1767(6) -0.0322(2)
O5 O -0.0339(4) -0.0315(6) -0.0919(3)
O6 O 0.1106(4) -0.5979(6) -0.1011(2)
H5 H 0.0820 -0.7353 -0.0937
C7 C 0.6688(7) -0.1874(10) 0.2943(4)
H6 H 0.7255 -0.0670 0.2835
C8 C 0.5932(6) -0.3225(10) 0.2228(4)
H7 H 0.5986 -0.2918 0.1642
C9 C 0.0547(5) -0.1951(9) -0.0816(4)
C10 C 0.0079(4) -0.4182(11) -0.1352(3)
H8 H -0.0849 -0.4664 -0.1285
C11 C -0.0033(5) -0.3812(9) -0.2356(4)
C12 C -0.0861(6) -0.5267(10) -0.3021(4)
C13 C -0.0905(7) -0.5029(10) -0.3917(4)
H9 H -0.1451 -0.6045 -0.4344
C14 C -0.0146(8) -0.3296(12) -0.4187(4)
H10 H -0.0197 -0.3110 -0.4798
C15 C 0.0691(7) -0.1836(12) -0.3551(4)
H11 H 0.1229 -0.0691 -0.3730
C16 C 0.0735(6) -0.2063(11) -0.2645(4)
H12 H 0.1283 -0.1039 -0.2223
Cl2 Cl -0.1871(2) -0.7449(3) -0.27262(12)
Cu1A Cu 0.68764(6) -0.92922(11) 0.02009(4)
O1A O 0.5415(4) -0.1648(6) -0.0097(2)
O2A O 0.3867(4) -0.3339(5) -0.1239(2)
loop_
_geom_bond_atom_site_label_1
_geom_bond_atom_site_label_2
_geom_bond_site_symmetry_1
_geom_bond_site_symmetry_2
Cu1 O1 1_555 1_555
O1 C1 1_555 1_555
O2 C1 1_555 1_555
O3 Cu1 1_555 1_555
H1 O3 1_555 1_555
C1 C2 1_555 1_555
C2 O3 1_555 1_555
H2 C2 1_555 1_555
C3 C2 1_555 1_555
C4 C3 1_555 1_555
C5 C4 1_555 1_555
H3 C5 1_555 1_555
C6 C5 1_555 1_555
H4 C6 1_555 1_555
Cl1 C4 1_555 1_555
O4 Cu1 1_555 1_555
O5 C9 1_555 1_555
O6 Cu1 1_555 1_555
H5 O6 1_555 1_555
C7 C6 1_555 1_555
H6 C7 1_555 1_555
C8 C3 1_555 1_555
H7 C8 1_555 1_555
C9 O4 1_555 1_555
C10 O6 1_555 1_555
H8 C10 1_555 1_555
C11 C10 1_555 1_555
C12 C11 1_555 1_555
C13 C12 1_555 1_555
H9 C13 1_555 1_555
C14 C13 1_555 1_555
H10 C14 1_555 1_555
C15 C14 1_555 1_555
H11 C15 1_555 1_555
C16 C11 1_555 1_555
H12 C16 1_555 1_555
Cl2 C12 1_555 1_555
Cu1A O1 1_555 1_555
O1A Cu1 1_555 1_555
O2A Cu1 1_555 1_555
O2 Cu1A 1_555 1_555
C7 C8 1_555 1_555
C9 C10 1_555 1_555
C15 C16 1_555 1_555

#END
