
#######################################################################
#
#                 Cambridge Crystallographic Data Centre
#                                CCDC 
#
#######################################################################
#
# If this CIF has been generated from an entry in the Cambridge 
# Structural Database, then it will include bibliographic, chemical, 
# crystal, experimental, refinement or atomic coordinate data resulting 
# from the CCDC's data processing and validation procedures.
#
#######################################################################

data_YOKDOR
_symmetry_cell_setting           monoclinic
_symmetry_space_group_name_H-M   'P 21/c'
_symmetry_Int_Tables_number      14
_space_group_name_Hall           '-P 2ybc'
loop_
_symmetry_equiv_pos_site_id
_symmetry_equiv_pos_as_xyz
1 x,y,z
2 -x,1/2+y,1/2-z
3 -x,-y,-z
4 x,1/2-y,1/2+z
_cell_length_a                   10.031(4)
_cell_length_b                   6.134(3)
_cell_length_c                   13.385(5)
_cell_angle_alpha                90
_cell_angle_beta                 126.83(11)
_cell_angle_gamma                90
_cell_volume                     659.209
loop_
_atom_site_label
_atom_site_type_symbol
_atom_site_fract_x
_atom_site_fract_y
_atom_site_fract_z
Cu1 Cu -0.30171(5) 0.0077(1) -0.20128(6)
O1 O -0.4535(3) -0.0972(6) -0.3711(3)
O2 O -1.0892(3) -0.3826(6) -0.6480(3)
O3 O -0.5232(3) -0.3082(5) -0.2756(3)
N1 N -0.8203(3) -0.3836(6) -0.4642(4)
C1 C -0.9777(4) -0.4325(6) -0.5344(5)
C2 C -0.7321(4) -0.2506(8) -0.4980(5)
C3 C -0.5572(4) -0.2205(7) -0.3736(4)
C4 C -0.8097(5) -0.0179(7) -0.5420(6)
C5 C -0.7018(5) -0.363(1) -0.5944(5)
H1 H -0.8328 -0.3484 -0.6681
H2 H -0.69(2) -0.49(3) -0.58(1)
H3 H -0.65(2) -0.30(3) -0.61(1)
H4 H -0.8100 0.0190 -0.4815
H5 H -0.9115 -0.0337 -0.6291
H6 H -0.7585 0.0991 -0.5538
C1B C -1.0223(4) -0.5675(6) -0.4656(5)
O2B O -0.9108(3) -0.6174(6) -0.3520(3)
N1B N -1.1797(3) -0.6164(6) -0.5358(4)
C2B C -1.2679(4) -0.7494(8) -0.5020(5)
C3B C -1.4428(4) -0.7795(7) -0.6264(4)
O1B O -1.5465(3) -0.9028(6) -0.6289(3)
O3B O -1.4768(3) -0.6918(5) -0.7244(3)
C4B C -1.1903(5) -0.9821(7) -0.4580(6)
H4B H -1.1900 -1.0190 -0.5185
H5B H -1.0885 -0.9663 -0.3709
H6B H -1.2415 -1.0991 -0.4462
C5B C -1.2982(5) -0.637(1) -0.4056(5)
H1B H -1.1672 -0.6516 -0.3319
H2B H -1.31(2) -0.51(3) -0.42(1)
H3B H -1.35(2) -0.70(3) -0.39(1)
Cu1B Cu -1.69829(5) -1.0077(1) -0.79872(6)
O2C O -0.0892(3) -0.1174(6) -0.1480(3)
O3A O -0.4768(3) 0.1918(5) -0.2244(3)
N1A N -0.1797(3) 0.1164(6) -0.0358(4)
Cu1C Cu -1.30171(5) -0.5077(1) -0.70128(6)
Cu1A Cu -0.69829(5) -0.4923(1) -0.29872(6)
O2A O -1.9108(3) -0.8826(6) -0.8520(3)
O3C O -1.5232(3) -1.1918(5) -0.7756(3)
N1C N -1.8203(3) -1.1164(6) -0.9642(4)
loop_
_geom_bond_atom_site_label_1
_geom_bond_atom_site_label_2
_geom_bond_site_symmetry_1
_geom_bond_site_symmetry_2
Cu1 O1 1_555 1_555
O1 C3 1_555 1_555
O2 C1 1_555 1_555
O3 C3 1_555 1_555
N1 C1 1_555 1_555
C1 C1B 1_555 1_555
C2 N1 1_555 1_555
C3 C2 1_555 1_555
C4 C2 1_555 1_555
C5 C2 1_555 1_555
H1 C5 1_555 1_555
H2 C5 1_555 1_555
H3 C5 1_555 1_555
H4 C4 1_555 1_555
H5 C4 1_555 1_555
H6 C4 1_555 1_555
C1B O2B 1_555 1_555
O2B Cu1A 1_555 1_555
N1B C1B 1_555 1_555
C2B N1B 1_555 1_555
C3B C2B 1_555 1_555
O1B C3B 1_555 1_555
O3B C3B 1_555 1_555
C4B C2B 1_555 1_555
H4B C4B 1_555 1_555
H5B C4B 1_555 1_555
H6B C4B 1_555 1_555
C5B C2B 1_555 1_555
H1B C5B 1_555 1_555
H2B C5B 1_555 1_555
H3B C5B 1_555 1_555
Cu1B O1B 1_555 1_555
O2C Cu1 1_555 1_555
O3A Cu1 1_555 1_555
N1A Cu1 1_555 1_555
Cu1C O2 1_555 1_555
Cu1A O3 1_555 1_555
O2A Cu1B 1_555 1_555
O3C Cu1B 1_555 1_555
N1C Cu1B 1_555 1_555
N1 Cu1A 1_555 1_555
N1B Cu1C 1_555 1_555
O3B Cu1C 1_555 1_555

#END
