
#######################################################################
#
#                 Cambridge Crystallographic Data Centre
#                                CCDC 
#
#######################################################################
#
# If this CIF has been generated from an entry in the Cambridge 
# Structural Database, then it will include bibliographic, chemical, 
# crystal, experimental, refinement or atomic coordinate data resulting 
# from the CCDC's data processing and validation procedures.
#
#######################################################################

data_YOKDUY
_symmetry_cell_setting           orthorhombic
_symmetry_space_group_name_H-M   'P b c a'
_symmetry_Int_Tables_number      61
_space_group_name_Hall           '-P 2ac 2ab'
loop_
_symmetry_equiv_pos_site_id
_symmetry_equiv_pos_as_xyz
1 x,y,z
2 1/2-x,-y,1/2+z
3 -x,1/2+y,1/2-z
4 1/2+x,1/2-y,-z
5 -x,-y,-z
6 1/2+x,y,1/2-z
7 x,1/2-y,1/2+z
8 1/2-x,1/2+y,z
_cell_length_a                   8.6678(2)
_cell_length_b                   16.9658(5)
_cell_length_c                   27.9597(7)
_cell_angle_alpha                90
_cell_angle_beta                 90
_cell_angle_gamma                90
_cell_volume                     4111.65
loop_
_atom_site_label
_atom_site_type_symbol
_atom_site_fract_x
_atom_site_fract_y
_atom_site_fract_z
Pt1 Pt -0.253444(17) 0.804676(10) 0.357589(6)
K1 K -0.61780(13) 0.57448(6) 0.46119(4)
N1 N -0.2448(4) 0.7551(2) 0.29003(14)
N2 N -0.4736(5) 0.6737(3) 0.40163(18)
N3 N -0.2607(5) 0.8928(3) 0.45497(17)
O1 O -0.8593(4) 0.5856(2) 0.40299(14)
O2 O -0.6201(4) 0.4172(2) 0.47187(12)
C1 C -0.3935(6) 0.7213(3) 0.38536(18)
C2 C -0.2563(5) 0.8601(3) 0.41906(19)
C3 C -0.1117(5) 0.8841(3) 0.32483(17)
C4 C -0.0405(6) 0.9509(3) 0.3439(2)
H1 H -0.0590 0.9647 0.3763
C5 C 0.0571(6) 0.9977(3) 0.31635(19)
H2 H 0.1049 1.0426 0.3303
C6 C 0.0851(5) 0.9796(3) 0.26873(19)
H3 H 0.1521 1.0115 0.2501
C7 C 0.0135(5) 0.9137(3) 0.24860(16)
H4 H 0.0314 0.9009 0.2160
C8 C -0.0834(5) 0.8669(3) 0.27593(17)
C9 C -0.1626(5) 0.7964(3) 0.25705(16)
C10 C -0.1591(5) 0.7720(3) 0.20944(17)
H5 H -0.1019 0.8014 0.1866
C11 C -0.2389(5) 0.7048(3) 0.1952(2)
H6 H -0.2385 0.6884 0.1628
C12 C -0.3197(6) 0.6622(3) 0.22986(19)
H7 H -0.3734 0.6154 0.2214
C13 C -0.3208(5) 0.6887(3) 0.27653(19)
H8 H -0.3764 0.6596 0.2999
C14 C -0.9987(6) 0.5776(3) 0.40564(18)
C15 C -1.0914(8) 0.5541(4) 0.3629(2)
H9 H -1.0230 0.5313 0.3386
H10 H -1.1432 0.6006 0.3497
H11 H -1.1688 0.5149 0.3723
C16 C -1.0840(7) 0.5891(4) 0.4513(2)
H12 H -1.0115 0.6046 0.4765
H13 H -1.1350 0.5397 0.4603
H14 H -1.1617 0.6305 0.4471
C17 C -0.6716(6) 0.3608(3) 0.4501(2)
C18 C -0.6217(10) 0.2785(4) 0.4625(3)
H15 H -0.5457 0.2804 0.4884
H16 H -0.5754 0.2535 0.4344
H17 H -0.7115 0.2478 0.4729
C19 C -0.7792(7) 0.3710(4) 0.4090(2)
H18 H -0.7927 0.4273 0.4023
H19 H -0.8793 0.3475 0.4169
H20 H -0.7364 0.3448 0.3807
K1C K -0.11780(13) 0.92552(6) 0.53881(4)
K1D K -0.38220(13) 0.42552(6) 0.53881(4)
N3C N -0.7607(5) 0.6072(3) 0.54503(17)
O2D O -0.3799(4) 0.5828(2) 0.52813(12)
loop_
_geom_bond_atom_site_label_1
_geom_bond_atom_site_label_2
_geom_bond_site_symmetry_1
_geom_bond_site_symmetry_2
Pt1 N1 1_555 1_555
K1 N2 1_555 1_555
N1 C9 1_555 1_555
N2 C1 1_555 1_555
N3 C2 1_555 1_555
O1 K1 1_555 1_555
O2 K1 1_555 1_555
C1 Pt1 1_555 1_555
C2 Pt1 1_555 1_555
C3 Pt1 1_555 1_555
C4 C3 1_555 1_555
H1 C4 1_555 1_555
C5 C4 1_555 1_555
H2 C5 1_555 1_555
C6 C5 1_555 1_555
H3 C6 1_555 1_555
C7 C6 1_555 1_555
H4 C7 1_555 1_555
C8 C3 1_555 1_555
C9 C8 1_555 1_555
C10 C9 1_555 1_555
H5 C10 1_555 1_555
C11 C10 1_555 1_555
H6 C11 1_555 1_555
C12 C11 1_555 1_555
H7 C12 1_555 1_555
C13 N1 1_555 1_555
H8 C13 1_555 1_555
C14 O1 1_555 1_555
C15 C14 1_555 1_555
H9 C15 1_555 1_555
H10 C15 1_555 1_555
H11 C15 1_555 1_555
C16 C14 1_555 1_555
H12 C16 1_555 1_555
H13 C16 1_555 1_555
H14 C16 1_555 1_555
C17 O2 1_555 1_555
C18 C17 1_555 1_555
H15 C18 1_555 1_555
H16 C18 1_555 1_555
H17 C18 1_555 1_555
C19 C17 1_555 1_555
H18 C19 1_555 1_555
H19 C19 1_555 1_555
H20 C19 1_555 1_555
K1C N3 1_555 1_555
K1D O2 1_555 1_555
N3C K1 1_555 1_555
O2D K1 1_555 1_555
C7 C8 1_555 1_555
C12 C13 1_555 1_555
K1D O2D 1_555 1_555

#END
