
#######################################################################
#
#                 Cambridge Crystallographic Data Centre
#                                CCDC 
#
#######################################################################
#
# If this CIF has been generated from an entry in the Cambridge 
# Structural Database, then it will include bibliographic, chemical, 
# crystal, experimental, refinement or atomic coordinate data resulting 
# from the CCDC's data processing and validation procedures.
#
#######################################################################

data_YOKKIU
_symmetry_cell_setting           monoclinic
_symmetry_space_group_name_H-M   'C 2/c'
_symmetry_Int_Tables_number      15
_space_group_name_Hall           '-C 2yn'
loop_
_symmetry_equiv_pos_site_id
_symmetry_equiv_pos_as_xyz
1 x,y,z
2 -x,y,1/2-z
3 1/2+x,1/2+y,z
4 1/2-x,1/2+y,1/2-z
5 -x,-y,-z
6 x,-y,1/2+z
7 1/2-x,1/2-y,-z
8 1/2+x,1/2-y,1/2+z
_cell_length_a                   12.329(3)
_cell_length_b                   21.690(4)
_cell_length_c                   17.435(4)
_cell_angle_alpha                90
_cell_angle_beta                 96.32(3)
_cell_angle_gamma                90
_cell_volume                     4634.06
loop_
_atom_site_label
_atom_site_type_symbol
_atom_site_fract_x
_atom_site_fract_y
_atom_site_fract_z
Co1 Co 0.7500 0.2500 0.0000
Co2 Co 0.76365(8) 0.38426(4) -0.10682(4)
Co3 Co 0.5000 0.40229(6) -0.2500
C1 C 0.7868(5) 0.4036(3) 0.1237(3)
C2 C 0.8462(5) 0.3636(3) 0.1749(4)
H1 H 0.8779 0.3285 0.1565
C3 C 0.8579(6) 0.3762(3) 0.2530(4)
H2 H 0.8971 0.3494 0.2872
C4 C 0.8116(6) 0.4283(3) 0.2805(4)
H3 H 0.8219 0.4372 0.3330
C5 C 0.7493(6) 0.4680(3) 0.2303(3)
C6 C 0.7366(5) 0.4548(3) 0.1516(3)
H4 H 0.6943 0.4804 0.1177
C7 C 0.7760(5) 0.3911(3) 0.0385(3)
C8 C 0.6957(7) 0.5242(3) 0.2598(4)
C9 C 0.5000 0.2308(4) 0.2500
H5 H 0.5000 0.1880 0.2500
C10 C 0.5615(5) 0.2627(3) 0.2010(3)
C11 C 0.5604(6) 0.3266(3) 0.2010(4)
H6 H 0.6006 0.3483 0.1678
C12 C 0.5000 0.3578(5) 0.2500
H7 H 0.5000 0.4007 0.2500
C13 C 0.6312(4) 0.2291(3) 0.1488(3)
C14 C 0.4500(5) 0.3014(3) -0.1362(4)
C15 C 0.3395(6) 0.2964(4) -0.1620(5)
H8 H 0.3050 0.3216 -0.2005
C16 C 0.2836(7) 0.2497(4) -0.1250(5)
H9 H 0.2097 0.2432 -0.1398
C17 C 0.3382(6) 0.2133(4) -0.0663(5)
H10 H 0.2996 0.1833 -0.0425
C18 C 0.4491(6) 0.2212(4) -0.0431(5)
H11 H 0.4850 0.1969 -0.0044
C19 C 0.5044(6) 0.2665(3) -0.0796(4)
C20 C 1.0026(16) 0.4501(10) -0.1383(12)
H12 H 0.9684 0.4437 -0.1905
H13 H 1.0262 0.4927 -0.1327
C21 C 1.0945(19) 0.4077(10) -0.1198(13)
H14 H 1.1311 0.4176 -0.0699
H15 H 1.1446 0.4115 -0.1579
H16 H 1.0677 0.3661 -0.1196
N1 N 0.5280(5) 0.3446(3) -0.1594(3)
N2 N 0.6192(5) 0.3323(3) -0.1173(3)
N3 N 0.6129(4) 0.2864(2) -0.0690(3)
O1 O 0.7353(5) 0.4317(2) -0.0075(3)
O2 O 0.8100(3) 0.34178(18) 0.0128(2)
O3 O 0.6159(6) 0.5459(3) 0.2191(3)
O4 O 0.7357(6) 0.5439(3) 0.3239(3)
O5 O 0.6646(4) 0.25990(19) 0.0948(2)
O6 O 0.6489(4) 0.17288(19) 0.1623(2)
O7 O 0.9264(7) 0.4337(4) -0.0799(5)
C10A C 0.4385(5) 0.2627(3) 0.2990(3)
C11A C 0.4396(6) 0.3266(3) 0.2990(4)
H6A H 0.3994 0.3483 0.3322
C13A C 0.3688(4) 0.2291(3) 0.3512(3)
O5A O 0.3354(4) 0.25990(19) 0.4052(2)
O6A O 0.3511(4) 0.17288(19) 0.3377(2)
Co2A Co 0.23635(8) 0.38426(4) -0.39318(4)
C1A C 0.2132(5) 0.4036(3) -0.6237(3)
C2A C 0.1538(5) 0.3636(3) -0.6749(4)
H1A H 0.1221 0.3285 -0.6565
C3A C 0.1421(6) 0.3762(3) -0.7530(4)
H2A H 0.1029 0.3494 -0.7872
C4A C 0.1884(6) 0.4283(3) -0.7805(4)
H3A H 0.1781 0.4372 -0.8330
C5A C 0.2507(6) 0.4680(3) -0.7303(3)
C6A C 0.2634(5) 0.4548(3) -0.6516(3)
H4A H 0.3057 0.4804 -0.6177
C7A C 0.2240(5) 0.3911(3) -0.5385(3)
C8A C 0.3043(7) 0.5242(3) -0.7598(4)
C14A C 0.5500(5) 0.3014(3) -0.3638(4)
C15A C 0.6605(6) 0.2964(4) -0.3380(5)
H8A H 0.6950 0.3216 -0.2995
C16A C 0.7164(7) 0.2497(4) -0.3750(5)
H9A H 0.7903 0.2432 -0.3602
C17A C 0.6618(6) 0.2133(4) -0.4337(5)
H10A H 0.7004 0.1833 -0.4575
C18A C 0.5509(6) 0.2212(4) -0.4569(5)
H11A H 0.5150 0.1969 -0.4956
C19A C 0.4956(6) 0.2665(3) -0.4204(4)
C20A C -0.0026(16) 0.4501(10) -0.3617(12)
H12A H 0.0316 0.4437 -0.3095
H13A H -0.0262 0.4927 -0.3673
C21A C -0.0945(19) 0.4077(10) -0.3802(13)
H14A H -0.1311 0.4176 -0.4301
H15A H -0.1446 0.4115 -0.3421
H16A H -0.0677 0.3661 -0.3804
N1A N 0.4720(5) 0.3446(3) -0.3406(3)
N2A N 0.3808(5) 0.3323(3) -0.3827(3)
N3A N 0.3871(4) 0.2864(2) -0.4310(3)
O1A O 0.2647(5) 0.4317(2) -0.4925(3)
O2A O 0.1900(3) 0.34178(18) -0.5128(2)
O3A O 0.3841(6) 0.5459(3) -0.7191(3)
O4A O 0.2643(6) 0.5439(3) -0.8239(3)
O7A O 0.0736(7) 0.4337(4) -0.4201(5)
Co1A Co 0.2500 0.2500 -0.5000
Co1A_2 Co 0.2500 0.2500 0.5000
Co2D Co 0.23635(8) 0.61574(4) -0.89318(4)
Co2E Co 0.76365(8) 0.61574(4) 0.39318(4)
Co2F Co 0.73635(8) 0.11574(4) 0.10682(4)
Co2G Co 0.26365(8) 0.11574(4) 0.39318(4)
Co3D Co 0.5000 0.59771(6) -0.7500
Co3D_2 Co 0.5000 0.59771(6) 0.2500
N3F N 0.8871(4) 0.2136(2) 0.0690(3)
O2F O 0.6900(3) 0.15822(18) -0.0128(2)
O3D O 0.3841(6) 0.4541(3) -0.2191(3)
O3E O 0.6159(6) 0.4541(3) -0.2809(3)
O4D O 0.2643(6) 0.4561(3) -0.3239(3)
O4E O 0.7357(6) 0.4561(3) -0.1761(3)
O5F O 0.8354(4) 0.24010(19) -0.0948(2)
O6F O 0.8511(4) 0.32712(19) -0.1623(2)
O6G O 0.1489(4) 0.32712(19) -0.3377(2)
C22 C 0.409(3) 0.4205(15) 0.037(2)
H17 H 0.4380 0.4274 0.0898
H18 H 0.4469 0.4463 0.0040
H19 H 0.4193 0.3780 0.0240
O8 O 0.289(2) 0.4358(8) 0.0268(12)
O9 O 0.070(3) 0.4590(17) 1.004(2)
loop_
_geom_bond_atom_site_label_1
_geom_bond_atom_site_label_2
_geom_bond_site_symmetry_1
_geom_bond_site_symmetry_2
Co1 N3 1_555 1_555
Co2 N2 1_555 1_555
Co3 N1 1_555 1_555
C1 C2 1_555 1_555
C2 H1 1_555 1_555
C3 C2 1_555 1_555
H2 C3 1_555 1_555
C4 C3 1_555 1_555
H3 C4 1_555 1_555
C5 C4 1_555 1_555
C6 C1 1_555 1_555
H4 C6 1_555 1_555
C7 C1 1_555 1_555
C8 C5 1_555 1_555
C9 H5 1_555 1_555
C10 C9 1_555 1_555
C11 C10 1_555 1_555
H6 C11 1_555 1_555
C12 C11 1_555 1_555
H7 C12 1_555 1_555
C13 C10 1_555 1_555
C14 C15 1_555 1_555
C15 H8 1_555 1_555
C16 C15 1_555 1_555
H9 C16 1_555 1_555
C17 C16 1_555 1_555
H10 C17 1_555 1_555
C18 C17 1_555 1_555
H11 C18 1_555 1_555
C19 C14 1_555 1_555
C20 H12 1_555 1_555
H13 C20 1_555 1_555
C21 C20 1_555 1_555
H14 C21 1_555 1_555
H15 C21 1_555 1_555
H16 C21 1_555 1_555
N1 C14 1_555 1_555
N2 N1 1_555 1_555
N3 C19 1_555 1_555
O1 Co2 1_555 1_555
O2 Co1 1_555 1_555
O3 C8 1_555 1_555
O4 C8 1_555 1_555
O5 Co1 1_555 1_555
O6 C13 1_555 1_555
O7 Co2 1_555 1_555
C22 H17 1_555 1_555
H18 C22 1_555 1_555
H19 C22 1_555 1_555
O8 C22 1_555 1_555
C10A C9 1_555 1_555
C11A C12 1_555 1_555
H6A C11A 1_555 1_555
C13A C10A 1_555 1_555
O5A C13A 1_555 1_555
O6A C13A 1_555 1_555
Co2A N2A 1_555 1_555
C1A C2A 1_555 1_555
C2A H1A 1_555 1_555
C3A C2A 1_555 1_555
H2A C3A 1_555 1_555
C4A C3A 1_555 1_555
H3A C4A 1_555 1_555
C5A C4A 1_555 1_555
C6A C1A 1_555 1_555
H4A C6A 1_555 1_555
C7A C1A 1_555 1_555
C8A C5A 1_555 1_555
C14A C15A 1_555 1_555
C15A H8A 1_555 1_555
C16A C15A 1_555 1_555
H9A C16A 1_555 1_555
C17A C16A 1_555 1_555
H10A C17A 1_555 1_555
C18A C17A 1_555 1_555
H11A C18A 1_555 1_555
C19A C14A 1_555 1_555
C20A H12A 1_555 1_555
H13A C20A 1_555 1_555
C21A C20A 1_555 1_555
H14A C21A 1_555 1_555
H15A C21A 1_555 1_555
H16A C21A 1_555 1_555
N1A Co3 1_555 1_555
N2A N1A 1_555 1_555
N3A C19A 1_555 1_555
O1A Co2A 1_555 1_555
O2A Co2A 1_555 1_555
O3A C8A 1_555 1_555
O4A C8A 1_555 1_555
O7A Co2A 1_555 1_555
Co1A N3A 1_555 1_555
Co1A_2 O5A 1_555 1_555
Co2D O4A 1_555 1_555
Co2E O4 1_555 1_555
Co2F O6 1_555 1_555
Co2G O6A 1_555 1_555
Co3D O3A 1_555 1_555
Co3D_2 O3 1_555 1_555
N3F Co1 1_555 1_555
O2F Co1 1_555 1_555
O3D Co3 1_555 1_555
O3E Co3 1_555 1_555
O4D Co2A 1_555 1_555
O4E Co2 1_555 1_555
O5F Co1 1_555 1_555
O6F Co2 1_555 1_555
O6G Co2A 1_555 1_555
Co2 O2 1_555 1_555
C5 C6 1_555 1_555
C7 O1 1_555 1_555
C7 O2 1_555 1_555
C13 O5 1_555 1_555
C18 C19 1_555 1_555
C20 O7 1_555 1_555
N2 N3 1_555 1_555
C10A C11A 1_555 1_555
C5A C6A 1_555 1_555
C7A O1A 1_555 1_555
C7A O2A 1_555 1_555
C14A N1A 1_555 1_555
C18A C19A 1_555 1_555
C20A O7A 1_555 1_555
N2A N3A 1_555 1_555
O2A Co1A 1_555 1_555
Co2F O2F 1_555 1_555

#END
