
#######################################################################
#
#                 Cambridge Crystallographic Data Centre
#                                CCDC 
#
#######################################################################
#
# If this CIF has been generated from an entry in the Cambridge 
# Structural Database, then it will include bibliographic, chemical, 
# crystal, experimental, refinement or atomic coordinate data resulting 
# from the CCDC's data processing and validation procedures.
#
#######################################################################

data_YOKPIY
_symmetry_cell_setting           triclinic
_symmetry_space_group_name_H-M   'P -1'
_symmetry_Int_Tables_number      2
_space_group_name_Hall           '-P 1'
loop_
_symmetry_equiv_pos_site_id
_symmetry_equiv_pos_as_xyz
1 x,y,z
2 -x,-y,-z
_cell_length_a                   10.862(3)
_cell_length_b                   11.119(3)
_cell_length_c                   11.559(3)
_cell_angle_alpha                116.979(5)
_cell_angle_beta                 106.079(5)
_cell_angle_gamma                100.616(5)
_cell_volume                     1114.42
loop_
_atom_site_label
_atom_site_type_symbol
_atom_site_fract_x
_atom_site_fract_y
_atom_site_fract_z
Ag1 Ag 0.31419(5) 0.20498(5) 0.29722(5)
Ag2 Ag 0.91473(4) 0.58227(5) 0.75616(5)
F1 F -0.1381(12) 0.0499(10) 0.3032(17)
F2 F -0.1414(10) 0.2412(12) 0.4170(16)
F3 F -0.0279(15) 0.161(2) 0.499(2)
F4 F 0.1858(7) 0.3400(12) -0.0532(9)
F5 F 0.3779(10) 0.4834(10) 0.0435(9)
F6 F 0.3438(10) 0.2738(10) -0.0896(7)
C1 C 0.1962(8) -0.4422(8) -0.2334(8)
H1 H 0.1385 -0.4509 -0.3186
H2 H 0.1496 -0.5162 -0.2227
H3 H 0.2803 -0.4529 -0.2396
C2 C 0.2273(6) -0.2987(7) -0.1092(6)
C3 C 0.3581(6) -0.2051(7) -0.0188(7)
C4 C 0.3772(6) -0.0737(6) 0.0923(6)
C5 C 0.5184(6) 0.0341(8) 0.1931(8)
H4 H 0.5313 0.0622 0.2886
H5 H 0.5307 0.1177 0.1857
H6 H 0.5844 -0.0081 0.1700
C6 C 0.1474(5) -0.1377(6) 0.0248(6)
C7 C 0.3384(9) 0.1147(12) 0.5240(12)
H7 H 0.2840 0.0758 0.4253
H8 H 0.2969 0.1707 0.5811
H9 H 0.3432 0.0368 0.5383
C8 C 0.4797(7) 0.2090(8) 0.5661(8)
C9 C 0.5891(9) 0.2226(11) 0.6673(10)
C10 C 0.8420(9) 0.3357(12) 0.8142(11)
H10 H 0.8191 0.2743 0.8485
H11 H 0.9048 0.3101 0.7716
H12 H 0.8840 0.4348 0.8923
C11 C 0.7142(7) 0.3169(8) 0.7058(7)
C12 C 0.6170(5) 0.3688(6) 0.5438(6)
C13 C 0.3098(8) 0.3535(11) 0.0055(10)
C14 C 0.3396(6) 0.3317(7) 0.1261(7)
C15 C -0.0665(13) 0.1695(11) 0.3923(15)
C16 C 0.0540(6) 0.2346(7) 0.3742(6)
N1 N 0.0438(5) -0.1074(5) 0.0507(6)
H13 H 0.0579 -0.0260 0.1239
H14 H -0.0387 -0.1688 -0.0054
N2 N 0.2734(4) -0.0394(5) 0.1146(5)
N3 N 0.4921(5) 0.2777(5) 0.5001(5)
N4 N 0.7287(5) 0.3932(5) 0.6483(5)
N5 N 0.6313(5) 0.4377(5) 0.4796(5)
H15 H 0.5612 0.4237 0.4112
H16 H 0.7109 0.4972 0.5056
N6 N 0.1204(4) -0.2658(5) -0.0899(4)
O1 O 0.0941(5) 0.1507(6) 0.3028(6)
O2 O 0.0928(5) 0.3651(5) 0.4324(5)
O3 O 0.2392(4) 0.2760(5) 0.1371(5)
O4 O 0.4591(5) 0.3712(8) 0.2020(6)
Ag2_2 Ag -0.08527(4) -0.41773(5) -0.24384(5)
Ag2A Ag 0.08527(4) 0.41773(5) 0.24384(5)
N6_2 N 1.1204(4) 0.7342(5) 0.9101(4)
O2A O 0.9072(5) 0.6349(5) 0.5676(5)
O3A O 0.7608(4) 0.7240(5) 0.8629(5)
loop_
_geom_bond_atom_site_label_1
_geom_bond_atom_site_label_2
_geom_bond_site_symmetry_1
_geom_bond_site_symmetry_2
Ag1 N2 1_555 1_555
Ag2 N4 1_555 1_555
F1 C15 1_555 1_555
F2 C15 1_555 1_555
F3 C15 1_555 1_555
F4 C13 1_555 1_555
F5 C13 1_555 1_555
F6 C13 1_555 1_555
C1 H1 1_555 1_555
H2 C1 1_555 1_555
H3 C1 1_555 1_555
C2 C1 1_555 1_555
C3 C2 1_555 1_555
C4 C3 1_555 1_555
C5 C4 1_555 1_555
H4 C5 1_555 1_555
H5 C5 1_555 1_555
H6 C5 1_555 1_555
C6 N1 1_555 1_555
C7 H7 1_555 1_555
H8 C7 1_555 1_555
H9 C7 1_555 1_555
C8 C7 1_555 1_555
C9 C8 1_555 1_555
C10 H10 1_555 1_555
H11 C10 1_555 1_555
H12 C10 1_555 1_555
C11 C9 1_555 1_555
C12 N3 1_555 1_555
C13 C14 1_555 1_555
C14 O3 1_555 1_555
C15 C16 1_555 1_555
C16 O1 1_555 1_555
N1 H13 1_555 1_555
H14 N1 1_555 1_555
N2 C4 1_555 1_555
N3 Ag1 1_555 1_555
N4 C11 1_555 1_555
N5 C12 1_555 1_555
H15 N5 1_555 1_555
H16 N5 1_555 1_555
N6 C2 1_555 1_555
O1 Ag1 1_555 1_555
O2 C16 1_555 1_555
O3 Ag1 1_555 1_555
O4 C14 1_555 1_555
Ag2_2 N6 1_555 1_555
Ag2A O2 1_555 1_555
N6_2 Ag2 1_555 1_555
O2A Ag2 1_555 1_555
O3A Ag2 1_555 1_555
C6 N2 1_555 1_555
C6 N6 1_555 1_555
C8 N3 1_555 1_555
C10 C11 1_555 1_555
C12 N4 1_555 1_555
O3 Ag2A 1_555 1_555

#END
