
#######################################################################
#
#                 Cambridge Crystallographic Data Centre
#                                CCDC 
#
#######################################################################
#
# If this CIF has been generated from an entry in the Cambridge 
# Structural Database, then it will include bibliographic, chemical, 
# crystal, experimental, refinement or atomic coordinate data resulting 
# from the CCDC's data processing and validation procedures.
#
#######################################################################

data_YOKPOE
_symmetry_cell_setting           orthorhombic
_symmetry_space_group_name_H-M   'P b c a'
_symmetry_Int_Tables_number      61
_space_group_name_Hall           '-P 2ac 2ab'
loop_
_symmetry_equiv_pos_site_id
_symmetry_equiv_pos_as_xyz
1 x,y,z
2 1/2-x,-y,1/2+z
3 -x,1/2+y,1/2-z
4 1/2+x,1/2-y,-z
5 -x,-y,-z
6 1/2+x,y,1/2-z
7 x,1/2-y,1/2+z
8 1/2-x,1/2+y,z
_cell_length_a                   14.256(8)
_cell_length_b                   12.635(7)
_cell_length_c                   15.689(9)
_cell_angle_alpha                90
_cell_angle_beta                 90
_cell_angle_gamma                90
_cell_volume                     2825.97
loop_
_atom_site_label
_atom_site_type_symbol
_atom_site_fract_x
_atom_site_fract_y
_atom_site_fract_z
Ag1 Ag 0.23204(3) 0.93006(2) 0.04698(2)
C1 C 0.1257(3) 0.5751(3) -0.0458(2)
C2 C 0.2218(2) 0.6785(3) 0.0380(2)
C3 C 0.0799(3) 0.6649(3) -0.0719(3)
H1 H 0.0300 0.6601 -0.1098
C4 C 0.3812(6) 0.8014(6) 0.3151(4)
C5 C 0.0995(3) 0.4674(3) -0.0773(3)
H2 H 0.0877 0.4218 -0.0296
H3 H 0.0441 0.4723 -0.1118
H4 H 0.1501 0.4391 -0.1107
C6 C 0.1082(3) 0.7624(3) -0.0415(2)
C7 C 0.0612(4) 0.8631(3) -0.0683(4)
H5 H 0.0354 0.8978 -0.0192
H6 H 0.0118 0.8473 -0.1079
H7 H 0.1063 0.9087 -0.0951
N1 N 0.1804(2) 0.7694(2) 0.01268(19)
N2 N 0.1974(2) 0.58135(19) 0.0105(2)
N3 N 0.2928(3) 0.6858(2) 0.0924(3)
H8 H 0.3215 0.6296 0.1090
H9 H 0.3101 0.7467 0.1112
O1 O 0.35859(19) 0.8856(2) 0.16914(17)
O2 O 0.2943(2) 0.9766(3) 0.2914(2)
O3 O 0.4604(2) 0.9740(3) 0.2664(2)
F1 F 0.4460(5) 0.7398(4) 0.2862(3)
F2 F 0.3964(4) 0.8187(4) 0.3952(3)
F3 F 0.3019(4) 0.7466(4) 0.3107(3)
S1 S 0.37258(6) 0.92236(8) 0.25422(7)
O4 O 0.14292(18) 0.9931(2) 0.17618(19)
H10 H 0.1678 0.9795 0.2242
H11 H 0.0840 0.9825 0.1755
Ag1G Ag 0.26796(3) 0.43006(2) 0.04698(2)
N2G N 0.3026(2) 1.08135(19) 0.0105(2)
loop_
_geom_bond_atom_site_label_1
_geom_bond_atom_site_label_2
_geom_bond_site_symmetry_1
_geom_bond_site_symmetry_2
Ag1 N1 1_555 1_555
C1 C3 1_555 1_555
C2 N1 1_555 1_555
C3 H1 1_555 1_555
C4 F1 1_555 1_555
C5 C1 1_555 1_555
H2 C5 1_555 1_555
H3 C5 1_555 1_555
H4 C5 1_555 1_555
C6 C3 1_555 1_555
C7 C6 1_555 1_555
H5 C7 1_555 1_555
H6 C7 1_555 1_555
H7 C7 1_555 1_555
N1 C6 1_555 1_555
N2 C1 1_555 1_555
N3 C2 1_555 1_555
H8 N3 1_555 1_555
H9 N3 1_555 1_555
O1 Ag1 1_555 1_555
O2 S1 1_555 1_555
O3 S1 1_555 1_555
F2 C4 1_555 1_555
F3 C4 1_555 1_555
S1 C4 1_555 1_555
O4 Ag1 1_555 1_555
H10 O4 1_555 1_555
H11 O4 1_555 1_555
Ag1G N2 1_555 1_555
N2G Ag1 1_555 1_555
C2 N2 1_555 1_555
O1 S1 1_555 1_555

#END
