
#######################################################################
#
#                 Cambridge Crystallographic Data Centre
#                                CCDC 
#
#######################################################################
#
# If this CIF has been generated from an entry in the Cambridge 
# Structural Database, then it will include bibliographic, chemical, 
# crystal, experimental, refinement or atomic coordinate data resulting 
# from the CCDC's data processing and validation procedures.
#
#######################################################################

data_YOKQEV
_symmetry_cell_setting           orthorhombic
_symmetry_space_group_name_H-M   'P c c n'
_symmetry_Int_Tables_number      56
_space_group_name_Hall           '-P 2ab 2ac'
loop_
_symmetry_equiv_pos_site_id
_symmetry_equiv_pos_as_xyz
1 x,y,z
2 1/2-x,1/2-y,z
3 -x,1/2+y,1/2-z
4 1/2+x,-y,1/2-z
5 -x,-y,-z
6 1/2+x,1/2+y,-z
7 x,1/2-y,1/2+z
8 1/2-x,y,1/2+z
_cell_length_a                   14.2842(3)
_cell_length_b                   11.7549(2)
_cell_length_c                   12.6474(2)
_cell_angle_alpha                90
_cell_angle_beta                 90
_cell_angle_gamma                90
_cell_volume                     2123.62
loop_
_atom_site_label
_atom_site_type_symbol
_atom_site_fract_x
_atom_site_fract_y
_atom_site_fract_z
Ag1 Ag 0.364590(12) 0.214876(13) 0.643528(11)
C1 C 0.36446(14) 0.23261(17) 0.39394(16)
C2 C 0.36826(14) 0.05050(17) 0.46035(15)
C3 C 0.35936(14) 0.00458(18) 0.36039(15)
H1 H 0.3600 -0.0751 0.3480
C4 C 0.34946(14) 0.08254(17) 0.27995(15)
C5 C 0.38380(18) -0.13187(18) 0.53822(17)
H2 H 0.3897 -0.1664 0.6084
H3 H 0.4391 -0.1507 0.4958
H4 H 0.3276 -0.1613 0.5032
C6 C 0.3381(2) -0.0638(2) 0.15058(17)
H5 H 0.3263 -0.0722 0.0747
H6 H 0.2904 -0.1057 0.1904
H7 H 0.4002 -0.0942 0.1675
N1 N 0.36847(12) 0.16303(14) 0.47872(13)
N2 N 0.36903(13) 0.34476(15) 0.41083(14)
H8 H 0.3650 0.3923 0.3573
H9 H 0.3761 0.3710 0.4755
N3 N 0.35370(12) 0.19551(14) 0.29418(13)
O5 O 0.37653(11) -0.00933(12) 0.54889(11)
O6 O 0.33428(12) 0.05546(13) 0.17891(11)
Ag1A Ag 0.135410(12) 0.285124(13) 0.643528(11)
Ag1F Ag 0.364590(12) 0.285124(13) 0.143528(11)
N3F N 0.35370(12) 0.30449(14) 0.79418(13)
Cl1 Cl 0.41605(4) -0.13468(4) 0.84751(4)
O1 O 0.32207(13) -0.1421(2) 0.88176(17)
O2 O 0.44262(14) -0.23720(14) 0.79389(14)
O3 O 0.47469(14) -0.11918(18) 0.93761(14)
O4 O 0.42780(17) -0.04058(14) 0.77694(13)
loop_
_geom_bond_atom_site_label_1
_geom_bond_atom_site_label_2
_geom_bond_site_symmetry_1
_geom_bond_site_symmetry_2
Ag1 N1 1_555 1_555
Cl1 O1 1_555 1_555
C1 N1 1_555 1_555
C2 C3 1_555 1_555
C3 H1 1_555 1_555
C4 C3 1_555 1_555
C5 H2 1_555 1_555
H3 C5 1_555 1_555
H4 C5 1_555 1_555
C6 H5 1_555 1_555
H6 C6 1_555 1_555
H7 C6 1_555 1_555
N1 C2 1_555 1_555
N2 C1 1_555 1_555
H8 N2 1_555 1_555
H9 N2 1_555 1_555
N3 C1 1_555 1_555
O2 Cl1 1_555 1_555
O3 Cl1 1_555 1_555
O4 Cl1 1_555 1_555
O5 C2 1_555 1_555
O6 C4 1_555 1_555
Ag1A Ag1 1_555 1_555
Ag1F N3 1_555 1_555
N3F Ag1 1_555 1_555
C4 N3 1_555 1_555
C5 O5 1_555 1_555
C6 O6 1_555 1_555

#END
