
#######################################################################
#
#                 Cambridge Crystallographic Data Centre
#                                CCDC 
#
#######################################################################
#
# If this CIF has been generated from an entry in the Cambridge 
# Structural Database, then it will include bibliographic, chemical, 
# crystal, experimental, refinement or atomic coordinate data resulting 
# from the CCDC's data processing and validation procedures.
#
#######################################################################

data_YOKQAR
_symmetry_cell_setting           monoclinic
_symmetry_space_group_name_H-M   'P 21/n'
_symmetry_Int_Tables_number      14
_space_group_name_Hall           '-P 2yn'
loop_
_symmetry_equiv_pos_site_id
_symmetry_equiv_pos_as_xyz
1 x,y,z
2 1/2-x,1/2+y,1/2-z
3 -x,-y,-z
4 1/2+x,1/2-y,1/2+z
_cell_length_a                   8.12910(10)
_cell_length_b                   10.8255(2)
_cell_length_c                   12.0301(2)
_cell_angle_alpha                90
_cell_angle_beta                 102.786(2)
_cell_angle_gamma                90
_cell_volume                     1032.42
loop_
_atom_site_label
_atom_site_type_symbol
_atom_site_fract_x
_atom_site_fract_y
_atom_site_fract_z
Ag1 Ag 0.50983(2) 0.269568(19) 0.205434(15)
Cl1 Cl 0.30352(7) 0.57466(5) 0.19030(5)
O1 O 0.2835(2) 0.44318(17) 0.20396(16)
O2 O 0.4735(3) 0.6005(2) 0.1873(2)
O3 O 0.2584(3) 0.63591(19) 0.28562(17)
O4 O 0.1923(3) 0.6144(2) 0.08750(17)
O5 O 0.6900(2) 0.14660(17) 0.05887(14)
N1 N 0.4267(2) 0.21812(18) 0.01964(15)
N2 N 0.2390(2) 0.19097(18) -0.16146(15)
N3 N 0.1608(2) 0.3005(2) -0.01711(17)
H1 H 0.0612 0.3127 -0.0623
H2 H 0.1832 0.3308 0.0525
C1 C 0.8315(3) 0.0910(3) 0.0237(2)
H3 H 0.9294 0.0899 0.0881
H4 H 0.8585 0.1390 -0.0390
H5 H 0.8028 0.0062 -0.0019
C2 C 0.5444(3) 0.1558(2) -0.01861(19)
C3 C 0.3187(3) 0.0718(3) -0.3138(2)
H6 H 0.2027 0.0933 -0.3515
H7 H 0.3966 0.1056 -0.3576
H8 H 0.3304 -0.0183 -0.3095
C4 C 0.2777(3) 0.2362(2) -0.05398(18)
C5 C 0.3591(3) 0.1248(2) -0.19612(18)
C6 C 0.5152(3) 0.1057(2) -0.12671(19)
H9 H 0.5997 0.0599 -0.1520
Ag1A Ag -0.00983(2) 0.769568(19) 0.294566(15)
Ag1C Ag 0.00983(2) 0.230432(19) -0.294566(15)
O3A O 0.2416(3) 0.13591(19) 0.21438(17)
N2C N 0.7390(2) 0.30903(18) 0.33854(15)
loop_
_geom_bond_atom_site_label_1
_geom_bond_atom_site_label_2
_geom_bond_site_symmetry_1
_geom_bond_site_symmetry_2
Ag1 O1 1_555 1_555
Cl1 O1 1_555 1_555
O2 Cl1 1_555 1_555
O3 Cl1 1_555 1_555
O4 Cl1 1_555 1_555
O5 C1 1_555 1_555
N1 Ag1 1_555 1_555
N2 C4 1_555 1_555
N3 H1 1_555 1_555
H2 N3 1_555 1_555
C1 H3 1_555 1_555
H4 C1 1_555 1_555
H5 C1 1_555 1_555
C2 O5 1_555 1_555
C3 H6 1_555 1_555
H7 C3 1_555 1_555
H8 C3 1_555 1_555
C4 N1 1_555 1_555
C5 N2 1_555 1_555
C6 C2 1_555 1_555
H9 C6 1_555 1_555
Ag1A O3 1_555 1_555
Ag1C N2 1_555 1_555
O3A Ag1 1_555 1_555
N2C Ag1 1_555 1_555
N1 C2 1_555 1_555
N3 C4 1_555 1_555
C3 C5 1_555 1_555
C5 C6 1_555 1_555

#END
