
#######################################################################
#
#                 Cambridge Crystallographic Data Centre
#                                CCDC 
#
#######################################################################
#
# If this CIF has been generated from an entry in the Cambridge 
# Structural Database, then it will include bibliographic, chemical, 
# crystal, experimental, refinement or atomic coordinate data resulting 
# from the CCDC's data processing and validation procedures.
#
#######################################################################

data_YOKRAR
_symmetry_cell_setting           monoclinic
_symmetry_space_group_name_H-M   'P 21/c'
_symmetry_Int_Tables_number      14
_space_group_name_Hall           '-P 2ybc'
loop_
_symmetry_equiv_pos_site_id
_symmetry_equiv_pos_as_xyz
1 x,y,z
2 -x,1/2+y,1/2-z
3 -x,-y,-z
4 x,1/2-y,1/2+z
_cell_length_a                   5.698(3)
_cell_length_b                   6.076(4)
_cell_length_c                   18.569(9)
_cell_angle_alpha                90
_cell_angle_beta                 89.90(4)
_cell_angle_gamma                90
_cell_volume                     642.877
loop_
_atom_site_label
_atom_site_type_symbol
_atom_site_fract_x
_atom_site_fract_y
_atom_site_fract_z
Pb1 Pb -0.24680(11) 0.20654(12) 0.49458(3)
O1 O -0.2246(22) -0.0778(26) 0.2631(7)
O2 O -0.5490(21) 0.0098(25) 0.4247(6)
O3 O -0.0926(21) -0.0946(24) 0.4434(7)
C1 C -0.3979(37) 0.0388(40) 0.3033(10)
H1 H -0.3398(37) 0.1799(40) 0.3183(10)
H2 H -0.5375(37) 0.0599(40) 0.2752(10)
C2 C -0.4462(30) -0.1070(37) 0.3675(9)
H3 H -0.5482(30) -0.2250(37) 0.3534(9)
C3 C -0.1996(37) -0.2007(37) 0.3847(10)
H4 H -0.2090(37) -0.3562(37) 0.3934(10)
C4 C -0.0644(38) -0.1559(48) 0.3153(11)
H5 H 0.0093(38) -0.2886(48) 0.2987(11)
H6 H 0.0555(38) -0.0480(48) 0.3238(11)
Pb1B Pb -0.75320(11) -0.20654(12) 0.50542(3)
O2B O -0.4510(21) -0.0098(25) 0.5753(6)
Pb1B_2 Pb 0.24680(11) -0.20654(12) 0.50542(3)
O3B O 0.0926(21) 0.0946(24) 0.5566(7)
O4 O -0.1863(33) 0.6145(33) 0.6076(9)
H7 H -0.259(53) 0.708(52) 0.601(16)
H8 H -0.188(43) 0.584(47) 0.652(15)
loop_
_geom_bond_atom_site_label_1
_geom_bond_atom_site_label_2
_geom_bond_site_symmetry_1
_geom_bond_site_symmetry_2
Pb1 O2 1_555 1_555
O1 C1 1_555 1_555
O2 C2 1_555 1_555
O3 Pb1 1_555 1_555
C1 H1 1_555 1_555
H2 C1 1_555 1_555
C2 C1 1_555 1_555
H3 C2 1_555 1_555
C3 O3 1_555 1_555
H4 C3 1_555 1_555
C4 O1 1_555 1_555
H5 C4 1_555 1_555
H6 C4 1_555 1_555
O4 H7 1_555 1_555
H8 O4 1_555 1_555
Pb1B O2 1_555 1_555
O2B Pb1 1_555 1_555
Pb1B_2 O3 1_555 1_555
O3B Pb1 1_555 1_555
C2 C3 1_555 1_555
C3 C4 1_555 1_555
Pb1B O2B 1_555 1_555
Pb1B_2 O3B 1_555 1_555

#END
