
#######################################################################
#
#                 Cambridge Crystallographic Data Centre
#                                CCDC 
#
#######################################################################
#
# If this CIF has been generated from an entry in the Cambridge 
# Structural Database, then it will include bibliographic, chemical, 
# crystal, experimental, refinement or atomic coordinate data resulting 
# from the CCDC's data processing and validation procedures.
#
#######################################################################

data_YOKZUV
_symmetry_cell_setting           monoclinic
_symmetry_space_group_name_H-M   'P 21'
_symmetry_Int_Tables_number      4
_space_group_name_Hall           'P 2yb'
loop_
_symmetry_equiv_pos_site_id
_symmetry_equiv_pos_as_xyz
1 x,y,z
2 -x,1/2+y,-z
_cell_length_a                   9.3319(19)
_cell_length_b                   13.227(3)
_cell_length_c                   16.381(3)
_cell_angle_alpha                90
_cell_angle_beta                 99.85(3)
_cell_angle_gamma                90
_cell_volume                     1992.15
loop_
_atom_site_label
_atom_site_type_symbol
_atom_site_fract_x
_atom_site_fract_y
_atom_site_fract_z
Cu1 Cu 0.64559(6) 0.59410(3) 0.25075(3)
Cu2 Cu 0.34842(6) 0.50809(3) 0.24519(4)
O1 O 0.7508(4) 0.5735(3) 0.1601(2)
O2 O 0.7529(5) 0.4784(3) 0.0491(3)
O3 O 0.5235(3) 0.4855(2) 0.1993(2)
Cl1 Cl 0.3527(2) 0.37119(15) -0.03591(12)
C1 C 0.6988(5) 0.5044(4) 0.1071(3)
C2 C 0.5513(5) 0.4609(3) 0.1199(3)
H1 H 0.4753 0.4921 0.0790
C3 C 0.5445(6) 0.3467(4) 0.1061(3)
C4 C 0.4573(5) 0.3000(4) 0.0416(3)
C5 C 0.4419(8) 0.1961(5) 0.0339(4)
H2 H 0.3759 0.1673 -0.0087
C6 C 0.5278(7) 0.1375(4) 0.0917(4)
H3 H 0.5223 0.0675 0.0877
C7 C 0.6215(8) 0.1813(5) 0.1552(5)
H4 H 0.6798 0.1404 0.1935
C8 C 0.6309(7) 0.2847(4) 0.1635(4)
H5 H 0.6948 0.3132 0.2072
O4 O 0.2280(3) 0.5379(2) 0.3273(2)
O5 O 0.2037(4) 0.6547(3) 0.4221(3)
O6 O 0.4773(4) 0.6068(3) 0.3067(2)
Cl2 Cl 0.3628(3) 0.91290(15) 0.33871(15)
C9 C 0.2643(5) 0.6201(4) 0.3681(3)
C10 C 0.3911(5) 0.6779(3) 0.3398(3)
H6 H 0.3503 0.7249 0.2956
C11 C 0.4775(6) 0.7379(4) 0.4094(3)
C12 C 0.4725(7) 0.8421(4) 0.4136(4)
C13 C 0.5569(8) 0.8970(6) 0.4777(5)
H7 H 0.5533 0.9672 0.4784
C14 C 0.6454(7) 0.8450(6) 0.5399(5)
H8 H 0.7041 0.8802 0.5821
C15 C 0.6466(6) 0.7411(6) 0.5393(4)
H9 H 0.7013 0.7063 0.5832
C16 C 0.5677(5) 0.6876(4) 0.4742(3)
H10 H 0.5743 0.6175 0.4734
N1 N 0.7467(5) 0.7210(3) 0.2892(3)
N2 N 0.7785(5) 1.4776(3) 0.3396(3)
C17 C 0.8717(7) 0.7235(4) 0.3421(4)
H11 H 0.9192 0.6626 0.3566
C18 C 0.9339(7) 0.8098(4) 0.3763(4)
H12 H 1.0184 0.8062 0.4156
C19 C 0.8734(7) 0.9030(4) 0.3535(4)
C20 C 0.7482(7) 0.9015(4) 0.2953(4)
H13 H 0.7041 0.9620 0.2763
C21 C 0.6878(6) 0.8112(4) 0.2650(4)
H14 H 0.6026 0.8126 0.2260
C22 C 0.9409(7) 0.9967(4) 0.3963(4)
H15 H 0.9388 0.9899 0.4551
H16 H 1.0423 0.9985 0.3899
C23 C 0.8741(7) 1.0967(4) 0.3683(4)
H17 H 0.7719 1.0961 0.3731
H18 H 0.8808 1.1071 0.3104
C24 C 0.9494(7) 1.1834(4) 0.4193(4)
H19 H 0.9406 1.1732 0.4769
H20 H 1.0521 1.1821 0.4158
C25 C 0.8885(6) 1.2855(4) 0.3920(3)
C26 C 0.9614(6) 1.3498(4) 0.3474(4)
H21 H 1.0493 1.3297 0.3331
C27 C 0.9052(6) 1.4441(4) 0.3235(4)
H22 H 0.9588 1.4863 0.2947
C28 C 0.7097(6) 1.4151(4) 0.3834(3)
H23 H 0.6209 1.4364 0.3958
C29 C 0.7590(6) 1.3220(4) 0.4117(3)
H24 H 0.7065 1.2835 0.4438
N3 N 0.2433(5) 0.3817(3) 0.2042(3)
N4 N 0.2206(5) -0.3717(3) 0.1518(3)
C30 C 0.3003(6) 0.2935(4) 0.2288(3)
H25 H 0.3864 0.2928 0.2669
C31 C 0.2392(6) 0.2020(4) 0.2012(4)
H26 H 0.2841 0.1417 0.2204
C32 C 0.1099(7) 0.2008(4) 0.1442(4)
C33 C 0.0471(7) 0.2930(4) 0.1223(4)
H27 H -0.0431 0.2957 0.0880
C34 C 0.1165(7) 0.3816(4) 0.1508(4)
H28 H 0.0743 0.4430 0.1325
C35 C 0.0432(7) 0.1064(4) 0.1048(4)
H29 H 0.0401 0.1123 0.0455
H30 H -0.0566 0.1035 0.1140
C36 C 0.1141(6) 0.0072(4) 0.1322(4)
H31 H 0.1104 -0.0035 0.1904
H32 H 0.2155 0.0091 0.1258
C37 C 0.0385(7) -0.0793(4) 0.0819(4)
H33 H -0.0629 -0.0797 0.0883
H34 H 0.0418 -0.0672 0.0239
C38 C 0.1023(6) -0.1822(4) 0.1051(3)
C39 C 0.2389(6) -0.2082(4) 0.0915(4)
H35 H 0.2943 -0.1626 0.0669
C40 C 0.2937(6) -0.3045(4) 0.1153(3)
H36 H 0.3855 -0.3219 0.1050
C41 C 0.0878(6) -0.3464(4) 0.1622(4)
H37 H 0.0334 -0.3938 0.1856
C42 C 0.0257(7) -0.2540(4) 0.1404(4)
H38 H -0.0680 -0.2400 0.1495
Cu1_2 Cu 0.64559(6) 1.59410(3) 0.25075(3)
Cu2_2 Cu 0.34842(6) -0.49191(3) 0.24519(4)
N2_2 N 0.7785(5) 0.4776(3) 0.3396(3)
N4_2 N 0.2206(5) 0.6283(3) 0.1518(3)
loop_
_geom_bond_atom_site_label_1
_geom_bond_atom_site_label_2
_geom_bond_site_symmetry_1
_geom_bond_site_symmetry_2
Cu1 O1 1_555 1_555
Cu2 O3 1_555 1_555
O1 C1 1_555 1_555
O2 C1 1_555 1_555
O3 Cu1 1_555 1_555
Cl1 C4 1_555 1_555
C1 C2 1_555 1_555
C2 O3 1_555 1_555
H1 C2 1_555 1_555
C3 C2 1_555 1_555
C4 C3 1_555 1_555
C5 C4 1_555 1_555
H2 C5 1_555 1_555
C6 C5 1_555 1_555
H3 C6 1_555 1_555
C7 C6 1_555 1_555
H4 C7 1_555 1_555
C8 C3 1_555 1_555
H5 C8 1_555 1_555
O4 Cu2 1_555 1_555
O5 C9 1_555 1_555
O6 Cu1 1_555 1_555
Cl2 C12 1_555 1_555
C9 O4 1_555 1_555
C10 O6 1_555 1_555
H6 C10 1_555 1_555
C11 C10 1_555 1_555
C12 C11 1_555 1_555
C13 C12 1_555 1_555
H7 C13 1_555 1_555
C14 C13 1_555 1_555
H8 C14 1_555 1_555
C15 C14 1_555 1_555
H9 C15 1_555 1_555
C16 C11 1_555 1_555
H10 C16 1_555 1_555
N1 Cu1 1_555 1_555
N2 C27 1_555 1_555
C17 N1 1_555 1_555
H11 C17 1_555 1_555
C18 C17 1_555 1_555
H12 C18 1_555 1_555
C19 C18 1_555 1_555
C20 C19 1_555 1_555
H13 C20 1_555 1_555
C21 N1 1_555 1_555
H14 C21 1_555 1_555
C22 C19 1_555 1_555
H15 C22 1_555 1_555
H16 C22 1_555 1_555
C23 C22 1_555 1_555
H17 C23 1_555 1_555
H18 C23 1_555 1_555
C24 C23 1_555 1_555
H19 C24 1_555 1_555
H20 C24 1_555 1_555
C25 C24 1_555 1_555
C26 C25 1_555 1_555
H21 C26 1_555 1_555
C27 C26 1_555 1_555
H22 C27 1_555 1_555
C28 N2 1_555 1_555
H23 C28 1_555 1_555
C29 C25 1_555 1_555
H24 C29 1_555 1_555
N3 Cu2 1_555 1_555
N4 C40 1_555 1_555
C30 N3 1_555 1_555
H25 C30 1_555 1_555
C31 C30 1_555 1_555
H26 C31 1_555 1_555
C32 C31 1_555 1_555
C33 C32 1_555 1_555
H27 C33 1_555 1_555
C34 N3 1_555 1_555
H28 C34 1_555 1_555
C35 C32 1_555 1_555
H29 C35 1_555 1_555
H30 C35 1_555 1_555
C36 C35 1_555 1_555
H31 C36 1_555 1_555
H32 C36 1_555 1_555
C37 C36 1_555 1_555
H33 C37 1_555 1_555
H34 C37 1_555 1_555
C38 C37 1_555 1_555
C39 C38 1_555 1_555
H35 C39 1_555 1_555
C40 C39 1_555 1_555
H36 C40 1_555 1_555
C41 N4 1_555 1_555
H37 C41 1_555 1_555
C42 C38 1_555 1_555
H38 C42 1_555 1_555
Cu1_2 N2 1_555 1_555
Cu2_2 N4 1_555 1_555
N2_2 Cu1 1_555 1_555
N4_2 Cu2 1_555 1_555
Cu2 O6 1_555 1_555
C7 C8 1_555 1_555
C9 C10 1_555 1_555
C15 C16 1_555 1_555
C20 C21 1_555 1_555
C28 C29 1_555 1_555
C33 C34 1_555 1_555
C41 C42 1_555 1_555

#END
