
#######################################################################
#
#                 Cambridge Crystallographic Data Centre
#                                CCDC 
#
#######################################################################
#
# If this CIF has been generated from an entry in the Cambridge 
# Structural Database, then it will include bibliographic, chemical, 
# crystal, experimental, refinement or atomic coordinate data resulting 
# from the CCDC's data processing and validation procedures.
#
#######################################################################

data_YOLBEI
_symmetry_cell_setting           triclinic
_symmetry_space_group_name_H-M   'P 1'
_symmetry_Int_Tables_number      1
_space_group_name_Hall           'P 1'
loop_
_symmetry_equiv_pos_site_id
_symmetry_equiv_pos_as_xyz
1 x,y,z
_cell_length_a                   8.0009(16)
_cell_length_b                   8.0190(16)
_cell_length_c                   13.718(3)
_cell_angle_alpha                92.93(3)
_cell_angle_beta                 103.40(3)
_cell_angle_gamma                118.61(3)
_cell_volume                     737.973
loop_
_atom_site_label
_atom_site_type_symbol
_atom_site_fract_x
_atom_site_fract_y
_atom_site_fract_z
Cu1 Cu 0.70202(12) 0.44340(12) 0.37326(7)
Cu2 Cu 0.54067(12) 0.67423(12) 0.45192(7)
O1 O 0.8987(11) 0.3986(11) 0.4617(6)
O2 O 1.0237(12) 0.4076(12) 0.6269(7)
O3 O 0.6970(14) 0.5561(14) 0.4970(6)
C1 C 0.9236(15) 0.4452(15) 0.5561(10)
C2 C 0.8224(17) 0.5525(19) 0.5878(9)
H1 H 0.7422 0.4823 0.6318
C3 C 0.9765(15) 0.7563(13) 0.6441(7)
C4 C 1.0210(18) 0.8143(17) 0.7484(8)
C5 C 1.159(2) 1.008(2) 0.7955(11)
H2 H 1.1880 1.0449 0.8655
C6 C 1.248(3) 1.139(3) 0.7416(17)
H3 H 1.3371 1.2679 0.7729
C7 C 1.206(2) 1.0803(18) 0.6380(14)
H4 H 1.2697 1.1702 0.5997
C8 C 1.0746(17) 0.8943(15) 0.5914(9)
H5 H 1.0499 0.8591 0.5217
Cl1 Cl 0.9147(9) 0.6521(8) 0.8236(3)
O4 O 0.4204(11) 0.7924(10) 0.3644(6)
O5 O 0.2878(12) 0.7793(12) 0.2010(7)
O6 O 0.5455(13) 0.5643(13) 0.3287(6)
C9 C 0.3801(14) 0.7336(15) 0.2679(7)
C10 C 0.4592(16) 0.6062(17) 0.2386(8)
H6 H 0.3473 0.4847 0.1955
C11 C 0.6042(14) 0.7020(14) 0.1801(7)
C12 C 0.5656(17) 0.6461(18) 0.0751(7)
C13 C 0.716(3) 0.741(3) 0.0272(11)
H7 H 0.6865 0.7059 -0.0429
C14 C 0.897(3) 0.881(3) 0.0803(15)
H8 H 0.9973 0.9358 0.0487
C15 C 0.9357(18) 0.942(2) 0.1809(15)
H9 H 1.0602 1.0453 0.2171
C16 C 0.7942(16) 0.8534(17) 0.2308(9)
H10 H 0.8269 0.8964 0.3005
Cl2 Cl 0.3334(8) 0.4640(9) 0.0027(3)
N1 N 0.7089(14) 0.3513(14) 0.2411(8)
N2 N 0.5588(15) -0.2050(14) -0.4150(6)
C17 C 0.8626(17) 0.4538(18) 0.2041(9)
H11 H 0.9705 0.5677 0.2452
C18 C 0.8695(16) 0.4000(16) 0.1090(8)
H12 H 0.9799 0.4747 0.0870
C19 C 0.7067(19) 0.230(2) 0.0460(9)
C20 C 0.5515(18) 0.1247(17) 0.0823(8)
H13 H 0.4429 0.0100 0.0423
C21 C 0.554(2) 0.1894(18) 0.1826(9)
H14 H 0.4455 0.1172 0.2066
C22 C 0.713(2) 0.174(2) -0.0579(9)
H15 H 0.8166 0.2662 -0.0791
C23 C 0.601(2) 0.026(2) -0.1171(9)
H16 H 0.4978 -0.0600 -0.0932
C24 C 0.589(2) -0.053(2) -0.2213(10)
C25 C 0.710(2) 0.0609(18) -0.2767(9)
H17 H 0.8036 0.1905 -0.2495
C26 C 0.6908(17) -0.0199(16) -0.3729(9)
H18 H 0.7727 0.0574 -0.4097
C27 C 0.4480(18) -0.3116(19) -0.3593(9)
H19 H 0.3576 -0.4419 -0.3865
C28 C 0.4608(17) -0.2387(18) -0.2634(8)
H20 H 0.3791 -0.3194 -0.2275
O7 O 0.4007(14) 0.1322(13) 0.3898(7)
H21 H 0.3552 0.1689 0.4330
H22 H 0.4305 0.0541 0.4126
O8 O 0.2088(12) 0.3595(13) 0.4312(7)
H23 H 0.2499 0.3816 0.3802
H24 H 0.1371 0.4102 0.4244
Cu2_2 Cu 0.54067(12) -0.32577(12) -0.54808(7)
N2_2 N 0.5588(15) 0.7950(14) 0.5850(6)
loop_
_geom_bond_atom_site_label_1
_geom_bond_atom_site_label_2
_geom_bond_site_symmetry_1
_geom_bond_site_symmetry_2
Cu1 O1 1_555 1_555
Cu2 O3 1_555 1_555
O1 C1 1_555 1_555
O2 C1 1_555 1_555
O3 Cu1 1_555 1_555
C1 C2 1_555 1_555
C2 O3 1_555 1_555
H1 C2 1_555 1_555
C3 C2 1_555 1_555
C4 C3 1_555 1_555
C5 C4 1_555 1_555
H2 C5 1_555 1_555
C6 C5 1_555 1_555
H3 C6 1_555 1_555
C7 C6 1_555 1_555
H4 C7 1_555 1_555
C8 C3 1_555 1_555
H5 C8 1_555 1_555
Cl1 C4 1_555 1_555
O4 Cu2 1_555 1_555
O5 C9 1_555 1_555
O6 Cu1 1_555 1_555
C9 O4 1_555 1_555
C10 O6 1_555 1_555
H6 C10 1_555 1_555
C11 C10 1_555 1_555
C12 C11 1_555 1_555
C13 C12 1_555 1_555
H7 C13 1_555 1_555
C14 C13 1_555 1_555
H8 C14 1_555 1_555
C15 C14 1_555 1_555
H9 C15 1_555 1_555
C16 C11 1_555 1_555
H10 C16 1_555 1_555
Cl2 C12 1_555 1_555
N1 Cu1 1_555 1_555
N2 C26 1_555 1_555
C17 N1 1_555 1_555
H11 C17 1_555 1_555
C18 C17 1_555 1_555
H12 C18 1_555 1_555
C19 C18 1_555 1_555
C20 C19 1_555 1_555
H13 C20 1_555 1_555
C21 N1 1_555 1_555
H14 C21 1_555 1_555
C22 C19 1_555 1_555
H15 C22 1_555 1_555
C23 C22 1_555 1_555
H16 C23 1_555 1_555
C24 C23 1_555 1_555
C25 C24 1_555 1_555
H17 C25 1_555 1_555
C26 C25 1_555 1_555
H18 C26 1_555 1_555
C27 N2 1_555 1_555
H19 C27 1_555 1_555
C28 C24 1_555 1_555
H20 C28 1_555 1_555
O7 Cu1 1_555 1_555
H21 O7 1_555 1_555
H22 O7 1_555 1_555
O8 Cu2 1_555 1_555
H23 O8 1_555 1_555
H24 O8 1_555 1_555
Cu2_2 N2 1_555 1_555
N2_2 Cu2 1_555 1_555
Cu2 O6 1_555 1_555
C7 C8 1_555 1_555
C9 C10 1_555 1_555
C15 C16 1_555 1_555
C20 C21 1_555 1_555
C27 C28 1_555 1_555

#END
