
#######################################################################
#
#                 Cambridge Crystallographic Data Centre
#                                CCDC 
#
#######################################################################
#
# If this CIF has been generated from an entry in the Cambridge 
# Structural Database, then it will include bibliographic, chemical, 
# crystal, experimental, refinement or atomic coordinate data resulting 
# from the CCDC's data processing and validation procedures.
#
#######################################################################

data_YOLBAE
_symmetry_cell_setting           monoclinic
_symmetry_space_group_name_H-M   'P 21'
_symmetry_Int_Tables_number      4
_space_group_name_Hall           'P 2yb'
loop_
_symmetry_equiv_pos_site_id
_symmetry_equiv_pos_as_xyz
1 x,y,z
2 -x,1/2+y,-z
_cell_length_a                   12.612(3)
_cell_length_b                   7.8342(16)
_cell_length_c                   13.305(3)
_cell_angle_alpha                90
_cell_angle_beta                 104.90(3)
_cell_angle_gamma                90
_cell_volume                     1270.4
loop_
_atom_site_label
_atom_site_type_symbol
_atom_site_fract_x
_atom_site_fract_y
_atom_site_fract_z
Cu1 Cu 0.80874(9) 0.56150(15) 0.44105(6)
Cu2 Cu 0.67504(10) 0.64139(16) 0.58935(7)
O1 O 0.9667(6) 0.5872(10) 0.4850(4)
O2 O 1.1068(5) 0.5920(9) 0.6263(4)
O3 O 0.8190(5) 0.5638(11) 0.5881(4)
Cl1 Cl 1.0344(3) 0.6209(4) 0.89052(15)
C1 C 1.0071(8) 0.5928(11) 0.5827(6)
C2 C 0.9250(7) 0.5941(12) 0.6510(5)
H1 H 0.9445 0.5034 0.7033
C3 C 0.9300(8) 0.7660(12) 0.7060(6)
C4 C 0.9744(8) 0.7877(14) 0.8131(7)
C5 C 0.9710(10) 0.9474(17) 0.8584(8)
H2 H 1.0014 0.9607 0.9294
C6 C 0.9242(10) 1.0840(17) 0.8011(9)
H3 H 0.9193 1.1882 0.8331
O4 O 0.5297(6) 0.7361(11) 0.5537(4)
O5 O 0.3862(6) 0.7811(13) 0.4192(5)
O6 O 0.6628(5) 0.6509(11) 0.4448(4)
Cl2 Cl 0.4822(3) 0.5557(5) 0.15133(18)
C7 C 0.8836(10) 1.0666(17) 0.6937(8)
H4 H 0.8549 1.1605 0.6531
C8 C 0.8862(9) 0.9119(13) 0.6492(7)
H5 H 0.8578 0.9019 0.5776
C9 C 0.4823(9) 0.7350(15) 0.4573(7)
C10 C 0.5532(7) 0.6754(12) 0.3845(5)
H6 H 0.5247 0.5654 0.3541
C11 C 0.5508(7) 0.7986(12) 0.2973(6)
C12 C 0.5202(8) 0.7587(13) 0.1930(6)
C13 C 0.5236(9) 0.8787(15) 0.1148(6)
H7 H 0.5058 0.8469 0.0451
C14 C 0.5538(10) 1.0440(17) 0.1438(7)
H8 H 0.5553 1.1259 0.0936
C15 C 0.5820(10) 1.0880(14) 0.2485(8)
H9 H 0.6006 1.2004 0.2678
C16 C 0.5829(9) 0.9681(13) 0.3237(7)
H10 H 0.6051 0.9994 0.3934
N1 N 0.7968(6) 0.5769(12) 0.2896(4)
N2 N 0.6993(6) 0.6308(12) -0.2576(4)
C17 C 0.7754(9) 0.4397(15) 0.2294(7)
H11 H 0.7722 0.3345 0.2609
C18 C 0.7574(9) 0.4441(13) 0.1221(6)
H12 H 0.7411 0.3445 0.0832
C19 C 0.7641(7) 0.5984(11) 0.0735(5)
C20 C 0.7892(8) 0.7424(13) 0.1379(7)
H13 H 0.7942 0.8494 0.1092
C21 C 0.8064(9) 0.7242(13) 0.2429(6)
H14 H 0.8259 0.8206 0.2843
C22 C 0.7442(7) 0.6113(12) -0.0414(5)
C23 C 0.7500(9) 0.4701(13) -0.1013(6)
H15 H 0.7706 0.3652 -0.0695
C24 C 0.7254(9) 0.4834(14) -0.2092(6)
H16 H 0.7275 0.3857 -0.2484
C25 C 0.6950(9) 0.7684(14) -0.2000(6)
H17 H 0.6760 0.8724 -0.2336
C26 C 0.7171(8) 0.7642(13) -0.0940(6)
H18 H 0.7141 0.8641 -0.0571
O7 O 0.7470(6) 0.2948(9) 0.4350(5)
H19 H 0.7971 0.2240 0.4435
H20 H 0.7166 0.2943 0.4836
Cu2_2 Cu 0.67504(10) 0.64139(16) -0.41065(7)
N2_2 N 0.6993(6) 0.6308(12) 0.7424(4)
loop_
_geom_bond_atom_site_label_1
_geom_bond_atom_site_label_2
_geom_bond_site_symmetry_1
_geom_bond_site_symmetry_2
Cu1 O1 1_555 1_555
Cu2 O3 1_555 1_555
O1 C1 1_555 1_555
O2 C1 1_555 1_555
O3 Cu1 1_555 1_555
Cl1 C4 1_555 1_555
C1 C2 1_555 1_555
C2 O3 1_555 1_555
H1 C2 1_555 1_555
C3 C2 1_555 1_555
C4 C3 1_555 1_555
C5 C4 1_555 1_555
H2 C5 1_555 1_555
C6 C5 1_555 1_555
H3 C6 1_555 1_555
O4 Cu2 1_555 1_555
O5 C9 1_555 1_555
O6 Cu1 1_555 1_555
Cl2 C12 1_555 1_555
C7 C6 1_555 1_555
H4 C7 1_555 1_555
C8 C3 1_555 1_555
H5 C8 1_555 1_555
C9 O4 1_555 1_555
C10 O6 1_555 1_555
H6 C10 1_555 1_555
C11 C10 1_555 1_555
C12 C11 1_555 1_555
C13 C12 1_555 1_555
H7 C13 1_555 1_555
C14 C13 1_555 1_555
H8 C14 1_555 1_555
C15 C14 1_555 1_555
H9 C15 1_555 1_555
C16 C11 1_555 1_555
H10 C16 1_555 1_555
N1 Cu1 1_555 1_555
N2 C24 1_555 1_555
C17 N1 1_555 1_555
H11 C17 1_555 1_555
C18 C17 1_555 1_555
H12 C18 1_555 1_555
C19 C18 1_555 1_555
C20 C19 1_555 1_555
H13 C20 1_555 1_555
C21 N1 1_555 1_555
H14 C21 1_555 1_555
C22 C19 1_555 1_555
C23 C22 1_555 1_555
H15 C23 1_555 1_555
C24 C23 1_555 1_555
H16 C24 1_555 1_555
C25 N2 1_555 1_555
H17 C25 1_555 1_555
C26 C22 1_555 1_555
H18 C26 1_555 1_555
O7 Cu1 1_555 1_555
H19 O7 1_555 1_555
H20 O7 1_555 1_555
Cu2_2 N2 1_555 1_555
N2_2 Cu2 1_555 1_555
Cu2 O6 1_555 1_555
C7 C8 1_555 1_555
C9 C10 1_555 1_555
C15 C16 1_555 1_555
C20 C21 1_555 1_555
C25 C26 1_555 1_555

#END
