
#######################################################################
#
#                 Cambridge Crystallographic Data Centre
#                                CCDC 
#
#######################################################################
#
# If this CIF has been generated from an entry in the Cambridge 
# Structural Database, then it will include bibliographic, chemical, 
# crystal, experimental, refinement or atomic coordinate data resulting 
# from the CCDC's data processing and validation procedures.
#
#######################################################################

data_YOLDOT01
_symmetry_cell_setting           orthorhombic
_symmetry_space_group_name_H-M   'P 21 21 21'
_symmetry_Int_Tables_number      19
_space_group_name_Hall           'P 2ac 2ab'
loop_
_symmetry_equiv_pos_site_id
_symmetry_equiv_pos_as_xyz
1 x,y,z
2 1/2-x,-y,1/2+z
3 -x,1/2+y,1/2-z
4 1/2+x,1/2-y,-z
_cell_length_a                   9.3119(6)
_cell_length_b                   14.1906(9)
_cell_length_c                   26.0335(17)
_cell_angle_alpha                90
_cell_angle_beta                 90
_cell_angle_gamma                90
_cell_volume                     3440.1
loop_
_atom_site_label
_atom_site_type_symbol
_atom_site_fract_x
_atom_site_fract_y
_atom_site_fract_z
Cd1 Cd 0.00750(7) 0.34155(3) 0.82057(2)
N1 N -0.1475(7) 0.2648(5) 0.7561(3)
N2 N -0.2066(7) 0.4346(5) 0.8003(3)
N3 N 0.0758(7) 0.1861(4) 0.8424(3)
N4 N -0.1335(7) 0.2803(5) 0.8919(3)
O1 O 0.2295(7) 0.3849(4) 0.8745(3)
O2 O 0.0296(7) 0.4644(4) 0.8843(2)
O3 O -0.0015(7) 0.5615(4) 0.9647(2)
H1 H -0.0245 0.5284 0.9402
O4 O 0.2275(8) 0.7216(4) 1.1465(3)
H2 H 0.2746 0.7348 1.1721
O5 O 0.3256(8) 0.7011(6) 1.2361(3)
O6 O 0.3762(7) 0.5578(6) 1.2647(3)
C1 C 0.1606(10) 0.4472(6) 0.8948(3)
C2 C 0.2303(9) 0.5070(6) 0.9353(3)
C3 C 0.3751(9) 0.5110(5) 0.9398(3)
H3 H 0.4315 0.4744 0.9181
C4 C 0.4439(9) 0.5699(6) 0.9768(4)
C5 C 0.5961(9) 0.5768(7) 0.9788(4)
H4 H 0.6525 0.5418 0.9563
C6 C 0.6591(11) 0.6356(8) 1.0140(5)
H5 H 0.7586 0.6417 1.0148
C7 C 0.5752(12) 0.6861(7) 1.0486(5)
H6 H 0.6186 0.7271 1.0717
C8 C 0.4301(11) 0.6760(8) 1.0487(4)
H7 H 0.3766 0.7085 1.0731
C9 C 0.3574(9) 0.6178(6) 1.0130(4)
C10 C 0.2030(8) 0.6080(5) 1.0110(3)
C11 C 0.1435(8) 0.5609(5) 0.9700(3)
C12 C 0.3192(10) 0.6133(10) 1.2327(4)
C13 C 0.2357(8) 0.5720(6) 1.1894(3)
C14 C 0.1953(8) 0.4798(6) 1.1901(3)
H8 H 0.2248 0.4423 1.2175
C15 C 0.1119(9) 0.4395(6) 1.1518(3)
C16 C 0.0603(9) 0.3457(6) 1.1558(4)
H9 H 0.0861 0.3090 1.1839
C17 C -0.0254(12) 0.3097(6) 1.1194(4)
H10 H -0.0570 0.2477 1.1221
C18 C -0.0677(9) 0.3649(6) 1.0773(4)
H11 H -0.1302 0.3395 1.0531
C19 C -0.0196(10) 0.4547(6) 1.0710(3)
H12 H -0.0480 0.4896 1.0425
C20 C 0.0746(8) 0.4955(6) 1.1083(3)
C21 C 0.1267(8) 0.5919(5) 1.1035(3)
C22 C 0.1965(9) 0.6283(5) 1.1467(4)
C23 C 0.1085(8) 0.6469(6) 1.0548(3)
H13 H 0.1336 0.7122 1.0610
H14 H 0.0086 0.6447 1.0444
C24 C -0.1049(10) 0.1932(6) 0.7267(4)
H15 H -0.0224 0.1606 0.7361
C25 C -0.1762(10) 0.1651(6) 0.6831(4)
H16 H -0.1425 0.1150 0.6634
C26 C -0.2996(11) 0.2132(6) 0.6691(4)
H17 H -0.3493 0.1975 0.6394
C27 C -0.3465(10) 0.2849(7) 0.7005(4)
H18 H -0.4305 0.3171 0.6924
C28 C -0.2709(9) 0.3090(6) 0.7433(3)
C29 C -0.3138(9) 0.3887(6) 0.7766(3)
C30 C -0.4573(8) 0.4175(6) 0.7808(4)
H19 H -0.5301 0.3815 0.7663
C31 C -0.4893(12) 0.4986(7) 0.8062(4)
H20 H -0.5839 0.5189 0.8092
C32 C -0.3791(10) 0.5497(6) 0.8273(4)
H21 H -0.3971 0.6072 0.8431
C33 C -0.2424(9) 0.5150(6) 0.8246(4)
H22 H -0.1696 0.5490 0.8405
C34 C 0.1783(8) 0.1403(5) 0.8161(4)
H23 H 0.2335 0.1734 0.7924
C35 C 0.2040(11) 0.0456(6) 0.8231(5)
H24 H 0.2748 0.0153 0.8040
C36 C 0.1249(14) -0.0037(7) 0.8583(5)
H25 H 0.1400 -0.0679 0.8631
C37 C 0.0223(12) 0.0436(6) 0.8864(4)
H26 H -0.0313 0.0116 0.9110
C38 C -0.0004(12) 0.1373(4) 0.8782(3)
C39 C -0.1061(9) 0.1939(6) 0.9087(4)
C40 C -0.1692(9) 0.1570(7) 0.9528(4)
H27 H -0.1477 0.0964 0.9640
C41 C -0.2655(11) 0.2138(8) 0.9796(4)
H28 H -0.3101 0.1910 1.0091
C42 C -0.2945(10) 0.3024(7) 0.9628(4)
H29 H -0.3575 0.3414 0.9806
C43 C -0.2276(9) 0.3325(6) 0.9188(4)
H30 H -0.2487 0.3926 0.9068
Cd1A Cd 0.49250(7) 0.65845(3) 1.32057(2)
O5A O 0.1744(8) 0.2989(6) 0.7361(3)
O6A O 0.1238(7) 0.4422(6) 0.7647(3)
loop_
_geom_bond_atom_site_label_1
_geom_bond_atom_site_label_2
_geom_bond_site_symmetry_1
_geom_bond_site_symmetry_2
Cd1 N1 1_555 1_555
N1 C24 1_555 1_555
N2 Cd1 1_555 1_555
N3 Cd1 1_555 1_555
N4 Cd1 1_555 1_555
O1 Cd1 1_555 1_555
O2 Cd1 1_555 1_555
O3 H1 1_555 1_555
O4 H2 1_555 1_555
O5 C12 1_555 1_555
O6 C12 1_555 1_555
C1 O1 1_555 1_555
C2 C1 1_555 1_555
C3 C2 1_555 1_555
H3 C3 1_555 1_555
C4 C3 1_555 1_555
C5 C4 1_555 1_555
H4 C5 1_555 1_555
C6 C5 1_555 1_555
H5 C6 1_555 1_555
C7 C6 1_555 1_555
H6 C7 1_555 1_555
C8 C7 1_555 1_555
H7 C8 1_555 1_555
C9 C4 1_555 1_555
C10 C9 1_555 1_555
C11 O3 1_555 1_555
C12 C13 1_555 1_555
C13 C14 1_555 1_555
C14 H8 1_555 1_555
C15 C14 1_555 1_555
C16 C15 1_555 1_555
H9 C16 1_555 1_555
C17 C16 1_555 1_555
H10 C17 1_555 1_555
C18 C17 1_555 1_555
H11 C18 1_555 1_555
C19 C18 1_555 1_555
H12 C19 1_555 1_555
C20 C15 1_555 1_555
C21 C20 1_555 1_555
C22 O4 1_555 1_555
C23 C10 1_555 1_555
H13 C23 1_555 1_555
H14 C23 1_555 1_555
C24 H15 1_555 1_555
C25 C24 1_555 1_555
H16 C25 1_555 1_555
C26 C25 1_555 1_555
H17 C26 1_555 1_555
C27 C26 1_555 1_555
H18 C27 1_555 1_555
C28 N1 1_555 1_555
C29 N2 1_555 1_555
C30 C29 1_555 1_555
H19 C30 1_555 1_555
C31 C30 1_555 1_555
H20 C31 1_555 1_555
C32 C31 1_555 1_555
H21 C32 1_555 1_555
C33 N2 1_555 1_555
H22 C33 1_555 1_555
C34 N3 1_555 1_555
H23 C34 1_555 1_555
C35 C34 1_555 1_555
H24 C35 1_555 1_555
C36 C35 1_555 1_555
H25 C36 1_555 1_555
C37 C36 1_555 1_555
H26 C37 1_555 1_555
C38 N3 1_555 1_555
C39 N4 1_555 1_555
C40 C39 1_555 1_555
H27 C40 1_555 1_555
C41 C40 1_555 1_555
H28 C41 1_555 1_555
C42 C41 1_555 1_555
H29 C42 1_555 1_555
C43 N4 1_555 1_555
H30 C43 1_555 1_555
Cd1A O5 1_555 1_555
O5A Cd1 1_555 1_555
O6A Cd1 1_555 1_555
O2 C1 1_555 1_555
O6 Cd1A 1_555 1_555
C2 C11 1_555 1_555
C8 C9 1_555 1_555
C10 C11 1_555 1_555
C13 C22 1_555 1_555
C19 C20 1_555 1_555
C21 C22 1_555 1_555
C21 C23 1_555 1_555
C27 C28 1_555 1_555
C28 C29 1_555 1_555
C32 C33 1_555 1_555
C37 C38 1_555 1_555
C38 C39 1_555 1_555
C42 C43 1_555 1_555

#END
