
#######################################################################
#
#                 Cambridge Crystallographic Data Centre
#                                CCDC 
#
#######################################################################
#
# If this CIF has been generated from an entry in the Cambridge 
# Structural Database, then it will include bibliographic, chemical, 
# crystal, experimental, refinement or atomic coordinate data resulting 
# from the CCDC's data processing and validation procedures.
#
#######################################################################

data_YOLDUZ
_symmetry_cell_setting           monoclinic
_symmetry_space_group_name_H-M   'C 2/c'
_symmetry_Int_Tables_number      15
_space_group_name_Hall           '-C 2yn'
loop_
_symmetry_equiv_pos_site_id
_symmetry_equiv_pos_as_xyz
1 x,y,z
2 1/2+x,1/2+y,z
3 -x,y,1/2-z
4 1/2-x,1/2+y,1/2-z
5 -x,-y,-z
6 1/2-x,1/2-y,-z
7 x,-y,1/2+z
8 1/2+x,1/2-y,1/2+z
_cell_length_a                   9.726(4)
_cell_length_b                   16.096(7)
_cell_length_c                   20.640(10)
_cell_angle_alpha                90
_cell_angle_beta                 92.107(5)
_cell_angle_gamma                90
_cell_volume                     3229
loop_
_atom_site_label
_atom_site_type_symbol
_atom_site_fract_x
_atom_site_fract_y
_atom_site_fract_z
Mn1 Mn 1.0000 0.25424(3) 0.2500
Cl1 Cl 0.79135(8) 0.08353(4) 0.42636(3)
Cl2 Cl 0.72867(10) 0.41553(5) 0.42169(3)
N1 N 1.0000 0.39783(19) 0.2500
N2 N 1.0000 0.10947(19) 0.2500
O1 O 0.90394(17) 0.25528(10) 0.34290(8)
O2 O 0.6762(2) 0.24240(14) 0.32280(9)
O3 O 1.20836(18) 0.26090(12) 0.29597(9)
H2 H 1.2638 0.2569 0.2652
H3 H 1.2253 0.2313 0.3294
C2 C 0.7797(3) 0.24951(14) 0.35840(11)
C3 C 0.7615(2) 0.24972(14) 0.43202(11)
C4 C 0.7701(2) 0.17624(14) 0.46754(11)
C5 C 0.7405(2) 0.32346(15) 0.46516(11)
C6 C 0.8847(3) 0.06544(18) 0.25797(15)
H4 H 0.8033 0.0943 0.2639
C7 C 0.8803(3) -0.0198(2) 0.2578(2)
H5 H 0.7974 -0.0474 0.2630
C8 C 1.0000 -0.0640(3) 0.2500
H6 H 1.0000 -0.1218 0.2500
C9 C 1.0006(3) 0.4413(2) 0.30511(14)
H7 H 1.0010 0.4124 0.3441
C10 C 1.0007(4) 0.5273(2) 0.3070(2)
H8 H 1.0012 0.5550 0.3466
C11 C 1.0000 0.5713(3) 0.2500
H9 H 1.0000 0.6291 0.2500
Mn1G Mn 0.5000 0.24576(3) 0.7500
Cl1E Cl 0.70865(8) 0.41647(4) 0.57364(3)
Cl2E Cl 0.77133(10) 0.08447(5) 0.57831(3)
O1E O 0.59606(17) 0.24472(10) 0.65710(8)
O1B O 1.09606(17) 0.25528(10) 0.15710(8)
O2E O 0.8238(2) 0.25760(14) 0.67720(9)
O3B O 0.79164(18) 0.26090(12) 0.20403(9)
H2B H 0.7362 0.2569 0.2348
H3B H 0.7747 0.2313 0.1706
C2E C 0.7203(3) 0.25049(14) 0.64160(11)
C3E C 0.7385(2) 0.25028(14) 0.56798(11)
C4E C 0.7299(2) 0.32376(14) 0.53246(11)
C5E C 0.7595(2) 0.17654(15) 0.53484(11)
C6B C 1.1153(3) 0.06544(18) 0.24203(15)
H4B H 1.1967 0.0943 0.2361
C7B C 1.1197(3) -0.0198(2) 0.2422(2)
H5B H 1.2026 -0.0474 0.2370
C9B C 0.9994(3) 0.4413(2) 0.19489(14)
H7B H 0.9990 0.4124 0.1559
C10B C 0.9993(4) 0.5273(2) 0.1930(2)
H8B H 0.9988 0.5550 0.1534
C1 C 0.3814(4) 0.1578(3) 0.5101(2)
H1 H 0.4597 0.1666 0.5364
C12 C 0.3829(4) 0.1756(2) 0.44420(19)
H10 H 0.4638 0.1952 0.4270
N3 N 0.2741(3) 0.16579(18) 0.40535(13)
C13 C 0.1618(3) 0.1350(2) 0.43093(16)
H11 H 0.0848 0.1263 0.4037
C14 C 0.1532(4) 0.1154(2) 0.49528(18)
H12 H 0.0722 0.0941 0.5112
C15 C 0.2660(5) 0.1278(2) 0.53568(18)
H13 H 0.2631 0.1158 0.5797
loop_
_geom_bond_atom_site_label_1
_geom_bond_atom_site_label_2
_geom_bond_site_symmetry_1
_geom_bond_site_symmetry_2
Mn1 N1 1_555 1_555
Cl1 C4 1_555 1_555
Cl2 C5 1_555 1_555
N1 C9 1_555 1_555
N2 Mn1 1_555 1_555
C1 H1 1_555 1_555
O1 Mn1 1_555 1_555
O2 C2 1_555 1_555
O3 Mn1 1_555 1_555
H2 O3 1_555 1_555
H3 O3 1_555 1_555
C2 O1 1_555 1_555
C3 C2 1_555 1_555
C4 C3 1_555 1_555
C5 C3 1_555 1_555
C6 N2 1_555 1_555
H4 C6 1_555 1_555
C7 C6 1_555 1_555
H5 C7 1_555 1_555
C8 C7 1_555 1_555
H6 C8 1_555 1_555
C9 H7 1_555 1_555
C10 C9 1_555 1_555
H8 C10 1_555 1_555
C11 C10 1_555 1_555
H9 C11 1_555 1_555
C12 C1 1_555 1_555
H10 C12 1_555 1_555
N3 C12 1_555 1_555
C13 N3 1_555 1_555
H11 C13 1_555 1_555
C14 C13 1_555 1_555
H12 C14 1_555 1_555
C15 C1 1_555 1_555
H13 C15 1_555 1_555
Mn1G O1E 1_555 1_555
Cl1E C4E 1_555 1_555
Cl2E C5E 1_555 1_555
O1E C2E 1_555 1_555
O1B Mn1 1_555 1_555
O2E C2E 1_555 1_555
O3B Mn1 1_555 1_555
H2B O3B 1_555 1_555
H3B O3B 1_555 1_555
C2E C3E 1_555 1_555
C3E C4E 1_555 1_555
C4E C5 1_555 1_555
C5E C4 1_555 1_555
C6B N2 1_555 1_555
H4B C6B 1_555 1_555
C7B C8 1_555 1_555
H5B C7B 1_555 1_555
C9B N1 1_555 1_555
H7B C9B 1_555 1_555
C10B C11 1_555 1_555
H8B C10B 1_555 1_555
C14 C15 1_555 1_555
C3E C5E 1_555 1_555
C6B C7B 1_555 1_555
C9B C10B 1_555 1_555

#END
