
#######################################################################
#
#                 Cambridge Crystallographic Data Centre
#                                CCDC 
#
#######################################################################
#
# If this CIF has been generated from an entry in the Cambridge 
# Structural Database, then it will include bibliographic, chemical, 
# crystal, experimental, refinement or atomic coordinate data resulting 
# from the CCDC's data processing and validation procedures.
#
#######################################################################

data_YOLDOT
_symmetry_cell_setting           orthorhombic
_symmetry_space_group_name_H-M   'P 21 21 21'
_symmetry_Int_Tables_number      19
_space_group_name_Hall           'P 2ac 2ab'
loop_
_symmetry_equiv_pos_site_id
_symmetry_equiv_pos_as_xyz
1 x,y,z
2 1/2-x,-y,1/2+z
3 1/2+x,1/2-y,-z
4 -x,1/2+y,1/2-z
_cell_length_a                   9.3082(5)
_cell_length_b                   14.1780(7)
_cell_length_c                   26.0421(13)
_cell_angle_alpha                90
_cell_angle_beta                 90
_cell_angle_gamma                90
_cell_volume                     3436.82
loop_
_atom_site_label
_atom_site_type_symbol
_atom_site_fract_x
_atom_site_fract_y
_atom_site_fract_z
Cd1 Cd -0.00761(3) -0.158200(14) -0.320410(8)
O1 O -0.3767(3) 0.0582(3) -0.76499(11)
O2 O -0.3278(4) 0.2004(3) -0.73624(13)
O3 O -0.2286(4) 0.22109(19) -0.64633(11)
H1 H -0.2741 0.2341 -0.6723
O4 O 0.0017(3) 0.06245(17) -0.46515(8)
H2 H 0.0247 0.0287 -0.4409
O5 O -0.0298(3) -0.03573(18) -0.38437(9)
O6 O -0.2295(4) -0.1153(2) -0.37408(11)
N1 N -0.0758(3) -0.31432(19) -0.34192(11)
N2 N 0.1346(3) -0.2191(2) -0.39159(12)
N3 N 0.1494(3) -0.2357(2) -0.25600(12)
N4 N 0.2084(3) -0.0641(2) -0.30041(11)
C1 C -0.3206(4) 0.1122(4) -0.73290(16)
C2 C -0.2363(4) 0.0711(3) -0.68932(13)
C3 C -0.1965(4) 0.1277(2) -0.64638(13)
C4 C -0.1264(3) 0.0903(2) -0.60439(13)
C5 C -0.0743(4) -0.0051(2) -0.60837(12)
C6 C 0.0183(4) -0.0464(2) -0.57186(13)
H3 H 0.0455 -0.0117 -0.5432
C7 C 0.0687(5) -0.1357(3) -0.57758(17)
H4 H 0.1300 -0.1604 -0.5528
C8 C 0.0308(5) -0.1917(3) -0.61990(17)
H5 H 0.0657 -0.2528 -0.6232
C9 C -0.0573(4) -0.1548(3) -0.65572(16)
H6 H -0.0843 -0.1918 -0.6836
C10 C -0.1101(4) -0.0611(3) -0.65205(14)
C11 C -0.1964(4) -0.0205(3) -0.69029(13)
H7 H -0.2274 -0.0581 -0.7174
C12 C -0.1093(4) 0.1467(2) -0.55497(13)
H8 H -0.1346 0.2120 -0.5614
H9 H -0.0096 0.1448 -0.5442
C13 C -0.2038(4) 0.1079(2) -0.51200(12)
C14 C -0.1428(4) 0.0607(2) -0.47092(13)
C15 C -0.2299(4) 0.0075(2) -0.43593(12)
C16 C -0.3749(4) 0.0109(2) -0.44011(13)
H10 H -0.4306 -0.0256 -0.4181
C17 C -0.4431(4) 0.0677(2) -0.47673(13)
C18 C -0.5941(4) 0.0781(3) -0.47841(17)
H11 H -0.6504 0.0450 -0.4550
C19 C -0.6590(4) 0.1350(3) -0.51318(17)
H12 H -0.7585 0.1407 -0.5140
C20 C -0.5727(5) 0.1852(3) -0.54795(17)
H13 H -0.6165 0.2259 -0.5712
C21 C -0.4289(4) 0.1764(3) -0.54872(15)
H14 H -0.3759 0.2096 -0.5730
C22 C -0.3565(4) 0.1172(2) -0.51316(14)
C23 C -0.1601(4) -0.0526(2) -0.39534(13)
C24 C -0.1768(4) -0.3601(3) -0.31620(15)
H15 H -0.2307 -0.3270 -0.2921
C25 C -0.2058(5) -0.4546(3) -0.32344(17)
H16 H -0.2784 -0.4843 -0.3050
C26 C -0.1255(6) -0.5033(3) -0.35822(18)
H17 H -0.1410 -0.5674 -0.3634
C27 C -0.0211(6) -0.4562(2) -0.38554(16)
H18 H 0.0352 -0.4885 -0.4092
C28 C -0.0004(5) -0.3615(2) -0.37769(12)
C29 C 0.1070(4) -0.3062(2) -0.40843(14)
C30 C 0.1689(5) -0.3427(3) -0.45242(15)
H19 H 0.1464 -0.4033 -0.4635
C31 C 0.2653(5) -0.2872(3) -0.47960(16)
H20 H 0.3100 -0.3103 -0.5090
C32 C 0.2931(5) -0.1984(3) -0.46252(16)
H21 H 0.3562 -0.1595 -0.4803
C33 C 0.2274(4) -0.1672(3) -0.41890(15)
H22 H 0.2480 -0.1065 -0.4075
C34 C 0.1071(5) -0.3071(3) -0.22632(16)
H23 H 0.0247 -0.3398 -0.2358
C35 C 0.1771(5) -0.3353(3) -0.18282(17)
H24 H 0.1426 -0.3852 -0.1632
C36 C 0.2991(5) -0.2882(3) -0.16892(17)
H25 H 0.3483 -0.3049 -0.1392
C37 C 0.3487(4) -0.2153(3) -0.19970(16)
H26 H 0.4329 -0.1833 -0.1915
C38 C 0.2699(4) -0.1910(2) -0.24320(14)
C39 C 0.3142(4) -0.1106(3) -0.27631(13)
C40 C 0.4566(4) -0.0827(3) -0.28023(16)
H27 H 0.5292 -0.1185 -0.2654
C41 C 0.4889(5) -0.0013(3) -0.30642(16)
H28 H 0.5837 0.0185 -0.3099
C42 C 0.3787(5) 0.0503(3) -0.32735(17)
H29 H 0.3970 0.1078 -0.3433
C43 C 0.2422(4) 0.0161(3) -0.32435(15)
H30 H 0.1687 0.0504 -0.3398
Cd1A Cd -0.49239(3) 0.158200(14) -0.820410(8)
O1A O -0.1233(3) -0.0582(3) -0.26499(11)
O2A O -0.1722(4) -0.2004(3) -0.23624(13)
loop_
_geom_bond_atom_site_label_1
_geom_bond_atom_site_label_2
_geom_bond_site_symmetry_1
_geom_bond_site_symmetry_2
Cd1 O5 1_555 1_555
O1 C1 1_555 1_555
O2 C1 1_555 1_555
O3 H1 1_555 1_555
O4 H2 1_555 1_555
O5 C23 1_555 1_555
O6 Cd1 1_555 1_555
N1 Cd1 1_555 1_555
N2 Cd1 1_555 1_555
N3 Cd1 1_555 1_555
N4 Cd1 1_555 1_555
C1 C2 1_555 1_555
C2 C3 1_555 1_555
C3 O3 1_555 1_555
C4 C3 1_555 1_555
C5 C4 1_555 1_555
C6 C5 1_555 1_555
H3 C6 1_555 1_555
C7 C6 1_555 1_555
H4 C7 1_555 1_555
C8 C7 1_555 1_555
H5 C8 1_555 1_555
C9 C8 1_555 1_555
H6 C9 1_555 1_555
C10 C5 1_555 1_555
C11 C2 1_555 1_555
H7 C11 1_555 1_555
C12 C4 1_555 1_555
H8 C12 1_555 1_555
H9 C12 1_555 1_555
C13 C12 1_555 1_555
C14 O4 1_555 1_555
C15 C14 1_555 1_555
C16 C15 1_555 1_555
H10 C16 1_555 1_555
C17 C16 1_555 1_555
C18 C17 1_555 1_555
H11 C18 1_555 1_555
C19 C18 1_555 1_555
H12 C19 1_555 1_555
C20 C19 1_555 1_555
H13 C20 1_555 1_555
C21 C20 1_555 1_555
H14 C21 1_555 1_555
C22 C13 1_555 1_555
C23 O6 1_555 1_555
C24 N1 1_555 1_555
H15 C24 1_555 1_555
C25 C24 1_555 1_555
H16 C25 1_555 1_555
C26 C25 1_555 1_555
H17 C26 1_555 1_555
C27 C26 1_555 1_555
H18 C27 1_555 1_555
C28 N1 1_555 1_555
C29 N2 1_555 1_555
C30 C29 1_555 1_555
H19 C30 1_555 1_555
C31 C30 1_555 1_555
H20 C31 1_555 1_555
C32 C31 1_555 1_555
H21 C32 1_555 1_555
C33 N2 1_555 1_555
H22 C33 1_555 1_555
C34 N3 1_555 1_555
H23 C34 1_555 1_555
C35 C34 1_555 1_555
H24 C35 1_555 1_555
C36 C35 1_555 1_555
H25 C36 1_555 1_555
C37 C36 1_555 1_555
H26 C37 1_555 1_555
C38 N3 1_555 1_555
C39 N4 1_555 1_555
C40 C39 1_555 1_555
H27 C40 1_555 1_555
C41 C40 1_555 1_555
H28 C41 1_555 1_555
C42 C41 1_555 1_555
H29 C42 1_555 1_555
C43 N4 1_555 1_555
H30 C43 1_555 1_555
Cd1A O1 1_555 1_555
O1A Cd1 1_555 1_555
O2A Cd1 1_555 1_555
O2 Cd1A 1_555 1_555
C9 C10 1_555 1_555
C10 C11 1_555 1_555
C13 C14 1_555 1_555
C15 C23 1_555 1_555
C17 C22 1_555 1_555
C21 C22 1_555 1_555
C27 C28 1_555 1_555
C28 C29 1_555 1_555
C32 C33 1_555 1_555
C37 C38 1_555 1_555
C38 C39 1_555 1_555
C42 C43 1_555 1_555

#END
