
#######################################################################
#
#                 Cambridge Crystallographic Data Centre
#                                CCDC 
#
#######################################################################
#
# If this CIF has been generated from an entry in the Cambridge 
# Structural Database, then it will include bibliographic, chemical, 
# crystal, experimental, refinement or atomic coordinate data resulting 
# from the CCDC's data processing and validation procedures.
#
#######################################################################

data_YOLFAH
_symmetry_cell_setting           orthorhombic
_symmetry_space_group_name_H-M   'C m c m'
_symmetry_Int_Tables_number      63
_space_group_name_Hall           '-C 2n 2'
loop_
_symmetry_equiv_pos_site_id
_symmetry_equiv_pos_as_xyz
1 x,y,z
2 1/2+x,1/2+y,z
3 -x,-y,1/2+z
4 -x,y,1/2-z
5 x,-y,-z
6 1/2-x,1/2-y,1/2+z
7 1/2-x,1/2+y,1/2-z
8 1/2+x,1/2-y,-z
9 -x,-y,-z
10 1/2-x,1/2-y,-z
11 x,y,1/2-z
12 x,-y,1/2+z
13 -x,y,z
14 1/2+x,1/2+y,1/2-z
15 1/2+x,1/2-y,1/2+z
16 1/2-x,1/2+y,z
_cell_length_a                   13.8957(11)
_cell_length_b                   15.0403(11)
_cell_length_c                   18.9997(14)
_cell_angle_alpha                90
_cell_angle_beta                 90
_cell_angle_gamma                90
_cell_volume                     3970.85
loop_
_atom_site_label
_atom_site_type_symbol
_atom_site_fract_x
_atom_site_fract_y
_atom_site_fract_z
C13 C 0.2670(3) 0.0000 -0.5000
O6 O 0.2515(3) 0.0121(3) -0.5742(2)
H12 H 0.254(5) 0.074(5) -0.585(4)
O6D O 0.2515(3) -0.0121(3) -0.4258(2)
H12D H 0.254(5) -0.074(5) -0.415(4)
C1 C 0.0000 -0.0876(3) -0.1367(2)
C2 C 0.0000 -0.0416(3) -0.0663(2)
C3 C 0.0000 -0.0907(3) -0.0045(2)
C4 C 0.0000 -0.0508(3) 0.0608(2)
C5 C 0.0000 -0.3199(4) -0.2500
C6 C 0.0000 -0.4209(4) -0.2500
C7 C 0.0000 -0.4686(3) -0.1875(3)
C8 C 0.0000 -0.5606(3) -0.1872(2)
C9 C 0.0000 -0.6088(4) -0.2500
C10 C 0.0000 -0.7092(4) -0.2500
C11 C 0.2443(2) 0.2581(2) 0.10949(16)
H1 H 0.2708 0.3167 0.1142
H2 H 0.2754 0.2279 0.0712
H3 H 0.1765 0.2622 0.1003
C12 C 0.2261(3) -0.0508(3) 0.2500
Cl1 Cl 0.0000 0.20640(7) 0.01098(6)
Cl2 Cl 0.0000 0.11320(7) -0.13728(5)
Cl3 Cl 0.0000 -0.40992(7) -0.39115(6)
Cl4 Cl 0.0000 -0.61985(7) -0.39062(6)
Mn1 Mn -0.15219(4) -0.16042(4) -0.2500
O1 O -0.08064(14) -0.10363(14) -0.16251(11)
O2 O 0.0803(2) -0.2841(2) -0.2500
O3 O -0.0799(2) -0.7465(2) -0.2500
O4 O 0.25961(15) 0.20978(16) 0.17293(11)
H10 H 0.298(3) 0.241(2) 0.1968(19)
O5 O 0.2497(3) 0.0419(2) 0.2500
C1H C 0.0000 0.0876(3) 0.1367(2)
C2H C 0.0000 0.0416(3) 0.0663(2)
C3H C 0.0000 0.0907(3) 0.0045(2)
C4H C 0.0000 0.0508(3) -0.0608(2)
C7J C 0.0000 -0.4686(3) -0.3125(3)
C8J C 0.0000 -0.5606(3) -0.3128(2)
C11J C 0.2443(2) 0.2581(2) 0.39051(16)
C11B C -0.2443(2) -0.2581(2) -0.39051(16)
C11H C -0.2443(2) -0.2581(2) -0.10949(16)
H1J H 0.2708 0.3167 0.3858
H1B H -0.2708 -0.3167 -0.3858
H1H H -0.2708 -0.3167 -0.1142
H2J H 0.2754 0.2279 0.4288
H2B H -0.2754 -0.2279 -0.4288
H2H H -0.2754 -0.2279 -0.0712
H3J H 0.1765 0.2622 0.3997
H3B H -0.1765 -0.2622 -0.3997
H3H H -0.1765 -0.2622 -0.1003
C12H C -0.2261(3) 0.0508(3) -0.2500
Cl1H Cl 0.0000 -0.20640(7) -0.01098(6)
Cl2H Cl 0.0000 -0.11320(7) 0.13728(5)
Cl3J Cl 0.0000 -0.40992(7) -0.10885(6)
Cl4J Cl 0.0000 -0.61985(7) -0.10938(6)
Mn1H Mn 0.15219(4) 0.16042(4) 0.2500
Mn1K Mn -0.15219(4) 0.16042(4) 0.2500
Mn1L Mn 0.15219(4) -0.16042(4) -0.2500
O1J O -0.08064(14) -0.10363(14) -0.33749(11)
O1H O 0.08064(14) 0.10363(14) 0.16251(11)
O1B O 0.08064(14) 0.10363(14) 0.33749(11)
O1D O -0.08064(14) 0.10363(14) 0.16251(11)
O1L O 0.08064(14) -0.10363(14) -0.16251(11)
O2K O 0.0803(2) 0.2841(2) 0.2500
O2L O -0.0803(2) -0.2841(2) -0.2500
O3L O 0.0799(2) -0.7465(2) -0.2500
O4J O 0.25961(15) 0.20978(16) 0.32707(11)
O4B O -0.25961(15) -0.20978(16) -0.32707(11)
O4H O -0.25961(15) -0.20978(16) -0.17293(11)
H10J H 0.298(3) 0.241(2) 0.3032(19)
H10B H -0.298(3) -0.241(2) -0.3032(19)
H10H H -0.298(3) -0.241(2) -0.1968(19)
O5H O -0.2497(3) -0.0419(2) -0.2500
H4? H 0.2140 -0.0701 -0.7026
H5? H 0.2787 -0.0842 -0.7693
H6? H 0.1695 -0.0604 -0.7781
H7? H 0.3321 -0.0187 -0.4919
H8? H 0.2556 0.0552 -0.4761
H9? H 0.2236 -0.0444 -0.4825
H11? H 0.232(5) 0.062(5) -0.790(4)
loop_
_geom_bond_atom_site_label_1
_geom_bond_atom_site_label_2
_geom_bond_site_symmetry_1
_geom_bond_site_symmetry_2
C1 C2 1_555 1_555
C2 C3 1_555 1_555
C3 C4 1_555 1_555
C4 C2H 1_555 1_555
C5 C6 1_555 1_555
C6 C7 1_555 1_555
C7 C8 1_555 1_555
C8 C9 1_555 1_555
C9 C10 1_555 1_555
C10 O3 1_555 1_555
C11 H1 1_555 1_555
H2 C11 1_555 1_555
H3 C11 1_555 1_555
C12 O5 1_555 1_555
C13 O6 1_555 1_555
Cl1 C3H 1_555 1_555
Cl2 C4H 1_555 1_555
Cl3 C7J 1_555 1_555
Cl4 C8J 1_555 1_555
Mn1 O1 1_555 1_555
O1 C1 1_555 1_555
O2 C5 1_555 1_555
O4 C11 1_555 1_555
H10 O4 1_555 1_555
O5 Mn1H 1_555 1_555
O6 H12 1_555 1_555
C1H C2H 1_555 1_555
C2H C3H 1_555 1_555
C3H C4H 1_555 1_555
C4H C2 1_555 1_555
C7J C6 1_555 1_555
C8J C9 1_555 1_555
C11J H1J 1_555 1_555
C11B H1B 1_555 1_555
C11H H1H 1_555 1_555
H2J C11J 1_555 1_555
H2B C11B 1_555 1_555
H2H C11H 1_555 1_555
H3J C11J 1_555 1_555
H3B C11B 1_555 1_555
H3H C11H 1_555 1_555
C12H O5H 1_555 1_555
Cl1H C3 1_555 1_555
Cl2H C4 1_555 1_555
Cl3J C7 1_555 1_555
Cl4J C8 1_555 1_555
Mn1H O4 1_555 1_555
Mn1K O1D 1_555 1_555
Mn1L O2 1_555 1_555
O1J Mn1 1_555 1_555
O1H C1H 1_555 1_555
O1B Mn1H 1_555 1_555
O1D C1H 1_555 1_555
O1L C1 1_555 1_555
O2K Mn1H 1_555 1_555
O2L C5 1_555 1_555
O3L C10 1_555 1_555
O4J C11J 1_555 1_555
O4B Mn1 1_555 1_555
O4H Mn1 1_555 1_555
H10J O4J 1_555 1_555
H10B O4B 1_555 1_555
H10H O4H 1_555 1_555
O5H Mn1 1_555 1_555
O6D C13 1_555 1_555
H12D O6D 1_555 1_555
Mn1 O2L 1_555 1_555
C7J C8J 1_555 1_555
C11B O4B 1_555 1_555
C11H O4H 1_555 1_555
Mn1H O1H 1_555 1_555
Mn1H O4J 1_555 1_555
Mn1L O1L 1_555 1_555

#END
