
#######################################################################
#
#                 Cambridge Crystallographic Data Centre
#                                CCDC 
#
#######################################################################
#
# If this CIF has been generated from an entry in the Cambridge 
# Structural Database, then it will include bibliographic, chemical, 
# crystal, experimental, refinement or atomic coordinate data resulting 
# from the CCDC's data processing and validation procedures.
#
#######################################################################

data_YOLFEL
_symmetry_cell_setting           triclinic
_symmetry_space_group_name_H-M   'P -1'
_symmetry_Int_Tables_number      2
_space_group_name_Hall           '-P 1'
loop_
_symmetry_equiv_pos_site_id
_symmetry_equiv_pos_as_xyz
1 x,y,z
2 -x,-y,-z
_cell_length_a                   7.5474(10)
_cell_length_b                   7.7557(10)
_cell_length_c                   10.2307(13)
_cell_angle_alpha                77.7220(10)
_cell_angle_beta                 77.7310(10)
_cell_angle_gamma                72.1660(10)
_cell_volume                     550.006
loop_
_atom_site_label
_atom_site_type_symbol
_atom_site_fract_x
_atom_site_fract_y
_atom_site_fract_z
C1 C 0.6646(4) 0.4229(4) 0.0566(3)
H1 H 0.7770 0.3225 0.0688
H2 H 0.6667 0.5193 0.1025
C2 C 0.6649(4) 0.4947(4) -0.0921(3)
H3 H 0.6722 0.3958 -0.1390
H4 H 0.7752 0.5391 -0.1289
O1 O 0.5010(3) 0.3600(2) 0.11512(18)
C1A C 0.3354(4) 0.5771(4) -0.0566(3)
H1A H 0.2230 0.6775 -0.0688
H2A H 0.3333 0.4807 -0.1025
C2A C 0.3351(4) 0.5053(4) 0.0921(3)
H3A H 0.3278 0.6042 0.1390
H4A H 0.2248 0.4609 0.1289
O1A O 0.4990(3) 0.6400(2) -0.11512(18)
C3 C 0.6613(3) 0.9021(3) 0.0542(2)
C4 C 0.6720(3) 0.9680(3) -0.0846(2)
C5 C 0.4891(3) 0.9323(3) 0.1401(2)
C6 C 0.4775(3) 0.8552(3) 0.2908(2)
C7 C 0.1434(3) 0.3394(3) 0.4812(3)
H5 H 0.2269 0.2274 0.5210
H6 H 0.1649 0.3411 0.3841
C8 C 0.0546(4) 0.6613(4) 0.4639(4)
H7 H 0.0706 0.6824 0.3657
H8 H 0.0805 0.7620 0.4917
Cl1 Cl 0.86329(8) 0.78052(10) 0.12201(6)
Cl2 Cl 0.88739(8) 0.92449(10) -0.19111(6)
Mn1 Mn 0.5000 0.5000 0.5000
O2 O 0.4689(3) 0.9568(2) 0.37022(17)
O3 O 0.4767(2) 0.6883(2) 0.31897(15)
O4 O 0.4014(3) 0.7252(2) 0.61669(17)
H9 H 0.4192 0.8190 0.5681
O5 O 0.1881(2) 0.4937(2) 0.50795(18)
H10 H 0.441(5) 0.714(5) 0.688(2)
C3A C 0.3387(3) 1.0979(3) -0.0542(2)
C4A C 0.3280(3) 1.0320(3) 0.0846(2)
C5A C 0.5109(3) 1.0677(3) -0.1401(2)
C6A C 0.5225(3) 1.1448(3) -0.2908(2)
C7A C -0.1434(3) 0.6606(3) 0.5188(3)
H5A H -0.2269 0.7726 0.4790
H6A H -0.1649 0.6589 0.6159
C8A C -0.0546(4) 0.3387(4) 0.5361(4)
H7A H -0.0706 0.3176 0.6343
H8A H -0.0805 0.2380 0.5083
Cl1A Cl 0.13671(8) 1.21948(10) -0.12201(6)
Cl2A Cl 0.11261(8) 1.07551(10) 0.19111(6)
Mn1_2 Mn -0.5000 0.5000 0.5000
Mn1_3 Mn 0.5000 1.5000 -0.5000
O2A O 0.5311(3) 1.0432(2) -0.37022(17)
O3A O 0.5233(2) 0.3117(2) 0.68103(15)
O3A_2 O 0.5233(2) 1.3117(2) -0.31897(15)
O4A O 0.5986(3) 0.2748(2) 0.38331(17)
H9A H 0.5808 0.1810 0.4319
O5A O -0.1881(2) 0.5063(2) 0.49205(18)
O5A_2 O 0.8119(2) 0.5063(2) 0.49205(18)
H10A H 0.559(5) 0.286(5) 0.312(2)
loop_
_geom_bond_atom_site_label_1
_geom_bond_atom_site_label_2
_geom_bond_site_symmetry_1
_geom_bond_site_symmetry_2
C1 H1 1_555 1_555
H2 C1 1_555 1_555
C2 C1 1_555 1_555
H3 C2 1_555 1_555
H4 C2 1_555 1_555
C3 C4 1_555 1_555
C4 Cl2 1_555 1_555
C5 C3 1_555 1_555
C6 C5 1_555 1_555
C7 H5 1_555 1_555
H6 C7 1_555 1_555
C8 H7 1_555 1_555
H8 C8 1_555 1_555
Cl1 C3 1_555 1_555
Mn1 O3 1_555 1_555
O1 C1 1_555 1_555
O2 C6 1_555 1_555
O3 C6 1_555 1_555
O4 Mn1 1_555 1_555
H9 O4 1_555 1_555
O5 C7 1_555 1_555
H10 O4 1_555 1_555
C1A H1A 1_555 1_555
H2A C1A 1_555 1_555
C2A O1 1_555 1_555
H3A C2A 1_555 1_555
H4A C2A 1_555 1_555
C3A C4A 1_555 1_555
C4A C5 1_555 1_555
C5A C4 1_555 1_555
C6A C5A 1_555 1_555
C7A C8 1_555 1_555
H5A C7A 1_555 1_555
H6A C7A 1_555 1_555
C8A C7 1_555 1_555
H7A C8A 1_555 1_555
H8A C8A 1_555 1_555
Cl1A C3A 1_555 1_555
Cl2A C4A 1_555 1_555
Mn1_2 O5A 1_555 1_555
Mn1_3 O3A_2 1_555 1_555
O1A C2 1_555 1_555
O2A C6A 1_555 1_555
O3A Mn1 1_555 1_555
O3A_2 C6A 1_555 1_555
O4A Mn1 1_555 1_555
H9A O4A 1_555 1_555
O5A C7A 1_555 1_555
O5A_2 Mn1 1_555 1_555
H10A O4A 1_555 1_555
C8 O5 1_555 1_555
Mn1 O5 1_555 1_555
C1A C2A 1_555 1_555
C1A O1A 1_555 1_555
C3A C5A 1_555 1_555
C8A O5A 1_555 1_555

#END
