
#######################################################################
#
#                 Cambridge Crystallographic Data Centre
#                                CCDC 
#
#######################################################################
#
# If this CIF has been generated from an entry in the Cambridge 
# Structural Database, then it will include bibliographic, chemical, 
# crystal, experimental, refinement or atomic coordinate data resulting 
# from the CCDC's data processing and validation procedures.
#
#######################################################################

data_YOLFOU
_symmetry_cell_setting           triclinic
_symmetry_space_group_name_H-M   'P -1'
_symmetry_Int_Tables_number      2
_space_group_name_Hall           '-P 1'
loop_
_symmetry_equiv_pos_site_id
_symmetry_equiv_pos_as_xyz
1 x,y,z
2 -x,-y,-z
_cell_length_a                   7.752(1)
_cell_length_b                   10.445(2)
_cell_length_c                   7.420(1)
_cell_angle_alpha                99.24(1)
_cell_angle_beta                 113.20(1)
_cell_angle_gamma                109.87(1)
_cell_volume                     488.274
loop_
_atom_site_label
_atom_site_type_symbol
_atom_site_fract_x
_atom_site_fract_y
_atom_site_fract_z
Ba1 Ba 0.83854(2) 0.52919(2) 0.19652(2)
Cu1 Cu 1.00000 1.00000 0.00000
O1 O 1.1498(4) 1.1394(3) 0.2838(4)
O2 O 0.8331(4) 0.7971(3) 0.1125(4)
O3 O 1.1603(4) 0.6725(3) 0.1101(4)
O4 O 1.2208(3) 0.9382(2) 0.0624(4)
O5 O 1.5682(4) 1.2560(3) 0.1412(4)
O6 O 1.9302(4) 1.2003(3) 0.4791(4)
O7 O 1.5797(4) 0.8812(3) 0.3845(4)
O8 O 0.4750(3) 0.5366(3) 0.1962(3)
O9 O 0.8202(3) 0.5073(3) 0.5748(4)
C1 C 1.4176(4) 1.0141(3) 0.1766(4)
C2 C 1.5721(4) 1.1561(3) 0.2128(5)
C3 C 1.7371(4) 1.1304(3) 0.3645(5)
C4 C 1.5791(5) 0.9857(3) 0.3226(5)
C5 C 0.4853(4) 0.5159(3) 0.3619(4)
C6 C 0.6456(4) 0.5036(3) 0.5366(4)
C5A C 0.5147(4) 0.4841(3) 0.6381(4)
O8A O 0.5250(3) 0.4634(3) 0.8038(3)
C6A C 0.3544(4) 0.4964(3) 0.4634(4)
O9A O 0.1798(3) 0.4927(3) 0.4252(4)
O1A O 0.8502(4) 0.8606(3) -0.2838(4)
O2A O 1.1669(4) 1.2029(3) -0.1125(4)
O4A O 0.7792(3) 1.0618(2) -0.0624(4)
O5A O 0.4318(4) 0.7440(3) -0.1412(4)
O6A O 0.0698(4) 0.7997(3) -0.4791(4)
O7A O 0.4203(4) 1.1188(3) -0.3845(4)
C1A C 0.5824(4) 0.9859(3) -0.1766(4)
C2A C 0.4279(4) 0.8439(3) -0.2128(5)
C3A C 0.2629(4) 0.8696(3) -0.3645(5)
C4A C 0.4209(5) 1.0143(3) -0.3226(5)
Ba1A Ba 1.16146(2) 1.47081(2) -0.19652(2)
O3A O 0.8397(4) 0.3275(3) -0.1101(4)
O5_2 O 0.5682(4) 0.2560(3) 0.1412(4)
O6A_2 O 1.0698(4) 0.7997(3) 0.5209(4)
O8A_2 O 0.5250(3) 0.4634(3) -0.1962(3)
O9A_2 O 1.1798(3) 0.4927(3) 0.4252(4)
Ba1A_2 Ba 1.16146(2) 0.47081(2) -0.19652(2)
Ba1_2 Ba 1.83854(2) 1.52919(2) 0.19652(2)
Ba1A_3 Ba 2.16146(2) 1.47081(2) 0.80348(2)
Ba1A_4 Ba 0.16146(2) 0.47081(2) -0.19652(2)
Ba1A_5 Ba 1.16146(2) 0.47081(2) 0.80348(2)
Ba1_3 Ba 0.83854(2) 0.52919(2) 1.19652(2)
Ba1A_6 Ba 0.16146(2) 0.47081(2) 0.80348(2)
Ba1_4 Ba -0.16146(2) 0.52919(2) 0.19652(2)
Ba1_5 Ba -0.16146(2) 0.52919(2) -0.80348(2)
O3_2 O 1.1603(4) 1.6725(3) 0.1101(4)
O3A_2 O 0.8397(4) 1.3275(3) -0.1101(4)
O5A_2 O 1.4318(4) 1.7440(3) -0.1412(4)
O6_2 O 0.9302(4) 1.2003(3) -0.5209(4)
O8_2 O 1.4750(3) 1.5366(3) 0.1962(3)
O8A_3 O 1.5250(3) 1.4634(3) -0.1962(3)
O9_2 O 0.8202(3) 1.5073(3) -0.4252(4)
O9A_3 O 1.1798(3) 1.4927(3) -0.5748(4)
loop_
_geom_bond_atom_site_label_1
_geom_bond_atom_site_label_2
_geom_bond_site_symmetry_1
_geom_bond_site_symmetry_2
Ba1 O2 1_555 1_555
Cu1 O1 1_555 1_555
O2 Cu1 1_555 1_555
O3 Ba1 1_555 1_555
O4 Cu1 1_555 1_555
O5 C2 1_555 1_555
O6 C3 1_555 1_555
O7 C4 1_555 1_555
O8 Ba1 1_555 1_555
O9 Ba1 1_555 1_555
C1 O4 1_555 1_555
C2 C1 1_555 1_555
C3 C2 1_555 1_555
C4 C1 1_555 1_555
C5 O8 1_555 1_555
C6 O9 1_555 1_555
C5A C6 1_555 1_555
O8A C5A 1_555 1_555
C6A C5 1_555 1_555
O9A C6A 1_555 1_555
O1A Cu1 1_555 1_555
O2A Cu1 1_555 1_555
O4A Cu1 1_555 1_555
O5A C2A 1_555 1_555
O6A C3A 1_555 1_555
O7A C4A 1_555 1_555
C1A O4A 1_555 1_555
C2A C1A 1_555 1_555
C3A C2A 1_555 1_555
C4A C1A 1_555 1_555
Ba1A O2A 1_555 1_555
O3A Ba1 1_555 1_555
O5_2 Ba1 1_555 1_555
O6A_2 Ba1 1_555 1_555
O8A_2 Ba1 1_555 1_555
O9A_2 Ba1 1_555 1_555
Ba1A_2 O3 1_555 1_555
Ba1_2 O5 1_555 1_555
Ba1A_3 O6 1_555 1_555
Ba1A_4 O8 1_555 1_555
Ba1A_5 O9 1_555 1_555
Ba1_3 O8A 1_555 1_555
Ba1A_6 O8A 1_555 1_555
Ba1_4 O9A 1_555 1_555
Ba1_5 O6A 1_555 1_555
O3_2 Ba1A 1_555 1_555
O3A_2 Ba1A 1_555 1_555
O5A_2 Ba1A 1_555 1_555
O6_2 Ba1A 1_555 1_555
O8_2 Ba1A 1_555 1_555
O8A_3 Ba1A 1_555 1_555
O9_2 Ba1A 1_555 1_555
O9A_3 Ba1A 1_555 1_555
C3 C4 1_555 1_555
C5 C6 1_555 1_555
C5A C6A 1_555 1_555
O9A Ba1A_6 1_555 1_555
O5A Ba1A_4 1_555 1_555
C3A C4A 1_555 1_555
O3A Ba1A_2 1_555 1_555
O8A_2 Ba1A_4 1_555 1_555
O9A_2 Ba1A_5 1_555 1_555
Ba1_2 O8_2 1_555 1_555
Ba1_2 O8A_3 1_555 1_555

#END
