
#######################################################################
#
#                 Cambridge Crystallographic Data Centre
#                                CCDC 
#
#######################################################################
#
# If this CIF has been generated from an entry in the Cambridge 
# Structural Database, then it will include bibliographic, chemical, 
# crystal, experimental, refinement or atomic coordinate data resulting 
# from the CCDC's data processing and validation procedures.
#
#######################################################################

data_YOLKUH
_symmetry_cell_setting           orthorhombic
_symmetry_space_group_name_H-M   'P 21 21 21'
_symmetry_Int_Tables_number      19
_space_group_name_Hall           'P 2ac 2ab'
loop_
_symmetry_equiv_pos_site_id
_symmetry_equiv_pos_as_xyz
1 x,y,z
2 1/2-x,-y,1/2+z
3 -x,1/2+y,1/2-z
4 1/2+x,1/2-y,-z
_cell_length_a                   7.1441(13)
_cell_length_b                   24.854(4)
_cell_length_c                   28.859(5)
_cell_angle_alpha                90
_cell_angle_beta                 90
_cell_angle_gamma                90
_cell_volume                     5124.19
loop_
_atom_site_label
_atom_site_type_symbol
_atom_site_fract_x
_atom_site_fract_y
_atom_site_fract_z
C1 C 0.3288(10) 0.4708(2) 0.7976(3)
C2 C 0.2162(9) 0.4181(3) 0.7986(2)
C3 C 0.0536(10) 0.4132(3) 0.8248(3)
H1 H 0.0186 0.4410 0.8446
C4 C -0.0575(11) 0.3673(3) 0.8219(3)
H2 H -0.1668 0.3649 0.8393
C5 C -0.0054(9) 0.3251(3) 0.7930(3)
C6 C 0.1599(10) 0.3301(2) 0.7688(2)
H3 H 0.1990 0.3017 0.7501
C7 C 0.2693(9) 0.3757(2) 0.7713(2)
H4 H 0.3798 0.3776 0.7544
C8 C -0.1256(10) 0.2771(3) 0.7878(3)
C9 C -0.3209(11) 0.2806(3) 0.7971(3)
H5 H -0.3714 0.3130 0.8072
C10 C -0.4354(11) 0.2369(3) 0.7914(3)
H6 H -0.5624 0.2400 0.7980
C11 C -0.3632(9) 0.1866(3) 0.7754(3)
C12 C -0.1765(11) 0.1848(3) 0.7666(3)
H7 H -0.1253 0.1530 0.7552
C13 C -0.0585(11) 0.2287(3) 0.7737(3)
H8 H 0.0693 0.2247 0.7687
C14 C -0.4888(12) 0.1411(3) 0.7700(3)
C15 C 0.9238(10) 0.5475(3) 0.7065(2)
H9 H 0.9064 0.5844 0.7099
C16 C 1.0874(10) 0.5296(2) 0.6842(2)
H10 H 1.1765 0.5539 0.6736
C17 C 1.1128(8) 0.4741(2) 0.6785(2)
C18 C 0.9728(9) 0.4403(2) 0.6958(2)
H11 H 0.9846 0.4033 0.6924
C19 C 0.8195(10) 0.4608(3) 0.7176(2)
H12 H 0.7296 0.4375 0.7293
C20 C 1.2817(9) 0.4535(2) 0.6544(2)
C21 C 1.3344(9) 0.4004(2) 0.6495(2)
H13 H 1.2697 0.3720 0.6630
C22 C 1.4979(8) 0.3932(2) 0.6216(2)
C23 C 1.5678(10) 0.4417(2) 0.6069(2)
C24 C 1.7382(10) 0.4509(3) 0.5786(3)
H14 H 1.8413 0.4594 0.5987
H15 H 1.7169 0.4802 0.5576
H16 H 1.7668 0.4189 0.5613
C25 C 1.5696(9) 0.3419(2) 0.6089(2)
C26 C 1.6309(12) 0.3011(3) 0.6455(3)
C27 C 1.7304(12) 0.2551(3) 0.6190(3)
C28 C 1.6765(9) 0.2644(2) 0.5688(2)
C29 C 1.5908(8) 0.3206(2) 0.5661(2)
C30 C 1.5326(8) 0.3431(2) 0.5225(2)
C31 C 1.6497(9) 0.3523(2) 0.4836(2)
H17 H 1.7749 0.3421 0.4830
C32 C 1.5671(9) 0.3766(2) 0.4479(2)
C33 C 1.3512(8) 0.3620(3) 0.5144(2)
C34 C 1.1806(9) 0.3561(4) 0.5447(2)
H18 H 1.0734 0.3484 0.5257
H19 H 1.1600 0.3889 0.5615
H20 H 1.1997 0.3271 0.5662
C35 C 1.6431(7) 0.3922(2) 0.4039(2)
C36 C 1.8284(9) 0.3843(3) 0.3915(3)
H21 H 1.9058 0.3651 0.4115
C37 C 1.9003(9) 0.4033(3) 0.3519(3)
H22 H 2.0272 0.3980 0.3464
C38 C 1.6196(9) 0.4380(3) 0.3302(2)
H23 H 1.5458 0.4570 0.3093
C39 C 1.5381(9) 0.4199(3) 0.3702(3)
H24 H 1.4113 0.4260 0.3752
F1 F 1.7327(9) 0.3225(2) 0.67838(19)
F2 F 1.4797(8) 0.2805(2) 0.66794(19)
F3 F 1.9230(8) 0.2667(3) 0.62280(19)
F4 F 1.7138(10) 0.20902(18) 0.63540(16)
F5 F 1.8239(6) 0.25885(15) 0.54089(14)
F6 F 1.5505(7) 0.22688(15) 0.55492(16)
N1 N 0.7950(7) 0.51537(18) 0.72243(17)
N2 N 1.7991(7) 0.42976(19) 0.3194(2)
O1 O 0.4582(6) 0.47221(15) 0.76839(16)
O2 O 0.2835(7) 0.5058(2) 0.8247(2)
O3 O -0.4093(7) 0.09659(18) 0.75887(19)
O4 O -0.6639(9) 0.1458(2) 0.7727(3)
S1 S 1.4370(3) 0.49403(6) 0.62621(6)
S2 S 1.3325(2) 0.38825(8) 0.46009(6)
Zn1 Zn 0.57664(10) 0.54191(3) 0.76148(3)
N2A N 0.7009(7) 0.57024(19) 0.8194(2)
O3B O 0.4093(7) 0.59659(18) 0.74113(19)
Zn1A Zn 1.92336(10) 0.45809(3) 0.26148(3)
Zn1B Zn -0.57664(10) 0.04191(3) 0.73852(3)
loop_
_geom_bond_atom_site_label_1
_geom_bond_atom_site_label_2
_geom_bond_site_symmetry_1
_geom_bond_site_symmetry_2
C1 C2 1_555 1_555
C2 C3 1_555 1_555
C3 H1 1_555 1_555
C4 C3 1_555 1_555
H2 C4 1_555 1_555
C5 C4 1_555 1_555
C6 C5 1_555 1_555
H3 C6 1_555 1_555
C7 C2 1_555 1_555
H4 C7 1_555 1_555
C8 C5 1_555 1_555
C9 C8 1_555 1_555
H5 C9 1_555 1_555
C10 C9 1_555 1_555
H6 C10 1_555 1_555
C11 C10 1_555 1_555
C12 C11 1_555 1_555
H7 C12 1_555 1_555
C13 C8 1_555 1_555
H8 C13 1_555 1_555
C14 C11 1_555 1_555
C15 H9 1_555 1_555
C16 C15 1_555 1_555
H10 C16 1_555 1_555
C17 C16 1_555 1_555
C18 C17 1_555 1_555
H11 C18 1_555 1_555
C19 C18 1_555 1_555
H12 C19 1_555 1_555
C20 C17 1_555 1_555
C21 C20 1_555 1_555
H13 C21 1_555 1_555
C22 C21 1_555 1_555
C23 C22 1_555 1_555
C24 C23 1_555 1_555
H14 C24 1_555 1_555
H15 C24 1_555 1_555
H16 C24 1_555 1_555
C25 C22 1_555 1_555
C26 C25 1_555 1_555
C27 C26 1_555 1_555
C28 C27 1_555 1_555
C29 C25 1_555 1_555
C30 C29 1_555 1_555
C31 C30 1_555 1_555
H17 C31 1_555 1_555
C32 C31 1_555 1_555
C33 C30 1_555 1_555
C34 C33 1_555 1_555
H18 C34 1_555 1_555
H19 C34 1_555 1_555
H20 C34 1_555 1_555
C35 C32 1_555 1_555
C36 C35 1_555 1_555
H21 C36 1_555 1_555
C37 C36 1_555 1_555
H22 C37 1_555 1_555
C38 H23 1_555 1_555
C39 C35 1_555 1_555
H24 C39 1_555 1_555
F1 C26 1_555 1_555
F2 C26 1_555 1_555
F3 C27 1_555 1_555
F4 C27 1_555 1_555
F5 C28 1_555 1_555
F6 C28 1_555 1_555
N1 C15 1_555 1_555
N2 C37 1_555 1_555
O1 C1 1_555 1_555
O2 C1 1_555 1_555
O3 C14 1_555 1_555
O4 C14 1_555 1_555
S1 C20 1_555 1_555
S2 C32 1_555 1_555
Zn1 N1 1_555 1_555
N2A Zn1 1_555 1_555
O3B Zn1 1_555 1_555
Zn1A N2 1_555 1_555
Zn1B O3 1_555 1_555
C6 C7 1_555 1_555
C12 C13 1_555 1_555
C19 N1 1_555 1_555
C23 S1 1_555 1_555
C28 C29 1_555 1_555
C33 S2 1_555 1_555
C38 C39 1_555 1_555
C38 N2 1_555 1_555
O1 Zn1 1_555 1_555

#END
