
#######################################################################
#
#                 Cambridge Crystallographic Data Centre
#                                CCDC 
#
#######################################################################
#
# If this CIF has been generated from an entry in the Cambridge 
# Structural Database, then it will include bibliographic, chemical, 
# crystal, experimental, refinement or atomic coordinate data resulting 
# from the CCDC's data processing and validation procedures.
#
#######################################################################

data_YOLKIU
_symmetry_cell_setting           orthorhombic
_symmetry_space_group_name_H-M   'A b a 2'
_symmetry_Int_Tables_number      41
_space_group_name_Hall           'A 2 -2ab'
loop_
_symmetry_equiv_pos_site_id
_symmetry_equiv_pos_as_xyz
1 x,y,z
2 -x,-y,z
3 1/2+x,1/2-y,z
4 1/2-x,1/2+y,z
5 x,1/2+y,1/2+z
6 -x,1/2-y,1/2+z
7 1/2+x,-y,1/2+z
8 1/2-x,y,1/2+z
_cell_length_a                   20.435(7)
_cell_length_b                   10.045(3)
_cell_length_c                   10.336(3)
_cell_angle_alpha                90
_cell_angle_beta                 90
_cell_angle_gamma                90
_cell_volume                     2121.67
loop_
_atom_site_label
_atom_site_type_symbol
_atom_site_fract_x
_atom_site_fract_y
_atom_site_fract_z
Ni1 Ni 0.28712(2) 0.87866(5) 0.44289(8)
O1 O 0.23683(15) 0.7038(3) 0.4637(3)
O2 O 0.24254(15) 0.9029(3) 0.2672(3)
O3 O 0.16266(15) 0.5537(3) 0.3989(3)
O4 O 0.16838(16) 0.8479(3) 0.1195(3)
O5 O 0.20891(18) 0.9764(3) 0.5348(3)
H1 H 0.215(3) 0.963(4) 0.615(2)
H2 H 0.217(2) 1.059(2) 0.527(4)
N1 N 0.36346(19) 0.7649(4) 0.3621(4)
N2 N 0.5000 0.5000 0.2021(6)
H3 H 0.5000 0.5000 0.116(2)
C1 C 0.3594(3) 0.7183(5) 0.2409(5)
H4 H 0.3236 0.7467 0.1890
C2 C 0.4034(3) 0.6329(6) 0.1877(5)
H5 H 0.3981 0.6052 0.1005
C3 C 0.4564(2) 0.5851(5) 0.2591(5)
C4 C 0.4612(3) 0.6359(6) 0.3843(5)
H6 H 0.4966 0.6104 0.4386
C5 C 0.4148(2) 0.7226(6) 0.4283(6)
H7 H 0.4199 0.7555 0.5140
C6 C 0.1890(2) 0.8479(4) 0.2313(4)
C7 C 0.1467(2) 0.7796(5) 0.3337(5)
H8 H 0.1316 0.8464 0.3976
H9 H 0.1076 0.7401 0.2921
C8 C 0.1853(2) 0.6711(5) 0.4027(4)
Ni1C Ni 0.21288(2) 1.37866(5) 0.44289(8)
Ni1C_2 Ni 0.21288(2) 0.37866(5) 0.44289(8)
Ni1G Ni 0.21288(2) 0.87866(5) -0.05711(8)
Ni1A Ni 0.71288(2) 0.12134(5) 0.44289(8)
Ni1D Ni 0.28712(2) 1.37866(5) -0.05711(8)
O1C O 0.26317(15) 1.2038(3) 0.4637(3)
O2C O 0.25746(15) 1.4029(3) 0.2672(3)
O3C O 0.33734(15) 1.0537(3) 0.3989(3)
O3_2 O 0.16266(15) 1.5537(3) 0.3989(3)
O4C O 0.33162(16) 1.3479(3) 0.1195(3)
O4G O 0.33162(16) 0.8479(3) 0.6195(3)
O4D O 0.16838(16) 1.3479(3) 0.6195(3)
O5C O 0.29109(18) 1.4764(3) 0.5348(3)
H1C H 0.285(3) 1.463(4) 0.615(2)
H2C H 0.283(2) 1.559(2) 0.527(4)
N1A N 0.63654(19) 0.2351(4) 0.3621(4)
N1C N 0.13654(19) 1.2649(4) 0.3621(4)
C1A C 0.6406(3) 0.2817(5) 0.2409(5)
H4A H 0.6764 0.2533 0.1890
C2A C 0.5966(3) 0.3671(6) 0.1877(5)
H5A H 0.6019 0.3948 0.1005
C3A C 0.5436(2) 0.4149(5) 0.2591(5)
C4A C 0.5388(3) 0.3641(6) 0.3843(5)
H6A H 0.5034 0.3896 0.4386
C5A C 0.5852(2) 0.2774(6) 0.4283(6)
H7A H 0.5801 0.2445 0.5140
C6C C 0.3110(2) 1.3479(4) 0.2313(4)
C7C C 0.3533(2) 1.2796(5) 0.3337(5)
H8C H 0.3684 1.3464 0.3976
H9C H 0.3924 1.2401 0.2921
C8C C 0.3147(2) 1.1711(5) 0.4027(4)
O7 O 0.4338(5) 0.5145(9) -0.2878(8)
O6? O 0.4759(3) 0.5092(8) -0.0780(7)
loop_
_geom_bond_atom_site_label_1
_geom_bond_atom_site_label_2
_geom_bond_site_symmetry_1
_geom_bond_site_symmetry_2
Ni1 O1 1_555 1_555
O1 C8 1_555 1_555
O2 Ni1 1_555 1_555
O3 C8 1_555 1_555
O4 C6 1_555 1_555
O5 Ni1 1_555 1_555
H1 O5 1_555 1_555
H2 O5 1_555 1_555
N1 Ni1 1_555 1_555
N2 H3 1_555 1_555
C1 N1 1_555 1_555
H4 C1 1_555 1_555
C2 C1 1_555 1_555
H5 C2 1_555 1_555
C3 N2 1_555 1_555
C4 C3 1_555 1_555
H6 C4 1_555 1_555
C5 N1 1_555 1_555
H7 C5 1_555 1_555
C6 O2 1_555 1_555
C7 C6 1_555 1_555
H8 C7 1_555 1_555
H9 C7 1_555 1_555
C8 C7 1_555 1_555
Ni1C O1C 1_555 1_555
Ni1C_2 O3 1_555 1_555
Ni1G O4 1_555 1_555
Ni1A N1A 1_555 1_555
Ni1D O4C 1_555 1_555
O1C C8C 1_555 1_555
O2C Ni1C 1_555 1_555
O3C Ni1 1_555 1_555
O3_2 Ni1C 1_555 1_555
O4C C6C 1_555 1_555
O4G Ni1 1_555 1_555
O4D Ni1C 1_555 1_555
O5C Ni1C 1_555 1_555
H1C O5C 1_555 1_555
H2C O5C 1_555 1_555
N1A C1A 1_555 1_555
N1C Ni1C 1_555 1_555
C1A H4A 1_555 1_555
C2A C1A 1_555 1_555
H5A C2A 1_555 1_555
C3A N2 1_555 1_555
C4A C3A 1_555 1_555
H6A C4A 1_555 1_555
C5A N1A 1_555 1_555
H7A C5A 1_555 1_555
C6C O2C 1_555 1_555
C7C C6C 1_555 1_555
H8C C7C 1_555 1_555
H9C C7C 1_555 1_555
C8C O3C 1_555 1_555
C2 C3 1_555 1_555
C4 C5 1_555 1_555
C2A C3A 1_555 1_555
C4A C5A 1_555 1_555
C7C C8C 1_555 1_555

#END
