
#######################################################################
#
#                 Cambridge Crystallographic Data Centre
#                                CCDC 
#
#######################################################################
#
# If this CIF has been generated from an entry in the Cambridge 
# Structural Database, then it will include bibliographic, chemical, 
# crystal, experimental, refinement or atomic coordinate data resulting 
# from the CCDC's data processing and validation procedures.
#
#######################################################################

data_YOLKEQ
_symmetry_cell_setting           orthorhombic
_symmetry_space_group_name_H-M   'A b a 2'
_symmetry_Int_Tables_number      41
_space_group_name_Hall           'A 2 -2ab'
loop_
_symmetry_equiv_pos_site_id
_symmetry_equiv_pos_as_xyz
1 x,y,z
2 -x,-y,z
3 1/2+x,1/2-y,z
4 1/2-x,1/2+y,z
5 x,1/2+y,1/2+z
6 -x,1/2-y,1/2+z
7 1/2+x,-y,1/2+z
8 1/2-x,y,1/2+z
_cell_length_a                   20.115(3)
_cell_length_b                   10.1473(12)
_cell_length_c                   10.4271(13)
_cell_angle_alpha                90
_cell_angle_beta                 90
_cell_angle_gamma                90
_cell_volume                     2128.31
loop_
_atom_site_label
_atom_site_type_symbol
_atom_site_fract_x
_atom_site_fract_y
_atom_site_fract_z
Co1 Co 0.289050(9) -0.105000(18) 0.44274(3)
O1 O 0.23571(6) -0.28095(10) 0.46123(11)
O2 O 0.24170(6) -0.08327(11) 0.26622(11)
O3 O 0.16060(6) -0.42854(11) 0.39667(12)
O4 O 0.16567(6) -0.13616(12) 0.11976(11)
O5 O 0.20847(6) -0.00480(13) 0.53745(12)
H1 H 0.2182(10) -0.017(2) 0.6143(16)
H2 H 0.2179(10) 0.0765(17) 0.523(2)
N1 N 0.13221(7) -0.72268(13) 0.36192(13)
N2 N 0.0000 -1.0000 0.20505(19)
H3 H 0.0000 -1.0000 0.1219(18)
C1 C 0.13604(9) -0.76570(18) 0.24026(17)
H4 H 0.1707 -0.7321 0.1877
C2 C 0.09269(10) -0.85565(19) 0.18710(18)
H5 H 0.0972 -0.8806 0.0997
C3 C 0.04210(8) -0.90994(15) 0.26219(17)
C4 C 0.03700(8) -0.86409(18) 0.38812(18)
H6 H 0.0027 -0.8954 0.4429
C5 C 0.08248(7) -0.77266(16) 0.43189(18)
H7 H 0.0781 -0.7431 0.5179
C6 C 0.18719(8) -0.13603(15) 0.23220(15)
C7 C 0.14467(8) -0.20412(16) 0.33351(16)
H8 H 0.1295 -0.1383 0.3972
H9 H 0.1048 -0.2426 0.2922
C8 C 0.18327(8) -0.31222(14) 0.40152(14)
Co1C Co 0.210950(9) -0.605000(18) 0.44274(3)
Co1_2 Co 0.289050(9) -1.105000(18) 0.44274(3)
Co1G Co 0.210950(9) -0.105000(18) -0.05726(3)
Co1D Co 0.289050(9) -0.605000(18) -0.05726(3)
Co1B Co -0.210950(9) -1.395000(18) 0.44274(3)
O1C O 0.26429(6) -0.78095(10) 0.46123(11)
O2C O 0.25830(6) -0.58327(11) 0.26622(11)
O3C O 0.33940(6) 0.07146(11) 0.39667(12)
O3C_2 O 0.33940(6) -0.92854(11) 0.39667(12)
O4D O 0.16567(6) -0.63616(12) 0.61976(11)
O4G O 0.33433(6) -0.13616(12) 0.61976(11)
O4C O 0.33433(6) -0.63616(12) 0.11976(11)
O5C O 0.29153(6) -0.50480(13) 0.53745(12)
H1C H 0.2818(10) -0.517(2) 0.6143(16)
H2C H 0.2821(10) -0.4235(17) 0.523(2)
N1C N 0.36779(7) -0.22268(13) 0.36192(13)
N1A N -0.13221(7) -1.27732(13) 0.36192(13)
C1A C -0.13604(9) -1.23430(18) 0.24026(17)
H4A H -0.1707 -1.2679 0.1877
C2A C -0.09269(10) -1.14435(19) 0.18710(18)
H5A H -0.0972 -1.1194 0.0997
C3A C -0.04210(8) -1.09006(15) 0.26219(17)
C4A C -0.03700(8) -1.13591(18) 0.38812(18)
H6A H -0.0027 -1.1046 0.4429
C5A C -0.08248(7) -1.22734(16) 0.43189(18)
H7A H -0.0781 -1.2569 0.5179
C6C C 0.31281(8) -0.63603(15) 0.23220(15)
C7C C 0.35533(8) -0.70412(16) 0.33351(16)
H8C H 0.3705 -0.6383 0.3972
H9C H 0.3952 -0.7426 0.2922
C8C C 0.31673(8) -0.81222(14) 0.40152(14)
O7 O 0.4345(2) -0.4713(4) -0.2953(4)
O6? O 0.48126(12) -0.4812(3) -0.0747(3)
loop_
_geom_bond_atom_site_label_1
_geom_bond_atom_site_label_2
_geom_bond_site_symmetry_1
_geom_bond_site_symmetry_2
Co1 O1 1_555 1_555
O1 C8 1_555 1_555
O2 Co1 1_555 1_555
O3 C8 1_555 1_555
O4 C6 1_555 1_555
O5 Co1 1_555 1_555
H1 O5 1_555 1_555
H2 O5 1_555 1_555
N1 C1 1_555 1_555
N2 H3 1_555 1_555
C1 H4 1_555 1_555
C2 C1 1_555 1_555
H5 C2 1_555 1_555
C3 N2 1_555 1_555
C4 C3 1_555 1_555
H6 C4 1_555 1_555
C5 N1 1_555 1_555
H7 C5 1_555 1_555
C6 O2 1_555 1_555
C7 C6 1_555 1_555
H8 C7 1_555 1_555
H9 C7 1_555 1_555
C8 C7 1_555 1_555
Co1C O3 1_555 1_555
Co1_2 O3C_2 1_555 1_555
Co1G O4 1_555 1_555
Co1D O4C 1_555 1_555
Co1B N1A 1_555 1_555
O1C Co1C 1_555 1_555
O2C Co1C 1_555 1_555
O3C Co1 1_555 1_555
O3C_2 C8C 1_555 1_555
O4D Co1C 1_555 1_555
O4G Co1 1_555 1_555
O4C C6C 1_555 1_555
O5C Co1C 1_555 1_555
H1C O5C 1_555 1_555
H2C O5C 1_555 1_555
N1C Co1 1_555 1_555
N1A C1A 1_555 1_555
C1A H4A 1_555 1_555
C2A C1A 1_555 1_555
H5A C2A 1_555 1_555
C3A N2 1_555 1_555
C4A C3A 1_555 1_555
H6A C4A 1_555 1_555
C5A N1A 1_555 1_555
H7A C5A 1_555 1_555
C6C O2C 1_555 1_555
C7C C6C 1_555 1_555
H8C C7C 1_555 1_555
H9C C7C 1_555 1_555
C8C O1C 1_555 1_555
N1 Co1C 1_555 1_555
C2 C3 1_555 1_555
C4 C5 1_555 1_555
C2A C3A 1_555 1_555
C4A C5A 1_555 1_555
C7C C8C 1_555 1_555

#END
