
#######################################################################
#
#                 Cambridge Crystallographic Data Centre
#                                CCDC 
#
#######################################################################
#
# If this CIF has been generated from an entry in the Cambridge 
# Structural Database, then it will include bibliographic, chemical, 
# crystal, experimental, refinement or atomic coordinate data resulting 
# from the CCDC's data processing and validation procedures.
#
#######################################################################

data_YOLTOK
_symmetry_cell_setting           rhombohedral
_symmetry_space_group_name_H-M   'R 3 c'
_symmetry_Int_Tables_number      161
_space_group_name_Hall           'R 3 -2"c'
loop_
_symmetry_equiv_pos_site_id
_symmetry_equiv_pos_as_xyz
1 x,y,z
2 -y,x-y,z
3 -x+y,-x,z
4 -y,-x,1/2+z
5 -x+y,y,1/2+z
6 x,x-y,1/2+z
7 2/3+x,1/3+y,1/3+z
8 2/3-y,1/3+x-y,1/3+z
9 2/3-x+y,1/3-x,1/3+z
10 2/3-y,1/3-x,5/6+z
11 2/3-x+y,1/3+y,5/6+z
12 2/3+x,1/3+x-y,5/6+z
13 1/3+x,2/3+y,2/3+z
14 1/3-y,2/3+x-y,2/3+z
15 1/3-x+y,2/3-x,2/3+z
16 1/3-y,2/3-x,1/6+z
17 1/3-x+y,2/3+y,1/6+z
18 1/3+x,2/3+x-y,1/6+z
_cell_length_a                   23.7747(14)
_cell_length_b                   23.7747(14)
_cell_length_c                   28.216(4)
_cell_angle_alpha                90
_cell_angle_beta                 90
_cell_angle_gamma                120
_cell_volume                     13812
loop_
_atom_site_label
_atom_site_type_symbol
_atom_site_fract_x
_atom_site_fract_y
_atom_site_fract_z
Ni1 Ni 0.04491(6) 0.61038(6) 0.02039(4)
O1 O 0.1526(3) 0.8107(3) 0.0864(2)
O2 O 0.1096(3) 0.6964(3) 0.0535(2)
O3 O 0.0360(3) 0.7425(3) 0.0653(2)
H1 H 0.0195 0.7163 0.0436
O4 O 0.0875(3) 0.6247(3) 0.3140(2)
O5 O -0.0317(3) 0.5627(3) 0.2940(2)
H2 H -0.0231 0.5368 0.2813
O6 O 0.0127(3) 0.6712(3) 0.3283(2)
N1 N 0.0929(4) 0.5718(4) 0.0602(3)
N2 N -0.0164(4) 0.5724(4) 0.0788(3)
N3 N 0.1077(4) 0.6365(4) -0.0362(3)
N4 N -0.0043(4) 0.5297(4) -0.0242(3)
P1 P 0.09820(12) 0.74125(12) 0.08420(8)
P2 P 0.03212(12) 0.63178(12) 0.29697(9)
C1 C 0.0790(4) 0.7104(4) 0.1442(3)
C2 C 0.1233(4) 0.6999(4) 0.1701(3)
C3 C 0.1054(5) 0.6761(4) 0.2154(3)
H3 H 0.1338 0.6675 0.2325
C4 C 0.0481(4) 0.6639(4) 0.2377(3)
C5 C 0.0041(5) 0.6749(4) 0.2118(3)
C6 C 0.0211(4) 0.6980(4) 0.1651(3)
H4 H -0.0078 0.7052 0.1475
C7 C -0.0600(5) 0.6616(5) 0.2309(4)
H5 H -0.0660 0.6978 0.2243
H6 H -0.0611 0.6551 0.2646
H7 H -0.0942 0.6233 0.2162
C8 C 0.1885(5) 0.7139(5) 0.1509(3)
H8 H 0.2129 0.7082 0.1756
H9 H 0.2120 0.7578 0.1395
H10 H 0.1820 0.6846 0.1253
C9 C 0.1487(5) 0.5748(5) 0.0495(4)
H11 H 0.1661 0.5881 0.0194
C10 C 0.1825(6) 0.5579(6) 0.0834(6)
H12 H 0.2215 0.5601 0.0755
C11 C 0.1563(8) 0.5384(7) 0.1280(5)
H13 H 0.1779 0.5280 0.1507
C12 C 0.0984(6) 0.5344(6) 0.1387(5)
H14 H 0.0795 0.5202 0.1683
C13 C 0.0683(5) 0.5521(5) 0.1040(4)
C14 C 0.0074(5) 0.5512(5) 0.1135(4)
C15 C -0.0264(6) 0.5283(5) 0.1567(4)
H15 H -0.0095 0.5148 0.1810
C16 C -0.0863(6) 0.5263(6) 0.1622(4)
H16 H -0.1096 0.5109 0.1903
C17 C -0.1103(6) 0.5471(6) 0.1264(4)
H17 H -0.1497 0.5462 0.1294
C18 C -0.0724(5) 0.5700(5) 0.0844(4)
H18 H -0.0881 0.5842 0.0597
C19 C 0.1662(5) 0.6904(6) -0.0396(4)
H19 H 0.1795 0.7200 -0.0147
C20 C 0.2072(6) 0.7044(6) -0.0768(4)
H20 H 0.2472 0.7424 -0.0776
C21 C 0.1874(6) 0.6606(7) -0.1128(5)
H21 H 0.2135 0.6691 -0.1395
C22 C 0.1294(6) 0.6041(7) -0.1098(4)
H22 H 0.1173 0.5727 -0.1332
C23 C 0.0886(5) 0.5936(5) -0.0721(3)
C24 C 0.0250(5) 0.5353(5) -0.0652(3)
C25 C -0.0058(7) 0.4864(6) -0.0993(4)
H23 H 0.0143 0.4904 -0.1284
C26 C -0.0638(6) 0.4339(6) -0.0906(5)
H24 H -0.0836 0.4011 -0.1131
C27 C -0.0923(6) 0.4296(5) -0.0497(4)
H25 H -0.1328 0.3938 -0.0431
C28 C -0.0625(5) 0.4773(5) -0.0173(4)
H26 H -0.0836 0.4735 0.0113
Ni1G Ni 0.05629(6) 0.76786(8) 0.35372(4)
O6N O -0.0082(4) 0.6540(3) -0.0050(2)
O7 O 0.1365(4) 0.5505(4) 0.2665(3)
H27 H 0.1211 0.5618 0.2436
H28 H 0.1250 0.5117 0.2585
O8 O 0.2217(5) 0.6773(5) 0.3388(6)
H29 H 0.2258 0.6923 0.3109
H30 H 0.1983 0.6368 0.3336
loop_
_geom_bond_atom_site_label_1
_geom_bond_atom_site_label_2
_geom_bond_site_symmetry_1
_geom_bond_site_symmetry_2
Ni1 O2 1_555 1_555
O1 P1 1_555 1_555
O2 P1 1_555 1_555
O3 H1 1_555 1_555
O4 P2 1_555 1_555
O5 H2 1_555 1_555
O6 P2 1_555 1_555
N1 Ni1 1_555 1_555
N2 Ni1 1_555 1_555
N3 Ni1 1_555 1_555
N4 Ni1 1_555 1_555
P1 O3 1_555 1_555
P2 O5 1_555 1_555
C1 P1 1_555 1_555
C2 C1 1_555 1_555
C3 C2 1_555 1_555
H3 C3 1_555 1_555
C4 P2 1_555 1_555
C5 C4 1_555 1_555
C6 C1 1_555 1_555
H4 C6 1_555 1_555
C7 C5 1_555 1_555
H5 C7 1_555 1_555
H6 C7 1_555 1_555
H7 C7 1_555 1_555
C8 C2 1_555 1_555
H8 C8 1_555 1_555
H9 C8 1_555 1_555
H10 C8 1_555 1_555
C9 N1 1_555 1_555
H11 C9 1_555 1_555
C10 C9 1_555 1_555
H12 C10 1_555 1_555
C11 C10 1_555 1_555
H13 C11 1_555 1_555
C12 C11 1_555 1_555
H14 C12 1_555 1_555
C13 N1 1_555 1_555
C14 N2 1_555 1_555
C15 C14 1_555 1_555
H15 C15 1_555 1_555
C16 C15 1_555 1_555
H16 C16 1_555 1_555
C17 C16 1_555 1_555
H17 C17 1_555 1_555
C18 N2 1_555 1_555
H18 C18 1_555 1_555
C19 N3 1_555 1_555
H19 C19 1_555 1_555
C20 C19 1_555 1_555
H20 C20 1_555 1_555
C21 C20 1_555 1_555
H21 C21 1_555 1_555
C22 C21 1_555 1_555
H22 C22 1_555 1_555
C23 N3 1_555 1_555
C24 N4 1_555 1_555
C25 C24 1_555 1_555
H23 C25 1_555 1_555
C26 C25 1_555 1_555
H24 C26 1_555 1_555
C27 C26 1_555 1_555
H25 C27 1_555 1_555
C28 N4 1_555 1_555
H26 C28 1_555 1_555
O7 H27 1_555 1_555
H28 O7 1_555 1_555
O8 H29 1_555 1_555
H30 O8 1_555 1_555
Ni1G O6 1_555 1_555
O6N Ni1 1_555 1_555
C3 C4 1_555 1_555
C5 C6 1_555 1_555
C12 C13 1_555 1_555
C13 C14 1_555 1_555
C17 C18 1_555 1_555
C22 C23 1_555 1_555
C23 C24 1_555 1_555
C27 C28 1_555 1_555

#END
