
#######################################################################
#
#                 Cambridge Crystallographic Data Centre
#                                CCDC 
#
#######################################################################
#
# If this CIF has been generated from an entry in the Cambridge 
# Structural Database, then it will include bibliographic, chemical, 
# crystal, experimental, refinement or atomic coordinate data resulting 
# from the CCDC's data processing and validation procedures.
#
#######################################################################

data_YOLTIE
_symmetry_cell_setting           monoclinic
_symmetry_space_group_name_H-M   'C 2/c'
_symmetry_Int_Tables_number      15
_space_group_name_Hall           '-C 2yn'
loop_
_symmetry_equiv_pos_site_id
_symmetry_equiv_pos_as_xyz
1 x,y,z
2 -x,y,1/2-z
3 1/2+x,1/2+y,z
4 1/2-x,1/2+y,1/2-z
5 -x,-y,-z
6 x,-y,1/2+z
7 1/2-x,1/2-y,-z
8 1/2+x,1/2-y,1/2+z
_cell_length_a                   17.119(2)
_cell_length_b                   8.9053(12)
_cell_length_c                   12.3890(17)
_cell_angle_alpha                90
_cell_angle_beta                 124.674(2)
_cell_angle_gamma                90
_cell_volume                     1553.27
loop_
_atom_site_label
_atom_site_type_symbol
_atom_site_fract_x
_atom_site_fract_y
_atom_site_fract_z
Ni1 Ni 0.2500 0.2500 0.0000
O1 O 0.25707(10) 0.48423(18) 0.01031(13)
H1 H 0.2656 0.5325 0.0754
H2 H 0.2420 0.5461 -0.0509
O2 O 0.22414(10) 0.23343(15) 0.14491(14)
O3 O 0.20795(11) 0.30396(17) 0.33057(14)
O4 O 0.27856(10) 0.48301(15) 0.24812(14)
H3 H 0.2687 0.5542 0.2809
N1 N 0.40131(13) 0.23961(19) 0.15174(19)
P1 P 0.20374(4) 0.35512(5) 0.21267(5)
C1 C 0.00531(17) 0.1899(3) 0.0806(3)
H4 H -0.0590 0.1559 0.0382
H5 H 0.0372 0.1849 0.1741
H6 H 0.0377 0.1272 0.0549
C2 C 0.00535(15) 0.3498(2) 0.0408(2)
C3 C 0.08846(14) 0.4349(2) 0.09289(19)
C4 C 0.08119(14) 0.5828(2) 0.0511(2)
H7 H 0.1365 0.6386 0.0862
C5 C 0.45196(16) 0.3662(3) 0.2020(3)
H8 H 0.4209 0.4579 0.1707
C6 C 0.45134(15) 0.1128(2) 0.2020(2)
H9 H 0.4199 0.0213 0.1717
O2D O -0.22414(10) 0.76657(15) -0.14491(14)
O3D O -0.20795(11) 0.69604(17) -0.33057(14)
O4D O -0.27856(10) 0.51699(15) -0.24812(14)
H3D H -0.2687 0.4458 -0.2809
P1D P -0.20374(4) 0.64488(5) -0.21267(5)
C1D C -0.00531(17) 0.8101(3) -0.0806(3)
H4D H 0.0590 0.8441 -0.0382
H5D H -0.0372 0.8151 -0.1741
H6D H -0.0377 0.8728 -0.0549
C2D C -0.00535(15) 0.6502(2) -0.0408(2)
C3D C -0.08846(14) 0.5651(2) -0.09289(19)
C4D C -0.08119(14) 0.4172(2) -0.0511(2)
H7D H -0.1365 0.3614 -0.0862
N1A N 0.59869(13) 0.23961(19) 0.34826(19)
C5A C 0.54804(16) 0.3662(3) 0.2980(3)
H8A H 0.5791 0.4579 0.3293
C6A C 0.54866(15) 0.1128(2) 0.2980(2)
H9A H 0.5801 0.0213 0.3283
O1F O 0.24293(10) 0.01577(18) -0.01031(13)
H1F H 0.2344 -0.0325 -0.0754
H2F H 0.2580 -0.0461 0.0509
Ni1A Ni 0.7500 0.2500 0.5000
Ni1B Ni -0.2500 0.7500 0.0000
O2F O 0.27586(10) 0.26657(15) -0.14491(14)
N1F N 0.09869(13) 0.26039(19) -0.15174(19)
loop_
_geom_bond_atom_site_label_1
_geom_bond_atom_site_label_2
_geom_bond_site_symmetry_1
_geom_bond_site_symmetry_2
Ni1 O1 1_555 1_555
O1 H1 1_555 1_555
H2 O1 1_555 1_555
O2 Ni1 1_555 1_555
O3 P1 1_555 1_555
O4 H3 1_555 1_555
N1 Ni1 1_555 1_555
P1 O2 1_555 1_555
C1 H4 1_555 1_555
H5 C1 1_555 1_555
H6 C1 1_555 1_555
C2 C1 1_555 1_555
C3 P1 1_555 1_555
C4 C3 1_555 1_555
H7 C4 1_555 1_555
C5 N1 1_555 1_555
H8 C5 1_555 1_555
C6 N1 1_555 1_555
H9 C6 1_555 1_555
O2D P1D 1_555 1_555
O3D P1D 1_555 1_555
O4D H3D 1_555 1_555
P1D O4D 1_555 1_555
C1D H4D 1_555 1_555
H5D C1D 1_555 1_555
H6D C1D 1_555 1_555
C2D C4 1_555 1_555
C3D P1D 1_555 1_555
C4D C2 1_555 1_555
H7D C4D 1_555 1_555
N1A C5A 1_555 1_555
C5A C5 1_555 1_555
H8A C5A 1_555 1_555
C6A C6 1_555 1_555
H9A C6A 1_555 1_555
O1F Ni1 1_555 1_555
H1F O1F 1_555 1_555
H2F O1F 1_555 1_555
Ni1A N1A 1_555 1_555
Ni1B O2D 1_555 1_555
O2F Ni1 1_555 1_555
N1F Ni1 1_555 1_555
O4 P1 1_555 1_555
C2 C3 1_555 1_555
C1D C2D 1_555 1_555
C2D C3D 1_555 1_555
C3D C4D 1_555 1_555
N1A C6A 1_555 1_555

#END
