
#######################################################################
#
#                 Cambridge Crystallographic Data Centre
#                                CCDC 
#
#######################################################################
#
# If this CIF has been generated from an entry in the Cambridge 
# Structural Database, then it will include bibliographic, chemical, 
# crystal, experimental, refinement or atomic coordinate data resulting 
# from the CCDC's data processing and validation procedures.
#
#######################################################################

data_YOLTEA
_symmetry_cell_setting           monoclinic
_symmetry_space_group_name_H-M   'P 21/c'
_symmetry_Int_Tables_number      14
_space_group_name_Hall           '-P 2ybc'
loop_
_symmetry_equiv_pos_site_id
_symmetry_equiv_pos_as_xyz
1 x,y,z
2 -x,1/2+y,1/2-z
3 -x,-y,-z
4 x,1/2-y,1/2+z
_cell_length_a                   11.7903(15)
_cell_length_b                   9.3140(13)
_cell_length_c                   14.652(2)
_cell_angle_alpha                90
_cell_angle_beta                 94.385(2)
_cell_angle_gamma                90
_cell_volume                     1604.3
loop_
_atom_site_label
_atom_site_type_symbol
_atom_site_fract_x
_atom_site_fract_y
_atom_site_fract_z
Co1 Co 0.70012(4) 0.25100(4) 0.26596(3)
O1 O 0.78390(19) 0.4456(2) 0.28915(16)
H1 H 0.7500 0.5213 0.2694
H2 H 0.8548 0.4636 0.2944
O2 O 0.46172(18) -0.1356(2) 0.24877(14)
O3 O 0.61300(19) 0.0601(2) 0.26156(15)
O4 O 0.40660(19) 0.1235(2) 0.23829(15)
H3 H 0.4356 0.2033 0.2439
O5 O 1.06536(19) 0.1948(2) 0.27527(16)
H4 H 1.0402 0.2769 0.2751
O6 O 0.85327(18) 0.1554(2) 0.26768(16)
O7 O 0.9902(2) -0.0409(2) 0.22737(16)
N1 N 0.7015(3) 0.2312(3) 0.41890(19)
N2 N 0.7034(3) 0.2241(3) 0.61065(19)
P1 P 0.50126(7) 0.00916(8) 0.21780(5)
P2 P 0.96665(7) 0.08578(9) 0.28717(6)
C1 C 0.6983(3) -0.1222(4) 0.1048(2)
H5 H 0.6787 -0.2146 0.1280
H6 H 0.7231 -0.0605 0.1549
H7 H 0.7585 -0.1328 0.0647
C2 C 0.5959(3) -0.0573(3) 0.0527(2)
C3 C 0.5044(3) 0.0038(3) 0.0953(2)
C4 C 0.4113(3) 0.0586(3) 0.0419(2)
H8 H 0.3513 0.0979 0.0713
C5 C 0.8081(3) -0.1305(4) 0.3914(2)
H9 H 0.8342 -0.2115 0.3583
H10 H 0.7733 -0.0620 0.3491
H11 H 0.7535 -0.1619 0.4325
C6 C 0.9076(3) -0.0616(4) 0.4454(2)
C7 C 0.9831(3) 0.0333(4) 0.4064(2)
C8 C 1.0731(3) 0.0914(4) 0.4615(2)
H12 H 1.1229 0.1532 0.4348
C9 C 0.6153(3) 0.1798(4) 0.4621(2)
H13 H 0.5522 0.1439 0.4274
C10 C 0.7912(3) 0.2756(4) 0.4730(2)
H14 H 0.8549 0.3102 0.4464
C11 C 0.7922(3) 0.2716(4) 0.5673(2)
H15 H 0.8569 0.3029 0.6020
C12 C 0.6152(3) 0.1774(4) 0.5558(2)
H16 H 0.5515 0.1420 0.5821
O2B O 0.53828(18) 0.1356(2) -0.24877(14)
O3B O 0.38700(19) -0.0601(2) -0.26156(15)
O4B O 0.59340(19) -0.1235(2) -0.23829(15)
H3B H 0.5644 -0.2033 -0.2439
P1B P 0.49874(7) -0.00916(8) -0.21780(5)
C1B C 0.3017(3) 0.1222(4) -0.1048(2)
H5B H 0.3213 0.2146 -0.1280
H6B H 0.2769 0.0605 -0.1549
H7B H 0.2415 0.1328 -0.0647
C2B C 0.4041(3) 0.0573(3) -0.0527(2)
C3B C 0.4956(3) -0.0038(3) -0.0953(2)
C4B C 0.5887(3) -0.0586(3) -0.0419(2)
H8B H 0.6487 -0.0979 -0.0713
O5B O 0.93464(19) -0.1948(2) 0.72473(16)
H4B H 0.9598 -0.2769 0.7249
O6B O 1.14673(18) -0.1554(2) 0.73232(16)
O7B O 1.0098(2) 0.0409(2) 0.77263(16)
P2B P 1.03335(7) -0.08578(9) 0.71283(6)
C5B C 1.1919(3) 0.1305(4) 0.6086(2)
H9B H 1.1658 0.2115 0.6417
H10B H 1.2267 0.0620 0.6509
H11B H 1.2465 0.1619 0.5675
C6B C 1.0924(3) 0.0616(4) 0.5546(2)
C7B C 1.0169(3) -0.0333(4) 0.5936(2)
C8B C 0.9269(3) -0.0914(4) 0.5385(2)
H12B H 0.8771 -0.1532 0.5652
Co1B Co 0.29988(4) -0.25100(4) -0.26596(3)
O1B O 0.21610(19) -0.4456(2) -0.28915(16)
H1B H 0.2500 -0.5213 -0.2694
H2B H 0.1452 -0.4636 -0.2944
N1B N 0.2985(3) -0.2312(3) -0.41890(19)
N2B N 0.2966(3) -0.2241(3) -0.61065(19)
C9B C 0.3847(3) -0.1798(4) -0.4621(2)
H13B H 0.4478 -0.1439 -0.4274
C10B C 0.2088(3) -0.2756(4) -0.4730(2)
H14B H 0.1451 -0.3102 -0.4464
C11B C 0.2078(3) -0.2716(4) -0.5673(2)
H15B H 0.1431 -0.3029 -0.6020
C12B C 0.3848(3) -0.1774(4) -0.5558(2)
H16B H 0.4485 -0.1420 -0.5821
Co1A Co 0.29988(4) -0.24900(4) -0.76596(3)
Co1A_2 Co 0.29988(4) -0.24900(4) 0.23404(3)
Co1B_2 Co 1.29988(4) -0.25100(4) 0.73404(3)
Co1C Co 0.70012(4) 0.24900(4) -0.23404(3)
Co1C_2 Co 0.70012(4) 0.24900(4) 0.76596(3)
O2A O 0.53828(18) 0.3644(2) 0.25123(14)
O2C O 0.46172(18) -0.3644(2) -0.25123(14)
O6B_2 O 0.14673(18) -0.1554(2) -0.26768(16)
N2A N 0.2966(3) -0.2759(3) -0.11065(19)
N2C N 0.7034(3) 0.2759(3) 0.11065(19)
O8 O 1.004(2) 0.503(3) 0.4716(10)
loop_
_geom_bond_atom_site_label_1
_geom_bond_atom_site_label_2
_geom_bond_site_symmetry_1
_geom_bond_site_symmetry_2
Co1 O1 1_555 1_555
O1 H1 1_555 1_555
H2 O1 1_555 1_555
O2 P1 1_555 1_555
O3 Co1 1_555 1_555
O4 H3 1_555 1_555
O5 H4 1_555 1_555
O6 Co1 1_555 1_555
O7 P2 1_555 1_555
N1 Co1 1_555 1_555
N2 C11 1_555 1_555
P1 O3 1_555 1_555
P2 O5 1_555 1_555
C1 H5 1_555 1_555
H6 C1 1_555 1_555
H7 C1 1_555 1_555
C2 C1 1_555 1_555
C3 P1 1_555 1_555
C4 C3 1_555 1_555
H8 C4 1_555 1_555
C5 H9 1_555 1_555
H10 C5 1_555 1_555
H11 C5 1_555 1_555
C6 C5 1_555 1_555
C7 P2 1_555 1_555
C8 C7 1_555 1_555
H12 C8 1_555 1_555
C9 N1 1_555 1_555
H13 C9 1_555 1_555
C10 N1 1_555 1_555
H14 C10 1_555 1_555
C11 C10 1_555 1_555
H15 C11 1_555 1_555
C12 N2 1_555 1_555
H16 C12 1_555 1_555
O2B P1B 1_555 1_555
O3B P1B 1_555 1_555
O4B H3B 1_555 1_555
P1B O4B 1_555 1_555
C1B H5B 1_555 1_555
H6B C1B 1_555 1_555
H7B C1B 1_555 1_555
C2B C4 1_555 1_555
C3B P1B 1_555 1_555
C4B C2 1_555 1_555
H8B C4B 1_555 1_555
O5B H4B 1_555 1_555
O6B P2B 1_555 1_555
O7B P2B 1_555 1_555
P2B O5B 1_555 1_555
C5B H9B 1_555 1_555
H10B C5B 1_555 1_555
H11B C5B 1_555 1_555
C6B C8 1_555 1_555
C7B P2B 1_555 1_555
C8B C6 1_555 1_555
H12B C8B 1_555 1_555
Co1B O3B 1_555 1_555
O1B Co1B 1_555 1_555
H1B O1B 1_555 1_555
H2B O1B 1_555 1_555
N1B Co1B 1_555 1_555
N2B C11B 1_555 1_555
C9B N1B 1_555 1_555
H13B C9B 1_555 1_555
C10B N1B 1_555 1_555
H14B C10B 1_555 1_555
C11B C10B 1_555 1_555
H15B C11B 1_555 1_555
C12B N2B 1_555 1_555
H16B C12B 1_555 1_555
Co1A N2B 1_555 1_555
Co1A_2 O2 1_555 1_555
Co1B_2 O6B 1_555 1_555
Co1C O2B 1_555 1_555
Co1C_2 N2 1_555 1_555
O2A Co1 1_555 1_555
O2C Co1B 1_555 1_555
O6B_2 Co1B 1_555 1_555
N2A Co1B 1_555 1_555
N2C Co1 1_555 1_555
O4 P1 1_555 1_555
O6 P2 1_555 1_555
C2 C3 1_555 1_555
C6 C7 1_555 1_555
C9 C12 1_555 1_555
C1B C2B 1_555 1_555
C2B C3B 1_555 1_555
C3B C4B 1_555 1_555
C5B C6B 1_555 1_555
C6B C7B 1_555 1_555
C7B C8B 1_555 1_555
C9B C12B 1_555 1_555

#END
