
#######################################################################
#
#                 Cambridge Crystallographic Data Centre
#                                CCDC 
#
#######################################################################
#
# If this CIF has been generated from an entry in the Cambridge 
# Structural Database, then it will include bibliographic, chemical, 
# crystal, experimental, refinement or atomic coordinate data resulting 
# from the CCDC's data processing and validation procedures.
#
#######################################################################

data_YOLVEC
_symmetry_cell_setting           monoclinic
_symmetry_space_group_name_H-M   'C 2/c'
_symmetry_Int_Tables_number      15
_space_group_name_Hall           '-C 2yn'
loop_
_symmetry_equiv_pos_site_id
_symmetry_equiv_pos_as_xyz
1 x,y,z
2 -x,y,1/2-z
3 1/2+x,1/2+y,z
4 1/2-x,1/2+y,1/2-z
5 -x,-y,-z
6 x,-y,1/2+z
7 1/2-x,1/2-y,-z
8 1/2+x,1/2-y,1/2+z
_cell_length_a                   16.906(11)
_cell_length_b                   8.996(6)
_cell_length_c                   12.435(8)
_cell_angle_alpha                90
_cell_angle_beta                 125.406(12)
_cell_angle_gamma                90
_cell_volume                     1541.45
loop_
_atom_site_label
_atom_site_type_symbol
_atom_site_fract_x
_atom_site_fract_y
_atom_site_fract_z
Cu1 Cu 0.2500 0.2500 0.0000
O1 O 0.2591(2) 0.5193(4) 0.0123(3)
H1 H 0.2676 0.5676 0.0774
H2 H 0.2441 0.5812 -0.0489
O2 O 0.2241(2) 0.2280(3) 0.1355(3)
O3 O 0.2041(2) 0.2782(3) 0.3188(3)
O4 O 0.2830(2) 0.4658(3) 0.2575(3)
H3 H 0.2712 0.5345 0.2895
N1 N 0.4003(2) 0.2382(4) 0.1511(3)
P1 P 0.20360(8) 0.34206(12) 0.20783(11)
C1 C -0.0019(4) 0.1897(5) 0.0680(5)
H4 H -0.0683 0.1576 0.0192
H5 H 0.0272 0.1814 0.1608
H6 H 0.0330 0.1285 0.0454
C2 C 0.0019(3) 0.3494(5) 0.0343(4)
C3 C 0.0883(3) 0.4288(5) 0.0908(4)
C4 C 0.0842(3) 0.5769(5) 0.0550(4)
H7 H 0.1422 0.6287 0.0928
C5 C 0.4512(3) 0.3620(5) 0.2014(5)
H8 H 0.4193 0.4527 0.1696
C6 C 0.4503(3) 0.1142(5) 0.2005(4)
H9 H 0.4182 0.0238 0.1684
O2D O -0.2241(2) 0.7720(3) -0.1355(3)
O3D O -0.2041(2) 0.7218(3) -0.3188(3)
O4D O -0.2830(2) 0.5342(3) -0.2575(3)
H3D H -0.2712 0.4655 -0.2895
P1D P -0.20360(8) 0.65794(12) -0.20783(11)
C1D C 0.0019(4) 0.8103(5) -0.0680(5)
H4D H 0.0683 0.8424 -0.0192
H5D H -0.0272 0.8186 -0.1608
H6D H -0.0330 0.8715 -0.0454
C2D C -0.0019(3) 0.6506(5) -0.0343(4)
C3D C -0.0883(3) 0.5712(5) -0.0908(4)
C4D C -0.0842(3) 0.4231(5) -0.0550(4)
H7D H -0.1422 0.3713 -0.0928
N1A N 0.5997(2) 0.2382(4) 0.3489(3)
C5A C 0.5488(3) 0.3620(5) 0.2986(5)
H8A H 0.5807 0.4527 0.3304
C6A C 0.5497(3) 0.1142(5) 0.2995(4)
H9A H 0.5818 0.0238 0.3316
O1F O 0.2409(2) -0.0193(4) -0.0123(3)
H1F H 0.2324 -0.0676 -0.0774
H2F H 0.2559 -0.0812 0.0489
Cu1A Cu 0.7500 0.2500 0.5000
Cu1B Cu -0.2500 0.7500 0.0000
O2F O 0.2759(2) 0.2720(3) -0.1355(3)
N1F N 0.0997(2) 0.2618(4) -0.1511(3)
loop_
_geom_bond_atom_site_label_1
_geom_bond_atom_site_label_2
_geom_bond_site_symmetry_1
_geom_bond_site_symmetry_2
Cu1 O1 1_555 1_555
O1 H1 1_555 1_555
H2 O1 1_555 1_555
O2 Cu1 1_555 1_555
O3 P1 1_555 1_555
O4 H3 1_555 1_555
N1 Cu1 1_555 1_555
P1 O2 1_555 1_555
C1 H4 1_555 1_555
H5 C1 1_555 1_555
H6 C1 1_555 1_555
C2 C1 1_555 1_555
C3 P1 1_555 1_555
C4 C3 1_555 1_555
H7 C4 1_555 1_555
C5 N1 1_555 1_555
H8 C5 1_555 1_555
C6 N1 1_555 1_555
H9 C6 1_555 1_555
O2D P1D 1_555 1_555
O3D P1D 1_555 1_555
O4D H3D 1_555 1_555
P1D O4D 1_555 1_555
C1D H4D 1_555 1_555
H5D C1D 1_555 1_555
H6D C1D 1_555 1_555
C2D C4 1_555 1_555
C3D P1D 1_555 1_555
C4D C2 1_555 1_555
H7D C4D 1_555 1_555
N1A C5A 1_555 1_555
C5A C5 1_555 1_555
H8A C5A 1_555 1_555
C6A C6 1_555 1_555
H9A C6A 1_555 1_555
O1F Cu1 1_555 1_555
H1F O1F 1_555 1_555
H2F O1F 1_555 1_555
Cu1A N1A 1_555 1_555
Cu1B O2D 1_555 1_555
O2F Cu1 1_555 1_555
N1F Cu1 1_555 1_555
O4 P1 1_555 1_555
C2 C3 1_555 1_555
C1D C2D 1_555 1_555
C2D C3D 1_555 1_555
C3D C4D 1_555 1_555
N1A C6A 1_555 1_555

#END
