
#######################################################################
#
#                 Cambridge Crystallographic Data Centre
#                                CCDC 
#
#######################################################################
#
# If this CIF has been generated from an entry in the Cambridge 
# Structural Database, then it will include bibliographic, chemical, 
# crystal, experimental, refinement or atomic coordinate data resulting 
# from the CCDC's data processing and validation procedures.
#
#######################################################################

data_YOLVIG
_symmetry_cell_setting           triclinic
_symmetry_space_group_name_H-M   'P -1'
_symmetry_Int_Tables_number      2
_space_group_name_Hall           '-P 1'
loop_
_symmetry_equiv_pos_site_id
_symmetry_equiv_pos_as_xyz
1 x,y,z
2 -x,-y,-z
_cell_length_a                   7.309(3)
_cell_length_b                   8.365(4)
_cell_length_c                   9.315(4)
_cell_angle_alpha                97.459(6)
_cell_angle_beta                 112.125(6)
_cell_angle_gamma                90.768(7)
_cell_volume                     521.911
loop_
_atom_site_label
_atom_site_type_symbol
_atom_site_fract_x
_atom_site_fract_y
_atom_site_fract_z
Cu1 Cu 0.5000 0.0000 0.0000
O1 O 0.2908(5) 0.0513(4) 0.3277(4)
H1 H 0.3156 0.0192 0.4121
O2 O 0.6647(5) 0.0582(4) 0.4191(4)
O3 O 0.4528(5) 0.1464(4) 0.1592(4)
P1 P 0.48195(19) 0.13847(15) 0.32769(14)
N1 N 0.3273(6) -0.1756(5) 0.0205(4)
C1 C 0.3945(8) -0.3074(7) 0.0797(7)
H2 H 0.5306 -0.3143 0.1264
C2 C 0.2708(8) -0.4364(7) 0.0754(7)
H3 H 0.3243 -0.5271 0.1194
C3 C 0.0688(7) -0.4305(6) 0.0061(5)
C4 C 0.0020(8) -0.2916(6) -0.0512(7)
H4 H -0.1335 -0.2803 -0.0963
C5 C 0.1333(8) -0.1677(6) -0.0429(7)
H5 H 0.0833 -0.0745 -0.0836
C6 C 0.4932(7) 0.3432(6) 0.4232(5)
C7 C 0.6344(7) 0.4609(6) 0.4261(5)
C8 C 0.3628(7) 0.3851(6) 0.4960(5)
H6 H 0.2693 0.3066 0.4925
C9 C 0.7772(8) 0.4267(7) 0.3466(6)
H7 H 0.8543 0.5243 0.3565
H8 H 0.7052 0.3872 0.2377
H9 H 0.8635 0.3469 0.3948
O1A O 0.7092(5) 0.9487(4) 0.6723(4)
H1A H 0.6844 0.9808 0.5879
O2A O 0.3353(5) 0.9418(4) 0.5809(4)
O3A O 0.5472(5) 0.8536(4) 0.8408(4)
P1A P 0.51805(19) 0.86153(15) 0.67231(14)
C6A C 0.5068(7) 0.6568(6) 0.5768(5)
C7A C 0.3656(7) 0.5391(6) 0.5739(5)
C8A C 0.6372(7) 0.6149(6) 0.5040(5)
H6A H 0.7307 0.6934 0.5075
C9A C 0.2228(8) 0.5733(7) 0.6534(6)
H7A H 0.1457 0.4757 0.6435
H8A H 0.2948 0.6128 0.7623
H9A H 0.1365 0.6531 0.6052
N1A N -0.3273(6) -0.8244(5) -0.0205(4)
C1A C -0.3945(8) -0.6926(7) -0.0797(7)
H2A H -0.5306 -0.6857 -0.1264
C2A C -0.2708(8) -0.5636(7) -0.0754(7)
H3A H -0.3243 -0.4729 -0.1194
C3A C -0.0688(7) -0.5695(6) -0.0061(5)
C4A C -0.0020(8) -0.7084(6) 0.0512(7)
H4A H 0.1335 -0.7197 0.0963
C5A C -0.1333(8) -0.8323(6) 0.0429(7)
H5A H -0.0833 -0.9255 0.0836
Cu1_2 Cu -0.5000 -1.0000 0.0000
Cu1_3 Cu 0.5000 1.0000 1.0000
O3A_2 O 0.5472(5) -0.1464(4) -0.1592(4)
N1A_2 N 0.6727(6) 0.1756(5) -0.0205(4)
O4 O 0.8288(7) -0.1209(6) 0.2393(6)
H10 H 0.8854 -0.0596 0.3262
H11 H 0.8795 -0.2073 0.2184
loop_
_geom_bond_atom_site_label_1
_geom_bond_atom_site_label_2
_geom_bond_site_symmetry_1
_geom_bond_site_symmetry_2
Cu1 O3 1_555 1_555
O1 H1 1_555 1_555
O2 P1 1_555 1_555
O3 P1 1_555 1_555
P1 O1 1_555 1_555
N1 Cu1 1_555 1_555
C1 N1 1_555 1_555
H2 C1 1_555 1_555
C2 C1 1_555 1_555
H3 C2 1_555 1_555
C3 C2 1_555 1_555
C4 C3 1_555 1_555
H4 C4 1_555 1_555
C5 N1 1_555 1_555
H5 C5 1_555 1_555
C6 P1 1_555 1_555
C7 C6 1_555 1_555
C8 C6 1_555 1_555
H6 C8 1_555 1_555
C9 C7 1_555 1_555
H7 C9 1_555 1_555
H8 C9 1_555 1_555
H9 C9 1_555 1_555
O4 H10 1_555 1_555
H11 O4 1_555 1_555
O1A H1A 1_555 1_555
O2A P1A 1_555 1_555
O3A P1A 1_555 1_555
P1A O1A 1_555 1_555
C6A P1A 1_555 1_555
C7A C8 1_555 1_555
C8A C7 1_555 1_555
H6A C8A 1_555 1_555
C9A C7A 1_555 1_555
H7A C9A 1_555 1_555
H8A C9A 1_555 1_555
H9A C9A 1_555 1_555
N1A C1A 1_555 1_555
C1A H2A 1_555 1_555
C2A C1A 1_555 1_555
H3A C2A 1_555 1_555
C3A C3 1_555 1_555
C4A C3A 1_555 1_555
H4A C4A 1_555 1_555
C5A N1A 1_555 1_555
H5A C5A 1_555 1_555
Cu1_2 N1A 1_555 1_555
Cu1_3 O3A 1_555 1_555
O3A_2 Cu1 1_555 1_555
N1A_2 Cu1 1_555 1_555
C4 C5 1_555 1_555
C6A C7A 1_555 1_555
C6A C8A 1_555 1_555
C2A C3A 1_555 1_555
C4A C5A 1_555 1_555

#END
