
#######################################################################
#
#                 Cambridge Crystallographic Data Centre
#                                CCDC 
#
#######################################################################
#
# If this CIF has been generated from an entry in the Cambridge 
# Structural Database, then it will include bibliographic, chemical, 
# crystal, experimental, refinement or atomic coordinate data resulting 
# from the CCDC's data processing and validation procedures.
#
#######################################################################

data_YOLVUS
_symmetry_cell_setting           monoclinic
_symmetry_space_group_name_H-M   'C 2/c'
_symmetry_Int_Tables_number      15
_space_group_name_Hall           '-C 2yn'
loop_
_symmetry_equiv_pos_site_id
_symmetry_equiv_pos_as_xyz
1 x,y,z
2 -x,y,1/2-z
3 1/2+x,1/2+y,z
4 1/2-x,1/2+y,1/2-z
5 -x,-y,-z
6 x,-y,1/2+z
7 1/2-x,1/2-y,-z
8 1/2+x,1/2-y,1/2+z
_cell_length_a                   17.447(2)
_cell_length_b                   8.7795(11)
_cell_length_c                   12.845(3)
_cell_angle_alpha                90
_cell_angle_beta                 123.7030(10)
_cell_angle_gamma                90
_cell_volume                     1636.85
loop_
_atom_site_label
_atom_site_type_symbol
_atom_site_fract_x
_atom_site_fract_y
_atom_site_fract_z
Cd1 Cd 0.2500 0.2500 0.0000
O1 O 0.26156(13) 0.5166(3) 0.01474(17)
H1 H 0.2700 0.5649 0.0798
H2 H 0.2465 0.5785 -0.0465
O2 O 0.21181(14) 0.2169(2) 0.14205(19)
O3 O 0.19412(15) 0.2948(2) 0.31893(19)
O4 O 0.27069(13) 0.4663(2) 0.24231(17)
H3 H 0.2635 0.5399 0.2754
N1 N 0.40601(18) 0.2303(3) 0.1589(2)
P1 P 0.19381(5) 0.34441(8) 0.20722(7)
C1 C -0.0023(2) 0.1868(4) 0.0741(3)
H4 H -0.0635 0.1476 0.0189
H5 H 0.0135 0.1850 0.1586
H6 H 0.0405 0.1249 0.0681
C2 C 0.0019(2) 0.3484(3) 0.0377(3)
C3 C 0.08398(18) 0.4310(3) 0.0913(2)
C4 C 0.08037(18) 0.5810(3) 0.0532(3)
H7 H 0.1349 0.6361 0.0898
C5 C 0.4537(2) 0.3598(4) 0.2053(4)
H8 H 0.4231 0.4524 0.1758
C6 C 0.45313(19) 0.1019(3) 0.2049(3)
H9 H 0.4224 0.0094 0.1758
O2D O -0.21181(14) 0.7831(2) -0.14205(19)
O3D O -0.19412(15) 0.7052(2) -0.31893(19)
O4D O -0.27069(13) 0.5337(2) -0.24231(17)
H3D H -0.2635 0.4601 -0.2754
P1D P -0.19381(5) 0.65559(8) -0.20722(7)
C1D C 0.0023(2) 0.8132(4) -0.0741(3)
H4D H 0.0635 0.8524 -0.0189
H5D H -0.0135 0.8150 -0.1586
H6D H -0.0405 0.8751 -0.0681
C2D C -0.0019(2) 0.6516(3) -0.0377(3)
C3D C -0.08398(18) 0.5690(3) -0.0913(2)
C4D C -0.08037(18) 0.4190(3) -0.0532(3)
H7D H -0.1349 0.3639 -0.0898
N1A N 0.59399(18) 0.2303(3) 0.3411(2)
C5A C 0.5463(2) 0.3598(4) 0.2947(4)
H8A H 0.5769 0.4524 0.3242
C6A C 0.54687(19) 0.1019(3) 0.2951(3)
H9A H 0.5776 0.0094 0.3242
O1F O 0.23844(13) -0.0166(3) -0.01474(17)
H1F H 0.2300 -0.0649 -0.0798
H2F H 0.2535 -0.0785 0.0465
Cd1A Cd 0.7500 0.2500 0.5000
Cd1B Cd -0.2500 0.7500 0.0000
O2F O 0.28819(14) 0.2831(2) -0.14205(19)
N1F N 0.09399(18) 0.2697(3) -0.1589(2)
loop_
_geom_bond_atom_site_label_1
_geom_bond_atom_site_label_2
_geom_bond_site_symmetry_1
_geom_bond_site_symmetry_2
Cd1 O1 1_555 1_555
O1 H1 1_555 1_555
H2 O1 1_555 1_555
O2 Cd1 1_555 1_555
O3 P1 1_555 1_555
O4 H3 1_555 1_555
N1 Cd1 1_555 1_555
P1 O2 1_555 1_555
C1 H4 1_555 1_555
H5 C1 1_555 1_555
H6 C1 1_555 1_555
C2 C1 1_555 1_555
C3 P1 1_555 1_555
C4 C3 1_555 1_555
H7 C4 1_555 1_555
C5 N1 1_555 1_555
H8 C5 1_555 1_555
C6 N1 1_555 1_555
H9 C6 1_555 1_555
O2D P1D 1_555 1_555
O3D P1D 1_555 1_555
O4D H3D 1_555 1_555
P1D O4D 1_555 1_555
C1D H4D 1_555 1_555
H5D C1D 1_555 1_555
H6D C1D 1_555 1_555
C2D C4 1_555 1_555
C3D P1D 1_555 1_555
C4D C2 1_555 1_555
H7D C4D 1_555 1_555
N1A C5A 1_555 1_555
C5A C5 1_555 1_555
H8A C5A 1_555 1_555
C6A C6 1_555 1_555
H9A C6A 1_555 1_555
O1F Cd1 1_555 1_555
H1F O1F 1_555 1_555
H2F O1F 1_555 1_555
Cd1A N1A 1_555 1_555
Cd1B O2D 1_555 1_555
O2F Cd1 1_555 1_555
N1F Cd1 1_555 1_555
O4 P1 1_555 1_555
C2 C3 1_555 1_555
C1D C2D 1_555 1_555
C2D C3D 1_555 1_555
C3D C4D 1_555 1_555
N1A C6A 1_555 1_555

#END
