
#######################################################################
#
#                 Cambridge Crystallographic Data Centre
#                                CCDC 
#
#######################################################################
#
# If this CIF has been generated from an entry in the Cambridge 
# Structural Database, then it will include bibliographic, chemical, 
# crystal, experimental, refinement or atomic coordinate data resulting 
# from the CCDC's data processing and validation procedures.
#
#######################################################################

data_YOLVOM
_symmetry_cell_setting           triclinic
_symmetry_space_group_name_H-M   'P -1'
_symmetry_Int_Tables_number      2
_space_group_name_Hall           '-P 1'
loop_
_symmetry_equiv_pos_site_id
_symmetry_equiv_pos_as_xyz
1 x,y,z
2 -x,-y,-z
_cell_length_a                   9.1979(7)
_cell_length_b                   10.0023(9)
_cell_length_c                   12.2994(9)
_cell_angle_alpha                85.738(3)
_cell_angle_beta                 77.906(2)
_cell_angle_gamma                65.089(3)
_cell_volume                     1003.37
loop_
_atom_site_label
_atom_site_type_symbol
_atom_site_fract_x
_atom_site_fract_y
_atom_site_fract_z
Zn1 Zn 0.33179(5) 0.41462(5) 0.15768(3)
O1 O 0.4469(3) 0.7004(3) -0.0757(2)
O2 O 0.3849(3) 0.7367(3) 0.1293(2)
H1 H 0.3788 0.6776 0.1780
O3 O 0.2723(3) 0.5848(3) 0.04938(19)
O4 O 0.4751(3) 0.3716(3) 0.4244(2)
O5 O 0.3443(3) 0.6515(3) 0.4457(2)
H2 H 0.4105 0.6243 0.4870
O6 O 0.3517(3) 0.5347(3) 0.27194(18)
N1 N 0.3527(4) 0.2175(4) 0.2528(3)
N2 N 0.0959(4) 0.4168(4) 0.1843(3)
P1 P 0.32227(10) 0.71011(11) 0.02651(8)
P2 P 0.34126(11) 0.51731(12) 0.39663(8)
C1 C 0.2926(4) 1.0426(5) 0.0108(3)
H3 H 0.3746 0.9989 -0.0543
H4 H 0.3348 0.9988 0.0760
H5 H 0.2633 1.1467 0.0124
C2 C 0.1434(4) 1.0163(4) 0.0080(3)
C3 C 0.1437(4) 0.8758(4) 0.0136(3)
C4 C 0.0015(4) 0.8629(4) 0.0040(3)
H6 H 0.0032 0.7692 0.0057
C5 C -0.1443(4) 0.6108(4) 0.4854(3)
H7 H -0.2433 0.6858 0.4753
C6 C -0.0107(5) 0.7638(5) 0.3758(4)
H8 H -0.1209 0.8379 0.3913
H9 H 0.0222 0.7410 0.2976
H10 H 0.0607 0.7997 0.3979
C7 C -0.0012(4) 0.6267(4) 0.4395(3)
C8 C 0.1470(4) 0.5115(4) 0.4546(3)
C9 C 0.4903(6) 0.1168(5) 0.2781(4)
H11 H 0.5846 0.1333 0.2579
C10 C 0.5002(7) -0.0109(6) 0.3327(5)
H12 H 0.5979 -0.0783 0.3510
C11 C 0.3598(9) -0.0356(7) 0.3595(5)
H13 H 0.3625 -0.1221 0.3945
C12 C 0.2180(7) 0.0671(6) 0.3343(4)
H14 H 0.1227 0.0522 0.3531
C13 C 0.2163(5) 0.1939(5) 0.2806(3)
C14 C 0.0705(5) 0.3095(5) 0.2470(3)
C15 C -0.0839(6) 0.3104(7) 0.2748(4)
H15 H -0.1009 0.2372 0.3196
C16 C -0.2120(6) 0.4204(7) 0.2355(4)
H16 H -0.3152 0.4201 0.2518
C17 C -0.1871(5) 0.5292(7) 0.1729(4)
H17 H -0.2723 0.6054 0.1468
C18 C -0.0302(5) 0.5229(6) 0.1494(4)
H18 H -0.0123 0.5972 0.1067
O1A O -0.4469(3) 1.2996(3) 0.0757(2)
O2A O -0.3849(3) 1.2633(3) -0.1293(2)
H1A H -0.3788 1.3224 -0.1780
O3A O -0.2723(3) 1.4152(3) -0.04938(19)
P1A P -0.32227(10) 1.28989(11) -0.02651(8)
C1A C -0.2926(4) 0.9574(5) -0.0108(3)
H3A H -0.3746 1.0011 0.0543
H4A H -0.3348 1.0012 -0.0760
H5A H -0.2633 0.8533 -0.0124
C2A C -0.1434(4) 0.9837(4) -0.0080(3)
C3A C -0.1437(4) 1.1242(4) -0.0136(3)
C4A C -0.0015(4) 1.1371(4) -0.0040(3)
H6A H -0.0032 1.2308 -0.0057
O4A O -0.4751(3) 0.6284(3) 0.5756(2)
O5A O -0.3443(3) 0.3485(3) 0.5543(2)
H2A H -0.4105 0.3757 0.5130
O6A O -0.3517(3) 0.4653(3) 0.72806(18)
P2A P -0.34126(11) 0.48269(12) 0.60337(8)
C5A C 0.1443(4) 0.3892(4) 0.5146(3)
H7A H 0.2433 0.3142 0.5247
C6A C 0.0107(5) 0.2362(5) 0.6242(4)
H8A H 0.1209 0.1621 0.6087
H9A H -0.0222 0.2590 0.7024
H10A H -0.0607 0.2003 0.6021
C7A C 0.0012(4) 0.3733(4) 0.5605(3)
C8A C -0.1470(4) 0.4885(4) 0.5454(3)
Zn1A Zn -0.33179(5) 0.58538(5) 0.84232(3)
N1A N -0.3527(4) 0.7825(4) 0.7472(3)
N2A N -0.0959(4) 0.5832(4) 0.8157(3)
C9A C -0.4903(6) 0.8832(5) 0.7219(4)
H11A H -0.5846 0.8667 0.7421
C10A C -0.5002(7) 1.0109(6) 0.6673(5)
H12A H -0.5979 1.0783 0.6490
C11A C -0.3598(9) 1.0356(7) 0.6405(5)
H13A H -0.3625 1.1221 0.6055
C12A C -0.2180(7) 0.9329(6) 0.6657(4)
H14A H -0.1227 0.9478 0.6469
C13A C -0.2163(5) 0.8061(5) 0.7194(3)
C14A C -0.0705(5) 0.6905(5) 0.7530(3)
C15A C 0.0839(6) 0.6896(7) 0.7252(4)
H15A H 0.1009 0.7628 0.6804
C16A C 0.2120(6) 0.5796(7) 0.7645(4)
H16A H 0.3152 0.5799 0.7482
C17A C 0.1871(5) 0.4708(7) 0.8271(4)
H17A H 0.2723 0.3946 0.8532
C18A C 0.0302(5) 0.4771(6) 0.8506(4)
H18A H 0.0123 0.4028 0.8933
Zn1_2 Zn -0.66821(5) 1.41462(5) 0.15768(3)
Zn1A_2 Zn -0.33179(5) 1.58538(5) -0.15768(3)
Zn1A_3 Zn 0.66821(5) 0.58538(5) -0.15768(3)
O1_2 O -0.5531(3) 0.7004(3) 0.9243(2)
O1A_2 O 0.5531(3) 0.2996(3) 0.0757(2)
O3A_2 O -0.2723(3) 0.4152(3) 0.95062(19)
loop_
_geom_bond_atom_site_label_1
_geom_bond_atom_site_label_2
_geom_bond_site_symmetry_1
_geom_bond_site_symmetry_2
Zn1 O3 1_555 1_555
O1 P1 1_555 1_555
O2 H1 1_555 1_555
O3 P1 1_555 1_555
O4 P2 1_555 1_555
O5 H2 1_555 1_555
O6 Zn1 1_555 1_555
N1 Zn1 1_555 1_555
N2 Zn1 1_555 1_555
P1 O2 1_555 1_555
P2 O5 1_555 1_555
C1 H3 1_555 1_555
H4 C1 1_555 1_555
H5 C1 1_555 1_555
C2 C1 1_555 1_555
C3 P1 1_555 1_555
C4 C3 1_555 1_555
H6 C4 1_555 1_555
C5 H7 1_555 1_555
C6 H8 1_555 1_555
H9 C6 1_555 1_555
H10 C6 1_555 1_555
C7 C5 1_555 1_555
C8 P2 1_555 1_555
C9 N1 1_555 1_555
H11 C9 1_555 1_555
C10 C9 1_555 1_555
H12 C10 1_555 1_555
C11 C10 1_555 1_555
H13 C11 1_555 1_555
C12 C11 1_555 1_555
H14 C12 1_555 1_555
C13 N1 1_555 1_555
C14 N2 1_555 1_555
C15 C14 1_555 1_555
H15 C15 1_555 1_555
C16 C15 1_555 1_555
H16 C16 1_555 1_555
C17 C16 1_555 1_555
H17 C17 1_555 1_555
C18 N2 1_555 1_555
H18 C18 1_555 1_555
O1A P1A 1_555 1_555
O2A H1A 1_555 1_555
O3A P1A 1_555 1_555
P1A O2A 1_555 1_555
C1A H3A 1_555 1_555
H4A C1A 1_555 1_555
H5A C1A 1_555 1_555
C2A C4 1_555 1_555
C3A P1A 1_555 1_555
C4A C2 1_555 1_555
H6A C4A 1_555 1_555
O4A P2A 1_555 1_555
O5A H2A 1_555 1_555
O6A P2A 1_555 1_555
P2A O5A 1_555 1_555
C5A C8 1_555 1_555
H7A C5A 1_555 1_555
C6A H8A 1_555 1_555
H9A C6A 1_555 1_555
H10A C6A 1_555 1_555
C7A C5A 1_555 1_555
C8A C5 1_555 1_555
Zn1A O6A 1_555 1_555
N1A Zn1A 1_555 1_555
N2A Zn1A 1_555 1_555
C9A N1A 1_555 1_555
H11A C9A 1_555 1_555
C10A C9A 1_555 1_555
H12A C10A 1_555 1_555
C11A C10A 1_555 1_555
H13A C11A 1_555 1_555
C12A C11A 1_555 1_555
H14A C12A 1_555 1_555
C13A N1A 1_555 1_555
C14A N2A 1_555 1_555
C15A C14A 1_555 1_555
H15A C15A 1_555 1_555
C16A C15A 1_555 1_555
H16A C16A 1_555 1_555
C17A C16A 1_555 1_555
H17A C17A 1_555 1_555
C18A N2A 1_555 1_555
H18A C18A 1_555 1_555
Zn1_2 O1A 1_555 1_555
Zn1A_2 O3A 1_555 1_555
Zn1A_3 O1 1_555 1_555
O1_2 Zn1A 1_555 1_555
O1A_2 Zn1 1_555 1_555
O3A_2 Zn1A 1_555 1_555
O6 P2 1_555 1_555
C2 C3 1_555 1_555
C6 C7 1_555 1_555
C7 C8 1_555 1_555
C12 C13 1_555 1_555
C13 C14 1_555 1_555
C17 C18 1_555 1_555
C1A C2A 1_555 1_555
C2A C3A 1_555 1_555
C3A C4A 1_555 1_555
P2A C8A 1_555 1_555
C6A C7A 1_555 1_555
C7A C8A 1_555 1_555
C12A C13A 1_555 1_555
C13A C14A 1_555 1_555
C17A C18A 1_555 1_555

#END
