
#######################################################################
#
#                 Cambridge Crystallographic Data Centre
#                                CCDC 
#
#######################################################################
#
# If this CIF has been generated from an entry in the Cambridge 
# Structural Database, then it will include bibliographic, chemical, 
# crystal, experimental, refinement or atomic coordinate data resulting 
# from the CCDC's data processing and validation procedures.
#
#######################################################################

data_YOLVAY
_symmetry_cell_setting           triclinic
_symmetry_space_group_name_H-M   'P -1'
_symmetry_Int_Tables_number      2
_space_group_name_Hall           '-P 1'
loop_
_symmetry_equiv_pos_site_id
_symmetry_equiv_pos_as_xyz
1 x,y,z
2 -x,-y,-z
_cell_length_a                   10.3161(14)
_cell_length_b                   11.508(3)
_cell_length_c                   12.0717(16)
_cell_angle_alpha                105.480(3)
_cell_angle_beta                 109.935(2)
_cell_angle_gamma                101.391(4)
_cell_volume                     1230.79
loop_
_atom_site_label
_atom_site_type_symbol
_atom_site_fract_x
_atom_site_fract_y
_atom_site_fract_z
Ni1 Ni -0.15986(6) -0.25343(5) -0.00228(5)
O1 O -0.1763(3) -0.4293(2) 0.0207(2)
H1 H -0.2109 -0.4397 0.0732
H2 H -0.1502 -0.4858 -0.0197
O2 O -0.3806(3) -0.2341(3) 0.2588(3)
H3 H -0.4324 -0.3085 0.2299
O3 O -0.1409(3) -0.0717(3) -0.0141(3)
H4 H -0.1439 -0.0207 0.0499
H5 H -0.1309 -0.0521 -0.0744
O4 O -0.1968(3) -0.3489(2) 0.2483(2)
O5 O -0.2372(3) -0.1949(3) 0.1335(2)
O6 O -0.4346(3) -0.5486(2) -0.1782(2)
O7 O -0.6282(3) -0.4397(3) -0.2183(3)
H6 H -0.6755 -0.5109 -0.2283
O8 O -0.3700(3) -0.3110(2) -0.1345(2)
N1 N 0.0550(4) -0.1795(3) 0.1387(3)
N2 N -0.1055(4) -0.3189(3) -0.1566(3)
P1 P -0.23360(11) -0.22825(10) 0.24659(10)
P2 P -0.47482(11) -0.44142(10) -0.21678(10)
C1 C 0.0039(5) -0.1215(4) 0.4764(4)
H7 H 0.0060 -0.2046 0.4595
C2 C -0.1050(4) -0.0965(4) 0.3885(4)
C3 C -0.1092(5) 0.0273(4) 0.4120(4)
C4 C -0.2219(5) 0.0631(4) 0.3198(4)
H8 H -0.1997 0.1539 0.3494
H9 H -0.3167 0.0243 0.3137
H10 H -0.2206 0.0337 0.2380
C5 C -0.4556(4) -0.5741(4) -0.4340(4)
H11 H -0.4252 -0.6247 -0.3884
C6 C -0.4941(4) -0.4735(4) -0.3777(4)
C7 C -0.5403(4) -0.3958(4) -0.4453(4)
C8 C -0.5859(6) -0.2843(4) -0.3930(4)
H12 H -0.5063 -0.2238 -0.3169
H13 H -0.6673 -0.3134 -0.3747
H14 H -0.6130 -0.2446 -0.4542
C9 C 0.1503(5) -0.2425(5) 0.1455(4)
H15 H 0.1227 -0.3202 0.0809
C10 C 0.0988(5) -0.0673(4) 0.2339(4)
H16 H 0.0351 -0.0201 0.2318
C11 C 0.2874(5) -0.2005(5) 0.2418(4)
H17 H 0.3496 -0.2487 0.2400
C12 C 0.2343(5) -0.0190(4) 0.3347(4)
H18 H 0.2598 0.0589 0.3984
C13 C 0.3325(5) -0.0871(4) 0.3406(4)
C14 C 0.4764(5) -0.0458(4) 0.4454(4)
H19 H 0.5404 -0.0891 0.4329
C15 C -0.0513(5) -0.4150(4) -0.1755(4)
H20 H -0.0273 -0.4496 -0.1127
C16 C -0.1438(5) -0.2751(4) -0.2513(4)
H21 H -0.1851 -0.2102 -0.2429
C17 C -0.0285(5) -0.4664(4) -0.2815(4)
H22 H 0.0104 -0.5329 -0.2887
C18 C -0.1252(5) -0.3213(4) -0.3595(4)
H23 H -0.1539 -0.2874 -0.4223
C19 C -0.0640(5) -0.4179(4) -0.3772(4)
C20 C -0.0408(5) -0.4644(4) -0.4916(4)
H24 H -0.0883 -0.4414 -0.5589
O2A O 0.3806(3) 0.2341(3) 0.7412(3)
H3A H 0.4324 0.3085 0.7701
O4A O 0.1968(3) 0.3489(2) 0.7517(2)
O5A O 0.2372(3) 0.1949(3) 0.8665(2)
P1A P 0.23360(11) 0.22825(10) 0.75341(10)
C1A C -0.0039(5) 0.1215(4) 0.5236(4)
H7A H -0.0060 0.2046 0.5405
C2A C 0.1050(4) 0.0965(4) 0.6115(4)
C3A C 0.1092(5) -0.0273(4) 0.5880(4)
C4A C 0.2219(5) -0.0631(4) 0.6802(4)
H8A H 0.1997 -0.1539 0.6506
H9A H 0.3167 -0.0243 0.6863
H10A H 0.2206 -0.0337 0.7620
O6A O -0.5654(3) -0.4514(2) -0.8218(2)
O7A O -0.3718(3) -0.5603(3) -0.7817(3)
H6A H -0.3245 -0.4891 -0.7717
O8A O -0.6300(3) -0.6890(2) -0.8655(2)
P2A P -0.52518(11) -0.55858(10) -0.78322(10)
C5A C -0.5444(4) -0.4259(4) -0.5660(4)
H11A H -0.5748 -0.3753 -0.6116
C6A C -0.5059(4) -0.5265(4) -0.6223(4)
C7A C -0.4597(4) -0.6042(4) -0.5547(4)
C8A C -0.4141(6) -0.7157(4) -0.6070(4)
H12A H -0.4937 -0.7762 -0.6831
H13A H -0.3327 -0.6866 -0.6253
H14A H -0.3870 -0.7554 -0.5458
N1A N 0.9450(4) 0.1795(3) 0.8613(3)
C9A C 0.8497(5) 0.2425(5) 0.8545(4)
H15A H 0.8773 0.3202 0.9191
C10A C 0.9012(5) 0.0673(4) 0.7661(4)
H16A H 0.9649 0.0201 0.7682
C11A C 0.7126(5) 0.2005(5) 0.7582(4)
H17A H 0.6504 0.2487 0.7600
C12A C 0.7657(5) 0.0190(4) 0.6653(4)
H18A H 0.7402 -0.0589 0.6016
C13A C 0.6675(5) 0.0871(4) 0.6594(4)
C14A C 0.5236(5) 0.0458(4) 0.5546(4)
H19A H 0.4596 0.0891 0.5671
N2A N 0.1055(4) -0.6811(3) -0.8434(3)
C15A C 0.0513(5) -0.5850(4) -0.8245(4)
H20A H 0.0273 -0.5504 -0.8873
C16A C 0.1438(5) -0.7249(4) -0.7487(4)
H21A H 0.1851 -0.7898 -0.7571
C17A C 0.0285(5) -0.5336(4) -0.7185(4)
H22A H -0.0104 -0.4671 -0.7113
C18A C 0.1252(5) -0.6787(4) -0.6405(4)
H23A H 0.1539 -0.7126 -0.5777
C19A C 0.0640(5) -0.5821(4) -0.6228(4)
C20A C 0.0408(5) -0.5356(4) -0.5084(4)
H24A H 0.0883 -0.5586 -0.4411
Ni1A Ni -0.84014(6) -0.74657(5) -0.99772(5)
O1A O -0.8237(3) -0.5707(2) -1.0207(2)
H1A H -0.7891 -0.5603 -1.0732
H2A H -0.8498 -0.5142 -0.9803
O3A O -0.8591(3) -0.9283(3) -0.9859(3)
H4A H -0.8561 -0.9793 -1.0499
H5A H -0.8691 -0.9479 -0.9256
Ni1A_2 Ni 0.15986(6) -0.74657(5) -0.99772(5)
Ni1A_3 Ni 0.15986(6) 0.25343(5) 1.00228(5)
Ni1A_4 Ni 1.15986(6) 0.25343(5) 1.00228(5)
O5A_2 O -0.7628(3) -0.8051(3) -1.1335(2)
N1A_2 N -1.0550(4) -0.8205(3) -1.1387(3)
N2A_2 N -0.8945(4) -0.6811(3) -0.8434(3)
O9 O -0.5409(4) -0.1914(4) -0.0051(4)
H25 H -0.6160 -0.2256 0.0036
H26 H -0.5545 -0.2619 -0.0600
O10 O -0.3856(4) -0.0214(4) -0.0951(4)
H27 H -0.3828 0.0543 -0.0603
H28 H -0.4432 -0.0785 -0.0864
loop_
_geom_bond_atom_site_label_1
_geom_bond_atom_site_label_2
_geom_bond_site_symmetry_1
_geom_bond_site_symmetry_2
Ni1 O1 1_555 1_555
O1 H1 1_555 1_555
H2 O1 1_555 1_555
O2 H3 1_555 1_555
O3 Ni1 1_555 1_555
H4 O3 1_555 1_555
H5 O3 1_555 1_555
O4 P1 1_555 1_555
O5 Ni1 1_555 1_555
O6 P2 1_555 1_555
O7 H6 1_555 1_555
O8 Ni1 1_555 1_555
N1 Ni1 1_555 1_555
N2 Ni1 1_555 1_555
P1 O2 1_555 1_555
P2 O7 1_555 1_555
C1 H7 1_555 1_555
C2 P1 1_555 1_555
C3 C2 1_555 1_555
C4 C3 1_555 1_555
H8 C4 1_555 1_555
H9 C4 1_555 1_555
H10 C4 1_555 1_555
C5 H11 1_555 1_555
C6 P2 1_555 1_555
C7 C6 1_555 1_555
C8 C7 1_555 1_555
H12 C8 1_555 1_555
H13 C8 1_555 1_555
H14 C8 1_555 1_555
C9 N1 1_555 1_555
H15 C9 1_555 1_555
C10 N1 1_555 1_555
H16 C10 1_555 1_555
C11 C9 1_555 1_555
H17 C11 1_555 1_555
C12 C10 1_555 1_555
H18 C12 1_555 1_555
C13 C11 1_555 1_555
C14 C13 1_555 1_555
H19 C14 1_555 1_555
C15 N2 1_555 1_555
H20 C15 1_555 1_555
C16 N2 1_555 1_555
H21 C16 1_555 1_555
C17 C15 1_555 1_555
H22 C17 1_555 1_555
C18 C16 1_555 1_555
H23 C18 1_555 1_555
C19 C17 1_555 1_555
C20 C19 1_555 1_555
H24 C20 1_555 1_555
O9 H25 1_555 1_555
H26 O9 1_555 1_555
O10 H27 1_555 1_555
H28 O10 1_555 1_555
O2A H3A 1_555 1_555
O4A P1A 1_555 1_555
O5A P1A 1_555 1_555
P1A O2A 1_555 1_555
C1A C3 1_555 1_555
H7A C1A 1_555 1_555
C2A P1A 1_555 1_555
C3A C1 1_555 1_555
C4A C3A 1_555 1_555
H8A C4A 1_555 1_555
H9A C4A 1_555 1_555
H10A C4A 1_555 1_555
O6A P2A 1_555 1_555
O7A H6A 1_555 1_555
O8A P2A 1_555 1_555
P2A O7A 1_555 1_555
C5A C7 1_555 1_555
H11A C5A 1_555 1_555
C6A P2A 1_555 1_555
C7A C5 1_555 1_555
C8A C7A 1_555 1_555
H12A C8A 1_555 1_555
H13A C8A 1_555 1_555
H14A C8A 1_555 1_555
N1A C9A 1_555 1_555
C9A H15A 1_555 1_555
C10A N1A 1_555 1_555
H16A C10A 1_555 1_555
C11A C9A 1_555 1_555
H17A C11A 1_555 1_555
C12A C10A 1_555 1_555
H18A C12A 1_555 1_555
C13A C11A 1_555 1_555
C14A C14 1_555 1_555
H19A C14A 1_555 1_555
N2A C15A 1_555 1_555
C15A H20A 1_555 1_555
C16A N2A 1_555 1_555
H21A C16A 1_555 1_555
C17A C15A 1_555 1_555
H22A C17A 1_555 1_555
C18A C16A 1_555 1_555
H23A C18A 1_555 1_555
C19A C17A 1_555 1_555
C20A C20 1_555 1_555
H24A C20A 1_555 1_555
Ni1A O8A 1_555 1_555
O1A Ni1A 1_555 1_555
H1A O1A 1_555 1_555
H2A O1A 1_555 1_555
O3A Ni1A 1_555 1_555
H4A O3A 1_555 1_555
H5A O3A 1_555 1_555
Ni1A_2 N2A 1_555 1_555
Ni1A_3 O5A 1_555 1_555
Ni1A_4 N1A 1_555 1_555
O5A_2 Ni1A 1_555 1_555
N1A_2 Ni1A 1_555 1_555
N2A_2 Ni1A 1_555 1_555
O5 P1 1_555 1_555
O8 P2 1_555 1_555
C1 C2 1_555 1_555
C5 C6 1_555 1_555
C12 C13 1_555 1_555
C18 C19 1_555 1_555
C1A C2A 1_555 1_555
C2A C3A 1_555 1_555
C5A C6A 1_555 1_555
C6A C7A 1_555 1_555
C12A C13A 1_555 1_555
C13A C14A 1_555 1_555
C18A C19A 1_555 1_555
C19A C20A 1_555 1_555

#END
