
#######################################################################
#
#                 Cambridge Crystallographic Data Centre
#                                CCDC 
#
#######################################################################
#
# If this CIF has been generated from an entry in the Cambridge 
# Structural Database, then it will include bibliographic, chemical, 
# crystal, experimental, refinement or atomic coordinate data resulting 
# from the CCDC's data processing and validation procedures.
#
#######################################################################

data_YOLWUT
_symmetry_cell_setting           triclinic
_symmetry_space_group_name_H-M   'P -1'
_symmetry_Int_Tables_number      2
_space_group_name_Hall           '-P 1'
loop_
_symmetry_equiv_pos_site_id
_symmetry_equiv_pos_as_xyz
1 x,y,z
2 -x,-y,-z
_cell_length_a                   7.1200(4)
_cell_length_b                   7.2986(5)
_cell_length_c                   10.5043(6)
_cell_angle_alpha                78.615(5)
_cell_angle_beta                 80.272(5)
_cell_angle_gamma                88.585(5)
_cell_volume                     527.41
loop_
_atom_site_label
_atom_site_type_symbol
_atom_site_fract_x
_atom_site_fract_y
_atom_site_fract_z
P1 P 0.52072(12) 0.27358(12) 0.88291(9)
P2 P 0.11216(12) -0.11596(12) 0.78868(9)
Ca1 Ca 0.62332(9) -0.17881(9) 0.74901(7)
O1 O 0.6024(4) 0.1128(3) 0.8243(3)
O2 O 0.5323(3) 0.2703(3) 1.0242(2)
O3 O 0.6102(4) 0.4614(3) 0.7954(2)
H1 H 0.660(5) 0.441(5) 0.724(3)
O4 O 0.3042(3) -0.1488(3) 0.7115(2)
O5 O 0.1264(4) -0.1573(4) 0.9384(3)
H2 H 0.232(4) -0.198(6) 0.948(4)
O6 O -0.0595(3) -0.2111(3) 0.7675(3)
O7 O 0.3299(4) 0.2864(4) 0.4699(3)
O8 O 0.2152(4) 0.5730(3) 0.4252(3)
O9 O 0.6963(5) 0.0661(4) 0.5642(3)
H3 H 0.723(7) 0.169(4) 0.571(5)
H4 H 0.691(8) 0.065(7) 0.486(2)
N1 N 0.2383(4) 0.2565(4) 0.7354(3)
H5 H 0.338(4) 0.203(5) 0.701(4)
C1 C 0.2702(5) 0.2799(5) 0.8704(3)
H6 H 0.2035 0.1808 0.9368
H7 H 0.2176 0.3982 0.8875
C2 C 0.0674(5) 0.1334(5) 0.7437(4)
H8 H 0.0248 0.1582 0.6590
H9 H -0.0351 0.1670 0.8081
C3 C 0.2213(5) 0.4406(5) 0.6476(4)
H10 H 0.3123 0.5276 0.6623
H11 H 0.0946 0.4892 0.6699
C4 C 0.2566(5) 0.4274(5) 0.5039(4)
Ca1_2 Ca -0.37668(9) -0.17881(9) 0.74901(7)
Ca1_3 Ca 0.62332(9) 0.82119(9) 0.74901(7)
Ca1A Ca 0.37668(9) 0.17881(9) 0.25099(7)
Ca1A_2 Ca 0.37668(9) 0.17881(9) 1.25099(7)
O2A O 0.4677(3) -0.2703(3) 0.9758(2)
O3_2 O 0.6102(4) -0.5386(3) 0.7954(2)
O6_2 O 0.9405(3) -0.2111(3) 0.7675(3)
O7A O 0.6701(4) -0.2864(4) 0.5301(3)
loop_
_geom_bond_atom_site_label_1
_geom_bond_atom_site_label_2
_geom_bond_site_symmetry_1
_geom_bond_site_symmetry_2
P1 O1 1_555 1_555
P2 O4 1_555 1_555
Ca1 O1 1_555 1_555
O2 P1 1_555 1_555
O3 P1 1_555 1_555
H1 O3 1_555 1_555
O4 Ca1 1_555 1_555
O5 P2 1_555 1_555
H2 O5 1_555 1_555
O6 P2 1_555 1_555
O7 C4 1_555 1_555
O8 C4 1_555 1_555
O9 Ca1 1_555 1_555
H3 O9 1_555 1_555
H4 O9 1_555 1_555
N1 H5 1_555 1_555
C1 P1 1_555 1_555
H6 C1 1_555 1_555
H7 C1 1_555 1_555
C2 P2 1_555 1_555
H8 C2 1_555 1_555
H9 C2 1_555 1_555
C3 N1 1_555 1_555
H10 C3 1_555 1_555
H11 C3 1_555 1_555
C4 C3 1_555 1_555
Ca1_2 O6 1_555 1_555
Ca1_3 O3 1_555 1_555
Ca1A O7 1_555 1_555
Ca1A_2 O2 1_555 1_555
O2A Ca1 1_555 1_555
O3_2 Ca1 1_555 1_555
O6_2 Ca1 1_555 1_555
O7A Ca1 1_555 1_555
N1 C1 1_555 1_555
N1 C2 1_555 1_555

#END
