
#######################################################################
#
#                 Cambridge Crystallographic Data Centre
#                                CCDC 
#
#######################################################################
#
# If this CIF has been generated from an entry in the Cambridge 
# Structural Database, then it will include bibliographic, chemical, 
# crystal, experimental, refinement or atomic coordinate data resulting 
# from the CCDC's data processing and validation procedures.
#
#######################################################################

data_YOLXII
_symmetry_cell_setting           monoclinic
_symmetry_space_group_name_H-M   'P 21/c'
_symmetry_Int_Tables_number      14
_space_group_name_Hall           '-P 2ybc'
loop_
_symmetry_equiv_pos_site_id
_symmetry_equiv_pos_as_xyz
1 x,y,z
2 -x,1/2+y,1/2-z
3 -x,-y,-z
4 x,1/2-y,1/2+z
_cell_length_a                   7.3135(2)
_cell_length_b                   7.6312(2)
_cell_length_c                   20.5697(5)
_cell_angle_alpha                90
_cell_angle_beta                 99.4620(10)
_cell_angle_gamma                90
_cell_volume                     1132.39
loop_
_atom_site_label
_atom_site_type_symbol
_atom_site_fract_x
_atom_site_fract_y
_atom_site_fract_z
Pb1 Pb 0.38905(2) 1.09331(2) 0.11800(2)
P1 P 0.47290(8) 0.63084(8) 0.18771(3)
P2 P 0.91493(8) 0.99291(9) 0.15421(3)
O1 O 0.4213(3) 0.7966(2) 0.15094(10)
O2 O 0.4371(3) 0.6171(3) 0.25712(9)
O3 O 0.3801(3) 0.4730(2) 0.14602(10)
H1 H 0.340(5) 0.490(6) 0.1070(7)
O4 O 0.7425(3) 1.0460(3) 0.10834(9)
O5 O 1.0909(3) 1.0881(3) 0.15018(13)
O6 O 0.8793(3) 0.9938(3) 0.22729(9)
H2 H 0.779(3) 1.039(5) 0.229(2)
O7 O 0.6747(4) 0.7090(3) -0.00090(11)
O8 O 0.7718(3) 0.4490(3) -0.03171(10)
O9 O 0.2560(5) 0.9149(3) 0.02347(12)
H3 H 0.270(7) 0.941(6) -0.0141(11)
H4 H 0.252(7) 0.8077(14) 0.024(3)
N1 N 0.7786(3) 0.6576(3) 0.12668(10)
H5 H 0.6808 0.7342 0.1041
C1 C 0.7211(3) 0.6069(4) 0.19134(12)
H6 H 0.7854 0.6805 0.2262
H7 H 0.7562 0.4862 0.2016
C2 C 0.9550(3) 0.7628(3) 0.13582(13)
H8 H 1.0096 0.7559 0.0960
H9 H 1.0424 0.7127 0.1716
C3 C 0.7889(4) 0.5037(3) 0.08223(12)
H10 H 0.7014 0.4145 0.0907
H11 H 0.9124 0.4535 0.0907
C4 C 0.7437(4) 0.5633(3) 0.01050(13)
Pb1_2 Pb 1.38905(2) 1.09331(2) 0.11800(2)
Pb1A Pb 0.61095(2) 0.59331(2) 0.38200(2)
Pb1B Pb 0.61095(2) 0.90669(2) -0.11800(2)
O2A O 0.5629(3) 1.1171(3) 0.24288(9)
O5_2 O 0.0909(3) 1.0881(3) 0.15018(13)
O7B O 0.3253(4) 1.2910(3) 0.00090(11)
loop_
_geom_bond_atom_site_label_1
_geom_bond_atom_site_label_2
_geom_bond_site_symmetry_1
_geom_bond_site_symmetry_2
Pb1 O1 1_555 1_555
P1 O1 1_555 1_555
P2 O4 1_555 1_555
O2 P1 1_555 1_555
O3 P1 1_555 1_555
H1 O3 1_555 1_555
O4 Pb1 1_555 1_555
O5 P2 1_555 1_555
O6 P2 1_555 1_555
H2 O6 1_555 1_555
O7 C4 1_555 1_555
O8 C4 1_555 1_555
O9 Pb1 1_555 1_555
H3 O9 1_555 1_555
H4 O9 1_555 1_555
N1 H5 1_555 1_555
C1 P1 1_555 1_555
H6 C1 1_555 1_555
H7 C1 1_555 1_555
C2 P2 1_555 1_555
H8 C2 1_555 1_555
H9 C2 1_555 1_555
C3 N1 1_555 1_555
H10 C3 1_555 1_555
H11 C3 1_555 1_555
C4 C3 1_555 1_555
Pb1_2 O5 1_555 1_555
Pb1A O2 1_555 1_555
Pb1B O7 1_555 1_555
O2A Pb1 1_555 1_555
O5_2 Pb1 1_555 1_555
O7B Pb1 1_555 1_555
N1 C1 1_555 1_555
N1 C2 1_555 1_555

#END
