
#######################################################################
#
#                 Cambridge Crystallographic Data Centre
#                                CCDC 
#
#######################################################################
#
# If this CIF has been generated from an entry in the Cambridge 
# Structural Database, then it will include bibliographic, chemical, 
# crystal, experimental, refinement or atomic coordinate data resulting 
# from the CCDC's data processing and validation procedures.
#
#######################################################################

data_YOLZIK
_symmetry_cell_setting           monoclinic
_symmetry_space_group_name_H-M   'P 21'
_symmetry_Int_Tables_number      4
_space_group_name_Hall           'P 2yb'
loop_
_symmetry_equiv_pos_site_id
_symmetry_equiv_pos_as_xyz
1 x,y,z
2 -x,1/2+y,-z
_cell_length_a                   4.8090(6)
_cell_length_b                   19.923(3)
_cell_length_c                   5.4926(7)
_cell_angle_alpha                90
_cell_angle_beta                 103.349(2)
_cell_angle_gamma                90
_cell_volume                     512.026
loop_
_atom_site_label
_atom_site_type_symbol
_atom_site_fract_x
_atom_site_fract_y
_atom_site_fract_z
Ag1 Ag 0.21400(8) 0.85797(2) 0.42537(7)
Ag2 Ag -0.44183(8) 0.86665(2) -0.00906(7)
C1 C -0.0237(12) 0.7561(3) 0.0222(10)
C2 C 0.1412(13) 0.6940(3) 0.1422(11)
H1 H 0.0172 0.6539 0.1016
H2 H 0.31 0.6872 0.0704
C3 C 0.2393(11) 0.7005(3) 0.4242(10)
H3 H 0.0677 0.7047 0.4969
C4 C 0.4050(11) 0.6373(3) 0.5296(10)
C5 C 0.3906(12) 0.5248(3) 0.6968(11)
H4 H 0.5705 0.5204 0.6362
C6 C 0.4728(13) 0.5255(3) 0.9815(11)
H5 H 0.5867 0.5662 1.04
H6 H 0.2977 0.527 1.0471
C7 C 0.1979(11) 0.4653(3) 0.5932(10)
N1 N 0.4207(10) 0.7606(2) 0.4920(9)
H7 H 0.5736 0.759 0.3984
H8 H 0.5144 0.7576 0.6722
N2 N 0.2534(9) 0.5880(2) 0.5981(9)
H9 H 0.0687 0.5933 0.5841
N3 N 0.6403(11) 0.4654(3) 1.0789(10)
H10 H 0.7061 0.4708 1.2624
H11 H 0.813 0.4652 1.0096
O1 O 0.0593(9) 0.7890(2) -0.1367(8)
O2 O -0.2467(9) 0.7703(2) 0.1020(9)
O3 O 0.6646(8) 0.6332(2) 0.5419(9)
O4 O 0.2658(10) 0.4293(3) 0.4316(9)
O5 O -0.0192(8) 0.4563(2) 0.6805(8)
Ag1_2 Ag -0.78600(8) 0.85797(2) -0.57463(7)
Ag1_3 Ag -0.78600(8) 0.85797(2) 0.42537(7)
Ag1A Ag -0.21400(8) 0.35797(2) 0.57463(7)
Ag2_2 Ag 0.55817(8) 0.86665(2) -0.00906(7)
Ag2_3 Ag 0.55817(8) 0.86665(2) 0.99094(7)
Ag2A Ag 0.44183(8) 0.36665(2) 1.00906(7)
N3A N -0.6403(11) 0.9654(3) -0.0789(10)
O5A O 0.0192(8) 0.9563(2) 0.3195(8)
loop_
_geom_bond_atom_site_label_1
_geom_bond_atom_site_label_2
_geom_bond_site_symmetry_1
_geom_bond_site_symmetry_2
Ag1 N1 1_555 1_555
Ag2 O2 1_555 1_555
C1 C2 1_555 1_555
C2 H1 1_555 1_555
H2 C2 1_555 1_555
C3 C2 1_555 1_555
H3 C3 1_555 1_555
C4 C3 1_555 1_555
C5 H4 1_555 1_555
C6 C5 1_555 1_555
H5 C6 1_555 1_555
H6 C6 1_555 1_555
C7 C5 1_555 1_555
N1 C3 1_555 1_555
H7 N1 1_555 1_555
H8 N1 1_555 1_555
N2 C4 1_555 1_555
H9 N2 1_555 1_555
N3 C6 1_555 1_555
H10 N3 1_555 1_555
H11 N3 1_555 1_555
O1 C1 1_555 1_555
O2 C1 1_555 1_555
O3 C4 1_555 1_555
O4 C7 1_555 1_555
O5 C7 1_555 1_555
Ag1_2 Ag2 1_555 1_555
Ag1_3 Ag2 1_555 1_555
Ag1A O5 1_555 1_555
Ag2_2 Ag1 1_555 1_555
Ag2_3 Ag1 1_555 1_555
Ag2A N3 1_555 1_555
N3A Ag2 1_555 1_555
O5A Ag1 1_555 1_555
C5 N2 1_555 1_555

#END
