
#######################################################################
#
#                 Cambridge Crystallographic Data Centre
#                                CCDC 
#
#######################################################################
#
# If this CIF has been generated from an entry in the Cambridge 
# Structural Database, then it will include bibliographic, chemical, 
# crystal, experimental, refinement or atomic coordinate data resulting 
# from the CCDC's data processing and validation procedures.
#
#######################################################################

data_YOMBAE
_symmetry_cell_setting           monoclinic
_symmetry_space_group_name_H-M   'C 2/c'
_symmetry_Int_Tables_number      15
_space_group_name_Hall           '-C 2yn'
loop_
_symmetry_equiv_pos_site_id
_symmetry_equiv_pos_as_xyz
1 x,y,z
2 1/2+x,1/2+y,z
3 -x,y,1/2-z
4 1/2-x,1/2+y,1/2-z
5 -x,-y,-z
6 1/2-x,1/2-y,-z
7 x,-y,1/2+z
8 1/2+x,1/2-y,1/2+z
_cell_length_a                   17.667(3)
_cell_length_b                   13.669(3)
_cell_length_c                   25.067(5)
_cell_angle_alpha                90
_cell_angle_beta                 107.479(3)
_cell_angle_gamma                90
_cell_volume                     5773.93
loop_
_atom_site_label
_atom_site_type_symbol
_atom_site_fract_x
_atom_site_fract_y
_atom_site_fract_z
Mo1 Mo 0.08136(5) 0.49569(7) 0.17231(4)
Mo2 Mo 0.0000 0.35247(11) 0.2500
Mo3 Mo -0.07060(6) 0.73312(7) 0.29104(5)
Cu1 Cu 0.0000 0.5000 0.0000
P1 P 0.09439(16) 0.5688(2) 0.30899(12)
O1 O 0.0898(4) 0.4855(5) 0.2672(3)
O2 O 0.0110(5) 0.3940(6) 0.1802(3)
O3 O 0.0117(4) 0.5935(5) 0.3139(3)
O4 O 0.1281(4) 0.6256(6) 0.1886(3)
O5 O 0.0459(4) 0.5041(5) 0.1003(3)
O6 O 0.1684(5) 0.4337(6) 0.1842(3)
O7 O 0.0789(6) 0.2751(7) 0.2735(4)
O8 O 0.1303(4) 0.6592(6) 0.2924(3)
O9 O 0.0000 0.7714(8) 0.2500
O10 O -0.0192(5) 0.7780(6) 0.3551(4)
O11 O -0.1457(5) 0.8158(6) 0.2703(4)
O12 O 0.1430(4) 0.5347(7) 0.3688(3)
H1 H 0.1888 0.5226 0.3695
N1 N 0.0822(5) 0.6060(6) -0.0009(4)
N2 N 0.0868(5) 0.3996(7) 0.0028(4)
C1 C 0.1052(8) 0.6179(11) -0.0463(5)
H2 H 0.0762 0.5869 -0.0791
C2 C 0.1681(8) 0.6725(11) -0.0474(6)
H3 H 0.1805 0.6778 -0.0808
C3 C 0.2152(6) 0.7212(8) -0.0006(5)
C4 C 0.1889(9) 0.7097(10) 0.0463(6)
H4 H 0.2165 0.7405 0.0795
C5 C 0.1244(8) 0.6551(10) 0.0447(6)
H5 H 0.1086 0.6514 0.0769
C6 C 0.0853(7) 0.3448(10) -0.0416(5)
H6 H 0.0407 0.3479 -0.0728
C7 C 0.1462(7) 0.2843(10) -0.0430(5)
H7 H 0.1404 0.2452 -0.0744
C8 C 0.2158(7) 0.2792(9) 0.0001(5)
C9 C 0.2165(7) 0.3357(10) 0.0469(5)
H8 H 0.2604 0.3333 0.0786
C10 C 0.1524(7) 0.3955(10) 0.0466(5)
H9 H 0.1553 0.4337 0.0778
Mo1B Mo -0.08136(5) 0.49569(7) 0.32769(4)
Mo3B Mo 0.07060(6) 0.73312(7) 0.20896(5)
Cu1A Cu 0.5000 1.0000 0.0000
Cu1A_2 Cu 0.5000 0.0000 0.0000
Cu1F Cu 0.0000 0.5000 0.5000
P1B P -0.09439(16) 0.5688(2) 0.19101(12)
O1B O -0.0898(4) 0.4855(5) 0.2328(3)
O2B O -0.0110(5) 0.3940(6) 0.3198(3)
O3B O -0.0117(4) 0.5935(5) 0.1861(3)
O4B O -0.1281(4) 0.6256(6) 0.3114(3)
O5B O -0.0459(4) 0.5041(5) 0.3997(3)
O5D O -0.0459(4) 0.4959(5) -0.1003(3)
O6B O -0.1684(5) 0.4337(6) 0.3158(3)
O7B O -0.0789(6) 0.2751(7) 0.2265(4)
O8B O -0.1303(4) 0.6592(6) 0.2076(3)
O10B O 0.0192(5) 0.7780(6) 0.1449(4)
O11B O 0.1457(5) 0.8158(6) 0.2297(4)
O12B O -0.1430(4) 0.5347(7) 0.1312(3)
H1B H -0.1888 0.5226 0.1305
N1E N 0.4178(5) 0.8940(6) 0.0009(4)
N1D N -0.0822(5) 0.3940(6) 0.0009(4)
N2E N 0.4132(5) 0.1004(7) -0.0028(4)
N2D N -0.0868(5) 0.6004(7) -0.0028(4)
C1E C 0.3948(8) 0.8821(11) 0.0463(5)
H2E H 0.4238 0.9131 0.0791
C2E C 0.3319(8) 0.8275(11) 0.0474(6)
H3E H 0.3195 0.8222 0.0808
C3E C 0.2848(6) 0.7788(8) 0.0006(5)
C4E C 0.3111(9) 0.7903(10) -0.0463(6)
H4E H 0.2835 0.7595 -0.0795
C5E C 0.3756(8) 0.8449(10) -0.0447(6)
H5E H 0.3914 0.8486 -0.0769
C6E C 0.4147(7) 0.1552(10) 0.0416(5)
H6E H 0.4593 0.1521 0.0728
C7E C 0.3538(7) 0.2157(10) 0.0430(5)
H7E H 0.3596 0.2548 0.0744
C8E C 0.2842(7) 0.2208(9) -0.0001(5)
C9E C 0.2835(7) 0.1643(10) -0.0469(5)
H8E H 0.2396 0.1667 -0.0786
C10E C 0.3476(7) 0.1045(10) -0.0466(5)
H9E H 0.3447 0.0663 -0.0778
O13 O 0.3681(11) 0.6143(18) 0.6609(7)
O14 O 0.2384(8) 0.3181(13) 0.3285(5)
O15 O 0.2918(7) 0.4907(10) 0.3978(5)
N3 N 0.3869(10) 0.4351(14) 0.5018(8)
N4 N 0.7198(10) 0.3693(16) 0.7341(8)
C11 C 0.3824(12) 0.4706(18) 0.5515(10)
H10 H 0.3385 0.5040 0.5553
C12 C 0.4474(12) 0.4528(18) 0.5942(10)
H11 H 0.4462 0.4768 0.6286
C13 C 0.5149(12) 0.4050(18) 0.5949(10)
C14 C 0.5142(11) 0.3706(18) 0.5443(9)
H12 H 0.5567 0.3340 0.5404
C15 C 0.4517(11) 0.3897(18) 0.4995(9)
H13 H 0.4542 0.3696 0.4646
C16 C 0.6795(12) 0.4431(18) 0.7312(10)
H14 H 0.6984 0.4924 0.7574
C17 C 0.6077(12) 0.4565(18) 0.6912(10)
H15 H 0.5773 0.5123 0.6905
C18 C 0.5827(12) 0.3821(19) 0.6517(10)
C19 C 0.6225(12) 0.3044(19) 0.6602(10)
H16 H 0.6038 0.2480 0.6398
C20 C 0.6923(12) 0.3060(19) 0.6995(10)
H17 H 0.7245 0.2516 0.7009
loop_
_geom_bond_atom_site_label_1
_geom_bond_atom_site_label_2
_geom_bond_site_symmetry_1
_geom_bond_site_symmetry_2
Mo1 O1 1_555 1_555
Mo2 O1 1_555 1_555
Mo3 O3 1_555 1_555
Cu1 O5 1_555 1_555
P1 O1 1_555 1_555
O2 Mo1 1_555 1_555
O3 P1 1_555 1_555
O4 Mo1 1_555 1_555
O5 Mo1 1_555 1_555
O6 Mo1 1_555 1_555
O7 Mo2 1_555 1_555
O8 P1 1_555 1_555
O9 Mo3 1_555 1_555
O10 Mo3 1_555 1_555
O11 Mo3 1_555 1_555
O12 P1 1_555 1_555
H1 O12 1_555 1_555
N1 Cu1 1_555 1_555
N2 Cu1 1_555 1_555
N3 C11 1_555 1_555
N4 C16 1_555 1_555
C1 N1 1_555 1_555
H2 C1 1_555 1_555
C2 C1 1_555 1_555
H3 C2 1_555 1_555
C3 C2 1_555 1_555
C4 C3 1_555 1_555
H4 C4 1_555 1_555
C5 N1 1_555 1_555
H5 C5 1_555 1_555
C6 N2 1_555 1_555
H6 C6 1_555 1_555
C7 C6 1_555 1_555
H7 C7 1_555 1_555
C8 C7 1_555 1_555
C9 C8 1_555 1_555
H8 C9 1_555 1_555
C10 N2 1_555 1_555
H9 C10 1_555 1_555
C11 H10 1_555 1_555
C12 C11 1_555 1_555
H11 C12 1_555 1_555
C13 C12 1_555 1_555
C14 C13 1_555 1_555
H12 C14 1_555 1_555
C15 N3 1_555 1_555
H13 C15 1_555 1_555
C16 H14 1_555 1_555
C17 C16 1_555 1_555
H15 C17 1_555 1_555
C18 C13 1_555 1_555
C19 C18 1_555 1_555
H16 C19 1_555 1_555
C20 N4 1_555 1_555
H17 C20 1_555 1_555
Mo1B O3 1_555 1_555
Mo3B O4 1_555 1_555
Cu1A N1E 1_555 1_555
Cu1A_2 N2E 1_555 1_555
Cu1F O5B 1_555 1_555
P1B O1B 1_555 1_555
O1B Mo2 1_555 1_555
O2B Mo2 1_555 1_555
O3B Mo1 1_555 1_555
O4B Mo3 1_555 1_555
O5B Mo1B 1_555 1_555
O5D Cu1 1_555 1_555
O6B Mo1B 1_555 1_555
O7B Mo2 1_555 1_555
O8B Mo3 1_555 1_555
O10B Mo3B 1_555 1_555
O11B Mo3B 1_555 1_555
O12B P1B 1_555 1_555
H1B O12B 1_555 1_555
N1E C1E 1_555 1_555
N1D Cu1 1_555 1_555
N2E C6E 1_555 1_555
N2D Cu1 1_555 1_555
C1E H2E 1_555 1_555
C2E C1E 1_555 1_555
H3E C2E 1_555 1_555
C3E C3 1_555 1_555
C4E C3E 1_555 1_555
H4E C4E 1_555 1_555
C5E N1E 1_555 1_555
H5E C5E 1_555 1_555
C6E H6E 1_555 1_555
C7E C6E 1_555 1_555
H7E C7E 1_555 1_555
C8E C8 1_555 1_555
C9E C8E 1_555 1_555
H8E C9E 1_555 1_555
C10E N2E 1_555 1_555
H9E C10E 1_555 1_555
Mo2 O2 1_555 1_555
O8 Mo3B 1_555 1_555
O9 Mo3B 1_555 1_555
C4 C5 1_555 1_555
C9 C10 1_555 1_555
C14 C15 1_555 1_555
C17 C18 1_555 1_555
C19 C20 1_555 1_555
Mo1B O1B 1_555 1_555
Mo1B O2B 1_555 1_555
Mo1B O4B 1_555 1_555
Mo3B O3B 1_555 1_555
P1B O3B 1_555 1_555
P1B O8B 1_555 1_555
C2E C3E 1_555 1_555
C4E C5E 1_555 1_555
C7E C8E 1_555 1_555
C9E C10E 1_555 1_555

#END
