
#######################################################################
#
#                 Cambridge Crystallographic Data Centre
#                                CCDC 
#
#######################################################################
#
# If this CIF has been generated from an entry in the Cambridge 
# Structural Database, then it will include bibliographic, chemical, 
# crystal, experimental, refinement or atomic coordinate data resulting 
# from the CCDC's data processing and validation procedures.
#
#######################################################################

data_YOMBOS
_symmetry_cell_setting           monoclinic
_symmetry_space_group_name_H-M   'P 21'
_symmetry_Int_Tables_number      4
_space_group_name_Hall           'P 2yb'
loop_
_symmetry_equiv_pos_site_id
_symmetry_equiv_pos_as_xyz
1 x,y,z
2 -x,1/2+y,-z
_cell_length_a                   14.1071(12)
_cell_length_b                   9.5108(8)
_cell_length_c                   15.4049(13)
_cell_angle_alpha                90
_cell_angle_beta                 113.8020(10)
_cell_angle_gamma                90
_cell_volume                     1891.08
loop_
_atom_site_label
_atom_site_type_symbol
_atom_site_fract_x
_atom_site_fract_y
_atom_site_fract_z
C1 C 0.7182(3) 0.0856(4) 0.3485(3)
C2 C 0.7339(4) -0.0116(5) 0.4205(3)
H1 H 0.7996 -0.0279 0.4674
C3 C 0.6190(3) 0.1108(4) 0.2783(3)
C4 C 0.3672(3) 0.4134(5) 0.2090(3)
C5 C 0.2695(3) 0.3799(5) 0.2043(3)
C6 C 0.2276(4) 0.4474(6) 0.2600(4)
H2 H 0.1617 0.4253 0.2557
C7 C 0.8761(3) 0.2642(4) 0.0042(3)
C8 C 0.3794(3) 0.2058(4) -0.0894(3)
C9 C 0.3150(3) 0.3219(5) -0.1242(3)
H3 H 0.3164 0.3975 -0.0854
C10 C 0.8220(3) 0.1499(5) 0.0161(4)
H4 H 0.8554 0.0676 0.0453
C11 C 1.1403(3) 0.0911(4) 0.3830(3)
C12 C 1.2029(3) 0.0600(6) 0.4765(3)
H5 H 1.1783 0.0650 0.5240
C13 C 1.1771(3) 0.0846(5) 0.3116(3)
C14 C 0.5335(4) 0.0370(6) 0.2780(4)
H6 H 0.4674 0.0530 0.2317
C15 C 0.5503(4) -0.0594(6) 0.3482(4)
H7 H 0.4947 -0.1113 0.3487
C16 C 0.3755(3) 0.0902(4) -0.1453(3)
C17 C 0.3096(3) 0.0891(5) -0.2416(3)
H8 H 0.3072 0.0131 -0.2805
C18 C 0.2490(3) 0.2054(5) -0.2758(3)
H9 H 0.2056 0.2091 -0.3400
C19 C 0.2500(3) 0.3192(5) -0.2177(3)
H10 H 0.2054 0.3944 -0.2435
C20 C 0.7150(3) 0.1647(6) -0.0180(4)
H11 H 0.6752 0.0899 -0.0128
C21 C 0.6664(3) 0.2892(6) -0.0597(4)
H12 H 0.5948 0.2954 -0.0809
C22 C 1.3394(4) 0.0170(9) 0.4244(5)
H13 H 1.4080 -0.0083 0.4402
C23 C 1.3032(4) 0.0212(8) 0.4956(4)
H14 H 1.3475 -0.0025 0.5573
C24 C 1.2792(4) 0.0481(8) 0.3327(4)
H15 H 1.3052 0.0452 0.2860
C25 C 0.6488(4) -0.0825(6) 0.4195(4)
H16 H 0.6568 -0.1472 0.4672
C26 C 0.7196(3) 0.4027(5) -0.0708(4)
H17 H 0.6862 0.4857 -0.0985
C27 C 0.2855(6) 0.5465(8) 0.3207(5)
H18 H 0.2595 0.5928 0.3595
C28 C 0.3849(5) 0.5809(7) 0.3263(5)
H19 H 0.4231 0.6492 0.3695
C29 C 0.4271(4) 0.5180(6) 0.2710(4)
H20 H 0.4921 0.5430 0.2742
C30 C 0.8275(3) 0.3876(4) -0.0380(3)
C31 C 1.0462(4) -0.0038(5) 0.7574(3)
H21 H 1.0716 -0.0851 0.7926
C32 C 1.0290(5) 0.1144(5) 0.7973(3)
H22 H 1.0433 0.1139 0.8618
C33 C 0.9900(4) 0.2385(5) 0.7451(3)
H23 H 0.9776 0.3165 0.7754
C34 C 0.9702(4) 0.2464(5) 0.6512(3)
H24 H 0.9455 0.3285 0.6166
C35 C 0.9885(3) 0.1257(4) 0.6094(3)
C36 C 1.0239(3) 0.0022(4) 0.6604(3)
N1 N 1.0966(3) 0.1213(4) 0.2281(2)
N2 N 1.0153(2) 0.1481(4) 0.2482(2)
N3 N 1.0374(2) 0.1305(3) 0.3396(2)
N4 N 0.9791(2) 0.1000(3) 0.5186(2)
N5 N 1.0054(3) -0.0343(4) 0.5145(2)
N6 N 1.0327(2) -0.0942(3) 0.5983(2)
N7 N 0.7860(2) 0.1671(3) 0.32522(19)
N8 N 0.7278(3) 0.2387(4) 0.2468(3)
N9 N 0.6261(2) 0.2088(4) 0.2171(2)
N10 N 0.4536(2) 0.1784(3) -0.0004(2)
N11 N 0.4919(3) 0.0502(4) -0.0019(3)
N12 N 0.4463(2) -0.0059(3) -0.0882(2)
N13 N 0.3870(2) 0.3299(4) 0.1470(2)
N14 N 0.3042(3) 0.2479(4) 0.1044(3)
N15 N 0.2323(2) 0.2752(4) 0.1378(2)
N16 N 0.9808(2) 0.2830(4) 0.0284(2)
N17 N 0.9931(3) 0.4118(4) 0.0005(3)
N18 N 0.9023(2) 0.4774(4) -0.0402(2)
Zn1 Zn 0.93700(3) 0.19812(4) 0.39353(3)
Zn2 Zn 0.50999(3) 0.30349(5) 0.11288(3)
Zn3 Zn 1.10175(3) 0.16311(4) 0.10212(3)
N6A N 0.9673(2) 0.4058(3) 0.4017(2)
N12A N 0.5537(2) 0.4941(3) 0.0882(2)
N15_2 N 1.2323(2) 0.2752(4) 0.1378(2)
N18A N 1.0977(2) -0.0226(4) 0.0402(2)
Zn1A Zn 1.06300(3) -0.30188(4) 0.60647(3)
Zn2A Zn 0.49001(3) -0.19651(5) -0.11288(3)
Zn3_2 Zn 0.10175(3) 0.16311(4) 0.10212(3)
Zn3A Zn 0.89825(3) 0.66311(4) -0.10212(3)
loop_
_geom_bond_atom_site_label_1
_geom_bond_atom_site_label_2
_geom_bond_site_symmetry_1
_geom_bond_site_symmetry_2
C1 C2 1_555 1_555
C2 H1 1_555 1_555
C3 C1 1_555 1_555
C4 C5 1_555 1_555
C5 C6 1_555 1_555
C6 H2 1_555 1_555
C7 C10 1_555 1_555
C8 C9 1_555 1_555
C9 H3 1_555 1_555
C10 H4 1_555 1_555
C11 C12 1_555 1_555
C12 H5 1_555 1_555
C13 C11 1_555 1_555
C14 C3 1_555 1_555
H6 C14 1_555 1_555
C15 C14 1_555 1_555
H7 C15 1_555 1_555
C16 C8 1_555 1_555
C17 C16 1_555 1_555
H8 C17 1_555 1_555
C18 C17 1_555 1_555
H9 C18 1_555 1_555
C19 C9 1_555 1_555
H10 C19 1_555 1_555
C20 C10 1_555 1_555
H11 C20 1_555 1_555
C21 C20 1_555 1_555
H12 C21 1_555 1_555
C22 H13 1_555 1_555
C23 C12 1_555 1_555
H14 C23 1_555 1_555
C24 C13 1_555 1_555
H15 C24 1_555 1_555
C25 C2 1_555 1_555
H16 C25 1_555 1_555
C26 C21 1_555 1_555
H17 C26 1_555 1_555
C27 C6 1_555 1_555
H18 C27 1_555 1_555
C28 C27 1_555 1_555
H19 C28 1_555 1_555
C29 C4 1_555 1_555
H20 C29 1_555 1_555
C30 C7 1_555 1_555
C31 H21 1_555 1_555
C32 C31 1_555 1_555
H22 C32 1_555 1_555
C33 C32 1_555 1_555
H23 C33 1_555 1_555
C34 C33 1_555 1_555
H24 C34 1_555 1_555
C35 C34 1_555 1_555
C36 C31 1_555 1_555
N1 C13 1_555 1_555
N2 N1 1_555 1_555
N3 C11 1_555 1_555
N4 C35 1_555 1_555
N5 N4 1_555 1_555
N6 C36 1_555 1_555
N7 C1 1_555 1_555
N8 N7 1_555 1_555
N9 C3 1_555 1_555
N10 C8 1_555 1_555
N11 N10 1_555 1_555
N12 C16 1_555 1_555
N13 C4 1_555 1_555
N14 N13 1_555 1_555
N15 C5 1_555 1_555
N16 C7 1_555 1_555
N17 N16 1_555 1_555
N18 C30 1_555 1_555
Zn1 N3 1_555 1_555
Zn2 N9 1_555 1_555
Zn3 N1 1_555 1_555
N6A Zn1 1_555 1_555
N12A Zn2 1_555 1_555
N15_2 Zn3 1_555 1_555
N18A Zn3 1_555 1_555
Zn1A N6 1_555 1_555
Zn2A N12 1_555 1_555
Zn3_2 N15 1_555 1_555
Zn3A N18 1_555 1_555
C15 C25 1_555 1_555
C18 C19 1_555 1_555
C22 C23 1_555 1_555
C22 C24 1_555 1_555
C26 C30 1_555 1_555
C28 C29 1_555 1_555
C35 C36 1_555 1_555
N2 N3 1_555 1_555
N4 Zn1 1_555 1_555
N5 N6 1_555 1_555
N7 Zn1 1_555 1_555
N8 N9 1_555 1_555
N10 Zn2 1_555 1_555
N11 N12 1_555 1_555
N13 Zn2 1_555 1_555
N14 N15 1_555 1_555
N16 Zn3 1_555 1_555
N17 N18 1_555 1_555

#END
