
#######################################################################
#
#                 Cambridge Crystallographic Data Centre
#                                CCDC 
#
#######################################################################
#
# If this CIF has been generated from an entry in the Cambridge 
# Structural Database, then it will include bibliographic, chemical, 
# crystal, experimental, refinement or atomic coordinate data resulting 
# from the CCDC's data processing and validation procedures.
#
#######################################################################

data_YOMDIP
_symmetry_cell_setting           triclinic
_symmetry_space_group_name_H-M   'P -1'
_symmetry_Int_Tables_number      2
_space_group_name_Hall           '-P 1'
loop_
_symmetry_equiv_pos_site_id
_symmetry_equiv_pos_as_xyz
1 x,y,z
2 -x,-y,-z
_cell_length_a                   7.717(3)
_cell_length_b                   9.276(3)
_cell_length_c                   10.433(3)
_cell_angle_alpha                75.52(3)
_cell_angle_beta                 73.97(3)
_cell_angle_gamma                67.08(3)
_cell_volume                     652.494
loop_
_atom_site_label
_atom_site_type_symbol
_atom_site_fract_x
_atom_site_fract_y
_atom_site_fract_z
Zn1 Zn 0.35002(12) 0.28922(10) 0.80204(9)
O1 O 0.0033(8) 0.2802(7) 0.7153(7)
O2 O 0.0878(8) 0.4378(7) 0.7927(7)
O3 O -0.3445(8) 0.5828(7) 1.0362(6)
O4 O -0.2757(10) 0.7968(7) 0.9880(7)
O5 O -0.5823(8) 1.0756(7) 0.7547(6)
O6 O -0.2654(8) 1.0001(7) 0.6738(6)
O7 O -0.4253(7) 0.3512(6) 0.6894(6)
O8 O -0.6338(8) 0.5894(7) 0.6457(7)
C1 C -0.2317(11) 0.5264(9) 0.7642(8)
H1 H -0.3183 0.4818 0.8357
C2 C -0.2521(10) 0.6821(9) 0.8002(8)
H2 H -0.1336 0.7053 0.7580
C3 C -0.4155(11) 0.8051(9) 0.7315(8)
H3 H -0.5386 0.7965 0.7844
C4 C -0.3736(12) 0.7504(10) 0.5972(8)
H4 H -0.2720 0.7830 0.5341
H5 H -0.4874 0.7940 0.5580
C5 C -0.3112(10) 0.5691(8) 0.6306(8)
H6 H -0.2075 0.5224 0.5581
C6 C -0.0329(11) 0.4034(9) 0.7578(8)
C7 C -0.2939(10) 0.6859(10) 0.9501(8)
C8 C -0.4203(11) 0.9731(9) 0.7194(8)
C9 C -0.4713(11) 0.5048(9) 0.6542(8)
Zn2 Zn -0.16191(12) 0.16640(11) 0.69183(10)
O9 O -0.2550(9) 0.1120(8) 0.9056(6)
H7 H -0.2219 0.1721 0.9362
H8 H -0.2539 0.0194 0.9080
O10 O 0.1141(8) -0.0219(7) 0.6987(6)
H9 H 0.1638 0.0357 0.7172
H10 H 0.0317 -0.0481 0.6791
O11 O -0.0787(8) 0.2120(7) 0.4835(6)
H11 H -0.0542 0.2836 0.5049
H12 H -0.1442 0.2273 0.4248
Zn1_2 Zn -0.64998(12) 0.28922(10) 0.80204(9)
Zn1_3 Zn -0.64998(12) 1.28922(10) 0.80204(9)
Zn1A Zn -0.35002(12) 0.71078(10) 1.19796(9)
O3A O 0.3445(8) 0.4172(7) 0.9638(6)
O4A O 0.2757(10) 0.2032(7) 1.0120(7)
O5_2 O 0.4177(8) 0.0756(7) 0.7547(6)
O6_2 O -0.2654(8) 0.0001(7) 0.6738(6)
O7_2 O 0.5747(7) 0.3512(6) 0.6894(6)
Zn2_2 Zn -0.16191(12) 1.16640(11) 0.69183(10)
O12 O 0.1352(9) 0.7524(7) 0.9334(7)
H13 H 0.2127 0.6661 0.9067
H14 H 0.0223 0.7490 0.9521
loop_
_geom_bond_atom_site_label_1
_geom_bond_atom_site_label_2
_geom_bond_site_symmetry_1
_geom_bond_site_symmetry_2
Zn1 O2 1_555 1_555
O1 C6 1_555 1_555
O2 C6 1_555 1_555
O3 C7 1_555 1_555
O4 C7 1_555 1_555
O5 C8 1_555 1_555
O6 C8 1_555 1_555
O7 C9 1_555 1_555
O8 C9 1_555 1_555
C1 H1 1_555 1_555
C2 C1 1_555 1_555
H2 C2 1_555 1_555
C3 C2 1_555 1_555
H3 C3 1_555 1_555
C4 C3 1_555 1_555
H4 C4 1_555 1_555
H5 C4 1_555 1_555
C5 C1 1_555 1_555
H6 C5 1_555 1_555
C6 C1 1_555 1_555
C7 C2 1_555 1_555
C8 C3 1_555 1_555
C9 C5 1_555 1_555
Zn2 O1 1_555 1_555
O9 Zn2 1_555 1_555
H7 O9 1_555 1_555
H8 O9 1_555 1_555
O10 Zn2 1_555 1_555
H9 O10 1_555 1_555
H10 O10 1_555 1_555
O11 Zn2 1_555 1_555
H11 O11 1_555 1_555
H12 O11 1_555 1_555
O12 H13 1_555 1_555
H14 O12 1_555 1_555
Zn1_2 O7 1_555 1_555
Zn1_3 O5 1_555 1_555
Zn1A O3 1_555 1_555
O3A Zn1 1_555 1_555
O4A Zn1 1_555 1_555
O5_2 Zn1 1_555 1_555
O6_2 Zn2 1_555 1_555
O7_2 Zn1 1_555 1_555
Zn2_2 O6 1_555 1_555
O4 Zn1A 1_555 1_555
O7 Zn2 1_555 1_555
C4 C5 1_555 1_555

#END
