
#######################################################################
#
#                 Cambridge Crystallographic Data Centre
#                                CCDC 
#
#######################################################################
#
# If this CIF has been generated from an entry in the Cambridge 
# Structural Database, then it will include bibliographic, chemical, 
# crystal, experimental, refinement or atomic coordinate data resulting 
# from the CCDC's data processing and validation procedures.
#
#######################################################################

data_YOMDEL
_symmetry_cell_setting           monoclinic
_symmetry_space_group_name_H-M   'P 21/n'
_symmetry_Int_Tables_number      14
_space_group_name_Hall           '-P 2yn'
loop_
_symmetry_equiv_pos_site_id
_symmetry_equiv_pos_as_xyz
1 x,y,z
2 1/2-x,1/2+y,1/2-z
3 -x,-y,-z
4 1/2+x,1/2-y,1/2+z
_cell_length_a                   11.6283(8)
_cell_length_b                   18.2157(13)
_cell_length_c                   17.3821(13)
_cell_angle_alpha                90
_cell_angle_beta                 103.8240(10)
_cell_angle_gamma                90
_cell_volume                     3575.19
loop_
_atom_site_label
_atom_site_type_symbol
_atom_site_fract_x
_atom_site_fract_y
_atom_site_fract_z
Co1 Co 0.06382(2) 0.716888(13) 0.596243(13)
S1 S 0.48716(4) 0.76101(2) 0.65759(3)
O1 O 0.23478(11) 0.75136(7) 0.64284(7)
O2 O 0.00696(12) 0.79730(7) 0.66875(8)
H1 H 0.0669 0.8101 0.7079
O3 O 0.72203(12) 0.74978(9) 0.62250(8)
O4 O 0.82954(11) 0.77353(7) 0.74418(8)
N1 N 0.45422(14) 0.30127(9) -0.00773(9)
N2 N 0.13010(13) 0.63914(8) 0.52219(9)
N3 N 0.08091(13) 0.63309(9) 0.68804(9)
N4 N 0.35032(14) 0.48848(8) 0.35345(9)
O5 O 0.22907(12) 0.80361(11) 0.75818(9)
N5 N 0.40032(16) 0.48172(9) 0.19999(10)
N6 N 0.01582(17) 0.49032(9) 0.92207(10)
C1 C 0.28277(16) 0.77831(10) 0.70976(11)
C2 C 0.73309(16) 0.76482(10) 0.69458(11)
C3 C 0.24719(17) 0.63096(11) 0.52939(12)
H2 H 0.2993 0.6649 0.5618
C4 C 0.41394(16) 0.77966(10) 0.73019(11)
C5 C 0.55014(18) 0.34404(12) 0.01088(12)
H3 H 0.6163 0.3316 -0.0097
C6 C 0.07857(19) 0.52427(11) 0.80215(11)
C7 C 0.27127(18) 0.46493(11) 0.40348(12)
H4 H 0.3154 0.4313 0.4449
H5 H 0.2044 0.4370 0.3704
C8 C 0.46289(19) 0.42473(11) 0.08920(11)
C9 C 0.36409(19) 0.37989(12) 0.07082(12)
H6 H 0.2972 0.3908 0.0912
C10 C 0.61039(17) 0.79018(11) 0.79698(12)
H7 H 0.6753 0.7984 0.8410
C11 C 0.05962(17) 0.59161(11) 0.47416(11)
H8 H -0.0236 0.5961 0.4675
C12 C 0.22237(17) 0.52724(10) 0.44300(11)
C13 C 0.00404(18) 0.63494(11) 0.73448(11)
H9 H -0.0512 0.6742 0.7278
C14 C 0.39516(19) 0.42155(11) 0.32336(12)
H10 H 0.3275 0.3906 0.2965
H11 H 0.4429 0.3932 0.3684
C15 C 0.49095(17) 0.79404(12) 0.80120(12)
H12 H 0.4667 0.8054 0.8483
C16 C 0.0714(2) 0.46443(12) 0.86073(13)
H13 H 0.0253 0.4227 0.8325
H14 H 0.1522 0.4466 0.8855
C17 C 0.00100(19) 0.58296(11) 0.79124(12)
H15 H -0.0546 0.5874 0.8231
C18 C 0.5579(2) 0.40535(12) 0.05847(12)
H16 H 0.6281 0.4341 0.0701
C19 C 0.0951(2) 0.53701(11) 0.97967(12)
H17 H 0.1257 0.5772 0.9517
H18 H 0.1634 0.5077 1.0089
C20 C 0.10164(17) 0.53649(11) 0.43379(12)
H19 H 0.0476 0.5048 0.3996
C21 C 0.3621(2) 0.55025(11) 0.22964(12)
H20 H 0.3168 0.5800 0.1849
H21 H 0.4321 0.5790 0.2573
C22 C 0.36257(18) 0.31955(12) 0.02306(12)
H22 H 0.2938 0.2895 0.0113
C23 C 0.62267(16) 0.77336(10) 0.72286(11)
C24 C 0.47013(19) 0.43939(11) 0.26605(12)
H23 H 0.5404 0.4681 0.2933
H24 H 0.4980 0.3934 0.2461
C25 C 0.28514(18) 0.53288(11) 0.28633(11)
H25 H 0.2588 0.5792 0.3064
H26 H 0.2139 0.5057 0.2578
C26 C -0.0301(2) 0.43087(11) 0.96261(12)
H27 H 0.0360 0.3997 0.9913
H28 H -0.0847 0.3999 0.9234
C27 C 0.4638(2) 0.49337(12) 0.13824(13)
H29 H 0.5466 0.5075 0.1628
H30 H 0.4263 0.5341 0.1034
C28 C 0.29591(17) 0.57632(11) 0.49253(12)
H31 H 0.3795 0.5723 0.5010
C29 C 0.15737(17) 0.57677(12) 0.69953(12)
H32 H 0.2136 0.5743 0.6679
C30 C 0.15885(19) 0.52223(12) 0.75471(12)
H33 H 0.2147 0.4834 0.7602
H34 H -0.049(2) 0.7906(14) 0.6943(16)
O6 O -0.11428(11) 0.68786(7) 0.55706(7)
H35 H -0.1321 0.6812 0.5054
H36 H -0.1287 0.6469 0.5800
N3B N -0.08091(13) 0.36691(9) 1.31196(9)
N6B N -0.01582(17) 0.50968(9) 1.07793(10)
C6B C -0.07857(19) 0.47573(11) 1.19785(11)
C13B C -0.00404(18) 0.36506(11) 1.26552(11)
H9B H 0.0512 0.3258 1.2722
C16B C -0.0714(2) 0.53557(12) 1.13927(13)
H13B H -0.0253 0.5773 1.1675
H14B H -0.1522 0.5534 1.1145
C17B C -0.00100(19) 0.41704(11) 1.20876(12)
H15B H 0.0546 0.4126 1.1769
C19B C -0.0951(2) 0.46299(11) 1.02033(12)
H17B H -0.1257 0.4228 1.0483
H18B H -0.1634 0.4923 0.9911
C26B C 0.0301(2) 0.56913(11) 1.03739(12)
H27B H -0.0360 0.6003 1.0087
H28B H 0.0847 0.6001 1.0766
C29B C -0.15737(17) 0.42323(12) 1.30047(12)
H32B H -0.2136 0.4257 1.3321
C30B C -0.15885(19) 0.47777(12) 1.24529(12)
H33B H -0.2147 0.5166 1.2398
Co1B Co -0.06382(2) 0.283112(13) 1.403757(13)
S1B S -0.48716(4) 0.23899(2) 1.34241(3)
O1B O -0.23478(11) 0.24864(7) 1.35716(7)
O2B O -0.00696(12) 0.20270(7) 1.33125(8)
H1B H -0.0669 0.1899 1.2921
O3B O -0.72203(12) 0.25022(9) 1.37750(8)
O4B O -0.82954(11) 0.22647(7) 1.25582(8)
N1B N -0.45422(14) 0.69873(9) 2.00773(9)
N2B N -0.13010(13) 0.36086(8) 1.47781(9)
N4B N -0.35032(14) 0.51152(8) 1.64655(9)
O5B O -0.22907(12) 0.19639(11) 1.24182(9)
N5B N -0.40032(16) 0.51828(9) 1.80001(10)
C1B C -0.28277(16) 0.22169(10) 1.29024(11)
C2B C -0.73309(16) 0.23518(10) 1.30542(11)
C3B C -0.24719(17) 0.36904(11) 1.47061(12)
H2B H -0.2993 0.3351 1.4382
C4B C -0.41394(16) 0.22034(10) 1.26981(11)
C5B C -0.55014(18) 0.65596(12) 1.98912(12)
H3B H -0.6163 0.6684 2.0097
C7B C -0.27127(18) 0.53507(11) 1.59652(12)
H4B H -0.3154 0.5687 1.5551
H5B H -0.2044 0.5630 1.6296
C8B C -0.46289(19) 0.57527(11) 1.91080(11)
C9B C -0.36409(19) 0.62011(12) 1.92918(12)
H6B H -0.2972 0.6092 1.9088
C10B C -0.61039(17) 0.20982(11) 1.20302(12)
H7B H -0.6753 0.2016 1.1590
C11B C -0.05962(17) 0.40839(11) 1.52584(11)
H8B H 0.0236 0.4039 1.5325
C12B C -0.22237(17) 0.47276(10) 1.55700(11)
C14B C -0.39516(19) 0.57845(11) 1.67664(12)
H10B H -0.3275 0.6094 1.7035
H11B H -0.4429 0.6068 1.6316
C15B C -0.49095(17) 0.20596(12) 1.19880(12)
H12B H -0.4667 0.1946 1.1517
C18B C -0.5579(2) 0.59465(12) 1.94153(12)
H16B H -0.6281 0.5659 1.9299
C20B C -0.10164(17) 0.46351(11) 1.56621(12)
H19B H -0.0476 0.4952 1.6004
C21B C -0.3621(2) 0.44975(11) 1.77036(12)
H20B H -0.3168 0.4200 1.8151
H21B H -0.4321 0.4210 1.7427
C22B C -0.36257(18) 0.68045(12) 1.97694(12)
H22B H -0.2938 0.7105 1.9887
C23B C -0.62267(16) 0.22664(10) 1.27714(11)
C24B C -0.47013(19) 0.56061(11) 1.73395(12)
H23B H -0.5404 0.5319 1.7067
H24B H -0.4980 0.6066 1.7539
C25B C -0.28514(18) 0.46712(11) 1.71367(11)
H25B H -0.2588 0.4208 1.6936
H26B H -0.2139 0.4943 1.7422
C27B C -0.4638(2) 0.50663(12) 1.86176(13)
H29B H -0.5466 0.4925 1.8372
H30B H -0.4263 0.4659 1.8966
C28B C -0.29591(17) 0.42368(11) 1.50747(12)
H31B H -0.3795 0.4277 1.4990
H34B H 0.049(2) 0.2094(14) 1.3057(16)
O6B O 0.11428(11) 0.31214(7) 1.44294(7)
H35B H 0.1321 0.3188 1.4946
H36B H 0.1287 0.3531 1.4200
Co1A Co 0.43618(2) 0.216888(13) -0.096243(13)
Co1C Co -0.43618(2) 0.783112(13) 2.096243(13)
N1A N 0.04578(14) 0.80127(9) 0.50773(9)
N1C N -0.04578(14) 0.19873(9) 1.49227(9)
O7 O 0.24796(14) 0.34711(11) 0.58890(9)
H37 H 0.2396 0.3357 0.6358
H38 H 0.3085 0.3762 0.5932
O8 O 0.46011(14) 0.40689(10) 0.57745(10)
H39 H 0.5048 0.4439 0.5971
H40 H 0.5011 0.3665 0.5866
O9 O 0.37044(16) 0.21562(9) 0.53718(11)
H41 H 0.3476 0.2247 0.4867
H42 H 0.3312 0.2433 0.5627
O10 O 0.90233(17) 0.77577(11) 0.90922(10)
H43 H 0.9711 0.7554 0.9275
H44 H 0.8780 0.7664 0.8589
loop_
_geom_bond_atom_site_label_1
_geom_bond_atom_site_label_2
_geom_bond_site_symmetry_1
_geom_bond_site_symmetry_2
Co1 O1 1_555 1_555
S1 C4 1_555 1_555
O1 C1 1_555 1_555
O2 Co1 1_555 1_555
H1 O2 1_555 1_555
O3 C2 1_555 1_555
O4 C2 1_555 1_555
N1 C5 1_555 1_555
N2 Co1 1_555 1_555
N3 Co1 1_555 1_555
N4 C7 1_555 1_555
O5 C1 1_555 1_555
N5 C21 1_555 1_555
N6 C16 1_555 1_555
C1 C4 1_555 1_555
C2 C23 1_555 1_555
C3 N2 1_555 1_555
H2 C3 1_555 1_555
C4 C15 1_555 1_555
C5 H3 1_555 1_555
C6 C16 1_555 1_555
C7 H4 1_555 1_555
H5 C7 1_555 1_555
C8 C9 1_555 1_555
C9 H6 1_555 1_555
C10 H7 1_555 1_555
C11 N2 1_555 1_555
H8 C11 1_555 1_555
C12 C7 1_555 1_555
C13 N3 1_555 1_555
H9 C13 1_555 1_555
C14 N4 1_555 1_555
H10 C14 1_555 1_555
H11 C14 1_555 1_555
C15 C10 1_555 1_555
H12 C15 1_555 1_555
C16 H13 1_555 1_555
H14 C16 1_555 1_555
C17 C6 1_555 1_555
H15 C17 1_555 1_555
C18 C5 1_555 1_555
H16 C18 1_555 1_555
C19 N6 1_555 1_555
H17 C19 1_555 1_555
H18 C19 1_555 1_555
C20 C11 1_555 1_555
H19 C20 1_555 1_555
C21 H20 1_555 1_555
H21 C21 1_555 1_555
C22 N1 1_555 1_555
H22 C22 1_555 1_555
C23 S1 1_555 1_555
C24 N5 1_555 1_555
H23 C24 1_555 1_555
H24 C24 1_555 1_555
C25 N4 1_555 1_555
H25 C25 1_555 1_555
H26 C25 1_555 1_555
C26 N6 1_555 1_555
H27 C26 1_555 1_555
H28 C26 1_555 1_555
C27 N5 1_555 1_555
H29 C27 1_555 1_555
H30 C27 1_555 1_555
C28 C3 1_555 1_555
H31 C28 1_555 1_555
C29 N3 1_555 1_555
H32 C29 1_555 1_555
C30 C6 1_555 1_555
H33 C30 1_555 1_555
H34 O2 1_555 1_555
O6 Co1 1_555 1_555
H35 O6 1_555 1_555
H36 O6 1_555 1_555
O7 H37 1_555 1_555
H38 O7 1_555 1_555
O8 H39 1_555 1_555
H40 O8 1_555 1_555
O9 H41 1_555 1_555
H42 O9 1_555 1_555
O10 H43 1_555 1_555
H44 O10 1_555 1_555
N3B C13B 1_555 1_555
N6B C16B 1_555 1_555
C6B C16B 1_555 1_555
C13B H9B 1_555 1_555
C16B H13B 1_555 1_555
H14B C16B 1_555 1_555
C17B C6B 1_555 1_555
H15B C17B 1_555 1_555
C19B C26 1_555 1_555
H17B C19B 1_555 1_555
H18B C19B 1_555 1_555
C26B C19 1_555 1_555
H27B C26B 1_555 1_555
H28B C26B 1_555 1_555
C29B N3B 1_555 1_555
H32B C29B 1_555 1_555
C30B C6B 1_555 1_555
H33B C30B 1_555 1_555
Co1B N3B 1_555 1_555
S1B C4B 1_555 1_555
O1B Co1B 1_555 1_555
O2B Co1B 1_555 1_555
H1B O2B 1_555 1_555
O3B C2B 1_555 1_555
O4B C2B 1_555 1_555
N1B C5B 1_555 1_555
N2B Co1B 1_555 1_555
N4B C7B 1_555 1_555
O5B C1B 1_555 1_555
N5B C21B 1_555 1_555
C1B O1B 1_555 1_555
C2B C23B 1_555 1_555
C3B N2B 1_555 1_555
H2B C3B 1_555 1_555
C4B C1B 1_555 1_555
C5B H3B 1_555 1_555
C7B H4B 1_555 1_555
H5B C7B 1_555 1_555
C8B C9B 1_555 1_555
C9B H6B 1_555 1_555
C10B H7B 1_555 1_555
C11B N2B 1_555 1_555
H8B C11B 1_555 1_555
C12B C7B 1_555 1_555
C14B N4B 1_555 1_555
H10B C14B 1_555 1_555
H11B C14B 1_555 1_555
C15B C4B 1_555 1_555
H12B C15B 1_555 1_555
C18B C5B 1_555 1_555
H16B C18B 1_555 1_555
C20B C11B 1_555 1_555
H19B C20B 1_555 1_555
C21B H20B 1_555 1_555
H21B C21B 1_555 1_555
C22B N1B 1_555 1_555
H22B C22B 1_555 1_555
C23B S1B 1_555 1_555
C24B N5B 1_555 1_555
H23B C24B 1_555 1_555
H24B C24B 1_555 1_555
C25B N4B 1_555 1_555
H25B C25B 1_555 1_555
H26B C25B 1_555 1_555
C27B N5B 1_555 1_555
H29B C27B 1_555 1_555
H30B C27B 1_555 1_555
C28B C3B 1_555 1_555
H31B C28B 1_555 1_555
H34B O2B 1_555 1_555
O6B Co1B 1_555 1_555
H35B O6B 1_555 1_555
H36B O6B 1_555 1_555
Co1A N1 1_555 1_555
Co1C N1B 1_555 1_555
N1A Co1 1_555 1_555
N1C Co1B 1_555 1_555
C8 C18 1_555 1_555
C8 C27 1_555 1_555
C9 C22 1_555 1_555
C10 C23 1_555 1_555
C12 C20 1_555 1_555
C12 C28 1_555 1_555
C13 C17 1_555 1_555
C14 C24 1_555 1_555
C21 C25 1_555 1_555
C29 C30 1_555 1_555
N6B C19B 1_555 1_555
N6B C26B 1_555 1_555
C13B C17B 1_555 1_555
C29B C30B 1_555 1_555
C8B C18B 1_555 1_555
C8B C27B 1_555 1_555
C9B C22B 1_555 1_555
C10B C15B 1_555 1_555
C10B C23B 1_555 1_555
C12B C20B 1_555 1_555
C12B C28B 1_555 1_555
C14B C24B 1_555 1_555
C21B C25B 1_555 1_555

#END
