
#######################################################################
#
#                 Cambridge Crystallographic Data Centre
#                                CCDC 
#
#######################################################################
#
# If this CIF has been generated from an entry in the Cambridge 
# Structural Database, then it will include bibliographic, chemical, 
# crystal, experimental, refinement or atomic coordinate data resulting 
# from the CCDC's data processing and validation procedures.
#
#######################################################################

data_YOMFEN
_symmetry_cell_setting           monoclinic
_symmetry_space_group_name_H-M   'C c'
_symmetry_Int_Tables_number      9
_space_group_name_Hall           'C -2yc'
loop_
_symmetry_equiv_pos_site_id
_symmetry_equiv_pos_as_xyz
1 x,y,z
2 x,-y,1/2+z
3 1/2+x,1/2+y,z
4 1/2+x,1/2-y,1/2+z
_cell_length_a                   15.904(3)
_cell_length_b                   16.502(3)
_cell_length_c                   8.3780(17)
_cell_angle_alpha                90
_cell_angle_beta                 116.03(2)
_cell_angle_gamma                90
_cell_volume                     1975.75
loop_
_atom_site_label
_atom_site_type_symbol
_atom_site_fract_x
_atom_site_fract_y
_atom_site_fract_z
Ho1 Ho 0.126846(18) 0.353670(9) 0.12382(3)
O1 O 0.0962(2) 0.49325(17) 0.1068(4)
H1 H 0.0908(8) 0.5261(8) 0.1760(9)
H2 H 0.1210(8) 0.5259(8) 0.0660(9)
Ho2 Ho 0.378702(15) 0.256914(13) 0.38653(2)
O2 O 0.26447(18) 0.3340(2) 0.4098(4)
O3 O 0.1455(2) 0.3925(2) 0.4228(4)
C1 C 0.2222(3) 0.3566(2) 0.4981(6)
C2 C 0.2626(4) 0.3384(4) 0.6912(6)
H3 H 0.2525 0.2823 0.7079
H4 H 0.2330 0.3717 0.7456
H5 H 0.3286 0.3494 0.7448
O4 O 0.24805(18) 0.42351(18) 0.0970(4)
O5 O 0.3875(2) 0.3649(2) 0.2294(5)
C3 C 0.3337(3) 0.4178(3) 0.1322(6)
C4 C 0.3753(4) 0.4800(3) 0.0564(9)
H6 H 0.3965 0.5257 0.1350
H7 H 0.3287 0.4973 -0.0576
H8 H 0.4272 0.4566 0.0433
O6 O 0.0745(2) 0.3828(2) -0.1893(4)
O7 O 0.0160(2) 0.27127(19) -0.1444(4)
C5 C 0.0271(3) 0.3210(3) -0.2517(6)
C6 C -0.0158(4) 0.3027(4) -0.4453(6)
H9 H -0.0636 0.3418 -0.5079
H10 H -0.0428 0.2494 -0.4655
H11 H 0.0314 0.3050 -0.4873
O8 O 0.1057(2) 0.2359(2) 0.2530(4)
O9 O -0.0308(2) 0.1729(2) 0.1337(5)
C7 C 0.0524(3) 0.1792(3) 0.2461(6)
C8 C 0.0927(5) 0.1139(4) 0.3851(9)
H12 H 0.1555 0.1281 0.4669
H13 H 0.0931 0.0634 0.3288
H14 H 0.0550 0.1087 0.4481
O10 O -0.03265(18) 0.35965(17) 0.0691(4)
O11 O -0.1721(2) 0.3347(2) 0.0474(5)
C9 C -0.1015(3) 0.3811(3) 0.0966(6)
C10 C -0.1022(4) 0.4600(3) 0.1813(9)
H15 H -0.0881 0.5028 0.1191
H16 H -0.0560 0.4593 0.3029
H17 H -0.1629 0.4690 0.1764
O12 O 0.2275(2) 0.25286(17) 0.0959(4)
O13 O 0.3236(3) 0.1514(2) 0.1759(5)
C11 C 0.2463(3) 0.1825(3) 0.0756(7)
C12 C 0.1759(4) 0.1316(4) -0.0761(9)
H18 H 0.1262 0.1149 -0.0477
H19 H 0.2067 0.0845 -0.0930
H20 H 0.1506 0.1631 -0.1832
Ho2C Ho -0.121298(15) 0.243086(13) -0.11347(2)
O7C O 0.5160(2) 0.22873(19) 0.3556(4)
O9C O 0.4692(2) 0.3271(2) 0.6337(5)
O10C O 0.46735(18) 0.14035(17) 0.5691(4)
O11C O 0.3279(2) 0.1653(2) 0.5474(5)
loop_
_geom_bond_atom_site_label_1
_geom_bond_atom_site_label_2
_geom_bond_site_symmetry_1
_geom_bond_site_symmetry_2
Ho1 O1 1_555 1_555
O1 H1 1_555 1_555
H2 O1 1_555 1_555
Ho2 O2 1_555 1_555
O2 Ho1 1_555 1_555
O3 Ho1 1_555 1_555
C1 O2 1_555 1_555
C2 C1 1_555 1_555
H3 C2 1_555 1_555
H4 C2 1_555 1_555
H5 C2 1_555 1_555
O4 Ho1 1_555 1_555
O5 Ho2 1_555 1_555
C3 O4 1_555 1_555
C4 C3 1_555 1_555
H6 C4 1_555 1_555
H7 C4 1_555 1_555
H8 C4 1_555 1_555
O6 Ho1 1_555 1_555
O7 Ho1 1_555 1_555
C5 O6 1_555 1_555
C6 C5 1_555 1_555
H9 C6 1_555 1_555
H10 C6 1_555 1_555
H11 C6 1_555 1_555
O8 Ho1 1_555 1_555
O9 C7 1_555 1_555
C7 O8 1_555 1_555
C8 C7 1_555 1_555
H12 C8 1_555 1_555
H13 C8 1_555 1_555
H14 C8 1_555 1_555
O10 Ho1 1_555 1_555
O11 C9 1_555 1_555
C9 O10 1_555 1_555
C10 C9 1_555 1_555
H15 C10 1_555 1_555
H16 C10 1_555 1_555
H17 C10 1_555 1_555
O12 Ho1 1_555 1_555
O13 Ho2 1_555 1_555
C11 O12 1_555 1_555
C12 C11 1_555 1_555
H18 C12 1_555 1_555
H19 C12 1_555 1_555
H20 C12 1_555 1_555
Ho2C O7 1_555 1_555
O7C Ho2 1_555 1_555
O9C Ho2 1_555 1_555
O10C Ho2 1_555 1_555
O11C Ho2 1_555 1_555
Ho2 O12 1_555 1_555
O3 C1 1_555 1_555
O5 C3 1_555 1_555
O7 C5 1_555 1_555
O9 Ho2C 1_555 1_555
O10 Ho2C 1_555 1_555
O11 Ho2C 1_555 1_555
O13 C11 1_555 1_555

#END
