
#######################################################################
#
#                 Cambridge Crystallographic Data Centre
#                                CCDC 
#
#######################################################################
#
# If this CIF has been generated from an entry in the Cambridge 
# Structural Database, then it will include bibliographic, chemical, 
# crystal, experimental, refinement or atomic coordinate data resulting 
# from the CCDC's data processing and validation procedures.
#
#######################################################################

data_YOMHAL
_symmetry_cell_setting           triclinic
_symmetry_space_group_name_H-M   'P -1'
_symmetry_Int_Tables_number      2
_space_group_name_Hall           '-P 1'
loop_
_symmetry_equiv_pos_site_id
_symmetry_equiv_pos_as_xyz
1 x,y,z
2 -x,-y,-z
_cell_length_a                   9.4399(17)
_cell_length_b                   12.118(2)
_cell_length_c                   16.067(3)
_cell_angle_alpha                103.882(2)
_cell_angle_beta                 100.900(2)
_cell_angle_gamma                110.865(2)
_cell_volume                     1589.06
loop_
_atom_site_label
_atom_site_type_symbol
_atom_site_fract_x
_atom_site_fract_y
_atom_site_fract_z
C1 C 1.3816(4) 0.8244(4) 0.5777(2)
H1 H 1.3637 0.7410 0.5673
C2 C 1.5259(5) 0.9215(4) 0.6043(3)
H2 H 1.6242 0.9179 0.6158
C3 C 1.3424(4) 0.9895(3) 0.5893(2)
H3 H 1.2927 1.0434 0.5890
C4 C 1.6190(4) 1.1562(4) 0.6422(2)
H4 H 1.5664 1.2110 0.6367
H5 H 1.6873 1.1638 0.6039
C5 C 1.7196(5) 1.1987(4) 0.7381(3)
H6 H 1.7867 1.2878 0.7574
H7 H 1.7884 1.1555 0.7415
C6 C 1.6213(5) 1.1741(4) 0.8018(3)
H8 H 1.5643 1.0844 0.7875
H9 H 1.6916 1.2085 0.8630
C7 C 1.4800(5) 1.2738(4) 0.8653(3)
H10 H 1.5351 1.2708 0.9186
C8 C 1.3666(5) 1.3301(4) 0.8702(3)
C9 C 1.3450(5) 1.3732(4) 0.9529(3)
H11 H 1.3962 1.3603 1.0027
C10 C 1.2478(5) 1.4351(4) 0.9619(3)
H12 H 1.2336 1.4646 1.0173
C11 C 1.1734(5) 1.4520(4) 0.8877(3)
C12 C 1.1857(5) 1.4052(4) 0.8043(3)
H13 H 1.1290 1.4142 0.7543
C13 C 1.2837(5) 1.3445(4) 0.7957(3)
H14 H 1.2942 1.3130 0.7396
C14 C 0.6121(4) 0.6617(3) 0.4628(2)
H15 H 0.6281 0.7371 0.5036
C15 C 0.4697(4) 0.5694(4) 0.4118(3)
H16 H 0.3707 0.5691 0.4106
C16 C 0.6554(4) 0.5151(3) 0.3848(2)
H17 H 0.7063 0.4682 0.3605
C17 C 0.3769(4) 0.3578(3) 0.2946(2)
H18 H 0.2976 0.3173 0.3211
H19 H 0.4262 0.3022 0.2759
C18 C 0.2971(4) 0.3804(3) 0.2137(2)
H20 H 0.3738 0.4099 0.1826
H21 H 0.2620 0.4455 0.2337
C19 C 0.1549(4) 0.2628(4) 0.1484(3)
H22 H 0.0811 0.2296 0.1801
H23 H 0.1001 0.2841 0.1015
C20 C 0.1675(4) 0.1288(3) 0.0232(2)
H24 H 0.1081 0.1599 -0.0094
C21 C 0.2154(4) 0.0350(3) -0.0256(2)
C22 C 0.2053(4) 0.0166(3) -0.1155(2)
H25 H 0.1627 0.0597 -0.1454
C23 C 0.2578(4) -0.0650(4) -0.1608(2)
H26 H 0.2552 -0.0752 -0.2204
C24 C 0.3139(4) -0.1307(3) -0.1159(2)
C25 C 0.3193(5) -0.1188(4) -0.0281(3)
H27 H 0.3549 -0.1668 0.0001
C26 C 0.2708(4) -0.0343(4) 0.0172(2)
H28 H 0.2754 -0.0238 0.0771
C27 C 0.9727(4) 0.5100(3) 0.6060(2)
C28 C 0.9828(4) 1.0452(3) 0.6067(2)
N1 N 1.2657(3) 0.8671(3) 0.56838(19)
N2 N 1.4986(3) 1.0267(3) 0.61096(18)
N3 N 1.5082(4) 1.2297(3) 0.7956(2)
N4 N 1.0782(5) 1.5248(4) 0.8988(3)
N5 N 0.7298(3) 0.6282(3) 0.44566(18)
N6 N 0.4987(3) 0.4766(3) 0.36243(18)
N7 N 0.2050(3) 0.1675(3) 0.1077(2)
N8 N 0.3725(4) -0.2173(4) -0.1622(3)
N9 N 0.9529(4) 0.4079(3) 0.5769(2)
N10 N 1.0066(4) 1.1302(3) 0.5823(2)
O1 O 1.1084(4) 1.5978(3) 0.9751(3)
O2 O 0.9827(5) 1.5132(4) 0.8334(3)
O3 O 0.3913(4) -0.2930(3) -0.1289(3)
O4 O 0.4002(4) -0.2076(4) -0.2318(2)
S1 S 1.00188(13) 0.65449(9) 0.65223(6)
S2 S 0.95032(11) 0.92648(8) 0.64394(6)
Cd1 Cd 0.99728(3) 0.74976(2) 0.511655(16)
N9A N 1.0471(4) 0.5921(3) 0.4231(2)
N10A N 0.9934(4) 0.8698(3) 0.4177(2)
Cd1A Cd 1.00272(3) 0.25024(2) 0.488345(16)
Cd1A_2 Cd 1.00272(3) 1.25024(2) 0.488345(16)
loop_
_geom_bond_atom_site_label_1
_geom_bond_atom_site_label_2
_geom_bond_site_symmetry_1
_geom_bond_site_symmetry_2
C1 H1 1_555 1_555
C2 C1 1_555 1_555
H2 C2 1_555 1_555
C3 H3 1_555 1_555
C4 H4 1_555 1_555
H5 C4 1_555 1_555
C5 C4 1_555 1_555
H6 C5 1_555 1_555
H7 C5 1_555 1_555
C6 C5 1_555 1_555
H8 C6 1_555 1_555
H9 C6 1_555 1_555
C7 H10 1_555 1_555
C8 C7 1_555 1_555
C9 C8 1_555 1_555
H11 C9 1_555 1_555
C10 C9 1_555 1_555
H12 C10 1_555 1_555
C11 C10 1_555 1_555
C12 C11 1_555 1_555
H13 C12 1_555 1_555
C13 C8 1_555 1_555
H14 C13 1_555 1_555
C14 H15 1_555 1_555
C15 C14 1_555 1_555
H16 C15 1_555 1_555
C16 H17 1_555 1_555
C17 H18 1_555 1_555
H19 C17 1_555 1_555
C18 C17 1_555 1_555
H20 C18 1_555 1_555
H21 C18 1_555 1_555
C19 C18 1_555 1_555
H22 C19 1_555 1_555
H23 C19 1_555 1_555
C20 H24 1_555 1_555
C21 C20 1_555 1_555
C22 C21 1_555 1_555
H25 C22 1_555 1_555
C23 C22 1_555 1_555
H26 C23 1_555 1_555
C24 C23 1_555 1_555
C25 C24 1_555 1_555
H27 C25 1_555 1_555
C26 C21 1_555 1_555
H28 C26 1_555 1_555
C27 N9 1_555 1_555
C28 N10 1_555 1_555
N1 C1 1_555 1_555
N2 C2 1_555 1_555
N3 C6 1_555 1_555
N4 C11 1_555 1_555
N5 C14 1_555 1_555
N6 C15 1_555 1_555
N7 C19 1_555 1_555
N8 C24 1_555 1_555
N9 Cd1A 1_555 1_555
N10 Cd1A_2 1_555 1_555
O1 N4 1_555 1_555
O2 N4 1_555 1_555
O3 N8 1_555 1_555
O4 N8 1_555 1_555
S1 C27 1_555 1_555
S2 C28 1_555 1_555
Cd1 N1 1_555 1_555
N9A Cd1 1_555 1_555
N10A Cd1 1_555 1_555
C3 N1 1_555 1_555
C3 N2 1_555 1_555
C4 N2 1_555 1_555
C7 N3 1_555 1_555
C12 C13 1_555 1_555
C16 N5 1_555 1_555
C16 N6 1_555 1_555
C17 N6 1_555 1_555
C20 N7 1_555 1_555
C25 C26 1_555 1_555
N5 Cd1 1_555 1_555
S1 Cd1 1_555 1_555
S2 Cd1 1_555 1_555

#END
