
#######################################################################
#
#                 Cambridge Crystallographic Data Centre
#                                CCDC 
#
#######################################################################
#
# If this CIF has been generated from an entry in the Cambridge 
# Structural Database, then it will include bibliographic, chemical, 
# crystal, experimental, refinement or atomic coordinate data resulting 
# from the CCDC's data processing and validation procedures.
#
#######################################################################

data_YOMHUE
_symmetry_cell_setting           cubic
_symmetry_space_group_name_H-M   'I -4 3 d'
_symmetry_Int_Tables_number      220
_space_group_name_Hall           'I -4bd 2c 3'
loop_
_symmetry_equiv_pos_site_id
_symmetry_equiv_pos_as_xyz
1 x,y,z
2 1/2-x,-y,1/2+z
3 -x,1/2+y,1/2-z
4 1/2+x,1/2-y,-z
5 z,x,y
6 1/2+z,1/2-x,-y
7 1/2-z,-x,1/2+y
8 -z,1/2+x,1/2-y
9 y,z,x
10 -y,1/2+z,1/2-x
11 1/2+y,1/2-z,-x
12 1/2-y,-z,1/2+x
13 1/4+y,1/4+x,1/4+z
14 1/4-y,3/4-x,3/4+z
15 3/4+y,1/4-x,3/4-z
16 3/4-y,3/4+x,1/4-z
17 1/4+x,1/4+z,1/4+y
18 3/4-x,3/4+z,1/4-y
19 1/4-x,3/4-z,3/4+y
20 3/4+x,1/4-z,3/4-y
21 1/4+z,1/4+y,1/4+x
22 3/4+z,1/4-y,3/4-x
23 3/4-z,3/4+y,1/4-x
24 1/4-z,3/4-y,3/4+x
25 1/2+x,1/2+y,1/2+z
26 -x,1/2-y,z
27 1/2-x,y,-z
28 x,-y,1/2-z
29 1/2+z,1/2+x,1/2+y
30 z,-x,1/2-y
31 -z,1/2-x,y
32 1/2-z,x,-y
33 1/2+y,1/2+z,1/2+x
34 1/2-y,z,-x
35 y,-z,1/2-x
36 -y,1/2-z,x
37 3/4+y,3/4+x,3/4+z
38 3/4-y,1/4-x,1/4+z
39 1/4+y,3/4-x,1/4-z
40 1/4-y,1/4+x,3/4-z
41 3/4+x,3/4+z,3/4+y
42 1/4-x,1/4+z,3/4-y
43 3/4-x,1/4-z,1/4+y
44 1/4+x,3/4-z,1/4-y
45 3/4+z,3/4+y,3/4+x
46 1/4+z,3/4-y,1/4-x
47 1/4-z,1/4+y,3/4-x
48 3/4-z,1/4-y,1/4+x
_cell_length_a                   21.5361(2)
_cell_length_b                   21.5361(2)
_cell_length_c                   21.5361(2)
_cell_angle_alpha                90
_cell_angle_beta                 90
_cell_angle_gamma                90
_cell_volume                     9988.52
loop_
_atom_site_label
_atom_site_type_symbol
_atom_site_fract_x
_atom_site_fract_y
_atom_site_fract_z
O5 O 0.5252(8) 0.0602(8) 0.1968(7)
H10 H 0.4913 0.0706 0.2140
H11 H 0.5248 0.0406 0.1625
Cd1 Cd 0.8750 0.0000 0.2500
Cd2 Cd 0.985180(14) 0.030670(13) 0.402030(13)
S1 S 0.94971(5) 0.05029(5) 0.55029(5)
O1 O 0.92432(15) 0.04721(17) 0.48689(16)
O2 O 0.91069(16) 0.08931(16) 0.58931(16)
O3 O 1.03774(12) -0.03774(12) 0.46226(12)
N1 N 0.90947(15) -0.05098(16) 0.38763(16)
N2 N 0.87155(16) -0.06048(16) 0.34112(16)
N3 N 0.83581(15) -0.11011(15) 0.35314(16)
N4 N 0.89953(15) -0.09410(16) 0.43080(16)
C1 C 0.85397(18) -0.12995(18) 0.40852(19)
C2 C 0.8288(2) -0.1860(2) 0.4404(2)
H2 H 0.8616 -0.2032 0.4653
H3 H 0.7948 -0.1764 0.4675
H4 H 0.8163 -0.2173 0.4112
N5 N 1.01924(17) 0.00823(18) 0.29969(16)
N6 N 0.7667(2) 0.0000 0.2500
C3 C 1.07778(18) 0.0052(2) 0.2805(3)
C4 C 1.1392(4) 0.0000(5) 0.3144(6)
H5 H 1.1715 -0.0003 0.2837
H6 H 1.1406 -0.0380 0.3377
H7 H 1.1452 0.0345 0.3420
N2Q N 0.87845(16) 0.09112(16) 0.31048(16)
N2AA N 0.87155(16) 0.06048(16) 0.15888(16)
N2PA N 0.87845(16) -0.09112(16) 0.18952(16)
N6Q N 0.9833(2) 0.0000 0.2500
N3Q N 0.91419(15) 0.10314(16) 0.36011(15)
N4F N 1.06920(16) 0.10047(15) 0.40590(16)
O1F O 1.01311(16) 0.07568(15) 0.54721(17)
O1I O 0.95279(17) -0.01311(16) 0.57568(15)
Cd2I Cd 0.969330(13) -0.097970(13) 0.514820(14)
Cd2F Cd 1.097970(13) 0.014820(14) 0.530670(13)
Cd2PA Cd 0.764820(14) -0.152030(13) 0.280670(13)
N5PA N 0.73076(17) -0.04969(16) 0.25823(18)
N5Q N 0.73076(17) 0.04969(16) 0.24177(18)
C3AA C 1.07778(18) -0.0052(2) 0.2195(3)
H1? H 0.7024 -0.1904 0.1805
N7? N 0.67222(18) -0.0305(2) 0.2552(3)
O4? O 0.6075(7) -0.1332(5) 0.2021(7)
H8? H 0.5792 -0.1492 0.1797
H9? H 0.5980 -0.1141 0.2352
loop_
_geom_bond_atom_site_label_1
_geom_bond_atom_site_label_2
_geom_bond_site_symmetry_1
_geom_bond_site_symmetry_2
Cd1 N2 1_555 1_555
Cd2 O1 1_555 1_555
S1 O1 1_555 1_555
O2 S1 1_555 1_555
O3 Cd2 1_555 1_555
N1 Cd2 1_555 1_555
N2 N1 1_555 1_555
N3 N2 1_555 1_555
N4 N1 1_555 1_555
C1 N3 1_555 1_555
C2 C1 1_555 1_555
H2 C2 1_555 1_555
H3 C2 1_555 1_555
H4 C2 1_555 1_555
N5 Cd2 1_555 1_555
N6 Cd1 1_555 1_555
C3 N5 1_555 1_555
C4 C3 1_555 1_555
H5 C4 1_555 1_555
H6 C4 1_555 1_555
H7 C4 1_555 1_555
O5 H10 1_555 1_555
H11 O5 1_555 1_555
N2Q Cd1 1_555 1_555
N2AA Cd1 1_555 1_555
N2PA Cd1 1_555 1_555
N6Q Cd1 1_555 1_555
N3Q Cd2 1_555 1_555
N4F Cd2 1_555 1_555
O1F S1 1_555 1_555
O1I S1 1_555 1_555
Cd2I O3 1_555 1_555
Cd2F O3 1_555 1_555
Cd2PA N3 1_555 1_555
N5PA N6 1_555 1_555
N5Q N6 1_555 1_555
C3AA C3 1_555 1_555
N4 C1 1_555 1_555
N4 Cd2I 1_555 1_555
N5 N6Q 1_555 1_555
N2Q N3Q 1_555 1_555
O1F Cd2F 1_555 1_555
O1I Cd2I 1_555 1_555
Cd2PA N5PA 1_555 1_555

#END
