
#######################################################################
#
#                 Cambridge Crystallographic Data Centre
#                                CCDC 
#
#######################################################################
#
# If this CIF has been generated from an entry in the Cambridge 
# Structural Database, then it will include bibliographic, chemical, 
# crystal, experimental, refinement or atomic coordinate data resulting 
# from the CCDC's data processing and validation procedures.
#
#######################################################################

data_YOMJAM02
_symmetry_cell_setting           monoclinic
_symmetry_space_group_name_H-M   'C c'
_symmetry_Int_Tables_number      9
_space_group_name_Hall           'C -2yc'
loop_
_symmetry_equiv_pos_site_id
_symmetry_equiv_pos_as_xyz
1 x,y,z
2 x,-y,1/2+z
3 1/2+x,1/2+y,z
4 1/2+x,1/2-y,1/2+z
_cell_length_a                   18.490(4)
_cell_length_b                   12.400(3)
_cell_length_c                   25.000(5)
_cell_angle_alpha                90
_cell_angle_beta                 107.99(3)
_cell_angle_gamma                90
_cell_volume                     5451.67
loop_
_atom_site_label
_atom_site_type_symbol
_atom_site_fract_x
_atom_site_fract_y
_atom_site_fract_z
Cd1 Cd 0.445909(11) 0.13764(2) 0.265459(9)
Cd2 Cd 0.569239(14) 0.37133(2) 0.738411(11)
S1 S 0.34845(10) -0.37981(12) 0.47217(7)
S2 S 0.14657(8) 0.63896(10) 0.06289(6)
O1 O 0.6848(2) 0.3883(4) 0.72265(17)
H1 H 0.7199 0.4016 0.7082
H2 H 0.7001 0.3359 0.7458
O2 O 0.33332(17) 0.2501(3) 0.24142(13)
O3 O 0.5878(2) 0.1927(3) 0.76614(15)
H3 H 0.5839 0.1275 0.7750
H4 H 0.6121 0.2421 0.7553
O4 O 0.42840(17) 0.3140(3) 0.21675(14)
O5 O 0.53557(19) 0.5466(3) 0.70605(14)
H5 H 0.5767 0.5136 0.7085
H6 H 0.5074 0.5047 0.7178
O6 O 0.0740(3) 0.6009(8) 0.0532(4)
O7 O 0.1692(3) 0.6579(5) 0.0141(2)
O8 O 0.1595(6) 0.7326(5) 0.0962(3)
O9 O 0.3717(3) 0.0151(3) 0.29448(16)
O10 O 0.4840(2) -0.0593(4) 0.30604(18)
O11 O 0.2714(4) -0.3585(4) 0.4713(3)
O12 O 0.3504(4) -0.4787(4) 0.4436(3)
O13 O 0.4065(5) -0.3774(6) 0.5244(2)
N1 N 0.4083(2) 0.0645(3) 0.17478(15)
N2 N 0.3030(2) -0.2013(4) -0.08815(16)
N3 N 0.4840(2) 0.1995(3) 0.35921(15)
N4 N 0.5243(2) 0.3122(3) 0.64463(16)
N5 N 0.5738(2) 0.1408(3) 0.26907(18)
N6 N 0.9491(2) 0.1343(3) 0.25279(17)
N7 N 0.6176(2) 0.4347(3) 0.83098(16)
N8 N 0.6920(2) 0.6103(4) 1.11275(18)
C1 C 0.3595(2) 0.3151(3) 0.21394(16)
C2 C 0.3062(2) 0.3924(3) 0.17476(16)
C3 C 0.3251(2) 0.4389(4) 0.13132(19)
H7 H 0.3713 0.4215 0.1259
C4 C 0.2764(2) 0.5123(4) 0.09487(19)
H8 H 0.2892 0.5422 0.0649
C5 C 0.2087(2) 0.5394(3) 0.10452(17)
C6 C 0.1888(2) 0.4918(3) 0.14786(18)
H9 H 0.1427 0.5089 0.1534
C7 C 0.2373(2) 0.4189(4) 0.18297(18)
H10 H 0.2238 0.3874 0.2123
C8 C 0.4218(3) -0.0560(4) 0.31532(19)
C9 C 0.4041(3) -0.1351(4) 0.3550(2)
C10 C 0.3288(3) -0.1550(4) 0.3530(2)
H11 H 0.2892 -0.1192 0.3268
C11 C 0.3130(3) -0.2284(4) 0.3900(2)
H12 H 0.2629 -0.2433 0.3878
C12 C 0.3709(3) -0.2781(4) 0.4292(2)
C13 C 0.4468(3) -0.2570(5) 0.4335(2)
H13 H 0.4862 -0.2895 0.4613
C14 C 0.4617(3) -0.1869(5) 0.3954(2)
H14 H 0.5119 -0.1743 0.3970
C15 C 0.3621(3) -0.0199(4) 0.16400(18)
H15 H 0.3444 -0.0454 0.1926
C16 C 0.3389(3) -0.0719(4) 0.11315(19)
H16 H 0.3048 -0.1292 0.1075
C17 C 0.3666(3) -0.0384(4) 0.07010(18)
C18 C 0.4150(3) 0.0472(5) 0.0815(2)
H17 H 0.4356 0.0722 0.0543
C19 C 0.4339(3) 0.0973(5) 0.1337(2)
H18 H 0.4661 0.1568 0.1400
C20 C 0.3002(3) -0.2507(4) -0.0413(2)
H19 H 0.2842 -0.3222 -0.0437
C21 C 0.3198(3) -0.2004(4) 0.01012(19)
H20 H 0.3162 -0.2370 0.0417
C22 C 0.3450(2) -0.0948(4) 0.01445(19)
C23 C 0.3490(3) -0.0457(4) -0.0333(2)
H21 H 0.3662 0.0250 -0.0320
C24 C 0.3272(3) -0.1015(5) -0.0839(2)
H22 H 0.3299 -0.0665 -0.1161
C25 C 0.5230(4) 0.1355(4) 0.3995(3)
H23 H 0.5441 0.0732 0.3898
C26 C 0.5344(3) 0.1566(5) 0.4566(2)
H24 H 0.5627 0.1089 0.4838
C27 C 0.5038(2) 0.2476(4) 0.47249(17)
C28 C 0.4641(3) 0.3158(4) 0.42921(19)
H25 H 0.4435 0.3797 0.4375
C29 C 0.4554(3) 0.2893(4) 0.3742(2)
H26 H 0.4282 0.3360 0.3460
C30 C 0.5495(3) 0.2213(4) 0.6292(2)
H27 H 0.5729 0.1716 0.6570
C31 C 0.5433(3) 0.1961(4) 0.5745(2)
H28 H 0.5615 0.1305 0.5660
C32 C 0.5097(2) 0.2693(4) 0.53194(17)
C33 C 0.4810(3) 0.3631(4) 0.5483(2)
H29 H 0.4565 0.4138 0.5214
C34 C 0.4885(3) 0.3808(4) 0.6027(2)
H30 H 0.4679 0.4438 0.6121
C35 C 0.6268(2) 0.0748(4) 0.30134(19)
H31 H 0.6130 0.0278 0.3255
C36 C 0.7012(2) 0.0736(4) 0.3004(2)
H32 H 0.7359 0.0254 0.3230
C37 C 0.7239(2) 0.1434(3) 0.26608(18)
C38 C 0.6693(3) 0.2131(4) 0.2334(2)
H33 H 0.6823 0.2628 0.2100
C39 C 0.5968(2) 0.2084(4) 0.2355(2)
H34 H 0.5610 0.2547 0.2124
C40 C 0.9313(3) 0.0848(4) 0.2937(2)
H35 H 0.9694 0.0465 0.3199
C41 C 0.8605(2) 0.0862(4) 0.3003(2)
H36 H 0.8514 0.0501 0.3302
C42 C 0.8026(2) 0.1419(3) 0.26191(19)
C43 C 0.8209(3) 0.1945(4) 0.2189(2)
H37 H 0.7839 0.2332 0.1920
C44 C 0.8935(3) 0.1894(4) 0.2161(2)
H38 H 0.9047 0.2261 0.1871
C45 C 0.6246(3) 0.3657(4) 0.8737(2)
H39 H 0.6195 0.2923 0.8658
C46 C 0.6390(3) 0.3985(4) 0.92854(19)
H40 H 0.6433 0.3476 0.9567
C47 C 0.6471(2) 0.5069(4) 0.94195(17)
C48 C 0.6407(3) 0.5782(4) 0.89812(19)
H41 H 0.6465 0.6519 0.9050
C49 C 0.6256(3) 0.5389(4) 0.84372(19)
H42 H 0.6208 0.5881 0.8147
C50 C 0.6574(3) 0.5170(5) 1.0938(2)
H43 H 0.6427 0.4739 1.1191
C51 C 0.6421(3) 0.4808(5) 1.0401(2)
H44 H 0.6182 0.4147 1.0295
C52 C 0.6630(2) 0.5440(4) 1.00131(19)
C53 C 0.7001(3) 0.6396(4) 1.0211(2)
H45 H 0.7174 0.6832 0.9973
C54 C 0.7114(3) 0.6700(5) 1.0756(2)
H46 H 0.7341 0.7365 1.0872
Cd2C Cd 1.069239(14) 0.12867(2) 0.238411(11)
N6C N 0.4491(2) 0.3657(3) 0.75279(17)
O14 O 0.5300(3) -0.3399(4) 0.61296(18)
H47 H 0.5444 -0.2798 0.6029
H48 H 0.4994 -0.3679 0.5827
O15 O 0.2435(3) -0.3093(5) -0.1884(2)
H49 H 0.2704 -0.2904 -0.2100
H50 H 0.2546 -0.2800 -0.1563
O16 O 0.1674(3) 0.5413(5) -0.0808(2)
H51 H 0.1659 0.5802 -0.0532
H52 H 0.1965 0.4880 -0.0682
loop_
_geom_bond_atom_site_label_1
_geom_bond_atom_site_label_2
_geom_bond_site_symmetry_1
_geom_bond_site_symmetry_2
Cd1 O2 1_555 1_555
Cd2 O1 1_555 1_555
S1 O11 1_555 1_555
S2 O6 1_555 1_555
O1 H1 1_555 1_555
H2 O1 1_555 1_555
O2 C1 1_555 1_555
O3 Cd2 1_555 1_555
H3 O3 1_555 1_555
H4 O3 1_555 1_555
O4 Cd1 1_555 1_555
O5 Cd2 1_555 1_555
H5 O5 1_555 1_555
H6 O5 1_555 1_555
O7 S2 1_555 1_555
O8 S2 1_555 1_555
O9 Cd1 1_555 1_555
O10 C8 1_555 1_555
O12 S1 1_555 1_555
O13 S1 1_555 1_555
N1 Cd1 1_555 1_555
N2 C20 1_555 1_555
N3 Cd1 1_555 1_555
N4 Cd2 1_555 1_555
N5 Cd1 1_555 1_555
N6 C40 1_555 1_555
N7 Cd2 1_555 1_555
N8 C50 1_555 1_555
C1 O4 1_555 1_555
C2 C1 1_555 1_555
C3 C2 1_555 1_555
H7 C3 1_555 1_555
C4 C3 1_555 1_555
H8 C4 1_555 1_555
C5 S2 1_555 1_555
C6 C5 1_555 1_555
H9 C6 1_555 1_555
C7 C2 1_555 1_555
H10 C7 1_555 1_555
C8 O9 1_555 1_555
C9 C8 1_555 1_555
C10 C9 1_555 1_555
H11 C10 1_555 1_555
C11 C10 1_555 1_555
H12 C11 1_555 1_555
C12 S1 1_555 1_555
C13 C12 1_555 1_555
H13 C13 1_555 1_555
C14 C9 1_555 1_555
H14 C14 1_555 1_555
C15 N1 1_555 1_555
H15 C15 1_555 1_555
C16 C15 1_555 1_555
H16 C16 1_555 1_555
C17 C16 1_555 1_555
C18 C17 1_555 1_555
H17 C18 1_555 1_555
C19 N1 1_555 1_555
H18 C19 1_555 1_555
C20 H19 1_555 1_555
C21 C20 1_555 1_555
H20 C21 1_555 1_555
C22 C17 1_555 1_555
C23 C22 1_555 1_555
H21 C23 1_555 1_555
C24 N2 1_555 1_555
H22 C24 1_555 1_555
C25 N3 1_555 1_555
H23 C25 1_555 1_555
C26 C25 1_555 1_555
H24 C26 1_555 1_555
C27 C26 1_555 1_555
C28 C27 1_555 1_555
H25 C28 1_555 1_555
C29 N3 1_555 1_555
H26 C29 1_555 1_555
C30 N4 1_555 1_555
H27 C30 1_555 1_555
C31 C30 1_555 1_555
H28 C31 1_555 1_555
C32 C27 1_555 1_555
C33 C32 1_555 1_555
H29 C33 1_555 1_555
C34 N4 1_555 1_555
H30 C34 1_555 1_555
C35 N5 1_555 1_555
H31 C35 1_555 1_555
C36 C35 1_555 1_555
H32 C36 1_555 1_555
C37 C36 1_555 1_555
C38 C37 1_555 1_555
H33 C38 1_555 1_555
C39 N5 1_555 1_555
H34 C39 1_555 1_555
C40 H35 1_555 1_555
C41 C40 1_555 1_555
H36 C41 1_555 1_555
C42 C37 1_555 1_555
C43 C42 1_555 1_555
H37 C43 1_555 1_555
C44 N6 1_555 1_555
H38 C44 1_555 1_555
C45 N7 1_555 1_555
H39 C45 1_555 1_555
C46 C45 1_555 1_555
H40 C46 1_555 1_555
C47 C46 1_555 1_555
C48 C47 1_555 1_555
H41 C48 1_555 1_555
C49 N7 1_555 1_555
H42 C49 1_555 1_555
C50 H43 1_555 1_555
C51 C50 1_555 1_555
H44 C51 1_555 1_555
C52 C47 1_555 1_555
C53 C52 1_555 1_555
H45 C53 1_555 1_555
C54 N8 1_555 1_555
H46 C54 1_555 1_555
O14 H47 1_555 1_555
H48 O14 1_555 1_555
O15 H49 1_555 1_555
H50 O15 1_555 1_555
O16 H51 1_555 1_555
H52 O16 1_555 1_555
Cd2C N6 1_555 1_555
N6C Cd2 1_555 1_555
C4 C5 1_555 1_555
C6 C7 1_555 1_555
C11 C12 1_555 1_555
C13 C14 1_555 1_555
C18 C19 1_555 1_555
C21 C22 1_555 1_555
C23 C24 1_555 1_555
C28 C29 1_555 1_555
C31 C32 1_555 1_555
C33 C34 1_555 1_555
C38 C39 1_555 1_555
C41 C42 1_555 1_555
C43 C44 1_555 1_555
C48 C49 1_555 1_555
C51 C52 1_555 1_555
C53 C54 1_555 1_555

#END
