
#######################################################################
#
#                 Cambridge Crystallographic Data Centre
#                                CCDC 
#
#######################################################################
#
# If this CIF has been generated from an entry in the Cambridge 
# Structural Database, then it will include bibliographic, chemical, 
# crystal, experimental, refinement or atomic coordinate data resulting 
# from the CCDC's data processing and validation procedures.
#
#######################################################################

data_YOMKIW
_symmetry_cell_setting           monoclinic
_symmetry_space_group_name_H-M   'P 21/n'
_symmetry_Int_Tables_number      14
_space_group_name_Hall           '-P 2yn'
loop_
_symmetry_equiv_pos_site_id
_symmetry_equiv_pos_as_xyz
1 x,y,z
2 1/2-x,1/2+y,1/2-z
3 -x,-y,-z
4 1/2+x,1/2-y,1/2+z
_cell_length_a                   7.0510(17)
_cell_length_b                   22.239(9)
_cell_length_c                   9.089(2)
_cell_angle_alpha                90
_cell_angle_beta                 97.13(3)
_cell_angle_gamma                90
_cell_volume                     1414.2
loop_
_atom_site_label
_atom_site_type_symbol
_atom_site_fract_x
_atom_site_fract_y
_atom_site_fract_z
Cu1 Cu 0.68087(6) 0.170991(17) 0.29285(4)
S1 S 0.67498(15) 0.23964(4) 0.47973(9)
Si1 Si 0.19644(13) 0.09931(4) 0.34676(10)
F1 F 0.3647(3) 0.04525(8) 0.3691(2)
F2 F 0.1057(3) 0.06975(10) 0.1851(2)
F3 F 0.3414(3) 0.14367(9) 0.2620(2)
F4 F 0.0289(3) 0.15394(8) 0.3294(2)
F5 F 0.0490(3) 0.05579(9) 0.4344(2)
F6 F 0.2871(3) 0.12789(9) 0.5130(2)
N1 N 0.6774(4) 0.13114(11) 0.0929(3)
N2 N 0.6788(4) 0.24205(12) 0.1658(3)
N3 N 0.6788(5) 0.29857(12) 0.2243(3)
H1 H 0.6797 0.3301 0.1695
N4 N 0.6795(5) 0.35674(13) 0.4298(3)
H2 H 0.6817 0.3876 0.3729
H3 H 0.6788 0.3615 0.5236
C1 C 0.6732(6) 0.07261(15) 0.0589(4)
H4 H 0.6748 0.0446 0.135
C2 C 0.6667(6) 0.05222(17) -0.0852(4)
H5 H 0.6646 0.0112 -0.1049
C3 C 0.6634(7) 0.09273(18) -0.1986(4)
H6 H 0.658 0.0797 -0.2963
C4 C 0.6684(6) 0.15380(18) -0.1651(4)
H7 H 0.6666 0.1823 -0.2401
C5 C 0.6759(5) 0.17127(15) -0.0203(3)
C6 C 0.6785(5) 0.23420(15) 0.0263(4)
H8 H 0.6799 0.266 -0.0401
C7 C 0.6774(5) 0.30273(15) 0.3738(4)
O1 O 0.6968(4) 0.10051(10) 0.4218(3)
H9 H 0.796(2) 0.0789(11) 0.427(4)
H10 H 0.601(2) 0.0773(10) 0.412(4)
Cu1_2 Cu -0.31913(6) 0.170991(17) 0.29285(4)
F4_2 F 1.0289(3) 0.15394(8) 0.3294(2)
O2 O 0.1338(6) 0.04213(13) 0.7468(3)
H11 H 0.132(6) 0.040(2) 0.6535(10)
H12 H 0.057(7) 0.0159(19) 0.773(4)
loop_
_geom_bond_atom_site_label_1
_geom_bond_atom_site_label_2
_geom_bond_site_symmetry_1
_geom_bond_site_symmetry_2
Cu1 S1 1_555 1_555
S1 C7 1_555 1_555
Si1 F1 1_555 1_555
F2 Si1 1_555 1_555
F3 Cu1 1_555 1_555
F4 Si1 1_555 1_555
F5 Si1 1_555 1_555
F6 Si1 1_555 1_555
N1 Cu1 1_555 1_555
N2 Cu1 1_555 1_555
N3 N2 1_555 1_555
H1 N3 1_555 1_555
N4 H2 1_555 1_555
H3 N4 1_555 1_555
C1 N1 1_555 1_555
H4 C1 1_555 1_555
C2 C1 1_555 1_555
H5 C2 1_555 1_555
C3 C2 1_555 1_555
H6 C3 1_555 1_555
C4 C3 1_555 1_555
H7 C4 1_555 1_555
C5 N1 1_555 1_555
C6 N2 1_555 1_555
H8 C6 1_555 1_555
C7 N3 1_555 1_555
O1 Cu1 1_555 1_555
H9 O1 1_555 1_555
H10 O1 1_555 1_555
O2 H11 1_555 1_555
H12 O2 1_555 1_555
Cu1_2 F4 1_555 1_555
F4_2 Cu1 1_555 1_555
Si1 F3 1_555 1_555
N4 C7 1_555 1_555
C4 C5 1_555 1_555
C5 C6 1_555 1_555

#END
