
#######################################################################
#
#                 Cambridge Crystallographic Data Centre
#                                CCDC 
#
#######################################################################
#
# If this CIF has been generated from an entry in the Cambridge 
# Structural Database, then it will include bibliographic, chemical, 
# crystal, experimental, refinement or atomic coordinate data resulting 
# from the CCDC's data processing and validation procedures.
#
#######################################################################

data_YOMLAO
_symmetry_cell_setting           monoclinic
_symmetry_space_group_name_H-M   'P 21/c'
_symmetry_Int_Tables_number      14
_space_group_name_Hall           '-P 2ybc'
loop_
_symmetry_equiv_pos_site_id
_symmetry_equiv_pos_as_xyz
1 x,y,z
2 -x,1/2+y,1/2-z
3 -x,-y,-z
4 x,1/2-y,1/2+z
_cell_length_a                   8.4508(7)
_cell_length_b                   6.7670(6)
_cell_length_c                   9.1214(8)
_cell_angle_alpha                90
_cell_angle_beta                 93.1170(10)
_cell_angle_gamma                90
_cell_volume                     520.85
loop_
_atom_site_label
_atom_site_type_symbol
_atom_site_fract_x
_atom_site_fract_y
_atom_site_fract_z
Pb1 Pb -0.41144(2) -0.22733(4) 0.64277(2)
O1 O -0.1508(6) -0.2157(6) 0.5511(6)
O2 O -0.2730(4) -0.3816(7) 0.3676(5)
O3 O 0.4010(4) -0.1385(8) 0.3873(5)
O4 O 0.3199(5) -0.4131(6) 0.2722(4)
C1 C -0.1482(8) -0.3068(9) 0.4308(7)
C2 C 0.0063(7) -0.3342(10) 0.3642(7)
H1 H 0.0121 -0.4164 0.2829
C3 C 0.1375(10) -0.2440(7) 0.4177(9)
H2 H 0.1308 -0.1624 0.4992
C4 C 0.2926(9) -0.2680(8) 0.3533(9)
Pb1C Pb -0.41144(2) -0.27267(4) 0.14277(2)
Pb1_2 Pb 0.58856(2) -0.22733(4) 0.64277(2)
Pb1B Pb 0.41144(2) 0.22733(4) 0.35723(2)
Pb1B_2 Pb 0.41144(2) -0.77267(4) 0.35723(2)
Pb1C_2 Pb 0.58856(2) -0.27267(4) 0.14277(2)
O2C O -0.2730(4) -0.1184(7) 0.8676(5)
O3B O -0.4010(4) 0.1385(8) 0.6127(5)
O3_2 O -0.5990(4) -0.1385(8) 0.3873(5)
O4C O -0.6801(5) -0.0869(6) 0.7722(4)
O4B O -0.3199(5) -0.5869(6) 0.7278(4)
loop_
_geom_bond_atom_site_label_1
_geom_bond_atom_site_label_2
_geom_bond_site_symmetry_1
_geom_bond_site_symmetry_2
Pb1 O1 1_555 1_555
O1 C1 1_555 1_555
O2 C1 1_555 1_555
O3 C4 1_555 1_555
O4 C4 1_555 1_555
C1 C2 1_555 1_555
C2 H1 1_555 1_555
C3 C2 1_555 1_555
H2 C3 1_555 1_555
C4 C3 1_555 1_555
Pb1C O2 1_555 1_555
Pb1_2 O3 1_555 1_555
Pb1B O3 1_555 1_555
Pb1B_2 O4 1_555 1_555
Pb1C_2 O4 1_555 1_555
O2C Pb1 1_555 1_555
O3B Pb1 1_555 1_555
O3_2 Pb1 1_555 1_555
O4C Pb1 1_555 1_555
O4B Pb1 1_555 1_555

#END
