
#######################################################################
#
#                 Cambridge Crystallographic Data Centre
#                                CCDC 
#
#######################################################################
#
# If this CIF has been generated from an entry in the Cambridge 
# Structural Database, then it will include bibliographic, chemical, 
# crystal, experimental, refinement or atomic coordinate data resulting 
# from the CCDC's data processing and validation procedures.
#
#######################################################################

data_YOMLET
_symmetry_cell_setting           monoclinic
_symmetry_space_group_name_H-M   'P 21/n'
_symmetry_Int_Tables_number      14
_space_group_name_Hall           '-P 2yn'
loop_
_symmetry_equiv_pos_site_id
_symmetry_equiv_pos_as_xyz
1 x,y,z
2 1/2-x,1/2+y,1/2-z
3 -x,-y,-z
4 1/2+x,1/2-y,1/2+z
_cell_length_a                   8.222(11)
_cell_length_b                   15.53(2)
_cell_length_c                   15.206(19)
_cell_angle_alpha                90
_cell_angle_beta                 100.55(2)
_cell_angle_gamma                90
_cell_volume                     1908.8
loop_
_atom_site_label
_atom_site_type_symbol
_atom_site_fract_x
_atom_site_fract_y
_atom_site_fract_z
Co1 Co 0.0000 0.0000 0.0000
O1 O 0.1362(7) 0.5343(3) -0.0750(4)
H1 H 0.050(6) 0.554(4) -0.059(5)
O2 O 0.1238(6) 0.4170(3) 0.0064(3)
O3 O -0.2370(5) -0.1599(2) 0.2415(2)
O4 O 0.3135(5) 0.1410(2) 0.1280(2)
O5 O 0.2075(4) 0.0734(2) 0.0007(2)
N1 N -0.3906(5) -0.4095(2) 0.4172(3)
N2 N -0.0001(5) -0.2404(3) 0.2662(3)
H2 H 0.0449 -0.2886 0.2897
N3 N 0.1202(5) -0.0760(2) 0.1157(3)
C1 C 0.6224(9) 0.3842(4) -0.1445(4)
H3 H 0.7185 0.3685 -0.1672
C2 C 0.2677(7) -0.1810(3) 0.2553(4)
H4 H 0.3195 -0.2181 0.3019
C3 C 0.5449(8) 0.3236(4) -0.0980(4)
H5 H 0.5889 0.2670 -0.0898
C4 C 0.3206(7) 0.2776(3) -0.0134(4)
H6 H 0.2031 0.2730 -0.0427
H7 H 0.3229 0.2987 0.0483
C5 C -0.4142(6) -0.3249(3) 0.4256(4)
H8 H -0.4820 -0.3059 0.4661
C6 C 0.1908(9) 0.4585(4) -0.0452(4)
C7 C 0.3592(7) -0.1232(3) 0.2156(4)
H9 H 0.4752 -0.1187 0.2361
C8 C 0.5608(8) 0.4657(4) -0.1575(4)
H10 H 0.6144 0.5066 -0.1889
C9 C 0.3960(7) 0.1872(3) -0.0076(3)
H11 H 0.3905 0.1634 -0.0685
H12 H 0.5136 0.1898 0.0220
C10 C 0.4208(9) 0.4888(4) -0.1252(4)
H13 H 0.3780 0.5455 -0.1351
C11 C -0.2408(6) -0.2915(3) 0.3217(3)
C12 C -0.3444(6) -0.2640(3) 0.3778(3)
H14 H -0.3671 -0.2044 0.3835
C13 C -0.2146(7) -0.3787(3) 0.3132(3)
H15 H -0.1446 -0.3991 0.2744
C14 C 0.3007(6) 0.1296(3) 0.0456(4)
C15 C -0.1604(6) -0.2244(3) 0.2707(3)
C16 C 0.3406(8) 0.4295(3) -0.0777(4)
C17 C 0.2825(7) -0.0720(3) 0.1462(4)
H16 H 0.3473 -0.0327 0.1194
C18 C 0.0304(7) -0.1313(3) 0.1536(3)
H17 H -0.0848 -0.1355 0.1306
C19 C 0.4030(7) 0.3450(3) -0.0633(4)
C20 C -0.2913(6) -0.4358(3) 0.3618(3)
H18 H -0.2731 -0.4958 0.3558
C21 C 0.0986(6) -0.1836(3) 0.2256(3)
O1B O -0.1362(7) -0.5343(3) 0.0750(4)
H1B H -0.050(6) -0.554(4) 0.059(5)
O2B O -0.1238(6) -0.4170(3) -0.0064(3)
O3B O 0.2370(5) 0.1599(2) -0.2415(2)
O4B O -0.3135(5) -0.1410(2) -0.1280(2)
O5B O -0.2075(4) -0.0734(2) -0.0007(2)
N1B N 0.3906(5) 0.4095(2) -0.4172(3)
N2B N 0.0001(5) 0.2404(3) -0.2662(3)
H2B H -0.0449 0.2886 -0.2897
N3B N -0.1202(5) 0.0760(2) -0.1157(3)
C1B C -0.6224(9) -0.3842(4) 0.1445(4)
H3B H -0.7185 -0.3685 0.1672
C2B C -0.2677(7) 0.1810(3) -0.2553(4)
H4B H -0.3195 0.2181 -0.3019
C3B C -0.5449(8) -0.3236(4) 0.0980(4)
H5B H -0.5889 -0.2670 0.0898
C4B C -0.3206(7) -0.2776(3) 0.0134(4)
H6B H -0.2031 -0.2730 0.0427
H7B H -0.3229 -0.2987 -0.0483
C5B C 0.4142(6) 0.3249(3) -0.4256(4)
H8B H 0.4820 0.3059 -0.4661
C6B C -0.1908(9) -0.4585(4) 0.0452(4)
C7B C -0.3592(7) 0.1232(3) -0.2156(4)
H9B H -0.4752 0.1187 -0.2361
C8B C -0.5608(8) -0.4657(4) 0.1575(4)
H10B H -0.6144 -0.5066 0.1889
C9B C -0.3960(7) -0.1872(3) 0.0076(3)
H11B H -0.3905 -0.1634 0.0685
H12B H -0.5136 -0.1898 -0.0220
C10B C -0.4208(9) -0.4888(4) 0.1252(4)
H13B H -0.3780 -0.5455 0.1351
C11B C 0.2408(6) 0.2915(3) -0.3217(3)
C12B C 0.3444(6) 0.2640(3) -0.3778(3)
H14B H 0.3671 0.2044 -0.3835
C13B C 0.2146(7) 0.3787(3) -0.3132(3)
H15B H 0.1446 0.3991 -0.2744
C14B C -0.3007(6) -0.1296(3) -0.0456(4)
C15B C 0.1604(6) 0.2244(3) -0.2707(3)
C16B C -0.3406(8) -0.4295(3) 0.0777(4)
C17B C -0.2825(7) 0.0720(3) -0.1462(4)
H16B H -0.3473 0.0327 -0.1194
C18B C -0.0304(7) 0.1313(3) -0.1536(3)
H17B H 0.0848 0.1355 -0.1306
C19B C -0.4030(7) -0.3450(3) 0.0633(4)
C20B C 0.2913(6) 0.4358(3) -0.3618(3)
H18B H 0.2731 0.4958 -0.3558
C21B C -0.0986(6) 0.1836(3) -0.2256(3)
Co1A Co -0.5000 -0.5000 0.5000
Co1A_2 Co 0.5000 0.5000 -0.5000
N1A N -0.1094(5) 0.0905(2) 0.0828(3)
N1C N 0.1094(5) -0.0905(2) -0.0828(3)
loop_
_geom_bond_atom_site_label_1
_geom_bond_atom_site_label_2
_geom_bond_site_symmetry_1
_geom_bond_site_symmetry_2
Co1 O5 1_555 1_555
O1 H1 1_555 1_555
O2 C6 1_555 1_555
O3 C15 1_555 1_555
O4 C14 1_555 1_555
O5 C14 1_555 1_555
N1 C5 1_555 1_555
N2 H2 1_555 1_555
N3 Co1 1_555 1_555
C1 H3 1_555 1_555
C2 H4 1_555 1_555
C3 C1 1_555 1_555
H5 C3 1_555 1_555
C4 H6 1_555 1_555
H7 C4 1_555 1_555
C5 H8 1_555 1_555
C6 O1 1_555 1_555
C7 C2 1_555 1_555
H9 C7 1_555 1_555
C8 C1 1_555 1_555
H10 C8 1_555 1_555
C9 C4 1_555 1_555
H11 C9 1_555 1_555
H12 C9 1_555 1_555
C10 C8 1_555 1_555
H13 C10 1_555 1_555
C11 C12 1_555 1_555
C12 C5 1_555 1_555
H14 C12 1_555 1_555
C13 C11 1_555 1_555
H15 C13 1_555 1_555
C14 C9 1_555 1_555
C15 N2 1_555 1_555
C16 C6 1_555 1_555
C17 N3 1_555 1_555
H16 C17 1_555 1_555
C18 N3 1_555 1_555
H17 C18 1_555 1_555
C19 C3 1_555 1_555
C20 N1 1_555 1_555
H18 C20 1_555 1_555
C21 N2 1_555 1_555
O1B H1B 1_555 1_555
O2B C6B 1_555 1_555
O3B C15B 1_555 1_555
O4B C14B 1_555 1_555
O5B Co1 1_555 1_555
N1B C5B 1_555 1_555
N2B H2B 1_555 1_555
N3B Co1 1_555 1_555
C1B H3B 1_555 1_555
C2B H4B 1_555 1_555
C3B C1B 1_555 1_555
H5B C3B 1_555 1_555
C4B H6B 1_555 1_555
H7B C4B 1_555 1_555
C5B H8B 1_555 1_555
C6B O1B 1_555 1_555
C7B C2B 1_555 1_555
H9B C7B 1_555 1_555
C8B C1B 1_555 1_555
H10B C8B 1_555 1_555
C9B C4B 1_555 1_555
H11B C9B 1_555 1_555
H12B C9B 1_555 1_555
C10B C8B 1_555 1_555
H13B C10B 1_555 1_555
C11B C12B 1_555 1_555
C12B C5B 1_555 1_555
H14B C12B 1_555 1_555
C13B C11B 1_555 1_555
H15B C13B 1_555 1_555
C14B O5B 1_555 1_555
C15B N2B 1_555 1_555
C16B C6B 1_555 1_555
C17B N3B 1_555 1_555
H16B C17B 1_555 1_555
C18B N3B 1_555 1_555
H17B C18B 1_555 1_555
C19B C3B 1_555 1_555
C20B N1B 1_555 1_555
H18B C20B 1_555 1_555
C21B N2B 1_555 1_555
Co1A N1 1_555 1_555
Co1A_2 N1B 1_555 1_555
N1A Co1 1_555 1_555
N1C Co1 1_555 1_555
C2 C21 1_555 1_555
C4 C19 1_555 1_555
C7 C17 1_555 1_555
C10 C16 1_555 1_555
C11 C15 1_555 1_555
C13 C20 1_555 1_555
C16 C19 1_555 1_555
C18 C21 1_555 1_555
C2B C21B 1_555 1_555
C4B C19B 1_555 1_555
C7B C17B 1_555 1_555
C9B C14B 1_555 1_555
C10B C16B 1_555 1_555
C11B C15B 1_555 1_555
C13B C20B 1_555 1_555
C16B C19B 1_555 1_555
C18B C21B 1_555 1_555

#END
