
#######################################################################
#
#                 Cambridge Crystallographic Data Centre
#                                CCDC 
#
#######################################################################
#
# If this CIF has been generated from an entry in the Cambridge 
# Structural Database, then it will include bibliographic, chemical, 
# crystal, experimental, refinement or atomic coordinate data resulting 
# from the CCDC's data processing and validation procedures.
#
#######################################################################

data_YOMMAQ
_symmetry_cell_setting           triclinic
_symmetry_space_group_name_H-M   'P -1'
_symmetry_Int_Tables_number      2
_space_group_name_Hall           '-P 1'
loop_
_symmetry_equiv_pos_site_id
_symmetry_equiv_pos_as_xyz
1 x,y,z
2 -x,-y,-z
_cell_length_a                   7.7666(6)
_cell_length_b                   8.9411(7)
_cell_length_c                   9.9420(7)
_cell_angle_alpha                75.9050(10)
_cell_angle_beta                 77.8450(10)
_cell_angle_gamma                74.3540(10)
_cell_volume                     636.99
loop_
_atom_site_label
_atom_site_type_symbol
_atom_site_fract_x
_atom_site_fract_y
_atom_site_fract_z
Cd1 Cd 0.0000 0.5000 0.5000
O1 O -0.1293(2) 0.9296(2) 0.38030(16)
O2 O -0.0688(2) 0.69681(17) 0.31273(15)
O3 O 0.96039(19) 0.34266(17) 0.35148(15)
O4 O -0.4858(2) 1.1744(2) 0.05664(18)
O5 O -0.4327(2) 0.95839(18) 0.22400(16)
H1 H -0.542(4) 0.985(3) 0.252(3)
N1 N 0.2964(2) 0.4654(2) 0.40176(17)
N2 N 0.9306(2) 0.4030(2) 0.12097(18)
C1 C -0.0520(3) 0.9253(2) 0.1394(2)
C2 C 0.1285(3) 0.9020(2) 0.0774(2)
H2 H 0.2179 0.8340 0.1307
C3 C -0.1832(3) 1.0253(2) 0.0601(2)
C4 C 0.8241(3) 0.4717(3) 0.0057(2)
H3 H 0.6934 0.4919 0.0439
H4 H 0.8492 0.3964 -0.0582
C5 C 0.5830(3) 0.2907(2) 0.3517(2)
H5 H 0.6533 0.1854 0.3534
C6 C 0.6627(3) 0.4191(2) 0.2998(2)
C7 C 0.3744(3) 0.5887(2) 0.3527(2)
H6 H 0.3016 0.6925 0.3545
C8 C 0.3999(3) 0.3191(2) 0.4007(2)
H7 H 0.3449 0.2314 0.4351
C9 C 0.5564(3) 0.5710(2) 0.2995(2)
H8 H 0.6075 0.6609 0.2637
C10 C -0.0909(3) 0.8452(2) 0.2917(2)
C11 C 0.8644(3) 0.3876(2) 0.2576(2)
C12 C -0.3826(3) 1.0617(2) 0.1125(2)
C13 C 1.1267(3) 0.3747(3) 0.0744(2)
H9 H 1.1646 0.2954 0.0133
H10 H 1.1908 0.3324 0.1567
O1A O 0.1293(2) 1.0704(2) -0.38030(16)
O2A O 0.0688(2) 1.30319(17) -0.31273(15)
O4A O 0.4858(2) 0.8256(2) -0.05664(18)
O5A O 0.4327(2) 1.04161(18) -0.22400(16)
H1A H 0.542(4) 1.015(3) -0.252(3)
C1A C 0.0520(3) 1.0747(2) -0.1394(2)
C2A C -0.1285(3) 1.0980(2) -0.0774(2)
H2A H -0.2179 1.1660 -0.1307
C3A C 0.1832(3) 0.9747(2) -0.0601(2)
C10A C 0.0909(3) 1.1548(2) -0.2917(2)
C12A C 0.3826(3) 0.9383(2) -0.1125(2)
O3A O 1.03961(19) 0.65734(17) -0.35148(15)
N1A N 1.7036(2) 0.5346(2) -0.40176(17)
N2A N 1.0694(2) 0.5970(2) -0.12097(18)
C4A C 1.1759(3) 0.5283(3) -0.0057(2)
H3A H 1.3066 0.5081 -0.0439
H4A H 1.1508 0.6036 0.0582
C5A C 1.4170(3) 0.7093(2) -0.3517(2)
H5A H 1.3467 0.8146 -0.3534
C6A C 1.3373(3) 0.5809(2) -0.2998(2)
C7A C 1.6256(3) 0.4113(2) -0.3527(2)
H6A H 1.6984 0.3075 -0.3545
C8A C 1.6001(3) 0.6809(2) -0.4007(2)
H7A H 1.6551 0.7686 -0.4351
C9A C 1.4436(3) 0.4290(2) -0.2995(2)
H8A H 1.3925 0.3391 -0.2637
C11A C 1.1356(3) 0.6124(2) -0.2576(2)
C13A C 0.8733(3) 0.6253(3) -0.0744(2)
H9A H 0.8354 0.7046 -0.0133
H10A H 0.8092 0.6676 -0.1567
Cd1_2 Cd 0.0000 1.5000 -0.5000
Cd1_3 Cd 1.0000 0.5000 -0.5000
Cd1_4 Cd 1.0000 0.5000 0.5000
Cd1_5 Cd 2.0000 0.5000 -0.5000
O2A_2 O 0.0688(2) 0.30319(17) 0.68727(15)
O3_2 O -0.03961(19) 0.34266(17) 0.35148(15)
O3A_2 O 0.03961(19) 0.65734(17) 0.64852(15)
N1A_2 N -0.2964(2) 0.5346(2) 0.59824(17)
O6 O 0.2299(2) 1.0061(2) 0.35371(16)
H11 H 0.202(3) 1.029(3) 0.4347(19)
H12 H 0.130(3) 1.013(3) 0.333(3)
loop_
_geom_bond_atom_site_label_1
_geom_bond_atom_site_label_2
_geom_bond_site_symmetry_1
_geom_bond_site_symmetry_2
Cd1 O2 1_555 1_555
O1 C10 1_555 1_555
O2 C10 1_555 1_555
O3 C11 1_555 1_555
O4 C12 1_555 1_555
O5 H1 1_555 1_555
N1 Cd1 1_555 1_555
N2 C4 1_555 1_555
C1 C2 1_555 1_555
C2 H2 1_555 1_555
C3 C1 1_555 1_555
C4 H3 1_555 1_555
H4 C4 1_555 1_555
C5 H5 1_555 1_555
C6 C5 1_555 1_555
C7 N1 1_555 1_555
H6 C7 1_555 1_555
C8 N1 1_555 1_555
H7 C8 1_555 1_555
C9 C6 1_555 1_555
H8 C9 1_555 1_555
C10 C1 1_555 1_555
C11 N2 1_555 1_555
C12 O5 1_555 1_555
C13 N2 1_555 1_555
H9 C13 1_555 1_555
H10 C13 1_555 1_555
O6 H11 1_555 1_555
H12 O6 1_555 1_555
O1A C10A 1_555 1_555
O2A C10A 1_555 1_555
O4A C12A 1_555 1_555
O5A H1A 1_555 1_555
C1A C2A 1_555 1_555
C2A C3 1_555 1_555
H2A C2A 1_555 1_555
C3A C2 1_555 1_555
C10A C1A 1_555 1_555
C12A O5A 1_555 1_555
O3A C11A 1_555 1_555
N1A C7A 1_555 1_555
N2A C4A 1_555 1_555
C4A C13 1_555 1_555
H3A C4A 1_555 1_555
H4A C4A 1_555 1_555
C5A H5A 1_555 1_555
C6A C5A 1_555 1_555
C7A H6A 1_555 1_555
C8A N1A 1_555 1_555
H7A C8A 1_555 1_555
C9A C6A 1_555 1_555
H8A C9A 1_555 1_555
C11A N2A 1_555 1_555
C13A C4 1_555 1_555
H9A C13A 1_555 1_555
H10A C13A 1_555 1_555
Cd1_2 O2A 1_555 1_555
Cd1_3 O3A 1_555 1_555
Cd1_4 O3 1_555 1_555
Cd1_5 N1A 1_555 1_555
O2A_2 Cd1 1_555 1_555
O3_2 Cd1 1_555 1_555
O3A_2 Cd1 1_555 1_555
N1A_2 Cd1 1_555 1_555
C3 C12 1_555 1_555
C5 C8 1_555 1_555
C6 C11 1_555 1_555
C7 C9 1_555 1_555
C1A C3A 1_555 1_555
C3A C12A 1_555 1_555
N2A C13A 1_555 1_555
C5A C8A 1_555 1_555
C6A C11A 1_555 1_555
C7A C9A 1_555 1_555

#END
