
#######################################################################
#
#                 Cambridge Crystallographic Data Centre
#                                CCDC 
#
#######################################################################
#
# If this CIF has been generated from an entry in the Cambridge 
# Structural Database, then it will include bibliographic, chemical, 
# crystal, experimental, refinement or atomic coordinate data resulting 
# from the CCDC's data processing and validation procedures.
#
#######################################################################

data_YOMMEU
_symmetry_cell_setting           triclinic
_symmetry_space_group_name_H-M   'P -1'
_symmetry_Int_Tables_number      2
_space_group_name_Hall           '-P 1'
loop_
_symmetry_equiv_pos_site_id
_symmetry_equiv_pos_as_xyz
1 x,y,z
2 -x,-y,-z
_cell_length_a                   8.7193(5)
_cell_length_b                   10.1113(5)
_cell_length_c                   11.1131(6)
_cell_angle_alpha                71.6960(10)
_cell_angle_beta                 83.6820(10)
_cell_angle_gamma                71.6200(10)
_cell_volume                     882.678
loop_
_atom_site_label
_atom_site_type_symbol
_atom_site_fract_x
_atom_site_fract_y
_atom_site_fract_z
C1 C 0.4304(2) -0.2009(2) 0.33549(18)
C2 C 0.4634(2) -0.3565(2) 0.41982(18)
C3 C 0.3686(2) -0.3915(2) 0.52804(18)
C4 C 0.4067(2) -0.5344(2) 0.60751(18)
H1 H 0.3431 -0.5578 0.6817
C5 C 0.2175(2) -0.27848(19) 0.55434(18)
C6 C 0.2016(3) 0.4416(2) 0.3187(2)
H2 H 0.2873 0.4041 0.3775
C7 C 0.1153(3) 0.5874(2) 0.2914(2)
H3 H 0.1412 0.6485 0.3307
C8 C -0.0096(2) 0.6430(2) 0.20591(19)
C9 C -0.0427(2) 0.5495(2) 0.15124(19)
H4 H -0.1282 0.5841 0.0925
C10 C 0.0505(2) 0.4053(2) 0.18347(19)
H5 H 0.0278 0.3421 0.1448
C11 C -0.1110(2) 0.7999(2) 0.17900(19)
C12 C 0.0537(3) 0.8577(2) -0.0175(2)
H6 H 0.0043 0.8739 -0.0990
H7 H 0.1160 0.7533 0.0139
C13 C -0.1659(3) 1.0492(2) 0.0382(2)
H8 H -0.2457 1.0690 0.1058
H9 H -0.2256 1.0743 -0.0407
N1 N 0.1707(2) 0.35024(18) 0.26625(16)
N2 N -0.0733(2) 0.89471(18) 0.07430(16)
O1 O 0.40989(15) -0.10499(14) 0.39253(12)
O2 O 0.42491(17) -0.17496(14) 0.21905(13)
O3 O 0.19941(17) -0.26103(15) 0.66235(13)
O4 O 0.11797(15) -0.21234(14) 0.46580(13)
O5 O -0.22211(17) 0.83475(16) 0.25183(14)
O6 O 0.50117(18) 0.15824(17) 0.36770(15)
H10 H 0.519(3) 0.148(3) 0.4421(16)
H11 H 0.575(2) 0.128(3) 0.328(2)
O7 O 0.21193(17) 0.11647(17) 0.51717(14)
H12 H 0.244(3) 0.133(3) 0.5763(19)
H13 H 0.111(2) 0.146(3) 0.516(2)
O8 O 0.08507(16) 0.06718(15) 0.31368(13)
H14 H -0.004(2) 0.124(2) 0.329(2)
H15 H 0.097(3) -0.0171(18) 0.359(2)
O9 O 0.3535(2) 0.12064(16) 0.14188(14)
H16 H 0.394(3) 0.0349(19) 0.143(2)
H17 H 0.400(3) 0.174(2) 0.089(2)
Zn1 Zn 0.29296(3) 0.12196(2) 0.32734(2)
C1A C 0.5696(2) -0.7991(2) 0.66451(18)
C2A C 0.5366(2) -0.6435(2) 0.58018(18)
C3A C 0.6314(2) -0.6085(2) 0.47196(18)
C4A C 0.5933(2) -0.4656(2) 0.39249(18)
H1A H 0.6569 -0.4422 0.3183
C5A C 0.7825(2) -0.72152(19) 0.44566(18)
O1A O 0.59011(15) -0.89501(14) 0.60747(12)
O2A O 0.57509(17) -0.82504(14) 0.78095(13)
O3A O 0.80059(17) -0.73897(15) 0.33765(13)
O4A O 0.88203(15) -0.78766(14) 0.53420(13)
C6A C -0.2016(3) 1.5584(2) -0.3187(2)
H2A H -0.2873 1.5959 -0.3775
C7A C -0.1153(3) 1.4126(2) -0.2914(2)
H3A H -0.1412 1.3515 -0.3307
C8A C 0.0096(2) 1.3570(2) -0.20591(19)
C9A C 0.0427(2) 1.4505(2) -0.15124(19)
H4A H 0.1282 1.4159 -0.0925
C10A C -0.0505(2) 1.5947(2) -0.18347(19)
H5A H -0.0278 1.6579 -0.1448
C11A C 0.1110(2) 1.2001(2) -0.17900(19)
C12A C -0.0537(3) 1.1423(2) 0.0175(2)
H6A H -0.0043 1.1261 0.0990
H7A H -0.1160 1.2467 -0.0139
C13A C 0.1659(3) 0.9508(2) -0.0382(2)
H8A H 0.2457 0.9310 -0.1058
H9A H 0.2256 0.9257 0.0407
N1A N -0.1707(2) 1.64976(18) -0.26625(16)
N2A N 0.0733(2) 1.10529(18) -0.07430(16)
O5A O 0.22211(17) 1.16525(16) -0.25183(14)
O6A O -0.50117(18) 1.84176(17) -0.36770(15)
H10A H -0.519(3) 1.852(3) -0.4421(16)
H11A H -0.575(2) 1.872(3) -0.328(2)
O7A O -0.21193(17) 1.88353(17) -0.51717(14)
H12A H -0.244(3) 1.867(3) -0.5763(19)
H13A H -0.111(2) 1.854(3) -0.516(2)
O8A O -0.08507(16) 1.93282(15) -0.31368(13)
H14A H 0.004(2) 1.876(2) -0.329(2)
H15A H -0.097(3) 2.0171(18) -0.359(2)
O9A O -0.3535(2) 1.87936(16) -0.14188(14)
H16A H -0.394(3) 1.9651(19) -0.143(2)
H17A H -0.400(3) 1.826(2) -0.089(2)
Zn1A Zn -0.29296(3) 1.87804(2) -0.32734(2)
O1A_2 O -0.40989(15) 2.10499(14) -0.39253(12)
Zn1A_2 Zn 0.70704(3) -1.12196(2) 0.67266(2)
O10 O 0.3262(2) 0.5970(2) 0.90034(18)
H18 H 0.403(3) 0.630(3) 0.873(3)
H19 H 0.292(3) 0.637(3) 0.8211(18)
O11 O 0.4888(2) 0.30934(16) 0.96779(14)
H20 H 0.519(3) 0.280(3) 0.9060(19)
H21 H 0.443(3) 0.3951(19) 0.942(2)
loop_
_geom_bond_atom_site_label_1
_geom_bond_atom_site_label_2
_geom_bond_site_symmetry_1
_geom_bond_site_symmetry_2
C1 C2 1_555 1_555
C2 C3 1_555 1_555
C3 C4 1_555 1_555
C4 H1 1_555 1_555
C5 C3 1_555 1_555
C6 H2 1_555 1_555
C7 C6 1_555 1_555
H3 C7 1_555 1_555
C8 C7 1_555 1_555
C9 C8 1_555 1_555
H4 C9 1_555 1_555
C10 C9 1_555 1_555
H5 C10 1_555 1_555
C11 C8 1_555 1_555
C12 H6 1_555 1_555
H7 C12 1_555 1_555
C13 H8 1_555 1_555
H9 C13 1_555 1_555
N1 C6 1_555 1_555
N2 C11 1_555 1_555
O1 C1 1_555 1_555
O2 C1 1_555 1_555
O3 C5 1_555 1_555
O4 C5 1_555 1_555
O5 C11 1_555 1_555
O6 H10 1_555 1_555
H11 O6 1_555 1_555
O7 H12 1_555 1_555
H13 O7 1_555 1_555
O8 H14 1_555 1_555
H15 O8 1_555 1_555
O9 H16 1_555 1_555
H17 O9 1_555 1_555
Zn1 N1 1_555 1_555
O10 H18 1_555 1_555
H19 O10 1_555 1_555
O11 H20 1_555 1_555
H21 O11 1_555 1_555
C1A C2A 1_555 1_555
C2A C4 1_555 1_555
C3A C2A 1_555 1_555
C4A C2 1_555 1_555
H1A C4A 1_555 1_555
C5A C3A 1_555 1_555
O1A C1A 1_555 1_555
O2A C1A 1_555 1_555
O3A C5A 1_555 1_555
O4A C5A 1_555 1_555
C6A H2A 1_555 1_555
C7A C6A 1_555 1_555
H3A C7A 1_555 1_555
C8A C7A 1_555 1_555
C9A C8A 1_555 1_555
H4A C9A 1_555 1_555
C10A C9A 1_555 1_555
H5A C10A 1_555 1_555
C11A C8A 1_555 1_555
C12A C13 1_555 1_555
H6A C12A 1_555 1_555
H7A C12A 1_555 1_555
C13A C12 1_555 1_555
H8A C13A 1_555 1_555
H9A C13A 1_555 1_555
N1A C6A 1_555 1_555
N2A C11A 1_555 1_555
O5A C11A 1_555 1_555
O6A H10A 1_555 1_555
H11A O6A 1_555 1_555
O7A H12A 1_555 1_555
H13A O7A 1_555 1_555
O8A H14A 1_555 1_555
H15A O8A 1_555 1_555
O9A H16A 1_555 1_555
H17A O9A 1_555 1_555
Zn1A N1A 1_555 1_555
O1A_2 Zn1A 1_555 1_555
Zn1A_2 O1A 1_555 1_555
C10 N1 1_555 1_555
C12 N2 1_555 1_555
C13 N2 1_555 1_555
O1 Zn1 1_555 1_555
O6 Zn1 1_555 1_555
O7 Zn1 1_555 1_555
O8 Zn1 1_555 1_555
O9 Zn1 1_555 1_555
C3A C4A 1_555 1_555
C10A N1A 1_555 1_555
C12A N2A 1_555 1_555
C13A N2A 1_555 1_555
O6A Zn1A 1_555 1_555
O7A Zn1A 1_555 1_555
O8A Zn1A 1_555 1_555
O9A Zn1A 1_555 1_555

#END
