
#######################################################################
#
#                 Cambridge Crystallographic Data Centre
#                                CCDC 
#
#######################################################################
#
# If this CIF has been generated from an entry in the Cambridge 
# Structural Database, then it will include bibliographic, chemical, 
# crystal, experimental, refinement or atomic coordinate data resulting 
# from the CCDC's data processing and validation procedures.
#
#######################################################################

data_YOMNUL01
_symmetry_cell_setting           monoclinic
_symmetry_space_group_name_H-M   'P 21'
_symmetry_Int_Tables_number      4
_space_group_name_Hall           'P 2yb'
loop_
_symmetry_equiv_pos_site_id
_symmetry_equiv_pos_as_xyz
1 x,y,z
2 -x,1/2+y,-z
_cell_length_a                   4.8207(7)
_cell_length_b                   19.966(3)
_cell_length_c                   5.5008(7)
_cell_angle_alpha                90
_cell_angle_beta                 103.363(2)
_cell_angle_gamma                90
_cell_volume                     515.118
loop_
_atom_site_label
_atom_site_type_symbol
_atom_site_fract_x
_atom_site_fract_y
_atom_site_fract_z
Ag1 Ag 0.21340(9) 0.85794(2) 0.42615(8)
Ag2 Ag -0.44091(9) 0.86676(2) -0.00931(8)
C1 C -0.0223(13) 0.7561(3) 0.0223(11)
C2 C 0.1410(14) 0.6945(3) 0.1417(12)
H1 H 0.0174 0.6545 0.1004
H2 H 0.3097 0.6878 0.0704
C3 C 0.2386(12) 0.7007(3) 0.4245(11)
H3 H 0.0676 0.7048 0.4974
C4 C 0.4059(12) 0.6375(3) 0.5287(11)
C5 C 0.3891(13) 0.5249(3) 0.6941(12)
H4 H 0.5687 0.5205 0.6338
C6 C 0.4711(15) 0.5256(3) 0.9803(13)
H5 H 0.5848 0.5663 1.0387
H6 H 0.2962 0.5272 1.0455
C7 C 0.1978(12) 0.4648(3) 0.5929(12)
N1 N 0.4197(11) 0.7604(3) 0.4921(10)
H7 H 0.5719 0.7588 0.3984
H8 H 0.5134 0.7573 0.672
N2 N 0.2534(10) 0.5877(3) 0.5975(10)
H9 H 0.0692 0.593 0.5841
N3 N 0.6384(12) 0.4655(3) 1.0779(10)
H10 H 0.7043 0.4709 1.2611
H11 H 0.8106 0.4652 1.0086
O1 O 0.0601(10) 0.7894(3) -0.1369(9)
O2 O -0.2456(10) 0.7708(3) 0.1033(9)
O3 O 0.6635(9) 0.6332(2) 0.5419(10)
O4 O 0.2661(11) 0.4294(3) 0.4316(10)
O5 O -0.0206(9) 0.4563(2) 0.6812(9)
Ag1_2 Ag -0.78660(9) 0.85794(2) -0.57385(8)
Ag1_3 Ag -0.78660(9) 0.85794(2) 0.42615(8)
Ag1A Ag -0.21340(9) 0.35794(2) 0.57385(8)
Ag2_2 Ag 0.55909(9) 0.86676(2) -0.00931(8)
Ag2_3 Ag 0.55909(9) 0.86676(2) 0.99069(8)
Ag2A Ag 0.44091(9) 0.36676(2) 1.00931(8)
N3A N -0.6384(12) 0.9655(3) -0.0779(10)
O5A O 0.0206(9) 0.9563(2) 0.3188(9)
loop_
_geom_bond_atom_site_label_1
_geom_bond_atom_site_label_2
_geom_bond_site_symmetry_1
_geom_bond_site_symmetry_2
Ag1 N1 1_555 1_555
Ag2 O2 1_555 1_555
C1 C2 1_555 1_555
C2 H1 1_555 1_555
H2 C2 1_555 1_555
C3 C2 1_555 1_555
H3 C3 1_555 1_555
C4 C3 1_555 1_555
C5 H4 1_555 1_555
C6 C5 1_555 1_555
H5 C6 1_555 1_555
H6 C6 1_555 1_555
C7 C5 1_555 1_555
N1 C3 1_555 1_555
H7 N1 1_555 1_555
H8 N1 1_555 1_555
N2 C4 1_555 1_555
H9 N2 1_555 1_555
N3 C6 1_555 1_555
H10 N3 1_555 1_555
H11 N3 1_555 1_555
O1 C1 1_555 1_555
O2 C1 1_555 1_555
O3 C4 1_555 1_555
O4 C7 1_555 1_555
O5 C7 1_555 1_555
Ag1_2 Ag2 1_555 1_555
Ag1_3 Ag2 1_555 1_555
Ag1A O5 1_555 1_555
Ag2_2 Ag1 1_555 1_555
Ag2_3 Ag1 1_555 1_555
Ag2A N3 1_555 1_555
N3A Ag2 1_555 1_555
O5A Ag1 1_555 1_555
C5 N2 1_555 1_555

#END
