
#######################################################################
#
#                 Cambridge Crystallographic Data Centre
#                                CCDC 
#
#######################################################################
#
# If this CIF has been generated from an entry in the Cambridge 
# Structural Database, then it will include bibliographic, chemical, 
# crystal, experimental, refinement or atomic coordinate data resulting 
# from the CCDC's data processing and validation procedures.
#
#######################################################################

data_YOMNUL06
_symmetry_cell_setting           monoclinic
_symmetry_space_group_name_H-M   'P 21'
_symmetry_Int_Tables_number      4
_space_group_name_Hall           'P 2yb'
loop_
_symmetry_equiv_pos_site_id
_symmetry_equiv_pos_as_xyz
1 x,y,z
2 -x,1/2+y,-z
_cell_length_a                   4.8367(9)
_cell_length_b                   19.970(4)
_cell_length_c                   5.5587(10)
_cell_angle_alpha                90
_cell_angle_beta                 102.953(3)
_cell_angle_gamma                90
_cell_volume                     523.247
loop_
_atom_site_label
_atom_site_type_symbol
_atom_site_fract_x
_atom_site_fract_y
_atom_site_fract_z
Ag1 Ag 0.20883(16) 0.85721(3) 0.43981(14)
Ag2 Ag -0.42861(16) 0.86760(4) -0.00741(14)
C1 C -0.0231(19) 0.7565(5) 0.0343(16)
C2 C 0.139(2) 0.6957(5) 0.1486(18)
H1 H 0.3041 0.6899 0.0788
H2 H 0.0199 0.6564 0.1068
C3 C 0.2352(16) 0.7005(5) 0.4281(16)
H3 H 0.068 0.7042 0.4993
C4 C 0.3983(17) 0.6371(4) 0.5261(15)
C5 C 0.3821(17) 0.5248(4) 0.6920(16)
H4 H 0.5567 0.52 0.632
C6 C 0.465(2) 0.5263(5) 0.9716(18)
H5 H 0.5777 0.566 1.0249
H6 H 0.2948 0.529 1.0363
C7 C 0.1884(19) 0.4653(5) 0.5918(18)
N1 N 0.4137(16) 0.7599(4) 0.4963(15)
H7 H 0.5613 0.759 0.4036
H8 H 0.5062 0.7562 0.6696
N2 N 0.2484(14) 0.5876(4) 0.5935(15)
H9 H 0.0689 0.5927 0.5789
N3 N 0.6281(18) 0.4664(4) 1.0719(15)
H10 H 0.6893 0.4723 1.2491
H11 H 0.7978 0.4654 1.0064
O1 O 0.060(2) 0.7896(5) -0.1239(15)
O2 O -0.2402(16) 0.7722(5) 0.1123(17)
O3 O 0.6567(13) 0.6319(4) 0.5356(18)
O4 O 0.256(2) 0.4287(6) 0.4376(18)
O5 O -0.0264(15) 0.4568(4) 0.6737(16)
Ag1_2 Ag -0.79117(16) 0.85721(3) -0.56019(14)
Ag1A Ag -0.20883(16) 0.35721(3) 0.56019(14)
Ag2_2 Ag 0.57139(16) 0.86760(4) 0.99259(14)
Ag2A Ag 0.42861(16) 0.36760(4) 1.00741(14)
N3A N -0.6281(18) 0.9664(4) -0.0719(15)
O5A O 0.0264(15) 0.9568(4) 0.3263(16)
loop_
_geom_bond_atom_site_label_1
_geom_bond_atom_site_label_2
_geom_bond_site_symmetry_1
_geom_bond_site_symmetry_2
Ag1 N1 1_555 1_555
Ag2 O2 1_555 1_555
C1 C2 1_555 1_555
C2 H1 1_555 1_555
H2 C2 1_555 1_555
C3 C2 1_555 1_555
H3 C3 1_555 1_555
C4 C3 1_555 1_555
C5 H4 1_555 1_555
C6 C5 1_555 1_555
H5 C6 1_555 1_555
H6 C6 1_555 1_555
C7 C5 1_555 1_555
N1 C3 1_555 1_555
H7 N1 1_555 1_555
H8 N1 1_555 1_555
N2 C4 1_555 1_555
H9 N2 1_555 1_555
N3 C6 1_555 1_555
H10 N3 1_555 1_555
H11 N3 1_555 1_555
O1 C1 1_555 1_555
O2 C1 1_555 1_555
O3 C4 1_555 1_555
O4 C7 1_555 1_555
O5 C7 1_555 1_555
Ag1_2 Ag2 1_555 1_555
Ag1A O5 1_555 1_555
Ag2_2 Ag1 1_555 1_555
Ag2A N3 1_555 1_555
N3A Ag2 1_555 1_555
O5A Ag1 1_555 1_555
C5 N2 1_555 1_555

#END
