
#######################################################################
#
#                 Cambridge Crystallographic Data Centre
#                                CCDC 
#
#######################################################################
#
# If this CIF has been generated from an entry in the Cambridge 
# Structural Database, then it will include bibliographic, chemical, 
# crystal, experimental, refinement or atomic coordinate data resulting 
# from the CCDC's data processing and validation procedures.
#
#######################################################################

data_YOMNUL05
_symmetry_cell_setting           monoclinic
_symmetry_space_group_name_H-M   'P 21'
_symmetry_Int_Tables_number      4
_space_group_name_Hall           'P 2yb'
loop_
_symmetry_equiv_pos_site_id
_symmetry_equiv_pos_as_xyz
1 x,y,z
2 -x,1/2+y,-z
_cell_length_a                   4.8330(16)
_cell_length_b                   19.978(7)
_cell_length_c                   5.5547(19)
_cell_angle_alpha                90
_cell_angle_beta                 103.038(5)
_cell_angle_gamma                90
_cell_volume                     522.501
loop_
_atom_site_label
_atom_site_type_symbol
_atom_site_fract_x
_atom_site_fract_y
_atom_site_fract_z
Ag1 Ag 0.20973(12) 0.85735(2) 0.43715(11)
Ag2 Ag -0.43080(12) 0.86744(3) -0.00755(10)
C1 C -0.0240(15) 0.7565(4) 0.0321(13)
C2 C 0.1405(17) 0.6953(4) 0.1468(14)
H1 H 0.3059 0.6897 0.0771
H2 H 0.0218 0.6559 0.105
C3 C 0.2369(13) 0.7005(4) 0.4286(12)
H3 H 0.0695 0.7045 0.4996
C4 C 0.3995(13) 0.6369(3) 0.5263(13)
C5 C 0.3835(14) 0.5247(3) 0.6911(12)
H4 H 0.5582 0.5201 0.631
C6 C 0.4673(18) 0.5259(4) 0.9730(15)
H5 H 0.5811 0.5654 1.0269
H6 H 0.2974 0.5286 1.0378
C7 C 0.1921(15) 0.4655(4) 0.5907(13)
N1 N 0.4156(13) 0.7597(3) 0.4947(12)
H7 H 0.5623 0.7586 0.401
H8 H 0.5095 0.7562 0.668
N2 N 0.2494(11) 0.5875(3) 0.5949(12)
H9 H 0.0701 0.5926 0.5821
N3 N 0.6293(14) 0.4660(3) 1.0723(12)
H10 H 0.691 0.4719 1.2496
H11 H 0.7991 0.4651 1.0067
O1 O 0.0589(15) 0.7893(4) -0.1278(12)
O2 O -0.2413(13) 0.7718(4) 0.1109(13)
O3 O 0.6570(11) 0.6322(3) 0.5367(14)
O4 O 0.2588(17) 0.4284(4) 0.4360(14)
O5 O -0.0248(12) 0.4565(3) 0.6751(13)
Ag1_2 Ag -0.79027(12) 0.85735(2) -0.56285(11)
Ag1A Ag -0.20973(12) 0.35735(2) 0.56285(11)
Ag2_2 Ag 0.56920(12) 0.86744(3) 0.99245(10)
Ag2A Ag 0.43080(12) 0.36744(3) 1.00755(10)
N3A N -0.6293(14) 0.9660(3) -0.0723(12)
O5A O 0.0248(12) 0.9565(3) 0.3249(13)
loop_
_geom_bond_atom_site_label_1
_geom_bond_atom_site_label_2
_geom_bond_site_symmetry_1
_geom_bond_site_symmetry_2
Ag1 N1 1_555 1_555
Ag2 O2 1_555 1_555
C1 C2 1_555 1_555
C2 H1 1_555 1_555
H2 C2 1_555 1_555
C3 C2 1_555 1_555
H3 C3 1_555 1_555
C4 C3 1_555 1_555
C5 H4 1_555 1_555
C6 C5 1_555 1_555
H5 C6 1_555 1_555
H6 C6 1_555 1_555
C7 C5 1_555 1_555
N1 C3 1_555 1_555
H7 N1 1_555 1_555
H8 N1 1_555 1_555
N2 C4 1_555 1_555
H9 N2 1_555 1_555
N3 C6 1_555 1_555
H10 N3 1_555 1_555
H11 N3 1_555 1_555
O1 C1 1_555 1_555
O2 C1 1_555 1_555
O3 C4 1_555 1_555
O4 C7 1_555 1_555
O5 C7 1_555 1_555
Ag1_2 Ag2 1_555 1_555
Ag1A O5 1_555 1_555
Ag2_2 Ag1 1_555 1_555
Ag2A N3 1_555 1_555
N3A Ag2 1_555 1_555
O5A Ag1 1_555 1_555
C5 N2 1_555 1_555

#END
