
#######################################################################
#
#                 Cambridge Crystallographic Data Centre
#                                CCDC 
#
#######################################################################
#
# If this CIF has been generated from an entry in the Cambridge 
# Structural Database, then it will include bibliographic, chemical, 
# crystal, experimental, refinement or atomic coordinate data resulting 
# from the CCDC's data processing and validation procedures.
#
#######################################################################

data_YOMNUL
_symmetry_cell_setting           monoclinic
_symmetry_space_group_name_H-M   'P 21'
_symmetry_Int_Tables_number      4
_space_group_name_Hall           'P 2yb'
loop_
_symmetry_equiv_pos_site_id
_symmetry_equiv_pos_as_xyz
1 x,y,z
2 -x,1/2+y,-z
_cell_length_a                   4.8111(6)
_cell_length_b                   19.933(3)
_cell_length_c                   5.4830(7)
_cell_angle_alpha                90
_cell_angle_beta                 103.410(2)
_cell_angle_gamma                90
_cell_volume                     511.482
loop_
_atom_site_label
_atom_site_type_symbol
_atom_site_fract_x
_atom_site_fract_y
_atom_site_fract_z
Ag1 Ag 0.21386(9) 0.85803(2) 0.42452(8)
Ag2 Ag -0.44264(9) 0.86666(2) -0.00975(8)
C1 C -0.0254(13) 0.7562(3) 0.0214(12)
C2 C 0.1400(14) 0.6945(3) 0.1407(13)
H1 H 0.0168 0.6544 0.0994
H2 H 0.3086 0.688 0.0685
C3 C 0.2391(13) 0.7006(3) 0.4244(11)
H3 H 0.0678 0.7047 0.4977
C4 C 0.4055(13) 0.6373(3) 0.5289(11)
C5 C 0.3908(13) 0.5248(3) 0.6962(12)
H4 H 0.5709 0.5205 0.6359
C6 C 0.4730(14) 0.5256(3) 0.9826(13)
H5 H 0.5869 0.5663 1.0413
H6 H 0.2978 0.5271 1.0481
C7 C 0.1996(13) 0.4652(3) 0.5925(12)
N1 N 0.4191(11) 0.7607(3) 0.4909(10)
H7 H 0.5714 0.759 0.3968
H8 H 0.5136 0.7578 0.6714
N2 N 0.2540(11) 0.5877(3) 0.5985(10)
H9 H 0.0695 0.593 0.5851
N3 N 0.6409(12) 0.4653(3) 1.0801(11)
H10 H 0.7069 0.4706 1.264
H11 H 0.8134 0.4651 1.0107
O1 O 0.0603(10) 0.7895(3) -0.1379(9)
O2 O -0.2485(10) 0.7706(3) 0.1009(10)
O3 O 0.6651(9) 0.6332(2) 0.5424(10)
O4 O 0.2665(11) 0.4293(3) 0.4305(10)
O5 O -0.0197(10) 0.4561(2) 0.6822(9)
Ag1_2 Ag -0.78614(9) 0.85803(2) -0.57548(8)
Ag1_3 Ag -0.78614(9) 0.85803(2) 0.42452(8)
Ag1A Ag -0.21386(9) 0.35803(2) 0.57548(8)
Ag2_2 Ag 0.55736(9) 0.86666(2) -0.00975(8)
Ag2_3 Ag 0.55736(9) 0.86666(2) 0.99025(8)
Ag2A Ag 0.44264(9) 0.36666(2) 1.00975(8)
N3A N -0.6409(12) 0.9653(3) -0.0801(11)
O5A O 0.0197(10) 0.9561(2) 0.3178(9)
loop_
_geom_bond_atom_site_label_1
_geom_bond_atom_site_label_2
_geom_bond_site_symmetry_1
_geom_bond_site_symmetry_2
Ag1 N1 1_555 1_555
Ag2 O2 1_555 1_555
C1 C2 1_555 1_555
C2 H1 1_555 1_555
H2 C2 1_555 1_555
C3 C2 1_555 1_555
H3 C3 1_555 1_555
C4 C3 1_555 1_555
C5 H4 1_555 1_555
C6 C5 1_555 1_555
H5 C6 1_555 1_555
H6 C6 1_555 1_555
C7 C5 1_555 1_555
N1 C3 1_555 1_555
H7 N1 1_555 1_555
H8 N1 1_555 1_555
N2 C4 1_555 1_555
H9 N2 1_555 1_555
N3 C6 1_555 1_555
H10 N3 1_555 1_555
H11 N3 1_555 1_555
O1 C1 1_555 1_555
O2 C1 1_555 1_555
O3 C4 1_555 1_555
O4 C7 1_555 1_555
O5 C7 1_555 1_555
Ag1_2 Ag2 1_555 1_555
Ag1_3 Ag2 1_555 1_555
Ag1A O5 1_555 1_555
Ag2_2 Ag1 1_555 1_555
Ag2_3 Ag1 1_555 1_555
Ag2A N3 1_555 1_555
N3A Ag2 1_555 1_555
O5A Ag1 1_555 1_555
C5 N2 1_555 1_555

#END
