
#######################################################################
#
#                 Cambridge Crystallographic Data Centre
#                                CCDC 
#
#######################################################################
#
# If this CIF has been generated from an entry in the Cambridge 
# Structural Database, then it will include bibliographic, chemical, 
# crystal, experimental, refinement or atomic coordinate data resulting 
# from the CCDC's data processing and validation procedures.
#
#######################################################################

data_YOMNUL11
_symmetry_cell_setting           monoclinic
_symmetry_space_group_name_H-M   'P 21'
_symmetry_Int_Tables_number      4
_space_group_name_Hall           'P 2yb'
loop_
_symmetry_equiv_pos_site_id
_symmetry_equiv_pos_as_xyz
1 x,y,z
2 -x,1/2+y,-z
_cell_length_a                   4.8078(6)
_cell_length_b                   19.908(3)
_cell_length_c                   5.4958(7)
_cell_angle_alpha                90
_cell_angle_beta                 103.298(2)
_cell_angle_gamma                90
_cell_volume                     511.919
loop_
_atom_site_label
_atom_site_type_symbol
_atom_site_fract_x
_atom_site_fract_y
_atom_site_fract_z
Ag1 Ag 0.21355(8) 0.85788(2) 0.42684(7)
Ag2 Ag -0.44017(8) 0.86676(2) -0.00879(7)
C1 C -0.0236(12) 0.7560(3) 0.0234(10)
C2 C 0.1408(13) 0.6945(3) 0.1428(11)
H1 H 0.0174 0.6543 0.1017
H2 H 0.3096 0.6879 0.0707
C3 C 0.2399(11) 0.7004(3) 0.4256(10)
H3 H 0.0687 0.7045 0.499
C4 C 0.4057(11) 0.6375(3) 0.5292(10)
C5 C 0.3907(12) 0.5248(3) 0.6953(11)
H4 H 0.5708 0.5202 0.635
C6 C 0.4714(13) 0.5254(3) 0.9811(12)
H5 H 0.5846 0.5663 1.0401
H6 H 0.2957 0.5268 1.046
C7 C 0.1967(11) 0.4653(3) 0.5920(11)
N1 N 0.4194(10) 0.7604(2) 0.4913(9)
H7 H 0.5711 0.7588 0.3964
H8 H 0.5147 0.7574 0.6709
N2 N 0.2537(9) 0.5878(2) 0.5970(9)
H9 H 0.0688 0.593 0.5825
N3 N 0.6390(11) 0.4655(3) 1.0776(10)
H10 H 0.7057 0.4709 1.2608
H11 H 0.8111 0.4653 1.0074
O1 O 0.0604(10) 0.7889(2) -0.1348(8)
O2 O -0.2459(9) 0.7706(2) 0.1043(9)
O3 O 0.6638(8) 0.6329(2) 0.5418(9)
O4 O 0.2652(10) 0.4294(3) 0.4327(9)
O5 O -0.0199(9) 0.4563(2) 0.6798(8)
Ag1_2 Ag -0.78645(8) 0.85788(2) -0.57316(7)
Ag1_3 Ag -0.78645(8) 0.85788(2) 0.42684(7)
Ag1A Ag -0.21355(8) 0.35788(2) 0.57316(7)
Ag2_2 Ag 0.55983(8) 0.86676(2) -0.00879(7)
Ag2_3 Ag 0.55983(8) 0.86676(2) 0.99121(7)
Ag2A Ag 0.44017(8) 0.36676(2) 1.00879(7)
N3A N -0.6390(11) 0.9655(3) -0.0776(10)
O5A O 0.0199(9) 0.9563(2) 0.3202(8)
loop_
_geom_bond_atom_site_label_1
_geom_bond_atom_site_label_2
_geom_bond_site_symmetry_1
_geom_bond_site_symmetry_2
Ag1 N1 1_555 1_555
Ag2 O2 1_555 1_555
C1 C2 1_555 1_555
C2 H1 1_555 1_555
H2 C2 1_555 1_555
C3 C2 1_555 1_555
H3 C3 1_555 1_555
C4 C3 1_555 1_555
C5 H4 1_555 1_555
C6 C5 1_555 1_555
H5 C6 1_555 1_555
H6 C6 1_555 1_555
C7 C5 1_555 1_555
N1 C3 1_555 1_555
H7 N1 1_555 1_555
H8 N1 1_555 1_555
N2 C4 1_555 1_555
H9 N2 1_555 1_555
N3 C6 1_555 1_555
H10 N3 1_555 1_555
H11 N3 1_555 1_555
O1 C1 1_555 1_555
O2 C1 1_555 1_555
O3 C4 1_555 1_555
O4 C7 1_555 1_555
O5 C7 1_555 1_555
Ag1_2 Ag2 1_555 1_555
Ag1_3 Ag2 1_555 1_555
Ag1A O5 1_555 1_555
Ag2_2 Ag1 1_555 1_555
Ag2_3 Ag1 1_555 1_555
Ag2A N3 1_555 1_555
N3A Ag2 1_555 1_555
O5A Ag1 1_555 1_555
C5 N2 1_555 1_555

#END
