
#######################################################################
#
#                 Cambridge Crystallographic Data Centre
#                                CCDC 
#
#######################################################################
#
# If this CIF has been generated from an entry in the Cambridge 
# Structural Database, then it will include bibliographic, chemical, 
# crystal, experimental, refinement or atomic coordinate data resulting 
# from the CCDC's data processing and validation procedures.
#
#######################################################################

data_YOMNUL08
_symmetry_cell_setting           monoclinic
_symmetry_space_group_name_H-M   'P 21'
_symmetry_Int_Tables_number      4
_space_group_name_Hall           'P 2yb'
loop_
_symmetry_equiv_pos_site_id
_symmetry_equiv_pos_as_xyz
1 x,y,z
2 -x,1/2+y,-z
_cell_length_a                   4.8298(7)
_cell_length_b                   19.955(3)
_cell_length_c                   5.5441(8)
_cell_angle_alpha                90
_cell_angle_beta                 103.050(2)
_cell_angle_gamma                90
_cell_volume                     520.533
loop_
_atom_site_label
_atom_site_type_symbol
_atom_site_fract_x
_atom_site_fract_y
_atom_site_fract_z
Ag1 Ag 0.21054(12) 0.85741(2) 0.43592(11)
Ag2 Ag -0.43184(12) 0.86736(3) -0.00762(11)
C1 C -0.0232(16) 0.7562(4) 0.0315(14)
C2 C 0.1402(17) 0.6951(4) 0.1466(15)
H1 H 0.3055 0.6892 0.0766
H2 H 0.0209 0.6558 0.1051
C3 C 0.2370(13) 0.7004(4) 0.4274(13)
H3 H 0.0698 0.7043 0.499
C4 C 0.4000(14) 0.6369(3) 0.5253(13)
C5 C 0.3850(14) 0.5244(3) 0.6911(13)
H4 H 0.5603 0.5199 0.6314
C6 C 0.4670(18) 0.5259(4) 0.9732(15)
H5 H 0.5793 0.5657 1.0275
H6 H 0.2962 0.5283 1.0372
C7 C 0.1931(15) 0.4654(4) 0.5900(14)
N1 N 0.4172(13) 0.7600(3) 0.4943(12)
H7 H 0.5642 0.7588 0.4007
H8 H 0.5109 0.7565 0.6681
N2 N 0.2506(12) 0.5876(3) 0.5957(12)
H9 H 0.0715 0.5929 0.5848
N3 N 0.6311(15) 0.4660(4) 1.0740(13)
H10 H 0.692 0.4719 1.2518
H11 H 0.8014 0.4652 1.0088
O1 O 0.0601(15) 0.7892(4) -0.1286(12)
O2 O -0.2404(13) 0.7717(4) 0.1100(13)
O3 O 0.6584(11) 0.6320(3) 0.5361(14)
O4 O 0.2587(16) 0.4289(4) 0.4355(14)
O5 O -0.0242(12) 0.4563(3) 0.6761(12)
Ag1_2 Ag -0.78946(12) 0.85741(2) -0.56408(11)
Ag1A Ag -0.21054(12) 0.35741(2) 0.56408(11)
Ag2_2 Ag 0.56816(12) 0.86736(3) 0.99238(11)
Ag2A Ag 0.43184(12) 0.36736(3) 1.00762(11)
N3A N -0.6311(15) 0.9660(4) -0.0740(13)
O5A O 0.0242(12) 0.9563(3) 0.3239(12)
loop_
_geom_bond_atom_site_label_1
_geom_bond_atom_site_label_2
_geom_bond_site_symmetry_1
_geom_bond_site_symmetry_2
Ag1 N1 1_555 1_555
Ag2 O2 1_555 1_555
C1 C2 1_555 1_555
C2 H1 1_555 1_555
H2 C2 1_555 1_555
C3 C2 1_555 1_555
H3 C3 1_555 1_555
C4 C3 1_555 1_555
C5 H4 1_555 1_555
C6 C5 1_555 1_555
H5 C6 1_555 1_555
H6 C6 1_555 1_555
C7 C5 1_555 1_555
N1 C3 1_555 1_555
H7 N1 1_555 1_555
H8 N1 1_555 1_555
N2 C4 1_555 1_555
H9 N2 1_555 1_555
N3 C6 1_555 1_555
H10 N3 1_555 1_555
H11 N3 1_555 1_555
O1 C1 1_555 1_555
O2 C1 1_555 1_555
O3 C4 1_555 1_555
O4 C7 1_555 1_555
O5 C7 1_555 1_555
Ag1_2 Ag2 1_555 1_555
Ag1A O5 1_555 1_555
Ag2_2 Ag1 1_555 1_555
Ag2A N3 1_555 1_555
N3A Ag2 1_555 1_555
O5A Ag1 1_555 1_555
C5 N2 1_555 1_555

#END
