
#######################################################################
#
#                 Cambridge Crystallographic Data Centre
#                                CCDC 
#
#######################################################################
#
# If this CIF has been generated from an entry in the Cambridge 
# Structural Database, then it will include bibliographic, chemical, 
# crystal, experimental, refinement or atomic coordinate data resulting 
# from the CCDC's data processing and validation procedures.
#
#######################################################################

data_YOMNUL04
_symmetry_cell_setting           monoclinic
_symmetry_space_group_name_H-M   'P 21'
_symmetry_Int_Tables_number      4
_space_group_name_Hall           'P 2yb'
loop_
_symmetry_equiv_pos_site_id
_symmetry_equiv_pos_as_xyz
1 x,y,z
2 -x,1/2+y,-z
_cell_length_a                   4.8387(9)
_cell_length_b                   19.991(4)
_cell_length_c                   5.5464(10)
_cell_angle_alpha                90
_cell_angle_beta                 103.104(3)
_cell_angle_gamma                90
_cell_volume                     522.535
loop_
_atom_site_label
_atom_site_type_symbol
_atom_site_fract_x
_atom_site_fract_y
_atom_site_fract_z
Ag1 Ag 0.21038(12) 0.85742(2) 0.43553(10)
Ag2 Ag -0.43213(12) 0.86735(3) -0.00767(10)
C1 C -0.0247(15) 0.7566(4) 0.0317(13)
C2 C 0.1395(17) 0.6950(4) 0.1452(14)
H1 H 0.3037 0.6892 0.0745
H2 H 0.0199 0.6558 0.1042
C3 C 0.2376(14) 0.7006(3) 0.4271(12)
H3 H 0.0705 0.7044 0.4983
C4 C 0.4007(13) 0.6370(3) 0.5271(13)
C5 C 0.3855(14) 0.5247(3) 0.6921(13)
H4 H 0.5604 0.5201 0.6326
C6 C 0.4665(17) 0.5261(4) 0.9726(15)
H5 H 0.5792 0.5657 1.0272
H6 H 0.296 0.5286 1.0364
C7 C 0.1920(15) 0.4655(4) 0.5903(13)
N1 N 0.4154(12) 0.7601(3) 0.4946(12)
H7 H 0.5632 0.759 0.4022
H8 H 0.5079 0.7566 0.6686
N2 N 0.2502(12) 0.5875(3) 0.5946(12)
H9 H 0.0708 0.5926 0.5806
N3 N 0.6307(15) 0.4657(3) 1.0733(12)
H10 H 0.6922 0.4715 1.2511
H11 H 0.8004 0.4649 1.0079
O1 O 0.0592(14) 0.7894(4) -0.1281(11)
O2 O -0.2418(12) 0.7715(3) 0.1096(12)
O3 O 0.6575(11) 0.6323(3) 0.5380(14)
O4 O 0.2592(16) 0.4290(4) 0.4355(14)
O5 O -0.0239(12) 0.4564(3) 0.6760(12)
Ag1_2 Ag -0.78962(12) 0.85742(2) -0.56447(10)
Ag1A Ag -0.21038(12) 0.35742(2) 0.56447(10)
Ag2_2 Ag 0.56787(12) 0.86735(3) 0.99233(10)
Ag2A Ag 0.43213(12) 0.36735(3) 1.00767(10)
N3A N -0.6307(15) 0.9657(3) -0.0733(12)
O5A O 0.0239(12) 0.9564(3) 0.3240(12)
loop_
_geom_bond_atom_site_label_1
_geom_bond_atom_site_label_2
_geom_bond_site_symmetry_1
_geom_bond_site_symmetry_2
Ag1 N1 1_555 1_555
Ag2 O2 1_555 1_555
C1 C2 1_555 1_555
C2 H1 1_555 1_555
H2 C2 1_555 1_555
C3 C2 1_555 1_555
H3 C3 1_555 1_555
C4 C3 1_555 1_555
C5 H4 1_555 1_555
C6 C5 1_555 1_555
H5 C6 1_555 1_555
H6 C6 1_555 1_555
C7 C5 1_555 1_555
N1 C3 1_555 1_555
H7 N1 1_555 1_555
H8 N1 1_555 1_555
N2 C4 1_555 1_555
H9 N2 1_555 1_555
N3 C6 1_555 1_555
H10 N3 1_555 1_555
H11 N3 1_555 1_555
O1 C1 1_555 1_555
O2 C1 1_555 1_555
O3 C4 1_555 1_555
O4 C7 1_555 1_555
O5 C7 1_555 1_555
Ag1_2 Ag2 1_555 1_555
Ag1A O5 1_555 1_555
Ag2_2 Ag1 1_555 1_555
Ag2A N3 1_555 1_555
N3A Ag2 1_555 1_555
O5A Ag1 1_555 1_555
C5 N2 1_555 1_555

#END
