
#######################################################################
#
#                 Cambridge Crystallographic Data Centre
#                                CCDC 
#
#######################################################################
#
# If this CIF has been generated from an entry in the Cambridge 
# Structural Database, then it will include bibliographic, chemical, 
# crystal, experimental, refinement or atomic coordinate data resulting 
# from the CCDC's data processing and validation procedures.
#
#######################################################################

data_YOMNUL10
_symmetry_cell_setting           monoclinic
_symmetry_space_group_name_H-M   'P 21'
_symmetry_Int_Tables_number      4
_space_group_name_Hall           'P 2yb'
loop_
_symmetry_equiv_pos_site_id
_symmetry_equiv_pos_as_xyz
1 x,y,z
2 -x,1/2+y,-z
_cell_length_a                   4.8117(7)
_cell_length_b                   19.917(3)
_cell_length_c                   5.5101(8)
_cell_angle_alpha                90
_cell_angle_beta                 103.221(2)
_cell_angle_gamma                90
_cell_volume                     514.062
loop_
_atom_site_label
_atom_site_type_symbol
_atom_site_fract_x
_atom_site_fract_y
_atom_site_fract_z
Ag1 Ag 0.21272(9) 0.85773(2) 0.42947(8)
Ag2 Ag -0.43754(9) 0.86693(2) -0.00840(8)
C1 C -0.0234(12) 0.7560(3) 0.0261(11)
C2 C 0.1419(13) 0.6942(3) 0.1442(12)
H1 H 0.0194 0.654 0.1024
H2 H 0.3114 0.688 0.0731
C3 C 0.2381(11) 0.7004(3) 0.4265(10)
H3 H 0.0667 0.7046 0.4995
C4 C 0.4037(11) 0.6372(3) 0.5277(11)
C5 C 0.3878(12) 0.5249(3) 0.6948(11)
H4 H 0.5681 0.5202 0.6351
C6 C 0.4689(14) 0.5258(3) 0.9781(13)
H5 H 0.5817 0.5667 1.0357
H6 H 0.2936 0.5272 1.0432
C7 C 0.1957(11) 0.4651(3) 0.5915(11)
N1 N 0.4196(10) 0.7602(2) 0.4923(10)
H7 H 0.5703 0.7586 0.3965
H8 H 0.5156 0.757 0.6711
N2 N 0.2535(10) 0.5880(3) 0.5962(10)
H9 H 0.069 0.5934 0.5821
N3 N 0.6377(11) 0.4658(3) 1.0767(10)
H10 H 0.7032 0.4715 1.2594
H11 H 0.8102 0.4655 1.0073
O1 O 0.0604(10) 0.7891(3) -0.1335(9)
O2 O -0.2444(10) 0.7711(3) 0.1056(10)
O3 O 0.6627(8) 0.6327(2) 0.5402(10)
O4 O 0.2626(11) 0.4291(3) 0.4326(10)
O5 O -0.0206(9) 0.4563(2) 0.6798(9)
Ag1_2 Ag -0.78728(9) 0.85773(2) -0.57053(8)
Ag1A Ag -0.21272(9) 0.35773(2) 0.57053(8)
Ag2_2 Ag 0.56246(9) 0.86693(2) 0.99160(8)
Ag2A Ag 0.43754(9) 0.36693(2) 1.00840(8)
N3A N -0.6377(11) 0.9658(3) -0.0767(10)
O5A O 0.0206(9) 0.9563(2) 0.3202(9)
loop_
_geom_bond_atom_site_label_1
_geom_bond_atom_site_label_2
_geom_bond_site_symmetry_1
_geom_bond_site_symmetry_2
Ag1 N1 1_555 1_555
Ag2 O2 1_555 1_555
C1 C2 1_555 1_555
C2 H1 1_555 1_555
H2 C2 1_555 1_555
C3 C2 1_555 1_555
H3 C3 1_555 1_555
C4 C3 1_555 1_555
C5 H4 1_555 1_555
C6 C5 1_555 1_555
H5 C6 1_555 1_555
H6 C6 1_555 1_555
C7 C5 1_555 1_555
N1 C3 1_555 1_555
H7 N1 1_555 1_555
H8 N1 1_555 1_555
N2 C4 1_555 1_555
H9 N2 1_555 1_555
N3 C6 1_555 1_555
H10 N3 1_555 1_555
H11 N3 1_555 1_555
O1 C1 1_555 1_555
O2 C1 1_555 1_555
O3 C4 1_555 1_555
O4 C7 1_555 1_555
O5 C7 1_555 1_555
Ag1_2 Ag2 1_555 1_555
Ag1A O5 1_555 1_555
Ag2_2 Ag1 1_555 1_555
Ag2A N3 1_555 1_555
N3A Ag2 1_555 1_555
O5A Ag1 1_555 1_555
C5 N2 1_555 1_555

#END
