
#######################################################################
#
#                 Cambridge Crystallographic Data Centre
#                                CCDC 
#
#######################################################################
#
# If this CIF has been generated from an entry in the Cambridge 
# Structural Database, then it will include bibliographic, chemical, 
# crystal, experimental, refinement or atomic coordinate data resulting 
# from the CCDC's data processing and validation procedures.
#
#######################################################################

data_YOMPAT
_symmetry_cell_setting           triclinic
_symmetry_space_group_name_H-M   'P -1'
_symmetry_Int_Tables_number      2
_space_group_name_Hall           '-P 1'
loop_
_symmetry_equiv_pos_site_id
_symmetry_equiv_pos_as_xyz
1 x,y,z
2 -x,-y,-z
_cell_length_a                   8.7147(15)
_cell_length_b                   10.1481(17)
_cell_length_c                   11.0855(19)
_cell_angle_alpha                71.380(2)
_cell_angle_beta                 83.379(2)
_cell_angle_gamma                71.384(2)
_cell_volume                     880.353
loop_
_atom_site_label
_atom_site_type_symbol
_atom_site_fract_x
_atom_site_fract_y
_atom_site_fract_z
Co1 Co 0.29420(5) 0.12091(4) 0.32822(4)
O1 O 0.1959(3) -0.2621(2) 0.6617(2)
O2 O -0.2213(3) 0.8333(3) 0.2528(2)
O3 O 0.4112(3) -0.1063(2) 0.3930(2)
O4 O 0.2110(3) 0.1169(3) 0.5173(2)
H1 H 0.2577 0.1657 0.5455
H2 H 0.2354 0.0268 0.5669
O5 O 0.4264(3) -0.1736(2) 0.2183(2)
O6 O 0.3574(3) 0.1188(3) 0.1430(2)
H3 H 0.4173 0.1777 0.1080
H4 H 0.2697 0.1483 0.0965
O7 O 0.0864(3) 0.0683(2) 0.3142(2)
H5 H 0.0923 -0.0186 0.3665
H6 H 0.0770 0.0685 0.2363
O8 O 0.5040(3) 0.1577(3) 0.3650(2)
H7 H 0.5912 0.0988 0.3389
H8 H 0.5122 0.1410 0.4479
O9 O 0.1174(3) -0.2114(2) 0.4638(2)
N1 N 0.1722(3) 0.3496(3) 0.2673(3)
N2 N -0.0732(3) 0.8949(3) 0.0742(3)
C1 C 0.2030(5) 0.4404(4) 0.3194(4)
H9 H 0.2884 0.4024 0.3787
C2 C 0.1171(5) 0.5865(4) 0.2915(4)
H10 H 0.1436 0.6474 0.3302
C3 C 0.4641(4) -0.3564(3) 0.4194(3)
C4 C -0.1663(4) 1.0481(4) 0.0382(4)
H11 H -0.2473 1.0673 0.1057
H12 H -0.2249 1.0737 -0.0415
C5 C 0.0518(4) 0.4056(3) 0.1842(3)
H13 H 0.0288 0.3429 0.1455
C6 C -0.0410(4) 0.5497(3) 0.1518(3)
H14 H -0.1263 0.5847 0.0928
C7 C -0.1102(4) 0.7995(3) 0.1794(3)
C8 C 0.2153(4) -0.2786(3) 0.5536(3)
C9 C 0.3675(4) -0.3914(3) 0.5273(3)
C10 C 0.4312(4) -0.2013(3) 0.3364(3)
C11 C 0.0546(4) 0.8593(4) -0.0186(3)
H15 H 0.0054 0.8768 -0.1007
H16 H 0.1173 0.7549 0.0122
C12 C 0.4050(4) -0.5346(3) 0.6073(3)
H17 H 0.3402 -0.5581 0.6812
C13 C -0.0088(4) 0.6425(3) 0.2060(3)
O1A O 0.8041(3) -0.7379(2) 0.3383(2)
O3A O 0.5888(3) -0.8937(2) 0.6070(2)
O5A O 0.5736(3) -0.8264(2) 0.7817(2)
O9A O 0.8826(3) -0.7886(2) 0.5362(2)
C3A C 0.5359(4) -0.6436(3) 0.5806(3)
C8A C 0.7847(4) -0.7214(3) 0.4464(3)
C9A C 0.6325(4) -0.6086(3) 0.4727(3)
C10A C 0.5688(4) -0.7987(3) 0.6636(3)
C12A C 0.5950(4) -0.4654(3) 0.3927(3)
H17A H 0.6598 -0.4419 0.3188
O2A O 0.2213(3) 1.1667(3) -0.2528(2)
N1A N -0.1722(3) 1.6504(3) -0.2673(3)
N2A N 0.0732(3) 1.1051(3) -0.0742(3)
C1A C -0.2030(5) 1.5596(4) -0.3194(4)
H9A H -0.2884 1.5976 -0.3787
C2A C -0.1171(5) 1.4135(4) -0.2915(4)
H10A H -0.1436 1.3526 -0.3302
C4A C 0.1663(4) 0.9519(4) -0.0382(4)
H11A H 0.2473 0.9327 -0.1057
H12A H 0.2249 0.9263 0.0415
C5A C -0.0518(4) 1.5944(3) -0.1842(3)
H13A H -0.0288 1.6571 -0.1455
C6A C 0.0410(4) 1.4503(3) -0.1518(3)
H14A H 0.1263 1.4153 -0.0928
C7A C 0.1102(4) 1.2005(3) -0.1794(3)
C11A C -0.0546(4) 1.1407(4) 0.0186(3)
H15A H -0.0054 1.1232 0.1007
H16A H -0.1173 1.2451 -0.0122
C13A C 0.0088(4) 1.3575(3) -0.2060(3)
Co1A Co -0.29420(5) 1.87909(4) -0.32822(4)
O4A O -0.2110(3) 1.8831(3) -0.5173(2)
H1A H -0.2577 1.8343 -0.5455
H2A H -0.2354 1.9732 -0.5669
O6A O -0.3574(3) 1.8812(3) -0.1430(2)
H3A H -0.4173 1.8223 -0.1080
H4A H -0.2697 1.8517 -0.0965
O7A O -0.0864(3) 1.9317(2) -0.3142(2)
H5A H -0.0923 2.0186 -0.3665
H6A H -0.0770 1.9315 -0.2363
O8A O -0.5040(3) 1.8423(3) -0.3650(2)
H7A H -0.5912 1.9012 -0.3389
H8A H -0.5122 1.8590 -0.4479
Co1A_2 Co 0.70580(5) -1.12091(4) 0.67178(4)
O3A_2 O -0.4112(3) 2.1063(2) -0.3930(2)
O10 O 0.5129(3) 0.6893(3) 0.0329(2)
H18 H 0.4821 0.7245 0.0968
H19 H 0.5812 0.6025 0.0591
O11 O 0.6705(4) 0.4018(3) 0.1026(3)
H20 H 0.6421 0.3697 0.1818
H21 H 0.6133 0.3832 0.0542
loop_
_geom_bond_atom_site_label_1
_geom_bond_atom_site_label_2
_geom_bond_site_symmetry_1
_geom_bond_site_symmetry_2
Co1 O3 1_555 1_555
O1 C8 1_555 1_555
O2 C7 1_555 1_555
O3 C10 1_555 1_555
O4 Co1 1_555 1_555
H1 O4 1_555 1_555
H2 O4 1_555 1_555
O5 C10 1_555 1_555
O6 Co1 1_555 1_555
H3 O6 1_555 1_555
H4 O6 1_555 1_555
O7 Co1 1_555 1_555
H5 O7 1_555 1_555
H6 O7 1_555 1_555
O8 Co1 1_555 1_555
H7 O8 1_555 1_555
H8 O8 1_555 1_555
O9 C8 1_555 1_555
N1 Co1 1_555 1_555
N2 C4 1_555 1_555
C1 N1 1_555 1_555
H9 C1 1_555 1_555
C2 C1 1_555 1_555
H10 C2 1_555 1_555
C3 C9 1_555 1_555
C4 H11 1_555 1_555
H12 C4 1_555 1_555
C5 N1 1_555 1_555
H13 C5 1_555 1_555
C6 C5 1_555 1_555
H14 C6 1_555 1_555
C7 N2 1_555 1_555
C8 C9 1_555 1_555
C9 C12 1_555 1_555
C10 C3 1_555 1_555
C11 N2 1_555 1_555
H15 C11 1_555 1_555
H16 C11 1_555 1_555
C12 H17 1_555 1_555
C13 C2 1_555 1_555
O10 H18 1_555 1_555
H19 O10 1_555 1_555
O11 H20 1_555 1_555
H21 O11 1_555 1_555
O1A C8A 1_555 1_555
O3A C10A 1_555 1_555
O5A C10A 1_555 1_555
O9A C8A 1_555 1_555
C3A C12 1_555 1_555
C8A C9A 1_555 1_555
C9A C3A 1_555 1_555
C10A C3A 1_555 1_555
C12A C3 1_555 1_555
H17A C12A 1_555 1_555
O2A C7A 1_555 1_555
N1A C1A 1_555 1_555
N2A C4A 1_555 1_555
C1A H9A 1_555 1_555
C2A C1A 1_555 1_555
H10A C2A 1_555 1_555
C4A C11 1_555 1_555
H11A C4A 1_555 1_555
H12A C4A 1_555 1_555
C5A N1A 1_555 1_555
H13A C5A 1_555 1_555
C6A C5A 1_555 1_555
H14A C6A 1_555 1_555
C7A N2A 1_555 1_555
C11A C4 1_555 1_555
H15A C11A 1_555 1_555
H16A C11A 1_555 1_555
C13A C2A 1_555 1_555
Co1A N1A 1_555 1_555
O4A Co1A 1_555 1_555
H1A O4A 1_555 1_555
H2A O4A 1_555 1_555
O6A Co1A 1_555 1_555
H3A O6A 1_555 1_555
H4A O6A 1_555 1_555
O7A Co1A 1_555 1_555
H5A O7A 1_555 1_555
H6A O7A 1_555 1_555
O8A Co1A 1_555 1_555
H7A O8A 1_555 1_555
H8A O8A 1_555 1_555
Co1A_2 O3A 1_555 1_555
O3A_2 Co1A 1_555 1_555
C6 C13 1_555 1_555
C7 C13 1_555 1_555
C9A C12A 1_555 1_555
N2A C11A 1_555 1_555
C6A C13A 1_555 1_555
C7A C13A 1_555 1_555

#END
