
#######################################################################
#
#                 Cambridge Crystallographic Data Centre
#                                CCDC 
#
#######################################################################
#
# If this CIF has been generated from an entry in the Cambridge 
# Structural Database, then it will include bibliographic, chemical, 
# crystal, experimental, refinement or atomic coordinate data resulting 
# from the CCDC's data processing and validation procedures.
#
#######################################################################

data_YOMQAU
_symmetry_cell_setting           triclinic
_symmetry_space_group_name_H-M   'P -1'
_symmetry_Int_Tables_number      2
_space_group_name_Hall           '-P 1'
loop_
_symmetry_equiv_pos_site_id
_symmetry_equiv_pos_as_xyz
1 x,y,z
2 -x,-y,-z
_cell_length_a                   10.4081(11)
_cell_length_b                   11.7122(13)
_cell_length_c                   12.0426(13)
_cell_angle_alpha                62.8030(10)
_cell_angle_beta                 77.4700(10)
_cell_angle_gamma                69.5750(10)
_cell_volume                     1220.71
loop_
_atom_site_label
_atom_site_type_symbol
_atom_site_fract_x
_atom_site_fract_y
_atom_site_fract_z
Cd1 Cd 0.16083(2) 0.78542(2) 0.44787(2)
O1 O 0.1009(3) 1.0083(2) 0.3106(2)
N1 N 0.2105(2) 0.5600(2) 0.5862(2)
N2 N 0.2095(2) 0.7237(2) 0.2775(2)
N3 N 0.3835(3) 0.1102(2) 0.9466(2)
N4 N 0.0856(3) 0.5710(3) 0.0040(2)
C1 C 0.2890(3) 0.5533(3) 0.2000(3)
H1 H 0.3406 0.4640 0.2130
C2 C 0.1475(3) 0.8064(3) 0.1705(3)
H2 H 0.0981 0.8959 0.1588
C3 C 0.3772(3) 0.0121(3) 1.0766(3)
H3 H 0.3469 -0.0613 1.0811
H4 H 0.3095 0.0556 1.1276
C4 C 0.2224(3) 0.6388(3) 0.0915(3)
C5 C 0.1271(3) 0.3707(3) 0.7137(3)
H5 H 0.0575 0.3282 0.7316
C6 C 0.1516(3) 0.7688(3) 0.0772(3)
H6 H 0.1062 0.8316 0.0030
C7 C 0.2405(3) 0.3062(3) 0.7844(3)
C8 C 0.1148(3) 0.4957(3) 0.6178(3)
H7 H 0.0351 0.5386 0.5718
C9 C 0.0841(4) 0.4379(3) 0.1009(3)
H8 H 0.1040 0.4290 0.1817
H9 H 0.1568 0.3688 0.0788
C10 C 0.4831(3) 0.0444(3) 0.8722(3)
H10 H 0.4879 0.1098 0.7839
H11 H 0.4536 -0.0287 0.8751
C11 C 0.3224(3) 0.4957(3) 0.6512(3)
H12 H 0.3928 0.5383 0.6284
C12 C 0.2795(3) 0.5994(3) 0.2897(3)
H13 H 0.3254 0.5391 0.3642
C13 C 0.2175(4) 0.5946(4) -0.0071(3)
H14 H 0.2314 0.6646 -0.0913
H15 H 0.2926 0.5113 0.0027
C14 C 0.2493(3) 0.1743(3) 0.8963(3)
H16 H 0.1796 0.1892 0.9624
H17 H 0.2272 0.1134 0.8722
C15 C 0.3413(3) 0.3713(3) 0.7491(3)
H18 H 0.4228 0.3299 0.7926
C16 C 0.0532(4) 0.5847(3) -0.1145(3)
H19 H 0.1253 0.5187 -0.1411
H20 H 0.0517 0.6756 -0.1799
H21 H 0.034(4) 1.034(4) 0.282(4)
H22 H 0.094(4) 1.060(4) 0.344(4)
S1 S 0.64620(7) 0.79012(8) 0.47243(7)
O2 O 0.3835(2) 0.7829(2) 0.4407(2)
O3 O 0.2605(2) 0.8338(2) 0.5946(2)
O4 O 0.9328(2) 0.7885(2) 0.4231(2)
O5 O 0.9541(2) 0.8196(2) 0.58451(19)
C17 C 0.5179(3) 0.8466(3) 0.6556(3)
H23 H 0.4473 0.8651 0.7151
C18 C 0.8828(3) 0.8083(3) 0.5202(3)
C19 C 0.3716(3) 0.8123(3) 0.5315(3)
C20 C 0.4981(3) 0.8186(3) 0.5638(3)
C21 C 0.7359(3) 0.8163(3) 0.5578(3)
C22 C 0.6543(3) 0.8453(3) 0.6530(3)
H24 H 0.6862 0.8624 0.7105
N1A N 0.7895(2) -0.5600(2) 1.4138(2)
N3A N 0.6165(3) -0.1102(2) 1.0534(2)
C3A C 0.6228(3) -0.0121(3) 0.9234(3)
H3A H 0.6531 0.0613 0.9189
H4A H 0.6905 -0.0556 0.8724
C5A C 0.8729(3) -0.3707(3) 1.2863(3)
H5A H 0.9425 -0.3282 1.2684
C7A C 0.7595(3) -0.3062(3) 1.2156(3)
C8A C 0.8852(3) -0.4957(3) 1.3822(3)
H7A H 0.9649 -0.5386 1.4282
C10A C 0.5169(3) -0.0444(3) 1.1278(3)
H10A H 0.5121 -0.1098 1.2161
H11A H 0.5464 0.0287 1.1249
C11A C 0.6776(3) -0.4957(3) 1.3488(3)
H12A H 0.6072 -0.5383 1.3716
C14A C 0.7507(3) -0.1743(3) 1.1037(3)
H16A H 0.8204 -0.1892 1.0376
H17A H 0.7728 -0.1134 1.1278
C15A C 0.6587(3) -0.3713(3) 1.2509(3)
H18A H 0.5772 -0.3299 1.2074
N2A N -0.2095(2) 0.2763(2) -0.2775(2)
N4A N -0.0856(3) 0.4290(3) -0.0040(2)
C1A C -0.2890(3) 0.4467(3) -0.2000(3)
H1A H -0.3406 0.5360 -0.2130
C2A C -0.1475(3) 0.1936(3) -0.1705(3)
H2A H -0.0981 0.1041 -0.1588
C4A C -0.2224(3) 0.3612(3) -0.0915(3)
C6A C -0.1516(3) 0.2312(3) -0.0772(3)
H6A H -0.1062 0.1684 -0.0030
C9A C -0.0841(4) 0.5621(3) -0.1009(3)
H8A H -0.1040 0.5710 -0.1817
H9A H -0.1568 0.6312 -0.0788
C12A C -0.2795(3) 0.4006(3) -0.2897(3)
H13A H -0.3254 0.4609 -0.3642
C13A C -0.2175(4) 0.4054(4) 0.0071(3)
H14A H -0.2314 0.3354 0.0913
H15A H -0.2926 0.4887 -0.0027
C16A C -0.0532(4) 0.4153(3) 0.1145(3)
H19A H -0.1253 0.4813 0.1411
H20A H -0.0517 0.3244 0.1799
Cd1A Cd -0.16083(2) 0.21458(2) -0.44787(2)
O1A O -0.1009(3) -0.0083(2) -0.3106(2)
H21A H -0.034(4) -0.034(4) -0.282(4)
H22A H -0.094(4) -0.060(4) -0.344(4)
S1A S -0.64620(7) 0.20988(8) -0.47243(7)
O2A O -0.3835(2) 0.2171(2) -0.4407(2)
O3A O -0.2605(2) 0.1662(2) -0.5946(2)
O4A O -0.9328(2) 0.2115(2) -0.4231(2)
O5A O -0.9541(2) 0.1804(2) -0.58451(19)
C17A C -0.5179(3) 0.1534(3) -0.6556(3)
H23A H -0.4473 0.1349 -0.7151
C18A C -0.8828(3) 0.1917(3) -0.5202(3)
C19A C -0.3716(3) 0.1877(3) -0.5315(3)
C20A C -0.4981(3) 0.1814(3) -0.5638(3)
C21A C -0.7359(3) 0.1837(3) -0.5578(3)
C22A C -0.6543(3) 0.1547(3) -0.6530(3)
H24A H -0.6862 0.1376 -0.7105
Cd1_2 Cd 1.16083(2) 0.78542(2) 0.44787(2)
Cd1A_2 Cd -1.16083(2) 0.21458(2) -0.44787(2)
Cd1A_3 Cd 0.83917(2) -0.78542(2) 1.55213(2)
N1A_2 N -0.2105(2) 0.4400(2) -0.5862(2)
O4_2 O -0.0672(2) 0.7885(2) 0.4231(2)
O4A_2 O 0.0672(2) 0.2115(2) -0.4231(2)
O5_2 O -0.0459(2) 0.8196(2) 0.58451(19)
O5A_2 O 0.0459(2) 0.1804(2) -0.58451(19)
O6 O 0.8437(3) 0.0577(2) 0.2361(2)
H25 H 0.8054 0.0956 0.2873
H26 H 0.8499 -0.0273 0.2744
loop_
_geom_bond_atom_site_label_1
_geom_bond_atom_site_label_2
_geom_bond_site_symmetry_1
_geom_bond_site_symmetry_2
Cd1 O1 1_555 1_555
O1 H21 1_555 1_555
N1 Cd1 1_555 1_555
N2 Cd1 1_555 1_555
N3 C3 1_555 1_555
N4 C9 1_555 1_555
C1 H1 1_555 1_555
C2 N2 1_555 1_555
H2 C2 1_555 1_555
C3 H3 1_555 1_555
H4 C3 1_555 1_555
C4 C1 1_555 1_555
C5 H5 1_555 1_555
C6 C2 1_555 1_555
H6 C6 1_555 1_555
C7 C5 1_555 1_555
C8 N1 1_555 1_555
H7 C8 1_555 1_555
C9 H8 1_555 1_555
H9 C9 1_555 1_555
C10 N3 1_555 1_555
H10 C10 1_555 1_555
H11 C10 1_555 1_555
C11 N1 1_555 1_555
H12 C11 1_555 1_555
C12 N2 1_555 1_555
H13 C12 1_555 1_555
C13 N4 1_555 1_555
H14 C13 1_555 1_555
H15 C13 1_555 1_555
C14 N3 1_555 1_555
H16 C14 1_555 1_555
H17 C14 1_555 1_555
C15 C7 1_555 1_555
H18 C15 1_555 1_555
C16 N4 1_555 1_555
H19 C16 1_555 1_555
H20 C16 1_555 1_555
H22 O1 1_555 1_555
S1 C20 1_555 1_555
O2 Cd1 1_555 1_555
O3 Cd1 1_555 1_555
O4 C18 1_555 1_555
O5 C18 1_555 1_555
C17 H23 1_555 1_555
C18 C21 1_555 1_555
C19 O2 1_555 1_555
C20 C17 1_555 1_555
C21 S1 1_555 1_555
C22 C17 1_555 1_555
H24 C22 1_555 1_555
O6 H25 1_555 1_555
H26 O6 1_555 1_555
N1A C8A 1_555 1_555
N3A C3A 1_555 1_555
C3A C10 1_555 1_555
H3A C3A 1_555 1_555
H4A C3A 1_555 1_555
C5A H5A 1_555 1_555
C7A C5A 1_555 1_555
C8A C5A 1_555 1_555
H7A C8A 1_555 1_555
C10A C3 1_555 1_555
H10A C10A 1_555 1_555
H11A C10A 1_555 1_555
C11A N1A 1_555 1_555
H12A C11A 1_555 1_555
C14A N3A 1_555 1_555
H16A C14A 1_555 1_555
H17A C14A 1_555 1_555
C15A C7A 1_555 1_555
H18A C15A 1_555 1_555
N2A C2A 1_555 1_555
N4A C9A 1_555 1_555
C1A H1A 1_555 1_555
C2A H2A 1_555 1_555
C4A C1A 1_555 1_555
C6A C2A 1_555 1_555
H6A C6A 1_555 1_555
C9A C16 1_555 1_555
H8A C9A 1_555 1_555
H9A C9A 1_555 1_555
C12A N2A 1_555 1_555
H13A C12A 1_555 1_555
C13A N4A 1_555 1_555
H14A C13A 1_555 1_555
H15A C13A 1_555 1_555
C16A C9 1_555 1_555
H19A C16A 1_555 1_555
H20A C16A 1_555 1_555
Cd1A N2A 1_555 1_555
O1A Cd1A 1_555 1_555
H21A O1A 1_555 1_555
H22A O1A 1_555 1_555
S1A C20A 1_555 1_555
O2A Cd1A 1_555 1_555
O3A Cd1A 1_555 1_555
O4A C18A 1_555 1_555
O5A C18A 1_555 1_555
C17A H23A 1_555 1_555
C18A C21A 1_555 1_555
C19A O2A 1_555 1_555
C20A C17A 1_555 1_555
C21A S1A 1_555 1_555
C22A C17A 1_555 1_555
H24A C22A 1_555 1_555
Cd1_2 O4 1_555 1_555
Cd1A_2 O4A 1_555 1_555
Cd1A_3 N1A 1_555 1_555
N1A_2 Cd1A 1_555 1_555
O4_2 Cd1 1_555 1_555
O4A_2 Cd1A 1_555 1_555
O5_2 Cd1 1_555 1_555
O5A_2 Cd1A 1_555 1_555
C1 C12 1_555 1_555
C4 C6 1_555 1_555
C4 C13 1_555 1_555
C5 C8 1_555 1_555
C7 C14 1_555 1_555
C11 C15 1_555 1_555
O3 C19 1_555 1_555
O5 Cd1_2 1_555 1_555
C19 C20 1_555 1_555
C21 C22 1_555 1_555
N3A C10A 1_555 1_555
C7A C14A 1_555 1_555
C11A C15A 1_555 1_555
N4A C16A 1_555 1_555
C1A C12A 1_555 1_555
C4A C6A 1_555 1_555
C4A C13A 1_555 1_555
O3A C19A 1_555 1_555
O5A Cd1A_2 1_555 1_555
C19A C20A 1_555 1_555
C21A C22A 1_555 1_555

#END
