
#######################################################################
#
#                 Cambridge Crystallographic Data Centre
#                                CCDC 
#
#######################################################################
#
# If this CIF has been generated from an entry in the Cambridge 
# Structural Database, then it will include bibliographic, chemical, 
# crystal, experimental, refinement or atomic coordinate data resulting 
# from the CCDC's data processing and validation procedures.
#
#######################################################################

data_YOMQEY
_symmetry_cell_setting           monoclinic
_symmetry_space_group_name_H-M   'C c'
_symmetry_Int_Tables_number      9
_space_group_name_Hall           'C -2yc'
loop_
_symmetry_equiv_pos_site_id
_symmetry_equiv_pos_as_xyz
1 x,y,z
2 x,-y,1/2+z
3 1/2+x,1/2+y,z
4 1/2+x,1/2-y,1/2+z
_cell_length_a                   18.6513(18)
_cell_length_b                   5.9317(6)
_cell_length_c                   20.3797(19)
_cell_angle_alpha                90
_cell_angle_beta                 97.7680(10)
_cell_angle_gamma                90
_cell_volume                     2234
loop_
_atom_site_label
_atom_site_type_symbol
_atom_site_fract_x
_atom_site_fract_y
_atom_site_fract_z
Zn1 Zn 0.00633(2) 0.28634(5) 0.50125(2)
S1 S 0.00727(5) 0.33610(14) 0.74234(4)
O1 O -0.02700(13) 0.6155(5) 0.90739(11)
O2 O -0.00146(17) 0.2586(5) 0.88189(12)
O3 O 0.02766(13) 0.6051(4) 0.57081(11)
O4 O 0.03346(13) 0.2546(4) 0.60616(11)
O5 O -0.00650(16) -0.0480(3) 0.49064(12)
H1 H 0.0204 -0.1217 0.5230
H2 H 0.0066 -0.0921 0.4525
N1 N -0.10304(18) 0.3246(6) 0.52703(15)
N2 N -0.25004(17) 0.6769(6) 0.68694(15)
N3 N -0.38512(18) 1.1832(5) 0.97586(15)
N4 N -0.22959(17) 0.8561(6) 0.82000(15)
C1 C -0.3038(2) 1.2975(6) 0.9011(2)
H3 H -0.2884 1.4115 0.8733
C2 C -0.1821(3) 0.2241(6) 0.6054(2)
H4 H -0.1971 0.1139 0.6346
C3 C -0.1263(2) 0.1772(7) 0.56956(19)
H5 H -0.1032 0.0344 0.5752
C4 C -0.3492(2) 0.9885(6) 0.98398(18)
H6 H -0.3642 0.8799 1.0135
C5 C -0.2166(2) 0.4317(7) 0.59893(18)
C6 C -0.1383(2) 0.5235(7) 0.51884(18)
H7 H -0.1241 0.6280 0.4876
C7 C -0.3615(2) 1.3344(8) 0.93494(18)
H8 H -0.3860 1.4748 0.9290
C8 C -0.2912(2) 0.9384(8) 0.95137(19)
H9 H -0.2671 0.7979 0.9589
C9 C -0.2679(2) 1.0908(7) 0.90782(18)
C10 C -0.1938(2) 0.5815(7) 0.5538(2)
H10 H -0.2165 0.7245 0.5469
C11 C -0.1689(2) 0.7927(7) 0.7854(2)
H11 H -0.1280 0.7412 0.8180
H12 H -0.1525 0.9264 0.7623
C12 C -0.1891(2) 0.6090(7) 0.73592(19)
H13 H -0.1470 0.5722 0.7131
H14 H -0.2024 0.4718 0.7592
C13 C -0.2737(2) 0.4965(7) 0.64040(19)
H15 H -0.3175 0.5460 0.6111
H16 H -0.2867 0.3629 0.6653
C14 C -0.2070(2) 1.0324(7) 0.86871(19)
H17 H -0.1926 1.1687 0.8457
H18 H -0.1646 0.9798 0.8993
C15 C -0.0092(2) 0.4651(7) 0.86947(18)
C16 C 0.0288(2) 0.4622(6) 0.61678(17)
C17 C 0.02127(19) 0.5364(6) 0.68495(17)
C18 C 0.00280(19) 0.5370(6) 0.80225(17)
C19 C 0.01296(19) 0.7492(6) 0.77829(17)
H19 H 0.0130 0.8820 0.8043
C20 C 0.02334(18) 0.7496(5) 0.71112(16)
H20 H 0.0309 0.8821 0.6868
C21 C -0.2899(2) 0.9280(7) 0.77113(19)
H21 H -0.2758 1.0636 0.7476
H22 H -0.3319 0.9674 0.7938
C22 C -0.3105(3) 0.7406(8) 0.7219(2)
H23 H -0.3263 0.6074 0.7455
H24 H -0.3517 0.7904 0.6893
Zn1A Zn 0.00633(2) 0.71366(5) 1.00125(2)
Zn1C Zn -0.49367(2) 1.21366(5) 1.00125(2)
O1A O -0.02700(13) 0.3845(5) 0.40739(11)
N3C N 0.11488(18) 0.3168(5) 0.47586(15)
loop_
_geom_bond_atom_site_label_1
_geom_bond_atom_site_label_2
_geom_bond_site_symmetry_1
_geom_bond_site_symmetry_2
Zn1 O3 1_555 1_555
S1 C17 1_555 1_555
O1 C15 1_555 1_555
O2 C15 1_555 1_555
O3 C16 1_555 1_555
O4 Zn1 1_555 1_555
O5 Zn1 1_555 1_555
H1 O5 1_555 1_555
H2 O5 1_555 1_555
N1 Zn1 1_555 1_555
N2 C12 1_555 1_555
N3 C4 1_555 1_555
N4 C11 1_555 1_555
C1 H3 1_555 1_555
C2 H4 1_555 1_555
C3 N1 1_555 1_555
H5 C3 1_555 1_555
C4 H6 1_555 1_555
C5 C2 1_555 1_555
C6 N1 1_555 1_555
H7 C6 1_555 1_555
C7 N3 1_555 1_555
H8 C7 1_555 1_555
C8 C4 1_555 1_555
H9 C8 1_555 1_555
C9 C1 1_555 1_555
C10 C5 1_555 1_555
H10 C10 1_555 1_555
C11 H11 1_555 1_555
H12 C11 1_555 1_555
C12 C11 1_555 1_555
H13 C12 1_555 1_555
H14 C12 1_555 1_555
C13 N2 1_555 1_555
H15 C13 1_555 1_555
H16 C13 1_555 1_555
C14 N4 1_555 1_555
H17 C14 1_555 1_555
H18 C14 1_555 1_555
C15 C18 1_555 1_555
C16 O4 1_555 1_555
C17 C16 1_555 1_555
C18 S1 1_555 1_555
C19 C18 1_555 1_555
H19 C19 1_555 1_555
C20 C17 1_555 1_555
H20 C20 1_555 1_555
C21 N4 1_555 1_555
H21 C21 1_555 1_555
H22 C21 1_555 1_555
C22 N2 1_555 1_555
H23 C22 1_555 1_555
H24 C22 1_555 1_555
Zn1A O1 1_555 1_555
Zn1C N3 1_555 1_555
O1A Zn1 1_555 1_555
N3C Zn1 1_555 1_555
C1 C7 1_555 1_555
C2 C3 1_555 1_555
C5 C13 1_555 1_555
C6 C10 1_555 1_555
C8 C9 1_555 1_555
C9 C14 1_555 1_555
C19 C20 1_555 1_555
C21 C22 1_555 1_555

#END
