
#######################################################################
#
#                 Cambridge Crystallographic Data Centre
#                                CCDC 
#
#######################################################################
#
# If this CIF has been generated from an entry in the Cambridge 
# Structural Database, then it will include bibliographic, chemical, 
# crystal, experimental, refinement or atomic coordinate data resulting 
# from the CCDC's data processing and validation procedures.
#
#######################################################################

data_YOMROJ
_symmetry_cell_setting           triclinic
_symmetry_space_group_name_H-M   'P -1'
_symmetry_Int_Tables_number      2
_space_group_name_Hall           '-P 1'
loop_
_symmetry_equiv_pos_site_id
_symmetry_equiv_pos_as_xyz
1 x,y,z
2 -x,-y,-z
_cell_length_a                   6.7133(10)
_cell_length_b                   8.5824(10)
_cell_length_c                   8.6551(15)
_cell_angle_alpha                92.998(12)
_cell_angle_beta                 108.227(15)
_cell_angle_gamma                104.119(12)
_cell_volume                     454.846
loop_
_atom_site_label
_atom_site_type_symbol
_atom_site_fract_x
_atom_site_fract_y
_atom_site_fract_z
Cu1 Cu 0.0000 0.0000 0.0000
O1 O 1.1619(9) 0.4036(6) 0.1414(8)
O2 O 0.8979(8) 0.1696(6) 0.0851(6)
C1 C 0.8389(11) 0.4069(8) 0.1908(9)
H1 H 0.9226 0.4721 0.2968
H2 H 0.7932 0.4795 0.1132
C2 C 0.9864(11) 0.3207(8) 0.1340(8)
C3 C 0.3647(10) 0.2118(7) -0.0814(9)
N1 N 0.1482(10) 0.1417(7) -0.1437(8)
C4 C 0.0470(12) 0.1456(10) -0.3006(9)
H3 H -0.1034 0.1013 -0.3422
C5 C 0.1496(15) 0.2105(10) -0.4054(10)
H4 H 0.0731 0.2073 -0.5161
C6 C 0.3732(14) 0.2817(10) -0.3399(11)
H5 H 0.4499 0.3297 -0.4058
C7 C 0.4792(12) 0.2800(8) -0.1767(9)
H6 H 0.6291 0.3255 -0.1315
C8 C 0.4591(10) 0.2062(7) 0.0950(8)
N2 N 0.3519(10) 0.1074(7) 0.1740(8)
N3 N 0.4790(12) 0.1379(9) 0.3328(9)
N4 N 0.6542(12) 0.2495(8) 0.3527(8)
N5 N 0.6455(10) 0.2933(7) 0.2042(7)
O1A O -1.1619(9) -0.4036(6) -0.1414(8)
O2A O -0.8979(8) -0.1696(6) -0.0851(6)
C1A C -0.8389(11) -0.4069(8) -0.1908(9)
H1A H -0.9226 -0.4721 -0.2968
H2A H -0.7932 -0.4795 -0.1132
C2A C -0.9864(11) -0.3207(8) -0.1340(8)
C3A C -0.3647(10) -0.2118(7) 0.0814(9)
N1A N -0.1482(10) -0.1417(7) 0.1437(8)
C4A C -0.0470(12) -0.1456(10) 0.3006(9)
H3A H 0.1034 -0.1013 0.3422
C5A C -0.1496(15) -0.2105(10) 0.4054(10)
H4A H -0.0731 -0.2073 0.5161
C6A C -0.3732(14) -0.2817(10) 0.3399(11)
H5A H -0.4499 -0.3297 0.4058
C7A C -0.4792(12) -0.2800(8) 0.1767(9)
H6A H -0.6291 -0.3255 0.1315
C8A C -0.4591(10) -0.2062(7) -0.0950(8)
N2A N -0.3519(10) -0.1074(7) -0.1740(8)
N3A N -0.4790(12) -0.1379(9) -0.3328(9)
N4A N -0.6542(12) -0.2495(8) -0.3527(8)
N5A N -0.6455(10) -0.2933(7) -0.2042(7)
Cu1_2 Cu -1.0000 0.0000 0.0000
Cu1_3 Cu 1.0000 0.0000 0.0000
O2_2 O -0.1021(8) 0.1696(6) 0.0851(6)
O2A_2 O 0.1021(8) -0.1696(6) -0.0851(6)
loop_
_geom_bond_atom_site_label_1
_geom_bond_atom_site_label_2
_geom_bond_site_symmetry_1
_geom_bond_site_symmetry_2
Cu1 N1 1_555 1_555
O1 C2 1_555 1_555
O2 C2 1_555 1_555
C1 H1 1_555 1_555
H2 C1 1_555 1_555
C2 C1 1_555 1_555
C3 N1 1_555 1_555
N1 C4 1_555 1_555
C4 H3 1_555 1_555
C5 C4 1_555 1_555
H4 C5 1_555 1_555
C6 C5 1_555 1_555
H5 C6 1_555 1_555
C7 C3 1_555 1_555
H6 C7 1_555 1_555
C8 C3 1_555 1_555
N2 Cu1 1_555 1_555
N3 N2 1_555 1_555
N4 N3 1_555 1_555
N5 C1 1_555 1_555
O1A C2A 1_555 1_555
O2A C2A 1_555 1_555
C1A H1A 1_555 1_555
H2A C1A 1_555 1_555
C2A C1A 1_555 1_555
C3A N1A 1_555 1_555
N1A Cu1 1_555 1_555
C4A N1A 1_555 1_555
H3A C4A 1_555 1_555
C5A C4A 1_555 1_555
H4A C5A 1_555 1_555
C6A C5A 1_555 1_555
H5A C6A 1_555 1_555
C7A C3A 1_555 1_555
H6A C7A 1_555 1_555
C8A C3A 1_555 1_555
N2A Cu1 1_555 1_555
N3A N2A 1_555 1_555
N4A N3A 1_555 1_555
N5A C1A 1_555 1_555
Cu1_2 O2A 1_555 1_555
Cu1_3 O2 1_555 1_555
O2_2 Cu1 1_555 1_555
O2A_2 Cu1 1_555 1_555
C6 C7 1_555 1_555
C8 N2 1_555 1_555
C8 N5 1_555 1_555
N4 N5 1_555 1_555
C6A C7A 1_555 1_555
C8A N2A 1_555 1_555
C8A N5A 1_555 1_555
N4A N5A 1_555 1_555

#END
