
#######################################################################
#
#                 Cambridge Crystallographic Data Centre
#                                CCDC 
#
#######################################################################
#
# If this CIF has been generated from an entry in the Cambridge 
# Structural Database, then it will include bibliographic, chemical, 
# crystal, experimental, refinement or atomic coordinate data resulting 
# from the CCDC's data processing and validation procedures.
#
#######################################################################

data_YOMSIE
_symmetry_cell_setting           monoclinic
_symmetry_space_group_name_H-M   'P 21/c'
_symmetry_Int_Tables_number      14
_space_group_name_Hall           '-P 2ybc'
loop_
_symmetry_equiv_pos_site_id
_symmetry_equiv_pos_as_xyz
1 x,y,z
2 -x,1/2+y,1/2-z
3 -x,-y,-z
4 x,1/2-y,1/2+z
_cell_length_a                   8.5766(17)
_cell_length_b                   20.853(4)
_cell_length_c                   10.807(2)
_cell_angle_alpha                90
_cell_angle_beta                 112.16(3)
_cell_angle_gamma                90
_cell_volume                     1790.04
loop_
_atom_site_label
_atom_site_type_symbol
_atom_site_fract_x
_atom_site_fract_y
_atom_site_fract_z
Ba1 Ba -1.212112(16) 0.376565(6) -0.382692(12)
O1 O -1.2557(3) 0.47523(12) -0.5645(3)
H1 H -1.340(5) 0.4891(19) -0.592(4)
H2 H -1.203(5) 0.5051(19) -0.591(4)
O2 O -0.8420(2) 0.33466(9) -0.2387(2)
O3 O -0.8958(2) 0.42463(9) -0.35833(18)
O4 O -1.3922(3) 0.49293(10) -0.3316(2)
H3 H -1.344(5) 0.4971(16) -0.250(4)
H4 H -1.376(4) 0.529(2) -0.364(4)
O5 O -0.1693(2) 0.23065(8) 0.27799(17)
O6 O -0.2135(2) 0.30613(8) 0.40697(16)
O7 O -1.5627(3) 0.38094(9) -0.5564(2)
O8 O -1.5214(2) 0.32571(10) -0.37051(18)
O9 O -2.0751(3) 0.42550(10) -1.13903(18)
O10 O -2.2414(3) 0.47552(10) -1.05321(19)
N1 N -0.5509(3) 0.38373(9) -0.0475(2)
N2 N -1.8771(2) 0.34023(9) -0.67981(19)
C1 C -0.4519(3) 0.33686(12) -0.0624(2)
H5 H -0.4506 0.3279 -0.1463
C2 C -0.3523(3) 0.30220(11) 0.0478(2)
H6 H -0.2831 0.2699 0.0381
C3 C -0.3547(3) 0.31527(11) 0.1727(2)
C4 C -0.4624(4) 0.36277(14) 0.1827(3)
H7 H -0.4684 0.3721 0.2649
C5 C -0.5608(4) 0.39620(14) 0.0698(3)
H8 H -0.6344 0.4276 0.0761
C6 C -0.6498(3) 0.42282(11) -0.1657(2)
H9 H -0.5786 0.4336 -0.2142
H10 H -0.6818 0.4626 -0.1352
C7 C -0.8081(3) 0.39002(12) -0.2611(3)
C8 C -1.9517(3) 0.39706(13) -0.6793(2)
H11 H -1.9497 0.4139 -0.5990
C9 C -2.0305(3) 0.43018(11) -0.7958(2)
H12 H -2.0814 0.4695 -0.7949
C10 C -2.0334(3) 0.40448(11) -0.9151(2)
C11 C -1.9554(3) 0.34606(13) -0.9134(3)
H13 H -1.9550 0.3285 -0.9923
C12 C -1.8791(3) 0.31447(12) -0.7946(2)
H14 H -1.8282 0.2749 -0.7932
C13 C -1.7794(3) 0.30944(12) -0.5514(2)
H15 H -1.7640 0.2643 -0.5657
H16 H -1.8404 0.3126 -0.4921
C14 C -1.6071(3) 0.34200(12) -0.4868(2)
C15 C -2.1245(3) 0.43838(11) -1.0466(2)
C16 C -0.2357(3) 0.28061(10) 0.2971(2)
Ba1_2 Ba -2.212112(16) 0.376565(6) -1.382692(12)
Ba1_3 Ba -0.212112(16) 0.376565(6) 0.617308(12)
Ba1C Ba -0.212112(16) 0.123435(6) 0.117308(12)
O5C O -1.1693(2) 0.26935(8) -0.22201(17)
O6_2 O -1.2135(2) 0.30613(8) -0.59303(16)
O9_2 O -1.0751(3) 0.42550(10) -0.13903(18)
loop_
_geom_bond_atom_site_label_1
_geom_bond_atom_site_label_2
_geom_bond_site_symmetry_1
_geom_bond_site_symmetry_2
Ba1 O1 1_555 1_555
O1 H1 1_555 1_555
H2 O1 1_555 1_555
O2 Ba1 1_555 1_555
O3 Ba1 1_555 1_555
O4 Ba1 1_555 1_555
H3 O4 1_555 1_555
H4 O4 1_555 1_555
O5 C16 1_555 1_555
O6 C16 1_555 1_555
O7 Ba1 1_555 1_555
O8 Ba1 1_555 1_555
O9 C15 1_555 1_555
O10 C15 1_555 1_555
N1 C1 1_555 1_555
N2 C8 1_555 1_555
C1 H5 1_555 1_555
C2 C1 1_555 1_555
H6 C2 1_555 1_555
C3 C2 1_555 1_555
C4 C3 1_555 1_555
H7 C4 1_555 1_555
C5 N1 1_555 1_555
H8 C5 1_555 1_555
C6 N1 1_555 1_555
H9 C6 1_555 1_555
H10 C6 1_555 1_555
C7 O2 1_555 1_555
C8 H11 1_555 1_555
C9 C8 1_555 1_555
H12 C9 1_555 1_555
C10 C9 1_555 1_555
C11 C10 1_555 1_555
H13 C11 1_555 1_555
C12 N2 1_555 1_555
H14 C12 1_555 1_555
C13 N2 1_555 1_555
H15 C13 1_555 1_555
H16 C13 1_555 1_555
C14 O7 1_555 1_555
C15 C10 1_555 1_555
C16 C3 1_555 1_555
Ba1_2 O9 1_555 1_555
Ba1_3 O6 1_555 1_555
Ba1C O5 1_555 1_555
O5C Ba1 1_555 1_555
O6_2 Ba1 1_555 1_555
O9_2 Ba1 1_555 1_555
O3 C7 1_555 1_555
O8 C14 1_555 1_555
C4 C5 1_555 1_555
C6 C7 1_555 1_555
C11 C12 1_555 1_555
C13 C14 1_555 1_555

#END
