
#######################################################################
#
#                 Cambridge Crystallographic Data Centre
#                                CCDC 
#
#######################################################################
#
# If this CIF has been generated from an entry in the Cambridge 
# Structural Database, then it will include bibliographic, chemical, 
# crystal, experimental, refinement or atomic coordinate data resulting 
# from the CCDC's data processing and validation procedures.
#
#######################################################################

data_YOMVON
_symmetry_cell_setting           orthorhombic
_symmetry_space_group_name_H-M   'P b c a'
_symmetry_Int_Tables_number      61
_space_group_name_Hall           '-P 2ac 2ab'
loop_
_symmetry_equiv_pos_site_id
_symmetry_equiv_pos_as_xyz
1 x,y,z
2 1/2-x,-y,1/2+z
3 1/2+x,1/2-y,-z
4 -x,1/2+y,1/2-z
5 -x,-y,-z
6 1/2+x,y,1/2-z
7 1/2-x,1/2+y,z
8 x,1/2-y,1/2+z
_cell_length_a                   13.340(2)
_cell_length_b                   18.572(3)
_cell_length_c                   20.302(3)
_cell_angle_alpha                90
_cell_angle_beta                 90
_cell_angle_gamma                90
_cell_volume                     5029.83
loop_
_atom_site_label
_atom_site_type_symbol
_atom_site_fract_x
_atom_site_fract_y
_atom_site_fract_z
Cu1 Cu 0.31619(2) 0.25320(2) 0.25532(2)
N1 N 0.43265(11) 0.39325(9) 0.26782(9)
O1 O 0.34251(11) 0.37682(8) 0.24647(7)
C1 C 0.51390(14) 0.38422(11) 0.22753(10)
C2 C 0.60898(14) 0.40241(11) 0.25008(11)
H1 H 0.6641 0.3973 0.2225
C3 C 0.62181(15) 0.42805(11) 0.31356(12)
H2 H 0.6854 0.4395 0.3291
C4 C 0.53808(17) 0.43638(11) 0.35365(11)
H3 H 0.5452 0.4540 0.3963
C5 C 0.44463(15) 0.41845(11) 0.32999(11)
H4 H 0.3889 0.4237 0.3571
N2 N 0.45305(12) 0.29203(9) 0.15209(8)
O2 O 0.44224(10) 0.24937(7) 0.20431(8)
C6 C 0.49427(14) 0.35858(11) 0.15998(10)
C7 C 0.51752(16) 0.39907(12) 0.10471(11)
H5 H 0.5486 0.4436 0.1095
C8 C 0.49455(18) 0.37339(14) 0.04231(12)
H6 H 0.5099 0.4004 0.0051
C9 C 0.44832(18) 0.30681(15) 0.03642(11)
H7 H 0.4306 0.2894 -0.0049
C10 C 0.42868(15) 0.26648(13) 0.09180(11)
H8 H 0.3986 0.2215 0.0878
N3 N 0.20246(13) 0.10960(10) 0.25635(9)
O3 O 0.29256(10) 0.12923(9) 0.27679(8)
C11 C 0.12125(15) 0.12183(11) 0.29579(10)
C12 C 0.02751(15) 0.09953(12) 0.27543(12)
H9 H -0.0277 0.1059 0.3028
C13 C 0.01550(16) 0.06769(12) 0.21444(12)
H10 H -0.0475 0.0527 0.2004
C14 C 0.09886(17) 0.05843(12) 0.17434(11)
H11 H 0.0918 0.0381 0.1327
C15 C 0.19183(16) 0.07949(12) 0.19641(12)
H12 H 0.2478 0.0729 0.1697
N4 N 0.17953(12) 0.22318(10) 0.36128(8)
O4 O 0.18899(10) 0.25948(8) 0.30507(8)
C16 C 0.14020(15) 0.15566(11) 0.36008(10)
C17 C 0.11829(19) 0.12173(13) 0.41922(12)
H13 H 0.0886 0.0764 0.4191
C18 C 0.1404(2) 0.15494(15) 0.47823(12)
H14 H 0.1251 0.1325 0.5179
C19 C 0.18564(17) 0.22222(15) 0.47767(12)
H15 H 0.2035 0.2445 0.5170
C20 C 0.20388(17) 0.25579(12) 0.41823(11)
H16 H 0.2332 0.3012 0.4175
N5 N 0.40295(14) 0.24841(10) 0.33562(9)
C21 C 0.48376(16) 0.24544(11) 0.35542(10)
N6 N 0.57082(14) 0.24179(13) 0.38397(10)
C22 C 0.65270(16) 0.24782(11) 0.34965(10)
N7 N 0.73012(13) 0.25287(10) 0.32461(9)
Cu1E Cu 0.81619(2) 0.25320(2) 0.24468(2)
N7E N 0.23012(13) 0.25287(10) 0.17539(9)
P1 P 0.31238(4) 0.07387(3) 0.01554(3)
F1 F 0.21884(11) 0.11987(9) 0.03996(8)
F2 F 0.40564(11) 0.02777(9) -0.00889(7)
F3 F 0.25743(11) 0.06095(9) -0.05387(7)
F4 F 0.26157(12) 0.00292(8) 0.04507(9)
F5 F 0.36799(10) 0.08722(8) 0.08470(6)
F6 F 0.36316(11) 0.14512(8) -0.01347(7)
O5 O 0.36821(16) 0.07040(14) 0.40764(11)
H17 H 0.3418 0.0886 0.3733
H18 H 0.3222 0.0456 0.4260
loop_
_geom_bond_atom_site_label_1
_geom_bond_atom_site_label_2
_geom_bond_site_symmetry_1
_geom_bond_site_symmetry_2
Cu1 O1 1_555 1_555
N1 O1 1_555 1_555
C1 N1 1_555 1_555
C2 C1 1_555 1_555
H1 C2 1_555 1_555
C3 C2 1_555 1_555
H2 C3 1_555 1_555
C4 C3 1_555 1_555
H3 C4 1_555 1_555
C5 N1 1_555 1_555
H4 C5 1_555 1_555
N2 O2 1_555 1_555
O2 Cu1 1_555 1_555
C6 C1 1_555 1_555
C7 C6 1_555 1_555
H5 C7 1_555 1_555
C8 C7 1_555 1_555
H6 C8 1_555 1_555
C9 C8 1_555 1_555
H7 C9 1_555 1_555
C10 N2 1_555 1_555
H8 C10 1_555 1_555
N3 O3 1_555 1_555
O3 Cu1 1_555 1_555
C11 N3 1_555 1_555
C12 C11 1_555 1_555
H9 C12 1_555 1_555
C13 C12 1_555 1_555
H10 C13 1_555 1_555
C14 C13 1_555 1_555
H11 C14 1_555 1_555
C15 N3 1_555 1_555
H12 C15 1_555 1_555
N4 O4 1_555 1_555
O4 Cu1 1_555 1_555
C16 C11 1_555 1_555
C17 C16 1_555 1_555
H13 C17 1_555 1_555
C18 C17 1_555 1_555
H14 C18 1_555 1_555
C19 C18 1_555 1_555
H15 C19 1_555 1_555
C20 N4 1_555 1_555
H16 C20 1_555 1_555
N5 Cu1 1_555 1_555
C21 N5 1_555 1_555
N6 C21 1_555 1_555
C22 N6 1_555 1_555
N7 C22 1_555 1_555
P1 F1 1_555 1_555
F2 P1 1_555 1_555
F3 P1 1_555 1_555
F4 P1 1_555 1_555
F5 P1 1_555 1_555
F6 P1 1_555 1_555
O5 H17 1_555 1_555
H18 O5 1_555 1_555
Cu1E N7 1_555 1_555
N7E Cu1 1_555 1_555
C4 C5 1_555 1_555
N2 C6 1_555 1_555
C9 C10 1_555 1_555
C14 C15 1_555 1_555
N4 C16 1_555 1_555
C19 C20 1_555 1_555

#END
