
#######################################################################
#
#                 Cambridge Crystallographic Data Centre
#                                CCDC 
#
#######################################################################
#
# If this CIF has been generated from an entry in the Cambridge 
# Structural Database, then it will include bibliographic, chemical, 
# crystal, experimental, refinement or atomic coordinate data resulting 
# from the CCDC's data processing and validation procedures.
#
#######################################################################

data_YOMZEH
_symmetry_cell_setting           triclinic
_symmetry_space_group_name_H-M   'P -1'
_symmetry_Int_Tables_number      2
_space_group_name_Hall           '-P 1'
loop_
_symmetry_equiv_pos_site_id
_symmetry_equiv_pos_as_xyz
1 x,y,z
2 -x,-y,-z
_cell_length_a                   15.6766(8)
_cell_length_b                   16.1908(5)
_cell_length_c                   16.2003(8)
_cell_angle_alpha                66.641(3)
_cell_angle_beta                 84.042(3)
_cell_angle_gamma                81.477(3)
_cell_volume                     3728.6
loop_
_atom_site_label
_atom_site_type_symbol
_atom_site_fract_x
_atom_site_fract_y
_atom_site_fract_z
Ag1 Ag 0.19904(2) 0.25975(2) 0.16734(2)
Ag2 Ag 0.12985(2) 0.00070(2) 0.23751(2)
Ag3 Ag 0.38387(2) 0.03181(2) 0.25969(2)
P1 P 0.13302(7) 0.39824(7) 0.18179(6)
P2 P 0.00365(6) -0.06537(6) 0.23088(6)
P3 P 0.53618(7) -0.00731(8) 0.28915(7)
S1 S 0.11137(7) 0.16418(7) 0.13177(7)
S2 S 0.25822(7) -0.05115(7) 0.32622(8)
S3 S 0.35237(8) 0.20078(8) 0.17532(8)
C1 C 0.0052(3) 0.2117(2) 0.1512(2)
C2 C -0.0472(3) 0.2573(3) 0.0781(3)
C3 C -0.1284(3) 0.3002(3) 0.0908(3)
H1 H -0.1632 0.3317 0.0405
C4 C -0.1600(3) 0.2986(3) 0.1743(3)
C5 C -0.1076(3) 0.2510(3) 0.2468(3)
H2 H -0.1283 0.2482 0.3049
C6 C -0.0265(3) 0.2076(3) 0.2373(3)
C7 C -0.0161(3) 0.2616(3) -0.0149(3)
H3 H 0.0096 0.2013 -0.0111
H4 H 0.0274 0.3040 -0.0396
H5 H -0.0649 0.2824 -0.0542
C8 C -0.2487(4) 0.3426(5) 0.1881(5)
H6 H -0.2867 0.2957 0.2206
H7 H -0.2719 0.3815 0.1295
H8 H -0.2454 0.3792 0.2232
C9 C 0.0245(3) 0.1571(3) 0.3196(3)
H9 H 0.0794 0.1821 0.3115
H10 H 0.0358 0.0929 0.3289
H11 H -0.0085 0.1631 0.3721
C10 C 0.2844(3) -0.1681(3) 0.3458(3)
C11 C 0.2785(4) -0.2316(3) 0.4343(3)
C12 C 0.2983(4) -0.3233(3) 0.4500(4)
H12 H 0.2944 -0.3667 0.5100
C13 C 0.3236(4) -0.3535(3) 0.3810(4)
C14 C 0.3286(3) -0.2898(3) 0.2960(3)
H13 H 0.3462 -0.3092 0.2480
C15 C 0.3093(3) -0.1975(3) 0.2760(3)
C16 C 0.2509(6) -0.2034(5) 0.5120(4)
H14 H 0.1914 -0.1736 0.5051
H15 H 0.2893 -0.1612 0.5130
H16 H 0.2542 -0.2570 0.5685
C17 C 0.3460(6) -0.4530(4) 0.4008(6)
H17 H 0.2987 -0.4860 0.4371
H18 H 0.3990 -0.4755 0.4342
H19 H 0.3551 -0.4622 0.3442
C18 C 0.3114(4) -0.1316(4) 0.1798(3)
H20 H 0.3535 -0.0893 0.1712
H21 H 0.2541 -0.0977 0.1652
H22 H 0.3281 -0.1646 0.1403
C19 C 0.4025(3) 0.2480(3) 0.2370(3)
C20 C 0.4694(3) 0.3023(3) 0.1935(4)
C21 C 0.5115(3) 0.3359(4) 0.2430(5)
H23 H 0.5570 0.3718 0.2143
C22 C 0.4895(4) 0.3191(5) 0.3317(5)
C23 C 0.4222(4) 0.2688(4) 0.3730(4)
H24 H 0.4056 0.2584 0.4340
C24 C 0.3782(3) 0.2331(3) 0.3274(3)
C25 C 0.4949(4) 0.3215(4) 0.0957(4)
H25 H 0.4451 0.3528 0.0590
H26 H 0.5143 0.2643 0.0883
H27 H 0.5419 0.3598 0.0762
C26 C 0.5386(5) 0.3539(7) 0.3855(7)
H28 H 0.5025 0.4040 0.3961
H29 H 0.5919 0.3753 0.3516
H30 H 0.5528 0.3048 0.4434
C27 C 0.3048(4) 0.1789(3) 0.3762(3)
H31 H 0.2994 0.1734 0.4389
H32 H 0.3164 0.1184 0.3746
H33 H 0.2509 0.2097 0.3468
C28 C 0.0332(3) 0.4560(3) 0.1233(2)
H34 H -0.0140 0.4176 0.1510
H35 H 0.0169 0.5136 0.1319
C29 C 0.0418(3) 0.4760(3) 0.0232(3)
H36 H 0.0576 0.4185 0.0143
H37 H 0.0888 0.5145 -0.0048
C30 C 0.2060(3) 0.4858(3) 0.1443(2)
C31 C 0.1838(3) 0.5666(3) 0.1571(3)
H38 H 0.1286 0.5782 0.1834
C32 C 0.2419(3) 0.6301(3) 0.1317(3)
H39 H 0.2268 0.6849 0.1410
C33 C 0.3214(3) 0.6137(3) 0.0929(3)
H40 H 0.3608 0.6578 0.0743
C34 C 0.3440(4) 0.5341(4) 0.0810(4)
H41 H 0.3995 0.5224 0.0554
C35 C 0.2859(3) 0.4702(3) 0.1061(3)
H42 H 0.3016 0.4155 0.0969
C36 C 0.1037(3) 0.3879(3) 0.2975(3)
C37 C 0.1667(4) 0.3906(3) 0.3501(3)
H43 H 0.2241 0.3993 0.3259
C38 C 0.1450(5) 0.3804(4) 0.4386(3)
H44 H 0.1876 0.3845 0.4741
C39 C 0.0639(5) 0.3646(4) 0.4756(3)
H45 H 0.0503 0.3572 0.5365
C40 C 0.0020(4) 0.3595(4) 0.4247(3)
H46 H -0.0543 0.3475 0.4507
C41 C 0.0211(3) 0.3719(3) 0.3356(3)
H47 H -0.0224 0.3694 0.3002
C42 C -0.0432(3) -0.0111(3) 0.1205(2)
H48 H -0.0960 -0.0386 0.1217
H49 H -0.0603 0.0540 0.1074
C43 C 0.0197(3) -0.0211(3) 0.0459(2)
H50 H 0.0716 0.0082 0.0434
H51 H 0.0383 -0.0862 0.0602
C44 C 0.0087(3) -0.1866(3) 0.2579(2)
C45 C -0.0612(3) -0.2243(3) 0.2477(3)
H52 H -0.1125 -0.1862 0.2244
C46 C -0.0572(4) -0.3164(3) 0.2709(3)
H53 H -0.1056 -0.3415 0.2635
C47 C 0.0171(4) -0.3722(3) 0.3050(3)
H54 H 0.0200 -0.4357 0.3213
C48 C 0.0869(4) -0.3353(3) 0.3152(4)
H55 H 0.1381 -0.3735 0.3390
C49 C 0.0828(3) -0.2423(3) 0.2910(3)
H56 H 0.1315 -0.2171 0.2973
C50 C -0.0806(3) -0.0474(3) 0.3110(2)
C51 C -0.1405(3) 0.0292(3) 0.2879(3)
H57 H -0.1437 0.0707 0.2270
C52 C -0.1953(3) 0.0450(3) 0.3534(3)
H58 H -0.2364 0.0975 0.3371
C53 C -0.1917(3) -0.0136(4) 0.4417(3)
H59 H -0.2292 -0.0014 0.4864
C54 C -0.1335(4) -0.0900(4) 0.4650(3)
H60 H -0.1313 -0.1317 0.5259
C55 C -0.0784(3) -0.1064(4) 0.4002(3)
H61 H -0.0379 -0.1594 0.4170
C56 C 0.5524(3) 0.0296(3) 0.3792(3)
H62 H 0.6140 0.0152 0.3939
H63 H 0.5374 0.0961 0.3583
C57 C 0.4965(3) -0.0172(3) 0.4636(3)
H64 H 0.4355 -0.0068 0.4476
H65 H 0.5146 -0.0833 0.4869
C58 C 0.5837(3) -0.1255(3) 0.3314(3)
C59 C 0.5321(3) -0.1933(3) 0.3492(4)
H66 H 0.4722 -0.1785 0.3386
C60 C 0.5678(4) -0.2823(4) 0.3824(4)
H67 H 0.5321 -0.3292 0.3970
C61 C 0.6552(4) -0.3039(4) 0.3945(4)
H68 H 0.6796 -0.3655 0.4153
C62 C 0.7068(4) -0.2375(4) 0.3770(3)
H69 H 0.7670 -0.2527 0.3858
C63 C 0.6714(3) -0.1485(3) 0.3467(3)
H70 H 0.7070 -0.1023 0.3361
C64 C 0.6141(3) 0.0470(3) 0.1989(3)
C65 C 0.6483(4) 0.0064(5) 0.1396(4)
H71 H 0.6315 -0.0502 0.1470
C66 C 0.7068(5) 0.0476(5) 0.0692(4)
H72 H 0.7306 0.0182 0.0302
C67 C 0.7294(4) 0.1281(4) 0.0565(4)
H73 H 0.7685 0.1564 0.0079
C68 C 0.6972(4) 0.1691(5) 0.1123(5)
H74 H 0.7144 0.2261 0.1030
C69 C 0.6388(4) 0.1302(4) 0.1836(4)
H75 H 0.6162 0.1610 0.2217
P1A P -0.13302(7) 0.60176(7) -0.18179(6)
C28A C -0.0332(3) 0.5440(3) -0.1233(2)
H34A H 0.0140 0.5824 -0.1510
H35A H -0.0169 0.4864 -0.1319
C29A C -0.0418(3) 0.5240(3) -0.0232(3)
H36A H -0.0576 0.5815 -0.0143
H37A H -0.0888 0.4855 0.0048
C30A C -0.2060(3) 0.5142(3) -0.1443(2)
C31A C -0.1838(3) 0.4334(3) -0.1571(3)
H38A H -0.1286 0.4218 -0.1834
C32A C -0.2419(3) 0.3699(3) -0.1317(3)
H39A H -0.2268 0.3151 -0.1410
C33A C -0.3214(3) 0.3863(3) -0.0929(3)
H40A H -0.3608 0.3422 -0.0743
C34A C -0.3440(4) 0.4659(4) -0.0810(4)
H41A H -0.3995 0.4776 -0.0554
C35A C -0.2859(3) 0.5298(3) -0.1061(3)
H42A H -0.3016 0.5845 -0.0969
C36A C -0.1037(3) 0.6121(3) -0.2975(3)
C37A C -0.1667(4) 0.6094(3) -0.3501(3)
H43A H -0.2241 0.6007 -0.3259
C38A C -0.1450(5) 0.6196(4) -0.4386(3)
H44A H -0.1876 0.6155 -0.4741
C39A C -0.0639(5) 0.6354(4) -0.4756(3)
H45A H -0.0503 0.6428 -0.5365
C40A C -0.0020(4) 0.6405(4) -0.4247(3)
H46A H 0.0543 0.6525 -0.4507
C41A C -0.0211(3) 0.6281(3) -0.3356(3)
H47A H 0.0224 0.6306 -0.3002
P2A P -0.00365(6) 0.06537(6) -0.23088(6)
C42A C 0.0432(3) 0.0111(3) -0.1205(2)
H48A H 0.0960 0.0386 -0.1217
H49A H 0.0603 -0.0540 -0.1074
C43A C -0.0197(3) 0.0211(3) -0.0459(2)
H50A H -0.0716 -0.0082 -0.0434
H51A H -0.0383 0.0862 -0.0602
C44A C -0.0087(3) 0.1866(3) -0.2579(2)
C45A C 0.0612(3) 0.2243(3) -0.2477(3)
H52A H 0.1125 0.1862 -0.2244
C46A C 0.0572(4) 0.3164(3) -0.2709(3)
H53A H 0.1056 0.3415 -0.2635
C47A C -0.0171(4) 0.3722(3) -0.3050(3)
H54A H -0.0200 0.4357 -0.3213
C48A C -0.0869(4) 0.3353(3) -0.3152(4)
H55A H -0.1381 0.3735 -0.3390
C49A C -0.0828(3) 0.2423(3) -0.2910(3)
H56A H -0.1315 0.2171 -0.2973
C50A C 0.0806(3) 0.0474(3) -0.3110(2)
C51A C 0.1405(3) -0.0292(3) -0.2879(3)
H57A H 0.1437 -0.0707 -0.2270
C52A C 0.1953(3) -0.0450(3) -0.3534(3)
H58A H 0.2364 -0.0975 -0.3371
C53A C 0.1917(3) 0.0136(4) -0.4417(3)
H59A H 0.2292 0.0014 -0.4864
C54A C 0.1335(4) 0.0900(4) -0.4650(3)
H60A H 0.1313 0.1317 -0.5259
C55A C 0.0784(3) 0.1064(4) -0.4002(3)
H61A H 0.0379 0.1594 -0.4170
P3A P 0.46382(7) 0.00731(8) 0.71085(7)
C56A C 0.4476(3) -0.0296(3) 0.6208(3)
H62A H 0.3860 -0.0152 0.6061
H63A H 0.4626 -0.0961 0.6417
C57A C 0.5035(3) 0.0172(3) 0.5364(3)
H64A H 0.5645 0.0068 0.5524
H65A H 0.4854 0.0833 0.5131
C58A C 0.4163(3) 0.1255(3) 0.6686(3)
C59A C 0.4679(3) 0.1933(3) 0.6508(4)
H66A H 0.5278 0.1785 0.6614
C60A C 0.4322(4) 0.2823(4) 0.6176(4)
H67A H 0.4679 0.3292 0.6030
C61A C 0.3448(4) 0.3039(4) 0.6055(4)
H68A H 0.3204 0.3655 0.5847
C62A C 0.2932(4) 0.2375(4) 0.6230(3)
H69A H 0.2330 0.2527 0.6142
C63A C 0.3286(3) 0.1485(3) 0.6533(3)
H70A H 0.2930 0.1023 0.6639
C64A C 0.3859(3) -0.0470(3) 0.8011(3)
C65A C 0.3517(4) -0.0064(5) 0.8604(4)
H71A H 0.3685 0.0502 0.8530
C66A C 0.2932(5) -0.0476(5) 0.9308(4)
H72A H 0.2694 -0.0182 0.9698
C67A C 0.2706(4) -0.1281(4) 0.9435(4)
H73A H 0.2315 -0.1564 0.9921
C68A C 0.3028(4) -0.1691(5) 0.8877(5)
H74A H 0.2856 -0.2261 0.8970
C69A C 0.3612(4) -0.1302(4) 0.8164(4)
H75A H 0.3838 -0.1610 0.7783
Ag1A Ag -0.19904(2) -0.25975(2) -0.16734(2)
Ag2A Ag -0.12985(2) -0.00070(2) -0.23751(2)
Ag3A Ag -0.38387(2) -0.03181(2) -0.25969(2)
S1A S -0.11137(7) -0.16418(7) -0.13177(7)
S2A S -0.25822(7) 0.05115(7) -0.32622(8)
S3A S -0.35237(8) -0.20078(8) -0.17532(8)
C1A C -0.0052(3) -0.2117(2) -0.1512(2)
C2A C 0.0472(3) -0.2573(3) -0.0781(3)
C3A C 0.1284(3) -0.3002(3) -0.0908(3)
H1A H 0.1632 -0.3317 -0.0405
C4A C 0.1600(3) -0.2986(3) -0.1743(3)
C5A C 0.1076(3) -0.2510(3) -0.2468(3)
H2A H 0.1283 -0.2482 -0.3049
C6A C 0.0265(3) -0.2076(3) -0.2373(3)
C7A C 0.0161(3) -0.2616(3) 0.0149(3)
H3A H -0.0096 -0.2013 0.0111
H4A H -0.0274 -0.3040 0.0396
H5A H 0.0649 -0.2824 0.0542
C8A C 0.2487(4) -0.3426(5) -0.1881(5)
H6A H 0.2867 -0.2957 -0.2206
H7A H 0.2719 -0.3815 -0.1295
H8A H 0.2454 -0.3792 -0.2232
C9A C -0.0245(3) -0.1571(3) -0.3196(3)
H9A H -0.0794 -0.1821 -0.3115
H10A H -0.0358 -0.0929 -0.3289
H11A H 0.0085 -0.1631 -0.3721
C10A C -0.2844(3) 0.1681(3) -0.3458(3)
C11A C -0.2785(4) 0.2316(3) -0.4343(3)
C12A C -0.2983(4) 0.3233(3) -0.4500(4)
H12A H -0.2944 0.3667 -0.5100
C13A C -0.3236(4) 0.3535(3) -0.3810(4)
C14A C -0.3286(3) 0.2898(3) -0.2960(3)
H13A H -0.3462 0.3092 -0.2480
C15A C -0.3093(3) 0.1975(3) -0.2760(3)
C16A C -0.2509(6) 0.2034(5) -0.5120(4)
H14A H -0.1914 0.1736 -0.5051
H15A H -0.2893 0.1612 -0.5130
H16A H -0.2542 0.2570 -0.5685
C17A C -0.3460(6) 0.4530(4) -0.4008(6)
H17A H -0.2987 0.4860 -0.4371
H18A H -0.3990 0.4755 -0.4342
H19A H -0.3551 0.4622 -0.3442
C18A C -0.3114(4) 0.1316(4) -0.1798(3)
H20A H -0.3535 0.0893 -0.1712
H21A H -0.2541 0.0977 -0.1652
H22A H -0.3281 0.1646 -0.1403
C19A C -0.4025(3) -0.2480(3) -0.2370(3)
C20A C -0.4694(3) -0.3023(3) -0.1935(4)
C21A C -0.5115(3) -0.3359(4) -0.2430(5)
H23A H -0.5570 -0.3718 -0.2143
C22A C -0.4895(4) -0.3191(5) -0.3317(5)
C23A C -0.4222(4) -0.2688(4) -0.3730(4)
H24A H -0.4056 -0.2584 -0.4340
C24A C -0.3782(3) -0.2331(3) -0.3274(3)
C25A C -0.4949(4) -0.3215(4) -0.0957(4)
H25A H -0.4451 -0.3528 -0.0590
H26A H -0.5143 -0.2643 -0.0883
H27A H -0.5419 -0.3598 -0.0762
C26A C -0.5386(5) -0.3539(7) -0.3855(7)
H28A H -0.5025 -0.4040 -0.3961
H29A H -0.5919 -0.3753 -0.3516
H30A H -0.5528 -0.3048 -0.4434
C27A C -0.3048(4) -0.1789(3) -0.3762(3)
H31A H -0.2994 -0.1734 -0.4389
H32A H -0.3164 -0.1184 -0.3746
H33A H -0.2509 -0.2097 -0.3468
Ag1A_2 Ag -0.19904(2) 0.74025(2) -0.16734(2)
Ag3A_2 Ag 0.61613(2) -0.03181(2) 0.74031(2)
P1A_2 P -0.13302(7) -0.39824(7) -0.18179(6)
P3A_2 P -0.53618(7) 0.00731(8) -0.28915(7)
C70 C 0.2225(8) 0.1920(8) -0.0975(8)
H76 H 0.2168 0.2370 -0.1592
H77 H 0.1877 0.2153 -0.0558
H78 H 0.2023 0.1357 -0.0926
C71 C 0.3175(6) 0.1732(6) -0.0738(6)
C72 C 0.3433(6) 0.1178(6) 0.0103(6)
H79 H 0.3024 0.0924 0.0581
C73 C 0.4314(7) 0.0997(7) 0.0235(7)
H80 H 0.4505 0.0618 0.0818
C74 C 0.4887(7) 0.1330(6) -0.0413(6)
H81 H 0.5480 0.1204 -0.0280
C75 C 0.4670(7) 0.1843(6) -0.1261(7)
H82 H 0.5099 0.2069 -0.1726
C76 C 0.3782(6) 0.2036(6) -0.1442(6)
H83 H 0.3605 0.2369 -0.2039
C77 C 0.4616(12) 0.4171(12) -0.1974(13)
H84 H 0.4797 0.4275 -0.1465
H85 H 0.4818 0.4629 -0.2539
H86 H 0.4864 0.3567 -0.1939
C78 C 0.3600(9) 0.4240(8) -0.1938(9)
C79 C 0.3231(8) 0.4636(7) -0.2751(8)
H87 H 0.3586 0.4822 -0.3289
C80 C 0.2256(9) 0.4781(9) -0.2800(10)
H88 H 0.1949 0.5053 -0.3337
C81 C 0.1887(10) 0.4453(9) -0.1939(10)
H89 H 0.1277 0.4550 -0.1865
C82 C 0.2353(13) 0.3991(12) -0.1174(13)
H90 H 0.2056 0.3674 -0.0621
C83 C 0.3219(12) 0.3980(11) -0.1195(13)
H91 H 0.3519 0.3780 -0.0657
loop_
_geom_bond_atom_site_label_1
_geom_bond_atom_site_label_2
_geom_bond_site_symmetry_1
_geom_bond_site_symmetry_2
Ag1 P1 1_555 1_555
Ag2 P2 1_555 1_555
Ag3 P3 1_555 1_555
P1 C28 1_555 1_555
P2 C42 1_555 1_555
P3 C56 1_555 1_555
S1 Ag1 1_555 1_555
S2 Ag2 1_555 1_555
S3 Ag1 1_555 1_555
C1 S1 1_555 1_555
C2 C1 1_555 1_555
C3 C2 1_555 1_555
H1 C3 1_555 1_555
C4 C3 1_555 1_555
C5 C4 1_555 1_555
H2 C5 1_555 1_555
C6 C1 1_555 1_555
C7 C2 1_555 1_555
H3 C7 1_555 1_555
H4 C7 1_555 1_555
H5 C7 1_555 1_555
C8 C4 1_555 1_555
H6 C8 1_555 1_555
H7 C8 1_555 1_555
H8 C8 1_555 1_555
C9 C6 1_555 1_555
H9 C9 1_555 1_555
H10 C9 1_555 1_555
H11 C9 1_555 1_555
C10 S2 1_555 1_555
C11 C10 1_555 1_555
C12 C11 1_555 1_555
H12 C12 1_555 1_555
C13 C12 1_555 1_555
C14 C13 1_555 1_555
H13 C14 1_555 1_555
C15 C10 1_555 1_555
C16 C11 1_555 1_555
H14 C16 1_555 1_555
H15 C16 1_555 1_555
H16 C16 1_555 1_555
C17 C13 1_555 1_555
H17 C17 1_555 1_555
H18 C17 1_555 1_555
H19 C17 1_555 1_555
C18 C15 1_555 1_555
H20 C18 1_555 1_555
H21 C18 1_555 1_555
H22 C18 1_555 1_555
C19 S3 1_555 1_555
C20 C19 1_555 1_555
C21 C20 1_555 1_555
H23 C21 1_555 1_555
C22 C21 1_555 1_555
C23 C22 1_555 1_555
H24 C23 1_555 1_555
C24 C19 1_555 1_555
C25 C20 1_555 1_555
H25 C25 1_555 1_555
H26 C25 1_555 1_555
H27 C25 1_555 1_555
C26 C22 1_555 1_555
H28 C26 1_555 1_555
H29 C26 1_555 1_555
H30 C26 1_555 1_555
C27 C24 1_555 1_555
H31 C27 1_555 1_555
H32 C27 1_555 1_555
H33 C27 1_555 1_555
C28 H34 1_555 1_555
H35 C28 1_555 1_555
C29 C28 1_555 1_555
H36 C29 1_555 1_555
H37 C29 1_555 1_555
C30 P1 1_555 1_555
C31 C30 1_555 1_555
H38 C31 1_555 1_555
C32 C31 1_555 1_555
H39 C32 1_555 1_555
C33 C32 1_555 1_555
H40 C33 1_555 1_555
C34 C33 1_555 1_555
H41 C34 1_555 1_555
C35 C30 1_555 1_555
H42 C35 1_555 1_555
C36 P1 1_555 1_555
C37 C36 1_555 1_555
H43 C37 1_555 1_555
C38 C37 1_555 1_555
H44 C38 1_555 1_555
C39 C38 1_555 1_555
H45 C39 1_555 1_555
C40 C39 1_555 1_555
H46 C40 1_555 1_555
C41 C36 1_555 1_555
H47 C41 1_555 1_555
C42 H48 1_555 1_555
H49 C42 1_555 1_555
C43 C42 1_555 1_555
H50 C43 1_555 1_555
H51 C43 1_555 1_555
C44 P2 1_555 1_555
C45 C44 1_555 1_555
H52 C45 1_555 1_555
C46 C45 1_555 1_555
H53 C46 1_555 1_555
C47 C46 1_555 1_555
H54 C47 1_555 1_555
C48 C47 1_555 1_555
H55 C48 1_555 1_555
C49 C44 1_555 1_555
H56 C49 1_555 1_555
C50 P2 1_555 1_555
C51 C50 1_555 1_555
H57 C51 1_555 1_555
C52 C51 1_555 1_555
H58 C52 1_555 1_555
C53 C52 1_555 1_555
H59 C53 1_555 1_555
C54 C53 1_555 1_555
H60 C54 1_555 1_555
C55 C50 1_555 1_555
H61 C55 1_555 1_555
C56 H62 1_555 1_555
H63 C56 1_555 1_555
C57 C56 1_555 1_555
H64 C57 1_555 1_555
H65 C57 1_555 1_555
C58 P3 1_555 1_555
C59 C58 1_555 1_555
H66 C59 1_555 1_555
C60 C59 1_555 1_555
H67 C60 1_555 1_555
C61 C60 1_555 1_555
H68 C61 1_555 1_555
C62 C61 1_555 1_555
H69 C62 1_555 1_555
C63 C58 1_555 1_555
H70 C63 1_555 1_555
C64 P3 1_555 1_555
C65 C64 1_555 1_555
H71 C65 1_555 1_555
C66 C65 1_555 1_555
H72 C66 1_555 1_555
C67 C66 1_555 1_555
H73 C67 1_555 1_555
C68 C67 1_555 1_555
H74 C68 1_555 1_555
C69 C64 1_555 1_555
H75 C69 1_555 1_555
C70 H76 1_555 1_555
H77 C70 1_555 1_555
H78 C70 1_555 1_555
C71 C70 1_555 1_555
C72 C71 1_555 1_555
H79 C72 1_555 1_555
C73 C72 1_555 1_555
H80 C73 1_555 1_555
C74 C73 1_555 1_555
H81 C74 1_555 1_555
C75 C74 1_555 1_555
H82 C75 1_555 1_555
C76 C71 1_555 1_555
H83 C76 1_555 1_555
C77 H84 1_555 1_555
H85 C77 1_555 1_555
H86 C77 1_555 1_555
C78 C77 1_555 1_555
C79 C78 1_555 1_555
H87 C79 1_555 1_555
C80 C79 1_555 1_555
H88 C80 1_555 1_555
C81 C80 1_555 1_555
H89 C81 1_555 1_555
C82 C81 1_555 1_555
H90 C82 1_555 1_555
C83 C78 1_555 1_555
H91 C83 1_555 1_555
P1A C28A 1_555 1_555
C28A H34A 1_555 1_555
H35A C28A 1_555 1_555
C29A C29 1_555 1_555
H36A C29A 1_555 1_555
H37A C29A 1_555 1_555
C30A P1A 1_555 1_555
C31A C30A 1_555 1_555
H38A C31A 1_555 1_555
C32A C31A 1_555 1_555
H39A C32A 1_555 1_555
C33A C32A 1_555 1_555
H40A C33A 1_555 1_555
C34A C33A 1_555 1_555
H41A C34A 1_555 1_555
C35A C30A 1_555 1_555
H42A C35A 1_555 1_555
C36A P1A 1_555 1_555
C37A C36A 1_555 1_555
H43A C37A 1_555 1_555
C38A C37A 1_555 1_555
H44A C38A 1_555 1_555
C39A C38A 1_555 1_555
H45A C39A 1_555 1_555
C40A C39A 1_555 1_555
H46A C40A 1_555 1_555
C41A C36A 1_555 1_555
H47A C41A 1_555 1_555
P2A C42A 1_555 1_555
C42A H48A 1_555 1_555
H49A C42A 1_555 1_555
C43A C43 1_555 1_555
H50A C43A 1_555 1_555
H51A C43A 1_555 1_555
C44A P2A 1_555 1_555
C45A C44A 1_555 1_555
H52A C45A 1_555 1_555
C46A C45A 1_555 1_555
H53A C46A 1_555 1_555
C47A C46A 1_555 1_555
H54A C47A 1_555 1_555
C48A C47A 1_555 1_555
H55A C48A 1_555 1_555
C49A C44A 1_555 1_555
H56A C49A 1_555 1_555
C50A P2A 1_555 1_555
C51A C50A 1_555 1_555
H57A C51A 1_555 1_555
C52A C51A 1_555 1_555
H58A C52A 1_555 1_555
C53A C52A 1_555 1_555
H59A C53A 1_555 1_555
C54A C53A 1_555 1_555
H60A C54A 1_555 1_555
C55A C50A 1_555 1_555
H61A C55A 1_555 1_555
P3A C56A 1_555 1_555
C56A H62A 1_555 1_555
H63A C56A 1_555 1_555
C57A C57 1_555 1_555
H64A C57A 1_555 1_555
H65A C57A 1_555 1_555
C58A P3A 1_555 1_555
C59A C58A 1_555 1_555
H66A C59A 1_555 1_555
C60A C59A 1_555 1_555
H67A C60A 1_555 1_555
C61A C60A 1_555 1_555
H68A C61A 1_555 1_555
C62A C61A 1_555 1_555
H69A C62A 1_555 1_555
C63A C58A 1_555 1_555
H70A C63A 1_555 1_555
C64A P3A 1_555 1_555
C65A C64A 1_555 1_555
H71A C65A 1_555 1_555
C66A C65A 1_555 1_555
H72A C66A 1_555 1_555
C67A C66A 1_555 1_555
H73A C67A 1_555 1_555
C68A C67A 1_555 1_555
H74A C68A 1_555 1_555
C69A C64A 1_555 1_555
H75A C69A 1_555 1_555
Ag1A S1A 1_555 1_555
Ag2A P2A 1_555 1_555
Ag3A S2A 1_555 1_555
S1A Ag2A 1_555 1_555
S2A Ag2A 1_555 1_555
S3A Ag1A 1_555 1_555
C1A S1A 1_555 1_555
C2A C1A 1_555 1_555
C3A C2A 1_555 1_555
H1A C3A 1_555 1_555
C4A C3A 1_555 1_555
C5A C4A 1_555 1_555
H2A C5A 1_555 1_555
C6A C1A 1_555 1_555
C7A C2A 1_555 1_555
H3A C7A 1_555 1_555
H4A C7A 1_555 1_555
H5A C7A 1_555 1_555
C8A C4A 1_555 1_555
H6A C8A 1_555 1_555
H7A C8A 1_555 1_555
H8A C8A 1_555 1_555
C9A C6A 1_555 1_555
H9A C9A 1_555 1_555
H10A C9A 1_555 1_555
H11A C9A 1_555 1_555
C10A S2A 1_555 1_555
C11A C10A 1_555 1_555
C12A C11A 1_555 1_555
H12A C12A 1_555 1_555
C13A C12A 1_555 1_555
C14A C13A 1_555 1_555
H13A C14A 1_555 1_555
C15A C10A 1_555 1_555
C16A C11A 1_555 1_555
H14A C16A 1_555 1_555
H15A C16A 1_555 1_555
H16A C16A 1_555 1_555
C17A C13A 1_555 1_555
H17A C17A 1_555 1_555
H18A C17A 1_555 1_555
H19A C17A 1_555 1_555
C18A C15A 1_555 1_555
H20A C18A 1_555 1_555
H21A C18A 1_555 1_555
H22A C18A 1_555 1_555
C19A S3A 1_555 1_555
C20A C19A 1_555 1_555
C21A C20A 1_555 1_555
H23A C21A 1_555 1_555
C22A C21A 1_555 1_555
C23A C22A 1_555 1_555
H24A C23A 1_555 1_555
C24A C19A 1_555 1_555
C25A C20A 1_555 1_555
H25A C25A 1_555 1_555
H26A C25A 1_555 1_555
H27A C25A 1_555 1_555
C26A C22A 1_555 1_555
H28A C26A 1_555 1_555
H29A C26A 1_555 1_555
H30A C26A 1_555 1_555
C27A C24A 1_555 1_555
H31A C27A 1_555 1_555
H32A C27A 1_555 1_555
H33A C27A 1_555 1_555
Ag1A_2 P1A 1_555 1_555
Ag3A_2 P3A 1_555 1_555
P1A_2 Ag1A 1_555 1_555
P3A_2 Ag3A 1_555 1_555
Ag2 S1 1_555 1_555
Ag3 S2 1_555 1_555
Ag3 S3 1_555 1_555
C5 C6 1_555 1_555
C14 C15 1_555 1_555
C23 C24 1_555 1_555
C34 C35 1_555 1_555
C40 C41 1_555 1_555
C48 C49 1_555 1_555
C54 C55 1_555 1_555
C62 C63 1_555 1_555
C68 C69 1_555 1_555
C75 C76 1_555 1_555
C82 C83 1_555 1_555
C28A C29A 1_555 1_555
C34A C35A 1_555 1_555
C40A C41A 1_555 1_555
C42A C43A 1_555 1_555
C48A C49A 1_555 1_555
C54A C55A 1_555 1_555
C56A C57A 1_555 1_555
C62A C63A 1_555 1_555
C68A C69A 1_555 1_555
Ag3A S3A 1_555 1_555
C5A C6A 1_555 1_555
C14A C15A 1_555 1_555
C23A C24A 1_555 1_555

#END
