
#######################################################################
#
#                 Cambridge Crystallographic Data Centre
#                                CCDC 
#
#######################################################################
#
# If this CIF has been generated from an entry in the Cambridge 
# Structural Database, then it will include bibliographic, chemical, 
# crystal, experimental, refinement or atomic coordinate data resulting 
# from the CCDC's data processing and validation procedures.
#
#######################################################################

data_YOMZIL
_symmetry_cell_setting           triclinic
_symmetry_space_group_name_H-M   'P -1'
_symmetry_Int_Tables_number      2
_space_group_name_Hall           '-P 1'
loop_
_symmetry_equiv_pos_site_id
_symmetry_equiv_pos_as_xyz
1 x,y,z
2 -x,-y,-z
_cell_length_a                   16.2893(4)
_cell_length_b                   16.7991(5)
_cell_length_c                   17.4829(5)
_cell_angle_alpha                86.419(2)
_cell_angle_beta                 87.725(2)
_cell_angle_gamma                66.905(2)
_cell_volume                     4391.5
loop_
_atom_site_label
_atom_site_type_symbol
_atom_site_fract_x
_atom_site_fract_y
_atom_site_fract_z
Ag1 Ag 0.77904(2) 0.07106(2) 0.14922(2)
Ag2 Ag 0.60357(2) 0.29885(2) 0.20186(2)
Ag3 Ag 0.73149(2) 0.09990(2) 0.39054(2)
S1 S 0.72035(4) 0.22555(4) 0.10260(3)
S2 S 0.84658(4) 0.04202(4) 0.27879(3)
S3 S 0.59986(4) 0.19271(4) 0.30620(3)
P1 P 0.77354(3) 0.12101(4) 0.51875(3)
P2 P 0.71244(3) -0.04593(3) 0.42098(3)
P3 P 0.81842(4) -0.04608(4) 0.06126(3)
P4 P 0.49932(4) 0.44823(4) 0.19426(3)
C1 C 0.69369(14) 0.10307(14) 0.58670(11)
C2 C 0.60358(14) 0.15000(15) 0.57268(13)
H1 H 0.5863 0.1904 0.5299
C3 C 0.53853(16) 0.13842(16) 0.62056(14)
H2 H 0.4772 0.1716 0.6110
C4 C 0.56302(17) 0.07889(17) 0.68172(14)
H3 H 0.5185 0.0704 0.7139
C5 C 0.65235(18) 0.03138(17) 0.69645(13)
H4 H 0.6690 -0.0095 0.7389
C6 C 0.71821(16) 0.04325(16) 0.64903(12)
H5 H 0.7795 0.0106 0.6593
C7 C 0.77962(13) 0.21932(14) 0.55417(12)
C8 C 0.77609(15) 0.28703(16) 0.50335(14)
H6 H 0.7709 0.2826 0.4500
C9 C 0.7802(2) 0.36141(18) 0.53010(18)
H7 H 0.7772 0.4079 0.4950
C10 C 0.78848(19) 0.36817(19) 0.60714(18)
H8 H 0.7915 0.4192 0.6251
C11 C 0.79241(17) 0.30141(19) 0.65797(16)
H9 H 0.7982 0.3061 0.7112
C12 C 0.78790(15) 0.22705(16) 0.63201(13)
H10 H 0.7905 0.1810 0.6675
C13 C 0.88143(13) 0.03637(14) 0.54631(12)
H11 H 0.8974 0.0473 0.5976
H12 H 0.8765 -0.0207 0.5496
C14 C 0.95502(13) 0.03422(14) 0.48829(12)
H13 H 0.9397 0.0219 0.4373
H14 H 0.9588 0.0917 0.4840
C15 C 0.69201(14) -0.09464(14) 0.33670(12)
C16 C 0.66090(15) -0.04202(16) 0.27039(13)
H15 H 0.6523 0.0173 0.2695
C17 C 0.64239(17) -0.07555(19) 0.20565(14)
H16 H 0.6211 -0.0392 0.1609
C18 C 0.65493(18) -0.1617(2) 0.20650(16)
H17 H 0.6423 -0.1847 0.1622
C19 C 0.68578(19) -0.21464(19) 0.27148(18)
H18 H 0.6944 -0.2740 0.2719
C20 C 0.70432(17) -0.18142(16) 0.33631(15)
H19 H 0.7256 -0.2183 0.3808
C21 C 0.81580(14) -0.12811(14) 0.45894(13)
C22 C 0.82305(16) -0.16454(16) 0.53345(14)
H20 H 0.7711 -0.1515 0.5650
C23 C 0.90516(18) -0.21960(19) 0.56199(17)
H21 H 0.9092 -0.2439 0.6129
C24 C 0.98145(17) -0.23928(19) 0.51635(18)
H22 H 1.0378 -0.2769 0.5360
C25 C 0.97532(16) -0.20428(18) 0.44289(18)
H23 H 1.0276 -0.2182 0.4116
C26 C 0.89347(16) -0.14863(16) 0.41361(15)
H24 H 0.8902 -0.1244 0.3627
C27 C 0.62855(13) -0.05493(14) 0.49083(12)
H25 H 0.6331 -0.1156 0.4944
H26 H 0.6418 -0.0409 0.5419
C28 C 0.53351(13) 0.00473(13) 0.46996(11)
H27 H 0.5194 -0.0095 0.4193
H28 H 0.5284 0.0655 0.4663
C29 C 0.73681(14) -0.06094(15) 0.00140(12)
C30 C 0.68076(17) 0.01046(17) -0.04165(15)
H29 H 0.6865 0.0644 -0.0396
C31 C 0.61669(18) 0.00415(19) -0.08758(16)
H30 H 0.5786 0.0538 -0.1165
C32 C 0.60765(19) -0.0733(2) -0.09169(17)
H31 H 0.5634 -0.0775 -0.1232
C33 C 0.6636(2) -0.1453(2) -0.0495(2)
H32 H 0.6581 -0.1993 -0.0527
C34 C 0.72765(18) -0.13963(19) -0.00279(17)
H33 H 0.7653 -0.1893 0.0264
C35 C 0.88497(14) -0.15404(15) 0.10150(13)
C36 C 0.88045(17) -0.16942(18) 0.17996(14)
H34 H 0.8433 -0.1241 0.2109
C37 C 0.9294(2) -0.2502(2) 0.21383(17)
H35 H 0.9256 -0.2599 0.2677
C38 C 0.98349(19) -0.31618(19) 0.16987(18)
H36 H 1.0167 -0.3716 0.1933
C39 C 0.98960(18) -0.30203(19) 0.09174(17)
H37 H 1.0272 -0.3476 0.0613
C40 C 0.94088(17) -0.22132(18) 0.05770(15)
H38 H 0.9456 -0.2117 0.0039
C41 C 0.89364(15) -0.02402(17) -0.01032(12)
H39 H 0.9190 -0.0732 -0.0443
H40 H 0.8596 0.0286 -0.0423
C42 C 0.96925(15) -0.01095(17) 0.02900(12)
H41 H 0.9436 0.0366 0.0647
H42 H 1.0045 -0.0645 0.0594
C43 C 0.50785(16) 0.51368(14) 0.26999(12)
C44 C 0.43795(19) 0.55457(18) 0.32052(14)
H43 H 0.3828 0.5482 0.3167
C45 C 0.4485(2) 0.6044(2) 0.37623(16)
H44 H 0.4002 0.6323 0.4103
C46 C 0.5272(2) 0.61396(18) 0.38299(16)
H45 H 0.5333 0.6494 0.4208
C47 C 0.5984(2) 0.5717(2) 0.33435(17)
H46 H 0.6536 0.5774 0.3394
C48 C 0.58896(18) 0.52111(18) 0.27830(14)
H47 H 0.6381 0.4915 0.2456
C49 C 0.38250(15) 0.46276(15) 0.19258(12)
C50 C 0.36084(18) 0.39265(19) 0.21336(16)
H48 H 0.4061 0.3392 0.2304
C51 C 0.2732(2) 0.3999(2) 0.2094(2)
H49 H 0.2586 0.3516 0.2244
C52 C 0.2074(2) 0.4767(2) 0.1840(2)
H50 H 0.1478 0.4810 0.1805
C53 C 0.22787(19) 0.5473(2) 0.16350(19)
H51 H 0.1823 0.6006 0.1468
C54 C 0.31486(18) 0.54027(18) 0.16740(17)
H52 H 0.3289 0.5889 0.1527
C55 C 0.51045(16) 0.51171(14) 0.10832(12)
H53 H 0.4648 0.5715 0.1102
H54 H 0.5700 0.5148 0.1074
C56 C 0.49937(17) 0.47190(15) 0.03573(12)
H55 H 0.4421 0.4641 0.0388
H56 H 0.5482 0.4140 0.0318
C57 C 0.67253(16) 0.23017(14) 0.01231(12)
C58 C 0.58782(17) 0.22834(15) 0.00450(14)
C59 C 0.5535(2) 0.23483(17) -0.06853(16)
H57 H 0.4951 0.2360 -0.0732
C60 C 0.6018(2) 0.23962(16) -0.13438(15)
C61 C 0.6862(2) 0.23799(17) -0.12582(14)
H58 H 0.7208 0.2395 -0.1706
C62 C 0.72310(18) 0.23428(15) -0.05462(13)
C63 C 0.53379(19) 0.2165(2) 0.07236(17)
H59 H 0.5717 0.1685 0.1062
H60 H 0.4842 0.2035 0.0549
H61 H 0.5101 0.2699 0.1004
C64 C 0.5612(3) 0.2470(2) -0.21243(18)
H62 H 0.5245 0.2125 -0.2112
H63 H 0.6090 0.2253 -0.2510
H64 H 0.5239 0.3078 -0.2255
C65 C 0.8143(2) 0.2343(2) -0.05020(16)
H65 H 0.8101 0.2891 -0.0302
H66 H 0.8419 0.2281 -0.1015
H67 H 0.8507 0.1859 -0.0160
C66 C 0.93346(14) 0.07984(16) 0.26062(11)
C67 C 0.91918(16) 0.16758(17) 0.26411(13)
C68 C 0.98957(18) 0.1936(2) 0.24809(15)
H68 H 0.9794 0.2530 0.2512
C69 C 1.07424(18) 0.1356(2) 0.22764(16)
C70 C 1.08714(16) 0.0495(2) 0.22404(14)
H69 H 1.1445 0.0091 0.2095
C71 C 1.01974(15) 0.01966(17) 0.24078(12)
C72 C 0.82849(17) 0.23466(17) 0.28271(15)
H70 H 0.7867 0.2380 0.2426
H71 H 0.8324 0.2912 0.2855
H72 H 0.8072 0.2185 0.3321
C73 C 1.1500(2) 0.1651(3) 0.2104(2)
H73 H 1.1256 0.2263 0.1929
H74 H 1.1889 0.1304 0.1702
H75 H 1.1845 0.1576 0.2569
C74 C 1.03857(17) -0.07471(18) 0.23659(15)
H76 H 1.0309 -0.0987 0.2876
H77 H 1.1000 -0.1053 0.2183
H78 H 0.9971 -0.0818 0.2011
C75 C 0.49736(14) 0.24707(14) 0.35550(12)
C76 C 0.48504(16) 0.31777(15) 0.40044(12)
C77 C 0.40161(18) 0.36182(18) 0.43395(15)
H79 H 0.3929 0.4109 0.4625
C78 C 0.3313(2) 0.3367(2) 0.4271(2)
C79 C 0.34498(18) 0.26688(19) 0.38244(19)
H80 H 0.2970 0.2491 0.3767
C80 C 0.42541(17) 0.22222(16) 0.34611(15)
C81 C 0.55956(17) 0.34594(17) 0.41228(13)
H81 H 0.6063 0.3005 0.4421
H82 H 0.5370 0.3995 0.4400
H83 H 0.5843 0.3563 0.3624
C82 C 0.2420(3) 0.3849(3) 0.4658(3)
H84 H 0.2514 0.4088 0.5129
H85 H 0.2124 0.3450 0.4785
H86 H 0.2046 0.4322 0.4311
C83 C 0.4334(2) 0.15129(19) 0.29481(18)
H87 H 0.4459 0.1674 0.2421
H88 H 0.3773 0.1425 0.2965
H89 H 0.4821 0.0976 0.3122
P1A P 1.22646(3) -0.12101(4) 0.48125(3)
C1A C 1.30631(14) -0.10307(14) 0.41330(11)
C2A C 1.39642(14) -0.15000(15) 0.42732(13)
H1A H 1.4137 -0.1904 0.4701
C3A C 1.46147(16) -0.13842(16) 0.37944(14)
H2A H 1.5228 -0.1716 0.3890
C4A C 1.43698(17) -0.07889(17) 0.31828(14)
H3A H 1.4815 -0.0704 0.2861
C5A C 1.34765(18) -0.03138(17) 0.30355(13)
H4A H 1.3310 0.0095 0.2611
C6A C 1.28179(16) -0.04325(16) 0.35097(12)
H5A H 1.2205 -0.0106 0.3407
C7A C 1.22038(13) -0.21932(14) 0.44583(12)
C8A C 1.22391(15) -0.28703(16) 0.49665(14)
H6A H 1.2291 -0.2826 0.5500
C9A C 1.2198(2) -0.36141(18) 0.46990(18)
H7A H 1.2228 -0.4079 0.5050
C10A C 1.21152(19) -0.36817(19) 0.39286(18)
H8A H 1.2085 -0.4192 0.3749
C11A C 1.20759(17) -0.30141(19) 0.34203(16)
H9A H 1.2018 -0.3061 0.2888
C12A C 1.21210(15) -0.22705(16) 0.36799(13)
H10A H 1.2095 -0.1810 0.3325
C13A C 1.11857(13) -0.03637(14) 0.45369(12)
H11A H 1.1026 -0.0473 0.4024
H12A H 1.1235 0.0207 0.4504
C14A C 1.04498(13) -0.03422(14) 0.51171(12)
H13A H 1.0603 -0.0219 0.5627
H14A H 1.0412 -0.0917 0.5160
P2A P 0.28756(3) 0.04593(3) 0.57902(3)
C15A C 0.30799(14) 0.09464(14) 0.66330(12)
C16A C 0.33910(15) 0.04202(16) 0.72961(13)
H15A H 0.3477 -0.0173 0.7305
C17A C 0.35761(17) 0.07555(19) 0.79435(14)
H16A H 0.3789 0.0392 0.8391
C18A C 0.34507(18) 0.1617(2) 0.79350(16)
H17A H 0.3577 0.1847 0.8378
C19A C 0.31422(19) 0.21464(19) 0.72852(18)
H18A H 0.3056 0.2740 0.7281
C20A C 0.29568(17) 0.18142(16) 0.66369(15)
H19A H 0.2744 0.2183 0.6192
C21A C 0.18420(14) 0.12811(14) 0.54106(13)
C22A C 0.17695(16) 0.16454(16) 0.46655(14)
H20A H 0.2289 0.1515 0.4350
C23A C 0.09484(18) 0.21960(19) 0.43801(17)
H21A H 0.0908 0.2439 0.3871
C24A C 0.01855(17) 0.23928(19) 0.48365(18)
H22A H -0.0378 0.2769 0.4640
C25A C 0.02468(16) 0.20428(18) 0.55711(18)
H23A H -0.0276 0.2182 0.5884
C26A C 0.10653(16) 0.14863(16) 0.58639(15)
H24A H 0.1098 0.1244 0.6373
C27A C 0.37145(13) 0.05493(14) 0.50917(12)
H25A H 0.3669 0.1156 0.5056
H26A H 0.3582 0.0409 0.4581
C28A C 0.46649(13) -0.00473(13) 0.53004(11)
H27A H 0.4806 0.0095 0.5807
H28A H 0.4716 -0.0655 0.5337
P3A P 1.18158(4) 0.04608(4) -0.06126(3)
C29A C 1.26319(14) 0.06094(15) -0.00140(12)
C30A C 1.31924(17) -0.01046(17) 0.04165(15)
H29A H 1.3135 -0.0644 0.0396
C31A C 1.38331(18) -0.00415(19) 0.08758(16)
H30A H 1.4214 -0.0538 0.1165
C32A C 1.39235(19) 0.0733(2) 0.09169(17)
H31A H 1.4366 0.0775 0.1232
C33A C 1.3364(2) 0.1453(2) 0.0495(2)
H32A H 1.3419 0.1993 0.0527
C34A C 1.27235(18) 0.13963(19) 0.00279(17)
H33A H 1.2347 0.1893 -0.0264
C35A C 1.11503(14) 0.15404(15) -0.10150(13)
C36A C 1.11955(17) 0.16942(18) -0.17996(14)
H34A H 1.1567 0.1241 -0.2109
C37A C 1.0706(2) 0.2502(2) -0.21383(17)
H35A H 1.0744 0.2599 -0.2677
C38A C 1.01651(19) 0.31618(19) -0.16987(18)
H36A H 0.9833 0.3716 -0.1933
C39A C 1.01040(18) 0.30203(19) -0.09174(17)
H37A H 0.9728 0.3476 -0.0613
C40A C 1.05912(17) 0.22132(18) -0.05770(15)
H38A H 1.0544 0.2117 -0.0039
C41A C 1.10636(15) 0.02402(17) 0.01032(12)
H39A H 1.0810 0.0732 0.0443
H40A H 1.1404 -0.0286 0.0423
C42A C 1.03075(15) 0.01095(17) -0.02900(12)
H41A H 1.0564 -0.0366 -0.0647
H42A H 0.9955 0.0645 -0.0594
P4A P 0.50068(4) 0.55177(4) -0.19426(3)
C43A C 0.49215(16) 0.48632(14) -0.26999(12)
C44A C 0.56205(19) 0.44543(18) -0.32052(14)
H43A H 0.6172 0.4518 -0.3167
C45A C 0.5515(2) 0.3956(2) -0.37623(16)
H44A H 0.5998 0.3677 -0.4103
C46A C 0.4728(2) 0.38604(18) -0.38299(16)
H45A H 0.4667 0.3506 -0.4208
C47A C 0.4016(2) 0.4283(2) -0.33435(17)
H46A H 0.3464 0.4226 -0.3394
C48A C 0.41104(18) 0.47889(18) -0.27830(14)
H47A H 0.3619 0.5085 -0.2456
C49A C 0.61750(15) 0.53724(15) -0.19258(12)
C50A C 0.63916(18) 0.60735(19) -0.21336(16)
H48A H 0.5939 0.6608 -0.2304
C51A C 0.7268(2) 0.6001(2) -0.2094(2)
H49A H 0.7414 0.6484 -0.2244
C52A C 0.7926(2) 0.5233(2) -0.1840(2)
H50A H 0.8522 0.5190 -0.1805
C53A C 0.77213(19) 0.4527(2) -0.16350(19)
H51A H 0.8177 0.3994 -0.1468
C54A C 0.68514(18) 0.45973(18) -0.16740(17)
H52A H 0.6711 0.4111 -0.1527
C55A C 0.48955(16) 0.48829(14) -0.10832(12)
H53A H 0.5352 0.4285 -0.1102
H54A H 0.4300 0.4852 -0.1074
C56A C 0.50063(17) 0.52810(15) -0.03573(12)
H55A H 0.5579 0.5359 -0.0388
H56A H 0.4518 0.5860 -0.0318
Ag1A Ag 0.22096(2) -0.07106(2) 0.85078(2)
Ag2A Ag 0.39643(2) -0.29885(2) 0.79814(2)
Ag3A Ag 0.26851(2) -0.09990(2) 0.60946(2)
S1A S 0.27965(4) -0.22555(4) 0.89740(3)
S2A S 0.15342(4) -0.04202(4) 0.72121(3)
S3A S 0.40014(4) -0.19271(4) 0.69380(3)
C57A C 0.32747(16) -0.23017(14) 0.98769(12)
C58A C 0.41218(17) -0.22834(15) 0.99550(14)
C59A C 0.4465(2) -0.23483(17) 1.06853(16)
H57A H 0.5049 -0.2360 1.0732
C60A C 0.3982(2) -0.23962(16) 1.13438(15)
C61A C 0.3138(2) -0.23799(17) 1.12582(14)
H58A H 0.2792 -0.2395 1.1706
C62A C 0.27690(18) -0.23428(15) 1.05462(13)
C63A C 0.46621(19) -0.2165(2) 0.92764(17)
H59A H 0.4283 -0.1685 0.8938
H60A H 0.5158 -0.2035 0.9451
H61A H 0.4899 -0.2699 0.8996
C64A C 0.4388(3) -0.2470(2) 1.21243(18)
H62A H 0.4755 -0.2125 1.2112
H63A H 0.3910 -0.2253 1.2510
H64A H 0.4761 -0.3078 1.2255
C65A C 0.1857(2) -0.2343(2) 1.05020(16)
H65A H 0.1899 -0.2891 1.0302
H66A H 0.1581 -0.2281 1.1015
H67A H 0.1493 -0.1859 1.0160
C66A C 0.06654(14) -0.07984(16) 0.73938(11)
C67A C 0.08082(16) -0.16758(17) 0.73589(13)
C68A C 0.01043(18) -0.1936(2) 0.75191(15)
H68A H 0.0206 -0.2530 0.7488
C69A C -0.07424(18) -0.1356(2) 0.77236(16)
C70A C -0.08714(16) -0.0495(2) 0.77596(14)
H69A H -0.1445 -0.0091 0.7905
C71A C -0.01974(15) -0.01966(17) 0.75922(12)
C72A C 0.17151(17) -0.23466(17) 0.71729(15)
H70A H 0.2133 -0.2380 0.7574
H71A H 0.1676 -0.2912 0.7145
H72A H 0.1928 -0.2185 0.6679
C73A C -0.1500(2) -0.1651(3) 0.7896(2)
H73A H -0.1256 -0.2263 0.8071
H74A H -0.1889 -0.1304 0.8298
H75A H -0.1845 -0.1576 0.7431
C74A C -0.03857(17) 0.07471(18) 0.76341(15)
H76A H -0.0309 0.0987 0.7124
H77A H -0.1000 0.1053 0.7817
H78A H 0.0029 0.0818 0.7989
C75A C 0.50264(14) -0.24707(14) 0.64450(12)
C76A C 0.51496(16) -0.31777(15) 0.59956(12)
C77A C 0.59839(18) -0.36182(18) 0.56605(15)
H79A H 0.6071 -0.4109 0.5375
C78A C 0.6687(2) -0.3367(2) 0.5729(2)
C79A C 0.65502(18) -0.26688(19) 0.61756(19)
H80A H 0.7030 -0.2491 0.6233
C80A C 0.57459(17) -0.22222(16) 0.65389(15)
C81A C 0.44044(17) -0.34594(17) 0.58772(13)
H81A H 0.3937 -0.3005 0.5579
H82A H 0.4630 -0.3995 0.5600
H83A H 0.4157 -0.3563 0.6376
C82A C 0.7580(3) -0.3849(3) 0.5342(3)
H84A H 0.7486 -0.4088 0.4871
H85A H 0.7876 -0.3450 0.5215
H86A H 0.7954 -0.4322 0.5689
C83A C 0.5666(2) -0.15129(19) 0.70519(18)
H87A H 0.5541 -0.1674 0.7579
H88A H 0.6227 -0.1425 0.7035
H89A H 0.5179 -0.0976 0.6878
Ag1A_2 Ag 1.22096(2) -0.07106(2) -0.14922(2)
Ag2A_2 Ag 0.39643(2) 0.70115(2) -0.20186(2)
Ag3A_2 Ag 1.26851(2) -0.09990(2) 0.60946(2)
P1A_2 P 0.22646(3) -0.12101(4) 0.48125(3)
P3A_2 P 0.18158(4) 0.04608(4) 0.93874(3)
P4A_2 P 0.50068(4) -0.44823(4) 0.80574(3)
C84 C 0.8538(7) 0.4619(7) 0.2901(6)
H90 H 0.8911 0.4107 0.2625
H91 H 0.8117 0.5044 0.2546
H92 H 0.8207 0.4450 0.3315
C85 C 0.9084(4) 0.4989(4) 0.3211(4)
C86 C 0.9974(5) 0.4590(5) 0.3130(4)
H93 H 1.0221 0.4067 0.2868
C87 C 1.0536(7) 0.4930(6) 0.3425(5)
H94 H 1.1166 0.4643 0.3377
C88 C 1.0152(6) 0.5705(6) 0.3791(5)
H95 H 1.0528 0.5966 0.3967
C89 C 0.9286(5) 0.6089(5) 0.3904(4)
H96 H 0.9045 0.6600 0.4182
C90 C 0.8733(5) 0.5745(4) 0.3615(4)
H97 H 0.8106 0.6023 0.3691
C98 C 0.7191(8) 0.5948(7) 0.0330(6)
H106 H 0.6926 0.5832 -0.0121
H107 H 0.7384 0.6425 0.0204
H108 H 0.6748 0.6106 0.0750
C99 C 0.7941(5) 0.5192(5) 0.0561(4)
C100 C 0.7893(4) 0.4368(3) 0.0726(3)
H109 H 0.7352 0.4287 0.0679
C101 C 0.8662(3) 0.3701(3) 0.0954(2)
H110 H 0.8661 0.3143 0.1077
C102 C 0.9453(3) 0.3836(3) 0.1007(3)
H111 H 0.9996 0.3375 0.1151
C103 C 0.9417(5) 0.4639(5) 0.0848(4)
H112 H 0.9953 0.4728 0.0894
C104 C 0.8715(4) 0.5300(4) 0.0639(3)
H113 H 0.8741 0.5852 0.0540
C91? C 0.9873(8) 0.5701(8) 0.4361(7)
H98? H 1.0046 0.5307 0.4818
H99? H 0.9471 0.6279 0.4512
H100? H 1.0408 0.5734 0.4109
C92? C 0.9419(5) 0.5378(5) 0.3834(4)
C93? C 0.9462(6) 0.4532(5) 0.3957(5)
H101? H 0.9807 0.4177 0.4368
C94? C 0.9001(5) 0.4187(6) 0.3482(5)
H102? H 0.9059 0.3606 0.3587
C95? C 0.8411(17) 0.4715(17) 0.2804(14)
H103? H 0.8053 0.4536 0.2496
C96? C 0.8505(7) 0.5456(7) 0.2742(6)
H104? H 0.8254 0.5802 0.2293
C97? C 0.8897(7) 0.5815(7) 0.3205(6)
H105? H 0.8811 0.6403 0.3096
loop_
_geom_bond_atom_site_label_1
_geom_bond_atom_site_label_2
_geom_bond_site_symmetry_1
_geom_bond_site_symmetry_2
Ag1 S1 1_555 1_555
Ag2 S1 1_555 1_555
Ag3 S2 1_555 1_555
S1 C57 1_555 1_555
S2 Ag1 1_555 1_555
S3 Ag2 1_555 1_555
P1 Ag3 1_555 1_555
P2 Ag3 1_555 1_555
P3 Ag1 1_555 1_555
P4 Ag2 1_555 1_555
C1 P1 1_555 1_555
C2 C1 1_555 1_555
H1 C2 1_555 1_555
C3 C2 1_555 1_555
H2 C3 1_555 1_555
C4 C3 1_555 1_555
H3 C4 1_555 1_555
C5 C4 1_555 1_555
H4 C5 1_555 1_555
C6 C1 1_555 1_555
H5 C6 1_555 1_555
C7 P1 1_555 1_555
C8 C7 1_555 1_555
H6 C8 1_555 1_555
C9 C8 1_555 1_555
H7 C9 1_555 1_555
C10 C9 1_555 1_555
H8 C10 1_555 1_555
C11 C10 1_555 1_555
H9 C11 1_555 1_555
C12 C7 1_555 1_555
H10 C12 1_555 1_555
C13 P1 1_555 1_555
H11 C13 1_555 1_555
H12 C13 1_555 1_555
C14 C13 1_555 1_555
H13 C14 1_555 1_555
H14 C14 1_555 1_555
C15 P2 1_555 1_555
C16 C15 1_555 1_555
H15 C16 1_555 1_555
C17 C16 1_555 1_555
H16 C17 1_555 1_555
C18 C17 1_555 1_555
H17 C18 1_555 1_555
C19 C18 1_555 1_555
H18 C19 1_555 1_555
C20 C15 1_555 1_555
H19 C20 1_555 1_555
C21 P2 1_555 1_555
C22 C21 1_555 1_555
H20 C22 1_555 1_555
C23 C22 1_555 1_555
H21 C23 1_555 1_555
C24 C23 1_555 1_555
H22 C24 1_555 1_555
C25 C24 1_555 1_555
H23 C25 1_555 1_555
C26 C21 1_555 1_555
H24 C26 1_555 1_555
C27 P2 1_555 1_555
H25 C27 1_555 1_555
H26 C27 1_555 1_555
C28 C27 1_555 1_555
H27 C28 1_555 1_555
H28 C28 1_555 1_555
C29 P3 1_555 1_555
C30 C29 1_555 1_555
H29 C30 1_555 1_555
C31 C30 1_555 1_555
H30 C31 1_555 1_555
C32 C31 1_555 1_555
H31 C32 1_555 1_555
C33 C32 1_555 1_555
H32 C33 1_555 1_555
C34 C29 1_555 1_555
H33 C34 1_555 1_555
C35 P3 1_555 1_555
C36 C35 1_555 1_555
H34 C36 1_555 1_555
C37 C36 1_555 1_555
H35 C37 1_555 1_555
C38 C37 1_555 1_555
H36 C38 1_555 1_555
C39 C38 1_555 1_555
H37 C39 1_555 1_555
C40 C35 1_555 1_555
H38 C40 1_555 1_555
C41 P3 1_555 1_555
H39 C41 1_555 1_555
H40 C41 1_555 1_555
C42 C41 1_555 1_555
H41 C42 1_555 1_555
H42 C42 1_555 1_555
C43 P4 1_555 1_555
C44 C43 1_555 1_555
H43 C44 1_555 1_555
C45 C44 1_555 1_555
H44 C45 1_555 1_555
C46 C45 1_555 1_555
H45 C46 1_555 1_555
C47 C46 1_555 1_555
H46 C47 1_555 1_555
C48 C43 1_555 1_555
H47 C48 1_555 1_555
C49 P4 1_555 1_555
C50 C49 1_555 1_555
H48 C50 1_555 1_555
C51 C50 1_555 1_555
H49 C51 1_555 1_555
C52 C51 1_555 1_555
H50 C52 1_555 1_555
C53 C52 1_555 1_555
H51 C53 1_555 1_555
C54 C49 1_555 1_555
H52 C54 1_555 1_555
C55 P4 1_555 1_555
H53 C55 1_555 1_555
H54 C55 1_555 1_555
C56 C55 1_555 1_555
H55 C56 1_555 1_555
H56 C56 1_555 1_555
C57 C58 1_555 1_555
C58 C59 1_555 1_555
C59 H57 1_555 1_555
C60 C59 1_555 1_555
C61 C60 1_555 1_555
H58 C61 1_555 1_555
C62 C57 1_555 1_555
C63 C58 1_555 1_555
H59 C63 1_555 1_555
H60 C63 1_555 1_555
H61 C63 1_555 1_555
C64 C60 1_555 1_555
H62 C64 1_555 1_555
H63 C64 1_555 1_555
H64 C64 1_555 1_555
C65 C62 1_555 1_555
H65 C65 1_555 1_555
H66 C65 1_555 1_555
H67 C65 1_555 1_555
C66 S2 1_555 1_555
C67 C66 1_555 1_555
C68 C67 1_555 1_555
H68 C68 1_555 1_555
C69 C68 1_555 1_555
C70 C69 1_555 1_555
H69 C70 1_555 1_555
C71 C66 1_555 1_555
C72 C67 1_555 1_555
H70 C72 1_555 1_555
H71 C72 1_555 1_555
H72 C72 1_555 1_555
C73 C69 1_555 1_555
H73 C73 1_555 1_555
H74 C73 1_555 1_555
H75 C73 1_555 1_555
C74 C71 1_555 1_555
H76 C74 1_555 1_555
H77 C74 1_555 1_555
H78 C74 1_555 1_555
C75 S3 1_555 1_555
C76 C75 1_555 1_555
C77 C76 1_555 1_555
H79 C77 1_555 1_555
C78 C77 1_555 1_555
C79 C78 1_555 1_555
H80 C79 1_555 1_555
C80 C75 1_555 1_555
C81 C76 1_555 1_555
H81 C81 1_555 1_555
H82 C81 1_555 1_555
H83 C81 1_555 1_555
C82 C78 1_555 1_555
H84 C82 1_555 1_555
H85 C82 1_555 1_555
H86 C82 1_555 1_555
C83 C80 1_555 1_555
H87 C83 1_555 1_555
H88 C83 1_555 1_555
H89 C83 1_555 1_555
C84 H90 1_555 1_555
H91 C84 1_555 1_555
H92 C84 1_555 1_555
C85 C84 1_555 1_555
C86 C85 1_555 1_555
H93 C86 1_555 1_555
C87 C86 1_555 1_555
H94 C87 1_555 1_555
C88 C87 1_555 1_555
H95 C88 1_555 1_555
C89 C88 1_555 1_555
H96 C89 1_555 1_555
C90 C85 1_555 1_555
H97 C90 1_555 1_555
C98 H106 1_555 1_555
H107 C98 1_555 1_555
H108 C98 1_555 1_555
C99 C98 1_555 1_555
C100 C99 1_555 1_555
H109 C100 1_555 1_555
C101 C100 1_555 1_555
H110 C101 1_555 1_555
C102 C101 1_555 1_555
H111 C102 1_555 1_555
C103 C102 1_555 1_555
H112 C103 1_555 1_555
C104 C99 1_555 1_555
H113 C104 1_555 1_555
P1A C1A 1_555 1_555
C1A C2A 1_555 1_555
C2A H1A 1_555 1_555
C3A C2A 1_555 1_555
H2A C3A 1_555 1_555
C4A C3A 1_555 1_555
H3A C4A 1_555 1_555
C5A C4A 1_555 1_555
H4A C5A 1_555 1_555
C6A C1A 1_555 1_555
H5A C6A 1_555 1_555
C7A P1A 1_555 1_555
C8A C7A 1_555 1_555
H6A C8A 1_555 1_555
C9A C8A 1_555 1_555
H7A C9A 1_555 1_555
C10A C9A 1_555 1_555
H8A C10A 1_555 1_555
C11A C10A 1_555 1_555
H9A C11A 1_555 1_555
C12A C7A 1_555 1_555
H10A C12A 1_555 1_555
C13A P1A 1_555 1_555
H11A C13A 1_555 1_555
H12A C13A 1_555 1_555
C14A C14 1_555 1_555
H13A C14A 1_555 1_555
H14A C14A 1_555 1_555
P2A C15A 1_555 1_555
C15A C16A 1_555 1_555
C16A H15A 1_555 1_555
C17A C16A 1_555 1_555
H16A C17A 1_555 1_555
C18A C17A 1_555 1_555
H17A C18A 1_555 1_555
C19A C18A 1_555 1_555
H18A C19A 1_555 1_555
C20A C15A 1_555 1_555
H19A C20A 1_555 1_555
C21A P2A 1_555 1_555
C22A C21A 1_555 1_555
H20A C22A 1_555 1_555
C23A C22A 1_555 1_555
H21A C23A 1_555 1_555
C24A C23A 1_555 1_555
H22A C24A 1_555 1_555
C25A C24A 1_555 1_555
H23A C25A 1_555 1_555
C26A C21A 1_555 1_555
H24A C26A 1_555 1_555
C27A P2A 1_555 1_555
H25A C27A 1_555 1_555
H26A C27A 1_555 1_555
C28A C28 1_555 1_555
H27A C28A 1_555 1_555
H28A C28A 1_555 1_555
P3A C29A 1_555 1_555
C29A C30A 1_555 1_555
C30A H29A 1_555 1_555
C31A C30A 1_555 1_555
H30A C31A 1_555 1_555
C32A C31A 1_555 1_555
H31A C32A 1_555 1_555
C33A C32A 1_555 1_555
H32A C33A 1_555 1_555
C34A C29A 1_555 1_555
H33A C34A 1_555 1_555
C35A P3A 1_555 1_555
C36A C35A 1_555 1_555
H34A C36A 1_555 1_555
C37A C36A 1_555 1_555
H35A C37A 1_555 1_555
C38A C37A 1_555 1_555
H36A C38A 1_555 1_555
C39A C38A 1_555 1_555
H37A C39A 1_555 1_555
C40A C35A 1_555 1_555
H38A C40A 1_555 1_555
C41A P3A 1_555 1_555
H39A C41A 1_555 1_555
H40A C41A 1_555 1_555
C42A C42 1_555 1_555
H41A C42A 1_555 1_555
H42A C42A 1_555 1_555
P4A C43A 1_555 1_555
C43A C44A 1_555 1_555
C44A H43A 1_555 1_555
C45A C44A 1_555 1_555
H44A C45A 1_555 1_555
C46A C45A 1_555 1_555
H45A C46A 1_555 1_555
C47A C46A 1_555 1_555
H46A C47A 1_555 1_555
C48A C43A 1_555 1_555
H47A C48A 1_555 1_555
C49A P4A 1_555 1_555
C50A C49A 1_555 1_555
H48A C50A 1_555 1_555
C51A C50A 1_555 1_555
H49A C51A 1_555 1_555
C52A C51A 1_555 1_555
H50A C52A 1_555 1_555
C53A C52A 1_555 1_555
H51A C53A 1_555 1_555
C54A C49A 1_555 1_555
H52A C54A 1_555 1_555
C55A P4A 1_555 1_555
H53A C55A 1_555 1_555
H54A C55A 1_555 1_555
C56A C56 1_555 1_555
H55A C56A 1_555 1_555
H56A C56A 1_555 1_555
Ag1A S1A 1_555 1_555
Ag2A S1A 1_555 1_555
Ag3A P2A 1_555 1_555
S1A C57A 1_555 1_555
S2A Ag1A 1_555 1_555
S3A Ag2A 1_555 1_555
C57A C58A 1_555 1_555
C58A C59A 1_555 1_555
C59A H57A 1_555 1_555
C60A C59A 1_555 1_555
C61A C60A 1_555 1_555
H58A C61A 1_555 1_555
C62A C57A 1_555 1_555
C63A C58A 1_555 1_555
H59A C63A 1_555 1_555
H60A C63A 1_555 1_555
H61A C63A 1_555 1_555
C64A C60A 1_555 1_555
H62A C64A 1_555 1_555
H63A C64A 1_555 1_555
H64A C64A 1_555 1_555
C65A C62A 1_555 1_555
H65A C65A 1_555 1_555
H66A C65A 1_555 1_555
H67A C65A 1_555 1_555
C66A S2A 1_555 1_555
C67A C66A 1_555 1_555
C68A C67A 1_555 1_555
H68A C68A 1_555 1_555
C69A C68A 1_555 1_555
C70A C69A 1_555 1_555
H69A C70A 1_555 1_555
C71A C66A 1_555 1_555
C72A C67A 1_555 1_555
H70A C72A 1_555 1_555
H71A C72A 1_555 1_555
H72A C72A 1_555 1_555
C73A C69A 1_555 1_555
H73A C73A 1_555 1_555
H74A C73A 1_555 1_555
H75A C73A 1_555 1_555
C74A C71A 1_555 1_555
H76A C74A 1_555 1_555
H77A C74A 1_555 1_555
H78A C74A 1_555 1_555
C75A S3A 1_555 1_555
C76A C75A 1_555 1_555
C77A C76A 1_555 1_555
H79A C77A 1_555 1_555
C78A C77A 1_555 1_555
C79A C78A 1_555 1_555
H80A C79A 1_555 1_555
C80A C75A 1_555 1_555
C81A C76A 1_555 1_555
H81A C81A 1_555 1_555
H82A C81A 1_555 1_555
H83A C81A 1_555 1_555
C82A C78A 1_555 1_555
H84A C82A 1_555 1_555
H85A C82A 1_555 1_555
H86A C82A 1_555 1_555
C83A C80A 1_555 1_555
H87A C83A 1_555 1_555
H88A C83A 1_555 1_555
H89A C83A 1_555 1_555
Ag1A_2 P3A 1_555 1_555
Ag2A_2 P4A 1_555 1_555
Ag3A_2 P1A 1_555 1_555
P1A_2 Ag3A 1_555 1_555
P3A_2 Ag1A 1_555 1_555
P4A_2 Ag2A 1_555 1_555
Ag3 S3 1_555 1_555
C5 C6 1_555 1_555
C11 C12 1_555 1_555
C19 C20 1_555 1_555
C25 C26 1_555 1_555
C33 C34 1_555 1_555
C39 C40 1_555 1_555
C47 C48 1_555 1_555
C53 C54 1_555 1_555
C61 C62 1_555 1_555
C70 C71 1_555 1_555
C79 C80 1_555 1_555
C89 C90 1_555 1_555
C103 C104 1_555 1_555
C5A C6A 1_555 1_555
C11A C12A 1_555 1_555
C13A C14A 1_555 1_555
C19A C20A 1_555 1_555
C25A C26A 1_555 1_555
C27A C28A 1_555 1_555
C33A C34A 1_555 1_555
C39A C40A 1_555 1_555
C41A C42A 1_555 1_555
C47A C48A 1_555 1_555
C53A C54A 1_555 1_555
C55A C56A 1_555 1_555
Ag3A S2A 1_555 1_555
Ag3A S3A 1_555 1_555
C61A C62A 1_555 1_555
C70A C71A 1_555 1_555
C79A C80A 1_555 1_555

#END
