
#######################################################################
#
#                 Cambridge Crystallographic Data Centre
#                                CCDC 
#
#######################################################################
#
# If this CIF has been generated from an entry in the Cambridge 
# Structural Database, then it will include bibliographic, chemical, 
# crystal, experimental, refinement or atomic coordinate data resulting 
# from the CCDC's data processing and validation procedures.
#
#######################################################################

data_YOMZUX
_symmetry_cell_setting           triclinic
_symmetry_space_group_name_H-M   'P -1'
_symmetry_Int_Tables_number      2
_space_group_name_Hall           '-P 1'
loop_
_symmetry_equiv_pos_site_id
_symmetry_equiv_pos_as_xyz
1 x,y,z
2 -x,-y,-z
_cell_length_a                   15.558(3)
_cell_length_b                   16.771(3)
_cell_length_c                   19.313(4)
_cell_angle_alpha                85.89(3)
_cell_angle_beta                 76.36(3)
_cell_angle_gamma                73.96(3)
_cell_volume                     4706.32
loop_
_atom_site_label
_atom_site_type_symbol
_atom_site_fract_x
_atom_site_fract_y
_atom_site_fract_z
Ag1 Ag 0.37098(2) 0.49302(2) 0.30293(2)
Ag2 Ag 0.16837(3) 0.71289(2) 0.24366(2)
Ag3 Ag 0.12521(3) 0.45230(3) 0.29339(2)
S1 S 0.25426(8) 0.42002(8) 0.35250(7)
S2 S 0.07429(10) 0.60323(9) 0.26784(8)
S3 S 0.32819(8) 0.64315(8) 0.26688(6)
P1 P 0.09034(9) 0.77917(8) 0.36607(6)
P2 P 0.83329(10) 0.19544(8) -0.13926(6)
P3 P -0.02566(10) 0.62809(10) 0.72788(9)
P4 P 0.53443(8) 0.46127(8) 0.29976(6)
C1 C -0.0211(3) 0.8519(3) 0.3686(2)
C2 C -0.1028(4) 0.8475(3) 0.4156(3)
H1 H -0.1017 0.8067 0.4523
C3 C -0.1855(4) 0.9021(3) 0.4092(3)
H2 H -0.2407 0.8980 0.4414
C4 C -0.1888(4) 0.9623(4) 0.3569(3)
H3 H -0.2457 0.9994 0.3525
C5 C -0.1084(4) 0.9679(4) 0.3112(3)
H4 H -0.1098 1.0095 0.2751
C6 C -0.0264(4) 0.9144(3) 0.3170(3)
H5 H 0.0283 0.9199 0.2850
C7 C 0.1477(3) 0.8397(3) 0.4061(2)
C8 C 0.1015(4) 0.8936(4) 0.4616(3)
H6 H 0.0377 0.9005 0.4801
C9 C 0.1480(4) 0.9383(4) 0.4908(3)
H7 H 0.1160 0.9751 0.5292
C10 C 0.2394(4) 0.9288(4) 0.4638(3)
H8 H 0.2707 0.9603 0.4827
C11 C 0.2865(4) 0.8741(4) 0.4096(3)
H9 H 0.3506 0.8663 0.3922
C12 C 0.2407(4) 0.8304(4) 0.3803(3)
H10 H 0.2734 0.7935 0.3421
C13 C 0.0685(4) 0.7030(3) 0.4362(3)
H11 H 0.0438 0.7312 0.4829
H12 H 0.0221 0.6773 0.4270
C14 C 0.1565(4) 0.6360(4) 0.4386(3)
H13 H 0.2040 0.6626 0.4438
H14 H 0.1786 0.6059 0.3928
C15 C 0.1445(7) 0.5732(6) 0.4998(4)
H15 H 0.1062 0.5403 0.4877
H16 H 0.2060 0.5345 0.4978
C16 C 0.1109(6) 0.5942(7) 0.5652(5)
H17 H 0.0459 0.6253 0.5688
H18 H 0.1426 0.6343 0.5754
C17 C 0.1124(4) 0.5315(5) 0.6252(4)
H19 H 0.1734 0.4906 0.6164
H20 H 0.0661 0.5012 0.6249
C18 C 0.0932(4) 0.5685(4) 0.6981(4)
H21 H 0.1338 0.6051 0.6969
H22 H 0.1079 0.5234 0.7328
C19 C -0.0336(4) 0.7311(4) 0.6865(3)
C20 C -0.1037(4) 0.7684(4) 0.6541(3)
H23 H -0.1469 0.7393 0.6505
C21 C -0.1130(4) 0.8477(4) 0.6264(3)
H24 H -0.1625 0.8733 0.6044
C22 C -0.0490(4) 0.8897(4) 0.6311(3)
H25 H -0.0551 0.9444 0.6123
C23 C 0.0217(5) 0.8532(4) 0.6621(4)
H26 H 0.0662 0.8817 0.6636
C24 C 0.0296(5) 0.7745(4) 0.6915(4)
H27 H 0.0778 0.7501 0.7151
C25 C -0.0341(5) 0.6538(4) 0.8202(4)
C26 C 0.0396(6) 0.6307(5) 0.8538(4)
H28 H 0.0980 0.5997 0.8285
C27 C 0.0275(9) 0.6530(7) 0.9244(5)
H29 H 0.0774 0.6360 0.9474
C28 C -0.0522(11) 0.6971(6) 0.9590(6)
H30 H -0.0584 0.7128 1.0066
C29 C -0.1289(9) 0.7221(6) 0.9289(5)
H31 H -0.1864 0.7538 0.9551
C30 C -0.1176(6) 0.6988(5) 0.8589(5)
H32 H -0.1688 0.7143 0.8373
C31 C 0.8156(4) 0.0972(3) -0.1606(3)
C32 C 0.7388(6) 0.1029(5) -0.1853(4)
H33 H 0.6993 0.1560 -0.1917
C33 C 0.7178(8) 0.0325(6) -0.2012(5)
H34 H 0.6620 0.0369 -0.2150
C34 C 0.7782(7) -0.0442(5) -0.1970(4)
H35 H 0.7664 -0.0922 -0.2116
C35 C 0.8537(6) -0.0512(4) -0.1724(4)
H36 H 0.8939 -0.1044 -0.1678
C36 C 0.8737(5) 0.0198(4) -0.1535(3)
H37 H 0.9270 0.0146 -0.1358
C37 C 0.9400(5) 0.1663(3) -0.1090(3)
C38 C 1.0149(5) 0.1885(4) -0.1509(4)
H38 H 1.0085 0.2184 -0.1938
C39 C 1.1004(6) 0.1684(4) -0.1322(5)
H39 H 1.1514 0.1832 -0.1626
C40 C 1.1088(7) 0.1279(5) -0.0708(6)
H40 H 1.1665 0.1135 -0.0580
C41 C 1.0349(7) 0.1065(5) -0.0255(4)
H41 H 1.0417 0.0796 0.0186
C42 C 0.9506(6) 0.1246(4) -0.0447(3)
H42 H 0.9004 0.1087 -0.0143
C43 C 0.7435(4) 0.2230(3) -0.0565(3)
H43 H 0.6826 0.2376 -0.0687
H44 H 0.7472 0.1736 -0.0249
C44 C 0.7499(4) 0.2945(3) -0.0158(3)
H45 H 0.8102 0.2801 -0.0027
H46 H 0.7460 0.3443 -0.0470
C45 C 0.6742(4) 0.3144(3) 0.0511(3)
H47 H 0.6143 0.3306 0.0374
H48 H 0.6766 0.2636 0.0808
C46 C 0.6792(4) 0.3825(3) 0.0954(3)
H49 H 0.6734 0.4344 0.0668
H50 H 0.7401 0.3677 0.1075
C47 C 0.6049(3) 0.3978(3) 0.1638(2)
H51 H 0.6060 0.3444 0.1895
H52 H 0.5443 0.4190 0.1515
C48 C 0.6158(3) 0.4594(3) 0.2132(2)
H53 H 0.6044 0.5155 0.1914
H54 H 0.6794 0.4432 0.2203
C49 C 0.5539(3) 0.5378(3) 0.3525(2)
C50 C 0.4858(4) 0.5669(4) 0.4124(3)
H55 H 0.4321 0.5476 0.4235
C51 C 0.4959(5) 0.6242(4) 0.4563(3)
H56 H 0.4498 0.6429 0.4981
C52 C 0.5716(5) 0.6539(4) 0.4400(4)
H57 H 0.5779 0.6936 0.4697
C53 C 0.6388(4) 0.6256(4) 0.3799(4)
H58 H 0.6919 0.6458 0.3684
C54 C 0.6299(4) 0.5682(4) 0.3363(3)
H59 H 0.6765 0.5496 0.2948
C55 C 0.5837(3) 0.3635(3) 0.3412(2)
C56 C 0.5330(4) 0.3046(4) 0.3548(3)
H60 H 0.4753 0.3161 0.3423
C57 C 0.5670(5) 0.2294(4) 0.3866(4)
H61 H 0.5322 0.1898 0.3962
C58 C 0.6515(5) 0.2117(4) 0.4043(4)
H62 H 0.6750 0.1597 0.4254
C59 C 0.7019(4) 0.2696(4) 0.3914(3)
H63 H 0.7596 0.2577 0.4040
C60 C 0.6678(4) 0.3451(3) 0.3601(3)
H64 H 0.7025 0.3847 0.3514
C61 C 0.3007(3) 0.3117(3) 0.3456(3)
C62 C 0.2950(3) 0.2624(3) 0.4077(3)
C63 C 0.3275(4) 0.1776(4) 0.4019(3)
H65 H 0.3242 0.1449 0.4442
C64 C 0.3645(4) 0.1380(4) 0.3375(3)
C65 C 0.3710(4) 0.1870(4) 0.2767(3)
H66 H 0.3973 0.1610 0.2316
C66 C 0.3405(3) 0.2722(3) 0.2794(3)
C67 C 0.2493(4) 0.3018(4) 0.4797(3)
H67 H 0.2515 0.2586 0.5167
H68 H 0.1852 0.3310 0.4804
H69 H 0.2815 0.3412 0.4887
C68 C 0.3932(6) 0.0454(4) 0.3323(4)
H70 H 0.4168 0.0294 0.2821
H71 H 0.3402 0.0236 0.3525
H72 H 0.4412 0.0226 0.3587
C69 C 0.3518(4) 0.3214(4) 0.2112(3)
H73 H 0.3807 0.2834 0.1709
H74 H 0.3906 0.3580 0.2130
H75 H 0.2915 0.3548 0.2052
C70 C -0.0067(3) 0.6072(3) 0.2152(3)
C71 C 0.0192(3) 0.5693(3) 0.1487(3)
C72 C -0.0470(4) 0.5679(4) 0.1127(3)
H76 H -0.0287 0.5418 0.0675
C73 C -0.1395(4) 0.6034(4) 0.1402(3)
C74 C -0.1640(4) 0.6439(4) 0.2051(3)
H77 H -0.2270 0.6700 0.2243
C75 C -0.0995(4) 0.6473(3) 0.2427(3)
C76 C 0.1183(4) 0.5300(4) 0.1151(3)
H78 H 0.1228 0.5071 0.0687
H79 H 0.1439 0.4854 0.1461
H80 H 0.1527 0.5720 0.1086
C77 C -0.2108(5) 0.5975(5) 0.1011(4)
H81 H -0.2720 0.6262 0.1284
H82 H -0.2076 0.5391 0.0957
H83 H -0.1992 0.6236 0.0540
C78 C -0.1311(5) 0.6949(4) 0.3109(3)
H84 H -0.0782 0.6919 0.3312
H85 H -0.1752 0.6710 0.3446
H86 H -0.1604 0.7531 0.3014
C79 C 0.4141(3) 0.6438(3) 0.1874(2)
C80 C 0.4752(3) 0.6928(3) 0.1834(2)
C81 C 0.5405(4) 0.6943(3) 0.1206(3)
H87 H 0.5808 0.7285 0.1177
C82 C 0.5484(4) 0.6472(4) 0.0620(3)
C83 C 0.4886(3) 0.5989(3) 0.0667(3)
H88 H 0.4936 0.5666 0.0268
C84 C 0.4206(3) 0.5956(3) 0.1283(3)
C85 C 0.4724(4) 0.7434(4) 0.2460(3)
H89 H 0.5197 0.7735 0.2327
H90 H 0.4839 0.7064 0.2864
H91 H 0.4119 0.7831 0.2595
C86 C 0.6204(4) 0.6498(4) -0.0066(3)
H92 H 0.6157 0.6126 -0.0417
H93 H 0.6817 0.6317 0.0034
H94 H 0.6098 0.7065 -0.0257
C87 C 0.3589(4) 0.5414(3) 0.1305(3)
H95 H 0.3742 0.5135 0.0846
H96 H 0.2950 0.5751 0.1399
H97 H 0.3669 0.4997 0.1684
Ag2A Ag 0.83163(3) 0.28711(2) -0.24366(2)
Ag3A Ag -0.12521(3) 0.54770(3) 0.70661(2)
P2A P 0.16671(10) 0.80456(8) 0.13926(6)
P3A P 0.02566(10) 0.37191(10) 0.27212(9)
C88 C 0.6312(12) 0.0860(12) 0.2244(9)
H98 H 0.6448 0.0341 0.2515
H99 H 0.6098 0.0765 0.1827
H100 H 0.5832 0.1282 0.2547
C89 C 0.7144(6) 0.1146(5) 0.2012(5)
C90 C 0.7833(7) 0.0638(7) 0.1569(5)
H101 H 0.7729 0.0153 0.1419
C91 C 0.8658(8) 0.0768(7) 0.1323(6)
H102 H 0.9138 0.0372 0.1028
C92 C 0.8798(8) 0.1528(7) 0.1520(5)
H103 H 0.9374 0.1650 0.1356
C93 C 0.8138(6) 0.2022(6) 0.1913(5)
H104 H 0.8218 0.2537 0.2020
C94 C 0.7293(7) 0.1860(6) 0.2201(5)
H105 H 0.6829 0.2238 0.2523
C95 C 0.5233(12) 0.1423(11) 0.0427(9)
H106 H 0.5070 0.1553 -0.0036
H107 H 0.5684 0.1715 0.0470
H108 H 0.4681 0.1601 0.0808
C96 C 0.5622(11) 0.0540(10) 0.0484(8)
C97 C 0.6409(10) 0.0175(10) -0.0008(8)
H109 H 0.6687 0.0508 -0.0361
C98 C 0.6800(11) -0.0680(11) 0.0008(8)
H110 H 0.7337 -0.0942 -0.0333
C99 C 0.6370(14) -0.1133(14) 0.0544(11)
H111 H 0.6539 -0.1719 0.0499
C100 C 0.5703(13) -0.0779(12) 0.1149(10)
H112 H 0.5600 -0.1065 0.1590
C101 C 0.5177(12) 0.0078(10) 0.1031(8)
H113 H 0.4575 0.0309 0.1305
C102 C 0.5920(10) 0.8787(10) 0.3715(7)
H114 H 0.5589 0.8631 0.3395
H115 H 0.6459 0.8329 0.3748
H116 H 0.6117 0.9282 0.3526
C103 C 0.5247(9) 0.8982(8) 0.4502(6)
H117 H 0.5467 0.8576 0.4862
H118 H 0.4608 0.8991 0.4501
C104 C 0.5338(9) 0.9955(8) 0.4644(6)
H119 H 0.5962 0.9955 0.4680
H120 H 0.5126 1.0370 0.4287
C102A C 0.4080(10) 1.1213(10) 0.6285(7)
H114A H 0.4411 1.1369 0.6605
H115A H 0.3541 1.1671 0.6252
H116A H 0.3883 1.0718 0.6474
C103A C 0.4753(9) 1.1018(8) 0.5498(6)
H117A H 0.4533 1.1424 0.5138
H118A H 0.5392 1.1009 0.5499
C104A C 0.4662(9) 1.0045(8) 0.5356(6)
H119A H 0.4038 1.0045 0.5320
H120A H 0.4874 0.9630 0.5713
loop_
_geom_bond_atom_site_label_1
_geom_bond_atom_site_label_2
_geom_bond_site_symmetry_1
_geom_bond_site_symmetry_2
Ag1 S1 1_555 1_555
Ag2 S2 1_555 1_555
Ag3 S1 1_555 1_555
S1 C61 1_555 1_555
S2 Ag3 1_555 1_555
S3 Ag1 1_555 1_555
P1 Ag2 1_555 1_555
P2 C31 1_555 1_555
P3 C18 1_555 1_555
P4 Ag1 1_555 1_555
C1 P1 1_555 1_555
C2 C1 1_555 1_555
H1 C2 1_555 1_555
C3 C2 1_555 1_555
H2 C3 1_555 1_555
C4 C3 1_555 1_555
H3 C4 1_555 1_555
C5 C4 1_555 1_555
H4 C5 1_555 1_555
C6 C1 1_555 1_555
H5 C6 1_555 1_555
C7 P1 1_555 1_555
C8 C7 1_555 1_555
H6 C8 1_555 1_555
C9 C8 1_555 1_555
H7 C9 1_555 1_555
C10 C9 1_555 1_555
H8 C10 1_555 1_555
C11 C10 1_555 1_555
H9 C11 1_555 1_555
C12 C7 1_555 1_555
H10 C12 1_555 1_555
C13 P1 1_555 1_555
H11 C13 1_555 1_555
H12 C13 1_555 1_555
C14 C13 1_555 1_555
H13 C14 1_555 1_555
H14 C14 1_555 1_555
C15 C14 1_555 1_555
H15 C15 1_555 1_555
H16 C15 1_555 1_555
C16 C15 1_555 1_555
H17 C16 1_555 1_555
H18 C16 1_555 1_555
C17 C16 1_555 1_555
H19 C17 1_555 1_555
H20 C17 1_555 1_555
C18 C17 1_555 1_555
H21 C18 1_555 1_555
H22 C18 1_555 1_555
C19 P3 1_555 1_555
C20 C19 1_555 1_555
H23 C20 1_555 1_555
C21 C20 1_555 1_555
H24 C21 1_555 1_555
C22 C21 1_555 1_555
H25 C22 1_555 1_555
C23 C22 1_555 1_555
H26 C23 1_555 1_555
C24 C19 1_555 1_555
H27 C24 1_555 1_555
C25 P3 1_555 1_555
C26 C25 1_555 1_555
H28 C26 1_555 1_555
C27 C26 1_555 1_555
H29 C27 1_555 1_555
C28 C27 1_555 1_555
H30 C28 1_555 1_555
C29 C28 1_555 1_555
H31 C29 1_555 1_555
C30 C25 1_555 1_555
H32 C30 1_555 1_555
C31 C32 1_555 1_555
C32 H33 1_555 1_555
C33 C32 1_555 1_555
H34 C33 1_555 1_555
C34 C33 1_555 1_555
H35 C34 1_555 1_555
C35 C34 1_555 1_555
H36 C35 1_555 1_555
C36 C31 1_555 1_555
H37 C36 1_555 1_555
C37 P2 1_555 1_555
C38 C37 1_555 1_555
H38 C38 1_555 1_555
C39 C38 1_555 1_555
H39 C39 1_555 1_555
C40 C39 1_555 1_555
H40 C40 1_555 1_555
C41 C40 1_555 1_555
H41 C41 1_555 1_555
C42 C37 1_555 1_555
H42 C42 1_555 1_555
C43 P2 1_555 1_555
H43 C43 1_555 1_555
H44 C43 1_555 1_555
C44 C43 1_555 1_555
H45 C44 1_555 1_555
H46 C44 1_555 1_555
C45 C44 1_555 1_555
H47 C45 1_555 1_555
H48 C45 1_555 1_555
C46 C45 1_555 1_555
H49 C46 1_555 1_555
H50 C46 1_555 1_555
C47 C46 1_555 1_555
H51 C47 1_555 1_555
H52 C47 1_555 1_555
C48 P4 1_555 1_555
H53 C48 1_555 1_555
H54 C48 1_555 1_555
C49 P4 1_555 1_555
C50 C49 1_555 1_555
H55 C50 1_555 1_555
C51 C50 1_555 1_555
H56 C51 1_555 1_555
C52 C51 1_555 1_555
H57 C52 1_555 1_555
C53 C52 1_555 1_555
H58 C53 1_555 1_555
C54 C49 1_555 1_555
H59 C54 1_555 1_555
C55 P4 1_555 1_555
C56 C55 1_555 1_555
H60 C56 1_555 1_555
C57 C56 1_555 1_555
H61 C57 1_555 1_555
C58 C57 1_555 1_555
H62 C58 1_555 1_555
C59 C58 1_555 1_555
H63 C59 1_555 1_555
C60 C55 1_555 1_555
H64 C60 1_555 1_555
C61 C62 1_555 1_555
C62 C63 1_555 1_555
C63 H65 1_555 1_555
C64 C63 1_555 1_555
C65 C64 1_555 1_555
H66 C65 1_555 1_555
C66 C61 1_555 1_555
C67 C62 1_555 1_555
H67 C67 1_555 1_555
H68 C67 1_555 1_555
H69 C67 1_555 1_555
C68 C64 1_555 1_555
H70 C68 1_555 1_555
H71 C68 1_555 1_555
H72 C68 1_555 1_555
C69 C66 1_555 1_555
H73 C69 1_555 1_555
H74 C69 1_555 1_555
H75 C69 1_555 1_555
C70 S2 1_555 1_555
C71 C70 1_555 1_555
C72 C71 1_555 1_555
H76 C72 1_555 1_555
C73 C72 1_555 1_555
C74 C73 1_555 1_555
H77 C74 1_555 1_555
C75 C70 1_555 1_555
C76 C71 1_555 1_555
H78 C76 1_555 1_555
H79 C76 1_555 1_555
H80 C76 1_555 1_555
C77 C73 1_555 1_555
H81 C77 1_555 1_555
H82 C77 1_555 1_555
H83 C77 1_555 1_555
C78 C75 1_555 1_555
H84 C78 1_555 1_555
H85 C78 1_555 1_555
H86 C78 1_555 1_555
C79 S3 1_555 1_555
C80 C79 1_555 1_555
C81 C80 1_555 1_555
H87 C81 1_555 1_555
C82 C81 1_555 1_555
C83 C82 1_555 1_555
H88 C83 1_555 1_555
C84 C79 1_555 1_555
C85 C80 1_555 1_555
H89 C85 1_555 1_555
H90 C85 1_555 1_555
H91 C85 1_555 1_555
C86 C82 1_555 1_555
H92 C86 1_555 1_555
H93 C86 1_555 1_555
H94 C86 1_555 1_555
C87 C84 1_555 1_555
H95 C87 1_555 1_555
H96 C87 1_555 1_555
H97 C87 1_555 1_555
C88 H98 1_555 1_555
H99 C88 1_555 1_555
H100 C88 1_555 1_555
C89 C88 1_555 1_555
C90 C89 1_555 1_555
H101 C90 1_555 1_555
C91 C90 1_555 1_555
H102 C91 1_555 1_555
C92 C91 1_555 1_555
H103 C92 1_555 1_555
C93 C92 1_555 1_555
H104 C93 1_555 1_555
C94 C89 1_555 1_555
H105 C94 1_555 1_555
C95 H106 1_555 1_555
H107 C95 1_555 1_555
H108 C95 1_555 1_555
C96 C95 1_555 1_555
C97 C96 1_555 1_555
H109 C97 1_555 1_555
C98 C97 1_555 1_555
H110 C98 1_555 1_555
C99 C98 1_555 1_555
H111 C99 1_555 1_555
C100 C99 1_555 1_555
H112 C100 1_555 1_555
C101 C96 1_555 1_555
H113 C101 1_555 1_555
C102 H114 1_555 1_555
H115 C102 1_555 1_555
H116 C102 1_555 1_555
C103 C102 1_555 1_555
H117 C103 1_555 1_555
H118 C103 1_555 1_555
C104 C103 1_555 1_555
H119 C104 1_555 1_555
H120 C104 1_555 1_555
Ag2A P2 1_555 1_555
Ag3A P3 1_555 1_555
P2A Ag2 1_555 1_555
P3A Ag3 1_555 1_555
C102A H114A 1_555 1_555
H115A C102A 1_555 1_555
H116A C102A 1_555 1_555
C103A C102A 1_555 1_555
H117A C103A 1_555 1_555
H118A C103A 1_555 1_555
C104A C104 1_555 1_555
H119A C104A 1_555 1_555
H120A C104A 1_555 1_555
Ag2 S3 1_555 1_555
C5 C6 1_555 1_555
C11 C12 1_555 1_555
C23 C24 1_555 1_555
C29 C30 1_555 1_555
C35 C36 1_555 1_555
C41 C42 1_555 1_555
C47 C48 1_555 1_555
C53 C54 1_555 1_555
C59 C60 1_555 1_555
C65 C66 1_555 1_555
C74 C75 1_555 1_555
C83 C84 1_555 1_555
C93 C94 1_555 1_555
C100 C101 1_555 1_555
C103A C104A 1_555 1_555

#END
