
#######################################################################
#
#                 Cambridge Crystallographic Data Centre
#                                CCDC 
#
#######################################################################
#
# If this CIF has been generated from an entry in the Cambridge 
# Structural Database, then it will include bibliographic, chemical, 
# crystal, experimental, refinement or atomic coordinate data resulting 
# from the CCDC's data processing and validation procedures.
#
#######################################################################

data_YONBAG
_symmetry_cell_setting           triclinic
_symmetry_space_group_name_H-M   'P -1'
_symmetry_Int_Tables_number      2
_space_group_name_Hall           '-P 1'
loop_
_symmetry_equiv_pos_site_id
_symmetry_equiv_pos_as_xyz
1 x,y,z
2 -x,-y,-z
_cell_length_a                   14.4959(2)
_cell_length_b                   32.5519(7)
_cell_length_c                   33.3597(6)
_cell_angle_alpha                87.273(2)
_cell_angle_beta                 87.856(2)
_cell_angle_gamma                89.097(2)
_cell_volume                     15711
loop_
_atom_site_label
_atom_site_type_symbol
_atom_site_fract_x
_atom_site_fract_y
_atom_site_fract_z
Ag1 Ag 0.11857(2) 0.19161(2) 0.55223(2)
Ag2 Ag 0.00721(2) 0.19386(2) 0.44699(2)
Ag3 Ag -0.02824(2) 0.30222(2) 0.52012(2)
Ag4 Ag -0.27544(2) 0.03683(2) 0.83208(2)
Ag5 Ag -0.31649(2) 0.14059(2) 0.91016(2)
Ag6 Ag -0.42831(2) 0.14831(2) 0.80825(2)
Ag7 Ag -0.68150(2) 0.44504(2) 0.12670(2)
Ag8 Ag -0.59059(2) 0.34274(2) 0.18489(2)
Ag9 Ag -0.59224(2) 0.45745(2) 0.24742(2)
P1 P 0.22872(8) 0.17047(5) 0.60282(4)
P2 P -0.12789(8) 0.06476(5) 0.79877(4)
P3 P -0.17833(8) 0.27844(5) 0.55500(4)
P4 P -0.53546(8) 0.17495(5) 0.75847(4)
P5 P 0.30793(8) 0.03545(5) 1.15238(4)
P6 P -0.35712(8) 0.15708(5) 0.97879(4)
P7 P 0.00978(9) 0.37323(5) 0.50234(4)
P8 P -0.65296(9) 0.47071(5) 0.31434(4)
P9 P -0.44192(8) 0.48356(5) 0.21454(4)
P10 P -0.24633(9) 0.52984(5) -0.06492(4)
P11 P 0.04288(8) 0.17127(5) 0.37999(4)
P12 P -0.62533(8) 0.27140(5) 0.19998(4)
S1 S 0.08477(8) 0.26491(5) 0.56642(4)
S2 S -0.07300(8) 0.26020(5) 0.45808(4)
S3 S 0.02912(8) 0.15095(4) 0.50874(4)
S4 S -0.23238(8) 0.07605(5) 0.89598(4)
S5 S -0.39488(9) 0.07594(5) 0.79007(5)
S6 S -0.33935(8) 0.18938(4) 0.85226(4)
S7 S -0.53075(8) 0.38256(4) 0.23954(4)
S8 S -0.58335(9) 0.38223(5) 0.12006(4)
S9 S -0.68946(8) 0.48507(5) 0.18777(4)
C1 C 0.3474(3) 0.18697(19) 0.59524(15)
C2 C 0.3855(3) 0.21721(19) 0.61691(17)
H1 H 0.3491 0.2300 0.6372
C3 C 0.4759(4) 0.2290(2) 0.6094(2)
H2 H 0.5021 0.2486 0.6257
C4 C 0.5278(4) 0.2131(2) 0.5791(2)
H3 H 0.5893 0.2221 0.5738
C5 C 0.4917(4) 0.1843(3) 0.5563(2)
H4 H 0.5276 0.1735 0.5347
C6 C 0.4005(4) 0.1704(2) 0.56456(19)
H5 H 0.3760 0.1497 0.5491
C7 C 0.2434(3) 0.11632(19) 0.61658(16)
C8 C 0.1947(4) 0.0872(2) 0.59796(17)
H6 H 0.1527 0.0958 0.5780
C9 C 0.2057(5) 0.0459(2) 0.60768(19)
H7 H 0.1713 0.0264 0.5942
C10 C 0.2641(5) 0.0327(3) 0.6358(2)
H8 H 0.2712 0.0042 0.6425
C11 C 0.3133(7) 0.0610(3) 0.6546(3)
H9 H 0.3548 0.0520 0.6747
C12 C 0.3037(6) 0.1022(3) 0.6450(3)
H10 H 0.3393 0.1213 0.6583
C13 C 0.1890(3) 0.19373(19) 0.64948(15)
H11 H 0.2317 0.1857 0.6710
H12 H 0.1899 0.2241 0.6456
C14 C 0.0910(3) 0.18021(19) 0.66236(16)
H13 H 0.0492 0.1863 0.6399
H14 H 0.0911 0.1501 0.6683
C15 C 0.0549(3) 0.2018(2) 0.69898(16)
H15 H 0.0503 0.2317 0.6923
H16 H 0.0995 0.1976 0.7206
C16 C -0.0395(3) 0.1864(2) 0.71447(17)
H17 H -0.0857 0.1936 0.6941
H18 H -0.0369 0.1560 0.7180
C17 C -0.0708(4) 0.2042(2) 0.75384(18)
H19 H -0.0695 0.2346 0.7506
H20 H -0.0262 0.1957 0.7745
C18 C -0.1677(4) 0.1914(2) 0.76911(19)
H21 H -0.2135 0.2042 0.7509
H22 H -0.1797 0.2025 0.7960
C19 C -0.1832(3) 0.14466(19) 0.77221(18)
H23 H -0.1749 0.1338 0.7451
H24 H -0.2477 0.1396 0.7816
C20 C -0.1180(3) 0.12062(19) 0.80073(16)
H25 H -0.1320 0.1287 0.8286
H26 H -0.0535 0.1284 0.7936
C21 C -0.0960(3) 0.05851(18) 0.74551(15)
C22 C -0.0055(4) 0.0605(2) 0.73055(17)
H27 H 0.0435 0.0616 0.7486
C23 C 0.0139(4) 0.0609(2) 0.68981(18)
H28 H 0.0762 0.0618 0.6799
C24 C -0.0556(5) 0.0602(2) 0.6638(2)
H29 H -0.0420 0.0617 0.6357
C25 C -0.1457(5) 0.0571(2) 0.67787(19)
H30 H -0.1938 0.0553 0.6595
C26 C -0.1666(4) 0.0564(2) 0.71874(17)
H31 H -0.2289 0.0546 0.7284
C27 C -0.0250(3) 0.0449(2) 0.82392(16)
C28 C 0.0266(4) 0.0679(3) 0.84817(18)
H32 H 0.0109 0.0959 0.8521
C29 C 0.1023(4) 0.0495(3) 0.8670(2)
H33 H 0.1386 0.0656 0.8833
C30 C 0.1252(4) 0.0099(3) 0.8627(2)
H34 H 0.1767 -0.0021 0.8759
C31 C 0.0743(5) -0.0122(3) 0.8397(2)
H35 H 0.0906 -0.0403 0.8367
C32 C -0.0021(3) 0.0039(2) 0.81952(19)
H36 H -0.0371 -0.0127 0.8033
C33 C -0.2062(3) 0.28713(17) 0.60792(15)
C34 C -0.2953(3) 0.28317(19) 0.62482(16)
H37 H -0.3456 0.2797 0.6079
C35 C -0.3109(4) 0.2843(2) 0.66554(18)
H38 H -0.3719 0.2814 0.6767
C36 C -0.2392(4) 0.2895(2) 0.69026(18)
H39 H -0.2504 0.2904 0.7184
C37 C -0.1514(4) 0.2935(3) 0.67425(18)
H40 H -0.1015 0.2967 0.6914
C38 C -0.1350(3) 0.2927(2) 0.63314(17)
H41 H -0.0739 0.2961 0.6222
C39 C -0.3066(3) 0.3392(2) 0.53386(17)
H42 H -0.2727 0.3558 0.5506
C40 C -0.2808(3) 0.29814(19) 0.52967(16)
C41 C -0.3817(4) 0.3561(2) 0.51368(19)
H43 H -0.3985 0.3842 0.5163
C42 C -0.4318(4) 0.3315(3) 0.4897(2)
H44 H -0.4840 0.3427 0.4764
C43 C -0.4068(4) 0.2918(3) 0.48513(19)
H45 H -0.4407 0.2753 0.4683
C44 C -0.3309(4) 0.2748(2) 0.50521(17)
H46 H -0.3139 0.2468 0.5019
C45 C -0.1909(3) 0.22257(19) 0.55538(16)
H47 H -0.2564 0.2158 0.5615
H48 H -0.1744 0.2130 0.5283
C46 C -0.1306(3) 0.19928(18) 0.58607(17)
H49 H -0.0649 0.2039 0.5783
H50 H -0.1424 0.2110 0.6127
C47 C -0.1475(3) 0.15279(19) 0.58989(18)
H51 H -0.1037 0.1401 0.6091
H52 H -0.1337 0.1410 0.5635
C48 C -0.2461(4) 0.14090(19) 0.60395(17)
H53 H -0.2895 0.1510 0.5834
H54 H -0.2499 0.1105 0.6062
C49 C -0.2757(3) 0.1580(2) 0.64369(16)
H55 H -0.2763 0.1884 0.6409
H56 H -0.2298 0.1495 0.6639
C50 C -0.3714(3) 0.14343(19) 0.65893(16)
H57 H -0.4164 0.1495 0.6378
H58 H -0.3693 0.1133 0.6644
C51 C -0.4035(3) 0.16419(19) 0.69687(16)
H59 H -0.3997 0.1944 0.6921
H60 H -0.3615 0.1560 0.7187
C52 C -0.5026(3) 0.15301(18) 0.71032(15)
H61 H -0.5079 0.1227 0.7129
H62 H -0.5455 0.1634 0.6897
C53 C -0.5369(3) 0.23033(19) 0.74646(16)
C54 C -0.4741(4) 0.2550(2) 0.76330(18)
H63 H -0.4313 0.2430 0.7815
C55 C -0.4723(5) 0.2965(2) 0.7544(2)
H64 H -0.4291 0.3131 0.7666
C56 C -0.5321(5) 0.3139(3) 0.7281(2)
H65 H -0.5303 0.3426 0.7218
C57 C -0.5944(5) 0.2905(3) 0.7106(2)
H66 H -0.6356 0.3029 0.6920
C58 C -0.5981(4) 0.2487(2) 0.71977(19)
H67 H -0.6426 0.2325 0.7078
C59 C -0.6574(3) 0.1624(2) 0.76597(18)
C60 C -0.7110(4) 0.1862(4) 0.7912(2)
H68 H -0.6868 0.2097 0.8027
C61 C -0.8047(5) 0.1738(5) 0.7995(3)
H69 H -0.8442 0.1893 0.8166
C62 C -0.8367(5) 0.1397(4) 0.7827(4)
H70 H -0.8987 0.1316 0.7883
C63 C -0.7833(5) 0.1180(3) 0.7589(4)
H71 H -0.8077 0.0948 0.7470
C64 C -0.6929(4) 0.1282(2) 0.7509(3)
H72 H -0.6547 0.1112 0.7346
C65 C 0.4302(3) 0.04792(17) 1.14411(16)
C66 C 0.4704(3) 0.0510(2) 1.10545(17)
H73 H 0.4338 0.0482 1.0828
C67 C 0.5643(4) 0.0583(2) 1.1003(2)
H74 H 0.5917 0.0595 1.0740
C68 C 0.6177(3) 0.0637(2) 1.13228(19)
H75 H 0.6814 0.0695 1.1282
C69 C 0.5780(3) 0.0605(2) 1.17098(19)
H76 H 0.6150 0.0637 1.1935
C70 C 0.4849(3) 0.05266(18) 1.17652(17)
H77 H 0.4582 0.0505 1.2030
C71 C 0.2700(3) 0.06945(18) 1.19220(14)
C72 C 0.2408(4) 0.0520(2) 1.22909(17)
H78 H 0.2386 0.0229 1.2331
C73 C 0.2144(5) 0.0772(3) 1.2605(2)
H79 H 0.1961 0.0652 1.2860
C74 C 0.2150(4) 0.1200(3) 1.2546(2)
H80 H 0.1965 0.1372 1.2757
C75 C 0.2424(4) 0.1366(2) 1.2178(2)
H81 H 0.2423 0.1657 1.2133
C76 C 0.2706(4) 0.11181(19) 1.18686(17)
H82 H 0.2906 0.1241 1.1617
C77 C 0.2559(3) 0.05835(19) 1.10718(15)
H83 H 0.2761 0.0872 1.1031
H84 H 0.2783 0.0432 1.0836
C78 C 0.1506(3) 0.05757(19) 1.10976(16)
H85 H 0.1302 0.0287 1.1128
H86 H 0.1282 0.0718 1.1339
C79 C 0.1076(3) 0.0781(2) 1.07303(16)
H87 H 0.1288 0.0635 1.0489
H88 H 0.1289 0.1068 1.0697
C80 C 0.0022(3) 0.07797(19) 1.07611(16)
H89 H -0.0188 0.0491 1.0773
H90 H -0.0185 0.0904 1.1015
C81 C -0.0431(3) 0.1011(2) 1.04159(17)
H91 H -0.0245 0.0881 1.0162
H92 H -0.0210 0.1298 1.0398
C82 C -0.1479(3) 0.1015(2) 1.04631(17)
H93 H -0.1660 0.1129 1.0725
H94 H -0.1699 0.0729 1.0467
C83 C -0.1960(3) 0.12666(19) 1.01312(16)
H95 H -0.1776 0.1558 1.0138
H96 H -0.1752 0.1165 0.9867
C84 C -0.3010(3) 0.12420(19) 1.01730(16)
H97 H -0.3217 0.1329 1.0443
H98 H -0.3198 0.0953 1.0149
C85 C -0.4792(3) 0.15315(19) 0.99393(15)
C86 C -0.5172(3) 0.1154(2) 1.00472(16)
H99 H -0.4785 0.0916 1.0057
C87 C -0.6104(4) 0.1116(2) 1.01409(18)
H100 H -0.6354 0.0853 1.0210
C88 C -0.6671(4) 0.1461(3) 1.01337(19)
H101 H -0.7309 0.1437 1.0206
C89 C -0.6309(4) 0.1840(3) 1.0021(2)
H102 H -0.6703 0.2076 1.0009
C90 C -0.5366(3) 0.1882(2) 0.99250(17)
H103 H -0.5118 0.2144 0.9851
C91 C -0.3267(3) 0.20886(18) 0.99172(16)
C92 C -0.2945(4) 0.2366(2) 0.96148(19)
H104 H -0.2909 0.2286 0.9344
C93 C -0.2678(4) 0.2753(2) 0.9703(2)
H105 H -0.2465 0.2938 0.9492
C94 C -0.2715(4) 0.2877(2) 1.0088(2)
H106 H -0.2519 0.3144 1.0148
C95 C -0.3046(4) 0.2605(2) 1.0393(2)
H107 H -0.3092 0.2689 1.0662
C96 C -0.3309(4) 0.2212(2) 1.03071(18)
H108 H -0.3519 0.2027 1.0518
C97 C 0.1331(4) 0.3846(2) 0.49497(17)
C98 C 0.1854(4) 0.3913(2) 0.5274(2)
H109 H 0.1562 0.3916 0.5534
C99 C 0.2802(4) 0.3978(3) 0.5233(3)
H110 H 0.3153 0.4029 0.5460
C100 C 0.3216(5) 0.3967(3) 0.4856(2)
H111 H 0.3859 0.4017 0.4823
C101 C 0.2730(4) 0.3887(3) 0.4533(2)
H112 H 0.3032 0.3879 0.4276
C102 C 0.1788(4) 0.3818(2) 0.4575(2)
H113 H 0.1452 0.3752 0.4348
C103 C -0.0303(4) 0.40957(19) 0.53943(17)
C104 C -0.0778(4) 0.3950(2) 0.57390(17)
H114 H -0.0866 0.3662 0.5780
C105 C -0.1124(4) 0.4207(3) 0.6022(2)
H115 H -0.1440 0.4097 0.6258
C106 C -0.1014(5) 0.4616(3) 0.5966(2)
H116 H -0.1284 0.4798 0.6153
C107 C -0.0517(7) 0.4768(3) 0.5640(3)
H117 H -0.0416 0.5056 0.5606
C108 C -0.0150(6) 0.4501(2) 0.5354(2)
H118 H 0.0208 0.4609 0.5129
C109 C -0.0411(3) 0.39405(19) 0.45609(16)
H119 H -0.0221 0.4230 0.4512
H120 H -0.0171 0.3782 0.4332
C110 C -0.1465(3) 0.3923(2) 0.45810(17)
H121 H -0.1703 0.4071 0.4817
H122 H -0.1654 0.3632 0.4619
C111 C -0.1900(4) 0.4112(2) 0.42020(17)
H123 H -0.1726 0.4405 0.4168
H124 H -0.1649 0.3969 0.3965
C112 C -0.2951(4) 0.4082(2) 0.42187(18)
H125 H -0.3120 0.3788 0.4238
H126 H -0.3195 0.4209 0.4466
C113 C -0.3412(4) 0.4289(2) 0.38597(17)
H127 H -0.3253 0.4584 0.3842
H128 H -0.3167 0.4164 0.3612
C114 C -0.4455(4) 0.42502(19) 0.38823(17)
H129 H -0.4697 0.4361 0.4137
H130 H -0.4614 0.3955 0.3885
C115 C -0.4921(3) 0.44759(19) 0.35344(16)
H131 H -0.4660 0.4374 0.3278
H132 H -0.4789 0.4773 0.3539
C116 C -0.5965(3) 0.44166(19) 0.35528(15)
H133 H -0.6223 0.4508 0.3813
H134 H -0.6098 0.4121 0.3537
C117 C -0.7764(3) 0.4632(2) 0.32446(15)
C118 C -0.8378(4) 0.4868(2) 0.30239(17)
H135 H -0.8147 0.5059 0.2822
C119 C -0.9326(4) 0.4834(3) 0.3089(2)
H136 H -0.9736 0.5004 0.2937
C120 C -0.9664(4) 0.4556(3) 0.3372(2)
H137 H -1.0312 0.4538 0.3423
C121 C -0.9086(4) 0.4305(3) 0.3583(2)
H138 H -0.9329 0.4100 0.3768
C122 C -0.8123(4) 0.4348(2) 0.3527(2)
H139 H -0.7718 0.4181 0.3685
C123 C -0.6428(3) 0.52430(18) 0.32740(18)
C124 C -0.6281(6) 0.5531(3) 0.2972(3)
H140 H -0.6191 0.5449 0.2704
C125 C -0.6263(9) 0.5951(3) 0.3057(4)
H141 H -0.6197 0.6151 0.2842
C126 C -0.6336(6) 0.6071(3) 0.3430(4)
H142 H -0.6314 0.6355 0.3482
C127 C -0.6441(5) 0.5786(3) 0.3739(3)
H143 H -0.6476 0.5870 0.4008
C128 C -0.6500(4) 0.5364(2) 0.3658(2)
H144 H -0.6591 0.5166 0.3873
C129 C -0.3354(3) 0.46484(17) 0.23767(15)
C130 C -0.3084(3) 0.48320(19) 0.27241(16)
H145 H -0.3432 0.5056 0.2828
C131 C -0.2301(4) 0.4684(2) 0.29168(18)
H146 H -0.2118 0.4807 0.3153
C132 C -0.1796(4) 0.4367(2) 0.27712(19)
H147 H -0.1253 0.4274 0.2900
C133 C -0.2072(3) 0.4179(2) 0.24355(18)
H148 H -0.1727 0.3952 0.2338
C134 C -0.2851(3) 0.43190(19) 0.22381(16)
H149 H -0.3037 0.4187 0.2007
C135 C -0.4260(3) 0.53877(18) 0.20586(15)
C136 C -0.5037(4) 0.5628(2) 0.19803(18)
H150 H -0.5622 0.5500 0.1980
C137 C -0.4982(4) 0.6048(2) 0.19029(19)
H151 H -0.5525 0.6206 0.1851
C138 C -0.4138(4) 0.6236(2) 0.19014(19)
H152 H -0.4095 0.6525 0.1848
C139 C -0.3358(4) 0.6004(2) 0.19781(19)
H153 H -0.2775 0.6134 0.1976
C140 C -0.3411(4) 0.55876(19) 0.20571(18)
H154 H -0.2866 0.5433 0.2112
C141 C -0.4339(3) 0.46616(19) 0.16302(16)
H155 H -0.4362 0.4357 0.1645
H156 H -0.4897 0.4763 0.1492
C142 C -0.3498(3) 0.4787(2) 0.13653(16)
H157 H -0.2938 0.4655 0.1477
H158 H -0.3425 0.5088 0.1368
C143 C -0.3586(4) 0.4663(2) 0.09296(17)
H159 H -0.2964 0.4662 0.0797
H160 H -0.3820 0.4379 0.0933
C144 C -0.4222(4) 0.4943(2) 0.06785(17)
H161 H -0.4238 0.4837 0.0406
H162 H -0.4855 0.4926 0.0799
C145 C -0.3950(5) 0.5390(2) 0.06411(17)
H163 H -0.3268 0.5404 0.0632
H164 H -0.4180 0.5526 0.0886
C146 C -0.4308(5) 0.5632(2) 0.02754(18)
H165 H -0.4989 0.5613 0.0279
H166 H -0.4155 0.5926 0.0296
C147 C -0.3919(4) 0.5487(2) -0.01252(17)
H167 H -0.4226 0.5645 -0.0345
H168 H -0.4073 0.5194 -0.0146
C148 C -0.2877(4) 0.5533(2) -0.01865(17)
H169 H -0.2564 0.5400 0.0045
H170 H -0.2721 0.5829 -0.0200
C149 C -0.2702(3) 0.47552(19) -0.05455(16)
C150 C -0.2532(4) 0.4551(2) -0.01771(19)
H171 H -0.2262 0.4693 0.0031
C151 C -0.2764(5) 0.4134(3) -0.0117(2)
H172 H -0.2630 0.3993 0.0130
C152 C -0.3166(5) 0.3934(2) -0.0398(2)
H173 H -0.3329 0.3654 -0.0350
C153 C -0.3346(5) 0.4132(2) -0.0761(2)
H174 H -0.3624 0.3988 -0.0965
C154 C -0.3126(4) 0.4541(2) -0.08291(19)
H175 H -0.3271 0.4677 -0.1078
C155 C -0.1207(4) 0.5329(2) -0.06402(18)
C156 C -0.0754(5) 0.5474(4) -0.0315(3)
H176 H -0.1093 0.5560 -0.0084
C157 C 0.0207(5) 0.5490(5) -0.0337(3)
H177 H 0.0526 0.5577 -0.0113
C158 C 0.0691(5) 0.5384(4) -0.0668(3)
H178 H 0.1343 0.5410 -0.0684
C159 C 0.0254(5) 0.5243(4) -0.0973(3)
H179 H 0.0601 0.5152 -0.1200
C160 C -0.0709(4) 0.5225(4) -0.0967(2)
H180 H -0.1012 0.5139 -0.1196
C161 C 0.0108(3) 0.11880(19) 0.37178(17)
C162 C 0.0127(4) 0.1029(2) 0.3340(2)
H181 H 0.0311 0.1197 0.3111
C163 C -0.0123(5) 0.0623(2) 0.3296(2)
H182 H -0.0096 0.0515 0.3036
C164 C -0.0401(5) 0.0380(2) 0.3611(3)
H183 H -0.0571 0.0104 0.3575
C165 C -0.0438(7) 0.0536(3) 0.3988(3)
H184 H -0.0646 0.0367 0.4212
C166 C -0.0175(5) 0.0938(2) 0.4046(2)
H185 H -0.0191 0.1040 0.4309
C167 C 0.1648(3) 0.17244(18) 0.36391(15)
C168 C 0.2059(3) 0.2097(2) 0.35157(16)
H186 H 0.1691 0.2341 0.3495
C169 C 0.2994(4) 0.2115(2) 0.34240(17)
H187 H 0.3267 0.2369 0.3337
C170 C 0.3533(4) 0.1761(3) 0.34604(19)
H188 H 0.4177 0.1772 0.3398
C171 C 0.3144(4) 0.1394(3) 0.3585(2)
H189 H 0.3518 0.1153 0.3612
C172 C 0.2196(4) 0.1376(2) 0.36739(19)
H190 H 0.1927 0.1121 0.3759
C173 C -0.0144(3) 0.20101(18) 0.34000(15)
H191 H 0.0065 0.2298 0.3395
H192 H 0.0037 0.1896 0.3138
C174 C -0.1191(3) 0.2003(2) 0.34563(16)
H193 H -0.1377 0.2148 0.3702
H194 H -0.1393 0.1714 0.3495
C175 C -0.1677(4) 0.2207(2) 0.30960(17)
H195 H -0.1456 0.2492 0.3052
H196 H -0.1503 0.2056 0.2853
C176 C -0.2721(4) 0.2217(2) 0.31489(18)
H197 H -0.2938 0.1935 0.3224
H198 H -0.2900 0.2395 0.3372
C177 C -0.3193(4) 0.2372(2) 0.27766(18)
H199 H -0.2989 0.2202 0.2551
H200 H -0.2996 0.2658 0.2709
C178 C -0.4250(3) 0.2366(2) 0.28182(16)
H201 H -0.4454 0.2080 0.2880
H202 H -0.4460 0.2535 0.3044
C179 C -0.4684(3) 0.2531(2) 0.24370(17)
H203 H -0.4450 0.2369 0.2210
H204 H -0.4498 0.2820 0.2382
C180 C -0.5746(3) 0.25110(19) 0.24630(15)
H205 H -0.5983 0.2672 0.2690
H206 H -0.5934 0.2222 0.2516
C181 C -0.5865(3) 0.23624(18) 0.16182(15)
C182 C -0.5747(4) 0.2526(2) 0.12225(17)
H207 H -0.5848 0.2811 0.1160
C183 C -0.5481(4) 0.2262(2) 0.09262(18)
H208 H -0.5403 0.2369 0.0657
C184 C -0.5327(4) 0.1851(2) 0.10080(18)
H209 H -0.5157 0.1675 0.0797
C185 C -0.5421(4) 0.1692(2) 0.13988(17)
H210 H -0.5300 0.1409 0.1460
C186 C -0.5690(3) 0.19462(18) 0.16972(16)
H211 H -0.5760 0.1836 0.1965
C187 C -0.7482(3) 0.26072(18) 0.20762(17)
C188 C -0.7913(4) 0.2580(2) 0.24527(19)
H212 H -0.7552 0.2595 0.2683
C189 C -0.8850(4) 0.2531(3) 0.2502(2)
H213 H -0.9130 0.2516 0.2764
C190 C -0.9367(5) 0.2504(3) 0.2182(3)
H214 H -1.0015 0.2472 0.2218
C191 C -0.8971(5) 0.2522(4) 0.1802(3)
H215 H -0.9337 0.2485 0.1577
C192 C -0.8027(4) 0.2595(3) 0.1748(2)
H216 H -0.7762 0.2636 0.1484
C193 C 0.1917(3) 0.28944(19) 0.57414(16)
C194 C 0.2697(3) 0.28484(18) 0.54763(15)
C195 C 0.3516(3) 0.3030(2) 0.55691(17)
H217 H 0.4039 0.3000 0.5392
C196 C 0.3607(3) 0.3250(2) 0.59049(18)
C197 C 0.2832(3) 0.3297(2) 0.61566(17)
H218 H 0.2876 0.3454 0.6388
C198 C 0.1989(3) 0.31215(18) 0.60786(16)
C199 C 0.2663(4) 0.2617(2) 0.50973(17)
H219 H 0.3271 0.2622 0.4959
H220 H 0.2205 0.2747 0.4921
H221 H 0.2490 0.2331 0.5165
C200 C 0.4513(4) 0.3444(2) 0.5998(2)
H222 H 0.4983 0.3378 0.5791
H223 H 0.4713 0.3337 0.6261
H224 H 0.4430 0.3743 0.6002
C201 C 0.1187(3) 0.3180(2) 0.63668(18)
H225 H 0.0650 0.3037 0.6275
H226 H 0.1043 0.3474 0.6381
H227 H 0.1344 0.3067 0.6633
C202 C -0.0521(3) 0.28821(17) 0.41143(15)
C203 C 0.0387(3) 0.29715(17) 0.39689(15)
C204 C 0.0514(3) 0.31656(18) 0.35953(16)
H228 H 0.1127 0.3220 0.3499
C205 C -0.0209(3) 0.32853(18) 0.33542(16)
C206 C -0.1093(3) 0.32095(18) 0.35090(16)
H229 H -0.1602 0.3296 0.3353
C207 C -0.1268(3) 0.30134(18) 0.38800(16)
C208 C 0.1207(3) 0.2856(2) 0.42150(16)
H230 H 0.1774 0.2942 0.4067
H231 H 0.1225 0.2558 0.4268
H232 H 0.1157 0.2994 0.4470
C209 C -0.0046(4) 0.3481(2) 0.29391(18)
H233 H -0.0641 0.3541 0.2817
H234 H 0.0315 0.3292 0.2773
H235 H 0.0294 0.3737 0.2957
C210 C -0.2252(3) 0.2949(2) 0.40300(18)
H236 H -0.2674 0.3059 0.3827
H237 H -0.2363 0.3092 0.4280
H238 H -0.2359 0.2654 0.4081
C211 C 0.0968(3) 0.10587(19) 0.50093(15)
C212 C 0.1883(3) 0.1071(2) 0.48479(17)
C213 C 0.2376(4) 0.0704(2) 0.4822(2)
H239 H 0.2990 0.0712 0.4712
C214 C 0.2017(4) 0.0326(2) 0.4949(2)
C215 C 0.1116(4) 0.0320(2) 0.50993(17)
H240 H 0.0851 0.0063 0.5181
C216 C 0.0585(4) 0.06737(19) 0.51344(16)
C217 C 0.2336(3) 0.1473(2) 0.47229(18)
H241 H 0.2965 0.1420 0.4619
H242 H 0.2356 0.1645 0.4955
H243 H 0.1980 0.1615 0.4513
C218 C 0.2575(5) -0.0062(3) 0.4923(3)
H244 H 0.2200 -0.0295 0.5022
H245 H 0.3120 -0.0045 0.5086
H246 H 0.2771 -0.0099 0.4642
C219 C -0.0362(4) 0.0647(2) 0.53326(19)
H247 H -0.0506 0.0358 0.5400
H248 H -0.0818 0.0764 0.5149
H249 H -0.0380 0.0800 0.5578
C220 C -0.2520(3) 0.04376(17) 0.93990(15)
C221 C -0.1761(3) 0.02827(18) 0.96195(15)
C222 C -0.1922(3) 0.00414(18) 0.99641(16)
H250 H -0.1406 -0.0056 1.0110
C223 C -0.2795(3) -0.00670(18) 1.01089(15)
C224 C -0.3532(3) 0.00781(17) 0.98806(14)
H251 H -0.4142 0.0006 0.9968
C225 C -0.3411(3) 0.03198(17) 0.95352(15)
C226 C -0.4246(3) 0.04584(19) 0.92980(16)
H252 H -0.4808 0.0350 0.9433
H253 H -0.4185 0.0355 0.9027
H254 H -0.4281 0.0760 0.9281
C227 C -0.2942(4) -0.0324(2) 1.04902(17)
H255 H -0.2343 -0.0396 1.0603
H256 H -0.3264 -0.0576 1.0433
H257 H -0.3314 -0.0169 1.0683
C228 C -0.0787(3) 0.0382(2) 0.94759(17)
H258 H -0.0351 0.0254 0.9664
H259 H -0.0708 0.0681 0.9462
H260 H -0.0669 0.0275 0.9209
C229 C -0.5001(3) 0.05057(18) 0.78140(16)
C230 C -0.5045(3) 0.02805(18) 0.74702(16)
C231 C -0.5863(3) 0.00944(19) 0.73913(17)
H261 H -0.5885 -0.0061 0.7158
C232 C -0.6648(3) 0.0123(2) 0.76332(18)
C233 C -0.6587(4) 0.03400(19) 0.79759(17)
H262 H -0.7116 0.0359 0.8151
C234 C -0.5793(3) 0.05308(19) 0.80748(17)
C235 C -0.4233(4) 0.0239(2) 0.71817(19)
H263 H -0.3709 0.0389 0.7278
H264 H -0.4395 0.0355 0.6916
H265 H -0.4065 -0.0052 0.7162
C236 C -0.7538(4) -0.0081(2) 0.7529(2)
H266 H -0.7442 -0.0221 0.7277
H267 H -0.8026 0.0128 0.7498
H268 H -0.7720 -0.0282 0.7745
C237 C -0.5795(4) 0.0764(2) 0.84535(17)
H269 H -0.6406 0.0746 0.8589
H270 H -0.5652 0.1052 0.8387
H271 H -0.5330 0.0644 0.8632
C238 C -0.4064(3) 0.23221(18) 0.86744(15)
C239 C -0.4977(4) 0.2282(2) 0.88410(15)
C240 C -0.5429(4) 0.2642(2) 0.89674(18)
H272 H -0.6039 0.2620 0.9079
C241 C -0.5038(5) 0.3020(2) 0.89379(18)
C242 C -0.4161(5) 0.3051(2) 0.87716(18)
H273 H -0.3881 0.3313 0.8749
C243 C -0.3677(4) 0.2719(2) 0.86373(17)
C244 C -0.5450(3) 0.1874(2) 0.88812(17)
H274 H -0.5030 0.1659 0.8783
H275 H -0.6006 0.1886 0.8722
H276 H -0.5622 0.1811 0.9164
C245 C -0.5551(6) 0.3397(3) 0.9093(2)
H277 H -0.6164 0.3318 0.9200
H278 H -0.5616 0.3604 0.8872
H279 H -0.5201 0.3513 0.9305
C246 C -0.2719(4) 0.2781(2) 0.8456(2)
H280 H -0.2565 0.3073 0.8455
H281 H -0.2693 0.2689 0.8180
H282 H -0.2274 0.2620 0.8616
C247 C -0.5515(3) 0.35576(17) 0.28631(15)
C248 C -0.4769(3) 0.34341(18) 0.31016(16)
C249 C -0.4937(3) 0.32333(18) 0.34712(16)
H283 H -0.4426 0.3153 0.3628
C250 C -0.5814(4) 0.31436(19) 0.36219(16)
C251 C -0.6546(3) 0.32629(18) 0.33859(15)
H284 H -0.7156 0.3205 0.3484
C252 C -0.6425(3) 0.34637(17) 0.30111(15)
C253 C -0.7250(3) 0.3593(2) 0.27766(16)
H285 H -0.7813 0.3501 0.2924
H286 H -0.7210 0.3469 0.2514
H287 H -0.7267 0.3893 0.2738
C254 C -0.5979(4) 0.2927(2) 0.40311(16)
H288 H -0.6644 0.2889 0.4082
H289 H -0.5737 0.3094 0.4239
H290 H -0.5665 0.2658 0.4037
C255 C -0.3787(3) 0.3528(2) 0.29594(18)
H291 H -0.3359 0.3421 0.3161
H292 H -0.3715 0.3826 0.2920
H293 H -0.3650 0.3397 0.2705
C256 C -0.6347(4) 0.35452(19) 0.08217(15)
C257 C -0.5768(4) 0.3413(2) 0.04987(17)
C258 C -0.6151(5) 0.3199(2) 0.01974(19)
H294 H -0.5755 0.3097 -0.0010
C259 C -0.7097(6) 0.3127(2) 0.0187(2)
C260 C -0.7632(5) 0.3243(2) 0.0507(2)
H295 H -0.8269 0.3178 0.0516
C261 C -0.7292(4) 0.3456(2) 0.08259(18)
C262 C -0.4747(4) 0.3486(2) 0.04856(19)
H296 H -0.4466 0.3374 0.0242
H297 H -0.4473 0.3350 0.0722
H298 H -0.4634 0.3782 0.0484
C263 C -0.7512(7) 0.2922(3) -0.0155(2)
H299 H -0.8180 0.2900 -0.0106
H300 H -0.7238 0.2647 -0.0180
H301 H -0.7389 0.3087 -0.0405
C264 C -0.7937(4) 0.3575(2) 0.1169(2)
H302 H -0.8563 0.3485 0.1120
H303 H -0.7939 0.3875 0.1190
H304 H -0.7728 0.3443 0.1421
C265 C -0.8082(3) 0.4983(2) 0.19495(16)
C266 C -0.8754(3) 0.4678(2) 0.20127(16)
C267 C -0.9693(4) 0.4803(3) 0.20499(18)
H305 H -1.0154 0.4600 0.2091
C268 C -0.9956(4) 0.5215(3) 0.2028(2)
C269 C -0.9275(4) 0.5507(3) 0.1972(2)
H306 H -0.9450 0.5789 0.1957
C270 C -0.8344(4) 0.5402(2) 0.19365(19)
C271 C -0.8517(4) 0.4235(2) 0.2052(2)
H307 H -0.7846 0.4197 0.2020
H308 H -0.8820 0.4089 0.1844
H309 H -0.8726 0.4124 0.2318
C272 C -1.0985(4) 0.5345(3) 0.2061(3)
H310 H -1.1366 0.5099 0.2099
H311 H -1.1155 0.5499 0.1815
H312 H -1.1086 0.5518 0.2291
C273 C -0.7653(4) 0.5743(2) 0.1889(2)
H313 H -0.7978 0.6009 0.1887
H314 H -0.7295 0.5718 0.1636
H315 H -0.7235 0.5723 0.2114
Ag4A Ag 0.27544(2) -0.03683(2) 1.16792(2)
Ag7A Ag -0.31850(2) 0.55496(2) -0.12670(2)
P5A P -0.30793(8) -0.03545(5) 0.84762(4)
P10A P -0.75367(9) 0.47016(5) 0.06492(4)
loop_
_geom_bond_atom_site_label_1
_geom_bond_atom_site_label_2
_geom_bond_site_symmetry_1
_geom_bond_site_symmetry_2
Ag1 P1 1_555 1_555
Ag2 P11 1_555 1_555
Ag3 P3 1_555 1_555
Ag4 P2 1_555 1_555
Ag5 P6 1_555 1_555
Ag6 P4 1_555 1_555
Ag7 S8 1_555 1_555
Ag8 P12 1_555 1_555
Ag9 P8 1_555 1_555
P1 C1 1_555 1_555
P2 C20 1_555 1_555
P3 C33 1_555 1_555
P4 C52 1_555 1_555
P5 C65 1_555 1_555
P6 C84 1_555 1_555
P7 Ag3 1_555 1_555
P8 C116 1_555 1_555
P9 Ag9 1_555 1_555
P10 C148 1_555 1_555
P11 C161 1_555 1_555
P12 C180 1_555 1_555
S1 Ag1 1_555 1_555
S2 Ag2 1_555 1_555
S3 Ag1 1_555 1_555
S4 Ag4 1_555 1_555
S5 Ag4 1_555 1_555
S6 Ag5 1_555 1_555
S7 Ag8 1_555 1_555
S8 Ag8 1_555 1_555
S9 Ag7 1_555 1_555
C1 C2 1_555 1_555
C2 H1 1_555 1_555
C3 C2 1_555 1_555
H2 C3 1_555 1_555
C4 C3 1_555 1_555
H3 C4 1_555 1_555
C5 C4 1_555 1_555
H4 C5 1_555 1_555
C6 C1 1_555 1_555
H5 C6 1_555 1_555
C7 P1 1_555 1_555
C8 C7 1_555 1_555
H6 C8 1_555 1_555
C9 C8 1_555 1_555
H7 C9 1_555 1_555
C10 C9 1_555 1_555
H8 C10 1_555 1_555
C11 C10 1_555 1_555
H9 C11 1_555 1_555
C12 C7 1_555 1_555
H10 C12 1_555 1_555
C13 P1 1_555 1_555
H11 C13 1_555 1_555
H12 C13 1_555 1_555
C14 C13 1_555 1_555
H13 C14 1_555 1_555
H14 C14 1_555 1_555
C15 C14 1_555 1_555
H15 C15 1_555 1_555
H16 C15 1_555 1_555
C16 C15 1_555 1_555
H17 C16 1_555 1_555
H18 C16 1_555 1_555
C17 C16 1_555 1_555
H19 C17 1_555 1_555
H20 C17 1_555 1_555
C18 C17 1_555 1_555
H21 C18 1_555 1_555
H22 C18 1_555 1_555
C19 C18 1_555 1_555
H23 C19 1_555 1_555
H24 C19 1_555 1_555
C20 C19 1_555 1_555
H25 C20 1_555 1_555
H26 C20 1_555 1_555
C21 P2 1_555 1_555
C22 C21 1_555 1_555
H27 C22 1_555 1_555
C23 C22 1_555 1_555
H28 C23 1_555 1_555
C24 C23 1_555 1_555
H29 C24 1_555 1_555
C25 C24 1_555 1_555
H30 C25 1_555 1_555
C26 C21 1_555 1_555
H31 C26 1_555 1_555
C27 P2 1_555 1_555
C28 C27 1_555 1_555
H32 C28 1_555 1_555
C29 C28 1_555 1_555
H33 C29 1_555 1_555
C30 C29 1_555 1_555
H34 C30 1_555 1_555
C31 C30 1_555 1_555
H35 C31 1_555 1_555
C32 C27 1_555 1_555
H36 C32 1_555 1_555
C33 C34 1_555 1_555
C34 H37 1_555 1_555
C35 C34 1_555 1_555
H38 C35 1_555 1_555
C36 C35 1_555 1_555
H39 C36 1_555 1_555
C37 C36 1_555 1_555
H40 C37 1_555 1_555
C38 C33 1_555 1_555
H41 C38 1_555 1_555
C39 H42 1_555 1_555
C40 P3 1_555 1_555
C41 C39 1_555 1_555
H43 C41 1_555 1_555
C42 C41 1_555 1_555
H44 C42 1_555 1_555
C43 C42 1_555 1_555
H45 C43 1_555 1_555
C44 C40 1_555 1_555
H46 C44 1_555 1_555
C45 P3 1_555 1_555
H47 C45 1_555 1_555
H48 C45 1_555 1_555
C46 C45 1_555 1_555
H49 C46 1_555 1_555
H50 C46 1_555 1_555
C47 C46 1_555 1_555
H51 C47 1_555 1_555
H52 C47 1_555 1_555
C48 C47 1_555 1_555
H53 C48 1_555 1_555
H54 C48 1_555 1_555
C49 C48 1_555 1_555
H55 C49 1_555 1_555
H56 C49 1_555 1_555
C50 C49 1_555 1_555
H57 C50 1_555 1_555
H58 C50 1_555 1_555
C51 C50 1_555 1_555
H59 C51 1_555 1_555
H60 C51 1_555 1_555
C52 C51 1_555 1_555
H61 C52 1_555 1_555
H62 C52 1_555 1_555
C53 P4 1_555 1_555
C54 C53 1_555 1_555
H63 C54 1_555 1_555
C55 C54 1_555 1_555
H64 C55 1_555 1_555
C56 C55 1_555 1_555
H65 C56 1_555 1_555
C57 C56 1_555 1_555
H66 C57 1_555 1_555
C58 C53 1_555 1_555
H67 C58 1_555 1_555
C59 P4 1_555 1_555
C60 C59 1_555 1_555
H68 C60 1_555 1_555
C61 C60 1_555 1_555
H69 C61 1_555 1_555
C62 C61 1_555 1_555
H70 C62 1_555 1_555
C63 C62 1_555 1_555
H71 C63 1_555 1_555
C64 C59 1_555 1_555
H72 C64 1_555 1_555
C65 C66 1_555 1_555
C66 H73 1_555 1_555
C67 C66 1_555 1_555
H74 C67 1_555 1_555
C68 C67 1_555 1_555
H75 C68 1_555 1_555
C69 C68 1_555 1_555
H76 C69 1_555 1_555
C70 C65 1_555 1_555
H77 C70 1_555 1_555
C71 P5 1_555 1_555
C72 C71 1_555 1_555
H78 C72 1_555 1_555
C73 C72 1_555 1_555
H79 C73 1_555 1_555
C74 C73 1_555 1_555
H80 C74 1_555 1_555
C75 C74 1_555 1_555
H81 C75 1_555 1_555
C76 C71 1_555 1_555
H82 C76 1_555 1_555
C77 P5 1_555 1_555
H83 C77 1_555 1_555
H84 C77 1_555 1_555
C78 C77 1_555 1_555
H85 C78 1_555 1_555
H86 C78 1_555 1_555
C79 C78 1_555 1_555
H87 C79 1_555 1_555
H88 C79 1_555 1_555
C80 C79 1_555 1_555
H89 C80 1_555 1_555
H90 C80 1_555 1_555
C81 C80 1_555 1_555
H91 C81 1_555 1_555
H92 C81 1_555 1_555
C82 C81 1_555 1_555
H93 C82 1_555 1_555
H94 C82 1_555 1_555
C83 C82 1_555 1_555
H95 C83 1_555 1_555
H96 C83 1_555 1_555
C84 C83 1_555 1_555
H97 C84 1_555 1_555
H98 C84 1_555 1_555
C85 P6 1_555 1_555
C86 C85 1_555 1_555
H99 C86 1_555 1_555
C87 C86 1_555 1_555
H100 C87 1_555 1_555
C88 C87 1_555 1_555
H101 C88 1_555 1_555
C89 C88 1_555 1_555
H102 C89 1_555 1_555
C90 C85 1_555 1_555
H103 C90 1_555 1_555
C91 P6 1_555 1_555
C92 C91 1_555 1_555
H104 C92 1_555 1_555
C93 C92 1_555 1_555
H105 C93 1_555 1_555
C94 C93 1_555 1_555
H106 C94 1_555 1_555
C95 C94 1_555 1_555
H107 C95 1_555 1_555
C96 C91 1_555 1_555
H108 C96 1_555 1_555
C97 P7 1_555 1_555
C98 C97 1_555 1_555
H109 C98 1_555 1_555
C99 C98 1_555 1_555
H110 C99 1_555 1_555
C100 C99 1_555 1_555
H111 C100 1_555 1_555
C101 C100 1_555 1_555
H112 C101 1_555 1_555
C102 C97 1_555 1_555
H113 C102 1_555 1_555
C103 P7 1_555 1_555
C104 C103 1_555 1_555
H114 C104 1_555 1_555
C105 C104 1_555 1_555
H115 C105 1_555 1_555
C106 C105 1_555 1_555
H116 C106 1_555 1_555
C107 C106 1_555 1_555
H117 C107 1_555 1_555
C108 C103 1_555 1_555
H118 C108 1_555 1_555
C109 P7 1_555 1_555
H119 C109 1_555 1_555
H120 C109 1_555 1_555
C110 C109 1_555 1_555
H121 C110 1_555 1_555
H122 C110 1_555 1_555
C111 C110 1_555 1_555
H123 C111 1_555 1_555
H124 C111 1_555 1_555
C112 C111 1_555 1_555
H125 C112 1_555 1_555
H126 C112 1_555 1_555
C113 C112 1_555 1_555
H127 C113 1_555 1_555
H128 C113 1_555 1_555
C114 C113 1_555 1_555
H129 C114 1_555 1_555
H130 C114 1_555 1_555
C115 C114 1_555 1_555
H131 C115 1_555 1_555
H132 C115 1_555 1_555
C116 C115 1_555 1_555
H133 C116 1_555 1_555
H134 C116 1_555 1_555
C117 P8 1_555 1_555
C118 C117 1_555 1_555
H135 C118 1_555 1_555
C119 C118 1_555 1_555
H136 C119 1_555 1_555
C120 C119 1_555 1_555
H137 C120 1_555 1_555
C121 C120 1_555 1_555
H138 C121 1_555 1_555
C122 C117 1_555 1_555
H139 C122 1_555 1_555
C123 P8 1_555 1_555
C124 C123 1_555 1_555
H140 C124 1_555 1_555
C125 C124 1_555 1_555
H141 C125 1_555 1_555
C126 C125 1_555 1_555
H142 C126 1_555 1_555
C127 C126 1_555 1_555
H143 C127 1_555 1_555
C128 C123 1_555 1_555
H144 C128 1_555 1_555
C129 P9 1_555 1_555
C130 C129 1_555 1_555
H145 C130 1_555 1_555
C131 C130 1_555 1_555
H146 C131 1_555 1_555
C132 C131 1_555 1_555
H147 C132 1_555 1_555
C133 C132 1_555 1_555
H148 C133 1_555 1_555
C134 C129 1_555 1_555
H149 C134 1_555 1_555
C135 P9 1_555 1_555
C136 C135 1_555 1_555
H150 C136 1_555 1_555
C137 C136 1_555 1_555
H151 C137 1_555 1_555
C138 C137 1_555 1_555
H152 C138 1_555 1_555
C139 C138 1_555 1_555
H153 C139 1_555 1_555
C140 C135 1_555 1_555
H154 C140 1_555 1_555
C141 P9 1_555 1_555
H155 C141 1_555 1_555
H156 C141 1_555 1_555
C142 C141 1_555 1_555
H157 C142 1_555 1_555
H158 C142 1_555 1_555
C143 C142 1_555 1_555
H159 C143 1_555 1_555
H160 C143 1_555 1_555
C144 C143 1_555 1_555
H161 C144 1_555 1_555
H162 C144 1_555 1_555
C145 C144 1_555 1_555
H163 C145 1_555 1_555
H164 C145 1_555 1_555
C146 C145 1_555 1_555
H165 C146 1_555 1_555
H166 C146 1_555 1_555
C147 C146 1_555 1_555
H167 C147 1_555 1_555
H168 C147 1_555 1_555
C148 C147 1_555 1_555
H169 C148 1_555 1_555
H170 C148 1_555 1_555
C149 P10 1_555 1_555
C150 C149 1_555 1_555
H171 C150 1_555 1_555
C151 C150 1_555 1_555
H172 C151 1_555 1_555
C152 C151 1_555 1_555
H173 C152 1_555 1_555
C153 C152 1_555 1_555
H174 C153 1_555 1_555
C154 C149 1_555 1_555
H175 C154 1_555 1_555
C155 P10 1_555 1_555
C156 C155 1_555 1_555
H176 C156 1_555 1_555
C157 C156 1_555 1_555
H177 C157 1_555 1_555
C158 C157 1_555 1_555
H178 C158 1_555 1_555
C159 C158 1_555 1_555
H179 C159 1_555 1_555
C160 C155 1_555 1_555
H180 C160 1_555 1_555
C161 C162 1_555 1_555
C162 H181 1_555 1_555
C163 C162 1_555 1_555
H182 C163 1_555 1_555
C164 C163 1_555 1_555
H183 C164 1_555 1_555
C165 C164 1_555 1_555
H184 C165 1_555 1_555
C166 C161 1_555 1_555
H185 C166 1_555 1_555
C167 P11 1_555 1_555
C168 C167 1_555 1_555
H186 C168 1_555 1_555
C169 C168 1_555 1_555
H187 C169 1_555 1_555
C170 C169 1_555 1_555
H188 C170 1_555 1_555
C171 C170 1_555 1_555
H189 C171 1_555 1_555
C172 C167 1_555 1_555
H190 C172 1_555 1_555
C173 P11 1_555 1_555
H191 C173 1_555 1_555
H192 C173 1_555 1_555
C174 C173 1_555 1_555
H193 C174 1_555 1_555
H194 C174 1_555 1_555
C175 C174 1_555 1_555
H195 C175 1_555 1_555
H196 C175 1_555 1_555
C176 C175 1_555 1_555
H197 C176 1_555 1_555
H198 C176 1_555 1_555
C177 C176 1_555 1_555
H199 C177 1_555 1_555
H200 C177 1_555 1_555
C178 C177 1_555 1_555
H201 C178 1_555 1_555
H202 C178 1_555 1_555
C179 C178 1_555 1_555
H203 C179 1_555 1_555
H204 C179 1_555 1_555
C180 C179 1_555 1_555
H205 C180 1_555 1_555
H206 C180 1_555 1_555
C181 P12 1_555 1_555
C182 C181 1_555 1_555
H207 C182 1_555 1_555
C183 C182 1_555 1_555
H208 C183 1_555 1_555
C184 C183 1_555 1_555
H209 C184 1_555 1_555
C185 C184 1_555 1_555
H210 C185 1_555 1_555
C186 C181 1_555 1_555
H211 C186 1_555 1_555
C187 P12 1_555 1_555
C188 C187 1_555 1_555
H212 C188 1_555 1_555
C189 C188 1_555 1_555
H213 C189 1_555 1_555
C190 C189 1_555 1_555
H214 C190 1_555 1_555
C191 C190 1_555 1_555
H215 C191 1_555 1_555
C192 C187 1_555 1_555
H216 C192 1_555 1_555
C193 S1 1_555 1_555
C194 C193 1_555 1_555
C195 C194 1_555 1_555
H217 C195 1_555 1_555
C196 C195 1_555 1_555
C197 C196 1_555 1_555
H218 C197 1_555 1_555
C198 C193 1_555 1_555
C199 C194 1_555 1_555
H219 C199 1_555 1_555
H220 C199 1_555 1_555
H221 C199 1_555 1_555
C200 C196 1_555 1_555
H222 C200 1_555 1_555
H223 C200 1_555 1_555
H224 C200 1_555 1_555
C201 C198 1_555 1_555
H225 C201 1_555 1_555
H226 C201 1_555 1_555
H227 C201 1_555 1_555
C202 S2 1_555 1_555
C203 C202 1_555 1_555
C204 C203 1_555 1_555
H228 C204 1_555 1_555
C205 C204 1_555 1_555
C206 C205 1_555 1_555
H229 C206 1_555 1_555
C207 C202 1_555 1_555
C208 C203 1_555 1_555
H230 C208 1_555 1_555
H231 C208 1_555 1_555
H232 C208 1_555 1_555
C209 C205 1_555 1_555
H233 C209 1_555 1_555
H234 C209 1_555 1_555
H235 C209 1_555 1_555
C210 C207 1_555 1_555
H236 C210 1_555 1_555
H237 C210 1_555 1_555
H238 C210 1_555 1_555
C211 S3 1_555 1_555
C212 C211 1_555 1_555
C213 C212 1_555 1_555
H239 C213 1_555 1_555
C214 C213 1_555 1_555
C215 C214 1_555 1_555
H240 C215 1_555 1_555
C216 C211 1_555 1_555
C217 C212 1_555 1_555
H241 C217 1_555 1_555
H242 C217 1_555 1_555
H243 C217 1_555 1_555
C218 C214 1_555 1_555
H244 C218 1_555 1_555
H245 C218 1_555 1_555
H246 C218 1_555 1_555
C219 C216 1_555 1_555
H247 C219 1_555 1_555
H248 C219 1_555 1_555
H249 C219 1_555 1_555
C220 S4 1_555 1_555
C221 C220 1_555 1_555
C222 C221 1_555 1_555
H250 C222 1_555 1_555
C223 C222 1_555 1_555
C224 C223 1_555 1_555
H251 C224 1_555 1_555
C225 C220 1_555 1_555
C226 C225 1_555 1_555
H252 C226 1_555 1_555
H253 C226 1_555 1_555
H254 C226 1_555 1_555
C227 C223 1_555 1_555
H255 C227 1_555 1_555
H256 C227 1_555 1_555
H257 C227 1_555 1_555
C228 C221 1_555 1_555
H258 C228 1_555 1_555
H259 C228 1_555 1_555
H260 C228 1_555 1_555
C229 S5 1_555 1_555
C230 C229 1_555 1_555
C231 C230 1_555 1_555
H261 C231 1_555 1_555
C232 C231 1_555 1_555
C233 C232 1_555 1_555
H262 C233 1_555 1_555
C234 C229 1_555 1_555
C235 C230 1_555 1_555
H263 C235 1_555 1_555
H264 C235 1_555 1_555
H265 C235 1_555 1_555
C236 C232 1_555 1_555
H266 C236 1_555 1_555
H267 C236 1_555 1_555
H268 C236 1_555 1_555
C237 C234 1_555 1_555
H269 C237 1_555 1_555
H270 C237 1_555 1_555
H271 C237 1_555 1_555
C238 S6 1_555 1_555
C239 C238 1_555 1_555
C240 C239 1_555 1_555
H272 C240 1_555 1_555
C241 C240 1_555 1_555
C242 C241 1_555 1_555
H273 C242 1_555 1_555
C243 C238 1_555 1_555
C244 C239 1_555 1_555
H274 C244 1_555 1_555
H275 C244 1_555 1_555
H276 C244 1_555 1_555
C245 C241 1_555 1_555
H277 C245 1_555 1_555
H278 C245 1_555 1_555
H279 C245 1_555 1_555
C246 C243 1_555 1_555
H280 C246 1_555 1_555
H281 C246 1_555 1_555
H282 C246 1_555 1_555
C247 S7 1_555 1_555
C248 C247 1_555 1_555
C249 C248 1_555 1_555
H283 C249 1_555 1_555
C250 C249 1_555 1_555
C251 C250 1_555 1_555
H284 C251 1_555 1_555
C252 C247 1_555 1_555
C253 C252 1_555 1_555
H285 C253 1_555 1_555
H286 C253 1_555 1_555
H287 C253 1_555 1_555
C254 C250 1_555 1_555
H288 C254 1_555 1_555
H289 C254 1_555 1_555
H290 C254 1_555 1_555
C255 C248 1_555 1_555
H291 C255 1_555 1_555
H292 C255 1_555 1_555
H293 C255 1_555 1_555
C256 S8 1_555 1_555
C257 C256 1_555 1_555
C258 C257 1_555 1_555
H294 C258 1_555 1_555
C259 C258 1_555 1_555
C260 C259 1_555 1_555
H295 C260 1_555 1_555
C261 C256 1_555 1_555
C262 C257 1_555 1_555
H296 C262 1_555 1_555
H297 C262 1_555 1_555
H298 C262 1_555 1_555
C263 C259 1_555 1_555
H299 C263 1_555 1_555
H300 C263 1_555 1_555
H301 C263 1_555 1_555
C264 C261 1_555 1_555
H302 C264 1_555 1_555
H303 C264 1_555 1_555
H304 C264 1_555 1_555
C265 S9 1_555 1_555
C266 C265 1_555 1_555
C267 C266 1_555 1_555
H305 C267 1_555 1_555
C268 C267 1_555 1_555
C269 C268 1_555 1_555
H306 C269 1_555 1_555
C270 C265 1_555 1_555
C271 C266 1_555 1_555
H307 C271 1_555 1_555
H308 C271 1_555 1_555
H309 C271 1_555 1_555
C272 C268 1_555 1_555
H310 C272 1_555 1_555
H311 C272 1_555 1_555
H312 C272 1_555 1_555
C273 C270 1_555 1_555
H313 C273 1_555 1_555
H314 C273 1_555 1_555
H315 C273 1_555 1_555
Ag4A P5 1_555 1_555
Ag7A P10 1_555 1_555
P5A Ag4 1_555 1_555
P10A Ag7 1_555 1_555
Ag2 S3 1_555 1_555
Ag3 S1 1_555 1_555
Ag3 S2 1_555 1_555
Ag5 S4 1_555 1_555
Ag6 S5 1_555 1_555
Ag6 S6 1_555 1_555
Ag9 S7 1_555 1_555
Ag9 S9 1_555 1_555
C5 C6 1_555 1_555
C11 C12 1_555 1_555
C25 C26 1_555 1_555
C31 C32 1_555 1_555
C37 C38 1_555 1_555
C39 C40 1_555 1_555
C43 C44 1_555 1_555
C57 C58 1_555 1_555
C63 C64 1_555 1_555
C69 C70 1_555 1_555
C75 C76 1_555 1_555
C89 C90 1_555 1_555
C95 C96 1_555 1_555
C101 C102 1_555 1_555
C107 C108 1_555 1_555
C121 C122 1_555 1_555
C127 C128 1_555 1_555
C133 C134 1_555 1_555
C139 C140 1_555 1_555
C153 C154 1_555 1_555
C159 C160 1_555 1_555
C165 C166 1_555 1_555
C171 C172 1_555 1_555
C185 C186 1_555 1_555
C191 C192 1_555 1_555
C197 C198 1_555 1_555
C206 C207 1_555 1_555
C215 C216 1_555 1_555
C224 C225 1_555 1_555
C233 C234 1_555 1_555
C242 C243 1_555 1_555
C251 C252 1_555 1_555
C260 C261 1_555 1_555
C269 C270 1_555 1_555

#END
