
#######################################################################
#
#                 Cambridge Crystallographic Data Centre
#                                CCDC 
#
#######################################################################
#
# If this CIF has been generated from an entry in the Cambridge 
# Structural Database, then it will include bibliographic, chemical, 
# crystal, experimental, refinement or atomic coordinate data resulting 
# from the CCDC's data processing and validation procedures.
#
#######################################################################

data_YONREA
_symmetry_cell_setting           triclinic
_symmetry_space_group_name_H-M   'P -1'
_symmetry_Int_Tables_number      2
_space_group_name_Hall           '-P 1'
loop_
_symmetry_equiv_pos_site_id
_symmetry_equiv_pos_as_xyz
1 x,y,z
2 -x,-y,-z
_cell_length_a                   9.1790(18)
_cell_length_b                   11.445(2)
_cell_length_c                   13.977(3)
_cell_angle_alpha                100.86(3)
_cell_angle_beta                 90.23(3)
_cell_angle_gamma                98.37(3)
_cell_volume                     1425.93
loop_
_atom_site_label
_atom_site_type_symbol
_atom_site_fract_x
_atom_site_fract_y
_atom_site_fract_z
Cd1 Cd 0.19732(2) 0.08643(2) 0.284552(16)
Cd2 Cd 0.34662(2) 0.31899(2) 0.138716(15)
Cl1 Cl 0.30863(9) 0.07746(7) 0.11018(5)
Cl2 Cl 0.29245(9) 0.31690(7) 0.31902(5)
N1 N -0.0285(3) 0.1146(2) 0.2235(2)
N2 N -0.2671(3) 0.1096(2) 0.23838(18)
N3 N -0.3939(3) -0.0504(2) 0.35865(19)
H1 H -0.3007 -0.0504 0.3528
N4 N -0.6150(3) 0.0041(2) 0.34712(18)
N5 N 0.6494(3) 0.4794(2) -0.1432(2)
N6 N 0.6613(3) 0.3175(2) -0.08142(18)
N7 N 0.6051(3) 0.3467(2) 0.15335(18)
N8 N 0.8403(3) 0.3388(2) 0.1192(2)
H2 H 0.9164 0.3215 0.0870
O1 O 0.3119(2) 0.2927(2) -0.03252(15)
O2 O 0.1128(2) 0.2999(2) 0.05353(16)
O3 O 0.1092(2) 0.0946(2) -0.35755(16)
O4 O -0.0739(2) 0.1090(2) -0.25413(18)
O5 O 0.0768(2) 0.1101(2) 0.43673(16)
H3 H 0.0129 0.0474 0.4224
H4 H 0.1344 0.0923 0.4778
C1 C -0.1332(3) 0.1505(3) 0.2804(2)
H5 H -0.1166 0.1983 0.3421
C2 C -0.0989(4) 0.0474(3) 0.1402(2)
H6 H -0.0521 0.0106 0.0863
C3 C -0.2470(4) 0.0425(3) 0.1480(2)
H7 H -0.3196 0.0022 0.1020
C4 C -0.4072(3) 0.1287(3) 0.2826(2)
H8 H -0.4755 0.1399 0.2331
H9 H -0.3923 0.2016 0.3320
C5 C -0.4733(3) 0.0260(3) 0.3280(2)
C6 C -0.4886(3) -0.1284(3) 0.4010(2)
C7 C -0.4636(4) -0.2250(3) 0.4425(2)
H10 H -0.3697 -0.2453 0.4473
C8 C -0.5843(4) -0.2889(3) 0.4762(2)
H11 H -0.5730 -0.3556 0.5030
C9 C -0.7242(4) -0.2551(3) 0.4708(2)
H12 H -0.8035 -0.2998 0.4949
C10 C -0.7488(4) -0.1581(3) 0.4312(2)
H13 H -0.8423 -0.1362 0.4290
C11 C -0.6277(3) -0.0940(3) 0.3946(2)
C12 C 0.6459(4) 0.4340(3) -0.0630(2)
H14 H 0.6341 0.4777 -0.0011
C13 C 0.6676(5) 0.3851(3) -0.2169(3)
H15 H 0.6729 0.3890 -0.2827
C14 C 0.6765(5) 0.2858(3) -0.1791(3)
H16 H 0.6903 0.2105 -0.2134
C15 C 0.6543(4) 0.2375(3) -0.0113(2)
H17 H 0.7190 0.1779 -0.0306
H18 H 0.5547 0.1955 -0.0109
C16 C 0.6988(3) 0.3057(3) 0.0880(2)
C17 C 0.6927(3) 0.4116(3) 0.2334(2)
C18 C 0.6557(4) 0.4724(3) 0.3234(2)
H19 H 0.5581 0.4784 0.3382
C19 C 0.7685(4) 0.5235(3) 0.3900(3)
H20 H 0.7465 0.5644 0.4509
C20 C 0.9152(4) 0.5152(4) 0.3681(3)
H21 H 0.9883 0.5499 0.4154
C21 C 0.9550(4) 0.4575(3) 0.2791(3)
H22 H 1.0531 0.4534 0.2646
C22 C 0.8409(3) 0.4054(3) 0.2118(2)
C23 C 0.1762(3) 0.2926(3) -0.0267(2)
C24 C 0.0825(4) 0.2893(4) -0.1168(2)
H23 H 0.0600 0.3697 -0.1159
H24 H -0.0100 0.2376 -0.1127
C25 C 0.1488(4) 0.2457(3) -0.2144(2)
H25 H 0.1675 0.3125 -0.2486
H26 H 0.2429 0.2210 -0.2025
C26 C 0.0533(3) 0.1425(3) -0.2793(2)
Cd1_2 Cd -0.80268(2) 0.08643(2) 0.284552(16)
Cd1A Cd -0.19732(2) -0.08643(2) -0.284552(16)
Cd2A Cd 0.65338(2) 0.68101(2) -0.138716(15)
N4_2 N 0.3850(3) 0.0041(2) 0.34712(18)
N5A N 0.3506(3) 0.5206(2) 0.1432(2)
O4A O 0.0739(2) -0.1090(2) 0.25413(18)
loop_
_geom_bond_atom_site_label_1
_geom_bond_atom_site_label_2
_geom_bond_site_symmetry_1
_geom_bond_site_symmetry_2
Cd1 Cl1 1_555 1_555
Cd2 Cl1 1_555 1_555
Cl2 Cd1 1_555 1_555
N1 Cd1 1_555 1_555
N2 C1 1_555 1_555
N3 H1 1_555 1_555
N4 C5 1_555 1_555
N5 C12 1_555 1_555
N6 C12 1_555 1_555
N7 Cd2 1_555 1_555
N8 H2 1_555 1_555
O1 Cd2 1_555 1_555
O2 Cd2 1_555 1_555
O3 C26 1_555 1_555
O4 C26 1_555 1_555
O5 Cd1 1_555 1_555
H3 O5 1_555 1_555
H4 O5 1_555 1_555
C1 N1 1_555 1_555
H5 C1 1_555 1_555
C2 N1 1_555 1_555
H6 C2 1_555 1_555
C3 N2 1_555 1_555
H7 C3 1_555 1_555
C4 N2 1_555 1_555
H8 C4 1_555 1_555
H9 C4 1_555 1_555
C5 N3 1_555 1_555
C6 N3 1_555 1_555
C7 C6 1_555 1_555
H10 C7 1_555 1_555
C8 C7 1_555 1_555
H11 C8 1_555 1_555
C9 C8 1_555 1_555
H12 C9 1_555 1_555
C10 C9 1_555 1_555
H13 C10 1_555 1_555
C11 N4 1_555 1_555
C12 H14 1_555 1_555
C13 N5 1_555 1_555
H15 C13 1_555 1_555
C14 N6 1_555 1_555
H16 C14 1_555 1_555
C15 N6 1_555 1_555
H17 C15 1_555 1_555
H18 C15 1_555 1_555
C16 N7 1_555 1_555
C17 N7 1_555 1_555
C18 C17 1_555 1_555
H19 C18 1_555 1_555
C19 C18 1_555 1_555
H20 C19 1_555 1_555
C20 C19 1_555 1_555
H21 C20 1_555 1_555
C21 C20 1_555 1_555
H22 C21 1_555 1_555
C22 N8 1_555 1_555
C23 O1 1_555 1_555
C24 C23 1_555 1_555
H23 C24 1_555 1_555
H24 C24 1_555 1_555
C25 C24 1_555 1_555
H25 C25 1_555 1_555
H26 C25 1_555 1_555
C26 C25 1_555 1_555
Cd1_2 N4 1_555 1_555
Cd1A O4 1_555 1_555
Cd2A N5 1_555 1_555
N4_2 Cd1 1_555 1_555
N5A Cd2 1_555 1_555
O4A Cd1 1_555 1_555
Cd2 Cl2 1_555 1_555
N8 C16 1_555 1_555
O2 C23 1_555 1_555
C2 C3 1_555 1_555
C4 C5 1_555 1_555
C6 C11 1_555 1_555
C10 C11 1_555 1_555
C13 C14 1_555 1_555
C15 C16 1_555 1_555
C17 C22 1_555 1_555
C21 C22 1_555 1_555

#END
