
#######################################################################
#
#                 Cambridge Crystallographic Data Centre
#                                CCDC 
#
#######################################################################
#
# If this CIF has been generated from an entry in the Cambridge 
# Structural Database, then it will include bibliographic, chemical, 
# crystal, experimental, refinement or atomic coordinate data resulting 
# from the CCDC's data processing and validation procedures.
#
#######################################################################

data_YONVIH
_symmetry_cell_setting           orthorhombic
_symmetry_space_group_name_H-M   'P 21 21 21'
_symmetry_Int_Tables_number      19
_space_group_name_Hall           'P 2ac 2ab'
loop_
_symmetry_equiv_pos_site_id
_symmetry_equiv_pos_as_xyz
1 x,y,z
2 1/2-x,-y,1/2+z
3 1/2+x,1/2-y,-z
4 -x,1/2+y,1/2-z
_cell_length_a                   9.0373(3)
_cell_length_b                   13.1159(5)
_cell_length_c                   15.5365(7)
_cell_angle_alpha                90
_cell_angle_beta                 90
_cell_angle_gamma                90
_cell_volume                     1841.58
loop_
_atom_site_label
_atom_site_type_symbol
_atom_site_fract_x
_atom_site_fract_y
_atom_site_fract_z
C1 C 0.2326(5) 0.4747(4) 0.4901(3)
H1 H 0.2505 0.4487 0.5475
H2 H 0.1316 0.4997 0.4882
C2 C 0.3350(4) 0.5618(3) 0.4740(2)
C3 C 0.3474(5) 0.6416(4) 0.5315(3)
H3 H 0.2992 0.6394 0.5843
C4 C 0.4334(7) 0.7253(4) 0.5089(4)
H4 H 0.4424 0.7806 0.5460
C5 C 0.5038(6) 0.7253(4) 0.4322(4)
H5 H 0.5580 0.7819 0.4150
C6 C 0.4950(4) 0.6418(3) 0.3803(3)
H6 H 0.5492 0.6410 0.3294
C7 C 0.6701(5) 0.3146(4) 0.3022(3)
H7 H 0.6303 0.2493 0.2843
H8 H 0.7717 0.3043 0.3203
C8 C 0.6659(3) 0.3875(3) 0.2285(2)
C9 C 0.7759(5) 0.3901(4) 0.1653(3)
H9 H 0.8563 0.3460 0.1685
C10 C 0.7649(6) 0.4574(5) 0.0993(3)
H10 H 0.8371 0.4591 0.0567
C11 C 0.6466(5) 0.5229(4) 0.0959(3)
H11 H 0.6376 0.5700 0.0514
C12 C 0.5422(4) 0.5171(3) 0.1596(2)
H12 H 0.4621 0.5616 0.1576
C13 C 0.1204(4) 0.0662(3) 0.1709(2)
C14 C 0.2137(4) 0.2197(3) 0.2690(2)
C15 C -0.0012(4) 0.1860(3) 0.3775(2)
C16 C -0.1147(4) 0.0508(3) 0.2645(2)
N1 N 0.2473(5) 0.3926(4) 0.4298(2)
H13 H 0.1566 0.3756 0.4106
H14 H 0.2845 0.3381 0.4575
N2 N 0.4109(3) 0.5607(2) 0.39990(18)
N3 N 0.5836(3) 0.3542(3) 0.3741(2)
H15 H 0.6369 0.4004 0.4037
H16 H 0.5589 0.3032 0.4101
N4 N 0.5502(3) 0.4506(2) 0.22422(16)
N5 N 0.1621(5) 0.0231(3) 0.1116(2)
N6 N 0.3064(4) 0.2797(3) 0.2685(2)
N7 N -0.0292(4) 0.2210(3) 0.4423(2)
N8 N -0.2206(3) 0.0041(3) 0.2531(2)
Ni1 Ni 0.05593(4) 0.12946(4) 0.27155(3)
Zn1 Zn 0.38448(4) 0.42522(3) 0.32176(2)
N8C N 0.2206(3) 0.5041(3) 0.2469(2)
Zn1C Zn -0.38448(4) -0.07478(3) 0.17824(2)
loop_
_geom_bond_atom_site_label_1
_geom_bond_atom_site_label_2
_geom_bond_site_symmetry_1
_geom_bond_site_symmetry_2
C1 H1 1_555 1_555
H2 C1 1_555 1_555
C2 C1 1_555 1_555
C3 C2 1_555 1_555
H3 C3 1_555 1_555
C4 C3 1_555 1_555
H4 C4 1_555 1_555
C5 C4 1_555 1_555
H5 C5 1_555 1_555
C6 C5 1_555 1_555
H6 C6 1_555 1_555
C7 H7 1_555 1_555
H8 C7 1_555 1_555
C8 C7 1_555 1_555
C9 C8 1_555 1_555
H9 C9 1_555 1_555
C10 C9 1_555 1_555
H10 C10 1_555 1_555
C11 C10 1_555 1_555
H11 C11 1_555 1_555
C12 C11 1_555 1_555
H12 C12 1_555 1_555
C13 N5 1_555 1_555
C14 N6 1_555 1_555
C15 N7 1_555 1_555
C16 N8 1_555 1_555
N1 C1 1_555 1_555
H13 N1 1_555 1_555
H14 N1 1_555 1_555
N2 C2 1_555 1_555
N3 C7 1_555 1_555
H15 N3 1_555 1_555
H16 N3 1_555 1_555
N4 C8 1_555 1_555
N6 Zn1 1_555 1_555
N8 Zn1C 1_555 1_555
Ni1 C13 1_555 1_555
Zn1 N1 1_555 1_555
N8C Zn1 1_555 1_555
C6 N2 1_555 1_555
C12 N4 1_555 1_555
C14 Ni1 1_555 1_555
C15 Ni1 1_555 1_555
C16 Ni1 1_555 1_555
N2 Zn1 1_555 1_555
N3 Zn1 1_555 1_555
N4 Zn1 1_555 1_555

#END
