
#######################################################################
#
#                 Cambridge Crystallographic Data Centre
#                                CCDC 
#
#######################################################################
#
# If this CIF has been generated from an entry in the Cambridge 
# Structural Database, then it will include bibliographic, chemical, 
# crystal, experimental, refinement or atomic coordinate data resulting 
# from the CCDC's data processing and validation procedures.
#
#######################################################################

data_YONXEE
_symmetry_cell_setting           monoclinic
_symmetry_space_group_name_H-M   'P 21/c'
_symmetry_Int_Tables_number      14
_space_group_name_Hall           '-P 2ybc'
loop_
_symmetry_equiv_pos_site_id
_symmetry_equiv_pos_as_xyz
1 x,y,z
2 -x,1/2+y,1/2-z
3 -x,-y,-z
4 x,1/2-y,1/2+z
_cell_length_a                   15.697(6)
_cell_length_b                   8.116(4)
_cell_length_c                   12.211(5)
_cell_angle_alpha                90
_cell_angle_beta                 115.83(3)
_cell_angle_gamma                90
_cell_volume                     1400.22
loop_
_atom_site_label
_atom_site_type_symbol
_atom_site_fract_x
_atom_site_fract_y
_atom_site_fract_z
Zn1 Zn 0.0000 0.5000 0.5000
O1 O -0.0144(3) 0.2633(4) 0.5571(4)
O2 O -0.0364(3) -0.0925(5) 0.6523(4)
C1 C -0.0064(4) 0.1209(7) 0.5251(5)
C2 C -0.0169(4) -0.0417(6) 0.5680(6)
S1 S 0.2025(1) 0.3418(2) 0.6604(2)
O3 O 0.1458(3) 0.5011(4) 0.6274(4)
C3 C 0.2438(6) 0.3216(8) 0.8197(7)
C4 C 0.3116(5) 0.3900(12) 0.6580(9)
O4 O -0.0372(3) 0.5807(5) 0.6348(4)
H1 H 0.2899 0.2364 0.8566
H2 H 0.1896 0.3010 0.8348
H3 H 0.2709 0.4263 0.8538
H4 H 0.3530 0.2962 0.6813
H5 H 0.3413 0.4797 0.7126
H6 H 0.2987 0.4222 0.5766
H7 H 0.0094(47) 0.5281(93) 0.7067(64)
H8 H -0.0320(54) 0.679(10) 0.6606(70)
C1B C 0.0064(4) -0.1209(7) 0.4749(5)
O1B O 0.0144(3) -0.2633(4) 0.4429(4)
C2B C 0.0169(4) 0.0417(6) 0.4320(6)
O2B O 0.0364(3) 0.0925(5) 0.3477(4)
S1B S -0.2025(1) 0.6582(2) 0.3396(2)
O3B O -0.1458(3) 0.4989(4) 0.3726(4)
C3B C -0.2438(6) 0.6784(8) 0.1803(7)
C4B C -0.3116(5) 0.6100(12) 0.3420(9)
H1B H -0.2899 0.7636 0.1434
H2B H -0.1896 0.6990 0.1652
H3B H -0.2709 0.5737 0.1462
H4B H -0.3530 0.7038 0.3187
H5B H -0.3413 0.5203 0.2874
H6B H -0.2987 0.5778 0.4234
O4B O 0.0372(3) 0.4193(5) 0.3652(4)
H7B H -0.0094(47) 0.4719(93) 0.2933(64)
H8B H 0.0320(54) 0.321(10) 0.3394(70)
O1B_2 O 0.0144(3) 0.7367(4) 0.4429(4)
Zn1_2 Zn 0.0000 -0.5000 0.5000
Zn2 Zn 0.5000 0.0000 0.0000
O5 O 0.4770(3) 0.2390(4) 0.0540(4)
O6 O 0.4470(3) 0.6028(4) 0.1342(4)
C5 C 0.4899(4) 0.3818(6) 0.0231(5)
C6 C 0.4763(4) 0.5475(6) 0.0607(5)
S2 S 0.3006(1) -0.1961(2) -0.1493(2)
O7 O 0.3516(3) -0.0474(5) -0.0728(4)
C7 C 0.2472(7) -0.1303(11) -0.3027(8)
C8 C 0.1978(6) -0.2179(12) -0.1268(9)
O8 O 0.5201(4) -0.0882(6) 0.1677(4)
H9 H 0.2041 -0.2157 -0.3484
H10 H 0.2910 -0.1093 -0.3367
H11 H 0.2124 -0.0315 -0.3063
H12 H 0.1526 -0.2859 -0.1896
H13 H 0.1704 -0.1120 -0.1277
H14 H 0.2153 -0.2693 -0.0492
H15 H 0.5300(46) -0.0282(88) 0.2356(65)
H16 H 0.4904(56) -0.151(11) 0.1654(76)
C5B C 0.5101(4) 0.6182(6) -0.0231(5)
O5B O 0.5230(3) 0.7610(4) -0.0540(4)
C6B C 0.5237(4) 0.4525(6) -0.0607(5)
O6B O 0.5530(3) 0.3972(4) -0.1342(4)
S2B S 0.6994(1) 0.1961(2) 0.1493(2)
O7B O 0.6484(3) 0.0474(5) 0.0728(4)
C7B C 0.7528(7) 0.1303(11) 0.3027(8)
C8B C 0.8022(6) 0.2179(12) 0.1268(9)
H9B H 0.7959 0.2157 0.3484
H10B H 0.7090 0.1093 0.3367
H11B H 0.7876 0.0315 0.3063
H12B H 0.8474 0.2859 0.1896
H13B H 0.8296 0.1120 0.1277
H14B H 0.7847 0.2693 0.0492
O8B O 0.4799(4) 0.0882(6) -0.1677(4)
H15B H 0.4700(46) 0.0282(88) -0.2356(65)
H16B H 0.5096(56) 0.151(11) -0.1654(76)
O5B_2 O 0.5230(3) -0.2390(4) -0.0540(4)
Zn2_2 Zn 0.5000 1.0000 0.0000
loop_
_geom_bond_atom_site_label_1
_geom_bond_atom_site_label_2
_geom_bond_site_symmetry_1
_geom_bond_site_symmetry_2
Zn1 O1 1_555 1_555
O1 C1 1_555 1_555
O2 C2 1_555 1_555
C1 C2 1_555 1_555
C2 C1B 1_555 1_555
S1 O3 1_555 1_555
O3 Zn1 1_555 1_555
C3 S1 1_555 1_555
C4 S1 1_555 1_555
O4 Zn1 1_555 1_555
Zn2 O5 1_555 1_555
O5 C5 1_555 1_555
O6 C6 1_555 1_555
C5 C6 1_555 1_555
C6 C5B 1_555 1_555
S2 O7 1_555 1_555
O7 Zn2 1_555 1_555
C7 S2 1_555 1_555
C8 S2 1_555 1_555
O8 Zn2 1_555 1_555
H1 C3 1_555 1_555
H2 C3 1_555 1_555
H3 C3 1_555 1_555
H4 C4 1_555 1_555
H5 C4 1_555 1_555
H6 C4 1_555 1_555
H7 O4 1_555 1_555
H8 O4 1_555 1_555
H9 C7 1_555 1_555
H10 C7 1_555 1_555
H11 C7 1_555 1_555
H12 C8 1_555 1_555
H13 C8 1_555 1_555
H14 C8 1_555 1_555
H15 O8 1_555 1_555
H16 O8 1_555 1_555
C1B O1B 1_555 1_555
O1B Zn1_2 1_555 1_555
C2B C1 1_555 1_555
O2B C2B 1_555 1_555
C5B O5B 1_555 1_555
O5B Zn2_2 1_555 1_555
C6B C5 1_555 1_555
O6B C6B 1_555 1_555
S1B O3B 1_555 1_555
O3B Zn1 1_555 1_555
C3B S1B 1_555 1_555
C4B S1B 1_555 1_555
H1B C3B 1_555 1_555
H2B C3B 1_555 1_555
H3B C3B 1_555 1_555
H4B C4B 1_555 1_555
H5B C4B 1_555 1_555
H6B C4B 1_555 1_555
O4B Zn1 1_555 1_555
H7B O4B 1_555 1_555
H8B O4B 1_555 1_555
S2B O7B 1_555 1_555
O7B Zn2 1_555 1_555
C7B S2B 1_555 1_555
C8B S2B 1_555 1_555
H9B C7B 1_555 1_555
H10B C7B 1_555 1_555
H11B C7B 1_555 1_555
H12B C8B 1_555 1_555
H13B C8B 1_555 1_555
H14B C8B 1_555 1_555
O8B Zn2 1_555 1_555
H15B O8B 1_555 1_555
H16B O8B 1_555 1_555
O1B_2 Zn1 1_555 1_555
O5B_2 Zn2 1_555 1_555
C1B C2B 1_555 1_555
C5B C6B 1_555 1_555

#END
