
#######################################################################
#
#                 Cambridge Crystallographic Data Centre
#                                CCDC 
#
#######################################################################
#
# If this CIF has been generated from an entry in the Cambridge 
# Structural Database, then it will include bibliographic, chemical, 
# crystal, experimental, refinement or atomic coordinate data resulting 
# from the CCDC's data processing and validation procedures.
#
#######################################################################

data_YONYOP
_symmetry_cell_setting           monoclinic
_symmetry_space_group_name_H-M   'P 21/c'
_symmetry_Int_Tables_number      14
_space_group_name_Hall           '-P 2ybc'
loop_
_symmetry_equiv_pos_site_id
_symmetry_equiv_pos_as_xyz
1 x,y,z
2 -x,1/2+y,1/2-z
3 -x,-y,-z
4 x,1/2-y,1/2+z
_cell_length_a                   12.299(15)
_cell_length_b                   9.530(15)
_cell_length_c                   25.798(32)
_cell_angle_alpha                90
_cell_angle_beta                 108.679(9)
_cell_angle_gamma                90
_cell_volume                     2864.5
loop_
_atom_site_label
_atom_site_type_symbol
_atom_site_fract_x
_atom_site_fract_y
_atom_site_fract_z
Ba1 Ba 0.0000 0.5000 0.5000
N1 N -0.2097(3) 0.6736(4) 0.3239(1)
N2 N -0.0963(3) 0.9469(4) 0.3076(1)
N3 N -0.3188(3) 1.1110(4) 0.2834(2)
N4 N -0.0380(3) 1.0511(4) 0.4255(1)
O1 O -0.1841(3) 0.6032(4) 0.4255(1)
O2 O -0.1027(3) 1.2561(3) 0.4768(1)
O3 O -0.4964(3) 0.9543(4) 0.2762(2)
C1 C -0.2940(4) 0.6108(4) 0.4139(2)
C2 C -0.3513(5) 0.5863(5) 0.4531(2)
C3 C -0.4674(5) 0.5996(6) 0.4397(2)
C4 C -0.5356(4) 0.6363(6) 0.3874(2)
C5 C -0.4848(4) 0.6624(6) 0.3493(2)
C6 C -0.3655(3) 0.6508(5) 0.3601(2)
C7 C -0.3179(4) 0.6816(5) 0.3190(2)
C8 C -0.1637(4) 0.7029(5) 0.2790(2)
C9 C -0.0647(4) 0.8063(5) 0.2954(2)
C10 C 0.0073(3) 1.0241(5) 0.3395(2)
C11 C 0.0413(3) 0.9890(6) 0.4004(2)
C12 C -0.1226(3) 0.9827(5) 0.4332(2)
C13 C -0.1977(3) 1.0390(4) 0.4591(2)
C14 C -0.2857(4) 0.9525(5) 0.4663(2)
C15 C -0.3547(4) 0.9979(7) 0.4944(3)
C16 C -0.3407(4) 1.1317(5) 0.5160(2)
C17 C -0.2585(4) 1.2192(5) 0.5099(2)
C18 C -0.1835(3) 1.1756(4) 0.4814(2)
C19 C -0.1559(4) 1.0244(5) 0.2572(2)
C20 C -0.2200(4) 1.1510(6) 0.2667(2)
C21 C -0.3482(4) 1.1866(5) 0.3169(2)
C22 C -0.4494(4) 1.1586(5) 0.3325(2)
C23 C -0.4801(5) 1.2485(7) 0.3675(3)
C24 C -0.5760(5) 1.2274(8) 0.3826(3)
C25 C -0.6423(5) 1.1121(8) 0.3630(8)
C26 C -0.6162(4) 1.0206(7) 0.3283(2)
C27 C -0.5188(4) 1.0437(5) 0.3123(2)
H1 H -0.3073 0.5599 0.4898
H2 H -0.5030 0.5830 0.4672
H3 H -0.6174 0.6431 0.3786
H4 H -0.5319 0.6899 0.3133
H5 H -0.3695 0.7110 0.2842
H6 H -0.1372 0.6166 0.2681
H7 H -0.2239 0.7412 0.2488
H8 H -0.0334 0.8131 0.2658
H9 H -0.0073 0.7707 0.3273
H10 H 0.0694 0.9995 0.3263
H11 H -0.0074 1.1229 0.3347
H12 H 0.1171 1.0245 0.4184
H13 H 0.0410 0.8889 0.4046
H14 H -0.1349 0.8876 0.4203
H15 H -0.2964 0.8599 0.4509
H16 H -0.4130 0.9374 0.4994
H17 H -0.3902 1.1637 0.5357
H18 H -0.2512 1.3119 0.5252
H19 H -0.1000 1.0547 0.2408
H20 H -0.2096 0.9622 0.2326
H21 H -0.2465 1.2044 0.2334
H22 H -0.1690 1.2075 0.2949
H23 H -0.3015 1.2661 0.3328
H24 H -0.4326 1.3286 0.3817
H25 H -0.5960 1.2923 0.4066
H26 H -0.7088 1.0953 0.3740
H27 H -0.6642 0.9404 0.3149
H28 H -0.1646 0.6256 0.3932
H29 H -0.0590 1.2061 0.4578
H30 H -0.4283 0.9850 0.2689
N1B N 0.2097(3) 0.3264(4) 0.6761(1)
N2B N 0.0963(3) 0.0531(4) 0.6924(1)
N3B N 0.3188(3) -0.1110(4) 0.7166(2)
N4B N 0.0380(3) -0.0511(4) 0.5745(1)
O1B O 0.1841(3) 0.3968(4) 0.5745(1)
O2B O 0.1027(3) -0.2561(3) 0.5232(1)
O3B O 0.4964(3) 0.0457(4) 0.7238(2)
C1B C 0.2940(4) 0.3892(4) 0.5861(2)
C2B C 0.3513(5) 0.4137(5) 0.5469(2)
C3B C 0.4674(5) 0.4004(6) 0.5603(2)
C4B C 0.5356(4) 0.3637(6) 0.6126(2)
C5B C 0.4848(4) 0.3376(6) 0.6507(2)
C6B C 0.3655(3) 0.3492(5) 0.6399(2)
C7B C 0.3179(4) 0.3184(5) 0.6810(2)
C8B C 0.1637(4) 0.2971(5) 0.7210(2)
C9B C 0.0647(4) 0.1937(5) 0.7046(2)
C10B C -0.0073(3) -0.0241(5) 0.6605(2)
C11B C -0.0413(3) 0.0110(6) 0.5996(2)
C12B C 0.1226(3) 0.0173(5) 0.5668(2)
C13B C 0.1977(3) -0.0390(4) 0.5409(2)
C14B C 0.2857(4) 0.0475(5) 0.5337(2)
C15B C 0.3547(4) 0.0021(7) 0.5056(3)
C16B C 0.3407(4) -0.1317(5) 0.4840(2)
C17B C 0.2585(4) -0.2192(5) 0.4901(2)
C18B C 0.1835(3) -0.1756(4) 0.5186(2)
C19B C 0.1559(4) -0.0244(5) 0.7428(2)
C20B C 0.2200(4) -0.1510(6) 0.7333(2)
C21B C 0.3482(4) -0.1866(5) 0.6831(2)
C22B C 0.4494(4) -0.1586(5) 0.6675(2)
C23B C 0.4801(5) -0.2485(7) 0.6325(3)
C24B C 0.5760(5) -0.2274(8) 0.6174(3)
C25B C 0.6423(5) -0.1121(8) 0.6370(8)
C26B C 0.6162(4) -0.0206(7) 0.6717(2)
C27B C 0.5188(4) -0.0437(5) 0.6877(2)
H1B H 0.3073 0.4401 0.5102
H2B H 0.5030 0.4170 0.5328
H3B H 0.6174 0.3569 0.6214
H4B H 0.5319 0.3101 0.6867
H5B H 0.3695 0.2890 0.7158
H6B H 0.1372 0.3834 0.7319
H7B H 0.2239 0.2588 0.7512
H8B H 0.0334 0.1869 0.7342
H9B H 0.0073 0.2293 0.6727
H10B H -0.0694 0.0005 0.6737
H11B H 0.0074 -0.1229 0.6653
H12B H -0.1171 -0.0245 0.5816
H13B H -0.0410 0.1111 0.5954
H14B H 0.1349 0.1124 0.5797
H15B H 0.2964 0.1401 0.5491
H16B H 0.4130 0.0626 0.5006
H17B H 0.3902 -0.1637 0.4643
H18B H 0.2512 -0.3119 0.4748
H19B H 0.1000 -0.0547 0.7592
H20B H 0.2096 0.0378 0.7674
H21B H 0.2465 -0.2044 0.7666
H22B H 0.1690 -0.2075 0.7051
H23B H 0.3015 -0.2661 0.6672
H24B H 0.4326 -0.3286 0.6183
H25B H 0.5960 -0.2923 0.5934
H26B H 0.7088 -0.0953 0.6260
H27B H 0.6642 0.0596 0.6851
H28B H 0.1646 0.3744 0.6068
H29B H 0.0590 -0.2061 0.5422
H30B H 0.4283 0.0150 0.7311
O2_2 O -0.1027(3) 0.2561(3) 0.4768(1)
O2B_2 O 0.1027(3) 0.7439(3) 0.5232(1)
Ba1_2 Ba 0.0000 1.5000 0.5000
Ba1_3 Ba 0.0000 -0.5000 0.5000
H29_2 H -0.0590 0.2061 0.4578
H29B_2 H 0.0590 0.7939 0.5422
Cl1 Cl 0.0886(1) 0.4407(1) 0.3839(1)
O4 O 0.0917(4) 0.3385(4) 0.4258(2)
O5 O 0.0465(4) 0.5689(4) 0.3999(1)
O6 O 0.1973(4) 0.4664(7) 0.3804(2)
O7 O 0.0124(5) 0.4000(6) 0.3331(2)
loop_
_geom_bond_atom_site_label_1
_geom_bond_atom_site_label_2
_geom_bond_site_symmetry_1
_geom_bond_site_symmetry_2
Ba1 O1 1_555 1_555
Cl1 O4 1_555 1_555
N1 C7 1_555 1_555
N2 C9 1_555 1_555
N3 C20 1_555 1_555
N4 C11 1_555 1_555
O1 C1 1_555 1_555
O2 C18 1_555 1_555
O3 C27 1_555 1_555
O5 Cl1 1_555 1_555
O6 Cl1 1_555 1_555
O7 Cl1 1_555 1_555
C1 C2 1_555 1_555
C2 C3 1_555 1_555
C3 C4 1_555 1_555
C4 C5 1_555 1_555
C5 C6 1_555 1_555
C6 C1 1_555 1_555
C7 C6 1_555 1_555
C8 N1 1_555 1_555
C9 C8 1_555 1_555
C10 N2 1_555 1_555
C11 C10 1_555 1_555
C12 N4 1_555 1_555
C13 C12 1_555 1_555
C14 C13 1_555 1_555
C15 C14 1_555 1_555
C16 C15 1_555 1_555
C17 C16 1_555 1_555
C18 C13 1_555 1_555
C19 N2 1_555 1_555
C20 C19 1_555 1_555
C21 N3 1_555 1_555
C22 C21 1_555 1_555
C23 C22 1_555 1_555
C24 C23 1_555 1_555
C25 C24 1_555 1_555
C26 C25 1_555 1_555
C27 C22 1_555 1_555
H1 C2 1_555 1_555
H2 C3 1_555 1_555
H3 C4 1_555 1_555
H4 C5 1_555 1_555
H5 C7 1_555 1_555
H6 C8 1_555 1_555
H7 C8 1_555 1_555
H8 C9 1_555 1_555
H9 C9 1_555 1_555
H10 C10 1_555 1_555
H11 C10 1_555 1_555
H12 C11 1_555 1_555
H13 C11 1_555 1_555
H14 C12 1_555 1_555
H15 C14 1_555 1_555
H16 C15 1_555 1_555
H17 C16 1_555 1_555
H18 C17 1_555 1_555
H19 C19 1_555 1_555
H20 C19 1_555 1_555
H21 C20 1_555 1_555
H22 C20 1_555 1_555
H23 C21 1_555 1_555
H24 C23 1_555 1_555
H25 C24 1_555 1_555
H26 C25 1_555 1_555
H27 C26 1_555 1_555
H28 O1 1_555 1_555
H29 O2 1_555 1_555
H30 O3 1_555 1_555
N1B C7B 1_555 1_555
N2B C9B 1_555 1_555
N3B C20B 1_555 1_555
N4B C11B 1_555 1_555
O1B Ba1 1_555 1_555
O2B C18B 1_555 1_555
O3B C27B 1_555 1_555
C1B O1B 1_555 1_555
C2B C1B 1_555 1_555
C3B C2B 1_555 1_555
C4B C3B 1_555 1_555
C5B C4B 1_555 1_555
C6B C1B 1_555 1_555
C7B C6B 1_555 1_555
C8B N1B 1_555 1_555
C9B C8B 1_555 1_555
C10B N2B 1_555 1_555
C11B C10B 1_555 1_555
C12B N4B 1_555 1_555
C13B C12B 1_555 1_555
C14B C13B 1_555 1_555
C15B C14B 1_555 1_555
C16B C15B 1_555 1_555
C17B C16B 1_555 1_555
C18B C13B 1_555 1_555
C19B N2B 1_555 1_555
C20B C19B 1_555 1_555
C21B N3B 1_555 1_555
C22B C21B 1_555 1_555
C23B C22B 1_555 1_555
C24B C23B 1_555 1_555
C25B C24B 1_555 1_555
C26B C25B 1_555 1_555
C27B C22B 1_555 1_555
H1B C2B 1_555 1_555
H2B C3B 1_555 1_555
H3B C4B 1_555 1_555
H4B C5B 1_555 1_555
H5B C7B 1_555 1_555
H6B C8B 1_555 1_555
H7B C8B 1_555 1_555
H8B C9B 1_555 1_555
H9B C9B 1_555 1_555
H10B C10B 1_555 1_555
H11B C10B 1_555 1_555
H12B C11B 1_555 1_555
H13B C11B 1_555 1_555
H14B C12B 1_555 1_555
H15B C14B 1_555 1_555
H16B C15B 1_555 1_555
H17B C16B 1_555 1_555
H18B C17B 1_555 1_555
H19B C19B 1_555 1_555
H20B C19B 1_555 1_555
H21B C20B 1_555 1_555
H22B C20B 1_555 1_555
H23B C21B 1_555 1_555
H24B C23B 1_555 1_555
H25B C24B 1_555 1_555
H26B C25B 1_555 1_555
H27B C26B 1_555 1_555
H28B O1B 1_555 1_555
H29B O2B 1_555 1_555
H30B O3B 1_555 1_555
O2_2 Ba1 1_555 1_555
O2B_2 Ba1 1_555 1_555
Ba1_2 O2 1_555 1_555
Ba1_3 O2B 1_555 1_555
H29_2 O2_2 1_555 1_555
H29B_2 O2B_2 1_555 1_555
C17 C18 1_555 1_555
C26 C27 1_555 1_555
C5B C6B 1_555 1_555
C17B C18B 1_555 1_555
C26B C27B 1_555 1_555

#END
