
#######################################################################
#
#                 Cambridge Crystallographic Data Centre
#                                CCDC 
#
#######################################################################
#
# If this CIF has been generated from an entry in the Cambridge 
# Structural Database, then it will include bibliographic, chemical, 
# crystal, experimental, refinement or atomic coordinate data resulting 
# from the CCDC's data processing and validation procedures.
#
#######################################################################

data_YONYAD
_symmetry_cell_setting           rhombohedral
_symmetry_space_group_name_H-M   'R -3'
_symmetry_Int_Tables_number      148
_space_group_name_Hall           '-R 3'
loop_
_symmetry_equiv_pos_site_id
_symmetry_equiv_pos_as_xyz
1 x,y,z
2 -y,x-y,z
3 -x+y,-x,z
4 2/3+x,1/3+y,1/3+z
5 2/3-y,1/3+x-y,1/3+z
6 2/3-x+y,1/3-x,1/3+z
7 1/3+x,2/3+y,2/3+z
8 1/3-y,2/3+x-y,2/3+z
9 1/3-x+y,2/3-x,2/3+z
10 -x,-y,-z
11 y,-x+y,-z
12 x-y,x,-z
13 1/3-x,2/3-y,2/3-z
14 1/3+y,2/3-x+y,2/3-z
15 1/3+x-y,2/3+x,2/3-z
16 2/3-x,1/3-y,1/3-z
17 2/3+y,1/3-x+y,1/3-z
18 2/3+x-y,1/3+x,1/3-z
_cell_length_a                   31.736(5)
_cell_length_b                   31.736(5)
_cell_length_c                   6.7595(14)
_cell_angle_alpha                90
_cell_angle_beta                 90
_cell_angle_gamma                120
_cell_volume                     5895.89
loop_
_atom_site_label
_atom_site_type_symbol
_atom_site_fract_x
_atom_site_fract_y
_atom_site_fract_z
Cd1 Cd 0.720966(7) 0.075902(6) 0.95881(3)
C1 C 0.77670(8) 0.14426(9) 0.6010(4)
C2 C 0.77209(9) 0.17717(9) 0.7468(3)
C3 C 0.78930(9) 0.22630(9) 0.7489(3)
C4 C 0.81895(11) 0.26614(10) 0.6076(4)
H1 H 0.8159 0.2940 0.6383
H2 H 0.8076 0.2555 0.4753
H3 H 0.8524 0.2746 0.6179
C5 C 0.77896(10) 0.27787(9) 1.0079(4)
C6 C 0.74080(13) 0.28703(12) 1.0056(5)
H4 H 0.7114 0.2656 0.9453
C7 C 0.74758(17) 0.32903(14) 1.0955(6)
H5 H 0.7225 0.3362 1.0950
C8 C 0.79080(18) 0.36031(13) 1.1852(5)
H6 H 0.7947 0.3885 1.2443
C9 C 0.82833(15) 0.35073(12) 1.1892(5)
H7 H 0.8574 0.3720 1.2521
C10 C 0.82260(12) 0.30904(11) 1.0987(5)
H8 H 0.8478 0.3021 1.0992
Cl1 Cl 0.67084(2) 0.06005(2) 1.27634(9)
N1 N 0.74592(8) 0.15777(7) 0.9148(3)
N2 N 0.74546(9) 0.19133(8) 1.0233(3)
N3 N 0.77218(8) 0.23353(8) 0.9220(3)
O1 O 0.79707(7) 0.16189(6) 0.4400(3)
O2 O 0.75913(7) 0.10036(6) 0.6525(3)
O3 O 0.65089(7) 0.05583(7) 0.7846(3)
H9 H 0.6177 0.0333 0.8253
H10 H 0.6529 0.0469 0.6729
O4 O 0.79347(7) 0.10334(6) 1.1370(3)
H11 H 0.8166 0.1221 1.0681
H12 H 0.7936 0.1192 1.2328
Cd1D Cd 0.590765(6) -0.021603(9) 1.29214(3)
Cl1H Cl 0.72254(3) -0.00417(2) 0.94301(9)
loop_
_geom_bond_atom_site_label_1
_geom_bond_atom_site_label_2
_geom_bond_site_symmetry_1
_geom_bond_site_symmetry_2
Cd1 Cl1 1_555 1_555
C1 C2 1_555 1_555
C2 C3 1_555 1_555
C3 C4 1_555 1_555
C4 H1 1_555 1_555
H2 C4 1_555 1_555
H3 C4 1_555 1_555
C5 C6 1_555 1_555
C6 H4 1_555 1_555
C7 C6 1_555 1_555
H5 C7 1_555 1_555
C8 C7 1_555 1_555
H6 C8 1_555 1_555
C9 C8 1_555 1_555
H7 C9 1_555 1_555
C10 C5 1_555 1_555
H8 C10 1_555 1_555
Cl1 Cd1D 1_555 1_555
N1 Cd1 1_555 1_555
N2 N1 1_555 1_555
N3 C3 1_555 1_555
O1 C1 1_555 1_555
O2 Cd1 1_555 1_555
O3 Cd1 1_555 1_555
H9 O3 1_555 1_555
H10 O3 1_555 1_555
O4 Cd1 1_555 1_555
H11 O4 1_555 1_555
H12 O4 1_555 1_555
Cl1H Cd1 1_555 1_555
C1 O2 1_555 1_555
C2 N1 1_555 1_555
C5 N3 1_555 1_555
C9 C10 1_555 1_555
N2 N3 1_555 1_555

#END
