
#######################################################################
#
#                 Cambridge Crystallographic Data Centre
#                                CCDC 
#
#######################################################################
#
# If this CIF has been generated from an entry in the Cambridge 
# Structural Database, then it will include bibliographic, chemical, 
# crystal, experimental, refinement or atomic coordinate data resulting 
# from the CCDC's data processing and validation procedures.
#
#######################################################################

data_YONZAC01
_symmetry_cell_setting           triclinic
_symmetry_space_group_name_H-M   'P -1'
_symmetry_Int_Tables_number      2
_space_group_name_Hall           '-P 1'
loop_
_symmetry_equiv_pos_site_id
_symmetry_equiv_pos_as_xyz
1 x,y,z
2 -x,-y,-z
_cell_length_a                   12.248(2)
_cell_length_b                   14.045(2)
_cell_length_c                   15.606(2)
_cell_angle_alpha                94.15(1)
_cell_angle_beta                 92.14(1)
_cell_angle_gamma                112.03(1)
_cell_volume                     2476.02
loop_
_atom_site_label
_atom_site_type_symbol
_atom_site_fract_x
_atom_site_fract_y
_atom_site_fract_z
Mn1 Mn 0.7970(1) 0.01118(9) 0.25739(9)
Mn2 Mn 1.0000 0.00000 0.00000
Mn3 Mn 0.5000 0.00000 0.50000
O1 O 1.0664(4) -0.1000(4) 0.0058(4)
O2 O 0.8561(5) -0.1140(4) 0.2152(4)
O3 O 0.9450(5) -0.0218(3) 0.1108(4)
O4 O 0.4278(4) -0.1412(4) 0.5055(4)
O5 O 0.7240(4) -0.0889(4) 0.3595(4)
O6 O 0.6248(4) -0.0159(4) 0.4362(4)
O9 O 0.8402(5) 0.1212(4) 0.1599(4)
O10 O 0.7326(5) 0.1232(4) 0.3186(4)
N1 N 0.6177(6) -0.0783(6) 0.1837(5)
N2 N 0.9782(6) 0.0929(5) 0.3266(5)
N3 N 1.1751(5) 0.1283(5) 0.0575(5)
N4 N 0.3918(6) -0.0099(5) 0.3702(5)
C1 C 1.0296(6) -0.1802(6) 0.0538(5)
C2 C 1.0692(7) -0.2592(6) 0.0345(6)
C3 C 1.0352(8) -0.3446(6) 0.0795(6)
C4 C 0.9624(8) -0.3542(6) 0.1467(6)
C5 C 0.9225(7) -0.2748(6) 0.1676(6)
C6 C 0.9572(6) -0.1872(5) 0.1217(5)
C7 C 0.9137(6) -0.1055(6) 0.1504(5)
C8 C 0.4633(7) -0.2154(6) 0.4771(5)
C9 C 0.3967(7) -0.3163(6) 0.4982(6)
C10 C 0.4254(9) -0.3986(7) 0.4691(7)
C11 C 0.5224(9) -0.3833(6) 0.4193(7)
C12 C 0.5889(7) -0.2848(6) 0.4007(6)
C13 C 0.5629(6) -0.1985(6) 0.4291(5)
C14 C 0.6407(7) -0.0968(6) 0.4066(5)
C15 C 0.5572(8) -0.0310(8) 0.1423(7)
C16 C 0.4470(9) -0.084(1) 0.1046(9)
C17 C 0.3988(9) -0.189(1) 0.1051(9)
C18 C 0.458(1) -0.2396(9) 0.1446(8)
C19 C 0.5703(9) -0.1819(7) 0.1826(7)
C20 C 1.0354(9) 0.1936(8) 0.3220(7)
C21 C 1.148(1) 0.2461(9) 0.361(8)
C22 C 1.198(1) 0.1952(9) 0.4084(8)
C23 C 1.1390(9) 0.0929(9) 0.4156(8)
C24 C 1.0263(8) 0.0418(8) 0.3752(7)
C25 C 1.2766(7) 0.1303(8) 0.0302(7)
C26 C 1.3802(9) 0.214(1) 0.0539(8)
C27 C 1.3777(9) 0.2938(8) 0.1099(8)
C28 C 1.2729(9) 0.2869(8) 0.1395(9)
C29 C 1.1730(8) 0.2014(7) 0.1123(8)
C30 C 0.4126(8) 0.0706(7) 0.3251(6)
C31 C 0.3456(9) 0.0738(8) 0.2539(7)
C32 C 0.2473(9) -0.0181(8) 0.2261(7)
C33 C 0.2302(9) -0.1024(9) 0.2690(7)
C34 C 0.3029(8) -0.0975(8) 0.3406(7)
O1A O 0.9336(4) 0.1000(4) -0.0058(4)
O2A O 1.1439(5) 0.1140(4) -0.2152(4)
O3A O 1.0550(5) 0.0218(3) -0.1108(4)
C1A C 0.9704(6) 0.1802(6) -0.0538(5)
C2A C 0.9308(7) 0.2592(6) -0.0345(6)
C3A C 0.9648(8) 0.3446(6) -0.0795(6)
C4A C 1.0376(8) 0.3542(6) -0.1467(6)
C5A C 1.0775(7) 0.2748(6) -0.1676(6)
C6A C 1.0428(6) 0.1872(5) -0.1217(5)
C7A C 1.0863(6) 0.1055(6) -0.1504(5)
N3A N 0.8249(5) -0.1283(5) -0.0575(5)
C25A C 0.7234(7) -0.1303(8) -0.0302(7)
C26A C 0.6198(9) -0.214(1) -0.0539(8)
C27A C 0.6223(9) -0.2938(8) -0.1099(8)
C28A C 0.7271(9) -0.2869(8) -0.1395(9)
C29A C 0.8270(8) -0.2014(7) -0.1123(8)
Mn1A Mn 1.2030(1) -0.01118(9) -0.25739(9)
O4A O 1.5722(4) 0.1412(4) -0.5055(4)
O5A O 1.2760(4) 0.0889(4) -0.3595(4)
O6A O 1.3752(4) 0.0159(4) -0.4362(4)
C8A C 1.5367(7) 0.2154(6) -0.4771(5)
C9A C 1.6033(7) 0.3163(6) -0.4982(6)
C10A C 1.5746(9) 0.3986(7) -0.4691(7)
C11A C 1.4776(9) 0.3833(6) -0.4193(7)
C12A C 1.4111(7) 0.2848(6) -0.4007(6)
C13A C 1.4371(6) 0.1985(6) -0.4291(5)
C14A C 1.3593(7) 0.0968(6) -0.4066(5)
O9A O 1.1598(5) -0.1212(4) -0.1599(4)
O10A O 1.2674(5) -0.1232(4) -0.3186(4)
N1A N 1.3823(6) 0.0783(6) -0.1837(5)
C15A C 1.4428(8) 0.0310(8) -0.1423(7)
C16A C 1.5530(9) 0.084(1) -0.1046(9)
C17A C 1.6012(9) 0.189(1) -0.1051(9)
C18A C 1.542(1) 0.2396(9) -0.1446(8)
C19A C 1.4297(9) 0.1819(7) -0.1826(7)
N2A N 1.0218(6) -0.0929(5) -0.3266(5)
C20A C 0.9646(9) -0.1936(8) -0.3220(7)
C21A C 0.852(1) -0.2461(9) -0.361(8)
C22A C 0.802(1) -0.1952(9) -0.4084(8)
C23A C 0.8610(9) -0.0929(9) -0.4156(8)
C24A C 0.9737(8) -0.0418(8) -0.3752(7)
N4A N 0.6082(6) 0.0099(5) 0.6298(5)
C30A C 0.5874(8) -0.0706(7) 0.6749(6)
C31A C 0.6544(9) -0.0738(8) 0.7461(7)
C32A C 0.7527(9) 0.0181(8) 0.7739(7)
C33A C 0.7698(9) 0.1024(9) 0.7310(7)
C34A C 0.6971(8) 0.0975(8) 0.6594(7)
O4A_2 O 0.5722(4) 0.1412(4) 0.4945(4)
O6A_2 O 0.3752(4) 0.0159(4) 0.5638(4)
Mn3_2 Mn 1.5000 0.00000 -0.50000
O7 O 0.7051(6) 0.2903(4) 0.2674(4)
O8 O 0.7366(5) 0.2516(4) 0.1319(5)
O11 O 0.6414(6) 0.4391(5) 0.3029(4)
C45 C 0.6511(7) 0.4568(6) 0.2183(6)
C46 C 0.6238(8) 0.5381(6) 0.1903(7)
C47 C 0.6309(8) 0.5561(7) 0.1049(7)
C48 C 0.6646(8) 0.4977(7) 0.0467(7)
C49 C 0.6929(7) 0.4185(7) 0.0754(6)
C50 C 0.6866(6) 0.3964(6) 0.1601(6)
C51 C 0.7116(7) 0.3057(6) 0.1880(6)
N5 N 0.2344(8) 0.5351(7) 0.1784(7)
C35 C 0.1333(9) 0.4584(7) 0.1466(8)
C36 C 0.0382(9) 0.4215(7) 0.1930(8)
C37 C 0.041(1) 0.455(1) 0.2773(9)
C38 C 0.144(1) 0.530(1) 0.3116(9)
C39 C 0.235(1) 0.565(1) 0.2621(8)
N6 N 1.122(1) 0.353(1) 0.5965(9)
C40 C 1.061(1) 0.2479(9) 0.5939(9)
C41 C 0.962(1) 0.206(1) 0.552(1)
C42 C 0.919(1) 0.261(1) 0.505(1)
C43 C 0.979(1) 0.366(1) 0.502(1)
C44 C 1.077(1) 0.4082(9) 0.546(1)
loop_
_geom_bond_atom_site_label_1
_geom_bond_atom_site_label_2
_geom_bond_site_symmetry_1
_geom_bond_site_symmetry_2
Mn1 O2 1_555 1_555
Mn2 O1 1_555 1_555
Mn3 O4 1_555 1_555
O1 C1 1_555 1_555
O2 C7 1_555 1_555
O3 Mn2 1_555 1_555
O4 C8 1_555 1_555
O5 Mn1 1_555 1_555
O6 Mn3 1_555 1_555
O7 C51 1_555 1_555
O8 C51 1_555 1_555
O9 Mn1 1_555 1_555
O10 Mn1 1_555 1_555
O11 C45 1_555 1_555
N1 Mn1 1_555 1_555
N2 Mn1 1_555 1_555
N3 Mn2 1_555 1_555
N4 Mn3 1_555 1_555
C1 C2 1_555 1_555
C2 C3 1_555 1_555
C3 C4 1_555 1_555
C4 C5 1_555 1_555
C5 C6 1_555 1_555
C6 C1 1_555 1_555
C7 O3 1_555 1_555
C8 C9 1_555 1_555
C9 C10 1_555 1_555
C10 C11 1_555 1_555
C11 C12 1_555 1_555
C12 C13 1_555 1_555
C13 C8 1_555 1_555
C14 O5 1_555 1_555
C15 N1 1_555 1_555
C16 C15 1_555 1_555
C17 C16 1_555 1_555
C18 C17 1_555 1_555
C19 N1 1_555 1_555
C20 N2 1_555 1_555
C21 C20 1_555 1_555
C22 C21 1_555 1_555
C23 C22 1_555 1_555
C24 N2 1_555 1_555
C25 N3 1_555 1_555
C26 C25 1_555 1_555
C27 C26 1_555 1_555
C28 C27 1_555 1_555
C29 N3 1_555 1_555
C30 N4 1_555 1_555
C31 C30 1_555 1_555
C32 C31 1_555 1_555
C33 C32 1_555 1_555
C34 N4 1_555 1_555
N5 C35 1_555 1_555
N6 C40 1_555 1_555
C35 C36 1_555 1_555
C36 C37 1_555 1_555
C37 C38 1_555 1_555
C38 C39 1_555 1_555
C39 N5 1_555 1_555
C40 C41 1_555 1_555
C41 C42 1_555 1_555
C42 C43 1_555 1_555
C43 C44 1_555 1_555
C44 N6 1_555 1_555
C45 C46 1_555 1_555
C46 C47 1_555 1_555
C47 C48 1_555 1_555
C48 C49 1_555 1_555
C49 C50 1_555 1_555
C50 C45 1_555 1_555
C51 C50 1_555 1_555
O1A Mn2 1_555 1_555
O2A C7A 1_555 1_555
O3A Mn2 1_555 1_555
C1A O1A 1_555 1_555
C2A C1A 1_555 1_555
C3A C2A 1_555 1_555
C4A C3A 1_555 1_555
C5A C4A 1_555 1_555
C6A C1A 1_555 1_555
C7A O3A 1_555 1_555
N3A Mn2 1_555 1_555
C25A N3A 1_555 1_555
C26A C25A 1_555 1_555
C27A C26A 1_555 1_555
C28A C27A 1_555 1_555
C29A N3A 1_555 1_555
Mn1A O2A 1_555 1_555
O4A C8A 1_555 1_555
O5A Mn1A 1_555 1_555
O6A C14A 1_555 1_555
C8A C9A 1_555 1_555
C9A C10A 1_555 1_555
C10A C11A 1_555 1_555
C11A C12A 1_555 1_555
C12A C13A 1_555 1_555
C13A C8A 1_555 1_555
C14A O5A 1_555 1_555
O9A Mn1A 1_555 1_555
O10A Mn1A 1_555 1_555
N1A Mn1A 1_555 1_555
C15A N1A 1_555 1_555
C16A C15A 1_555 1_555
C17A C16A 1_555 1_555
C18A C17A 1_555 1_555
C19A N1A 1_555 1_555
N2A Mn1A 1_555 1_555
C20A N2A 1_555 1_555
C21A C20A 1_555 1_555
C22A C21A 1_555 1_555
C23A C22A 1_555 1_555
C24A N2A 1_555 1_555
N4A Mn3 1_555 1_555
C30A N4A 1_555 1_555
C31A C30A 1_555 1_555
C32A C31A 1_555 1_555
C33A C32A 1_555 1_555
C34A N4A 1_555 1_555
O4A_2 Mn3 1_555 1_555
O6A_2 Mn3 1_555 1_555
Mn3_2 O4A 1_555 1_555
O6 C14 1_555 1_555
C6 C7 1_555 1_555
C13 C14 1_555 1_555
C18 C19 1_555 1_555
C23 C24 1_555 1_555
C28 C29 1_555 1_555
C33 C34 1_555 1_555
C5A C6A 1_555 1_555
C6A C7A 1_555 1_555
C28A C29A 1_555 1_555
O6A Mn3_2 1_555 1_555
C13A C14A 1_555 1_555
C18A C19A 1_555 1_555
C23A C24A 1_555 1_555
C33A C34A 1_555 1_555

#END
