
#######################################################################
#
#                 Cambridge Crystallographic Data Centre
#                                CCDC 
#
#######################################################################
#
# If this CIF has been generated from an entry in the Cambridge 
# Structural Database, then it will include bibliographic, chemical, 
# crystal, experimental, refinement or atomic coordinate data resulting 
# from the CCDC's data processing and validation procedures.
#
#######################################################################

data_YOPLUL
_symmetry_cell_setting           triclinic
_symmetry_space_group_name_H-M   'P -1'
_symmetry_Int_Tables_number      2
_space_group_name_Hall           '-P 1'
loop_
_symmetry_equiv_pos_site_id
_symmetry_equiv_pos_as_xyz
1 x,y,z
2 -x,-y,-z
_cell_length_a                   7.7668(11)
_cell_length_b                   9.4601(13)
_cell_length_c                   12.5416(17)
_cell_angle_alpha                73.368(2)
_cell_angle_beta                 84.736(2)
_cell_angle_gamma                71.367(2)
_cell_volume                     836.658
loop_
_atom_site_label
_atom_site_type_symbol
_atom_site_fract_x
_atom_site_fract_y
_atom_site_fract_z
Co1 Co 0.03807(5) 0.08408(4) -0.19436(3)
O1 O 0.2852(3) -0.0127(2) -0.09236(17)
O2 O 0.2523(3) -0.1220(2) -0.21687(18)
O3 O 0.9111(3) -0.7491(2) -0.11666(16)
O4 O 0.6831(3) -0.6294(3) -0.23673(19)
N1 N 0.1511(3) 0.2252(3) -0.32601(19)
N2 N -0.1105(3) 0.0985(3) -0.33037(19)
O5 O -0.0861(3) -0.0688(2) -0.08343(16)
H1 H -0.1637 -0.0363 -0.0282
H2 H -0.0631 -0.1688 -0.0897
C1 C 0.7672(4) -0.6374(3) -0.1568(2)
C2 C 0.5047(4) -0.2567(3) -0.0940(2)
C3 C 0.5608(4) -0.3786(3) -0.1428(2)
H3 H 0.4997 -0.3734 -0.2049
C4 C 0.3396(4) -0.1233(3) -0.1372(2)
C5 C 0.7072(4) -0.5084(3) -0.0999(2)
C6 C -0.0620(4) 0.1809(3) -0.4285(2)
C7 C 0.0787(4) 0.2495(3) -0.4270(2)
C8 C 0.7951(4) -0.5148(3) -0.0062(2)
H4 H 0.8919 -0.6017 0.0243
C9 C -0.1384(4) 0.1994(3) -0.5305(2)
C10 C 0.7403(4) -0.3929(4) 0.0422(3)
H5 H 0.8010 -0.3980 0.1045
C11 C 0.2841(4) 0.2844(4) -0.3229(3)
H6 H 0.3360 0.2671 -0.2546
C12 C 0.5950(4) -0.2631(3) -0.0017(2)
H7 H 0.5586 -0.1811 0.0306
C13 C 0.0558(5) 0.3495(4) -0.6285(3)
H8 H 0.0948 0.4050 -0.6949
C14 C -0.2370(4) 0.0326(4) -0.3300(3)
H9 H -0.2715 -0.0236 -0.2624
C15 C 0.1373(4) 0.3334(3) -0.5265(2)
C16 C -0.2727(4) 0.1269(4) -0.5272(3)
H10 H -0.3280 0.1355 -0.5924
C17 C -0.0762(5) 0.2863(4) -0.6312(2)
H11 H -0.1272 0.2993 -0.6989
C18 C -0.3207(4) 0.0439(4) -0.4269(3)
H12 H -0.4087 -0.0048 -0.4235
C19 C 0.3485(5) 0.3711(4) -0.4179(3)
H13 H 0.4403 0.4121 -0.4123
C20 C 0.2764(5) 0.3959(4) -0.5193(3)
H14 H 0.3188 0.4537 -0.5832
Co1_2 Co 1.03807(5) -0.91592(4) -0.19436(3)
O3_2 O -0.0889(3) 0.2509(2) -0.11666(16)
loop_
_geom_bond_atom_site_label_1
_geom_bond_atom_site_label_2
_geom_bond_site_symmetry_1
_geom_bond_site_symmetry_2
Co1 O1 1_555 1_555
O1 C4 1_555 1_555
O2 Co1 1_555 1_555
O3 C1 1_555 1_555
O4 C1 1_555 1_555
N1 Co1 1_555 1_555
N2 Co1 1_555 1_555
O5 Co1 1_555 1_555
H1 O5 1_555 1_555
H2 O5 1_555 1_555
C1 C5 1_555 1_555
C2 C3 1_555 1_555
C3 H3 1_555 1_555
C4 O2 1_555 1_555
C5 C3 1_555 1_555
C6 N2 1_555 1_555
C7 N1 1_555 1_555
C8 C5 1_555 1_555
H4 C8 1_555 1_555
C9 C6 1_555 1_555
C10 C8 1_555 1_555
H5 C10 1_555 1_555
C11 N1 1_555 1_555
H6 C11 1_555 1_555
C12 C2 1_555 1_555
H7 C12 1_555 1_555
C13 H8 1_555 1_555
C14 N2 1_555 1_555
H9 C14 1_555 1_555
C15 C7 1_555 1_555
C16 C9 1_555 1_555
H10 C16 1_555 1_555
C17 C9 1_555 1_555
H11 C17 1_555 1_555
C18 C14 1_555 1_555
H12 C18 1_555 1_555
C19 C11 1_555 1_555
H13 C19 1_555 1_555
C20 C15 1_555 1_555
H14 C20 1_555 1_555
Co1_2 O3 1_555 1_555
O3_2 Co1 1_555 1_555
C2 C4 1_555 1_555
C6 C7 1_555 1_555
C10 C12 1_555 1_555
C13 C15 1_555 1_555
C13 C17 1_555 1_555
C16 C18 1_555 1_555
C19 C20 1_555 1_555

#END
