
#######################################################################
#
#                 Cambridge Crystallographic Data Centre
#                                CCDC 
#
#######################################################################
#
# If this CIF has been generated from an entry in the Cambridge 
# Structural Database, then it will include bibliographic, chemical, 
# crystal, experimental, refinement or atomic coordinate data resulting 
# from the CCDC's data processing and validation procedures.
#
#######################################################################

data_YOPLEV
_symmetry_cell_setting           orthorhombic
_symmetry_space_group_name_H-M   'P c a n'
_symmetry_Int_Tables_number      60
_space_group_name_Hall           '-P 2n 2c'
loop_
_symmetry_equiv_pos_site_id
_symmetry_equiv_pos_as_xyz
1 x,y,z
2 1/2-x,1/2-y,1/2+z
3 x,-y,1/2-z
4 1/2-x,1/2+y,-z
5 -x,-y,-z
6 1/2+x,1/2+y,1/2-z
7 -x,y,1/2+z
8 1/2+x,1/2-y,z
_cell_length_a                   6.8274(6)
_cell_length_b                   12.1367(11)
_cell_length_c                   21.808(2)
_cell_angle_alpha                90
_cell_angle_beta                 90
_cell_angle_gamma                90
_cell_volume                     1807.06
loop_
_atom_site_label
_atom_site_type_symbol
_atom_site_fract_x
_atom_site_fract_y
_atom_site_fract_z
Cu1 Cu 0.52713(9) -0.95103(4) 0.56209(3)
Cu2 Cu -0.00745(11) -0.5000 0.2500
O1 O 0.2637(6) -0.8440(3) 0.58524(15)
O2 O 0.1888(6) -0.6686(3) 0.58834(15)
O3 O 0.0785(5) -0.5815(3) 0.47620(14)
O4 O -0.0073(5) -0.5178(3) 0.35814(16)
O5 O -0.0020(5) -0.6481(3) 0.29001(15)
N1 N 0.2902(9) -0.5000 0.2500
N2 N 0.6957(8) -0.5000 0.2500
C1 C 0.1202(7) -0.2272(4) 0.0050(2)
C2 C 0.1000(7) -0.1199(4) 0.0267(2)
H1 H 0.1263 -0.0616 0.0002
C3 C 0.0419(8) -0.0966(4) 0.0864(2)
H2 H 0.0227 -0.0242 0.0991
C4 C 0.0132(7) -0.1835(4) 0.1267(2)
H3 H -0.0173 -0.1687 0.1675
C5 C 0.0292(7) -0.2929(4) 0.1073(2)
C6 C 0.0759(7) -0.3152(4) 0.0449(2)
C7 C 0.1938(7) -0.7613(4) 0.5600(2)
C8 C 0.0037(6) -0.6200(4) 0.3459(2)
C9 C 0.3913(7) -0.5695(4) 0.2145(2)
H4 H 0.3244 -0.6186 0.1892
C10 C 0.5948(8) -0.5695(4) 0.2147(2)
H5 H 0.6619 -0.3812 0.3103
Cu1C Cu -0.02713(9) -0.45103(4) 0.43791(3)
Cu1G Cu 0.02713(9) -0.54897(4) 0.56209(3)
Cu1A Cu -0.02713(9) -0.54897(4) 0.06209(3)
Cu1B Cu 0.52713(9) -0.04897(4) -0.06209(3)
Cu1E Cu 0.02713(9) -0.45103(4) -0.06209(3)
Cu2_2 Cu 0.99255(11) -0.5000 0.2500
O1B O 0.2637(6) -0.1560(3) -0.08524(15)
O2G O 0.6888(6) -0.8314(3) 0.58834(15)
O2E O 0.6888(6) -0.1686(3) -0.08834(15)
O2B O 0.1888(6) -0.3314(3) -0.08834(15)
O3B O 0.0785(5) -0.4185(3) 0.02380(14)
O3E O 0.5785(5) -0.0815(3) 0.02380(14)
O3A O 0.4215(5) 0.0815(3) -0.02380(14)
O3G O 0.5785(5) -0.9185(3) 0.47620(14)
O3C O 0.4215(5) -1.0815(3) 0.52380(14)
O4B O -0.0073(5) -0.4822(3) 0.14186(16)
O4A O 0.5073(5) 0.0178(3) -0.14186(16)
O4C O 0.5073(5) -1.0178(3) 0.64186(16)
O5B O -0.0020(5) -0.3519(3) 0.20999(15)
N2_2 N -0.3043(8) -0.5000 0.2500
C1B C 0.1202(7) -0.7728(4) 0.4950(2)
C2B C 0.1000(7) -0.8801(4) 0.4733(2)
H1B H 0.1263 -0.9384 0.4998
C3B C 0.0419(8) -0.9034(4) 0.4136(2)
H2B H 0.0227 -0.9758 0.4009
C4B C 0.0132(7) -0.8165(4) 0.3733(2)
H3B H -0.0173 -0.8313 0.3325
C5B C 0.0292(7) -0.7071(4) 0.3927(2)
C6B C 0.0759(7) -0.6848(4) 0.4551(2)
C7B C 0.1938(7) -0.2387(4) -0.0600(2)
C8B C 0.0037(6) -0.3800(4) 0.1541(2)
C9B C 0.3913(7) -0.4305(4) 0.2855(2)
H4B H 0.3244 -0.3814 0.3108
C10B C 0.5948(8) -0.4305(4) 0.2853(2)
H5B H 0.6619 -0.6188 0.1897
loop_
_geom_bond_atom_site_label_1
_geom_bond_atom_site_label_2
_geom_bond_site_symmetry_1
_geom_bond_site_symmetry_2
Cu1 O1 1_555 1_555
Cu2 O4 1_555 1_555
O1 C7 1_555 1_555
O2 C7 1_555 1_555
O3 Cu1C 1_555 1_555
O4 C8 1_555 1_555
O5 Cu2 1_555 1_555
N1 Cu2 1_555 1_555
N2 C10 1_555 1_555
C1 C2 1_555 1_555
C2 H1 1_555 1_555
C3 C2 1_555 1_555
H2 C3 1_555 1_555
C4 C3 1_555 1_555
H3 C4 1_555 1_555
C5 C4 1_555 1_555
C6 C1 1_555 1_555
C7 C1B 1_555 1_555
C8 O5 1_555 1_555
C9 N1 1_555 1_555
H4 C9 1_555 1_555
C10 C9 1_555 1_555
H5 C10B 1_555 1_555
Cu1C O4 1_555 1_555
Cu1G O2 1_555 1_555
Cu1A O3B 1_555 1_555
Cu1B O1B 1_555 1_555
Cu1E O2B 1_555 1_555
Cu2_2 N2 1_555 1_555
O1B C7B 1_555 1_555
O2G Cu1 1_555 1_555
O2E Cu1B 1_555 1_555
O2B C7B 1_555 1_555
O3B C6 1_555 1_555
O3E Cu1B 1_555 1_555
O3A Cu1B 1_555 1_555
O3G Cu1 1_555 1_555
O3C Cu1 1_555 1_555
O4B Cu2 1_555 1_555
O4A Cu1B 1_555 1_555
O4C Cu1 1_555 1_555
O5B Cu2 1_555 1_555
N2_2 Cu2 1_555 1_555
C1B C2B 1_555 1_555
C2B H1B 1_555 1_555
C3B C2B 1_555 1_555
H2B C3B 1_555 1_555
C4B C3B 1_555 1_555
H3B C4B 1_555 1_555
C5B C8 1_555 1_555
C6B O3 1_555 1_555
C7B C1 1_555 1_555
C8B C5 1_555 1_555
C9B N1 1_555 1_555
H4B C9B 1_555 1_555
C10B N2 1_555 1_555
H5B C10 1_555 1_555
O3 Cu1G 1_555 1_555
C5 C6 1_555 1_555
Cu1A O4B 1_555 1_555
Cu1E O3B 1_555 1_555
O4B C8B 1_555 1_555
O5B C8B 1_555 1_555
C1B C6B 1_555 1_555
C4B C5B 1_555 1_555
C5B C6B 1_555 1_555
C9B C10B 1_555 1_555

#END
