
#######################################################################
#
#                 Cambridge Crystallographic Data Centre
#                                CCDC 
#
#######################################################################
#
# If this CIF has been generated from an entry in the Cambridge 
# Structural Database, then it will include bibliographic, chemical, 
# crystal, experimental, refinement or atomic coordinate data resulting 
# from the CCDC's data processing and validation procedures.
#
#######################################################################

data_YOPLOF
_symmetry_cell_setting           triclinic
_symmetry_space_group_name_H-M   'P -1'
_symmetry_Int_Tables_number      2
_space_group_name_Hall           '-P 1'
loop_
_symmetry_equiv_pos_site_id
_symmetry_equiv_pos_as_xyz
1 x,y,z
2 -x,-y,-z
_cell_length_a                   10.1928(10)
_cell_length_b                   10.9107(10)
_cell_length_c                   12.9882(12)
_cell_angle_alpha                105.562(2)
_cell_angle_beta                 111.228(2)
_cell_angle_gamma                100.438(2)
_cell_volume                     1233.19
loop_
_atom_site_label
_atom_site_type_symbol
_atom_site_fract_x
_atom_site_fract_y
_atom_site_fract_z
Cu1 Cu -0.08781(7) -0.33544(7) -0.43345(6)
O1 O -0.2713(4) -0.3227(4) -0.4179(3)
O2 O -0.1396(4) -0.1076(4) -0.3343(4)
O3 O -0.7941(4) -0.4452(4) -0.4516(4)
O4 O -0.8916(4) -0.2797(4) -0.4252(4)
N1 N 0.0012(5) -0.3624(5) -0.2792(4)
N2 N -0.1616(5) -0.2845(4) -0.5798(4)
C1 C -0.3952(6) -0.1644(6) -0.3788(5)
C2 C -0.5241(5) -0.2606(5) -0.4035(4)
H1 H -0.5275 -0.3498 -0.4205
C3 C -0.6471(5) -0.2240(5) -0.4028(4)
C4 C -0.6393(6) -0.0898(6) -0.3774(5)
H2 H -0.7205 -0.0634 -0.3755
C5 C -0.5128(7) 0.0042(6) -0.3552(6)
H3 H -0.5091 0.0934 -0.3399
C6 C -0.3939(6) -0.0335(6) -0.3558(5)
H4 H -0.3086 0.0309 -0.3401
C7 C -0.2575(6) -0.2002(6) -0.3761(5)
C8 C -0.7877(6) -0.3273(6) -0.4288(5)
C9 C 0.0215(10) -0.2773(8) -0.1783(7)
H5 H -0.0098 -0.2025 -0.1793
C10 C 0.0858(10) -0.2908(8) -0.0711(7)
H6 H 0.0978 -0.2249 -0.0028
C11 C 0.1326(6) -0.3983(6) -0.0619(5)
C12 C 0.1105(9) -0.4858(7) -0.1675(6)
H7 H 0.1396 -0.5621 -0.1697
C13 C 0.0467(8) -0.4647(7) -0.2708(6)
H8 H 0.0348 -0.5282 -0.3403
C14 C 0.1969(6) -0.4185(6) 0.0524(5)
C15 C 0.2172(8) -0.3290(7) 0.1572(6)
H9 H 0.1914 -0.2515 0.1574
C16 C 0.2740(8) -0.3492(8) 0.2617(6)
H10 H 0.2874 -0.2845 0.3312
C17 C 0.3104(8) -0.4589(8) 0.2663(6)
H11 H 0.3452 -0.4741 0.3370
C18 C 0.2951(10) -0.5475(9) 0.1645(7)
H12 H 0.3229 -0.6239 0.1658
C19 C 0.2396(10) -0.5280(8) 0.0592(7)
H13 H 0.2310 -0.5913 -0.0091
C20 C -0.2985(7) -0.3455(6) -0.6667(6)
H14 H -0.3608 -0.4138 -0.6603
C21 C -0.3511(7) -0.3117(7) -0.7649(6)
H15 H -0.4470 -0.3577 -0.8235
C22 C -0.2633(7) -0.2100(6) -0.7779(5)
C23 C -0.1225(7) -0.1443(6) -0.6849(6)
H16 H -0.0593 -0.0731 -0.6872
C24 C -0.0771(7) -0.1846(6) -0.5902(5)
H17 H 0.0179 -0.1398 -0.5299
C25 C -0.3119(8) -0.1725(6) -0.8828(6)
C26 C -0.4520(10) -0.2159(10) -0.9636(8)
H18 H -0.5225 -0.2702 -0.9518
C27 C -0.4979(12) -0.1840(11) -1.0645(9)
H19 H -0.5979 -0.2151 -1.1166
C28 C -0.4053(11) -0.1121(9) -1.0881(7)
H20 H -0.4390 -0.0835 -1.1514
C29 C -0.2543(13) -0.0782(10) -1.0171(9)
H21 H -0.1857 -0.0379 -1.0391
C30 C -0.2056(12) -0.1057(10) -0.9103(9)
H22 H -0.1052 -0.0798 -0.8600
Cu1A Cu -0.91219(7) -0.66456(7) -0.56655(6)
Cu1_2 Cu -1.08781(7) -0.33544(7) -0.43345(6)
O3A O -0.2059(4) -0.5548(4) -0.5484(4)
O4_2 O 0.1084(4) -0.2797(4) -0.4252(4)
loop_
_geom_bond_atom_site_label_1
_geom_bond_atom_site_label_2
_geom_bond_site_symmetry_1
_geom_bond_site_symmetry_2
Cu1 O1 1_555 1_555
O1 C7 1_555 1_555
O2 C7 1_555 1_555
O3 C8 1_555 1_555
O4 C8 1_555 1_555
N1 Cu1 1_555 1_555
N2 Cu1 1_555 1_555
C1 C2 1_555 1_555
C2 H1 1_555 1_555
C3 C2 1_555 1_555
C4 C3 1_555 1_555
H2 C4 1_555 1_555
C5 C4 1_555 1_555
H3 C5 1_555 1_555
C6 C1 1_555 1_555
H4 C6 1_555 1_555
C7 C1 1_555 1_555
C8 C3 1_555 1_555
C9 N1 1_555 1_555
H5 C9 1_555 1_555
C10 C9 1_555 1_555
H6 C10 1_555 1_555
C11 C10 1_555 1_555
C12 C11 1_555 1_555
H7 C12 1_555 1_555
C13 N1 1_555 1_555
H8 C13 1_555 1_555
C14 C11 1_555 1_555
C15 C14 1_555 1_555
H9 C15 1_555 1_555
C16 C15 1_555 1_555
H10 C16 1_555 1_555
C17 C16 1_555 1_555
H11 C17 1_555 1_555
C18 C17 1_555 1_555
H12 C18 1_555 1_555
C19 C14 1_555 1_555
H13 C19 1_555 1_555
C20 N2 1_555 1_555
H14 C20 1_555 1_555
C21 C20 1_555 1_555
H15 C21 1_555 1_555
C22 C21 1_555 1_555
C23 C22 1_555 1_555
H16 C23 1_555 1_555
C24 N2 1_555 1_555
H17 C24 1_555 1_555
C25 C22 1_555 1_555
C26 C25 1_555 1_555
H18 C26 1_555 1_555
C27 C26 1_555 1_555
H19 C27 1_555 1_555
C28 C27 1_555 1_555
H20 C28 1_555 1_555
C29 C28 1_555 1_555
H21 C29 1_555 1_555
C30 C25 1_555 1_555
H22 C30 1_555 1_555
Cu1A O3 1_555 1_555
Cu1_2 O4 1_555 1_555
O3A Cu1 1_555 1_555
O4_2 Cu1 1_555 1_555
C5 C6 1_555 1_555
C12 C13 1_555 1_555
C18 C19 1_555 1_555
C23 C24 1_555 1_555
C29 C30 1_555 1_555

#END
