
#######################################################################
#
#                 Cambridge Crystallographic Data Centre
#                                CCDC 
#
#######################################################################
#
# If this CIF has been generated from an entry in the Cambridge 
# Structural Database, then it will include bibliographic, chemical, 
# crystal, experimental, refinement or atomic coordinate data resulting 
# from the CCDC's data processing and validation procedures.
#
#######################################################################

data_YOPLUM
_symmetry_cell_setting           hexagonal
_symmetry_space_group_name_H-M   'P 6/m'
_symmetry_Int_Tables_number      175
_space_group_name_Hall           '-P 6'
loop_
_symmetry_equiv_pos_site_id
_symmetry_equiv_pos_as_xyz
1 x,y,z
2 -y,x-y,z
3 -x+y,-x,z
4 -x,-y,z
5 y,-x+y,z
6 x-y,x,z
7 -x,-y,-z
8 y,-x+y,-z
9 x-y,x,-z
10 x,y,-z
11 -y,x-y,-z
12 -x+y,-x,-z
_cell_length_a                   9.2000(2)
_cell_length_b                   9.2000(2)
_cell_length_c                   13.6033(3)
_cell_angle_alpha                90
_cell_angle_beta                 90
_cell_angle_gamma                120
_cell_volume                     997.127
loop_
_atom_site_label
_atom_site_type_symbol
_atom_site_fract_x
_atom_site_fract_y
_atom_site_fract_z
Cl1 Cl 0.006(6) 0.005(3) 0.4875(5)
O2 O -0.006(8) -0.061(4) 0.3918(8)
O3 O 0.177(6) 0.117(5) 0.512(2)
O4 O -0.067(6) -0.131(3) 0.5556(13)
O5 O -0.088(7) 0.091(4) 0.489(3)
Cl1A Cl -0.005(3) 0.001(7) 0.4875(5)
O2A O 0.061(4) 0.055(9) 0.3918(8)
O3A O -0.117(5) 0.060(8) 0.512(2)
O4A O 0.131(3) 0.064(7) 0.5556(13)
O5A O -0.091(4) -0.179(8) 0.489(3)
Cl1B Cl -0.001(7) -0.006(6) 0.4875(5)
O2B O -0.055(9) 0.006(8) 0.3918(8)
O3B O -0.060(8) -0.177(6) 0.512(2)
O4B O -0.064(7) 0.067(6) 0.5556(13)
O5B O 0.179(8) 0.088(7) 0.489(3)
Cl1C Cl -0.006(6) -0.005(3) 0.4875(5)
O2C O 0.006(8) 0.061(4) 0.3918(8)
O3C O -0.177(6) -0.117(5) 0.512(2)
O4C O 0.067(6) 0.131(3) 0.5556(13)
O5C O 0.088(7) -0.091(4) 0.489(3)
Cl1D Cl 0.005(3) -0.001(7) 0.4875(5)
O2D O -0.061(4) -0.055(9) 0.3918(8)
O3D O 0.117(5) -0.060(8) 0.512(2)
O4D O -0.131(3) -0.064(7) 0.5556(13)
O5D O 0.091(4) 0.179(8) 0.489(3)
Cl1E Cl 0.001(7) 0.006(6) 0.4875(5)
O2E O 0.055(9) -0.006(8) 0.3918(8)
O3E O 0.060(8) 0.177(6) 0.512(2)
O4E O 0.064(7) -0.067(6) 0.5556(13)
O5E O -0.179(8) -0.088(7) 0.489(3)
Cl1F Cl -0.006(6) -0.005(3) 0.5125(5)
O2F O 0.006(8) 0.061(4) 0.6082(8)
O3F O -0.177(6) -0.117(5) 0.488(2)
O4F O 0.067(6) 0.131(3) 0.4444(13)
O5F O 0.088(7) -0.091(4) 0.511(3)
Cl1G Cl 0.005(3) -0.001(7) 0.5125(5)
O2G O -0.061(4) -0.055(9) 0.6082(8)
O3G O 0.117(5) -0.060(8) 0.488(2)
O4G O -0.131(3) -0.064(7) 0.4444(13)
O5G O 0.091(4) 0.179(8) 0.511(3)
Cl1H Cl 0.001(7) 0.006(6) 0.5125(5)
O2H O 0.055(9) -0.006(8) 0.6082(8)
O3H O 0.060(8) 0.177(6) 0.488(2)
O4H O 0.064(7) -0.067(6) 0.4444(13)
O5H O -0.179(8) -0.088(7) 0.511(3)
Cl1I Cl 0.006(6) 0.005(3) 0.5125(5)
O2I O -0.006(8) -0.061(4) 0.6082(8)
O3I O 0.177(6) 0.117(5) 0.488(2)
O4I O -0.067(6) -0.131(3) 0.4444(13)
O5I O -0.088(7) 0.091(4) 0.511(3)
Cl1J Cl -0.005(3) 0.001(7) 0.5125(5)
O2J O 0.061(4) 0.055(9) 0.6082(8)
O3J O -0.117(5) 0.060(8) 0.488(2)
O4J O 0.131(3) 0.064(7) 0.4444(13)
O5J O -0.091(4) -0.179(8) 0.511(3)
Cl1K Cl -0.001(7) -0.006(6) 0.5125(5)
O2K O -0.055(9) 0.006(8) 0.6082(8)
O3K O -0.060(8) -0.177(6) 0.488(2)
O4K O -0.064(7) 0.067(6) 0.4444(13)
O5K O 0.179(8) 0.088(7) 0.511(3)
Cl2 Cl 0.019(2) 0.0061(18) -0.0076(9)
O6 O 0.181(3) 0.029(5) 0.0113(19)
O7 O -0.099(3) -0.108(2) 0.0614(13)
O8 O -0.029(4) -0.056(2) -0.1053(10)
O9 O 0.028(4) 0.166(2) -0.0011(17)
Cl2A Cl -0.0061(18) 0.0129(27) -0.0076(9)
O6A O -0.029(5) 0.152(6) 0.0113(19)
O7A O 0.108(2) 0.009(4) 0.0614(13)
O8A O 0.056(2) 0.027(4) -0.1053(10)
O9A O -0.166(2) -0.138(4) -0.0011(17)
Cl2B Cl -0.0129(27) -0.019(2) -0.0076(9)
O6B O -0.152(6) -0.181(3) 0.0113(19)
O7B O -0.009(4) 0.099(3) 0.0614(13)
O8B O -0.027(4) 0.029(4) -0.1053(10)
O9B O 0.138(4) -0.028(4) -0.0011(17)
Cl2C Cl -0.019(2) -0.0061(18) -0.0076(9)
O6C O -0.181(3) -0.029(5) 0.0113(19)
O7C O 0.099(3) 0.108(2) 0.0614(13)
O8C O 0.029(4) 0.056(2) -0.1053(10)
O9C O -0.028(4) -0.166(2) -0.0011(17)
Cl2D Cl 0.0061(18) -0.0129(27) -0.0076(9)
O6D O 0.029(5) -0.152(6) 0.0113(19)
O7D O -0.108(2) -0.009(4) 0.0614(13)
O8D O -0.056(2) -0.027(4) -0.1053(10)
O9D O 0.166(2) 0.138(4) -0.0011(17)
Cl2E Cl 0.0129(27) 0.019(2) -0.0076(9)
O6E O 0.152(6) 0.181(3) 0.0113(19)
O7E O 0.009(4) -0.099(3) 0.0614(13)
O8E O 0.027(4) -0.029(4) -0.1053(10)
O9E O -0.138(4) 0.028(4) -0.0011(17)
Cl2F Cl -0.019(2) -0.0061(18) 0.0076(9)
O6F O -0.181(3) -0.029(5) -0.0113(19)
O7F O 0.099(3) 0.108(2) -0.0614(13)
O8F O 0.029(4) 0.056(2) 0.1053(10)
Cl2G Cl 0.0061(18) -0.0129(27) 0.0076(9)
O6G O 0.029(5) -0.152(6) -0.0113(19)
O7G O -0.108(2) -0.009(4) -0.0614(13)
O8G O -0.056(2) -0.027(4) 0.1053(10)
Cl2H Cl 0.0129(27) 0.019(2) 0.0076(9)
O6H O 0.152(6) 0.181(3) -0.0113(19)
O7H O 0.009(4) -0.099(3) -0.0614(13)
O8H O 0.027(4) -0.029(4) 0.1053(10)
Cl2I Cl 0.019(2) 0.0061(18) 0.0076(9)
O6I O 0.181(3) 0.029(5) -0.0113(19)
O7I O -0.099(3) -0.108(2) -0.0614(13)
O8I O -0.029(4) -0.056(2) 0.1053(10)
Cl2J Cl -0.0061(18) 0.0129(27) 0.0076(9)
O6J O -0.029(5) 0.152(6) -0.0113(19)
O7J O 0.108(2) 0.009(4) -0.0614(13)
O8J O 0.056(2) 0.027(4) 0.1053(10)
Cl2K Cl -0.0129(27) -0.019(2) 0.0076(9)
O6K O -0.152(6) -0.181(3) -0.0113(19)
O7K O -0.009(4) 0.099(3) -0.0614(13)
O8K O -0.027(4) 0.029(4) 0.1053(10)
O10 O 0.004(8) -0.051(5) 0.2589(9)
Cu1 Cu 0.5000 0.0000 0.5000
O1 O 0.5118(3) 0.2182(4) 0.5000
C1 C 0.6667 0.3333 0.5000
N1 N 0.5000 0.0000 0.3529(3)
C2 C 0.4105(4) 0.0543(4) 0.3029(2)
H1 H 0.3479 0.0933 0.3385
C3 C 0.4063(4) 0.0554(4) 0.2013(2)
H2 H 0.3409 0.0932 0.1676
C4 C 0.5000 0.0000 0.1494(4)
C5 C 0.5000 0.0000 0.0444(4)
O1A O 0.7818(4) 0.2936(5) 0.5000
O1B O 0.7064(5) 0.4882(3) 0.5000
C2C C 0.5895(4) -0.0543(4) 0.3029(2)
H1C H 0.6521 -0.0933 0.3385
C3C C 0.5937(4) -0.0554(4) 0.2013(2)
H2C H 0.6591 -0.0932 0.1676
N1F N 0.5000 0.0000 -0.3529(3)
C2F C 0.5895(4) -0.0543(4) -0.3029(2)
H1F H 0.6521 -0.0933 -0.3385
C3F C 0.5937(4) -0.0554(4) -0.2013(2)
H2F H 0.6591 -0.0932 -0.1676
C4F C 0.5000 0.0000 -0.1494(4)
C5F C 0.5000 0.0000 -0.0444(4)
C2I C 0.4105(4) 0.0543(4) -0.3029(2)
H1I H 0.3479 0.0933 -0.3385
C3I C 0.4063(4) 0.0554(4) -0.2013(2)
H2I H 0.3409 0.0932 -0.1676
Cu1A Cu 1.0000 0.5000 0.5000
N1A N 1.0000 0.5000 0.3529(3)
C2A C 0.9457(4) 0.3562(6) 0.3029(2)
H1A H 0.9067 0.2546 0.3385
C3A C 0.9446(4) 0.3509(6) 0.2013(2)
H2A H 0.9068 0.2477 0.1676
C4A C 1.0000 0.5000 0.1494(4)
C5A C 1.0000 0.5000 0.0444(4)
C2D C 1.0543(4) 0.6438(6) 0.3029(2)
H1D H 1.0933 0.7454 0.3385
C3D C 1.0554(4) 0.6491(6) 0.2013(2)
H2D H 1.0932 0.7523 0.1676
N1G N 1.0000 0.5000 -0.3529(3)
C2G C 1.0543(4) 0.6438(6) -0.3029(2)
H1G H 1.0933 0.7454 -0.3385
C3G C 1.0554(4) 0.6491(6) -0.2013(2)
H2G H 1.0932 0.7523 -0.1676
C4G C 1.0000 0.5000 -0.1494(4)
C5G C 1.0000 0.5000 -0.0444(4)
C2J C 0.9457(4) 0.3562(6) -0.3029(2)
H1J H 0.9067 0.2546 -0.3385
C3J C 0.9446(4) 0.3509(6) -0.2013(2)
H2J H 0.9068 0.2477 -0.1676
Cu1B Cu 0.5000 0.5000 0.5000
N1B N 0.5000 0.5000 0.3529(3)
C2B C 0.6438(6) 0.5895(4) 0.3029(2)
H1B H 0.7454 0.6521 0.3385
C3B C 0.6491(6) 0.5937(4) 0.2013(2)
H2B H 0.7523 0.6591 0.1676
C4B C 0.5000 0.5000 0.1494(4)
C5B C 0.5000 0.5000 0.0444(4)
C2E C 0.3562(6) 0.4105(4) 0.3029(2)
H1E H 0.2546 0.3479 0.3385
C3E C 0.3509(6) 0.4063(4) 0.2013(2)
H2E H 0.2477 0.3409 0.1676
N1H N 0.5000 0.5000 -0.3529(3)
C2H C 0.3562(6) 0.4105(4) -0.3029(2)
H1H H 0.2546 0.3479 -0.3385
C3H C 0.3509(6) 0.4063(4) -0.2013(2)
H2H H 0.2477 0.3409 -0.1676
C4H C 0.5000 0.5000 -0.1494(4)
C5H C 0.5000 0.5000 -0.0444(4)
C2K C 0.6438(6) 0.5895(4) -0.3029(2)
H1K H 0.7454 0.6521 -0.3385
C3K C 0.6491(6) 0.5937(4) -0.2013(2)
H2K H 0.7523 0.6591 -0.1676
O1C O 0.4882(3) -0.2182(4) 0.5000
C1C C 0.3333 -0.3333 0.5000
O1D O 0.2182(4) -0.2936(5) 0.5000
O1E O 0.2936(5) -0.4882(3) 0.5000
Cu1_2 Cu 0.5000 0.0000 -0.5000
Cu1A_2 Cu 0.0000 -0.5000 0.5000
Cu1A_3 Cu 1.0000 0.5000 -0.5000
Cu1B_2 Cu 0.5000 -0.5000 0.5000
Cu1B_3 Cu 0.5000 0.5000 -0.5000
O1C_2 O 0.4882(3) 0.7818(4) 0.5000
O1D_2 O 1.2182(4) 0.7064(5) 0.5000
O1E_2 O 0.2936(5) 0.5118(3) 0.5000
O1E_3 O 1.2936(5) 0.5118(3) 0.5000
N1F_2 N 0.5000 0.0000 0.6471(3)
N1G_2 N 1.0000 0.5000 0.6471(3)
N1H_2 N 0.5000 0.5000 0.6471(3)
loop_
_geom_bond_atom_site_label_1
_geom_bond_atom_site_label_2
_geom_bond_site_symmetry_1
_geom_bond_site_symmetry_2
Cu1 O1 1_555 1_555
O1 C1 1_555 1_555
C1 O1A 1_555 1_555
N1 Cu1 1_555 1_555
C2 N1 1_555 1_555
H1 C2 1_555 1_555
C3 C2 1_555 1_555
H2 C3 1_555 1_555
C4 C3 1_555 1_555
C5 C4 1_555 1_555
Cl1 O2 1_555 1_555
O2 Cl1A 1_555 1_555
O3 Cl1 1_555 1_555
O4 Cl1 1_555 1_555
O5 Cl1 1_555 1_555
Cl2 O6 1_555 1_555
O6 Cl2A 1_555 1_555
O7 Cl2 1_555 1_555
O8 Cl2 1_555 1_555
O9 Cl2 1_555 1_555
O1A Cu1 1_555 1_555
O1B C1 1_555 1_555
C2C N1 1_555 1_555
H1C C2C 1_555 1_555
C3C C4 1_555 1_555
H2C C3C 1_555 1_555
N1F C2F 1_555 1_555
C2F H1F 1_555 1_555
C3F C2F 1_555 1_555
H2F C3F 1_555 1_555
C4F C3F 1_555 1_555
C5F C5 1_555 1_555
C2I N1F 1_555 1_555
H1I C2I 1_555 1_555
C3I C4F 1_555 1_555
H2I C3I 1_555 1_555
Cu1A O1A 1_555 1_555
N1A Cu1A 1_555 1_555
C2A N1A 1_555 1_555
H1A C2A 1_555 1_555
C3A C2A 1_555 1_555
H2A C3A 1_555 1_555
C4A C3A 1_555 1_555
C5A C4A 1_555 1_555
C2D N1A 1_555 1_555
H1D C2D 1_555 1_555
C3D C4A 1_555 1_555
H2D C3D 1_555 1_555
N1G C2G 1_555 1_555
C2G H1G 1_555 1_555
C3G C2G 1_555 1_555
H2G C3G 1_555 1_555
C4G C3G 1_555 1_555
C5G C5A 1_555 1_555
C2J N1G 1_555 1_555
H1J C2J 1_555 1_555
C3J C4G 1_555 1_555
H2J C3J 1_555 1_555
Cu1B O1 1_555 1_555
N1B Cu1B 1_555 1_555
C2B N1B 1_555 1_555
H1B C2B 1_555 1_555
C3B C2B 1_555 1_555
H2B C3B 1_555 1_555
C4B C3B 1_555 1_555
C5B C4B 1_555 1_555
C2E N1B 1_555 1_555
H1E C2E 1_555 1_555
C3E C4B 1_555 1_555
H2E C3E 1_555 1_555
N1H C2H 1_555 1_555
C2H H1H 1_555 1_555
C3H C2H 1_555 1_555
H2H C3H 1_555 1_555
C4H C3H 1_555 1_555
C5H C5B 1_555 1_555
C2K N1H 1_555 1_555
H1K C2K 1_555 1_555
C3K C4H 1_555 1_555
H2K C3K 1_555 1_555
O1C Cu1 1_555 1_555
C1C O1C 1_555 1_555
O1D Cu1 1_555 1_555
O1E C1C 1_555 1_555
Cu1_2 N1F 1_555 1_555
Cu1A_2 O1D 1_555 1_555
Cu1A_3 N1G 1_555 1_555
Cu1B_2 O1C 1_555 1_555
Cu1B_3 N1H 1_555 1_555
O1C_2 Cu1B 1_555 1_555
O1D_2 Cu1A 1_555 1_555
O1E_2 Cu1B 1_555 1_555
O1E_3 Cu1A 1_555 1_555
N1F_2 Cu1 1_555 1_555
N1G_2 Cu1A 1_555 1_555
N1H_2 Cu1B 1_555 1_555
Cl1A O3 1_555 1_555
O2A Cl1 1_555 1_555
O3A Cl1 1_555 1_555
O4A Cl1 1_555 1_555
O5A Cl1 1_555 1_555
Cl1B O2 1_555 1_555
O2B Cl1 1_555 1_555
O3B Cl1 1_555 1_555
O4B Cl1 1_555 1_555
O5B Cl1 1_555 1_555
Cl1C O2 1_555 1_555
O2C Cl1 1_555 1_555
O3C Cl1 1_555 1_555
O4C Cl1 1_555 1_555
O5C Cl1 1_555 1_555
Cl1D O2 1_555 1_555
O2D Cl1 1_555 1_555
O3D Cl1 1_555 1_555
O4D Cl1 1_555 1_555
O5D Cl1 1_555 1_555
Cl1E O2 1_555 1_555
O2E Cl1 1_555 1_555
O3E Cl1 1_555 1_555
O4E Cl1 1_555 1_555
O5E Cl1 1_555 1_555
Cl1F O2 1_555 1_555
O2F Cl1 1_555 1_555
O3F Cl1 1_555 1_555
O4F Cl1 1_555 1_555
O5F Cl1 1_555 1_555
Cl1G O2 1_555 1_555
O2G Cl1 1_555 1_555
O3G Cl1 1_555 1_555
O4G Cl1 1_555 1_555
O5G Cl1 1_555 1_555
Cl1H O2 1_555 1_555
O2H Cl1 1_555 1_555
O3H Cl1 1_555 1_555
O4H Cl1 1_555 1_555
O5H Cl1 1_555 1_555
Cl1I O2 1_555 1_555
O2I Cl1 1_555 1_555
O3I Cl1 1_555 1_555
O4I Cl1 1_555 1_555
O5I Cl1 1_555 1_555
Cl1J O2 1_555 1_555
O2J Cl1 1_555 1_555
O3J Cl1 1_555 1_555
O4J Cl1 1_555 1_555
O5J Cl1 1_555 1_555
Cl1K O2 1_555 1_555
O2K Cl1 1_555 1_555
O3K Cl1 1_555 1_555
O4K Cl1 1_555 1_555
O5K Cl1 1_555 1_555
Cl2A O7 1_555 1_555
O6A Cl2 1_555 1_555
O7A Cl2 1_555 1_555
O8A Cl2 1_555 1_555
O9A Cl2 1_555 1_555
Cl2B O6 1_555 1_555
O6B Cl2 1_555 1_555
O7B Cl2 1_555 1_555
O8B Cl2 1_555 1_555
O9B Cl2 1_555 1_555
Cl2C O6 1_555 1_555
O6C Cl2 1_555 1_555
O7C Cl2 1_555 1_555
O8C Cl2 1_555 1_555
O9C Cl2 1_555 1_555
Cl2D O6 1_555 1_555
O6D Cl2 1_555 1_555
O7D Cl2 1_555 1_555
O8D Cl2 1_555 1_555
O9D Cl2 1_555 1_555
Cl2E O6 1_555 1_555
O6E Cl2 1_555 1_555
O7E Cl2 1_555 1_555
O8E Cl2 1_555 1_555
O9E Cl2 1_555 1_555
Cl2F O6 1_555 1_555
O6F Cl2 1_555 1_555
O7F Cl2 1_555 1_555
O8F Cl2 1_555 1_555
Cl2G O6 1_555 1_555
O6G Cl2 1_555 1_555
O7G Cl2 1_555 1_555
O8G Cl2 1_555 1_555
Cl2H O6 1_555 1_555
O6H Cl2 1_555 1_555
O7H Cl2 1_555 1_555
O8H Cl2 1_555 1_555
Cl2I O6 1_555 1_555
O6I Cl2 1_555 1_555
O7I Cl2 1_555 1_555
O8I Cl2 1_555 1_555
Cl2J O6 1_555 1_555
O6J Cl2 1_555 1_555
O7J Cl2 1_555 1_555
O8J Cl2 1_555 1_555
Cl2K O6 1_555 1_555
O6K Cl2 1_555 1_555
O7K Cl2 1_555 1_555
O8K Cl2 1_555 1_555
O3 Cl1B 1_555 1_555
O3 Cl1C 1_555 1_555
O3 Cl1D 1_555 1_555
O3 Cl1E 1_555 1_555
O3 Cl1F 1_555 1_555
O3 Cl1G 1_555 1_555
O3 Cl1H 1_555 1_555
O3 Cl1I 1_555 1_555
O3 Cl1J 1_555 1_555
O3 Cl1K 1_555 1_555
O4 Cl1A 1_555 1_555
O4 Cl1B 1_555 1_555
O4 Cl1C 1_555 1_555
O4 Cl1D 1_555 1_555
O4 Cl1E 1_555 1_555
O4 Cl1F 1_555 1_555
O4 Cl1G 1_555 1_555
O4 Cl1H 1_555 1_555
O4 Cl1I 1_555 1_555
O4 Cl1J 1_555 1_555
O4 Cl1K 1_555 1_555
O5 Cl1A 1_555 1_555
O5 Cl1B 1_555 1_555
O5 Cl1C 1_555 1_555
O5 Cl1D 1_555 1_555
O5 Cl1E 1_555 1_555
O5 Cl1F 1_555 1_555
O5 Cl1G 1_555 1_555
O5 Cl1H 1_555 1_555
O5 Cl1I 1_555 1_555
O5 Cl1J 1_555 1_555
O5 Cl1K 1_555 1_555
O7 Cl2B 1_555 1_555
O7 Cl2C 1_555 1_555
O7 Cl2D 1_555 1_555
O7 Cl2E 1_555 1_555
O7 Cl2F 1_555 1_555
O7 Cl2G 1_555 1_555
O7 Cl2H 1_555 1_555
O7 Cl2I 1_555 1_555
O7 Cl2J 1_555 1_555
O7 Cl2K 1_555 1_555
O8 Cl2A 1_555 1_555
O8 Cl2B 1_555 1_555
O8 Cl2C 1_555 1_555
O8 Cl2D 1_555 1_555
O8 Cl2E 1_555 1_555
O8 Cl2F 1_555 1_555
O8 Cl2G 1_555 1_555
O8 Cl2H 1_555 1_555
O8 Cl2I 1_555 1_555
O8 Cl2J 1_555 1_555
O8 Cl2K 1_555 1_555
O9 Cl2A 1_555 1_555
O9 Cl2B 1_555 1_555
O9 Cl2C 1_555 1_555
O9 Cl2D 1_555 1_555
O9 Cl2E 1_555 1_555
O9 Cl2F 1_555 1_555
O9 Cl2G 1_555 1_555
O9 Cl2H 1_555 1_555
O9 Cl2I 1_555 1_555
O9 Cl2J 1_555 1_555
O9 Cl2K 1_555 1_555
O1B Cu1A 1_555 1_555
O1B Cu1B 1_555 1_555
C2C C3C 1_555 1_555
C4F C5F 1_555 1_555
C2I C3I 1_555 1_555
C2D C3D 1_555 1_555
C4G C5G 1_555 1_555
C2J C3J 1_555 1_555
C2E C3E 1_555 1_555
C4H C5H 1_555 1_555
C2K C3K 1_555 1_555
C1C O1D 1_555 1_555
O1E Cu1A_2 1_555 1_555
O1E Cu1B_2 1_555 1_555
Cl1A O2A 1_555 1_555
Cl1A O3A 1_555 1_555
Cl1A O4A 1_555 1_555
Cl1A O5A 1_555 1_555
Cl1A O2B 1_555 1_555
Cl1A O3B 1_555 1_555
Cl1A O4B 1_555 1_555
Cl1A O5B 1_555 1_555
Cl1A O2C 1_555 1_555
Cl1A O3C 1_555 1_555
Cl1A O4C 1_555 1_555
Cl1A O5C 1_555 1_555
Cl1A O2D 1_555 1_555
Cl1A O3D 1_555 1_555
Cl1A O4D 1_555 1_555
Cl1A O5D 1_555 1_555
Cl1A O2E 1_555 1_555
Cl1A O3E 1_555 1_555
Cl1A O4E 1_555 1_555
Cl1A O5E 1_555 1_555
Cl1A O2F 1_555 1_555
Cl1A O3F 1_555 1_555
Cl1A O4F 1_555 1_555
Cl1A O5F 1_555 1_555
Cl1A O2G 1_555 1_555
Cl1A O3G 1_555 1_555
Cl1A O4G 1_555 1_555
Cl1A O5G 1_555 1_555
Cl1A O2H 1_555 1_555
Cl1A O3H 1_555 1_555
Cl1A O4H 1_555 1_555
Cl1A O5H 1_555 1_555
Cl1A O2I 1_555 1_555
Cl1A O3I 1_555 1_555
Cl1A O4I 1_555 1_555
Cl1A O5I 1_555 1_555
Cl1A O2J 1_555 1_555
Cl1A O3J 1_555 1_555
Cl1A O4J 1_555 1_555
Cl1A O5J 1_555 1_555
Cl1A O2K 1_555 1_555
Cl1A O3K 1_555 1_555
Cl1A O4K 1_555 1_555
Cl1A O5K 1_555 1_555
O2A Cl1B 1_555 1_555
O2A Cl1C 1_555 1_555
O2A Cl1D 1_555 1_555
O2A Cl1E 1_555 1_555
O2A Cl1F 1_555 1_555
O2A Cl1G 1_555 1_555
O2A Cl1H 1_555 1_555
O2A Cl1I 1_555 1_555
O2A Cl1J 1_555 1_555
O2A Cl1K 1_555 1_555
O3A Cl1B 1_555 1_555
O3A Cl1C 1_555 1_555
O3A Cl1D 1_555 1_555
O3A Cl1E 1_555 1_555
O3A Cl1F 1_555 1_555
O3A Cl1G 1_555 1_555
O3A Cl1H 1_555 1_555
O3A Cl1I 1_555 1_555
O3A Cl1J 1_555 1_555
O3A Cl1K 1_555 1_555
O4A Cl1B 1_555 1_555
O4A Cl1C 1_555 1_555
O4A Cl1D 1_555 1_555
O4A Cl1E 1_555 1_555
O4A Cl1F 1_555 1_555
O4A Cl1G 1_555 1_555
O4A Cl1H 1_555 1_555
O4A Cl1I 1_555 1_555
O4A Cl1J 1_555 1_555
O4A Cl1K 1_555 1_555
O5A Cl1B 1_555 1_555
O5A Cl1C 1_555 1_555
O5A Cl1D 1_555 1_555
O5A Cl1E 1_555 1_555
O5A Cl1F 1_555 1_555
O5A Cl1G 1_555 1_555
O5A Cl1H 1_555 1_555
O5A Cl1I 1_555 1_555
O5A Cl1J 1_555 1_555
O5A Cl1K 1_555 1_555
Cl1B O2B 1_555 1_555
Cl1B O3B 1_555 1_555
Cl1B O4B 1_555 1_555
Cl1B O5B 1_555 1_555
Cl1B O2C 1_555 1_555
Cl1B O3C 1_555 1_555
Cl1B O4C 1_555 1_555
Cl1B O5C 1_555 1_555
Cl1B O2D 1_555 1_555
Cl1B O3D 1_555 1_555
Cl1B O4D 1_555 1_555
Cl1B O5D 1_555 1_555
Cl1B O2E 1_555 1_555
Cl1B O3E 1_555 1_555
Cl1B O4E 1_555 1_555
Cl1B O5E 1_555 1_555
Cl1B O2F 1_555 1_555
Cl1B O3F 1_555 1_555
Cl1B O4F 1_555 1_555
Cl1B O5F 1_555 1_555
Cl1B O2G 1_555 1_555
Cl1B O3G 1_555 1_555
Cl1B O4G 1_555 1_555
Cl1B O5G 1_555 1_555
Cl1B O2H 1_555 1_555
Cl1B O3H 1_555 1_555
Cl1B O4H 1_555 1_555
Cl1B O5H 1_555 1_555
Cl1B O2I 1_555 1_555
Cl1B O3I 1_555 1_555
Cl1B O4I 1_555 1_555
Cl1B O5I 1_555 1_555
Cl1B O2J 1_555 1_555
Cl1B O3J 1_555 1_555
Cl1B O4J 1_555 1_555
Cl1B O5J 1_555 1_555
Cl1B O2K 1_555 1_555
Cl1B O3K 1_555 1_555
Cl1B O4K 1_555 1_555
Cl1B O5K 1_555 1_555
O2B Cl1C 1_555 1_555
O2B Cl1D 1_555 1_555
O2B Cl1E 1_555 1_555
O2B Cl1F 1_555 1_555
O2B Cl1G 1_555 1_555
O2B Cl1H 1_555 1_555
O2B Cl1I 1_555 1_555
O2B Cl1J 1_555 1_555
O2B Cl1K 1_555 1_555
O3B Cl1C 1_555 1_555
O3B Cl1D 1_555 1_555
O3B Cl1E 1_555 1_555
O3B Cl1F 1_555 1_555
O3B Cl1G 1_555 1_555
O3B Cl1H 1_555 1_555
O3B Cl1I 1_555 1_555
O3B Cl1J 1_555 1_555
O3B Cl1K 1_555 1_555
O4B Cl1C 1_555 1_555
O4B Cl1D 1_555 1_555
O4B Cl1E 1_555 1_555
O4B Cl1F 1_555 1_555
O4B Cl1G 1_555 1_555
O4B Cl1H 1_555 1_555
O4B Cl1I 1_555 1_555
O4B Cl1J 1_555 1_555
O4B Cl1K 1_555 1_555
O5B Cl1C 1_555 1_555
O5B Cl1D 1_555 1_555
O5B Cl1E 1_555 1_555
O5B Cl1F 1_555 1_555
O5B Cl1G 1_555 1_555
O5B Cl1H 1_555 1_555
O5B Cl1I 1_555 1_555
O5B Cl1J 1_555 1_555
O5B Cl1K 1_555 1_555
Cl1C O2C 1_555 1_555
Cl1C O3C 1_555 1_555
Cl1C O4C 1_555 1_555
Cl1C O5C 1_555 1_555
Cl1C O2D 1_555 1_555
Cl1C O3D 1_555 1_555
Cl1C O4D 1_555 1_555
Cl1C O5D 1_555 1_555
Cl1C O2E 1_555 1_555
Cl1C O3E 1_555 1_555
Cl1C O4E 1_555 1_555
Cl1C O5E 1_555 1_555
Cl1C O2F 1_555 1_555
Cl1C O3F 1_555 1_555
Cl1C O4F 1_555 1_555
Cl1C O5F 1_555 1_555
Cl1C O2G 1_555 1_555
Cl1C O3G 1_555 1_555
Cl1C O4G 1_555 1_555
Cl1C O5G 1_555 1_555
Cl1C O2H 1_555 1_555
Cl1C O3H 1_555 1_555
Cl1C O4H 1_555 1_555
Cl1C O5H 1_555 1_555
Cl1C O2I 1_555 1_555
Cl1C O3I 1_555 1_555
Cl1C O4I 1_555 1_555
Cl1C O5I 1_555 1_555
Cl1C O2J 1_555 1_555
Cl1C O3J 1_555 1_555
Cl1C O4J 1_555 1_555
Cl1C O5J 1_555 1_555
Cl1C O2K 1_555 1_555
Cl1C O3K 1_555 1_555
Cl1C O4K 1_555 1_555
Cl1C O5K 1_555 1_555
O2C Cl1D 1_555 1_555
O2C Cl1E 1_555 1_555
O2C Cl1F 1_555 1_555
O2C Cl1G 1_555 1_555
O2C Cl1H 1_555 1_555
O2C Cl1I 1_555 1_555
O2C Cl1J 1_555 1_555
O2C Cl1K 1_555 1_555
O3C Cl1D 1_555 1_555
O3C Cl1E 1_555 1_555
O3C Cl1F 1_555 1_555
O3C Cl1G 1_555 1_555
O3C Cl1H 1_555 1_555
O3C Cl1I 1_555 1_555
O3C Cl1J 1_555 1_555
O3C Cl1K 1_555 1_555
O4C Cl1D 1_555 1_555
O4C Cl1E 1_555 1_555
O4C Cl1F 1_555 1_555
O4C Cl1G 1_555 1_555
O4C Cl1H 1_555 1_555
O4C Cl1I 1_555 1_555
O4C Cl1J 1_555 1_555
O4C Cl1K 1_555 1_555
O5C Cl1D 1_555 1_555
O5C Cl1E 1_555 1_555
O5C Cl1F 1_555 1_555
O5C Cl1G 1_555 1_555
O5C Cl1H 1_555 1_555
O5C Cl1I 1_555 1_555
O5C Cl1J 1_555 1_555
O5C Cl1K 1_555 1_555
Cl1D O2D 1_555 1_555
Cl1D O3D 1_555 1_555
Cl1D O4D 1_555 1_555
Cl1D O5D 1_555 1_555
Cl1D O2E 1_555 1_555
Cl1D O3E 1_555 1_555
Cl1D O4E 1_555 1_555
Cl1D O5E 1_555 1_555
Cl1D O2F 1_555 1_555
Cl1D O3F 1_555 1_555
Cl1D O4F 1_555 1_555
Cl1D O5F 1_555 1_555
Cl1D O2G 1_555 1_555
Cl1D O3G 1_555 1_555
Cl1D O4G 1_555 1_555
Cl1D O5G 1_555 1_555
Cl1D O2H 1_555 1_555
Cl1D O3H 1_555 1_555
Cl1D O4H 1_555 1_555
Cl1D O5H 1_555 1_555
Cl1D O2I 1_555 1_555
Cl1D O3I 1_555 1_555
Cl1D O4I 1_555 1_555
Cl1D O5I 1_555 1_555
Cl1D O2J 1_555 1_555
Cl1D O3J 1_555 1_555
Cl1D O4J 1_555 1_555
Cl1D O5J 1_555 1_555
Cl1D O2K 1_555 1_555
Cl1D O3K 1_555 1_555
Cl1D O4K 1_555 1_555
Cl1D O5K 1_555 1_555
O2D Cl1E 1_555 1_555
O2D Cl1F 1_555 1_555
O2D Cl1G 1_555 1_555
O2D Cl1H 1_555 1_555
O2D Cl1I 1_555 1_555
O2D Cl1J 1_555 1_555
O2D Cl1K 1_555 1_555
O3D Cl1E 1_555 1_555
O3D Cl1F 1_555 1_555
O3D Cl1G 1_555 1_555
O3D Cl1H 1_555 1_555
O3D Cl1I 1_555 1_555
O3D Cl1J 1_555 1_555
O3D Cl1K 1_555 1_555
O4D Cl1E 1_555 1_555
O4D Cl1F 1_555 1_555
O4D Cl1G 1_555 1_555
O4D Cl1H 1_555 1_555
O4D Cl1I 1_555 1_555
O4D Cl1J 1_555 1_555
O4D Cl1K 1_555 1_555
O5D Cl1E 1_555 1_555
O5D Cl1F 1_555 1_555
O5D Cl1G 1_555 1_555
O5D Cl1H 1_555 1_555
O5D Cl1I 1_555 1_555
O5D Cl1J 1_555 1_555
O5D Cl1K 1_555 1_555
Cl1E O2E 1_555 1_555
Cl1E O3E 1_555 1_555
Cl1E O4E 1_555 1_555
Cl1E O5E 1_555 1_555
Cl1E O2F 1_555 1_555
Cl1E O3F 1_555 1_555
Cl1E O4F 1_555 1_555
Cl1E O5F 1_555 1_555
Cl1E O2G 1_555 1_555
Cl1E O3G 1_555 1_555
Cl1E O4G 1_555 1_555
Cl1E O5G 1_555 1_555
Cl1E O2H 1_555 1_555
Cl1E O3H 1_555 1_555
Cl1E O4H 1_555 1_555
Cl1E O5H 1_555 1_555
Cl1E O2I 1_555 1_555
Cl1E O3I 1_555 1_555
Cl1E O4I 1_555 1_555
Cl1E O5I 1_555 1_555
Cl1E O2J 1_555 1_555
Cl1E O3J 1_555 1_555
Cl1E O4J 1_555 1_555
Cl1E O5J 1_555 1_555
Cl1E O2K 1_555 1_555
Cl1E O3K 1_555 1_555
Cl1E O4K 1_555 1_555
Cl1E O5K 1_555 1_555
O2E Cl1F 1_555 1_555
O2E Cl1G 1_555 1_555
O2E Cl1H 1_555 1_555
O2E Cl1I 1_555 1_555
O2E Cl1J 1_555 1_555
O2E Cl1K 1_555 1_555
O3E Cl1F 1_555 1_555
O3E Cl1G 1_555 1_555
O3E Cl1H 1_555 1_555
O3E Cl1I 1_555 1_555
O3E Cl1J 1_555 1_555
O3E Cl1K 1_555 1_555
O4E Cl1F 1_555 1_555
O4E Cl1G 1_555 1_555
O4E Cl1H 1_555 1_555
O4E Cl1I 1_555 1_555
O4E Cl1J 1_555 1_555
O4E Cl1K 1_555 1_555
O5E Cl1F 1_555 1_555
O5E Cl1G 1_555 1_555
O5E Cl1H 1_555 1_555
O5E Cl1I 1_555 1_555
O5E Cl1J 1_555 1_555
O5E Cl1K 1_555 1_555
Cl1F O2F 1_555 1_555
Cl1F O3F 1_555 1_555
Cl1F O4F 1_555 1_555
Cl1F O5F 1_555 1_555
Cl1F O2G 1_555 1_555
Cl1F O3G 1_555 1_555
Cl1F O4G 1_555 1_555
Cl1F O5G 1_555 1_555
Cl1F O2H 1_555 1_555
Cl1F O3H 1_555 1_555
Cl1F O4H 1_555 1_555
Cl1F O5H 1_555 1_555
Cl1F O2I 1_555 1_555
Cl1F O3I 1_555 1_555
Cl1F O4I 1_555 1_555
Cl1F O5I 1_555 1_555
Cl1F O2J 1_555 1_555
Cl1F O3J 1_555 1_555
Cl1F O4J 1_555 1_555
Cl1F O5J 1_555 1_555
Cl1F O2K 1_555 1_555
Cl1F O3K 1_555 1_555
Cl1F O4K 1_555 1_555
Cl1F O5K 1_555 1_555
O2F Cl1G 1_555 1_555
O2F Cl1H 1_555 1_555
O2F Cl1I 1_555 1_555
O2F Cl1J 1_555 1_555
O2F Cl1K 1_555 1_555
O3F Cl1G 1_555 1_555
O3F Cl1H 1_555 1_555
O3F Cl1I 1_555 1_555
O3F Cl1J 1_555 1_555
O3F Cl1K 1_555 1_555
O4F Cl1G 1_555 1_555
O4F Cl1H 1_555 1_555
O4F Cl1I 1_555 1_555
O4F Cl1J 1_555 1_555
O4F Cl1K 1_555 1_555
O5F Cl1G 1_555 1_555
O5F Cl1H 1_555 1_555
O5F Cl1I 1_555 1_555
O5F Cl1J 1_555 1_555
O5F Cl1K 1_555 1_555
Cl1G O2G 1_555 1_555
Cl1G O3G 1_555 1_555
Cl1G O4G 1_555 1_555
Cl1G O5G 1_555 1_555
Cl1G O2H 1_555 1_555
Cl1G O3H 1_555 1_555
Cl1G O4H 1_555 1_555
Cl1G O5H 1_555 1_555
Cl1G O2I 1_555 1_555
Cl1G O3I 1_555 1_555
Cl1G O4I 1_555 1_555
Cl1G O5I 1_555 1_555
Cl1G O2J 1_555 1_555
Cl1G O3J 1_555 1_555
Cl1G O4J 1_555 1_555
Cl1G O5J 1_555 1_555
Cl1G O2K 1_555 1_555
Cl1G O3K 1_555 1_555
Cl1G O4K 1_555 1_555
Cl1G O5K 1_555 1_555
O2G Cl1H 1_555 1_555
O2G Cl1I 1_555 1_555
O2G Cl1J 1_555 1_555
O2G Cl1K 1_555 1_555
O3G Cl1H 1_555 1_555
O3G Cl1I 1_555 1_555
O3G Cl1J 1_555 1_555
O3G Cl1K 1_555 1_555
O4G Cl1H 1_555 1_555
O4G Cl1I 1_555 1_555
O4G Cl1J 1_555 1_555
O4G Cl1K 1_555 1_555
O5G Cl1H 1_555 1_555
O5G Cl1I 1_555 1_555
O5G Cl1J 1_555 1_555
O5G Cl1K 1_555 1_555
Cl1H O2H 1_555 1_555
Cl1H O3H 1_555 1_555
Cl1H O4H 1_555 1_555
Cl1H O5H 1_555 1_555
Cl1H O2I 1_555 1_555
Cl1H O3I 1_555 1_555
Cl1H O4I 1_555 1_555
Cl1H O5I 1_555 1_555
Cl1H O2J 1_555 1_555
Cl1H O3J 1_555 1_555
Cl1H O4J 1_555 1_555
Cl1H O5J 1_555 1_555
Cl1H O2K 1_555 1_555
Cl1H O3K 1_555 1_555
Cl1H O4K 1_555 1_555
Cl1H O5K 1_555 1_555
O2H Cl1I 1_555 1_555
O2H Cl1J 1_555 1_555
O2H Cl1K 1_555 1_555
O3H Cl1I 1_555 1_555
O3H Cl1J 1_555 1_555
O3H Cl1K 1_555 1_555
O4H Cl1I 1_555 1_555
O4H Cl1J 1_555 1_555
O4H Cl1K 1_555 1_555
O5H Cl1I 1_555 1_555
O5H Cl1J 1_555 1_555
O5H Cl1K 1_555 1_555
Cl1I O2I 1_555 1_555
Cl1I O3I 1_555 1_555
Cl1I O4I 1_555 1_555
Cl1I O5I 1_555 1_555
Cl1I O2J 1_555 1_555
Cl1I O3J 1_555 1_555
Cl1I O4J 1_555 1_555
Cl1I O5J 1_555 1_555
Cl1I O2K 1_555 1_555
Cl1I O3K 1_555 1_555
Cl1I O4K 1_555 1_555
Cl1I O5K 1_555 1_555
O2I Cl1J 1_555 1_555
O2I Cl1K 1_555 1_555
O3I Cl1J 1_555 1_555
O3I Cl1K 1_555 1_555
O4I Cl1J 1_555 1_555
O4I Cl1K 1_555 1_555
O5I Cl1J 1_555 1_555
O5I Cl1K 1_555 1_555
Cl1J O2J 1_555 1_555
Cl1J O3J 1_555 1_555
Cl1J O4J 1_555 1_555
Cl1J O5J 1_555 1_555
Cl1J O2K 1_555 1_555
Cl1J O3K 1_555 1_555
Cl1J O4K 1_555 1_555
Cl1J O5K 1_555 1_555
O2J Cl1K 1_555 1_555
O3J Cl1K 1_555 1_555
O4J Cl1K 1_555 1_555
O5J Cl1K 1_555 1_555
Cl1K O2K 1_555 1_555
Cl1K O3K 1_555 1_555
Cl1K O4K 1_555 1_555
Cl1K O5K 1_555 1_555
Cl2A O6A 1_555 1_555
Cl2A O7A 1_555 1_555
Cl2A O8A 1_555 1_555
Cl2A O9A 1_555 1_555
Cl2A O6B 1_555 1_555
Cl2A O7B 1_555 1_555
Cl2A O8B 1_555 1_555
Cl2A O9B 1_555 1_555
Cl2A O6C 1_555 1_555
Cl2A O7C 1_555 1_555
Cl2A O8C 1_555 1_555
Cl2A O9C 1_555 1_555
Cl2A O6D 1_555 1_555
Cl2A O7D 1_555 1_555
Cl2A O8D 1_555 1_555
Cl2A O9D 1_555 1_555
Cl2A O6E 1_555 1_555
Cl2A O7E 1_555 1_555
Cl2A O8E 1_555 1_555
Cl2A O9E 1_555 1_555
Cl2A O6F 1_555 1_555
Cl2A O7F 1_555 1_555
Cl2A O8F 1_555 1_555
Cl2A O6G 1_555 1_555
Cl2A O7G 1_555 1_555
Cl2A O8G 1_555 1_555
Cl2A O6H 1_555 1_555
Cl2A O7H 1_555 1_555
Cl2A O8H 1_555 1_555
Cl2A O6I 1_555 1_555
Cl2A O7I 1_555 1_555
Cl2A O8I 1_555 1_555
Cl2A O6J 1_555 1_555
Cl2A O7J 1_555 1_555
Cl2A O8J 1_555 1_555
Cl2A O6K 1_555 1_555
Cl2A O7K 1_555 1_555
Cl2A O8K 1_555 1_555
O6A Cl2B 1_555 1_555
O6A Cl2C 1_555 1_555
O6A Cl2D 1_555 1_555
O6A Cl2E 1_555 1_555
O6A Cl2F 1_555 1_555
O6A Cl2G 1_555 1_555
O6A Cl2H 1_555 1_555
O6A Cl2I 1_555 1_555
O6A Cl2J 1_555 1_555
O6A Cl2K 1_555 1_555
O7A Cl2B 1_555 1_555
O7A Cl2C 1_555 1_555
O7A Cl2D 1_555 1_555
O7A Cl2E 1_555 1_555
O7A Cl2F 1_555 1_555
O7A Cl2G 1_555 1_555
O7A Cl2H 1_555 1_555
O7A Cl2I 1_555 1_555
O7A Cl2J 1_555 1_555
O7A Cl2K 1_555 1_555
O8A Cl2B 1_555 1_555
O8A Cl2C 1_555 1_555
O8A Cl2D 1_555 1_555
O8A Cl2E 1_555 1_555
O8A Cl2F 1_555 1_555
O8A Cl2G 1_555 1_555
O8A Cl2H 1_555 1_555
O8A Cl2I 1_555 1_555
O8A Cl2J 1_555 1_555
O8A Cl2K 1_555 1_555
O9A Cl2B 1_555 1_555
O9A Cl2C 1_555 1_555
O9A Cl2D 1_555 1_555
O9A Cl2E 1_555 1_555
O9A Cl2F 1_555 1_555
O9A Cl2G 1_555 1_555
O9A Cl2H 1_555 1_555
O9A Cl2I 1_555 1_555
O9A Cl2J 1_555 1_555
O9A Cl2K 1_555 1_555
Cl2B O6B 1_555 1_555
Cl2B O7B 1_555 1_555
Cl2B O8B 1_555 1_555
Cl2B O9B 1_555 1_555
Cl2B O6C 1_555 1_555
Cl2B O7C 1_555 1_555
Cl2B O8C 1_555 1_555
Cl2B O9C 1_555 1_555
Cl2B O6D 1_555 1_555
Cl2B O7D 1_555 1_555
Cl2B O8D 1_555 1_555
Cl2B O9D 1_555 1_555
Cl2B O6E 1_555 1_555
Cl2B O7E 1_555 1_555
Cl2B O8E 1_555 1_555
Cl2B O9E 1_555 1_555
Cl2B O6F 1_555 1_555
Cl2B O7F 1_555 1_555
Cl2B O8F 1_555 1_555
Cl2B O6G 1_555 1_555
Cl2B O7G 1_555 1_555
Cl2B O8G 1_555 1_555
Cl2B O6H 1_555 1_555
Cl2B O7H 1_555 1_555
Cl2B O8H 1_555 1_555
Cl2B O6I 1_555 1_555
Cl2B O7I 1_555 1_555
Cl2B O8I 1_555 1_555
Cl2B O6J 1_555 1_555
Cl2B O7J 1_555 1_555
Cl2B O8J 1_555 1_555
Cl2B O6K 1_555 1_555
Cl2B O7K 1_555 1_555
Cl2B O8K 1_555 1_555
O6B Cl2C 1_555 1_555
O6B Cl2D 1_555 1_555
O6B Cl2E 1_555 1_555
O6B Cl2F 1_555 1_555
O6B Cl2G 1_555 1_555
O6B Cl2H 1_555 1_555
O6B Cl2I 1_555 1_555
O6B Cl2J 1_555 1_555
O6B Cl2K 1_555 1_555
O7B Cl2C 1_555 1_555
O7B Cl2D 1_555 1_555
O7B Cl2E 1_555 1_555
O7B Cl2F 1_555 1_555
O7B Cl2G 1_555 1_555
O7B Cl2H 1_555 1_555
O7B Cl2I 1_555 1_555
O7B Cl2J 1_555 1_555
O7B Cl2K 1_555 1_555
O8B Cl2C 1_555 1_555
O8B Cl2D 1_555 1_555
O8B Cl2E 1_555 1_555
O8B Cl2F 1_555 1_555
O8B Cl2G 1_555 1_555
O8B Cl2H 1_555 1_555
O8B Cl2I 1_555 1_555
O8B Cl2J 1_555 1_555
O8B Cl2K 1_555 1_555
O9B Cl2C 1_555 1_555
O9B Cl2D 1_555 1_555
O9B Cl2E 1_555 1_555
O9B Cl2F 1_555 1_555
O9B Cl2G 1_555 1_555
O9B Cl2H 1_555 1_555
O9B Cl2I 1_555 1_555
O9B Cl2J 1_555 1_555
O9B Cl2K 1_555 1_555
Cl2C O6C 1_555 1_555
Cl2C O7C 1_555 1_555
Cl2C O8C 1_555 1_555
Cl2C O9C 1_555 1_555
Cl2C O6D 1_555 1_555
Cl2C O7D 1_555 1_555
Cl2C O8D 1_555 1_555
Cl2C O9D 1_555 1_555
Cl2C O6E 1_555 1_555
Cl2C O7E 1_555 1_555
Cl2C O8E 1_555 1_555
Cl2C O9E 1_555 1_555
Cl2C O6F 1_555 1_555
Cl2C O7F 1_555 1_555
Cl2C O8F 1_555 1_555
Cl2C O6G 1_555 1_555
Cl2C O7G 1_555 1_555
Cl2C O8G 1_555 1_555
Cl2C O6H 1_555 1_555
Cl2C O7H 1_555 1_555
Cl2C O8H 1_555 1_555
Cl2C O6I 1_555 1_555
Cl2C O7I 1_555 1_555
Cl2C O8I 1_555 1_555
Cl2C O6J 1_555 1_555
Cl2C O7J 1_555 1_555
Cl2C O8J 1_555 1_555
Cl2C O6K 1_555 1_555
Cl2C O7K 1_555 1_555
Cl2C O8K 1_555 1_555
O6C Cl2D 1_555 1_555
O6C Cl2E 1_555 1_555
O6C Cl2F 1_555 1_555
O6C Cl2G 1_555 1_555
O6C Cl2H 1_555 1_555
O6C Cl2I 1_555 1_555
O6C Cl2J 1_555 1_555
O6C Cl2K 1_555 1_555
O7C Cl2D 1_555 1_555
O7C Cl2E 1_555 1_555
O7C Cl2F 1_555 1_555
O7C Cl2G 1_555 1_555
O7C Cl2H 1_555 1_555
O7C Cl2I 1_555 1_555
O7C Cl2J 1_555 1_555
O7C Cl2K 1_555 1_555
O8C Cl2D 1_555 1_555
O8C Cl2E 1_555 1_555
O8C Cl2F 1_555 1_555
O8C Cl2G 1_555 1_555
O8C Cl2H 1_555 1_555
O8C Cl2I 1_555 1_555
O8C Cl2J 1_555 1_555
O8C Cl2K 1_555 1_555
O9C Cl2D 1_555 1_555
O9C Cl2E 1_555 1_555
O9C Cl2F 1_555 1_555
O9C Cl2G 1_555 1_555
O9C Cl2H 1_555 1_555
O9C Cl2I 1_555 1_555
O9C Cl2J 1_555 1_555
O9C Cl2K 1_555 1_555
Cl2D O6D 1_555 1_555
Cl2D O7D 1_555 1_555
Cl2D O8D 1_555 1_555
Cl2D O9D 1_555 1_555
Cl2D O6E 1_555 1_555
Cl2D O7E 1_555 1_555
Cl2D O8E 1_555 1_555
Cl2D O9E 1_555 1_555
Cl2D O6F 1_555 1_555
Cl2D O7F 1_555 1_555
Cl2D O8F 1_555 1_555
Cl2D O6G 1_555 1_555
Cl2D O7G 1_555 1_555
Cl2D O8G 1_555 1_555
Cl2D O6H 1_555 1_555
Cl2D O7H 1_555 1_555
Cl2D O8H 1_555 1_555
Cl2D O6I 1_555 1_555
Cl2D O7I 1_555 1_555
Cl2D O8I 1_555 1_555
Cl2D O6J 1_555 1_555
Cl2D O7J 1_555 1_555
Cl2D O8J 1_555 1_555
Cl2D O6K 1_555 1_555
Cl2D O7K 1_555 1_555
Cl2D O8K 1_555 1_555
O6D Cl2E 1_555 1_555
O6D Cl2F 1_555 1_555
O6D Cl2G 1_555 1_555
O6D Cl2H 1_555 1_555
O6D Cl2I 1_555 1_555
O6D Cl2J 1_555 1_555
O6D Cl2K 1_555 1_555
O7D Cl2E 1_555 1_555
O7D Cl2F 1_555 1_555
O7D Cl2G 1_555 1_555
O7D Cl2H 1_555 1_555
O7D Cl2I 1_555 1_555
O7D Cl2J 1_555 1_555
O7D Cl2K 1_555 1_555
O8D Cl2E 1_555 1_555
O8D Cl2F 1_555 1_555
O8D Cl2G 1_555 1_555
O8D Cl2H 1_555 1_555
O8D Cl2I 1_555 1_555
O8D Cl2J 1_555 1_555
O8D Cl2K 1_555 1_555
O9D Cl2E 1_555 1_555
O9D Cl2F 1_555 1_555
O9D Cl2G 1_555 1_555
O9D Cl2H 1_555 1_555
O9D Cl2I 1_555 1_555
O9D Cl2J 1_555 1_555
O9D Cl2K 1_555 1_555
Cl2E O6E 1_555 1_555
Cl2E O7E 1_555 1_555
Cl2E O8E 1_555 1_555
Cl2E O9E 1_555 1_555
Cl2E O6F 1_555 1_555
Cl2E O7F 1_555 1_555
Cl2E O8F 1_555 1_555
Cl2E O6G 1_555 1_555
Cl2E O7G 1_555 1_555
Cl2E O8G 1_555 1_555
Cl2E O6H 1_555 1_555
Cl2E O7H 1_555 1_555
Cl2E O8H 1_555 1_555
Cl2E O6I 1_555 1_555
Cl2E O7I 1_555 1_555
Cl2E O8I 1_555 1_555
Cl2E O6J 1_555 1_555
Cl2E O7J 1_555 1_555
Cl2E O8J 1_555 1_555
Cl2E O6K 1_555 1_555
Cl2E O7K 1_555 1_555
Cl2E O8K 1_555 1_555
O6E Cl2F 1_555 1_555
O6E Cl2G 1_555 1_555
O6E Cl2H 1_555 1_555
O6E Cl2I 1_555 1_555
O6E Cl2J 1_555 1_555
O6E Cl2K 1_555 1_555
O7E Cl2F 1_555 1_555
O7E Cl2G 1_555 1_555
O7E Cl2H 1_555 1_555
O7E Cl2I 1_555 1_555
O7E Cl2J 1_555 1_555
O7E Cl2K 1_555 1_555
O8E Cl2F 1_555 1_555
O8E Cl2G 1_555 1_555
O8E Cl2H 1_555 1_555
O8E Cl2I 1_555 1_555
O8E Cl2J 1_555 1_555
O8E Cl2K 1_555 1_555
O9E Cl2F 1_555 1_555
O9E Cl2G 1_555 1_555
O9E Cl2H 1_555 1_555
O9E Cl2I 1_555 1_555
O9E Cl2J 1_555 1_555
O9E Cl2K 1_555 1_555
Cl2F O6F 1_555 1_555
Cl2F O7F 1_555 1_555
Cl2F O8F 1_555 1_555
Cl2F O6G 1_555 1_555
Cl2F O7G 1_555 1_555
Cl2F O8G 1_555 1_555
Cl2F O6H 1_555 1_555
Cl2F O7H 1_555 1_555
Cl2F O8H 1_555 1_555
Cl2F O6I 1_555 1_555
Cl2F O7I 1_555 1_555
Cl2F O8I 1_555 1_555
Cl2F O6J 1_555 1_555
Cl2F O7J 1_555 1_555
Cl2F O8J 1_555 1_555
Cl2F O6K 1_555 1_555
Cl2F O7K 1_555 1_555
Cl2F O8K 1_555 1_555
O6F Cl2G 1_555 1_555
O6F Cl2H 1_555 1_555
O6F Cl2I 1_555 1_555
O6F Cl2J 1_555 1_555
O6F Cl2K 1_555 1_555
O7F Cl2G 1_555 1_555
O7F Cl2H 1_555 1_555
O7F Cl2I 1_555 1_555
O7F Cl2J 1_555 1_555
O7F Cl2K 1_555 1_555
O8F Cl2G 1_555 1_555
O8F Cl2H 1_555 1_555
O8F Cl2I 1_555 1_555
O8F Cl2J 1_555 1_555
O8F Cl2K 1_555 1_555
Cl2G O6G 1_555 1_555
Cl2G O7G 1_555 1_555
Cl2G O8G 1_555 1_555
Cl2G O6H 1_555 1_555
Cl2G O7H 1_555 1_555
Cl2G O8H 1_555 1_555
Cl2G O6I 1_555 1_555
Cl2G O7I 1_555 1_555
Cl2G O8I 1_555 1_555
Cl2G O6J 1_555 1_555
Cl2G O7J 1_555 1_555
Cl2G O8J 1_555 1_555
Cl2G O6K 1_555 1_555
Cl2G O7K 1_555 1_555
Cl2G O8K 1_555 1_555
O6G Cl2H 1_555 1_555
O6G Cl2I 1_555 1_555
O6G Cl2J 1_555 1_555
O6G Cl2K 1_555 1_555
O7G Cl2H 1_555 1_555
O7G Cl2I 1_555 1_555
O7G Cl2J 1_555 1_555
O7G Cl2K 1_555 1_555
O8G Cl2H 1_555 1_555
O8G Cl2I 1_555 1_555
O8G Cl2J 1_555 1_555
O8G Cl2K 1_555 1_555
Cl2H O6H 1_555 1_555
Cl2H O7H 1_555 1_555
Cl2H O8H 1_555 1_555
Cl2H O6I 1_555 1_555
Cl2H O7I 1_555 1_555
Cl2H O8I 1_555 1_555
Cl2H O6J 1_555 1_555
Cl2H O7J 1_555 1_555
Cl2H O8J 1_555 1_555
Cl2H O6K 1_555 1_555
Cl2H O7K 1_555 1_555
Cl2H O8K 1_555 1_555
O6H Cl2I 1_555 1_555
O6H Cl2J 1_555 1_555
O6H Cl2K 1_555 1_555
O7H Cl2I 1_555 1_555
O7H Cl2J 1_555 1_555
O7H Cl2K 1_555 1_555
O8H Cl2I 1_555 1_555
O8H Cl2J 1_555 1_555
O8H Cl2K 1_555 1_555
Cl2I O6I 1_555 1_555
Cl2I O7I 1_555 1_555
Cl2I O8I 1_555 1_555
Cl2I O6J 1_555 1_555
Cl2I O7J 1_555 1_555
Cl2I O8J 1_555 1_555
Cl2I O6K 1_555 1_555
Cl2I O7K 1_555 1_555
Cl2I O8K 1_555 1_555
O6I Cl2J 1_555 1_555
O6I Cl2K 1_555 1_555
O7I Cl2J 1_555 1_555
O7I Cl2K 1_555 1_555
O8I Cl2J 1_555 1_555
O8I Cl2K 1_555 1_555
Cl2J O6J 1_555 1_555
Cl2J O7J 1_555 1_555
Cl2J O8J 1_555 1_555
Cl2J O6K 1_555 1_555
Cl2J O7K 1_555 1_555
Cl2J O8K 1_555 1_555
O6J Cl2K 1_555 1_555
O7J Cl2K 1_555 1_555
O8J Cl2K 1_555 1_555
Cl2K O6K 1_555 1_555
Cl2K O7K 1_555 1_555
Cl2K O8K 1_555 1_555

#END
