
#######################################################################
#
#                 Cambridge Crystallographic Data Centre
#                                CCDC 
#
#######################################################################
#
# If this CIF has been generated from an entry in the Cambridge 
# Structural Database, then it will include bibliographic, chemical, 
# crystal, experimental, refinement or atomic coordinate data resulting 
# from the CCDC's data processing and validation procedures.
#
#######################################################################

data_YOPMAT
_symmetry_cell_setting           orthorhombic
_symmetry_space_group_name_H-M   'P 21 21 21'
_symmetry_Int_Tables_number      19
_space_group_name_Hall           'P 2ac 2ab'
loop_
_symmetry_equiv_pos_site_id
_symmetry_equiv_pos_as_xyz
1 x,y,z
2 1/2-x,-y,1/2+z
3 -x,1/2+y,1/2-z
4 1/2+x,1/2-y,-z
_cell_length_a                   12.097(2)
_cell_length_b                   16.9507(13)
_cell_length_c                   18.6656(15)
_cell_angle_alpha                90
_cell_angle_beta                 90
_cell_angle_gamma                90
_cell_volume                     3827.43
loop_
_atom_site_label
_atom_site_type_symbol
_atom_site_fract_x
_atom_site_fract_y
_atom_site_fract_z
C1 C 0.1327(4) 1.1729(3) 1.1057(2)
H1 H 0.1460 1.2212 1.1278
C2 C 0.1196(4) 1.1081(3) 1.1523(2)
C3 C 0.1353(4) 1.1241(3) 1.2255(3)
H2 H 0.1555 1.1747 1.2397
C4 C 0.1216(4) 1.0672(3) 1.2760(2)
C5 C 0.0914(4) 0.9900(3) 1.2572(2)
H3 H 0.0834 0.9514 1.2922
C6 C 0.0732(4) 0.9718(3) 1.1847(2)
C7 C 0.0871(3) 1.0296(3) 1.1318(2)
C8 C 0.0409(4) 0.8921(3) 1.1711(2)
H4 H 0.0351 0.8600 1.2114
C9 C -0.0168(4) 0.7727(2) 1.1180(2)
H5 H 0.0382 0.7444 1.1458
H6 H -0.0862 0.7703 1.1440
C10 C -0.0309(4) 0.7324(3) 1.0467(3)
H7 H -0.0917 0.7566 1.0210
H8 H -0.0492 0.6773 1.0544
C11 C 0.0734(4) 0.7379(3) 1.0017(2)
H9 H 0.1382 0.7337 1.0321
H10 H 0.0753 0.6952 0.9670
C12 C 0.0894(4) 0.8120(3) 0.8954(3)
H11 H 0.1046 0.7628 0.8757
C13 C 0.0865(4) 0.8771(3) 0.8467(2)
C14 C 0.0922(4) 0.8578(3) 0.7740(2)
H12 H 0.0989 0.8053 0.7603
C15 C 0.0880(4) 0.9147(3) 0.7236(2)
C16 C 0.0816(4) 0.9948(2) 0.7395(2)
H13 H 0.0800 1.0332 0.7039
C17 C 0.0776(4) 1.0144(3) 0.8136(2)
C18 C 0.0805(3) 0.9576(3) 0.8679(2)
C19 C 0.0677(4) 1.1003(3) 0.8261(2)
H14 H 0.0528 1.1318 0.7865
C20 C 0.0682(4) 1.2235(2) 0.8786(2)
H15 H 0.0057 1.2356 0.8480
H16 H 0.1343 1.2435 0.8555
C21 C 0.0533(4) 1.2648(3) 0.9501(2)
H17 H -0.0145 1.2462 0.9721
H18 H 0.0454 1.3210 0.9418
C22 C 0.1495(4) 1.2513(3) 1.0027(2)
H19 H 0.2195 1.2507 0.9773
H20 H 0.1516 1.2929 1.0384
C23 C 0.3251(4) 0.9939(3) 1.0194(3)
H21 H 0.2718 0.9672 1.0459
C24 C 0.4350(3) 0.9709(2) 1.0271(3)
H22 H 0.4549 0.9308 1.0585
C25 C 0.5137(3) 1.0095(2) 0.9865(2)
C26 C 0.4807(3) 1.0701(3) 0.9404(2)
H23 H 0.5326 1.0965 0.9125
C27 C 0.3710(4) 1.0903(3) 0.9367(2)
H24 H 0.3498 1.1312 0.9065
C28 C 0.7868(4) 0.9392(3) 1.0612(3)
H25 H 0.8152 0.9230 1.1051
C29 C 0.6765(4) 0.9626(3) 1.0579(3)
H26 H 0.6327 0.9624 1.0989
C30 C 0.6332(3) 0.9864(3) 0.9927(2)
C31 C 0.7027(3) 0.9864(3) 0.9343(2)
H27 H 0.6770 1.0034 0.8900
C32 C 0.8099(4) 0.9614(3) 0.9415(3)
H28 H 0.8547 0.9600 0.9011
Cu1 Cu 0.10859(4) 1.08055(3) 0.97767(3)
Cu2 Cu 0.03496(4) 0.91013(3) 1.01785(3)
F1 F 0.1363(2) 1.08404(15) 1.34623(13)
F2 F 0.0915(2) 0.89388(14) 0.65371(13)
N1 N 0.1289(3) 1.1743(2) 1.03688(19)
N2 N 0.0185(3) 0.8583(2) 1.11074(19)
N3 N 0.0731(3) 0.8140(2) 0.9647(2)
N4 N 0.0777(3) 1.1351(2) 0.88675(19)
N5 N 0.2920(3) 1.0523(2) 0.9760(2)
N6 N 0.8528(3) 0.9388(2) 1.00481(19)
O1 O 0.0738(2) 1.01350(17) 1.06224(15)
O2 O 0.0747(2) 0.97732(18) 0.93505(16)
Cu2_2 Cu 1.03496(4) 0.91013(3) 1.01785(3)
N6_2 N -0.1472(3) 0.9388(2) 1.00481(19)
C33 C 0.1604(4) 0.6624(3) 0.3336(3)
C34 C 0.2029(4) 0.5956(3) 0.2956(3)
H29 H 0.1471 0.5554 0.2930
H30 H 0.2665 0.5753 0.3203
H31 H 0.2236 0.6112 0.2480
N7 N 0.1254(3) 0.7183(2) 0.3644(2)
Cl1 Cl 0.25254(9) 0.36557(6) 0.22758(6)
O3 O 0.3039(3) 0.43499(19) 0.23934(17)
O4 O 0.2561(3) 0.31735(18) 0.28966(16)
O5 O 0.1477(3) 0.3738(2) 0.21104(17)
O6 O 0.3082(3) 0.33278(18) 0.17296(17)
Cl2 Cl 0.32376(9) 0.79137(6) 0.15490(6)
O7 O 0.4367(2) 0.81797(18) 0.16300(17)
O8 O 0.2605(3) 0.8085(2) 0.21653(18)
O9 O 0.2755(3) 0.83525(19) 0.09898(18)
O10 O 0.3211(3) 0.71389(19) 0.13546(17)
loop_
_geom_bond_atom_site_label_1
_geom_bond_atom_site_label_2
_geom_bond_site_symmetry_1
_geom_bond_site_symmetry_2
C1 H1 1_555 1_555
C2 C1 1_555 1_555
C3 C2 1_555 1_555
H2 C3 1_555 1_555
C4 C3 1_555 1_555
C5 C4 1_555 1_555
H3 C5 1_555 1_555
C6 C5 1_555 1_555
C7 C2 1_555 1_555
C8 C6 1_555 1_555
H4 C8 1_555 1_555
C9 H5 1_555 1_555
H6 C9 1_555 1_555
C10 C9 1_555 1_555
H7 C10 1_555 1_555
H8 C10 1_555 1_555
C11 C10 1_555 1_555
H9 C11 1_555 1_555
H10 C11 1_555 1_555
C12 H11 1_555 1_555
C13 C12 1_555 1_555
C14 C13 1_555 1_555
H12 C14 1_555 1_555
C15 C14 1_555 1_555
C16 C15 1_555 1_555
H13 C16 1_555 1_555
C17 C16 1_555 1_555
C18 C13 1_555 1_555
C19 C17 1_555 1_555
H14 C19 1_555 1_555
C20 H15 1_555 1_555
H16 C20 1_555 1_555
C21 C20 1_555 1_555
H17 C21 1_555 1_555
H18 C21 1_555 1_555
C22 C21 1_555 1_555
H19 C22 1_555 1_555
H20 C22 1_555 1_555
C23 H21 1_555 1_555
C24 C23 1_555 1_555
H22 C24 1_555 1_555
C25 C24 1_555 1_555
C26 C25 1_555 1_555
H23 C26 1_555 1_555
C27 C26 1_555 1_555
H24 C27 1_555 1_555
C28 H25 1_555 1_555
C29 C28 1_555 1_555
H26 C29 1_555 1_555
C30 C25 1_555 1_555
C31 C30 1_555 1_555
H27 C31 1_555 1_555
C32 C31 1_555 1_555
H28 C32 1_555 1_555
Cu1 N1 1_555 1_555
Cu2 N2 1_555 1_555
F1 C4 1_555 1_555
F2 C15 1_555 1_555
N1 C1 1_555 1_555
N2 C8 1_555 1_555
N3 C11 1_555 1_555
N4 C19 1_555 1_555
N5 C23 1_555 1_555
N6 C28 1_555 1_555
O1 C7 1_555 1_555
O2 C18 1_555 1_555
C33 C34 1_555 1_555
C34 H29 1_555 1_555
H30 C34 1_555 1_555
H31 C34 1_555 1_555
N7 C33 1_555 1_555
Cl1 O3 1_555 1_555
O4 Cl1 1_555 1_555
O5 Cl1 1_555 1_555
O6 Cl1 1_555 1_555
Cl2 O7 1_555 1_555
O8 Cl2 1_555 1_555
O9 Cl2 1_555 1_555
O10 Cl2 1_555 1_555
Cu2_2 N6 1_555 1_555
N6_2 Cu2 1_555 1_555
C6 C7 1_555 1_555
C9 N2 1_555 1_555
C12 N3 1_555 1_555
C17 C18 1_555 1_555
C20 N4 1_555 1_555
C22 N1 1_555 1_555
C27 N5 1_555 1_555
C29 C30 1_555 1_555
C32 N6 1_555 1_555
Cu1 N4 1_555 1_555
Cu1 N5 1_555 1_555
Cu1 O1 1_555 1_555
Cu1 O2 1_555 1_555
Cu2 N3 1_555 1_555
Cu2 O1 1_555 1_555
Cu2 O2 1_555 1_555

#END
