
#######################################################################
#
#                 Cambridge Crystallographic Data Centre
#                                CCDC 
#
#######################################################################
#
# If this CIF has been generated from an entry in the Cambridge 
# Structural Database, then it will include bibliographic, chemical, 
# crystal, experimental, refinement or atomic coordinate data resulting 
# from the CCDC's data processing and validation procedures.
#
#######################################################################

data_YOPMEW
_symmetry_cell_setting           monoclinic
_symmetry_space_group_name_H-M   'P 21/n'
_symmetry_Int_Tables_number      14
_space_group_name_Hall           '-P 2yn'
loop_
_symmetry_equiv_pos_site_id
_symmetry_equiv_pos_as_xyz
1 x,y,z
2 1/2-x,1/2+y,1/2-z
3 -x,-y,-z
4 1/2+x,1/2-y,1/2+z
_cell_length_a                   11.2803(10)
_cell_length_b                   8.4929(7)
_cell_length_c                   19.9649(17)
_cell_angle_alpha                90
_cell_angle_beta                 102.315(2)
_cell_angle_gamma                90
_cell_volume                     1868.68
loop_
_atom_site_label
_atom_site_type_symbol
_atom_site_fract_x
_atom_site_fract_y
_atom_site_fract_z
Ni1 Ni 0.30208(2) 0.35119(3) 0.323840(12)
O1 O 0.29667(12) 0.11223(17) 0.30341(8)
O2 O 0.22583(13) -0.13005(15) 0.28030(7)
O3 O 0.34540(13) 0.31246(16) 0.43045(7)
O4 O 0.48704(14) 0.12641(17) 0.44869(8)
O5 O 0.42094(17) 0.1312(2) 0.59059(9)
O6 O 0.23768(18) 0.1864(2) 0.60604(10)
N1 N 0.11700(16) 0.34664(19) 0.32416(9)
N2 N -0.51107(16) 0.34659(18) 0.32325(9)
O7 O 0.30971(15) 0.58641(19) 0.34437(10)
H1 H 0.279(3) 0.652(4) 0.3195(18)
H2 H 0.319(3) 0.617(4) 0.383(2)
C1 C 0.28165(18) 0.0528(2) 0.44645(10)
C2 C 0.2455(2) 0.0316(2) 0.50890(10)
C3 C 0.1496(2) -0.0674(3) 0.51294(11)
H5 H 0.1256 -0.0789 0.5544
C4 C 0.0893(2) -0.1491(3) 0.45606(13)
H6 H 0.0256 -0.2162 0.4592
C5 C 0.1244(2) -0.1304(2) 0.39449(12)
H7 H 0.0842 -0.1858 0.3562
C6 C 0.21963(17) -0.0293(2) 0.38894(10)
C7 C 0.3009(2) 0.1216(3) 0.57247(12)
C8 C 0.38029(19) 0.1708(2) 0.44115(10)
C9 C 0.25060(17) -0.0125(2) 0.31956(9)
C10 C 0.0760(2) 0.3960(3) 0.37901(12)
H8 H 0.1317 0.4330 0.4170
C11 C -0.0455(2) 0.3939(3) 0.38119(12)
H9 H -0.0701 0.4285 0.4203
C12 C -0.1311(2) 0.3403(2) 0.32516(12)
C13 C -0.0873(2) 0.2897(3) 0.26857(12)
H10 H -0.1407 0.2522 0.2298
C14 C 0.0348(2) 0.2954(3) 0.27028(11)
H11 H 0.0618 0.2618 0.2318
C15 C -0.2619(2) 0.3398(2) 0.32467(12)
C16 C -0.3401(2) 0.2242(3) 0.29185(13)
H12 H -0.3103 0.1421 0.2694
C17 C -0.4613(2) 0.2309(3) 0.29258(13)
H13 H -0.5116 0.1512 0.2707
C18 C -0.31325(19) 0.4581(3) 0.35705(12)
H14 H -0.2648 0.5376 0.3805
C19 C -0.43589(19) 0.4576(3) 0.35436(11)
H15 H -0.4683 0.5397 0.3755
H16 H 0.452(3) 0.041(4) 0.5709(18)
Ni1A Ni 0.19792(2) -0.14881(3) 0.176160(12)
Ni1_2 Ni -0.69792(2) 0.35119(3) 0.323840(12)
O2A O 0.27417(13) 0.36995(15) 0.21970(7)
N2_2 N 0.48893(16) 0.34659(18) 0.32325(9)
O8 O 0.1419(3) 1.1305(3) 0.02070(12)
H3 H 0.091(4) 1.199(5) -0.005(2)
H4 H 0.117(3) 1.043(4) 0.0119(17)
loop_
_geom_bond_atom_site_label_1
_geom_bond_atom_site_label_2
_geom_bond_site_symmetry_1
_geom_bond_site_symmetry_2
Ni1 O1 1_555 1_555
O1 C9 1_555 1_555
O2 C9 1_555 1_555
O3 Ni1 1_555 1_555
O4 C8 1_555 1_555
O5 C7 1_555 1_555
O6 C7 1_555 1_555
N1 Ni1 1_555 1_555
N2 C17 1_555 1_555
O7 Ni1 1_555 1_555
H1 O7 1_555 1_555
H2 O7 1_555 1_555
O8 H3 1_555 1_555
H4 O8 1_555 1_555
C1 C2 1_555 1_555
C2 C3 1_555 1_555
C3 H5 1_555 1_555
C4 C3 1_555 1_555
H6 C4 1_555 1_555
C5 C4 1_555 1_555
H7 C5 1_555 1_555
C6 C1 1_555 1_555
C7 C2 1_555 1_555
C8 O3 1_555 1_555
C9 C6 1_555 1_555
C10 N1 1_555 1_555
H8 C10 1_555 1_555
C11 C10 1_555 1_555
H9 C11 1_555 1_555
C12 C11 1_555 1_555
C13 C12 1_555 1_555
H10 C13 1_555 1_555
C14 N1 1_555 1_555
H11 C14 1_555 1_555
C15 C12 1_555 1_555
C16 C15 1_555 1_555
H12 C16 1_555 1_555
C17 C16 1_555 1_555
H13 C17 1_555 1_555
C18 C15 1_555 1_555
H14 C18 1_555 1_555
C19 N2 1_555 1_555
H15 C19 1_555 1_555
H16 O5 1_555 1_555
Ni1A O2 1_555 1_555
Ni1_2 N2 1_555 1_555
O2A Ni1 1_555 1_555
N2_2 Ni1 1_555 1_555
C1 C8 1_555 1_555
C5 C6 1_555 1_555
C13 C14 1_555 1_555
C18 C19 1_555 1_555

#END
