
#######################################################################
#
#                 Cambridge Crystallographic Data Centre
#                                CCDC 
#
#######################################################################
#
# If this CIF has been generated from an entry in the Cambridge 
# Structural Database, then it will include bibliographic, chemical, 
# crystal, experimental, refinement or atomic coordinate data resulting 
# from the CCDC's data processing and validation procedures.
#
#######################################################################

data_YOPMIA
_symmetry_cell_setting           triclinic
_symmetry_space_group_name_H-M   'P -1'
_symmetry_Int_Tables_number      2
_space_group_name_Hall           '-P 1'
loop_
_symmetry_equiv_pos_site_id
_symmetry_equiv_pos_as_xyz
1 x,y,z
2 -x,-y,-z
_cell_length_a                   10.769(2)
_cell_length_b                   12.832(3)
_cell_length_c                   13.313(3)
_cell_angle_alpha                115.80(3)
_cell_angle_beta                 100.81(3)
_cell_angle_gamma                90.37(3)
_cell_volume                     1618.83
loop_
_atom_site_label
_atom_site_type_symbol
_atom_site_fract_x
_atom_site_fract_y
_atom_site_fract_z
Cd1 Cd 0.65642(5) 0.86694(4) -0.98440(4)
Cd2 Cd 0.48530(4) 0.56720(4) -1.18967(4)
Cd3 Cd 1.0000 0.5000 -1.0000
O1 O 0.4396(5) 0.8845(4) -1.0252(4)
O2 O 0.7088(5) 0.9994(4) -1.0408(5)
O3 O 0.5700(5) 0.7005(4) -0.9767(4)
O4 O 0.3640(5) 0.6394(4) -1.0480(4)
O5 O 0.4396(6) 0.5715(4) -0.8590(4)
O6 O 0.5457(6) 0.6535(5) -0.6825(5)
O7 O 0.8288(5) 0.7604(5) -0.9831(5)
O8 O 0.9735(5) 0.6441(5) -1.0608(5)
O9 O 1.4018(5) 0.2669(4) -0.8224(4)
O10 O 1.3388(5) 0.4324(5) -0.7126(5)
O11 O 1.4110(6) 0.2942(6) -0.5783(5)
O12 O 1.2763(6) 0.2344(5) -0.4985(5)
H1 H 1.3308 0.2687 -0.4400
O13 O 0.7991(6) 0.5359(6) -0.9577(6)
H2 H 0.727(11) 0.468(10) -0.978(9)
H3 H 0.771(8) 0.592(7) -0.955(7)
N1 N 0.6960(6) -0.0211(5) -1.7849(5)
N2 N 0.9169(6) 0.3577(6) -1.1896(5)
N3 N 0.2991(6) 0.5630(6) -1.3059(5)
C1 C 0.3844(7) 0.9004(6) -0.8543(6)
C2 C 0.3671(9) 0.9870(7) -0.7489(7)
H4 H 0.3384 1.0567 -0.7445
C3 C 0.3920(10) 0.9697(7) -0.6513(7)
H5 H 0.3806 1.0280 -0.5822
C4 C 0.4342(8) 0.8649(7) -0.6566(7)
H6 H 0.4533 0.8541 -0.5909
C5 C 0.4475(7) 0.7770(6) -0.7610(6)
C6 C 0.4267(6) 0.7940(5) -0.8590(6)
C7 C 0.3692(6) 0.9291(6) -0.9548(6)
C8 C 0.4544(6) 0.7032(6) -0.9700(6)
C9 C 0.4821(7) 0.6601(6) -0.7683(6)
C10 C 1.1021(6) 0.2306(6) -0.8598(6)
C11 C 1.2058(6) 0.2578(6) -0.7666(5)
C12 C 1.1954(7) 0.2224(7) -0.6826(6)
C13 C 1.0866(9) 0.1539(9) -0.6938(8)
H7 H 1.0801 0.1310 -0.6375
C14 C 0.9878(10) 0.1203(10) -0.7904(8)
H8 H 0.9181 0.0710 -0.8002
C15 C 0.9934(8) 0.1602(8) -0.8716(8)
H9 H 0.9257 0.1406 -0.9335
C16 C 0.9001(7) 0.7212(6) -1.0552(6)
C17 C 1.3254(6) 0.3257(6) -0.7645(6)
C18 C 1.3058(8) 0.2546(6) -0.5815(6)
C19 C 0.6773(9) 0.0927(7) -1.7392(7)
H10 H 0.6384 0.1234 -1.7874
C20 C 0.7141(9) 0.1663(7) -1.6225(7)
H11 H 0.6972 0.2438 -1.5945
C21 C 0.7754(7) 0.1248(7) -1.5484(6)
C22 C 0.7898(8) 0.0056(7) -1.5954(7)
H12 H 0.8272 -0.0271 -1.5485
C23 C 0.7485(8) -0.0632(7) -1.7112(6)
H13 H 0.7572 -0.1425 -1.7399
C24 C 0.8241(7) 0.2048(7) -1.4231(6)
C25 C 0.7745(7) 0.3111(6) -1.3715(6)
H14 H 0.7102 0.3334 -1.4132
C26 C 0.8238(7) 0.3839(6) -1.2552(6)
H15 H 0.7900 0.4545 -1.2216
C27 C 0.9180(9) 0.1771(8) -1.3529(7)
H16 H 0.9515 0.1059 -1.3827
C28 C 0.9611(10) 0.2548(8) -1.2395(7)
H17 H 1.0245 0.2341 -1.1956
C29 C 0.1891(9) 0.5751(11) -1.2705(8)
H18 H 0.1919 0.6026 -1.1928
C30 C 0.0717(9) 0.5487(12) -1.3440(8)
H19 H -0.0019 0.5550 -1.3156
C31 C 0.0628(7) 0.5131(7) -1.4588(6)
C32 C 0.1781(7) 0.5072(6) -1.4952(6)
H20 H 0.1780 0.4871 -1.5713
C33 C 0.2914(7) 0.5313(6) -1.4171(6)
H21 H 0.3666 0.5252 -1.4432
Cd1A Cd 1.34358(5) 0.13306(4) -1.01560(4)
Cd1A_2 Cd 0.34358(5) 1.13306(4) -1.01560(4)
Cd1_2 Cd 0.65642(5) -0.13306(4) -1.98440(4)
Cd1A_3 Cd 1.34358(5) 1.13306(4) -0.01560(4)
Cd2A Cd 0.51470(4) 0.43280(4) -0.81033(4)
Cd2A_2 Cd 1.51470(4) 0.43280(4) -0.81033(4)
Cd2A_3 Cd 0.51470(4) 1.43280(4) -0.81033(4)
Cd2_2 Cd 0.48530(4) 1.56720(4) -1.18967(4)
Cd2A_4 Cd -0.48530(4) 0.43280(4) -1.81033(4)
O1A O 1.5604(5) 0.1155(4) -0.9748(4)
O1A_2 O 0.5604(5) 1.1155(4) -0.9748(4)
O2A O 1.2912(5) 0.0006(4) -0.9592(5)
O2A_2 O 0.2912(5) 1.0006(4) -0.9592(5)
O3A O 1.4300(5) 0.2995(4) -1.0233(4)
O3A_2 O 0.4300(5) 1.2995(4) -1.0233(4)
O4A O 1.6360(5) 0.3606(4) -0.9520(4)
O4A_2 O 0.6360(5) 1.3606(4) -0.9520(4)
O5A O 0.5604(6) 0.4285(4) -1.1410(4)
O5_2 O 1.4396(6) 0.5715(4) -0.8590(4)
O5A_2 O 0.5604(6) 1.4285(4) -1.1410(4)
O6_2 O 1.5457(6) 0.6535(5) -0.6825(5)
O6A O 0.4543(6) 0.3465(5) -1.3175(5)
O6A_2 O 0.4543(6) 1.3465(5) -1.3175(5)
O7A O 1.1712(5) 0.2396(5) -1.0169(5)
O8A O 1.0265(5) 0.3559(5) -0.9392(5)
O9A O 0.5982(5) 0.7331(4) -1.1776(4)
O10A O 0.6612(5) 0.5676(5) -1.2874(5)
O11A O 0.5890(6) 0.7058(6) -1.4217(5)
O12A O 0.7237(6) 0.7656(5) -1.5015(5)
H1A H 0.6692 0.7313 -1.5600
O13A O 1.2009(6) 0.4641(6) -1.0423(6)
H2A H 1.273(11) 0.532(10) -1.022(9)
H3A H 1.229(8) 0.408(7) -1.045(7)
N1A N 1.3040(6) 0.0211(5) -1.2151(5)
N1_2 N 0.6960(6) 0.9789(5) -0.7849(5)
N1A_2 N 1.3040(6) 1.0211(5) -0.2151(5)
N2A N 1.0831(6) 0.6423(6) -0.8104(5)
N3A N 1.7009(6) 0.4370(6) -0.6941(5)
N3A_2 N -0.2991(6) 0.4370(6) -1.6941(5)
C1A C 0.6156(7) 1.0996(6) -1.1457(6)
C2A C 0.6329(9) 1.0130(7) -1.2511(7)
H4A H 0.6616 0.9433 -1.2555
C3A C 0.6080(10) 1.0303(7) -1.3487(7)
H5A H 0.6194 0.9720 -1.4178
C4A C 0.5658(8) 1.1351(7) -1.3434(7)
H6A H 0.5467 1.1459 -1.4091
C5A C 0.5525(7) 1.2230(6) -1.2390(6)
C6A C 0.5733(6) 1.2060(5) -1.1410(6)
C7A C 0.6308(6) 1.0709(6) -1.0452(6)
C8A C 0.5456(6) 1.2968(6) -1.0300(6)
C9A C 0.5179(7) 1.3399(6) -1.2317(6)
C10A C 0.8979(6) 0.7694(6) -1.1402(6)
C11A C 0.7942(6) 0.7422(6) -1.2334(5)
C12A C 0.8046(7) 0.7776(7) -1.3174(6)
C13A C 0.9134(9) 0.8461(9) -1.3062(8)
H7A H 0.9199 0.8690 -1.3625
C14A C 1.0122(10) 0.8797(10) -1.2096(8)
H8A H 1.0819 0.9290 -1.1998
C15A C 1.0066(8) 0.8398(8) -1.1284(8)
H9A H 1.0743 0.8594 -1.0665
C16A C 1.0999(7) 0.2788(6) -0.9448(6)
C17A C 0.6746(6) 0.6743(6) -1.2355(6)
C18A C 0.6942(8) 0.7454(6) -1.4185(6)
C19A C 1.3227(9) 0.9073(7) -0.2608(7)
H10A H 1.3616 0.8766 -0.2126
C20A C 1.2859(9) 0.8337(7) -0.3775(7)
H11A H 1.3028 0.7562 -0.4055
C21A C 1.2246(7) 0.8752(7) -0.4516(6)
C22A C 1.2102(8) 0.9944(7) -0.4046(7)
H12A H 1.1728 1.0271 -0.4515
C23A C 1.2515(8) 1.0632(7) -0.2888(6)
H13A H 1.2428 1.1425 -0.2601
C24A C 1.1759(7) 0.7952(7) -0.5769(6)
C25A C 1.2255(7) 0.6889(6) -0.6285(6)
H14A H 1.2898 0.6666 -0.5868
C26A C 1.1762(7) 0.6161(6) -0.7448(6)
H15A H 1.2100 0.5455 -0.7784
C27A C 1.0820(9) 0.8229(8) -0.6471(7)
H16A H 1.0485 0.8941 -0.6173
C28A C 1.0389(10) 0.7452(8) -0.7605(7)
H17A H 0.9755 0.7659 -0.8044
C29A C -0.1891(9) 0.4249(11) -1.7295(8)
H18A H -0.1919 0.3974 -1.8072
C30A C -0.0717(9) 0.4513(12) -1.6560(8)
H19A H 0.0019 0.4450 -1.6844
C31A C -0.0628(7) 0.4869(7) -1.5412(6)
C32A C -0.1781(7) 0.4928(6) -1.5048(6)
H20A H -0.1780 0.5129 -1.4287
C33A C -0.2914(7) 0.4687(6) -1.5829(6)
H21A H -0.3666 0.4748 -1.5568
loop_
_geom_bond_atom_site_label_1
_geom_bond_atom_site_label_2
_geom_bond_site_symmetry_1
_geom_bond_site_symmetry_2
Cd1 O1 1_555 1_555
Cd2 O3 1_555 1_555
Cd3 O8 1_555 1_555
O1 C7 1_555 1_555
O2 Cd1 1_555 1_555
O3 Cd1 1_555 1_555
O4 Cd2 1_555 1_555
O5 C9 1_555 1_555
O6 C9 1_555 1_555
O7 Cd1 1_555 1_555
O8 C16 1_555 1_555
O9 C17 1_555 1_555
O10 C17 1_555 1_555
O11 C18 1_555 1_555
O12 H1 1_555 1_555
O13 Cd3 1_555 1_555
H2 O13 1_555 1_555
H3 O13 1_555 1_555
N1 C19 1_555 1_555
N2 Cd3 1_555 1_555
N3 Cd2 1_555 1_555
C1 C2 1_555 1_555
C2 H4 1_555 1_555
C3 C2 1_555 1_555
H5 C3 1_555 1_555
C4 C3 1_555 1_555
H6 C4 1_555 1_555
C5 C4 1_555 1_555
C6 C1 1_555 1_555
C7 C1 1_555 1_555
C8 O3 1_555 1_555
C9 C5 1_555 1_555
C10 C11 1_555 1_555
C11 C12 1_555 1_555
C12 C13 1_555 1_555
C13 H7 1_555 1_555
C14 C13 1_555 1_555
H8 C14 1_555 1_555
C15 C10 1_555 1_555
H9 C15 1_555 1_555
C16 O7 1_555 1_555
C17 C11 1_555 1_555
C18 O12 1_555 1_555
C19 H10 1_555 1_555
C20 C19 1_555 1_555
H11 C20 1_555 1_555
C21 C20 1_555 1_555
C22 C21 1_555 1_555
H12 C22 1_555 1_555
C23 N1 1_555 1_555
H13 C23 1_555 1_555
C24 C21 1_555 1_555
C25 C24 1_555 1_555
H14 C25 1_555 1_555
C26 N2 1_555 1_555
H15 C26 1_555 1_555
C27 C24 1_555 1_555
H16 C27 1_555 1_555
C28 N2 1_555 1_555
H17 C28 1_555 1_555
C29 N3 1_555 1_555
H18 C29 1_555 1_555
C30 C29 1_555 1_555
H19 C30 1_555 1_555
C31 C30 1_555 1_555
C32 C31 1_555 1_555
H20 C32 1_555 1_555
C33 N3 1_555 1_555
H21 C33 1_555 1_555
Cd1A O9 1_555 1_555
Cd1A_2 O1A_2 1_555 1_555
Cd1_2 N1 1_555 1_555
Cd1A_3 N1A_2 1_555 1_555
Cd2A O5 1_555 1_555
Cd2A_2 O9 1_555 1_555
Cd2A_3 O3A_2 1_555 1_555
Cd2_2 O5A_2 1_555 1_555
Cd2A_4 N3A_2 1_555 1_555
O1A Cd1A 1_555 1_555
O1A_2 C7A 1_555 1_555
O2A Cd1A 1_555 1_555
O2A_2 C7 1_555 1_555
O3A Cd1A 1_555 1_555
O3A_2 Cd1A_2 1_555 1_555
O4A Cd2A_2 1_555 1_555
O4A_2 Cd2A_3 1_555 1_555
O5A Cd2 1_555 1_555
O5_2 Cd2A_2 1_555 1_555
O5A_2 C9A 1_555 1_555
O6_2 Cd2A_2 1_555 1_555
O6A Cd2 1_555 1_555
O6A_2 Cd2_2 1_555 1_555
O7A Cd1A 1_555 1_555
O8A Cd3 1_555 1_555
O9A Cd1 1_555 1_555
O10A Cd2 1_555 1_555
O11A C18A 1_555 1_555
O12A H1A 1_555 1_555
O13A Cd3 1_555 1_555
H2A O13A 1_555 1_555
H3A O13A 1_555 1_555
N1A Cd1A 1_555 1_555
N1_2 Cd1 1_555 1_555
N1A_2 C19A 1_555 1_555
N2A Cd3 1_555 1_555
N3A Cd2A_2 1_555 1_555
N3A_2 C29A 1_555 1_555
C1A C2A 1_555 1_555
C2A H4A 1_555 1_555
C3A C2A 1_555 1_555
H5A C3A 1_555 1_555
C4A C3A 1_555 1_555
H6A C4A 1_555 1_555
C5A C4A 1_555 1_555
C6A C1A 1_555 1_555
C7A O2 1_555 1_555
C8A O3A_2 1_555 1_555
C9A O6A_2 1_555 1_555
C10A C16 1_555 1_555
C11A C10A 1_555 1_555
C12A C11A 1_555 1_555
C13A C12A 1_555 1_555
H7A C13A 1_555 1_555
C14A C13A 1_555 1_555
H8A C14A 1_555 1_555
C15A C10A 1_555 1_555
H9A C15A 1_555 1_555
C16A C10 1_555 1_555
C17A O9A 1_555 1_555
C18A O12A 1_555 1_555
C19A H10A 1_555 1_555
C20A C19A 1_555 1_555
H11A C20A 1_555 1_555
C21A C20A 1_555 1_555
C22A C21A 1_555 1_555
H12A C22A 1_555 1_555
C23A N1A_2 1_555 1_555
H13A C23A 1_555 1_555
C24A C21A 1_555 1_555
C25A C24A 1_555 1_555
H14A C25A 1_555 1_555
C26A N2A 1_555 1_555
H15A C26A 1_555 1_555
C27A C24A 1_555 1_555
H16A C27A 1_555 1_555
C28A N2A 1_555 1_555
H17A C28A 1_555 1_555
C29A H18A 1_555 1_555
C30A C29A 1_555 1_555
H19A C30A 1_555 1_555
C31A C31 1_555 1_555
C32A C31A 1_555 1_555
H20A C32A 1_555 1_555
C33A N3A_2 1_555 1_555
H21A C33A 1_555 1_555
Cd2 O9A 1_555 1_555
O4 C8 1_555 1_555
O6 Cd2A 1_555 1_555
O10 Cd2A_2 1_555 1_555
C5 C6 1_555 1_555
C6 C8 1_555 1_555
C12 C18 1_555 1_555
C14 C15 1_555 1_555
C22 C23 1_555 1_555
C25 C26 1_555 1_555
C27 C28 1_555 1_555
C32 C33 1_555 1_555
Cd1A_2 O2A_2 1_555 1_555
Cd2A_2 O3A 1_555 1_555
O4A_2 C8A 1_555 1_555
O7A C16A 1_555 1_555
O8A C16A 1_555 1_555
O10A C17A 1_555 1_555
C1A C7A 1_555 1_555
C5A C6A 1_555 1_555
C5A C9A 1_555 1_555
C6A C8A 1_555 1_555
C11A C17A 1_555 1_555
C12A C18A 1_555 1_555
C14A C15A 1_555 1_555
C22A C23A 1_555 1_555
C25A C26A 1_555 1_555
C27A C28A 1_555 1_555
C30A C31A 1_555 1_555
C32A C33A 1_555 1_555

#END
