
#######################################################################
#
#                 Cambridge Crystallographic Data Centre
#                                CCDC 
#
#######################################################################
#
# If this CIF has been generated from an entry in the Cambridge 
# Structural Database, then it will include bibliographic, chemical, 
# crystal, experimental, refinement or atomic coordinate data resulting 
# from the CCDC's data processing and validation procedures.
#
#######################################################################

data_YOPNUO
_symmetry_cell_setting           monoclinic
_symmetry_space_group_name_H-M   'P 21/c'
_symmetry_Int_Tables_number      14
_space_group_name_Hall           '-P 2ybc'
loop_
_symmetry_equiv_pos_site_id
_symmetry_equiv_pos_as_xyz
1 x,y,z
2 -x,1/2+y,1/2-z
3 -x,-y,-z
4 x,1/2-y,1/2+z
_cell_length_a                   9.374(3)
_cell_length_b                   21.316(6)
_cell_length_c                   17.130(4)
_cell_angle_alpha                90
_cell_angle_beta                 118.334(12)
_cell_angle_gamma                90
_cell_volume                     3012.78
loop_
_atom_site_label
_atom_site_type_symbol
_atom_site_fract_x
_atom_site_fract_y
_atom_site_fract_z
N1 N 1.1813(11) -0.2459(3) 0.1807(5)
C1 C 1.2757(14) -0.2144(4) 0.2525(7)
H1 H 1.3845 -0.2257 0.2826
C2 C 1.0252(15) -0.2296(5) 0.1400(7)
H2 H 0.9542 -0.2521 0.0900
Cd1 Cd 0.72237(9) 0.18701(3) 0.38881(4)
Cd2 Cd 0.29308(11) -0.00747(3) 0.09029(5)
O1 O 0.4702(9) 0.1335(3) 0.3677(4)
O2 O 0.4644(8) 0.2104(3) 0.2842(4)
O3 O 0.3121(9) 0.0777(3) 0.1796(4)
O4 O 0.1087(9) 0.0132(3) 0.1478(4)
O5 O -0.0899(10) 0.1181(3) -0.0028(4)
O6 O -0.2832(9) 0.0707(3) 0.0132(4)
O7 O -0.0386(9) 0.2851(3) 0.0276(4)
O8 O -0.2788(9) 0.2484(3) -0.0035(4)
O9 O 0.1420(9) 0.0588(3) -0.0290(4)
H3 H 0.0966 0.0374 -0.0765
H4 H 0.0693 0.0778 -0.0202
O10 O 0.4134(12) -0.0705(4) 0.2100(5)
H5 H 0.4606 -0.1002 0.1982
H6 H 0.4830 -0.0496 0.2539
O11 O 0.5393(12) 0.0337(5) 0.1061(7)
H7 H 0.5902 0.0450 0.0786
N2 N 0.8318(10) 0.0924(3) 0.3891(5)
C3 C 0.7392(14) 0.0452(4) 0.3395(7)
H8 H 0.6272 0.0503 0.3108
C4 C 0.8018(12) -0.0101(3) 0.3292(5)
H9 H 0.7322 -0.0415 0.2939
C5 C 0.9705(12) -0.0201(3) 0.3713(5)
C6 C 1.0636(14) 0.0291(4) 0.4209(6)
H10 H 1.1758 0.0251 0.4502
C7 C 0.9906(9) 0.0881(2) 0.4288(4)
H11 H 1.0552 0.1216 0.4612
C8 C 1.0400(9) -0.0817(2) 0.3573(4)
H12 H 1.1568 -0.0811 0.3938
H13 H 0.9983 -0.1162 0.3775
C9 C 1.0027(9) -0.0933(2) 0.2670(4)
H14 H 1.0346 -0.0562 0.2465
H15 H 0.8856 -0.0962 0.2327
C10 C 1.0702(9) -0.1480(2) 0.2421(4)
C11 C 0.9637(16) -0.1808(5) 0.1684(7)
H16 H 0.8541 -0.1706 0.1386
C12 C 1.2269(15) -0.1669(4) 0.2862(7)
H17 H 1.2995 -0.1474 0.3388
C13 C -0.1271(13) 0.2499(4) 0.0447(6)
C14 C -0.0485(12) 0.2106(4) 0.1296(6)
H18 H -0.0678 0.2345 0.1726
C15 C 0.1314(12) 0.2068(4) 0.1699(6)
H19 H 0.1762 0.2489 0.1818
H20 H 0.1599 0.1873 0.1280
C16 C 0.2068(12) 0.1690(3) 0.2565(6)
H21 H 0.1734 0.1900 0.2961
C17 C 0.3932(13) 0.1691(4) 0.3053(6)
C18 C 0.1342(11) 0.1032(4) 0.2410(5)
H22 H 0.1767 0.0830 0.2992
C19 C -0.0514(12) 0.1086(4) 0.2030(6)
H23 H -0.0973 0.0667 0.1900
H24 H -0.0736 0.1262 0.2483
C20 C -0.1374(12) 0.1483(4) 0.1194(6)
H25 H -0.2443 0.1587 0.1130
C21 C 0.1872(13) 0.0625(4) 0.1842(6)
C22 C -0.1664(13) 0.1111(4) 0.0376(6)
H26 H 0.57(2) -0.004(4) 0.121(15)
N1A N 0.8187(11) 0.2541(3) 0.3193(5)
Cd1A Cd 1.27763(9) -0.31299(3) 0.11119(4)
Cd1C Cd -0.27763(9) 0.31299(3) -0.11119(4)
Cd2B Cd -0.29308(11) 0.00747(3) -0.09029(5)
O6B O 0.2832(9) -0.0707(3) -0.0132(4)
O7C O 0.9614(9) 0.2149(3) 0.5276(4)
O8C O 0.7212(9) 0.2516(3) 0.4965(4)
O12 O 0.5825(18) 1.0128(6) 0.6393(8)
O13 O 0.4309(18) 0.1009(6) 0.5137(8)
O14 O 0.2890(16) 0.3078(6) 0.0717(9)
O15 O 0.5891(18) 0.8345(4) 0.1972(11)
loop_
_geom_bond_atom_site_label_1
_geom_bond_atom_site_label_2
_geom_bond_site_symmetry_1
_geom_bond_site_symmetry_2
N1 C1 1_555 1_555
C1 H1 1_555 1_555
C2 N1 1_555 1_555
H2 C2 1_555 1_555
Cd1 O1 1_555 1_555
Cd2 O3 1_555 1_555
O1 C17 1_555 1_555
O2 Cd1 1_555 1_555
O3 C21 1_555 1_555
O4 Cd2 1_555 1_555
O5 C22 1_555 1_555
O6 C22 1_555 1_555
O7 C13 1_555 1_555
O8 C13 1_555 1_555
O9 Cd2 1_555 1_555
H3 O9 1_555 1_555
H4 O9 1_555 1_555
O10 Cd2 1_555 1_555
H5 O10 1_555 1_555
H6 O10 1_555 1_555
O11 Cd2 1_555 1_555
H7 O11 1_555 1_555
N2 Cd1 1_555 1_555
C3 N2 1_555 1_555
H8 C3 1_555 1_555
C4 C3 1_555 1_555
H9 C4 1_555 1_555
C5 C4 1_555 1_555
C6 C5 1_555 1_555
H10 C6 1_555 1_555
C7 N2 1_555 1_555
H11 C7 1_555 1_555
C8 C5 1_555 1_555
H12 C8 1_555 1_555
H13 C8 1_555 1_555
C9 C8 1_555 1_555
H14 C9 1_555 1_555
H15 C9 1_555 1_555
C10 C9 1_555 1_555
C11 C2 1_555 1_555
H16 C11 1_555 1_555
C12 C1 1_555 1_555
H17 C12 1_555 1_555
C13 C14 1_555 1_555
C14 H18 1_555 1_555
C15 C14 1_555 1_555
H19 C15 1_555 1_555
H20 C15 1_555 1_555
C16 C15 1_555 1_555
H21 C16 1_555 1_555
C17 O2 1_555 1_555
C18 C16 1_555 1_555
H22 C18 1_555 1_555
C19 C18 1_555 1_555
H23 C19 1_555 1_555
H24 C19 1_555 1_555
C20 C14 1_555 1_555
H25 C20 1_555 1_555
C21 O4 1_555 1_555
C22 C20 1_555 1_555
H26 O11 1_555 1_555
N1A Cd1 1_555 1_555
Cd1A N1 1_555 1_555
Cd1C O7 1_555 1_555
Cd2B O6 1_555 1_555
O6B Cd2 1_555 1_555
O7C Cd1 1_555 1_555
O8C Cd1 1_555 1_555
O8 Cd1C 1_555 1_555
C6 C7 1_555 1_555
C10 C11 1_555 1_555
C10 C12 1_555 1_555
C16 C17 1_555 1_555
C18 C21 1_555 1_555
C19 C20 1_555 1_555

#END
