
#######################################################################
#
#                 Cambridge Crystallographic Data Centre
#                                CCDC 
#
#######################################################################
#
# If this CIF has been generated from an entry in the Cambridge 
# Structural Database, then it will include bibliographic, chemical, 
# crystal, experimental, refinement or atomic coordinate data resulting 
# from the CCDC's data processing and validation procedures.
#
#######################################################################

data_YOPPUP
_symmetry_cell_setting           trigonal
_symmetry_space_group_name_H-M   'P 31 2 1'
_symmetry_Int_Tables_number      152
_space_group_name_Hall           'P 31 2"'
loop_
_symmetry_equiv_pos_site_id
_symmetry_equiv_pos_as_xyz
1 x,y,z
2 -y,x-y,1/3+z
3 -x+y,-x,2/3+z
4 y,x,-z
5 x-y,-y,2/3-z
6 -x,-x+y,1/3-z
_cell_length_a                   11.9875(17)
_cell_length_b                   11.9875(17)
_cell_length_c                   32.248(6)
_cell_angle_alpha                90
_cell_angle_beta                 90
_cell_angle_gamma                120
_cell_volume                     4013.2
loop_
_atom_site_label
_atom_site_type_symbol
_atom_site_fract_x
_atom_site_fract_y
_atom_site_fract_z
W1 W 0.29454(4) 0.11494(5) 0.218340(14)
Cu1 Cu 0.45566(14) 0.25222(15) 0.15761(5)
Cu2 Cu 0.10567(24) -0.03440(16) 0.26702(6)
S1 S 0.3332(3) 0.0336(3) 0.16211(10)
S2 S 0.4362(3) 0.3226(3) 0.22195(10)
S3 S 0.0969(3) 0.0840(5) 0.21560(12)
S4 S 0.3085(3) 0.0128(3) 0.27424(9)
N1 N -0.4506(9) -0.6342(9) 0.4400(3)
N2 N -0.3188(10) -0.6896(9) 0.4660(3)
N3 N -0.4373(9) -0.1319(9) 0.4141(3)
N4 N -0.3182(9) 0.0400(10) 0.4520(3)
N5 N -0.2389(11) -0.3296(9) 0.3003(3)
N6 N -0.0451(11) -0.1702(16) 0.2927(3)
C1 C -0.5490(10) -0.5426(10) 0.3931(3)
C2 C -0.5691(11) -0.4385(10) 0.4047(3)
C3 C -0.5376(10) -0.3390(10) 0.3763(4)
C4 C -0.4800(12) -0.3372(11) 0.3382(4)
C5 C -0.4566(10) -0.4352(9) 0.3287(3)
C6 C -0.4974(9) -0.5404(9) 0.3547(3)
C7 C -0.5742(13) -0.6459(12) 0.4238(4)
H3 H -0.6254 -0.7294 0.4108
H4 H -0.6234 -0.6406 0.4468
C8 C -0.6253(15) -0.4422(16) 0.4472(4)
H5 H -0.6126 -0.3585 0.4537
H6 H -0.5831 -0.4665 0.4676
H7 H -0.7158 -0.5038 0.4470
C9 C -0.5519(12) -0.2280(12) 0.3909(4)
H8 H -0.5655 -0.1867 0.3671
H9 H -0.6272 -0.2602 0.4086
C10 C -0.4367(16) -0.2217(16) 0.3098(5)
H10 H -0.3578 -0.2030 0.2963
H11 H -0.4232 -0.1486 0.3258
H12 H -0.5019 -0.2407 0.2893
C11 C -0.3760(16) -0.4204(12) 0.2905(4)
H13 H -0.3870 -0.5034 0.2826
H14 H -0.4035 -0.3876 0.2675
C12 C -0.4745(13) -0.6504(14) 0.3430(4)
H15 H -0.5092 -0.7153 0.3642
H16 H -0.3837 -0.6182 0.3404
H17 H -0.5162 -0.6870 0.3171
C13 C -0.4394(11) -0.7322(12) 0.4534(4)
H18 H -0.5054 -0.8177 0.4540
C14 C -0.2539(14) -0.5571(14) 0.4602(4)
H19 H -0.1677 -0.5014 0.4664
C15 C -0.3357(12) -0.5223(12) 0.4442(4)
H20 H -0.3178 -0.4396 0.4374
C16 C -0.4277(12) -0.0296(12) 0.4342(4)
H21 H -0.4941 -0.0108 0.4352
C17 C -0.2500(12) -0.0210(13) 0.4417(5)
H22 H -0.1666 0.0050 0.4504
C18 C -0.3194(12) -0.1207(14) 0.4179(5)
H23 H -0.2927 -0.1738 0.4058
C19 C -0.1572(15) -0.2351(14) 0.2760(4)
H24 H -0.1782 -0.2176 0.2500
C20 C -0.0556(15) -0.2282(12) 0.3305(4)
H25 H 0.0101 -0.2024 0.3499
C21 C -0.1759(13) -0.3281(12) 0.3350(4)
H26 H -0.2087 -0.3844 0.3573
Cu1A Cu -0.25222(15) 0.20344(21) 0.49094(5)
Cu1A_2 Cu -0.25222(15) -0.79656(21) 0.49094(5)
N2B N 0.6292(13) 0.3188(10) 0.1327(3)
N4B N 0.3582(13) 0.3182(9) 0.1187(3)
O1 O 0.0000 0.7847(19) 0.1667
H1? H 0.0553 0.7782 0.1802
H2? H -0.0162 0.8442 0.1647
loop_
_geom_bond_atom_site_label_1
_geom_bond_atom_site_label_2
_geom_bond_site_symmetry_1
_geom_bond_site_symmetry_2
W1 S1 1_555 1_555
Cu1 S1 1_555 1_555
Cu2 S3 1_555 1_555
S2 W1 1_555 1_555
S3 W1 1_555 1_555
S4 W1 1_555 1_555
N1 C7 1_555 1_555
N2 C13 1_555 1_555
N3 C9 1_555 1_555
N4 C16 1_555 1_555
N5 C11 1_555 1_555
N6 Cu2 1_555 1_555
C1 C2 1_555 1_555
C2 C3 1_555 1_555
C3 C4 1_555 1_555
C4 C5 1_555 1_555
C5 C6 1_555 1_555
C6 C1 1_555 1_555
C7 C1 1_555 1_555
H3 C7 1_555 1_555
H4 C7 1_555 1_555
C8 C2 1_555 1_555
H5 C8 1_555 1_555
H6 C8 1_555 1_555
H7 C8 1_555 1_555
C9 C3 1_555 1_555
H8 C9 1_555 1_555
H9 C9 1_555 1_555
C10 C4 1_555 1_555
H10 C10 1_555 1_555
H11 C10 1_555 1_555
H12 C10 1_555 1_555
C11 C5 1_555 1_555
H13 C11 1_555 1_555
H14 C11 1_555 1_555
C12 C6 1_555 1_555
H15 C12 1_555 1_555
H16 C12 1_555 1_555
H17 C12 1_555 1_555
C13 N1 1_555 1_555
H18 C13 1_555 1_555
C14 N2 1_555 1_555
H19 C14 1_555 1_555
C15 N1 1_555 1_555
H20 C15 1_555 1_555
C16 N3 1_555 1_555
H21 C16 1_555 1_555
C17 N4 1_555 1_555
H22 C17 1_555 1_555
C18 N3 1_555 1_555
H23 C18 1_555 1_555
C19 N5 1_555 1_555
H24 C19 1_555 1_555
C20 N6 1_555 1_555
H25 C20 1_555 1_555
C21 N5 1_555 1_555
H26 C21 1_555 1_555
Cu1A N4 1_555 1_555
Cu1A_2 N2 1_555 1_555
N2B Cu1 1_555 1_555
N4B Cu1 1_555 1_555
Cu1 S2 1_555 1_555
Cu2 S4 1_555 1_555
N6 C19 1_555 1_555
C14 C15 1_555 1_555
C17 C18 1_555 1_555
C20 C21 1_555 1_555

#END
