
#######################################################################
#
#                 Cambridge Crystallographic Data Centre
#                                CCDC 
#
#######################################################################
#
# If this CIF has been generated from an entry in the Cambridge 
# Structural Database, then it will include bibliographic, chemical, 
# crystal, experimental, refinement or atomic coordinate data resulting 
# from the CCDC's data processing and validation procedures.
#
#######################################################################

data_YOPQEB
_symmetry_cell_setting           monoclinic
_symmetry_space_group_name_H-M   'P 21/n'
_symmetry_Int_Tables_number      14
_space_group_name_Hall           '-P 2yn'
loop_
_symmetry_equiv_pos_site_id
_symmetry_equiv_pos_as_xyz
1 x,y,z
2 1/2-x,1/2+y,1/2-z
3 -x,-y,-z
4 1/2+x,1/2-y,1/2+z
_cell_length_a                   9.1428(8)
_cell_length_b                   16.0129(13)
_cell_length_c                   15.1324(11)
_cell_angle_alpha                90
_cell_angle_beta                 93.151(3)
_cell_angle_gamma                90
_cell_volume                     2212.08
loop_
_atom_site_label
_atom_site_type_symbol
_atom_site_fract_x
_atom_site_fract_y
_atom_site_fract_z
Co1 Co 0.39054(3) 0.36526(2) 0.66464(2)
Co2 Co 0.46907(3) 0.142187(18) 0.70795(2)
O1 O 0.56425(18) 0.19854(11) 0.60208(11)
O2 O 0.58925(18) 0.33727(11) 0.62083(11)
O3 O 1.1535(2) 0.36657(16) 0.65418(14)
O4 O 1.2791(2) 0.32131(18) 0.54710(15)
O5 O 0.9274(3) 0.12364(12) 0.30286(12)
O6 O 0.87369(18) 0.24821(11) 0.25251(10)
O7 O 0.4566(2) -0.02430(11) 0.33358(13)
O8 O 0.2996(3) 0.03756(12) 0.23626(17)
H1 H 0.2672 -0.0099 0.2297
O9 O 0.16097(18) 0.32466(11) 0.28306(12)
O10 O 0.3411(2) 0.41472(11) 0.31521(15)
O11 O 0.4000(2) 0.49298(12) 0.64016(14)
H2 H 0.381(4) 0.502(2) 0.5853(9)
H3 H 0.476(3) 0.520(2) 0.6575(19)
O12 O 0.3888(3) 0.07643(16) 0.81836(15)
H4 H 0.321(4) 0.042(2) 0.804(2)
H5 H 0.415(4) 0.072(3) 0.8724(10)
N1 N 0.2795(2) 0.11145(13) 0.62480(13)
C1 C 0.6257(2) 0.26678(14) 0.59051(13)
C2 C 0.7621(2) 0.26685(13) 0.53825(14)
C3 C 0.8912(2) 0.29787(15) 0.57963(14)
H6 H 0.8892 0.3222 0.6354
C4 C 1.0227(2) 0.29267(15) 0.53815(14)
C5 C 1.1590(2) 0.32936(16) 0.58220(16)
C6 C 1.0259(2) 0.25574(15) 0.45502(15)
H7 H 1.1149 0.2483 0.4290
C7 C 0.8961(2) 0.22996(13) 0.41067(14)
C8 C 0.9007(2) 0.19898(14) 0.31698(14)
C9 C 0.7617(2) 0.23550(12) 0.45136(13)
C10 C 0.6190(2) 0.21705(13) 0.40192(13)
C11 C 0.5787(2) 0.13657(12) 0.37476(15)
H8 H 0.6415 0.0918 0.3869
C12 C 0.4438(2) 0.12359(13) 0.32935(14)
C13 C 0.4005(2) 0.03796(14) 0.29895(16)
C14 C 0.3485(2) 0.18988(13) 0.31020(14)
H9 H 0.2582 0.1803 0.2806
C15 C 0.3893(2) 0.27032(13) 0.33563(14)
C16 C 0.5240(2) 0.28320(13) 0.38188(14)
H10 H 0.5507 0.3370 0.3996
C17 C 0.2886(2) 0.34151(14) 0.30940(15)
C18 C 0.3008(3) 0.0806(2) 0.54455(18)
H11 H 0.3919 0.0883 0.5213
C19 C 0.1946(3) 0.0378(2) 0.49407(18)
H12 H 0.2159 0.0174 0.4387
C20 C 0.0572(3) 0.02512(15) 0.52526(15)
C21 C 0.0323(3) 0.0606(2) 0.6069(2)
H13 H -0.0595 0.0563 0.6301
C22 C 0.1446(3) 0.1024(2) 0.6536(2)
H14 H 0.1250 0.1255 0.7081
N1B N -0.2795(2) -0.11145(13) 0.37520(13)
C18B C -0.3008(3) -0.0806(2) 0.45545(18)
H11B H -0.3919 -0.0883 0.4787
C19B C -0.1946(3) -0.0378(2) 0.50593(18)
H12B H -0.2159 -0.0174 0.5613
C20B C -0.0572(3) -0.02512(15) 0.47474(15)
C21B C -0.0323(3) -0.0606(2) 0.3931(2)
H13B H 0.0595 -0.0563 0.3699
C22B C -0.1446(3) -0.1024(2) 0.3464(2)
H14B H -0.1250 -0.1255 0.2919
Co1B Co -0.39054(3) -0.36526(2) 0.33536(2)
Co2B Co -0.46907(3) -0.142187(18) 0.29205(2)
O1B O -0.56425(18) -0.19854(11) 0.39792(11)
O2B O -0.58925(18) -0.33727(11) 0.37917(11)
O3B O -1.1535(2) -0.36657(16) 0.34582(14)
O4B O -1.2791(2) -0.32131(18) 0.45290(15)
O5B O -0.9274(3) -0.12364(12) 0.69714(12)
O6B O -0.87369(18) -0.24821(11) 0.74749(10)
O7B O -0.4566(2) 0.02430(11) 0.66642(13)
O8B O -0.2996(3) -0.03756(12) 0.76374(17)
H1B H -0.2672 0.0099 0.7703
O9B O -0.16097(18) -0.32466(11) 0.71694(12)
O10B O -0.3411(2) -0.41472(11) 0.68479(15)
O11B O -0.4000(2) -0.49298(12) 0.35984(14)
H2B H -0.381(4) -0.502(2) 0.4147(9)
H3B H -0.476(3) -0.520(2) 0.3425(19)
O12B O -0.3888(3) -0.07643(16) 0.18164(15)
H4B H -0.321(4) -0.042(2) 0.196(2)
H5B H -0.415(4) -0.072(3) 0.1276(10)
C1B C -0.6257(2) -0.26678(14) 0.40949(13)
C2B C -0.7621(2) -0.26685(13) 0.46175(14)
C3B C -0.8912(2) -0.29787(15) 0.42037(14)
H6B H -0.8892 -0.3222 0.3646
C4B C -1.0227(2) -0.29267(15) 0.46185(14)
C5B C -1.1590(2) -0.32936(16) 0.41780(16)
C6B C -1.0259(2) -0.25574(15) 0.54498(15)
H7B H -1.1149 -0.2483 0.5710
C7B C -0.8961(2) -0.22996(13) 0.58933(14)
C8B C -0.9007(2) -0.19898(14) 0.68302(14)
C9B C -0.7617(2) -0.23550(12) 0.54864(13)
C10B C -0.6190(2) -0.21705(13) 0.59808(13)
C11B C -0.5787(2) -0.13657(12) 0.62524(15)
H8B H -0.6415 -0.0918 0.6131
C12B C -0.4438(2) -0.12359(13) 0.67065(14)
C13B C -0.4005(2) -0.03796(14) 0.70105(16)
C14B C -0.3485(2) -0.18988(13) 0.68980(14)
H9B H -0.2582 -0.1803 0.7194
C15B C -0.3893(2) -0.27032(13) 0.66437(14)
C16B C -0.5240(2) -0.28320(13) 0.61812(14)
H10B H -0.5507 -0.3370 0.6004
C17B C -0.2886(2) -0.34151(14) 0.69060(15)
Co1_2 Co 1.39054(3) 0.36526(2) 0.66464(2)
Co1A Co -0.89054(3) -0.13474(2) 0.83536(2)
Co1B_2 Co -1.39054(3) -0.36526(2) 0.33536(2)
Co1C Co 0.89054(3) 0.13474(2) 0.16464(2)
Co2_2 Co -0.53093(3) 0.142187(18) 0.70795(2)
Co2A Co -0.96907(3) -0.357813(18) 0.79205(2)
Co2A_2 Co 0.03093(3) -0.357813(18) 0.79205(2)
Co2B_2 Co 0.53093(3) -0.142187(18) 0.29205(2)
Co2C Co -0.03093(3) 0.357813(18) 0.20795(2)
Co2C_2 Co 0.96907(3) 0.357813(18) 0.20795(2)
O3_2 O 0.1535(2) 0.36657(16) 0.65418(14)
O3B_2 O -0.1535(2) -0.36657(16) 0.34582(14)
O4_2 O 0.2791(2) 0.32131(18) 0.54710(15)
O4B_2 O -0.2791(2) -0.32131(18) 0.45290(15)
O5A O -0.4274(3) -0.37636(12) 0.19714(12)
O5C O 0.4274(3) 0.37636(12) 0.80286(12)
O6A O -0.37369(18) -0.25179(11) 0.24749(10)
O6C O 0.37369(18) 0.25179(11) 0.75251(10)
O7_2 O -0.5434(2) -0.02430(11) 0.33358(13)
O7B_2 O 0.5434(2) 0.02430(11) 0.66642(13)
O9A O -0.66097(18) -0.17534(11) 0.21694(12)
O9C O 0.66097(18) 0.17534(11) 0.78306(12)
O13 O 0.3007(3) 0.52399(15) 0.47448(16)
O14 O 0.5001(8) 0.0070(5) 0.9682(4)
O14B O 0.4999(8) -0.0070(5) 1.0318(4)
loop_
_geom_bond_atom_site_label_1
_geom_bond_atom_site_label_2
_geom_bond_site_symmetry_1
_geom_bond_site_symmetry_2
Co1 O2 1_555 1_555
Co2 O1 1_555 1_555
O1 C1 1_555 1_555
O2 C1 1_555 1_555
O3 C5 1_555 1_555
O4 C5 1_555 1_555
O5 C8 1_555 1_555
O6 C8 1_555 1_555
O7 C13 1_555 1_555
O8 H1 1_555 1_555
O9 C17 1_555 1_555
O10 C17 1_555 1_555
O11 Co1 1_555 1_555
H2 O11 1_555 1_555
H3 O11 1_555 1_555
O12 Co2 1_555 1_555
H4 O12 1_555 1_555
H5 O12 1_555 1_555
N1 Co2 1_555 1_555
C1 C2 1_555 1_555
C2 C3 1_555 1_555
C3 H6 1_555 1_555
C4 C3 1_555 1_555
C5 C4 1_555 1_555
C6 C4 1_555 1_555
H7 C6 1_555 1_555
C7 C6 1_555 1_555
C8 C7 1_555 1_555
C9 C2 1_555 1_555
C10 C9 1_555 1_555
C11 C10 1_555 1_555
H8 C11 1_555 1_555
C12 C11 1_555 1_555
C13 O8 1_555 1_555
C14 C12 1_555 1_555
H9 C14 1_555 1_555
C15 C14 1_555 1_555
C16 C10 1_555 1_555
H10 C16 1_555 1_555
C17 C15 1_555 1_555
C18 N1 1_555 1_555
H11 C18 1_555 1_555
C19 C18 1_555 1_555
H12 C19 1_555 1_555
C20 C19 1_555 1_555
C21 C20 1_555 1_555
H13 C21 1_555 1_555
C22 N1 1_555 1_555
H14 C22 1_555 1_555
N1B C18B 1_555 1_555
C18B H11B 1_555 1_555
C19B C18B 1_555 1_555
H12B C19B 1_555 1_555
C20B C20 1_555 1_555
C21B C20B 1_555 1_555
H13B C21B 1_555 1_555
C22B N1B 1_555 1_555
H14B C22B 1_555 1_555
Co1B O2B 1_555 1_555
Co2B N1B 1_555 1_555
O1B Co2B 1_555 1_555
O2B C1B 1_555 1_555
O3B C5B 1_555 1_555
O4B C5B 1_555 1_555
O5B C8B 1_555 1_555
O6B C8B 1_555 1_555
O7B C13B 1_555 1_555
O8B H1B 1_555 1_555
O9B C17B 1_555 1_555
O10B C17B 1_555 1_555
O11B Co1B 1_555 1_555
H2B O11B 1_555 1_555
H3B O11B 1_555 1_555
O12B Co2B 1_555 1_555
H4B O12B 1_555 1_555
H5B O12B 1_555 1_555
C1B O1B 1_555 1_555
C2B C1B 1_555 1_555
C3B C2B 1_555 1_555
H6B C3B 1_555 1_555
C4B C3B 1_555 1_555
C5B C4B 1_555 1_555
C6B C4B 1_555 1_555
H7B C6B 1_555 1_555
C7B C6B 1_555 1_555
C8B C7B 1_555 1_555
C9B C2B 1_555 1_555
C10B C9B 1_555 1_555
C11B C10B 1_555 1_555
H8B C11B 1_555 1_555
C12B C11B 1_555 1_555
C13B O8B 1_555 1_555
C14B C12B 1_555 1_555
H9B C14B 1_555 1_555
C15B C14B 1_555 1_555
C16B C10B 1_555 1_555
H10B C16B 1_555 1_555
C17B C15B 1_555 1_555
Co1_2 O3 1_555 1_555
Co1A O5B 1_555 1_555
Co1B_2 O3B 1_555 1_555
Co1C O5 1_555 1_555
Co2_2 O7B 1_555 1_555
Co2A O6B 1_555 1_555
Co2A_2 O9B 1_555 1_555
Co2B_2 O7 1_555 1_555
Co2C O9 1_555 1_555
Co2C_2 O6 1_555 1_555
O3_2 Co1 1_555 1_555
O3B_2 Co1B 1_555 1_555
O4_2 Co1 1_555 1_555
O4B_2 Co1B 1_555 1_555
O5A Co1B 1_555 1_555
O5C Co1 1_555 1_555
O6A Co1B 1_555 1_555
O6C Co1 1_555 1_555
O7_2 Co2B 1_555 1_555
O7B_2 Co2 1_555 1_555
O9A Co2B 1_555 1_555
O9C Co2 1_555 1_555
Co2 O6C 1_555 1_555
O4 Co1_2 1_555 1_555
O6 Co1C 1_555 1_555
C7 C9 1_555 1_555
C12 C13 1_555 1_555
C15 C16 1_555 1_555
C21 C22 1_555 1_555
C19B C20B 1_555 1_555
C21B C22B 1_555 1_555
Co2B O6A 1_555 1_555
O4B Co1B_2 1_555 1_555
O6B Co1A 1_555 1_555
C7B C9B 1_555 1_555
C12B C13B 1_555 1_555
C15B C16B 1_555 1_555

#END
