
#######################################################################
#
#                 Cambridge Crystallographic Data Centre
#                                CCDC 
#
#######################################################################
#
# If this CIF has been generated from an entry in the Cambridge 
# Structural Database, then it will include bibliographic, chemical, 
# crystal, experimental, refinement or atomic coordinate data resulting 
# from the CCDC's data processing and validation procedures.
#
#######################################################################

data_YOPQID
_symmetry_cell_setting           monoclinic
_symmetry_space_group_name_H-M   'P 21/c'
_symmetry_Int_Tables_number      14
_space_group_name_Hall           '-P 2ybc'
loop_
_symmetry_equiv_pos_site_id
_symmetry_equiv_pos_as_xyz
1 x,y,z
2 x,1/2-y,1/2+z
3 -x,-y,-z
4 -x,1/2+y,1/2-z
_cell_length_a                   15.246(3)
_cell_length_b                   22.372(4)
_cell_length_c                   21.359(4)
_cell_angle_alpha                90
_cell_angle_beta                 100.20(3)
_cell_angle_gamma                90
_cell_volume                     7170.06
loop_
_atom_site_label
_atom_site_type_symbol
_atom_site_fract_x
_atom_site_fract_y
_atom_site_fract_z
Cu1 Cu 0.75386(3) 0.585570(19) 0.74835(2)
Cu2 Cu 0.25407(3) 0.65794(2) 0.75035(2)
O1 O 0.85605(18) 0.51591(12) 0.74047(15)
H1 H 0.8950 0.4994 0.7818
H2 H 0.8719 0.5027 0.6974
O2 O 0.70839(19) 0.58360(12) 0.65736(13)
H3 H 0.6695 0.5531 0.6309
H4 H 0.7206 0.6122 0.6264
O3 O 0.7951(2) 0.59546(12) 0.83885(13)
H5 H 0.8295 0.6231 0.8666
H6 H 0.7720 0.5734 0.8678
O4 O 0.29968(19) 0.65250(12) 0.84105(13)
H7 H 0.3297 0.6230 0.8698
H8 H 0.2715 0.6730 0.8721
O5 O 0.35257(18) 0.72756(12) 0.73455(15)
H9 H 0.3494 0.7311 0.6882
H10 H 0.3835 0.7604 0.7552
O6 O 0.20541(19) 0.65634(12) 0.66003(13)
H11 H 0.1595 0.6831 0.6327
H12 H 0.2055 0.6272 0.6293
N1 N 0.6641(2) 0.51887(13) 0.76291(15)
N2 N 0.3034(2) 0.57423(13) 0.73926(15)
N3 N 0.8024(2) 0.66961(13) 0.73529(15)
N4 N 1.1635(2) 0.72438(13) 0.76410(15)
C1 C 0.6913(3) 0.46246(18) 0.7702(2)
H13 H 0.7542 0.4546 0.7764
C2 C 0.6333(3) 0.41464(18) 0.7690(2)
H14 H 0.6562 0.3747 0.7757
C3 C 0.5436(3) 0.42443(16) 0.7587(2)
H15 H 0.5027 0.3915 0.7556
C4 C 0.5111(2) 0.48308(16) 0.75265(17)
C5 C 0.5740(2) 0.53015(15) 0.75700(17)
C6 C 0.5445(2) 0.59009(15) 0.75771(19)
H16 H 0.5874 0.6219 0.7611
C7 C 0.4578(2) 0.60337(16) 0.75351(19)
H17 H 0.4402 0.6444 0.7558
C8 C 0.3911(2) 0.55772(16) 0.74591(17)
C9 C 0.4174(2) 0.49721(15) 0.74375(17)
C10 C 0.3498(3) 0.45439(17) 0.73244(19)
H18 H 0.3650 0.4130 0.7292
C11 C 0.2625(3) 0.47157(18) 0.7248(2)
H19 H 0.2161 0.4420 0.7177
C12 C 0.2419(3) 0.53114(18) 0.72902(19)
H20 H 0.1804 0.5427 0.7238
C13 C 0.7412(3) 0.71289(18) 0.7262(2)
H21 H 0.6796 0.7014 0.7202
C14 C 0.7621(3) 0.77261(18) 0.7240(2)
H22 H 0.7157 0.8021 0.7170
C15 C 0.8494(3) 0.79017(17) 0.7328(2)
H23 H 0.8648 0.8318 0.7322
C16 C 0.9165(2) 0.74687(16) 0.74245(17)
C17 C 0.8909(2) 0.68600(15) 0.74162(17)
C18 C 0.9562(2) 0.63997(16) 0.74681(19)
H24 H 0.9379 0.5989 0.7465
C19 C 1.0435(2) 0.65319(16) 0.75239(19)
H25 H 1.0862 0.6215 0.7541
C20 C 1.0737(2) 0.71381(15) 0.75583(17)
C21 C 1.0111(2) 0.76057(15) 0.75267(18)
C22 C 1.0440(3) 0.81900(16) 0.7612(2)
H26 H 1.0037 0.8523 0.7580
C23 C 1.1341(3) 0.82822(18) 0.7740(2)
H27 H 1.1575 0.8677 0.7829
C24 C 1.1917(3) 0.78028(18) 0.7744(2)
H28 H 1.2548 0.7876 0.7823
N4_2 N 0.1635(2) 0.72438(13) 0.76410(15)
Cu2_2 Cu 1.25407(3) 0.65794(2) 0.75035(2)
N5 N 0.5937(2) 0.50359(15) 0.59883(16)
N6 N 0.2388(2) 0.56612(15) 0.57690(16)
C25 C 0.6190(3) 0.4479(2) 0.5898(2)
H29 H 0.6815 0.4390 0.5972
C26 C 0.5577(3) 0.4020(2) 0.5701(2)
H30 H 0.5783 0.3623 0.5638
C27 C 0.4689(3) 0.41422(18) 0.5600(2)
H31 H 0.4263 0.3833 0.5459
C28 C 0.4395(3) 0.47248(17) 0.56934(18)
C29 C 0.5051(3) 0.51652(18) 0.58847(19)
C30 C 0.4795(3) 0.57596(18) 0.59920(19)
H32 H 0.5248 0.6059 0.6100
C31 C 0.3930(3) 0.59115(18) 0.59523(19)
H33 H 0.3777 0.6315 0.6041
C32 C 0.3245(3) 0.54791(17) 0.57742(18)
C33 C 0.3467(3) 0.48885(17) 0.56215(18)
C34 C 0.2748(3) 0.44990(19) 0.5407(2)
H34 H 0.2865 0.4099 0.5280
C35 C 0.1896(3) 0.4696(2) 0.5368(2)
H35 H 0.1406 0.4437 0.5205
C36 C 0.1746(3) 0.5269(2) 0.5570(2)
H36 H 0.1143 0.5390 0.5573
N7 N 0.7414(2) 0.52758(17) 0.93445(18)
N8 N 0.3751(2) 0.55349(16) 0.89515(16)
C37 C 0.7795(3) 0.4750(2) 0.9489(2)
H37 H 0.8431 0.4725 0.9526
C38 C 0.7327(3) 0.4235(2) 0.9574(2)
H38 H 0.7639 0.3870 0.9700
C39 C 0.6419(3) 0.42556(19) 0.9490(2)
H39 H 0.6081 0.3899 0.9529
C40 C 0.5975(3) 0.48023(18) 0.93389(19)
C41 C 0.6511(3) 0.53111(19) 0.9291(2)
C42 C 0.6107(3) 0.58842(19) 0.9185(2)
H40 H 0.6478 0.6229 0.9170
C43 C 0.5215(3) 0.59536(19) 0.9107(2)
H41 H 0.4960 0.6347 0.9063
C44 C 0.4644(3) 0.54466(18) 0.90936(18)
C45 C 0.5019(3) 0.48698(18) 0.92183(19)
C46 C 0.4423(3) 0.43915(19) 0.9210(2)
H42 H 0.4650 0.3995 0.9301
C47 C 0.3528(3) 0.4486(2) 0.9070(2)
H43 H 0.3115 0.4160 0.9061
C48 C 0.3220(3) 0.5072(2) 0.8947(2)
H44 H 0.2588 0.5139 0.8850
N9 N 0.2354(3) 0.71629(16) 0.93427(18)
N10 N -0.1311(3) 0.69457(16) 0.89271(17)
C49 C 0.2756(3) 0.7671(2) 0.9525(2)
H45 H 0.3394 0.7689 0.9573
C50 C 0.2301(3) 0.8186(2) 0.9639(2)
H46 H 0.2623 0.8541 0.9791
C51 C 0.1389(3) 0.81774(18) 0.9546(2)
H47 H 0.1060 0.8532 0.9607
C52 C 0.0932(3) 0.76450(17) 0.93519(19)
C53 C 0.1450(3) 0.71370(18) 0.92770(19)
C54 C 0.1035(3) 0.65701(18) 0.9125(2)
H48 H 0.1397 0.6226 0.9085
C55 C 0.0143(3) 0.65142(19) 0.9041(2)
H49 H -0.0122 0.6126 0.8966
C56 C -0.0415(3) 0.70284(18) 0.90684(19)
C57 C -0.0032(3) 0.75955(17) 0.92232(19)
C58 C -0.0614(3) 0.80775(19) 0.9237(2)
H50 H -0.0382 0.8470 0.9347
C59 C -0.1510(3) 0.7985(2) 0.9093(2)
H51 H -0.1914 0.8312 0.9104
C60 C -0.1837(3) 0.7413(2) 0.8935(2)
H52 H -0.2469 0.7357 0.8826
N11 N 1.0921(2) 0.73732(15) 0.60124(16)
N12 N 0.7351(3) 0.67642(15) 0.56954(17)
C61 C 1.1182(3) 0.7932(2) 0.5969(2)
H53 H 1.1809 0.8016 0.6062
C62 C 1.0586(3) 0.8404(2) 0.5799(2)
H54 H 1.0802 0.8803 0.5759
C63 C 0.9695(3) 0.82921(18) 0.5687(2)
H55 H 0.9276 0.8612 0.5575
C64 C 0.9383(3) 0.77065(17) 0.57360(18)
C65 C 1.0031(3) 0.72526(17) 0.58879(18)
C66 C 0.9761(3) 0.66473(18) 0.59433(19)
H56 H 1.0206 0.6341 0.6031
C67 C 0.8888(3) 0.65009(18) 0.5873(2)
H57 H 0.8722 0.6091 0.5918
C68 C 0.8215(3) 0.69451(18) 0.57344(19)
C69 C 0.8452(3) 0.75477(17) 0.56403(18)
C70 C 0.7748(3) 0.79599(19) 0.5474(2)
H58 H 0.7877 0.8372 0.5404
C71 C 0.6891(3) 0.7769(2) 0.5404(2)
H59 H 0.6411 0.8045 0.5274
C72 C 0.6725(3) 0.7176(2) 0.5529(2)
H60 H 0.6115 0.7054 0.5493
Cl1 Cl 0.46789(10) 0.77175(6) 0.61360(8)
O7 O 0.4736(3) 0.7847(2) 0.54988(19)
O8 O 0.5032(3) 0.71673(16) 0.6369(3)
O9 O 0.5182(5) 0.8150(2) 0.6511(3)
O10 O 0.3781(3) 0.7753(3) 0.6203(3)
Cl2 Cl 0.98063(9) 0.46732(5) 0.62524(6)
O11 O 1.0413(3) 0.42829(17) 0.66388(19)
O12 O 1.0052(3) 0.52665(14) 0.6428(2)
O13 O 0.8939(3) 0.4553(2) 0.6361(2)
O14 O 0.9854(2) 0.45464(16) 0.56037(16)
Cl3 Cl 0.55955(9) 0.77348(5) 0.84662(7)
O15 O 0.5647(5) 0.7663(3) 0.9103(2)
O16 O 0.6130(3) 0.82027(18) 0.8360(3)
O17 O 0.5827(3) 0.72012(16) 0.8201(2)
O18 O 0.4700(3) 0.79076(19) 0.8233(3)
Cl4 Cl 1.06593(9) 0.47416(5) 0.85318(7)
O19 O 1.1126(3) 0.42575(17) 0.8343(3)
O20 O 0.9756(3) 0.4615(2) 0.8366(3)
O21 O 1.0871(5) 0.4782(2) 0.9179(2)
O22 O 1.0890(3) 0.52705(15) 0.8237(2)
loop_
_geom_bond_atom_site_label_1
_geom_bond_atom_site_label_2
_geom_bond_site_symmetry_1
_geom_bond_site_symmetry_2
Cu1 O1 1_555 1_555
Cu2 O4 1_555 1_555
O1 H1 1_555 1_555
H2 O1 1_555 1_555
O2 Cu1 1_555 1_555
H3 O2 1_555 1_555
H4 O2 1_555 1_555
O3 Cu1 1_555 1_555
H5 O3 1_555 1_555
H6 O3 1_555 1_555
O4 H7 1_555 1_555
H8 O4 1_555 1_555
O5 Cu2 1_555 1_555
H9 O5 1_555 1_555
H10 O5 1_555 1_555
O6 Cu2 1_555 1_555
H11 O6 1_555 1_555
H12 O6 1_555 1_555
N1 Cu1 1_555 1_555
N2 Cu2 1_555 1_555
N3 Cu1 1_555 1_555
N4 C20 1_555 1_555
N5 C25 1_555 1_555
N6 C32 1_555 1_555
N7 C37 1_555 1_555
N8 C44 1_555 1_555
N9 C49 1_555 1_555
N10 C56 1_555 1_555
N11 C61 1_555 1_555
N12 C68 1_555 1_555
C1 N1 1_555 1_555
H13 C1 1_555 1_555
C2 C1 1_555 1_555
H14 C2 1_555 1_555
C3 C2 1_555 1_555
H15 C3 1_555 1_555
C4 C3 1_555 1_555
C5 N1 1_555 1_555
C6 C5 1_555 1_555
H16 C6 1_555 1_555
C7 C6 1_555 1_555
H17 C7 1_555 1_555
C8 N2 1_555 1_555
C9 C4 1_555 1_555
C10 C9 1_555 1_555
H18 C10 1_555 1_555
C11 C10 1_555 1_555
H19 C11 1_555 1_555
C12 N2 1_555 1_555
H20 C12 1_555 1_555
C13 N3 1_555 1_555
H21 C13 1_555 1_555
C14 C13 1_555 1_555
H22 C14 1_555 1_555
C15 C14 1_555 1_555
H23 C15 1_555 1_555
C16 C15 1_555 1_555
C17 N3 1_555 1_555
C18 C17 1_555 1_555
H24 C18 1_555 1_555
C19 C18 1_555 1_555
H25 C19 1_555 1_555
C20 C19 1_555 1_555
C21 C16 1_555 1_555
C22 C21 1_555 1_555
H26 C22 1_555 1_555
C23 C22 1_555 1_555
H27 C23 1_555 1_555
C24 N4 1_555 1_555
H28 C24 1_555 1_555
C25 H29 1_555 1_555
C26 C25 1_555 1_555
H30 C26 1_555 1_555
C27 C26 1_555 1_555
H31 C27 1_555 1_555
C28 C27 1_555 1_555
C29 N5 1_555 1_555
C30 C29 1_555 1_555
H32 C30 1_555 1_555
C31 C30 1_555 1_555
H33 C31 1_555 1_555
C32 C31 1_555 1_555
C33 C28 1_555 1_555
C34 C33 1_555 1_555
H34 C34 1_555 1_555
C35 C34 1_555 1_555
H35 C35 1_555 1_555
C36 N6 1_555 1_555
H36 C36 1_555 1_555
C37 H37 1_555 1_555
C38 C37 1_555 1_555
H38 C38 1_555 1_555
C39 C38 1_555 1_555
H39 C39 1_555 1_555
C40 C39 1_555 1_555
C41 N7 1_555 1_555
C42 C41 1_555 1_555
H40 C42 1_555 1_555
C43 C42 1_555 1_555
H41 C43 1_555 1_555
C44 C43 1_555 1_555
C45 C40 1_555 1_555
C46 C45 1_555 1_555
H42 C46 1_555 1_555
C47 C46 1_555 1_555
H43 C47 1_555 1_555
C48 N8 1_555 1_555
H44 C48 1_555 1_555
C49 H45 1_555 1_555
C50 C49 1_555 1_555
H46 C50 1_555 1_555
C51 C50 1_555 1_555
H47 C51 1_555 1_555
C52 C51 1_555 1_555
C53 N9 1_555 1_555
C54 C53 1_555 1_555
H48 C54 1_555 1_555
C55 C54 1_555 1_555
H49 C55 1_555 1_555
C56 C55 1_555 1_555
C57 C52 1_555 1_555
C58 C57 1_555 1_555
H50 C58 1_555 1_555
C59 C58 1_555 1_555
H51 C59 1_555 1_555
C60 N10 1_555 1_555
H52 C60 1_555 1_555
C61 H53 1_555 1_555
C62 C61 1_555 1_555
H54 C62 1_555 1_555
C63 C62 1_555 1_555
H55 C63 1_555 1_555
C64 C63 1_555 1_555
C65 N11 1_555 1_555
C66 C65 1_555 1_555
H56 C66 1_555 1_555
C67 C66 1_555 1_555
H57 C67 1_555 1_555
C68 C67 1_555 1_555
C69 C64 1_555 1_555
C70 C69 1_555 1_555
H58 C70 1_555 1_555
C71 C70 1_555 1_555
H59 C71 1_555 1_555
C72 N12 1_555 1_555
H60 C72 1_555 1_555
Cl1 O7 1_555 1_555
O8 Cl1 1_555 1_555
O9 Cl1 1_555 1_555
O10 Cl1 1_555 1_555
Cl2 O11 1_555 1_555
O12 Cl2 1_555 1_555
O13 Cl2 1_555 1_555
O14 Cl2 1_555 1_555
Cl3 O15 1_555 1_555
O16 Cl3 1_555 1_555
O17 Cl3 1_555 1_555
O18 Cl3 1_555 1_555
Cl4 O19 1_555 1_555
O20 Cl4 1_555 1_555
O21 Cl4 1_555 1_555
O22 Cl4 1_555 1_555
N4_2 Cu2 1_555 1_555
Cu2_2 N4 1_555 1_555
C4 C5 1_555 1_555
C7 C8 1_555 1_555
C8 C9 1_555 1_555
C11 C12 1_555 1_555
C16 C17 1_555 1_555
C20 C21 1_555 1_555
C23 C24 1_555 1_555
C28 C29 1_555 1_555
C32 C33 1_555 1_555
C35 C36 1_555 1_555
C40 C41 1_555 1_555
C44 C45 1_555 1_555
C47 C48 1_555 1_555
C52 C53 1_555 1_555
C56 C57 1_555 1_555
C59 C60 1_555 1_555
C64 C65 1_555 1_555
C68 C69 1_555 1_555
C71 C72 1_555 1_555

#END
