
#######################################################################
#
#                 Cambridge Crystallographic Data Centre
#                                CCDC 
#
#######################################################################
#
# If this CIF has been generated from an entry in the Cambridge 
# Structural Database, then it will include bibliographic, chemical, 
# crystal, experimental, refinement or atomic coordinate data resulting 
# from the CCDC's data processing and validation procedures.
#
#######################################################################

data_YOPSUS
_symmetry_cell_setting           tetragonal
_symmetry_space_group_name_H-M   'P 42/n'
_symmetry_Int_Tables_number      86
_space_group_name_Hall           '-P 4bc'
loop_
_symmetry_equiv_pos_site_id
_symmetry_equiv_pos_as_xyz
1 x,y,z
2 1/2-x,1/2-y,z
3 -y,1/2+x,1/2+z
4 1/2+y,-x,1/2+z
5 -x,-y,-z
6 1/2+x,1/2+y,-z
7 y,1/2-x,1/2-z
8 1/2-y,x,1/2-z
_cell_length_a                   22.7841(16)
_cell_length_b                   22.7841(16)
_cell_length_c                   15.297(2)
_cell_angle_alpha                90
_cell_angle_beta                 90
_cell_angle_gamma                90
_cell_volume                     7940.91
loop_
_atom_site_label
_atom_site_type_symbol
_atom_site_fract_x
_atom_site_fract_y
_atom_site_fract_z
Cu1 Cu 0.32046(3) 0.43845(3) 0.43776(4)
N1 N 0.5579(3) 0.6000(2) 0.1265(3)
N2 N 0.5016(3) 0.5793(2) 0.1058(3)
N3 N 0.3146(2) 0.5179(2) 0.3778(3)
N4 N 0.65586(19) 0.6356(2) 0.4956(3)
N5 N 0.5943(2) 0.7261(2) 0.8931(3)
N6 N 0.2425(5) 0.5096(4) 0.8007(5)
C1 C 0.5626(3) 0.5976(3) 0.2103(3)
C2 C 0.6125(3) 0.6138(2) 0.2629(3)
C3 C 0.6630(3) 0.6304(2) 0.2204(3)
H1 H 0.6639 0.6305 0.1597
C4 C 0.7119(3) 0.6467(3) 0.2661(4)
H2 H 0.7464 0.6562 0.2369
C5 C 0.7093(3) 0.6489(3) 0.3581(3)
H3 H 0.7421 0.6603 0.3901
C6 C 0.6587(3) 0.6341(2) 0.3998(3)
C7 C 0.6108(3) 0.6162(2) 0.3547(3)
H4 H 0.5768 0.6055 0.3844
C8 C 0.4757(3) 0.5680(2) 0.1794(3)
C9 C 0.4174(3) 0.5482(2) 0.1939(3)
C10 C 0.3782(3) 0.5418(3) 0.1222(4)
H5 H 0.3915 0.5483 0.0655
C11 C 0.3209(3) 0.5260(3) 0.1359(4)
H6 H 0.2961 0.5212 0.0881
C12 C 0.2992(3) 0.5171(3) 0.2187(4)
H7 H 0.2601 0.5069 0.2272
C13 C 0.3372(3) 0.5237(2) 0.2902(4)
C14 C 0.3943(3) 0.5383(2) 0.2778(3)
H8 H 0.4189 0.5418 0.3260
C15 C 0.2857(3) 0.6226(3) 0.3601(4)
H9 H 0.3235 0.6412 0.3575
H10 H 0.2584 0.6481 0.3890
H11 H 0.2722 0.6146 0.3019
C16 C 0.2908(3) 0.5649(3) 0.4111(4)
C17 C 0.2680(3) 0.5665(3) 0.4975(4)
H12 H 0.2488 0.6008 0.5141
C18 C 0.2712(2) 0.5240(3) 0.5571(4)
C19 C 0.2497(3) 0.5336(3) 0.6494(4)
C20 C 0.2132(4) 0.5772(4) 0.6698(5)
H13 H 0.2003 0.6011 0.6244
C21 C 0.2085(4) 0.5567(5) 0.8136(7)
H14 H 0.1958 0.5655 0.8699
C22 C 0.1933(5) 0.5895(5) 0.7512(6)
H15 H 0.1689 0.6216 0.7609
C23 C 0.6364(4) 0.7411(3) 0.4785(4)
H16 H 0.6230 0.7311 0.4209
H17 H 0.6082 0.7661 0.5064
H18 H 0.6734 0.7612 0.4745
C24 C 0.6440(3) 0.6854(3) 0.5321(3)
C25 C 0.6376(3) 0.6922(3) 0.6245(3)
H19 H 0.6346 0.7303 0.6458
C26 C 0.6355(2) 0.6476(3) 0.6843(3)
C27 C 0.6196(2) 0.6599(2) 0.7758(3)
C28 C 0.6103(2) 0.7141(3) 0.8092(3)
H20 H 0.6152 0.7459 0.7717
C29 C 0.5874(3) 0.6795(3) 0.9462(3)
H21 H 0.5764 0.6858 1.0040
C30 C 0.5958(3) 0.6243(3) 0.9188(3)
H22 H 0.5901 0.5933 0.9575
C31 C 0.6129(3) 0.6126(3) 0.8329(4)
H23 H 0.6196 0.5743 0.8143
C32 C 0.2637(4) 0.4976(4) 0.7134(5)
H24 H 0.2869 0.4648 0.7026
O1 O 0.51235(16) 0.57758(15) 0.2481(2)
O2 O 0.29367(17) 0.47188(18) 0.5453(2)
O3 O 0.64450(16) 0.59364(17) 0.6662(2)
Cu1D Cu 0.67954(3) 0.56155(3) 0.56224(4)
Cu1B Cu 0.56155(3) 0.82046(3) 0.93776(4)
N4D N 0.34414(19) 0.3644(2) 0.5044(3)
N5C N 0.2261(2) 0.4057(2) 0.3931(3)
O3D O 0.35550(16) 0.40636(17) 0.3338(2)
loop_
_geom_bond_atom_site_label_1
_geom_bond_atom_site_label_2
_geom_bond_site_symmetry_1
_geom_bond_site_symmetry_2
Cu1 N3 1_555 1_555
N1 N2 1_555 1_555
N2 C8 1_555 1_555
N3 C13 1_555 1_555
N4 C6 1_555 1_555
N5 C28 1_555 1_555
N6 C21 1_555 1_555
C1 N1 1_555 1_555
C2 C1 1_555 1_555
C3 C2 1_555 1_555
H1 C3 1_555 1_555
C4 C3 1_555 1_555
H2 C4 1_555 1_555
C5 C4 1_555 1_555
H3 C5 1_555 1_555
C6 C5 1_555 1_555
C7 C2 1_555 1_555
H4 C7 1_555 1_555
C8 C9 1_555 1_555
C9 C10 1_555 1_555
C10 H5 1_555 1_555
C11 C10 1_555 1_555
H6 C11 1_555 1_555
C12 C11 1_555 1_555
H7 C12 1_555 1_555
C13 C12 1_555 1_555
C14 C9 1_555 1_555
H8 C14 1_555 1_555
C15 H9 1_555 1_555
H10 C15 1_555 1_555
H11 C15 1_555 1_555
C16 N3 1_555 1_555
C17 C16 1_555 1_555
H12 C17 1_555 1_555
C18 C17 1_555 1_555
C19 C18 1_555 1_555
C20 C19 1_555 1_555
H13 C20 1_555 1_555
C21 H14 1_555 1_555
C22 C20 1_555 1_555
H15 C22 1_555 1_555
C23 H16 1_555 1_555
H17 C23 1_555 1_555
H18 C23 1_555 1_555
C24 N4 1_555 1_555
C25 C24 1_555 1_555
H19 C25 1_555 1_555
C26 C25 1_555 1_555
C27 C26 1_555 1_555
C28 C27 1_555 1_555
H20 C28 1_555 1_555
C29 N5 1_555 1_555
H21 C29 1_555 1_555
C30 C29 1_555 1_555
H22 C30 1_555 1_555
C31 C27 1_555 1_555
H23 C31 1_555 1_555
C32 N6 1_555 1_555
H24 C32 1_555 1_555
O1 C1 1_555 1_555
O2 Cu1 1_555 1_555
O3 C26 1_555 1_555
Cu1D N4 1_555 1_555
Cu1B N5 1_555 1_555
N4D Cu1 1_555 1_555
N5C Cu1 1_555 1_555
O3D Cu1 1_555 1_555
C6 C7 1_555 1_555
C8 O1 1_555 1_555
C13 C14 1_555 1_555
C15 C16 1_555 1_555
C18 O2 1_555 1_555
C19 C32 1_555 1_555
C21 C22 1_555 1_555
C23 C24 1_555 1_555
C30 C31 1_555 1_555
O3 Cu1D 1_555 1_555

#END
