
#######################################################################
#
#                 Cambridge Crystallographic Data Centre
#                                CCDC 
#
#######################################################################
#
# If this CIF has been generated from an entry in the Cambridge 
# Structural Database, then it will include bibliographic, chemical, 
# crystal, experimental, refinement or atomic coordinate data resulting 
# from the CCDC's data processing and validation procedures.
#
#######################################################################

data_YOPVAC
_symmetry_cell_setting           rhombohedral
_symmetry_space_group_name_H-M   'R -3'
_symmetry_Int_Tables_number      148
_space_group_name_Hall           '-R 3'
loop_
_symmetry_equiv_pos_site_id
_symmetry_equiv_pos_as_xyz
1 x,y,z
2 -y,x-y,z
3 -x+y,-x,z
4 2/3+x,1/3+y,1/3+z
5 2/3-y,1/3+x-y,1/3+z
6 2/3-x+y,1/3-x,1/3+z
7 1/3+x,2/3+y,2/3+z
8 1/3-y,2/3+x-y,2/3+z
9 1/3-x+y,2/3-x,2/3+z
10 -x,-y,-z
11 y,-x+y,-z
12 x-y,x,-z
13 1/3-x,2/3-y,2/3-z
14 1/3+y,2/3-x+y,2/3-z
15 1/3+x-y,2/3+x,2/3-z
16 2/3-x,1/3-y,1/3-z
17 2/3+y,1/3-x+y,1/3-z
18 2/3+x-y,1/3+x,1/3-z
_cell_length_a                   29.1496(14)
_cell_length_b                   29.1496(14)
_cell_length_c                   9.3816(11)
_cell_angle_alpha                90
_cell_angle_beta                 90
_cell_angle_gamma                120
_cell_volume                     6903.55
loop_
_atom_site_label
_atom_site_type_symbol
_atom_site_fract_x
_atom_site_fract_y
_atom_site_fract_z
C1 C 0.0529(3) 0.0437(3) 0.3113(8)
H1 H 0.0873 0.0722 0.3170
C2 C 0.0085(3) 0.0513(3) 0.3069(8)
C3 C 0.0142(3) 0.1043(3) 0.3284(7)
C4 C 0.0631(3) 0.1447(3) 0.3835(8)
H2 H 0.0893 0.1373 0.4119
C5 C 0.0710(3) 0.1958(3) 0.3942(7)
H3 H 0.1031 0.2225 0.4296
C6 C 0.0336(3) 0.2085(3) 0.3551(7)
C7 C -0.0144(3) 0.1674(3) 0.3047(9)
H4 H -0.0411 0.1745 0.2792
C8 C -0.0230(4) 0.1181(3) 0.2921(8)
H5 H -0.0556 0.0920 0.2573
C9 C 0.0096(3) 0.2733(3) 0.3827(7)
H6 H -0.0258 0.2470 0.3779
C10 C 0.0247(3) 0.3295(3) 0.4055(7)
C11 C -0.0139(3) 0.3450(3) 0.4159(7)
H7 H -0.0498 0.3201 0.4160
C12 C 0.0041(3) 0.3999(3) 0.4260(8)
H8 H -0.0202 0.4116 0.4338
C13 C 0.0577(3) 0.4359(3) 0.4243(7)
H9 H 0.0695 0.4719 0.4321
C14 C 0.0946(3) 0.4184(3) 0.4107(7)
H10 H 0.1307 0.4428 0.4102
Cu1 Cu 0.12162(4) 0.32804(4) 0.36586(9)
I1 I 0.14950(2) 0.33267(2) 0.09761(5)
N1 N 0.0451(3) 0.2624(2) 0.3704(6)
N2 N 0.0772(2) 0.3645(2) 0.3982(6)
C1A C -0.0437(3) 0.0092(4) 0.3113(8)
H1A H -0.0722 0.0151 0.3170
C2A C -0.0513(3) -0.0428(4) 0.3069(8)
C3A C -0.1043(3) -0.0901(4) 0.3284(7)
C4A C -0.1447(3) -0.0816(4) 0.3835(8)
H2A H -0.1373 -0.0480 0.4119
C5A C -0.1958(3) -0.1248(4) 0.3942(7)
H3A H -0.2225 -0.1194 0.4296
C6A C -0.2085(3) -0.1749(4) 0.3551(7)
C7A C -0.1674(3) -0.1818(4) 0.3047(9)
H4A H -0.1745 -0.2156 0.2792
C8A C -0.1181(3) -0.1411(5) 0.2921(8)
H5A H -0.0920 -0.1476 0.2573
C9A C -0.2733(3) -0.2637(4) 0.3827(7)
H6A H -0.2470 -0.2728 0.3779
C10A C -0.3295(3) -0.3048(4) 0.4055(7)
C11A C -0.3450(3) -0.3589(4) 0.4159(7)
H7A H -0.3201 -0.3699 0.4160
C12A C -0.3999(3) -0.3958(4) 0.4260(8)
H8A H -0.4116 -0.4318 0.4338
C13A C -0.4359(3) -0.3782(4) 0.4243(7)
H9A H -0.4719 -0.4024 0.4321
C14A C -0.4184(3) -0.3238(4) 0.4107(7)
H10A H -0.4428 -0.3121 0.4102
N1A N -0.2624(2) -0.2173(4) 0.3704(6)
N2A N -0.3645(2) -0.2873(3) 0.3982(6)
C1B C -0.0092(4) -0.0529(3) 0.3113(8)
H1B H -0.0151 -0.0873 0.3170
C2B C 0.0428(4) -0.0085(3) 0.3069(8)
C3B C 0.0901(4) -0.0142(3) 0.3284(7)
C4B C 0.0816(4) -0.0631(3) 0.3835(8)
H2B H 0.0480 -0.0893 0.4119
C5B C 0.1248(4) -0.0710(3) 0.3942(7)
H3B H 0.1194 -0.1031 0.4296
C6B C 0.1749(4) -0.0336(3) 0.3551(7)
C7B C 0.1818(4) 0.0144(3) 0.3047(9)
H4B H 0.2156 0.0411 0.2792
C8B C 0.1411(5) 0.0230(4) 0.2921(8)
H5B H 0.1476 0.0556 0.2573
C9B C 0.2637(4) -0.0096(3) 0.3827(7)
H6B H 0.2728 0.0258 0.3779
C10B C 0.3048(4) -0.0247(3) 0.4055(7)
C11B C 0.3589(4) 0.0139(3) 0.4159(7)
H7B H 0.3699 0.0498 0.4160
C12B C 0.3958(4) -0.0041(3) 0.4260(8)
H8B H 0.4318 0.0202 0.4338
C13B C 0.3782(4) -0.0577(3) 0.4243(7)
H9B H 0.4024 -0.0695 0.4321
C14B C 0.3238(4) -0.0946(3) 0.4107(7)
H10B H 0.3121 -0.1307 0.4102
N1B N 0.2173(4) -0.0451(3) 0.3704(6)
N2B N 0.2873(3) -0.0772(2) 0.3982(6)
Cu1A Cu -0.32804(4) -0.20642(6) 0.36586(9)
I1A I -0.33267(2) -0.18317(3) 0.09761(5)
Cu1B Cu 0.20642(6) -0.12162(4) 0.36586(9)
I1B I 0.18317(3) -0.14950(2) 0.09761(5)
Cu1L Cu 0.21171(4) 0.33863(4) 0.30081(9)
Cu1M Cu -0.33863(4) -0.12691(6) 0.30081(9)
Cu1N Cu 0.12691(6) -0.21171(4) 0.30081(9)
I1L I 0.18383(2) 0.33400(2) 0.56906(5)
I1M I -0.33400(2) -0.15016(3) 0.56906(5)
I1N I 0.15016(3) -0.18383(2) 0.56906(5)
C15 C 0.2009(3) 0.5132(4) 0.6717(7)
C16 C 0.1449(3) 0.4794(4) 0.6666(8)
H11 H 0.1300 0.4794 0.7577
H12 H 0.1368 0.4440 0.6436
H13 H 0.1303 0.4919 0.5950
N3 N 0.2470(3) 0.5424(3) 0.6786(6)
loop_
_geom_bond_atom_site_label_1
_geom_bond_atom_site_label_2
_geom_bond_site_symmetry_1
_geom_bond_site_symmetry_2
C1 H1 1_555 1_555
C2 C1 1_555 1_555
C3 C2 1_555 1_555
C4 C3 1_555 1_555
H2 C4 1_555 1_555
C5 C4 1_555 1_555
H3 C5 1_555 1_555
C6 C5 1_555 1_555
C7 C6 1_555 1_555
H4 C7 1_555 1_555
C8 C3 1_555 1_555
H5 C8 1_555 1_555
C9 H6 1_555 1_555
C10 C9 1_555 1_555
C11 C10 1_555 1_555
H7 C11 1_555 1_555
C12 C11 1_555 1_555
H8 C12 1_555 1_555
C13 C12 1_555 1_555
H9 C13 1_555 1_555
C14 C13 1_555 1_555
H10 C14 1_555 1_555
Cu1 I1 1_555 1_555
I1 Cu1L 1_555 1_555
N1 C6 1_555 1_555
N2 C10 1_555 1_555
C15 C16 1_555 1_555
C16 H11 1_555 1_555
H12 C16 1_555 1_555
H13 C16 1_555 1_555
N3 C15 1_555 1_555
C1A C2 1_555 1_555
H1A C1A 1_555 1_555
C2A C1A 1_555 1_555
C3A C2A 1_555 1_555
C4A C3A 1_555 1_555
H2A C4A 1_555 1_555
C5A C4A 1_555 1_555
H3A C5A 1_555 1_555
C6A C5A 1_555 1_555
C7A C6A 1_555 1_555
H4A C7A 1_555 1_555
C8A C3A 1_555 1_555
H5A C8A 1_555 1_555
C9A H6A 1_555 1_555
C10A C9A 1_555 1_555
C11A C10A 1_555 1_555
H7A C11A 1_555 1_555
C12A C11A 1_555 1_555
H8A C12A 1_555 1_555
C13A C12A 1_555 1_555
H9A C13A 1_555 1_555
C14A C13A 1_555 1_555
H10A C14A 1_555 1_555
N1A C6A 1_555 1_555
N2A C10A 1_555 1_555
C1B C2A 1_555 1_555
H1B C1B 1_555 1_555
C2B C1 1_555 1_555
C3B C2B 1_555 1_555
C4B C3B 1_555 1_555
H2B C4B 1_555 1_555
C5B C4B 1_555 1_555
H3B C5B 1_555 1_555
C6B C5B 1_555 1_555
C7B C6B 1_555 1_555
H4B C7B 1_555 1_555
C8B C3B 1_555 1_555
H5B C8B 1_555 1_555
C9B H6B 1_555 1_555
C10B C9B 1_555 1_555
C11B C10B 1_555 1_555
H7B C11B 1_555 1_555
C12B C11B 1_555 1_555
H8B C12B 1_555 1_555
C13B C12B 1_555 1_555
H9B C13B 1_555 1_555
C14B C13B 1_555 1_555
H10B C14B 1_555 1_555
N1B C6B 1_555 1_555
N2B C10B 1_555 1_555
Cu1A N1A 1_555 1_555
I1A Cu1A 1_555 1_555
Cu1B N1B 1_555 1_555
I1B Cu1B 1_555 1_555
Cu1L Cu1 1_555 1_555
Cu1M Cu1A 1_555 1_555
Cu1N Cu1B 1_555 1_555
I1L Cu1 1_555 1_555
I1M Cu1A 1_555 1_555
I1N Cu1B 1_555 1_555
C7 C8 1_555 1_555
C9 N1 1_555 1_555
C14 N2 1_555 1_555
Cu1 N1 1_555 1_555
Cu1 N2 1_555 1_555
C7A C8A 1_555 1_555
C9A N1A 1_555 1_555
C14A N2A 1_555 1_555
N2A Cu1A 1_555 1_555
C1B C2B 1_555 1_555
C7B C8B 1_555 1_555
C9B N1B 1_555 1_555
C14B N2B 1_555 1_555
N2B Cu1B 1_555 1_555
I1A Cu1M 1_555 1_555
I1B Cu1N 1_555 1_555
Cu1L I1L 1_555 1_555
Cu1M I1M 1_555 1_555
Cu1N I1N 1_555 1_555

#END
