
#######################################################################
#
#                 Cambridge Crystallographic Data Centre
#                                CCDC 
#
#######################################################################
#
# If this CIF has been generated from an entry in the Cambridge 
# Structural Database, then it will include bibliographic, chemical, 
# crystal, experimental, refinement or atomic coordinate data resulting 
# from the CCDC's data processing and validation procedures.
#
#######################################################################

data_YOPXIX
_symmetry_cell_setting           monoclinic
_symmetry_space_group_name_H-M   'P 21/n'
_symmetry_Int_Tables_number      14
_space_group_name_Hall           '-P 2yn'
loop_
_symmetry_equiv_pos_site_id
_symmetry_equiv_pos_as_xyz
1 x,y,z
2 1/2-x,1/2+y,1/2-z
3 -x,-y,-z
4 1/2+x,1/2-y,1/2+z
_cell_length_a                   14.739(4)
_cell_length_b                   9.994(3)
_cell_length_c                   7.101(2)
_cell_angle_alpha                90
_cell_angle_beta                 98.52(2)
_cell_angle_gamma                90
_cell_volume                     1034.45
loop_
_atom_site_label
_atom_site_type_symbol
_atom_site_fract_x
_atom_site_fract_y
_atom_site_fract_z
Cu1 Cu 0.06657(3) 0.44154(4) -0.16686(7)
O1 O -0.1050(2) 0.2836(3) -0.3292(5)
O2 O 0.2453(2) 0.2872(3) -0.0478(4)
O3 O 0.1510(2) 0.5909(2) -0.0830(4)
O4 O 0.2744(2) 0.5133(3) 0.1051(4)
O5 O 0.3783(2) 0.9793(3) 0.0244(4)
O6 O 0.4682(2) 0.9213(2) 0.2950(4)
N1 N -0.0121(2) 0.2866(3) -0.2580(4)
N2 N 0.1519(2) 0.2892(3) -0.1148(4)
N3 N -0.0255(2) 0.0538(4) -0.2553(6)
N4 N 0.1699(2) 0.0575(4) -0.1271(6)
C1 C 0.0211(2) 0.1675(3) -0.2270(5)
C2 C 0.1209(2) 0.1697(3) -0.1524(5)
C3 C 0.4048(2) 0.8975(3) 0.1552(5)
C4 C 0.3643(2) 0.7582(3) 0.1446(5)
C5 C 0.2288(2) 0.6060(4) 0.0224(5)
C6 C 0.2655(2) 0.7487(3) 0.0438(6)
O6C O -0.0318(2) 0.5787(2) -0.2050(4)
Cu1C Cu 0.56657(3) 1.05846(4) 0.33314(7)
O7 O 0.0813(2) 0.8192(3) -0.2754(5)
loop_
_geom_bond_atom_site_label_1
_geom_bond_atom_site_label_2
_geom_bond_site_symmetry_1
_geom_bond_site_symmetry_2
Cu1 O3 1_555 1_555
O1 N1 1_555 1_555
O2 N2 1_555 1_555
O3 C5 1_555 1_555
O4 C5 1_555 1_555
O5 C3 1_555 1_555
O6 C3 1_555 1_555
N1 Cu1 1_555 1_555
N2 Cu1 1_555 1_555
N3 C1 1_555 1_555
N4 C2 1_555 1_555
C1 N1 1_555 1_555
C2 N2 1_555 1_555
C3 C4 1_555 1_555
C4 C6 1_555 1_555
C5 C6 1_555 1_555
O6C Cu1 1_555 1_555
Cu1C O6 1_555 1_555
C1 C2 1_555 1_555

#END
