
#######################################################################
#
#                 Cambridge Crystallographic Data Centre
#                                CCDC 
#
#######################################################################
#
# If this CIF has been generated from an entry in the Cambridge 
# Structural Database, then it will include bibliographic, chemical, 
# crystal, experimental, refinement or atomic coordinate data resulting 
# from the CCDC's data processing and validation procedures.
#
#######################################################################

data_YOPYIL
_symmetry_cell_setting           monoclinic
_symmetry_space_group_name_H-M   'P 21/n'
_symmetry_Int_Tables_number      14
_space_group_name_Hall           '-P 2yn'
loop_
_symmetry_equiv_pos_site_id
_symmetry_equiv_pos_as_xyz
1 x,y,z
2 1/2-x,1/2+y,1/2-z
3 -x,-y,-z
4 1/2+x,1/2-y,1/2+z
_cell_length_a                   8.863(4)
_cell_length_b                   9.762(4)
_cell_length_c                   6.146(3)
_cell_angle_alpha                90
_cell_angle_beta                 99.56
_cell_angle_gamma                90
_cell_volume                     524.371
loop_
_atom_site_label
_atom_site_type_symbol
_atom_site_fract_x
_atom_site_fract_y
_atom_site_fract_z
Zn1 Zn -0.1851(1) 0.5805(1) 0.0444(1)
Cl1 Cl -0.3264(2) 0.5527(2) 0.3063(3)
N1 N -0.1646(6) 0.4091(5) -0.1285(8)
N2 N -0.0274(5) 0.3525(5) -0.1584(8)
C1 C -0.0627(6) 0.2458(6) -0.2880(10)
N3 N -0.2144(5) 0.2269(5) -0.3424(8)
C2 C -0.2724(7) 0.3306(6) -0.2393(9)
H1 H 0.005 0.181 -0.332
H2 H -0.383 0.345 -0.281
N2B N 0.0274(5) 0.6475(5) 0.1584(8)
N3A N -0.2856(5) 0.7269(5) -0.1576(8)
Zn1B Zn 0.1851(1) 0.4195(1) -0.0444(1)
Zn1A Zn -0.3149(1) 0.0805(1) -0.5444(1)
loop_
_geom_bond_atom_site_label_1
_geom_bond_atom_site_label_2
_geom_bond_site_symmetry_1
_geom_bond_site_symmetry_2
Zn1 Cl1 1_555 1_555
N1 Zn1 1_555 1_555
N2 N1 1_555 1_555
C1 N2 1_555 1_555
N3 C1 1_555 1_555
C2 N1 1_555 1_555
H1 C1 1_555 1_555
H2 C2 1_555 1_555
N2B Zn1 1_555 1_555
N3A Zn1 1_555 1_555
Zn1B N2 1_555 1_555
Zn1A N3 1_555 1_555
N3 C2 1_555 1_555

#END
