
#######################################################################
#
#                 Cambridge Crystallographic Data Centre
#                                CCDC 
#
#######################################################################
#
# If this CIF has been generated from an entry in the Cambridge 
# Structural Database, then it will include bibliographic, chemical, 
# crystal, experimental, refinement or atomic coordinate data resulting 
# from the CCDC's data processing and validation procedures.
#
#######################################################################

data_YOPYIL01
_symmetry_cell_setting           monoclinic
_symmetry_space_group_name_H-M   'P 21/n'
_symmetry_Int_Tables_number      14
_space_group_name_Hall           '-P 2yn'
loop_
_symmetry_equiv_pos_site_id
_symmetry_equiv_pos_as_xyz
1 x,y,z
2 1/2-x,1/2+y,1/2-z
3 -x,-y,-z
4 1/2+x,1/2-y,1/2+z
_cell_length_a                   6.129(4)
_cell_length_b                   9.773(6)
_cell_length_c                   8.860(6)
_cell_angle_alpha                90
_cell_angle_beta                 99.520(6)
_cell_angle_gamma                90
_cell_volume                     523.394
loop_
_atom_site_label
_atom_site_type_symbol
_atom_site_fract_x
_atom_site_fract_y
_atom_site_fract_z
Zn1 Zn 0.54412(3) 0.41944(2) 0.81493(2)
Cl1 Cl 0.80622(9) 0.44674(6) 0.67326(6)
N1 N 0.3720(3) 0.59099(14) 0.83613(17)
N2 N 0.3408(3) 0.64757(16) 0.97254(16)
N3 N 0.1575(3) 0.77261(15) 0.78641(17)
C1 C 0.2131(3) 0.75449(19) 0.9373(2)
H1 H 0.1664 0.8116 1.0096
C2 C 0.2602(3) 0.66853(18) 0.7287(2)
H2 H 0.2532 0.6529 0.6244
Zn1B Zn 0.45588(3) 0.58056(2) 1.18507(2)
Zn1A Zn -0.04412(3) 0.91944(2) 0.68507(2)
N2B N 0.6592(3) 0.35243(16) 1.02746(16)
N3A N 0.3425(3) 0.27261(15) 0.71359(17)
loop_
_geom_bond_atom_site_label_1
_geom_bond_atom_site_label_2
_geom_bond_site_symmetry_1
_geom_bond_site_symmetry_2
Zn1 Cl1 1_555 1_555
N1 Zn1 1_555 1_555
N2 N1 1_555 1_555
N3 C1 1_555 1_555
C1 N2 1_555 1_555
H1 C1 1_555 1_555
C2 N1 1_555 1_555
H2 C2 1_555 1_555
Zn1B N2 1_555 1_555
Zn1A N3 1_555 1_555
N2B Zn1 1_555 1_555
N3A Zn1 1_555 1_555
N3 C2 1_555 1_555

#END
