
#######################################################################
#
#                 Cambridge Crystallographic Data Centre
#                                CCDC 
#
#######################################################################
#
# If this CIF has been generated from an entry in the Cambridge 
# Structural Database, then it will include bibliographic, chemical, 
# crystal, experimental, refinement or atomic coordinate data resulting 
# from the CCDC's data processing and validation procedures.
#
#######################################################################

data_YOQJEV
_symmetry_cell_setting           monoclinic
_symmetry_space_group_name_H-M   'C 2/c'
_symmetry_Int_Tables_number      15
_space_group_name_Hall           '-C 2yn'
loop_
_symmetry_equiv_pos_site_id
_symmetry_equiv_pos_as_xyz
1 x,y,z
2 -x,y,1/2-z
3 1/2+x,1/2+y,z
4 1/2-x,1/2+y,1/2-z
5 -x,-y,-z
6 x,-y,1/2+z
7 1/2-x,1/2-y,-z
8 1/2+x,1/2-y,1/2+z
_cell_length_a                   15.446(3)
_cell_length_b                   11.559(2)
_cell_length_c                   20.444(4)
_cell_angle_alpha                90
_cell_angle_beta                 96.82(3)
_cell_angle_gamma                90
_cell_volume                     3624.25
loop_
_atom_site_label
_atom_site_type_symbol
_atom_site_fract_x
_atom_site_fract_y
_atom_site_fract_z
Zn1 Zn 0.0000 0.04004(4) -0.2500
O1 O -0.09462(13) 0.04514(17) -0.33327(10)
O2 O -0.22245(15) 0.0236(2) -0.29236(12)
O3 O -0.09681(14) 0.03850(18) -0.18555(11)
H1 H -0.1461(12) 0.029(3) -0.2076(14)
N1 N -0.64533(17) 0.0343(2) -0.41148(14)
N2 N -0.71986(18) -0.0279(3) -0.41342(17)
N3 N -0.70306(17) -0.1389(2) -0.42132(15)
N4 N -0.61675(16) -0.1513(2) -0.42428(14)
N5 N -0.31578(15) 0.0355(2) -0.41343(12)
N6 N 0.0000 0.2286(3) -0.2500
N7 N 0.0000 0.8477(3) -0.2500
C1 C -0.17687(19) 0.0400(2) -0.33783(15)
C2 C -0.22176(19) 0.0613(3) -0.40743(15)
H2 H -0.2136 0.1415 -0.4192
H3 H -0.1946 0.0133 -0.4382
C3 C -0.3739(2) 0.1209(3) -0.41066(15)
H4 H -0.3547 0.1972 -0.4077
C4 C -0.4615(2) 0.0976(3) -0.41217(15)
H5 H -0.5010 0.1577 -0.4100
C5 C -0.49089(19) -0.0167(3) -0.41696(14)
C6 C -0.42841(19) -0.1040(3) -0.42020(16)
H6 H -0.4457 -0.1810 -0.4239
C7 C -0.34207(19) -0.0757(3) -0.41797(16)
H7 H -0.3009 -0.1340 -0.4196
C8 C -0.58333(19) -0.0440(3) -0.41760(15)
C9 C -0.0737(2) 0.2902(3) -0.24798(16)
H8 H -0.1257 0.2501 -0.2468
C10 C -0.0764(2) 0.4102(3) -0.24759(16)
H9 H -0.1291 0.4483 -0.2457
C11 C 0.0000 0.4737(3) -0.2500
C12 C 0.0000 0.6031(3) -0.2500
C13 C -0.0768(2) 0.6668(3) -0.26137(16)
H10 H -0.1300 0.6284 -0.2693
C14 C -0.07522(14) 0.78634(19) -0.26109(11)
H11 H -0.1277 0.8263 -0.2688
H12 H -0.093(2) -0.013(3) -0.1557(13)
C9A C 0.0737(2) 0.2902(3) -0.25202(16)
H8A H 0.1257 0.2501 -0.2532
C10A C 0.0764(2) 0.4102(3) -0.25241(16)
H9A H 0.1291 0.4483 -0.2543
C13A C 0.0768(2) 0.6668(3) -0.23863(16)
H10A H 0.1300 0.6284 -0.2307
C14A C 0.07522(14) 0.78634(19) -0.23891(11)
H11A H 0.1277 0.8263 -0.2312
O1A O 0.09462(13) 0.04514(17) -0.16673(10)
O2A O 0.22245(15) 0.0236(2) -0.20764(12)
O3A O 0.09681(14) 0.03850(18) -0.31445(11)
H1A H 0.1461(12) 0.029(3) -0.2924(14)
N1A N 0.64533(17) 0.0343(2) -0.08852(14)
N2A N 0.71986(18) -0.0279(3) -0.08658(17)
N3A N 0.70306(17) -0.1389(2) -0.07868(15)
N4A N 0.61675(16) -0.1513(2) -0.07572(14)
N5A N 0.31578(15) 0.0355(2) -0.08657(12)
C1A C 0.17687(19) 0.0400(2) -0.16217(15)
C2A C 0.22176(19) 0.0613(3) -0.09257(15)
H2A H 0.2136 0.1415 -0.0808
H3A H 0.1946 0.0133 -0.0618
C3A C 0.3739(2) 0.1209(3) -0.08934(15)
H4A H 0.3547 0.1972 -0.0923
C4A C 0.4615(2) 0.0976(3) -0.08783(15)
H5A H 0.5010 0.1577 -0.0900
C5A C 0.49089(19) -0.0167(3) -0.08304(14)
C6A C 0.42841(19) -0.1040(3) -0.07980(16)
H6A H 0.4457 -0.1810 -0.0761
C7A C 0.34207(19) -0.0757(3) -0.08203(16)
H7A H 0.3009 -0.1340 -0.0804
C8A C 0.58333(19) -0.0440(3) -0.08240(15)
H12A H 0.093(2) -0.013(3) -0.3443(13)
Zn1_2 Zn 0.0000 1.04004(4) -0.2500
N7_2 N 0.0000 -0.1523(3) -0.2500
O4 O -0.15112(14) 0.14267(19) -0.04572(11)
H13 H -0.0989(9) 0.124(3) -0.050(2)
H14 H -0.1827(17) 0.106(3) -0.0750(14)
O5 O -0.03443(16) 0.1367(2) -0.45154(12)
H15 H -0.042(2) 0.093(2) -0.4194(12)
H16 H -0.062(2) 0.1984(18) -0.4451(17)
O6 O -0.53710(18) 0.3852(2) -0.08968(13)
H17 H -0.543(2) 0.386(3) -0.0491(7)
H18 H -0.4854(12) 0.361(3) -0.0919(16)
O7 O -0.35713(19) 0.2905(2) -0.08259(13)
H19 H -0.345(3) 0.2198(13) -0.0869(16)
H20 H -0.347(3) 0.305(3) -0.0418(7)
loop_
_geom_bond_atom_site_label_1
_geom_bond_atom_site_label_2
_geom_bond_site_symmetry_1
_geom_bond_site_symmetry_2
Zn1 O1 1_555 1_555
O1 C1 1_555 1_555
O2 C1 1_555 1_555
O3 Zn1 1_555 1_555
H1 O3 1_555 1_555
N1 N2 1_555 1_555
N2 N3 1_555 1_555
N3 N4 1_555 1_555
N4 C8 1_555 1_555
N5 C2 1_555 1_555
N6 Zn1 1_555 1_555
N7 C14 1_555 1_555
C1 C2 1_555 1_555
C2 H2 1_555 1_555
H3 C2 1_555 1_555
C3 N5 1_555 1_555
H4 C3 1_555 1_555
C4 C3 1_555 1_555
H5 C4 1_555 1_555
C5 C4 1_555 1_555
C6 C5 1_555 1_555
H6 C6 1_555 1_555
C7 N5 1_555 1_555
H7 C7 1_555 1_555
C8 N1 1_555 1_555
C9 N6 1_555 1_555
H8 C9 1_555 1_555
C10 C9 1_555 1_555
H9 C10 1_555 1_555
C11 C10 1_555 1_555
C12 C11 1_555 1_555
C13 C12 1_555 1_555
H10 C13 1_555 1_555
C14 C13 1_555 1_555
H11 C14 1_555 1_555
H12 O3 1_555 1_555
O4 H13 1_555 1_555
H14 O4 1_555 1_555
O5 H15 1_555 1_555
H16 O5 1_555 1_555
O6 H17 1_555 1_555
H18 O6 1_555 1_555
O7 H19 1_555 1_555
H20 O7 1_555 1_555
C9A N6 1_555 1_555
H8A C9A 1_555 1_555
C10A C11 1_555 1_555
H9A C10A 1_555 1_555
C13A C12 1_555 1_555
H10A C13A 1_555 1_555
C14A N7 1_555 1_555
H11A C14A 1_555 1_555
O1A Zn1 1_555 1_555
O2A C1A 1_555 1_555
O3A Zn1 1_555 1_555
H1A O3A 1_555 1_555
N1A N2A 1_555 1_555
N2A N3A 1_555 1_555
N3A N4A 1_555 1_555
N4A C8A 1_555 1_555
N5A C2A 1_555 1_555
C1A O1A 1_555 1_555
C2A C1A 1_555 1_555
H2A C2A 1_555 1_555
H3A C2A 1_555 1_555
C3A N5A 1_555 1_555
H4A C3A 1_555 1_555
C4A C3A 1_555 1_555
H5A C4A 1_555 1_555
C5A C4A 1_555 1_555
C6A C5A 1_555 1_555
H6A C6A 1_555 1_555
C7A N5A 1_555 1_555
H7A C7A 1_555 1_555
C8A N1A 1_555 1_555
H12A O3A 1_555 1_555
Zn1_2 N7 1_555 1_555
N7_2 Zn1 1_555 1_555
C5 C8 1_555 1_555
C6 C7 1_555 1_555
C9A C10A 1_555 1_555
C13A C14A 1_555 1_555
C5A C8A 1_555 1_555
C6A C7A 1_555 1_555

#END
