
#######################################################################
#
#                 Cambridge Crystallographic Data Centre
#                                CCDC 
#
#######################################################################
#
# If this CIF has been generated from an entry in the Cambridge 
# Structural Database, then it will include bibliographic, chemical, 
# crystal, experimental, refinement or atomic coordinate data resulting 
# from the CCDC's data processing and validation procedures.
#
#######################################################################

data_YOQMIC
_symmetry_cell_setting           monoclinic
_symmetry_space_group_name_H-M   'P 21/c'
_symmetry_Int_Tables_number      14
_space_group_name_Hall           '-P 2ybc'
loop_
_symmetry_equiv_pos_site_id
_symmetry_equiv_pos_as_xyz
1 x,y,z
2 -x,1/2+y,1/2-z
3 -x,-y,-z
4 x,1/2-y,1/2+z
_cell_length_a                   11.2512(11)
_cell_length_b                   13.4388(11)
_cell_length_c                   12.6436(13)
_cell_angle_alpha                90
_cell_angle_beta                 123.102(7)
_cell_angle_gamma                90
_cell_volume                     1601.47
loop_
_atom_site_label
_atom_site_type_symbol
_atom_site_fract_x
_atom_site_fract_y
_atom_site_fract_z
Ag1 Ag 0.46437(7) -0.00889(4) 0.70759(6)
F1 F 0.0442(9) -0.3470(6) 0.5363(12)
F2 F 0.0148(9) -0.2089(10) 0.4363(6)
F3 F 0.0591(11) -0.2470(13) 0.7140(8)
F4 F -0.1426(6) -0.2393(6) 0.5202(8)
F5 F 0.0093(13) -0.1095(8) 0.5929(15)
O1 O 0.4240(5) 0.2927(4) 0.2673(4)
H1 H 0.4994 0.2942 0.2717
O2 O 0.2745(9) -0.1446(7) 0.6284(9)
O3 O 0.3139(6) -0.2960(5) 0.6948(6)
N1 N 0.4104(6) 0.4556(4) 0.5928(5)
N2 N 0.3765(6) 0.0496(4) 0.5196(5)
C1 C 0.3901(6) 0.3587(4) 0.4255(5)
C2 C 0.4569(6) 0.3850(4) 0.5502(6)
H2 H 0.5397 0.3515 0.6085
C3 C 0.2923(9) 0.5029(5) 0.5098(9)
H3 H 0.2575 0.5515 0.5386
C4 C 0.2195(9) 0.4831(5) 0.3835(10)
H4 H 0.1378 0.5187 0.3276
C5 C 0.2678(7) 0.4093(5) 0.3383(7)
H5 H 0.2196 0.3947 0.2526
C6 C 0.4503(6) 0.2753(4) 0.3874(5)
H6 H 0.5532 0.2727 0.4483
C7 C 0.3861(6) 0.1760(4) 0.3924(5)
C8 C 0.4301(6) 0.1337(4) 0.5066(6)
H7 H 0.5015 0.1655 0.5792
C9 C 0.2738(8) 0.0049(5) 0.4130(8)
H8 H 0.2349 -0.0539 0.4200
C10 C 0.2251(8) 0.0407(6) 0.2980(7)
H9 H 0.1544 0.0069 0.2270
C11 C 0.2806(7) 0.1287(5) 0.2844(6)
H10 H 0.2475 0.1550 0.2049
C12 C 0.2411(8) -0.2267(7) 0.6379(9)
C13 C 0.0798(11) -0.2469(9) 0.5523(12)
C14 C -0.0099(13) -0.2112(13) 0.5966(17)
Ag1A Ag 0.53563(7) 0.49111(4) 0.79241(6)
N1A N 0.5896(6) -0.0444(4) 0.9072(5)
loop_
_geom_bond_atom_site_label_1
_geom_bond_atom_site_label_2
_geom_bond_site_symmetry_1
_geom_bond_site_symmetry_2
Ag1 O2 1_555 1_555
F1 C13 1_555 1_555
F2 C13 1_555 1_555
F3 C14 1_555 1_555
F4 C14 1_555 1_555
F5 C14 1_555 1_555
O1 H1 1_555 1_555
O2 C12 1_555 1_555
O3 C12 1_555 1_555
N1 C2 1_555 1_555
N2 Ag1 1_555 1_555
C1 C2 1_555 1_555
C2 H2 1_555 1_555
C3 N1 1_555 1_555
H3 C3 1_555 1_555
C4 C3 1_555 1_555
H4 C4 1_555 1_555
C5 C1 1_555 1_555
H5 C5 1_555 1_555
C6 O1 1_555 1_555
H6 C6 1_555 1_555
C7 C6 1_555 1_555
C8 N2 1_555 1_555
H7 C8 1_555 1_555
C9 N2 1_555 1_555
H8 C9 1_555 1_555
C10 C9 1_555 1_555
H9 C10 1_555 1_555
C11 C7 1_555 1_555
H10 C11 1_555 1_555
C12 C13 1_555 1_555
C13 C14 1_555 1_555
Ag1A N1 1_555 1_555
N1A Ag1 1_555 1_555
C1 C6 1_555 1_555
C4 C5 1_555 1_555
C7 C8 1_555 1_555
C10 C11 1_555 1_555

#END
