
#######################################################################
#
#                 Cambridge Crystallographic Data Centre
#                                CCDC 
#
#######################################################################
#
# If this CIF has been generated from an entry in the Cambridge 
# Structural Database, then it will include bibliographic, chemical, 
# crystal, experimental, refinement or atomic coordinate data resulting 
# from the CCDC's data processing and validation procedures.
#
#######################################################################

data_YOQMOI
_symmetry_cell_setting           triclinic
_symmetry_space_group_name_H-M   'P -1'
_symmetry_Int_Tables_number      2
_space_group_name_Hall           '-P 1'
loop_
_symmetry_equiv_pos_site_id
_symmetry_equiv_pos_as_xyz
1 x,y,z
2 -x,-y,-z
_cell_length_a                   7.6098(15)
_cell_length_b                   9.0200(18)
_cell_length_c                   11.646(2)
_cell_angle_alpha                78.26(3)
_cell_angle_beta                 76.17(3)
_cell_angle_gamma                85.29(3)
_cell_volume                     759.502
loop_
_atom_site_label
_atom_site_type_symbol
_atom_site_fract_x
_atom_site_fract_y
_atom_site_fract_z
Zn1 Zn 1.0000 0.5000 0.0000
O1 O 0.8679(2) 0.29538(16) 0.06814(13)
O2 O 0.61242(15) 0.36258(14) 0.00390(11)
O3 O 1.24441(15) 0.36851(14) -0.02690(11)
N1 N 0.5976(3) 0.1791(2) 0.34145(17)
N2 N 0.6656(3) 0.0967(2) 0.25717(16)
N3 N 0.7847(3) -0.0094(2) 0.28698(19)
N4 N 0.7968(3) 0.0010(2) 0.39689(19)
N5 N 0.7120(3) 0.1260(3) 0.74083(19)
N6 N 0.9902(2) 0.49841(19) -0.19100(14)
C1 C 0.7059(3) 0.2773(2) 0.06405(18)
C2 C 0.6210(3) 0.1304(3) 0.1395(2)
H1 H 0.4905 0.1398 0.1499
H2 H 0.6647 0.0474 0.0975
C3 C 0.6820(3) 0.1156(2) 0.42799(19)
C4 C 0.6534(3) 0.1664(3) 0.54322(19)
C5 C 0.5459(4) 0.2936(3) 0.5655(2)
H3 H 0.4894 0.3495 0.5071
C6 C 0.5238(4) 0.3359(4) 0.6755(3)
H4 H 0.4525 0.4210 0.6926
C7 C 0.6092(4) 0.2498(4) 0.7595(2)
H5 H 0.5944 0.2795 0.8332
C8 C 0.7336(3) 0.0870(3) 0.6334(2)
H6 H 0.8065 0.0020 0.6184
C9 C 0.9394(4) 0.6211(3) -0.2636(2)
H7 H 0.9006 0.7077 -0.2315
C10 C 0.9413(4) 0.6266(3) -0.3832(2)
H8 H 0.9049 0.7155 -0.4292
C11 C 0.9974(3) 0.4996(2) -0.43540(16)
C12 C 1.0491(3) 0.3731(2) -0.35996(19)
H9 H 1.0890 0.2850 -0.3896
C13 C 1.0422(2) 0.37649(16) -0.24086(13)
H10 H 1.0759 0.2886 -0.1926
H11 H 1.243(4) 0.2746(12) 0.003(3)
H12 H 1.332(3) 0.402(3) -0.008(3)
N6A N 1.0098(2) 0.50159(19) -0.80900(14)
C9A C 1.0606(4) 0.3789(3) -0.7364(2)
H7A H 1.0994 0.2923 -0.7685
C10A C 1.0587(4) 0.3734(3) -0.6168(2)
H8A H 1.0951 0.2845 -0.5708
C11A C 1.0026(3) 0.5004(2) -0.56460(16)
C12A C 0.9509(3) 0.6269(2) -0.64004(19)
H9A H 0.9110 0.7150 -0.6104
C13A C 0.9578(2) 0.62351(16) -0.75914(13)
H10A H 0.9241 0.7114 -0.8074
O1A O 1.1321(2) 0.70462(16) -0.06814(13)
O2A O 1.38758(15) 0.63742(14) -0.00390(11)
N1A N 1.4024(3) 0.8209(2) -0.34145(17)
N2A N 1.3344(3) 0.9033(2) -0.25717(16)
N3A N 1.2153(3) 1.0094(2) -0.28698(19)
N4A N 1.2032(3) 0.9990(2) -0.39689(19)
N5A N 1.2880(3) 0.8740(3) -0.74083(19)
C1A C 1.2941(3) 0.7227(2) -0.06405(18)
C2A C 1.3790(3) 0.8696(3) -0.1395(2)
H1A H 1.5095 0.8602 -0.1499
H2A H 1.3353 0.9526 -0.0975
C3A C 1.3180(3) 0.8844(2) -0.42799(19)
C4A C 1.3466(3) 0.8336(3) -0.54322(19)
C5A C 1.4541(4) 0.7064(3) -0.5655(2)
H3A H 1.5106 0.6505 -0.5071
C6A C 1.4762(4) 0.6641(4) -0.6755(3)
H4A H 1.5475 0.5790 -0.6926
C7A C 1.3908(4) 0.7502(4) -0.7595(2)
H5A H 1.4056 0.7205 -0.8332
C8A C 1.2664(3) 0.9130(3) -0.6334(2)
H6A H 1.1935 0.9980 -0.6184
O3A O 0.75559(15) 0.63149(14) 0.02690(11)
H11A H 0.757(4) 0.7254(12) -0.003(3)
H12A H 0.668(3) 0.598(3) 0.008(3)
Zn1_2 Zn 1.0000 0.5000 -1.0000
N6A_2 N 1.0098(2) 0.50159(19) 0.19100(14)
O4 O 0.1698(2) 0.06936(16) 0.06758(13)
H13 H 0.0614 0.1016 0.0913
H14 H 0.1964 0.0043 0.1251
loop_
_geom_bond_atom_site_label_1
_geom_bond_atom_site_label_2
_geom_bond_site_symmetry_1
_geom_bond_site_symmetry_2
Zn1 O1 1_555 1_555
O1 C1 1_555 1_555
O2 C1 1_555 1_555
O3 Zn1 1_555 1_555
N1 N2 1_555 1_555
N2 N3 1_555 1_555
N3 N4 1_555 1_555
N4 C3 1_555 1_555
N5 C7 1_555 1_555
N6 Zn1 1_555 1_555
C1 C2 1_555 1_555
C2 N2 1_555 1_555
H1 C2 1_555 1_555
H2 C2 1_555 1_555
C3 N1 1_555 1_555
C4 C3 1_555 1_555
C5 C4 1_555 1_555
H3 C5 1_555 1_555
C6 C5 1_555 1_555
H4 C6 1_555 1_555
C7 C6 1_555 1_555
H5 C7 1_555 1_555
C8 N5 1_555 1_555
H6 C8 1_555 1_555
C9 N6 1_555 1_555
H7 C9 1_555 1_555
C10 C9 1_555 1_555
H8 C10 1_555 1_555
C11 C10 1_555 1_555
C12 C11 1_555 1_555
H9 C12 1_555 1_555
C13 N6 1_555 1_555
H10 C13 1_555 1_555
H11 O3 1_555 1_555
H12 O3 1_555 1_555
O4 H13 1_555 1_555
H14 O4 1_555 1_555
N6A C9A 1_555 1_555
C9A H7A 1_555 1_555
C10A C9A 1_555 1_555
H8A C10A 1_555 1_555
C11A C11 1_555 1_555
C12A C11A 1_555 1_555
H9A C12A 1_555 1_555
C13A N6A 1_555 1_555
H10A C13A 1_555 1_555
O1A Zn1 1_555 1_555
O2A C1A 1_555 1_555
N1A N2A 1_555 1_555
N2A N3A 1_555 1_555
N3A N4A 1_555 1_555
N4A C3A 1_555 1_555
N5A C7A 1_555 1_555
C1A O1A 1_555 1_555
C2A N2A 1_555 1_555
H1A C2A 1_555 1_555
H2A C2A 1_555 1_555
C3A N1A 1_555 1_555
C4A C3A 1_555 1_555
C5A C4A 1_555 1_555
H3A C5A 1_555 1_555
C6A C5A 1_555 1_555
H4A C6A 1_555 1_555
C7A C6A 1_555 1_555
H5A C7A 1_555 1_555
C8A N5A 1_555 1_555
H6A C8A 1_555 1_555
O3A Zn1 1_555 1_555
H11A O3A 1_555 1_555
H12A O3A 1_555 1_555
Zn1_2 N6A 1_555 1_555
N6A_2 Zn1 1_555 1_555
C4 C8 1_555 1_555
C12 C13 1_555 1_555
C10A C11A 1_555 1_555
C12A C13A 1_555 1_555
C1A C2A 1_555 1_555
C4A C8A 1_555 1_555

#END
