
#######################################################################
#
#                 Cambridge Crystallographic Data Centre
#                                CCDC 
#
#######################################################################
#
# If this CIF has been generated from an entry in the Cambridge 
# Structural Database, then it will include bibliographic, chemical, 
# crystal, experimental, refinement or atomic coordinate data resulting 
# from the CCDC's data processing and validation procedures.
#
#######################################################################

data_YOQMEY
_symmetry_cell_setting           triclinic
_symmetry_space_group_name_H-M   'P -1'
_symmetry_Int_Tables_number      2
_space_group_name_Hall           '-P 1'
loop_
_symmetry_equiv_pos_site_id
_symmetry_equiv_pos_as_xyz
1 x,y,z
2 -x,-y,-z
_cell_length_a                   8.9522(2)
_cell_length_b                   10.2988(2)
_cell_length_c                   10.5318(2)
_cell_angle_alpha                68.1330(10)
_cell_angle_beta                 69.5320(10)
_cell_angle_gamma                77.9470(10)
_cell_volume                     840.791
loop_
_atom_site_label
_atom_site_type_symbol
_atom_site_fract_x
_atom_site_fract_y
_atom_site_fract_z
Cd1 Cd 0.774706(16) 0.701535(15) 0.345888(15)
O1 O 0.0497(2) 0.82264(19) 0.74596(19)
H1 H 0.0723 0.8988 0.7388
O2 O 1.00247(19) 0.69507(16) 0.42391(18)
O3 O 0.92618(19) 0.89990(17) 0.28741(19)
O4 O 0.6593(2) 0.83016(19) 0.1653(2)
O5 O 0.5395(2) 0.6395(2) 0.3015(2)
O6 O 0.7443(2) 0.47557(17) 0.5067(2)
N1 N 0.5975(2) 0.77701(18) 0.53612(19)
N2 N -0.0166(2) 0.6137(2) 1.17851(19)
C1 C 0.3373(2) 0.7752(2) 0.7087(2)
C2 C 0.3788(3) 0.8702(2) 0.7533(2)
H2 H 0.3058 0.9019 0.8259
C3 C 0.5294(3) 0.9167(2) 0.6886(2)
H3 H 0.5596 0.9802 0.7169
C4 C 0.6347(3) 0.8681(2) 0.5813(2)
H4 H 0.7363 0.8999 0.5383
C5 C 0.4505(2) 0.7321(2) 0.6001(2)
H5 H 0.4233 0.6685 0.5698
C6 C 0.1736(2) 0.7193(2) 0.7759(2)
H6 H 0.1757 0.6492 0.7327
C7 C 0.1433(2) 0.6429(2) 0.9356(2)
C8 C 0.2474(3) 0.5298(3) 0.9837(3)
H7 H 0.3366 0.5011 0.9185
C9 C 0.2183(3) 0.4604(3) 1.1278(3)
H8 H 0.2868 0.3839 1.1614
C10 C 0.0859(3) 0.5054(2) 1.2223(3)
H9 H 0.0673 0.4588 1.3201
C11 C 0.0128(3) 0.6807(2) 1.0373(2)
H10 H -0.0580 0.7563 1.0062
C12 C 1.0183(3) 0.8244(2) 0.3577(2)
C13 C 1.1472(3) 0.8884(3) 0.3694(3)
H11 H 1.1452 0.9865 0.3141
H12 H 1.2497 0.8419 0.3337
H13 H 1.1291 0.8777 0.4681
C14 C 0.5589(3) 0.7475(3) 0.1935(3)
C15 C 0.4615(4) 0.7795(3) 0.0924(3)
H14 H 0.3897 0.7079 0.1272
H15 H 0.5317 0.7818 -0.0011
H16 H 0.4008 0.8690 0.0868
H17 H 0.6557 0.4505 0.5685
H18 H 0.8229 0.4244 0.5236
Cd1_2 Cd -0.225294(16) 0.701535(15) 1.345888(15)
N2_2 N 0.9834(2) 0.6137(2) 0.17851(19)
loop_
_geom_bond_atom_site_label_1
_geom_bond_atom_site_label_2
_geom_bond_site_symmetry_1
_geom_bond_site_symmetry_2
Cd1 O2 1_555 1_555
O1 H1 1_555 1_555
O2 C12 1_555 1_555
O3 Cd1 1_555 1_555
O4 Cd1 1_555 1_555
O5 Cd1 1_555 1_555
O6 Cd1 1_555 1_555
N1 Cd1 1_555 1_555
N2 C10 1_555 1_555
C1 C2 1_555 1_555
C2 H2 1_555 1_555
C3 C2 1_555 1_555
H3 C3 1_555 1_555
C4 N1 1_555 1_555
H4 C4 1_555 1_555
C5 N1 1_555 1_555
H5 C5 1_555 1_555
C6 O1 1_555 1_555
H6 C6 1_555 1_555
C7 C6 1_555 1_555
C8 C7 1_555 1_555
H7 C8 1_555 1_555
C9 C8 1_555 1_555
H8 C9 1_555 1_555
C10 C9 1_555 1_555
H9 C10 1_555 1_555
C11 N2 1_555 1_555
H10 C11 1_555 1_555
C12 O3 1_555 1_555
C13 C12 1_555 1_555
H11 C13 1_555 1_555
H12 C13 1_555 1_555
H13 C13 1_555 1_555
C14 O4 1_555 1_555
C15 C14 1_555 1_555
H14 C15 1_555 1_555
H15 C15 1_555 1_555
H16 C15 1_555 1_555
H17 O6 1_555 1_555
H18 O6 1_555 1_555
Cd1_2 N2 1_555 1_555
N2_2 Cd1 1_555 1_555
O5 C14 1_555 1_555
C1 C5 1_555 1_555
C1 C6 1_555 1_555
C3 C4 1_555 1_555
C7 C11 1_555 1_555

#END
