
#######################################################################
#
#                 Cambridge Crystallographic Data Centre
#                                CCDC 
#
#######################################################################
#
# If this CIF has been generated from an entry in the Cambridge 
# Structural Database, then it will include bibliographic, chemical, 
# crystal, experimental, refinement or atomic coordinate data resulting 
# from the CCDC's data processing and validation procedures.
#
#######################################################################

data_YOQPIE
_symmetry_cell_setting           triclinic
_symmetry_space_group_name_H-M   'P -1'
_symmetry_Int_Tables_number      2
_space_group_name_Hall           '-P 1'
loop_
_symmetry_equiv_pos_site_id
_symmetry_equiv_pos_as_xyz
1 x,y,z
2 -x,-y,-z
_cell_length_a                   9.3318(18)
_cell_length_b                   13.676(3)
_cell_length_c                   14.702(3)
_cell_angle_alpha                115.426(2)
_cell_angle_beta                 100.074(2)
_cell_angle_gamma                97.313(2)
_cell_volume                     1624.64
loop_
_atom_site_label
_atom_site_type_symbol
_atom_site_fract_x
_atom_site_fract_y
_atom_site_fract_z
Cd1 Cd -0.00603(3) -0.18484(3) -0.30082(2)
Cd2 Cd -0.45071(3) -0.86182(2) -0.86763(2)
Cd3 Cd -0.44378(3) -0.35758(2) -0.35894(2)
O5 O -0.2074(3) -0.3289(2) -0.3980(2)
O6 O -0.3520(3) -0.4878(3) -0.5167(2)
O7 O -0.3549(3) -0.6883(2) -0.7205(2)
O8 O -0.1079(3) -0.6636(3) -0.6665(2)
O9 O 0.0533(5) -0.1344(3) -0.4265(3)
O10 O -0.0959(5) -0.0524(4) -0.3378(4)
O11 O -0.3378(3) -0.2098(3) -0.1877(2)
O12 O -0.0886(3) -0.1751(3) -0.1612(2)
O13 O -0.2074(3) 0.0903(2) 0.1724(2)
O14 O -0.3589(3) -0.0264(2) 0.0205(2)
N1 N -0.5302(4) -0.9719(3) -0.7981(3)
N2 N -0.7056(4) -1.1668(4) -0.6713(3)
H1 H -0.805(2) -1.186(5) -0.689(4)
N3 N -0.5220(4) -1.2760(3) -0.4599(3)
N4 N -0.3600(4) -0.7711(3) -0.9534(3)
N5 N -0.1675(4) -0.5884(3) -1.0876(3)
H2 H -0.078(3) -0.600(4) -1.092(4)
N6 N -0.3591(4) -0.4512(3) -1.2711(3)
C1 C -0.6751(5) -1.0247(4) -0.8292(3)
H3 H -0.7388 -1.0165 -0.8804
C2 C -0.7339(5) -1.0905(4) -0.7887(3)
H4 H -0.8343 -1.1271 -0.8136
C3 C -0.6404(5) -1.1010(4) -0.7101(3)
C4 C -0.4919(5) -1.0432(4) -0.6750(4)
H5 H -0.4271 -1.0461 -0.6209
C5 C -0.4417(5) -0.9813(4) -0.7215(3)
H6 H -0.3415 -0.9444 -0.6985
C6 C -0.4384(5) -1.2483(4) -0.5148(4)
H7 H -0.3391 -1.2536 -0.5038
C7 C -0.4904(5) -1.2127(4) -0.5864(4)
H8 H -0.4285 -1.1965 -0.6236
C8 C -0.6387(5) -1.2012(4) -0.6019(4)
C9 C -0.7264(5) -1.2313(4) -0.5463(3)
H9 H -0.8261 -1.2268 -0.5556
C10 C -0.6653(5) -1.2675(4) -0.4777(3)
H10 H -0.7262 -1.2873 -0.4417
C11 C -0.2115(5) -0.7289(4) -0.9280(3)
H11 H -0.1495 -0.7427 -0.8801
C12 C -0.1467(5) -0.6664(4) -0.9694(3)
H12 H -0.0437 -0.6389 -0.9491
C13 C -0.2370(5) -0.6448(4) -1.0420(3)
C14 C -0.3905(5) -0.6872(4) -1.0689(3)
H13 H -0.4551 -0.6733 -1.1155
C15 C -0.4446(5) -0.7505(4) -1.0244(3)
H14 H -0.5469 -0.7810 -1.0451
C16 C -0.4156(5) -0.4528(4) -1.1928(3)
H15 H -0.4982 -0.4222 -1.1809
C17 C -0.3584(5) -0.4967(4) -1.1300(3)
H16 H -0.4013 -0.4956 -1.0771
C18 C -0.2342(5) -0.5432(4) -1.1469(3)
C19 C -0.1707(5) -0.5371(4) -1.2243(4)
H17 H -0.0850 -0.5634 -1.2356
C20 C -0.2367(5) -0.4918(4) -1.2838(3)
H18 H -0.1939 -0.4892 -1.3355
C21 C -0.2211(5) -0.6299(3) -0.6860(3)
C22 C -0.1978(5) -0.5102(3) -0.6693(3)
H19 H -0.2934 -0.4974 -0.6941
H20 H -0.1328 -0.5009 -0.7112
C23 C -0.1302(5) -0.4224(4) -0.5561(3)
H21 H -0.1015 -0.3506 -0.5540
H22 H -0.0404 -0.4400 -0.5285
C24 C -0.2364(5) -0.4145(4) -0.4872(3)
C25 C -0.0287(6) -0.0680(4) -0.4080(4)
C26 C -0.0494(8) -0.0006(6) -0.4672(6)
H23 H -0.1511 -0.0277 -0.5106
H24 H -0.0403 0.0758 -0.4165
C27 C -0.2378(5) 0.0004(3) 0.0872(3)
C28 C -0.1268(5) -0.0734(4) 0.0679(3)
H25 H -0.0389 -0.0350 0.0597
H26 H -0.0959 -0.0837 0.1291
C29 C -0.1846(5) -0.1883(4) -0.0277(3)
H27 H -0.2796 -0.2224 -0.0239
H28 H -0.1151 -0.2343 -0.0236
C30 C -0.2060(5) -0.1901(3) -0.1334(3)
Cd1A Cd 0.00603(3) -0.81516(3) -0.69918(2)
Cd1A_2 Cd 0.00603(3) 0.18484(3) 0.30082(2)
Cd1A_3 Cd 0.00603(3) 0.18484(3) -0.69918(2)
Cd2A Cd 0.45071(3) -0.13818(2) -0.13237(2)
Cd2A_2 Cd -0.54929(3) -0.13818(2) -0.13237(2)
Cd2_2 Cd -0.45071(3) 0.13818(2) 0.13237(2)
Cd2_3 Cd 0.54929(3) 0.13818(2) 0.13237(2)
Cd2_4 Cd -0.45071(3) 0.13818(2) -0.86763(2)
Cd2_5 Cd -0.45071(3) -0.86182(2) 0.13237(2)
Cd3A Cd 0.44378(3) -0.64242(2) -0.64106(2)
Cd3A_2 Cd -0.55622(3) -0.64242(2) -0.64106(2)
Cd3_2 Cd -0.44378(3) -1.35758(2) -0.35894(2)
Cd3_3 Cd -0.44378(3) -0.35758(2) -1.35894(2)
Cd3_4 Cd 0.55622(3) -0.35758(2) -0.35894(2)
Cd3A_3 Cd 0.44378(3) 0.35758(2) 0.35894(2)
O5A O 0.2074(3) -0.6711(2) -0.6020(2)
O6A O 0.3520(3) -0.5122(3) -0.4833(2)
O6A_2 O -0.6480(3) -0.5122(3) -0.4833(2)
O6_2 O 0.6480(3) -0.4878(3) -0.5167(2)
O7A O 0.3549(3) -0.3117(2) -0.2795(2)
O7A_2 O -0.6451(3) -0.3117(2) -0.2795(2)
O7_2 O 0.6451(3) -0.6883(2) -0.7205(2)
O8A O 0.1079(3) -0.3364(3) -0.3335(2)
O9A O -0.0533(5) 0.1344(3) -0.5735(3)
O9A_2 O -0.0533(5) -0.8656(3) -0.5735(3)
O10A O 0.0959(5) 0.0524(4) -0.6622(4)
O10A_2 O 0.0959(5) -0.9476(4) -0.6622(4)
O11A O 0.3378(3) 0.2098(3) 0.1877(2)
O11A_2 O -0.6622(3) -0.7902(3) -0.8123(2)
O11_2 O 0.6622(3) -0.2098(3) -0.1877(2)
O11A_3 O 0.3378(3) -0.7902(3) -0.8123(2)
O12A O 0.0886(3) 0.1751(3) 0.1612(2)
O12A_2 O 0.0886(3) -0.8249(3) -0.8388(2)
O13A O 0.2074(3) -0.0903(2) -0.1724(2)
O13_2 O -0.2074(3) -0.9097(2) -0.8276(2)
O14A O 0.3589(3) 0.0264(2) -0.0205(2)
O14_2 O -0.3589(3) -1.0264(2) -0.9795(2)
O14A_2 O -0.6411(3) -0.9736(2) -1.0205(2)
O14_3 O 0.6411(3) -0.0264(2) 0.0205(2)
N1_2 N -0.5302(4) 0.0281(3) -0.7981(3)
N1A N 0.5302(4) -0.0281(3) -0.2019(3)
N2_2 N -0.7056(4) -0.1668(4) -0.6713(3)
H1_2 H -0.805(2) -0.186(5) -0.689(4)
N3_2 N -0.5220(4) -0.2760(3) -0.4599(3)
N3A N 0.5220(4) -0.7240(3) -0.5401(3)
N4_2 N -0.3600(4) -0.7711(3) 0.0466(3)
N4A N 0.3600(4) -0.2289(3) -0.0466(3)
N5_2 N -0.1675(4) -0.5884(3) -0.0876(3)
H2_2 H -0.078(3) -0.600(4) -0.092(4)
N6_2 N -0.3591(4) -0.4512(3) -0.2711(3)
N6A N 0.3591(4) -0.5488(3) -0.7289(3)
C1_2 C -0.6751(5) -0.0247(4) -0.8292(3)
H3_2 H -0.7388 -0.0165 -0.8804
C2_2 C -0.7339(5) -0.0905(4) -0.7887(3)
H4_2 H -0.8343 -0.1271 -0.8136
C3_2 C -0.6404(5) -0.1010(4) -0.7101(3)
C4_2 C -0.4919(5) -0.0432(4) -0.6750(4)
H5_2 H -0.4271 -0.0461 -0.6209
C5_2 C -0.4417(5) 0.0187(4) -0.7215(3)
H6_2 H -0.3415 0.0556 -0.6985
C6_2 C -0.4384(5) -0.2483(4) -0.5148(4)
H7_2 H -0.3391 -0.2536 -0.5038
C7_2 C -0.4904(5) -0.2127(4) -0.5864(4)
H8_2 H -0.4285 -0.1965 -0.6236
C8_2 C -0.6387(5) -0.2012(4) -0.6019(4)
C9_2 C -0.7264(5) -0.2313(4) -0.5463(3)
H9_2 H -0.8261 -0.2268 -0.5556
C10_2 C -0.6653(5) -0.2675(4) -0.4777(3)
H10_2 H -0.7262 -0.2873 -0.4417
C11_2 C -0.2115(5) -0.7289(4) 0.0720(3)
H11_2 H -0.1495 -0.7427 0.1199
C12_2 C -0.1467(5) -0.6664(4) 0.0306(3)
H12_2 H -0.0437 -0.6389 0.0509
C13_2 C -0.2370(5) -0.6448(4) -0.0420(3)
C14_2 C -0.3905(5) -0.6872(4) -0.0689(3)
H13_2 H -0.4551 -0.6733 -0.1155
C15_2 C -0.4446(5) -0.7505(4) -0.0244(3)
H14_2 H -0.5469 -0.7810 -0.0451
C16_2 C -0.4156(5) -0.4528(4) -0.1928(3)
H15_2 H -0.4982 -0.4222 -0.1809
C17_2 C -0.3584(5) -0.4967(4) -0.1300(3)
H16_2 H -0.4013 -0.4956 -0.0771
C18_2 C -0.2342(5) -0.5432(4) -0.1469(3)
C19_2 C -0.1707(5) -0.5371(4) -0.2243(4)
H17_2 H -0.0850 -0.5634 -0.2356
C20_2 C -0.2367(5) -0.4918(4) -0.2838(3)
H18_2 H -0.1939 -0.4892 -0.3355
C21A C 0.2211(5) -0.3701(3) -0.3140(3)
C22A C 0.1978(5) -0.4898(3) -0.3307(3)
H19A H 0.2934 -0.5026 -0.3059
H20A H 0.1328 -0.4991 -0.2888
C23A C 0.1302(5) -0.5776(4) -0.4439(3)
H21A H 0.1015 -0.6494 -0.4460
H22A H 0.0404 -0.5600 -0.4715
C24A C 0.2364(5) -0.5855(4) -0.5128(3)
C25A C 0.0287(6) 0.0680(4) -0.5920(4)
C26A C 0.0494(8) 0.0006(6) -0.5328(6)
H23A H 0.1511 0.0277 -0.4894
H24A H 0.0403 -0.0758 -0.5835
C27A C 0.2378(5) -0.0004(3) -0.0872(3)
C28A C 0.1268(5) 0.0734(4) -0.0679(3)
H25A H 0.0389 0.0350 -0.0597
H26A H 0.0959 0.0837 -0.1291
C29A C 0.1846(5) 0.1883(4) 0.0277(3)
H27A H 0.2796 0.2224 0.0239
H28A H 0.1151 0.2343 0.0236
C30A C 0.2060(5) 0.1901(3) 0.1334(3)
O1 O 0.7594(6) -0.2107(4) 0.2103(4)
O2 O 0.9378(7) -0.2830(5) 0.2838(4)
O3 O 0.9044(7) -0.3151(6) 0.1132(5)
O4 O 0.7201(7) -0.4007(5) 0.1563(6)
Cl1 Cl 0.82877(13) -0.30099(11) 0.19441(10)
loop_
_geom_bond_atom_site_label_1
_geom_bond_atom_site_label_2
_geom_bond_site_symmetry_1
_geom_bond_site_symmetry_2
Cd1 O5 1_555 1_555
Cd2 O7 1_555 1_555
Cd3 O5 1_555 1_555
O1 Cl1 1_555 1_555
O2 Cl1 1_555 1_555
O3 Cl1 1_555 1_555
O4 Cl1 1_555 1_555
O5 C24 1_555 1_555
O6 Cd3 1_555 1_555
O7 C21 1_555 1_555
O8 C21 1_555 1_555
O9 Cd1 1_555 1_555
O10 Cd1 1_555 1_555
O11 Cd3 1_555 1_555
O12 Cd1 1_555 1_555
O13 C27 1_555 1_555
O14 C27 1_555 1_555
N1 Cd2 1_555 1_555
N2 H1 1_555 1_555
N3 C6 1_555 1_555
N4 Cd2 1_555 1_555
N5 H2 1_555 1_555
N6 C16 1_555 1_555
C1 N1 1_555 1_555
H3 C1 1_555 1_555
C2 C1 1_555 1_555
H4 C2 1_555 1_555
C3 N2 1_555 1_555
C4 C3 1_555 1_555
H5 C4 1_555 1_555
C5 N1 1_555 1_555
H6 C5 1_555 1_555
C6 H7 1_555 1_555
C7 C6 1_555 1_555
H8 C7 1_555 1_555
C8 N2 1_555 1_555
C9 C8 1_555 1_555
H9 C9 1_555 1_555
C10 N3 1_555 1_555
H10 C10 1_555 1_555
C11 N4 1_555 1_555
H11 C11 1_555 1_555
C12 C11 1_555 1_555
H12 C12 1_555 1_555
C13 N5 1_555 1_555
C14 C13 1_555 1_555
H13 C14 1_555 1_555
C15 N4 1_555 1_555
H14 C15 1_555 1_555
C16 H15 1_555 1_555
C17 C16 1_555 1_555
H16 C17 1_555 1_555
C18 N5 1_555 1_555
C19 C18 1_555 1_555
H17 C19 1_555 1_555
C20 N6 1_555 1_555
H18 C20 1_555 1_555
C21 C22 1_555 1_555
C22 H19 1_555 1_555
H20 C22 1_555 1_555
C23 C22 1_555 1_555
H21 C23 1_555 1_555
H22 C23 1_555 1_555
C24 O6 1_555 1_555
C25 O9 1_555 1_555
C26 C25 1_555 1_555
H23 C26 1_555 1_555
H24 C26 1_555 1_555
C27 C28 1_555 1_555
C28 H25 1_555 1_555
H26 C28 1_555 1_555
C29 C28 1_555 1_555
H27 C29 1_555 1_555
H28 C29 1_555 1_555
C30 O11 1_555 1_555
Cd1A O8 1_555 1_555
Cd1A_2 O13 1_555 1_555
Cd1A_3 O9A 1_555 1_555
Cd2A O7A 1_555 1_555
Cd2A_2 O11 1_555 1_555
Cd2_2 O13 1_555 1_555
Cd2_3 O11A 1_555 1_555
Cd2_4 N1_2 1_555 1_555
Cd2_5 N4_2 1_555 1_555
Cd3A O5A 1_555 1_555
Cd3A_2 O6 1_555 1_555
Cd3_2 N3 1_555 1_555
Cd3_3 N6 1_555 1_555
Cd3_4 O6A 1_555 1_555
Cd3A_3 O11A 1_555 1_555
O5A Cd1A 1_555 1_555
O6A Cd3A 1_555 1_555
O6A_2 Cd3 1_555 1_555
O6_2 Cd3A 1_555 1_555
O7A Cd3_4 1_555 1_555
O7A_2 Cd3 1_555 1_555
O7_2 Cd3A 1_555 1_555
O8A Cd1 1_555 1_555
O9A C25A 1_555 1_555
O9A_2 Cd1A 1_555 1_555
O10A Cd1A_3 1_555 1_555
O10A_2 Cd1A 1_555 1_555
O11A C30A 1_555 1_555
O11A_2 Cd2 1_555 1_555
O11_2 Cd2A 1_555 1_555
O11A_3 Cd3A 1_555 1_555
O12A Cd1A_2 1_555 1_555
O12A_2 Cd1A 1_555 1_555
O13A Cd1 1_555 1_555
O13_2 Cd2 1_555 1_555
O14A Cd2A 1_555 1_555
O14_2 Cd2 1_555 1_555
O14A_2 Cd2 1_555 1_555
O14_3 Cd2A 1_555 1_555
N1_2 C1_2 1_555 1_555
N1A Cd2A 1_555 1_555
N2_2 H1_2 1_555 1_555
N3_2 Cd3 1_555 1_555
N3A Cd3A 1_555 1_555
N4_2 C11_2 1_555 1_555
N4A Cd2A 1_555 1_555
N5_2 H2_2 1_555 1_555
N6_2 Cd3 1_555 1_555
N6A Cd3A 1_555 1_555
C1_2 H3_2 1_555 1_555
C2_2 C1_2 1_555 1_555
H4_2 C2_2 1_555 1_555
C3_2 N2_2 1_555 1_555
C4_2 C3_2 1_555 1_555
H5_2 C4_2 1_555 1_555
C5_2 N1_2 1_555 1_555
H6_2 C5_2 1_555 1_555
C6_2 N3_2 1_555 1_555
H7_2 C6_2 1_555 1_555
C7_2 C6_2 1_555 1_555
H8_2 C7_2 1_555 1_555
C8_2 N2_2 1_555 1_555
C9_2 C8_2 1_555 1_555
H9_2 C9_2 1_555 1_555
C10_2 N3_2 1_555 1_555
H10_2 C10_2 1_555 1_555
C11_2 H11_2 1_555 1_555
C12_2 C11_2 1_555 1_555
H12_2 C12_2 1_555 1_555
C13_2 N5_2 1_555 1_555
C14_2 C13_2 1_555 1_555
H13_2 C14_2 1_555 1_555
C15_2 N4_2 1_555 1_555
H14_2 C15_2 1_555 1_555
C16_2 N6_2 1_555 1_555
H15_2 C16_2 1_555 1_555
C17_2 C16_2 1_555 1_555
H16_2 C17_2 1_555 1_555
C18_2 N5_2 1_555 1_555
C19_2 C18_2 1_555 1_555
H17_2 C19_2 1_555 1_555
C20_2 N6_2 1_555 1_555
H18_2 C20_2 1_555 1_555
C21A O7A 1_555 1_555
C22A C21A 1_555 1_555
H19A C22A 1_555 1_555
H20A C22A 1_555 1_555
C23A C22A 1_555 1_555
H21A C23A 1_555 1_555
H22A C23A 1_555 1_555
C24A O5A 1_555 1_555
C25A O10A 1_555 1_555
C26A C26 1_555 1_555
H23A C26A 1_555 1_555
H24A C26A 1_555 1_555
C27A O13A 1_555 1_555
C28A C27A 1_555 1_555
H25A C28A 1_555 1_555
H26A C28A 1_555 1_555
C29A C28A 1_555 1_555
H27A C29A 1_555 1_555
H28A C29A 1_555 1_555
C30A O12A 1_555 1_555
O7 Cd3A_2 1_555 1_555
O10 C25 1_555 1_555
O12 C30 1_555 1_555
O14 Cd2A_2 1_555 1_555
O14 Cd2_2 1_555 1_555
C2 C3 1_555 1_555
C4 C5 1_555 1_555
C7 C8 1_555 1_555
C9 C10 1_555 1_555
C12 C13 1_555 1_555
C14 C15 1_555 1_555
C17 C18 1_555 1_555
C19 C20 1_555 1_555
C23 C24 1_555 1_555
C29 C30 1_555 1_555
Cd1A O13_2 1_555 1_555
Cd2A O13A 1_555 1_555
Cd2A_2 O7A_2 1_555 1_555
Cd2_3 O14A 1_555 1_555
Cd2_3 O14_3 1_555 1_555
Cd3A_2 O6A_2 1_555 1_555
Cd3A_2 O11A_2 1_555 1_555
Cd3_4 O6_2 1_555 1_555
Cd3_4 O11_2 1_555 1_555
O6A C24A 1_555 1_555
O8A C21A 1_555 1_555
O14A C27A 1_555 1_555
C2_2 C3_2 1_555 1_555
C4_2 C5_2 1_555 1_555
C7_2 C8_2 1_555 1_555
C9_2 C10_2 1_555 1_555
C12_2 C13_2 1_555 1_555
C14_2 C15_2 1_555 1_555
C17_2 C18_2 1_555 1_555
C19_2 C20_2 1_555 1_555
C23A C24A 1_555 1_555
C25A C26A 1_555 1_555
C29A C30A 1_555 1_555

#END
