
#######################################################################
#
#                 Cambridge Crystallographic Data Centre
#                                CCDC 
#
#######################################################################
#
# If this CIF has been generated from an entry in the Cambridge 
# Structural Database, then it will include bibliographic, chemical, 
# crystal, experimental, refinement or atomic coordinate data resulting 
# from the CCDC's data processing and validation procedures.
#
#######################################################################

data_YOQPOK
_symmetry_cell_setting           monoclinic
_symmetry_space_group_name_H-M   'P 21/n'
_symmetry_Int_Tables_number      14
_space_group_name_Hall           '-P 2yn'
loop_
_symmetry_equiv_pos_site_id
_symmetry_equiv_pos_as_xyz
1 x,y,z
2 1/2-x,1/2+y,1/2-z
3 -x,-y,-z
4 1/2+x,1/2-y,1/2+z
_cell_length_a                   12.926(3)
_cell_length_b                   25.454(6)
_cell_length_c                   13.907(3)
_cell_angle_alpha                90
_cell_angle_beta                 113.523(3)
_cell_angle_gamma                90
_cell_volume                     4195.42
loop_
_atom_site_label
_atom_site_type_symbol
_atom_site_fract_x
_atom_site_fract_y
_atom_site_fract_z
Cd1 Cd 0.42684(3) 0.034212(12) 0.26283(3)
Cd2 Cd 0.87529(3) -0.000080(12) 0.86531(2)
O1 O 0.5460(3) -0.03783(12) 0.3189(2)
O4 O 0.6262(3) 0.03780(12) 0.3791(3)
O6 O 0.7287(3) -0.02297(14) 0.7051(2)
O7 O 0.5989(3) -0.04802(19) 0.5572(3)
O9 O 0.2895(3) -0.03762(12) 0.1324(2)
O11 O 0.3923(3) 0.01993(13) 0.0905(3)
O13 O 0.0725(3) -0.01317(12) -0.0476(2)
O15 O 0.0159(3) -0.04742(12) -0.2051(2)
N1 N 0.4049(3) 0.42302(14) 0.2979(3)
N2 N 0.4732(4) 0.28165(16) 0.1813(4)
H11 H 0.505(5) 0.287(2) 0.138(4)
N3 N 0.4341(3) 0.12243(14) 0.2359(3)
N4 N 0.8507(3) -0.08761(14) 0.8999(3)
N5 N 0.8241(4) -0.24768(15) 0.9605(3)
H12 H 0.795(4) -0.251(2) 1.009(4)
N6 N 0.9419(4) -0.38274(18) 0.8743(4)
H13 H 0.981(5) -0.411(2) 0.864(4)
C1 C 0.3605(4) 0.37778(18) 0.3129(4)
H14 H 0.3117 0.3791 0.3490
C2 C 0.3809(4) 0.32948(18) 0.2795(4)
H15 H 0.3489 0.2985 0.2942
C3 C 0.4494(4) 0.32693(18) 0.2236(4)
C4 C 0.4941(4) 0.37426(18) 0.2055(4)
H16 H 0.5407 0.3744 0.1671
C5 C 0.4704(4) 0.42039(18) 0.2435(4)
H17 H 0.5018 0.4520 0.2307
C6 C 0.4441(4) 0.13936(18) 0.1492(4)
H18 H 0.4418 0.1141 0.0981
C7 C 0.4574(4) 0.19143(18) 0.1296(4)
H19 H 0.4648 0.2014 0.0669
C8 C 0.4600(4) 0.22939(18) 0.2034(4)
C9 C 0.4522(4) 0.21174(19) 0.2951(4)
H20 H 0.4561 0.2359 0.3485
C10 C 0.4388(4) 0.15910(18) 0.3076(4)
H21 H 0.4323 0.1478 0.3701
C11 C 0.8451(4) -0.10484(18) 0.9895(4)
H22 H 0.8465 -0.0796 1.0403
C12 C 0.8374(4) -0.15717(18) 1.0110(4)
H23 H 0.8343 -0.1675 1.0754
C13 C 0.8343(4) -0.19470(17) 0.9368(4)
C14 C 0.8364(4) -0.17766(18) 0.8425(4)
H24 H 0.8322 -0.2019 0.7892
C15 C 0.8448(4) -0.12437(17) 0.8289(4)
H25 H 0.8466 -0.1129 0.7646
C16 C 0.8796(5) -0.3855(2) 0.9316(4)
H26 H 0.8640 -0.4187 0.9538
C17 C 0.8385(4) -0.34106(18) 0.9583(4)
H27 H 0.7935 -0.3435 0.9979
C18 C 0.8627(4) -0.29142(18) 0.9273(4)
C19 C 0.9290(5) -0.2904(2) 0.8688(5)
H28 H 0.9480 -0.2579 0.8467
C20 C 0.9659(6) -0.3360(2) 0.8439(5)
H29 H 1.0104 -0.3348 0.8036
C21 C 0.6321(4) -0.01149(18) 0.3773(3)
C22 C 0.7423(4) -0.03900(19) 0.4436(4)
C23 C 0.7783(4) -0.0214(2) 0.5580(4)
H30 H 0.8499 -0.0393 0.6009
H31 H 0.7940 0.0168 0.5618
C24 C 0.6945(4) -0.03161(18) 0.6073(3)
C25 C 0.7329(5) -0.0985(2) 0.4351(4)
H32 H 0.7103 -0.1090 0.3617
H33 H 0.6763 -0.1106 0.4604
H34 H 0.8061 -0.1143 0.4777
C26 C 0.8335(4) -0.0206(2) 0.4057(4)
H35 H 0.8118 -0.0309 0.3324
H36 H 0.9059 -0.0370 0.4491
H37 H 0.8409 0.0177 0.4118
C27 C 0.3288(4) -0.01952(17) 0.0689(3)
C28 C 0.3069(4) -0.04903(18) -0.0336(4)
C29 C 0.1925(4) -0.07829(18) -0.0757(4)
H38 H 0.1889 -0.1008 -0.1350
H39 H 0.1906 -0.1018 -0.0197
C30 C 0.0881(4) -0.04409(17) -0.1124(4)
C31 C 0.3996(4) -0.0910(2) -0.0045(5)
H40 H 0.3909 -0.1114 -0.0670
H41 H 0.3935 -0.1144 0.0489
H42 H 0.4737 -0.0739 0.0233
C32 C 0.3138(5) -0.0121(2) -0.1177(4)
H43 H 0.3003 -0.0321 -0.1818
H44 H 0.3890 0.0039 -0.0924
H45 H 0.2566 0.0155 -0.1327
Cd1B Cd 0.57316(3) -0.034212(12) 0.73717(3)
Cd2B Cd 0.12471(3) 0.000080(12) 0.13469(2)
Cd2_2 Cd -0.12471(3) -0.000080(12) -0.13469(2)
Cd2C Cd 0.37529(3) 0.500080(12) 0.36531(2)
O6B O 0.2713(3) 0.02297(14) 0.2949(2)
O7B O 0.4011(3) 0.04802(19) 0.4428(3)
O9B O 0.7105(3) 0.03762(12) 0.8676(2)
O13B O 0.9275(3) 0.01317(12) 1.0476(2)
O13_2 O 1.0725(3) -0.01317(12) 0.9524(2)
O15_2 O 1.0159(3) -0.04742(12) 0.7949(2)
N1C N 0.9049(3) 0.07698(14) 0.7979(3)
O2 O 0.0434(4) -0.1149(2) -0.3480(4)
H1 H 0.021(5) -0.094(3) -0.313(5)
H2 H 0.108(4) -0.111(3) -0.348(6)
O3 O -0.0122(5) -0.1953(2) -0.4971(4)
H3 H -0.097(5) -0.218(3) -0.519(6)
H4 H -0.036(6) -0.170(2) -0.462(6)
O5 O 0.2628(5) -0.1209(2) -0.3265(5)
H5 H 0.283(7) -0.150(2) -0.341(6)
H6 H 0.287(7) -0.096(2) -0.352(6)
O8 O 0.2340(5) -0.22739(19) -0.3900(4)
H7 H 0.180(4) -0.245(3) -0.414(6)
H8 H 0.288(5) -0.247(3) -0.349(5)
O10 O 0.0575(9) -0.2093(3) -0.2355(8)
H9 H 0.086(9) -0.244(4) -0.282(9)
H10 H -0.031(7) -0.221(5) -0.325(7)
O12 O 0.0323(12) -0.2955(4) -0.3523(10)
O14 O 0.2433(16) -0.2962(5) -0.2415(9)
O16 O 0.2239(9) -0.2856(3) 0.0828(7)
O17 O 0.2768(8) -0.2500(4) -0.0407(6)
O18 O 0.1378(9) -0.2100(4) -0.0105(9)
O19 O 0.3059(8) -0.2032(5) 0.1127(8)
Cl1 Cl 0.2415(2) -0.24033(9) 0.03791(19)
O20? O 0.3674(10) -0.2548(8) 0.0667(10)
loop_
_geom_bond_atom_site_label_1
_geom_bond_atom_site_label_2
_geom_bond_site_symmetry_1
_geom_bond_site_symmetry_2
Cd1 O1 1_555 1_555
Cd2 O6 1_555 1_555
O1 C21 1_555 1_555
O2 H1 1_555 1_555
H2 O2 1_555 1_555
O3 H3 1_555 1_555
H4 O3 1_555 1_555
O4 Cd1 1_555 1_555
O5 H5 1_555 1_555
H6 O5 1_555 1_555
O6 C24 1_555 1_555
O7 C24 1_555 1_555
O8 H7 1_555 1_555
H8 O8 1_555 1_555
O9 Cd1 1_555 1_555
O10 H9 1_555 1_555
H10 O10 1_555 1_555
O11 Cd1 1_555 1_555
O13 C30 1_555 1_555
O15 C30 1_555 1_555
O16 Cl1 1_555 1_555
O17 Cl1 1_555 1_555
O18 Cl1 1_555 1_555
O19 Cl1 1_555 1_555
N1 C1 1_555 1_555
N2 H11 1_555 1_555
N3 Cd1 1_555 1_555
N4 Cd2 1_555 1_555
N5 H12 1_555 1_555
N6 H13 1_555 1_555
C1 H14 1_555 1_555
C2 C1 1_555 1_555
H15 C2 1_555 1_555
C3 N2 1_555 1_555
C4 C3 1_555 1_555
H16 C4 1_555 1_555
C5 N1 1_555 1_555
H17 C5 1_555 1_555
C6 N3 1_555 1_555
H18 C6 1_555 1_555
C7 C6 1_555 1_555
H19 C7 1_555 1_555
C8 N2 1_555 1_555
C9 C8 1_555 1_555
H20 C9 1_555 1_555
C10 N3 1_555 1_555
H21 C10 1_555 1_555
C11 N4 1_555 1_555
H22 C11 1_555 1_555
C12 C11 1_555 1_555
H23 C12 1_555 1_555
C13 N5 1_555 1_555
C14 C13 1_555 1_555
H24 C14 1_555 1_555
C15 N4 1_555 1_555
H25 C15 1_555 1_555
C16 N6 1_555 1_555
H26 C16 1_555 1_555
C17 C16 1_555 1_555
H27 C17 1_555 1_555
C18 N5 1_555 1_555
C19 C18 1_555 1_555
H28 C19 1_555 1_555
C20 N6 1_555 1_555
H29 C20 1_555 1_555
C21 O4 1_555 1_555
C22 C21 1_555 1_555
C23 C22 1_555 1_555
H30 C23 1_555 1_555
H31 C23 1_555 1_555
C24 C23 1_555 1_555
C25 C22 1_555 1_555
H32 C25 1_555 1_555
H33 C25 1_555 1_555
H34 C25 1_555 1_555
C26 C22 1_555 1_555
H35 C26 1_555 1_555
H36 C26 1_555 1_555
H37 C26 1_555 1_555
C27 O9 1_555 1_555
C28 C27 1_555 1_555
C29 C28 1_555 1_555
H38 C29 1_555 1_555
H39 C29 1_555 1_555
C30 C29 1_555 1_555
C31 C28 1_555 1_555
H40 C31 1_555 1_555
H41 C31 1_555 1_555
H42 C31 1_555 1_555
C32 C28 1_555 1_555
H43 C32 1_555 1_555
H44 C32 1_555 1_555
H45 C32 1_555 1_555
Cd1B O6 1_555 1_555
Cd2B O9 1_555 1_555
Cd2_2 O13 1_555 1_555
Cd2C N1 1_555 1_555
O6B Cd1 1_555 1_555
O7B Cd1 1_555 1_555
O9B Cd2 1_555 1_555
O13B Cd2 1_555 1_555
O13_2 Cd2 1_555 1_555
O15_2 Cd2 1_555 1_555
N1C Cd2 1_555 1_555
O7 Cd1B 1_555 1_555
O11 C27 1_555 1_555
O13 Cd2B 1_555 1_555
O15 Cd2_2 1_555 1_555
C2 C3 1_555 1_555
C4 C5 1_555 1_555
C7 C8 1_555 1_555
C9 C10 1_555 1_555
C12 C13 1_555 1_555
C14 C15 1_555 1_555
C17 C18 1_555 1_555
C19 C20 1_555 1_555
Cd1B O9B 1_555 1_555
Cd2B O6B 1_555 1_555

#END
