
#######################################################################
#
#                 Cambridge Crystallographic Data Centre
#                                CCDC 
#
#######################################################################
#
# If this CIF has been generated from an entry in the Cambridge 
# Structural Database, then it will include bibliographic, chemical, 
# crystal, experimental, refinement or atomic coordinate data resulting 
# from the CCDC's data processing and validation procedures.
#
#######################################################################

data_YOQQUS
_symmetry_cell_setting           triclinic
_symmetry_space_group_name_H-M   'P -1'
_symmetry_Int_Tables_number      2
_space_group_name_Hall           '-P 1'
loop_
_symmetry_equiv_pos_site_id
_symmetry_equiv_pos_as_xyz
1 x,y,z
2 -x,-y,-z
_cell_length_a                   10.1809(5)
_cell_length_b                   11.4631(6)
_cell_length_c                   14.0283(7)
_cell_angle_alpha                103.3120(10)
_cell_angle_beta                 106.5430(10)
_cell_angle_gamma                103.0240(10)
_cell_volume                     1451.06
loop_
_atom_site_label
_atom_site_type_symbol
_atom_site_fract_x
_atom_site_fract_y
_atom_site_fract_z
Ni1 Ni 0.60109(3) 0.42884(2) 0.72381(2)
O1 O -0.34416(15) 0.37085(15) 0.58794(11)
N1 N 0.65837(19) 0.61361(17) 0.71831(14)
C1 C 0.3010(2) 0.4295(2) 0.70264(17)
O2 O 0.61321(17) 0.50027(17) 0.87379(12)
H1 H 0.5481 0.5316 0.8835
H2 H 0.6936 0.5587 0.9036
O3 O -0.18701(15) 0.42711(15) 0.74724(11)
N2 N 0.9551(2) 0.90957(17) 0.85144(15)
H3 H 1.0142 0.8794 0.8876
C2 C 0.1470(2) 0.3946(2) 0.63073(18)
O4 O 0.39029(15) 0.41263(15) 0.65872(12)
N3 N 1.2366(2) 1.05822(17) 0.98597(15)
C3 C 0.0391(2) 0.4063(2) 0.67170(17)
H4 H 0.0619 0.4350 0.7439
O5 O 0.33234(17) 0.47137(19) 0.79977(13)
N4 N 1.3985(2) 0.98044(18) 1.13413(16)
H5 H 1.3081 0.9444 1.0983
C4 C -0.1024(2) 0.3752(2) 0.60477(17)
N5 N 1.4662(2) 0.76235(18) 1.28284(15)
C5 C -0.2176(2) 0.3910(2) 0.64844(16)
O6 O 0.9166(2) 1.09280(17) 0.83594(19)
O7 O 1.60026(19) 1.1266(2) 1.14726(17)
C6 C -0.1362(2) 0.3334(2) 0.49699(18)
H6 H -0.2309 0.3140 0.4526
C7 C -0.0305(2) 0.3203(2) 0.45442(18)
C8 C -0.0678(3) 0.2744(3) 0.3375(2)
H7 H -0.1692 0.2584 0.3031
H8 H -0.0441 0.1979 0.3185
H9 H -0.0140 0.3375 0.3166
C9 C 0.1106(2) 0.3517(2) 0.52287(18)
H10 H 0.1825 0.3436 0.4955
C10 C 0.7784(2) 0.7035(2) 0.78731(17)
H11 H 0.8366 0.6839 0.8417
C11 C 0.5740(2) 0.6423(2) 0.64024(18)
H12 H 0.4911 0.5800 0.5914
C12 C 0.6066(3) 0.7608(2) 0.63047(19)
H13 H 0.5453 0.7784 0.5763
C13 C 0.7300(3) 0.8536(2) 0.70088(19)
H14 H 0.7530 0.9342 0.6949
C14 C 0.8198(2) 0.8246(2) 0.78121(17)
C15 C 0.9981(3) 1.0341(2) 0.8658(2)
C16 C 1.1580(2) 1.1000(2) 0.91628(19)
C17 C 1.2161(3) 1.1997(2) 0.8844(2)
H15 H 1.1573 1.2258 0.8353
C18 C 1.3626(3) 1.2586(2) 0.9273(2)
H16 H 1.4048 1.3246 0.9067
C19 C 1.4457(3) 1.2188(2) 1.0008(2)
H17 H 1.5448 1.2580 1.0318
C20 C 1.3784(2) 1.1185(2) 1.02791(18)
C21 C 1.4699(3) 1.0761(2) 1.1088(2)
C22 C 1.4629(3) 0.9360(2) 1.21558(19)
C23 C 1.5764(3) 1.0156(2) 1.3050(2)
H18 H 1.6135 1.1006 1.3129
C24 C 1.6331(3) 0.9664(3) 1.3823(2)
H19 H 1.7092 1.0180 1.4433
C25 C 1.5765(3) 0.8403(3) 1.3686(2)
H20 H 1.6164 0.8080 1.4210
C26 C 1.4102(2) 0.8098(2) 1.20792(18)
H21 H 1.3329 0.7564 1.1484
Ni1_2 Ni -0.39891(3) 0.42884(2) 0.72381(2)
Ni1A Ni 1.39891(3) 0.57116(2) 1.27619(2)
O1_2 O 0.65584(15) 0.37085(15) 0.58794(11)
O3_2 O 0.81299(15) 0.42711(15) 0.74724(11)
N5A N 0.5338(2) 0.23765(18) 0.71716(15)
O8 O 0.22913(18) 0.54435(17) 0.95552(13)
H22 H 0.2392 0.5010 0.9017
H23 H 0.3090 0.6017 0.9919
O9 O -0.0285(2) 0.3614(2) 0.91108(17)
H24 H -0.1008 0.3639 0.8639
H25 H -0.0274 0.2855 0.8973
O10 O 1.1521(3) 0.7700(2) 0.9319(2)
H26 H 1.1142 0.7078 0.8757
H27 H 1.2290 0.8157 0.9300
loop_
_geom_bond_atom_site_label_1
_geom_bond_atom_site_label_2
_geom_bond_site_symmetry_1
_geom_bond_site_symmetry_2
Ni1 N1 1_555 1_555
O1 C5 1_555 1_555
N1 C10 1_555 1_555
C1 C2 1_555 1_555
O2 Ni1 1_555 1_555
H1 O2 1_555 1_555
H2 O2 1_555 1_555
O3 C5 1_555 1_555
N2 H3 1_555 1_555
C2 C3 1_555 1_555
O4 Ni1 1_555 1_555
N3 C16 1_555 1_555
C3 H4 1_555 1_555
O5 C1 1_555 1_555
N4 H5 1_555 1_555
C4 C3 1_555 1_555
N5 C25 1_555 1_555
C5 C4 1_555 1_555
O6 C15 1_555 1_555
O7 C21 1_555 1_555
C6 C4 1_555 1_555
H6 C6 1_555 1_555
C7 C6 1_555 1_555
C8 C7 1_555 1_555
H7 C8 1_555 1_555
H8 C8 1_555 1_555
H9 C8 1_555 1_555
C9 C2 1_555 1_555
H10 C9 1_555 1_555
C10 H11 1_555 1_555
C11 N1 1_555 1_555
H12 C11 1_555 1_555
C12 C11 1_555 1_555
H13 C12 1_555 1_555
C13 C12 1_555 1_555
H14 C13 1_555 1_555
C14 N2 1_555 1_555
C15 N2 1_555 1_555
C16 C15 1_555 1_555
C17 C16 1_555 1_555
H15 C17 1_555 1_555
C18 C17 1_555 1_555
H16 C18 1_555 1_555
C19 C18 1_555 1_555
H17 C19 1_555 1_555
C20 N3 1_555 1_555
C21 N4 1_555 1_555
C22 N4 1_555 1_555
C23 C22 1_555 1_555
H18 C23 1_555 1_555
C24 C23 1_555 1_555
H19 C24 1_555 1_555
C25 C24 1_555 1_555
H20 C25 1_555 1_555
C26 N5 1_555 1_555
H21 C26 1_555 1_555
O8 H22 1_555 1_555
H23 O8 1_555 1_555
O9 H24 1_555 1_555
H25 O9 1_555 1_555
O10 H26 1_555 1_555
H27 O10 1_555 1_555
Ni1_2 O1 1_555 1_555
Ni1A N5 1_555 1_555
O1_2 Ni1 1_555 1_555
O3_2 Ni1 1_555 1_555
N5A Ni1 1_555 1_555
C1 O4 1_555 1_555
O3 Ni1_2 1_555 1_555
C7 C9 1_555 1_555
C10 C14 1_555 1_555
C13 C14 1_555 1_555
C19 C20 1_555 1_555
C20 C21 1_555 1_555
C22 C26 1_555 1_555

#END
