
#######################################################################
#
#                 Cambridge Crystallographic Data Centre
#                                CCDC 
#
#######################################################################
#
# If this CIF has been generated from an entry in the Cambridge 
# Structural Database, then it will include bibliographic, chemical, 
# crystal, experimental, refinement or atomic coordinate data resulting 
# from the CCDC's data processing and validation procedures.
#
#######################################################################

data_YOQRED
_symmetry_cell_setting           triclinic
_symmetry_space_group_name_H-M   'P -1'
_symmetry_Int_Tables_number      2
_space_group_name_Hall           '-P 1'
loop_
_symmetry_equiv_pos_site_id
_symmetry_equiv_pos_as_xyz
1 x,y,z
2 -x,-y,-z
_cell_length_a                   15.0895(9)
_cell_length_b                   16.1074(9)
_cell_length_c                   26.0925(16)
_cell_angle_alpha                80.7160(10)
_cell_angle_beta                 85.0170(10)
_cell_angle_gamma                75.9160(10)
_cell_volume                     6063.13
loop_
_atom_site_label
_atom_site_type_symbol
_atom_site_fract_x
_atom_site_fract_y
_atom_site_fract_z
Ni1 Ni 0.39731(3) 0.24955(3) 0.550838(18)
O1 O 0.47841(17) 0.12694(16) 0.53045(10)
C1 C 0.8261(2) 0.4152(2) 0.10491(15)
H1 H 0.8079 0.3747 0.1307
N1 N -0.1230(2) 0.1155(2) 0.69502(13)
O2 O -0.27048(17) 0.24547(18) 0.64488(10)
H2 H -0.3250 0.2511 0.6364
H3 H -0.2460 0.2788 0.6226
Ni2 Ni -0.17175(3) 0.24601(3) 0.697239(18)
O3 O 0.51294(17) 0.25154(17) 0.50316(10)
N2 N 0.0042(2) -0.0277(2) 0.60526(13)
H4 H 0.0281 0.0109 0.5865
C2 C 0.9034(3) 0.4463(3) 0.02675(16)
H5 H 0.9392 0.4276 -0.0019
O4 O 1.02546(17) 0.25103(17) 0.10785(10)
H6 H 1.0808 0.2441 0.1153
H7 H 0.9986 0.2253 0.1333
Ni3 Ni 0.35351(3) 0.24763(3) 0.196207(18)
O5 O 0.77294(19) 0.02583(17) 0.34659(10)
N3 N 0.1133(2) -0.0466(2) 0.51855(13)
C3 C 0.8791(3) 0.5333(3) 0.02998(18)
H8 H 0.8977 0.5725 0.0036
Ni4 Ni 0.92271(3) 0.25766(3) 0.056672(18)
O6 O 0.86579(18) 0.19680(17) 0.11950(10)
N4 N 0.1898(2) 0.0880(2) 0.47728(12)
H9 H 0.1528 0.0882 0.5043
C4 C 0.8273(3) 0.5623(3) 0.07212(17)
H10 H 0.8111 0.6210 0.0749
O7 O 0.71438(17) 0.24749(16) 0.12140(9)
N5 N 0.3145(2) 0.2494(2) 0.49120(11)
C5 C 0.7992(3) 0.5020(3) 0.11079(16)
O8 O 0.28037(16) 0.37073(16) 0.22069(9)
N6 N 0.3661(2) 0.3789(2) 0.55550(13)
C6 C 0.7215(3) 0.6025(3) 0.17110(19)
N7 N 0.2423(2) 0.5262(2) 0.64340(13)
H11 H 0.2168 0.4886 0.6621
O9 O 0.23853(17) 0.24855(17) 0.24440(10)
C7 C 0.6552(3) 0.6095(3) 0.21750(18)
N8 N 0.1292(2) 0.5470(2) 0.72767(12)
O10 O -0.01218(19) 0.46981(17) 0.40630(10)
C8 C 0.6220(3) 0.6904(3) 0.23402(19)
H12 H 0.6418 0.7387 0.2174
O11 O -0.11343(17) 0.30465(17) 0.63353(9)
N9 N 0.0455(2) 0.4165(2) 0.76452(12)
H13 H 0.0791 0.4193 0.7362
C9 C 0.5595(3) 0.6964(3) 0.2754(2)
H14 H 0.5351 0.7493 0.2870
O12 O 0.03796(16) 0.25187(15) 0.63263(9)
N10 N -0.0797(2) 0.2539(2) 0.75165(12)
C10 C 0.5333(3) 0.6233(3) 0.29960(18)
H15 H 0.4925 0.6258 0.3285
O13 O -0.27136(17) 0.23879(17) 0.75885(10)
N11 N 0.3794(2) 0.1206(2) 0.18680(13)
C11 C 0.5681(3) 0.5462(3) 0.28066(16)
O14 O -0.25335(17) 0.36484(16) 0.71896(9)
N12 N 0.5079(2) -0.0228(2) 0.09788(13)
H16 H 0.5319 0.0164 0.0797
C12 C 0.5381(3) 0.4669(3) 0.30574(17)
O15 O -0.51930(19) 0.48246(17) 0.91070(10)
N13 N 0.6277(2) -0.0391(2) 0.01645(13)
C13 C 0.5183(2) 0.3285(3) 0.28907(15)
O16 O -0.55145(17) 0.28248(16) 1.14017(9)
N14 N 0.7062(2) 0.0962(2) -0.01642(13)
H17 H 0.6720 0.0909 0.0115
C14 C 0.4798(2) 0.3043(2) 0.24970(15)
H18 H 0.4826 0.3355 0.2166
O17 O -0.69246(16) 0.30391(16) 1.11825(9)
N15 N 0.8270(2) 0.2586(2) 0.00273(12)
C15 C 0.5167(3) 0.2811(3) 0.33830(16)
H19 H 0.5413 0.2960 0.3660
O18 O 0.02022(18) 0.26541(18) 0.99346(10)
N16 N 0.8772(2) 0.3872(2) 0.06366(13)
C16 C 0.4773(3) 0.2111(3) 0.34490(16)
H20 H 0.4770 0.1770 0.3773
O19 O -0.00252(17) 0.13936(17) 1.03130(10)
N17 N 0.7428(2) 0.5244(2) 0.15417(13)
H21 H 0.7192 0.4846 0.1719
C17 C 0.4383(3) 0.1911(3) 0.30378(16)
H22 H 0.4114 0.1440 0.3090
O20 O 0.25956(19) 0.02356(17) 0.83742(10)
N18 N 0.6281(2) 0.5385(2) 0.23968(13)
C18 C 0.4305(2) 0.0894(3) 0.14662(15)
H23 H 0.4539 0.1274 0.1215
O21 O 0.44067(16) 0.19855(16) 0.63064(9)
N19 N 0.5562(2) 0.4011(2) 0.27709(13)
H24 H 0.5929 0.4041 0.2501
C19 C 0.3452(3) 0.0642(3) 0.22277(17)
H25 H 0.3092 0.0848 0.2509
O22 O 0.30106(17) 0.21595(16) 0.60681(9)
N20 N 0.4385(2) 0.2386(2) 0.25624(12)
C20 C 0.3621(3) -0.0219(3) 0.21890(17)
H26 H 0.3382 -0.0589 0.2445
O23 O 0.2503(2) 0.0179(2) 0.40901(12)
C21 C 0.4139(3) -0.0543(3) 0.17772(18)
H27 H 0.4246 -0.1126 0.1746
C22 C 0.4500(3) 0.0024(3) 0.14074(16)
O24 O -0.0113(2) -0.1657(2) 0.61106(14)
O25 O -0.0111(2) 0.4822(2) 0.83540(12)
C23 C 0.5302(3) -0.1015(3) 0.08194(19)
C24 C 0.5976(3) -0.1098(3) 0.03689(17)
O26 O 0.2585(2) 0.6638(2) 0.63746(14)
O27 O 0.4954(2) 0.4641(2) 0.34809(12)
C25 C 0.6272(3) -0.1879(3) 0.01785(18)
H28 H 0.6041 -0.2353 0.0326
O28 O 0.7540(3) 0.6633(2) 0.15183(16)
C26 C 0.6907(3) -0.1944(3) -0.02304(18)
H29 H 0.7128 -0.2467 -0.0357
O29 O 0.7633(2) 0.0385(2) -0.08980(12)
C27 C 0.7212(3) -0.1223(3) -0.04494(17)
H30 H 0.7633 -0.1247 -0.0732
C28 C 0.6881(3) -0.0456(3) -0.02421(16)
O30 O 0.4978(3) -0.1620(2) 0.10183(16)
C29 C 0.7226(3) 0.0330(3) -0.04704(17)
C30 C 0.7428(3) 0.1708(3) -0.02842(15)
C31 C 0.7891(2) 0.1906(2) 0.00966(14)
H31 H 0.7941 0.1550 0.0416
C32 C 0.7345(3) 0.2232(3) -0.07579(16)
H32 H 0.7042 0.2111 -0.1022
C33 C 0.7722(3) 0.2940(3) -0.08281(16)
H33 H 0.7672 0.3310 -0.1143
C34 C 0.8172(3) 0.3100(3) -0.04315(15)
H34 H 0.8418 0.3585 -0.0484
C35 C 0.7865(2) 0.2033(2) 0.14117(14)
C36 C 0.7824(2) 0.1537(2) 0.19513(13)
C37 C 0.8594(2) 0.0977(2) 0.21680(14)
H35 H 0.9147 0.0886 0.1974
C38 C 0.8544(3) 0.0553(3) 0.26713(15)
H36 H 0.9056 0.0163 0.2811
C39 C 0.7732(3) 0.0713(3) 0.29639(15)
C40 C 0.6962(3) 0.1245(2) 0.27538(14)
H37 H 0.6410 0.1328 0.2950
C41 C 0.7003(2) 0.1663(2) 0.22445(14)
H38 H 0.6480 0.2027 0.2101
C42 C 0.7128(3) 0.0638(3) 0.38441(14)
C43 C 0.7157(3) 0.1437(3) 0.39633(14)
H39 H 0.7562 0.1744 0.3782
C44 C 0.6572(2) 0.1772(2) 0.43576(14)
H40 H 0.6576 0.2315 0.4436
C45 C 0.5979(2) 0.1307(2) 0.46382(14)
C46 C 0.5999(3) 0.0496(2) 0.45260(14)
H41 H 0.5627 0.0167 0.4723
C47 C 0.6564(3) 0.0163(2) 0.41246(15)
H42 H 0.6560 -0.0379 0.4046
C48 C 0.5277(2) 0.1713(3) 0.50204(14)
C49 C 0.2291(2) 0.3274(3) 0.24827(14)
C50 C 0.1620(2) 0.3673(2) 0.28803(13)
C51 C 0.0997(2) 0.3217(2) 0.31449(14)
H43 H 0.0970 0.2690 0.3053
C52 C 0.0421(2) 0.3547(3) 0.35424(14)
H44 H -0.0006 0.3254 0.3712
C53 C 0.0491(3) 0.4320(3) 0.36831(14)
C54 C 0.1105(3) 0.4779(3) 0.34320(15)
H45 H 0.1145 0.5295 0.3534
C55 C 0.1661(3) 0.4456(2) 0.30255(14)
H46 H 0.2067 0.4765 0.2847
C56 C -0.0142(3) 0.4244(2) 0.45620(14)
C57 C -0.0971(2) 0.4404(2) 0.48451(14)
H47 H -0.1481 0.4785 0.4696
C58 C -0.1036(2) 0.3997(2) 0.53508(13)
H48 H -0.1595 0.4097 0.5538
C59 C -0.0273(2) 0.3437(2) 0.55830(13)
C60 C 0.0555(2) 0.3307(2) 0.52888(13)
H49 H 0.1075 0.2944 0.5438
C61 C 0.0620(2) 0.3705(2) 0.47826(14)
H50 H 0.1176 0.3608 0.4592
C62 C -0.0337(2) 0.2962(2) 0.61224(13)
C63 C -0.1449(3) 0.0583(3) 0.73419(16)
H51 H -0.1784 0.0787 0.7631
C64 C -0.1199(3) -0.0293(3) 0.73350(17)
H52 H -0.1354 -0.0669 0.7619
C65 C -0.0721(3) -0.0616(3) 0.69108(17)
H53 H -0.0563 -0.1208 0.6898
C66 C -0.0479(3) -0.0037(3) 0.65019(15)
C67 C -0.0753(2) 0.0843(3) 0.65386(15)
H54 H -0.0596 0.1233 0.6263
C68 C 0.0202(3) -0.1058(3) 0.58872(18)
C69 C 0.0808(3) -0.1152(3) 0.54055(16)
C70 C 0.1018(3) -0.1931(3) 0.52071(17)
H55 H 0.0770 -0.2389 0.5365
C71 C 0.1598(3) -0.2010(3) 0.47742(18)
H56 H 0.1756 -0.2528 0.4638
C72 C 0.1942(3) -0.1323(3) 0.45447(17)
H57 H 0.2339 -0.1365 0.4252
C73 C 0.1686(3) -0.0560(3) 0.47582(15)
C74 C 0.2065(3) 0.0196(3) 0.45067(16)
C75 C 0.2308(2) 0.1589(3) 0.46241(15)
C76 C 0.2331(3) 0.2020(3) 0.41257(15)
H58 H 0.2061 0.1861 0.3861
C77 C 0.2766(3) 0.2697(3) 0.40284(15)
H59 H 0.2784 0.3007 0.3696
C78 C 0.3172(3) 0.2910(3) 0.44270(15)
H60 H 0.3475 0.3357 0.4356
C79 C 0.2709(2) 0.1854(2) 0.50063(14)
H61 H 0.2673 0.1572 0.5345
C80 C 0.3962(3) 0.4333(3) 0.51776(18)
H62 H 0.4315 0.4110 0.4899
C81 C 0.3771(3) 0.5208(3) 0.51850(19)
H63 H 0.3978 0.5568 0.4909
C82 C 0.3275(3) 0.5555(3) 0.55989(18)
H64 H 0.3154 0.6146 0.5612
C83 C 0.2957(2) 0.4996(3) 0.59993(16)
C84 C 0.3166(2) 0.4123(3) 0.59550(15)
H65 H 0.2949 0.3748 0.6218
C85 C 0.2264(3) 0.6044(3) 0.65944(17)
C86 C 0.1649(3) 0.6139(3) 0.70700(17)
C87 C 0.1447(3) 0.6924(3) 0.72767(18)
H66 H 0.1710 0.7377 0.7126
C88 C 0.0858(3) 0.7003(3) 0.77026(18)
H67 H 0.0708 0.7515 0.7846
C89 C 0.0489(3) 0.6322(3) 0.79169(16)
H68 H 0.0087 0.6365 0.8208
C90 C 0.0720(3) 0.5565(3) 0.76955(15)
C91 C 0.0319(3) 0.4812(3) 0.79319(16)
C92 C 0.0068(2) 0.3438(2) 0.77915(14)
C93 C -0.0393(2) 0.3199(2) 0.74203(14)
H69 H -0.0420 0.3517 0.7089
C94 C -0.0743(3) 0.2081(3) 0.79935(16)
H70 H -0.1017 0.1614 0.8067
C95 C -0.0296(3) 0.2277(3) 0.83785(17)
H71 H -0.0267 0.1941 0.8705
C96 C 0.0111(3) 0.2969(3) 0.82833(16)
H72 H 0.0405 0.3115 0.8543
C97 C -0.2915(2) 0.3197(3) 0.75503(14)
C98 C -0.3558(2) 0.3637(2) 0.79450(13)
C99 C -0.4124(2) 0.3192(2) 0.82650(13)
H73 H -0.4133 0.2635 0.8216
C100 C -0.4680(2) 0.3571(2) 0.86596(14)
H74 H -0.5072 0.3279 0.8869
C101 C -0.4636(3) 0.4386(2) 0.87330(14)
C102 C -0.4085(3) 0.4840(3) 0.84182(15)
H75 H -0.4067 0.5392 0.8474
C103 C -0.3554(3) 0.4469(2) 0.80161(15)
H76 H -0.3196 0.4781 0.7794
C104 C -0.5391(3) 0.4372(2) 0.95834(14)
C105 C -0.6270(3) 0.4597(3) 0.97891(15)
H77 H -0.6706 0.5025 0.9605
C106 C -0.6508(3) 0.4187(3) 1.02689(14)
H78 H -0.7108 0.4330 1.0403
C107 C -0.5863(2) 0.3568(2) 1.05526(12)
C108 C -0.6120(3) 0.3125(2) 1.10695(14)
C109 C -0.4971(3) 0.3375(2) 1.03481(14)
H79 H -0.4523 0.2979 1.0541
C110 C -0.4740(3) 0.3764(3) 0.98612(15)
H80 H -0.4144 0.3614 0.9722
C111 C 0.0359(3) 0.1845(3) 0.99537(14)
C112 C 0.0965(2) 0.1417(2) 0.95440(14)
C113 C 0.1557(2) 0.1849(2) 0.92350(14)
H81 H 0.1589 0.2394 0.9296
C114 C 0.2101(3) 0.1478(2) 0.88374(15)
H82 H 0.2509 0.1762 0.8637
C115 C 0.2024(3) 0.0678(2) 0.87434(14)
C116 C 0.1433(3) 0.0239(2) 0.90393(14)
H83 H 0.1381 -0.0293 0.8967
C117 C 0.0916(3) 0.0608(3) 0.94462(14)
H84 H 0.0532 0.0310 0.9657
C118 C 0.2810(3) 0.0696(3) 0.78976(15)
C119 C 0.3712(3) 0.0479(3) 0.77198(16)
H85 H 0.4141 0.0072 0.7921
C120 C 0.3969(3) 0.0878(3) 0.72341(15)
H86 H 0.4578 0.0748 0.7113
C121 C 0.3324(3) 0.1466(2) 0.69308(13)
C122 C 0.3601(3) 0.1892(2) 0.64077(14)
C123 C 0.2422(3) 0.1651(3) 0.71119(15)
H87 H 0.1983 0.2032 0.6905
C124 C 0.2164(3) 0.1268(2) 0.76039(15)
H88 H 0.1558 0.1402 0.7729
Ni3_2 Ni -0.64649(3) 0.24763(3) 1.196207(18)
Ni4_2 Ni -0.07729(3) 0.25766(3) 1.056672(18)
O16_2 O 0.44855(17) 0.28248(16) 0.14017(9)
O17_2 O 0.30754(16) 0.30391(16) 0.11825(9)
O18_2 O 1.02022(18) 0.26541(18) -0.00654(10)
O19_2 O 0.99748(17) 0.13936(17) 0.03130(10)
O31 O -0.12292(18) 0.61285(18) 0.34312(11)
H89 H -0.0847 0.5762 0.3624
H90 H -0.1571 0.6470 0.3622
O32 O 0.11578(17) 0.10918(16) 0.58520(10)
H91 H 0.0995 0.1549 0.5993
H92 H 0.1513 0.0714 0.6055
O33 O 0.37064(18) -0.11540(18) 0.90667(11)
H93 H 0.3405 -0.0710 0.8880
H94 H 0.3651 -0.1598 0.8947
O34 O 0.63060(18) 0.38953(17) 0.16697(11)
H95 H 0.6298 0.3394 0.1611
H96 H 0.6011 0.4262 0.1436
O35 O 0.9237(2) -0.0647(2) -0.13248(12)
H97 H 0.9006 -0.0132 -0.1285
H98 H 0.9302 -0.0949 -0.1021
O36 O 0.3243(2) 0.5630(2) 0.38354(12)
H99 H 0.3728 0.5272 0.3758
H100 H 0.3061 0.5959 0.3553
O37 O 1.1226(2) 0.3796(2) 0.09963(13)
H101 H 1.0871 0.3523 0.0896
H102 H 1.1681 0.3419 0.1127
O38 O -0.3755(2) 0.1269(2) 0.65317(13)
O39 O 0.4316(4) 0.0091(4) 0.3834(3)
O40 O -0.1880(5) 0.4905(5) 0.8671(3)
loop_
_geom_bond_atom_site_label_1
_geom_bond_atom_site_label_2
_geom_bond_site_symmetry_1
_geom_bond_site_symmetry_2
Ni1 O1 1_555 1_555
O1 C48 1_555 1_555
C1 H1 1_555 1_555
N1 Ni2 1_555 1_555
O2 H2 1_555 1_555
H3 O2 1_555 1_555
Ni2 O2 1_555 1_555
O3 Ni1 1_555 1_555
N2 H4 1_555 1_555
C2 H5 1_555 1_555
O4 H6 1_555 1_555
H7 O4 1_555 1_555
Ni3 O8 1_555 1_555
O5 C39 1_555 1_555
N3 C69 1_555 1_555
C3 C2 1_555 1_555
H8 C3 1_555 1_555
Ni4 O4 1_555 1_555
O6 Ni4 1_555 1_555
N4 H9 1_555 1_555
C4 C3 1_555 1_555
H10 C4 1_555 1_555
O7 C35 1_555 1_555
N5 Ni1 1_555 1_555
C5 C1 1_555 1_555
O8 C49 1_555 1_555
N6 Ni1 1_555 1_555
C6 C7 1_555 1_555
N7 H11 1_555 1_555
O9 Ni3 1_555 1_555
C7 C8 1_555 1_555
N8 C86 1_555 1_555
O10 C53 1_555 1_555
C8 H12 1_555 1_555
O11 Ni2 1_555 1_555
N9 H13 1_555 1_555
C9 C8 1_555 1_555
H14 C9 1_555 1_555
O12 C62 1_555 1_555
N10 Ni2 1_555 1_555
C10 C9 1_555 1_555
H15 C10 1_555 1_555
O13 Ni2 1_555 1_555
N11 Ni3 1_555 1_555
C11 C10 1_555 1_555
O14 Ni2 1_555 1_555
N12 H16 1_555 1_555
C12 C11 1_555 1_555
O15 C101 1_555 1_555
N13 C24 1_555 1_555
C13 C14 1_555 1_555
O16 C108 1_555 1_555
N14 H17 1_555 1_555
C14 H18 1_555 1_555
O17 C108 1_555 1_555
N15 Ni4 1_555 1_555
C15 C13 1_555 1_555
H19 C15 1_555 1_555
O18 C111 1_555 1_555
N16 C1 1_555 1_555
C16 C15 1_555 1_555
H20 C16 1_555 1_555
O19 C111 1_555 1_555
N17 C5 1_555 1_555
H21 N17 1_555 1_555
C17 C16 1_555 1_555
H22 C17 1_555 1_555
O20 C115 1_555 1_555
N18 C7 1_555 1_555
C18 N11 1_555 1_555
H23 C18 1_555 1_555
O21 Ni1 1_555 1_555
N19 C12 1_555 1_555
H24 N19 1_555 1_555
C19 N11 1_555 1_555
H25 C19 1_555 1_555
O22 Ni1 1_555 1_555
N20 Ni3 1_555 1_555
C20 C19 1_555 1_555
H26 C20 1_555 1_555
O23 C74 1_555 1_555
C21 C20 1_555 1_555
H27 C21 1_555 1_555
C22 N12 1_555 1_555
O24 C68 1_555 1_555
O25 C91 1_555 1_555
C23 N12 1_555 1_555
C24 C23 1_555 1_555
O26 C85 1_555 1_555
O27 C12 1_555 1_555
C25 C24 1_555 1_555
H28 C25 1_555 1_555
O28 C6 1_555 1_555
C26 C25 1_555 1_555
H29 C26 1_555 1_555
O29 C29 1_555 1_555
C27 C26 1_555 1_555
H30 C27 1_555 1_555
C28 N13 1_555 1_555
O30 C23 1_555 1_555
C29 N14 1_555 1_555
C30 N14 1_555 1_555
C31 N15 1_555 1_555
H31 C31 1_555 1_555
C32 C30 1_555 1_555
H32 C32 1_555 1_555
C33 C32 1_555 1_555
H33 C33 1_555 1_555
C34 N15 1_555 1_555
H34 C34 1_555 1_555
C35 O6 1_555 1_555
C36 C35 1_555 1_555
C37 C36 1_555 1_555
H35 C37 1_555 1_555
C38 C37 1_555 1_555
H36 C38 1_555 1_555
C39 C38 1_555 1_555
C40 C39 1_555 1_555
H37 C40 1_555 1_555
C41 C36 1_555 1_555
H38 C41 1_555 1_555
C42 O5 1_555 1_555
C43 C42 1_555 1_555
H39 C43 1_555 1_555
C44 C43 1_555 1_555
H40 C44 1_555 1_555
C45 C44 1_555 1_555
C46 C45 1_555 1_555
H41 C46 1_555 1_555
C47 C42 1_555 1_555
H42 C47 1_555 1_555
C48 O3 1_555 1_555
C49 O9 1_555 1_555
C50 C49 1_555 1_555
C51 C50 1_555 1_555
H43 C51 1_555 1_555
C52 C51 1_555 1_555
H44 C52 1_555 1_555
C53 C52 1_555 1_555
C54 C53 1_555 1_555
H45 C54 1_555 1_555
C55 C50 1_555 1_555
H46 C55 1_555 1_555
C56 O10 1_555 1_555
C57 C56 1_555 1_555
H47 C57 1_555 1_555
C58 C57 1_555 1_555
H48 C58 1_555 1_555
C59 C58 1_555 1_555
C60 C59 1_555 1_555
H49 C60 1_555 1_555
C61 C56 1_555 1_555
H50 C61 1_555 1_555
C62 O11 1_555 1_555
C63 N1 1_555 1_555
H51 C63 1_555 1_555
C64 C63 1_555 1_555
H52 C64 1_555 1_555
C65 C64 1_555 1_555
H53 C65 1_555 1_555
C66 N2 1_555 1_555
C67 N1 1_555 1_555
H54 C67 1_555 1_555
C68 N2 1_555 1_555
C69 C68 1_555 1_555
C70 C69 1_555 1_555
H55 C70 1_555 1_555
C71 C70 1_555 1_555
H56 C71 1_555 1_555
C72 C71 1_555 1_555
H57 C72 1_555 1_555
C73 N3 1_555 1_555
C74 N4 1_555 1_555
C75 N4 1_555 1_555
C76 C75 1_555 1_555
H58 C76 1_555 1_555
C77 C76 1_555 1_555
H59 C77 1_555 1_555
C78 N5 1_555 1_555
H60 C78 1_555 1_555
C79 N5 1_555 1_555
H61 C79 1_555 1_555
C80 N6 1_555 1_555
H62 C80 1_555 1_555
C81 C80 1_555 1_555
H63 C81 1_555 1_555
C82 C81 1_555 1_555
H64 C82 1_555 1_555
C83 N7 1_555 1_555
C84 N6 1_555 1_555
H65 C84 1_555 1_555
C85 N7 1_555 1_555
C86 C85 1_555 1_555
C87 C86 1_555 1_555
H66 C87 1_555 1_555
C88 C87 1_555 1_555
H67 C88 1_555 1_555
C89 C88 1_555 1_555
H68 C89 1_555 1_555
C90 N8 1_555 1_555
C91 N9 1_555 1_555
C92 N9 1_555 1_555
C93 N10 1_555 1_555
H69 C93 1_555 1_555
C94 N10 1_555 1_555
H70 C94 1_555 1_555
C95 C94 1_555 1_555
H71 C95 1_555 1_555
C96 C92 1_555 1_555
H72 C96 1_555 1_555
C97 O13 1_555 1_555
C98 C97 1_555 1_555
C99 C98 1_555 1_555
H73 C99 1_555 1_555
C100 C99 1_555 1_555
H74 C100 1_555 1_555
C101 C100 1_555 1_555
C102 C101 1_555 1_555
H75 C102 1_555 1_555
C103 C98 1_555 1_555
H76 C103 1_555 1_555
C104 O15 1_555 1_555
C105 C104 1_555 1_555
H77 C105 1_555 1_555
C106 C105 1_555 1_555
H78 C106 1_555 1_555
C107 C106 1_555 1_555
C108 C107 1_555 1_555
C109 C107 1_555 1_555
H79 C109 1_555 1_555
C110 C104 1_555 1_555
H80 C110 1_555 1_555
C111 C112 1_555 1_555
C112 C113 1_555 1_555
C113 H81 1_555 1_555
C114 C113 1_555 1_555
H82 C114 1_555 1_555
C115 C114 1_555 1_555
C116 C115 1_555 1_555
H83 C116 1_555 1_555
C117 C112 1_555 1_555
H84 C117 1_555 1_555
C118 O20 1_555 1_555
C119 C118 1_555 1_555
H85 C119 1_555 1_555
C120 C119 1_555 1_555
H86 C120 1_555 1_555
C121 C120 1_555 1_555
C122 O21 1_555 1_555
C123 C121 1_555 1_555
H87 C123 1_555 1_555
C124 C118 1_555 1_555
H88 C124 1_555 1_555
O31 H89 1_555 1_555
H90 O31 1_555 1_555
O32 H91 1_555 1_555
H92 O32 1_555 1_555
O33 H93 1_555 1_555
H94 O33 1_555 1_555
O34 H95 1_555 1_555
H96 O34 1_555 1_555
O35 H97 1_555 1_555
H98 O35 1_555 1_555
O36 H99 1_555 1_555
H100 O36 1_555 1_555
O37 H101 1_555 1_555
H102 O37 1_555 1_555
Ni3_2 O16 1_555 1_555
Ni4_2 O18 1_555 1_555
O16_2 Ni3 1_555 1_555
O17_2 Ni3 1_555 1_555
O18_2 Ni4 1_555 1_555
O19_2 Ni4 1_555 1_555
C2 N16 1_555 1_555
Ni4 N16 1_555 1_555
C4 C5 1_555 1_555
C6 N17 1_555 1_555
C11 N18 1_555 1_555
O14 C97 1_555 1_555
C13 N19 1_555 1_555
C14 N20 1_555 1_555
O17 Ni3_2 1_555 1_555
O19 Ni4_2 1_555 1_555
C17 N20 1_555 1_555
C18 C22 1_555 1_555
O22 C122 1_555 1_555
C21 C22 1_555 1_555
C27 C28 1_555 1_555
C28 C29 1_555 1_555
C30 C31 1_555 1_555
C33 C34 1_555 1_555
C40 C41 1_555 1_555
C45 C48 1_555 1_555
C46 C47 1_555 1_555
C54 C55 1_555 1_555
C59 C62 1_555 1_555
C60 C61 1_555 1_555
C65 C66 1_555 1_555
C66 C67 1_555 1_555
C72 C73 1_555 1_555
C73 C74 1_555 1_555
C75 C79 1_555 1_555
C77 C78 1_555 1_555
C82 C83 1_555 1_555
C83 C84 1_555 1_555
C89 C90 1_555 1_555
C90 C91 1_555 1_555
C92 C93 1_555 1_555
C95 C96 1_555 1_555
C102 C103 1_555 1_555
C109 C110 1_555 1_555
C116 C117 1_555 1_555
C121 C122 1_555 1_555
C123 C124 1_555 1_555

#END
