
#######################################################################
#
#                 Cambridge Crystallographic Data Centre
#                                CCDC 
#
#######################################################################
#
# If this CIF has been generated from an entry in the Cambridge 
# Structural Database, then it will include bibliographic, chemical, 
# crystal, experimental, refinement or atomic coordinate data resulting 
# from the CCDC's data processing and validation procedures.
#
#######################################################################

data_YOQRAZ
_symmetry_cell_setting           triclinic
_symmetry_space_group_name_H-M   'P -1'
_symmetry_Int_Tables_number      2
_space_group_name_Hall           '-P 1'
loop_
_symmetry_equiv_pos_site_id
_symmetry_equiv_pos_as_xyz
1 x,y,z
2 -x,-y,-z
_cell_length_a                   8.796(3)
_cell_length_b                   9.522(3)
_cell_length_c                   17.053(5)
_cell_angle_alpha                91.134(5)
_cell_angle_beta                 104.003(5)
_cell_angle_gamma                94.948(5)
_cell_volume                     1379.45
loop_
_atom_site_label
_atom_site_type_symbol
_atom_site_fract_x
_atom_site_fract_y
_atom_site_fract_z
Ni1 Ni 0.98194(7) 0.35007(6) 0.69428(4)
O1 O 0.7685(4) 0.2386(3) 0.6418(2)
N1 N 0.9575(5) 0.3052(4) 0.8112(3)
C1 C 0.7365(6) 0.1071(5) 0.6428(3)
O2 O 1.0980(4) 0.1722(4) 0.6839(2)
H1 H 1.1393 0.1172 0.6568
H2 H 1.0520 0.1217 0.7134
O3 O 0.8348(5) 0.0199(4) 0.6676(3)
O4 O 0.8602(4) 0.5295(4) 0.6913(2)
H3 H 0.8108 0.5866 0.7124
H4 H 0.7941 0.4836 0.6527
C2 C 0.5667(6) 0.0510(5) 0.6119(3)
N2 N 1.1491(6) 0.0970(5) 0.9776(3)
H5 H 1.1723 0.0324 0.9478
O5 O 0.4091(5) -0.3833(4) 0.5711(3)
O6 O 1.0188(4) 0.4040(4) 0.5832(2)
H6 H 1.0460 0.3477 0.5508
H7 H 1.0731 0.4827 0.5842
C3 C 0.5209(6) -0.0931(5) 0.6117(3)
H8 H 0.5956 -0.1557 0.6307
N3 N 1.3577(5) -0.0952(5) 1.0267(3)
O7 O 0.1676(4) -0.3341(4) 0.5717(2)
C4 C 0.3637(6) -0.1427(5) 0.5829(3)
N4 N 1.3808(6) -0.2885(5) 0.9147(3)
H9 H 1.3114 -0.2288 0.9102
O8 O 0.1816(5) 0.1779(4) 0.5229(3)
H10 H 0.2188 0.2473 0.5039
C5 C 0.3104(6) -0.2982(5) 0.5755(3)
N5 N 1.2021(5) -0.5370(4) 0.7448(3)
C6 C 0.2519(6) -0.0499(5) 0.5541(3)
H11 H 0.1463 -0.0832 0.5359
O9 O 1.1751(5) 0.1688(5) 1.1088(2)
C7 C 0.2979(6) 0.0922(5) 0.5524(3)
O10 O 1.6030(5) -0.3579(5) 0.9983(3)
C8 C 0.4537(6) 0.1435(5) 0.5819(3)
H12 H 0.4833 0.2396 0.5817
C9 C 1.0430(6) 0.2115(5) 0.8559(3)
H13 H 1.0998 0.1543 0.8311
C10 C 0.8730(7) 0.3837(6) 0.8477(3)
H14 H 0.8105 0.4469 0.8173
C11 C 0.8751(7) 0.3743(6) 0.9282(4)
H15 H 0.8148 0.4304 0.9513
C12 C 0.9672(7) 0.2812(6) 0.9749(4)
H16 H 0.9728 0.2760 1.0299
C13 C 1.0500(7) 0.1965(5) 0.9376(3)
C14 C 1.2108(7) 0.0938(6) 1.0583(3)
C15 C 1.3297(7) -0.0105(6) 1.0840(3)
C16 C 1.4072(8) -0.0140(7) 1.1654(4)
H17 H 1.3844 0.0459 1.2039
C17 C 1.5181(9) -0.1086(8) 1.1873(4)
H18 H 1.5728 -0.1125 1.2411
C18 C 1.5479(7) -0.1977(7) 1.1289(4)
H19 H 1.6221 -0.2627 1.1425
C19 C 1.4642(6) -0.1874(6) 1.0495(3)
C20 C 1.4918(7) -0.2864(6) 0.9855(3)
C21 C 1.3710(6) -0.3812(5) 0.8479(3)
C22 C 1.4999(7) -0.4046(6) 0.8177(4)
H20 H 1.5993 -0.3609 0.8419
C23 C 1.4760(7) -0.4949(7) 0.7504(4)
H21 H 1.5599 -0.5133 0.7286
C24 C 1.3266(6) -0.5576(6) 0.7158(3)
H22 H 1.3121 -0.6169 0.6701
C25 C 1.2255(6) -0.4486(5) 0.8101(3)
H23 H 1.1397 -0.4323 0.8308
Ni1_2 Ni 0.98194(7) -0.64993(6) 0.69428(4)
N5_2 N 1.2021(5) 0.4630(4) 0.7448(3)
O11 O 0.3072(5) -0.5965(4) 0.4601(3)
H24 H 0.3475 -0.5433 0.5019
H25 H 0.3672 -0.6617 0.4596
O12 O 1.0158(5) 0.7867(4) 0.6783(3)
H26 H 1.0535 0.8100 0.6384
H27 H 0.9461 0.8418 0.6810
O13 O 0.8880(6) 0.1270(5) 1.1575(3)
H28 H 0.9817 0.1257 1.1524
H29 H 0.8719 0.2126 1.1644
loop_
_geom_bond_atom_site_label_1
_geom_bond_atom_site_label_2
_geom_bond_site_symmetry_1
_geom_bond_site_symmetry_2
Ni1 O1 1_555 1_555
O1 C1 1_555 1_555
N1 Ni1 1_555 1_555
C1 O3 1_555 1_555
O2 Ni1 1_555 1_555
H1 O2 1_555 1_555
H2 O2 1_555 1_555
O4 Ni1 1_555 1_555
H3 O4 1_555 1_555
H4 O4 1_555 1_555
C2 C1 1_555 1_555
N2 H5 1_555 1_555
O5 C5 1_555 1_555
O6 Ni1 1_555 1_555
H6 O6 1_555 1_555
H7 O6 1_555 1_555
C3 C2 1_555 1_555
H8 C3 1_555 1_555
N3 C15 1_555 1_555
O7 C5 1_555 1_555
C4 C3 1_555 1_555
N4 H9 1_555 1_555
O8 H10 1_555 1_555
C5 C4 1_555 1_555
N5 C24 1_555 1_555
C6 C4 1_555 1_555
H11 C6 1_555 1_555
O9 C14 1_555 1_555
C7 O8 1_555 1_555
O10 C20 1_555 1_555
C8 C2 1_555 1_555
H12 C8 1_555 1_555
C9 N1 1_555 1_555
H13 C9 1_555 1_555
C10 N1 1_555 1_555
H14 C10 1_555 1_555
C11 C10 1_555 1_555
H15 C11 1_555 1_555
C12 C11 1_555 1_555
H16 C12 1_555 1_555
C13 N2 1_555 1_555
C14 N2 1_555 1_555
C15 C14 1_555 1_555
C16 C15 1_555 1_555
H17 C16 1_555 1_555
C17 C16 1_555 1_555
H18 C17 1_555 1_555
C18 C17 1_555 1_555
H19 C18 1_555 1_555
C19 N3 1_555 1_555
C20 N4 1_555 1_555
C21 N4 1_555 1_555
C22 C21 1_555 1_555
H20 C22 1_555 1_555
C23 C22 1_555 1_555
H21 C23 1_555 1_555
C24 C23 1_555 1_555
H22 C24 1_555 1_555
C25 N5 1_555 1_555
H23 C25 1_555 1_555
O11 H24 1_555 1_555
H25 O11 1_555 1_555
O12 H26 1_555 1_555
H27 O12 1_555 1_555
O13 H28 1_555 1_555
H29 O13 1_555 1_555
Ni1_2 N5 1_555 1_555
N5_2 Ni1 1_555 1_555
C6 C7 1_555 1_555
C7 C8 1_555 1_555
C9 C13 1_555 1_555
C12 C13 1_555 1_555
C18 C19 1_555 1_555
C19 C20 1_555 1_555
C21 C25 1_555 1_555

#END
