
#######################################################################
#
#                 Cambridge Crystallographic Data Centre
#                                CCDC 
#
#######################################################################
#
# If this CIF has been generated from an entry in the Cambridge 
# Structural Database, then it will include bibliographic, chemical, 
# crystal, experimental, refinement or atomic coordinate data resulting 
# from the CCDC's data processing and validation procedures.
#
#######################################################################

data_YOQRON
_symmetry_cell_setting           monoclinic
_symmetry_space_group_name_H-M   'P 21'
_symmetry_Int_Tables_number      4
_space_group_name_Hall           'P 2yb'
loop_
_symmetry_equiv_pos_site_id
_symmetry_equiv_pos_as_xyz
1 x,y,z
2 -x,1/2+y,-z
_cell_length_a                   10.2082(9)
_cell_length_b                   19.9466(18)
_cell_length_c                   13.3575(12)
_cell_angle_alpha                90
_cell_angle_beta                 93.332(2)
_cell_angle_gamma                90
_cell_volume                     2715.24
loop_
_atom_site_label
_atom_site_type_symbol
_atom_site_fract_x
_atom_site_fract_y
_atom_site_fract_z
Ni1 Ni 0.15981(9) 0.24937(5) 0.27203(7)
O1 O 0.3454(5) 0.2434(3) 0.3340(4)
N1 N -0.6955(6) 0.2458(4) -0.3354(5)
C1 C 0.0740(9) 0.1226(4) 0.1677(7)
H1 H 0.0217 0.1523 0.1295
O2 O 0.2213(7) 0.2694(3) 0.1302(5)
H2 H 0.2772 0.2918 0.0995
H3 H 0.1736 0.2481 0.0870
Ni2 Ni -0.69993(9) 0.34766(5) -0.30026(7)
O3 O 0.4582(6) 0.2228(4) 0.1993(5)
N2 N -0.5108(7) 0.0991(4) -0.2457(5)
H4 H -0.4565 0.1225 -0.2085
C2 C 0.2324(9) 0.1042(5) 0.2957(7)
H5 H 0.2897 0.1208 0.3464
O4 O -0.7566(6) 0.3286(3) -0.1567(4)
H6 H -0.8042 0.3468 -0.1137
H7 H -0.7470 0.2879 -0.1413
O5 O 1.0443(6) 0.2300(3) 0.3968(4)
C3 C 0.2259(13) 0.0366(5) 0.2797(9)
H8 H 0.2790 0.0082 0.3197
N3 N -0.3012(8) -0.0949(4) -0.0915(6)
O6 O 0.9509(5) 0.2527(3) 0.2499(4)
N4 N -0.0250(8) 0.0246(4) 0.0755(6)
H9 H -0.0141 -0.0173 0.0633
C4 C 0.1436(11) 0.0100(5) 0.2068(8)
H10 H 0.1404 -0.0360 0.1957
C5 C 0.0627(9) 0.0542(4) 0.1483(7)
N5 N 0.1581(6) 0.1470(3) 0.2399(6)
O7 O 0.6607(7) 0.1900(5) 0.6175(5)
H11 H 0.7237 0.2024 0.6536
N6 N 0.1557(7) 0.3509(4) 0.3075(5)
C6 C -0.1249(9) 0.0562(4) 0.0230(7)
O8 O -0.8836(5) 0.3578(3) -0.3646(4)
N7 N -0.0332(8) 0.4968(4) 0.2150(6)
H12 H -0.0956 0.4737 0.1860
C7 C -0.2162(9) 0.0115(5) -0.0403(7)
O9 O -1.0014(6) 0.3264(4) -0.2376(5)
N8 N -0.2609(9) 0.6932(4) 0.0826(6)
C8 C -0.2219(11) -0.0571(5) -0.0337(7)
H13 H -0.1666 -0.0783 0.0142
O10 O -1.5847(5) 0.3713(3) -0.4230(4)
N9 N -0.5075(9) 0.5736(4) -0.1114(8)
H14 H -0.5022 0.6167 -0.1122
C9 C -0.3851(10) -0.0638(5) -0.1568(7)
H15 H -0.4413 -0.0900 -0.1977
O11 O -1.4928(5) 0.3474(3) -0.2741(4)
N10 N -0.7039(7) 0.4520(4) -0.2659(6)
C10 C -0.3927(8) 0.0053(4) -0.1667(6)
O12 O -1.2068(7) 0.4250(5) -0.6399(6)
H16 H -1.2733 0.4451 -0.6601
C11 C -0.3052(9) 0.0421(5) -0.1074(6)
H17 H -0.3057 0.0886 -0.1126
O13 O -0.5650(8) -0.0067(4) -0.2915(6)
C12 C -0.4965(8) 0.0321(5) -0.2396(7)
O14 O -0.1432(8) 0.1151(4) 0.0278(6)
C13 C -0.6054(8) 0.1360(4) -0.3066(6)
O15 O 0.0466(9) 0.5997(4) 0.2360(7)
C14 C -0.6929(10) 0.1079(5) -0.3784(7)
H18 H -0.6929 0.0623 -0.3923
O16 O -0.4234(9) 0.4818(4) -0.0363(6)
C15 C -0.7809(10) 0.1518(5) -0.4284(7)
H19 H -0.8408 0.1356 -0.4777
C16 C -0.7789(9) 0.2185(5) -0.4048(7)
H20 H -0.8390 0.2465 -0.4390
C17 C -0.6093(8) 0.2050(4) -0.2878(6)
H21 H -0.5493 0.2231 -0.2401
C18 C -0.7868(11) 0.4937(5) -0.3130(8)
H22 H -0.8493 0.4760 -0.3590
C19 C -0.7861(12) 0.5618(5) -0.2979(9)
H23 H -0.8455 0.5895 -0.3336
C20 C -0.6952(12) 0.5879(5) -0.2287(9)
H24 H -0.6938 0.6335 -0.2145
C21 C -0.6055(10) 0.5449(5) -0.1804(7)
C22 C -0.6125(9) 0.4777(5) -0.1982(8)
H25 H -0.5540 0.4490 -0.1637
C23 C -0.4250(10) 0.5431(5) -0.0475(7)
C24 C -0.3338(9) 0.5859(5) 0.0144(7)
C25 C -0.3429(11) 0.6552(5) 0.0217(7)
H26 H -0.4086 0.6768 -0.0171
C26 C -0.1645(11) 0.6603(5) 0.1355(7)
H27 H -0.1052 0.6859 0.1747
C27 C -0.1469(10) 0.5921(5) 0.1359(7)
C28 C -0.2344(10) 0.5532(5) 0.0735(7)
H28 H -0.2264 0.5067 0.0716
C29 C -0.0377(10) 0.5633(5) 0.2013(7)
C30 C 0.0637(9) 0.4608(5) 0.2723(7)
C31 C 0.1445(10) 0.4880(5) 0.3502(8)
H29 H 0.1405 0.5333 0.3660
C32 C 0.2288(9) 0.4464(5) 0.4021(7)
H30 H 0.2847 0.4639 0.4529
C33 C 0.2338(9) 0.3785(5) 0.3813(6)
H31 H 0.2921 0.3514 0.4190
C34 C 0.0714(8) 0.3928(4) 0.2558(6)
H32 H 0.0152 0.3743 0.2059
C35 C 0.4504(9) 0.2348(5) 0.2919(8)
C36 C 0.5736(8) 0.2310(5) 0.3587(6)
C37 C 0.6960(7) 0.2411(4) 0.3204(6)
H33 H 0.7025 0.2537 0.2538
C38 C 0.8090(8) 0.2321(4) 0.3834(6)
C39 C 0.9394(7) 0.2401(4) 0.3395(6)
C40 C 0.7997(8) 0.2155(4) 0.4838(7)
H34 H 0.8754 0.2096 0.5250
C41 C 0.6784(10) 0.2078(5) 0.5223(7)
C42 C 0.5652(9) 0.2147(5) 0.4605(7)
H35 H 0.4835 0.2086 0.4866
C43 C -0.9909(7) 0.3495(5) -0.3256(7)
C44 C -1.1143(8) 0.3668(4) -0.3875(7)
C45 C -1.2366(8) 0.3581(4) -0.3453(7)
H36 H -1.2419 0.3426 -0.2799
C46 C -1.3515(8) 0.3737(4) -0.4061(6)
C47 C -1.4867(8) 0.3639(4) -0.3670(6)
C48 C -1.3431(8) 0.3959(5) -0.5046(6)
H37 H -1.4189 0.4050 -0.5444
C49 C -1.2197(8) 0.4045(5) -0.5431(7)
C50 C -1.1058(8) 0.3895(4) -0.4851(7)
H38 H -1.0242 0.3946 -0.5117
Ni1_2 Ni 1.15981(9) 0.24937(5) 0.27203(7)
Ni2_2 Ni -1.69993(9) 0.34766(5) -0.30026(7)
O5_2 O 0.0443(6) 0.2300(3) 0.3968(4)
O6_2 O -0.0491(5) 0.2527(3) 0.2499(4)
O10_2 O -0.5847(5) 0.3713(3) -0.4230(4)
O11_2 O -0.4928(5) 0.3474(3) -0.2741(4)
O17 O 0.1603(9) 0.7168(5) 0.2288(7)
H39 H 0.1917 0.7524 0.2050
H40 H 0.2239 0.6902 0.2432
O18 O 0.3721(11) 0.7039(6) 0.1116(9)
H41 H 0.4044 0.6731 0.0425
H42 H 0.3820 0.7574 0.1112
O19 O -1.0692(12) 0.3853(5) -0.0513(9)
H43 H -1.0809 0.4259 -0.0691
H44 H -1.1194 0.3772 -0.0043
O20 O -1.2489(14) 0.3932(6) -0.8650(10)
H45 H -1.2042 0.4188 -0.8252
H46 H -1.3293 0.4035 -0.8614
loop_
_geom_bond_atom_site_label_1
_geom_bond_atom_site_label_2
_geom_bond_site_symmetry_1
_geom_bond_site_symmetry_2
Ni1 O1 1_555 1_555
O1 C35 1_555 1_555
N1 Ni2 1_555 1_555
C1 H1 1_555 1_555
O2 Ni1 1_555 1_555
H2 O2 1_555 1_555
H3 O2 1_555 1_555
Ni2 O4 1_555 1_555
O3 C35 1_555 1_555
N2 H4 1_555 1_555
C2 H5 1_555 1_555
O4 H6 1_555 1_555
H7 O4 1_555 1_555
O5 C39 1_555 1_555
C3 C2 1_555 1_555
H8 C3 1_555 1_555
N3 C8 1_555 1_555
O6 C39 1_555 1_555
N4 H9 1_555 1_555
C4 C3 1_555 1_555
H10 C4 1_555 1_555
C5 C1 1_555 1_555
N5 Ni1 1_555 1_555
O7 H11 1_555 1_555
N6 Ni1 1_555 1_555
C6 N4 1_555 1_555
O8 Ni2 1_555 1_555
N7 H12 1_555 1_555
C7 C6 1_555 1_555
O9 C43 1_555 1_555
N8 C25 1_555 1_555
C8 C7 1_555 1_555
H13 C8 1_555 1_555
O10 C47 1_555 1_555
N9 H14 1_555 1_555
C9 N3 1_555 1_555
H15 C9 1_555 1_555
O11 C47 1_555 1_555
N10 Ni2 1_555 1_555
C10 C9 1_555 1_555
O12 H16 1_555 1_555
C11 C7 1_555 1_555
H17 C11 1_555 1_555
O13 C12 1_555 1_555
C12 N2 1_555 1_555
O14 C6 1_555 1_555
C13 N2 1_555 1_555
O15 C29 1_555 1_555
C14 C13 1_555 1_555
H18 C14 1_555 1_555
O16 C23 1_555 1_555
C15 C14 1_555 1_555
H19 C15 1_555 1_555
C16 N1 1_555 1_555
H20 C16 1_555 1_555
C17 N1 1_555 1_555
H21 C17 1_555 1_555
C18 N10 1_555 1_555
H22 C18 1_555 1_555
C19 C18 1_555 1_555
H23 C19 1_555 1_555
C20 C19 1_555 1_555
H24 C20 1_555 1_555
C21 N9 1_555 1_555
C22 N10 1_555 1_555
H25 C22 1_555 1_555
C23 N9 1_555 1_555
C24 C23 1_555 1_555
C25 C24 1_555 1_555
H26 C25 1_555 1_555
C26 N8 1_555 1_555
H27 C26 1_555 1_555
C27 C26 1_555 1_555
C28 C24 1_555 1_555
H28 C28 1_555 1_555
C29 N7 1_555 1_555
C30 N7 1_555 1_555
C31 C30 1_555 1_555
H29 C31 1_555 1_555
C32 C31 1_555 1_555
H30 C32 1_555 1_555
C33 N6 1_555 1_555
H31 C33 1_555 1_555
C34 N6 1_555 1_555
H32 C34 1_555 1_555
C35 C36 1_555 1_555
C36 C37 1_555 1_555
C37 H33 1_555 1_555
C38 C37 1_555 1_555
C39 C38 1_555 1_555
C40 C38 1_555 1_555
H34 C40 1_555 1_555
C41 O7 1_555 1_555
C42 C36 1_555 1_555
H35 C42 1_555 1_555
C43 O8 1_555 1_555
C44 C43 1_555 1_555
C45 C44 1_555 1_555
H36 C45 1_555 1_555
C46 C45 1_555 1_555
C47 C46 1_555 1_555
C48 C46 1_555 1_555
H37 C48 1_555 1_555
C49 O12 1_555 1_555
C50 C44 1_555 1_555
H38 C50 1_555 1_555
O17 H39 1_555 1_555
H40 O17 1_555 1_555
O18 H41 1_555 1_555
H42 O18 1_555 1_555
O19 H43 1_555 1_555
H44 O19 1_555 1_555
O20 H45 1_555 1_555
H46 O20 1_555 1_555
Ni1_2 O5 1_555 1_555
Ni2_2 O10 1_555 1_555
O5_2 Ni1 1_555 1_555
O6_2 Ni1 1_555 1_555
O10_2 Ni2 1_555 1_555
O11_2 Ni2 1_555 1_555
C1 N5 1_555 1_555
C2 N5 1_555 1_555
O6 Ni1_2 1_555 1_555
N4 C5 1_555 1_555
C4 C5 1_555 1_555
O11 Ni2_2 1_555 1_555
C10 C11 1_555 1_555
C10 C12 1_555 1_555
C13 C17 1_555 1_555
C15 C16 1_555 1_555
C20 C21 1_555 1_555
C21 C22 1_555 1_555
C27 C28 1_555 1_555
C27 C29 1_555 1_555
C30 C34 1_555 1_555
C32 C33 1_555 1_555
C40 C41 1_555 1_555
C41 C42 1_555 1_555
C48 C49 1_555 1_555
C49 C50 1_555 1_555

#END
