
#######################################################################
#
#                 Cambridge Crystallographic Data Centre
#                                CCDC 
#
#######################################################################
#
# If this CIF has been generated from an entry in the Cambridge 
# Structural Database, then it will include bibliographic, chemical, 
# crystal, experimental, refinement or atomic coordinate data resulting 
# from the CCDC's data processing and validation procedures.
#
#######################################################################

data_YOQRUT
_symmetry_cell_setting           triclinic
_symmetry_space_group_name_H-M   'P -1'
_symmetry_Int_Tables_number      2
_space_group_name_Hall           '-P 1'
loop_
_symmetry_equiv_pos_site_id
_symmetry_equiv_pos_as_xyz
1 x,y,z
2 -x,-y,-z
_cell_length_a                   10.4023(12)
_cell_length_b                   10.8234(11)
_cell_length_c                   14.9841(15)
_cell_angle_alpha                71.230(2)
_cell_angle_beta                 86.037(2)
_cell_angle_gamma                68.652(2)
_cell_volume                     1485.51
loop_
_atom_site_label
_atom_site_type_symbol
_atom_site_fract_x
_atom_site_fract_y
_atom_site_fract_z
Ni1 Ni 0.82111(4) 0.13874(4) 0.70680(3)
O1 O 0.7649(2) 0.1572(2) 0.83906(15)
N1 N 0.9437(3) -0.0769(3) 0.76360(19)
C1 C 0.6629(4) 0.1352(3) 0.8834(2)
O2 O 0.8634(2) 0.1244(2) 0.57063(15)
H1 H 0.8822 0.1713 0.5174
H2 H 0.8814 0.0416 0.5697
N2 N 1.2603(3) -0.3123(3) 0.70097(19)
H3 H 1.2846 -0.2466 0.6635
O3 O 0.5958(3) 0.0698(3) 0.86449(17)
C2 C 0.6125(4) 0.1986(3) 0.9611(2)
O4 O 0.6616(2) 0.0746(2) 0.69591(15)
H4 H 0.6462 0.0197 0.7469
H5 H 0.5841 0.1278 0.6666
O5 O 0.4556(3) 0.3961(3) 1.16244(17)
N3 N 1.6844(3) -0.6487(2) 0.64249(18)
C3 C 0.6823(4) 0.2663(4) 0.9917(2)
H6 H 0.7655 0.2694 0.9662
O6 O 0.0803(2) 0.1460(2) 1.46753(16)
N4 N 1.7715(3) -0.3527(3) 0.40802(18)
H7 H 1.8236 -0.4396 0.4293
C4 C 0.6292(4) 0.3287(4) 1.0596(2)
H8 H 0.6766 0.3741 1.0795
O7 O -0.0379(3) 0.3745(2) 1.43251(17)
N5 N 2.0012(3) -0.1797(3) 0.27336(18)
C5 C 0.5061(4) 0.3244(4) 1.0984(2)
C6 C 0.4366(4) 0.2557(4) 1.0699(3)
H9 H 0.3543 0.2510 1.0965
O8 O 1.3164(3) -0.5470(2) 0.7594(2)
C7 C 0.4904(4) 0.1938(4) 1.0014(2)
H10 H 0.4432 0.1478 0.9820
O9 O 1.5727(2) -0.1860(2) 0.42389(16)
C8 C 0.3581(4) 0.3617(4) 1.2240(2)
C9 C 0.3867(4) 0.2272(4) 1.2841(2)
H11 H 0.4693 0.1563 1.2814
C10 C 0.2912(4) 0.1988(4) 1.3485(2)
H12 H 0.3103 0.1081 1.3893
C11 C 0.1681(3) 0.3027(3) 1.3533(2)
C12 C 0.0621(4) 0.2742(3) 1.4217(2)
C13 C 0.1427(4) 0.4380(4) 1.2920(2)
H13 H 0.0602 0.5094 1.2943
C14 C 0.2372(4) 0.4683(4) 1.2279(2)
H14 H 0.2197 0.5592 1.1880
C15 C 1.0598(3) -0.1305(3) 0.7236(2)
H15 H 1.0897 -0.0694 0.6755
C16 C 0.9021(3) -0.1642(3) 0.8334(2)
H16 H 0.8211 -0.1281 0.8620
C17 C 0.9750(4) -0.3060(4) 0.8644(3)
H17 H 0.9441 -0.3641 0.9140
C18 C 1.0940(4) -0.3621(3) 0.8220(2)
H18 H 1.1431 -0.4581 0.8416
C19 C 1.1392(3) -0.2725(3) 0.7496(2)
C20 C 1.3414(3) -0.4458(3) 0.7086(2)
C21 C 1.4684(3) -0.4696(3) 0.6524(2)
C22 C 1.5649(3) -0.6037(3) 0.6825(2)
H19 H 1.5454 -0.6678 0.7347
C23 C 1.7087(3) -0.5552(3) 0.5663(2)
H20 H 1.7888 -0.5848 0.5350
C24 C 1.6201(3) -0.4159(3) 0.5313(2)
C25 C 1.4984(3) -0.3725(3) 0.5757(2)
H21 H 1.4377 -0.2800 0.5546
C26 C 1.6528(3) -0.3092(3) 0.4493(2)
C27 C 1.8167(3) -0.2630(3) 0.3307(2)
C28 C 1.9425(3) -0.2521(3) 0.3423(2)
H22 H 1.9890 -0.2975 0.4014
C29 C 1.9299(4) -0.1142(4) 0.1894(2)
H23 H 1.9693 -0.0653 0.1397
C30 C 1.8020(4) -0.1154(4) 0.1726(3)
H24 H 1.7557 -0.0658 0.1137
C31 C 1.7429(4) -0.1914(4) 0.2447(3)
H25 H 1.6566 -0.1941 0.2355
Ni1_2 Ni 1.82111(4) -0.86126(4) 0.70680(3)
Ni1A Ni 2.17889(4) -0.13874(4) 0.29320(3)
N3_2 N 0.6844(3) 0.3513(2) 0.64249(18)
N5A N 0.9988(3) 0.1797(3) 0.72664(18)
O10 O 0.3035(3) -0.0442(3) 1.58867(19)
H26 H 0.3406 -0.0843 1.5481
H27 H 0.3489 0.0051 1.5930
loop_
_geom_bond_atom_site_label_1
_geom_bond_atom_site_label_2
_geom_bond_site_symmetry_1
_geom_bond_site_symmetry_2
Ni1 O1 1_555 1_555
O1 C1 1_555 1_555
N1 Ni1 1_555 1_555
C1 O3 1_555 1_555
O2 Ni1 1_555 1_555
H1 O2 1_555 1_555
H2 O2 1_555 1_555
N2 H3 1_555 1_555
C2 C1 1_555 1_555
O4 Ni1 1_555 1_555
H4 O4 1_555 1_555
H5 O4 1_555 1_555
O5 C5 1_555 1_555
N3 C22 1_555 1_555
C3 C2 1_555 1_555
H6 C3 1_555 1_555
O6 C12 1_555 1_555
N4 H7 1_555 1_555
C4 C3 1_555 1_555
H8 C4 1_555 1_555
O7 C12 1_555 1_555
N5 C28 1_555 1_555
C5 C4 1_555 1_555
C6 C5 1_555 1_555
H9 C6 1_555 1_555
O8 C20 1_555 1_555
C7 C2 1_555 1_555
H10 C7 1_555 1_555
O9 C26 1_555 1_555
C8 O5 1_555 1_555
C9 C8 1_555 1_555
H11 C9 1_555 1_555
C10 C9 1_555 1_555
H12 C10 1_555 1_555
C11 C10 1_555 1_555
C12 C11 1_555 1_555
C13 C11 1_555 1_555
H13 C13 1_555 1_555
C14 C8 1_555 1_555
H14 C14 1_555 1_555
C15 N1 1_555 1_555
H15 C15 1_555 1_555
C16 N1 1_555 1_555
H16 C16 1_555 1_555
C17 C16 1_555 1_555
H17 C17 1_555 1_555
C18 C17 1_555 1_555
H18 C18 1_555 1_555
C19 N2 1_555 1_555
C20 N2 1_555 1_555
C21 C20 1_555 1_555
C22 C21 1_555 1_555
H19 C22 1_555 1_555
C23 N3 1_555 1_555
H20 C23 1_555 1_555
C24 C23 1_555 1_555
C25 C21 1_555 1_555
H21 C25 1_555 1_555
C26 N4 1_555 1_555
C27 N4 1_555 1_555
C28 C27 1_555 1_555
H22 C28 1_555 1_555
C29 N5 1_555 1_555
H23 C29 1_555 1_555
C30 C29 1_555 1_555
H24 C30 1_555 1_555
C31 C27 1_555 1_555
H25 C31 1_555 1_555
O10 H26 1_555 1_555
H27 O10 1_555 1_555
Ni1_2 N3 1_555 1_555
Ni1A N5 1_555 1_555
N3_2 Ni1 1_555 1_555
N5A Ni1 1_555 1_555
C6 C7 1_555 1_555
C13 C14 1_555 1_555
C15 C19 1_555 1_555
C18 C19 1_555 1_555
C24 C25 1_555 1_555
C24 C26 1_555 1_555
C30 C31 1_555 1_555

#END
