
#######################################################################
#
#                 Cambridge Crystallographic Data Centre
#                                CCDC 
#
#######################################################################
#
# If this CIF has been generated from an entry in the Cambridge 
# Structural Database, then it will include bibliographic, chemical, 
# crystal, experimental, refinement or atomic coordinate data resulting 
# from the CCDC's data processing and validation procedures.
#
#######################################################################

data_YOQRIH
_symmetry_cell_setting           monoclinic
_symmetry_space_group_name_H-M   'P 21/c'
_symmetry_Int_Tables_number      14
_space_group_name_Hall           '-P 2ybc'
loop_
_symmetry_equiv_pos_site_id
_symmetry_equiv_pos_as_xyz
1 x,y,z
2 -x,1/2+y,1/2-z
3 -x,-y,-z
4 x,1/2-y,1/2+z
_cell_length_a                   13.7310(9)
_cell_length_b                   20.0408(13)
_cell_length_c                   10.1781(7)
_cell_angle_alpha                90
_cell_angle_beta                 94.8020(10)
_cell_angle_gamma                90
_cell_volume                     2790.98
loop_
_atom_site_label
_atom_site_type_symbol
_atom_site_fract_x
_atom_site_fract_y
_atom_site_fract_z
Ni1 Ni 0.72582(5) 0.04873(3) 0.54864(6)
C1 C 0.7025(5) 0.0510(3) 0.2569(6)
O1 O 0.6628(3) 0.0549(2) 0.3625(4)
N1 N 0.7600(4) 0.1511(2) 0.5475(4)
O2 O 0.8638(3) 0.0271(2) 0.4921(4)
H1 H 0.8687 0.0160 0.4123
H2 H 0.9179 0.0443 0.5213
C2 C 0.6388(4) 0.0642(3) 0.1310(5)
N2 N 0.9200(4) 0.2705(2) 0.7412(5)
H3 H 0.9329 0.3121 0.7314
O3 O 0.7893(5) 0.0398(5) 0.2489(6)
O4 O 0.7494(3) 0.04914(18) -0.2422(4)
N3 N 1.0827(4) 0.3879(3) 1.0301(6)
C3 C 0.5418(5) 0.0830(3) 0.1356(5)
H4 H 0.5160 0.0867 0.2169
O5 O 0.6055(3) 0.0724(2) -0.3412(3)
N4 N 1.2285(4) 0.1948(2) 1.2393(5)
H5 H 1.1816 0.1733 1.1968
C4 C 0.4823(5) 0.0963(3) 0.0209(6)
N5 N 1.3133(4) 0.0514(2) 1.4368(5)
C5 C 0.3781(6) 0.1171(4) 0.0275(7)
H6 H 0.3480 0.1235 -0.0601
H7 H 0.3759 0.1581 0.0760
H8 H 0.3436 0.0831 0.0710
O6 O 0.9654(5) 0.1792(2) 0.8616(6)
C6 C 0.5222(5) 0.0898(3) -0.1002(5)
H9 H 0.4835 0.0980 -0.1779
O7 O 1.3051(6) 0.2948(3) 1.2581(8)
C7 C 0.6191(4) 0.0712(3) -0.1056(5)
C8 C 0.6602(4) 0.0640(3) -0.2366(5)
C9 C 0.6778(4) 0.0581(3) 0.0105(5)
H10 H 0.7426 0.0454 0.0067
C10 C 0.8299(4) 0.1755(3) 0.6345(5)
H11 H 0.8675 0.1456 0.6870
C11 C 0.7077(5) 0.1938(3) 0.4705(7)
H12 H 0.6597 0.1774 0.4089
C12 C 0.7229(7) 0.2619(4) 0.4796(9)
H13 H 0.6848 0.2907 0.4252
C13 C 0.7936(6) 0.2870(3) 0.5680(8)
H14 H 0.8047 0.3327 0.5736
C14 C 0.8486(5) 0.2432(3) 0.6496(6)
C15 C 0.9705(5) 0.2394(3) 0.8423(7)
C16 C 1.0339(4) 0.2822(3) 0.9339(6)
C17 C 1.0247(5) 0.3503(3) 0.9453(7)
H15 H 0.9760 0.3716 0.8918
C18 C 1.1471(5) 0.3570(3) 1.1100(7)
H16 H 1.1858 0.3826 1.1700
C19 C 1.1613(5) 0.2884(3) 1.1111(6)
C20 C 1.1047(5) 0.2509(3) 1.0188(6)
H17 H 1.1140 0.2050 1.0136
C21 C 1.2372(6) 0.2602(3) 1.2100(7)
C22 C 1.2883(4) 0.1585(3) 1.3318(5)
C23 C 1.3723(5) 0.1834(3) 1.4031(7)
H18 H 1.3930 0.2271 1.3919
C24 C 1.4233(5) 0.1407(4) 1.4910(7)
H19 H 1.4787 0.1560 1.5408
C25 C 1.3926(4) 0.0757(3) 1.5054(6)
H20 H 1.4284 0.0479 1.5646
C26 C 1.2623(4) 0.0920(3) 1.3509(5)
H21 H 1.2074 0.0751 1.3023
Ni1_2 Ni 0.72582(5) 0.04873(3) -0.45136(6)
Ni1B Ni 1.27418(5) -0.04873(3) 1.45136(6)
O4_2 O 0.7494(3) 0.04914(18) 0.7578(4)
O5_2 O 0.6055(3) 0.0724(2) 0.6588(3)
N5B N 0.6867(4) -0.0514(2) 0.5632(5)
O8 O 1.0279(7) 0.3835(4) 0.6374(8)
O9 O 0.8722(10) -0.0679(9) 0.085(2)
loop_
_geom_bond_atom_site_label_1
_geom_bond_atom_site_label_2
_geom_bond_site_symmetry_1
_geom_bond_site_symmetry_2
Ni1 O1 1_555 1_555
C1 O1 1_555 1_555
N1 Ni1 1_555 1_555
O2 Ni1 1_555 1_555
H1 O2 1_555 1_555
H2 O2 1_555 1_555
C2 C1 1_555 1_555
N2 H3 1_555 1_555
O3 C1 1_555 1_555
O4 C8 1_555 1_555
N3 C17 1_555 1_555
C3 C2 1_555 1_555
H4 C3 1_555 1_555
O5 C8 1_555 1_555
N4 H5 1_555 1_555
C4 C3 1_555 1_555
N5 C25 1_555 1_555
C5 C4 1_555 1_555
H6 C5 1_555 1_555
H7 C5 1_555 1_555
H8 C5 1_555 1_555
O6 C15 1_555 1_555
C6 C4 1_555 1_555
H9 C6 1_555 1_555
O7 C21 1_555 1_555
C7 C6 1_555 1_555
C8 C7 1_555 1_555
C9 C2 1_555 1_555
H10 C9 1_555 1_555
C10 N1 1_555 1_555
H11 C10 1_555 1_555
C11 N1 1_555 1_555
H12 C11 1_555 1_555
C12 C11 1_555 1_555
H13 C12 1_555 1_555
C13 C12 1_555 1_555
H14 C13 1_555 1_555
C14 N2 1_555 1_555
C15 N2 1_555 1_555
C16 C15 1_555 1_555
C17 C16 1_555 1_555
H15 C17 1_555 1_555
C18 N3 1_555 1_555
H16 C18 1_555 1_555
C19 C18 1_555 1_555
C20 C16 1_555 1_555
H17 C20 1_555 1_555
C21 N4 1_555 1_555
C22 N4 1_555 1_555
C23 C22 1_555 1_555
H18 C23 1_555 1_555
C24 C23 1_555 1_555
H19 C24 1_555 1_555
C25 C24 1_555 1_555
H20 C25 1_555 1_555
C26 N5 1_555 1_555
H21 C26 1_555 1_555
Ni1_2 O4 1_555 1_555
Ni1B N5 1_555 1_555
O4_2 Ni1 1_555 1_555
O5_2 Ni1 1_555 1_555
N5B Ni1 1_555 1_555
O5 Ni1_2 1_555 1_555
C7 C9 1_555 1_555
C10 C14 1_555 1_555
C13 C14 1_555 1_555
C19 C20 1_555 1_555
C19 C21 1_555 1_555
C22 C26 1_555 1_555

#END
