
#######################################################################
#
#                 Cambridge Crystallographic Data Centre
#                                CCDC 
#
#######################################################################
#
# If this CIF has been generated from an entry in the Cambridge 
# Structural Database, then it will include bibliographic, chemical, 
# crystal, experimental, refinement or atomic coordinate data resulting 
# from the CCDC's data processing and validation procedures.
#
#######################################################################

data_YOQTEF
_symmetry_cell_setting           orthorhombic
_symmetry_space_group_name_H-M   'P b c a'
_symmetry_Int_Tables_number      61
_space_group_name_Hall           '-P 2ac 2ab'
loop_
_symmetry_equiv_pos_site_id
_symmetry_equiv_pos_as_xyz
1 x,y,z
2 1/2-x,-y,1/2+z
3 -x,1/2+y,1/2-z
4 1/2+x,1/2-y,-z
5 -x,-y,-z
6 1/2+x,y,1/2-z
7 x,1/2-y,1/2+z
8 1/2-x,1/2+y,z
_cell_length_a                   15.0393(15)
_cell_length_b                   17.0865(17)
_cell_length_c                   19.2422(19)
_cell_angle_alpha                90
_cell_angle_beta                 90
_cell_angle_gamma                90
_cell_volume                     4944.65
loop_
_atom_site_label
_atom_site_type_symbol
_atom_site_fract_x
_atom_site_fract_y
_atom_site_fract_z
Cu1 Cu 0.39288(3) 0.25209(2) 0.649809(19)
O1 O 0.35850(15) 0.17596(14) 0.58012(11)
O2 O -0.07741(15) 0.17395(14) 0.42180(11)
O3 O 0.22772(15) 0.23724(13) 0.58057(12)
O4 O 0.05242(15) 0.23741(14) 0.42387(12)
N1 N 0.13253(17) 0.10286(16) 0.92649(14)
O5 O 0.04840(17) 0.08609(16) 0.82979(12)
N2 N 0.31914(18) 0.19986(17) 0.72351(14)
N3 N 0.15287(18) 0.09493(16) 1.07517(14)
N4 N -0.03108(18) 0.19278(17) 1.27936(13)
O6 O 0.23267(18) 0.06716(17) 1.17181(13)
C1 C 0.1710(2) 0.11322(19) 0.48027(16)
C2 C 0.1652(2) 0.09265(19) 1.14400(17)
C3 C 0.2568(2) 0.14213(19) 0.49212(16)
C4 C 0.1185(2) 0.1067(2) 0.85792(17)
C5 C 0.0164(2) 0.15057(19) 0.51711(16)
C6 C 0.1927(2) 0.1386(2) 0.81322(17)
C7 C 0.2262(2) 0.0758(2) 1.02786(16)
H1 H 0.2257 0.0190 1.0176
H2 H 0.2836 0.0888 1.0502
C8 C 0.0418(2) 0.0818(2) 0.64661(18)
H3 H 0.0507 0.0583 0.6908
C9 C 0.0922(2) 0.1268(2) 1.18893(16)
C10 C 0.0703(2) 0.1213(2) 1.04191(17)
H4 H 0.0720 0.1788 1.0356
H5 H 0.0190 0.1085 1.0721
C11 C 0.2800(2) 0.18940(19) 0.55630(16)
C12 C 0.0806(2) 0.2073(2) 1.19244(18)
H6 H 0.1145 0.2410 1.1634
C13 C 0.2830(2) 0.2440(2) 0.77380(17)
H7 H 0.3012 0.2971 0.7777
C14 C 0.2165(2) 0.1216(2) 0.96088(17)
H8 H 0.2187 0.1784 0.9711
H9 H 0.2666 0.1090 0.9295
C15 C 0.0196(2) 0.2378(2) 1.23841(17)
H10 H 0.0132 0.2930 1.2412
C16 C 0.0590(2) 0.0820(2) 0.97222(17)
H11 H 0.0573 0.0245 0.9785
H12 H 0.0021 0.0986 0.9510
C17 C -0.0520(2) 0.1494(2) 0.56592(18)
H13 H -0.1078 0.1722 0.5549
C18 C 0.1538(2) 0.0744(2) 0.41793(17)
H14 H 0.0960 0.0542 0.4095
C19 C -0.0010(2) 0.19086(19) 0.44852(17)
C20 C 0.1099(2) 0.0822(2) 0.59809(18)
H15 H 0.1652 0.0583 0.6090
C21 C 0.0981(2) 0.11740(19) 0.53327(17)
C22 C 0.3042(2) 0.0921(2) 0.38119(18)
H16 H 0.3499 0.0847 0.3478
C23 C 0.2282(2) 0.09366(19) 0.76059(16)
H17 H 0.2089 0.0412 0.7541
C24 C -0.0206(2) 0.1151(2) 1.27567(18)
H18 H -0.0562 0.0828 1.3046
C25 C 0.3226(2) 0.1302(2) 0.44250(17)
H19 H 0.3812 0.1487 0.4511
C26 C 0.2193(2) 0.0647(2) 0.36801(18)
H20 H 0.2060 0.0395 0.3253
C27 C -0.0391(2) 0.1155(2) 0.63043(18)
H21 H -0.0859 0.1154 0.6636
C28 C 0.2208(2) 0.2160(2) 0.82002(17)
H22 H 0.1975 0.2486 0.8556
C29 C 0.2922(2) 0.1256(2) 0.71731(16)
H23 H 0.3177 0.0937 0.6821
C30 C 0.0401(2) 0.0800(2) 1.23130(18)
H24 H 0.0459 0.0247 1.2300
Cu1C Cu -0.10712(3) 0.24791(2) 0.350191(19)
Cu1C_2 Cu -0.10712(3) 0.24791(2) 1.350191(19)
O2C O 0.42259(15) 0.32605(14) 0.57820(11)
O4C O 0.55242(15) 0.26259(14) 0.57613(12)
N4C N 0.46892(18) 0.30722(17) 0.72064(13)
loop_
_geom_bond_atom_site_label_1
_geom_bond_atom_site_label_2
_geom_bond_site_symmetry_1
_geom_bond_site_symmetry_2
Cu1 O1 1_555 1_555
O1 C11 1_555 1_555
O2 C19 1_555 1_555
O3 C11 1_555 1_555
O4 C19 1_555 1_555
N1 C4 1_555 1_555
O5 C4 1_555 1_555
N2 Cu1 1_555 1_555
N3 C2 1_555 1_555
N4 C15 1_555 1_555
O6 C2 1_555 1_555
C1 C3 1_555 1_555
C2 C9 1_555 1_555
C3 C11 1_555 1_555
C4 C6 1_555 1_555
C5 C17 1_555 1_555
C6 C23 1_555 1_555
C7 N3 1_555 1_555
H1 C7 1_555 1_555
H2 C7 1_555 1_555
C8 H3 1_555 1_555
C9 C12 1_555 1_555
C10 N3 1_555 1_555
H4 C10 1_555 1_555
H5 C10 1_555 1_555
C12 H6 1_555 1_555
C13 N2 1_555 1_555
H7 C13 1_555 1_555
C14 N1 1_555 1_555
H8 C14 1_555 1_555
H9 C14 1_555 1_555
C15 C12 1_555 1_555
H10 C15 1_555 1_555
C16 N1 1_555 1_555
H11 C16 1_555 1_555
H12 C16 1_555 1_555
C17 H13 1_555 1_555
C18 C1 1_555 1_555
H14 C18 1_555 1_555
C19 C5 1_555 1_555
C20 C8 1_555 1_555
H15 C20 1_555 1_555
C21 C1 1_555 1_555
C22 H16 1_555 1_555
C23 H17 1_555 1_555
C24 N4 1_555 1_555
H18 C24 1_555 1_555
C25 C3 1_555 1_555
H19 C25 1_555 1_555
C26 C18 1_555 1_555
H20 C26 1_555 1_555
C27 C8 1_555 1_555
H21 C27 1_555 1_555
C28 C6 1_555 1_555
H22 C28 1_555 1_555
C29 N2 1_555 1_555
H23 C29 1_555 1_555
C30 C9 1_555 1_555
H24 C30 1_555 1_555
Cu1C O2 1_555 1_555
Cu1C_2 N4 1_555 1_555
O2C Cu1 1_555 1_555
O4C Cu1 1_555 1_555
N4C Cu1 1_555 1_555
O4 Cu1C 1_555 1_555
C5 C21 1_555 1_555
C7 C14 1_555 1_555
C10 C16 1_555 1_555
C13 C28 1_555 1_555
C17 C27 1_555 1_555
C20 C21 1_555 1_555
C22 C25 1_555 1_555
C22 C26 1_555 1_555
C23 C29 1_555 1_555
C24 C30 1_555 1_555

#END
