
#######################################################################
#
#                 Cambridge Crystallographic Data Centre
#                                CCDC 
#
#######################################################################
#
# If this CIF has been generated from an entry in the Cambridge 
# Structural Database, then it will include bibliographic, chemical, 
# crystal, experimental, refinement or atomic coordinate data resulting 
# from the CCDC's data processing and validation procedures.
#
#######################################################################

data_YOQXOT
_symmetry_cell_setting           monoclinic
_symmetry_space_group_name_H-M   'P 21/n'
_symmetry_Int_Tables_number      14
_space_group_name_Hall           '-P 2yn'
loop_
_symmetry_equiv_pos_site_id
_symmetry_equiv_pos_as_xyz
1 x,y,z
2 1/2-x,1/2+y,1/2-z
3 -x,-y,-z
4 1/2+x,1/2-y,1/2+z
_cell_length_a                   10.289(2)
_cell_length_b                   13.785(3)
_cell_length_c                   11.148(2)
_cell_angle_alpha                90
_cell_angle_beta                 95.81(3)
_cell_angle_gamma                90
_cell_volume                     1573.04
loop_
_atom_site_label
_atom_site_type_symbol
_atom_site_fract_x
_atom_site_fract_y
_atom_site_fract_z
Cu1 Cu 0.16339(5) 0.15298(4) -0.06151(6)
Cu2 Cu 0.08173(5) -0.06377(4) 0.05202(5)
I1 I 0.08239(3) 0.118702(18) 0.15412(3)
I2 I -0.03901(3) 0.172917(19) -0.23061(3)
S1 S 0.44797(10) -0.08581(7) -0.14880(10)
S2 S 0.45055(10) 0.13578(7) -0.19461(10)
N1 N 0.2811(3) 0.0348(2) -0.0808(3)
N2 N 0.2474(3) -0.0555(2) -0.0370(3)
N3 N 0.2516(3) 0.2804(3) -0.0636(4)
C1 C 0.3059(4) -0.2280(3) -0.0341(4)
H1 H 0.2524 -0.2323 0.0336
H2 H 0.3912 -0.2579 -0.0113
H3 H 0.2619 -0.2622 -0.1039
C2 C 0.3241(4) -0.1246(3) -0.0655(4)
C3 C 0.3853(3) 0.0303(3) -0.1390(3)
C4 C 0.5879(4) 0.0903(3) -0.2705(4)
H4 H 0.6475 0.1448 -0.2838
H5 H 0.6373 0.0424 -0.2178
C5 C 0.5440(3) 0.0435(2) -0.3899(3)
C6 C 0.4768(4) 0.0969(3) -0.4820(4)
H6 H 0.4609 0.1639 -0.4699
C7 C 0.5669(4) -0.0549(3) -0.4100(4)
H7 H 0.6131 -0.0927 -0.3485
C8 C 0.2884(4) 0.3573(3) -0.0695(4)
C9 C 0.3352(5) 0.4573(3) -0.0766(6)
H8 H 0.2604 0.5011 -0.0924
H9 H 0.3916 0.4626 -0.1420
H10 H 0.3848 0.4751 0.0000
S1B S 0.55203(10) 0.08581(7) -0.85120(10)
S2B S 0.54945(10) -0.13578(7) -0.80539(10)
N1B N 0.7189(3) -0.0348(2) -0.9192(3)
N2B N 0.7526(3) 0.0555(2) -0.9630(3)
C1B C 0.6941(4) 0.2280(3) -0.9659(4)
H1B H 0.7476 0.2323 -1.0336
H2B H 0.6088 0.2579 -0.9887
H3B H 0.7381 0.2622 -0.8961
C2B C 0.6759(4) 0.1246(3) -0.9345(4)
C3B C 0.6147(3) -0.0303(3) -0.8610(3)
C4B C 0.4121(4) -0.0903(3) -0.7295(4)
H4B H 0.3525 -0.1448 -0.7162
H5B H 0.3627 -0.0424 -0.7822
C5B C 0.4560(3) -0.0435(2) -0.6101(3)
C6B C 0.5232(4) -0.0969(3) -0.5180(4)
H6B H 0.5391 -0.1639 -0.5301
C7B C 0.4331(4) 0.0549(3) -0.5900(4)
H7B H 0.3869 0.0927 -0.6515
Cu1B Cu -0.16339(5) -0.15298(4) 0.06151(6)
Cu2B Cu -0.08173(5) 0.06377(4) -0.05202(5)
I1B I -0.08239(3) -0.118702(18) -0.15412(3)
I2B I 0.03901(3) -0.172917(19) 0.23061(3)
N3B N -0.2516(3) -0.2804(3) 0.0636(4)
C8B C -0.2884(4) -0.3573(3) 0.0695(4)
C9B C -0.3352(5) -0.4573(3) 0.0766(6)
H8B H -0.2604 -0.5011 0.0924
H9B H -0.3916 -0.4626 0.1420
H10B H -0.3848 -0.4751 0.0000
Cu1B_2 Cu 0.83661(5) -0.15298(4) -0.93849(6)
Cu2B_2 Cu 0.91827(5) 0.06377(4) -1.05202(5)
N1B_2 N -0.2811(3) -0.0348(2) 0.0808(3)
N2B_2 N -0.2474(3) 0.0555(2) 0.0370(3)
loop_
_geom_bond_atom_site_label_1
_geom_bond_atom_site_label_2
_geom_bond_site_symmetry_1
_geom_bond_site_symmetry_2
Cu1 I1 1_555 1_555
Cu2 I1 1_555 1_555
I1 Cu2B 1_555 1_555
I2 Cu1 1_555 1_555
S1 C2 1_555 1_555
S2 C3 1_555 1_555
N1 Cu1 1_555 1_555
N2 Cu2 1_555 1_555
N3 Cu1 1_555 1_555
C1 H1 1_555 1_555
H2 C1 1_555 1_555
H3 C1 1_555 1_555
C2 N2 1_555 1_555
C3 S1 1_555 1_555
C4 S2 1_555 1_555
H4 C4 1_555 1_555
H5 C4 1_555 1_555
C5 C4 1_555 1_555
C6 C5 1_555 1_555
H6 C6 1_555 1_555
C7 C5 1_555 1_555
H7 C7 1_555 1_555
C8 N3 1_555 1_555
C9 C8 1_555 1_555
H8 C9 1_555 1_555
H9 C9 1_555 1_555
H10 C9 1_555 1_555
S1B C2B 1_555 1_555
S2B C3B 1_555 1_555
N1B N2B 1_555 1_555
N2B C2B 1_555 1_555
C1B H1B 1_555 1_555
H2B C1B 1_555 1_555
H3B C1B 1_555 1_555
C2B C1B 1_555 1_555
C3B S1B 1_555 1_555
C4B S2B 1_555 1_555
H4B C4B 1_555 1_555
H5B C4B 1_555 1_555
C5B C4B 1_555 1_555
C6B C7 1_555 1_555
H6B C6B 1_555 1_555
C7B C6 1_555 1_555
H7B C7B 1_555 1_555
Cu1B I1B 1_555 1_555
Cu2B I2 1_555 1_555
I1B Cu2 1_555 1_555
I2B Cu2 1_555 1_555
N3B Cu1B 1_555 1_555
C8B N3B 1_555 1_555
C9B C8B 1_555 1_555
H8B C9B 1_555 1_555
H9B C9B 1_555 1_555
H10B C9B 1_555 1_555
Cu1B_2 N1B 1_555 1_555
Cu2B_2 N2B 1_555 1_555
N1B_2 Cu1B 1_555 1_555
N2B_2 Cu2B 1_555 1_555
N1 N2 1_555 1_555
N1 C3 1_555 1_555
C1 C2 1_555 1_555
N1B C3B 1_555 1_555
C5B C6B 1_555 1_555
C5B C7B 1_555 1_555
Cu1B I2B 1_555 1_555
Cu2B I1B 1_555 1_555
N1B_2 N2B_2 1_555 1_555

#END
