
#######################################################################
#
#                 Cambridge Crystallographic Data Centre
#                                CCDC 
#
#######################################################################
#
# If this CIF has been generated from an entry in the Cambridge 
# Structural Database, then it will include bibliographic, chemical, 
# crystal, experimental, refinement or atomic coordinate data resulting 
# from the CCDC's data processing and validation procedures.
#
#######################################################################

data_YOQXUZ
_symmetry_cell_setting           monoclinic
_symmetry_space_group_name_H-M   'P 21/c'
_symmetry_Int_Tables_number      14
_space_group_name_Hall           '-P 2ybc'
loop_
_symmetry_equiv_pos_site_id
_symmetry_equiv_pos_as_xyz
1 x,y,z
2 -x,1/2+y,1/2-z
3 -x,-y,-z
4 x,1/2-y,1/2+z
_cell_length_a                   13.181(3)
_cell_length_b                   8.3781(17)
_cell_length_c                   18.601(6)
_cell_angle_alpha                90
_cell_angle_beta                 134.429(18)
_cell_angle_gamma                90
_cell_volume                     1466.9
loop_
_atom_site_label
_atom_site_type_symbol
_atom_site_fract_x
_atom_site_fract_y
_atom_site_fract_z
Cu1 Cu 0.20081(3) -0.10910(3) 0.23482(2)
Cu2 Cu 0.0000 0.0000 0.0000
Cl1 Cl 0.22401(9) -0.24306(9) 0.14030(6)
Cl2 Cl 0.23203(7) 0.00996(8) 0.35749(5)
Cl3 Cl -0.06008(6) -0.00261(8) 0.08629(4)
S1 S 0.52547(6) 0.09641(7) 0.39412(4)
S2 S 0.38649(7) 0.33206(8) 0.21955(5)
N1 N 0.2651(2) 0.0860(2) 0.20968(14)
N2 N 0.1731(2) 0.1470(2) 0.11268(14)
N3 N 0.1488(3) -0.3162(3) 0.25414(18)
C1 C 0.3846(2) 0.1657(3) 0.27307(17)
C2 C 0.2206(3) 0.2774(3) 0.10657(18)
C3 C 0.1445(3) 0.3738(3) 0.01347(19)
H1 H 0.1860 0.3531 -0.0133
H2 H 0.1537 0.4875 0.0295
H3 H 0.0438 0.3441 -0.0369
C4 C 0.6252(2) 0.2794(3) 0.45929(18)
H4 H 0.7208 0.2510 0.5248
H5 H 0.6377 0.3355 0.4191
C5 C 0.5564(2) 0.3921(3) 0.47782(17)
C6 C 0.5520(3) 0.5548(3) 0.4610(2)
H6 H 0.5870 0.5933 0.4337
C7 C 0.5027(3) 0.3388(3) 0.5167(2)
H7 H 0.5036 0.2279 0.5279
C8 C 0.1310(3) -0.4471(3) 0.2564(2)
C9 C 0.1111(4) -0.6159(3) 0.2580(3)
H8 H 0.0713 -0.6644 0.1948
H9 H 0.0457 -0.6323 0.2659
H10 H 0.2028 -0.6656 0.3145
S1B S 0.47453(6) 0.90359(7) 0.60588(4)
S2B S 0.61351(7) 0.66794(8) 0.78045(5)
N1B N 0.7349(2) 0.9140(2) 0.79032(14)
N2B N 0.8269(2) 0.8530(2) 0.88732(14)
C1B C 0.6154(2) 0.8343(3) 0.72693(17)
C2B C 0.7794(3) 0.7226(3) 0.89343(18)
C3B C 0.8555(3) 0.6262(3) 0.98653(19)
H1B H 0.8140 0.6469 1.0133
H2B H 0.8463 0.5125 0.9705
H3B H 0.9562 0.6559 1.0369
C4B C 0.3748(2) 0.7206(3) 0.54071(18)
H4B H 0.2792 0.7490 0.4752
H5B H 0.3623 0.6645 0.5809
C5B C 0.4436(2) 0.6079(3) 0.52218(17)
C6B C 0.4480(3) 0.4452(3) 0.5390(2)
H6B H 0.4130 0.4067 0.5663
C7B C 0.4973(3) 0.6612(3) 0.4833(2)
H7B H 0.4964 0.7721 0.4721
Cu1B Cu -0.20081(3) 0.10910(3) -0.23482(2)
Cl1B Cl -0.22401(9) 0.24306(9) -0.14030(6)
Cl2B Cl -0.23203(7) -0.00996(8) -0.35749(5)
Cl3B Cl 0.06008(6) 0.00261(8) -0.08629(4)
N3B N -0.1488(3) 0.3162(3) -0.25414(18)
C8B C -0.1310(3) 0.4471(3) -0.2564(2)
C9B C -0.1111(4) 0.6159(3) -0.2580(3)
H8B H -0.0713 0.6644 -0.1948
H9B H -0.0457 0.6323 -0.2659
H10B H -0.2028 0.6656 -0.3145
Cu1B_2 Cu 0.79919(3) 1.10910(3) 0.76518(2)
Cu2_2 Cu 1.0000 1.0000 1.0000
N1B_2 N -0.2651(2) -0.0860(2) -0.20968(14)
N2B_2 N -0.1731(2) -0.1470(2) -0.11268(14)
loop_
_geom_bond_atom_site_label_1
_geom_bond_atom_site_label_2
_geom_bond_site_symmetry_1
_geom_bond_site_symmetry_2
Cu1 Cl1 1_555 1_555
Cu2 Cl3 1_555 1_555
Cl2 Cu1 1_555 1_555
Cl3 Cu1 1_555 1_555
S1 C1 1_555 1_555
S2 C1 1_555 1_555
N1 Cu1 1_555 1_555
N2 Cu2 1_555 1_555
N3 Cu1 1_555 1_555
C1 N1 1_555 1_555
C2 S2 1_555 1_555
C3 C2 1_555 1_555
H1 C3 1_555 1_555
H2 C3 1_555 1_555
H3 C3 1_555 1_555
C4 S1 1_555 1_555
H4 C4 1_555 1_555
H5 C4 1_555 1_555
C5 C4 1_555 1_555
C6 C5 1_555 1_555
H6 C6 1_555 1_555
C7 C5 1_555 1_555
H7 C7 1_555 1_555
C8 N3 1_555 1_555
C9 C8 1_555 1_555
H8 C9 1_555 1_555
H9 C9 1_555 1_555
H10 C9 1_555 1_555
S1B C1B 1_555 1_555
S2B C1B 1_555 1_555
N1B N2B 1_555 1_555
N2B C2B 1_555 1_555
C1B N1B 1_555 1_555
C2B S2B 1_555 1_555
C3B C2B 1_555 1_555
H1B C3B 1_555 1_555
H2B C3B 1_555 1_555
H3B C3B 1_555 1_555
C4B S1B 1_555 1_555
H4B C4B 1_555 1_555
H5B C4B 1_555 1_555
C5B C4B 1_555 1_555
C6B C7 1_555 1_555
H6B C6B 1_555 1_555
C7B C6 1_555 1_555
H7B C7B 1_555 1_555
Cu1B Cl1B 1_555 1_555
Cl2B Cu1B 1_555 1_555
Cl3B Cu2 1_555 1_555
N3B Cu1B 1_555 1_555
C8B N3B 1_555 1_555
C9B C8B 1_555 1_555
H8B C9B 1_555 1_555
H9B C9B 1_555 1_555
H10B C9B 1_555 1_555
Cu1B_2 N1B 1_555 1_555
Cu2_2 N2B 1_555 1_555
N1B_2 Cu1B 1_555 1_555
N2B_2 Cu2 1_555 1_555
N1 N2 1_555 1_555
N2 C2 1_555 1_555
C5B C6B 1_555 1_555
C5B C7B 1_555 1_555
Cu1B Cl3B 1_555 1_555
N1B_2 N2B_2 1_555 1_555

#END
