
#######################################################################
#
#                 Cambridge Crystallographic Data Centre
#                                CCDC 
#
#######################################################################
#
# If this CIF has been generated from an entry in the Cambridge 
# Structural Database, then it will include bibliographic, chemical, 
# crystal, experimental, refinement or atomic coordinate data resulting 
# from the CCDC's data processing and validation procedures.
#
#######################################################################

data_YOQYOU
_symmetry_cell_setting           triclinic
_symmetry_space_group_name_H-M   'P -1'
_symmetry_Int_Tables_number      2
_space_group_name_Hall           '-P 1'
loop_
_symmetry_equiv_pos_site_id
_symmetry_equiv_pos_as_xyz
1 x,y,z
2 -x,-y,-z
_cell_length_a                   11.8635(9)
_cell_length_b                   15.2845(12)
_cell_length_c                   16.3556(13)
_cell_angle_alpha                64.5650(10)
_cell_angle_beta                 73.665(2)
_cell_angle_gamma                73.799(2)
_cell_volume                     2526.96
loop_
_atom_site_label
_atom_site_type_symbol
_atom_site_fract_x
_atom_site_fract_y
_atom_site_fract_z
Ru1 Ru 0.19680(7) 0.67139(6) 0.21550(6)
N1 N 0.2814(8) 0.7852(6) 0.1217(6)
N2 N 0.3515(8) 0.5958(7) 0.1640(7)
N3 N 0.2713(8) 0.6539(6) 0.3235(5)
N4 N 0.1333(7) 0.5477(6) 0.3176(6)
N5 N 0.1032(8) 0.6773(6) 0.1230(6)
N6 N 0.0381(8) 0.7597(7) 0.2460(6)
C1 C 0.2467(13) 0.8810(9) 0.1009(10)
H1 H 0.1729 0.9020 0.1322
C2 C 0.3128(15) 0.9551(11) 0.0344(9)
H2 H 0.2854 1.0219 0.0225
C3 C 0.4212(15) 0.9192(11) -0.0107(9)
H3 H 0.4678 0.9643 -0.0550
C4 C 0.4643(12) 0.8206(9) 0.0061(7)
C5 C 0.5729(13) 0.7808(13) -0.0388(9)
H4 H 0.6217 0.8233 -0.0847
C6 C 0.6079(12) 0.6838(15) -0.0175(9)
H5 H 0.6794 0.6609 -0.0499
C7 C 0.5376(11) 0.6128(10) 0.0550(8)
C8 C 0.5661(11) 0.5115(12) 0.0790(10)
H6 H 0.6353 0.4834 0.0484
C9 C 0.4924(12) 0.4545(11) 0.1471(10)
H7 H 0.5135 0.3864 0.1658
C10 C 0.3839(11) 0.4959(8) 0.1908(8)
H8 H 0.3343 0.4552 0.2379
C11 C 0.4271(10) 0.6534(8) 0.0982(7)
C12 C 0.3897(10) 0.7529(9) 0.0761(8)
C13 C 0.3398(11) 0.7093(8) 0.3260(8)
H9 H 0.3550 0.7657 0.2744
C14 C 0.3868(13) 0.6869(9) 0.3992(9)
H10 H 0.4337 0.7275 0.3975
C15 C 0.3657(13) 0.6009(10) 0.4802(8)
H11 H 0.3988 0.5856 0.5310
C16 C 0.2956(11) 0.5405(9) 0.4826(8)
C17 C 0.2677(13) 0.4563(10) 0.5558(10)
H12 H 0.2979 0.4359 0.6091
C18 C 0.1984(13) 0.4030(11) 0.5523(10)
H13 H 0.1811 0.3468 0.6035
C19 C 0.1489(11) 0.4302(9) 0.4706(8)
C20 C 0.0724(13) 0.3785(10) 0.4637(10)
H14 H 0.0518 0.3215 0.5123
C21 C 0.0296(12) 0.4138(9) 0.3845(9)
H15 H -0.0208 0.3809 0.3784
C22 C 0.0597(9) 0.4953(8) 0.3158(8)
H16 H 0.0280 0.5180 0.2628
C23 C 0.1758(9) 0.5136(7) 0.3975(7)
C24 C 0.2500(9) 0.5700(7) 0.4031(7)
C25 C 0.1386(14) 0.6395(10) 0.0604(8)
H17 H 0.2187 0.6115 0.0481
C26 C 0.0575(14) 0.6398(12) 0.0100(9)
H18 H 0.0865 0.6136 -0.0354
C27 C -0.0584(13) 0.6767(11) 0.0264(9)
H19 H -0.1114 0.6747 -0.0050
C28 C -0.0979(11) 0.7195(9) 0.0945(8)
C29 C -0.2201(14) 0.7676(13) 0.1175(12)
H20 H -0.2783 0.7676 0.0895
C30 C -0.2516(13) 0.8125(11) 0.1784(11)
H21 H -0.3310 0.8408 0.1929
C31 C -0.1657(10) 0.8164(9) 0.2195(8)
C32 C -0.1889(12) 0.8672(9) 0.2778(11)
H22 H -0.2640 0.9047 0.2882
C33 C -0.1017(12) 0.8614(9) 0.3191(9)
H23 H -0.1174 0.8915 0.3609
C34 C 0.0114(12) 0.8101(9) 0.2982(9)
H24 H 0.0721 0.8117 0.3229
C35 C -0.0486(10) 0.7647(7) 0.2034(7)
C36 C -0.0164(10) 0.7205(8) 0.1383(8)
Pb1 Pb 0.78473(4) 0.21695(4) 0.31574(3)
Pb2 Pb 0.83828(3) -0.05425(3) 0.62606(3)
Pb3 Pb 0.47946(4) 0.12056(3) 0.34489(3)
I1 I 0.82537(12) 0.42459(8) 0.22225(7)
I2 I 0.91995(6) 0.15973(5) 0.48978(5)
I3 I 1.03594(9) 0.10410(8) 0.21652(7)
I4 I 0.58913(7) 0.03517(6) 0.72154(6)
I5 I 0.75024(7) -0.25861(6) 0.72783(6)
I6 I 0.51001(8) 0.28102(7) 0.40313(7)
I7 I 0.68230(7) 0.19186(6) 0.16695(5)
I8 I 0.69206(7) -0.01519(6) 0.46283(6)
Pb2A Pb 1.16172(3) 0.05425(3) 0.37394(3)
Pb3A Pb 0.52054(4) -0.12056(3) 0.65511(3)
I2A I 1.08005(6) -0.15973(5) 0.51022(5)
I3A I 0.96406(9) -0.10410(8) 0.78348(7)
I4A I 0.41087(7) -0.03517(6) 0.27846(6)
I5A I 0.24976(7) 0.25861(6) 0.27217(6)
I8A I 0.30794(7) 0.01519(6) 0.53717(6)
loop_
_geom_bond_atom_site_label_1
_geom_bond_atom_site_label_2
_geom_bond_site_symmetry_1
_geom_bond_site_symmetry_2
Ru1 N1 1_555 1_555
N1 C1 1_555 1_555
N2 Ru1 1_555 1_555
N3 Ru1 1_555 1_555
N4 Ru1 1_555 1_555
N5 Ru1 1_555 1_555
N6 Ru1 1_555 1_555
C1 H1 1_555 1_555
C2 C1 1_555 1_555
H2 C2 1_555 1_555
C3 C2 1_555 1_555
H3 C3 1_555 1_555
C4 C3 1_555 1_555
C5 C4 1_555 1_555
H4 C5 1_555 1_555
C6 C5 1_555 1_555
H5 C6 1_555 1_555
C7 C6 1_555 1_555
C8 C7 1_555 1_555
H6 C8 1_555 1_555
C9 C8 1_555 1_555
H7 C9 1_555 1_555
C10 N2 1_555 1_555
H8 C10 1_555 1_555
C11 N2 1_555 1_555
C12 N1 1_555 1_555
C13 N3 1_555 1_555
H9 C13 1_555 1_555
C14 C13 1_555 1_555
H10 C14 1_555 1_555
C15 C14 1_555 1_555
H11 C15 1_555 1_555
C16 C15 1_555 1_555
C17 C16 1_555 1_555
H12 C17 1_555 1_555
C18 C17 1_555 1_555
H13 C18 1_555 1_555
C19 C18 1_555 1_555
C20 C19 1_555 1_555
H14 C20 1_555 1_555
C21 C20 1_555 1_555
H15 C21 1_555 1_555
C22 N4 1_555 1_555
H16 C22 1_555 1_555
C23 N4 1_555 1_555
C24 N3 1_555 1_555
C25 N5 1_555 1_555
H17 C25 1_555 1_555
C26 C25 1_555 1_555
H18 C26 1_555 1_555
C27 C26 1_555 1_555
H19 C27 1_555 1_555
C28 C27 1_555 1_555
C29 C28 1_555 1_555
H20 C29 1_555 1_555
C30 C29 1_555 1_555
H21 C30 1_555 1_555
C31 C30 1_555 1_555
C32 C31 1_555 1_555
H22 C32 1_555 1_555
C33 C32 1_555 1_555
H23 C33 1_555 1_555
C34 N6 1_555 1_555
H24 C34 1_555 1_555
C35 N6 1_555 1_555
C36 N5 1_555 1_555
Pb1 I1 1_555 1_555
Pb2 I2 1_555 1_555
Pb3 I6 1_555 1_555
I2 Pb1 1_555 1_555
I3 Pb1 1_555 1_555
I4 Pb2 1_555 1_555
I5 Pb2 1_555 1_555
I6 Pb1 1_555 1_555
I7 Pb1 1_555 1_555
I8 Pb2 1_555 1_555
Pb2A I2 1_555 1_555
Pb3A I4 1_555 1_555
I2A Pb2 1_555 1_555
I3A Pb2 1_555 1_555
I4A Pb3 1_555 1_555
I5A Pb3 1_555 1_555
I8A Pb3 1_555 1_555
C4 C12 1_555 1_555
C7 C11 1_555 1_555
C9 C10 1_555 1_555
C11 C12 1_555 1_555
C16 C24 1_555 1_555
C19 C23 1_555 1_555
C21 C22 1_555 1_555
C23 C24 1_555 1_555
C28 C36 1_555 1_555
C31 C35 1_555 1_555
C33 C34 1_555 1_555
C35 C36 1_555 1_555
Pb3 I7 1_555 1_555
Pb3 I8 1_555 1_555
I3 Pb2A 1_555 1_555
I5 Pb3A 1_555 1_555
I8 Pb3A 1_555 1_555
Pb2A I2A 1_555 1_555
Pb3A I8A 1_555 1_555

#END
