
#######################################################################
#
#                 Cambridge Crystallographic Data Centre
#                                CCDC 
#
#######################################################################
#
# If this CIF has been generated from an entry in the Cambridge 
# Structural Database, then it will include bibliographic, chemical, 
# crystal, experimental, refinement or atomic coordinate data resulting 
# from the CCDC's data processing and validation procedures.
#
#######################################################################

data_YOQYEK
_symmetry_cell_setting           triclinic
_symmetry_space_group_name_H-M   'P -1'
_symmetry_Int_Tables_number      2
_space_group_name_Hall           '-P 1'
loop_
_symmetry_equiv_pos_site_id
_symmetry_equiv_pos_as_xyz
1 x,y,z
2 -x,-y,-z
_cell_length_a                   6.84310(10)
_cell_length_b                   8.9881(2)
_cell_length_c                   9.9755(2)
_cell_angle_alpha                102.0960(10)
_cell_angle_beta                 100.5540(10)
_cell_angle_gamma                110.1700(10)
_cell_volume                     540.899
loop_
_atom_site_label
_atom_site_type_symbol
_atom_site_fract_x
_atom_site_fract_y
_atom_site_fract_z
O1 O -0.42123(12) -0.14739(8) 0.26684(7)
C1 C -0.34409(12) -0.07410(9) 0.39436(8)
O2 O 0.36966(10) 0.47957(9) 0.86504(7)
O3 O 0.03347(10) 0.40874(9) 0.87783(6)
C2 C 0.16814(11) 0.41054(9) 0.80693(7)
C3 C 0.08447(11) 0.32821(9) 0.64917(7)
C4 C -0.08947(12) 0.17428(9) 0.59723(8)
C5 C -0.16666(11) 0.09416(9) 0.45087(8)
Ca1 Ca 0.31483(2) 0.584864(18) 0.109918(14)
O4 O 0.32522(11) 0.55818(8) 0.35310(7)
O5 O 0.14025(11) 0.32791(8) 0.17662(6)
O6 O -0.40671(11) -0.13688(8) 0.49468(7)
C6 C 0.09664(11) 0.32568(9) 0.40844(8)
C7 C 0.19407(11) 0.40883(9) 0.30724(8)
C8 C 0.17772(11) 0.40415(9) 0.55519(8)
H1 H 0.2939 0.5070 0.5902
H2 H -0.1540 0.1250 0.6600
C9 C -0.07418(12) 0.17007(9) 0.35647(8)
H3 H -0.1266 0.1168 0.2588
O7 O 0.28215(12) 0.79120(9) -0.00332(8)
H4 H 0.3050 0.8848 0.0431
H5 H 0.1607 0.7644 -0.0531
O1_2 O 0.57877(12) 0.85261(8) 0.26684(7)
O2_2 O 0.36966(10) 0.47957(9) -0.13496(7)
O2A O 0.63034(10) 0.52043(9) 0.13496(7)
O3_2 O 0.03347(10) 0.40874(9) -0.12217(6)
O3A O -0.03347(10) 0.59126(9) 0.12217(6)
Ca1_2 Ca -0.68517(2) -0.415136(18) 0.109918(14)
Ca1_3 Ca 0.31483(2) 0.584864(18) 1.109918(14)
Ca1A Ca -0.31483(2) 0.415136(18) 0.890082(14)
Ca1A_2 Ca 0.68517(2) 0.415136(18) 0.890082(14)
O8 O 0.3866(3) 0.11682(16) 0.14506(19)
H6 H 0.3667 0.2060 0.1968
H7 H 0.3084 0.1019 0.0561
loop_
_geom_bond_atom_site_label_1
_geom_bond_atom_site_label_2
_geom_bond_site_symmetry_1
_geom_bond_site_symmetry_2
O1 C1 1_555 1_555
C1 C5 1_555 1_555
O2 C2 1_555 1_555
O3 C2 1_555 1_555
C2 C3 1_555 1_555
C3 C4 1_555 1_555
C4 C5 1_555 1_555
C5 C9 1_555 1_555
Ca1 O4 1_555 1_555
O4 C7 1_555 1_555
O5 Ca1 1_555 1_555
O6 C1 1_555 1_555
C6 C7 1_555 1_555
C7 O5 1_555 1_555
C8 C3 1_555 1_555
H1 C8 1_555 1_555
H2 C4 1_555 1_555
C9 C6 1_555 1_555
H3 C9 1_555 1_555
O7 Ca1 1_555 1_555
H4 O7 1_555 1_555
H5 O7 1_555 1_555
O8 H6 1_555 1_555
H7 O8 1_555 1_555
O1_2 Ca1 1_555 1_555
O2_2 Ca1 1_555 1_555
O2A Ca1 1_555 1_555
O3_2 Ca1 1_555 1_555
O3A Ca1 1_555 1_555
Ca1_2 O1 1_555 1_555
Ca1_3 O2 1_555 1_555
Ca1A O3 1_555 1_555
Ca1A_2 O2 1_555 1_555
O3 Ca1_3 1_555 1_555
C6 C8 1_555 1_555

#END
