
#######################################################################
#
#                 Cambridge Crystallographic Data Centre
#                                CCDC 
#
#######################################################################
#
# If this CIF has been generated from an entry in the Cambridge 
# Structural Database, then it will include bibliographic, chemical, 
# crystal, experimental, refinement or atomic coordinate data resulting 
# from the CCDC's data processing and validation procedures.
#
#######################################################################

data_YOQYUZ
_symmetry_cell_setting           triclinic
_symmetry_space_group_name_H-M   'P -1'
_symmetry_Int_Tables_number      2
_space_group_name_Hall           '-P 1'
loop_
_symmetry_equiv_pos_site_id
_symmetry_equiv_pos_as_xyz
1 x,y,z
2 -x,-y,-z
_cell_length_a                   7.4247(2)
_cell_length_b                   9.3631(2)
_cell_length_c                   10.1580(2)
_cell_angle_alpha                81.6570(10)
_cell_angle_beta                 70.6750(10)
_cell_angle_gamma                71.7040(10)
_cell_volume                     632.021
loop_
_atom_site_label
_atom_site_type_symbol
_atom_site_fract_x
_atom_site_fract_y
_atom_site_fract_z
Zn1 Zn 0.00765(3) 0.741199(19) 0.446532(19)
N1 N -0.0048(2) 0.73799(15) 0.65464(15)
N2 N -0.1290(2) 0.84954(15) 0.74623(16)
N3 N 0.0090(2) 0.65483(15) 0.86331(15)
C1 C 0.0760(3) 0.62312(18) 0.72756(18)
H1 H 0.1670 0.5324 0.6905
C2 C -0.1190(3) 0.79561(18) 0.86982(18)
H2 H -0.1909 0.8472 0.9526
C3 C 0.0601(3) 0.55608(18) 0.97902(18)
H3 H 0.0314 0.6162 1.0587
H4 H 0.2025 0.5026 0.9504
O1 O 0.22694(18) 0.57517(13) 0.34322(14)
O2 O 0.19506(17) 0.39224(13) 0.50984(13)
O3 O 0.80709(19) -0.06258(13) 0.42045(14)
O4 O 0.9139(2) -0.15428(15) 0.21150(17)
C4 C 0.4321(2) 0.32965(16) 0.28733(17)
C5 C 0.5394(2) 0.19454(17) 0.33705(17)
H5 H 0.5128 0.1726 0.4337
C6 C 0.6866(2) 0.09156(17) 0.24291(18)
C7 C 0.7196(3) 0.12377(19) 0.10000(18)
H6 H 0.8171 0.0541 0.0364
C8 C 0.6110(3) 0.25661(19) 0.05066(18)
H7 H 0.6328 0.2766 -0.0459
C9 C 0.4689(2) 0.36078(18) 0.14506(18)
H8 H 0.3975 0.4528 0.1119
C10 C 0.2724(2) 0.43974(17) 0.38897(18)
C11 C 0.8111(2) -0.05173(18) 0.2929(2)
O5 O 0.23105(19) 0.86589(14) 0.38831(15)
H9 H 0.212(4) 0.935(3) 0.336(3)
H10 H 0.216(4) 0.907(3) 0.459(3)
Zn1A Zn -0.00765(3) 0.258801(19) 1.553468(19)
Zn1A_2 Zn -0.00765(3) 0.258801(19) 0.553468(19)
Zn1_2 Zn 1.00765(3) -0.258801(19) 0.446532(19)
Zn1A_3 Zn -1.00765(3) 1.258801(19) 0.553468(19)
N1A N 0.0048(2) 0.26201(15) 1.34536(15)
N2A N 0.1290(2) 0.15046(15) 1.25377(16)
N3A N -0.0090(2) 0.34517(15) 1.13669(15)
C1A C -0.0760(3) 0.37688(18) 1.27244(18)
H1A H -0.1670 0.4676 1.3095
C2A C 0.1190(3) 0.20439(18) 1.13018(18)
H2A H 0.1909 0.1528 1.0474
C3A C -0.0601(3) 0.44392(18) 1.02098(18)
H3A H -0.0314 0.3838 0.9413
H4A H -0.2025 0.4974 1.0496
O1A O -0.22694(18) 0.42483(13) 0.65678(14)
O1A_2 O -0.22694(18) 0.42483(13) 1.65678(14)
O2A O -0.19506(17) 0.60776(13) 0.49016(13)
O2_2 O 0.19506(17) 0.39224(13) 1.50984(13)
O3A O -0.80709(19) 1.06258(13) 0.57955(14)
O3_2 O -0.19291(19) 0.93742(13) 0.42045(14)
O3A_2 O 0.19291(19) 0.06258(13) 1.57955(14)
O4A O -0.9139(2) 1.15428(15) 0.78850(17)
C4A C -0.4321(2) 0.67035(16) 0.71267(17)
C5A C -0.5394(2) 0.80546(17) 0.66295(17)
H5A H -0.5128 0.8274 0.5663
C6A C -0.6866(2) 0.90844(17) 0.75709(18)
C7A C -0.7196(3) 0.87623(19) 0.90000(18)
H6A H -0.8171 0.9459 0.9636
C8A C -0.6110(3) 0.74339(19) 0.94934(18)
H7A H -0.6328 0.7234 1.0459
C9A C -0.4689(2) 0.63922(18) 0.85494(18)
H8A H -0.3975 0.5472 0.8881
C10A C -0.2724(2) 0.56026(17) 0.61103(18)
C11A C -0.8111(2) 1.05173(18) 0.7071(2)
O5A O -0.23105(19) 0.13411(14) 1.61169(15)
H9A H -0.212(4) 0.065(3) 1.664(3)
H10A H -0.216(4) 0.093(3) 1.541(3)
O6 O 0.6203(3) 0.6920(2) 0.2117(2)
H11 H 0.499(5) 0.721(4) 0.278(4)
H12 H 0.685(5) 0.750(4) 0.239(3)
loop_
_geom_bond_atom_site_label_1
_geom_bond_atom_site_label_2
_geom_bond_site_symmetry_1
_geom_bond_site_symmetry_2
Zn1 N1 1_555 1_555
N1 N2 1_555 1_555
N2 C2 1_555 1_555
N3 C1 1_555 1_555
C1 N1 1_555 1_555
H1 C1 1_555 1_555
C2 N3 1_555 1_555
H2 C2 1_555 1_555
C3 N3 1_555 1_555
H3 C3 1_555 1_555
H4 C3 1_555 1_555
O1 Zn1 1_555 1_555
O2 C10 1_555 1_555
O3 C11 1_555 1_555
O4 C11 1_555 1_555
C4 C5 1_555 1_555
C5 H5 1_555 1_555
C6 C5 1_555 1_555
C7 C6 1_555 1_555
H6 C7 1_555 1_555
C8 C7 1_555 1_555
H7 C8 1_555 1_555
C9 C4 1_555 1_555
H8 C9 1_555 1_555
C10 O1 1_555 1_555
C11 C6 1_555 1_555
O5 Zn1 1_555 1_555
H9 O5 1_555 1_555
H10 O5 1_555 1_555
O6 H11 1_555 1_555
H12 O6 1_555 1_555
Zn1A N1A 1_555 1_555
Zn1A_2 O2 1_555 1_555
Zn1_2 O3 1_555 1_555
Zn1A_3 O3A 1_555 1_555
N1A N2A 1_555 1_555
N2A C2A 1_555 1_555
N3A C1A 1_555 1_555
C1A N1A 1_555 1_555
H1A C1A 1_555 1_555
C2A N3A 1_555 1_555
H2A C2A 1_555 1_555
C3A C3 1_555 1_555
H3A C3A 1_555 1_555
H4A C3A 1_555 1_555
O1A Zn1A_2 1_555 1_555
O1A_2 Zn1A 1_555 1_555
O2A Zn1 1_555 1_555
O2_2 Zn1A 1_555 1_555
O3A C11A 1_555 1_555
O3_2 Zn1 1_555 1_555
O3A_2 Zn1A 1_555 1_555
O4A C11A 1_555 1_555
C4A C5A 1_555 1_555
C5A H5A 1_555 1_555
C6A C5A 1_555 1_555
C7A C6A 1_555 1_555
H6A C7A 1_555 1_555
C8A C7A 1_555 1_555
H7A C8A 1_555 1_555
C9A C4A 1_555 1_555
H8A C9A 1_555 1_555
C10A O1A 1_555 1_555
C11A C6A 1_555 1_555
O5A Zn1A 1_555 1_555
H9A O5A 1_555 1_555
H10A O5A 1_555 1_555
C4 C10 1_555 1_555
C8 C9 1_555 1_555
N3A C3A 1_555 1_555
O2A C10A 1_555 1_555
C4A C10A 1_555 1_555
C8A C9A 1_555 1_555

#END
