
#######################################################################
#
#                 Cambridge Crystallographic Data Centre
#                                CCDC 
#
#######################################################################
#
# If this CIF has been generated from an entry in the Cambridge 
# Structural Database, then it will include bibliographic, chemical, 
# crystal, experimental, refinement or atomic coordinate data resulting 
# from the CCDC's data processing and validation procedures.
#
#######################################################################

data_YOQYOT
_symmetry_cell_setting           monoclinic
_symmetry_space_group_name_H-M   'C 2/c'
_symmetry_Int_Tables_number      15
_space_group_name_Hall           '-C 2yn'
loop_
_symmetry_equiv_pos_site_id
_symmetry_equiv_pos_as_xyz
1 x,y,z
2 -x,y,1/2-z
3 1/2+x,1/2+y,z
4 1/2-x,1/2+y,1/2-z
5 -x,-y,-z
6 x,-y,1/2+z
7 1/2-x,1/2-y,-z
8 1/2+x,1/2-y,1/2+z
_cell_length_a                   22.9206(8)
_cell_length_b                   7.7047(2)
_cell_length_c                   19.3208(7)
_cell_angle_alpha                90
_cell_angle_beta                 114.596(3)
_cell_angle_gamma                90
_cell_volume                     3102.4
loop_
_atom_site_label
_atom_site_type_symbol
_atom_site_fract_x
_atom_site_fract_y
_atom_site_fract_z
N7 N 0.0065(5) 0.4503(12) 0.2735(4)
O3 O 0.0296(7) 0.5039(18) 0.2076(8)
O4 O 0.0090(8) 0.337(2) 0.3093(9)
O5 O -0.0512(7) 0.4974(19) 0.2340(10)
N7A N -0.0065(5) 0.4503(12) 0.2265(4)
O3A O -0.0296(7) 0.5039(18) 0.2924(8)
O4A O -0.0090(8) 0.337(2) 0.1907(9)
O5A O 0.0512(7) 0.4974(19) 0.2660(10)
O9 O -0.0876(16) -0.037(4) 0.0229(18)
O10 O 0.1297(10) 0.252(2) 0.4305(11)
Cd1 Cd 0.247578(10) 0.28420(3) 0.272487(11)
O1 O 0.24950(12) 0.0801(3) 0.17776(12)
O2 O 0.25425(18) -0.1408(4) 0.11015(16)
C1 C 0.25129(17) 0.0180(5) 0.11836(18)
C2 C 0.25072(17) 0.1379(4) 0.05730(18)
C3 C 0.2487(2) 0.3175(5) 0.0652(2)
H1 H 0.2478 0.3638 0.1098
C4 C 0.2520(2) 0.0716(5) -0.00875(19)
H2 H 0.2533 -0.0491 -0.0151
N1 N 0.32783(13) 0.0910(4) 0.34824(15)
N2 N 0.33439(13) -0.0791(4) 0.33077(15)
C5 C 0.37493(19) 0.1246(5) 0.4136(2)
H3 H 0.3819 0.2317 0.4391
C6 C 0.38510(17) -0.1412(5) 0.3865(2)
H4 H 0.4004 -0.2554 0.3894
N3 N 0.41237(16) -0.0173(5) 0.43945(18)
C7 C 0.4725(2) -0.0298(7) 0.5091(2)
H5 H 0.4796 -0.1501 0.5273
H6 H 0.4698 0.0432 0.5492
N4 N 0.16821(13) 0.0852(4) 0.26511(18)
N5 N 0.16871(13) -0.0885(4) 0.24930(17)
C8 C 0.1198(2) 0.1116(6) 0.2823(3)
H7 H 0.1088 0.2194 0.2963
C9 C 0.12038(17) -0.1584(5) 0.2575(2)
H8 H 0.1097 -0.2769 0.2505
N6 N 0.08769(16) -0.0379(5) 0.2773(2)
C10 C 0.0284(2) -0.0595(7) 0.2885(3)
H9 H 0.0242 0.0356 0.3198
H10 H 0.0299 -0.1691 0.3149
Cd1F Cd 0.252422(10) 0.21580(3) -0.272487(11)
Cd1C Cd 0.252422(10) -0.21580(3) 0.227513(11)
Cd1E Cd 0.247578(10) 0.71580(3) -0.227513(11)
Cd1D Cd 0.752422(10) -0.28420(3) 0.727513(11)
Cd1G Cd 0.747578(10) 0.21580(3) 0.772487(11)
Cd1A Cd -0.247578(10) 0.28420(3) 0.227513(11)
Cd1B Cd -0.252422(10) -0.21580(3) 0.272487(11)
O1F O 0.25050(12) 0.4199(3) -0.17776(12)
O1C O 0.25050(12) 0.5801(3) 0.32224(12)
O1E O 0.24950(12) -0.0801(3) -0.32224(12)
O2F O 0.24575(18) 0.6408(4) -0.11015(16)
O2C O 0.24575(18) 0.3592(4) 0.38985(16)
O2E O 0.25425(18) 0.1408(4) -0.38985(16)
C1F C 0.24871(17) 0.4820(5) -0.11836(18)
C2F C 0.24928(17) 0.3621(4) -0.05730(18)
C3F C 0.2513(2) 0.1825(5) -0.0652(2)
H1F H 0.2522 0.1362 -0.1098
C4F C 0.2480(2) 0.4284(5) 0.00875(19)
H2F H 0.2467 0.5491 0.0151
N1D N 0.67217(13) -0.0910(4) 0.65176(15)
N1F N 0.17217(13) 0.4090(4) -0.34824(15)
N2D N 0.66561(13) 0.0791(4) 0.66923(15)
N2C N 0.16561(13) 0.4209(4) 0.16923(15)
N2E N 0.33439(13) 0.0791(4) -0.16923(15)
C5D C 0.62507(19) -0.1246(5) 0.5864(2)
H3D H 0.6181 -0.2317 0.5609
C6D C 0.61490(17) 0.1412(5) 0.6135(2)
H4D H 0.5996 0.2554 0.6106
N3D N 0.58763(16) 0.0173(5) 0.56055(18)
C7D C 0.5275(2) 0.0298(7) 0.4909(2)
H5D H 0.5204 0.1501 0.4727
H6D H 0.5302 -0.0432 0.4508
N4A N -0.16821(13) 0.0852(4) 0.23489(18)
N4F N 0.33179(13) 0.4148(4) -0.26511(18)
N5A N -0.16871(13) -0.0885(4) 0.25070(17)
N5C N 0.33129(13) 0.4115(4) 0.25070(17)
N5E N 0.16871(13) 0.0885(4) -0.25070(17)
C8A C -0.1198(2) 0.1116(6) 0.2177(3)
H7A H -0.1088 0.2194 0.2037
C9A C -0.12038(17) -0.1584(5) 0.2425(2)
H8A H -0.1097 -0.2769 0.2495
N6A N -0.08769(16) -0.0379(5) 0.2227(2)
C10A C -0.0284(2) -0.0595(7) 0.2115(3)
H9A H -0.0242 0.0356 0.1802
H10A H -0.0299 -0.1691 0.1851
N8? N -0.0085(7) 0.0207(18) 0.0265(8)
O6? O 0.0327(6) -0.0367(16) 0.0721(7)
O7? O -0.0251(8) 0.140(3) 0.0540(9)
O8? O -0.0441(9) 0.000(2) -0.0317(12)
O11? O -0.0628(10) 0.492(3) 0.1803(13)
loop_
_geom_bond_atom_site_label_1
_geom_bond_atom_site_label_2
_geom_bond_site_symmetry_1
_geom_bond_site_symmetry_2
Cd1 O1 1_555 1_555
O1 C1 1_555 1_555
O2 C1 1_555 1_555
C1 C2 1_555 1_555
C2 C3 1_555 1_555
C3 H1 1_555 1_555
C4 C2 1_555 1_555
H2 C4 1_555 1_555
N1 Cd1 1_555 1_555
N2 N1 1_555 1_555
C5 N1 1_555 1_555
H3 C5 1_555 1_555
C6 N2 1_555 1_555
H4 C6 1_555 1_555
N3 C5 1_555 1_555
C7 N3 1_555 1_555
H5 C7 1_555 1_555
H6 C7 1_555 1_555
N4 Cd1 1_555 1_555
N5 N4 1_555 1_555
C8 N4 1_555 1_555
H7 C8 1_555 1_555
C9 N5 1_555 1_555
H8 C9 1_555 1_555
N6 C8 1_555 1_555
C10 N6 1_555 1_555
H9 C10 1_555 1_555
H10 C10 1_555 1_555
N7 O3 1_555 1_555
O3 N7A 1_555 1_555
O4 N7 1_555 1_555
O5 N7 1_555 1_555
Cd1F O1F 1_555 1_555
Cd1C O1 1_555 1_555
Cd1E O1F 1_555 1_555
Cd1D N1D 1_555 1_555
Cd1G N2D 1_555 1_555
Cd1A N4A 1_555 1_555
Cd1B N5A 1_555 1_555
O1F C1F 1_555 1_555
O1C Cd1 1_555 1_555
O1E Cd1F 1_555 1_555
O2F Cd1E 1_555 1_555
O2C Cd1 1_555 1_555
O2E Cd1F 1_555 1_555
C1F O2F 1_555 1_555
C2F C1F 1_555 1_555
C3F C4 1_555 1_555
H1F C3F 1_555 1_555
C4F C3 1_555 1_555
H2F C4F 1_555 1_555
N1D N2D 1_555 1_555
N1F Cd1F 1_555 1_555
N2D C6D 1_555 1_555
N2C Cd1 1_555 1_555
N2E Cd1F 1_555 1_555
C5D N1D 1_555 1_555
H3D C5D 1_555 1_555
C6D H4D 1_555 1_555
N3D C5D 1_555 1_555
C7D C7 1_555 1_555
H5D C7D 1_555 1_555
H6D C7D 1_555 1_555
N4A N5A 1_555 1_555
N4F Cd1F 1_555 1_555
N5A C9A 1_555 1_555
N5C Cd1 1_555 1_555
N5E Cd1F 1_555 1_555
C8A N4A 1_555 1_555
H7A C8A 1_555 1_555
C9A H8A 1_555 1_555
N6A C8A 1_555 1_555
C10A C10 1_555 1_555
H9A C10A 1_555 1_555
H10A C10A 1_555 1_555
N7A N7 1_555 1_555
O3A N7 1_555 1_555
O4A N7 1_555 1_555
O5A N7 1_555 1_555
O2 Cd1C 1_555 1_555
N2 Cd1C 1_555 1_555
C6 N3 1_555 1_555
N5 Cd1C 1_555 1_555
C9 N6 1_555 1_555
O3 O4A 1_555 1_555
O3 O5A 1_555 1_555
O4 N7A 1_555 1_555
O4 O3A 1_555 1_555
O5 N7A 1_555 1_555
O5 O3A 1_555 1_555
C2F C3F 1_555 1_555
C2F C4F 1_555 1_555
C6D N3D 1_555 1_555
N3D C7D 1_555 1_555
C9A N6A 1_555 1_555
N6A C10A 1_555 1_555
N7A O3A 1_555 1_555
N7A O4A 1_555 1_555
N7A O5A 1_555 1_555

#END
