
#######################################################################
#
#                 Cambridge Crystallographic Data Centre
#                                CCDC 
#
#######################################################################
#
# If this CIF has been generated from an entry in the Cambridge 
# Structural Database, then it will include bibliographic, chemical, 
# crystal, experimental, refinement or atomic coordinate data resulting 
# from the CCDC's data processing and validation procedures.
#
#######################################################################

data_YOQYIN
_symmetry_cell_setting           monoclinic
_symmetry_space_group_name_H-M   'C 2/c'
_symmetry_Int_Tables_number      15
_space_group_name_Hall           '-C 2yn'
loop_
_symmetry_equiv_pos_site_id
_symmetry_equiv_pos_as_xyz
1 x,y,z
2 -x,y,1/2-z
3 1/2+x,1/2+y,z
4 1/2-x,1/2+y,1/2-z
5 -x,-y,-z
6 x,-y,1/2+z
7 1/2-x,1/2-y,-z
8 1/2+x,1/2-y,1/2+z
_cell_length_a                   12.4552(10)
_cell_length_b                   15.1581(10)
_cell_length_c                   13.274(2)
_cell_angle_alpha                90
_cell_angle_beta                 117.432(10)
_cell_angle_gamma                90
_cell_volume                     2224.3
loop_
_atom_site_label
_atom_site_type_symbol
_atom_site_fract_x
_atom_site_fract_y
_atom_site_fract_z
Zn1 Zn -0.765173(9) 0.190250(7) -0.376289(8)
O1 O -0.92606(6) 0.20951(5) -0.39044(7)
O2 O -1.02528(8) 0.10703(6) -0.52330(9)
O3 O -0.63969(8) 0.16719(6) -0.22099(7)
O4 O -0.71632(8) 0.03876(7) -0.29971(6)
N1 N -0.70190(7) 0.31711(5) -0.38139(7)
N2 N -0.71978(7) 0.36352(5) -0.47748(6)
N3 N -0.63097(7) 0.45066(5) -0.33156(6)
C1 C -0.67596(9) 0.44313(6) -0.44547(7)
H1 H -0.6758 0.4881 -0.4942
C2 C -0.64827(9) 0.37074(6) -0.29478(8)
H2 H -0.6253 0.3561 -0.2187
C3 C -0.56573(9) 0.52660(6) -0.26113(8)
H3 H -0.5688 0.5241 -0.1887
H4 H -0.6050 0.5814 -0.2998
C4 C -1.02269(8) 0.17156(7) -0.46525(8)
C5 C -1.14046(8) 0.21147(7) -0.48093(8)
C6 C -1.24912(9) 0.18091(7) -0.56897(9)
H5 H -1.2485 0.1343 -0.6154
C7 C -1.14195(9) 0.28051(7) -0.41207(8)
H6 H -1.0690 0.3010 -0.3527
C8 C -0.64558(9) 0.08295(7) -0.21666(8)
C9 C -0.56747(8) 0.03974(6) -0.10505(7)
C10 C -0.50011(9) 0.09112(6) -0.00969(8)
H7 H -0.4997 0.1528 -0.0164
C11 C -0.56644(9) -0.05164(7) -0.09518(8)
H8 H -0.6109 -0.0866 -0.1597
Zn1F Zn -1.734827(9) 0.309750(7) -0.623711(8)
Zn1F_2 Zn -0.734827(9) 0.309750(7) -0.623711(8)
Zn1D Zn -0.234827(9) -0.190250(7) 0.376289(8)
Zn1G Zn -0.265173(9) 0.309750(7) 0.123711(8)
Zn1A Zn -0.234827(9) 0.190250(7) -0.123711(8)
O1F O -1.57394(6) 0.29049(5) -0.60956(7)
O2F O -1.47472(8) 0.39297(6) -0.47670(9)
O3D O -0.36031(8) -0.16719(6) 0.22099(7)
O3F O -1.86031(8) 0.33281(6) -0.77901(7)
O4D O -0.28368(8) -0.03876(7) 0.29971(6)
O4F O -1.78368(8) 0.46124(7) -0.70029(6)
N1A N -0.29810(7) 0.31711(5) -0.11861(7)
N1F N -1.79810(7) 0.18289(5) -0.61861(7)
N2A N -0.28022(7) 0.36352(5) -0.02252(6)
N2F N -0.78022(7) 0.13648(5) -0.52252(6)
N2_2 N -1.71978(7) 0.36352(5) -0.47748(6)
N3A N -0.36903(7) 0.45066(5) -0.16844(6)
C1A C -0.32404(9) 0.44313(6) -0.05453(7)
H1A H -0.3242 0.4881 -0.0058
C2A C -0.35173(9) 0.37074(6) -0.20522(8)
H2A H -0.3747 0.3561 -0.2813
C3A C -0.43427(9) 0.52660(6) -0.23887(8)
H3A H -0.4312 0.5241 -0.3113
H4A H -0.3950 0.5814 -0.2002
C4F C -1.47731(8) 0.32844(7) -0.53475(8)
C5F C -1.35954(8) 0.28853(7) -0.51907(8)
C6F C -1.25088(9) 0.31909(7) -0.43103(9)
H5F H -1.2515 0.3657 -0.3846
C7F C -1.35805(9) 0.21949(7) -0.58793(8)
H6F H -1.4310 0.1990 -0.6473
C8D C -0.35442(9) -0.08295(7) 0.21666(8)
C9D C -0.43253(8) -0.03974(6) 0.10505(7)
C10D C -0.49989(9) -0.09112(6) 0.00969(8)
H7D H -0.5003 -0.1528 0.0164
C11D C -0.43356(9) 0.05164(7) 0.09518(8)
H8D H -0.3891 0.0866 0.1597
loop_
_geom_bond_atom_site_label_1
_geom_bond_atom_site_label_2
_geom_bond_site_symmetry_1
_geom_bond_site_symmetry_2
Zn1 O1 1_555 1_555
O1 C4 1_555 1_555
O2 C4 1_555 1_555
O3 Zn1 1_555 1_555
O4 Zn1 1_555 1_555
N1 Zn1 1_555 1_555
N2 N1 1_555 1_555
N3 C1 1_555 1_555
C1 N2 1_555 1_555
H1 C1 1_555 1_555
C2 N1 1_555 1_555
H2 C2 1_555 1_555
C3 N3 1_555 1_555
H3 C3 1_555 1_555
H4 C3 1_555 1_555
C4 C5 1_555 1_555
C5 C6 1_555 1_555
C6 H5 1_555 1_555
C7 C5 1_555 1_555
H6 C7 1_555 1_555
C8 O3 1_555 1_555
C9 C8 1_555 1_555
C10 C9 1_555 1_555
H7 C10 1_555 1_555
C11 C9 1_555 1_555
H8 C11 1_555 1_555
Zn1F O1F 1_555 1_555
Zn1F_2 N2 1_555 1_555
Zn1D O3D 1_555 1_555
Zn1G N2A 1_555 1_555
Zn1A N1A 1_555 1_555
O1F C4F 1_555 1_555
O2F C4F 1_555 1_555
O3D C8D 1_555 1_555
O3F Zn1F 1_555 1_555
O4D Zn1D 1_555 1_555
O4F Zn1F 1_555 1_555
N1A N2A 1_555 1_555
N1F Zn1F 1_555 1_555
N2A C1A 1_555 1_555
N2F Zn1 1_555 1_555
N2_2 Zn1F 1_555 1_555
N3A C1A 1_555 1_555
C1A H1A 1_555 1_555
C2A N1A 1_555 1_555
H2A C2A 1_555 1_555
C3A C3 1_555 1_555
H3A C3A 1_555 1_555
H4A C3A 1_555 1_555
C4F C5F 1_555 1_555
C5F C6F 1_555 1_555
C6F C7 1_555 1_555
H5F C6F 1_555 1_555
C7F C6 1_555 1_555
H6F C7F 1_555 1_555
C8D O4D 1_555 1_555
C9D C8D 1_555 1_555
C10D C11 1_555 1_555
H7D C10D 1_555 1_555
C11D C10 1_555 1_555
H8D C11D 1_555 1_555
O4 C8 1_555 1_555
N3 C2 1_555 1_555
N3A C2A 1_555 1_555
N3A C3A 1_555 1_555
C5F C7F 1_555 1_555
C9D C10D 1_555 1_555
C9D C11D 1_555 1_555

#END
