
#######################################################################
#
#                 Cambridge Crystallographic Data Centre
#                                CCDC 
#
#######################################################################
#
# If this CIF has been generated from an entry in the Cambridge 
# Structural Database, then it will include bibliographic, chemical, 
# crystal, experimental, refinement or atomic coordinate data resulting 
# from the CCDC's data processing and validation procedures.
#
#######################################################################

data_YORFUH
_symmetry_cell_setting           monoclinic
_symmetry_space_group_name_H-M   'C 2/c'
_symmetry_Int_Tables_number      15
_space_group_name_Hall           '-C 2yn'
loop_
_symmetry_equiv_pos_site_id
_symmetry_equiv_pos_as_xyz
1 x,y,z
2 -x,y,1/2-z
3 1/2+x,1/2+y,z
4 1/2-x,1/2+y,1/2-z
5 -x,-y,-z
6 x,-y,1/2+z
7 1/2-x,1/2-y,-z
8 1/2+x,1/2-y,1/2+z
_cell_length_a                   19.970(4)
_cell_length_b                   5.5067(10)
_cell_length_c                   12.672(2)
_cell_angle_alpha                90
_cell_angle_beta                 120.357(2)
_cell_angle_gamma                90
_cell_volume                     1202.46
loop_
_atom_site_label
_atom_site_type_symbol
_atom_site_fract_x
_atom_site_fract_y
_atom_site_fract_z
Cu1 Cu 0.5000 0.5000 0.5000
C1 C 0.37443(19) 0.7162(6) 0.2566(3)
H1 H 0.4008 0.8610 0.2656
C2 C 0.25088(18) 0.8035(6) 0.0563(2)
H2 H 0.2677 0.9714 0.0669
H3 H 0.1992 0.7991 0.0456
C3 C 0.56026(17) 0.9653(6) 0.4409(3)
N1 N 0.40058(15) 0.5319(4) 0.3328(2)
N2 N 0.34368(16) 0.3613(5) 0.2856(2)
N3 N 0.28586(16) 0.4375(5) 0.1845(2)
N4 N 0.30451(15) 0.6618(5) 0.1648(2)
N5 N 0.54075(15) 0.7828(5) 0.4613(2)
S1 S 0.58697(6) 1.22104(15) 0.41116(9)
Cu1_2 Cu 0.5000 1.5000 0.5000
Cu1B Cu 0.0000 1.0000 -0.5000
Cu1_3 Cu 0.5000 -0.5000 0.5000
C1F C 0.12557(19) 0.7838(6) -0.2566(3)
H1F H 0.0992 0.6390 -0.2656
C2F C 0.24912(18) 0.6965(6) -0.0563(2)
H2F H 0.2323 0.5286 -0.0669
H3F H 0.3008 0.7009 -0.0456
C3D C 0.43974(17) 0.0347(6) 0.5591(3)
N1F N 0.09942(15) 0.9681(4) -0.3328(2)
N1D N 0.59942(15) 0.4681(4) 0.6672(2)
N2F N 0.15632(16) 1.1387(5) -0.2856(2)
N3F N 0.21414(16) 1.0625(5) -0.1845(2)
N4F N 0.19549(15) 0.8382(5) -0.1648(2)
N5D N 0.45925(15) 0.2172(5) 0.5387(2)
S1D S 0.41303(6) -0.22104(15) 0.58884(9)
S1_2 S 0.58697(6) 0.22104(15) 0.41116(9)
S1D_2 S 0.41303(6) 0.77896(15) 0.58884(9)
loop_
_geom_bond_atom_site_label_1
_geom_bond_atom_site_label_2
_geom_bond_site_symmetry_1
_geom_bond_site_symmetry_2
Cu1 N1 1_555 1_555
C1 H1 1_555 1_555
C2 H2 1_555 1_555
H3 C2 1_555 1_555
C3 N5 1_555 1_555
N1 C1 1_555 1_555
N2 N1 1_555 1_555
N3 N2 1_555 1_555
N4 C1 1_555 1_555
N5 Cu1 1_555 1_555
S1 C3 1_555 1_555
Cu1_2 S1 1_555 1_555
Cu1B N1F 1_555 1_555
Cu1_3 S1D 1_555 1_555
C1F H1F 1_555 1_555
C2F C2 1_555 1_555
H2F C2F 1_555 1_555
H3F C2F 1_555 1_555
C3D N5D 1_555 1_555
N1F C1F 1_555 1_555
N1D Cu1 1_555 1_555
N2F N1F 1_555 1_555
N3F N2F 1_555 1_555
N4F C1F 1_555 1_555
N5D Cu1 1_555 1_555
S1D C3D 1_555 1_555
S1_2 Cu1 1_555 1_555
S1D_2 Cu1 1_555 1_555
C2 N4 1_555 1_555
N3 N4 1_555 1_555
C2F N4F 1_555 1_555
N3F N4F 1_555 1_555

#END
