
#######################################################################
#
#                 Cambridge Crystallographic Data Centre
#                                CCDC 
#
#######################################################################
#
# If this CIF has been generated from an entry in the Cambridge 
# Structural Database, then it will include bibliographic, chemical, 
# crystal, experimental, refinement or atomic coordinate data resulting 
# from the CCDC's data processing and validation procedures.
#
#######################################################################

data_YORGOD
_symmetry_cell_setting           triclinic
_symmetry_space_group_name_H-M   'P -1'
_symmetry_Int_Tables_number      2
_space_group_name_Hall           '-P 1'
loop_
_symmetry_equiv_pos_site_id
_symmetry_equiv_pos_as_xyz
1 x,y,z
2 -x,-y,-z
_cell_length_a                   15.637(5)
_cell_length_b                   15.691(5)
_cell_length_c                   16.291(5)
_cell_angle_alpha                90.097(5)
_cell_angle_beta                 90.067(5)
_cell_angle_gamma                90.015(5)
_cell_volume                     3997.15
loop_
_atom_site_label
_atom_site_type_symbol
_atom_site_fract_x
_atom_site_fract_y
_atom_site_fract_z
Zn1 Zn 0.12529(3) 1.00007(7) 0.46407(3)
Zn2 Zn 0.37470(3) 0.99988(7) 0.96416(3)
O1 O 0.3736(2) 0.9989(3) 1.08886(18)
O2 O 0.1264(2) 1.0004(4) 0.58781(18)
O3 O 0.2400(2) 0.9993(4) 0.9588(2)
O4 O 0.2604(2) 0.9996(4) 1.4593(2)
O5 O 0.1975(2) 1.0008(3) 1.33946(19)
O6 O 0.30254(19) 1.0005(3) 0.83900(19)
C1 C 0.0671(3) 0.9997(5) 0.7200(3)
C2 C 0.4341(3) 0.9985(5) 1.2198(3)
O7 O -0.0129(2) 0.9995(4) 0.59675(19)
O8 O 0.5121(2) 1.0007(4) 1.09745(19)
C3 C 0.3550(3) 1.0003(4) 1.2569(3)
H1 H 0.3055 1.0019 1.2252
C4 C 0.4417(3) 1.0012(4) 1.1283(3)
C5 C 0.1451(3) 0.9984(4) 0.7586(3)
H2 H 0.1947 0.9958 0.7273
C6 C 0.0775(3) 0.9994(5) 0.8900(3)
H3 H 0.0815 0.9978 0.9469
C7 C 0.4219(3) 1.0008(6) 1.3895(3)
H4 H 0.4182 1.0017 1.4465
O9 O -0.0713(2) 1.0042(6) 0.9023(2)
C8 C 0.0591(3) 0.9991(4) 0.6284(3)
O10 O 0.5709(2) 1.0002(7) 1.4027(2)
C9 C 0.2628(3) 1.0000(5) 1.3840(3)
C10 C 0.2368(3) 0.9991(5) 0.8844(3)
C11 C -0.0096(3) 1.0008(6) 0.7665(3)
H5 H -0.0628 1.0017 0.7409
C12 C 0.1512(3) 1.0007(5) 0.8417(3)
C13 C 0.3497(3) 0.9998(4) 1.3429(3)
C14 C 0.5091(3) 0.9990(5) 1.2651(3)
H6 H 0.5622 0.9984 1.2394
C15 C 0.5026(3) 1.0003(7) 1.3507(3)
C16 C -0.0024(3) 1.0006(8) 0.8515(3)
N1 N 0.3808(3) 0.1318(6) 0.9614(3)
N2 N 0.1191(3) 0.8705(6) 0.4608(3)
N3 N 0.3792(3) 0.8663(6) 0.9606(3)
N4 N 0.1199(3) 0.1312(6) 0.4619(3)
C17 C 0.1177(5) 0.6821(9) 0.4597(5)
C18 C 0.3835(5) 0.6844(8) 0.9598(5)
C19 C 0.1172(6) 0.5898(10) 0.4594(6)
C20 C 0.3821(5) 0.5937(8) 0.9597(5)
C21 C 0.3525(6) 0.8128(8) 1.0248(5)
H7 H 0.3326 0.8397 1.0720
C22 C 0.3523(6) 0.1838(9) 1.0251(5)
H8 H 0.3317 0.1564 1.0717
C23 C 0.3527(8) 0.7275(9) 1.0257(6)
H9 H 0.3319 0.6981 1.0710
C24 C 0.1499(6) 0.8126(11) 0.5229(5)
H10 H 0.1759 0.8378 0.5681
C25 C 0.1460(9) 0.7272(10) 0.5239(6)
H11 H 0.1636 0.6984 0.5709
C26 C 0.1483(6) 0.1829(10) 0.5236(5)
H12 H 0.1699 0.1559 0.5700
C27 C 0.1483(8) 0.2711(10) 0.5249(5)
H13 H 0.1695 0.3000 0.5705
C28 C 0.0860(6) 0.1796(10) 0.3993(5)
H14 H 0.0619 0.1505 0.3552
C29 C 0.4145(7) 0.8189(10) 0.8978(5)
H15 H 0.4391 0.8476 0.8538
C30 C 0.0876(7) 0.7381(10) 0.3959(5)
H16 H 0.0641 0.7126 0.3495
C31 C 0.0902(7) 0.8272(9) 0.3969(5)
H17 H 0.0710 0.8569 0.3512
C32 C 0.4153(9) 0.7310(11) 0.8969(7)
H18 H 0.4382 0.7029 0.8517
C33 C 0.4116(7) 0.1843(9) 0.8984(5)
H19 H 0.4282 0.1563 0.8507
C34 C 0.1178(5) 0.3154(8) 0.4604(5)
C35 C 0.3828(5) 0.3186(9) 0.9593(5)
C36 C 0.3824(5) 0.4099(8) 0.9587(5)
C37 C 0.1184(5) 0.4084(9) 0.4594(5)
C38 C 0.3513(7) 0.2690(8) 1.0263(5)
H20 H 0.3295 0.2968 1.0722
C39 C 0.4200(7) 0.2663(9) 0.8974(6)
H21 H 0.4511 0.2916 0.8553
C40 C 0.0846(7) 0.2675(9) 0.3963(6)
H22 H 0.0612 0.2948 0.3509
C41 C 0.3697(16) 0.4550(13) 1.0262(11)
H23 H 0.3622 0.4257 1.0752
C42 C 0.4014(13) 0.4636(14) 0.8925(8)
H24 H 0.4081 0.4385 0.8412
C43 C 0.0981(14) 0.5410(13) 0.3934(8)
H25 H 0.0817 0.5687 0.3455
C44 C 0.1010(14) 0.4562(13) 0.3917(8)
H26 H 0.0907 0.4285 0.3422
C45 C 0.4103(17) 0.5460(12) 0.8975(10)
H27 H 0.4382 0.5736 0.8547
C46 C 0.1312(15) 0.4578(12) 0.5258(10)
H28 H 0.1375 0.4309 0.5762
C47 C 0.3667(13) 0.5431(13) 1.0286(10)
H29 H 0.3540 0.5698 1.0781
C48 C 0.1354(13) 0.5382(12) 0.5245(9)
C49 C -0.1495 1.0674 0.8679
H30 H -0.1919 1.0614 0.9110
H31 H -0.1719 1.0341 0.8225
C50 C 0.6509 1.0594 1.3705
H32 H 0.6967 1.0481 1.4093
H33 H 0.6686 1.0328 1.3195
C51 C 0.7306 1.1842 1.3088
H34 H 0.7695 1.1425 1.2929
C52 C 0.6578 1.1615 1.3526
C53 C 0.5996 1.2237 1.3764
H35 H 0.5509 1.2086 1.4057
C54 C 0.6142 1.3086 1.3566
H36 H 0.5753 1.3502 1.3725
C55 C 0.6870 1.3313 1.3128
H37 H 0.6968 1.3880 1.2995
C56 C 0.7452 1.2690 1.2890
H38 H 0.7939 1.2842 1.2597
C57 C -0.1423 1.3330 0.8367
C58 C -0.2136 1.3173 0.7900
C59 C -0.0846 1.1966 0.8569
H39 H -0.0390 1.1586 0.8548
C60 C -0.1682 1.1673 0.8356
C61 C -0.0696 1.2797 0.8805
H40 H -0.0264 1.3000 0.9146
C62 C -0.2294 1.2247 0.7946
C63 C -0.2582 1.4845 0.7956
C64 C -0.3456 1.3811 0.7201
C65 C -0.2648 1.3960 0.7672
C66 C -0.3838 1.4670 0.7025
H41 H -0.4319 1.4618 0.6692
C67 C -0.3676 1.5558 0.7222
H42 H -0.4055 1.6006 0.7135
C68 C -0.2828 1.5638 0.7576
H43 H -0.2493 1.6127 0.7561
C69 C -0.1735 1.4957 0.8234
H44 H -0.1472 1.5489 0.8232
C70 C -0.3597 1.2861 0.7181
H45 H -0.4143 1.2699 0.7016
C71 C -0.1303 1.4221 0.8513
H46 H -0.0849 1.4341 0.8864
C72 C -0.3017 1.2130 0.7376
H47 H -0.3114 1.1600 0.7137
Zn1_2 Zn 0.12529(3) 0.00007(7) 0.46407(3)
Zn1_3 Zn 0.12529(3) 1.00007(7) 1.46407(3)
Zn1A Zn -0.12529(3) 0.99993(7) 0.53593(3)
Zn2_2 Zn 0.37470(3) -0.00012(7) 0.96416(3)
Zn2A Zn 0.62530(3) 1.00012(7) 1.03584(3)
O4_2 O 0.2604(2) 0.9996(4) 0.4593(2)
O5_2 O 0.1975(2) 1.0008(3) 0.33946(19)
O7A O 0.0129(2) 1.0005(4) 0.40325(19)
O8A O 0.4879(2) 0.9993(4) 0.90255(19)
N1_2 N 0.3808(3) 1.1318(6) 0.9614(3)
N4_2 N 0.1199(3) 1.1312(6) 0.4619(3)
loop_
_geom_bond_atom_site_label_1
_geom_bond_atom_site_label_2
_geom_bond_site_symmetry_1
_geom_bond_site_symmetry_2
Zn1 O2 1_555 1_555
Zn2 O1 1_555 1_555
O1 C4 1_555 1_555
O2 C8 1_555 1_555
O3 Zn2 1_555 1_555
O4 C9 1_555 1_555
O5 C9 1_555 1_555
O6 Zn2 1_555 1_555
C1 C5 1_555 1_555
C2 C3 1_555 1_555
O7 C8 1_555 1_555
O8 C4 1_555 1_555
C3 H1 1_555 1_555
C4 C2 1_555 1_555
C5 H2 1_555 1_555
C6 H3 1_555 1_555
C7 H4 1_555 1_555
O9 C16 1_555 1_555
C8 C1 1_555 1_555
O10 C15 1_555 1_555
C9 C13 1_555 1_555
C10 O3 1_555 1_555
C11 C1 1_555 1_555
H5 C11 1_555 1_555
C12 C5 1_555 1_555
C13 C3 1_555 1_555
C14 C2 1_555 1_555
H6 C14 1_555 1_555
C15 C7 1_555 1_555
C16 C6 1_555 1_555
N1 C22 1_555 1_555
N2 Zn1 1_555 1_555
N3 Zn2 1_555 1_555
N4 C26 1_555 1_555
C17 C19 1_555 1_555
C18 C20 1_555 1_555
C19 C43 1_555 1_555
C20 C45 1_555 1_555
C21 N3 1_555 1_555
H7 C21 1_555 1_555
C22 H8 1_555 1_555
C23 C18 1_555 1_555
H9 C23 1_555 1_555
C24 N2 1_555 1_555
H10 C24 1_555 1_555
C25 C17 1_555 1_555
H11 C25 1_555 1_555
C26 H12 1_555 1_555
C27 C26 1_555 1_555
H13 C27 1_555 1_555
C28 N4 1_555 1_555
H14 C28 1_555 1_555
C29 N3 1_555 1_555
H15 C29 1_555 1_555
C30 C17 1_555 1_555
H16 C30 1_555 1_555
C31 N2 1_555 1_555
H17 C31 1_555 1_555
C32 C18 1_555 1_555
H18 C32 1_555 1_555
C33 N1 1_555 1_555
H19 C33 1_555 1_555
C34 C27 1_555 1_555
C35 C36 1_555 1_555
C36 C41 1_555 1_555
C37 C34 1_555 1_555
C38 C22 1_555 1_555
H20 C38 1_555 1_555
C39 C33 1_555 1_555
H21 C39 1_555 1_555
C40 C28 1_555 1_555
H22 C40 1_555 1_555
C41 H23 1_555 1_555
C42 C36 1_555 1_555
H24 C42 1_555 1_555
C43 H25 1_555 1_555
C44 C37 1_555 1_555
H26 C44 1_555 1_555
C45 C42 1_555 1_555
H27 C45 1_555 1_555
C46 C37 1_555 1_555
H28 C46 1_555 1_555
C47 C20 1_555 1_555
H29 C47 1_555 1_555
C48 C19 1_555 1_555
C49 O9 1_555 1_555
H30 C49 1_555 1_555
H31 C49 1_555 1_555
C50 O10 1_555 1_555
H32 C50 1_555 1_555
H33 C50 1_555 1_555
C51 H34 1_555 1_555
C52 C50 1_555 1_555
C53 C52 1_555 1_555
H35 C53 1_555 1_555
C54 C53 1_555 1_555
H36 C54 1_555 1_555
C55 C54 1_555 1_555
H37 C55 1_555 1_555
C56 C51 1_555 1_555
H38 C56 1_555 1_555
C57 C58 1_555 1_555
C58 C62 1_555 1_555
C59 H39 1_555 1_555
C60 C49 1_555 1_555
C61 C57 1_555 1_555
H40 C61 1_555 1_555
C62 C60 1_555 1_555
C63 C65 1_555 1_555
C64 C65 1_555 1_555
C65 C58 1_555 1_555
C66 C64 1_555 1_555
H41 C66 1_555 1_555
C67 C66 1_555 1_555
H42 C67 1_555 1_555
C68 C63 1_555 1_555
H43 C68 1_555 1_555
C69 C63 1_555 1_555
H44 C69 1_555 1_555
C70 C64 1_555 1_555
H45 C70 1_555 1_555
C71 C57 1_555 1_555
H46 C71 1_555 1_555
C72 C62 1_555 1_555
H47 C72 1_555 1_555
Zn1_2 N4 1_555 1_555
Zn1_3 O4 1_555 1_555
Zn1A O7 1_555 1_555
Zn2_2 N1 1_555 1_555
Zn2A O8 1_555 1_555
O4_2 Zn1 1_555 1_555
O5_2 Zn1 1_555 1_555
O7A Zn1 1_555 1_555
O8A Zn2 1_555 1_555
N1_2 Zn2 1_555 1_555
N4_2 Zn1 1_555 1_555
O5 Zn1_3 1_555 1_555
O6 C10 1_555 1_555
C6 C12 1_555 1_555
C7 C13 1_555 1_555
C10 C12 1_555 1_555
C11 C16 1_555 1_555
C14 C15 1_555 1_555
C21 C23 1_555 1_555
C24 C25 1_555 1_555
C29 C32 1_555 1_555
C30 C31 1_555 1_555
C34 C40 1_555 1_555
C35 C38 1_555 1_555
C35 C39 1_555 1_555
C41 C47 1_555 1_555
C43 C44 1_555 1_555
C46 C48 1_555 1_555
C51 C52 1_555 1_555
C55 C56 1_555 1_555
C59 C60 1_555 1_555
C59 C61 1_555 1_555
C67 C68 1_555 1_555
C69 C71 1_555 1_555
C70 C72 1_555 1_555

#END
