
#######################################################################
#
#                 Cambridge Crystallographic Data Centre
#                                CCDC 
#
#######################################################################
#
# If this CIF has been generated from an entry in the Cambridge 
# Structural Database, then it will include bibliographic, chemical, 
# crystal, experimental, refinement or atomic coordinate data resulting 
# from the CCDC's data processing and validation procedures.
#
#######################################################################

data_YORJIZ
_symmetry_cell_setting           monoclinic
_symmetry_space_group_name_H-M   'P 21/c'
_symmetry_Int_Tables_number      14
_space_group_name_Hall           '-P 2ybc'
loop_
_symmetry_equiv_pos_site_id
_symmetry_equiv_pos_as_xyz
1 x,y,z
2 -x,1/2+y,1/2-z
3 -x,-y,-z
4 x,1/2-y,1/2+z
_cell_length_a                   6.9672(9)
_cell_length_b                   13.4568(16)
_cell_length_c                   9.6163(12)
_cell_angle_alpha                90
_cell_angle_beta                 110.715(2)
_cell_angle_gamma                90
_cell_volume                     843.302
loop_
_atom_site_label
_atom_site_type_symbol
_atom_site_fract_x
_atom_site_fract_y
_atom_site_fract_z
Pb1 Pb 0.77839(3) 0.075921(14) 0.31553(2)
S1 S 1.3513(3) -0.05426(14) 0.2212(2)
O1 O 0.5551(5) 0.1966(3) 0.4096(4)
O2 O 0.5521(5) 0.3207(3) 0.5649(5)
O3 O 0.7960(8) -0.0692(3) 0.1160(7)
H1 H 0.9186 -0.0820 0.1229
H2 H 0.7052 -0.1124 0.0734
N1 N 0.9777(6) 0.1970(3) 0.5148(5)
N2 N 0.9785(6) 0.3089(3) 0.6848(5)
C1 C 1.1714(8) 0.2139(4) 0.6031(7)
H3 H 1.2862 0.1826 0.5955
N3 N 1.1727(7) 0.0147(3) 0.4207(5)
C2 C 0.6385(7) 0.2590(4) 0.5112(6)
C3 C 0.8675(7) 0.2561(4) 0.5708(6)
N4 N 1.1751(7) 0.2820(3) 0.7032(5)
C4 C 1.2504(8) -0.0139(4) 0.3391(6)
Pb1C Pb 0.77839(3) 0.424079(14) 0.81553(2)
Pb1B Pb 1.22161(3) -0.075921(14) 0.68447(2)
O2C O 0.5521(5) 0.1793(3) 0.0649(5)
N2C N 0.9785(6) 0.1911(3) 0.1848(5)
N3B N 0.8273(7) -0.0147(3) 0.5793(5)
loop_
_geom_bond_atom_site_label_1
_geom_bond_atom_site_label_2
_geom_bond_site_symmetry_1
_geom_bond_site_symmetry_2
Pb1 O1 1_555 1_555
S1 C4 1_555 1_555
O1 C2 1_555 1_555
O2 C2 1_555 1_555
O3 Pb1 1_555 1_555
H1 O3 1_555 1_555
H2 O3 1_555 1_555
N1 Pb1 1_555 1_555
N2 C3 1_555 1_555
C1 N1 1_555 1_555
H3 C1 1_555 1_555
N3 Pb1 1_555 1_555
C2 C3 1_555 1_555
C3 N1 1_555 1_555
N4 N2 1_555 1_555
C4 N3 1_555 1_555
Pb1C O2 1_555 1_555
Pb1B N3 1_555 1_555
O2C Pb1 1_555 1_555
N2C Pb1 1_555 1_555
N3B Pb1 1_555 1_555
N2 Pb1C 1_555 1_555
C1 N4 1_555 1_555
Pb1B N3B 1_555 1_555

#END
