
#######################################################################
#
#                 Cambridge Crystallographic Data Centre
#                                CCDC 
#
#######################################################################
#
# If this CIF has been generated from an entry in the Cambridge 
# Structural Database, then it will include bibliographic, chemical, 
# crystal, experimental, refinement or atomic coordinate data resulting 
# from the CCDC's data processing and validation procedures.
#
#######################################################################

data_YORJUL
_symmetry_cell_setting           orthorhombic
_symmetry_space_group_name_H-M   'F d d 2'
_symmetry_Int_Tables_number      43
_space_group_name_Hall           'F 2 -2d'
loop_
_symmetry_equiv_pos_site_id
_symmetry_equiv_pos_as_xyz
1 x,y,z
2 -x,-y,z
3 1/4+x,1/4-y,1/4+z
4 1/4-x,1/4+y,1/4+z
5 x,1/2+y,1/2+z
6 -x,1/2-y,1/2+z
7 1/4+x,3/4-y,3/4+z
8 1/4-x,3/4+y,3/4+z
9 1/2+x,y,1/2+z
10 1/2-x,-y,1/2+z
11 3/4+x,1/4-y,3/4+z
12 3/4-x,1/4+y,3/4+z
13 1/2+x,1/2+y,z
14 1/2-x,1/2-y,z
15 3/4+x,3/4-y,1/4+z
16 3/4-x,3/4+y,1/4+z
_cell_length_a                   21.9944(13)
_cell_length_b                   33.3369(19)
_cell_length_c                   10.3969(5)
_cell_angle_alpha                90
_cell_angle_beta                 90
_cell_angle_gamma                90
_cell_volume                     7623.27
loop_
_atom_site_label
_atom_site_type_symbol
_atom_site_fract_x
_atom_site_fract_y
_atom_site_fract_z
H1 H 0.500(2) 0.0206(10) 0.918(4)
O1 O 0.5000 0.0000 0.8710(6)
H1A H 0.500(2) -0.0206(10) 0.918(4)
H2 H 0.282(4) 0.171(3) 0.896(9)
O2 O 0.3103(3) 0.16530(14) 0.9522(6)
H3 H 0.341(5) 0.156(7) 0.911(11)
O3 O 0.4776(2) 0.07357(18) -0.0046(6)
H4 H 0.474(2) 0.0591(13) 0.071(3)
O4 O 0.23065(12) -0.01375(8) 0.7030(2)
Ni1 Ni 0.19489(2) 0.024560(11) 0.99205(4)
O5 O 0.16086(12) 0.02827(7) 0.7795(2)
C1 C 0.07357(18) -0.07429(11) 0.9702(4)
H5 H 0.0407 -0.0808 0.9180
C2 C 0.01306(17) -0.13995(11) 1.1785(4)
H6 H -0.0034 -0.1667 1.1911
H7 H 0.0292 -0.1307 1.2601
C3 C 0.09375(17) -0.10139(11) 1.0607(4)
C4 C 0.14272(19) -0.08914(10) 1.1375(4)
H8 H 0.1572 -0.1059 1.2022
C5 C 0.06466(17) -0.14156(11) 1.0781(5)
H9 H 0.0951 -0.1608 1.1057
H10 H 0.0484 -0.1506 0.9965
C6 C 0.16916(19) -0.05271(10) 1.1175(4)
H11 H 0.2022 -0.0456 1.1686
C7 C 0.10164(17) -0.03783(12) 0.9563(4)
H12 H 0.0868 -0.0200 0.8951
N1 N 0.15024(14) -0.02667(8) 1.0285(3)
N2 N -0.12709(14) -0.05941(9) 1.0526(3)
C8 C -0.12084(17) -0.09595(10) 0.9987(4)
H13 H -0.1476 -0.1036 0.9339
C9 C -0.07642(19) -0.12211(11) 1.0363(4)
H14 H -0.0727 -0.1468 0.9954
C10 C -0.04327(17) -0.07473(10) 1.1882(4)
H15 H -0.0172 -0.0666 1.2535
C11 C -0.08797(17) -0.04949(11) 1.1456(3)
H16 H -0.0913 -0.0243 1.1831
C12 C -0.03697(17) -0.11205(9) 1.1348(4)
O6 O 0.25021(11) -0.06988(7) 0.4780(3)
O7 O 0.15211(12) -0.08463(8) 0.4947(3)
C13 C 0.19468(17) -0.06042(10) 0.4804(4)
C14 C 0.17843(16) -0.01626(10) 0.4582(3)
H17 H 0.1523 -0.0145 0.3820
O8 O 0.23282(11) 0.00646(7) 0.4341(2)
C15 C 0.14561(17) 0.00265(12) 0.5696(3)
H18 H 0.1092 -0.0128 0.5867
H19 H 0.1329 0.0294 0.5444
C16 C 0.18222(17) 0.00591(11) 0.6946(3)
H20 H 0.239(2) 0.0124(13) 0.356(2)
O4I O 0.26935(12) 0.01375(8) 1.2030(2)
Ni1I Ni 0.30511(2) -0.024560(11) 1.49205(4)
Ni1A Ni -0.19489(2) -0.024560(11) 0.99205(4)
Ni1I_2 Ni 0.30511(2) -0.024560(11) 0.49205(4)
O5I O 0.33914(12) -0.02827(7) 1.2795(2)
O5A O -0.16086(12) -0.02827(7) 0.7795(2)
C1A C -0.07357(18) 0.07429(11) 0.9702(4)
H5A H -0.0407 0.0808 0.9180
C2A C -0.01306(17) 0.13995(11) 1.1785(4)
H6A H 0.0034 0.1667 1.1911
H7A H -0.0292 0.1307 1.2601
C3A C -0.09375(17) 0.10139(11) 1.0607(4)
C4A C -0.14272(19) 0.08914(10) 1.1375(4)
H8A H -0.1572 0.1059 1.2022
C5A C -0.06466(17) 0.14156(11) 1.0781(5)
H9A H -0.0951 0.1608 1.1057
H10A H -0.0484 0.1506 0.9965
C6A C -0.16916(19) 0.05271(10) 1.1175(4)
H11A H -0.2022 0.0456 1.1686
C7A C -0.10164(17) 0.03783(12) 0.9563(4)
H12A H -0.0868 0.0200 0.8951
N1A N -0.15024(14) 0.02667(8) 1.0285(3)
N2A N 0.12709(14) 0.05941(9) 1.0526(3)
C8A C 0.12084(17) 0.09595(10) 0.9987(4)
H13A H 0.1476 0.1036 0.9339
C9A C 0.07642(19) 0.12211(11) 1.0363(4)
H14A H 0.0727 0.1468 0.9954
C10A C 0.04327(17) 0.07473(10) 1.1882(4)
H15A H 0.0172 0.0666 1.2535
C11A C 0.08797(17) 0.04949(11) 1.1456(3)
H16A H 0.0913 0.0243 1.1831
C12A C 0.03697(17) 0.11205(9) 1.1348(4)
O6I O 0.24979(11) 0.06988(7) 0.9780(3)
O6H O -0.24979(11) -0.06988(7) 0.9780(3)
O7I O 0.34789(12) 0.08463(8) 0.9947(3)
C13I C 0.30532(17) 0.06042(10) 0.9804(4)
C14I C 0.32157(16) 0.01626(10) 0.9582(3)
H17I H 0.3477 0.0145 0.8820
O8I O 0.26718(11) -0.00646(7) 0.9341(2)
O8H O -0.26718(11) 0.00646(7) 0.9341(2)
C15I C 0.35439(17) -0.00265(12) 1.0696(3)
H18I H 0.3908 0.0128 1.0867
H19I H 0.3671 -0.0294 1.0444
C16I C 0.31778(17) -0.00591(11) 1.1946(3)
H20I H 0.261(2) -0.0124(13) 0.856(2)
H20H H -0.261(2) 0.0124(13) 0.856(2)
loop_
_geom_bond_atom_site_label_1
_geom_bond_atom_site_label_2
_geom_bond_site_symmetry_1
_geom_bond_site_symmetry_2
H1 O1 1_555 1_555
O1 H1A 1_555 1_555
H2 O2 1_555 1_555
O2 H3 1_555 1_555
O3 H4 1_555 1_555
O4 C16 1_555 1_555
Ni1 O5 1_555 1_555
O5 C16 1_555 1_555
C1 H5 1_555 1_555
C2 H6 1_555 1_555
H7 C2 1_555 1_555
C3 C1 1_555 1_555
C4 C3 1_555 1_555
H8 C4 1_555 1_555
C5 C2 1_555 1_555
H9 C5 1_555 1_555
H10 C5 1_555 1_555
C6 C4 1_555 1_555
H11 C6 1_555 1_555
C7 C1 1_555 1_555
H12 C7 1_555 1_555
N1 Ni1 1_555 1_555
N2 C8 1_555 1_555
C8 H13 1_555 1_555
C9 C8 1_555 1_555
H14 C9 1_555 1_555
C10 H15 1_555 1_555
C11 N2 1_555 1_555
H16 C11 1_555 1_555
C12 C2 1_555 1_555
O6 C13 1_555 1_555
O7 C13 1_555 1_555
C13 C14 1_555 1_555
C14 H17 1_555 1_555
O8 C14 1_555 1_555
C15 C14 1_555 1_555
H18 C15 1_555 1_555
H19 C15 1_555 1_555
C16 C15 1_555 1_555
H20 O8 1_555 1_555
O4I C16I 1_555 1_555
Ni1I O5I 1_555 1_555
Ni1A N2 1_555 1_555
Ni1I_2 O6 1_555 1_555
O5I C16I 1_555 1_555
O5A Ni1A 1_555 1_555
C1A H5A 1_555 1_555
C2A H6A 1_555 1_555
H7A C2A 1_555 1_555
C3A C1A 1_555 1_555
C4A C3A 1_555 1_555
H8A C4A 1_555 1_555
C5A C2A 1_555 1_555
H9A C5A 1_555 1_555
H10A C5A 1_555 1_555
C6A C4A 1_555 1_555
H11A C6A 1_555 1_555
C7A C1A 1_555 1_555
H12A C7A 1_555 1_555
N1A Ni1A 1_555 1_555
N2A Ni1 1_555 1_555
C8A N2A 1_555 1_555
H13A C8A 1_555 1_555
C9A C8A 1_555 1_555
H14A C9A 1_555 1_555
C10A H15A 1_555 1_555
C11A N2A 1_555 1_555
H16A C11A 1_555 1_555
C12A C2A 1_555 1_555
O6I Ni1 1_555 1_555
O6H Ni1A 1_555 1_555
O7I C13I 1_555 1_555
C13I O6I 1_555 1_555
C14I C13I 1_555 1_555
H17I C14I 1_555 1_555
O8I Ni1 1_555 1_555
O8H Ni1A 1_555 1_555
C15I C14I 1_555 1_555
H18I C15I 1_555 1_555
H19I C15I 1_555 1_555
C16I C15I 1_555 1_555
H20I O8I 1_555 1_555
H20H O8H 1_555 1_555
C3 C5 1_555 1_555
C6 N1 1_555 1_555
C7 N1 1_555 1_555
C9 C12 1_555 1_555
C10 C11 1_555 1_555
C10 C12 1_555 1_555
O8 Ni1I_2 1_555 1_555
C3A C5A 1_555 1_555
C6A N1A 1_555 1_555
C7A N1A 1_555 1_555
C9A C12A 1_555 1_555
C10A C11A 1_555 1_555
C10A C12A 1_555 1_555
C14I O8I 1_555 1_555

#END
