
#######################################################################
#
#                 Cambridge Crystallographic Data Centre
#                                CCDC 
#
#######################################################################
#
# If this CIF has been generated from an entry in the Cambridge 
# Structural Database, then it will include bibliographic, chemical, 
# crystal, experimental, refinement or atomic coordinate data resulting 
# from the CCDC's data processing and validation procedures.
#
#######################################################################

data_YORKIA
_symmetry_cell_setting           triclinic
_symmetry_space_group_name_H-M   'P -1'
_symmetry_Int_Tables_number      2
_space_group_name_Hall           '-P 1'
loop_
_symmetry_equiv_pos_site_id
_symmetry_equiv_pos_as_xyz
1 x,y,z
2 -x,-y,-z
_cell_length_a                   5.746(3)
_cell_length_b                   6.526(4)
_cell_length_c                   14.701(8)
_cell_angle_alpha                92.348(8)
_cell_angle_beta                 99.622(6)
_cell_angle_gamma                106.877(7)
_cell_volume                     517.755
loop_
_atom_site_label
_atom_site_type_symbol
_atom_site_fract_x
_atom_site_fract_y
_atom_site_fract_z
C1 C 0.528(3) 0.234(2) 0.2169(9)
C2 C 0.314(3) 0.135(3) 0.1519(12)
H1 H 0.1751 0.0531 0.1728
C3 C 0.298(3) 0.153(2) 0.0572(10)
C4 C 0.524(3) 0.261(3) 0.0248(12)
H2 H 0.5244 0.2654 -0.0383
C5 C 0.738(3) 0.358(3) 0.0894(11)
H3 H 0.8810 0.4338 0.0692
C6 C 0.743(3) 0.343(2) 0.1830(11)
C7 C 0.990(3) 0.421(2) 0.2514(11)
Cd1 Cd 0.4853(2) -0.27585(18) 0.35003(8)
N1 N 0.090(3) 0.062(2) -0.0128(10)
O1 O 0.443(2) 0.0708(19) 0.3541(7)
O2 O 0.605(2) 0.4176(17) 0.3649(7)
O3 O 1.038(2) 0.2992(18) 0.3102(9)
O4 O 1.131(2) 0.6076(18) 0.2443(8)
O5 O 0.219(2) -0.357(2) 0.4560(8)
H4 H 0.2795 -0.3278 0.5172
H5 H 0.0552 -0.4178 0.4357
O6 O 0.808(3) -0.135(2) 0.2804(11)
H6 H 0.9595 -0.0711 0.3148
H7 H 0.7866 -0.1436 0.2181
O7 O 0.766(3) -0.158(2) 0.4946(9)
H8 H 0.7088 -0.1711 0.5481
H9 H 0.9290 -0.0996 0.4956
C8 C 0.520(3) 0.239(3) 0.3223(10)
C1A C -0.528(3) -0.234(2) -0.2169(9)
C2A C -0.314(3) -0.135(3) -0.1519(12)
H1A H -0.1751 -0.0531 -0.1728
C3A C -0.298(3) -0.153(2) -0.0572(10)
C4A C -0.524(3) -0.261(3) -0.0248(12)
H2A H -0.5244 -0.2654 0.0383
C5A C -0.738(3) -0.358(3) -0.0894(11)
H3A H -0.8810 -0.4338 -0.0692
C6A C -0.743(3) -0.343(2) -0.1830(11)
C7A C -0.990(3) -0.421(2) -0.2514(11)
Cd1A Cd -0.4853(2) 0.27585(18) -0.35003(8)
Cd1_2 Cd 0.4853(2) 0.72415(18) 0.35003(8)
Cd1_3 Cd 1.4853(2) 0.72415(18) 0.35003(8)
Cd1A_2 Cd -1.4853(2) -0.72415(18) -0.35003(8)
Cd1A_3 Cd -0.4853(2) -0.72415(18) -0.35003(8)
N1A N -0.090(3) -0.062(2) 0.0128(10)
O1A O -0.443(2) -0.0708(19) -0.3541(7)
O2A O -0.605(2) -0.4176(17) -0.3649(7)
O2_2 O 0.605(2) -0.5824(17) 0.3649(7)
O2A_2 O -0.605(2) 0.5824(17) -0.3649(7)
O3A O -1.038(2) -0.2992(18) -0.3102(9)
O4A O -1.131(2) -0.6076(18) -0.2443(8)
O4_2 O 0.131(2) -0.3924(18) 0.2443(8)
O4A_2 O -0.131(2) 0.3924(18) -0.2443(8)
O5A O -0.219(2) 0.357(2) -0.4560(8)
H4A H -0.2795 0.3278 -0.5172
H5A H -0.0552 0.4178 -0.4357
O6A O -0.808(3) 0.135(2) -0.2804(11)
H6A H -0.9595 0.0711 -0.3148
H7A H -0.7866 0.1436 -0.2181
O7A O -0.766(3) 0.158(2) -0.4946(9)
H8A H -0.7088 0.1711 -0.5481
H9A H -0.9290 0.0996 -0.4956
C8A C -0.520(3) -0.239(3) -0.3223(10)
loop_
_geom_bond_atom_site_label_1
_geom_bond_atom_site_label_2
_geom_bond_site_symmetry_1
_geom_bond_site_symmetry_2
C1 C2 1_555 1_555
C2 H1 1_555 1_555
C3 C2 1_555 1_555
C4 C3 1_555 1_555
H2 C4 1_555 1_555
C5 C4 1_555 1_555
H3 C5 1_555 1_555
C6 C1 1_555 1_555
C7 C6 1_555 1_555
Cd1 O1 1_555 1_555
N1 C3 1_555 1_555
O1 C8 1_555 1_555
O2 C8 1_555 1_555
O3 C7 1_555 1_555
O4 C7 1_555 1_555
O5 Cd1 1_555 1_555
H4 O5 1_555 1_555
H5 O5 1_555 1_555
O6 Cd1 1_555 1_555
H6 O6 1_555 1_555
H7 O6 1_555 1_555
O7 Cd1 1_555 1_555
H8 O7 1_555 1_555
H9 O7 1_555 1_555
C8 C1 1_555 1_555
C1A C2A 1_555 1_555
C2A H1A 1_555 1_555
C3A C2A 1_555 1_555
C4A C3A 1_555 1_555
H2A C4A 1_555 1_555
C5A C4A 1_555 1_555
H3A C5A 1_555 1_555
C6A C1A 1_555 1_555
C7A C6A 1_555 1_555
Cd1A O1A 1_555 1_555
Cd1_2 O2 1_555 1_555
Cd1_3 O4 1_555 1_555
Cd1A_2 O4A 1_555 1_555
Cd1A_3 O2A 1_555 1_555
N1A N1 1_555 1_555
O1A C8A 1_555 1_555
O2A C8A 1_555 1_555
O2_2 Cd1 1_555 1_555
O2A_2 Cd1A 1_555 1_555
O3A C7A 1_555 1_555
O4A C7A 1_555 1_555
O4_2 Cd1 1_555 1_555
O4A_2 Cd1A 1_555 1_555
O5A Cd1A 1_555 1_555
H4A O5A 1_555 1_555
H5A O5A 1_555 1_555
O6A Cd1A 1_555 1_555
H6A O6A 1_555 1_555
H7A O6A 1_555 1_555
O7A Cd1A 1_555 1_555
H8A O7A 1_555 1_555
H9A O7A 1_555 1_555
C8A C1A 1_555 1_555
C5 C6 1_555 1_555
C3A N1A 1_555 1_555
C5A C6A 1_555 1_555

#END
