
#######################################################################
#
#                 Cambridge Crystallographic Data Centre
#                                CCDC 
#
#######################################################################
#
# If this CIF has been generated from an entry in the Cambridge 
# Structural Database, then it will include bibliographic, chemical, 
# crystal, experimental, refinement or atomic coordinate data resulting 
# from the CCDC's data processing and validation procedures.
#
#######################################################################

data_YORKOG
_symmetry_cell_setting           orthorhombic
_symmetry_space_group_name_H-M   'P c c n'
_symmetry_Int_Tables_number      56
_space_group_name_Hall           '-P 2ab 2ac'
loop_
_symmetry_equiv_pos_site_id
_symmetry_equiv_pos_as_xyz
1 x,y,z
2 1/2-x,1/2-y,z
3 -x,1/2+y,1/2-z
4 1/2+x,-y,1/2-z
5 -x,-y,-z
6 1/2+x,1/2+y,-z
7 x,1/2-y,1/2+z
8 1/2-x,y,1/2+z
_cell_length_a                   21.140(3)
_cell_length_b                   10.4028(16)
_cell_length_c                   19.250(3)
_cell_angle_alpha                90
_cell_angle_beta                 90
_cell_angle_gamma                90
_cell_volume                     4233.37
loop_
_atom_site_label
_atom_site_type_symbol
_atom_site_fract_x
_atom_site_fract_y
_atom_site_fract_z
H1 H 0.71608(4) 0.76(14) 0.527(3)
O4 O 0.7500 0.7500 0.5519(14)
H1A H 0.78392(4) 0.74(14) 0.527(3)
H2 H 0.7841(3) 0.244(11) 0.7370(11)
O1 O 0.7500 0.2500 0.7127(6)
H2A H 0.7159(3) 0.256(11) 0.7370(11)
O2 O 0.9443(8) 0.030(2) 0.9587(10)
H25 H 0.947(5) 0.111(10) 0.969(18)
H26 H 0.981(2) 0.004(8) 0.945(4)
H3 H 0.810(7) 0.143(8) 0.986(5)
O3 O 0.8169(17) 0.203(3) 0.9562(13)
H27 H 0.813(10) 0.276(5) 0.977(6)
H4 H 0.759(7) 0.105(12) 0.526(3)
H5 H 0.7840(19) 0.115(5) 0.593(2)
O5 O 0.7559(17) 0.145(4) 0.5654(17)
H6 H 0.814(3) 0.562(8) 0.588(3)
H7 H 0.824(14) 0.57(2) 0.517(5)
O6 O 0.8312(14) 0.527(3) 0.5526(12)
Ni1 Ni 0.96933(3) 0.77509(7) 0.69135(4)
N1 N 0.8895(2) 0.8393(5) 0.7346(3)
N2 N 0.5533(3) 0.8426(5) 1.0972(3)
C1 C 0.5584(4) 0.9673(7) 1.0832(4)
H8 H 0.5455 1.0261 1.1167
C2 C 0.8870(3) 0.8769(6) 0.8008(3)
H9 H 0.9233 0.8717 0.8278
C3 C 0.6923(3) 0.9314(7) 0.8869(4)
H10 H 0.7197 0.9595 0.9244
H11 H 0.6936 0.8383 0.8852
C4 C 0.5992(3) 0.9297(7) 0.9698(3)
C5 C 0.8321(3) 0.9231(7) 0.8304(4)
H12 H 0.8320 0.9484 0.8767
C6 C 0.8359(3) 0.8478(8) 0.6977(4)
H13 H 0.8363 0.8197 0.6518
C7 C 0.7161(4) 0.9846(10) 0.8197(5)
H14 H 0.7210 1.0767 0.8252
H15 H 0.6837 0.9709 0.7848
C8 C 0.7771(3) 0.9323(7) 0.7918(4)
C9 C 0.7809(4) 0.8956(8) 0.7239(4)
H16 H 0.7456 0.9031 0.6954
C10 C 0.5817(4) 1.0128(7) 1.0216(4)
H17 H 0.5858 1.1009 1.0149
C11 C 0.5678(4) 0.7621(7) 1.0461(4)
H18 H 0.5626 0.6744 1.0535
C12 C 0.6251(4) 0.9749(8) 0.9016(4)
H19 H 0.6239 1.0681 0.9006
H20 H 0.5979 0.9439 0.8647
C13 C 0.5901(4) 0.8020(7) 0.9834(4)
H21 H 0.5994 0.7415 0.9493
O7 O 0.9228(2) 0.5660(4) 0.6748(2)
O8 O 0.9488(2) 0.2220(4) 0.8448(2)
O9 O 0.97498(19) 0.4668(3) 0.7593(2)
O10 O 0.9950(2) 0.2025(4) 0.7192(2)
O11 O 0.8480(2) 0.2254(5) 0.8100(3)
C14 C 0.9276(3) 0.2212(5) 0.7234(3)
H22 H 0.9072 0.1474 0.7009
C15 C 0.9057(3) 0.2245(5) 0.7981(4)
C16 C 0.9382(3) 0.4674(5) 0.7070(3)
C17 C 0.9105(3) 0.3411(6) 0.6817(3)
H23 H 0.9240 0.3279 0.6341
H24 H 0.8648 0.3492 0.6812
H28 H 1.007(4) 0.126(3) 0.721(4)
Ni1G Ni 0.53067(3) 0.77509(7) 0.19135(4)
Ni1G_2 Ni 0.53067(3) 0.77509(7) 1.19135(4)
Ni1B Ni 1.03067(3) 0.27509(7) 0.80865(4)
Ni1B_2 Ni 1.03067(3) 1.27509(7) 0.80865(4)
N1G N 0.6105(2) 0.8393(5) 0.2346(3)
N2G N 0.9467(3) 0.8426(5) 0.5972(3)
N2_2 N 0.5533(3) 0.8426(5) 0.0972(3)
C1G C 0.9416(4) 0.9673(7) 0.5832(4)
H8G H 0.9545 1.0261 0.6167
C2G C 0.6130(3) 0.8769(6) 0.3008(3)
H9G H 0.5767 0.8717 0.3278
C3G C 0.8077(3) 0.9314(7) 0.3869(4)
H10G H 0.7803 0.9595 0.4244
H11G H 0.8064 0.8383 0.3852
C4G C 0.9008(3) 0.9297(7) 0.4698(3)
C5G C 0.6679(3) 0.9231(7) 0.3304(4)
H12G H 0.6680 0.9484 0.3767
C6G C 0.6641(3) 0.8478(8) 0.1977(4)
H13G H 0.6637 0.8197 0.1518
C7G C 0.7839(4) 0.9846(10) 0.3197(5)
H14G H 0.7790 1.0767 0.3252
H15G H 0.8163 0.9709 0.2848
C8G C 0.7229(3) 0.9323(7) 0.2918(4)
C9G C 0.7191(4) 0.8956(8) 0.2239(4)
H16G H 0.7544 0.9031 0.1954
C10G C 0.9183(4) 1.0128(7) 0.5216(4)
H17G H 0.9142 1.1009 0.5149
C11G C 0.9322(4) 0.7621(7) 0.5461(4)
H18G H 0.9374 0.6744 0.5535
C12G C 0.8749(4) 0.9749(8) 0.4016(4)
H19G H 0.8761 1.0681 0.4006
H20G H 0.9021 0.9439 0.3647
C13G C 0.9099(4) 0.8020(7) 0.4834(4)
H21G H 0.9006 0.7415 0.4493
O7B O 1.0772(2) 1.0660(4) 0.8252(2)
O7G O 0.5772(2) 0.5660(4) 0.1748(2)
O8B O 1.0512(2) 0.7220(4) 0.6552(2)
O8E O 0.4488(2) 0.7220(4) 0.1552(2)
O9B O 1.02502(19) 0.9668(3) 0.7407(2)
O9E O 0.47498(19) 0.9668(3) 0.2407(2)
O10B O 1.0050(2) 0.7025(4) 0.7808(2)
O10E O 0.4950(2) 0.7025(4) 0.2808(2)
O11B O 1.1520(2) 0.7254(5) 0.6900(3)
C14B C 1.0724(3) 0.7212(5) 0.7766(3)
H22B H 1.0928 0.6474 0.7991
C15B C 1.0943(3) 0.7245(5) 0.7019(4)
C16B C 1.0618(3) 0.9674(5) 0.7930(3)
C17B C 1.0895(3) 0.8411(6) 0.8183(3)
H23B H 1.0760 0.8279 0.8659
H24B H 1.1352 0.8492 0.8188
H28B H 0.993(4) 0.626(3) 0.779(4)
H28E H 0.507(4) 0.626(3) 0.279(4)
loop_
_geom_bond_atom_site_label_1
_geom_bond_atom_site_label_2
_geom_bond_site_symmetry_1
_geom_bond_site_symmetry_2
H1 O4 1_555 1_555
H2 O1 1_555 1_555
O1 H2A 1_555 1_555
O2 H25 1_555 1_555
H3 O3 1_555 1_555
O3 H27 1_555 1_555
O4 H1A 1_555 1_555
H4 O5 1_555 1_555
H5 O5 1_555 1_555
H6 O6 1_555 1_555
H7 O6 1_555 1_555
Ni1 N1 1_555 1_555
N1 C2 1_555 1_555
N2 C1 1_555 1_555
C1 H8 1_555 1_555
C2 H9 1_555 1_555
C3 H10 1_555 1_555
H11 C3 1_555 1_555
C4 C10 1_555 1_555
C5 C2 1_555 1_555
H12 C5 1_555 1_555
C6 N1 1_555 1_555
H13 C6 1_555 1_555
C7 C3 1_555 1_555
H14 C7 1_555 1_555
H15 C7 1_555 1_555
C8 C5 1_555 1_555
C9 C6 1_555 1_555
H16 C9 1_555 1_555
C10 C1 1_555 1_555
H17 C10 1_555 1_555
C11 N2 1_555 1_555
H18 C11 1_555 1_555
C12 C3 1_555 1_555
H19 C12 1_555 1_555
H20 C12 1_555 1_555
C13 C4 1_555 1_555
H21 C13 1_555 1_555
O7 Ni1 1_555 1_555
O8 C15 1_555 1_555
O9 C16 1_555 1_555
O10 C14 1_555 1_555
O11 C15 1_555 1_555
C14 H22 1_555 1_555
C15 C14 1_555 1_555
C16 O7 1_555 1_555
C17 C14 1_555 1_555
H23 C17 1_555 1_555
H24 C17 1_555 1_555
H26 O2 1_555 1_555
H28 O10 1_555 1_555
Ni1G N1G 1_555 1_555
Ni1G_2 N2 1_555 1_555
Ni1B O8 1_555 1_555
Ni1B_2 O7B 1_555 1_555
N1G C2G 1_555 1_555
N2G Ni1 1_555 1_555
N2_2 Ni1G 1_555 1_555
C1G N2G 1_555 1_555
H8G C1G 1_555 1_555
C2G H9G 1_555 1_555
C3G H10G 1_555 1_555
H11G C3G 1_555 1_555
C4G C10G 1_555 1_555
C5G C2G 1_555 1_555
H12G C5G 1_555 1_555
C6G N1G 1_555 1_555
H13G C6G 1_555 1_555
C7G C3G 1_555 1_555
H14G C7G 1_555 1_555
H15G C7G 1_555 1_555
C8G C5G 1_555 1_555
C9G C6G 1_555 1_555
H16G C9G 1_555 1_555
C10G C1G 1_555 1_555
H17G C10G 1_555 1_555
C11G N2G 1_555 1_555
H18G C11G 1_555 1_555
C12G C3G 1_555 1_555
H19G C12G 1_555 1_555
H20G C12G 1_555 1_555
C13G C4G 1_555 1_555
H21G C13G 1_555 1_555
O7B C16B 1_555 1_555
O7G Ni1G 1_555 1_555
O8B Ni1 1_555 1_555
O8E Ni1G 1_555 1_555
O9B Ni1 1_555 1_555
O9E Ni1G 1_555 1_555
O10B Ni1 1_555 1_555
O10E Ni1G 1_555 1_555
O11B C15B 1_555 1_555
C14B O10B 1_555 1_555
H22B C14B 1_555 1_555
C15B O8B 1_555 1_555
C16B O9B 1_555 1_555
C17B C14B 1_555 1_555
H23B C17B 1_555 1_555
H24B C17B 1_555 1_555
H28B O10B 1_555 1_555
H28E O10E 1_555 1_555
C4 C12 1_555 1_555
C7 C8 1_555 1_555
C8 C9 1_555 1_555
C11 C13 1_555 1_555
O9 Ni1B 1_555 1_555
O10 Ni1B 1_555 1_555
C16 C17 1_555 1_555
C4G C12G 1_555 1_555
C7G C8G 1_555 1_555
C8G C9G 1_555 1_555
C11G C13G 1_555 1_555
C14B C15B 1_555 1_555
C16B C17B 1_555 1_555

#END
