
#######################################################################
#
#                 Cambridge Crystallographic Data Centre
#                                CCDC 
#
#######################################################################
#
# If this CIF has been generated from an entry in the Cambridge 
# Structural Database, then it will include bibliographic, chemical, 
# crystal, experimental, refinement or atomic coordinate data resulting 
# from the CCDC's data processing and validation procedures.
#
#######################################################################

data_YORNOK
_symmetry_cell_setting           triclinic
_symmetry_space_group_name_H-M   'P -1'
_symmetry_Int_Tables_number      2
_space_group_name_Hall           '-P 1'
loop_
_symmetry_equiv_pos_site_id
_symmetry_equiv_pos_as_xyz
1 x,y,z
2 -x,-y,-z
_cell_length_a                   8.1471(8)
_cell_length_b                   13.6900(14)
_cell_length_c                   13.8330(14)
_cell_angle_alpha                62.541(2)
_cell_angle_beta                 86.678(2)
_cell_angle_gamma                87.729(2)
_cell_volume                     1366.59
loop_
_atom_site_label
_atom_site_type_symbol
_atom_site_fract_x
_atom_site_fract_y
_atom_site_fract_z
Co1 Co -1.0000 0.0000 0.5000
Co2 Co -1.23784(5) -0.13300(3) 0.74645(3)
O1 O -1.1472(3) 0.01912(17) 0.62775(17)
O2 O -1.3438(3) -0.19503(19) 0.65275(19)
O3 O -1.0277(3) -0.2303(2) 0.7726(2)
O4 O -1.1923(3) -0.10326(19) 0.50059(18)
O5 O -1.1856(4) 0.0534(2) 0.7652(2)
N1 N -1.4901(3) -0.0934(2) 0.7934(2)
C1 C -0.7497(4) -0.2841(3) 0.7694(3)
N2 N -1.2451(3) -0.1934(2) 0.9269(2)
C2 C -0.8950(4) -0.2133(3) 0.7163(3)
C3 C -1.2897(4) -0.1773(3) 0.5597(3)
C4 C -1.1528(4) 0.0856(2) 0.6694(3)
C5 C -1.1131(5) 0.2019(3) 0.5939(3)
C6 C -0.7596(4) -0.3654(3) 0.8689(3)
C7 C -1.4228(5) -0.3412(3) 0.5706(3)
C8 C -1.3423(5) -0.2508(3) 0.5160(3)
C9 C -1.3842(4) -0.1674(3) 0.9688(3)
C10 C -1.5151(4) -0.1130(3) 0.8967(3)
C11 C -1.0986(5) 0.2761(3) 0.6266(3)
C12 C -1.6084(4) -0.0416(3) 0.7257(3)
H1 H -1.5912 -0.0256 0.6529
C13 C -1.0499(6) 0.3902(3) 0.5606(3)
C14 C -1.0072(6) 0.4333(3) 0.4510(4)
H2 H -1.0124 0.3891 0.4166
C15 C -0.9568(7) 0.5407(3) 0.3915(3)
H3 H -0.9268 0.5673 0.3179
C16 C -1.6621(5) -0.0839(3) 0.9362(3)
C17 C -1.7846(4) -0.0308(4) 0.8617(4)
H4 H -1.8840 -0.0102 0.8842
C18 C -1.7571(4) -0.0099(4) 0.7579(3)
H5 H -1.8372 0.0256 0.7074
C19 C -1.1204(6) -0.2378(4) 0.9906(3)
H6 H -1.0253 -0.2573 0.9626
C20 C -1.6741(6) -0.1056(4) 1.0472(4)
H7 H -1.7698 -0.0857 1.0741
C21 C -1.4015(6) -0.1860(4) 1.0769(3)
C22 C -1.5503(6) -0.1542(4) 1.1139(3)
H8 H -1.5624 -0.1674 1.1862
C23 C -1.2648(7) -0.2329(5) 1.1402(4)
H9 H -1.2705 -0.2478 1.2131
C24 C -1.5327(9) -0.5177(5) 0.6021(4)
H10 H -1.5583 -0.5327 0.6740
C25 C -1.1269(7) -0.2565(5) 1.0985(4)
H11 H -1.0358 -0.2852 1.1410
C26 C -1.5665(9) -0.5961(4) 0.5683(4)
H12 H -1.6120 -0.6625 0.6189
C27 C -1.4636(5) -0.4207(3) 0.5328(3)
O6 O -0.8731(3) -0.14158(18) 0.62144(17)
C28 C -0.6608(4) -0.5186(3) 1.0375(3)
H13 H -0.7697 -0.5314 1.0636
C29 C -0.5388(4) -0.5834(3) 1.1028(3)
H14 H -0.5663 -0.6396 1.1718
C30 C -0.6257(4) -0.4343(3) 0.9333(3)
H15 H -0.655(3) -0.263(3) 0.724(3)
H16 H -0.862(2) -0.374(3) 0.904(3)
H17 H -1.123(5) 0.245(3) 0.7010(11)
H18 H -1.084(5) 0.230(3) 0.5204(12)
H19 H -1.323(5) -0.232(4) 0.4431(13)
H20 H -1.430(5) -0.363(3) 0.6447(11)
O1A O -0.8528(3) 0.98088(17) 0.37225(17)
O5A O -0.8144(4) 0.9466(2) 0.2348(2)
C4A C -0.8472(4) 0.9144(2) 0.3306(3)
C5A C -0.8869(5) 0.7981(3) 0.4061(3)
C11A C -0.9014(5) 0.7239(3) 0.3734(3)
C13A C -0.9501(6) 0.6098(3) 0.4394(3)
C14A C -0.9928(6) 0.5667(3) 0.5490(4)
H2A H -0.9876 0.6109 0.5834
C15A C -1.0432(7) 0.4593(3) 0.6085(3)
H3A H -1.0732 0.4327 0.6821
H17A H -0.877(5) 0.755(3) 0.2990(11)
H18A H -0.916(5) 0.770(3) 0.4796(12)
O2A O -1.6562(3) -0.80497(19) 0.34725(19)
O4A O -1.8077(3) -0.89674(19) 0.49941(18)
C3A C -1.7103(4) -0.8227(3) 0.4403(3)
C7A C -1.5772(5) -0.6588(3) 0.4294(3)
C8A C -1.6577(5) -0.7492(3) 0.4840(3)
C24A C -1.4673(9) -0.4823(5) 0.3979(4)
H10A H -1.4417 -0.4673 0.3260
C26A C -1.4335(9) -0.4039(4) 0.4317(4)
H12A H -1.3880 -0.3375 0.3811
C27A C -1.5364(5) -0.5793(3) 0.4672(3)
H19A H -1.677(5) -0.768(4) 0.5569(13)
H20A H -1.570(5) -0.637(3) 0.3553(11)
O3A O 0.0277(3) -0.7697(2) 1.2274(2)
C1A C -0.2503(4) -0.7159(3) 1.2306(3)
C2A C -0.1050(4) -0.7867(3) 1.2837(3)
C6A C -0.2404(4) -0.6346(3) 1.1311(3)
O6A O -0.1269(3) -0.85842(18) 1.37856(17)
C28A C -0.3392(4) -0.4814(3) 0.9625(3)
H13A H -0.2303 -0.4686 0.9364
C29A C -0.4612(4) -0.4166(3) 0.8972(3)
H14A H -0.4337 -0.3604 0.8282
C30A C -0.3743(4) -0.5657(3) 1.0667(3)
H15A H -0.345(3) -0.737(3) 1.276(3)
H16A H -0.138(2) -0.626(3) 1.096(3)
Co2A Co -1.76216(5) -0.86700(3) 0.25355(3)
N1A N -1.5099(3) -0.9066(2) 0.2066(2)
N2A N -1.7549(3) -0.8066(2) 0.0731(2)
C9A C -1.6158(4) -0.8326(3) 0.0312(3)
C10A C -1.4849(4) -0.8870(3) 0.1033(3)
C12A C -1.3916(4) -0.9584(3) 0.2743(3)
H1A H -1.4088 -0.9744 0.3471
C16A C -1.3379(5) -0.9161(3) 0.0638(3)
C17A C -1.2154(4) -0.9692(4) 0.1383(4)
H4A H -1.1160 -0.9898 0.1158
C18A C -1.2429(4) -0.9901(4) 0.2421(3)
H5A H -1.1628 -1.0256 0.2926
C19A C -1.8796(6) -0.7622(4) 0.0094(3)
H6A H -1.9747 -0.7427 0.0374
C20A C -1.3259(6) -0.8944(4) -0.0472(4)
H7A H -1.2302 -0.9143 -0.0741
C21A C -1.5985(6) -0.8140(4) -0.0769(3)
C22A C -1.4497(6) -0.8458(4) -0.1139(3)
H8A H -1.4376 -0.8326 -0.1862
C23A C -1.7352(7) -0.7671(5) -0.1402(4)
H9A H -1.7295 -0.7522 -0.2131
C25A C -1.8731(7) -0.7435(5) -0.0985(4)
H11A H -1.9642 -0.7148 -0.1410
Co1_2 Co -2.0000 -1.0000 0.5000
Co1_3 Co -1.0000 1.0000 0.5000
Co1_4 Co 0.0000 -1.0000 1.5000
Co2A_2 Co -0.76216(5) 1.13300(3) 0.25355(3)
Co2A_3 Co 0.23784(5) -0.86700(3) 1.25355(3)
O1A_2 O -1.8528(3) -1.01912(17) 0.37225(17)
O1A_3 O -0.8528(3) -0.01912(17) 0.37225(17)
O3A_2 O -1.9723(3) -0.7697(2) 0.2274(2)
O4A_2 O -0.8077(3) 0.10326(19) 0.49941(18)
O6A_2 O -1.1269(3) 0.14158(18) 0.37856(17)
loop_
_geom_bond_atom_site_label_1
_geom_bond_atom_site_label_2
_geom_bond_site_symmetry_1
_geom_bond_site_symmetry_2
Co1 O1 1_555 1_555
Co2 O1 1_555 1_555
O1 C4 1_555 1_555
O2 Co2 1_555 1_555
O3 Co2 1_555 1_555
O4 Co1 1_555 1_555
O5 C4 1_555 1_555
N1 Co2 1_555 1_555
C1 C2 1_555 1_555
N2 Co2 1_555 1_555
C2 O3 1_555 1_555
C3 O2 1_555 1_555
C4 C5 1_555 1_555
C5 C11 1_555 1_555
C6 C1 1_555 1_555
C7 C8 1_555 1_555
C8 C3 1_555 1_555
C9 N2 1_555 1_555
C10 N1 1_555 1_555
C11 C13 1_555 1_555
C12 N1 1_555 1_555
H1 C12 1_555 1_555
C13 C14 1_555 1_555
C14 H2 1_555 1_555
C15 C14 1_555 1_555
H3 C15 1_555 1_555
C16 C10 1_555 1_555
C17 C16 1_555 1_555
H4 C17 1_555 1_555
C18 C12 1_555 1_555
H5 C18 1_555 1_555
C19 N2 1_555 1_555
H6 C19 1_555 1_555
C20 C16 1_555 1_555
H7 C20 1_555 1_555
C21 C9 1_555 1_555
C22 C20 1_555 1_555
H8 C22 1_555 1_555
C23 C21 1_555 1_555
H9 C23 1_555 1_555
C24 H10 1_555 1_555
C25 C19 1_555 1_555
H11 C25 1_555 1_555
C26 C24 1_555 1_555
H12 C26 1_555 1_555
C27 C7 1_555 1_555
O6 Co1 1_555 1_555
C28 H13 1_555 1_555
C29 C28 1_555 1_555
H14 C29 1_555 1_555
C30 C6 1_555 1_555
H15 C1 1_555 1_555
H16 C6 1_555 1_555
H17 C11 1_555 1_555
H18 C5 1_555 1_555
H19 C8 1_555 1_555
H20 C7 1_555 1_555
O1A C4A 1_555 1_555
O5A C4A 1_555 1_555
C4A C5A 1_555 1_555
C5A C11A 1_555 1_555
C11A C13A 1_555 1_555
C13A C15 1_555 1_555
C14A C13A 1_555 1_555
H2A C14A 1_555 1_555
C15A C13 1_555 1_555
H3A C15A 1_555 1_555
H17A C11A 1_555 1_555
H18A C5A 1_555 1_555
O2A C3A 1_555 1_555
O4A C3A 1_555 1_555
C3A C8A 1_555 1_555
C7A C8A 1_555 1_555
C8A H19A 1_555 1_555
C24A H10A 1_555 1_555
C26A C27 1_555 1_555
H12A C26A 1_555 1_555
C27A C26 1_555 1_555
H20A C7A 1_555 1_555
O3A C2A 1_555 1_555
C1A C2A 1_555 1_555
C2A O6A 1_555 1_555
C6A C1A 1_555 1_555
O6A Co1_4 1_555 1_555
C28A H13A 1_555 1_555
C29A C30 1_555 1_555
H14A C29A 1_555 1_555
C30A C29 1_555 1_555
H15A C1A 1_555 1_555
H16A C6A 1_555 1_555
Co2A O2A 1_555 1_555
N1A Co2A 1_555 1_555
N2A Co2A 1_555 1_555
C9A N2A 1_555 1_555
C10A N1A 1_555 1_555
C12A N1A 1_555 1_555
H1A C12A 1_555 1_555
C16A C10A 1_555 1_555
C17A C16A 1_555 1_555
H4A C17A 1_555 1_555
C18A C12A 1_555 1_555
H5A C18A 1_555 1_555
C19A N2A 1_555 1_555
H6A C19A 1_555 1_555
C20A C16A 1_555 1_555
H7A C20A 1_555 1_555
C21A C9A 1_555 1_555
C22A C20A 1_555 1_555
H8A C22A 1_555 1_555
C23A C21A 1_555 1_555
H9A C23A 1_555 1_555
C25A C19A 1_555 1_555
H11A C25A 1_555 1_555
Co1_2 O4A 1_555 1_555
Co1_3 O1A 1_555 1_555
Co2A_2 O1A 1_555 1_555
Co2A_3 O3A 1_555 1_555
O1A_2 Co2A 1_555 1_555
O1A_3 Co1 1_555 1_555
O3A_2 Co2A 1_555 1_555
O4A_2 Co1 1_555 1_555
O6A_2 Co1 1_555 1_555
O4 C3 1_555 1_555
C2 O6 1_555 1_555
C9 C10 1_555 1_555
C17 C18 1_555 1_555
C21 C22 1_555 1_555
C23 C25 1_555 1_555
C24 C27 1_555 1_555
C28 C30 1_555 1_555
C14A C15A 1_555 1_555
C7A C27A 1_555 1_555
C24A C26A 1_555 1_555
C24A C27A 1_555 1_555
C6A C30A 1_555 1_555
C28A C29A 1_555 1_555
C28A C30A 1_555 1_555
C9A C10A 1_555 1_555
C17A C18A 1_555 1_555
C21A C22A 1_555 1_555
C23A C25A 1_555 1_555
Co1_2 O1A_2 1_555 1_555

#END
