
#######################################################################
#
#                 Cambridge Crystallographic Data Centre
#                                CCDC 
#
#######################################################################
#
# If this CIF has been generated from an entry in the Cambridge 
# Structural Database, then it will include bibliographic, chemical, 
# crystal, experimental, refinement or atomic coordinate data resulting 
# from the CCDC's data processing and validation procedures.
#
#######################################################################

data_YORPOM
_symmetry_cell_setting           triclinic
_symmetry_space_group_name_H-M   'P -1'
_symmetry_Int_Tables_number      2
_space_group_name_Hall           '-P 1'
loop_
_symmetry_equiv_pos_site_id
_symmetry_equiv_pos_as_xyz
1 x,y,z
2 -x,-y,-z
_cell_length_a                   17.4083(8)
_cell_length_b                   19.6802(9)
_cell_length_c                   20.5154(9)
_cell_angle_alpha                79.814(3)
_cell_angle_beta                 79.357(3)
_cell_angle_gamma                64.558(3)
_cell_volume                     6199.98
loop_
_atom_site_label
_atom_site_type_symbol
_atom_site_fract_x
_atom_site_fract_y
_atom_site_fract_z
Ni1 Ni 2.31757(5) -1.05654(4) 0.82753(3)
O1 O 2.2528(2) -1.0079(2) 0.74598(16)
K1 K 2.34192(8) -1.15556(7) 0.69212(6)
C1 C 1.2476(5) -0.4862(5) 0.6077(5)
H1 H 1.2019 -0.4606 0.5803
H2 H 1.2813 -0.4574 0.6031
H3 H 1.2239 -0.4912 0.6535
Ni2 Ni 1.50024(5) -0.76414(4) 0.67364(4)
O2 O 1.4538(3) -0.7026(2) 0.7560(2)
K2 K 1.61461(9) -0.80644(7) 0.80846(6)
C2 C 2.1474(4) -0.9297(4) 0.8717(3)
Ni3 Ni 2.12858(5) -1.01042(4) 0.76667(4)
O3 O 2.4199(3) -1.1021(2) 0.76101(17)
C3 C 2.3303(11) -0.9312(9) 0.6234(6)
H4 H 2.3651 -0.9037 0.6058
H5 H 2.2970 -0.9289 0.5900
H6 H 2.3665 -0.9831 0.6362
Ni4 Ni 1.48268(5) -0.60591(4) 0.73032(4)
O4 O 1.6142(2) -0.7578(2) 0.66371(19)
O5 O 1.5667(3) -0.6536(2) 0.7992(2)
C4 C 1.2657(8) -0.6489(8) 0.8836(6)
H7 H 1.2406 -0.5954 0.8701
H8 H 1.3006 -0.6591 0.9183
H9 H 1.2211 -0.6662 0.9000
O6 O 2.1041(3) -0.9366(2) 0.8349(2)
C5 C 2.2695(5) -0.8957(4) 0.6853(3)
O7 O 2.1695(2) -1.0821(2) 0.69605(19)
O8 O 1.5306(3) -0.8541(2) 0.74145(18)
C6 C 2.3305(7) -0.9034(6) 0.7345(5)
H10 H 2.2978 -0.8769 0.7723
H11 H 2.3703 -0.8823 0.7127
H12 H 2.3613 -0.9560 0.7493
O9 O 2.2877(3) -1.1451(2) 0.83949(19)
N1 N 2.3968(3) -1.1009(3) 0.9018(2)
F1 F 2.5720(4) -1.1168(3) 0.6755(2)
N2 N 1.5409(3) -0.8331(3) 0.5990(2)
O10 O 1.3914(3) -0.5714(2) 0.6662(2)
O11 O 2.1471(3) -0.9228(2) 0.6957(2)
F2 F 1.6205(3) -0.9631(2) 0.83508(18)
O12 O 1.5783(3) -0.6354(3) 0.6557(2)
O13 O 2.1447(3) -1.0975(2) 0.84004(19)
O14 O 2.4450(3) -1.1586(3) 1.0673(2)
N3 N 1.5922(3) -0.8777(3) 0.4952(2)
F3 F 2.5286(2) -1.2000(2) 0.67244(19)
F4 F 2.6325(3) -1.2254(3) 0.7212(2)
C7 C 2.2177(5) -1.1479(3) 0.8520(2)
F5 F 1.6326(3) -1.0509(2) 0.78232(18)
N4 N 2.0039(3) -0.9922(3) 0.7652(2)
N5 N 2.4439(3) -1.1446(3) 1.0054(2)
F6 F 1.7142(3) -0.7410(3) 0.8516(2)
F7 F 2.2438(3) -1.2218(3) 0.6505(3)
O15 O 1.6072(3) -0.8814(3) 0.4328(2)
N6 N 1.4875(4) -0.5048(3) 0.7305(3)
C8 C 1.5998(4) -0.9529(4) 0.6695(3)
H13 H 1.6295 -1.0050 0.6696
C9 C 1.5830(5) -0.9796(4) 0.7935(3)
C10 C 1.6228(4) -0.9440(4) 0.5453(3)
F8 F 1.5105(3) -0.9779(3) 0.8247(2)
C11 C 2.1227(5) -1.1104(4) 0.6791(3)
O16 O 1.4197(3) -0.6755(3) 0.6212(2)
C12 C 2.5569(4) -1.1731(4) 0.7114(3)
C13 C 2.5243(4) -1.1725(3) 0.8314(3)
H14 H 2.5808 -1.2078 0.8323
C14 C 1.5703(4) -0.9233(4) 0.7300(3)
C15 C 1.9823(4) -1.0346(4) 0.7357(4)
C16 C 2.4958(4) -1.1477(3) 0.7730(3)
O17 O 1.4271(3) -0.3069(3) 0.6955(3)
C17 C 1.6318(5) -0.7023(4) 0.6475(3)
C18 C 1.5868(4) -0.9073(4) 0.6072(3)
C19 C 1.5358(4) -0.8089(4) 0.5256(3)
C20 C 2.4740(4) -1.1491(4) 0.8946(3)
F9 F 2.1984(4) -1.1412(3) 0.5720(3)
F10 F 2.1304(3) -1.2050(3) 0.6169(3)
N7 N 1.8600(4) -0.9464(4) 0.7787(3)
C21 C 2.3686(4) -1.0873(4) 0.9735(3)
C22 C 1.6091(4) -0.6216(4) 0.8162(3)
O18 O 1.3779(4) -0.5998(3) 0.8063(3)
C23 C 2.2195(4) -0.9444(3) 0.7099(3)
O19 O 1.7789(3) -0.9066(3) 0.7982(3)
C24 C 1.3773(5) -0.6075(5) 0.6289(3)
C25 C 2.0390(5) -1.0940(4) 0.6974(3)
H15 H 2.0166 -1.1238 0.6840
C26 C 2.2125(4) -1.2235(4) 0.8867(3)
C27 C 1.6047(5) -0.5507(4) 0.7989(4)
H16 H 1.6432 -0.5376 0.8139
F11 F 1.7213(4) -0.6482(3) 0.8819(3)
C28 C 1.3192(5) -0.6890(4) 0.8258(4)
N8 N 1.4592(4) -0.3756(3) 0.7145(3)
C29 C 2.2898(4) -1.1036(4) 1.0017(3)
H17 H 2.3002 -1.1534 0.9930
H18 H 2.2412 -1.0669 0.9808
H19 H 2.2786 -1.1008 1.0489
C30 C 1.7207(4) -0.7102(4) 0.6160(4)
C31 C 2.5178(4) -1.1816(4) 0.9580(3)
C32 C 1.5880(5) -1.0008(4) 0.5383(3)
H20 H 1.5265 -0.9773 0.5444
H21 H 1.6079 -1.0435 0.5713
H22 H 1.6076 -1.0174 0.4946
F12 F 1.6265(4) -0.6855(3) 0.9238(3)
C33 C 1.3042(5) -0.5647(4) 0.5857(3)
C34 C 1.5433(5) -0.4951(4) 0.7584(4)
C35 C 2.1093(4) -0.8629(4) 0.9143(3)
C36 C 1.8872(4) -1.0139(4) 0.7470(4)
C37 C 1.5372(5) -0.4151(4) 0.7460(4)
C38 C 2.3580(5) -1.0066(4) 0.9850(3)
H23 H 2.4093 -0.9998 0.9661
H24 H 2.3479 -1.0022 1.0320
H25 H 2.3103 -0.9685 0.9639
C39 C 1.3900(6) -0.6661(5) 0.7947(4)
C40 C 2.1682(5) -1.1691(5) 0.6305(5)
C41 C 1.9307(4) -0.9364(4) 0.7974(4)
C42 C 1.6679(6) -0.6716(4) 0.8658(5)
C43 C 1.4445(4) -0.7859(4) 0.5101(3)
H26 H 1.4272 -0.8267 0.5265
H27 H 1.4431 -0.7750 0.4628
H28 H 1.4061 -0.7418 0.5315
C44 C 1.5698(5) -0.7477(4) 0.5024(3)
H29 H 1.6269 -0.7658 0.5140
H30 H 1.5332 -0.7031 0.5238
H31 H 1.5708 -0.7358 0.4549
C45 C 1.7167(5) -0.6615(5) 0.5488(4)
H32 H 1.6804 -0.6096 0.5551
H33 H 1.6939 -0.6784 0.5189
H34 H 1.7733 -0.6660 0.5304
O20 O 2.2266(3) -0.9735(3) 0.87873(18)
C46 C 2.1668(5) -0.8239(4) 0.9103(4)
H35 H 2.1746 -0.8018 0.8653
H36 H 2.2213 -0.8599 0.9233
H37 H 2.1416 -0.7849 0.9397
C47 C 1.7217(4) -0.9798(4) 0.5346(3)
H38 H 1.7424 -0.9426 0.5376
H39 H 1.7412 -0.9975 0.4913
H40 H 1.7428 -1.0216 0.5683
C48 C 1.5240(5) -0.3764(4) 0.8096(4)
H41 H 1.4737 -0.3771 0.8377
H42 H 1.5172 -0.3249 0.7968
H43 H 1.5730 -0.4033 0.8334
C49 C 2.0967(5) -0.9001(4) 0.9877(3)
H44 H 2.1514 -0.9356 1.0007
H45 H 2.0603 -0.9259 0.9898
H46 H 2.0708 -0.8614 1.0174
C50 C 1.6162(5) -0.4138(4) 0.6982(4)
H47 H 1.6221 -0.4375 0.6594
H48 H 1.6666 -0.4407 0.7204
H49 H 1.6090 -0.3623 0.6850
C51 C 1.4309(5) -0.4325(4) 0.6958(4)
C52 C 1.3388(4) -0.4139(4) 0.7255(4)
H50 H 1.3336 -0.4131 0.7728
H51 H 1.3220 -0.4516 0.7169
H52 H 1.3025 -0.3651 0.7056
C53 C 1.2479(5) -0.6077(5) 0.5929(4)
H53 H 1.2011 -0.5797 0.5670
H54 H 1.2259 -0.6141 0.6390
H55 H 1.2812 -0.6564 0.5773
C54 C 2.1546(7) -1.2058(5) 0.9522(5)
H56 H 2.1484 -1.2507 0.9745
H57 H 2.0993 -1.1672 0.9435
H58 H 2.1793 -1.1882 0.9801
C55 C 2.0246(5) -0.8067(4) 0.8936(4)
H59 H 2.0330 -0.7835 0.8492
H60 H 1.9984 -0.7685 0.9238
H61 H 1.9879 -0.8321 0.8947
C56 C 1.7609(5) -0.6879(5) 0.6613(5)
H62 H 1.7651 -0.7199 0.7028
H63 H 1.7265 -0.6362 0.6693
H64 H 1.8172 -0.6931 0.6410
C57 C 1.3613(7) -0.7756(7) 0.8539(5)
H65 H 1.3964 -0.8049 0.8183
H66 H 1.3170 -0.7926 0.8728
H67 H 1.3961 -0.7819 0.8877
C58 C 2.5915(5) -1.1613(5) 0.9592(3)
H68 H 2.5721 -1.1072 0.9528
H69 H 2.6360 -1.1831 0.9240
H70 H 2.6134 -1.1806 1.0014
C59 C 1.3411(5) -0.5562(5) 0.5131(4)
H71 H 1.2952 -0.5283 0.4862
H72 H 1.3743 -0.6054 0.4983
H73 H 1.3771 -0.5296 0.5088
C60 C 1.9252(4) -0.8560(4) 0.7691(3)
H74 H 1.9288 -0.8506 0.7214
H75 H 1.9716 -0.8491 0.7817
H76 H 1.8716 -0.8187 0.7868
C61 C 1.4494(5) -0.4363(4) 0.6203(4)
H77 H 1.5092 -0.4487 0.6062
H78 H 1.4159 -0.3881 0.5978
H79 H 1.4348 -0.4744 0.6094
C62 C 1.2617(7) -0.6786(8) 0.7801(6)
H80 H 1.2361 -0.6261 0.7632
H81 H 1.2177 -0.6945 0.8025
H82 H 1.2925 -0.7082 0.7438
C63 C 2.2995(6) -1.2819(4) 0.9007(6)
H83 H 2.2950 -1.3279 0.9217
H84 H 2.3221 -1.2638 0.9299
H85 H 2.3371 -1.2915 0.8596
C64 C 1.8641(5) -1.0748(4) 0.7959(4)
H86 H 1.8921 -1.0868 0.8351
H87 H 1.8827 -1.1197 0.7743
H88 H 1.8031 -1.0553 0.8083
C65 C 1.7771(5) -0.7915(5) 0.6049(5)
H89 H 1.7801 -0.8229 0.6467
H90 H 1.8337 -0.7960 0.5862
H91 H 1.7536 -0.8075 0.5748
C66 C 2.5487(5) -1.2667(4) 0.9701(3)
H92 H 2.5766 -1.2852 1.0098
H93 H 2.5885 -1.2891 0.9327
H94 H 2.5007 -1.2800 0.9753
C67 C 1.8446(4) -0.9949(5) 0.6819(4)
H95 H 1.8600 -0.9579 0.6523
H96 H 1.7835 -0.9752 0.6927
H97 H 1.8642 -1.0401 0.6604
C68 C 1.9257(5) -0.9501(4) 0.8743(3)
H98 H 1.9298 -1.0005 0.8892
H99 H 1.8721 -0.9141 0.8935
H100 H 1.9721 -0.9441 0.8881
C69 C 2.2201(6) -0.8189(5) 0.6815(7)
H101 H 2.1846 -0.8065 0.7231
H102 H 2.1846 -0.8043 0.6464
H103 H 2.2567 -0.7923 0.6723
C70 C 2.1693(9) -1.2459(6) 0.8488(5)
H104 H 2.1650 -1.2918 0.8705
H105 H 2.2005 -1.2544 0.8051
H106 H 2.1128 -1.2068 0.8450
K1_2 K 1.34192(8) -0.15556(7) 0.69212(6)
K1A K 1.65808(8) -0.84444(7) 0.30788(6)
K2A K 2.38539(9) -1.19356(7) 1.19154(6)
O14A O 1.5550(3) -0.8414(3) 0.9327(2)
O15A O 2.3928(3) -1.1186(3) 0.5672(2)
O17_2 O 2.4271(3) -1.3069(3) 0.6955(3)
loop_
_geom_bond_atom_site_label_1
_geom_bond_atom_site_label_2
_geom_bond_site_symmetry_1
_geom_bond_site_symmetry_2
Ni1 O1 1_555 1_555
O1 K1 1_555 1_555
K1 O3 1_555 1_555
C1 H1 1_555 1_555
H2 C1 1_555 1_555
H3 C1 1_555 1_555
Ni2 O2 1_555 1_555
O2 K2 1_555 1_555
K2 O4 1_555 1_555
C2 O6 1_555 1_555
Ni3 O1 1_555 1_555
O3 Ni1 1_555 1_555
C3 H4 1_555 1_555
H5 C3 1_555 1_555
H6 C3 1_555 1_555
Ni4 O2 1_555 1_555
O4 Ni2 1_555 1_555
O5 K2 1_555 1_555
C4 H7 1_555 1_555
H8 C4 1_555 1_555
H9 C4 1_555 1_555
O6 Ni3 1_555 1_555
C5 C3 1_555 1_555
O7 K1 1_555 1_555
O8 Ni2 1_555 1_555
C6 C5 1_555 1_555
H10 C6 1_555 1_555
H11 C6 1_555 1_555
H12 C6 1_555 1_555
O9 Ni1 1_555 1_555
N1 Ni1 1_555 1_555
F1 C12 1_555 1_555
N2 Ni2 1_555 1_555
O10 Ni4 1_555 1_555
O11 Ni3 1_555 1_555
F2 K2 1_555 1_555
O12 Ni4 1_555 1_555
O13 Ni3 1_555 1_555
O14 N5 1_555 1_555
N3 O15 1_555 1_555
F3 K1 1_555 1_555
F4 C12 1_555 1_555
C7 O9 1_555 1_555
F5 C9 1_555 1_555
N4 Ni3 1_555 1_555
N5 C21 1_555 1_555
F6 K2 1_555 1_555
F7 K1 1_555 1_555
O15 K1A 1_555 1_555
N6 Ni4 1_555 1_555
C8 H13 1_555 1_555
C9 F2 1_555 1_555
C10 N3 1_555 1_555
F8 C9 1_555 1_555
C11 O7 1_555 1_555
O16 Ni2 1_555 1_555
C12 F3 1_555 1_555
C13 H14 1_555 1_555
C14 O8 1_555 1_555
C15 N4 1_555 1_555
C16 O3 1_555 1_555
O17 N8 1_555 1_555
C17 O4 1_555 1_555
C18 N2 1_555 1_555
C19 N2 1_555 1_555
C20 N1 1_555 1_555
F9 C40 1_555 1_555
F10 C40 1_555 1_555
N7 O19 1_555 1_555
C21 N1 1_555 1_555
C22 O5 1_555 1_555
O18 Ni4 1_555 1_555
C23 O1 1_555 1_555
O19 K2 1_555 1_555
C24 O10 1_555 1_555
C25 C11 1_555 1_555
H15 C25 1_555 1_555
C26 C7 1_555 1_555
C27 C22 1_555 1_555
H16 C27 1_555 1_555
F11 C42 1_555 1_555
C28 C4 1_555 1_555
N8 C37 1_555 1_555
C29 C21 1_555 1_555
H17 C29 1_555 1_555
H18 C29 1_555 1_555
H19 C29 1_555 1_555
C30 C17 1_555 1_555
C31 N5 1_555 1_555
C32 C10 1_555 1_555
H20 C32 1_555 1_555
H21 C32 1_555 1_555
H22 C32 1_555 1_555
F12 C42 1_555 1_555
C33 C1 1_555 1_555
C34 N6 1_555 1_555
C35 C2 1_555 1_555
C36 C15 1_555 1_555
C37 C34 1_555 1_555
C38 C21 1_555 1_555
H23 C38 1_555 1_555
H24 C38 1_555 1_555
H25 C38 1_555 1_555
C39 O2 1_555 1_555
C40 F7 1_555 1_555
C41 N4 1_555 1_555
C42 F6 1_555 1_555
C43 C19 1_555 1_555
H26 C43 1_555 1_555
H27 C43 1_555 1_555
H28 C43 1_555 1_555
C44 C19 1_555 1_555
H29 C44 1_555 1_555
H30 C44 1_555 1_555
H31 C44 1_555 1_555
C45 C30 1_555 1_555
H32 C45 1_555 1_555
H33 C45 1_555 1_555
H34 C45 1_555 1_555
O20 Ni1 1_555 1_555
C46 C35 1_555 1_555
H35 C46 1_555 1_555
H36 C46 1_555 1_555
H37 C46 1_555 1_555
C47 C10 1_555 1_555
H38 C47 1_555 1_555
H39 C47 1_555 1_555
H40 C47 1_555 1_555
C48 C37 1_555 1_555
H41 C48 1_555 1_555
H42 C48 1_555 1_555
H43 C48 1_555 1_555
C49 C35 1_555 1_555
H44 C49 1_555 1_555
H45 C49 1_555 1_555
H46 C49 1_555 1_555
C50 C37 1_555 1_555
H47 C50 1_555 1_555
H48 C50 1_555 1_555
H49 C50 1_555 1_555
C51 N6 1_555 1_555
C52 C51 1_555 1_555
H50 C52 1_555 1_555
H51 C52 1_555 1_555
H52 C52 1_555 1_555
C53 C33 1_555 1_555
H53 C53 1_555 1_555
H54 C53 1_555 1_555
H55 C53 1_555 1_555
C54 C26 1_555 1_555
H56 C54 1_555 1_555
H57 C54 1_555 1_555
H58 C54 1_555 1_555
C55 C35 1_555 1_555
H59 C55 1_555 1_555
H60 C55 1_555 1_555
H61 C55 1_555 1_555
C56 C30 1_555 1_555
H62 C56 1_555 1_555
H63 C56 1_555 1_555
H64 C56 1_555 1_555
C57 C28 1_555 1_555
H65 C57 1_555 1_555
H66 C57 1_555 1_555
H67 C57 1_555 1_555
C58 C31 1_555 1_555
H68 C58 1_555 1_555
H69 C58 1_555 1_555
H70 C58 1_555 1_555
C59 C33 1_555 1_555
H71 C59 1_555 1_555
H72 C59 1_555 1_555
H73 C59 1_555 1_555
C60 C41 1_555 1_555
H74 C60 1_555 1_555
H75 C60 1_555 1_555
H76 C60 1_555 1_555
C61 C51 1_555 1_555
H77 C61 1_555 1_555
H78 C61 1_555 1_555
H79 C61 1_555 1_555
C62 C28 1_555 1_555
H80 C62 1_555 1_555
H81 C62 1_555 1_555
H82 C62 1_555 1_555
C63 C26 1_555 1_555
H83 C63 1_555 1_555
H84 C63 1_555 1_555
H85 C63 1_555 1_555
C64 C36 1_555 1_555
H86 C64 1_555 1_555
H87 C64 1_555 1_555
H88 C64 1_555 1_555
C65 C30 1_555 1_555
H89 C65 1_555 1_555
H90 C65 1_555 1_555
H91 C65 1_555 1_555
C66 C31 1_555 1_555
H92 C66 1_555 1_555
H93 C66 1_555 1_555
H94 C66 1_555 1_555
C67 C36 1_555 1_555
H95 C67 1_555 1_555
H96 C67 1_555 1_555
H97 C67 1_555 1_555
C68 C41 1_555 1_555
H98 C68 1_555 1_555
H99 C68 1_555 1_555
H100 C68 1_555 1_555
C69 C5 1_555 1_555
H101 C69 1_555 1_555
H102 C69 1_555 1_555
H103 C69 1_555 1_555
C70 C26 1_555 1_555
H104 C70 1_555 1_555
H105 C70 1_555 1_555
H106 C70 1_555 1_555
K1_2 O17 1_555 1_555
K2A O14 1_555 1_555
O14A K2 1_555 1_555
O15A K1 1_555 1_555
O17_2 K1 1_555 1_555
K1 O9 1_555 1_555
K2 O8 1_555 1_555
C2 O20 1_555 1_555
Ni3 O7 1_555 1_555
Ni4 O5 1_555 1_555
C5 C23 1_555 1_555
O11 C23 1_555 1_555
O12 C17 1_555 1_555
O13 C7 1_555 1_555
N3 C19 1_555 1_555
C8 C14 1_555 1_555
C8 C18 1_555 1_555
C9 C14 1_555 1_555
C10 C18 1_555 1_555
C11 C40 1_555 1_555
O16 C24 1_555 1_555
C12 C16 1_555 1_555
C13 C16 1_555 1_555
C13 C20 1_555 1_555
C15 C25 1_555 1_555
C20 C31 1_555 1_555
N7 C36 1_555 1_555
N7 C41 1_555 1_555
C22 C42 1_555 1_555
O18 C39 1_555 1_555
C24 C33 1_555 1_555
C27 C34 1_555 1_555
C28 C39 1_555 1_555
N8 C51 1_555 1_555

#END
