
#######################################################################
#
#                 Cambridge Crystallographic Data Centre
#                                CCDC 
#
#######################################################################
#
# If this CIF has been generated from an entry in the Cambridge 
# Structural Database, then it will include bibliographic, chemical, 
# crystal, experimental, refinement or atomic coordinate data resulting 
# from the CCDC's data processing and validation procedures.
#
#######################################################################

data_YORQAZ
_symmetry_cell_setting           monoclinic
_symmetry_space_group_name_H-M   'C 2/c'
_symmetry_Int_Tables_number      15
_space_group_name_Hall           '-C 2yn'
loop_
_symmetry_equiv_pos_site_id
_symmetry_equiv_pos_as_xyz
1 x,y,z
2 -x,y,1/2-z
3 1/2+x,1/2+y,z
4 1/2-x,1/2+y,1/2-z
5 -x,-y,-z
6 x,-y,1/2+z
7 1/2-x,1/2-y,-z
8 1/2+x,1/2-y,1/2+z
_cell_length_a                   16.773(5)
_cell_length_b                   20.409(6)
_cell_length_c                   10.371(3)
_cell_angle_alpha                90
_cell_angle_beta                 115.502(4)
_cell_angle_gamma                90
_cell_volume                     3204.31
loop_
_atom_site_label
_atom_site_type_symbol
_atom_site_fract_x
_atom_site_fract_y
_atom_site_fract_z
Cu1 Cu 0.44551(2) 0.275548(17) 1.09209(4)
O1 O 0.52931(18) 0.34783(14) 1.0923(3)
C1 C 0.5889(2) 0.37042(18) 1.2069(4)
C2 C 0.6366(3) 0.4304(2) 1.1941(5)
C3 C 0.7109(4) 0.4521(3) 1.3054(6)
H1 H 0.7319 0.4283 1.3901
C4 C 0.7588(4) 0.5091(4) 1.3006(6)
H2 H 0.8116 0.5198 1.3781
C5 C 0.6022(5) 0.4719(4) 1.0814(9)
H3 H 0.5482 0.4624 1.0055
N1 N 0.3729(2) 0.26821(14) 0.8746(4)
C6 C 0.2521(4) 0.2233(2) 0.6737(6)
H4 H 0.2020 0.1969 0.6406
C7 C 0.3018(4) 0.2313(2) 0.8182(5)
H5 H 0.2840 0.2093 0.8799
C8 C 0.3938(4) 0.3006(4) 0.7827(5)
H6 H 0.4422 0.3286 0.8187
C9 C 0.3479(4) 0.2951(4) 0.6386(6)
H7 H 0.3653 0.3197 0.5796
C10 C 0.6478(5) 0.5288(4) 1.0790(8)
H8 H 0.6213 0.5559 0.9996
C11 C 0.2765(3) 0.2540(2) 0.5782(4)
C12 C 0.7265(3) 0.5482(3) 1.1811(5)
C13 C 0.7756(3) 0.6060(2) 1.1745(5)
C14 C 0.8470(3) 0.6280(2) 1.2838(4)
C15 C 0.8988(3) 0.68518(19) 1.2689(4)
O2 O 0.8778(2) 0.70684(16) 1.1462(3)
O3 O 0.9598(2) 0.70676(16) 1.3816(3)
O4 O 0.61182(19) 0.34624(14) 1.3304(3)
H9 H 0.862(3) 0.605(2) 1.375(3)
H10 H 0.750(3) 0.635(2) 1.093(3)
N1F N 0.1271(2) 0.23179(14) 0.1254(4)
C6F C 0.2479(4) 0.2767(2) 0.3263(6)
H4F H 0.2980 0.3031 0.3594
C7F C 0.1982(4) 0.2687(2) 0.1818(5)
H5F H 0.2160 0.2907 0.1201
C8F C 0.1062(4) 0.1994(4) 0.2173(5)
H6F H 0.0578 0.1714 0.1813
C9F C 0.1521(4) 0.2049(4) 0.3614(6)
H7F H 0.1347 0.1803 0.4204
C11F C 0.2235(3) 0.2460(2) 0.4218(4)
Cu1A Cu 0.55449(2) 0.275548(17) 1.40791(4)
O1A O 0.47069(18) 0.34783(14) 1.4077(3)
C1A C 0.4111(2) 0.37042(18) 1.2931(4)
C2A C 0.3634(3) 0.4304(2) 1.3059(5)
C3A C 0.2891(4) 0.4521(3) 1.1946(6)
H1A H 0.2681 0.4283 1.1099
C4A C 0.2412(4) 0.5091(4) 1.1994(6)
H2A H 0.1884 0.5198 1.1219
C5A C 0.3978(5) 0.4719(4) 1.4186(9)
H3A H 0.4518 0.4624 1.4945
C10A C 0.3522(5) 0.5288(4) 1.4210(8)
H8A H 0.3787 0.5559 1.5004
C12A C 0.2735(3) 0.5482(3) 1.3189(5)
C13A C 0.2244(3) 0.6060(2) 1.3255(5)
C14A C 0.1530(3) 0.6280(2) 1.2162(4)
C15A C 0.1012(3) 0.68518(19) 1.2311(4)
O2A O 0.1222(2) 0.70684(16) 1.3538(3)
O3A O 0.0402(2) 0.70676(16) 1.1184(3)
O4A O 0.38818(19) 0.34624(14) 1.1696(3)
H9A H 0.138(3) 0.605(2) 1.125(3)
H10A H 0.250(3) 0.635(2) 1.407(3)
Cu1B Cu -0.05449(2) 0.775548(17) 1.09209(4)
Cu1B_2 Cu 0.94551(2) 0.775548(17) 1.09209(4)
Cu1C Cu 0.05449(2) 0.775548(17) 1.40791(4)
Cu1C_2 Cu 1.05449(2) 0.775548(17) 1.40791(4)
Cu1F Cu 0.05449(2) 0.224452(17) -0.09209(4)
N1A N 0.6271(2) 0.26821(14) 1.6254(4)
O2B O 0.3778(2) 0.20684(16) 1.1462(3)
O2C O 0.6222(2) 0.20684(16) 1.3538(3)
O3B O 0.4598(2) 0.20676(16) 1.3816(3)
O3C O 0.5402(2) 0.20676(16) 1.1184(3)
loop_
_geom_bond_atom_site_label_1
_geom_bond_atom_site_label_2
_geom_bond_site_symmetry_1
_geom_bond_site_symmetry_2
Cu1 O1 1_555 1_555
O1 C1 1_555 1_555
C1 C2 1_555 1_555
C2 C3 1_555 1_555
C3 H1 1_555 1_555
C4 C3 1_555 1_555
H2 C4 1_555 1_555
C5 C2 1_555 1_555
H3 C5 1_555 1_555
N1 Cu1 1_555 1_555
C6 H4 1_555 1_555
C7 N1 1_555 1_555
H5 C7 1_555 1_555
C8 N1 1_555 1_555
H6 C8 1_555 1_555
C9 C8 1_555 1_555
H7 C9 1_555 1_555
C10 C5 1_555 1_555
H8 C10 1_555 1_555
C11 C6 1_555 1_555
C12 C4 1_555 1_555
C13 C12 1_555 1_555
C14 C13 1_555 1_555
C15 C14 1_555 1_555
O2 C15 1_555 1_555
O3 C15 1_555 1_555
O4 C1 1_555 1_555
H9 C14 1_555 1_555
H10 C13 1_555 1_555
N1F C7F 1_555 1_555
C6F H4F 1_555 1_555
C7F C6F 1_555 1_555
H5F C7F 1_555 1_555
C8F N1F 1_555 1_555
H6F C8F 1_555 1_555
C9F C8F 1_555 1_555
H7F C9F 1_555 1_555
C11F C11 1_555 1_555
Cu1A O4 1_555 1_555
O1A Cu1A 1_555 1_555
C1A O1A 1_555 1_555
C2A C1A 1_555 1_555
C3A C2A 1_555 1_555
H1A C3A 1_555 1_555
C4A C3A 1_555 1_555
H2A C4A 1_555 1_555
C5A C2A 1_555 1_555
H3A C5A 1_555 1_555
C10A C5A 1_555 1_555
H8A C10A 1_555 1_555
C12A C4A 1_555 1_555
C13A C12A 1_555 1_555
C14A C13A 1_555 1_555
C15A C14A 1_555 1_555
O2A C15A 1_555 1_555
O3A C15A 1_555 1_555
O4A Cu1 1_555 1_555
H9A C14A 1_555 1_555
H10A C13A 1_555 1_555
Cu1B O3A 1_555 1_555
Cu1B_2 O2 1_555 1_555
Cu1C O2A 1_555 1_555
Cu1C_2 O3 1_555 1_555
Cu1F N1F 1_555 1_555
N1A Cu1A 1_555 1_555
O2B Cu1 1_555 1_555
O2C Cu1A 1_555 1_555
O3B Cu1A 1_555 1_555
O3C Cu1 1_555 1_555
C6 C7 1_555 1_555
C9 C11 1_555 1_555
C10 C12 1_555 1_555
C6F C11F 1_555 1_555
C9F C11F 1_555 1_555
C1A O4A 1_555 1_555
C10A C12A 1_555 1_555

#END
