
#######################################################################
#
#                 Cambridge Crystallographic Data Centre
#                                CCDC 
#
#######################################################################
#
# If this CIF has been generated from an entry in the Cambridge 
# Structural Database, then it will include bibliographic, chemical, 
# crystal, experimental, refinement or atomic coordinate data resulting 
# from the CCDC's data processing and validation procedures.
#
#######################################################################

data_YORSOO
_symmetry_cell_setting           triclinic
_symmetry_space_group_name_H-M   'P -1'
_symmetry_Int_Tables_number      2
_space_group_name_Hall           '-P 1'
loop_
_symmetry_equiv_pos_site_id
_symmetry_equiv_pos_as_xyz
1 x,y,z
2 -x,-y,-z
_cell_length_a                   6.6964(15)
_cell_length_b                   7.7827(18)
_cell_length_c                   9.126(2)
_cell_angle_alpha                95.692(4)
_cell_angle_beta                 110.274(3)
_cell_angle_gamma                93.543(4)
_cell_volume                     441.583
loop_
_atom_site_label
_atom_site_type_symbol
_atom_site_fract_x
_atom_site_fract_y
_atom_site_fract_z
Ho1 Ho 0.381638(15) 0.768184(12) 0.216900(11)
O1 O 0.7192(3) 0.4265(3) 0.6387(3)
O2 O 0.7495(3) 1.0383(2) 0.6459(2)
O3 O 0.6727(3) 0.8469(3) 0.4350(2)
O4 O 0.7196(3) 1.0058(2) -0.0596(2)
O5 O 0.6616(3) 0.8739(3) 0.1295(2)
O6 O 0.7062(3) 0.3680(3) 0.0462(2)
O7 O 0.5822(3) 0.5301(2) 0.2040(2)
C1 C 0.8500(4) 0.4662(4) 0.5754(3)
C2 C 0.9061(5) 0.3251(4) 0.4779(4)
H1 H 0.7758 0.2746 0.3935
H2 H 0.9597 0.2350 0.5432
C3 C 0.8822(5) 0.7670(3) 0.6812(4)
H3 H 1.0123 0.8293 0.7577
H4 H 0.7986 0.7193 0.7386
C4 C 0.7560(4) 0.8926(3) 0.5787(3)
C5 C 0.6096(4) 0.9651(3) 0.0192(3)
C6 C 0.5838(4) 0.4703(3) 0.0732(3)
N1 N 0.9380(4) 0.6256(3) 0.5913(3)
O8 O 0.0036(3) 0.7095(3) 0.0931(3)
H5 H -0.0462 0.6102 0.1010
H6 H -0.0553 0.7917 0.1246
Ho1A Ho 1.618362(15) 0.231816(12) 0.783100(11)
Ho1A_2 Ho 0.618362(15) 0.231816(12) 0.783100(11)
Ho1A_3 Ho 0.618362(15) 1.231816(12) 0.783100(11)
Ho1A_4 Ho 0.618362(15) 1.231816(12) -0.216900(11)
Ho1A_5 Ho 0.618362(15) 0.231816(12) -0.216900(11)
Ho1_2 Ho 1.381638(15) 0.768184(12) 0.216900(11)
Ho1_3 Ho 1.381638(15) -0.231816(12) 0.216900(11)
O1A O 1.2808(3) 0.5735(3) 0.3613(3)
O1A_2 O 0.2808(3) 0.5735(3) 0.3613(3)
O1_2 O 1.7192(3) 0.4265(3) 0.6387(3)
O2A O 1.2505(3) -0.0383(2) 0.3541(2)
O2A_2 O 0.2505(3) 0.9617(2) 0.3541(2)
O2_2 O 1.7495(3) 0.0383(2) 0.6459(2)
O3A O 1.3273(3) 0.1531(3) 0.5650(2)
O4A O 0.2804(3) 0.9942(2) 0.0596(2)
O4_2 O 1.7196(3) 0.0058(2) 0.9404(2)
O5A O 0.3384(3) 1.1261(3) -0.1295(2)
O5A_2 O 1.3384(3) 0.1261(3) 0.8705(2)
O6A O 0.2938(3) 0.6320(3) -0.0462(2)
O6_2 O 1.7062(3) 0.3680(3) 1.0462(2)
O7A O 0.4178(3) 0.4699(2) -0.2040(2)
O7A_2 O 1.4178(3) 0.4699(2) 0.7960(2)
C1A C 1.1500(4) 0.5338(4) 0.4246(3)
C2A C 1.0939(5) 0.6749(4) 0.5221(4)
H1A H 1.2242 0.7254 0.6065
H2A H 1.0403 0.7650 0.4568
C3A C 1.1178(5) 0.2330(3) 0.3188(4)
H3A H 0.9877 0.1707 0.2423
H4A H 1.2014 0.2807 0.2614
C4A C 1.2440(4) 0.1074(3) 0.4213(3)
C5A C 0.3904(4) 1.0349(3) -0.0192(3)
C6A C 0.4162(4) 0.5297(3) -0.0732(3)
N1A N 1.0620(4) 0.3744(3) 0.4087(3)
O8A O 1.9964(3) 0.2905(3) 0.9069(3)
H5A H 2.0462 0.3898 0.8990
H6A H 2.0553 0.2083 0.8754
loop_
_geom_bond_atom_site_label_1
_geom_bond_atom_site_label_2
_geom_bond_site_symmetry_1
_geom_bond_site_symmetry_2
Ho1 O3 1_555 1_555
O1 C1 1_555 1_555
O2 C4 1_555 1_555
O3 C4 1_555 1_555
O4 C5 1_555 1_555
O5 Ho1 1_555 1_555
O6 C6 1_555 1_555
O7 Ho1 1_555 1_555
C1 C2 1_555 1_555
C2 H1 1_555 1_555
H2 C2 1_555 1_555
C3 H3 1_555 1_555
H4 C3 1_555 1_555
C4 C3 1_555 1_555
C5 O5 1_555 1_555
C6 O7 1_555 1_555
N1 C1 1_555 1_555
O8 Ho1 1_555 1_555
H5 O8 1_555 1_555
H6 O8 1_555 1_555
Ho1A O1_2 1_555 1_555
Ho1A_2 O1 1_555 1_555
Ho1A_3 O2 1_555 1_555
Ho1A_4 O4 1_555 1_555
Ho1A_5 O6 1_555 1_555
Ho1_2 O1A 1_555 1_555
Ho1_3 O2A 1_555 1_555
O1A C1A 1_555 1_555
O1A_2 Ho1 1_555 1_555
O2A C4A 1_555 1_555
O2A_2 Ho1 1_555 1_555
O2_2 Ho1A 1_555 1_555
O3A Ho1A 1_555 1_555
O4A Ho1 1_555 1_555
O4_2 Ho1A 1_555 1_555
O5A Ho1A_4 1_555 1_555
O5A_2 Ho1A 1_555 1_555
O6A Ho1 1_555 1_555
O6_2 Ho1A 1_555 1_555
O7A Ho1A_5 1_555 1_555
O7A_2 Ho1A 1_555 1_555
C1A C2A 1_555 1_555
C2A N1 1_555 1_555
H1A C2A 1_555 1_555
H2A C2A 1_555 1_555
C3A H3A 1_555 1_555
H4A C3A 1_555 1_555
C4A O3A 1_555 1_555
C5A C5 1_555 1_555
C6A C6 1_555 1_555
N1A C2 1_555 1_555
O8A Ho1A 1_555 1_555
H5A O8A 1_555 1_555
H6A O8A 1_555 1_555
C3 N1 1_555 1_555
O4A C5A 1_555 1_555
O5A C5A 1_555 1_555
O6A C6A 1_555 1_555
O7A C6A 1_555 1_555
C1A N1A 1_555 1_555
C3A C4A 1_555 1_555
C3A N1A 1_555 1_555

#END
