
#######################################################################
#
#                 Cambridge Crystallographic Data Centre
#                                CCDC 
#
#######################################################################
#
# If this CIF has been generated from an entry in the Cambridge 
# Structural Database, then it will include bibliographic, chemical, 
# crystal, experimental, refinement or atomic coordinate data resulting 
# from the CCDC's data processing and validation procedures.
#
#######################################################################

data_YORSUU
_symmetry_cell_setting           triclinic
_symmetry_space_group_name_H-M   'P -1'
_symmetry_Int_Tables_number      2
_space_group_name_Hall           '-P 1'
loop_
_symmetry_equiv_pos_site_id
_symmetry_equiv_pos_as_xyz
1 x,y,z
2 -x,-y,-z
_cell_length_a                   6.6574(15)
_cell_length_b                   7.7517(18)
_cell_length_c                   9.066(2)
_cell_angle_alpha                95.676(4)
_cell_angle_beta                 110.170(3)
_cell_angle_gamma                93.544(4)
_cell_volume                     434.706
loop_
_atom_site_label
_atom_site_type_symbol
_atom_site_fract_x
_atom_site_fract_y
_atom_site_fract_z
Er1 Er 0.382174(14) 0.768420(12) 0.216781(11)
O1 O 0.7185(3) 0.4253(3) 0.6389(3)
O2 O 0.7479(3) 1.0383(3) 0.6453(2)
O3 O 0.6720(3) 0.8474(3) 0.4343(2)
O4 O 0.7199(3) 1.0064(3) -0.0600(2)
O5 O 0.6619(3) 0.8742(3) 0.1296(2)
O6 O 0.7061(3) 0.3672(3) 0.0463(2)
O7 O 0.5820(3) 0.5307(3) 0.2045(2)
C1 C 0.8495(4) 0.4659(4) 0.5760(3)
C2 C 0.9066(5) 0.3242(4) 0.4778(4)
H1 H 0.7759 0.2733 0.3929
H2 H 0.9608 0.2338 0.5435
C3 C 0.8793(5) 0.7669(3) 0.6819(4)
H3 H 1.0093 0.8290 0.7601
H4 H 0.7928 0.7189 0.7379
C4 C 0.7557(4) 0.8930(3) 0.5777(3)
C5 C 0.6102(4) 0.9651(4) 0.0198(3)
C6 C 0.5835(4) 0.4701(3) 0.0734(3)
N1 N 0.9368(4) 0.6256(3) 0.5918(3)
O8 O 0.0055(3) 0.7098(3) 0.0939(3)
H5 H -0.0459 0.6102 0.1017
H6 H -0.0550 0.7916 0.1254
Er1A Er 1.617826(14) 0.231580(12) 0.783219(11)
Er1A_2 Er 0.617826(14) 0.231580(12) 0.783219(11)
Er1A_3 Er 0.617826(14) 1.231580(12) 0.783219(11)
Er1A_4 Er 0.617826(14) 1.231580(12) -0.216781(11)
Er1A_5 Er 0.617826(14) 0.231580(12) -0.216781(11)
Er1_2 Er 1.382174(14) 0.768420(12) 0.216781(11)
Er1_3 Er 1.382174(14) -0.231580(12) 0.216781(11)
O1A O 1.2815(3) 0.5747(3) 0.3611(3)
O1A_2 O 0.2815(3) 0.5747(3) 0.3611(3)
O1_2 O 1.7185(3) 0.4253(3) 0.6389(3)
O2A O 1.2521(3) -0.0383(3) 0.3547(2)
O2A_2 O 0.2521(3) 0.9617(3) 0.3547(2)
O2_2 O 1.7479(3) 0.0383(3) 0.6453(2)
O3A O 1.3280(3) 0.1526(3) 0.5657(2)
O4A O 0.2801(3) 0.9936(3) 0.0600(2)
O4_2 O 1.7199(3) 0.0064(3) 0.9400(2)
O5A O 0.3381(3) 1.1258(3) -0.1296(2)
O5A_2 O 1.3381(3) 0.1258(3) 0.8704(2)
O6A O 0.2939(3) 0.6328(3) -0.0463(2)
O6_2 O 1.7061(3) 0.3672(3) 1.0463(2)
O7A O 0.4180(3) 0.4693(3) -0.2045(2)
O7A_2 O 1.4180(3) 0.4693(3) 0.7955(2)
C1A C 1.1505(4) 0.5341(4) 0.4240(3)
C2A C 1.0934(5) 0.6758(4) 0.5222(4)
H1A H 1.2241 0.7267 0.6071
H2A H 1.0392 0.7662 0.4565
C3A C 1.1207(5) 0.2331(3) 0.3181(4)
H3A H 0.9907 0.1710 0.2399
H4A H 1.2072 0.2811 0.2621
C4A C 1.2443(4) 0.1070(3) 0.4223(3)
C5A C 0.3898(4) 1.0349(4) -0.0198(3)
C6A C 0.4165(4) 0.5299(3) -0.0734(3)
N1A N 1.0632(4) 0.3744(3) 0.4082(3)
O8A O 1.9945(3) 0.2902(3) 0.9061(3)
H5A H 2.0459 0.3898 0.8983
H6A H 2.0550 0.2084 0.8746
loop_
_geom_bond_atom_site_label_1
_geom_bond_atom_site_label_2
_geom_bond_site_symmetry_1
_geom_bond_site_symmetry_2
Er1 O3 1_555 1_555
O1 C1 1_555 1_555
O2 C4 1_555 1_555
O3 C4 1_555 1_555
O4 C5 1_555 1_555
O5 Er1 1_555 1_555
O6 C6 1_555 1_555
O7 Er1 1_555 1_555
C1 C2 1_555 1_555
C2 H1 1_555 1_555
H2 C2 1_555 1_555
C3 H3 1_555 1_555
H4 C3 1_555 1_555
C4 C3 1_555 1_555
C5 O5 1_555 1_555
C6 O7 1_555 1_555
N1 C1 1_555 1_555
O8 Er1 1_555 1_555
H5 O8 1_555 1_555
H6 O8 1_555 1_555
Er1A O1_2 1_555 1_555
Er1A_2 O1 1_555 1_555
Er1A_3 O2 1_555 1_555
Er1A_4 O4 1_555 1_555
Er1A_5 O6 1_555 1_555
Er1_2 O1A 1_555 1_555
Er1_3 O2A 1_555 1_555
O1A C1A 1_555 1_555
O1A_2 Er1 1_555 1_555
O2A C4A 1_555 1_555
O2A_2 Er1 1_555 1_555
O2_2 Er1A 1_555 1_555
O3A Er1A 1_555 1_555
O4A Er1 1_555 1_555
O4_2 Er1A 1_555 1_555
O5A Er1A_4 1_555 1_555
O5A_2 Er1A 1_555 1_555
O6A Er1 1_555 1_555
O6_2 Er1A 1_555 1_555
O7A Er1A_5 1_555 1_555
O7A_2 Er1A 1_555 1_555
C1A C2A 1_555 1_555
C2A N1 1_555 1_555
H1A C2A 1_555 1_555
H2A C2A 1_555 1_555
C3A H3A 1_555 1_555
H4A C3A 1_555 1_555
C4A O3A 1_555 1_555
C5A C5 1_555 1_555
C6A C6 1_555 1_555
N1A C2 1_555 1_555
O8A Er1A 1_555 1_555
H5A O8A 1_555 1_555
H6A O8A 1_555 1_555
C3 N1 1_555 1_555
O4A C5A 1_555 1_555
O5A C5A 1_555 1_555
O6A C6A 1_555 1_555
O7A C6A 1_555 1_555
C1A N1A 1_555 1_555
C3A C4A 1_555 1_555
C3A N1A 1_555 1_555

#END
