
#######################################################################
#
#                 Cambridge Crystallographic Data Centre
#                                CCDC 
#
#######################################################################
#
# If this CIF has been generated from an entry in the Cambridge 
# Structural Database, then it will include bibliographic, chemical, 
# crystal, experimental, refinement or atomic coordinate data resulting 
# from the CCDC's data processing and validation procedures.
#
#######################################################################

data_YORSII
_symmetry_cell_setting           triclinic
_symmetry_space_group_name_H-M   'P -1'
_symmetry_Int_Tables_number      2
_space_group_name_Hall           '-P 1'
loop_
_symmetry_equiv_pos_site_id
_symmetry_equiv_pos_as_xyz
1 x,y,z
2 -x,-y,-z
_cell_length_a                   6.7426(16)
_cell_length_b                   7.8105(18)
_cell_length_c                   9.168(2)
_cell_angle_alpha                95.603(4)
_cell_angle_beta                 110.399(4)
_cell_angle_gamma                93.470(4)
_cell_volume                     448.055
loop_
_atom_site_label
_atom_site_type_symbol
_atom_site_fract_x
_atom_site_fract_y
_atom_site_fract_z
Dy1 Dy 0.380903(19) 0.767933(17) 0.216983(15)
O1 O 0.7212(4) 0.4270(3) 0.6383(3)
O2 O 0.7498(4) 1.0370(3) 0.6458(3)
O3 O 0.6720(4) 0.8461(3) 0.4364(3)
O4 O 0.7185(3) 1.0052(3) -0.0591(3)
O5 O 0.6599(3) 0.8729(3) 0.1286(3)
O6 O 0.7068(4) 0.3687(3) 0.0465(3)
O7 O 0.5807(4) 0.5286(3) 0.2033(2)
C1 C 0.8522(5) 0.4670(4) 0.5754(4)
C2 C 0.9084(6) 0.3260(4) 0.4797(4)
H1 H 0.7786 0.2739 0.3969
H2 H 0.9642 0.2378 0.5461
C3 C 0.8856(5) 0.7678(4) 0.6824(4)
H3 H 1.0158 0.8303 0.7570
H4 H 0.8047 0.7211 0.7413
C4 C 0.7572(5) 0.8921(4) 0.5791(4)
C5 C 0.6100(5) 0.9650(4) 0.0197(4)
C6 C 0.5829(5) 0.4700(4) 0.0725(4)
N1 N 0.9389(4) 0.6254(3) 0.5917(3)
O8 O 0.0014(4) 0.7095(4) 0.0918(3)
H5 H -0.0454 0.6099 0.1026
H6 H -0.0545 0.7913 0.1263
Dy1A Dy 1.619097(19) 0.232067(17) 0.783017(15)
Dy1A_2 Dy 0.619097(19) 0.232067(17) 0.783017(15)
Dy1A_3 Dy 0.619097(19) 1.232067(17) 0.783017(15)
Dy1A_4 Dy 0.619097(19) 1.232067(17) -0.216983(15)
Dy1A_5 Dy 0.619097(19) 0.232067(17) -0.216983(15)
Dy1_2 Dy 1.380903(19) 0.767933(17) 0.216983(15)
Dy1_3 Dy 1.380903(19) -0.232067(17) 0.216983(15)
O1A O 1.2788(4) 0.5730(3) 0.3617(3)
O1A_2 O 0.2788(4) 0.5730(3) 0.3617(3)
O1_2 O 1.7212(4) 0.4270(3) 0.6383(3)
O2A O 1.2502(4) -0.0370(3) 0.3542(3)
O2A_2 O 0.2502(4) 0.9630(3) 0.3542(3)
O2_2 O 1.7498(4) 0.0370(3) 0.6458(3)
O3A O 1.3280(4) 0.1539(3) 0.5636(3)
O4A O 0.2815(3) 0.9948(3) 0.0591(3)
O4_2 O 1.7185(3) 0.0052(3) 0.9409(3)
O5A O 0.3401(3) 1.1271(3) -0.1286(3)
O5A_2 O 1.3401(3) 0.1271(3) 0.8714(3)
O6A O 0.2932(4) 0.6313(3) -0.0465(3)
O6_2 O 1.7068(4) 0.3687(3) 1.0465(3)
O7A O 0.4193(4) 0.4714(3) -0.2033(2)
O7A_2 O 1.4193(4) 0.4714(3) 0.7967(2)
C1A C 1.1478(5) 0.5330(4) 0.4246(4)
C2A C 1.0916(6) 0.6740(4) 0.5203(4)
H1A H 1.2214 0.7261 0.6031
H2A H 1.0358 0.7622 0.4539
C3A C 1.1144(5) 0.2322(4) 0.3176(4)
H3A H 0.9842 0.1697 0.2430
H4A H 1.1953 0.2789 0.2587
C4A C 1.2428(5) 0.1079(4) 0.4209(4)
C5A C 0.3900(5) 1.0350(4) -0.0197(4)
C6A C 0.4171(5) 0.5300(4) -0.0725(4)
N1A N 1.0611(4) 0.3746(3) 0.4083(3)
O8A O 1.9986(4) 0.2905(4) 0.9082(3)
H5A H 2.0454 0.3901 0.8974
H6A H 2.0545 0.2087 0.8737
loop_
_geom_bond_atom_site_label_1
_geom_bond_atom_site_label_2
_geom_bond_site_symmetry_1
_geom_bond_site_symmetry_2
Dy1 O3 1_555 1_555
O1 C1 1_555 1_555
O2 C4 1_555 1_555
O3 C4 1_555 1_555
O4 C5 1_555 1_555
O5 Dy1 1_555 1_555
O6 C6 1_555 1_555
O7 Dy1 1_555 1_555
C1 C2 1_555 1_555
C2 H1 1_555 1_555
H2 C2 1_555 1_555
C3 H3 1_555 1_555
H4 C3 1_555 1_555
C4 C3 1_555 1_555
C5 O5 1_555 1_555
C6 O7 1_555 1_555
N1 C1 1_555 1_555
O8 Dy1 1_555 1_555
H5 O8 1_555 1_555
H6 O8 1_555 1_555
Dy1A O1_2 1_555 1_555
Dy1A_2 O1 1_555 1_555
Dy1A_3 O2 1_555 1_555
Dy1A_4 O4 1_555 1_555
Dy1A_5 O6 1_555 1_555
Dy1_2 O1A 1_555 1_555
Dy1_3 O2A 1_555 1_555
O1A C1A 1_555 1_555
O1A_2 Dy1 1_555 1_555
O2A C4A 1_555 1_555
O2A_2 Dy1 1_555 1_555
O2_2 Dy1A 1_555 1_555
O3A Dy1A 1_555 1_555
O4A Dy1 1_555 1_555
O4_2 Dy1A 1_555 1_555
O5A Dy1A_4 1_555 1_555
O5A_2 Dy1A 1_555 1_555
O6A Dy1 1_555 1_555
O6_2 Dy1A 1_555 1_555
O7A Dy1A_5 1_555 1_555
O7A_2 Dy1A 1_555 1_555
C1A C2A 1_555 1_555
C2A N1 1_555 1_555
H1A C2A 1_555 1_555
H2A C2A 1_555 1_555
C3A H3A 1_555 1_555
H4A C3A 1_555 1_555
C4A O3A 1_555 1_555
C5A C5 1_555 1_555
C6A C6 1_555 1_555
N1A C2 1_555 1_555
O8A Dy1A 1_555 1_555
H5A O8A 1_555 1_555
H6A O8A 1_555 1_555
C3 N1 1_555 1_555
O4A C5A 1_555 1_555
O5A C5A 1_555 1_555
O6A C6A 1_555 1_555
O7A C6A 1_555 1_555
C1A N1A 1_555 1_555
C3A C4A 1_555 1_555
C3A N1A 1_555 1_555

#END
