
#######################################################################
#
#                 Cambridge Crystallographic Data Centre
#                                CCDC 
#
#######################################################################
#
# If this CIF has been generated from an entry in the Cambridge 
# Structural Database, then it will include bibliographic, chemical, 
# crystal, experimental, refinement or atomic coordinate data resulting 
# from the CCDC's data processing and validation procedures.
#
#######################################################################

data_YORTAB
_symmetry_cell_setting           triclinic
_symmetry_space_group_name_H-M   'P -1'
_symmetry_Int_Tables_number      2
_space_group_name_Hall           '-P 1'
loop_
_symmetry_equiv_pos_site_id
_symmetry_equiv_pos_as_xyz
1 x,y,z
2 -x,-y,-z
_cell_length_a                   6.6649(15)
_cell_length_b                   7.7808(17)
_cell_length_c                   9.076(2)
_cell_angle_alpha                95.798(3)
_cell_angle_beta                 109.928(3)
_cell_angle_gamma                93.594(3)
_cell_volume                     437.84
loop_
_atom_site_label
_atom_site_type_symbol
_atom_site_fract_x
_atom_site_fract_y
_atom_site_fract_z
Yb1 Yb 0.383090(17) -0.231150(14) 0.216470(13)
O1 O 0.2839(4) 0.5769(3) 0.3609(3)
O2 O 0.2540(4) -0.0402(3) 0.3547(3)
O3 O 0.3302(4) 0.1529(4) 0.5666(3)
O4 O 0.2798(4) -0.0083(3) 0.0613(3)
O5 O 0.6629(4) -0.1256(3) 0.1297(3)
O6 O 0.2953(4) -0.3647(3) -0.0459(3)
O7 O 0.5829(4) -0.4668(3) 0.2051(3)
C1 C 0.1530(5) 0.5349(4) 0.4248(4)
C2 C 0.0909(6) 0.6765(4) 0.5217(5)
H1 H 0.2200 0.7297 0.6062
H2 H 0.0351 0.7649 0.4550
C3 C 0.1229(6) 0.2325(4) 0.3177(4)
H3 H -0.0067 0.1705 0.2398
H4 H 0.2096 0.2801 0.2617
C4 C 0.2469(5) 0.1062(4) 0.4228(4)
C5 C 0.6103(5) -0.0344(4) 0.0199(4)
C6 C 0.4158(5) -0.4704(4) -0.0738(4)
N1 N 0.0653(4) 0.3744(4) 0.4087(3)
O8 O -0.0084(4) 1.2904(4) 0.9053(3)
H5 H -0.0468 -0.3897 0.1001
H6 H -0.0558 -0.2083 0.1238
Yb1A Yb -0.383090(17) 0.231150(14) 0.783530(13)
Yb1_2 Yb 0.383090(17) 0.768850(14) 0.216470(13)
Yb1A_2 Yb 0.616910(17) 0.231150(14) 0.783530(13)
Yb1A_3 Yb 0.616910(17) 0.231150(14) -0.216470(13)
Yb1A_4 Yb -0.383090(17) 1.231150(14) 0.783530(13)
Yb1_3 Yb -0.616910(17) 0.768850(14) 0.216470(13)
Yb1A_5 Yb 0.616910(17) -0.768850(14) -0.216470(13)
O1A O -0.2839(4) 0.4231(3) 0.6391(3)
O1A_2 O -0.2839(4) 1.4231(3) 0.6391(3)
O1_2 O 0.2839(4) -0.4231(3) 0.3609(3)
O2A O -0.2540(4) 1.0402(3) 0.6453(3)
O3A O -0.3302(4) 0.8471(4) 0.4334(3)
O3_2 O -0.6698(4) 1.1529(4) 0.5666(3)
O3A_2 O 0.6698(4) -0.1529(4) 0.4334(3)
O4A O -0.2798(4) 1.0083(3) 0.9387(3)
O4A_2 O 0.7202(4) 0.0083(3) -0.0613(3)
O5A O -0.6629(4) 1.1256(3) 0.8703(3)
O5A_2 O 0.3371(4) 0.1256(3) -0.1297(3)
O6A O -0.2953(4) 1.3647(3) 1.0459(3)
O6A_2 O 0.7047(4) -0.6353(3) 0.0459(3)
O7A O -0.5829(4) 1.4668(3) 0.7949(3)
O7A_2 O 0.4171(4) -0.5332(3) -0.2051(3)
C1A C -0.1530(5) 0.4651(4) 0.5752(4)
C2A C -0.0909(6) 0.3235(4) 0.4783(5)
H1A H -0.2200 0.2703 0.3938
H2A H -0.0351 0.2351 0.5450
C3A C -0.1229(6) 0.7675(4) 0.6823(4)
H3A H 0.0067 0.8295 0.7602
H4A H -0.2096 0.7199 0.7383
C4A C -0.2469(5) 0.8938(4) 0.5772(4)
C5A C 0.3897(5) 0.0344(4) -0.0199(4)
C6A C 0.5842(5) -0.5296(4) 0.0738(4)
N1A N -0.0653(4) 0.6256(4) 0.5913(3)
O8A O 0.0084(4) -0.2904(4) 0.0947(3)
H5A H 0.0468 1.3897 0.8999
H6A H 0.0558 1.2083 0.8762
loop_
_geom_bond_atom_site_label_1
_geom_bond_atom_site_label_2
_geom_bond_site_symmetry_1
_geom_bond_site_symmetry_2
Yb1 O2 1_555 1_555
O1 C1 1_555 1_555
O2 C4 1_555 1_555
O3 C4 1_555 1_555
O4 Yb1 1_555 1_555
O5 Yb1 1_555 1_555
O6 Yb1 1_555 1_555
O7 Yb1 1_555 1_555
C1 C2 1_555 1_555
C2 H1 1_555 1_555
H2 C2 1_555 1_555
C3 H3 1_555 1_555
H4 C3 1_555 1_555
C4 C3 1_555 1_555
C5 O5 1_555 1_555
C6 O6 1_555 1_555
N1 C1 1_555 1_555
O8 Yb1A_4 1_555 1_555
H5 O8A 1_555 1_555
H6 O8A 1_555 1_555
Yb1A O1A 1_555 1_555
Yb1_2 O1 1_555 1_555
Yb1A_2 O3 1_555 1_555
Yb1A_3 O4A_2 1_555 1_555
Yb1A_4 O1A_2 1_555 1_555
Yb1_3 O3A 1_555 1_555
Yb1A_5 O6A_2 1_555 1_555
O1A C1A 1_555 1_555
O1_2 Yb1 1_555 1_555
O2A Yb1A_4 1_555 1_555
O3A C4A 1_555 1_555
O3_2 Yb1A_4 1_555 1_555
O3A_2 Yb1 1_555 1_555
O4A Yb1A_4 1_555 1_555
O4A_2 C5 1_555 1_555
O5A Yb1A_4 1_555 1_555
O5A_2 Yb1A_3 1_555 1_555
O6A Yb1A_4 1_555 1_555
O6A_2 C6A 1_555 1_555
O7A Yb1A_4 1_555 1_555
O7A_2 C6 1_555 1_555
C1A C2A 1_555 1_555
C2A N1 1_555 1_555
H1A C2A 1_555 1_555
H2A C2A 1_555 1_555
C3A H3A 1_555 1_555
H4A C3A 1_555 1_555
C4A O2A 1_555 1_555
C5A O4 1_555 1_555
C6A O7 1_555 1_555
N1A C2 1_555 1_555
O8A Yb1 1_555 1_555
H5A O8 1_555 1_555
H6A O8 1_555 1_555
C3 N1 1_555 1_555
C5 C5A 1_555 1_555
C6 C6A 1_555 1_555
Yb1A_5 O7A_2 1_555 1_555
O5A_2 C5A 1_555 1_555
C1A N1A 1_555 1_555
C3A C4A 1_555 1_555
C3A N1A 1_555 1_555

#END
