
#######################################################################
#
#                 Cambridge Crystallographic Data Centre
#                                CCDC 
#
#######################################################################
#
# If this CIF has been generated from an entry in the Cambridge 
# Structural Database, then it will include bibliographic, chemical, 
# crystal, experimental, refinement or atomic coordinate data resulting 
# from the CCDC's data processing and validation procedures.
#
#######################################################################

data_YORYEK
_symmetry_cell_setting           triclinic
_symmetry_space_group_name_H-M   'P -1'
_symmetry_Int_Tables_number      2
_space_group_name_Hall           '-P 1'
loop_
_symmetry_equiv_pos_site_id
_symmetry_equiv_pos_as_xyz
1 x,y,z
2 -x,-y,-z
_cell_length_a                   7.472(3)
_cell_length_b                   8.752(4)
_cell_length_c                   11.646(4)
_cell_angle_alpha                92.638(5)
_cell_angle_beta                 101.187(4)
_cell_angle_gamma                90.541(5)
_cell_volume                     746.196
loop_
_atom_site_label
_atom_site_type_symbol
_atom_site_fract_x
_atom_site_fract_y
_atom_site_fract_z
Ni1 Ni 0.0000 1.0000 0.5000
Ni2 Ni 0.74884(3) 0.28398(3) 0.846015(19)
O1 O 0.62640(18) 0.21260(16) 0.66886(11)
O2 O 0.42844(18) 0.28586(16) 0.51200(11)
O3 O 0.79369(18) 0.43422(16) 0.99517(11)
O4 O 0.72769(17) 0.66615(16) 1.05991(11)
O5 O 0.31716(19) 0.96450(16) 0.73899(12)
O6 O 0.13529(18) 0.82511(16) 0.59603(12)
O7 O 0.54493(18) 0.15603(16) 0.89812(12)
O8 O 0.95921(19) 0.37754(17) 0.77386(12)
O10 O -0.10463(19) 0.83137(17) 0.37653(12)
O11 O -0.22409(19) 0.96928(17) 0.57389(12)
N1 N 0.5843(2) 0.45584(18) 0.79254(13)
N2 N 0.9360(2) 0.12982(19) 0.92694(14)
C1 C 0.7126(2) 0.5585(2) 0.98313(15)
C2 C 0.5859(2) 0.5778(2) 0.86589(15)
C3 C 0.4837(2) 0.7045(2) 0.83299(15)
H1 H 0.4883 0.7902 0.8838
C4 C 0.3728(2) 0.7007(2) 0.72107(16)
C5 C 0.2671(2) 0.8419(2) 0.68248(15)
C6 C 0.3676(2) 0.5695(2) 0.64714(16)
H2 H 0.2901 0.5629 0.5742
C7 C 0.4808(2) 0.4493(2) 0.68506(15)
C8 C 0.5115(2) 0.3041(2) 0.61495(16)
C9 C 0.9482(3) 0.1361(2) 1.05619(16)
H3 H 0.8303 0.1078 1.0729
H4 H 0.9767 0.2403 1.0866
C10 C 0.9085(3) -0.0311(2) 0.88123(16)
H5 H 0.7888 -0.0668 0.8899
H6 H 0.9117 -0.0359 0.7983
H7 H 1.035(4) 0.166(3) 0.916(2)
H8 H 0.496(3) 0.095(3) 0.8485(18)
H9 H -0.294(3) 0.900(3) 0.544(2)
H10 H 0.465(3) 0.210(3) 0.913(2)
H11 H 1.047(3) 0.391(4) 0.826(2)
H12 H -0.272(4) 1.045(3) 0.598(2)
H13 H -0.170(4) 0.887(3) 0.331(2)
H15 H 0.935(4) 0.452(3) 0.733(2)
H17 H -0.045(4) 0.774(3) 0.340(2)
Ni2A Ni -0.74884(3) 1.71602(3) 0.153985(19)
Ni2A_2 Ni 1.25116(3) -0.28398(3) 1.153985(19)
O1A O -0.62640(18) 1.78740(16) 0.33114(11)
O2A O -0.42844(18) 1.71414(16) 0.48800(11)
O3A O -0.79369(18) 1.56578(16) 0.00483(11)
O4A O -0.72769(17) 1.33385(16) -0.05991(11)
O5A O -0.31716(19) 1.03550(16) 0.26101(12)
O6A O -0.13529(18) 1.17489(16) 0.40397(12)
O7A O -0.54493(18) 1.84397(16) 0.10188(12)
O8A O -0.95921(19) 1.62246(17) 0.22614(12)
O10A O 0.10463(19) 1.16863(17) 0.62347(12)
O11A O 0.22409(19) 1.03072(17) 0.42611(12)
N1A N -0.5843(2) 1.54416(18) 0.20746(13)
N2A N 1.0640(2) -0.12982(19) 1.07306(14)
N2A_2 N -0.9360(2) 1.87018(19) 0.07306(14)
C1A C -0.7126(2) 1.4415(2) 0.01687(15)
C2A C -0.5859(2) 1.4222(2) 0.13411(15)
C3A C -0.4837(2) 1.2955(2) 0.16701(15)
H1A H -0.4883 1.2098 0.1162
C4A C -0.3728(2) 1.2993(2) 0.27893(16)
C5A C -0.2671(2) 1.1581(2) 0.31752(15)
C6A C -0.3676(2) 1.4305(2) 0.35286(16)
H2A H -0.2901 1.4371 0.4258
C7A C -0.4808(2) 1.5507(2) 0.31494(15)
C8A C -0.5115(2) 1.6959(2) 0.38505(16)
C9A C 1.0518(3) -0.1361(2) 0.94381(16)
H3A H 1.1697 -0.1078 0.9271
H4A H 1.0233 -0.2403 0.9134
C10A C 1.0915(3) 0.0311(2) 1.11877(16)
H5A H 1.2112 0.0668 1.1101
H6A H 1.0883 0.0359 1.2017
H7A H 0.965(4) -0.166(3) 1.084(2)
H7A_2 H -1.035(4) 1.834(3) 0.084(2)
H8A H -0.496(3) 1.905(3) 0.1515(18)
H9A H 0.294(3) 1.100(3) 0.456(2)
H10A H -0.465(3) 1.790(3) 0.087(2)
H11A H -1.047(3) 1.609(4) 0.174(2)
H12A H 0.272(4) 0.955(3) 0.402(2)
H13A H 0.170(4) 1.113(3) 0.669(2)
H15A H -0.935(4) 1.548(3) 0.267(2)
H17A H 0.045(4) 1.226(3) 0.660(2)
O9 O 0.8772(2) 0.6033(2) 0.63257(18)
H14 H 0.953(4) 0.660(3) 0.616(3)
H16 H 0.786(3) 0.633(4) 0.590(2)
loop_
_geom_bond_atom_site_label_1
_geom_bond_atom_site_label_2
_geom_bond_site_symmetry_1
_geom_bond_site_symmetry_2
Ni1 O6 1_555 1_555
Ni2 O1 1_555 1_555
O1 C8 1_555 1_555
O2 C8 1_555 1_555
O3 Ni2 1_555 1_555
O4 C1 1_555 1_555
O5 C5 1_555 1_555
O6 C5 1_555 1_555
O7 Ni2 1_555 1_555
O8 Ni2 1_555 1_555
O9 H14 1_555 1_555
O10 Ni1 1_555 1_555
O11 Ni1 1_555 1_555
N1 Ni2 1_555 1_555
N2 Ni2 1_555 1_555
C1 O3 1_555 1_555
C2 N1 1_555 1_555
C3 C2 1_555 1_555
H1 C3 1_555 1_555
C4 C3 1_555 1_555
C5 C4 1_555 1_555
C6 C4 1_555 1_555
H2 C6 1_555 1_555
C7 N1 1_555 1_555
C8 C7 1_555 1_555
C9 N2 1_555 1_555
H3 C9 1_555 1_555
H4 C9 1_555 1_555
C10 N2 1_555 1_555
H5 C10 1_555 1_555
H6 C10 1_555 1_555
H7 N2 1_555 1_555
H8 O7 1_555 1_555
H9 O11 1_555 1_555
H10 O7 1_555 1_555
H11 O8 1_555 1_555
H12 O11 1_555 1_555
H13 O10 1_555 1_555
H15 O8 1_555 1_555
H16 O9 1_555 1_555
H17 O10 1_555 1_555
Ni2A O1A 1_555 1_555
Ni2A_2 N2A 1_555 1_555
O1A C8A 1_555 1_555
O2A C8A 1_555 1_555
O3A Ni2A 1_555 1_555
O4A C1A 1_555 1_555
O5A C5A 1_555 1_555
O6A Ni1 1_555 1_555
O7A Ni2A 1_555 1_555
O8A Ni2A 1_555 1_555
O10A Ni1 1_555 1_555
O11A Ni1 1_555 1_555
N1A Ni2A 1_555 1_555
N2A C9A 1_555 1_555
N2A_2 Ni2A 1_555 1_555
C1A O3A 1_555 1_555
C2A N1A 1_555 1_555
C3A C2A 1_555 1_555
H1A C3A 1_555 1_555
C4A C3A 1_555 1_555
C5A O6A 1_555 1_555
C6A C4A 1_555 1_555
H2A C6A 1_555 1_555
C7A N1A 1_555 1_555
C8A C7A 1_555 1_555
C9A C10 1_555 1_555
H3A C9A 1_555 1_555
H4A C9A 1_555 1_555
C10A C9 1_555 1_555
H5A C10A 1_555 1_555
H6A C10A 1_555 1_555
H7A N2A 1_555 1_555
H7A_2 N2A_2 1_555 1_555
H8A O7A 1_555 1_555
H9A O11A 1_555 1_555
H10A O7A 1_555 1_555
H11A O8A 1_555 1_555
H12A O11A 1_555 1_555
H13A O10A 1_555 1_555
H15A O8A 1_555 1_555
H17A O10A 1_555 1_555
C1 C2 1_555 1_555
C6 C7 1_555 1_555
N2A C10A 1_555 1_555
C1A C2A 1_555 1_555
C4A C5A 1_555 1_555
C6A C7A 1_555 1_555

#END
