
#######################################################################
#
#                 Cambridge Crystallographic Data Centre
#                                CCDC 
#
#######################################################################
#
# If this CIF has been generated from an entry in the Cambridge 
# Structural Database, then it will include bibliographic, chemical, 
# crystal, experimental, refinement or atomic coordinate data resulting 
# from the CCDC's data processing and validation procedures.
#
#######################################################################

data_YORYUA
_symmetry_cell_setting           triclinic
_symmetry_space_group_name_H-M   'P -1'
_symmetry_Int_Tables_number      2
_space_group_name_Hall           '-P 1'
loop_
_symmetry_equiv_pos_site_id
_symmetry_equiv_pos_as_xyz
1 x,y,z
2 -x,-y,-z
_cell_length_a                   6.714(2)
_cell_length_b                   8.773(3)
_cell_length_c                   10.070(3)
_cell_angle_alpha                108.977(5)
_cell_angle_beta                 97.689(4)
_cell_angle_gamma                100.447(5)
_cell_volume                     539.627
loop_
_atom_site_label
_atom_site_type_symbol
_atom_site_fract_x
_atom_site_fract_y
_atom_site_fract_z
Ca1 Ca -0.44458(16) 0.05846(13) 0.33046(11)
Ca2 Ca 0.0000 0.5000 1.0000
O1 O 0.0995(6) 0.9533(5) 0.6388(5)
O2 O -0.4415(6) 0.1770(4) 0.5983(4)
O3 O -0.4663(7) -0.1584(5) 0.1087(4)
O4 O -0.2905(7) 0.3820(5) 0.8059(4)
O5 O -0.1955(6) 0.9686(5) 0.7160(4)
N1 N -0.3145(7) 0.3660(5) 0.4519(5)
O6 O -0.3848(7) 0.2089(5) 0.1712(4)
O7 O -0.2148(7) 0.4336(5) 0.1387(4)
C1 C -0.2558(8) 0.4559(7) 0.3734(6)
O8 O -0.0775(8) 0.7606(6) 1.0654(6)
C2 C -0.3442(8) 0.3243(7) 0.6730(6)
C3 C -0.2892(8) 0.4388(7) 0.5928(6)
C4 C -0.1589(7) 0.7037(6) 0.5787(5)
C5 C -0.1751(8) 0.6269(6) 0.4328(6)
C6 C -0.2889(8) 0.3582(7) 0.2149(6)
C7 C -0.0772(8) 0.8904(6) 0.6497(5)
C8 C -0.2165(8) 0.6116(7) 0.6611(6)
H1 H -0.134(9) 0.678(8) 0.369(7)
H2 H -0.214(9) 0.667(8) 0.769(7)
H3 H -0.533(8) -0.246(4) 0.110(6)
H4 H -0.504(13) -0.158(11) 0.027(4)
H5 H 0.018(8) 0.835(7) 1.123(6)
H6 H -0.194(6) 0.774(9) 1.075(8)
Ca1A Ca 0.44458(16) 0.94154(13) 1.66954(11)
Ca1A_2 Ca 0.44458(16) 0.94154(13) 0.66954(11)
Ca1A_3 Ca -0.55542(16) -0.05846(13) 0.66954(11)
Ca1A_4 Ca -0.55542(16) 0.94154(13) 0.66954(11)
Ca1_2 Ca -0.44458(16) 0.05846(13) 1.33046(11)
Ca1_3 Ca 0.55542(16) 1.05846(13) 1.33046(11)
Ca1_4 Ca 0.55542(16) 0.05846(13) 1.33046(11)
Ca2_2 Ca 0.0000 0.5000 0.0000
Ca2_3 Ca 0.0000 0.5000 2.0000
O1A O -0.0995(6) 0.0467(5) 1.3612(5)
O1A_2 O -0.0995(6) 0.0467(5) 0.3612(5)
O1_2 O 0.0995(6) 0.9533(5) 1.6388(5)
O2A O 0.4415(6) 0.8230(4) 1.4017(4)
O2A_2 O -0.5585(6) -0.1770(4) 0.4017(4)
O2_2 O 0.5585(6) 1.1770(4) 1.5983(4)
O3A O 0.4663(7) 1.1584(5) 1.8913(4)
O4A O 0.2905(7) 0.6180(5) 1.1941(4)
O5A O 0.1955(6) 0.0314(5) 1.2840(4)
O5A_2 O -0.8045(6) 0.0314(5) 0.2840(4)
O5_2 O 0.8045(6) 0.9686(5) 1.7160(4)
N1A N 0.3145(7) 0.6340(5) 1.5481(5)
O6A O 0.3848(7) 0.7911(5) 1.8288(4)
O7A O 0.2148(7) 0.5664(5) 1.8613(4)
O7A_2 O 0.2148(7) 0.5664(5) 0.8613(4)
O7_2 O -0.2148(7) 0.4336(5) 1.1387(4)
C1A C 0.2558(8) 0.5441(7) 1.6266(6)
O8A O 0.0775(8) 0.2394(6) 0.9346(6)
C2A C 0.3442(8) 0.6757(7) 1.3270(6)
C3A C 0.2892(8) 0.5612(7) 1.4072(6)
C4A C 0.1589(7) 0.2963(6) 1.4213(5)
C5A C 0.1751(8) 0.3731(6) 1.5672(6)
C6A C 0.2889(8) 0.6418(7) 1.7851(6)
C7A C 0.0772(8) 0.1096(6) 1.3503(5)
C8A C 0.2165(8) 0.3884(7) 1.3389(6)
H1A H 0.134(9) 0.322(8) 1.631(7)
H2A H 0.214(9) 0.333(8) 1.231(7)
H3A H 0.533(8) 1.246(4) 1.890(6)
H4A H 0.504(13) 1.158(11) 1.973(4)
H5A H -0.018(8) 0.165(7) 0.877(6)
H6A H 0.194(6) 0.226(9) 0.925(8)
loop_
_geom_bond_atom_site_label_1
_geom_bond_atom_site_label_2
_geom_bond_site_symmetry_1
_geom_bond_site_symmetry_2
Ca1 O2 1_555 1_555
Ca2 O4 1_555 1_555
O1 C7 1_555 1_555
O2 C2 1_555 1_555
O3 Ca1 1_555 1_555
O4 C2 1_555 1_555
O5 C7 1_555 1_555
N1 Ca1 1_555 1_555
O6 Ca1 1_555 1_555
O7 C6 1_555 1_555
C1 N1 1_555 1_555
O8 Ca2 1_555 1_555
C2 C3 1_555 1_555
C3 N1 1_555 1_555
C4 C5 1_555 1_555
C5 C1 1_555 1_555
C6 O6 1_555 1_555
C7 C4 1_555 1_555
C8 C3 1_555 1_555
H1 C5 1_555 1_555
H2 C8 1_555 1_555
H3 O3 1_555 1_555
H4 O3 1_555 1_555
H5 O8 1_555 1_555
H6 O8 1_555 1_555
Ca1A O1_2 1_555 1_555
Ca1A_2 O1 1_555 1_555
Ca1A_3 O2 1_555 1_555
Ca1A_4 O5 1_555 1_555
Ca1_2 O1A 1_555 1_555
Ca1_3 O2A 1_555 1_555
Ca1_4 O5A 1_555 1_555
Ca2_2 O7 1_555 1_555
Ca2_3 O7A 1_555 1_555
O1A C7A 1_555 1_555
O1A_2 Ca1 1_555 1_555
O2A Ca1A 1_555 1_555
O2A_2 Ca1 1_555 1_555
O2_2 Ca1A 1_555 1_555
O3A Ca1A 1_555 1_555
O4A Ca2 1_555 1_555
O5A C7A 1_555 1_555
O5A_2 Ca1 1_555 1_555
O5_2 Ca1A 1_555 1_555
N1A Ca1A 1_555 1_555
O6A Ca1A 1_555 1_555
O7A C6A 1_555 1_555
O7A_2 Ca2 1_555 1_555
O7_2 Ca2 1_555 1_555
C1A N1A 1_555 1_555
O8A Ca2 1_555 1_555
C2A O2A 1_555 1_555
C3A N1A 1_555 1_555
C4A C5A 1_555 1_555
C5A C1A 1_555 1_555
C6A O6A 1_555 1_555
C7A C4A 1_555 1_555
C8A C3A 1_555 1_555
H1A C5A 1_555 1_555
H2A C8A 1_555 1_555
H3A O3A 1_555 1_555
H4A O3A 1_555 1_555
H5A O8A 1_555 1_555
H6A O8A 1_555 1_555
C1 C6 1_555 1_555
C4 C8 1_555 1_555
Ca1A_3 O2A_2 1_555 1_555
Ca1_3 O2_2 1_555 1_555
O4A C2A 1_555 1_555
C1A C6A 1_555 1_555
C2A C3A 1_555 1_555
C4A C8A 1_555 1_555

#END
