
#######################################################################
#
#                 Cambridge Crystallographic Data Centre
#                                CCDC 
#
#######################################################################
#
# If this CIF has been generated from an entry in the Cambridge 
# Structural Database, then it will include bibliographic, chemical, 
# crystal, experimental, refinement or atomic coordinate data resulting 
# from the CCDC's data processing and validation procedures.
#
#######################################################################

data_YORYIO
_symmetry_cell_setting           monoclinic
_symmetry_space_group_name_H-M   'C c'
_symmetry_Int_Tables_number      9
_space_group_name_Hall           'C -2yc'
loop_
_symmetry_equiv_pos_site_id
_symmetry_equiv_pos_as_xyz
1 x,y,z
2 x,-y,1/2+z
3 1/2+x,1/2+y,z
4 1/2+x,1/2-y,1/2+z
_cell_length_a                   19.708(4)
_cell_length_b                   6.799(5)
_cell_length_c                   19.461(4)
_cell_angle_alpha                90
_cell_angle_beta                 116.873(5)
_cell_angle_gamma                90
_cell_volume                     2326.07
loop_
_atom_site_label
_atom_site_type_symbol
_atom_site_fract_x
_atom_site_fract_y
_atom_site_fract_z
C1 C 0.8602(4) 0.2097(10) 0.2262(4)
C2 C 0.7859(3) 0.2035(10) 0.2172(3)
H1 H 0.7451 0.1771 0.1695
C3 C 0.7741(3) 0.2385(9) 0.2827(3)
C4 C 0.8367(4) 0.2828(10) 0.3522(3)
H2 H 0.8305 0.3085 0.3959
C5 C 0.9085(3) 0.2884(9) 0.3557(3)
C6 C 0.9830(3) 0.3352(9) 0.4254(3)
C7 C 0.6941(4) 0.2229(10) 0.2754(4)
C8 C 0.8826(4) 0.1708(10) 0.1626(4)
C9 C 1.2475(4) 0.2405(10) 0.3114(4)
C10 C 1.2451(4) 0.2130(10) 0.2395(4)
H3 H 1.1990 0.1903 0.1963
C11 C 1.3775(4) 0.2933(9) 0.3699(4)
C12 C 1.1818(5) 0.2365(13) 0.3307(5)
C13 C 1.3125(4) 0.1859(10) 0.1563(4)
C14 C 1.4438(4) 0.3483(11) 0.4448(4)
N1 N 1.3117(4) 0.2794(9) 0.3742(3)
N2 N 0.9195(3) 0.2495(8) 0.2945(3)
O1 O 0.9521(3) 0.1571(9) 0.1850(3)
O2 O 0.8300(3) 0.1556(9) 0.0961(3)
O3 O 0.6411(3) 0.1714(9) 0.2126(3)
O4 O 0.6858(3) 0.2620(10) 0.3341(3)
O5 O 0.9810(3) 0.3682(8) 0.4887(3)
O6 O 1.0408(3) 0.3353(8) 0.4153(3)
O7 O 1.1977(4) 0.2484(12) 0.4018(5)
O8 O 1.1171(4) 0.2182(12) 0.2737(5)
O9 O 1.2514(3) 0.2117(11) 0.0976(3)
O10 O 1.3725(3) 0.1336(9) 0.1567(3)
O11 O 1.4278(3) 0.3710(9) 0.5015(3)
O12 O 1.5077(3) 0.3691(9) 0.4484(3)
O13 O 0.5427(4) -0.1164(9) 0.1205(3)
O14 O 0.6121(4) 0.4211(10) 0.0733(3)
O15 O 0.4937(3) 0.3262(9) 0.1146(3)
O16 O 0.6445(3) 0.0248(9) 0.0593(3)
O17 O 1.0570(4) -0.0394(9) 0.3431(4)
O18 O 1.0204(3) 0.5356(9) 0.2663(3)
O19 O 1.2779(4) 0.5928(9) 0.4762(3)
O20 O 1.3562(3) 0.0167(8) 0.5177(3)
Mg1 Mg 1.03090(13) 0.2444(4) 0.30339(13)
Mg2 Mg 0.57237(12) 0.1554(4) 0.09789(12)
Mg3 Mg 1.31447(14) 0.3066(4) 0.48758(13)
C15 C 1.3122(4) 0.2201(9) 0.2335(4)
C16 C 1.3798(4) 0.2599(10) 0.3001(4)
H4 H 1.4259 0.2642 0.2978
H5 H 0.584(2) 0.484(7) 0.035(3)
H6 H 0.458(5) 0.38(2) 0.0775(18)
H7 H 1.092(4) -0.100(7) 0.342(5)
H8 H 0.979(3) 0.563(19) 0.230(5)
H9 H 1.278(8) 0.674(14) 0.508(6)
H10 H 1.37(2) -0.06(2) 0.496(15)
H11 H 0.653(3) 0.419(7) 0.071(6)
H12 H 0.499(3) 0.399(11) 0.151(3)
H13 H 1.048(5) -0.090(12) 0.377(4)
H14 H 1.053(4) 0.599(13) 0.261(5)
H15 H 1.246(6) 0.640(19) 0.435(4)
H16 H 1.353(11) -0.055(12) 0.551(9)
H17 H 0.679(4) -0.056(11) 0.075(4)
H18 H 0.511(9) -0.20(2) 0.096(10)
H19 H 0.635(6) 0.050(15) 0.015(2)
H20 H 0.563(13) -0.16(3) 0.165(4)
O2C O 1.3300(3) 0.3444(9) 0.5961(3)
O5C O 0.4810(3) 0.1318(8) -0.0113(3)
Mg2C Mg 1.07237(12) 0.3446(4) 0.59789(12)
Mg3C Mg 0.81447(14) 0.1934(4) -0.01242(13)
loop_
_geom_bond_atom_site_label_1
_geom_bond_atom_site_label_2
_geom_bond_site_symmetry_1
_geom_bond_site_symmetry_2
C1 C2 1_555 1_555
C2 H1 1_555 1_555
C3 C2 1_555 1_555
C4 C3 1_555 1_555
H2 C4 1_555 1_555
C5 C4 1_555 1_555
C6 C5 1_555 1_555
C7 C3 1_555 1_555
C8 C1 1_555 1_555
C9 C10 1_555 1_555
C10 H3 1_555 1_555
C11 C14 1_555 1_555
C12 C9 1_555 1_555
C13 O9 1_555 1_555
C14 O11 1_555 1_555
N1 C9 1_555 1_555
N2 C1 1_555 1_555
O1 C8 1_555 1_555
O2 C8 1_555 1_555
O3 C7 1_555 1_555
O4 C7 1_555 1_555
O5 C6 1_555 1_555
O6 C6 1_555 1_555
O7 C12 1_555 1_555
O8 C12 1_555 1_555
O10 C13 1_555 1_555
O11 Mg3 1_555 1_555
O12 C14 1_555 1_555
O13 Mg2 1_555 1_555
O14 Mg2 1_555 1_555
O15 Mg2 1_555 1_555
O16 Mg2 1_555 1_555
O17 Mg1 1_555 1_555
O18 Mg1 1_555 1_555
O19 Mg3 1_555 1_555
O20 Mg3 1_555 1_555
Mg1 N2 1_555 1_555
Mg2 O3 1_555 1_555
Mg3 N1 1_555 1_555
C15 C10 1_555 1_555
C16 C11 1_555 1_555
H4 C16 1_555 1_555
H5 O14 1_555 1_555
H6 O15 1_555 1_555
H7 O17 1_555 1_555
H8 O18 1_555 1_555
H9 O19 1_555 1_555
H10 O20 1_555 1_555
H11 O14 1_555 1_555
H12 O15 1_555 1_555
H13 O17 1_555 1_555
H14 O18 1_555 1_555
H15 O19 1_555 1_555
H16 O20 1_555 1_555
H17 O16 1_555 1_555
H18 O13 1_555 1_555
H19 O16 1_555 1_555
H20 O13 1_555 1_555
O2C Mg3 1_555 1_555
O5C Mg2 1_555 1_555
Mg2C O5 1_555 1_555
Mg3C O2 1_555 1_555
C5 N2 1_555 1_555
C11 N1 1_555 1_555
C13 C15 1_555 1_555
O1 Mg1 1_555 1_555
O6 Mg1 1_555 1_555
O7 Mg3 1_555 1_555
O8 Mg1 1_555 1_555
C15 C16 1_555 1_555

#END
