
#######################################################################
#
#                 Cambridge Crystallographic Data Centre
#                                CCDC 
#
#######################################################################
#
# If this CIF has been generated from an entry in the Cambridge 
# Structural Database, then it will include bibliographic, chemical, 
# crystal, experimental, refinement or atomic coordinate data resulting 
# from the CCDC's data processing and validation procedures.
#
#######################################################################

data_YORYAG
_symmetry_cell_setting           monoclinic
_symmetry_space_group_name_H-M   'P 21/c'
_symmetry_Int_Tables_number      14
_space_group_name_Hall           '-P 2ybc'
loop_
_symmetry_equiv_pos_site_id
_symmetry_equiv_pos_as_xyz
1 x,y,z
2 -x,1/2+y,1/2-z
3 -x,-y,-z
4 x,1/2-y,1/2+z
_cell_length_a                   10.403(5)
_cell_length_b                   17.963(6)
_cell_length_c                   13.090(6)
_cell_angle_alpha                90
_cell_angle_beta                 105.904(8)
_cell_angle_gamma                90
_cell_volume                     2352.48
loop_
_atom_site_label
_atom_site_type_symbol
_atom_site_fract_x
_atom_site_fract_y
_atom_site_fract_z
Cd1 Cd 0.16101(8) 0.06143(4) 0.06158(6)
Cd2 Cd 0.55056(9) 0.17792(5) 0.23825(10)
O1 O 0.5431(6) 0.1427(3) 0.4288(4)
O2 O 0.3220(8) 0.1466(5) 0.1652(8)
O3 O -0.0852(8) 0.0510(4) 0.0253(7)
O4 O 0.6698(9) 0.2931(5) 0.2781(10)
O5 O -0.2764(8) 0.1133(4) 0.0067(7)
O6 O 0.3652(9) 0.0322(5) 0.0239(8)
O7 O 0.5946(9) 0.0506(5) 0.2012(8)
O8 O 0.3644(9) 0.2650(6) 0.2089(10)
O9 O 0.1306(9) 0.1147(5) -0.1043(7)
O10 O 0.7564(9) -0.0367(5) 0.2360(8)
O11 O 0.8710(8) 0.3459(4) 0.3194(7)
N1 N 0.0609(9) 0.1701(5) 0.0977(7)
N2 N 0.7744(9) 0.1575(5) 0.2734(8)
O12 O 0.2114(11) -0.0123(5) 0.2080(8)
C1 C -0.1514(11) 0.1091(6) 0.0288(9)
C2 C 1.0470(12) 0.1318(7) 0.3478(9)
O13 O -0.1075(14) 0.3891(7) 0.0768(11)
H1 H -0.1889 0.3863 0.0522
O14 O 0.5369(11) 0.1997(6) 0.0573(12)
C3 C 0.7152(12) 0.0289(6) 0.2334(10)
C4 C -0.0711(11) 0.1797(6) 0.0637(8)
C5 C 0.7958(12) 0.2905(6) 0.3005(9)
C6 C 0.9563(12) 0.0736(6) 0.3087(9)
H2 H 0.9872 0.0252 0.3061
C7 C 0.9959(11) 0.2033(6) 0.3449(9)
H3 H 1.0528 0.2433 0.3687
C8 C 0.1386(11) 0.2299(6) 0.1321(9)
O15 O 1.1941(14) 0.1170(8) 0.3944(13)
H4 H 1.2087 0.0723 0.3908
C9 C -0.1291(11) 0.2496(6) 0.0588(8)
H5 H -0.2215 0.2548 0.0351
C10 C 0.8589(11) 0.2146(6) 0.3061(9)
C11 C 0.0882(11) 0.3018(6) 0.1297(9)
H6 H 0.1448 0.3419 0.1542
C12 C -0.0484(11) 0.3122(6) 0.0897(9)
C13 C 0.8212(11) 0.0886(6) 0.2741(9)
C14 C 0.2871(12) 0.2132(7) 0.1720(10)
H7 H 0.055(7) 0.128(9) -0.141(10)
H8 H 0.17(2) 0.10(2) -0.149(11)
H9 H 0.198(17) -0.056(3) 0.191(13)
H10 H 0.279(8) -0.006(8) 0.256(8)
H11 H 0.54(2) 0.178(2) 0.463(6)
H12 H 0.435(11) 0.031(10) 0.072(11)
H13 H 0.35(2) -0.011(4) 0.004(17)
H14 H 0.471(12) 0.122(11) 0.411(3)
H15 H 0.602(10) 0.187(11) 0.036(5)
H16 H 0.54(3) 0.243(2) 0.037(6)
Cd1B Cd -0.16101(8) -0.06143(4) -0.06158(6)
O3B O 0.0852(8) -0.0510(4) -0.0253(7)
O16 O 0.4751(12) 0.3827(7) 0.3299(12)
H17 H 0.521(13) 0.419(5) 0.344(6)
H18 H 0.519(14) 0.348(4) 0.319(9)
O17 O 0.5425(15) 0.4658(10) 0.1459(13)
H19 H 0.52(2) 0.506(7) 0.113(17)
H20 H 0.49(14) 0.46(5) 0.19(11)
O18? O 0.4845(12) 0.3887(7) 0.3011(12)
loop_
_geom_bond_atom_site_label_1
_geom_bond_atom_site_label_2
_geom_bond_site_symmetry_1
_geom_bond_site_symmetry_2
Cd1 O2 1_555 1_555
Cd2 O1 1_555 1_555
O1 H11 1_555 1_555
O2 Cd2 1_555 1_555
O3 Cd1 1_555 1_555
O4 Cd2 1_555 1_555
O5 C1 1_555 1_555
O6 Cd1 1_555 1_555
O7 Cd2 1_555 1_555
O8 Cd2 1_555 1_555
O9 Cd1 1_555 1_555
O10 C3 1_555 1_555
O11 C5 1_555 1_555
N1 Cd1 1_555 1_555
N2 Cd2 1_555 1_555
O12 Cd1 1_555 1_555
C1 O3 1_555 1_555
C2 C6 1_555 1_555
O13 H1 1_555 1_555
O14 Cd2 1_555 1_555
C3 O7 1_555 1_555
C4 N1 1_555 1_555
C5 O4 1_555 1_555
C6 H2 1_555 1_555
C7 C2 1_555 1_555
H3 C7 1_555 1_555
C8 N1 1_555 1_555
O15 C2 1_555 1_555
H4 O15 1_555 1_555
C9 C4 1_555 1_555
H5 C9 1_555 1_555
C10 N2 1_555 1_555
C11 C8 1_555 1_555
H6 C11 1_555 1_555
C12 O13 1_555 1_555
C13 N2 1_555 1_555
C14 O2 1_555 1_555
H7 O9 1_555 1_555
H8 O9 1_555 1_555
H9 O12 1_555 1_555
H10 O12 1_555 1_555
H12 O6 1_555 1_555
H13 O6 1_555 1_555
H14 O1 1_555 1_555
H15 O14 1_555 1_555
H16 O14 1_555 1_555
O16 H17 1_555 1_555
H18 O16 1_555 1_555
O17 H19 1_555 1_555
H20 O17 1_555 1_555
Cd1B O3 1_555 1_555
O3B Cd1 1_555 1_555
O8 C14 1_555 1_555
C1 C4 1_555 1_555
C3 C13 1_555 1_555
C5 C10 1_555 1_555
C6 C13 1_555 1_555
C7 C10 1_555 1_555
C8 C14 1_555 1_555
C9 C12 1_555 1_555
C11 C12 1_555 1_555
Cd1B O3B 1_555 1_555

#END
