
#######################################################################
#
#                 Cambridge Crystallographic Data Centre
#                                CCDC 
#
#######################################################################
#
# If this CIF has been generated from an entry in the Cambridge 
# Structural Database, then it will include bibliographic, chemical, 
# crystal, experimental, refinement or atomic coordinate data resulting 
# from the CCDC's data processing and validation procedures.
#
#######################################################################

data_YORZIP
_symmetry_cell_setting           monoclinic
_symmetry_space_group_name_H-M   'P 21/c'
_symmetry_Int_Tables_number      14
_space_group_name_Hall           '-P 2ybc'
loop_
_symmetry_equiv_pos_site_id
_symmetry_equiv_pos_as_xyz
1 x,y,z
2 -x,1/2+y,1/2-z
3 -x,-y,-z
4 x,1/2-y,1/2+z
_cell_length_a                   11.822(6)
_cell_length_b                   7.240(5)
_cell_length_c                   13.466(4)
_cell_angle_alpha                90
_cell_angle_beta                 96.142(7)
_cell_angle_gamma                90
_cell_volume                     1145.96
loop_
_atom_site_label
_atom_site_type_symbol
_atom_site_fract_x
_atom_site_fract_y
_atom_site_fract_z
Dy1 Dy 0.78394(4) 0.21528(7) 0.70526(4)
O1 O 0.8764(8) 0.3706(14) 0.8524(7)
O2 O 0.9686(9) 0.0724(14) 0.7471(7)
O3 O 0.7504(7) -0.3882(13) 1.1512(6)
O4 O 0.5059(7) 0.0303(13) 0.8818(6)
C1 C 0.5973(12) 0.060(2) 0.8472(10)
O5 O 0.6955(7) 0.5186(14) 0.7224(7)
O6 O 1.0906(7) -0.0853(11) 0.8560(5)
O7 O 0.6111(8) 0.1668(13) 0.7727(6)
C2 C 0.9919(9) -0.0222(17) 0.8258(8)
N1 N 0.7973(13) 0.007(2) 0.8514(10)
O8 O 0.6367(8) 0.2441(14) 0.5678(7)
C3 C 0.7997(13) -0.406(2) 1.0737(10)
C4 C 0.7032(10) -0.1562(19) 0.9718(8)
H1 H 0.6378 -0.1754 1.0031
C5 C 0.7042(10) -0.0318(16) 0.8943(9)
C6 C 0.8935(16) -0.078(2) 0.8818(12)
C7 C 0.9017(10) -0.2091(17) 0.9565(8)
H2 H 0.9705 -0.2675 0.9762
C8 C 0.8036(10) -0.2524(17) 1.0019(9)
O10 O 0.8457(7) -0.5599(11) 1.0527(6)
H3 H 0.866(16) 0.39(3) 0.910(5)
H4 H 0.924(8) 0.450(13) 0.845(9)
H5 H 0.586(9) 0.321(16) 0.567(12)
H6 H 0.614(12) 0.168(17) 0.525(10)
H7 H 0.634(8) 0.53(3) 0.689(13)
H8 H 0.722(16) 0.610(17) 0.697(14)
Dy1C Dy 0.78394(4) -0.71528(7) 1.20526(4)
Dy1A Dy 1.21606(4) -0.28472(7) 0.79474(4)
O3C O 0.7504(7) -0.1118(13) 0.6512(6)
O6A O 0.9094(7) 0.4147(11) 0.6440(5)
O10C O 0.8457(7) 0.0599(11) 0.5527(6)
O9 O 0.5789(9) 0.4847(14) 0.9113(7)
H9 H 0.517(5) 0.49(2) 0.878(8)
H10 H 0.615(10) 0.49(2) 0.863(6)
loop_
_geom_bond_atom_site_label_1
_geom_bond_atom_site_label_2
_geom_bond_site_symmetry_1
_geom_bond_site_symmetry_2
Dy1 O1 1_555 1_555
O1 H3 1_555 1_555
O2 Dy1 1_555 1_555
O3 C3 1_555 1_555
O4 C1 1_555 1_555
C1 O7 1_555 1_555
O5 Dy1 1_555 1_555
O6 C2 1_555 1_555
O7 Dy1 1_555 1_555
C2 O2 1_555 1_555
N1 Dy1 1_555 1_555
O8 Dy1 1_555 1_555
C3 C8 1_555 1_555
C4 H1 1_555 1_555
O9 H9 1_555 1_555
C5 C1 1_555 1_555
C6 C2 1_555 1_555
C7 C6 1_555 1_555
H2 C7 1_555 1_555
C8 C4 1_555 1_555
O10 C3 1_555 1_555
H4 O1 1_555 1_555
H5 O8 1_555 1_555
H6 O8 1_555 1_555
H7 O5 1_555 1_555
H8 O5 1_555 1_555
H10 O9 1_555 1_555
Dy1C O3 1_555 1_555
Dy1A O6 1_555 1_555
O3C Dy1 1_555 1_555
O6A Dy1 1_555 1_555
O10C Dy1 1_555 1_555
N1 C5 1_555 1_555
N1 C6 1_555 1_555
C4 C5 1_555 1_555
C7 C8 1_555 1_555
O10 Dy1C 1_555 1_555

#END
