
#######################################################################
#
#                 Cambridge Crystallographic Data Centre
#                                CCDC 
#
#######################################################################
#
# If this CIF has been generated from an entry in the Cambridge 
# Structural Database, then it will include bibliographic, chemical, 
# crystal, experimental, refinement or atomic coordinate data resulting 
# from the CCDC's data processing and validation procedures.
#
#######################################################################

data_YORZEL
_symmetry_cell_setting           triclinic
_symmetry_space_group_name_H-M   'P -1'
_symmetry_Int_Tables_number      2
_space_group_name_Hall           '-P 1'
loop_
_symmetry_equiv_pos_site_id
_symmetry_equiv_pos_as_xyz
1 x,y,z
2 -x,-y,-z
_cell_length_a                   7.310(3)
_cell_length_b                   7.851(4)
_cell_length_c                   17.242(4)
_cell_angle_alpha                101.448(5)
_cell_angle_beta                 92.926(4)
_cell_angle_gamma                90.140(4)
_cell_volume                     968.502
loop_
_atom_site_label
_atom_site_type_symbol
_atom_site_fract_x
_atom_site_fract_y
_atom_site_fract_z
Ba1 Ba 0.24294(9) 0.00421(9) 0.73835(4)
Ba2 Ba 0.24094(10) 0.22407(11) 1.17056(4)
C1 C 0.2619(14) 0.6387(14) 0.9290(6)
O1 O 0.1407(15) 0.4297(14) 1.3170(5)
O2 O 0.0566(15) -0.3656(13) 0.4823(6)
H1 H 0.0183 -0.4469 0.5005
O3 O 0.4262(12) 0.1358(12) 0.3047(5)
O4 O 0.0512(15) 0.1275(12) 0.8866(5)
O5 O 0.1070(13) 0.1219(12) 1.0143(5)
O6 O 0.4060(12) 0.8357(12) 0.8622(6)
O7 O 0.1273(12) 0.7354(13) 0.8183(5)
O8 O 0.1207(15) -0.2534(12) 0.6109(5)
O9 O 0.1472(13) 0.0192(12) 0.2799(6)
C2 C 0.1890(14) 0.4738(14) 0.9129(6)
H2 H 0.1396 0.4271 0.8624
O10 O 0.4425(15) 0.2663(13) 0.6831(6)
C3 C 0.1953(18) -0.0803(16) 0.4330(7)
H3 H 0.1397 -0.1682 0.3949
N1 N 0.2744(13) 0.0350(13) 0.5720(6)
C4 C 0.197(2) -0.0891(18) 0.5138(8)
O11 O 0.3914(15) 0.5644(13) 1.1953(6)
O12 O 0.5290(16) 0.4262(13) 0.5980(6)
H4 H 0.5733 0.4869 0.6389
O13 O 0.032(2) 0.3004(16) 0.7371(8)
O14 O 0.4798(15) 0.8099(14) 1.1611(5)
C5 C 0.2783(15) 0.0615(15) 0.4107(6)
C6 C 0.3395(17) 0.7025(15) 1.0041(8)
H5 H 0.3972 0.8109 1.0162
C7 C 0.3490(16) 0.1704(15) 0.5505(6)
C8 C 0.1206(16) -0.2486(15) 0.5379(7)
C9 C 0.4067(19) 0.6661(17) 1.1464(7)
C10 C 0.1884(15) 0.3767(14) 0.9712(7)
C11 C 0.4452(16) 0.3045(16) 0.6139(7)
N2 N 0.2549(13) 0.4397(12) 1.0461(5)
C12 C 0.1095(17) 0.1947(15) 0.9538(7)
C13 C 0.3284(16) 0.5973(15) 1.0628(6)
C14 C 0.358(2) 0.1883(18) 0.4702(9)
H6 H 0.4169 0.2840 0.4579
C15 C 0.2635(18) 0.7472(14) 0.8653(7)
C16 C 0.2841(15) 0.0703(14) 0.3243(7)
H7 H 0.07(2) 0.40(3) 1.349(9)
H8 H 0.235(15) 0.46(3) 1.345(10)
H9 H 0.141(5) 0.319(8) 0.733(13)
H10 H -0.017(15) 0.386(9) 0.725(7)
Ba1A Ba 0.75706(9) -0.00421(9) 0.26165(4)
Ba1_2 Ba 0.24294(9) 1.00421(9) 0.73835(4)
Ba1A_2 Ba -0.24294(9) -0.00421(9) 0.26165(4)
Ba1A_3 Ba 0.75706(9) 0.99579(9) 1.26165(4)
Ba2_2 Ba 0.24094(10) 0.22407(11) 0.17056(4)
Ba2A Ba 0.75906(10) 0.77593(11) 0.82944(4)
Ba2A_2 Ba -0.24094(10) 0.77593(11) 0.82944(4)
O3A O 0.5738(12) -0.1358(12) 0.6953(5)
O3_2 O 0.4262(12) 0.1358(12) 1.3047(5)
O6_2 O 0.4060(12) -0.1643(12) 0.8622(6)
O6A O 0.5940(12) 0.1643(12) 1.1378(6)
O7_2 O 0.1273(12) -0.2646(13) 0.8183(5)
O7A O -0.1273(12) 0.2646(13) 1.1817(5)
O9A O -0.1472(13) -0.0192(12) 0.7201(6)
O9_2 O 0.1472(13) 0.0192(12) 1.2799(6)
O14A O 0.5202(15) 0.1901(14) 0.8389(5)
loop_
_geom_bond_atom_site_label_1
_geom_bond_atom_site_label_2
_geom_bond_site_symmetry_1
_geom_bond_site_symmetry_2
Ba1 O4 1_555 1_555
Ba2 O1 1_555 1_555
C1 C2 1_555 1_555
O1 H7 1_555 1_555
O2 H1 1_555 1_555
O3 C16 1_555 1_555
O4 C12 1_555 1_555
O5 Ba2 1_555 1_555
O6 C15 1_555 1_555
O7 C15 1_555 1_555
O8 Ba1 1_555 1_555
O9 C16 1_555 1_555
C2 H2 1_555 1_555
O10 Ba1 1_555 1_555
C3 H3 1_555 1_555
N1 Ba1 1_555 1_555
C4 C3 1_555 1_555
O11 Ba2 1_555 1_555
O12 H4 1_555 1_555
O13 Ba1 1_555 1_555
O14 C9 1_555 1_555
C5 C3 1_555 1_555
C6 C1 1_555 1_555
H5 C6 1_555 1_555
C7 N1 1_555 1_555
C8 O2 1_555 1_555
C9 O11 1_555 1_555
C10 C2 1_555 1_555
C11 O10 1_555 1_555
N2 Ba2 1_555 1_555
C12 O5 1_555 1_555
C13 C6 1_555 1_555
C14 C5 1_555 1_555
H6 C14 1_555 1_555
C15 C1 1_555 1_555
C16 C5 1_555 1_555
H8 O1 1_555 1_555
H9 O13 1_555 1_555
H10 O13 1_555 1_555
Ba1A O3 1_555 1_555
Ba1_2 O6 1_555 1_555
Ba1A_2 O9 1_555 1_555
Ba1A_3 O14 1_555 1_555
Ba2_2 O3 1_555 1_555
Ba2A O6 1_555 1_555
Ba2A_2 O7 1_555 1_555
O3A Ba1 1_555 1_555
O3_2 Ba2 1_555 1_555
O6_2 Ba1 1_555 1_555
O6A Ba2 1_555 1_555
O7_2 Ba1 1_555 1_555
O7A Ba2 1_555 1_555
O9A Ba1 1_555 1_555
O9_2 Ba2 1_555 1_555
O14A Ba1 1_555 1_555
O7 Ba1_2 1_555 1_555
O8 C8 1_555 1_555
O9 Ba2_2 1_555 1_555
N1 C4 1_555 1_555
C4 C8 1_555 1_555
O12 C11 1_555 1_555
C7 C11 1_555 1_555
C7 C14 1_555 1_555
C9 C13 1_555 1_555
C10 N2 1_555 1_555
C10 C12 1_555 1_555
N2 C13 1_555 1_555

#END
