
#######################################################################
#
#                 Cambridge Crystallographic Data Centre
#                                CCDC 
#
#######################################################################
#
# If this CIF has been generated from an entry in the Cambridge 
# Structural Database, then it will include bibliographic, chemical, 
# crystal, experimental, refinement or atomic coordinate data resulting 
# from the CCDC's data processing and validation procedures.
#
#######################################################################

data_YOSBIS
_symmetry_cell_setting           triclinic
_symmetry_space_group_name_H-M   'P -1'
_symmetry_Int_Tables_number      2
_space_group_name_Hall           '-P 1'
loop_
_symmetry_equiv_pos_site_id
_symmetry_equiv_pos_as_xyz
1 x,y,z
2 -x,-y,-z
_cell_length_a                   6.0592(19)
_cell_length_b                   10.135(3)
_cell_length_c                   11.304(4)
_cell_angle_alpha                105.61(2)
_cell_angle_beta                 100.855(17)
_cell_angle_gamma                105.169(15)
_cell_volume                     619.78
loop_
_atom_site_label
_atom_site_type_symbol
_atom_site_fract_x
_atom_site_fract_y
_atom_site_fract_z
Gd1 Gd 0.64781(4) 0.18656(2) 0.944907(19)
O1 O 0.8442(6) 0.0117(4) 0.8675(3)
O2 O 0.3725(8) 0.2572(5) 0.8194(4)
O3 O 0.6328(7) 0.0672(4) 0.7191(3)
O4 O 0.4031(7) 0.2345(4) 1.0816(4)
O5 O 1.3258(6) -0.0358(4) 0.8877(3)
O7 O 1.0540(6) -0.2431(4) 0.8533(3)
O8 O 0.9933(7) 0.3316(4) 0.9042(4)
O9 O 1.2477(7) 0.5532(4) 0.9455(4)
N1 N 0.9954(12) -0.2423(8) 0.4613(5)
C1 C 0.7702(8) 0.0023(5) 0.7521(4)
C2 C 0.8522(8) -0.0887(5) 0.6530(4)
C3 C 0.7541(10) -0.1139(6) 0.5239(5)
H1 H 0.6349 -0.0756 0.5020
C4 C 0.8214(9) -0.1893(6) 0.4311(4)
H2 H 0.7486 -0.2052 0.3461
C5 C 1.1021(11) -0.2257(7) 0.5861(5)
H3 H 1.2205 -0.2658 0.6043
C6 C 1.0295(9) -0.1479(6) 0.6840(4)
C7 C 1.1404(8) -0.1384(5) 0.8186(4)
C8 C 1.0701(9) 0.4678(5) 0.9567(4)
Gd1_2 Gd 1.64781(4) 0.18656(2) 0.944907(19)
Gd1A Gd 1.35219(4) -0.18656(2) 1.055093(19)
Gd1A_2 Gd 1.35219(4) 0.81344(2) 1.055093(19)
Gd1A_3 Gd 0.35219(4) -0.18656(2) 1.055093(19)
O1A O 1.1558(6) -0.0117(4) 1.1325(3)
O2A O 1.6275(8) -0.2572(5) 1.1806(4)
O3A O 1.3672(7) -0.0672(4) 1.2809(3)
O4A O 1.5969(7) -0.2345(4) 0.9184(4)
O5_2 O 0.3258(6) -0.0358(4) 0.8877(3)
O5A O 0.6742(6) 0.0358(4) 1.1123(3)
O5A_2 O 1.6742(6) 0.0358(4) 1.1123(3)
O7A O 0.9460(6) 0.2431(4) 1.1467(3)
O8A O 1.0067(7) 0.6684(4) 1.0958(4)
O8A_2 O 1.0067(7) -0.3316(4) 1.0958(4)
O9A O 0.7523(7) 0.4468(4) 1.0545(4)
O9_2 O 1.2477(7) -0.4468(4) 0.9455(4)
N1A N 1.0046(12) 0.2423(8) 1.5387(5)
C1A C 1.2298(8) -0.0023(5) 1.2479(4)
C2A C 1.1478(8) 0.0887(5) 1.3470(4)
C3A C 1.2459(10) 0.1139(6) 1.4761(5)
H1A H 1.3651 0.0756 1.4980
C4A C 1.1786(9) 0.1893(6) 1.5689(4)
H2A H 1.2514 0.2052 1.6539
C5A C 0.8979(11) 0.2257(7) 1.4139(5)
H3A H 0.7795 0.2658 1.3957
C6A C 0.9705(9) 0.1479(6) 1.3160(4)
C7A C 0.8596(8) 0.1384(5) 1.1814(4)
C8A C 0.9299(9) 0.5322(5) 1.0433(4)
O6 O 0.6201(17) 0.5180(9) 0.7468(9)
loop_
_geom_bond_atom_site_label_1
_geom_bond_atom_site_label_2
_geom_bond_site_symmetry_1
_geom_bond_site_symmetry_2
Gd1 O1 1_555 1_555
O1 C1 1_555 1_555
O2 Gd1 1_555 1_555
O3 Gd1 1_555 1_555
O4 Gd1 1_555 1_555
O5 C7 1_555 1_555
O7 C7 1_555 1_555
O8 Gd1 1_555 1_555
O9 C8 1_555 1_555
N1 C4 1_555 1_555
C1 O3 1_555 1_555
C2 C1 1_555 1_555
C3 C2 1_555 1_555
H1 C3 1_555 1_555
C4 C3 1_555 1_555
H2 C4 1_555 1_555
C5 N1 1_555 1_555
H3 C5 1_555 1_555
C6 C2 1_555 1_555
C7 C6 1_555 1_555
C8 O8 1_555 1_555
Gd1_2 O5 1_555 1_555
Gd1A O5 1_555 1_555
Gd1A_2 O9 1_555 1_555
Gd1A_3 O5_2 1_555 1_555
O1A Gd1A 1_555 1_555
O2A Gd1A 1_555 1_555
O3A Gd1A 1_555 1_555
O4A Gd1A 1_555 1_555
O5_2 Gd1 1_555 1_555
O5A Gd1 1_555 1_555
O5A_2 Gd1_2 1_555 1_555
O7A Gd1 1_555 1_555
O8A Gd1A_2 1_555 1_555
O8A_2 Gd1A 1_555 1_555
O9A Gd1 1_555 1_555
O9_2 Gd1A 1_555 1_555
N1A C4A 1_555 1_555
C1A O1A 1_555 1_555
C2A C1A 1_555 1_555
C3A C2A 1_555 1_555
H1A C3A 1_555 1_555
C4A C3A 1_555 1_555
H2A C4A 1_555 1_555
C5A N1A 1_555 1_555
H3A C5A 1_555 1_555
C6A C2A 1_555 1_555
C7A O5A 1_555 1_555
C8A C8 1_555 1_555
O7 Gd1A 1_555 1_555
C5 C6 1_555 1_555
Gd1A O5A_2 1_555 1_555
Gd1A_3 O5A 1_555 1_555
O3A C1A 1_555 1_555
O7A C7A 1_555 1_555
O8A C8A 1_555 1_555
O9A C8A 1_555 1_555
C5A C6A 1_555 1_555
C6A C7A 1_555 1_555

#END
