
#######################################################################
#
#                 Cambridge Crystallographic Data Centre
#                                CCDC 
#
#######################################################################
#
# If this CIF has been generated from an entry in the Cambridge 
# Structural Database, then it will include bibliographic, chemical, 
# crystal, experimental, refinement or atomic coordinate data resulting 
# from the CCDC's data processing and validation procedures.
#
#######################################################################

data_YOSBEO
_symmetry_cell_setting           triclinic
_symmetry_space_group_name_H-M   'P -1'
_symmetry_Int_Tables_number      2
_space_group_name_Hall           '-P 1'
loop_
_symmetry_equiv_pos_site_id
_symmetry_equiv_pos_as_xyz
1 x,y,z
2 -x,-y,-z
_cell_length_a                   6.070(2)
_cell_length_b                   10.163(4)
_cell_length_c                   11.329(4)
_cell_angle_alpha                105.68(2)
_cell_angle_beta                 100.937(15)
_cell_angle_gamma                105.132(14)
_cell_volume                     623.55
loop_
_atom_site_label
_atom_site_type_symbol
_atom_site_fract_x
_atom_site_fract_y
_atom_site_fract_z
Eu1 Eu 0.14801(4) 0.68630(2) 0.44544(2)
O1 O 0.1319(7) 0.5671(4) 0.2191(4)
O2 O -0.0956(9) 0.7353(6) 0.5824(5)
O3 O 0.3437(7) 0.5113(4) 0.3669(3)
O4 O -0.1281(10) 0.7560(6) 0.3192(4)
O5 O 0.5506(7) 0.2569(4) 0.3524(4)
O7 O 0.8248(6) 0.4628(4) 0.3883(4)
O8 O 0.4942(7) 0.8319(4) 0.4052(4)
O9 O 0.7456(7) 1.0527(4) 0.4449(4)
N1 N 0.4988(13) 0.2604(8) -0.0384(6)
C1 C 0.2709(8) 0.5026(5) 0.2516(5)
C2 C 0.3512(9) 0.4116(5) 0.1535(5)
C3 C 0.2547(10) 0.3869(6) 0.0245(5)
H1 H 0.1363 0.4257 0.0028
C4 C 0.3206(10) 0.3120(6) -0.0689(5)
H2 H 0.2457 0.2951 -0.1537
C5 C 0.6032(11) 0.2765(7) 0.0863(6)
H3 H 0.7211 0.2362 0.1046
C6 C 0.5306(9) 0.3533(6) 0.1844(5)
C7 C 0.6390(8) 0.3618(5) 0.3180(5)
C8 C 0.5692(9) 0.9665(5) 0.4561(5)
H4 H -0.185(15) 0.674(9) 0.580(8)
H5 H -0.085(14) 0.799(9) 0.616(8)
H6 H -0.198(13) 0.781(8) 0.343(7)
Eu1A Eu 0.85199(4) 0.31370(2) 0.55456(2)
Eu1_2 Eu 1.14801(4) 0.68630(2) 0.44544(2)
Eu1A_2 Eu 0.85199(4) 1.31370(2) 0.55456(2)
Eu1A_3 Eu -0.14801(4) 0.31370(2) 0.55456(2)
O1A O 0.8681(7) 0.4329(4) 0.7809(4)
O2A O 1.0956(9) 0.2647(6) 0.4176(5)
O3A O 0.6563(7) 0.4887(4) 0.6331(3)
O4A O 1.1281(10) 0.2440(6) 0.6808(4)
O5A O 0.4494(7) 0.7431(4) 0.6476(4)
O7A O 0.1752(6) 0.5372(4) 0.6117(4)
O7_2 O -0.1752(6) 0.4628(4) 0.3883(4)
O7A_2 O 1.1752(6) 0.5372(4) 0.6117(4)
O8A O 0.5058(7) 1.1681(4) 0.5948(4)
O8A_2 O 0.5058(7) 0.1681(4) 0.5948(4)
O9A O 0.2544(7) 0.9473(4) 0.5551(4)
O9_2 O 0.7456(7) 0.0527(4) 0.4449(4)
N1A N 0.5012(13) 0.7396(8) 1.0384(6)
C1A C 0.7291(8) 0.4974(5) 0.7484(5)
C2A C 0.6488(9) 0.5884(5) 0.8465(5)
C3A C 0.7453(10) 0.6131(6) 0.9755(5)
H1A H 0.8637 0.5743 0.9972
C4A C 0.6794(10) 0.6880(6) 1.0689(5)
H2A H 0.7543 0.7049 1.1537
C5A C 0.3968(11) 0.7235(7) 0.9137(6)
H3A H 0.2789 0.7638 0.8954
C6A C 0.4694(9) 0.6467(6) 0.8156(5)
C7A C 0.3610(8) 0.6382(5) 0.6820(5)
C8A C 0.4308(9) 1.0335(5) 0.5439(5)
H4A H 1.185(15) 0.326(9) 0.420(8)
H5A H 1.085(14) 0.201(9) 0.384(8)
H6A H 1.198(13) 0.219(8) 0.657(7)
O6 O 1.1196(18) 0.0146(9) 0.2464(10)
loop_
_geom_bond_atom_site_label_1
_geom_bond_atom_site_label_2
_geom_bond_site_symmetry_1
_geom_bond_site_symmetry_2
Eu1 O1 1_555 1_555
O1 C1 1_555 1_555
O2 Eu1 1_555 1_555
O3 Eu1 1_555 1_555
O4 Eu1 1_555 1_555
O5 C7 1_555 1_555
O7 C7 1_555 1_555
O8 Eu1 1_555 1_555
O9 C8 1_555 1_555
N1 C4 1_555 1_555
C1 O3 1_555 1_555
C2 C1 1_555 1_555
C3 C2 1_555 1_555
H1 C3 1_555 1_555
C4 C3 1_555 1_555
H2 C4 1_555 1_555
C5 N1 1_555 1_555
H3 C5 1_555 1_555
C6 C2 1_555 1_555
C7 C6 1_555 1_555
C8 O8 1_555 1_555
H4 O2 1_555 1_555
H5 O2 1_555 1_555
H6 O4 1_555 1_555
Eu1A O5 1_555 1_555
Eu1_2 O7 1_555 1_555
Eu1A_2 O9 1_555 1_555
Eu1A_3 O7A 1_555 1_555
O1A Eu1A 1_555 1_555
O2A Eu1A 1_555 1_555
O3A Eu1A 1_555 1_555
O4A Eu1A 1_555 1_555
O5A Eu1 1_555 1_555
O7A Eu1 1_555 1_555
O7_2 Eu1 1_555 1_555
O7A_2 Eu1A 1_555 1_555
O8A Eu1A_2 1_555 1_555
O8A_2 Eu1A 1_555 1_555
O9A Eu1 1_555 1_555
O9_2 Eu1A 1_555 1_555
N1A C4A 1_555 1_555
C1A O1A 1_555 1_555
C2A C1A 1_555 1_555
C3A C2A 1_555 1_555
H1A C3A 1_555 1_555
C4A C3A 1_555 1_555
H2A C4A 1_555 1_555
C5A N1A 1_555 1_555
H3A C5A 1_555 1_555
C6A C2A 1_555 1_555
C7A O5A 1_555 1_555
C8A C8 1_555 1_555
H4A O2A 1_555 1_555
H5A O2A 1_555 1_555
H6A O4A 1_555 1_555
O7 Eu1A 1_555 1_555
C5 C6 1_555 1_555
Eu1_2 O7A_2 1_555 1_555
Eu1A_3 O7_2 1_555 1_555
O3A C1A 1_555 1_555
O7A C7A 1_555 1_555
O8A C8A 1_555 1_555
O9A C8A 1_555 1_555
C5A C6A 1_555 1_555
C6A C7A 1_555 1_555

#END
