
#######################################################################
#
#                 Cambridge Crystallographic Data Centre
#                                CCDC 
#
#######################################################################
#
# If this CIF has been generated from an entry in the Cambridge 
# Structural Database, then it will include bibliographic, chemical, 
# crystal, experimental, refinement or atomic coordinate data resulting 
# from the CCDC's data processing and validation procedures.
#
#######################################################################

data_YOSBUE
_symmetry_cell_setting           triclinic
_symmetry_space_group_name_H-M   'P -1'
_symmetry_Int_Tables_number      2
_space_group_name_Hall           '-P 1'
loop_
_symmetry_equiv_pos_site_id
_symmetry_equiv_pos_as_xyz
1 x,y,z
2 -x,-y,-z
_cell_length_a                   5.9693(15)
_cell_length_b                   10.131(3)
_cell_length_c                   11.165(3)
_cell_angle_alpha                104.157(16)
_cell_angle_beta                 99.811(12)
_cell_angle_gamma                105.314(10)
_cell_volume                     611.19
loop_
_atom_site_label
_atom_site_type_symbol
_atom_site_fract_x
_atom_site_fract_y
_atom_site_fract_z
Er1 Er 0.14912(5) 0.19229(3) 0.93830(3)
O1 O 0.1486(10) 0.0823(6) 0.7178(5)
O2 O -0.1049(9) 0.2258(5) 1.0719(5)
O3 O 0.3483(9) 0.0222(5) 0.8695(5)
O4 O -0.1055(11) 0.2738(7) 0.8157(5)
O5 O 0.5814(10) -0.2275(6) 0.8657(5)
O7 O 0.8381(9) -0.0201(6) 0.8811(5)
O8 O 0.4961(10) 0.3362(5) 0.9013(5)
O9 O 0.7543(9) 0.5572(5) 0.9466(5)
N1 N 0.4927(18) -0.2476(11) 0.4650(9)
C1 C 0.2800(12) 0.0123(7) 0.7528(7)
C2 C 0.3570(13) -0.0826(7) 0.6548(7)
C3 C 0.2532(14) -0.1126(8) 0.5263(7)
H1 H 0.1335 -0.0736 0.5039
C4 C 0.3146(14) -0.1933(8) 0.4338(6)
H2 H 0.2368 -0.2125 0.3488
C5 C 0.6011(15) -0.2276(9) 0.5899(7)
H3 H 0.7172 -0.2701 0.6092
C6 C 0.5353(13) -0.1427(7) 0.6876(7)
C7 C 0.6569(13) -0.1263(8) 0.8227(7)
C8 C 0.5737(13) 0.4703(7) 0.9557(7)
Er1A Er 0.85088(5) -0.19229(3) 1.06170(3)
Er1_2 Er 1.14912(5) 0.19229(3) 0.93830(3)
Er1A_2 Er 0.85088(5) 0.80771(3) 1.06170(3)
Er1A_3 Er -0.14912(5) -0.19229(3) 1.06170(3)
O1A O 0.8514(10) -0.0823(6) 1.2822(5)
O2A O 1.1049(9) -0.2258(5) 0.9281(5)
O3A O 0.6517(9) -0.0222(5) 1.1305(5)
O4A O 1.1055(11) -0.2738(7) 1.1843(5)
O5A O 0.4186(10) 0.2275(6) 1.1343(5)
O7A O 0.1619(9) 0.0201(6) 1.1189(5)
O7_2 O -0.1619(9) -0.0201(6) 0.8811(5)
O7A_2 O 1.1619(9) 0.0201(6) 1.1189(5)
O8A O 0.5039(10) 0.6638(5) 1.0987(5)
O8A_2 O 0.5039(10) -0.3362(5) 1.0987(5)
O9A O 0.2457(9) 0.4428(5) 1.0534(5)
O9_2 O 0.7543(9) -0.4428(5) 0.9466(5)
N1A N 0.5073(18) 0.2476(11) 1.5350(9)
C1A C 0.7200(12) -0.0123(7) 1.2472(7)
C2A C 0.6430(13) 0.0826(7) 1.3452(7)
C3A C 0.7468(14) 0.1126(8) 1.4737(7)
H1A H 0.8665 0.0736 1.4961
C4A C 0.6854(14) 0.1933(8) 1.5662(6)
H2A H 0.7632 0.2125 1.6512
C5A C 0.3989(15) 0.2276(9) 1.4101(7)
H3A H 0.2828 0.2701 1.3908
C6A C 0.4647(13) 0.1427(7) 1.3124(7)
C7A C 0.3431(13) 0.1263(8) 1.1773(7)
C8A C 0.4263(13) 0.5297(7) 1.0443(7)
O6 O -0.133(2) 0.4618(10) 1.2476(9)
loop_
_geom_bond_atom_site_label_1
_geom_bond_atom_site_label_2
_geom_bond_site_symmetry_1
_geom_bond_site_symmetry_2
Er1 O1 1_555 1_555
O1 C1 1_555 1_555
O2 Er1 1_555 1_555
O3 Er1 1_555 1_555
O4 Er1 1_555 1_555
O5 C7 1_555 1_555
O7 C7 1_555 1_555
O8 Er1 1_555 1_555
O9 C8 1_555 1_555
N1 C4 1_555 1_555
C1 O3 1_555 1_555
C2 C1 1_555 1_555
C3 C2 1_555 1_555
H1 C3 1_555 1_555
C4 C3 1_555 1_555
H2 C4 1_555 1_555
C5 N1 1_555 1_555
H3 C5 1_555 1_555
C6 C2 1_555 1_555
C7 C6 1_555 1_555
C8 O8 1_555 1_555
Er1A O5 1_555 1_555
Er1_2 O7 1_555 1_555
Er1A_2 O9 1_555 1_555
Er1A_3 O7A 1_555 1_555
O1A Er1A 1_555 1_555
O2A Er1A 1_555 1_555
O3A Er1A 1_555 1_555
O4A Er1A 1_555 1_555
O5A Er1 1_555 1_555
O7A Er1 1_555 1_555
O7_2 Er1 1_555 1_555
O7A_2 Er1A 1_555 1_555
O8A Er1A_2 1_555 1_555
O8A_2 Er1A 1_555 1_555
O9A Er1 1_555 1_555
O9_2 Er1A 1_555 1_555
N1A C4A 1_555 1_555
C1A O1A 1_555 1_555
C2A C1A 1_555 1_555
C3A C2A 1_555 1_555
H1A C3A 1_555 1_555
C4A C3A 1_555 1_555
H2A C4A 1_555 1_555
C5A N1A 1_555 1_555
H3A C5A 1_555 1_555
C6A C2A 1_555 1_555
C7A O5A 1_555 1_555
C8A C8 1_555 1_555
O7 Er1A 1_555 1_555
C5 C6 1_555 1_555
Er1_2 O7A_2 1_555 1_555
Er1A_3 O7_2 1_555 1_555
O3A C1A 1_555 1_555
O7A C7A 1_555 1_555
O8A C8A 1_555 1_555
O9A C8A 1_555 1_555
C5A C6A 1_555 1_555
C6A C7A 1_555 1_555

#END
