
#######################################################################
#
#                 Cambridge Crystallographic Data Centre
#                                CCDC 
#
#######################################################################
#
# If this CIF has been generated from an entry in the Cambridge 
# Structural Database, then it will include bibliographic, chemical, 
# crystal, experimental, refinement or atomic coordinate data resulting 
# from the CCDC's data processing and validation procedures.
#
#######################################################################

data_YOSCUG
_symmetry_cell_setting           rhombohedral
_symmetry_space_group_name_H-M   'R -3'
_symmetry_Int_Tables_number      148
_space_group_name_Hall           '-R 3'
loop_
_symmetry_equiv_pos_site_id
_symmetry_equiv_pos_as_xyz
1 x,y,z
2 -y,x-y,z
3 -x+y,-x,z
4 2/3+x,1/3+y,1/3+z
5 2/3-y,1/3+x-y,1/3+z
6 2/3-x+y,1/3-x,1/3+z
7 1/3+x,2/3+y,2/3+z
8 1/3-y,2/3+x-y,2/3+z
9 1/3-x+y,2/3-x,2/3+z
10 -x,-y,-z
11 y,-x+y,-z
12 x-y,x,-z
13 1/3-x,2/3-y,2/3-z
14 1/3+y,2/3-x+y,2/3-z
15 1/3+x-y,2/3+x,2/3-z
16 2/3-x,1/3-y,1/3-z
17 2/3+y,1/3-x+y,1/3-z
18 2/3+x-y,1/3+x,1/3-z
_cell_length_a                   16.7246(7)
_cell_length_b                   16.7246(7)
_cell_length_c                   59.874(5)
_cell_angle_alpha                90
_cell_angle_beta                 90
_cell_angle_gamma                120
_cell_volume                     14503.8
loop_
_atom_site_label
_atom_site_type_symbol
_atom_site_fract_x
_atom_site_fract_y
_atom_site_fract_z
Ni1 Ni 0.34317(4) 0.02116(4) 0.281142(9)
O1 O 0.4903(2) 0.0880(2) 0.27711(5)
N1 N 0.3309(3) 0.0063(3) 0.24651(7)
C1 C 0.3035(5) 0.0565(4) 0.23502(9)
H1 H 0.2883 0.0948 0.2430
O2 O 0.4177(2) 0.1666(2) 0.27651(5)
N2 N 0.2979(3) -0.0087(3) -0.01725(6)
C2 C 0.2960(5) 0.0555(5) 0.21181(10)
H2 H 0.2770 0.0924 0.2046
O3 O 0.2227(2) 0.0169(2) 0.28239(6)
N3 N 0.3138(4) -0.0063(4) 0.17685(8)
H3 H 0.3404 -0.0335 0.1708
C3 C 0.3175(5) -0.0020(4) 0.19991(9)
O4 O 0.1245(3) -0.1275(3) 0.29199(7)
N4 N 0.3034(3) 0.0191(4) 0.05288(7)
H4 H 0.2976 0.0647 0.0575
C4 C 0.3450(6) -0.0526(6) 0.21192(10)
H5 H 0.3603 -0.0920 0.2045
C5 C 0.3509(6) -0.0474(5) 0.23460(9)
H6 H 0.3701 -0.0837 0.2421
O5 O 0.2290(6) 0.0594(6) 0.16795(9)
C6 C 0.2749(7) 0.0256(7) 0.16257(11)
O6 O 0.3265(5) -0.0969(4) 0.06436(8)
C7 C 0.2884(6) 0.0130(6) 0.13800(10)
C8 C 0.3795(5) 0.0590(5) 0.12789(10)
C9 C 0.4627(5) 0.1177(6) 0.13988(12)
H7 H 0.4602 0.1251 0.1552
C10 C 0.5439(6) 0.1618(7) 0.12937(14)
H8 H 0.5968 0.2000 0.1375
C11 C 0.5513(6) 0.1519(7) 0.10640(15)
H9 H 0.6085 0.1820 0.0993
C12 C 0.4721(6) 0.0966(6) 0.09447(12)
H10 H 0.4765 0.0912 0.0791
C13 C 0.3860(5) 0.0485(5) 0.10451(10)
C14 C 0.3056(5) -0.0088(5) 0.09251(9)
C15 C 0.2217(6) -0.0517(6) 0.10255(11)
H11 H 0.1691 -0.0912 0.0944
C16 C 0.2148(6) -0.0355(7) 0.12571(11)
H12 H 0.1568 -0.0601 0.1322
C17 C 0.3125(5) -0.0328(5) 0.06856(10)
C18 C 0.3023(4) 0.0064(4) 0.02932(8)
C19 C 0.2946(6) 0.0684(5) 0.01606(9)
H13 H 0.2914 0.1174 0.0224
C20 C 0.2917(6) 0.0581(5) -0.00700(9)
H14 H 0.2851 0.1004 -0.0157
C21 C 0.3080(5) -0.0667(4) -0.00362(9)
H15 H 0.3143 -0.1136 -0.0102
C22 C 0.3098(5) -0.0622(5) 0.01925(9)
H16 H 0.3160 -0.1054 0.0277
C23 C 0.4919(3) 0.1636(3) 0.27610(7)
C24 C 0.5828(3) 0.2512(3) 0.27481(8)
C25 C 0.5863(3) 0.3373(3) 0.27477(8)
H17 H 0.5317 0.3393 0.2747
C26 C 0.0910(3) 0.0683(3) 0.28728(8)
H18 H 0.1527 0.1147 0.2873
C27 C 0.0691(3) -0.0229(3) 0.28725(8)
C28 C 0.1448(3) -0.0476(3) 0.28713(8)
O1A O 0.9120(2) 0.4023(3) 0.27711(5)
O2A O 0.8334(2) 0.2511(3) 0.27651(5)
C23A C 0.8364(3) 0.3283(4) 0.27610(7)
C24A C 0.7488(3) 0.3316(4) 0.27481(8)
C25A C 0.6627(3) 0.2490(4) 0.27477(8)
H17A H 0.6607 0.1924 0.2747
O1B O 0.5977(3) 0.5097(2) 0.27711(5)
O2B O 0.7489(3) 0.5823(2) 0.27651(5)
C23B C 0.6717(4) 0.5081(3) 0.27610(7)
C24B C 0.6684(4) 0.4172(3) 0.27481(8)
C25B C 0.7510(4) 0.4137(3) 0.27477(8)
H17B H 0.8076 0.4683 0.2747
O3A O -0.0169(2) 0.2058(3) 0.28239(6)
O4A O 0.1275(3) 0.2520(4) 0.29199(7)
C26A C -0.0683(3) 0.0227(4) 0.28728(8)
H18A H -0.1147 0.0380 0.2873
C27A C 0.0229(3) 0.0920(4) 0.28725(8)
C28A C 0.0476(3) 0.1924(4) 0.28713(8)
O3B O -0.2058(3) -0.2227(2) 0.28239(6)
O4B O -0.2520(4) -0.1245(3) 0.29199(7)
C26B C -0.0227(4) -0.0910(3) 0.28728(8)
H18B H -0.0380 -0.1527 0.2873
C27B C -0.0920(4) -0.0691(3) 0.28725(8)
C28B C -0.1924(4) -0.1448(3) 0.28713(8)
Ni1A Ni -0.02116(4) 0.32201(6) 0.281142(9)
N1A N -0.0063(3) 0.3246(4) 0.24651(7)
C1A C -0.0565(4) 0.2470(6) 0.23502(9)
H1A H -0.0948 0.1935 0.2430
N2A N 0.0087(3) 0.3066(4) -0.01725(6)
C2A C -0.0555(5) 0.2405(7) 0.21181(10)
H2A H -0.0924 0.1846 0.2046
N3A N 0.0063(4) 0.3201(6) 0.17685(8)
H3A H 0.0335 0.3739 0.1708
C3A C 0.0020(4) 0.3195(6) 0.19991(9)
N4A N -0.0191(4) 0.2843(5) 0.05288(7)
H4A H -0.0647 0.2329 0.0575
C4A C 0.0526(6) 0.3976(8) 0.21192(10)
H5A H 0.0920 0.4523 0.2045
C5A C 0.0474(5) 0.3983(8) 0.23460(9)
H6A H 0.0837 0.4538 0.2421
O5A O -0.0594(6) 0.1696(8) 0.16795(9)
C6A C -0.0256(7) 0.2493(10) 0.16257(11)
O6A O 0.0969(4) 0.4234(6) 0.06436(8)
C7A C -0.0130(6) 0.2754(8) 0.13800(10)
C8A C -0.0590(5) 0.3205(7) 0.12789(10)
C9A C -0.1177(6) 0.3450(8) 0.13988(12)
H7A H -0.1251 0.3351 0.1552
C10A C -0.1618(7) 0.3821(9) 0.12937(14)
H8A H -0.2000 0.3968 0.1375
C11A C -0.1519(7) 0.3994(9) 0.10640(15)
H9A H -0.1820 0.4265 0.0993
C12A C -0.0966(6) 0.3755(8) 0.09447(12)
H10A H -0.0912 0.3853 0.0791
C13A C -0.0485(5) 0.3375(7) 0.10451(10)
C14A C 0.0088(5) 0.3144(7) 0.09251(9)
C15A C 0.0517(6) 0.2734(8) 0.10255(11)
H11A H 0.0912 0.2603 0.0944
C16A C 0.0355(7) 0.2503(9) 0.12571(11)
H12A H 0.0601 0.2169 0.1322
C17A C 0.0328(5) 0.3453(7) 0.06856(10)
C18A C -0.0064(4) 0.2959(6) 0.02932(8)
C19A C -0.0684(5) 0.2262(8) 0.01606(9)
H13A H -0.1174 0.1740 0.0224
C20A C -0.0581(5) 0.2336(8) -0.00700(9)
H14A H -0.1004 0.1847 -0.0157
C21A C 0.0667(4) 0.3747(6) -0.00362(9)
H15A H 0.1136 0.4279 -0.0102
C22A C 0.0622(5) 0.3720(7) 0.01925(9)
H16A H 0.1054 0.4214 0.0277
Ni1B Ni -0.32201(6) -0.34317(4) 0.281142(9)
N1B N -0.3246(4) -0.3309(3) 0.24651(7)
C1B C -0.2470(6) -0.3035(5) 0.23502(9)
H1B H -0.1935 -0.2883 0.2430
N2B N -0.3066(4) -0.2979(3) -0.01725(6)
C2B C -0.2405(7) -0.2960(5) 0.21181(10)
H2B H -0.1846 -0.2770 0.2046
N3B N -0.3201(6) -0.3138(4) 0.17685(8)
H3B H -0.3739 -0.3404 0.1708
C3B C -0.3195(6) -0.3175(5) 0.19991(9)
N4B N -0.2843(5) -0.3034(3) 0.05288(7)
H4B H -0.2329 -0.2976 0.0575
C4B C -0.3976(8) -0.3450(6) 0.21192(10)
H5B H -0.4523 -0.3603 0.2045
C5B C -0.3983(8) -0.3509(6) 0.23460(9)
H6B H -0.4538 -0.3701 0.2421
O5B O -0.1696(8) -0.2290(6) 0.16795(9)
C6B C -0.2493(10) -0.2749(7) 0.16257(11)
O6B O -0.4234(6) -0.3265(5) 0.06436(8)
C7B C -0.2754(8) -0.2884(6) 0.13800(10)
C8B C -0.3205(7) -0.3795(5) 0.12789(10)
C9B C -0.3450(8) -0.4627(5) 0.13988(12)
H7B H -0.3351 -0.4602 0.1552
C10B C -0.3821(9) -0.5439(6) 0.12937(14)
H8B H -0.3968 -0.5968 0.1375
C11B C -0.3994(9) -0.5513(6) 0.10640(15)
H9B H -0.4265 -0.6085 0.0993
C12B C -0.3755(8) -0.4721(6) 0.09447(12)
H10B H -0.3853 -0.4765 0.0791
C13B C -0.3375(7) -0.3860(5) 0.10451(10)
C14B C -0.3144(7) -0.3056(5) 0.09251(9)
C15B C -0.2734(8) -0.2217(6) 0.10255(11)
H11B H -0.2603 -0.1691 0.0944
C16B C -0.2503(9) -0.2148(6) 0.12571(11)
H12B H -0.2169 -0.1568 0.1322
C17B C -0.3453(7) -0.3125(5) 0.06856(10)
C18B C -0.2959(6) -0.3023(4) 0.02932(8)
C19B C -0.2262(8) -0.2946(6) 0.01606(9)
H13B H -0.1740 -0.2914 0.0224
C20B C -0.2336(8) -0.2917(6) -0.00700(9)
H14B H -0.1847 -0.2851 -0.0157
C21B C -0.3747(6) -0.3080(5) -0.00362(9)
H15B H -0.4279 -0.3143 -0.0102
C22B C -0.3720(7) -0.3098(5) 0.01925(9)
H16B H -0.4214 -0.3160 0.0277
Ni1A_2 Ni 0.97884(4) 0.32201(6) 0.281142(9)
Ni1B_2 Ni 0.67799(6) 0.65683(4) 0.281142(9)
Ni1F Ni -0.32350(4) -0.31217(4) -0.052191(9)
Ni1G Ni 0.31217(4) -0.01132(6) -0.052191(9)
Ni1H Ni 0.01132(6) 0.32350(4) -0.052191(9)
O1A_2 O -0.0880(2) 0.4023(3) 0.27711(5)
O1B_2 O -0.4023(3) -0.4903(2) 0.27711(5)
O2A_2 O -0.1666(2) 0.2511(3) 0.27651(5)
O2B_2 O -0.2511(3) -0.4177(2) 0.27651(5)
N2C N -0.0354(3) 0.3246(3) 0.31608(6)
N2D N -0.3246(3) -0.3601(4) 0.31608(6)
N2E N 0.3601(4) 0.0354(3) 0.31608(6)
loop_
_geom_bond_atom_site_label_1
_geom_bond_atom_site_label_2
_geom_bond_site_symmetry_1
_geom_bond_site_symmetry_2
Ni1 O1 1_555 1_555
O1 C23 1_555 1_555
N1 Ni1 1_555 1_555
C1 N1 1_555 1_555
H1 C1 1_555 1_555
O2 Ni1 1_555 1_555
N2 C20 1_555 1_555
C2 C1 1_555 1_555
H2 C2 1_555 1_555
O3 Ni1 1_555 1_555
N3 H3 1_555 1_555
C3 C2 1_555 1_555
O4 C28 1_555 1_555
N4 H4 1_555 1_555
C4 C3 1_555 1_555
H5 C4 1_555 1_555
C5 N1 1_555 1_555
H6 C5 1_555 1_555
O5 C6 1_555 1_555
C6 N3 1_555 1_555
O6 C17 1_555 1_555
C7 C6 1_555 1_555
C8 C7 1_555 1_555
C9 C8 1_555 1_555
H7 C9 1_555 1_555
C10 C9 1_555 1_555
H8 C10 1_555 1_555
C11 C10 1_555 1_555
H9 C11 1_555 1_555
C12 C11 1_555 1_555
H10 C12 1_555 1_555
C13 C8 1_555 1_555
C14 C13 1_555 1_555
C15 C14 1_555 1_555
H11 C15 1_555 1_555
C16 C7 1_555 1_555
H12 C16 1_555 1_555
C17 N4 1_555 1_555
C18 N4 1_555 1_555
C19 C18 1_555 1_555
H13 C19 1_555 1_555
C20 C19 1_555 1_555
H14 C20 1_555 1_555
C21 N2 1_555 1_555
H15 C21 1_555 1_555
C22 C18 1_555 1_555
H16 C22 1_555 1_555
C23 O2 1_555 1_555
C24 C23 1_555 1_555
C25 C24 1_555 1_555
H17 C25 1_555 1_555
C26 H18 1_555 1_555
C27 C26 1_555 1_555
C28 O3 1_555 1_555
O1A C23A 1_555 1_555
O2A C23A 1_555 1_555
C23A C24A 1_555 1_555
C24A C25A 1_555 1_555
C25A C24 1_555 1_555
H17A C25A 1_555 1_555
O1B C23B 1_555 1_555
O2B C23B 1_555 1_555
C23B C24B 1_555 1_555
C24B C25 1_555 1_555
C25B C24A 1_555 1_555
H17B C25B 1_555 1_555
O3A C28A 1_555 1_555
O4A C28A 1_555 1_555
C26A H18A 1_555 1_555
C27A C26 1_555 1_555
C28A C27A 1_555 1_555
O3B C28B 1_555 1_555
O4B C28B 1_555 1_555
C26B C27 1_555 1_555
H18B C26B 1_555 1_555
C27B C26A 1_555 1_555
C28B C27B 1_555 1_555
Ni1A O3A 1_555 1_555
N1A Ni1A 1_555 1_555
C1A N1A 1_555 1_555
H1A C1A 1_555 1_555
N2A C20A 1_555 1_555
C2A C1A 1_555 1_555
H2A C2A 1_555 1_555
N3A H3A 1_555 1_555
C3A C2A 1_555 1_555
N4A H4A 1_555 1_555
C4A C3A 1_555 1_555
H5A C4A 1_555 1_555
C5A N1A 1_555 1_555
H6A C5A 1_555 1_555
O5A C6A 1_555 1_555
C6A N3A 1_555 1_555
O6A C17A 1_555 1_555
C7A C6A 1_555 1_555
C8A C7A 1_555 1_555
C9A C8A 1_555 1_555
H7A C9A 1_555 1_555
C10A C9A 1_555 1_555
H8A C10A 1_555 1_555
C11A C10A 1_555 1_555
H9A C11A 1_555 1_555
C12A C11A 1_555 1_555
H10A C12A 1_555 1_555
C13A C8A 1_555 1_555
C14A C13A 1_555 1_555
C15A C14A 1_555 1_555
H11A C15A 1_555 1_555
C16A C7A 1_555 1_555
H12A C16A 1_555 1_555
C17A N4A 1_555 1_555
C18A N4A 1_555 1_555
C19A C18A 1_555 1_555
H13A C19A 1_555 1_555
C20A C19A 1_555 1_555
H14A C20A 1_555 1_555
C21A N2A 1_555 1_555
H15A C21A 1_555 1_555
C22A C18A 1_555 1_555
H16A C22A 1_555 1_555
Ni1B O3B 1_555 1_555
N1B Ni1B 1_555 1_555
C1B N1B 1_555 1_555
H1B C1B 1_555 1_555
N2B C20B 1_555 1_555
C2B C1B 1_555 1_555
H2B C2B 1_555 1_555
N3B H3B 1_555 1_555
C3B C2B 1_555 1_555
N4B H4B 1_555 1_555
C4B C3B 1_555 1_555
H5B C4B 1_555 1_555
C5B N1B 1_555 1_555
H6B C5B 1_555 1_555
O5B C6B 1_555 1_555
C6B N3B 1_555 1_555
O6B C17B 1_555 1_555
C7B C6B 1_555 1_555
C8B C7B 1_555 1_555
C9B C8B 1_555 1_555
H7B C9B 1_555 1_555
C10B C9B 1_555 1_555
H8B C10B 1_555 1_555
C11B C10B 1_555 1_555
H9B C11B 1_555 1_555
C12B C11B 1_555 1_555
H10B C12B 1_555 1_555
C13B C8B 1_555 1_555
C14B C13B 1_555 1_555
C15B C14B 1_555 1_555
H11B C15B 1_555 1_555
C16B C7B 1_555 1_555
H12B C16B 1_555 1_555
C17B N4B 1_555 1_555
C18B N4B 1_555 1_555
C19B C18B 1_555 1_555
H13B C19B 1_555 1_555
C20B C19B 1_555 1_555
H14B C20B 1_555 1_555
C21B N2B 1_555 1_555
H15B C21B 1_555 1_555
C22B C18B 1_555 1_555
H16B C22B 1_555 1_555
Ni1A_2 O1A 1_555 1_555
Ni1B_2 O1B 1_555 1_555
Ni1F N2B 1_555 1_555
Ni1G N2 1_555 1_555
Ni1H N2A 1_555 1_555
O1A_2 Ni1A 1_555 1_555
O1B_2 Ni1B 1_555 1_555
O2A_2 Ni1A 1_555 1_555
O2B_2 Ni1B 1_555 1_555
N2C Ni1A 1_555 1_555
N2D Ni1B 1_555 1_555
N2E Ni1 1_555 1_555
N3 C3 1_555 1_555
C4 C5 1_555 1_555
C12 C13 1_555 1_555
C14 C17 1_555 1_555
C15 C16 1_555 1_555
C21 C22 1_555 1_555
C27 C28 1_555 1_555
O2A Ni1A_2 1_555 1_555
O2B Ni1B_2 1_555 1_555
C24B C25B 1_555 1_555
C26A C27A 1_555 1_555
C26B C27B 1_555 1_555
N3A C3A 1_555 1_555
C4A C5A 1_555 1_555
C12A C13A 1_555 1_555
C14A C17A 1_555 1_555
C15A C16A 1_555 1_555
C21A C22A 1_555 1_555
N3B C3B 1_555 1_555
C4B C5B 1_555 1_555
C12B C13B 1_555 1_555
C14B C17B 1_555 1_555
C15B C16B 1_555 1_555
C21B C22B 1_555 1_555

#END
