
#######################################################################
#
#                 Cambridge Crystallographic Data Centre
#                                CCDC 
#
#######################################################################
#
# If this CIF has been generated from an entry in the Cambridge 
# Structural Database, then it will include bibliographic, chemical, 
# crystal, experimental, refinement or atomic coordinate data resulting 
# from the CCDC's data processing and validation procedures.
#
#######################################################################

data_YOSCEP
_symmetry_cell_setting           triclinic
_symmetry_space_group_name_H-M   'P -1'
_symmetry_Int_Tables_number      2
_space_group_name_Hall           '-P 1'
loop_
_symmetry_equiv_pos_site_id
_symmetry_equiv_pos_as_xyz
1 x,y,z
2 -x,-y,-z
_cell_length_a                   6.031(3)
_cell_length_b                   10.109(5)
_cell_length_c                   11.256(5)
_cell_angle_alpha                105.10(3)
_cell_angle_beta                 100.465(19)
_cell_angle_gamma                105.297(19)
_cell_volume                     615.553
loop_
_atom_site_label
_atom_site_type_symbol
_atom_site_fract_x
_atom_site_fract_y
_atom_site_fract_z
Tb1 Tb 0.14768(4) -0.31196(2) -0.05708(2)
O1 O 0.1703(7) -0.4681(4) 0.1132(4)
O2 O -0.1213(10) -0.2373(6) -0.1811(4)
O3 O 0.4394(7) -0.2608(5) 0.1417(4)
O4 O -0.0994(8) -0.2681(5) 0.0786(4)
O5 O 0.6538(7) -0.5154(4) 0.1318(4)
O7 O 0.8632(8) -0.5721(5) 0.2809(4)
O8 O 0.7498(8) -0.9461(4) -0.0543(4)
O9 O 0.5076(8) -0.8321(4) 0.0972(4)
N1 N 0.5022(14) -0.2578(9) 0.5374(6)
C1 C 0.3547(10) -0.3644(6) 0.1802(5)
C2 C 0.4685(10) -0.3534(6) 0.3145(5)
C3 C 0.3959(12) -0.2762(8) 0.4124(6)
H1 H 0.2758 -0.2370 0.3938
C4 C 0.6809(11) -0.3095(7) 0.5671(5)
H2 H 0.7577 -0.2910 0.6521
C5 C 0.7459(11) -0.3864(7) 0.4751(6)
H3 H 0.8650 -0.4250 0.4974
C6 C 0.6468(10) -0.4136(6) 0.3457(5)
C7 C 0.7270(9) -0.5050(6) 0.2480(5)
C8 C 0.4281(10) -0.9679(6) 0.0437(5)
Tb1A Tb -0.14768(4) -0.68804(2) 0.05708(2)
Tb1A_2 Tb 0.85232(4) -0.68804(2) 0.05708(2)
Tb1_2 Tb 1.14768(4) -0.31196(2) -0.05708(2)
Tb1_3 Tb 0.14768(4) -1.31196(2) -0.05708(2)
O1A O -0.1703(7) -0.5319(4) -0.1132(4)
O1_2 O 1.1703(7) -0.4681(4) 0.1132(4)
O1A_2 O 0.8297(7) -0.5319(4) -0.1132(4)
O2A O 1.1213(10) -0.7627(6) 0.1811(4)
O3A O 0.5606(7) -0.7392(5) -0.1417(4)
O4A O 1.0994(8) -0.7319(5) -0.0786(4)
O5A O 0.3462(7) -0.4846(4) -0.1318(4)
O7A O 0.1368(8) -0.4279(5) -0.2809(4)
O8A O 0.2502(8) -0.0539(4) 0.0543(4)
O8A_2 O 0.2502(8) -1.0539(4) 0.0543(4)
O9A O 0.4924(8) -0.1679(4) -0.0972(4)
O9A_2 O 0.4924(8) -1.1679(4) -0.0972(4)
N1A N 0.4978(14) -0.7422(9) -0.5374(6)
C1A C 0.6453(10) -0.6356(6) -0.1802(5)
C2A C 0.5315(10) -0.6466(6) -0.3145(5)
C3A C 0.6041(12) -0.7238(8) -0.4124(6)
H1A H 0.7242 -0.7630 -0.3938
C4A C 0.3191(11) -0.6905(7) -0.5671(5)
H2A H 0.2423 -0.7090 -0.6521
C5A C 0.2541(11) -0.6136(7) -0.4751(6)
H3A H 0.1350 -0.5750 -0.4974
C6A C 0.3532(10) -0.5864(6) -0.3457(5)
C7A C 0.2730(9) -0.4950(6) -0.2480(5)
C8A C 0.5719(10) -1.0321(6) -0.0437(5)
O6 O 0.1248(18) -0.9783(10) 0.7467(10)
loop_
_geom_bond_atom_site_label_1
_geom_bond_atom_site_label_2
_geom_bond_site_symmetry_1
_geom_bond_site_symmetry_2
Tb1 O1 1_555 1_555
O1 C1 1_555 1_555
O2 Tb1 1_555 1_555
O3 Tb1 1_555 1_555
O4 Tb1 1_555 1_555
O5 C7 1_555 1_555
O7 C7 1_555 1_555
O8 Tb1A_2 1_555 1_555
O9 C8 1_555 1_555
N1 C3 1_555 1_555
C1 O3 1_555 1_555
C2 C1 1_555 1_555
C3 C2 1_555 1_555
H1 C3 1_555 1_555
C4 N1 1_555 1_555
H2 C4 1_555 1_555
C5 C4 1_555 1_555
H3 C5 1_555 1_555
C6 C2 1_555 1_555
C7 C6 1_555 1_555
C8 O8A_2 1_555 1_555
Tb1A O1 1_555 1_555
Tb1A_2 O5 1_555 1_555
Tb1_2 O1_2 1_555 1_555
Tb1_3 O8A_2 1_555 1_555
O1A Tb1 1_555 1_555
O1_2 Tb1A_2 1_555 1_555
O1A_2 Tb1A_2 1_555 1_555
O2A Tb1A_2 1_555 1_555
O3A Tb1A_2 1_555 1_555
O4A Tb1A_2 1_555 1_555
O5A Tb1 1_555 1_555
O7A Tb1 1_555 1_555
O8A Tb1 1_555 1_555
O9A Tb1 1_555 1_555
O9A_2 Tb1_3 1_555 1_555
N1A C3A 1_555 1_555
C1A O1A_2 1_555 1_555
C2A C1A 1_555 1_555
C3A C2A 1_555 1_555
H1A C3A 1_555 1_555
C4A N1A 1_555 1_555
H2A C4A 1_555 1_555
C5A C4A 1_555 1_555
H3A C5A 1_555 1_555
C6A C2A 1_555 1_555
C7A O5A 1_555 1_555
C8A O8 1_555 1_555
O7 Tb1A_2 1_555 1_555
O9 Tb1A_2 1_555 1_555
C5 C6 1_555 1_555
C8 C8A 1_555 1_555
Tb1A O1A 1_555 1_555
Tb1_2 O1A_2 1_555 1_555
O3A C1A 1_555 1_555
O7A C7A 1_555 1_555
O9A_2 C8A 1_555 1_555
C5A C6A 1_555 1_555
C6A C7A 1_555 1_555

#END
