
#######################################################################
#
#                 Cambridge Crystallographic Data Centre
#                                CCDC 
#
#######################################################################
#
# If this CIF has been generated from an entry in the Cambridge 
# Structural Database, then it will include bibliographic, chemical, 
# crystal, experimental, refinement or atomic coordinate data resulting 
# from the CCDC's data processing and validation procedures.
#
#######################################################################

data_YOSCAL
_symmetry_cell_setting           triclinic
_symmetry_space_group_name_H-M   'P -1'
_symmetry_Int_Tables_number      2
_space_group_name_Hall           '-P 1'
loop_
_symmetry_equiv_pos_site_id
_symmetry_equiv_pos_as_xyz
1 x,y,z
2 -x,-y,-z
_cell_length_a                   6.1157(2)
_cell_length_b                   10.2888(4)
_cell_length_c                   11.446
_cell_angle_alpha                106.92(2)
_cell_angle_beta                 101.508(19)
_cell_angle_gamma                104.859(16)
_cell_volume                     636.062
loop_
_atom_site_label
_atom_site_type_symbol
_atom_site_fract_x
_atom_site_fract_y
_atom_site_fract_z
Nd1 Nd 0.85163(3) 0.31499(2) 0.051431(19)
O1 O 0.8708(6) 0.4389(4) 0.2819(3)
O2 O 1.0948(6) 0.2601(4) -0.0893(4)
O3 O 0.6593(5) 0.4941(3) 0.1355(3)
O4 O 1.1442(7) 0.2534(5) 0.1796(3)
O5 O 0.4600(5) 0.7475(3) 0.1556(3)
O7 O 0.1804(5) 0.5423(3) 0.1118(3)
O8 O 0.7394(6) 0.0498(3) -0.0571(3)
O9 O 0.4954(6) -0.1694(3) -0.0909(3)
N1 N 0.6765(8) 0.6859(5) 0.5707(4)
C1 C 0.7336(7) 0.5029(4) 0.2501(4)
C2 C 0.6496(8) 0.5907(5) 0.3494(4)
C3 C 0.7458(9) 0.6137(5) 0.4777(4)
H1 H 0.8648 0.5763 0.4990
C4 C 0.5008(11) 0.7374(7) 0.5399(5)
H2 H 0.4470 0.7850 0.6046
C5 C 0.3975(9) 0.7222(7) 0.4158(5)
H3 H 0.2784 0.7606 0.3976
C6 C 0.4736(7) 0.6486(5) 0.3181(4)
C7 C 0.3665(7) 0.6426(4) 0.1855(4)
C8 C 0.5693(7) -0.0339(4) -0.0428(4)
Nd1A Nd 0.14837(3) 0.68501(2) -0.051431(19)
Nd1_2 Nd -0.14837(3) 0.31499(2) 0.051431(19)
Nd1A_2 Nd 0.14837(3) -0.31499(2) -0.051431(19)
Nd1A_3 Nd 1.14837(3) 0.68501(2) -0.051431(19)
O1A O 0.1292(6) 0.5611(4) -0.2819(3)
O2A O -0.0948(6) 0.7399(4) 0.0893(4)
O3A O 0.3407(5) 0.5059(3) -0.1355(3)
O4A O -0.1442(7) 0.7466(5) -0.1796(3)
O5A O 0.5400(5) 0.2525(3) -0.1556(3)
O7A O 0.8196(5) 0.4577(3) -0.1118(3)
O7_2 O 1.1804(5) 0.5423(3) 0.1118(3)
O7A_2 O -0.1804(5) 0.4577(3) -0.1118(3)
O8A O 0.2606(6) -0.0498(3) 0.0571(3)
O8A_2 O 0.2606(6) 0.9502(3) 0.0571(3)
O9A O 0.5046(6) 0.1694(3) 0.0909(3)
O9_2 O 0.4954(6) 0.8306(3) -0.0909(3)
N1A N 0.3235(8) 0.3141(5) -0.5707(4)
C1A C 0.2664(7) 0.4971(4) -0.2501(4)
C2A C 0.3504(8) 0.4093(5) -0.3494(4)
C3A C 0.2542(9) 0.3863(5) -0.4777(4)
H1A H 0.1352 0.4237 -0.4990
C4A C 0.4992(11) 0.2626(7) -0.5399(5)
H2A H 0.5530 0.2150 -0.6046
C5A C 0.6025(9) 0.2778(7) -0.4158(5)
H3A H 0.7216 0.2394 -0.3976
C6A C 0.5264(7) 0.3514(5) -0.3181(4)
C7A C 0.6335(7) 0.3574(4) -0.1855(4)
C8A C 0.4307(7) 0.0339(4) 0.0428(4)
O6 O 1.1137(18) 0.0045(9) -0.2509(12)
loop_
_geom_bond_atom_site_label_1
_geom_bond_atom_site_label_2
_geom_bond_site_symmetry_1
_geom_bond_site_symmetry_2
Nd1 O1 1_555 1_555
O1 C1 1_555 1_555
O2 Nd1 1_555 1_555
O3 Nd1 1_555 1_555
O4 Nd1 1_555 1_555
O5 C7 1_555 1_555
O7 C7 1_555 1_555
O8 Nd1 1_555 1_555
O9 C8 1_555 1_555
N1 C3 1_555 1_555
C1 O3 1_555 1_555
C2 C1 1_555 1_555
C3 C2 1_555 1_555
H1 C3 1_555 1_555
C4 N1 1_555 1_555
H2 C4 1_555 1_555
C5 C4 1_555 1_555
H3 C5 1_555 1_555
C6 C2 1_555 1_555
C7 C6 1_555 1_555
C8 O8 1_555 1_555
Nd1A O5 1_555 1_555
Nd1_2 O7 1_555 1_555
Nd1A_2 O9 1_555 1_555
Nd1A_3 O7A 1_555 1_555
O1A Nd1A 1_555 1_555
O2A Nd1A 1_555 1_555
O3A Nd1A 1_555 1_555
O4A Nd1A 1_555 1_555
O5A Nd1 1_555 1_555
O7A Nd1 1_555 1_555
O7_2 Nd1 1_555 1_555
O7A_2 Nd1A 1_555 1_555
O8A Nd1A_2 1_555 1_555
O8A_2 Nd1A 1_555 1_555
O9A Nd1 1_555 1_555
O9_2 Nd1A 1_555 1_555
N1A C3A 1_555 1_555
C1A O1A 1_555 1_555
C2A C1A 1_555 1_555
C3A C2A 1_555 1_555
H1A C3A 1_555 1_555
C4A N1A 1_555 1_555
H2A C4A 1_555 1_555
C5A C4A 1_555 1_555
H3A C5A 1_555 1_555
C6A C2A 1_555 1_555
C7A O5A 1_555 1_555
C8A C8 1_555 1_555
O7 Nd1A 1_555 1_555
C5 C6 1_555 1_555
Nd1_2 O7A_2 1_555 1_555
Nd1A_3 O7_2 1_555 1_555
O3A C1A 1_555 1_555
O7A C7A 1_555 1_555
O8A C8A 1_555 1_555
O9A C8A 1_555 1_555
C5A C6A 1_555 1_555
C6A C7A 1_555 1_555

#END
