
#######################################################################
#
#                 Cambridge Crystallographic Data Centre
#                                CCDC 
#
#######################################################################
#
# If this CIF has been generated from an entry in the Cambridge 
# Structural Database, then it will include bibliographic, chemical, 
# crystal, experimental, refinement or atomic coordinate data resulting 
# from the CCDC's data processing and validation procedures.
#
#######################################################################

data_YOSDIV
_symmetry_cell_setting           trigonal
_symmetry_space_group_name_H-M   'P -3'
_symmetry_Int_Tables_number      147
_space_group_name_Hall           '-P 3'
loop_
_symmetry_equiv_pos_site_id
_symmetry_equiv_pos_as_xyz
1 x,y,z
2 -y,x-y,z
3 -x+y,-x,z
4 -x,-y,-z
5 y,-x+y,-z
6 x-y,x,-z
_cell_length_a                   14.1344(19)
_cell_length_b                   14.1344(19)
_cell_length_c                   20.396(3)
_cell_angle_alpha                90
_cell_angle_beta                 90
_cell_angle_gamma                120
_cell_volume                     3528.83
loop_
_atom_site_label
_atom_site_type_symbol
_atom_site_fract_x
_atom_site_fract_y
_atom_site_fract_z
Cd1 Cd -0.23967(2) -0.457031(19) 0.150829(11)
Cl1 Cl -0.44983(7) -0.57375(7) 0.14998(4)
O1 O -0.22436(18) -0.28355(18) 0.14811(11)
O2 O -0.07131(19) -0.28749(19) 0.16088(12)
O3 O -0.3800(3) -0.3819(3) 0.49245(12)
O4 O -0.1730(4) -0.4945(4) 0.79078(14)
N1 N -0.2488(2) -0.4532(2) 0.26549(14)
N2 N -0.2412(2) -0.4491(2) 1.03651(14)
N3 N -0.2440(3) -0.4200(3) 0.46966(14)
H1 H -0.1935 -0.4272 0.4884
N4 N -0.2590(3) -0.4116(3) 0.83378(13)
H2 H -0.2903 -0.3750 0.8233
C1 C -0.1703(4) -0.4501(4) 0.30317(19)
H3 H -0.1142 -0.4555 0.2829
C2 C -0.1673(4) -0.4394(4) 0.36986(18)
H4 H -0.1109 -0.4383 0.3939
C3 C -0.2494(3) -0.4303(3) 0.40113(17)
C4 C -0.3310(3) -0.4314(4) 0.36279(18)
H5 H -0.3872 -0.4248 0.3817
C5 C -0.3266(3) -0.4426(3) 0.29610(17)
H6 H -0.3813 -0.4428 0.2706
C6 C -0.3088(3) -0.3998(3) 0.51073(17)
C7 C -0.2849(3) -0.4048(3) 0.58224(16)
C8 C -0.1867(3) -0.3232(3) 0.61203(16)
C9 C -0.1066(3) -0.2314(3) 0.5768(2)
H7 H -0.1167 -0.2243 0.5324
C10 C -0.0148(4) -0.1533(4) 0.6076(2)
H8 H 0.0371 -0.0934 0.5840
C11 C 0.0017(4) -0.1624(4) 0.6738(2)
H9 H 0.0638 -0.1076 0.6943
C12 C -0.0715(4) -0.2503(4) 0.7090(2)
H10 H -0.0578 -0.2561 0.7530
C13 C -0.1685(3) -0.3334(3) 0.67957(17)
C14 C -0.2488(3) -0.4253(3) 0.71495(17)
C15 C -0.3430(4) -0.5014(4) 0.68516(19)
H11 H -0.3953 -0.5605 0.7091
C16 C -0.3612(4) -0.4907(4) 0.61859(19)
H12 H -0.4259 -0.5426 0.5989
C17 C -0.2235(4) -0.4475(4) 0.78379(19)
C18 C -0.2509(3) -0.4267(3) 0.90077(16)
C19 C -0.2003(3) -0.4806(3) 0.92748(17)
H13 H -0.1683 -0.5100 0.9006
C20 C -0.1987(3) -0.4894(3) 0.99451(16)
H14 H -0.1653 -0.5264 1.0117
C21 C -0.2903(3) -0.3976(3) 1.01032(17)
H15 H -0.3209 -0.3684 1.0384
C22 C -0.2973(3) -0.3861(3) 0.94414(17)
H16 H -0.3333 -0.3508 0.9283
C23 C -0.1223(3) -0.2361(3) 0.15273(16)
C24 C -0.0583(3) -0.1134(3) 0.14925(15)
C25 C -0.1133(3) -0.0549(3) 0.14894(16)
H17 H -0.1893 -0.0917 0.1485
O1A O 0.28355(18) 0.05919(25) 0.14811(11)
O2A O 0.28749(19) 0.21618(27) 0.16088(12)
C23A C 0.2361(3) 0.1138(4) 0.15273(16)
C24A C 0.1134(3) 0.0551(4) 0.14925(15)
C25A C 0.0549(3) -0.0584(4) 0.14894(16)
H17A H 0.0917 -0.0976 0.1485
O1B O -0.05919(25) 0.22436(18) 0.14811(11)
O2B O -0.21618(27) 0.07131(19) 0.16088(12)
C23B C -0.1138(4) 0.1223(3) 0.15273(16)
C24B C -0.0551(4) 0.0583(3) 0.14925(15)
C25B C 0.0584(4) 0.1133(3) 0.14894(16)
H17B H 0.0976 0.1893 0.1485
Cd1A Cd -0.542969(19) -0.782639(28) 0.150829(11)
Cl1A Cl -0.42625(7) -0.87608(10) 0.14998(4)
O3A O -0.6181(3) -0.9981(4) 0.49245(12)
O4A O -0.5055(4) -0.6785(6) 0.79078(14)
N1A N -0.5468(2) -0.7956(3) 0.26549(14)
N2A N -0.5509(2) -0.7921(3) 1.03651(14)
N3A N -0.5800(3) -0.8240(4) 0.46966(14)
H1A H -0.5728 -0.7663 0.4884
N4A N -0.5884(3) -0.8474(4) 0.83378(13)
H2A H -0.6250 -0.9153 0.8233
C1A C -0.5499(4) -0.7202(6) 0.30317(19)
H3A H -0.5445 -0.6587 0.2829
C2A C -0.5606(4) -0.7279(6) 0.36986(18)
H4A H -0.5617 -0.6726 0.3939
C3A C -0.5697(3) -0.8191(4) 0.40113(17)
C4A C -0.5686(4) -0.8996(5) 0.36279(18)
H5A H -0.5752 -0.9624 0.3817
C5A C -0.5574(3) -0.8840(4) 0.29610(17)
H6A H -0.5572 -0.9385 0.2706
C6A C -0.6002(3) -0.9090(4) 0.51073(17)
C7A C -0.5952(3) -0.8801(4) 0.58224(16)
C8A C -0.6768(3) -0.8635(4) 0.61203(16)
C9A C -0.7686(3) -0.8752(4) 0.5768(2)
H7A H -0.7757 -0.8924 0.5324
C10A C -0.8467(4) -0.8615(6) 0.6076(2)
H8A H -0.9066 -0.8695 0.5840
C11A C -0.8376(4) -0.8359(6) 0.6738(2)
H9A H -0.8924 -0.8286 0.6943
C12A C -0.7497(4) -0.8212(6) 0.7090(2)
H10A H -0.7439 -0.8017 0.7530
C13A C -0.6666(3) -0.8351(4) 0.67957(17)
C14A C -0.5747(3) -0.8235(4) 0.71495(17)
C15A C -0.4986(4) -0.8416(6) 0.68516(19)
H11A H -0.4395 -0.8348 0.7091
C16A C -0.5093(4) -0.8705(6) 0.61859(19)
H12A H -0.4574 -0.8833 0.5989
C17A C -0.5525(4) -0.7760(6) 0.78379(19)
C18A C -0.5733(3) -0.8242(4) 0.90077(16)
C19A C -0.5194(3) -0.7197(4) 0.92748(17)
H13A H -0.4900 -0.6583 0.9006
C20A C -0.5106(3) -0.7093(4) 0.99451(16)
H14A H -0.4736 -0.6389 1.0117
C21A C -0.6024(3) -0.8927(4) 1.01032(17)
H15A H -0.6316 -0.9525 1.0384
C22A C -0.6139(3) -0.9112(4) 0.94414(17)
H16A H -0.6492 -0.9825 0.9283
Cd1B Cd -0.217361(28) -0.76033(2) 0.150829(11)
Cl1B Cl -0.12392(10) -0.55017(7) 0.14998(4)
O3B O -0.0019(4) -0.6200(3) 0.49245(12)
O4B O -0.3215(6) -0.8270(4) 0.79078(14)
N1B N -0.2044(3) -0.7512(2) 0.26549(14)
N2B N -0.2079(3) -0.7588(2) 1.03651(14)
N3B N -0.1760(4) -0.7560(3) 0.46966(14)
H1B H -0.2337 -0.8065 0.4884
N4B N -0.1526(4) -0.7410(3) 0.83378(13)
H2B H -0.0847 -0.7097 0.8233
C1B C -0.2798(6) -0.8297(4) 0.30317(19)
H3B H -0.3413 -0.8858 0.2829
C2B C -0.2721(6) -0.8327(4) 0.36986(18)
H4B H -0.3274 -0.8891 0.3939
C3B C -0.1809(4) -0.7506(3) 0.40113(17)
C4B C -0.1004(5) -0.6690(3) 0.36279(18)
H5B H -0.0376 -0.6128 0.3817
C5B C -0.1160(4) -0.6734(3) 0.29610(17)
H6B H -0.0615 -0.6187 0.2706
C6B C -0.0910(4) -0.6912(3) 0.51073(17)
C7B C -0.1199(4) -0.7151(3) 0.58224(16)
C8B C -0.1365(4) -0.8133(3) 0.61203(16)
C9B C -0.1248(4) -0.8934(3) 0.5768(2)
H7B H -0.1076 -0.8833 0.5324
C10B C -0.1385(6) -0.9852(4) 0.6076(2)
H8B H -0.1305 -1.0371 0.5840
C11B C -0.1641(6) -1.0017(4) 0.6738(2)
H9B H -0.1714 -1.0638 0.6943
C12B C -0.1788(6) -0.9285(4) 0.7090(2)
H10B H -0.1983 -0.9422 0.7530
C13B C -0.1649(4) -0.8315(3) 0.67957(17)
C14B C -0.1765(4) -0.7512(3) 0.71495(17)
C15B C -0.1584(6) -0.6570(4) 0.68516(19)
H11B H -0.1652 -0.6047 0.7091
C16B C -0.1295(6) -0.6388(4) 0.61859(19)
H12B H -0.1167 -0.5741 0.5989
C17B C -0.2240(6) -0.7765(4) 0.78379(19)
C18B C -0.1758(4) -0.7491(3) 0.90077(16)
C19B C -0.2803(4) -0.7997(3) 0.92748(17)
H13B H -0.3417 -0.8317 0.9006
C20B C -0.2907(4) -0.8013(3) 0.99451(16)
H14B H -0.3611 -0.8347 1.0117
C21B C -0.1073(4) -0.7097(3) 1.01032(17)
H15B H -0.0475 -0.6791 1.0384
C22B C -0.0888(4) -0.7027(3) 0.94414(17)
H16B H -0.0175 -0.6667 0.9283
Cd1_2 Cd -0.23967(2) -0.457031(19) 1.150829(11)
Cd1A_2 Cd -0.542969(19) -0.782639(28) 1.150829(11)
Cd1A_3 Cd 0.457031(19) 0.217361(28) 0.150829(11)
Cd1B_2 Cd -0.217361(28) -0.76033(2) 1.150829(11)
Cd1B_3 Cd -0.217361(28) 0.23967(2) 0.150829(11)
O1A_2 O -0.71645(18) -0.94081(25) 0.14811(11)
O1B_2 O -0.05919(25) -0.77564(18) 0.14811(11)
O2A_2 O -0.71251(19) -0.78382(27) 0.16088(12)
O2B_2 O -0.21618(27) -0.92869(19) 0.16088(12)
N2_2 N -0.2412(2) -0.4491(2) 0.03651(14)
N2A_2 N -0.5509(2) -0.7921(3) 0.03651(14)
N2B_2 N -0.2079(3) -0.7588(2) 0.03651(14)
loop_
_geom_bond_atom_site_label_1
_geom_bond_atom_site_label_2
_geom_bond_site_symmetry_1
_geom_bond_site_symmetry_2
Cd1 Cl1 1_555 1_555
Cl1 Cd1A 1_555 1_555
O1 Cd1 1_555 1_555
O2 Cd1 1_555 1_555
O3 C6 1_555 1_555
O4 C17 1_555 1_555
N1 Cd1 1_555 1_555
N2 C20 1_555 1_555
N3 H1 1_555 1_555
N4 H2 1_555 1_555
C1 N1 1_555 1_555
H3 C1 1_555 1_555
C2 C1 1_555 1_555
H4 C2 1_555 1_555
C3 N3 1_555 1_555
C4 C3 1_555 1_555
H5 C4 1_555 1_555
C5 N1 1_555 1_555
H6 C5 1_555 1_555
C6 N3 1_555 1_555
C7 C6 1_555 1_555
C8 C7 1_555 1_555
C9 C8 1_555 1_555
H7 C9 1_555 1_555
C10 C9 1_555 1_555
H8 C10 1_555 1_555
C11 C10 1_555 1_555
H9 C11 1_555 1_555
C12 C11 1_555 1_555
H10 C12 1_555 1_555
C13 C8 1_555 1_555
C14 C13 1_555 1_555
C15 C14 1_555 1_555
H11 C15 1_555 1_555
C16 C7 1_555 1_555
H12 C16 1_555 1_555
C17 N4 1_555 1_555
C18 N4 1_555 1_555
C19 C18 1_555 1_555
H13 C19 1_555 1_555
C20 C19 1_555 1_555
H14 C20 1_555 1_555
C21 N2 1_555 1_555
H15 C21 1_555 1_555
C22 C18 1_555 1_555
H16 C22 1_555 1_555
C23 O1 1_555 1_555
C24 C23 1_555 1_555
C25 C24 1_555 1_555
H17 C25 1_555 1_555
O1A C23A 1_555 1_555
O2A C23A 1_555 1_555
C23A C24A 1_555 1_555
C24A C25A 1_555 1_555
C25A C24 1_555 1_555
H17A C25A 1_555 1_555
O1B C23B 1_555 1_555
O2B C23B 1_555 1_555
C23B C24B 1_555 1_555
C24B C25 1_555 1_555
C25B C24A 1_555 1_555
H17B C25B 1_555 1_555
Cd1A Cl1A 1_555 1_555
Cl1A Cd1B 1_555 1_555
O3A C6A 1_555 1_555
O4A C17A 1_555 1_555
N1A Cd1A 1_555 1_555
N2A C20A 1_555 1_555
N3A H1A 1_555 1_555
N4A H2A 1_555 1_555
C1A N1A 1_555 1_555
H3A C1A 1_555 1_555
C2A C1A 1_555 1_555
H4A C2A 1_555 1_555
C3A N3A 1_555 1_555
C4A C3A 1_555 1_555
H5A C4A 1_555 1_555
C5A N1A 1_555 1_555
H6A C5A 1_555 1_555
C6A N3A 1_555 1_555
C7A C6A 1_555 1_555
C8A C7A 1_555 1_555
C9A C8A 1_555 1_555
H7A C9A 1_555 1_555
C10A C9A 1_555 1_555
H8A C10A 1_555 1_555
C11A C10A 1_555 1_555
H9A C11A 1_555 1_555
C12A C11A 1_555 1_555
H10A C12A 1_555 1_555
C13A C8A 1_555 1_555
C14A C13A 1_555 1_555
C15A C14A 1_555 1_555
H11A C15A 1_555 1_555
C16A C7A 1_555 1_555
H12A C16A 1_555 1_555
C17A N4A 1_555 1_555
C18A N4A 1_555 1_555
C19A C18A 1_555 1_555
H13A C19A 1_555 1_555
C20A C19A 1_555 1_555
H14A C20A 1_555 1_555
C21A N2A 1_555 1_555
H15A C21A 1_555 1_555
C22A C18A 1_555 1_555
H16A C22A 1_555 1_555
Cd1B Cl1B 1_555 1_555
Cl1B Cd1 1_555 1_555
O3B C6B 1_555 1_555
O4B C17B 1_555 1_555
N1B Cd1B 1_555 1_555
N2B C20B 1_555 1_555
N3B H1B 1_555 1_555
N4B H2B 1_555 1_555
C1B N1B 1_555 1_555
H3B C1B 1_555 1_555
C2B C1B 1_555 1_555
H4B C2B 1_555 1_555
C3B N3B 1_555 1_555
C4B C3B 1_555 1_555
H5B C4B 1_555 1_555
C5B N1B 1_555 1_555
H6B C5B 1_555 1_555
C6B N3B 1_555 1_555
C7B C6B 1_555 1_555
C8B C7B 1_555 1_555
C9B C8B 1_555 1_555
H7B C9B 1_555 1_555
C10B C9B 1_555 1_555
H8B C10B 1_555 1_555
C11B C10B 1_555 1_555
H9B C11B 1_555 1_555
C12B C11B 1_555 1_555
H10B C12B 1_555 1_555
C13B C8B 1_555 1_555
C14B C13B 1_555 1_555
C15B C14B 1_555 1_555
H11B C15B 1_555 1_555
C16B C7B 1_555 1_555
H12B C16B 1_555 1_555
C17B N4B 1_555 1_555
C18B N4B 1_555 1_555
C19B C18B 1_555 1_555
H13B C19B 1_555 1_555
C20B C19B 1_555 1_555
H14B C20B 1_555 1_555
C21B N2B 1_555 1_555
H15B C21B 1_555 1_555
C22B C18B 1_555 1_555
H16B C22B 1_555 1_555
Cd1_2 N2 1_555 1_555
Cd1A_2 N2A 1_555 1_555
Cd1A_3 O1A 1_555 1_555
Cd1B_2 N2B 1_555 1_555
Cd1B_3 O1B 1_555 1_555
O1A_2 Cd1A 1_555 1_555
O1B_2 Cd1B 1_555 1_555
O2A_2 Cd1A 1_555 1_555
O2B_2 Cd1B 1_555 1_555
N2_2 Cd1 1_555 1_555
N2A_2 Cd1A 1_555 1_555
N2B_2 Cd1B 1_555 1_555
O2 C23 1_555 1_555
C2 C3 1_555 1_555
C4 C5 1_555 1_555
C12 C13 1_555 1_555
C14 C17 1_555 1_555
C15 C16 1_555 1_555
C21 C22 1_555 1_555
O2A Cd1A_3 1_555 1_555
O2B Cd1B_3 1_555 1_555
C24B C25B 1_555 1_555
C2A C3A 1_555 1_555
C4A C5A 1_555 1_555
C12A C13A 1_555 1_555
C14A C17A 1_555 1_555
C15A C16A 1_555 1_555
C21A C22A 1_555 1_555
C2B C3B 1_555 1_555
C4B C5B 1_555 1_555
C12B C13B 1_555 1_555
C14B C17B 1_555 1_555
C15B C16B 1_555 1_555
C21B C22B 1_555 1_555

#END
