
#######################################################################
#
#                 Cambridge Crystallographic Data Centre
#                                CCDC 
#
#######################################################################
#
# If this CIF has been generated from an entry in the Cambridge 
# Structural Database, then it will include bibliographic, chemical, 
# crystal, experimental, refinement or atomic coordinate data resulting 
# from the CCDC's data processing and validation procedures.
#
#######################################################################

data_YOSDEQ
_symmetry_cell_setting           monoclinic
_symmetry_space_group_name_H-M   'P 21/c'
_symmetry_Int_Tables_number      14
_space_group_name_Hall           '-P 2ybc'
loop_
_symmetry_equiv_pos_site_id
_symmetry_equiv_pos_as_xyz
1 x,y,z
2 -x,1/2+y,1/2-z
3 -x,-y,-z
4 x,1/2-y,1/2+z
_cell_length_a                   9.2357(7)
_cell_length_b                   10.8172(8)
_cell_length_c                   47.004(3)
_cell_angle_alpha                90
_cell_angle_beta                 99.907(2)
_cell_angle_gamma                90
_cell_volume                     4625.88
loop_
_atom_site_label
_atom_site_type_symbol
_atom_site_fract_x
_atom_site_fract_y
_atom_site_fract_z
Cd1 Cd 0.47868(3) -0.30593(3) -0.276600(6)
O1 O 0.4491(3) -0.3527(3) -0.23154(6)
O2 O 0.6715(3) -0.4311(3) -0.23057(7)
O3 O 0.2668(3) -0.1874(3) -0.27642(7)
O4 O 0.4002(4) -0.5117(3) -0.28747(6)
O5 O 0.3943(3) -0.6237(2) -0.23488(6)
O6 O 0.1744(3) -0.5339(3) -0.24439(7)
N1 N 0.8287(4) -0.3773(3) -0.39402(8)
N2 N 0.3980(4) -0.2911(3) -0.32735(7)
N3 N 0.5345(4) -0.3447(3) -0.42082(7)
N4 N 0.6751(4) -0.3549(3) -0.30131(7)
C1 C 0.5603(5) -0.4121(4) -0.21913(9)
C2 C 0.4968(4) -0.3186(3) -0.34460(8)
C3 C 0.6462(4) -0.3479(3) -0.33054(9)
C4 C 0.3135(5) -0.2981(4) -0.38741(9)
H1 H 0.2849 -0.3001 -0.4074
C5 C 0.7565(4) -0.3692(4) -0.34713(9)
C6 C 0.4600(4) -0.3213(3) -0.37467(9)
C7 C 0.5748(5) -0.3439(3) -0.39177(9)
C8 C 0.7193(5) -0.3637(4) -0.37829(9)
C9 C 0.9248(5) -0.4034(4) -0.30329(10)
H2 H 1.0188 -0.4210 -0.2935
C10 C 0.4321(6) -0.4957(4) -0.17791(10)
C11 C 0.2886(5) -0.5641(4) -0.22733(10)
C12 C 0.2999(6) -0.5335(4) -0.19594(11)
C13 C 0.6899(6) -0.4334(4) -0.16934(11)
H3 H 0.7742 -0.4099 -0.1763
C14 C 0.2610(5) -0.2669(4) -0.33998(9)
H4 H 0.1932 -0.2452 -0.3283
C15 C 0.6415(5) -0.3588(4) -0.43582(10)
H5 H 0.6191 -0.3597 -0.4559
C16 C 0.2134(5) -0.2722(4) -0.36973(10)
H6 H 0.1152 -0.2585 -0.3775
C17 C 0.8978(5) -0.3974(4) -0.33266(9)
H7 H 0.9731 -0.4121 -0.3431
C18 C 0.8098(5) -0.3829(4) -0.28816(10)
H8 H 0.8282 -0.3890 -0.2681
C19 C 0.7888(5) -0.3726(4) -0.42225(10)
H9 H 0.8610 -0.3788 -0.4337
C20 C 0.5609(5) -0.4534(4) -0.18836(10)
C21 C 0.5707(9) -0.4769(5) -0.12887(13)
H10 H 0.5738 -0.4807 -0.1090
C22 C 0.1770(6) -0.5579(4) -0.18403(13)
H11 H 0.0893 -0.5775 -0.1961
C23 C 0.4380(8) -0.5003(4) -0.14748(12)
C24 C 0.3073(9) -0.5297(5) -0.13640(13)
H12 H 0.3100 -0.5321 -0.1165
C25 C 0.1809(9) -0.5538(5) -0.15429(16)
H13 H 0.0955 -0.5678 -0.1468
C26 C 0.6944(8) -0.4487(5) -0.13926(13)
H14 H 0.7829 -0.4393 -0.1266
H29 H 0.3771 -0.5555 -0.2739
H30 H 0.4311 -0.5681 -0.2975
H31 H 0.2813 -0.1100 -0.2745
H32 H 0.1886 -0.2088 -0.2705
Cd1A Cd 0.52132(3) -0.80593(3) -0.223400(6)
O5A O 0.6057(3) -0.1237(2) -0.26512(6)
Cd2 Cd 0.78657(3) -1.06463(3) -0.031668(6)
O7 O 0.7029(3) -0.8787(3) -0.01487(6)
O8 O 1.2241(3) -0.8226(3) -0.00898(6)
O9 O 1.0354(3) -0.7924(2) 0.01292(6)
O10 O 0.8758(3) -0.8771(2) -0.04196(6)
N5 N 0.2251(4) -1.2092(3) -0.14186(8)
N6 N 0.5551(3) -1.1364(3) -0.05259(7)
N7 N 0.7821(3) -1.1059(3) -0.08128(7)
N8 N 0.4547(4) -1.1585(3) -0.17211(7)
C27 C 0.3881(4) -1.1781(3) -0.09669(8)
C28 C 0.5274(4) -1.1479(3) -0.08144(8)
C29 C 0.3632(4) -1.1836(3) -0.12787(8)
C30 C 0.4781(4) -1.1603(3) -0.14313(9)
C31 C 0.7474(5) -1.1249(4) -0.14116(9)
H15 H 0.7371 -1.1307 -0.1611
C32 C 0.6483(4) -1.1288(3) -0.09728(9)
C33 C 1.1075(5) -0.7667(4) -0.00674(9)
C34 C 0.6253(4) -1.1367(3) -0.12731(9)
C35 C 0.7912(4) -0.8213(4) -0.02783(8)
C36 C 0.3049(5) -1.1863(4) -0.05108(9)
H16 H 0.2315 -1.1990 -0.0401
C37 C 0.8826(5) -1.1044(4) -0.12447(10)
H17 H 0.9660 -1.0984 -0.1330
C38 C 0.8941(5) -1.0928(4) -0.09523(10)
H18 H 0.9859 -1.0747 -0.0845
C39 C 0.2753(4) -1.1983(4) -0.08027(9)
H19 H 0.1812 -1.2197 -0.0894
C40 C 0.2069(5) -1.2115(4) -0.17024(10)
H20 H 0.1146 -1.2308 -0.1806
C41 C 0.4462(5) -1.1548(4) -0.03779(9)
H21 H 0.4655 -1.1462 -0.0178
C42 C 0.3211(5) -1.1859(4) -0.18551(10)
H22 H 0.3023 -1.1882 -0.2056
C43 C 1.1473(6) -0.4794(5) -0.04930(12)
H23 H 1.2235 -0.4390 -0.0561
C44 C 0.6362(6) -0.5020(5) -0.04127(11)
H24 H 0.5459 -0.4630 -0.0421
C45 C 1.0114(6) -0.4294(5) -0.05333(11)
H25 H 0.9966 -0.3513 -0.0616
C46 C 1.1728(5) -0.5927(4) -0.03483(11)
H26 H 1.2679 -0.6241 -0.0311
C47 C 0.7518(6) -0.4394(4) -0.04858(11)
H27 H 0.7377 -0.3597 -0.0559
C48 C 0.8923(5) -0.4927(4) -0.04533(9)
C49 C 0.6542(5) -0.6265(4) -0.03248(11)
H28 H 0.5735 -0.6708 -0.0286
C50 C 1.0622(5) -0.6581(4) -0.02611(9)
C51 C 0.9142(5) -0.6137(4) -0.03325(9)
C52 C 0.7878(5) -0.6828(4) -0.02957(8)
Cd2B Cd 1.21343(3) -0.93537(3) 0.031668(6)
O7B O 1.2971(3) -1.1213(3) 0.01487(6)
O8B O 0.7759(3) -1.1774(3) 0.00898(6)
O9B O 0.9646(3) -1.2076(2) -0.01292(6)
O10B O 1.1242(3) -1.1229(2) 0.04196(6)
N5B N 1.7749(4) -0.7908(3) 0.14186(8)
N6B N 1.4449(3) -0.8636(3) 0.05259(7)
N7B N 1.2179(3) -0.8941(3) 0.08128(7)
N8B N 1.5453(4) -0.8415(3) 0.17211(7)
C27B C 1.6119(4) -0.8219(3) 0.09669(8)
C28B C 1.4726(4) -0.8521(3) 0.08144(8)
C29B C 1.6368(4) -0.8164(3) 0.12787(8)
C30B C 1.5219(4) -0.8397(3) 0.14313(9)
C31B C 1.2526(5) -0.8751(4) 0.14116(9)
H15B H 1.2629 -0.8693 0.1611
C32B C 1.3517(4) -0.8712(3) 0.09728(9)
C33B C 0.8925(5) -1.2333(4) 0.00674(9)
C34B C 1.3747(4) -0.8633(3) 0.12731(9)
C35B C 1.2088(4) -1.1787(4) 0.02783(8)
C36B C 1.6951(5) -0.8137(4) 0.05108(9)
H16B H 1.7685 -0.8010 0.0401
C37B C 1.1174(5) -0.8956(4) 0.12447(10)
H17B H 1.0340 -0.9016 0.1330
C38B C 1.1059(5) -0.9072(4) 0.09523(10)
H18B H 1.0141 -0.9253 0.0845
C39B C 1.7247(4) -0.8017(4) 0.08027(9)
H19B H 1.8188 -0.7803 0.0894
C40B C 1.7931(5) -0.7885(4) 0.17024(10)
H20B H 1.8854 -0.7692 0.1806
C41B C 1.5538(5) -0.8452(4) 0.03779(9)
H21B H 1.5345 -0.8538 0.0178
C42B C 1.6789(5) -0.8141(4) 0.18551(10)
H22B H 1.6977 -0.8118 0.2056
C43B C 0.8527(6) -1.5206(5) 0.04930(12)
H23B H 0.7765 -1.5610 0.0561
C44B C 1.3638(6) -1.4980(5) 0.04127(11)
H24B H 1.4541 -1.5370 0.0421
C45B C 0.9886(6) -1.5706(5) 0.05333(11)
H25B H 1.0034 -1.6487 0.0616
C46B C 0.8272(5) -1.4073(4) 0.03483(11)
H26B H 0.7321 -1.3759 0.0311
C47B C 1.2482(6) -1.5606(4) 0.04858(11)
H27B H 1.2623 -1.6403 0.0559
C48B C 1.1077(5) -1.5073(4) 0.04533(9)
C49B C 1.3458(5) -1.3735(4) 0.03248(11)
H28B H 1.4265 -1.3292 0.0286
C50B C 0.9378(5) -1.3419(4) 0.02611(9)
C51B C 1.0858(5) -1.3863(4) 0.03325(9)
C52B C 1.2122(5) -1.3172(4) 0.02957(8)
O11 O -0.1306(3) -0.2209(3) -0.21240(8)
H33 H -0.1261 -0.1514 -0.2207
H34 H -0.2002 -0.2659 -0.2209
O12 O 0.1003(3) -0.2845(3) -0.24141(7)
H35 H 0.0912 -0.3626 -0.2411
H36 H 0.0352 -0.2771 -0.2307
loop_
_geom_bond_atom_site_label_1
_geom_bond_atom_site_label_2
_geom_bond_site_symmetry_1
_geom_bond_site_symmetry_2
Cd1 O1 1_555 1_555
O1 C1 1_555 1_555
O2 C1 1_555 1_555
O3 Cd1 1_555 1_555
O4 Cd1 1_555 1_555
O5 C11 1_555 1_555
O6 C11 1_555 1_555
N1 C8 1_555 1_555
N2 Cd1 1_555 1_555
N3 C7 1_555 1_555
N4 Cd1 1_555 1_555
C1 C20 1_555 1_555
C2 N2 1_555 1_555
C3 N4 1_555 1_555
C4 H1 1_555 1_555
C5 C3 1_555 1_555
C6 C2 1_555 1_555
C7 C6 1_555 1_555
C8 C5 1_555 1_555
C9 H2 1_555 1_555
C10 C12 1_555 1_555
C11 C12 1_555 1_555
C12 C22 1_555 1_555
C13 H3 1_555 1_555
C14 N2 1_555 1_555
H4 C14 1_555 1_555
C15 N3 1_555 1_555
H5 C15 1_555 1_555
C16 C4 1_555 1_555
H6 C16 1_555 1_555
C17 C5 1_555 1_555
H7 C17 1_555 1_555
C18 N4 1_555 1_555
H8 C18 1_555 1_555
C19 N1 1_555 1_555
H9 C19 1_555 1_555
C20 C10 1_555 1_555
C21 H10 1_555 1_555
C22 H11 1_555 1_555
C23 C10 1_555 1_555
C24 C23 1_555 1_555
H12 C24 1_555 1_555
C25 C22 1_555 1_555
H13 C25 1_555 1_555
C26 C13 1_555 1_555
H14 C26 1_555 1_555
Cd2 O7 1_555 1_555
O7 C35 1_555 1_555
O8 C33 1_555 1_555
O9 C33 1_555 1_555
O10 Cd2 1_555 1_555
N5 C29 1_555 1_555
N6 Cd2 1_555 1_555
N7 Cd2 1_555 1_555
N8 C30 1_555 1_555
C27 C28 1_555 1_555
C28 N6 1_555 1_555
C29 C27 1_555 1_555
C30 C29 1_555 1_555
C31 H15 1_555 1_555
C32 N7 1_555 1_555
C33 C50 1_555 1_555
C34 C30 1_555 1_555
C35 O10 1_555 1_555
C36 H16 1_555 1_555
C37 C31 1_555 1_555
H17 C37 1_555 1_555
C38 N7 1_555 1_555
H18 C38 1_555 1_555
C39 C27 1_555 1_555
H19 C39 1_555 1_555
C40 N5 1_555 1_555
H20 C40 1_555 1_555
C41 N6 1_555 1_555
H21 C41 1_555 1_555
C42 N8 1_555 1_555
H22 C42 1_555 1_555
C43 H23 1_555 1_555
C44 H24 1_555 1_555
C45 C43 1_555 1_555
H25 C45 1_555 1_555
C46 C43 1_555 1_555
H26 C46 1_555 1_555
C47 C44 1_555 1_555
H27 C47 1_555 1_555
C48 C45 1_555 1_555
C49 C44 1_555 1_555
H28 C49 1_555 1_555
C50 C46 1_555 1_555
C51 C48 1_555 1_555
C52 C35 1_555 1_555
O11 H33 1_555 1_555
O12 H35 1_555 1_555
H29 O4 1_555 1_555
H30 O4 1_555 1_555
H31 O3 1_555 1_555
H32 O3 1_555 1_555
H34 O11 1_555 1_555
H36 O12 1_555 1_555
Cd1A O5 1_555 1_555
O5A Cd1 1_555 1_555
Cd2B O8 1_555 1_555
O7B Cd2B 1_555 1_555
O8B Cd2 1_555 1_555
O9B Cd2 1_555 1_555
O10B Cd2B 1_555 1_555
N5B C29B 1_555 1_555
N6B Cd2B 1_555 1_555
N7B Cd2B 1_555 1_555
N8B C30B 1_555 1_555
C27B C28B 1_555 1_555
C28B N6B 1_555 1_555
C29B C27B 1_555 1_555
C30B C29B 1_555 1_555
C31B H15B 1_555 1_555
C32B N7B 1_555 1_555
C33B O8B 1_555 1_555
C34B C30B 1_555 1_555
C35B O7B 1_555 1_555
C36B H16B 1_555 1_555
C37B C31B 1_555 1_555
H17B C37B 1_555 1_555
C38B N7B 1_555 1_555
H18B C38B 1_555 1_555
C39B C27B 1_555 1_555
H19B C39B 1_555 1_555
C40B N5B 1_555 1_555
H20B C40B 1_555 1_555
C41B N6B 1_555 1_555
H21B C41B 1_555 1_555
C42B N8B 1_555 1_555
H22B C42B 1_555 1_555
C43B H23B 1_555 1_555
C44B H24B 1_555 1_555
C45B C43B 1_555 1_555
H25B C45B 1_555 1_555
C46B C43B 1_555 1_555
H26B C46B 1_555 1_555
C47B C44B 1_555 1_555
H27B C47B 1_555 1_555
C48B C45B 1_555 1_555
C49B C44B 1_555 1_555
H28B C49B 1_555 1_555
C50B C33B 1_555 1_555
C51B C48B 1_555 1_555
C52B C35B 1_555 1_555
C2 C3 1_555 1_555
C4 C6 1_555 1_555
C7 C8 1_555 1_555
C9 C17 1_555 1_555
C9 C18 1_555 1_555
C13 C20 1_555 1_555
C14 C16 1_555 1_555
C15 C19 1_555 1_555
C21 C23 1_555 1_555
C21 C26 1_555 1_555
C24 C25 1_555 1_555
O9 Cd2B 1_555 1_555
C28 C32 1_555 1_555
C31 C34 1_555 1_555
C32 C34 1_555 1_555
C36 C39 1_555 1_555
C36 C41 1_555 1_555
C37 C38 1_555 1_555
C40 C42 1_555 1_555
C47 C48 1_555 1_555
C49 C52 1_555 1_555
C50 C51 1_555 1_555
C51 C52 1_555 1_555
O9B C33B 1_555 1_555
O10B C35B 1_555 1_555
C28B C32B 1_555 1_555
C31B C34B 1_555 1_555
C32B C34B 1_555 1_555
C36B C39B 1_555 1_555
C36B C41B 1_555 1_555
C37B C38B 1_555 1_555
C40B C42B 1_555 1_555
C46B C50B 1_555 1_555
C47B C48B 1_555 1_555
C49B C52B 1_555 1_555
C50B C51B 1_555 1_555
C51B C52B 1_555 1_555

#END
