
#######################################################################
#
#                 Cambridge Crystallographic Data Centre
#                                CCDC 
#
#######################################################################
#
# If this CIF has been generated from an entry in the Cambridge 
# Structural Database, then it will include bibliographic, chemical, 
# crystal, experimental, refinement or atomic coordinate data resulting 
# from the CCDC's data processing and validation procedures.
#
#######################################################################

data_YOSDIU
_symmetry_cell_setting           monoclinic
_symmetry_space_group_name_H-M   'C 2/c'
_symmetry_Int_Tables_number      15
_space_group_name_Hall           '-C 2yn'
loop_
_symmetry_equiv_pos_site_id
_symmetry_equiv_pos_as_xyz
1 x,y,z
2 -x,y,1/2-z
3 1/2+x,1/2+y,z
4 1/2-x,1/2+y,1/2-z
5 -x,-y,-z
6 x,-y,1/2+z
7 1/2-x,1/2-y,-z
8 1/2+x,1/2-y,1/2+z
_cell_length_a                   22.4719(13)
_cell_length_b                   12.3127(5)
_cell_length_c                   19.3004(10)
_cell_angle_alpha                90
_cell_angle_beta                 120.507(1)
_cell_angle_gamma                90
_cell_volume                     4600.96
loop_
_atom_site_label
_atom_site_type_symbol
_atom_site_fract_x
_atom_site_fract_y
_atom_site_fract_z
Cd1 Cd -0.080884(19) 0.95510(3) -1.00488(2)
N1 N -0.1432(2) 0.9292(4) -0.9393(3)
N2 N -0.1125(2) 1.1232(3) -0.9802(2)
N3 N -0.2630(3) 1.1101(5) -0.8243(3)
N4 N -0.2198(3) 1.3099(4) -0.8523(3)
O1 O -0.0463(2) 0.7822(3) -0.9894(3)
O2 O -0.1363(3) 0.7095(4) -1.0966(4)
O3 O -0.03502(18) 1.0046(3) -1.0836(2)
O4 O -0.1323(3) 1.0400(6) -1.1947(3)
O5 O -0.1862(2) 0.9079(4) -1.1206(3)
C1 C -0.1637(3) 0.8325(5) -0.9265(4)
H1 H -0.1493 0.7697 -0.9406
C2 C -0.2055(3) 0.8226(6) -0.8934(4)
H2 H -0.2192 0.7545 -0.8859
C3 C -0.2263(3) 0.9145(6) -0.8717(4)
H3 H -0.2539 0.9091 -0.8487
C4 C -0.2059(3) 1.0168(5) -0.8842(3)
C5 C -0.2244(3) 1.1171(5) -0.8604(3)
C6 C -0.2771(4) 1.2044(8) -0.8027(4)
H4 H -0.3024 1.2043 -0.7766
C7 C -0.2564(4) 1.3005(7) -0.8168(4)
H5 H -0.2687 1.3635 -0.8006
C8 C -0.2043(3) 1.2159(5) -0.8759(3)
C9 C -0.1662(2) 1.2212(4) -0.9184(3)
C10 C -0.1489(3) 1.3185(4) -0.9395(4)
H6 H -0.1607 1.3840 -0.9257
C11 C -0.1142(3) 1.3177(4) -0.9810(4)
H7 H -0.1029 1.3826 -0.9963
C12 C -0.0962(3) 1.2191(5) -0.9997(3)
H8 H -0.0719 1.2192 -1.0269
C13 C -0.1474(2) 1.1241(4) -0.9396(3)
C14 C -0.1661(3) 1.0208(4) -0.9205(3)
C15 C -0.0769(3) 0.7050(5) -1.0347(5)
C16 C -0.0378(3) 0.5974(4) -1.0158(4)
C17 C 0.0126(3) 0.5696(4) -0.9370(5)
C18 C -0.0513(3) 0.5286(4) -1.0782(5)
C19 C -0.1025(7) 0.5543(11) -1.1594(10)
H9 H -0.1286 0.6170 -1.1689
C20 C -0.1160(9) 0.4855(14) -1.2295(12)
H10 H -0.1511 0.5022 -1.2813
C21 C -0.0733(8) 0.3944(11) -1.2140(10)
H11 H -0.0763 0.3521 -1.2555
C22 C 0.0255(6) 0.6302(10) -0.8677(8)
H12 H -0.0004 0.6931 -0.8772
C23 C -0.0700(3) 1.0214(5) -1.1587(3)
C24 C -0.0335(3) 1.0188(5) -1.2051(3)
C25 C -0.0168(3) 0.9171(5) -1.2269(3)
C26 C -0.0169(3) 1.1133(5) -1.2276(4)
H13 H -0.0281 1.1791 -1.2133
C27 C -0.0336(3) 0.8181(6) -1.2052(4)
H14 H -0.0561 0.8173 -1.1758
C28 C -0.0172(3) 0.7249(6) -1.2269(4)
H15 H -0.0280 0.6593 -1.2121
H16 H -0.1807 0.8396 -1.1201
H17 H -0.1816 0.9385 -1.1571
Cd1D Cd 0.080884(19) 0.04490(3) -0.99512(2)
Cd1D_2 Cd 0.080884(19) 1.04490(3) -0.99512(2)
Cd1A Cd 0.080884(19) 0.95510(3) -1.49512(2)
Cd1E Cd -0.080884(19) 1.04490(3) -1.50488(2)
N1D N 0.1432(2) 0.0708(4) -1.0607(3)
N2D N 0.1125(2) -0.1232(3) -1.0198(2)
N3D N 0.2630(3) -0.1101(5) -1.1757(3)
N4D N 0.2198(3) -0.3099(4) -1.1477(3)
O1D O 0.0463(2) 0.2178(3) -1.0106(3)
O2D O 0.1363(3) 0.2905(4) -0.9034(4)
O3A O 0.03502(18) 1.0046(3) -1.4164(2)
O3D O 0.03502(18) 0.9954(3) -0.9164(2)
O3D_2 O 0.03502(18) -0.0046(3) -0.9164(2)
O3_2 O -0.03502(18) 0.0046(3) -1.0836(2)
O4A O 0.1323(3) 1.0400(6) -1.3053(3)
O5D O 0.1862(2) 0.0921(4) -0.8794(3)
C1D C 0.1637(3) 0.1675(5) -1.0735(4)
H1D H 0.1493 0.2303 -1.0594
C2D C 0.2055(3) 0.1774(6) -1.1066(4)
H2D H 0.2192 0.2455 -1.1141
C3D C 0.2263(3) 0.0855(6) -1.1283(4)
H3D H 0.2539 0.0909 -1.1513
C4D C 0.2059(3) -0.0168(5) -1.1158(3)
C5D C 0.2244(3) -0.1171(5) -1.1396(3)
C6D C 0.2771(4) -0.2044(8) -1.1973(4)
H4D H 0.3024 -0.2043 -1.2234
C7D C 0.2564(4) -0.3005(7) -1.1832(4)
H5D H 0.2687 -0.3635 -1.1994
C8D C 0.2043(3) -0.2159(5) -1.1241(3)
C9D C 0.1662(2) -0.2212(4) -1.0816(3)
C10D C 0.1489(3) -0.3185(4) -1.0605(4)
H6D H 0.1607 -0.3840 -1.0743
C11D C 0.1142(3) -0.3177(4) -1.0190(4)
H7D H 0.1029 -0.3826 -1.0037
C12D C 0.0962(3) -0.2191(5) -1.0003(3)
H8D H 0.0719 -0.2192 -0.9731
C13D C 0.1474(2) -0.1241(4) -1.0604(3)
C14D C 0.1661(3) -0.0208(4) -1.0795(3)
C15D C 0.0769(3) 0.2950(5) -0.9653(5)
C16D C 0.0378(3) 0.4026(4) -0.9842(4)
C17D C -0.0126(3) 0.4304(4) -1.0630(5)
C18D C 0.0513(3) 0.4714(4) -0.9218(5)
C19D C 0.1025(7) 0.4457(11) -0.8406(10)
H9D H 0.1286 0.3830 -0.8311
C20D C 0.1160(9) 0.5145(14) -0.7705(12)
H10D H 0.1511 0.4978 -0.7187
C21D C 0.0733(8) 0.6056(11) -0.7860(10)
H11D H 0.0763 0.6479 -0.7445
C22D C -0.0255(6) 0.3698(10) -1.1323(8)
H12D H 0.0004 0.3069 -1.1228
C23A C 0.0700(3) 1.0214(5) -1.3413(3)
C24A C 0.0335(3) 1.0188(5) -1.2949(3)
C25A C 0.0168(3) 0.9171(5) -1.2731(3)
C26A C 0.0169(3) 1.1133(5) -1.2724(4)
H13A H 0.0281 1.1791 -1.2867
C27A C 0.0336(3) 0.8181(6) -1.2948(4)
H14A H 0.0561 0.8173 -1.3242
C28A C 0.0172(3) 0.7249(6) -1.2731(4)
H15A H 0.0280 0.6593 -1.2879
H16D H 0.1807 0.1604 -0.8799
H17D H 0.1816 0.0615 -0.8429
loop_
_geom_bond_atom_site_label_1
_geom_bond_atom_site_label_2
_geom_bond_site_symmetry_1
_geom_bond_site_symmetry_2
Cd1 N1 1_555 1_555
N1 C1 1_555 1_555
N2 Cd1 1_555 1_555
N3 C5 1_555 1_555
N4 C7 1_555 1_555
O1 Cd1 1_555 1_555
O2 C15 1_555 1_555
O3 Cd1 1_555 1_555
O4 C23 1_555 1_555
O5 Cd1 1_555 1_555
C1 H1 1_555 1_555
C2 C1 1_555 1_555
H2 C2 1_555 1_555
C3 C2 1_555 1_555
H3 C3 1_555 1_555
C4 C3 1_555 1_555
C5 C4 1_555 1_555
C6 N3 1_555 1_555
H4 C6 1_555 1_555
C7 C6 1_555 1_555
H5 C7 1_555 1_555
C8 N4 1_555 1_555
C9 C8 1_555 1_555
C10 C9 1_555 1_555
H6 C10 1_555 1_555
C11 C10 1_555 1_555
H7 C11 1_555 1_555
C12 N2 1_555 1_555
H8 C12 1_555 1_555
C13 N2 1_555 1_555
C14 N1 1_555 1_555
C15 O1 1_555 1_555
C16 C15 1_555 1_555
C17 C16 1_555 1_555
C18 C16 1_555 1_555
C19 C18 1_555 1_555
H9 C19 1_555 1_555
C20 C19 1_555 1_555
H10 C20 1_555 1_555
C21 C20 1_555 1_555
H11 C21 1_555 1_555
C22 C17 1_555 1_555
H12 C22 1_555 1_555
C23 O3 1_555 1_555
C24 C23 1_555 1_555
C25 C24 1_555 1_555
C26 C24 1_555 1_555
H13 C26 1_555 1_555
C27 C25 1_555 1_555
H14 C27 1_555 1_555
C28 C27 1_555 1_555
H15 C28 1_555 1_555
H16 O5 1_555 1_555
H17 O5 1_555 1_555
Cd1D N1D 1_555 1_555
Cd1D_2 O3 1_555 1_555
Cd1A O3A 1_555 1_555
Cd1E O3A 1_555 1_555
N1D C1D 1_555 1_555
N2D Cd1D 1_555 1_555
N3D C5D 1_555 1_555
N4D C7D 1_555 1_555
O1D Cd1D 1_555 1_555
O2D C15D 1_555 1_555
O3A C23A 1_555 1_555
O3D Cd1 1_555 1_555
O3D_2 Cd1D 1_555 1_555
O3_2 Cd1D 1_555 1_555
O4A C23A 1_555 1_555
O5D Cd1D 1_555 1_555
C1D H1D 1_555 1_555
C2D C1D 1_555 1_555
H2D C2D 1_555 1_555
C3D C2D 1_555 1_555
H3D C3D 1_555 1_555
C4D C3D 1_555 1_555
C5D C4D 1_555 1_555
C6D N3D 1_555 1_555
H4D C6D 1_555 1_555
C7D C6D 1_555 1_555
H5D C7D 1_555 1_555
C8D N4D 1_555 1_555
C9D C8D 1_555 1_555
C10D C9D 1_555 1_555
H6D C10D 1_555 1_555
C11D C10D 1_555 1_555
H7D C11D 1_555 1_555
C12D N2D 1_555 1_555
H8D C12D 1_555 1_555
C13D N2D 1_555 1_555
C14D N1D 1_555 1_555
C15D O1D 1_555 1_555
C16D C15D 1_555 1_555
C17D C18 1_555 1_555
C18D C17 1_555 1_555
C19D C18D 1_555 1_555
H9D C19D 1_555 1_555
C20D C19D 1_555 1_555
H10D C20D 1_555 1_555
C21D C22 1_555 1_555
H11D C21D 1_555 1_555
C22D C21 1_555 1_555
H12D C22D 1_555 1_555
C23A C24A 1_555 1_555
C24A C25A 1_555 1_555
C25A C25 1_555 1_555
C26A C26 1_555 1_555
H13A C26A 1_555 1_555
C27A C25A 1_555 1_555
H14A C27A 1_555 1_555
C28A C28 1_555 1_555
H15A C28A 1_555 1_555
H16D O5D 1_555 1_555
H17D O5D 1_555 1_555
C4 C14 1_555 1_555
C5 C8 1_555 1_555
C9 C13 1_555 1_555
C11 C12 1_555 1_555
C13 C14 1_555 1_555
Cd1D_2 O3D 1_555 1_555
C4D C14D 1_555 1_555
C5D C8D 1_555 1_555
C9D C13D 1_555 1_555
C11D C12D 1_555 1_555
C13D C14D 1_555 1_555
C16D C17D 1_555 1_555
C16D C18D 1_555 1_555
C17D C22D 1_555 1_555
C20D C21D 1_555 1_555
C24A C26A 1_555 1_555
C27A C28A 1_555 1_555

#END
