
#######################################################################
#
#                 Cambridge Crystallographic Data Centre
#                                CCDC 
#
#######################################################################
#
# If this CIF has been generated from an entry in the Cambridge 
# Structural Database, then it will include bibliographic, chemical, 
# crystal, experimental, refinement or atomic coordinate data resulting 
# from the CCDC's data processing and validation procedures.
#
#######################################################################

data_YOSDUG
_symmetry_cell_setting           monoclinic
_symmetry_space_group_name_H-M   'P 21/c'
_symmetry_Int_Tables_number      14
_space_group_name_Hall           '-P 2ybc'
loop_
_symmetry_equiv_pos_site_id
_symmetry_equiv_pos_as_xyz
1 x,y,z
2 -x,1/2+y,1/2-z
3 -x,-y,-z
4 x,1/2-y,1/2+z
_cell_length_a                   11.2589(16)
_cell_length_b                   12.957(2)
_cell_length_c                   24.206(4)
_cell_angle_alpha                90
_cell_angle_beta                 102.403(3)
_cell_angle_gamma                90
_cell_volume                     3448.79
loop_
_atom_site_label
_atom_site_type_symbol
_atom_site_fract_x
_atom_site_fract_y
_atom_site_fract_z
C1 C -0.2523(3) 0.1174(3) 0.27511(14)
C2 C -0.1503(3) 0.1934(3) 0.28500(14)
C3 C -0.1085(3) 0.2322(3) 0.23880(14)
H1 H -0.1448 0.2104 0.2025
C4 C -0.0133(3) 0.3029(3) 0.24625(15)
H2 H 0.0140 0.3277 0.2151
C5 C 0.0397(3) 0.3356(3) 0.29929(18)
C6 C -0.0015(3) 0.2994(3) 0.34577(16)
H3 H 0.0340 0.3229 0.3818
C7 C -0.0968(3) 0.2272(3) 0.33839(15)
H4 H -0.1237 0.2022 0.3696
C8 C 0.1418(3) 0.4133(3) 0.30760(15)
H5 H 0.1236 0.4642 0.2776
H6 H 0.1454 0.4490 0.3431
C9 C 0.3029(3) 0.2925(3) 0.35334(15)
H7 H 0.2552 0.2298 0.3450
H8 H 0.2896 0.3200 0.3888
C10 C 0.4381(3) 0.2669(3) 0.35945(16)
H9 H 0.4655 0.2237 0.3924
H10 H 0.4498 0.2292 0.3264
C11 C 0.6191(3) 0.3527(3) 0.34176(15)
H11 H 0.6564 0.2862 0.3525
H12 H 0.6772 0.4058 0.3576
C12 C 0.5905(3) 0.3614(3) 0.27968(16)
H13 H 0.5447 0.3012 0.2635
H14 H 0.6655 0.3632 0.2661
C13 C 0.5887(3) 0.5521(3) 0.25720(17)
H15 H 0.6322 0.5712 0.2949
H16 H 0.5330 0.6077 0.2427
C14 C 0.6804(3) 0.5390(3) 0.21872(15)
C15 C 0.6455(3) 0.5149(3) 0.16145(15)
H17 H 0.5634 0.5059 0.1454
C16 C 0.7282(3) 0.5041(3) 0.12836(14)
H18 H 0.7022 0.4879 0.0903
C17 C 0.9442(3) 0.5022(3) 0.11644(15)
C18 C 0.8498(3) 0.5172(2) 0.15097(15)
C19 C 0.8859(3) 0.5441(3) 0.20719(15)
H19 H 0.9681 0.5546 0.2225
C20 C 0.8043(3) 0.5557(3) 0.24094(15)
H20 H 0.8308 0.5748 0.2786
C21 C 0.5335(3) 0.4007(3) 0.42324(14)
H21 H 0.6077 0.3697 0.4446
H22 H 0.4672 0.3804 0.4408
C22 C 0.5462(4) 0.5201(3) 0.42504(16)
H23 H 0.5531 0.5445 0.4635
H24 H 0.6191 0.5403 0.4125
C23 C 0.4538(3) 0.6790(3) 0.38364(15)
H25 H 0.4100 0.7006 0.3464
H26 H 0.5391 0.6951 0.3865
C24 C 0.4079(3) 0.7401(3) 0.42753(14)
C25 C 0.2877(3) 0.7291(3) 0.43153(17)
H27 H 0.2376 0.6827 0.4081
C26 C 0.2423(3) 0.7861(3) 0.46979(16)
H28 H 0.1617 0.7772 0.4723
C27 C 0.3128(3) 0.8556(3) 0.50437(15)
C28 C 0.2581(3) 0.9210(3) 0.54372(14)
C29 C 0.4341(3) 0.8668(3) 0.50130(15)
H29 H 0.4840 0.9130 0.5250
C30 C 0.4804(3) 0.8084(2) 0.46242(15)
H30 H 0.5614 0.8159 0.4602
Cl1 Cl -0.29659(8) -0.17758(6) 0.32766(4)
N1 N 0.5100(2) 0.3635(2) 0.36540(12)
N2 N 0.2619(2) 0.3682(2) 0.30801(12)
H31 H 0.3045 0.3847 0.2838
N3 N 0.5183(3) 0.4563(2) 0.26065(13)
H32 H 0.4401 0.4557 0.2521
N4 N 0.4407(3) 0.5654(2) 0.38860(12)
H33 H 0.3780 0.5309 0.3718
O1 O -0.2967(2) 0.09591(17) 0.22537(9)
O2 O -0.2848(2) 0.07724(19) 0.31626(10)
O3 O 1.1048(2) 0.3723(2) 0.04394(11)
H34 H 1.0593 0.3260 0.0533
O4 O 1.0491(2) 0.47724(18) 0.14275(10)
O5 O 0.9118(2) 0.51678(19) 0.06375(10)
O6 O 0.3274(3) 0.98453(19) 0.57514(10)
O7 O 0.1485(2) 0.9110(2) 0.54562(11)
Zn1 Zn 0.39787(4) 0.47954(3) 0.313160(17)
Zn2 Zn -0.21097(3) -0.03422(3) 0.376645(16)
Zn3 Zn 1.0000 0.5000 0.0000
C1A C 1.2523(3) -0.3826(3) 0.22489(14)
C2A C 1.1503(3) -0.3066(3) 0.21500(14)
C3A C 1.1085(3) -0.2678(3) 0.26120(14)
H1A H 1.1448 -0.2896 0.2975
C4A C 1.0133(3) -0.1971(3) 0.25375(15)
H2A H 0.9860 -0.1723 0.2849
C5A C 0.9603(3) -0.1644(3) 0.20071(18)
C6A C 1.0015(3) -0.2006(3) 0.15423(16)
H3A H 0.9660 -0.1771 0.1182
C7A C 1.0968(3) -0.2728(3) 0.16161(15)
H4A H 1.1237 -0.2978 0.1304
C8A C 0.8582(3) -0.0867(3) 0.19240(15)
H5A H 0.8764 -0.0358 0.2224
H6A H 0.8546 -0.0510 0.1569
C9A C 0.6971(3) -0.2075(3) 0.14666(15)
H7A H 0.7448 -0.2702 0.1550
H8A H 0.7104 -0.1800 0.1112
C10A C 0.5619(3) -0.2331(3) 0.14055(16)
H9A H 0.5345 -0.2763 0.1076
H10A H 0.5502 -0.2708 0.1736
C11A C 0.3809(3) -0.1473(3) 0.15824(15)
H11A H 0.3436 -0.2138 0.1475
H12A H 0.3228 -0.0942 0.1424
C12A C 0.4095(3) -0.1386(3) 0.22032(16)
H13A H 0.4553 -0.1988 0.2365
H14A H 0.3345 -0.1368 0.2339
C13A C 0.4113(3) 0.0521(3) 0.24280(17)
H15A H 0.3678 0.0712 0.2051
H16A H 0.4670 0.1077 0.2573
C14A C 0.3196(3) 0.0390(3) 0.28128(15)
C15A C 0.3545(3) 0.0149(3) 0.33855(15)
H17A H 0.4366 0.0059 0.3546
C16A C 0.2718(3) 0.0041(3) 0.37164(14)
H18A H 0.2978 -0.0121 0.4097
C17A C 0.0558(3) 0.0022(3) 0.38356(15)
C18A C 0.1502(3) 0.0172(2) 0.34903(15)
C19A C 0.1141(3) 0.0441(3) 0.29281(15)
H19A H 0.0319 0.0546 0.2775
C20A C 0.1957(3) 0.0557(3) 0.25906(15)
H20A H 0.1692 0.0748 0.2214
C21A C 0.4665(3) -0.0993(3) 0.07676(14)
H21A H 0.3923 -0.1303 0.0554
H22A H 0.5328 -0.1196 0.0592
C22A C 0.4538(4) 0.0201(3) 0.07496(16)
H23A H 0.4469 0.0445 0.0365
H24A H 0.3809 0.0403 0.0875
C23A C 0.5462(3) 0.1790(3) 0.11636(15)
H25A H 0.5900 0.2006 0.1536
H26A H 0.4609 0.1951 0.1135
C24A C 0.5921(3) 0.2401(3) 0.07247(14)
C25A C 0.7123(3) 0.2291(3) 0.06847(17)
H27A H 0.7624 0.1827 0.0919
C26A C 0.7577(3) 0.2861(3) 0.03021(16)
H28A H 0.8383 0.2772 0.0277
C27A C 0.6872(3) 0.3556(3) -0.00437(15)
C28A C 0.7419(3) 0.4210(3) -0.04372(14)
C29A C 0.5659(3) 0.3668(3) -0.00130(15)
H29A H 0.5160 0.4130 -0.0250
C30A C 0.5196(3) 0.3084(2) 0.03758(15)
H30A H 0.4386 0.3159 0.0398
Cl1A Cl 1.29659(8) -0.67758(6) 0.17234(4)
N1A N 0.4900(2) -0.1365(2) 0.13460(12)
N2A N 0.7381(2) -0.1318(2) 0.19199(12)
H31A H 0.6955 -0.1153 0.2162
N3A N 0.4817(3) -0.0437(2) 0.23935(13)
H32A H 0.5599 -0.0443 0.2479
N4A N 0.5593(3) 0.0654(2) 0.11140(12)
H33A H 0.6220 0.0309 0.1282
O1A O 1.2967(2) -0.40409(17) 0.27463(9)
O1A_2 O 0.2967(2) 0.59591(17) 0.27463(9)
O1_2 O 0.7033(2) 0.09591(17) 0.22537(9)
O2A O 1.2848(2) -0.42276(19) 0.18374(10)
O3B O 0.8952(2) 0.6277(2) -0.04394(11)
O3A O -0.1048(2) -0.1277(2) 0.45606(11)
O3_2 O 1.1048(2) -0.6277(2) 0.04394(11)
H34B H 0.9407 0.6740 -0.0533
H34A H -0.0593 -0.1740 0.4467
H34_2 H 1.0593 -0.6740 0.0533
O4A O -0.0491(2) -0.02276(18) 0.35725(10)
O4_2 O 1.0491(2) -0.52276(18) 0.14275(10)
O5A O 0.0882(2) 0.01678(19) 0.43625(10)
O5B O 1.0882(2) 0.48322(19) -0.06375(10)
O6A O 0.6726(3) 0.48453(19) -0.07514(10)
O6B O -0.3274(3) 0.01547(19) 0.42486(10)
O6C O 1.3274(3) -0.48453(19) 0.07514(10)
O7A O 0.8515(2) 0.4110(2) -0.04562(11)
O7B O -0.1485(2) 0.0890(2) 0.45438(11)
O7C O 1.1485(2) 0.5890(2) 0.04562(11)
O7C_2 O 1.1485(2) -0.4110(2) 0.04562(11)
Zn1A Zn 0.60213(4) -0.02046(3) 0.186840(17)
Zn1A_2 Zn -0.39787(4) -0.02046(3) 0.186840(17)
Zn1_2 Zn 1.39787(4) -0.52046(3) 0.313160(17)
Zn2A Zn 1.21097(3) -0.53422(3) 0.123355(16)
Zn2A_2 Zn 1.21097(3) 0.46578(3) 0.123355(16)
Zn2B Zn 0.21097(3) 1.03422(3) 0.623355(16)
Zn2C Zn 0.78903(3) 0.53422(3) -0.123355(16)
Zn3A Zn 0.0000 1.0000 0.5000
Zn3A_2 Zn 0.0000 0.0000 0.5000
O8 O 0.9133(5) 0.5200(3) 0.4231(2)
H35 H 0.8447 0.4917 0.4105
H36 H 0.9223 0.5305 0.4584
O9 O 0.9622(2) 0.7173(2) 0.39166(11)
H37 H 1.0036 0.6727 0.4134
H38 H 0.8988 0.6889 0.3722
O10 O 0.2179(4) 0.4593(3) 0.45779(18)
H39 H 0.2570 0.4240 0.4854
H40 H 0.1791 0.5071 0.4702
loop_
_geom_bond_atom_site_label_1
_geom_bond_atom_site_label_2
_geom_bond_site_symmetry_1
_geom_bond_site_symmetry_2
C1 C2 1_555 1_555
C2 C3 1_555 1_555
C3 H1 1_555 1_555
C4 C3 1_555 1_555
H2 C4 1_555 1_555
C5 C4 1_555 1_555
C6 C5 1_555 1_555
H3 C6 1_555 1_555
C7 C2 1_555 1_555
H4 C7 1_555 1_555
C8 C5 1_555 1_555
H5 C8 1_555 1_555
H6 C8 1_555 1_555
C9 H7 1_555 1_555
H8 C9 1_555 1_555
C10 C9 1_555 1_555
H9 C10 1_555 1_555
H10 C10 1_555 1_555
C11 H11 1_555 1_555
H12 C11 1_555 1_555
C12 C11 1_555 1_555
H13 C12 1_555 1_555
H14 C12 1_555 1_555
C13 H15 1_555 1_555
H16 C13 1_555 1_555
C14 C13 1_555 1_555
C15 C14 1_555 1_555
H17 C15 1_555 1_555
C16 C15 1_555 1_555
H18 C16 1_555 1_555
C17 C18 1_555 1_555
C18 C16 1_555 1_555
C19 C18 1_555 1_555
H19 C19 1_555 1_555
C20 C14 1_555 1_555
H20 C20 1_555 1_555
C21 H21 1_555 1_555
H22 C21 1_555 1_555
C22 C21 1_555 1_555
H23 C22 1_555 1_555
H24 C22 1_555 1_555
C23 H25 1_555 1_555
H26 C23 1_555 1_555
C24 C23 1_555 1_555
C25 C24 1_555 1_555
H27 C25 1_555 1_555
C26 C25 1_555 1_555
H28 C26 1_555 1_555
C27 C26 1_555 1_555
C28 C27 1_555 1_555
C29 C27 1_555 1_555
H29 C29 1_555 1_555
C30 C24 1_555 1_555
H30 C30 1_555 1_555
Cl1 Zn2 1_555 1_555
N1 C10 1_555 1_555
N2 C8 1_555 1_555
H31 N2 1_555 1_555
N3 C12 1_555 1_555
H32 N3 1_555 1_555
N4 C22 1_555 1_555
H33 N4 1_555 1_555
O1 C1 1_555 1_555
O2 C1 1_555 1_555
O3 H34 1_555 1_555
O4 C17 1_555 1_555
O5 C17 1_555 1_555
O6 C28 1_555 1_555
O7 C28 1_555 1_555
O8 H35 1_555 1_555
H36 O8 1_555 1_555
O9 H37 1_555 1_555
H38 O9 1_555 1_555
O10 H39 1_555 1_555
H40 O10 1_555 1_555
Zn1 N1 1_555 1_555
Zn2 O2 1_555 1_555
Zn3 O3 1_555 1_555
C1A C2A 1_555 1_555
C2A C3A 1_555 1_555
C3A H1A 1_555 1_555
C4A C3A 1_555 1_555
H2A C4A 1_555 1_555
C5A C4A 1_555 1_555
C6A C5A 1_555 1_555
H3A C6A 1_555 1_555
C7A C2A 1_555 1_555
H4A C7A 1_555 1_555
C8A C5A 1_555 1_555
H5A C8A 1_555 1_555
H6A C8A 1_555 1_555
C9A H7A 1_555 1_555
H8A C9A 1_555 1_555
C10A C9A 1_555 1_555
H9A C10A 1_555 1_555
H10A C10A 1_555 1_555
C11A H11A 1_555 1_555
H12A C11A 1_555 1_555
C12A C11A 1_555 1_555
H13A C12A 1_555 1_555
H14A C12A 1_555 1_555
C13A H15A 1_555 1_555
H16A C13A 1_555 1_555
C14A C13A 1_555 1_555
C15A C14A 1_555 1_555
H17A C15A 1_555 1_555
C16A C15A 1_555 1_555
H18A C16A 1_555 1_555
C17A C18A 1_555 1_555
C18A C16A 1_555 1_555
C19A C18A 1_555 1_555
H19A C19A 1_555 1_555
C20A C14A 1_555 1_555
H20A C20A 1_555 1_555
C21A H21A 1_555 1_555
H22A C21A 1_555 1_555
C22A C21A 1_555 1_555
H23A C22A 1_555 1_555
H24A C22A 1_555 1_555
C23A H25A 1_555 1_555
H26A C23A 1_555 1_555
C24A C23A 1_555 1_555
C25A C24A 1_555 1_555
H27A C25A 1_555 1_555
C26A C25A 1_555 1_555
H28A C26A 1_555 1_555
C27A C26A 1_555 1_555
C28A C27A 1_555 1_555
C29A C27A 1_555 1_555
H29A C29A 1_555 1_555
C30A C24A 1_555 1_555
H30A C30A 1_555 1_555
Cl1A Zn2A 1_555 1_555
N1A C10A 1_555 1_555
N2A C8A 1_555 1_555
H31A N2A 1_555 1_555
N3A C12A 1_555 1_555
H32A N3A 1_555 1_555
N4A C22A 1_555 1_555
H33A N4A 1_555 1_555
O1A C1A 1_555 1_555
O1A_2 Zn1 1_555 1_555
O1_2 Zn1A 1_555 1_555
O2A C1A 1_555 1_555
O3B Zn3 1_555 1_555
O3A Zn2 1_555 1_555
O3_2 H34_2 1_555 1_555
H34B O3B 1_555 1_555
H34A O3A 1_555 1_555
O4A Zn2 1_555 1_555
O4_2 Zn2A 1_555 1_555
O5A C17A 1_555 1_555
O5B Zn3 1_555 1_555
O6A C28A 1_555 1_555
O6B Zn2 1_555 1_555
O6C Zn2A 1_555 1_555
O7A Zn3 1_555 1_555
O7B Zn2 1_555 1_555
O7C Zn3 1_555 1_555
O7C_2 Zn2A 1_555 1_555
Zn1A N1A 1_555 1_555
Zn1A_2 O1 1_555 1_555
Zn1_2 O1A 1_555 1_555
Zn2A O2A 1_555 1_555
Zn2A_2 O3 1_555 1_555
Zn2B O6 1_555 1_555
Zn2C O3B 1_555 1_555
Zn3A O7 1_555 1_555
Zn3A_2 O3A 1_555 1_555
C6 C7 1_555 1_555
C9 N2 1_555 1_555
C11 N1 1_555 1_555
C13 N3 1_555 1_555
C19 C20 1_555 1_555
C21 N1 1_555 1_555
C23 N4 1_555 1_555
C29 C30 1_555 1_555
N2 Zn1 1_555 1_555
N3 Zn1 1_555 1_555
N4 Zn1 1_555 1_555
O4 Zn2A_2 1_555 1_555
O5 Zn3 1_555 1_555
O7 Zn2B 1_555 1_555
C6A C7A 1_555 1_555
C9A N2A 1_555 1_555
C11A N1A 1_555 1_555
C13A N3A 1_555 1_555
C17A O4A 1_555 1_555
C19A C20A 1_555 1_555
C21A N1A 1_555 1_555
C23A N4A 1_555 1_555
C28A O7A 1_555 1_555
C29A C30A 1_555 1_555
N2A Zn1A 1_555 1_555
N3A Zn1A 1_555 1_555
N4A Zn1A 1_555 1_555
O3_2 Zn2A 1_555 1_555
O5A Zn3A_2 1_555 1_555
O6A Zn2C 1_555 1_555
O7A Zn2C 1_555 1_555
O7B Zn3A_2 1_555 1_555
O7C Zn2A_2 1_555 1_555

#END
