
#######################################################################
#
#                 Cambridge Crystallographic Data Centre
#                                CCDC 
#
#######################################################################
#
# If this CIF has been generated from an entry in the Cambridge 
# Structural Database, then it will include bibliographic, chemical, 
# crystal, experimental, refinement or atomic coordinate data resulting 
# from the CCDC's data processing and validation procedures.
#
#######################################################################

data_YOSDER
_symmetry_cell_setting           monoclinic
_symmetry_space_group_name_H-M   'P 21/c'
_symmetry_Int_Tables_number      14
_space_group_name_Hall           '-P 2ybc'
loop_
_symmetry_equiv_pos_site_id
_symmetry_equiv_pos_as_xyz
1 x,y,z
2 -x,1/2+y,1/2-z
3 -x,-y,-z
4 x,1/2-y,1/2+z
_cell_length_a                   11.8470(4)
_cell_length_b                   16.2260(5)
_cell_length_c                   14.7859(5)
_cell_angle_alpha                90
_cell_angle_beta                 109.5450(10)
_cell_angle_gamma                90
_cell_volume                     2678.51
loop_
_atom_site_label
_atom_site_type_symbol
_atom_site_fract_x
_atom_site_fract_y
_atom_site_fract_z
Zn1 Zn 0.261334(18) -0.550576(12) 0.276607(14)
O1 O 0.23505(14) -0.57105(9) 0.39125(10)
N1 N 0.09680(14) -0.48268(10) 0.21092(11)
C1 C 0.00772(18) -0.47799(12) 0.24181(14)
H1 H 0.0211 -0.4937 0.3050
O2 O 0.12831(15) -0.68929(11) 0.36653(10)
N2 N -0.99223(17) -0.20493(12) -0.67785(12)
H2 H -1.0298 -0.1918 -0.7366
C2 C -0.11381(19) -0.44980(12) 0.18581(14)
H3 H -0.1715 -0.4484 0.2157
O3 O 0.23078(13) -0.87698(9) 0.64932(10)
N3 N -0.26574(14) -0.40477(11) 0.02332(12)
H4 H -0.2748 -0.4015 -0.0346
C3 C -0.14596(17) -0.42554(12) 0.09189(14)
O4 O 0.34867(17) -0.82939(9) 0.79190(10)
N4 N -0.78754(15) -0.25382(11) -0.38755(11)
H5 H -0.7370 -0.2152 -0.3549
C4 C -0.05054(18) -0.42481(13) 0.06240(14)
H6 H -0.0598 -0.4052 0.0012
O5 O 0.65163(12) -0.60134(9) 0.81515(10)
C5 C 0.06694(19) -0.45354(12) 0.12262(14)
H7 H 0.1277 -0.4511 0.0960
O6 O 0.58815(12) -0.51310(8) 0.69208(10)
C6 C -0.37233(18) -0.38925(13) 0.03493(14)
O7 O -0.37549(15) -0.39192(11) 0.11182(11)
C7 C -0.48386(17) -0.36891(12) -0.05922(13)
O8 O -0.8640(2) -0.37953(13) -0.37487(15)
C8 C -0.55759(16) -0.29656(12) -0.06983(13)
C9 C -0.53188(18) -0.24102(13) 0.00691(14)
H8 H -0.4693 -0.2503 0.0639
C10 C -0.6032(2) -0.17211(14) -0.00567(15)
H9 H -0.5871 -0.1343 0.0443
C11 C -0.70517(19) -0.15502(13) -0.09539(15)
H10 H -0.7511 -0.1078 -0.0993
C12 C -0.73198(18) -0.20674(13) -0.17088(14)
H11 H -0.7957 -0.1962 -0.2268
C13 C -0.65899(16) -0.27844(12) -0.16191(13)
C14 C -0.68364(18) -0.33430(13) -0.23889(14)
C15 C -0.6132(2) -0.40459(14) -0.22439(15)
H12 H -0.6304 -0.4434 -0.2734
C16 C -0.51181(19) -0.42131(14) -0.13481(15)
H13 H -0.4665 -0.4689 -0.1305
C17 C -0.7884(2) -0.32466(14) -0.33874(15)
C18 C -0.86066(18) -0.23935(13) -0.48494(14)
C19 C -0.96139(19) -0.28907(15) -0.54515(15)
H14 H -0.9842 -0.3355 -0.5186
C20 C -1.0244(2) -0.26938(16) -0.64093(15)
H15 H -1.0880 -0.3019 -0.6773
C21 C -0.8961(2) -0.15648(14) -0.62199(15)
H16 H -0.8751 -0.1110 -0.6512
C22 C -0.8294(2) -0.17125(13) -0.52558(14)
H17 H -0.7673 -0.1367 -0.4911
C23 C 0.20800(17) -0.63877(13) 0.41846(13)
C24 C 0.28204(16) -0.65727(11) 0.52385(13)
C25 C 0.38368(16) -0.60775(11) 0.58082(13)
H18 H 0.4011 -0.5602 0.5530
C26 C 0.45850(16) -0.62707(11) 0.67644(13)
C27 C 0.57574(17) -0.57754(12) 0.73414(13)
C28 C 0.42922(16) -0.69548(11) 0.71665(13)
H19 H 0.4733 -0.7102 0.7793
C29 C 0.32808(16) -0.74558(11) 0.66045(13)
C30 C 0.30144(17) -0.82111(11) 0.70347(13)
C31 C 0.25515(16) -0.72637(11) 0.56399(13)
H20 H 0.1916 -0.7601 0.5301
Zn1B Zn 0.738666(18) -0.449424(12) 0.723393(14)
Zn1C Zn 0.261334(18) -0.949424(12) 0.776607(14)
O3C O 0.23078(13) -0.62302(9) 0.14932(10)
O4C O 0.34867(17) -0.67061(9) 0.29190(10)
O6B O 0.41185(12) -0.48690(8) 0.30792(10)
loop_
_geom_bond_atom_site_label_1
_geom_bond_atom_site_label_2
_geom_bond_site_symmetry_1
_geom_bond_site_symmetry_2
Zn1 O1 1_555 1_555
O1 C23 1_555 1_555
N1 Zn1 1_555 1_555
C1 N1 1_555 1_555
H1 C1 1_555 1_555
O2 C23 1_555 1_555
N2 H2 1_555 1_555
C2 C1 1_555 1_555
H3 C2 1_555 1_555
O3 C30 1_555 1_555
N3 H4 1_555 1_555
C3 C2 1_555 1_555
O4 C30 1_555 1_555
N4 H5 1_555 1_555
C4 C3 1_555 1_555
H6 C4 1_555 1_555
O5 C27 1_555 1_555
C5 N1 1_555 1_555
H7 C5 1_555 1_555
O6 C27 1_555 1_555
C6 N3 1_555 1_555
O7 C6 1_555 1_555
C7 C6 1_555 1_555
O8 C17 1_555 1_555
C8 C7 1_555 1_555
C9 C8 1_555 1_555
H8 C9 1_555 1_555
C10 C9 1_555 1_555
H9 C10 1_555 1_555
C11 C10 1_555 1_555
H10 C11 1_555 1_555
C12 C11 1_555 1_555
H11 C12 1_555 1_555
C13 C8 1_555 1_555
C14 C13 1_555 1_555
C15 C14 1_555 1_555
H12 C15 1_555 1_555
C16 C7 1_555 1_555
H13 C16 1_555 1_555
C17 N4 1_555 1_555
C18 N4 1_555 1_555
C19 C18 1_555 1_555
H14 C19 1_555 1_555
C20 N2 1_555 1_555
H15 C20 1_555 1_555
C21 N2 1_555 1_555
H16 C21 1_555 1_555
C22 C18 1_555 1_555
H17 C22 1_555 1_555
C23 C24 1_555 1_555
C24 C25 1_555 1_555
C25 H18 1_555 1_555
C26 C25 1_555 1_555
C27 C26 1_555 1_555
C28 C26 1_555 1_555
H19 C28 1_555 1_555
C29 C28 1_555 1_555
C30 C29 1_555 1_555
C31 C24 1_555 1_555
H20 C31 1_555 1_555
Zn1B O6 1_555 1_555
Zn1C O3 1_555 1_555
O3C Zn1 1_555 1_555
O4C Zn1 1_555 1_555
O6B Zn1 1_555 1_555
N3 C3 1_555 1_555
O4 Zn1C 1_555 1_555
C4 C5 1_555 1_555
C12 C13 1_555 1_555
C14 C17 1_555 1_555
C15 C16 1_555 1_555
C19 C20 1_555 1_555
C21 C22 1_555 1_555
C29 C31 1_555 1_555

#END
