
#######################################################################
#
#                 Cambridge Crystallographic Data Centre
#                                CCDC 
#
#######################################################################
#
# If this CIF has been generated from an entry in the Cambridge 
# Structural Database, then it will include bibliographic, chemical, 
# crystal, experimental, refinement or atomic coordinate data resulting 
# from the CCDC's data processing and validation procedures.
#
#######################################################################

data_YOSFES
_symmetry_cell_setting           tetragonal
_symmetry_space_group_name_H-M   'I 41'
_symmetry_Int_Tables_number      80
_space_group_name_Hall           'I 4bw'
loop_
_symmetry_equiv_pos_site_id
_symmetry_equiv_pos_as_xyz
1 x,y,z
2 1/2-x,1/2-y,1/2+z
3 -y,1/2+x,1/4+z
4 1/2+y,-x,3/4+z
5 1/2+x,1/2+y,1/2+z
6 -x,-y,z
7 1/2-y,x,3/4+z
8 y,1/2-x,1/4+z
_cell_length_a                   12.0788(3)
_cell_length_b                   12.0788(3)
_cell_length_c                   13.4674(6)
_cell_angle_alpha                90
_cell_angle_beta                 90
_cell_angle_gamma                90
_cell_volume                     1964.86
loop_
_atom_site_label
_atom_site_type_symbol
_atom_site_fract_x
_atom_site_fract_y
_atom_site_fract_z
Ag1 Ag 0.22789(3) 0.22791(3) 0.24574(4)
Mn1 Mn 0.5000 0.0000 0.49589(8)
N1 N 0.6318(2) 0.1321(2) 0.4960(4)
C1 C 0.7400(3) 0.1065(4) 0.5013(4)
H1 H 0.7604 0.0323 0.5040
C2 C 0.6062(4) 0.2399(3) 0.4897(4)
H2 H 0.5320 0.2602 0.4855
C3 C 0.6857(5) 0.3217(4) 0.4892(6)
H3 H 0.6642 0.3955 0.4852
C4 C 0.8220(4) 0.1858(5) 0.5028(6)
H4 H 0.8956 0.1645 0.5093
C5 C 0.7959(4) 0.2962(5) 0.4947(6)
N2 N 0.3954(3) 0.0830(3) 0.3772(3)
N3 N 0.5830(4) -0.1049(3) 0.6143(3)
C6 C 0.8845(7) 0.3844(7) 0.4961(9)
H5 H 0.8560 0.4512 0.4670
H6 H 0.9475 0.3595 0.4587
H7 H 0.9064 0.3987 0.5634
C7 C 0.3332(4) 0.1255(4) 0.3265(4)
C8 C 0.6251(4) -0.1672(4) 0.6656(4)
Ag1E Ag 0.77211(3) -0.22791(3) 0.24574(4)
Ag1D Ag 0.72789(3) -0.27209(3) 0.74574(4)
Ag1A Ag 0.27211(3) 0.27209(3) 0.74574(4)
N1E N 0.3682(2) -0.1321(2) 0.4960(4)
C1E C 0.2600(3) -0.1065(4) 0.5013(4)
H1E H 0.2396 -0.0323 0.5040
C2E C 0.3938(4) -0.2399(3) 0.4897(4)
H2E H 0.4680 -0.2602 0.4855
C3E C 0.3143(5) -0.3217(4) 0.4892(6)
H3E H 0.3358 -0.3955 0.4852
C4E C 0.1780(4) -0.1858(5) 0.5028(6)
H4E H 0.1044 -0.1645 0.5093
C5E C 0.2041(4) -0.2962(5) 0.4947(6)
N2E N 0.6046(3) -0.0830(3) 0.3772(3)
N3E N 0.4170(4) 0.1049(3) 0.6143(3)
C6E C 0.1155(7) -0.3844(7) 0.4961(9)
H5E H 0.1440 -0.4512 0.4670
H6E H 0.0525 -0.3595 0.4587
H7E H 0.0936 -0.3987 0.5634
C7E C 0.6668(4) -0.1255(4) 0.3265(4)
C8E C 0.3749(4) 0.1672(4) 0.6656(4)
C8D C 0.1251(4) 0.3328(4) 0.1656(4)
C8A C 0.8749(4) -0.3328(4) 0.1656(4)
loop_
_geom_bond_atom_site_label_1
_geom_bond_atom_site_label_2
_geom_bond_site_symmetry_1
_geom_bond_site_symmetry_2
Ag1 C7 1_555 1_555
Mn1 N1 1_555 1_555
N1 C1 1_555 1_555
C1 H1 1_555 1_555
C2 N1 1_555 1_555
H2 C2 1_555 1_555
C3 C2 1_555 1_555
H3 C3 1_555 1_555
C4 C1 1_555 1_555
H4 C4 1_555 1_555
C5 C3 1_555 1_555
N2 Mn1 1_555 1_555
N3 Mn1 1_555 1_555
C6 C5 1_555 1_555
H5 C6 1_555 1_555
H6 C6 1_555 1_555
H7 C6 1_555 1_555
C7 N2 1_555 1_555
C8 N3 1_555 1_555
Ag1E C7E 1_555 1_555
Ag1D C8 1_555 1_555
Ag1A C8E 1_555 1_555
N1E Mn1 1_555 1_555
C1E N1E 1_555 1_555
H1E C1E 1_555 1_555
C2E N1E 1_555 1_555
H2E C2E 1_555 1_555
C3E C2E 1_555 1_555
H3E C3E 1_555 1_555
C4E C1E 1_555 1_555
H4E C4E 1_555 1_555
C5E C3E 1_555 1_555
N2E Mn1 1_555 1_555
N3E Mn1 1_555 1_555
C6E C5E 1_555 1_555
H5E C6E 1_555 1_555
H6E C6E 1_555 1_555
H7E C6E 1_555 1_555
C7E N2E 1_555 1_555
C8E N3E 1_555 1_555
C8D Ag1 1_555 1_555
C8A Ag1E 1_555 1_555
C4 C5 1_555 1_555
C4E C5E 1_555 1_555

#END
