
#######################################################################
#
#                 Cambridge Crystallographic Data Centre
#                                CCDC 
#
#######################################################################
#
# If this CIF has been generated from an entry in the Cambridge 
# Structural Database, then it will include bibliographic, chemical, 
# crystal, experimental, refinement or atomic coordinate data resulting 
# from the CCDC's data processing and validation procedures.
#
#######################################################################

data_YOSLOJ
_symmetry_cell_setting           monoclinic
_symmetry_space_group_name_H-M   'C 2/c'
_symmetry_Int_Tables_number      15
_space_group_name_Hall           '-C 2yn'
loop_
_symmetry_equiv_pos_site_id
_symmetry_equiv_pos_as_xyz
1 x,y,z
2 -x,y,1/2-z
3 1/2+x,1/2+y,z
4 1/2-x,1/2+y,1/2-z
5 -x,-y,-z
6 x,-y,1/2+z
7 1/2-x,1/2-y,-z
8 1/2+x,1/2-y,1/2+z
_cell_length_a                   27.413(4)
_cell_length_b                   10.0478(16)
_cell_length_c                   20.669(3)
_cell_angle_alpha                90
_cell_angle_beta                 105.821(3)
_cell_angle_gamma                90
_cell_volume                     5477.41
loop_
_atom_site_label
_atom_site_type_symbol
_atom_site_fract_x
_atom_site_fract_y
_atom_site_fract_z
Cu1 Cu -0.092418(15) 0.10345(4) 0.103348(19)
O1 O -0.08810(9) 0.2729(2) 0.14591(12)
N1 N -0.02286(10) 0.1150(3) 0.08931(13)
C1 C -0.01613(14) 0.1633(3) 0.03178(16)
H1 H -0.0433 0.2029 0.0008
N2 N 0.33128(11) -0.6024(3) 0.57367(14)
C2 C 0.02979(15) 0.1558(4) 0.01758(17)
H2 H 0.0332 0.1883 -0.0231
O2 O -0.10751(12) 0.4022(3) 0.05581(13)
N3 N 0.10235(10) -0.0172(3) 0.17217(14)
H3 H 0.1035 -0.0023 0.2135
O3 O -0.09156(8) 0.9039(2) 0.09803(11)
C3 C 0.07107(14) 0.1000(4) 0.06354(17)
H4 H 0.1027 0.0974 0.0551
O4 O -0.07427(9) 0.9727(2) 0.20253(11)
N4 N 0.23160(11) -0.4515(3) 0.43671(15)
H5 H 0.2000 -0.4682 0.4190
C4 C 0.06412(13) 0.0482(3) 0.12244(16)
O5 O -0.02710(11) 0.6582(3) 0.39089(12)
C5 C 0.01659(13) 0.0591(3) 0.13351(16)
H6 H 0.0120 0.0259 0.1735
O6 O -0.03904(12) 0.4416(3) 0.37171(13)
C6 C 0.13753(14) -0.1021(4) 0.15972(19)
O7 O 0.14481(12) -0.1174(3) 0.10448(14)
C7 C 0.16696(12) -0.1759(4) 0.22151(17)
C8 C 0.18606(14) -0.1054(4) 0.27975(19)
H7 H 0.1807 -0.0140 0.2800
O8 O 0.29576(13) -0.3192(4) 0.4286(2)
C9 C 0.21327(14) -0.1682(4) 0.33850(19)
H8 H 0.2268 -0.1178 0.3770
C10 C 0.22032(13) -0.3030(4) 0.34043(18)
C11 C 0.20108(13) -0.3809(4) 0.28151(19)
C12 C 0.20828(16) -0.5212(4) 0.2807(2)
H9 H 0.2259 -0.5644 0.3199
C13 C 0.18995(17) -0.5921(4) 0.2241(3)
H10 H 0.1947 -0.6838 0.2248
C14 C 0.16378(16) -0.5298(5) 0.1643(2)
H11 H 0.1512 -0.5804 0.1257
C15 C 0.15655(14) -0.3958(4) 0.1621(2)
H12 H 0.1394 -0.3558 0.1217
C16 C 0.17468(12) -0.3159(4) 0.22029(18)
C17 C 0.25299(15) -0.3586(4) 0.4055(2)
C18 C 0.25569(13) -0.5235(4) 0.49517(18)
C19 C 0.22656(14) -0.5952(4) 0.5283(2)
H13 H 0.1914 -0.5925 0.5135
C20 C 0.25056(14) -0.6704(4) 0.58321(19)
H14 H 0.2316 -0.7191 0.6060
C21 C 0.30251(13) -0.6737(4) 0.60455(18)
H15 H 0.3183 -0.7266 0.6412
C22 C 0.30844(13) -0.5292(4) 0.52019(17)
H16 H 0.3283 -0.4803 0.4988
C23 C -0.09401(12) 0.3852(3) 0.11740(17)
C24 C -0.08288(11) 0.5024(3) 0.16464(16)
C25 C -0.06659(12) 0.4796(3) 0.23373(16)
H17 H -0.0637 0.3929 0.2502
C26 C -0.05472(12) 0.5853(3) 0.27767(16)
C27 C -0.03827(13) 0.5666(4) 0.35253(18)
C28 C -0.05864(12) 0.7142(3) 0.25290(16)
H18 H -0.0496 0.7852 0.2826
C29 C -0.07579(11) 0.7386(3) 0.18451(15)
C30 C -0.08096(12) 0.8796(3) 0.16044(16)
C31 C -0.08803(12) 0.6318(3) 0.14025(16)
H19 H -0.0997 0.6472 0.0942
Cu1_2 Cu -0.092418(15) 1.10345(4) 0.103348(19)
Cu1G Cu 0.407582(15) -0.60345(4) 0.603348(19)
N2G N -0.16872(11) 0.1024(3) 0.07367(14)
O3_2 O -0.09156(8) -0.0961(2) 0.09803(11)
O4_2 O -0.07427(9) -0.0273(2) 0.20253(11)
O9 O -0.05084(18) 0.5560(5) -0.00582(17)
H20 H -0.0667 0.5502 0.0241
H21 H -0.0609 0.4929 -0.0336
loop_
_geom_bond_atom_site_label_1
_geom_bond_atom_site_label_2
_geom_bond_site_symmetry_1
_geom_bond_site_symmetry_2
Cu1 O1 1_555 1_555
O1 C23 1_555 1_555
N1 Cu1 1_555 1_555
C1 N1 1_555 1_555
H1 C1 1_555 1_555
N2 C21 1_555 1_555
C2 C1 1_555 1_555
H2 C2 1_555 1_555
O2 C23 1_555 1_555
N3 H3 1_555 1_555
O3 C30 1_555 1_555
C3 C2 1_555 1_555
H4 C3 1_555 1_555
O4 C30 1_555 1_555
N4 H5 1_555 1_555
C4 N3 1_555 1_555
O5 C27 1_555 1_555
C5 N1 1_555 1_555
H6 C5 1_555 1_555
O6 C27 1_555 1_555
C6 N3 1_555 1_555
O7 C6 1_555 1_555
C7 C6 1_555 1_555
C8 C7 1_555 1_555
H7 C8 1_555 1_555
O8 C17 1_555 1_555
C9 C8 1_555 1_555
H8 C9 1_555 1_555
C10 C9 1_555 1_555
C11 C10 1_555 1_555
C12 C11 1_555 1_555
H9 C12 1_555 1_555
C13 C12 1_555 1_555
H10 C13 1_555 1_555
C14 C13 1_555 1_555
H11 C14 1_555 1_555
C15 C14 1_555 1_555
H12 C15 1_555 1_555
C16 C7 1_555 1_555
C17 N4 1_555 1_555
C18 N4 1_555 1_555
C19 C18 1_555 1_555
H13 C19 1_555 1_555
C20 C19 1_555 1_555
H14 C20 1_555 1_555
C21 C20 1_555 1_555
H15 C21 1_555 1_555
C22 N2 1_555 1_555
H16 C22 1_555 1_555
C23 C24 1_555 1_555
C24 C25 1_555 1_555
C25 H17 1_555 1_555
C26 C25 1_555 1_555
C27 C26 1_555 1_555
C28 C26 1_555 1_555
H18 C28 1_555 1_555
C29 C28 1_555 1_555
C30 C29 1_555 1_555
C31 C24 1_555 1_555
H19 C31 1_555 1_555
O9 H20 1_555 1_555
H21 O9 1_555 1_555
Cu1_2 O3 1_555 1_555
Cu1G N2 1_555 1_555
N2G Cu1 1_555 1_555
O3_2 Cu1 1_555 1_555
O4_2 Cu1 1_555 1_555
C3 C4 1_555 1_555
O4 Cu1_2 1_555 1_555
C4 C5 1_555 1_555
C10 C17 1_555 1_555
C11 C16 1_555 1_555
C15 C16 1_555 1_555
C18 C22 1_555 1_555
C29 C31 1_555 1_555

#END
