
#######################################################################
#
#                 Cambridge Crystallographic Data Centre
#                                CCDC 
#
#######################################################################
#
# If this CIF has been generated from an entry in the Cambridge 
# Structural Database, then it will include bibliographic, chemical, 
# crystal, experimental, refinement or atomic coordinate data resulting 
# from the CCDC's data processing and validation procedures.
#
#######################################################################

data_YOSLEZ
_symmetry_cell_setting           monoclinic
_symmetry_space_group_name_H-M   'C 2/c'
_symmetry_Int_Tables_number      15
_space_group_name_Hall           '-C 2yn'
loop_
_symmetry_equiv_pos_site_id
_symmetry_equiv_pos_as_xyz
1 x,y,z
2 -x,y,1/2-z
3 1/2+x,1/2+y,z
4 1/2-x,1/2+y,1/2-z
5 -x,-y,-z
6 x,-y,1/2+z
7 1/2-x,1/2-y,-z
8 1/2+x,1/2-y,1/2+z
_cell_length_a                   27.913(2)
_cell_length_b                   9.7024(7)
_cell_length_c                   22.8070(16)
_cell_angle_alpha                90
_cell_angle_beta                 109.5180(10)
_cell_angle_gamma                90
_cell_volume                     5821.73
loop_
_atom_site_label
_atom_site_type_symbol
_atom_site_fract_x
_atom_site_fract_y
_atom_site_fract_z
Co1 Co 0.395779(13) 0.01648(3) 0.108360(15)
N1 N 0.41914(9) 0.0399(2) 0.03291(11)
O1 O 0.40077(12) -0.2128(3) 0.10246(13)
C1 C 0.44982(12) 0.1439(3) 0.02995(14)
H1 H 0.4618 0.2039 0.0635
N2 N 0.18187(9) -0.5003(2) -0.56956(11)
C2 C 0.46392(15) 0.1636(4) -0.02133(16)
H2 H 0.4853 0.2365 -0.0223
O2 O 0.40902(16) -0.1106(3) 0.18771(13)
N3 N 0.39776(8) -0.1196(2) -0.12059(10)
H3 H 0.4066 -0.0988 -0.1522
O3 O 0.49232(8) -0.3828(2) 0.38334(9)
C3 C 0.44672(13) 0.0763(3) -0.07142(14)
H4 H 0.4559 0.0901 -0.1066
O4 O 0.47432(9) -0.6060(2) 0.38294(9)
C4 C 0.41538(10) -0.0328(3) -0.06875(12)
N4 N 0.27892(9) -0.4093(3) -0.42115(11)
H5 H 0.3068 -0.3634 -0.4127
O5 O 0.43395(9) -0.8369(2) 0.16926(9)
C5 C 0.40260(10) -0.0472(3) -0.01497(12)
H6 H 0.3818 -0.1201 -0.0124
O6 O 0.37413(8) -0.7270(3) 0.09711(11)
C6 C 0.36808(10) -0.2336(3) -0.12620(12)
O7 O 0.35936(8) -0.2844(2) -0.08170(9)
C7 C 0.34510(9) -0.2895(3) -0.19079(12)
C8 C 0.33395(9) -0.4345(3) -0.20101(12)
O8 O 0.21682(9) -0.4787(3) -0.38459(11)
C9 C 0.34987(11) -0.5350(3) -0.15345(14)
H7 H 0.3680 -0.5075 -0.1130
C10 C 0.33912(13) -0.6714(3) -0.16569(16)
H8 H 0.3500 -0.7355 -0.1336
C11 C 0.31190(13) -0.7156(4) -0.22610(18)
H9 H 0.3046 -0.8087 -0.2341
C12 C 0.29615(12) -0.6226(3) -0.27288(16)
H10 H 0.2781 -0.6528 -0.3129
C13 C 0.30659(10) -0.4803(3) -0.26221(13)
C14 C 0.29130(10) -0.3826(3) -0.31176(13)
C15 C 0.30409(11) -0.2465(3) -0.30083(13)
H11 H 0.2952 -0.1841 -0.3336
C16 C 0.33070(11) -0.2008(3) -0.23998(13)
H12 H 0.3387 -0.1078 -0.2332
C17 C 0.25848(11) -0.4274(4) -0.37549(13)
C18 C 0.25668(11) -0.4623(4) -0.48210(13)
C19 C 0.28441(13) -0.5340(5) -0.51061(19)
H13 H 0.3192 -0.5453 -0.4911
C20 C 0.26069(14) -0.5902(6) -0.56882(19)
H14 H 0.2793 -0.6392 -0.5889
C21 C 0.20984(12) -0.5728(4) -0.59615(15)
H15 H 0.1938 -0.6128 -0.6348
C22 C 0.20551(10) -0.4446(3) -0.51371(12)
H16 H 0.1866 -0.3916 -0.4954
C23 C 0.40976(11) -0.2169(4) 0.15927(17)
C24 C 0.42005(10) -0.3535(3) 0.19232(12)
C25 C 0.44025(9) -0.3599(3) 0.25669(12)
H17 H 0.4470 -0.2792 0.2801
C26 C 0.45043(9) -0.4872(2) 0.28615(12)
C27 C 0.47304(10) -0.4985(3) 0.35516(12)
C28 C 0.44102(9) -0.6072(3) 0.25154(11)
H18 H 0.4484 -0.6922 0.2714
C29 C 0.42058(9) -0.6008(3) 0.18724(12)
C30 C 0.40877(11) -0.7285(3) 0.14874(13)
C31 C 0.41015(10) -0.4741(3) 0.15819(12)
H19 H 0.3963 -0.4699 0.1151
Co1_2 Co 0.395779(13) -0.98352(3) 0.108360(15)
Co1C Co 0.104221(13) -0.48352(3) -0.608360(15)
N2C N 0.31813(9) -0.0003(2) 0.06956(11)
O5_2 O 0.43395(9) 0.1631(2) 0.16926(9)
O9 O 0.45700(10) 0.0338(2) 0.30135(10)
H20 H 0.4336 -0.0135 0.2758
H21 H 0.4789 0.0523 0.2841
O10 O 0.55096(11) -0.4221(3) 0.50108(12)
H22 H 0.5760 -0.4325 0.5344
H23 H 0.5491 -0.3372 0.4915
loop_
_geom_bond_atom_site_label_1
_geom_bond_atom_site_label_2
_geom_bond_site_symmetry_1
_geom_bond_site_symmetry_2
Co1 N1 1_555 1_555
N1 C1 1_555 1_555
O1 Co1 1_555 1_555
C1 H1 1_555 1_555
N2 C21 1_555 1_555
C2 C1 1_555 1_555
H2 C2 1_555 1_555
O2 Co1 1_555 1_555
N3 H3 1_555 1_555
O3 C27 1_555 1_555
C3 C2 1_555 1_555
H4 C3 1_555 1_555
O4 C27 1_555 1_555
C4 N3 1_555 1_555
N4 H5 1_555 1_555
O5 C30 1_555 1_555
C5 N1 1_555 1_555
H6 C5 1_555 1_555
O6 C30 1_555 1_555
C6 N3 1_555 1_555
O7 C6 1_555 1_555
C7 C6 1_555 1_555
C8 C7 1_555 1_555
O8 C17 1_555 1_555
C9 C8 1_555 1_555
H7 C9 1_555 1_555
C10 C9 1_555 1_555
H8 C10 1_555 1_555
C11 C10 1_555 1_555
H9 C11 1_555 1_555
C12 C11 1_555 1_555
H10 C12 1_555 1_555
C13 C8 1_555 1_555
C14 C13 1_555 1_555
C15 C14 1_555 1_555
H11 C15 1_555 1_555
C16 C7 1_555 1_555
H12 C16 1_555 1_555
C17 N4 1_555 1_555
C18 N4 1_555 1_555
C19 C18 1_555 1_555
H13 C19 1_555 1_555
C20 C19 1_555 1_555
H14 C20 1_555 1_555
C21 C20 1_555 1_555
H15 C21 1_555 1_555
C22 N2 1_555 1_555
H16 C22 1_555 1_555
C23 O1 1_555 1_555
C24 C23 1_555 1_555
C25 C24 1_555 1_555
H17 C25 1_555 1_555
C26 C25 1_555 1_555
C27 C26 1_555 1_555
C28 C26 1_555 1_555
H18 C28 1_555 1_555
C29 C28 1_555 1_555
C30 C29 1_555 1_555
C31 C24 1_555 1_555
H19 C31 1_555 1_555
O9 H20 1_555 1_555
H21 O9 1_555 1_555
O10 H22 1_555 1_555
H23 O10 1_555 1_555
Co1_2 O5 1_555 1_555
Co1C N2 1_555 1_555
N2C Co1 1_555 1_555
O5_2 Co1 1_555 1_555
O2 C23 1_555 1_555
C3 C4 1_555 1_555
C4 C5 1_555 1_555
C12 C13 1_555 1_555
C14 C17 1_555 1_555
C15 C16 1_555 1_555
C18 C22 1_555 1_555
C29 C31 1_555 1_555

#END
