
#######################################################################
#
#                 Cambridge Crystallographic Data Centre
#                                CCDC 
#
#######################################################################
#
# If this CIF has been generated from an entry in the Cambridge 
# Structural Database, then it will include bibliographic, chemical, 
# crystal, experimental, refinement or atomic coordinate data resulting 
# from the CCDC's data processing and validation procedures.
#
#######################################################################

data_YOSLIB
_symmetry_cell_setting           orthorhombic
_symmetry_space_group_name_H-M   'P n a 21'
_symmetry_Int_Tables_number      33
_space_group_name_Hall           'P 2c -2n'
loop_
_symmetry_equiv_pos_site_id
_symmetry_equiv_pos_as_xyz
1 x,y,z
2 -x,-y,1/2+z
3 1/2-x,1/2+y,1/2+z
4 1/2+x,1/2-y,z
_cell_length_a                   7.028(2)
_cell_length_b                   11.510(3)
_cell_length_c                   6.949(2)
_cell_angle_alpha                90
_cell_angle_beta                 90
_cell_angle_gamma                90
_cell_volume                     562.12
loop_
_atom_site_label
_atom_site_type_symbol
_atom_site_fract_x
_atom_site_fract_y
_atom_site_fract_z
Ag1 Ag 0.41524(6) 0.59441(3) -0.5000
N1 N 0.1104(6) 0.2469(3) -0.1888(5)
N2 N 0.2186(6) 0.4465(3) -0.3847(5)
O1 O 0.3423(7) 0.2349(3) -0.7379(5)
O2 O 0.3825(7) 0.4289(3) -0.7389(5)
C1 C 0.0900(8) 0.3517(4) -0.1112(6)
C2 C 0.1429(9) 0.4515(4) -0.2091(7)
C3 C 0.2368(6) 0.3415(3) -0.4668(5)
C4 C 0.1819(7) 0.2417(4) -0.3678(6)
C5 C 0.3285(7) 0.3323(4) -0.6659(6)
O2A O 0.6175(7) 0.5711(3) -0.2389(5)
Ag1A Ag 0.58476(6) 0.40559(3) -1.0000
N1B N 0.3896(6) 0.7469(3) -0.6888(5)
Ag1B Ag 0.08476(6) 0.09441(3) 0.0000
loop_
_geom_bond_atom_site_label_1
_geom_bond_atom_site_label_2
_geom_bond_site_symmetry_1
_geom_bond_site_symmetry_2
Ag1 N2 1_555 1_555
N1 C1 1_555 1_555
N2 C2 1_555 1_555
O1 C5 1_555 1_555
O2 Ag1 1_555 1_555
C1 C2 1_555 1_555
C3 N2 1_555 1_555
C4 N1 1_555 1_555
C5 O2 1_555 1_555
O2A Ag1 1_555 1_555
Ag1A O2 1_555 1_555
N1B Ag1 1_555 1_555
Ag1B N1 1_555 1_555
C3 C4 1_555 1_555
C3 C5 1_555 1_555

#END
