
#######################################################################
#
#                 Cambridge Crystallographic Data Centre
#                                CCDC 
#
#######################################################################
#
# If this CIF has been generated from an entry in the Cambridge 
# Structural Database, then it will include bibliographic, chemical, 
# crystal, experimental, refinement or atomic coordinate data resulting 
# from the CCDC's data processing and validation procedures.
#
#######################################################################

data_YOSLIB02
_symmetry_cell_setting           orthorhombic
_symmetry_space_group_name_H-M   'P n a 21'
_symmetry_Int_Tables_number      33
_space_group_name_Hall           'P 2c -2n'
loop_
_symmetry_equiv_pos_site_id
_symmetry_equiv_pos_as_xyz
1 x,y,z
2 -x,-y,1/2+z
3 1/2-x,1/2+y,1/2+z
4 1/2+x,1/2-y,z
_cell_length_a                   7.0178(19)
_cell_length_b                   11.496(3)
_cell_length_c                   6.9372(19)
_cell_angle_alpha                90
_cell_angle_beta                 90
_cell_angle_gamma                90
_cell_volume                     559.67
loop_
_atom_site_label
_atom_site_type_symbol
_atom_site_fract_x
_atom_site_fract_y
_atom_site_fract_z
Ag1 Ag 0.41523(3) 0.594397(16) 0.81125(8)
N1 N 0.7813(4) 0.5537(2) 0.2003(3)
N2 N 0.8899(4) 0.7531(2) 0.0046(4)
C1 C 0.7632(3) 0.6588(2) 0.2817(4)
C2 C 0.8180(4) 0.7577(2) 0.1830(4)
H1 H 0.8045 0.8297 0.2424
C3 C 0.9120(4) 0.6481(3) -0.0739(4)
H2 H 0.9649 0.6413 -0.1962
C4 C 0.8568(5) 0.5491(3) 0.0251(5)
H3 H 0.8732 0.4769 -0.0331
C5 C 0.6718(4) 0.6672(2) 0.4807(4)
O1 O 0.6575(4) 0.76507(19) 0.5514(4)
O2 O 0.6183(4) 0.5721(2) 0.5530(4)
Ag1A Ag 0.58477(3) 0.405603(16) 0.31125(8)
Ag1C Ag 0.91523(3) 0.905603(16) -0.18875(8)
N1A N 0.2187(4) 0.4463(2) 0.7003(3)
N2C N 0.3899(4) 0.7469(2) 1.0046(4)
O2A O 0.3817(4) 0.4279(2) 1.0530(4)
loop_
_geom_bond_atom_site_label_1
_geom_bond_atom_site_label_2
_geom_bond_site_symmetry_1
_geom_bond_site_symmetry_2
Ag1 O2 1_555 1_555
N1 C1 1_555 1_555
N2 C2 1_555 1_555
C1 C2 1_555 1_555
C2 H1 1_555 1_555
C3 N2 1_555 1_555
H2 C3 1_555 1_555
C4 N1 1_555 1_555
H3 C4 1_555 1_555
C5 C1 1_555 1_555
O1 C5 1_555 1_555
O2 C5 1_555 1_555
Ag1A N1 1_555 1_555
Ag1C N2 1_555 1_555
N1A Ag1 1_555 1_555
N2C Ag1 1_555 1_555
O2A Ag1 1_555 1_555
C3 C4 1_555 1_555
O2 Ag1A 1_555 1_555

#END
