
#######################################################################
#
#                 Cambridge Crystallographic Data Centre
#                                CCDC 
#
#######################################################################
#
# If this CIF has been generated from an entry in the Cambridge 
# Structural Database, then it will include bibliographic, chemical, 
# crystal, experimental, refinement or atomic coordinate data resulting 
# from the CCDC's data processing and validation procedures.
#
#######################################################################

data_YOSLIB01
_symmetry_cell_setting           orthorhombic
_symmetry_space_group_name_H-M   'P 21 n b'
_symmetry_Int_Tables_number      33
_space_group_name_Hall           'P -2bc 2a'
loop_
_symmetry_equiv_pos_site_id
_symmetry_equiv_pos_as_xyz
1 x,y,z
2 x,1/2+y,1/2-z
3 1/2+x,-y,-z
4 1/2+x,1/2-y,1/2+z
_cell_length_a                   6.954(2)
_cell_length_b                   7.041(2)
_cell_length_c                   11.527(2)
_cell_angle_alpha                90
_cell_angle_beta                 90
_cell_angle_gamma                90
_cell_volume                     564.398
loop_
_atom_site_label
_atom_site_type_symbol
_atom_site_fract_x
_atom_site_fract_y
_atom_site_fract_z
C1 C 0.5222(9) 0.2629(8) 0.6579(5)
C2 C 0.6206(9) 0.3182(9) 0.7570(5)
H1 H 0.5613 0.3047 0.8288
C3 C 0.8765(10) 0.4105(8) 0.6487(7)
H2 H 0.9994 0.4616 0.6426
C4 C 0.7793(11) 0.3573(10) 0.5490(7)
H3 H 0.8382 0.3744 0.4773
C5 C 0.3233(11) 0.1731(9) 0.6671(6)
N1 N 0.6029(9) 0.2819(8) 0.5533(5)
N2 N 0.7980(9) 0.3902(9) 0.7522(5)
O1 O 0.2530(7) 0.1579(8) 0.7654(4)
O2 O 0.2504(8) 0.1187(7) 0.5718(5)
Ag1 Ag 0.49161(18) 0.08459(7) 0.40556(4)
Ag1C Ag 0.99161(18) 0.41541(7) 0.90556(4)
Ag1B Ag -0.00839(18) -0.08459(7) 0.59444(4)
N2C N 0.2980(9) 0.1098(9) 0.2522(5)
O2B O 0.7504(8) -0.1187(7) 0.4282(5)
loop_
_geom_bond_atom_site_label_1
_geom_bond_atom_site_label_2
_geom_bond_site_symmetry_1
_geom_bond_site_symmetry_2
C1 C2 1_555 1_555
C2 H1 1_555 1_555
C3 H2 1_555 1_555
C4 C3 1_555 1_555
H3 C4 1_555 1_555
C5 C1 1_555 1_555
N1 C1 1_555 1_555
N2 C2 1_555 1_555
O1 C5 1_555 1_555
O2 C5 1_555 1_555
Ag1 N1 1_555 1_555
Ag1C N2 1_555 1_555
Ag1B O2 1_555 1_555
N2C Ag1 1_555 1_555
O2B Ag1 1_555 1_555
C3 N2 1_555 1_555
C4 N1 1_555 1_555
O2 Ag1 1_555 1_555

#END
