
#######################################################################
#
#                 Cambridge Crystallographic Data Centre
#                                CCDC 
#
#######################################################################
#
# If this CIF has been generated from an entry in the Cambridge 
# Structural Database, then it will include bibliographic, chemical, 
# crystal, experimental, refinement or atomic coordinate data resulting 
# from the CCDC's data processing and validation procedures.
#
#######################################################################

data_YOSLOH
_symmetry_cell_setting           monoclinic
_symmetry_space_group_name_H-M   'P 21/c'
_symmetry_Int_Tables_number      14
_space_group_name_Hall           '-P 2ybc'
loop_
_symmetry_equiv_pos_site_id
_symmetry_equiv_pos_as_xyz
1 x,y,z
2 -x,1/2+y,1/2-z
3 -x,-y,-z
4 x,1/2-y,1/2+z
_cell_length_a                   7.775(2)
_cell_length_b                   16.455(2)
_cell_length_c                   7.174(1)
_cell_angle_alpha                90
_cell_angle_beta                 115.21(1)
_cell_angle_gamma                90
_cell_volume                     830.404
loop_
_atom_site_label
_atom_site_type_symbol
_atom_site_fract_x
_atom_site_fract_y
_atom_site_fract_z
Ag1 Ag 0.72039(5) -0.09910(2) 0.14444(6)
Ag2 Ag -0.01178(6) -0.36980(3) -0.57365(8)
N1 N 0.5119(5) -0.1881(2) -0.0834(6)
O1 O 0.2580(5) -0.0403(2) -0.1190(6)
O2 O 0.4036(6) -0.0277(3) -0.3246(7)
N2 N 0.2341(5) -0.2930(2) -0.3418(6)
O3 O -0.0857(6) -0.2310(3) -0.6516(7)
O4 O 0.0088(6) -0.1072(3) -0.5515(8)
C1 C 0.5363(6) -0.2685(3) -0.0661(7)
C2 C 0.3967(6) -0.3210(3) -0.1935(7)
C3 C 0.2088(5) -0.2121(3) -0.3620(6)
C4 C 0.3491(5) -0.1594(2) -0.2297(6)
C5 C 0.0292(6) -0.1812(3) -0.5348(7)
C6 C 0.3312(6) -0.0678(3) -0.2305(7)
N3 N -0.1878(7) -0.4701(3) -0.7431(7)
N1B N 0.4881(5) 0.1881(2) 0.0834(6)
O1B O 0.7420(5) 0.0403(2) 0.1190(6)
O2B O 0.5964(6) 0.0277(3) 0.3246(7)
N2B N 0.7659(5) 0.2930(2) 0.3418(6)
O3B O 1.0857(6) 0.2310(3) 0.6516(7)
O4B O 0.9912(6) 0.1072(3) 0.5515(8)
C1B C 0.4637(6) 0.2685(3) 0.0661(7)
C2B C 0.6033(6) 0.3210(3) 0.1935(7)
C3B C 0.7912(5) 0.2121(3) 0.3620(6)
C4B C 0.6509(5) 0.1594(2) 0.2297(6)
C5B C 0.9708(6) 0.1812(3) 0.5348(7)
C6B C 0.6688(6) 0.0678(3) 0.2305(7)
O4_2 O 1.0088(6) -0.1072(3) 0.4485(8)
Ag1B Ag 0.27961(5) 0.09910(2) -0.14444(6)
Ag1B_2 Ag 1.27961(5) 0.09910(2) 0.85556(6)
Ag1_2 Ag -0.27961(5) -0.09910(2) -0.85556(6)
Ag2B Ag 1.01178(6) 0.36980(3) 0.57365(8)
O4B_2 O -0.0088(6) 0.1072(3) -0.4485(8)
N3B N 1.1878(7) 0.4701(3) 0.7431(7)
loop_
_geom_bond_atom_site_label_1
_geom_bond_atom_site_label_2
_geom_bond_site_symmetry_1
_geom_bond_site_symmetry_2
Ag1 N1 1_555 1_555
Ag2 N2 1_555 1_555
N1 C1 1_555 1_555
O1 C6 1_555 1_555
O2 C6 1_555 1_555
N2 C2 1_555 1_555
O3 Ag2 1_555 1_555
O4 C5 1_555 1_555
C1 C2 1_555 1_555
C3 N2 1_555 1_555
C4 N1 1_555 1_555
C5 O3 1_555 1_555
C6 C4 1_555 1_555
N3 Ag2 1_555 1_555
N1B C1B 1_555 1_555
O1B Ag1 1_555 1_555
O2B C6B 1_555 1_555
N2B C2B 1_555 1_555
O3B C5B 1_555 1_555
O4B C5B 1_555 1_555
C1B C2B 1_555 1_555
C3B N2B 1_555 1_555
C4B N1B 1_555 1_555
C5B C3B 1_555 1_555
C6B O1B 1_555 1_555
O4_2 Ag1 1_555 1_555
Ag1B O1 1_555 1_555
Ag1B_2 O4B 1_555 1_555
Ag1_2 O4 1_555 1_555
Ag2B N2B 1_555 1_555
O4B_2 Ag1B 1_555 1_555
N3B Ag2B 1_555 1_555
C3 C4 1_555 1_555
C3 C5 1_555 1_555
N1B Ag1B 1_555 1_555
O3B Ag2B 1_555 1_555
C3B C4B 1_555 1_555
C4B C6B 1_555 1_555

#END
