
#######################################################################
#
#                 Cambridge Crystallographic Data Centre
#                                CCDC 
#
#######################################################################
#
# If this CIF has been generated from an entry in the Cambridge 
# Structural Database, then it will include bibliographic, chemical, 
# crystal, experimental, refinement or atomic coordinate data resulting 
# from the CCDC's data processing and validation procedures.
#
#######################################################################

data_YOSMEA
_symmetry_cell_setting           triclinic
_symmetry_space_group_name_H-M   'P -1'
_symmetry_Int_Tables_number      2
_space_group_name_Hall           '-P 1'
loop_
_symmetry_equiv_pos_site_id
_symmetry_equiv_pos_as_xyz
1 x,y,z
2 -x,-y,-z
_cell_length_a                   10.0522(16)
_cell_length_b                   11.4431(18)
_cell_length_c                   15.205(2)
_cell_angle_alpha                96.493(3)
_cell_angle_beta                 102.803(3)
_cell_angle_gamma                105.101(2)
_cell_volume                     1619.3
loop_
_atom_site_label
_atom_site_type_symbol
_atom_site_fract_x
_atom_site_fract_y
_atom_site_fract_z
Co1 Co 0.40212(3) 0.11698(3) 0.54724(2)
N1 N 0.4130(2) 0.0150(2) 0.65701(16)
O1 O 0.1955(2) 0.11733(19) 0.55189(16)
C1 C 0.3307(3) -0.1000(3) 0.6473(2)
H1 H 0.2661 -0.1359 0.5907
O2 O 0.3562(2) 0.28161(19) 0.63768(14)
N2 N 0.4171(3) -0.7704(2) 1.44354(16)
C2 C 0.3352(4) -0.1684(3) 0.7153(2)
H2 H 0.2756 -0.2486 0.7045
O3 O 0.1905(2) 0.5988(2) 0.80031(17)
N3 N 0.4256(3) -0.1881(2) 0.87009(17)
H3 H 0.3562 -0.2550 0.8576
C3 C 0.4292(3) -0.1173(3) 0.80047(19)
O4 O -0.0363(3) 0.5948(2) 0.74625(18)
N4 N 0.4514(3) -0.5277(2) 1.25605(17)
H4 H 0.5130 -0.4568 1.2784
C4 C 0.5185(4) 0.0007(3) 0.8114(2)
H5 H 0.5864 0.0377 0.8666
O5 O -0.38620(19) 0.19672(17) 0.59708(13)
C5 C 0.5050(4) 0.0619(3) 0.7393(2)
H6 H 0.5641 0.1421 0.7481
O6 O -0.3157(2) 0.03725(17) 0.55070(13)
C6 C 0.5174(4) -0.1644(3) 0.9542(2)
O7 O 0.6280(3) -0.0808(2) 0.97894(18)
C7 C 0.4763(4) -0.2563(3) 1.0145(2)
O8 O 0.2872(4) -0.6413(2) 1.12557(17)
C8 C 0.3385(4) -0.2886(3) 1.0313(2)
C9 C 0.2319(4) -0.2326(3) 1.0008(2)
H7 H 0.2501 -0.1710 0.9663
C10 C 0.1034(5) -0.2657(4) 1.0203(3)
H8 H 0.0353 -0.2268 0.9991
C11 C 0.0727(6) -0.3581(4) 1.0722(3)
H9 H -0.0156 -0.3808 1.0851
C12 C 0.1719(5) -0.4142(4) 1.1032(3)
H10 H 0.1505 -0.4753 1.1377
C13 C 0.3072(4) -0.3827(3) 1.0848(2)
C14 C 0.4157(4) -0.4372(3) 1.1201(2)
C15 C 0.5478(4) -0.3995(3) 1.1062(2)
H11 H 0.6177 -0.4345 1.1316
C16 C 0.5792(4) -0.3074(3) 1.0536(2)
H12 H 0.6704 -0.2809 1.0452
C17 C 0.3766(4) -0.5466(3) 1.1661(2)
C18 C 0.4368(3) -0.6134(3) 1.3154(2)
C19 C 0.3387(4) -0.7289(3) 1.2930(2)
H13 H 0.2771 -0.7566 1.2345
C20 C 0.3331(3) -0.8024(3) 1.3582(2)
H14 H 0.2662 -0.8798 1.3418
C21 C 0.5149(4) -0.6594(3) 1.4638(2)
H15 H 0.5771 -0.6350 1.5222
C22 C 0.5277(4) -0.5796(3) 1.4022(2)
H16 H 0.5973 -0.5036 1.4194
C23 C 0.2290(3) 0.2183(3) 0.60632(19)
C24 C 0.1108(3) 0.2606(2) 0.63099(19)
C25 C -0.0300(3) 0.1855(3) 0.60141(19)
H17 H -0.0504 0.1066 0.5683
C26 C -0.1396(3) 0.2266(2) 0.62057(17)
C27 C -0.2918(3) 0.1466(2) 0.58672(17)
C28 C -0.1094(3) 0.3450(2) 0.66948(19)
H18 H -0.1833 0.3742 0.6807
C29 C 0.0303(3) 0.4192(2) 0.70146(19)
C30 C 0.0695(3) 0.5466(3) 0.7546(2)
C31 C 0.1401(3) 0.3761(3) 0.68273(19)
H19 H 0.2341 0.4255 0.7052
Co1_2 Co -0.59788(3) 0.11698(3) 0.54724(2)
Co1_3 Co 0.40212(3) -0.88302(3) 1.54724(2)
Co1A Co -0.40212(3) -0.11698(3) 0.45276(2)
N2_2 N 0.4171(3) 0.2296(2) 0.44354(16)
O5_2 O 0.61380(19) 0.19672(17) 0.59708(13)
O6A O 0.3157(2) -0.03725(17) 0.44930(13)
O9 O 0.0341(4) 0.8317(3) 0.7992(2)
H20 H 0.0220 0.7719 0.7567
H21 H 0.0510 0.8974 0.7771
O10 O -0.0150(5) 0.0908(5) 0.3722(3)
H22 H -0.0824 0.0348 0.3811
H23 H 0.0523 0.1129 0.4212
O11 O -0.1122(9) 0.9313(8) 0.9187(6)
H24 H -0.1858 0.8771 0.9225
H25 H -0.0695 0.8959 0.8867
O12 O 0.118(2) 1.0349(15) 0.898(2)
H26 H 0.0640 1.0528 0.9293
H27 H 0.1980 1.0415 0.9346
loop_
_geom_bond_atom_site_label_1
_geom_bond_atom_site_label_2
_geom_bond_site_symmetry_1
_geom_bond_site_symmetry_2
Co1 N1 1_555 1_555
N1 C1 1_555 1_555
O1 Co1 1_555 1_555
C1 H1 1_555 1_555
O2 Co1 1_555 1_555
N2 C20 1_555 1_555
C2 C1 1_555 1_555
H2 C2 1_555 1_555
O3 C30 1_555 1_555
N3 H3 1_555 1_555
C3 C2 1_555 1_555
O4 C30 1_555 1_555
N4 H4 1_555 1_555
C4 C3 1_555 1_555
H5 C4 1_555 1_555
O5 C27 1_555 1_555
C5 N1 1_555 1_555
H6 C5 1_555 1_555
O6 C27 1_555 1_555
C6 N3 1_555 1_555
O7 C6 1_555 1_555
C7 C6 1_555 1_555
O8 C17 1_555 1_555
C8 C7 1_555 1_555
C9 C8 1_555 1_555
H7 C9 1_555 1_555
C10 C9 1_555 1_555
H8 C10 1_555 1_555
C11 C10 1_555 1_555
H9 C11 1_555 1_555
C12 C11 1_555 1_555
H10 C12 1_555 1_555
C13 C8 1_555 1_555
C14 C13 1_555 1_555
C15 C14 1_555 1_555
H11 C15 1_555 1_555
C16 C7 1_555 1_555
H12 C16 1_555 1_555
C17 N4 1_555 1_555
C18 N4 1_555 1_555
C19 C18 1_555 1_555
H13 C19 1_555 1_555
C20 C19 1_555 1_555
H14 C20 1_555 1_555
C21 N2 1_555 1_555
H15 C21 1_555 1_555
C22 C18 1_555 1_555
H16 C22 1_555 1_555
C23 O1 1_555 1_555
C24 C23 1_555 1_555
C25 C24 1_555 1_555
H17 C25 1_555 1_555
C26 C25 1_555 1_555
C27 C26 1_555 1_555
C28 C26 1_555 1_555
H18 C28 1_555 1_555
C29 C28 1_555 1_555
C30 C29 1_555 1_555
C31 C24 1_555 1_555
H19 C31 1_555 1_555
O9 H20 1_555 1_555
H21 O9 1_555 1_555
O10 H22 1_555 1_555
H23 O10 1_555 1_555
O11 H24 1_555 1_555
H25 O11 1_555 1_555
O12 H26 1_555 1_555
H27 O12 1_555 1_555
Co1_2 O5 1_555 1_555
Co1_3 N2 1_555 1_555
Co1A O6 1_555 1_555
N2_2 Co1 1_555 1_555
O5_2 Co1 1_555 1_555
O6A Co1 1_555 1_555
O2 C23 1_555 1_555
N3 C3 1_555 1_555
C4 C5 1_555 1_555
C12 C13 1_555 1_555
C14 C17 1_555 1_555
C15 C16 1_555 1_555
C21 C22 1_555 1_555
C29 C31 1_555 1_555

#END
