
#######################################################################
#
#                 Cambridge Crystallographic Data Centre
#                                CCDC 
#
#######################################################################
#
# If this CIF has been generated from an entry in the Cambridge 
# Structural Database, then it will include bibliographic, chemical, 
# crystal, experimental, refinement or atomic coordinate data resulting 
# from the CCDC's data processing and validation procedures.
#
#######################################################################

data_YOSPAZ
_symmetry_cell_setting           orthorhombic
_symmetry_space_group_name_H-M   'P b c n'
_symmetry_Int_Tables_number      60
_space_group_name_Hall           '-P 2n 2ab'
loop_
_symmetry_equiv_pos_site_id
_symmetry_equiv_pos_as_xyz
1 x,y,z
2 1/2-x,1/2-y,1/2+z
3 1/2+x,1/2-y,-z
4 -x,y,1/2-z
5 -x,-y,-z
6 1/2+x,1/2+y,1/2-z
7 1/2-x,1/2+y,z
8 x,-y,1/2+z
_cell_length_a                   8.640(3)
_cell_length_b                   29.627(4)
_cell_length_c                   7.859(3)
_cell_angle_alpha                90
_cell_angle_beta                 90
_cell_angle_gamma                90
_cell_volume                     2011.73
loop_
_atom_site_label
_atom_site_type_symbol
_atom_site_fract_x
_atom_site_fract_y
_atom_site_fract_z
Sr1 Sr 0.0000 0.25667(3) 0.7500
Sr2 Sr 0.5000 0.26601(3) 0.7500
P1 P 0.2654(2) 0.19145(6) 0.8931(2)
O1 O 0.2591(6) 0.21082(18) 0.7127(6)
O2 O 0.1105(6) 0.19996(18) 0.9812(7)
O3 O 0.4040(6) 0.21062(17) 0.9862(7)
O4 O 0.7627(6) 0.30655(19) 0.6196(7)
C1 C 0.3846(9) 0.1086(2) 0.9932(9)
H1 H 0.4416 0.1251 1.0721
C2 C 0.2884(7) 0.13075(14) 0.8788(8)
C3 C 0.2032(9) 0.1061(2) 0.7609(9)
H2 H 0.1388 0.1210 0.6843
C4 C 0.2143(11) 0.0593(2) 0.7574(12)
H3 H 0.1573 0.0429 0.6786
C5 C 0.3106(11) 0.03716(14) 0.8719(14)
H4 H 0.3180 0.0058 0.8695
C6 C 0.3957(11) 0.0618(2) 0.9898(12)
H5 H 0.4601 0.0469 1.0663
P1C P -0.2654(2) 0.19145(6) 0.6069(2)
O1C O -0.2591(6) 0.21082(18) 0.7873(6)
O2C O -0.1105(6) 0.19996(18) 0.5188(7)
O3C O -0.4040(6) 0.21062(17) 0.5138(7)
C1C C -0.3846(9) 0.1086(2) 0.5068(9)
H1C H -0.4416 0.1251 0.4279
C2C C -0.2884(7) 0.13075(14) 0.6212(8)
C3C C -0.2032(9) 0.1061(2) 0.7391(9)
H2C H -0.1388 0.1210 0.8157
C4C C -0.2143(11) 0.0593(2) 0.7426(12)
H3C H -0.1573 0.0429 0.8214
C5C C -0.3106(11) 0.03716(14) 0.6281(14)
H4C H -0.3180 0.0058 0.6305
C6C C -0.3957(11) 0.0618(2) 0.5102(12)
H5C H -0.4601 0.0469 0.4337
O4C O 0.2373(6) 0.30655(19) 0.8804(7)
Sr1_2 Sr 1.0000 0.25667(3) 0.7500
Sr1A Sr -0.5000 0.24333(3) 0.2500
Sr1A_2 Sr 0.5000 0.24333(3) 1.2500
Sr2_2 Sr -0.5000 0.26601(3) 0.7500
Sr2A Sr 0.0000 0.23399(3) 0.2500
Sr2A_2 Sr 0.0000 0.23399(3) 1.2500
O1C_2 O 0.7409(6) 0.21082(18) 0.7873(6)
O2A O 0.3895(6) 0.30004(18) 0.4812(7)
O2B O 0.6105(6) 0.30004(18) 1.0188(7)
O3A O 0.0960(6) 0.28938(17) 0.4862(7)
O3B O -0.0960(6) 0.28938(17) 1.0138(7)
O3C_2 O 0.5960(6) 0.21062(17) 0.5138(7)
O4_2 O -0.2373(6) 0.30655(19) 0.6196(7)
loop_
_geom_bond_atom_site_label_1
_geom_bond_atom_site_label_2
_geom_bond_site_symmetry_1
_geom_bond_site_symmetry_2
Sr1 O1 1_555 1_555
Sr2 O1 1_555 1_555
P1 O1 1_555 1_555
O2 Sr1 1_555 1_555
O3 Sr2 1_555 1_555
O4 Sr2 1_555 1_555
C1 H1 1_555 1_555
C2 P1 1_555 1_555
C3 C2 1_555 1_555
H2 C3 1_555 1_555
C4 C3 1_555 1_555
H3 C4 1_555 1_555
C5 C4 1_555 1_555
H4 C5 1_555 1_555
C6 C1 1_555 1_555
H5 C6 1_555 1_555
P1C O1C 1_555 1_555
O1C Sr1 1_555 1_555
O2C Sr1 1_555 1_555
O3C P1C 1_555 1_555
C1C H1C 1_555 1_555
C2C P1C 1_555 1_555
C3C C2C 1_555 1_555
H2C C3C 1_555 1_555
C4C C3C 1_555 1_555
H3C C4C 1_555 1_555
C5C C4C 1_555 1_555
H4C C5C 1_555 1_555
C6C C1C 1_555 1_555
H5C C6C 1_555 1_555
O4C Sr1 1_555 1_555
Sr1_2 O4 1_555 1_555
Sr1A O3C 1_555 1_555
Sr1A_2 O3 1_555 1_555
Sr2_2 O1C 1_555 1_555
Sr2A O2C 1_555 1_555
Sr2A_2 O2 1_555 1_555
O1C_2 Sr2 1_555 1_555
O2A Sr2 1_555 1_555
O2B Sr2 1_555 1_555
O3A Sr1 1_555 1_555
O3B Sr1 1_555 1_555
O3C_2 Sr2 1_555 1_555
O4_2 Sr1 1_555 1_555
Sr2 O4C 1_555 1_555
P1 O2 1_555 1_555
P1 O3 1_555 1_555
C1 C2 1_555 1_555
C5 C6 1_555 1_555
P1C O2C 1_555 1_555
O3C Sr2_2 1_555 1_555
C1C C2C 1_555 1_555
C5C C6C 1_555 1_555
Sr1_2 O1C_2 1_555 1_555
Sr1A_2 O2B 1_555 1_555
Sr2_2 O4_2 1_555 1_555
Sr2A O3A 1_555 1_555
Sr2A_2 O3B 1_555 1_555

#END
