
#######################################################################
#
#                 Cambridge Crystallographic Data Centre
#                                CCDC 
#
#######################################################################
#
# If this CIF has been generated from an entry in the Cambridge 
# Structural Database, then it will include bibliographic, chemical, 
# crystal, experimental, refinement or atomic coordinate data resulting 
# from the CCDC's data processing and validation procedures.
#
#######################################################################

data_YOSVIM
_symmetry_cell_setting           monoclinic
_symmetry_space_group_name_H-M   'P 21/c'
_symmetry_Int_Tables_number      14
_space_group_name_Hall           '-P 2ybc'
loop_
_symmetry_equiv_pos_site_id
_symmetry_equiv_pos_as_xyz
1 x,y,z
2 -x,1/2+y,1/2-z
3 -x,-y,-z
4 x,1/2-y,1/2+z
_cell_length_a                   6.499(4)
_cell_length_b                   21.722(14)
_cell_length_c                   12.674(9)
_cell_angle_alpha                90
_cell_angle_beta                 98.758(16)
_cell_angle_gamma                90
_cell_volume                     1768.34
loop_
_atom_site_label
_atom_site_type_symbol
_atom_site_fract_x
_atom_site_fract_y
_atom_site_fract_z
C1 C -0.6576(6) -0.43093(19) -0.3639(3)
C2 C -0.5396(6) -0.48655(18) -0.1872(3)
C3 C -0.2575(6) -0.46368(19) -0.3292(3)
C4 C -0.3355(6) -0.33923(18) -0.3139(3)
C5 C -0.7737(6) -0.33026(17) -0.2052(3)
H1 H -0.8483 -0.3444 -0.2690
C6 C -0.8570(6) -0.28492(16) -0.1562(3)
H2 H -0.9857 -0.2688 -0.1855
C7 C -0.7556(5) -0.26209(17) -0.0641(3)
C8 C -0.5642(6) -0.28647(18) -0.0267(3)
H3 H -0.4897 -0.2712 0.0363
C9 C -0.4790(6) -0.33292(17) -0.0799(3)
C10 C -0.2778(5) -0.36223(16) -0.0467(3)
C11 C -0.1494(5) -0.34951(16) 0.0469(3)
H4 H -0.1879 -0.3203 0.0938
C12 C 0.0375(5) -0.38040(16) 0.0710(3)
C13 C 0.0897(6) -0.42127(16) -0.0009(3)
H5 H 0.2170 -0.4416 0.0120
C14 C -0.0466(6) -0.43288(17) -0.0939(3)
H6 H -0.0113 -0.4626 -0.1407
C15 C -0.8371(6) -0.20845(18) -0.0089(3)
H7 H -0.9274 -0.1843 -0.0600
H8 H -0.7228 -0.1835 0.0234
H9 H -0.9135 -0.2231 0.0452
C16 C 0.1736(6) -0.36972(16) 0.1717(3)
H10 H 0.0930 -0.3705 0.2292
H11 H 0.2396 -0.3303 0.1698
H12 H 0.2780 -0.4013 0.1826
C17 C -0.6431(6) -0.61721(17) -0.3906(3)
H13 H -0.5405 -0.5888 -0.4083
H14 H -0.6751 -0.6466 -0.4472
H15 H -0.5896 -0.6383 -0.3256
Cu1 Cu -1.0000 -0.5000 -0.5000
Fe1 Fe -0.43178(8) -0.41484(2) -0.24715(4)
N1 N -0.7823(5) -0.44623(15) -0.4302(3)
N2 N -0.6137(5) -0.52615(16) -0.1502(3)
N3 N -0.1686(5) -0.48437(15) -0.3816(2)
N4 N -0.2702(5) -0.29823(15) -0.3468(2)
N5 N -0.5957(5) -0.35685(14) -0.1716(2)
N6 N -0.2242(4) -0.40337(14) -0.1183(2)
O1 O -0.8218(4) -0.58546(11) -0.37725(18)
H16 H -0.7821 -0.5467 -0.3438
C1B C -1.3424(6) -0.56907(19) -0.6361(3)
C2B C -1.4604(6) -0.51345(18) -0.8128(3)
C3B C -1.7425(6) -0.53632(19) -0.6708(3)
C4B C -1.6645(6) -0.66077(18) -0.6861(3)
C5B C -1.2263(6) -0.66974(17) -0.7948(3)
H1B H -1.1517 -0.6556 -0.7310
C6B C -1.1430(6) -0.71508(16) -0.8438(3)
H2B H -1.0143 -0.7312 -0.8145
C7B C -1.2444(5) -0.73791(17) -0.9359(3)
C8B C -1.4358(6) -0.71353(18) -0.9733(3)
H3B H -1.5103 -0.7288 -1.0363
C9B C -1.5210(6) -0.66708(17) -0.9201(3)
C10B C -1.7222(5) -0.63777(16) -0.9533(3)
C11B C -1.8506(5) -0.65049(16) -1.0469(3)
H4B H -1.8121 -0.6797 -1.0938
C12B C -2.0375(5) -0.61960(16) -1.0710(3)
C13B C -2.0897(6) -0.57873(16) -0.9991(3)
H5B H -2.2170 -0.5584 -1.0120
C14B C -1.9534(6) -0.56712(17) -0.9061(3)
H6B H -1.9887 -0.5374 -0.8593
C15B C -1.1629(6) -0.79155(18) -0.9911(3)
H7B H -1.0726 -0.8157 -0.9400
H8B H -1.2772 -0.8165 -1.0234
H9B H -1.0865 -0.7769 -1.0452
C16B C -2.1736(6) -0.63028(16) -1.1717(3)
H10B H -2.0930 -0.6295 -1.2292
H11B H -2.2396 -0.6697 -1.1698
H12B H -2.2780 -0.5987 -1.1826
C17B C -1.3569(6) -0.38279(17) -0.6094(3)
H13B H -1.4595 -0.4112 -0.5917
H14B H -1.3249 -0.3534 -0.5528
H15B H -1.4104 -0.3617 -0.6744
Cu1_2 Cu 0.0000 -0.5000 -0.5000
Cu1_3 Cu -2.0000 -0.5000 -0.5000
Fe1B Fe -1.56822(8) -0.58516(2) -0.75285(4)
N1B N -1.2177(5) -0.55377(15) -0.5698(3)
N2B N -1.3863(5) -0.47385(16) -0.8498(3)
N3B N -0.8314(5) -0.51563(15) -0.6184(2)
N3_2 N -1.1686(5) -0.48437(15) -0.3816(2)
N3B_2 N -1.8314(5) -0.51563(15) -0.6184(2)
N4B N -1.7298(5) -0.70177(15) -0.6532(2)
N5B N -1.4043(5) -0.64315(14) -0.8284(2)
N6B N -1.7758(4) -0.59663(14) -0.8817(2)
O1B O -1.1782(4) -0.41454(11) -0.62275(18)
H16B H -1.2179 -0.4533 -0.6562
loop_
_geom_bond_atom_site_label_1
_geom_bond_atom_site_label_2
_geom_bond_site_symmetry_1
_geom_bond_site_symmetry_2
C1 Fe1 1_555 1_555
C2 Fe1 1_555 1_555
C3 Fe1 1_555 1_555
C4 Fe1 1_555 1_555
C5 H1 1_555 1_555
C6 C5 1_555 1_555
H2 C6 1_555 1_555
C7 C6 1_555 1_555
C8 C7 1_555 1_555
H3 C8 1_555 1_555
C9 C8 1_555 1_555
C10 C9 1_555 1_555
C11 C10 1_555 1_555
H4 C11 1_555 1_555
C12 C11 1_555 1_555
C13 C12 1_555 1_555
H5 C13 1_555 1_555
C14 C13 1_555 1_555
H6 C14 1_555 1_555
C15 C7 1_555 1_555
H7 C15 1_555 1_555
H8 C15 1_555 1_555
H9 C15 1_555 1_555
C16 C12 1_555 1_555
H10 C16 1_555 1_555
H11 C16 1_555 1_555
H12 C16 1_555 1_555
C17 H13 1_555 1_555
H14 C17 1_555 1_555
H15 C17 1_555 1_555
Cu1 N1 1_555 1_555
Fe1 N5 1_555 1_555
N1 C1 1_555 1_555
N2 C2 1_555 1_555
N3 C3 1_555 1_555
N4 C4 1_555 1_555
N5 C5 1_555 1_555
N6 C10 1_555 1_555
O1 C17 1_555 1_555
H16 O1 1_555 1_555
C1B Fe1B 1_555 1_555
C2B Fe1B 1_555 1_555
C3B Fe1B 1_555 1_555
C4B Fe1B 1_555 1_555
C5B H1B 1_555 1_555
C6B C5B 1_555 1_555
H2B C6B 1_555 1_555
C7B C6B 1_555 1_555
C8B C7B 1_555 1_555
H3B C8B 1_555 1_555
C9B C8B 1_555 1_555
C10B C9B 1_555 1_555
C11B C10B 1_555 1_555
H4B C11B 1_555 1_555
C12B C11B 1_555 1_555
C13B C12B 1_555 1_555
H5B C13B 1_555 1_555
C14B C13B 1_555 1_555
H6B C14B 1_555 1_555
C15B C7B 1_555 1_555
H7B C15B 1_555 1_555
H8B C15B 1_555 1_555
H9B C15B 1_555 1_555
C16B C12B 1_555 1_555
H10B C16B 1_555 1_555
H11B C16B 1_555 1_555
H12B C16B 1_555 1_555
C17B H13B 1_555 1_555
H14B C17B 1_555 1_555
H15B C17B 1_555 1_555
Cu1_2 N3 1_555 1_555
Cu1_3 N3B_2 1_555 1_555
Fe1B N5B 1_555 1_555
N1B Cu1 1_555 1_555
N2B C2B 1_555 1_555
N3B Cu1 1_555 1_555
N3_2 Cu1 1_555 1_555
N3B_2 C3B 1_555 1_555
N4B C4B 1_555 1_555
N5B C5B 1_555 1_555
N6B C10B 1_555 1_555
O1B Cu1 1_555 1_555
H16B O1B 1_555 1_555
C9 N5 1_555 1_555
C14 N6 1_555 1_555
Cu1 O1 1_555 1_555
Fe1 N6 1_555 1_555
C1B N1B 1_555 1_555
C9B N5B 1_555 1_555
C14B N6B 1_555 1_555
C17B O1B 1_555 1_555
Fe1B N6B 1_555 1_555

#END
