
#######################################################################
#
#                 Cambridge Crystallographic Data Centre
#                                CCDC 
#
#######################################################################
#
# If this CIF has been generated from an entry in the Cambridge 
# Structural Database, then it will include bibliographic, chemical, 
# crystal, experimental, refinement or atomic coordinate data resulting 
# from the CCDC's data processing and validation procedures.
#
#######################################################################

data_YOSVOS
_symmetry_cell_setting           monoclinic
_symmetry_space_group_name_H-M   'P 21/c'
_symmetry_Int_Tables_number      14
_space_group_name_Hall           '-P 2ybc'
loop_
_symmetry_equiv_pos_site_id
_symmetry_equiv_pos_as_xyz
1 x,y,z
2 -x,1/2+y,1/2-z
3 -x,-y,-z
4 x,1/2-y,1/2+z
_cell_length_a                   6.5490(15)
_cell_length_b                   21.723(5)
_cell_length_c                   12.884(3)
_cell_angle_alpha                90
_cell_angle_beta                 98.691(5)
_cell_angle_gamma                90
_cell_volume                     1811.88
loop_
_atom_site_label
_atom_site_type_symbol
_atom_site_fract_x
_atom_site_fract_y
_atom_site_fract_z
C1 C 0.6257(7) -0.4305(2) 0.3530(4)
C2 C 0.3096(7) -0.3470(2) 0.3089(4)
C3 C 0.2509(6) -0.4677(2) 0.3098(3)
C4 C 0.5363(7) -0.4865(2) 0.1719(4)
C5 C 0.0282(6) -0.43187(19) 0.0821(4)
H1 H -0.0100 -0.4614 0.1277
C6 C -0.1020(7) -0.4206(2) -0.0062(4)
H2 H -0.2276 -0.4412 -0.0191
C7 C -0.0508(7) -0.3781(2) -0.0786(4)
C8 C 0.1392(7) -0.3481(2) -0.0508(4)
H3 H 0.1799 -0.3186 -0.0957
C9 C 0.2638(6) -0.36105(18) 0.0391(3)
C10 C 0.4693(7) -0.33280(18) 0.0753(3)
C11 C 0.5470(7) -0.2849(2) 0.0221(3)
H4 H 0.4716 -0.2694 -0.0394
C12 C 0.7383(7) -0.2602(2) 0.0614(4)
C13 C 0.8445(7) -0.2856(2) 0.1487(4)
H5 H 0.9759 -0.2712 0.1749
C14 C 0.7598(7) -0.3328(2) 0.1995(4)
H6 H 0.8341 -0.3490 0.2606
C15 C -0.1850(8) -0.3644(2) -0.1791(4)
H7 H -0.1836 -0.3209 -0.1924
H8 H -0.3236 -0.3774 -0.1749
H9 H -0.1346 -0.3860 -0.2351
C16 C 0.8208(9) -0.2071(2) 0.0048(4)
H10 H 0.9100 -0.1824 0.0542
H11 H 0.7077 -0.1824 -0.0283
H12 H 0.8970 -0.2226 -0.0476
C17 C 0.6613(7) -0.6054(2) 0.4001(4)
H13 H 0.6433 -0.6078 0.3249
H14 H 0.6612 -0.6461 0.4289
H15 H 0.5503 -0.5820 0.4213
Fe1 Fe 0.41614(9) -0.41640(3) 0.23548(5)
Mn1 Mn 1.0000 -0.5000 0.5000
N1 N 0.7543(6) -0.44258(18) 0.4209(3)
N2 N 0.2479(7) -0.3062(2) 0.3479(4)
N3 N 0.1528(6) -0.49430(18) 0.3594(3)
N4 N 0.6143(6) -0.52693(18) 0.1398(3)
N5 N 0.2123(5) -0.40314(14) 0.1096(3)
N6 N 0.5718(5) -0.35622(15) 0.1629(3)
O1 O 0.8253(5) -0.58031(15) 0.4321(3)
H16 H 0.8204 -0.5436 0.4546
C1B C 1.3743(7) -0.5695(2) 0.6470(4)
C2B C 1.6904(7) -0.6530(2) 0.6911(4)
C3B C 1.7491(6) -0.5323(2) 0.6902(3)
C4B C 1.4637(7) -0.5135(2) 0.8281(4)
C5B C 1.9718(6) -0.56813(19) 0.9179(4)
H1B H 2.0100 -0.5386 0.8723
C6B C 2.1020(7) -0.5794(2) 1.0062(4)
H2B H 2.2276 -0.5588 1.0191
C7B C 2.0508(7) -0.6219(2) 1.0786(4)
C8B C 1.8608(7) -0.6519(2) 1.0508(4)
H3B H 1.8201 -0.6814 1.0957
C9B C 1.7362(6) -0.63895(18) 0.9609(3)
C10B C 1.5307(7) -0.66720(18) 0.9247(3)
C11B C 1.4530(7) -0.7151(2) 0.9779(3)
H4B H 1.5284 -0.7306 1.0394
C12B C 1.2617(7) -0.7398(2) 0.9386(4)
C13B C 1.1555(7) -0.7144(2) 0.8513(4)
H5B H 1.0241 -0.7288 0.8251
C14B C 1.2402(7) -0.6672(2) 0.8005(4)
H6B H 1.1659 -0.6510 0.7394
C15B C 2.1850(8) -0.6356(2) 1.1791(4)
H7B H 2.1836 -0.6791 1.1924
H8B H 2.3236 -0.6226 1.1749
H9B H 2.1346 -0.6140 1.2351
C16B C 1.1792(9) -0.7929(2) 0.9952(4)
H10B H 1.0900 -0.8176 0.9458
H11B H 1.2923 -0.8176 1.0283
H12B H 1.1030 -0.7774 1.0476
C17B C 1.3387(7) -0.3946(2) 0.5999(4)
H13B H 1.3567 -0.3922 0.6751
H14B H 1.3388 -0.3539 0.5711
H15B H 1.4497 -0.4180 0.5787
Fe1B Fe 1.58386(9) -0.58360(3) 0.76452(5)
Mn1_2 Mn 0.0000 -0.5000 0.5000
Mn1_3 Mn 2.0000 -0.5000 0.5000
N1B N 1.2457(6) -0.55742(18) 0.5791(3)
N2B N 1.7521(7) -0.6938(2) 0.6521(4)
N3B N 0.8472(6) -0.50570(18) 0.6406(3)
N3_2 N 1.1528(6) -0.49430(18) 0.3594(3)
N3B_2 N 1.8472(6) -0.50570(18) 0.6406(3)
N4B N 1.3857(6) -0.47307(18) 0.8602(3)
N5B N 1.7877(5) -0.59686(14) 0.8904(3)
N6B N 1.4282(5) -0.64378(15) 0.8371(3)
O1B O 1.1747(5) -0.41969(15) 0.5679(3)
H16B H 1.1796 -0.4564 0.5454
loop_
_geom_bond_atom_site_label_1
_geom_bond_atom_site_label_2
_geom_bond_site_symmetry_1
_geom_bond_site_symmetry_2
C1 Fe1 1_555 1_555
C2 Fe1 1_555 1_555
C3 Fe1 1_555 1_555
C4 Fe1 1_555 1_555
C5 H1 1_555 1_555
C6 C5 1_555 1_555
H2 C6 1_555 1_555
C7 C6 1_555 1_555
C8 C7 1_555 1_555
H3 C8 1_555 1_555
C9 C8 1_555 1_555
C10 C9 1_555 1_555
C11 C10 1_555 1_555
H4 C11 1_555 1_555
C12 C11 1_555 1_555
C13 C12 1_555 1_555
H5 C13 1_555 1_555
C14 C13 1_555 1_555
H6 C14 1_555 1_555
C15 C7 1_555 1_555
H7 C15 1_555 1_555
H8 C15 1_555 1_555
H9 C15 1_555 1_555
C16 C12 1_555 1_555
H10 C16 1_555 1_555
H11 C16 1_555 1_555
H12 C16 1_555 1_555
C17 H13 1_555 1_555
H14 C17 1_555 1_555
H15 C17 1_555 1_555
Fe1 N5 1_555 1_555
Mn1 N1 1_555 1_555
N1 C1 1_555 1_555
N2 C2 1_555 1_555
N3 C3 1_555 1_555
N4 C4 1_555 1_555
N5 C5 1_555 1_555
N6 C10 1_555 1_555
O1 C17 1_555 1_555
H16 O1 1_555 1_555
C1B Fe1B 1_555 1_555
C2B Fe1B 1_555 1_555
C3B Fe1B 1_555 1_555
C4B Fe1B 1_555 1_555
C5B H1B 1_555 1_555
C6B C5B 1_555 1_555
H2B C6B 1_555 1_555
C7B C6B 1_555 1_555
C8B C7B 1_555 1_555
H3B C8B 1_555 1_555
C9B C8B 1_555 1_555
C10B C9B 1_555 1_555
C11B C10B 1_555 1_555
H4B C11B 1_555 1_555
C12B C11B 1_555 1_555
C13B C12B 1_555 1_555
H5B C13B 1_555 1_555
C14B C13B 1_555 1_555
H6B C14B 1_555 1_555
C15B C7B 1_555 1_555
H7B C15B 1_555 1_555
H8B C15B 1_555 1_555
H9B C15B 1_555 1_555
C16B C12B 1_555 1_555
H10B C16B 1_555 1_555
H11B C16B 1_555 1_555
H12B C16B 1_555 1_555
C17B H13B 1_555 1_555
H14B C17B 1_555 1_555
H15B C17B 1_555 1_555
Fe1B N5B 1_555 1_555
Mn1_2 N3 1_555 1_555
Mn1_3 N3B_2 1_555 1_555
N1B Mn1 1_555 1_555
N2B C2B 1_555 1_555
N3B Mn1 1_555 1_555
N3_2 Mn1 1_555 1_555
N3B_2 C3B 1_555 1_555
N4B C4B 1_555 1_555
N5B C5B 1_555 1_555
N6B C10B 1_555 1_555
O1B Mn1 1_555 1_555
H16B O1B 1_555 1_555
C9 N5 1_555 1_555
C14 N6 1_555 1_555
Fe1 N6 1_555 1_555
Mn1 O1 1_555 1_555
C1B N1B 1_555 1_555
C9B N5B 1_555 1_555
C14B N6B 1_555 1_555
C17B O1B 1_555 1_555
Fe1B N6B 1_555 1_555

#END
