
#######################################################################
#
#                 Cambridge Crystallographic Data Centre
#                                CCDC 
#
#######################################################################
#
# If this CIF has been generated from an entry in the Cambridge 
# Structural Database, then it will include bibliographic, chemical, 
# crystal, experimental, refinement or atomic coordinate data resulting 
# from the CCDC's data processing and validation procedures.
#
#######################################################################

data_YOSWOT
_symmetry_cell_setting           triclinic
_symmetry_space_group_name_H-M   'P -1'
_symmetry_Int_Tables_number      2
_space_group_name_Hall           '-P 1'
loop_
_symmetry_equiv_pos_site_id
_symmetry_equiv_pos_as_xyz
1 x,y,z
2 -x,-y,-z
_cell_length_a                   4.1876(7)
_cell_length_b                   9.0145(15)
_cell_length_c                   9.5813(15)
_cell_angle_alpha                76.213(13)
_cell_angle_beta                 87.578(12)
_cell_angle_gamma                83.017(13)
_cell_volume                     348.626
loop_
_atom_site_label
_atom_site_type_symbol
_atom_site_fract_x
_atom_site_fract_y
_atom_site_fract_z
C1 C 0.3280(15) 0.6332(7) 0.8153(6)
H1 H 0.2407 0.5402 0.8374
C2 C 0.3228(14) 0.7141(7) 0.9197(6)
H2 H 0.2365 0.6753 1.0102
C3 C 0.4448(11) 0.8520(6) 0.8902(5)
C4 C 0.5683(14) 0.9043(6) 0.7529(6)
H3 H 0.6503 0.9986 0.7277
C5 C 0.5682(14) 0.8153(6) 0.6543(6)
H4 H 0.6538 0.8512 0.5630
C6 C 0.4374(12) 0.9355(6) 1.0058(5)
N1 N 0.4514(10) 0.6804(5) 0.6838(4)
Br1 Br 0.96408(10) 0.69730(5) 0.32185(5)
Pb1 Pb 0.5000 0.5000 0.5000
H5 H 0.343(11) 0.889(5) 1.112(5)
C1A C 0.6720(15) 1.3668(7) 1.1847(6)
H1A H 0.7593 1.4598 1.1626
C2A C 0.6772(14) 1.2859(7) 1.0803(6)
H2A H 0.7635 1.3247 0.9898
C3A C 0.5552(11) 1.1480(6) 1.1098(5)
C4A C 0.4317(14) 1.0957(6) 1.2471(6)
H3A H 0.3497 1.0014 1.2723
C5A C 0.4318(14) 1.1847(6) 1.3457(6)
H4A H 0.3462 1.1488 1.4370
C6A C 0.5626(12) 1.0645(6) 0.9942(5)
N1A N 0.5486(10) 1.3196(5) 1.3162(4)
N1A_2 N 0.5486(10) 0.3196(5) 0.3162(4)
Br1_2 Br -0.03592(10) 0.69730(5) 0.32185(5)
Br1A Br 0.03592(10) 0.30270(5) 0.67815(5)
Br1A_2 Br 1.03592(10) 0.30270(5) 0.67815(5)
Pb1_2 Pb 1.5000 0.5000 0.5000
Pb1_3 Pb 0.5000 1.5000 1.5000
Pb1_4 Pb -0.5000 0.5000 0.5000
H5A H 0.657(11) 1.111(5) 0.888(5)
loop_
_geom_bond_atom_site_label_1
_geom_bond_atom_site_label_2
_geom_bond_site_symmetry_1
_geom_bond_site_symmetry_2
C1 H1 1_555 1_555
C2 C1 1_555 1_555
H2 C2 1_555 1_555
C3 C2 1_555 1_555
C4 C3 1_555 1_555
H3 C4 1_555 1_555
C5 C4 1_555 1_555
H4 C5 1_555 1_555
C6 C3 1_555 1_555
N1 C1 1_555 1_555
Br1 Pb1 1_555 1_555
Pb1 N1 1_555 1_555
H5 C6 1_555 1_555
C1A H1A 1_555 1_555
C2A C1A 1_555 1_555
H2A C2A 1_555 1_555
C3A C2A 1_555 1_555
C4A C3A 1_555 1_555
H3A C4A 1_555 1_555
C5A C4A 1_555 1_555
H4A C5A 1_555 1_555
C6A C6 1_555 1_555
N1A C1A 1_555 1_555
N1A_2 Pb1 1_555 1_555
Br1_2 Pb1 1_555 1_555
Br1A Pb1 1_555 1_555
Br1A_2 Pb1 1_555 1_555
Pb1_2 Br1 1_555 1_555
Pb1_3 N1A 1_555 1_555
Pb1_4 Br1_2 1_555 1_555
H5A C6A 1_555 1_555
C5 N1 1_555 1_555
C3A C6A 1_555 1_555
C5A N1A 1_555 1_555
Br1A Pb1_4 1_555 1_555
Br1A_2 Pb1_2 1_555 1_555

#END
