
#######################################################################
#
#                 Cambridge Crystallographic Data Centre
#                                CCDC 
#
#######################################################################
#
# If this CIF has been generated from an entry in the Cambridge 
# Structural Database, then it will include bibliographic, chemical, 
# crystal, experimental, refinement or atomic coordinate data resulting 
# from the CCDC's data processing and validation procedures.
#
#######################################################################

data_YOSWIN
_symmetry_cell_setting           triclinic
_symmetry_space_group_name_H-M   'P -1'
_symmetry_Int_Tables_number      2
_space_group_name_Hall           '-P 1'
loop_
_symmetry_equiv_pos_site_id
_symmetry_equiv_pos_as_xyz
1 x,y,z
2 -x,-y,-z
_cell_length_a                   4.3194(4)
_cell_length_b                   8.9345(9)
_cell_length_c                   9.6964(10)
_cell_angle_alpha                77.096(8)
_cell_angle_beta                 84.118(8)
_cell_angle_gamma                84.677(8)
_cell_volume                     361.886
loop_
_atom_site_label
_atom_site_type_symbol
_atom_site_fract_x
_atom_site_fract_y
_atom_site_fract_z
C1 C 0.577(5) 0.816(2) 0.6504(18)
H1 H 0.6516 0.8546 0.5568
C2 C 0.611(6) 0.903(2) 0.748(2)
H2 H 0.7041 0.9955 0.7209
C3 C 0.499(5) 0.846(2) 0.8894(18)
C4 C 0.355(5) 0.714(2) 0.9179(18)
H3 H 0.2654 0.6757 1.0088
C5 C 0.342(4) 0.637(2) 0.8111(19)
H4 H 0.2505 0.5435 0.8338
C6 C 0.555(9) 0.923(3) 1.010(3)
H5 H 0.4560 0.8671 1.0983
H6 H 0.7779 0.9163 1.0198
N1 N 0.452(3) 0.6874(13) 0.6784(12)
Br1 Br 1.0026(3) 0.68589(15) 0.32535(14)
Pb1 Pb 0.5000 0.5000 0.5000
C1A C 0.423(5) 1.184(2) 1.3496(18)
H1A H 0.3484 1.1454 1.4432
C2A C 0.389(6) 1.097(2) 1.252(2)
H2A H 0.2959 1.0045 1.2791
C3A C 0.501(5) 1.154(2) 1.1106(18)
C4A C 0.645(5) 1.286(2) 1.0821(18)
H3A H 0.7346 1.3243 0.9912
C5A C 0.658(4) 1.363(2) 1.1889(19)
H4A H 0.7495 1.4565 1.1662
C6A C 0.445(9) 1.077(3) 0.990(3)
H5A H 0.5440 1.1329 0.9017
H6A H 0.2221 1.0837 0.9802
N1A N 0.548(3) 1.3126(13) 1.3216(12)
N1A_2 N 0.548(3) 0.3126(13) 0.3216(12)
Br1_2 Br 0.0026(3) 0.68589(15) 0.32535(14)
Br1A Br -0.0026(3) 0.31411(15) 0.67465(14)
Br1A_2 Br 0.9974(3) 0.31411(15) 0.67465(14)
Pb1_2 Pb 1.5000 0.5000 0.5000
Pb1_3 Pb 0.5000 1.5000 1.5000
Pb1_4 Pb -0.5000 0.5000 0.5000
loop_
_geom_bond_atom_site_label_1
_geom_bond_atom_site_label_2
_geom_bond_site_symmetry_1
_geom_bond_site_symmetry_2
C1 H1 1_555 1_555
C2 C1 1_555 1_555
H2 C2 1_555 1_555
C3 C2 1_555 1_555
C4 C3 1_555 1_555
H3 C4 1_555 1_555
C5 C4 1_555 1_555
H4 C5 1_555 1_555
C6 C3 1_555 1_555
H5 C6 1_555 1_555
H6 C6 1_555 1_555
N1 C1 1_555 1_555
Br1 Pb1 1_555 1_555
Pb1 N1 1_555 1_555
C1A H1A 1_555 1_555
C2A C1A 1_555 1_555
H2A C2A 1_555 1_555
C3A C2A 1_555 1_555
C4A C3A 1_555 1_555
H3A C4A 1_555 1_555
C5A C4A 1_555 1_555
H4A C5A 1_555 1_555
C6A C6 1_555 1_555
H5A C6A 1_555 1_555
H6A C6A 1_555 1_555
N1A C1A 1_555 1_555
N1A_2 Pb1 1_555 1_555
Br1_2 Pb1 1_555 1_555
Br1A Pb1 1_555 1_555
Br1A_2 Pb1 1_555 1_555
Pb1_2 Br1 1_555 1_555
Pb1_3 N1A 1_555 1_555
Pb1_4 Br1_2 1_555 1_555
C5 N1 1_555 1_555
C3A C6A 1_555 1_555
C5A N1A 1_555 1_555
Br1A Pb1_4 1_555 1_555
Br1A_2 Pb1_2 1_555 1_555

#END
