
#######################################################################
#
#                 Cambridge Crystallographic Data Centre
#                                CCDC 
#
#######################################################################
#
# If this CIF has been generated from an entry in the Cambridge 
# Structural Database, then it will include bibliographic, chemical, 
# crystal, experimental, refinement or atomic coordinate data resulting 
# from the CCDC's data processing and validation procedures.
#
#######################################################################

data_YOSXOU
_symmetry_cell_setting           orthorhombic
_symmetry_space_group_name_H-M   'P c a 21'
_symmetry_Int_Tables_number      29
_space_group_name_Hall           'P 2c -2ac'
loop_
_symmetry_equiv_pos_site_id
_symmetry_equiv_pos_as_xyz
1 x,y,z
2 -x,-y,1/2+z
3 1/2+x,-y,z
4 1/2-x,y,1/2+z
_cell_length_a                   17.1898(11)
_cell_length_b                   5.3555(4)
_cell_length_c                   17.1073(11)
_cell_angle_alpha                90
_cell_angle_beta                 90
_cell_angle_gamma                90
_cell_volume                     1574.9
loop_
_atom_site_label
_atom_site_type_symbol
_atom_site_fract_x
_atom_site_fract_y
_atom_site_fract_z
Ag1 Ag 0.360055(11) 0.06414(4) 0.951311(15)
O1 O 0.29237(16) -0.2428(4) 0.85596(13)
O2 O 0.26049(17) -0.6324(5) 0.86206(16)
O3 O 0.36866(18) -0.5070(6) 0.9091(2)
N1 N 0.32506(16) -0.1326(5) 1.06271(15)
N2 N 0.27190(13) -0.1099(4) 1.12022(14)
N3 N 0.05223(14) 0.8534(5) 0.91558(15)
N4 N -0.01274(16) 0.9931(6) 0.90552(17)
N5 N 0.30689(17) -0.4619(5) 0.87592(14)
C1 C 0.3698(2) -0.3248(7) 1.0834(2)
H1 H 0.4118 -0.3834 1.0543
C2 C 0.3456(2) -0.4252(7) 1.1536(2)
H2 H 0.3674 -0.5596 1.1801
C3 C 0.2831(2) -0.2864(6) 1.17572(18)
H3 H 0.2535 -0.3087 1.2207
C4 C 0.21255(16) 0.0764(5) 1.11925(16)
C5 C 0.17598(18) 0.1412(6) 1.18982(15)
H4 H 0.1901 0.0612 1.2360
C6 C 0.12007(18) 0.3202(6) 1.19085(16)
H5 H 0.0948 0.3569 1.2375
C7 C 0.09964(17) 0.4513(5) 1.12249(16)
C8 C 0.13586(15) 0.3837(6) 1.05102(16)
C9 C 0.19155(15) 0.1916(6) 1.05054(15)
H6 H 0.2143 0.1422 1.0037
C10 C 0.11628(17) 0.5166(5) 0.98223(18)
H7 H 0.1384 0.4699 0.9348
C11 C 0.06550(16) 0.7121(6) 0.98447(15)
C12 C 0.02983(16) 0.7829(6) 1.05552(17)
H8 H -0.0044 0.9174 1.0569
C13 C 0.04572(16) 0.6538(6) 1.12148(17)
H9 H 0.0207 0.6983 1.1676
C14 C 0.0999(2) 0.8792(9) 0.8542(2)
H10 H 0.1483 0.8038 0.8480
C15 C 0.0644(3) 1.0368(9) 0.8024(3)
H11 H 0.0827 1.0879 0.7537
C16 C -0.0039(2) 1.1026(8) 0.8378(3)
H12 H -0.0398 1.2126 0.8163
Ag1_2 Ag 0.360055(11) -0.93586(4) 0.951311(15)
Ag1B Ag -0.139945(11) 0.93586(4) 0.951311(15)
O3_2 O 0.36866(18) 0.4930(6) 0.9091(2)
N4B N 0.48726(16) 0.0069(6) 0.90552(17)
loop_
_geom_bond_atom_site_label_1
_geom_bond_atom_site_label_2
_geom_bond_site_symmetry_1
_geom_bond_site_symmetry_2
Ag1 O1 1_555 1_555
O1 N5 1_555 1_555
O2 N5 1_555 1_555
O3 N5 1_555 1_555
N1 Ag1 1_555 1_555
N2 N1 1_555 1_555
N3 N4 1_555 1_555
N4 C16 1_555 1_555
C1 N1 1_555 1_555
H1 C1 1_555 1_555
C2 C1 1_555 1_555
H2 C2 1_555 1_555
C3 N2 1_555 1_555
H3 C3 1_555 1_555
C4 N2 1_555 1_555
C5 C4 1_555 1_555
H4 C5 1_555 1_555
C6 C5 1_555 1_555
H5 C6 1_555 1_555
C7 C6 1_555 1_555
C8 C7 1_555 1_555
C9 C4 1_555 1_555
H6 C9 1_555 1_555
C10 C8 1_555 1_555
H7 C10 1_555 1_555
C11 N3 1_555 1_555
C12 C11 1_555 1_555
H8 C12 1_555 1_555
C13 C7 1_555 1_555
H9 C13 1_555 1_555
C14 N3 1_555 1_555
H10 C14 1_555 1_555
C15 C14 1_555 1_555
H11 C15 1_555 1_555
C16 C15 1_555 1_555
H12 C16 1_555 1_555
Ag1_2 O3 1_555 1_555
Ag1B N4 1_555 1_555
O3_2 Ag1 1_555 1_555
N4B Ag1 1_555 1_555
C2 C3 1_555 1_555
C8 C9 1_555 1_555
C10 C11 1_555 1_555
C12 C13 1_555 1_555

#END
