
#######################################################################
#
#                 Cambridge Crystallographic Data Centre
#                                CCDC 
#
#######################################################################
#
# If this CIF has been generated from an entry in the Cambridge 
# Structural Database, then it will include bibliographic, chemical, 
# crystal, experimental, refinement or atomic coordinate data resulting 
# from the CCDC's data processing and validation procedures.
#
#######################################################################

data_YOSXAG
_symmetry_cell_setting           triclinic
_symmetry_space_group_name_H-M   'P -1'
_symmetry_Int_Tables_number      2
_space_group_name_Hall           '-P 1'
loop_
_symmetry_equiv_pos_site_id
_symmetry_equiv_pos_as_xyz
1 x,y,z
2 -x,-y,-z
_cell_length_a                   9.457(6)
_cell_length_b                   10.845(7)
_cell_length_c                   16.919(6)
_cell_angle_alpha                82.88(4)
_cell_angle_beta                 88.28(4)
_cell_angle_gamma                70.45(4)
_cell_volume                     1622.46
loop_
_atom_site_label
_atom_site_type_symbol
_atom_site_fract_x
_atom_site_fract_y
_atom_site_fract_z
S1 S 0.5515(2) 1.1426(2) 0.34857(14)
O1 O 0.5967(19) 1.2380(10) 0.3611(15)
O2 O 0.5052(10) 1.0683(13) 0.4132(8)
O3 O 0.6464(13) 1.0476(15) 0.3065(8)
C1 C 0.3841(11) 1.2223(11) 0.2862(6)
F1 F 0.2696(8) 1.2783(10) 0.3273(4)
F2 F 0.3454(12) 1.1374(12) 0.2548(8)
F3 F 0.4037(10) 1.2948(12) 0.2281(5)
Ag1 Ag 0.69227(7) 0.82303(6) 0.44978(4)
N1 N 0.5829(7) 0.7191(6) 0.3868(4)
N2 N 0.6147(7) 0.5871(6) 0.3922(4)
N3 N 1.1638(7) 0.1096(6) 0.4836(4)
N4 N 1.0237(7) 0.1771(6) 0.4519(4)
C2 C 0.4716(10) 0.7699(9) 0.3311(5)
H1 H 0.4278 0.8590 0.3132
C3 C 0.4328(9) 0.6692(9) 0.3049(5)
H2 H 0.3577 0.6783 0.2682
C4 C 0.5271(9) 0.5535(8) 0.3439(5)
H3 H 0.5298 0.4686 0.3379
C5 C 0.7273(8) 0.4991(8) 0.4480(4)
C6 C 0.7341(9) 0.5308(8) 0.5241(5)
H4 H 0.6668 0.6076 0.5404
C7 C 0.8468(10) 0.4425(9) 0.5766(5)
H5 H 0.8568 0.4633 0.6273
C8 C 0.9412(9) 0.3270(8) 0.5536(5)
H6 H 1.0121 0.2681 0.5893
C9 C 0.9306(8) 0.2979(7) 0.4761(5)
C10 C 0.8260(9) 0.3862(8) 0.4222(5)
H7 H 0.8226 0.3695 0.3698
C11 C 0.9877(9) 0.1076(8) 0.3991(5)
H8 H 0.8988 0.1334 0.3698
C12 C 1.1056(9) -0.0071(9) 0.3966(5)
H9 H 1.1134 -0.0743 0.3657
C13 C 1.2107(9) -0.0012(8) 0.4499(5)
H10 H 1.3030 -0.0670 0.4608
Ag1A Ag 1.30773(7) 0.17697(6) 0.55022(4)
N3A N 0.8362(7) 0.8904(6) 0.5164(4)
Ag2 Ag 0.19150(7) 1.30087(6) 0.04866(4)
S2 S 0.0462(2) 1.59795(18) 0.15161(12)
F4 F -0.2426(6) 1.6665(9) 0.1821(4)
F5 F -0.1303(9) 1.7771(7) 0.2325(5)
F6 F -0.1011(8) 1.5844(8) 0.2838(4)
O4 O 0.0555(8) 1.4641(6) 0.1487(5)
O5 O 0.0030(8) 1.6848(7) 0.0795(4)
O6 O 0.1646(7) 1.6143(7) 0.1939(4)
N5 N 0.3209(7) 1.4096(6) -0.0189(4)
N6 N 0.4588(7) 1.3580(6) -0.0489(4)
N7 N 0.9002(7) 0.8399(6) -0.1137(4)
N8 N 0.8661(7) 0.9702(6) -0.1042(4)
C14 C 0.4930(9) 1.4477(7) -0.1009(5)
H11 H 0.5824 1.4344 -0.1284
C15 C 0.3712(9) 1.5636(8) -0.1062(5)
H12 H 0.3608 1.6431 -0.1374
C16 C 0.2675(9) 1.5326(8) -0.0534(5)
H13 H 0.1731 1.5912 -0.0437
C17 C 0.5551(8) 1.2257(7) -0.0244(5)
C18 C 0.6570(8) 1.1606(7) -0.0766(5)
H14 H 0.6622 1.1988 -0.1285
C19 C 0.7544(8) 1.0330(7) -0.0492(5)
C20 C 0.7465(10) 0.9730(8) 0.0250(5)
H15 H 0.8118 0.8886 0.0414
C21 C 0.6374(10) 1.0412(8) 0.0766(5)
H16 H 0.6287 1.0000 0.1272
C22 C 0.5426(9) 1.1682(8) 0.0540(5)
H17 H 0.4730 1.2142 0.0892
C23 C 0.9524(9) 1.0243(8) -0.1532(5)
H18 H 0.9480 1.1120 -0.1588
C24 C 1.0448(9) 0.9289(9) -0.1920(5)
H19 H 1.1185 0.9360 -0.2282
C25 C 1.0075(9) 0.8180(8) -0.1671(5)
H20 H 1.0528 0.7369 -0.1858
C26 C -0.1151(10) 1.6597(9) 0.2145(5)
Ag2A Ag 0.80850(7) 0.69913(6) -0.04866(4)
N7A N 0.0998(7) 1.1601(6) 0.1137(4)
loop_
_geom_bond_atom_site_label_1
_geom_bond_atom_site_label_2
_geom_bond_site_symmetry_1
_geom_bond_site_symmetry_2
S1 O1 1_555 1_555
O2 S1 1_555 1_555
O3 S1 1_555 1_555
C1 S1 1_555 1_555
F1 C1 1_555 1_555
F2 C1 1_555 1_555
F3 C1 1_555 1_555
Ag1 O2 1_555 1_555
Ag2 O4 1_555 1_555
S2 O4 1_555 1_555
F4 C26 1_555 1_555
F5 C26 1_555 1_555
F6 C26 1_555 1_555
O5 S2 1_555 1_555
O6 S2 1_555 1_555
N1 Ag1 1_555 1_555
N2 N1 1_555 1_555
N3 N4 1_555 1_555
N4 C9 1_555 1_555
N5 Ag2 1_555 1_555
N6 N5 1_555 1_555
N7 N8 1_555 1_555
N8 C19 1_555 1_555
C2 N1 1_555 1_555
H1 C2 1_555 1_555
C3 C2 1_555 1_555
H2 C3 1_555 1_555
C4 N2 1_555 1_555
H3 C4 1_555 1_555
C5 N2 1_555 1_555
C6 C5 1_555 1_555
H4 C6 1_555 1_555
C7 C6 1_555 1_555
H5 C7 1_555 1_555
C8 C7 1_555 1_555
H6 C8 1_555 1_555
C9 C8 1_555 1_555
C10 C5 1_555 1_555
H7 C10 1_555 1_555
C11 N4 1_555 1_555
H8 C11 1_555 1_555
C12 C11 1_555 1_555
H9 C12 1_555 1_555
C13 N3 1_555 1_555
H10 C13 1_555 1_555
C14 N6 1_555 1_555
H11 C14 1_555 1_555
C15 C14 1_555 1_555
H12 C15 1_555 1_555
C16 N5 1_555 1_555
H13 C16 1_555 1_555
C17 N6 1_555 1_555
C18 C17 1_555 1_555
H14 C18 1_555 1_555
C19 C18 1_555 1_555
C20 C19 1_555 1_555
H15 C20 1_555 1_555
C21 C20 1_555 1_555
H16 C21 1_555 1_555
C22 C17 1_555 1_555
H17 C22 1_555 1_555
C23 N8 1_555 1_555
H18 C23 1_555 1_555
C24 C23 1_555 1_555
H19 C24 1_555 1_555
C25 N7 1_555 1_555
H20 C25 1_555 1_555
C26 S2 1_555 1_555
Ag1A N3 1_555 1_555
Ag2A N7 1_555 1_555
N3A Ag1 1_555 1_555
N7A Ag2 1_555 1_555
C3 C4 1_555 1_555
C9 C10 1_555 1_555
C12 C13 1_555 1_555
C15 C16 1_555 1_555
C21 C22 1_555 1_555
C24 C25 1_555 1_555

#END
