
#######################################################################
#
#                 Cambridge Crystallographic Data Centre
#                                CCDC 
#
#######################################################################
#
# If this CIF has been generated from an entry in the Cambridge 
# Structural Database, then it will include bibliographic, chemical, 
# crystal, experimental, refinement or atomic coordinate data resulting 
# from the CCDC's data processing and validation procedures.
#
#######################################################################

data_YOSZOW
_symmetry_cell_setting           triclinic
_symmetry_space_group_name_H-M   'P -1'
_symmetry_Int_Tables_number      2
_space_group_name_Hall           '-P 1'
loop_
_symmetry_equiv_pos_site_id
_symmetry_equiv_pos_as_xyz
1 x,y,z
2 -x,-y,-z
_cell_length_a                   9.0277(1)
_cell_length_b                   9.6682(1)
_cell_length_c                   10.5918(1)
_cell_angle_alpha                67.004(1)
_cell_angle_beta                 86.758(1)
_cell_angle_gamma                87.908(1)
_cell_volume                     849.537
loop_
_atom_site_label
_atom_site_type_symbol
_atom_site_fract_x
_atom_site_fract_y
_atom_site_fract_z
Co1 Co 0.0000 0.0000 0.0000
S1 S -0.42736(5) -0.19436(6) -0.12082(7)
N1 N 0.13292(13) 0.07046(14) -0.19894(13)
N2 N 0.58464(14) 0.28632(15) -0.47328(13)
N3 N 0.83502(14) 0.33079(14) -0.66518(13)
N4 N 1.07810(14) 0.76612(14) -0.92553(13)
N5 N -0.17564(14) -0.05467(15) -0.08918(13)
C1 C 0.06102(17) 0.10465(18) -0.31543(16)
H1 H -0.0389 0.0811 -0.3087
C2 C 0.12834(18) 0.1729(2) -0.44448(17)
H2 H 0.0752 0.1926 -0.5225
C3 C 0.27661(17) 0.21183(18) -0.45614(16)
H3 H 0.3239 0.2590 -0.5421
C4 C 0.35265(16) 0.17943(17) -0.33820(16)
C5 C 0.27688(16) 0.10618(17) -0.21266(16)
H4 H 0.3292 0.0803 -0.1333
C6 C 0.50956(16) 0.23016(19) -0.33782(16)
H5 H 0.5065 0.3087 -0.3022
H6 H 0.5666 0.1463 -0.2764
C7 C 0.64590(18) 0.16414(18) -0.50971(17)
H7 H 0.5676 0.0957 -0.5043
H8 H 0.7201 0.1085 -0.4454
C8 C 0.71553(18) 0.22699(18) -0.65369(17)
H9 H 0.7552 0.1451 -0.6773
H10 H 0.6403 0.2795 -0.7181
C9 C 0.77459(18) 0.45112(17) -0.62543(16)
H11 H 0.7008 0.5085 -0.6894
H12 H 0.8535 0.5185 -0.6298
C10 C 0.70437(17) 0.38798(18) -0.48158(16)
H13 H 0.7788 0.3340 -0.4169
H14 H 0.6651 0.4695 -0.4573
C11 C 0.89312(18) 0.39037(18) -0.80836(16)
H15 H 0.8120 0.4368 -0.8677
H16 H 0.9315 0.3073 -0.8308
C12 C 0.97890(17) 0.65570(17) -0.89029(15)
H17 H 0.8792 0.6832 -0.9018
C13 C 1.01436(17) 0.50428(17) -0.83822(15)
C14 C 1.16379(18) 0.46368(18) -0.82171(16)
H18 H 1.1930 0.3630 -0.7863
C15 C 1.26821(18) 0.57583(19) -0.85900(17)
H19 H 1.3687 0.5512 -0.8498
C16 C 1.22220(17) 0.72408(18) -0.90976(16)
H20 H 1.2934 0.7983 -0.9342
C17 C -0.28005(16) -0.11264(17) -0.10404(16)
Co1_2 Co 1.0000 1.0000 -1.0000
Co1_3 Co -1.0000 -1.0000 1.0000
S1A S 0.42736(5) 0.19436(6) 0.12082(7)
N1A N -0.13292(13) -0.07046(14) 0.19894(13)
N1_2 N -0.86708(13) -0.92954(14) 0.80106(13)
N2_2 N -0.41536(14) -0.71368(15) 0.52672(13)
N3_2 N -0.16498(14) -0.66921(14) 0.33482(13)
N4A N -0.07810(14) 0.23388(14) -0.07447(13)
N4_2 N 0.07810(14) -0.23388(14) 0.07447(13)
N5A N 0.17564(14) 0.05467(15) 0.08918(13)
C1_2 C -0.93898(17) -0.89535(18) 0.68457(16)
H1_2 H -1.0389 -0.9189 0.6913
C2_2 C -0.87166(18) -0.8271(2) 0.55552(17)
H2_2 H -0.9248 -0.8074 0.4775
C3_2 C -0.72339(17) -0.78817(18) 0.54386(16)
H3_2 H -0.6761 -0.7410 0.4579
C4_2 C -0.64735(16) -0.82057(17) 0.66180(16)
C5_2 C -0.72312(16) -0.89382(17) 0.78734(16)
H4_2 H -0.6708 -0.9197 0.8667
C6_2 C -0.49044(16) -0.76984(19) 0.66218(16)
H5_2 H -0.4935 -0.6913 0.6978
H6_2 H -0.4334 -0.8537 0.7236
C7_2 C -0.35410(18) -0.83586(18) 0.49029(17)
H7_2 H -0.4324 -0.9043 0.4957
H8_2 H -0.2799 -0.8915 0.5546
C8_2 C -0.28447(18) -0.77301(18) 0.34631(17)
H9_2 H -0.2448 -0.8549 0.3227
H10_2 H -0.3597 -0.7205 0.2819
C9_2 C -0.22541(18) -0.54888(17) 0.37457(16)
H11_2 H -0.2992 -0.4915 0.3106
H12_2 H -0.1465 -0.4815 0.3702
C10_2 C -0.29563(17) -0.61202(18) 0.51842(16)
H13_2 H -0.2212 -0.6660 0.5831
H14_2 H -0.3349 -0.5305 0.5427
C11_2 C -0.10688(18) -0.60963(18) 0.19164(16)
H15_2 H -0.1880 -0.5632 0.1323
H16_2 H -0.0685 -0.6927 0.1692
C12_2 C -0.02110(17) -0.34430(17) 0.10971(15)
H17_2 H -0.1208 -0.3168 0.0982
C13_2 C 0.01436(17) -0.49572(17) 0.16178(15)
C14_2 C 0.16379(18) -0.53632(18) 0.17829(16)
H18_2 H 0.1930 -0.6370 0.2137
C15_2 C 0.26821(18) -0.42417(19) 0.14100(17)
H19_2 H 0.3687 -0.4488 0.1502
C16_2 C 0.22220(17) -0.27592(18) 0.09024(16)
H20_2 H 0.2934 -0.2017 0.0658
C17A C 0.28005(16) 0.11264(17) 0.10404(16)
loop_
_geom_bond_atom_site_label_1
_geom_bond_atom_site_label_2
_geom_bond_site_symmetry_1
_geom_bond_site_symmetry_2
Co1 N1 1_555 1_555
S1 C17 1_555 1_555
N1 C1 1_555 1_555
N2 C6 1_555 1_555
N3 C8 1_555 1_555
N4 C12 1_555 1_555
N5 Co1 1_555 1_555
C1 H1 1_555 1_555
C2 C1 1_555 1_555
H2 C2 1_555 1_555
C3 C2 1_555 1_555
H3 C3 1_555 1_555
C4 C3 1_555 1_555
C5 N1 1_555 1_555
H4 C5 1_555 1_555
C6 C4 1_555 1_555
H5 C6 1_555 1_555
H6 C6 1_555 1_555
C7 N2 1_555 1_555
H7 C7 1_555 1_555
H8 C7 1_555 1_555
C8 C7 1_555 1_555
H9 C8 1_555 1_555
H10 C8 1_555 1_555
C9 N3 1_555 1_555
H11 C9 1_555 1_555
H12 C9 1_555 1_555
C10 N2 1_555 1_555
H13 C10 1_555 1_555
H14 C10 1_555 1_555
C11 N3 1_555 1_555
H15 C11 1_555 1_555
H16 C11 1_555 1_555
C12 H17 1_555 1_555
C13 C11 1_555 1_555
C14 C13 1_555 1_555
H18 C14 1_555 1_555
C15 C14 1_555 1_555
H19 C15 1_555 1_555
C16 N4 1_555 1_555
H20 C16 1_555 1_555
C17 N5 1_555 1_555
Co1_2 N4 1_555 1_555
Co1_3 N1_2 1_555 1_555
S1A C17A 1_555 1_555
N1A Co1 1_555 1_555
N1_2 C1_2 1_555 1_555
N2_2 C6_2 1_555 1_555
N3_2 C8_2 1_555 1_555
N4A Co1 1_555 1_555
N4_2 Co1 1_555 1_555
N5A Co1 1_555 1_555
C1_2 H1_2 1_555 1_555
C2_2 C1_2 1_555 1_555
H2_2 C2_2 1_555 1_555
C3_2 C2_2 1_555 1_555
H3_2 C3_2 1_555 1_555
C4_2 C3_2 1_555 1_555
C5_2 N1_2 1_555 1_555
H4_2 C5_2 1_555 1_555
C6_2 C4_2 1_555 1_555
H5_2 C6_2 1_555 1_555
H6_2 C6_2 1_555 1_555
C7_2 N2_2 1_555 1_555
H7_2 C7_2 1_555 1_555
H8_2 C7_2 1_555 1_555
C8_2 C7_2 1_555 1_555
H9_2 C8_2 1_555 1_555
H10_2 C8_2 1_555 1_555
C9_2 N3_2 1_555 1_555
H11_2 C9_2 1_555 1_555
H12_2 C9_2 1_555 1_555
C10_2 N2_2 1_555 1_555
H13_2 C10_2 1_555 1_555
H14_2 C10_2 1_555 1_555
C11_2 N3_2 1_555 1_555
H15_2 C11_2 1_555 1_555
H16_2 C11_2 1_555 1_555
C12_2 N4_2 1_555 1_555
H17_2 C12_2 1_555 1_555
C13_2 C11_2 1_555 1_555
C14_2 C13_2 1_555 1_555
H18_2 C14_2 1_555 1_555
C15_2 C14_2 1_555 1_555
H19_2 C15_2 1_555 1_555
C16_2 N4_2 1_555 1_555
H20_2 C16_2 1_555 1_555
C17A N5A 1_555 1_555
C4 C5 1_555 1_555
C9 C10 1_555 1_555
C12 C13 1_555 1_555
C15 C16 1_555 1_555
C4_2 C5_2 1_555 1_555
C9_2 C10_2 1_555 1_555
C12_2 C13_2 1_555 1_555
C15_2 C16_2 1_555 1_555

#END
