
#######################################################################
#
#                 Cambridge Crystallographic Data Centre
#                                CCDC 
#
#######################################################################
#
# If this CIF has been generated from an entry in the Cambridge 
# Structural Database, then it will include bibliographic, chemical, 
# crystal, experimental, refinement or atomic coordinate data resulting 
# from the CCDC's data processing and validation procedures.
#
#######################################################################

data_YOTBAL
_symmetry_cell_setting           monoclinic
_symmetry_space_group_name_H-M   'P 21/n'
_symmetry_Int_Tables_number      14
_space_group_name_Hall           '-P 2yn'
loop_
_symmetry_equiv_pos_site_id
_symmetry_equiv_pos_as_xyz
1 x,y,z
2 1/2-x,1/2+y,1/2-z
3 -x,-y,-z
4 1/2+x,1/2-y,1/2+z
_cell_length_a                   20.331(6)
_cell_length_b                   9.540(3)
_cell_length_c                   22.859(7)
_cell_angle_alpha                90
_cell_angle_beta                 106.803(4)
_cell_angle_gamma                90
_cell_volume                     4244.38
loop_
_atom_site_label
_atom_site_type_symbol
_atom_site_fract_x
_atom_site_fract_y
_atom_site_fract_z
Cd1 Cd 0.714793(15) 0.65440(3) 0.424329(13)
Cd2 Cd 0.708000(15) 0.95775(3) -0.087370(13)
N1 N 0.72516(19) 0.7697(4) 0.33560(16)
N2 N 0.6951(2) 0.8505(4) 0.24161(16)
N3 N 0.68491(18) 0.6617(4) 0.05427(16)
N4 N 0.69440(17) 0.7758(4) -0.02645(15)
N5 N 0.7291(2) 1.1124(4) 0.84294(16)
N6 N 0.70692(18) 1.2102(4) 0.75254(15)
N7 N 0.69821(18) 0.9924(4) 0.55049(16)
N8 N 0.70368(18) 0.8553(4) 0.47429(16)
O1 O 0.41305(17) 0.0488(4) 0.16077(15)
O2 O 0.33573(16) 0.2022(3) 0.16900(13)
O3 O 0.68097(15) 0.4409(3) 0.36076(14)
O4 O 0.60410(16) 0.6022(3) 0.36175(14)
O5 O 0.82582(15) 0.6016(4) 0.43651(14)
O6 O 0.83691(16) 0.6222(3) 0.53500(14)
O7 O 0.69014(15) 0.5374(3) 0.50636(13)
O8 O 0.67108(14) 0.3847(3) 0.57033(13)
C1 C 0.3958(2) 0.1532(5) 0.18549(19)
C2 C 0.4485(2) 0.2247(5) 0.2389(2)
H1 H 0.4353 0.2030 0.2759
C3 C 0.4443(3) 0.3814(6) 0.2311(3)
H2 H 0.4529 0.4060 0.1928
H3 H 0.3983 0.4123 0.2291
C4 C 0.4960(2) 0.4577(6) 0.2834(3)
H4 H 0.4832 0.4442 0.3207
H5 H 0.4939 0.5573 0.2746
C5 C 0.5680(2) 0.4082(5) 0.2934(2)
H6 H 0.5792 0.4256 0.2551
C6 C 0.5715(3) 0.2516(5) 0.3028(2)
H7 H 0.6180 0.2197 0.3069
H8 H 0.5609 0.2293 0.3404
C7 C 0.5214(3) 0.1735(6) 0.2496(3)
H9 H 0.5234 0.0739 0.2585
H10 H 0.5351 0.1872 0.2127
C8 C 0.6210(2) 0.4884(5) 0.3428(2)
C9 C 0.8610(2) 0.5997(5) 0.4913(2)
C10 C 0.9547(3) 0.4202(6) 0.5254(3)
H11 H 0.9300 0.3589 0.4925
H12 H 0.9384 0.4006 0.5605
C11 C 0.9375(2) 0.5688(6) 0.5061(2)
H13 H 0.9594 0.6256 0.5422
C12 C 0.9697(2) 0.6146(6) 0.4584(3)
H14 H 0.9639 0.7151 0.4526
H15 H 0.9462 0.5696 0.4200
C13 C 0.6488(2) 0.4652(5) 0.52635(18)
C14 C 0.5468(3) 0.6123(6) 0.5144(4)
H16 H 0.5703 0.6884 0.5007
H17 H 0.5584 0.6178 0.5586
C15 C 0.5717(2) 0.4822(5) 0.4981(2)
H18 H 0.5632 0.4832 0.4537
C16 C 0.5302(3) 0.3668(6) 0.5122(5)
H19 H 0.5409 0.3576 0.5562
H20 H 0.5431 0.2800 0.4964
C17 C 0.6740(3) 0.8087(5) 0.2894(2)
H21 H 0.6283 0.8076 0.2895
C18 C 0.7823(2) 0.7886(5) 0.3162(2)
H22 H 0.8272 0.7707 0.3395
C19 C 0.7641(3) 0.8366(5) 0.2586(2)
H23 H 0.7933 0.8565 0.2350
C20 C 0.6494(3) 0.8915(5) 0.1814(2)
H24 H 0.6767 0.9126 0.1540
H25 H 0.6243 0.9754 0.1856
C21 C 0.5989(3) 0.7751(6) 0.1540(2)
C22 C 0.5319(3) 0.7866(7) 0.1573(2)
H26 H 0.5191 0.8661 0.1748
C23 C 0.4839(3) 0.6828(9) 0.1352(3)
H27 H 0.4390 0.6933 0.1368
C24 C 0.5031(4) 0.5652(8) 0.1110(3)
H28 H 0.4713 0.4938 0.0965
C25 C 0.5689(3) 0.5514(6) 0.1077(2)
H29 H 0.5811 0.4696 0.0913
C26 C 0.6177(2) 0.6547(6) 0.1280(2)
C27 C 0.6877(2) 0.6355(5) 0.11835(19)
H30 H 0.7201 0.6997 0.1446
H31 H 0.7037 0.5407 0.1295
C28 C 0.7075(2) 0.7774(5) 0.03363(19)
H32 H 0.7297 0.8504 0.0585
C29 C 0.6613(2) 0.6513(5) -0.0446(2)
H33 H 0.6452 0.6202 -0.0848
C30 C 0.6557(2) 0.5808(5) 0.0049(2)
H34 H 0.6356 0.4932 0.0051
C31 C 0.6810(2) 1.1517(5) 0.7944(2)
H35 H 0.6343 1.1406 0.7895
C32 C 0.7892(2) 1.1483(6) 0.8322(2)
H36 H 0.8327 1.1337 0.8591
C33 C 0.7760(3) 1.2082(6) 0.7767(2)
H37 H 0.8083 1.2419 0.7585
C34 C 0.6688(2) 1.2669(5) 0.69223(18)
H38 H 0.7010 1.2885 0.6694
H39 H 0.6464 1.3535 0.6979
C35 C 0.6156(2) 1.1665(5) 0.65578(19)
C36 C 0.5485(3) 1.1811(6) 0.6583(2)
H40 H 0.5388 1.2505 0.6832
C37 C 0.4962(3) 1.0969(7) 0.6255(3)
H41 H 0.4515 1.1106 0.6273
C38 C 0.5105(3) 0.9927(6) 0.5901(2)
H42 H 0.4756 0.9334 0.5684
C39 C 0.5766(3) 0.9754(5) 0.5867(2)
H43 H 0.5858 0.9044 0.5623
C40 C 0.6295(2) 1.0617(5) 0.6187(2)
C41 C 0.7012(2) 1.0405(5) 0.6119(2)
H44 H 0.7263 1.1282 0.6202
H45 H 0.7257 0.9721 0.6416
C42 C 0.7148(2) 0.8641(5) 0.5339(2)
H46 H 0.7320 0.7914 0.5611
C43 C 0.6783(2) 0.9836(5) 0.4513(2)
H47 H 0.6657 1.0087 0.4102
C44 C 0.6747(2) 1.0678(5) 0.4979(2)
H48 H 0.6591 1.1599 0.4947
Cd1B Cd 1.285207(15) 0.34560(3) 0.575671(13)
Cd1B_2 Cd 0.285207(15) 0.34560(3) 0.575671(13)
Cd1_2 Cd 0.714793(15) 0.65440(3) -0.575671(13)
Cd1B_3 Cd 0.285207(15) 0.34560(3) -0.424329(13)
Cd2_2 Cd 0.708000(15) 0.95775(3) 0.912630(13)
Cd2B Cd 0.292000(15) 0.04225(3) 0.087370(13)
Cd2A Cd 0.792000(15) 0.45775(3) 0.587370(13)
Cd2C Cd 1.208000(15) 0.54225(3) 0.412630(13)
Cd2C_2 Cd 0.208000(15) 0.54225(3) 0.412630(13)
Cd2B_2 Cd 1.292000(15) 0.04225(3) 1.087370(13)
N1B N 1.27484(19) 0.2303(4) 0.66440(16)
N2B N 1.3049(2) 0.1495(4) 0.75839(16)
N3B N 1.31509(18) 0.3383(4) 0.94573(16)
N4B N 1.30560(17) 0.2242(4) 1.02645(15)
N4_2 N 0.69440(17) 0.7758(4) 0.97355(15)
N5_2 N 0.7291(2) 1.1124(4) -0.15706(16)
N6_2 N 0.70692(18) 1.2102(4) -0.24746(15)
N7_2 N 0.69821(18) 0.9924(4) -0.44951(16)
N8_2 N 0.70368(18) 0.8553(4) -0.52571(16)
N8B N 1.29632(18) 0.1447(4) 0.52571(16)
O1B O 0.58695(17) 0.9512(4) -0.16077(15)
O1B_2 O 0.58695(17) 0.9512(4) 0.83923(15)
O2B O 0.66427(16) 0.7978(3) -0.16900(13)
O2B_2 O 0.66427(16) 0.7978(3) 0.83100(13)
O3B O 0.31903(15) 0.5591(3) -0.36076(14)
O3B_2 O 1.31903(15) 0.5591(3) 0.63924(14)
O4B O 0.39590(16) 0.3978(3) -0.36175(14)
O4B_2 O 1.39590(16) 0.3978(3) 0.63825(14)
O5B O 1.17418(15) 0.3984(4) 0.56349(14)
O6B O 1.16309(16) 0.3778(3) 0.46500(14)
O6A O 0.66309(16) 1.1222(3) -0.03500(14)
O6A_2 O 0.66309(16) 1.1222(3) 0.96500(14)
O7B O 0.30986(15) 0.4626(3) 0.49364(13)
O7A O 0.80986(15) 1.0374(3) -0.00636(13)
O7B_2 O 1.30986(15) 0.4626(3) 0.49364(13)
O7A_2 O 0.80986(15) 1.0374(3) 0.99364(13)
O8B O 0.32892(14) 0.6153(3) 0.42967(13)
O8A O 0.82892(14) 0.8847(3) -0.07033(13)
O8A_2 O 0.82892(14) 0.8847(3) 0.92967(13)
C1B C 0.6042(2) 0.8468(5) -0.18549(19)
C2B C 0.5515(2) 0.7753(5) -0.2389(2)
H1B H 0.5647 0.7970 -0.2759
C3B C 0.5557(3) 0.6186(6) -0.2311(3)
H2B H 0.5471 0.5940 -0.1928
H3B H 0.6017 0.5877 -0.2291
C4B C 0.5040(2) 0.5423(6) -0.2834(3)
H4B H 0.5168 0.5558 -0.3207
H5B H 0.5061 0.4427 -0.2746
C5B C 0.4320(2) 0.5918(5) -0.2934(2)
H6B H 0.4208 0.5744 -0.2551
C6B C 0.4285(3) 0.7484(5) -0.3028(2)
H7B H 0.3820 0.7803 -0.3069
H8B H 0.4391 0.7707 -0.3404
C7B C 0.4786(3) 0.8265(6) -0.2496(3)
H9B H 0.4766 0.9261 -0.2585
H10B H 0.4649 0.8128 -0.2127
C8B C 0.3790(2) 0.5116(5) -0.3428(2)
C9B C 1.1390(2) 0.4003(5) 0.5087(2)
C10B C 1.0453(3) 0.5798(6) 0.4746(3)
H11B H 1.0700 0.6411 0.5075
H12B H 1.0616 0.5994 0.4395
C11B C 1.0625(2) 0.4312(6) 0.4939(2)
H13B H 1.0406 0.3744 0.4578
C12B C 1.0303(2) 0.3854(6) 0.5416(3)
H14B H 1.0361 0.2849 0.5474
H15B H 1.0538 0.4304 0.5800
C13B C 0.3512(2) 0.5348(5) 0.47365(18)
C14B C 0.4532(3) 0.3877(6) 0.4856(4)
H16B H 0.4297 0.3116 0.4993
H17B H 0.4416 0.3822 0.4414
C15B C 0.4283(2) 0.5178(5) 0.5019(2)
H18B H 0.4368 0.5168 0.5463
C16B C 0.4698(3) 0.6332(6) 0.4878(5)
H19B H 0.4591 0.6424 0.4438
H20B H 0.4569 0.7200 0.5036
C17B C 1.3260(3) 0.1913(5) 0.7106(2)
H21B H 1.3717 0.1924 0.7105
C18B C 1.2177(2) 0.2114(5) 0.6838(2)
H22B H 1.1728 0.2293 0.6605
C19B C 1.2359(3) 0.1634(5) 0.7414(2)
H23B H 1.2067 0.1435 0.7650
C20B C 1.3506(3) 0.1085(5) 0.8186(2)
H24B H 1.3233 0.0874 0.8460
H25B H 1.3757 0.0246 0.8144
C21B C 1.4011(3) 0.2249(6) 0.8460(2)
C22B C 1.4681(3) 0.2134(7) 0.8427(2)
H26B H 1.4809 0.1339 0.8252
C23B C 1.5161(3) 0.3172(9) 0.8648(3)
H27B H 1.5610 0.3067 0.8632
C24B C 1.4969(4) 0.4348(8) 0.8890(3)
H28B H 1.5287 0.5062 0.9035
C25B C 1.4311(3) 0.4486(6) 0.8923(2)
H29B H 1.4189 0.5304 0.9087
C26B C 1.3823(2) 0.3453(6) 0.8720(2)
C27B C 1.3123(2) 0.3645(5) 0.88165(19)
H30B H 1.2799 0.3003 0.8554
H31B H 1.2963 0.4593 0.8705
C28B C 1.2925(2) 0.2226(5) 0.96637(19)
H32B H 1.2703 0.1496 0.9415
C29B C 1.3387(2) 0.3487(5) 1.0446(2)
H33B H 1.3548 0.3798 1.0848
C30B C 1.3443(2) 0.4192(5) 0.9951(2)
H34B H 1.3644 0.5068 0.9949
C31_2 C 0.6810(2) 1.1517(5) -0.2056(2)
H35_2 H 0.6343 1.1406 -0.2105
C32_2 C 0.7892(2) 1.1483(6) -0.1678(2)
H36_2 H 0.8327 1.1337 -0.1409
C33_2 C 0.7760(3) 1.2082(6) -0.2233(2)
H37_2 H 0.8083 1.2419 -0.2415
C34_2 C 0.6688(2) 1.2669(5) -0.30777(18)
H38_2 H 0.7010 1.2885 -0.3306
H39_2 H 0.6464 1.3535 -0.3021
C35_2 C 0.6156(2) 1.1665(5) -0.34422(19)
C36_2 C 0.5485(3) 1.1811(6) -0.3417(2)
H40_2 H 0.5388 1.2505 -0.3168
C37_2 C 0.4962(3) 1.0969(7) -0.3745(3)
H41_2 H 0.4515 1.1106 -0.3727
C38_2 C 0.5105(3) 0.9927(6) -0.4099(2)
H42_2 H 0.4756 0.9334 -0.4316
C39_2 C 0.5766(3) 0.9754(5) -0.4133(2)
H43_2 H 0.5858 0.9044 -0.4377
C40_2 C 0.6295(2) 1.0617(5) -0.3813(2)
C41_2 C 0.7012(2) 1.0405(5) -0.3881(2)
H44_2 H 0.7263 1.1282 -0.3798
H45_2 H 0.7257 0.9721 -0.3584
C42_2 C 0.7148(2) 0.8641(5) -0.4661(2)
H46_2 H 0.7320 0.7914 -0.4389
C43_2 C 0.6783(2) 0.9836(5) -0.5487(2)
H47_2 H 0.6657 1.0087 -0.5898
C44_2 C 0.6747(2) 1.0678(5) -0.5021(2)
H48_2 H 0.6591 1.1599 -0.5053
loop_
_geom_bond_atom_site_label_1
_geom_bond_atom_site_label_2
_geom_bond_site_symmetry_1
_geom_bond_site_symmetry_2
Cd1 N1 1_555 1_555
Cd2 N4 1_555 1_555
N1 C17 1_555 1_555
N2 C17 1_555 1_555
N3 C27 1_555 1_555
N4 C28 1_555 1_555
N5 C31 1_555 1_555
N6 C31 1_555 1_555
N7 C41 1_555 1_555
N8 Cd1 1_555 1_555
O1 C1 1_555 1_555
O2 C1 1_555 1_555
O3 Cd1 1_555 1_555
O4 Cd1 1_555 1_555
O5 Cd1 1_555 1_555
O6 C9 1_555 1_555
O7 Cd1 1_555 1_555
O8 C13 1_555 1_555
C1 C2 1_555 1_555
C2 H1 1_555 1_555
C3 C2 1_555 1_555
H2 C3 1_555 1_555
H3 C3 1_555 1_555
C4 C3 1_555 1_555
H4 C4 1_555 1_555
H5 C4 1_555 1_555
C5 C4 1_555 1_555
H6 C5 1_555 1_555
C6 C5 1_555 1_555
H7 C6 1_555 1_555
H8 C6 1_555 1_555
C7 C2 1_555 1_555
H9 C7 1_555 1_555
H10 C7 1_555 1_555
C8 O3 1_555 1_555
C9 O5 1_555 1_555
C10 H11 1_555 1_555
H12 C10 1_555 1_555
C11 C9 1_555 1_555
H13 C11 1_555 1_555
C12 C11 1_555 1_555
H14 C12 1_555 1_555
H15 C12 1_555 1_555
C13 O7 1_555 1_555
C14 H16 1_555 1_555
H17 C14 1_555 1_555
C15 C13 1_555 1_555
H18 C15 1_555 1_555
C16 C15 1_555 1_555
H19 C16 1_555 1_555
H20 C16 1_555 1_555
C17 H21 1_555 1_555
C18 N1 1_555 1_555
H22 C18 1_555 1_555
C19 N2 1_555 1_555
H23 C19 1_555 1_555
C20 N2 1_555 1_555
H24 C20 1_555 1_555
H25 C20 1_555 1_555
C21 C20 1_555 1_555
C22 C21 1_555 1_555
H26 C22 1_555 1_555
C23 C22 1_555 1_555
H27 C23 1_555 1_555
C24 C23 1_555 1_555
H28 C24 1_555 1_555
C25 C24 1_555 1_555
H29 C25 1_555 1_555
C26 C21 1_555 1_555
C27 C26 1_555 1_555
H30 C27 1_555 1_555
H31 C27 1_555 1_555
C28 N3 1_555 1_555
H32 C28 1_555 1_555
C29 N4 1_555 1_555
H33 C29 1_555 1_555
C30 N3 1_555 1_555
H34 C30 1_555 1_555
C31 H35 1_555 1_555
C32 N5 1_555 1_555
H36 C32 1_555 1_555
C33 N6 1_555 1_555
H37 C33 1_555 1_555
C34 N6 1_555 1_555
H38 C34 1_555 1_555
H39 C34 1_555 1_555
C35 C34 1_555 1_555
C36 C35 1_555 1_555
H40 C36 1_555 1_555
C37 C36 1_555 1_555
H41 C37 1_555 1_555
C38 C37 1_555 1_555
H42 C38 1_555 1_555
C39 C38 1_555 1_555
H43 C39 1_555 1_555
C40 C35 1_555 1_555
C41 C40 1_555 1_555
H44 C41 1_555 1_555
H45 C41 1_555 1_555
C42 N7 1_555 1_555
H46 C42 1_555 1_555
C43 N8 1_555 1_555
H47 C43 1_555 1_555
C44 N7 1_555 1_555
H48 C44 1_555 1_555
Cd1B N1B 1_555 1_555
Cd1B_2 O7B 1_555 1_555
Cd1_2 N8_2 1_555 1_555
Cd1B_3 O3B 1_555 1_555
Cd2_2 N5 1_555 1_555
Cd2B O1 1_555 1_555
Cd2A O6 1_555 1_555
Cd2C O6B 1_555 1_555
Cd2C_2 O7B 1_555 1_555
Cd2B_2 N4B 1_555 1_555
N1B C17B 1_555 1_555
N2B C17B 1_555 1_555
N3B C27B 1_555 1_555
N4B C28B 1_555 1_555
N4_2 Cd2_2 1_555 1_555
N5_2 Cd2 1_555 1_555
N6_2 C31_2 1_555 1_555
N7_2 C41_2 1_555 1_555
N8_2 C42_2 1_555 1_555
N8B Cd1B 1_555 1_555
O1B Cd2 1_555 1_555
O1B_2 Cd2_2 1_555 1_555
O2B Cd2 1_555 1_555
O2B_2 Cd2_2 1_555 1_555
O3B C8B 1_555 1_555
O3B_2 Cd1B 1_555 1_555
O4B Cd1B_3 1_555 1_555
O4B_2 Cd1B 1_555 1_555
O5B Cd1B 1_555 1_555
O6B C9B 1_555 1_555
O6A Cd2 1_555 1_555
O6A_2 Cd2_2 1_555 1_555
O7B C13B 1_555 1_555
O7A Cd2 1_555 1_555
O7B_2 Cd1B 1_555 1_555
O7A_2 Cd2_2 1_555 1_555
O8B Cd2C_2 1_555 1_555
O8A Cd2 1_555 1_555
O8A_2 Cd2_2 1_555 1_555
C1B O1B 1_555 1_555
C2B C1B 1_555 1_555
H1B C2B 1_555 1_555
C3B C2B 1_555 1_555
H2B C3B 1_555 1_555
H3B C3B 1_555 1_555
C4B C3B 1_555 1_555
H4B C4B 1_555 1_555
H5B C4B 1_555 1_555
C5B C4B 1_555 1_555
H6B C5B 1_555 1_555
C6B C5B 1_555 1_555
H7B C6B 1_555 1_555
H8B C6B 1_555 1_555
C7B C2B 1_555 1_555
H9B C7B 1_555 1_555
H10B C7B 1_555 1_555
C8B O4B 1_555 1_555
C9B O5B 1_555 1_555
C10B C12 1_555 1_555
H11B C10B 1_555 1_555
H12B C10B 1_555 1_555
C11B C9B 1_555 1_555
H13B C11B 1_555 1_555
C12B C10 1_555 1_555
H14B C12B 1_555 1_555
H15B C12B 1_555 1_555
C13B O8B 1_555 1_555
C14B C16 1_555 1_555
H16B C14B 1_555 1_555
H17B C14B 1_555 1_555
C15B C13B 1_555 1_555
H18B C15B 1_555 1_555
C16B C14 1_555 1_555
H19B C16B 1_555 1_555
H20B C16B 1_555 1_555
C17B H21B 1_555 1_555
C18B N1B 1_555 1_555
H22B C18B 1_555 1_555
C19B N2B 1_555 1_555
H23B C19B 1_555 1_555
C20B N2B 1_555 1_555
H24B C20B 1_555 1_555
H25B C20B 1_555 1_555
C21B C20B 1_555 1_555
C22B C21B 1_555 1_555
H26B C22B 1_555 1_555
C23B C22B 1_555 1_555
H27B C23B 1_555 1_555
C24B C23B 1_555 1_555
H28B C24B 1_555 1_555
C25B C24B 1_555 1_555
H29B C25B 1_555 1_555
C26B C21B 1_555 1_555
C27B C26B 1_555 1_555
H30B C27B 1_555 1_555
H31B C27B 1_555 1_555
C28B N3B 1_555 1_555
H32B C28B 1_555 1_555
C29B N4B 1_555 1_555
H33B C29B 1_555 1_555
C30B N3B 1_555 1_555
H34B C30B 1_555 1_555
C31_2 N5_2 1_555 1_555
H35_2 C31_2 1_555 1_555
C32_2 N5_2 1_555 1_555
H36_2 C32_2 1_555 1_555
C33_2 N6_2 1_555 1_555
H37_2 C33_2 1_555 1_555
C34_2 N6_2 1_555 1_555
H38_2 C34_2 1_555 1_555
H39_2 C34_2 1_555 1_555
C35_2 C34_2 1_555 1_555
C36_2 C35_2 1_555 1_555
H40_2 C36_2 1_555 1_555
C37_2 C36_2 1_555 1_555
H41_2 C37_2 1_555 1_555
C38_2 C37_2 1_555 1_555
H42_2 C38_2 1_555 1_555
C39_2 C38_2 1_555 1_555
H43_2 C39_2 1_555 1_555
C40_2 C35_2 1_555 1_555
C41_2 C40_2 1_555 1_555
H44_2 C41_2 1_555 1_555
H45_2 C41_2 1_555 1_555
C42_2 N7_2 1_555 1_555
H46_2 C42_2 1_555 1_555
C43_2 N8_2 1_555 1_555
H47_2 C43_2 1_555 1_555
C44_2 N7_2 1_555 1_555
H48_2 C44_2 1_555 1_555
N8 C42 1_555 1_555
O2 Cd2B 1_555 1_555
O4 C8 1_555 1_555
O7 Cd2A 1_555 1_555
O8 Cd2A 1_555 1_555
C5 C8 1_555 1_555
C6 C7 1_555 1_555
C10 C11 1_555 1_555
C14 C15 1_555 1_555
C18 C19 1_555 1_555
C25 C26 1_555 1_555
C29 C30 1_555 1_555
C32 C33 1_555 1_555
C39 C40 1_555 1_555
C43 C44 1_555 1_555
Cd2C O7B_2 1_555 1_555
O2B C1B 1_555 1_555
C5B C8B 1_555 1_555
C6B C7B 1_555 1_555
C10B C11B 1_555 1_555
C11B C12B 1_555 1_555
C14B C15B 1_555 1_555
C15B C16B 1_555 1_555
C18B C19B 1_555 1_555
C25B C26B 1_555 1_555
C29B C30B 1_555 1_555
C32_2 C33_2 1_555 1_555
C39_2 C40_2 1_555 1_555
C43_2 C44_2 1_555 1_555

#END
