
#######################################################################
#
#                 Cambridge Crystallographic Data Centre
#                                CCDC 
#
#######################################################################
#
# If this CIF has been generated from an entry in the Cambridge 
# Structural Database, then it will include bibliographic, chemical, 
# crystal, experimental, refinement or atomic coordinate data resulting 
# from the CCDC's data processing and validation procedures.
#
#######################################################################

data_YOTDER
_symmetry_cell_setting           triclinic
_symmetry_space_group_name_H-M   'P -1'
_symmetry_Int_Tables_number      2
_space_group_name_Hall           '-P 1'
loop_
_symmetry_equiv_pos_site_id
_symmetry_equiv_pos_as_xyz
1 x,y,z
2 -x,-y,-z
_cell_length_a                   8.8882(9)
_cell_length_b                   9.5780(10)
_cell_length_c                   11.0160(10)
_cell_angle_alpha                105.9620(10)
_cell_angle_beta                 103.0500(10)
_cell_angle_gamma                93.1200(10)
_cell_volume                     871.537
loop_
_atom_site_label
_atom_site_type_symbol
_atom_site_fract_x
_atom_site_fract_y
_atom_site_fract_z
Mn1 Mn 0.5000 0.5000 0.5000
S1 S 0.34382(5) 0.24029(5) 0.21379(4)
O1 O 0.34939(15) 0.38120(14) 0.30894(12)
O2 O 0.19137(17) 0.18841(18) 0.12816(15)
O3 O 0.40672(19) 0.13426(17) 0.27693(17)
O4 O 0.2494(2) 0.4691(2) 0.0881(2)
N1 N 0.59998(18) 0.65125(17) 0.40181(15)
N2 N 0.71074(17) 0.40323(16) 0.44201(15)
C1 C 0.3690(2) 0.4857(2) 0.05604(19)
C2 C 0.4839(2) 0.3789(2) 0.05903(17)
C3 C 0.4760(2) 0.2649(2) 0.11671(17)
C4 C 0.5807(2) 0.1633(2) 0.1047(2)
H1 H 0.5756 0.0884 0.1429
C5 C 0.6932(3) 0.1712(2) 0.0368(2)
H2 H 0.7597 0.0995 0.0264
C6 C 0.7061(2) 0.2844(2) -0.0148(2)
H3 H 0.7838 0.2916 -0.0576
C7 C 0.6032(2) 0.3891(2) -0.00353(18)
C8 C 0.7230(2) 0.60542(19) 0.35365(17)
C9 C 0.5491(3) 0.7727(2) 0.3818(2)
H4 H 0.4652 0.8050 0.4142
C10 C 0.6133(3) 0.8547(2) 0.3155(2)
H5 H 0.5727 0.9391 0.3041
C11 C 0.7358(3) 0.8100(2) 0.2677(2)
H6 H 0.7806 0.8639 0.2235
C12 C 0.7950(2) 0.6821(2) 0.28506(19)
C13 C 0.9234(2) 0.6277(2) 0.2369(2)
H7 H 0.9702 0.6779 0.1911
C14 C 0.9780(2) 0.5056(2) 0.2565(2)
H8 H 1.0616 0.4724 0.2239
C15 C 0.9090(2) 0.4258(2) 0.32685(19)
C16 C 0.9640(2) 0.2989(2) 0.3505(2)
H9 H 1.0480 0.2634 0.3200
C17 C 0.8938(2) 0.2278(2) 0.4183(2)
H10 H 0.9290 0.1436 0.4348
C18 C 0.7684(2) 0.2839(2) 0.4623(2)
H11 H 0.7217 0.2349 0.5090
C19 C 0.7815(2) 0.47471(19) 0.37489(17)
Mn1_2 Mn 0.5000 0.5000 -0.5000
S1A S 0.65618(5) 0.75971(5) -0.21379(4)
O1A O 0.65061(15) 0.61880(14) -0.30894(12)
O1A_2 O 0.65061(15) 0.61880(14) 0.69106(12)
O2A O 0.80863(17) 0.81159(18) -0.12816(15)
O3A O 0.59328(19) 0.86574(17) -0.27693(17)
O4A O 0.7506(2) 0.5309(2) -0.0881(2)
N1A N 0.40002(18) 0.34875(17) 0.59819(15)
N2A N 0.28926(17) 0.59677(16) 0.55799(15)
C1A C 0.6310(2) 0.5143(2) -0.05604(19)
C2A C 0.5161(2) 0.6211(2) -0.05903(17)
C3A C 0.5240(2) 0.7351(2) -0.11671(17)
C4A C 0.4193(2) 0.8367(2) -0.1047(2)
H1A H 0.4244 0.9116 -0.1429
C5A C 0.3068(3) 0.8288(2) -0.0368(2)
H2A H 0.2403 0.9005 -0.0264
C6A C 0.2939(2) 0.7156(2) 0.0148(2)
H3A H 0.2162 0.7084 0.0576
C7A C 0.3968(2) 0.6109(2) 0.00353(18)
C8A C 0.2770(2) 0.39458(19) 0.64635(17)
C9A C 0.4509(3) 0.2273(2) 0.6182(2)
H4A H 0.5348 0.1950 0.5858
C10A C 0.3867(3) 0.1453(2) 0.6845(2)
H5A H 0.4273 0.0609 0.6959
C11A C 0.2642(3) 0.1900(2) 0.7323(2)
H6A H 0.2194 0.1361 0.7765
C12A C 0.2050(2) 0.3179(2) 0.71494(19)
C13A C 0.0766(2) 0.3723(2) 0.7631(2)
H7A H 0.0298 0.3221 0.8089
C14A C 0.0220(2) 0.4944(2) 0.7435(2)
H8A H -0.0616 0.5276 0.7761
C15A C 0.0910(2) 0.5742(2) 0.67315(19)
C16A C 0.0360(2) 0.7011(2) 0.6495(2)
H9A H -0.0480 0.7366 0.6800
C17A C 0.1062(2) 0.7722(2) 0.5817(2)
H10A H 0.0710 0.8564 0.5652
C18A C 0.2316(2) 0.7161(2) 0.5377(2)
H11A H 0.2783 0.7651 0.4910
C19A C 0.2185(2) 0.52529(19) 0.62511(17)
O5 O 0.9995(2) 0.9273(2) 0.12804(18)
H12 H 0.9520 0.8694 0.0539
H13 H 1.0469 1.0073 0.1289
O6 O 0.7867(3) 0.0448(3) 0.6265(2)
H14 H 0.8658 0.0844 0.6892
H15 H 0.7305 -0.0255 0.6340
loop_
_geom_bond_atom_site_label_1
_geom_bond_atom_site_label_2
_geom_bond_site_symmetry_1
_geom_bond_site_symmetry_2
Mn1 O1 1_555 1_555
S1 O1 1_555 1_555
O2 S1 1_555 1_555
O3 S1 1_555 1_555
O4 C1 1_555 1_555
N1 Mn1 1_555 1_555
N2 Mn1 1_555 1_555
C1 C2 1_555 1_555
C2 C3 1_555 1_555
C3 S1 1_555 1_555
C4 C3 1_555 1_555
H1 C4 1_555 1_555
C5 C4 1_555 1_555
H2 C5 1_555 1_555
C6 C5 1_555 1_555
H3 C6 1_555 1_555
C7 C2 1_555 1_555
C8 N1 1_555 1_555
C9 N1 1_555 1_555
H4 C9 1_555 1_555
C10 C9 1_555 1_555
H5 C10 1_555 1_555
C11 C10 1_555 1_555
H6 C11 1_555 1_555
C12 C8 1_555 1_555
C13 C12 1_555 1_555
H7 C13 1_555 1_555
C14 C13 1_555 1_555
H8 C14 1_555 1_555
C15 C14 1_555 1_555
C16 C15 1_555 1_555
H9 C16 1_555 1_555
C17 C16 1_555 1_555
H10 C17 1_555 1_555
C18 N2 1_555 1_555
H11 C18 1_555 1_555
C19 N2 1_555 1_555
O5 H12 1_555 1_555
H13 O5 1_555 1_555
O6 H14 1_555 1_555
H15 O6 1_555 1_555
Mn1_2 O1A 1_555 1_555
S1A O1A 1_555 1_555
O1A_2 Mn1 1_555 1_555
O2A S1A 1_555 1_555
O3A S1A 1_555 1_555
O4A C1A 1_555 1_555
N1A Mn1 1_555 1_555
N2A Mn1 1_555 1_555
C1A C7 1_555 1_555
C2A C1A 1_555 1_555
C3A S1A 1_555 1_555
C4A C3A 1_555 1_555
H1A C4A 1_555 1_555
C5A C4A 1_555 1_555
H2A C5A 1_555 1_555
C6A C5A 1_555 1_555
H3A C6A 1_555 1_555
C7A C1 1_555 1_555
C8A N1A 1_555 1_555
C9A N1A 1_555 1_555
H4A C9A 1_555 1_555
C10A C9A 1_555 1_555
H5A C10A 1_555 1_555
C11A C10A 1_555 1_555
H6A C11A 1_555 1_555
C12A C8A 1_555 1_555
C13A C12A 1_555 1_555
H7A C13A 1_555 1_555
C14A C13A 1_555 1_555
H8A C14A 1_555 1_555
C15A C14A 1_555 1_555
C16A C15A 1_555 1_555
H9A C16A 1_555 1_555
C17A C16A 1_555 1_555
H10A C17A 1_555 1_555
C18A N2A 1_555 1_555
H11A C18A 1_555 1_555
C19A N2A 1_555 1_555
C6 C7 1_555 1_555
C8 C19 1_555 1_555
C11 C12 1_555 1_555
C15 C19 1_555 1_555
C17 C18 1_555 1_555
C2A C3A 1_555 1_555
C2A C7A 1_555 1_555
C6A C7A 1_555 1_555
C8A C19A 1_555 1_555
C11A C12A 1_555 1_555
C15A C19A 1_555 1_555
C17A C18A 1_555 1_555

#END
