
#######################################################################
#
#                 Cambridge Crystallographic Data Centre
#                                CCDC 
#
#######################################################################
#
# If this CIF has been generated from an entry in the Cambridge 
# Structural Database, then it will include bibliographic, chemical, 
# crystal, experimental, refinement or atomic coordinate data resulting 
# from the CCDC's data processing and validation procedures.
#
#######################################################################

data_YOTDUI
_symmetry_cell_setting           monoclinic
_symmetry_space_group_name_H-M   'P 21/n'
_symmetry_Int_Tables_number      14
_space_group_name_Hall           '-P 2yn'
loop_
_symmetry_equiv_pos_site_id
_symmetry_equiv_pos_as_xyz
1 x,y,z
2 1/2-x,1/2+y,1/2-z
3 -x,-y,-z
4 1/2+x,1/2-y,1/2+z
_cell_length_a                   17.7510(9)
_cell_length_b                   17.5007(11)
_cell_length_c                   18.0280(9)
_cell_angle_alpha                90
_cell_angle_beta                 108.1077(19)
_cell_angle_gamma                90
_cell_volume                     5323.12
loop_
_atom_site_label
_atom_site_type_symbol
_atom_site_fract_x
_atom_site_fract_y
_atom_site_fract_z
C1 C 0.7801(3) 0.5782(3) 0.6893(3)
H1 H 0.8177 0.5969 0.7355
C2 C 0.7044(3) 0.5634(3) 0.6899(3)
H2 H 0.6903 0.5716 0.7359
C3 C 0.6493(3) 0.5367(3) 0.6233(3)
H3 H 0.5965 0.5268 0.6226
C4 C 0.6714(3) 0.5245(3) 0.5587(3)
H4 H 0.6343 0.5053 0.5124
C5 C 0.7482(3) 0.5404(3) 0.5612(3)
H5 H 0.7631 0.5322 0.5155
C6 C 0.9790(3) 0.7353(3) 0.7083(3)
C7 C 0.9879(3) 0.7918(3) 0.7737(3)
C8 C 0.9452(3) 0.7813(3) 0.8261(2)
H6 H 0.9107 0.7387 0.8202
C9 C 0.9529(3) 0.8329(3) 0.8870(3)
C10 C 0.9065(3) 0.8219(3) 0.9427(3)
C11 C 1.0018(3) 0.8965(3) 0.8928(3)
H7 H 1.0074 0.9320 0.9341
C12 C 1.0425(3) 0.9087(3) 0.8390(3)
C13 C 1.0916(3) 0.9787(3) 0.8438(3)
C14 C 1.0364(3) 0.8552(3) 0.7809(3)
H8 H 1.0659 0.8621 0.7455
C15 C 0.8744(3) 0.6784(3) 0.4667(3)
C16 C 0.8926(3) 0.6671(3) 0.3907(3)
C17 C 0.9260(3) 0.5986(3) 0.3769(3)
H9 H 0.9337 0.5582 0.4137
C18 C 0.9481(3) 0.5886(3) 0.3101(3)
C19 C 0.9873(3) 0.5155(3) 0.2984(3)
C20 C 0.9365(3) 0.6484(3) 0.2564(3)
H10 H 0.9512 0.6422 0.2104
C21 C 0.9034(3) 0.7168(3) 0.2700(3)
C22 C 0.8902(3) 0.7825(3) 0.2134(3)
C23 C 0.8821(3) 0.7264(3) 0.3371(3)
H11 H 0.8602 0.7736 0.3465
C24 C 0.7239(3) 0.9033(3) 0.1014(3)
H12 H 0.7563 0.9283 0.1469
C25 C 0.6423(3) 0.9008(3) 0.0877(3)
H13 H 0.6194 0.9235 0.1236
C26 C 0.5948(3) 0.8647(4) 0.0211(3)
H14 H 0.5392 0.8614 0.0111
C27 C 0.6298(3) 0.8338(4) -0.0307(3)
H15 H 0.5985 0.8102 -0.0776
C28 C 0.7109(3) 0.8379(3) -0.0130(3)
H16 H 0.7348 0.8162 -0.0485
N1 N 0.7583(2) 0.8716(2) 0.0527(2)
N2 N 0.8031(3) 0.5671(2) 0.6257(2)
O1 O 0.8626(2) 0.8431(2) 0.2283(2)
O2 O 0.9102(2) 0.7719(2) 0.15134(18)
O3 O 0.8432(2) 0.7385(2) 0.4775(2)
O4 O 0.8933(2) 0.6215(2) 0.51275(19)
O5 O 1.0084(2) 0.4720(2) 0.3586(2)
O6 O 0.9976(2) 0.5011(2) 0.2349(2)
O7 O 1.0703(2) 1.03540(19) 0.87738(19)
O8 O 1.1468(3) 0.9775(2) 0.8154(3)
O9 O 1.0265(2) 0.7344(2) 0.67106(19)
O10 O 0.9190(2) 0.68939(19) 0.69625(19)
O11 O 0.9324(2) 0.85719(19) 1.00735(19)
O12 O 0.8463(2) 0.7818(2) 0.9219(2)
Zn1 Zn 0.87946(3) 0.86551(3) 0.08801(3)
Zn2 Zn 0.91235(3) 0.60696(3) 0.62361(3)
O5B O 0.9916(2) 0.5280(2) 0.6414(2)
O7B O 0.9297(2) 0.96460(19) 0.12262(19)
O11_2 O 0.9324(2) 0.85719(19) 0.00735(19)
Zn1_2 Zn 0.87946(3) 0.86551(3) 1.08801(3)
Zn1B Zn 1.12054(3) 1.13449(3) 0.91199(3)
Zn2B Zn 1.08765(3) 0.39304(3) 0.37639(3)
C29 C 0.7804(3) 1.1604(3) 0.6284(3)
H17 H 0.7257 1.1702 0.6033
C30 C 0.8223(3) 1.2075(3) 0.6883(3)
H18 H 0.7964 1.2494 0.7035
C31 C 0.9009(3) 1.1945(3) 0.7259(3)
H19 H 0.9296 1.2258 0.7683
C32 C 0.9375(3) 1.1341(3) 0.7006(3)
H20 H 0.9922 1.1241 0.7255
C33 C 0.8947(3) 1.0885(3) 0.6394(3)
C34 C 0.9278(3) 1.0246(3) 0.6085(3)
C35 C 1.0078(3) 1.0066(4) 0.6327(3)
H21 H 1.0448 1.0371 0.6706
C36 C 1.0326(3) 0.9442(4) 0.6010(3)
H22 H 1.0874 0.9317 0.6160
C37 C 0.9790(4) 0.8999(4) 0.5480(4)
H23 H 0.9961 0.8557 0.5272
C38 C 0.9004(3) 0.9192(3) 0.5249(3)
H24 H 0.8635 0.8879 0.4879
C39 C 0.6060(3) 1.1125(3) 0.4617(3)
H25 H 0.6273 1.1282 0.4218
C40 C 0.5360(3) 1.1450(3) 0.4633(3)
H26 H 0.5095 1.1816 0.4252
C41 C 0.5052(3) 1.1230(3) 0.5213(3)
H27 H 0.4577 1.1455 0.5249
C42 C 0.5442(3) 1.0680(3) 0.5744(3)
H28 H 0.5231 1.0517 0.6142
C43 C 0.6142(3) 1.0364(3) 0.5693(3)
C44 C 0.6617(3) 0.9796(3) 0.6244(3)
C45 C 0.6378(3) 0.9455(3) 0.6825(3)
H29 H 0.5867 0.9559 0.6865
C46 C 0.6879(3) 0.8966(3) 0.7345(3)
H30 H 0.6724 0.8740 0.7754
C47 C 0.7614(4) 0.8808(3) 0.7265(3)
H31 H 0.7972 0.8474 0.7621
C48 C 0.7819(3) 0.9142(3) 0.6663(3)
H32 H 0.8321 0.9026 0.6607
C49 C 0.7932(3) 1.1468(3) 0.4252(3)
H33 H 0.8069 1.1765 0.4716
C50 C 0.7982(3) 1.1796(4) 0.3565(3)
H34 H 0.8149 1.2311 0.3562
C51 C 0.7789(3) 1.1370(4) 0.2889(3)
H35 H 0.7829 1.1585 0.2418
C52 C 0.7541(3) 1.0635(4) 0.2907(3)
H36 H 0.7398 1.0336 0.2445
C53 C 0.7495(3) 1.0324(4) 0.3599(3)
C54 C 0.7184(3) 0.9550(4) 0.3682(3)
C55 C 0.6965(4) 0.9026(4) 0.3078(4)
H37 H 0.7007 0.9149 0.2579
C56 C 0.6678(4) 0.8303(4) 0.3216(4)
H38 H 0.6515 0.7942 0.2804
C57 C 0.6635(4) 0.8123(4) 0.3940(4)
H39 H 0.6439 0.7642 0.4041
C58 C 0.6887(3) 0.8671(3) 0.4520(3)
H40 H 0.6879 0.8543 0.5030
N3 N 0.8152(2) 1.1006(2) 0.6042(2)
N4 N 0.8737(2) 0.9819(2) 0.5533(2)
N5 N 0.6461(2) 1.0597(2) 0.5134(2)
N6 N 0.7336(2) 0.9624(2) 0.6152(2)
N7 N 0.7692(2) 1.0740(2) 0.4275(2)
N8 N 0.7140(3) 0.9367(3) 0.4407(2)
Ru1 Ru 0.75791(2) 1.01899(2) 0.52450(2)
O13 O 0.7736(3) 0.7514(3) 0.5924(2)
O14 O 0.6111(3) 0.7412(3) 0.5757(3)
H41 H 0.6411 0.7273 0.5441
H42 H 0.5774 0.7011 0.5783
loop_
_geom_bond_atom_site_label_1
_geom_bond_atom_site_label_2
_geom_bond_site_symmetry_1
_geom_bond_site_symmetry_2
C1 H1 1_555 1_555
C2 C1 1_555 1_555
H2 C2 1_555 1_555
C3 C2 1_555 1_555
H3 C3 1_555 1_555
C4 C3 1_555 1_555
H4 C4 1_555 1_555
C5 C4 1_555 1_555
H5 C5 1_555 1_555
C6 C7 1_555 1_555
C7 C8 1_555 1_555
C8 H6 1_555 1_555
C9 C8 1_555 1_555
C10 C9 1_555 1_555
C11 C9 1_555 1_555
H7 C11 1_555 1_555
C12 C11 1_555 1_555
C13 C12 1_555 1_555
C14 C7 1_555 1_555
H8 C14 1_555 1_555
C15 C16 1_555 1_555
C16 C17 1_555 1_555
C17 H9 1_555 1_555
C18 C17 1_555 1_555
C19 C18 1_555 1_555
C20 C18 1_555 1_555
H10 C20 1_555 1_555
C21 C20 1_555 1_555
C22 C21 1_555 1_555
C23 C16 1_555 1_555
H11 C23 1_555 1_555
C24 H12 1_555 1_555
C25 C24 1_555 1_555
H13 C25 1_555 1_555
C26 C25 1_555 1_555
H14 C26 1_555 1_555
C27 C26 1_555 1_555
H15 C27 1_555 1_555
C28 C27 1_555 1_555
H16 C28 1_555 1_555
N1 C24 1_555 1_555
N2 C1 1_555 1_555
O1 C22 1_555 1_555
O2 C22 1_555 1_555
O3 C15 1_555 1_555
O4 C15 1_555 1_555
O5 C19 1_555 1_555
O6 C19 1_555 1_555
O7 C13 1_555 1_555
O8 C13 1_555 1_555
O9 C6 1_555 1_555
O10 C6 1_555 1_555
O11 C10 1_555 1_555
O12 C10 1_555 1_555
Zn1 N1 1_555 1_555
Zn2 N2 1_555 1_555
C29 H17 1_555 1_555
C30 C29 1_555 1_555
H18 C30 1_555 1_555
C31 C30 1_555 1_555
H19 C31 1_555 1_555
C32 C31 1_555 1_555
H20 C32 1_555 1_555
C33 C32 1_555 1_555
C34 C33 1_555 1_555
C35 C34 1_555 1_555
H21 C35 1_555 1_555
C36 C35 1_555 1_555
H22 C36 1_555 1_555
C37 C36 1_555 1_555
H23 C37 1_555 1_555
C38 C37 1_555 1_555
H24 C38 1_555 1_555
C39 H25 1_555 1_555
C40 C39 1_555 1_555
H26 C40 1_555 1_555
C41 C40 1_555 1_555
H27 C41 1_555 1_555
C42 C41 1_555 1_555
H28 C42 1_555 1_555
C43 C42 1_555 1_555
C44 C43 1_555 1_555
C45 C44 1_555 1_555
H29 C45 1_555 1_555
C46 C45 1_555 1_555
H30 C46 1_555 1_555
C47 C46 1_555 1_555
H31 C47 1_555 1_555
C48 C47 1_555 1_555
H32 C48 1_555 1_555
C49 H33 1_555 1_555
C50 C49 1_555 1_555
H34 C50 1_555 1_555
C51 C50 1_555 1_555
H35 C51 1_555 1_555
C52 C51 1_555 1_555
H36 C52 1_555 1_555
C53 C52 1_555 1_555
C54 C53 1_555 1_555
C55 C54 1_555 1_555
H37 C55 1_555 1_555
C56 C55 1_555 1_555
H38 C56 1_555 1_555
C57 C56 1_555 1_555
H39 C57 1_555 1_555
C58 C57 1_555 1_555
H40 C58 1_555 1_555
N3 C29 1_555 1_555
N4 C34 1_555 1_555
N5 C39 1_555 1_555
N6 C44 1_555 1_555
N7 C49 1_555 1_555
N8 C54 1_555 1_555
Ru1 N3 1_555 1_555
O14 H41 1_555 1_555
H42 O14 1_555 1_555
O5B Zn2 1_555 1_555
O7B Zn1 1_555 1_555
O11_2 Zn1 1_555 1_555
Zn1_2 O11 1_555 1_555
Zn1B O7 1_555 1_555
Zn2B O5 1_555 1_555
C5 N2 1_555 1_555
C12 C14 1_555 1_555
C21 C23 1_555 1_555
C28 N1 1_555 1_555
O2 Zn1 1_555 1_555
O4 Zn2 1_555 1_555
O10 Zn2 1_555 1_555
C33 N3 1_555 1_555
C38 N4 1_555 1_555
C43 N5 1_555 1_555
C48 N6 1_555 1_555
C53 N7 1_555 1_555
C58 N8 1_555 1_555
N4 Ru1 1_555 1_555
N5 Ru1 1_555 1_555
N6 Ru1 1_555 1_555
N7 Ru1 1_555 1_555
N8 Ru1 1_555 1_555

#END
