
#######################################################################
#
#                 Cambridge Crystallographic Data Centre
#                                CCDC 
#
#######################################################################
#
# If this CIF has been generated from an entry in the Cambridge 
# Structural Database, then it will include bibliographic, chemical, 
# crystal, experimental, refinement or atomic coordinate data resulting 
# from the CCDC's data processing and validation procedures.
#
#######################################################################

data_YOTDUH
_symmetry_cell_setting           monoclinic
_symmetry_space_group_name_H-M   'C 2'
_symmetry_Int_Tables_number      5
_space_group_name_Hall           'C 2y'
loop_
_symmetry_equiv_pos_site_id
_symmetry_equiv_pos_as_xyz
1 x,y,z
2 -x,y,-z
3 1/2+x,1/2+y,z
4 1/2-x,1/2+y,-z
_cell_length_a                   11.0110(10)
_cell_length_b                   6.6434(6)
_cell_length_c                   14.4470(10)
_cell_angle_alpha                90
_cell_angle_beta                 100.350(7)
_cell_angle_gamma                90
_cell_volume                     1039.61
loop_
_atom_site_label
_atom_site_type_symbol
_atom_site_fract_x
_atom_site_fract_y
_atom_site_fract_z
Cl1 Cl 0.38269(5) 0.04628(9) 0.25363(4)
S1 S 0.36260(4) 0.41295(8) 0.33507(3)
Na1 Na 0.14461(8) 0.19582(15) 0.47389(6)
O1 O 0.24978(13) 0.3583(3) 0.36677(10)
O2 O 0.43766(13) 0.5621(3) 0.39333(10)
O3 O 0.29326(15) 0.3727(3) 0.59025(12)
H1 H 0.258(3) 0.402(5) 0.6345(18)
H2 H 0.354(3) 0.324(5) 0.615(2)
O4 O 0.0000 0.4675(4) 0.5000
H3 H -0.015(3) 0.534(5) 0.4534(18)
N1 N 0.45553(16) 0.2319(3) 0.32989(12)
C1 C 0.31412(18) 0.5172(3) 0.22046(13)
C2 C 0.3987(2) 0.5799(4) 0.16471(15)
C3 C 0.3489(3) 0.6595(4) 0.07650(16)
H4 H 0.4026 0.7045 0.0380
C4 C 0.2246(3) 0.6740(5) 0.04438(17)
H5 H 0.1954 0.7255 -0.0153
C5 C 0.1428(3) 0.6125(5) 0.10021(19)
H6 H 0.0582 0.6233 0.0788
C6 C 0.1876(2) 0.5343(4) 0.18857(16)
H7 H 0.1328 0.4930 0.2268
C7 C 0.5365(2) 0.5657(5) 0.19499(17)
H8 H 0.5600 0.4270 0.2040
H9 H 0.5610 0.6378 0.2529
H10 H 0.5763 0.6233 0.1473
Cl1B Cl -0.11731(5) -0.45372(9) 0.25363(4)
S1B S -0.13740(4) -0.08705(8) 0.33507(3)
Na1B Na -0.35539(8) -0.30418(15) 0.47389(6)
Na1B_2 Na 0.64461(8) 0.69582(15) 0.47389(6)
Na1C Na 0.35539(8) 0.69582(15) 0.52611(6)
Na1A Na -0.14461(8) 0.19582(15) 0.52611(6)
Na1C_2 Na 0.35539(8) -0.30418(15) 0.52611(6)
O1B O -0.25022(13) -0.1417(3) 0.36677(10)
O2B O -0.06234(13) 0.0621(3) 0.39333(10)
O2C O 0.06234(13) 0.0621(3) 0.60667(10)
O2_2 O -0.56234(13) -0.4379(3) 0.39333(10)
O2A O -0.43766(13) -0.4379(3) 0.60667(10)
O3C O 0.20674(15) -0.1273(3) 0.40975(12)
O3B O -0.20674(15) -0.1273(3) 0.59025(12)
O3A O -0.29326(15) -0.6273(3) 0.40975(12)
H1C H 0.242(3) -0.098(5) 0.3655(18)
H1B H -0.242(3) -0.098(5) 0.6345(18)
H1A H -0.258(3) -0.598(5) 0.3655(18)
H2C H 0.146(3) -0.176(5) 0.385(2)
H2B H -0.146(3) -0.176(5) 0.615(2)
H2A H -0.354(3) -0.676(5) 0.385(2)
O4B O -0.5000 -0.0325(4) 0.5000
H3A H 0.015(3) 0.534(5) 0.5466(18)
H3B H -0.515(3) 0.034(5) 0.4534(18)
H3C H -0.485(3) 0.034(5) 0.5466(18)
N1B N -0.04447(16) -0.2681(3) 0.32989(12)
C1B C -0.18588(18) 0.0172(3) 0.22046(13)
C2B C -0.1013(2) 0.0799(4) 0.16471(15)
C3B C -0.1511(3) 0.1595(4) 0.07650(16)
H4B H -0.0974 0.2045 0.0380
C4B C -0.2754(3) 0.1740(5) 0.04438(17)
H5B H -0.3046 0.2255 -0.0153
C5B C -0.3572(3) 0.1125(5) 0.10021(19)
H6B H -0.4418 0.1233 0.0788
C6B C -0.3124(2) 0.0343(4) 0.18857(16)
H7B H -0.3672 -0.0070 0.2268
C7B C 0.0365(2) 0.0657(5) 0.19499(17)
H8B H 0.0600 -0.0730 0.2040
H9B H 0.0610 0.1378 0.2529
H10B H 0.0763 0.1233 0.1473
loop_
_geom_bond_atom_site_label_1
_geom_bond_atom_site_label_2
_geom_bond_site_symmetry_1
_geom_bond_site_symmetry_2
Cl1 N1 1_555 1_555
S1 O1 1_555 1_555
Na1 O1 1_555 1_555
O2 S1 1_555 1_555
O3 Na1 1_555 1_555
H1 O3 1_555 1_555
H2 O3 1_555 1_555
O4 Na1 1_555 1_555
H3 O4 1_555 1_555
N1 S1 1_555 1_555
C1 S1 1_555 1_555
C2 C1 1_555 1_555
C3 C2 1_555 1_555
H4 C3 1_555 1_555
C4 C3 1_555 1_555
H5 C4 1_555 1_555
C5 C4 1_555 1_555
H6 C5 1_555 1_555
C6 C1 1_555 1_555
H7 C6 1_555 1_555
C7 C2 1_555 1_555
H8 C7 1_555 1_555
H9 C7 1_555 1_555
H10 C7 1_555 1_555
Cl1B N1B 1_555 1_555
S1B O1B 1_555 1_555
Na1B O1B 1_555 1_555
Na1B_2 O2 1_555 1_555
Na1C O2 1_555 1_555
Na1A O4 1_555 1_555
Na1C_2 O3C 1_555 1_555
O2B Na1 1_555 1_555
O2C Na1 1_555 1_555
O2_2 Na1B 1_555 1_555
O2A Na1B 1_555 1_555
O3C Na1 1_555 1_555
O3B Na1B 1_555 1_555
O3A Na1B 1_555 1_555
H1C O3C 1_555 1_555
H1B O3B 1_555 1_555
H1A O3A 1_555 1_555
H2C O3C 1_555 1_555
H2B O3B 1_555 1_555
H2A O3A 1_555 1_555
O4B Na1B 1_555 1_555
H3A O4 1_555 1_555
H3B O4B 1_555 1_555
H3C O4B 1_555 1_555
N1B S1B 1_555 1_555
C1B S1B 1_555 1_555
C2B C1B 1_555 1_555
C3B C2B 1_555 1_555
H4B C3B 1_555 1_555
C4B C3B 1_555 1_555
H5B C4B 1_555 1_555
C5B C4B 1_555 1_555
H6B C5B 1_555 1_555
C6B C1B 1_555 1_555
H7B C6B 1_555 1_555
C7B C2B 1_555 1_555
H8B C7B 1_555 1_555
H9B C7B 1_555 1_555
H10B C7B 1_555 1_555
O3 Na1C 1_555 1_555
C5 C6 1_555 1_555
S1B O2B 1_555 1_555
Na1A O2B 1_555 1_555
Na1A O2C 1_555 1_555
Na1A O3B 1_555 1_555
C5B C6B 1_555 1_555

#END
