
#######################################################################
#
#                 Cambridge Crystallographic Data Centre
#                                CCDC 
#
#######################################################################
#
# If this CIF has been generated from an entry in the Cambridge 
# Structural Database, then it will include bibliographic, chemical, 
# crystal, experimental, refinement or atomic coordinate data resulting 
# from the CCDC's data processing and validation procedures.
#
#######################################################################

data_YOTFIX
_symmetry_cell_setting           monoclinic
_symmetry_space_group_name_H-M   'P 21/c'
_symmetry_Int_Tables_number      14
_space_group_name_Hall           '-P 2ybc'
loop_
_symmetry_equiv_pos_site_id
_symmetry_equiv_pos_as_xyz
1 x,y,z
2 -x,1/2+y,1/2-z
3 -x,-y,-z
4 x,1/2-y,1/2+z
_cell_length_a                   10.916(4)
_cell_length_b                   7.017(2)
_cell_length_c                   19.690(7)
_cell_angle_alpha                90
_cell_angle_beta                 99.353(7)
_cell_angle_gamma                90
_cell_volume                     1488.16
loop_
_atom_site_label
_atom_site_type_symbol
_atom_site_fract_x
_atom_site_fract_y
_atom_site_fract_z
Co1 Co 0.34886(10) 0.82399(16) 0.17466(5)
S1 S 0.56896(17) 0.4999(3) 0.16741(9)
N1 N 0.1702(5) 0.6658(8) 0.1762(3)
N2 N 0.2484(5) 0.8137(8) 0.0647(2)
N3 N -0.2426(5) 0.6042(7) 0.0324(3)
H1 H -0.2918 0.5566 0.0579
N4 N -0.1771(5) 0.7193(8) -0.0599(2)
O1 O 0.2408(5) 1.0847(8) 0.1803(2)
O2 O 0.5124(5) 0.9751(8) 0.1509(3)
O3 O 0.4411(4) 0.5535(6) 0.1725(2)
O4 O 0.5748(4) 0.4383(7) 0.09768(19)
O5 O 0.6524(4) 0.6627(7) 0.18635(19)
O6 O 0.6059(4) 0.3399(6) 0.21441(19)
C1 C 0.1378(7) 0.5856(9) 0.2311(3)
H2 H 0.1966 0.5749 0.2708
C2 C 0.0173(7) 0.5157(10) 0.2320(3)
H3 H -0.0017 0.4581 0.2715
C3 C -0.0704(7) 0.5316(10) 0.1759(3)
H4 H -0.1503 0.4864 0.1764
C4 C -0.0385(6) 0.6200(9) 0.1152(3)
C5 C -0.1175(6) 0.6462(10) 0.0526(3)
C6 C -0.2719(6) 0.6509(10) -0.0334(3)
H5 H -0.3512 0.6371 -0.0585
C7 C -0.0817(6) 0.7170(10) -0.0066(3)
C8 C 0.0452(6) 0.7759(9) -0.0039(3)
C9 C 0.0918(7) 0.8457(9) -0.0621(3)
H6 H 0.0403 0.8592 -0.1043
C10 C 0.2155(7) 0.8930(10) -0.0542(3)
H7 H 0.2491 0.9375 -0.0917
C11 C 0.2904(7) 0.8744(9) 0.0098(3)
H8 H 0.3740 0.9063 0.0138
C12 C 0.1267(6) 0.7589(9) 0.0569(3)
C13 C 0.0858(6) 0.6824(10) 0.1185(3)
H9 H 0.213(6) 1.151(9) 0.146(2)
H10 H 0.549(6) 1.076(5) 0.159(3)
H11 H 0.291(5) 1.130(10) 0.212(2)
H12 H 0.570(4) 0.898(7) 0.160(3)
Co1A Co 0.65114(10) 0.32399(16) 0.32534(5)
O6A O 0.3941(4) 0.8399(6) 0.28559(19)
loop_
_geom_bond_atom_site_label_1
_geom_bond_atom_site_label_2
_geom_bond_site_symmetry_1
_geom_bond_site_symmetry_2
Co1 N1 1_555 1_555
S1 O3 1_555 1_555
N1 C1 1_555 1_555
N2 Co1 1_555 1_555
N3 H1 1_555 1_555
N4 C6 1_555 1_555
O1 Co1 1_555 1_555
O2 Co1 1_555 1_555
O3 Co1 1_555 1_555
O4 S1 1_555 1_555
O5 S1 1_555 1_555
O6 S1 1_555 1_555
C1 H2 1_555 1_555
C2 C1 1_555 1_555
H3 C2 1_555 1_555
C3 C2 1_555 1_555
H4 C3 1_555 1_555
C4 C3 1_555 1_555
C5 N3 1_555 1_555
C6 N3 1_555 1_555
H5 C6 1_555 1_555
C7 N4 1_555 1_555
C8 C7 1_555 1_555
C9 C8 1_555 1_555
H6 C9 1_555 1_555
C10 C9 1_555 1_555
H7 C10 1_555 1_555
C11 N2 1_555 1_555
H8 C11 1_555 1_555
C12 N2 1_555 1_555
C13 N1 1_555 1_555
H9 O1 1_555 1_555
H10 O2 1_555 1_555
H11 O1 1_555 1_555
H12 O2 1_555 1_555
Co1A O6 1_555 1_555
O6A Co1 1_555 1_555
C4 C5 1_555 1_555
C4 C13 1_555 1_555
C5 C7 1_555 1_555
C8 C12 1_555 1_555
C10 C11 1_555 1_555
C12 C13 1_555 1_555

#END
