
#######################################################################
#
#                 Cambridge Crystallographic Data Centre
#                                CCDC 
#
#######################################################################
#
# If this CIF has been generated from an entry in the Cambridge 
# Structural Database, then it will include bibliographic, chemical, 
# crystal, experimental, refinement or atomic coordinate data resulting 
# from the CCDC's data processing and validation procedures.
#
#######################################################################

data_YOTFAP
_symmetry_cell_setting           monoclinic
_symmetry_space_group_name_H-M   'P 21/c'
_symmetry_Int_Tables_number      14
_space_group_name_Hall           '-P 2ybc'
loop_
_symmetry_equiv_pos_site_id
_symmetry_equiv_pos_as_xyz
1 x,y,z
2 -x,1/2+y,1/2-z
3 -x,-y,-z
4 x,1/2-y,1/2+z
_cell_length_a                   10.021(2)
_cell_length_b                   16.980(3)
_cell_length_c                   15.327(5)
_cell_angle_alpha                90
_cell_angle_beta                 129.09(2)
_cell_angle_gamma                90
_cell_volume                     2024.21
loop_
_atom_site_label
_atom_site_type_symbol
_atom_site_fract_x
_atom_site_fract_y
_atom_site_fract_z
Ni1 Ni 0.55530(3) 0.434786(13) 0.82246(2)
O1 O 0.38387(19) 0.39460(8) 0.99825(13)
O2 O 0.76448(17) 0.50597(8) 0.94690(12)
H1 H 0.7283 0.5441 0.9617
H2 H 0.8137 0.4736 1.0003
O3 O 0.27333(18) 0.27960(9) 0.91361(14)
O4 O 0.39504(19) 0.49621(9) 0.84828(13)
H3 H 0.4521 0.5341 0.8920
H4 H 0.3796 0.4618 0.8805
O5 O 0.59904(17) 0.35753(8) 0.93858(11)
O6 O 0.86749(19) 0.39056(10) 1.08603(13)
N1 N 0.7201(2) 0.12699(10) 1.30627(14)
N2 N 0.9708(2) 0.15869(11) 1.34962(15)
H5 H 1.0793 0.1579 1.3837
N3 N 0.3234(2) 0.38391(10) 0.68890(14)
N4 N 0.4878(3) 0.51071(11) 0.69453(16)
C1 C 0.5577(2) 0.27971(11) 1.08394(16)
C2 C 0.7187(2) 0.29902(11) 1.11273(16)
C3 C 0.8679(2) 0.26360(12) 1.20388(17)
H6 H 0.9750 0.2773 1.2257
C4 C 0.8508(2) 0.20687(12) 1.26130(16)
C5 C 0.6930(2) 0.18664(11) 1.23392(16)
C6 C 0.5439(2) 0.22434(11) 1.14394(17)
H7 H 0.4378 0.2125 1.1248
C7 C 0.8876(3) 0.11334(13) 1.37258(18)
H8 H 0.9419 0.0759 1.4296
C8 C 0.3932(2) 0.32055(12) 0.98969(17)
C9 C 0.7307(2) 0.35399(11) 1.04114(17)
C10 C 0.2431(3) 0.32210(15) 0.6884(2)
H9 H 0.2925 0.2953 0.7554
C11 C 0.0856(3) 0.29550(19) 0.5899(3)
H10 H 0.0322 0.2514 0.5915
C12 C 0.0117(3) 0.33512(19) 0.4919(2)
H11 H -0.0927 0.3178 0.4263
C13 C 0.0909(3) 0.40118(17) 0.4888(2)
C14 C 0.0237(4) 0.4466(2) 0.3894(2)
H12 H -0.0821 0.4332 0.3217
C15 C 0.1116(5) 0.5081(2) 0.3928(2)
H13 H 0.0667 0.5352 0.3268
C16 C 0.2709(4) 0.53257(17) 0.4943(2)
C17 C 0.3695(5) 0.59590(19) 0.5046(3)
H14 H 0.3296 0.6257 0.4415
C18 C 0.5209(5) 0.61432(19) 0.6043(3)
H15 H 0.5865 0.6558 0.6099
C19 C 0.5781(4) 0.57061(14) 0.6991(3)
H16 H 0.6827 0.5836 0.7678
C20 C 0.3383(3) 0.49073(13) 0.59409(19)
C21 C 0.2485(3) 0.42380(14) 0.59078(19)
Ni1C Ni 0.55530(3) 0.065214(13) 1.32246(2)
N1C N 0.7201(2) 0.37301(10) 0.80627(14)
loop_
_geom_bond_atom_site_label_1
_geom_bond_atom_site_label_2
_geom_bond_site_symmetry_1
_geom_bond_site_symmetry_2
Ni1 O2 1_555 1_555
O1 C8 1_555 1_555
O2 H1 1_555 1_555
H2 O2 1_555 1_555
O3 C8 1_555 1_555
O4 Ni1 1_555 1_555
H3 O4 1_555 1_555
H4 O4 1_555 1_555
O5 Ni1 1_555 1_555
O6 C9 1_555 1_555
N1 C5 1_555 1_555
N2 H5 1_555 1_555
N3 Ni1 1_555 1_555
N4 Ni1 1_555 1_555
C1 C2 1_555 1_555
C2 C3 1_555 1_555
C3 H6 1_555 1_555
C4 N2 1_555 1_555
C5 C4 1_555 1_555
C6 C1 1_555 1_555
H7 C6 1_555 1_555
C7 N1 1_555 1_555
H8 C7 1_555 1_555
C8 C1 1_555 1_555
C9 O5 1_555 1_555
C10 N3 1_555 1_555
H9 C10 1_555 1_555
C11 C10 1_555 1_555
H10 C11 1_555 1_555
C12 C11 1_555 1_555
H11 C12 1_555 1_555
C13 C12 1_555 1_555
C14 C13 1_555 1_555
H12 C14 1_555 1_555
C15 C14 1_555 1_555
H13 C15 1_555 1_555
C16 C15 1_555 1_555
C17 C16 1_555 1_555
H14 C17 1_555 1_555
C18 C17 1_555 1_555
H15 C18 1_555 1_555
C19 N4 1_555 1_555
H16 C19 1_555 1_555
C20 N4 1_555 1_555
C21 N3 1_555 1_555
Ni1C N1 1_555 1_555
N1C Ni1 1_555 1_555
N2 C7 1_555 1_555
C2 C9 1_555 1_555
C3 C4 1_555 1_555
C5 C6 1_555 1_555
C13 C21 1_555 1_555
C16 C20 1_555 1_555
C18 C19 1_555 1_555
C20 C21 1_555 1_555

#END
