
#######################################################################
#
#                 Cambridge Crystallographic Data Centre
#                                CCDC 
#
#######################################################################
#
# If this CIF has been generated from an entry in the Cambridge 
# Structural Database, then it will include bibliographic, chemical, 
# crystal, experimental, refinement or atomic coordinate data resulting 
# from the CCDC's data processing and validation procedures.
#
#######################################################################

data_YOTGIY
_symmetry_cell_setting           monoclinic
_symmetry_space_group_name_H-M   'C 2/c'
_symmetry_Int_Tables_number      15
_space_group_name_Hall           '-C 2yn'
loop_
_symmetry_equiv_pos_site_id
_symmetry_equiv_pos_as_xyz
1 x,y,z
2 -x,y,1/2-z
3 1/2+x,1/2+y,z
4 1/2-x,1/2+y,1/2-z
5 -x,-y,-z
6 x,-y,1/2+z
7 1/2-x,1/2-y,-z
8 1/2+x,1/2-y,1/2+z
_cell_length_a                   12.361(3)
_cell_length_b                   12.281(3)
_cell_length_c                   7.3431(15)
_cell_angle_alpha                90
_cell_angle_beta                 117.25(3)
_cell_angle_gamma                90
_cell_volume                     991.007
loop_
_atom_site_label
_atom_site_type_symbol
_atom_site_fract_x
_atom_site_fract_y
_atom_site_fract_z
K1 K 0.5000 0.0000 0.5000
C1 C 0.5000 0.5325(2) 0.7500
C2 C 0.5000 0.4124(2) 0.7500
N1 N 0.60000(14) 0.59305(13) 0.8162(3)
C3 C 0.60283(18) 0.35391(16) 0.7821(3)
H1 H 0.6742 0.3897 0.8050
N2 N 0.55965(15) 0.69599(13) 0.7896(3)
N3 N 0.5000 0.18446(19) 0.7500
C4 C 0.5980(2) 0.24208(17) 0.7797(4)
H2 H 0.6678 0.2041 0.8000
O1 O 0.34559(12) 0.08972(11) 0.1308(2)
H3 H 0.2731 0.0885 0.0381
H4 H 0.3654 0.1588 0.1421
K1A K 0.5000 0.0000 1.0000
K1A_2 K 0.5000 0.0000 0.0000
N1A N 0.40000(14) 0.59305(13) 0.6838(3)
C3A C 0.39717(18) 0.35391(16) 0.7179(3)
H1A H 0.3258 0.3897 0.6950
N2A N 0.44035(15) 0.69599(13) 0.7104(3)
N3D N 0.5000 -0.18446(19) 0.2500
C4A C 0.4020(2) 0.24208(17) 0.7203(4)
H2A H 0.3322 0.2041 0.7000
O1A O 0.65441(12) 0.08972(11) 0.3692(2)
O1D O 0.65441(12) -0.08972(11) 0.8692(2)
O1E O 0.34559(12) -0.08972(11) 0.6308(2)
H3A H 0.7269 0.0885 0.4619
H3D H 0.7269 -0.0885 0.9619
H3E H 0.2731 -0.0885 0.5381
H4A H 0.6346 0.1588 0.3579
H4D H 0.6346 -0.1588 0.8579
H4E H 0.3654 -0.1588 0.6421
loop_
_geom_bond_atom_site_label_1
_geom_bond_atom_site_label_2
_geom_bond_site_symmetry_1
_geom_bond_site_symmetry_2
K1 N3 1_555 1_555
C1 C2 1_555 1_555
C2 C3 1_555 1_555
N1 C1 1_555 1_555
C3 H1 1_555 1_555
N2 N1 1_555 1_555
N3 C4 1_555 1_555
C4 C3 1_555 1_555
H2 C4 1_555 1_555
O1 K1 1_555 1_555
H3 O1 1_555 1_555
H4 O1 1_555 1_555
K1A N3 1_555 1_555
K1A_2 O1 1_555 1_555
N1A C1 1_555 1_555
C3A C2 1_555 1_555
H1A C3A 1_555 1_555
N2A N2 1_555 1_555
N3D K1 1_555 1_555
C4A N3 1_555 1_555
H2A C4A 1_555 1_555
O1A K1 1_555 1_555
O1D K1 1_555 1_555
O1E K1 1_555 1_555
H3A O1A 1_555 1_555
H3D O1D 1_555 1_555
H3E O1E 1_555 1_555
H4A O1A 1_555 1_555
H4D O1D 1_555 1_555
H4E O1E 1_555 1_555
K1A O1D 1_555 1_555
K1A O1E 1_555 1_555
K1A_2 N3D 1_555 1_555
K1A_2 O1A 1_555 1_555
N1A N2A 1_555 1_555
C3A C4A 1_555 1_555

#END
