
#######################################################################
#
#                 Cambridge Crystallographic Data Centre
#                                CCDC 
#
#######################################################################
#
# If this CIF has been generated from an entry in the Cambridge 
# Structural Database, then it will include bibliographic, chemical, 
# crystal, experimental, refinement or atomic coordinate data resulting 
# from the CCDC's data processing and validation procedures.
#
#######################################################################

data_YOTQUV
_symmetry_cell_setting           monoclinic
_symmetry_space_group_name_H-M   'P 21/c'
_symmetry_Int_Tables_number      14
_space_group_name_Hall           '-P 2ybc'
loop_
_symmetry_equiv_pos_site_id
_symmetry_equiv_pos_as_xyz
1 x,y,z
2 -x,1/2+y,1/2-z
3 -x,-y,-z
4 x,1/2-y,1/2+z
_cell_length_a                   7.0489(6)
_cell_length_b                   10.8422(7)
_cell_length_c                   8.0341(7)
_cell_angle_alpha                90
_cell_angle_beta                 107.826(9)
_cell_angle_gamma                90
_cell_volume                     584.532
loop_
_atom_site_label
_atom_site_type_symbol
_atom_site_fract_x
_atom_site_fract_y
_atom_site_fract_z
Ca1 Ca 0.0000 0.0000 0.0000
O1 O -0.0186(4) 0.1652(3) 0.1838(4)
C1 C 0.4163(6) 0.2417(4) 0.5433(5)
H1 H 0.4339 0.3248 0.5138
O2 O 0.6601(4) 0.0198(3) 0.8673(4)
C2 C 0.0858(6) 0.2356(4) 0.3023(5)
N1 N 0.5294(5) 0.0707(3) 0.7300(4)
O3 O 0.0586(4) 0.3495(2) 0.3122(4)
C3 C 0.2472(6) 0.1767(4) 0.4478(5)
C4 C 0.2299(6) 0.0551(4) 0.4962(5)
H2 H 0.1210 0.0065 0.4296
C5 C 0.5571(6) 0.1865(4) 0.6794(5)
H3 H 0.6755 0.2299 0.7389
C6 C 0.3683(6) 0.0043(3) 0.6391(6)
H4 H 0.3510 -0.0775 0.6742
O1B O 0.0186(4) -0.1652(3) -0.1838(4)
C1B C -0.4163(6) -0.2417(4) -0.5433(5)
H1B H -0.4339 -0.3248 -0.5138
O2B O -0.6601(4) -0.0198(3) -0.8673(4)
C2B C -0.0858(6) -0.2356(4) -0.3023(5)
N1B N -0.5294(5) -0.0707(3) -0.7300(4)
O3B O -0.0586(4) -0.3495(2) -0.3122(4)
C3B C -0.2472(6) -0.1767(4) -0.4478(5)
C4B C -0.2299(6) -0.0551(4) -0.4962(5)
H2B H -0.1210 -0.0065 -0.4296
C5B C -0.5571(6) -0.1865(4) -0.6794(5)
H3B H -0.6755 -0.2299 -0.7389
C6B C -0.3683(6) -0.0043(3) -0.6391(6)
H4B H -0.3510 0.0775 -0.6742
Ca1_2 Ca -1.0000 0.0000 -1.0000
Ca1_3 Ca 1.0000 0.0000 1.0000
Ca1A Ca 0.0000 -0.5000 -0.5000
Ca1A_2 Ca 0.0000 0.5000 0.5000
O2_2 O -0.3399(4) 0.0198(3) -0.1327(4)
O2B_2 O 0.3399(4) -0.0198(3) 0.1327(4)
O3A O -0.0586(4) -0.1505(2) 0.1878(4)
O3C O 0.0586(4) 0.1505(2) -0.1878(4)
loop_
_geom_bond_atom_site_label_1
_geom_bond_atom_site_label_2
_geom_bond_site_symmetry_1
_geom_bond_site_symmetry_2
Ca1 O1 1_555 1_555
O1 C2 1_555 1_555
C1 H1 1_555 1_555
O2 N1 1_555 1_555
C2 O3 1_555 1_555
N1 C5 1_555 1_555
O3 Ca1A_2 1_555 1_555
C3 C1 1_555 1_555
C4 C3 1_555 1_555
H2 C4 1_555 1_555
C5 C1 1_555 1_555
H3 C5 1_555 1_555
C6 N1 1_555 1_555
H4 C6 1_555 1_555
O1B Ca1 1_555 1_555
C1B H1B 1_555 1_555
O2B N1B 1_555 1_555
C2B O1B 1_555 1_555
N1B C5B 1_555 1_555
O3B C2B 1_555 1_555
C3B C1B 1_555 1_555
C4B C3B 1_555 1_555
H2B C4B 1_555 1_555
C5B C1B 1_555 1_555
H3B C5B 1_555 1_555
C6B N1B 1_555 1_555
H4B C6B 1_555 1_555
Ca1_2 O2B 1_555 1_555
Ca1_3 O2 1_555 1_555
Ca1A O3B 1_555 1_555
O2_2 Ca1 1_555 1_555
O2B_2 Ca1 1_555 1_555
O3A Ca1 1_555 1_555
O3C Ca1 1_555 1_555
C2 C3 1_555 1_555
C4 C6 1_555 1_555
C2B C3B 1_555 1_555
C4B C6B 1_555 1_555

#END
