
#######################################################################
#
#                 Cambridge Crystallographic Data Centre
#                                CCDC 
#
#######################################################################
#
# If this CIF has been generated from an entry in the Cambridge 
# Structural Database, then it will include bibliographic, chemical, 
# crystal, experimental, refinement or atomic coordinate data resulting 
# from the CCDC's data processing and validation procedures.
#
#######################################################################

data_YOTQOP01
_symmetry_cell_setting           monoclinic
_symmetry_space_group_name_H-M   'P 21/c'
_symmetry_Int_Tables_number      14
_space_group_name_Hall           '-P 2ybc'
loop_
_symmetry_equiv_pos_site_id
_symmetry_equiv_pos_as_xyz
1 x,y,z
2 -x,1/2+y,1/2-z
3 -x,-y,-z
4 x,1/2-y,1/2+z
_cell_length_a                   7.93380(10)
_cell_length_b                   9.83530(10)
_cell_length_c                   8.8614(2)
_cell_angle_alpha                90
_cell_angle_beta                 95.497(2)
_cell_angle_gamma                90
_cell_volume                     688.287
loop_
_atom_site_label
_atom_site_type_symbol
_atom_site_fract_x
_atom_site_fract_y
_atom_site_fract_z
H1 H 0.857(3) 0.522(3) 0.103(2)
H2 H 0.832(3) 0.577(3) -0.0461(16)
Ca1 Ca 0.5000 0.5000 0.0000
O1 O 0.52249(16) 0.36264(12) 0.20500(13)
O2 O 0.96610(15) 0.58064(12) 0.78288(13)
O3 O 0.79201(15) 0.56157(12) 0.03622(14)
O4 O 0.56456(16) 0.17552(12) 0.34382(13)
C1 C 0.8983(2) 0.37848(18) 0.65640(19)
H3 H 0.9735 0.3306 0.7275
N1 N 0.88197(19) 0.51457(14) 0.66794(18)
C2 C 0.69775(19) 0.37772(17) 0.43578(18)
C3 C 0.5865(2) 0.29919(16) 0.31814(18)
C4 C 0.7808(2) 0.58564(17) 0.56399(18)
H4 H 0.7728 0.6817 0.5724
C5 C 0.8061(2) 0.30908(17) 0.54174(19)
H5 H 0.8168 0.2131 0.5351
C6 C 0.6894(2) 0.51891(18) 0.4463(2)
H6 H 0.6207 0.5692 0.3723
H1B H 0.143(3) 0.478(3) -0.103(2)
H2B H 0.168(3) 0.423(3) 0.0461(16)
O1B O 0.47751(16) 0.63736(12) -0.20500(13)
O2B O 0.03390(15) 0.41936(12) -0.78288(13)
O3B O 0.20799(15) 0.43843(12) -0.03622(14)
O4B O 0.43544(16) 0.82448(12) -0.34382(13)
C1B C 0.1017(2) 0.62152(18) -0.65640(19)
H3B H 0.0265 0.6694 -0.7275
N1B N 0.11803(19) 0.48543(14) -0.66794(18)
C2B C 0.30225(19) 0.62228(17) -0.43578(18)
C3B C 0.4135(2) 0.70081(16) -0.31814(18)
C4B C 0.2192(2) 0.41436(17) -0.56399(18)
H4B H 0.2272 0.3183 -0.5724
C5B C 0.1939(2) 0.69092(17) -0.54174(19)
H5B H 0.1832 0.7869 -0.5351
C6B C 0.3106(2) 0.48109(18) -0.4463(2)
H6B H 0.3793 0.4308 -0.3723
Ca1A Ca 0.5000 0.0000 0.5000
Ca1A_2 Ca 0.5000 1.0000 -0.5000
O4A O 0.43544(16) 0.67552(12) 0.15618(13)
O4C O 0.56456(16) 0.32448(12) -0.15618(13)
loop_
_geom_bond_atom_site_label_1
_geom_bond_atom_site_label_2
_geom_bond_site_symmetry_1
_geom_bond_site_symmetry_2
H1 O3 1_555 1_555
H2 O3 1_555 1_555
Ca1 O1 1_555 1_555
O1 C3 1_555 1_555
O2 N1 1_555 1_555
O3 Ca1 1_555 1_555
O4 C3 1_555 1_555
C1 H3 1_555 1_555
N1 C1 1_555 1_555
C2 C3 1_555 1_555
C4 N1 1_555 1_555
H4 C4 1_555 1_555
C5 C1 1_555 1_555
H5 C5 1_555 1_555
C6 C2 1_555 1_555
H6 C6 1_555 1_555
H1B O3B 1_555 1_555
H2B O3B 1_555 1_555
O1B Ca1 1_555 1_555
O2B N1B 1_555 1_555
O3B Ca1 1_555 1_555
O4B C3B 1_555 1_555
C1B H3B 1_555 1_555
N1B C1B 1_555 1_555
C2B C3B 1_555 1_555
C3B O1B 1_555 1_555
C4B N1B 1_555 1_555
H4B C4B 1_555 1_555
C5B C1B 1_555 1_555
H5B C5B 1_555 1_555
C6B C2B 1_555 1_555
H6B C6B 1_555 1_555
Ca1A O4 1_555 1_555
Ca1A_2 O4B 1_555 1_555
O4A Ca1 1_555 1_555
O4C Ca1 1_555 1_555
C2 C5 1_555 1_555
C4 C6 1_555 1_555
C2B C5B 1_555 1_555
C4B C6B 1_555 1_555

#END
