
#######################################################################
#
#                 Cambridge Crystallographic Data Centre
#                                CCDC 
#
#######################################################################
#
# If this CIF has been generated from an entry in the Cambridge 
# Structural Database, then it will include bibliographic, chemical, 
# crystal, experimental, refinement or atomic coordinate data resulting 
# from the CCDC's data processing and validation procedures.
#
#######################################################################

data_YOTSAD
_symmetry_cell_setting           monoclinic
_symmetry_space_group_name_H-M   'C 2/c'
_symmetry_Int_Tables_number      15
_space_group_name_Hall           '-C 2yn'
loop_
_symmetry_equiv_pos_site_id
_symmetry_equiv_pos_as_xyz
1 x,y,z
2 -x,y,1/2-z
3 1/2+x,1/2+y,z
4 1/2-x,1/2+y,1/2-z
5 -x,-y,-z
6 x,-y,1/2+z
7 1/2-x,1/2-y,-z
8 1/2+x,1/2-y,1/2+z
_cell_length_a                   10.2354(19)
_cell_length_b                   15.455(3)
_cell_length_c                   17.536(3)
_cell_angle_alpha                90
_cell_angle_beta                 98.718(3)
_cell_angle_gamma                90
_cell_volume                     2741.94
loop_
_atom_site_label
_atom_site_type_symbol
_atom_site_fract_x
_atom_site_fract_y
_atom_site_fract_z
Ba1 Ba 0.0000 0.21819(2) 0.2500
Ba2 Ba 0.18060(2) 0.03334(2) 0.45055(2)
V1 V 0.19515(4) 0.40097(3) 0.34085(3)
O1 O 0.00362(18) 0.37283(11) 0.34102(10)
O2 O -0.17726(19) 0.40520(12) 0.39242(11)
O3 O 0.12968(18) 0.50502(12) 0.41216(11)
O4 O -0.06086(18) 0.56433(12) 0.43419(11)
O5 O 0.02063(19) 0.07367(13) 0.16461(11)
O6 O 0.13332(18) -0.03775(12) 0.12949(11)
O7 O 0.2235(2) 0.10350(13) 0.28506(12)
O8 O 0.33304(18) -0.00560(12) 0.23928(10)
O9 O 0.23701(18) 0.34349(12) 0.44436(10)
O10 O 0.15897(19) 0.21016(12) 0.41460(11)
O11 O 0.22843(19) 0.32087(12) 0.28877(11)
O12 O 0.0611(2) -0.11833(13) 0.49920(13)
H1 H 0.045(4) -0.155(3) 0.468(2)
H2 H 0.105(4) -0.152(3) 0.531(3)
O13 O 0.1987(3) 0.22142(15) 0.12201(14)
H3 H 0.196(5) 0.274(3) 0.113(3)
H4 H 0.279(5) 0.212(3) 0.124(3)
C1 C -0.0652(3) 0.42175(17) 0.37877(15)
C2 C 0.0060(3) 0.50589(17) 0.41108(14)
C3 C 0.1191(3) 0.02742(17) 0.17277(16)
C4 C 0.2350(3) 0.04527(17) 0.23893(16)
C5 C 0.2189(3) 0.26379(17) 0.45881(15)
O9F O 0.26299(18) 0.15651(12) 0.55564(10)
O10F O 0.34103(19) 0.28984(12) 0.58540(11)
C5F C 0.2811(3) 0.23621(17) 0.54119(15)
Ba2A Ba -0.18060(2) 0.03334(2) 0.04945(2)
V1A V -0.19515(4) 0.40097(3) 0.15915(3)
O1A O -0.00362(18) 0.37283(11) 0.15898(10)
O2A O 0.17726(19) 0.40520(12) 0.10758(11)
O3A O -0.12968(18) 0.50502(12) 0.08784(11)
O4A O 0.06086(18) 0.56433(12) 0.06581(11)
O5A O -0.02063(19) 0.07367(13) 0.33539(11)
O6A O -0.13332(18) -0.03775(12) 0.37051(11)
O7A O -0.2235(2) 0.10350(13) 0.21494(12)
O8A O -0.33304(18) -0.00560(12) 0.26072(10)
O11A O -0.22843(19) 0.32087(12) 0.21123(11)
O12A O -0.0611(2) -0.11833(13) 0.00080(13)
H1A H -0.045(4) -0.155(3) 0.032(2)
H2A H -0.105(4) -0.152(3) -0.031(3)
O13A O -0.1987(3) 0.22142(15) 0.37799(14)
H3A H -0.196(5) 0.274(3) 0.387(3)
H4A H -0.279(5) 0.212(3) 0.376(3)
C1A C 0.0652(3) 0.42175(17) 0.12123(15)
C2A C -0.0060(3) 0.50589(17) 0.08892(14)
C3A C -0.1191(3) 0.02742(17) 0.32723(16)
C4A C -0.2350(3) 0.04527(17) 0.26107(16)
Ba1F Ba 0.5000 0.28181(2) 0.7500
Ba2B Ba -0.31940(2) 0.53334(2) 0.45055(2)
Ba2C Ba 0.31940(2) 0.53334(2) 0.04945(2)
Ba2D Ba -0.18060(2) -0.03334(2) 0.54945(2)
Ba2E Ba 0.18060(2) -0.03334(2) -0.04945(2)
Ba2F Ba 0.31940(2) 0.46666(2) 0.54945(2)
Ba2G Ba -0.31940(2) 0.46666(2) -0.04945(2)
V1B V -0.30485(4) -0.09903(3) 0.34085(3)
V1C V 0.30485(4) -0.09903(3) 0.15915(3)
V1F V 0.30485(4) 0.09903(3) 0.65915(3)
O2B O 0.32274(19) -0.09480(12) 0.39242(11)
O2C O -0.32274(19) -0.09480(12) 0.10758(11)
O3F O 0.37032(18) -0.00502(12) 0.58784(11)
O3G O -0.37032(18) -0.00502(12) -0.08784(11)
O4B O 0.43914(18) 0.06433(12) 0.43419(11)
O4C O -0.43914(18) 0.06433(12) 0.06581(11)
O6B O -0.36668(18) 0.46225(12) 0.12949(11)
O6C O 0.36668(18) 0.46225(12) 0.37051(11)
O6D O -0.13332(18) 0.03775(12) -0.12949(11)
O6E O 0.13332(18) 0.03775(12) 0.62949(11)
O8B O -0.16696(18) 0.49440(12) 0.23928(10)
O8C O 0.16696(18) 0.49440(12) 0.26072(10)
O9A O -0.23701(18) 0.34349(12) 0.05564(10)
O9G O -0.26299(18) 0.15651(12) -0.05564(10)
O10A O -0.15897(19) 0.21016(12) 0.08540(11)
O12D O -0.0611(2) 0.11833(13) 0.50080(13)
O12E O 0.0611(2) 0.11833(13) -0.00080(13)
O14 O 0.4973(3) 0.23710(16) 0.39117(16)
H5 H 0.487(5) 0.191(3) 0.409(3)
H6 H 0.445(5) 0.244(3) 0.352(3)
loop_
_geom_bond_atom_site_label_1
_geom_bond_atom_site_label_2
_geom_bond_site_symmetry_1
_geom_bond_site_symmetry_2
Ba1 O1 1_555 1_555
Ba2 O7 1_555 1_555
V1 O1 1_555 1_555
O1 C1 1_555 1_555
O2 C1 1_555 1_555
O3 V1 1_555 1_555
O4 C2 1_555 1_555
O5 Ba1 1_555 1_555
O6 C3 1_555 1_555
O7 Ba1 1_555 1_555
O8 C4 1_555 1_555
O9 V1 1_555 1_555
O10 Ba1 1_555 1_555
O11 Ba1 1_555 1_555
O12 Ba2 1_555 1_555
H1 O12 1_555 1_555
H2 O12 1_555 1_555
O13 Ba1 1_555 1_555
H3 O13 1_555 1_555
H4 O13 1_555 1_555
C1 C2 1_555 1_555
C2 O3 1_555 1_555
C3 O5 1_555 1_555
C4 O7 1_555 1_555
C5 O9 1_555 1_555
O14 H5 1_555 1_555
H6 O14 1_555 1_555
O9F Ba2 1_555 1_555
O10F C5F 1_555 1_555
C5F C5 1_555 1_555
Ba2A O5 1_555 1_555
V1A O1A 1_555 1_555
O1A Ba1 1_555 1_555
O2A C1A 1_555 1_555
O3A V1A 1_555 1_555
O4A C2A 1_555 1_555
O5A Ba1 1_555 1_555
O6A C3A 1_555 1_555
O7A Ba1 1_555 1_555
O8A C4A 1_555 1_555
O11A Ba1 1_555 1_555
O12A Ba2A 1_555 1_555
H1A O12A 1_555 1_555
H2A O12A 1_555 1_555
O13A Ba1 1_555 1_555
H3A O13A 1_555 1_555
H4A O13A 1_555 1_555
C1A O1A 1_555 1_555
C2A O3A 1_555 1_555
C3A O5A 1_555 1_555
C4A O7A 1_555 1_555
Ba1F O10F 1_555 1_555
Ba2B O2 1_555 1_555
Ba2C O2A 1_555 1_555
Ba2D O12 1_555 1_555
Ba2E O6 1_555 1_555
Ba2F O3 1_555 1_555
Ba2G O3A 1_555 1_555
V1B O6A 1_555 1_555
V1C O6 1_555 1_555
V1F O9F 1_555 1_555
O2B Ba2 1_555 1_555
O2C Ba2A 1_555 1_555
O3F Ba2 1_555 1_555
O3G Ba2A 1_555 1_555
O4B Ba2 1_555 1_555
O4C Ba2A 1_555 1_555
O6B V1A 1_555 1_555
O6C V1 1_555 1_555
O6D Ba2A 1_555 1_555
O6E Ba2 1_555 1_555
O8B V1A 1_555 1_555
O8C V1 1_555 1_555
O9A V1A 1_555 1_555
O9G Ba2A 1_555 1_555
O10A Ba1 1_555 1_555
O12D Ba2 1_555 1_555
O12E Ba2A 1_555 1_555
Ba2 O10 1_555 1_555
Ba2 O5A 1_555 1_555
V1 O11 1_555 1_555
O4 Ba2B 1_555 1_555
O8 V1C 1_555 1_555
O9 Ba2F 1_555 1_555
O10 C5 1_555 1_555
C3 C4 1_555 1_555
O9F C5F 1_555 1_555
O10F Ba2F 1_555 1_555
Ba2A O7A 1_555 1_555
Ba2A O10A 1_555 1_555
V1A O11A 1_555 1_555
O4A Ba2C 1_555 1_555
O6A Ba2D 1_555 1_555
O8A V1B 1_555 1_555
O12A Ba2E 1_555 1_555
C1A C2A 1_555 1_555
C3A C4A 1_555 1_555
Ba2D O12D 1_555 1_555
Ba2E O12E 1_555 1_555
Ba2F O6C 1_555 1_555
Ba2G O6B 1_555 1_555
Ba2G O9A 1_555 1_555
V1F O3F 1_555 1_555
V1F O6E 1_555 1_555

#END
