
#######################################################################
#
#                 Cambridge Crystallographic Data Centre
#                                CCDC 
#
#######################################################################
#
# If this CIF has been generated from an entry in the Cambridge 
# Structural Database, then it will include bibliographic, chemical, 
# crystal, experimental, refinement or atomic coordinate data resulting 
# from the CCDC's data processing and validation procedures.
#
#######################################################################

data_YOTSEH
_symmetry_cell_setting           monoclinic
_symmetry_space_group_name_H-M   'P 21/c'
_symmetry_Int_Tables_number      14
_space_group_name_Hall           '-P 2ybc'
loop_
_symmetry_equiv_pos_site_id
_symmetry_equiv_pos_as_xyz
1 x,y,z
2 -x,1/2+y,1/2-z
3 -x,-y,-z
4 x,1/2-y,1/2+z
_cell_length_a                   10.2382(10)
_cell_length_b                   14.5463(14)
_cell_length_c                   15.2328(14)
_cell_angle_alpha                90
_cell_angle_beta                 90.807(2)
_cell_angle_gamma                90
_cell_volume                     2268.36
loop_
_atom_site_label
_atom_site_type_symbol
_atom_site_fract_x
_atom_site_fract_y
_atom_site_fract_z
Ba1 Ba 0.83609(4) 0.62938(3) 0.35043(2)
O1 O 0.6740(4) 0.4888(3) 0.2522(3)
O2 O 0.7271(4) 0.7972(3) 0.3062(3)
O3 O 0.5728(4) 0.6575(3) 0.3666(3)
O4 O 0.9547(4) 0.5389(3) 0.2066(3)
O5 O 0.8590(4) 0.6703(3) 0.1674(3)
O6 O 1.0586(4) 0.7282(3) 0.3491(3)
O7 O 0.7930(4) 0.7659(3) 0.4999(3)
O8 O 0.9492(4) 0.6122(3) 0.5183(3)
O9 O 1.0465(4) 0.5097(3) 0.3903(3)
V1 V 0.64522(10) 0.39754(7) 0.19700(7)
Ba2 Ba 0.79487(4) 0.97613(3) 0.25941(2)
V2 V 0.90867(10) 0.78942(7) 0.10615(7)
O10 O 0.4525(4) 0.3796(3) 0.2178(3)
O11 O 0.5926(4) 0.2573(3) 0.1311(3)
O12 O 0.6026(4) 0.4446(3) 0.0761(3)
O13 O 0.6961(4) 0.3030(3) 0.2903(3)
O14 O 0.8099(4) 0.3510(3) 0.1442(3)
O15 O 0.7293(4) 0.8476(3) 0.1229(3)
C1 C 0.3923(6) 0.3079(4) 0.1903(4)
C2 C 0.4770(6) 0.2331(4) 0.1485(4)
Ba3 Ba 0.67285(4) 0.30322(3) -0.03625(2)
C3 C 0.5070(6) 0.4956(4) 0.0510(4)
C4 C 0.6332(6) 0.8110(4) 0.0817(4)
C5 C 0.6734(6) 0.7305(4) 0.0216(4)
O16 O 0.1287(4) 0.5649(3) 0.0699(3)
O17 O 0.2189(4) 0.6634(3) 0.2147(3)
O18 O 0.0284(4) 0.3384(3) 0.3089(3)
O19 O 0.3839(5) 0.5260(3) 0.3781(4)
O20 O 0.086(4) 0.389(3) 0.101(2)
O21 O 0.5703(4) 0.4628(3) -0.0982(3)
O22 O 0.5184(4) 0.8363(3) 0.0839(3)
O23 O 0.5894(4) 0.6741(3) 0.0000(3)
C6 C 0.0490(6) 0.6254(5) 0.0883(4)
C7 C -0.0547(6) 0.6062(5) 0.1587(4)
C8 C 0.2281(6) 0.7426(4) 0.2434(4)
C9 C 0.0283(6) 0.4717(4) 0.4616(4)
H1 H 0.433(7) 0.482(4) 0.384(7)
H2 H 0.443(7) 0.564(5) 0.376(6)
O24 O 0.0505(4) 0.7086(3) 0.0597(3)
C10 C 0.1491(6) 0.7746(5) 0.3221(4)
O7C O 0.7930(4) 0.7341(3) -0.0001(3)
Ba2A Ba 0.20513(4) 0.47613(3) 0.24059(2)
Ba1C Ba 0.83609(4) 0.87062(3) -0.14957(2)
O2A O 0.2729(4) 0.2972(3) 0.1938(3)
O4_2 O -0.0453(4) 0.5389(3) 0.2066(3)
O9_2 O 0.0465(4) 0.5097(3) 0.3903(3)
O15A O 0.2707(4) 0.3476(3) 0.3771(3)
O3A O 0.4272(4) 0.1575(3) 0.1334(3)
O21B O 0.4297(4) 0.5372(3) 0.0982(3)
C3B C 0.4930(6) 0.5044(4) -0.0510(4)
Ba1A Ba 0.16391(4) 0.12938(3) 0.14957(2)
Ba3B Ba 0.32715(4) 0.69678(3) 0.03625(2)
Ba1_2 Ba -0.16391(4) 0.62938(3) 0.35043(2)
V2A V 0.09133(10) 0.28942(7) 0.39385(7)
O12B O 0.3974(4) 0.5554(3) -0.0761(3)
O5A O 0.1410(4) 0.1703(3) 0.3326(3)
O13A O 0.3039(4) 0.8030(3) 0.2097(3)
O11B O 0.4074(4) 0.7427(3) -0.1311(3)
O14B O 0.1901(4) 0.6490(3) -0.1442(3)
O5_2 O -0.1410(4) 0.6703(3) 0.1674(3)
O6_2 O 0.0586(4) 0.7282(3) 0.3491(3)
O8_2 O -0.0508(4) 0.6122(3) 0.5183(3)
O7_2 O -0.2070(4) 0.7659(3) 0.4999(3)
O8B O 0.0508(4) 0.3878(3) 0.4817(3)
C9B C -0.0283(6) 0.5283(4) 0.5384(4)
O24A O -0.0505(4) 0.2086(3) 0.4403(3)
O7B O 0.2070(4) 0.2341(3) 0.5001(3)
V1B V 0.35478(10) 0.60246(7) -0.19700(7)
V2_2 V -0.09133(10) 0.78942(7) 0.10615(7)
V1A V 0.35478(10) 0.89754(7) 0.30300(7)
V2C V -0.09133(10) 0.71058(7) 0.60615(7)
O14A O 0.1901(4) 0.8510(3) 0.3558(3)
Ba1B Ba 0.16391(4) 0.37062(3) 0.64957(2)
O9B O -0.0465(4) 0.4903(3) 0.6097(3)
Ba3C Ba -0.32715(4) 0.19678(3) 0.46375(2)
O18B O -0.0284(4) 0.6616(3) 0.6911(3)
O24C O 0.0505(4) 0.7914(3) 0.5597(3)
O5C O -0.1410(4) 0.8297(3) 0.6674(3)
O15C O -0.2707(4) 0.6524(3) 0.6229(3)
Ba3A Ba 0.32715(4) 0.80322(3) 0.53625(2)
O4B O 0.0453(4) 0.4611(3) 0.7934(3)
O5B O 0.1410(4) 0.3297(3) 0.8326(3)
O6B O -0.0586(4) 0.2718(3) 0.6509(3)
Ba2C Ba -0.20513(4) 0.52387(3) 0.75941(2)
O14C O -0.1901(4) 0.1490(3) 0.6442(3)
Ba1C_2 Ba -0.16391(4) 0.87062(3) 0.85043(2)
C7B C 0.0547(6) 0.3938(5) 0.8413(4)
V2B V 0.09133(10) 0.21058(7) 0.89385(7)
C10B C -0.1491(6) 0.2254(5) 0.6779(4)
O10B O -0.4525(4) 0.6204(3) 0.7822(3)
O2C O -0.2729(4) 0.7028(3) 0.8062(3)
O16B O -0.1287(4) 0.4351(3) 0.9301(3)
O17B O -0.2189(4) 0.3366(3) 0.7853(3)
O19B O -0.3839(5) 0.4740(3) 0.6219(4)
V1C V -0.35478(10) 0.10246(7) 0.69700(7)
O3C O -0.4272(4) 0.8425(3) 0.8666(3)
C6B C -0.0490(6) 0.3746(5) 0.9117(4)
O24B O -0.0505(4) 0.2914(3) 0.9403(3)
C8B C -0.2281(6) 0.2574(4) 0.7566(4)
V1B_2 V -0.64522(10) 0.60246(7) 0.80300(7)
C1B C -0.3923(6) 0.6921(4) 0.8097(4)
Ba3_2 Ba -0.32715(4) 0.30322(3) 0.96375(2)
H1B H -0.433(7) 0.518(4) 0.616(7)
H2B H -0.443(7) 0.436(5) 0.624(6)
O13C O -0.3039(4) 0.1970(3) 0.7903(3)
C2B C -0.4770(6) 0.7669(4) 0.8515(4)
O11B_2 O -0.5926(4) 0.7427(3) 0.8689(3)
O1B O -0.6740(4) 0.5112(3) 0.7478(3)
O13B O -0.6961(4) 0.6970(3) 0.7097(3)
O14B_2 O -0.8099(4) 0.6490(3) 0.8558(3)
O12B_2 O -0.6026(4) 0.5554(3) 0.9239(3)
O23B O -0.5894(4) 0.3259(3) 1.0000(3)
O22B O -0.5184(4) 0.1637(3) 0.9161(3)
O11_2 O -0.4074(4) 0.2573(3) 1.1311(3)
O14_2 O -0.1901(4) 0.3510(3) 1.1442(3)
O12_2 O -0.3974(4) 0.4446(3) 1.0761(3)
O21_2 O -0.4297(4) 0.4628(3) 0.9018(3)
Ba3B_2 Ba -0.67285(4) 0.69678(3) 1.03625(2)
Ba1B_2 Ba -0.83609(4) 0.37062(3) 0.64957(2)
C5B C -0.6734(6) 0.2695(4) 0.9784(4)
C4B C -0.6332(6) 0.1890(4) 0.9183(4)
O2B O -0.7271(4) 0.2028(3) 0.6938(3)
O3B O -0.5728(4) 0.3425(3) 0.6334(3)
O4B_2 O -0.9547(4) 0.4611(3) 0.7934(3)
O5B_2 O -0.8590(4) 0.3297(3) 0.8326(3)
O6B_2 O -1.0586(4) 0.2718(3) 0.6509(3)
O7B_2 O -0.7930(4) 0.2341(3) 0.5001(3)
O8B_2 O -0.9492(4) 0.3878(3) 0.4817(3)
O9B_2 O -1.0465(4) 0.4903(3) 0.6097(3)
O7A O -0.7930(4) 0.2659(3) 1.0001(3)
O15B O -0.7293(4) 0.1524(3) 0.8771(3)
Ba2B Ba -0.79487(4) 0.02387(3) 0.74059(2)
V2B_2 V -0.90867(10) 0.21058(7) 0.89385(7)
Ba1A_2 Ba -0.83609(4) 0.12938(3) 1.14957(2)
O25 O 0.7297(5) 0.4765(4) 0.4472(4)
H3 H 0.671(7) 0.446(6) 0.425(5)
H4 H 0.710(9) 0.464(6) 0.498(3)
O25B O -0.7297(5) 0.5235(4) 0.5528(4)
H3B H -0.671(7) 0.554(6) 0.575(5)
H4B H -0.710(9) 0.536(6) 0.502(3)
loop_
_geom_bond_atom_site_label_1
_geom_bond_atom_site_label_2
_geom_bond_site_symmetry_1
_geom_bond_site_symmetry_2
Ba1 O1 1_555 1_555
O1 V1 1_555 1_555
O2 Ba1 1_555 1_555
O3 Ba1 1_555 1_555
O4 Ba1 1_555 1_555
O5 Ba1 1_555 1_555
O6 Ba1 1_555 1_555
O7 Ba1 1_555 1_555
O8 Ba1 1_555 1_555
O9 Ba1 1_555 1_555
V1 O10 1_555 1_555
Ba2 O2 1_555 1_555
V2 O5 1_555 1_555
O10 C1 1_555 1_555
O11 V1 1_555 1_555
O12 V1 1_555 1_555
O13 V1 1_555 1_555
O14 V1 1_555 1_555
O15 Ba2 1_555 1_555
C1 C2 1_555 1_555
C2 O11 1_555 1_555
Ba3 O11 1_555 1_555
C3 O12 1_555 1_555
C4 O15 1_555 1_555
C5 C4 1_555 1_555
O16 C6 1_555 1_555
O17 C8 1_555 1_555
O18 Ba2A 1_555 1_555
O19 H1 1_555 1_555
O20 Ba2A 1_555 1_555
O21 Ba3 1_555 1_555
O22 C4 1_555 1_555
O23 C5 1_555 1_555
C6 C7 1_555 1_555
C7 O4_2 1_555 1_555
C8 C10 1_555 1_555
C9 O9_2 1_555 1_555
H2 O19 1_555 1_555
O24 C6 1_555 1_555
C10 O6_2 1_555 1_555
O25 H3 1_555 1_555
H4 O25 1_555 1_555
O7C V2 1_555 1_555
Ba2A O10 1_555 1_555
Ba1C O7C 1_555 1_555
O2A C1 1_555 1_555
O4_2 Ba2A 1_555 1_555
O9_2 Ba2A 1_555 1_555
O15A Ba2A 1_555 1_555
O3A C2 1_555 1_555
O21B C3 1_555 1_555
C3B C3 1_555 1_555
Ba1A O2A 1_555 1_555
Ba3B O16 1_555 1_555
Ba1_2 O4_2 1_555 1_555
V2A O18 1_555 1_555
O12B C3B 1_555 1_555
O5A Ba1A 1_555 1_555
O13A C8 1_555 1_555
O11B Ba3B 1_555 1_555
O14B Ba3B 1_555 1_555
O5_2 C7 1_555 1_555
O6_2 Ba1_2 1_555 1_555
O8_2 Ba1_2 1_555 1_555
O7_2 Ba1_2 1_555 1_555
O8B C9 1_555 1_555
C9B C9 1_555 1_555
O24A V2A 1_555 1_555
O7B V2A 1_555 1_555
V1B O12B 1_555 1_555
V2_2 O24 1_555 1_555
V1A O13A 1_555 1_555
V2C O8_2 1_555 1_555
O14A C10 1_555 1_555
Ba1B O8B 1_555 1_555
O9B C9B 1_555 1_555
Ba3C O24A 1_555 1_555
O18B V2C 1_555 1_555
O24C V2C 1_555 1_555
O5C V2C 1_555 1_555
O15C V2C 1_555 1_555
Ba3A O14A 1_555 1_555
O4B Ba1B 1_555 1_555
O5B Ba1B 1_555 1_555
O6B Ba1B 1_555 1_555
Ba2C O9B 1_555 1_555
O14C Ba3C 1_555 1_555
Ba1C_2 O5C 1_555 1_555
C7B O4B 1_555 1_555
V2B O5B 1_555 1_555
C10B O6B 1_555 1_555
O10B Ba2C 1_555 1_555
O2C Ba2C 1_555 1_555
O16B Ba2C 1_555 1_555
O17B Ba2C 1_555 1_555
O19B Ba2C 1_555 1_555
V1C O14C 1_555 1_555
O3C Ba1C_2 1_555 1_555
C6B C7B 1_555 1_555
O24B V2B 1_555 1_555
C8B C10B 1_555 1_555
V1B_2 O10B 1_555 1_555
C1B O10B 1_555 1_555
Ba3_2 O16B 1_555 1_555
H1B O19B 1_555 1_555
H2B O19B 1_555 1_555
O13C V1C 1_555 1_555
C2B O3C 1_555 1_555
O11B_2 V1B_2 1_555 1_555
O1B V1B_2 1_555 1_555
O13B V1B_2 1_555 1_555
O14B_2 V1B_2 1_555 1_555
O12B_2 V1B_2 1_555 1_555
O23B Ba3_2 1_555 1_555
O22B Ba3_2 1_555 1_555
O11_2 Ba3_2 1_555 1_555
O14_2 Ba3_2 1_555 1_555
O12_2 Ba3_2 1_555 1_555
O21_2 Ba3_2 1_555 1_555
Ba3B_2 O11B_2 1_555 1_555
Ba1B_2 O1B 1_555 1_555
C5B O23B 1_555 1_555
C4B O22B 1_555 1_555
O2B Ba1B_2 1_555 1_555
O3B Ba1B_2 1_555 1_555
O4B_2 Ba1B_2 1_555 1_555
O5B_2 Ba1B_2 1_555 1_555
O6B_2 Ba1B_2 1_555 1_555
O7B_2 Ba1B_2 1_555 1_555
O8B_2 Ba1B_2 1_555 1_555
O9B_2 Ba1B_2 1_555 1_555
O7A C5B 1_555 1_555
O15B C4B 1_555 1_555
Ba2B O2B 1_555 1_555
V2B_2 O5B_2 1_555 1_555
Ba1A_2 O7A 1_555 1_555
O25B H3B 1_555 1_555
H4B O25B 1_555 1_555
V2 O15 1_555 1_555
O12 Ba3 1_555 1_555
O14 Ba3 1_555 1_555
C5 O7C 1_555 1_555
O16 Ba2A 1_555 1_555
O17 Ba2A 1_555 1_555
O17 Ba3B 1_555 1_555
O19 Ba2A 1_555 1_555
O21 C3B 1_555 1_555
O22 Ba3B 1_555 1_555
O23 Ba3B 1_555 1_555
O24 Ba3B 1_555 1_555
Ba2A O2A 1_555 1_555
O9_2 Ba1_2 1_555 1_555
O15A V2A 1_555 1_555
O3A Ba1A 1_555 1_555
O21B Ba3B 1_555 1_555
Ba3B O12B 1_555 1_555
Ba3B O13A 1_555 1_555
Ba1_2 O5_2 1_555 1_555
V2A O5A 1_555 1_555
V2A O8B 1_555 1_555
O11B V1B 1_555 1_555
O14B V1B 1_555 1_555
O5_2 V2_2 1_555 1_555
O8_2 C9B 1_555 1_555
O7_2 V2C 1_555 1_555
O7B Ba1B 1_555 1_555
V1A O14A 1_555 1_555
Ba1B O9B 1_555 1_555
O18B Ba2C 1_555 1_555
O24C Ba3A 1_555 1_555
O15C Ba2C 1_555 1_555
O4B Ba2C 1_555 1_555
O5B C7B 1_555 1_555
O14C C10B 1_555 1_555
Ba1C_2 O2C 1_555 1_555
O2C C1B 1_555 1_555
O16B C6B 1_555 1_555
O17B C8B 1_555 1_555
O17B Ba3_2 1_555 1_555
C6B O24B 1_555 1_555
O24B Ba3_2 1_555 1_555
C8B O13C 1_555 1_555
C1B C2B 1_555 1_555
Ba3_2 O13C 1_555 1_555
C2B O11B_2 1_555 1_555
O14B_2 Ba3B_2 1_555 1_555
O12B_2 Ba3B_2 1_555 1_555
C5B C4B 1_555 1_555
O7A V2B_2 1_555 1_555
O15B Ba2B 1_555 1_555
O15B V2B_2 1_555 1_555

#END
