
#######################################################################
#
#                 Cambridge Crystallographic Data Centre
#                                CCDC 
#
#######################################################################
#
# If this CIF has been generated from an entry in the Cambridge 
# Structural Database, then it will include bibliographic, chemical, 
# crystal, experimental, refinement or atomic coordinate data resulting 
# from the CCDC's data processing and validation procedures.
#
#######################################################################

data_YOTWEL
_symmetry_cell_setting           triclinic
_symmetry_space_group_name_H-M   'P -1'
_symmetry_Int_Tables_number      2
_space_group_name_Hall           '-P 1'
loop_
_symmetry_equiv_pos_site_id
_symmetry_equiv_pos_as_xyz
1 x,y,z
2 -x,-y,-z
_cell_length_a                   8.496(3)
_cell_length_b                   11.529(4)
_cell_length_c                   12.340(4)
_cell_angle_alpha                102.401(10)
_cell_angle_beta                 101.842(9)
_cell_angle_gamma                106.290(9)
_cell_volume                     1086.74
loop_
_atom_site_label
_atom_site_type_symbol
_atom_site_fract_x
_atom_site_fract_y
_atom_site_fract_z
Ag1 Ag 2.0000 2.0000 1.0000
Ag2 Ag 0.0000 1.0000 0.5000
O1 O 1.0989(8) 1.3423(8) 0.4535(6)
C1 C 1.0716(10) 1.3837(8) 0.5440(8)
C2 C 1.1966(10) 1.4884(7) 0.6451(7)
C3 C 1.1074(11) 1.5147(9) 0.7361(8)
H1 H 1.1011 1.5990 0.7480
H2 H 1.1699 1.5090 0.8089
C4 C 0.9300(11) 1.4178(8) 0.6949(8)
H3 H 0.9166 1.3647 0.7459
H4 H 0.8450 1.4591 0.6939
C5 C 0.9085(10) 1.3403(7) 0.5755(7)
C6 C 1.3530(9) 1.5417(8) 0.6403(7)
H5 H 1.3777 1.5055 0.5737
C7 C 0.7726(10) 1.2468(8) 0.4951(7)
H6 H 0.7931 1.2127 0.4262
N1 N 1.7790(5) 1.8494(4) 0.8782(4)
C8 C 1.7963(5) 1.7745(5) 0.7800(5)
H7 H 1.9021 1.7906 0.7652
C9 C 1.6552(6) 1.6755(4) 0.7037(4)
H8 H 1.6668 1.6254 0.6380
C10 C 1.4970(5) 1.6514(4) 0.7258(4)
C11 C 1.4797(4) 1.7263(4) 0.8240(5)
H9 H 1.3738 1.7102 0.8388
C12 C 1.6207(6) 1.8253(4) 0.9003(4)
H10 H 1.6092 1.8754 0.9660
N2 N 0.2457(7) 1.0842(5) 0.5086(6)
C13 C 0.3737(12) 1.1777(10) 0.5921(9)
H11 H 0.3429 1.2115 0.6567
C14 C 0.5417(11) 1.2309(9) 0.5976(8)
H12 H 0.6167 1.2919 0.6644
C15 C 0.6008(10) 1.1933(7) 0.5019(7)
C16 C 0.4805(11) 1.1003(7) 0.4063(7)
H13 H 0.5105 1.0721 0.3397
C17 C 0.3153(10) 1.0507(8) 0.4123(8)
H14 H 0.2391 0.9882 0.3469
O1A O -1.0989(8) 0.6577(8) 0.5465(6)
C1A C -1.0716(10) 0.6163(8) 0.4560(8)
C2A C -1.1966(10) 0.5116(7) 0.3549(7)
C3A C -1.1074(11) 0.4853(9) 0.2639(8)
H1A H -1.1011 0.4010 0.2520
H2A H -1.1699 0.4910 0.1911
C4A C -0.9300(11) 0.5822(8) 0.3051(8)
H3A H -0.9166 0.6353 0.2541
H4A H -0.8450 0.5409 0.3061
C5A C -0.9085(10) 0.6597(7) 0.4245(7)
C6A C -1.3530(9) 0.4583(8) 0.3597(7)
H5A H -1.3777 0.4945 0.4263
C7A C -0.7726(10) 0.7532(8) 0.5049(7)
H6A H -0.7931 0.7873 0.5738
N1A N -1.7790(5) 0.1506(4) 0.1218(4)
C8A C -1.7963(5) 0.2255(5) 0.2200(5)
H7A H -1.9021 0.2094 0.2348
C9A C -1.6552(6) 0.3245(4) 0.2963(4)
H8A H -1.6668 0.3746 0.3620
C10A C -1.4970(5) 0.3486(4) 0.2742(4)
C11A C -1.4797(4) 0.2737(4) 0.1760(5)
H9A H -1.3738 0.2898 0.1612
C12A C -1.6207(6) 0.1747(4) 0.0997(4)
H10A H -1.6092 0.1246 0.0340
N2A N -0.2457(7) 0.9158(5) 0.4914(6)
C13A C -0.3737(12) 0.8223(10) 0.4079(9)
H11A H -0.3429 0.7885 0.3433
C14A C -0.5417(11) 0.7691(9) 0.4024(8)
H12A H -0.6167 0.7081 0.3356
C15A C -0.6008(10) 0.8067(7) 0.4981(7)
C16A C -0.4805(11) 0.8997(7) 0.5937(7)
H13A H -0.5105 0.9279 0.6603
C17A C -0.3153(10) 0.9493(8) 0.5877(8)
H14A H -0.2391 1.0118 0.6531
Ag1_2 Ag -2.0000 0.0000 0.0000
N1A_2 N 2.2210(5) 2.1506(4) 1.1218(4)
S1 S 0.2428(3) 0.81283(18) 0.0672(2)
O2 O 0.1544(8) 0.8568(5) 0.1473(5)
O3 O 0.4249(8) 0.8637(5) 0.1110(6)
O4 O 0.1779(8) 0.8241(5) -0.0475(5)
C18 C 0.1894(10) 0.6467(6) 0.0459(7)
C19 C 0.3215(10) 0.6009(7) 0.0679(7)
H15 H 0.4340 0.6557 0.0931
C20 C 0.2870(10) 0.4740(7) 0.0524(8)
H16 H 0.3774 0.4438 0.0675
C21 C 0.0164(10) 0.5667(6) 0.0084(6)
C22 C -0.1259(11) 0.6078(7) -0.0161(7)
H17 H -0.1074 0.6932 -0.0068
S1A S -0.2428(3) 0.18717(18) -0.0672(2)
O2A O -0.1544(8) 0.1432(5) -0.1473(5)
O3A O -0.4249(8) 0.1363(5) -0.1110(6)
O4A O -0.1779(8) 0.1759(5) 0.0475(5)
C18A C -0.1894(10) 0.3533(6) -0.0459(7)
C19A C -0.3215(10) 0.3991(7) -0.0679(7)
H15A H -0.4340 0.3443 -0.0931
C20A C -0.2870(10) 0.5260(7) -0.0524(8)
H16A H -0.3774 0.5562 -0.0675
C21A C -0.0164(10) 0.4333(6) -0.0084(6)
C22A C 0.1259(11) 0.3922(7) 0.0161(7)
H17A H 0.1074 0.3068 0.0068
O5 O 0.2550(9) 0.9573(7) -0.2038(6)
O6 O -0.1148(10) 0.8566(9) 0.2487(7)
loop_
_geom_bond_atom_site_label_1
_geom_bond_atom_site_label_2
_geom_bond_site_symmetry_1
_geom_bond_site_symmetry_2
Ag1 N1 1_555 1_555
Ag2 N2 1_555 1_555
O1 C1 1_555 1_555
C1 C2 1_555 1_555
C2 C3 1_555 1_555
C3 H1 1_555 1_555
H2 C3 1_555 1_555
C4 C3 1_555 1_555
H3 C4 1_555 1_555
H4 C4 1_555 1_555
C5 C1 1_555 1_555
C6 C2 1_555 1_555
H5 C6 1_555 1_555
C7 C5 1_555 1_555
H6 C7 1_555 1_555
N1 C8 1_555 1_555
C8 H7 1_555 1_555
C9 C8 1_555 1_555
H8 C9 1_555 1_555
C10 C6 1_555 1_555
C11 C10 1_555 1_555
H9 C11 1_555 1_555
C12 N1 1_555 1_555
H10 C12 1_555 1_555
N2 C13 1_555 1_555
C13 H11 1_555 1_555
C14 C13 1_555 1_555
H12 C14 1_555 1_555
C15 C7 1_555 1_555
C16 C15 1_555 1_555
H13 C16 1_555 1_555
C17 N2 1_555 1_555
H14 C17 1_555 1_555
S1 O2 1_555 1_555
O3 S1 1_555 1_555
O4 S1 1_555 1_555
C18 S1 1_555 1_555
C19 C18 1_555 1_555
H15 C19 1_555 1_555
C20 C19 1_555 1_555
H16 C20 1_555 1_555
C21 C18 1_555 1_555
C22 C21 1_555 1_555
H17 C22 1_555 1_555
O1A C1A 1_555 1_555
C1A C2A 1_555 1_555
C2A C3A 1_555 1_555
C3A H1A 1_555 1_555
H2A C3A 1_555 1_555
C4A C3A 1_555 1_555
H3A C4A 1_555 1_555
H4A C4A 1_555 1_555
C5A C1A 1_555 1_555
C6A C2A 1_555 1_555
H5A C6A 1_555 1_555
C7A C5A 1_555 1_555
H6A C7A 1_555 1_555
N1A C8A 1_555 1_555
C8A H7A 1_555 1_555
C9A C8A 1_555 1_555
H8A C9A 1_555 1_555
C10A C6A 1_555 1_555
C11A C10A 1_555 1_555
H9A C11A 1_555 1_555
C12A N1A 1_555 1_555
H10A C12A 1_555 1_555
N2A Ag2 1_555 1_555
C13A N2A 1_555 1_555
H11A C13A 1_555 1_555
C14A C13A 1_555 1_555
H12A C14A 1_555 1_555
C15A C7A 1_555 1_555
C16A C15A 1_555 1_555
H13A C16A 1_555 1_555
C17A N2A 1_555 1_555
H14A C17A 1_555 1_555
Ag1_2 N1A 1_555 1_555
N1A_2 Ag1 1_555 1_555
S1A O2A 1_555 1_555
O3A S1A 1_555 1_555
O4A S1A 1_555 1_555
C18A S1A 1_555 1_555
C19A C18A 1_555 1_555
H15A C19A 1_555 1_555
C20A C22 1_555 1_555
H16A C20A 1_555 1_555
C21A C21 1_555 1_555
C22A C20 1_555 1_555
H17A C22A 1_555 1_555
C4 C5 1_555 1_555
C9 C10 1_555 1_555
C11 C12 1_555 1_555
C14 C15 1_555 1_555
C16 C17 1_555 1_555
C4A C5A 1_555 1_555
C9A C10A 1_555 1_555
C11A C12A 1_555 1_555
C14A C15A 1_555 1_555
C16A C17A 1_555 1_555
C18A C21A 1_555 1_555
C19A C20A 1_555 1_555
C21A C22A 1_555 1_555

#END
