
#######################################################################
#
#                 Cambridge Crystallographic Data Centre
#                                CCDC 
#
#######################################################################
#
# If this CIF has been generated from an entry in the Cambridge 
# Structural Database, then it will include bibliographic, chemical, 
# crystal, experimental, refinement or atomic coordinate data resulting 
# from the CCDC's data processing and validation procedures.
#
#######################################################################

data_YOTWIP
_symmetry_cell_setting           triclinic
_symmetry_space_group_name_H-M   'P -1'
_symmetry_Int_Tables_number      2
_space_group_name_Hall           '-P 1'
loop_
_symmetry_equiv_pos_site_id
_symmetry_equiv_pos_as_xyz
1 x,y,z
2 -x,-y,-z
_cell_length_a                   11.0439(10)
_cell_length_b                   13.4634(11)
_cell_length_c                   16.3020(14)
_cell_angle_alpha                66.454(2)
_cell_angle_beta                 73.330(2)
_cell_angle_gamma                67.759(2)
_cell_volume                     2030.33
loop_
_atom_site_label
_atom_site_type_symbol
_atom_site_fract_x
_atom_site_fract_y
_atom_site_fract_z
Ag1 Ag 0.28692(4) 0.47449(3) -0.00162(2)
Ag2 Ag 0.75720(4) -0.03406(4) 1.00553(2)
O1 O 0.2819(3) 0.0165(2) 0.60050(16)
O2 O 0.1442(3) 0.9879(3) -0.57350(17)
N1 N 0.6488(3) -0.0124(3) 0.9057(2)
N2 N 0.2465(3) 0.5895(3) -0.1351(2)
N3 N 0.2974(4) 0.3603(3) 0.1370(2)
N4 N -0.1407(3) 0.9520(4) -0.8936(2)
C1 C 0.3561(4) 0.0762(3) 0.5700(2)
C2 C 0.1150(4) 0.9022(4) -0.5522(2)
C3 C 0.4374(3) 0.0871(3) 0.6219(2)
C4 C 0.1268(3) 0.8062(3) -0.4638(2)
C5 C 0.5104(4) 0.1670(3) 0.5615(2)
H1 H 0.6049 0.1305 0.5612
H2 H 0.4847 0.2317 0.5820
C6 C 0.0873(4) 0.7143(3) -0.4680(3)
H3 H 0.0209 0.6932 -0.4163
H4 H 0.1635 0.6476 -0.4676
C7 C 0.4777(4) 0.2064(3) 0.4658(2)
H5 H 0.4419 0.2885 0.4431
H6 H 0.5566 0.1827 0.4244
C8 C 0.0309(4) 0.7606(3) -0.5562(3)
H7 H 0.0734 0.7082 -0.5903
H8 H -0.0636 0.7710 -0.5431
C9 C 0.3768(3) 0.1514(3) 0.4750(2)
C10 C 0.0580(3) 0.8731(3) -0.6099(2)
C11 C 0.5787(4) -0.0830(4) 0.9209(3)
H9 H 0.5782 -0.1423 0.9756
C12 C 0.2081(5) 0.5593(4) -0.1900(3)
H10 H 0.1983 0.4872 -0.1688
C13 C 0.5078(4) -0.0703(3) 0.8580(3)
H11 H 0.4589 -0.1194 0.8714
C14 C 0.1826(5) 0.6271(4) -0.2748(3)
H12 H 0.1577 0.6000 -0.3097
C15 C 0.5095(4) 0.0150(3) 0.7757(2)
C16 C 0.1930(3) 0.7356(3) -0.3096(2)
C17 C 0.5817(4) 0.0866(4) 0.7611(3)
H13 H 0.5856 0.1457 0.7066
C18 C 0.2318(4) 0.7679(3) -0.2528(2)
H14 H 0.2411 0.8401 -0.2723
C19 C 0.6474(4) 0.0703(4) 0.8270(3)
H15 H 0.6939 0.1205 0.8157
C20 C 0.2565(4) 0.6944(4) -0.1681(3)
H16 H 0.2817 0.7193 -0.1317
C21 C 0.4360(4) 0.0233(3) 0.7110(2)
H17 H 0.3797 -0.0218 0.7340
C22 C 0.1691(3) 0.8143(3) -0.3990(2)
H18 H 0.1864 0.8824 -0.4136
C23 C 0.2138(4) 0.3005(4) 0.1851(3)
H19 H 0.1489 0.3045 0.1570
C24 C -0.1265(4) 0.8624(4) -0.8175(3)
H20 H -0.1579 0.8037 -0.8099
C25 C 0.2181(4) 0.2322(3) 0.2750(2)
H21 H 0.1583 0.1906 0.3056
C26 C -0.0672(4) 0.8535(4) -0.7498(3)
H22 H -0.0603 0.7906 -0.6973
C27 C 0.3125(4) 0.2266(3) 0.3187(2)
C28 C -0.0177(4) 0.9404(4) -0.7614(3)
C29 C 0.3999(4) 0.2885(3) 0.2672(3)
H23 H 0.4658 0.2868 0.2931
C30 C -0.0294(4) 1.0288(4) -0.8415(3)
H24 H 0.0059 1.0868 -0.8534
C31 C 0.3895(4) 0.3523(3) 0.1784(3)
H25 H 0.4505 0.3921 0.1453
C32 C -0.0925(4) 1.0326(4) -0.9039(3)
H26 H -0.1019 1.0953 -0.9564
C33 C 0.3110(4) 0.1587(3) 0.4143(2)
H27 H 0.2554 0.1131 0.4369
C34 C 0.0397(3) 0.9442(4) -0.6925(3)
H28 H 0.0683 1.0074 -0.7098
Ag2_2 Ag -0.24280(4) 0.96594(4) -0.99447(2)
N4_2 N 0.8593(3) -0.0480(4) 1.1064(2)
loop_
_geom_bond_atom_site_label_1
_geom_bond_atom_site_label_2
_geom_bond_site_symmetry_1
_geom_bond_site_symmetry_2
Ag1 N2 1_555 1_555
Ag2 N1 1_555 1_555
O1 C1 1_555 1_555
O2 C2 1_555 1_555
N1 C11 1_555 1_555
N2 C12 1_555 1_555
N3 Ag1 1_555 1_555
N4 C24 1_555 1_555
C1 C3 1_555 1_555
C2 C4 1_555 1_555
C3 C5 1_555 1_555
C4 C6 1_555 1_555
C5 H1 1_555 1_555
H2 C5 1_555 1_555
C6 H3 1_555 1_555
H4 C6 1_555 1_555
C7 C5 1_555 1_555
H5 C7 1_555 1_555
H6 C7 1_555 1_555
C8 C6 1_555 1_555
H7 C8 1_555 1_555
H8 C8 1_555 1_555
C9 C1 1_555 1_555
C10 C2 1_555 1_555
C11 H9 1_555 1_555
C12 H10 1_555 1_555
C13 C11 1_555 1_555
H11 C13 1_555 1_555
C14 C12 1_555 1_555
H12 C14 1_555 1_555
C15 C13 1_555 1_555
C16 C14 1_555 1_555
C17 C15 1_555 1_555
H13 C17 1_555 1_555
C18 C16 1_555 1_555
H14 C18 1_555 1_555
C19 N1 1_555 1_555
H15 C19 1_555 1_555
C20 N2 1_555 1_555
H16 C20 1_555 1_555
C21 C3 1_555 1_555
H17 C21 1_555 1_555
C22 C4 1_555 1_555
H18 C22 1_555 1_555
C23 N3 1_555 1_555
H19 C23 1_555 1_555
C24 H20 1_555 1_555
C25 C23 1_555 1_555
H21 C25 1_555 1_555
C26 C24 1_555 1_555
H22 C26 1_555 1_555
C27 C25 1_555 1_555
C28 C26 1_555 1_555
C29 C27 1_555 1_555
H23 C29 1_555 1_555
C30 C28 1_555 1_555
H24 C30 1_555 1_555
C31 N3 1_555 1_555
H25 C31 1_555 1_555
C32 N4 1_555 1_555
H26 C32 1_555 1_555
C33 C9 1_555 1_555
H27 C33 1_555 1_555
C34 C10 1_555 1_555
H28 C34 1_555 1_555
Ag2_2 N4 1_555 1_555
N4_2 Ag2 1_555 1_555
C7 C9 1_555 1_555
C8 C10 1_555 1_555
C15 C21 1_555 1_555
C16 C22 1_555 1_555
C17 C19 1_555 1_555
C18 C20 1_555 1_555
C27 C33 1_555 1_555
C28 C34 1_555 1_555
C29 C31 1_555 1_555
C30 C32 1_555 1_555

#END
