
#######################################################################
#
#                 Cambridge Crystallographic Data Centre
#                                CCDC 
#
#######################################################################
#
# If this CIF has been generated from an entry in the Cambridge 
# Structural Database, then it will include bibliographic, chemical, 
# crystal, experimental, refinement or atomic coordinate data resulting 
# from the CCDC's data processing and validation procedures.
#
#######################################################################

data_YOTWUB
_symmetry_cell_setting           monoclinic
_symmetry_space_group_name_H-M   'P 21/n'
_symmetry_Int_Tables_number      14
_space_group_name_Hall           '-P 2yn'
loop_
_symmetry_equiv_pos_site_id
_symmetry_equiv_pos_as_xyz
1 x,y,z
2 1/2-x,1/2+y,1/2-z
3 -x,-y,-z
4 1/2+x,1/2-y,1/2+z
_cell_length_a                   12.2838(17)
_cell_length_b                   19.749(3)
_cell_length_c                   18.497(3)
_cell_angle_alpha                90
_cell_angle_beta                 97.699(2)
_cell_angle_gamma                90
_cell_volume                     4446.79
loop_
_atom_site_label
_atom_site_type_symbol
_atom_site_fract_x
_atom_site_fract_y
_atom_site_fract_z
Sn1 Sn 0.97823(6) 0.34586(3) 0.58574(3)
O1 O 0.6169(6) 0.1110(4) 1.0022(4)
O2 O 0.8744(5) 0.3080(3) 0.6589(3)
N1 N 0.8071(6) 0.1489(4) 0.8458(4)
O3 O 0.6607(5) 0.1211(4) 0.7625(3)
O4 O 0.9928(6) 0.2217(4) 0.6834(4)
N2 N 0.6427(7) 0.1167(4) 0.8835(4)
C1 C 0.7885(9) 0.1500(5) 0.9731(5)
H1 H 0.8194 0.1582 1.0210
C2 C 0.8471(8) 0.1608(5) 0.9169(5)
H2 H 0.9184 0.1772 0.9276
C3 C 0.8426(8) 0.2336(5) 0.7535(5)
H3 H 0.7654 0.2333 0.7338
H4 H 0.8529 0.2673 0.7920
C4 C 0.7003(8) 0.1286(5) 0.8263(5)
C5 C 0.6781(7) 0.1257(5) 0.9571(5)
C6 C 0.8737(9) 0.1640(5) 0.7863(5)
H5 H 0.8608 0.1296 0.7487
H6 H 0.9512 0.1634 0.8055
C7 C 0.6869(9) 0.4665(6) 0.4858(6)
H7 H 0.6755 0.4949 0.5269
H8 H 0.7228 0.4940 0.4525
C8 C 0.9089(8) 0.2539(5) 0.6940(5)
C9 C 0.8738(8) 0.4297(5) 0.5505(5)
H9 H 0.8641 0.4574 0.5925
H10 H 0.9094 0.4573 0.5172
C10 C 1.0515(8) 0.2159(5) 0.5064(5)
H11 H 1.0520 0.1882 0.5497
H12 H 1.1212 0.2395 0.5101
C11 C 0.5772(9) 0.4449(6) 0.4477(6)
H13 H 0.5873 0.4141 0.4090
H14 H 0.5372 0.4839 0.4278
H15 H 0.5367 0.4228 0.4819
C12 C 1.2467(12) 0.4566(6) 0.7940(6)
H16 H 1.1794 0.4699 0.8110
H17 H 1.3067 0.4816 0.8200
H18 H 1.2585 0.4090 0.8024
C13 C 1.0405(10) 0.1695(6) 0.4390(5)
H19 H 1.0906 0.1317 0.4487
H20 H 0.9664 0.1515 0.4308
C14 C 1.1139(9) 0.3711(5) 0.6647(5)
H21 H 1.1006 0.3547 0.7122
H22 H 1.1796 0.3491 0.6523
C15 C 1.0645(11) 0.2052(6) 0.3703(6)
H23 H 1.0163 0.2433 0.3608
H24 H 1.0530 0.1743 0.3299
H25 H 1.1394 0.2204 0.3767
C16 C 1.1318(9) 0.4493(6) 0.6679(6)
H26 H 1.1294 0.4663 0.6186
H27 H 1.0715 0.4699 0.6889
C17 C 0.7641(8) 0.4085(5) 0.5136(5)
H28 H 0.7286 0.3814 0.5475
H29 H 0.7747 0.3797 0.4726
C18 C 1.2397(10) 0.4715(6) 0.7122(6)
H30 H 1.2490 0.5197 0.7055
H31 H 1.2998 0.4486 0.6933
C19 C 0.9585(9) 0.2683(5) 0.5042(5)
H32 H 0.8908 0.2442 0.5084
H33 H 0.9499 0.2899 0.4567
H34 H 0.565(8) 0.114(5) 0.867(4)
Sn1C Sn 0.47823(6) 0.15414(3) 1.08574(3)
O1C O 1.1169(6) 0.3890(4) 0.5022(4)
Sn2 Sn 0.08018(6) 0.36004(3) 0.99142(3)
O5 O 0.4657(6) 0.0977(4) 0.5973(3)
O6 O 0.4157(6) 0.1288(3) 0.8338(3)
N3 N 0.2727(6) 0.1551(4) 0.7459(4)
O7 O 0.1800(6) 0.3281(3) 0.9124(3)
O8 O 0.0805(6) 0.2323(4) 0.8992(4)
N4 N 0.4370(7) 0.1158(4) 0.7131(4)
C20 C 0.2913(9) 0.1400(5) 0.6194(5)
H35 H 0.2605 0.1422 0.5707
C21 C 0.2312(8) 0.2458(5) 0.8303(5)
H36 H 0.3068 0.2468 0.8536
H37 H 0.2245 0.2775 0.7899
C22 C 0.3793(8) 0.1335(5) 0.7687(5)
C23 C -0.2028(8) 0.4118(5) 0.8217(5)
H38 H -0.2414 0.4362 0.8560
H39 H -0.2388 0.3683 0.8125
C24 C 0.2038(8) 0.1745(5) 0.8009(5)
H40 H 0.2142 0.1424 0.8409
H41 H 0.1273 0.1729 0.7796
C25 C 0.4031(8) 0.1166(5) 0.6388(5)
C26 C 0.2769(9) 0.4636(5) 1.0152(5)
H42 H 0.3039 0.4451 0.9724
H43 H 0.2970 0.5111 1.0182
C27 C 0.2318(9) 0.1588(5) 0.6727(5)
H44 H 0.1607 0.1748 0.6596
C28 C 0.1518(9) 0.4585(5) 1.0043(5)
H45 H 0.1244 0.4850 0.9615
H46 H 0.1253 0.4799 1.0458
C29 C -0.0866(8) 0.3999(5) 0.8560(5)
H47 H -0.0498 0.4433 0.8639
H48 H -0.0485 0.3742 0.8224
C30 C 0.1253(9) 0.2880(5) 1.0767(5)
H49 H 0.1922 0.2655 1.0674
H50 H 0.1416 0.3123 1.1224
C31 C 0.4526(10) 0.4479(6) 1.1012(7)
H51 H 0.4920 0.4373 1.0612
H52 H 0.4845 0.4237 1.1439
H53 H 0.4570 0.4957 1.1107
C32 C 0.3349(8) 0.4277(6) 1.0824(6)
H54 H 0.2962 0.4375 1.1236
H55 H 0.3312 0.3792 1.0741
C33 C 0.1557(9) 0.2678(5) 0.8850(5)
C34 C 0.0669(10) 0.1930(6) 1.1562(5)
H56 H 0.1382 0.1718 1.1564
H57 H 0.0717 0.2234 1.1977
C35 C -0.2127(12) 0.4512(7) 0.7506(6)
H58 H -0.1803 0.4952 0.7595
H59 H -0.2888 0.4561 0.7314
H60 H -0.1751 0.4274 0.7161
C36 C -0.0186(11) 0.1383(6) 1.1647(6)
H61 H -0.0886 0.1591 1.1670
H62 H 0.0033 0.1133 1.2088
H63 H -0.0240 0.1081 1.1237
C37 C 0.0395(9) 0.2346(5) 1.0854(5)
H64 H 0.0336 0.2041 1.0439
H65 H -0.0312 0.2564 1.0856
C38 C -0.0783(8) 0.3618(5) 0.9290(5)
H66 H -0.1020 0.3155 0.9193
H67 H -0.1292 0.3824 0.9584
H68 H 0.505(8) 0.114(5) 0.732(5)
Sn2C Sn 0.58018(6) 0.13996(3) 0.49142(3)
O5C O -0.0343(6) 0.4023(4) 1.0973(3)
loop_
_geom_bond_atom_site_label_1
_geom_bond_atom_site_label_2
_geom_bond_site_symmetry_1
_geom_bond_site_symmetry_2
Sn1 O2 1_555 1_555
O1 C5 1_555 1_555
O2 C8 1_555 1_555
N1 C2 1_555 1_555
O3 C4 1_555 1_555
O4 C8 1_555 1_555
N2 C4 1_555 1_555
C1 H1 1_555 1_555
C2 C1 1_555 1_555
H2 C2 1_555 1_555
C3 H3 1_555 1_555
H4 C3 1_555 1_555
C4 N1 1_555 1_555
C5 N2 1_555 1_555
C6 N1 1_555 1_555
H5 C6 1_555 1_555
H6 C6 1_555 1_555
C7 H7 1_555 1_555
H8 C7 1_555 1_555
C8 C3 1_555 1_555
C9 Sn1 1_555 1_555
H9 C9 1_555 1_555
H10 C9 1_555 1_555
C10 H11 1_555 1_555
H12 C10 1_555 1_555
C11 C7 1_555 1_555
H13 C11 1_555 1_555
H14 C11 1_555 1_555
H15 C11 1_555 1_555
C12 H16 1_555 1_555
H17 C12 1_555 1_555
H18 C12 1_555 1_555
C13 C10 1_555 1_555
H19 C13 1_555 1_555
H20 C13 1_555 1_555
C14 Sn1 1_555 1_555
H21 C14 1_555 1_555
H22 C14 1_555 1_555
C15 C13 1_555 1_555
H23 C15 1_555 1_555
H24 C15 1_555 1_555
H25 C15 1_555 1_555
C16 C14 1_555 1_555
H26 C16 1_555 1_555
H27 C16 1_555 1_555
C17 C7 1_555 1_555
H28 C17 1_555 1_555
H29 C17 1_555 1_555
C18 C12 1_555 1_555
H30 C18 1_555 1_555
H31 C18 1_555 1_555
C19 Sn1 1_555 1_555
H32 C19 1_555 1_555
H33 C19 1_555 1_555
H34 N2 1_555 1_555
Sn2 O7 1_555 1_555
O5 C25 1_555 1_555
O6 C22 1_555 1_555
N3 C22 1_555 1_555
O7 C33 1_555 1_555
O8 C33 1_555 1_555
N4 C22 1_555 1_555
C20 H35 1_555 1_555
C21 H36 1_555 1_555
H37 C21 1_555 1_555
C23 H38 1_555 1_555
H39 C23 1_555 1_555
C24 N3 1_555 1_555
H40 C24 1_555 1_555
H41 C24 1_555 1_555
C25 N4 1_555 1_555
C26 H42 1_555 1_555
H43 C26 1_555 1_555
C27 N3 1_555 1_555
H44 C27 1_555 1_555
C28 Sn2 1_555 1_555
H45 C28 1_555 1_555
H46 C28 1_555 1_555
C29 C23 1_555 1_555
H47 C29 1_555 1_555
H48 C29 1_555 1_555
C30 Sn2 1_555 1_555
H49 C30 1_555 1_555
H50 C30 1_555 1_555
C31 H51 1_555 1_555
H52 C31 1_555 1_555
H53 C31 1_555 1_555
C32 C26 1_555 1_555
H54 C32 1_555 1_555
H55 C32 1_555 1_555
C33 C21 1_555 1_555
C34 H56 1_555 1_555
H57 C34 1_555 1_555
C35 C23 1_555 1_555
H58 C35 1_555 1_555
H59 C35 1_555 1_555
H60 C35 1_555 1_555
C36 C34 1_555 1_555
H61 C36 1_555 1_555
H62 C36 1_555 1_555
H63 C36 1_555 1_555
C37 C30 1_555 1_555
H64 C37 1_555 1_555
H65 C37 1_555 1_555
C38 Sn2 1_555 1_555
H66 C38 1_555 1_555
H67 C38 1_555 1_555
H68 N4 1_555 1_555
Sn1C O1 1_555 1_555
O1C Sn1 1_555 1_555
Sn2C O5 1_555 1_555
O5C Sn2 1_555 1_555
C1 C5 1_555 1_555
C3 C6 1_555 1_555
C9 C17 1_555 1_555
C10 C19 1_555 1_555
C16 C18 1_555 1_555
C20 C25 1_555 1_555
C20 C27 1_555 1_555
C21 C24 1_555 1_555
C26 C28 1_555 1_555
C29 C38 1_555 1_555
C31 C32 1_555 1_555
C34 C37 1_555 1_555

#END
