
#######################################################################
#
#                 Cambridge Crystallographic Data Centre
#                                CCDC 
#
#######################################################################
#
# If this CIF has been generated from an entry in the Cambridge 
# Structural Database, then it will include bibliographic, chemical, 
# crystal, experimental, refinement or atomic coordinate data resulting 
# from the CCDC's data processing and validation procedures.
#
#######################################################################

data_YOTXOW
_symmetry_cell_setting           monoclinic
_symmetry_space_group_name_H-M   'C 2/c'
_symmetry_Int_Tables_number      15
_space_group_name_Hall           '-C 2yn'
loop_
_symmetry_equiv_pos_site_id
_symmetry_equiv_pos_as_xyz
1 x,y,z
2 -x,y,1/2-z
3 1/2+x,1/2+y,z
4 1/2-x,1/2+y,1/2-z
5 -x,-y,-z
6 x,-y,1/2+z
7 1/2-x,1/2-y,-z
8 1/2+x,1/2-y,1/2+z
_cell_length_a                   37.1330(13)
_cell_length_b                   11.5278(4)
_cell_length_c                   6.51553(18)
_cell_angle_alpha                90
_cell_angle_beta                 109.266(3)
_cell_angle_gamma                90
_cell_volume                     2632.85
loop_
_atom_site_label
_atom_site_type_symbol
_atom_site_fract_x
_atom_site_fract_y
_atom_site_fract_z
Al1 Al 0.2209(4) 0.2837(10) 0.571(2)
Al2 Al 0.0000 0.0000 0.000
O1 O 0.1941(6) 0.3948(18) 0.354(4)
O2 O 0.1359(6) 0.4508(17) 0.091(4)
O3 O 0.2268(6) 0.1698(17) 0.810(4)
O4 O 0.1959(6) 0.027(2) 0.919(4)
O5 O 0.0348(6) 0.1247(18) 0.128(3)
O6 O 0.0423(6) 0.0939(19) 0.495(3)
O7 O 0.2295(6) 0.1784(17) 0.382(3)
O8 O 0.2257(6) 0.3955(16) 0.799(4)
O9 O 0.0000 -0.076(2) 0.250
N1 N 0.1666(8) 0.248(2) 0.502(5)
C1 C 0.1585(10) 0.401(3) 0.252(5)
C2 C 0.1417(10) 0.296(3) 0.326(6)
C3 C 0.1028(10) 0.256(3) 0.265(6)
C4 C 0.0928(10) 0.185(3) 0.410(6)
C5 C 0.1210(10) 0.128(3) 0.581(6)
C6 C 0.1594(10) 0.158(3) 0.621(6)
C7 C 0.1950(10) 0.113(3) 0.798(6)
C8 C 0.0527(9) 0.131(3) 0.336(6)
Al1A Al -0.2209(4) 0.2837(10) -0.071(2)
O1A O -0.1941(6) 0.3948(18) 0.146(4)
O2A O -0.1359(6) 0.4508(17) 0.409(4)
O3A O -0.2268(6) 0.1698(17) -0.310(4)
O4A O -0.1959(6) 0.027(2) -0.419(4)
O5A O -0.0348(6) 0.1247(18) 0.372(3)
O6A O -0.0423(6) 0.0939(19) 0.005(3)
O7A O -0.2295(6) 0.1784(17) 0.118(3)
O8A O -0.2257(6) 0.3955(16) -0.299(4)
N1A N -0.1666(8) 0.248(2) -0.002(5)
C1A C -0.1585(10) 0.401(3) 0.248(5)
C2A C -0.1417(10) 0.296(3) 0.174(6)
C3A C -0.1028(10) 0.256(3) 0.235(6)
C4A C -0.0928(10) 0.185(3) 0.090(6)
C5A C -0.1210(10) 0.128(3) -0.081(6)
C6A C -0.1594(10) 0.158(3) -0.121(6)
C7A C -0.1950(10) 0.113(3) -0.298(6)
C8A C -0.0527(9) 0.131(3) 0.164(6)
Al1G Al -0.2791(4) 0.2163(10) 0.071(2)
Al1F Al 0.2791(4) 0.2163(10) 0.429(2)
Al2A Al 0.0000 0.0000 0.500
O5D O -0.0348(6) -0.1247(18) -0.128(3)
O6E O 0.0423(6) -0.0939(19) -0.005(3)
O7G O -0.2705(6) 0.3216(17) -0.118(3)
O7F O 0.2705(6) 0.3216(17) 0.618(3)
O9E O 0.0000 0.076(2) -0.250
O10 O 0.0531(6) 0.510(2) 0.868(5)
O11 O 0.0153(7) 0.3437(18) 0.649(4)
loop_
_geom_bond_atom_site_label_1
_geom_bond_atom_site_label_2
_geom_bond_site_symmetry_1
_geom_bond_site_symmetry_2
Al1 O1 1_555 1_555
Al2 O5 1_555 1_555
O1 C1 1_555 1_555
O2 C1 1_555 1_555
O3 Al1 1_555 1_555
O4 C7 1_555 1_555
O5 C8 1_555 1_555
O6 C8 1_555 1_555
O7 Al1 1_555 1_555
O8 Al1 1_555 1_555
O9 Al2 1_555 1_555
N1 Al1 1_555 1_555
C1 C2 1_555 1_555
C2 N1 1_555 1_555
C3 C2 1_555 1_555
C4 C3 1_555 1_555
C5 C4 1_555 1_555
C6 N1 1_555 1_555
C7 O3 1_555 1_555
C8 C4 1_555 1_555
Al1A O1A 1_555 1_555
O1A C1A 1_555 1_555
O2A C1A 1_555 1_555
O3A Al1A 1_555 1_555
O4A C7A 1_555 1_555
O5A C8A 1_555 1_555
O6A Al2 1_555 1_555
O7A Al1A 1_555 1_555
O8A Al1A 1_555 1_555
N1A Al1A 1_555 1_555
C1A C2A 1_555 1_555
C2A N1A 1_555 1_555
C3A C2A 1_555 1_555
C4A C3A 1_555 1_555
C5A C4A 1_555 1_555
C6A N1A 1_555 1_555
C7A O3A 1_555 1_555
C8A O6A 1_555 1_555
Al1G O7A 1_555 1_555
Al1F O7 1_555 1_555
Al2A O6 1_555 1_555
O5D Al2 1_555 1_555
O6E Al2 1_555 1_555
O7G Al1A 1_555 1_555
O7F Al1 1_555 1_555
O9E Al2 1_555 1_555
O9 Al2A 1_555 1_555
C5 C6 1_555 1_555
C6 C7 1_555 1_555
O5A Al2A 1_555 1_555
C4A C8A 1_555 1_555
C5A C6A 1_555 1_555
C6A C7A 1_555 1_555
Al1G O7G 1_555 1_555
Al1F O7F 1_555 1_555

#END
