
#######################################################################
#
#                 Cambridge Crystallographic Data Centre
#                                CCDC 
#
#######################################################################
#
# If this CIF has been generated from an entry in the Cambridge 
# Structural Database, then it will include bibliographic, chemical, 
# crystal, experimental, refinement or atomic coordinate data resulting 
# from the CCDC's data processing and validation procedures.
#
#######################################################################

data_YOTYAJ
_symmetry_cell_setting           monoclinic
_symmetry_space_group_name_H-M   'P 21/c'
_symmetry_Int_Tables_number      14
_space_group_name_Hall           '-P 2ybc'
loop_
_symmetry_equiv_pos_site_id
_symmetry_equiv_pos_as_xyz
1 x,y,z
2 -x,1/2+y,1/2-z
3 -x,-y,-z
4 x,1/2-y,1/2+z
_cell_length_a                   10.0568(3)
_cell_length_b                   17.3408(5)
_cell_length_c                   12.1952(3)
_cell_angle_alpha                90
_cell_angle_beta                 111.985(2)
_cell_angle_gamma                90
_cell_volume                     1972.1
loop_
_atom_site_label
_atom_site_type_symbol
_atom_site_fract_x
_atom_site_fract_y
_atom_site_fract_z
Ga1 Ga 0.53139(4) 0.14286(2) 0.28293(3)
O1 O 0.4237(2) 0.15200(12) 0.39340(19)
O2 O 0.3412(3) 0.23391(13) 0.4936(2)
O3 O 0.6433(2) 0.18121(12) 0.18683(19)
O4 O 0.7098(3) 0.28681(13) 0.1154(2)
O5 O 0.5002(3) 0.53634(12) 0.2360(2)
O6 O 0.3898(3) 0.52117(14) 0.3634(3)
O7 O 0.7096(3) 0.12588(15) 0.4252(2)
H1 H 0.786(7) 0.130(4) 0.421(6)
H2 H 0.716(7) 0.154(4) 0.475(6)
O8 O 0.3491(3) 0.15895(15) 0.1447(2)
H3 H 0.277(5) 0.136(3) 0.138(4)
H4 H 0.336(6) 0.190(3) 0.088(5)
N1 N 0.5323(3) 0.25712(14) 0.3085(2)
C1 C 0.4042(3) 0.22036(16) 0.4267(2)
C2 C 0.4625(3) 0.28499(16) 0.3736(2)
C3 C 0.4432(3) 0.36375(16) 0.3801(3)
H5 H 0.3991 0.3840 0.4285
C4 C 0.4925(3) 0.41163(16) 0.3111(3)
C5 C 0.5646(3) 0.38118(16) 0.2430(2)
H6 H 0.5988 0.4129 0.1980
C6 C 0.5835(3) 0.30180(16) 0.2447(2)
C7 C 0.6522(3) 0.25483(17) 0.1760(2)
C8 C 0.4574(3) 0.49668(16) 0.3069(3)
Ga1A Ga 0.46861(4) 0.64286(2) 0.21707(3)
O5A O 0.4998(3) 0.03634(12) 0.2640(2)
Ga2 Ga 1.02946(4) 0.07911(2) 0.27006(3)
O9 O 1.1351(2) 0.07253(11) 0.15628(18)
O10 O 1.2035(2) -0.00544(13) 0.04183(19)
O11 O 0.9186(2) 0.03865(12) 0.36464(19)
O12 O 0.8069(3) -0.06713(13) 0.39432(19)
O13 O 0.9380(3) -0.31364(12) 0.2072(2)
O14 O 1.0569(3) -0.29394(14) 0.0872(3)
O15 O 0.8505(3) 0.10649(13) 0.13302(19)
H7 H 0.782(7) 0.121(4) 0.136(6)
H8 H 0.841(6) 0.066(3) 0.093(5)
O16 O 1.2138(3) 0.05349(13) 0.39971(19)
H9 H 1.282(5) 0.083(3) 0.405(4)
H10 H 1.205(6) 0.050(3) 0.455(5)
N2 N 1.0087(3) -0.03229(14) 0.2231(2)
C9 C 1.1423(3) 0.00603(16) 0.1105(2)
C10 C 1.0685(3) -0.05816(16) 0.1494(2)
C11 C 1.0597(3) -0.13577(16) 0.1196(3)
H11 H 1.0990 -0.1542 0.0667
C12 C 0.9901(3) -0.18554(16) 0.1714(3)
C13 C 0.9285(3) -0.15642(17) 0.2486(3)
H12 H 0.8822 -0.1887 0.2839
C14 C 0.9390(3) -0.07781(16) 0.2707(2)
C15 C 0.8821(3) -0.03293(17) 0.3507(2)
C16 C 0.9955(3) -0.27140(16) 0.1508(3)
Ga2A Ga 0.97054(4) -0.42089(2) 0.22994(3)
O13A O 1.0620(3) 0.18636(12) 0.2928(2)
loop_
_geom_bond_atom_site_label_1
_geom_bond_atom_site_label_2
_geom_bond_site_symmetry_1
_geom_bond_site_symmetry_2
Ga1 O1 1_555 1_555
O1 C1 1_555 1_555
O2 C1 1_555 1_555
O3 Ga1 1_555 1_555
O4 C7 1_555 1_555
O5 C8 1_555 1_555
O6 C8 1_555 1_555
O7 Ga1 1_555 1_555
H1 O7 1_555 1_555
H2 O7 1_555 1_555
O8 Ga1 1_555 1_555
H3 O8 1_555 1_555
H4 O8 1_555 1_555
N1 Ga1 1_555 1_555
C1 C2 1_555 1_555
C2 N1 1_555 1_555
C3 C2 1_555 1_555
H5 C3 1_555 1_555
C4 C3 1_555 1_555
C5 C4 1_555 1_555
H6 C5 1_555 1_555
C6 N1 1_555 1_555
C7 O3 1_555 1_555
C8 C4 1_555 1_555
Ga2 O9 1_555 1_555
O9 C9 1_555 1_555
O10 C9 1_555 1_555
O11 Ga2 1_555 1_555
O12 C15 1_555 1_555
O13 C16 1_555 1_555
O14 C16 1_555 1_555
O15 Ga2 1_555 1_555
H7 O15 1_555 1_555
H8 O15 1_555 1_555
O16 Ga2 1_555 1_555
H9 O16 1_555 1_555
H10 O16 1_555 1_555
N2 Ga2 1_555 1_555
C9 C10 1_555 1_555
C10 N2 1_555 1_555
C11 C10 1_555 1_555
H11 C11 1_555 1_555
C12 C11 1_555 1_555
C13 C12 1_555 1_555
H12 C13 1_555 1_555
C14 N2 1_555 1_555
C15 O11 1_555 1_555
C16 C12 1_555 1_555
Ga1A O5 1_555 1_555
O5A Ga1 1_555 1_555
Ga2A O13 1_555 1_555
O13A Ga2 1_555 1_555
C5 C6 1_555 1_555
C6 C7 1_555 1_555
C13 C14 1_555 1_555
C14 C15 1_555 1_555

#END
