
#######################################################################
#
#                 Cambridge Crystallographic Data Centre
#                                CCDC 
#
#######################################################################
#
# If this CIF has been generated from an entry in the Cambridge 
# Structural Database, then it will include bibliographic, chemical, 
# crystal, experimental, refinement or atomic coordinate data resulting 
# from the CCDC's data processing and validation procedures.
#
#######################################################################

data_YOTYEN
_symmetry_cell_setting           orthorhombic
_symmetry_space_group_name_H-M   'P b c n'
_symmetry_Int_Tables_number      60
_space_group_name_Hall           '-P 2n 2ab'
loop_
_symmetry_equiv_pos_site_id
_symmetry_equiv_pos_as_xyz
1 x,y,z
2 -x,y,1/2-z
3 1/2-x,1/2-y,1/2+z
4 1/2+x,1/2-y,-z
5 -x,-y,-z
6 x,-y,1/2+z
7 1/2+x,1/2+y,1/2-z
8 1/2-x,1/2+y,z
_cell_length_a                   9.60049(12)
_cell_length_b                   9.03411(12)
_cell_length_c                   11.17851(15)
_cell_angle_alpha                90
_cell_angle_beta                 90
_cell_angle_gamma                90
_cell_volume                     969.533
loop_
_atom_site_label
_atom_site_type_symbol
_atom_site_fract_x
_atom_site_fract_y
_atom_site_fract_z
In1 In 0.0000 -0.26824(15) 0.2500
O1 O 0.1275(8) -0.2001(10) 0.4024(7)
O2 O 0.1981(6) 0.0038(15) 0.5190(9)
O3 O 0.0873(8) 0.5077(9) 0.3170(7)
O4 O 0.1882(7) -0.2647(12) 0.1321(6)
N1 N 0.0000 -0.0198(13) 0.2500
C1 C 0.1384(12) -0.0665(15) 0.4269(12)
C2 C 0.0647(12) 0.0467(14) 0.3371(10)
C3 C 0.0684(10) 0.2051(14) 0.3399(9)
C4 C 0.0000 0.267(2) 0.2500
C5 C 0.0000 0.4387(17) 0.2500
O1A O -0.1275(8) -0.2001(10) 0.0976(7)
O2A O -0.1981(6) 0.0038(15) -0.0190(9)
O3A O -0.0873(8) 0.5077(9) 0.1830(7)
C1A C -0.1384(12) -0.0665(15) 0.0731(12)
C2A C -0.0647(12) 0.0467(14) 0.1629(10)
C3A C -0.0684(10) 0.2051(14) 0.1601(9)
O4A O -0.1882(7) -0.2647(12) 0.3679(6)
In1_2 In 0.0000 0.73176(15) 0.2500
O3_2 O 0.0873(8) -0.4923(9) 0.3170(7)
O3A_2 O -0.0873(8) -0.4923(9) 0.1830(7)
loop_
_geom_bond_atom_site_label_1
_geom_bond_atom_site_label_2
_geom_bond_site_symmetry_1
_geom_bond_site_symmetry_2
In1 O1 1_555 1_555
O1 C1 1_555 1_555
O2 C1 1_555 1_555
O3 C5 1_555 1_555
O4 In1 1_555 1_555
N1 In1 1_555 1_555
C1 C2 1_555 1_555
C2 N1 1_555 1_555
C3 C2 1_555 1_555
C4 C3 1_555 1_555
C5 C4 1_555 1_555
O1A In1 1_555 1_555
O2A C1A 1_555 1_555
O3A C5 1_555 1_555
C1A O1A 1_555 1_555
C2A N1 1_555 1_555
C3A C4 1_555 1_555
O4A In1 1_555 1_555
In1_2 O3 1_555 1_555
O3_2 In1 1_555 1_555
O3A_2 In1 1_555 1_555
O3A In1_2 1_555 1_555
C1A C2A 1_555 1_555
C2A C3A 1_555 1_555

#END
