
#######################################################################
#
#                 Cambridge Crystallographic Data Centre
#                                CCDC 
#
#######################################################################
#
# If this CIF has been generated from an entry in the Cambridge 
# Structural Database, then it will include bibliographic, chemical, 
# crystal, experimental, refinement or atomic coordinate data resulting 
# from the CCDC's data processing and validation procedures.
#
#######################################################################

data_YOVBOC
_symmetry_cell_setting           monoclinic
_symmetry_space_group_name_H-M   'P 21/a'
_symmetry_Int_Tables_number      14
_space_group_name_Hall           '-P 2yab'
loop_
_symmetry_equiv_pos_site_id
_symmetry_equiv_pos_as_xyz
1 x,y,z
2 1/2-x,1/2+y,-z
3 -x,-y,-z
4 1/2+x,1/2-y,z
_cell_length_a                   8.8799(15)
_cell_length_b                   13.1209(15)
_cell_length_c                   13.631(2)
_cell_angle_alpha                90
_cell_angle_beta                 92.469(13)
_cell_angle_gamma                90
_cell_volume                     1586.7
loop_
_atom_site_label
_atom_site_type_symbol
_atom_site_fract_x
_atom_site_fract_y
_atom_site_fract_z
C1 C 0.1849(9) 0.0872(6) 0.0615(5)
C2 C 0.3230(10) 0.0764(7) 0.0121(6)
H1 H 0.4055 0.0459 0.0447
C3 C 0.3362(11) 0.1102(7) -0.0826(7)
H2 H 0.4288 0.1049 -0.1116
C4 C 0.2160(11) 0.1514(6) -0.1356(6)
H3 H 0.2262 0.1727 -0.2000
C5 C 0.0803(11) 0.1606(6) -0.0913(6)
H4 H -0.0021 0.1870 -0.1273
C6 C 0.0625(8) 0.1313(5) 0.0064(5)
C7 C -0.0845(9) 0.1478(5) 0.0467(6)
H5 H -0.1605 0.1711 0.0033
C8 C -0.2743(9) 0.1572(7) 0.1618(6)
H6 H -0.3419 0.1471 0.1048
H7 H -0.2801 0.2282 0.1811
C9 C -0.3228(8) 0.0915(6) 0.2437(6)
C10 C -0.4766(9) 0.0804(7) 0.2629(6)
H8 H -0.5505 0.1132 0.2241
C11 C -0.5141(11) 0.0205(8) 0.3394(8)
H9 H -0.6146 0.0135 0.3549
C12 C -0.4013(14) -0.0307(9) 0.3950(9)
H10 H -0.4255 -0.0731 0.4467
C13 C -0.2569(11) -0.0168(7) 0.3715(7)
H11 H -0.1819 -0.0505 0.4085
C14 C 0.1494(12) 0.2047(7) 0.4106(7)
C15 C 0.3651(10) 0.3731(6) 0.6299(7)
Ag1 Ag 0.26225(10) 0.28802(5) 0.51937(6)
N1 N -0.1203(7) 0.1333(5) 0.1362(4)
N2 N -0.2156(8) 0.0434(5) 0.2975(5)
N3 N 0.0917(8) 0.1594(5) 0.3489(5)
N4 N 0.4216(8) 0.4289(5) 0.6847(5)
O1 O 0.1808(6) 0.0574(4) 0.1524(4)
Zn1 Zn 0.01166(9) 0.06076(6) 0.24261(6)
N4A N 0.0784(8) -0.0711(5) 0.3153(5)
Zn1A Zn 0.48834(9) 0.56076(6) 0.75739(6)
loop_
_geom_bond_atom_site_label_1
_geom_bond_atom_site_label_2
_geom_bond_site_symmetry_1
_geom_bond_site_symmetry_2
C1 C2 1_555 1_555
C2 H1 1_555 1_555
C3 C2 1_555 1_555
H2 C3 1_555 1_555
C4 C3 1_555 1_555
H3 C4 1_555 1_555
C5 C4 1_555 1_555
H4 C5 1_555 1_555
C6 C1 1_555 1_555
C7 C6 1_555 1_555
H5 C7 1_555 1_555
C8 H6 1_555 1_555
H7 C8 1_555 1_555
C9 C8 1_555 1_555
C10 C9 1_555 1_555
H8 C10 1_555 1_555
C11 C10 1_555 1_555
H9 C11 1_555 1_555
C12 C11 1_555 1_555
H10 C12 1_555 1_555
C13 C12 1_555 1_555
H11 C13 1_555 1_555
C14 Ag1 1_555 1_555
C15 Ag1 1_555 1_555
N1 C7 1_555 1_555
N2 C9 1_555 1_555
N3 C14 1_555 1_555
N4 C15 1_555 1_555
O1 C1 1_555 1_555
Zn1 N1 1_555 1_555
N4A Zn1 1_555 1_555
Zn1A N4 1_555 1_555
C5 C6 1_555 1_555
C8 N1 1_555 1_555
C13 N2 1_555 1_555
N2 Zn1 1_555 1_555
N3 Zn1 1_555 1_555
O1 Zn1 1_555 1_555

#END
