
#######################################################################
#
#                 Cambridge Crystallographic Data Centre
#                                CCDC 
#
#######################################################################
#
# If this CIF has been generated from an entry in the Cambridge 
# Structural Database, then it will include bibliographic, chemical, 
# crystal, experimental, refinement or atomic coordinate data resulting 
# from the CCDC's data processing and validation procedures.
#
#######################################################################

data_YOVBIW
_symmetry_cell_setting           monoclinic
_symmetry_space_group_name_H-M   'C 2/c'
_symmetry_Int_Tables_number      15
_space_group_name_Hall           '-C 2yn'
loop_
_symmetry_equiv_pos_site_id
_symmetry_equiv_pos_as_xyz
1 x,y,z
2 -x,y,1/2-z
3 1/2+x,1/2+y,z
4 1/2-x,1/2+y,1/2-z
5 -x,-y,-z
6 x,-y,1/2+z
7 1/2-x,1/2-y,-z
8 1/2+x,1/2-y,1/2+z
_cell_length_a                   21.903(4)
_cell_length_b                   10.271(2)
_cell_length_c                   17.428(4)
_cell_angle_alpha                90
_cell_angle_beta                 101.34(3)
_cell_angle_gamma                90
_cell_volume                     3844.16
loop_
_atom_site_label
_atom_site_type_symbol
_atom_site_fract_x
_atom_site_fract_y
_atom_site_fract_z
C1 C 0.1934(3) 0.1156(4) 0.1003(3)
C2 C 0.1871(4) -0.0109(5) 0.1285(3)
H1 H 0.1510 -0.0571 0.1079
C3 C 0.2306(4) -0.0694(6) 0.1842(4)
H2 H 0.2238 -0.1533 0.2007
C4 C 0.2842(4) -0.0056(6) 0.2158(3)
H3 H 0.3139 -0.0455 0.2542
C5 C 0.2942(3) 0.1164(6) 0.1910(3)
H4 H 0.3312 0.1587 0.2121
C6 C 0.2493(3) 0.1814(5) 0.1336(3)
C7 C 0.2635(3) 0.3123(5) 0.1131(3)
H5 H 0.3038 0.3418 0.1317
C8 C 0.2470(3) 0.5253(5) 0.0620(4)
H6 H 0.2587 0.5348 0.0114
H7 H 0.2832 0.5436 0.1024
C9 C 0.1951(3) 0.6188(5) 0.0686(4)
H8 H 0.1892 0.6202 0.1223
H9 H 0.2069 0.7058 0.0554
C10 C 0.0842(4) 0.6500(7) 0.0401(6)
H10 H 0.0823 0.6263 0.0928
H11 H 0.0459 0.6262 0.0059
H12 H 0.0903 0.7423 0.0372
C11 C 0.1367(5) 0.6209(7) -0.0642(4)
H13 H 0.1711 0.5793 -0.0809
H14 H 0.1413 0.7137 -0.0667
H15 H 0.0985 0.5950 -0.0978
C12 C 0.0534(3) 0.3683(5) 0.1647(3)
C13 C 0.0513(3) 0.3251(5) -0.1362(3)
Ag1 Ag 0.0000 0.36537(8) 0.2500
Ag2 Ag 0.0000 0.31586(7) -0.2500
N1 N 0.2250(2) 0.3931(4) 0.0709(2)
N2 N 0.1355(2) 0.5825(4) 0.0163(2)
N3 N 0.0801(2) 0.3701(4) 0.1165(2)
N4 N 0.0794(2) 0.3350(4) -0.0748(2)
O1 O 0.14995(19) 0.1648(3) 0.0453(2)
Zn1 Zn 0.13238(3) 0.35814(5) 0.03254(3)
C1A C -0.1934(3) 0.1156(4) -0.6003(3)
C2A C -0.1871(4) -0.0109(5) -0.6285(3)
H1A H -0.1510 -0.0571 -0.6079
C3A C -0.2306(4) -0.0694(6) -0.6842(4)
H2A H -0.2238 -0.1533 -0.7007
C4A C -0.2842(4) -0.0056(6) -0.7158(3)
H3A H -0.3139 -0.0455 -0.7542
C5A C -0.2942(3) 0.1164(6) -0.6910(3)
H4A H -0.3312 0.1587 -0.7121
C6A C -0.2493(3) 0.1814(5) -0.6336(3)
C7A C -0.2635(3) 0.3123(5) -0.6131(3)
H5A H -0.3038 0.3418 -0.6317
C8A C -0.2470(3) 0.5253(5) -0.5620(4)
H6A H -0.2587 0.5348 -0.5114
H7A H -0.2832 0.5436 -0.6024
C9A C -0.1951(3) 0.6188(5) -0.5686(4)
H8A H -0.1892 0.6202 -0.6223
H9A H -0.2069 0.7058 -0.5554
C10A C -0.0842(4) 0.6500(7) -0.5401(6)
H10A H -0.0823 0.6263 -0.5928
H11A H -0.0459 0.6262 -0.5059
H12A H -0.0903 0.7423 -0.5372
C11A C -0.1367(5) 0.6209(7) -0.4358(4)
H13A H -0.1711 0.5793 -0.4191
H14A H -0.1413 0.7137 -0.4333
H15A H -0.0985 0.5950 -0.4022
C12A C -0.0534(3) 0.3683(5) -0.6647(3)
C13A C -0.0513(3) 0.3251(5) -0.3638(3)
N1A N -0.2250(2) 0.3931(4) -0.5709(2)
N2A N -0.1355(2) 0.5825(4) -0.5163(2)
N3A N -0.0801(2) 0.3701(4) -0.6165(2)
N4A N -0.0794(2) 0.3350(4) -0.4252(2)
O1A O -0.14995(19) 0.1648(3) -0.5453(2)
Zn1A Zn -0.13238(3) 0.35814(5) -0.53254(3)
C12A_2 C -0.0534(3) 0.3683(5) 0.3353(3)
Ag1_2 Ag 0.0000 0.36537(8) -0.7500
O2 O 0.0696(8) -0.0073(8) -0.0525(7)
O3 O 0.0834(11) 0.046(3) 0.2828(15)
loop_
_geom_bond_atom_site_label_1
_geom_bond_atom_site_label_2
_geom_bond_site_symmetry_1
_geom_bond_site_symmetry_2
C1 C2 1_555 1_555
C2 H1 1_555 1_555
C3 C2 1_555 1_555
H2 C3 1_555 1_555
C4 C3 1_555 1_555
H3 C4 1_555 1_555
C5 C4 1_555 1_555
H4 C5 1_555 1_555
C6 C1 1_555 1_555
C7 C6 1_555 1_555
H5 C7 1_555 1_555
C8 H6 1_555 1_555
H7 C8 1_555 1_555
C9 C8 1_555 1_555
H8 C9 1_555 1_555
H9 C9 1_555 1_555
C10 H10 1_555 1_555
H11 C10 1_555 1_555
H12 C10 1_555 1_555
C11 H13 1_555 1_555
H14 C11 1_555 1_555
H15 C11 1_555 1_555
C12 Ag1 1_555 1_555
C13 Ag2 1_555 1_555
Ag1 C12A_2 1_555 1_555
Ag2 C13A 1_555 1_555
N1 C7 1_555 1_555
N2 C9 1_555 1_555
N3 C12 1_555 1_555
N4 C13 1_555 1_555
O1 C1 1_555 1_555
Zn1 N1 1_555 1_555
C1A C2A 1_555 1_555
C2A H1A 1_555 1_555
C3A C2A 1_555 1_555
H2A C3A 1_555 1_555
C4A C3A 1_555 1_555
H3A C4A 1_555 1_555
C5A C4A 1_555 1_555
H4A C5A 1_555 1_555
C6A C1A 1_555 1_555
C7A C6A 1_555 1_555
H5A C7A 1_555 1_555
C8A H6A 1_555 1_555
H7A C8A 1_555 1_555
C9A C8A 1_555 1_555
H8A C9A 1_555 1_555
H9A C9A 1_555 1_555
C10A H10A 1_555 1_555
H11A C10A 1_555 1_555
H12A C10A 1_555 1_555
C11A H13A 1_555 1_555
H14A C11A 1_555 1_555
H15A C11A 1_555 1_555
C12A N3A 1_555 1_555
C13A N4A 1_555 1_555
N1A C7A 1_555 1_555
N2A C9A 1_555 1_555
N3A Zn1A 1_555 1_555
N4A Zn1A 1_555 1_555
O1A C1A 1_555 1_555
Zn1A N1A 1_555 1_555
Ag1_2 C12A 1_555 1_555
C5 C6 1_555 1_555
C8 N1 1_555 1_555
C10 N2 1_555 1_555
C11 N2 1_555 1_555
N2 Zn1 1_555 1_555
N3 Zn1 1_555 1_555
N4 Zn1 1_555 1_555
O1 Zn1 1_555 1_555
C5A C6A 1_555 1_555
C8A N1A 1_555 1_555
C10A N2A 1_555 1_555
C11A N2A 1_555 1_555
N2A Zn1A 1_555 1_555
O1A Zn1A 1_555 1_555

#END
