
#######################################################################
#
#                 Cambridge Crystallographic Data Centre
#                                CCDC 
#
#######################################################################
#
# If this CIF has been generated from an entry in the Cambridge 
# Structural Database, then it will include bibliographic, chemical, 
# crystal, experimental, refinement or atomic coordinate data resulting 
# from the CCDC's data processing and validation procedures.
#
#######################################################################

data_YOVCAP
_symmetry_cell_setting           rhombohedral
_symmetry_space_group_name_H-M   'R -3'
_symmetry_Int_Tables_number      148
_space_group_name_Hall           '-R 3'
loop_
_symmetry_equiv_pos_site_id
_symmetry_equiv_pos_as_xyz
1 x,y,z
2 -y,x-y,z
3 -x+y,-x,z
4 2/3+x,1/3+y,1/3+z
5 2/3-y,1/3+x-y,1/3+z
6 2/3-x+y,1/3-x,1/3+z
7 1/3+x,2/3+y,2/3+z
8 1/3-y,2/3+x-y,2/3+z
9 1/3-x+y,2/3-x,2/3+z
10 -x,-y,-z
11 y,-x+y,-z
12 x-y,x,-z
13 1/3-x,2/3-y,2/3-z
14 1/3+y,2/3-x+y,2/3-z
15 1/3+x-y,2/3+x,2/3-z
16 2/3-x,1/3-y,1/3-z
17 2/3+y,1/3-x+y,1/3-z
18 2/3+x-y,1/3+x,1/3-z
_cell_length_a                   28.707(7)
_cell_length_b                   28.707(7)
_cell_length_c                   24.682(11)
_cell_angle_alpha                90
_cell_angle_beta                 90
_cell_angle_gamma                120
_cell_volume                     17615.2
loop_
_atom_site_label
_atom_site_type_symbol
_atom_site_fract_x
_atom_site_fract_y
_atom_site_fract_z
O9 O 0.0080(4) 0.8265(5) 0.1437(4)
C1 C 0.2993(2) 0.27678(17) 0.0105(2)
C2 C 0.29605(17) 0.22316(16) 0.00486(18)
C3 C 0.33994(18) 0.22075(18) -0.0141(2)
H1 H 0.3700 0.2520 -0.0262
C4 C 0.33983(17) 0.17285(16) -0.0154(2)
C5 C 0.29397(16) 0.12706(16) 0.0022(2)
H2 H 0.2933 0.0944 0.0006
C6 C 0.24942(15) 0.12752(15) 0.02193(18)
C7 C 0.25127(15) 0.17667(15) 0.02274(17)
H3 H 0.2217 0.1784 0.0356
C8 C 0.3892(2) 0.1710(2) -0.0307(3)
C9 C 0.20390(15) 0.07852(15) 0.04599(17)
C10 C 0.21409(15) 0.04205(15) 0.07147(17)
H4 H 0.2491 0.0482 0.0716
C11 C 0.17501(14) -0.00294(15) 0.09665(16)
C12 C 0.12291(14) -0.01257(14) 0.09580(16)
H5 H 0.0959 -0.0430 0.1129
C13 C 0.10999(13) 0.02274(13) 0.06968(15)
C14 C 0.15057(14) 0.06750(14) 0.04493(16)
H6 H 0.1424 0.0911 0.0270
C15 C 0.05372(13) 0.01107(13) 0.06997(15)
C16 C 0.04174(13) 0.05246(13) 0.07002(15)
H7 H 0.0699 0.0879 0.0701
C17 C 0.18935(15) -0.03915(15) 0.12540(17)
C18 C 0.23893(16) -0.01963(17) 0.14875(19)
H8 H 0.2632 0.0171 0.1466
C19 C 0.25451(16) -0.05152(18) 0.1751(2)
C20 C 0.22006(19) -0.1053(2) 0.1766(2)
H9 H 0.2303 -0.1275 0.1939
C21 C 0.16977(18) -0.12772(17) 0.1526(2)
C22 C 0.15498(16) -0.09487(16) 0.12705(18)
H10 H 0.1215 -0.1098 0.1104
C23 C 0.1341(2) -0.1873(2) 0.1512(3)
C24 C 0.3106(2) -0.0264(2) 0.1976(2)
O1 O 0.26284(13) 0.27662(11) 0.03790(15)
O2 O 0.33815(18) 0.31693(15) -0.0079(2)
O3 O 0.38581(12) 0.12674(13) -0.04253(17)
O4 O 0.43266(15) 0.21418(15) -0.0306(3)
O5 O 0.09035(13) -0.20530(12) 0.12595(16)
O6 O 0.1480(2) -0.21569(16) 0.1742(3)
O7 O 0.34270(15) 0.02086(18) 0.19091(19)
O8 O 0.32186(13) -0.05480(14) 0.22643(15)
Zn1 Zn 0.395903(19) -0.00092(2) 0.24989(3)
C1A C -0.27678(17) 0.02252(26) 0.0105(2)
C2A C -0.22316(16) 0.07289(23) 0.00486(18)
C3A C -0.22075(18) 0.11919(25) -0.0141(2)
H1A H -0.2520 0.1180 -0.0262
C4A C -0.17285(16) 0.16698(23) -0.0154(2)
C5A C -0.12706(16) 0.16691(23) 0.0022(2)
H2A H -0.0944 0.1989 0.0006
C6A C -0.12752(15) 0.12190(21) 0.02193(18)
C7A C -0.17667(15) 0.07460(21) 0.02274(17)
H3A H -0.1784 0.0433 0.0356
C8A C -0.1710(2) 0.2182(3) -0.0307(3)
C9A C -0.07852(15) 0.12538(21) 0.04599(17)
C10A C -0.04205(15) 0.17204(21) 0.07147(17)
H4A H -0.0482 0.2009 0.0716
C11A C 0.00294(15) 0.17795(21) 0.09665(16)
C12A C 0.01257(14) 0.13548(20) 0.09580(16)
H5A H 0.0430 0.1389 0.1129
C13A C -0.02274(13) 0.08725(18) 0.06968(15)
C14A C -0.06750(14) 0.08307(20) 0.04493(16)
H6A H -0.0911 0.0513 0.0270
C15A C -0.01107(13) 0.04265(18) 0.06997(15)
C16A C -0.05246(13) -0.01072(18) 0.07002(15)
H7A H -0.0879 -0.0180 0.0701
C17A C 0.03915(15) 0.22850(21) 0.12540(17)
C18A C 0.01963(17) 0.25856(23) 0.14875(19)
H8A H -0.0171 0.2461 0.1466
C19A C 0.05152(18) 0.30603(24) 0.1751(2)
C20A C 0.1053(2) 0.32536(28) 0.1766(2)
H9A H 0.1275 0.3578 0.1939
C21A C 0.12772(17) 0.29749(25) 0.1526(2)
C22A C 0.09487(16) 0.24985(23) 0.12705(18)
H10A H 0.1098 0.2313 0.1104
C23A C 0.1873(2) 0.3214(3) 0.1512(3)
C24A C 0.0264(2) 0.3370(3) 0.1976(2)
O1A O -0.27662(11) -0.01378(17) 0.03790(15)
O2A O -0.31693(15) 0.02122(23) -0.0079(2)
O3A O -0.12674(13) 0.25907(18) -0.04253(17)
O4A O -0.21418(15) 0.21848(21) -0.0306(3)
O5A O 0.20530(12) 0.29565(18) 0.12595(16)
O6A O 0.21569(16) 0.36369(26) 0.1742(3)
O7A O -0.02086(18) 0.32184(23) 0.19091(19)
O8A O 0.05480(14) 0.37666(19) 0.22643(15)
C1B C -0.02252(26) -0.2993(2) 0.0105(2)
C2B C -0.07289(23) -0.29605(17) 0.00486(18)
C3B C -0.11919(25) -0.33994(18) -0.0141(2)
H1B H -0.1180 -0.3700 -0.0262
C4B C -0.16698(23) -0.33983(17) -0.0154(2)
C5B C -0.16691(23) -0.29397(16) 0.0022(2)
H2B H -0.1989 -0.2933 0.0006
C6B C -0.12190(21) -0.24942(15) 0.02193(18)
C7B C -0.07460(21) -0.25127(15) 0.02274(17)
H3B H -0.0433 -0.2217 0.0356
C8B C -0.2182(3) -0.3892(2) -0.0307(3)
C9B C -0.12538(21) -0.20390(15) 0.04599(17)
C10B C -0.17204(21) -0.21409(15) 0.07147(17)
H4B H -0.2009 -0.2491 0.0716
C11B C -0.17795(21) -0.17501(14) 0.09665(16)
C12B C -0.13548(20) -0.12291(14) 0.09580(16)
H5B H -0.1389 -0.0959 0.1129
C13B C -0.08725(18) -0.10999(13) 0.06968(15)
C14B C -0.08307(20) -0.15057(14) 0.04493(16)
H6B H -0.0513 -0.1424 0.0270
C15B C -0.04265(18) -0.05372(13) 0.06997(15)
C16B C 0.01072(18) -0.04174(13) 0.07002(15)
H7B H 0.0180 -0.0699 0.0701
C17B C -0.22850(21) -0.18935(15) 0.12540(17)
C18B C -0.25856(23) -0.23893(16) 0.14875(19)
H8B H -0.2461 -0.2632 0.1466
C19B C -0.30603(24) -0.25451(16) 0.1751(2)
C20B C -0.32536(28) -0.22006(19) 0.1766(2)
H9B H -0.3578 -0.2303 0.1939
C21B C -0.29749(25) -0.16977(18) 0.1526(2)
C22B C -0.24985(23) -0.15498(16) 0.12705(18)
H10B H -0.2313 -0.1215 0.1104
C23B C -0.3214(3) -0.1341(2) 0.1512(3)
C24B C -0.3370(3) -0.3106(2) 0.1976(2)
O1B O 0.01378(17) -0.26284(13) 0.03790(15)
O2B O -0.02122(23) -0.33815(18) -0.0079(2)
O3B O -0.25907(18) -0.38581(12) -0.04253(17)
O4B O -0.21848(21) -0.43266(15) -0.0306(3)
O5B O -0.29565(18) -0.09035(13) 0.12595(16)
O6B O -0.36369(26) -0.1480(2) 0.1742(3)
O7B O -0.32184(23) -0.34270(15) 0.19091(19)
O8B O -0.37666(19) -0.32186(13) 0.22643(15)
Zn1A Zn 0.00092(2) 0.396823(28) 0.24989(3)
Zn1B Zn -0.396823(28) -0.395903(19) 0.24989(3)
O1O O 0.40383(13) 0.05671(11) 0.29543(15)
O1P O -0.05671(11) 0.34711(17) 0.29543(15)
O1Q O -0.34711(17) -0.40383(13) 0.29543(15)
O3C O 0.05248(12) 0.46007(13) 0.29080(17)
O3D O -0.46007(13) -0.40760(18) 0.29080(17)
O3E O 0.40760(18) -0.05248(12) 0.29080(17)
O5O O -0.42368(13) -0.46137(12) 0.20738(16)
O5P O 0.46137(12) 0.03768(18) 0.20738(16)
O5Q O -0.03768(18) 0.42368(13) 0.20738(16)
Zn1F Zn -0.270764(19) -0.33425(2) -0.08344(3)
Zn1G Zn 0.33425(2) 0.063490(28) -0.08344(3)
Zn1H Zn -0.063490(28) 0.270764(19) -0.08344(3)
Zn1O Zn 0.270764(19) 0.33425(2) 0.08344(3)
Zn1P Zn -0.33425(2) -0.063490(28) 0.08344(3)
Zn1Q Zn 0.063490(28) -0.270764(19) 0.08344(3)
loop_
_geom_bond_atom_site_label_1
_geom_bond_atom_site_label_2
_geom_bond_site_symmetry_1
_geom_bond_site_symmetry_2
C1 C2 1_555 1_555
C2 C3 1_555 1_555
C3 H1 1_555 1_555
C4 C3 1_555 1_555
C5 C4 1_555 1_555
H2 C5 1_555 1_555
C6 C5 1_555 1_555
C7 C2 1_555 1_555
H3 C7 1_555 1_555
C8 C4 1_555 1_555
C9 C6 1_555 1_555
C10 C9 1_555 1_555
H4 C10 1_555 1_555
C11 C10 1_555 1_555
C12 C11 1_555 1_555
H5 C12 1_555 1_555
C13 C12 1_555 1_555
C14 C9 1_555 1_555
H6 C14 1_555 1_555
C15 C13 1_555 1_555
C16 C15 1_555 1_555
H7 C16 1_555 1_555
C17 C11 1_555 1_555
C18 C17 1_555 1_555
H8 C18 1_555 1_555
C19 C18 1_555 1_555
C20 C19 1_555 1_555
H9 C20 1_555 1_555
C21 C20 1_555 1_555
C22 C17 1_555 1_555
H10 C22 1_555 1_555
C23 C21 1_555 1_555
C24 C19 1_555 1_555
O1 C1 1_555 1_555
O2 C1 1_555 1_555
O3 C8 1_555 1_555
O4 C8 1_555 1_555
O5 C23 1_555 1_555
O6 C23 1_555 1_555
O7 C24 1_555 1_555
O8 C24 1_555 1_555
Zn1 O7 1_555 1_555
C1A C2A 1_555 1_555
C2A C3A 1_555 1_555
C3A H1A 1_555 1_555
C4A C3A 1_555 1_555
C5A C4A 1_555 1_555
H2A C5A 1_555 1_555
C6A C5A 1_555 1_555
C7A C2A 1_555 1_555
H3A C7A 1_555 1_555
C8A C4A 1_555 1_555
C9A C6A 1_555 1_555
C10A C9A 1_555 1_555
H4A C10A 1_555 1_555
C11A C10A 1_555 1_555
C12A C11A 1_555 1_555
H5A C12A 1_555 1_555
C13A C12A 1_555 1_555
C14A C9A 1_555 1_555
H6A C14A 1_555 1_555
C15A C16 1_555 1_555
C16A C15A 1_555 1_555
H7A C16A 1_555 1_555
C17A C11A 1_555 1_555
C18A C17A 1_555 1_555
H8A C18A 1_555 1_555
C19A C18A 1_555 1_555
C20A C19A 1_555 1_555
H9A C20A 1_555 1_555
C21A C20A 1_555 1_555
C22A C17A 1_555 1_555
H10A C22A 1_555 1_555
C23A C21A 1_555 1_555
C24A C19A 1_555 1_555
O1A C1A 1_555 1_555
O2A C1A 1_555 1_555
O3A C8A 1_555 1_555
O4A C8A 1_555 1_555
O5A C23A 1_555 1_555
O6A C23A 1_555 1_555
O7A C24A 1_555 1_555
O8A C24A 1_555 1_555
C1B C2B 1_555 1_555
C2B C3B 1_555 1_555
C3B H1B 1_555 1_555
C4B C3B 1_555 1_555
C5B C4B 1_555 1_555
H2B C5B 1_555 1_555
C6B C5B 1_555 1_555
C7B C2B 1_555 1_555
H3B C7B 1_555 1_555
C8B C4B 1_555 1_555
C9B C6B 1_555 1_555
C10B C9B 1_555 1_555
H4B C10B 1_555 1_555
C11B C10B 1_555 1_555
C12B C11B 1_555 1_555
H5B C12B 1_555 1_555
C13B C12B 1_555 1_555
C14B C9B 1_555 1_555
H6B C14B 1_555 1_555
C15B C16A 1_555 1_555
C16B C15 1_555 1_555
H7B C16B 1_555 1_555
C17B C11B 1_555 1_555
C18B C17B 1_555 1_555
H8B C18B 1_555 1_555
C19B C18B 1_555 1_555
C20B C19B 1_555 1_555
H9B C20B 1_555 1_555
C21B C20B 1_555 1_555
C22B C17B 1_555 1_555
H10B C22B 1_555 1_555
C23B C21B 1_555 1_555
C24B C19B 1_555 1_555
O1B C1B 1_555 1_555
O2B C1B 1_555 1_555
O3B C8B 1_555 1_555
O4B C8B 1_555 1_555
O5B C23B 1_555 1_555
O6B C23B 1_555 1_555
O7B C24B 1_555 1_555
O8B C24B 1_555 1_555
Zn1A O7A 1_555 1_555
Zn1B O7B 1_555 1_555
O1O Zn1 1_555 1_555
O1P Zn1A 1_555 1_555
O1Q Zn1B 1_555 1_555
O3C Zn1A 1_555 1_555
O3D Zn1B 1_555 1_555
O3E Zn1 1_555 1_555
O5O Zn1B 1_555 1_555
O5P Zn1 1_555 1_555
O5Q Zn1A 1_555 1_555
Zn1F O3B 1_555 1_555
Zn1G O3 1_555 1_555
Zn1H O3A 1_555 1_555
Zn1O O1 1_555 1_555
Zn1P O1A 1_555 1_555
Zn1Q O5 1_555 1_555
C6 C7 1_555 1_555
C13 C14 1_555 1_555
C21 C22 1_555 1_555
O8 Zn1 1_555 1_555
C6A C7A 1_555 1_555
C13A C14A 1_555 1_555
C13A C15A 1_555 1_555
C21A C22A 1_555 1_555
O5A Zn1O 1_555 1_555
O8A Zn1A 1_555 1_555
C6B C7B 1_555 1_555
C13B C14B 1_555 1_555
C13B C15B 1_555 1_555
C15B C16B 1_555 1_555
C21B C22B 1_555 1_555
O1B Zn1Q 1_555 1_555
O5B Zn1P 1_555 1_555
O8B Zn1B 1_555 1_555

#END
