
#######################################################################
#
#                 Cambridge Crystallographic Data Centre
#                                CCDC 
#
#######################################################################
#
# If this CIF has been generated from an entry in the Cambridge 
# Structural Database, then it will include bibliographic, chemical, 
# crystal, experimental, refinement or atomic coordinate data resulting 
# from the CCDC's data processing and validation procedures.
#
#######################################################################

data_YOVCIX
_symmetry_cell_setting           triclinic
_symmetry_space_group_name_H-M   'P -1'
_symmetry_Int_Tables_number      2
_space_group_name_Hall           '-P 1'
loop_
_symmetry_equiv_pos_site_id
_symmetry_equiv_pos_as_xyz
1 x,y,z
2 -x,-y,-z
_cell_length_a                   10.519(3)
_cell_length_b                   12.038(3)
_cell_length_c                   13.100(3)
_cell_angle_alpha                95.687(5)
_cell_angle_beta                 111.148(5)
_cell_angle_gamma                112.522(6)
_cell_volume                     1373.84
loop_
_atom_site_label
_atom_site_type_symbol
_atom_site_fract_x
_atom_site_fract_y
_atom_site_fract_z
Co1 Co 1.0000 0.0000 1.5000
O1 O 0.8146(3) 0.3223(2) 0.88297(17)
O2 O 0.7450(2) -0.07850(18) 0.78653(16)
O3 O 0.9521(2) -0.10192(18) 1.23514(16)
O4 O 1.0042(2) 0.06622(17) 1.36187(14)
O5 O 0.9355(2) -0.18490(16) 1.40480(15)
H1 H 0.9483 -0.1720 1.3454
H2 H 0.8437 -0.2243 1.3879
N1 N 0.7764(2) 0.1240(2) 0.80849(17)
N2 N 0.2383(2) 0.04119(19) 0.56002(17)
C1 C 0.8164(3) 0.2248(3) 0.8956(2)
C2 C 0.7833(3) 0.0216(3) 0.8469(2)
C3 C 0.8399(3) 0.0633(2) 0.9728(2)
C4 C 0.8732(3) 0.0020(2) 1.0555(2)
H3 H 0.8625 -0.0787 1.0368
C5 C 0.9236(3) 0.0663(2) 1.1681(2)
C6 C 0.9359(3) 0.1859(3) 1.1946(2)
H4 H 0.9674 0.2263 1.2699
C7 C 0.9020(3) 0.2465(3) 1.1109(2)
H5 H 0.9099 0.3264 1.1286
C8 C 0.8562(3) 0.1832(3) 1.0008(2)
C9 C 0.9637(3) 0.0046(2) 1.2619(2)
C10 C 0.7145(3) 0.1229(3) 0.6894(2)
H6 H 0.7247 0.0601 0.6450
H7 H 0.7728 0.2037 0.6815
C11 C 0.3320(3) 0.1187(3) 0.5231(2)
H8 H 0.2921 0.1548 0.4683
C12 C 0.4841(3) 0.1473(3) 0.5622(2)
H9 H 0.5441 0.2018 0.5341
C13 C 0.5481(3) 0.0950(2) 0.6435(2)
C14 C 0.4515(3) 0.0142(3) 0.6803(2)
H10 H 0.4884 -0.0243 0.7339
C15 C 0.3003(3) -0.0095(3) 0.6378(2)
H11 H 0.2382 -0.0638 0.6648
O1A O 0.1854(3) -0.3223(2) 1.11703(17)
O2A O 0.2550(2) 0.07850(18) 1.21347(16)
O3A O 0.0479(2) 0.10192(18) 0.76486(16)
O4A O -0.0042(2) -0.06622(17) 0.63813(14)
N1A N 0.2236(2) -0.1240(2) 1.19151(17)
N2A N 0.7617(2) -0.04119(19) 1.43998(17)
C1A C 0.1836(3) -0.2248(3) 1.1044(2)
C2A C 0.2167(3) -0.0216(3) 1.1531(2)
C3A C 0.1601(3) -0.0633(2) 1.0272(2)
C4A C 0.1268(3) -0.0020(2) 0.9445(2)
H3A H 0.1375 0.0787 0.9632
C5A C 0.0764(3) -0.0663(2) 0.8319(2)
C6A C 0.0641(3) -0.1859(3) 0.8054(2)
H4A H 0.0326 -0.2263 0.7301
C7A C 0.0980(3) -0.2465(3) 0.8891(2)
H5A H 0.0901 -0.3264 0.8714
C8A C 0.1438(3) -0.1832(3) 0.9992(2)
C9A C 0.0363(3) -0.0046(2) 0.7381(2)
C10A C 0.2855(3) -0.1229(3) 1.3106(2)
H6A H 0.2753 -0.0601 1.3550
H7A H 0.2272 -0.2037 1.3185
C11A C 0.6680(3) -0.1187(3) 1.4769(2)
H8A H 0.7079 -0.1548 1.5317
C12A C 0.5159(3) -0.1473(3) 1.4378(2)
H9A H 0.4559 -0.2018 1.4659
C13A C 0.4519(3) -0.0950(2) 1.3565(2)
C14A C 0.5485(3) -0.0142(3) 1.3197(2)
H10A H 0.5116 0.0243 1.2661
C15A C 0.6997(3) 0.0095(3) 1.3622(2)
H11A H 0.7618 0.0638 1.3352
O5A O 1.0645(2) 0.18490(16) 1.59520(15)
H1A H 1.0517 0.1720 1.6546
H2A H 1.1563 0.2243 1.6121
Co1_2 Co 0.0000 0.0000 0.5000
O4A_2 O 0.9958(2) -0.06622(17) 1.63813(14)
N2_2 N 1.2383(2) 0.04119(19) 1.56002(17)
Co2 Co 1.0000 0.5000 1.5000
O6 O 0.3854(2) 0.34472(19) 0.71845(15)
O7 O 0.8136(2) 0.68211(18) 0.98465(17)
O8 O 0.8395(2) 0.46726(18) 1.33719(15)
O9 O 0.6911(3) 0.2604(2) 1.28558(18)
O10 O 0.8956(2) 0.31176(17) 1.49818(16)
H12 H 0.8238 0.2723 1.4311
H13 H 0.9496 0.2757 1.5201
N3 N 0.5965(2) 0.5301(2) 0.83243(17)
N4 N 0.8508(3) 0.5235(2) 0.56934(18)
C16 C 0.4905(3) 0.4085(3) 0.8115(2)
C17 C 0.7072(3) 0.5796(3) 0.9466(2)
C18 C 0.6623(3) 0.4801(2) 1.0036(2)
C19 C 0.7274(3) 0.4797(2) 1.1150(2)
H14 H 0.8128 0.5500 1.1691
C20 C 0.6623(3) 0.3709(2) 1.1451(2)
C21 C 0.5317(3) 0.2680(3) 1.0631(2)
H15 H 0.4887 0.1963 1.0842
C22 C 0.4639(3) 0.2694(3) 0.9507(2)
H16 H 0.3762 0.2005 0.8968
C23 C 0.5318(3) 0.3772(2) 0.9222(2)
C24 C 0.7354(3) 0.3643(3) 1.2661(2)
C25 C 0.6013(3) 0.5948(3) 0.7451(2)
H17 H 0.6527 0.6843 0.7802
H18 H 0.4977 0.5728 0.6914
C26 C 0.7655(3) 0.5832(3) 0.5333(2)
H19 H 0.7629 0.6115 0.4694
C27 C 0.6815(3) 0.6050(3) 0.5855(2)
H20 H 0.6245 0.6471 0.5572
C28 C 0.6829(3) 0.5632(2) 0.6813(2)
C29 C 0.7658(3) 0.4974(3) 0.7162(2)
H21 H 0.7667 0.4651 0.7779
C30 C 0.8473(3) 0.4797(3) 0.6592(2)
H22 H 0.9023 0.4352 0.6842
O6A O 1.6146(2) 0.65528(19) 1.28155(15)
O7A O 1.1864(2) 0.31789(18) 1.01535(17)
O8A O 1.1605(2) 0.53274(18) 0.66281(15)
O9A O 1.3089(3) 0.7396(2) 0.71442(18)
N3A N 1.4035(2) 0.4699(2) 1.16757(17)
N4A N 1.1492(3) 0.4765(2) 1.43066(18)
C16A C 1.5095(3) 0.5915(3) 1.1885(2)
C17A C 1.2928(3) 0.4204(3) 1.0534(2)
C18A C 1.3377(3) 0.5199(2) 0.9964(2)
C19A C 1.2726(3) 0.5203(2) 0.8850(2)
H14A H 1.1872 0.4500 0.8309
C20A C 1.3377(3) 0.6291(2) 0.8549(2)
C21A C 1.4683(3) 0.7320(3) 0.9369(2)
H15A H 1.5113 0.8037 0.9158
C22A C 1.5361(3) 0.7306(3) 1.0493(2)
H16A H 1.6238 0.7995 1.1032
C23A C 1.4682(3) 0.6228(2) 1.0778(2)
C24A C 1.2646(3) 0.6357(3) 0.7339(2)
C25A C 1.3987(3) 0.4052(3) 1.2549(2)
H17A H 1.3473 0.3157 1.2198
H18A H 1.5023 0.4272 1.3086
C26A C 1.2345(3) 0.4168(3) 1.4667(2)
H19A H 1.2371 0.3885 1.5306
C27A C 1.3185(3) 0.3950(3) 1.4145(2)
H20A H 1.3755 0.3529 1.4428
C28A C 1.3171(3) 0.4368(2) 1.3187(2)
C29A C 1.2342(3) 0.5026(3) 1.2838(2)
H21A H 1.2333 0.5349 1.2221
C30A C 1.1527(3) 0.5203(3) 1.3408(2)
H22A H 1.0977 0.5648 1.3158
O10A O 1.1044(2) 0.68824(17) 1.50182(16)
H12A H 1.1762 0.7277 1.5689
H13A H 1.0504 0.7243 1.4799
Co2_2 Co 1.0000 0.5000 0.5000
O8A_2 O 1.1605(2) 0.53274(18) 1.66281(15)
N4_2 N 0.8508(3) 0.5235(2) 1.56934(18)
loop_
_geom_bond_atom_site_label_1
_geom_bond_atom_site_label_2
_geom_bond_site_symmetry_1
_geom_bond_site_symmetry_2
Co1 O4 1_555 1_555
O1 C1 1_555 1_555
O2 C2 1_555 1_555
O3 C9 1_555 1_555
O4 C9 1_555 1_555
O5 Co1 1_555 1_555
H1 O5 1_555 1_555
H2 O5 1_555 1_555
N1 C1 1_555 1_555
N2 C11 1_555 1_555
C1 C8 1_555 1_555
C2 N1 1_555 1_555
C3 C2 1_555 1_555
C4 C3 1_555 1_555
H3 C4 1_555 1_555
C5 C4 1_555 1_555
C6 C5 1_555 1_555
H4 C6 1_555 1_555
C7 C6 1_555 1_555
H5 C7 1_555 1_555
C8 C3 1_555 1_555
C9 C5 1_555 1_555
C10 N1 1_555 1_555
H6 C10 1_555 1_555
H7 C10 1_555 1_555
C11 H8 1_555 1_555
C12 C11 1_555 1_555
H9 C12 1_555 1_555
C13 C10 1_555 1_555
C14 C13 1_555 1_555
H10 C14 1_555 1_555
C15 N2 1_555 1_555
H11 C15 1_555 1_555
Co2 O8 1_555 1_555
O6 C16 1_555 1_555
O7 C17 1_555 1_555
O8 C24 1_555 1_555
O9 C24 1_555 1_555
O10 Co2 1_555 1_555
H12 O10 1_555 1_555
H13 O10 1_555 1_555
N3 C16 1_555 1_555
N4 C26 1_555 1_555
C16 C23 1_555 1_555
C17 N3 1_555 1_555
C18 C17 1_555 1_555
C19 C18 1_555 1_555
H14 C19 1_555 1_555
C20 C19 1_555 1_555
C21 C20 1_555 1_555
H15 C21 1_555 1_555
C22 C21 1_555 1_555
H16 C22 1_555 1_555
C23 C18 1_555 1_555
C24 C20 1_555 1_555
C25 N3 1_555 1_555
H17 C25 1_555 1_555
H18 C25 1_555 1_555
C26 H19 1_555 1_555
C27 C26 1_555 1_555
H20 C27 1_555 1_555
C28 C25 1_555 1_555
C29 C28 1_555 1_555
H21 C29 1_555 1_555
C30 N4 1_555 1_555
H22 C30 1_555 1_555
O1A C1A 1_555 1_555
O2A C2A 1_555 1_555
O3A C9A 1_555 1_555
O4A C9A 1_555 1_555
N1A C1A 1_555 1_555
N2A Co1 1_555 1_555
C1A C8A 1_555 1_555
C2A N1A 1_555 1_555
C3A C2A 1_555 1_555
C4A C3A 1_555 1_555
H3A C4A 1_555 1_555
C5A C4A 1_555 1_555
C6A C5A 1_555 1_555
H4A C6A 1_555 1_555
C7A C6A 1_555 1_555
H5A C7A 1_555 1_555
C8A C3A 1_555 1_555
C9A C5A 1_555 1_555
C10A N1A 1_555 1_555
H6A C10A 1_555 1_555
H7A C10A 1_555 1_555
C11A N2A 1_555 1_555
H8A C11A 1_555 1_555
C12A C11A 1_555 1_555
H9A C12A 1_555 1_555
C13A C10A 1_555 1_555
C14A C13A 1_555 1_555
H10A C14A 1_555 1_555
C15A N2A 1_555 1_555
H11A C15A 1_555 1_555
O5A Co1 1_555 1_555
H1A O5A 1_555 1_555
H2A O5A 1_555 1_555
Co1_2 N2 1_555 1_555
O4A_2 Co1 1_555 1_555
N2_2 Co1 1_555 1_555
O6A C16A 1_555 1_555
O7A C17A 1_555 1_555
O8A C24A 1_555 1_555
O9A C24A 1_555 1_555
N3A C16A 1_555 1_555
N4A Co2 1_555 1_555
C16A C23A 1_555 1_555
C17A N3A 1_555 1_555
C18A C17A 1_555 1_555
C19A C18A 1_555 1_555
H14A C19A 1_555 1_555
C20A C19A 1_555 1_555
C21A C20A 1_555 1_555
H15A C21A 1_555 1_555
C22A C21A 1_555 1_555
H16A C22A 1_555 1_555
C23A C18A 1_555 1_555
C24A C20A 1_555 1_555
C25A N3A 1_555 1_555
H17A C25A 1_555 1_555
H18A C25A 1_555 1_555
C26A N4A 1_555 1_555
H19A C26A 1_555 1_555
C27A C26A 1_555 1_555
H20A C27A 1_555 1_555
C28A C25A 1_555 1_555
C29A C28A 1_555 1_555
H21A C29A 1_555 1_555
C30A N4A 1_555 1_555
H22A C30A 1_555 1_555
O10A Co2 1_555 1_555
H12A O10A 1_555 1_555
H13A O10A 1_555 1_555
Co2_2 N4 1_555 1_555
O8A_2 Co2 1_555 1_555
N4_2 Co2 1_555 1_555
C7 C8 1_555 1_555
C12 C13 1_555 1_555
C14 C15 1_555 1_555
C22 C23 1_555 1_555
C27 C28 1_555 1_555
C29 C30 1_555 1_555
O4A Co1_2 1_555 1_555
C7A C8A 1_555 1_555
C12A C13A 1_555 1_555
C14A C15A 1_555 1_555
O8A Co2_2 1_555 1_555
C22A C23A 1_555 1_555
C27A C28A 1_555 1_555
C29A C30A 1_555 1_555

#END
