
#######################################################################
#
#                 Cambridge Crystallographic Data Centre
#                                CCDC 
#
#######################################################################
#
# If this CIF has been generated from an entry in the Cambridge 
# Structural Database, then it will include bibliographic, chemical, 
# crystal, experimental, refinement or atomic coordinate data resulting 
# from the CCDC's data processing and validation procedures.
#
#######################################################################

data_YOVCET
_symmetry_cell_setting           monoclinic
_symmetry_space_group_name_H-M   'P 21/c'
_symmetry_Int_Tables_number      14
_space_group_name_Hall           '-P 2ybc'
loop_
_symmetry_equiv_pos_site_id
_symmetry_equiv_pos_as_xyz
1 x,y,z
2 -x,1/2+y,1/2-z
3 -x,-y,-z
4 x,1/2-y,1/2+z
_cell_length_a                   6.6287(3)
_cell_length_b                   24.2017(12)
_cell_length_c                   8.4264(5)
_cell_angle_alpha                90
_cell_angle_beta                 92.110(2)
_cell_angle_gamma                90
_cell_volume                     1350.9
loop_
_atom_site_label
_atom_site_type_symbol
_atom_site_fract_x
_atom_site_fract_y
_atom_site_fract_z
Co1 Co 0.0000 0.5000 0.5000
O1 O 0.2107(3) 0.12088(9) 0.5249(3)
O2 O 0.7127(3) 0.22048(9) 0.3006(3)
O3 O 0.4180(3) 0.42050(8) 0.4687(3)
O4 O 0.1086(3) 0.42096(8) 0.5660(2)
O5 O 0.2702(3) 0.51817(8) 0.3845(2)
H1 H 0.3498 0.4900 0.4070
H2 H 0.3404 0.5397 0.4345
N1 N 0.4831(3) 0.15854(9) 0.4012(3)
N2 N 0.8785(3) 0.03677(9) 0.7871(3)
C1 C 0.3034(4) 0.16098(12) 0.4843(4)
C2 C 0.5594(4) 0.21104(12) 0.3700(4)
C3 C 0.4154(4) 0.25058(12) 0.4405(4)
C4 C 0.4209(4) 0.30751(12) 0.4448(4)
H3 H 0.5253 0.3271 0.4004
C5 C 0.2631(4) 0.33467(11) 0.5187(3)
C6 C 0.1092(4) 0.30460(12) 0.5865(4)
H4 H 0.0060 0.3233 0.6355
C7 C 0.1064(4) 0.24706(12) 0.5824(4)
H5 H 0.0038 0.2271 0.6281
C8 C 0.2622(4) 0.22080(12) 0.5077(3)
C9 C 0.2630(4) 0.39707(12) 0.5192(4)
C10 C 0.5867(5) 0.10708(12) 0.3683(4)
H6 H 0.6870 0.1137 0.2896
H7 H 0.4900 0.0806 0.3243
C11 C 0.8338(4) 0.00631(12) 0.6581(4)
H8 H 0.8679 -0.0310 0.6602
C12 C 0.7400(4) 0.02709(12) 0.5222(4)
H9 H 0.7110 0.0041 0.4358
C13 C 0.6890(4) 0.08283(12) 0.5157(3)
C14 C 0.7375(4) 0.11458(12) 0.6478(4)
H10 H 0.7077 0.1521 0.6477
C15 C 0.8301(4) 0.09056(12) 0.7797(4)
H11 H 0.8604 0.1127 0.8677
O1B O -0.2107(3) 0.87912(9) 0.4751(3)
O2B O -0.7127(3) 0.77952(9) 0.6994(3)
O3B O -0.4180(3) 0.57950(8) 0.5313(3)
O4B O -0.1086(3) 0.57904(8) 0.4340(2)
O5B O -0.2702(3) 0.48183(8) 0.6155(2)
H1B H -0.3498 0.5100 0.5930
H2B H -0.3404 0.4603 0.5655
N1B N -0.4831(3) 0.84146(9) 0.5988(3)
N2B N -0.8785(3) 0.96323(9) 0.2129(3)
C1B C -0.3034(4) 0.83902(12) 0.5157(4)
C2B C -0.5594(4) 0.78896(12) 0.6300(4)
C3B C -0.4154(4) 0.74942(12) 0.5595(4)
C4B C -0.4209(4) 0.69249(12) 0.5552(4)
H3B H -0.5253 0.6729 0.5996
C5B C -0.2631(4) 0.66533(11) 0.4813(3)
C6B C -0.1092(4) 0.69540(12) 0.4135(4)
H4B H -0.0060 0.6767 0.3645
C7B C -0.1064(4) 0.75294(12) 0.4176(4)
H5B H -0.0038 0.7729 0.3719
C8B C -0.2622(4) 0.77920(12) 0.4923(3)
C9B C -0.2630(4) 0.60293(12) 0.4808(4)
C10B C -0.5867(5) 0.89292(12) 0.6317(4)
H6B H -0.6870 0.8863 0.7104
H7B H -0.4900 0.9194 0.6757
C11B C -0.8338(4) 0.99369(12) 0.3419(4)
H8B H -0.8679 1.0310 0.3398
C12B C -0.7400(4) 0.97291(12) 0.4778(4)
H9B H -0.7110 0.9959 0.5642
C13B C -0.6890(4) 0.91717(12) 0.4843(3)
C14B C -0.7375(4) 0.88542(12) 0.3522(4)
H10B H -0.7077 0.8479 0.3523
C15B C -0.8301(4) 0.90944(12) 0.2203(4)
H11B H -0.8604 0.8873 0.1323
Co1A Co -1.0000 1.0000 0.0000
Co1A_2 Co 1.0000 0.0000 1.0000
N2A N 0.1215(3) 0.53677(9) 0.7129(3)
N2C N -0.1215(3) 0.46323(9) 0.2871(3)
loop_
_geom_bond_atom_site_label_1
_geom_bond_atom_site_label_2
_geom_bond_site_symmetry_1
_geom_bond_site_symmetry_2
Co1 O4 1_555 1_555
O1 C1 1_555 1_555
O2 C2 1_555 1_555
O3 C9 1_555 1_555
O4 C9 1_555 1_555
O5 Co1 1_555 1_555
H1 O5 1_555 1_555
H2 O5 1_555 1_555
N1 C1 1_555 1_555
N2 C11 1_555 1_555
C1 C8 1_555 1_555
C2 N1 1_555 1_555
C3 C2 1_555 1_555
C4 C3 1_555 1_555
H3 C4 1_555 1_555
C5 C4 1_555 1_555
C6 C5 1_555 1_555
H4 C6 1_555 1_555
C7 C6 1_555 1_555
H5 C7 1_555 1_555
C8 C3 1_555 1_555
C9 C5 1_555 1_555
C10 N1 1_555 1_555
H6 C10 1_555 1_555
H7 C10 1_555 1_555
C11 H8 1_555 1_555
C12 C11 1_555 1_555
H9 C12 1_555 1_555
C13 C10 1_555 1_555
C14 C13 1_555 1_555
H10 C14 1_555 1_555
C15 N2 1_555 1_555
H11 C15 1_555 1_555
O1B C1B 1_555 1_555
O2B C2B 1_555 1_555
O3B C9B 1_555 1_555
O4B Co1 1_555 1_555
O5B Co1 1_555 1_555
H1B O5B 1_555 1_555
H2B O5B 1_555 1_555
N1B C1B 1_555 1_555
N2B C11B 1_555 1_555
C1B C8B 1_555 1_555
C2B N1B 1_555 1_555
C3B C2B 1_555 1_555
C4B C3B 1_555 1_555
H3B C4B 1_555 1_555
C5B C4B 1_555 1_555
C6B C5B 1_555 1_555
H4B C6B 1_555 1_555
C7B C6B 1_555 1_555
H5B C7B 1_555 1_555
C8B C3B 1_555 1_555
C9B O4B 1_555 1_555
C10B N1B 1_555 1_555
H6B C10B 1_555 1_555
H7B C10B 1_555 1_555
C11B H8B 1_555 1_555
C12B C11B 1_555 1_555
H9B C12B 1_555 1_555
C13B C10B 1_555 1_555
C14B C13B 1_555 1_555
H10B C14B 1_555 1_555
C15B N2B 1_555 1_555
H11B C15B 1_555 1_555
Co1A N2B 1_555 1_555
Co1A_2 N2 1_555 1_555
N2A Co1 1_555 1_555
N2C Co1 1_555 1_555
C7 C8 1_555 1_555
C12 C13 1_555 1_555
C14 C15 1_555 1_555
C5B C9B 1_555 1_555
C7B C8B 1_555 1_555
C12B C13B 1_555 1_555
C14B C15B 1_555 1_555

#END
