
#######################################################################
#
#                 Cambridge Crystallographic Data Centre
#                                CCDC 
#
#######################################################################
#
# If this CIF has been generated from an entry in the Cambridge 
# Structural Database, then it will include bibliographic, chemical, 
# crystal, experimental, refinement or atomic coordinate data resulting 
# from the CCDC's data processing and validation procedures.
#
#######################################################################

data_YOVFIA
_symmetry_cell_setting           monoclinic
_symmetry_space_group_name_H-M   'P 21/n'
_symmetry_Int_Tables_number      14
_space_group_name_Hall           '-P 2yn'
loop_
_symmetry_equiv_pos_site_id
_symmetry_equiv_pos_as_xyz
1 x,y,z
2 1/2-x,1/2+y,1/2-z
3 -x,-y,-z
4 1/2+x,1/2-y,1/2+z
_cell_length_a                   12.5512(17)
_cell_length_b                   10.2649(15)
_cell_length_c                   11.9000(15)
_cell_angle_alpha                90
_cell_angle_beta                 107.231(5)
_cell_angle_gamma                90
_cell_volume                     1464.35
loop_
_atom_site_label
_atom_site_type_symbol
_atom_site_fract_x
_atom_site_fract_y
_atom_site_fract_z
Eu1 Eu 0.7235(4) 0.1549(5) 0.7599(4)
P1 P 0.3891(17) 0.113(2) 1.118(2)
P2 P 0.539(2) 0.433(2) 0.680(2)
P3 P 0.1554(17) 0.611(2) 1.0237(19)
O1 O 0.384(3) -0.031(3) 1.153(3)
O2 O 0.514(3) 0.161(3) 1.160(3)
O3 O 0.311(3) 0.197(3) 1.159(3)
O4 O 0.574(3) 0.287(3) 0.680(4)
O5 O 0.629(3) 0.524(3) 0.649(4)
O6 O 0.424(3) 0.449(2) 0.586(4)
O7 O 0.238(3) 0.717(2) 1.063(4)
O8 O 0.036(3) 0.662(3) 1.014(3)
O9 O 0.179(3) 0.483(3) 1.094(3)
C1 C 0.347(4) 0.111(5) 0.964(5)
C2 C 0.526(5) 0.477(4) 0.810(4)
C3 C 0.143(4) 0.557(4) 0.875(4)
C4 C 0.247(3) 0.325(6) 0.899(3)
C5 C 0.246(6) 0.454(6) 0.862(5)
C6 C 0.336(8) 0.503(8) 0.831(7)
C7 C 0.427(5) 0.423(11) 0.837(6)
C8 C 0.428(3) 0.294(11) 0.874(5)
C9 C 0.339(4) 0.245(8) 0.905(4)
H1 H 0.274(4) 0.080(5) 0.949(5)
H2 H 0.395(4) 0.065(5) 0.944(5)
H3 H 0.540(3) 0.175(3) 1.243(3)
H4 H 0.519(5) 0.571(4) 0.814(4)
H5 H 0.588(5) 0.451(4) 0.873(4)
H6 H 0.151(4) 0.630(4) 0.823(4)
H7 H 0.077(4) 0.511(4) 0.832(4)
H8 H 0.183(3) 0.297(6) 0.926(3)
H9 H 0.433(3) 0.452(2) 0.521(4)
H10 H 0.332(8) 0.592(7) 0.801(5)
H11 H 0.491(3) 0.243(11) 0.888(5)
H12 H 0.003(3) 0.688(3) 0.951(3)
Eu1A Eu 0.7765(4) 0.6549(5) 0.7401(4)
Eu1B Eu 0.2765(4) -0.1549(5) 1.2401(4)
Eu1B_2 Eu 0.2765(4) 0.8451(5) 1.2401(4)
Eu1C Eu 0.2235(4) 0.3451(5) 1.2599(4)
O1B O 0.616(3) 0.031(3) 0.847(3)
O3C O 0.811(3) 0.303(3) 0.659(3)
O5A O 0.871(3) 0.024(3) 0.851(4)
O7B O 0.762(3) 0.283(2) 0.937(4)
O9C O 0.679(3) 0.017(3) 0.594(3)
O10 O 0.808(5) 0.664(6) 0.393(6)
loop_
_geom_bond_atom_site_label_1
_geom_bond_atom_site_label_2
_geom_bond_site_symmetry_1
_geom_bond_site_symmetry_2
Eu1 O4 1_555 1_555
P1 O1 1_555 1_555
P2 O4 1_555 1_555
P3 O7 1_555 1_555
O1 Eu1B 1_555 1_555
O2 P1 1_555 1_555
O3 P1 1_555 1_555
O5 P2 1_555 1_555
O6 P2 1_555 1_555
O7 Eu1B_2 1_555 1_555
O8 P3 1_555 1_555
O9 P3 1_555 1_555
C1 P1 1_555 1_555
C2 P2 1_555 1_555
C3 P3 1_555 1_555
C4 C5 1_555 1_555
C5 C3 1_555 1_555
C6 C5 1_555 1_555
C7 C2 1_555 1_555
C8 C7 1_555 1_555
C9 C1 1_555 1_555
H1 C1 1_555 1_555
H2 C1 1_555 1_555
H3 O2 1_555 1_555
H4 C2 1_555 1_555
H5 C2 1_555 1_555
H6 C3 1_555 1_555
H7 C3 1_555 1_555
H8 C4 1_555 1_555
H9 O6 1_555 1_555
H10 C6 1_555 1_555
H11 C8 1_555 1_555
H12 O8 1_555 1_555
Eu1A O5 1_555 1_555
Eu1C O3 1_555 1_555
O1B Eu1 1_555 1_555
O3C Eu1 1_555 1_555
O5A Eu1 1_555 1_555
O7B Eu1 1_555 1_555
O9C Eu1 1_555 1_555
O9 Eu1C 1_555 1_555
C4 C9 1_555 1_555
C6 C7 1_555 1_555
C8 C9 1_555 1_555

#END
