
#######################################################################
#
#                 Cambridge Crystallographic Data Centre
#                                CCDC 
#
#######################################################################
#
# If this CIF has been generated from an entry in the Cambridge 
# Structural Database, then it will include bibliographic, chemical, 
# crystal, experimental, refinement or atomic coordinate data resulting 
# from the CCDC's data processing and validation procedures.
#
#######################################################################

data_YOVGEX
_symmetry_cell_setting           triclinic
_symmetry_space_group_name_H-M   'P -1'
_symmetry_Int_Tables_number      2
_space_group_name_Hall           '-P 1'
loop_
_symmetry_equiv_pos_site_id
_symmetry_equiv_pos_as_xyz
1 x,y,z
2 -x,-y,-z
_cell_length_a                   7.7312(4)
_cell_length_b                   9.0974(4)
_cell_length_c                   11.4447(6)
_cell_angle_alpha                99.140(4)
_cell_angle_beta                 104.351(5)
_cell_angle_gamma                104.366(5)
_cell_volume                     734.33
loop_
_atom_site_label
_atom_site_type_symbol
_atom_site_fract_x
_atom_site_fract_y
_atom_site_fract_z
Fe1 Fe 1.0000 0.5000 0.0000
S1 S 1.48743(9) 0.96499(7) 0.24716(7)
N1 N 1.0662(3) 0.3751(2) 0.14953(18)
N2 N 0.7539(3) 0.5138(2) 0.07391(18)
N3 N 1.1680(3) 0.7110(2) 0.12485(18)
C1 C 0.9059(3) 0.1103(3) 0.4894(2)
H1 H 0.8425 0.1845 0.4826
C2 C 0.5307(3) 0.3712(3) 0.4363(2)
H2 H 0.5506 0.2840 0.3938
C3 C 1.0218(3) 0.0942(3) 0.4152(2)
C4 C 0.4890(3) 0.3677(3) 0.5474(2)
H3 H 0.4825 0.2788 0.5786
C5 C 1.3012(3) 0.8173(3) 0.1765(2)
C6 C 0.5431(3) 0.5032(3) 0.3876(2)
C7 C 0.6457(3) 0.3805(3) 0.0872(2)
H4 H 0.6230 0.2886 0.0291
C8 C 1.0424(3) 0.1918(3) 0.3255(2)
C9 C 0.5986(3) 0.5082(3) 0.2726(2)
C10 C 0.8836(3) 0.0179(3) 0.5728(2)
H5 H 0.8055 0.0304 0.6212
C11 C 1.0469(3) 0.3476(3) 0.3514(2)
H6 H 1.0404 0.3936 0.4282
C12 C 0.6974(3) 0.6484(3) 0.2531(2)
H7 H 0.7143 0.7429 0.3062
C13 C 1.0580(3) 0.1328(3) 0.2085(2)
H8 H 1.0619 0.0309 0.1874
C14 C 1.0674(4) 0.2260(3) 0.1257(2)
H9 H 1.0750 0.1834 0.0484
C15 C 1.0609(3) 0.4342(3) 0.2637(2)
H10 H 1.0669 0.5388 0.2846
C16 C 0.7700(3) 0.6451(3) 0.1539(2)
H11 H 0.8338 0.7398 0.1419
C17 C 0.5665(3) 0.3732(3) 0.1830(2)
H12 H 0.4919 0.2782 0.1876
N1A N 0.9338(3) -0.3751(2) 0.85047(18)
C1A C 1.0941(3) -0.1103(3) 0.5106(2)
H1A H 1.1575 -0.1845 0.5174
C3A C 0.9782(3) -0.0942(3) 0.5848(2)
C8A C 0.9576(3) -0.1918(3) 0.6745(2)
C10A C 1.1164(3) -0.0179(3) 0.4272(2)
H5A H 1.1945 -0.0304 0.3788
C11A C 0.9531(3) -0.3476(3) 0.6486(2)
H6A H 0.9596 -0.3936 0.5718
C13A C 0.9420(3) -0.1328(3) 0.7915(2)
H8A H 0.9381 -0.0309 0.8126
C14A C 0.9326(4) -0.2260(3) 0.8743(2)
H9A H 0.9250 -0.1834 0.9516
C15A C 0.9391(3) -0.4342(3) 0.7363(2)
H10A H 0.9331 -0.5388 0.7154
N2A N 0.2461(3) 0.4862(2) 0.92609(18)
C2A C 0.4693(3) 0.6288(3) 0.5637(2)
H2A H 0.4494 0.7160 0.6062
C4A C 0.5110(3) 0.6323(3) 0.4526(2)
H3A H 0.5175 0.7212 0.4214
C6A C 0.4569(3) 0.4968(3) 0.6124(2)
C7A C 0.3543(3) 0.6195(3) 0.9128(2)
H4A H 0.3770 0.7114 0.9709
C9A C 0.4014(3) 0.4918(3) 0.7274(2)
C12A C 0.3026(3) 0.3516(3) 0.7469(2)
H7A H 0.2857 0.2571 0.6938
C16A C 0.2300(3) 0.3549(3) 0.8461(2)
H11A H 0.1662 0.2602 0.8581
C17A C 0.4335(3) 0.6268(3) 0.8170(2)
H12A H 0.5081 0.7218 0.8124
S1A S 0.51257(9) 0.03501(7) -0.24716(7)
N3A N 0.8320(3) 0.2890(2) -0.12485(18)
C5A C 0.6988(3) 0.1827(3) -0.1765(2)
Fe1_2 Fe 0.0000 0.5000 1.0000
Fe1_3 Fe 1.0000 -0.5000 1.0000
N1A_2 N 0.9338(3) 0.6249(2) -0.14953(18)
N2A_2 N 1.2461(3) 0.4862(2) -0.07391(18)
loop_
_geom_bond_atom_site_label_1
_geom_bond_atom_site_label_2
_geom_bond_site_symmetry_1
_geom_bond_site_symmetry_2
Fe1 N1 1_555 1_555
S1 C5 1_555 1_555
N1 C14 1_555 1_555
N2 Fe1 1_555 1_555
N3 Fe1 1_555 1_555
C1 H1 1_555 1_555
C2 H2 1_555 1_555
C3 C1 1_555 1_555
C4 C2 1_555 1_555
H3 C4 1_555 1_555
C5 N3 1_555 1_555
C6 C2 1_555 1_555
C7 N2 1_555 1_555
H4 C7 1_555 1_555
C8 C3 1_555 1_555
C9 C6 1_555 1_555
C10 C1 1_555 1_555
H5 C10 1_555 1_555
C11 C8 1_555 1_555
H6 C11 1_555 1_555
C12 C9 1_555 1_555
H7 C12 1_555 1_555
C13 C8 1_555 1_555
H8 C13 1_555 1_555
C14 C13 1_555 1_555
H9 C14 1_555 1_555
C15 N1 1_555 1_555
H10 C15 1_555 1_555
C16 N2 1_555 1_555
H11 C16 1_555 1_555
C17 C7 1_555 1_555
H12 C17 1_555 1_555
N1A C14A 1_555 1_555
C1A H1A 1_555 1_555
C3A C10 1_555 1_555
C8A C3A 1_555 1_555
C10A C3 1_555 1_555
H5A C10A 1_555 1_555
C11A C8A 1_555 1_555
H6A C11A 1_555 1_555
C13A C8A 1_555 1_555
H8A C13A 1_555 1_555
C14A C13A 1_555 1_555
H9A C14A 1_555 1_555
C15A N1A 1_555 1_555
H10A C15A 1_555 1_555
N2A C7A 1_555 1_555
C2A H2A 1_555 1_555
C4A C6 1_555 1_555
H3A C4A 1_555 1_555
C6A C4 1_555 1_555
C7A H4A 1_555 1_555
C9A C6A 1_555 1_555
C12A C9A 1_555 1_555
H7A C12A 1_555 1_555
C16A N2A 1_555 1_555
H11A C16A 1_555 1_555
C17A C7A 1_555 1_555
H12A C17A 1_555 1_555
S1A C5A 1_555 1_555
N3A Fe1 1_555 1_555
C5A N3A 1_555 1_555
Fe1_2 N2A 1_555 1_555
Fe1_3 N1A 1_555 1_555
N1A_2 Fe1 1_555 1_555
N2A_2 Fe1 1_555 1_555
C9 C17 1_555 1_555
C11 C15 1_555 1_555
C12 C16 1_555 1_555
C1A C3A 1_555 1_555
C1A C10A 1_555 1_555
C11A C15A 1_555 1_555
C2A C4A 1_555 1_555
C2A C6A 1_555 1_555
C9A C17A 1_555 1_555
C12A C16A 1_555 1_555

#END
