
#######################################################################
#
#                 Cambridge Crystallographic Data Centre
#                                CCDC 
#
#######################################################################
#
# If this CIF has been generated from an entry in the Cambridge 
# Structural Database, then it will include bibliographic, chemical, 
# crystal, experimental, refinement or atomic coordinate data resulting 
# from the CCDC's data processing and validation procedures.
#
#######################################################################

data_YOVQOQ
_symmetry_cell_setting           monoclinic
_symmetry_space_group_name_H-M   'P 21/c'
_symmetry_Int_Tables_number      14
_space_group_name_Hall           '-P 2ybc'
loop_
_symmetry_equiv_pos_site_id
_symmetry_equiv_pos_as_xyz
1 x,y,z
2 -x,1/2+y,1/2-z
3 -x,-y,-z
4 x,1/2-y,1/2+z
_cell_length_a                   13.715(3)
_cell_length_b                   13.034(3)
_cell_length_c                   24.934(8)
_cell_angle_alpha                90
_cell_angle_beta                 110.15(3)
_cell_angle_gamma                90
_cell_volume                     4184.42
loop_
_atom_site_label
_atom_site_type_symbol
_atom_site_fract_x
_atom_site_fract_y
_atom_site_fract_z
Mn1 Mn 0.5000 0.0000 0.5000
Mn2 Mn 0.5000 0.5000 0.5000
Mn3 Mn -0.38628(3) 0.21990(3) 0.579060(15)
O1 O -0.31147(15) 0.21245(15) 0.51840(8)
O2 O 0.46549(13) 0.15909(14) 0.52811(7)
O3 O 0.45923(15) 0.32529(15) 0.51128(8)
O4 O 1.32345(14) -0.13725(15) 0.89352(8)
O5 O 0.69000(17) 0.08878(16) 0.61872(9)
O6 O -0.37101(14) 0.06070(15) 0.47870(8)
N1 N 0.44645(19) 0.72147(19) 0.84483(10)
O7 O 1.33241(14) -0.02679(15) 0.96315(8)
O8 O 0.58629(16) -0.04598(18) 0.58691(8)
C1 C 0.6550(2) 0.0015(2) 0.62495(11)
N2 N 0.48500(18) 0.55695(18) 0.58239(9)
C2 C -0.31100(19) 0.1355(2) 0.48776(11)
C3 C 1.28237(19) -0.0847(2) 0.92288(11)
C4 C 1.1134(2) -0.0590(2) 0.94089(11)
H1 H 1.1484 -0.0218 0.9737
C5 C 1.1666(2) -0.0944(2) 0.90668(11)
C6 C 1.0077(2) -0.0786(2) 0.92674(11)
H2 H 0.9733 -0.0562 0.9508
C7 C 0.95322(19) -0.1311(2) 0.87718(11)
C8 C -0.2310(2) 0.1371(2) 0.45823(11)
C9 C 0.30337(19) 0.2266(2) 0.46977(11)
F1 F 0.89505(18) -0.30830(18) 0.91515(9)
C10 C 0.3974(3) 0.7726(2) 0.79687(13)
H3 H 0.3560 0.8281 0.7987
C11 C 0.41578(19) 0.2397(2) 0.50457(10)
F2 F 0.8568(2) -0.32702(16) 0.82513(10)
C12 C 0.8365(2) -0.1593(2) 0.85751(11)
C13 C 0.8311(3) -0.2766(3) 0.86455(14)
C14 C 0.7822(2) -0.1228(2) 0.79507(11)
F3 F 0.73606(18) -0.3099(2) 0.85981(11)
C15 C -0.08885(19) 0.1490(2) 0.40015(11)
C16 C -0.0177(2) 0.1689(2) 0.36481(12)
C17 C 0.6976(2) -0.0434(2) 0.68400(11)
C18 C 0.4047(3) 0.7474(2) 0.74464(12)
H4 H 0.3701 0.7862 0.7124
C19 C -0.0780(2) 0.2105(2) 0.44737(13)
H5 H -0.0227 0.2561 0.4600
C20 C -0.1486(2) 0.2048(2) 0.47585(13)
H6 H -0.1403 0.2470 0.5072
C21 C 0.4646(2) 0.6633(2) 0.74079(11)
C22 C 0.4716(2) 0.6290(2) 0.68536(11)
C23 C 0.09538(19) 0.1948(2) 0.40307(11)
C24 C 0.5158(2) 0.6112(2) 0.79079(11)
H7 H 0.5571 0.5549 0.7902
C25 C 0.7108(2) -0.1789(3) 0.75206(13)
H8 H 0.6901 -0.2434 0.7601
C26 C -0.1705(2) 0.0791(2) 0.38366(12)
H9 H -0.1786 0.0362 0.3526
C27 C 0.1513(2) 0.2753(2) 0.39124(13)
H10 H 0.1195 0.3185 0.3605
C28 C 0.5061(2) 0.6422(3) 0.84137(12)
H11 H 0.5425 0.6067 0.8746
C29 C 0.1441(2) 0.1324(2) 0.44937(13)
H12 H 0.1068 0.0800 0.4587
C30 C 0.2542(2) 0.2916(2) 0.42500(13)
H13 H 0.2902 0.3469 0.4174
C31 C 0.2473(2) 0.1466(2) 0.48194(13)
H14 H 0.2794 0.1025 0.5122
F4 F 0.79358(16) -0.00721(18) 0.89750(9)
F5 F 0.81281(18) -0.1434(2) 0.94826(8)
F6 F 0.01330(19) -0.00955(19) 0.35991(13)
F7 F -0.02646(18) 0.2744(3) 0.28392(10)
F8 F -0.05983(18) 0.3441(2) 0.35335(13)
F9 F 0.67845(15) -0.1248(2) 0.87321(10)
F10 F -0.16939(16) 0.2417(3) 0.29690(12)
F11 F 0.0632(2) 0.0891(3) 0.30543(12)
F12 F -0.09848(19) 0.0564(3) 0.28523(10)
C32 C -0.2404(2) 0.0726(2) 0.41293(12)
H15 H -0.2936 0.0244 0.4019
C33 C 0.7660(3) 0.0133(2) 0.72714(13)
H16 H 0.7842 0.0791 0.7196
C34 C 1.1119(2) -0.1464(3) 0.85681(13)
H17 H 1.1466 -0.1704 0.8331
C35 C 1.0070(2) -0.1629(3) 0.84210(13)
H18 H 0.9713 -0.1961 0.8079
C36 C 0.6699(3) -0.1395(3) 0.69699(13)
H19 H 0.6230 -0.1786 0.6684
C37 C 0.8081(3) -0.0265(2) 0.78161(13)
H20 H 0.8552 0.0127 0.8100
C38 C 0.7805(2) -0.1083(3) 0.89450(14)
C39 C -0.0678(3) 0.2576(4) 0.32457(16)
C40 C -0.0101(3) 0.0749(4) 0.32869(17)
C41 C 0.4172(5) 0.6670(4) 0.63552(15)
H21 H 0.3710 0.7203 0.6336
C42 C 0.4266(5) 0.6299(4) 0.58545(15)
H22 H 0.3868 0.6611 0.5514
C43 C 0.5353(7) 0.5200(6) 0.62996(19)
H23 H 0.5790 0.4651 0.6307
C44 C 0.5316(8) 0.5540(7) 0.68198(19)
H24 H 0.5733 0.5222 0.7154
Mn1_2 Mn -0.5000 0.0000 0.5000
Mn1_3 Mn 1.5000 0.0000 0.5000
Mn2A Mn 1.5000 0.0000 1.0000
Mn2_2 Mn 0.5000 -0.5000 0.5000
Mn2A_2 Mn -0.5000 0.0000 0.0000
Mn3B Mn 1.38628(3) -0.21990(3) 0.420940(15)
Mn3_2 Mn 0.61372(3) 0.21990(3) 0.579060(15)
Mn3A Mn 1.38628(3) -0.28010(3) 0.920940(15)
Mn3A_2 Mn 0.38628(3) 0.71990(3) 0.920940(15)
Mn3B_2 Mn 0.38628(3) -0.21990(3) 0.420940(15)
Mn3C Mn -0.38628(3) 0.28010(3) 0.079060(15)
Mn3C_2 Mn 0.61372(3) 0.28010(3) 0.079060(15)
O1B O 1.31147(15) -0.21245(15) 0.48160(8)
O2B O 0.53451(13) -0.15909(14) 0.47189(7)
O2_2 O -0.53451(13) 0.15909(14) 0.52811(7)
O2B_2 O 1.53451(13) -0.15909(14) 0.47189(7)
O3B O 0.54077(15) -0.32529(15) 0.48872(8)
O3B_2 O 0.54077(15) 0.67471(15) 0.48872(8)
O4B O -0.32345(14) 0.13725(15) 0.10648(8)
O4A O -0.32345(14) 0.36275(15) 0.60648(8)
O4C O 1.32345(14) -0.36275(15) 0.39352(8)
O5B O 0.31000(17) -0.08878(16) 0.38128(9)
O5_2 O -0.31000(17) 0.08878(16) 0.61872(9)
O5B_2 O 1.31000(17) -0.08878(16) 0.38128(9)
O6B O 1.37101(14) -0.06070(15) 0.52130(8)
O6_2 O 0.62899(14) 0.06070(15) 0.47870(8)
O6B_2 O 0.37101(14) -0.06070(15) 0.52130(8)
N1B N 0.55355(19) 0.27853(19) 0.15517(10)
N1A N -0.44645(19) 0.22147(19) 0.65517(10)
N1C N 1.44645(19) -0.22147(19) 0.34483(10)
O7B O -0.33241(14) 0.02679(15) 0.03685(8)
O7A O 0.66759(14) 0.47321(15) 0.53685(8)
O7C O 0.33241(14) 0.52679(15) 0.46315(8)
O8B O 0.41371(16) 0.04598(18) 0.41309(8)
C1B C 0.3450(2) -0.0015(2) 0.37505(11)
N2B N 0.51500(18) 0.44305(18) 0.41761(9)
C2B C 1.31100(19) -0.1355(2) 0.51224(11)
C3B C -0.28237(19) 0.0847(2) 0.07712(11)
C4B C -0.1134(2) 0.0590(2) 0.05911(11)
H1B H -0.1484 0.0218 0.0263
C5B C -0.1666(2) 0.0944(2) 0.09332(11)
C6B C -0.0077(2) 0.0786(2) 0.07326(11)
H2B H 0.0267 0.0562 0.0492
C7B C 0.04678(19) 0.1311(2) 0.12282(11)
C8B C 1.2310(2) -0.1371(2) 0.54177(11)
C9B C 0.69663(19) -0.2266(2) 0.53023(11)
F1B F 0.10495(18) 0.30830(18) 0.08485(9)
C10B C 0.6026(3) 0.2274(2) 0.20313(13)
H3B H 0.6440 0.1719 0.2013
C11B C 0.58422(19) -0.2397(2) 0.49543(10)
F2B F 0.1432(2) 0.32702(16) 0.17487(10)
C12B C 0.1635(2) 0.1593(2) 0.14249(11)
C13B C 0.1689(3) 0.2766(3) 0.13545(14)
C14B C 0.2178(2) 0.1228(2) 0.20493(11)
F3B F 0.26394(18) 0.3099(2) 0.14019(11)
C15B C 1.08885(19) -0.1490(2) 0.59985(11)
C16B C 1.0177(2) -0.1689(2) 0.63519(12)
C17B C 0.3024(2) 0.0434(2) 0.31600(11)
C18B C 0.5953(3) 0.2526(2) 0.25536(12)
H4B H 0.6299 0.2138 0.2876
C19B C 1.0780(2) -0.2105(2) 0.55263(13)
H5B H 1.0227 -0.2561 0.5400
C20B C 1.1486(2) -0.2048(2) 0.52415(13)
H6B H 1.1403 -0.2470 0.4928
C21B C 0.5354(2) 0.3367(2) 0.25921(11)
C22B C 0.5284(2) 0.3710(2) 0.31464(11)
C23B C 0.90462(19) -0.1948(2) 0.59693(11)
C24B C 0.4842(2) 0.3888(2) 0.20921(11)
H7B H 0.4429 0.4451 0.2098
C25B C 0.2892(2) 0.1789(3) 0.24794(13)
H8B H 0.3099 0.2434 0.2399
C26B C 1.1705(2) -0.0791(2) 0.61634(12)
H9B H 1.1786 -0.0362 0.6474
C27B C 0.8487(2) -0.2753(2) 0.60876(13)
H10B H 0.8805 -0.3185 0.6395
C28B C 0.4939(2) 0.3578(3) 0.15863(12)
H11B H 0.4575 0.3933 0.1254
C29B C 0.8559(2) -0.1324(2) 0.55063(13)
H12B H 0.8932 -0.0800 0.5413
C30B C 0.7458(2) -0.2916(2) 0.57500(13)
H13B H 0.7098 -0.3469 0.5826
C31B C 0.7527(2) -0.1466(2) 0.51806(13)
H14B H 0.7206 -0.1025 0.4878
F4B F 0.20642(16) 0.00721(18) 0.10250(9)
F5B F 0.18719(18) 0.1434(2) 0.05174(8)
F6B F 0.98670(19) 0.00955(19) 0.64009(13)
F7B F 1.02646(18) -0.2744(3) 0.71608(10)
F8B F 1.05983(18) -0.3441(2) 0.64665(13)
F9B F 0.32155(15) 0.1248(2) 0.12679(10)
F10B F 1.16939(16) -0.2417(3) 0.70310(12)
F11B F 0.9368(2) -0.0891(3) 0.69457(12)
F12B F 1.09848(19) -0.0564(3) 0.71477(10)
C32B C 1.2404(2) -0.0726(2) 0.58707(12)
H15B H 1.2936 -0.0244 0.5981
C33B C 0.2340(3) -0.0133(2) 0.27286(13)
H16B H 0.2158 -0.0791 0.2804
C34B C -0.1119(2) 0.1464(3) 0.14319(13)
H17B H -0.1466 0.1704 0.1669
C35B C -0.0070(2) 0.1629(3) 0.15790(13)
H18B H 0.0287 0.1961 0.1921
C36B C 0.3301(3) 0.1395(3) 0.30301(13)
H19B H 0.3770 0.1786 0.3316
C37B C 0.1919(3) 0.0265(2) 0.21839(13)
H20B H 0.1448 -0.0127 0.1900
C38B C 0.2195(2) 0.1083(3) 0.10550(14)
C39B C 1.0678(3) -0.2576(4) 0.67543(16)
C40B C 1.0101(3) -0.0749(4) 0.67131(17)
C41B C 0.5828(5) 0.3330(4) 0.36448(15)
H21B H 0.6290 0.2797 0.3664
C42B C 0.5734(5) 0.3701(4) 0.41455(15)
H22B H 0.6132 0.3389 0.4486
C43B C 0.4647(7) 0.4800(6) 0.37004(19)
H23B H 0.4210 0.5349 0.3693
C44B C 0.4684(8) 0.4460(7) 0.31802(19)
H24B H 0.4267 0.4778 0.2846
loop_
_geom_bond_atom_site_label_1
_geom_bond_atom_site_label_2
_geom_bond_site_symmetry_1
_geom_bond_site_symmetry_2
Mn1 O2 1_555 1_555
Mn2 O3 1_555 1_555
Mn3 O1 1_555 1_555
O1 C2 1_555 1_555
O2 C11 1_555 1_555
O3 C11 1_555 1_555
O4 C3 1_555 1_555
O5 C1 1_555 1_555
O6 C2 1_555 1_555
N1 C10 1_555 1_555
O7 C3 1_555 1_555
O8 Mn1 1_555 1_555
C1 O8 1_555 1_555
N2 Mn2 1_555 1_555
C2 C8 1_555 1_555
C3 C5 1_555 1_555
C4 H1 1_555 1_555
C5 C4 1_555 1_555
C6 C4 1_555 1_555
H2 C6 1_555 1_555
C7 C6 1_555 1_555
C8 C20 1_555 1_555
C9 C11 1_555 1_555
F1 C13 1_555 1_555
C10 H3 1_555 1_555
F2 C13 1_555 1_555
C12 C7 1_555 1_555
C13 C12 1_555 1_555
C14 C12 1_555 1_555
F3 C13 1_555 1_555
C15 C16 1_555 1_555
C16 C23 1_555 1_555
C17 C1 1_555 1_555
C18 C10 1_555 1_555
H4 C18 1_555 1_555
C19 C15 1_555 1_555
H5 C19 1_555 1_555
C20 C19 1_555 1_555
H6 C20 1_555 1_555
C21 C18 1_555 1_555
C22 C21 1_555 1_555
C23 C27 1_555 1_555
C24 C21 1_555 1_555
H7 C24 1_555 1_555
C25 C14 1_555 1_555
H8 C25 1_555 1_555
C26 C15 1_555 1_555
H9 C26 1_555 1_555
C27 H10 1_555 1_555
C28 N1 1_555 1_555
H11 C28 1_555 1_555
C29 C23 1_555 1_555
H12 C29 1_555 1_555
C30 C9 1_555 1_555
H13 C30 1_555 1_555
C31 C9 1_555 1_555
H14 C31 1_555 1_555
F4 C38 1_555 1_555
F5 C38 1_555 1_555
F6 C40 1_555 1_555
F7 C39 1_555 1_555
F8 C39 1_555 1_555
F9 C38 1_555 1_555
F10 C39 1_555 1_555
F11 C40 1_555 1_555
F12 C40 1_555 1_555
C32 C8 1_555 1_555
H15 C32 1_555 1_555
C33 C17 1_555 1_555
H16 C33 1_555 1_555
C34 C5 1_555 1_555
H17 C34 1_555 1_555
C35 C7 1_555 1_555
H18 C35 1_555 1_555
C36 C17 1_555 1_555
H19 C36 1_555 1_555
C37 C14 1_555 1_555
H20 C37 1_555 1_555
C38 C12 1_555 1_555
C39 C16 1_555 1_555
C40 C16 1_555 1_555
C41 C22 1_555 1_555
H21 C41 1_555 1_555
C42 N2 1_555 1_555
H22 C42 1_555 1_555
C43 N2 1_555 1_555
H23 C43 1_555 1_555
C44 C22 1_555 1_555
H24 C44 1_555 1_555
Mn1_2 O6 1_555 1_555
Mn1_3 O2B_2 1_555 1_555
Mn2A O7 1_555 1_555
Mn2_2 O3B 1_555 1_555
Mn2A_2 O7B 1_555 1_555
Mn3B O1B 1_555 1_555
Mn3_2 O2 1_555 1_555
Mn3A O4 1_555 1_555
Mn3A_2 N1 1_555 1_555
Mn3B_2 O2B 1_555 1_555
Mn3C O4B 1_555 1_555
Mn3C_2 N1B 1_555 1_555
O1B C2B 1_555 1_555
O2B Mn1 1_555 1_555
O2_2 Mn3 1_555 1_555
O2B_2 Mn3B 1_555 1_555
O3B C11B 1_555 1_555
O3B_2 Mn2 1_555 1_555
O4B C3B 1_555 1_555
O4A Mn3 1_555 1_555
O4C Mn3B 1_555 1_555
O5B Mn3B_2 1_555 1_555
O5_2 Mn3 1_555 1_555
O5B_2 Mn3B 1_555 1_555
O6B Mn1_3 1_555 1_555
O6_2 Mn1 1_555 1_555
O6B_2 Mn1 1_555 1_555
N1B C10B 1_555 1_555
N1A Mn3 1_555 1_555
N1C Mn3B 1_555 1_555
O7B C3B 1_555 1_555
O7A Mn2 1_555 1_555
O7C Mn2 1_555 1_555
O8B Mn1 1_555 1_555
C1B O5B 1_555 1_555
N2B Mn2 1_555 1_555
C2B O6B 1_555 1_555
C3B C5B 1_555 1_555
C4B H1B 1_555 1_555
C5B C4B 1_555 1_555
C6B C4B 1_555 1_555
H2B C6B 1_555 1_555
C7B C6B 1_555 1_555
C8B C2B 1_555 1_555
C9B C11B 1_555 1_555
F1B C13B 1_555 1_555
C10B H3B 1_555 1_555
C11B O2B 1_555 1_555
F2B C13B 1_555 1_555
C12B C7B 1_555 1_555
C13B C12B 1_555 1_555
C14B C12B 1_555 1_555
F3B C13B 1_555 1_555
C15B C16B 1_555 1_555
C16B C23B 1_555 1_555
C17B C1B 1_555 1_555
C18B C10B 1_555 1_555
H4B C18B 1_555 1_555
C19B C15B 1_555 1_555
H5B C19B 1_555 1_555
C20B C8B 1_555 1_555
H6B C20B 1_555 1_555
C21B C18B 1_555 1_555
C22B C21B 1_555 1_555
C23B C27B 1_555 1_555
C24B C21B 1_555 1_555
H7B C24B 1_555 1_555
C25B C14B 1_555 1_555
H8B C25B 1_555 1_555
C26B C15B 1_555 1_555
H9B C26B 1_555 1_555
C27B H10B 1_555 1_555
C28B N1B 1_555 1_555
H11B C28B 1_555 1_555
C29B C23B 1_555 1_555
H12B C29B 1_555 1_555
C30B C9B 1_555 1_555
H13B C30B 1_555 1_555
C31B C9B 1_555 1_555
H14B C31B 1_555 1_555
F4B C38B 1_555 1_555
F5B C38B 1_555 1_555
F6B C40B 1_555 1_555
F7B C39B 1_555 1_555
F8B C39B 1_555 1_555
F9B C38B 1_555 1_555
F10B C39B 1_555 1_555
F11B C40B 1_555 1_555
F12B C40B 1_555 1_555
C32B C8B 1_555 1_555
H15B C32B 1_555 1_555
C33B C17B 1_555 1_555
H16B C33B 1_555 1_555
C34B C5B 1_555 1_555
H17B C34B 1_555 1_555
C35B C7B 1_555 1_555
H18B C35B 1_555 1_555
C36B C17B 1_555 1_555
H19B C36B 1_555 1_555
C37B C14B 1_555 1_555
H20B C37B 1_555 1_555
C38B C12B 1_555 1_555
C39B C16B 1_555 1_555
C40B C16B 1_555 1_555
C41B C22B 1_555 1_555
H21B C41B 1_555 1_555
C42B N2B 1_555 1_555
H22B C42B 1_555 1_555
C43B N2B 1_555 1_555
H23B C43B 1_555 1_555
C44B C22B 1_555 1_555
H24B C44B 1_555 1_555
O5 Mn3_2 1_555 1_555
C24 C28 1_555 1_555
C25 C36 1_555 1_555
C26 C32 1_555 1_555
C27 C30 1_555 1_555
C29 C31 1_555 1_555
C33 C37 1_555 1_555
C34 C35 1_555 1_555
C41 C42 1_555 1_555
C43 C44 1_555 1_555
Mn1_2 O2_2 1_555 1_555
O8B C1B 1_555 1_555
C19B C20B 1_555 1_555
C24B C28B 1_555 1_555
C25B C36B 1_555 1_555
C26B C32B 1_555 1_555
C27B C30B 1_555 1_555
C29B C31B 1_555 1_555
C33B C37B 1_555 1_555
C34B C35B 1_555 1_555
C41B C42B 1_555 1_555
C43B C44B 1_555 1_555

#END
