
#######################################################################
#
#                 Cambridge Crystallographic Data Centre
#                                CCDC 
#
#######################################################################
#
# If this CIF has been generated from an entry in the Cambridge 
# Structural Database, then it will include bibliographic, chemical, 
# crystal, experimental, refinement or atomic coordinate data resulting 
# from the CCDC's data processing and validation procedures.
#
#######################################################################

data_YOVREH
_symmetry_cell_setting           monoclinic
_symmetry_space_group_name_H-M   'C 2/c'
_symmetry_Int_Tables_number      15
_space_group_name_Hall           '-C 2yn'
loop_
_symmetry_equiv_pos_site_id
_symmetry_equiv_pos_as_xyz
1 x,y,z
2 -x,y,1/2-z
3 1/2+x,1/2+y,z
4 1/2-x,1/2+y,1/2-z
5 -x,-y,-z
6 x,-y,1/2+z
7 1/2-x,1/2-y,-z
8 1/2+x,1/2-y,1/2+z
_cell_length_a                   17.081(1)
_cell_length_b                   10.5045(7)
_cell_length_c                   16.789(2)
_cell_angle_alpha                90
_cell_angle_beta                 117.801(6)
_cell_angle_gamma                90
_cell_volume                     2664.69
loop_
_atom_site_label
_atom_site_type_symbol
_atom_site_fract_x
_atom_site_fract_y
_atom_site_fract_z
Mn1 Mn 0.50000 0.34398(7) 0.25000
S1 S 0.34647(7) 0.84189(9) -0.04888(6)
S2 S 0.78264(10) 0.4236(2) 0.24775(12)
N1 N 0.44429(18) 1.1825(3) 0.1446(2)
N2 N 0.43126(19) 0.5000(3) 0.1423(2)
N3 N 0.6197(2) 0.3484(3) 0.2334(2)
C1 C 0.5003(2) 1.0926(4) 0.1434(2)
H3 H 0.5604 1.1024 0.1822
C2 C 0.4737(2) 0.9879(4) 0.0885(3)
H4 H 0.5149 0.9278 0.0913
C3 C 0.3840(2) 0.9723(3) 0.0280(2)
C4 C 0.3260(2) 1.0635(4) 0.0280(3)
H5 H 0.2658 1.057 -0.0112
C5 C 0.3585(2) 1.1650(4) 0.0871(3)
H6 H 0.3182 1.2247 0.0869
C6 C 0.4283(2) 0.4962(4) 0.0607(3)
H7 H 0.4444 0.421 0.0429
C7 C 0.4029(2) 0.5974(4) 0.0026(2)
H8 H 0.4011 0.5897 -0.0534
C8 C 0.3796(2) 0.7121(3) 0.0278(2)
C9 C 0.3796(2) 0.7153(4) 0.1108(2)
H9 H 0.363 0.7889 0.1297
C10 C 0.4044(2) 0.6086(4) 0.1643(2)
H10 H 0.4024 0.6117 0.2187
C11 C 0.6883(3) 0.3778(4) 0.2409(3)
Mn1_2 Mn 0.50000 1.34398(7) 0.25000
S1A S 0.65353(7) 0.84189(9) 0.54888(6)
S2A S 0.21736(10) 0.4236(2) 0.25225(12)
N1A N 0.55571(18) 1.1825(3) 0.3554(2)
N1_2 N 0.44429(18) 0.1825(3) 0.1446(2)
N1A_2 N 0.55571(18) 0.1825(3) 0.3554(2)
N2A N 0.56874(19) 0.5000(3) 0.3577(2)
N3A N 0.3803(2) 0.3484(3) 0.2666(2)
C1A C 0.4997(2) 1.0926(4) 0.3566(2)
H3A H 0.4396 1.1024 0.3178
C2A C 0.5263(2) 0.9879(4) 0.4115(3)
H4A H 0.4851 0.9278 0.4087
C3A C 0.6160(2) 0.9723(3) 0.4720(2)
C4A C 0.6740(2) 1.0635(4) 0.4720(3)
H5A H 0.7342 1.057 0.5112
C5A C 0.6415(2) 1.1650(4) 0.4129(3)
H6A H 0.6818 1.2247 0.4131
C6A C 0.5717(2) 0.4962(4) 0.4393(3)
H7A H 0.5556 0.421 0.4571
C7A C 0.5971(2) 0.5974(4) 0.4974(2)
H8A H 0.5989 0.5897 0.5534
C8A C 0.6204(2) 0.7121(3) 0.4722(2)
C9A C 0.6204(2) 0.7153(4) 0.3892(2)
H9A H 0.637 0.7889 0.3703
C10A C 0.5956(2) 0.6086(4) 0.3357(2)
H10A H 0.5976 0.6117 0.2813
C11A C 0.3117(3) 0.3778(4) 0.2591(3)
O1 O 0.3538(8) 0.3242(10) -0.1201(8)
H1 H 0.3285 0.2573 -0.1579
H2 H 0.3667 0.4071 -0.1508
loop_
_geom_bond_atom_site_label_1
_geom_bond_atom_site_label_2
_geom_bond_site_symmetry_1
_geom_bond_site_symmetry_2
Mn1 N2 1_555 1_555
S1 C3 1_555 1_555
S2 C11 1_555 1_555
O1 H1 1_555 1_555
H2 O1 1_555 1_555
N1 C1 1_555 1_555
N2 C6 1_555 1_555
N3 Mn1 1_555 1_555
C1 H3 1_555 1_555
C2 C1 1_555 1_555
H4 C2 1_555 1_555
C3 C2 1_555 1_555
C4 C3 1_555 1_555
H5 C4 1_555 1_555
C5 N1 1_555 1_555
H6 C5 1_555 1_555
C6 H7 1_555 1_555
C7 C6 1_555 1_555
H8 C7 1_555 1_555
C8 S1 1_555 1_555
C9 C8 1_555 1_555
H9 C9 1_555 1_555
C10 N2 1_555 1_555
H10 C10 1_555 1_555
C11 N3 1_555 1_555
Mn1_2 N1 1_555 1_555
S1A C3A 1_555 1_555
S2A C11A 1_555 1_555
N1A Mn1_2 1_555 1_555
N1_2 Mn1 1_555 1_555
N1A_2 Mn1 1_555 1_555
N2A Mn1 1_555 1_555
N3A Mn1 1_555 1_555
C1A N1A 1_555 1_555
H3A C1A 1_555 1_555
C2A C1A 1_555 1_555
H4A C2A 1_555 1_555
C3A C2A 1_555 1_555
C4A C3A 1_555 1_555
H5A C4A 1_555 1_555
C5A N1A 1_555 1_555
H6A C5A 1_555 1_555
C6A N2A 1_555 1_555
H7A C6A 1_555 1_555
C7A C6A 1_555 1_555
H8A C7A 1_555 1_555
C8A S1A 1_555 1_555
C9A C8A 1_555 1_555
H9A C9A 1_555 1_555
C10A N2A 1_555 1_555
H10A C10A 1_555 1_555
C11A N3A 1_555 1_555
C4 C5 1_555 1_555
C7 C8 1_555 1_555
C9 C10 1_555 1_555
C4A C5A 1_555 1_555
C7A C8A 1_555 1_555
C9A C10A 1_555 1_555

#END
