
#######################################################################
#
#                 Cambridge Crystallographic Data Centre
#                                CCDC 
#
#######################################################################
#
# If this CIF has been generated from an entry in the Cambridge 
# Structural Database, then it will include bibliographic, chemical, 
# crystal, experimental, refinement or atomic coordinate data resulting 
# from the CCDC's data processing and validation procedures.
#
#######################################################################

data_YOVTEK
_symmetry_cell_setting           orthorhombic
_symmetry_space_group_name_H-M   'P 21 21 21'
_symmetry_Int_Tables_number      19
_space_group_name_Hall           'P 2ac 2ab'
loop_
_symmetry_equiv_pos_site_id
_symmetry_equiv_pos_as_xyz
1 x,y,z
2 1/2-x,-y,1/2+z
3 1/2+x,1/2-y,-z
4 -x,1/2+y,1/2-z
_cell_length_a                   13.2421(3)
_cell_length_b                   15.1115(4)
_cell_length_c                   17.0360(4)
_cell_angle_alpha                90
_cell_angle_beta                 90
_cell_angle_gamma                90
_cell_volume                     3409.04
loop_
_atom_site_label
_atom_site_type_symbol
_atom_site_fract_x
_atom_site_fract_y
_atom_site_fract_z
Tb1 Tb 0.58587(2) 0.09405(2) 0.09057(2)
Cu1 Cu 0.79093(3) -0.05060(3) 0.09538(3)
Cr1 Cr 0.16093(4) 0.10258(4) 0.09908(4)
O1 O 0.5285(2) 0.0542(2) -0.04812(17)
O2 O 0.69889(19) 0.00539(19) 0.01772(16)
O3 O 0.6917(2) 0.00139(19) 0.16703(16)
O4 O 0.5281(2) 0.0657(2) 0.23199(17)
O5 O 0.5123(2) -0.05006(18) 0.0933(2)
H1 H 0.4511 -0.0687 0.0741
H2 H 0.5493 -0.0988 0.0965
O6 O 0.5493(2) 0.2347(2) 0.16020(18)
H3 H 0.5994 0.2767 0.1730
H4 H 0.4979 0.2732 0.1445
O7 O 0.7395(2) 0.1689(2) 0.1224(2)
H5 H 0.8002 0.1378 0.1215
H6 H 0.7474 0.2282 0.1288
N1 N 0.8692(3) -0.1087(2) 0.0112(2)
N2 N 0.8621(2) -0.1097(2) 0.1830(2)
N3 N 0.4021(2) 0.1242(2) 0.0854(2)
N4 N 0.2136(3) -0.0817(3) 0.1844(2)
N5 N 0.1651(4) 0.1766(3) 0.2744(3)
N6 N -0.0797(2) 0.0717(2) 0.1047(2)
N7 N 0.1802(3) 0.0112(3) -0.0700(2)
N8 N 0.1082(3) 0.2817(2) 0.0051(2)
C1 C 0.4455(3) 0.0921(4) -0.0906(3)
H7 H 0.4676 0.1078 -0.1437
H8 H 0.4219 0.1453 -0.0633
H9 H 0.3904 0.0490 -0.0937
C2 C 0.5822(3) -0.0114(3) -0.0862(3)
C3 C 0.5510(4) -0.0523(4) -0.1551(3)
H10 H 0.4877 -0.0372 -0.1777
C4 C 0.6122(4) -0.1151(3) -0.1908(3)
H11 H 0.5913 -0.1426 -0.2382
C5 C 0.7027(4) -0.1374(3) -0.1574(3)
H12 H 0.7450 -0.1795 -0.1826
C6 C 0.7339(3) -0.0987(3) -0.0862(3)
C7 C 0.6738(3) -0.0344(3) -0.0493(2)
C8 C 0.8317(3) -0.1248(3) -0.0565(3)
H13 H 0.8731 -0.1579 -0.0914
C9 C 0.9742(3) -0.1378(3) 0.0254(3)
H14 H 1.0183 -0.0851 0.0302
H15 H 0.9979 -0.1728 -0.0202
C10 C 0.9831(3) -0.1929(3) 0.0986(3)
H16 H 0.9328 -0.2413 0.0962
H17 H 1.0510 -0.2202 0.1000
C11 C 0.9672(3) -0.1421(3) 0.1729(3)
H18 H 0.9848 -0.1805 0.2180
H19 H 1.0137 -0.0908 0.1735
C12 C 0.8234(3) -0.1217(3) 0.2505(2)
H20 H 0.8634 -0.1537 0.2871
C13 C 0.7260(3) -0.0925(3) 0.2781(2)
C14 C 0.6936(3) -0.1232(3) 0.3522(3)
H21 H 0.7342 -0.1642 0.3803
C15 C 0.6050(3) -0.0948(3) 0.3841(2)
H22 H 0.5831 -0.1174 0.4333
C16 C 0.5467(3) -0.0328(3) 0.3446(2)
H23 H 0.4848 -0.0130 0.3667
C17 C 0.5786(3) 0.0000(3) 0.2735(2)
C18 C 0.6670(3) -0.0306(3) 0.2373(2)
C19 C 0.4384(3) 0.1006(4) 0.2685(3)
H24 H 0.3869 0.0542 0.2714
H25 H 0.4127 0.1503 0.2373
H26 H 0.4547 0.1212 0.3215
C20 C 0.3158(3) 0.1218(2) 0.0899(3)
C21 C 0.1926(3) -0.0168(3) 0.1532(3)
C22 C 0.1617(3) 0.1546(3) 0.2105(3)
C23 C 0.0063(3) 0.0815(3) 0.1036(2)
C24 C 0.1702(3) 0.0424(3) -0.0095(2)
C25 C 0.1285(3) 0.2205(3) 0.0417(2)
Tb1B Tb 0.08587(2) 0.40595(2) -0.09057(2)
Cu1_2 Cu -0.20907(3) -0.05060(3) 0.09538(3)
N6_2 N 0.9203(2) 0.0717(2) 0.1047(2)
N8B N 0.6082(3) 0.2183(2) -0.0051(2)
O8 O 0.7178(3) 0.3387(2) 0.1758(2)
H27 H 0.7448 0.3588 0.2222
H28 H 0.7122 0.3856 0.1392
O9 O 0.7518(3) -0.3340(3) 0.0774(2)
H29 H 0.7205 -0.3915 0.0797
H30 H 0.7947 -0.3346 0.1230
O10 O 0.3543(3) -0.1577(3) 0.0663(2)
H31 H 0.3067 -0.1496 0.1078
H32 H 0.3239 -0.1631 0.0173
O11 O 0.6440(8) -0.1896(7) 0.1183(5)
H33 H 0.6772 -0.2412 0.0969
H34 H 0.6010 -0.2101 0.1578
O12? O 0.6476(17) -0.1892(15) 0.0734(12)
H35? H 0.5927 -0.2185 0.0463
loop_
_geom_bond_atom_site_label_1
_geom_bond_atom_site_label_2
_geom_bond_site_symmetry_1
_geom_bond_site_symmetry_2
Tb1 O1 1_555 1_555
Cu1 O2 1_555 1_555
Cr1 C20 1_555 1_555
O1 C1 1_555 1_555
O2 Tb1 1_555 1_555
O3 Tb1 1_555 1_555
O4 Tb1 1_555 1_555
O5 Tb1 1_555 1_555
H1 O5 1_555 1_555
H2 O5 1_555 1_555
O6 Tb1 1_555 1_555
H3 O6 1_555 1_555
H4 O6 1_555 1_555
O7 Tb1 1_555 1_555
H5 O7 1_555 1_555
H6 O7 1_555 1_555
N1 Cu1 1_555 1_555
N2 Cu1 1_555 1_555
N3 Tb1 1_555 1_555
N4 C21 1_555 1_555
N5 C22 1_555 1_555
N6 C23 1_555 1_555
N7 C24 1_555 1_555
N8 C25 1_555 1_555
C1 H7 1_555 1_555
H8 C1 1_555 1_555
H9 C1 1_555 1_555
C2 O1 1_555 1_555
C3 C2 1_555 1_555
H10 C3 1_555 1_555
C4 C3 1_555 1_555
H11 C4 1_555 1_555
C5 C4 1_555 1_555
H12 C5 1_555 1_555
C6 C5 1_555 1_555
C7 O2 1_555 1_555
C8 N1 1_555 1_555
H13 C8 1_555 1_555
C9 N1 1_555 1_555
H14 C9 1_555 1_555
H15 C9 1_555 1_555
C10 C9 1_555 1_555
H16 C10 1_555 1_555
H17 C10 1_555 1_555
C11 N2 1_555 1_555
H18 C11 1_555 1_555
H19 C11 1_555 1_555
C12 N2 1_555 1_555
H20 C12 1_555 1_555
C13 C12 1_555 1_555
C14 C13 1_555 1_555
H21 C14 1_555 1_555
C15 C14 1_555 1_555
H22 C15 1_555 1_555
C16 C15 1_555 1_555
H23 C16 1_555 1_555
C17 O4 1_555 1_555
C18 O3 1_555 1_555
C19 O4 1_555 1_555
H24 C19 1_555 1_555
H25 C19 1_555 1_555
H26 C19 1_555 1_555
C20 N3 1_555 1_555
C21 Cr1 1_555 1_555
C22 Cr1 1_555 1_555
C23 Cr1 1_555 1_555
C24 Cr1 1_555 1_555
C25 Cr1 1_555 1_555
O8 H27 1_555 1_555
H28 O8 1_555 1_555
O9 H29 1_555 1_555
H30 O9 1_555 1_555
O10 H31 1_555 1_555
H32 O10 1_555 1_555
O11 H33 1_555 1_555
H34 O11 1_555 1_555
Tb1B N8 1_555 1_555
Cu1_2 N6 1_555 1_555
N6_2 Cu1 1_555 1_555
N8B Tb1 1_555 1_555
Cu1 O3 1_555 1_555
C2 C7 1_555 1_555
C6 C7 1_555 1_555
C6 C8 1_555 1_555
C10 C11 1_555 1_555
C13 C18 1_555 1_555
C16 C17 1_555 1_555
C17 C18 1_555 1_555

#END
