
#######################################################################
#
#                 Cambridge Crystallographic Data Centre
#                                CCDC 
#
#######################################################################
#
# If this CIF has been generated from an entry in the Cambridge 
# Structural Database, then it will include bibliographic, chemical, 
# crystal, experimental, refinement or atomic coordinate data resulting 
# from the CCDC's data processing and validation procedures.
#
#######################################################################

data_YOVTAE
_symmetry_cell_setting           monoclinic
_symmetry_space_group_name_H-M   'P 21/c'
_symmetry_Int_Tables_number      14
_space_group_name_Hall           '-P 2ybc'
loop_
_symmetry_equiv_pos_site_id
_symmetry_equiv_pos_as_xyz
1 x,y,z
2 -x,1/2+y,1/2-z
3 -x,-y,-z
4 x,1/2-y,1/2+z
_cell_length_a                   11.187(4)
_cell_length_b                   13.825(1)
_cell_length_c                   22.172(3)
_cell_angle_alpha                90
_cell_angle_beta                 100.52(2)
_cell_angle_gamma                90
_cell_volume                     3371.49
loop_
_atom_site_label
_atom_site_type_symbol
_atom_site_fract_x
_atom_site_fract_y
_atom_site_fract_z
N1 N 0.8016(10) -0.1915(7) 0.1168(5)
N2 N 0.5640(10) -0.1869(8) 0.0391(5)
N3 N 0.4930(8) -0.0260(7) 0.1092(5)
N4 N 0.7287(9) -0.0324(7) 0.1872(4)
C1 C 0.8483(12) -0.0405(11) 0.2177(6)
C2 C 0.9291(11) -0.1089(11) 0.2038(7)
C3 C 0.9076(13) -0.1786(11) 0.1584(7)
C4 C 0.9911(13) -0.2518(12) 0.1452(8)
C5 C 0.9371(15) -0.3044(12) 0.0973(8)
C6 C 0.8139(14) -0.2649(11) 0.0802(7)
C7 C 0.7317(16) -0.3008(10) 0.0315(7)
C8 C 0.6128(14) -0.2627(10) 0.0123(6)
C9 C 0.5245(17) -0.3001(11) -0.0369(7)
C10 C 0.4231(15) -0.2457(13) -0.0395(7)
C11 C 0.4470(13) -0.1755(11) 0.0072(7)
C12 C 0.3636(11) -0.1098(10) 0.0230(6)
C13 C 0.3873(13) -0.0385(10) 0.0684(7)
C14 C 0.3009(12) 0.0328(12) 0.0810(8)
C15 C 0.3535(14) 0.0829(11) 0.1294(8)
C16 C 0.4771(13) 0.0463(9) 0.1479(7)
C17 C 0.5609(13) 0.0789(9) 0.1973(6)
C18 C 0.6829(12) 0.0427(10) 0.2139(6)
C19 C 0.7705(14) 0.0854(10) 0.2599(7)
C20 C 0.8737(13) 0.0354(11) 0.2620(6)
C21 C 1.0538(13) -0.1075(10) 0.2412(5)
C22 C 1.1503(13) -0.0660(10) 0.2185(5)
C23 C 1.2660(13) -0.0633(10) 0.2549(5)
N5 N 1.2851(13) -0.1019(10) 0.3140(5)
C24 C 1.1886(13) -0.1434(10) 0.3367(5)
C25 C 1.0729(13) -0.1461(10) 0.3003(5)
C26 C 0.5193(8) 0.1510(5) 0.2395(4)
C27 C 0.5109(8) 0.1219(5) 0.2988(4)
C28 C 0.4680(8) 0.1865(5) 0.3384(4)
N6 N 0.4347(8) 0.2802(5) 0.3188(4)
C29 C 0.4438(8) 0.3093(5) 0.2596(4)
C30 C 0.4861(8) 0.2447(5) 0.2199(4)
C31 C 0.2331(9) -0.1179(8) -0.0118(5)
C32 C 0.2052(9) -0.0960(8) -0.0742(5)
C33 C 0.0861(9) -0.1057(8) -0.1059(5)
N7 N -0.0050(9) -0.1373(8) -0.0753(5)
C34 C 0.0229(9) -0.1592(8) -0.0129(5)
C35 C 0.1420(9) -0.1495(8) 0.0189(5)
C36 C 0.7615(11) -0.3852(8) -0.0037(6)
C37 C 0.8059(11) -0.3704(8) -0.0578(6)
C38 C 0.8362(11) -0.4494(8) -0.0911(6)
N8 N 0.8221(11) -0.5432(8) -0.0703(6)
C39 C 0.7777(11) -0.5580(8) -0.0162(6)
C40 C 0.7473(11) -0.4790(8) 0.0171(6)
Zn1 Zn 0.6361(1) -0.1232(1) 0.1215(1)
H1 H 1.0809 -0.2626 0.1696
H2 H 0.9757 -0.3629 0.0759
H3 H 0.5323 -0.3583 -0.0661
H4 H 0.3401 -0.2540 -0.0711
H5 H 0.2117 0.0421 0.0562
H6 H 0.3136 0.1393 0.1504
H7 H 0.7558 0.1440 0.2887
H8 H 0.9570 0.0473 0.2918
H9 H 1.1364 -0.0377 0.1753
H10 H 1.3366 -0.0330 0.2383
H11 H 1.2025 -0.1717 0.3799
H12 H 1.0023 -0.1764 0.3168
H13 H 0.5346 0.0534 0.3131
H14 H 0.4614 0.1653 0.3817
H15 H 0.4195 0.3778 0.2452
H16 H 0.4927 0.2660 0.1766
H17 H 0.2718 -0.0729 -0.0966
H18 H 0.0657 -0.0897 -0.1516
H19 H -0.0437 -0.1823 0.0096
H20 H 0.1624 -0.1655 0.0645
H21 H 0.8162 -0.3018 -0.0729
H22 H 0.8687 -0.4385 -0.1307
H23 H 0.7673 -0.6266 -0.0010
H24 H 0.7149 -0.4898 0.0567
Zn1A Zn 0.3639(1) 0.3768(1) 0.3785(1)
N6A N 0.5653(8) -0.2198(5) 0.1812(4)
loop_
_geom_bond_atom_site_label_1
_geom_bond_atom_site_label_2
_geom_bond_site_symmetry_1
_geom_bond_site_symmetry_2
N1 C3 1_555 1_555
N2 C8 1_555 1_555
N3 C13 1_555 1_555
N4 C1 1_555 1_555
C1 C2 1_555 1_555
C2 C3 1_555 1_555
C3 C4 1_555 1_555
C4 C5 1_555 1_555
C5 C6 1_555 1_555
C6 N1 1_555 1_555
C7 C6 1_555 1_555
C8 C7 1_555 1_555
C9 C8 1_555 1_555
C10 C9 1_555 1_555
C11 N2 1_555 1_555
C12 C11 1_555 1_555
C13 C12 1_555 1_555
C14 C13 1_555 1_555
C15 C14 1_555 1_555
C16 N3 1_555 1_555
C17 C16 1_555 1_555
C18 N4 1_555 1_555
C19 C18 1_555 1_555
C20 C1 1_555 1_555
C21 C2 1_555 1_555
C22 C21 1_555 1_555
C23 C22 1_555 1_555
N5 C23 1_555 1_555
C24 N5 1_555 1_555
C25 C21 1_555 1_555
C26 C17 1_555 1_555
C27 C26 1_555 1_555
C28 C27 1_555 1_555
N6 C28 1_555 1_555
C29 N6 1_555 1_555
C30 C26 1_555 1_555
C31 C12 1_555 1_555
C32 C31 1_555 1_555
C33 C32 1_555 1_555
N7 C33 1_555 1_555
C34 N7 1_555 1_555
C35 C31 1_555 1_555
C36 C7 1_555 1_555
C37 C36 1_555 1_555
C38 C37 1_555 1_555
N8 C38 1_555 1_555
C39 N8 1_555 1_555
C40 C36 1_555 1_555
Zn1 N1 1_555 1_555
H1 C4 1_555 1_555
H2 C5 1_555 1_555
H3 C9 1_555 1_555
H4 C10 1_555 1_555
H5 C14 1_555 1_555
H6 C15 1_555 1_555
H7 C19 1_555 1_555
H8 C20 1_555 1_555
H9 C22 1_555 1_555
H10 C23 1_555 1_555
H11 C24 1_555 1_555
H12 C25 1_555 1_555
H13 C27 1_555 1_555
H14 C28 1_555 1_555
H15 C29 1_555 1_555
H16 C30 1_555 1_555
H17 C32 1_555 1_555
H18 C33 1_555 1_555
H19 C34 1_555 1_555
H20 C35 1_555 1_555
H21 C37 1_555 1_555
H22 C38 1_555 1_555
H23 C39 1_555 1_555
H24 C40 1_555 1_555
Zn1A N6 1_555 1_555
N6A Zn1 1_555 1_555
N2 Zn1 1_555 1_555
N3 Zn1 1_555 1_555
N4 Zn1 1_555 1_555
C10 C11 1_555 1_555
C15 C16 1_555 1_555
C17 C18 1_555 1_555
C19 C20 1_555 1_555
C24 C25 1_555 1_555
C29 C30 1_555 1_555
C34 C35 1_555 1_555
C39 C40 1_555 1_555

#END
