
#######################################################################
#
#                 Cambridge Crystallographic Data Centre
#                                CCDC 
#
#######################################################################
#
# If this CIF has been generated from an entry in the Cambridge 
# Structural Database, then it will include bibliographic, chemical, 
# crystal, experimental, refinement or atomic coordinate data resulting 
# from the CCDC's data processing and validation procedures.
#
#######################################################################

data_YOVTUA
_symmetry_cell_setting           triclinic
_symmetry_space_group_name_H-M   'P -1'
_symmetry_Int_Tables_number      2
_space_group_name_Hall           '-P 1'
loop_
_symmetry_equiv_pos_site_id
_symmetry_equiv_pos_as_xyz
1 x,y,z
2 -x,-y,-z
_cell_length_a                   9.3237(4)
_cell_length_b                   11.4454(5)
_cell_length_c                   13.6744(6)
_cell_angle_alpha                66.862(4)
_cell_angle_beta                 78.859(3)
_cell_angle_gamma                85.704(4)
_cell_volume                     1316.57
loop_
_atom_site_label
_atom_site_type_symbol
_atom_site_fract_x
_atom_site_fract_y
_atom_site_fract_z
Zn1 Zn 1.24699(3) 1.16932(3) -0.43100(2)
O1 O 1.3395(2) 1.00423(18) -0.36539(15)
H1 H 1.324(4) 0.974(3) -0.2969(8)
H2 H 1.397(3) 0.958(2) -0.390(2)
N1 N 1.0100(2) 0.74288(19) -0.03605(16)
C1 C 0.9210(3) 0.6863(2) 0.05752(19)
O2 O 0.7540(2) 1.17399(17) -0.11438(15)
Zn2 Zn 1.13697(3) 0.89033(3) -0.07649(2)
N2 N 0.8323(2) 0.60155(18) 0.05215(16)
C2 C 0.9174(3) 0.7121(2) 0.15599(19)
H3 H 1.0128 0.7376 0.1566
H4 H 0.8883 0.6365 0.2189
H5 H 0.8487 0.7788 0.1563
O3 O 0.8366(2) 0.99837(17) 0.00394(14)
C3 C 0.8649(3) 0.6025(2) -0.05171(19)
N3 N 0.6758(2) 0.69434(18) 0.40070(15)
O4 O 0.43125(19) 0.68261(16) -0.09157(14)
N4 N 0.5680(2) 0.58311(19) 0.33352(16)
C4 C 0.8072(3) 0.5346(2) -0.0996(2)
H6 H 0.7320 0.4761 -0.0622
O5 O 0.33113(18) 0.87630(16) -0.15898(13)
O6 O 1.08298(17) 1.03533(15) -0.20878(13)
C5 C 0.8681(3) 0.5589(2) -0.2064(2)
H7 H 0.8325 0.5159 -0.2421
O7 O 1.03685(17) 1.12766(16) -0.37540(13)
C6 C 0.9824(3) 0.6469(2) -0.2624(2)
H8 H 1.0205 0.6606 -0.3341
C7 C 1.0396(3) 0.7135(2) -0.21373(19)
H9 H 1.1159 0.7709 -0.2510
O8 O 0.51612(18) 0.81194(18) -0.36359(15)
C8 C 0.9785(3) 0.6912(2) -0.10668(19)
O9 O 0.75548(18) 0.80236(16) -0.42070(13)
C9 C 0.7180(3) 0.5254(2) 0.13970(19)
H10 H 0.7522 0.4979 0.2079
H11 H 0.6989 0.4503 0.1279
C10 C 0.5756(3) 0.6005(2) 0.14615(19)
H12 H 0.5985 0.6901 0.1209
H13 H 0.5163 0.5907 0.0989
C11 C 0.4888(3) 0.5559(2) 0.26106(19)
H14 H 0.3948 0.5984 0.2606
H15 H 0.4713 0.4652 0.2881
C12 C 0.5884(3) 0.6996(2) 0.33269(19)
C13 C 0.5223(3) 0.8177(2) 0.2634(2)
H16 H 0.4868 0.8687 0.3044
H17 H 0.4427 0.7964 0.2382
H18 H 0.5948 0.8646 0.2026
C14 C 0.7143(2) 0.5666(2) 0.44879(19)
C15 C 0.8039(3) 0.5090(2) 0.52527(19)
H19 H 0.8490 0.5559 0.5531
C16 C 0.8230(3) 0.3790(2) 0.5580(2)
H20 H 0.8828 0.3376 0.6086
C17 C 0.7541(3) 0.3083(2) 0.5166(2)
H21 H 0.7691 0.2210 0.5408
C18 C 0.6645(3) 0.3642(2) 0.44075(19)
H22 H 0.6187 0.3170 0.4136
C19 C 0.6471(2) 0.4957(2) 0.40744(18)
C20 C 0.7587(3) 0.9854(2) -0.14686(19)
C21 C 0.6277(3) 0.9190(2) -0.11788(19)
H23 H 0.5655 0.9119 -0.0538
C22 C 0.5877(2) 0.8629(2) -0.18258(19)
C23 C 0.6816(3) 0.8721(2) -0.27854(19)
C24 C 0.8136(3) 0.9381(2) -0.30682(19)
H24 H 0.8766 0.9446 -0.3704
C25 C 0.8529(3) 0.9942(2) -0.24235(19)
C26 C 0.4398(3) 0.7965(2) -0.14129(18)
C27 C 0.6455(3) 0.8235(2) -0.35846(19)
C28 C 0.7843(3) 1.0601(2) -0.08224(19)
C29 C 1.0005(3) 1.0570(2) -0.27661(19)
Zn1A Zn 0.75301(3) 0.83068(3) -0.56900(2)
Zn1A_2 Zn 0.75301(3) 0.83068(3) 0.43100(2)
Zn2_2 Zn 0.13697(3) 0.89033(3) -0.07649(2)
Zn2A Zn 0.86303(3) 1.10967(3) 0.07649(2)
O3A O 1.1634(2) 1.00163(17) -0.00394(14)
N3A N 1.3242(2) 1.30566(18) -0.40070(15)
O5_2 O 1.33113(18) 0.87630(16) -0.15898(13)
O9A O 1.24452(18) 1.19764(16) -0.57930(13)
loop_
_geom_bond_atom_site_label_1
_geom_bond_atom_site_label_2
_geom_bond_site_symmetry_1
_geom_bond_site_symmetry_2
Zn1 O1 1_555 1_555
O1 H1 1_555 1_555
H2 O1 1_555 1_555
N1 C1 1_555 1_555
C1 N2 1_555 1_555
O2 C28 1_555 1_555
Zn2 N1 1_555 1_555
N2 C3 1_555 1_555
C2 C1 1_555 1_555
H3 C2 1_555 1_555
H4 C2 1_555 1_555
H5 C2 1_555 1_555
O3 C28 1_555 1_555
C3 C4 1_555 1_555
N3 C12 1_555 1_555
O4 C26 1_555 1_555
N4 C11 1_555 1_555
C4 H6 1_555 1_555
O5 C26 1_555 1_555
O6 Zn2 1_555 1_555
C5 C4 1_555 1_555
H7 C5 1_555 1_555
O7 Zn1 1_555 1_555
C6 C5 1_555 1_555
H8 C6 1_555 1_555
C7 C6 1_555 1_555
H9 C7 1_555 1_555
O8 C27 1_555 1_555
C8 N1 1_555 1_555
O9 C27 1_555 1_555
C9 N2 1_555 1_555
H10 C9 1_555 1_555
H11 C9 1_555 1_555
C10 C9 1_555 1_555
H12 C10 1_555 1_555
H13 C10 1_555 1_555
C11 C10 1_555 1_555
H14 C11 1_555 1_555
H15 C11 1_555 1_555
C12 N4 1_555 1_555
C13 C12 1_555 1_555
H16 C13 1_555 1_555
H17 C13 1_555 1_555
H18 C13 1_555 1_555
C14 N3 1_555 1_555
C15 C14 1_555 1_555
H19 C15 1_555 1_555
C16 C15 1_555 1_555
H20 C16 1_555 1_555
C17 C16 1_555 1_555
H21 C17 1_555 1_555
C18 C17 1_555 1_555
H22 C18 1_555 1_555
C19 N4 1_555 1_555
C20 C21 1_555 1_555
C21 H23 1_555 1_555
C22 C21 1_555 1_555
C23 C22 1_555 1_555
C24 C23 1_555 1_555
H24 C24 1_555 1_555
C25 C20 1_555 1_555
C26 C22 1_555 1_555
C27 C23 1_555 1_555
C28 C20 1_555 1_555
C29 O6 1_555 1_555
Zn1A O9 1_555 1_555
Zn1A_2 N3 1_555 1_555
Zn2_2 O5 1_555 1_555
Zn2A O3 1_555 1_555
O3A Zn2 1_555 1_555
N3A Zn1 1_555 1_555
O5_2 Zn2 1_555 1_555
O9A Zn1 1_555 1_555
C3 C8 1_555 1_555
O7 C29 1_555 1_555
C7 C8 1_555 1_555
C14 C19 1_555 1_555
C18 C19 1_555 1_555
C24 C25 1_555 1_555
C25 C29 1_555 1_555

#END
