
#######################################################################
#
#                 Cambridge Crystallographic Data Centre
#                                CCDC 
#
#######################################################################
#
# If this CIF has been generated from an entry in the Cambridge 
# Structural Database, then it will include bibliographic, chemical, 
# crystal, experimental, refinement or atomic coordinate data resulting 
# from the CCDC's data processing and validation procedures.
#
#######################################################################

data_YOVTIO
_symmetry_cell_setting           monoclinic
_symmetry_space_group_name_H-M   'P 21/n'
_symmetry_Int_Tables_number      14
_space_group_name_Hall           '-P 2yn'
loop_
_symmetry_equiv_pos_site_id
_symmetry_equiv_pos_as_xyz
1 x,y,z
2 1/2-x,1/2+y,1/2-z
3 -x,-y,-z
4 1/2+x,1/2-y,1/2+z
_cell_length_a                   16.7454(9)
_cell_length_b                   8.1590(5)
_cell_length_c                   20.5264(11)
_cell_angle_alpha                90
_cell_angle_beta                 96.7490(10)
_cell_angle_gamma                90
_cell_volume                     2785
loop_
_atom_site_label
_atom_site_type_symbol
_atom_site_fract_x
_atom_site_fract_y
_atom_site_fract_z
Ag1 Ag 0.064373(13) 0.94514(3) 0.905277(11)
N1 N 0.16998(14) 0.6011(3) 1.02024(12)
C1 C 0.16224(16) 1.2019(3) 1.09927(13)
O1 O 0.03300(11) 1.2202(3) 1.03829(10)
Ag2 Ag 0.082474(16) 0.77491(3) 1.049697(13)
N2 N 0.22849(16) 0.4185(3) 0.96153(12)
C2 C 0.23743(16) 1.1347(3) 1.10498(13)
H1 H 0.2499 1.0598 1.0735
O2 O 0.12478(12) 1.0536(3) 1.00275(10)
C3 C 0.29665(16) 1.1750(3) 1.15695(13)
O3 O 0.45510(12) 1.4001(3) 1.36154(9)
N3 N 0.34599(14) 0.3309(3) 0.65225(12)
N4 N 0.27989(16) 0.2600(3) 0.73574(13)
C4 C 0.37477(16) 1.1072(4) 1.16333(14)
H2 H 0.3879 1.0308 1.1327
O4 O 0.54880(12) 1.2986(3) 1.30488(11)
C5 C 0.43102(16) 1.1515(4) 1.21318(14)
H3 H 0.4821 1.1051 1.2162
C6 C 0.41302(16) 1.2672(3) 1.26059(13)
C7 C 0.33701(16) 1.3331(4) 1.25626(13)
H4 H 0.3247 1.4077 1.2878
C8 C 0.27721(16) 1.2897(3) 1.20490(13)
C9 C 0.19854(17) 1.3571(4) 1.19817(15)
H5 H 0.1847 1.4313 1.2293
C10 C 0.14315(17) 1.3156(4) 1.14728(15)
H6 H 0.0921 1.3622 1.1439
C11 C 0.47765(17) 1.3234(4) 1.31268(13)
C12 C 0.10152(16) 1.1547(4) 1.04227(13)
C13 C 0.3527(2) 0.2914(4) 0.71456(15)
C14 C 0.22186(19) 0.2828(3) 0.68245(15)
C15 C 0.26409(17) 0.3264(3) 0.63041(14)
C16 C 0.22379(19) 0.3588(4) 0.56890(15)
H7 H 0.2514 0.3876 0.5339
C17 C 0.1412(2) 0.3467(5) 0.56170(18)
H8 H 0.1125 0.3677 0.5210
C18 C 0.0999(2) 0.3034(5) 0.6142(2)
H9 H 0.0441 0.2967 0.6075
C19 C 0.1383(2) 0.2705(4) 0.67508(19)
H10 H 0.1102 0.2414 0.7098
C20 C 0.4306(2) 0.2826(5) 0.75743(18)
H11 H 0.4338 0.1808 0.7810
H12 H 0.4342 0.3721 0.7880
H13 H 0.4741 0.2891 0.7310
C21 C 0.15975(18) 0.5000(4) 0.96981(14)
C22 C 0.24970(18) 0.5850(4) 1.04679(15)
C23 C 0.2917(2) 0.6620(5) 1.10091(17)
H14 H 0.2667 0.7368 1.1261
C24 C 0.3714(3) 0.6227(6) 1.1154(2)
H15 H 0.4010 0.6723 1.1513
C25 C 0.4091(3) 0.5113(6) 1.0783(3)
H16 H 0.4633 0.4886 1.0897
C26 C 0.3683(2) 0.4332(5) 1.0249(2)
H17 H 0.3937 0.3583 1.0001
C27 C 0.28757(19) 0.4713(4) 1.00984(16)
C28 C 0.08385(19) 0.4776(4) 0.92602(16)
H18 H 0.0707 0.3631 0.9230
H19 H 0.0902 0.5190 0.8832
H20 H 0.0414 0.5361 0.9435
C29 C 0.2374(2) 0.2897(4) 0.91360(15)
H21 H 0.1881 0.2261 0.9073
H22 H 0.2804 0.2168 0.9311
C30 C 0.2556(2) 0.3538(4) 0.84737(16)
H23 H 0.2124 0.4250 0.8288
H24 H 0.3050 0.4171 0.8528
C31 C 0.2642(2) 0.2111(4) 0.80166(16)
H25 H 0.3079 0.1417 0.8207
H26 H 0.2153 0.1465 0.7982
Ag1A Ag 0.435627(13) 0.44514(3) 0.594723(11)
Ag1B Ag -0.064373(13) 1.05486(3) 1.094723(11)
Ag1C Ag 0.564373(13) 1.55486(3) 1.405277(11)
O1B O -0.03300(11) 0.7798(3) 0.96171(10)
Ag2A Ag 0.417526(16) 1.27491(3) 1.450303(13)
Ag2B Ag -0.082474(16) 1.22509(3) 0.950303(13)
O3A O 0.04490(12) 0.9001(3) 1.13846(9)
O3C O -0.04490(12) 1.0999(3) 0.86154(9)
N3A N 0.15401(14) 0.8309(3) 0.84775(12)
loop_
_geom_bond_atom_site_label_1
_geom_bond_atom_site_label_2
_geom_bond_site_symmetry_1
_geom_bond_site_symmetry_2
Ag1 O2 1_555 1_555
N1 Ag2 1_555 1_555
C1 C2 1_555 1_555
O1 C12 1_555 1_555
Ag2 O2 1_555 1_555
N2 C21 1_555 1_555
C2 H1 1_555 1_555
O2 C12 1_555 1_555
C3 C2 1_555 1_555
O3 C11 1_555 1_555
N3 C13 1_555 1_555
N4 C13 1_555 1_555
C4 C3 1_555 1_555
H2 C4 1_555 1_555
O4 C11 1_555 1_555
C5 C4 1_555 1_555
H3 C5 1_555 1_555
C6 C5 1_555 1_555
C7 C6 1_555 1_555
H4 C7 1_555 1_555
C8 C3 1_555 1_555
C9 C8 1_555 1_555
H5 C9 1_555 1_555
C10 C1 1_555 1_555
H6 C10 1_555 1_555
C11 C6 1_555 1_555
C12 C1 1_555 1_555
C13 C20 1_555 1_555
C14 N4 1_555 1_555
C15 N3 1_555 1_555
C16 C15 1_555 1_555
H7 C16 1_555 1_555
C17 C16 1_555 1_555
H8 C17 1_555 1_555
C18 C17 1_555 1_555
H9 C18 1_555 1_555
C19 C14 1_555 1_555
H10 C19 1_555 1_555
C20 H11 1_555 1_555
H12 C20 1_555 1_555
H13 C20 1_555 1_555
C21 N1 1_555 1_555
C22 N1 1_555 1_555
C23 C22 1_555 1_555
H14 C23 1_555 1_555
C24 C23 1_555 1_555
H15 C24 1_555 1_555
C25 C24 1_555 1_555
H16 C25 1_555 1_555
C26 C25 1_555 1_555
H17 C26 1_555 1_555
C27 N2 1_555 1_555
C28 C21 1_555 1_555
H18 C28 1_555 1_555
H19 C28 1_555 1_555
H20 C28 1_555 1_555
C29 N2 1_555 1_555
H21 C29 1_555 1_555
H22 C29 1_555 1_555
C30 C29 1_555 1_555
H23 C30 1_555 1_555
H24 C30 1_555 1_555
C31 N4 1_555 1_555
H25 C31 1_555 1_555
H26 C31 1_555 1_555
Ag1A N3 1_555 1_555
Ag1B O1 1_555 1_555
Ag1C O3 1_555 1_555
O1B Ag1 1_555 1_555
Ag2A O3 1_555 1_555
Ag2B O1 1_555 1_555
O3A Ag2 1_555 1_555
O3C Ag1 1_555 1_555
N3A Ag1 1_555 1_555
Ag2 O1B 1_555 1_555
C7 C8 1_555 1_555
C9 C10 1_555 1_555
C14 C15 1_555 1_555
C18 C19 1_555 1_555
C22 C27 1_555 1_555
C26 C27 1_555 1_555
C30 C31 1_555 1_555
Ag1B O3A 1_555 1_555
Ag2B O3C 1_555 1_555

#END
