
#######################################################################
#
#                 Cambridge Crystallographic Data Centre
#                                CCDC 
#
#######################################################################
#
# If this CIF has been generated from an entry in the Cambridge 
# Structural Database, then it will include bibliographic, chemical, 
# crystal, experimental, refinement or atomic coordinate data resulting 
# from the CCDC's data processing and validation procedures.
#
#######################################################################

data_YOVVIQ
_symmetry_cell_setting           monoclinic
_symmetry_space_group_name_H-M   'P 21/n'
_symmetry_Int_Tables_number      14
_space_group_name_Hall           '-P 2yn'
loop_
_symmetry_equiv_pos_site_id
_symmetry_equiv_pos_as_xyz
1 x,y,z
2 1/2-x,1/2+y,1/2-z
3 -x,-y,-z
4 1/2+x,1/2-y,1/2+z
_cell_length_a                   13.8342(9)
_cell_length_b                   20.8728(13)
_cell_length_c                   14.2205(9)
_cell_angle_alpha                90
_cell_angle_beta                 112.7790(10)
_cell_angle_gamma                90
_cell_volume                     3786.02
loop_
_atom_site_label
_atom_site_type_symbol
_atom_site_fract_x
_atom_site_fract_y
_atom_site_fract_z
Zn1 Zn 0.29707(2) 0.344932(13) 0.44725(2)
O1 O 0.33969(13) 0.25594(8) 0.44181(14)
C1 C -0.3046(2) 0.37608(14) 0.4444(2)
N1 N -0.32894(17) 0.35099(10) 0.51713(17)
Zn2 Zn 0.54139(2) 0.364011(13) 0.54662(2)
O2 O 0.50355(14) 0.27133(8) 0.55464(13)
N2 N -0.20760(18) 0.35762(11) 0.45152(19)
C2 C -0.2427(2) 0.31355(13) 0.5766(2)
N3 N 0.15297(15) 0.36236(10) 0.34627(15)
O3 O 0.19032(19) 0.29333(11) 0.59747(16)
C3 C -0.2245(2) 0.27899(14) 0.6645(2)
H1 H -0.2749 0.2765 0.6926
N4 N -0.01948(16) 0.35678(11) 0.26754(16)
O4 O 0.29907(17) 0.36626(11) 0.57936(15)
C4 C -0.1300(2) 0.24850(16) 0.7093(2)
H2 H -0.1164 0.2244 0.7680
C5 C -0.0539(3) 0.25320(17) 0.6680(3)
H3 H 0.0096 0.2321 0.7003
O5 O 0.41725(14) 0.61304(8) 1.30879(12)
C6 C -0.0695(2) 0.28792(15) 0.5808(2)
H4 H -0.0183 0.2911 0.5538
O6 O 0.41472(14) 0.52202(8) 1.38564(12)
O7 O 0.41434(13) 0.39097(8) 0.43848(13)
H5 H 0.411(2) 0.4304(5) 0.427(2)
C7 C -0.1664(2) 0.31788(13) 0.5360(2)
C8 C -0.3722(3) 0.4207(2) 0.3648(3)
H6 H -0.3927 0.4008 0.2990
H7 H -0.3341 0.4593 0.3660
H8 H -0.4336 0.4308 0.3778
C9 C -0.1581(2) 0.37218(15) 0.3801(2)
H9 H -0.0845 0.3816 0.4180
H10 H -0.1907 0.4099 0.3409
C10 C -0.1681(2) 0.31665(16) 0.3080(2)
H11 H -0.2414 0.3049 0.2754
H12 H -0.1306 0.2801 0.3475
C11 C -0.1263(2) 0.33081(16) 0.2260(2)
H13 H -0.1270 0.2917 0.1890
H14 H -0.1724 0.3613 0.1780
C12 C 0.07051(19) 0.32346(13) 0.31288(18)
C13 C 0.11383(19) 0.42431(12) 0.32169(19)
C14 C 0.1656(2) 0.48291(13) 0.3395(2)
H15 H 0.2381 0.4854 0.3733
C15 C 0.1057(3) 0.53672(16) 0.3055(3)
H16 H 0.1380 0.5766 0.3162
C16 C -0.0026(3) 0.53288(17) 0.2552(3)
H17 H -0.0406 0.5704 0.2320
C17 C -0.0552(2) 0.47596(17) 0.2386(3)
H18 H -0.1279 0.4741 0.2063
C18 C 0.0049(2) 0.42104(13) 0.2723(2)
C19 C 0.0757(2) 0.25297(13) 0.3222(2)
H19 H 0.1477 0.2398 0.3535
H20 H 0.0441 0.2340 0.2557
H21 H 0.0387 0.2393 0.3635
C20 C 0.3737(2) 0.12515(14) 0.4435(3)
H22 H 0.3070 0.1407 0.4049
C21 C 0.3930(2) 0.06060(14) 0.4446(3)
H23 H 0.3386 0.0334 0.4068
C22 C 0.48950(19) 0.03492(11) 0.4992(2)
C23 C 0.5677(2) 0.07751(12) 0.5555(2)
H24 H 0.6342 0.0620 0.5947
C24 C 0.5487(2) 0.14196(12) 0.5542(2)
H25 H 0.6027 0.1695 0.5918
C25 C 0.45103(19) 0.16676(11) 0.49834(18)
C26 C 0.4300(2) 0.23641(12) 0.49830(18)
C27 C 0.2730(2) 0.36789(13) 0.73148(19)
C28 C 0.3434(2) 0.41754(16) 0.7652(2)
H26 H 0.3778 0.4319 0.7245
C29 C 0.3640(2) 0.44654(16) 0.8585(2)
H27 H 0.4107 0.4807 0.8791
C30 C 0.31546(19) 0.42505(13) 0.92134(18)
C31 C 0.2454(2) 0.37450(13) 0.88812(19)
H28 H 0.2124 0.3593 0.9295
C32 C 0.2241(2) 0.34640(13) 0.7939(2)
H29 H 0.1764 0.3128 0.7724
C33 C 0.33746(19) 0.45732(12) 1.02080(18)
C34 C 0.3422(2) 0.42334(12) 1.10629(19)
H30 H 0.3308 0.3793 1.1014
C35 C 0.36377(19) 0.45371(12) 1.19864(18)
H31 H 0.3663 0.4299 1.2549
C36 C 0.38155(18) 0.51907(11) 1.20825(17)
C37 C 0.3764(2) 0.55355(13) 1.12321(19)
H32 H 0.3876 0.5976 1.1282
C38 C 0.3549(2) 0.52306(13) 1.0309(2)
H33 H 0.3519 0.5469 0.9747
C39 C 0.40578(17) 0.55248(12) 1.30796(18)
C40 C 0.2509(2) 0.33890(15) 0.6282(2)
O1B O 0.66031(13) -0.25594(8) 0.55819(14)
O2B O 0.49645(14) -0.27133(8) 0.44536(13)
C20B C 0.6263(2) -0.12515(14) 0.5565(3)
H22B H 0.6930 -0.1407 0.5951
C21B C 0.6070(2) -0.06060(14) 0.5554(3)
H23B H 0.6614 -0.0334 0.5932
C22B C 0.51050(19) -0.03492(11) 0.5008(2)
C23B C 0.4323(2) -0.07751(12) 0.4445(2)
H24B H 0.3658 -0.0620 0.4053
C24B C 0.4513(2) -0.14196(12) 0.4458(2)
H25B H 0.3973 -0.1695 0.4082
C25B C 0.54897(19) -0.16676(11) 0.50166(18)
C26B C 0.5700(2) -0.23641(12) 0.50170(18)
Zn1B Zn 0.70293(2) -0.344932(13) 0.55275(2)
C1B C 1.3046(2) -0.37608(14) 0.5556(2)
N1B N 1.32894(17) -0.35099(10) 0.48287(17)
Zn2B Zn 0.45861(2) -0.364011(13) 0.45338(2)
N2B N 1.20760(18) -0.35762(11) 0.54848(19)
C2B C 1.2427(2) -0.31355(13) 0.4234(2)
N3B N 0.84703(15) -0.36236(10) 0.65373(15)
O3B O 0.80968(19) -0.29333(11) 0.40253(16)
C3B C 1.2245(2) -0.27899(14) 0.3355(2)
H1B H 1.2749 -0.2765 0.3074
N4B N 1.01948(16) -0.35678(11) 0.73246(16)
O4B O 0.70093(17) -0.36626(11) 0.42064(15)
C4B C 1.1300(2) -0.24850(16) 0.2907(2)
H2B H 1.1164 -0.2244 0.2320
C5B C 1.0539(3) -0.25320(17) 0.3320(3)
H3B H 0.9904 -0.2321 0.2997
O5B O 0.58275(14) -0.61304(8) -0.30879(12)
C6B C 1.0695(2) -0.28792(15) 0.4192(2)
H4B H 1.0183 -0.2911 0.4462
O6B O 0.58528(14) -0.52202(8) -0.38564(12)
O7B O 0.58566(13) -0.39097(8) 0.56152(13)
H5B H 0.589(2) -0.4304(5) 0.573(2)
C7B C 1.1664(2) -0.31788(13) 0.4640(2)
C8B C 1.3722(3) -0.4207(2) 0.6352(3)
H6B H 1.3927 -0.4008 0.7010
H7B H 1.3341 -0.4593 0.6340
H8B H 1.4336 -0.4308 0.6222
C9B C 1.1581(2) -0.37218(15) 0.6199(2)
H9B H 1.0845 -0.3816 0.5820
H10B H 1.1907 -0.4099 0.6591
C10B C 1.1681(2) -0.31665(16) 0.6920(2)
H11B H 1.2414 -0.3049 0.7246
H12B H 1.1306 -0.2801 0.6525
C11B C 1.1263(2) -0.33081(16) 0.7740(2)
H13B H 1.1270 -0.2917 0.8110
H14B H 1.1724 -0.3613 0.8220
C12B C 0.92949(19) -0.32346(13) 0.68712(18)
C13B C 0.88617(19) -0.42431(12) 0.67831(19)
C14B C 0.8344(2) -0.48291(13) 0.6605(2)
H15B H 0.7619 -0.4854 0.6267
C15B C 0.8943(3) -0.53672(16) 0.6945(3)
H16B H 0.8620 -0.5766 0.6838
C16B C 1.0026(3) -0.53288(17) 0.7448(3)
H17B H 1.0406 -0.5704 0.7680
C17B C 1.0552(2) -0.47596(17) 0.7614(3)
H18B H 1.1279 -0.4741 0.7937
C18B C 0.9951(2) -0.42104(13) 0.7277(2)
C19B C 0.9243(2) -0.25297(13) 0.6778(2)
H19B H 0.8523 -0.2398 0.6465
H20B H 0.9559 -0.2340 0.7443
H21B H 0.9613 -0.2393 0.6365
C27B C 0.7270(2) -0.36789(13) 0.26852(19)
C28B C 0.6566(2) -0.41754(16) 0.2348(2)
H26B H 0.6222 -0.4319 0.2755
C29B C 0.6360(2) -0.44654(16) 0.1415(2)
H27B H 0.5893 -0.4807 0.1209
C30B C 0.68454(19) -0.42505(13) 0.07866(18)
C31B C 0.7546(2) -0.37450(13) 0.11188(19)
H28B H 0.7876 -0.3593 0.0705
C32B C 0.7759(2) -0.34640(13) 0.2061(2)
H29B H 0.8236 -0.3128 0.2276
C33B C 0.66254(19) -0.45732(12) -0.02080(18)
C34B C 0.6578(2) -0.42334(12) -0.10629(19)
H30B H 0.6692 -0.3793 -0.1014
C35B C 0.63623(19) -0.45371(12) -0.19864(18)
H31B H 0.6337 -0.4299 -0.2549
C36B C 0.61845(18) -0.51907(11) -0.20825(17)
C37B C 0.6236(2) -0.55355(13) -0.12321(19)
H32B H 0.6124 -0.5976 -0.1282
C38B C 0.6451(2) -0.52306(13) -0.0309(2)
H33B H 0.6481 -0.5469 0.0253
C39B C 0.59422(17) -0.55248(12) -0.30796(18)
C40B C 0.7491(2) -0.33890(15) 0.3718(2)
N1_2 N 0.67106(17) 0.35099(10) 0.51713(17)
N1B_2 N 0.32894(17) -0.35099(10) 0.48287(17)
Zn2_2 Zn -0.45861(2) 0.364011(13) 0.54662(2)
Zn2_3 Zn 0.54139(2) -0.635989(13) -0.45338(2)
Zn2B_2 Zn 0.45861(2) 0.635989(13) 1.45338(2)
Zn2B_3 Zn 1.45861(2) -0.364011(13) 0.45338(2)
O5_2 O 0.41725(14) -0.38696(8) 0.30879(12)
O5B_2 O 0.58275(14) 0.38696(8) 0.69121(12)
O6_2 O 0.41472(14) -0.47798(8) 0.38564(12)
O6B_2 O 0.58528(14) 0.47798(8) 0.61436(12)
loop_
_geom_bond_atom_site_label_1
_geom_bond_atom_site_label_2
_geom_bond_site_symmetry_1
_geom_bond_site_symmetry_2
Zn1 O1 1_555 1_555
O1 C26 1_555 1_555
C1 N1 1_555 1_555
N1 C2 1_555 1_555
Zn2 O2 1_555 1_555
O2 C26 1_555 1_555
N2 C1 1_555 1_555
C2 C3 1_555 1_555
N3 Zn1 1_555 1_555
O3 C40 1_555 1_555
C3 H1 1_555 1_555
N4 C11 1_555 1_555
O4 Zn1 1_555 1_555
C4 C3 1_555 1_555
H2 C4 1_555 1_555
C5 C4 1_555 1_555
H3 C5 1_555 1_555
O5 C39 1_555 1_555
C6 C5 1_555 1_555
H4 C6 1_555 1_555
O6 C39 1_555 1_555
O7 Zn1 1_555 1_555
H5 O7 1_555 1_555
C7 N2 1_555 1_555
C8 C1 1_555 1_555
H6 C8 1_555 1_555
H7 C8 1_555 1_555
H8 C8 1_555 1_555
C9 N2 1_555 1_555
H9 C9 1_555 1_555
H10 C9 1_555 1_555
C10 C9 1_555 1_555
H11 C10 1_555 1_555
H12 C10 1_555 1_555
C11 C10 1_555 1_555
H13 C11 1_555 1_555
H14 C11 1_555 1_555
C12 N3 1_555 1_555
C13 N3 1_555 1_555
C14 C13 1_555 1_555
H15 C14 1_555 1_555
C15 C14 1_555 1_555
H16 C15 1_555 1_555
C16 C15 1_555 1_555
H17 C16 1_555 1_555
C17 C16 1_555 1_555
H18 C17 1_555 1_555
C18 N4 1_555 1_555
C19 C12 1_555 1_555
H19 C19 1_555 1_555
H20 C19 1_555 1_555
H21 C19 1_555 1_555
C20 H22 1_555 1_555
C21 C20 1_555 1_555
H23 C21 1_555 1_555
C22 C21 1_555 1_555
C23 C22 1_555 1_555
H24 C23 1_555 1_555
C24 C23 1_555 1_555
H25 C24 1_555 1_555
C25 C20 1_555 1_555
C26 C25 1_555 1_555
C27 C28 1_555 1_555
C28 H26 1_555 1_555
C29 C28 1_555 1_555
H27 C29 1_555 1_555
C30 C29 1_555 1_555
C31 C30 1_555 1_555
H28 C31 1_555 1_555
C32 C27 1_555 1_555
H29 C32 1_555 1_555
C33 C30 1_555 1_555
C34 C33 1_555 1_555
H30 C34 1_555 1_555
C35 C34 1_555 1_555
H31 C35 1_555 1_555
C36 C35 1_555 1_555
C37 C36 1_555 1_555
H32 C37 1_555 1_555
C38 C33 1_555 1_555
H33 C38 1_555 1_555
C39 C36 1_555 1_555
C40 O4 1_555 1_555
O1B C26B 1_555 1_555
O2B C26B 1_555 1_555
C20B H22B 1_555 1_555
C21B C20B 1_555 1_555
H23B C21B 1_555 1_555
C22B C22 1_555 1_555
C23B C22B 1_555 1_555
H24B C23B 1_555 1_555
C24B C23B 1_555 1_555
H25B C24B 1_555 1_555
C25B C20B 1_555 1_555
C26B C25B 1_555 1_555
Zn1B O1B 1_555 1_555
C1B N1B 1_555 1_555
N1B C2B 1_555 1_555
Zn2B O2B 1_555 1_555
N2B C1B 1_555 1_555
C2B C3B 1_555 1_555
N3B Zn1B 1_555 1_555
O3B C40B 1_555 1_555
C3B H1B 1_555 1_555
N4B C11B 1_555 1_555
O4B Zn1B 1_555 1_555
C4B C3B 1_555 1_555
H2B C4B 1_555 1_555
C5B C4B 1_555 1_555
H3B C5B 1_555 1_555
O5B C39B 1_555 1_555
C6B C5B 1_555 1_555
H4B C6B 1_555 1_555
O6B C39B 1_555 1_555
O7B Zn1B 1_555 1_555
H5B O7B 1_555 1_555
C7B N2B 1_555 1_555
C8B C1B 1_555 1_555
H6B C8B 1_555 1_555
H7B C8B 1_555 1_555
H8B C8B 1_555 1_555
C9B N2B 1_555 1_555
H9B C9B 1_555 1_555
H10B C9B 1_555 1_555
C10B C9B 1_555 1_555
H11B C10B 1_555 1_555
H12B C10B 1_555 1_555
C11B C10B 1_555 1_555
H13B C11B 1_555 1_555
H14B C11B 1_555 1_555
C12B N3B 1_555 1_555
C13B N3B 1_555 1_555
C14B C13B 1_555 1_555
H15B C14B 1_555 1_555
C15B C14B 1_555 1_555
H16B C15B 1_555 1_555
C16B C15B 1_555 1_555
H17B C16B 1_555 1_555
C17B C16B 1_555 1_555
H18B C17B 1_555 1_555
C18B N4B 1_555 1_555
C19B C12B 1_555 1_555
H19B C19B 1_555 1_555
H20B C19B 1_555 1_555
H21B C19B 1_555 1_555
C27B C28B 1_555 1_555
C28B H26B 1_555 1_555
C29B C28B 1_555 1_555
H27B C29B 1_555 1_555
C30B C29B 1_555 1_555
C31B C30B 1_555 1_555
H28B C31B 1_555 1_555
C32B C27B 1_555 1_555
H29B C32B 1_555 1_555
C33B C30B 1_555 1_555
C34B C33B 1_555 1_555
H30B C34B 1_555 1_555
C35B C34B 1_555 1_555
H31B C35B 1_555 1_555
C36B C35B 1_555 1_555
C37B C36B 1_555 1_555
H32B C37B 1_555 1_555
C38B C33B 1_555 1_555
H33B C38B 1_555 1_555
C39B C36B 1_555 1_555
C40B O4B 1_555 1_555
N1_2 Zn2 1_555 1_555
N1B_2 Zn2B 1_555 1_555
Zn2_2 N1 1_555 1_555
Zn2_3 O5B 1_555 1_555
Zn2B_2 O5 1_555 1_555
Zn2B_3 N1B 1_555 1_555
O5_2 Zn2B 1_555 1_555
O5B_2 Zn2 1_555 1_555
O6_2 Zn2B 1_555 1_555
O6B_2 Zn2 1_555 1_555
Zn2 O7 1_555 1_555
C2 C7 1_555 1_555
N4 C12 1_555 1_555
C6 C7 1_555 1_555
O6 Zn2B_2 1_555 1_555
C13 C18 1_555 1_555
C17 C18 1_555 1_555
C24 C25 1_555 1_555
C27 C40 1_555 1_555
C31 C32 1_555 1_555
C37 C38 1_555 1_555
C21B C22B 1_555 1_555
C24B C25B 1_555 1_555
Zn2B O7B 1_555 1_555
C2B C7B 1_555 1_555
N4B C12B 1_555 1_555
C6B C7B 1_555 1_555
O6B Zn2_3 1_555 1_555
C13B C18B 1_555 1_555
C17B C18B 1_555 1_555
C27B C40B 1_555 1_555
C31B C32B 1_555 1_555
C37B C38B 1_555 1_555

#END
