
#######################################################################
#
#                 Cambridge Crystallographic Data Centre
#                                CCDC 
#
#######################################################################
#
# If this CIF has been generated from an entry in the Cambridge 
# Structural Database, then it will include bibliographic, chemical, 
# crystal, experimental, refinement or atomic coordinate data resulting 
# from the CCDC's data processing and validation procedures.
#
#######################################################################

data_YOVVAI
_symmetry_cell_setting           triclinic
_symmetry_space_group_name_H-M   'P -1'
_symmetry_Int_Tables_number      2
_space_group_name_Hall           '-P 1'
loop_
_symmetry_equiv_pos_site_id
_symmetry_equiv_pos_as_xyz
1 x,y,z
2 -x,-y,-z
_cell_length_a                   10.931(2)
_cell_length_b                   11.727(2)
_cell_length_c                   11.928(2)
_cell_angle_alpha                98.983(3)
_cell_angle_beta                 101.005(2)
_cell_angle_gamma                115.316(3)
_cell_volume                     1307.15
loop_
_atom_site_label
_atom_site_type_symbol
_atom_site_fract_x
_atom_site_fract_y
_atom_site_fract_z
Cd1 Cd 0.03964(6) 0.34130(5) 0.82398(5)
O1 O 0.0419(6) 0.5481(5) 0.8586(5)
H1 H 0.117(4) 0.621(3) 0.886(5)
O2 O 0.2967(5) 0.4898(5) 0.9330(4)
N1 N 0.5270(7) 0.8939(6) 1.3611(6)
C1 C 0.4965(8) 0.7596(7) 1.3062(6)
O3 O 0.1375(5) 0.4145(4) 1.0325(4)
N2 N 0.0903(6) 0.3805(5) 0.6525(5)
C2 C 0.5910(8) 0.7191(8) 1.3518(7)
H2 H 0.6661 0.7720 1.4194
O4 O 0.2415(6) 0.7316(5) 1.0612(5)
N3 N 0.0725(6) 0.3576(5) 0.4630(5)
C3 C 0.5731(8) 0.5989(9) 1.2961(7)
H3 H 0.6316 0.5666 1.3289
O5 O 0.4775(6) 0.9488(5) 1.3030(5)
C4 C 0.4680(8) 0.5272(7) 1.1915(7)
H4 H 0.4602 0.4488 1.1508
N4 N -0.0324(6) -0.1403(5) 0.1718(5)
N5 N 0.0464(6) 0.0678(5) 0.1665(5)
C5 C 0.3735(7) 0.5691(7) 1.1455(6)
O6 O 0.6055(7) 0.9481(6) 1.4621(5)
C6 C 0.3824(7) 0.6852(6) 1.2055(6)
O7 O 0.1942(5) 0.7171(5) 1.2307(4)
C7 C 0.2639(7) 0.7165(6) 1.1617(6)
C8 C 0.2614(7) 0.4848(6) 1.0287(7)
C9 C 0.0376(7) 0.2985(6) 0.5462(6)
C10 C 0.1588(7) 0.4901(6) 0.5181(6)
C11 C 0.2273(8) 0.5962(7) 0.4700(7)
H5 H 0.2179 0.5845 0.3893
C12 C 0.3090(9) 0.7182(8) 0.5513(7)
H6 H 0.3551 0.7920 0.5257
C13 C 0.3218(9) 0.7295(7) 0.6765(7)
H7 H 0.3774 0.8113 0.7307
C14 C 0.2566(8) 0.6268(7) 0.7152(7)
H8 H 0.2678 0.6358 0.7958
C15 C 0.1713(7) 0.5055(6) 0.6344(6)
C16 C -0.0536(9) 0.1538(7) 0.5234(7)
H9 H -0.1496 0.1354 0.5163
H10 H -0.0206 0.1249 0.5881
H11 H -0.0488 0.1087 0.4513
C17 C 0.0470(8) 0.2970(7) 0.3351(6)
H12 H 0.0241 0.3492 0.2876
H13 H -0.0336 0.2101 0.3107
C18 C 0.1731(8) 0.2872(7) 0.3118(6)
H14 H 0.2063 0.2492 0.3694
H15 H 0.2484 0.3746 0.3229
C19 C 0.1422(9) 0.2059(7) 0.1892(6)
H16 H 0.1022 0.2403 0.1320
H17 H 0.2307 0.2155 0.1763
C20 C 0.0811(8) -0.0233(6) 0.1982(6)
C21 C 0.2274(8) 0.0053(7) 0.2538(7)
H18 H 0.2269 -0.0703 0.2754
H19 H 0.2687 0.0776 0.3234
H20 H 0.2817 0.0274 0.1987
C22 C -0.0981(8) 0.0072(7) 0.1151(6)
C23 C -0.1870(9) 0.0546(8) 0.0662(7)
H21 H -0.1529 0.1409 0.0623
C24 C -0.3271(10) -0.0338(9) 0.0243(7)
H22 H -0.3896 -0.0068 -0.0115
C25 C -0.3817(9) -0.1632(8) 0.0325(7)
H23 H -0.4786 -0.2185 0.0047
C26 C -0.2935(8) -0.2096(7) 0.0814(7)
H24 H -0.3287 -0.2951 0.0880
C27 C -0.1477(8) -0.1219(7) 0.1208(6)
H25 H -0.014(6) 0.545(7) 0.900(6)
Cd1A Cd -0.03964(6) -0.34130(5) 0.17602(5)
Cd1A_2 Cd -0.03964(6) 0.65870(5) 1.17602(5)
N4A N 0.0324(6) 0.1403(5) 0.8282(5)
O7A O -0.1942(5) 0.2829(5) 0.7693(4)
loop_
_geom_bond_atom_site_label_1
_geom_bond_atom_site_label_2
_geom_bond_site_symmetry_1
_geom_bond_site_symmetry_2
Cd1 O1 1_555 1_555
O1 H1 1_555 1_555
O2 Cd1 1_555 1_555
N1 C1 1_555 1_555
C1 C2 1_555 1_555
O3 Cd1 1_555 1_555
N2 Cd1 1_555 1_555
C2 H2 1_555 1_555
O4 C7 1_555 1_555
N3 C9 1_555 1_555
C3 C2 1_555 1_555
H3 C3 1_555 1_555
O5 N1 1_555 1_555
C4 C3 1_555 1_555
H4 C4 1_555 1_555
N4 C20 1_555 1_555
N5 C19 1_555 1_555
C5 C4 1_555 1_555
O6 N1 1_555 1_555
C6 C1 1_555 1_555
O7 C7 1_555 1_555
C7 C6 1_555 1_555
C8 O2 1_555 1_555
C9 N2 1_555 1_555
C10 N3 1_555 1_555
C11 C10 1_555 1_555
H5 C11 1_555 1_555
C12 C11 1_555 1_555
H6 C12 1_555 1_555
C13 C12 1_555 1_555
H7 C13 1_555 1_555
C14 C13 1_555 1_555
H8 C14 1_555 1_555
C15 N2 1_555 1_555
C16 C9 1_555 1_555
H9 C16 1_555 1_555
H10 C16 1_555 1_555
H11 C16 1_555 1_555
C17 N3 1_555 1_555
H12 C17 1_555 1_555
H13 C17 1_555 1_555
C18 C17 1_555 1_555
H14 C18 1_555 1_555
H15 C18 1_555 1_555
C19 C18 1_555 1_555
H16 C19 1_555 1_555
H17 C19 1_555 1_555
C20 N5 1_555 1_555
C21 C20 1_555 1_555
H18 C21 1_555 1_555
H19 C21 1_555 1_555
H20 C21 1_555 1_555
C22 N5 1_555 1_555
C23 C22 1_555 1_555
H21 C23 1_555 1_555
C24 C23 1_555 1_555
H22 C24 1_555 1_555
C25 C24 1_555 1_555
H23 C25 1_555 1_555
C26 C25 1_555 1_555
H24 C26 1_555 1_555
C27 N4 1_555 1_555
H25 O1 1_555 1_555
Cd1A N4 1_555 1_555
Cd1A_2 O7 1_555 1_555
N4A Cd1 1_555 1_555
O7A Cd1 1_555 1_555
O3 C8 1_555 1_555
C5 C6 1_555 1_555
C5 C8 1_555 1_555
C10 C15 1_555 1_555
C14 C15 1_555 1_555
C22 C27 1_555 1_555
C26 C27 1_555 1_555

#END
