
#######################################################################
#
#                 Cambridge Crystallographic Data Centre
#                                CCDC 
#
#######################################################################
#
# If this CIF has been generated from an entry in the Cambridge 
# Structural Database, then it will include bibliographic, chemical, 
# crystal, experimental, refinement or atomic coordinate data resulting 
# from the CCDC's data processing and validation procedures.
#
#######################################################################

data_YOVXEO
_symmetry_cell_setting           orthorhombic
_symmetry_space_group_name_H-M   'P n a 21'
_symmetry_Int_Tables_number      33
_space_group_name_Hall           'P 2c -2n'
loop_
_symmetry_equiv_pos_site_id
_symmetry_equiv_pos_as_xyz
1 x,y,z
2 -x,-y,1/2+z
3 1/2+x,1/2-y,z
4 1/2-x,1/2+y,1/2+z
_cell_length_a                   23.8620(6)
_cell_length_b                   8.59300(10)
_cell_length_c                   19.0584(5)
_cell_angle_alpha                90
_cell_angle_beta                 90
_cell_angle_gamma                90
_cell_volume                     3907.85
loop_
_atom_site_label
_atom_site_type_symbol
_atom_site_fract_x
_atom_site_fract_y
_atom_site_fract_z
Co1 Co 0.34376(5) -0.30267(11) 0.48375(7)
P1 P 0.59872(8) 1.4734(2) 0.13466(11)
N1 N 0.4030(2) -0.1198(6) 0.4823(4)
N2 N 0.5847(2) 0.1568(5) 0.4724(3)
N3 N 0.7797(2) -0.0264(6) 0.4822(4)
N4 N 0.2589(3) -0.0998(7) 0.5108(4)
N5 N 0.3779(3) -0.3889(9) 0.3563(4)
C1 C 0.3908(3) 0.0277(9) 0.4647(6)
H1 H 0.3530 0.0537 0.4545
C2 C 0.4314(3) 0.1442(8) 0.4606(5)
H2 H 0.4208 0.2484 0.4505
C3 C 0.4864(3) 0.1071(7) 0.4715(4)
C4 C 0.4992(3) -0.0462(7) 0.4907(4)
H3 H 0.5367 -0.0752 0.5015
C5 C 0.4571(3) -0.1529(7) 0.4937(5)
H4 H 0.4666 -0.2575 0.5044
C6 C 0.5344(3) 0.2184(7) 0.4612(4)
C7 C 0.5278(3) 0.3703(7) 0.4371(4)
H5 H 0.4914 0.4121 0.4305
C8 C 0.5743(3) 0.4598(7) 0.4229(4)
C9 C 0.6264(3) 0.3934(8) 0.4313(4)
H6 H 0.6593 0.4496 0.4192
C10 C 0.6302(3) 0.2419(8) 0.4580(4)
C11 C 0.6844(3) 0.1612(7) 0.4686(4)
C12 C 0.7305(3) 0.1819(8) 0.4269(5)
H7 H 0.7304 0.2620 0.3925
C13 C 0.7765(3) 0.0895(8) 0.4339(5)
H8 H 0.8077 0.1069 0.4039
C14 C 0.7362(3) -0.0400(8) 0.5251(5)
H9 H 0.7384 -0.1140 0.5621
C15 C 0.6883(3) 0.0463(8) 0.5193(4)
H10 H 0.6577 0.0275 0.5501
C16 C 0.5715(3) 0.6217(7) 0.3934(4)
C17 C 0.5251(3) 0.6715(7) 0.3565(4)
H11 H 0.4927 0.6074 0.3538
C18 C 0.5257(3) 0.8179(7) 0.3227(4)
H12 H 0.4936 0.8523 0.2978
C19 C 0.5721(3) 0.9100(7) 0.3256(4)
C20 C 0.6174(3) 0.8635(8) 0.3647(5)
H13 H 0.6497 0.9280 0.3670
C21 C 0.6165(3) 0.7224(7) 0.4010(4)
H14 H 0.6468 0.6953 0.4310
C22 C 0.5765(3) 1.0545(8) 0.2817(4)
C23 C 0.5355(3) 1.1653(7) 0.2798(4)
H15 H 0.5029 1.1527 0.3079
C24 C 0.5407(3) 1.2974(8) 0.2372(4)
H16 H 0.5125 1.3753 0.2377
C25 C 0.5883(3) 1.3143(8) 0.1931(4)
C26 C 0.6279(3) 1.1965(8) 0.1955(5)
H17 H 0.6595 1.2033 0.1653
C27 C 0.6238(3) 1.0709(8) 0.2393(5)
H18 H 0.6529 0.9954 0.2408
C28 C 0.5348(3) 1.5870(9) 0.1329(4)
C29 C 0.4847(4) 1.5162(10) 0.1164(5)
H19 H 0.4846 1.4099 0.1026
C30 C 0.4349(4) 1.5961(11) 0.1193(5)
H20 H 0.4005 1.5447 0.1095
C31 C 0.4355(5) 1.7543(12) 0.1369(5)
H21 H 0.4014 1.8112 0.1387
C32 C 0.4851(4) 1.8270(11) 0.1514(5)
H22 H 0.4852 1.9348 0.1624
C33 C 0.5347(4) 1.7469(9) 0.1501(5)
H23 H 0.5688 1.7986 0.1608
C34 C 0.6554(4) 1.5896(8) 0.1705(4)
C35 C 0.6814(4) 1.6956(8) 0.1280(5)
H24 H 0.6680 1.7134 0.0818
C36 C 0.7282(4) 1.7781(9) 0.1531(5)
H25 H 0.7479 1.8480 0.1234
C37 C 0.7454(4) 1.7552(10) 0.2231(6)
H26 H 0.7762 1.8128 0.2412
C38 C 0.7184(4) 1.6515(11) 0.2649(6)
H27 H 0.7313 1.6348 0.3114
C39 C 0.6719(4) 1.5689(9) 0.2403(5)
H28 H 0.6520 1.5001 0.2703
O1 O 0.6136(2) 1.4194(6) 0.0633(3)
O2 O 0.3948(2) -0.4451(7) 0.4126(3)
O3 O 0.3425(3) -0.2749(9) 0.3636(5)
O4 O 0.3944(3) -0.4322(11) 0.2992(4)
O5 O 0.2951(2) -0.1550(6) 0.5525(4)
O6 O 0.2185(3) -0.0287(8) 0.5360(5)
O7 O 0.2629(3) -0.1215(9) 0.4480(4)
Co1A Co 0.65624(5) 1.30267(11) -0.01625(7)
Co1B Co 0.84376(5) -0.19733(11) 0.48375(7)
N3B N 0.2797(2) -0.4736(6) 0.4822(4)
O1A O 0.3864(2) -0.4194(6) 0.5633(3)
C40 C 0.1443(5) 0.7438(14) 0.7279(8)
H29 H 0.1235 0.8330 0.7493
Cl1 Cl 0.21290(19) 0.7976(5) 0.7155(3)
Cl2 Cl 0.1407(2) 0.5826(7) 0.7854(3)
Cl3 Cl 0.11167(16) 0.6915(3) 0.6502(2)
loop_
_geom_bond_atom_site_label_1
_geom_bond_atom_site_label_2
_geom_bond_site_symmetry_1
_geom_bond_site_symmetry_2
Co1 N1 1_555 1_555
P1 C25 1_555 1_555
N1 C1 1_555 1_555
N2 C6 1_555 1_555
N3 C13 1_555 1_555
N4 O5 1_555 1_555
N5 O2 1_555 1_555
C1 H1 1_555 1_555
C2 C1 1_555 1_555
H2 C2 1_555 1_555
C3 C2 1_555 1_555
C4 C3 1_555 1_555
H3 C4 1_555 1_555
C5 N1 1_555 1_555
H4 C5 1_555 1_555
C6 C3 1_555 1_555
C7 C6 1_555 1_555
H5 C7 1_555 1_555
C8 C7 1_555 1_555
C9 C8 1_555 1_555
H6 C9 1_555 1_555
C10 N2 1_555 1_555
C11 C10 1_555 1_555
C12 C11 1_555 1_555
H7 C12 1_555 1_555
C13 C12 1_555 1_555
H8 C13 1_555 1_555
C14 N3 1_555 1_555
H9 C14 1_555 1_555
C15 C11 1_555 1_555
H10 C15 1_555 1_555
C16 C8 1_555 1_555
C17 C16 1_555 1_555
H11 C17 1_555 1_555
C18 C17 1_555 1_555
H12 C18 1_555 1_555
C19 C18 1_555 1_555
C20 C19 1_555 1_555
H13 C20 1_555 1_555
C21 C16 1_555 1_555
H14 C21 1_555 1_555
C22 C19 1_555 1_555
C23 C22 1_555 1_555
H15 C23 1_555 1_555
C24 C23 1_555 1_555
H16 C24 1_555 1_555
C25 C24 1_555 1_555
C26 C25 1_555 1_555
H17 C26 1_555 1_555
C27 C22 1_555 1_555
H18 C27 1_555 1_555
C28 P1 1_555 1_555
C29 C28 1_555 1_555
H19 C29 1_555 1_555
C30 C29 1_555 1_555
H20 C30 1_555 1_555
C31 C30 1_555 1_555
H21 C31 1_555 1_555
C32 C31 1_555 1_555
H22 C32 1_555 1_555
C33 C28 1_555 1_555
H23 C33 1_555 1_555
C34 P1 1_555 1_555
C35 C34 1_555 1_555
H24 C35 1_555 1_555
C36 C35 1_555 1_555
H25 C36 1_555 1_555
C37 C36 1_555 1_555
H26 C37 1_555 1_555
C38 C37 1_555 1_555
H27 C38 1_555 1_555
C39 C34 1_555 1_555
H28 C39 1_555 1_555
O1 P1 1_555 1_555
O2 Co1 1_555 1_555
O3 Co1 1_555 1_555
O4 N5 1_555 1_555
O5 Co1 1_555 1_555
O6 N4 1_555 1_555
O7 N4 1_555 1_555
C40 H29 1_555 1_555
Cl1 C40 1_555 1_555
Cl2 C40 1_555 1_555
Cl3 C40 1_555 1_555
Co1A O1 1_555 1_555
Co1B N3 1_555 1_555
N3B Co1 1_555 1_555
O1A Co1 1_555 1_555
N5 O3 1_555 1_555
C4 C5 1_555 1_555
C9 C10 1_555 1_555
C14 C15 1_555 1_555
C20 C21 1_555 1_555
C26 C27 1_555 1_555
C32 C33 1_555 1_555
C38 C39 1_555 1_555

#END
