
#######################################################################
#
#                 Cambridge Crystallographic Data Centre
#                                CCDC 
#
#######################################################################
#
# If this CIF has been generated from an entry in the Cambridge 
# Structural Database, then it will include bibliographic, chemical, 
# crystal, experimental, refinement or atomic coordinate data resulting 
# from the CCDC's data processing and validation procedures.
#
#######################################################################

data_YOVYIS
_symmetry_cell_setting           monoclinic
_symmetry_space_group_name_H-M   'P 21/c'
_symmetry_Int_Tables_number      14
_space_group_name_Hall           '-P 2ybc'
loop_
_symmetry_equiv_pos_site_id
_symmetry_equiv_pos_as_xyz
1 x,y,z
2 -x,1/2+y,1/2-z
3 -x,-y,-z
4 x,1/2-y,1/2+z
_cell_length_a                   12.3050(11)
_cell_length_b                   9.7196(9)
_cell_length_c                   19.4917(16)
_cell_angle_alpha                90
_cell_angle_beta                 105.126(2)
_cell_angle_gamma                90
_cell_volume                     2250.43
loop_
_atom_site_label
_atom_site_type_symbol
_atom_site_fract_x
_atom_site_fract_y
_atom_site_fract_z
C1 C 0.88014(18) 0.8298(2) 0.20846(12)
H1 H 0.8793 0.7710 0.2460
C2 C 0.96785(18) 0.9211(3) 0.21325(13)
H2 H 1.0248 0.9223 0.2554
C3 C 0.89347(19) 1.0027(2) 0.10279(13)
H3 H 0.8976 1.0608 0.0657
C4 C 0.80115(19) 0.9170(2) 0.09281(12)
H4 H 0.7448 0.9193 0.0504
C5 C 0.79326(16) 0.8275(2) 0.14657(11)
C6 C 0.69280(16) 0.7359(2) 0.13650(10)
C7 C 0.56783(16) 0.48566(19) 0.21194(10)
H5 H 0.4993 0.4413 0.1943
C8 C 0.62965(15) 0.44086(19) 0.28275(9)
C9 C 0.57469(16) 0.34376(19) 0.31419(10)
H6 H 0.5036 0.3148 0.2886
C10 C 0.72068(18) 0.3313(2) 0.41393(11)
H7 H 0.7523 0.2946 0.4588
C11 C 0.78235(18) 0.4257(2) 0.38727(11)
H8 H 0.8540 0.4508 0.4136
C12 C 0.73719(17) 0.4829(2) 0.32115(11)
H9 H 0.7772 0.5479 0.3025
C13 C 0.10366(18) 0.4182(2) -0.05238(11)
H10 H 0.1069 0.4716 -0.0914
C14 C 0.0097(2) 0.3403(3) -0.05367(14)
H11 H -0.0493 0.3427 -0.0947
C15 C 0.0835(2) 0.2611(2) 0.05752(13)
H12 H 0.0770 0.2081 0.0959
C16 C 0.18201(19) 0.3343(2) 0.06420(12)
H13 H 0.2398 0.3290 0.1058
C17 C 0.19352(16) 0.4158(2) 0.00800(10)
C18 C 0.29708(16) 0.49921(19) 0.01516(10)
C19 C 0.42269(17) 0.7449(2) -0.06290(10)
H14 H 0.4923 0.7876 -0.0463
C20 C 0.35867(17) 0.7920(2) -0.13265(10)
C21 C 0.4097(2) 0.8922(2) -0.16402(12)
H15 H 0.4809 0.9216 -0.1390
C22 C 0.2640(2) 0.9068(2) -0.26121(12)
H16 H 0.2309 0.9450 -0.3055
C23 C 0.2044(2) 0.8091(2) -0.23550(11)
H17 H 0.1329 0.7832 -0.2618
C24 C 0.25161(18) 0.7494(2) -0.17017(11)
H18 H 0.2129 0.6827 -0.1518
Cu1 Cu 0.489512(19) 0.62744(2) 0.078332(11)
N1 N 0.97672(15) 1.0075(2) 0.16193(12)
N2 N 0.69147(14) 0.64922(17) 0.18864(9)
N3 N 0.59092(13) 0.57523(17) 0.16952(8)
N4 N 0.61722(13) 0.28934(17) 0.37861(8)
N5 N -0.00240(17) 0.2617(2) -0.00021(11)
N6 N 0.29997(14) 0.58239(17) -0.03813(8)
N7 N 0.40057(14) 0.65516(17) -0.02005(8)
N8 N 0.36530(17) 0.9498(2) -0.22701(10)
O1 O 0.61534(11) 0.74880(15) 0.07849(7)
O2 O 0.37428(11) 0.48704(14) 0.07339(7)
Cu1A Cu 0.510488(19) 0.12744(2) 0.421668(11)
N4A N 0.38278(13) 0.78934(17) 0.12139(8)
loop_
_geom_bond_atom_site_label_1
_geom_bond_atom_site_label_2
_geom_bond_site_symmetry_1
_geom_bond_site_symmetry_2
C1 H1 1_555 1_555
C2 C1 1_555 1_555
H2 C2 1_555 1_555
C3 H3 1_555 1_555
C4 C3 1_555 1_555
H4 C4 1_555 1_555
C5 C1 1_555 1_555
C6 C5 1_555 1_555
C7 H5 1_555 1_555
C8 C7 1_555 1_555
C9 C8 1_555 1_555
H6 C9 1_555 1_555
C10 H7 1_555 1_555
C11 C10 1_555 1_555
H8 C11 1_555 1_555
C12 C8 1_555 1_555
H9 C12 1_555 1_555
C13 H10 1_555 1_555
C14 C13 1_555 1_555
H11 C14 1_555 1_555
C15 H12 1_555 1_555
C16 C15 1_555 1_555
H13 C16 1_555 1_555
C17 C13 1_555 1_555
C18 C17 1_555 1_555
C19 H14 1_555 1_555
C20 C19 1_555 1_555
C21 C20 1_555 1_555
H15 C21 1_555 1_555
C22 H16 1_555 1_555
C23 C22 1_555 1_555
H17 C23 1_555 1_555
C24 C20 1_555 1_555
H18 C24 1_555 1_555
Cu1 N3 1_555 1_555
N1 C2 1_555 1_555
N2 C6 1_555 1_555
N3 C7 1_555 1_555
N4 C9 1_555 1_555
N5 C14 1_555 1_555
N6 C18 1_555 1_555
N7 C19 1_555 1_555
N8 C21 1_555 1_555
O1 C6 1_555 1_555
O2 C18 1_555 1_555
Cu1A N4 1_555 1_555
N4A Cu1 1_555 1_555
C3 N1 1_555 1_555
C4 C5 1_555 1_555
C10 N4 1_555 1_555
C11 C12 1_555 1_555
C15 N5 1_555 1_555
C16 C17 1_555 1_555
C22 N8 1_555 1_555
C23 C24 1_555 1_555
Cu1 N7 1_555 1_555
Cu1 O1 1_555 1_555
Cu1 O2 1_555 1_555
N2 N3 1_555 1_555
N6 N7 1_555 1_555

#END
