
#######################################################################
#
#                 Cambridge Crystallographic Data Centre
#                                CCDC 
#
#######################################################################
#
# If this CIF has been generated from an entry in the Cambridge 
# Structural Database, then it will include bibliographic, chemical, 
# crystal, experimental, refinement or atomic coordinate data resulting 
# from the CCDC's data processing and validation procedures.
#
#######################################################################

data_YOVZAL
_symmetry_cell_setting           monoclinic
_symmetry_space_group_name_H-M   'P c'
_symmetry_Int_Tables_number      7
_space_group_name_Hall           'P -2yc'
loop_
_symmetry_equiv_pos_site_id
_symmetry_equiv_pos_as_xyz
1 x,y,z
2 x,-y,1/2+z
_cell_length_a                   6.5040(14)
_cell_length_b                   9.059(2)
_cell_length_c                   14.156(3)
_cell_angle_alpha                90
_cell_angle_beta                 103.28
_cell_angle_gamma                90
_cell_volume                     811.764
loop_
_atom_site_label
_atom_site_type_symbol
_atom_site_fract_x
_atom_site_fract_y
_atom_site_fract_z
C1 C 0.7278(10) 0.8033(8) 0.0282(4)
H1 H 0.8047 0.8587 0.0797
C2 C 0.8020(10) 0.7808(9) -0.0556(4)
H2 H 0.9315 0.8222 -0.0579
C3 C 0.5169(11) 0.6465(7) -0.1253(4)
H3 H 0.4428 0.5914 -0.1776
C4 C 0.4281(10) 0.6626(7) -0.0457(4)
H4 H 0.2975 0.6213 -0.0451
C5 C 0.5396(9) 0.7419(7) 0.0324(3)
C6 C 0.4406(9) 0.7635(7) 0.1182(4)
C7 C 0.6162(11) 0.7588(9) 0.3681(4)
H5 H 0.7544 0.7295 0.3705
C8 C 0.5449(9) 0.7754(8) 0.4592(4)
C9 C 0.3651(13) 0.8520(9) 0.4658(5)
H6 H 0.2822 0.8976 0.4114
C10 C 0.3103(11) 0.8598(8) 0.5540(4)
H7 H 0.1904 0.9110 0.5607
C11 C 0.4375(12) 0.7899(9) 0.6317(5)
H8 H 0.3969 0.7916 0.6905
C12 C 0.6627(12) 0.7130(8) 0.5426(5)
H9 H 0.7847 0.6622 0.5387
C13 C 0.0459(10) 0.6388(6) 0.2569(5)
C14 C 0.0565(10) 1.0171(5) 0.2479(4)
Cu1 Cu 0.15571(8) 0.82560(7) 0.24331(4)
Cu2 Cu -0.14559(7) 0.32854(8) 0.25500(4)
N1 N 0.7011(9) 0.7046(6) -0.1318(3)
N2 N 0.5737(7) 0.7627(6) 0.2058(3)
H10 H 0.7070 0.7494 0.2117
N3 N 0.4913(7) 0.7839(5) 0.2858(3)
N4 N 0.6136(9) 0.7205(6) 0.6285(3)
N5 N -0.0182(11) 0.5253(10) 0.2570(5)
N6 N 0.0025(10) 1.1349(7) 0.2543(4)
O1 O 0.2526(7) 0.7836(6) 0.1050(3)
Cu2A Cu 0.85441(7) 0.67146(8) -0.24500(4)
Cu2A_2 Cu 0.85441(7) 0.67146(8) 0.75500(4)
Cu2_2 Cu -0.14559(7) 1.32854(8) 0.25500(4)
N1A N -0.2989(9) 0.2954(6) 0.3682(3)
N4A N -0.3864(9) 0.2795(6) 0.1285(3)
N6_2 N 0.0025(10) 0.1349(7) 0.2543(4)
loop_
_geom_bond_atom_site_label_1
_geom_bond_atom_site_label_2
_geom_bond_site_symmetry_1
_geom_bond_site_symmetry_2
C1 H1 1_555 1_555
C2 C1 1_555 1_555
H2 C2 1_555 1_555
C3 H3 1_555 1_555
C4 C3 1_555 1_555
H4 C4 1_555 1_555
C5 C1 1_555 1_555
C6 C5 1_555 1_555
C7 H5 1_555 1_555
C8 C7 1_555 1_555
C9 C8 1_555 1_555
H6 C9 1_555 1_555
C10 C9 1_555 1_555
H7 C10 1_555 1_555
C11 C10 1_555 1_555
H8 C11 1_555 1_555
C12 C8 1_555 1_555
H9 C12 1_555 1_555
C13 Cu1 1_555 1_555
C14 Cu1 1_555 1_555
Cu1 N3 1_555 1_555
Cu2 N5 1_555 1_555
N1 C2 1_555 1_555
N2 C6 1_555 1_555
H10 N2 1_555 1_555
N3 C7 1_555 1_555
N4 C11 1_555 1_555
N5 C13 1_555 1_555
N6 C14 1_555 1_555
O1 C6 1_555 1_555
Cu2A N1 1_555 1_555
Cu2A_2 N4 1_555 1_555
Cu2_2 N6 1_555 1_555
N1A Cu2 1_555 1_555
N4A Cu2 1_555 1_555
N6_2 Cu2 1_555 1_555
C3 N1 1_555 1_555
C4 C5 1_555 1_555
C12 N4 1_555 1_555
Cu1 O1 1_555 1_555
N2 N3 1_555 1_555

#END
