
#######################################################################
#
#                 Cambridge Crystallographic Data Centre
#                                CCDC 
#
#######################################################################
#
# If this CIF has been generated from an entry in the Cambridge 
# Structural Database, then it will include bibliographic, chemical, 
# crystal, experimental, refinement or atomic coordinate data resulting 
# from the CCDC's data processing and validation procedures.
#
#######################################################################

data_YOWCOE
_symmetry_cell_setting           triclinic
_symmetry_space_group_name_H-M   'P -1'
_symmetry_Int_Tables_number      2
_space_group_name_Hall           '-P 1'
loop_
_symmetry_equiv_pos_site_id
_symmetry_equiv_pos_as_xyz
1 x,y,z
2 -x,-y,-z
_cell_length_a                   8.9796(17)
_cell_length_b                   10.1531(16)
_cell_length_c                   10.6054(18)
_cell_angle_alpha                89.721(7)
_cell_angle_beta                 77.398(7)
_cell_angle_gamma                71.835(6)
_cell_volume                     894.501
loop_
_atom_site_label
_atom_site_type_symbol
_atom_site_fract_x
_atom_site_fract_y
_atom_site_fract_z
Zn1 Zn 0.71439(4) 0.45126(3) 0.57280(3)
O1 O 0.5621(2) 0.64172(19) 0.6290(2)
O2 O 0.7768(3) 0.6929(2) 0.5261(2)
O3 O 0.5685(2) 1.34274(19) 0.6529(2)
O4 O 0.7936(3) 1.1717(2) 0.5777(2)
O5 O 0.1405(3) 1.2609(3) 0.9569(3)
O6 O 0.9029(4) 0.4106(3) 0.6562(3)
O7 O 0.7365(3) 0.4309(3) 0.3800(3)
N1 N 0.1466(3) 1.1008(3) 0.8084(3)
C1 C 0.6382(3) 0.7278(3) 0.5928(3)
C2 C 0.5505(3) 0.8783(3) 0.6384(3)
C3 C 0.3906(3) 0.9216(3) 0.7054(3)
H1 H 0.3353 0.8575 0.7223
C4 C 0.3127(3) 1.0606(3) 0.7475(3)
C5 C 0.3958(4) 1.1557(3) 0.7253(3)
H2 H 0.3446 1.2484 0.7549
C6 C 0.5559(3) 1.1124(3) 0.6587(3)
C7 C 0.6323(3) 0.9735(3) 0.6151(3)
H3 H 0.7393 0.9448 0.5699
C8 C 0.0705(4) 1.1961(3) 0.9077(3)
C9 C -0.1060(4) 1.2219(4) 0.9548(3)
C10 C -0.1827(4) 1.1271(4) 0.9330(3)
H4 H -0.1225 1.0415 0.8892
C11 C -0.3478(5) 1.1589(6) 0.9760(4)
H5 H -0.3984 1.0953 0.9608
C12 C -0.4372(5) 1.2866(6) 1.0421(4)
H6 H -0.5482 1.3089 1.0703
C13 C -0.3628(5) 1.3796(5) 1.0659(4)
H7 H -0.4233 1.4640 1.1118
C14 C -0.1994(5) 1.3494(4) 1.0225(3)
H8 H -0.1503 1.4139 1.0382
C15 C 0.6461(4) 1.2141(3) 0.6285(3)
H9 H 0.908(7) 0.483(4) 0.702(5)
H10 H 0.993(4) 0.366(5) 0.597(4)
H11 H 0.665(5) 0.394(5) 0.360(5)
H12 H 0.838(3) 0.402(6) 0.336(5)
H13 H 0.098(4) 1.062(4) 0.775(3)
Zn1_2 Zn 0.71439(4) 1.45126(3) 0.57280(3)
O3_2 O 0.5685(2) 0.34274(19) 0.6529(2)
O8 O 0.9902(3) 0.0619(3) 0.3362(3)
H14 H 0.915(4) 0.092(4) 0.407(3)
H15 H 1.052(4) -0.012(3) 0.366(4)
O9 O 0.0838(4) 0.3241(4) 0.2219(3)
H16 H 0.109(5) 0.312(4) 0.1361(19)
H17 H 0.085(5) 0.246(3) 0.257(4)
loop_
_geom_bond_atom_site_label_1
_geom_bond_atom_site_label_2
_geom_bond_site_symmetry_1
_geom_bond_site_symmetry_2
Zn1 O1 1_555 1_555
O1 C1 1_555 1_555
O2 C1 1_555 1_555
O3 C15 1_555 1_555
O4 C15 1_555 1_555
O5 C8 1_555 1_555
O6 Zn1 1_555 1_555
O7 Zn1 1_555 1_555
N1 C4 1_555 1_555
C1 C2 1_555 1_555
C2 C3 1_555 1_555
C3 H1 1_555 1_555
C4 C3 1_555 1_555
C5 C4 1_555 1_555
H2 C5 1_555 1_555
C6 C5 1_555 1_555
C7 C2 1_555 1_555
H3 C7 1_555 1_555
C8 N1 1_555 1_555
C9 C8 1_555 1_555
C10 C9 1_555 1_555
H4 C10 1_555 1_555
C11 C10 1_555 1_555
H5 C11 1_555 1_555
C12 C11 1_555 1_555
H6 C12 1_555 1_555
C13 C12 1_555 1_555
H7 C13 1_555 1_555
C14 C9 1_555 1_555
H8 C14 1_555 1_555
C15 C6 1_555 1_555
H9 O6 1_555 1_555
H10 O6 1_555 1_555
H11 O7 1_555 1_555
H12 O7 1_555 1_555
H13 N1 1_555 1_555
O8 H14 1_555 1_555
H15 O8 1_555 1_555
O9 H16 1_555 1_555
H17 O9 1_555 1_555
Zn1_2 O3 1_555 1_555
O3_2 Zn1 1_555 1_555
C6 C7 1_555 1_555
C13 C14 1_555 1_555

#END
