
#######################################################################
#
#                 Cambridge Crystallographic Data Centre
#                                CCDC 
#
#######################################################################
#
# If this CIF has been generated from an entry in the Cambridge 
# Structural Database, then it will include bibliographic, chemical, 
# crystal, experimental, refinement or atomic coordinate data resulting 
# from the CCDC's data processing and validation procedures.
#
#######################################################################

data_YOWCUJ
_symmetry_cell_setting           tetragonal
_symmetry_space_group_name_H-M   'P 42/n'
_symmetry_Int_Tables_number      86
_space_group_name_Hall           '-P 4bc'
loop_
_symmetry_equiv_pos_site_id
_symmetry_equiv_pos_as_xyz
1 x,y,z
2 1/2-x,1/2-y,z
3 -y,1/2+x,1/2+z
4 1/2+y,-x,1/2+z
5 -x,-y,-z
6 1/2+x,1/2+y,-z
7 y,1/2-x,1/2-z
8 1/2-y,x,1/2-z
_cell_length_a                   18.3911(7)
_cell_length_b                   18.3911(7)
_cell_length_c                   6.2785(5)
_cell_angle_alpha                90
_cell_angle_beta                 90
_cell_angle_gamma                90
_cell_volume                     2123.59
loop_
_atom_site_label
_atom_site_type_symbol
_atom_site_fract_x
_atom_site_fract_y
_atom_site_fract_z
Ag1 Ag 0.25000 0.25000 1.25000
Ag2 Ag 0.25000 0.25000 0.75000
S1 S 0.35425(4) 0.29126(4) 0.99279(12)
N1 N 0.46446(14) 0.22211(15) 0.8042(4)
H1 H 0.4942 0.1861 0.7977
N2 N 0.42088(13) 0.16918(13) 1.1058(4)
H2 H 0.3887 0.1691 1.205
C1 C 0.41827(14) 0.22225(15) 0.9645(4)
C2 C 0.47044(19) 0.2771(2) 0.6350(6)
H3 H 0.4236 0.3003 0.6145
H4 H 0.4839 0.2536 0.5025
C3 C 0.5253(3) 0.3328(2) 0.6890(7)
H5 H 0.5096 0.3595 0.8121
H6 H 0.531 0.3656 0.5711
H7 H 0.5709 0.3096 0.7188
C4 C 0.47438(18) 0.11053(18) 1.1062(6)
H8 H 0.5229 0.1309 1.1167
H9 H 0.4712 0.0836 0.9737
C5 C 0.4611(2) 0.0604(2) 1.2897(6)
H10 H 0.465 0.087 1.4208
H11 H 0.4965 0.022 1.288
H12 H 0.4132 0.0399 1.2782
Ag2_2 Ag 0.25000 0.25000 1.75000
S1A S 0.14575(4) 0.20874(4) 0.99279(12)
S1F S 0.29126(4) 0.14575(4) 1.50721(12)
S1G S 0.20874(4) 0.35425(4) 1.50721(12)
S1F_2 S 0.29126(4) 0.14575(4) 0.50721(12)
S1G_2 S 0.20874(4) 0.35425(4) 0.50721(12)
N1A N 0.03554(14) 0.27789(15) 0.8042(4)
N1F N 0.22211(15) 0.03554(14) 1.6958(4)
N1G N 0.27789(15) 0.46446(14) 1.6958(4)
H1A H 0.0058 0.3139 0.7977
H1F H 0.1861 0.0058 1.7023
H1G H 0.3139 0.4942 1.7023
N2A N 0.07912(13) 0.33082(13) 1.1058(4)
N2F N 0.16918(13) 0.07912(13) 1.3942(4)
N2G N 0.33082(13) 0.42088(13) 1.3942(4)
H2A H 0.1113 0.3309 1.205
H2F H 0.1691 0.1113 1.295
H2G H 0.3309 0.3887 1.295
C1A C 0.08173(14) 0.27775(15) 0.9645(4)
C1F C 0.22225(15) 0.08173(14) 1.5355(4)
C1G C 0.27775(15) 0.41827(14) 1.5355(4)
C2A C 0.02956(19) 0.2229(2) 0.6350(6)
C2F C 0.2771(2) 0.02956(19) 1.8650(6)
C2G C 0.2229(2) 0.47044(19) 1.8650(6)
H3A H 0.0764 0.1997 0.6145
H3F H 0.3003 0.0764 1.8855
H3G H 0.1997 0.4236 1.8855
H4A H 0.0161 0.2464 0.5025
H4F H 0.2536 0.0161 1.9975
H4G H 0.2464 0.4839 1.9975
C3A C -0.0253(3) 0.1672(2) 0.6890(7)
C3F C 0.3328(2) -0.0253(3) 1.8110(7)
C3G C 0.1672(2) 0.5253(3) 1.8110(7)
H5A H -0.0096 0.1405 0.8121
H5F H 0.3595 -0.0096 1.6879
H5G H 0.1405 0.5096 1.6879
H6A H -0.031 0.1344 0.5711
H6F H 0.3656 -0.031 1.9289
H6G H 0.1344 0.531 1.9289
H7A H -0.0709 0.1904 0.7188
H7F H 0.3096 -0.0709 1.7812
H7G H 0.1904 0.5709 1.7812
C4A C 0.02562(18) 0.38947(18) 1.1062(6)
C4F C 0.11053(18) 0.02562(18) 1.3938(6)
C4G C 0.38947(18) 0.47438(18) 1.3938(6)
H8A H -0.0229 0.3691 1.1167
H8F H 0.1309 -0.0229 1.3833
H8G H 0.3691 0.5229 1.3833
H9A H 0.0288 0.4164 0.9737
H9F H 0.0836 0.0288 1.5263
H9G H 0.4164 0.4712 1.5263
C5A C 0.0389(2) 0.4396(2) 1.2897(6)
C5F C 0.0604(2) 0.0389(2) 1.2103(6)
C5G C 0.4396(2) 0.4611(2) 1.2103(6)
H10A H 0.035 0.413 1.4208
H10F H 0.087 0.035 1.0792
H10G H 0.413 0.465 1.0792
H11A H 0.0035 0.478 1.288
H11F H 0.022 0.0035 1.212
H11G H 0.478 0.4965 1.212
H12A H 0.0868 0.4601 1.2782
H12F H 0.0399 0.0868 1.2218
H12G H 0.4601 0.4132 1.2218
Ag3 Ag 0.75000 0.25000 0.43619(7)
S2 S 0.73884(4) 0.13633(4) 0.68593(14)
C6 C 0.64831(18) 0.13281(16) 0.6873(5)
N3 N 0.58635(17) 0.12957(17) 0.6894(6)
Ag3B Ag 0.75000 0.25000 -0.06381(7)
Ag3B_2 Ag 0.75000 0.25000 0.93619(7)
S2A S 0.76116(4) 0.36367(4) 0.68593(14)
S2B S 0.86367(4) 0.23884(4) 0.18593(14)
S2C S 0.63633(4) 0.26116(4) 0.18593(14)
S2A_2 S 0.76116(4) 0.36367(4) -0.31407(14)
S2_2 S 0.73884(4) 0.13633(4) -0.31407(14)
C6A C 0.85169(18) 0.36719(16) 0.6873(5)
C6B C 0.86719(16) 0.14831(18) 0.1873(5)
C6C C 0.63281(16) 0.35169(18) 0.1873(5)
N3A N 0.91365(17) 0.37043(17) 0.6894(6)
N3B N 0.87043(17) 0.08635(17) 0.1894(6)
N3C N 0.62957(17) 0.41365(17) 0.1894(6)
loop_
_geom_bond_atom_site_label_1
_geom_bond_atom_site_label_2
_geom_bond_site_symmetry_1
_geom_bond_site_symmetry_2
Ag1 S1 1_555 1_555
Ag2 S1 1_555 1_555
Ag3 S2 1_555 1_555
S1 C1 1_555 1_555
N1 H1 1_555 1_555
N2 H2 1_555 1_555
C1 N1 1_555 1_555
C2 N1 1_555 1_555
H3 C2 1_555 1_555
H4 C2 1_555 1_555
C3 C2 1_555 1_555
H5 C3 1_555 1_555
H6 C3 1_555 1_555
H7 C3 1_555 1_555
C4 N2 1_555 1_555
H8 C4 1_555 1_555
H9 C4 1_555 1_555
C5 C4 1_555 1_555
H10 C5 1_555 1_555
H11 C5 1_555 1_555
H12 C5 1_555 1_555
S2 C6 1_555 1_555
C6 N3 1_555 1_555
Ag2_2 S1F 1_555 1_555
Ag3B S2B 1_555 1_555
Ag3B_2 S2 1_555 1_555
S1A Ag1 1_555 1_555
S1F Ag1 1_555 1_555
S1G Ag1 1_555 1_555
S1F_2 Ag2 1_555 1_555
S1G_2 Ag2 1_555 1_555
N1A H1A 1_555 1_555
N1F H1F 1_555 1_555
N1G H1G 1_555 1_555
N2A H2A 1_555 1_555
N2F H2F 1_555 1_555
N2G H2G 1_555 1_555
C1A S1A 1_555 1_555
C1F S1F 1_555 1_555
C1G S1G 1_555 1_555
C2A N1A 1_555 1_555
C2F N1F 1_555 1_555
C2G N1G 1_555 1_555
H3A C2A 1_555 1_555
H3F C2F 1_555 1_555
H3G C2G 1_555 1_555
H4A C2A 1_555 1_555
H4F C2F 1_555 1_555
H4G C2G 1_555 1_555
C3A C2A 1_555 1_555
C3F C2F 1_555 1_555
C3G C2G 1_555 1_555
H5A C3A 1_555 1_555
H5F C3F 1_555 1_555
H5G C3G 1_555 1_555
H6A C3A 1_555 1_555
H6F C3F 1_555 1_555
H6G C3G 1_555 1_555
H7A C3A 1_555 1_555
H7F C3F 1_555 1_555
H7G C3G 1_555 1_555
C4A N2A 1_555 1_555
C4F N2F 1_555 1_555
C4G N2G 1_555 1_555
H8A C4A 1_555 1_555
H8F C4F 1_555 1_555
H8G C4G 1_555 1_555
H9A C4A 1_555 1_555
H9F C4F 1_555 1_555
H9G C4G 1_555 1_555
C5A C4A 1_555 1_555
C5F C4F 1_555 1_555
C5G C4G 1_555 1_555
H10A C5A 1_555 1_555
H10F C5F 1_555 1_555
H10G C5G 1_555 1_555
H11A C5A 1_555 1_555
H11F C5F 1_555 1_555
H11G C5G 1_555 1_555
H12A C5A 1_555 1_555
H12F C5F 1_555 1_555
H12G C5G 1_555 1_555
S2A Ag3 1_555 1_555
S2B Ag3 1_555 1_555
S2C Ag3 1_555 1_555
S2A_2 Ag3B 1_555 1_555
S2_2 Ag3B 1_555 1_555
C6A S2A 1_555 1_555
C6B S2B 1_555 1_555
C6C S2C 1_555 1_555
N3A C6A 1_555 1_555
N3B C6B 1_555 1_555
N3C C6C 1_555 1_555
Ag2 S1A 1_555 1_555
N2 C1 1_555 1_555
Ag2_2 S1G 1_555 1_555
Ag3B S2C 1_555 1_555
Ag3B_2 S2A 1_555 1_555
N1A C1A 1_555 1_555
N1F C1F 1_555 1_555
N1G C1G 1_555 1_555
N2A C1A 1_555 1_555
N2F C1F 1_555 1_555
N2G C1G 1_555 1_555

#END
