
#######################################################################
#
#                 Cambridge Crystallographic Data Centre
#                                CCDC 
#
#######################################################################
#
# If this CIF has been generated from an entry in the Cambridge 
# Structural Database, then it will include bibliographic, chemical, 
# crystal, experimental, refinement or atomic coordinate data resulting 
# from the CCDC's data processing and validation procedures.
#
#######################################################################

data_YOWJUP02
_symmetry_cell_setting           monoclinic
_symmetry_space_group_name_H-M   'C c'
_symmetry_Int_Tables_number      9
_space_group_name_Hall           'C -2yc'
loop_
_symmetry_equiv_pos_site_id
_symmetry_equiv_pos_as_xyz
1 x,y,z
2 x,-y,1/2+z
3 1/2+x,1/2+y,z
4 1/2+x,1/2-y,1/2+z
_cell_length_a                   14.972(9)
_cell_length_b                   12.477(7)
_cell_length_c                   8.681(5)
_cell_angle_alpha                90
_cell_angle_beta                 93.093(10)
_cell_angle_gamma                90
_cell_volume                     1619.3
loop_
_atom_site_label
_atom_site_type_symbol
_atom_site_fract_x
_atom_site_fract_y
_atom_site_fract_z
Fe1 Fe 0.37547(11) 0.25291(7) 0.42062(13)
Na1 Na 0.6353(3) 0.1335(2) 0.1701(4)
O1 O 0.5050(4) 0.0139(4) 0.2055(6)
O2 O 0.4529(4) 0.1747(4) 0.2744(5)
O3 O 0.2777(4) 0.2574(4) 0.5738(6)
O4 O 0.1649(4) 0.1689(4) 0.6761(6)
O5 O 0.2356(4) 0.4822(4) 0.1752(6)
O6 O 0.2970(3) 0.3256(4) 0.2574(5)
O7 O 0.4784(5) 0.2553(4) 0.5835(6)
O8 O 0.5775(4) 0.3544(4) 0.7220(6)
N1 N 0.3362(5) 0.0962(5) 0.4393(7)
N2 N 0.4072(4) 0.4127(5) 0.4467(7)
C1 C 0.4548(5) 0.0708(6) 0.2742(8)
C2 C 0.3820(5) 0.0203(6) 0.3686(7)
C3 C 0.3621(6) -0.0885(6) 0.3859(8)
H1 H 0.3945 -0.1414 0.3383
C4 C 0.2919(6) -0.1140(6) 0.4770(9)
H2 H 0.2761 -0.1854 0.4894
C5 C 0.2448(5) -0.0349(6) 0.5500(8)
H3 H 0.1978 -0.0521 0.6114
C6 C 0.2700(5) 0.0707(6) 0.5286(8)
C7 C 0.2328(5) 0.1697(6) 0.5986(8)
C8 C 0.2902(5) 0.4287(6) 0.2597(8)
C9 C 0.3556(5) 0.4844(6) 0.3678(8)
C10 C 0.3696(6) 0.5946(6) 0.3902(8)
H4 H 0.3339 0.6456 0.3385
C11 C 0.4403(6) 0.6242(5) 0.4949(9)
H5 H 0.4533 0.6965 0.5095
C12 C 0.4911(5) 0.5484(6) 0.5766(8)
H6 H 0.5368 0.5691 0.6471
C13 C 0.4721(5) 0.4421(6) 0.5512(8)
C14 C 0.5153(6) 0.3449(6) 0.6272(8)
O9 O 0.5885(5) 0.1574(5) -0.0905(7)
O10 O 0.6441(5) 0.1438(5) 0.4448(7)
Na1C Na 0.1353(3) 0.3665(2) 0.6701(4)
Na1B Na 0.1353(3) 0.6335(2) 0.1701(4)
O3C O 0.7777(4) 0.2426(4) 0.0738(6)
O4C O 0.6649(4) 0.3311(4) 0.1761(6)
O5B O 0.7356(4) -0.0178(4) 0.1752(6)
loop_
_geom_bond_atom_site_label_1
_geom_bond_atom_site_label_2
_geom_bond_site_symmetry_1
_geom_bond_site_symmetry_2
Fe1 O2 1_555 1_555
Na1 O1 1_555 1_555
O1 C1 1_555 1_555
O2 C1 1_555 1_555
O3 Fe1 1_555 1_555
O4 C7 1_555 1_555
O5 C8 1_555 1_555
O6 Fe1 1_555 1_555
O7 Fe1 1_555 1_555
O8 C14 1_555 1_555
N1 Fe1 1_555 1_555
N2 Fe1 1_555 1_555
C1 C2 1_555 1_555
C2 N1 1_555 1_555
C3 C2 1_555 1_555
H1 C3 1_555 1_555
C4 C3 1_555 1_555
H2 C4 1_555 1_555
C5 C4 1_555 1_555
H3 C5 1_555 1_555
C6 N1 1_555 1_555
C7 O3 1_555 1_555
C8 O6 1_555 1_555
C9 N2 1_555 1_555
C10 C9 1_555 1_555
H4 C10 1_555 1_555
C11 C10 1_555 1_555
H5 C11 1_555 1_555
C12 C11 1_555 1_555
H6 C12 1_555 1_555
C13 N2 1_555 1_555
C14 O7 1_555 1_555
O9 Na1 1_555 1_555
O10 Na1 1_555 1_555
Na1C O3 1_555 1_555
Na1B O5 1_555 1_555
O3C Na1 1_555 1_555
O4C Na1 1_555 1_555
O5B Na1 1_555 1_555
O4 Na1C 1_555 1_555
C5 C6 1_555 1_555
C6 C7 1_555 1_555
C8 C9 1_555 1_555
C12 C13 1_555 1_555
C13 C14 1_555 1_555

#END
