
#######################################################################
#
#                 Cambridge Crystallographic Data Centre
#                                CCDC 
#
#######################################################################
#
# If this CIF has been generated from an entry in the Cambridge 
# Structural Database, then it will include bibliographic, chemical, 
# crystal, experimental, refinement or atomic coordinate data resulting 
# from the CCDC's data processing and validation procedures.
#
#######################################################################

data_YOWLED
_symmetry_cell_setting           orthorhombic
_symmetry_space_group_name_H-M   'P 21 21 21'
_symmetry_Int_Tables_number      19
_space_group_name_Hall           'P 2ac 2ab'
loop_
_symmetry_equiv_pos_site_id
_symmetry_equiv_pos_as_xyz
1 x,y,z
2 1/2-x,-y,1/2+z
3 1/2+x,1/2-y,-z
4 -x,1/2+y,1/2-z
_cell_length_a                   8.4350(17)
_cell_length_b                   12.595(3)
_cell_length_c                   22.468(5)
_cell_angle_alpha                90
_cell_angle_beta                 90
_cell_angle_gamma                90
_cell_volume                     2386.97
loop_
_atom_site_label
_atom_site_type_symbol
_atom_site_fract_x
_atom_site_fract_y
_atom_site_fract_z
U1 U 1.04023(3) 0.42410(2) 0.563525(12)
S1 S 0.2543(2) 0.62514(16) 0.32757(9)
N1 N 1.1626(8) 0.2558(6) 0.6137(3)
O1 O 0.7672(7) 0.4147(5) 0.5266(2)
N2 N 0.8577(9) 0.3084(6) 0.6335(3)
O2 O 0.9083(7) 0.5513(5) 0.4964(3)
O3 O 0.1424(7) 0.5380(5) 0.3234(3)
O4 O 0.3250(8) 0.6659(5) 0.2739(3)
C1 C 0.9248(10) 0.2347(7) 0.6700(3)
C2 C 0.1545(10) 0.7319(7) 0.3635(4)
C3 C 0.6479(11) 0.5299(7) 0.4543(4)
C4 C 0.5425(11) 0.6500(7) 0.3800(4)
H1 H 0.5519 0.7102 0.3562
C5 C 0.7803(11) 0.4977(7) 0.4942(4)
C6 C 0.6634(10) 0.6208(7) 0.4188(4)
H2 H 0.7548 0.6618 0.4212
O5 O -0.2752(7) 0.9332(5) 0.4662(2)
O6 O 0.9921(7) 0.5068(5) 0.6244(3)
O7 O -0.1831(7) 1.0510(5) 0.4028(3)
O8 O 1.0904(7) 0.3463(5) 0.5005(3)
C7 C 1.0627(11) 0.0689(7) 0.7368(3)
H3 H 1.1061 0.0124 0.7579
C8 C -0.0114(9) 0.7947(6) 0.4425(3)
H4 H -0.0558 0.7858 0.4800
C9 C 1.3041(10) 0.0826(7) 0.6726(3)
H5 H 1.3529 0.0266 0.6924
C10 C -0.0472(10) 0.8851(6) 0.4095(3)
C11 C 0.4061(10) 0.5865(7) 0.3774(3)
C12 C 0.3882(10) 0.4977(6) 0.4127(4)
H6 H 0.2957 0.4577 0.4108
C13 C -0.1731(10) 0.9606(6) 0.4281(3)
C14 C 0.0301(10) 0.9023(6) 0.3544(3)
H7 H 0.0128 0.9651 0.3336
C15 C 0.8423(11) 0.1881(7) 0.7187(4)
C16 C 0.0904(10) 0.7173(7) 0.4198(4)
H8 H 0.1148 0.6572 0.4420
C17 C 0.5120(10) 0.4683(6) 0.4515(3)
H9 H 0.5025 0.4079 0.4751
C18 C 1.1519(10) 0.1160(6) 0.6893(4)
C19 C 1.3074(10) 0.2203(7) 0.5983(4)
H10 H 1.3609 0.2545 0.5676
C20 C 0.6219(11) 0.3022(7) 0.6950(4)
H11 H 0.5215 0.3290 0.7031
C21 C 1.0839(10) 0.2017(6) 0.6574(3)
C22 C 1.3811(11) 0.1339(7) 0.6264(4)
H12 H 1.4809 0.1113 0.6142
C23 C 0.1323(10) 0.8254(7) 0.3312(4)
H13 H 0.1841 0.8362 0.2951
C24 C 0.7079(12) 0.3392(7) 0.6458(4)
H14 H 0.6593 0.3874 0.6203
C25 C 0.6881(12) 0.2259(8) 0.7311(4)
H15 H 0.6317 0.1995 0.7634
C26 C 0.9167(11) 0.1047(7) 0.7517(4)
H16 H 0.8640 0.0747 0.7840
U1B U -0.45977(3) 1.07590(2) 0.436475(12)
O5B O 1.2248(7) 0.5668(5) 0.5338(2)
O7B O 1.3169(7) 0.4490(5) 0.5972(3)
loop_
_geom_bond_atom_site_label_1
_geom_bond_atom_site_label_2
_geom_bond_site_symmetry_1
_geom_bond_site_symmetry_2
U1 N1 1_555 1_555
S1 O3 1_555 1_555
N1 C19 1_555 1_555
O1 U1 1_555 1_555
N2 U1 1_555 1_555
O2 U1 1_555 1_555
O4 S1 1_555 1_555
C1 N2 1_555 1_555
C2 S1 1_555 1_555
C3 C5 1_555 1_555
C4 H1 1_555 1_555
C5 O1 1_555 1_555
C6 C3 1_555 1_555
H2 C6 1_555 1_555
O5 C13 1_555 1_555
O6 U1 1_555 1_555
O7 C13 1_555 1_555
O8 U1 1_555 1_555
C7 H3 1_555 1_555
C8 H4 1_555 1_555
C9 H5 1_555 1_555
C10 C8 1_555 1_555
C11 S1 1_555 1_555
C12 C11 1_555 1_555
H6 C12 1_555 1_555
C13 C10 1_555 1_555
C14 C10 1_555 1_555
H7 C14 1_555 1_555
C15 C1 1_555 1_555
C16 C2 1_555 1_555
H8 C16 1_555 1_555
C17 C3 1_555 1_555
H9 C17 1_555 1_555
C18 C7 1_555 1_555
C19 H10 1_555 1_555
C20 H11 1_555 1_555
C21 N1 1_555 1_555
C22 C9 1_555 1_555
H12 C22 1_555 1_555
C23 C2 1_555 1_555
H13 C23 1_555 1_555
C24 N2 1_555 1_555
H14 C24 1_555 1_555
C25 C15 1_555 1_555
H15 C25 1_555 1_555
C26 C7 1_555 1_555
H16 C26 1_555 1_555
U1B O5 1_555 1_555
O5B U1 1_555 1_555
O7B U1 1_555 1_555
O2 C5 1_555 1_555
C1 C21 1_555 1_555
C4 C6 1_555 1_555
C4 C11 1_555 1_555
O7 U1B 1_555 1_555
C8 C16 1_555 1_555
C9 C18 1_555 1_555
C12 C17 1_555 1_555
C14 C23 1_555 1_555
C15 C26 1_555 1_555
C18 C21 1_555 1_555
C19 C22 1_555 1_555
C20 C24 1_555 1_555
C20 C25 1_555 1_555

#END
