
#######################################################################
#
#                 Cambridge Crystallographic Data Centre
#                                CCDC 
#
#######################################################################
#
# If this CIF has been generated from an entry in the Cambridge 
# Structural Database, then it will include bibliographic, chemical, 
# crystal, experimental, refinement or atomic coordinate data resulting 
# from the CCDC's data processing and validation procedures.
#
#######################################################################

data_YOWPIK
_symmetry_cell_setting           monoclinic
_symmetry_space_group_name_H-M   'P 21/c'
_symmetry_Int_Tables_number      14
_space_group_name_Hall           '-P 2ybc'
loop_
_symmetry_equiv_pos_site_id
_symmetry_equiv_pos_as_xyz
1 x,y,z
2 -x,1/2+y,1/2-z
3 -x,-y,-z
4 x,1/2-y,1/2+z
_cell_length_a                   8.9462(6)
_cell_length_b                   5.2818(4)
_cell_length_c                   10.1259(7)
_cell_angle_alpha                90
_cell_angle_beta                 93.297(2)
_cell_angle_gamma                90
_cell_volume                     477.677
loop_
_atom_site_label
_atom_site_type_symbol
_atom_site_fract_x
_atom_site_fract_y
_atom_site_fract_z
Co1 Co 0.0000 0.0000 0.0000
Co2 Co -0.08008(4) -0.47867(7) 0.14015(3)
S1 S -0.32076(7) -0.00118(11) 0.15381(6)
C1 C -0.4973(3) 0.0502(6) 0.0700(3)
O1 O -0.2902(2) -0.2734(4) 0.15142(19)
O2 O -0.2120(2) 0.1445(4) 0.07906(18)
O3 O -0.3333(2) 0.0935(4) 0.28740(18)
O4 O -0.0571(2) 0.1543(4) -0.18207(16)
O5 O -0.0916(2) -0.3375(3) -0.05125(18)
H1 H -0.506(4) 0.235(6) 0.070(3)
H2 H -0.558(4) -0.037(6) 0.134(3)
H3 H -0.141(4) 0.216(7) -0.174(3)
H4 H -0.171(4) -0.341(7) -0.092(3)
Co1_2 Co -1.0000 0.0000 0.0000
Co2B Co -0.91992(4) 0.47867(7) -0.14015(3)
Co2_2 Co -0.08008(4) 0.52133(7) 0.14015(3)
Co2B_2 Co 0.08008(4) 0.47867(7) -0.14015(3)
Co2C Co -0.08008(4) -0.02133(7) -0.35985(3)
Co2B_3 Co 0.08008(4) -0.52133(7) -0.14015(3)
Co2B_4 Co -0.91992(4) -0.52133(7) -0.14015(3)
Co2A Co 0.08008(4) 0.02133(7) 0.35985(3)
S1B S -0.67924(7) 0.00118(11) -0.15381(6)
C1B C -0.5027(3) -0.0502(6) -0.0700(3)
O1B O -0.7098(2) 0.2734(4) -0.15142(19)
O2B O -0.7880(2) -0.1445(4) -0.07906(18)
O2B_2 O 0.2120(2) -0.1445(4) -0.07906(18)
O2_2 O -0.2120(2) -0.8555(4) 0.07906(18)
O2B_3 O -0.7880(2) 0.8555(4) -0.07906(18)
O3B O -0.6667(2) -0.0935(4) -0.28740(18)
O4B O 0.0571(2) -0.1543(4) 0.18207(16)
O4C O -0.0571(2) -0.6543(4) 0.31793(16)
O4_2 O -1.0571(2) 0.1543(4) -0.18207(16)
O4A O -0.9429(2) 0.6543(4) -0.31793(16)
O5B O 0.0916(2) 0.3375(3) 0.05125(18)
O5B_2 O 0.0916(2) -0.6625(3) 0.05125(18)
O5B_3 O -0.9084(2) 0.3375(3) 0.05125(18)
O5_2 O -1.0916(2) 0.6625(3) -0.05125(18)
H1B H -0.494(4) -0.235(6) -0.070(3)
H2B H -0.442(4) 0.037(6) -0.134(3)
H3B H 0.141(4) -0.216(7) 0.174(3)
H3C H -0.141(4) -0.716(7) 0.326(3)
H3_2 H -1.141(4) 0.216(7) -0.174(3)
H3A H -0.859(4) 0.716(7) -0.326(3)
H4B H 0.171(4) 0.341(7) 0.092(3)
H4B_2 H 0.171(4) -0.659(7) 0.092(3)
H4B_3 H -0.829(4) 0.341(7) 0.092(3)
H4_2 H -1.171(4) 0.659(7) -0.092(3)
loop_
_geom_bond_atom_site_label_1
_geom_bond_atom_site_label_2
_geom_bond_site_symmetry_1
_geom_bond_site_symmetry_2
Co1 O2 1_555 1_555
Co2 O1 1_555 1_555
S1 C1 1_555 1_555
C1 H1 1_555 1_555
O1 S1 1_555 1_555
O2 S1 1_555 1_555
O3 S1 1_555 1_555
O4 Co1 1_555 1_555
O5 Co1 1_555 1_555
H2 C1 1_555 1_555
H3 O4 1_555 1_555
H4 O5 1_555 1_555
Co1_2 O2B 1_555 1_555
Co2B O1B 1_555 1_555
Co2_2 O2 1_555 1_555
Co2B_2 O4 1_555 1_555
Co2C O4 1_555 1_555
Co2B_3 O5 1_555 1_555
Co2B_4 O2B 1_555 1_555
Co2A O4B 1_555 1_555
S1B C1B 1_555 1_555
C1B C1 1_555 1_555
O1B S1B 1_555 1_555
O2B S1B 1_555 1_555
O2B_2 Co1 1_555 1_555
O2_2 Co2 1_555 1_555
O2B_3 Co2B 1_555 1_555
O3B S1B 1_555 1_555
O4B Co1 1_555 1_555
O4C Co2 1_555 1_555
O4_2 Co1_2 1_555 1_555
O4A Co2B 1_555 1_555
O5B Co1 1_555 1_555
O5B_2 Co2 1_555 1_555
O5B_3 Co1_2 1_555 1_555
O5_2 Co2B 1_555 1_555
H1B C1B 1_555 1_555
H2B C1B 1_555 1_555
H3B O4B 1_555 1_555
H3C O4C 1_555 1_555
H3_2 O4_2 1_555 1_555
H3A O4A 1_555 1_555
H4B O5B 1_555 1_555
H4B_2 O5B_2 1_555 1_555
H4B_3 O5B_3 1_555 1_555
H4_2 O5_2 1_555 1_555
Co2 O5 1_555 1_555
Co2 O4B 1_555 1_555
Co2B O4_2 1_555 1_555
Co2B O5B_3 1_555 1_555
Co2_2 O5B 1_555 1_555
Co2B_2 O5B 1_555 1_555
Co2B_3 O2B_2 1_555 1_555
Co2B_3 O5B_2 1_555 1_555

#END
