
#######################################################################
#
#                 Cambridge Crystallographic Data Centre
#                                CCDC 
#
#######################################################################
#
# If this CIF has been generated from an entry in the Cambridge 
# Structural Database, then it will include bibliographic, chemical, 
# crystal, experimental, refinement or atomic coordinate data resulting 
# from the CCDC's data processing and validation procedures.
#
#######################################################################

data_YOWPOQ
_symmetry_cell_setting           orthorhombic
_symmetry_space_group_name_H-M   'P b c a'
_symmetry_Int_Tables_number      61
_space_group_name_Hall           '-P 2ac 2ab'
loop_
_symmetry_equiv_pos_site_id
_symmetry_equiv_pos_as_xyz
1 x,y,z
2 1/2+x,1/2-y,-z
3 -x,1/2+y,1/2-z
4 1/2-x,-y,1/2+z
5 -x,-y,-z
6 1/2-x,1/2+y,z
7 x,1/2-y,1/2+z
8 1/2+x,y,1/2-z
_cell_length_a                   9.7510(8)
_cell_length_b                   10.1889(8)
_cell_length_c                   20.6391(8)
_cell_angle_alpha                90
_cell_angle_beta                 90
_cell_angle_gamma                90
_cell_volume                     2050.54
loop_
_atom_site_label
_atom_site_type_symbol
_atom_site_fract_x
_atom_site_fract_y
_atom_site_fract_z
Y1 Y 0.3646(5) 0.5436(5) 0.33570(8)
P1 P 1.0814(7) 0.7269(7) 0.4154(3)
P2 P 1.0272(7) 0.3928(7) 0.3045(3)
O1 O 0.52321(12) 0.5933(12) 0.4329(5)
C1 C 0.63002(9) 0.5459(3) 0.41020(8)
O2 O 1.1466(16) 0.8630(7) 0.4083(4)
O3 O 0.9314(10) 0.4511(12) 0.2559(5)
O4 O 1.1682(9) 0.4504(13) 0.3053(5)
O5 O 0.6166(5) 0.5126(19) 0.3527(2)
O6 O 1.0233(13) 0.2463(6) 0.3045(5)
O7 O 1.1961(13) 0.6275(10) 0.4087(4)
O8 O 0.255(2) 0.687(3) 0.2531(4)
O9 O 1.0276(15) 0.7211(12) 0.4882(4)
H1 H 1.03656 0.79455 0.50537
C2 C 0.76823(9) 0.5886(7) 0.43559(19)
H2 H 0.77330 0.67916 0.45064
H3 H 0.80339 0.53413 0.47126
C3 C 0.9736(19) 0.4585(17) 0.3832(5)
H4 H 0.93612 0.39309 0.40902
H5 H 1.05082 0.49801 0.40383
N1 N 0.8611(10) 0.5648(8) 0.3745(5)
H6 H 0.80882 0.55359 0.33998
C4 C 0.9384(14) 0.6963(12) 0.3621(5)
H7 H 0.87339 0.77394 0.37554
H8 H 0.96392 0.71382 0.32147
Y1E Y 1.1354(5) 1.0436(5) 0.33570(8)
Y1G Y 0.8646(5) 0.5436(5) 0.16430(8)
Y1_2 Y 1.3646(5) 0.5436(5) 0.33570(8)
Y1E_2 Y 1.1354(5) 0.0436(5) 0.33570(8)
O2E O 0.3534(16) 0.3630(7) 0.4083(4)
O3G O 0.4314(10) 0.4511(12) 0.2441(5)
O4_2 O 0.1682(9) 0.4504(13) 0.3053(5)
O6E O 0.4767(13) 0.7463(6) 0.3045(5)
O7_2 O 0.1961(13) 0.6275(10) 0.4087(4)
loop_
_geom_bond_atom_site_label_1
_geom_bond_atom_site_label_2
_geom_bond_site_symmetry_1
_geom_bond_site_symmetry_2
Y1 O1 1_555 1_555
P1 O2 1_555 1_555
P2 O3 1_555 1_555
O1 C1 1_555 1_555
C1 O5 1_555 1_555
O2 Y1E 1_555 1_555
O3 Y1G 1_555 1_555
O4 P2 1_555 1_555
O5 Y1 1_555 1_555
O6 P2 1_555 1_555
O7 P1 1_555 1_555
O8 Y1 1_555 1_555
O9 P1 1_555 1_555
H1 O9 1_555 1_555
C2 C1 1_555 1_555
H2 C2 1_555 1_555
H3 C2 1_555 1_555
C3 P2 1_555 1_555
H4 C3 1_555 1_555
H5 C3 1_555 1_555
N1 C2 1_555 1_555
H6 N1 1_555 1_555
C4 P1 1_555 1_555
H7 C4 1_555 1_555
H8 C4 1_555 1_555
Y1_2 O4 1_555 1_555
Y1E_2 O6 1_555 1_555
O2E Y1 1_555 1_555
O3G Y1 1_555 1_555
O4_2 Y1 1_555 1_555
O6E Y1 1_555 1_555
O7_2 Y1 1_555 1_555
O7 Y1_2 1_555 1_555
C3 N1 1_555 1_555
N1 C4 1_555 1_555

#END
