
#######################################################################
#
#                 Cambridge Crystallographic Data Centre
#                                CCDC 
#
#######################################################################
#
# If this CIF has been generated from an entry in the Cambridge 
# Structural Database, then it will include bibliographic, chemical, 
# crystal, experimental, refinement or atomic coordinate data resulting 
# from the CCDC's data processing and validation procedures.
#
#######################################################################

data_YOWPUW
_symmetry_cell_setting           orthorhombic
_symmetry_space_group_name_H-M   'P b c a'
_symmetry_Int_Tables_number      61
_space_group_name_Hall           '-P 2ac 2ab'
loop_
_symmetry_equiv_pos_site_id
_symmetry_equiv_pos_as_xyz
1 x,y,z
2 1/2+x,1/2-y,-z
3 -x,1/2+y,1/2-z
4 1/2-x,-y,1/2+z
5 -x,-y,-z
6 1/2-x,1/2+y,z
7 x,1/2-y,1/2+z
8 1/2+x,y,1/2-z
_cell_length_a                   9.7951(9)
_cell_length_b                   10.2777(9)
_cell_length_c                   20.4047(18)
_cell_angle_alpha                90
_cell_angle_beta                 90
_cell_angle_gamma                90
_cell_volume                     2054.16
loop_
_atom_site_label
_atom_site_type_symbol
_atom_site_fract_x
_atom_site_fract_y
_atom_site_fract_z
Pr1 Pr 0.3602(3) 0.5429(3) 0.33803(15)
P1 P 1.0879(7) 0.7218(7) 0.4184(4)
P2 P 1.0141(7) 0.3778(7) 0.3119(4)
O1 O 0.52031(18) 0.589(2) 0.4349(7)
C1 C 0.62601(10) 0.5627(8) 0.4042(3)
O2 O 1.1506(19) 0.8553(8) 0.4068(9)
O3 O 0.9269(13) 0.4459(13) 0.2601(10)
O4 O 1.1616(9) 0.4213(13) 0.3046(10)
O5 O 0.6173(3) 0.4893(19) 0.3562(7)
O6 O 1.0023(15) 0.2315(7) 0.3024(11)
O7 O 1.1999(16) 0.6193(11) 0.4178(9)
O8 O 0.234(3) 0.682(3) 0.2525(13)
O9 O 1.020(2) 0.7194(13) 0.4865(8)
H1 H 1.02981 0.79210 0.50530
C2 C 0.76401(11) 0.5989(14) 0.4317(5)
H2 H 0.78144 0.54608 0.46823
H3 H 0.76702 0.68726 0.44111
C3 C 0.944(3) 0.4379(15) 0.3894(6)
H4 H 0.88359 0.37419 0.40821
H5 H 1.01646 0.45398 0.42023
N1 N 0.8647(11) 0.5653(8) 0.3761(7)
H6 H 0.81551 0.54907 0.33911
C4 C 0.9597(17) 0.6784(16) 0.3576(7)
H7 H 1.00582 0.65820 0.31732
H8 H 0.90390 0.75415 0.34930
Pr1E Pr 1.1398(3) 1.0429(3) 0.33803(15)
Pr1G Pr 0.8602(3) 0.5429(3) 0.16197(15)
Pr1_2 Pr 1.3602(3) 0.5429(3) 0.33803(15)
Pr1E_2 Pr 1.1398(3) 0.0429(3) 0.33803(15)
O2E O 0.3494(19) 0.3553(8) 0.4068(9)
O3G O 0.4269(13) 0.4459(13) 0.2399(10)
O4_2 O 0.1616(9) 0.4213(13) 0.3046(10)
O6E O 0.4977(15) 0.7315(7) 0.3024(11)
O7_2 O 0.1999(16) 0.6193(11) 0.4178(9)
loop_
_geom_bond_atom_site_label_1
_geom_bond_atom_site_label_2
_geom_bond_site_symmetry_1
_geom_bond_site_symmetry_2
Pr1 O1 1_555 1_555
P1 O2 1_555 1_555
P2 O3 1_555 1_555
O1 C1 1_555 1_555
C1 O5 1_555 1_555
O2 Pr1E 1_555 1_555
O3 Pr1G 1_555 1_555
O4 P2 1_555 1_555
O5 Pr1 1_555 1_555
O6 P2 1_555 1_555
O7 P1 1_555 1_555
O8 Pr1 1_555 1_555
O9 P1 1_555 1_555
H1 O9 1_555 1_555
C2 C1 1_555 1_555
H2 C2 1_555 1_555
H3 C2 1_555 1_555
C3 P2 1_555 1_555
H4 C3 1_555 1_555
H5 C3 1_555 1_555
N1 C2 1_555 1_555
H6 N1 1_555 1_555
C4 P1 1_555 1_555
H7 C4 1_555 1_555
H8 C4 1_555 1_555
Pr1_2 O4 1_555 1_555
Pr1E_2 O6 1_555 1_555
O2E Pr1 1_555 1_555
O3G Pr1 1_555 1_555
O4_2 Pr1 1_555 1_555
O6E Pr1 1_555 1_555
O7_2 Pr1 1_555 1_555
O7 Pr1_2 1_555 1_555
C3 N1 1_555 1_555
N1 C4 1_555 1_555

#END
