
#######################################################################
#
#                 Cambridge Crystallographic Data Centre
#                                CCDC 
#
#######################################################################
#
# If this CIF has been generated from an entry in the Cambridge 
# Structural Database, then it will include bibliographic, chemical, 
# crystal, experimental, refinement or atomic coordinate data resulting 
# from the CCDC's data processing and validation procedures.
#
#######################################################################

data_YOWROS
_symmetry_cell_setting           monoclinic
_symmetry_space_group_name_H-M   'P 21/c'
_symmetry_Int_Tables_number      14
_space_group_name_Hall           '-P 2ybc'
loop_
_symmetry_equiv_pos_site_id
_symmetry_equiv_pos_as_xyz
1 x,y,z
2 -x,1/2+y,1/2-z
3 -x,-y,-z
4 x,1/2-y,1/2+z
_cell_length_a                   8.9449(18)
_cell_length_b                   24.424(5)
_cell_length_c                   18.089(5)
_cell_angle_alpha                90
_cell_angle_beta                 110.71(3)
_cell_angle_gamma                90
_cell_volume                     3696.55
loop_
_atom_site_label
_atom_site_type_symbol
_atom_site_fract_x
_atom_site_fract_y
_atom_site_fract_z
Dy1 Dy 0.97694(6) 0.81231(2) 0.43894(3)
Cd1 Cd 1.59171(12) 0.91230(4) 0.58530(6)
Co1 Co 0.52704(15) 0.66395(5) 0.50685(8)
C1 C 0.8562(13) 0.7268(4) 0.5485(7)
C2 C 1.0051(13) 0.7496(4) 0.6093(6)
C3 C 1.0651(13) 0.7306(4) 0.6855(7)
H1 H 1.0121 0.7030 0.7018
C4 C 1.2075(14) 0.7528(4) 0.7377(7)
C5 C 1.2801(14) 0.7944(4) 0.7101(7)
H2 H 1.3736 0.8110 0.7430
C6 C 1.2098(13) 0.8110(4) 0.6320(7)
C7 C 1.2841(13) 0.8528(4) 0.5934(8)
C8 C 0.7985(14) 0.9209(5) 0.4792(7)
C9 C 0.8697(13) 0.9456(4) 0.4222(7)
C10 C 0.8550(14) 1.0009(5) 0.4035(7)
H3 H 0.7959 1.0244 0.4230
C11 C 0.9354(13) 1.0193(4) 0.3531(7)
C12 C 1.0180(13) 0.9828(5) 0.3224(7)
H4 H 1.0675 0.9937 0.2875
C13 C 1.0210(13) 0.9284(4) 0.3464(7)
C14 C 1.1078(13) 0.8842(4) 0.3193(7)
C15 C 0.6764(15) 0.7850(5) 0.2709(8)
C16 C 0.7840(12) 0.7340(4) 0.2800(6)
C17 C 0.7402(13) 0.6912(4) 0.2253(7)
H5 H 0.6438 0.6921 0.1829
C18 C 0.8441(14) 0.6471(5) 0.2363(7)
C19 C 0.9852(13) 0.6474(5) 0.3035(7)
H6 H 1.0552 0.6179 0.3138
C20 C 1.0165(13) 0.6922(4) 0.3532(7)
C21 C 1.1633(15) 0.6968(4) 0.4238(8)
N1 N 1.0728(10) 0.7899(4) 0.5818(5)
N2 N 0.9489(10) 0.9096(4) 0.3950(6)
N3 N 0.9174(10) 0.7352(3) 0.3440(5)
O1 O 0.8134(9) 0.7492(3) 0.4806(5)
O2 O 0.7821(9) 0.6891(3) 0.5676(5)
O3 O 1.2783(10) 0.7352(3) 0.8117(5)
H7 H 1.2158 0.7159 0.8241
O4 O 1.4131(9) 0.8750(3) 0.6348(5)
O5 O 1.2094(9) 0.8619(3) 0.5210(4)
O6 O 0.8233(9) 0.8701(3) 0.4909(5)
O7 O 0.7250(9) 0.9504(3) 0.5112(5)
O8 O 0.9298(10) 1.0738(3) 0.3367(5)
H8 H 1.0178 1.0842 0.3379
O9 O 1.1721(10) 0.8955(3) 0.2699(5)
O10 O 1.1110(9) 0.8364(3) 0.3506(5)
O11 O 0.7263(8) 0.8177(3) 0.3304(5)
O12 O 0.5565(9) 0.7917(3) 0.2123(5)
O13 O 0.8141(10) 0.6065(3) 0.1838(5)
O14 O 1.2693(10) 0.6604(3) 0.4383(5)
O15 O 1.1781(9) 0.7405(3) 0.4661(5)
O16 O 0.5358(10) 0.7047(3) 0.4033(5)
H9 H 0.4688 0.7293 0.3840
H10 H 0.6208 0.7281 0.4164
O17 O 0.5678(12) 0.5909(4) 0.4613(6)
H11 H 0.5409 0.5611 0.4776
H12 H 0.6114 0.5901 0.4265
O18 O 0.5164(11) 0.6223(4) 0.6075(6)
H13 H 0.4969 0.6399 0.6436
H14 H 0.5319 0.5879 0.6118
O19 O 0.4714(9) 0.7396(3) 0.5625(5)
H15 H 0.5473 0.7598 0.5911
H16 H 0.3751 0.7482 0.5550
O20 O 1.5608(10) 0.8363(3) 0.5147(5)
H17 H 1.4858 0.8339 0.4701
H18 H 1.6240 0.8095 0.5324
O21 O 1.3730(10) 0.9425(3) 0.4817(5)
H19 H 1.350(14) 0.973(5) 0.482(7)
H20 H 1.310(14) 0.918(5) 0.483(7)
O22 O 1.5895(10) 0.9907(3) 0.6428(5)
H21 H 1.5191 1.0145 0.6199
H22 H 1.6587 0.9973 0.6881
Cd1_2 Cd 0.59171(12) 0.91230(4) 0.58530(6)
Cd1C Cd 0.59171(12) 0.58770(4) 0.08530(6)
Co1_2 Co 1.52704(15) 0.66395(5) 0.50685(8)
O7_2 O 1.7250(9) 0.9504(3) 0.5112(5)
O13C O 1.8141(10) 0.8935(3) 0.6838(5)
O14_2 O 0.2693(10) 0.6604(3) 0.4383(5)
O23 O 0.5077(11) 0.9003(4) 0.3100(6)
H23 H 0.5894 0.8799 0.3199
H24 H 0.4885 0.9133 0.3494
O24 O 0.2502(14) 0.5554(4) 0.5718(7)
H25 H 0.2254 0.5473 0.5230
H26 H 0.1804 0.5732 0.5842
O25 O 0.9827(13) 0.9112(5) 0.1108(7)
H27 H 0.9066 0.8881 0.0987
H28 H 1.0658 0.9035 0.1505
O26 O 0.3387(14) 0.5489(5) 0.3263(7)
H29 H 0.4146 0.5449 0.3084
H30 H 0.2699 0.5736 0.3040
O27 O 0.5413(17) 0.0138(5) 0.7814(8)
H31 H 0.5906 0.0059 0.8299
H32 H 0.5189 0.0475 0.7707
O28 O 0.7577(17) 0.5057(5) 0.5586(9)
H33 H 0.6699 0.4968 0.5640
H34 H 0.8247 0.4799 0.5632
O29 O 0.779(7) 0.980(2) 0.824(4)
O33 O 0.78(2) 0.593(7) 0.651(10)
O30? O 0.366(7) 0.026(2) 0.795(4)
O31? O 0.498(7) 0.584(2) 0.292(3)
O32? O 0.939(12) 0.472(4) 0.595(6)
Cd2? Cd 0.52704(15) 0.66395(5) 0.50685(8)
Co2? Co 1.59171(12) 0.91230(4) 0.58530(6)
loop_
_geom_bond_atom_site_label_1
_geom_bond_atom_site_label_2
_geom_bond_site_symmetry_1
_geom_bond_site_symmetry_2
Dy1 N1 1_555 1_555
Cd1 O4 1_555 1_555
Co1 O2 1_555 1_555
C1 C2 1_555 1_555
C2 C3 1_555 1_555
C3 H1 1_555 1_555
C4 C3 1_555 1_555
C5 C4 1_555 1_555
H2 C5 1_555 1_555
C6 C5 1_555 1_555
C7 C6 1_555 1_555
C8 C9 1_555 1_555
C9 C10 1_555 1_555
C10 H3 1_555 1_555
C11 C10 1_555 1_555
C12 C11 1_555 1_555
H4 C12 1_555 1_555
C13 C12 1_555 1_555
C14 C13 1_555 1_555
C15 C16 1_555 1_555
C16 C17 1_555 1_555
C17 H5 1_555 1_555
C18 C17 1_555 1_555
C19 C18 1_555 1_555
H6 C19 1_555 1_555
C20 C19 1_555 1_555
C21 C20 1_555 1_555
N1 C2 1_555 1_555
N2 Dy1 1_555 1_555
N3 Dy1 1_555 1_555
O1 Dy1 1_555 1_555
O2 C1 1_555 1_555
O3 C4 1_555 1_555
H7 O3 1_555 1_555
O4 C7 1_555 1_555
O5 Dy1 1_555 1_555
O6 Dy1 1_555 1_555
O7 C8 1_555 1_555
O8 C11 1_555 1_555
H8 O8 1_555 1_555
O9 C14 1_555 1_555
O10 Dy1 1_555 1_555
O11 Dy1 1_555 1_555
O12 C15 1_555 1_555
O13 C18 1_555 1_555
O14 C21 1_555 1_555
O15 Dy1 1_555 1_555
O16 Co1 1_555 1_555
H9 O16 1_555 1_555
H10 O16 1_555 1_555
O17 Co1 1_555 1_555
H11 O17 1_555 1_555
H12 O17 1_555 1_555
O18 Co1 1_555 1_555
H13 O18 1_555 1_555
H14 O18 1_555 1_555
O19 Co1 1_555 1_555
H15 O19 1_555 1_555
H16 O19 1_555 1_555
O20 Cd1 1_555 1_555
H17 O20 1_555 1_555
H18 O20 1_555 1_555
O21 Cd1 1_555 1_555
H19 O21 1_555 1_555
H20 O21 1_555 1_555
O22 Cd1 1_555 1_555
H21 O22 1_555 1_555
H22 O22 1_555 1_555
O23 H23 1_555 1_555
H24 O23 1_555 1_555
O24 H25 1_555 1_555
H26 O24 1_555 1_555
O25 H27 1_555 1_555
H28 O25 1_555 1_555
O26 H29 1_555 1_555
H30 O26 1_555 1_555
O27 H31 1_555 1_555
H32 O27 1_555 1_555
O28 H33 1_555 1_555
H34 O28 1_555 1_555
Cd1_2 O7 1_555 1_555
Cd1C O13 1_555 1_555
Co1_2 O14 1_555 1_555
O7_2 Cd1 1_555 1_555
O13C Cd1 1_555 1_555
O14_2 Co1 1_555 1_555
C1 O1 1_555 1_555
C6 N1 1_555 1_555
C7 O5 1_555 1_555
C8 O6 1_555 1_555
C9 N2 1_555 1_555
C13 N2 1_555 1_555
C14 O10 1_555 1_555
C15 O11 1_555 1_555
C16 N3 1_555 1_555
C20 N3 1_555 1_555
C21 O15 1_555 1_555

#END
