
#######################################################################
#
#                 Cambridge Crystallographic Data Centre
#                                CCDC 
#
#######################################################################
#
# If this CIF has been generated from an entry in the Cambridge 
# Structural Database, then it will include bibliographic, chemical, 
# crystal, experimental, refinement or atomic coordinate data resulting 
# from the CCDC's data processing and validation procedures.
#
#######################################################################

data_YOXALT04
_symmetry_cell_setting           tetragonal
_symmetry_space_group_name_H-M   'P 42/n'
_symmetry_Int_Tables_number      86
_space_group_name_Hall           '-P 4bc'
loop_
_symmetry_equiv_pos_site_id
_symmetry_equiv_pos_as_xyz
1 x,y,z
2 -y,1/2+x,1/2+z
3 1/2-x,1/2-y,z
4 1/2+y,-x,1/2+z
5 -x,-y,-z
6 y,1/2-x,1/2-z
7 1/2+x,1/2+y,-z
8 1/2-y,x,1/2-z
_cell_length_a                   8.6774(4)
_cell_length_b                   8.6774(4)
_cell_length_c                   12.751(7)
_cell_angle_alpha                90
_cell_angle_beta                 90
_cell_angle_gamma                90
_cell_volume                     960.115
loop_
_atom_site_label
_atom_site_type_symbol
_atom_site_fract_x
_atom_site_fract_y
_atom_site_fract_z
C1 C 0.52350 -0.03460 0.30038
C2 C 0.47590 0.04510 0.19708
H4 H 0.75060 0.16040 0.52460
O1 O 0.62430 0.02950 0.35430
O2 O 0.45660 -0.15970 0.32120
O3 O 0.36690 -0.01710 0.14730
O4 O 0.54820 0.16320 0.17156
O6 O 0.75000 0.25000 0.48190
Y1 Y 0.75000 0.25000 0.29047
Y1E Y 0.25000 -0.25000 0.20953
O1B O 0.87570 0.47050 0.35430
O2E O 0.84030 0.04340 0.17880
O2G O 0.65970 0.45660 0.17880
O3E O 0.98290 0.13310 0.35270
O3G O 0.51710 0.36690 0.35270
O4B O 0.95180 0.33680 0.17156
H4B H 0.74940 0.33960 0.52460
C1B C 0.97650 0.53460 0.30038
C2B C 1.02410 0.45490 0.19708
O2B O 1.04340 0.65970 0.32120
O3B O 1.13310 0.51710 0.14730
Y1E_2 Y 1.25000 0.75000 0.20953
H1 H 0.25000 0.25000 0.52520
H2 H 0.44600 0.24550 0.57840
H3 H 0.42970 0.32510 0.46520
O5 O 0.37850 0.30450 0.53200
O5B O 0.12150 0.19550 0.53200
H2B H 0.05400 0.25450 0.57840
H3B H 0.07030 0.17490 0.46520
loop_
_geom_bond_atom_site_label_1
_geom_bond_atom_site_label_2
_geom_bond_site_symmetry_1
_geom_bond_site_symmetry_2
C1 C2 1_555 1_555
C2 O3 1_555 1_555
H1 O5 1_555 1_555
H2 O5 1_555 1_555
H3 O5 1_555 1_555
H4 O6 1_555 1_555
O1 C1 1_555 1_555
O2 C1 1_555 1_555
O3 Y1E 1_555 1_555
O4 C2 1_555 1_555
O6 Y1 1_555 1_555
Y1 O1 1_555 1_555
Y1E O2 1_555 1_555
O1B Y1 1_555 1_555
O2E Y1 1_555 1_555
O2G Y1 1_555 1_555
O3E Y1 1_555 1_555
O3G Y1 1_555 1_555
O4B Y1 1_555 1_555
H4B O6 1_555 1_555
C1B O1B 1_555 1_555
C2B O4B 1_555 1_555
O2B C1B 1_555 1_555
O3B C2B 1_555 1_555
O5B H1 1_555 1_555
H2B O5B 1_555 1_555
H3B O5B 1_555 1_555
Y1E_2 O2B 1_555 1_555
O4 Y1 1_555 1_555
C1B C2B 1_555 1_555
O3B Y1E_2 1_555 1_555

#END
