
#######################################################################
#
#                 Cambridge Crystallographic Data Centre
#                                CCDC 
#
#######################################################################
#
# If this CIF has been generated from an entry in the Cambridge 
# Structural Database, then it will include bibliographic, chemical, 
# crystal, experimental, refinement or atomic coordinate data resulting 
# from the CCDC's data processing and validation procedures.
#
#######################################################################

data_YOXALT03
_symmetry_cell_setting           tetragonal
_symmetry_space_group_name_H-M   'P 4/n'
_symmetry_Int_Tables_number      85
_space_group_name_Hall           '-P 4a'
loop_
_symmetry_equiv_pos_site_id
_symmetry_equiv_pos_as_xyz
1 x,y,z
2 1/2-y,x,z
3 1/2-x,1/2-y,z
4 y,1/2-x,z
5 -x,-y,-z
6 1/2+y,-x,-z
7 1/2+x,1/2+y,-z
8 -y,1/2+x,-z
_cell_length_a                   8.708(2)
_cell_length_b                   8.708(2)
_cell_length_c                   6.435(3)
_cell_angle_alpha                90
_cell_angle_beta                 90
_cell_angle_gamma                90
_cell_volume                     487.961
loop_
_atom_site_label
_atom_site_type_symbol
_atom_site_fract_x
_atom_site_fract_y
_atom_site_fract_z
C1 C 0.47580 0.03880 0.39748
O1 O 0.37080 -0.02480 0.29740
O2 O 0.54520 0.15870 0.34820
C1D C 0.52420 -0.03880 0.60252
O1D O 0.62920 0.02480 0.70260
O2D O 0.45480 -0.15870 0.65180
loop_
_geom_bond_atom_site_label_1
_geom_bond_atom_site_label_2
_geom_bond_site_symmetry_1
_geom_bond_site_symmetry_2
C1 O1 1_555 1_555
O2 C1 1_555 1_555
C1D C1 1_555 1_555
O1D C1D 1_555 1_555
O2D C1D 1_555 1_555

#END
