
#######################################################################
#
#                 Cambridge Crystallographic Data Centre
#                                CCDC 
#
#######################################################################
#
# If this CIF has been generated from an entry in the Cambridge 
# Structural Database, then it will include bibliographic, chemical, 
# crystal, experimental, refinement or atomic coordinate data resulting 
# from the CCDC's data processing and validation procedures.
#
#######################################################################

data_YOXALT02
_symmetry_cell_setting           tetragonal
_symmetry_space_group_name_H-M   'P 42/n'
_symmetry_Int_Tables_number      86
_space_group_name_Hall           '-P 4bc'
loop_
_symmetry_equiv_pos_site_id
_symmetry_equiv_pos_as_xyz
1 x,y,z
2 -y,1/2+x,1/2+z
3 1/2-x,1/2-y,z
4 1/2+y,-x,1/2+z
5 -x,-y,-z
6 y,1/2-x,1/2-z
7 1/2+x,1/2+y,-z
8 1/2-y,x,1/2-z
_cell_length_a                   8.704(2)
_cell_length_b                   8.704(2)
_cell_length_c                   12.832(2)
_cell_angle_alpha                90
_cell_angle_beta                 90
_cell_angle_gamma                90
_cell_volume                     972.147
loop_
_atom_site_label
_atom_site_type_symbol
_atom_site_fract_x
_atom_site_fract_y
_atom_site_fract_z
C1 C 0.52400 -0.03460 0.30079
C2 C 0.47600 0.04370 0.19783
H1 H 0.74920 0.16180 0.52120
O1 O 0.62540 0.02900 0.35300
O2 O 0.45690 -0.15850 0.32290
O3 O 0.36830 -0.01950 0.14880
O4 O 0.54770 0.16080 0.17193
O5 O 0.75000 0.25000 0.47980
Y1 Y 0.75000 0.25000 0.28865
Y1E Y 0.25000 -0.25000 0.21135
Y1G Y 0.25000 0.75000 0.21135
O1G O 0.47100 0.62540 0.14700
C1G C 0.53460 0.52400 0.19921
C2G C 0.45630 0.47600 0.30217
O3G O 0.51950 0.36830 0.35120
O1B O 0.87460 0.47100 0.35300
O2G O 0.65850 0.45690 0.17710
O2E O 0.84150 0.04310 0.17710
O3E O 0.98050 0.13170 0.35120
O4B O 0.95230 0.33920 0.17193
H1B H 0.75080 0.33820 0.52120
O4G O 0.33920 0.54770 0.32807
loop_
_geom_bond_atom_site_label_1
_geom_bond_atom_site_label_2
_geom_bond_site_symmetry_1
_geom_bond_site_symmetry_2
C1 C2 1_555 1_555
C2 O3 1_555 1_555
H1 O5 1_555 1_555
O1 C1 1_555 1_555
O2 C1 1_555 1_555
O3 Y1E 1_555 1_555
O4 C2 1_555 1_555
O5 Y1 1_555 1_555
Y1 O1 1_555 1_555
Y1E O2 1_555 1_555
Y1G O1G 1_555 1_555
O1G C1G 1_555 1_555
C1G C2G 1_555 1_555
C2G O3G 1_555 1_555
O3G Y1 1_555 1_555
O1B Y1 1_555 1_555
O2G Y1 1_555 1_555
O2E Y1 1_555 1_555
O3E Y1 1_555 1_555
O4B Y1 1_555 1_555
H1B O5 1_555 1_555
O4G Y1G 1_555 1_555
O4 Y1 1_555 1_555
C1G O2G 1_555 1_555
C2G O4G 1_555 1_555

#END
