
#######################################################################
#
#                 Cambridge Crystallographic Data Centre
#                                CCDC 
#
#######################################################################
#
# If this CIF has been generated from an entry in the Cambridge 
# Structural Database, then it will include bibliographic, chemical, 
# crystal, experimental, refinement or atomic coordinate data resulting 
# from the CCDC's data processing and validation procedures.
#
#######################################################################

data_YOXALT
_symmetry_cell_setting           tetragonal
_symmetry_space_group_name_H-M   'P 42/n'
_symmetry_Int_Tables_number      86
_space_group_name_Hall           '-P 4bc'
loop_
_symmetry_equiv_pos_site_id
_symmetry_equiv_pos_as_xyz
1 x,y,z
2 -y,1/2+x,1/2+z
3 1/2-x,1/2-y,z
4 1/2+y,-x,1/2+z
5 -x,-y,-z
6 y,1/2-x,1/2-z
7 1/2+x,1/2+y,-z
8 1/2-y,x,1/2-z
_cell_length_a                   8.6962(6)
_cell_length_b                   8.6962(6)
_cell_length_c                   12.824(3)
_cell_angle_alpha                90
_cell_angle_beta                 90
_cell_angle_gamma                90
_cell_volume                     969.801
loop_
_atom_site_label
_atom_site_type_symbol
_atom_site_fract_x
_atom_site_fract_y
_atom_site_fract_z
C1 C 0.52390 -0.03470 0.30084
C2 C 0.47640 0.04370 0.19799
H1 H 0.74810 0.16190 0.52160
O1 O 0.62570 0.02920 0.35310
O2 O 0.45670 -0.15840 0.32300
O3 O 0.36840 -0.01940 0.14860
O4 O 0.54780 0.16120 0.17219
O5 O 0.75000 0.25000 0.47980
Y1 Y 0.75000 0.25000 0.28866
H1B H 0.75190 0.33810 0.52160
C1B C 0.97610 0.53470 0.30084
C2B C 1.02360 0.45630 0.19799
O1B O 0.87430 0.47080 0.35310
O2B O 1.04330 0.65840 0.32300
O3B O 1.13160 0.51940 0.14860
O4B O 0.95220 0.33880 0.17219
Y1E Y 0.25000 -0.25000 0.21134
O2E O 0.84160 0.04330 0.17700
O2G O 0.65840 0.45670 0.17700
O3E O 0.98060 0.13160 0.35140
O3G O 0.51940 0.36840 0.35140
Y1E_2 Y 1.25000 0.75000 0.21134
loop_
_geom_bond_atom_site_label_1
_geom_bond_atom_site_label_2
_geom_bond_site_symmetry_1
_geom_bond_site_symmetry_2
C1 C2 1_555 1_555
C2 O3 1_555 1_555
H1 O5 1_555 1_555
O1 C1 1_555 1_555
O2 C1 1_555 1_555
O3 Y1E 1_555 1_555
O4 C2 1_555 1_555
O5 Y1 1_555 1_555
Y1 O1 1_555 1_555
H1B O5 1_555 1_555
C1B C2B 1_555 1_555
C2B O3B 1_555 1_555
O1B Y1 1_555 1_555
O2B C1B 1_555 1_555
O3B Y1E_2 1_555 1_555
O4B Y1 1_555 1_555
Y1E O2 1_555 1_555
O2E Y1 1_555 1_555
O2G Y1 1_555 1_555
O3E Y1 1_555 1_555
O3G Y1 1_555 1_555
Y1E_2 O2B 1_555 1_555
O4 Y1 1_555 1_555
C1B O1B 1_555 1_555
C2B O4B 1_555 1_555

#END
