
#######################################################################
#
#                 Cambridge Crystallographic Data Centre
#                                CCDC 
#
#######################################################################
#
# If this CIF has been generated from an entry in the Cambridge 
# Structural Database, then it will include bibliographic, chemical, 
# crystal, experimental, refinement or atomic coordinate data resulting 
# from the CCDC's data processing and validation procedures.
#
#######################################################################

data_YOXDAR
_symmetry_cell_setting           monoclinic
_symmetry_space_group_name_H-M   'C 2/m'
_symmetry_Int_Tables_number      12
_space_group_name_Hall           '-C 2y'
loop_
_symmetry_equiv_pos_site_id
_symmetry_equiv_pos_as_xyz
1 x,y,z
2 -x,y,-z
3 1/2+x,1/2+y,z
4 1/2-x,1/2+y,-z
5 -x,-y,-z
6 x,-y,z
7 1/2-x,1/2-y,-z
8 1/2+x,1/2-y,z
_cell_length_a                   9.9283(16)
_cell_length_b                   10.2127(19)
_cell_length_c                   7.2079(12)
_cell_angle_alpha                90
_cell_angle_beta                 118.498(10)
_cell_angle_gamma                90
_cell_volume                     642.29
loop_
_atom_site_label
_atom_site_type_symbol
_atom_site_fract_x
_atom_site_fract_y
_atom_site_fract_z
Ni1 Ni 0.0000 0.0000 0.5000
S1 S 0.35013(9) 0.0000 1.23198(12)
C1 C 0.2070(3) 0.0000 0.9938(4)
N1 N 0.1077(3) 0.0000 0.8209(4)
N2 N 0.15369(15) 0.15195(13) 0.5060(2)
C2 C 0.2936(2) 0.1721(2) 0.6652(3)
H1 H 0.3284 0.1195 0.7846
C3 C 0.1107(2) 0.2310(2) 0.3412(3)
H2 H 0.0134 0.2211 0.2264
Ni1B Ni 0.5000 0.5000 0.5000
Ni1B_2 Ni -0.5000 0.5000 0.5000
S1A S -0.35013(9) 0.0000 -0.23198(12)
C1A C -0.2070(3) 0.0000 0.0062(4)
N1A N -0.1077(3) 0.0000 0.1791(4)
N2F N 0.34631(15) 0.34805(13) 0.4940(2)
N2A N -0.15369(15) 0.15195(13) 0.4940(2)
N2G N -0.34631(15) 0.34805(13) 0.5060(2)
N2D N -0.15369(15) -0.15195(13) 0.4940(2)
N2E N 0.15369(15) -0.15195(13) 0.5060(2)
C2F C 0.2064(2) 0.3279(2) 0.3348(3)
C2A C -0.2936(2) 0.1721(2) 0.3348(3)
C2G C -0.2064(2) 0.3279(2) 0.6652(3)
H1F H 0.1716 0.3805 0.2154
H1A H -0.3284 0.1195 0.2154
H1G H -0.1716 0.3805 0.7846
C3F C 0.3893(2) 0.2690(2) 0.6588(3)
C3A C -0.1107(2) 0.2310(2) 0.6588(3)
C3G C -0.3893(2) 0.2690(2) 0.3412(3)
H2F H 0.4866 0.2789 0.7736
H2A H -0.0134 0.2211 0.7736
H2G H -0.4866 0.2789 0.2264
loop_
_geom_bond_atom_site_label_1
_geom_bond_atom_site_label_2
_geom_bond_site_symmetry_1
_geom_bond_site_symmetry_2
Ni1 N1 1_555 1_555
S1 C1 1_555 1_555
C1 N1 1_555 1_555
N2 Ni1 1_555 1_555
C2 N2 1_555 1_555
H1 C2 1_555 1_555
C3 N2 1_555 1_555
H2 C3 1_555 1_555
Ni1B N2F 1_555 1_555
Ni1B_2 N2G 1_555 1_555
S1A C1A 1_555 1_555
C1A N1A 1_555 1_555
N1A Ni1 1_555 1_555
N2F C2F 1_555 1_555
N2A Ni1 1_555 1_555
N2G C2G 1_555 1_555
N2D Ni1 1_555 1_555
N2E Ni1 1_555 1_555
C2F C3 1_555 1_555
C2A N2A 1_555 1_555
C2G H1G 1_555 1_555
H1F C2F 1_555 1_555
H1A C2A 1_555 1_555
C3F C2 1_555 1_555
C3A N2A 1_555 1_555
C3G N2G 1_555 1_555
H2F C3F 1_555 1_555
H2A C3A 1_555 1_555
H2G C3G 1_555 1_555
N2F C3F 1_555 1_555
C2A C3G 1_555 1_555
C2G C3A 1_555 1_555

#END
