
#######################################################################
#
#                 Cambridge Crystallographic Data Centre
#                                CCDC 
#
#######################################################################
#
# If this CIF has been generated from an entry in the Cambridge 
# Structural Database, then it will include bibliographic, chemical, 
# crystal, experimental, refinement or atomic coordinate data resulting 
# from the CCDC's data processing and validation procedures.
#
#######################################################################

data_YOXDEV
_symmetry_cell_setting           monoclinic
_symmetry_space_group_name_H-M   'C 2/m'
_symmetry_Int_Tables_number      12
_space_group_name_Hall           '-C 2y'
loop_
_symmetry_equiv_pos_site_id
_symmetry_equiv_pos_as_xyz
1 x,y,z
2 -x,y,-z
3 1/2+x,1/2+y,z
4 1/2-x,1/2+y,-z
5 -x,-y,-z
6 x,-y,z
7 1/2-x,1/2-y,-z
8 1/2+x,1/2-y,z
_cell_length_a                   10.5311(11)
_cell_length_b                   7.3224(10)
_cell_length_c                   5.6957(6)
_cell_angle_alpha                90
_cell_angle_beta                 94.588(12)
_cell_angle_gamma                90
_cell_volume                     437.805
loop_
_atom_site_label
_atom_site_type_symbol
_atom_site_fract_x
_atom_site_fract_y
_atom_site_fract_z
Fe1 Fe 0.0000 0.5000 0.0000
S1 S 0.21352(7) 0.5000 0.27571(14)
C1 C 0.1549(3) 0.5000 0.5342(6)
N1 N 0.1113(3) 0.5000 0.7159(6)
N2 N 0.0000 0.1918(4) 0.0000
C2 C 0.0469(2) 0.0947(3) 0.1863(4)
H1 H 0.0805 0.1561 0.3200
Fe1_2 Fe 0.0000 0.5000 -1.0000
Fe1_3 Fe 0.0000 -0.5000 0.0000
Fe1_4 Fe 0.0000 0.5000 1.0000
S1A S -0.21352(7) 0.5000 -0.27571(14)
C1A C -0.1549(3) 0.5000 -0.5342(6)
N1A N -0.1113(3) 0.5000 0.2841(6)
N1_2 N 0.1113(3) 0.5000 -0.2841(6)
N1A_2 N -0.1113(3) 0.5000 -0.7159(6)
N2D N 0.0000 0.8082(4) 0.0000
N2D_2 N 0.0000 -0.1918(4) 0.0000
C2A C -0.0469(2) 0.0947(3) -0.1863(4)
C2E C 0.0469(2) -0.0947(3) 0.1863(4)
C2D C -0.0469(2) -0.0947(3) -0.1863(4)
H1A H -0.0805 0.1561 -0.3200
H1D H -0.0805 -0.1561 -0.3200
H1E H 0.0805 -0.1561 0.3200
loop_
_geom_bond_atom_site_label_1
_geom_bond_atom_site_label_2
_geom_bond_site_symmetry_1
_geom_bond_site_symmetry_2
Fe1 S1 1_555 1_555
S1 C1 1_555 1_555
C1 N1 1_555 1_555
N1 Fe1_4 1_555 1_555
N2 Fe1 1_555 1_555
C2 N2 1_555 1_555
H1 C2 1_555 1_555
Fe1_2 N1A_2 1_555 1_555
Fe1_3 N2D_2 1_555 1_555
S1A Fe1 1_555 1_555
C1A S1A 1_555 1_555
N1A Fe1 1_555 1_555
N1_2 Fe1 1_555 1_555
N1A_2 C1A 1_555 1_555
N2D Fe1 1_555 1_555
N2D_2 C2E 1_555 1_555
C2A N2 1_555 1_555
C2E C2 1_555 1_555
C2D N2D_2 1_555 1_555
H1A C2A 1_555 1_555
H1D C2D 1_555 1_555
H1E C2E 1_555 1_555
C2A C2D 1_555 1_555

#END
