
#######################################################################
#
#                 Cambridge Crystallographic Data Centre
#                                CCDC 
#
#######################################################################
#
# If this CIF has been generated from an entry in the Cambridge 
# Structural Database, then it will include bibliographic, chemical, 
# crystal, experimental, refinement or atomic coordinate data resulting 
# from the CCDC's data processing and validation procedures.
#
#######################################################################

data_YOXGOJ
_symmetry_cell_setting           triclinic
_symmetry_space_group_name_H-M   'P -1'
_symmetry_Int_Tables_number      2
_space_group_name_Hall           '-P 1'
loop_
_symmetry_equiv_pos_site_id
_symmetry_equiv_pos_as_xyz
1 x,y,z
2 -x,-y,-z
_cell_length_a                   9.961(3)
_cell_length_b                   11.128(3)
_cell_length_c                   14.199(4)
_cell_angle_alpha                107.204(4)
_cell_angle_beta                 90.137(4)
_cell_angle_gamma                115.826(4)
_cell_volume                     1337.46
loop_
_atom_site_label
_atom_site_type_symbol
_atom_site_fract_x
_atom_site_fract_y
_atom_site_fract_z
U1 U 0.56617(4) 0.60443(4) 0.14972(3)
U2 U 0.0000 0.0000 0.0000
Ni1 Ni 0.30965(15) 0.62502(13) 0.50114(10)
P1 P 0.2243(3) 0.3976(3) 0.0729(2)
P2 P 0.5714(3) 0.8096(3) 0.3960(2)
P3 P 1.0903(3) 1.0797(3) 0.7720(2)
O1 O 0.5307(7) 0.7395(7) 0.1342(5)
O2 O 0.5974(8) 0.4633(7) 0.1621(5)
O3 O -0.1707(8) 0.0125(7) 0.0125(5)
O4 O 0.3547(7) 0.4260(7) 0.0089(5)
O5 O 0.3079(7) 0.4961(7) 0.1781(5)
O6 O 0.1350(7) 0.2427(7) 0.0641(5)
O7 O 0.5897(8) 0.6875(7) 0.3223(5)
O8 O 0.5982(8) 0.9269(7) 0.3497(6)
O9 O 0.4235(7) 0.7667(7) 0.4339(5)
O10 O 0.9957(7) 1.0300(7) 0.8500(5)
O11 O 1.1920(8) 1.0081(7) 0.7443(5)
O12 O 1.1771(7) 1.2402(7) 0.8041(5)
O13 O 0.2915(8) 0.7871(7) 0.6051(6)
N1 N 0.4911(9) 0.6478(8) 0.5897(6)
N2 N 0.6572(9) 0.5457(8) 0.5877(6)
N3 N 0.1122(10) 0.5730(8) 0.4142(6)
N4 N -0.1492(10) 0.4974(8) 0.4251(6)
C1 C 0.0950(11) 0.4520(10) 0.0319(7)
C2 C -0.0442(14) 0.3564(12) -0.0215(10)
H1 H -0.0762 0.2580 -0.0372
C3 C 0.1401(13) 0.5957(11) 0.0531(9)
H2 H 0.2374 0.6627 0.0896
C4 C 0.7217(12) 0.8886(11) 0.5000(8)
C5 C 0.8284(11) 0.8420(11) 0.5008(8)
H3 H 0.8238 0.7669 0.4450
C6 C 0.9444(11) 0.9027(10) 0.5821(8)
H4 H 1.0161 0.8678 0.5820
C7 C 0.9526(12) 1.0146(10) 0.6628(7)
C8 C 0.8423(11) 1.0604(10) 0.6638(8)
H5 H 0.8445 1.1336 0.7202
C9 C 0.7296(12) 0.9988(11) 0.5823(8)
H6 H 0.6566 1.0322 0.5825
C10 C 0.5408(11) 0.5519(10) 0.5490(7)
C11 C 0.7323(11) 0.6443(10) 0.6772(7)
H7 H 0.8180 0.6449 0.7072
C12 C 0.6861(11) 0.7438(10) 0.7254(8)
H8 H 0.7361 0.8105 0.7894
C13 C 0.5650(11) 0.7434(10) 0.6776(7)
H9 H 0.5339 0.8133 0.7084
C14 C -0.0103(12) 0.5183(10) 0.4559(7)
C15 C -0.1651(11) 0.5271(10) 0.3426(7)
H10 H -0.2615 0.5131 0.3181
C16 C -0.0459(11) 0.5777(10) 0.2919(8)
H11 H -0.0590 0.5962 0.2322
C17 C 0.0926(11) 0.6000(10) 0.3314(7)
H12 H 0.1769 0.6358 0.2985
P1A P -0.2243(3) 0.6024(3) -0.0729(2)
O4A O -0.3547(7) 0.5740(7) -0.0089(5)
O5A O -0.3079(7) 0.5039(7) -0.1781(5)
O6A O -0.1350(7) 0.7573(7) -0.0641(5)
C1A C -0.0950(11) 0.5480(10) -0.0319(7)
C2A C 0.0442(14) 0.6436(12) 0.0215(10)
H1A H 0.0762 0.7420 0.0372
C3A C -0.1401(13) 0.4043(11) -0.0531(9)
H2A H -0.2374 0.3373 -0.0896
N1A N 0.5089(9) 0.3522(8) 0.4103(6)
N2A N 0.3428(9) 0.4543(8) 0.4123(6)
C10A C 0.4592(11) 0.4481(10) 0.4510(7)
C11A C 0.2677(11) 0.3557(10) 0.3228(7)
H7A H 0.1820 0.3551 0.2928
C12A C 0.3139(11) 0.2562(10) 0.2746(8)
H8A H 0.2639 0.1895 0.2106
C13A C 0.4350(11) 0.2566(10) 0.3224(7)
H9A H 0.4661 0.1867 0.2916
N3A N -0.1122(10) 0.4270(8) 0.5858(6)
N4A N 0.1492(10) 0.5026(8) 0.5749(6)
C14A C 0.0103(12) 0.4817(10) 0.5441(7)
C15A C 0.1651(11) 0.4729(10) 0.6574(7)
H10A H 0.2615 0.4869 0.6819
C16A C 0.0459(11) 0.4223(10) 0.7081(8)
H11A H 0.0590 0.4038 0.7678
C17A C -0.0926(11) 0.4000(10) 0.6686(7)
H12A H -0.1769 0.3642 0.7015
O3A O 0.1707(8) -0.0125(7) -0.0125(5)
U1A U 1.43383(4) 1.39557(4) 0.85028(3)
Ni1A Ni 1.69035(15) 1.37498(13) 0.49886(10)
P2A P 1.4286(3) 1.1904(3) 0.6040(2)
P3A P 0.9097(3) 0.9203(3) 0.2280(2)
O1A O 1.4693(7) 1.2605(7) 0.8658(5)
O2A O 1.4026(8) 1.5367(7) 0.8379(5)
O7A O 1.4103(8) 1.3125(7) 0.6777(5)
O8A O 1.4018(8) 1.0731(7) 0.6503(6)
O9A O 1.5765(7) 1.2333(7) 0.5661(5)
O10A O 1.0043(7) 0.9700(7) 0.1500(5)
O11A O 0.8080(8) 0.9919(7) 0.2557(5)
O12A O 0.8229(7) 0.7598(7) 0.1959(5)
O13A O 1.7085(8) 1.2129(7) 0.3949(6)
C4A C 1.2783(12) 1.1114(11) 0.5000(8)
C5A C 1.1716(11) 1.1580(11) 0.4992(8)
H3A H 1.1762 1.2331 0.5550
C6A C 1.0556(11) 1.0973(10) 0.4179(8)
H4A H 0.9839 1.1322 0.4180
C7A C 1.0474(12) 0.9854(10) 0.3372(7)
C8A C 1.1577(11) 0.9396(10) 0.3362(8)
H5A H 1.1555 0.8664 0.2798
C9A C 1.2704(12) 1.0012(11) 0.4177(8)
H6A H 1.3434 0.9678 0.4175
U1_2 U -0.43383(4) 0.60443(4) 0.14972(3)
U1A_2 U -0.56617(4) 0.39557(4) -0.14972(3)
U1A_3 U 0.43383(4) 0.39557(4) -0.14972(3)
U2_2 U 0.0000 1.0000 0.0000
U2_3 U 1.0000 1.0000 0.0000
U2_4 U 1.0000 1.0000 1.0000
Ni1A_2 Ni -0.30965(15) 0.37498(13) 0.49886(10)
Ni1A_3 Ni 0.69035(15) 0.37498(13) 0.49886(10)
O4_2 O 1.3547(7) 1.4260(7) 1.0089(5)
O4A_2 O 0.6453(7) 0.5740(7) -0.0089(5)
O4A_3 O 1.6453(7) 1.5740(7) 0.9911(5)
O5A_2 O 1.6921(7) 1.5039(7) 0.8219(5)
O6A_2 O -0.1350(7) -0.2427(7) -0.0641(5)
O10_2 O -0.0043(7) 0.0300(7) -0.1500(5)
O10A_2 O 0.0043(7) -0.0300(7) 0.1500(5)
N1A_2 N 1.5089(9) 1.3522(8) 0.4103(6)
N2_2 N 1.6572(9) 1.5457(8) 0.5877(6)
N3A_2 N 1.8878(10) 1.4270(8) 0.5858(6)
N4_2 N 1.8508(10) 1.4974(8) 0.4251(6)
O14 O 0.4355(12) 0.9565(11) 0.1228(8)
O15 O 0.6394(12) 0.2082(10) 0.0920(9)
O16 O -0.1428(11) 0.2444(9) 0.2400(7)
loop_
_geom_bond_atom_site_label_1
_geom_bond_atom_site_label_2
_geom_bond_site_symmetry_1
_geom_bond_site_symmetry_2
U1 O1 1_555 1_555
U2 O3 1_555 1_555
Ni1 O9 1_555 1_555
P1 O4 1_555 1_555
P2 O7 1_555 1_555
P3 O10 1_555 1_555
O2 U1 1_555 1_555
O4 U1 1_555 1_555
O5 U1 1_555 1_555
O6 U2 1_555 1_555
O7 U1 1_555 1_555
O8 P2 1_555 1_555
O9 P2 1_555 1_555
O10 U2_4 1_555 1_555
O11 P3 1_555 1_555
O12 P3 1_555 1_555
O13 Ni1 1_555 1_555
N1 Ni1 1_555 1_555
N2 C10 1_555 1_555
N3 Ni1 1_555 1_555
N4 C14 1_555 1_555
C1 P1 1_555 1_555
C2 C1 1_555 1_555
H1 C2 1_555 1_555
C3 C1 1_555 1_555
H2 C3 1_555 1_555
C4 P2 1_555 1_555
C5 C4 1_555 1_555
H3 C5 1_555 1_555
C6 C5 1_555 1_555
H4 C6 1_555 1_555
C7 P3 1_555 1_555
C8 C7 1_555 1_555
H5 C8 1_555 1_555
C9 C4 1_555 1_555
H6 C9 1_555 1_555
C10 N1 1_555 1_555
C11 N2 1_555 1_555
H7 C11 1_555 1_555
C12 C11 1_555 1_555
H8 C12 1_555 1_555
C13 N1 1_555 1_555
H9 C13 1_555 1_555
C14 N3 1_555 1_555
C15 N4 1_555 1_555
H10 C15 1_555 1_555
C16 C15 1_555 1_555
H11 C16 1_555 1_555
C17 N3 1_555 1_555
H12 C17 1_555 1_555
P1A O4A 1_555 1_555
O4A U1_2 1_555 1_555
O5A P1A 1_555 1_555
O6A P1A 1_555 1_555
C1A P1A 1_555 1_555
C2A C3 1_555 1_555
H1A C2A 1_555 1_555
C3A C2 1_555 1_555
H2A C3A 1_555 1_555
N1A C10A 1_555 1_555
N2A Ni1 1_555 1_555
C10A C10 1_555 1_555
C11A N2A 1_555 1_555
H7A C11A 1_555 1_555
C12A C11A 1_555 1_555
H8A C12A 1_555 1_555
C13A N1A 1_555 1_555
H9A C13A 1_555 1_555
N3A C14A 1_555 1_555
N4A Ni1 1_555 1_555
C14A C14 1_555 1_555
C15A N4A 1_555 1_555
H10A C15A 1_555 1_555
C16A C15A 1_555 1_555
H11A C16A 1_555 1_555
C17A N3A 1_555 1_555
H12A C17A 1_555 1_555
O3A U2 1_555 1_555
U1A O12 1_555 1_555
Ni1A O9A 1_555 1_555
P2A O7A 1_555 1_555
P3A O10A 1_555 1_555
O1A U1A 1_555 1_555
O2A U1A 1_555 1_555
O7A U1A 1_555 1_555
O8A P2A 1_555 1_555
O9A P2A 1_555 1_555
O10A U2_3 1_555 1_555
O11A P3A 1_555 1_555
O12A U1 1_555 1_555
O13A Ni1A 1_555 1_555
C4A P2A 1_555 1_555
C5A C4A 1_555 1_555
H3A C5A 1_555 1_555
C6A C5A 1_555 1_555
H4A C6A 1_555 1_555
C7A P3A 1_555 1_555
C8A C7A 1_555 1_555
H5A C8A 1_555 1_555
C9A C4A 1_555 1_555
H6A C9A 1_555 1_555
U1A_2 O4A 1_555 1_555
U1A_3 O4 1_555 1_555
U2_2 O6A 1_555 1_555
Ni1A_2 N4 1_555 1_555
Ni1A_3 N2 1_555 1_555
O4_2 U1A 1_555 1_555
O4A_2 U1 1_555 1_555
O4A_3 U1A 1_555 1_555
O5A_2 U1A 1_555 1_555
O6A_2 U2 1_555 1_555
O10_2 U2 1_555 1_555
O10A_2 U2 1_555 1_555
N1A_2 Ni1A 1_555 1_555
N2_2 Ni1A 1_555 1_555
N3A_2 Ni1A 1_555 1_555
N4_2 Ni1A 1_555 1_555
P1 O5 1_555 1_555
P1 O6 1_555 1_555
C6 C7 1_555 1_555
C8 C9 1_555 1_555
C12 C13 1_555 1_555
C16 C17 1_555 1_555
O5A U1A_2 1_555 1_555
C1A C2A 1_555 1_555
C1A C3A 1_555 1_555
N1A Ni1A_3 1_555 1_555
N2A C10A 1_555 1_555
C12A C13A 1_555 1_555
N3A Ni1A_2 1_555 1_555
N4A C14A 1_555 1_555
C16A C17A 1_555 1_555
P3A O12A 1_555 1_555
C6A C7A 1_555 1_555
C8A C9A 1_555 1_555
U1A_3 O4A_2 1_555 1_555

#END
