
#######################################################################
#
#                 Cambridge Crystallographic Data Centre
#                                CCDC 
#
#######################################################################
#
# If this CIF has been generated from an entry in the Cambridge 
# Structural Database, then it will include bibliographic, chemical, 
# crystal, experimental, refinement or atomic coordinate data resulting 
# from the CCDC's data processing and validation procedures.
#
#######################################################################

data_YOXGUP
_symmetry_cell_setting           triclinic
_symmetry_space_group_name_H-M   'P -1'
_symmetry_Int_Tables_number      2
_space_group_name_Hall           '-P 1'
loop_
_symmetry_equiv_pos_site_id
_symmetry_equiv_pos_as_xyz
1 x,y,z
2 -x,-y,-z
_cell_length_a                   9.647(3)
_cell_length_b                   10.238(3)
_cell_length_c                   12.115(4)
_cell_angle_alpha                74.141(15)
_cell_angle_beta                 77.673(15)
_cell_angle_gamma                69.499(14)
_cell_volume                     1068.86
loop_
_atom_site_label
_atom_site_type_symbol
_atom_site_fract_x
_atom_site_fract_y
_atom_site_fract_z
U1 U 0.31598(3) 0.48485(2) 0.44704(2)
Zn1 Zn 0.72139(8) 0.43260(7) 0.08306(6)
P1 P 0.64092(19) 0.30726(17) 0.35191(14)
P2 P 0.94370(19) -0.33695(17) 0.61279(14)
P3 P 0.4905(2) 0.70144(17) -0.02653(14)
O1 O 0.3076(5) 0.6359(5) 0.3320(4)
O2 O 0.3234(5) 0.3336(5) 0.5628(4)
O3 O 0.5994(5) 0.4065(4) 0.4388(4)
O4 O 0.4891(5) 0.3264(5) 0.3201(4)
O5 O 0.7562(5) 0.3411(5) 0.2494(4)
O6 O 0.9701(5) -0.3256(5) 0.7350(4)
O7 O 0.8395(5) -0.4241(4) 0.6373(4)
O8 O 1.0931(5) -0.3932(5) 0.5421(4)
O9 O 0.5375(5) 0.5916(4) 0.0826(4)
O10 O 0.6147(5) 0.6599(5) -0.1325(4)
O11 O 0.3361(5) 0.7214(4) -0.0517(4)
N1 N 0.9175(6) 0.3891(6) -0.0385(4)
N2 N 1.1564(6) 0.4235(5) -0.0997(4)
C1 C 0.7233(8) 0.1258(7) 0.4254(6)
C2 C 0.8631(8) 0.0438(7) 0.3778(6)
H1 H 0.9126 0.0839 0.3070
C3 C 0.9284(8) -0.0968(7) 0.4354(6)
H2 H 1.0233 -0.1512 0.4041
C4 C 0.8556(7) -0.1576(7) 0.5380(5)
C5 C 0.7146(8) -0.0767(7) 0.5823(6)
H3 H 0.6632 -0.1184 0.6513
C6 C 0.6489(9) 0.0636(7) 0.5270(6)
H4 H 0.5535 0.1172 0.5582
C7 C 0.4943(10) 0.8693(8) -0.0131(7)
C8 C 0.4005(11) 0.9348(9) 0.0728(7)
H5 H 0.3333 0.8901 0.1248
C9 C 0.5968(11) 0.9329(8) -0.0842(7)
H6 H 0.6657 0.8868 -0.1411
C10 C 0.9532(9) 0.3019(8) -0.1145(6)
H7 H 0.8820 0.2605 -0.1208
C11 C 1.0914(9) 0.2720(8) -0.1831(6)
H8 H 1.1150 0.2111 -0.2357
C12 C 1.1928(9) 0.3336(7) -0.1724(6)
H9 H 1.2889 0.3128 -0.2165
C13 C 1.0216(8) 0.4481(6) -0.0389(5)
P3A P 0.5095(2) 1.29856(17) 0.02653(14)
O9A O 0.4625(5) 1.4084(4) -0.0826(4)
O10A O 0.3853(5) 1.3401(5) 0.1325(4)
O11A O 0.6639(5) 1.2786(4) 0.0517(4)
C7A C 0.5057(10) 1.1307(8) 0.0131(7)
C8A C 0.5995(11) 1.0652(9) -0.0728(7)
H5A H 0.6667 1.1099 -0.1248
C9A C 0.4032(11) 1.0671(8) 0.0842(7)
H6A H 0.3343 1.1132 0.1411
N1A N 1.0825(6) 0.6109(6) 0.0385(4)
C10A C 1.0468(9) 0.6981(8) 0.1145(6)
H7A H 1.1180 0.7395 0.1208
C11A C 0.9086(9) 0.7280(8) 0.1831(6)
H8A H 0.8850 0.7889 0.2357
N2A N 0.8436(6) 0.5765(5) 0.0997(4)
C12A C 0.8072(9) 0.6664(7) 0.1724(6)
H9A H 0.7111 0.6872 0.2165
C13A C 0.9784(8) 0.5519(6) 0.0389(5)
U1A U 0.68402(3) -0.48485(2) 0.55296(2)
Zn1A Zn 0.27861(8) -0.43260(7) 0.91694(6)
P1A P 0.35908(19) -0.30726(17) 0.64809(14)
P2A P 0.05630(19) 0.33695(17) 0.38721(14)
O1A O 0.6924(5) -0.6359(5) 0.6680(4)
O2A O 0.6766(5) -0.3336(5) 0.4372(4)
O3A O 0.4006(5) -0.4065(4) 0.5612(4)
O4A O 0.5109(5) -0.3264(5) 0.6799(4)
O5A O 0.2438(5) -0.3411(5) 0.7506(4)
O6A O 0.0299(5) 0.3256(5) 0.2650(4)
O7A O 0.1605(5) 0.4241(4) 0.3627(4)
O8A O -0.0931(5) 0.3932(5) 0.4579(4)
C1A C 0.2767(8) -0.1258(7) 0.5746(6)
C2A C 0.1369(8) -0.0438(7) 0.6222(6)
H1A H 0.0874 -0.0839 0.6930
C3A C 0.0716(8) 0.0968(7) 0.5646(6)
H2A H -0.0233 0.1512 0.5959
C4A C 0.1444(7) 0.1576(7) 0.4620(5)
C5A C 0.2854(8) 0.0767(7) 0.4177(6)
H3A H 0.3368 0.1184 0.3487
C6A C 0.3511(9) -0.0636(7) 0.4730(6)
H4A H 0.4465 -0.1172 0.4418
U1_2 U 0.31598(3) -0.51515(2) 0.44704(2)
U1_3 U 1.31598(3) -0.51515(2) 0.44704(2)
U1A_2 U -0.31598(3) 0.51515(2) 0.55296(2)
U1A_3 U 0.68402(3) 0.51515(2) 0.55296(2)
Zn1_2 Zn 0.72139(8) 1.43260(7) 0.08306(6)
Zn1A_2 Zn 0.27861(8) 0.56740(7) -0.08306(6)
Zn1A_3 Zn 0.27861(8) 1.56740(7) -0.08306(6)
Zn1A_4 Zn 1.27861(8) 0.56740(7) -0.08306(6)
O3_2 O 0.5994(5) -0.5935(4) 0.4388(4)
O3A_2 O 0.4006(5) 0.5935(4) 0.5612(4)
O8_2 O 0.0931(5) 0.6068(5) 0.5421(4)
O8A_2 O 0.9069(5) -0.6068(5) 0.4579(4)
O9A_2 O 0.4625(5) -0.5916(4) 0.9174(4)
O11_2 O 0.3361(5) -0.2786(4) 0.9483(4)
O11A_2 O 0.6639(5) 0.2786(4) 0.0517(4)
N1A_2 N 0.0825(6) -0.3891(6) 1.0385(4)
N2_2 N 0.1564(6) -0.5765(5) 0.9003(4)
loop_
_geom_bond_atom_site_label_1
_geom_bond_atom_site_label_2
_geom_bond_site_symmetry_1
_geom_bond_site_symmetry_2
U1 O1 1_555 1_555
Zn1 O5 1_555 1_555
P1 O3 1_555 1_555
P2 O6 1_555 1_555
P3 O9 1_555 1_555
O2 U1 1_555 1_555
O3 U1 1_555 1_555
O4 U1 1_555 1_555
O5 P1 1_555 1_555
O7 P2 1_555 1_555
O8 P2 1_555 1_555
O9 Zn1 1_555 1_555
O10 P3 1_555 1_555
O11 P3 1_555 1_555
N1 Zn1 1_555 1_555
N2 C12 1_555 1_555
C1 P1 1_555 1_555
C2 C1 1_555 1_555
H1 C2 1_555 1_555
C3 C2 1_555 1_555
H2 C3 1_555 1_555
C4 P2 1_555 1_555
C5 C4 1_555 1_555
H3 C5 1_555 1_555
C6 C1 1_555 1_555
H4 C6 1_555 1_555
C7 P3 1_555 1_555
C8 C7 1_555 1_555
H5 C8 1_555 1_555
C9 C7 1_555 1_555
H6 C9 1_555 1_555
C10 N1 1_555 1_555
H7 C10 1_555 1_555
C11 C10 1_555 1_555
H8 C11 1_555 1_555
C12 C11 1_555 1_555
H9 C12 1_555 1_555
C13 N1 1_555 1_555
P3A O9A 1_555 1_555
O9A Zn1A_3 1_555 1_555
O10A P3A 1_555 1_555
O11A P3A 1_555 1_555
C7A P3A 1_555 1_555
C8A C9 1_555 1_555
H5A C8A 1_555 1_555
C9A C8 1_555 1_555
H6A C9A 1_555 1_555
N1A C10A 1_555 1_555
C10A H7A 1_555 1_555
C11A C10A 1_555 1_555
H8A C11A 1_555 1_555
N2A Zn1 1_555 1_555
C12A C11A 1_555 1_555
H9A C12A 1_555 1_555
C13A C13 1_555 1_555
U1A O7 1_555 1_555
Zn1A O5A 1_555 1_555
P1A O3A 1_555 1_555
P2A O6A 1_555 1_555
O1A U1A 1_555 1_555
O2A U1A 1_555 1_555
O3A U1A 1_555 1_555
O4A U1A 1_555 1_555
O5A P1A 1_555 1_555
O7A U1 1_555 1_555
O8A P2A 1_555 1_555
C1A P1A 1_555 1_555
C2A C1A 1_555 1_555
H1A C2A 1_555 1_555
C3A C2A 1_555 1_555
H2A C3A 1_555 1_555
C4A P2A 1_555 1_555
C5A C4A 1_555 1_555
H3A C5A 1_555 1_555
C6A C1A 1_555 1_555
H4A C6A 1_555 1_555
U1_2 O3A 1_555 1_555
U1_3 O8 1_555 1_555
U1A_2 O8A 1_555 1_555
U1A_3 O3 1_555 1_555
Zn1_2 O11A 1_555 1_555
Zn1A_2 O11 1_555 1_555
Zn1A_4 N2 1_555 1_555
O3_2 U1A 1_555 1_555
O3A_2 U1 1_555 1_555
O8_2 U1 1_555 1_555
O8A_2 U1A 1_555 1_555
O9A_2 Zn1A 1_555 1_555
O11_2 Zn1A 1_555 1_555
O11A_2 Zn1 1_555 1_555
N1A_2 Zn1A 1_555 1_555
N2_2 Zn1A 1_555 1_555
P1 O4 1_555 1_555
N2 C13 1_555 1_555
C3 C4 1_555 1_555
C5 C6 1_555 1_555
C7A C8A 1_555 1_555
C7A C9A 1_555 1_555
N1A C13A 1_555 1_555
N1A Zn1A_4 1_555 1_555
N2A C12A 1_555 1_555
N2A C13A 1_555 1_555
P1A O4A 1_555 1_555
P2A O7A 1_555 1_555
C3A C4A 1_555 1_555
C5A C6A 1_555 1_555
U1_2 O3_2 1_555 1_555
U1A_3 O3A_2 1_555 1_555

#END
