
#######################################################################
#
#                 Cambridge Crystallographic Data Centre
#                                CCDC 
#
#######################################################################
#
# If this CIF has been generated from an entry in the Cambridge 
# Structural Database, then it will include bibliographic, chemical, 
# crystal, experimental, refinement or atomic coordinate data resulting 
# from the CCDC's data processing and validation procedures.
#
#######################################################################

data_YOXHIE
_symmetry_cell_setting           triclinic
_symmetry_space_group_name_H-M   'P -1'
_symmetry_Int_Tables_number      2
_space_group_name_Hall           '-P 1'
loop_
_symmetry_equiv_pos_site_id
_symmetry_equiv_pos_as_xyz
1 x,y,z
2 -x,-y,-z
_cell_length_a                   11.344(5)
_cell_length_b                   15.095(5)
_cell_length_c                   16.393(5)
_cell_angle_alpha                65.746(5)
_cell_angle_beta                 72.998(5)
_cell_angle_gamma                77.854(5)
_cell_volume                     2434.31
loop_
_atom_site_label
_atom_site_type_symbol
_atom_site_fract_x
_atom_site_fract_y
_atom_site_fract_z
Bi1 Bi 1.03001(5) 0.55974(4) 0.09898(4)
Bi2 Bi 0.98453(4) 0.16651(4) 0.33099(4)
V1 V 0.4613(2) 0.2445(2) 0.32105(19)
N1 N 0.9419(9) 0.0300(8) 0.2959(7)
N2 N 1.1333(8) 0.1646(9) 0.1846(8)
O1 O 0.9123(8) 0.2715(7) 0.1973(7)
O2 O 1.0386(8) 0.4081(7) 0.2314(6)
O3 O 1.2305(8) 0.4823(7) 0.0330(6)
O4 O 1.0523(9) -0.1475(7) 0.4909(7)
O5 O 0.8230(9) 0.6405(8) 0.1183(7)
O6 O 0.7626(7) 0.1521(7) 0.3692(7)
O7 O 1.0546(9) 0.7247(7) 0.0275(6)
N3 N 1.2112(9) 0.5942(8) 0.1317(7)
O8 O 0.9025(10) 0.3298(8) 0.3593(7)
C1 C 1.0303(16) 0.6144(14) 0.3650(11)
H1 H 0.9911 0.6809 0.3446
H2 H 0.9709 0.5741 0.4154
O9 O 0.9750(9) 0.3995(8) 0.0703(7)
C2 C 1.2605(11) 0.6752(11) 0.0450(10)
H3 H 1.3119 0.6474 0.0009
H4 H 1.3129 0.7087 0.0578
O10 O 0.6199(8) 0.1409(7) 0.3057(7)
C3 C 0.9957(13) 0.3116(11) 0.1313(10)
C4 C 1.1433(17) 0.6116(16) 0.3992(13)
H5 H 1.1181 0.6413 0.4450
H6 H 1.1744 0.5441 0.4287
O11 O 1.0919(8) 0.0097(8) 0.4055(7)
O12 O 0.3436(9) 0.3231(8) 0.3367(8)
C5 C 1.2819(13) 0.6294(13) 0.2469(11)
H7 H 1.3236 0.5636 0.2653
H8 H 1.3409 0.6726 0.1994
N4 N 0.9595(10) 0.5851(8) 0.2461(8)
C6 C 0.7277(13) 0.1202(11) 0.3211(10)
C7 C 1.0945(11) 0.0984(9) 0.1486(9)
H9 H 1.0269 0.1366 0.1187
C8 C 1.0399(10) 0.0092(9) 0.2265(8)
H10 H 1.1070 -0.0295 0.2566
C9 C 0.8178(11) 0.0624(10) 0.2695(10)
H11 H 0.8317 0.1016 0.2042
H12 H 0.7810 0.0050 0.2802
O13 O 0.4074(9) 0.1346(9) 0.4437(8)
H13 H 0.4046 0.1508 0.4891
H14 H 0.4598 0.0835 0.4466
O14 O 0.5426(9) 0.3218(8) 0.1928(7)
H15 H 0.5868 0.2848 0.1590
H16 H 0.5983 0.3590 0.1904
C10 C 1.3025(13) 0.5089(11) 0.1458(10)
H17 H 1.3754 0.5339 0.1445
H18 H 1.2739 0.4658 0.2090
C11 C 1.1976(11) 0.0771(10) 0.0741(9)
H19 H 1.2696 0.0431 0.0987
H20 H 1.2210 0.1378 0.0241
O15 O 1.1899(9) 0.8288(7) -0.0570(7)
C12 C 1.1107(13) -0.0767(12) 0.1108(10)
H21 H 1.1794 -0.1145 0.1382
H22 H 1.0840 -0.1155 0.0860
O16 O 0.7067(11) 0.7528(11) 0.1667(10)
C13 C 1.0327(12) -0.0633(11) 0.4317(10)
C14 C 1.0022(11) -0.0557(10) 0.1861(10)
H23 H 0.9786 -0.1170 0.2351
H24 H 0.9311 -0.0225 0.1599
C15 C 1.0653(13) 0.5778(11) 0.2854(10)
H25 H 1.0965 0.5086 0.3097
O17 O 0.5664(9) 0.2908(9) 0.3708(8)
H26 H 0.5757 0.3536 0.3400
H27 H 0.6412 0.2586 0.3670
C16 C 0.9326(11) -0.0523(9) 0.3861(9)
H28 H 0.8534 -0.0427 0.4263
H29 H 0.9344 -0.1124 0.3773
C17 C 1.1521(14) 0.0122(12) 0.0371(10)
H30 H 1.0846 0.0487 0.0078
H31 H 1.2194 -0.0039 -0.0087
C18 C 1.1253(12) 0.2652(10) 0.1209(9)
H32 H 1.1573 0.2674 0.0585
H33 H 1.1762 0.3016 0.1317
C19 C 1.1725(14) 0.6328(13) 0.2087(10)
H34 H 1.1402 0.7016 0.1827
C20 C 0.7962(16) 0.6915(12) 0.1683(12)
C21 C 0.9494(15) 0.4070(11) 0.2985(12)
C22 C 1.1631(15) 0.7486(11) 0.0023(11)
C23 C 0.8860(14) 0.4998(10) 0.3087(11)
H35 H 0.8734 0.4931 0.3720
H36 H 0.8053 0.5124 0.2947
C24 C 0.8790(14) 0.6774(11) 0.2305(10)
H37 H 0.9298 0.7313 0.2033
H38 H 0.8281 0.6786 0.2891
C25 C 1.2382(16) 0.6602(16) 0.3288(12)
H39 H 1.3087 0.6512 0.3546
H40 H 1.2105 0.7295 0.3069
O18 O 1.4027(10) 0.3982(9) 0.0699(8)
C26 C 1.3149(14) 0.4594(12) 0.0749(11)
O19 O 1.1888(8) 0.2038(8) 0.3174(7)
C27 C 1.2815(12) 0.1739(10) 0.2679(9)
C28 C 1.2631(11) 0.1323(10) 0.2039(9)
H41 H 1.2749 0.0615 0.2310
H42 H 1.3247 0.1535 0.1464
O20 O 1.3937(8) 0.1790(7) 0.2607(7)
Bi1A Bi 0.96999(5) 0.44026(4) -0.09898(4)
Bi2A Bi 1.01547(4) -0.16651(4) 0.66901(4)
V1_2 V 1.4613(2) 0.2445(2) 0.32105(19)
O4A O 0.9477(9) 0.1475(7) 0.5091(7)
O9A O 1.0250(9) 0.6005(8) -0.0703(7)
O20_2 O 0.3937(8) 0.1790(7) 0.2607(7)
O21 O 0.7128(8) 0.4324(8) 0.1687(8)
H43 H 0.6528 0.4708 0.1846
H44 H 0.7509 0.4615 0.1135
O22 O 0.5866(10) 0.0931(10) 0.1396(9)
H45 H 0.5658 0.1459 0.0981
H46 H 0.6639 0.0885 0.1359
O23 O 0.6490(18) -0.0967(19) 0.2386(16)
H47 H 0.6500 -0.1530 0.2384
H48 H 0.5981 -0.0566 0.2081
O24 O 1.1079(12) 0.3108(13) 0.4568(10)
H49 H 1.0830 0.3222 0.5062
H50 H 1.1316 0.2503 0.4696
O25 O 0.6696(14) 0.0142(14) 0.5613(11)
H51 H 0.6882 -0.0370 0.5488
H52 H 0.6087 0.0485 0.5388
O26 O 1.345(2) -0.120(2) 0.282(2)
H53 H 1.3933 -0.0775 0.2421
H54 H 1.3190 -0.1079 0.3306
O27 O 1.4249(14) 0.3359(14) -0.0737(11)
H55 H 1.3469 0.3350 -0.0610
H56 H 1.4437 0.3928 -0.1104
O28 O 0.684(3) 0.220(3) 0.552(2)
H57 H 0.7329 0.2539 0.5541
H58 H 0.7254 0.1759 0.5324
O29 O 1.277(2) 0.341(2) 0.5388(18)
H59 H 1.2287 0.2956 0.5685
H60 H 1.2509 0.3810 0.4918
O30 O 0.573(2) 0.519(2) 0.2956(19)
H61 H 0.5524 0.5553 0.3266
H62 H 0.5548 0.4613 0.3305
O31 O 1.492(3) -0.054(3) -0.016(3)
H63 H 1.4760 -0.0217 -0.0686
H64 H 1.4800 -0.0172 0.0135
O32? O 1.447(4) -0.144(4) 0.068(3)
H65? H 1.4336 -0.2032 0.0983
H66? H 1.5165 -0.1354 0.0725
O33? O 0.6899(19) 0.2855(19) 0.5073(16)
H67? H 0.7396 0.2983 0.4547
H68? H 0.6162 0.2913 0.5016
loop_
_geom_bond_atom_site_label_1
_geom_bond_atom_site_label_2
_geom_bond_site_symmetry_1
_geom_bond_site_symmetry_2
Bi1 O2 1_555 1_555
Bi2 N1 1_555 1_555
V1 O10 1_555 1_555
N1 C8 1_555 1_555
N2 Bi2 1_555 1_555
O1 Bi2 1_555 1_555
O2 C21 1_555 1_555
O3 Bi1 1_555 1_555
O4 C13 1_555 1_555
O5 Bi1 1_555 1_555
O6 Bi2 1_555 1_555
O7 Bi1 1_555 1_555
N3 Bi1 1_555 1_555
O8 Bi2 1_555 1_555
C1 H1 1_555 1_555
H2 C1 1_555 1_555
O9 Bi1 1_555 1_555
C2 N3 1_555 1_555
H3 C2 1_555 1_555
H4 C2 1_555 1_555
O10 C6 1_555 1_555
C3 O1 1_555 1_555
C4 C1 1_555 1_555
H5 C4 1_555 1_555
H6 C4 1_555 1_555
O11 Bi2 1_555 1_555
O12 V1 1_555 1_555
C5 H7 1_555 1_555
H8 C5 1_555 1_555
N4 Bi1 1_555 1_555
C6 O6 1_555 1_555
C7 N2 1_555 1_555
H9 C7 1_555 1_555
C8 C7 1_555 1_555
H10 C8 1_555 1_555
C9 N1 1_555 1_555
H11 C9 1_555 1_555
H12 C9 1_555 1_555
O13 V1 1_555 1_555
H13 O13 1_555 1_555
H14 O13 1_555 1_555
O14 V1 1_555 1_555
H15 O14 1_555 1_555
H16 O14 1_555 1_555
C10 N3 1_555 1_555
H17 C10 1_555 1_555
H18 C10 1_555 1_555
C11 C7 1_555 1_555
H19 C11 1_555 1_555
H20 C11 1_555 1_555
O15 C22 1_555 1_555
C12 H21 1_555 1_555
H22 C12 1_555 1_555
O16 C20 1_555 1_555
C13 O11 1_555 1_555
C14 C8 1_555 1_555
H23 C14 1_555 1_555
H24 C14 1_555 1_555
C15 C1 1_555 1_555
H25 C15 1_555 1_555
O17 V1 1_555 1_555
H26 O17 1_555 1_555
H27 O17 1_555 1_555
C16 N1 1_555 1_555
H28 C16 1_555 1_555
H29 C16 1_555 1_555
C17 C11 1_555 1_555
H30 C17 1_555 1_555
H31 C17 1_555 1_555
C18 N2 1_555 1_555
H32 C18 1_555 1_555
H33 C18 1_555 1_555
C19 N3 1_555 1_555
H34 C19 1_555 1_555
C20 O5 1_555 1_555
C21 O8 1_555 1_555
C22 O7 1_555 1_555
C23 N4 1_555 1_555
H35 C23 1_555 1_555
H36 C23 1_555 1_555
C24 N4 1_555 1_555
H37 C24 1_555 1_555
H38 C24 1_555 1_555
C25 C4 1_555 1_555
H39 C25 1_555 1_555
H40 C25 1_555 1_555
O18 C26 1_555 1_555
C26 O3 1_555 1_555
O19 Bi2 1_555 1_555
C27 O19 1_555 1_555
C28 N2 1_555 1_555
H41 C28 1_555 1_555
H42 C28 1_555 1_555
O20 C27 1_555 1_555
O21 H43 1_555 1_555
H44 O21 1_555 1_555
O22 H45 1_555 1_555
H46 O22 1_555 1_555
O23 H47 1_555 1_555
H48 O23 1_555 1_555
O24 H49 1_555 1_555
H50 O24 1_555 1_555
O25 H51 1_555 1_555
H52 O25 1_555 1_555
O26 H53 1_555 1_555
H54 O26 1_555 1_555
O27 H55 1_555 1_555
H56 O27 1_555 1_555
O28 H57 1_555 1_555
H58 O28 1_555 1_555
O29 H59 1_555 1_555
H60 O29 1_555 1_555
O30 H61 1_555 1_555
H62 O30 1_555 1_555
O31 H63 1_555 1_555
H64 O31 1_555 1_555
Bi1A O9 1_555 1_555
Bi2A O4 1_555 1_555
V1_2 O20 1_555 1_555
O4A Bi2 1_555 1_555
O9A Bi1 1_555 1_555
O20_2 V1 1_555 1_555
O9 C3 1_555 1_555
C2 C22 1_555 1_555
C3 C18 1_555 1_555
C5 C19 1_555 1_555
C5 C25 1_555 1_555
N4 C15 1_555 1_555
C6 C9 1_555 1_555
C10 C26 1_555 1_555
C12 C14 1_555 1_555
C12 C17 1_555 1_555
C13 C16 1_555 1_555
C15 C19 1_555 1_555
C20 C24 1_555 1_555
C21 C23 1_555 1_555
C27 C28 1_555 1_555
Bi1A O9A 1_555 1_555

#END
