
#######################################################################
#
#                 Cambridge Crystallographic Data Centre
#                                CCDC 
#
#######################################################################
#
# If this CIF has been generated from an entry in the Cambridge 
# Structural Database, then it will include bibliographic, chemical, 
# crystal, experimental, refinement or atomic coordinate data resulting 
# from the CCDC's data processing and validation procedures.
#
#######################################################################

data_YOXMEE
_symmetry_cell_setting           triclinic
_symmetry_space_group_name_H-M   'P -1'
_symmetry_Int_Tables_number      2
_space_group_name_Hall           '-P 1'
loop_
_symmetry_equiv_pos_site_id
_symmetry_equiv_pos_as_xyz
1 x,y,z
2 -x,-y,-z
_cell_length_a                   10.8581(2)
_cell_length_b                   12.5163(2)
_cell_length_c                   18.3704(3)
_cell_angle_alpha                91.335(2)
_cell_angle_beta                 91.937(2)
_cell_angle_gamma                102.785(2)
_cell_volume                     2432.09
loop_
_atom_site_label
_atom_site_type_symbol
_atom_site_fract_x
_atom_site_fract_y
_atom_site_fract_z
Tl1 Tl 0.638405(16) 0.895722(14) 0.258180(10)
Tl2 Tl -0.16455(2) 0.60058(2) 0.251100(14)
P1 P 0.35974(10) 0.79426(9) 0.21456(6)
P2 P 0.70878(11) 1.15697(9) 0.29381(6)
P3 P 0.84912(17) 0.75927(18) 0.07497(10)
P4 P 0.67067(13) 0.66011(12) 0.42679(8)
N1 N 0.0748(4) 0.5872(3) 0.3039(2)
N2 N 0.5203(4) 0.9888(3) 0.1469(2)
N3 N 0.8759(4) 1.4167(3) 0.1819(2)
N4 N 0.4998(4) 0.9810(3) 0.3583(2)
F1 F 0.9281(4) 0.7755(4) 0.1517(2)
F2 F 0.9615(6) 0.8385(5) 0.0400(3)
F3 F 0.7702(5) 0.7395(5) -0.0009(2)
F4 F 0.7375(4) 0.6687(6) 0.1115(3)
F5 F 0.9099(4) 0.6597(4) 0.0548(2)
F6 F 0.7795(8) 0.8482(7) 0.0980(4)
F7 F 0.8032(4) 0.6370(5) 0.4030(2)
F8 F 0.6212(4) 0.6483(4) 0.3431(2)
F9 F 0.5394(4) 0.6819(3) 0.4499(2)
F10 F 0.7226(4) 0.6788(4) 0.5089(2)
F11 F 0.7220(6) 0.7876(4) 0.4152(3)
F12 F 0.6207(5) 0.5353(4) 0.4369(4)
C1 C 0.3150(4) 0.9188(4) 0.1904(2)
C2 C 0.2096(4) 0.9286(4) 0.2250(2)
C3 C 0.1426(5) 1.0229(4) 0.2185(3)
H1 H 0.0829 1.0088 0.1757
H2 H 0.2058 1.0915 0.2106
C4 C 0.0707(5) 1.0373(4) 0.2866(3)
H3 H 0.1314 1.0636 0.3280
H4 H 0.0201 1.0930 0.2783
C5 C -0.0165(5) 0.9291(4) 0.3053(3)
H5 H -0.0742 0.9006 0.2629
H6 H -0.0685 0.9411 0.3466
C6 C 0.0611(4) 0.8454(4) 0.3256(3)
H7 H 0.1046 0.8669 0.3736
H8 H 0.0034 0.7728 0.3300
C7 C 0.1585(4) 0.8360(3) 0.2700(2)
C8 C 0.2188(4) 0.7513(3) 0.2651(2)
C9 C 0.1942(4) 0.6461(3) 0.3020(2)
C10 C 0.2961(4) 0.6075(4) 0.3331(3)
H9 H 0.3802 0.6492 0.3305
C11 C 0.2723(5) 0.5088(4) 0.3674(3)
H10 H 0.3398 0.4831 0.3900
C12 C 0.1504(5) 0.4476(4) 0.3688(3)
H11 H 0.1319 0.3785 0.3912
C13 C 0.0560(5) 0.4905(4) 0.3365(3)
H12 H -0.0283 0.4485 0.3375
C14 C 0.3965(4) 0.9932(3) 0.1425(2)
C15 C 0.3528(5) 1.0598(4) 0.0924(3)
H13 H 0.2655 1.0603 0.0885
C16 C 0.4381(5) 1.1255(4) 0.0482(3)
H14 H 0.4100 1.1723 0.0145
C17 C 0.5643(5) 1.1218(4) 0.0541(3)
H15 H 0.6244 1.1665 0.0249
C18 C 0.6017(4) 1.0518(4) 0.1033(3)
H16 H 0.6881 1.0480 0.1064
C19 C 0.3362(4) 0.7132(3) 0.1295(2)
C20 C 0.2185(5) 0.6892(4) 0.0917(3)
H17 H 0.1503 0.7172 0.1093
C21 C 0.2027(6) 0.6250(5) 0.0291(3)
H18 H 0.1226 0.6074 0.0038
C22 C 0.3023(6) 0.5856(4) 0.0022(3)
H19 H 0.2896 0.5390 -0.0402
C23 C 0.4194(6) 0.6139(4) 0.0370(3)
H20 H 0.4889 0.5905 0.0170
C24 C 0.4365(5) 0.6763(4) 0.1011(3)
H21 H 0.5171 0.6939 0.1257
C25 C 0.5483(4) 1.1623(3) 0.3138(2)
C26 C 0.5122(4) 1.2437(4) 0.2773(2)
C27 C 0.3864(4) 1.2741(4) 0.2832(3)
H22 H 0.3891 1.3218 0.3272
H23 H 0.3206 1.2066 0.2895
C28 C 0.3495(5) 1.3333(4) 0.2169(3)
H24 H 0.2749 1.3635 0.2277
H25 H 0.3264 1.2807 0.1750
C29 C 0.4596(5) 1.4264(4) 0.1975(3)
H26 H 0.4326 1.4678 0.1570
H27 H 0.4846 1.4776 0.2401
C30 C 0.5719(5) 1.3810(4) 0.1753(3)
H28 H 0.5517 1.3424 0.1272
H29 H 0.6454 1.4428 0.1698
C31 C 0.6081(4) 1.3025(4) 0.2294(2)
C32 C 0.7201(4) 1.2727(4) 0.2347(2)
C33 C 0.8361(4) 1.3095(4) 0.1933(2)
C34 C 0.9041(5) 1.2339(4) 0.1692(3)
H30 H 0.8754 1.1582 0.1784
C35 C 1.0137(5) 1.2696(5) 0.1316(3)
H31 H 1.0602 1.2189 0.1142
C36 C 1.0537(5) 1.3796(5) 0.1200(3)
H32 H 1.1287 1.4066 0.0948
C37 C 0.9830(5) 1.4498(4) 0.1456(3)
H33 H 1.0110 1.5258 0.1373
C38 C 0.4782(4) 1.0831(4) 0.3638(3)
C39 C 0.3967(5) 1.1101(4) 0.4145(3)
H34 H 0.3839 1.1827 0.4182
C40 C 0.3344(5) 1.0301(5) 0.4594(3)
H35 H 0.2789 1.0475 0.4945
C41 C 0.3536(5) 0.9247(4) 0.4529(3)
H36 H 0.3101 0.8679 0.4821
C42 C 0.4378(5) 0.9048(4) 0.4029(3)
H37 H 0.4533 0.8331 0.3995
C43 C 0.7934(4) 1.2199(4) 0.3778(2)
C44 C 0.7664(4) 1.3132(4) 0.4098(3)
H38 H 0.7017 1.3440 0.3887
C45 C 0.8328(5) 1.3619(4) 0.4722(3)
H39 H 0.8142 1.4261 0.4936
C46 C 0.9268(5) 1.3161(4) 0.5033(3)
H40 H 0.9728 1.3491 0.5461
C47 C 0.9534(5) 1.2228(5) 0.4722(3)
H41 H 1.0178 1.1917 0.4935
C48 C 0.8865(4) 1.1740(4) 0.4098(3)
H42 H 0.9045 1.1093 0.3889
Tl2_2 Tl 0.83545(2) 0.60058(2) 0.251100(14)
Tl2_3 Tl 0.83545(2) 1.60058(2) 0.251100(14)
N3_2 N -0.1241(4) 0.4167(3) 0.1819(2)
F1_2 F -0.0719(4) 0.7755(4) 0.1517(2)
F4_2 F -0.2625(4) 0.6687(6) 0.1115(3)
F7_2 F -0.1968(4) 0.6370(5) 0.4030(2)
F8_2 F -0.3788(4) 0.6483(4) 0.3431(2)
loop_
_geom_bond_atom_site_label_1
_geom_bond_atom_site_label_2
_geom_bond_site_symmetry_1
_geom_bond_site_symmetry_2
Tl1 P1 1_555 1_555
Tl2 N1 1_555 1_555
P1 C1 1_555 1_555
P2 Tl1 1_555 1_555
P3 F1 1_555 1_555
P4 F7 1_555 1_555
N1 C9 1_555 1_555
N2 Tl1 1_555 1_555
N3 C33 1_555 1_555
N4 Tl1 1_555 1_555
F1 Tl2_2 1_555 1_555
F2 P3 1_555 1_555
F3 P3 1_555 1_555
F4 P3 1_555 1_555
F5 P3 1_555 1_555
F6 Tl1 1_555 1_555
F7 Tl2_2 1_555 1_555
F8 Tl1 1_555 1_555
F9 P4 1_555 1_555
F10 P4 1_555 1_555
F11 Tl1 1_555 1_555
F12 P4 1_555 1_555
C1 C2 1_555 1_555
C2 C3 1_555 1_555
C3 H1 1_555 1_555
H2 C3 1_555 1_555
C4 C3 1_555 1_555
H3 C4 1_555 1_555
H4 C4 1_555 1_555
C5 C4 1_555 1_555
H5 C5 1_555 1_555
H6 C5 1_555 1_555
C6 C5 1_555 1_555
H7 C6 1_555 1_555
H8 C6 1_555 1_555
C7 C2 1_555 1_555
C8 P1 1_555 1_555
C9 C8 1_555 1_555
C10 C9 1_555 1_555
H9 C10 1_555 1_555
C11 C10 1_555 1_555
H10 C11 1_555 1_555
C12 C11 1_555 1_555
H11 C12 1_555 1_555
C13 N1 1_555 1_555
H12 C13 1_555 1_555
C14 N2 1_555 1_555
C15 C14 1_555 1_555
H13 C15 1_555 1_555
C16 C15 1_555 1_555
H14 C16 1_555 1_555
C17 C16 1_555 1_555
H15 C17 1_555 1_555
C18 N2 1_555 1_555
H16 C18 1_555 1_555
C19 P1 1_555 1_555
C20 C19 1_555 1_555
H17 C20 1_555 1_555
C21 C20 1_555 1_555
H18 C21 1_555 1_555
C22 C21 1_555 1_555
H19 C22 1_555 1_555
C23 C22 1_555 1_555
H20 C23 1_555 1_555
C24 C19 1_555 1_555
H21 C24 1_555 1_555
C25 P2 1_555 1_555
C26 C25 1_555 1_555
C27 C26 1_555 1_555
H22 C27 1_555 1_555
H23 C27 1_555 1_555
C28 C27 1_555 1_555
H24 C28 1_555 1_555
H25 C28 1_555 1_555
C29 C28 1_555 1_555
H26 C29 1_555 1_555
H27 C29 1_555 1_555
C30 C29 1_555 1_555
H28 C30 1_555 1_555
H29 C30 1_555 1_555
C31 C26 1_555 1_555
C32 P2 1_555 1_555
C33 C32 1_555 1_555
C34 C33 1_555 1_555
H30 C34 1_555 1_555
C35 C34 1_555 1_555
H31 C35 1_555 1_555
C36 C35 1_555 1_555
H32 C36 1_555 1_555
C37 N3 1_555 1_555
H33 C37 1_555 1_555
C38 N4 1_555 1_555
C39 C38 1_555 1_555
H34 C39 1_555 1_555
C40 C39 1_555 1_555
H35 C40 1_555 1_555
C41 C40 1_555 1_555
H36 C41 1_555 1_555
C42 N4 1_555 1_555
H37 C42 1_555 1_555
C43 P2 1_555 1_555
C44 C43 1_555 1_555
H38 C44 1_555 1_555
C45 C44 1_555 1_555
H39 C45 1_555 1_555
C46 C45 1_555 1_555
H40 C46 1_555 1_555
C47 C46 1_555 1_555
H41 C47 1_555 1_555
C48 C43 1_555 1_555
H42 C48 1_555 1_555
Tl2_2 F4 1_555 1_555
Tl2_3 N3 1_555 1_555
N3_2 Tl2 1_555 1_555
F1_2 Tl2 1_555 1_555
F4_2 Tl2 1_555 1_555
F7_2 Tl2 1_555 1_555
F8_2 Tl2 1_555 1_555
P3 F6 1_555 1_555
P4 F8 1_555 1_555
P4 F11 1_555 1_555
F8 Tl2_2 1_555 1_555
C1 C14 1_555 1_555
C6 C7 1_555 1_555
C7 C8 1_555 1_555
C12 C13 1_555 1_555
C17 C18 1_555 1_555
C23 C24 1_555 1_555
C25 C38 1_555 1_555
C30 C31 1_555 1_555
C31 C32 1_555 1_555
C36 C37 1_555 1_555
C41 C42 1_555 1_555
C47 C48 1_555 1_555

#END
