
#######################################################################
#
#                 Cambridge Crystallographic Data Centre
#                                CCDC 
#
#######################################################################
#
# If this CIF has been generated from an entry in the Cambridge 
# Structural Database, then it will include bibliographic, chemical, 
# crystal, experimental, refinement or atomic coordinate data resulting 
# from the CCDC's data processing and validation procedures.
#
#######################################################################

data_YOXXOA01
_symmetry_cell_setting           monoclinic
_symmetry_space_group_name_H-M   'P 21/c'
_symmetry_Int_Tables_number      14
_space_group_name_Hall           '-P 2ybc'
loop_
_symmetry_equiv_pos_site_id
_symmetry_equiv_pos_as_xyz
1 x,y,z
2 -x,1/2+y,1/2-z
3 -x,-y,-z
4 x,1/2-y,1/2+z
_cell_length_a                   9.5048(10)
_cell_length_b                   9.4721(10)
_cell_length_c                   12.4969(13)
_cell_angle_alpha                90
_cell_angle_beta                 96.884(2)
_cell_angle_gamma                90
_cell_volume                     1116.99
loop_
_atom_site_label
_atom_site_type_symbol
_atom_site_fract_x
_atom_site_fract_y
_atom_site_fract_z
Fe1 Fe 0.5000 0.0000 0.0000
Fe2 Fe 0.61840(3) 0.20748(2) -0.16605(2)
Fe3 Fe 0.67083(3) -0.18168(2) -0.15418(2)
O1 O 0.55153(12) 0.00474(12) -0.15990(9)
O2 O 0.63178(13) -0.25409(14) 0.17663(10)
O3 O 1.16471(14) -0.15795(15) 0.16057(12)
O4 O 0.65040(15) 0.42260(14) -0.16260(11)
O5 O 0.75487(17) 0.62464(14) -0.11028(13)
O6 O 0.55082(14) 0.27200(14) 0.16272(10)
O7 O 0.62882(13) 0.19221(13) 0.01291(10)
O8 O 0.66749(13) -0.14069(14) 0.02675(10)
O9 O 1.14031(14) 0.07691(15) 0.15358(13)
C1 C 0.73478(17) 0.49551(17) -0.09867(14)
C2 C 0.7214(3) 0.4103(3) 0.08937(17)
H1 H 0.7825 0.4099 0.1574
H2 H 0.6617 0.4934 0.0890
C3 C 0.62763(17) 0.28264(17) 0.08659(13)
C4 C 0.81474(19) 0.4262(2) -0.00090(14)
H3 H 0.8971 0.4828 0.0244
H4 H 0.8475 0.3339 -0.0206
C5 C 0.71351(16) -0.20185(16) 0.11481(13)
C6 C 0.87262(18) -0.2066(2) 0.14091(17)
H5 H 0.9132 -0.2605 0.0862
H6 H 0.8975 -0.2531 0.2098
C7 C 0.93251(19) -0.0574(2) 0.14555(19)
H7 H 0.8922 -0.0071 0.0815
H8 H 0.9014 -0.0096 0.2073
C8 C 1.09203(17) -0.0466(2) 0.15348(14)
Fe2B Fe 0.38160(3) -0.20748(2) 0.16605(2)
Fe3B Fe 0.32917(3) 0.18168(2) 0.15418(2)
O1B O 0.44847(12) -0.00474(12) 0.15990(9)
O2B O 0.36822(13) 0.25409(14) -0.17663(10)
O3B O -0.16471(14) 0.15795(15) -0.16057(12)
O4B O 0.34960(15) -0.42260(14) 0.16260(11)
O5B O 0.24513(17) -0.62464(14) 0.11028(13)
O6B O 0.44918(14) -0.27200(14) -0.16272(10)
O7B O 0.37118(13) -0.19221(13) -0.01291(10)
O8B O 0.33251(13) 0.14069(14) -0.02675(10)
O9B O -0.14031(14) -0.07691(15) -0.15358(13)
C1B C 0.26522(17) -0.49551(17) 0.09867(14)
C2B C 0.2786(3) -0.4103(3) -0.08937(17)
H1B H 0.2175 -0.4099 -0.1574
H2B H 0.3383 -0.4934 -0.0890
C3B C 0.37237(17) -0.28264(17) -0.08659(13)
C4B C 0.18526(19) -0.4262(2) 0.00090(14)
H3B H 0.1029 -0.4828 -0.0244
H4B H 0.1525 -0.3339 0.0206
C5B C 0.28649(16) 0.20185(16) -0.11481(13)
C6B C 0.12738(18) 0.2066(2) -0.14091(17)
H5B H 0.0868 0.2605 -0.0862
H6B H 0.1025 0.2531 -0.2098
C7B C 0.06749(19) 0.0574(2) -0.14555(19)
H7B H 0.1078 0.0071 -0.0815
H8B H 0.0986 0.0096 -0.2073
C8B C -0.09203(17) 0.0466(2) -0.15348(14)
Fe2_2 Fe -0.38160(3) 0.20748(2) -0.16605(2)
Fe2A Fe 0.38160(3) -0.29252(2) -0.33395(2)
Fe2B_2 Fe 1.38160(3) -0.20748(2) 0.16605(2)
Fe2C Fe 0.61840(3) 0.29252(2) 0.33395(2)
Fe3_2 Fe -0.32917(3) -0.18168(2) -0.15418(2)
Fe3_3 Fe 0.67083(3) 0.81832(2) -0.15418(2)
Fe3A Fe 0.32917(3) 0.31832(2) -0.34582(2)
Fe3B_2 Fe 0.32917(3) -0.81832(2) 0.15418(2)
Fe3B_3 Fe 1.32917(3) 0.18168(2) 0.15418(2)
Fe3C Fe 0.67083(3) -0.31832(2) 0.34582(2)
O2A O 0.36822(13) 0.24591(14) 0.32337(10)
O2C O 0.63178(13) -0.24591(14) -0.32337(10)
O3_2 O 0.16471(14) -0.15795(15) 0.16057(12)
O3B_2 O 0.83529(14) 0.15795(15) -0.16057(12)
O5_2 O 0.75487(17) -0.37536(14) -0.11028(13)
O5B_2 O 0.24513(17) 0.37536(14) 0.11028(13)
O6A O 0.44918(14) -0.22800(14) 0.33728(10)
O6C O 0.55082(14) 0.22800(14) -0.33728(10)
O9_2 O 0.14031(14) 0.07691(15) 0.15358(13)
O9B_2 O 0.85969(14) -0.07691(15) -0.15358(13)
loop_
_geom_bond_atom_site_label_1
_geom_bond_atom_site_label_2
_geom_bond_site_symmetry_1
_geom_bond_site_symmetry_2
Fe1 O1 1_555 1_555
Fe2 O1 1_555 1_555
Fe3 O1 1_555 1_555
O2 C5 1_555 1_555
O3 C8 1_555 1_555
O4 Fe2 1_555 1_555
O5 C1 1_555 1_555
O6 C3 1_555 1_555
O7 Fe1 1_555 1_555
O8 Fe1 1_555 1_555
O9 C8 1_555 1_555
C1 O4 1_555 1_555
C2 H1 1_555 1_555
H2 C2 1_555 1_555
C3 O7 1_555 1_555
C4 C1 1_555 1_555
H3 C4 1_555 1_555
H4 C4 1_555 1_555
C5 O8 1_555 1_555
C6 C5 1_555 1_555
H5 C6 1_555 1_555
H6 C6 1_555 1_555
C7 C6 1_555 1_555
H7 C7 1_555 1_555
H8 C7 1_555 1_555
C8 C7 1_555 1_555
Fe2B O2 1_555 1_555
Fe3B O6 1_555 1_555
O1B Fe1 1_555 1_555
O2B Fe2 1_555 1_555
O3B C8B 1_555 1_555
O4B Fe2B 1_555 1_555
O5B C1B 1_555 1_555
O6B Fe3 1_555 1_555
O7B Fe1 1_555 1_555
O8B Fe1 1_555 1_555
O9B C8B 1_555 1_555
C1B O4B 1_555 1_555
C2B H1B 1_555 1_555
H2B C2B 1_555 1_555
C3B O6B 1_555 1_555
C4B C1B 1_555 1_555
H3B C4B 1_555 1_555
H4B C4B 1_555 1_555
C5B O2B 1_555 1_555
C6B C5B 1_555 1_555
H5B C6B 1_555 1_555
H6B C6B 1_555 1_555
C7B C6B 1_555 1_555
H7B C7B 1_555 1_555
H8B C7B 1_555 1_555
C8B C7B 1_555 1_555
Fe2_2 O3B 1_555 1_555
Fe2A O6B 1_555 1_555
Fe2B_2 O3 1_555 1_555
Fe2C O6 1_555 1_555
Fe3_2 O9B 1_555 1_555
Fe3_3 O5 1_555 1_555
Fe3A O2B 1_555 1_555
Fe3B_2 O5B 1_555 1_555
Fe3B_3 O9 1_555 1_555
Fe3C O2 1_555 1_555
O2A Fe3B 1_555 1_555
O2C Fe3 1_555 1_555
O3_2 Fe2B 1_555 1_555
O3B_2 Fe2 1_555 1_555
O5_2 Fe3 1_555 1_555
O5B_2 Fe3B 1_555 1_555
O6A Fe2B 1_555 1_555
O6C Fe2 1_555 1_555
O9_2 Fe3B 1_555 1_555
O9B_2 Fe3 1_555 1_555
Fe2 O7 1_555 1_555
Fe3 O8 1_555 1_555
C2 C3 1_555 1_555
C2 C4 1_555 1_555
Fe2B O1B 1_555 1_555
Fe2B O7B 1_555 1_555
Fe3B O1B 1_555 1_555
Fe3B O8B 1_555 1_555
O7B C3B 1_555 1_555
O8B C5B 1_555 1_555
C2B C3B 1_555 1_555
C2B C4B 1_555 1_555
Fe2A O2C 1_555 1_555
Fe2C O2A 1_555 1_555
Fe3A O6C 1_555 1_555
Fe3C O6A 1_555 1_555

#END
