
#######################################################################
#
#                 Cambridge Crystallographic Data Centre
#                                CCDC 
#
#######################################################################
#
# If this CIF has been generated from an entry in the Cambridge 
# Structural Database, then it will include bibliographic, chemical, 
# crystal, experimental, refinement or atomic coordinate data resulting 
# from the CCDC's data processing and validation procedures.
#
#######################################################################

data_YOXXUG
_symmetry_cell_setting           monoclinic
_symmetry_space_group_name_H-M   'P 21/c'
_symmetry_Int_Tables_number      14
_space_group_name_Hall           '-P 2ybc'
loop_
_symmetry_equiv_pos_site_id
_symmetry_equiv_pos_as_xyz
1 x,y,z
2 -x,1/2+y,1/2-z
3 -x,-y,-z
4 x,1/2-y,1/2+z
_cell_length_a                   9.5471(6)
_cell_length_b                   9.5715(6)
_cell_length_c                   12.5302(7)
_cell_angle_alpha                90
_cell_angle_beta                 97.031(2)
_cell_angle_gamma                90
_cell_volume                     1136.4
loop_
_atom_site_label
_atom_site_type_symbol
_atom_site_fract_x
_atom_site_fract_y
_atom_site_fract_z
Mn1 Mn 0.5000 0.0000 0.0000
Mn2 Mn 0.62079(4) 0.20750(4) -0.16623(3)
Mn3 Mn 0.67351(4) -0.18195(4) -0.15356(3)
O1 O 0.5496(2) 0.00413(19) -0.15926(15)
O2 O 0.6333(2) -0.2555(2) 0.17578(15)
O3 O 1.1627(2) -0.1567(2) 0.16136(18)
O4 O 0.6530(2) 0.4240(2) -0.16323(16)
O5 O 0.7588(3) 0.6228(2) -0.11055(19)
O6 O 0.5515(2) 0.2728(2) 0.16171(16)
O7 O 0.6294(2) 0.1927(2) 0.01289(15)
O8 O 0.6677(2) -0.1442(2) 0.02618(15)
O9 O 1.1367(2) 0.0756(2) 0.15391(18)
C1 C 0.7364(3) 0.4961(3) -0.0990(2)
C2 C 0.7205(5) 0.4098(4) 0.0881(3)
H1 H 0.7807 0.4104 0.1564
H2 H 0.6605 0.4916 0.0868
C3 C 0.6282(3) 0.2835(3) 0.0857(2)
C4 C 0.8149(3) 0.4256(3) -0.0012(2)
H3 H 0.8973 0.4806 0.0250
H4 H 0.8468 0.3342 -0.0213
C5 C 0.7145(3) -0.2040(3) 0.1140(2)
C6 C 0.8724(3) -0.2057(3) 0.1409(3)
H5 H 0.9140 -0.2587 0.0868
H6 H 0.8973 -0.2512 0.2098
C7 C 0.9308(3) -0.0580(3) 0.1455(3)
H7 H 0.8906 -0.0085 0.0815
H8 H 0.8996 -0.0109 0.2069
C8 C 1.0899(3) -0.0469(3) 0.1539(2)
Mn2B Mn 0.37921(4) -0.20750(4) 0.16623(3)
Mn3B Mn 0.32649(4) 0.18195(4) 0.15356(3)
O1B O 0.4504(2) -0.00413(19) 0.15926(15)
O2B O 0.3667(2) 0.2555(2) -0.17578(15)
O3B O -0.1627(2) 0.1567(2) -0.16136(18)
O4B O 0.3470(2) -0.4240(2) 0.16323(16)
O5B O 0.2412(3) -0.6228(2) 0.11055(19)
O6B O 0.4485(2) -0.2728(2) -0.16171(16)
O7B O 0.3706(2) -0.1927(2) -0.01289(15)
O8B O 0.3323(2) 0.1442(2) -0.02618(15)
O9B O -0.1367(2) -0.0756(2) -0.15391(18)
C1B C 0.2636(3) -0.4961(3) 0.0990(2)
C2B C 0.2795(5) -0.4098(4) -0.0881(3)
H1B H 0.2193 -0.4104 -0.1564
H2B H 0.3395 -0.4916 -0.0868
C3B C 0.3718(3) -0.2835(3) -0.0857(2)
C4B C 0.1851(3) -0.4256(3) 0.0012(2)
H3B H 0.1027 -0.4806 -0.0250
H4B H 0.1532 -0.3342 0.0213
C5B C 0.2855(3) 0.2040(3) -0.1140(2)
C6B C 0.1276(3) 0.2057(3) -0.1409(3)
H5B H 0.0860 0.2587 -0.0868
H6B H 0.1027 0.2512 -0.2098
C7B C 0.0692(3) 0.0580(3) -0.1455(3)
H7B H 0.1094 0.0085 -0.0815
H8B H 0.1004 0.0109 -0.2069
C8B C -0.0899(3) 0.0469(3) -0.1539(2)
Mn2_2 Mn -0.37921(4) 0.20750(4) -0.16623(3)
Mn2A Mn 0.37921(4) -0.29250(4) -0.33377(3)
Mn2B_2 Mn 1.37921(4) -0.20750(4) 0.16623(3)
Mn2C Mn 0.62079(4) 0.29250(4) 0.33377(3)
Mn3_2 Mn -0.32649(4) -0.18195(4) -0.15356(3)
Mn3_3 Mn 0.67351(4) 0.81805(4) -0.15356(3)
Mn3A Mn 0.32649(4) 0.31805(4) -0.34644(3)
Mn3B_2 Mn 0.32649(4) -0.81805(4) 0.15356(3)
Mn3B_3 Mn 1.32649(4) 0.18195(4) 0.15356(3)
Mn3C Mn 0.67351(4) -0.31805(4) 0.34644(3)
O2A O 0.3667(2) 0.2445(2) 0.32422(15)
O2C O 0.6333(2) -0.2445(2) -0.32422(15)
O3_2 O 0.1627(2) -0.1567(2) 0.16136(18)
O3B_2 O 0.8373(2) 0.1567(2) -0.16136(18)
O5_2 O 0.7588(3) -0.3772(2) -0.11055(19)
O5B_2 O 0.2412(3) 0.3772(2) 0.11055(19)
O6A O 0.4485(2) -0.2272(2) 0.33829(16)
O6C O 0.5515(2) 0.2272(2) -0.33829(16)
O9_2 O 0.1367(2) 0.0756(2) 0.15391(18)
O9B_2 O 0.8633(2) -0.0756(2) -0.15391(18)
loop_
_geom_bond_atom_site_label_1
_geom_bond_atom_site_label_2
_geom_bond_site_symmetry_1
_geom_bond_site_symmetry_2
Mn1 O1 1_555 1_555
Mn2 O1 1_555 1_555
Mn3 O1 1_555 1_555
O2 C5 1_555 1_555
O3 C8 1_555 1_555
O4 Mn2 1_555 1_555
O5 C1 1_555 1_555
O6 C3 1_555 1_555
O7 Mn1 1_555 1_555
O8 Mn1 1_555 1_555
O9 C8 1_555 1_555
C1 O4 1_555 1_555
C2 H1 1_555 1_555
H2 C2 1_555 1_555
C3 O7 1_555 1_555
C4 C1 1_555 1_555
H3 C4 1_555 1_555
H4 C4 1_555 1_555
C5 O8 1_555 1_555
C6 C5 1_555 1_555
H5 C6 1_555 1_555
H6 C6 1_555 1_555
C7 C6 1_555 1_555
H7 C7 1_555 1_555
H8 C7 1_555 1_555
C8 C7 1_555 1_555
Mn2B O2 1_555 1_555
Mn3B O6 1_555 1_555
O1B Mn1 1_555 1_555
O2B Mn2 1_555 1_555
O3B C8B 1_555 1_555
O4B Mn2B 1_555 1_555
O5B C1B 1_555 1_555
O6B Mn3 1_555 1_555
O7B Mn1 1_555 1_555
O8B Mn1 1_555 1_555
O9B C8B 1_555 1_555
C1B O4B 1_555 1_555
C2B H1B 1_555 1_555
H2B C2B 1_555 1_555
C3B O6B 1_555 1_555
C4B C1B 1_555 1_555
H3B C4B 1_555 1_555
H4B C4B 1_555 1_555
C5B O2B 1_555 1_555
C6B C5B 1_555 1_555
H5B C6B 1_555 1_555
H6B C6B 1_555 1_555
C7B C6B 1_555 1_555
H7B C7B 1_555 1_555
H8B C7B 1_555 1_555
C8B C7B 1_555 1_555
Mn2_2 O3B 1_555 1_555
Mn2A O6B 1_555 1_555
Mn2B_2 O3 1_555 1_555
Mn2C O6 1_555 1_555
Mn3_2 O9B 1_555 1_555
Mn3_3 O5 1_555 1_555
Mn3A O2B 1_555 1_555
Mn3B_2 O5B 1_555 1_555
Mn3B_3 O9 1_555 1_555
Mn3C O2 1_555 1_555
O2A Mn3B 1_555 1_555
O2C Mn3 1_555 1_555
O3_2 Mn2B 1_555 1_555
O3B_2 Mn2 1_555 1_555
O5_2 Mn3 1_555 1_555
O5B_2 Mn3B 1_555 1_555
O6A Mn2B 1_555 1_555
O6C Mn2 1_555 1_555
O9_2 Mn3B 1_555 1_555
O9B_2 Mn3 1_555 1_555
Mn2 O7 1_555 1_555
Mn3 O8 1_555 1_555
C2 C3 1_555 1_555
C2 C4 1_555 1_555
Mn2B O1B 1_555 1_555
Mn2B O7B 1_555 1_555
Mn3B O1B 1_555 1_555
Mn3B O8B 1_555 1_555
O7B C3B 1_555 1_555
O8B C5B 1_555 1_555
C2B C3B 1_555 1_555
C2B C4B 1_555 1_555
Mn2A O2C 1_555 1_555
Mn2C O2A 1_555 1_555
Mn3A O6C 1_555 1_555
Mn3C O6A 1_555 1_555

#END
