
#######################################################################
#
#                 Cambridge Crystallographic Data Centre
#                                CCDC 
#
#######################################################################
#
# If this CIF has been generated from an entry in the Cambridge 
# Structural Database, then it will include bibliographic, chemical, 
# crystal, experimental, refinement or atomic coordinate data resulting 
# from the CCDC's data processing and validation procedures.
#
#######################################################################

data_YOXZER
_symmetry_cell_setting           monoclinic
_symmetry_space_group_name_H-M   'C 2/c'
_symmetry_Int_Tables_number      15
_space_group_name_Hall           '-C 2yn'
loop_
_symmetry_equiv_pos_site_id
_symmetry_equiv_pos_as_xyz
1 x,y,z
2 -x,y,1/2-z
3 1/2+x,1/2+y,z
4 1/2-x,1/2+y,1/2-z
5 -x,-y,-z
6 x,-y,1/2+z
7 1/2-x,1/2-y,-z
8 1/2+x,1/2-y,1/2+z
_cell_length_a                   23.874(3)
_cell_length_b                   9.4261(9)
_cell_length_c                   17.801(2)
_cell_angle_alpha                90
_cell_angle_beta                 112.728(2)
_cell_angle_gamma                90
_cell_volume                     3694.85
loop_
_atom_site_label
_atom_site_type_symbol
_atom_site_fract_x
_atom_site_fract_y
_atom_site_fract_z
Cu1 Cu 1.367168(19) 0.97061(5) 0.32275(3)
Cu2 Cu 1.5000 1.01814(7) 0.2500
O1 O 1.36414(12) 0.9138(3) 0.42591(16)
O2 O 1.41536(13) 0.7938(3) 0.54013(17)
O3 O 1.66108(11) 0.9015(3) 0.42386(16)
O4 O 1.5000 1.2415(6) 0.2500
N1 N 1.45549(13) 0.9099(3) 0.38082(18)
N2 N 1.50184(14) 0.9319(3) 0.35803(18)
N3 N 1.58682(13) 1.0004(4) 0.30890(19)
N4 N 1.62965(14) 1.0440(3) 0.27723(19)
N5 N 1.66790(14) 1.2172(4) 0.37889(19)
H1 H 1.6430 1.1931 0.4025
H2 H 1.6940 1.2867 0.3991
N6 N 1.79146(14) 1.3172(3) 0.26438(19)
N7 N 1.69556(14) 1.1287(3) 0.19987(19)
C1 C 1.41000(16) 0.8472(4) 0.4749(2)
C2 C 1.46445(16) 0.8448(4) 0.4508(2)
C3 C 1.52041(17) 0.7883(4) 0.5005(2)
H3 H 1.5254 0.7368 0.5485
C4 C 1.56856(16) 0.8107(4) 0.4767(2)
H4 H 1.6079 0.7748 0.5078
C5 C 1.55717(15) 0.8874(4) 0.4058(2)
C6 C 1.60805(15) 0.9300(4) 0.3795(2)
C7 C 1.66613(15) 1.1491(4) 0.3134(2)
C8 C 1.70792(16) 1.1903(4) 0.2727(2)
C9 C 1.75594(16) 1.2833(4) 0.3053(2)
H5 H 1.7642 1.3241 0.3573
C10 C 1.77750(17) 1.2600(4) 0.1913(2)
H6 H 1.8005 1.2856 0.1602
C11 C 1.72983(17) 1.1629(4) 0.1587(2)
H7 H 1.7219 1.1212 0.1070
Cu1A Cu 1.632832(19) 0.97061(5) 0.17725(3)
Cu1B Cu 1.867168(19) 1.47061(5) 0.32275(3)
Cu1C Cu 1.132832(19) 1.47061(5) 0.17725(3)
O1A O 1.63586(12) 0.9138(3) 0.07409(16)
O2A O 1.58464(13) 0.7938(3) -0.04013(17)
O3A O 1.33892(11) 0.9015(3) 0.07614(16)
N1A N 1.54451(13) 0.9099(3) 0.11918(18)
N2A N 1.49816(14) 0.9319(3) 0.14197(18)
N3A N 1.41318(13) 1.0004(4) 0.19110(19)
N4A N 1.37035(14) 1.0440(3) 0.22277(19)
N5A N 1.33210(14) 1.2172(4) 0.12111(19)
H1A H 1.3570 1.1931 0.0975
H2A H 1.3060 1.2867 0.1009
N6A N 1.20854(14) 1.3172(3) 0.23562(19)
N6B N 1.29146(14) 0.8172(3) 0.26438(19)
N6C N 1.70854(14) 0.8172(3) 0.23562(19)
N7A N 1.30444(14) 1.1287(3) 0.30013(19)
C1A C 1.59000(16) 0.8472(4) 0.0251(2)
C2A C 1.53555(16) 0.8448(4) 0.0492(2)
C3A C 1.47959(17) 0.7883(4) -0.0005(2)
H3A H 1.4746 0.7368 -0.0485
C4A C 1.43144(16) 0.8107(4) 0.0233(2)
H4A H 1.3921 0.7748 -0.0078
C5A C 1.44283(15) 0.8874(4) 0.0942(2)
C6A C 1.39195(15) 0.9300(4) 0.1205(2)
C7A C 1.33387(15) 1.1491(4) 0.1866(2)
C8A C 1.29208(16) 1.1903(4) 0.2273(2)
C9A C 1.24406(16) 1.2833(4) 0.1947(2)
H5A H 1.2358 1.3241 0.1427
C10A C 1.22250(17) 1.2600(4) 0.3087(2)
H6A H 1.1995 1.2856 0.3398
C11A C 1.27017(17) 1.1629(4) 0.3413(2)
H7A H 1.2781 1.1212 0.3930
F1 F 1.0948(3) 0.8619(5) 0.1662(4)
F2 F 1.1737(3) 0.9924(7) 0.1656(5)
F3 F 1.1321(9) 1.0267(19) 0.2554(9)
F4 F 1.0860(5) 1.0924(11) 0.1356(10)
B1 B 1.1180(5) 0.9900(9) 0.1712(9)
O5 O 1.0364(10) 0.1575(16) 0.2719(13)
O6 O 0.73400(17) 0.4583(4) 0.4628(2)
O7 O 0.6389(8) 0.5304(18) 0.4964(11)
O8 O 0.5406(12) 0.460(3) 0.3566(17)
loop_
_geom_bond_atom_site_label_1
_geom_bond_atom_site_label_2
_geom_bond_site_symmetry_1
_geom_bond_site_symmetry_2
Cu1 O1 1_555 1_555
Cu2 O4 1_555 1_555
F1 B1 1_555 1_555
F2 B1 1_555 1_555
F3 B1 1_555 1_555
F4 B1 1_555 1_555
O1 C1 1_555 1_555
O2 C1 1_555 1_555
O3 C6 1_555 1_555
N1 Cu1 1_555 1_555
N2 Cu2 1_555 1_555
N3 Cu2 1_555 1_555
N4 N3 1_555 1_555
N5 H1 1_555 1_555
H2 N5 1_555 1_555
N6 C9 1_555 1_555
N7 C8 1_555 1_555
C1 C2 1_555 1_555
C2 N1 1_555 1_555
C3 C2 1_555 1_555
H3 C3 1_555 1_555
C4 C3 1_555 1_555
H4 C4 1_555 1_555
C5 N2 1_555 1_555
C6 N3 1_555 1_555
C7 N4 1_555 1_555
C8 C7 1_555 1_555
C9 C8 1_555 1_555
H5 C9 1_555 1_555
C10 N6 1_555 1_555
H6 C10 1_555 1_555
C11 N7 1_555 1_555
H7 C11 1_555 1_555
Cu1A N4 1_555 1_555
Cu1B N6 1_555 1_555
Cu1C N6A 1_555 1_555
O1A Cu1A 1_555 1_555
O2A C1A 1_555 1_555
O3A C6A 1_555 1_555
N1A Cu1A 1_555 1_555
N2A Cu2 1_555 1_555
N3A Cu2 1_555 1_555
N4A Cu1 1_555 1_555
N5A H1A 1_555 1_555
H2A N5A 1_555 1_555
N6A C9A 1_555 1_555
N6B Cu1 1_555 1_555
N6C Cu1A 1_555 1_555
N7A Cu1 1_555 1_555
C1A O1A 1_555 1_555
C2A N1A 1_555 1_555
C3A C2A 1_555 1_555
H3A C3A 1_555 1_555
C4A C3A 1_555 1_555
H4A C4A 1_555 1_555
C5A N2A 1_555 1_555
C6A N3A 1_555 1_555
C7A N4A 1_555 1_555
C8A N7A 1_555 1_555
C9A C8A 1_555 1_555
H5A C9A 1_555 1_555
C10A N6A 1_555 1_555
H6A C10A 1_555 1_555
C11A N7A 1_555 1_555
H7A C11A 1_555 1_555
N1 N2 1_555 1_555
N5 C7 1_555 1_555
N7 Cu1A 1_555 1_555
C4 C5 1_555 1_555
C5 C6 1_555 1_555
C10 C11 1_555 1_555
N1A N2A 1_555 1_555
N3A N4A 1_555 1_555
N5A C7A 1_555 1_555
C1A C2A 1_555 1_555
C4A C5A 1_555 1_555
C5A C6A 1_555 1_555
C7A C8A 1_555 1_555
C10A C11A 1_555 1_555

#END
