
#######################################################################
#
#                 Cambridge Crystallographic Data Centre
#                                CCDC 
#
#######################################################################
#
# If this CIF has been generated from an entry in the Cambridge 
# Structural Database, then it will include bibliographic, chemical, 
# crystal, experimental, refinement or atomic coordinate data resulting 
# from the CCDC's data processing and validation procedures.
#
#######################################################################

data_YOYCEV
_symmetry_cell_setting           tetragonal
_symmetry_space_group_name_H-M   'I -4 2 d'
_symmetry_Int_Tables_number      122
_space_group_name_Hall           'I -4 2bw'
loop_
_symmetry_equiv_pos_site_id
_symmetry_equiv_pos_as_xyz
1 x,y,z
2 -x,-y,z
3 y,-x,-z
4 -y,x,-z
5 1/2-x,y,3/4-z
6 1/2+x,-y,3/4-z
7 1/2-y,-x,3/4+z
8 1/2+y,x,3/4+z
9 1/2+x,1/2+y,1/2+z
10 1/2-x,1/2-y,1/2+z
11 1/2+y,1/2-x,1/2-z
12 1/2-y,1/2+x,1/2-z
13 -x,1/2+y,1/4-z
14 x,1/2-y,1/4-z
15 -y,1/2-x,1/4+z
16 y,1/2+x,1/4+z
_cell_length_a                   24.6663(11)
_cell_length_b                   24.6663(11)
_cell_length_c                   17.6314(16)
_cell_angle_alpha                90
_cell_angle_beta                 90
_cell_angle_gamma                90
_cell_volume                     10727.4
loop_
_atom_site_label
_atom_site_type_symbol
_atom_site_fract_x
_atom_site_fract_y
_atom_site_fract_z
N6 N 0.27028(9) -0.2500 0.1250
C17 C 0.30502(9) -0.26124(10) 0.05681(12)
H37 H 0.3280 -0.2929 0.0667
H38 H 0.3280 -0.2297 0.0464
H39 H 0.2818 -0.2685 0.0128
C18 C 0.23540(9) -0.20178(9) 0.10971(12)
H40 H 0.2584 -0.1702 0.0997
H41 H 0.2124 -0.1946 0.1539
H42 H 0.2125 -0.2089 0.0654
C17M C 0.30502(9) -0.23876(10) 0.19319(12)
H37M H 0.3280 -0.2071 0.1833
H38M H 0.3280 -0.2703 0.2036
H39M H 0.2818 -0.2315 0.2372
C18M C 0.23540(9) -0.29822(9) 0.14029(12)
H40M H 0.2584 -0.3298 0.1503
H41M H 0.2124 -0.3054 0.0961
H42M H 0.2125 -0.2911 0.1846
Ni1 Ni 0.259149(9) 0.018619(9) 0.025290(13)
K1 K 0.2500 -0.20167(2) -0.1250
Si1 Si 0.32880(3) 0.01184(3) 0.16500(4)
O1 O 0.32659(5) 0.02233(5) 0.07417(8)
O2 O 0.30204(5) -0.13808(5) -0.03500(8)
O3 O 0.25859(6) 0.18571(5) 0.03860(8)
N1 N 0.18531(6) 0.01434(6) -0.00957(9)
N2 N 0.26397(6) -0.05640(6) -0.00133(9)
N3 N 0.24342(7) 0.09399(6) 0.03830(9)
N4 N 0.35685(7) -0.06721(7) -0.00521(10)
H1 H 0.3566(9) -0.0397(10) 0.0154(13)
N5 N 0.32947(7) 0.12794(7) 0.02270(12)
H2 H 0.3383(11) 0.0967(11) 0.0363(17)
C1 C 0.16799(8) -0.04230(8) 0.00346(14)
H3 H 0.1338 -0.0496 -0.0241
H4 H 0.1615 -0.0483 0.0582
C2 C 0.21196(7) -0.08009(7) -0.02437(13)
H5 H 0.2075 -0.1165 -0.0016
H6 H 0.2103 -0.0836 -0.0803
C3 C 0.30670(7) -0.08957(7) -0.01386(10)
C4 C 0.40658(8) -0.09856(8) -0.01045(13)
H7 H 0.4015 -0.1267 -0.0506
C5 C 0.42052(11) -0.12724(11) 0.06298(17)
H8 H 0.3906 -0.1513 0.0774
H9 H 0.4264 -0.1003 0.1030
H10 H 0.4536 -0.1487 0.0560
C6 C 0.45128(9) -0.06079(11) -0.03601(19)
H11 H 0.4407 -0.0432 -0.0836
H12 H 0.4847 -0.0816 -0.0439
H13 H 0.4575 -0.0331 0.0030
C7 C 0.15593(8) 0.05267(8) 0.04036(14)
H14 H 0.1547 0.0384 0.0928
H15 H 0.1182 0.0574 0.0222
C8 C 0.18536(8) 0.10655(8) 0.03904(14)
H16 H 0.1752 0.1275 -0.0067
H17 H 0.1760 0.1282 0.0845
C9 C 0.27578(8) 0.13759(7) 0.03502(11)
C10 C 0.37095(10) 0.16868(9) 0.03261(16)
H18 H 0.3551 0.2058 0.0275
C11 C 0.4042(4) 0.1653(3) 0.1001(5)
H19 H 0.3819 0.1729 0.1449
H20 H 0.4336 0.1920 0.0969
H21 H 0.4197 0.1288 0.1042
C12 C 0.4129(3) 0.1556(3) -0.0401(5)
H22 H 0.3926 0.1571 -0.0878
H23 H 0.4286 0.1194 -0.0339
H24 H 0.4419 0.1827 -0.0411
C13 C 0.17893(9) 0.02962(9) -0.09067(13)
H25 H 0.1906 0.0672 -0.0979
H26 H 0.1408 0.0261 -0.1054
H27 H 0.2012 0.0056 -0.1222
C14 C 0.28419(17) 0.06038(14) 0.21861(17)
H28 H 0.2466 0.0562 0.2017
H29 H 0.2962 0.0976 0.2090
H30 H 0.2866 0.0527 0.2730
C15 C 0.30712(13) -0.05881(11) 0.18984(15)
H31 H 0.2697 -0.0646 0.1732
H32 H 0.3094 -0.0639 0.2449
H33 H 0.3309 -0.0849 0.1645
C16 C 0.40015(15) 0.02048(13) 0.1979(2)
H34 H 0.4126 0.0572 0.1856
H35 H 0.4234 -0.0061 0.1724
H36 H 0.4019 0.0149 0.2529
Ni1B Ni 0.018619(9) -0.259149(9) -0.025290(13)
K1C K 0.20167(2) 0.2500 0.1250
K1B K -0.20167(2) -0.2500 0.1250
Si1B Si 0.01184(3) -0.32880(3) -0.16500(4)
O1B O 0.02233(5) -0.32659(5) -0.07417(8)
O2B O -0.13808(5) -0.30204(5) 0.03500(8)
O2D O 0.19796(5) -0.13808(5) -0.21500(8)
O3B O 0.18571(5) -0.25859(6) -0.03860(8)
O3F O 0.31429(5) -0.25859(6) -0.21140(8)
N1B N 0.01434(6) -0.18531(6) 0.00957(9)
N2B N -0.05640(6) -0.26397(6) 0.00133(9)
N3B N 0.09399(6) -0.24342(7) -0.03830(9)
N4B N -0.06721(7) -0.35685(7) 0.00521(10)
H1B H -0.0397(10) -0.3566(9) -0.0154(13)
N5B N 0.12794(7) -0.32947(7) -0.02270(12)
H2B H 0.0967(11) -0.3383(11) -0.0363(17)
C1B C -0.04230(8) -0.16799(8) -0.00346(14)
H3B H -0.0496 -0.1338 0.0241
H4B H -0.0483 -0.1615 -0.0582
C2B C -0.08009(7) -0.21196(7) 0.02437(13)
H5B H -0.1165 -0.2075 0.0016
H6B H -0.0836 -0.2103 0.0803
C3B C -0.08957(7) -0.30670(7) 0.01386(10)
C4B C -0.09856(8) -0.40658(8) 0.01045(13)
H7B H -0.1267 -0.4015 0.0506
C5B C -0.12724(11) -0.42052(11) -0.06298(17)
H8B H -0.1513 -0.3906 -0.0774
H9B H -0.1003 -0.4264 -0.1030
H10B H -0.1487 -0.4536 -0.0560
C6B C -0.06079(11) -0.45128(9) 0.03601(19)
H11B H -0.0432 -0.4407 0.0836
H12B H -0.0816 -0.4847 0.0439
H13B H -0.0331 -0.4575 -0.0030
C7B C 0.05267(8) -0.15593(8) -0.04036(14)
H14B H 0.0384 -0.1547 -0.0928
H15B H 0.0574 -0.1182 -0.0222
C8B C 0.10655(8) -0.18536(8) -0.03904(14)
H16B H 0.1275 -0.1752 0.0067
H17B H 0.1282 -0.1760 -0.0845
C9B C 0.13759(7) -0.27578(8) -0.03502(11)
C10B C 0.16868(9) -0.37095(10) -0.03261(16)
H18B H 0.2058 -0.3551 -0.0275
C11B C 0.1653(3) -0.4042(4) -0.1001(5)
H19B H 0.1729 -0.3819 -0.1449
H20B H 0.1920 -0.4336 -0.0969
H21B H 0.1288 -0.4197 -0.1042
C12B C 0.1556(3) -0.4129(3) 0.0401(5)
H22B H 0.1571 -0.3926 0.0878
H23B H 0.1194 -0.4286 0.0339
H24B H 0.1827 -0.4419 0.0411
C13B C 0.02962(9) -0.17893(9) 0.09067(13)
H25B H 0.0672 -0.1906 0.0979
H26B H 0.0261 -0.1408 0.1054
H27B H 0.0056 -0.2012 0.1222
C14B C 0.06038(14) -0.28419(17) -0.21861(17)
H28B H 0.0562 -0.2466 -0.2017
H29B H 0.0976 -0.2962 -0.2090
H30B H 0.0527 -0.2866 -0.2730
C15B C -0.05881(11) -0.30712(13) -0.18984(15)
H31B H -0.0646 -0.2697 -0.1732
H32B H -0.0639 -0.3094 -0.2449
H33B H -0.0849 -0.3309 -0.1645
C16B C 0.02048(13) -0.40015(15) -0.1979(2)
H34B H 0.0572 -0.4126 -0.1856
H35B H -0.0061 -0.4234 -0.1724
H36B H 0.0149 -0.4019 -0.2529
C19? C 0.3706(3) 0.1843(3) 0.1243(4)
C20? C 0.4211(2) 0.1526(3) 0.0081(6)
H43? H 0.3604 0.2002 0.0042
H44? H 0.3339 0.1953 0.1394
H45? H 0.3959 0.2143 0.1335
H46? H 0.3817 0.1527 0.1540
H47? H 0.4195 0.1439 -0.0460
H48? H 0.4326 0.1205 0.0366
H49? H 0.4472 0.1820 0.0163
loop_
_geom_bond_atom_site_label_1
_geom_bond_atom_site_label_2
_geom_bond_site_symmetry_1
_geom_bond_site_symmetry_2
Ni1 O1 1_555 1_555
K1 O2 1_555 1_555
Si1 O1 1_555 1_555
O2 C3 1_555 1_555
O3 C9 1_555 1_555
N1 Ni1 1_555 1_555
N2 Ni1 1_555 1_555
N3 Ni1 1_555 1_555
N4 H1 1_555 1_555
N5 H2 1_555 1_555
C1 N1 1_555 1_555
H3 C1 1_555 1_555
H4 C1 1_555 1_555
C2 N2 1_555 1_555
H5 C2 1_555 1_555
H6 C2 1_555 1_555
C3 N2 1_555 1_555
C4 N4 1_555 1_555
H7 C4 1_555 1_555
C5 C4 1_555 1_555
H8 C5 1_555 1_555
H9 C5 1_555 1_555
H10 C5 1_555 1_555
C6 C4 1_555 1_555
H11 C6 1_555 1_555
H12 C6 1_555 1_555
H13 C6 1_555 1_555
C7 N1 1_555 1_555
H14 C7 1_555 1_555
H15 C7 1_555 1_555
C8 N3 1_555 1_555
H16 C8 1_555 1_555
H17 C8 1_555 1_555
C9 N3 1_555 1_555
C10 N5 1_555 1_555
H18 C10 1_555 1_555
C11 C10 1_555 1_555
H19 C11 1_555 1_555
H20 C11 1_555 1_555
H21 C11 1_555 1_555
C12 C10 1_555 1_555
H22 C12 1_555 1_555
H23 C12 1_555 1_555
H24 C12 1_555 1_555
C13 N1 1_555 1_555
H25 C13 1_555 1_555
H26 C13 1_555 1_555
H27 C13 1_555 1_555
C14 Si1 1_555 1_555
H28 C14 1_555 1_555
H29 C14 1_555 1_555
H30 C14 1_555 1_555
C15 Si1 1_555 1_555
H31 C15 1_555 1_555
H32 C15 1_555 1_555
H33 C15 1_555 1_555
C16 Si1 1_555 1_555
H34 C16 1_555 1_555
H35 C16 1_555 1_555
H36 C16 1_555 1_555
N6 C17 1_555 1_555
C17 H37 1_555 1_555
H38 C17 1_555 1_555
H39 C17 1_555 1_555
C18 N6 1_555 1_555
H40 C18 1_555 1_555
H41 C18 1_555 1_555
H42 C18 1_555 1_555
Ni1B O1B 1_555 1_555
K1C O3 1_555 1_555
K1B O2B 1_555 1_555
Si1B O1B 1_555 1_555
O2B C3B 1_555 1_555
O2D K1 1_555 1_555
O3B K1 1_555 1_555
O3F K1 1_555 1_555
N1B Ni1B 1_555 1_555
N2B Ni1B 1_555 1_555
N3B Ni1B 1_555 1_555
N4B H1B 1_555 1_555
N5B H2B 1_555 1_555
C1B N1B 1_555 1_555
H3B C1B 1_555 1_555
H4B C1B 1_555 1_555
C2B N2B 1_555 1_555
H5B C2B 1_555 1_555
H6B C2B 1_555 1_555
C3B N2B 1_555 1_555
C4B N4B 1_555 1_555
H7B C4B 1_555 1_555
C5B C4B 1_555 1_555
H8B C5B 1_555 1_555
H9B C5B 1_555 1_555
H10B C5B 1_555 1_555
C6B C4B 1_555 1_555
H11B C6B 1_555 1_555
H12B C6B 1_555 1_555
H13B C6B 1_555 1_555
C7B N1B 1_555 1_555
H14B C7B 1_555 1_555
H15B C7B 1_555 1_555
C8B N3B 1_555 1_555
H16B C8B 1_555 1_555
H17B C8B 1_555 1_555
C9B O3B 1_555 1_555
C10B N5B 1_555 1_555
H18B C10B 1_555 1_555
C11B C10B 1_555 1_555
H19B C11B 1_555 1_555
H20B C11B 1_555 1_555
H21B C11B 1_555 1_555
C12B C10B 1_555 1_555
H22B C12B 1_555 1_555
H23B C12B 1_555 1_555
H24B C12B 1_555 1_555
C13B N1B 1_555 1_555
H25B C13B 1_555 1_555
H26B C13B 1_555 1_555
H27B C13B 1_555 1_555
C14B Si1B 1_555 1_555
H28B C14B 1_555 1_555
H29B C14B 1_555 1_555
H30B C14B 1_555 1_555
C15B Si1B 1_555 1_555
H31B C15B 1_555 1_555
H32B C15B 1_555 1_555
H33B C15B 1_555 1_555
C16B Si1B 1_555 1_555
H34B C16B 1_555 1_555
H35B C16B 1_555 1_555
H36B C16B 1_555 1_555
C17M N6 1_555 1_555
H37M C17M 1_555 1_555
H38M C17M 1_555 1_555
H39M C17M 1_555 1_555
C18M N6 1_555 1_555
H40M C18M 1_555 1_555
H41M C18M 1_555 1_555
H42M C18M 1_555 1_555
N4 C3 1_555 1_555
N5 C9 1_555 1_555
C1 C2 1_555 1_555
C7 C8 1_555 1_555
N3B C9B 1_555 1_555
N4B C3B 1_555 1_555
N5B C9B 1_555 1_555
C1B C2B 1_555 1_555
C7B C8B 1_555 1_555

#END
