
#######################################################################
#
#                 Cambridge Crystallographic Data Centre
#                                CCDC 
#
#######################################################################
#
# If this CIF has been generated from an entry in the Cambridge 
# Structural Database, then it will include bibliographic, chemical, 
# crystal, experimental, refinement or atomic coordinate data resulting 
# from the CCDC's data processing and validation procedures.
#
#######################################################################

data_YOYFUO
_symmetry_cell_setting           monoclinic
_symmetry_space_group_name_H-M   'C 2/c'
_symmetry_Int_Tables_number      15
_space_group_name_Hall           '-C 2yn'
loop_
_symmetry_equiv_pos_site_id
_symmetry_equiv_pos_as_xyz
1 x,y,z
2 -x,y,1/2-z
3 1/2+x,1/2+y,z
4 1/2-x,1/2+y,1/2-z
5 -x,-y,-z
6 x,-y,1/2+z
7 1/2-x,1/2-y,-z
8 1/2+x,1/2-y,1/2+z
_cell_length_a                   14.468(5)
_cell_length_b                   11.561(6)
_cell_length_c                   20.676(7)
_cell_angle_alpha                90
_cell_angle_beta                 106.737(12)
_cell_angle_gamma                90
_cell_volume                     3311.85
loop_
_atom_site_label
_atom_site_type_symbol
_atom_site_fract_x
_atom_site_fract_y
_atom_site_fract_z
Cu1 Cu 0.7500 0.2500 0.5000
C1 C 0.8821(2) 0.0461(3) 0.52927(16)
C2 C 0.8295(3) -0.0286(3) 0.47882(18)
H1 H 0.7792 -0.0018 0.4430
C3 C 0.8555(3) -0.1436(4) 0.4846(2)
H2 H 0.8219 -0.1952 0.4517
C4 C 0.9302(4) -0.1850(4) 0.5378(2)
H3 H 0.9448 -0.2635 0.5399
C5 C 0.9828(3) -0.1130(4) 0.5874(2)
H4 H 1.0329 -0.1408 0.6230
C6 C 0.9578(3) 0.0041(3) 0.58187(17)
C7 C 0.9459(2) 0.1930(3) 0.59189(17)
C8 C 0.9721(3) 0.3126(4) 0.6175(2)
H5 H 1.0397 0.3132 0.6433
H6 H 0.9349 0.3319 0.6483
C9 C 0.9562(4) 0.4050(4) 0.5650(3)
H7 H 0.9752 0.4784 0.5865
H8 H 0.8891 0.4074 0.5400
H9 H 0.9941 0.3886 0.5349
C10 C 1.0750(3) 0.0939(4) 0.68480(18)
H10 H 1.1145 0.0261 0.6846
H11 H 1.1157 0.1615 0.6880
C11 C 1.0403(6) 0.0895(7) 0.7432(5)
H12 H 1.0714 0.0205 0.7662
H13 H 1.0742 0.1534 0.7703
C12 C 0.7212(3) 0.2857(3) 0.69377(17)
C13 C 0.6716(3) 0.2379(3) 0.7351(2)
H14 H 0.6301 0.1762 0.7191
C14 C 0.6823(3) 0.2795(4) 0.7998(2)
H15 H 0.6479 0.2455 0.8265
C15 C 0.7440(3) 0.3717(3) 0.82504(17)
C16 C 0.7932(3) 0.4210(3) 0.78341(18)
H16 H 0.8346 0.4829 0.7991
C17 C 0.7813(3) 0.3793(3) 0.71886(17)
H17 H 0.8142 0.4146 0.6916
C18 C 0.7109(3) 0.2394(3) 0.62409(18)
N1 N 0.9970(2) 0.0985(3) 0.62072(14)
N2 N 0.8747(2) 0.1641(2) 0.53799(13)
O1 O 0.6639(3) 0.1509(3) 0.60452(15)
O2 O 0.7548(2) 0.2982(3) 0.58985(12)
N3 N 0.7592(4) 0.4112(4) 0.88991(18)
H18 H 0.717(4) 0.388(5) 0.914(3)
H19 H 0.776(4) 0.476(5) 0.896(3)
Cu1A Cu 1.2500 0.2500 1.0000
C1A C 1.1179(2) 0.0461(3) 0.97073(16)
C2A C 1.1705(3) -0.0286(3) 1.02118(18)
H1A H 1.2208 -0.0018 1.0570
C3A C 1.1445(3) -0.1436(4) 1.0154(2)
H2A H 1.1781 -0.1952 1.0483
C4A C 1.0698(4) -0.1850(4) 0.9622(2)
H3A H 1.0552 -0.2635 0.9601
C5A C 1.0172(3) -0.1130(4) 0.9126(2)
H4A H 0.9671 -0.1408 0.8770
C6A C 1.0422(3) 0.0041(3) 0.91813(17)
C7A C 1.0541(2) 0.1930(3) 0.90811(17)
C8A C 1.0279(3) 0.3126(4) 0.8825(2)
H5A H 0.9603 0.3132 0.8567
H6A H 1.0651 0.3319 0.8517
C9A C 1.0438(4) 0.4050(4) 0.9350(3)
H7A H 1.0248 0.4784 0.9135
H8A H 1.1109 0.4074 0.9600
H9A H 1.0059 0.3886 0.9651
C10A C 0.9250(3) 0.0939(4) 0.81520(18)
H10A H 0.8855 0.0261 0.8154
H11A H 0.8843 0.1615 0.8120
C11A C 0.9597(6) 0.0895(7) 0.7568(5)
H12A H 0.9286 0.0205 0.7338
H13A H 0.9258 0.1534 0.7297
C12F C 0.7788(3) 0.2143(3) 0.30623(17)
C13F C 0.8284(3) 0.2621(3) 0.2649(2)
H14F H 0.8699 0.3238 0.2809
C14F C 0.8177(3) 0.2205(4) 0.2002(2)
H15F H 0.8521 0.2545 0.1735
C15F C 0.7560(3) 0.1283(3) 0.17496(17)
C16F C 0.7068(3) 0.0790(3) 0.21659(18)
H16F H 0.6654 0.0171 0.2009
C17F C 0.7187(3) 0.1207(3) 0.28114(17)
H17F H 0.6858 0.0854 0.3084
C18F C 0.7891(3) 0.2606(3) 0.37591(18)
N1A N 1.0030(2) 0.0985(3) 0.87928(14)
N2A N 1.1253(2) 0.1641(2) 0.96201(13)
N2F N 0.6253(2) 0.3359(2) 0.46201(13)
O1F O 0.8361(3) 0.3491(3) 0.39548(15)
O2F O 0.7452(2) 0.2018(3) 0.41015(12)
N3F N 0.7408(4) 0.0888(4) 0.11009(18)
H18F H 0.783(4) 0.112(5) 0.086(3)
H19F H 0.724(4) 0.024(5) 0.104(3)
loop_
_geom_bond_atom_site_label_1
_geom_bond_atom_site_label_2
_geom_bond_site_symmetry_1
_geom_bond_site_symmetry_2
Cu1 N2 1_555 1_555
C1 C2 1_555 1_555
C2 H1 1_555 1_555
C3 C2 1_555 1_555
H2 C3 1_555 1_555
C4 C3 1_555 1_555
H3 C4 1_555 1_555
C5 C4 1_555 1_555
H4 C5 1_555 1_555
C6 C1 1_555 1_555
C7 C8 1_555 1_555
C8 H5 1_555 1_555
H6 C8 1_555 1_555
C9 C8 1_555 1_555
H7 C9 1_555 1_555
H8 C9 1_555 1_555
H9 C9 1_555 1_555
C10 H10 1_555 1_555
H11 C10 1_555 1_555
C11 C10 1_555 1_555
H12 C11 1_555 1_555
H13 C11 1_555 1_555
C12 C13 1_555 1_555
C13 H14 1_555 1_555
C14 C13 1_555 1_555
H15 C14 1_555 1_555
C15 C14 1_555 1_555
C16 C15 1_555 1_555
H16 C16 1_555 1_555
C17 C12 1_555 1_555
H17 C17 1_555 1_555
C18 C12 1_555 1_555
N1 C6 1_555 1_555
N2 C1 1_555 1_555
O1 C18 1_555 1_555
O2 Cu1 1_555 1_555
N3 C15 1_555 1_555
H18 N3 1_555 1_555
H19 N3 1_555 1_555
Cu1A N2A 1_555 1_555
C1A C2A 1_555 1_555
C2A H1A 1_555 1_555
C3A C2A 1_555 1_555
H2A C3A 1_555 1_555
C4A C3A 1_555 1_555
H3A C4A 1_555 1_555
C5A C4A 1_555 1_555
H4A C5A 1_555 1_555
C6A C1A 1_555 1_555
C7A C8A 1_555 1_555
C8A H5A 1_555 1_555
H6A C8A 1_555 1_555
C9A C8A 1_555 1_555
H7A C9A 1_555 1_555
H8A C9A 1_555 1_555
H9A C9A 1_555 1_555
C10A H10A 1_555 1_555
H11A C10A 1_555 1_555
C11A C11 1_555 1_555
H12A C11A 1_555 1_555
H13A C11A 1_555 1_555
C12F C13F 1_555 1_555
C13F H14F 1_555 1_555
C14F C13F 1_555 1_555
H15F C14F 1_555 1_555
C15F C14F 1_555 1_555
C16F C15F 1_555 1_555
H16F C16F 1_555 1_555
C17F C12F 1_555 1_555
H17F C17F 1_555 1_555
C18F C12F 1_555 1_555
N1A C6A 1_555 1_555
N2A C1A 1_555 1_555
N2F Cu1 1_555 1_555
O1F C18F 1_555 1_555
O2F Cu1 1_555 1_555
N3F C15F 1_555 1_555
H18F N3F 1_555 1_555
H19F N3F 1_555 1_555
C5 C6 1_555 1_555
C7 N1 1_555 1_555
C7 N2 1_555 1_555
C10 N1 1_555 1_555
C16 C17 1_555 1_555
C18 O2 1_555 1_555
C5A C6A 1_555 1_555
C7A N1A 1_555 1_555
C7A N2A 1_555 1_555
C10A C11A 1_555 1_555
C10A N1A 1_555 1_555
C16F C17F 1_555 1_555
C18F O2F 1_555 1_555

#END
