
#######################################################################
#
#                 Cambridge Crystallographic Data Centre
#                                CCDC 
#
#######################################################################
#
# If this CIF has been generated from an entry in the Cambridge 
# Structural Database, then it will include bibliographic, chemical, 
# crystal, experimental, refinement or atomic coordinate data resulting 
# from the CCDC's data processing and validation procedures.
#
#######################################################################

data_YOYFIC
_symmetry_cell_setting           triclinic
_symmetry_space_group_name_H-M   'P -1'
_symmetry_Int_Tables_number      2
_space_group_name_Hall           '-P 1'
loop_
_symmetry_equiv_pos_site_id
_symmetry_equiv_pos_as_xyz
1 x,y,z
2 -x,-y,-z
_cell_length_a                   8.693(5)
_cell_length_b                   9.448(7)
_cell_length_c                   10.949(7)
_cell_angle_alpha                82.35(3)
_cell_angle_beta                 87.79(2)
_cell_angle_gamma                80.26(3)
_cell_volume                     878.288
loop_
_atom_site_label
_atom_site_type_symbol
_atom_site_fract_x
_atom_site_fract_y
_atom_site_fract_z
Cu1 Cu 0.5000 0.0000 0.5000
C1 C 0.3061(5) 0.1086(4) 0.6700(4)
C2 C 0.2363(5) 0.1365(4) 0.7933(4)
C3 C 0.3089(6) 0.0736(6) 0.9012(4)
H1 H 0.4043 0.0123 0.8977
C4 C 0.2435(8) 0.0995(8) 1.0139(5)
H2 H 0.2938 0.0548 1.0858
C5 C 0.1025(7) 0.1921(7) 1.0204(5)
C6 C 0.0296(6) 0.2583(6) 0.9145(5)
H3 H -0.0641 0.3219 0.9182
C7 C 0.0965(5) 0.2297(5) 0.8016(4)
H4 H 0.0462 0.2743 0.7297
C8 C -0.1040(9) 0.2887(11) 1.1497(7)
H5 H -0.1256 0.2972 1.2353
H6 H -0.1776 0.2372 1.1195
H7 H -0.1125 0.3836 1.1038
C9 C 0.3964(4) -0.4134(4) 0.6315(4)
C10 C 0.4180(6) -0.5350(5) 0.7214(5)
H8 H 0.3703 -0.6150 0.7165
C11 C 0.5117(7) -0.5296(6) 0.8157(5)
H9 H 0.5264 -0.6071 0.8784
C12 C 0.5871(6) -0.4121(6) 0.8225(4)
H10 H 0.6518 -0.4141 0.8886
C13 C 0.5683(5) -0.2927(5) 0.7336(4)
H11 H 0.6193 -0.2146 0.7383
C14 C 0.4703(4) -0.2938(4) 0.6369(4)
C15 C 0.3340(4) -0.2488(4) 0.4687(4)
C16 C 0.2616(5) -0.1751(5) 0.3530(4)
H12 H 0.2209 -0.2450 0.3114
H13 H 0.3406 -0.1369 0.2997
C17 C 0.1328(7) -0.0548(6) 0.3737(6)
H14 H 0.0896 -0.0097 0.2959
H15 H 0.1728 0.0155 0.4138
H16 H 0.0529 -0.0924 0.4247
C18 C 0.2150(5) -0.4759(5) 0.4793(4)
H17 H 0.2612 -0.5759 0.5047
H18 H 0.2151 -0.4604 0.3899
C19 C 0.0487(4) -0.4510(4) 0.5267(4)
H19 H 0.0027 -0.3504 0.5040
H20 H 0.0474 -0.4709 0.6159
N1 N 0.3112(4) -0.3807(4) 0.5238(3)
N2 N 0.4296(4) -0.1918(3) 0.5340(3)
O1 O 0.4399(3) 0.0290(3) 0.6700(2)
O2 O 0.2355(4) 0.1623(4) 0.5752(3)
O3 O 0.0478(6) 0.2130(7) 1.1359(4)
Cu1_2 Cu -0.5000 -1.0000 0.5000
C1A C 0.6939(5) -0.1086(4) 0.3300(4)
C2A C 0.7637(5) -0.1365(4) 0.2067(4)
C3A C 0.6911(6) -0.0736(6) 0.0988(4)
H1A H 0.5957 -0.0123 0.1023
C4A C 0.7565(8) -0.0995(8) -0.0139(5)
H2A H 0.7062 -0.0548 -0.0858
C5A C 0.8975(7) -0.1921(7) -0.0204(5)
C6A C 0.9704(6) -0.2583(6) 0.0855(5)
H3A H 1.0641 -0.3219 0.0818
C7A C 0.9035(5) -0.2297(5) 0.1984(4)
H4A H 0.9538 -0.2743 0.2703
C8A C 1.1040(9) -0.2887(11) -0.1497(7)
H5A H 1.1256 -0.2972 -0.2353
H6A H 1.1776 -0.2372 -0.1195
H7A H 1.1125 -0.3836 -0.1038
C9A C -0.3964(4) -0.5866(4) 0.3685(4)
C10A C -0.4180(6) -0.4650(5) 0.2786(5)
H8A H -0.3703 -0.3850 0.2835
C11A C -0.5117(7) -0.4704(6) 0.1843(5)
H9A H -0.5264 -0.3929 0.1216
C12A C -0.5871(6) -0.5879(6) 0.1775(4)
H10A H -0.6518 -0.5859 0.1114
C13A C -0.5683(5) -0.7073(5) 0.2664(4)
H11A H -0.6193 -0.7854 0.2617
C14A C -0.4703(4) -0.7062(4) 0.3631(4)
C15A C -0.3340(4) -0.7512(4) 0.5313(4)
C16A C -0.2616(5) -0.8249(5) 0.6470(4)
H12A H -0.2209 -0.7550 0.6886
H13A H -0.3406 -0.8631 0.7003
C17A C -0.1328(7) -0.9452(6) 0.6263(6)
H14A H -0.0896 -0.9903 0.7041
H15A H -0.1728 -1.0155 0.5862
H16A H -0.0529 -0.9076 0.5753
C18A C -0.2150(5) -0.5241(5) 0.5207(4)
H17A H -0.2612 -0.4241 0.4953
H18A H -0.2151 -0.5396 0.6101
C19A C -0.0487(4) -0.5490(4) 0.4733(4)
H19A H -0.0027 -0.6496 0.4960
H20A H -0.0474 -0.5291 0.3841
N1A N -0.3112(4) -0.6193(4) 0.4762(3)
N2A N -0.4296(4) -0.8082(3) 0.4660(3)
N2A_2 N 0.5704(4) 0.1918(3) 0.4660(3)
O1A O 0.5601(3) -0.0290(3) 0.3300(2)
O2A O 0.7645(4) -0.1623(4) 0.4248(3)
O3A O 0.9522(6) -0.2130(7) -0.1359(4)
loop_
_geom_bond_atom_site_label_1
_geom_bond_atom_site_label_2
_geom_bond_site_symmetry_1
_geom_bond_site_symmetry_2
Cu1 N2 1_555 1_555
C1 C2 1_555 1_555
C2 C3 1_555 1_555
C3 H1 1_555 1_555
C4 C3 1_555 1_555
H2 C4 1_555 1_555
C5 C4 1_555 1_555
C6 C5 1_555 1_555
H3 C6 1_555 1_555
C7 C2 1_555 1_555
H4 C7 1_555 1_555
C8 H5 1_555 1_555
H6 C8 1_555 1_555
H7 C8 1_555 1_555
C9 C10 1_555 1_555
C10 H8 1_555 1_555
C11 C10 1_555 1_555
H9 C11 1_555 1_555
C12 C11 1_555 1_555
H10 C12 1_555 1_555
C13 C12 1_555 1_555
H11 C13 1_555 1_555
C14 C9 1_555 1_555
C15 C16 1_555 1_555
C16 H12 1_555 1_555
H13 C16 1_555 1_555
C17 C16 1_555 1_555
H14 C17 1_555 1_555
H15 C17 1_555 1_555
H16 C17 1_555 1_555
C18 H17 1_555 1_555
H18 C18 1_555 1_555
C19 C18 1_555 1_555
H19 C19 1_555 1_555
H20 C19 1_555 1_555
N1 C9 1_555 1_555
N2 C14 1_555 1_555
O1 Cu1 1_555 1_555
O2 C1 1_555 1_555
O3 C5 1_555 1_555
Cu1_2 N2A 1_555 1_555
C1A C2A 1_555 1_555
C2A C3A 1_555 1_555
C3A H1A 1_555 1_555
C4A C3A 1_555 1_555
H2A C4A 1_555 1_555
C5A C4A 1_555 1_555
C6A C5A 1_555 1_555
H3A C6A 1_555 1_555
C7A C2A 1_555 1_555
H4A C7A 1_555 1_555
C8A H5A 1_555 1_555
H6A C8A 1_555 1_555
H7A C8A 1_555 1_555
C9A C10A 1_555 1_555
C10A H8A 1_555 1_555
C11A C10A 1_555 1_555
H9A C11A 1_555 1_555
C12A C11A 1_555 1_555
H10A C12A 1_555 1_555
C13A C12A 1_555 1_555
H11A C13A 1_555 1_555
C14A C9A 1_555 1_555
C15A C16A 1_555 1_555
C16A H12A 1_555 1_555
H13A C16A 1_555 1_555
C17A C16A 1_555 1_555
H14A C17A 1_555 1_555
H15A C17A 1_555 1_555
H16A C17A 1_555 1_555
C18A H17A 1_555 1_555
H18A C18A 1_555 1_555
C19A C19 1_555 1_555
H19A C19A 1_555 1_555
H20A C19A 1_555 1_555
N1A C9A 1_555 1_555
N2A C14A 1_555 1_555
N2A_2 Cu1 1_555 1_555
O1A Cu1 1_555 1_555
O2A C1A 1_555 1_555
O3A C5A 1_555 1_555
C1 O1 1_555 1_555
C6 C7 1_555 1_555
C8 O3 1_555 1_555
C13 C14 1_555 1_555
C15 N1 1_555 1_555
C15 N2 1_555 1_555
C18 N1 1_555 1_555
C1A O1A 1_555 1_555
C6A C7A 1_555 1_555
C8A O3A 1_555 1_555
C13A C14A 1_555 1_555
C15A N1A 1_555 1_555
C15A N2A 1_555 1_555
C18A C19A 1_555 1_555
C18A N1A 1_555 1_555

#END
