
#######################################################################
#
#                 Cambridge Crystallographic Data Centre
#                                CCDC 
#
#######################################################################
#
# If this CIF has been generated from an entry in the Cambridge 
# Structural Database, then it will include bibliographic, chemical, 
# crystal, experimental, refinement or atomic coordinate data resulting 
# from the CCDC's data processing and validation procedures.
#
#######################################################################

data_YOYFEY
_symmetry_cell_setting           triclinic
_symmetry_space_group_name_H-M   'P -1'
_symmetry_Int_Tables_number      2
_space_group_name_Hall           '-P 1'
loop_
_symmetry_equiv_pos_site_id
_symmetry_equiv_pos_as_xyz
1 x,y,z
2 -x,-y,-z
_cell_length_a                   8.460(2)
_cell_length_b                   9.355(3)
_cell_length_c                   10.780(3)
_cell_angle_alpha                76.963(5)
_cell_angle_beta                 85.67(5)
_cell_angle_gamma                78.324(4)
_cell_volume                     813.577
loop_
_atom_site_label
_atom_site_type_symbol
_atom_site_fract_x
_atom_site_fract_y
_atom_site_fract_z
Cu1 Cu 0.5000 0.0000 0.0000
C1 C 0.7033(4) -0.0913(4) -0.1779(3)
C2 C 0.7702(4) -0.1108(4) -0.3068(3)
C3 C 0.9164(5) -0.2025(4) -0.3211(4)
H1 H 0.9759 -0.2503 -0.2492
C4 C 0.9777(5) -0.2258(5) -0.4390(4)
H2 H 1.0762 -0.2894 -0.4459
C5 C 0.8915(5) -0.1539(6) -0.5457(4)
C6 C 0.7450(6) -0.0606(6) -0.5328(4)
H3 H 0.6855 -0.0120 -0.6045
C7 C 0.6871(5) -0.0396(5) -0.4155(4)
H4 H 0.5889 0.0246 -0.4087
C8 C 1.0891(8) -0.2549(9) -0.6883(6)
H5 H 1.1050 -0.2551 -0.7774
H6 H 1.0936 -0.3554 -0.6405
H7 H 1.1723 -0.2135 -0.6613
C9 C 0.2297(5) -0.1484(4) -0.1191(4)
H8 H 0.1642 -0.2066 -0.1476
H9 H 0.3027 -0.1148 -0.1869
H10 H 0.1617 -0.0635 -0.0942
C10 C 0.3227(4) -0.2408(4) -0.0093(3)
C11 C 0.4073(4) -0.4312(4) 0.1486(3)
C12 C 0.4784(4) -0.3103(4) 0.1532(3)
C13 C 0.5855(5) -0.3210(4) 0.2474(4)
H11 H 0.6358 -0.2419 0.2495
C14 C 0.6152(6) -0.4532(5) 0.3382(4)
H12 H 0.6841 -0.4623 0.4040
C15 C 0.5436(6) -0.5724(5) 0.3324(4)
H13 H 0.5671 -0.6602 0.3942
C16 C 0.4382(5) -0.5653(4) 0.2378(4)
H14 H 0.3910 -0.6457 0.2343
C17 C 0.2202(4) -0.4755(4) -0.0067(4)
H15 H 0.2692 -0.5800 0.0216
H16 H 0.2297 -0.4510 -0.0990
C18 C 0.0426(4) -0.4543(4) 0.0330(3)
H17 H -0.0067 -0.3493 0.0095
H18 H 0.0311 -0.4867 0.1247
N1 N 0.4254(3) -0.1942(3) 0.0519(3)
N2 N 0.3101(3) -0.3843(3) 0.0443(3)
O1 O 0.5537(3) -0.0292(3) -0.1734(2)
O2 O 0.7876(4) -0.1311(3) -0.0850(3)
O3 O 0.9371(5) -0.1677(5) -0.6673(3)
Cu1_2 Cu -0.5000 -1.0000 0.0000
C1A C 0.2967(4) 0.0913(4) 0.1779(3)
C2A C 0.2298(4) 0.1108(4) 0.3068(3)
C3A C 0.0836(5) 0.2025(4) 0.3211(4)
H1A H 0.0241 0.2503 0.2492
C4A C 0.0223(5) 0.2258(5) 0.4390(4)
H2A H -0.0762 0.2894 0.4459
C5A C 0.1085(5) 0.1539(6) 0.5457(4)
C6A C 0.2550(6) 0.0606(6) 0.5328(4)
H3A H 0.3145 0.0120 0.6045
C7A C 0.3129(5) 0.0396(5) 0.4155(4)
H4A H 0.4111 -0.0246 0.4087
C8A C -0.0891(8) 0.2549(9) 0.6883(6)
H5A H -0.1050 0.2551 0.7774
H6A H -0.0936 0.3554 0.6405
H7A H -0.1723 0.2135 0.6613
C9A C -0.2297(5) -0.8516(4) 0.1191(4)
H8A H -0.1642 -0.7934 0.1476
H9A H -0.3027 -0.8852 0.1869
H10A H -0.1617 -0.9365 0.0942
C10A C -0.3227(4) -0.7592(4) 0.0093(3)
C11A C -0.4073(4) -0.5688(4) -0.1486(3)
C12A C -0.4784(4) -0.6897(4) -0.1532(3)
C13A C -0.5855(5) -0.6790(4) -0.2474(4)
H11A H -0.6358 -0.7581 -0.2495
C14A C -0.6152(6) -0.5468(5) -0.3382(4)
H12A H -0.6841 -0.5377 -0.4040
C15A C -0.5436(6) -0.4276(5) -0.3324(4)
H13A H -0.5671 -0.3398 -0.3942
C16A C -0.4382(5) -0.4347(4) -0.2378(4)
H14A H -0.3910 -0.3543 -0.2343
C17A C -0.2202(4) -0.5245(4) 0.0067(4)
H15A H -0.2692 -0.4200 -0.0216
H16A H -0.2297 -0.5490 0.0990
C18A C -0.0426(4) -0.5457(4) -0.0330(3)
H17A H 0.0067 -0.6507 -0.0095
H18A H -0.0311 -0.5133 -0.1247
N1A N -0.4254(3) -0.8058(3) -0.0519(3)
N1A_2 N 0.5746(3) 0.1942(3) -0.0519(3)
N2A N -0.3101(3) -0.6157(3) -0.0443(3)
O1A O 0.4463(3) 0.0292(3) 0.1734(2)
O2A O 0.2124(4) 0.1311(3) 0.0850(3)
O3A O 0.0629(5) 0.1677(5) 0.6673(3)
loop_
_geom_bond_atom_site_label_1
_geom_bond_atom_site_label_2
_geom_bond_site_symmetry_1
_geom_bond_site_symmetry_2
Cu1 N1 1_555 1_555
C1 C2 1_555 1_555
C2 C3 1_555 1_555
C3 H1 1_555 1_555
C4 C3 1_555 1_555
H2 C4 1_555 1_555
C5 C4 1_555 1_555
C6 C5 1_555 1_555
H3 C6 1_555 1_555
C7 C2 1_555 1_555
H4 C7 1_555 1_555
C8 H5 1_555 1_555
H6 C8 1_555 1_555
H7 C8 1_555 1_555
C9 H8 1_555 1_555
H9 C9 1_555 1_555
H10 C9 1_555 1_555
C10 C9 1_555 1_555
C11 C12 1_555 1_555
C12 C13 1_555 1_555
C13 H11 1_555 1_555
C14 C13 1_555 1_555
H12 C14 1_555 1_555
C15 C14 1_555 1_555
H13 C15 1_555 1_555
C16 C11 1_555 1_555
H14 C16 1_555 1_555
C17 H15 1_555 1_555
H16 C17 1_555 1_555
C18 C17 1_555 1_555
H17 C18 1_555 1_555
H18 C18 1_555 1_555
N1 C10 1_555 1_555
N2 C10 1_555 1_555
O1 Cu1 1_555 1_555
O2 C1 1_555 1_555
O3 C5 1_555 1_555
Cu1_2 N1A 1_555 1_555
C1A C2A 1_555 1_555
C2A C3A 1_555 1_555
C3A H1A 1_555 1_555
C4A C3A 1_555 1_555
H2A C4A 1_555 1_555
C5A C4A 1_555 1_555
C6A C5A 1_555 1_555
H3A C6A 1_555 1_555
C7A C2A 1_555 1_555
H4A C7A 1_555 1_555
C8A H5A 1_555 1_555
H6A C8A 1_555 1_555
H7A C8A 1_555 1_555
C9A H8A 1_555 1_555
H9A C9A 1_555 1_555
H10A C9A 1_555 1_555
C10A C9A 1_555 1_555
C11A C12A 1_555 1_555
C12A C13A 1_555 1_555
C13A H11A 1_555 1_555
C14A C13A 1_555 1_555
H12A C14A 1_555 1_555
C15A C14A 1_555 1_555
H13A C15A 1_555 1_555
C16A C11A 1_555 1_555
H14A C16A 1_555 1_555
C17A H15A 1_555 1_555
H16A C17A 1_555 1_555
C18A C18 1_555 1_555
H17A C18A 1_555 1_555
H18A C18A 1_555 1_555
N1A C10A 1_555 1_555
N1A_2 Cu1 1_555 1_555
N2A C10A 1_555 1_555
O1A Cu1 1_555 1_555
O2A C1A 1_555 1_555
O3A C5A 1_555 1_555
C1 O1 1_555 1_555
C6 C7 1_555 1_555
C8 O3 1_555 1_555
C11 N2 1_555 1_555
C12 N1 1_555 1_555
C15 C16 1_555 1_555
C17 N2 1_555 1_555
C1A O1A 1_555 1_555
C6A C7A 1_555 1_555
C8A O3A 1_555 1_555
C11A N2A 1_555 1_555
C12A N1A 1_555 1_555
C15A C16A 1_555 1_555
C17A C18A 1_555 1_555
C17A N2A 1_555 1_555

#END
