
#######################################################################
#
#                 Cambridge Crystallographic Data Centre
#                                CCDC 
#
#######################################################################
#
# If this CIF has been generated from an entry in the Cambridge 
# Structural Database, then it will include bibliographic, chemical, 
# crystal, experimental, refinement or atomic coordinate data resulting 
# from the CCDC's data processing and validation procedures.
#
#######################################################################

data_YOYGID
_symmetry_cell_setting           triclinic
_symmetry_space_group_name_H-M   'P -1'
_symmetry_Int_Tables_number      2
_space_group_name_Hall           '-P 1'
loop_
_symmetry_equiv_pos_site_id
_symmetry_equiv_pos_as_xyz
1 x,y,z
2 -x,-y,-z
_cell_length_a                   8.376(5)
_cell_length_b                   11.688(5)
_cell_length_c                   14.103(7)
_cell_angle_alpha                87.790(19)
_cell_angle_beta                 85.33(2)
_cell_angle_gamma                85.19(2)
_cell_volume                     1370.54
loop_
_atom_site_label
_atom_site_type_symbol
_atom_site_fract_x
_atom_site_fract_y
_atom_site_fract_z
Ag1 Ag 0.65863(3) 0.48665(2) 0.773820(18)
C1 C 0.8960(4) 0.3365(2) 1.0134(2)
C2 C 0.9189(5) 0.3380(3) 1.1092(2)
H1 H 0.9823 0.2804 1.1390
C3 C 0.8429(5) 0.4293(4) 1.1582(3)
H2 H 0.8561 0.4335 1.2228
C4 C 0.7469(5) 0.5156(3) 1.1148(3)
H3 H 0.6972 0.5756 1.1507
C5 C 0.7248(4) 0.5132(3) 1.0195(2)
H4 H 0.6615 0.5712 0.9901
C6 C 0.7996(4) 0.4217(2) 0.9681(2)
C7 C 0.8879(4) 0.2986(2) 0.8612(2)
C8 C 0.9234(5) 0.2422(3) 0.7677(2)
H5 H 0.8274 0.2499 0.7331
H6 H 0.9518 0.1610 0.7788
C9 C 1.0579(5) 0.2936(3) 0.7083(3)
H7 H 1.0759 0.2556 0.6488
H8 H 1.1539 0.2841 0.7416
H9 H 1.0298 0.3739 0.6966
C10 C 1.0508(4) 0.1527(3) 0.9584(3)
H10 H 1.1250 0.1639 1.0059
H11 H 1.1135 0.1321 0.8997
C11 C 0.9480(4) 0.0553(3) 0.9916(3)
H12 H 0.8850 0.0759 1.0501
H13 H 0.8743 0.0436 0.9439
C12 C 0.4365(4) 0.5819(3) 0.6143(2)
C13 C 0.3388(4) 0.4919(3) 0.6121(2)
H14 H 0.3439 0.4310 0.6565
C14 C 0.2342(4) 0.4967(3) 0.5417(3)
H15 H 0.1656 0.4385 0.5393
C15 C 0.2279(5) 0.5867(3) 0.4734(3)
H16 H 0.1556 0.5864 0.4268
C16 C 0.3254(4) 0.6754(3) 0.4733(2)
H17 H 0.3218 0.7350 0.4277
C17 C 0.4294(4) 0.6710(3) 0.5450(2)
C19 C 0.6167(4) 0.6969(3) 0.6422(2)
C20 C 0.9131(5) 0.7071(4) 0.6396(4)
H18 H 0.9951 0.7416 0.6697
H19 H 0.9185 0.7292 0.5732
H20 H 0.9292 0.6250 0.6465
C21 C 0.5877(5) 0.8440(3) 0.5077(3)
H21 H 0.5861 0.8282 0.4407
H22 H 0.6962 0.8604 0.5187
C22 C 0.4756(5) 0.9480(3) 0.5301(2)
H23 H 0.4765 0.9643 0.5970
H24 H 0.3671 0.9327 0.5183
C27 C 0.7497(5) 0.7475(3) 0.6860(3)
H28 H 0.7455 0.7263 0.7533
H29 H 0.7348 0.8306 0.6800
N1 N 0.9518(3) 0.2601(2) 0.94244(18)
N2 N 0.7964(3) 0.3956(2) 0.87356(19)
N3 N 0.5537(3) 0.6010(2) 0.67412(18)
N4 N 0.5464(4) 0.7416(2) 0.5646(2)
Ag1A Ag 1.34137(3) -0.48665(2) 1.226180(18)
Ag1A_2 Ag 0.34137(3) 1.51335(2) 0.226180(18)
C1A C 1.1040(4) -0.3365(2) 0.9866(2)
C2A C 1.0811(5) -0.3380(3) 0.8908(2)
H1A H 1.0177 -0.2804 0.8610
C3A C 1.1571(5) -0.4293(4) 0.8418(3)
H2A H 1.1439 -0.4335 0.7772
C4A C 1.2531(5) -0.5156(3) 0.8852(3)
H3A H 1.3028 -0.5756 0.8493
C5A C 1.2752(4) -0.5132(3) 0.9805(2)
H4A H 1.3385 -0.5712 1.0099
C6A C 1.2004(4) -0.4217(2) 1.0319(2)
C7A C 1.1121(4) -0.2986(2) 1.1388(2)
C8A C 1.0766(5) -0.2422(3) 1.2323(2)
H5A H 1.1726 -0.2499 1.2669
H6A H 1.0482 -0.1610 1.2212
C9A C 0.9421(5) -0.2936(3) 1.2917(3)
H7A H 0.9241 -0.2556 1.3512
H8A H 0.8461 -0.2841 1.2584
H9A H 0.9702 -0.3739 1.3034
C10A C 0.9492(4) -0.1527(3) 1.0416(3)
H10A H 0.8750 -0.1639 0.9941
H11A H 0.8865 -0.1321 1.1003
C11A C 1.0520(4) -0.0553(3) 1.0084(3)
H12A H 1.1150 -0.0759 0.9499
H13A H 1.1257 -0.0436 1.0561
C12A C 0.5635(4) 1.4181(3) 0.3857(2)
C13A C 0.6612(4) 1.5081(3) 0.3879(2)
H14A H 0.6561 1.5690 0.3435
C14A C 0.7658(4) 1.5033(3) 0.4583(3)
H15A H 0.8344 1.5615 0.4607
C15A C 0.7721(5) 1.4133(3) 0.5266(3)
H16A H 0.8444 1.4136 0.5732
C16A C 0.6746(4) 1.3246(3) 0.5267(2)
H17A H 0.6782 1.2650 0.5723
C17A C 0.5706(4) 1.3290(3) 0.4550(2)
C19A C 0.3833(4) 1.3031(3) 0.3578(2)
C20A C 0.0869(5) 1.2929(4) 0.3604(4)
H18A H 0.0049 1.2584 0.3303
H19A H 0.0815 1.2708 0.4268
H20A H 0.0708 1.3750 0.3535
C21A C 0.4123(5) 1.1560(3) 0.4923(3)
H21A H 0.4139 1.1718 0.5593
H22A H 0.3038 1.1396 0.4813
C22A C 0.5244(5) 1.0520(3) 0.4699(2)
H23A H 0.5235 1.0357 0.4030
H24A H 0.6329 1.0673 0.4817
C27A C 0.2503(5) 1.2525(3) 0.3140(3)
H28A H 0.2545 1.2737 0.2467
H29A H 0.2652 1.1694 0.3200
N1A N 1.0482(3) -0.2601(2) 1.05756(18)
N2A N 1.2036(3) -0.3956(2) 1.12644(19)
N3A N 0.4463(3) 1.3990(2) 0.32588(18)
N3A_2 N 1.4463(3) -0.6010(2) 1.32588(18)
N4A N 0.4536(4) 1.2584(2) 0.4354(2)
S1 S 0.50353(11) 0.86465(7) 1.22182(6)
C18 C 0.5016(4) 0.9959(2) 1.0504(2)
C23 C 0.4932(4) 0.8842(3) 1.0962(2)
C24 C 0.4804(4) 0.7904(3) 1.0440(2)
H25 H 0.4732 0.7189 1.0746
C25 C 0.4779(4) 0.7998(3) 0.9444(2)
H26 H 0.4701 0.7347 0.9097
C26 C 0.5133(4) 1.0964(3) 1.1012(2)
H27 H 0.5150 1.0913 1.1671
O1 O 0.3656(3) 0.9319(2) 1.26595(19)
O2 O 0.6548(3) 0.9070(2) 1.2411(2)
O3 O 0.4972(4) 0.7424(2) 1.24157(19)
S1A S 0.49647(11) 1.13535(7) 0.77818(6)
C18A C 0.4984(4) 1.0041(2) 0.9496(2)
C23A C 0.5068(4) 1.1158(3) 0.9038(2)
C24A C 0.5196(4) 1.2096(3) 0.9560(2)
H25A H 0.5268 1.2811 0.9254
C25A C 0.5221(4) 1.2002(3) 1.0556(2)
H26A H 0.5299 1.2653 1.0903
C26A C 0.4867(4) 0.9036(3) 0.8988(2)
H27A H 0.4850 0.9087 0.8329
O1A O 0.6344(3) 1.0681(2) 0.73405(19)
O2A O 0.3452(3) 1.0930(2) 0.7589(2)
O3A O 0.5028(4) 1.2576(2) 0.75843(19)
O4 O 0.1012(14) 0.9970(9) 1.3933(7)
C28 C 1.1077(15) 1.0787(10) 1.1897(10)
C29 C 0.9323(18) 1.0597(15) 1.2355(13)
O5 O 0.8190(13) 1.0966(8) 1.2725(7)
O6? O 0.0286(14) 0.9647(11) 1.4444(11)
loop_
_geom_bond_atom_site_label_1
_geom_bond_atom_site_label_2
_geom_bond_site_symmetry_1
_geom_bond_site_symmetry_2
Ag1 N2 1_555 1_555
S1 C23 1_555 1_555
C1 C2 1_555 1_555
C2 H1 1_555 1_555
C3 C2 1_555 1_555
H2 C3 1_555 1_555
C4 C3 1_555 1_555
H3 C4 1_555 1_555
C5 C4 1_555 1_555
H4 C5 1_555 1_555
C6 C1 1_555 1_555
C7 C8 1_555 1_555
C8 H5 1_555 1_555
H6 C8 1_555 1_555
C9 C8 1_555 1_555
H7 C9 1_555 1_555
H8 C9 1_555 1_555
H9 C9 1_555 1_555
C10 H10 1_555 1_555
H11 C10 1_555 1_555
C11 C10 1_555 1_555
H12 C11 1_555 1_555
H13 C11 1_555 1_555
C12 C13 1_555 1_555
C13 H14 1_555 1_555
C14 C13 1_555 1_555
H15 C14 1_555 1_555
C15 C14 1_555 1_555
H16 C15 1_555 1_555
C16 C15 1_555 1_555
H17 C16 1_555 1_555
C17 C12 1_555 1_555
C18 C23 1_555 1_555
C19 C27 1_555 1_555
C20 H18 1_555 1_555
H19 C20 1_555 1_555
H20 C20 1_555 1_555
C21 H21 1_555 1_555
H22 C21 1_555 1_555
C22 C21 1_555 1_555
H23 C22 1_555 1_555
H24 C22 1_555 1_555
C23 C24 1_555 1_555
C24 H25 1_555 1_555
C25 C24 1_555 1_555
H26 C25 1_555 1_555
C26 C18 1_555 1_555
H27 C26 1_555 1_555
C27 C20 1_555 1_555
H28 C27 1_555 1_555
H29 C27 1_555 1_555
N1 C1 1_555 1_555
N2 C6 1_555 1_555
N3 Ag1 1_555 1_555
N4 C17 1_555 1_555
O1 S1 1_555 1_555
O2 S1 1_555 1_555
O3 S1 1_555 1_555
C28 C29 1_555 1_555
C29 O5 1_555 1_555
Ag1A N2A 1_555 1_555
Ag1A_2 N3A 1_555 1_555
S1A C23A 1_555 1_555
C1A C2A 1_555 1_555
C2A H1A 1_555 1_555
C3A C2A 1_555 1_555
H2A C3A 1_555 1_555
C4A C3A 1_555 1_555
H3A C4A 1_555 1_555
C5A C4A 1_555 1_555
H4A C5A 1_555 1_555
C6A C1A 1_555 1_555
C7A C8A 1_555 1_555
C8A H5A 1_555 1_555
H6A C8A 1_555 1_555
C9A C8A 1_555 1_555
H7A C9A 1_555 1_555
H8A C9A 1_555 1_555
H9A C9A 1_555 1_555
C10A H10A 1_555 1_555
H11A C10A 1_555 1_555
C11A C11 1_555 1_555
H12A C11A 1_555 1_555
H13A C11A 1_555 1_555
C12A C13A 1_555 1_555
C13A H14A 1_555 1_555
C14A C13A 1_555 1_555
H15A C14A 1_555 1_555
C15A C14A 1_555 1_555
H16A C15A 1_555 1_555
C16A C15A 1_555 1_555
H17A C16A 1_555 1_555
C17A C12A 1_555 1_555
C18A C18 1_555 1_555
C19A C27A 1_555 1_555
C20A H18A 1_555 1_555
H19A C20A 1_555 1_555
H20A C20A 1_555 1_555
C21A H21A 1_555 1_555
H22A C21A 1_555 1_555
C22A C22 1_555 1_555
H23A C22A 1_555 1_555
H24A C22A 1_555 1_555
C23A C18A 1_555 1_555
C24A C23A 1_555 1_555
H25A C24A 1_555 1_555
C25A C26 1_555 1_555
H26A C25A 1_555 1_555
C26A C25 1_555 1_555
H27A C26A 1_555 1_555
C27A C20A 1_555 1_555
H28A C27A 1_555 1_555
H29A C27A 1_555 1_555
N1A C1A 1_555 1_555
N2A C6A 1_555 1_555
N3A C12A 1_555 1_555
N3A_2 Ag1A 1_555 1_555
N4A C17A 1_555 1_555
O1A S1A 1_555 1_555
O2A S1A 1_555 1_555
O3A S1A 1_555 1_555
C5 C6 1_555 1_555
C7 N1 1_555 1_555
C7 N2 1_555 1_555
C10 N1 1_555 1_555
C12 N3 1_555 1_555
C16 C17 1_555 1_555
C19 N3 1_555 1_555
C19 N4 1_555 1_555
C21 N4 1_555 1_555
C5A C6A 1_555 1_555
C7A N1A 1_555 1_555
C7A N2A 1_555 1_555
C10A C11A 1_555 1_555
C10A N1A 1_555 1_555
C16A C17A 1_555 1_555
C18A C26A 1_555 1_555
C19A N3A 1_555 1_555
C19A N4A 1_555 1_555
C21A C22A 1_555 1_555
C21A N4A 1_555 1_555
C24A C25A 1_555 1_555

#END
