
#######################################################################
#
#                 Cambridge Crystallographic Data Centre
#                                CCDC 
#
#######################################################################
#
# If this CIF has been generated from an entry in the Cambridge 
# Structural Database, then it will include bibliographic, chemical, 
# crystal, experimental, refinement or atomic coordinate data resulting 
# from the CCDC's data processing and validation procedures.
#
#######################################################################

data_YOYJUS
_symmetry_cell_setting           tetragonal
_symmetry_space_group_name_H-M   'I 41 m d'
_symmetry_Int_Tables_number      109
_space_group_name_Hall           'I 4bw -2'
loop_
_symmetry_equiv_pos_site_id
_symmetry_equiv_pos_as_xyz
1 x,y,z
2 1/2-x,1/2-y,1/2+z
3 -y,1/2+x,1/4+z
4 1/2+y,-x,3/4+z
5 x,-y,z
6 1/2-x,1/2+y,1/2+z
7 -y,1/2-x,1/4+z
8 1/2+y,x,3/4+z
9 1/2+x,1/2+y,1/2+z
10 -x,-y,z
11 1/2-y,x,3/4+z
12 y,1/2-x,1/4+z
13 1/2+x,1/2-y,1/2+z
14 -x,y,z
15 1/2-y,-x,3/4+z
16 y,1/2+x,1/4+z
_cell_length_a                   14.3263(10)
_cell_length_b                   14.3263(10)
_cell_length_c                   14.1669(16)
_cell_angle_alpha                90
_cell_angle_beta                 90
_cell_angle_gamma                90
_cell_volume                     2907.66
loop_
_atom_site_label
_atom_site_type_symbol
_atom_site_fract_x
_atom_site_fract_y
_atom_site_fract_z
N4 N 0.5000 0.0000 0.7319(5)
O1 O 0.5420(6) 0.0000 0.8081(6)
O2 O 0.4138(9) 0.0000 0.7301(10)
O3 O 0.5407(10) 0.0000 0.6562(9)
O1I O 0.4580(6) 0.0000 0.8081(6)
O2I O 0.5862(9) 0.0000 0.7301(10)
O3I O 0.4593(10) 0.0000 0.6562(9)
N5 N 0.0000 0.0000 0.6948(7)
O4 O 0.0789(5) 0.0000 0.6870(7)
O5 O 0.0000 -0.1030(11) 0.7010(13)
O6 O -0.0535(18) -0.060(3) 0.714(2)
O4I O -0.0789(5) 0.0000 0.6870(7)
O5D O 0.0000 0.1030(11) 0.7010(13)
O6I O 0.0535(18) 0.060(3) 0.714(2)
O6D O -0.0535(18) 0.060(3) 0.714(2)
O6M O 0.0535(18) -0.060(3) 0.714(2)
Ag1 Ag 0.50000(3) -0.1251 0.940423(18)
Ag2 Ag 0.19012(3) 0.0000 0.82648(4)
N1 N 0.5000 -0.2492(3) 0.8414(3)
N2 N 0.4515(2) -0.3788(2) 0.7670(2)
N3 N 0.2163(2) -0.1480(2) 0.8304(3)
C1 C 0.4263(2) -0.3013(2) 0.8119(2)
C2 C 0.3044(2) -0.1789(3) 0.8217(3)
H1 H 0.3518 -0.1352 0.8146
C3 C 0.3283(2) -0.2731(2) 0.8229(3)
C4 C 0.2560(3) -0.3376(3) 0.8326(3)
H2 H 0.2689 -0.4012 0.8348
C5 C 0.1654(3) -0.3060(3) 0.8388(4)
H3 H 0.1164 -0.3484 0.8428
C6 C 0.1476(3) -0.2122(3) 0.8391(3)
H4 H 0.0862 -0.1919 0.8454
Ag1B Ag 0.1251 0.00000(3) 1.190423(18)
Ag1C Ag 0.3749 -0.50000(3) 0.690423(18)
Ag1J Ag 0.6251 -0.50000(3) 0.690423(18)
Ag1D Ag 0.50000(3) 0.1251 0.940423(18)
Ag2I Ag 0.80988(3) 0.0000 0.82648(4)
Ag2B Ag 0.0000 -0.30988(3) 1.07648(4)
Ag2F Ag 0.0000 0.30988(3) 1.07648(4)
N1B N 0.2492(3) 0.0000 1.0914(3)
N2M N 0.5485(2) -0.3788(2) 0.7670(2)
N2B N 0.3788(2) -0.0485(2) 1.0170(2)
N2F N 0.3788(2) 0.0485(2) 1.0170(2)
N2O N 0.6212(2) -0.0485(2) 1.0170(2)
N2A N 0.0485(2) -0.1212(2) 1.2670(2)
N2E N 0.0485(2) 0.1212(2) 1.2670(2)
N3M N 0.7837(2) -0.1480(2) 0.8304(3)
N3B N 0.1480(2) -0.2837(2) 1.0804(3)
N3F N 0.1480(2) 0.2837(2) 1.0804(3)
N3D N 0.2163(2) 0.1480(2) 0.8304(3)
N3I N 0.7837(2) 0.1480(2) 0.8304(3)
C1M C 0.5737(2) -0.3013(2) 0.8119(2)
C1B C 0.3013(2) -0.0737(2) 1.0619(2)
C1F C 0.3013(2) 0.0737(2) 1.0619(2)
C2M C 0.6956(2) -0.1789(3) 0.8217(3)
C2B C 0.1789(3) -0.1956(2) 1.0717(3)
C2F C 0.1789(3) 0.1956(2) 1.0717(3)
H1M H 0.6482 -0.1352 0.8146
H1B H 0.1352 -0.1482 1.0646
H1F H 0.1352 0.1482 1.0646
C3M C 0.6717(2) -0.2731(2) 0.8229(3)
C3B C 0.2731(2) -0.1717(2) 1.0729(3)
C3F C 0.2731(2) 0.1717(2) 1.0729(3)
C4M C 0.7440(3) -0.3376(3) 0.8326(3)
C4B C 0.3376(3) -0.2440(3) 1.0826(3)
C4F C 0.3376(3) 0.2440(3) 1.0826(3)
H2M H 0.7311 -0.4012 0.8348
H2B H 0.4012 -0.2311 1.0848
H2F H 0.4012 0.2311 1.0848
C5M C 0.8346(3) -0.3060(3) 0.8388(4)
C5B C 0.3060(3) -0.3346(3) 1.0888(4)
C5F C 0.3060(3) 0.3346(3) 1.0888(4)
H3M H 0.8836 -0.3484 0.8428
H3B H 0.3484 -0.3836 1.0928
H3F H 0.3484 0.3836 1.0928
C6M C 0.8524(3) -0.2122(3) 0.8391(3)
C6B C 0.2122(3) -0.3524(3) 1.0891(3)
C6F C 0.2122(3) 0.3524(3) 1.0891(3)
H4M H 0.9138 -0.1919 0.8454
H4B H 0.1919 -0.4138 1.0954
H4F H 0.1919 0.4138 1.0954
loop_
_geom_bond_atom_site_label_1
_geom_bond_atom_site_label_2
_geom_bond_site_symmetry_1
_geom_bond_site_symmetry_2
Ag1 N1 1_555 1_555
Ag2 N3 1_555 1_555
N1 C1 1_555 1_555
N2 C1 1_555 1_555
N3 C2 1_555 1_555
N4 O1 1_555 1_555
N5 O4 1_555 1_555
O2 N4 1_555 1_555
O3 N4 1_555 1_555
O4 O6I 1_555 1_555
O5 N5 1_555 1_555
O6 N5 1_555 1_555
C1 C3 1_555 1_555
C2 H1 1_555 1_555
C3 C2 1_555 1_555
C4 C3 1_555 1_555
H2 C4 1_555 1_555
C5 C4 1_555 1_555
H3 C5 1_555 1_555
C6 N3 1_555 1_555
H4 C6 1_555 1_555
Ag1B N1B 1_555 1_555
Ag1C N2 1_555 1_555
Ag1J N2M 1_555 1_555
Ag1D N2F 1_555 1_555
Ag2I N3M 1_555 1_555
Ag2B N3B 1_555 1_555
Ag2F N3F 1_555 1_555
N1B C1B 1_555 1_555
N2M N2 1_555 1_555
N2B Ag1 1_555 1_555
N2F N2B 1_555 1_555
N2O Ag1 1_555 1_555
N2A Ag1B 1_555 1_555
N2E Ag1B 1_555 1_555
N3M C2M 1_555 1_555
N3B C2B 1_555 1_555
N3F C2F 1_555 1_555
N3D Ag2 1_555 1_555
N3I Ag2I 1_555 1_555
O1I N4 1_555 1_555
O2I N4 1_555 1_555
O3I N4 1_555 1_555
O4I N5 1_555 1_555
O5D N5 1_555 1_555
O6I N5 1_555 1_555
O6D N5 1_555 1_555
O6M N5 1_555 1_555
C1M N1 1_555 1_555
C1B N2B 1_555 1_555
C1F N1B 1_555 1_555
C2M H1M 1_555 1_555
C2B H1B 1_555 1_555
C2F H1F 1_555 1_555
C3M C1M 1_555 1_555
C3B C1B 1_555 1_555
C3F C1F 1_555 1_555
C4M C3M 1_555 1_555
C4B C3B 1_555 1_555
C4F C3F 1_555 1_555
H2M C4M 1_555 1_555
H2B C4B 1_555 1_555
H2F C4F 1_555 1_555
C5M C4M 1_555 1_555
C5B C4B 1_555 1_555
C5F C4F 1_555 1_555
H3M C5M 1_555 1_555
H3B C5B 1_555 1_555
H3F C5F 1_555 1_555
C6M N3M 1_555 1_555
C6B N3B 1_555 1_555
C6F N3F 1_555 1_555
H4M C6M 1_555 1_555
H4B C6B 1_555 1_555
H4F C6F 1_555 1_555
O4 O6M 1_555 1_555
O5 O6 1_555 1_555
O5 O6M 1_555 1_555
O6 O4I 1_555 1_555
C5 C6 1_555 1_555
N2M C1M 1_555 1_555
N2F C1F 1_555 1_555
O4I O6D 1_555 1_555
O5D O6I 1_555 1_555
O5D O6D 1_555 1_555
C2M C3M 1_555 1_555
C2B C3B 1_555 1_555
C2F C3F 1_555 1_555
C5M C6M 1_555 1_555
C5B C6B 1_555 1_555
C5F C6F 1_555 1_555

#END
