
#######################################################################
#
#                 Cambridge Crystallographic Data Centre
#                                CCDC 
#
#######################################################################
#
# If this CIF has been generated from an entry in the Cambridge 
# Structural Database, then it will include bibliographic, chemical, 
# crystal, experimental, refinement or atomic coordinate data resulting 
# from the CCDC's data processing and validation procedures.
#
#######################################################################

data_YOYJOM
_symmetry_cell_setting           triclinic
_symmetry_space_group_name_H-M   'P -1'
_symmetry_Int_Tables_number      2
_space_group_name_Hall           '-P 1'
loop_
_symmetry_equiv_pos_site_id
_symmetry_equiv_pos_as_xyz
1 x,y,z
2 -x,-y,-z
_cell_length_a                   8.7116(7)
_cell_length_b                   18.175(2)
_cell_length_c                   23.325(2)
_cell_angle_alpha                67.505(1)
_cell_angle_beta                 85.009(2)
_cell_angle_gamma                89.971(2)
_cell_volume                     3397.03
loop_
_atom_site_label
_atom_site_type_symbol
_atom_site_fract_x
_atom_site_fract_y
_atom_site_fract_z
Cu1 Cu 1.0279(2) 0.45869(11) 0.28996(8)
Cu2 Cu 0.9020(2) 0.58370(10) 0.19971(10)
Cu3 Cu 0.6981(2) 0.48462(11) 0.28858(9)
Cu4 Cu 1.0153(3) 0.35447(12) 0.22257(10)
Cu5 Cu 0.6863(2) 0.66076(11) 0.28898(9)
Cu6 Cu 1.3911(2) 0.55896(10) 0.20716(8)
Cu7 Cu 0.5684(2) -0.04143(11) 0.28851(9)
Cu8 Cu 0.7360(2) 0.08435(10) 0.19864(10)
Cu9 Cu 0.8988(2) -0.01534(11) 0.29024(8)
Cu10 Cu 0.6188(3) 0.85719(13) 0.22181(10)
Cu11 Cu 0.9116(2) 0.16024(11) 0.28807(9)
Cu12 Cu 1.2473(2) 0.05882(10) 0.20797(8)
I1 I 0.87696(11) 0.55776(5) 0.33833(5)
I2 I 1.12307(9) 0.50329(5) 0.16882(4)
I3 I 0.82775(10) 0.33569(5) 0.32703(4)
I4 I 0.65473(10) 0.52229(5) 0.16636(4)
I5 I 0.69539(10) 0.05819(5) 0.33760(4)
I6 I 0.75046(10) 0.83539(5) 0.32757(4)
I7 I 0.53203(10) 0.00474(5) 0.16610(4)
I8 I 0.99984(10) 0.02035(5) 0.16987(4)
N1 N 1.2311(12) 0.4475(6) 0.3289(5)
N2 N 1.3598(12) 0.4831(6) 0.2967(5)
N3 N 1.4804(13) 0.4630(6) 0.3308(5)
N4 N 0.8623(13) 0.6990(6) 0.1670(5)
N5 N 0.7683(13) 0.7274(6) 0.2024(5)
N6 N 0.7396(13) 0.8030(6) 0.1730(5)
N7 N 0.7915(13) 0.1999(6) 0.1668(5)
N8 N 0.8692(14) 0.2264(6) 0.2010(6)
N9 N 0.9136(13) 0.3034(6) 0.1717(5)
N10 N 1.3512(12) -0.0535(6) 0.3282(5)
N11 N 1.2326(12) -0.0170(6) 0.2963(5)
N12 N 1.0994(12) -0.0375(6) 0.3313(5)
N13 N 0.4861(13) 0.6898(7) 0.3168(6)
N14 N 0.4312(12) 0.7556(7) 0.2824(5)
N15 N 0.2888(12) 0.7631(6) 0.3070(5)
N16 N 0.3321(13) 0.6708(6) 0.1796(5)
N17 N 0.2293(13) 0.6855(6) 0.2186(6)
N18 N 0.1961(13) 0.7621(6) 0.1934(5)
N19 N 1.0941(13) 0.1888(7) 0.3175(5)
N20 N 1.1687(13) 0.2566(6) 0.2808(5)
N21 N 1.2965(13) 0.2637(6) 0.3070(5)
N22 N 1.3197(13) 0.1714(6) 0.1795(5)
N23 N 1.4015(13) 0.1854(6) 0.2190(5)
N24 N 1.4470(13) 0.2634(6) 0.1935(5)
C1 C 1.4225(14) 0.4127(7) 0.3884(6)
C2 C 1.2641(15) 0.4021(7) 0.3880(6)
C3 C 1.1723(16) 0.3526(8) 0.4394(6)
H1 H 1.0671 0.3450 0.4385
C4 C 1.2470(17) 0.3147(9) 0.4927(7)
H2 H 1.1893 0.2811 0.5286
C5 C 1.4041(17) 0.3249(8) 0.4946(6)
H3 H 1.4475 0.2982 0.5317
C6 C 1.4975(16) 0.3730(8) 0.4434(6)
H4 H 1.6030 0.3793 0.4445
C7 C 0.8188(15) 0.8272(7) 0.1152(6)
C8 C 0.8952(15) 0.7604(7) 0.1119(6)
C9 C 0.9873(16) 0.7648(8) 0.0573(6)
H5 H 1.0366 0.7208 0.0544
C10 C 0.9990(19) 0.8378(9) 0.0094(7)
H6 H 1.0607 0.8437 -0.0267
C11 C 0.9207(18) 0.9051(9) 0.0124(7)
H7 H 0.9303 0.9532 -0.0219
C12 C 0.8304(17) 0.9000(8) 0.0659(7)
H8 H 0.7797 0.9439 0.0684
C13 C 0.8640(16) 0.3278(8) 0.1147(6)
C14 C 0.7874(16) 0.2642(8) 0.1110(7)
C15 C 0.7236(17) 0.2681(9) 0.0562(7)
H9 H 0.6755 0.2241 0.0534
C16 C 0.7373(18) 0.3412(9) 0.0073(7)
H10 H 0.6960 0.3476 -0.0297
C17 C 0.8140(18) 0.4074(9) 0.0126(7)
H11 H 0.8208 0.4559 -0.0214
C18 C 0.8783(17) 0.4032(8) 0.0655(7)
H12 H 0.9275 0.4468 0.0685
C19 C 1.1282(15) -0.0899(8) 0.3900(6)
C20 C 1.2901(15) -0.0989(8) 0.3863(6)
C21 C 1.3587(17) -0.1480(8) 0.4398(6)
H13 H 1.4646 -0.1546 0.4391
C22 C 1.2606(18) -0.1864(9) 0.4941(7)
H14 H 1.3014 -0.2202 0.5301
C23 C 1.1036(17) -0.1747(9) 0.4950(7)
H15 H 1.0417 -0.2003 0.5320
C24 C 1.0354(16) -0.1262(8) 0.4428(6)
H16 H 0.9297 -0.1190 0.4442
C25 C 0.2514(16) 0.6987(8) 0.3626(7)
C26 C 0.3827(16) 0.6523(8) 0.3671(6)
C27 C 0.3871(18) 0.5794(8) 0.4167(7)
H17 H 0.4711 0.5468 0.4206
C28 C 0.2566(19) 0.5577(9) 0.4606(7)
H18 H 0.2554 0.5104 0.4955
C29 C 0.132(2) 0.6052(9) 0.4528(8)
H19 H 0.0472 0.5879 0.4825
C30 C 0.1237(18) 0.6761(9) 0.4042(7)
H20 H 0.0371 0.7071 0.3997
C31 C 0.2828(16) 0.7992(8) 0.1385(7)
C32 C 0.3700(16) 0.7416(8) 0.1289(6)
C33 C 0.4735(18) 0.7569(8) 0.0766(7)
H21 H 0.5342 0.7173 0.0716
C34 C 0.4817(18) 0.8328(9) 0.0331(7)
H22 H 0.5479 0.8455 -0.0031
C35 C 0.3902(19) 0.8929(9) 0.0423(8)
H23 H 0.3965 0.9439 0.0112
C36 C 0.2921(18) 0.8785(8) 0.0957(7)
H24 H 0.2364 0.9184 0.1026
C37 C 0.1884(16) 0.8255(8) 0.2708(7)
H25 H 0.2505 0.8720 0.2436
H26 H 0.1194 0.8411 0.2988
C38 C 0.0958(16) 0.7943(8) 0.2325(7)
H27 H 0.0238 0.7526 0.2602
H28 H 0.0367 0.8370 0.2059
C39 C 1.3116(17) 0.1990(8) 0.3611(7)
C40 C 1.1795(16) 0.1513(8) 0.3667(7)
C41 C 1.1508(17) 0.0790(8) 0.4174(7)
H29 H 1.0631 0.0471 0.4228
C42 C 1.2606(19) 0.0587(10) 0.4583(7)
H30 H 1.2478 0.0101 0.4920
C43 C 1.3903(19) 0.1059(9) 0.4531(7)
H31 H 1.4594 0.0882 0.4834
C44 C 1.4200(18) 0.1799(9) 0.4032(7)
H32 H 1.5055 0.2127 0.3991
C45 C 1.3933(16) 0.2998(8) 0.1361(7)
C46 C 1.3111(17) 0.2387(8) 0.1289(7)
C47 C 1.2402(17) 0.2530(8) 0.0725(7)
H33 H 1.1864 0.2134 0.0656
C48 C 1.2582(19) 0.3287(10) 0.0302(8)
H34 H 1.2144 0.3403 -0.0071
C49 C 1.3353(19) 0.3897(10) 0.0375(8)
H35 H 1.3403 0.4402 0.0059
C50 C 1.4057(18) 0.3776(8) 0.0910(7)
H36 H 1.4580 0.4185 0.0968
C51 C 1.4142(16) 0.3266(8) 0.2695(7)
H37 H 1.4695 0.3436 0.2970
H38 H 1.3641 0.3724 0.2417
C52 C 1.5270(16) 0.2949(8) 0.2318(7)
H39 H 1.5990 0.3374 0.2053
H40 H 1.5854 0.2531 0.2598
Cu3_2 Cu 1.6981(2) 0.48462(11) 0.28858(9)
Cu6_2 Cu 0.3911(2) 0.55896(10) 0.20716(8)
Cu7_2 Cu 0.5684(2) 0.95857(11) 0.28851(9)
Cu7_3 Cu 1.5684(2) -0.04143(11) 0.28851(9)
Cu9_2 Cu 0.8988(2) 0.98466(11) 0.29024(8)
Cu10_2 Cu 0.6188(3) -0.14281(13) 0.22181(10)
Cu12_2 Cu 0.2473(2) 0.05882(10) 0.20797(8)
I4_2 I 1.65473(10) 0.52229(5) 0.16636(4)
I6_2 I 0.75046(10) -0.16461(5) 0.32757(4)
I7_2 I 0.53203(10) 1.00474(5) 0.16610(4)
I7_3 I 1.53203(10) 0.00474(5) 0.16610(4)
N3_2 N 0.4804(13) 0.4630(6) 0.3308(5)
N10_2 N 0.3512(12) -0.0535(6) 0.3282(5)
N16_2 N 1.3321(13) 0.6708(6) 0.1796(5)
loop_
_geom_bond_atom_site_label_1
_geom_bond_atom_site_label_2
_geom_bond_site_symmetry_1
_geom_bond_site_symmetry_2
Cu1 I1 1_555 1_555
Cu2 I1 1_555 1_555
Cu3 I1 1_555 1_555
Cu4 I2 1_555 1_555
Cu5 I1 1_555 1_555
Cu6 I2 1_555 1_555
Cu7 I5 1_555 1_555
Cu8 I5 1_555 1_555
Cu9 I5 1_555 1_555
Cu10 I6 1_555 1_555
Cu11 I5 1_555 1_555
Cu12 I8 1_555 1_555
I2 Cu1 1_555 1_555
I3 Cu1 1_555 1_555
I4 Cu2 1_555 1_555
I6 Cu7_2 1_555 1_555
I7 Cu7 1_555 1_555
I8 Cu8 1_555 1_555
N1 Cu1 1_555 1_555
N2 Cu6 1_555 1_555
N3 N2 1_555 1_555
N4 Cu2 1_555 1_555
N5 Cu5 1_555 1_555
N6 Cu10 1_555 1_555
N7 Cu8 1_555 1_555
N8 Cu11 1_555 1_555
N9 Cu4 1_555 1_555
N10 N11 1_555 1_555
N11 Cu12 1_555 1_555
N12 Cu9 1_555 1_555
N13 Cu5 1_555 1_555
N14 Cu10 1_555 1_555
N15 N14 1_555 1_555
N16 N17 1_555 1_555
N17 N18 1_555 1_555
N18 C31 1_555 1_555
N19 Cu11 1_555 1_555
N20 Cu4 1_555 1_555
N21 N20 1_555 1_555
N22 Cu12 1_555 1_555
N23 N22 1_555 1_555
N24 N23 1_555 1_555
C1 N3 1_555 1_555
C2 N1 1_555 1_555
C3 C2 1_555 1_555
H1 C3 1_555 1_555
C4 C3 1_555 1_555
H2 C4 1_555 1_555
C5 C4 1_555 1_555
H3 C5 1_555 1_555
C6 C1 1_555 1_555
H4 C6 1_555 1_555
C7 N6 1_555 1_555
C8 N4 1_555 1_555
C9 C8 1_555 1_555
H5 C9 1_555 1_555
C10 C9 1_555 1_555
H6 C10 1_555 1_555
C11 C10 1_555 1_555
H7 C11 1_555 1_555
C12 C7 1_555 1_555
H8 C12 1_555 1_555
C13 N9 1_555 1_555
C14 N7 1_555 1_555
C15 C14 1_555 1_555
H9 C15 1_555 1_555
C16 C15 1_555 1_555
H10 C16 1_555 1_555
C17 C16 1_555 1_555
H11 C17 1_555 1_555
C18 C13 1_555 1_555
H12 C18 1_555 1_555
C19 N12 1_555 1_555
C20 N10 1_555 1_555
C21 C20 1_555 1_555
H13 C21 1_555 1_555
C22 C21 1_555 1_555
H14 C22 1_555 1_555
C23 C22 1_555 1_555
H15 C23 1_555 1_555
C24 C19 1_555 1_555
H16 C24 1_555 1_555
C25 N15 1_555 1_555
C26 N13 1_555 1_555
C27 C26 1_555 1_555
H17 C27 1_555 1_555
C28 C27 1_555 1_555
H18 C28 1_555 1_555
C29 C28 1_555 1_555
H19 C29 1_555 1_555
C30 C25 1_555 1_555
H20 C30 1_555 1_555
C31 C32 1_555 1_555
C32 N16 1_555 1_555
C33 C32 1_555 1_555
H21 C33 1_555 1_555
C34 C33 1_555 1_555
H22 C34 1_555 1_555
C35 C34 1_555 1_555
H23 C35 1_555 1_555
C36 C31 1_555 1_555
H24 C36 1_555 1_555
C37 N15 1_555 1_555
H25 C37 1_555 1_555
H26 C37 1_555 1_555
C38 N18 1_555 1_555
H27 C38 1_555 1_555
H28 C38 1_555 1_555
C39 N21 1_555 1_555
C40 N19 1_555 1_555
C41 C40 1_555 1_555
H29 C41 1_555 1_555
C42 C41 1_555 1_555
H30 C42 1_555 1_555
C43 C42 1_555 1_555
H31 C43 1_555 1_555
C44 C39 1_555 1_555
H32 C44 1_555 1_555
C45 N24 1_555 1_555
C46 N22 1_555 1_555
C47 C46 1_555 1_555
H33 C47 1_555 1_555
C48 C47 1_555 1_555
H34 C48 1_555 1_555
C49 C48 1_555 1_555
H35 C49 1_555 1_555
C50 C45 1_555 1_555
H36 C50 1_555 1_555
C51 N21 1_555 1_555
H37 C51 1_555 1_555
H38 C51 1_555 1_555
C52 N24 1_555 1_555
H39 C52 1_555 1_555
H40 C52 1_555 1_555
Cu3_2 N3 1_555 1_555
Cu6_2 I4 1_555 1_555
Cu7_2 I7_2 1_555 1_555
Cu7_3 N10 1_555 1_555
Cu9_2 I6 1_555 1_555
Cu10_2 I7 1_555 1_555
Cu12_2 I7 1_555 1_555
I4_2 Cu6 1_555 1_555
I6_2 Cu7 1_555 1_555
I7_2 Cu10 1_555 1_555
I7_3 Cu12 1_555 1_555
N3_2 Cu3 1_555 1_555
N10_2 Cu7 1_555 1_555
N16_2 Cu6 1_555 1_555
Cu2 I2 1_555 1_555
Cu3 I3 1_555 1_555
Cu3 I4 1_555 1_555
Cu4 I3 1_555 1_555
Cu8 I7 1_555 1_555
Cu9 I8 1_555 1_555
Cu9 I6_2 1_555 1_555
N1 N2 1_555 1_555
N4 N5 1_555 1_555
N5 N6 1_555 1_555
N7 N8 1_555 1_555
N8 N9 1_555 1_555
N11 N12 1_555 1_555
N13 N14 1_555 1_555
N16 Cu6_2 1_555 1_555
N19 N20 1_555 1_555
C1 C2 1_555 1_555
C5 C6 1_555 1_555
C7 C8 1_555 1_555
C11 C12 1_555 1_555
C13 C14 1_555 1_555
C17 C18 1_555 1_555
C19 C20 1_555 1_555
C23 C24 1_555 1_555
C25 C26 1_555 1_555
C29 C30 1_555 1_555
C35 C36 1_555 1_555
C37 C38 1_555 1_555
C39 C40 1_555 1_555
C43 C44 1_555 1_555
C45 C46 1_555 1_555
C49 C50 1_555 1_555
C51 C52 1_555 1_555
Cu3_2 I4_2 1_555 1_555
Cu7_3 I7_3 1_555 1_555
Cu10_2 I6_2 1_555 1_555

#END
