
#######################################################################
#
#                 Cambridge Crystallographic Data Centre
#                                CCDC 
#
#######################################################################
#
# If this CIF has been generated from an entry in the Cambridge 
# Structural Database, then it will include bibliographic, chemical, 
# crystal, experimental, refinement or atomic coordinate data resulting 
# from the CCDC's data processing and validation procedures.
#
#######################################################################

data_YOYKIH
_symmetry_cell_setting           triclinic
_symmetry_space_group_name_H-M   'P -1'
_symmetry_Int_Tables_number      2
_space_group_name_Hall           '-P 1'
loop_
_symmetry_equiv_pos_site_id
_symmetry_equiv_pos_as_xyz
1 x,y,z
2 -x,-y,-z
_cell_length_a                   7.6140(2)
_cell_length_b                   8.2558(2)
_cell_length_c                   14.2338(3)
_cell_angle_alpha                98.734(1)
_cell_angle_beta                 99.679(1)
_cell_angle_gamma                95.619(1)
_cell_volume                     864.743
loop_
_atom_site_label
_atom_site_type_symbol
_atom_site_fract_x
_atom_site_fract_y
_atom_site_fract_z
Ag1 Ag 0.82761(4) 1.09357(3) 0.96683(2)
Eu1 Eu 0.19187(2) 1.202870(16) 1.418150(11)
O1 O 0.5207(4) 0.5229(3) 1.2093(2)
H1 H 0.5281 0.4258 1.2136
O2 O 0.6575(4) 0.4650(3) 1.0828(2)
O3 O 0.3810(3) 1.0675(3) 1.32357(17)
O4 O 0.5623(4) 1.2783(3) 1.29771(18)
O5 O 0.8808(4) 1.7640(3) 0.89258(18)
O6 O 0.9107(3) 1.7506(3) 0.73860(17)
O7 O 1.1304(3) 1.2510(2) 0.57865(16)
O8 O 1.0546(3) 1.0119(2) 0.62458(16)
O9 O 0.2768(3) 1.4988(2) 1.44607(17)
O10 O 0.5025(3) 1.7066(2) 1.48847(17)
O11 O 0.2870(3) 0.9686(3) 1.49066(19)
H2 H 0.356(4) 0.896(4) 1.481(3)
H3 H 0.226(5) 0.957(4) 1.534(2)
O12 O -0.0949(3) 1.3247(3) 1.42253(18)
H4 H -0.184(3) 1.305(5) 1.3766(16)
H5 H -0.113(4) 1.377(4) 1.4748(13)
N1 N 0.6967(4) 0.9721(3) 1.0659(2)
N2 N 0.8984(4) 1.2515(3) 0.8676(2)
C1 C 0.5948(5) 0.5602(4) 1.1372(3)
C2 C 0.5963(5) 0.7405(4) 1.1343(2)
C3 C 0.5367(5) 0.8436(4) 1.2046(2)
H6 H 0.4824 0.8002 1.2507
C4 C 0.5587(5) 1.0132(4) 1.2058(2)
C5 C 0.4954(5) 1.1290(4) 1.2810(2)
C6 C 0.6426(5) 1.0717(4) 1.1365(2)
H7 H 0.6627 1.1853 1.1388
C7 C 0.6723(5) 0.8084(4) 1.0645(2)
H8 H 0.7074 0.7383 1.0154
C8 C 0.9020(5) 1.6882(4) 0.8138(2)
C9 C 0.9242(4) 1.5052(4) 0.8053(2)
C10 C 0.9845(4) 1.4254(4) 0.7263(2)
H9 H 1.0127 1.4834 0.6786
C11 C 1.0028(4) 1.2588(4) 0.7188(2)
C12 C 1.0673(4) 1.1682(4) 0.6344(2)
C13 C 0.9563(5) 1.1760(4) 0.7904(2)
H10 H 0.9656 1.0636 0.7848
C14 C 0.8837(5) 1.4149(4) 0.8746(2)
H11 H 0.8448 1.4684 0.9283
C15 C 0.4366(5) 1.5591(4) 1.4810(2)
Ag1A Ag 0.17239(4) 1.90643(3) 1.03317(2)
Eu1A Eu 0.80813(2) 1.797130(16) 0.581850(11)
Eu1_2 Eu 1.19187(2) 1.202870(16) 0.418150(11)
Eu1A_2 Eu 0.80813(2) 0.797130(16) 0.581850(11)
Eu1A_3 Eu 0.80813(2) 1.797130(16) 1.581850(11)
Eu1A_4 Eu -0.19187(2) 1.797130(16) 1.581850(11)
Eu1_3 Eu 0.19187(2) 2.202870(16) 1.418150(11)
O1A O 0.4793(4) 2.4771(3) 0.7907(2)
H1A H 0.4719 2.5742 0.7864
O2A O 0.3425(4) 2.5350(3) 0.9172(2)
O3A O 0.6190(3) 1.9325(3) 0.67643(17)
O4A O 0.4377(4) 1.7217(3) 0.70229(18)
O5A O 0.1192(4) 1.2360(3) 1.10742(18)
O6A O 0.0893(3) 1.2494(3) 1.26140(17)
O7A O -0.1304(3) 1.7490(2) 1.42135(16)
O7_2 O 0.1304(3) 1.2510(2) 1.57865(16)
O7A_2 O 0.8696(3) 1.7490(2) 0.42135(16)
O8A O -0.0546(3) 1.9881(2) 1.37542(16)
O8A_2 O -0.0546(3) 0.9881(2) 1.37542(16)
O8_2 O 1.0546(3) 2.0119(2) 0.62458(16)
O9A O 0.7232(3) 1.5012(2) 1.55393(17)
O9A_2 O 0.7232(3) 1.5012(2) 0.55393(17)
O10A O 0.4975(3) 1.2934(2) 1.51153(17)
O10_2 O 0.5025(3) 1.7066(2) 0.48847(17)
O11A O 0.7130(3) 2.0314(3) 0.50934(19)
H2A H 0.644(4) 2.104(4) 0.519(3)
H3A H 0.774(5) 2.043(4) 0.466(2)
O12A O 1.0949(3) 1.6753(3) 0.57747(18)
H4A H 1.184(3) 1.695(5) 0.6234(16)
H5A H 1.113(4) 1.623(4) 0.5252(13)
N1A N 0.3033(4) 2.0279(3) 0.9341(2)
N2A N 0.1016(4) 1.7485(3) 1.1324(2)
C1A C 0.4052(5) 2.4398(4) 0.8628(3)
C2A C 0.4037(5) 2.2595(4) 0.8657(2)
C3A C 0.4633(5) 2.1564(4) 0.7954(2)
H6A H 0.5176 2.1998 0.7493
C4A C 0.4413(5) 1.9868(4) 0.7942(2)
C5A C 0.5046(5) 1.8710(4) 0.7190(2)
C6A C 0.3574(5) 1.9283(4) 0.8635(2)
H7A H 0.3373 1.8147 0.8612
C7A C 0.3277(5) 2.1916(4) 0.9355(2)
H8A H 0.2926 2.2617 0.9846
C8A C 0.0980(5) 1.3118(4) 1.1862(2)
C9A C 0.0758(4) 1.4948(4) 1.1947(2)
C10A C 0.0155(4) 1.5746(4) 1.2737(2)
H9A H -0.0127 1.5166 1.3214
C11A C -0.0028(4) 1.7412(4) 1.2812(2)
C12A C -0.0673(4) 1.8318(4) 1.3656(2)
C13A C 0.0437(5) 1.8240(4) 1.2096(2)
H10A H 0.0344 1.9364 1.2152
C14A C 0.1163(5) 1.5851(4) 1.1254(2)
H11A H 0.1552 1.5316 1.0717
C15A C 0.5634(5) 1.4409(4) 1.5190(2)
loop_
_geom_bond_atom_site_label_1
_geom_bond_atom_site_label_2
_geom_bond_site_symmetry_1
_geom_bond_site_symmetry_2
Ag1 N1 1_555 1_555
Eu1 O3 1_555 1_555
O1 H1 1_555 1_555
O2 C1 1_555 1_555
O3 C5 1_555 1_555
O4 C5 1_555 1_555
O5 C8 1_555 1_555
O6 C8 1_555 1_555
O7 C12 1_555 1_555
O8 C12 1_555 1_555
O9 Eu1 1_555 1_555
O10 C15 1_555 1_555
O11 Eu1 1_555 1_555
H2 O11 1_555 1_555
H3 O11 1_555 1_555
O12 Eu1 1_555 1_555
H4 O12 1_555 1_555
H5 O12 1_555 1_555
N1 C6 1_555 1_555
N2 Ag1 1_555 1_555
C1 O1 1_555 1_555
C2 C1 1_555 1_555
C3 C2 1_555 1_555
H6 C3 1_555 1_555
C4 C3 1_555 1_555
C5 C4 1_555 1_555
C6 C4 1_555 1_555
H7 C6 1_555 1_555
C7 N1 1_555 1_555
H8 C7 1_555 1_555
C8 C9 1_555 1_555
C9 C10 1_555 1_555
C10 H9 1_555 1_555
C11 C10 1_555 1_555
C12 C11 1_555 1_555
C13 N2 1_555 1_555
H10 C13 1_555 1_555
C14 N2 1_555 1_555
H11 C14 1_555 1_555
C15 O9 1_555 1_555
Ag1A N1A 1_555 1_555
Eu1A O6 1_555 1_555
Eu1_2 O7 1_555 1_555
Eu1A_2 O8 1_555 1_555
Eu1A_3 O10 1_555 1_555
Eu1A_4 O7A 1_555 1_555
Eu1_3 O8A 1_555 1_555
O1A H1A 1_555 1_555
O2A C1A 1_555 1_555
O3A Eu1A 1_555 1_555
O4A C5A 1_555 1_555
O5A C8A 1_555 1_555
O6A Eu1 1_555 1_555
O7A C12A 1_555 1_555
O7_2 Eu1 1_555 1_555
O7A_2 Eu1A 1_555 1_555
O8A C12A 1_555 1_555
O8A_2 Eu1 1_555 1_555
O8_2 Eu1A 1_555 1_555
O9A Eu1A_3 1_555 1_555
O9A_2 Eu1A 1_555 1_555
O10A Eu1 1_555 1_555
O10_2 Eu1A 1_555 1_555
O11A Eu1A 1_555 1_555
H2A O11A 1_555 1_555
H3A O11A 1_555 1_555
O12A Eu1A 1_555 1_555
H4A O12A 1_555 1_555
H5A O12A 1_555 1_555
N1A C6A 1_555 1_555
N2A Ag1A 1_555 1_555
C1A O1A 1_555 1_555
C2A C1A 1_555 1_555
C3A C2A 1_555 1_555
H6A C3A 1_555 1_555
C4A C3A 1_555 1_555
C5A O3A 1_555 1_555
C6A C4A 1_555 1_555
H7A C6A 1_555 1_555
C7A N1A 1_555 1_555
H8A C7A 1_555 1_555
C8A O6A 1_555 1_555
C9A C8A 1_555 1_555
C10A C9A 1_555 1_555
H9A C10A 1_555 1_555
C11A C10A 1_555 1_555
C12A C11A 1_555 1_555
C13A N2A 1_555 1_555
H10A C13A 1_555 1_555
C14A N2A 1_555 1_555
H11A C14A 1_555 1_555
C15A C15 1_555 1_555
C2 C7 1_555 1_555
C9 C14 1_555 1_555
C11 C13 1_555 1_555
O9A C15A 1_555 1_555
O10A C15A 1_555 1_555
C2A C7A 1_555 1_555
C4A C5A 1_555 1_555
C9A C14A 1_555 1_555
C11A C13A 1_555 1_555

#END
