
#######################################################################
#
#                 Cambridge Crystallographic Data Centre
#                                CCDC 
#
#######################################################################
#
# If this CIF has been generated from an entry in the Cambridge 
# Structural Database, then it will include bibliographic, chemical, 
# crystal, experimental, refinement or atomic coordinate data resulting 
# from the CCDC's data processing and validation procedures.
#
#######################################################################

data_YOYKON
_symmetry_cell_setting           triclinic
_symmetry_space_group_name_H-M   'P -1'
_symmetry_Int_Tables_number      2
_space_group_name_Hall           '-P 1'
loop_
_symmetry_equiv_pos_site_id
_symmetry_equiv_pos_as_xyz
1 x,y,z
2 -x,-y,-z
_cell_length_a                   7.5414(1)
_cell_length_b                   8.2172(2)
_cell_length_c                   14.2032(3)
_cell_angle_alpha                99.356(1)
_cell_angle_beta                 99.361(1)
_cell_angle_gamma                96.425(1)
_cell_volume                     848.191
loop_
_atom_site_label
_atom_site_type_symbol
_atom_site_fract_x
_atom_site_fract_y
_atom_site_fract_z
Er1 Er 0.692975(18) -0.297170(16) 0.920533(10)
Ag1 Ag 1.32893(4) -0.39670(4) 0.46798(2)
O1 O 1.0641(4) -0.2132(3) 0.8014(2)
O2 O 0.8788(3) -0.4262(3) 0.82677(19)
O3 O 1.0227(5) -0.9723(4) 0.7112(3)
H1 H 1.0402 -1.0661 0.7194
O4 O 1.1595(4) -1.0303(3) 0.5827(2)
O5 O 0.6250(4) -0.2743(3) 0.6129(2)
O6 O 0.5904(4) -0.2545(3) 0.76693(18)
O7 O 0.3666(3) 0.2495(3) 0.92292(17)
O8 O 0.4498(3) 0.4894(3) 0.87734(18)
O9 O 0.4102(3) -0.1792(3) 0.92615(19)
H2 H 0.389(5) -0.133(5) 0.9795(13)
H3 H 0.322(4) -0.196(5) 0.8788(16)
O10 O 0.7880(4) -0.5275(3) 0.9902(2)
H4 H 0.853(5) -0.602(4) 0.977(3)
H5 H 0.734(5) -0.536(5) 1.037(2)
O11 O 0.7753(3) -0.0057(3) 0.94511(19)
O12 O 1.0035(3) 0.2063(3) 0.98710(18)
N1 N 1.1958(4) -0.5207(4) 0.5666(2)
N2 N 0.6000(4) 0.2397(4) 0.6322(2)
C1 C 0.9949(5) -0.3631(4) 0.7840(3)
C2 C 1.0577(5) -0.4804(4) 0.7079(3)
C3 C 1.1426(5) -0.4209(5) 0.6380(3)
H6 H 1.1635 -0.3063 0.6408
C4 C 1.1721(5) -0.6844(5) 0.5647(3)
H7 H 1.2069 -0.7545 0.5148
C5 C 1.0972(5) -0.7541(4) 0.6347(3)
C6 C 1.0958(5) -0.9360(5) 0.6375(3)
C7 C 1.0369(5) -0.6504(4) 0.7064(3)
H8 H 0.9831 -0.6945 0.7530
C8 C 0.6002(5) -0.1950(4) 0.6913(3)
C9 C 0.5768(5) -0.0126(4) 0.6978(3)
C10 C 0.6157(5) 0.0758(4) 0.6263(3)
H9 H 0.6539 0.0203 0.5724
C11 C 0.5437(4) 0.3187(4) 0.7097(2)
H10 H 0.5353 0.4317 0.7147
C12 C 0.4974(4) 0.2381(4) 0.7827(2)
C13 C 0.4340(4) 0.3317(4) 0.8674(2)
C14 C 0.5161(5) 0.0707(4) 0.7764(3)
H11 H 0.4879 0.0145 0.8250
C15 C 0.9364(4) 0.0583(4) 0.9800(2)
Er1A Er 0.307025(18) 0.297170(16) 1.079467(10)
Er1_2 Er 0.692975(18) 0.702830(16) 0.920533(10)
Er1A_2 Er 1.307025(18) 0.297170(16) 1.079467(10)
Er1A_3 Er 1.307025(18) 0.297170(16) 0.079467(10)
Er1A_4 Er 1.307025(18) -0.702830(16) 0.079467(10)
Er1_3 Er 1.692975(18) -0.297170(16) -0.079467(10)
Ag1A Ag 0.67107(4) 0.39670(4) 0.53202(2)
O1A O 0.9359(4) 0.2132(3) 0.1986(2)
O2A O 1.1212(3) 0.4262(3) 0.17323(19)
O3A O 0.9773(5) 0.9723(4) 0.2888(3)
H1A H 0.9598 1.0661 0.2806
O4A O 0.8405(4) 1.0303(3) 0.4173(2)
O5A O 1.3750(4) 0.2743(3) 0.3871(2)
O6A O 1.4096(4) 0.2545(3) 0.23307(18)
O7A O 0.6334(3) -0.2495(3) 1.07708(17)
O7A_2 O 1.6334(3) -0.2495(3) 0.07708(17)
O7_2 O 1.3666(3) 0.2495(3) -0.07708(17)
O8_2 O 0.4498(3) -0.5106(3) 0.87734(18)
O8A O 1.5502(3) -0.4894(3) 0.12266(18)
O8A_2 O 1.5502(3) 0.5106(3) 0.12266(18)
O9A O 1.5898(3) 0.1792(3) 0.07385(19)
H2A H 1.611(5) 0.133(5) 0.0205(13)
H3A H 1.678(4) 0.196(5) 0.1212(16)
O10A O 1.2120(4) 0.5275(3) 0.0098(2)
H4A H 1.147(5) 0.602(4) 0.023(3)
H5A H 1.266(5) 0.536(5) -0.037(2)
O11A O 1.2247(3) 0.0057(3) 1.05489(19)
O11A_2 O 1.2247(3) 0.0057(3) 0.05489(19)
O12A O 0.9965(3) -0.2063(3) 1.01290(18)
O12_2 O 1.0035(3) 0.2063(3) -0.01290(18)
N1A N 0.8042(4) 0.5207(4) 0.4334(2)
N2A N 1.4000(4) -0.2397(4) 0.3678(2)
C1A C 1.0051(5) 0.3631(4) 0.2160(3)
C2A C 0.9423(5) 0.4804(4) 0.2921(3)
C3A C 0.8574(5) 0.4209(5) 0.3620(3)
H6A H 0.8365 0.3063 0.3592
C4A C 0.8279(5) 0.6844(5) 0.4353(3)
H7A H 0.7931 0.7545 0.4852
C5A C 0.9028(5) 0.7541(4) 0.3653(3)
C6A C 0.9042(5) 0.9360(5) 0.3625(3)
C7A C 0.9631(5) 0.6504(4) 0.2936(3)
H8A H 1.0169 0.6945 0.2470
C8A C 1.3998(5) 0.1950(4) 0.3087(3)
C9A C 1.4232(5) 0.0126(4) 0.3022(3)
C10A C 1.3843(5) -0.0758(4) 0.3737(3)
H9A H 1.3461 -0.0203 0.4276
C11A C 1.4563(4) -0.3187(4) 0.2903(2)
H10A H 1.4647 -0.4317 0.2853
C12A C 1.5026(4) -0.2381(4) 0.2173(2)
C13A C 1.5660(4) -0.3317(4) 0.1326(2)
C14A C 1.4839(5) -0.0707(4) 0.2236(3)
H11A H 1.5121 -0.0145 0.1750
C15A C 1.0636(4) -0.0583(4) 1.0200(2)
loop_
_geom_bond_atom_site_label_1
_geom_bond_atom_site_label_2
_geom_bond_site_symmetry_1
_geom_bond_site_symmetry_2
Er1 O2 1_555 1_555
Ag1 N1 1_555 1_555
O1 C1 1_555 1_555
O2 C1 1_555 1_555
O3 H1 1_555 1_555
O4 C6 1_555 1_555
O5 C8 1_555 1_555
O6 Er1 1_555 1_555
O7 C13 1_555 1_555
O8 C13 1_555 1_555
O9 Er1 1_555 1_555
H2 O9 1_555 1_555
H3 O9 1_555 1_555
O10 Er1 1_555 1_555
H4 O10 1_555 1_555
H5 O10 1_555 1_555
O11 Er1 1_555 1_555
O12 C15 1_555 1_555
N1 C3 1_555 1_555
N2 C10 1_555 1_555
C1 C2 1_555 1_555
C2 C3 1_555 1_555
C3 H6 1_555 1_555
C4 N1 1_555 1_555
H7 C4 1_555 1_555
C5 C4 1_555 1_555
C6 O3 1_555 1_555
C7 C2 1_555 1_555
H8 C7 1_555 1_555
C8 O6 1_555 1_555
C9 C8 1_555 1_555
C10 C9 1_555 1_555
H9 C10 1_555 1_555
C11 N2 1_555 1_555
H10 C11 1_555 1_555
C12 C11 1_555 1_555
C13 C12 1_555 1_555
C14 C9 1_555 1_555
H11 C14 1_555 1_555
C15 O11 1_555 1_555
Er1A O7 1_555 1_555
Er1_2 O8 1_555 1_555
Er1A_2 O12 1_555 1_555
Er1A_3 O2A 1_555 1_555
Er1A_4 O8A 1_555 1_555
Er1_3 O7A_2 1_555 1_555
Ag1A N2 1_555 1_555
O1A C1A 1_555 1_555
O2A C1A 1_555 1_555
O3A H1A 1_555 1_555
O4A C6A 1_555 1_555
O5A C8A 1_555 1_555
O6A Er1A_3 1_555 1_555
O7A Er1 1_555 1_555
O7A_2 C13A 1_555 1_555
O7_2 Er1A_3 1_555 1_555
O8_2 Er1 1_555 1_555
O8A C13A 1_555 1_555
O8A_2 Er1A_3 1_555 1_555
O9A Er1A_3 1_555 1_555
H2A O9A 1_555 1_555
H3A O9A 1_555 1_555
O10A Er1A_3 1_555 1_555
H4A O10A 1_555 1_555
H5A O10A 1_555 1_555
O11A Er1A_2 1_555 1_555
O11A_2 Er1A_3 1_555 1_555
O12A Er1 1_555 1_555
O12_2 Er1A_3 1_555 1_555
N1A Ag1A 1_555 1_555
N2A Ag1 1_555 1_555
C1A C2A 1_555 1_555
C2A C3A 1_555 1_555
C3A N1A 1_555 1_555
H6A C3A 1_555 1_555
C4A N1A 1_555 1_555
H7A C4A 1_555 1_555
C5A C4A 1_555 1_555
C6A O3A 1_555 1_555
C7A C2A 1_555 1_555
H8A C7A 1_555 1_555
C8A O6A 1_555 1_555
C9A C8A 1_555 1_555
C10A N2A 1_555 1_555
H9A C10A 1_555 1_555
C11A N2A 1_555 1_555
H10A C11A 1_555 1_555
C12A C11A 1_555 1_555
C13A C12A 1_555 1_555
C14A C9A 1_555 1_555
H11A C14A 1_555 1_555
C15A C15 1_555 1_555
C5 C6 1_555 1_555
C5 C7 1_555 1_555
C12 C14 1_555 1_555
O11A C15A 1_555 1_555
O12A C15A 1_555 1_555
C5A C6A 1_555 1_555
C5A C7A 1_555 1_555
C9A C10A 1_555 1_555
C12A C14A 1_555 1_555

#END
