
#######################################################################
#
#                 Cambridge Crystallographic Data Centre
#                                CCDC 
#
#######################################################################
#
# If this CIF has been generated from an entry in the Cambridge 
# Structural Database, then it will include bibliographic, chemical, 
# crystal, experimental, refinement or atomic coordinate data resulting 
# from the CCDC's data processing and validation procedures.
#
#######################################################################

data_YOYMOQ
_symmetry_cell_setting           monoclinic
_symmetry_space_group_name_H-M   'P 21/c'
_symmetry_Int_Tables_number      14
_space_group_name_Hall           '-P 2ybc'
loop_
_symmetry_equiv_pos_site_id
_symmetry_equiv_pos_as_xyz
1 x,y,z
2 -x,1/2+y,1/2-z
3 -x,-y,-z
4 x,1/2-y,1/2+z
_cell_length_a                   6.8789(3)
_cell_length_b                   17.7009(8)
_cell_length_c                   11.7679(6)
_cell_angle_alpha                90
_cell_angle_beta                 105.110(2)
_cell_angle_gamma                90
_cell_volume                     1383.35
loop_
_atom_site_label
_atom_site_type_symbol
_atom_site_fract_x
_atom_site_fract_y
_atom_site_fract_z
C1 C 1.011(2) 0.0804(10) 0.6106(16)
C2 C 0.5937(15) 0.3147(6) 0.8356(9)
H1 H 0.7141 0.3458 0.8701
H2 H 0.5573 0.3221 0.7492
C3 C 0.3994(14) 0.1756(6) 0.8196(10)
H3 H 0.3552 0.1771 0.7325
H4 H 0.4025 0.1221 0.8442
C4 C 0.6703(15) 0.2164(7) 1.0286(10)
H5 H 0.6790 0.1639 1.0584
H6 H 0.7947 0.2431 1.0707
C5 C 0.2406(16) 0.2974(6) 0.8337(9)
H7 H 0.2092 0.3005 0.7468
H8 H 0.1277 0.3211 0.8583
C6 C 0.3089(15) 0.2134(7) 1.0011(10)
H9 H 0.1976 0.2346 1.0302
H10 H 0.3264 0.1599 1.0260
C7 C 0.4735(17) 0.3332(7) 1.0117(10)
H11 H 0.3682 0.3588 1.0412
H12 H 0.6023 0.3598 1.0455
N1 N 0.4225(13) 0.3407(5) 0.8832(7)
N2 N 0.2514(12) 0.2170(5) 0.8677(7)
N3 N 0.4926(13) 0.2544(5) 1.0545(8)
O1 O 0.9776(14) 0.0575(6) 0.7081(10)
O2 O 1.0127(14) 0.1466(6) 0.5861(10)
P1 P 0.6546(4) 0.21498(16) 0.8686(3)
Ag1 Ag 0.92100(12) 0.16362(5) 0.80381(9)
C8 C 1.062(2) 0.0235(9) 0.5269(16)
H13 H 1.1076 0.0526 0.4669
H14 H 1.1800 -0.0053 0.5724
C1B C 0.989(2) -0.0804(10) 0.3894(16)
O1B O 1.0224(14) -0.0575(6) 0.2919(10)
O2B O 0.9873(14) -0.1466(6) 0.4139(10)
C8B C 0.938(2) -0.0235(9) 0.4731(16)
H13B H 0.8924 -0.0526 0.5331
H14B H 0.8200 0.0053 0.4276
C2B C 1.4063(15) -0.3147(6) 0.1644(9)
H1B H 1.2859 -0.3458 0.1299
H2B H 1.4427 -0.3221 0.2508
C3B C 1.6006(14) -0.1756(6) 0.1804(10)
H3B H 1.6448 -0.1771 0.2675
H4B H 1.5975 -0.1221 0.1558
C4B C 1.3297(15) -0.2164(7) -0.0286(10)
H5B H 1.3210 -0.1639 -0.0584
H6B H 1.2053 -0.2431 -0.0707
C5B C 1.7594(16) -0.2974(6) 0.1663(9)
H7B H 1.7908 -0.3005 0.2532
H8B H 1.8723 -0.3211 0.1417
C6B C 1.6911(15) -0.2134(7) -0.0011(10)
H9B H 1.8024 -0.2346 -0.0302
H10B H 1.6736 -0.1599 -0.0260
C7B C 1.5265(17) -0.3332(7) -0.0117(10)
H11B H 1.6318 -0.3588 -0.0412
H12B H 1.3977 -0.3598 -0.0455
N1B N 1.5775(13) -0.3407(5) 0.1168(7)
N2B N 1.7486(12) -0.2170(5) 0.1323(7)
N3B N 1.5074(13) -0.2544(5) -0.0545(8)
P1B P 1.3454(4) -0.21498(16) 0.1314(3)
Ag1B Ag 1.07900(12) -0.16362(5) 0.19619(9)
N2_2 N 1.2514(12) 0.2170(5) 0.8677(7)
N2B_2 N 0.7486(12) -0.2170(5) 0.1323(7)
Ag1_2 Ag -0.07900(12) 0.16362(5) 0.80381(9)
Ag1B_2 Ag 2.07900(12) -0.16362(5) 0.19619(9)
O3 O 0.4069(19) 0.4924(7) 0.7978(15)
H15 H 0.43(2) 0.448(5) 0.838(14)
H16 H 0.284(11) 0.514(8) 0.776(16)
loop_
_geom_bond_atom_site_label_1
_geom_bond_atom_site_label_2
_geom_bond_site_symmetry_1
_geom_bond_site_symmetry_2
C1 O1 1_555 1_555
C2 H1 1_555 1_555
H2 C2 1_555 1_555
C3 H3 1_555 1_555
H4 C3 1_555 1_555
C4 H5 1_555 1_555
H6 C4 1_555 1_555
C5 H7 1_555 1_555
H8 C5 1_555 1_555
C6 H9 1_555 1_555
H10 C6 1_555 1_555
C7 H11 1_555 1_555
H12 C7 1_555 1_555
N1 C2 1_555 1_555
N2 C3 1_555 1_555
N3 C4 1_555 1_555
O1 Ag1 1_555 1_555
O2 C1 1_555 1_555
P1 C2 1_555 1_555
Ag1 P1 1_555 1_555
C8 C1 1_555 1_555
H13 C8 1_555 1_555
H14 C8 1_555 1_555
O3 H15 1_555 1_555
H16 O3 1_555 1_555
C1B O1B 1_555 1_555
O1B Ag1B 1_555 1_555
O2B C1B 1_555 1_555
C8B C8 1_555 1_555
H13B C8B 1_555 1_555
H14B C8B 1_555 1_555
C2B H1B 1_555 1_555
H2B C2B 1_555 1_555
C3B H3B 1_555 1_555
H4B C3B 1_555 1_555
C4B H5B 1_555 1_555
H6B C4B 1_555 1_555
C5B H7B 1_555 1_555
H8B C5B 1_555 1_555
C6B H9B 1_555 1_555
H10B C6B 1_555 1_555
C7B H11B 1_555 1_555
H12B C7B 1_555 1_555
N1B C2B 1_555 1_555
N2B C3B 1_555 1_555
N3B C4B 1_555 1_555
P1B C2B 1_555 1_555
Ag1B P1B 1_555 1_555
N2_2 Ag1 1_555 1_555
N2B_2 Ag1B 1_555 1_555
Ag1_2 N2 1_555 1_555
Ag1B_2 N2B 1_555 1_555
C3 P1 1_555 1_555
C4 P1 1_555 1_555
C5 N1 1_555 1_555
C5 N2 1_555 1_555
C6 N2 1_555 1_555
C6 N3 1_555 1_555
C7 N1 1_555 1_555
C7 N3 1_555 1_555
C1B C8B 1_555 1_555
C3B P1B 1_555 1_555
C4B P1B 1_555 1_555
C5B N1B 1_555 1_555
C5B N2B 1_555 1_555
C6B N2B 1_555 1_555
C6B N3B 1_555 1_555
C7B N1B 1_555 1_555
C7B N3B 1_555 1_555

#END
