
#######################################################################
#
#                 Cambridge Crystallographic Data Centre
#                                CCDC 
#
#######################################################################
#
# If this CIF has been generated from an entry in the Cambridge 
# Structural Database, then it will include bibliographic, chemical, 
# crystal, experimental, refinement or atomic coordinate data resulting 
# from the CCDC's data processing and validation procedures.
#
#######################################################################

data_YOYPOT
_symmetry_cell_setting           trigonal
_symmetry_space_group_name_H-M   'P -3 1 c'
_symmetry_Int_Tables_number      163
_space_group_name_Hall           "-P 3 2'c"
loop_
_symmetry_equiv_pos_site_id
_symmetry_equiv_pos_as_xyz
1 x,y,z
2 -y,x-y,z
3 -x+y,-x,z
4 -y,-x,1/2-z
5 x,x-y,1/2-z
6 -x+y,y,1/2-z
7 -x,-y,-z
8 y,-x+y,-z
9 x-y,x,-z
10 y,x,1/2+z
11 -x,-x+y,1/2+z
12 x-y,-y,1/2+z
_cell_length_a                   17.030(5)
_cell_length_b                   17.030(5)
_cell_length_c                   13.908(5)
_cell_angle_alpha                90
_cell_angle_beta                 90
_cell_angle_gamma                120
_cell_volume                     3493.21
loop_
_atom_site_label
_atom_site_type_symbol
_atom_site_fract_x
_atom_site_fract_y
_atom_site_fract_z
O2 O 0.2879(4) 0.7121(4) 0.7500
N3 N 0.3333 0.6667 0.7500
O2A O 0.2879(4) 0.5758(6) 0.7500
O2B O 0.4242(6) 0.7121(4) 0.7500
Co1 Co -0.3333 0.3333 0.60202(6)
O1 O -0.2220(2) 0.3536(2) 0.68089(19)
N1 N 0.1085(2) 0.6031(2) 0.9132(2)
N2 N 0.2274(2) 0.6672(2) 1.0148(2)
C1 C -0.1844(4) 0.4078(2) 0.7500
C2 C -0.0818(4) 0.4591(2) 0.7500
C3 C -0.0355(3) 0.5066(3) 0.8315(3)
H1 H -0.0670 0.5069 0.8860
C4 C 0.0579(3) 0.5533(3) 0.8303(3)
C5 C 0.1050(4) 0.5525(2) 0.7500
H2 H 0.1680 0.5840 0.7500
C6 C 0.1881(3) 0.6096(3) 0.9418(2)
H3 H 0.2125 0.5772 0.9134
C7 C 0.1685(3) 0.6999(3) 1.0346(3)
C8 C 0.1757(4) 0.7619(4) 1.1043(3)
H4 H 0.2243 0.7878 1.1469
C9 C 0.1077(5) 0.7829(5) 1.1073(5)
H5 H 0.1102 0.8237 1.1534
C10 C 0.0350(5) 0.7448(6) 1.0431(5)
H6 H -0.0094 0.7613 1.0472
C11 C 0.0270(4) 0.6834(4) 0.9736(4)
H7 H -0.0211 0.6586 0.9304
C12 C 0.0942(3) 0.6608(3) 0.9716(3)
O1D O -0.2220(2) 0.4244(3) 0.81911(19)
N1D N 0.1085(2) 0.5054(3) 0.5868(2)
N2D N 0.2274(2) 0.5602(3) 0.4852(2)
C3D C -0.0355(3) 0.4579(4) 0.6685(3)
H1D H -0.0670 0.4261 0.6140
C4D C 0.0579(3) 0.5046(4) 0.6697(3)
C6D C 0.1881(3) 0.5785(4) 0.5582(2)
H3D H 0.2125 0.6353 0.5866
C7D C 0.1685(3) 0.4686(4) 0.4654(3)
C8D C 0.1757(4) 0.4138(6) 0.3957(3)
H4D H 0.2243 0.4365 0.3531
C9D C 0.1077(5) 0.3248(7) 0.3927(5)
H5D H 0.1102 0.2865 0.3466
C10D C 0.0350(5) 0.2902(8) 0.4569(5)
H6D H -0.0094 0.2293 0.4528
C11D C 0.0270(4) 0.3436(6) 0.5264(4)
H7D H -0.0211 0.3203 0.5696
C12D C 0.0942(3) 0.4334(4) 0.5284(3)
O1A O -0.3536(2) 0.4244(3) 0.68089(19)
N1A N -0.6031(2) 0.5054(3) 0.9132(2)
N2A N -0.6672(2) 0.5602(3) 1.0148(2)
C1A C -0.4078(2) 0.4078(4) 0.7500
C2A C -0.4591(2) 0.4591(4) 0.7500
C3A C -0.5066(3) 0.4579(4) 0.8315(3)
H1A H -0.5069 0.4261 0.8860
C4A C -0.5533(3) 0.5046(4) 0.8303(3)
C5A C -0.5525(2) 0.5525(4) 0.7500
H2A H -0.5840 0.5840 0.7500
C6A C -0.6096(3) 0.5785(4) 0.9418(2)
H3A H -0.5772 0.6353 0.9134
C7A C -0.6999(3) 0.4686(4) 1.0346(3)
C8A C -0.7619(4) 0.4138(6) 1.1043(3)
H4A H -0.7878 0.4365 1.1469
C9A C -0.7829(5) 0.3248(7) 1.1073(5)
H5A H -0.8237 0.2865 1.1534
C10A C -0.7448(6) 0.2902(8) 1.0431(5)
H6A H -0.7613 0.2293 1.0472
C11A C -0.6834(4) 0.3436(6) 0.9736(4)
H7A H -0.6586 0.3203 0.9304
C12A C -0.6608(3) 0.4334(4) 0.9716(3)
O1E O -0.4244(3) 0.3536(2) 0.81911(19)
N1E N -0.5054(3) 0.6031(2) 0.5868(2)
N2E N -0.5602(3) 0.6672(2) 0.4852(2)
C3E C -0.4579(4) 0.5066(3) 0.6685(3)
H1E H -0.4261 0.5069 0.6140
C4E C -0.5046(4) 0.5533(3) 0.6697(3)
C6E C -0.5785(4) 0.6096(3) 0.5582(2)
H3E H -0.6353 0.5772 0.5866
C7E C -0.4686(4) 0.6999(3) 0.4654(3)
C8E C -0.4138(6) 0.7619(4) 0.3957(3)
H4E H -0.4365 0.7878 0.3531
C9E C -0.3248(7) 0.7829(5) 0.3927(5)
H5E H -0.2865 0.8237 0.3466
C10E C -0.2902(8) 0.7448(6) 0.4569(5)
H6E H -0.2293 0.7613 0.4528
C11E C -0.3436(6) 0.6834(4) 0.5264(4)
H7E H -0.3203 0.6586 0.5696
C12E C -0.4334(4) 0.6608(3) 0.5284(3)
O1B O -0.4244(3) 0.2220(2) 0.68089(19)
N1B N -0.5054(3) -0.1085(2) 0.9132(2)
N2B N -0.5602(3) -0.2274(2) 1.0148(2)
C1B C -0.4078(4) 0.1844(4) 0.7500
C2B C -0.4591(4) 0.0818(4) 0.7500
C3B C -0.4579(4) 0.0355(3) 0.8315(3)
H1B H -0.4261 0.0670 0.8860
C4B C -0.5046(4) -0.0579(3) 0.8303(3)
C5B C -0.5525(4) -0.1050(4) 0.7500
H2B H -0.5840 -0.1680 0.7500
C6B C -0.5785(4) -0.1881(3) 0.9418(2)
H3B H -0.6353 -0.2125 0.9134
C7B C -0.4686(4) -0.1685(3) 1.0346(3)
C8B C -0.4138(6) -0.1757(4) 1.1043(3)
H4B H -0.4365 -0.2243 1.1469
C9B C -0.3248(7) -0.1077(5) 1.1073(5)
H5B H -0.2865 -0.1102 1.1534
C10B C -0.2902(8) -0.0350(5) 1.0431(5)
H6B H -0.2293 0.0094 1.0472
C11B C -0.3436(6) -0.0270(4) 0.9736(4)
H7B H -0.3203 0.0211 0.9304
C12B C -0.4334(4) -0.0942(3) 0.9716(3)
O1C O -0.3536(2) 0.2220(2) 0.81911(19)
N1C N -0.6031(2) -0.1085(2) 0.5868(2)
N2C N -0.6672(2) -0.2274(2) 0.4852(2)
C3C C -0.5066(3) 0.0355(3) 0.6685(3)
H1C H -0.5069 0.0670 0.6140
C4C C -0.5533(3) -0.0579(3) 0.6697(3)
C6C C -0.6096(3) -0.1881(3) 0.5582(2)
H3C H -0.5772 -0.2125 0.5866
C7C C -0.6999(3) -0.1685(3) 0.4654(3)
C8C C -0.7619(4) -0.1757(4) 0.3957(3)
H4C H -0.7878 -0.2243 0.3531
C9C C -0.7829(5) -0.1077(5) 0.3927(5)
H5C H -0.8237 -0.1102 0.3466
C10C C -0.7448(6) -0.0350(5) 0.4569(5)
H6C H -0.7613 0.0094 0.4528
C11C C -0.6834(4) -0.0270(4) 0.5264(4)
H7C H -0.6586 0.0211 0.5696
C12C C -0.6608(3) -0.0942(3) 0.5284(3)
Co1C Co -0.3333 0.3333 0.89798(6)
Co1F Co -0.6667 -0.3333 0.39798(6)
Co1F_2 Co -0.6667 0.6667 0.39798(6)
Co1F_3 Co 0.3333 0.6667 0.39798(6)
Co1I Co -0.6667 -0.3333 1.10202(6)
Co1I_2 Co -0.6667 0.6667 1.10202(6)
Co1I_3 Co 0.3333 0.6667 1.10202(6)
N2F N -0.2274(2) 0.3328(2) 0.9852(2)
N2G N -0.3328(2) 0.4398(3) 0.9852(2)
N2H N -0.4398(3) 0.2274(2) 0.9852(2)
N2I N -0.3328(2) 0.2274(2) 0.5148(2)
N2J N -0.2274(2) 0.4398(3) 0.5148(2)
N2K N -0.4398(3) 0.3328(2) 0.5148(2)
loop_
_geom_bond_atom_site_label_1
_geom_bond_atom_site_label_2
_geom_bond_site_symmetry_1
_geom_bond_site_symmetry_2
Co1 O1 1_555 1_555
O1 C1 1_555 1_555
N1 C4 1_555 1_555
N2 C6 1_555 1_555
C1 C2 1_555 1_555
C2 C3 1_555 1_555
C3 H1 1_555 1_555
C4 C3 1_555 1_555
C5 C4 1_555 1_555
H2 C5 1_555 1_555
C6 N1 1_555 1_555
H3 C6 1_555 1_555
C7 N2 1_555 1_555
C8 C7 1_555 1_555
H4 C8 1_555 1_555
C9 C8 1_555 1_555
H5 C9 1_555 1_555
C10 C9 1_555 1_555
H6 C10 1_555 1_555
C11 C10 1_555 1_555
H7 C11 1_555 1_555
C12 N1 1_555 1_555
O2 N3 1_555 1_555
N3 O2A 1_555 1_555
O1D C1 1_555 1_555
N1D C4D 1_555 1_555
N2D C6D 1_555 1_555
C3D C2 1_555 1_555
H1D C3D 1_555 1_555
C4D C5 1_555 1_555
C6D N1D 1_555 1_555
H3D C6D 1_555 1_555
C7D N2D 1_555 1_555
C8D C7D 1_555 1_555
H4D C8D 1_555 1_555
C9D C8D 1_555 1_555
H5D C9D 1_555 1_555
C10D C9D 1_555 1_555
H6D C10D 1_555 1_555
C11D C10D 1_555 1_555
H7D C11D 1_555 1_555
C12D N1D 1_555 1_555
O1A Co1 1_555 1_555
N1A C4A 1_555 1_555
N2A C6A 1_555 1_555
C1A O1A 1_555 1_555
C2A C1A 1_555 1_555
C3A C2A 1_555 1_555
H1A C3A 1_555 1_555
C4A C3A 1_555 1_555
C5A C4A 1_555 1_555
H2A C5A 1_555 1_555
C6A N1A 1_555 1_555
H3A C6A 1_555 1_555
C7A N2A 1_555 1_555
C8A C7A 1_555 1_555
H4A C8A 1_555 1_555
C9A C8A 1_555 1_555
H5A C9A 1_555 1_555
C10A C9A 1_555 1_555
H6A C10A 1_555 1_555
C11A C10A 1_555 1_555
H7A C11A 1_555 1_555
C12A N1A 1_555 1_555
O1E C1A 1_555 1_555
N1E C4E 1_555 1_555
N2E C6E 1_555 1_555
C3E C2A 1_555 1_555
H1E C3E 1_555 1_555
C4E C5A 1_555 1_555
C6E N1E 1_555 1_555
H3E C6E 1_555 1_555
C7E N2E 1_555 1_555
C8E C7E 1_555 1_555
H4E C8E 1_555 1_555
C9E C8E 1_555 1_555
H5E C9E 1_555 1_555
C10E C9E 1_555 1_555
H6E C10E 1_555 1_555
C11E C10E 1_555 1_555
H7E C11E 1_555 1_555
C12E N1E 1_555 1_555
O1B Co1 1_555 1_555
N1B C4B 1_555 1_555
N2B C6B 1_555 1_555
C1B O1B 1_555 1_555
C2B C1B 1_555 1_555
C3B C2B 1_555 1_555
H1B C3B 1_555 1_555
C4B C3B 1_555 1_555
C5B C4B 1_555 1_555
H2B C5B 1_555 1_555
C6B N1B 1_555 1_555
H3B C6B 1_555 1_555
C7B N2B 1_555 1_555
C8B C7B 1_555 1_555
H4B C8B 1_555 1_555
C9B C8B 1_555 1_555
H5B C9B 1_555 1_555
C10B C9B 1_555 1_555
H6B C10B 1_555 1_555
C11B C10B 1_555 1_555
H7B C11B 1_555 1_555
C12B N1B 1_555 1_555
O1C C1B 1_555 1_555
N1C C4C 1_555 1_555
N2C C6C 1_555 1_555
C3C C2B 1_555 1_555
H1C C3C 1_555 1_555
C4C C5B 1_555 1_555
C6C N1C 1_555 1_555
H3C C6C 1_555 1_555
C7C N2C 1_555 1_555
C8C C7C 1_555 1_555
H4C C8C 1_555 1_555
C9C C8C 1_555 1_555
H5C C9C 1_555 1_555
C10C C9C 1_555 1_555
H6C C10C 1_555 1_555
C11C C10C 1_555 1_555
H7C C11C 1_555 1_555
C12C N1C 1_555 1_555
Co1C O1D 1_555 1_555
Co1F N2C 1_555 1_555
Co1F_2 N2E 1_555 1_555
Co1F_3 N2D 1_555 1_555
Co1I N2B 1_555 1_555
Co1I_2 N2A 1_555 1_555
Co1I_3 N2 1_555 1_555
N2F Co1C 1_555 1_555
N2G Co1C 1_555 1_555
N2H Co1C 1_555 1_555
N2I Co1 1_555 1_555
N2J Co1 1_555 1_555
N2K Co1 1_555 1_555
O2B N3 1_555 1_555
C7 C12 1_555 1_555
C11 C12 1_555 1_555
C3D C4D 1_555 1_555
C7D C12D 1_555 1_555
C11D C12D 1_555 1_555
C7A C12A 1_555 1_555
C11A C12A 1_555 1_555
O1E Co1C 1_555 1_555
C3E C4E 1_555 1_555
C7E C12E 1_555 1_555
C11E C12E 1_555 1_555
C7B C12B 1_555 1_555
C11B C12B 1_555 1_555
O1C Co1C 1_555 1_555
C3C C4C 1_555 1_555
C7C C12C 1_555 1_555
C11C C12C 1_555 1_555

#END
