
#######################################################################
#
#                 Cambridge Crystallographic Data Centre
#                                CCDC 
#
#######################################################################
#
# If this CIF has been generated from an entry in the Cambridge 
# Structural Database, then it will include bibliographic, chemical, 
# crystal, experimental, refinement or atomic coordinate data resulting 
# from the CCDC's data processing and validation procedures.
#
#######################################################################

data_YOYPEJ
_symmetry_cell_setting           trigonal
_symmetry_space_group_name_H-M   'P -3 1 c'
_symmetry_Int_Tables_number      163
_space_group_name_Hall           "-P 3 2'c"
loop_
_symmetry_equiv_pos_site_id
_symmetry_equiv_pos_as_xyz
1 x,y,z
2 -y,x-y,z
3 -x+y,-x,z
4 -y,-x,1/2-z
5 x,x-y,1/2-z
6 -x+y,y,1/2-z
7 -x,-y,-z
8 y,-x+y,-z
9 x-y,x,-z
10 y,x,1/2+z
11 -x,-x+y,1/2+z
12 x-y,-y,1/2+z
_cell_length_a                   16.946(5)
_cell_length_b                   16.946(5)
_cell_length_c                   13.838(5)
_cell_angle_alpha                90
_cell_angle_beta                 90
_cell_angle_gamma                120
_cell_volume                     3441.43
loop_
_atom_site_label
_atom_site_type_symbol
_atom_site_fract_x
_atom_site_fract_y
_atom_site_fract_z
Cl1 Cl 0.3333 0.6667 0.7500
Ni1 Ni -0.3333 0.3333 0.60159(3)
O1 O -0.22324(9) 0.42349(9) 0.68060(10)
N1 N 0.10978(12) 0.50620(12) 0.91394(12)
N2 N 0.22825(11) 0.56156(11) 1.01593(12)
C1 C -0.18503(19) 0.40748(9) 0.7500
C2 C -0.08286(19) 0.45857(10) 0.7500
C3 C -0.03567(14) 0.45838(14) 0.83254(14)
H1 H -0.0671 0.4273 0.8878
C4 C 0.05799(14) 0.50473(14) 0.83107(15)
C5 C 0.1064(2) 0.55321(10) 0.7500
H2 H 0.1698 0.5849 0.7500
C6 C 0.18970(14) 0.57876(14) 0.94307(14)
H3 H 0.2149 0.6357 0.9139
C7 C 0.16902(14) 0.46955(14) 1.03803(15)
C8 C 0.17459(17) 0.41404(16) 1.10852(18)
H4 H 0.2236 0.4364 1.1511
C9 C 0.1054(2) 0.32534(17) 1.1131(2)
H5 H 0.1074 0.2872 1.1601
C10 C 0.0314(2) 0.29040(18) 1.0484(2)
H6 H -0.0140 0.2296 1.0534
C11 C 0.02462(18) 0.34387(16) 0.97801(19)
H7 H -0.0242 0.3209 0.9352
C12 C 0.09435(15) 0.43375(15) 0.97421(16)
O1D O -0.22324(9) 0.35327(13) 0.81940(10)
N1D N 0.10978(12) 0.60358(17) 0.58606(12)
N2D N 0.22825(11) 0.66669(16) 0.48407(12)
C3D C -0.03567(14) 0.50595(20) 0.66746(14)
H1D H -0.0671 0.5056 0.6122
C4D C 0.05799(14) 0.55326(20) 0.66893(15)
C6D C 0.18970(14) 0.61094(20) 0.55693(14)
H3D H 0.2149 0.5792 0.5861
C7D C 0.16902(14) 0.69947(20) 0.46197(15)
C8D C 0.17459(17) 0.76055(23) 0.39148(18)
H4D H 0.2236 0.7872 0.3489
C9D C 0.1054(2) 0.78006(26) 0.3869(2)
H5D H 0.1074 0.8202 0.3399
C10D C 0.0314(2) 0.74100(27) 0.4516(2)
H6D H -0.0140 0.7564 0.4466
C11D C 0.02462(18) 0.68075(24) 0.52199(19)
H7D H -0.0242 0.6549 0.5648
C12D C 0.09435(15) 0.66060(21) 0.52579(16)
O1A O -0.42349(9) 0.35327(13) 0.68060(10)
N1A N -0.50620(12) 0.60358(17) 0.91394(12)
N2A N -0.56156(11) 0.66669(16) 1.01593(12)
C1A C -0.40748(9) 0.40749(21) 0.7500
C2A C -0.45857(10) 0.45857(21) 0.7500
C3A C -0.45838(14) 0.50595(20) 0.83254(14)
H1A H -0.4273 0.5056 0.8878
C4A C -0.50473(14) 0.55326(20) 0.83107(15)
C5A C -0.55321(10) 0.55319(22) 0.7500
H2A H -0.5849 0.5849 0.7500
C6A C -0.57876(14) 0.61094(20) 0.94307(14)
H3A H -0.6357 0.5792 0.9139
C7A C -0.46955(14) 0.69947(20) 1.03803(15)
C8A C -0.41404(16) 0.76055(23) 1.10852(18)
H4A H -0.4364 0.7872 1.1511
C9A C -0.32534(17) 0.78006(26) 1.1131(2)
H5A H -0.2872 0.8202 1.1601
C10A C -0.29040(18) 0.74100(27) 1.0484(2)
H6A H -0.2296 0.7564 1.0534
C11A C -0.34387(16) 0.68075(24) 0.97801(19)
H7A H -0.3209 0.6549 0.9352
C12A C -0.43375(15) 0.66060(21) 0.97421(16)
O1E O -0.35327(13) 0.42349(9) 0.81940(10)
N1E N -0.60358(17) 0.50620(12) 0.58606(12)
N2E N -0.66669(16) 0.56156(11) 0.48407(12)
C3E C -0.50595(20) 0.45838(14) 0.66746(14)
H1E H -0.5056 0.4273 0.6122
C4E C -0.55326(20) 0.50473(14) 0.66893(15)
C6E C -0.61094(20) 0.57876(14) 0.55693(14)
H3E H -0.5792 0.6357 0.5861
C7E C -0.69947(20) 0.46955(14) 0.46197(15)
C8E C -0.76055(23) 0.41404(16) 0.39148(18)
H4E H -0.7872 0.4364 0.3489
C9E C -0.78006(26) 0.32534(17) 0.3869(2)
H5E H -0.8202 0.2872 0.3399
C10E C -0.74100(27) 0.29040(18) 0.4516(2)
H6E H -0.7564 0.2296 0.4466
C11E C -0.68075(24) 0.34387(16) 0.52199(19)
H7E H -0.6549 0.3209 0.5648
C12E C -0.66060(21) 0.43375(15) 0.52579(16)
O1B O -0.35327(13) 0.22324(9) 0.68060(10)
N1B N -0.60358(17) -0.10978(12) 0.91394(12)
N2B N -0.66669(16) -0.22825(11) 1.01593(12)
C1B C -0.40749(21) 0.18503(19) 0.7500
C2B C -0.45857(21) 0.08286(19) 0.7500
C3B C -0.50595(20) 0.03567(14) 0.83254(14)
H1B H -0.5056 0.0671 0.8878
C4B C -0.55326(20) -0.05799(14) 0.83107(15)
C5B C -0.55319(22) -0.1064(2) 0.7500
H2B H -0.5849 -0.1698 0.7500
C6B C -0.61094(20) -0.18970(14) 0.94307(14)
H3B H -0.5792 -0.2149 0.9139
C7B C -0.69947(20) -0.16902(14) 1.03803(15)
C8B C -0.76055(23) -0.17459(17) 1.10852(18)
H4B H -0.7872 -0.2236 1.1511
C9B C -0.78006(26) -0.1054(2) 1.1131(2)
H5B H -0.8202 -0.1074 1.1601
C10B C -0.74100(27) -0.0314(2) 1.0484(2)
H6B H -0.7564 0.0140 1.0534
C11B C -0.68075(24) -0.02462(18) 0.97801(19)
H7B H -0.6549 0.0242 0.9352
C12B C -0.66060(21) -0.09435(15) 0.97421(16)
O1C O -0.42349(9) 0.22324(9) 0.81940(10)
N1C N -0.50620(12) -0.10978(12) 0.58606(12)
N2C N -0.56156(11) -0.22825(11) 0.48407(12)
C3C C -0.45838(14) 0.03567(14) 0.66746(14)
H1C H -0.4273 0.0671 0.6122
C4C C -0.50473(14) -0.05799(14) 0.66893(15)
C6C C -0.57876(14) -0.18970(14) 0.55693(14)
H3C H -0.6357 -0.2149 0.5861
C7C C -0.46955(14) -0.16902(14) 0.46197(15)
C8C C -0.41404(16) -0.17459(17) 0.39148(18)
H4C H -0.4364 -0.2236 0.3489
C9C C -0.32534(17) -0.1054(2) 0.3869(2)
H5C H -0.2872 -0.1074 0.3399
C10C C -0.29040(18) -0.0314(2) 0.4516(2)
H6C H -0.2296 0.0140 0.4466
C11C C -0.34387(16) -0.02462(18) 0.52199(19)
H7C H -0.3209 0.0242 0.5648
C12C C -0.43375(15) -0.09435(15) 0.52579(16)
Ni1C Ni -0.3333 0.3333 0.89841(3)
Ni1F Ni -0.6667 -0.3333 0.39841(3)
Ni1F_2 Ni -0.6667 0.6667 0.39841(3)
Ni1F_3 Ni 0.3333 0.6667 0.39841(3)
Ni1I Ni -0.6667 -0.3333 1.10159(3)
Ni1I_2 Ni -0.6667 0.6667 1.10159(3)
Ni1I_3 Ni 0.3333 0.6667 1.10159(3)
N2F N -0.22825(11) 0.43844(11) 0.98407(12)
N2G N -0.43844(11) 0.33331(16) 0.98407(12)
N2H N -0.33331(16) 0.22825(11) 0.98407(12)
N2I N -0.43844(11) 0.22825(11) 0.51593(12)
N2J N -0.22825(11) 0.33331(16) 0.51593(12)
N2K N -0.33331(16) 0.43844(11) 0.51593(12)
loop_
_geom_bond_atom_site_label_1
_geom_bond_atom_site_label_2
_geom_bond_site_symmetry_1
_geom_bond_site_symmetry_2
Ni1 O1 1_555 1_555
O1 C1 1_555 1_555
N1 C4 1_555 1_555
N2 C6 1_555 1_555
C1 C2 1_555 1_555
C2 C3 1_555 1_555
C3 H1 1_555 1_555
C4 C3 1_555 1_555
C5 C4 1_555 1_555
H2 C5 1_555 1_555
C6 N1 1_555 1_555
H3 C6 1_555 1_555
C7 N2 1_555 1_555
C8 C7 1_555 1_555
H4 C8 1_555 1_555
C9 C8 1_555 1_555
H5 C9 1_555 1_555
C10 C9 1_555 1_555
H6 C10 1_555 1_555
C11 C10 1_555 1_555
H7 C11 1_555 1_555
C12 N1 1_555 1_555
O1D C1 1_555 1_555
N1D C4D 1_555 1_555
N2D C6D 1_555 1_555
C3D C2 1_555 1_555
H1D C3D 1_555 1_555
C4D C5 1_555 1_555
C6D N1D 1_555 1_555
H3D C6D 1_555 1_555
C7D N2D 1_555 1_555
C8D C7D 1_555 1_555
H4D C8D 1_555 1_555
C9D C8D 1_555 1_555
H5D C9D 1_555 1_555
C10D C9D 1_555 1_555
H6D C10D 1_555 1_555
C11D C10D 1_555 1_555
H7D C11D 1_555 1_555
C12D N1D 1_555 1_555
O1A Ni1 1_555 1_555
N1A C4A 1_555 1_555
N2A C6A 1_555 1_555
C1A O1A 1_555 1_555
C2A C1A 1_555 1_555
C3A C2A 1_555 1_555
H1A C3A 1_555 1_555
C4A C3A 1_555 1_555
C5A C4A 1_555 1_555
H2A C5A 1_555 1_555
C6A N1A 1_555 1_555
H3A C6A 1_555 1_555
C7A N2A 1_555 1_555
C8A C7A 1_555 1_555
H4A C8A 1_555 1_555
C9A C8A 1_555 1_555
H5A C9A 1_555 1_555
C10A C9A 1_555 1_555
H6A C10A 1_555 1_555
C11A C10A 1_555 1_555
H7A C11A 1_555 1_555
C12A N1A 1_555 1_555
O1E C1A 1_555 1_555
N1E C4E 1_555 1_555
N2E C6E 1_555 1_555
C3E C2A 1_555 1_555
H1E C3E 1_555 1_555
C4E C5A 1_555 1_555
C6E N1E 1_555 1_555
H3E C6E 1_555 1_555
C7E N2E 1_555 1_555
C8E C7E 1_555 1_555
H4E C8E 1_555 1_555
C9E C8E 1_555 1_555
H5E C9E 1_555 1_555
C10E C9E 1_555 1_555
H6E C10E 1_555 1_555
C11E C10E 1_555 1_555
H7E C11E 1_555 1_555
C12E N1E 1_555 1_555
O1B Ni1 1_555 1_555
N1B C4B 1_555 1_555
N2B C6B 1_555 1_555
C1B O1B 1_555 1_555
C2B C1B 1_555 1_555
C3B C2B 1_555 1_555
H1B C3B 1_555 1_555
C4B C3B 1_555 1_555
C5B C4B 1_555 1_555
H2B C5B 1_555 1_555
C6B N1B 1_555 1_555
H3B C6B 1_555 1_555
C7B N2B 1_555 1_555
C8B C7B 1_555 1_555
H4B C8B 1_555 1_555
C9B C8B 1_555 1_555
H5B C9B 1_555 1_555
C10B C9B 1_555 1_555
H6B C10B 1_555 1_555
C11B C10B 1_555 1_555
H7B C11B 1_555 1_555
C12B N1B 1_555 1_555
O1C C1B 1_555 1_555
N1C C4C 1_555 1_555
N2C C6C 1_555 1_555
C3C C2B 1_555 1_555
H1C C3C 1_555 1_555
C4C C5B 1_555 1_555
C6C N1C 1_555 1_555
H3C C6C 1_555 1_555
C7C N2C 1_555 1_555
C8C C7C 1_555 1_555
H4C C8C 1_555 1_555
C9C C8C 1_555 1_555
H5C C9C 1_555 1_555
C10C C9C 1_555 1_555
H6C C10C 1_555 1_555
C11C C10C 1_555 1_555
H7C C11C 1_555 1_555
C12C N1C 1_555 1_555
Ni1C O1D 1_555 1_555
Ni1F N2C 1_555 1_555
Ni1F_2 N2E 1_555 1_555
Ni1F_3 N2D 1_555 1_555
Ni1I N2B 1_555 1_555
Ni1I_2 N2A 1_555 1_555
Ni1I_3 N2 1_555 1_555
N2F Ni1C 1_555 1_555
N2G Ni1C 1_555 1_555
N2H Ni1C 1_555 1_555
N2I Ni1 1_555 1_555
N2J Ni1 1_555 1_555
N2K Ni1 1_555 1_555
C7 C12 1_555 1_555
C11 C12 1_555 1_555
C3D C4D 1_555 1_555
C7D C12D 1_555 1_555
C11D C12D 1_555 1_555
C7A C12A 1_555 1_555
C11A C12A 1_555 1_555
O1E Ni1C 1_555 1_555
C3E C4E 1_555 1_555
C7E C12E 1_555 1_555
C11E C12E 1_555 1_555
C7B C12B 1_555 1_555
C11B C12B 1_555 1_555
O1C Ni1C 1_555 1_555
C3C C4C 1_555 1_555
C7C C12C 1_555 1_555
C11C C12C 1_555 1_555

#END
