
#######################################################################
#
#                 Cambridge Crystallographic Data Centre
#                                CCDC 
#
#######################################################################
#
# If this CIF has been generated from an entry in the Cambridge 
# Structural Database, then it will include bibliographic, chemical, 
# crystal, experimental, refinement or atomic coordinate data resulting 
# from the CCDC's data processing and validation procedures.
#
#######################################################################

data_YOYPAD01
_symmetry_cell_setting           monoclinic
_symmetry_space_group_name_H-M   'P 21/c'
_symmetry_Int_Tables_number      14
_space_group_name_Hall           '-P 2ybc'
loop_
_symmetry_equiv_pos_site_id
_symmetry_equiv_pos_as_xyz
1 x,y,z
2 -x,1/2+y,1/2-z
3 -x,-y,-z
4 x,1/2-y,1/2+z
_cell_length_a                   6.728(1)
_cell_length_b                   32.117(9)
_cell_length_c                   8.150(1)
_cell_angle_alpha                90
_cell_angle_beta                 111.60(1)
_cell_angle_gamma                90
_cell_volume                     1637.41
loop_
_atom_site_label
_atom_site_type_symbol
_atom_site_fract_x
_atom_site_fract_y
_atom_site_fract_z
Sm1 Sm 0.0393 0.6575 0.3337
Cu1 Cu 0.0000 0.5000 0.0000
O1 O -0.0181 0.7057 0.0607
O2 O 0.3825 0.6367 0.5744
O3 O 0.2701 0.6341 0.1708
O4 O -0.2461 0.6295 0.0504
O5 O -0.2541 0.6205 0.4136
O6 O 0.0579 0.6861 0.6285
O7 O -0.2152 0.5381 0.0321
O8 O 0.2794 0.5517 0.0569
O10 O 0.2681 0.7180 0.3758
O11 O 0.6480 0.6962 0.7232
O12 O 0.7614 0.7937 0.8103
O13 O 0.3842 0.8171 0.4438
O14 O 0.1025 0.4823 0.2467
O15 O 0.0738 0.5797 0.3423
O16 O 0.3955 0.5606 0.7439
O17 O 0.3727 0.4618 0.6487
C1 C 0.4080 0.7394 0.4925
C2 C 0.5899 0.7302 0.6527
C3 C 0.6275 0.7739 0.6836
C4 C 0.4550 0.7840 0.5253
C5 C 0.1705 0.5045 0.3827
C6 C 0.1657 0.5483 0.4250
C7 C 0.3016 0.5390 0.6120
C8 C 0.2978 0.4947 0.5673
O7B O 0.2152 0.4619 -0.0321
O8B O -0.2794 0.4483 -0.0569
O14B O -0.1025 0.5177 -0.2467
O15B O -0.0738 0.4203 -0.3423
O16B O -0.3955 0.4394 -0.7439
O17B O -0.3727 0.5382 -0.6487
C5B C -0.1705 0.4955 -0.3827
C6B C -0.1657 0.4517 -0.4250
C7B C -0.3016 0.4610 -0.6120
C8B C -0.2978 0.5053 -0.5673
Sm1B Sm -0.0393 0.3425 -0.3337
O10C O -0.7319 0.7820 -0.1242
O11C O -0.3520 0.8038 0.2232
O12C O -0.2386 0.7063 0.3103
O13C O -0.6158 0.6829 -0.0562
C1C C -0.5920 0.7606 -0.0075
C2C C -0.4101 0.7698 0.1527
C3C C -0.3725 0.7261 0.1836
C4C C -0.5450 0.7160 0.0253
O1B O 0.0181 0.2943 -0.0607
O2B O -0.3825 0.3633 -0.5744
O3B O -0.2701 0.3659 -0.1708
O4B O 0.2461 0.3705 -0.0504
O5B O 0.2541 0.3795 -0.4136
O6B O -0.0579 0.3139 -0.6285
Sm1C Sm 1.0393 0.8425 0.8337
O10B O -0.2681 0.2820 -0.3758
O12A O 0.2386 0.2937 -0.3103
Sm1C_2 Sm -0.9607 0.8425 -0.1663
O9 O -0.1026 0.6080 -0.2056
loop_
_geom_bond_atom_site_label_1
_geom_bond_atom_site_label_2
_geom_bond_site_symmetry_1
_geom_bond_site_symmetry_2
Sm1 O1 1_555 1_555
Cu1 O7 1_555 1_555
O2 Sm1 1_555 1_555
O3 Sm1 1_555 1_555
O4 Sm1 1_555 1_555
O5 Sm1 1_555 1_555
O6 Sm1 1_555 1_555
O8 Cu1 1_555 1_555
O10 Sm1 1_555 1_555
O11 C2 1_555 1_555
O12 C3 1_555 1_555
O13 C4 1_555 1_555
O14 Cu1 1_555 1_555
O15 Sm1 1_555 1_555
O16 C7 1_555 1_555
O17 C8 1_555 1_555
C1 O10 1_555 1_555
C2 C1 1_555 1_555
C3 C2 1_555 1_555
C4 C1 1_555 1_555
C5 O14 1_555 1_555
C6 O15 1_555 1_555
C7 C6 1_555 1_555
C8 C5 1_555 1_555
O7B Cu1 1_555 1_555
O8B Cu1 1_555 1_555
O14B Cu1 1_555 1_555
O15B C6B 1_555 1_555
O16B C7B 1_555 1_555
O17B C8B 1_555 1_555
C5B O14B 1_555 1_555
C6B C5B 1_555 1_555
C7B C6B 1_555 1_555
C8B C5B 1_555 1_555
Sm1B O15B 1_555 1_555
O10C C1C 1_555 1_555
O11C C2C 1_555 1_555
O12C Sm1 1_555 1_555
O13C C4C 1_555 1_555
C1C C2C 1_555 1_555
C2C C3C 1_555 1_555
C3C O12C 1_555 1_555
C4C C1C 1_555 1_555
O1B Sm1B 1_555 1_555
O2B Sm1B 1_555 1_555
O3B Sm1B 1_555 1_555
O4B Sm1B 1_555 1_555
O5B Sm1B 1_555 1_555
O6B Sm1B 1_555 1_555
Sm1C O12 1_555 1_555
O10B Sm1B 1_555 1_555
O12A Sm1B 1_555 1_555
Sm1C_2 O10C 1_555 1_555
C3 C4 1_555 1_555
C5 C6 1_555 1_555
C7 C8 1_555 1_555
C7B C8B 1_555 1_555
C3C C4C 1_555 1_555

#END
