
#######################################################################
#
#                 Cambridge Crystallographic Data Centre
#                                CCDC 
#
#######################################################################
#
# If this CIF has been generated from an entry in the Cambridge 
# Structural Database, then it will include bibliographic, chemical, 
# crystal, experimental, refinement or atomic coordinate data resulting 
# from the CCDC's data processing and validation procedures.
#
#######################################################################

data_YOYPAF
_symmetry_cell_setting           trigonal
_symmetry_space_group_name_H-M   'P -3 1 c'
_symmetry_Int_Tables_number      163
_space_group_name_Hall           "-P 3 2'c"
loop_
_symmetry_equiv_pos_site_id
_symmetry_equiv_pos_as_xyz
1 x,y,z
2 -y,x-y,z
3 -x+y,-x,z
4 -y,-x,1/2-z
5 x,x-y,1/2-z
6 -x+y,y,1/2-z
7 -x,-y,-z
8 y,-x+y,-z
9 x-y,x,-z
10 y,x,1/2+z
11 -x,-x+y,1/2+z
12 x-y,-y,1/2+z
_cell_length_a                   16.870(5)
_cell_length_b                   16.870(5)
_cell_length_c                   13.886(5)
_cell_angle_alpha                90
_cell_angle_beta                 90
_cell_angle_gamma                120
_cell_volume                     3422.46
loop_
_atom_site_label
_atom_site_type_symbol
_atom_site_fract_x
_atom_site_fract_y
_atom_site_fract_z
O2 O 0.2852(3) 0.5704(5) 0.2500
N3 N 0.3333 0.6667 0.2500
O2A O 0.4296(5) 0.7148(6) 0.2500
O2B O 0.2852(6) 0.7148(3) 0.2500
Ni1 Ni -0.3333 0.3333 0.10260(7)
O1 O -0.2228(2) 0.3529(2) 0.1810(2)
N1 N 0.1112(3) 0.6054(3) 0.4134(3)
N2 N 0.2281(3) 0.6673(3) 0.5173(3)
C1 C -0.1847(5) 0.4076(2) 0.2500
C2 C -0.0813(5) 0.4594(2) 0.2500
C3 C -0.0340(3) 0.5075(3) 0.3317(3)
H1 H -0.0656 0.5077 0.3864
C4 C 0.0601(3) 0.5548(4) 0.3305(3)
C5 C 0.1077(5) 0.5539(3) 0.2500
H2 H 0.1714 0.5857 0.2500
C6 C 0.1904(3) 0.6109(4) 0.4442(3)
H3 H 0.2154 0.5781 0.4164
C7 C 0.1709(4) 0.7028(4) 0.5358(4)
C8 C 0.1785(5) 0.7664(5) 0.6042(5)
H4 H 0.2271 0.7924 0.6473
C9 C 0.1101(6) 0.7893(8) 0.6053(7)
H5 H 0.1121 0.8301 0.6516
C10 C 0.0381(6) 0.7528(7) 0.5387(7)
H6 H -0.0055 0.7711 0.5408
C11 C 0.0306(5) 0.6902(6) 0.4698(6)
H7 H -0.0165 0.6666 0.4248
C12 C 0.0970(4) 0.6643(4) 0.4714(4)
O1D O -0.2228(2) 0.4243(3) 0.3190(2)
N1D N 0.1112(3) 0.5058(4) 0.0866(3)
N2D N 0.2281(3) 0.5608(4) -0.0173(3)
C3D C -0.0340(3) 0.4585(4) 0.1683(3)
H1D H -0.0656 0.4267 0.1136
C4D C 0.0601(3) 0.5053(5) 0.1695(3)
C6D C 0.1904(3) 0.5795(5) 0.0558(3)
H3D H 0.2154 0.6373 0.0836
C7D C 0.1709(4) 0.4681(6) -0.0358(4)
C8D C 0.1785(5) 0.4121(7) -0.1042(5)
H4D H 0.2271 0.4347 -0.1473
C9D C 0.1101(6) 0.3208(10) -0.1053(7)
H5D H 0.1121 0.2820 -0.1516
C10D C 0.0381(6) 0.2853(9) -0.0387(7)
H6D H -0.0055 0.2234 -0.0408
C11D C 0.0306(5) 0.3404(8) 0.0302(6)
H7D H -0.0165 0.3169 0.0752
C12D C 0.0970(4) 0.4327(6) 0.0286(4)
O1A O -0.3529(2) 0.4243(3) 0.1810(2)
N1A N -0.6054(3) 0.5058(4) 0.4134(3)
N2A N -0.6673(3) 0.5608(4) 0.5173(3)
C1A C -0.4076(2) 0.4077(5) 0.2500
C2A C -0.4594(2) 0.4593(5) 0.2500
C3A C -0.5075(3) 0.4585(4) 0.3317(3)
H1A H -0.5077 0.4267 0.3864
C4A C -0.5548(4) 0.5053(5) 0.3305(3)
C5A C -0.5539(3) 0.5538(6) 0.2500
H2A H -0.5857 0.5857 0.2500
C6A C -0.6109(4) 0.5795(5) 0.4442(3)
H3A H -0.5781 0.6373 0.4164
C7A C -0.7028(4) 0.4681(6) 0.5358(4)
C8A C -0.7664(5) 0.4121(7) 0.6042(5)
H4A H -0.7924 0.4347 0.6473
C9A C -0.7893(8) 0.3208(10) 0.6053(7)
H5A H -0.8301 0.2820 0.6516
C10A C -0.7528(7) 0.2853(9) 0.5387(7)
H6A H -0.7711 0.2234 0.5408
C11A C -0.6902(6) 0.3404(8) 0.4698(6)
H7A H -0.6666 0.3169 0.4248
C12A C -0.6643(4) 0.4327(6) 0.4714(4)
O1E O -0.4243(3) 0.3529(2) 0.3190(2)
N1E N -0.5058(4) 0.6054(3) 0.0866(3)
N2E N -0.5608(4) 0.6673(3) -0.0173(3)
C3E C -0.4585(4) 0.5075(3) 0.1683(3)
H1E H -0.4267 0.5077 0.1136
C4E C -0.5053(5) 0.5548(4) 0.1695(3)
C6E C -0.5795(5) 0.6109(4) 0.0558(3)
H3E H -0.6373 0.5781 0.0836
C7E C -0.4681(6) 0.7028(4) -0.0358(4)
C8E C -0.4121(7) 0.7664(5) -0.1042(5)
H4E H -0.4347 0.7924 -0.1473
C9E C -0.3208(10) 0.7893(8) -0.1053(7)
H5E H -0.2820 0.8301 -0.1516
C10E C -0.2853(9) 0.7528(7) -0.0387(7)
H6E H -0.2234 0.7711 -0.0408
C11E C -0.3404(8) 0.6902(6) 0.0302(6)
H7E H -0.3169 0.6666 0.0752
C12E C -0.4327(6) 0.6643(4) 0.0286(4)
O1B O -0.4243(3) 0.2228(2) 0.1810(2)
N1B N -0.5058(4) -0.1112(3) 0.4134(3)
N2B N -0.5608(4) -0.2281(3) 0.5173(3)
C1B C -0.4077(5) 0.1847(5) 0.2500
C2B C -0.4593(5) 0.0813(5) 0.2500
C3B C -0.4585(4) 0.0340(3) 0.3317(3)
H1B H -0.4267 0.0656 0.3864
C4B C -0.5053(5) -0.0601(3) 0.3305(3)
C5B C -0.5538(6) -0.1077(5) 0.2500
H2B H -0.5857 -0.1714 0.2500
C6B C -0.5795(5) -0.1904(3) 0.4442(3)
H3B H -0.6373 -0.2154 0.4164
C7B C -0.4681(6) -0.1709(4) 0.5358(4)
C8B C -0.4121(7) -0.1785(5) 0.6042(5)
H4B H -0.4347 -0.2271 0.6473
C9B C -0.3208(10) -0.1101(6) 0.6053(7)
H5B H -0.2820 -0.1121 0.6516
C10B C -0.2853(9) -0.0381(6) 0.5387(7)
H6B H -0.2234 0.0055 0.5408
C11B C -0.3404(8) -0.0306(5) 0.4698(6)
H7B H -0.3169 0.0165 0.4248
C12B C -0.4327(6) -0.0970(4) 0.4714(4)
O1C O -0.3529(2) 0.2228(2) 0.3190(2)
N1C N -0.6054(3) -0.1112(3) 0.0866(3)
N2C N -0.6673(3) -0.2281(3) -0.0173(3)
C3C C -0.5075(3) 0.0340(3) 0.1683(3)
H1C H -0.5077 0.0656 0.1136
C4C C -0.5548(4) -0.0601(3) 0.1695(3)
C6C C -0.6109(4) -0.1904(3) 0.0558(3)
H3C H -0.5781 -0.2154 0.0836
C7C C -0.7028(4) -0.1709(4) -0.0358(4)
C8C C -0.7664(5) -0.1785(5) -0.1042(5)
H4C H -0.7924 -0.2271 -0.1473
C9C C -0.7893(8) -0.1101(6) -0.1053(7)
H5C H -0.8301 -0.1121 -0.1516
C10C C -0.7528(7) -0.0381(6) -0.0387(7)
H6C H -0.7711 0.0055 -0.0408
C11C C -0.6902(6) -0.0306(5) 0.0302(6)
H7C H -0.6666 0.0165 0.0752
C12C C -0.6643(4) -0.0970(4) 0.0286(4)
Ni1C Ni -0.3333 0.3333 0.39740(7)
Ni1F Ni -0.6667 -0.3333 -0.10260(7)
Ni1F_2 Ni -0.6667 0.6667 -0.10260(7)
Ni1F_3 Ni 0.3333 0.6667 -0.10260(7)
Ni1I Ni -0.6667 -0.3333 0.60260(7)
Ni1I_2 Ni -0.6667 0.6667 0.60260(7)
Ni1I_3 Ni 0.3333 0.6667 0.60260(7)
N2F N -0.2281(3) 0.3327(3) 0.4827(3)
N2G N -0.3327(3) 0.4392(4) 0.4827(3)
N2H N -0.4392(4) 0.2281(3) 0.4827(3)
N2I N -0.3327(3) 0.2281(3) 0.0173(3)
N2J N -0.2281(3) 0.4392(4) 0.0173(3)
N2K N -0.4392(4) 0.3327(3) 0.0173(3)
loop_
_geom_bond_atom_site_label_1
_geom_bond_atom_site_label_2
_geom_bond_site_symmetry_1
_geom_bond_site_symmetry_2
Ni1 O1 1_555 1_555
O1 C1 1_555 1_555
N1 C4 1_555 1_555
N2 C6 1_555 1_555
C1 C2 1_555 1_555
C2 C3 1_555 1_555
C3 H1 1_555 1_555
C4 C3 1_555 1_555
C5 C4 1_555 1_555
H2 C5 1_555 1_555
C6 N1 1_555 1_555
H3 C6 1_555 1_555
C7 N2 1_555 1_555
C8 C7 1_555 1_555
H4 C8 1_555 1_555
C9 C8 1_555 1_555
H5 C9 1_555 1_555
C10 C9 1_555 1_555
H6 C10 1_555 1_555
C11 C10 1_555 1_555
H7 C11 1_555 1_555
C12 N1 1_555 1_555
O2 N3 1_555 1_555
N3 O2A 1_555 1_555
O1D C1 1_555 1_555
N1D C4D 1_555 1_555
N2D C6D 1_555 1_555
C3D C2 1_555 1_555
H1D C3D 1_555 1_555
C4D C5 1_555 1_555
C6D N1D 1_555 1_555
H3D C6D 1_555 1_555
C7D N2D 1_555 1_555
C8D C7D 1_555 1_555
H4D C8D 1_555 1_555
C9D C8D 1_555 1_555
H5D C9D 1_555 1_555
C10D C9D 1_555 1_555
H6D C10D 1_555 1_555
C11D C10D 1_555 1_555
H7D C11D 1_555 1_555
C12D N1D 1_555 1_555
O1A Ni1 1_555 1_555
N1A C4A 1_555 1_555
N2A C6A 1_555 1_555
C1A O1A 1_555 1_555
C2A C1A 1_555 1_555
C3A C2A 1_555 1_555
H1A C3A 1_555 1_555
C4A C3A 1_555 1_555
C5A C4A 1_555 1_555
H2A C5A 1_555 1_555
C6A N1A 1_555 1_555
H3A C6A 1_555 1_555
C7A N2A 1_555 1_555
C8A C7A 1_555 1_555
H4A C8A 1_555 1_555
C9A C8A 1_555 1_555
H5A C9A 1_555 1_555
C10A C9A 1_555 1_555
H6A C10A 1_555 1_555
C11A C10A 1_555 1_555
H7A C11A 1_555 1_555
C12A N1A 1_555 1_555
O1E C1A 1_555 1_555
N1E C4E 1_555 1_555
N2E C6E 1_555 1_555
C3E C2A 1_555 1_555
H1E C3E 1_555 1_555
C4E C5A 1_555 1_555
C6E N1E 1_555 1_555
H3E C6E 1_555 1_555
C7E N2E 1_555 1_555
C8E C7E 1_555 1_555
H4E C8E 1_555 1_555
C9E C8E 1_555 1_555
H5E C9E 1_555 1_555
C10E C9E 1_555 1_555
H6E C10E 1_555 1_555
C11E C10E 1_555 1_555
H7E C11E 1_555 1_555
C12E N1E 1_555 1_555
O1B Ni1 1_555 1_555
N1B C4B 1_555 1_555
N2B C6B 1_555 1_555
C1B O1B 1_555 1_555
C2B C1B 1_555 1_555
C3B C2B 1_555 1_555
H1B C3B 1_555 1_555
C4B C3B 1_555 1_555
C5B C4B 1_555 1_555
H2B C5B 1_555 1_555
C6B N1B 1_555 1_555
H3B C6B 1_555 1_555
C7B N2B 1_555 1_555
C8B C7B 1_555 1_555
H4B C8B 1_555 1_555
C9B C8B 1_555 1_555
H5B C9B 1_555 1_555
C10B C9B 1_555 1_555
H6B C10B 1_555 1_555
C11B C10B 1_555 1_555
H7B C11B 1_555 1_555
C12B N1B 1_555 1_555
O1C C1B 1_555 1_555
N1C C4C 1_555 1_555
N2C C6C 1_555 1_555
C3C C2B 1_555 1_555
H1C C3C 1_555 1_555
C4C C5B 1_555 1_555
C6C N1C 1_555 1_555
H3C C6C 1_555 1_555
C7C N2C 1_555 1_555
C8C C7C 1_555 1_555
H4C C8C 1_555 1_555
C9C C8C 1_555 1_555
H5C C9C 1_555 1_555
C10C C9C 1_555 1_555
H6C C10C 1_555 1_555
C11C C10C 1_555 1_555
H7C C11C 1_555 1_555
C12C N1C 1_555 1_555
Ni1C O1D 1_555 1_555
Ni1F N2C 1_555 1_555
Ni1F_2 N2E 1_555 1_555
Ni1F_3 N2D 1_555 1_555
Ni1I N2B 1_555 1_555
Ni1I_2 N2A 1_555 1_555
Ni1I_3 N2 1_555 1_555
N2F Ni1C 1_555 1_555
N2G Ni1C 1_555 1_555
N2H Ni1C 1_555 1_555
N2I Ni1 1_555 1_555
N2J Ni1 1_555 1_555
N2K Ni1 1_555 1_555
O2B N3 1_555 1_555
C7 C12 1_555 1_555
C11 C12 1_555 1_555
C3D C4D 1_555 1_555
C7D C12D 1_555 1_555
C11D C12D 1_555 1_555
C7A C12A 1_555 1_555
C11A C12A 1_555 1_555
O1E Ni1C 1_555 1_555
C3E C4E 1_555 1_555
C7E C12E 1_555 1_555
C11E C12E 1_555 1_555
C7B C12B 1_555 1_555
C11B C12B 1_555 1_555
O1C Ni1C 1_555 1_555
C3C C4C 1_555 1_555
C7C C12C 1_555 1_555
C11C C12C 1_555 1_555

#END
