
#######################################################################
#
#                 Cambridge Crystallographic Data Centre
#                                CCDC 
#
#######################################################################
#
# If this CIF has been generated from an entry in the Cambridge 
# Structural Database, then it will include bibliographic, chemical, 
# crystal, experimental, refinement or atomic coordinate data resulting 
# from the CCDC's data processing and validation procedures.
#
#######################################################################

data_YOYPUZ
_symmetry_cell_setting           trigonal
_symmetry_space_group_name_H-M   'P -3 1 c'
_symmetry_Int_Tables_number      163
_space_group_name_Hall           "-P 3 2'c"
loop_
_symmetry_equiv_pos_site_id
_symmetry_equiv_pos_as_xyz
1 x,y,z
2 -y,x-y,z
3 -x+y,-x,z
4 -y,-x,1/2-z
5 x,x-y,1/2-z
6 -x+y,y,1/2-z
7 -x,-y,-z
8 y,-x+y,-z
9 x-y,x,-z
10 y,x,1/2+z
11 -x,-x+y,1/2+z
12 x-y,-y,1/2+z
_cell_length_a                   17.088(5)
_cell_length_b                   17.088(5)
_cell_length_c                   13.892(5)
_cell_angle_alpha                90
_cell_angle_beta                 90
_cell_angle_gamma                120
_cell_volume                     3513
loop_
_atom_site_label
_atom_site_type_symbol
_atom_site_fract_x
_atom_site_fract_y
_atom_site_fract_z
Cl1 Cl -0.6667 0.6667 0.2500
Co1 Co -0.3333 0.3333 0.10186(4)
O1 O -0.35394(13) 0.42389(13) 0.18110(12)
N1 N -0.60256(17) 0.50614(17) 0.41327(15)
N2 N -0.66626(15) 0.56034(16) 0.51429(15)
C1 C -0.40806(13) 0.40806(13) 0.2500
C2 C -0.45878(14) 0.45878(14) 0.2500
C3 C -0.5059(2) 0.4588(2) 0.33182(18)
H1 H -0.5056 0.4279 0.3868
C4 C -0.5526(2) 0.5046(2) 0.33072(18)
C5 C -0.55258(15) 0.55258(15) 0.2500
H2 H -0.5840 0.5840 0.2500
C6 C -0.6094(2) 0.5783(2) 0.44247(18)
H3 H -0.5769 0.6351 0.4144
C7 C -0.6985(2) 0.4696(2) 0.53488(19)
C8 C -0.7611(2) 0.4139(2) 0.6037(2)
H4 H -0.7879 0.4360 0.6457
C9 C -0.7816(3) 0.3257(3) 0.6070(3)
H5 H -0.8226 0.2876 0.6529
C10 C -0.7428(3) 0.2908(3) 0.5432(3)
H6 H -0.7589 0.2302 0.5474
C11 C -0.6813(3) 0.3447(2) 0.4745(2)
H7 H -0.6554 0.3221 0.4320
C12 C -0.6600(2) 0.4339(2) 0.47197(19)
O1C O -0.42389(13) 0.35394(13) 0.31890(12)
N1C N -0.50614(17) 0.60256(17) 0.08673(15)
N2C N -0.56034(16) 0.66626(15) -0.01429(15)
C3C C -0.4588(2) 0.5059(2) 0.16818(18)
H1C H -0.4279 0.5056 0.1132
C4C C -0.5046(2) 0.5526(2) 0.16928(18)
C6C C -0.5783(2) 0.6094(2) 0.05753(18)
H3C H -0.6351 0.5769 0.0856
C7C C -0.4696(2) 0.6985(2) -0.03488(19)
C8C C -0.4139(2) 0.7611(2) -0.1037(2)
H4C H -0.4360 0.7879 -0.1457
C9C C -0.3257(3) 0.7816(3) -0.1070(3)
H5C H -0.2876 0.8226 -0.1529
C10C C -0.2908(3) 0.7428(3) -0.0432(3)
H6C H -0.2302 0.7589 -0.0474
C11C C -0.3447(2) 0.6813(3) 0.0255(2)
H7C H -0.3221 0.6554 0.0680
C12C C -0.4339(2) 0.6600(2) 0.02803(19)
O1A O -0.42389(13) 0.22217(18) 0.18110(12)
N1A N -0.50614(17) -0.10870(24) 0.41327(15)
N2A N -0.56034(16) -0.22660(22) 0.51429(15)
C1A C -0.40806(13) 0.18388(18) 0.2500
C2A C -0.45878(14) 0.08244(20) 0.2500
C3A C -0.4588(2) 0.0353(3) 0.33182(18)
H1A H -0.4279 0.0665 0.3868
C4A C -0.5046(2) -0.0572(3) 0.33072(18)
C5A C -0.55258(15) -0.10516(21) 0.2500
H2A H -0.5840 -0.1680 0.2500
C6A C -0.5783(2) -0.1877(3) 0.44247(18)
H3A H -0.6351 -0.2120 0.4144
C7A C -0.4696(2) -0.1681(3) 0.53488(19)
C8A C -0.4139(2) -0.1750(3) 0.6037(2)
H4A H -0.4360 -0.2239 0.6457
C9A C -0.3257(3) -0.1073(4) 0.6070(3)
H5A H -0.2876 -0.1102 0.6529
C10A C -0.2908(3) -0.0336(4) 0.5432(3)
H6A H -0.2302 0.0109 0.5474
C11A C -0.3447(2) -0.0260(4) 0.4745(2)
H7A H -0.3221 0.0225 0.4320
C12A C -0.4339(2) -0.0939(3) 0.47197(19)
O1D O -0.35394(13) 0.22217(18) 0.31890(12)
N1D N -0.60256(17) -0.10870(24) 0.08673(15)
N2D N -0.66626(15) -0.22660(22) -0.01429(15)
C3D C -0.5059(2) 0.0353(3) 0.16818(18)
H1D H -0.5056 0.0665 0.1132
C4D C -0.5526(2) -0.0572(3) 0.16928(18)
C6D C -0.6094(2) -0.1877(3) 0.05753(18)
H3D H -0.5769 -0.2120 0.0856
C7D C -0.6985(2) -0.1681(3) -0.03488(19)
C8D C -0.7611(2) -0.1750(3) -0.1037(2)
H4D H -0.7879 -0.2239 -0.1457
C9D C -0.7816(3) -0.1073(4) -0.1070(3)
H5D H -0.8226 -0.1102 -0.1529
C10D C -0.7428(3) -0.0336(4) -0.0432(3)
H6D H -0.7589 0.0109 -0.0474
C11D C -0.6813(3) -0.0260(4) 0.0255(2)
H7D H -0.6554 0.0225 0.0680
C12D C -0.6600(2) -0.0939(3) 0.02803(19)
O1B O -0.22217(18) 0.35394(13) 0.18110(12)
N1B N 0.10870(24) 0.60256(17) 0.41327(15)
N2B N 0.22660(22) 0.66626(15) 0.51429(15)
C1B C -0.18388(18) 0.40806(13) 0.2500
C2B C -0.08244(20) 0.45878(14) 0.2500
C3B C -0.0353(3) 0.5059(2) 0.33182(18)
H1B H -0.0665 0.5056 0.3868
C4B C 0.0572(3) 0.5526(2) 0.33072(18)
C5B C 0.10516(21) 0.55258(15) 0.2500
H2B H 0.1680 0.5840 0.2500
C6B C 0.1877(3) 0.6094(2) 0.44247(18)
H3B H 0.2120 0.5769 0.4144
C7B C 0.1681(3) 0.6985(2) 0.53488(19)
C8B C 0.1750(3) 0.7611(2) 0.6037(2)
H4B H 0.2239 0.7879 0.6457
C9B C 0.1073(4) 0.7816(3) 0.6070(3)
H5B H 0.1102 0.8226 0.6529
C10B C 0.0336(4) 0.7428(3) 0.5432(3)
H6B H -0.0109 0.7589 0.5474
C11B C 0.0260(4) 0.6813(3) 0.4745(2)
H7B H -0.0225 0.6554 0.4320
C12B C 0.0939(3) 0.6600(2) 0.47197(19)
O1E O -0.22217(18) 0.42389(13) 0.31890(12)
N1E N 0.10870(24) 0.50614(17) 0.08673(15)
N2E N 0.22660(22) 0.56034(16) -0.01429(15)
C3E C -0.0353(3) 0.4588(2) 0.16818(18)
H1E H -0.0665 0.4279 0.1132
C4E C 0.0572(3) 0.5046(2) 0.16928(18)
C6E C 0.1877(3) 0.5783(2) 0.05753(18)
H3E H 0.2120 0.6351 0.0856
C7E C 0.1681(3) 0.4696(2) -0.03488(19)
C8E C 0.1750(3) 0.4139(2) -0.1037(2)
H4E H 0.2239 0.4360 -0.1457
C9E C 0.1073(4) 0.3257(3) -0.1070(3)
H5E H 0.1102 0.2876 -0.1529
C10E C 0.0336(4) 0.2908(3) -0.0432(3)
H6E H -0.0109 0.2302 -0.0474
C11E C 0.0260(4) 0.3447(2) 0.0255(2)
H7E H -0.0225 0.3221 0.0680
C12E C 0.0939(3) 0.4339(2) 0.02803(19)
Co1C Co -0.3333 0.3333 0.39814(4)
Co1F Co -0.6667 -0.3333 -0.10186(4)
Co1F_2 Co -0.6667 0.6667 -0.10186(4)
Co1F_3 Co 0.3333 0.6667 -0.10186(4)
Co1I Co -0.6667 -0.3333 0.60186(4)
Co1I_2 Co -0.6667 0.6667 0.60186(4)
Co1I_3 Co 0.3333 0.6667 0.60186(4)
N2F N -0.33374(15) 0.43966(16) 0.48571(15)
N2G N -0.43966(16) 0.22660(22) 0.48571(15)
N2H N -0.22660(22) 0.33374(15) 0.48571(15)
N2I N -0.43966(16) 0.33374(15) 0.01429(15)
N2J N -0.33374(15) 0.22660(22) 0.01429(15)
N2K N -0.22660(22) 0.43966(16) 0.01429(15)
loop_
_geom_bond_atom_site_label_1
_geom_bond_atom_site_label_2
_geom_bond_site_symmetry_1
_geom_bond_site_symmetry_2
Co1 O1 1_555 1_555
O1 C1 1_555 1_555
N1 C4 1_555 1_555
N2 C6 1_555 1_555
C1 C2 1_555 1_555
C2 C3 1_555 1_555
C3 H1 1_555 1_555
C4 C3 1_555 1_555
C5 C4 1_555 1_555
H2 C5 1_555 1_555
C6 N1 1_555 1_555
H3 C6 1_555 1_555
C7 N2 1_555 1_555
C8 C7 1_555 1_555
H4 C8 1_555 1_555
C9 C8 1_555 1_555
H5 C9 1_555 1_555
C10 C9 1_555 1_555
H6 C10 1_555 1_555
C11 C10 1_555 1_555
H7 C11 1_555 1_555
C12 N1 1_555 1_555
O1C C1 1_555 1_555
N1C C4C 1_555 1_555
N2C C6C 1_555 1_555
C3C C2 1_555 1_555
H1C C3C 1_555 1_555
C4C C5 1_555 1_555
C6C N1C 1_555 1_555
H3C C6C 1_555 1_555
C7C N2C 1_555 1_555
C8C C7C 1_555 1_555
H4C C8C 1_555 1_555
C9C C8C 1_555 1_555
H5C C9C 1_555 1_555
C10C C9C 1_555 1_555
H6C C10C 1_555 1_555
C11C C10C 1_555 1_555
H7C C11C 1_555 1_555
C12C N1C 1_555 1_555
O1A Co1 1_555 1_555
N1A C4A 1_555 1_555
N2A C6A 1_555 1_555
C1A O1A 1_555 1_555
C2A C1A 1_555 1_555
C3A C2A 1_555 1_555
H1A C3A 1_555 1_555
C4A C3A 1_555 1_555
C5A C4A 1_555 1_555
H2A C5A 1_555 1_555
C6A N1A 1_555 1_555
H3A C6A 1_555 1_555
C7A N2A 1_555 1_555
C8A C7A 1_555 1_555
H4A C8A 1_555 1_555
C9A C8A 1_555 1_555
H5A C9A 1_555 1_555
C10A C9A 1_555 1_555
H6A C10A 1_555 1_555
C11A C10A 1_555 1_555
H7A C11A 1_555 1_555
C12A N1A 1_555 1_555
O1D C1A 1_555 1_555
N1D C4D 1_555 1_555
N2D C6D 1_555 1_555
C3D C2A 1_555 1_555
H1D C3D 1_555 1_555
C4D C5A 1_555 1_555
C6D N1D 1_555 1_555
H3D C6D 1_555 1_555
C7D N2D 1_555 1_555
C8D C7D 1_555 1_555
H4D C8D 1_555 1_555
C9D C8D 1_555 1_555
H5D C9D 1_555 1_555
C10D C9D 1_555 1_555
H6D C10D 1_555 1_555
C11D C10D 1_555 1_555
H7D C11D 1_555 1_555
C12D N1D 1_555 1_555
O1B Co1 1_555 1_555
N1B C4B 1_555 1_555
N2B C6B 1_555 1_555
C1B O1B 1_555 1_555
C2B C1B 1_555 1_555
C3B C2B 1_555 1_555
H1B C3B 1_555 1_555
C4B C3B 1_555 1_555
C5B C4B 1_555 1_555
H2B C5B 1_555 1_555
C6B N1B 1_555 1_555
H3B C6B 1_555 1_555
C7B N2B 1_555 1_555
C8B C7B 1_555 1_555
H4B C8B 1_555 1_555
C9B C8B 1_555 1_555
H5B C9B 1_555 1_555
C10B C9B 1_555 1_555
H6B C10B 1_555 1_555
C11B C10B 1_555 1_555
H7B C11B 1_555 1_555
C12B N1B 1_555 1_555
O1E C1B 1_555 1_555
N1E C4E 1_555 1_555
N2E C6E 1_555 1_555
C3E C2B 1_555 1_555
H1E C3E 1_555 1_555
C4E C5B 1_555 1_555
C6E N1E 1_555 1_555
H3E C6E 1_555 1_555
C7E N2E 1_555 1_555
C8E C7E 1_555 1_555
H4E C8E 1_555 1_555
C9E C8E 1_555 1_555
H5E C9E 1_555 1_555
C10E C9E 1_555 1_555
H6E C10E 1_555 1_555
C11E C10E 1_555 1_555
H7E C11E 1_555 1_555
C12E N1E 1_555 1_555
Co1C O1C 1_555 1_555
Co1F N2D 1_555 1_555
Co1F_2 N2C 1_555 1_555
Co1F_3 N2E 1_555 1_555
Co1I N2A 1_555 1_555
Co1I_2 N2 1_555 1_555
Co1I_3 N2B 1_555 1_555
N2F Co1C 1_555 1_555
N2G Co1C 1_555 1_555
N2H Co1C 1_555 1_555
N2I Co1 1_555 1_555
N2J Co1 1_555 1_555
N2K Co1 1_555 1_555
C7 C12 1_555 1_555
C11 C12 1_555 1_555
C3C C4C 1_555 1_555
C7C C12C 1_555 1_555
C11C C12C 1_555 1_555
C7A C12A 1_555 1_555
C11A C12A 1_555 1_555
O1D Co1C 1_555 1_555
C3D C4D 1_555 1_555
C7D C12D 1_555 1_555
C11D C12D 1_555 1_555
C7B C12B 1_555 1_555
C11B C12B 1_555 1_555
O1E Co1C 1_555 1_555
C3E C4E 1_555 1_555
C7E C12E 1_555 1_555
C11E C12E 1_555 1_555

#END
