
#######################################################################
#
#                 Cambridge Crystallographic Data Centre
#                                CCDC 
#
#######################################################################
#
# If this CIF has been generated from an entry in the Cambridge 
# Structural Database, then it will include bibliographic, chemical, 
# crystal, experimental, refinement or atomic coordinate data resulting 
# from the CCDC's data processing and validation procedures.
#
#######################################################################

data_YOYPIN
_symmetry_cell_setting           trigonal
_symmetry_space_group_name_H-M   'P -3 1 c'
_symmetry_Int_Tables_number      163
_space_group_name_Hall           "-P 3 2'c"
loop_
_symmetry_equiv_pos_site_id
_symmetry_equiv_pos_as_xyz
1 x,y,z
2 -y,x-y,z
3 -x+y,-x,z
4 -y,-x,1/2-z
5 x,x-y,1/2-z
6 -x+y,y,1/2-z
7 -x,-y,-z
8 y,-x+y,-z
9 x-y,x,-z
10 y,x,1/2+z
11 -x,-x+y,1/2+z
12 x-y,-y,1/2+z
_cell_length_a                   16.901(5)
_cell_length_b                   16.901(5)
_cell_length_c                   14.082(5)
_cell_angle_alpha                90
_cell_angle_beta                 90
_cell_angle_gamma                120
_cell_volume                     3483.53
loop_
_atom_site_label
_atom_site_type_symbol
_atom_site_fract_x
_atom_site_fract_y
_atom_site_fract_z
Cl1 Cl 0.1971(3) 0.3942(5) 0.2500
O2 O 0.2344(11) 0.3370(10) 0.2704(9)
O3 O 0.2116(14) 0.4533(13) 0.3214(15)
O2E O 0.1026(15) 0.3370(10) 0.2296(9)
O3E O 0.2417(19) 0.4533(13) 0.1786(15)
Co1 Co -0.3333 0.3333 0.10379(8)
O1 O -0.2210(2) 0.3545(2) 0.1816(2)
N1 N 0.1114(3) 0.6047(3) 0.4116(3)
N2 N 0.2275(3) 0.6669(3) 0.5160(3)
C1 C -0.1831(5) 0.4084(2) 0.2500
C2 C -0.0800(5) 0.4600(3) 0.2500
C3 C -0.0328(4) 0.5080(4) 0.3296(4)
H1 H -0.0645 0.5080 0.3835
C4 C 0.0615(4) 0.5559(4) 0.3293(4)
C5 C 0.1087(5) 0.5544(3) 0.2500
H2 H 0.1723 0.5861 0.2500
C6 C 0.1907(4) 0.6122(4) 0.4429(4)
H3 H 0.2170 0.5810 0.4147
C7 C 0.1678(4) 0.6994(4) 0.5345(4)
C8 C 0.1721(5) 0.7590(5) 0.6058(5)
H4 H 0.2201 0.7841 0.6491
C9 C 0.1036(6) 0.7792(7) 0.6096(6)
H5 H 0.1048 0.8186 0.6565
C10 C 0.0307(6) 0.7413(7) 0.5437(7)
H6 H -0.0154 0.7560 0.5484
C11 C 0.0264(5) 0.6827(5) 0.4719(5)
H7 H -0.0205 0.6590 0.4272
C12 C 0.0948(4) 0.6620(4) 0.4707(4)
O1D O -0.2210(2) 0.4245(3) 0.3184(2)
N1D N 0.1114(3) 0.5067(4) 0.0884(3)
N2D N 0.2275(3) 0.5606(4) -0.0160(3)
C3D C -0.0328(4) 0.4592(6) 0.1704(4)
H1D H -0.0645 0.4275 0.1165
C4D C 0.0615(4) 0.5056(6) 0.1707(4)
C6D C 0.1907(4) 0.5785(6) 0.0571(4)
H3D H 0.2170 0.6360 0.0853
C7D C 0.1678(4) 0.4684(6) -0.0345(4)
C8D C 0.1721(5) 0.4131(7) -0.1058(5)
H4D H 0.2201 0.4360 -0.1491
C9D C 0.1036(6) 0.3244(9) -0.1096(6)
H5D H 0.1048 0.2862 -0.1565
C10D C 0.0307(6) 0.2894(9) -0.0437(7)
H6D H -0.0154 0.2286 -0.0484
C11D C 0.0264(5) 0.3437(7) 0.0281(5)
H7D H -0.0205 0.3205 0.0728
C12D C 0.0948(4) 0.4328(6) 0.0293(4)
O1A O -0.3545(2) 0.4245(3) 0.1816(2)
N1A N -0.6047(3) 0.5067(4) 0.4116(3)
N2A N -0.6669(3) 0.5606(4) 0.5160(3)
C1A C -0.4084(2) 0.4085(5) 0.2500
C2A C -0.4600(3) 0.4600(6) 0.2500
C3A C -0.5080(4) 0.4592(6) 0.3296(4)
H1A H -0.5080 0.4275 0.3835
C4A C -0.5559(4) 0.5056(6) 0.3293(4)
C5A C -0.5544(3) 0.5543(6) 0.2500
H2A H -0.5861 0.5862 0.2500
C6A C -0.6122(4) 0.5785(6) 0.4429(4)
H3A H -0.5810 0.6360 0.4147
C7A C -0.6994(4) 0.4684(6) 0.5345(4)
C8A C -0.7590(5) 0.4131(7) 0.6058(5)
H4A H -0.7841 0.4360 0.6491
C9A C -0.7792(7) 0.3244(9) 0.6096(6)
H5A H -0.8186 0.2862 0.6565
C10A C -0.7413(7) 0.2894(9) 0.5437(7)
H6A H -0.7560 0.2286 0.5484
C11A C -0.6827(5) 0.3437(7) 0.4719(5)
H7A H -0.6590 0.3205 0.4272
C12A C -0.6620(4) 0.4328(6) 0.4707(4)
O1E O -0.4245(3) 0.3545(2) 0.3184(2)
N1E N -0.5067(4) 0.6047(3) 0.0884(3)
N2E N -0.5606(4) 0.6669(3) -0.0160(3)
C3E C -0.4592(6) 0.5080(4) 0.1704(4)
H1E H -0.4275 0.5080 0.1165
C4E C -0.5056(6) 0.5559(4) 0.1707(4)
C6E C -0.5785(6) 0.6122(4) 0.0571(4)
H3E H -0.6360 0.5810 0.0853
C7E C -0.4684(6) 0.6994(4) -0.0345(4)
C8E C -0.4131(7) 0.7590(5) -0.1058(5)
H4E H -0.4360 0.7841 -0.1491
C9E C -0.3244(9) 0.7792(7) -0.1096(6)
H5E H -0.2862 0.8186 -0.1565
C10E C -0.2894(9) 0.7413(7) -0.0437(7)
H6E H -0.2286 0.7560 -0.0484
C11E C -0.3437(7) 0.6827(5) 0.0281(5)
H7E H -0.3205 0.6590 0.0728
C12E C -0.4328(6) 0.6620(4) 0.0293(4)
O1B O -0.4245(3) 0.2210(2) 0.1816(2)
N1B N -0.5067(4) -0.1114(3) 0.4116(3)
N2B N -0.5606(4) -0.2275(3) 0.5160(3)
C1B C -0.4085(5) 0.1831(5) 0.2500
C2B C -0.4600(6) 0.0800(5) 0.2500
C3B C -0.4592(6) 0.0328(4) 0.3296(4)
H1B H -0.4275 0.0645 0.3835
C4B C -0.5056(6) -0.0615(4) 0.3293(4)
C5B C -0.5543(6) -0.1087(5) 0.2500
H2B H -0.5862 -0.1723 0.2500
C6B C -0.5785(6) -0.1907(4) 0.4429(4)
H3B H -0.6360 -0.2170 0.4147
C7B C -0.4684(6) -0.1678(4) 0.5345(4)
C8B C -0.4131(7) -0.1721(5) 0.6058(5)
H4B H -0.4360 -0.2201 0.6491
C9B C -0.3244(9) -0.1036(6) 0.6096(6)
H5B H -0.2862 -0.1048 0.6565
C10B C -0.2894(9) -0.0307(6) 0.5437(7)
H6B H -0.2286 0.0154 0.5484
C11B C -0.3437(7) -0.0264(5) 0.4719(5)
H7B H -0.3205 0.0205 0.4272
C12B C -0.4328(6) -0.0948(4) 0.4707(4)
O1C O -0.3545(2) 0.2210(2) 0.3184(2)
N1C N -0.6047(3) -0.1114(3) 0.0884(3)
N2C N -0.6669(3) -0.2275(3) -0.0160(3)
C3C C -0.5080(4) 0.0328(4) 0.1704(4)
H1C H -0.5080 0.0645 0.1165
C4C C -0.5559(4) -0.0615(4) 0.1707(4)
C6C C -0.6122(4) -0.1907(4) 0.0571(4)
H3C H -0.5810 -0.2170 0.0853
C7C C -0.6994(4) -0.1678(4) -0.0345(4)
C8C C -0.7590(5) -0.1721(5) -0.1058(5)
H4C H -0.7841 -0.2201 -0.1491
C9C C -0.7792(7) -0.1036(6) -0.1096(6)
H5C H -0.8186 -0.1048 -0.1565
C10C C -0.7413(7) -0.0307(6) -0.0437(7)
H6C H -0.7560 0.0154 -0.0484
C11C C -0.6827(5) -0.0264(5) 0.0281(5)
H7C H -0.6590 0.0205 0.0728
C12C C -0.6620(4) -0.0948(4) 0.0293(4)
Co1C Co -0.3333 0.3333 0.39621(8)
Co1F Co -0.6667 -0.3333 -0.10379(8)
Co1F_2 Co -0.6667 0.6667 -0.10379(8)
Co1F_3 Co 0.3333 0.6667 -0.10379(8)
Co1I Co -0.6667 -0.3333 0.60379(8)
Co1I_2 Co -0.6667 0.6667 0.60379(8)
Co1I_3 Co 0.3333 0.6667 0.60379(8)
N2F N -0.2275(3) 0.3331(3) 0.4840(3)
N2G N -0.3331(3) 0.4394(4) 0.4840(3)
N2H N -0.4394(4) 0.2275(3) 0.4840(3)
N2I N -0.3331(3) 0.2275(3) 0.0160(3)
N2J N -0.2275(3) 0.4394(4) 0.0160(3)
N2K N -0.4394(4) 0.3331(3) 0.0160(3)
loop_
_geom_bond_atom_site_label_1
_geom_bond_atom_site_label_2
_geom_bond_site_symmetry_1
_geom_bond_site_symmetry_2
Co1 O1 1_555 1_555
O1 C1 1_555 1_555
N1 C4 1_555 1_555
N2 C6 1_555 1_555
C1 C2 1_555 1_555
C2 C3 1_555 1_555
C3 H1 1_555 1_555
C4 C3 1_555 1_555
C5 C4 1_555 1_555
H2 C5 1_555 1_555
C6 N1 1_555 1_555
H3 C6 1_555 1_555
C7 N2 1_555 1_555
C8 C7 1_555 1_555
H4 C8 1_555 1_555
C9 C8 1_555 1_555
H5 C9 1_555 1_555
C10 C9 1_555 1_555
H6 C10 1_555 1_555
C11 C10 1_555 1_555
H7 C11 1_555 1_555
C12 N1 1_555 1_555
Cl1 O2 1_555 1_555
O3 Cl1 1_555 1_555
O1D C1 1_555 1_555
N1D C4D 1_555 1_555
N2D C6D 1_555 1_555
C3D C2 1_555 1_555
H1D C3D 1_555 1_555
C4D C5 1_555 1_555
C6D N1D 1_555 1_555
H3D C6D 1_555 1_555
C7D N2D 1_555 1_555
C8D C7D 1_555 1_555
H4D C8D 1_555 1_555
C9D C8D 1_555 1_555
H5D C9D 1_555 1_555
C10D C9D 1_555 1_555
H6D C10D 1_555 1_555
C11D C10D 1_555 1_555
H7D C11D 1_555 1_555
C12D N1D 1_555 1_555
O1A Co1 1_555 1_555
N1A C4A 1_555 1_555
N2A C6A 1_555 1_555
C1A O1A 1_555 1_555
C2A C1A 1_555 1_555
C3A C2A 1_555 1_555
H1A C3A 1_555 1_555
C4A C3A 1_555 1_555
C5A C4A 1_555 1_555
H2A C5A 1_555 1_555
C6A N1A 1_555 1_555
H3A C6A 1_555 1_555
C7A N2A 1_555 1_555
C8A C7A 1_555 1_555
H4A C8A 1_555 1_555
C9A C8A 1_555 1_555
H5A C9A 1_555 1_555
C10A C9A 1_555 1_555
H6A C10A 1_555 1_555
C11A C10A 1_555 1_555
H7A C11A 1_555 1_555
C12A N1A 1_555 1_555
O1E C1A 1_555 1_555
N1E C4E 1_555 1_555
N2E C6E 1_555 1_555
C3E C2A 1_555 1_555
H1E C3E 1_555 1_555
C4E C5A 1_555 1_555
C6E N1E 1_555 1_555
H3E C6E 1_555 1_555
C7E N2E 1_555 1_555
C8E C7E 1_555 1_555
H4E C8E 1_555 1_555
C9E C8E 1_555 1_555
H5E C9E 1_555 1_555
C10E C9E 1_555 1_555
H6E C10E 1_555 1_555
C11E C10E 1_555 1_555
H7E C11E 1_555 1_555
C12E N1E 1_555 1_555
O1B Co1 1_555 1_555
N1B C4B 1_555 1_555
N2B C6B 1_555 1_555
C1B O1B 1_555 1_555
C2B C1B 1_555 1_555
C3B C2B 1_555 1_555
H1B C3B 1_555 1_555
C4B C3B 1_555 1_555
C5B C4B 1_555 1_555
H2B C5B 1_555 1_555
C6B N1B 1_555 1_555
H3B C6B 1_555 1_555
C7B N2B 1_555 1_555
C8B C7B 1_555 1_555
H4B C8B 1_555 1_555
C9B C8B 1_555 1_555
H5B C9B 1_555 1_555
C10B C9B 1_555 1_555
H6B C10B 1_555 1_555
C11B C10B 1_555 1_555
H7B C11B 1_555 1_555
C12B N1B 1_555 1_555
O1C C1B 1_555 1_555
N1C C4C 1_555 1_555
N2C C6C 1_555 1_555
C3C C2B 1_555 1_555
H1C C3C 1_555 1_555
C4C C5B 1_555 1_555
C6C N1C 1_555 1_555
H3C C6C 1_555 1_555
C7C N2C 1_555 1_555
C8C C7C 1_555 1_555
H4C C8C 1_555 1_555
C9C C8C 1_555 1_555
H5C C9C 1_555 1_555
C10C C9C 1_555 1_555
H6C C10C 1_555 1_555
C11C C10C 1_555 1_555
H7C C11C 1_555 1_555
C12C N1C 1_555 1_555
Co1C O1D 1_555 1_555
Co1F N2C 1_555 1_555
Co1F_2 N2E 1_555 1_555
Co1F_3 N2D 1_555 1_555
Co1I N2B 1_555 1_555
Co1I_2 N2A 1_555 1_555
Co1I_3 N2 1_555 1_555
N2F Co1C 1_555 1_555
N2G Co1C 1_555 1_555
N2H Co1C 1_555 1_555
N2I Co1 1_555 1_555
N2J Co1 1_555 1_555
N2K Co1 1_555 1_555
O2E Cl1 1_555 1_555
O3E Cl1 1_555 1_555
C7 C12 1_555 1_555
C11 C12 1_555 1_555
C3D C4D 1_555 1_555
C7D C12D 1_555 1_555
C11D C12D 1_555 1_555
C7A C12A 1_555 1_555
C11A C12A 1_555 1_555
O1E Co1C 1_555 1_555
C3E C4E 1_555 1_555
C7E C12E 1_555 1_555
C11E C12E 1_555 1_555
C7B C12B 1_555 1_555
C11B C12B 1_555 1_555
O1C Co1C 1_555 1_555
C3C C4C 1_555 1_555
C7C C12C 1_555 1_555
C11C C12C 1_555 1_555

#END
