
#######################################################################
#
#                 Cambridge Crystallographic Data Centre
#                                CCDC 
#
#######################################################################
#
# If this CIF has been generated from an entry in the Cambridge 
# Structural Database, then it will include bibliographic, chemical, 
# crystal, experimental, refinement or atomic coordinate data resulting 
# from the CCDC's data processing and validation procedures.
#
#######################################################################

data_YOYQUA
_symmetry_cell_setting           trigonal
_symmetry_space_group_name_H-M   'P -3 1 c'
_symmetry_Int_Tables_number      163
_space_group_name_Hall           "-P 3 2'c"
loop_
_symmetry_equiv_pos_site_id
_symmetry_equiv_pos_as_xyz
1 x,y,z
2 -y,x-y,z
3 -x+y,-x,z
4 -y,-x,1/2-z
5 x,x-y,1/2-z
6 -x+y,y,1/2-z
7 -x,-y,-z
8 y,-x+y,-z
9 x-y,x,-z
10 y,x,1/2+z
11 -x,-x+y,1/2+z
12 x-y,-y,1/2+z
_cell_length_a                   17.107(5)
_cell_length_b                   17.107(5)
_cell_length_c                   14.133(5)
_cell_angle_alpha                90
_cell_angle_beta                 90
_cell_angle_gamma                120
_cell_volume                     3581.89
loop_
_atom_site_label
_atom_site_type_symbol
_atom_site_fract_x
_atom_site_fract_y
_atom_site_fract_z
Cl1 Cl 0.1920(5) 0.3839(9) 0.2500
O2 O 0.2381(11) 0.3544(11) 0.3195(12)
O3 O 0.2452(7) 0.4799(7) 0.2822(7)
O2E O 0.1163(16) 0.3544(11) 0.1805(12)
O3E O 0.2347(10) 0.4799(7) 0.2178(7)
Mn1 Mn -0.3333 0.3333 0.10675(7)
O1 O -0.2166(2) 0.4269(2) 0.1828(2)
N1 N 0.1125(3) 0.5031(3) 0.4080(3)
N2 N 0.2260(3) 0.5569(3) 0.5119(3)
C1 C -0.1788(4) 0.4106(2) 0.2500
C2 C -0.0764(4) 0.4618(2) 0.2500
C3 C -0.0304(3) 0.4579(3) 0.3292(3)
H1 H -0.0617 0.4247 0.3821
C4 C 0.0624(3) 0.5042(3) 0.3277(3)
C5 C 0.1100(5) 0.5550(2) 0.2500
H2 H 0.1727 0.5864 0.2500
C6 C 0.1882(3) 0.5757(3) 0.4421(3)
H3 H 0.2110 0.6336 0.4179
C7 C 0.1002(3) 0.4289(3) 0.4606(3)
C8 C 0.0390(4) 0.3373(4) 0.4540(4)
H4 H -0.0079 0.3147 0.4102
C9 C 0.0505(4) 0.2815(4) 0.5150(5)
H5 H 0.0115 0.2195 0.5111
C10 C 0.1198(4) 0.3155(4) 0.5836(5)
H6 H 0.1240 0.2761 0.6258
C11 C 0.1815(4) 0.4070(4) 0.5886(4)
H7 H 0.2281 0.4294 0.6327
C12 C 0.1723(3) 0.4643(3) 0.5263(3)
O1D O -0.2166(2) 0.3565(3) 0.3172(2)
N1D N 0.1125(3) 0.6094(4) 0.0920(3)
N2D N 0.2260(3) 0.6691(4) -0.0119(3)
C3D C -0.0304(3) 0.5117(4) 0.1708(3)
H1D H -0.0617 0.5136 0.1179
C4D C 0.0624(3) 0.5582(4) 0.1723(3)
C6D C 0.1882(3) 0.6125(4) 0.0579(3)
H3D H 0.2110 0.5774 0.0821
C7D C 0.1002(3) 0.6713(4) 0.0394(3)
C8D C 0.0390(4) 0.7017(6) 0.0460(4)
H4D H -0.0079 0.6774 0.0898
C9D C 0.0505(4) 0.7690(6) -0.0150(5)
H5D H 0.0115 0.7920 -0.0111
C10D C 0.1198(4) 0.8043(6) -0.0836(5)
H6D H 0.1240 0.8479 -0.1258
C11D C 0.1815(4) 0.7745(6) -0.0886(4)
H7D H 0.2281 0.7987 -0.1327
C12D C 0.1723(3) 0.7080(4) -0.0263(3)
O1A O -0.4269(2) 0.3565(3) 0.1828(2)
N1A N -0.5031(3) 0.6094(4) 0.4080(3)
N2A N -0.5569(3) 0.6691(4) 0.5119(3)
C1A C -0.4106(2) 0.4106(4) 0.2500
C2A C -0.4618(2) 0.4618(4) 0.2500
C3A C -0.4579(3) 0.5117(4) 0.3292(3)
H1A H -0.4247 0.5136 0.3821
C4A C -0.5042(3) 0.5582(4) 0.3277(3)
C5A C -0.5550(2) 0.5550(5) 0.2500
H2A H -0.5864 0.5863 0.2500
C6A C -0.5757(3) 0.6125(4) 0.4421(3)
H3A H -0.6336 0.5774 0.4179
C7A C -0.4289(3) 0.6713(4) 0.4606(3)
C8A C -0.3373(4) 0.7017(6) 0.4540(4)
H4A H -0.3147 0.6774 0.4102
C9A C -0.2815(4) 0.7690(6) 0.5150(5)
H5A H -0.2195 0.7920 0.5111
C10A C -0.3155(4) 0.8043(6) 0.5836(5)
H6A H -0.2761 0.8479 0.6258
C11A C -0.4070(4) 0.7745(6) 0.5886(4)
H7A H -0.4294 0.7987 0.6327
C12A C -0.4643(3) 0.7080(4) 0.5263(3)
O1E O -0.3565(3) 0.4269(2) 0.3172(2)
N1E N -0.6094(4) 0.5031(3) 0.0920(3)
N2E N -0.6691(4) 0.5569(3) -0.0119(3)
C3E C -0.5117(4) 0.4579(3) 0.1708(3)
H1E H -0.5136 0.4247 0.1179
C4E C -0.5582(4) 0.5042(3) 0.1723(3)
C6E C -0.6125(4) 0.5757(3) 0.0579(3)
H3E H -0.5774 0.6336 0.0821
C7E C -0.6713(4) 0.4289(3) 0.0394(3)
C8E C -0.7017(6) 0.3373(4) 0.0460(4)
H4E H -0.6774 0.3147 0.0898
C9E C -0.7690(6) 0.2815(4) -0.0150(5)
H5E H -0.7920 0.2195 -0.0111
C10E C -0.8043(6) 0.3155(4) -0.0836(5)
H6E H -0.8479 0.2761 -0.1258
C11E C -0.7745(6) 0.4070(4) -0.0886(4)
H7E H -0.7987 0.4294 -0.1327
C12E C -0.7080(4) 0.4643(3) -0.0263(3)
O1B O -0.3565(3) 0.2166(2) 0.1828(2)
N1B N -0.6094(4) -0.1125(3) 0.4080(3)
N2B N -0.6691(4) -0.2260(3) 0.5119(3)
C1B C -0.4106(4) 0.1788(4) 0.2500
C2B C -0.4618(4) 0.0764(4) 0.2500
C3B C -0.5117(4) 0.0304(3) 0.3292(3)
H1B H -0.5136 0.0617 0.3821
C4B C -0.5582(4) -0.0624(3) 0.3277(3)
C5B C -0.5550(5) -0.1100(5) 0.2500
H2B H -0.5863 -0.1727 0.2500
C6B C -0.6125(4) -0.1882(3) 0.4421(3)
H3B H -0.5774 -0.2110 0.4179
C7B C -0.6713(4) -0.1002(3) 0.4606(3)
C8B C -0.7017(6) -0.0390(4) 0.4540(4)
H4B H -0.6774 0.0079 0.4102
C9B C -0.7690(6) -0.0505(4) 0.5150(5)
H5B H -0.7920 -0.0115 0.5111
C10B C -0.8043(6) -0.1198(4) 0.5836(5)
H6B H -0.8479 -0.1240 0.6258
C11B C -0.7745(6) -0.1815(4) 0.5886(4)
H7B H -0.7987 -0.2281 0.6327
C12B C -0.7080(4) -0.1723(3) 0.5263(3)
O1C O -0.4269(2) 0.2166(2) 0.3172(2)
N1C N -0.5031(3) -0.1125(3) 0.0920(3)
N2C N -0.5569(3) -0.2260(3) -0.0119(3)
C3C C -0.4579(3) 0.0304(3) 0.1708(3)
H1C H -0.4247 0.0617 0.1179
C4C C -0.5042(3) -0.0624(3) 0.1723(3)
C6C C -0.5757(3) -0.1882(3) 0.0579(3)
H3C H -0.6336 -0.2110 0.0821
C7C C -0.4289(3) -0.1002(3) 0.0394(3)
C8C C -0.3373(4) -0.0390(4) 0.0460(4)
H4C H -0.3147 0.0079 0.0898
C9C C -0.2815(4) -0.0505(4) -0.0150(5)
H5C H -0.2195 -0.0115 -0.0111
C10C C -0.3155(4) -0.1198(4) -0.0836(5)
H6C H -0.2761 -0.1240 -0.1258
C11C C -0.4070(4) -0.1815(4) -0.0886(4)
H7C H -0.4294 -0.2281 -0.1327
C12C C -0.4643(3) -0.1723(3) -0.0263(3)
Mn1C Mn -0.3333 0.3333 0.39325(7)
Mn1F Mn -0.6667 -0.3333 -0.10675(7)
Mn1F_2 Mn -0.6667 0.6667 -0.10675(7)
Mn1F_3 Mn 0.3333 0.6667 -0.10675(7)
Mn1I Mn -0.6667 -0.3333 0.60675(7)
Mn1I_2 Mn -0.6667 0.6667 0.60675(7)
Mn1I_3 Mn 0.3333 0.6667 0.60675(7)
N2F N -0.2260(3) 0.4431(3) 0.4881(3)
N2G N -0.4431(3) 0.3309(4) 0.4881(3)
N2H N -0.3309(4) 0.2260(3) 0.4881(3)
N2I N -0.4431(3) 0.2260(3) 0.0119(3)
N2J N -0.2260(3) 0.3309(4) 0.0119(3)
N2K N -0.3309(4) 0.4431(3) 0.0119(3)
loop_
_geom_bond_atom_site_label_1
_geom_bond_atom_site_label_2
_geom_bond_site_symmetry_1
_geom_bond_site_symmetry_2
Mn1 O1 1_555 1_555
O1 C1 1_555 1_555
N1 C4 1_555 1_555
N2 C6 1_555 1_555
C1 C2 1_555 1_555
C2 C3 1_555 1_555
C3 H1 1_555 1_555
C4 C3 1_555 1_555
C5 C4 1_555 1_555
H2 C5 1_555 1_555
C6 N1 1_555 1_555
H3 C6 1_555 1_555
C7 N1 1_555 1_555
C8 C7 1_555 1_555
H4 C8 1_555 1_555
C9 C8 1_555 1_555
H5 C9 1_555 1_555
C10 C9 1_555 1_555
H6 C10 1_555 1_555
C11 C10 1_555 1_555
H7 C11 1_555 1_555
C12 N2 1_555 1_555
Cl1 O2 1_555 1_555
O3 Cl1 1_555 1_555
O1D C1 1_555 1_555
N1D C4D 1_555 1_555
N2D C6D 1_555 1_555
C3D C2 1_555 1_555
H1D C3D 1_555 1_555
C4D C5 1_555 1_555
C6D N1D 1_555 1_555
H3D C6D 1_555 1_555
C7D N1D 1_555 1_555
C8D C7D 1_555 1_555
H4D C8D 1_555 1_555
C9D C8D 1_555 1_555
H5D C9D 1_555 1_555
C10D C9D 1_555 1_555
H6D C10D 1_555 1_555
C11D C10D 1_555 1_555
H7D C11D 1_555 1_555
C12D N2D 1_555 1_555
O1A Mn1 1_555 1_555
N1A C4A 1_555 1_555
N2A C6A 1_555 1_555
C1A O1A 1_555 1_555
C2A C1A 1_555 1_555
C3A C2A 1_555 1_555
H1A C3A 1_555 1_555
C4A C3A 1_555 1_555
C5A C4A 1_555 1_555
H2A C5A 1_555 1_555
C6A N1A 1_555 1_555
H3A C6A 1_555 1_555
C7A N1A 1_555 1_555
C8A C7A 1_555 1_555
H4A C8A 1_555 1_555
C9A C8A 1_555 1_555
H5A C9A 1_555 1_555
C10A C9A 1_555 1_555
H6A C10A 1_555 1_555
C11A C10A 1_555 1_555
H7A C11A 1_555 1_555
C12A N2A 1_555 1_555
O1E C1A 1_555 1_555
N1E C4E 1_555 1_555
N2E C6E 1_555 1_555
C3E C2A 1_555 1_555
H1E C3E 1_555 1_555
C4E C5A 1_555 1_555
C6E N1E 1_555 1_555
H3E C6E 1_555 1_555
C7E N1E 1_555 1_555
C8E C7E 1_555 1_555
H4E C8E 1_555 1_555
C9E C8E 1_555 1_555
H5E C9E 1_555 1_555
C10E C9E 1_555 1_555
H6E C10E 1_555 1_555
C11E C10E 1_555 1_555
H7E C11E 1_555 1_555
C12E N2E 1_555 1_555
O1B Mn1 1_555 1_555
N1B C4B 1_555 1_555
N2B C6B 1_555 1_555
C1B O1B 1_555 1_555
C2B C1B 1_555 1_555
C3B C2B 1_555 1_555
H1B C3B 1_555 1_555
C4B C3B 1_555 1_555
C5B C4B 1_555 1_555
H2B C5B 1_555 1_555
C6B N1B 1_555 1_555
H3B C6B 1_555 1_555
C7B N1B 1_555 1_555
C8B C7B 1_555 1_555
H4B C8B 1_555 1_555
C9B C8B 1_555 1_555
H5B C9B 1_555 1_555
C10B C9B 1_555 1_555
H6B C10B 1_555 1_555
C11B C10B 1_555 1_555
H7B C11B 1_555 1_555
C12B N2B 1_555 1_555
O1C C1B 1_555 1_555
N1C C4C 1_555 1_555
N2C C6C 1_555 1_555
C3C C2B 1_555 1_555
H1C C3C 1_555 1_555
C4C C5B 1_555 1_555
C6C N1C 1_555 1_555
H3C C6C 1_555 1_555
C7C N1C 1_555 1_555
C8C C7C 1_555 1_555
H4C C8C 1_555 1_555
C9C C8C 1_555 1_555
H5C C9C 1_555 1_555
C10C C9C 1_555 1_555
H6C C10C 1_555 1_555
C11C C10C 1_555 1_555
H7C C11C 1_555 1_555
C12C N2C 1_555 1_555
Mn1C O1D 1_555 1_555
Mn1F N2C 1_555 1_555
Mn1F_2 N2E 1_555 1_555
Mn1F_3 N2D 1_555 1_555
Mn1I N2B 1_555 1_555
Mn1I_2 N2A 1_555 1_555
Mn1I_3 N2 1_555 1_555
N2F Mn1C 1_555 1_555
N2G Mn1C 1_555 1_555
N2H Mn1C 1_555 1_555
N2I Mn1 1_555 1_555
N2J Mn1 1_555 1_555
N2K Mn1 1_555 1_555
O2E Cl1 1_555 1_555
O3E Cl1 1_555 1_555
C7 C12 1_555 1_555
C11 C12 1_555 1_555
C3D C4D 1_555 1_555
C7D C12D 1_555 1_555
C11D C12D 1_555 1_555
C7A C12A 1_555 1_555
C11A C12A 1_555 1_555
O1E Mn1C 1_555 1_555
C3E C4E 1_555 1_555
C7E C12E 1_555 1_555
C11E C12E 1_555 1_555
C7B C12B 1_555 1_555
C11B C12B 1_555 1_555
O1C Mn1C 1_555 1_555
C3C C4C 1_555 1_555
C7C C12C 1_555 1_555
C11C C12C 1_555 1_555

#END
