
#######################################################################
#
#                 Cambridge Crystallographic Data Centre
#                                CCDC 
#
#######################################################################
#
# If this CIF has been generated from an entry in the Cambridge 
# Structural Database, then it will include bibliographic, chemical, 
# crystal, experimental, refinement or atomic coordinate data resulting 
# from the CCDC's data processing and validation procedures.
#
#######################################################################

data_YOYQOU
_symmetry_cell_setting           monoclinic
_symmetry_space_group_name_H-M   'C 2/c'
_symmetry_Int_Tables_number      15
_space_group_name_Hall           '-C 2yn'
loop_
_symmetry_equiv_pos_site_id
_symmetry_equiv_pos_as_xyz
1 x,y,z
2 -x,y,1/2-z
3 1/2+x,1/2+y,z
4 1/2-x,1/2+y,1/2-z
5 -x,-y,-z
6 x,-y,1/2+z
7 1/2-x,1/2-y,-z
8 1/2+x,1/2-y,1/2+z
_cell_length_a                   17.966(5)
_cell_length_b                   27.989(5)
_cell_length_c                   14.141(5)
_cell_angle_alpha                90
_cell_angle_beta                 92.381(5)
_cell_angle_gamma                90
_cell_volume                     7104.67
loop_
_atom_site_label
_atom_site_type_symbol
_atom_site_fract_x
_atom_site_fract_y
_atom_site_fract_z
Mn1 Mn 1.00414(8) 0.17825(5) 0.10681(9)
O1 O 1.0365(4) 0.1165(2) 0.1872(4)
N1 N 0.9581(4) 0.2359(3) 0.0070(6)
N2 N 1.1079(4) 0.1758(3) 0.0181(5)
O2 O 0.8995(4) 0.1904(2) 0.1686(4)
O3 O 1.0708(4) 0.2259(2) 0.1918(4)
N3 N 0.9518(4) 0.1193(3) 0.0111(5)
C1 C 1.0000 0.0959(5) 0.2500
C2 C 0.8845(5) 0.2147(3) 0.2414(7)
C3 C 1.0000 0.0423(5) 0.2500
C4 C 0.8050(5) 0.2312(3) 0.2461(6)
C5 C 1.0243(5) 0.0174(3) 0.1713(6)
C6 C 0.7546(5) 0.2249(3) 0.1698(7)
C7 C 0.7832(5) 0.2548(4) 0.3272(7)
H1 H 1.0402 0.0340 0.1189
C8 C 1.0245(6) -0.0319(3) 0.1722(7)
C9 C 0.6827(6) 0.2415(4) 0.1764(7)
H2 H 0.7692 0.2098 0.1150
C10 C 0.7112(6) 0.2714(4) 0.3316(7)
H3 H 0.8170 0.2593 0.3781
N4 N 1.0468(5) -0.0584(3) 0.0928(5)
C11 C 1.0000 -0.0572(5) 0.2500
N5 N 0.6305(5) 0.2380(3) 0.0978(6)
C12 C 0.6606(6) 0.2650(4) 0.2556(7)
N6 N 0.6880(4) 0.2961(3) 0.4138(5)
C13 C 1.0146(6) -0.0997(3) 0.0602(7)
C14 C 1.1085(6) -0.0504(3) 0.0374(7)
H4 H 1.0000 -0.0904 0.2500
C15 C 0.6075(6) 0.1982(4) 0.0454(8)
C16 C 0.5889(5) 0.2754(4) 0.0635(7)
H5 H 0.6122 0.2766 0.2585
C17 C 0.7264(5) 0.3310(4) 0.4662(7)
C18 C 0.6184(5) 0.2941(4) 0.4475(7)
H6 H 0.9725 -0.1128 0.0861
C19 C 1.1082(5) -0.0887(3) -0.0278(6)
C20 C 1.1643(7) -0.0165(4) 0.0410(8)
C21 C 0.6278(8) 0.1505(4) 0.0509(9)
C22 C 0.5528(6) 0.2151(4) -0.0206(7)
H7 H 0.5932 0.3062 0.0877
C23 C 0.7970(6) 0.3509(4) 0.4600(8)
C24 C 0.6756(5) 0.3480(3) 0.5313(7)
H8 H 0.5816 0.2736 0.4234
C25 C 1.1631(6) -0.0917(4) -0.0936(7)
C26 C 1.2184(6) -0.0198(4) -0.0239(8)
H9 H 1.1650 0.0078 0.0858
H10 H 0.6637 0.1397 0.0950
C27 C 0.5918(9) 0.1200(5) -0.0127(11)
C28 C 0.5184(7) 0.1840(4) -0.0856(8)
H11 H 0.8301 0.3399 0.4161
C29 C 0.8160(6) 0.3874(4) 0.5210(8)
C30 C 0.6964(6) 0.3839(4) 0.5949(7)
H12 H 1.1633 -0.1162 -0.1379
C31 C 1.2176(7) -0.0566(4) -0.0910(8)
H13 H 1.2564 0.0027 -0.0234
C32 C 0.5377(9) 0.1362(5) -0.0804(10)
H14 H 0.6037 0.0876 -0.0108
H15 H 0.4837 0.1950 -0.1311
C33 C 0.7670(6) 0.4035(4) 0.5884(8)
H16 H 0.8625 0.4018 0.5175
H17 H 0.6641 0.3945 0.6402
H18 H 1.2546 -0.0576 -0.1349
H19 H 0.5147 0.1145 -0.1220
H20 H 0.7820 0.4278 0.6297
C2A C 1.1155(5) 0.2147(3) 0.2586(7)
O1A O 0.9635(4) 0.1165(2) 0.3128(4)
O3A O 0.9292(4) 0.2259(2) 0.3082(4)
C4A C 1.1950(5) 0.2312(3) 0.2539(6)
O2A O 1.1005(4) 0.1904(2) 0.3314(4)
C5A C 0.9757(5) 0.0174(3) 0.3287(6)
Mn1A Mn 0.99586(8) 0.17825(5) 0.39319(9)
C7A C 1.2168(5) 0.2548(4) 0.1728(7)
C6A C 1.2454(5) 0.2249(3) 0.3302(7)
H1A H 0.9598 0.0340 0.3811
C8A C 0.9755(6) -0.0319(3) 0.3278(7)
N2A N 0.8921(4) 0.1758(3) 0.4819(5)
N1A N 1.0419(4) 0.2359(3) 0.4930(6)
N3A N 1.0482(4) 0.1193(3) 0.4889(5)
C10A C 1.2888(6) 0.2714(4) 0.1684(7)
H3A H 1.1830 0.2593 0.1219
H2A H 1.2308 0.2098 0.3850
C9A C 1.3173(6) 0.2415(4) 0.3236(7)
N4A N 0.9532(5) -0.0584(3) 0.4072(5)
N6A N 1.3120(4) 0.2961(3) 0.0862(5)
C12A C 1.3394(6) 0.2650(4) 0.2444(7)
N5A N 1.3695(5) 0.2380(3) 0.4022(6)
C13A C 0.9854(6) -0.0997(3) 0.4398(7)
C14A C 0.8915(6) -0.0504(3) 0.4626(7)
C17A C 1.2736(5) 0.3310(4) 0.0338(7)
C18A C 1.3816(5) 0.2941(4) 0.0525(7)
H5A H 1.3878 0.2766 0.2415
C16A C 1.4111(5) 0.2754(4) 0.4365(7)
C15A C 1.3925(6) 0.1982(4) 0.4546(8)
N3D N 1.0482(4) -0.1193(3) -0.0111(5)
N3E N 0.9518(4) -0.1193(3) 0.5111(5)
H6A H 1.0275 -0.1128 0.4139
C19A C 0.8918(5) -0.0887(3) 0.5278(6)
C20A C 0.8357(7) -0.0165(4) 0.4590(8)
N1F N 0.5419(4) 0.2641(3) -0.0070(6)
N2G N 0.6079(4) 0.3242(3) 0.5181(5)
C24A C 1.3244(5) 0.3480(3) -0.0313(7)
C23A C 1.2030(6) 0.3509(4) 0.0400(8)
N2F N 1.3921(4) 0.3242(3) -0.0181(5)
H8A H 1.4184 0.2736 0.0766
N1G N 1.4581(4) 0.2641(3) 0.5070(6)
H7A H 1.4068 0.3062 0.4123
C22A C 1.4472(6) 0.2151(4) 0.5206(7)
C21A C 1.3722(8) 0.1505(4) 0.4491(9)
Mn1D Mn 0.99586(8) -0.17825(5) -0.10681(9)
Mn1E Mn 1.00414(8) -0.17825(5) 0.60681(9)
C25A C 0.8369(6) -0.0917(4) 0.5936(7)
C26A C 0.7816(6) -0.0198(4) 0.5239(8)
H9A H 0.8350 0.0078 0.4142
Mn1F Mn 0.49586(8) 0.32175(5) -0.10681(9)
Mn1F_2 Mn 1.49586(8) 0.32175(5) -0.10681(9)
Mn1G Mn 0.50414(8) 0.32175(5) 0.60681(9)
C30A C 1.3036(6) 0.3839(4) -0.0949(7)
H11A H 1.1699 0.3399 0.0839
C29A C 1.1840(6) 0.3874(4) -0.0210(8)
Mn1G_2 Mn 1.50414(8) 0.32175(5) 0.60681(9)
C28A C 1.4816(7) 0.1840(4) 0.5856(8)
C27A C 1.4082(9) 0.1200(5) 0.5127(11)
H10A H 1.3363 0.1397 0.4050
H12A H 0.8367 -0.1162 0.6379
C31A C 0.7824(7) -0.0566(4) 0.5910(8)
H13A H 0.7436 0.0027 0.5234
H17A H 1.3359 0.3945 -0.1402
C33A C 1.2330(6) 0.4035(4) -0.0884(8)
H16A H 1.1375 0.4018 -0.0175
C32A C 1.4623(9) 0.1362(5) 0.5804(10)
H15A H 1.5163 0.1950 0.6311
H14A H 1.3963 0.0876 0.5108
H18A H 0.7454 -0.0576 0.6349
H20A H 1.2180 0.4278 -0.1297
H19A H 1.4853 0.1145 0.6220
O4 O 0.8740(6) 0.1267(4) -0.2751(13)
N7 N 0.7630(7) 0.0949(5) -0.2371(9)
C34 C 0.8221(10) 0.0968(7) -0.2884(16)
H21 H 0.8259 0.0748 -0.3374
C35 C 0.7526(10) 0.1280(7) -0.1605(13)
H22 H 0.7073 0.1204 -0.1301
H23 H 0.7497 0.1599 -0.1851
H24 H 0.7939 0.1256 -0.1155
C36 C 0.7030(11) 0.0608(7) -0.2547(13)
H25 H 0.6663 0.0647 -0.2077
H26 H 0.7226 0.0289 -0.2515
H27 H 0.6803 0.0663 -0.3164
O5 O 0.5969(11) -0.0082(7) -0.1085(15)
O6 O 0.5839(19) -0.0094(12) 0.054(2)
O7 O 0.492(2) 0.0060(18) -0.058(3)
N8 N 0.563(2) -0.0065(15) -0.039(3)
O8 O 0.5000 0.0311(13) -0.2500
O9 O 1.0000 0.166(8) -0.2500
O10 O 0.896(5) 0.478(3) -0.187(6)
O11? O 0.9912(11) 0.2745(7) -0.2889(12)
C37? C 0.9685(15) 0.3149(10) -0.3019(18)
C38? C 0.966(2) 0.3994(12) -0.267(3)
C39? C 1.0504(15) 0.3452(10) -0.1710(18)
N9? N 1.0000 0.3537(6) -0.2500
loop_
_geom_bond_atom_site_label_1
_geom_bond_atom_site_label_2
_geom_bond_site_symmetry_1
_geom_bond_site_symmetry_2
Mn1 O1 1_555 1_555
O1 C1 1_555 1_555
N1 Mn1 1_555 1_555
N2 Mn1 1_555 1_555
O2 Mn1 1_555 1_555
O3 Mn1 1_555 1_555
N3 Mn1 1_555 1_555
C1 C3 1_555 1_555
C2 O2 1_555 1_555
C3 C5 1_555 1_555
C4 C2 1_555 1_555
C5 H1 1_555 1_555
C6 C4 1_555 1_555
C7 C4 1_555 1_555
C8 C5 1_555 1_555
C9 C6 1_555 1_555
H2 C6 1_555 1_555
C10 C7 1_555 1_555
H3 C7 1_555 1_555
N4 C8 1_555 1_555
C11 C8 1_555 1_555
N5 C9 1_555 1_555
C12 C9 1_555 1_555
N6 C10 1_555 1_555
C13 N4 1_555 1_555
C14 N4 1_555 1_555
H4 C11 1_555 1_555
C15 N5 1_555 1_555
C16 N5 1_555 1_555
H5 C12 1_555 1_555
C17 N6 1_555 1_555
C18 N6 1_555 1_555
H6 C13 1_555 1_555
C19 C14 1_555 1_555
C20 C14 1_555 1_555
C21 C15 1_555 1_555
C22 C15 1_555 1_555
H7 C16 1_555 1_555
C23 C17 1_555 1_555
C24 C17 1_555 1_555
H8 C18 1_555 1_555
C25 C19 1_555 1_555
C26 C20 1_555 1_555
H9 C20 1_555 1_555
H10 C21 1_555 1_555
C27 C21 1_555 1_555
C28 C22 1_555 1_555
H11 C23 1_555 1_555
C29 C23 1_555 1_555
C30 C24 1_555 1_555
H12 C25 1_555 1_555
C31 C25 1_555 1_555
H13 C26 1_555 1_555
C32 C27 1_555 1_555
H14 C27 1_555 1_555
H15 C28 1_555 1_555
C33 C29 1_555 1_555
H16 C29 1_555 1_555
H17 C30 1_555 1_555
H18 C31 1_555 1_555
H19 C32 1_555 1_555
H20 C33 1_555 1_555
O4 C34 1_555 1_555
N7 C34 1_555 1_555
C34 H21 1_555 1_555
C35 N7 1_555 1_555
H22 C35 1_555 1_555
H23 C35 1_555 1_555
H24 C35 1_555 1_555
C36 N7 1_555 1_555
H25 C36 1_555 1_555
H26 C36 1_555 1_555
H27 C36 1_555 1_555
O5 N8 1_555 1_555
O6 N8 1_555 1_555
O7 N8 1_555 1_555
C2A O3 1_555 1_555
O1A C1 1_555 1_555
O3A C2 1_555 1_555
C4A C2A 1_555 1_555
O2A C2A 1_555 1_555
C5A C3 1_555 1_555
Mn1A O1A 1_555 1_555
C7A C4A 1_555 1_555
C6A C4A 1_555 1_555
H1A C5A 1_555 1_555
C8A C11 1_555 1_555
N2A Mn1A 1_555 1_555
N1A Mn1A 1_555 1_555
N3A Mn1A 1_555 1_555
C10A C7A 1_555 1_555
H3A C7A 1_555 1_555
H2A C6A 1_555 1_555
C9A C6A 1_555 1_555
N4A C8A 1_555 1_555
N6A C10A 1_555 1_555
C12A C10A 1_555 1_555
N5A C9A 1_555 1_555
C13A N4A 1_555 1_555
C14A N4A 1_555 1_555
C17A N6A 1_555 1_555
C18A N6A 1_555 1_555
H5A C12A 1_555 1_555
C16A N5A 1_555 1_555
C15A N5A 1_555 1_555
N3D C13 1_555 1_555
N3E C13A 1_555 1_555
H6A C13A 1_555 1_555
C19A C14A 1_555 1_555
C20A C14A 1_555 1_555
N1F C16 1_555 1_555
N2G C18 1_555 1_555
C24A C17A 1_555 1_555
C23A C17A 1_555 1_555
N2F C18A 1_555 1_555
H8A C18A 1_555 1_555
N1G C16A 1_555 1_555
H7A C16A 1_555 1_555
C22A C15A 1_555 1_555
C21A C15A 1_555 1_555
Mn1D N3D 1_555 1_555
Mn1E N3E 1_555 1_555
C25A C19A 1_555 1_555
C26A C20A 1_555 1_555
H9A C20A 1_555 1_555
Mn1F N1F 1_555 1_555
Mn1F_2 N2F 1_555 1_555
Mn1G N2G 1_555 1_555
C30A C24A 1_555 1_555
H11A C23A 1_555 1_555
C29A C23A 1_555 1_555
Mn1G_2 N1G 1_555 1_555
C28A C22A 1_555 1_555
C27A C21A 1_555 1_555
H10A C21A 1_555 1_555
H12A C25A 1_555 1_555
C31A C25A 1_555 1_555
H13A C26A 1_555 1_555
H17A C30A 1_555 1_555
C33A C30A 1_555 1_555
H16A C29A 1_555 1_555
C32A C28A 1_555 1_555
H15A C28A 1_555 1_555
H14A C27A 1_555 1_555
H18A C31A 1_555 1_555
H20A C33A 1_555 1_555
H19A C32A 1_555 1_555
C10 C12 1_555 1_555
C19 N3D 1_555 1_555
C22 N1F 1_555 1_555
C24 N2G 1_555 1_555
C26 C31 1_555 1_555
C28 C32 1_555 1_555
C30 C33 1_555 1_555
O3A Mn1A 1_555 1_555
O2A Mn1A 1_555 1_555
C5A C8A 1_555 1_555
C9A C12A 1_555 1_555
N3E C19A 1_555 1_555
C24A N2F 1_555 1_555
N1G C22A 1_555 1_555
C26A C31A 1_555 1_555
C29A C33A 1_555 1_555
C27A C32A 1_555 1_555

#END
