
#######################################################################
#
#                 Cambridge Crystallographic Data Centre
#                                CCDC 
#
#######################################################################
#
# If this CIF has been generated from an entry in the Cambridge 
# Structural Database, then it will include bibliographic, chemical, 
# crystal, experimental, refinement or atomic coordinate data resulting 
# from the CCDC's data processing and validation procedures.
#
#######################################################################

data_YOYQEK
_symmetry_cell_setting           trigonal
_symmetry_space_group_name_H-M   'P -3 1 c'
_symmetry_Int_Tables_number      163
_space_group_name_Hall           "-P 3 2'c"
loop_
_symmetry_equiv_pos_site_id
_symmetry_equiv_pos_as_xyz
1 x,y,z
2 -y,x-y,z
3 -x+y,-x,z
4 -y,-x,1/2-z
5 x,x-y,1/2-z
6 -x+y,y,1/2-z
7 -x,-y,-z
8 y,-x+y,-z
9 x-y,x,-z
10 y,x,1/2+z
11 -x,-x+y,1/2+z
12 x-y,-y,1/2+z
_cell_length_a                   16.975(5)
_cell_length_b                   16.975(5)
_cell_length_c                   13.917(5)
_cell_angle_alpha                90
_cell_angle_beta                 90
_cell_angle_gamma                120
_cell_volume                     3472.93
loop_
_atom_site_label
_atom_site_type_symbol
_atom_site_fract_x
_atom_site_fract_y
_atom_site_fract_z
Co1 Co -0.3333 0.3333 0.60339(7)
O1 O -0.2204(2) 0.4245(2) 0.6811(2)
N1 N 0.1119(3) 0.5038(3) 0.9116(3)
N2 N 0.2283(3) 0.5598(3) 1.0148(3)
C1 C -0.1823(4) 0.4088(2) 0.7500
C2 C -0.0808(4) 0.4596(2) 0.7500
C3 C -0.0340(3) 0.4564(3) 0.8309(3)
H1 H -0.0657 0.4232 0.8848
C4 C 0.0606(3) 0.5035(3) 0.8301(3)
C5 C 0.1083(4) 0.5542(2) 0.7500
H2 H 0.1716 0.5858 0.7500
C6 C 0.1894(3) 0.5779(3) 0.9436(3)
H3 H 0.2124 0.6357 0.9174
C7 C 0.1742(3) 0.4662(3) 1.0311(3)
C8 C 0.1839(4) 0.4091(4) 1.0955(4)
H4 H 0.2310 0.4322 1.1401
C9 C 0.1220(4) 0.3174(4) 1.0913(5)
H5 H 0.1271 0.2782 1.1341
C10 C 0.0510(4) 0.2820(4) 1.0233(5)
H6 H 0.0115 0.2195 1.0207
C11 C 0.0387(4) 0.3378(4) 0.9605(4)
H7 H -0.0092 0.3143 0.9169
C12 C 0.1010(3) 0.4304(3) 0.9650(4)
O1D O -0.2204(2) 0.3551(3) 0.8189(2)
N1D N 0.1119(3) 0.6081(4) 0.5884(3)
N2D N 0.2283(3) 0.6685(4) 0.4852(3)
C3D C -0.0340(3) 0.5096(4) 0.6691(3)
H1D H -0.0657 0.5111 0.6152
C4D C 0.0606(3) 0.5571(4) 0.6699(3)
C6D C 0.1894(3) 0.6115(4) 0.5564(3)
H3D H 0.2124 0.5767 0.5826
C7D C 0.1742(3) 0.7080(4) 0.4689(3)
C8D C 0.1839(4) 0.7748(6) 0.4045(4)
H4D H 0.2310 0.7988 0.3599
C9D C 0.1220(4) 0.8046(6) 0.4087(5)
H5D H 0.1271 0.8489 0.3659
C10D C 0.0510(4) 0.7690(6) 0.4767(5)
H6D H 0.0115 0.7920 0.4793
C11D C 0.0387(4) 0.7009(6) 0.5395(4)
H7D H -0.0092 0.6765 0.5831
C12D C 0.1010(3) 0.6706(4) 0.5350(4)
O1A O -0.4245(2) 0.3551(3) 0.6811(2)
N1A N -0.5038(3) 0.6081(4) 0.9116(3)
N2A N -0.5598(3) 0.6685(4) 1.0148(3)
C1A C -0.4088(2) 0.4089(4) 0.7500
C2A C -0.4596(2) 0.4596(4) 0.7500
C3A C -0.4564(3) 0.5096(4) 0.8309(3)
H1A H -0.4232 0.5111 0.8848
C4A C -0.5035(3) 0.5571(4) 0.8301(3)
C5A C -0.5542(2) 0.5541(4) 0.7500
H2A H -0.5858 0.5858 0.7500
C6A C -0.5779(3) 0.6115(4) 0.9436(3)
H3A H -0.6357 0.5767 0.9174
C7A C -0.4662(3) 0.7080(4) 1.0311(3)
C8A C -0.4091(4) 0.7748(6) 1.0955(4)
H4A H -0.4322 0.7988 1.1401
C9A C -0.3174(4) 0.8046(6) 1.0913(5)
H5A H -0.2782 0.8489 1.1341
C10A C -0.2820(4) 0.7690(6) 1.0233(5)
H6A H -0.2195 0.7920 1.0207
C11A C -0.3378(4) 0.7009(6) 0.9605(4)
H7A H -0.3143 0.6765 0.9169
C12A C -0.4304(3) 0.6706(4) 0.9650(4)
O1E O -0.3551(3) 0.4245(2) 0.8189(2)
N1E N -0.6081(4) 0.5038(3) 0.5884(3)
N2E N -0.6685(4) 0.5598(3) 0.4852(3)
C3E C -0.5096(4) 0.4564(3) 0.6691(3)
H1E H -0.5111 0.4232 0.6152
C4E C -0.5571(4) 0.5035(3) 0.6699(3)
C6E C -0.6115(4) 0.5779(3) 0.5564(3)
H3E H -0.5767 0.6357 0.5826
C7E C -0.7080(4) 0.4662(3) 0.4689(3)
C8E C -0.7748(6) 0.4091(4) 0.4045(4)
H4E H -0.7988 0.4322 0.3599
C9E C -0.8046(6) 0.3174(4) 0.4087(5)
H5E H -0.8489 0.2782 0.3659
C10E C -0.7690(6) 0.2820(4) 0.4767(5)
H6E H -0.7920 0.2195 0.4793
C11E C -0.7009(6) 0.3378(4) 0.5395(4)
H7E H -0.6765 0.3143 0.5831
C12E C -0.6706(4) 0.4304(3) 0.5350(4)
O1B O -0.3551(3) 0.2204(2) 0.6811(2)
N1B N -0.6081(4) -0.1119(3) 0.9116(3)
N2B N -0.6685(4) -0.2283(3) 1.0148(3)
C1B C -0.4089(4) 0.1823(4) 0.7500
C2B C -0.4596(4) 0.0808(4) 0.7500
C3B C -0.5096(4) 0.0340(3) 0.8309(3)
H1B H -0.5111 0.0657 0.8848
C4B C -0.5571(4) -0.0606(3) 0.8301(3)
C5B C -0.5541(4) -0.1083(4) 0.7500
H2B H -0.5858 -0.1716 0.7500
C6B C -0.6115(4) -0.1894(3) 0.9436(3)
H3B H -0.5767 -0.2124 0.9174
C7B C -0.7080(4) -0.1742(3) 1.0311(3)
C8B C -0.7748(6) -0.1839(4) 1.0955(4)
H4B H -0.7988 -0.2310 1.1401
C9B C -0.8046(6) -0.1220(4) 1.0913(5)
H5B H -0.8489 -0.1271 1.1341
C10B C -0.7690(6) -0.0510(4) 1.0233(5)
H6B H -0.7920 -0.0115 1.0207
C11B C -0.7009(6) -0.0387(4) 0.9605(4)
H7B H -0.6765 0.0092 0.9169
C12B C -0.6706(4) -0.1010(3) 0.9650(4)
O1C O -0.4245(2) 0.2204(2) 0.8189(2)
N1C N -0.5038(3) -0.1119(3) 0.5884(3)
N2C N -0.5598(3) -0.2283(3) 0.4852(3)
C3C C -0.4564(3) 0.0340(3) 0.6691(3)
H1C H -0.4232 0.0657 0.6152
C4C C -0.5035(3) -0.0606(3) 0.6699(3)
C6C C -0.5779(3) -0.1894(3) 0.5564(3)
H3C H -0.6357 -0.2124 0.5826
C7C C -0.4662(3) -0.1742(3) 0.4689(3)
C8C C -0.4091(4) -0.1839(4) 0.4045(4)
H4C H -0.4322 -0.2310 0.3599
C9C C -0.3174(4) -0.1220(4) 0.4087(5)
H5C H -0.2782 -0.1271 0.3659
C10C C -0.2820(4) -0.0510(4) 0.4767(5)
H6C H -0.2195 -0.0115 0.4793
C11C C -0.3378(4) -0.0387(4) 0.5395(4)
H7C H -0.3143 0.0092 0.5831
C12C C -0.4304(3) -0.1010(3) 0.5350(4)
Co1C Co -0.3333 0.3333 0.89661(7)
Co1F Co -0.6667 -0.3333 0.39661(7)
Co1F_2 Co -0.6667 0.6667 0.39661(7)
Co1F_3 Co 0.3333 0.6667 0.39661(7)
Co1I Co -0.6667 -0.3333 1.10339(7)
Co1I_2 Co -0.6667 0.6667 1.10339(7)
Co1I_3 Co 0.3333 0.6667 1.10339(7)
N2F N -0.2283(3) 0.4402(3) 0.9852(3)
N2G N -0.4402(3) 0.3315(4) 0.9852(3)
N2H N -0.3315(4) 0.2283(3) 0.9852(3)
N2I N -0.4402(3) 0.2283(3) 0.5148(3)
N2J N -0.2283(3) 0.3315(4) 0.5148(3)
N2K N -0.3315(4) 0.4402(3) 0.5148(3)
Cl1 Cl 0.0000 0.0000 1.0000
O2 O 0.2415(3) 0.7585(3) 0.7500
C13 C 0.2005(4) 0.7995(4) 0.7500
C14 C 0.2289(6) 0.8809(6) 0.6894(7)
H8 H 0.2821 0.8932 0.6534
H9 H 0.2425 0.9321 0.7295
H10 H 0.1806 0.8702 0.6460
C14C C 0.1191(6) 0.7711(6) 0.8106(7)
H8C H 0.1068 0.7179 0.8466
H9C H 0.0679 0.7575 0.7705
H10C H 0.1298 0.8194 0.8540
O3 O 0.3333 0.6667 0.7500
O4 O 0.1285(5) 0.1279(5) 1.1853(6)
loop_
_geom_bond_atom_site_label_1
_geom_bond_atom_site_label_2
_geom_bond_site_symmetry_1
_geom_bond_site_symmetry_2
Co1 O1 1_555 1_555
O1 C1 1_555 1_555
N1 C4 1_555 1_555
N2 C6 1_555 1_555
C1 C2 1_555 1_555
C2 C3 1_555 1_555
C3 H1 1_555 1_555
C4 C3 1_555 1_555
C5 C4 1_555 1_555
H2 C5 1_555 1_555
C6 N1 1_555 1_555
H3 C6 1_555 1_555
C7 N2 1_555 1_555
C8 C7 1_555 1_555
H4 C8 1_555 1_555
C9 C8 1_555 1_555
H5 C9 1_555 1_555
C10 C9 1_555 1_555
H6 C10 1_555 1_555
C11 C10 1_555 1_555
H7 C11 1_555 1_555
C12 N1 1_555 1_555
O2 C13 1_555 1_555
C13 C14 1_555 1_555
C14 H8 1_555 1_555
H9 C14 1_555 1_555
H10 C14 1_555 1_555
O1D C1 1_555 1_555
N1D C4D 1_555 1_555
N2D C6D 1_555 1_555
C3D C2 1_555 1_555
H1D C3D 1_555 1_555
C4D C5 1_555 1_555
C6D N1D 1_555 1_555
H3D C6D 1_555 1_555
C7D N2D 1_555 1_555
C8D C7D 1_555 1_555
H4D C8D 1_555 1_555
C9D C8D 1_555 1_555
H5D C9D 1_555 1_555
C10D C9D 1_555 1_555
H6D C10D 1_555 1_555
C11D C10D 1_555 1_555
H7D C11D 1_555 1_555
C12D N1D 1_555 1_555
O1A Co1 1_555 1_555
N1A C4A 1_555 1_555
N2A C6A 1_555 1_555
C1A O1A 1_555 1_555
C2A C1A 1_555 1_555
C3A C2A 1_555 1_555
H1A C3A 1_555 1_555
C4A C3A 1_555 1_555
C5A C4A 1_555 1_555
H2A C5A 1_555 1_555
C6A N1A 1_555 1_555
H3A C6A 1_555 1_555
C7A N2A 1_555 1_555
C8A C7A 1_555 1_555
H4A C8A 1_555 1_555
C9A C8A 1_555 1_555
H5A C9A 1_555 1_555
C10A C9A 1_555 1_555
H6A C10A 1_555 1_555
C11A C10A 1_555 1_555
H7A C11A 1_555 1_555
C12A N1A 1_555 1_555
O1E C1A 1_555 1_555
N1E C4E 1_555 1_555
N2E C6E 1_555 1_555
C3E C2A 1_555 1_555
H1E C3E 1_555 1_555
C4E C5A 1_555 1_555
C6E N1E 1_555 1_555
H3E C6E 1_555 1_555
C7E N2E 1_555 1_555
C8E C7E 1_555 1_555
H4E C8E 1_555 1_555
C9E C8E 1_555 1_555
H5E C9E 1_555 1_555
C10E C9E 1_555 1_555
H6E C10E 1_555 1_555
C11E C10E 1_555 1_555
H7E C11E 1_555 1_555
C12E N1E 1_555 1_555
O1B Co1 1_555 1_555
N1B C4B 1_555 1_555
N2B C6B 1_555 1_555
C1B O1B 1_555 1_555
C2B C1B 1_555 1_555
C3B C2B 1_555 1_555
H1B C3B 1_555 1_555
C4B C3B 1_555 1_555
C5B C4B 1_555 1_555
H2B C5B 1_555 1_555
C6B N1B 1_555 1_555
H3B C6B 1_555 1_555
C7B N2B 1_555 1_555
C8B C7B 1_555 1_555
H4B C8B 1_555 1_555
C9B C8B 1_555 1_555
H5B C9B 1_555 1_555
C10B C9B 1_555 1_555
H6B C10B 1_555 1_555
C11B C10B 1_555 1_555
H7B C11B 1_555 1_555
C12B N1B 1_555 1_555
O1C C1B 1_555 1_555
N1C C4C 1_555 1_555
N2C C6C 1_555 1_555
C3C C2B 1_555 1_555
H1C C3C 1_555 1_555
C4C C5B 1_555 1_555
C6C N1C 1_555 1_555
H3C C6C 1_555 1_555
C7C N2C 1_555 1_555
C8C C7C 1_555 1_555
H4C C8C 1_555 1_555
C9C C8C 1_555 1_555
H5C C9C 1_555 1_555
C10C C9C 1_555 1_555
H6C C10C 1_555 1_555
C11C C10C 1_555 1_555
H7C C11C 1_555 1_555
C12C N1C 1_555 1_555
Co1C O1D 1_555 1_555
Co1F N2C 1_555 1_555
Co1F_2 N2E 1_555 1_555
Co1F_3 N2D 1_555 1_555
Co1I N2B 1_555 1_555
Co1I_2 N2A 1_555 1_555
Co1I_3 N2 1_555 1_555
N2F Co1C 1_555 1_555
N2G Co1C 1_555 1_555
N2H Co1C 1_555 1_555
N2I Co1 1_555 1_555
N2J Co1 1_555 1_555
N2K Co1 1_555 1_555
C14C C13 1_555 1_555
H8C C14C 1_555 1_555
H9C C14C 1_555 1_555
H10C C14C 1_555 1_555
C7 C12 1_555 1_555
C11 C12 1_555 1_555
C3D C4D 1_555 1_555
C7D C12D 1_555 1_555
C11D C12D 1_555 1_555
C7A C12A 1_555 1_555
C11A C12A 1_555 1_555
O1E Co1C 1_555 1_555
C3E C4E 1_555 1_555
C7E C12E 1_555 1_555
C11E C12E 1_555 1_555
C7B C12B 1_555 1_555
C11B C12B 1_555 1_555
O1C Co1C 1_555 1_555
C3C C4C 1_555 1_555
C7C C12C 1_555 1_555
C11C C12C 1_555 1_555

#END
