
#######################################################################
#
#                 Cambridge Crystallographic Data Centre
#                                CCDC 
#
#######################################################################
#
# If this CIF has been generated from an entry in the Cambridge 
# Structural Database, then it will include bibliographic, chemical, 
# crystal, experimental, refinement or atomic coordinate data resulting 
# from the CCDC's data processing and validation procedures.
#
#######################################################################

data_YOYQAG
_symmetry_cell_setting           trigonal
_symmetry_space_group_name_H-M   'P 3 1 c'
_symmetry_Int_Tables_number      159
_space_group_name_Hall           "P 3 -2'c"
loop_
_symmetry_equiv_pos_site_id
_symmetry_equiv_pos_as_xyz
1 x,y,z
2 -y,x-y,z
3 -x+y,-x,z
4 y,x,1/2+z
5 -x,-x+y,1/2+z
6 x-y,-y,1/2+z
_cell_length_a                   17.033(5)
_cell_length_b                   17.033(5)
_cell_length_c                   13.928(5)
_cell_angle_alpha                90
_cell_angle_beta                 90
_cell_angle_gamma                120
_cell_volume                     3499.47
loop_
_atom_site_label
_atom_site_type_symbol
_atom_site_fract_x
_atom_site_fract_y
_atom_site_fract_z
Cl1 Cl 0.6667 0.3333 0.6496(5)
Co1 Co 0.6667 0.3333 0.29820(7)
N1 N 0.7733(5) 0.3349(4) 0.3857(4)
C1 C 0.8100(5) 0.3840(5) 0.4590(6)
C2 C 0.8324(7) 0.2989(7) 0.3658(8)
N2 N 0.8891(5) 0.3944(6) 0.4886(5)
H1 H 0.7826 0.4118 0.4911
C3 C 0.8233(10) 0.2389(10) 0.2933(10)
C4 C 0.9080(8) 0.3367(7) 0.4301(7)
C5 C 0.9409(6) 0.4471(8) 0.5699(7)
H2 H 0.7835 0.2219 0.2417
C6 C 0.8850(10) 0.2083(10) 0.3115(11)
C7 C 0.9613(9) 0.3079(10) 0.4363(12)
C8 C 1.0376(7) 0.4963(7) 0.5701(6)
C9 C 0.8938(3) 0.4508(8) 0.6531(8)
H3 H 0.8758 0.1566 0.2793
C10 C 0.9553(12) 0.2478(14) 0.3712(13)
H4 H 1.0044 0.3275 0.4850
H5 H 1.0697 0.4987 0.5151
C11 C 1.0819(3) 0.5392(7) 0.6502(8)
C12 C 0.9416(6) 0.4956(6) 0.7303(6)
H6 H 0.8309 0.4225 0.6534
H7 H 1.0010 0.2331 0.3674
C13 C 1.1842(10) 0.5915(7) 0.6544(8)
C14 C 1.0320(6) 0.5404(6) 0.7336(6)
N3 N 0.8909(5) 0.4931(6) 0.8136(5)
O1 O 1.2231(6) 0.5769(4) 0.5801(4)
O2 O 1.2201(6) 0.6445(4) 0.7182(4)
H8 H 1.0624 0.5719 0.7886
C15 C 0.8118(5) 0.4176(6) 0.8434(6)
C16 C 0.9002(8) 0.5610(7) 0.8723(8)
N4 N 1.2297(6) 0.6695(8) 0.4150(5)
Co2 Co 1.3333 0.6667 0.50328(7)
H9 H 0.7895 0.3596 0.8185
C17 C 0.8295(6) 0.5281(7) 0.9352(5)
C18 C 0.9803(8) 0.6575(8) 0.8789(9)
C19 C 0.8240(8) 0.5863(7) 1.0015(8)
C20 C 0.9706(12) 0.7108(10) 0.9505(12)
H10 H 1.0309 0.6793 0.8393
H11 H 0.7703 0.5663 1.0355
C21 C 0.8958(10) 0.6735(9) 1.0189(10)
H12 H 1.0136 0.7721 0.9542
H13 H 0.8961 0.7065 1.0722
Co1C Co 1.3333 0.6667 0.79820(7)
N4D N 0.7703(6) 0.4398(10) 0.9150(5)
O1A O 1.4231(4) 0.6462(7) 0.5801(4)
O1B O 1.3538(7) 0.7769(6) 0.5801(4)
N4B N 1.4398(10) 0.7703(6) 0.4150(5)
N4A N 1.3305(8) 0.5602(10) 0.4150(5)
N1D N 1.2267(5) 0.5616(6) 0.8857(4)
N1C N 1.3349(4) 0.7733(5) 0.8857(4)
O2A O 1.3555(4) 0.5756(7) 0.7182(4)
O2B O 1.4244(7) 0.7799(6) 0.7182(4)
N1E N 1.4384(6) 0.6651(4) 0.8857(4)
Co2C Co 0.6667 0.3333 1.00328(7)
C13A C 1.4085(7) 0.5927(12) 0.6544(8)
C13B C 1.4073(12) 0.8158(10) 0.6544(8)
C11A C 1.4608(7) 0.5427(8) 0.6502(8)
C11B C 1.4573(8) 0.9181(3) 0.6502(8)
C8A C 1.5037(7) 0.5413(10) 0.5701(6)
C14A C 1.4596(6) 0.4916(8) 0.7336(6)
C14B C 1.5084(8) 0.9680(6) 0.7336(6)
C8B C 1.4587(10) 0.9624(7) 0.5701(6)
C5A C 1.5529(8) 0.4938(10) 0.5699(7)
H5A H 1.5013 0.5710 0.5151
C12A C 1.5044(6) 0.4460(8) 0.7303(6)
H8A H 1.4281 0.4905 0.7886
C12B C 1.5540(8) 1.0584(6) 0.7303(6)
H8B H 1.5095 0.9376 0.7886
C5B C 1.5062(10) 1.0591(6) 0.5699(7)
H5B H 1.4290 0.9303 0.5151
C9A C 1.5492(8) 0.4430(9) 0.6531(8)
N2A N 1.6056(6) 0.4947(8) 0.4886(5)
N3A N 1.5069(6) 0.3978(8) 0.8136(5)
N3B N 1.6022(8) 1.1091(5) 0.8136(5)
C9B C 1.5570(9) 1.1062(3) 0.6531(8)
N2B N 1.5053(8) 1.1109(5) 0.4886(5)
H6A H 1.5775 0.4084 0.6534
C4A C 1.6633(7) 0.5713(11) 0.4301(7)
C1A C 1.6160(5) 0.4260(7) 0.4590(6)
C15A C 1.5824(6) 0.3942(8) 0.8434(6)
C16A C 1.4390(7) 0.3392(11) 0.8723(8)
C15B C 1.6058(8) 1.1882(5) 0.8434(6)
C16B C 1.6608(11) 1.0998(8) 0.8723(8)
H6B H 1.5916 1.1691 0.6534
C4B C 1.4287(11) 1.0920(8) 0.4301(7)
C1B C 1.5740(7) 1.1900(5) 0.4590(6)
C2A C 1.7011(7) 0.5335(10) 0.3658(8)
C7A C 1.6921(10) 0.6534(13) 0.4363(12)
N1A N 1.6651(4) 0.4384(6) 0.3857(4)
H1A H 1.5882 0.3708 0.4911
H9A H 1.6404 0.4299 0.8185
N4E N 1.5602(10) 0.3305(8) 0.9150(5)
C18A C 1.3425(8) 0.3228(11) 0.8789(9)
C17A C 1.4719(7) 0.3014(9) 0.9352(5)
N4C N 1.6695(8) 1.2297(6) 0.9150(5)
H9B H 1.5701 1.2105 0.8185
C18B C 1.6772(11) 1.0197(8) 0.8789(9)
C17B C 1.6986(9) 1.1705(6) 0.9352(5)
C7B C 1.3466(13) 1.0387(9) 0.4363(12)
C2B C 1.4665(10) 1.1676(7) 0.3658(8)
N1B N 1.5616(6) 1.2267(5) 0.3857(4)
H1B H 1.6292 1.2174 0.4911
C3A C 1.7611(10) 0.5844(14) 0.2933(10)
C10A C 1.7522(14) 0.7075(18) 0.3712(13)
H4A H 1.6725 0.6769 0.4850
Co1_2 Co 1.6667 0.3333 0.29820(7)
Co2C_2 Co 1.6667 0.3333 1.00328(7)
C20A C 1.2892(10) 0.2598(16) 0.9505(12)
H10A H 1.3207 0.3516 0.8393
C19A C 1.4137(7) 0.2377(11) 1.0015(8)
Co2C_3 Co 1.6667 1.3333 1.00328(7)
H10B H 1.6484 0.9691 0.8393
C20B C 1.7402(16) 1.0294(12) 0.9505(12)
C19B C 1.7623(11) 1.1760(8) 1.0015(8)
C10B C 1.2925(18) 1.0447(12) 0.3712(13)
H4B H 1.3231 0.9956 0.4850
C3B C 1.4156(14) 1.1767(10) 0.2933(10)
Co1_3 Co 1.6667 1.3333 0.29820(7)
C6A C 1.7917(10) 0.6767(14) 0.3115(11)
H2A H 1.7781 0.5616 0.2417
H7A H 1.7669 0.7679 0.3674
C21A C 1.3265(9) 0.2223(13) 1.0189(10)
H12A H 1.2279 0.2415 0.9542
H11A H 1.4337 0.2040 1.0355
H12B H 1.7585 0.9864 0.9542
C21B C 1.7777(13) 1.1042(10) 1.0189(10)
H11B H 1.7960 1.2297 1.0355
H7B H 1.2321 0.9990 0.3674
C6B C 1.3233(14) 1.1150(10) 0.3115(11)
H2B H 1.4384 1.2165 0.2417
H3A H 1.8434 0.7192 0.2793
H13A H 1.2935 0.1896 1.0722
H13B H 1.8104 1.1039 1.0722
H3B H 1.2808 1.1242 0.2793
loop_
_geom_bond_atom_site_label_1
_geom_bond_atom_site_label_2
_geom_bond_site_symmetry_1
_geom_bond_site_symmetry_2
Co1 N1 1_555 1_555
N1 C1 1_555 1_555
C1 N2 1_555 1_555
C2 N1 1_555 1_555
N2 C4 1_555 1_555
H1 C1 1_555 1_555
C3 C2 1_555 1_555
C4 C2 1_555 1_555
C5 N2 1_555 1_555
H2 C3 1_555 1_555
C6 C3 1_555 1_555
C7 C4 1_555 1_555
C8 C5 1_555 1_555
C9 C5 1_555 1_555
H3 C6 1_555 1_555
C10 C6 1_555 1_555
H4 C7 1_555 1_555
H5 C8 1_555 1_555
C11 C8 1_555 1_555
C12 C9 1_555 1_555
H6 C9 1_555 1_555
H7 C10 1_555 1_555
C13 C11 1_555 1_555
C14 C11 1_555 1_555
N3 C12 1_555 1_555
O1 C13 1_555 1_555
O2 C13 1_555 1_555
H8 C14 1_555 1_555
C15 N3 1_555 1_555
C16 N3 1_555 1_555
N4 Co2 1_555 1_555
Co2 O1 1_555 1_555
H9 C15 1_555 1_555
C17 C16 1_555 1_555
C18 C16 1_555 1_555
C19 C17 1_555 1_555
C20 C18 1_555 1_555
H10 C18 1_555 1_555
H11 C19 1_555 1_555
C21 C19 1_555 1_555
H12 C20 1_555 1_555
H13 C21 1_555 1_555
Co1C O2 1_555 1_555
N4D C15 1_555 1_555
O1A Co2 1_555 1_555
O1B Co2 1_555 1_555
N4B Co2 1_555 1_555
N4A Co2 1_555 1_555
N1D Co1C 1_555 1_555
N1C Co1C 1_555 1_555
O2A Co1C 1_555 1_555
O2B Co1C 1_555 1_555
N1E Co1C 1_555 1_555
Co2C N4D 1_555 1_555
C13A O1A 1_555 1_555
C13B O1B 1_555 1_555
C11A C13A 1_555 1_555
C11B C13B 1_555 1_555
C8A C11A 1_555 1_555
C14A C11A 1_555 1_555
C14B C11B 1_555 1_555
C8B C11B 1_555 1_555
C5A C8A 1_555 1_555
H5A C8A 1_555 1_555
C12A C14A 1_555 1_555
H8A C14A 1_555 1_555
C12B C14B 1_555 1_555
H8B C14B 1_555 1_555
C5B C8B 1_555 1_555
H5B C8B 1_555 1_555
C9A C5A 1_555 1_555
N2A C5A 1_555 1_555
N3A C12A 1_555 1_555
N3B C12B 1_555 1_555
C9B C12B 1_555 1_555
N2B C5B 1_555 1_555
H6A C9A 1_555 1_555
C4A N2A 1_555 1_555
C1A N2A 1_555 1_555
C15A N3A 1_555 1_555
C16A N3A 1_555 1_555
C15B N3B 1_555 1_555
C16B N3B 1_555 1_555
H6B C9B 1_555 1_555
C4B N2B 1_555 1_555
C1B N2B 1_555 1_555
C2A C4A 1_555 1_555
C7A C4A 1_555 1_555
N1A C1A 1_555 1_555
H1A C1A 1_555 1_555
H9A C15A 1_555 1_555
N4E C15A 1_555 1_555
C18A C16A 1_555 1_555
C17A C16A 1_555 1_555
N4C C15B 1_555 1_555
H9B C15B 1_555 1_555
C18B C16B 1_555 1_555
C17B C16B 1_555 1_555
C7B C4B 1_555 1_555
C2B C4B 1_555 1_555
N1B C1B 1_555 1_555
H1B C1B 1_555 1_555
C3A C2A 1_555 1_555
C10A C7A 1_555 1_555
H4A C7A 1_555 1_555
Co1_2 N1A 1_555 1_555
Co2C_2 N4E 1_555 1_555
C20A C18A 1_555 1_555
H10A C18A 1_555 1_555
C19A C17A 1_555 1_555
Co2C_3 N4C 1_555 1_555
H10B C18B 1_555 1_555
C20B C18B 1_555 1_555
C19B C17B 1_555 1_555
C10B C7B 1_555 1_555
H4B C7B 1_555 1_555
C3B C2B 1_555 1_555
Co1_3 N1B 1_555 1_555
C6A C3A 1_555 1_555
H2A C3A 1_555 1_555
H7A C10A 1_555 1_555
C21A C20A 1_555 1_555
H12A C20A 1_555 1_555
H11A C19A 1_555 1_555
H12B C20B 1_555 1_555
C21B C20B 1_555 1_555
H11B C19B 1_555 1_555
H7B C10B 1_555 1_555
C6B C10B 1_555 1_555
H2B C3B 1_555 1_555
H3A C6A 1_555 1_555
H13A C21A 1_555 1_555
H13B C21B 1_555 1_555
H3B C6B 1_555 1_555
C7 C10 1_555 1_555
C12 C14 1_555 1_555
C17 N4D 1_555 1_555
C20 C21 1_555 1_555
O2A C13A 1_555 1_555
O2B C13B 1_555 1_555
C12A C9A 1_555 1_555
C5B C9B 1_555 1_555
C2A N1A 1_555 1_555
N4E C17A 1_555 1_555
N4C C17B 1_555 1_555
C2B N1B 1_555 1_555
C10A C6A 1_555 1_555
C19A C21A 1_555 1_555
C19B C21B 1_555 1_555
C3B C6B 1_555 1_555

#END
