
#######################################################################
#
#                 Cambridge Crystallographic Data Centre
#                                CCDC 
#
#######################################################################
#
# If this CIF has been generated from an entry in the Cambridge 
# Structural Database, then it will include bibliographic, chemical, 
# crystal, experimental, refinement or atomic coordinate data resulting 
# from the CCDC's data processing and validation procedures.
#
#######################################################################

data_YOYQIO
_symmetry_cell_setting           monoclinic
_symmetry_space_group_name_H-M   'C 2/c'
_symmetry_Int_Tables_number      15
_space_group_name_Hall           '-C 2yn'
loop_
_symmetry_equiv_pos_site_id
_symmetry_equiv_pos_as_xyz
1 x,y,z
2 -x,y,1/2-z
3 1/2+x,1/2+y,z
4 1/2-x,1/2+y,1/2-z
5 -x,-y,-z
6 x,-y,1/2+z
7 1/2-x,1/2-y,-z
8 1/2+x,1/2-y,1/2+z
_cell_length_a                   17.872(2)
_cell_length_b                   28.462(2)
_cell_length_c                   14.1464(14)
_cell_angle_alpha                90
_cell_angle_beta                 91.662(3)
_cell_angle_gamma                90
_cell_volume                     7192.86
loop_
_atom_site_label
_atom_site_type_symbol
_atom_site_fract_x
_atom_site_fract_y
_atom_site_fract_z
Cl1 Cl 1.0000 0.17392(5) 0.2500
Mn1 Mn 1.00218(3) 0.17519(2) 0.60456(4)
O1 O 1.03466(15) 0.11471(9) 0.68520(17)
N1 N 0.95190(19) 0.23137(12) 0.5078(2)
N2 N 1.10684(18) 0.17359(11) 0.5146(2)
O2 O 0.90020(15) 0.18700(10) 0.67547(18)
O3 O 1.06967(15) 0.22247(9) 0.68703(17)
N3 N 0.94980(18) 0.11692(11) 0.5103(2)
C1 C 1.0000 0.09460(18) 0.7500
C2 C 0.8862(2) 0.21244(13) 0.7460(2)
C3 C 1.0000 0.04220(19) 0.7500
C4 C 0.8086(2) 0.23188(14) 0.7487(3)
C5 C 0.9771(2) 0.01820(14) 0.8289(3)
C6 C 0.7853(2) 0.25480(14) 0.8295(3)
C7 C 0.7595(2) 0.22737(14) 0.6702(3)
H1 H 0.9625 0.0345 0.8823
C8 C 0.9764(2) -0.03049(14) 0.8273(3)
H2 H 0.8177 0.2577 0.8817
C9 C 0.7147(2) 0.27307(15) 0.8321(3)
H3 H 0.7747 0.2121 0.6159
C10 C 0.6888(2) 0.24569(14) 0.6743(3)
N4 N 0.95305(19) -0.05667(11) 0.9092(2)
C11 C 1.0000 -0.0555(2) 0.7500
N5 N 0.68918(18) 0.29800(12) 0.9140(2)
C12 C 0.6649(2) 0.26969(15) 0.7543(3)
N6 N 0.6377(2) 0.24308(12) 0.5945(2)
C13 C 0.9838(2) -0.09818(14) 0.9392(3)
C14 C 0.8931(3) -0.04805(15) 0.9667(3)
H4 H 1.0000 -0.0882 0.7500
C15 C 0.7287(2) 0.32958(14) 0.9705(3)
C16 C 0.6172(2) 0.29859(14) 0.9437(3)
H5 H 0.6174 0.2830 0.7557
C17 C 0.5933(2) 0.27901(15) 0.5634(3)
C18 C 0.6180(3) 0.20524(18) 0.5389(4)
H6 H 1.0251 -0.1118 0.9116
C19 C 0.8917(2) -0.08614(14) 1.0299(3)
C20 C 0.8401(3) -0.01199(18) 0.9677(4)
C21 C 0.6770(2) 0.34701(15) 1.0341(3)
C22 C 0.8027(3) 0.3451(2) 0.9714(4)
H7 H 0.5791 0.2807 0.9157
H8 H 0.5949 0.3087 0.5908
C23 C 0.5629(3) 0.22163(17) 0.4748(4)
C24 C 0.6390(6) 0.1590(2) 0.5420(6)
C25 C 0.8377(3) -0.08880(17) 1.0990(3)
C26 C 0.7856(4) -0.0159(2) 1.0349(5)
H9 H 0.8413 0.0131 0.9257
C27 C 0.6978(3) 0.38053(17) 1.1015(3)
C28 C 0.8218(3) 0.3792(2) 1.0374(5)
H10 H 0.8373 0.3333 0.9298
C29 C 0.5291(5) 0.1912(2) 0.4104(6)
H11 H 0.6755 0.1483 0.5851
C30 C 0.6038(9) 0.1291(3) 0.4785(10)
H12 H 0.8367 -0.1135 1.1420
C31 C 0.7858(3) -0.0529(2) 1.1002(4)
H13 H 0.7480 0.0067 1.0368
C32 C 0.7707(3) 0.3960(2) 1.1028(5)
H14 H 0.6637 0.3920 1.1441
H15 H 0.8701 0.3913 1.0385
C33 C 0.5509(8) 0.1454(3) 0.4122(10)
H16 H 0.4926 0.2017 0.3672
H17 H 0.6157 0.0973 0.4799
H18 H 0.7495 -0.0533 1.1461
H19 H 0.7864 0.4180 1.1478
H20 H 0.5300 0.1245 0.3682
C2A C 1.1138(2) 0.21244(13) 0.7540(2)
O1A O 0.96534(15) 0.11471(9) 0.81480(17)
O3A O 0.93033(15) 0.22247(9) 0.81297(17)
O2A O 1.09980(15) 0.18700(10) 0.82453(18)
C4A C 1.1914(2) 0.23188(14) 0.7513(3)
C5A C 1.0229(2) 0.01820(14) 0.6711(3)
Mn1A Mn 0.99782(3) 0.17519(2) 0.89544(4)
C6A C 1.2147(2) 0.25480(14) 0.6705(3)
C7A C 1.2405(2) 0.22737(14) 0.8298(3)
H1A H 1.0375 0.0345 0.6177
C8A C 1.0236(2) -0.03049(14) 0.6727(3)
N2A N 0.89316(18) 0.17359(11) 0.9854(2)
N1A N 1.04810(19) 0.23137(12) 0.9922(2)
N3A N 1.05020(18) 0.11692(11) 0.9897(2)
C9A C 1.2853(2) 0.27307(15) 0.6679(3)
H2A H 1.1823 0.2577 0.6183
C10A C 1.3112(2) 0.24569(14) 0.8257(3)
H3A H 1.2253 0.2121 0.8841
N4A N 1.04695(19) -0.05667(11) 0.5908(2)
N5A N 1.31082(18) 0.29800(12) 0.5860(2)
C12A C 1.3351(2) 0.26969(15) 0.7457(3)
N6A N 1.3623(2) 0.24308(12) 0.9055(2)
C13A C 1.0162(2) -0.09818(14) 0.5608(3)
C14A C 1.1069(3) -0.04805(15) 0.5333(3)
C16A C 1.3828(2) 0.29859(14) 0.5563(3)
C15A C 1.2713(2) 0.32958(14) 0.5295(3)
H5A H 1.3826 0.2830 0.7443
C17A C 1.4067(2) 0.27901(15) 0.9366(3)
C18A C 1.3820(3) 0.20524(18) 0.9611(4)
N3E N 0.94980(18) -0.11692(11) 1.0103(2)
N3D N 1.05020(18) -0.11692(11) 0.4897(2)
H6A H 0.9749 -0.1118 0.5884
C19A C 1.1083(2) -0.08614(14) 0.4701(3)
C20A C 1.1599(3) -0.01199(18) 0.5323(4)
N2G N 0.60684(18) 0.32641(11) 1.0146(2)
N1F N 0.54810(19) 0.26863(12) 0.4922(2)
N2F N 1.39316(18) 0.32641(11) 0.4854(2)
H7A H 1.4209 0.2807 0.5843
C21A C 1.3230(2) 0.34701(15) 0.4659(3)
C22A C 1.1973(3) 0.3451(2) 0.5286(4)
N1G N 1.45190(19) 0.26863(12) 1.0078(2)
H8A H 1.4051 0.3087 0.9092
C23A C 1.4371(3) 0.22163(17) 1.0252(4)
C24A C 1.3610(6) 0.1590(2) 0.9580(6)
Mn1E Mn 1.00218(3) -0.17519(2) 1.10456(4)
Mn1D Mn 0.99782(3) -0.17519(2) 0.39544(4)
C25A C 1.1623(3) -0.08880(17) 0.4010(3)
C26A C 1.2144(4) -0.0159(2) 0.4651(5)
H9A H 1.1587 0.0131 0.5743
Mn1F Mn 0.49782(3) 0.32481(2) 0.39544(4)
Mn1F_2 Mn 1.49782(3) 0.32481(2) 0.39544(4)
Mn1G Mn 0.50218(3) 0.32481(2) 1.10456(4)
C27A C 1.3022(3) 0.38053(17) 0.3985(3)
C28A C 1.1782(3) 0.3792(2) 0.4626(5)
H10A H 1.1627 0.3333 0.5702
Mn1G_2 Mn 1.50218(3) 0.32481(2) 1.10456(4)
C29A C 1.4709(5) 0.1912(2) 1.0896(6)
C30A C 1.3962(9) 0.1291(3) 1.0215(10)
H11A H 1.3245 0.1483 0.9149
H12A H 1.1633 -0.1135 0.3580
C31A C 1.2142(3) -0.0529(2) 0.3998(4)
H13A H 1.2520 0.0067 0.4632
C32A C 1.2293(3) 0.3960(2) 0.3972(5)
H14A H 1.3363 0.3920 0.3559
H15A H 1.1299 0.3913 0.4615
C33A C 1.4491(8) 0.1454(3) 1.0878(10)
H16A H 1.5074 0.2017 1.1328
H17A H 1.3843 0.0973 1.0201
H18A H 1.2505 -0.0533 0.3539
H19A H 1.2136 0.4180 0.3522
H20A H 1.4700 0.1245 1.1318
loop_
_geom_bond_atom_site_label_1
_geom_bond_atom_site_label_2
_geom_bond_site_symmetry_1
_geom_bond_site_symmetry_2
Mn1 O1 1_555 1_555
O1 C1 1_555 1_555
N1 Mn1 1_555 1_555
N2 Mn1 1_555 1_555
O2 Mn1 1_555 1_555
O3 Mn1 1_555 1_555
N3 Mn1 1_555 1_555
C1 C3 1_555 1_555
C2 O2 1_555 1_555
C3 C5 1_555 1_555
C4 C2 1_555 1_555
C5 H1 1_555 1_555
C6 C4 1_555 1_555
C7 C4 1_555 1_555
C8 C5 1_555 1_555
H2 C6 1_555 1_555
C9 C6 1_555 1_555
H3 C7 1_555 1_555
C10 C7 1_555 1_555
N4 C8 1_555 1_555
C11 C8 1_555 1_555
N5 C9 1_555 1_555
C12 C9 1_555 1_555
N6 C10 1_555 1_555
C13 N4 1_555 1_555
C14 N4 1_555 1_555
H4 C11 1_555 1_555
C15 N5 1_555 1_555
C16 N5 1_555 1_555
H5 C12 1_555 1_555
C17 N6 1_555 1_555
C18 N6 1_555 1_555
H6 C13 1_555 1_555
C19 C14 1_555 1_555
C20 C14 1_555 1_555
C21 C15 1_555 1_555
C22 C15 1_555 1_555
H7 C16 1_555 1_555
H8 C17 1_555 1_555
C23 C18 1_555 1_555
C24 C18 1_555 1_555
C25 C19 1_555 1_555
C26 C20 1_555 1_555
H9 C20 1_555 1_555
C27 C21 1_555 1_555
C28 C22 1_555 1_555
H10 C22 1_555 1_555
C29 C23 1_555 1_555
H11 C24 1_555 1_555
C30 C24 1_555 1_555
H12 C25 1_555 1_555
C31 C25 1_555 1_555
H13 C26 1_555 1_555
C32 C27 1_555 1_555
H14 C27 1_555 1_555
H15 C28 1_555 1_555
C33 C29 1_555 1_555
H16 C29 1_555 1_555
H17 C30 1_555 1_555
H18 C31 1_555 1_555
H19 C32 1_555 1_555
H20 C33 1_555 1_555
C2A O3 1_555 1_555
O1A C1 1_555 1_555
O3A C2 1_555 1_555
O2A C2A 1_555 1_555
C4A C2A 1_555 1_555
C5A C3 1_555 1_555
Mn1A O1A 1_555 1_555
C6A C4A 1_555 1_555
C7A C4A 1_555 1_555
H1A C5A 1_555 1_555
C8A C11 1_555 1_555
N2A Mn1A 1_555 1_555
N1A Mn1A 1_555 1_555
N3A Mn1A 1_555 1_555
C9A C6A 1_555 1_555
H2A C6A 1_555 1_555
C10A C7A 1_555 1_555
H3A C7A 1_555 1_555
N4A C8A 1_555 1_555
N5A C9A 1_555 1_555
C12A C9A 1_555 1_555
N6A C10A 1_555 1_555
C13A N4A 1_555 1_555
C14A N4A 1_555 1_555
C16A N5A 1_555 1_555
C15A N5A 1_555 1_555
H5A C12A 1_555 1_555
C17A N6A 1_555 1_555
C18A N6A 1_555 1_555
N3E C13 1_555 1_555
N3D C13A 1_555 1_555
H6A C13A 1_555 1_555
C19A C14A 1_555 1_555
C20A C14A 1_555 1_555
N2G C16 1_555 1_555
N1F C17 1_555 1_555
N2F C16A 1_555 1_555
H7A C16A 1_555 1_555
C21A C15A 1_555 1_555
C22A C15A 1_555 1_555
N1G C17A 1_555 1_555
H8A C17A 1_555 1_555
C23A C18A 1_555 1_555
C24A C18A 1_555 1_555
Mn1E N3E 1_555 1_555
Mn1D N3D 1_555 1_555
C25A C19A 1_555 1_555
C26A C20A 1_555 1_555
H9A C20A 1_555 1_555
Mn1F N1F 1_555 1_555
Mn1F_2 N2F 1_555 1_555
Mn1G N2G 1_555 1_555
C27A C21A 1_555 1_555
C28A C22A 1_555 1_555
H10A C22A 1_555 1_555
Mn1G_2 N1G 1_555 1_555
C29A C23A 1_555 1_555
C30A C24A 1_555 1_555
H11A C24A 1_555 1_555
H12A C25A 1_555 1_555
C31A C25A 1_555 1_555
H13A C26A 1_555 1_555
C32A C27A 1_555 1_555
H14A C27A 1_555 1_555
H15A C28A 1_555 1_555
C33A C29A 1_555 1_555
H16A C29A 1_555 1_555
H17A C30A 1_555 1_555
H18A C31A 1_555 1_555
H19A C32A 1_555 1_555
H20A C33A 1_555 1_555
C10 C12 1_555 1_555
C19 N3E 1_555 1_555
C21 N2G 1_555 1_555
C23 N1F 1_555 1_555
C26 C31 1_555 1_555
C28 C32 1_555 1_555
C30 C33 1_555 1_555
O3A Mn1A 1_555 1_555
O2A Mn1A 1_555 1_555
C5A C8A 1_555 1_555
C10A C12A 1_555 1_555
N3D C19A 1_555 1_555
N2F C21A 1_555 1_555
N1G C23A 1_555 1_555
C26A C31A 1_555 1_555
C28A C32A 1_555 1_555
C30A C33A 1_555 1_555

#END
