
#######################################################################
#
#                 Cambridge Crystallographic Data Centre
#                                CCDC 
#
#######################################################################
#
# If this CIF has been generated from an entry in the Cambridge 
# Structural Database, then it will include bibliographic, chemical, 
# crystal, experimental, refinement or atomic coordinate data resulting 
# from the CCDC's data processing and validation procedures.
#
#######################################################################

data_YOYRAH
_symmetry_cell_setting           trigonal
_symmetry_space_group_name_H-M   'P -3 1 c'
_symmetry_Int_Tables_number      163
_space_group_name_Hall           "-P 3 2'c"
loop_
_symmetry_equiv_pos_site_id
_symmetry_equiv_pos_as_xyz
1 x,y,z
2 -y,x-y,z
3 -x+y,-x,z
4 -y,-x,1/2-z
5 x,x-y,1/2-z
6 -x+y,y,1/2-z
7 -x,-y,-z
8 y,-x+y,-z
9 x-y,x,-z
10 y,x,1/2+z
11 -x,-x+y,1/2+z
12 x-y,-y,1/2+z
_cell_length_a                   17.246(5)
_cell_length_b                   17.246(5)
_cell_length_c                   14.135(5)
_cell_angle_alpha                90
_cell_angle_beta                 90
_cell_angle_gamma                120
_cell_volume                     3640.85
loop_
_atom_site_label
_atom_site_type_symbol
_atom_site_fract_x
_atom_site_fract_y
_atom_site_fract_z
Cl1 Cl -0.6667 0.6667 0.2500
Mn1 Mn -0.3333 0.3333 0.10400(9)
O1 O -0.3573(3) 0.4247(3) 0.1827(3)
N1 N -0.5056(4) 0.6036(4) 0.0895(3)
N2 N -0.5580(4) 0.6673(4) -0.0105(3)
C1 C -0.4097(3) 0.4097(3) 0.2500
C2 C -0.4597(3) 0.4597(3) 0.2500
C3 C -0.4593(4) 0.5080(4) 0.1698(3)
H1 H -0.4281 0.5088 0.1157
C4 C -0.5045(5) 0.5534(5) 0.1715(4)
C5 C -0.5536(3) 0.5536(3) 0.2500
H2 H -0.5847 0.5847 0.2500
C6 C -0.5763(5) 0.6122(4) 0.0619(3)
H3 H -0.6321 0.5824 0.0910
C7 C -0.4347(5) 0.6576(5) 0.0289(4)
C8 C -0.3485(6) 0.6754(7) 0.0245(6)
H4 H -0.3265 0.6498 0.0668
C9 C -0.2948(7) 0.7335(10) -0.0462(8)
H5 H -0.2355 0.7473 -0.0521
C10 C -0.3300(7) 0.7714(9) -0.1089(7)
H6 H -0.2930 0.8106 -0.1553
C11 C -0.4149(6) 0.7530(6) -0.1040(5)
H7 H -0.4373 0.7777 -0.1469
C12 C -0.4691(5) 0.6954(5) -0.0322(4)
O1C O -0.4247(3) 0.3573(3) 0.3173(3)
N1C N -0.6036(4) 0.5056(4) 0.4105(3)
N2C N -0.6673(4) 0.5580(4) 0.5105(3)
C3C C -0.5080(4) 0.4593(4) 0.3302(3)
H1C H -0.5088 0.4281 0.3843
C4C C -0.5534(5) 0.5045(5) 0.3285(4)
C6C C -0.6122(4) 0.5763(5) 0.4381(3)
H3C H -0.5824 0.6321 0.4090
C7C C -0.6576(5) 0.4347(5) 0.4711(4)
C8C C -0.6754(7) 0.3485(6) 0.4755(6)
H4C H -0.6498 0.3265 0.4332
C9C C -0.7335(10) 0.2948(7) 0.5462(8)
H5C H -0.7473 0.2355 0.5521
C10C C -0.7714(9) 0.3300(7) 0.6089(7)
H6C H -0.8106 0.2930 0.6553
C11C C -0.7530(6) 0.4149(6) 0.6040(5)
H7C H -0.7777 0.4373 0.6469
C12C C -0.6954(5) 0.4691(5) 0.5322(4)
O1A O -0.4247(3) 0.2180(4) 0.1827(3)
N1A N -0.6036(4) -0.1092(6) 0.0895(3)
N2A N -0.6673(4) -0.2253(6) -0.0105(3)
C1A C -0.4097(3) 0.1806(4) 0.2500
C2A C -0.4597(3) 0.0806(4) 0.2500
C3A C -0.5080(4) 0.0327(6) 0.1698(3)
H1A H -0.5088 0.0631 0.1157
C4A C -0.5534(5) -0.0579(7) 0.1715(4)
C5A C -0.5536(3) -0.1072(4) 0.2500
H2A H -0.5847 -0.1694 0.2500
C6A C -0.6122(4) -0.1885(6) 0.0619(3)
H3A H -0.5824 -0.2145 0.0910
C7A C -0.6576(5) -0.0923(7) 0.0289(4)
C8A C -0.6754(7) -0.0239(9) 0.0245(6)
H4A H -0.6498 0.0237 0.0668
C9A C -0.7335(10) -0.0283(12) -0.0462(8)
H5A H -0.7473 0.0172 -0.0521
C10A C -0.7714(9) -0.1014(11) -0.1089(7)
H6A H -0.8106 -0.1036 -0.1553
C11A C -0.7530(6) -0.1679(8) -0.1040(5)
H7A H -0.7777 -0.2150 -0.1469
C12A C -0.6954(5) -0.1645(7) -0.0322(4)
O1D O -0.3573(3) 0.2180(4) 0.3173(3)
N1D N -0.5056(4) -0.1092(6) 0.4105(3)
N2D N -0.5580(4) -0.2253(6) 0.5105(3)
C3D C -0.4593(4) 0.0327(6) 0.3302(3)
H1D H -0.4281 0.0631 0.3843
C4D C -0.5045(5) -0.0579(7) 0.3285(4)
C6D C -0.5763(5) -0.1885(6) 0.4381(3)
H3D H -0.6321 -0.2145 0.4090
C7D C -0.4347(5) -0.0923(7) 0.4711(4)
C8D C -0.3485(6) -0.0239(9) 0.4755(6)
H4D H -0.3265 0.0237 0.4332
C9D C -0.2948(7) -0.0283(12) 0.5462(8)
H5D H -0.2355 0.0172 0.5521
C10D C -0.3300(7) -0.1014(11) 0.6089(7)
H6D H -0.2930 -0.1036 0.6553
C11D C -0.4149(6) -0.1679(8) 0.6040(5)
H7D H -0.4373 -0.2150 0.6469
C12D C -0.4691(5) -0.1645(7) 0.5322(4)
O1B O -0.2180(4) 0.3573(3) 0.1827(3)
N1B N 0.1092(6) 0.5056(4) 0.0895(3)
N2B N 0.2253(6) 0.5580(4) -0.0105(3)
C1B C -0.1806(4) 0.4097(3) 0.2500
C2B C -0.0806(4) 0.4597(3) 0.2500
C3B C -0.0327(6) 0.4593(4) 0.1698(3)
H1B H -0.0631 0.4281 0.1157
C4B C 0.0579(7) 0.5045(5) 0.1715(4)
C5B C 0.1072(4) 0.5536(3) 0.2500
H2B H 0.1694 0.5847 0.2500
C6B C 0.1885(6) 0.5763(5) 0.0619(3)
H3B H 0.2145 0.6321 0.0910
C7B C 0.0923(7) 0.4347(5) 0.0289(4)
C8B C 0.0239(9) 0.3485(6) 0.0245(6)
H4B H -0.0237 0.3265 0.0668
C9B C 0.0283(12) 0.2948(7) -0.0462(8)
H5B H -0.0172 0.2355 -0.0521
C10B C 0.1014(11) 0.3300(7) -0.1089(7)
H6B H 0.1036 0.2930 -0.1553
C11B C 0.1679(8) 0.4149(6) -0.1040(5)
H7B H 0.2150 0.4373 -0.1469
C12B C 0.1645(7) 0.4691(5) -0.0322(4)
O1E O -0.2180(4) 0.4247(3) 0.3173(3)
N1E N 0.1092(6) 0.6036(4) 0.4105(3)
N2E N 0.2253(6) 0.6673(4) 0.5105(3)
C3E C -0.0327(6) 0.5080(4) 0.3302(3)
H1E H -0.0631 0.5088 0.3843
C4E C 0.0579(7) 0.5534(5) 0.3285(4)
C6E C 0.1885(6) 0.6122(4) 0.4381(3)
H3E H 0.2145 0.5824 0.4090
C7E C 0.0923(7) 0.6576(5) 0.4711(4)
C8E C 0.0239(9) 0.6754(7) 0.4755(6)
H4E H -0.0237 0.6498 0.4332
C9E C 0.0283(12) 0.7335(10) 0.5462(8)
H5E H -0.0172 0.7473 0.5521
C10E C 0.1014(11) 0.7714(9) 0.6089(7)
H6E H 0.1036 0.8106 0.6553
C11E C 0.1679(8) 0.7530(6) 0.6040(5)
H7E H 0.2150 0.7777 0.6469
C12E C 0.1645(7) 0.6954(5) 0.5322(4)
Mn1C Mn -0.3333 0.3333 0.39600(9)
Mn1F Mn -0.6667 -0.3333 -0.10400(9)
Mn1F_2 Mn -0.6667 0.6667 -0.10400(9)
Mn1F_3 Mn 0.3333 0.6667 -0.10400(9)
Mn1I Mn -0.6667 -0.3333 0.60400(9)
Mn1I_2 Mn -0.6667 0.6667 0.60400(9)
Mn1I_3 Mn 0.3333 0.6667 0.60400(9)
N2F N -0.4420(4) 0.3327(4) 0.0105(3)
N2G N -0.3327(4) 0.2253(6) 0.0105(3)
N2H N -0.2253(6) 0.4420(4) 0.0105(3)
N2I N -0.3327(4) 0.4420(4) 0.4895(3)
N2J N -0.4420(4) 0.2253(6) 0.4895(3)
N2K N -0.2253(6) 0.3327(4) 0.4895(3)
loop_
_geom_bond_atom_site_label_1
_geom_bond_atom_site_label_2
_geom_bond_site_symmetry_1
_geom_bond_site_symmetry_2
Mn1 O1 1_555 1_555
O1 C1 1_555 1_555
N1 C4 1_555 1_555
N2 C6 1_555 1_555
C1 C2 1_555 1_555
C2 C3 1_555 1_555
C3 H1 1_555 1_555
C4 C3 1_555 1_555
C5 C4 1_555 1_555
H2 C5 1_555 1_555
C6 N1 1_555 1_555
H3 C6 1_555 1_555
C7 N1 1_555 1_555
C8 C7 1_555 1_555
H4 C8 1_555 1_555
C9 C8 1_555 1_555
H5 C9 1_555 1_555
C10 C9 1_555 1_555
H6 C10 1_555 1_555
C11 C10 1_555 1_555
H7 C11 1_555 1_555
C12 N2 1_555 1_555
O1C C1 1_555 1_555
N1C C4C 1_555 1_555
N2C C6C 1_555 1_555
C3C C2 1_555 1_555
H1C C3C 1_555 1_555
C4C C5 1_555 1_555
C6C N1C 1_555 1_555
H3C C6C 1_555 1_555
C7C N1C 1_555 1_555
C8C C7C 1_555 1_555
H4C C8C 1_555 1_555
C9C C8C 1_555 1_555
H5C C9C 1_555 1_555
C10C C9C 1_555 1_555
H6C C10C 1_555 1_555
C11C C10C 1_555 1_555
H7C C11C 1_555 1_555
C12C N2C 1_555 1_555
O1A Mn1 1_555 1_555
N1A C4A 1_555 1_555
N2A C6A 1_555 1_555
C1A O1A 1_555 1_555
C2A C1A 1_555 1_555
C3A C2A 1_555 1_555
H1A C3A 1_555 1_555
C4A C3A 1_555 1_555
C5A C4A 1_555 1_555
H2A C5A 1_555 1_555
C6A N1A 1_555 1_555
H3A C6A 1_555 1_555
C7A N1A 1_555 1_555
C8A C7A 1_555 1_555
H4A C8A 1_555 1_555
C9A C8A 1_555 1_555
H5A C9A 1_555 1_555
C10A C9A 1_555 1_555
H6A C10A 1_555 1_555
C11A C10A 1_555 1_555
H7A C11A 1_555 1_555
C12A N2A 1_555 1_555
O1D C1A 1_555 1_555
N1D C4D 1_555 1_555
N2D C6D 1_555 1_555
C3D C2A 1_555 1_555
H1D C3D 1_555 1_555
C4D C5A 1_555 1_555
C6D N1D 1_555 1_555
H3D C6D 1_555 1_555
C7D N1D 1_555 1_555
C8D C7D 1_555 1_555
H4D C8D 1_555 1_555
C9D C8D 1_555 1_555
H5D C9D 1_555 1_555
C10D C9D 1_555 1_555
H6D C10D 1_555 1_555
C11D C10D 1_555 1_555
H7D C11D 1_555 1_555
C12D N2D 1_555 1_555
O1B Mn1 1_555 1_555
N1B C4B 1_555 1_555
N2B C6B 1_555 1_555
C1B O1B 1_555 1_555
C2B C1B 1_555 1_555
C3B C2B 1_555 1_555
H1B C3B 1_555 1_555
C4B C3B 1_555 1_555
C5B C4B 1_555 1_555
H2B C5B 1_555 1_555
C6B N1B 1_555 1_555
H3B C6B 1_555 1_555
C7B N1B 1_555 1_555
C8B C7B 1_555 1_555
H4B C8B 1_555 1_555
C9B C8B 1_555 1_555
H5B C9B 1_555 1_555
C10B C9B 1_555 1_555
H6B C10B 1_555 1_555
C11B C10B 1_555 1_555
H7B C11B 1_555 1_555
C12B N2B 1_555 1_555
O1E C1B 1_555 1_555
N1E C4E 1_555 1_555
N2E C6E 1_555 1_555
C3E C2B 1_555 1_555
H1E C3E 1_555 1_555
C4E C5B 1_555 1_555
C6E N1E 1_555 1_555
H3E C6E 1_555 1_555
C7E N1E 1_555 1_555
C8E C7E 1_555 1_555
H4E C8E 1_555 1_555
C9E C8E 1_555 1_555
H5E C9E 1_555 1_555
C10E C9E 1_555 1_555
H6E C10E 1_555 1_555
C11E C10E 1_555 1_555
H7E C11E 1_555 1_555
C12E N2E 1_555 1_555
Mn1C O1C 1_555 1_555
Mn1F N2A 1_555 1_555
Mn1F_2 N2 1_555 1_555
Mn1F_3 N2B 1_555 1_555
Mn1I N2D 1_555 1_555
Mn1I_2 N2C 1_555 1_555
Mn1I_3 N2E 1_555 1_555
N2F Mn1 1_555 1_555
N2G Mn1 1_555 1_555
N2H Mn1 1_555 1_555
N2I Mn1C 1_555 1_555
N2J Mn1C 1_555 1_555
N2K Mn1C 1_555 1_555
C7 C12 1_555 1_555
C11 C12 1_555 1_555
C3C C4C 1_555 1_555
C7C C12C 1_555 1_555
C11C C12C 1_555 1_555
C7A C12A 1_555 1_555
C11A C12A 1_555 1_555
O1D Mn1C 1_555 1_555
C3D C4D 1_555 1_555
C7D C12D 1_555 1_555
C11D C12D 1_555 1_555
C7B C12B 1_555 1_555
C11B C12B 1_555 1_555
O1E Mn1C 1_555 1_555
C3E C4E 1_555 1_555
C7E C12E 1_555 1_555
C11E C12E 1_555 1_555

#END
