
#######################################################################
#
#                 Cambridge Crystallographic Data Centre
#                                CCDC 
#
#######################################################################
#
# If this CIF has been generated from an entry in the Cambridge 
# Structural Database, then it will include bibliographic, chemical, 
# crystal, experimental, refinement or atomic coordinate data resulting 
# from the CCDC's data processing and validation procedures.
#
#######################################################################

data_YOYROV
_symmetry_cell_setting           triclinic
_symmetry_space_group_name_H-M   'P -1'
_symmetry_Int_Tables_number      2
_space_group_name_Hall           '-P 1'
loop_
_symmetry_equiv_pos_site_id
_symmetry_equiv_pos_as_xyz
1 x,y,z
2 -x,-y,-z
_cell_length_a                   8.991(2)
_cell_length_b                   11.589(3)
_cell_length_c                   13.497(4)
_cell_angle_alpha                92.145(6)
_cell_angle_beta                 101.517(6)
_cell_angle_gamma                97.816(6)
_cell_volume                     1362.2
loop_
_atom_site_label
_atom_site_type_symbol
_atom_site_fract_x
_atom_site_fract_y
_atom_site_fract_z
U1 U 0.38454(3) 0.364012(18) 0.835662(15)
O1 O 0.2473(5) 0.3581(4) 0.9127(3)
O2 O 0.5249(5) 0.3749(3) 0.7607(3)
O3 O 0.4352(5) 0.5706(3) 0.8677(3)
O4 O 0.4014(4) 0.6094(3) 1.0234(3)
O5 O 0.5468(5) 0.8151(3) 1.1092(3)
O6 O 0.3434(5) 0.8892(4) 1.1416(3)
O7 O -0.2286(5) 0.7835(3) 0.2765(3)
O8 O 0.0192(6) 0.8384(5) 0.2844(4)
O9 O -0.2219(5) 0.5536(3) 0.2903(3)
O10 O -0.3275(7) 0.4877(5) 0.4167(4)
O11 O 0.1946(5) 0.8745(4) 0.6614(3)
C1 C 0.4036(7) 0.6366(5) 0.9338(5)
C2 C 0.4178(7) 0.8479(5) 1.0826(4)
C3 C 0.3539(7) 0.7505(5) 0.9007(4)
C4 C 0.3485(6) 0.8428(5) 0.9703(4)
C5 C 0.2880(7) 0.9409(5) 0.9336(4)
H1 H 0.2846 1.0023 0.9791
C6 C 0.2323(7) 0.9494(5) 0.8302(4)
H2 H 0.1906 1.0149 0.8067
C7 C 0.2407(7) 0.8582(5) 0.7637(4)
C8 C 0.3019(7) 0.7599(5) 0.7984(4)
H3 H 0.3079 0.6999 0.7523
C9 C -0.0876(7) 0.7920(5) 0.3199(4)
C10 C -0.2359(8) 0.5558(5) 0.3836(5)
C11 C -0.0527(7) 0.7496(5) 0.4264(4)
C12 C 0.0540(7) 0.8220(5) 0.4979(4)
H4 H 0.1054 0.8899 0.4786
C13 C 0.0852(7) 0.7943(5) 0.5985(4)
C14 C 0.0084(7) 0.6965(5) 0.6300(4)
H5 H 0.0265 0.6801 0.6979
C15 C -0.0964(7) 0.6230(5) 0.5582(4)
H6 H -0.1477 0.5559 0.5789
C16 C -0.1283(7) 0.6457(5) 0.4556(4)
U1A U -0.38454(3) 0.635988(18) 0.164338(15)
U1A_2 U 0.61546(3) 0.635988(18) 1.164338(15)
O4A O 0.5986(4) 0.3906(3) 0.9766(3)
O5A O 0.4532(5) 0.1849(3) 0.8908(3)
O7A O 0.2286(5) 0.2165(3) 0.7235(3)
O9A O 0.2219(5) 0.4464(3) 0.7097(3)
O12 O 0.0745(11) 0.5507(9) 0.2428(10)
O13 O 0.9767(6) 0.1488(5) 0.9220(3)
O14 O 0.0922(11) 0.5883(9) 0.0489(10)
C17 C 0.4798(7) 0.2348(5) 0.4725(5)
C18 C 0.6168(7) 0.2718(6) 0.5404(5)
H7 H 0.6881 0.3296 0.5234
C19 C 0.6482(8) 0.2242(6) 0.6322(5)
H8 H 0.7407 0.2491 0.6773
C20 C 0.4133(9) 0.1034(6) 0.5943(5)
H9 H 0.3454 0.0452 0.6141
C21 C 0.3740(8) 0.1474(6) 0.5008(5)
H10 H 0.2804 0.1204 0.4576
C22 C 0.3422(7) 0.2611(5) 0.2967(5)
C23 C 0.2737(9) 0.1470(6) 0.2635(5)
H11 H 0.2928 0.0853 0.3039
C24 C 0.1784(9) 0.1285(6) 0.1707(6)
H12 H 0.1335 0.0525 0.1479
C25 C 0.2080(8) 0.3245(7) 0.1413(5)
H13 H 0.1844 0.3839 0.0991
C26 C 0.3051(8) 0.3506(6) 0.2337(5)
H14 H 0.3463 0.4277 0.2545
N1 N 0.4490(6) 0.2917(5) 0.3849(4)
H15 H 0.5063 0.3576 0.3854
N2 N 0.5454(7) 0.1420(5) 0.6565(4)
H16 H 0.5657 0.1131 0.7146
N3 N 0.1473(7) 0.2141(6) 0.1116(4)
H17 H 0.0870 0.1984 0.0532
loop_
_geom_bond_atom_site_label_1
_geom_bond_atom_site_label_2
_geom_bond_site_symmetry_1
_geom_bond_site_symmetry_2
U1 O1 1_555 1_555
O2 U1 1_555 1_555
O3 U1 1_555 1_555
O4 C1 1_555 1_555
O5 C2 1_555 1_555
O6 C2 1_555 1_555
O7 C9 1_555 1_555
O8 C9 1_555 1_555
O9 C10 1_555 1_555
O10 C10 1_555 1_555
O11 C7 1_555 1_555
C1 O3 1_555 1_555
C2 C4 1_555 1_555
C3 C1 1_555 1_555
C4 C3 1_555 1_555
C5 C4 1_555 1_555
H1 C5 1_555 1_555
C6 C5 1_555 1_555
H2 C6 1_555 1_555
C7 C6 1_555 1_555
C8 C3 1_555 1_555
H3 C8 1_555 1_555
C9 C11 1_555 1_555
C10 C16 1_555 1_555
C11 C12 1_555 1_555
C12 H4 1_555 1_555
C13 O11 1_555 1_555
C14 C13 1_555 1_555
H5 C14 1_555 1_555
C15 C14 1_555 1_555
H6 C15 1_555 1_555
C16 C11 1_555 1_555
C17 C18 1_555 1_555
C18 H7 1_555 1_555
C19 C18 1_555 1_555
H8 C19 1_555 1_555
C20 H9 1_555 1_555
C21 C17 1_555 1_555
H10 C21 1_555 1_555
C22 C23 1_555 1_555
C23 H11 1_555 1_555
C24 C23 1_555 1_555
H12 C24 1_555 1_555
C25 H13 1_555 1_555
C26 C22 1_555 1_555
H14 C26 1_555 1_555
N1 C17 1_555 1_555
H15 N1 1_555 1_555
N2 C19 1_555 1_555
H16 N2 1_555 1_555
N3 C24 1_555 1_555
H17 N3 1_555 1_555
U1A O7 1_555 1_555
U1A_2 O4 1_555 1_555
O4A U1 1_555 1_555
O5A U1 1_555 1_555
O7A U1 1_555 1_555
O9A U1 1_555 1_555
O5 U1A_2 1_555 1_555
O9 U1A 1_555 1_555
C7 C8 1_555 1_555
C12 C13 1_555 1_555
C15 C16 1_555 1_555
C20 C21 1_555 1_555
C20 N2 1_555 1_555
C22 N1 1_555 1_555
C25 C26 1_555 1_555
C25 N3 1_555 1_555

#END
