
#######################################################################
#
#                 Cambridge Crystallographic Data Centre
#                                CCDC 
#
#######################################################################
#
# If this CIF has been generated from an entry in the Cambridge 
# Structural Database, then it will include bibliographic, chemical, 
# crystal, experimental, refinement or atomic coordinate data resulting 
# from the CCDC's data processing and validation procedures.
#
#######################################################################

data_YOYRUB
_symmetry_cell_setting           monoclinic
_symmetry_space_group_name_H-M   'P 21/n'
_symmetry_Int_Tables_number      14
_space_group_name_Hall           '-P 2yn'
loop_
_symmetry_equiv_pos_site_id
_symmetry_equiv_pos_as_xyz
1 x,y,z
2 1/2-x,1/2+y,1/2-z
3 -x,-y,-z
4 1/2+x,1/2-y,1/2+z
_cell_length_a                   12.3655(9)
_cell_length_b                   16.4911(12)
_cell_length_c                   14.7331(10)
_cell_angle_alpha                90
_cell_angle_beta                 114.511(2)
_cell_angle_gamma                90
_cell_volume                     2733.63
loop_
_atom_site_label
_atom_site_type_symbol
_atom_site_fract_x
_atom_site_fract_y
_atom_site_fract_z
U1 U 0.55751(3) 0.093641(15) -0.339783(19)
O1 O 0.4425(5) 0.1648(3) -0.3605(3)
O2 O 0.6706(5) 0.0222(3) -0.3213(4)
O3 O 0.6796(5) 0.1540(3) -0.1848(3)
O4 O 0.8170(5) 0.0769(4) -0.0715(4)
O5 O 0.5244(4) 0.0319(3) -0.2117(3)
O6 O 0.3610(5) 0.0491(3) -0.1874(4)
O7 O 0.5875(4) 0.0099(3) 0.4148(3)
O8 O 0.5099(4) 0.0987(3) 0.4848(3)
O9 O 0.5768(6) 0.3030(3) 0.5509(4)
O10 O 0.6749(4) 0.1908(3) 0.6221(3)
O11 O 0.7464(5) 0.1885(3) 0.2194(4)
C1 C 0.7246(8) 0.1165(4) -0.1018(5)
C2 C 0.4663(7) 0.0582(4) -0.1614(5)
C3 C 0.6600(7) 0.1216(4) -0.0349(5)
C4 C 0.5400(7) 0.0991(4) -0.0642(5)
C5 C 0.4908(7) 0.1096(4) 0.0048(5)
H1 H 0.4113 0.0964 -0.0139
C6 C 0.5556(7) 0.1387(4) 0.0993(5)
H2 H 0.5208 0.1443 0.1441
C7 C 0.6719(7) 0.1592(4) 0.1266(5)
C8 C 0.7240(7) 0.1508(4) 0.0603(5)
H3 H 0.8033 0.1652 0.0801
C9 C 0.6327(7) 0.2412(4) 0.5494(5)
C10 C 0.5742(6) 0.0801(4) 0.4417(5)
C11 C 0.6545(7) 0.2240(4) 0.4591(5)
C12 C 0.6337(7) 0.1477(4) 0.4109(5)
C13 C 0.6625(6) 0.1356(4) 0.3304(5)
H4 H 0.6510 0.0850 0.3001
C14 C 0.7082(7) 0.1983(4) 0.2952(5)
C15 C 0.7278(7) 0.2733(5) 0.3407(5)
H5 H 0.7585 0.3155 0.3166
C16 C 0.7019(7) 0.2856(4) 0.4221(5)
H6 H 0.7164 0.3361 0.4530
U1_2 U 0.55751(3) 0.093641(15) 0.660217(19)
U1B U 0.44249(3) -0.093641(15) 0.339783(19)
O7B O 0.4125(4) -0.0099(3) -0.4148(3)
O8_2 O 0.5099(4) 0.0987(3) -0.5152(3)
O10_2 O 0.6749(4) 0.1908(3) -0.3779(3)
O12 O 0.6810(10) 0.8962(6) 0.8606(9)
N1 N 0.6013(8) 0.3289(4) -0.2592(6)
H7 H 0.5709 0.3170 -0.3216
N2 N 0.6149(7) 0.3550(4) -0.1134(5)
N3 N 0.5236(6) 0.4271(4) 0.2194(5)
N4 N 0.4461(6) 0.4335(4) 0.3263(5)
H8 H 0.3988 0.4264 0.3551
C17 C 0.7152(12) 0.3467(7) -0.2050(9)
H9 H 0.7751 0.3476 -0.2276
C18 C 0.7282(10) 0.3633(7) -0.1111(8)
H10 H 0.7979 0.3773 -0.0566
C19 C 0.5432(9) 0.3323(5) -0.2029(6)
H11 H 0.4630 0.3203 -0.2234
C20 C 0.5097(9) 0.3290(5) -0.0103(7)
H12 H 0.4715 0.2856 -0.0514
C21 C 0.5881(8) 0.3732(4) -0.0295(6)
C22 C 0.6494(8) 0.4329(6) 0.0334(6)
H13 H 0.7089 0.4604 0.0229
C23 C 0.6239(8) 0.4531(6) 0.1135(7)
H14 H 0.6617 0.4967 0.1543
C24 C 0.5425(7) 0.4082(5) 0.1319(6)
C25 C 0.4848(9) 0.3479(5) 0.0713(7)
H15 H 0.4281 0.3183 0.0834
C26 C 0.4283(8) 0.4059(5) 0.2363(6)
H16 H 0.3622 0.3773 0.1930
C27 C 0.5984(8) 0.4704(5) 0.3007(6)
H17 H 0.6707 0.4930 0.3087
C28 C 0.5506(7) 0.4744(5) 0.3655(5)
H18 H 0.5827 0.5005 0.4269
loop_
_geom_bond_atom_site_label_1
_geom_bond_atom_site_label_2
_geom_bond_site_symmetry_1
_geom_bond_site_symmetry_2
U1 O1 1_555 1_555
O2 U1 1_555 1_555
O3 U1 1_555 1_555
O4 C1 1_555 1_555
O5 U1 1_555 1_555
O6 C2 1_555 1_555
O7 C10 1_555 1_555
O8 C10 1_555 1_555
O9 C9 1_555 1_555
O10 C9 1_555 1_555
O11 C7 1_555 1_555
C1 O3 1_555 1_555
C2 O5 1_555 1_555
C3 C1 1_555 1_555
C4 C2 1_555 1_555
C5 C4 1_555 1_555
H1 C5 1_555 1_555
C6 C5 1_555 1_555
H2 C6 1_555 1_555
C7 C6 1_555 1_555
C8 C3 1_555 1_555
H3 C8 1_555 1_555
C9 C11 1_555 1_555
C10 C12 1_555 1_555
C11 C12 1_555 1_555
C12 C13 1_555 1_555
C13 H4 1_555 1_555
C14 O11 1_555 1_555
C15 C14 1_555 1_555
H5 C15 1_555 1_555
C16 C11 1_555 1_555
H6 C16 1_555 1_555
N1 H7 1_555 1_555
N2 C18 1_555 1_555
N3 C24 1_555 1_555
N4 H8 1_555 1_555
C17 N1 1_555 1_555
H9 C17 1_555 1_555
C18 C17 1_555 1_555
H10 C18 1_555 1_555
C19 N1 1_555 1_555
H11 C19 1_555 1_555
C20 H12 1_555 1_555
C21 N2 1_555 1_555
C22 C21 1_555 1_555
H13 C22 1_555 1_555
C23 C22 1_555 1_555
H14 C23 1_555 1_555
C24 C23 1_555 1_555
C25 C20 1_555 1_555
H15 C25 1_555 1_555
C26 N3 1_555 1_555
H16 C26 1_555 1_555
C27 N3 1_555 1_555
H17 C27 1_555 1_555
C28 N4 1_555 1_555
H18 C28 1_555 1_555
U1_2 O8 1_555 1_555
U1B O7 1_555 1_555
O7B U1 1_555 1_555
O8_2 U1 1_555 1_555
O10_2 U1 1_555 1_555
O10 U1_2 1_555 1_555
C3 C4 1_555 1_555
C7 C8 1_555 1_555
C13 C14 1_555 1_555
C15 C16 1_555 1_555
N2 C19 1_555 1_555
N4 C26 1_555 1_555
C20 C21 1_555 1_555
C24 C25 1_555 1_555
C27 C28 1_555 1_555

#END
