
#######################################################################
#
#                 Cambridge Crystallographic Data Centre
#                                CCDC 
#
#######################################################################
#
# If this CIF has been generated from an entry in the Cambridge 
# Structural Database, then it will include bibliographic, chemical, 
# crystal, experimental, refinement or atomic coordinate data resulting 
# from the CCDC's data processing and validation procedures.
#
#######################################################################

data_YOYRIP
_symmetry_cell_setting           trigonal
_symmetry_space_group_name_H-M   'P -3 1 c'
_symmetry_Int_Tables_number      163
_space_group_name_Hall           "-P 3 2'c"
loop_
_symmetry_equiv_pos_site_id
_symmetry_equiv_pos_as_xyz
1 x,y,z
2 -y,x-y,z
3 -x+y,-x,z
4 -y,-x,1/2-z
5 x,x-y,1/2-z
6 -x+y,y,1/2-z
7 -x,-y,-z
8 y,-x+y,-z
9 x-y,x,-z
10 y,x,1/2+z
11 -x,-x+y,1/2+z
12 x-y,-y,1/2+z
_cell_length_a                   17.203(5)
_cell_length_b                   17.203(5)
_cell_length_c                   14.045(5)
_cell_angle_alpha                90
_cell_angle_beta                 90
_cell_angle_gamma                120
_cell_volume                     3599.65
loop_
_atom_site_label
_atom_site_type_symbol
_atom_site_fract_x
_atom_site_fract_y
_atom_site_fract_z
O2 O 0.018(4) 0.0761(16) 0.4468(15)
N3 N 0.0000 0.0000 0.5000
O2A O -0.0761(16) -0.0581(43) 0.4468(15)
O2B O 0.0581(43) -0.018(4) 0.4468(15)
O2F O -0.018(4) -0.0761(16) 0.5532(15)
O2G O 0.0761(16) 0.0581(43) 0.5532(15)
O2H O -0.0581(43) 0.018(4) 0.5532(15)
O3 O 0.2422(2) 0.4845(4) 0.2500
C13 C 0.2015(3) 0.4029(6) 0.2500
C14 C 0.2291(5) 0.3511(4) 0.3113(5)
H8 H 0.2813 0.3917 0.3471
H9 H 0.2427 0.3136 0.2723
H10 H 0.1811 0.3144 0.3542
C14E C 0.1220(6) 0.3511(4) 0.1887(5)
H8E H 0.1104 0.3917 0.1529
H9E H 0.0709 0.3136 0.2277
H10E H 0.1333 0.3144 0.1458
Mn1 Mn -0.3333 0.3333 0.10599(7)
O1 O -0.21658(18) 0.42654(18) 0.18241(19)
N1 N 0.1114(2) 0.5026(2) 0.4081(2)
N2 N 0.2268(2) 0.5568(2) 0.5112(2)
C1 C -0.1791(4) 0.41044(19) 0.2500
C2 C -0.0779(4) 0.46105(19) 0.2500
C3 C -0.0310(3) 0.4577(3) 0.3295(3)
H1 H -0.0620 0.4244 0.3828
C4 C 0.0618(3) 0.5041(3) 0.3286(3)
C5 C 0.1085(4) 0.5542(2) 0.2500
H2 H 0.1709 0.5854 0.2500
C6 C 0.1880(3) 0.5755(3) 0.4413(3)
H3 H 0.2105 0.6330 0.4167
C7 C 0.0999(3) 0.4290(3) 0.4618(3)
C8 C 0.0373(3) 0.3377(3) 0.4572(3)
H4 H -0.0098 0.3149 0.4138
C9 C 0.0487(3) 0.2825(3) 0.5203(4)
H5 H 0.0085 0.2210 0.5189
C10 C 0.1189(3) 0.3169(3) 0.5860(4)
H6 H 0.1235 0.2779 0.6285
C11 C 0.1821(3) 0.4076(3) 0.5898(3)
H7 H 0.2290 0.4299 0.6334
C12 C 0.1724(3) 0.4642(3) 0.5256(3)
O1D O -0.21658(18) 0.35688(25) 0.31759(19)
N1D N 0.1114(2) 0.6088(3) 0.0919(2)
N2D N 0.2268(2) 0.6700(3) -0.0112(2)
C3D C -0.0310(3) 0.5113(4) 0.1705(3)
H1D H -0.0620 0.5136 0.1172
C4D C 0.0618(3) 0.5577(4) 0.1714(3)
C6D C 0.1880(3) 0.6125(4) 0.0587(3)
H3D H 0.2105 0.5775 0.0833
C7D C 0.0999(3) 0.6709(4) 0.0382(3)
C8D C 0.0373(3) 0.6996(4) 0.0428(3)
H4D H -0.0098 0.6753 0.0862
C9D C 0.0487(3) 0.7662(4) -0.0203(4)
H5D H 0.0085 0.7875 -0.0189
C10D C 0.1189(3) 0.8020(4) -0.0860(4)
H6D H 0.1235 0.8456 -0.1285
C11D C 0.1821(3) 0.7745(4) -0.0898(3)
H7D H 0.2290 0.7991 -0.1334
C12D C 0.1724(3) 0.7082(4) -0.0256(3)
O1A O -0.42654(18) 0.35688(25) 0.18241(19)
N1A N -0.5026(2) 0.6088(3) 0.4081(2)
N2A N -0.5568(2) 0.6700(3) 0.5112(2)
C1A C -0.41044(19) 0.41046(44) 0.2500
C2A C -0.46105(19) 0.46105(44) 0.2500
C3A C -0.4577(3) 0.5113(4) 0.3295(3)
H1A H -0.4244 0.5136 0.3828
C4A C -0.5041(3) 0.5577(4) 0.3286(3)
C5A C -0.5542(2) 0.5543(4) 0.2500
H2A H -0.5854 0.5855 0.2500
C6A C -0.5755(3) 0.6125(4) 0.4413(3)
H3A H -0.6330 0.5775 0.4167
C7A C -0.4290(3) 0.6709(4) 0.4618(3)
C8A C -0.3377(3) 0.6996(4) 0.4572(3)
H4A H -0.3149 0.6753 0.4138
C9A C -0.2825(3) 0.7662(4) 0.5203(4)
H5A H -0.2210 0.7875 0.5189
C10A C -0.3169(3) 0.8020(4) 0.5860(4)
H6A H -0.2779 0.8456 0.6285
C11A C -0.4076(3) 0.7745(4) 0.5898(3)
H7A H -0.4299 0.7991 0.6334
C12A C -0.4642(3) 0.7082(4) 0.5256(3)
O1E O -0.35688(25) 0.42654(18) 0.31759(19)
N1E N -0.6088(3) 0.5026(2) 0.0919(2)
N2E N -0.6700(3) 0.5568(2) -0.0112(2)
C3E C -0.5113(4) 0.4577(3) 0.1705(3)
H1E H -0.5136 0.4244 0.1172
C4E C -0.5577(4) 0.5041(3) 0.1714(3)
C6E C -0.6125(4) 0.5755(3) 0.0587(3)
H3E H -0.5775 0.6330 0.0833
C7E C -0.6709(4) 0.4290(3) 0.0382(3)
C8E C -0.6996(4) 0.3377(3) 0.0428(3)
H4E H -0.6753 0.3149 0.0862
C9E C -0.7662(4) 0.2825(3) -0.0203(4)
H5E H -0.7875 0.2210 -0.0189
C10E C -0.8020(4) 0.3169(3) -0.0860(4)
H6E H -0.8456 0.2779 -0.1285
C11E C -0.7745(4) 0.4076(3) -0.0898(3)
H7E H -0.7991 0.4299 -0.1334
C12E C -0.7082(4) 0.4642(3) -0.0256(3)
O1B O -0.35688(25) 0.21658(18) 0.18241(19)
N1B N -0.6088(3) -0.1114(2) 0.4081(2)
N2B N -0.6700(3) -0.2268(2) 0.5112(2)
C1B C -0.41046(44) 0.1791(4) 0.2500
C2B C -0.46105(44) 0.0779(4) 0.2500
C3B C -0.5113(4) 0.0310(3) 0.3295(3)
H1B H -0.5136 0.0620 0.3828
C4B C -0.5577(4) -0.0618(3) 0.3286(3)
C5B C -0.5543(4) -0.1085(4) 0.2500
H2B H -0.5855 -0.1709 0.2500
C6B C -0.6125(4) -0.1880(3) 0.4413(3)
H3B H -0.5775 -0.2105 0.4167
C7B C -0.6709(4) -0.0999(3) 0.4618(3)
C8B C -0.6996(4) -0.0373(3) 0.4572(3)
H4B H -0.6753 0.0098 0.4138
C9B C -0.7662(4) -0.0487(3) 0.5203(4)
H5B H -0.7875 -0.0085 0.5189
C10B C -0.8020(4) -0.1189(3) 0.5860(4)
H6B H -0.8456 -0.1235 0.6285
C11B C -0.7745(4) -0.1821(3) 0.5898(3)
H7B H -0.7991 -0.2290 0.6334
C12B C -0.7082(4) -0.1724(3) 0.5256(3)
O1C O -0.42654(18) 0.21658(18) 0.31759(19)
N1C N -0.5026(2) -0.1114(2) 0.0919(2)
N2C N -0.5568(2) -0.2268(2) -0.0112(2)
C3C C -0.4577(3) 0.0310(3) 0.1705(3)
H1C H -0.4244 0.0620 0.1172
C4C C -0.5041(3) -0.0618(3) 0.1714(3)
C6C C -0.5755(3) -0.1880(3) 0.0587(3)
H3C H -0.6330 -0.2105 0.0833
C7C C -0.4290(3) -0.0999(3) 0.0382(3)
C8C C -0.3377(3) -0.0373(3) 0.0428(3)
H4C H -0.3149 0.0098 0.0862
C9C C -0.2825(3) -0.0487(3) -0.0203(4)
H5C H -0.2210 -0.0085 -0.0189
C10C C -0.3169(3) -0.1189(3) -0.0860(4)
H6C H -0.2779 -0.1235 -0.1285
C11C C -0.4076(3) -0.1821(3) -0.0898(3)
H7C H -0.4299 -0.2290 -0.1334
C12C C -0.4642(3) -0.1724(3) -0.0256(3)
Mn1C Mn -0.3333 0.3333 0.39401(7)
Mn1F Mn -0.6667 -0.3333 -0.10599(7)
Mn1F_2 Mn -0.6667 0.6667 -0.10599(7)
Mn1F_3 Mn 0.3333 0.6667 -0.10599(7)
Mn1I Mn -0.6667 -0.3333 0.60599(7)
Mn1I_2 Mn -0.6667 0.6667 0.60599(7)
Mn1I_3 Mn 0.3333 0.6667 0.60599(7)
N2F N -0.2268(2) 0.4432(2) 0.4888(2)
N2G N -0.4432(2) 0.3300(3) 0.4888(2)
N2H N -0.3300(3) 0.2268(2) 0.4888(2)
N2I N -0.4432(2) 0.2268(2) 0.0112(2)
N2J N -0.2268(2) 0.3300(3) 0.0112(2)
N2K N -0.3300(3) 0.4432(2) 0.0112(2)
loop_
_geom_bond_atom_site_label_1
_geom_bond_atom_site_label_2
_geom_bond_site_symmetry_1
_geom_bond_site_symmetry_2
Mn1 O1 1_555 1_555
O1 C1 1_555 1_555
N1 C4 1_555 1_555
N2 C6 1_555 1_555
C1 C2 1_555 1_555
C2 C3 1_555 1_555
C3 H1 1_555 1_555
C4 C3 1_555 1_555
C5 C4 1_555 1_555
H2 C5 1_555 1_555
C6 N1 1_555 1_555
H3 C6 1_555 1_555
C7 N1 1_555 1_555
C8 C7 1_555 1_555
H4 C8 1_555 1_555
C9 C8 1_555 1_555
H5 C9 1_555 1_555
C10 C9 1_555 1_555
H6 C10 1_555 1_555
C11 C10 1_555 1_555
H7 C11 1_555 1_555
C12 N2 1_555 1_555
O2 N3 1_555 1_555
N3 O2A 1_555 1_555
O3 C13 1_555 1_555
C13 C14 1_555 1_555
C14 H8 1_555 1_555
H9 C14 1_555 1_555
H10 C14 1_555 1_555
O1D C1 1_555 1_555
N1D C4D 1_555 1_555
N2D C6D 1_555 1_555
C3D C2 1_555 1_555
H1D C3D 1_555 1_555
C4D C5 1_555 1_555
C6D N1D 1_555 1_555
H3D C6D 1_555 1_555
C7D N1D 1_555 1_555
C8D C7D 1_555 1_555
H4D C8D 1_555 1_555
C9D C8D 1_555 1_555
H5D C9D 1_555 1_555
C10D C9D 1_555 1_555
H6D C10D 1_555 1_555
C11D C10D 1_555 1_555
H7D C11D 1_555 1_555
C12D N2D 1_555 1_555
O1A Mn1 1_555 1_555
N1A C4A 1_555 1_555
N2A C6A 1_555 1_555
C1A O1A 1_555 1_555
C2A C1A 1_555 1_555
C3A C2A 1_555 1_555
H1A C3A 1_555 1_555
C4A C3A 1_555 1_555
C5A C4A 1_555 1_555
H2A C5A 1_555 1_555
C6A N1A 1_555 1_555
H3A C6A 1_555 1_555
C7A N1A 1_555 1_555
C8A C7A 1_555 1_555
H4A C8A 1_555 1_555
C9A C8A 1_555 1_555
H5A C9A 1_555 1_555
C10A C9A 1_555 1_555
H6A C10A 1_555 1_555
C11A C10A 1_555 1_555
H7A C11A 1_555 1_555
C12A N2A 1_555 1_555
O1E C1A 1_555 1_555
N1E C4E 1_555 1_555
N2E C6E 1_555 1_555
C3E C2A 1_555 1_555
H1E C3E 1_555 1_555
C4E C5A 1_555 1_555
C6E N1E 1_555 1_555
H3E C6E 1_555 1_555
C7E N1E 1_555 1_555
C8E C7E 1_555 1_555
H4E C8E 1_555 1_555
C9E C8E 1_555 1_555
H5E C9E 1_555 1_555
C10E C9E 1_555 1_555
H6E C10E 1_555 1_555
C11E C10E 1_555 1_555
H7E C11E 1_555 1_555
C12E N2E 1_555 1_555
O1B Mn1 1_555 1_555
N1B C4B 1_555 1_555
N2B C6B 1_555 1_555
C1B O1B 1_555 1_555
C2B C1B 1_555 1_555
C3B C2B 1_555 1_555
H1B C3B 1_555 1_555
C4B C3B 1_555 1_555
C5B C4B 1_555 1_555
H2B C5B 1_555 1_555
C6B N1B 1_555 1_555
H3B C6B 1_555 1_555
C7B N1B 1_555 1_555
C8B C7B 1_555 1_555
H4B C8B 1_555 1_555
C9B C8B 1_555 1_555
H5B C9B 1_555 1_555
C10B C9B 1_555 1_555
H6B C10B 1_555 1_555
C11B C10B 1_555 1_555
H7B C11B 1_555 1_555
C12B N2B 1_555 1_555
O1C C1B 1_555 1_555
N1C C4C 1_555 1_555
N2C C6C 1_555 1_555
C3C C2B 1_555 1_555
H1C C3C 1_555 1_555
C4C C5B 1_555 1_555
C6C N1C 1_555 1_555
H3C C6C 1_555 1_555
C7C N1C 1_555 1_555
C8C C7C 1_555 1_555
H4C C8C 1_555 1_555
C9C C8C 1_555 1_555
H5C C9C 1_555 1_555
C10C C9C 1_555 1_555
H6C C10C 1_555 1_555
C11C C10C 1_555 1_555
H7C C11C 1_555 1_555
C12C N2C 1_555 1_555
Mn1C O1D 1_555 1_555
Mn1F N2C 1_555 1_555
Mn1F_2 N2E 1_555 1_555
Mn1F_3 N2D 1_555 1_555
Mn1I N2B 1_555 1_555
Mn1I_2 N2A 1_555 1_555
Mn1I_3 N2 1_555 1_555
N2F Mn1C 1_555 1_555
N2G Mn1C 1_555 1_555
N2H Mn1C 1_555 1_555
N2I Mn1 1_555 1_555
N2J Mn1 1_555 1_555
N2K Mn1 1_555 1_555
O2B N3 1_555 1_555
O2F N3 1_555 1_555
O2G N3 1_555 1_555
O2H N3 1_555 1_555
C14E C13 1_555 1_555
H8E C14E 1_555 1_555
H9E C14E 1_555 1_555
H10E C14E 1_555 1_555
C7 C12 1_555 1_555
C11 C12 1_555 1_555
C3D C4D 1_555 1_555
C7D C12D 1_555 1_555
C11D C12D 1_555 1_555
C7A C12A 1_555 1_555
C11A C12A 1_555 1_555
O1E Mn1C 1_555 1_555
C3E C4E 1_555 1_555
C7E C12E 1_555 1_555
C11E C12E 1_555 1_555
C7B C12B 1_555 1_555
C11B C12B 1_555 1_555
O1C Mn1C 1_555 1_555
C3C C4C 1_555 1_555
C7C C12C 1_555 1_555
C11C C12C 1_555 1_555

#END
