
#######################################################################
#
#                 Cambridge Crystallographic Data Centre
#                                CCDC 
#
#######################################################################
#
# If this CIF has been generated from an entry in the Cambridge 
# Structural Database, then it will include bibliographic, chemical, 
# crystal, experimental, refinement or atomic coordinate data resulting 
# from the CCDC's data processing and validation procedures.
#
#######################################################################

data_YOYSIQ
_symmetry_cell_setting           monoclinic
_symmetry_space_group_name_H-M   'P 21/n'
_symmetry_Int_Tables_number      14
_space_group_name_Hall           '-P 2yn'
loop_
_symmetry_equiv_pos_site_id
_symmetry_equiv_pos_as_xyz
1 x,y,z
2 1/2-x,1/2+y,1/2-z
3 -x,-y,-z
4 1/2+x,1/2-y,1/2+z
_cell_length_a                   15.8932(12)
_cell_length_b                   9.6528(7)
_cell_length_c                   20.5316(16)
_cell_angle_alpha                90
_cell_angle_beta                 99.859(2)
_cell_angle_gamma                90
_cell_volume                     3103.32
loop_
_atom_site_label
_atom_site_type_symbol
_atom_site_fract_x
_atom_site_fract_y
_atom_site_fract_z
U1 U 0.39875(2) 0.45891(4) 0.134883(17)
U2 U 0.60225(2) 0.53412(4) 0.056478(17)
O1 O 0.4638(4) 0.4829(6) 0.0498(3)
O2 O 0.5775(4) 0.7126(6) 0.0566(3)
O3 O 0.6356(4) 0.3610(6) 0.0612(3)
O4 O 0.3801(4) 0.6378(7) 0.1374(3)
O5 O 0.4145(4) 0.2769(7) 0.1344(3)
O6 O 0.2962(4) 0.4529(8) 0.0312(3)
O7 O 0.2425(4) 0.3927(8) -0.0673(3)
O8 O 0.2602(4) 0.4102(7) 0.1538(3)
O9 O 0.1636(5) 0.5715(7) 0.1601(4)
O10 O -0.0945(4) 0.2958(7) 0.0491(3)
O11 O -0.0121(4) -0.1737(7) 0.1779(4)
O12 O 0.0745(4) -0.0446(7) 0.2477(3)
O13 O -0.0512(4) -0.0113(7) 0.3282(3)
O14 O -0.1762(4) 0.0854(8) 0.3239(3)
C1 C 0.2336(6) 0.4075(10) -0.0082(5)
C2 C 0.1510(5) 0.3803(9) 0.0127(4)
C3 C 0.1300(6) 0.4082(9) 0.0757(5)
C4 C 0.0481(6) 0.3789(10) 0.0857(5)
H1 H 0.0334 0.3986 0.1267
C5 C -0.0115(5) 0.3226(9) 0.0379(5)
C6 C 0.0075(6) 0.2943(10) -0.0236(5)
H2 H -0.0331 0.2545 -0.0563
C7 C 0.0876(6) 0.3261(11) -0.0360(5)
H3 H 0.0999 0.3109 -0.0781
C8 C 0.1887(7) 0.4695(11) 0.1334(5)
C9 C -0.0988(6) 0.2319(10) 0.1103(5)
C10 C -0.1562(6) 0.2835(10) 0.1458(5)
H4 H -0.1901 0.3594 0.1308
C11 C -0.1627(5) 0.2205(10) 0.2047(4)
H5 H -0.2034 0.2518 0.2289
C12 C -0.1096(6) 0.1104(10) 0.2291(4)
C13 C -0.0522(5) 0.0572(10) 0.1907(5)
C14 C -0.0488(5) 0.1192(9) 0.1301(4)
H6 H -0.0126 0.0841 0.1030
C15 C -0.1148(6) 0.0584(10) 0.2964(4)
C16 C 0.0062(6) -0.0664(11) 0.2073(5)
U1A U 0.10125(2) -0.04109(4) 0.365117(17)
U2A U -0.10225(2) 0.03412(4) 0.443522(17)
U2B U 0.39775(2) 0.46588(4) -0.056478(17)
O1B O 0.5362(4) 0.5171(6) -0.0498(3)
O6B O 0.7038(4) 0.5471(8) -0.0312(3)
O7B O 0.7575(4) 0.6073(8) 0.0673(3)
O12A O 0.4255(4) 0.4554(7) 0.2523(3)
O13A O 0.5512(4) 0.4887(7) 0.1718(3)
O14A O 0.6762(4) 0.5854(8) 0.1761(3)
C17 C 0.8155(7) 0.1078(13) -0.1250(6)
H7 H 0.8581 0.1563 -0.1412
C18 C 0.7720(7) 0.1528(11) -0.0796(6)
H8 H 0.7797 0.2364 -0.0569
C19 C 0.7257(7) -0.0500(12) -0.1106(6)
H9 H 0.6950 -0.1325 -0.1138
C20 C 0.6468(7) 0.0583(12) -0.0308(6)
H10 H 0.6026 -0.0082 -0.0475
H11 H 0.6211 0.1497 -0.0346
C21 C 0.6786(7) 0.0282(12) 0.0412(6)
H12 H 0.7224 0.0948 0.0587
H13 H 0.7038 -0.0636 0.0458
C22 C 0.6055(6) 0.0363(11) 0.0799(6)
H14 H 0.5822 0.1294 0.0767
H15 H 0.5606 -0.0268 0.0606
C23 C 0.6339(7) 0.0001(13) 0.1514(6)
H16 H 0.6608 -0.0904 0.1546
H17 H 0.6760 0.0671 0.1715
C24 C 0.5435(9) 0.0920(13) 0.2301(6)
H18 H 0.5752 0.1718 0.2420
C25 C 0.4481(7) -0.0657(13) 0.2233(6)
H19 H 0.4010 -0.1169 0.2307
C26 C 0.5004(7) -0.0979(12) 0.1825(6)
H20 H 0.4957 -0.1745 0.1547
N1 N 0.7874(6) -0.0212(10) -0.1438(5)
H21 H 0.8061 -0.0739 -0.1720
N2 N 0.4758(8) 0.0574(11) 0.2527(5)
H22 H 0.4523 0.1028 0.2809
N3 N 0.7138(5) 0.0528(10) -0.0728(5)
N4 N 0.5615(6) -0.0012(9) 0.1880(4)
O15 O 0.7905(6) 0.7850(8) 0.7588(4)
O16 O 0.6916(6) 0.2922(10) 0.3117(5)
loop_
_geom_bond_atom_site_label_1
_geom_bond_atom_site_label_2
_geom_bond_site_symmetry_1
_geom_bond_site_symmetry_2
U1 O1 1_555 1_555
U2 O1 1_555 1_555
O1 U2B 1_555 1_555
O2 U2 1_555 1_555
O3 U2 1_555 1_555
O4 U1 1_555 1_555
O5 U1 1_555 1_555
O6 U1 1_555 1_555
O7 C1 1_555 1_555
O8 U1 1_555 1_555
O9 C8 1_555 1_555
O10 C5 1_555 1_555
O11 C16 1_555 1_555
O12 C16 1_555 1_555
O13 C15 1_555 1_555
O14 C15 1_555 1_555
C1 O6 1_555 1_555
C2 C1 1_555 1_555
C3 C2 1_555 1_555
C4 C3 1_555 1_555
H1 C4 1_555 1_555
C5 C4 1_555 1_555
C6 C5 1_555 1_555
H2 C6 1_555 1_555
C7 C2 1_555 1_555
H3 C7 1_555 1_555
C8 O8 1_555 1_555
C9 O10 1_555 1_555
C10 C9 1_555 1_555
H4 C10 1_555 1_555
C11 C10 1_555 1_555
H5 C11 1_555 1_555
C12 C11 1_555 1_555
C13 C12 1_555 1_555
C14 C9 1_555 1_555
H6 C14 1_555 1_555
C15 C12 1_555 1_555
C16 C13 1_555 1_555
C17 H7 1_555 1_555
C18 C17 1_555 1_555
H8 C18 1_555 1_555
C19 H9 1_555 1_555
C20 H10 1_555 1_555
H11 C20 1_555 1_555
C21 C20 1_555 1_555
H12 C21 1_555 1_555
H13 C21 1_555 1_555
C22 C21 1_555 1_555
H14 C22 1_555 1_555
H15 C22 1_555 1_555
C23 C22 1_555 1_555
H16 C23 1_555 1_555
H17 C23 1_555 1_555
C24 H18 1_555 1_555
C25 H19 1_555 1_555
C26 C25 1_555 1_555
H20 C26 1_555 1_555
N1 C17 1_555 1_555
H21 N1 1_555 1_555
N2 C24 1_555 1_555
H22 N2 1_555 1_555
N3 C18 1_555 1_555
N4 C23 1_555 1_555
U1A O12 1_555 1_555
U2A O13 1_555 1_555
U2B O6 1_555 1_555
O1B U2 1_555 1_555
O6B U2 1_555 1_555
O7B U2 1_555 1_555
O12A U1 1_555 1_555
O13A U1 1_555 1_555
O14A U2 1_555 1_555
U2 O13A 1_555 1_555
O7 U2B 1_555 1_555
O13 U1A 1_555 1_555
O14 U2A 1_555 1_555
C3 C8 1_555 1_555
C6 C7 1_555 1_555
C13 C14 1_555 1_555
C19 N1 1_555 1_555
C19 N3 1_555 1_555
C20 N3 1_555 1_555
C24 N4 1_555 1_555
C25 N2 1_555 1_555
C26 N4 1_555 1_555
U2B O1B 1_555 1_555

#END
