
#######################################################################
#
#                 Cambridge Crystallographic Data Centre
#                                CCDC 
#
#######################################################################
#
# If this CIF has been generated from an entry in the Cambridge 
# Structural Database, then it will include bibliographic, chemical, 
# crystal, experimental, refinement or atomic coordinate data resulting 
# from the CCDC's data processing and validation procedures.
#
#######################################################################

data_YOYSOU
_symmetry_cell_setting           monoclinic
_symmetry_space_group_name_H-M   'P 21/n'
_symmetry_Int_Tables_number      14
_space_group_name_Hall           '-P 2yn'
loop_
_symmetry_equiv_pos_site_id
_symmetry_equiv_pos_as_xyz
1 x,y,z
2 1/2-x,1/2+y,1/2-z
3 -x,-y,-z
4 1/2+x,1/2-y,1/2+z
_cell_length_a                   25.696(5)
_cell_length_b                   9.651(2)
_cell_length_c                   9.464(2)
_cell_angle_alpha                90
_cell_angle_beta                 96.82(2)
_cell_angle_gamma                90
_cell_volume                     2330.39
loop_
_atom_site_label
_atom_site_type_symbol
_atom_site_fract_x
_atom_site_fract_y
_atom_site_fract_z
Tb1 Tb 0.06895(4) 0.04312(12) 0.09765(10)
S1 S 0.13899(18) -0.0334(7) -0.1212(5)
S2 S 0.09091(22) -0.2383(6) -0.6561(5)
O1 O 0.0221(5) -0.0420(17) -0.1154(12)
O2 O 0.0507(7) 0.2715(17) 0.0335(17)
O3 O 0.0617(6) -0.1564(16) -0.7679(14)
O4 O 0.1461(6) 0.1157(20) 0.2293(15)
O5 O 0.1245(6) 0.1047(16) -0.0874(14)
O6 O -0.0477(5) -0.1388(17) -0.3205(14)
O7 O 0.1299(5) -0.1194(16) 0.0018(13)
O8 O 0.1453(7) -0.2156(18) -0.6485(15)
O9 O 0.0741(7) -0.3808(18) -0.6673(15)
O10 O 0.1897(5) -0.0495(22) -0.1661(15)
N1 N 0.0562(8) 0.4588(25) -0.1070(21)
N2 N 0.2242(9) 0.166(3) 0.328(3)
C1 C 0.0022(7) -0.1329(20) -0.3454(19)
C2 C 0.0182(7) -0.1792(20) -0.4765(17)
C3 C 0.0714(9) -0.1752(20) -0.4929(20)
C4 C 0.1086(8) -0.1310(22) -0.3867(21)
C5 C 0.0931(7) -0.0868(20) -0.2561(19)
C6 C 0.0392(7) -0.0851(19) -0.2367(90)
C7 C 0.1813(10) 0.096(3) 0.317(3)
C8 C 0.2296(15) 0.294(5) 0.247(6)
C9 C 0.2708(16) 0.146(6) 0.423(6)
C10 C 0.0425(11) 0.330(3) -0.085(3)
C11 C 0.0419(13) 0.522(4) -0.246(3)
C12 C 0.0830(16) 0.538(4) 0.002(4)
O1B O -0.0221(5) 0.0420(17) 0.1154(12)
O3_2 O 0.0617(6) -0.1564(16) 0.2321(14)
O6B O 0.0477(5) 0.1388(17) 0.3205(14)
Tb1B Tb -0.06895(4) -0.04312(12) -0.09765(10)
Tb1_2 Tb 0.06895(4) 0.04312(12) -0.90235(10)
C6B C -0.0392(7) 0.0851(19) 0.2367(90)
C1B C -0.0022(7) 0.1329(20) 0.3454(19)
O2B O -0.0507(7) -0.2715(17) -0.0335(17)
O3B O -0.0617(6) 0.1564(16) -0.2321(14)
O4B O -0.1461(6) -0.1157(20) -0.2293(15)
O5B O -0.1245(6) -0.1047(16) 0.0874(14)
O7B O -0.1299(5) 0.1194(16) -0.0018(13)
C7B C -0.1813(10) -0.096(3) -0.317(3)
C10B C -0.0425(11) -0.330(3) 0.085(3)
S1B S -0.13899(18) 0.0334(7) 0.1212(5)
C5B C -0.0931(7) 0.0868(20) 0.2561(19)
C2B C -0.0182(7) 0.1792(20) 0.4765(17)
N2B N -0.2242(9) -0.166(3) -0.328(3)
N1B N -0.0562(8) -0.4588(25) 0.1070(21)
O10B O -0.1897(5) 0.0495(22) 0.1661(15)
C4B C -0.1086(8) 0.1310(22) 0.3867(21)
C3B C -0.0714(9) 0.1752(20) 0.4929(20)
C8B C -0.2296(15) -0.294(5) -0.247(6)
C9B C -0.2708(16) -0.146(6) -0.423(6)
C11B C -0.0419(13) -0.522(4) 0.246(3)
C12B C -0.0830(16) -0.538(4) -0.002(4)
S2B S -0.09091(22) 0.2383(6) 0.6561(5)
O3B_2 O -0.0617(6) 0.1564(16) 0.7679(14)
O8B O -0.1453(7) 0.2156(18) 0.6485(15)
O9B O -0.0741(7) 0.3808(18) 0.6673(15)
Tb1B_2 Tb -0.06895(4) -0.04312(12) 0.90235(10)
O11 O 0.6111(7) 0.2616(21) 0.0233(18)
N3 N 0.6677(8) 0.1008(23) 0.1086(23)
C13 C 0.6907(14) -0.039(4) 0.094(4)
C14 C 0.6885(12) 0.178(4) 0.227(3)
C15 C 0.6296(12) 0.145(4) 0.009(3)
loop_
_geom_bond_atom_site_label_1
_geom_bond_atom_site_label_2
_geom_bond_site_symmetry_1
_geom_bond_site_symmetry_2
Tb1 O1 1_555 1_555
S1 O5 1_555 1_555
S2 O3 1_555 1_555
O1 C6 1_555 1_555
O2 Tb1 1_555 1_555
O3 Tb1_2 1_555 1_555
O4 Tb1 1_555 1_555
O5 Tb1 1_555 1_555
O6 C1 1_555 1_555
O7 Tb1 1_555 1_555
O8 S2 1_555 1_555
O9 S2 1_555 1_555
O10 S1 1_555 1_555
N1 C10 1_555 1_555
N2 C7 1_555 1_555
C1 C2 1_555 1_555
C2 C3 1_555 1_555
C3 S2 1_555 1_555
C4 C3 1_555 1_555
C5 S1 1_555 1_555
C6 C1 1_555 1_555
C7 O4 1_555 1_555
C8 N2 1_555 1_555
C9 N2 1_555 1_555
C10 O2 1_555 1_555
C11 N1 1_555 1_555
C12 N1 1_555 1_555
O11 C15 1_555 1_555
N3 C13 1_555 1_555
C14 N3 1_555 1_555
C15 N3 1_555 1_555
O1B Tb1 1_555 1_555
O3_2 Tb1 1_555 1_555
O6B Tb1 1_555 1_555
Tb1B O1 1_555 1_555
C6B O1B 1_555 1_555
C1B O6B 1_555 1_555
O2B Tb1B 1_555 1_555
O3B Tb1B 1_555 1_555
O4B Tb1B 1_555 1_555
O5B Tb1B 1_555 1_555
O7B Tb1B 1_555 1_555
C7B O4B 1_555 1_555
C10B O2B 1_555 1_555
S1B O5B 1_555 1_555
C5B C6B 1_555 1_555
C2B C1B 1_555 1_555
N2B C7B 1_555 1_555
N1B C10B 1_555 1_555
O10B S1B 1_555 1_555
C4B C5B 1_555 1_555
C3B C2B 1_555 1_555
C8B N2B 1_555 1_555
C9B N2B 1_555 1_555
C11B N1B 1_555 1_555
C12B N1B 1_555 1_555
S2B C3B 1_555 1_555
O3B_2 S2B 1_555 1_555
O8B S2B 1_555 1_555
O9B S2B 1_555 1_555
Tb1B_2 O3B_2 1_555 1_555
S1 O7 1_555 1_555
O6 Tb1B 1_555 1_555
C4 C5 1_555 1_555
C5 C6 1_555 1_555
O1B Tb1B 1_555 1_555
C6B C1B 1_555 1_555
O7B S1B 1_555 1_555
S1B C5B 1_555 1_555
C4B C3B 1_555 1_555

#END
