
#######################################################################
#
#                 Cambridge Crystallographic Data Centre
#                                CCDC 
#
#######################################################################
#
# If this CIF has been generated from an entry in the Cambridge 
# Structural Database, then it will include bibliographic, chemical, 
# crystal, experimental, refinement or atomic coordinate data resulting 
# from the CCDC's data processing and validation procedures.
#
#######################################################################

data_YOYSAI
_symmetry_cell_setting           triclinic
_symmetry_space_group_name_H-M   'P -1'
_symmetry_Int_Tables_number      2
_space_group_name_Hall           '-P 1'
loop_
_symmetry_equiv_pos_site_id
_symmetry_equiv_pos_as_xyz
1 x,y,z
2 -x,-y,-z
_cell_length_a                   11.0082(7)
_cell_length_b                   11.9635(8)
_cell_length_c                   12.6607(8)
_cell_angle_alpha                87.1870(10)
_cell_angle_beta                 64.9680(10)
_cell_angle_gamma                71.5000(10)
_cell_volume                     1425.63
loop_
_atom_site_label
_atom_site_type_symbol
_atom_site_fract_x
_atom_site_fract_y
_atom_site_fract_z
U1 U 1.59701(3) -0.14090(2) 0.64404(2)
O1 O 1.5238(5) -0.2237(4) 0.5911(5)
O2 O 1.6725(5) -0.0589(4) 0.6943(5)
O3 O 1.4132(5) 0.0425(4) 0.6760(4)
O4 O 1.3316(5) 0.0673(4) 0.5405(4)
O5 O 0.9998(7) 0.1794(6) 0.5827(5)
O6 O 1.1654(5) 0.2604(5) 0.4842(4)
O7 O 0.8576(5) 0.4695(4) 0.9476(4)
O8 O 0.5902(6) 0.1311(4) 1.1707(5)
O9 O 0.5990(8) 0.1548(6) 0.9953(6)
O10 O 0.2543(5) 0.4856(5) 1.3304(5)
O11 O 0.3282(5) 0.2983(4) 1.2579(4)
C1 C 1.3254(7) 0.0971(6) 0.6368(6)
C2 C 1.2055(7) 0.2005(6) 0.7145(6)
C3 C 1.2015(8) 0.2357(7) 0.8186(6)
H1 H 1.2772 0.1983 0.8368
C4 C 1.0867(8) 0.3255(7) 0.8957(6)
H2 H 1.0862 0.3505 0.9644
C5 C 0.9727(7) 0.3778(6) 0.8700(6)
C6 C 0.9739(7) 0.3447(6) 0.7673(6)
H3 H 0.8963 0.3811 0.7510
C7 C 1.0907(7) 0.2569(6) 0.6878(6)
C8 C 1.0846(8) 0.2275(6) 0.5767(6)
C9 C 0.7334(7) 0.4466(6) 1.0190(6)
C10 C 0.6249(8) 0.5403(6) 1.0935(7)
H4 H 0.6345 0.6149 1.0922
C11 C 0.5007(8) 0.5219(6) 1.1705(7)
H5 H 0.4265 0.5850 1.2217
C12 C 0.4845(7) 0.4105(6) 1.1732(6)
C13 C 0.5942(7) 0.3167(6) 1.0947(6)
C14 C 0.7179(7) 0.3362(6) 1.0171(6)
H6 H 0.7911 0.2746 0.9632
C15 C 0.5898(8) 0.1935(7) 1.0866(7)
C16 C 0.3459(7) 0.4000(6) 1.2601(6)
U1A U 0.40299(3) 0.14090(2) 1.35596(2)
U1A_2 U 1.40299(3) 0.14090(2) 0.35596(2)
O4A O 1.6684(5) -0.0673(4) 0.4595(4)
O6A O 1.8346(5) -0.2604(5) 0.5158(4)
O8A O 1.4098(6) -0.1311(4) 0.8293(5)
O11A O 1.6718(5) -0.2983(4) 0.7421(4)
C17 C 1.0266(8) 0.3402(7) 0.2273(7)
H7 H 1.1000 0.2906 0.1622
C18 C 0.8935(9) 0.3949(8) 0.2418(7)
H8 H 0.8568 0.3899 0.1889
C19 C 0.9097(9) 0.4416(7) 0.3990(7)
H9 H 0.8875 0.4734 0.4730
C20 C 0.6705(8) 0.5320(7) 0.4036(8)
H10 H 0.6426 0.5668 0.3431
H11 H 0.6573 0.5961 0.4556
C21 C 0.5777(8) 0.4619(7) 0.4711(8)
H12 H 0.6065 0.4260 0.5308
H13 H 0.5895 0.3986 0.4188
N1 N 1.0343(7) 0.3706(6) 0.3249(6)
H14 H 1.1093 0.3471 0.3370
N2 N 0.8212(6) 0.4597(5) 0.3490(5)
C17A C -0.0266(8) 0.6598(7) 0.7727(7)
H7A H -0.1000 0.7094 0.8378
C18A C 0.1065(9) 0.6051(8) 0.7582(7)
H8A H 0.1432 0.6101 0.8111
C19A C 0.0903(9) 0.5584(7) 0.6010(7)
H9A H 0.1125 0.5266 0.5270
C20A C 0.3295(8) 0.4680(7) 0.5964(8)
H10A H 0.3574 0.4332 0.6569
H11A H 0.3427 0.4039 0.5444
C21A C 0.4223(8) 0.5381(7) 0.5289(8)
H12A H 0.3935 0.5740 0.4692
H13A H 0.4105 0.6014 0.5812
N1A N -0.0343(7) 0.6294(6) 0.6751(6)
H14A H -0.1093 0.6529 0.6630
N2A N 0.1788(6) 0.5403(5) 0.6510(5)
C22 C 0.1765(10) 0.8528(8) 0.5845(9)
H15 H 0.2579 0.8165 0.5169
C23 C 0.1727(10) 0.8836(9) 0.6845(9)
H16 H 0.2495 0.8713 0.7022
C24 C -0.0458(10) 0.9342(8) 0.7025(9)
H17 H -0.1443 0.9629 0.7336
C25 C -0.0265(15) 1.0049(14) 0.8704(12)
H18 H -0.0090 1.0801 0.8580
H19 H -0.1285 1.0216 0.9078
C26 C 0.0268(17) 0.9502(14) 0.9411(12)
H20 H 0.1296 0.9207 0.9005
H21 H -0.0065 0.8835 0.9678
N3 N 0.0317(8) 0.9378(8) 0.7571(7)
N4 N 0.0403(9) 0.8834(7) 0.5970(7)
H22 H 0.0155 0.8711 0.5439
C22A C -0.1765(10) 1.1472(8) 1.4155(9)
H15A H -0.2579 1.1835 1.4831
C23A C -0.1727(10) 1.1164(9) 1.3155(9)
H16A H -0.2495 1.1287 1.2978
C24A C 0.0458(10) 1.0658(8) 1.2975(9)
H17A H 0.1443 1.0371 1.2664
C25A C 0.0265(15) 0.9951(14) 1.1296(12)
H18A H 0.0090 0.9199 1.1420
H19A H 0.1285 0.9784 1.0922
C26A C -0.0268(17) 1.0498(14) 1.0589(12)
H20A H -0.1296 1.0793 1.0995
H21A H 0.0065 1.1165 1.0322
N3A N -0.0317(8) 1.0622(8) 1.2429(7)
N4A N -0.0403(9) 1.1166(7) 1.4030(7)
H22A H -0.0155 1.1289 1.4561
O12 O 0.6826(8) 0.8854(7) 0.9724(7)
O13 O 0.445(2) 0.7720(18) 0.3217(18)
O14 O 0.288(2) 0.8115(16) 0.2416(15)
loop_
_geom_bond_atom_site_label_1
_geom_bond_atom_site_label_2
_geom_bond_site_symmetry_1
_geom_bond_site_symmetry_2
U1 O1 1_555 1_555
O2 U1 1_555 1_555
O3 U1 1_555 1_555
O4 C1 1_555 1_555
O5 C8 1_555 1_555
O6 C8 1_555 1_555
O7 C5 1_555 1_555
O8 C15 1_555 1_555
O9 C15 1_555 1_555
O10 C16 1_555 1_555
O11 C16 1_555 1_555
C1 O3 1_555 1_555
C2 C1 1_555 1_555
C3 C2 1_555 1_555
H1 C3 1_555 1_555
C4 C3 1_555 1_555
H2 C4 1_555 1_555
C5 C4 1_555 1_555
C6 C5 1_555 1_555
H3 C6 1_555 1_555
C7 C2 1_555 1_555
C8 C7 1_555 1_555
C9 O7 1_555 1_555
C10 C9 1_555 1_555
H4 C10 1_555 1_555
C11 C10 1_555 1_555
H5 C11 1_555 1_555
C12 C11 1_555 1_555
C13 C12 1_555 1_555
C14 C9 1_555 1_555
H6 C14 1_555 1_555
C15 C13 1_555 1_555
C16 C12 1_555 1_555
C17 H7 1_555 1_555
C18 C17 1_555 1_555
H8 C18 1_555 1_555
C19 H9 1_555 1_555
C20 H10 1_555 1_555
H11 C20 1_555 1_555
C21 C20 1_555 1_555
H12 C21 1_555 1_555
H13 C21 1_555 1_555
N1 C17 1_555 1_555
H14 N1 1_555 1_555
N2 C18 1_555 1_555
C22 H15 1_555 1_555
C23 C22 1_555 1_555
H16 C23 1_555 1_555
C24 H17 1_555 1_555
C25 H18 1_555 1_555
H19 C25 1_555 1_555
C26 C25 1_555 1_555
H20 C26 1_555 1_555
H21 C26 1_555 1_555
N3 C23 1_555 1_555
N4 C22 1_555 1_555
H22 N4 1_555 1_555
U1A O8 1_555 1_555
U1A_2 O4 1_555 1_555
O4A U1 1_555 1_555
O6A U1 1_555 1_555
O8A U1 1_555 1_555
O11A U1 1_555 1_555
C17A H7A 1_555 1_555
C18A C17A 1_555 1_555
H8A C18A 1_555 1_555
C19A H9A 1_555 1_555
C20A H10A 1_555 1_555
H11A C20A 1_555 1_555
C21A C21 1_555 1_555
H12A C21A 1_555 1_555
H13A C21A 1_555 1_555
N1A C17A 1_555 1_555
H14A N1A 1_555 1_555
N2A C18A 1_555 1_555
C22A H15A 1_555 1_555
C23A C22A 1_555 1_555
H16A C23A 1_555 1_555
C24A H17A 1_555 1_555
C25A H18A 1_555 1_555
H19A C25A 1_555 1_555
C26A C26 1_555 1_555
H20A C26A 1_555 1_555
H21A C26A 1_555 1_555
N3A C23A 1_555 1_555
N4A C22A 1_555 1_555
H22A N4A 1_555 1_555
O6 U1A_2 1_555 1_555
O11 U1A 1_555 1_555
C6 C7 1_555 1_555
C13 C14 1_555 1_555
C19 N1 1_555 1_555
C19 N2 1_555 1_555
C20 N2 1_555 1_555
C24 N3 1_555 1_555
C24 N4 1_555 1_555
C25 N3 1_555 1_555
C19A N1A 1_555 1_555
C19A N2A 1_555 1_555
C20A C21A 1_555 1_555
C20A N2A 1_555 1_555
C24A N3A 1_555 1_555
C24A N4A 1_555 1_555
C25A C26A 1_555 1_555
C25A N3A 1_555 1_555

#END
