
#######################################################################
#
#                 Cambridge Crystallographic Data Centre
#                                CCDC 
#
#######################################################################
#
# If this CIF has been generated from an entry in the Cambridge 
# Structural Database, then it will include bibliographic, chemical, 
# crystal, experimental, refinement or atomic coordinate data resulting 
# from the CCDC's data processing and validation procedures.
#
#######################################################################

data_YOYSEM
_symmetry_cell_setting           monoclinic
_symmetry_space_group_name_H-M   'P 21/n'
_symmetry_Int_Tables_number      14
_space_group_name_Hall           '-P 2yn'
loop_
_symmetry_equiv_pos_site_id
_symmetry_equiv_pos_as_xyz
1 x,y,z
2 1/2-x,1/2+y,1/2-z
3 -x,-y,-z
4 1/2+x,1/2-y,1/2+z
_cell_length_a                   11.408(2)
_cell_length_b                   32.504(6)
_cell_length_c                   12.620(3)
_cell_angle_alpha                90
_cell_angle_beta                 93.819(4)
_cell_angle_gamma                90
_cell_volume                     4669.18
loop_
_atom_site_label
_atom_site_type_symbol
_atom_site_fract_x
_atom_site_fract_y
_atom_site_fract_z
U1 U 0.83792(2) 0.129492(8) 0.58008(2)
O1 O 0.8291(5) 0.07533(18) 0.5616(5)
O2 O 0.8553(5) 0.18296(17) 0.5994(5)
O3 O 0.8602(5) 0.13728(18) 0.3952(4)
O4 O 0.7702(6) 0.09944(19) 0.2671(5)
O5 O 0.6534(5) 0.13749(17) 0.4929(4)
O6 O 0.5155(5) 0.18450(19) 0.5047(5)
O7 O 0.9412(5) 0.11687(19) -0.2575(4)
O8 O 1.0868(6) 0.1402(3) -0.1496(7)
O9 O 0.6985(5) 0.12547(19) -0.2879(4)
O10 O 0.6888(7) 0.0929(2) -0.1354(5)
O11 O 0.6820(5) 0.23716(16) 0.0547(4)
N1 N 1.0506(5) 0.12841(19) 0.5321(5)
N2 N 1.2003(5) 0.11316(19) 0.4369(5)
N3 N 1.4961(6) 0.02158(19) 0.1875(5)
N4 N 1.5727(6) -0.0298(2) 0.1018(6)
C1 C 0.7821(7) 0.1312(3) 0.3207(6)
C2 C 0.5947(7) 0.1692(2) 0.4589(6)
C3 C 0.6260(6) 0.1865(2) 0.3538(6)
C4 C 0.7061(6) 0.1679(2) 0.2882(6)
C5 C 0.7242(6) 0.1843(2) 0.1883(6)
H1 H 0.7754 0.1712 0.1449
C6 C 0.6668(6) 0.2197(2) 0.1532(6)
C7 C 0.5861(7) 0.2386(2) 0.2153(7)
H2 H 0.5470 0.2623 0.1921
C8 C 0.5652(7) 0.2209(2) 0.3133(6)
H3 H 0.5083 0.2327 0.3533
C9 C 0.9828(7) 0.1394(3) -0.1799(7)
C10 C 0.7182(7) 0.1221(2) -0.1878(6)
C11 C 0.8980(7) 0.1656(2) -0.1245(6)
C12 C 0.7779(6) 0.1578(2) -0.1290(5)
C13 C 0.7064(7) 0.1833(2) -0.0693(6)
H4 H 0.6259 0.1785 -0.0713
C14 C 0.7530(7) 0.2145(2) -0.0092(6)
C15 C 0.8719(7) 0.2226(2) -0.0048(6)
H5 H 0.9032 0.2445 0.0351
C16 C 0.9439(7) 0.1974(2) -0.0611(6)
H6 H 1.0245 0.2019 -0.0563
C17 C 1.0955(6) 0.1010(2) 0.4706(6)
H7 H 1.0596 0.0761 0.4521
C18 C 1.1312(7) 0.1599(3) 0.5387(7)
H8 H 1.1227 0.1840 0.5769
C19 C 1.2234(7) 0.1512(3) 0.4831(7)
H9 H 1.2898 0.1673 0.4765
C20 C 1.2747(6) 0.0902(2) 0.3707(6)
C21 C 1.2276(7) 0.0597(3) 0.3005(7)
H10 H 1.1472 0.0546 0.2951
C22 C 1.3007(7) 0.0377(3) 0.2406(7)
H11 H 1.2699 0.0175 0.1946
C23 C 1.4201(6) 0.0452(2) 0.2478(6)
C24 C 1.4658(7) 0.0752(2) 0.3150(7)
H12 H 1.5462 0.0802 0.3194
C25 C 1.3934(7) 0.0982(2) 0.3768(6)
H13 H 1.4248 0.1187 0.4215
C26 C 1.4792(8) -0.0169(2) 0.1506(6)
H14 H 1.4116 -0.0324 0.1580
C27 C 1.6528(8) 0.0017(3) 0.1068(7)
H15 H 1.7256 0.0015 0.0777
C28 C 1.6080(8) 0.0330(3) 0.1611(7)
H16 H 1.6452 0.0579 0.1779
U1_2 U 0.83792(2) 0.129492(8) -0.41992(2)
O7_2 O 0.9412(5) 0.11687(19) 0.7425(4)
O9_2 O 0.6985(5) 0.12547(19) 0.7121(4)
N5 N 1.1052(6) 0.68955(19) 0.7073(5)
H17 H 1.1316 0.6649 0.7162
N6 N 1.0014(5) 0.74549(17) 0.7211(5)
N7 N 0.6123(7) 0.9000(2) 1.0017(6)
H18 H 0.6074 0.9204 1.0446
N8 N 0.6841(6) 0.8524(2) 0.9050(5)
C29 C 1.1409(7) 0.7177(2) 0.6358(6)
H19 H 1.1997 0.7134 0.5894
C30 C 1.0780(7) 0.7529(2) 0.6426(6)
H20 H 1.0848 0.7768 0.6031
C31 C 1.0237(7) 0.7068(2) 0.7593(6)
H21 H 0.9862 0.6946 0.8145
C32 C 0.9188(6) 0.7738(2) 0.7640(6)
C33 C 0.9425(7) 0.8152(2) 0.7702(7)
H22 H 1.0103 0.8256 0.7429
C34 C 0.8659(7) 0.8415(2) 0.8168(7)
H23 H 0.8817 0.8695 0.8210
C35 C 0.7653(7) 0.8257(2) 0.8573(6)
C36 C 0.7407(8) 0.7840(2) 0.8501(7)
H24 H 0.6729 0.7738 0.8775
C37 C 0.8169(7) 0.7574(3) 0.8018(7)
H25 H 0.8001 0.7295 0.7952
C38 C 0.7096(8) 0.8841(3) 0.9705(7)
H26 H 0.7850 0.8934 0.9906
C39 C 0.5202(8) 0.8788(3) 0.9546(8)
H27 H 0.4411 0.8840 0.9623
C40 C 0.5646(8) 0.8488(3) 0.8944(8)
H28 H 0.5219 0.8294 0.8536
N9 N 0.6453(6) 0.8881(2) 0.2816(5)
N10 N 0.6114(5) 0.94341(18) 0.3719(5)
C41 C 0.7435(7) 0.9126(2) 0.2792(7)
H29 H 0.8115 0.9065 0.2455
C42 C 0.7231(7) 0.9472(2) 0.3348(7)
H30 H 0.7741 0.9693 0.3461
C43 C 0.5670(7) 0.9064(2) 0.3373(6)
H31 H 0.4936 0.8959 0.3509
C44 C 0.5547(6) 0.9724(2) 0.4363(6)
C45 C 0.4344(7) 0.9704(2) 0.4434(7)
H32 H 0.3904 0.9506 0.4054
C46 C 0.3799(7) 0.9981(2) 0.5073(7)
H33 H 0.2990 0.9968 0.5124
N9B N 0.3547(6) 1.1119(2) 0.7184(5)
N10B N 0.3886(5) 1.05659(18) 0.6281(5)
C41B C 0.2565(7) 1.0874(2) 0.7208(7)
H29B H 0.1885 1.0935 0.7545
C42B C 0.2769(7) 1.0528(2) 0.6652(7)
H30B H 0.2259 1.0307 0.6539
C43B C 0.4330(7) 1.0936(2) 0.6627(6)
H31B H 0.5064 1.1041 0.6491
C44B C 0.4453(6) 1.0276(2) 0.5637(6)
C45B C 0.5656(7) 1.0296(2) 0.5566(7)
H32B H 0.6096 1.0494 0.5946
C46B C 0.6201(7) 1.0019(2) 0.4927(7)
H33B H 0.7010 1.0032 0.4876
O12 O 0.5913(9) 0.5301(3) 0.1748(8)
O13 O 0.5090(17) 0.5275(4) 0.6974(13)
O14 O 0.8567(13) 0.0799(5) 0.0545(12)
loop_
_geom_bond_atom_site_label_1
_geom_bond_atom_site_label_2
_geom_bond_site_symmetry_1
_geom_bond_site_symmetry_2
U1 O1 1_555 1_555
O2 U1 1_555 1_555
O3 U1 1_555 1_555
O4 C1 1_555 1_555
O5 U1 1_555 1_555
O6 C2 1_555 1_555
O7 C9 1_555 1_555
O8 C9 1_555 1_555
O9 C10 1_555 1_555
O10 C10 1_555 1_555
O11 C6 1_555 1_555
N1 U1 1_555 1_555
N2 C17 1_555 1_555
N3 C23 1_555 1_555
N4 C26 1_555 1_555
C1 O3 1_555 1_555
C2 O5 1_555 1_555
C3 C2 1_555 1_555
C4 C1 1_555 1_555
C5 C4 1_555 1_555
H1 C5 1_555 1_555
C6 C5 1_555 1_555
C7 C6 1_555 1_555
H2 C7 1_555 1_555
C8 C3 1_555 1_555
H3 C8 1_555 1_555
C9 C11 1_555 1_555
C10 C12 1_555 1_555
C11 C12 1_555 1_555
C12 C13 1_555 1_555
C13 H4 1_555 1_555
C14 O11 1_555 1_555
C15 C14 1_555 1_555
H5 C15 1_555 1_555
C16 C11 1_555 1_555
H6 C16 1_555 1_555
C17 N1 1_555 1_555
H7 C17 1_555 1_555
C18 N1 1_555 1_555
H8 C18 1_555 1_555
C19 N2 1_555 1_555
H9 C19 1_555 1_555
C20 N2 1_555 1_555
C21 C20 1_555 1_555
H10 C21 1_555 1_555
C22 C21 1_555 1_555
H11 C22 1_555 1_555
C23 C22 1_555 1_555
C24 C23 1_555 1_555
H12 C24 1_555 1_555
C25 C20 1_555 1_555
H13 C25 1_555 1_555
C26 N3 1_555 1_555
H14 C26 1_555 1_555
C27 N4 1_555 1_555
H15 C27 1_555 1_555
C28 N3 1_555 1_555
H16 C28 1_555 1_555
N5 H17 1_555 1_555
N6 C30 1_555 1_555
N7 H18 1_555 1_555
N8 C35 1_555 1_555
C29 N5 1_555 1_555
H19 C29 1_555 1_555
C30 C29 1_555 1_555
H20 C30 1_555 1_555
C31 N5 1_555 1_555
H21 C31 1_555 1_555
C32 N6 1_555 1_555
C33 C32 1_555 1_555
H22 C33 1_555 1_555
C34 C33 1_555 1_555
H23 C34 1_555 1_555
C35 C34 1_555 1_555
C36 C35 1_555 1_555
H24 C36 1_555 1_555
C37 C32 1_555 1_555
H25 C37 1_555 1_555
C38 N7 1_555 1_555
H26 C38 1_555 1_555
C39 N7 1_555 1_555
H27 C39 1_555 1_555
C40 N8 1_555 1_555
H28 C40 1_555 1_555
N9 C41 1_555 1_555
N10 C42 1_555 1_555
C41 H29 1_555 1_555
C42 C41 1_555 1_555
H30 C42 1_555 1_555
C43 N9 1_555 1_555
H31 C43 1_555 1_555
C44 N10 1_555 1_555
C45 C44 1_555 1_555
H32 C45 1_555 1_555
C46 C45 1_555 1_555
H33 C46 1_555 1_555
U1_2 O7 1_555 1_555
O7_2 U1 1_555 1_555
O9_2 U1 1_555 1_555
N9B C41B 1_555 1_555
N10B C42B 1_555 1_555
C41B H29B 1_555 1_555
C42B C41B 1_555 1_555
H30B C42B 1_555 1_555
C43B N9B 1_555 1_555
H31B C43B 1_555 1_555
C44B C46 1_555 1_555
C45B C44B 1_555 1_555
H32B C45B 1_555 1_555
C46B C44 1_555 1_555
H33B C46B 1_555 1_555
O9 U1_2 1_555 1_555
C3 C4 1_555 1_555
C7 C8 1_555 1_555
C13 C14 1_555 1_555
C15 C16 1_555 1_555
C18 C19 1_555 1_555
C24 C25 1_555 1_555
C27 C28 1_555 1_555
N6 C31 1_555 1_555
N8 C38 1_555 1_555
C36 C37 1_555 1_555
C39 C40 1_555 1_555
N10 C43 1_555 1_555
N10B C43B 1_555 1_555
N10B C44B 1_555 1_555
C45B C46B 1_555 1_555

#END
