
#######################################################################
#
#                 Cambridge Crystallographic Data Centre
#                                CCDC 
#
#######################################################################
#
# If this CIF has been generated from an entry in the Cambridge 
# Structural Database, then it will include bibliographic, chemical, 
# crystal, experimental, refinement or atomic coordinate data resulting 
# from the CCDC's data processing and validation procedures.
#
#######################################################################

data_YOYSOW
_symmetry_cell_setting           monoclinic
_symmetry_space_group_name_H-M   'C 2/c'
_symmetry_Int_Tables_number      15
_space_group_name_Hall           '-C 2yn'
loop_
_symmetry_equiv_pos_site_id
_symmetry_equiv_pos_as_xyz
1 x,y,z
2 -x,y,1/2-z
3 1/2+x,1/2+y,z
4 1/2-x,1/2+y,1/2-z
5 -x,-y,-z
6 x,-y,1/2+z
7 1/2-x,1/2-y,-z
8 1/2+x,1/2-y,1/2+z
_cell_length_a                   30.514(2)
_cell_length_b                   7.7560(6)
_cell_length_c                   18.6624(15)
_cell_angle_alpha                90
_cell_angle_beta                 105.407(2)
_cell_angle_gamma                90
_cell_volume                     4258.04
loop_
_atom_site_label
_atom_site_type_symbol
_atom_site_fract_x
_atom_site_fract_y
_atom_site_fract_z
U1 U 0.274861(8) 0.64482(3) 0.744392(14)
O1 O 0.24710(15) 0.7310(6) 0.6571(2)
O2 O 0.30167(15) 0.5640(6) 0.8336(3)
O3 O 0.32863(15) 0.5057(5) 0.6954(3)
O4 O 0.31625(17) 0.3067(6) 0.6052(3)
O5 O 0.29861(15) 0.1142(5) 0.7335(3)
O6 O 0.33330(15) -0.1402(5) 0.7513(3)
O7 O 0.5000 0.3423(8) 0.7500
F1 F 0.25606(12) 0.8853(4) 0.8025(2)
C1 C 0.3370(2) 0.3658(9) 0.6664(4)
C2 C 0.3786(2) 0.2658(8) 0.7094(4)
C3 C 0.4206(2) 0.3384(8) 0.7125(4)
H1 H 0.4222 0.4453 0.6907
C4 C 0.4600(2) 0.2535(8) 0.7474(4)
C5 C 0.4588(2) 0.0979(8) 0.7819(4)
H2 H 0.4855 0.0427 0.8068
C6 C 0.4170(2) 0.0251(8) 0.7786(4)
H3 H 0.4159 -0.0808 0.8014
C7 C 0.3770(2) 0.1049(7) 0.7426(4)
C8 C 0.3331(2) 0.0217(7) 0.7427(4)
O3A O 0.67137(15) 0.5057(5) 0.8046(3)
O4A O 0.68375(17) 0.3067(6) 0.8948(3)
O5A O 0.70139(15) 0.1142(5) 0.7665(3)
O6A O 0.66670(15) -0.1402(5) 0.7487(3)
C1A C 0.6630(2) 0.3658(9) 0.8336(4)
C2A C 0.6214(2) 0.2658(8) 0.7906(4)
C3A C 0.5794(2) 0.3384(8) 0.7875(4)
H1A H 0.5778 0.4453 0.8093
C4A C 0.5400(2) 0.2535(8) 0.7526(4)
C5A C 0.5412(2) 0.0979(8) 0.7181(4)
H2A H 0.5145 0.0427 0.6932
C6A C 0.5830(2) 0.0251(8) 0.7214(4)
H3A H 0.5841 -0.0808 0.6986
C7A C 0.6230(2) 0.1049(7) 0.7574(4)
C8A C 0.6669(2) 0.0217(7) 0.7573(4)
U1A U 0.725139(8) 0.64482(3) 0.755608(14)
O1A O 0.75290(15) 0.7310(6) 0.8429(2)
O2A O 0.69833(15) 0.5640(6) 0.6664(3)
F1A F 0.74394(12) 0.8853(4) 0.6975(2)
U1_2 U 0.274861(8) -0.35518(3) 0.744392(14)
U1A_2 U 0.725139(8) -0.35518(3) 0.755608(14)
U1B U 0.774861(8) 0.14482(3) 0.744392(14)
U1B_2 U 0.774861(8) 1.14482(3) 0.744392(14)
U1C U 0.225139(8) 0.14482(3) 0.755608(14)
U1C_2 U 0.225139(8) 1.14482(3) 0.755608(14)
O5B O 0.79861(15) 0.6142(5) 0.7335(3)
O5C O 0.20139(15) 0.6142(5) 0.7665(3)
O6_2 O 0.33330(15) 0.8598(5) 0.7513(3)
O6A_2 O 0.66670(15) 0.8598(5) 0.7487(3)
F1B F 0.75606(12) 0.3853(4) 0.8025(2)
F1C F 0.24394(12) 0.3853(4) 0.6975(2)
N1 N 0.1734(2) 0.5746(8) 0.4872(3)
N2 N 0.2379(2) 0.4495(8) 0.5271(3)
H4 H 0.2596 0.3881 0.5539
C9 C 0.1980(3) 0.4693(9) 0.5396(4)
H5 H 0.1884 0.4191 0.5781
C10 C 0.2402(3) 0.5388(9) 0.4662(4)
H6 H 0.2648 0.5454 0.4459
C11 C 0.1996(3) 0.6164(9) 0.4409(4)
H7 H 0.1910 0.6864 0.3990
C12 C 0.1281(3) 0.6298(9) 0.4812(4)
C13 C 0.0991(3) 0.6552(10) 0.4117(4)
H8 H 0.1090 0.6380 0.3693
C14 C 0.0546(3) 0.7072(10) 0.4060(5)
H9 H 0.0350 0.7258 0.3590
C15 C 0.0387(3) 0.7317(9) 0.4671(4)
C16 C 0.0688(3) 0.7057(10) 0.5364(4)
H10 H 0.0588 0.7208 0.5789
C17 C 0.1138(3) 0.6573(10) 0.5434(5)
H11 H 0.1339 0.6440 0.5903
C18 C -0.0097(3) 0.7789(9) 0.4605(4)
C19 C -0.0364(3) 0.8585(9) 0.3976(5)
H12 H -0.0239 0.8868 0.3588
C20 C -0.0810(3) 0.8962(10) 0.3919(5)
H13 H -0.0984 0.9486 0.3489
C21 C -0.1008(3) 0.8581(11) 0.4486(6)
H14 H -0.1309 0.8862 0.4447
C22 C -0.0749(3) 0.7787(12) 0.5101(6)
H15 H -0.0875 0.7514 0.5490
C23 C -0.0304(3) 0.7383(11) 0.5155(5)
H16 H -0.0136 0.6815 0.5578
loop_
_geom_bond_atom_site_label_1
_geom_bond_atom_site_label_2
_geom_bond_site_symmetry_1
_geom_bond_site_symmetry_2
U1 O1 1_555 1_555
O2 U1 1_555 1_555
O3 U1 1_555 1_555
O4 C1 1_555 1_555
O5 C8 1_555 1_555
O6 C8 1_555 1_555
O7 C4 1_555 1_555
F1 U1 1_555 1_555
C1 O3 1_555 1_555
C2 C1 1_555 1_555
C3 C2 1_555 1_555
H1 C3 1_555 1_555
C4 C3 1_555 1_555
C5 C4 1_555 1_555
H2 C5 1_555 1_555
C6 C5 1_555 1_555
H3 C6 1_555 1_555
C7 C2 1_555 1_555
C8 C7 1_555 1_555
N1 C9 1_555 1_555
N2 H4 1_555 1_555
C9 N2 1_555 1_555
H5 C9 1_555 1_555
C10 N2 1_555 1_555
H6 C10 1_555 1_555
C11 N1 1_555 1_555
H7 C11 1_555 1_555
C12 N1 1_555 1_555
C13 C12 1_555 1_555
H8 C13 1_555 1_555
C14 C13 1_555 1_555
H9 C14 1_555 1_555
C15 C14 1_555 1_555
C16 C15 1_555 1_555
H10 C16 1_555 1_555
C17 C12 1_555 1_555
H11 C17 1_555 1_555
C18 C15 1_555 1_555
C19 C18 1_555 1_555
H12 C19 1_555 1_555
C20 C19 1_555 1_555
H13 C20 1_555 1_555
C21 C20 1_555 1_555
H14 C21 1_555 1_555
C22 C21 1_555 1_555
H15 C22 1_555 1_555
C23 C18 1_555 1_555
H16 C23 1_555 1_555
O3A C1A 1_555 1_555
O4A C1A 1_555 1_555
O5A C8A 1_555 1_555
O6A C8A 1_555 1_555
C1A C2A 1_555 1_555
C2A C3A 1_555 1_555
C3A H1A 1_555 1_555
C4A O7 1_555 1_555
C5A C4A 1_555 1_555
H2A C5A 1_555 1_555
C6A C5A 1_555 1_555
H3A C6A 1_555 1_555
C7A C2A 1_555 1_555
C8A C7A 1_555 1_555
U1A O3A 1_555 1_555
O1A U1A 1_555 1_555
O2A U1A 1_555 1_555
F1A U1A 1_555 1_555
U1_2 O6 1_555 1_555
U1A_2 O6A 1_555 1_555
U1B O5A 1_555 1_555
U1B_2 F1A 1_555 1_555
U1C O5 1_555 1_555
U1C_2 F1 1_555 1_555
O5B U1A 1_555 1_555
O5C U1 1_555 1_555
O6_2 U1 1_555 1_555
O6A_2 U1A 1_555 1_555
F1B U1A 1_555 1_555
F1C U1 1_555 1_555
C6 C7 1_555 1_555
C10 C11 1_555 1_555
C16 C17 1_555 1_555
C22 C23 1_555 1_555
C3A C4A 1_555 1_555
C6A C7A 1_555 1_555
U1B F1B 1_555 1_555
U1C F1C 1_555 1_555

#END
