
#######################################################################
#
#                 Cambridge Crystallographic Data Centre
#                                CCDC 
#
#######################################################################
#
# If this CIF has been generated from an entry in the Cambridge 
# Structural Database, then it will include bibliographic, chemical, 
# crystal, experimental, refinement or atomic coordinate data resulting 
# from the CCDC's data processing and validation procedures.
#
#######################################################################

data_YOYTUD
_symmetry_cell_setting           rhombohedral
_symmetry_space_group_name_H-M   'R -3 m'
_symmetry_Int_Tables_number      166
_space_group_name_Hall           '-R 3 2"'
loop_
_symmetry_equiv_pos_site_id
_symmetry_equiv_pos_as_xyz
1 x,y,z
2 -y,x-y,z
3 -x+y,-x,z
4 y,x,-z
5 x-y,-y,-z
6 -x,-x+y,-z
7 2/3+x,1/3+y,1/3+z
8 2/3-y,1/3+x-y,1/3+z
9 2/3-x+y,1/3-x,1/3+z
10 2/3+y,1/3+x,1/3-z
11 2/3+x-y,1/3-y,1/3-z
12 2/3-x,1/3-x+y,1/3-z
13 1/3+x,2/3+y,2/3+z
14 1/3-y,2/3+x-y,2/3+z
15 1/3-x+y,2/3-x,2/3+z
16 1/3+y,2/3+x,2/3-z
17 1/3+x-y,2/3-y,2/3-z
18 1/3-x,2/3-x+y,2/3-z
19 -x,-y,-z
20 y,-x+y,-z
21 x-y,x,-z
22 -y,-x,z
23 -x+y,y,z
24 x,x-y,z
25 1/3-x,2/3-y,2/3-z
26 1/3+y,2/3-x+y,2/3-z
27 1/3+x-y,2/3+x,2/3-z
28 1/3-y,2/3-x,2/3+z
29 1/3-x+y,2/3+y,2/3+z
30 1/3+x,2/3+x-y,2/3+z
31 2/3-x,1/3-y,1/3-z
32 2/3+y,1/3-x+y,1/3-z
33 2/3+x-y,1/3+x,1/3-z
34 2/3-y,1/3-x,1/3+z
35 2/3-x+y,1/3+y,1/3+z
36 2/3+x,1/3+x-y,1/3+z
_cell_length_a                   26.2003(8)
_cell_length_b                   26.2003(8)
_cell_length_c                   9.8014(3)
_cell_angle_alpha                90
_cell_angle_beta                 90
_cell_angle_gamma                120
_cell_volume                     5826.82
loop_
_atom_site_label
_atom_site_type_symbol
_atom_site_fract_x
_atom_site_fract_y
_atom_site_fract_z
S1 S 0.4640(4) -0.0719(8) 0.4042(18)
C1 C 0.4060(4) -0.0817(5) 0.4866(10)
C2 C 0.4173(9) -0.1117(17) 0.584(3)
C1V C 0.5123(6) -0.0817(5) 0.4866(10)
C2V C 0.4710(19) -0.1117(17) 0.584(3)
Ag1 Ag 0.36940(4) 0.03606(4) 0.3333
Fe1 Fe 0.5000 0.0000 0.0000
N1 N 0.45628(18) -0.0874(4) 0.0095(8)
N2 N 0.4474(2) 0.0033(3) 0.1378(6)
N3 N 0.3937(4) -0.3031(2) 0.0056(8)
C3 C 0.3964(3) -0.1186(3) 0.0104(7)
H1 H 0.3759 -0.0981 0.0120
C4 C 0.3652(3) -0.1786(3) 0.0091(7)
H2 H 0.3242 -0.1982 0.0093
C5 C 0.3947(2) -0.2106(4) 0.0073(11)
C6 C 0.3621(2) -0.2758(4) 0.0047(10)
C7 C 0.4152(3) 0.0087(3) 0.2101(8)
N1A N 0.0874(4) -0.45632(44) 0.0095(8)
N3A N 0.3031(2) -0.3032(4) 0.0056(8)
C3A C 0.1186(3) -0.4850(4) 0.0104(7)
H1A H 0.0981 -0.5260 0.0120
C4A C 0.1786(3) -0.4562(4) 0.0091(7)
H2A H 0.1982 -0.4776 0.0093
C5A C 0.2106(4) -0.3947(4) 0.0073(11)
C6A C 0.2758(4) -0.3621(4) 0.0047(10)
N1B N 0.45632(44) -0.45628(18) 0.0095(8)
N3B N 0.3032(4) -0.3937(4) 0.0056(8)
C3B C 0.4850(4) -0.3964(3) 0.0104(7)
H1B H 0.5260 -0.3759 0.0120
C4B C 0.4562(4) -0.3652(3) 0.0091(7)
H2B H 0.4776 -0.3242 0.0093
C5B C 0.3947(4) -0.3947(2) 0.0073(11)
C6B C 0.3621(4) -0.3621(2) 0.0047(10)
C3U C 0.1186(3) -0.3964(3) 0.0104(7)
H1U H 0.0981 -0.3759 0.0120
C4U C 0.1786(3) -0.3652(3) 0.0091(7)
H2U H 0.1982 -0.3242 0.0093
C3V C 0.4850(4) -0.1186(3) 0.0104(7)
H1V H 0.5260 -0.0981 0.0120
C4V C 0.4562(4) -0.1786(3) 0.0091(7)
H2V H 0.4776 -0.1982 0.0093
C3W C 0.3964(3) -0.4850(4) 0.0104(7)
H1W H 0.3759 -0.5260 0.0120
C4W C 0.3652(3) -0.4562(4) 0.0091(7)
H2W H 0.3242 -0.4776 0.0093
Fe1A Fe 0.0000 -0.5000 0.0000
N2A N -0.0033(3) -0.5559(4) 0.1378(6)
C7A C -0.0087(3) -0.5935(4) 0.2101(8)
Fe1B Fe 0.5000 -0.5000 0.0000
N2B N 0.5559(4) -0.4474(2) 0.1378(6)
C7B C 0.5935(4) -0.4152(3) 0.2101(8)
N2D N 0.4441(4) -0.0033(3) -0.1378(6)
C7D C 0.4065(4) -0.0087(3) -0.2101(8)
N2O N 0.3366(3) 0.1141(2) 0.5289(6)
C7O C 0.3420(3) 0.0819(3) 0.4566(8)
N2R N 0.5526(2) -0.0033(3) -0.1378(6)
C7R C 0.5848(3) -0.0087(3) -0.2101(8)
N1C N -0.0874(4) -0.54372(18) -0.0095(8)
N2S N 0.0033(3) -0.4441(4) -0.1378(6)
N3D N -0.3032(4) -0.6969(2) -0.0056(8)
C3S C -0.1186(3) -0.5150(4) -0.0104(7)
H1S H -0.0981 -0.4740 -0.0120
C4S C -0.1786(3) -0.5438(4) -0.0091(7)
H2S H -0.1982 -0.5224 -0.0093
C5C C -0.2106(4) -0.6053(2) -0.0073(11)
C6C C -0.2758(4) -0.6379(2) -0.0047(10)
C7S C 0.0087(3) -0.4065(4) -0.2101(8)
N1E N -0.45628(18) -0.54368(44) -0.0095(8)
N3C N -0.3031(2) -0.6063(4) -0.0056(8)
C3T C -0.4850(4) -0.6036(3) -0.0104(7)
H1T H -0.5260 -0.6241 -0.0120
C4T C -0.4562(4) -0.6348(3) -0.0091(7)
H2T H -0.4776 -0.6758 -0.0093
C5E C -0.3947(2) -0.6053(4) -0.0073(11)
C6E C -0.3621(2) -0.6379(4) -0.0047(10)
N1D N -0.45632(44) -0.9126(4) -0.0095(8)
N3E N -0.3937(4) -0.6968(4) -0.0056(8)
C3R C -0.3964(3) -0.8814(3) -0.0104(7)
H1R H -0.3759 -0.9019 -0.0120
C4R C -0.3652(3) -0.8214(3) -0.0091(7)
H2R H -0.3242 -0.8018 -0.0093
C5D C -0.3947(4) -0.7894(4) -0.0073(11)
C6D C -0.3621(4) -0.7242(4) -0.0047(10)
C3E C -0.3964(3) -0.5150(4) -0.0104(7)
H1E H -0.3759 -0.4740 -0.0120
C4E C -0.3652(3) -0.5438(4) -0.0091(7)
H2E H -0.3242 -0.5224 -0.0093
C3C C -0.1186(3) -0.6036(3) -0.0104(7)
H1C H -0.0981 -0.6241 -0.0120
C4C C -0.1786(3) -0.6348(3) -0.0091(7)
H2C H -0.1982 -0.6758 -0.0093
C3D C -0.4850(4) -0.8814(3) -0.0104(7)
H1D H -0.5260 -0.9019 -0.0120
C4D C -0.4562(4) -0.8214(3) -0.0091(7)
H2D H -0.4776 -0.8018 -0.0093
N2T N 0.4441(4) -0.5526(2) -0.1378(6)
C7T C 0.4065(4) -0.5848(3) -0.2101(8)
N2V N 0.5559(4) 0.0033(3) 0.1378(6)
C7V C 0.5935(4) 0.0087(3) 0.2101(8)
N2U N -0.0033(3) -0.4474(2) 0.1378(6)
C7U C -0.0087(3) -0.4152(3) 0.2101(8)
N2C N 0.0033(3) -0.5526(2) -0.1378(6)
C7C C 0.0087(3) -0.5848(3) -0.2101(8)
N2W N 0.4474(2) -0.5559(4) 0.1378(6)
C7W C 0.4152(3) -0.5935(4) 0.2101(8)
Ag1A Ag -0.03606(4) -0.66666(6) 0.3333
Ag1B Ag 0.66666(6) -0.36940(4) 0.3333
Ag1D Ag 0.33334(6) -0.03606(4) -0.3333
Ag1R Ag 0.63060(4) -0.03606(4) -0.3333
Ag1S Ag 0.03606(4) -0.33334(6) -0.3333
Ag1C Ag 0.03606(4) -0.63060(4) -0.3333
Ag1T Ag 0.33334(6) -0.63060(4) -0.3333
Ag1U Ag -0.03606(4) -0.36940(4) 0.3333
Ag1V Ag 0.66666(6) 0.03606(4) 0.3333
Ag1W Ag 0.36940(4) -0.66666(6) 0.3333
Fe1_2 Fe -0.5000 -1.0000 0.0000
Fe1B_2 Fe -0.5000 -0.5000 0.0000
Fe1M Fe 0.3333 0.1667 0.6667
N1D_2 N 0.54368(44) 0.0874(4) -0.0095(8)
N1E_2 N 0.54372(18) -0.54368(44) -0.0095(8)
N2E N 0.5526(2) -0.4441(4) -0.1378(6)
C7H C 0.2602(4) -0.0819(3) -0.4566(8)
C7P C 0.7398(4) -0.3420(3) 0.4566(8)
C7Q C -0.0819(3) -0.7398(4) 0.4566(8)
C7GA C 0.6580(3) -0.0819(3) -0.4566(8)
C7IA C 0.0819(3) -0.2602(4) -0.4566(8)
loop_
_geom_bond_atom_site_label_1
_geom_bond_atom_site_label_2
_geom_bond_site_symmetry_1
_geom_bond_site_symmetry_2
S1 C1 1_555 1_555
C1 C2 1_555 1_555
C2 C2V 1_555 1_555
Ag1 C7 1_555 1_555
Fe1 N1 1_555 1_555
N1 C3 1_555 1_555
N2 Fe1 1_555 1_555
N3 C6 1_555 1_555
C3 H1 1_555 1_555
C4 C3 1_555 1_555
H2 C4 1_555 1_555
C5 C4 1_555 1_555
C6 C5 1_555 1_555
C7 N2 1_555 1_555
C1V S1 1_555 1_555
C2V C1V 1_555 1_555
N1A C3A 1_555 1_555
N3A C6 1_555 1_555
C3A H1A 1_555 1_555
C4A C3A 1_555 1_555
H2A C4A 1_555 1_555
C5A C4A 1_555 1_555
C6A N3A 1_555 1_555
N1B C3B 1_555 1_555
N3B C6A 1_555 1_555
C3B H1B 1_555 1_555
C4B C3B 1_555 1_555
H2B C4B 1_555 1_555
C5B C4B 1_555 1_555
C6B N3 1_555 1_555
C3U N1A 1_555 1_555
H1U C3U 1_555 1_555
C4U C5A 1_555 1_555
H2U C4U 1_555 1_555
C3V N1 1_555 1_555
H1V C3V 1_555 1_555
C4V C5 1_555 1_555
H2V C4V 1_555 1_555
C3W N1B 1_555 1_555
H1W C3W 1_555 1_555
C4W C5B 1_555 1_555
H2W C4W 1_555 1_555
Fe1A N1A 1_555 1_555
N2A Fe1A 1_555 1_555
C7A N2A 1_555 1_555
Fe1B N1B 1_555 1_555
N2B Fe1B 1_555 1_555
C7B N2B 1_555 1_555
N2D Fe1 1_555 1_555
C7D N2D 1_555 1_555
N2O C7O 1_555 1_555
C7O Ag1 1_555 1_555
N2R Fe1 1_555 1_555
C7R N2R 1_555 1_555
N1C Fe1A 1_555 1_555
N2S Fe1A 1_555 1_555
N3D C6C 1_555 1_555
C3S N1C 1_555 1_555
H1S C3S 1_555 1_555
C4S C3S 1_555 1_555
H2S C4S 1_555 1_555
C5C C4S 1_555 1_555
C6C C5C 1_555 1_555
C7S N2S 1_555 1_555
N1E C3T 1_555 1_555
N3C C6C 1_555 1_555
C3T H1T 1_555 1_555
C4T C3T 1_555 1_555
H2T C4T 1_555 1_555
C5E C4T 1_555 1_555
C6E N3C 1_555 1_555
N1D C3R 1_555 1_555
N3E C6E 1_555 1_555
C3R H1R 1_555 1_555
C4R C3R 1_555 1_555
H2R C4R 1_555 1_555
C5D C4R 1_555 1_555
C6D N3D 1_555 1_555
C3E N1E 1_555 1_555
H1E C3E 1_555 1_555
C4E C5E 1_555 1_555
H2E C4E 1_555 1_555
C3C N1C 1_555 1_555
H1C C3C 1_555 1_555
C4C C5C 1_555 1_555
H2C C4C 1_555 1_555
C3D N1D 1_555 1_555
H1D C3D 1_555 1_555
C4D C5D 1_555 1_555
H2D C4D 1_555 1_555
N2T Fe1B 1_555 1_555
C7T N2T 1_555 1_555
N2V Fe1 1_555 1_555
C7V N2V 1_555 1_555
N2U Fe1A 1_555 1_555
C7U N2U 1_555 1_555
N2C Fe1A 1_555 1_555
C7C N2C 1_555 1_555
N2W Fe1B 1_555 1_555
C7W N2W 1_555 1_555
Ag1A C7A 1_555 1_555
Ag1B C7B 1_555 1_555
Ag1D C7D 1_555 1_555
Ag1R C7R 1_555 1_555
Ag1S C7S 1_555 1_555
Ag1C C7C 1_555 1_555
Ag1T C7T 1_555 1_555
Ag1U C7U 1_555 1_555
Ag1V C7V 1_555 1_555
Ag1W C7W 1_555 1_555
Fe1_2 N1D 1_555 1_555
Fe1B_2 N1E 1_555 1_555
Fe1M N2O 1_555 1_555
N1D_2 Fe1 1_555 1_555
N1E_2 Fe1B 1_555 1_555
N2E Fe1B 1_555 1_555
C7H Ag1D 1_555 1_555
C7P Ag1B 1_555 1_555
C7Q Ag1A 1_555 1_555
C7GA Ag1R 1_555 1_555
C7IA Ag1S 1_555 1_555
C5A C6A 1_555 1_555
N3B C6B 1_555 1_555
C5B C6B 1_555 1_555
C3U C4U 1_555 1_555
C3V C4V 1_555 1_555
C3W C4W 1_555 1_555
C5E C6E 1_555 1_555
N3E C6D 1_555 1_555
C5D C6D 1_555 1_555
C3E C4E 1_555 1_555
C3C C4C 1_555 1_555
C3D C4D 1_555 1_555

#END
