
#######################################################################
#
#                 Cambridge Crystallographic Data Centre
#                                CCDC 
#
#######################################################################
#
# If this CIF has been generated from an entry in the Cambridge 
# Structural Database, then it will include bibliographic, chemical, 
# crystal, experimental, refinement or atomic coordinate data resulting 
# from the CCDC's data processing and validation procedures.
#
#######################################################################

data_YOYTUC
_symmetry_cell_setting           monoclinic
_symmetry_space_group_name_H-M   'P 21/c'
_symmetry_Int_Tables_number      14
_space_group_name_Hall           '-P 2ybc'
loop_
_symmetry_equiv_pos_site_id
_symmetry_equiv_pos_as_xyz
1 x,y,z
2 -x,1/2+y,1/2-z
3 -x,-y,-z
4 x,1/2-y,1/2+z
_cell_length_a                   6.8143(9)
_cell_length_b                   6.2582(8)
_cell_length_c                   13.6220(17)
_cell_angle_alpha                90
_cell_angle_beta                 98.907(4)
_cell_angle_gamma                90
_cell_volume                     573.908
loop_
_atom_site_label
_atom_site_type_symbol
_atom_site_fract_x
_atom_site_fract_y
_atom_site_fract_z
Cu1 Cu 0.08768(5) 0.10379(6) 0.84074(3)
Cu2 Cu 0.16369(5) 0.34635(6) 1.05213(3)
Cl1 Cl -0.13849(10) 0.28959(11) 0.93276(5)
Cl2 Cl -0.12310(10) -0.18842(11) 0.79401(5)
C1 C 0.4550(4) -0.1251(4) 0.9229(2)
C2 C 0.3966(4) -0.2742(5) 0.8387(2)
H1 H 0.4905 -0.3893 0.8424
H2 H 0.3946 -0.1991 0.7771
H3 H 0.2667 -0.3305 0.8420
N1 N 0.6213(3) -0.1680(3) 0.98713(16)
N2 N 0.3336(3) 0.0401(4) 0.93311(17)
Cu1A Cu -0.08768(5) 0.60379(6) 0.65926(3)
Cu1A_2 Cu -0.08768(5) -0.39621(6) 0.65926(3)
Cu1B Cu 0.91232(5) -0.10379(6) 1.15926(3)
Cu1B_2 Cu -0.08768(5) 0.89621(6) 1.15926(3)
Cu2B Cu -0.16369(5) 0.65365(6) 0.94787(3)
Cu2B_2 Cu -0.16369(5) -0.34635(6) 0.94787(3)
Cu2B_3 Cu 0.83631(5) -0.34635(6) 0.94787(3)
Cu2C Cu 0.16369(5) 0.15365(6) 0.55213(3)
Cl1B Cl 0.13849(10) 0.71041(11) 1.06724(5)
Cl1A Cl 0.13849(10) 0.78959(11) 0.56724(5)
Cl2A Cl 0.12310(10) 0.31158(11) 0.70599(5)
Cl2B Cl 0.12310(10) 0.18842(11) 1.20599(5)
Cl2_2 Cl -0.12310(10) 0.81158(11) 0.79401(5)
C1B C 0.5450(4) 0.1251(4) 1.0771(2)
C2B C 0.6034(4) 0.2742(5) 1.1613(2)
H1B H 0.5095 0.3893 1.1576
H2B H 0.6054 0.1991 1.2229
H3B H 0.7333 0.3305 1.1580
N1B N 0.3787(3) 0.1680(3) 1.01287(16)
N1_2 N -0.3787(3) 0.8320(3) 0.98713(16)
N2B N 0.6664(3) -0.0401(4) 1.06689(17)
N2A N -0.3336(3) 0.5401(4) 0.56689(17)
loop_
_geom_bond_atom_site_label_1
_geom_bond_atom_site_label_2
_geom_bond_site_symmetry_1
_geom_bond_site_symmetry_2
Cu1 Cl1 1_555 1_555
Cu2 Cl1 1_555 1_555
Cl1 Cu2B 1_555 1_555
Cl2 Cu1 1_555 1_555
C1 C2 1_555 1_555
C2 H1 1_555 1_555
H2 C2 1_555 1_555
H3 C2 1_555 1_555
N1 C1 1_555 1_555
N2 Cu1 1_555 1_555
Cu1A Cl1A 1_555 1_555
Cu1A_2 Cl2 1_555 1_555
Cu1B N2B 1_555 1_555
Cu1B_2 Cl1B 1_555 1_555
Cu2B Cl1B 1_555 1_555
Cu2B_2 Cl2 1_555 1_555
Cu2B_3 N1 1_555 1_555
Cu2C Cl2A 1_555 1_555
Cl1B Cu2 1_555 1_555
Cl2A Cu1 1_555 1_555
Cl2B Cu2 1_555 1_555
Cl2_2 Cu1A 1_555 1_555
C1B C2B 1_555 1_555
C2B H1B 1_555 1_555
H2B C2B 1_555 1_555
H3B C2B 1_555 1_555
N1B Cu2 1_555 1_555
N1_2 Cu2B 1_555 1_555
N2B N1 1_555 1_555
N2A Cu1A 1_555 1_555
C1 N2 1_555 1_555
N2 N1B 1_555 1_555
Cu1A Cl2A 1_555 1_555
Cu2B Cl2_2 1_555 1_555
C1B N1B 1_555 1_555
C1B N2B 1_555 1_555

#END
