
#######################################################################
#
#                 Cambridge Crystallographic Data Centre
#                                CCDC 
#
#######################################################################
#
# If this CIF has been generated from an entry in the Cambridge 
# Structural Database, then it will include bibliographic, chemical, 
# crystal, experimental, refinement or atomic coordinate data resulting 
# from the CCDC's data processing and validation procedures.
#
#######################################################################

data_YOYTIQ
_symmetry_cell_setting           triclinic
_symmetry_space_group_name_H-M   'P -1'
_symmetry_Int_Tables_number      2
_space_group_name_Hall           '-P 1'
loop_
_symmetry_equiv_pos_site_id
_symmetry_equiv_pos_as_xyz
1 x,y,z
2 -x,-y,-z
_cell_length_a                   6.7481(8)
_cell_length_b                   7.9981(9)
_cell_length_c                   8.1382(10)
_cell_angle_alpha                65.302(11)
_cell_angle_beta                 65.663(10)
_cell_angle_gamma                66.151(11)
_cell_volume                     349.004
loop_
_atom_site_label
_atom_site_type_symbol
_atom_site_fract_x
_atom_site_fract_y
_atom_site_fract_z
Ag1 Ag 0.46609(3) 0.21585(3) 0.35201(3)
Cl1 Cl 0.32773(11) 0.72807(9) 0.12648(11)
O1 O 0.3225(5) 0.5709(3) 0.2998(4)
O2 O 0.5460(4) 0.7623(4) 0.0462(4)
O3 O 0.2826(5) 0.6827(4) -0.0067(4)
O4 O 0.1565(4) 0.8969(3) 0.1671(4)
O5 O 0.3093(4) 0.1315(4) 0.7237(4)
H1 H 0.3348 0.1631 0.7992
H2 H 0.1727 0.1272 0.7667
N1 N 0.8053(4) 0.0939(3) 0.4514(4)
N2 N 0.8353(4) -0.0860(3) 0.5629(4)
C1 C 0.9694(4) 0.1782(4) 0.3912(5)
C2 C 0.9365(5) 0.3792(4) 0.2680(5)
H3 H 0.8203 0.4146 0.2106
H4 H 1.0762 0.3930 0.1712
H5 H 0.8925 0.4628 0.3410
Ag1A Ag 0.53391(3) 0.78415(3) -0.35201(3)
Ag1A_2 Ag 0.53391(3) -0.21585(3) 0.64799(3)
Ag1A_3 Ag 1.53391(3) -0.21585(3) 0.64799(3)
Ag1_2 Ag 1.46609(3) 0.21585(3) 0.35201(3)
Ag1_3 Ag 0.46609(3) 1.21585(3) -0.64799(3)
Cl1A Cl 0.67227(11) 0.27193(9) -0.12648(11)
O1A O 0.6775(5) 0.4291(3) -0.2998(4)
O2A O 0.4540(4) 0.2377(4) -0.0462(4)
O3A O 0.7174(5) 0.3173(4) 0.0067(4)
O4A O 0.8435(4) 0.1031(3) -0.1671(4)
O5A O 0.6907(4) -0.1315(4) 0.2763(4)
O5A_2 O 0.6907(4) 0.8685(4) -0.7237(4)
O5_2 O 0.3093(4) 1.1315(4) -0.2763(4)
H1A H 0.6652 -0.1631 0.2008
H1A_2 H 0.6652 0.8369 -0.7992
H1_2 H 0.3348 1.1631 -0.2008
H2A H 0.8273 -0.1272 0.2333
H2A_2 H 0.8273 0.8728 -0.7667
H2_2 H 0.1727 1.1272 -0.2333
N1A N 1.1947(4) -0.0939(3) 0.5486(4)
N1A_2 N 0.1947(4) 0.9061(3) -0.4514(4)
N2A N 1.1647(4) 0.0860(3) 0.4371(4)
N2A_2 N 0.1647(4) 0.0860(3) 0.4371(4)
N2_2 N 0.8353(4) 0.9140(3) -0.4371(4)
C1A C 1.0306(4) -0.1782(4) 0.6088(5)
C2A C 1.0635(5) -0.3792(4) 0.7320(5)
H3A H 1.1797 -0.4146 0.7894
H4A H 0.9238 -0.3930 0.8288
H5A H 1.1075 -0.4628 0.6590
loop_
_geom_bond_atom_site_label_1
_geom_bond_atom_site_label_2
_geom_bond_site_symmetry_1
_geom_bond_site_symmetry_2
Ag1 O1 1_555 1_555
Cl1 O1 1_555 1_555
O2 Cl1 1_555 1_555
O3 Cl1 1_555 1_555
O4 Cl1 1_555 1_555
O5 Ag1 1_555 1_555
H1 O5 1_555 1_555
H2 O5 1_555 1_555
N1 Ag1 1_555 1_555
N2 N1 1_555 1_555
C1 N1 1_555 1_555
C2 C1 1_555 1_555
H3 C2 1_555 1_555
H4 C2 1_555 1_555
H5 C2 1_555 1_555
Ag1A O3 1_555 1_555
Ag1A_2 O5 1_555 1_555
Ag1A_3 N1A 1_555 1_555
Ag1_2 N2A 1_555 1_555
Ag1_3 O5A_2 1_555 1_555
Cl1A O1A 1_555 1_555
O1A Ag1A 1_555 1_555
O2A Cl1A 1_555 1_555
O3A Ag1 1_555 1_555
O4A Cl1A 1_555 1_555
O5A Ag1 1_555 1_555
O5A_2 Ag1A 1_555 1_555
O5_2 Ag1A 1_555 1_555
H1A O5A 1_555 1_555
H1A_2 O5A_2 1_555 1_555
H1_2 O5_2 1_555 1_555
H2A O5A 1_555 1_555
H2A_2 O5A_2 1_555 1_555
H2_2 O5_2 1_555 1_555
N1A N2A 1_555 1_555
N1A_2 Ag1A 1_555 1_555
N2A C1 1_555 1_555
N2A_2 Ag1 1_555 1_555
N2_2 Ag1A 1_555 1_555
C1A N2 1_555 1_555
C2A C1A 1_555 1_555
H3A C2A 1_555 1_555
H4A C2A 1_555 1_555
H5A C2A 1_555 1_555
N2 Ag1A_2 1_555 1_555
Ag1A_2 O5A 1_555 1_555
Ag1_3 O5_2 1_555 1_555
Cl1A O3A 1_555 1_555
N1A C1A 1_555 1_555

#END
