
#######################################################################
#
#                 Cambridge Crystallographic Data Centre
#                                CCDC 
#
#######################################################################
#
# If this CIF has been generated from an entry in the Cambridge 
# Structural Database, then it will include bibliographic, chemical, 
# crystal, experimental, refinement or atomic coordinate data resulting 
# from the CCDC's data processing and validation procedures.
#
#######################################################################

data_YOYTOX
_symmetry_cell_setting           rhombohedral
_symmetry_space_group_name_H-M   'R -3 m'
_symmetry_Int_Tables_number      166
_space_group_name_Hall           '-R 3 2"'
loop_
_symmetry_equiv_pos_site_id
_symmetry_equiv_pos_as_xyz
1 x,y,z
2 -y,x-y,z
3 -x+y,-x,z
4 x-y,-y,-z
5 -x,-x+y,-z
6 y,x,-z
7 2/3+x,1/3+y,1/3+z
8 2/3-y,1/3+x-y,1/3+z
9 2/3-x+y,1/3-x,1/3+z
10 2/3+x-y,1/3-y,1/3-z
11 2/3-x,1/3-x+y,1/3-z
12 2/3+y,1/3+x,1/3-z
13 1/3+x,2/3+y,2/3+z
14 1/3-y,2/3+x-y,2/3+z
15 1/3-x+y,2/3-x,2/3+z
16 1/3+x-y,2/3-y,2/3-z
17 1/3-x,2/3-x+y,2/3-z
18 1/3+y,2/3+x,2/3-z
19 -x,-y,-z
20 y,-x+y,-z
21 x-y,x,-z
22 -x+y,y,z
23 x,x-y,z
24 -y,-x,z
25 1/3-x,2/3-y,2/3-z
26 1/3+y,2/3-x+y,2/3-z
27 1/3+x-y,2/3+x,2/3-z
28 1/3-x+y,2/3+y,2/3+z
29 1/3+x,2/3+x-y,2/3+z
30 1/3-y,2/3-x,2/3+z
31 2/3-x,1/3-y,1/3-z
32 2/3+y,1/3-x+y,1/3-z
33 2/3+x-y,1/3+x,1/3-z
34 2/3-x+y,1/3+y,1/3+z
35 2/3+x,1/3+x-y,1/3+z
36 2/3-y,1/3-x,1/3+z
_cell_length_a                   26.8913(12)
_cell_length_b                   26.8913(12)
_cell_length_c                   10.0069(7)
_cell_angle_alpha                90
_cell_angle_beta                 90
_cell_angle_gamma                120
_cell_volume                     6266.91
loop_
_atom_site_label
_atom_site_type_symbol
_atom_site_fract_x
_atom_site_fract_y
_atom_site_fract_z
Ag1 Ag 0.36885(4) 0.03552(4) 0.3333
Fe1 Fe 0.5000 0.0000 0.0000
N1 N 0.45273(12) -0.0945(2) 0.0036(7)
N2 N 0.4416(2) -0.0001(2) 0.1468(6)
N3 N 0.30397(13) -0.30397(13) 0.0026(6)
C1 C 0.4799(2) -0.1243(2) 0.0039(8)
H1 H 0.5198 -0.1043 0.0045
C2 C 0.4520(2) -0.1834(2) 0.0035(8)
H2 H 0.4729 -0.2024 0.0040
C3 C 0.39297(14) -0.2141(3) 0.0022(8)
C4 C 0.36136(14) -0.2773(3) 0.0017(7)
C5 C 0.4118(3) 0.0081(3) 0.2124(8)
N1A N 0.0945(2) -0.45277(23) 0.0036(7)
N3A N 0.30397(13) -0.39206(18) 0.0026(6)
C1A C 0.1243(2) -0.3958(3) 0.0039(8)
H1A H 0.1043 -0.3759 0.0045
C2A C 0.1834(2) -0.3646(3) 0.0035(8)
H2A H 0.2024 -0.3247 0.0040
C3A C 0.2141(3) -0.39293(33) 0.0022(8)
C4A C 0.2773(3) -0.36134(33) 0.0017(7)
N1B N 0.45277(23) -0.45273(12) 0.0036(7)
N3B N 0.39206(18) -0.30397(13) 0.0026(6)
C1B C 0.3958(3) -0.4799(2) 0.0039(8)
H1B H 0.3759 -0.5198 0.0045
C2B C 0.3646(3) -0.4520(2) 0.0035(8)
H2B H 0.3247 -0.4729 0.0040
C3B C 0.39293(33) -0.39297(14) 0.0022(8)
C4B C 0.36134(33) -0.36136(14) 0.0017(7)
C1U C 0.3958(3) -0.1243(2) 0.0039(8)
H1U H 0.3759 -0.1043 0.0045
C2U C 0.3646(3) -0.1834(2) 0.0035(8)
H2U H 0.3247 -0.2024 0.0040
C1V C 0.4799(2) -0.3958(3) 0.0039(8)
H1V H 0.5198 -0.3759 0.0045
C2V C 0.4520(2) -0.3646(3) 0.0035(8)
H2V H 0.4729 -0.3247 0.0040
C1W C 0.1243(2) -0.4799(2) 0.0039(8)
H1W H 0.1043 -0.5198 0.0045
C2W C 0.1834(2) -0.4520(2) 0.0035(8)
H2W H 0.2024 -0.4729 0.0040
Fe1A Fe 0.0000 -0.5000 0.0000
N2A N 0.0001(2) -0.5583(3) 0.1468(6)
C5A C -0.0081(3) -0.5963(4) 0.2124(8)
Fe1B Fe 0.5000 -0.5000 0.0000
N2B N 0.5583(3) -0.4416(2) 0.1468(6)
C5B C 0.5963(4) -0.4118(3) 0.2124(8)
N1C N 0.54723(23) 0.0945(2) -0.0036(7)
N2C N 0.4417(3) 0.0001(2) -0.1468(6)
N3C N 0.60794(18) 0.30397(13) -0.0026(6)
C1C C 0.6042(3) 0.1243(2) -0.0039(8)
H1C H 0.6241 0.1043 -0.0045
C2C C 0.6354(3) 0.1834(2) -0.0035(8)
H2C H 0.6753 0.2024 -0.0040
C3C C 0.60707(33) 0.2141(3) -0.0022(8)
C4C C 0.63866(33) 0.2773(3) -0.0017(7)
C5C C 0.4037(4) -0.0081(3) -0.2124(8)
N1D N 0.54727(12) 0.45277(23) -0.0036(7)
N3D N 0.69603(13) 0.39206(18) -0.0026(6)
C1D C 0.5201(2) 0.3958(3) -0.0039(8)
H1D H 0.4802 0.3759 -0.0045
C2D C 0.5480(2) 0.3646(3) -0.0035(8)
H2D H 0.5271 0.3247 -0.0040
C3D C 0.60703(14) 0.39293(33) -0.0022(8)
C4D C 0.63864(14) 0.36134(33) -0.0017(7)
N1E N 0.9055(2) 0.45273(12) -0.0036(7)
N3E N 0.69603(13) 0.30397(13) -0.0026(6)
C1E C 0.8757(2) 0.4799(2) -0.0039(8)
H1E H 0.8957 0.5198 -0.0045
C2E C 0.8166(2) 0.4520(2) -0.0035(8)
H2E H 0.7976 0.4729 -0.0040
C3E C 0.7859(3) 0.39297(14) -0.0022(8)
C4E C 0.7227(3) 0.36136(14) -0.0017(7)
C1R C 0.5201(2) 0.1243(2) -0.0039(8)
H1R H 0.4802 0.1043 -0.0045
C2R C 0.5480(2) 0.1834(2) -0.0035(8)
H2R H 0.5271 0.2024 -0.0040
C1S C 0.8757(2) 0.3958(3) -0.0039(8)
H1S H 0.8957 0.3759 -0.0045
C2S C 0.8166(2) 0.3646(3) -0.0035(8)
H2S H 0.7976 0.3247 -0.0040
C1T C 0.6042(3) 0.4799(2) -0.0039(8)
H1T H 0.6241 0.5198 -0.0045
C2T C 0.6354(3) 0.4520(2) -0.0035(8)
H2T H 0.6753 0.4729 -0.0040
N2Q N 0.3332(2) 0.1083(2) 0.5199(6)
C5Q C 0.3414(3) 0.0785(3) 0.4543(8)
N2R N 0.5584(2) 0.0001(2) -0.1468(6)
C5R C 0.5882(3) -0.0081(3) -0.2124(8)
N2S N -0.0001(2) -0.4417(3) -0.1468(6)
C5S C 0.0081(3) -0.4037(4) -0.2124(8)
N2T N 0.4417(3) -0.5584(2) -0.1468(6)
C5T C 0.4037(4) -0.5882(3) -0.2124(8)
N2U N 0.5583(3) -0.0001(2) 0.1468(6)
C5U C 0.5963(4) 0.0081(3) 0.2124(8)
N2W N 0.0001(2) -0.4416(2) 0.1468(6)
C5W C -0.0081(3) -0.4118(3) 0.2124(8)
N2E N -0.0001(2) -0.5584(2) -0.1468(6)
C5E C 0.0081(3) -0.5882(3) -0.2124(8)
N2V N 0.4416(2) -0.5583(3) 0.1468(6)
C5V C 0.4118(3) -0.5963(4) 0.2124(8)
Ag1A Ag -0.03552(4) -0.66667(6) 0.3333
Ag1B Ag 0.66667(6) -0.36885(4) 0.3333
Ag1C Ag 0.33333(6) -0.03552(4) -0.3333
Ag1R Ag 0.63115(4) -0.03552(4) -0.3333
Ag1S Ag 0.03552(4) -0.33333(6) -0.3333
Ag1E Ag 0.03552(4) -0.63115(4) -0.3333
Ag1T Ag 0.33333(6) -0.63115(4) -0.3333
Ag1U Ag 0.66667(6) 0.03552(4) 0.3333
Ag1V Ag 0.36885(4) -0.66667(6) 0.3333
Ag1W Ag -0.03552(4) -0.36885(4) 0.3333
Fe1A_2 Fe 1.0000 0.5000 0.0000
Fe1B_2 Fe 0.5000 0.5000 0.0000
Fe1M Fe 0.3333 0.1667 0.6667
N1D_2 N 0.54727(12) -0.54723(23) -0.0036(7)
N1E_2 N -0.0945(2) -0.54727(12) -0.0036(7)
N2D N 0.5584(2) -0.4417(3) -0.1468(6)
C5H C 0.2630(4) -0.0785(3) -0.4543(8)
C5O C 0.7370(4) -0.3414(3) 0.4543(8)
C5P C -0.0785(3) -0.7370(4) 0.4543(8)
C5HA C 0.0785(3) -0.2630(4) -0.4543(8)
C5IA C 0.6586(3) -0.0785(3) -0.4543(8)
N4 N 0.6021(7) -0.1989(4) -0.0706(18)
C6 C 0.5828(7) -0.2465(7) -0.1375(19)
H3 H 0.5898 -0.2759 -0.1147
C7 C 0.5521(7) -0.2479(8) -0.241(2)
H4 H 0.5340 -0.2776 -0.3029
C6V C 0.5828(7) -0.1707(10) -0.1375(19)
H3V H 0.5898 -0.1343 -0.1147
C7V C 0.5521(7) -0.2000(11) -0.241(2)
H4V H 0.5340 -0.1884 -0.3029
loop_
_geom_bond_atom_site_label_1
_geom_bond_atom_site_label_2
_geom_bond_site_symmetry_1
_geom_bond_site_symmetry_2
Ag1 C5 1_555 1_555
Fe1 N1 1_555 1_555
N1 C1 1_555 1_555
N2 Fe1 1_555 1_555
N3 C4 1_555 1_555
C1 H1 1_555 1_555
C2 C1 1_555 1_555
H2 C2 1_555 1_555
C3 C2 1_555 1_555
C4 C3 1_555 1_555
C5 N2 1_555 1_555
N4 C6 1_555 1_555
C6 H3 1_555 1_555
C7 C6 1_555 1_555
H4 C7 1_555 1_555
N1A C1A 1_555 1_555
N3A C4A 1_555 1_555
C1A H1A 1_555 1_555
C2A C1A 1_555 1_555
H2A C2A 1_555 1_555
C3A C2A 1_555 1_555
C4A N3 1_555 1_555
N1B C1B 1_555 1_555
N3B C4 1_555 1_555
C1B H1B 1_555 1_555
C2B C1B 1_555 1_555
H2B C2B 1_555 1_555
C3B C2B 1_555 1_555
C4B N3A 1_555 1_555
C1U N1 1_555 1_555
H1U C1U 1_555 1_555
C2U C3 1_555 1_555
H2U C2U 1_555 1_555
C1V N1B 1_555 1_555
H1V C1V 1_555 1_555
C2V C3B 1_555 1_555
H2V C2V 1_555 1_555
C1W N1A 1_555 1_555
H1W C1W 1_555 1_555
C2W C3A 1_555 1_555
H2W C2W 1_555 1_555
Fe1A N1A 1_555 1_555
N2A Fe1A 1_555 1_555
C5A N2A 1_555 1_555
Fe1B N1B 1_555 1_555
N2B Fe1B 1_555 1_555
C5B N2B 1_555 1_555
N1C Fe1 1_555 1_555
N2C Fe1 1_555 1_555
N3C C4C 1_555 1_555
C1C N1C 1_555 1_555
H1C C1C 1_555 1_555
C2C C1C 1_555 1_555
H2C C2C 1_555 1_555
C3C C2C 1_555 1_555
C4C C3C 1_555 1_555
C5C N2C 1_555 1_555
N1D C1D 1_555 1_555
N3D C4D 1_555 1_555
C1D H1D 1_555 1_555
C2D C1D 1_555 1_555
H2D C2D 1_555 1_555
C3D C2D 1_555 1_555
C4D N3C 1_555 1_555
N1E C1E 1_555 1_555
N3E C4C 1_555 1_555
C1E H1E 1_555 1_555
C2E C1E 1_555 1_555
H2E C2E 1_555 1_555
C3E C2E 1_555 1_555
C4E N3D 1_555 1_555
C1R N1C 1_555 1_555
H1R C1R 1_555 1_555
C2R C3C 1_555 1_555
H2R C2R 1_555 1_555
C1S N1E 1_555 1_555
H1S C1S 1_555 1_555
C2S C3E 1_555 1_555
H2S C2S 1_555 1_555
C1T N1D 1_555 1_555
H1T C1T 1_555 1_555
C2T C3D 1_555 1_555
H2T C2T 1_555 1_555
N2Q C5Q 1_555 1_555
C5Q Ag1 1_555 1_555
N2R Fe1 1_555 1_555
C5R N2R 1_555 1_555
N2S Fe1A 1_555 1_555
C5S N2S 1_555 1_555
N2T Fe1B 1_555 1_555
C5T N2T 1_555 1_555
N2U Fe1 1_555 1_555
C5U N2U 1_555 1_555
N2W Fe1A 1_555 1_555
C5W N2W 1_555 1_555
N2E Fe1A 1_555 1_555
C5E N2E 1_555 1_555
N2V Fe1B 1_555 1_555
C5V N2V 1_555 1_555
Ag1A C5A 1_555 1_555
Ag1B C5B 1_555 1_555
Ag1C C5C 1_555 1_555
Ag1R C5R 1_555 1_555
Ag1S C5S 1_555 1_555
Ag1E C5E 1_555 1_555
Ag1T C5T 1_555 1_555
Ag1U C5U 1_555 1_555
Ag1V C5V 1_555 1_555
Ag1W C5W 1_555 1_555
Fe1A_2 N1E 1_555 1_555
Fe1B_2 N1D 1_555 1_555
Fe1M N2Q 1_555 1_555
N1D_2 Fe1B 1_555 1_555
N1E_2 Fe1A 1_555 1_555
N2D Fe1B 1_555 1_555
C5H Ag1C 1_555 1_555
C5O Ag1B 1_555 1_555
C5P Ag1A 1_555 1_555
C5HA Ag1S 1_555 1_555
C5IA Ag1R 1_555 1_555
C6V N4 1_555 1_555
H3V C6V 1_555 1_555
C7V C7 1_555 1_555
H4V C7V 1_555 1_555
C3A C4A 1_555 1_555
N3B C4B 1_555 1_555
C3B C4B 1_555 1_555
C1U C2U 1_555 1_555
C1V C2V 1_555 1_555
C1W C2W 1_555 1_555
C3D C4D 1_555 1_555
N3E C4E 1_555 1_555
C3E C4E 1_555 1_555
C1R C2R 1_555 1_555
C1S C2S 1_555 1_555
C1T C2T 1_555 1_555
C6V C7V 1_555 1_555

#END
