
#######################################################################
#
#                 Cambridge Crystallographic Data Centre
#                                CCDC 
#
#######################################################################
#
# If this CIF has been generated from an entry in the Cambridge 
# Structural Database, then it will include bibliographic, chemical, 
# crystal, experimental, refinement or atomic coordinate data resulting 
# from the CCDC's data processing and validation procedures.
#
#######################################################################

data_YOYVOZ01
_symmetry_cell_setting           rhombohedral
_symmetry_space_group_name_H-M   'R -3 m'
_symmetry_Int_Tables_number      166
_space_group_name_Hall           '-R 3 2"'
loop_
_symmetry_equiv_pos_site_id
_symmetry_equiv_pos_as_xyz
1 x,y,z
2 -y,x-y,z
3 -x+y,-x,z
4 x-y,-y,-z
5 -x,-x+y,-z
6 y,x,-z
7 2/3+x,1/3+y,1/3+z
8 2/3-y,1/3+x-y,1/3+z
9 2/3-x+y,1/3-x,1/3+z
10 2/3+x-y,1/3-y,1/3-z
11 2/3-x,1/3-x+y,1/3-z
12 2/3+y,1/3+x,1/3-z
13 1/3+x,2/3+y,2/3+z
14 1/3-y,2/3+x-y,2/3+z
15 1/3-x+y,2/3-x,2/3+z
16 1/3+x-y,2/3-y,2/3-z
17 1/3-x,2/3-x+y,2/3-z
18 1/3+y,2/3+x,2/3-z
19 -x,-y,-z
20 y,-x+y,-z
21 x-y,x,-z
22 -x+y,y,z
23 x,x-y,z
24 -y,-x,z
25 1/3-x,2/3-y,2/3-z
26 1/3+y,2/3-x+y,2/3-z
27 1/3+x-y,2/3+x,2/3-z
28 1/3-x+y,2/3+y,2/3+z
29 1/3+x,2/3+x-y,2/3+z
30 1/3-y,2/3-x,2/3+z
31 2/3-x,1/3-y,1/3-z
32 2/3+y,1/3-x+y,1/3-z
33 2/3+x-y,1/3+x,1/3-z
34 2/3-x+y,1/3+y,1/3+z
35 2/3+x,1/3+x-y,1/3+z
36 2/3-y,1/3-x,1/3+z
_cell_length_a                   26.8078(12)
_cell_length_b                   26.8078(12)
_cell_length_c                   9.9406(6)
_cell_angle_alpha                90
_cell_angle_beta                 90
_cell_angle_gamma                120
_cell_volume                     6186.79
loop_
_atom_site_label
_atom_site_type_symbol
_atom_site_fract_x
_atom_site_fract_y
_atom_site_fract_z
C1 C 0.588(4) 0.091(4) 0.510(8)
S1 S 0.5360(18) 0.072(4) 0.587(8)
C2 C 0.589(3) 0.126(3) 0.392(6)
C1U C 0.503(6) 0.091(4) 0.510(8)
C2U C 0.537(4) 0.126(3) 0.392(6)
Au1 Au 1.0000 0.29173(3) 1.0000
Fe1 Fe 0.8333 0.1667 0.6667
N1 N 0.7866(3) 0.2134(3) 0.6729(15)
N2 N 0.8921(5) 0.2251(5) 0.8187(12)
N3 N 0.6363(3) 0.2727(7) 0.6700(15)
C3 C 0.7290(6) 0.1867(6) 0.6754(15)
H1 H 0.7089 0.1466 0.6761
C4 C 0.6978(6) 0.2139(6) 0.6769(15)
H2 H 0.6578 0.1929 0.6803
C5 C 0.7267(4) 0.2733(4) 0.6734(19)
C6 C 0.6950(4) 0.3050(4) 0.6740(18)
C7 C 0.9297(6) 0.2523(6) 0.8841(16)
N1A N 0.7866(3) 0.5732(4) 0.6729(15)
N3A N 0.7273(7) 0.3636(8) 0.6700(15)
C3A C 0.8133(6) 0.5423(8) 0.6754(15)
H1A H 0.8534 0.5623 0.6761
C4A C 0.7861(6) 0.4839(8) 0.6769(15)
H2A H 0.8071 0.4649 0.6803
C5A C 0.7267(4) 0.4534(6) 0.6734(19)
C6A C 0.6950(4) 0.3900(6) 0.6740(18)
N1B N 0.4268(4) 0.2134(3) 0.6729(15)
N3B N 0.6364(8) 0.3637(3) 0.6700(15)
C3B C 0.4577(8) 0.2710(6) 0.6754(15)
H1B H 0.4377 0.2911 0.6761
C4B C 0.5161(8) 0.3022(6) 0.6769(15)
H2B H 0.5351 0.3422 0.6803
C5B C 0.5466(6) 0.2733(4) 0.6734(19)
C6B C 0.6100(6) 0.3050(4) 0.6740(18)
C3U C 0.4577(8) 0.1867(6) 0.6754(15)
H1U H 0.4377 0.1466 0.6761
C4U C 0.5161(8) 0.2139(6) 0.6769(15)
H2U H 0.5351 0.1929 0.6803
C3V C 0.7290(6) 0.5423(8) 0.6754(15)
H1V H 0.7089 0.5623 0.6761
C4V C 0.6978(6) 0.4839(8) 0.6769(15)
H2V H 0.6578 0.4649 0.6803
C3W C 0.8133(6) 0.2710(6) 0.6754(15)
H1W H 0.8534 0.2911 0.6761
C4W C 0.7861(6) 0.3022(6) 0.6769(15)
H2W H 0.8071 0.3422 0.6803
Fe1A Fe 0.8333 0.6666 0.6667
N2A N 0.7749(5) 0.6670(7) 0.8187(12)
C7A C 0.7477(6) 0.6774(8) 0.8841(16)
Fe1B Fe 0.3334 0.1667 0.6667
N2B N 0.3330(7) 0.1079(5) 0.8187(12)
C7B C 0.3226(8) 0.0703(6) 0.8841(16)
N2D N 1.1079(5) 0.3330(7) 1.1813(12)
C7D C 1.0703(6) 0.3226(8) 1.1159(16)
N2K N 0.8918(5) 0.2254(5) 0.5146(12)
C7K C 0.9190(6) 0.2630(6) 0.4492(16)
Au1R Au 1.0000 0.70827(3) 1.0000
N2R N 1.1079(5) 0.7749(5) 1.1813(12)
C7R C 1.0703(6) 0.7477(6) 1.1159(16)
Au1S Au 0.29173(3) 0.29173(3) 1.0000
N2U N 0.3330(7) 0.2251(5) 0.8187(12)
C7U C 0.3226(8) 0.2523(6) 0.8841(16)
N2V N 0.8921(5) 0.6670(7) 0.8187(12)
C7V C 0.9297(6) 0.6774(8) 0.8841(16)
Au1T Au 0.70827(3) 0.0000 1.0000
N2W N 0.7749(5) 0.1079(5) 0.8187(12)
C7W C 0.7477(6) 0.0703(6) 0.8841(16)
N2DA N 0.7746(5) 0.1082(5) 0.5146(12)
C7DA C 0.7370(6) 0.0810(6) 0.4492(16)
N2EA N 0.8918(5) 0.6663(7) 0.5146(12)
C7EA C 0.9190(6) 0.6559(8) 0.4492(16)
N1I N 0.2399(4) 0.1199(3) 0.6604(15)
N3J N 0.0304(3) -0.0303(8) 0.6633(15)
C3FA C 0.2090(8) 0.0623(6) 0.6579(15)
H1FA H 0.2290 0.0422 0.6572
C4FA C 0.1506(8) 0.0311(6) 0.6564(15)
H2FA H 0.1316 -0.0089 0.6530
C5I C 0.1201(6) 0.0600(4) 0.6599(19)
C6I C 0.0567(6) 0.0283(4) 0.6593(18)
N1K N -0.1199(3) 0.1199(3) 0.6604(15)
N3I N 0.0303(8) 0.0606(7) 0.6633(15)
C3DA C -0.0623(6) 0.1466(6) 0.6579(15)
H1DA H -0.0422 0.1867 0.6572
C4DA C -0.0311(6) 0.1194(6) 0.6564(15)
H2DA H 0.0089 0.1404 0.6530
C5K C -0.0600(4) 0.0600(4) 0.6599(19)
C6K C -0.0283(4) 0.0283(4) 0.6593(18)
N1J N -0.1199(3) -0.2399(4) 0.6604(15)
N3K N -0.0606(7) -0.0304(3) 0.6633(15)
C3EA C -0.1466(6) -0.2090(8) 0.6579(15)
H1EA H -0.1867 -0.2290 0.6572
C4EA C -0.1194(6) -0.1506(8) 0.6564(15)
H2EA H -0.1404 -0.1316 0.6530
C5J C -0.0600(4) -0.1201(6) 0.6599(19)
C6J C -0.0283(4) -0.0567(6) 0.6593(18)
C3J C -0.0623(6) -0.2090(8) 0.6579(15)
H1J H -0.0422 -0.2290 0.6572
C4J C -0.0311(6) -0.1506(8) 0.6564(15)
H2J H 0.0089 -0.1316 0.6530
C3K C -0.1466(6) 0.0623(6) 0.6579(15)
H1K H -0.1867 0.0422 0.6572
C4K C -0.1194(6) 0.0311(6) 0.6564(15)
H2K H -0.1404 -0.0089 0.6530
C3I C 0.2090(8) 0.1466(6) 0.6579(15)
H1I H 0.2290 0.1867 0.6572
C4I C 0.1506(8) 0.1194(6) 0.6564(15)
H2I H 0.1316 0.1404 0.6530
N2J N 0.7746(5) 0.6663(7) 0.5146(12)
C7J C 0.7370(6) 0.6559(8) 0.4492(16)
Au1A Au 0.70827(3) 0.70827(3) 1.0000
Au1B Au 0.29173(3) 0.0000 1.0000
Au1F Au 0.6667 0.62506(3) 0.3333
Au1H Au 0.95840(3) 0.3333 0.3333
Au1DA Au 0.6667 0.04160(3) 0.3333
Au1EA Au 0.95840(3) 0.62506(3) 0.3333
Fe1_2 Fe -0.1667 0.1667 0.6667
Fe1A_2 Fe -0.1667 -0.3334 0.6667
Fe1D Fe 1.1667 0.3334 1.3333
Fe1E Fe 1.1667 0.8333 1.3333
N1J_2 N 0.8801(3) 0.7601(4) 0.6604(15)
N1K_2 N 0.8801(3) 0.1199(3) 0.6604(15)
N2I N 0.3337(7) 0.1082(5) 0.5146(12)
N2FA N 0.3337(7) 0.2254(5) 0.5146(12)
C7C C 0.6774(8) 0.7477(6) 1.1159(16)
C7E C 0.2523(6) -0.0703(6) 1.1159(16)
C7S C 0.2523(6) 0.3226(8) 1.1159(16)
C7T C 0.6774(8) -0.0703(6) 1.1159(16)
loop_
_geom_bond_atom_site_label_1
_geom_bond_atom_site_label_2
_geom_bond_site_symmetry_1
_geom_bond_site_symmetry_2
C1 S1 1_555 1_555
S1 C1U 1_555 1_555
C2 C1 1_555 1_555
Au1 C7 1_555 1_555
Fe1 N1 1_555 1_555
N1 C3 1_555 1_555
N2 Fe1 1_555 1_555
N3 C6 1_555 1_555
C3 H1 1_555 1_555
C4 C3 1_555 1_555
H2 C4 1_555 1_555
C5 C4 1_555 1_555
C6 C5 1_555 1_555
C7 N2 1_555 1_555
C1U C2U 1_555 1_555
C2U C2 1_555 1_555
N1A C3A 1_555 1_555
N3A C6 1_555 1_555
C3A H1A 1_555 1_555
C4A C3A 1_555 1_555
H2A C4A 1_555 1_555
C5A C4A 1_555 1_555
C6A N3A 1_555 1_555
N1B C3B 1_555 1_555
N3B C6A 1_555 1_555
C3B H1B 1_555 1_555
C4B C3B 1_555 1_555
H2B C4B 1_555 1_555
C5B C4B 1_555 1_555
C6B N3 1_555 1_555
C3U N1B 1_555 1_555
H1U C3U 1_555 1_555
C4U C5B 1_555 1_555
H2U C4U 1_555 1_555
C3V N1A 1_555 1_555
H1V C3V 1_555 1_555
C4V C5A 1_555 1_555
H2V C4V 1_555 1_555
C3W N1 1_555 1_555
H1W C3W 1_555 1_555
C4W C5 1_555 1_555
H2W C4W 1_555 1_555
Fe1A N1A 1_555 1_555
N2A Fe1A 1_555 1_555
C7A N2A 1_555 1_555
Fe1B N1B 1_555 1_555
N2B Fe1B 1_555 1_555
C7B N2B 1_555 1_555
N2D C7D 1_555 1_555
C7D Au1 1_555 1_555
N2K Fe1 1_555 1_555
C7K N2K 1_555 1_555
Au1R C7R 1_555 1_555
N2R C7R 1_555 1_555
Au1S C7U 1_555 1_555
N2U Fe1B 1_555 1_555
C7U N2U 1_555 1_555
N2V Fe1A 1_555 1_555
C7V Au1R 1_555 1_555
Au1T C7W 1_555 1_555
N2W Fe1 1_555 1_555
C7W N2W 1_555 1_555
N2DA Fe1 1_555 1_555
C7DA N2DA 1_555 1_555
N2EA Fe1A 1_555 1_555
C7EA N2EA 1_555 1_555
N1I Fe1B 1_555 1_555
N3J C6I 1_555 1_555
C3FA N1I 1_555 1_555
H1FA C3FA 1_555 1_555
C4FA C3FA 1_555 1_555
H2FA C4FA 1_555 1_555
C5I C4FA 1_555 1_555
C6I C5I 1_555 1_555
N1K C3DA 1_555 1_555
N3I C6I 1_555 1_555
C3DA H1DA 1_555 1_555
C4DA C3DA 1_555 1_555
H2DA C4DA 1_555 1_555
C5K C4DA 1_555 1_555
C6K N3I 1_555 1_555
N1J C3EA 1_555 1_555
N3K C6K 1_555 1_555
C3EA H1EA 1_555 1_555
C4EA C3EA 1_555 1_555
H2EA C4EA 1_555 1_555
C5J C4EA 1_555 1_555
C6J N3J 1_555 1_555
C3J N1J 1_555 1_555
H1J C3J 1_555 1_555
C4J C5J 1_555 1_555
H2J C4J 1_555 1_555
C3K N1K 1_555 1_555
H1K C3K 1_555 1_555
C4K C5K 1_555 1_555
H2K C4K 1_555 1_555
C3I N1I 1_555 1_555
H1I C3I 1_555 1_555
C4I C5I 1_555 1_555
H2I C4I 1_555 1_555
N2J Fe1A 1_555 1_555
C7J N2J 1_555 1_555
Au1A C7A 1_555 1_555
Au1B C7B 1_555 1_555
Au1F C7J 1_555 1_555
Au1H C7K 1_555 1_555
Au1DA C7DA 1_555 1_555
Au1EA C7EA 1_555 1_555
Fe1_2 N1K 1_555 1_555
Fe1A_2 N1J 1_555 1_555
Fe1D N2D 1_555 1_555
Fe1E N2R 1_555 1_555
N1J_2 Fe1A 1_555 1_555
N1K_2 Fe1 1_555 1_555
N2I Fe1B 1_555 1_555
N2FA Fe1B 1_555 1_555
C7C Au1A 1_555 1_555
C7E Au1B 1_555 1_555
C7S Au1S 1_555 1_555
C7T Au1T 1_555 1_555
C5A C6A 1_555 1_555
N3B C6B 1_555 1_555
C5B C6B 1_555 1_555
C3U C4U 1_555 1_555
C3V C4V 1_555 1_555
C3W C4W 1_555 1_555
N2V C7V 1_555 1_555
C5K C6K 1_555 1_555
N3K C6J 1_555 1_555
C5J C6J 1_555 1_555
C3J C4J 1_555 1_555
C3K C4K 1_555 1_555
C3I C4I 1_555 1_555

#END
