
#######################################################################
#
#                 Cambridge Crystallographic Data Centre
#                                CCDC 
#
#######################################################################
#
# If this CIF has been generated from an entry in the Cambridge 
# Structural Database, then it will include bibliographic, chemical, 
# crystal, experimental, refinement or atomic coordinate data resulting 
# from the CCDC's data processing and validation procedures.
#
#######################################################################

data_YOYVEP01
_symmetry_cell_setting           rhombohedral
_symmetry_space_group_name_H-M   'R -3 m'
_symmetry_Int_Tables_number      166
_space_group_name_Hall           '-R 3 2"'
loop_
_symmetry_equiv_pos_site_id
_symmetry_equiv_pos_as_xyz
1 x,y,z
2 -y,x-y,z
3 -x+y,-x,z
4 x-y,-y,-z
5 -x,-x+y,-z
6 y,x,-z
7 2/3+x,1/3+y,1/3+z
8 2/3-y,1/3+x-y,1/3+z
9 2/3-x+y,1/3-x,1/3+z
10 2/3+x-y,1/3-y,1/3-z
11 2/3-x,1/3-x+y,1/3-z
12 2/3+y,1/3+x,1/3-z
13 1/3+x,2/3+y,2/3+z
14 1/3-y,2/3+x-y,2/3+z
15 1/3-x+y,2/3-x,2/3+z
16 1/3+x-y,2/3-y,2/3-z
17 1/3-x,2/3-x+y,2/3-z
18 1/3+y,2/3+x,2/3-z
19 -x,-y,-z
20 y,-x+y,-z
21 x-y,x,-z
22 -x+y,y,z
23 x,x-y,z
24 -y,-x,z
25 1/3-x,2/3-y,2/3-z
26 1/3+y,2/3-x+y,2/3-z
27 1/3+x-y,2/3+x,2/3-z
28 1/3-x+y,2/3+y,2/3+z
29 1/3+x,2/3+x-y,2/3+z
30 1/3-y,2/3-x,2/3+z
31 2/3-x,1/3-y,1/3-z
32 2/3+y,1/3-x+y,1/3-z
33 2/3+x-y,1/3+x,1/3-z
34 2/3-x+y,1/3+y,1/3+z
35 2/3+x,1/3+x-y,1/3+z
36 2/3-y,1/3-x,1/3+z
_cell_length_a                   26.9010(14)
_cell_length_b                   26.9010(14)
_cell_length_c                   9.7742(8)
_cell_angle_alpha                90
_cell_angle_beta                 90
_cell_angle_gamma                120
_cell_volume                     6125.6
loop_
_atom_site_label
_atom_site_type_symbol
_atom_site_fract_x
_atom_site_fract_y
_atom_site_fract_z
Au1 Au 0.6667 0.039930(15) 0.3333
Fe1 Fe 0.5000 0.0000 0.0000
N1 N 0.54715(15) 0.0943(3) 0.0002(8)
N2 N 0.5580(2) -0.0008(2) 0.1521(6)
N3 N 0.69609(14) 0.30391(14) -0.0004(7)
C1 C 0.6044(3) 0.1240(3) -0.0002(8)
H1 H 0.6242 0.1039 -0.0003
C2 C 0.6356(3) 0.1835(3) -0.0003(8)
H2 H 0.6755 0.2027 -0.0003
C3 C 0.60680(18) 0.2136(4) -0.0005(9)
C4 C 0.63860(16) 0.2772(3) -0.0015(8)
C5 C 0.5971(3) 0.0103(3) 0.2178(8)
N1A N 0.9057(3) 0.45285(34) 0.0002(8)
N3A N 0.69609(14) 0.39218(20) -0.0004(7)
C1A C 0.8760(3) 0.4804(4) -0.0002(8)
H1A H 0.8961 0.5203 -0.0003
C2A C 0.8165(3) 0.4521(4) -0.0003(8)
H2A H 0.7973 0.4728 -0.0003
C3A C 0.7864(4) 0.39320(44) -0.0005(9)
C4A C 0.7228(3) 0.36140(34) -0.0015(8)
N1B N 0.54715(34) 0.45285(15) 0.0002(8)
N3B N 0.60782(20) 0.30391(14) -0.0004(7)
C1B C 0.5196(4) 0.3956(3) -0.0002(8)
H1B H 0.4797 0.3758 -0.0003
C2B C 0.5479(4) 0.3644(3) -0.0003(8)
H2B H 0.5272 0.3245 -0.0003
C3B C 0.60680(44) 0.39320(18) -0.0005(9)
C4B C 0.63860(34) 0.36140(16) -0.0015(8)
C1U C 0.5196(4) 0.1240(3) -0.0002(8)
H1U H 0.4797 0.1039 -0.0003
C2U C 0.5479(4) 0.1835(3) -0.0003(8)
H2U H 0.5272 0.2027 -0.0003
C1V C 0.6044(3) 0.4804(4) -0.0002(8)
H1V H 0.6242 0.5203 -0.0003
C2V C 0.6356(3) 0.4521(4) -0.0003(8)
H2V H 0.6755 0.4728 -0.0003
C1W C 0.8760(3) 0.3956(3) -0.0002(8)
H1W H 0.8961 0.3758 -0.0003
C2W C 0.8165(3) 0.3644(3) -0.0003(8)
H2W H 0.7973 0.3245 -0.0003
Au1A Au 0.960070(15) 0.626770(15) 0.3333
Fe1A Fe 1.0000 0.5000 0.0000
N2A N 1.0008(2) 0.5588(3) 0.1521(6)
C5A C 0.9897(3) 0.5868(4) 0.2178(8)
Au1B Au 0.373230(15) 0.3333 0.3333
Fe1B Fe 0.5000 0.5000 0.0000
N2B N 0.4412(3) 0.4420(2) 0.1521(6)
C5B C 0.4132(4) 0.4029(3) 0.2178(8)
N2O N 0.8921(3) 0.6675(2) 0.5146(6)
C5O C 0.9201(4) 0.6564(3) 0.4489(8)
N2P N 0.7753(2) 0.1079(3) 0.5146(6)
C5P C 0.7362(3) 0.0799(4) 0.4489(8)
N2Q N 0.3325(2) 0.2247(2) 0.5146(6)
C5Q C 0.3436(3) 0.2638(3) 0.4489(8)
Au1U Au 0.373230(15) 0.039930(15) 0.3333
N2U N 0.4412(3) -0.0008(2) 0.1521(6)
C5U C 0.4132(4) 0.0103(3) 0.2178(8)
Au1V Au 0.6667 0.626770(15) 0.3333
N2V N 0.5580(2) 0.5588(3) 0.1521(6)
C5V C 0.5971(3) 0.5868(4) 0.2178(8)
Au1W Au 0.960070(15) 0.3333 0.3333
N2W N 1.0008(2) 0.4420(2) 0.1521(6)
C5W C 0.9897(3) 0.4029(3) 0.2178(8)
N2X N 0.7753(2) 0.6675(2) 0.5146(6)
C5X C 0.7362(3) 0.6564(3) 0.4489(8)
N2Y N 0.3325(2) 0.1079(3) 0.5146(6)
C5Y C 0.3436(3) 0.0799(4) 0.4489(8)
N2Z N 0.8921(3) 0.2247(2) 0.5146(6)
C5Z C 0.9201(4) 0.2638(3) 0.4489(8)
N1C N 0.45285(34) -0.0943(3) -0.0002(8)
N3C N 0.39218(20) -0.30391(14) 0.0004(7)
C1C C 0.4804(4) -0.1240(3) 0.0002(8)
H1C H 0.5203 -0.1039 0.0003
C2C C 0.4521(4) -0.1835(3) 0.0003(8)
H2C H 0.4728 -0.2027 0.0003
C3C C 0.39320(44) -0.2136(4) 0.0005(9)
C4C C 0.36140(34) -0.2772(3) 0.0015(8)
N1D N 0.45285(15) -0.45285(34) -0.0002(8)
N3D N 0.30391(14) -0.39218(20) 0.0004(7)
C1D C 0.3956(3) -0.4804(4) 0.0002(8)
H1D H 0.3758 -0.5203 0.0003
C2D C 0.3644(3) -0.4521(4) 0.0003(8)
H2D H 0.3245 -0.4728 0.0003
C3D C 0.39320(18) -0.39320(44) 0.0005(9)
C4D C 0.36140(16) -0.36140(34) 0.0015(8)
N1E N 0.0943(3) -0.45285(15) -0.0002(8)
N3E N 0.30391(14) -0.30391(14) 0.0004(7)
C1E C 0.1240(3) -0.3956(3) 0.0002(8)
H1E H 0.1039 -0.3758 0.0003
C2E C 0.1835(3) -0.3644(3) 0.0003(8)
H2E H 0.2027 -0.3245 0.0003
C3E C 0.2136(4) -0.39320(18) 0.0005(9)
C4E C 0.2772(3) -0.36140(16) 0.0015(8)
C1R C 0.3956(3) -0.1240(3) 0.0002(8)
H1R H 0.3758 -0.1039 0.0003
C2R C 0.3644(3) -0.1835(3) 0.0003(8)
H2R H 0.3245 -0.2027 0.0003
C1S C 0.1240(3) -0.4804(4) 0.0002(8)
H1S H 0.1039 -0.5203 0.0003
C2S C 0.1835(3) -0.4521(4) 0.0003(8)
H2S H 0.2027 -0.4728 0.0003
C1T C 0.4804(4) -0.3956(3) 0.0002(8)
H1T H 0.5203 -0.3758 0.0003
C2T C 0.4521(4) -0.3644(3) 0.0003(8)
H2T H 0.4728 -0.3245 0.0003
Fe1A_2 Fe 0.0000 -0.5000 0.0000
Fe1B_2 Fe 0.5000 -0.5000 0.0000
Fe1L Fe 0.8333 0.6667 0.6667
Fe1M Fe 0.3333 0.1667 0.6667
Fe1N Fe 0.8333 0.1667 0.6667
N1D_2 N 0.45285(15) 0.54715(34) -0.0002(8)
N1E_2 N 1.0943(3) 0.54715(15) -0.0002(8)
N2C N 0.5588(3) 0.0008(2) -0.1521(6)
N2D N 0.4420(2) 0.4412(3) -0.1521(6)
N2E N 0.9992(2) 0.5580(2) -0.1521(6)
N2R N 0.4420(2) 0.0008(2) -0.1521(6)
N2S N 0.9992(2) 0.4412(3) -0.1521(6)
N2T N 0.5588(3) 0.5580(2) -0.1521(6)
N4 N 0.8012(5) 0.1988(5) 0.074(3)
C6 C 0.7492(9) 0.2029(9) 0.257(3)
H3 H 0.7195 0.1911 0.3202
C7 C 0.7513(9) 0.1710(10) 0.138(3)
H4 H 0.7211 0.1355 0.1109
C6W C 0.7971(9) 0.2508(9) 0.257(3)
H3W H 0.8089 0.2805 0.3202
C7W C 0.8290(10) 0.2487(9) 0.138(3)
H4W H 0.8645 0.2789 0.1109
loop_
_geom_bond_atom_site_label_1
_geom_bond_atom_site_label_2
_geom_bond_site_symmetry_1
_geom_bond_site_symmetry_2
Au1 C5 1_555 1_555
Fe1 N1 1_555 1_555
N1 C1 1_555 1_555
N2 Fe1 1_555 1_555
N3 C4 1_555 1_555
C1 H1 1_555 1_555
C2 C1 1_555 1_555
H2 C2 1_555 1_555
C3 C2 1_555 1_555
C4 C3 1_555 1_555
C5 N2 1_555 1_555
N4 C7 1_555 1_555
C6 H3 1_555 1_555
C7 C6 1_555 1_555
H4 C7 1_555 1_555
N1A C1A 1_555 1_555
N3A C4A 1_555 1_555
C1A H1A 1_555 1_555
C2A C1A 1_555 1_555
H2A C2A 1_555 1_555
C3A C2A 1_555 1_555
C4A N3 1_555 1_555
N1B C1B 1_555 1_555
N3B C4 1_555 1_555
C1B H1B 1_555 1_555
C2B C1B 1_555 1_555
H2B C2B 1_555 1_555
C3B C2B 1_555 1_555
C4B N3A 1_555 1_555
C1U N1 1_555 1_555
H1U C1U 1_555 1_555
C2U C3 1_555 1_555
H2U C2U 1_555 1_555
C1V N1B 1_555 1_555
H1V C1V 1_555 1_555
C2V C3B 1_555 1_555
H2V C2V 1_555 1_555
C1W N1A 1_555 1_555
H1W C1W 1_555 1_555
C2W C3A 1_555 1_555
H2W C2W 1_555 1_555
Au1A C5A 1_555 1_555
Fe1A N1A 1_555 1_555
N2A Fe1A 1_555 1_555
C5A N2A 1_555 1_555
Au1B C5B 1_555 1_555
Fe1B N1B 1_555 1_555
N2B Fe1B 1_555 1_555
C5B N2B 1_555 1_555
N2O C5O 1_555 1_555
C5O Au1A 1_555 1_555
N2P C5P 1_555 1_555
C5P Au1 1_555 1_555
N2Q C5Q 1_555 1_555
C5Q Au1B 1_555 1_555
Au1U C5U 1_555 1_555
N2U Fe1 1_555 1_555
C5U N2U 1_555 1_555
Au1V C5V 1_555 1_555
N2V Fe1B 1_555 1_555
C5V N2V 1_555 1_555
Au1W C5W 1_555 1_555
N2W Fe1A 1_555 1_555
C5W N2W 1_555 1_555
N2X C5X 1_555 1_555
C5X Au1V 1_555 1_555
N2Y C5Y 1_555 1_555
C5Y Au1U 1_555 1_555
N2Z C5Z 1_555 1_555
C5Z Au1W 1_555 1_555
N1C Fe1 1_555 1_555
N3C C4C 1_555 1_555
C1C N1C 1_555 1_555
H1C C1C 1_555 1_555
C2C C1C 1_555 1_555
H2C C2C 1_555 1_555
C3C C2C 1_555 1_555
C4C C3C 1_555 1_555
N1D C1D 1_555 1_555
N3D C4D 1_555 1_555
C1D H1D 1_555 1_555
C2D C1D 1_555 1_555
H2D C2D 1_555 1_555
C3D C2D 1_555 1_555
C4D N3C 1_555 1_555
N1E C1E 1_555 1_555
N3E C4C 1_555 1_555
C1E H1E 1_555 1_555
C2E C1E 1_555 1_555
H2E C2E 1_555 1_555
C3E C2E 1_555 1_555
C4E N3D 1_555 1_555
C1R N1C 1_555 1_555
H1R C1R 1_555 1_555
C2R C3C 1_555 1_555
H2R C2R 1_555 1_555
C1S N1E 1_555 1_555
H1S C1S 1_555 1_555
C2S C3E 1_555 1_555
H2S C2S 1_555 1_555
C1T N1D 1_555 1_555
H1T C1T 1_555 1_555
C2T C3D 1_555 1_555
H2T C2T 1_555 1_555
Fe1A_2 N1E 1_555 1_555
Fe1B_2 N1D 1_555 1_555
Fe1L N2O 1_555 1_555
Fe1M N2Q 1_555 1_555
Fe1N N2P 1_555 1_555
N1D_2 Fe1B 1_555 1_555
N1E_2 Fe1A 1_555 1_555
N2C Fe1 1_555 1_555
N2D Fe1B 1_555 1_555
N2E Fe1A 1_555 1_555
N2R Fe1 1_555 1_555
N2S Fe1A 1_555 1_555
N2T Fe1B 1_555 1_555
C6W C6 1_555 1_555
H3W C6W 1_555 1_555
C7W N4 1_555 1_555
H4W C7W 1_555 1_555
C3A C4A 1_555 1_555
N3B C4B 1_555 1_555
C3B C4B 1_555 1_555
C1U C2U 1_555 1_555
C1V C2V 1_555 1_555
C1W C2W 1_555 1_555
N2X Fe1L 1_555 1_555
N2Y Fe1M 1_555 1_555
N2Z Fe1N 1_555 1_555
C3D C4D 1_555 1_555
N3E C4E 1_555 1_555
C3E C4E 1_555 1_555
C1R C2R 1_555 1_555
C1S C2S 1_555 1_555
C1T C2T 1_555 1_555
C6W C7W 1_555 1_555

#END
