
#######################################################################
#
#                 Cambridge Crystallographic Data Centre
#                                CCDC 
#
#######################################################################
#
# If this CIF has been generated from an entry in the Cambridge 
# Structural Database, then it will include bibliographic, chemical, 
# crystal, experimental, refinement or atomic coordinate data resulting 
# from the CCDC's data processing and validation procedures.
#
#######################################################################

data_YOYWEQ01
_symmetry_cell_setting           rhombohedral
_symmetry_space_group_name_H-M   'R -3 m'
_symmetry_Int_Tables_number      166
_space_group_name_Hall           '-R 3 2"'
loop_
_symmetry_equiv_pos_site_id
_symmetry_equiv_pos_as_xyz
1 x,y,z
2 -y,x-y,z
3 -x+y,-x,z
4 x-y,-y,-z
5 -x,-x+y,-z
6 y,x,-z
7 2/3+x,1/3+y,1/3+z
8 2/3-y,1/3+x-y,1/3+z
9 2/3-x+y,1/3-x,1/3+z
10 2/3+x-y,1/3-y,1/3-z
11 2/3-x,1/3-x+y,1/3-z
12 2/3+y,1/3+x,1/3-z
13 1/3+x,2/3+y,2/3+z
14 1/3-y,2/3+x-y,2/3+z
15 1/3-x+y,2/3-x,2/3+z
16 1/3+x-y,2/3-y,2/3-z
17 1/3-x,2/3-x+y,2/3-z
18 1/3+y,2/3+x,2/3-z
19 -x,-y,-z
20 y,-x+y,-z
21 x-y,x,-z
22 -x+y,y,z
23 x,x-y,z
24 -y,-x,z
25 1/3-x,2/3-y,2/3-z
26 1/3+y,2/3-x+y,2/3-z
27 1/3+x-y,2/3+x,2/3-z
28 1/3-x+y,2/3+y,2/3+z
29 1/3+x,2/3+x-y,2/3+z
30 1/3-y,2/3-x,2/3+z
31 2/3-x,1/3-y,1/3-z
32 2/3+y,1/3-x+y,1/3-z
33 2/3+x-y,1/3+x,1/3-z
34 2/3-x+y,1/3+y,1/3+z
35 2/3+x,1/3+x-y,1/3+z
36 2/3-y,1/3-x,1/3+z
_cell_length_a                   26.1934(10)
_cell_length_b                   26.1934(10)
_cell_length_c                   9.3978(8)
_cell_angle_alpha                90
_cell_angle_beta                 90
_cell_angle_gamma                120
_cell_volume                     5583.94
loop_
_atom_site_label
_atom_site_type_symbol
_atom_site_fract_x
_atom_site_fract_y
_atom_site_fract_z
Au1 Au 0.0000 0.293770(16) 0.0000
C1 C 0.0730(3) 0.3235(3) 0.1161(9)
N1 N 0.1120(3) 0.3311(3) 0.1893(7)
Fe1 Fe 0.1667 0.3333 0.3333
N2 N 0.21048(17) 0.4210(3) 0.3298(10)
C2 C 0.1515(4) 0.2153(5) 0.3397(9)
H1 H 0.1926 0.2361 0.3429
C3 C 0.1226(4) 0.1541(5) 0.3379(10)
H2 H 0.1442 0.1347 0.3384
C4 C 0.0609(5) 0.1219(5) 0.3353(17)
C5 C 0.0290(4) 0.0581(4) 0.3339(15)
N3 N 0.0605(3) 0.0303(4) 0.3325(14)
C1D C -0.0730(3) 0.2505(4) -0.1161(9)
N1D N -0.1120(3) 0.2191(4) -0.1893(7)
Fe1D Fe -0.1667 0.1666 -0.3333
N1O N 0.1142(4) 0.3356(3) 0.4774(7)
N1U N 0.2191(4) 0.3311(3) 0.1893(7)
N2O N 0.12281(34) 0.2457(3) 0.3369(10)
N1X N 0.2213(3) 0.3356(3) 0.4774(7)
C1O C 0.0828(4) 0.3432(3) 0.5506(9)
C1U C 0.2505(4) 0.3235(3) 0.1161(9)
C2U C 0.0638(6) 0.2153(5) 0.3397(9)
C1X C 0.2603(3) 0.3432(3) 0.5506(9)
C1T C -0.2505(4) 0.0730(3) -0.1161(9)
Au1M Au 0.039563(16) 0.372897(16) 0.6667
Au1S Au 0.293770(16) 0.293770(16) 0.0000
H1U H 0.0435 0.2361 0.3429
C3U C 0.0315(6) 0.1541(5) 0.3379(10)
Au1X Au 0.3333 0.372897(16) 0.6667
Au1T Au -0.293770(16) 0.0000 0.0000
C1M C 0.0098(3) 0.4162(4) 0.7828(9)
C1S C 0.3235(3) 0.2505(4) -0.1161(9)
H2U H -0.0095 0.1347 0.3384
C1W C -0.3235(3) -0.0730(3) 0.1161(9)
N1W N -0.3311(3) -0.1120(3) 0.1893(7)
N3A N -0.0303(4) 0.0302(5) 0.3325(14)
Fe1A Fe -0.3333 -0.1666 0.3333
C5B C 0.0291(6) -0.0290(4) 0.3339(15)
C5A C -0.0581(4) -0.0291(6) 0.3339(15)
N2Q N -0.2457(3) -0.12285(17) 0.3369(10)
N1Q N -0.3356(3) -0.2213(3) 0.4774(7)
N1A N -0.3311(3) -0.2191(4) 0.1893(7)
N2A N -0.4210(3) -0.21052(34) 0.3298(10)
N1Y N -0.3356(3) -0.1142(4) 0.4774(7)
N3B N -0.0302(5) -0.0605(3) 0.3325(14)
C4B C 0.0610(7) -0.0609(5) 0.3353(17)
C4A C -0.1219(5) -0.0610(7) 0.3353(17)
C2A C -0.2153(5) -0.0638(6) 0.3397(9)
C2W C -0.2153(5) -0.1515(4) 0.3397(9)
C1Q C -0.3432(3) -0.2603(3) 0.5506(9)
Au1B Au 0.293770(16) 0.0000 0.0000
C3B C 0.0315(6) -0.1226(4) 0.3379(10)
C3V C 0.1226(4) -0.0315(6) 0.3379(10)
C3A C -0.1541(5) -0.0315(6) 0.3379(10)
C3W C -0.1541(5) -0.1226(4) 0.3379(10)
H1A H -0.2361 -0.0435 0.3429
H1W H -0.2361 -0.1926 0.3429
Au1N Au -0.372897(16) -0.3333 0.6667
C1B C 0.2505(4) -0.0730(3) 0.1161(9)
C2B C 0.0638(6) -0.1515(4) 0.3397(9)
H2B H -0.0095 -0.1442 0.3384
C2V C 0.1515(4) -0.0638(6) 0.3397(9)
H2V H 0.1442 0.0095 0.3384
H2A H -0.1347 0.0095 0.3384
H2W H -0.1347 -0.1442 0.3384
N1B N 0.2191(4) -0.1120(3) 0.1893(7)
N2P N 0.12285(17) -0.12281(34) 0.3369(10)
H1B H 0.0435 -0.1926 0.3429
H1V H 0.1926 -0.0435 0.3429
Fe1B Fe 0.1666 -0.1667 0.3333
N1P N 0.2213(3) -0.1142(4) 0.4774(7)
N2B N 0.21052(34) -0.21048(17) 0.3298(10)
N1V N 0.1120(3) -0.2191(4) 0.1893(7)
N1Z N 0.1142(4) -0.2213(3) 0.4774(7)
C1P C 0.2603(3) -0.0828(4) 0.5506(9)
C2P C 0.1818(4) -0.2695(6) 0.3270(9)
C2Z C 0.2695(6) -0.1818(4) 0.3270(9)
C1V C 0.0730(3) -0.2505(4) 0.1161(9)
C1Z C 0.0828(4) -0.2603(3) 0.5506(9)
Au1L Au 0.3333 -0.039563(16) 0.6667
C3P C 0.2107(4) -0.3018(6) 0.3288(10)
H1P H 0.1407 -0.2898 0.3238
C3Z C 0.3018(6) -0.2107(4) 0.3288(10)
H1Z H 0.2898 -0.1407 0.3238
Au1R Au 0.0000 -0.293770(16) 0.0000
Au1Z Au 0.039563(16) -0.3333 0.6667
C1L C 0.4063(3) -0.0098(3) 0.7828(9)
H2P H 0.1891 -0.3428 0.3283
C4P C 0.2724(5) -0.2723(7) 0.3314(17)
H2Z H 0.3428 -0.1891 0.3283
C1R C -0.0730(3) -0.3235(3) -0.1161(9)
N1L N 0.4453(3) -0.0022(3) 0.8560(7)
C5P C 0.3043(4) -0.3042(6) 0.3328(15)
Fe1I Fe 0.5001 0.0000 1.0000
N3Q N 0.3636(4) -0.2728(3) 0.3342(14)
N3P N 0.2728(3) -0.3635(5) 0.3342(14)
C5Q C 0.3914(4) -0.3043(4) 0.3328(15)
C5O C 0.3042(6) -0.3914(4) 0.3328(15)
C4Q C 0.4552(5) -0.2724(5) 0.3314(17)
N3O N 0.3635(5) -0.3636(4) 0.3342(14)
C4O C 0.2723(7) -0.4552(5) 0.3314(17)
C3Y C 0.4874(5) -0.3018(6) 0.3288(10)
C3Q C 0.4874(5) -0.2107(4) 0.3288(10)
C3O C 0.3018(6) -0.4874(5) 0.3288(10)
C3X C 0.2107(4) -0.4874(5) 0.3288(10)
C2Y C 0.5486(5) -0.2695(6) 0.3270(9)
H2Y H 0.4680 -0.3428 0.3283
C2Q C 0.5486(5) -0.1818(4) 0.3270(9)
H2Q H 0.4680 -0.1891 0.3283
C2O C 0.2695(6) -0.5486(5) 0.3270(9)
H2O H 0.3428 -0.4680 0.3283
C2X C 0.1818(4) -0.5486(5) 0.3270(9)
H2X H 0.1891 -0.4680 0.3283
N2A_2 N 0.5790(3) -0.21052(34) 0.3298(10)
H1Y H 0.5694 -0.2898 0.3238
H1Q H 0.5694 -0.1407 0.3238
N2_2 N 0.21048(17) -0.5790(3) 0.3298(10)
H1O H 0.2898 -0.5694 0.3238
H1X H 0.1407 -0.5694 0.3238
Fe1A_2 Fe 0.6667 -0.1666 0.3333
Fe1_2 Fe 0.1667 -0.6667 0.3333
C6 C 0.2359(12) 0.1575(6) 0.177(3)
C7 C 0.2021(15) 0.1291(8) 0.048(3)
O1 O 0.259(2) 0.1296(12) 0.273(4)
C6V C 0.2359(12) 0.0784(13) 0.177(3)
C7V C 0.2021(15) 0.0730(17) 0.048(3)
loop_
_geom_bond_atom_site_label_1
_geom_bond_atom_site_label_2
_geom_bond_site_symmetry_1
_geom_bond_site_symmetry_2
Au1 C1 1_555 1_555
C1 N1 1_555 1_555
N1 Fe1 1_555 1_555
Fe1 N2 1_555 1_555
C2 H1 1_555 1_555
C3 C2 1_555 1_555
H2 C3 1_555 1_555
C4 C3 1_555 1_555
C5 C4 1_555 1_555
N3 C5 1_555 1_555
C6 C7 1_555 1_555
C7 C7V 1_555 1_555
O1 C6 1_555 1_555
C1D Au1 1_555 1_555
N1D C1D 1_555 1_555
Fe1D N1D 1_555 1_555
N1O Fe1 1_555 1_555
N1U Fe1 1_555 1_555
N2O Fe1 1_555 1_555
N1X Fe1 1_555 1_555
C1O N1O 1_555 1_555
C1U N1U 1_555 1_555
C2U N2O 1_555 1_555
C1X N1X 1_555 1_555
C1T Au1T 1_555 1_555
Au1M C1O 1_555 1_555
Au1S C1U 1_555 1_555
H1U C2U 1_555 1_555
C3U C4 1_555 1_555
Au1X C1X 1_555 1_555
Au1T C1W 1_555 1_555
C1M Au1M 1_555 1_555
C1S Au1S 1_555 1_555
H2U C3U 1_555 1_555
C1W N1W 1_555 1_555
N1W Fe1A 1_555 1_555
N3A C5 1_555 1_555
Fe1A N2Q 1_555 1_555
C5B N3 1_555 1_555
C5A N3A 1_555 1_555
N2Q C2A 1_555 1_555
N1Q Fe1A 1_555 1_555
N1A Fe1A 1_555 1_555
N2A Fe1A 1_555 1_555
N1Y Fe1A 1_555 1_555
N3B C5B 1_555 1_555
C4B C5B 1_555 1_555
C4A C5A 1_555 1_555
C2A C3A 1_555 1_555
C2W N2Q 1_555 1_555
C1Q N1Q 1_555 1_555
Au1B C1B 1_555 1_555
C3B C4B 1_555 1_555
C3V C4B 1_555 1_555
C3A C4A 1_555 1_555
C3W C4A 1_555 1_555
H1A C2A 1_555 1_555
H1W C2W 1_555 1_555
Au1N C1Q 1_555 1_555
C1B N1B 1_555 1_555
C2B C3B 1_555 1_555
H2B C3B 1_555 1_555
C2V C3V 1_555 1_555
H2V C3V 1_555 1_555
H2A C3A 1_555 1_555
H2W C3W 1_555 1_555
N1B Fe1B 1_555 1_555
N2P C2B 1_555 1_555
H1B C2B 1_555 1_555
H1V C2V 1_555 1_555
Fe1B N2P 1_555 1_555
N1P Fe1B 1_555 1_555
N2B Fe1B 1_555 1_555
N1V Fe1B 1_555 1_555
N1Z Fe1B 1_555 1_555
C1P N1P 1_555 1_555
C2P N2B 1_555 1_555
C2Z N2B 1_555 1_555
C1V N1V 1_555 1_555
C1Z N1Z 1_555 1_555
Au1L C1P 1_555 1_555
C3P C2P 1_555 1_555
H1P C2P 1_555 1_555
C3Z C2Z 1_555 1_555
H1Z C2Z 1_555 1_555
Au1R C1V 1_555 1_555
Au1Z C1Z 1_555 1_555
C1L Au1L 1_555 1_555
H2P C3P 1_555 1_555
C4P C3P 1_555 1_555
H2Z C3Z 1_555 1_555
C1R Au1R 1_555 1_555
N1L C1L 1_555 1_555
C5P C4P 1_555 1_555
Fe1I N1L 1_555 1_555
N3Q C5P 1_555 1_555
N3P C5P 1_555 1_555
C5Q N3Q 1_555 1_555
C5O N3P 1_555 1_555
C4Q C5Q 1_555 1_555
N3O C5Q 1_555 1_555
C4O C5O 1_555 1_555
C3Y C4Q 1_555 1_555
C3Q C4Q 1_555 1_555
C3O C4O 1_555 1_555
C3X C4O 1_555 1_555
C2Y C3Y 1_555 1_555
H2Y C3Y 1_555 1_555
C2Q C3Q 1_555 1_555
H2Q C3Q 1_555 1_555
C2O C3O 1_555 1_555
H2O C3O 1_555 1_555
C2X C3X 1_555 1_555
H2X C3X 1_555 1_555
N2A_2 C2Y 1_555 1_555
H1Y C2Y 1_555 1_555
H1Q C2Q 1_555 1_555
N2_2 C2O 1_555 1_555
H1O C2O 1_555 1_555
H1X C2X 1_555 1_555
Fe1A_2 N2A_2 1_555 1_555
Fe1_2 N2_2 1_555 1_555
C6V O1 1_555 1_555
C7V C6V 1_555 1_555
C2 N2O 1_555 1_555
C2U C3U 1_555 1_555
C5A N3B 1_555 1_555
C2W C3W 1_555 1_555
C2V N2P 1_555 1_555
C3Z C4P 1_555 1_555
C5O N3O 1_555 1_555
C2Q N2A_2 1_555 1_555
C2X N2_2 1_555 1_555

#END
