
#######################################################################
#
#                 Cambridge Crystallographic Data Centre
#                                CCDC 
#
#######################################################################
#
# If this CIF has been generated from an entry in the Cambridge 
# Structural Database, then it will include bibliographic, chemical, 
# crystal, experimental, refinement or atomic coordinate data resulting 
# from the CCDC's data processing and validation procedures.
#
#######################################################################

data_YOYWEQ
_symmetry_cell_setting           rhombohedral
_symmetry_space_group_name_H-M   'R -3 m'
_symmetry_Int_Tables_number      166
_space_group_name_Hall           '-R 3 2"'
loop_
_symmetry_equiv_pos_site_id
_symmetry_equiv_pos_as_xyz
1 x,y,z
2 -y,x-y,z
3 -x+y,-x,z
4 x-y,-y,-z
5 -x,-x+y,-z
6 y,x,-z
7 2/3+x,1/3+y,1/3+z
8 2/3-y,1/3+x-y,1/3+z
9 2/3-x+y,1/3-x,1/3+z
10 2/3+x-y,1/3-y,1/3-z
11 2/3-x,1/3-x+y,1/3-z
12 2/3+y,1/3+x,1/3-z
13 1/3+x,2/3+y,2/3+z
14 1/3-y,2/3+x-y,2/3+z
15 1/3-x+y,2/3-x,2/3+z
16 1/3+x-y,2/3-y,2/3-z
17 1/3-x,2/3-x+y,2/3-z
18 1/3+y,2/3+x,2/3-z
19 -x,-y,-z
20 y,-x+y,-z
21 x-y,x,-z
22 -x+y,y,z
23 x,x-y,z
24 -y,-x,z
25 1/3-x,2/3-y,2/3-z
26 1/3+y,2/3-x+y,2/3-z
27 1/3+x-y,2/3+x,2/3-z
28 1/3-x+y,2/3+y,2/3+z
29 1/3+x,2/3+x-y,2/3+z
30 1/3-y,2/3-x,2/3+z
31 2/3-x,1/3-y,1/3-z
32 2/3+y,1/3-x+y,1/3-z
33 2/3+x-y,1/3+x,1/3-z
34 2/3-x+y,1/3+y,1/3+z
35 2/3+x,1/3+x-y,1/3+z
36 2/3-y,1/3-x,1/3+z
_cell_length_a                   26.852(2)
_cell_length_b                   26.852(2)
_cell_length_c                   9.6735(13)
_cell_angle_alpha                90
_cell_angle_beta                 90
_cell_angle_gamma                120
_cell_volume                     6040.43
loop_
_atom_site_label
_atom_site_type_symbol
_atom_site_fract_x
_atom_site_fract_y
_atom_site_fract_z
C1 C 0.242(3) 0.1595(16) 0.152(7)
C2 C 0.194(3) 0.1238(16) 0.064(8)
O1 O 0.272(4) 0.1362(19) 0.248(12)
C1V C 0.242(3) 0.0825(34) 0.152(7)
C2V C 0.194(3) 0.0702(34) 0.064(8)
Au1 Au 0.6667 0.03975(5) 0.3333
Fe1 Fe 0.5000 0.0000 0.0000
N1 N 0.4528(4) -0.0945(9) -0.004(2)
N2 N 0.5577(7) -0.0007(8) 0.1514(17)
N3 N 0.3027(5) -0.3027(5) -0.003(2)
C3 C 0.4815(8) -0.1237(8) -0.006(2)
H1 H 0.5215 -0.1035 -0.0100
C4 C 0.4532(10) -0.1822(7) -0.001(2)
H2 H 0.4745 -0.2009 -0.0013
C5 C 0.3921(7) -0.2158(15) 0.005(5)
C6 C 0.3618(6) -0.2765(11) -0.004(4)
C7 C 0.5970(8) 0.0104(9) 0.220(2)
N1A N 0.0945(9) -0.4527(10) -0.004(2)
N3A N 0.3027(5) -0.3946(7) -0.003(2)
C3A C 0.1237(8) -0.3948(11) -0.006(2)
H1A H 0.1035 -0.3750 -0.0100
C4A C 0.1822(7) -0.3646(12) -0.001(2)
H2A H 0.2009 -0.3246 -0.0013
C5A C 0.2158(15) -0.3921(17) 0.005(5)
C6A C 0.2765(11) -0.3617(13) -0.004(4)
N1B N 0.4527(10) -0.4528(4) -0.004(2)
N3B N 0.3946(7) -0.3027(5) -0.003(2)
C3B C 0.3948(11) -0.4815(8) -0.006(2)
H1B H 0.3750 -0.5215 -0.0100
C4B C 0.3646(12) -0.4532(10) -0.001(2)
H2B H 0.3246 -0.4745 -0.0013
C5B C 0.3921(17) -0.3921(7) 0.005(5)
C6B C 0.3617(13) -0.3618(6) -0.004(4)
C3U C 0.3948(11) -0.1237(8) -0.006(2)
H1U H 0.3750 -0.1035 -0.0100
C4U C 0.3646(12) -0.1822(7) -0.001(2)
H2U H 0.3246 -0.2009 -0.0013
C3V C 0.4815(8) -0.3948(11) -0.006(2)
H1V H 0.5215 -0.3750 -0.0100
C4V C 0.4532(10) -0.3646(12) -0.001(2)
H2V H 0.4745 -0.3246 -0.0013
C3W C 0.1237(8) -0.4815(8) -0.006(2)
H1W H 0.1035 -0.5215 -0.0100
C4W C 0.1822(7) -0.4532(10) -0.001(2)
H2W H 0.2009 -0.4745 -0.0013
Au1A Au -0.03975(5) -0.37305(5) 0.3333
Fe1A Fe 0.0000 -0.5000 0.0000
N2A N 0.0007(8) -0.4416(11) 0.1514(17)
C7A C -0.0104(9) -0.4134(12) 0.220(2)
Au1B Au 0.37305(5) -0.6667 0.3333
Fe1B Fe 0.5000 -0.5000 0.0000
N2B N 0.4416(11) -0.5577(7) 0.1514(17)
C7B C 0.4134(12) -0.5970(8) 0.220(2)
N2C N 0.5584(11) 0.0007(8) -0.1514(17)
C7C C 0.5866(12) -0.0104(9) -0.220(2)
N2P N 0.7756(7) 0.1083(11) 0.5153(17)
C7P C 0.7363(8) 0.0801(12) 0.447(2)
N2R N 0.4423(7) 0.0007(8) -0.1514(17)
C7R C 0.4030(8) -0.0104(9) -0.220(2)
N1E N -0.0945(9) -0.5472(4) 0.004(2)
N2S N -0.0007(8) -0.5584(11) -0.1514(17)
N3D N -0.3027(5) -0.6054(7) 0.003(2)
C3S C -0.1237(8) -0.6052(11) 0.006(2)
H1S H -0.1035 -0.6250 0.0100
C4S C -0.1822(7) -0.6354(12) 0.001(2)
H2S H -0.2009 -0.6754 0.0013
C5E C -0.2158(15) -0.6079(7) -0.005(5)
C6E C -0.2765(11) -0.6382(6) 0.004(4)
C7S C 0.0104(9) -0.5866(12) -0.220(2)
N1D N -0.4528(4) -0.5473(10) 0.004(2)
N3C N -0.3946(7) -0.6973(5) 0.003(2)
C3T C -0.3948(11) -0.5185(8) 0.006(2)
H1T H -0.3750 -0.4785 0.0100
C4T C -0.3646(12) -0.5468(10) 0.001(2)
H2T H -0.3246 -0.5255 0.0013
C5D C -0.3921(7) -0.6079(17) -0.005(5)
C6D C -0.3618(6) -0.6383(13) 0.004(4)
N1C N -0.4527(10) -0.9055(9) 0.004(2)
N3E N -0.3027(5) -0.6973(5) 0.003(2)
C3R C -0.4815(8) -0.8763(8) 0.006(2)
H1R H -0.5215 -0.8965 0.0100
C4R C -0.4532(10) -0.8178(7) 0.001(2)
H2R H -0.4745 -0.7991 0.0013
C5C C -0.3921(17) -0.7842(15) -0.005(5)
C6C C -0.3617(13) -0.7235(11) 0.004(4)
C3E C -0.1237(8) -0.5185(8) 0.006(2)
H1E H -0.1035 -0.4785 0.0100
C4E C -0.1822(7) -0.5468(10) 0.001(2)
H2E H -0.2009 -0.5255 0.0013
C3C C -0.3948(11) -0.8763(8) 0.006(2)
H1C H -0.3750 -0.8965 0.0100
C4C C -0.3646(12) -0.8178(7) 0.001(2)
H2C H -0.3246 -0.7991 0.0013
C3D C -0.4815(8) -0.6052(11) 0.006(2)
H1D H -0.5215 -0.6250 0.0100
C4D C -0.4532(10) -0.6354(12) 0.001(2)
H2D H -0.4745 -0.6754 0.0013
N2T N 0.5584(11) -0.4423(7) -0.1514(17)
C7T C 0.5866(12) -0.4030(8) -0.220(2)
N2U N 0.4416(11) -0.0007(8) 0.1514(17)
C7U C 0.4134(12) 0.0104(9) 0.220(2)
N2O N -0.1083(11) -0.3326(8) 0.5153(17)
C7O C -0.0801(12) -0.3437(9) 0.447(2)
N2W N 0.0007(8) -0.5577(7) 0.1514(17)
C7W C -0.0104(9) -0.5970(8) 0.220(2)
N2E N -0.0007(8) -0.4423(7) -0.1514(17)
C7E C 0.0104(9) -0.4030(8) -0.220(2)
Au1C Au 0.62695(5) -0.03975(5) -0.3333
Au1R Au 0.3333 -0.03975(5) -0.3333
Au1S Au 0.03975(5) -0.62695(5) -0.3333
Au1E Au 0.03975(5) -0.3333 -0.3333
Au1T Au 0.62695(5) -0.3333 -0.3333
Au1U Au 0.37305(5) 0.03975(5) 0.3333
Au1W Au -0.03975(5) -0.6667 0.3333
Fe1_2 Fe -0.5000 -1.0000 0.0000
Fe1B_2 Fe -0.5000 -0.5000 0.0000
Fe1L Fe -0.1667 -0.3333 0.6667
Fe1N Fe 0.8333 0.1667 0.6667
N1C_2 N 0.5473(10) 0.0945(9) 0.004(2)
N1D_2 N 0.5472(4) -0.5473(10) 0.004(2)
N2D N 0.4423(7) -0.5584(11) -0.1514(17)
N2V N 0.5577(7) -0.4416(11) 0.1514(17)
C7G C 0.6563(9) -0.0801(12) -0.447(2)
C7Q C 0.3437(9) -0.7363(8) 0.447(2)
C7GA C 0.0801(12) -0.6563(9) -0.447(2)
C7HA C 0.2637(8) -0.0801(12) -0.447(2)
loop_
_geom_bond_atom_site_label_1
_geom_bond_atom_site_label_2
_geom_bond_site_symmetry_1
_geom_bond_site_symmetry_2
C1 C2 1_555 1_555
C2 C2V 1_555 1_555
O1 C1 1_555 1_555
Au1 C7 1_555 1_555
Fe1 N1 1_555 1_555
N1 C3 1_555 1_555
N2 Fe1 1_555 1_555
N3 C6 1_555 1_555
C3 H1 1_555 1_555
C4 C3 1_555 1_555
H2 C4 1_555 1_555
C5 C4 1_555 1_555
C6 C5 1_555 1_555
C7 N2 1_555 1_555
C1V O1 1_555 1_555
C2V C1V 1_555 1_555
N1A C3A 1_555 1_555
N3A C6A 1_555 1_555
C3A H1A 1_555 1_555
C4A C3A 1_555 1_555
H2A C4A 1_555 1_555
C5A C4A 1_555 1_555
C6A N3 1_555 1_555
N1B C3B 1_555 1_555
N3B C6 1_555 1_555
C3B H1B 1_555 1_555
C4B C3B 1_555 1_555
H2B C4B 1_555 1_555
C5B C4B 1_555 1_555
C6B N3A 1_555 1_555
C3U N1 1_555 1_555
H1U C3U 1_555 1_555
C4U C5 1_555 1_555
H2U C4U 1_555 1_555
C3V N1B 1_555 1_555
H1V C3V 1_555 1_555
C4V C5B 1_555 1_555
H2V C4V 1_555 1_555
C3W N1A 1_555 1_555
H1W C3W 1_555 1_555
C4W C5A 1_555 1_555
H2W C4W 1_555 1_555
Au1A C7A 1_555 1_555
Fe1A N1A 1_555 1_555
N2A Fe1A 1_555 1_555
C7A N2A 1_555 1_555
Au1B C7B 1_555 1_555
Fe1B N1B 1_555 1_555
N2B Fe1B 1_555 1_555
C7B N2B 1_555 1_555
N2C Fe1 1_555 1_555
C7C N2C 1_555 1_555
N2P C7P 1_555 1_555
C7P Au1 1_555 1_555
N2R Fe1 1_555 1_555
C7R N2R 1_555 1_555
N1E Fe1A 1_555 1_555
N2S Fe1A 1_555 1_555
N3D C6E 1_555 1_555
C3S N1E 1_555 1_555
H1S C3S 1_555 1_555
C4S C3S 1_555 1_555
H2S C4S 1_555 1_555
C5E C4S 1_555 1_555
C6E C5E 1_555 1_555
C7S N2S 1_555 1_555
N1D C3T 1_555 1_555
N3C C6D 1_555 1_555
C3T H1T 1_555 1_555
C4T C3T 1_555 1_555
H2T C4T 1_555 1_555
C5D C4T 1_555 1_555
C6D N3D 1_555 1_555
N1C C3R 1_555 1_555
N3E C6E 1_555 1_555
C3R H1R 1_555 1_555
C4R C3R 1_555 1_555
H2R C4R 1_555 1_555
C5C C4R 1_555 1_555
C6C N3C 1_555 1_555
C3E N1E 1_555 1_555
H1E C3E 1_555 1_555
C4E C5E 1_555 1_555
H2E C4E 1_555 1_555
C3C N1C 1_555 1_555
H1C C3C 1_555 1_555
C4C C5C 1_555 1_555
H2C C4C 1_555 1_555
C3D N1D 1_555 1_555
H1D C3D 1_555 1_555
C4D C5D 1_555 1_555
H2D C4D 1_555 1_555
N2T Fe1B 1_555 1_555
C7T N2T 1_555 1_555
N2U Fe1 1_555 1_555
C7U N2U 1_555 1_555
N2O C7O 1_555 1_555
C7O Au1A 1_555 1_555
N2W Fe1A 1_555 1_555
C7W N2W 1_555 1_555
N2E Fe1A 1_555 1_555
C7E N2E 1_555 1_555
Au1C C7C 1_555 1_555
Au1R C7R 1_555 1_555
Au1S C7S 1_555 1_555
Au1E C7E 1_555 1_555
Au1T C7T 1_555 1_555
Au1U C7U 1_555 1_555
Au1W C7W 1_555 1_555
Fe1_2 N1C 1_555 1_555
Fe1B_2 N1D 1_555 1_555
Fe1L N2O 1_555 1_555
Fe1N N2P 1_555 1_555
N1C_2 Fe1 1_555 1_555
N1D_2 Fe1B 1_555 1_555
N2D Fe1B 1_555 1_555
N2V Fe1B 1_555 1_555
C7G Au1C 1_555 1_555
C7Q Au1B 1_555 1_555
C7GA Au1S 1_555 1_555
C7HA Au1R 1_555 1_555
C5A C6A 1_555 1_555
N3B C6B 1_555 1_555
C5B C6B 1_555 1_555
C3U C4U 1_555 1_555
C3V C4V 1_555 1_555
C3W C4W 1_555 1_555
C5D C6D 1_555 1_555
N3E C6C 1_555 1_555
C5C C6C 1_555 1_555
C3E C4E 1_555 1_555
C3C C4C 1_555 1_555
C3D C4D 1_555 1_555

#END
