
#######################################################################
#
#                 Cambridge Crystallographic Data Centre
#                                CCDC 
#
#######################################################################
#
# If this CIF has been generated from an entry in the Cambridge 
# Structural Database, then it will include bibliographic, chemical, 
# crystal, experimental, refinement or atomic coordinate data resulting 
# from the CCDC's data processing and validation procedures.
#
#######################################################################

data_YOYXOB
_symmetry_cell_setting           monoclinic
_symmetry_space_group_name_H-M   'P 21/c'
_symmetry_Int_Tables_number      14
_space_group_name_Hall           '-P 2ybc'
loop_
_symmetry_equiv_pos_site_id
_symmetry_equiv_pos_as_xyz
1 x,y,z
2 -x,1/2+y,1/2-z
3 -x,-y,-z
4 x,1/2-y,1/2+z
_cell_length_a                   13.7231(3)
_cell_length_b                   13.4488(2)
_cell_length_c                   17.1059(3)
_cell_angle_alpha                90
_cell_angle_beta                 93.814(2)
_cell_angle_gamma                90
_cell_volume                     3150.06
loop_
_atom_site_label
_atom_site_type_symbol
_atom_site_fract_x
_atom_site_fract_y
_atom_site_fract_z
Co1 Co 0.31020(6) 0.15399(6) 0.41489(5)
O1 O 0.1960(3) 0.2500(3) 0.4176(3)
O2 O 0.2119(4) 0.2050(4) 0.2958(3)
O3 O 0.4150(3) 0.2478(3) 0.3850(3)
O4 O 0.4993(3) 0.1135(3) 0.4199(3)
N1 N 0.2976(4) 0.0138(4) 0.3717(3)
N2 N 0.2988(4) -0.1495(4) 0.3682(3)
N3 N 0.3286(4) -0.6390(4) 0.0347(3)
N4 N 0.3919(4) -0.6145(4) 0.1546(3)
C1 C 0.1763(4) 0.2595(5) 0.3452(4)
C2 C 0.1084(4) 0.3432(5) 0.3168(3)
C3 C 0.0732(4) 0.3457(5) 0.2393(4)
H1 H 0.0893 0.2955 0.2050
C4 C 0.0137(5) 0.4234(5) 0.2131(4)
C5 C -0.0117(4) 0.4996(5) 0.2625(4)
H2 H -0.0525 0.5511 0.2444
C6 C 0.0257(4) 0.4963(5) 0.3395(4)
C7 C 0.0846(4) 0.4187(4) 0.3675(3)
H3 H 0.1079 0.4172 0.4198
C8 C 0.4941(5) 0.2013(5) 0.4005(3)
C9 C 0.5873(4) 0.2608(4) 0.4013(3)
C10 C 0.6749(4) 0.2117(5) 0.3898(3)
H4 H 0.6751 0.1446 0.3767
C11 C 0.7615(4) 0.2648(5) 0.3984(3)
C12 C 0.7642(5) 0.3645(5) 0.4197(4)
H5 H 0.8230 0.3989 0.4257
C13 C 0.6767(5) 0.4108(5) 0.4317(4)
C14 C 0.5880(5) 0.3609(5) 0.4214(4)
H6 H 0.5297 0.3942 0.4278
C15 C 0.3131(5) -0.0681(4) 0.4125(4)
H7 H 0.3317 -0.0693 0.4658
C16 C 0.2708(5) -0.1172(5) 0.2940(4)
H8 H 0.2546 -0.1566 0.2504
C17 C 0.2714(5) -0.0173(5) 0.2966(4)
H9 H 0.2565 0.0244 0.2542
C18 C 0.2944(6) -0.2522(5) 0.3978(4)
H10 H 0.2267 -0.2685 0.4049
H11 H 0.3295 -0.2550 0.4488
C19 C 0.3354(5) -0.3296(5) 0.3467(4)
C20 C 0.4338(5) -0.3370(5) 0.3365(4)
H12 H 0.4763 -0.2895 0.3589
C21 C 0.4704(5) -0.4136(5) 0.2937(4)
H13 H 0.5371 -0.4165 0.2874
C22 C 0.4104(5) -0.4861(5) 0.2601(4)
C23 C 0.3113(6) -0.4754(5) 0.2673(4)
H14 H 0.2683 -0.5211 0.2431
C24 C 0.2749(5) -0.3981(5) 0.3098(5)
H15 H 0.2078 -0.3925 0.3134
C25 C 0.4540(5) -0.5741(5) 0.2194(4)
H16 H 0.5156 -0.5538 0.1998
H17 H 0.4677 -0.6263 0.2577
C26 C 0.3145(6) -0.6790(5) 0.1586(4)
H18 H 0.2928 -0.7079 0.2037
C27 C 0.2765(5) -0.6921(5) 0.0860(4)
H19 H 0.2224 -0.7315 0.0720
C28 C 0.3979(4) -0.5937(4) 0.0786(3)
H20 H 0.4450 -0.5525 0.0591
I1 I -0.03742(4) 0.42611(4) 0.09438(3)
I2 I -0.00334(4) 0.61540(4) 0.41413(3)
I3 I 0.89323(4) 0.19015(5) 0.38257(4)
I4 I 0.67832(5) 0.55684(4) 0.47449(5)
Co1C Co 0.31020(6) -0.65399(6) -0.08511(5)
N3C N 0.3286(4) 0.1390(4) 0.5347(3)
loop_
_geom_bond_atom_site_label_1
_geom_bond_atom_site_label_2
_geom_bond_site_symmetry_1
_geom_bond_site_symmetry_2
Co1 O1 1_555 1_555
O1 C1 1_555 1_555
O2 C1 1_555 1_555
O3 Co1 1_555 1_555
O4 C8 1_555 1_555
N1 Co1 1_555 1_555
N2 C15 1_555 1_555
N3 C27 1_555 1_555
N4 C25 1_555 1_555
C1 C2 1_555 1_555
C2 C3 1_555 1_555
C3 H1 1_555 1_555
C4 C3 1_555 1_555
C5 C4 1_555 1_555
H2 C5 1_555 1_555
C6 C5 1_555 1_555
C7 C2 1_555 1_555
H3 C7 1_555 1_555
C8 O3 1_555 1_555
C9 C8 1_555 1_555
C10 C9 1_555 1_555
H4 C10 1_555 1_555
C11 C10 1_555 1_555
C12 C11 1_555 1_555
H5 C12 1_555 1_555
C13 C12 1_555 1_555
C14 C9 1_555 1_555
H6 C14 1_555 1_555
C15 N1 1_555 1_555
H7 C15 1_555 1_555
C16 N2 1_555 1_555
H8 C16 1_555 1_555
C17 N1 1_555 1_555
H9 C17 1_555 1_555
C18 N2 1_555 1_555
H10 C18 1_555 1_555
H11 C18 1_555 1_555
C19 C18 1_555 1_555
C20 C19 1_555 1_555
H12 C20 1_555 1_555
C21 C20 1_555 1_555
H13 C21 1_555 1_555
C22 C21 1_555 1_555
C23 C22 1_555 1_555
H14 C23 1_555 1_555
C24 C19 1_555 1_555
H15 C24 1_555 1_555
C25 C22 1_555 1_555
H16 C25 1_555 1_555
H17 C25 1_555 1_555
C26 N4 1_555 1_555
H18 C26 1_555 1_555
C27 C26 1_555 1_555
H19 C27 1_555 1_555
C28 N3 1_555 1_555
H20 C28 1_555 1_555
I1 C4 1_555 1_555
I2 C6 1_555 1_555
I3 C11 1_555 1_555
I4 C13 1_555 1_555
Co1C N3 1_555 1_555
N3C Co1 1_555 1_555
N4 C28 1_555 1_555
C6 C7 1_555 1_555
C13 C14 1_555 1_555
C16 C17 1_555 1_555
C23 C24 1_555 1_555

#END
