
#######################################################################
#
#                 Cambridge Crystallographic Data Centre
#                                CCDC 
#
#######################################################################
#
# If this CIF has been generated from an entry in the Cambridge 
# Structural Database, then it will include bibliographic, chemical, 
# crystal, experimental, refinement or atomic coordinate data resulting 
# from the CCDC's data processing and validation procedures.
#
#######################################################################

data_YOYXIV
_symmetry_cell_setting           triclinic
_symmetry_space_group_name_H-M   'P -1'
_symmetry_Int_Tables_number      2
_space_group_name_Hall           '-P 1'
loop_
_symmetry_equiv_pos_site_id
_symmetry_equiv_pos_as_xyz
1 x,y,z
2 -x,-y,-z
_cell_length_a                   10.5130(5)
_cell_length_b                   12.1087(6)
_cell_length_c                   14.1519(6)
_cell_angle_alpha                68.007(5)
_cell_angle_beta                 69.464(4)
_cell_angle_gamma                69.909(5)
_cell_volume                     1516.87
loop_
_atom_site_label
_atom_site_type_symbol
_atom_site_fract_x
_atom_site_fract_y
_atom_site_fract_z
Ni1 Ni 0.74193(7) 0.38856(6) 0.08922(5)
O1 O 0.7054(4) 0.5109(3) -0.0547(3)
O2 O 0.9186(3) 0.4074(3) -0.0429(3)
O3 O 0.7057(4) 0.5474(3) 0.1426(3)
O4 O 0.5449(4) 0.4495(3) 0.1827(3)
N1 N 0.6938(4) 0.2548(4) 0.0625(3)
N2 N 0.8339(5) 0.2695(4) 0.2057(4)
C1 C 0.8851(6) 0.5401(5) -0.2139(4)
C2 C 1.0272(6) 0.5208(5) -0.2641(4)
H1 H 1.0934 0.4732 -0.2258
C3 C 1.0690(6) 0.5732(6) -0.3715(5)
C4 C 0.9709(6) 0.6451(5) -0.4294(5)
H2 H 0.9991 0.6789 -0.5020
C5 C 0.8306(6) 0.6652(5) -0.3767(5)
C6 C 0.7867(6) 0.6137(5) -0.2706(4)
H3 H 0.6917 0.6279 -0.2368
C7 C 0.8341(6) 0.4838(5) -0.0972(4)
C8 C 0.4697(6) 0.6407(5) 0.2217(4)
C9 C 0.3308(5) 0.6609(5) 0.2235(4)
H4 H 0.3044 0.6065 0.2063
C10 C 0.2323(6) 0.7603(5) 0.2504(4)
C11 C 0.2682(6) 0.8396(5) 0.2793(5)
H5 H 0.2006 0.9059 0.2990
C12 C 0.4057(6) 0.8199(5) 0.2787(4)
C13 C 0.5077(6) 0.7217(5) 0.2504(4)
H6 H 0.6000 0.7094 0.2503
C14 C 0.5794(6) 0.5391(5) 0.1818(4)
C15 C 0.5635(6) 0.2787(5) 0.0538(4)
H7 H 0.5024 0.3536 0.0603
C16 C 0.5157(6) 0.1977(5) 0.0357(5)
H8 H 0.4242 0.2184 0.0302
C17 C 0.6044(6) 0.0851(5) 0.0256(4)
C18 C 0.7381(6) 0.0604(5) 0.0358(5)
H9 H 0.8012 -0.0140 0.0299
C19 C 0.7788(6) 0.1458(5) 0.0547(5)
H10 H 0.8690 0.1265 0.0622
H11 H 0.6292 -0.0777 0.0004
C20 C 0.5622(6) -0.0051(5) 0.0055(5)
C21 C 0.7579(6) 0.2116(6) 0.2969(5)
H12 H 0.6626 0.2252 0.3047
C22 C 0.8133(7) 0.1327(6) 0.3802(5)
H13 H 0.7567 0.0935 0.4422
C23 C 0.9565(7) 0.1124(6) 0.3701(5)
C24 C 1.0346(7) 0.1697(5) 0.2755(5)
H14 H 1.1303 0.1574 0.2651
C25 C 0.9712(6) 0.2451(5) 0.1966(5)
H15 H 1.0269 0.2818 0.1326
C26 C 1.0273(7) 0.0362(6) 0.4582(5)
H16 H 1.1162 0.0430 0.4503
I1 I 1.28266(5) 0.54920(5) -0.45011(4)
I2 I 0.68123(5) 0.77307(4) -0.46482(4)
I3 I 0.46052(5) 0.94393(4) 0.32083(4)
I4 I 0.02371(4) 0.79451(5) 0.24707(4)
N1A N 0.3062(4) -0.2548(4) -0.0625(3)
C15A C 0.4365(6) -0.2787(5) -0.0538(4)
H7A H 0.4976 -0.3536 -0.0603
C16A C 0.4843(6) -0.1977(5) -0.0357(5)
H8A H 0.5758 -0.2184 -0.0302
C17A C 0.3956(6) -0.0851(5) -0.0256(4)
C18A C 0.2619(6) -0.0604(5) -0.0358(5)
H9A H 0.1988 0.0140 -0.0299
C19A C 0.2212(6) -0.1458(5) -0.0547(5)
H10A H 0.1310 -0.1265 -0.0622
H11A H 0.3708 0.0777 -0.0004
C20A C 0.4378(6) 0.0051(5) -0.0055(5)
N2A N 1.1661(5) -0.2695(4) 0.7943(4)
C21A C 1.2421(6) -0.2116(6) 0.7031(5)
H12A H 1.3374 -0.2252 0.6953
C22A C 1.1867(7) -0.1327(6) 0.6198(5)
H13A H 1.2433 -0.0935 0.5578
C23A C 1.0435(7) -0.1124(6) 0.6299(5)
C24A C 0.9654(7) -0.1697(5) 0.7245(5)
H14A H 0.8697 -0.1574 0.7349
C25A C 1.0288(6) -0.2451(5) 0.8034(5)
H15A H 0.9731 -0.2818 0.8674
C26A C 0.9727(7) -0.0362(6) 0.5418(5)
H16A H 0.8838 -0.0430 0.5497
Ni1A Ni 0.25807(7) -0.38856(6) -0.08922(5)
O1A O 0.2946(4) -0.5109(3) 0.0547(3)
O2A O 0.0814(3) -0.4074(3) 0.0429(3)
O3A O 0.2943(4) -0.5474(3) -0.1426(3)
O4A O 0.4551(4) -0.4495(3) -0.1827(3)
C1A C 0.1149(6) -0.5401(5) 0.2139(4)
C2A C -0.0272(6) -0.5208(5) 0.2641(4)
H1A H -0.0934 -0.4732 0.2258
C3A C -0.0690(6) -0.5732(6) 0.3715(5)
C4A C 0.0291(6) -0.6451(5) 0.4294(5)
H2A H 0.0009 -0.6789 0.5020
C5A C 0.1694(6) -0.6652(5) 0.3767(5)
C6A C 0.2133(6) -0.6137(5) 0.2706(4)
H3A H 0.3083 -0.6279 0.2368
C7A C 0.1659(6) -0.4838(5) 0.0972(4)
C8A C 0.5303(6) -0.6407(5) -0.2217(4)
C9A C 0.6692(5) -0.6609(5) -0.2235(4)
H4A H 0.6956 -0.6065 -0.2063
C10A C 0.7677(6) -0.7603(5) -0.2504(4)
C11A C 0.7318(6) -0.8396(5) -0.2793(5)
H5A H 0.7994 -0.9059 -0.2990
C12A C 0.5943(6) -0.8199(5) -0.2787(4)
C13A C 0.4923(6) -0.7217(5) -0.2504(4)
H6A H 0.4000 -0.7094 -0.2503
C14A C 0.4206(6) -0.5391(5) -0.1818(4)
I1A I -0.28266(5) -0.54920(5) 0.45011(4)
I2A I 0.31877(5) -0.77307(4) 0.46482(4)
I3A I 0.53948(5) -0.94393(4) -0.32083(4)
I4A I 0.97629(4) -0.79451(5) -0.24707(4)
Ni1A_2 Ni 1.25807(7) -0.38856(6) 0.91078(5)
N2A_2 N 0.1661(5) -0.2695(4) -0.2057(4)
O5 O 0.1793(4) 0.2472(4) 0.9400(4)
H17 H 0.1025 0.2797 0.9220
H18 H 0.2262 0.2933 0.9379
loop_
_geom_bond_atom_site_label_1
_geom_bond_atom_site_label_2
_geom_bond_site_symmetry_1
_geom_bond_site_symmetry_2
Ni1 O1 1_555 1_555
O1 C7 1_555 1_555
O2 Ni1 1_555 1_555
O3 Ni1 1_555 1_555
O4 Ni1 1_555 1_555
N1 Ni1 1_555 1_555
N2 Ni1 1_555 1_555
C1 C2 1_555 1_555
C2 H1 1_555 1_555
C3 C2 1_555 1_555
C4 C3 1_555 1_555
H2 C4 1_555 1_555
C5 C4 1_555 1_555
C6 C1 1_555 1_555
H3 C6 1_555 1_555
C7 O2 1_555 1_555
C8 C9 1_555 1_555
C9 H4 1_555 1_555
C10 C9 1_555 1_555
C11 C10 1_555 1_555
H5 C11 1_555 1_555
C12 C11 1_555 1_555
C13 C8 1_555 1_555
H6 C13 1_555 1_555
C14 O3 1_555 1_555
C15 N1 1_555 1_555
H7 C15 1_555 1_555
C16 C15 1_555 1_555
H8 C16 1_555 1_555
C17 C16 1_555 1_555
C18 C17 1_555 1_555
H9 C18 1_555 1_555
C19 N1 1_555 1_555
H10 C19 1_555 1_555
H11 C20 1_555 1_555
C20 C17 1_555 1_555
C21 N2 1_555 1_555
H12 C21 1_555 1_555
C22 C21 1_555 1_555
H13 C22 1_555 1_555
C23 C22 1_555 1_555
C24 C23 1_555 1_555
H14 C24 1_555 1_555
C25 N2 1_555 1_555
H15 C25 1_555 1_555
C26 C23 1_555 1_555
H16 C26 1_555 1_555
I1 C3 1_555 1_555
I2 C5 1_555 1_555
I3 C12 1_555 1_555
I4 C10 1_555 1_555
O5 H17 1_555 1_555
H18 O5 1_555 1_555
N1A C15A 1_555 1_555
C15A H7A 1_555 1_555
C16A C15A 1_555 1_555
H8A C16A 1_555 1_555
C17A C16A 1_555 1_555
C18A C17A 1_555 1_555
H9A C18A 1_555 1_555
C19A N1A 1_555 1_555
H10A C19A 1_555 1_555
H11A C20A 1_555 1_555
C20A C20 1_555 1_555
N2A C21A 1_555 1_555
C21A H12A 1_555 1_555
C22A C21A 1_555 1_555
H13A C22A 1_555 1_555
C23A C22A 1_555 1_555
C24A C23A 1_555 1_555
H14A C24A 1_555 1_555
C25A N2A 1_555 1_555
H15A C25A 1_555 1_555
C26A C26 1_555 1_555
H16A C26A 1_555 1_555
Ni1A N1A 1_555 1_555
O1A Ni1A 1_555 1_555
O2A Ni1A 1_555 1_555
O3A Ni1A 1_555 1_555
O4A Ni1A 1_555 1_555
C1A C2A 1_555 1_555
C2A H1A 1_555 1_555
C3A C2A 1_555 1_555
C4A C3A 1_555 1_555
H2A C4A 1_555 1_555
C5A C4A 1_555 1_555
C6A C1A 1_555 1_555
H3A C6A 1_555 1_555
C7A O1A 1_555 1_555
C8A C9A 1_555 1_555
C9A H4A 1_555 1_555
C10A C9A 1_555 1_555
C11A C10A 1_555 1_555
H5A C11A 1_555 1_555
C12A C11A 1_555 1_555
C13A C8A 1_555 1_555
H6A C13A 1_555 1_555
C14A O3A 1_555 1_555
I1A C3A 1_555 1_555
I2A C5A 1_555 1_555
I3A C12A 1_555 1_555
I4A C10A 1_555 1_555
Ni1A_2 N2A 1_555 1_555
N2A_2 Ni1A 1_555 1_555
O4 C14 1_555 1_555
C1 C7 1_555 1_555
C5 C6 1_555 1_555
C8 C14 1_555 1_555
C12 C13 1_555 1_555
C18 C19 1_555 1_555
C24 C25 1_555 1_555
C17A C20A 1_555 1_555
C18A C19A 1_555 1_555
C23A C26A 1_555 1_555
C24A C25A 1_555 1_555
O2A C7A 1_555 1_555
O4A C14A 1_555 1_555
C1A C7A 1_555 1_555
C5A C6A 1_555 1_555
C8A C14A 1_555 1_555
C12A C13A 1_555 1_555

#END
