
#######################################################################
#
#                 Cambridge Crystallographic Data Centre
#                                CCDC 
#
#######################################################################
#
# If this CIF has been generated from an entry in the Cambridge 
# Structural Database, then it will include bibliographic, chemical, 
# crystal, experimental, refinement or atomic coordinate data resulting 
# from the CCDC's data processing and validation procedures.
#
#######################################################################

data_YOYXAN
_symmetry_cell_setting           monoclinic
_symmetry_space_group_name_H-M   'P 21/c'
_symmetry_Int_Tables_number      14
_space_group_name_Hall           '-P 2ybc'
loop_
_symmetry_equiv_pos_site_id
_symmetry_equiv_pos_as_xyz
1 x,y,z
2 -x,1/2+y,1/2-z
3 -x,-y,-z
4 x,1/2-y,1/2+z
_cell_length_a                   21.9682(19)
_cell_length_b                   17.0815(10)
_cell_length_c                   20.2564(11)
_cell_angle_alpha                90
_cell_angle_beta                 109.231(7)
_cell_angle_gamma                90
_cell_volume                     7177.05
loop_
_atom_site_label
_atom_site_type_symbol
_atom_site_fract_x
_atom_site_fract_y
_atom_site_fract_z
Zn1 Zn 0.78172(8) 0.11207(10) 0.21684(7)
Zn2 Zn 0.76363(8) 0.13507(9) 0.03494(7)
Zn3 Zn 0.75502(8) 0.11564(10) -0.12638(7)
N1 N 0.8108(6) 0.0898(7) 0.3215(5)
N2 N 0.7754(5) 0.0963(6) 0.7862(5)
O1 O 0.7615(5) 0.0087(6) 0.1806(5)
O2 O 0.7809(5) 0.0228(5) 0.0792(4)
O3 O 0.8612(5) 0.1538(6) 0.2120(5)
O4 O 0.8474(5) 0.1864(5) 0.1012(5)
O5 O 0.7167(5) 0.1931(6) 0.2019(5)
O6 O 0.7022(5) 0.1670(6) 0.0897(5)
O7 O 0.6840(5) 0.0833(6) -0.0363(5)
O8 O 0.6970(5) 0.0260(6) -0.1291(5)
O9 O 0.8204(5) 0.0985(5) -0.0335(4)
O10 O 0.8813(5) 0.1694(8) -0.0784(6)
O11 O 0.7411(5) 0.2388(5) -0.0202(5)
O12 O 0.7167(5) 0.2191(6) -0.1343(4)
C1 C 0.7487(6) -0.1007(9) 0.1095(6)
C2 C 0.7470(7) -0.1342(8) 0.0444(6)
H1 H 0.7579 -0.1047 0.0114
C3 C 0.7286(7) -0.2116(9) 0.0317(6)
C4 C 0.7116(7) -0.2568(9) 0.0794(7)
H2 H 0.6983 -0.3085 0.0698
C5 C 0.7150(7) -0.2214(9) 0.1426(7)
C6 C 0.7328(7) -0.1465(8) 0.1560(7)
H3 H 0.7343 -0.1251 0.1988
C7 C 0.7657(6) -0.0174(8) 0.1239(7)
C8 C 0.9495(7) 0.2077(9) 0.1866(8)
C9 C 0.9737(8) 0.2486(9) 0.1416(8)
H4 H 0.9474 0.2579 0.0959
C10 C 1.0340(11) 0.2746(11) 0.1629(11)
C11 C 1.0753(10) 0.2630(12) 0.2312(14)
H5 H 1.1173 0.2821 0.2453
C12 C 1.0527(8) 0.2231(11) 0.2771(10)
C13 C 0.9898(8) 0.1941(10) 0.2533(8)
H6 H 0.9749 0.1647 0.2835
C14 C 0.8809(7) 0.1818(8) 0.1637(9)
C15 C 0.6358(6) 0.2639(7) 0.1141(7)
C16 C 0.5998(6) 0.2753(8) 0.0439(6)
H7 H 0.6074 0.2446 0.0095
C17 C 0.5536(7) 0.3313(9) 0.0262(7)
C18 C 0.5380(8) 0.3756(10) 0.0738(8)
H8 H 0.5043 0.4116 0.0599
C19 C 0.5734(7) 0.3658(8) 0.1429(7)
C20 C 0.6222(8) 0.3105(8) 0.1652(7)
H9 H 0.6453 0.3042 0.2124
C21 C 0.6893(6) 0.2035(8) 0.1365(7)
C22 C 0.6237(7) -0.0336(8) -0.0813(7)
C23 C 0.6032(7) -0.0867(9) -0.1356(7)
H10 H 0.6182 -0.0832 -0.1734
C24 C 0.5606(8) -0.1445(10) -0.1338(7)
C25 C 0.5399(7) -0.1515(10) -0.0778(8)
H11 H 0.5107 -0.1905 -0.0770
C26 C 0.5621(8) -0.1011(10) -0.0228(7)
C27 C 0.6017(7) -0.0416(9) -0.0242(7)
H12 H 0.6144 -0.0060 0.0126
C28 C 0.6723(7) 0.0300(9) -0.0810(8)
C29 C 0.9328(8) 0.0916(8) 0.0205(7)
C30 C 0.9949(7) 0.1128(10) 0.0241(7)
H13 H 1.0004 0.1466 -0.0094
C31 C 1.0487(8) 0.0850(9) 0.0760(8)
C32 C 1.0427(8) 0.0335(10) 0.1261(8)
H14 H 1.0784 0.0140 0.1611
C33 C 0.9810(9) 0.0129(10) 0.1213(8)
C34 C 0.9266(7) 0.0391(9) 0.0699(7)
H15 H 0.8860 0.0217 0.0684
C35 C 0.8759(8) 0.1243(9) -0.0336(7)
C36 C 0.6881(7) 0.3402(8) -0.0972(7)
C37 C 0.6635(7) 0.3667(9) -0.1647(7)
H16 H 0.6641 0.3351 -0.2019
C38 C 0.6373(7) 0.4423(10) -0.1766(7)
C39 C 0.6322(7) 0.4885(9) -0.1226(8)
H17 H 0.6136 0.5379 -0.1310
C40 C 0.6552(7) 0.4593(9) -0.0573(8)
C41 C 0.6817(7) 0.3866(8) -0.0420(7)
H18 H 0.6952 0.3678 0.0037
C42 C 0.7177(6) 0.2599(8) -0.0818(7)
C43 C 0.7986(8) 0.0232(10) 0.3467(8)
H19 H 0.7710 -0.0110 0.3151
C44 C 0.8231(8) -0.0019(10) 0.4169(8)
H20 H 0.8119 -0.0496 0.4318
C45 C 0.8648(9) 0.0498(13) 0.4615(6)
C46 C 0.8782(9) 0.1187(12) 0.4362(9)
H21 H 0.9068 0.1538 0.4659
C47 C 0.8495(9) 0.1369(10) 0.3665(8)
H22 H 0.8582 0.1854 0.3508
C48 C 0.8976(9) 0.0243(14) 0.5357(6)
H23 H 0.9420 0.0419 0.5534
H24 H 0.8960 -0.0320 0.5409
C49 C 0.8555(12) 0.0667(11) 0.5703(10)
H25 H 0.8713 0.1195 0.5828
H26 H 0.8115 0.0696 0.5386
C50 C 0.8576(9) 0.0242(9) 0.6311(8)
H27 H 0.9029 0.0148 0.6562
H28 H 0.8387 -0.0265 0.6149
C51 C 0.8287(6) 0.0503(8) 0.6849(6)
C52 C 0.7949(6) -0.0026(10) 0.7104(6)
H29 H 0.7895 -0.0540 0.6945
C53 C 0.7693(6) 0.0224(7) 0.7598(6)
H30 H 0.7461 -0.0137 0.7765
C54 C 0.8088(7) 0.1479(8) 0.7596(7)
H31 H 0.8136 0.1993 0.7756
C55 C 0.8357(8) 0.1257(9) 0.7096(7)
H32 H 0.8585 0.1620 0.6927
I1 I 0.69245(8) -0.29247(8) 0.21669(7)
I2 I 0.72367(7) -0.26218(8) -0.06560(6)
I3 I 1.11001(10) 0.20625(13) 0.37987(10)
I4 I 1.06981(10) 0.34249(12) 0.09755(11)
I5 I 0.55546(7) 0.43803(8) 0.21897(6)
I6 I 0.50021(6) 0.34894(8) -0.08056(5)
I7 I 0.52888(6) -0.11182(8) 0.06292(6)
I8 I 0.52542(8) -0.21960(10) -0.21977(7)
I9 I 0.96692(8) -0.06590(12) 0.19655(9)
I10 I 1.14142(6) 0.11879(9) 0.08081(7)
I11 I 0.64324(7) 0.52539(7) 0.02672(6)
I12 I 0.60260(7) 0.48610(8) -0.27925(6)
Zn3_2 Zn 0.75502(8) 0.11564(10) 0.87362(7)
N2_2 N 0.7754(5) 0.0963(6) -0.2138(5)
loop_
_geom_bond_atom_site_label_1
_geom_bond_atom_site_label_2
_geom_bond_site_symmetry_1
_geom_bond_site_symmetry_2
Zn1 N1 1_555 1_555
Zn2 O2 1_555 1_555
Zn3 O8 1_555 1_555
N1 C43 1_555 1_555
N2 C53 1_555 1_555
O1 Zn1 1_555 1_555
O2 C7 1_555 1_555
O3 Zn1 1_555 1_555
O4 Zn2 1_555 1_555
O5 Zn1 1_555 1_555
O6 Zn2 1_555 1_555
O7 Zn2 1_555 1_555
O8 C28 1_555 1_555
O9 Zn2 1_555 1_555
O10 C35 1_555 1_555
O11 Zn2 1_555 1_555
O12 Zn3 1_555 1_555
C1 C2 1_555 1_555
C2 H1 1_555 1_555
C3 C2 1_555 1_555
C4 C3 1_555 1_555
H2 C4 1_555 1_555
C5 C4 1_555 1_555
C6 C1 1_555 1_555
H3 C6 1_555 1_555
C7 O1 1_555 1_555
C8 C9 1_555 1_555
C9 H4 1_555 1_555
C10 C9 1_555 1_555
C11 C10 1_555 1_555
H5 C11 1_555 1_555
C12 C11 1_555 1_555
C13 C8 1_555 1_555
H6 C13 1_555 1_555
C14 O3 1_555 1_555
C15 C16 1_555 1_555
C16 H7 1_555 1_555
C17 C16 1_555 1_555
C18 C17 1_555 1_555
H8 C18 1_555 1_555
C19 C18 1_555 1_555
C20 C15 1_555 1_555
H9 C20 1_555 1_555
C21 O5 1_555 1_555
C22 C23 1_555 1_555
C23 H10 1_555 1_555
C24 C23 1_555 1_555
C25 C24 1_555 1_555
H11 C25 1_555 1_555
C26 C25 1_555 1_555
C27 C22 1_555 1_555
H12 C27 1_555 1_555
C28 O7 1_555 1_555
C29 C30 1_555 1_555
C30 H13 1_555 1_555
C31 C30 1_555 1_555
C32 C31 1_555 1_555
H14 C32 1_555 1_555
C33 C32 1_555 1_555
C34 C29 1_555 1_555
H15 C34 1_555 1_555
C35 O9 1_555 1_555
C36 C37 1_555 1_555
C37 H16 1_555 1_555
C38 C37 1_555 1_555
C39 C38 1_555 1_555
H17 C39 1_555 1_555
C40 C39 1_555 1_555
C41 C36 1_555 1_555
H18 C41 1_555 1_555
C42 O11 1_555 1_555
C43 H19 1_555 1_555
C44 C43 1_555 1_555
H20 C44 1_555 1_555
C45 C44 1_555 1_555
C46 C45 1_555 1_555
H21 C46 1_555 1_555
C47 N1 1_555 1_555
H22 C47 1_555 1_555
C48 C45 1_555 1_555
H23 C48 1_555 1_555
H24 C48 1_555 1_555
C49 C48 1_555 1_555
H25 C49 1_555 1_555
H26 C49 1_555 1_555
C50 C49 1_555 1_555
H27 C50 1_555 1_555
H28 C50 1_555 1_555
C51 C50 1_555 1_555
C52 C51 1_555 1_555
H29 C52 1_555 1_555
C53 C52 1_555 1_555
H30 C53 1_555 1_555
C54 N2 1_555 1_555
H31 C54 1_555 1_555
C55 C51 1_555 1_555
H32 C55 1_555 1_555
I1 C5 1_555 1_555
I2 C3 1_555 1_555
I3 C12 1_555 1_555
I4 C10 1_555 1_555
I5 C19 1_555 1_555
I6 C17 1_555 1_555
I7 C26 1_555 1_555
I8 C24 1_555 1_555
I9 C33 1_555 1_555
I10 C31 1_555 1_555
I11 C40 1_555 1_555
I12 C38 1_555 1_555
Zn3_2 N2 1_555 1_555
N2_2 Zn3 1_555 1_555
Zn3 O9 1_555 1_555
O4 C14 1_555 1_555
O6 C21 1_555 1_555
O12 C42 1_555 1_555
C1 C7 1_555 1_555
C5 C6 1_555 1_555
C8 C14 1_555 1_555
C12 C13 1_555 1_555
C15 C21 1_555 1_555
C19 C20 1_555 1_555
C22 C28 1_555 1_555
C26 C27 1_555 1_555
C29 C35 1_555 1_555
C33 C34 1_555 1_555
C36 C42 1_555 1_555
C40 C41 1_555 1_555
C46 C47 1_555 1_555
C54 C55 1_555 1_555

#END
