
#######################################################################
#
#                 Cambridge Crystallographic Data Centre
#                                CCDC 
#
#######################################################################
#
# If this CIF has been generated from an entry in the Cambridge 
# Structural Database, then it will include bibliographic, chemical, 
# crystal, experimental, refinement or atomic coordinate data resulting 
# from the CCDC's data processing and validation procedures.
#
#######################################################################

data_YOYXER
_symmetry_cell_setting           monoclinic
_symmetry_space_group_name_H-M   'C 2/c'
_symmetry_Int_Tables_number      15
_space_group_name_Hall           '-C 2yn'
loop_
_symmetry_equiv_pos_site_id
_symmetry_equiv_pos_as_xyz
1 x,y,z
2 -x,y,1/2-z
3 1/2+x,1/2+y,z
4 1/2-x,1/2+y,1/2-z
5 -x,-y,-z
6 x,-y,1/2+z
7 1/2-x,1/2-y,-z
8 1/2+x,1/2-y,1/2+z
_cell_length_a                   16.7029(6)
_cell_length_b                   19.4272(6)
_cell_length_c                   26.6145(14)
_cell_angle_alpha                90
_cell_angle_beta                 100.149(4)
_cell_angle_gamma                90
_cell_volume                     8501.02
loop_
_atom_site_label
_atom_site_type_symbol
_atom_site_fract_x
_atom_site_fract_y
_atom_site_fract_z
Cd1 Cd 0.41803(4) 0.65254(3) 0.04314(3)
Cd2 Cd 0.5000 0.5000 0.0000
O1 O 0.6018(3) 0.5727(3) 0.0130(2)
O2 O 0.5453(3) 0.6727(3) 0.0314(2)
O3 O 0.4845(4) 0.6165(3) 0.1285(3)
O4 O 0.4572(4) 0.5324(3) 0.0732(2)
O5 O 0.6077(3) 0.4219(3) 0.0317(2)
O6 O 0.6572(4) 0.3180(4) 0.0404(3)
N1 N 0.2939(5) 0.6228(4) 0.0640(4)
N2 N -0.0821(5) 0.2640(4) 0.0746(3)
I1 I 0.92841(4) 0.63011(4) 0.00845(3)
I2 I 0.78496(5) 0.84976(4) 0.12363(3)
I3 I 0.53370(5) 0.28095(3) 0.17306(4)
I4 I 0.68355(4) 0.51626(4) 0.30308(3)
I5 I 0.83135(7) 0.29038(5) 0.23830(4)
I6 I 0.79512(6) 0.58954(4) 0.17915(4)
C1 C 0.6033(5) 0.6349(5) 0.0281(4)
C2 C 0.6872(5) 0.6663(4) 0.0423(4)
C3 C 0.7545(5) 0.6371(4) 0.0257(3)
H1 H 0.7493 0.5961 0.0074
C4 C 0.8286(5) 0.6699(4) 0.0366(4)
C5 C 0.8377(5) 0.7297(5) 0.0654(4)
H2 H 0.8883 0.7511 0.0730
C6 C 0.7733(5) 0.7568(4) 0.0823(4)
C7 C 0.6954(5) 0.7269(4) 0.0707(4)
H3 H 0.6509 0.7470 0.0816
C8 C 0.4873(7) 0.5550(5) 0.1167(5)
C9 C 0.5251(5) 0.5034(4) 0.1559(4)
C10 C 0.5145(5) 0.4328(4) 0.1478(4)
H4 H 0.4828 0.4167 0.1179
C11 C 0.5507(5) 0.3873(5) 0.1839(4)
C12 C 0.5976(5) 0.4087(5) 0.2293(4)
H5 H 0.6205 0.3773 0.2541
C13 C 0.6093(5) 0.4798(5) 0.2366(4)
C14 C 0.5731(5) 0.5262(4) 0.2006(4)
H6 H 0.5809 0.5732 0.2063
C15 C 0.6513(5) 0.3777(5) 0.0567(4)
C16 C 0.7023(5) 0.3993(5) 0.1068(4)
C17 C 0.7359(5) 0.3488(5) 0.1420(4)
H7 H 0.7258 0.3024 0.1350
C18 C 0.7836(6) 0.3686(6) 0.1865(4)
C19 C 0.8024(6) 0.4362(6) 0.1978(4)
H8 H 0.8372 0.4485 0.2276
C20 C 0.7678(6) 0.4855(6) 0.1631(4)
C21 C 0.7169(5) 0.4677(5) 0.1174(4)
H9 H 0.6934 0.5015 0.0948
C22 C 0.2520(6) 0.6645(5) 0.0883(5)
H10 H 0.2693 0.7099 0.0923
C23 C 0.1850(6) 0.6463(5) 0.1080(5)
H11 H 0.1596 0.6789 0.1254
C24 C 0.1552(6) 0.5816(5) 0.1027(5)
C25 C 0.1949(6) 0.5377(5) 0.0746(4)
H12 H 0.1751 0.4934 0.0675
C26 C 0.2636(6) 0.5587(5) 0.0571(4)
H13 H 0.2903 0.5272 0.0396
C27 C 0.0844(6) 0.5598(5) 0.1270(4)
H14 H 0.0420 0.5944 0.1200
H15 H 0.1019 0.5575 0.1637
C28 C 0.0488(6) 0.4899(5) 0.1078(5)
H16 H 0.0893 0.4546 0.1184
H17 H 0.0375 0.4905 0.0708
C29 C -0.0297(6) 0.4706(4) 0.1274(5)
H18 H -0.0209 0.4734 0.1644
H19 H -0.0731 0.5021 0.1137
C30 C -0.0523(6) 0.3984(5) 0.1104(5)
C31 C -0.0172(8) 0.3425(6) 0.1377(5)
H20 H 0.0177 0.3487 0.1687
C32 C -0.0347(7) 0.2774(5) 0.1185(5)
H21 H -0.0114 0.2403 0.1379
C33 C -0.1169(6) 0.3170(4) 0.0484(4)
H22 H -0.1519 0.3085 0.0178
C34 C -0.1042(6) 0.3834(5) 0.0639(4)
H23 H -0.1298 0.4189 0.0438
Cd1D Cd 0.58197(4) 0.34746(3) -0.04314(3)
O1D O 0.3982(3) 0.4273(3) -0.0130(2)
O2D O 0.4547(3) 0.3273(3) -0.0314(2)
O3D O 0.5155(4) 0.3835(3) -0.1285(3)
O4D O 0.5428(4) 0.4676(3) -0.0732(2)
O5D O 0.3923(3) 0.5781(3) -0.0317(2)
O6D O 0.3428(4) 0.6820(4) -0.0404(3)
N1D N 0.7061(5) 0.3772(4) -0.0640(4)
N2D N 1.0821(5) 0.7360(4) -0.0746(3)
I1D I 0.07159(4) 0.36989(4) -0.00845(3)
I2D I 0.21504(5) 0.15024(4) -0.12363(3)
I3D I 0.46630(5) 0.71905(3) -0.17306(4)
I4D I 0.31645(4) 0.48374(4) -0.30308(3)
I5D I 0.16865(7) 0.70962(5) -0.23830(4)
I6D I 0.20488(6) 0.41046(4) -0.17915(4)
C1D C 0.3967(5) 0.3651(5) -0.0281(4)
C2D C 0.3128(5) 0.3337(4) -0.0423(4)
C3D C 0.2455(5) 0.3629(4) -0.0257(3)
H1D H 0.2507 0.4039 -0.0074
C4D C 0.1714(5) 0.3301(4) -0.0366(4)
C5D C 0.1623(5) 0.2703(5) -0.0654(4)
H2D H 0.1117 0.2489 -0.0730
C6D C 0.2267(5) 0.2432(4) -0.0823(4)
C7D C 0.3046(5) 0.2731(4) -0.0707(4)
H3D H 0.3491 0.2530 -0.0816
C8D C 0.5127(7) 0.4450(5) -0.1167(5)
C9D C 0.4749(5) 0.4966(4) -0.1559(4)
C10D C 0.4855(5) 0.5672(4) -0.1478(4)
H4D H 0.5172 0.5833 -0.1179
C11D C 0.4493(5) 0.6127(5) -0.1839(4)
C12D C 0.4024(5) 0.5913(5) -0.2293(4)
H5D H 0.3795 0.6227 -0.2541
C13D C 0.3907(5) 0.5202(5) -0.2366(4)
C14D C 0.4269(5) 0.4738(4) -0.2006(4)
H6D H 0.4191 0.4268 -0.2063
C15D C 0.3487(5) 0.6223(5) -0.0567(4)
C16D C 0.2977(5) 0.6007(5) -0.1068(4)
C17D C 0.2641(5) 0.6512(5) -0.1420(4)
H7D H 0.2742 0.6976 -0.1350
C18D C 0.2164(6) 0.6314(6) -0.1865(4)
C19D C 0.1976(6) 0.5638(6) -0.1978(4)
H8D H 0.1628 0.5515 -0.2276
C20D C 0.2322(6) 0.5145(6) -0.1631(4)
C21D C 0.2831(5) 0.5323(5) -0.1174(4)
H9D H 0.3066 0.4985 -0.0948
C22D C 0.7480(6) 0.3355(5) -0.0883(5)
H10D H 0.7307 0.2901 -0.0923
C23D C 0.8150(6) 0.3537(5) -0.1080(5)
H11D H 0.8404 0.3211 -0.1254
C24D C 0.8448(6) 0.4184(5) -0.1027(5)
C25D C 0.8051(6) 0.4623(5) -0.0746(4)
H12D H 0.8249 0.5066 -0.0675
C26D C 0.7364(6) 0.4413(5) -0.0571(4)
H13D H 0.7097 0.4728 -0.0396
C27D C 0.9156(6) 0.4402(5) -0.1270(4)
H14D H 0.9580 0.4056 -0.1200
H15D H 0.8981 0.4425 -0.1637
C28D C 0.9512(6) 0.5101(5) -0.1078(5)
H16D H 0.9107 0.5454 -0.1184
H17D H 0.9625 0.5095 -0.0708
C29D C 1.0297(6) 0.5294(4) -0.1274(5)
H18D H 1.0209 0.5266 -0.1644
H19D H 1.0731 0.4979 -0.1137
C30D C 1.0523(6) 0.6016(5) -0.1104(5)
C31D C 1.0172(8) 0.6575(6) -0.1377(5)
H20D H 0.9823 0.6513 -0.1687
C32D C 1.0347(7) 0.7226(5) -0.1185(5)
H21D H 1.0114 0.7597 -0.1379
C33D C 1.1169(6) 0.6830(4) -0.0484(4)
H22D H 1.1519 0.6915 -0.0178
C34D C 1.1042(6) 0.6166(5) -0.0639(4)
H23D H 1.1298 0.5811 -0.0438
Cd1B Cd -0.08197(4) 0.15254(3) 0.04314(3)
Cd1F Cd 1.08197(4) 0.84746(3) -0.04314(3)
N2B N 0.4179(5) 0.7640(4) 0.0746(3)
N2F N 0.5821(5) 0.2360(4) -0.0746(3)
loop_
_geom_bond_atom_site_label_1
_geom_bond_atom_site_label_2
_geom_bond_site_symmetry_1
_geom_bond_site_symmetry_2
Cd1 O2 1_555 1_555
Cd2 O1 1_555 1_555
O1 C1 1_555 1_555
O2 C1 1_555 1_555
O3 Cd1 1_555 1_555
O4 Cd1 1_555 1_555
O5 Cd2 1_555 1_555
O6 C15 1_555 1_555
N1 Cd1 1_555 1_555
N2 C32 1_555 1_555
I1 C4 1_555 1_555
I2 C6 1_555 1_555
I3 C11 1_555 1_555
I4 C13 1_555 1_555
I5 C18 1_555 1_555
I6 C20 1_555 1_555
C1 C2 1_555 1_555
C2 C3 1_555 1_555
C3 H1 1_555 1_555
C4 C3 1_555 1_555
C5 C4 1_555 1_555
H2 C5 1_555 1_555
C6 C5 1_555 1_555
C7 C2 1_555 1_555
H3 C7 1_555 1_555
C8 O3 1_555 1_555
C9 C8 1_555 1_555
C10 C9 1_555 1_555
H4 C10 1_555 1_555
C11 C10 1_555 1_555
C12 C11 1_555 1_555
H5 C12 1_555 1_555
C13 C12 1_555 1_555
C14 C9 1_555 1_555
H6 C14 1_555 1_555
C15 O5 1_555 1_555
C16 C15 1_555 1_555
C17 C16 1_555 1_555
H7 C17 1_555 1_555
C18 C17 1_555 1_555
C19 C18 1_555 1_555
H8 C19 1_555 1_555
C20 C19 1_555 1_555
C21 C16 1_555 1_555
H9 C21 1_555 1_555
C22 N1 1_555 1_555
H10 C22 1_555 1_555
C23 C22 1_555 1_555
H11 C23 1_555 1_555
C24 C23 1_555 1_555
C25 C24 1_555 1_555
H12 C25 1_555 1_555
C26 N1 1_555 1_555
H13 C26 1_555 1_555
C27 C24 1_555 1_555
H14 C27 1_555 1_555
H15 C27 1_555 1_555
C28 C27 1_555 1_555
H16 C28 1_555 1_555
H17 C28 1_555 1_555
C29 C28 1_555 1_555
H18 C29 1_555 1_555
H19 C29 1_555 1_555
C30 C29 1_555 1_555
C31 C30 1_555 1_555
H20 C31 1_555 1_555
C32 C31 1_555 1_555
H21 C32 1_555 1_555
C33 N2 1_555 1_555
H22 C33 1_555 1_555
C34 C30 1_555 1_555
H23 C34 1_555 1_555
Cd1D O5 1_555 1_555
O1D Cd2 1_555 1_555
O2D Cd1D 1_555 1_555
O3D Cd1D 1_555 1_555
O4D Cd2 1_555 1_555
O5D Cd1 1_555 1_555
O6D Cd1 1_555 1_555
N1D Cd1D 1_555 1_555
N2D C32D 1_555 1_555
I1D C4D 1_555 1_555
I2D C6D 1_555 1_555
I3D C11D 1_555 1_555
I4D C13D 1_555 1_555
I5D C18D 1_555 1_555
I6D C20D 1_555 1_555
C1D O1D 1_555 1_555
C2D C1D 1_555 1_555
C3D C2D 1_555 1_555
H1D C3D 1_555 1_555
C4D C3D 1_555 1_555
C5D C4D 1_555 1_555
H2D C5D 1_555 1_555
C6D C5D 1_555 1_555
C7D C2D 1_555 1_555
H3D C7D 1_555 1_555
C8D O3D 1_555 1_555
C9D C8D 1_555 1_555
C10D C9D 1_555 1_555
H4D C10D 1_555 1_555
C11D C10D 1_555 1_555
C12D C11D 1_555 1_555
H5D C12D 1_555 1_555
C13D C12D 1_555 1_555
C14D C9D 1_555 1_555
H6D C14D 1_555 1_555
C15D O5D 1_555 1_555
C16D C15D 1_555 1_555
C17D C16D 1_555 1_555
H7D C17D 1_555 1_555
C18D C17D 1_555 1_555
C19D C18D 1_555 1_555
H8D C19D 1_555 1_555
C20D C19D 1_555 1_555
C21D C16D 1_555 1_555
H9D C21D 1_555 1_555
C22D N1D 1_555 1_555
H10D C22D 1_555 1_555
C23D C22D 1_555 1_555
H11D C23D 1_555 1_555
C24D C23D 1_555 1_555
C25D C24D 1_555 1_555
H12D C25D 1_555 1_555
C26D N1D 1_555 1_555
H13D C26D 1_555 1_555
C27D C24D 1_555 1_555
H14D C27D 1_555 1_555
H15D C27D 1_555 1_555
C28D C27D 1_555 1_555
H16D C28D 1_555 1_555
H17D C28D 1_555 1_555
C29D C28D 1_555 1_555
H18D C29D 1_555 1_555
H19D C29D 1_555 1_555
C30D C29D 1_555 1_555
C31D C30D 1_555 1_555
H20D C31D 1_555 1_555
C32D C31D 1_555 1_555
H21D C32D 1_555 1_555
C33D N2D 1_555 1_555
H22D C33D 1_555 1_555
C34D C30D 1_555 1_555
H23D C34D 1_555 1_555
Cd1B N2 1_555 1_555
Cd1F N2D 1_555 1_555
N2B Cd1 1_555 1_555
N2F Cd1D 1_555 1_555
Cd2 O4 1_555 1_555
Cd2 O5D 1_555 1_555
O4 C8 1_555 1_555
O6 Cd1D 1_555 1_555
C6 C7 1_555 1_555
C13 C14 1_555 1_555
C20 C21 1_555 1_555
C25 C26 1_555 1_555
C33 C34 1_555 1_555
Cd1D O4D 1_555 1_555
O2D C1D 1_555 1_555
O4D C8D 1_555 1_555
O6D C15D 1_555 1_555
C6D C7D 1_555 1_555
C13D C14D 1_555 1_555
C20D C21D 1_555 1_555
C25D C26D 1_555 1_555
C33D C34D 1_555 1_555

#END
