
#######################################################################
#
#                 Cambridge Crystallographic Data Centre
#                                CCDC 
#
#######################################################################
#
# If this CIF has been generated from an entry in the Cambridge 
# Structural Database, then it will include bibliographic, chemical, 
# crystal, experimental, refinement or atomic coordinate data resulting 
# from the CCDC's data processing and validation procedures.
#
#######################################################################

data_YOYXUH
_symmetry_cell_setting           triclinic
_symmetry_space_group_name_H-M   'P -1'
_symmetry_Int_Tables_number      2
_space_group_name_Hall           '-P 1'
loop_
_symmetry_equiv_pos_site_id
_symmetry_equiv_pos_as_xyz
1 x,y,z
2 -x,-y,-z
_cell_length_a                   8.8418(4)
_cell_length_b                   12.4503(7)
_cell_length_c                   15.9648(7)
_cell_angle_alpha                68.773(5)
_cell_angle_beta                 81.465(4)
_cell_angle_gamma                89.139(4)
_cell_volume                     1618.65
loop_
_atom_site_label
_atom_site_type_symbol
_atom_site_fract_x
_atom_site_fract_y
_atom_site_fract_z
Co1 Co 0.66857(12) 0.09546(10) -0.07156(7)
Co2 Co 1.0000 0.0000 0.0000
N1 N 0.6035(8) 0.2428(6) -0.0400(5)
O1 O 0.7965(6) 0.1933(5) -0.1896(3)
O2 O 0.9974(6) 0.1408(4) -0.1175(3)
O3 O 0.7576(6) 0.0344(5) 0.0503(3)
O4 O 0.5464(7) -0.0757(6) 0.0947(4)
O5 O 1.0682(7) 0.1147(5) 0.0548(4)
O6 O 1.2900(7) 0.0474(6) 0.1006(5)
I1 I 1.04226(13) 0.36234(11) -0.56299(5)
I2 I 1.50504(11) 0.40831(9) -0.33673(6)
I3 I 0.33556(9) -0.16343(10) 0.46086(5)
I4 I 0.97016(9) 0.04813(9) 0.36147(5)
I5 I 0.96595(11) 0.51031(8) 0.14750(8)
I6 I 1.50236(12) 0.26335(8) 0.30271(8)
C1 C 0.9358(10) 0.1922(8) -0.1857(6)
C2 C 1.0427(11) 0.2582(7) -0.2724(6)
C3 C 0.9987(11) 0.2801(8) -0.3576(6)
H1 H 0.9007 0.2589 -0.3621
C4 C 1.1030(13) 0.3333(9) -0.4347(6)
C5 C 1.2477(13) 0.3691(9) -0.4296(7)
H2 H 1.3172 0.4046 -0.4822
C6 C 1.2871(12) 0.3512(8) -0.3452(7)
C7 C 1.1876(11) 0.2938(8) -0.2669(6)
H3 H 1.2174 0.2790 -0.2104
C8 C 0.6533(9) -0.0267(6) 0.1120(5)
C9 C 0.6532(10) -0.0362(7) 0.2089(5)
C10 C 0.5256(10) -0.0844(8) 0.2737(6)
H4 H 0.4401 -0.1108 0.2581
C11 C 0.5290(10) -0.0923(8) 0.3615(6)
C12 C 0.6553(10) -0.0570(9) 0.3879(6)
H5 H 0.6566 -0.0667 0.4483
C13 C 0.7789(10) -0.0073(8) 0.3224(6)
C14 C 0.7810(10) 0.0054(7) 0.2323(6)
H6 H 0.8649 0.0406 0.1885
C15 C 1.1871(10) 0.1163(7) 0.0916(5)
C16 C 1.2000(9) 0.2079(7) 0.1306(5)
C17 C 1.0996(10) 0.2959(8) 0.1205(6)
H7 H 1.0198 0.3011 0.0874
C18 C 1.1179(10) 0.3764(8) 0.1596(7)
C19 C 1.2355(11) 0.3711(8) 0.2090(6)
H8 H 1.2494 0.4271 0.2333
C20 C 1.3311(11) 0.2805(8) 0.2212(6)
C21 C 1.3177(10) 0.2005(7) 0.1812(6)
H9 H 1.3868 0.1420 0.1880
C22 C 0.6787(12) 0.2844(9) 0.0085(8)
H10 H 0.7620 0.2446 0.0320
C23 C 0.6417(12) 0.3826(8) 0.0261(8)
H11 H 0.6975 0.4057 0.0621
C24 C 0.5224(11) 0.4467(8) -0.0092(7)
C25 C 0.4434(11) 0.4059(8) -0.0598(6)
H12 H 0.3610 0.4453 -0.0849
C26 C 0.4876(12) 0.3046(8) -0.0734(7)
H13 H 0.4324 0.2787 -0.1082
N1A N 0.3965(8) 0.7572(6) 0.0400(5)
C22A C 0.3213(12) 0.7156(9) -0.0085(8)
H10A H 0.2380 0.7554 -0.0320
C23A C 0.3583(12) 0.6174(8) -0.0261(8)
H11A H 0.3025 0.5943 -0.0621
C24A C 0.4776(11) 0.5533(8) 0.0092(7)
C25A C 0.5566(11) 0.5941(8) 0.0598(6)
H12A H 0.6390 0.5547 0.0849
C26A C 0.5124(12) 0.6954(8) 0.0734(7)
H13A H 0.5676 0.7213 0.1082
Co1A Co 0.33143(12) -0.09546(10) 0.07156(7)
O1A O 0.2035(6) -0.1933(5) 0.1896(3)
O2A O 0.0026(6) -0.1408(4) 0.1175(3)
O3A O 0.2424(6) -0.0344(5) -0.0503(3)
O4A O 0.4536(7) 0.0757(6) -0.0947(4)
I1A I -0.04226(13) -0.36234(11) 0.56299(5)
I2A I -0.50504(11) -0.40831(9) 0.33673(6)
I3A I 0.66444(9) 0.16343(10) -0.46086(5)
I4A I 0.02984(9) -0.04813(9) -0.36147(5)
C1A C 0.0642(10) -0.1922(8) 0.1857(6)
C2A C -0.0427(11) -0.2582(7) 0.2724(6)
C3A C 0.0013(11) -0.2801(8) 0.3576(6)
H1A H 0.0993 -0.2589 0.3621
C4A C -0.1030(13) -0.3333(9) 0.4347(6)
C5A C -0.2477(13) -0.3691(9) 0.4296(7)
H2A H -0.3172 -0.4046 0.4822
C6A C -0.2871(12) -0.3512(8) 0.3452(7)
C7A C -0.1876(11) -0.2938(8) 0.2669(6)
H3A H -0.2174 -0.2790 0.2104
C8A C 0.3467(9) 0.0267(6) -0.1120(5)
C9A C 0.3468(10) 0.0362(7) -0.2089(5)
C10A C 0.4744(10) 0.0844(8) -0.2737(6)
H4A H 0.5599 0.1108 -0.2581
C11A C 0.4710(10) 0.0923(8) -0.3615(6)
C12A C 0.3447(10) 0.0570(9) -0.3879(6)
H5A H 0.3434 0.0667 -0.4483
C13A C 0.2211(10) 0.0073(8) -0.3224(6)
C14A C 0.2190(10) -0.0054(7) -0.2323(6)
H6A H 0.1351 -0.0406 -0.1885
O5A O 0.9318(7) -0.1147(5) -0.0548(4)
O6A O 0.7100(7) -0.0474(6) -0.1006(5)
I5A I 1.03405(11) -0.51031(8) -0.14750(8)
I6A I 0.49764(12) -0.26335(8) -0.30271(8)
C15A C 0.8129(10) -0.1163(7) -0.0916(5)
C16A C 0.8000(9) -0.2079(7) -0.1306(5)
C17A C 0.9004(10) -0.2959(8) -0.1205(6)
H7A H 0.9802 -0.3011 -0.0874
C18A C 0.8821(10) -0.3764(8) -0.1596(7)
C19A C 0.7645(11) -0.3711(8) -0.2090(6)
H8A H 0.7506 -0.4271 -0.2333
C20A C 0.6689(11) -0.2805(8) -0.2212(6)
C21A C 0.6823(10) -0.2005(7) -0.1812(6)
H9A H 0.6132 -0.1420 -0.1880
Co1A_2 Co 0.33143(12) 0.90454(10) 0.07156(7)
Co1A_3 Co 1.33143(12) -0.09546(10) 0.07156(7)
Co2_2 Co 0.0000 0.0000 0.0000
N1A_2 N 0.3965(8) -0.2428(6) 0.0400(5)
O2A_2 O 1.0026(6) -0.1408(4) 0.1175(3)
O3A_2 O 1.2424(6) -0.0344(5) -0.0503(3)
O6_2 O 0.2900(7) 0.0474(6) 0.1006(5)
loop_
_geom_bond_atom_site_label_1
_geom_bond_atom_site_label_2
_geom_bond_site_symmetry_1
_geom_bond_site_symmetry_2
Co1 N1 1_555 1_555
Co2 O2 1_555 1_555
N1 C22 1_555 1_555
O1 Co1 1_555 1_555
O2 C1 1_555 1_555
O3 Co1 1_555 1_555
O4 C8 1_555 1_555
O5 Co2 1_555 1_555
O6 C15 1_555 1_555
I1 C4 1_555 1_555
I2 C6 1_555 1_555
I3 C11 1_555 1_555
I4 C13 1_555 1_555
I5 C18 1_555 1_555
I6 C20 1_555 1_555
C1 O1 1_555 1_555
C2 C1 1_555 1_555
C3 C2 1_555 1_555
H1 C3 1_555 1_555
C4 C3 1_555 1_555
C5 C4 1_555 1_555
H2 C5 1_555 1_555
C6 C5 1_555 1_555
C7 C2 1_555 1_555
H3 C7 1_555 1_555
C8 O3 1_555 1_555
C9 C8 1_555 1_555
C10 C9 1_555 1_555
H4 C10 1_555 1_555
C11 C10 1_555 1_555
C12 C11 1_555 1_555
H5 C12 1_555 1_555
C13 C12 1_555 1_555
C14 C9 1_555 1_555
H6 C14 1_555 1_555
C15 O5 1_555 1_555
C16 C15 1_555 1_555
C17 C16 1_555 1_555
H7 C17 1_555 1_555
C18 C17 1_555 1_555
C19 C18 1_555 1_555
H8 C19 1_555 1_555
C20 C19 1_555 1_555
C21 C16 1_555 1_555
H9 C21 1_555 1_555
C22 H10 1_555 1_555
C23 C22 1_555 1_555
H11 C23 1_555 1_555
C24 C23 1_555 1_555
C25 C24 1_555 1_555
H12 C25 1_555 1_555
C26 N1 1_555 1_555
H13 C26 1_555 1_555
N1A C22A 1_555 1_555
C22A H10A 1_555 1_555
C23A C22A 1_555 1_555
H11A C23A 1_555 1_555
C24A C24 1_555 1_555
C25A C24A 1_555 1_555
H12A C25A 1_555 1_555
C26A N1A 1_555 1_555
H13A C26A 1_555 1_555
Co1A O4 1_555 1_555
O1A Co1A 1_555 1_555
O2A C1A 1_555 1_555
O3A Co1A 1_555 1_555
O4A Co1 1_555 1_555
I1A C4A 1_555 1_555
I2A C6A 1_555 1_555
I3A C11A 1_555 1_555
I4A C13A 1_555 1_555
C1A O1A 1_555 1_555
C2A C1A 1_555 1_555
C3A C2A 1_555 1_555
H1A C3A 1_555 1_555
C4A C3A 1_555 1_555
C5A C4A 1_555 1_555
H2A C5A 1_555 1_555
C6A C5A 1_555 1_555
C7A C2A 1_555 1_555
H3A C7A 1_555 1_555
C8A O3A 1_555 1_555
C9A C8A 1_555 1_555
C10A C9A 1_555 1_555
H4A C10A 1_555 1_555
C11A C10A 1_555 1_555
C12A C11A 1_555 1_555
H5A C12A 1_555 1_555
C13A C12A 1_555 1_555
C14A C9A 1_555 1_555
H6A C14A 1_555 1_555
O5A Co2 1_555 1_555
O6A Co1 1_555 1_555
I5A C18A 1_555 1_555
I6A C20A 1_555 1_555
C15A O5A 1_555 1_555
C16A C15A 1_555 1_555
C17A C16A 1_555 1_555
H7A C17A 1_555 1_555
C18A C17A 1_555 1_555
C19A C18A 1_555 1_555
H8A C19A 1_555 1_555
C20A C19A 1_555 1_555
C21A C16A 1_555 1_555
H9A C21A 1_555 1_555
Co1A_2 N1A 1_555 1_555
Co1A_3 O6 1_555 1_555
Co2_2 O2A 1_555 1_555
N1A_2 Co1A 1_555 1_555
O2A_2 Co2 1_555 1_555
O3A_2 Co2 1_555 1_555
O6_2 Co1A 1_555 1_555
Co2 O3 1_555 1_555
C6 C7 1_555 1_555
C13 C14 1_555 1_555
C20 C21 1_555 1_555
C25 C26 1_555 1_555
C23A C24A 1_555 1_555
C25A C26A 1_555 1_555
O3A Co2_2 1_555 1_555
O4A C8A 1_555 1_555
C6A C7A 1_555 1_555
C13A C14A 1_555 1_555
O6A C15A 1_555 1_555
C20A C21A 1_555 1_555
Co1A_3 O3A_2 1_555 1_555

#END
