
#######################################################################
#
#                 Cambridge Crystallographic Data Centre
#                                CCDC 
#
#######################################################################
#
# If this CIF has been generated from an entry in the Cambridge 
# Structural Database, then it will include bibliographic, chemical, 
# crystal, experimental, refinement or atomic coordinate data resulting 
# from the CCDC's data processing and validation procedures.
#
#######################################################################

data_YOZDAU
_symmetry_cell_setting           monoclinic
_symmetry_space_group_name_H-M   'P 21/c'
_symmetry_Int_Tables_number      14
_space_group_name_Hall           '-P 2ybc'
loop_
_symmetry_equiv_pos_site_id
_symmetry_equiv_pos_as_xyz
1 x,y,z
2 -x,1/2+y,1/2-z
3 -x,-y,-z
4 x,1/2-y,1/2+z
_cell_length_a                   12.6467(6)
_cell_length_b                   16.1425(7)
_cell_length_c                   24.7042(11)
_cell_angle_alpha                90
_cell_angle_beta                 95.8420(10)
_cell_angle_gamma                90
_cell_volume                     5017.15
loop_
_atom_site_label
_atom_site_type_symbol
_atom_site_fract_x
_atom_site_fract_y
_atom_site_fract_z
Cu1 Cu 0.29080(8) 0.33583(6) 0.28699(4)
Cu2 Cu 0.47556(8) 0.41399(6) 0.33869(4)
Cu3 Cu 0.33714(8) 0.49785(6) 0.27030(4)
Cu4 Cu 0.45781(8) 0.37956(6) 0.22492(4)
I1 I 0.48362(4) 0.26058(3) 0.301540(19)
I2 I 0.55147(4) 0.51412(3) 0.266799(19)
I3 I 0.27921(4) 0.44485(3) 0.36687(2)
I4 I 0.25189(4) 0.40562(3) 0.18842(2)
S1 S 0.17232(15) 0.22641(12) 0.29128(8)
S2 S -0.28446(19) 0.13459(15) 0.23623(9)
S3 S 0.54107(16) 0.32176(12) 0.15438(7)
S4 S 0.58360(16) 0.07851(12) -0.07986(7)
O1 O 0.0835(4) 0.1649(3) 0.4120(2)
O2 O -0.0988(4) 0.1788(3) 0.3950(2)
O3 O 0.0136(5) 0.1319(4) 0.1957(2)
O4 O 0.6511(5) 0.3727(3) 0.0292(2)
O5 O 0.7070(4) 0.2890(3) -0.0357(2)
O6 O 0.5023(4) 0.1782(3) 0.0584(2)
C1 C -0.0115(6) 0.1790(6) 0.4348(3)
H1 H -0.0076 0.2330 0.4538
H2 H -0.0213 0.1354 0.4620
C2 C -0.1074(6) 0.2446(5) 0.3598(3)
C3 C -0.0450(6) 0.3179(5) 0.3661(3)
H3 H 0.0113 0.3220 0.3946
C4 C -0.0672(7) 0.3836(6) 0.3304(4)
H4 H -0.0252 0.4324 0.3340
C5 C -0.1494(7) 0.3782(6) 0.2899(4)
H5 H -0.1666 0.4245 0.2670
C6 C -0.2075(7) 0.3058(5) 0.2823(3)
H6 H -0.2629 0.3027 0.2533
C7 C -0.1869(6) 0.2377(5) 0.3159(3)
C8 C -0.2443(6) 0.1565(5) 0.3070(3)
H7 H -0.3082 0.1572 0.3271
H8 H -0.1974 0.1114 0.3223
C9 C -0.1684(7) 0.1526(6) 0.2031(4)
H9 H -0.1833 0.1376 0.1643
H10 H -0.1516 0.2125 0.2051
C10 C -0.0747(8) 0.1058(7) 0.2266(4)
H11 H -0.0872 0.0455 0.2226
H12 H -0.0586 0.1189 0.2657
C11 C 0.1123(7) 0.1000(6) 0.2156(4)
H13 H 0.1386 0.0634 0.1877
H14 H 0.1043 0.0661 0.2483
C12 C 0.1937(6) 0.1682(5) 0.2302(3)
H15 H 0.1924 0.2072 0.1992
H16 H 0.2653 0.1429 0.2352
C13 C 0.2427(6) 0.1613(5) 0.3441(3)
H17 H 0.3123 0.1453 0.3322
H18 H 0.2569 0.1946 0.3777
C14 C 0.1841(6) 0.0835(5) 0.3575(3)
C15 C 0.2137(7) 0.0063(5) 0.3399(3)
H19 H 0.2730 0.0020 0.3194
C16 C 0.1594(7) -0.0645(6) 0.3514(4)
H20 H 0.1819 -0.1171 0.3397
C17 C 0.0718(7) -0.0579(6) 0.3803(4)
H21 H 0.0313 -0.1058 0.3868
C18 C 0.0430(7) 0.0178(5) 0.3997(4)
H22 H -0.0169 0.0216 0.4199
C19 C 0.0996(6) 0.0880(5) 0.3902(3)
C20 C 0.7138(7) 0.3689(5) -0.0154(3)
H23 H 0.6870 0.4089 -0.0439
H24 H 0.7887 0.3829 -0.0031
C21 C 0.7724(6) 0.2290(5) -0.0111(3)
C22 C 0.8336(7) 0.2416(6) 0.0391(3)
H25 H 0.8296 0.2922 0.0584
C23 C 0.8989(7) 0.1793(7) 0.0593(4)
H26 H 0.9416 0.1876 0.0928
C24 C 0.9051(8) 0.1033(6) 0.0324(4)
H27 H 0.9513 0.0606 0.0469
C25 C 0.8416(7) 0.0925(6) -0.0161(4)
H28 H 0.8443 0.0411 -0.0346
C26 C 0.7748(6) 0.1535(5) -0.0384(3)
C27 C 0.7031(6) 0.1389(5) -0.0898(3)
H29 H 0.7437 0.1095 -0.1161
H30 H 0.6811 0.1932 -0.1059
C28 C 0.5194(6) 0.1450(5) -0.0334(3)
H31 H 0.5388 0.2034 -0.0394
H32 H 0.4413 0.1398 -0.0409
C29 C 0.5529(7) 0.1213(5) 0.0251(3)
H33 H 0.5305 0.0639 0.0322
H34 H 0.6311 0.1249 0.0329
C30 C 0.5277(8) 0.1600(5) 0.1142(3)
H35 H 0.6058 0.1608 0.1230
H36 H 0.5020 0.1037 0.1220
C31 C 0.4778(7) 0.2218(5) 0.1491(3)
H37 H 0.4780 0.1984 0.1862
H38 H 0.4027 0.2295 0.1344
C32 C 0.4821(6) 0.3680(5) 0.0907(3)
H39 H 0.4880 0.3283 0.0606
H40 H 0.4057 0.3783 0.0933
C33 C 0.5349(6) 0.4478(5) 0.0779(3)
C34 C 0.4993(7) 0.5221(5) 0.0961(3)
H41 H 0.4463 0.5221 0.1207
C35 C 0.5387(8) 0.5975(5) 0.0793(3)
H42 H 0.5109 0.6482 0.0913
C36 C 0.6187(8) 0.5974(5) 0.0451(3)
H43 H 0.6462 0.6484 0.0333
C37 C 0.6583(7) 0.5238(5) 0.0283(3)
H44 H 0.7143 0.5239 0.0054
C38 C 0.6173(6) 0.4494(5) 0.0444(3)
Cu2C Cu 0.47556(8) 0.08601(6) -0.16131(4)
Cu3A Cu -0.33714(8) -0.00215(6) 0.22970(4)
S2A S 0.28446(19) 0.63459(15) 0.26377(9)
S4C S 0.58360(16) 0.42149(12) 0.42014(7)
C39 C 0.2605(14) 0.3732(7) 0.5282(4)
H45 H 0.3390 0.3704 0.5338
H46 H 0.2406 0.4213 0.5044
Cl1 Cl 0.2112(4) 0.3868(3) 0.58968(18)
Cl2 Cl 0.2120(5) 0.2840(4) 0.4968(3)
C40? C 0.253(5) 0.296(2) 0.560(4)
H47? H 0.3259 0.2899 0.5500
H48? H 0.2565 0.3127 0.5990
Cl3? Cl 0.1838(6) 0.2042(6) 0.5502(3)
Cl4? Cl 0.182(3) 0.366(2) 0.5193(14)
loop_
_geom_bond_atom_site_label_1
_geom_bond_atom_site_label_2
_geom_bond_site_symmetry_1
_geom_bond_site_symmetry_2
Cu1 I1 1_555 1_555
Cu2 I1 1_555 1_555
Cu3 I2 1_555 1_555
Cu4 I1 1_555 1_555
I2 Cu2 1_555 1_555
I3 Cu1 1_555 1_555
I4 Cu1 1_555 1_555
S1 Cu1 1_555 1_555
S2 C8 1_555 1_555
S3 Cu4 1_555 1_555
S4 C27 1_555 1_555
O1 C1 1_555 1_555
O2 C1 1_555 1_555
O3 C10 1_555 1_555
O4 C20 1_555 1_555
O5 C20 1_555 1_555
O6 C29 1_555 1_555
C1 H1 1_555 1_555
H2 C1 1_555 1_555
C2 O2 1_555 1_555
C3 C2 1_555 1_555
H3 C3 1_555 1_555
C4 C3 1_555 1_555
H4 C4 1_555 1_555
C5 C4 1_555 1_555
H5 C5 1_555 1_555
C6 C5 1_555 1_555
H6 C6 1_555 1_555
C7 C2 1_555 1_555
C8 C7 1_555 1_555
H7 C8 1_555 1_555
H8 C8 1_555 1_555
C9 S2 1_555 1_555
H9 C9 1_555 1_555
H10 C9 1_555 1_555
C10 C9 1_555 1_555
H11 C10 1_555 1_555
H12 C10 1_555 1_555
C11 O3 1_555 1_555
H13 C11 1_555 1_555
H14 C11 1_555 1_555
C12 S1 1_555 1_555
H15 C12 1_555 1_555
H16 C12 1_555 1_555
C13 S1 1_555 1_555
H17 C13 1_555 1_555
H18 C13 1_555 1_555
C14 C13 1_555 1_555
C15 C14 1_555 1_555
H19 C15 1_555 1_555
C16 C15 1_555 1_555
H20 C16 1_555 1_555
C17 C16 1_555 1_555
H21 C17 1_555 1_555
C18 C17 1_555 1_555
H22 C18 1_555 1_555
C19 O1 1_555 1_555
C20 H23 1_555 1_555
H24 C20 1_555 1_555
C21 O5 1_555 1_555
C22 C21 1_555 1_555
H25 C22 1_555 1_555
C23 C22 1_555 1_555
H26 C23 1_555 1_555
C24 C23 1_555 1_555
H27 C24 1_555 1_555
C25 C24 1_555 1_555
H28 C25 1_555 1_555
C26 C21 1_555 1_555
C27 C26 1_555 1_555
H29 C27 1_555 1_555
H30 C27 1_555 1_555
C28 S4 1_555 1_555
H31 C28 1_555 1_555
H32 C28 1_555 1_555
C29 C28 1_555 1_555
H33 C29 1_555 1_555
H34 C29 1_555 1_555
C30 O6 1_555 1_555
H35 C30 1_555 1_555
H36 C30 1_555 1_555
C31 S3 1_555 1_555
H37 C31 1_555 1_555
H38 C31 1_555 1_555
C32 S3 1_555 1_555
H39 C32 1_555 1_555
H40 C32 1_555 1_555
C33 C32 1_555 1_555
C34 C33 1_555 1_555
H41 C34 1_555 1_555
C35 C34 1_555 1_555
H42 C35 1_555 1_555
C36 C35 1_555 1_555
H43 C36 1_555 1_555
C37 C36 1_555 1_555
H44 C37 1_555 1_555
C38 O4 1_555 1_555
C39 H45 1_555 1_555
H46 C39 1_555 1_555
Cl1 C39 1_555 1_555
Cl2 C39 1_555 1_555
Cu2C S4 1_555 1_555
Cu3A S2 1_555 1_555
S2A Cu3 1_555 1_555
S4C Cu2 1_555 1_555
Cu2 I3 1_555 1_555
Cu3 I3 1_555 1_555
Cu3 I4 1_555 1_555
Cu4 I2 1_555 1_555
Cu4 I4 1_555 1_555
C6 C7 1_555 1_555
C11 C12 1_555 1_555
C14 C19 1_555 1_555
C18 C19 1_555 1_555
C25 C26 1_555 1_555
C30 C31 1_555 1_555
C33 C38 1_555 1_555
C37 C38 1_555 1_555

#END
