
#######################################################################
#
#                 Cambridge Crystallographic Data Centre
#                                CCDC 
#
#######################################################################
#
# If this CIF has been generated from an entry in the Cambridge 
# Structural Database, then it will include bibliographic, chemical, 
# crystal, experimental, refinement or atomic coordinate data resulting 
# from the CCDC's data processing and validation procedures.
#
#######################################################################

data_YOZDOI
_symmetry_cell_setting           monoclinic
_symmetry_space_group_name_H-M   'P 21/n'
_symmetry_Int_Tables_number      14
_space_group_name_Hall           '-P 2yn'
loop_
_symmetry_equiv_pos_site_id
_symmetry_equiv_pos_as_xyz
1 x,y,z
2 1/2-x,1/2+y,1/2-z
3 -x,-y,-z
4 1/2+x,1/2-y,1/2+z
_cell_length_a                   10.9164(8)
_cell_length_b                   16.9206(12)
_cell_length_c                   12.5108(9)
_cell_angle_alpha                90
_cell_angle_beta                 90.6320(10)
_cell_angle_gamma                90
_cell_volume                     2310.75
loop_
_atom_site_label
_atom_site_type_symbol
_atom_site_fract_x
_atom_site_fract_y
_atom_site_fract_z
Cu1 Cu 0.59446(4) 1.01437(3) 0.91938(3)
I1 I 0.52926(2) 1.119147(13) 1.065250(18)
S1 S 0.88728(8) 0.57489(5) 0.74378(7)
S2 S 1.03592(9) 0.80584(6) 0.83840(8)
S3 S 0.79151(8) 0.98224(5) 0.98283(7)
O1 O 0.7829(3) 0.55813(15) 1.0011(2)
O2 O 0.7787(2) 0.78805(15) 1.1498(2)
C1 C 0.6851(4) 0.5843(2) 1.0682(3)
H1 H 0.6935 0.5606 1.1385
H2 H 0.6070 0.5680 1.0377
C2 C 0.6893(4) 0.6736(2) 1.0775(3)
H3 H 0.6953 0.6960 1.0065
H4 H 0.6131 0.6918 1.1081
C3 C 0.7948(4) 0.7038(2) 1.1454(3)
H5 H 0.7925 0.6811 1.2165
H6 H 0.8726 0.6906 1.1132
C4 C 0.8694(3) 0.8334(2) 1.1960(3)
C5 C 0.9685(4) 0.8028(2) 1.2531(3)
H7 H 0.9748 0.7486 1.2649
C6 C 1.0574(4) 0.8535(3) 1.2922(3)
H8 H 1.1240 0.8329 1.3300
C7 C 1.0493(4) 0.9345(3) 1.2762(3)
H9 H 1.1101 0.9682 1.3022
C8 C 0.9491(4) 0.9643(2) 1.2208(3)
H10 H 0.9421 1.0187 1.2112
C9 C 0.8588(3) 0.9151(2) 1.1792(3)
C10 C 0.7520(3) 0.9480(2) 1.1163(3)
H11 H 0.7172 0.9918 1.1558
H12 H 0.6895 0.9075 1.1099
C11 C 0.8359(4) 0.8925(2) 0.9132(3)
H13 H 0.7762 0.8516 0.9280
H14 H 0.8336 0.9026 0.8369
C12 C 0.9632(3) 0.8619(2) 0.9440(3)
H15 H 0.9564 0.8286 1.0067
H16 H 1.0150 0.9064 0.9628
C13 C 0.9370(4) 0.7196(2) 0.8343(3)
H17 H 0.9385 0.6932 0.9031
H18 H 0.8534 0.7355 0.8186
C14 C 0.9818(4) 0.6635(2) 0.7482(3)
H19 H 1.0662 0.6490 0.7630
H20 H 0.9785 0.6897 0.6793
C15 C 0.9583(4) 0.5174(2) 0.8517(3)
H21 H 1.0300 0.4902 0.8249
H22 H 0.9849 0.5527 0.9085
C16 C 0.8698(4) 0.4579(2) 0.8956(3)
C17 C 0.8732(4) 0.3794(2) 0.8620(3)
H23 H 0.9287 0.3646 0.8098
C18 C 0.7957(5) 0.3228(3) 0.9046(4)
H24 H 0.7992 0.2707 0.8812
C19 C 0.7132(5) 0.3450(3) 0.9822(4)
H25 H 0.6616 0.3073 1.0117
C20 C 0.7065(4) 0.4227(2) 1.0164(3)
H26 H 0.6508 0.4369 1.0687
C21 C 0.7833(4) 0.4796(2) 0.9721(3)
Cu1A Cu 0.90554(4) 0.51437(3) 0.58062(3)
Cu1B Cu 0.40554(4) 0.98563(3) 1.08062(3)
I1B I 0.47074(2) 0.880853(13) 0.934750(18)
S1A S 0.61272(8) 1.07489(5) 0.75622(7)
loop_
_geom_bond_atom_site_label_1
_geom_bond_atom_site_label_2
_geom_bond_site_symmetry_1
_geom_bond_site_symmetry_2
Cu1 I1 1_555 1_555
I1 Cu1B 1_555 1_555
S1 C14 1_555 1_555
S2 C12 1_555 1_555
S3 Cu1 1_555 1_555
O1 C1 1_555 1_555
O2 C3 1_555 1_555
C1 H1 1_555 1_555
H2 C1 1_555 1_555
C2 C1 1_555 1_555
H3 C2 1_555 1_555
H4 C2 1_555 1_555
C3 C2 1_555 1_555
H5 C3 1_555 1_555
H6 C3 1_555 1_555
C4 O2 1_555 1_555
C5 C4 1_555 1_555
H7 C5 1_555 1_555
C6 C5 1_555 1_555
H8 C6 1_555 1_555
C7 C6 1_555 1_555
H9 C7 1_555 1_555
C8 C7 1_555 1_555
H10 C8 1_555 1_555
C9 C4 1_555 1_555
C10 S3 1_555 1_555
H11 C10 1_555 1_555
H12 C10 1_555 1_555
C11 S3 1_555 1_555
H13 C11 1_555 1_555
H14 C11 1_555 1_555
C12 C11 1_555 1_555
H15 C12 1_555 1_555
H16 C12 1_555 1_555
C13 S2 1_555 1_555
H17 C13 1_555 1_555
H18 C13 1_555 1_555
C14 C13 1_555 1_555
H19 C14 1_555 1_555
H20 C14 1_555 1_555
C15 S1 1_555 1_555
H21 C15 1_555 1_555
H22 C15 1_555 1_555
C16 C15 1_555 1_555
C17 C16 1_555 1_555
H23 C17 1_555 1_555
C18 C17 1_555 1_555
H24 C18 1_555 1_555
C19 C18 1_555 1_555
H25 C19 1_555 1_555
C20 C19 1_555 1_555
H26 C20 1_555 1_555
C21 O1 1_555 1_555
Cu1A S1 1_555 1_555
Cu1B I1B 1_555 1_555
I1B Cu1 1_555 1_555
S1A Cu1 1_555 1_555
C8 C9 1_555 1_555
C9 C10 1_555 1_555
C16 C21 1_555 1_555
C20 C21 1_555 1_555

#END
