
#######################################################################
#
#                 Cambridge Crystallographic Data Centre
#                                CCDC 
#
#######################################################################
#
# If this CIF has been generated from an entry in the Cambridge 
# Structural Database, then it will include bibliographic, chemical, 
# crystal, experimental, refinement or atomic coordinate data resulting 
# from the CCDC's data processing and validation procedures.
#
#######################################################################

data_YOZDIC
_symmetry_cell_setting           orthorhombic
_symmetry_space_group_name_H-M   'P b c a'
_symmetry_Int_Tables_number      61
_space_group_name_Hall           '-P 2ac 2ab'
loop_
_symmetry_equiv_pos_site_id
_symmetry_equiv_pos_as_xyz
1 x,y,z
2 1/2-x,-y,1/2+z
3 -x,1/2+y,1/2-z
4 1/2+x,1/2-y,-z
5 -x,-y,-z
6 1/2+x,y,1/2-z
7 x,1/2-y,1/2+z
8 1/2-x,1/2+y,z
_cell_length_a                   17.1748(10)
_cell_length_b                   14.8738(9)
_cell_length_c                   17.6476(10)
_cell_angle_alpha                90
_cell_angle_beta                 90
_cell_angle_gamma                90
_cell_volume                     4508.16
loop_
_atom_site_label
_atom_site_type_symbol
_atom_site_fract_x
_atom_site_fract_y
_atom_site_fract_z
Cu1 Cu 0.55093(4) 0.43830(5) 0.54055(5)
I1 I 0.57988(2) 0.49623(3) 0.40050(2)
S1 S 0.84819(9) -0.00056(10) 0.61009(9)
S2 S 0.52542(9) 0.28886(10) 0.51943(10)
O1 O 0.7322(3) -0.0511(3) 0.7499(3)
O2 O 0.7312(3) 0.1691(3) 0.5637(3)
O3 O 0.5197(3) 0.0743(3) 0.6216(3)
C1 C 0.5524(4) -0.0119(5) 0.6375(5)
H1 H 0.5620 -0.0455 0.5900
H2 H 0.5170 -0.0475 0.6699
C2 C 0.6284(4) 0.0068(5) 0.6784(5)
H3 H 0.6655 0.0355 0.6428
H4 H 0.6188 0.0492 0.7206
C3 C 0.6636(4) -0.0778(5) 0.7090(4)
H5 H 0.6265 -0.1086 0.7431
H6 H 0.6774 -0.1191 0.6672
C4 C 0.7852(4) -0.1178(5) 0.7612(4)
C5 C 0.7678(5) -0.2006(5) 0.7943(4)
H7 H 0.7161 -0.2141 0.8096
C6 C 0.8268(5) -0.2633(5) 0.8045(4)
H8 H 0.8147 -0.3210 0.8243
C7 C 0.9020(5) -0.2427(5) 0.7865(4)
H9 H 0.9426 -0.2846 0.7962
C8 C 0.9187(4) -0.1601(5) 0.7539(4)
H10 H 0.9707 -0.1473 0.7393
C9 C 0.8620(4) -0.0956(5) 0.7420(4)
C10 C 0.8799(4) -0.0035(4) 0.7092(4)
H11 H 0.9365 0.0085 0.7123
H12 H 0.8523 0.0434 0.7386
C11 C 0.8610(4) 0.1189(4) 0.5913(4)
H13 H 0.9088 0.1395 0.6173
H14 H 0.8690 0.1272 0.5362
C12 C 0.7937(4) 0.1779(4) 0.6162(4)
H15 H 0.7762 0.1598 0.6674
H16 H 0.8108 0.2414 0.6185
C13 C 0.6683(4) 0.2287(4) 0.5795(4)
H17 H 0.6870 0.2916 0.5811
H18 H 0.6443 0.2138 0.6290
C14 C 0.6100(4) 0.2163(4) 0.5160(4)
H19 H 0.5919 0.1531 0.5166
H20 H 0.6370 0.2264 0.4672
C15 C 0.4685(4) 0.2460(5) 0.5994(4)
H21 H 0.5047 0.2289 0.6406
H22 H 0.4348 0.2949 0.6186
C16 C 0.4180(4) 0.1659(4) 0.5805(4)
C17 C 0.3433(4) 0.1764(5) 0.5527(4)
H23 H 0.3239 0.2352 0.5436
C18 C 0.2956(4) 0.1022(5) 0.5377(5)
H24 H 0.2445 0.1102 0.5183
C19 C 0.3246(4) 0.0173(5) 0.5516(4)
H25 H 0.2926 -0.0335 0.5422
C20 C 0.3984(4) 0.0045(4) 0.5786(4)
H26 H 0.4175 -0.0546 0.5874
C21 C 0.4453(4) 0.0787(5) 0.5932(4)
Cu1D Cu 0.44907(4) 0.56170(5) 0.45945(5)
Cu1G Cu 0.94907(4) -0.06170(5) 0.54055(5)
I1D I 0.42012(2) 0.50377(3) 0.59950(2)
S1G S 0.65181(9) 0.49944(10) 0.61009(9)
loop_
_geom_bond_atom_site_label_1
_geom_bond_atom_site_label_2
_geom_bond_site_symmetry_1
_geom_bond_site_symmetry_2
Cu1 I1 1_555 1_555
I1 Cu1D 1_555 1_555
S1 C10 1_555 1_555
S2 Cu1 1_555 1_555
O1 C3 1_555 1_555
O2 C12 1_555 1_555
O3 C1 1_555 1_555
C1 H1 1_555 1_555
H2 C1 1_555 1_555
C2 C1 1_555 1_555
H3 C2 1_555 1_555
H4 C2 1_555 1_555
C3 C2 1_555 1_555
H5 C3 1_555 1_555
H6 C3 1_555 1_555
C4 O1 1_555 1_555
C5 C4 1_555 1_555
H7 C5 1_555 1_555
C6 C5 1_555 1_555
H8 C6 1_555 1_555
C7 C6 1_555 1_555
H9 C7 1_555 1_555
C8 C7 1_555 1_555
H10 C8 1_555 1_555
C9 C4 1_555 1_555
C10 C9 1_555 1_555
H11 C10 1_555 1_555
H12 C10 1_555 1_555
C11 S1 1_555 1_555
H13 C11 1_555 1_555
H14 C11 1_555 1_555
C12 C11 1_555 1_555
H15 C12 1_555 1_555
H16 C12 1_555 1_555
C13 O2 1_555 1_555
H17 C13 1_555 1_555
H18 C13 1_555 1_555
C14 S2 1_555 1_555
H19 C14 1_555 1_555
H20 C14 1_555 1_555
C15 S2 1_555 1_555
H21 C15 1_555 1_555
H22 C15 1_555 1_555
C16 C15 1_555 1_555
C17 C16 1_555 1_555
H23 C17 1_555 1_555
C18 C17 1_555 1_555
H24 C18 1_555 1_555
C19 C18 1_555 1_555
H25 C19 1_555 1_555
C20 C19 1_555 1_555
H26 C20 1_555 1_555
C21 O3 1_555 1_555
Cu1D I1D 1_555 1_555
Cu1G S1 1_555 1_555
I1D Cu1 1_555 1_555
S1G Cu1 1_555 1_555
C8 C9 1_555 1_555
C13 C14 1_555 1_555
C16 C21 1_555 1_555
C20 C21 1_555 1_555

#END
