
#######################################################################
#
#                 Cambridge Crystallographic Data Centre
#                                CCDC 
#
#######################################################################
#
# If this CIF has been generated from an entry in the Cambridge 
# Structural Database, then it will include bibliographic, chemical, 
# crystal, experimental, refinement or atomic coordinate data resulting 
# from the CCDC's data processing and validation procedures.
#
#######################################################################

data_YOZGIF
_symmetry_cell_setting           monoclinic
_symmetry_space_group_name_H-M   'P 21'
_symmetry_Int_Tables_number      4
_space_group_name_Hall           'P 2yb'
loop_
_symmetry_equiv_pos_site_id
_symmetry_equiv_pos_as_xyz
1 x,y,z
2 -x,1/2+y,-z
_cell_length_a                   7.584(3)
_cell_length_b                   15.434(6)
_cell_length_c                   9.559(4)
_cell_angle_alpha                90
_cell_angle_beta                 98.887(6)
_cell_angle_gamma                90
_cell_volume                     1105.46
loop_
_atom_site_label
_atom_site_type_symbol
_atom_site_fract_x
_atom_site_fract_y
_atom_site_fract_z
Zn1 Zn -0.78293(4) -0.74579(3) 2.07474(4)
C1 C -0.6431(4) -0.7567(3) 1.8358(4)
C2 C -0.5165(4) -0.7470(4) 1.7289(3)
H1 H -0.4603 -0.8025 1.7172
H2 H -0.4234 -0.7061 1.7649
C3 C -0.6101(4) -0.7159(2) 1.5854(4)
H3 H -0.6726 -0.6623 1.5982
H4 H -0.6984 -0.7586 1.5470
C4 C -0.4822(4) -0.7005(2) 1.4787(3)
H5 H -0.4091 -0.7527 1.4757
C5 C -0.5912(4) -0.6870(2) 1.3307(4)
C6 C -0.1921(5) -0.6267(3) 1.4968(4)
C7 C -1.0481(6) -0.6237(3) 2.1466(5)
H6 H -1.0045 -0.6445 2.2366
C8 C -1.1907(6) -0.5665(3) 2.1308(5)
H7 H -1.2414 -0.5499 2.2092
C9 C -1.2564(5) -0.5347(3) 1.9997(5)
C10 C -1.1774(5) -0.5621(3) 1.8868(5)
H8 H -1.2191 -0.5424 1.7958
C11 C -1.0344(5) -0.6196(3) 1.9107(4)
H9 H -0.9812 -0.6374 1.8342
C12 C -1.4117(5) -0.4716(3) 1.9771(5)
H10 H -1.4252 -0.4454 2.0670
H11 H -1.3852 -0.4257 1.9141
C13 C -1.5839(5) -0.5142(3) 1.9153(5)
H12 H -1.5768 -0.5328 1.8195
H13 H -1.6020 -0.5652 1.9707
C14 C -1.7402(5) -0.4543(3) 1.9132(5)
C15 C -1.8000(5) -0.4336(3) 2.0387(5)
H14 H -1.7435 -0.4572 2.1235
C16 C -1.9423(5) -0.3785(3) 2.0389(4)
H15 H -1.9787 -0.3651 2.1249
C17 C -1.9734(5) -0.3624(3) 1.7980(4)
H16 H -2.0328 -0.3386 1.7144
C18 C -1.8286(5) -0.4164(3) 1.7913(5)
H17 H -1.7911 -0.4271 1.7047
N1 N -0.3637(4) -0.6282(2) 1.5216(3)
H18 H -0.4035 -0.5849 1.5640
N2 N -0.1099(5) -0.5501(3) 1.5185(4)
H19 H 0.0000 -0.5450 1.5074
H20 H -0.1670 -0.5061 1.5436
N3 N -0.9714(4) -0.6499(2) 2.0382(4)
N4 N -2.0311(4) -0.3431(2) 1.9197(3)
O1 O -0.7948(4) -0.7856(3) 1.7972(3)
O2 O -0.5902(3) -0.7375(3) 1.9624(2)
O3 O -0.6583(3) -0.7570(2) 1.2720(2)
O4 O -0.6129(4) -0.61556(17) 1.2763(3)
O5 O -0.1150(4) -0.6911(2) 1.4609(4)
Zn1_2 Zn -0.78293(4) -0.74579(3) 1.07474(4)
Zn1A Zn -2.21707(4) -0.24579(3) 1.92526(4)
N4A N -0.9689(4) -0.8431(2) 2.0803(3)
O3_2 O -0.6583(3) -0.7570(2) 2.2720(2)
O6 O -0.6114(5) -0.9267(2) 1.4003(4)
O7 O -0.0392(5) -0.8516(3) 1.5769(4)
O8 O -0.2809(5) -0.9834(3) 1.5481(4)
loop_
_geom_bond_atom_site_label_1
_geom_bond_atom_site_label_2
_geom_bond_site_symmetry_1
_geom_bond_site_symmetry_2
Zn1 N3 1_555 1_555
C1 C2 1_555 1_555
C2 H1 1_555 1_555
H2 C2 1_555 1_555
C3 C2 1_555 1_555
H3 C3 1_555 1_555
H4 C3 1_555 1_555
C4 C3 1_555 1_555
H5 C4 1_555 1_555
C5 C4 1_555 1_555
C6 N1 1_555 1_555
C7 H6 1_555 1_555
C8 C7 1_555 1_555
H7 C8 1_555 1_555
C9 C8 1_555 1_555
C10 C9 1_555 1_555
H8 C10 1_555 1_555
C11 C10 1_555 1_555
H9 C11 1_555 1_555
C12 C9 1_555 1_555
H10 C12 1_555 1_555
H11 C12 1_555 1_555
C13 C12 1_555 1_555
H12 C13 1_555 1_555
H13 C13 1_555 1_555
C14 C13 1_555 1_555
C15 C14 1_555 1_555
H14 C15 1_555 1_555
C16 C15 1_555 1_555
H15 C16 1_555 1_555
C17 H16 1_555 1_555
C18 C14 1_555 1_555
H17 C18 1_555 1_555
N1 C4 1_555 1_555
H18 N1 1_555 1_555
N2 C6 1_555 1_555
H19 N2 1_555 1_555
H20 N2 1_555 1_555
N3 C7 1_555 1_555
N4 C16 1_555 1_555
O1 C1 1_555 1_555
O2 Zn1 1_555 1_555
O3 C5 1_555 1_555
O4 C5 1_555 1_555
O5 C6 1_555 1_555
Zn1_2 O3 1_555 1_555
Zn1A N4 1_555 1_555
N4A Zn1 1_555 1_555
O3_2 Zn1 1_555 1_555
C1 O2 1_555 1_555
C11 N3 1_555 1_555
C17 C18 1_555 1_555
C17 N4 1_555 1_555

#END
