
#######################################################################
#
#                 Cambridge Crystallographic Data Centre
#                                CCDC 
#
#######################################################################
#
# If this CIF has been generated from an entry in the Cambridge 
# Structural Database, then it will include bibliographic, chemical, 
# crystal, experimental, refinement or atomic coordinate data resulting 
# from the CCDC's data processing and validation procedures.
#
#######################################################################

data_YOZGEB
_symmetry_cell_setting           monoclinic
_symmetry_space_group_name_H-M   'P 21'
_symmetry_Int_Tables_number      4
_space_group_name_Hall           'P 2yb'
loop_
_symmetry_equiv_pos_site_id
_symmetry_equiv_pos_as_xyz
1 x,y,z
2 -x,1/2+y,-z
_cell_length_a                   9.38(3)
_cell_length_b                   16.81(4)
_cell_length_c                   11.48(3)
_cell_angle_alpha                90
_cell_angle_beta                 100.426(16)
_cell_angle_gamma                90
_cell_volume                     1780.25
loop_
_atom_site_label
_atom_site_type_symbol
_atom_site_fract_x
_atom_site_fract_y
_atom_site_fract_z
Zn1 Zn 0.98362(5) 0.04761(3) 0.39893(4)
Zn2 Zn 0.92787(6) 0.22144(3) 0.95151(5)
C1 C 1.0125(7) 0.3758(4) 1.0587(5)
H1 H 1.1163 0.3673 1.0682
H2 H 0.9956 0.4201 1.1086
C2 C 0.9504(8) 0.3939(4) 0.9313(5)
H3 H 0.8468 0.4028 0.9224
H4 H 0.9945 0.4419 0.9070
C3 C 0.9059(6) 0.3398(3) 0.7329(5)
H5 H 0.9418 0.3886 0.7036
H6 H 0.8025 0.3457 0.7303
C4 C 0.9329(5) 0.2711(3) 0.6548(4)
C5 C 0.8222(6) 0.2243(5) 0.6056(6)
H7 H 0.7301 0.2343 0.6214
C6 C 0.8421(6) 0.1604(4) 0.5304(6)
H8 H 0.7640 0.1284 0.4983
C7 C 1.0640(6) 0.2555(4) 0.6253(6)
H9 H 1.1429 0.2876 0.6551
C8 C 1.0816(6) 0.1933(4) 0.5524(5)
H10 H 1.1733 0.1840 0.5352
C9 C 1.0107(7) 0.2783(3) 1.2123(5)
H11 H 1.1101 0.2634 1.2102
H12 H 0.9613 0.2314 1.2340
C10 C 1.0114(6) 0.3419(3) 1.3091(5)
C11 C 1.1402(7) 0.3628(4) 1.3848(5)
H13 H 1.2276 0.3388 1.3779
C12 C 1.1341(6) 0.4191(4) 1.4685(5)
H14 H 1.2193 0.4324 1.5197
C13 C 0.8878(6) 0.4357(4) 1.4097(6)
H15 H 0.8016 0.4609 1.4172
C14 C 0.8838(7) 0.3778(5) 1.3242(6)
H16 H 0.7962 0.3631 1.2774
C15 C 0.7329(6) -0.0037(3) 0.2480(5)
C16 C 0.5773(5) 0.0099(3) 0.1791(4)
H17 H 0.5747 0.0625 0.1419
C17 C 0.4683(6) 0.0109(4) 0.2660(5)
H18 H 0.4506 -0.0435 0.2878
H19 H 0.5125 0.0386 0.3376
C18 C 0.3235(4) 0.0500(4) 0.2175(4)
H20 H 0.3400 0.1050 0.1981
H21 H 0.2794 0.0233 0.1451
C19 C 0.2200(5) 0.0475(4) 0.3041(4)
C20 C 0.6116(5) -0.0507(3) -0.0040(5)
C21 C 0.6215(5) 0.2408(3) 0.8996(5)
C22 C 0.4672(5) 0.2098(3) 0.8415(5)
H22 H 0.3956 0.2521 0.8429
C23 C 0.4322(6) 0.1399(4) 0.9156(6)
H23 H 0.4441 0.1570 0.9975
H24 H 0.5027 0.0982 0.9118
C24 C 0.2804(6) 0.1043(3) 0.8798(6)
H25 H 0.2592 0.0991 0.7942
H26 H 0.2806 0.0512 0.9130
C25 C 0.1601(6) 0.1517(4) 0.9184(6)
C26 C 0.4523(5) 0.2325(4) 0.6274(5)
N1 N 0.9412(4) 0.3033(3) 1.0935(4)
H27 H 0.8486 0.3172 1.0982
N2 N 0.9787(5) 0.3262(2) 0.8553(4)
H28 H 1.0757 0.3253 0.8555
N3 N 0.9741(5) 0.1458(3) 0.5054(4)
N4 N 1.0081(5) 0.4574(3) 1.4815(4)
N5 N 0.5365(5) -0.0473(3) 0.0871(4)
H29 H 0.4653 -0.0792 0.0891
N6 N 0.5756(6) -0.1130(4) -0.0791(5)
H30 H 0.6119 -0.1165 -0.1425
H31 H 0.5165 -0.1488 -0.0632
N7 N 0.4601(5) 0.1824(3) 0.7215(4)
H32 H 0.4608 0.1320 0.7089
N8 N 0.4497(6) 0.1972(4) 0.5212(5)
H33 H 0.4440 0.2257 0.4584
H34 H 0.4536 0.1462 0.5166
O1 O 0.7814(4) 0.0543(3) 0.3140(3)
O2 O 0.7983(4) -0.0650(3) 0.2378(4)
O3 O 0.6946(4) 0.0004(2) -0.0246(4)
O4 O 0.2601(5) 0.0291(4) 0.4091(4)
O5 O 0.0894(4) 0.0664(3) 0.2660(4)
O6 O 0.7249(3) 0.2089(2) 0.8635(3)
O7 O 0.6254(5) 0.2891(3) 0.9770(5)
O8 O 0.4470(6) 0.3055(3) 0.6403(5)
O9 O 0.1896(5) 0.2012(3) 1.0006(5)
O10 O 0.0350(4) 0.1420(3) 0.8666(4)
O11 O 0.8817(5) 0.1249(2) 1.0716(4)
Zn1_2 Zn -0.01638(5) 0.04761(3) 0.39893(4)
Zn1A Zn 1.01638(5) 0.54761(3) 1.60107(4)
Zn2_2 Zn -0.07213(6) 0.22144(3) 0.95151(5)
N4A N 0.9919(5) -0.0426(3) 0.5185(4)
O5_2 O 1.0894(4) 0.0664(3) 0.2660(4)
O9_2 O 1.1896(5) 0.2012(3) 1.0006(5)
O10_2 O 1.0350(4) 0.1420(3) 0.8666(4)
O12 O -0.1790(6) 0.0272(3) 0.7743(4)
O13 O 0.5701(7) 0.0407(4) 0.6163(6)
O14 O 0.6672(6) 0.2102(4) 1.2263(5)
O15 O 0.5501(7) 0.3995(4) 0.4836(6)
O16 O 0.4512(11) 0.2871(7) 0.3000(9)
loop_
_geom_bond_atom_site_label_1
_geom_bond_atom_site_label_2
_geom_bond_site_symmetry_1
_geom_bond_site_symmetry_2
Zn1 N3 1_555 1_555
Zn2 N1 1_555 1_555
C1 H1 1_555 1_555
H2 C1 1_555 1_555
C2 C1 1_555 1_555
H3 C2 1_555 1_555
H4 C2 1_555 1_555
C3 H5 1_555 1_555
H6 C3 1_555 1_555
C4 C3 1_555 1_555
C5 C4 1_555 1_555
H7 C5 1_555 1_555
C6 C5 1_555 1_555
H8 C6 1_555 1_555
C7 C4 1_555 1_555
H9 C7 1_555 1_555
C8 C7 1_555 1_555
H10 C8 1_555 1_555
C9 H11 1_555 1_555
H12 C9 1_555 1_555
C10 C9 1_555 1_555
C11 C10 1_555 1_555
H13 C11 1_555 1_555
C12 C11 1_555 1_555
H14 C12 1_555 1_555
C13 H15 1_555 1_555
C14 C10 1_555 1_555
H16 C14 1_555 1_555
C15 C16 1_555 1_555
C16 H17 1_555 1_555
C17 C16 1_555 1_555
H18 C17 1_555 1_555
H19 C17 1_555 1_555
C18 C17 1_555 1_555
H20 C18 1_555 1_555
H21 C18 1_555 1_555
C19 C18 1_555 1_555
C20 N5 1_555 1_555
C21 C22 1_555 1_555
C22 H22 1_555 1_555
C23 C22 1_555 1_555
H23 C23 1_555 1_555
H24 C23 1_555 1_555
C24 C23 1_555 1_555
H25 C24 1_555 1_555
H26 C24 1_555 1_555
C25 C24 1_555 1_555
C26 N7 1_555 1_555
N1 C1 1_555 1_555
H27 N1 1_555 1_555
N2 Zn2 1_555 1_555
H28 N2 1_555 1_555
N3 C6 1_555 1_555
N4 C12 1_555 1_555
N5 C16 1_555 1_555
H29 N5 1_555 1_555
N6 C20 1_555 1_555
H30 N6 1_555 1_555
H31 N6 1_555 1_555
N7 C22 1_555 1_555
H32 N7 1_555 1_555
N8 C26 1_555 1_555
H33 N8 1_555 1_555
H34 N8 1_555 1_555
O1 Zn1 1_555 1_555
O2 C15 1_555 1_555
O3 C20 1_555 1_555
O4 C19 1_555 1_555
O5 C19 1_555 1_555
O6 Zn2 1_555 1_555
O7 C21 1_555 1_555
O8 C26 1_555 1_555
O9 C25 1_555 1_555
O10 C25 1_555 1_555
O11 Zn2 1_555 1_555
Zn1_2 O5 1_555 1_555
Zn1A N4 1_555 1_555
Zn2_2 O9 1_555 1_555
N4A Zn1 1_555 1_555
O5_2 Zn1 1_555 1_555
O9_2 Zn2 1_555 1_555
O10_2 Zn2 1_555 1_555
C2 N2 1_555 1_555
C3 N2 1_555 1_555
C8 N3 1_555 1_555
C9 N1 1_555 1_555
C13 C14 1_555 1_555
C13 N4 1_555 1_555
C15 O1 1_555 1_555
C21 O6 1_555 1_555
O10 Zn2_2 1_555 1_555

#END
