
#######################################################################
#
#                 Cambridge Crystallographic Data Centre
#                                CCDC 
#
#######################################################################
#
# If this CIF has been generated from an entry in the Cambridge 
# Structural Database, then it will include bibliographic, chemical, 
# crystal, experimental, refinement or atomic coordinate data resulting 
# from the CCDC's data processing and validation procedures.
#
#######################################################################

data_YOZHOM
_symmetry_cell_setting           monoclinic
_symmetry_space_group_name_H-M   'P 21/c'
_symmetry_Int_Tables_number      14
_space_group_name_Hall           '-P 2ybc'
loop_
_symmetry_equiv_pos_site_id
_symmetry_equiv_pos_as_xyz
1 x,y,z
2 -x,1/2+y,1/2-z
3 -x,-y,-z
4 x,1/2-y,1/2+z
_cell_length_a                   11.2835(3)
_cell_length_b                   22.3634(7)
_cell_length_c                   27.3143(14)
_cell_angle_alpha                90
_cell_angle_beta                 99.148(4)
_cell_angle_gamma                90
_cell_volume                     6804.76
loop_
_atom_site_label
_atom_site_type_symbol
_atom_site_fract_x
_atom_site_fract_y
_atom_site_fract_z
Eu1 Eu 0.11771(4) 0.493241(16) 0.230138(16)
O1 O 0.1046(5) 0.3926(2) 0.2757(2)
O2 O -0.0613(5) 0.4213(2) 0.2278(2)
O3 O 0.2821(5) 0.4351(2) 0.2142(2)
O4 O 0.2793(5) 0.5000(2) 0.3008(2)
O5 O 0.2132(5) 0.5899(2) 0.2774(2)
O6 O -0.0320(5) 0.5590(2) 0.1928(2)
O7 O 0.0138(5) 0.5209(2) 0.2973(2)
O8 O 0.0644(5) 0.4483(2) 0.1486(2)
O9 O 0.2209(5) 0.5590(2) 0.1788(2)
C1 C -0.0044(8) 0.3839(3) 0.2565(3)
C2 C 0.3636(7) 0.4125(3) 0.1950(3)
C3 C 0.2800(7) 0.5573(3) 0.3061(3)
C4 C -0.1356(8) 0.5776(3) 0.1951(3)
H1 H 0.0465 0.5519 0.3118
H2 H 0.0177 0.4922 0.3181
H3 H -0.0118 0.4508 0.1393
H4 H 0.0849 0.4113 0.1499
H5 H 0.1741 0.5879 0.1675
H6 H 0.2402 0.5392 0.1543
C5 C -0.0605(7) 0.3247(3) 0.2685(3)
C6 C 0.3405(7) 0.3512(3) 0.1691(3)
O10 O 0.4680(5) 0.4335(2) 0.1961(2)
C7 C 0.3611(7) 0.5809(3) 0.3510(3)
C8 C -0.1695(7) 0.6384(3) 0.1712(3)
O11 O -0.2122(5) 0.5529(2) 0.2167(2)
C9 C -0.0843(7) 0.3118(3) 0.3158(3)
C10 C -0.0753(8) 0.2791(3) 0.2330(3)
C11 C 0.2679(7) 0.3114(3) 0.1905(3)
C12 C 0.3977(7) 0.3323(3) 0.1316(3)
Eu2 Eu 0.62044(4) 0.497193(15) 0.233120(16)
C13 C 0.3807(8) 0.5456(4) 0.3931(3)
C14 C 0.4058(7) 0.6395(3) 0.3545(3)
C15 C -0.2445(7) 0.6757(3) 0.1933(3)
C16 C -0.1223(7) 0.6591(3) 0.1306(3)
C17 C -0.0759(7) 0.3556(3) 0.3562(3)
N1 N -0.1005(6) 0.2547(3) 0.3308(2)
C18 C -0.1034(7) 0.2217(3) 0.2470(3)
H7 H -0.0663 0.2871 0.2004
H8 H 0.2239 0.3244 0.2146
C19 C 0.2630(7) 0.2531(3) 0.1754(3)
C20 C 0.4668(7) 0.3693(3) 0.0996(3)
N2 N 0.3986(6) 0.2732(3) 0.1197(3)
O12 O 0.4417(5) 0.5660(2) 0.2319(2)
O13 O 0.6077(5) 0.5957(2) 0.2801(2)
H9 H 0.3532 0.5063 0.3914
C21 C 0.4396(8) 0.5672(3) 0.4371(3)
C22 C 0.4083(7) 0.6813(3) 0.3112(3)
N3 N 0.4575(6) 0.6614(3) 0.3996(3)
H10 H -0.2804 0.6618 0.2195
C23 C -0.2654(8) 0.7336(3) 0.1758(3)
C24 C -0.0447(7) 0.6242(3) 0.1011(3)
N4 N -0.1381(6) 0.7165(3) 0.1143(3)
O14 O -0.2772(5) 0.4004(2) 0.2824(2)
O15 O -0.2207(5) 0.4932(2) 0.3032(2)
O16 O -0.2835(5) 0.4330(2) 0.1777(2)
O17 O -0.4350(5) 0.5456(2) 0.1531(2)
O18 O -0.4812(5) 0.4696(2) 0.3023(2)
C25 C -0.1173(7) 0.4139(3) 0.3516(3)
N5 N -0.0186(6) 0.3341(3) 0.3999(2)
C26 C -0.1125(7) 0.2104(3) 0.2966(3)
Cu1 Cu -0.04110(9) 0.24561(4) 0.40533(4)
H11 H -0.1161 0.1912 0.2236
H12 H 0.2133 0.2259 0.1881
C27 C 0.3331(7) 0.2354(3) 0.1412(3)
C28 C 0.4392(7) 0.4288(3) 0.0850(3)
N6 N 0.5567(6) 0.3395(3) 0.0836(3)
Cu2 Cu 0.55112(9) 0.25074(4) 0.09202(4)
C29 C 0.5012(7) 0.6052(3) 0.2601(3)
H13 H 0.4574 0.5426 0.4648
C30 C 0.4722(8) 0.6271(3) 0.4393(3)
C31 C 0.4442(7) 0.6649(3) 0.2675(3)
N7 N 0.3802(6) 0.7386(3) 0.3211(3)
H14 H -0.3156 0.7595 0.1896
C32 C -0.2079(8) 0.7513(4) 0.1367(3)
C33 C -0.0672(7) 0.5658(3) 0.0844(3)
N8 N 0.0496(6) 0.6554(3) 0.0901(3)
C34 C -0.2097(8) 0.4368(3) 0.3086(3)
H15 H -0.3327 0.4055 0.1651
H16 H -0.2207 0.4163 0.1942
H17 H -0.5102 0.5392 0.1416
H18 H -0.3922 0.5313 0.1321
H19 H -0.4429 0.4846 0.3300
H20 H -0.4838 0.4307 0.3056
C35 C -0.0782(7) 0.4536(3) 0.3909(3)
C36 C 0.0157(7) 0.3719(3) 0.4375(3)
H21 H -0.1272 0.1716 0.3063
N9 N -0.0194(7) 0.2490(3) 0.4797(3)
N10 N -0.2541(9) 0.2543(4) 0.4343(4)
H22 H 0.3344 0.1951 0.1328
C37 C 0.5141(7) 0.4569(3) 0.0571(3)
C38 C 0.3279(7) 0.4606(3) 0.0940(3)
C39 C 0.6261(8) 0.3664(3) 0.0547(3)
O19 O 0.4125(7) 0.2486(3) 0.0082(3)
O20 O 0.6924(5) 0.2402(2) 0.0601(2)
H23 H 0.5053 0.6435 0.4697
C40 C 0.4416(7) 0.7072(3) 0.2304(3)
C41 C 0.3789(8) 0.7795(3) 0.2856(3)
H24 H -0.2193 0.7905 0.1255
C42 C 0.0128(8) 0.5387(3) 0.0582(3)
C43 C -0.1780(7) 0.5310(3) 0.0935(3)
C44 C 0.1263(8) 0.6285(4) 0.0638(3)
H25 H -0.1008 0.4936 0.3884
C45 C -0.0067(7) 0.4330(3) 0.4329(3)
H26 H 0.0555 0.3569 0.4674
C46 C 0.0762(8) 0.2208(4) 0.5049(3)
C47 C -0.1082(8) 0.2694(3) 0.5033(3)
C48 C -0.2162(11) 0.2942(5) 0.4691(4)
C49 C -0.3618(11) 0.2642(5) 0.4055(5)
C50 C 0.6094(8) 0.4253(3) 0.0412(3)
H27 H 0.5019 0.4970 0.0487
O21 O 0.2320(5) 0.4321(2) 0.0860(2)
O22 O 0.3411(5) 0.5153(2) 0.1070(2)
H28 H 0.6869 0.3447 0.0436
C51 C 0.4068(7) 0.7657(3) 0.2392(3)
H29 H 0.4627 0.6968 0.1999
H30 H 0.3586 0.8187 0.2921
C52 C 0.1114(8) 0.5698(3) 0.0471(3)
H31 H 0.0005 0.4993 0.0479
O23 O -0.1626(5) 0.4765(2) 0.1048(2)
O24 O -0.2767(5) 0.5583(2) 0.0867(2)
H32 H 0.1917 0.6501 0.0566
H33 H 0.0260 0.4593 0.4578
C53 C 0.0875(9) 0.2110(4) 0.5565(4)
H34 H 0.1365 0.2074 0.4880
C54 C -0.1028(8) 0.2607(3) 0.5547(3)
C55 C -0.2653(11) 0.3515(5) 0.4713(4)
H35 H -0.3944 0.2337 0.3845
C56 C -0.4244(13) 0.3153(5) 0.4054(5)
H36 H 0.6596 0.4439 0.0220
H37 H 0.4024 0.7947 0.2146
H38 H 0.1656 0.5521 0.0292
C57 C -0.0040(8) 0.2322(4) 0.5812(4)
H39 H 0.1537 0.1911 0.5736
C58 C -0.2056(9) 0.2748(3) 0.5822(4)
C59 C -0.3703(12) 0.3618(5) 0.4360(5)
C60 C -0.2089(12) 0.4011(5) 0.5014(5)
H40 H -0.4996 0.3198 0.3861
H41 H 0.0017 0.2271 0.6153
O25 O -0.1784(5) 0.2954(3) 0.6253(2)
H42 H -0.4037 0.3999 0.4330
O26 O -0.1199(7) 0.3903(3) 0.5337(3)
O27 O -0.2521(7) 0.4527(3) 0.4895(3)
Eu2_2 Eu -0.37956(4) 0.497193(15) 0.233120(16)
O10_2 O -0.5320(5) 0.4335(2) 0.1961(2)
O12_2 O -0.5583(5) 0.5660(2) 0.2319(2)
O13_2 O -0.3923(5) 0.5957(2) 0.2801(2)
Cu2A Cu 0.44888(9) 0.75074(4) 0.40798(4)
Cu1A Cu 0.04110(9) 0.74561(4) 0.09467(4)
N4A N 0.1381(6) 0.2165(3) 0.3857(3)
N8A N -0.0496(6) 0.1554(3) 0.4099(3)
N7A N 0.6198(6) 0.2386(3) 0.1789(3)
N3A N 0.5425(6) 0.1614(3) 0.1004(3)
O20C O -0.3076(5) 0.2598(2) 0.5601(2)
Cu2C Cu -0.44888(9) 0.24926(4) 0.59202(4)
O28 O -0.3059(8) 0.5612(3) 0.5238(4)
O29 O 0.7864(7) 0.6063(3) 0.3695(3)
O30 O 0.2517(9) 0.3995(3) 0.3757(3)
O31 O -0.0356(7) 0.3961(3) 0.6307(3)
O32 O -0.3499(7) 0.4992(3) 0.3952(3)
O33 O -0.2934(7) 0.6381(3) 0.0063(3)
O34 O 0.7610(8) 0.6543(4) 0.4691(4)
O35 O -0.6236(10) 0.3639(4) 0.3108(4)
loop_
_geom_bond_atom_site_label_1
_geom_bond_atom_site_label_2
_geom_bond_site_symmetry_1
_geom_bond_site_symmetry_2
Eu1 O1 1_555 1_555
O1 C1 1_555 1_555
O2 Eu1 1_555 1_555
O3 Eu1 1_555 1_555
O4 Eu1 1_555 1_555
O5 Eu1 1_555 1_555
O6 Eu1 1_555 1_555
O7 Eu1 1_555 1_555
O8 Eu1 1_555 1_555
O9 Eu1 1_555 1_555
C1 O2 1_555 1_555
C2 O3 1_555 1_555
C3 O4 1_555 1_555
C4 O6 1_555 1_555
H1 O7 1_555 1_555
H2 O7 1_555 1_555
H3 O8 1_555 1_555
H4 O8 1_555 1_555
H5 O9 1_555 1_555
H6 O9 1_555 1_555
C5 C1 1_555 1_555
C6 C2 1_555 1_555
O10 C2 1_555 1_555
C7 C3 1_555 1_555
C8 C4 1_555 1_555
O11 C4 1_555 1_555
C9 C5 1_555 1_555
C10 C5 1_555 1_555
C11 C6 1_555 1_555
C12 C6 1_555 1_555
Eu2 O10 1_555 1_555
C13 C7 1_555 1_555
C14 C7 1_555 1_555
C15 C8 1_555 1_555
C16 C8 1_555 1_555
C17 C9 1_555 1_555
N1 C9 1_555 1_555
C18 C10 1_555 1_555
H7 C10 1_555 1_555
H8 C11 1_555 1_555
C19 C11 1_555 1_555
C20 C12 1_555 1_555
N2 C12 1_555 1_555
O12 Eu2 1_555 1_555
O13 Eu2 1_555 1_555
H9 C13 1_555 1_555
C21 C13 1_555 1_555
C22 C14 1_555 1_555
N3 C14 1_555 1_555
H10 C15 1_555 1_555
C23 C15 1_555 1_555
C24 C16 1_555 1_555
N4 C16 1_555 1_555
O14 C34 1_555 1_555
O15 C34 1_555 1_555
O16 H15 1_555 1_555
O17 H17 1_555 1_555
O18 H19 1_555 1_555
C25 C17 1_555 1_555
N5 C17 1_555 1_555
C26 N1 1_555 1_555
Cu1 N1 1_555 1_555
H11 C18 1_555 1_555
H12 C19 1_555 1_555
C27 C19 1_555 1_555
C28 C20 1_555 1_555
N6 C20 1_555 1_555
Cu2 N2 1_555 1_555
C29 O12 1_555 1_555
H13 C21 1_555 1_555
C30 C21 1_555 1_555
C31 C22 1_555 1_555
N7 C22 1_555 1_555
H14 C23 1_555 1_555
C32 C23 1_555 1_555
C33 C24 1_555 1_555
N8 C24 1_555 1_555
C34 C25 1_555 1_555
H16 O16 1_555 1_555
H18 O17 1_555 1_555
H20 O18 1_555 1_555
C35 C25 1_555 1_555
C36 N5 1_555 1_555
H21 C26 1_555 1_555
N9 Cu1 1_555 1_555
N10 Cu1 1_555 1_555
H22 C27 1_555 1_555
C37 C28 1_555 1_555
C38 C28 1_555 1_555
C39 N6 1_555 1_555
O19 Cu2 1_555 1_555
O20 Cu2 1_555 1_555
H23 C30 1_555 1_555
C40 C31 1_555 1_555
C41 N7 1_555 1_555
H24 C32 1_555 1_555
C42 C33 1_555 1_555
C43 C33 1_555 1_555
C44 N8 1_555 1_555
H25 C35 1_555 1_555
C45 C35 1_555 1_555
H26 C36 1_555 1_555
C46 N9 1_555 1_555
C47 N9 1_555 1_555
C48 N10 1_555 1_555
C49 N10 1_555 1_555
C50 C37 1_555 1_555
H27 C37 1_555 1_555
O21 C38 1_555 1_555
O22 C38 1_555 1_555
H28 C39 1_555 1_555
C51 C40 1_555 1_555
H29 C40 1_555 1_555
H30 C41 1_555 1_555
C52 C42 1_555 1_555
H31 C42 1_555 1_555
O23 C43 1_555 1_555
O24 C43 1_555 1_555
H32 C44 1_555 1_555
H33 C45 1_555 1_555
C53 C46 1_555 1_555
H34 C46 1_555 1_555
C54 C47 1_555 1_555
C55 C48 1_555 1_555
H35 C49 1_555 1_555
C56 C49 1_555 1_555
H36 C50 1_555 1_555
H37 C51 1_555 1_555
H38 C52 1_555 1_555
C57 C53 1_555 1_555
H39 C53 1_555 1_555
C58 C54 1_555 1_555
C59 C55 1_555 1_555
C60 C55 1_555 1_555
H40 C56 1_555 1_555
H41 C57 1_555 1_555
O25 C58 1_555 1_555
H42 C59 1_555 1_555
O26 C60 1_555 1_555
O27 C60 1_555 1_555
Eu2_2 O11 1_555 1_555
O10_2 Eu2_2 1_555 1_555
O12_2 Eu2_2 1_555 1_555
O13_2 Eu2_2 1_555 1_555
Cu2A N3 1_555 1_555
Cu1A N4 1_555 1_555
N4A Cu1 1_555 1_555
N8A Cu1 1_555 1_555
N7A Cu2 1_555 1_555
N3A Cu2 1_555 1_555
O20C C58 1_555 1_555
Cu2C O20C 1_555 1_555
O5 C3 1_555 1_555
C18 C26 1_555 1_555
N2 C27 1_555 1_555
O13 C29 1_555 1_555
N3 C30 1_555 1_555
N4 C32 1_555 1_555
O14 Eu2_2 1_555 1_555
O15 Eu2_2 1_555 1_555
O16 Eu2_2 1_555 1_555
O17 Eu2_2 1_555 1_555
O18 Eu2_2 1_555 1_555
N5 Cu1 1_555 1_555
N6 Cu2 1_555 1_555
C29 C31 1_555 1_555
N7 Cu2A 1_555 1_555
N8 Cu1A 1_555 1_555
C36 C45 1_555 1_555
C39 C50 1_555 1_555
C41 C51 1_555 1_555
C44 C52 1_555 1_555
C47 C48 1_555 1_555
C54 C57 1_555 1_555
C56 C59 1_555 1_555

#END
