
#######################################################################
#
#                 Cambridge Crystallographic Data Centre
#                                CCDC 
#
#######################################################################
#
# If this CIF has been generated from an entry in the Cambridge 
# Structural Database, then it will include bibliographic, chemical, 
# crystal, experimental, refinement or atomic coordinate data resulting 
# from the CCDC's data processing and validation procedures.
#
#######################################################################

data_YOZJEE01
_symmetry_cell_setting           rhombohedral
_symmetry_space_group_name_H-M   'R -3 m'
_symmetry_Int_Tables_number      166
_space_group_name_Hall           '-R 3 2"'
loop_
_symmetry_equiv_pos_site_id
_symmetry_equiv_pos_as_xyz
1 x,y,z
2 -y,x-y,z
3 -x+y,-x,z
4 x-y,-y,-z
5 -x,-x+y,-z
6 y,x,-z
7 2/3+x,1/3+y,1/3+z
8 2/3-y,1/3+x-y,1/3+z
9 2/3-x+y,1/3-x,1/3+z
10 2/3+x-y,1/3-y,1/3-z
11 2/3-x,1/3-x+y,1/3-z
12 2/3+y,1/3+x,1/3-z
13 1/3+x,2/3+y,2/3+z
14 1/3-y,2/3+x-y,2/3+z
15 1/3-x+y,2/3-x,2/3+z
16 1/3+x-y,2/3-y,2/3-z
17 1/3-x,2/3-x+y,2/3-z
18 1/3+y,2/3+x,2/3-z
19 -x,-y,-z
20 y,-x+y,-z
21 x-y,x,-z
22 -x+y,y,z
23 x,x-y,z
24 -y,-x,z
25 1/3-x,2/3-y,2/3-z
26 1/3+y,2/3-x+y,2/3-z
27 1/3+x-y,2/3+x,2/3-z
28 1/3-x+y,2/3+y,2/3+z
29 1/3+x,2/3+x-y,2/3+z
30 1/3-y,2/3-x,2/3+z
31 2/3-x,1/3-y,1/3-z
32 2/3+y,1/3-x+y,1/3-z
33 2/3+x-y,1/3+x,1/3-z
34 2/3-x+y,1/3+y,1/3+z
35 2/3+x,1/3+x-y,1/3+z
36 2/3-y,1/3-x,1/3+z
_cell_length_a                   26.8761(8)
_cell_length_b                   26.8761(8)
_cell_length_c                   10.0456(4)
_cell_angle_alpha                90
_cell_angle_beta                 90
_cell_angle_gamma                120
_cell_volume                     6284.04
loop_
_atom_site_label
_atom_site_type_symbol
_atom_site_fract_x
_atom_site_fract_y
_atom_site_fract_z
C1 C 0.5869(11) 0.0921(10) 0.508(2)
O1 O 0.5391(6) 0.0781(13) 0.576(3)
C2 C 0.5834(11) 0.1205(11) 0.400(2)
C1U C 0.5052(15) 0.0921(10) 0.508(2)
C2U C 0.5371(16) 0.1205(11) 0.400(2)
Ag1 Ag 0.6667 0.03506(3) 0.3333
Fe1 Fe 0.5000 0.0000 0.0000
N1 N 0.45257(10) -0.0949(2) 0.0040(5)
N2 N 0.55882(17) 0.00066(17) 0.1466(4)
N3 N 0.30391(10) -0.30391(10) 0.0044(5)
C3 C 0.48015(18) -0.12445(18) 0.0053(6)
H1 H 0.5201 -0.1041 0.0058
C4 C 0.45279(18) -0.18326(17) 0.0059(5)
H2 H 0.4739 -0.2021 0.0082
C5 C 0.39264(11) -0.2147(2) 0.0031(6)
C6 C 0.36149(11) -0.2770(2) 0.0031(5)
C7 C 0.5958(2) 0.0079(2) 0.2137(6)
N1A N 0.0949(2) -0.45253(22) 0.0040(5)
N3A N 0.30391(10) -0.39218(14) 0.0044(5)
C3A C 0.12445(18) -0.39540(25) 0.0053(6)
H1A H 0.1041 -0.3758 0.0058
C4A C 0.18326(17) -0.36395(25) 0.0059(5)
H2A H 0.2021 -0.3240 0.0082
C5A C 0.2147(2) -0.39266(23) 0.0031(6)
C6A C 0.2770(2) -0.36151(23) 0.0031(5)
N1B N 0.45253(22) -0.45257(10) 0.0040(5)
N3B N 0.39218(14) -0.30391(10) 0.0044(5)
C3B C 0.39540(25) -0.48015(18) 0.0053(6)
H1B H 0.3758 -0.5201 0.0058
C4B C 0.36395(25) -0.45279(18) 0.0059(5)
H2B H 0.3240 -0.4739 0.0082
C5B C 0.39266(23) -0.39264(11) 0.0031(6)
C6B C 0.36151(23) -0.36149(11) 0.0031(5)
C3U C 0.39540(25) -0.12445(18) 0.0053(6)
H1U H 0.3758 -0.1041 0.0058
C4U C 0.36395(25) -0.18326(17) 0.0059(5)
H2U H 0.3240 -0.2021 0.0082
C3V C 0.48015(18) -0.39540(25) 0.0053(6)
H1V H 0.5201 -0.3758 0.0058
C4V C 0.45279(18) -0.36395(25) 0.0059(5)
H2V H 0.4739 -0.3240 0.0082
C3W C 0.12445(18) -0.48015(18) 0.0053(6)
H1W H 0.1041 -0.5201 0.0058
C4W C 0.18326(17) -0.45279(18) 0.0059(5)
H2W H 0.2021 -0.4739 0.0082
Fe1A Fe 0.0000 -0.5000 0.0000
N2A N -0.00066(17) -0.44184(24) 0.1466(4)
C7A C -0.0079(2) -0.4121(3) 0.2137(6)
Fe1B Fe 0.5000 -0.5000 0.0000
N2B N 0.44184(24) -0.55882(17) 0.1466(4)
C7B C 0.4121(3) -0.5958(2) 0.2137(6)
N1C N 0.54747(22) 0.0949(2) -0.0040(5)
N2C N 0.55816(24) -0.00066(17) -0.1466(4)
N3C N 0.60782(14) 0.30391(10) -0.0044(5)
C3C C 0.60460(25) 0.12445(18) -0.0053(6)
H1C H 0.6242 0.1041 -0.0058
C4C C 0.63605(25) 0.18326(17) -0.0059(5)
H2C H 0.6760 0.2021 -0.0082
C5C C 0.60734(23) 0.2147(2) -0.0031(6)
C6C C 0.63849(23) 0.2770(2) -0.0031(5)
C7C C 0.5879(3) -0.0079(2) -0.2137(6)
N1D N 0.54743(10) 0.45253(22) -0.0040(5)
N3D N 0.69609(10) 0.39218(14) -0.0044(5)
C3D C 0.51985(18) 0.39540(25) -0.0053(6)
H1D H 0.4799 0.3758 -0.0058
C4D C 0.54721(18) 0.36395(25) -0.0059(5)
H2D H 0.5261 0.3240 -0.0082
C5D C 0.60736(11) 0.39266(23) -0.0031(6)
C6D C 0.63851(11) 0.36151(23) -0.0031(5)
N1E N 0.9051(2) 0.45257(10) -0.0040(5)
N3E N 0.69609(10) 0.30391(10) -0.0044(5)
C3E C 0.87555(18) 0.48015(18) -0.0053(6)
H1E H 0.8959 0.5201 -0.0058
C4E C 0.81674(17) 0.45279(18) -0.0059(5)
H2E H 0.7979 0.4739 -0.0082
C5E C 0.7853(2) 0.39264(11) -0.0031(6)
C6E C 0.7230(2) 0.36149(11) -0.0031(5)
C3R C 0.51985(18) 0.12445(18) -0.0053(6)
H1R H 0.4799 0.1041 -0.0058
C4R C 0.54721(18) 0.18326(17) -0.0059(5)
H2R H 0.5261 0.2021 -0.0082
C3S C 0.87555(18) 0.39540(25) -0.0053(6)
H1S H 0.8959 0.3758 -0.0058
C4S C 0.81674(17) 0.36395(25) -0.0059(5)
H2S H 0.7979 0.3240 -0.0082
C3T C 0.60460(25) 0.48015(18) -0.0053(6)
H1T H 0.6242 0.5201 -0.0058
C4T C 0.63605(25) 0.45279(18) -0.0059(5)
H2T H 0.6760 0.4739 -0.0082
N2P N 0.77451(17) 0.10851(24) 0.5201(4)
C7P C 0.7375(2) 0.0788(3) 0.4530(6)
N2R N 0.44118(17) -0.00066(17) -0.1466(4)
C7R C 0.4042(2) -0.0079(2) -0.2137(6)
N2S N 0.00066(17) -0.55816(24) -0.1466(4)
C7S C 0.0079(2) -0.5879(3) -0.2137(6)
N2T N 0.55816(24) -0.44118(17) -0.1466(4)
C7T C 0.5879(3) -0.4042(2) -0.2137(6)
N2U N 0.44184(24) 0.00066(17) 0.1466(4)
C7U C 0.4121(3) 0.0079(2) 0.2137(6)
N2W N -0.00066(17) -0.55882(17) 0.1466(4)
C7W C -0.0079(2) -0.5958(2) 0.2137(6)
N2E N 0.00066(17) -0.44118(17) -0.1466(4)
C7E C 0.0079(2) -0.4042(2) -0.2137(6)
N2V N 0.55882(17) -0.44184(24) 0.1466(4)
C7V C 0.5958(2) -0.4121(3) 0.2137(6)
Ag1A Ag -0.03506(3) -0.36836(3) 0.3333
Ag1B Ag 0.36836(3) -0.6667 0.3333
Ag1C Ag 0.63164(3) -0.03506(3) -0.3333
Ag1R Ag 0.3333 -0.03506(3) -0.3333
Ag1S Ag 0.03506(3) -0.63164(3) -0.3333
Ag1E Ag 0.03506(3) -0.3333 -0.3333
Ag1T Ag 0.63164(3) -0.3333 -0.3333
Ag1U Ag 0.36836(3) 0.03506(3) 0.3333
Ag1V Ag 0.6667 -0.36836(3) 0.3333
Ag1W Ag -0.03506(3) -0.6667 0.3333
Fe1A_2 Fe 1.0000 0.5000 0.0000
Fe1B_2 Fe 0.5000 0.5000 0.0000
Fe1N Fe 0.8333 0.1667 0.6667
N1D_2 N 0.54743(10) -0.54747(22) -0.0040(5)
N1E_2 N -0.0949(2) -0.54743(10) -0.0040(5)
N2D N 0.44118(17) -0.55816(24) -0.1466(4)
C7G C 0.6588(2) -0.0788(3) -0.4530(6)
C7O C -0.0788(3) -0.3412(2) 0.4530(6)
C7Q C 0.3412(2) -0.7375(2) 0.4530(6)
C7GA C 0.0788(3) -0.6588(2) -0.4530(6)
C7HA C 0.2625(2) -0.0788(3) -0.4530(6)
loop_
_geom_bond_atom_site_label_1
_geom_bond_atom_site_label_2
_geom_bond_site_symmetry_1
_geom_bond_site_symmetry_2
C1 O1 1_555 1_555
O1 C1U 1_555 1_555
C2 C1 1_555 1_555
Ag1 C7 1_555 1_555
Fe1 N1 1_555 1_555
N1 C3 1_555 1_555
N2 Fe1 1_555 1_555
N3 C6 1_555 1_555
C3 H1 1_555 1_555
C4 C3 1_555 1_555
H2 C4 1_555 1_555
C5 C4 1_555 1_555
C6 C5 1_555 1_555
C7 N2 1_555 1_555
C1U C2U 1_555 1_555
C2U C2 1_555 1_555
N1A C3A 1_555 1_555
N3A C6A 1_555 1_555
C3A H1A 1_555 1_555
C4A C3A 1_555 1_555
H2A C4A 1_555 1_555
C5A C4A 1_555 1_555
C6A N3 1_555 1_555
N1B C3B 1_555 1_555
N3B C6 1_555 1_555
C3B H1B 1_555 1_555
C4B C3B 1_555 1_555
H2B C4B 1_555 1_555
C5B C4B 1_555 1_555
C6B N3A 1_555 1_555
C3U N1 1_555 1_555
H1U C3U 1_555 1_555
C4U C5 1_555 1_555
H2U C4U 1_555 1_555
C3V N1B 1_555 1_555
H1V C3V 1_555 1_555
C4V C5B 1_555 1_555
H2V C4V 1_555 1_555
C3W N1A 1_555 1_555
H1W C3W 1_555 1_555
C4W C5A 1_555 1_555
H2W C4W 1_555 1_555
Fe1A N1A 1_555 1_555
N2A Fe1A 1_555 1_555
C7A N2A 1_555 1_555
Fe1B N1B 1_555 1_555
N2B Fe1B 1_555 1_555
C7B N2B 1_555 1_555
N1C Fe1 1_555 1_555
N2C Fe1 1_555 1_555
N3C C6C 1_555 1_555
C3C N1C 1_555 1_555
H1C C3C 1_555 1_555
C4C C3C 1_555 1_555
H2C C4C 1_555 1_555
C5C C4C 1_555 1_555
C6C C5C 1_555 1_555
C7C N2C 1_555 1_555
N1D C3D 1_555 1_555
N3D C6D 1_555 1_555
C3D H1D 1_555 1_555
C4D C3D 1_555 1_555
H2D C4D 1_555 1_555
C5D C4D 1_555 1_555
C6D N3C 1_555 1_555
N1E C3E 1_555 1_555
N3E C6C 1_555 1_555
C3E H1E 1_555 1_555
C4E C3E 1_555 1_555
H2E C4E 1_555 1_555
C5E C4E 1_555 1_555
C6E N3D 1_555 1_555
C3R N1C 1_555 1_555
H1R C3R 1_555 1_555
C4R C5C 1_555 1_555
H2R C4R 1_555 1_555
C3S N1E 1_555 1_555
H1S C3S 1_555 1_555
C4S C5E 1_555 1_555
H2S C4S 1_555 1_555
C3T N1D 1_555 1_555
H1T C3T 1_555 1_555
C4T C5D 1_555 1_555
H2T C4T 1_555 1_555
N2P C7P 1_555 1_555
C7P Ag1 1_555 1_555
N2R Fe1 1_555 1_555
C7R N2R 1_555 1_555
N2S Fe1A 1_555 1_555
C7S N2S 1_555 1_555
N2T Fe1B 1_555 1_555
C7T N2T 1_555 1_555
N2U Fe1 1_555 1_555
C7U N2U 1_555 1_555
N2W Fe1A 1_555 1_555
C7W N2W 1_555 1_555
N2E Fe1A 1_555 1_555
C7E N2E 1_555 1_555
N2V Fe1B 1_555 1_555
C7V N2V 1_555 1_555
Ag1A C7A 1_555 1_555
Ag1B C7B 1_555 1_555
Ag1C C7C 1_555 1_555
Ag1R C7R 1_555 1_555
Ag1S C7S 1_555 1_555
Ag1E C7E 1_555 1_555
Ag1T C7T 1_555 1_555
Ag1U C7U 1_555 1_555
Ag1V C7V 1_555 1_555
Ag1W C7W 1_555 1_555
Fe1A_2 N1E 1_555 1_555
Fe1B_2 N1D 1_555 1_555
Fe1N N2P 1_555 1_555
N1D_2 Fe1B 1_555 1_555
N1E_2 Fe1A 1_555 1_555
N2D Fe1B 1_555 1_555
C7G Ag1C 1_555 1_555
C7O Ag1A 1_555 1_555
C7Q Ag1B 1_555 1_555
C7GA Ag1S 1_555 1_555
C7HA Ag1R 1_555 1_555
C5A C6A 1_555 1_555
N3B C6B 1_555 1_555
C5B C6B 1_555 1_555
C3U C4U 1_555 1_555
C3V C4V 1_555 1_555
C3W C4W 1_555 1_555
C5D C6D 1_555 1_555
N3E C6E 1_555 1_555
C5E C6E 1_555 1_555
C3R C4R 1_555 1_555
C3S C4S 1_555 1_555
C3T C4T 1_555 1_555

#END
