
#######################################################################
#
#                 Cambridge Crystallographic Data Centre
#                                CCDC 
#
#######################################################################
#
# If this CIF has been generated from an entry in the Cambridge 
# Structural Database, then it will include bibliographic, chemical, 
# crystal, experimental, refinement or atomic coordinate data resulting 
# from the CCDC's data processing and validation procedures.
#
#######################################################################

data_YOZJEE
_symmetry_cell_setting           rhombohedral
_symmetry_space_group_name_H-M   'R -3 m'
_symmetry_Int_Tables_number      166
_space_group_name_Hall           '-R 3 2"'
loop_
_symmetry_equiv_pos_site_id
_symmetry_equiv_pos_as_xyz
1 x,y,z
2 -y,x-y,z
3 -x+y,-x,z
4 x-y,-y,-z
5 -x,-x+y,-z
6 y,x,-z
7 2/3+x,1/3+y,1/3+z
8 2/3-y,1/3+x-y,1/3+z
9 2/3-x+y,1/3-x,1/3+z
10 2/3+x-y,1/3-y,1/3-z
11 2/3-x,1/3-x+y,1/3-z
12 2/3+y,1/3+x,1/3-z
13 1/3+x,2/3+y,2/3+z
14 1/3-y,2/3+x-y,2/3+z
15 1/3-x+y,2/3-x,2/3+z
16 1/3+x-y,2/3-y,2/3-z
17 1/3-x,2/3-x+y,2/3-z
18 1/3+y,2/3+x,2/3-z
19 -x,-y,-z
20 y,-x+y,-z
21 x-y,x,-z
22 -x+y,y,z
23 x,x-y,z
24 -y,-x,z
25 1/3-x,2/3-y,2/3-z
26 1/3+y,2/3-x+y,2/3-z
27 1/3+x-y,2/3+x,2/3-z
28 1/3-x+y,2/3+y,2/3+z
29 1/3+x,2/3+x-y,2/3+z
30 1/3-y,2/3-x,2/3+z
31 2/3-x,1/3-y,1/3-z
32 2/3+y,1/3-x+y,1/3-z
33 2/3+x-y,1/3+x,1/3-z
34 2/3-x+y,1/3+y,1/3+z
35 2/3+x,1/3+x-y,1/3+z
36 2/3-y,1/3-x,1/3+z
_cell_length_a                   26.2174(12)
_cell_length_b                   26.2174(12)
_cell_length_c                   9.5734(5)
_cell_angle_alpha                90
_cell_angle_beta                 90
_cell_angle_gamma                120
_cell_volume                     5698.7
loop_
_atom_site_label
_atom_site_type_symbol
_atom_site_fract_x
_atom_site_fract_y
_atom_site_fract_z
O1 O 0.2057(5) 0.7943(5) 0.902(2)
C1 C 0.2565(9) 0.8307(10) 0.838(2)
C2 C 0.2602(8) 0.7970(8) 0.722(3)
C1W C 0.1693(10) 0.7435(9) 0.838(2)
C2W C 0.2030(8) 0.7398(8) 0.722(3)
Ag1 Ag 0.3333 0.96593(2) 0.6667
Fe1 Fe 0.5000 1.0000 1.0000
N1 N 0.54387(11) 1.0877(2) 0.9944(5)
N2 N 0.44566(16) 0.99845(16) 0.8587(4)
N3 N 0.6059(2) 1.30297(12) 0.9990(5)
C3 C 0.60326(18) 1.11858(18) 0.9938(5)
H1 H 0.6235 1.0979 0.9921
C4 C 0.63551(19) 1.17955(18) 0.9957(5)
H2 H 0.6765 1.1993 0.9962
C5 C 0.60527(13) 1.2105(3) 0.9966(8)
C6 C 0.63805(12) 1.2761(2) 0.9996(7)
C7 C 0.4081(2) 0.9934(2) 0.7859(5)
N1A N 0.9123(2) 1.45617(23) 0.9944(5)
N3A N 0.69703(12) 1.30293(23) 0.9990(5)
C3A C 0.88142(18) 1.48468(25) 0.9938(5)
H1A H 0.9021 1.5256 0.9921
C4A C 0.82045(18) 1.45596(26) 0.9957(5)
H2A H 0.8007 1.4772 0.9962
C5A C 0.7895(3) 1.39477(33) 0.9966(8)
C6A C 0.7239(2) 1.36195(23) 0.9996(7)
N1B N 0.54383(23) 1.45613(11) 0.9944(5)
N3B N 0.69707(23) 1.3941(2) 0.9990(5)
C3B C 0.51532(25) 1.39674(18) 0.9938(5)
H1B H 0.4744 1.3765 0.9921
C4B C 0.54404(26) 1.36449(19) 0.9957(5)
H2B H 0.5228 1.3235 0.9962
C5B C 0.60523(33) 1.39473(13) 0.9966(8)
C6B C 0.63805(23) 1.36195(12) 0.9996(7)
C3U C 0.51532(25) 1.11858(18) 0.9938(5)
H1U H 0.4744 1.0979 0.9921
C4U C 0.54404(26) 1.17955(18) 0.9957(5)
H2U H 0.5228 1.1993 0.9962
C3V C 0.60326(18) 1.48468(25) 0.9938(5)
H1V H 0.6235 1.5256 0.9921
C4V C 0.63551(19) 1.45596(26) 0.9957(5)
H2V H 0.6765 1.4772 0.9962
C3W C 0.88142(18) 1.39674(18) 0.9938(5)
H1W H 0.9021 1.3765 0.9921
C4W C 0.82045(18) 1.36449(19) 0.9957(5)
H2W H 0.8007 1.3235 0.9962
Fe1A Fe 1.0000 1.5000 1.0000
N2A N 1.00155(16) 1.44721(23) 0.8587(4)
C7A C 1.0066(2) 1.4147(3) 0.7859(5)
Fe1B Fe 0.5000 1.5000 1.0000
N2B N 0.55279(23) 1.55434(16) 0.8587(4)
C7B C 0.5853(3) 1.5919(2) 0.7859(5)
N1C N 0.45617(23) 0.9123(2) 1.0056(5)
N2C N 0.44721(23) 1.00155(16) 1.1413(4)
N3C N 0.30293(23) 0.69703(12) 1.0010(5)
C3C C 0.48468(25) 0.88142(18) 1.0062(5)
H1C H 0.5256 0.9021 1.0079
C4C C 0.45596(26) 0.82045(18) 1.0043(5)
H2C H 0.4772 0.8007 1.0038
C5C C 0.39477(33) 0.7895(3) 1.0034(8)
C6C C 0.36195(23) 0.7239(2) 1.0004(7)
C7C C 0.4147(3) 1.0066(2) 1.2141(5)
N1D N 0.45613(11) 0.54383(23) 1.0056(5)
N3D N 0.3941(2) 0.69707(23) 1.0010(5)
C3D C 0.39674(18) 0.51532(25) 1.0062(5)
H1D H 0.3765 0.4744 1.0079
C4D C 0.36449(19) 0.54404(26) 1.0043(5)
H2D H 0.3235 0.5228 1.0038
C5D C 0.39473(13) 0.60523(33) 1.0034(8)
C6D C 0.36195(12) 0.63805(23) 1.0004(7)
N1E N 0.0877(2) 0.54387(11) 1.0056(5)
N3E N 0.30297(12) 0.6059(2) 1.0010(5)
C3E C 0.11858(18) 0.60326(18) 1.0062(5)
H1E H 0.0979 0.6235 1.0079
C4E C 0.17955(18) 0.63551(19) 1.0043(5)
H2E H 0.1993 0.6765 1.0038
C5E C 0.2105(3) 0.60527(13) 1.0034(8)
C6E C 0.2761(2) 0.63805(12) 1.0004(7)
C3R C 0.39674(18) 0.88142(18) 1.0062(5)
H1R H 0.3765 0.9021 1.0079
C4R C 0.36449(19) 0.82045(18) 1.0043(5)
H2R H 0.3235 0.8007 1.0038
C3S C 0.11858(18) 0.51532(25) 1.0062(5)
H1S H 0.0979 0.4744 1.0079
C4S C 0.17955(18) 0.54404(26) 1.0043(5)
H2S H 0.1993 0.5228 1.0038
C3T C 0.48468(25) 0.60326(18) 1.0062(5)
H1T H 0.5256 0.6235 1.0079
C4T C 0.45596(26) 0.63551(19) 1.0043(5)
H2T H 0.4772 0.6765 1.0038
N2J N 0.22101(16) 0.88612(23) 0.4746(4)
C7J C 0.2586(2) 0.9186(3) 0.5474(5)
N2R N 0.55434(16) 1.00155(16) 1.1413(4)
C7R C 0.5919(2) 1.0066(2) 1.2141(5)
N2S N 0.99845(16) 1.55279(23) 1.1413(4)
C7S C 0.9934(2) 1.5853(3) 1.2141(5)
N2U N 0.55279(23) 0.99845(16) 0.8587(4)
C7U C 0.5853(3) 0.9934(2) 0.7859(5)
N2W N 1.00155(16) 1.55434(16) 0.8587(4)
C7W C 1.0066(2) 1.5919(2) 0.7859(5)
N2E N 0.99845(16) 1.44566(16) 1.1413(4)
C7E C 0.9934(2) 1.4081(2) 1.2141(5)
N2T N 0.44721(23) 1.44566(16) 1.1413(4)
C7T C 0.4147(3) 1.4081(2) 1.2141(5)
N2V N 0.44566(16) 1.44721(23) 0.8587(4)
C7V C 0.4081(2) 1.4147(3) 0.7859(5)
Ag1A Ag 1.03407(2) 1.36737(2) 0.6667
Ag1B Ag 0.63263(2) 1.6667 0.6667
Ag1C Ag 0.36737(2) 1.03407(2) 1.3333
Ag1R Ag 0.6667 1.03407(2) 1.3333
Ag1S Ag 0.96593(2) 1.63263(2) 1.3333
Ag1E Ag 0.96593(2) 1.3333 1.3333
Ag1T Ag 0.36737(2) 1.3333 1.3333
Ag1U Ag 0.63263(2) 0.96593(2) 0.6667
Ag1V Ag 0.3333 1.36737(2) 0.6667
Ag1W Ag 1.03407(2) 1.6667 0.6667
Fe1A_2 Fe 0.0000 0.5000 1.0000
Fe1B_2 Fe 0.5000 0.5000 1.0000
Fe1H Fe 0.1667 0.8333 0.3333
N1D_2 N 0.45613(11) 1.54383(23) 1.0056(5)
N1E_2 N 1.0877(2) 1.54387(11) 1.0056(5)
N2D N 0.55434(16) 1.55279(23) 1.1413(4)
C7I C 1.0814(3) 1.3399(2) 0.5474(5)
C7K C 0.6601(2) 1.7414(2) 0.5474(5)
C7M C 0.3399(2) 1.0814(3) 1.4526(5)
C7AA C 0.9186(3) 1.6601(2) 1.4526(5)
C7BA C 0.7414(2) 1.0814(3) 1.4526(5)
loop_
_geom_bond_atom_site_label_1
_geom_bond_atom_site_label_2
_geom_bond_site_symmetry_1
_geom_bond_site_symmetry_2
O1 C1 1_555 1_555
C1 C2 1_555 1_555
C2 C2W 1_555 1_555
Ag1 C7 1_555 1_555
Fe1 N1 1_555 1_555
N1 C3 1_555 1_555
N2 Fe1 1_555 1_555
N3 C6 1_555 1_555
C3 H1 1_555 1_555
C4 C3 1_555 1_555
H2 C4 1_555 1_555
C5 C4 1_555 1_555
C6 C5 1_555 1_555
C7 N2 1_555 1_555
C1W O1 1_555 1_555
C2W C1W 1_555 1_555
N1A C3A 1_555 1_555
N3A C6 1_555 1_555
C3A H1A 1_555 1_555
C4A C3A 1_555 1_555
H2A C4A 1_555 1_555
C5A C4A 1_555 1_555
C6A N3A 1_555 1_555
N1B C3B 1_555 1_555
N3B C6A 1_555 1_555
C3B H1B 1_555 1_555
C4B C3B 1_555 1_555
H2B C4B 1_555 1_555
C5B C4B 1_555 1_555
C6B N3 1_555 1_555
C3U N1 1_555 1_555
H1U C3U 1_555 1_555
C4U C5 1_555 1_555
H2U C4U 1_555 1_555
C3V N1B 1_555 1_555
H1V C3V 1_555 1_555
C4V C5B 1_555 1_555
H2V C4V 1_555 1_555
C3W N1A 1_555 1_555
H1W C3W 1_555 1_555
C4W C5A 1_555 1_555
H2W C4W 1_555 1_555
Fe1A N1A 1_555 1_555
N2A Fe1A 1_555 1_555
C7A N2A 1_555 1_555
Fe1B N1B 1_555 1_555
N2B Fe1B 1_555 1_555
C7B N2B 1_555 1_555
N1C Fe1 1_555 1_555
N2C Fe1 1_555 1_555
N3C C6C 1_555 1_555
C3C N1C 1_555 1_555
H1C C3C 1_555 1_555
C4C C3C 1_555 1_555
H2C C4C 1_555 1_555
C5C C4C 1_555 1_555
C6C C5C 1_555 1_555
C7C N2C 1_555 1_555
N1D C3D 1_555 1_555
N3D C6C 1_555 1_555
C3D H1D 1_555 1_555
C4D C3D 1_555 1_555
H2D C4D 1_555 1_555
C5D C4D 1_555 1_555
C6D N3D 1_555 1_555
N1E C3E 1_555 1_555
N3E C6D 1_555 1_555
C3E H1E 1_555 1_555
C4E C3E 1_555 1_555
H2E C4E 1_555 1_555
C5E C4E 1_555 1_555
C6E N3C 1_555 1_555
C3R N1C 1_555 1_555
H1R C3R 1_555 1_555
C4R C5C 1_555 1_555
H2R C4R 1_555 1_555
C3S N1E 1_555 1_555
H1S C3S 1_555 1_555
C4S C5E 1_555 1_555
H2S C4S 1_555 1_555
C3T N1D 1_555 1_555
H1T C3T 1_555 1_555
C4T C5D 1_555 1_555
H2T C4T 1_555 1_555
N2J C7J 1_555 1_555
C7J Ag1 1_555 1_555
N2R Fe1 1_555 1_555
C7R N2R 1_555 1_555
N2S Fe1A 1_555 1_555
C7S N2S 1_555 1_555
N2U Fe1 1_555 1_555
C7U N2U 1_555 1_555
N2W Fe1A 1_555 1_555
C7W N2W 1_555 1_555
N2E Fe1A 1_555 1_555
C7E N2E 1_555 1_555
N2T Fe1B 1_555 1_555
C7T N2T 1_555 1_555
N2V Fe1B 1_555 1_555
C7V N2V 1_555 1_555
Ag1A C7A 1_555 1_555
Ag1B C7B 1_555 1_555
Ag1C C7C 1_555 1_555
Ag1R C7R 1_555 1_555
Ag1S C7S 1_555 1_555
Ag1E C7E 1_555 1_555
Ag1T C7T 1_555 1_555
Ag1U C7U 1_555 1_555
Ag1V C7V 1_555 1_555
Ag1W C7W 1_555 1_555
Fe1A_2 N1E 1_555 1_555
Fe1B_2 N1D 1_555 1_555
Fe1H N2J 1_555 1_555
N1D_2 Fe1B 1_555 1_555
N1E_2 Fe1A 1_555 1_555
N2D Fe1B 1_555 1_555
C7I Ag1A 1_555 1_555
C7K Ag1B 1_555 1_555
C7M Ag1C 1_555 1_555
C7AA Ag1S 1_555 1_555
C7BA Ag1R 1_555 1_555
C5A C6A 1_555 1_555
N3B C6B 1_555 1_555
C5B C6B 1_555 1_555
C3U C4U 1_555 1_555
C3V C4V 1_555 1_555
C3W C4W 1_555 1_555
C5D C6D 1_555 1_555
N3E C6E 1_555 1_555
C5E C6E 1_555 1_555
C3R C4R 1_555 1_555
C3S C4S 1_555 1_555
C3T C4T 1_555 1_555

#END
