
#######################################################################
#
#                 Cambridge Crystallographic Data Centre
#                                CCDC 
#
#######################################################################
#
# If this CIF has been generated from an entry in the Cambridge 
# Structural Database, then it will include bibliographic, chemical, 
# crystal, experimental, refinement or atomic coordinate data resulting 
# from the CCDC's data processing and validation procedures.
#
#######################################################################

data_YOZJAA
_symmetry_cell_setting           triclinic
_symmetry_space_group_name_H-M   'P -1'
_symmetry_Int_Tables_number      2
_space_group_name_Hall           '-P 1'
loop_
_symmetry_equiv_pos_site_id
_symmetry_equiv_pos_as_xyz
1 x,y,z
2 -x,-y,-z
_cell_length_a                   12.1832(9)
_cell_length_b                   14.8529(9)
_cell_length_c                   15.1970(9)
_cell_angle_alpha                92.957(5)
_cell_angle_beta                 105.125(6)
_cell_angle_gamma                110.694(6)
_cell_volume                     2451.76
loop_
_atom_site_label
_atom_site_type_symbol
_atom_site_fract_x
_atom_site_fract_y
_atom_site_fract_z
C1 C 0.1437(14) 1.1598(11) 0.6190(11)
C2 C 0.1738(15) 1.0689(12) 0.6362(12)
C3 C 0.1704(16) 1.0338(13) 0.7196(13)
H1 H 0.1652 1.0718 0.7678
C4 C 0.1745(18) 0.9426(14) 0.7311(14)
H2 H 0.1787 0.9208 0.7877
C5 C 0.1723(17) 0.8859(14) 0.6554(12)
H3 H 0.1670 0.8223 0.6598
C6 C 0.1843(15) 1.0115(12) 0.5658(11)
C7 C 0.2031(13) 1.0390(11) 0.4776(10)
C8 C 0.1645(17) 0.9729(14) 0.3238(12)
H4 H 0.1294 0.9190 0.2773
C9 C 0.2267(17) 1.0630(13) 0.3045(13)
H5 H 0.2338 1.0703 0.2455
C10 C 0.2791(17) 1.1434(14) 0.3748(13)
H6 H 0.3213 1.2049 0.3629
C11 C 0.2684(16) 1.1315(13) 0.4606(13)
C12 C 0.3386(16) 1.2219(13) 0.5325(12)
C13 C 0.3576(15) 0.7918(12) 0.4671(12)
C14 C 0.3906(15) 0.8165(12) 0.5718(11)
C15 C 0.4478(18) 0.9159(13) 0.6075(12)
H7 H 0.4596 0.9618 0.5680
C16 C 0.4866(16) 0.9456(13) 0.7017(12)
H8 H 0.5247 1.0114 0.7266
C17 C 0.4674(16) 0.8748(13) 0.7587(12)
H9 H 0.4956 0.8950 0.8223
C18 C 0.3702(14) 0.7503(12) 0.6331(11)
C19 C 0.3057(14) 0.6415(11) 0.6071(11)
C20 C 0.3121(16) 0.4932(13) 0.6407(12)
H10 H 0.3497 0.4595 0.6797
C21 C 0.2189(15) 0.4419(12) 0.5632(11)
H11 H 0.1939 0.3746 0.5492
C22 C 0.1632(15) 0.4913(12) 0.5068(11)
H12 H 0.0992 0.4578 0.4536
C23 C 0.2021(14) 0.5932(11) 0.5288(11)
C24 C 0.1288(14) 0.6449(12) 0.4697(11)
C25 C 0.3374(15) 0.8513(12) 1.0331(11)
C26 C 0.4400(14) 0.8289(12) 1.0121(11)
C27 C 0.5617(15) 0.9001(12) 1.0470(11)
H13 H 0.5779 0.9533 1.0903
C28 C 0.6537(15) 0.8918(12) 1.0182(12)
H14 H 0.7335 0.9380 1.0413
C29 C 0.6248(15) 0.8106(12) 0.9520(12)
H15 H 0.6861 0.8059 0.9284
C30 C 0.4231(14) 0.7452(13) 0.9565(12)
C31 C 0.3084(14) 0.6538(11) 0.9229(11)
C32 C 0.2013(15) 0.5273(12) 0.7986(12)
H16 H 0.1973 0.4951 0.7431
C33 C 0.1060(17) 0.4875(14) 0.8407(13)
H17 H 0.0346 0.4343 0.8097
C34 C 0.1230(15) 0.5302(13) 0.9286(12)
H18 H 0.0657 0.5020 0.9593
C35 C 0.2239(16) 0.6144(12) 0.9716(11)
C36 C 0.2374(15) 0.6524(12) 1.0697(11)
C37 C -0.3964(17) 0.5203(13) 0.8582(12)
C38 C -0.1210(8) 0.7280(7) 1.0895(5)
H19 H -0.0614 0.7704 1.1409
N1 N -0.0965(7) 0.7243(6) 1.0053(6)
C39 C -0.1855(9) 0.6609(7) 0.9283(5)
C40 C -0.2989(8) 0.6012(7) 0.9356(6)
C41 C -0.3233(7) 0.6048(7) 1.0198(7)
H20 H -0.3992 0.5649 1.0247
C42 C -0.2344(10) 0.6682(8) 1.0967(6)
H21 H -0.2507 0.6707 1.1531
C43 C -0.1445(14) 0.6737(11) 0.8460(12)
C44 C 0.0276(16) 0.7042(13) 0.7952(12)
H22 H 0.1117 0.7194 0.8096
C45 C -0.0405(16) 0.6862(13) 0.7031(12)
H23 H -0.0038 0.6861 0.6565
C46 C -0.1651(16) 0.6682(13) 0.6823(13)
H24 H -0.2129 0.6596 0.6215
C47 C -0.2183(15) 0.6631(11) 0.7563(12)
C48 C -0.3515(15) 0.6524(12) 0.7272(11)
N2 N 0.1776(13) 0.9195(10) 0.5752(9)
N3 N 0.1539(12) 0.9616(10) 0.4065(9)
N4 N 0.4108(13) 0.7797(10) 0.7269(10)
N5 N 0.3519(12) 0.5899(10) 0.6630(9)
N6 N 0.5141(12) 0.7408(9) 0.9220(9)
N7 N 0.2946(12) 0.6094(10) 0.8385(9)
N8 N -0.0213(13) 0.7010(10) 0.8636(10)
N9 N -0.0092(14) 0.9506(12) 0.8989(10)
O1 O 0.1809(10) 1.2243(9) 0.6921(8)
O2 O 0.0805(11) 1.1625(9) 0.5431(8)
O3 O 0.4011(12) 1.2091(10) 0.6086(9)
O4 O 0.3341(13) 1.2981(9) 0.5087(10)
O5 O 0.3777(10) 0.7205(8) 0.4346(8)
O6 O 0.3096(12) 0.8431(9) 0.4216(8)
O7 O 0.1240(10) 0.7181(8) 0.5097(7)
O8 O 0.0758(10) 0.6067(8) 0.3860(7)
O9 O 0.4452(14) 0.5704(10) 0.3921(9)
H25 H 0.3958 0.5619 0.4278
H26 H 0.5220 0.5935 0.4294
O10 O 0.2017(11) 0.5925(10) 0.2611(9)
H27 H 0.1604 0.6184 0.2211
H28 H 0.1821 0.5963 0.3124
O11 O 0.5777(11) 0.6847(10) 0.2293(8)
H29 H 0.5712 0.6268 0.2076
H30 H 0.6482 0.7121 0.2722
O12 O 0.3421(10) 0.6814(8) 1.1266(8)
O13 O 0.1405(11) 0.6447(10) 1.0882(9)
O14 O 0.2303(11) 0.8059(9) 0.9746(8)
O15 O 0.3613(11) 0.9101(9) 1.1037(9)
O16 O -0.3568(11) 0.4826(8) 0.8034(8)
O17 O -0.5036(11) 0.5008(9) 0.8569(8)
O18 O -0.3845(10) 0.6902(8) 0.7899(8)
O19 O -0.4176(11) 0.6132(9) 0.6494(8)
O20 O 0.1355(11) 0.8732(9) 1.1073(8)
H31 H 0.1013 0.9174 1.1072
H32 H 0.2164 0.9064 1.1211
O21 O 0.0722(12) 0.9163(9) 0.9115(10)
O22 O 0.0132(12) 1.0348(9) 0.8758(9)
O23 O -0.1101(12) 0.9068(12) 0.9122(10)
Cu1 Cu 0.06863(18) 0.78372(15) 0.98951(14)
Cu2 Cu 0.44770(17) 0.65786(14) 0.79494(13)
Cu3 Cu 0.11745(18) 0.83349(14) 0.45203(13)
Dy1 Dy 0.41647(7) 0.67430(6) 0.28934(5)
O24 O 0.3666(16) 0.8132(11) 0.2715(10)
H33 H 0.3056 0.8035 0.2200
H34 H 0.3427 0.8293 0.3186
O25 O 0.0275(10) 0.7562(8) 0.3270(7)
H35 H -0.0045 0.6914 0.3284
H36 H 0.0754 0.7637 0.2894
O2A O -0.0805(11) 0.8375(9) 0.4569(8)
O3A O 0.5989(12) 0.7909(10) 0.3914(9)
O12_2 O 0.3421(10) 0.6814(8) 0.1266(8)
O16A O 0.3568(11) 0.5174(8) 0.1966(8)
O17_2 O 0.4964(11) 0.5008(9) 0.8569(8)
O18_2 O 0.6155(10) 0.6902(8) 0.7899(8)
Cu2_2 Cu -0.55230(17) 0.65786(14) 0.79494(13)
Cu3A Cu -0.11745(18) 1.16651(14) 0.54797(13)
Dy1_2 Dy 0.41647(7) 0.67430(6) 1.28934(5)
Dy1A Dy -0.41647(7) 0.32570(6) 0.71066(5)
Dy1A_2 Dy 0.58353(7) 1.32570(6) 0.71066(5)
loop_
_geom_bond_atom_site_label_1
_geom_bond_atom_site_label_2
_geom_bond_site_symmetry_1
_geom_bond_site_symmetry_2
C1 C2 1_555 1_555
C2 C3 1_555 1_555
C3 H1 1_555 1_555
C4 C3 1_555 1_555
H2 C4 1_555 1_555
C5 C4 1_555 1_555
H3 C5 1_555 1_555
C6 C2 1_555 1_555
C7 C6 1_555 1_555
C8 H4 1_555 1_555
C9 C8 1_555 1_555
H5 C9 1_555 1_555
C10 C9 1_555 1_555
H6 C10 1_555 1_555
C11 C7 1_555 1_555
C12 C11 1_555 1_555
C13 C14 1_555 1_555
C14 C15 1_555 1_555
C15 H7 1_555 1_555
C16 C15 1_555 1_555
H8 C16 1_555 1_555
C17 C16 1_555 1_555
H9 C17 1_555 1_555
C18 C14 1_555 1_555
C19 C18 1_555 1_555
C20 H10 1_555 1_555
C21 C20 1_555 1_555
H11 C21 1_555 1_555
C22 C21 1_555 1_555
H12 C22 1_555 1_555
C23 C19 1_555 1_555
C24 C23 1_555 1_555
C25 C26 1_555 1_555
C26 C27 1_555 1_555
C27 H13 1_555 1_555
C28 C27 1_555 1_555
H14 C28 1_555 1_555
C29 C28 1_555 1_555
H15 C29 1_555 1_555
C30 C26 1_555 1_555
C31 C30 1_555 1_555
C32 H16 1_555 1_555
C33 C32 1_555 1_555
H17 C33 1_555 1_555
C34 C33 1_555 1_555
H18 C34 1_555 1_555
C35 C31 1_555 1_555
C36 C35 1_555 1_555
C37 C40 1_555 1_555
C38 H19 1_555 1_555
N1 C38 1_555 1_555
C39 N1 1_555 1_555
C40 C39 1_555 1_555
C41 C40 1_555 1_555
H20 C41 1_555 1_555
C42 C38 1_555 1_555
H21 C42 1_555 1_555
C43 C39 1_555 1_555
C44 H22 1_555 1_555
C45 C44 1_555 1_555
H23 C45 1_555 1_555
C46 C45 1_555 1_555
H24 C46 1_555 1_555
C47 C43 1_555 1_555
C48 C47 1_555 1_555
N2 C5 1_555 1_555
N3 C7 1_555 1_555
N4 C17 1_555 1_555
N5 C19 1_555 1_555
N6 C29 1_555 1_555
N7 C31 1_555 1_555
N8 C43 1_555 1_555
N9 O21 1_555 1_555
O1 C1 1_555 1_555
O2 C1 1_555 1_555
O3 C12 1_555 1_555
O4 C12 1_555 1_555
O5 C13 1_555 1_555
O6 C13 1_555 1_555
O7 C24 1_555 1_555
O8 C24 1_555 1_555
O9 H25 1_555 1_555
H26 O9 1_555 1_555
O10 H27 1_555 1_555
H28 O10 1_555 1_555
O11 H29 1_555 1_555
H30 O11 1_555 1_555
O12 C36 1_555 1_555
O13 C36 1_555 1_555
O14 C25 1_555 1_555
O15 C25 1_555 1_555
O16 C37 1_555 1_555
O17 C37 1_555 1_555
O18 C48 1_555 1_555
O19 C48 1_555 1_555
O20 H31 1_555 1_555
H32 O20 1_555 1_555
O21 Cu1 1_555 1_555
O22 N9 1_555 1_555
O23 N9 1_555 1_555
Cu1 N1 1_555 1_555
Cu2 N4 1_555 1_555
Cu3 N2 1_555 1_555
Dy1 O5 1_555 1_555
O24 Dy1 1_555 1_555
H33 O24 1_555 1_555
H34 O24 1_555 1_555
O25 Cu3 1_555 1_555
H35 O25 1_555 1_555
H36 O25 1_555 1_555
O2A Cu3 1_555 1_555
O3A Dy1 1_555 1_555
O12_2 Dy1 1_555 1_555
O16A Dy1 1_555 1_555
O17_2 Cu2 1_555 1_555
O18_2 Cu2 1_555 1_555
Cu2_2 O17 1_555 1_555
Cu3A O2 1_555 1_555
Dy1_2 O12 1_555 1_555
Dy1A O16 1_555 1_555
Dy1A_2 O3 1_555 1_555
C6 N2 1_555 1_555
C8 N3 1_555 1_555
C10 C11 1_555 1_555
C18 N4 1_555 1_555
C20 N5 1_555 1_555
C22 C23 1_555 1_555
C30 N6 1_555 1_555
C32 N7 1_555 1_555
C34 C35 1_555 1_555
C41 C42 1_555 1_555
C44 N8 1_555 1_555
C46 C47 1_555 1_555
N3 Cu3 1_555 1_555
N5 Cu2 1_555 1_555
N6 Cu2 1_555 1_555
N7 Cu2 1_555 1_555
N8 Cu1 1_555 1_555
O6 Cu3 1_555 1_555
O7 Cu3 1_555 1_555
O9 Dy1 1_555 1_555
O10 Dy1 1_555 1_555
O11 Dy1 1_555 1_555
O14 Cu1 1_555 1_555
O18 Cu2_2 1_555 1_555
O20 Cu1 1_555 1_555

#END
