
#######################################################################
#
#                 Cambridge Crystallographic Data Centre
#                                CCDC 
#
#######################################################################
#
# If this CIF has been generated from an entry in the Cambridge 
# Structural Database, then it will include bibliographic, chemical, 
# crystal, experimental, refinement or atomic coordinate data resulting 
# from the CCDC's data processing and validation procedures.
#
#######################################################################

data_YOZKIJ
_symmetry_cell_setting           monoclinic
_symmetry_space_group_name_H-M   'P 21'
_symmetry_Int_Tables_number      4
_space_group_name_Hall           'P 2yb'
loop_
_symmetry_equiv_pos_site_id
_symmetry_equiv_pos_as_xyz
1 x,y,z
2 -x,1/2+y,-z
_cell_length_a                   12.4202(6)
_cell_length_b                   13.8430(6)
_cell_length_c                   13.9603(8)
_cell_angle_alpha                90
_cell_angle_beta                 115.446(6)
_cell_angle_gamma                90
_cell_volume                     2167.39
loop_
_atom_site_label
_atom_site_type_symbol
_atom_site_fract_x
_atom_site_fract_y
_atom_site_fract_z
Cu1 Cu 0.51797(5) 0.21504(5) 0.13297(5)
Cu2 Cu 0.41988(6) 0.26741(5) 0.25801(5)
O1 O 0.2665(3) 0.2276(3) 0.1472(3)
O2 O 0.5952(3) -0.1080(3) -0.1872(3)
O3 O 0.3469(3) 0.2016(3) 0.0322(3)
O4 O 0.5132(3) 0.0842(3) 0.1909(3)
O5 O 0.5822(3) 0.3007(3) 0.3582(3)
O6 O 0.4871(3) -0.1484(3) -0.0976(3)
O7 O 0.3330(3) 0.3052(3) 0.3551(3)
H1 H 0.3643 0.282 0.426
O8 O 0.4487(3) 0.1346(3) 0.3106(3)
O9 O 0.6698(3) 0.2368(3) 0.2607(3)
N1 N -0.0008(4) 0.1339(4) -0.1782(4)
N2 N 0.7035(4) 0.0751(4) -0.1512(4)
H2 H 0.750 0.1235 -0.1498
H3 H 0.6999 0.0231 -0.1889
N3 N 0.6372(4) 0.1562(4) -0.0362(4)
C1 C 0.6377(5) 0.0804(5) -0.0957(5)
C2 C 0.5452(5) -0.0881(5) -0.1270(5)
N4 N 0.5706(5) -0.1750(4) 0.3626(4)
N5 N 0.1939(4) 0.1455(5) -0.1754(4)
H4 H 0.167 0.1287 -0.2425
H5 H 0.2701 0.1583 -0.1382
C3 C 0.5609(5) 0.0097(5) -0.0853(5)
N6 N 0.7325(4) 0.3694(4) 0.5644(4)
H6 H 0.7587 0.3953 0.628
H7 H 0.6554 0.3626 0.5254
N7 N -0.0555(4) 0.1482(5) -0.1116(4)
C4 C 0.2608(5) 0.2044(5) 0.0572(4)
N8 N 0.9308(4) 0.3481(5) 0.5823(4)
N9 N 0.5357(4) -0.1418(4) 0.4394(4)
C5 C 0.8101(5) 0.3402(5) 0.5268(5)
C6 C -0.0223(6) 0.0395(5) -0.3324(5)
H8 H 0.0557 0.0143 -0.2934
N10 N 0.5629(4) 0.1399(4) 0.0132(4)
N11 N 0.9891(5) 0.3120(5) 0.5251(5)
C7 C 0.1427(5) 0.1765(5) -0.0253(5)
C8 C 0.7020(6) 0.2976(5) -0.1007(7)
H9 H 0.653 0.2787 -0.1717
C9 C 0.1170(5) 0.1518(5) -0.1287(5)
C10 C -0.0703(6) 0.1037(5) -0.2856(5)
C11 C 0.0319(5) 0.1746(5) -0.0203(5)
H10 H 0.0213 0.1905 0.0413
C12 C 0.9655(6) 0.3673(6) 0.7665(6)
H11 H 0.8966 0.3295 0.7529
C13 C -0.1850(5) 0.1383(5) -0.3391(5)
H12 H -0.2176 0.1813 -0.3054
C14 C 0.5177(5) 0.0533(4) -0.0181(5)
H13 H 0.4619 0.0237 0.0025
C15 C 0.4900(5) 0.0706(5) 0.2700(5)
C16 C 0.7891(5) 0.2980(5) 0.4288(5)
C17 C 0.7063(6) 0.2429(5) -0.0165(6)
C18 C 0.9990(6) 0.3849(6) 0.6865(6)
C19 C 0.5101(5) -0.0248(5) 0.3178(5)
C20 C 0.6253(7) -0.2676(6) 0.3740(6)
C21 C 0.9042(5) 0.2818(6) 0.4348(5)
H14 H 0.9187 0.2524 0.3799
C22 C 0.6726(5) 0.2755(5) 0.3428(5)
C23 C -0.0903(5) 0.0121(5) -0.4383(5)
H15 H -0.0585 -0.0323 -0.4713
C24 C -0.2041(5) 0.0496(5) -0.4950(5)
H16 H -0.248 0.0345 -0.568
N12 N 0.5886(5) -0.1189(5) 0.2080(5)
H17 H 0.5787 -0.073 0.1613
H18 H 0.6186 -0.1751 0.2023
C25 C 0.7711(6) 0.3810(6) -0.0794(6)
H19 H 0.769 0.4201 -0.1361
C26 C 0.7476(6) -0.2719(6) 0.4030(5)
H20 H 0.7937 -0.2146 0.4151
C27 C 0.7787(6) 0.2686(6) 0.0881(6)
H21 H 0.7814 0.2297 0.1451
C28 C 1.0998(6) 0.4387(6) 0.7060(6)
H22 H 1.1237 0.4501 0.6509
C29 C -0.2528(6) 0.1088(5) -0.4447(5)
H23 H -0.333 0.13 -0.4816
C30 C 0.5007(6) -0.0511(5) 0.4091(5)
H24 H 0.4721 -0.009 0.4467
C31 C 0.5574(6) -0.1028(5) 0.2897(5)
C32 C 0.8471(6) 0.3521(6) 0.1077(6)
H25 H 0.8966 0.3712 0.1785
C33 C 0.8428(6) 0.4067(6) 0.0242(6)
H26 H 0.8901 0.4635 0.038
C34 C 0.7321(7) -0.4434(6) 0.3917(6)
H27 H 0.7687 -0.5044 0.3955
C35 C 0.5565(7) -0.3490(6) 0.3556(6)
H28 H 0.4738 -0.3444 0.3376
C36 C 0.7999(7) -0.3617(6) 0.4138(6)
H29 H 0.8836 -0.3666 0.4367
C37 C 1.0321(6) 0.4046(6) 0.8678(6)
H30 H 1.0086 0.3927 0.9232
C38 C 1.1665(6) 0.4763(6) 0.8073(6)
H31 H 1.2354 0.5141 0.8207
C39 C 1.1331(6) 0.4592(6) 0.8870(6)
H32 H 1.1791 0.4847 0.9559
C40 C 0.2287(6) 0.3646(6) 0.3165(6)
H33 H 0.202 0.3734 0.3726
H34 H 0.1653 0.3334 0.2551
H35 H 0.2472 0.4276 0.2954
C41 C 0.6108(7) -0.4389(6) 0.3638(6)
H36 H 0.565 -0.4964 0.3504
Cu1A Cu 0.48203(5) -0.28496(5) -0.13297(5)
Cu2A Cu 0.58012(6) -0.23259(5) -0.25801(5)
O2A O 0.4048(3) 0.3920(3) 0.1872(3)
O6A O 0.5129(3) 0.3516(3) 0.0976(3)
O10 O 0.7649(4) 0.5483(4) 0.6904(5)
H37 H 0.7005 0.5792 0.6671
C42 C 0.8561(6) 0.6095(6) 0.7028(7)
H38 H 0.8309 0.6528 0.6415
H39 H 0.9254 0.5719 0.7083
H40 H 0.8774 0.6477 0.7675
loop_
_geom_bond_atom_site_label_1
_geom_bond_atom_site_label_2
_geom_bond_site_symmetry_1
_geom_bond_site_symmetry_2
Cu1 Cu2 1_555 1_555
Cu2 O1 1_555 1_555
O1 C4 1_555 1_555
O2 C2 1_555 1_555
O3 Cu1 1_555 1_555
O4 Cu1 1_555 1_555
O5 Cu2 1_555 1_555
O6 C2 1_555 1_555
O7 Cu2 1_555 1_555
H1 O7 1_555 1_555
O8 Cu2 1_555 1_555
O9 Cu1 1_555 1_555
N1 N7 1_555 1_555
N2 H2 1_555 1_555
H3 N2 1_555 1_555
N3 C1 1_555 1_555
C1 N2 1_555 1_555
C2 C3 1_555 1_555
N4 N9 1_555 1_555
N5 H4 1_555 1_555
H5 N5 1_555 1_555
C3 C1 1_555 1_555
N6 H6 1_555 1_555
H7 N6 1_555 1_555
N7 C11 1_555 1_555
C4 O3 1_555 1_555
N8 C5 1_555 1_555
N9 C30 1_555 1_555
C5 N6 1_555 1_555
C6 H8 1_555 1_555
N10 Cu1 1_555 1_555
N11 N8 1_555 1_555
C7 C4 1_555 1_555
C8 H9 1_555 1_555
C9 N1 1_555 1_555
C10 N1 1_555 1_555
C11 C7 1_555 1_555
H10 C11 1_555 1_555
C12 H11 1_555 1_555
C13 C10 1_555 1_555
H12 C13 1_555 1_555
C14 C3 1_555 1_555
H13 C14 1_555 1_555
C15 O4 1_555 1_555
C16 C5 1_555 1_555
C17 N3 1_555 1_555
C18 N8 1_555 1_555
C19 C15 1_555 1_555
C20 N4 1_555 1_555
C21 N11 1_555 1_555
H14 C21 1_555 1_555
C22 O5 1_555 1_555
C23 C6 1_555 1_555
H15 C23 1_555 1_555
C24 C23 1_555 1_555
H16 C24 1_555 1_555
N12 H17 1_555 1_555
H18 N12 1_555 1_555
C25 C8 1_555 1_555
H19 C25 1_555 1_555
C26 C20 1_555 1_555
H20 C26 1_555 1_555
C27 C17 1_555 1_555
H21 C27 1_555 1_555
C28 C18 1_555 1_555
H22 C28 1_555 1_555
C29 C13 1_555 1_555
H23 C29 1_555 1_555
C30 C19 1_555 1_555
H24 C30 1_555 1_555
C31 N4 1_555 1_555
C32 C27 1_555 1_555
H25 C32 1_555 1_555
C33 C25 1_555 1_555
H26 C33 1_555 1_555
C34 H27 1_555 1_555
C35 C20 1_555 1_555
H28 C35 1_555 1_555
C36 C26 1_555 1_555
H29 C36 1_555 1_555
C37 C12 1_555 1_555
H30 C37 1_555 1_555
C38 C28 1_555 1_555
H31 C38 1_555 1_555
C39 C37 1_555 1_555
H32 C39 1_555 1_555
C40 O7 1_555 1_555
H33 C40 1_555 1_555
H34 C40 1_555 1_555
H35 C40 1_555 1_555
C41 C34 1_555 1_555
H36 C41 1_555 1_555
O10 H37 1_555 1_555
C42 O10 1_555 1_555
H38 C42 1_555 1_555
H39 C42 1_555 1_555
H40 C42 1_555 1_555
Cu1A O6 1_555 1_555
Cu2A O2 1_555 1_555
O2A Cu2 1_555 1_555
O6A Cu1 1_555 1_555
O8 C15 1_555 1_555
O9 C22 1_555 1_555
N3 N10 1_555 1_555
N5 C9 1_555 1_555
C6 C10 1_555 1_555
N10 C14 1_555 1_555
C7 C9 1_555 1_555
C8 C17 1_555 1_555
C12 C18 1_555 1_555
C16 C21 1_555 1_555
C16 C22 1_555 1_555
C19 C31 1_555 1_555
C24 C29 1_555 1_555
N12 C31 1_555 1_555
C32 C33 1_555 1_555
C34 C36 1_555 1_555
C35 C41 1_555 1_555
C38 C39 1_555 1_555
Cu1A Cu2A 1_555 1_555

#END
