
#######################################################################
#
#                 Cambridge Crystallographic Data Centre
#                                CCDC 
#
#######################################################################
#
# If this CIF has been generated from an entry in the Cambridge 
# Structural Database, then it will include bibliographic, chemical, 
# crystal, experimental, refinement or atomic coordinate data resulting 
# from the CCDC's data processing and validation procedures.
#
#######################################################################

data_YOZPOS
_symmetry_cell_setting           monoclinic
_symmetry_space_group_name_H-M   'P 21/n'
_symmetry_Int_Tables_number      14
_space_group_name_Hall           '-P 2yn'
loop_
_symmetry_equiv_pos_site_id
_symmetry_equiv_pos_as_xyz
1 x,y,z
2 1/2-x,1/2+y,1/2-z
3 -x,-y,-z
4 1/2+x,1/2-y,1/2+z
_cell_length_a                   7.651(1)
_cell_length_b                   25.119(3)
_cell_length_c                   11.050(1)
_cell_angle_alpha                90
_cell_angle_beta                 108.80(1)
_cell_angle_gamma                90
_cell_volume                     2010.35
loop_
_atom_site_label
_atom_site_type_symbol
_atom_site_fract_x
_atom_site_fract_y
_atom_site_fract_z
Cu1 Cu 0.2437(1) 0.1597(1) 0.1002(1)
Cu2 Cu -0.2435(1) 0.0991(1) -0.3590(1)
O1 O 0.2154(4) 0.1929(1) 0.2546(2)
O2 O 0.5083(3) 0.1450(1) 0.1734(2)
O3 O -0.5080(3) 0.1129(1) -0.4345(2)
O4 O -0.2240(3) 0.0481(1) -0.4907(2)
N1 N -0.0277(4) 0.1681(1) -0.0018(3)
C1 C -0.1619(5) 0.1956(1) 0.0250(3)
C2 C -0.3376(5) 0.1983(2) -0.0633(4)
C3 C -0.3705(5) 0.1734(1) -0.1784(3)
N2 N -0.2371(4) 0.1455(1) -0.2063(3)
C4 C -0.0739(4) 0.1449(1) -0.1153(3)
C5 C 0.0742(4) 0.1147(1) -0.1445(3)
N3 N 0.2389(4) 0.1151(1) -0.0558(3)
C6 C 0.3712(5) 0.0864(1) -0.0803(3)
C7 C 0.3343(5) 0.0584(2) -0.1935(4)
C8 C 0.1587(5) 0.0605(2) -0.2800(3)
N4 N 0.0257(4) 0.0890(1) -0.2555(3)
S1 S 0.3052(1) 0.0366(1) 0.2726(1)
O5 O 0.1791(3) 0.0698(1) 0.1728(2)
O6 O 0.2807(4) -0.0200(1) 0.2398(2)
O7 O 0.4986(3) 0.0526(1) 0.2905(2)
O8 O 0.2691(3) 0.0450(1) 0.3967(2)
S2 S 0.2158(1) 0.2857(1) -0.0355(1)
O9 O 0.3088(3) 0.2382(1) 0.0302(3)
O10 O 0.3243(3) 0.3334(1) 0.0217(3)
O11 O 0.0270(4) 0.2912(1) -0.0294(3)
O12 O 0.2081(5) 0.2831(1) -0.1707(3)
H1 H 0.332(3) 0.195(2) 0.320(3)
H2 H 0.143(5) 0.171(2) 0.290(4)
H3 H 0.515(6) 0.115(1) 0.227(3)
H4 H 0.570(6) 0.172(1) 0.232(3)
H5 H -0.522(6) 0.146(1) -0.478(4)
H6 H -0.589(5) 0.090(1) -0.497(3)
H7 H -0.328(4) 0.050(1) -0.568(3)
H8 H -0.236(6) 0.012(1) -0.465(4)
H9 H -0.135 0.213 0.106
H10 H -0.434 0.217 -0.044
H11 H -0.491 0.176 -0.241
H12 H 0.493 0.085 -0.019
H13 H 0.429 0.038 -0.211
H14 H 0.131 0.041 -0.359
O6B O -0.2807(4) 0.0200(1) -0.2398(2)
O10C O -0.1757(3) 0.1666(1) -0.4783(3)
Cu2B Cu 0.2435(1) -0.0991(1) 0.3590(1)
Cu2C Cu 0.2565(1) 0.4009(1) 0.1410(1)
O13 O -0.2942(4) 0.3060(1) -0.8155(3)
H15 H -0.415(3) 0.313(2) -0.872(3)
H16 H -0.325(6) 0.277(2) -0.771(4)
O14 O 0.2067(5) -0.0505(2) -0.0244(4)
H17 H 0.085(3) -0.062(2) -0.074(4)
H18 H 0.180(6) -0.013(1) -0.045(4)
O15 O 0.0044(6) 0.1334(2) 0.3441(4)
H19 H 0.054(6) 0.098(1) 0.360(4)
H20 H 0.081(6) 0.150(2) 0.421(3)
loop_
_geom_bond_atom_site_label_1
_geom_bond_atom_site_label_2
_geom_bond_site_symmetry_1
_geom_bond_site_symmetry_2
Cu1 O1 1_555 1_555
Cu2 O3 1_555 1_555
O1 H1 1_555 1_555
O2 Cu1 1_555 1_555
O3 H5 1_555 1_555
O4 Cu2 1_555 1_555
N1 Cu1 1_555 1_555
C1 N1 1_555 1_555
C2 C1 1_555 1_555
C3 C2 1_555 1_555
N2 Cu2 1_555 1_555
C4 N1 1_555 1_555
C5 C4 1_555 1_555
N3 Cu1 1_555 1_555
C6 N3 1_555 1_555
C7 C6 1_555 1_555
C8 C7 1_555 1_555
N4 Cu2 1_555 1_555
S1 O5 1_555 1_555
O5 Cu1 1_555 1_555
O6 S1 1_555 1_555
O7 S1 1_555 1_555
O8 S1 1_555 1_555
S2 O9 1_555 1_555
O9 Cu1 1_555 1_555
O10 S2 1_555 1_555
O11 S2 1_555 1_555
O12 S2 1_555 1_555
H2 O1 1_555 1_555
H3 O2 1_555 1_555
H4 O2 1_555 1_555
H6 O3 1_555 1_555
H7 O4 1_555 1_555
H8 O4 1_555 1_555
H9 C1 1_555 1_555
H10 C2 1_555 1_555
H11 C3 1_555 1_555
H12 C6 1_555 1_555
H13 C7 1_555 1_555
H14 C8 1_555 1_555
O13 H15 1_555 1_555
H16 O13 1_555 1_555
O14 H17 1_555 1_555
H18 O14 1_555 1_555
O15 H19 1_555 1_555
H20 O15 1_555 1_555
O6B Cu2 1_555 1_555
O10C Cu2 1_555 1_555
Cu2B O6 1_555 1_555
Cu2C O10 1_555 1_555
C3 N2 1_555 1_555
N2 C4 1_555 1_555
C5 N3 1_555 1_555
C5 N4 1_555 1_555
C8 N4 1_555 1_555

#END
