
#######################################################################
#
#                 Cambridge Crystallographic Data Centre
#                                CCDC 
#
#######################################################################
#
# If this CIF has been generated from an entry in the Cambridge 
# Structural Database, then it will include bibliographic, chemical, 
# crystal, experimental, refinement or atomic coordinate data resulting 
# from the CCDC's data processing and validation procedures.
#
#######################################################################

data_YOZQEK
_symmetry_cell_setting           triclinic
_symmetry_space_group_name_H-M   'P -1'
_symmetry_Int_Tables_number      2
_space_group_name_Hall           '-P 1'
loop_
_symmetry_equiv_pos_site_id
_symmetry_equiv_pos_as_xyz
1 x,y,z
2 -x,-y,-z
_cell_length_a                   21.441(4)
_cell_length_b                   23.212(5)
_cell_length_c                   24.646(5)
_cell_angle_alpha                68.10(3)
_cell_angle_beta                 67.49(3)
_cell_angle_gamma                79.99(3)
_cell_volume                     10506.9
loop_
_atom_site_label
_atom_site_type_symbol
_atom_site_fract_x
_atom_site_fract_y
_atom_site_fract_z
Zn1 Zn 0.74203(3) 0.18920(3) 0.22661(3)
Zn2 Zn 1.09323(3) -0.19987(3) -0.19229(3)
Zn3 Zn 0.75922(3) 0.30872(3) 0.09234(3)
Zn4 Zn 0.83055(4) 0.08328(3) 0.27453(3)
Zn5 Zn 0.19742(3) -0.20440(3) 0.67778(3)
Zn6 Zn 0.31898(3) -0.32578(3) 0.76368(3)
S1 S 0.59393(10) -0.14123(10) 0.49061(12)
O1 O 0.39078(19) -0.2821(2) 0.68321(18)
O2 O 0.2973(2) -0.22333(19) 0.68080(18)
C1 C 0.3604(4) -0.2341(3) 0.6575(3)
C2 C 0.4000(3) -0.1864(3) 0.5983(3)
C3 C 0.3678(3) -0.1341(3) 0.5688(3)
H1 H 0.3209 -0.1307 0.5830
C4 C 0.4681(3) -0.1928(3) 0.5772(3)
H2 H 0.4900 -0.2285 0.5960
C5 C 0.4045(3) -0.0875(3) 0.5189(3)
H3 H 0.3820 -0.0525 0.5000
C6 C 0.5049(3) -0.1443(3) 0.5261(3)
C7 C 0.4738(3) -0.0912(3) 0.4960(3)
C8 C 0.5213(3) -0.0460(3) 0.4456(3)
C9 C 0.5083(3) 0.0128(3) 0.4092(3)
H4 H 0.4640 0.0276 0.4140
C10 C 0.5883(3) -0.0664(3) 0.4384(3)
C11 C 0.5608(3) 0.0490(3) 0.3659(3)
H5 H 0.5516 0.0885 0.3410
C12 C 0.6417(3) -0.0315(3) 0.3940(3)
H6 H 0.6858 -0.0474 0.3880
C13 C 0.6282(3) 0.0287(3) 0.3578(3)
C14 C 0.6865(4) 0.0701(4) 0.3105(3)
O3 O 0.7450(2) 0.04483(19) 0.30214(18)
O4 O 0.67204(19) 0.1258(2) 0.28566(18)
O5 O 0.6238(2) -0.1400(3) 0.5324(3)
O6 O 0.6215(3) -0.1854(3) 0.4571(3)
S2 S 0.97677(10) -0.10699(10) -0.49295(9)
O7 O 0.7870(2) 0.1106(2) -0.60782(19)
O8 O 0.8607(2) 0.0455(2) -0.6532(2)
C15 C 0.8293(4) 0.0660(4) -0.6079(4)
C16 C 0.8503(3) 0.0311(3) -0.5514(4)
C17 C 0.8990(3) -0.0163(3) -0.5534(3)
H7 H 0.9184 -0.0287 -0.5883
C18 C 0.8222(4) 0.0489(4) -0.4999(5)
H8 H 0.7894 0.0810 -0.4999
C19 C 0.8407(3) 0.0210(4) -0.4477(3)
H9 H 0.8213 0.0342 -0.4133
C20 C 0.9174(3) -0.0439(3) -0.5026(4)
C21 C 0.8897(3) -0.0278(3) -0.4482(4)
C22 C 0.9223(4) -0.0627(4) -0.4016(4)
C23 C 0.9094(4) -0.0569(4) -0.3456(4)
H10 H 0.8754 -0.0298 -0.3311
C24 C 0.9732(4) -0.1040(3) -0.4215(3)
C25 C 1.0016(3) -0.1332(3) -0.3333(5)
C26 C 1.0471(3) -0.1657(3) -0.2926(5)
C27 C 1.0146(3) -0.1382(3) -0.3888(4)
H11 H 1.0500 -0.1636 -0.4047
C28 C 0.9499(4) -0.0941(4) -0.3094(3)
H12 H 0.9419 -0.0921 -0.2703
O9 O 1.0987(2) -0.18987(19) -0.3229(2)
O10 O 1.0291(2) -0.1678(2) -0.2372(2)
O11 O 1.0416(2) -0.0884(2) -0.5401(2)
O12 O 0.9499(3) -0.1634(2) -0.4837(2)
S3 S 0.54301(9) 0.45108(10) -0.08723(9)
O13 O 0.2675(2) 0.60165(18) -0.10695(19)
O14 O 0.36328(19) 0.60285(18) -0.1873(2)
C29 C 0.3256(4) 0.5828(3) -0.1291(3)
C30 C 0.3600(3) 0.5345(3) -0.0876(3)
C31 C 0.4294(3) 0.5199(3) -0.1101(3)
H13 H 0.4556 0.5388 -0.1516
C32 C 0.3231(3) 0.5067(3) -0.0257(3)
H14 H 0.2772 0.5169 -0.0110
C33 C 0.4576(3) 0.4766(3) -0.0688(3)
C34 C 0.3522(3) 0.4641(3) 0.0151(3)
H15 H 0.3263 0.4460 0.0569
C35 C 0.4204(4) 0.4483(3) -0.0065(3)
C36 C 0.4633(3) 0.4059(3) 0.0274(3)
C37 C 0.4446(3) 0.3697(3) 0.0905(3)
H16 H 0.3996 0.3686 0.1164
C38 C 0.5295(3) 0.4049(3) -0.0078(3)
C39 C 0.4937(4) 0.3354(3) 0.1140(3)
H17 H 0.4806 0.3098 0.1556
C40 C 0.5799(3) 0.3720(3) 0.0166(3)
H18 H 0.6251 0.3735 -0.0089
C41 C 0.5605(3) 0.3377(3) 0.0786(3)
C42 C 0.6110(4) 0.3065(3) 0.1076(4)
O15 O 0.6730(2) 0.31684(19) 0.07222(19)
O16 O 0.59470(19) 0.27154(19) 0.1633(2)
O17 O 0.5878(2) 0.5007(2) -0.1094(2)
O18 O 0.5598(2) 0.4128(3) -0.1242(2)
S4 S 0.87681(8) -0.42789(8) 0.07417(9)
O19 O 0.7514(2) -0.63760(18) 0.24205(17)
O20 O 0.83488(19) -0.7081(2) 0.25653(18)
C43 C 0.8126(4) -0.6543(3) 0.2336(3)
C44 C 0.8633(3) -0.6074(3) 0.1929(3)
C45 C 0.8420(3) -0.5484(3) 0.1620(3)
H19 H 0.7963 -0.5382 0.1690
C46 C 0.9337(3) -0.6203(3) 0.1818(3)
H20 H 0.9481 -0.6591 0.2036
C47 C 0.9815(3) -0.5764(3) 0.1391(3)
H21 H 1.0273 -0.5859 0.1321
C48 C 0.8914(3) -0.5043(3) 0.1200(3)
C49 C 0.9604(3) -0.5191(3) 0.1077(3)
C50 C 1.0029(3) -0.4704(3) 0.0546(3)
C51 C 1.0728(3) -0.4688(3) 0.0259(3)
H22 H 1.0998 -0.5026 0.0401
C52 C 0.9640(3) -0.4172(3) 0.0315(3)
C53 C 1.1018(3) -0.4178(3) -0.0230(3)
H23 H 1.1486 -0.4174 -0.0420
C54 C 0.9922(3) -0.3670(3) -0.0166(3)
H24 H 0.9654 -0.3331 -0.0309
C55 C 1.0627(3) -0.3662(3) -0.0452(3)
C56 C 1.0968(4) -0.3118(3) -0.1002(3)
O21 O 1.05483(19) -0.27350(18) -0.12458(17)
O22 O 1.1576(2) -0.30298(19) -0.11902(18)
O23 O 0.84131(19) -0.42645(18) 0.0345(2)
O24 O 0.8499(2) -0.3886(2) 0.1123(2)
S5 S 0.95201(11) 0.11750(9) -0.10019(9)
O25 O 1.1015(2) -0.04968(19) -0.2119(2)
O26 O 1.0638(2) -0.1427(2) -0.14298(19)
C57 C 1.0643(3) -0.0836(4) -0.1588(3)
C58 C 1.0211(3) -0.0528(3) -0.1156(3)
C59 C 0.9839(3) -0.0874(3) -0.0524(3)
H25 H 0.9880 -0.1305 -0.0398
C60 C 1.0128(3) 0.0109(3) -0.1327(3)
H26 H 1.0356 0.0358 -0.1733
C61 C 0.9448(3) -0.0622(3) -0.0115(4)
H27 H 0.9229 -0.0872 0.0293
C62 C 0.9710(3) 0.0373(3) -0.0900(3)
C63 C 0.9354(3) 0.0020(3) -0.0283(3)
C64 C 0.8951(3) 0.0382(3) 0.0115(3)
C65 C 0.8540(3) 0.0202(3) 0.0744(3)
H28 H 0.8470 -0.0217 0.0973
C66 C 0.8985(3) 0.1045(3) -0.0218(3)
C67 C 0.8677(3) 0.1458(3) 0.0064(3)
H29 H 0.8717 0.1881 -0.0162
C68 C 0.8245(3) 0.0631(3) 0.1022(3)
H30 H 0.7999 0.0500 0.1448
C69 C 0.8298(3) 0.1263(3) 0.0691(3)
C70 C 0.7971(3) 0.1684(4) 0.1041(4)
O27 O 0.7721(2) 0.1480(2) 0.1634(2)
O28 O 0.7970(2) 0.2274(2) 0.0719(2)
O29 O 1.0109(3) 0.1484(2) -0.1125(2)
O30 O 0.9143(2) 0.1438(2) -0.1419(2)
O31 O 0.81952(18) 0.17319(16) 0.25085(16)
O32 O 0.70355(17) 0.26915(17) 0.18865(16)
O33 O 0.8068(2) 0.35358(19) -0.00305(17)
O34 O 0.2280(2) -0.2343(2) 0.6033(2)
Zn2A Zn 0.90677(3) 0.19987(3) 0.19229(3)
Zn3A Zn 0.24078(3) 0.69128(3) -0.09234(3)
Zn3A_2 Zn 1.24078(3) -0.30872(3) -0.09234(3)
Zn4_2 Zn 0.83055(4) 0.08328(3) -0.72547(3)
Zn4A Zn 1.16945(4) -0.08328(3) -0.27453(3)
Zn5A Zn 0.80258(3) 0.20440(3) -0.67778(3)
Zn5_2 Zn 1.19742(3) -0.20440(3) -0.32222(3)
Zn5A_2 Zn 0.80258(3) -0.79560(3) 0.32222(3)
Zn5A_3 Zn 0.80258(3) 0.20440(3) 0.32222(3)
Zn6_2 Zn 0.31898(3) 0.67422(3) -0.23632(3)
Zn6A Zn 0.68102(3) -0.67422(3) 0.23632(3)
Zn6A_2 Zn 0.68102(3) 0.32578(3) 0.23632(3)
O7A O 0.2130(2) -0.1106(2) 0.60782(19)
O8_2 O 0.8607(2) 0.0455(2) 0.3468(2)
O9_2 O 0.0987(2) -0.18987(19) 0.6771(2)
O13A O 0.7325(2) 0.39835(18) 0.10695(19)
O14_2 O 0.36328(19) -0.39715(18) 0.8127(2)
O19A O 0.2486(2) -0.36240(18) 0.75795(17)
O20A O 0.16512(19) -0.2919(2) 0.74347(18)
O22A O 0.8424(2) 0.30298(19) 0.11902(18)
O25A O 0.8985(2) 0.04968(19) 0.2119(2)
O31A O 1.18048(18) -0.17319(16) -0.25085(16)
O31A_2 O 0.18048(18) -0.17319(16) 0.74915(16)
O32A O 0.29645(17) -0.26915(17) 0.81135(16)
loop_
_geom_bond_atom_site_label_1
_geom_bond_atom_site_label_2
_geom_bond_site_symmetry_1
_geom_bond_site_symmetry_2
Zn1 O4 1_555 1_555
Zn2 O10 1_555 1_555
Zn3 O15 1_555 1_555
Zn4 O3 1_555 1_555
Zn5 O2 1_555 1_555
Zn6 O1 1_555 1_555
S1 C6 1_555 1_555
O1 C1 1_555 1_555
O2 C1 1_555 1_555
C1 C2 1_555 1_555
C2 C3 1_555 1_555
C3 H1 1_555 1_555
C4 C2 1_555 1_555
H2 C4 1_555 1_555
C5 C3 1_555 1_555
H3 C5 1_555 1_555
C6 C4 1_555 1_555
C7 C5 1_555 1_555
C8 C7 1_555 1_555
C9 C8 1_555 1_555
H4 C9 1_555 1_555
C10 S1 1_555 1_555
C11 C9 1_555 1_555
H5 C11 1_555 1_555
C12 C10 1_555 1_555
H6 C12 1_555 1_555
C13 C11 1_555 1_555
C14 C13 1_555 1_555
O3 C14 1_555 1_555
O4 C14 1_555 1_555
O5 S1 1_555 1_555
O6 S1 1_555 1_555
S2 C20 1_555 1_555
O7 C15 1_555 1_555
O8 C15 1_555 1_555
C15 C16 1_555 1_555
C16 C17 1_555 1_555
C17 H7 1_555 1_555
C18 C16 1_555 1_555
H8 C18 1_555 1_555
C19 C18 1_555 1_555
H9 C19 1_555 1_555
C20 C17 1_555 1_555
C21 C19 1_555 1_555
C22 C21 1_555 1_555
C23 C22 1_555 1_555
H10 C23 1_555 1_555
C24 S2 1_555 1_555
C25 C26 1_555 1_555
C26 O9 1_555 1_555
C27 C24 1_555 1_555
H11 C27 1_555 1_555
C28 C23 1_555 1_555
H12 C28 1_555 1_555
O9 Zn5_2 1_555 1_555
O10 C26 1_555 1_555
O11 S2 1_555 1_555
O12 S2 1_555 1_555
S3 C33 1_555 1_555
O13 C29 1_555 1_555
O14 C29 1_555 1_555
C29 C30 1_555 1_555
C30 C31 1_555 1_555
C31 H13 1_555 1_555
C32 C30 1_555 1_555
H14 C32 1_555 1_555
C33 C31 1_555 1_555
C34 C32 1_555 1_555
H15 C34 1_555 1_555
C35 C33 1_555 1_555
C36 C35 1_555 1_555
C37 C36 1_555 1_555
H16 C37 1_555 1_555
C38 S3 1_555 1_555
C39 C37 1_555 1_555
H17 C39 1_555 1_555
C40 C38 1_555 1_555
H18 C40 1_555 1_555
C41 C39 1_555 1_555
C42 C41 1_555 1_555
O15 C42 1_555 1_555
O16 C42 1_555 1_555
O17 S3 1_555 1_555
O18 S3 1_555 1_555
S4 C48 1_555 1_555
O19 C43 1_555 1_555
O20 C43 1_555 1_555
C43 C44 1_555 1_555
C44 C45 1_555 1_555
C45 H19 1_555 1_555
C46 C44 1_555 1_555
H20 C46 1_555 1_555
C47 C46 1_555 1_555
H21 C47 1_555 1_555
C48 C45 1_555 1_555
C49 C47 1_555 1_555
C50 C49 1_555 1_555
C51 C50 1_555 1_555
H22 C51 1_555 1_555
C52 S4 1_555 1_555
C53 C51 1_555 1_555
H23 C53 1_555 1_555
C54 C52 1_555 1_555
H24 C54 1_555 1_555
C55 C53 1_555 1_555
C56 C55 1_555 1_555
O21 Zn2 1_555 1_555
O22 C56 1_555 1_555
O23 S4 1_555 1_555
O24 S4 1_555 1_555
S5 C62 1_555 1_555
O25 C57 1_555 1_555
O26 Zn2 1_555 1_555
C57 O26 1_555 1_555
C58 C57 1_555 1_555
C59 C58 1_555 1_555
H25 C59 1_555 1_555
C60 C58 1_555 1_555
H26 C60 1_555 1_555
C61 C59 1_555 1_555
H27 C61 1_555 1_555
C62 C60 1_555 1_555
C63 C61 1_555 1_555
C64 C63 1_555 1_555
C65 C64 1_555 1_555
H28 C65 1_555 1_555
C66 S5 1_555 1_555
C67 C66 1_555 1_555
H29 C67 1_555 1_555
C68 C65 1_555 1_555
H30 C68 1_555 1_555
C69 C67 1_555 1_555
C70 C69 1_555 1_555
O27 Zn1 1_555 1_555
O28 Zn3 1_555 1_555
O29 S5 1_555 1_555
O30 S5 1_555 1_555
O31 Zn1 1_555 1_555
O32 Zn1 1_555 1_555
O33 Zn3 1_555 1_555
O34 Zn5 1_555 1_555
Zn2A O31 1_555 1_555
Zn3A O13 1_555 1_555
Zn3A_2 O22 1_555 1_555
Zn4_2 O8 1_555 1_555
Zn4A O25 1_555 1_555
Zn5A O7 1_555 1_555
Zn5_2 O31A 1_555 1_555
Zn5A_2 O20 1_555 1_555
Zn5A_3 O31 1_555 1_555
Zn6_2 O14 1_555 1_555
Zn6A O19 1_555 1_555
Zn6A_2 O32 1_555 1_555
O7A Zn5 1_555 1_555
O8_2 Zn4 1_555 1_555
O9_2 Zn5 1_555 1_555
O13A Zn3 1_555 1_555
O14_2 Zn6 1_555 1_555
O19A Zn6 1_555 1_555
O20A Zn5 1_555 1_555
O22A Zn3 1_555 1_555
O25A Zn4 1_555 1_555
O31A Zn2 1_555 1_555
O31A_2 Zn5 1_555 1_555
O32A Zn6 1_555 1_555
Zn3 O32 1_555 1_555
Zn4 O31 1_555 1_555
C6 C7 1_555 1_555
C8 C10 1_555 1_555
C12 C13 1_555 1_555
C20 C21 1_555 1_555
C22 C24 1_555 1_555
C25 C27 1_555 1_555
C25 C28 1_555 1_555
C34 C35 1_555 1_555
C36 C38 1_555 1_555
C40 C41 1_555 1_555
C48 C49 1_555 1_555
C50 C52 1_555 1_555
C54 C55 1_555 1_555
C56 O21 1_555 1_555
C62 C63 1_555 1_555
C64 C66 1_555 1_555
C68 C69 1_555 1_555
C70 O27 1_555 1_555
C70 O28 1_555 1_555
Zn4A O31A 1_555 1_555

#END
