
#######################################################################
#
#                 Cambridge Crystallographic Data Centre
#                                CCDC 
#
#######################################################################
#
# If this CIF has been generated from an entry in the Cambridge 
# Structural Database, then it will include bibliographic, chemical, 
# crystal, experimental, refinement or atomic coordinate data resulting 
# from the CCDC's data processing and validation procedures.
#
#######################################################################

data_YOZQAG
_symmetry_cell_setting           rhombohedral
_symmetry_space_group_name_H-M   'R -3'
_symmetry_Int_Tables_number      148
_space_group_name_Hall           '-R 3'
loop_
_symmetry_equiv_pos_site_id
_symmetry_equiv_pos_as_xyz
1 x,y,z
2 -y,x-y,z
3 -x+y,-x,z
4 2/3+x,1/3+y,1/3+z
5 2/3-y,1/3+x-y,1/3+z
6 2/3-x+y,1/3-x,1/3+z
7 1/3+x,2/3+y,2/3+z
8 1/3-y,2/3+x-y,2/3+z
9 1/3-x+y,2/3-x,2/3+z
10 -x,-y,-z
11 y,-x+y,-z
12 x-y,x,-z
13 1/3-x,2/3-y,2/3-z
14 1/3+y,2/3-x+y,2/3-z
15 1/3+x-y,2/3+x,2/3-z
16 2/3-x,1/3-y,1/3-z
17 2/3+y,1/3-x+y,1/3-z
18 2/3+x-y,1/3+x,1/3-z
_cell_length_a                   23.078(3)
_cell_length_b                   23.078(3)
_cell_length_c                   71.754(14)
_cell_angle_alpha                90
_cell_angle_beta                 90
_cell_angle_gamma                120
_cell_volume                     33095.8
loop_
_atom_site_label
_atom_site_type_symbol
_atom_site_fract_x
_atom_site_fract_y
_atom_site_fract_z
Zn1 Zn 0.6667 0.3333 0.06818(2)
Zn2 Zn 1.17270(5) 0.59803(5) -0.092700(13)
Zn3 Zn 1.22673(5) 0.72621(6) -0.070710(14)
C1 C 0.9981(5) 0.8676(5) -0.21290(13)
C2 C 1.0281(5) 0.8510(4) -0.19692(12)
C3 C 1.0067(5) 0.7854(5) -0.19148(14)
H1 H 0.9754 0.7494 -0.1984
C4 C 1.0758(5) 0.9032(5) -0.18626(12)
H2 H 1.0901 0.9470 -0.1899
C5 C 1.0338(4) 0.7754(4) -0.17522(13)
C6 C 1.1026(5) 0.8918(4) -0.17048(13)
H3 H 1.1361 0.9277 -0.1639
C7 C 1.0802(4) 0.8285(5) -0.16452(12)
C8 C 1.1008(5) 0.8041(5) -0.14843(14)
C9 C 1.0708(4) 0.7352(5) -0.14707(14)
C10 C 1.1472(5) 0.8433(4) -0.13466(13)
H4 H 1.1688 0.8898 -0.1353
C11 C 1.1603(5) 0.8121(5) -0.12027(14)
H5 H 1.1881 0.8378 -0.1106
C12 C 1.0878(4) 0.7048(5) -0.13305(15)
H6 H 1.0684 0.6585 -0.1327
C13 C 1.1331(4) 0.7434(5) -0.11994(13)
C14 C 1.1547(4) 0.7118(6) -0.10561(14)
O1 O 1.1375(3) 0.6512(3) -0.10702(8)
O2 O 1.1917(3) 0.7509(3) -0.09265(9)
O3 O 0.9552(3) 0.8185(3) -0.22260(10)
O4 O 1.0143(3) 0.9267(3) -0.21625(7)
S1 S 1.01747(15) 0.69821(14) -0.16628(5)
O5 O 0.9497(3) 0.6606(4) -0.16033(13)
O6 O 1.0427(4) 0.6667(4) -0.17865(11)
C15 C 1.1026(4) 0.5990(5) -0.06022(12)
C16 C 1.0470(4) 0.5667(5) -0.04600(12)
C17 C 1.0120(5) 0.4974(5) -0.04469(12)
H7 H 1.0216 0.4726 -0.0530
C18 C 1.0333(4) 0.6047(5) -0.03415(13)
H8 H 1.0565 0.6511 -0.0350
C19 C 0.9626(5) 0.4640(5) -0.03118(14)
H9 H 0.9396 0.4176 -0.0302
C20 C 0.9848(5) 0.5730(5) -0.02105(13)
C21 C 0.9493(5) 0.5036(5) -0.01918(13)
C22 C 0.9010(6) 0.4797(5) -0.00342(13)
C23 C 0.9016(5) 0.5324(6) 0.00617(16)
C24 C 0.8589(5) 0.4156(5) 0.00301(14)
H10 H 0.8580 0.3794 -0.0030
C25 C 0.8608(6) 0.5237(5) 0.02126(14)
H11 H 0.8614 0.5598 0.0272
C26 C 0.8189(6) 0.4052(6) 0.01808(15)
H12 H 0.7911 0.3618 0.0223
C27 C 0.8190(7) 0.4581(6) 0.02709(15)
C28 C 0.7748(7) 0.4457(6) 0.04396(16)
O7 O 0.7471(4) 0.3891(3) 0.05069(9)
O8 O 0.7695(5) 0.4947(6) 0.04933(15)
O9 O 1.1082(3) 0.5623(3) -0.07205(8)
O10 O 1.1390(3) 0.6610(3) -0.05881(8)
S2 S 0.9597(2) 0.61086(17) -0.00400(5)
O11 O 1.0135(5) 0.6487(4) 0.00880(12)
O12 O 0.9280(5) 0.6434(4) -0.01230(13)
O14 O 0.7404(2) 0.3284(2) 0.08436(6)
Zn2A Zn 0.40197(5) 0.57467(7) -0.092700(13)
Zn2B Zn 0.42533(7) -0.17270(5) -0.092700(13)
Zn2N Zn 0.90800(7) 0.83937(5) -0.240633(13)
Zn2I Zn 0.82730(5) 0.40197(5) 0.092700(13)
Zn2J Zn 0.59803(5) 0.42533(7) 0.092700(13)
Zn2K Zn 0.57467(7) 0.17270(5) 0.092700(13)
Zn2M Zn 0.93136(5) 0.09200(7) -0.240633(13)
Zn2L Zn 0.16063(5) 0.06864(5) -0.240633(13)
Zn3A Zn 0.27379(6) 0.50052(8) -0.070710(14)
Zn3B Zn 0.49948(8) -0.22673(5) -0.070710(14)
Zn3J Zn 0.72621(6) 0.49948(8) 0.070710(14)
Zn3I Zn 0.77327(5) 0.27379(6) 0.070710(14)
Zn3K Zn 0.50052(8) 0.22673(5) 0.070710(14)
Zn3M Zn 1.05954(6) 0.16615(8) -0.262623(14)
C1M C 1.2009(5) 0.5362(7) -0.12043(13)
C1A C 0.1324(5) 0.1305(7) -0.21290(13)
C2M C 1.1843(4) 0.4896(6) -0.13641(12)
C2A C 0.1490(4) 0.1771(6) -0.19692(12)
C3M C 1.1187(5) 0.4454(7) -0.14185(14)
C3A C 0.2146(5) 0.2213(7) -0.19148(14)
H1M H 1.0827 0.4407 -0.1349
H1A H 0.2506 0.2260 -0.1984
C4M C 1.2365(5) 0.4941(7) -0.14707(12)
C4A C 0.0968(5) 0.1726(7) -0.18626(12)
H2M H 1.2803 0.5236 -0.1434
H2A H 0.0530 0.1431 -0.1899
C5M C 1.1087(4) 0.4083(6) -0.15811(13)
C5A C 0.2246(4) 0.2584(6) -0.17522(13)
C6M C 1.2251(4) 0.4559(6) -0.16285(13)
C6A C 0.1082(4) 0.2108(6) -0.17048(13)
H3M H 1.2610 0.4583 -0.1694
H3A H 0.0723 0.2084 -0.1639
C7M C 1.1618(5) 0.4150(6) -0.16881(12)
C7A C 0.1715(5) 0.2517(6) -0.16452(12)
C8M C 1.1374(5) 0.3700(7) -0.18490(14)
C8A C 0.1959(5) 0.2967(7) -0.14843(14)
C9M C 1.0685(5) 0.3311(6) -0.18626(14)
C9A C 0.2648(5) 0.3356(6) -0.14707(14)
C10M C 1.1766(4) 0.3628(6) -0.19867(13)
C10A C 0.1567(4) 0.3039(6) -0.13466(13)
H4M H 1.2231 0.3877 -0.1980
H4A H 0.1102 0.2790 -0.1353
C11M C 1.1454(5) 0.3185(7) -0.21306(14)
C11A C 0.1879(5) 0.3482(7) -0.12027(14)
H5M H 1.1711 0.3164 -0.2227
H5A H 0.1622 0.3503 -0.1106
C12M C 1.0381(5) 0.2837(6) -0.20028(15)
C12A C 0.2952(5) 0.3830(6) -0.13305(15)
H6M H 0.9918 0.2568 -0.2006
H6A H 0.3415 0.4099 -0.1327
C13M C 1.0767(5) 0.2770(6) -0.21339(13)
C13A C 0.2566(5) 0.3897(6) -0.11994(13)
C14M C 1.0451(6) 0.2238(7) -0.22772(14)
C14A C 0.2882(6) 0.4429(7) -0.10561(14)
O1M O 0.9845(3) 0.1804(4) -0.22631(8)
O1A O 0.3488(3) 0.4863(4) -0.10702(8)
O1B O 0.5137(4) -0.1375(3) -0.10702(8)
O2M O 1.0842(3) 0.2259(4) -0.24068(9)
O2A O 0.2491(3) 0.4408(4) -0.09265(9)
O2B O 0.5592(4) -0.1917(3) -0.09265(9)
O3M O 1.1518(3) 0.5300(4) -0.11073(10)
O3A O 0.1815(3) 0.1367(4) -0.22260(10)
O3N O 0.4700(4) 0.6219(3) -0.11073(10)
O3L O 0.3781(3) -0.1518(3) -0.11073(10)
O4M O 1.2600(3) 0.5791(4) -0.11708(7)
O4A O 0.0733(3) 0.0876(4) -0.21625(7)
S1M S 1.03154(14) 0.34741(21) -0.16705(5)
S1A S 0.30179(14) 0.31926(21) -0.16628(5)
O5M O 0.9939(4) 0.3776(5) -0.17300(13)
O5A O 0.3394(4) 0.2891(5) -0.16033(13)
O6M O 1.0000(4) 0.2907(6) -0.15468(11)
O6A O 0.3333(4) 0.3760(6) -0.17865(11)
C15A C 0.4010(5) 0.5036(6) -0.06022(12)
C15B C 0.4964(6) -0.1026(4) -0.06022(12)
C16A C 0.4333(5) 0.4803(6) -0.04600(12)
C16B C 0.5197(6) -0.0470(4) -0.04600(12)
C17A C 0.5026(5) 0.5146(7) -0.04469(12)
C17B C 0.4854(7) -0.0120(5) -0.04469(12)
H7A H 0.5274 0.5490 -0.0530
H7B H 0.4510 -0.0216 -0.0530
C18A C 0.3953(5) 0.4286(6) -0.03415(13)
C18B C 0.5714(6) -0.0333(4) -0.03415(13)
H8A H 0.3489 0.4054 -0.0350
H8B H 0.5946 -0.0565 -0.0350
C19A C 0.5360(5) 0.4986(7) -0.03118(14)
C19B C 0.5014(7) 0.0374(5) -0.03118(14)
H9A H 0.5824 0.5220 -0.0302
H9B H 0.4780 0.0604 -0.0302
C20A C 0.4270(5) 0.4118(7) -0.02105(13)
C20B C 0.5882(7) 0.0152(5) -0.02105(13)
C21A C 0.4964(5) 0.4457(7) -0.01918(13)
C21B C 0.5543(7) 0.0507(5) -0.01918(13)
C22A C 0.5203(5) 0.4213(8) -0.00342(13)
C22B C 0.5787(8) 0.0990(6) -0.00342(13)
C23A C 0.4676(6) 0.3692(8) 0.00617(16)
C23B C 0.6308(8) 0.0984(5) 0.00617(16)
C24A C 0.5844(5) 0.4433(7) 0.00301(14)
C24B C 0.5567(7) 0.1411(5) 0.00301(14)
H10A H 0.6206 0.4786 -0.0030
H10B H 0.5214 0.1420 -0.0030
C25A C 0.4763(5) 0.3371(8) 0.02126(14)
C25B C 0.6629(8) 0.1392(6) 0.02126(14)
H11A H 0.4402 0.3016 0.0272
H11B H 0.6984 0.1386 0.0272
C26A C 0.5948(6) 0.4137(8) 0.01808(15)
C26B C 0.5863(8) 0.1811(6) 0.01808(15)
H12A H 0.6382 0.4293 0.0223
H12B H 0.5707 0.2089 0.0223
C27A C 0.5419(6) 0.3609(9) 0.02709(15)
C27B C 0.6391(9) 0.1810(7) 0.02709(15)
C28A C 0.5543(6) 0.3291(9) 0.04396(16)
C28B C 0.6709(9) 0.2252(7) 0.04396(16)
O7A O 0.6109(3) 0.3580(5) 0.05069(9)
O7B O 0.6420(5) 0.2529(4) 0.05069(9)
O8A O 0.5053(6) 0.2748(8) 0.04933(15)
O8B O 0.7252(8) 0.2305(5) 0.04933(15)
O8K O 1.2748(8) 0.7695(5) -0.04933(15)
O8I O 0.2305(5) 0.5053(6) -0.04933(15)
O8J O 0.4947(6) -0.2748(8) -0.04933(15)
O9A O 0.4377(3) 0.5459(4) -0.07205(8)
O9B O 0.4541(4) -0.1082(3) -0.07205(8)
O10A O 0.3390(3) 0.4780(4) -0.05881(8)
O10B O 0.5220(4) -0.1390(3) -0.05881(8)
S2A S 0.38914(17) 0.34884(26) -0.00400(5)
S2B S 0.65116(26) 0.0403(2) -0.00400(5)
O11A O 0.3513(4) 0.3648(6) 0.00880(12)
O11B O 0.6352(6) -0.0135(5) 0.00880(12)
O12A O 0.3566(4) 0.2846(6) -0.01230(13)
O12B O 0.7154(6) 0.0720(5) -0.01230(13)
O14A O 0.6716(2) 0.4120(3) 0.08436(6)
O14B O 0.5880(3) 0.2596(2) 0.08436(6)
O14I O 1.2596(2) 0.6716(2) -0.08436(6)
O14J O 0.3284(2) 0.5880(3) -0.08436(6)
O14K O 0.4120(3) -0.2596(2) -0.08436(6)
C29 C 0.7676(9) -0.1007(9) 0.1672(4)
H13 H 0.7256 -0.1238 0.1608
H14 H 0.7775 -0.0562 0.1702
H15 H 0.7652 -0.1243 0.1784
C30 C 0.7977(13) -0.1333(10) 0.1377(3)
H16 H 0.7504 -0.1513 0.1363
H17 H 0.8076 -0.1691 0.1376
H18 H 0.8209 -0.1030 0.1277
C31 C 0.8839(8) -0.0677(7) 0.1608(2)
H19 H 0.9148 -0.0681 0.1525
O13 O 0.9045(4) -0.0397(4) 0.17596(12)
N1 N 0.8196(9) -0.0976(6) 0.1554(2)
O15 O 1.0000 0.0000 0.19509(8)
loop_
_geom_bond_atom_site_label_1
_geom_bond_atom_site_label_2
_geom_bond_site_symmetry_1
_geom_bond_site_symmetry_2
Zn1 O7 1_555 1_555
Zn2 O1 1_555 1_555
Zn3 O2 1_555 1_555
C1 C2 1_555 1_555
C2 C3 1_555 1_555
C3 H1 1_555 1_555
C4 C2 1_555 1_555
H2 C4 1_555 1_555
C5 C3 1_555 1_555
C6 C4 1_555 1_555
H3 C6 1_555 1_555
C7 C5 1_555 1_555
C8 C7 1_555 1_555
C9 C8 1_555 1_555
C10 C8 1_555 1_555
H4 C10 1_555 1_555
C11 C10 1_555 1_555
H5 C11 1_555 1_555
C12 C9 1_555 1_555
H6 C12 1_555 1_555
C13 C11 1_555 1_555
C14 C13 1_555 1_555
O1 C14 1_555 1_555
O2 C14 1_555 1_555
O3 C1 1_555 1_555
O4 C1 1_555 1_555
S1 C5 1_555 1_555
O5 S1 1_555 1_555
O6 S1 1_555 1_555
C15 C16 1_555 1_555
C16 C17 1_555 1_555
C17 H7 1_555 1_555
C18 C16 1_555 1_555
H8 C18 1_555 1_555
C19 C17 1_555 1_555
H9 C19 1_555 1_555
C20 C18 1_555 1_555
C21 C19 1_555 1_555
C22 C21 1_555 1_555
C23 C22 1_555 1_555
C24 C22 1_555 1_555
H10 C24 1_555 1_555
C25 C23 1_555 1_555
H11 C25 1_555 1_555
C26 C24 1_555 1_555
H12 C26 1_555 1_555
C27 C25 1_555 1_555
C28 C27 1_555 1_555
O7 C28 1_555 1_555
O8 C28 1_555 1_555
O9 Zn2 1_555 1_555
O10 Zn3 1_555 1_555
S2 C20 1_555 1_555
O11 S2 1_555 1_555
O12 S2 1_555 1_555
C29 H13 1_555 1_555
H14 C29 1_555 1_555
H15 C29 1_555 1_555
C30 H16 1_555 1_555
H17 C30 1_555 1_555
H18 C30 1_555 1_555
C31 H19 1_555 1_555
O13 C31 1_555 1_555
N1 C29 1_555 1_555
O14 Zn1 1_555 1_555
Zn2A O1A 1_555 1_555
Zn2B O1B 1_555 1_555
Zn2N O3 1_555 1_555
Zn2I O14 1_555 1_555
Zn2J O14A 1_555 1_555
Zn2K O14B 1_555 1_555
Zn2M O1M 1_555 1_555
Zn2L O3A 1_555 1_555
Zn3A O2A 1_555 1_555
Zn3B O2B 1_555 1_555
Zn3J O8 1_555 1_555
Zn3I O14 1_555 1_555
Zn3K O8A 1_555 1_555
Zn3M O2M 1_555 1_555
C1M C2M 1_555 1_555
C1A C2A 1_555 1_555
C2M C3M 1_555 1_555
C2A C3A 1_555 1_555
C3M H1M 1_555 1_555
C3A H1A 1_555 1_555
C4M C2M 1_555 1_555
C4A C2A 1_555 1_555
H2M C4M 1_555 1_555
H2A C4A 1_555 1_555
C5M C3M 1_555 1_555
C5A C3A 1_555 1_555
C6M C4M 1_555 1_555
C6A C4A 1_555 1_555
H3M C6M 1_555 1_555
H3A C6A 1_555 1_555
C7M C5M 1_555 1_555
C7A C5A 1_555 1_555
C8M C7M 1_555 1_555
C8A C7A 1_555 1_555
C9M C8M 1_555 1_555
C9A C8A 1_555 1_555
C10M C8M 1_555 1_555
C10A C8A 1_555 1_555
H4M C10M 1_555 1_555
H4A C10A 1_555 1_555
C11M C10M 1_555 1_555
C11A C10A 1_555 1_555
H5M C11M 1_555 1_555
H5A C11A 1_555 1_555
C12M C9M 1_555 1_555
C12A C9A 1_555 1_555
H6M C12M 1_555 1_555
H6A C12A 1_555 1_555
C13M C11M 1_555 1_555
C13A C11A 1_555 1_555
C14M C13M 1_555 1_555
C14A C13A 1_555 1_555
O1M C14M 1_555 1_555
O1A C14A 1_555 1_555
O2M C14M 1_555 1_555
O2A C14A 1_555 1_555
O3M Zn2 1_555 1_555
O3A C1A 1_555 1_555
O3N Zn2A 1_555 1_555
O3L Zn2B 1_555 1_555
O4M C1M 1_555 1_555
O4A C1A 1_555 1_555
S1M C5M 1_555 1_555
S1A C5A 1_555 1_555
O5M S1M 1_555 1_555
O5A S1A 1_555 1_555
O6M S1M 1_555 1_555
O6A S1A 1_555 1_555
C15A C16A 1_555 1_555
C15B C16B 1_555 1_555
C16A C17A 1_555 1_555
C16B C17B 1_555 1_555
C17A H7A 1_555 1_555
C17B H7B 1_555 1_555
C18A C16A 1_555 1_555
C18B C16B 1_555 1_555
H8A C18A 1_555 1_555
H8B C18B 1_555 1_555
C19A C17A 1_555 1_555
C19B C17B 1_555 1_555
H9A C19A 1_555 1_555
H9B C19B 1_555 1_555
C20A C18A 1_555 1_555
C20B C18B 1_555 1_555
C21A C19A 1_555 1_555
C21B C19B 1_555 1_555
C22A C21A 1_555 1_555
C22B C21B 1_555 1_555
C23A C22A 1_555 1_555
C23B C22B 1_555 1_555
C24A C22A 1_555 1_555
C24B C22B 1_555 1_555
H10A C24A 1_555 1_555
H10B C24B 1_555 1_555
C25A C23A 1_555 1_555
C25B C23B 1_555 1_555
H11A C25A 1_555 1_555
H11B C25B 1_555 1_555
C26A C24A 1_555 1_555
C26B C24B 1_555 1_555
H12A C26A 1_555 1_555
H12B C26B 1_555 1_555
C27A C25A 1_555 1_555
C27B C25B 1_555 1_555
C28A C27A 1_555 1_555
C28B C27B 1_555 1_555
O7A Zn1 1_555 1_555
O7B Zn1 1_555 1_555
O8A C28A 1_555 1_555
O8B Zn3I 1_555 1_555
O8K Zn3 1_555 1_555
O8I Zn3A 1_555 1_555
O8J Zn3B 1_555 1_555
O9A Zn2A 1_555 1_555
O9B Zn2B 1_555 1_555
O10A Zn3A 1_555 1_555
O10B Zn3B 1_555 1_555
S2A C20A 1_555 1_555
S2B C20B 1_555 1_555
O11A S2A 1_555 1_555
O11B S2B 1_555 1_555
O12A S2A 1_555 1_555
O12B S2B 1_555 1_555
O14A Zn1 1_555 1_555
O14B Zn1 1_555 1_555
O14I Zn2 1_555 1_555
O14J Zn2A 1_555 1_555
O14K Zn2B 1_555 1_555
Zn3 O14I 1_555 1_555
C6 C7 1_555 1_555
C9 S1 1_555 1_555
C12 C13 1_555 1_555
C15 O9 1_555 1_555
C15 O10 1_555 1_555
C20 C21 1_555 1_555
C23 S2 1_555 1_555
C26 C27 1_555 1_555
C30 N1 1_555 1_555
C31 N1 1_555 1_555
Zn3A O14J 1_555 1_555
Zn3B O14K 1_555 1_555
Zn3J O14A 1_555 1_555
Zn3K O14B 1_555 1_555
C1M O3M 1_555 1_555
C6M C7M 1_555 1_555
C6A C7A 1_555 1_555
C9M S1M 1_555 1_555
C9A S1A 1_555 1_555
C12M C13M 1_555 1_555
C12A C13A 1_555 1_555
C15A O9A 1_555 1_555
C15A O10A 1_555 1_555
C15B O9B 1_555 1_555
C15B O10B 1_555 1_555
C20A C21A 1_555 1_555
C20B C21B 1_555 1_555
C23A S2A 1_555 1_555
C23B S2B 1_555 1_555
C26A C27A 1_555 1_555
C26B C27B 1_555 1_555
C28A O7A 1_555 1_555
C28B O7B 1_555 1_555
C28B O8B 1_555 1_555

#END
