
#######################################################################
#
#                 Cambridge Crystallographic Data Centre
#                                CCDC 
#
#######################################################################
#
# If this CIF has been generated from an entry in the Cambridge 
# Structural Database, then it will include bibliographic, chemical, 
# crystal, experimental, refinement or atomic coordinate data resulting 
# from the CCDC's data processing and validation procedures.
#
#######################################################################

data_YOZREM
_symmetry_cell_setting           rhombohedral
_symmetry_space_group_name_H-M   'R 3 c'
_symmetry_Int_Tables_number      161
_space_group_name_Hall           'R 3 -2"c'
loop_
_symmetry_equiv_pos_site_id
_symmetry_equiv_pos_as_xyz
1 x,y,z
2 1/3+x,2/3+y,2/3+z
3 2/3+x,1/3+y,1/3+z
4 -y,x-y,z
5 -y,-x,1/2+z
6 -x+y,-x,z
7 x,x-y,1/2+z
8 -x+y,y,1/2+z
9 1/3-y,2/3+x-y,2/3+z
10 1/3-y,2/3-x,1/6+z
11 1/3-x+y,2/3-x,2/3+z
12 1/3+x,2/3+x-y,1/6+z
13 1/3-x+y,2/3+y,1/6+z
14 2/3-y,1/3+x-y,1/3+z
15 2/3-y,1/3-x,5/6+z
16 2/3-x+y,1/3-x,1/3+z
17 2/3+x,1/3+x-y,5/6+z
18 2/3-x+y,1/3+y,5/6+z
_cell_length_a                   11.8620
_cell_length_b                   11.8620
_cell_length_c                   12.6980
_cell_angle_alpha                90
_cell_angle_beta                 90
_cell_angle_gamma                120
_cell_volume                     1547.33
loop_
_atom_site_label
_atom_site_type_symbol
_atom_site_fract_x
_atom_site_fract_y
_atom_site_fract_z
Sr1 Sr 0.6714(1) 0.9815(1) 0.9538(1)
N1 N 0.5364(6) 1.2477(9) 0.8389(5)
O1 O 0.5795(5) 1.0838(5) 0.8306(5)
N2 N 0.7686(7) 1.3101(7) 1.0954(5)
O2 O 0.6184(7) 1.0927(5) 1.1000(4)
C1 C 0.6428(8) 1.2124(8) 1.0955(6)
C2 C 0.6228(8) 1.2075(8) 0.8357(5)
O1C O 0.9162(5) 1.4957(7) 0.8306(5)
C2C C 0.7925(8) 1.4153(11) 0.8357(5)
N1C N 0.7523(9) 1.2887(11) 0.8389(5)
O1E O 0.5043(7) 1.4205(5) 0.8306(5)
C2E C 0.5847(11) 1.3772(8) 0.8357(5)
N1E N 0.7113(11) 1.4636(6) 0.8389(5)
N2C N 0.6899(7) 1.4585(10) 1.0954(5)
C1C C 0.7876(8) 1.4304(11) 1.0955(6)
O2C O 0.9073(5) 1.5257(9) 1.1000(4)
N2E N 0.5415(10) 1.2314(7) 1.0954(5)
C1E C 0.5696(11) 1.3572(8) 1.0955(6)
O2E O 0.4743(9) 1.3816(7) 1.1000(4)
Sr1C Sr 1.0185(1) 1.6899(1) 0.9538(1)
Sr1E Sr 0.3101(1) 1.3286(1) 0.9538(1)
Sr1B Sr 0.3381(1) 1.3148(1) 1.2871(1)
Sr1I Sr 0.3518(1) 0.9953(1) 1.1205(1)
Sr1K Sr 1.0047(1) 1.3566(1) 1.1205(1)
Sr1L Sr 0.6434(1) 1.6482(1) 1.1205(1)
Sr1M Sr 0.6852(1) 1.0232(1) 1.2871(1)
Sr1N Sr 0.6852(1) 1.6619(1) 0.7871(1)
Sr1O Sr 0.9768(1) 1.6619(1) 1.2871(1)
Sr1P Sr 0.3381(1) 1.0232(1) 0.7871(1)
Sr1Q Sr 0.9768(1) 1.3148(1) 0.7871(1)
N1I N 0.0856(9) 1.1303(6) 1.0056(5)
N1K N 0.8697(6) 0.9554(11) 1.0056(5)
N1L N 1.0446(11) 1.9144(9) 1.0056(5)
O1I O 0.2495(5) 1.0872(5) 0.9973(5)
O1K O 0.9128(5) 1.1624(7) 0.9973(5)
O1L O 0.8376(7) 1.7505(5) 0.9973(5)
N2N N 0.3566(7) 1.5647(7) 0.9287(5)
N2P N 0.4353(7) 0.7918(10) 0.9287(5)
N2Q N 1.2082(10) 1.6434(7) 0.9287(5)
O2A O 0.9517(7) 1.7594(5) 0.7667(4)
O2H O 0.2406(5) 1.1924(9) 0.7667(4)
O2J O 0.8076(9) 1.0483(7) 0.7667(4)
O2N O 0.5740(5) 0.7149(7) 0.9333(4)
O2P O 1.2851(7) 1.8590(9) 0.9333(4)
O2Q O 0.1410(9) 1.4260(5) 0.9333(4)
loop_
_geom_bond_atom_site_label_1
_geom_bond_atom_site_label_2
_geom_bond_site_symmetry_1
_geom_bond_site_symmetry_2
Sr1 O1 1_555 1_555
N1 C2 1_555 1_555
O1 C2 1_555 1_555
N2 C1 1_555 1_555
O2 Sr1 1_555 1_555
C1 O2 1_555 1_555
C2 N1C 1_555 1_555
O1C C2C 1_555 1_555
C2C N1C 1_555 1_555
N1C Sr1Q 1_555 1_555
O1E C2E 1_555 1_555
C2E N1 1_555 1_555
N1E C2C 1_555 1_555
N2C C1C 1_555 1_555
C1C N2 1_555 1_555
O2C C1C 1_555 1_555
N2E C1 1_555 1_555
C1E N2C 1_555 1_555
O2E C1E 1_555 1_555
Sr1C O1C 1_555 1_555
Sr1E O1E 1_555 1_555
Sr1B O2E 1_555 1_555
Sr1I O2 1_555 1_555
Sr1K N2 1_555 1_555
Sr1L N2C 1_555 1_555
Sr1M O2 1_555 1_555
Sr1N O1E 1_555 1_555
Sr1O O2C 1_555 1_555
Sr1P N1 1_555 1_555
Sr1Q O1C 1_555 1_555
N1I Sr1E 1_555 1_555
N1K Sr1 1_555 1_555
N1L Sr1C 1_555 1_555
O1I Sr1E 1_555 1_555
O1K Sr1 1_555 1_555
O1L Sr1C 1_555 1_555
N2N Sr1E 1_555 1_555
N2P Sr1 1_555 1_555
N2Q Sr1C 1_555 1_555
O2A Sr1C 1_555 1_555
O2H Sr1E 1_555 1_555
O2J Sr1 1_555 1_555
O2N Sr1 1_555 1_555
O2P Sr1C 1_555 1_555
O2Q Sr1E 1_555 1_555
O1 Sr1P 1_555 1_555
C2E N1E 1_555 1_555
N1E Sr1N 1_555 1_555
O2C Sr1C 1_555 1_555
O2C Sr1K 1_555 1_555
N2E C1E 1_555 1_555
N2E Sr1I 1_555 1_555
O2E Sr1E 1_555 1_555
O2E Sr1L 1_555 1_555
Sr1I O1I 1_555 1_555
Sr1K O1K 1_555 1_555
Sr1L O1L 1_555 1_555
Sr1N O2A 1_555 1_555
Sr1P O2H 1_555 1_555
Sr1Q O2J 1_555 1_555

#END
