
#######################################################################
#
#                 Cambridge Crystallographic Data Centre
#                                CCDC 
#
#######################################################################
#
# If this CIF has been generated from an entry in the Cambridge 
# Structural Database, then it will include bibliographic, chemical, 
# crystal, experimental, refinement or atomic coordinate data resulting 
# from the CCDC's data processing and validation procedures.
#
#######################################################################

data_YOZRIQ
_symmetry_cell_setting           monoclinic
_symmetry_space_group_name_H-M   'P 21/n'
_symmetry_Int_Tables_number      14
_space_group_name_Hall           '-P 2yn'
loop_
_symmetry_equiv_pos_site_id
_symmetry_equiv_pos_as_xyz
1 x,y,z
2 1/2-x,1/2+y,1/2-z
3 -x,-y,-z
4 1/2+x,1/2-y,1/2+z
_cell_length_a                   7.4930(15)
_cell_length_b                   10.348(2)
_cell_length_c                   11.220(2)
_cell_angle_alpha                90
_cell_angle_beta                 94.62(3)
_cell_angle_gamma                90
_cell_volume                     867.145
loop_
_atom_site_label
_atom_site_type_symbol
_atom_site_fract_x
_atom_site_fract_y
_atom_site_fract_z
Co1 Co 0.87422(3) 0.30007(2) 0.72984(2)
Cl1 Cl 1.13965(8) 0.27349(7) 0.85822(5)
O1 O 0.9385(2) 0.49113(14) 0.69652(13)
O2 O 0.6430(2) 0.3443(2) 0.60877(16)
C1 C 0.9841(3) 0.67310(18) 0.51721(17)
H1 H 1.0553 0.5994 0.5185
C2 C 0.8779(3) 0.69549(17) 0.61084(16)
C3 C 0.8473(3) 0.59134(18) 0.70216(16)
C4 C 0.7923(3) 0.89028(19) 0.52903(18)
H2 H 0.7320 0.9686 0.5323
C5 C 0.4689(3) 0.3839(3) 0.6330(2)
H3 H 0.3969 0.3955 0.5591
H4 H 0.4760 0.4640 0.6763
H5 H 0.4158 0.3190 0.6801
N1 N 0.9864(2) 0.75488(16) 0.42527(14)
C6 C 0.8890(3) 0.8629(2) 0.43115(18)
H6 H 0.8859 0.9213 0.3680
N2 N 0.7849(2) 0.80520(15) 0.61852(14)
O3 O 0.7278(2) 0.61341(14) 0.77160(13)
H7 H 0.639(4) 0.305(3) 0.552(3)
Co1A Co 0.62578(3) 0.80007(2) 0.77016(2)
Co1B Co 1.12578(3) 0.69993(2) 0.27016(2)
N1B N 1.0136(2) 0.24512(16) 0.57473(14)
N2A N 0.7151(2) 0.30520(15) 0.88148(14)
O3A O 0.7722(2) 0.11341(14) 0.72840(13)
loop_
_geom_bond_atom_site_label_1
_geom_bond_atom_site_label_2
_geom_bond_site_symmetry_1
_geom_bond_site_symmetry_2
Co1 Cl1 1_555 1_555
O1 Co1 1_555 1_555
O2 Co1 1_555 1_555
C1 H1 1_555 1_555
C2 C1 1_555 1_555
C3 O1 1_555 1_555
C4 H2 1_555 1_555
C5 O2 1_555 1_555
H3 C5 1_555 1_555
H4 C5 1_555 1_555
H5 C5 1_555 1_555
N1 C1 1_555 1_555
C6 C4 1_555 1_555
H6 C6 1_555 1_555
N2 C2 1_555 1_555
O3 C3 1_555 1_555
H7 O2 1_555 1_555
Co1A N2 1_555 1_555
Co1B N1 1_555 1_555
N1B Co1 1_555 1_555
N2A Co1 1_555 1_555
O3A Co1 1_555 1_555
C2 C3 1_555 1_555
C4 N2 1_555 1_555
N1 C6 1_555 1_555
O3 Co1A 1_555 1_555

#END
