
#######################################################################
#
#                 Cambridge Crystallographic Data Centre
#                                CCDC 
#
#######################################################################
#
# If this CIF has been generated from an entry in the Cambridge 
# Structural Database, then it will include bibliographic, chemical, 
# crystal, experimental, refinement or atomic coordinate data resulting 
# from the CCDC's data processing and validation procedures.
#
#######################################################################

data_YOZRAI
_symmetry_cell_setting           rhombohedral
_symmetry_space_group_name_H-M   'R 3 c'
_symmetry_Int_Tables_number      161
_space_group_name_Hall           'R 3 -2"c'
loop_
_symmetry_equiv_pos_site_id
_symmetry_equiv_pos_as_xyz
1 x,y,z
2 -y,x-y,z
3 -y,-x,1/2+z
4 -x+y,-x,z
5 x,x-y,1/2+z
6 -x+y,y,1/2+z
7 2/3+x,1/3+y,1/3+z
8 2/3-y,1/3+x-y,1/3+z
9 2/3-y,1/3-x,5/6+z
10 2/3-x+y,1/3-x,1/3+z
11 2/3+x,1/3+x-y,5/6+z
12 2/3-x+y,1/3+y,5/6+z
13 1/3+x,2/3+y,2/3+z
14 1/3-y,2/3+x-y,2/3+z
15 1/3-y,2/3-x,1/6+z
16 1/3-x+y,2/3-x,2/3+z
17 1/3+x,2/3+x-y,1/6+z
18 1/3-x+y,2/3+y,1/6+z
_cell_length_a                   11.857
_cell_length_b                   11.857
_cell_length_c                   12.564
_cell_angle_alpha                90
_cell_angle_beta                 90
_cell_angle_gamma                120
_cell_volume                     1529.71
loop_
_atom_site_label
_atom_site_type_symbol
_atom_site_fract_x
_atom_site_fract_y
_atom_site_fract_z
Eu1 Eu 0.67072(10) 0.98111(7) 0.95436(14)
N1 N 0.5370(12) 1.2448(17) 0.8333(11)
O1 O 0.5822(11) 1.0844(10) 0.8277(11)
N2 N 0.7681(13) 1.3072(12) 1.0945(12)
O2 O 0.6194(13) 1.0934(9) 1.1010(9)
C1 C 0.6404(14) 1.2109(12) 1.0935(13)
C2 C 0.6250(14) 1.2073(14) 0.8332(12)
O1A O 0.9156(10) 1.4978(15) 0.8277(11)
C2A C 0.7927(14) 1.4177(20) 0.8332(12)
N1A N 0.7552(17) 1.2922(21) 0.8333(11)
O1C O 0.5022(15) 1.4178(11) 0.8277(11)
C2C C 0.5823(20) 1.3750(14) 0.8332(12)
N1C N 0.7078(21) 1.4630(12) 0.8333(11)
N2A N 0.6928(12) 1.4609(18) 1.0945(12)
C1A C 0.7891(12) 1.4295(18) 1.0935(13)
O2A O 0.9066(9) 1.5260(16) 1.1010(9)
N2C N 0.5391(18) 1.2319(13) 1.0945(12)
C1C C 0.5705(18) 1.3596(14) 1.0935(13)
O2C O 0.4740(16) 1.3806(13) 1.1010(9)
Eu1A Eu 1.01889(7) 1.68961(12) 0.95436(14)
Eu1C Eu 0.31039(12) 1.32928(10) 0.95436(14)
Eu1F Eu 0.33739(10) 1.31444(7) 1.28769(14)
Eu1G Eu 0.68556(7) 1.02294(12) 1.28769(14)
Eu1H Eu 0.68556(7) 1.66261(10) 0.78769(14)
Eu1I Eu 0.97706(12) 1.66261(10) 1.28769(14)
Eu1J Eu 0.33739(10) 1.02294(12) 0.78769(14)
Eu1K Eu 0.97706(12) 1.31444(7) 0.78769(14)
Eu1N Eu 0.35222(7) 0.99595(10) 1.12103(14)
Eu1P Eu 1.00405(10) 1.35628(12) 1.12103(14)
Eu1Q Eu 0.64372(12) 1.64778(7) 1.12103(14)
N1N N 0.0885(17) 1.1297(12) 1.0000(11)
N1P N 0.8703(12) 0.9589(21) 1.0000(11)
N1Q N 1.0411(21) 1.9115(17) 1.0000(11)
O1N O 0.2489(10) 1.0845(11) 0.9944(11)
O1P O 0.9155(11) 1.1645(15) 0.9944(11)
O1Q O 0.8355(15) 1.7511(10) 0.9944(11)
N2H N 0.3595(12) 1.5652(13) 0.9278(12)
N2J N 0.4348(13) 0.7942(18) 0.9278(12)
N2K N 1.2058(18) 1.6405(12) 0.9278(12)
O2H O 0.5733(9) 0.7139(13) 0.9343(9)
O2J O 1.2861(13) 1.8593(16) 0.9343(9)
O2K O 0.1407(16) 1.4267(9) 0.9343(9)
O2L O 0.9527(13) 1.7601(9) 0.7677(9)
O2M O 0.2399(9) 1.1927(16) 0.7677(9)
O2O O 0.8073(16) 1.0473(13) 0.7677(9)
loop_
_geom_bond_atom_site_label_1
_geom_bond_atom_site_label_2
_geom_bond_site_symmetry_1
_geom_bond_site_symmetry_2
Eu1 O1 1_555 1_555
N1 C2 1_555 1_555
O1 C2 1_555 1_555
N2 C1 1_555 1_555
O2 Eu1 1_555 1_555
C1 O2 1_555 1_555
C2 N1A 1_555 1_555
O1A C2A 1_555 1_555
C2A N1A 1_555 1_555
N1A Eu1K 1_555 1_555
O1C C2C 1_555 1_555
C2C N1 1_555 1_555
N1C C2A 1_555 1_555
N2A C1A 1_555 1_555
C1A N2 1_555 1_555
O2A C1A 1_555 1_555
N2C C1 1_555 1_555
C1C N2A 1_555 1_555
O2C C1C 1_555 1_555
Eu1A O1A 1_555 1_555
Eu1C O1C 1_555 1_555
Eu1F O2C 1_555 1_555
Eu1G O2 1_555 1_555
Eu1H O1C 1_555 1_555
Eu1I O2A 1_555 1_555
Eu1J N1 1_555 1_555
Eu1K O1A 1_555 1_555
Eu1N O2 1_555 1_555
Eu1P N2 1_555 1_555
Eu1Q N2A 1_555 1_555
N1N Eu1C 1_555 1_555
N1P Eu1 1_555 1_555
N1Q Eu1A 1_555 1_555
O1N Eu1C 1_555 1_555
O1P Eu1 1_555 1_555
O1Q Eu1A 1_555 1_555
N2H Eu1C 1_555 1_555
N2J Eu1 1_555 1_555
N2K Eu1A 1_555 1_555
O2H Eu1 1_555 1_555
O2J Eu1A 1_555 1_555
O2K Eu1C 1_555 1_555
O2L Eu1A 1_555 1_555
O2M Eu1C 1_555 1_555
O2O Eu1 1_555 1_555
O1 Eu1J 1_555 1_555
C2C N1C 1_555 1_555
N1C Eu1H 1_555 1_555
O2A Eu1A 1_555 1_555
O2A Eu1P 1_555 1_555
N2C C1C 1_555 1_555
N2C Eu1N 1_555 1_555
O2C Eu1C 1_555 1_555
O2C Eu1Q 1_555 1_555
Eu1H O2L 1_555 1_555
Eu1J O2M 1_555 1_555
Eu1K O2O 1_555 1_555
Eu1N O1N 1_555 1_555
Eu1P O1P 1_555 1_555
Eu1Q O1Q 1_555 1_555

#END
