
#######################################################################
#
#                 Cambridge Crystallographic Data Centre
#                                CCDC 
#
#######################################################################
#
# If this CIF has been generated from an entry in the Cambridge 
# Structural Database, then it will include bibliographic, chemical, 
# crystal, experimental, refinement or atomic coordinate data resulting 
# from the CCDC's data processing and validation procedures.
#
#######################################################################

data_YOZROW
_symmetry_cell_setting           tetragonal
_symmetry_space_group_name_H-M   'P 4/n c c'
_symmetry_Int_Tables_number      130
_space_group_name_Hall           '-P 4a 2ac'
loop_
_symmetry_equiv_pos_site_id
_symmetry_equiv_pos_as_xyz
1 x,y,z
2 1/2-x,1/2-y,z
3 1/2-y,x,z
4 y,1/2-x,z
5 -x,1/2+y,1/2-z
6 1/2+x,-y,1/2-z
7 1/2+y,1/2+x,1/2-z
8 -y,-x,1/2-z
9 -x,-y,-z
10 1/2+x,1/2+y,-z
11 1/2+y,-x,-z
12 -y,1/2+x,-z
13 x,1/2-y,1/2+z
14 1/2-x,y,1/2+z
15 1/2-y,1/2-x,1/2+z
16 y,x,1/2+z
_cell_length_a                   11.3528(16)
_cell_length_b                   11.3528(16)
_cell_length_c                   23.145(5)
_cell_angle_alpha                90
_cell_angle_beta                 90
_cell_angle_gamma                90
_cell_volume                     2983.07
loop_
_atom_site_label
_atom_site_type_symbol
_atom_site_fract_x
_atom_site_fract_y
_atom_site_fract_z
Co1 Co 0.2500 0.7500 0.2500
Co2 Co 0.0000 1.0000 0.0000
Cl1 Cl 0.09940(17) 0.59940(17) 0.2500
N1 N 0.0729(5) 0.9505(5) 0.0814(2)
N2 N 0.1560(6) 0.8444(6) 0.1813(2)
C1 C 0.0685(6) 0.8331(6) 0.0882(3)
C2 C 0.1146(7) 1.0139(6) 0.1253(3)
H1 H 0.1157 1.0956 0.1226
C3 C 0.1557(7) 0.9607(7) 0.1744(3)
H2 H 0.1845 1.0078 0.2041
C4 C 0.1098(7) 0.7806(7) 0.1383(3)
H3 H 0.1053 0.6992 0.1421
C5 C 0.0179(6) 0.7624(7) 0.0388(3)
O1 O 0.0171(6) 0.6550(5) 0.0461(2)
O2 O -0.0179(5) 0.8175(4) -0.0047(2)
Cl1A Cl 0.40060(17) 0.90060(17) 0.2500
N1A N 0.4271(5) 0.5495(5) 0.0814(2)
N2A N 0.3440(6) 0.6556(6) 0.1813(2)
C1A C 0.4315(6) 0.6669(6) 0.0882(3)
C2A C 0.3854(7) 0.4861(6) 0.1253(3)
H1A H 0.3843 0.4044 0.1226
C3A C 0.3443(7) 0.5393(7) 0.1744(3)
H2A H 0.3155 0.4922 0.2041
C4A C 0.3902(7) 0.7194(7) 0.1383(3)
H3A H 0.3947 0.8008 0.1421
C5A C 0.4821(6) 0.7376(7) 0.0388(3)
O1A O 0.4829(6) 0.8450(5) 0.0461(2)
O2A O 0.5179(5) 0.6825(4) -0.0047(2)
Co2B Co -0.5000 1.0000 0.0000
N1B N -0.4505(5) 1.0729(5) 0.0814(2)
N2B N -0.3444(6) 1.1560(6) 0.1813(2)
C1B C -0.3331(6) 1.0685(6) 0.0882(3)
C2B C -0.5139(6) 1.1146(7) 0.1253(3)
H1B H -0.5956 1.1157 0.1226
C3B C -0.4607(7) 1.1557(7) 0.1744(3)
H2B H -0.5078 1.1845 0.2041
C4B C -0.2806(7) 1.1098(7) 0.1383(3)
H3B H -0.1992 1.1053 0.1421
C5B C -0.2624(7) 1.0179(6) 0.0388(3)
O1B O -0.1550(5) 1.0171(6) 0.0461(2)
O2B O -0.3175(4) 0.9821(5) -0.0047(2)
N1G N 0.0495(5) 0.9271(5) 0.4186(2)
N2G N 0.1556(6) 0.8440(6) 0.3187(2)
C1G C 0.1669(6) 0.9315(6) 0.4118(3)
C2G C -0.0139(6) 0.8854(7) 0.3747(3)
H1G H -0.0956 0.8843 0.3774
C3G C 0.0393(7) 0.8443(7) 0.3256(3)
H2G H -0.0078 0.8155 0.2959
C4G C 0.2194(7) 0.8902(7) 0.3617(3)
H3G H 0.3008 0.8947 0.3579
C5G C 0.2376(7) 0.9821(6) 0.4612(3)
O1G O 0.3450(5) 0.9829(6) 0.4539(2)
O2G O 0.1825(4) 1.0179(5) 0.5047(2)
Co1B Co -0.2500 1.2500 0.2500
Co2A Co 0.5000 0.5000 0.0000
Co2B_2 Co 0.5000 1.0000 0.0000
Co2C Co 0.0000 0.5000 0.0000
Co2E Co 0.5000 1.0000 0.5000
Co2G Co 0.0000 1.0000 0.5000
N1H N -0.0729(5) 1.0495(5) -0.0814(2)
N1J N -0.5495(5) 0.9271(5) -0.0814(2)
N2F N 0.3444(6) 0.6560(6) 0.3187(2)
O1A_2 O -0.5171(6) 0.8450(5) 0.0461(2)
O1I O -0.4829(6) 1.1550(5) -0.0461(2)
O1J O 0.1550(5) 0.9829(6) -0.0461(2)
O2H O 0.0179(5) 1.1825(4) 0.0047(2)
O2J O -0.6825(4) 1.0179(5) 0.0047(2)
O3 O 0.2500 0.2500 0.0670(5)
O4 O 0.2500 0.2500 0.193(2)
O5 O 0.2500 0.2500 0.305(3)
loop_
_geom_bond_atom_site_label_1
_geom_bond_atom_site_label_2
_geom_bond_site_symmetry_1
_geom_bond_site_symmetry_2
Co1 Cl1 1_555 1_555
Co2 N1 1_555 1_555
N1 C1 1_555 1_555
N2 Co1 1_555 1_555
C1 C4 1_555 1_555
C2 N1 1_555 1_555
H1 C2 1_555 1_555
C3 N2 1_555 1_555
H2 C3 1_555 1_555
C4 N2 1_555 1_555
H3 C4 1_555 1_555
C5 C1 1_555 1_555
O1 C5 1_555 1_555
O2 Co2 1_555 1_555
Cl1A Co1 1_555 1_555
N1A C1A 1_555 1_555
N2A Co1 1_555 1_555
C1A C4A 1_555 1_555
C2A N1A 1_555 1_555
H1A C2A 1_555 1_555
C3A N2A 1_555 1_555
H2A C3A 1_555 1_555
C4A N2A 1_555 1_555
H3A C4A 1_555 1_555
C5A C1A 1_555 1_555
O1A C5A 1_555 1_555
O2A C5A 1_555 1_555
Co2B N1B 1_555 1_555
N1B C1B 1_555 1_555
N2B C3B 1_555 1_555
C1B C4B 1_555 1_555
C2B N1B 1_555 1_555
H1B C2B 1_555 1_555
C3B C2B 1_555 1_555
H2B C3B 1_555 1_555
C4B N2B 1_555 1_555
H3B C4B 1_555 1_555
C5B C1B 1_555 1_555
O1B Co2 1_555 1_555
O2B Co2B 1_555 1_555
N1G C1G 1_555 1_555
N2G Co1 1_555 1_555
C1G C4G 1_555 1_555
C2G N1G 1_555 1_555
H1G C2G 1_555 1_555
C3G N2G 1_555 1_555
H2G C3G 1_555 1_555
C4G N2G 1_555 1_555
H3G C4G 1_555 1_555
C5G C1G 1_555 1_555
O1G C5G 1_555 1_555
O2G C5G 1_555 1_555
Co1B N2B 1_555 1_555
Co2A N1A 1_555 1_555
Co2B_2 O1A 1_555 1_555
Co2C O1 1_555 1_555
Co2E O1G 1_555 1_555
Co2G N1G 1_555 1_555
N1H Co2 1_555 1_555
N1J Co2B 1_555 1_555
N2F Co1 1_555 1_555
O1A_2 Co2B 1_555 1_555
O1I Co2B 1_555 1_555
O1J Co2 1_555 1_555
O2H Co2 1_555 1_555
O2J Co2B 1_555 1_555
C2 C3 1_555 1_555
C5 O2 1_555 1_555
C2A C3A 1_555 1_555
O2A Co2A 1_555 1_555
C5B O1B 1_555 1_555
C5B O2B 1_555 1_555
C2G C3G 1_555 1_555
O2G Co2G 1_555 1_555

#END
