
#######################################################################
#
#                 Cambridge Crystallographic Data Centre
#                                CCDC 
#
#######################################################################
#
# If this CIF has been generated from an entry in the Cambridge 
# Structural Database, then it will include bibliographic, chemical, 
# crystal, experimental, refinement or atomic coordinate data resulting 
# from the CCDC's data processing and validation procedures.
#
#######################################################################

data_YOZSOX
_symmetry_cell_setting           triclinic
_symmetry_space_group_name_H-M   'P -1'
_symmetry_Int_Tables_number      2
_space_group_name_Hall           '-P 1'
loop_
_symmetry_equiv_pos_site_id
_symmetry_equiv_pos_as_xyz
1 x,y,z
2 -x,-y,-z
_cell_length_a                   11.158(5)
_cell_length_b                   12.946(5)
_cell_length_c                   13.292(5)
_cell_angle_alpha                97.478(5)
_cell_angle_beta                 112.381(5)
_cell_angle_gamma                104.018(5)
_cell_volume                     1668.79
loop_
_atom_site_label
_atom_site_type_symbol
_atom_site_fract_x
_atom_site_fract_y
_atom_site_fract_z
Cu1 Cu 0.5000 0.5000 0.0000
N1 N 0.5737(10) 0.5458(7) 0.3246(8)
N2 N 0.5635(11) 0.5401(8) 0.1567(9)
C1 C 0.5014(13) 0.4971(9) 0.2149(10)
H1 H 0.4185 0.4405 0.1841
C2 C 0.5725(13) 0.6058(9) 0.5085(10)
H2 H 0.6205 0.6771 0.5129
C3 C 0.6886(13) 0.6265(10) 0.3378(11)
H3 H 0.7571 0.6744 0.4044
C4 C 0.5382(14) 0.5834(10) 0.5928(11)
H4 H 0.5647 0.6393 0.6559
C5 C 0.6801(14) 0.6206(11) 0.2330(11)
H5 H 0.7444 0.6650 0.2153
C6 C 0.5348(12) 0.5205(9) 0.4145(9)
N1A N 0.4263(10) 0.4542(7) 0.6754(8)
N2A N 0.4365(11) 0.4599(8) 0.8433(9)
C1A C 0.4986(13) 0.5029(9) 0.7851(10)
H1A H 0.5815 0.5595 0.8159
C2A C 0.4275(13) 0.3942(9) 0.4915(10)
H2A H 0.3795 0.3229 0.4871
C3A C 0.3114(13) 0.3735(10) 0.6622(11)
H3A H 0.2429 0.3256 0.5956
C4A C 0.4618(14) 0.4166(10) 0.4072(11)
H4A H 0.4353 0.3607 0.3441
C5A C 0.3199(14) 0.3794(11) 0.7670(11)
H5A H 0.2556 0.3350 0.7847
C6A C 0.4652(12) 0.4795(9) 0.5855(9)
Cu1_2 Cu 0.5000 0.5000 1.0000
N2A_2 N 0.4365(11) 0.4599(8) -0.1567(9)
N3 N 0.6102(10) 0.8946(8) 0.3398(8)
N4 N 0.1390(11) 0.5929(9) 0.3185(9)
C7 C 0.4066(12) 0.7346(10) 0.2359(10)
H6 H 0.4300 0.7276 0.1758
C8 C 0.3365(13) 0.7602(11) 0.4161(10)
H7 H 0.3109 0.7689 0.4747
C9 C 0.2580(12) 0.6730(9) 0.3218(10)
C10 C 0.4527(13) 0.8337(10) 0.4220(10)
H8 H 0.5072 0.8917 0.4851
C11 C 0.8168(14) 1.0095(14) 0.4076(13)
H9 H 0.9044 1.0553 0.4567
C12 C 0.2907(14) 0.6600(10) 0.2309(11)
H10 H 0.2355 0.6022 0.1676
C13 C 0.4874(12) 0.8198(9) 0.3315(9)
C14 C 0.7285(13) 0.9457(12) 0.4358(11)
H11 H 0.7439 0.9371 0.5077
N5 N 0.7579(11) 0.9966(9) 0.2964(9)
H12 H 0.7956 1.0278 0.2578
N6 N -0.0656(12) 0.4817(9) 0.2590(11)
C15 C 0.6328(12) 0.9282(11) 0.2560(10)
H13 H 0.5701 0.9066 0.1809
C16 C 0.0164(13) 0.5539(11) 0.2315(12)
H14 H -0.0078 0.5736 0.1635
C17 C 0.132(2) 0.5398(16) 0.4009(18)
H15 H 0.2030 0.5513 0.4710
C18 C 0.010(2) 0.4714(17) 0.3643(17)
H16 H -0.0212 0.4239 0.4023
O23 O 0.7175(11) 0.3876(8) 0.0522(9)
H17 H 0.6923 0.3198 0.0539
H18 H 0.7868 0.4199 0.1182
O24 O 0.6899(19) 0.3054(17) 0.2918(14)
Mo1 Mo 1.03259(11) -0.12196(9) 0.23165(10)
Mo2 Mo 1.07692(10) 0.16492(8) 0.26671(9)
Mo3 Mo 0.74962(11) 0.10242(9) 0.03839(9)
Mo4 Mo 1.04277(11) 0.28613(8) 0.03582(9)
Mo5 Mo 0.70539(11) -0.18393(8) -0.00109(9)
Mo6 Mo 0.67332(11) -0.05830(9) -0.22746(10)
P1 P 1.0000 0.0000 0.0000
O1 O 0.5684(9) -0.2721(7) -0.0014(8)
O2 O 1.0433(10) -0.1854(8) 0.3349(8)
O3 O 1.0616(11) 0.4184(7) 0.0545(9)
O4 O 0.9773(13) 0.0986(10) 0.0564(10)
O5 O 0.9481(13) -0.1053(10) 0.0299(10)
O6 O 1.1054(9) 0.2339(7) 0.3932(7)
O7 O 0.6332(10) 0.1480(8) 0.0599(10)
O8 O 0.8810(9) 0.1291(10) 0.1895(8)
O9 O 0.6899(13) -0.0486(7) 0.0469(8)
O10 O 1.0985(10) 0.2714(8) 0.1931(8)
O11 O 1.0737(12) 0.0143(10) 0.1324(10)
O12 O 0.8437(12) -0.0269(9) -0.0294(10)
O13 O 0.6678(14) 0.0476(8) -0.1176(8)
O14 O 0.8597(9) 0.2271(10) 0.0244(8)
O15 O 1.2187(12) -0.0612(10) 0.2635(10)
O16 O 1.0288(11) 0.0123(8) 0.2857(12)
O17 O 0.6350(13) -0.1656(8) -0.1515(8)
O18 O 0.8379(9) -0.1693(9) 0.1435(7)
O19 O 0.5207(9) -0.0841(7) -0.3324(7)
O20 O 1.2180(9) 0.2857(9) 0.0544(7)
O21 O 0.9748(9) 0.2397(9) -0.1172(7)
O22 O 1.2492(12) 0.1491(9) 0.2932(10)
O4A O 1.0227(13) -0.0986(10) -0.0564(10)
O5A O 1.0519(13) 0.1053(10) -0.0299(10)
O11A O 0.9263(12) -0.0143(10) -0.1324(10)
O12A O 1.1563(12) 0.0269(9) 0.0294(10)
Mo1A Mo 0.96741(11) 0.12196(9) -0.23165(10)
Mo2A Mo 0.92308(10) -0.16492(8) -0.26671(9)
Mo3A Mo 1.25038(11) -0.10242(9) -0.03839(9)
Mo4A Mo 0.95723(11) -0.28613(8) -0.03582(9)
Mo5A Mo 1.29461(11) 0.18393(8) 0.00109(9)
Mo6A Mo 1.32668(11) 0.05830(9) 0.22746(10)
O1A O 1.4316(9) 0.2721(7) 0.0014(8)
O2A O 0.9567(10) 0.1854(8) -0.3349(8)
O3A O 0.9384(11) -0.4184(7) -0.0545(9)
O6A O 0.8946(9) -0.2339(7) -0.3932(7)
O7A O 1.3668(10) -0.1480(8) -0.0599(10)
O8A O 1.1190(9) -0.1291(10) -0.1895(8)
O9A O 1.3101(13) 0.0486(7) -0.0469(8)
O10A O 0.9015(10) -0.2714(8) -0.1931(8)
O13A O 1.3322(14) -0.0476(8) 0.1176(8)
O14A O 1.1403(9) -0.2271(10) -0.0244(8)
O15A O 0.7813(12) 0.0612(10) -0.2635(10)
O16A O 0.9712(11) -0.0123(8) -0.2857(12)
O17A O 1.3650(13) 0.1656(8) 0.1515(8)
O18A O 1.1621(9) 0.1693(9) -0.1435(7)
O19A O 1.4793(9) 0.0841(7) 0.3324(7)
O20A O 0.7820(9) -0.2857(9) -0.0544(7)
O21A O 1.0252(9) -0.2397(9) 0.1172(7)
O22A O 0.7508(12) -0.1491(9) -0.2932(10)
O25? O 0.887(4) 0.259(3) 0.454(4)
loop_
_geom_bond_atom_site_label_1
_geom_bond_atom_site_label_2
_geom_bond_site_symmetry_1
_geom_bond_site_symmetry_2
Mo1 O2 1_555 1_555
Mo2 O4 1_555 1_555
Mo3 O4 1_555 1_555
Mo4 O3 1_555 1_555
Mo5 O1 1_555 1_555
Mo6 O12 1_555 1_555
P1 O4 1_555 1_555
O4 Mo4 1_555 1_555
O5 Mo1 1_555 1_555
O6 Mo2 1_555 1_555
O7 Mo3 1_555 1_555
O8 Mo2 1_555 1_555
O9 Mo3 1_555 1_555
O10 Mo2 1_555 1_555
O11 Mo1 1_555 1_555
O12 Mo3 1_555 1_555
O13 Mo3 1_555 1_555
O14 Mo3 1_555 1_555
O15 Mo1 1_555 1_555
O16 Mo1 1_555 1_555
O17 Mo5 1_555 1_555
O18 Mo1 1_555 1_555
O19 Mo6 1_555 1_555
O20 Mo4 1_555 1_555
O21 Mo4 1_555 1_555
O22 Mo2 1_555 1_555
Cu1 N2 1_555 1_555
N1 C1 1_555 1_555
N2 C1 1_555 1_555
C1 H1 1_555 1_555
C2 H2 1_555 1_555
C3 N1 1_555 1_555
H3 C3 1_555 1_555
C4 C2 1_555 1_555
H4 C4 1_555 1_555
C5 N2 1_555 1_555
H5 C5 1_555 1_555
C6 N1 1_555 1_555
N3 C13 1_555 1_555
N4 C9 1_555 1_555
C7 H6 1_555 1_555
C8 H7 1_555 1_555
C9 C8 1_555 1_555
C10 C8 1_555 1_555
H8 C10 1_555 1_555
C11 H9 1_555 1_555
C12 C7 1_555 1_555
H10 C12 1_555 1_555
C13 C7 1_555 1_555
C14 N3 1_555 1_555
H11 C14 1_555 1_555
N5 C11 1_555 1_555
H12 N5 1_555 1_555
N6 C16 1_555 1_555
C15 N3 1_555 1_555
H13 C15 1_555 1_555
C16 N4 1_555 1_555
H14 C16 1_555 1_555
C17 N4 1_555 1_555
H15 C17 1_555 1_555
C18 N6 1_555 1_555
H16 C18 1_555 1_555
O23 H17 1_555 1_555
H18 O23 1_555 1_555
O4A P1 1_555 1_555
O5A Mo4 1_555 1_555
O11A Mo6 1_555 1_555
O12A P1 1_555 1_555
Mo1A O21 1_555 1_555
Mo2A O4A 1_555 1_555
Mo3A O4A 1_555 1_555
Mo4A O5 1_555 1_555
Mo5A O20 1_555 1_555
Mo6A O11 1_555 1_555
O1A Mo5A 1_555 1_555
O2A Mo1A 1_555 1_555
O3A Mo4A 1_555 1_555
O6A Mo2A 1_555 1_555
O7A Mo3A 1_555 1_555
O8A Mo2A 1_555 1_555
O9A Mo3A 1_555 1_555
O10A Mo2A 1_555 1_555
O13A Mo3A 1_555 1_555
O14A Mo3A 1_555 1_555
O15A Mo6 1_555 1_555
O16A Mo1A 1_555 1_555
O17A Mo5A 1_555 1_555
O18A Mo1A 1_555 1_555
O19A Mo6A 1_555 1_555
O20A Mo5 1_555 1_555
O21A Mo1 1_555 1_555
O22A Mo6 1_555 1_555
N1A C1A 1_555 1_555
N2A C1A 1_555 1_555
C1A H1A 1_555 1_555
C2A H2A 1_555 1_555
C3A N1A 1_555 1_555
H3A C3A 1_555 1_555
C4A C6 1_555 1_555
H4A C4A 1_555 1_555
C5A N2A 1_555 1_555
H5A C5A 1_555 1_555
C6A C4 1_555 1_555
Cu1_2 N2A 1_555 1_555
N2A_2 Cu1 1_555 1_555
Mo2 O11 1_555 1_555
Mo2 O16 1_555 1_555
Mo3 O8 1_555 1_555
Mo4 O10 1_555 1_555
Mo4 O14 1_555 1_555
Mo5 O5 1_555 1_555
Mo5 O9 1_555 1_555
Mo5 O12 1_555 1_555
Mo5 O18 1_555 1_555
Mo6 O13 1_555 1_555
Mo6 O17 1_555 1_555
P1 O5 1_555 1_555
P1 O11 1_555 1_555
P1 O12 1_555 1_555
P1 O5A 1_555 1_555
P1 O11A 1_555 1_555
O15 Mo6A 1_555 1_555
O22 Mo6A 1_555 1_555
C2 C6 1_555 1_555
C3 C5 1_555 1_555
C9 C12 1_555 1_555
C10 C13 1_555 1_555
C11 C14 1_555 1_555
N5 C15 1_555 1_555
C17 C18 1_555 1_555
O4A Mo4A 1_555 1_555
O5A Mo1A 1_555 1_555
O5A Mo5A 1_555 1_555
O11A Mo1A 1_555 1_555
O11A Mo2A 1_555 1_555
O12A Mo3A 1_555 1_555
O12A Mo5A 1_555 1_555
O12A Mo6A 1_555 1_555
Mo1A O15A 1_555 1_555
Mo2A O16A 1_555 1_555
Mo2A O22A 1_555 1_555
Mo3A O8A 1_555 1_555
Mo4A O10A 1_555 1_555
Mo4A O14A 1_555 1_555
Mo4A O20A 1_555 1_555
Mo4A O21A 1_555 1_555
Mo5A O9A 1_555 1_555
Mo5A O18A 1_555 1_555
Mo6A O13A 1_555 1_555
Mo6A O17A 1_555 1_555
N1A C6A 1_555 1_555
C2A C4A 1_555 1_555
C2A C6A 1_555 1_555
C3A C5A 1_555 1_555

#END
