
#######################################################################
#
#                 Cambridge Crystallographic Data Centre
#                                CCDC 
#
#######################################################################
#
# If this CIF has been generated from an entry in the Cambridge 
# Structural Database, then it will include bibliographic, chemical, 
# crystal, experimental, refinement or atomic coordinate data resulting 
# from the CCDC's data processing and validation procedures.
#
#######################################################################

data_YOZTOY
_symmetry_cell_setting           orthorhombic
_symmetry_space_group_name_H-M   'P 21 21 2'
_symmetry_Int_Tables_number      18
_space_group_name_Hall           'P 2 2ab'
loop_
_symmetry_equiv_pos_site_id
_symmetry_equiv_pos_as_xyz
1 x,y,z
2 -x,-y,z
3 1/2+x,1/2-y,-z
4 1/2-x,1/2+y,-z
_cell_length_a                   10.193(3)
_cell_length_b                   23.924(2)
_cell_length_c                   7.284(3)
_cell_angle_alpha                90
_cell_angle_beta                 90
_cell_angle_gamma                90
_cell_volume                     1776.26
loop_
_atom_site_label
_atom_site_type_symbol
_atom_site_fract_x
_atom_site_fract_y
_atom_site_fract_z
Mg1 Mg 0.50115(7) 0.33721(3) 0.02635(11)
O1 O 0.60271(17) 0.41205(8) 0.0317(3)
O2 O 0.49109(18) 0.34510(7) -0.2600(2)
O3 O 0.53430(19) 0.32912(9) 0.2999(3)
N1 N 0.18005(17) 0.21526(8) 0.0248(3)
N2 N 0.28684(19) 0.18243(9) 0.0575(4)
N3 N 0.39155(19) 0.21302(9) 0.0647(3)
N4 N 0.36058(18) 0.26780(8) 0.0351(3)
N5 N 0.15612(18) 0.31376(8) -0.0190(4)
N6 N 0.10960(19) 0.40934(9) 0.0424(4)
N7 N 0.1858(2) 0.45318(9) 0.0927(3)
N8 N 0.3079(2) 0.43770(9) 0.1063(3)
N9 N 0.31781(18) 0.38264(8) 0.0622(3)
C1 C 0.2302(2) 0.26725(9) 0.0127(3)
C2 C 0.1946(2) 0.36724(10) 0.0268(4)
H1 H 0.0746(17) 0.3114(11) -0.042(4)
H2 H 0.498(3) 0.3021(10) 0.353(4)
H3 H 0.499(3) 0.3145(9) -0.310(4)
H4 H 0.579(3) 0.4397(11) -0.037(4)
H5 H 0.419(2) 0.3609(12) -0.305(4)
H6 H 0.670(3) 0.4210(15) 0.092(5)
H7 H 0.611(2) 0.3349(15) 0.342(5)
Mg1B Mg 0.00115(7) 0.16279(3) -0.02635(11)
N1B N 0.68005(17) 0.28474(8) -0.0248(3)
Mg2 Mg 0.36180(7) 0.06491(3) 0.47667(12)
O4 O 0.3591(2) 0.05454(8) 0.7615(3)
O5 O 0.16181(16) 0.07350(8) 0.4703(3)
O6 O 0.3704(2) 0.07773(8) 0.1950(3)
N10 N 0.38571(18) 0.15305(8) 0.5283(3)
N11 N 0.2826(2) 0.18799(9) 0.5576(3)
N12 N 0.3233(2) 0.23947(9) 0.5636(3)
N13 N 0.4560(2) 0.24092(8) 0.5390(3)
N14 N 0.61595(19) 0.16979(8) 0.4865(3)
N15 N 0.7749(2) 0.10230(9) 0.4039(3)
N16 N 0.7755(2) 0.04602(9) 0.3911(3)
N17 N 0.66009(18) 0.02641(8) 0.4340(3)
N18 N 0.57751(18) 0.06955(8) 0.4760(3)
C3 C 0.4894(2) 0.18680(9) 0.5171(3)
C4 C 0.6524(2) 0.11508(9) 0.4560(4)
H8 H 0.352(3) 0.0217(8) 0.814(4)
H9 H 0.111(3) 0.0499(12) 0.526(5)
H10 H 0.443(3) 0.0713(16) 0.142(5)
H11 H 0.421(3) 0.0699(12) 0.817(5)
H12 H 0.673(2) 0.1932(10) 0.457(4)
H13 H 0.115(3) 0.0953(11) 0.411(4)
H14 H 0.338(3) 0.1054(10) 0.150(5)
Mg2A Mg 0.63820(7) -0.06491(3) 0.47667(12)
O4A O 0.6409(2) -0.05454(8) 0.7615(3)
O5A O 0.83819(16) -0.07350(8) 0.4703(3)
O6A O 0.6296(2) -0.07773(8) 0.1950(3)
N10A N 0.61429(18) -0.15305(8) 0.5283(3)
N11A N 0.7174(2) -0.18799(9) 0.5576(3)
N12A N 0.6767(2) -0.23947(9) 0.5636(3)
N13A N 0.5440(2) -0.24092(8) 0.5390(3)
N14A N 0.38405(19) -0.16979(8) 0.4865(3)
N15A N 0.2251(2) -0.10230(9) 0.4039(3)
N16A N 0.2245(2) -0.04602(9) 0.3911(3)
N17A N 0.33991(18) -0.02641(8) 0.4340(3)
N18A N 0.42249(18) -0.06955(8) 0.4760(3)
C3A C 0.5106(2) -0.18680(9) 0.5171(3)
C4A C 0.3476(2) -0.11508(9) 0.4560(4)
H8A H 0.648(3) -0.0217(8) 0.814(4)
H9A H 0.889(3) -0.0499(12) 0.526(5)
H10A H 0.557(3) -0.0713(16) 0.142(5)
H11A H 0.579(3) -0.0699(12) 0.817(5)
H12A H 0.327(2) -0.1932(10) 0.457(4)
H13A H 0.885(3) -0.0953(11) 0.411(4)
H14A H 0.662(3) -0.1054(10) 0.150(5)
O7 O 0.5000 0.5000 -0.1771(4)
H15 H 0.442(3) 0.4914(14) -0.251(4)
H15A H 0.558(3) 0.5086(14) -0.251(4)
O8 O 0.5000 0.5000 0.3335(4)
H16 H 0.451(3) 0.4814(13) 0.261(4)
H16A H 0.549(3) 0.5186(13) 0.261(4)
loop_
_geom_bond_atom_site_label_1
_geom_bond_atom_site_label_2
_geom_bond_site_symmetry_1
_geom_bond_site_symmetry_2
Mg1 O1 1_555 1_555
O1 H4 1_555 1_555
O2 Mg1 1_555 1_555
O3 Mg1 1_555 1_555
N1 N2 1_555 1_555
N2 N3 1_555 1_555
N3 N4 1_555 1_555
N4 Mg1 1_555 1_555
N5 C1 1_555 1_555
N6 N7 1_555 1_555
N7 N8 1_555 1_555
N8 N9 1_555 1_555
N9 Mg1 1_555 1_555
C1 N1 1_555 1_555
C2 N5 1_555 1_555
H1 N5 1_555 1_555
H2 O3 1_555 1_555
H3 O2 1_555 1_555
H5 O2 1_555 1_555
H6 O1 1_555 1_555
H7 O3 1_555 1_555
Mg2 O4 1_555 1_555
O4 H8 1_555 1_555
O5 Mg2 1_555 1_555
O6 Mg2 1_555 1_555
N10 Mg2 1_555 1_555
N11 N10 1_555 1_555
N12 N11 1_555 1_555
N13 N12 1_555 1_555
N14 C3 1_555 1_555
N15 N16 1_555 1_555
N16 N17 1_555 1_555
N17 N18 1_555 1_555
N18 Mg2 1_555 1_555
C3 N10 1_555 1_555
C4 N14 1_555 1_555
H9 O5 1_555 1_555
H10 O6 1_555 1_555
H11 O4 1_555 1_555
H12 N14 1_555 1_555
H13 O5 1_555 1_555
H14 O6 1_555 1_555
O7 H15 1_555 1_555
O8 H16 1_555 1_555
Mg1B N1 1_555 1_555
N1B Mg1 1_555 1_555
Mg2A N17 1_555 1_555
O4A Mg2A 1_555 1_555
O5A Mg2A 1_555 1_555
O6A Mg2A 1_555 1_555
N10A Mg2A 1_555 1_555
N11A N10A 1_555 1_555
N12A N11A 1_555 1_555
N13A N12A 1_555 1_555
N14A C3A 1_555 1_555
N15A N16A 1_555 1_555
N16A N17A 1_555 1_555
N17A Mg2 1_555 1_555
N18A Mg2A 1_555 1_555
C3A N10A 1_555 1_555
C4A N14A 1_555 1_555
H8A O4A 1_555 1_555
H9A O5A 1_555 1_555
H10A O6A 1_555 1_555
H11A O4A 1_555 1_555
H12A N14A 1_555 1_555
H13A O5A 1_555 1_555
H14A O6A 1_555 1_555
H15A O7 1_555 1_555
H16A O8 1_555 1_555
N4 C1 1_555 1_555
N6 C2 1_555 1_555
N9 C2 1_555 1_555
N13 C3 1_555 1_555
N15 C4 1_555 1_555
N18 C4 1_555 1_555
N13A C3A 1_555 1_555
N15A C4A 1_555 1_555
N17A N18A 1_555 1_555
N18A C4A 1_555 1_555

#END
