
#######################################################################
#
#                 Cambridge Crystallographic Data Centre
#                                CCDC 
#
#######################################################################
#
# If this CIF has been generated from an entry in the Cambridge 
# Structural Database, then it will include bibliographic, chemical, 
# crystal, experimental, refinement or atomic coordinate data resulting 
# from the CCDC's data processing and validation procedures.
#
#######################################################################

data_YOZXAO
_symmetry_cell_setting           monoclinic
_symmetry_space_group_name_H-M   'P 21/c'
_symmetry_Int_Tables_number      14
_space_group_name_Hall           '-P 2ybc'
loop_
_symmetry_equiv_pos_site_id
_symmetry_equiv_pos_as_xyz
1 x,y,z
2 -x,1/2+y,1/2-z
3 -x,-y,-z
4 x,1/2-y,1/2+z
_cell_length_a                   17.749(5)
_cell_length_b                   8.573(5)
_cell_length_c                   18.271(7)
_cell_angle_alpha                90
_cell_angle_beta                 144.009(5)
_cell_angle_gamma                90
_cell_volume                     1633.78
loop_
_atom_site_label
_atom_site_type_symbol
_atom_site_fract_x
_atom_site_fract_y
_atom_site_fract_z
Cu1 Cu -0.06276(3) 0.40633(4) -0.61433(3)
O1 O 0.10173(17) 0.5075(2) -0.45346(17)
N1 N -0.2463(2) 0.3667(3) -0.7810(2)
N2 N -0.0042(2) 0.1684(3) -0.5190(2)
N3 N 0.0028(3) 0.3704(4) -0.6625(2)
C1 C 0.1049(3) -0.0897(4) -0.4445(3)
H1 H 0.1382 -0.1617 -0.4545
H2 H 0.1747 -0.0617 -0.3571
C2 C 0.2114(3) 0.5163(3) -0.4037(3)
C3 C -0.4376(3) 0.4149(4) -0.7668(3)
H3 H -0.5105 0.3765 -0.8472
C4 C -0.3239(3) 0.4249(4) -0.7182(3)
C5 C 0.2208(3) 0.4686(4) -0.4700(3)
C6 C 0.1166(3) 0.4026(4) -0.5939(3)
H4 H 0.1349 0.3808 -0.6283
C7 C 0.0569(3) 0.0563(4) -0.5206(3)
H5 H 0.1286 0.1067 -0.4884
H6 H -0.0043 0.0263 -0.6061
C8 C -0.3343(3) 0.3794(4) -0.8024(3)
C9 C -0.0797(4) 0.2920(6) -0.7824(3)
H7 H -0.0394 0.2992 -0.7985
H8 H -0.0877 0.1824 -0.7764
C10 C -0.2936(3) 0.3174(4) -0.8914(3)
H9 H -0.3777 0.3627 -0.9654
H10 H -0.3034 0.2049 -0.8992
C11 C 0.3379(3) 0.4829(5) -0.4157(3)
H11 H 0.3417 0.4517 -0.4615
C12 C 0.4469(3) 0.5414(5) -0.2978(4)
C13 C -0.2083(4) 0.3629(5) -0.8869(3)
H12 H -0.2490 0.3323 -0.9644
H13 H -0.1993 0.4755 -0.8803
C14 C 0.5727(4) 0.5540(8) -0.2407(5)
H14 H 0.5777 0.6541 -0.2602
H15 H 0.5766 0.4733 -0.2740
H16 H 0.6431 0.5425 -0.1519
H17 H 0.055(3) 0.202(4) -0.442(2)
O1B O -0.10173(17) 0.4925(2) -0.54654(17)
N1B N 0.2463(2) 0.6333(3) -0.2190(2)
N3B N -0.0028(3) 0.6296(4) -0.3375(2)
C2B C -0.2114(3) 0.4837(3) -0.5963(3)
C3B C 0.4376(3) 0.5851(4) -0.2332(3)
H3B H 0.5105 0.6235 -0.1528
C4B C 0.3239(3) 0.5751(4) -0.2818(3)
C5B C -0.2208(3) 0.5314(4) -0.5300(3)
C6B C -0.1166(3) 0.5974(4) -0.4061(3)
H4B H -0.1349 0.6192 -0.3717
C8B C 0.3343(3) 0.6206(4) -0.1976(3)
C9B C 0.0797(4) 0.7080(6) -0.2176(3)
H7B H 0.0394 0.7008 -0.2015
H8B H 0.0877 0.8176 -0.2236
C10B C 0.2936(3) 0.6826(4) -0.1086(3)
H9B H 0.3777 0.6373 -0.0346
H10B H 0.3034 0.7951 -0.1008
C11B C -0.3379(3) 0.5171(5) -0.5843(3)
H11B H -0.3417 0.5483 -0.5385
C12B C -0.4469(3) 0.4586(5) -0.7022(4)
C13B C 0.2083(4) 0.6371(5) -0.1131(3)
H12B H 0.2490 0.6677 -0.0356
H13B H 0.1993 0.5245 -0.1197
C14B C -0.5727(4) 0.4460(8) -0.7593(5)
H14B H -0.5777 0.3459 -0.7398
H15B H -0.5766 0.5267 -0.7260
H16B H -0.6431 0.4575 -0.8481
N2B N 0.0042(2) -0.1684(3) -0.4810(2)
C1B C -0.1049(3) 0.0897(4) -0.5555(3)
H1B H -0.1382 0.1617 -0.5455
H2B H -0.1747 0.0617 -0.6429
C7B C -0.0569(3) -0.0563(4) -0.4794(3)
H5B H -0.1286 -0.1067 -0.5116
H6B H 0.0043 -0.0263 -0.3939
H17B H -0.055(3) -0.202(4) -0.558(2)
Cu1B Cu 0.06276(3) -0.40633(4) -0.38567(3)
Cu1B_2 Cu 0.06276(3) 0.59367(4) -0.38567(3)
O1_2 O 0.10173(17) -0.4925(2) -0.45346(17)
O1B_2 O -0.10173(17) -0.5075(2) -0.54654(17)
N1B_2 N 0.2463(2) -0.3667(3) -0.2190(2)
N3B_2 N -0.0028(3) -0.3704(4) -0.3375(2)
Cl1 Cl -0.26742(9) 0.78196(10) -0.82948(8)
O2 O -0.3480(4) 0.7020(4) -0.9413(3)
O3 O -0.2961(4) 0.7563(5) -0.7779(4)
O4 O -0.1386(3) 0.7178(5) -0.7376(3)
O5 O -0.2592(5) 0.9416(4) -0.8394(4)
loop_
_geom_bond_atom_site_label_1
_geom_bond_atom_site_label_2
_geom_bond_site_symmetry_1
_geom_bond_site_symmetry_2
Cu1 O1 1_555 1_555
O1 C2 1_555 1_555
N1 Cu1 1_555 1_555
N2 Cu1 1_555 1_555
N3 Cu1 1_555 1_555
C1 H1 1_555 1_555
H2 C1 1_555 1_555
C2 C5 1_555 1_555
C3 H3 1_555 1_555
C4 C3 1_555 1_555
C5 C6 1_555 1_555
C6 N3 1_555 1_555
H4 C6 1_555 1_555
C7 N2 1_555 1_555
H5 C7 1_555 1_555
H6 C7 1_555 1_555
C8 N1 1_555 1_555
C9 N3 1_555 1_555
H7 C9 1_555 1_555
H8 C9 1_555 1_555
C10 N1 1_555 1_555
H9 C10 1_555 1_555
H10 C10 1_555 1_555
C11 C5 1_555 1_555
H11 C11 1_555 1_555
C12 C11 1_555 1_555
C13 C9 1_555 1_555
H12 C13 1_555 1_555
H13 C13 1_555 1_555
C14 C12 1_555 1_555
H14 C14 1_555 1_555
H15 C14 1_555 1_555
H16 C14 1_555 1_555
H17 N2 1_555 1_555
Cl1 O2 1_555 1_555
O3 Cl1 1_555 1_555
O4 Cl1 1_555 1_555
O5 Cl1 1_555 1_555
O1B Cu1 1_555 1_555
N1B C8B 1_555 1_555
N3B C6B 1_555 1_555
C2B C4 1_555 1_555
C3B C12 1_555 1_555
H3B C3B 1_555 1_555
C4B C2 1_555 1_555
C5B C2B 1_555 1_555
C6B C5B 1_555 1_555
H4B C6B 1_555 1_555
C8B C4B 1_555 1_555
C9B N3B 1_555 1_555
H7B C9B 1_555 1_555
H8B C9B 1_555 1_555
C10B N1B 1_555 1_555
H9B C10B 1_555 1_555
H10B C10B 1_555 1_555
C11B C5B 1_555 1_555
H11B C11B 1_555 1_555
C12B C3 1_555 1_555
C13B C9B 1_555 1_555
H12B C13B 1_555 1_555
H13B C13B 1_555 1_555
C14B C12B 1_555 1_555
H14B C14B 1_555 1_555
H15B C14B 1_555 1_555
H16B C14B 1_555 1_555
N2B C1 1_555 1_555
C1B N2 1_555 1_555
H1B C1B 1_555 1_555
H2B C1B 1_555 1_555
C7B N2B 1_555 1_555
H5B C7B 1_555 1_555
H6B C7B 1_555 1_555
H17B N2B 1_555 1_555
Cu1B N2B 1_555 1_555
Cu1B_2 O1 1_555 1_555
O1_2 Cu1B 1_555 1_555
O1B_2 Cu1B 1_555 1_555
N1B_2 Cu1B 1_555 1_555
N3B_2 Cu1B 1_555 1_555
C1 C7 1_555 1_555
C4 C8 1_555 1_555
C10 C13 1_555 1_555
O1B C2B 1_555 1_555
O1B Cu1B_2 1_555 1_555
N1B Cu1B_2 1_555 1_555
N3B Cu1B_2 1_555 1_555
C3B C4B 1_555 1_555
C10B C13B 1_555 1_555
C11B C12B 1_555 1_555
C1B C7B 1_555 1_555

#END
