
#######################################################################
#
#                 Cambridge Crystallographic Data Centre
#                                CCDC 
#
#######################################################################
#
# If this CIF has been generated from an entry in the Cambridge 
# Structural Database, then it will include bibliographic, chemical, 
# crystal, experimental, refinement or atomic coordinate data resulting 
# from the CCDC's data processing and validation procedures.
#
#######################################################################

data_YOZYOD
_symmetry_cell_setting           monoclinic
_symmetry_space_group_name_H-M   'C 2/c'
_symmetry_Int_Tables_number      15
_space_group_name_Hall           '-C 2yn'
loop_
_symmetry_equiv_pos_site_id
_symmetry_equiv_pos_as_xyz
1 x,y,z
2 -x,y,1/2-z
3 1/2+x,1/2+y,z
4 1/2-x,1/2+y,1/2-z
5 -x,-y,-z
6 x,-y,1/2+z
7 1/2-x,1/2-y,-z
8 1/2+x,1/2-y,1/2+z
_cell_length_a                   16.646(6)
_cell_length_b                   18.345(7)
_cell_length_c                   16.309(6)
_cell_angle_alpha                90
_cell_angle_beta                 108.893(4)
_cell_angle_gamma                90
_cell_volume                     4711.98
loop_
_atom_site_label
_atom_site_type_symbol
_atom_site_fract_x
_atom_site_fract_y
_atom_site_fract_z
Zn1 Zn 0.05950(3) 0.13772(3) 0.36451(4)
Zn2 Zn 0.2500 0.2500 0.5000
O1 O 0.0969(2) 0.09731(19) 0.4812(2)
O2 O 0.2264(2) 0.14091(17) 0.5046(2)
O3 O 0.5105(2) 0.26561(19) 0.8497(3)
O4 O 0.6217(3) 0.2248(2) 0.9492(4)
O5 O 0.6587(3) -0.0404(2) 0.9950(3)
H1 H 0.6859 -0.0785 1.0063
O6 O 0.5535(3) -0.1161(2) 0.9272(3)
O7 O 0.1358(2) -0.09608(19) 0.8085(2)
O8 O 0.0436(2) -0.0770(2) 0.6766(2)
C1 C 0.1745(3) 0.1052(2) 0.5274(3)
C2 C 0.2015(3) 0.0682(3) 0.6141(3)
C3 C 0.2816(3) 0.0820(3) 0.6721(3)
H2 H 0.3174 0.1147 0.6574
C4 C 0.3092(3) 0.0470(3) 0.7533(3)
C5 C 0.2536(3) -0.0025(3) 0.7741(3)
H3 H 0.2702 -0.0260 0.8275
C6 C 0.1737(3) -0.0158(3) 0.7143(3)
C7 C 0.1488(3) 0.0188(3) 0.6342(3)
H4 H 0.0961 0.0085 0.5940
C8 C 0.1128(3) -0.0668(3) 0.7353(3)
C9 C 0.3974(3) 0.0593(3) 0.8126(3)
C10 C 0.4338(3) 0.1285(3) 0.8240(3)
H5 H 0.4033 0.1676 0.7927
C11 C 0.5151(3) 0.1400(3) 0.8813(3)
C12 C 0.5634(3) 0.0811(3) 0.9232(3)
H6 H 0.6180 0.0884 0.9614
C13 C 0.5302(3) 0.0114(3) 0.9079(3)
C14 C 0.4473(3) 0.0017(3) 0.8553(4)
H7 H 0.4242 -0.0450 0.8484
C15 C 0.5528(3) 0.2156(3) 0.8938(4)
C16 C 0.5812(3) -0.0545(3) 0.9444(4)
N1 N 0.2009(4) 0.2941(3) 0.7362(4)
O9 O 0.2488(4) 0.2615(3) 0.6297(4)
C17 C 0.1968(5) 0.2862(4) 0.6494(9)
H8 H 0.1484 0.3024 0.6063
C18 C 0.2762(7) 0.2826(6) 0.8069(6)
H9 H 0.2753 0.2347 0.8301
H10 H 0.2798 0.3183 0.8510
H11 H 0.3246 0.2872 0.7874
C19 C 0.1278(6) 0.3208(6) 0.7567(7)
H12 H 0.1443 0.3616 0.7955
H13 H 0.1059 0.2828 0.7839
H14 H 0.0847 0.3359 0.7044
Zn1A Zn 0.94050(3) 0.13772(3) 1.13549(4)
O1A O 0.9031(2) 0.09731(19) 1.0188(2)
O2A O 0.7736(2) 0.14091(17) 0.9954(2)
O3A O 0.4895(2) 0.26561(19) 0.6503(3)
O4A O 0.3783(3) 0.2248(2) 0.5508(4)
O5A O 0.3413(3) -0.0404(2) 0.5050(3)
H1A H 0.3141 -0.0785 0.4937
O6A O 0.4465(3) -0.1161(2) 0.5728(3)
O7A O 0.8642(2) -0.09608(19) 0.6915(2)
O8A O 0.9564(2) -0.0770(2) 0.8234(2)
C1A C 0.8255(3) 0.1052(2) 0.9726(3)
C2A C 0.7985(3) 0.0682(3) 0.8859(3)
C3A C 0.7184(3) 0.0820(3) 0.8279(3)
H2A H 0.6826 0.1147 0.8426
C4A C 0.6908(3) 0.0470(3) 0.7467(3)
C5A C 0.7464(3) -0.0025(3) 0.7259(3)
H3A H 0.7298 -0.0260 0.6725
C6A C 0.8263(3) -0.0158(3) 0.7857(3)
C7A C 0.8512(3) 0.0188(3) 0.8658(3)
H4A H 0.9039 0.0085 0.9060
C8A C 0.8872(3) -0.0668(3) 0.7647(3)
C9A C 0.6026(3) 0.0593(3) 0.6874(3)
C10A C 0.5662(3) 0.1285(3) 0.6760(3)
H5A H 0.5967 0.1676 0.7073
C11A C 0.4849(3) 0.1400(3) 0.6187(3)
C12A C 0.4366(3) 0.0811(3) 0.5768(3)
H6A H 0.3820 0.0884 0.5386
C13A C 0.4698(3) 0.0114(3) 0.5921(3)
C14A C 0.5527(3) 0.0017(3) 0.6447(4)
H7A H 0.5758 -0.0450 0.6516
C15A C 0.4472(3) 0.2156(3) 0.6062(4)
C16A C 0.4188(3) -0.0545(3) 0.5556(4)
N1F N 0.2991(4) 0.2059(3) 0.2638(4)
O9F O 0.2512(4) 0.2385(3) 0.3703(4)
C17F C 0.3032(5) 0.2138(4) 0.3506(9)
H8F H 0.3516 0.1976 0.3937
C18F C 0.2238(7) 0.2174(6) 0.1931(6)
H9F H 0.2247 0.2653 0.1699
H10F H 0.2202 0.1817 0.1490
H11F H 0.1754 0.2128 0.2126
C19F C 0.3722(6) 0.1792(6) 0.2433(7)
H12F H 0.3557 0.1384 0.2045
H13F H 0.3941 0.2172 0.2161
H14F H 0.4153 0.1641 0.2956
Zn1D Zn -0.05950(3) -0.13772(3) 0.63549(4)
Zn1D_2 Zn 0.94050(3) -0.13772(3) 0.63549(4)
Zn1E Zn 0.05950(3) -0.13772(3) 0.86451(4)
Zn1E_2 Zn 1.05950(3) -0.13772(3) 0.86451(4)
Zn1F Zn 0.44050(3) 0.36228(3) 0.63549(4)
Zn1G Zn 0.55950(3) 0.36228(3) 0.86451(4)
Zn2A Zn 0.7500 0.2500 1.0000
O2F O 0.2736(2) 0.35909(17) 0.4954(2)
O3F O 0.9895(2) 0.23439(19) 1.1503(3)
O3G O 0.0105(2) 0.23439(19) 0.3497(3)
O4G O 0.1217(3) 0.2752(2) 0.4492(4)
O7D O 0.8642(2) 0.09608(19) 1.1915(2)
O7E O 0.1358(2) 0.09608(19) 0.3085(2)
O8D O -0.0436(2) 0.0770(2) 0.3234(2)
O8E O 1.0436(2) 0.0770(2) 1.1766(2)
N2 N 0.8987(5) 0.8499(4) 0.0768(5)
O10 O 0.7582(5) 0.8451(4) 0.0399(6)
C20 C 0.8305(9) 0.8132(8) 0.0447(8)
H15 H 0.8318 0.7656 0.0256
C21 C 0.9651(12) 0.8086(10) 0.0733(14)
H16 H 0.9463 0.7595 0.0582
H17 H 1.0086 0.8090 0.1289
H18 H 0.9873 0.8281 0.0304
C22 C 0.9042(12) 0.9221(6) 0.0966(11)
H19 H 0.8729 0.9497 0.0463
H20 H 0.9627 0.9369 0.1151
H21 H 0.8809 0.9308 0.1424
loop_
_geom_bond_atom_site_label_1
_geom_bond_atom_site_label_2
_geom_bond_site_symmetry_1
_geom_bond_site_symmetry_2
Zn1 O1 1_555 1_555
Zn2 O2 1_555 1_555
O1 C1 1_555 1_555
O2 C1 1_555 1_555
O3 C15 1_555 1_555
O4 C15 1_555 1_555
O5 H1 1_555 1_555
O6 C16 1_555 1_555
O7 C8 1_555 1_555
O8 C8 1_555 1_555
C1 C2 1_555 1_555
C2 C3 1_555 1_555
C3 H2 1_555 1_555
C4 C3 1_555 1_555
C5 C4 1_555 1_555
H3 C5 1_555 1_555
C6 C5 1_555 1_555
C7 C2 1_555 1_555
H4 C7 1_555 1_555
C8 C6 1_555 1_555
C9 C4 1_555 1_555
C10 C9 1_555 1_555
H5 C10 1_555 1_555
C11 C10 1_555 1_555
C12 C11 1_555 1_555
H6 C12 1_555 1_555
C13 C12 1_555 1_555
C14 C9 1_555 1_555
H7 C14 1_555 1_555
C15 C11 1_555 1_555
C16 O5 1_555 1_555
N1 C17 1_555 1_555
O9 Zn2 1_555 1_555
C17 O9 1_555 1_555
H8 C17 1_555 1_555
C18 N1 1_555 1_555
H9 C18 1_555 1_555
H10 C18 1_555 1_555
H11 C18 1_555 1_555
C19 N1 1_555 1_555
H12 C19 1_555 1_555
H13 C19 1_555 1_555
H14 C19 1_555 1_555
N2 C20 1_555 1_555
O10 C20 1_555 1_555
C20 H15 1_555 1_555
C21 N2 1_555 1_555
H16 C21 1_555 1_555
H17 C21 1_555 1_555
H18 C21 1_555 1_555
C22 N2 1_555 1_555
H19 C22 1_555 1_555
H20 C22 1_555 1_555
H21 C22 1_555 1_555
Zn1A O1A 1_555 1_555
O1A C1A 1_555 1_555
O2A C1A 1_555 1_555
O3A C15A 1_555 1_555
O4A Zn2 1_555 1_555
O5A H1A 1_555 1_555
O6A C16A 1_555 1_555
O7A C8A 1_555 1_555
O8A C8A 1_555 1_555
C1A C2A 1_555 1_555
C2A C3A 1_555 1_555
C3A H2A 1_555 1_555
C4A C3A 1_555 1_555
C5A C4A 1_555 1_555
H3A C5A 1_555 1_555
C6A C5A 1_555 1_555
C7A C2A 1_555 1_555
H4A C7A 1_555 1_555
C8A C6A 1_555 1_555
C9A C4A 1_555 1_555
C10A C9A 1_555 1_555
H5A C10A 1_555 1_555
C11A C10A 1_555 1_555
C12A C11A 1_555 1_555
H6A C12A 1_555 1_555
C13A C12A 1_555 1_555
C14A C9A 1_555 1_555
H7A C14A 1_555 1_555
C15A O4A 1_555 1_555
C16A O5A 1_555 1_555
N1F C17F 1_555 1_555
O9F Zn2 1_555 1_555
C17F O9F 1_555 1_555
H8F C17F 1_555 1_555
C18F N1F 1_555 1_555
H9F C18F 1_555 1_555
H10F C18F 1_555 1_555
H11F C18F 1_555 1_555
C19F N1F 1_555 1_555
H12F C19F 1_555 1_555
H13F C19F 1_555 1_555
H14F C19F 1_555 1_555
Zn1D O8 1_555 1_555
Zn1D_2 O7A 1_555 1_555
Zn1E O7 1_555 1_555
Zn1E_2 O8A 1_555 1_555
Zn1F O3A 1_555 1_555
Zn1G O3 1_555 1_555
Zn2A O4 1_555 1_555
O2F Zn2 1_555 1_555
O3F Zn1A 1_555 1_555
O3G Zn1 1_555 1_555
O4G Zn2 1_555 1_555
O7D Zn1A 1_555 1_555
O7E Zn1 1_555 1_555
O8D Zn1 1_555 1_555
O8E Zn1A 1_555 1_555
C6 C7 1_555 1_555
C13 C14 1_555 1_555
C13 C16 1_555 1_555
O2A Zn2A 1_555 1_555
C6A C7A 1_555 1_555
C11A C15A 1_555 1_555
C13A C14A 1_555 1_555
C13A C16A 1_555 1_555

#END
