
#######################################################################
#
#                 Cambridge Crystallographic Data Centre
#                                CCDC 
#
#######################################################################
#
# If this CIF has been generated from an entry in the Cambridge 
# Structural Database, then it will include bibliographic, chemical, 
# crystal, experimental, refinement or atomic coordinate data resulting 
# from the CCDC's data processing and validation procedures.
#
#######################################################################

data_YUBFIL
_symmetry_cell_setting           monoclinic
_symmetry_space_group_name_H-M   'C 2/c'
_symmetry_Int_Tables_number      15
_space_group_name_Hall           '-C 2yn'
loop_
_symmetry_equiv_pos_site_id
_symmetry_equiv_pos_as_xyz
1 x,y,z
2 -x,y,1/2-z
3 1/2+x,1/2+y,z
4 1/2-x,1/2+y,1/2-z
5 -x,-y,-z
6 x,-y,1/2+z
7 1/2-x,1/2-y,-z
8 1/2+x,1/2-y,1/2+z
_cell_length_a                   18.563(2)
_cell_length_b                   9.1869(11)
_cell_length_c                   9.8073(12)
_cell_angle_alpha                90
_cell_angle_beta                 90.048(2)
_cell_angle_gamma                90
_cell_volume                     1672.5
loop_
_atom_site_label
_atom_site_type_symbol
_atom_site_fract_x
_atom_site_fract_y
_atom_site_fract_z
Zn1 Zn 0.17410(2) 0.19104(4) 0.38826(4)
O1 O 0.08061(16) 0.2665(4) 0.3439(3)
N1 N 0.19314(16) 0.1202(3) 0.5773(3)
C1 C 0.2507(2) 0.0673(4) 0.7635(4)
N2 N 0.25241(17) 0.1542(3) 0.6561(3)
N3 N 0.19264(17) -0.0225(3) 0.7588(3)
C2 C 0.1584(2) 0.0148(4) 0.6413(4)
O2 O 0.0494(3) 0.3354(6) 0.5474(5)
C3 C 0.0423(2) 0.3326(5) 0.4249(5)
H1 H 0.0041 0.3855 0.3886
C4 C 0.0903(2) -0.0490(5) 0.5907(5)
H2 H 0.0773 -0.0037 0.5060
H3 H 0.0528 -0.0330 0.6565
H4 H 0.0965 -0.1516 0.5769
C5 C 0.3044(3) 0.0711(6) 0.8756(5)
H5 H 0.3399 0.1443 0.8566
H6 H 0.3275 -0.0221 0.8829
H7 H 0.2806 0.0936 0.9599
Zn1F Zn 0.32590(2) 0.30896(4) 0.61174(4)
Zn1E Zn 0.17410(2) -0.19104(4) 0.88826(4)
N2F N 0.24759(17) 0.3458(3) 0.3439(3)
N3E N 0.19264(17) 0.0225(3) 0.2588(3)
O3 O 0.0966(4) 0.3014(7) 0.8251(6)
H8 H 0.1361 0.3418 0.8470
H9 H 0.0805 0.3346 0.7446
loop_
_geom_bond_atom_site_label_1
_geom_bond_atom_site_label_2
_geom_bond_site_symmetry_1
_geom_bond_site_symmetry_2
Zn1 O1 1_555 1_555
O1 C3 1_555 1_555
N1 Zn1 1_555 1_555
C1 N2 1_555 1_555
N2 N1 1_555 1_555
N3 C1 1_555 1_555
C2 N1 1_555 1_555
O2 C3 1_555 1_555
C3 H1 1_555 1_555
C4 C2 1_555 1_555
H2 C4 1_555 1_555
H3 C4 1_555 1_555
H4 C4 1_555 1_555
C5 C1 1_555 1_555
H5 C5 1_555 1_555
H6 C5 1_555 1_555
H7 C5 1_555 1_555
O3 H8 1_555 1_555
H9 O3 1_555 1_555
Zn1F N2 1_555 1_555
Zn1E N3 1_555 1_555
N2F Zn1 1_555 1_555
N3E Zn1 1_555 1_555
N3 C2 1_555 1_555

#END
