
#######################################################################
#
#                 Cambridge Crystallographic Data Centre
#                                CCDC 
#
#######################################################################
#
# If this CIF has been generated from an entry in the Cambridge 
# Structural Database, then it will include bibliographic, chemical, 
# crystal, experimental, refinement or atomic coordinate data resulting 
# from the CCDC's data processing and validation procedures.
#
#######################################################################

data_YUBGIN
_symmetry_cell_setting           triclinic
_symmetry_space_group_name_H-M   'P -1'
_symmetry_Int_Tables_number      2
_space_group_name_Hall           '-P 1'
loop_
_symmetry_equiv_pos_site_id
_symmetry_equiv_pos_as_xyz
1 x,y,z
2 -x,-y,-z
_cell_length_a                   9.6655(19)
_cell_length_b                   11.002(2)
_cell_length_c                   15.304(3)
_cell_angle_alpha                108.95(3)
_cell_angle_beta                 95.14(3)
_cell_angle_gamma                109.32(3)
_cell_volume                     1416.71
loop_
_atom_site_label
_atom_site_type_symbol
_atom_site_fract_x
_atom_site_fract_y
_atom_site_fract_z
U1 U 0.88670(6) 0.18904(5) 0.11375(4)
U2 U 0.14972(7) -0.33593(6) 0.49976(4)
O1 O 1.0525(12) 0.2643(13) 0.1991(9)
O2 O 0.7238(16) 0.1144(14) 0.0281(10)
O3 O 0.8256(11) 0.3857(10) 0.2053(8)
O4 O 0.9393(12) 0.4076(10) 0.0892(7)
C1 C 0.8836(16) 0.4583(14) 0.1576(11)
C2 C 0.8851(16) 0.6006(14) 0.1832(11)
C3 C 0.9087(16) 0.6668(14) 0.1190(11)
H1 H 0.9244 0.6215 0.0602
C4 C 0.9091(16) 0.7981(14) 0.1420(11)
C5 C 0.887(2) 0.8652(17) 0.2300(12)
H2 H 0.8831 0.9528 0.2448
C6 C 0.871(2) 0.8045(19) 0.2954(13)
H3 H 0.8644 0.8535 0.3562
C7 C 0.8632(19) 0.6670(16) 0.2699(12)
H4 H 0.8436 0.6218 0.3119
C8 C 0.9305(19) 0.8689(15) 0.0734(12)
O5 O 0.9040(16) 0.9753(12) 0.0884(9)
O6 O 0.9726(17) 0.8177(13) 0.0005(10)
O7 O 0.2883(16) -0.3991(17) 0.5146(11)
O8 O 0.0163(16) -0.2638(15) 0.4876(10)
O9 O -0.0236(14) -0.5580(14) 0.4066(8)
H5 H 0.00(2) -0.58(2) 0.354(6)
H6 H -0.104(14) -0.54(2) 0.403(12)
O10 O 0.1760(12) -0.3698(12) 0.3362(8)
O11 O 0.3253(15) -0.1717(14) 0.4452(10)
C9 C 0.6785(17) 0.0796(16) 0.2729(11)
C10 C 0.5515(15) -0.0535(14) 0.2462(10)
C11 C 0.4805(16) -0.0905(15) 0.3139(11)
H7 H 0.5158 -0.0317 0.3774
C12 C 0.3579(15) -0.2139(15) 0.2877(11)
C13 C 0.2999(19) -0.2982(18) 0.1923(12)
H8 H 0.2158 -0.3802 0.1744
C14 C 0.367(2) -0.2603(19) 0.1243(13)
H9 H 0.3286 -0.3173 0.0606
C15 C 0.4923(18) -0.1363(17) 0.1510(12)
H10 H 0.5360 -0.1094 0.1051
C16 C 0.2812(18) -0.2522(16) 0.3602(12)
O12 O 0.7463(13) 0.1128(11) 0.2132(9)
O13 O 0.724(2) 0.157(2) 0.3555(13)
U1_2 U 0.88670(6) 1.18904(5) 0.11375(4)
U1A U 1.11330(6) 0.81096(5) -0.11375(4)
U2A U -0.14972(7) -0.66407(6) 0.50024(4)
U2A_2 U 0.85028(7) 0.33593(6) 0.50024(4)
O5_2 O 0.9040(16) -0.0247(12) 0.0884(9)
O6A O 1.0274(17) 0.1823(13) -0.0005(10)
O9A O 0.0236(14) -0.4420(14) 0.5934(8)
O13A O 0.276(2) -0.157(2) 0.6445(13)
loop_
_geom_bond_atom_site_label_1
_geom_bond_atom_site_label_2
_geom_bond_site_symmetry_1
_geom_bond_site_symmetry_2
U1 O1 1_555 1_555
U2 O7 1_555 1_555
O2 U1 1_555 1_555
O3 U1 1_555 1_555
O4 U1 1_555 1_555
C1 O3 1_555 1_555
C2 C1 1_555 1_555
C3 C2 1_555 1_555
H1 C3 1_555 1_555
C4 C3 1_555 1_555
C5 C4 1_555 1_555
H2 C5 1_555 1_555
C6 C5 1_555 1_555
H3 C6 1_555 1_555
C7 C2 1_555 1_555
H4 C7 1_555 1_555
C8 C4 1_555 1_555
O5 C8 1_555 1_555
O6 C8 1_555 1_555
O8 U2 1_555 1_555
O9 U2 1_555 1_555
H5 O9 1_555 1_555
H6 O9 1_555 1_555
O10 U2 1_555 1_555
O11 U2 1_555 1_555
C9 C10 1_555 1_555
C10 C11 1_555 1_555
C11 H7 1_555 1_555
C12 C11 1_555 1_555
C13 C12 1_555 1_555
H8 C13 1_555 1_555
C14 C13 1_555 1_555
H9 C14 1_555 1_555
C15 C10 1_555 1_555
H10 C15 1_555 1_555
C16 O10 1_555 1_555
O12 U1 1_555 1_555
O13 C9 1_555 1_555
U1_2 O5 1_555 1_555
U1A O6 1_555 1_555
U2A O9 1_555 1_555
U2A_2 O13 1_555 1_555
O5_2 U1 1_555 1_555
O6A U1 1_555 1_555
O9A U2 1_555 1_555
O13A U2 1_555 1_555
O4 C1 1_555 1_555
C6 C7 1_555 1_555
O11 C16 1_555 1_555
C9 O12 1_555 1_555
C12 C16 1_555 1_555
C14 C15 1_555 1_555
U2A O9A 1_555 1_555

#END
