
#######################################################################
#
#                 Cambridge Crystallographic Data Centre
#                                CCDC 
#
#######################################################################
#
# If this CIF has been generated from an entry in the Cambridge 
# Structural Database, then it will include bibliographic, chemical, 
# crystal, experimental, refinement or atomic coordinate data resulting 
# from the CCDC's data processing and validation procedures.
#
#######################################################################

data_YUBGUZ
_symmetry_cell_setting           triclinic
_symmetry_space_group_name_H-M   'P -1'
_symmetry_Int_Tables_number      2
_space_group_name_Hall           '-P 1'
loop_
_symmetry_equiv_pos_site_id
_symmetry_equiv_pos_as_xyz
1 x,y,z
2 -x,-y,-z
_cell_length_a                   9.6416(19)
_cell_length_b                   10.973(2)
_cell_length_c                   15.997(3)
_cell_angle_alpha                109.52(3)
_cell_angle_beta                 91.56(3)
_cell_angle_gamma                109.61(3)
_cell_volume                     1484.02
loop_
_atom_site_label
_atom_site_type_symbol
_atom_site_fract_x
_atom_site_fract_y
_atom_site_fract_z
U1 U 0.10097(5) 0.29971(4) 0.37978(3)
U2 U 0.85495(5) 0.82900(4) -0.00320(3)
O1 O -0.0603(10) 0.2365(7) 0.3067(6)
O2 O 0.2646(10) 0.3609(7) 0.4531(6)
O3 O 0.1450(8) 0.0911(7) 0.2858(6)
O4 O 0.0379(9) 0.0800(7) 0.4030(6)
C1 C 0.0886(12) 0.0242(11) 0.3330(8)
C2 C 0.0845(12) -0.1202(10) 0.3124(8)
C3 C 0.0938(14) -0.1978(10) 0.2264(8)
H1 H 0.1033 -0.1580 0.1829
C4 C 0.0897(14) -0.3323(12) 0.2022(9)
C5 C 0.0742(14) -0.3932(11) 0.2674(8)
H2 H 0.0650 -0.4853 0.2524
C6 C 0.0728(13) -0.3121(10) 0.3554(8)
C7 C 0.0735(12) -0.1789(9) 0.3793(7)
H3 H 0.0668 -0.1292 0.4379
C8 C 0.0710(13) -0.3732(10) 0.4304(9)
O5 O 0.0323(12) -0.3163(9) 0.4997(6)
O6 O 0.1037(10) -0.4773(7) 0.4136(6)
N1 N 0.0890(17) -0.4116(12) 0.1142(8)
H4 H 0.0912 -0.3773 0.0729
H5 H 0.0864 -0.4951 0.1007
O7 O 0.9959(10) 0.7699(9) 0.0147(7)
O8 O 0.7111(11) 0.8809(10) -0.0232(7)
O9 O 0.6768(11) 0.6558(9) 0.0473(6)
O10 O 0.8017(10) 0.8579(8) 0.1491(6)
C9 C 0.7076(14) 0.7375(12) 0.1283(8)
C10 C 0.6265(13) 0.6972(11) 0.1981(9)
C11 C 0.6846(13) 0.7762(12) 0.2849(9)
H6 H 0.7697 0.8559 0.2991
C12 C 0.6160(14) 0.7380(12) 0.3548(8)
C13 C 0.4874(13) 0.6202(11) 0.3308(9)
H7 H 0.4392 0.5944 0.3752
C14 C 0.4298(12) 0.5398(10) 0.2404(8)
C15 C 0.5000(13) 0.5786(11) 0.1744(8)
H8 H 0.4622 0.5252 0.1142
C16 C 0.2901(12) 0.4113(11) 0.2160(8)
O11 O 0.2245(11) 0.3605(9) 0.1389(6)
O12 O 0.2437(9) 0.3679(7) 0.2770(6)
N2 N 0.6784(14) 0.8168(13) 0.4428(9)
H9 H 0.6378 0.7936 0.4851
H10 H 0.7583 0.8894 0.4556
O13 O 1.0023(10) 0.9439(7) -0.0864(6)
H11 H 1.0471 0.9105 -0.1219
H12 H 0.9502 0.9436 -0.1263
U1_2 U 0.10097(5) -0.70029(4) 0.37978(3)
U1A U -0.10097(5) -0.29971(4) 0.62022(3)
U2A U 0.14505(5) 0.17100(4) 0.00320(3)
U2A_2 U 1.14505(5) 1.17100(4) 0.00320(3)
O5A O -0.0323(12) 0.3163(9) 0.5003(6)
O6_2 O 0.1037(10) 0.5227(7) 0.4136(6)
O11A O 0.7755(11) 0.6395(9) -0.1389(6)
O13A O 0.9977(10) 1.0561(7) 0.0864(6)
N3 N 0.5877(6) 0.1515(4) 0.2450(3)
H13 H 0.6652 0.1576 0.2134
C17 C 0.4539(11) 0.0575(7) 0.1843(7)
H14 H 0.4327 0.1081 0.1493
H15 H 0.3764 0.0464 0.2216
C18 C 0.424(2) -0.0906(11) 0.1157(13)
H16 H 0.3270 -0.1261 0.0803
H17 H 0.4271 -0.1504 0.1472
H18 H 0.4982 -0.0871 0.0771
C19 C 0.6132(12) 0.1004(8) 0.3129(5)
H19 H 0.7111 0.1632 0.3464
H20 H 0.6236 0.0124 0.2811
C20 C 0.514(2) 0.0743(17) 0.3850(8)
H21 H 0.5578 0.0374 0.4207
H22 H 0.4163 0.0092 0.3559
H23 H 0.5078 0.1603 0.4229
C21 C 0.5820(13) 0.2864(6) 0.2839(9)
H24 H 0.5351 0.2859 0.3367
H25 H 0.5106 0.2903 0.2419
C22 C 0.711(2) 0.4293(8) 0.314(3)
H26 H 0.6733 0.5015 0.3414
H27 H 0.7537 0.4422 0.2625
H28 H 0.7859 0.4328 0.3563
H29? H 0.5145 0.1163 0.1968
C23? C 0.7262(9) 0.2071(9) 0.2172(6)
H30? H 0.7889 0.1637 0.2344
H31? H 0.7675 0.3041 0.2565
C24? C 0.7595(17) 0.207(3) 0.1234(8)
H32? H 0.8601 0.2685 0.1285
H33? H 0.6918 0.2382 0.0988
H34? H 0.7472 0.1148 0.0847
C25? C 0.5827(12) 0.0384(7) 0.2714(7)
H35? H 0.6843 0.0608 0.2975
H36? H 0.5621 -0.0405 0.2158
C26? C 0.483(3) -0.0190(14) 0.3347(10)
H37? H 0.4991 -0.0998 0.3368
H38? H 0.3803 -0.0435 0.3124
H39? H 0.5088 0.0508 0.3939
C27? C 0.5590(12) 0.2564(9) 0.3151(7)
H40? H 0.4740 0.2068 0.3374
H41? H 0.5234 0.3066 0.2854
C28? C 0.667(3) 0.3696(18) 0.4000(10)
H42? H 0.6109 0.4100 0.4421
H43? H 0.7366 0.4405 0.3836
H44? H 0.7198 0.3286 0.4270
loop_
_geom_bond_atom_site_label_1
_geom_bond_atom_site_label_2
_geom_bond_site_symmetry_1
_geom_bond_site_symmetry_2
U1 O1 1_555 1_555
U2 O7 1_555 1_555
O2 U1 1_555 1_555
O3 U1 1_555 1_555
O4 U1 1_555 1_555
C1 O3 1_555 1_555
C2 C1 1_555 1_555
C3 C2 1_555 1_555
H1 C3 1_555 1_555
C4 C3 1_555 1_555
C5 C4 1_555 1_555
H2 C5 1_555 1_555
C6 C5 1_555 1_555
C7 C2 1_555 1_555
H3 C7 1_555 1_555
C8 C6 1_555 1_555
O5 C8 1_555 1_555
O6 C8 1_555 1_555
N1 C4 1_555 1_555
H4 N1 1_555 1_555
H5 N1 1_555 1_555
O8 U2 1_555 1_555
O9 U2 1_555 1_555
O10 U2 1_555 1_555
C9 O9 1_555 1_555
C10 C9 1_555 1_555
C11 C10 1_555 1_555
H6 C11 1_555 1_555
C12 C11 1_555 1_555
C13 C12 1_555 1_555
H7 C13 1_555 1_555
C14 C13 1_555 1_555
C15 C10 1_555 1_555
H8 C15 1_555 1_555
C16 C14 1_555 1_555
O11 C16 1_555 1_555
O12 U1 1_555 1_555
N2 C12 1_555 1_555
H9 N2 1_555 1_555
H10 N2 1_555 1_555
O13 U2 1_555 1_555
H11 O13 1_555 1_555
H12 O13 1_555 1_555
N3 H13 1_555 1_555
C17 N3 1_555 1_555
H14 C17 1_555 1_555
H15 C17 1_555 1_555
C18 C17 1_555 1_555
H16 C18 1_555 1_555
H17 C18 1_555 1_555
H18 C18 1_555 1_555
C19 N3 1_555 1_555
H19 C19 1_555 1_555
H20 C19 1_555 1_555
C20 C19 1_555 1_555
H21 C20 1_555 1_555
H22 C20 1_555 1_555
H23 C20 1_555 1_555
C21 N3 1_555 1_555
H24 C21 1_555 1_555
H25 C21 1_555 1_555
C22 C21 1_555 1_555
H26 C22 1_555 1_555
H27 C22 1_555 1_555
H28 C22 1_555 1_555
U1_2 O6 1_555 1_555
U1A O5 1_555 1_555
U2A O11 1_555 1_555
U2A_2 O13 1_555 1_555
O5A U1 1_555 1_555
O6_2 U1 1_555 1_555
O11A U2 1_555 1_555
O13A U2 1_555 1_555
O4 C1 1_555 1_555
C6 C7 1_555 1_555
O10 C9 1_555 1_555
C14 C15 1_555 1_555
C16 O12 1_555 1_555
U2A_2 O13A 1_555 1_555

#END
