
#######################################################################
#
#                 Cambridge Crystallographic Data Centre
#                                CCDC 
#
#######################################################################
#
# If this CIF has been generated from an entry in the Cambridge 
# Structural Database, then it will include bibliographic, chemical, 
# crystal, experimental, refinement or atomic coordinate data resulting 
# from the CCDC's data processing and validation procedures.
#
#######################################################################

data_YUBHAE
_symmetry_cell_setting           orthorhombic
_symmetry_space_group_name_H-M   'P 21 21 21'
_symmetry_Int_Tables_number      19
_space_group_name_Hall           'P 2ac 2ab'
loop_
_symmetry_equiv_pos_site_id
_symmetry_equiv_pos_as_xyz
1 x,y,z
2 1/2-x,-y,1/2+z
3 1/2+x,1/2-y,-z
4 -x,1/2+y,1/2-z
_cell_length_a                   10.074(4)
_cell_length_b                   12.575(4)
_cell_length_c                   16.144(6)
_cell_angle_alpha                90
_cell_angle_beta                 90
_cell_angle_gamma                90
_cell_volume                     2045.13
loop_
_atom_site_label
_atom_site_type_symbol
_atom_site_fract_x
_atom_site_fract_y
_atom_site_fract_z
S1 S 0.4021(5) 0.2067(3) 0.4793(2)
Ag1 Ag 0.6337(1) 0.0774(1) 0.3738(1)
C1 C 0.3598(16) 0.2783(8) 0.3908(7)
C2 C 0.4491(13) 0.3106(8) 0.3361(7)
S2 S 0.6166(3) 0.2750(2) 0.3452(2)
C3 C 0.6753(15) 0.2984(11) 0.2397(9)
C4 C 0.8195(15) 0.2604(13) 0.2366(12)
O1 O 0.8192(10) 0.1501(9) 0.2523(8)
C5 C 0.9523(18) 0.1128(16) 0.2641(15)
C6 C 0.9507(19) 0.0135(21) 0.3057(16)
O2 O 0.8920(11) 0.0172(7) 0.3826(8)
C7 C 0.8876(20) -0.0805(15) 0.4315(14)
C8 C 0.8213(25) -0.0684(19) 0.5062(13)
O3 O 0.6860(15) -0.0408(9) 0.4940(7)
C9 C 0.5989(24) -0.1263(16) 0.4969(13)
C10 C 0.4638(23) -0.0865(16) 0.4996(12)
O4 O 0.4298(11) -0.0285(8) 0.4268(6)
C11 C 0.3045(17) 0.0154(11) 0.4259(10)
C12 C 0.2760(16) 0.1048(9) 0.4855(9)
C13 C 0.2238(18) 0.3089(10) 0.3784(10)
N1 N 0.1152(13) 0.3340(10) 0.3749(9)
C14 C 0.4137(12) 0.3807(10) 0.2709(8)
N2 N 0.6168(12) -0.0608(8) 0.2800(7)
H1 H 0.6675 0.3723 0.2257
H2 H 0.6235 0.2576 0.2011
H3 H 0.8694 0.2956 0.2792
H4 H 0.8584 0.2769 0.1839
H5 H 0.9951 0.1620 0.3010
H6 H 1.0016 0.1110 0.2133
H7 H 1.0398 -0.0131 0.3101
H8 H 0.9014 -0.0340 0.2709
H9 H 0.9772 -0.1024 0.4424
H10 H 0.8455 -0.1362 0.4005
H11 H 0.8632 -0.0136 0.5383
H12 H 0.8268 -0.1337 0.5368
H13 H 0.6143 -0.1688 0.5453
H14 H 0.6100 -0.1708 0.4490
H15 H 0.4539 -0.0410 0.5469
H16 H 0.4019 -0.1442 0.5052
H17 H 0.2409 -0.0403 0.4349
H18 H 0.2904 0.0427 0.3711
H19 H 0.1908 0.1359 0.4742
H20 H 0.2738 0.0757 0.5404
N2C N 0.3832(12) 0.4392(8) 0.2200(7)
C14C C 0.5863(12) -0.1193(10) 0.2291(8)
Ag1C Ag 0.3663(1) 0.5774(1) 0.1262(1)
C2C C 0.5509(13) -0.1894(8) 0.1639(7)
S2C S 0.3834(3) 0.7750(2) 0.1548(2)
O3C O 0.3140(15) 0.4592(9) 0.0060(7)
O4C O 0.5702(11) 0.4715(8) 0.0732(6)
C1C C 0.6402(16) -0.2217(8) 0.1092(7)
S2C_2 S 0.3834(3) -0.2250(2) 0.1548(2)
C2C_2 C 0.5509(13) 0.8106(8) 0.1639(7)
C3C C 0.3247(15) 0.7984(11) 0.2603(9)
C8C C 0.1787(25) 0.4316(19) -0.0062(13)
C9C C 0.4011(24) 0.3737(16) 0.0031(13)
C10C C 0.5362(23) 0.4135(16) 0.0004(12)
C11C C 0.6955(17) 0.5154(11) 0.0741(10)
S1C S 0.5979(5) -0.2933(3) 0.0207(2)
C13C C 0.7762(18) -0.1911(10) 0.1216(10)
C4C C 0.1805(15) 0.7604(13) 0.2634(12)
H1C H 0.3325 0.8723 0.2743
H2C H 0.3765 0.7576 0.2989
C7C C 0.1124(20) 0.4195(15) 0.0685(14)
H11C H 0.1368 0.4864 -0.0383
H12C H 0.1732 0.3663 -0.0368
H13C H 0.3857 0.3312 -0.0453
H14C H 0.3900 0.3292 0.0510
H15C H 0.5461 0.4590 -0.0469
H16C H 0.5981 0.3558 -0.0052
C12C C 0.7240(16) 0.6048(9) 0.0145(9)
H17C H 0.7591 0.4597 0.0651
H18C H 0.7096 0.5427 0.1289
C12C_2 C 0.7240(16) -0.3952(9) 0.0145(9)
N1C N 0.8848(13) -0.1660(10) 0.1251(9)
O1C O 0.1808(10) 0.6501(9) 0.2477(8)
H3C H 0.1306 0.7956 0.2208
H4C H 0.1416 0.7769 0.3161
O2C O 0.1080(11) 0.5172(7) 0.1174(8)
H9C H 0.0228 0.3976 0.0576
H10C H 0.1545 0.3638 0.0995
S1C_2 S 0.5979(5) 0.7067(3) 0.0207(2)
H19C H 0.8092 0.6359 0.0258
H20C H 0.7262 0.5757 -0.0404
C5C C 0.0477(18) 0.6128(16) 0.2359(15)
C6C C 0.0493(19) 0.5135(21) 0.1943(16)
H5C H 0.0049 0.6620 0.1990
H6C H -0.0016 0.6110 0.2867
H7C H -0.0398 0.4869 0.1899
H8C H 0.0986 0.4660 0.2291
B1 B 0.3299(20) 0.1107(13) 0.1621(12)
F1 F 0.2486(14) 0.0259(8) 0.1808(7)
F2 F 0.2493(14) 0.1905(8) 0.1623(11)
F3 F 0.3821(18) 0.0895(16) 0.0953(8)
F4 F 0.4144(17) 0.1290(13) 0.2181(10)
loop_
_geom_bond_atom_site_label_1
_geom_bond_atom_site_label_2
_geom_bond_site_symmetry_1
_geom_bond_site_symmetry_2
B1 F1 1_555 1_555
F2 B1 1_555 1_555
F3 B1 1_555 1_555
F4 B1 1_555 1_555
S1 C1 1_555 1_555
Ag1 S2 1_555 1_555
C1 C2 1_555 1_555
C2 S2 1_555 1_555
S2 C3 1_555 1_555
C3 C4 1_555 1_555
C4 O1 1_555 1_555
O1 C5 1_555 1_555
C5 C6 1_555 1_555
C6 O2 1_555 1_555
O2 C7 1_555 1_555
C7 C8 1_555 1_555
C8 O3 1_555 1_555
O3 Ag1 1_555 1_555
C9 O3 1_555 1_555
C10 C9 1_555 1_555
O4 Ag1 1_555 1_555
C11 O4 1_555 1_555
C12 S1 1_555 1_555
C13 C1 1_555 1_555
N1 C13 1_555 1_555
C14 C2 1_555 1_555
N2 Ag1 1_555 1_555
H1 C3 1_555 1_555
H2 C3 1_555 1_555
H3 C4 1_555 1_555
H4 C4 1_555 1_555
H5 C5 1_555 1_555
H6 C5 1_555 1_555
H7 C6 1_555 1_555
H8 C6 1_555 1_555
H9 C7 1_555 1_555
H10 C7 1_555 1_555
H11 C8 1_555 1_555
H12 C8 1_555 1_555
H13 C9 1_555 1_555
H14 C9 1_555 1_555
H15 C10 1_555 1_555
H16 C10 1_555 1_555
H17 C11 1_555 1_555
H18 C11 1_555 1_555
H19 C12 1_555 1_555
H20 C12 1_555 1_555
N2C C14 1_555 1_555
C14C N2 1_555 1_555
Ag1C N2C 1_555 1_555
C2C C14C 1_555 1_555
S2C Ag1C 1_555 1_555
O3C Ag1C 1_555 1_555
O4C Ag1C 1_555 1_555
C1C C2C 1_555 1_555
S2C_2 C2C 1_555 1_555
C2C_2 S2C 1_555 1_555
C3C S2C 1_555 1_555
C8C O3C 1_555 1_555
C9C O3C 1_555 1_555
C10C O4C 1_555 1_555
C11C O4C 1_555 1_555
S1C C1C 1_555 1_555
C13C C1C 1_555 1_555
C4C C3C 1_555 1_555
H1C C3C 1_555 1_555
H2C C3C 1_555 1_555
C7C C8C 1_555 1_555
H11C C8C 1_555 1_555
H12C C8C 1_555 1_555
H13C C9C 1_555 1_555
H14C C9C 1_555 1_555
H15C C10C 1_555 1_555
H16C C10C 1_555 1_555
C12C C11C 1_555 1_555
H17C C11C 1_555 1_555
H18C C11C 1_555 1_555
C12C_2 S1C 1_555 1_555
N1C C13C 1_555 1_555
O1C C4C 1_555 1_555
H3C C4C 1_555 1_555
H4C C4C 1_555 1_555
O2C C7C 1_555 1_555
H9C C7C 1_555 1_555
H10C C7C 1_555 1_555
S1C_2 C12C 1_555 1_555
H19C C12C 1_555 1_555
H20C C12C 1_555 1_555
C5C O1C 1_555 1_555
C6C O2C 1_555 1_555
H5C C5C 1_555 1_555
H6C C5C 1_555 1_555
H7C C6C 1_555 1_555
H8C C6C 1_555 1_555
C10 O4 1_555 1_555
C11 C12 1_555 1_555
C9C C10C 1_555 1_555
C5C C6C 1_555 1_555

#END
