
#######################################################################
#
#                 Cambridge Crystallographic Data Centre
#                                CCDC 
#
#######################################################################
#
# If this CIF has been generated from an entry in the Cambridge 
# Structural Database, then it will include bibliographic, chemical, 
# crystal, experimental, refinement or atomic coordinate data resulting 
# from the CCDC's data processing and validation procedures.
#
#######################################################################

data_YUBHAG
_symmetry_cell_setting           monoclinic
_symmetry_space_group_name_H-M   'C 2/c'
_symmetry_Int_Tables_number      15
_space_group_name_Hall           '-C 2yn'
loop_
_symmetry_equiv_pos_site_id
_symmetry_equiv_pos_as_xyz
1 x,y,z
2 -x,y,1/2-z
3 1/2+x,1/2+y,z
4 1/2-x,1/2+y,1/2-z
5 -x,-y,-z
6 x,-y,1/2+z
7 1/2-x,1/2-y,-z
8 1/2+x,1/2-y,1/2+z
_cell_length_a                   19.703(4)
_cell_length_b                   9.5197(19)
_cell_length_c                   20.127(4)
_cell_angle_alpha                90
_cell_angle_beta                 106.26(3)
_cell_angle_gamma                90
_cell_volume                     3624.15
loop_
_atom_site_label
_atom_site_type_symbol
_atom_site_fract_x
_atom_site_fract_y
_atom_site_fract_z
U1 U 0.10488(2) 0.63492(6) 0.11128(2)
O1 O 0.0511(6) 0.7865(14) 0.0971(5)
O2 O 0.1584(5) 0.4834(15) 0.1258(6)
O3 O 0.0932(4) 0.6200(10) 0.2192(4)
C1 C 0.1179(6) 0.5382(15) 0.2761(6)
C2 C 0.1802(6) 0.4646(15) 0.2902(6)
H1 H 0.2063 0.4658 0.2583
C3 C 0.2054(7) 0.3877(19) 0.3516(7)
C4 C 0.1653(7) 0.3833(18) 0.3984(6)
H2 H 0.1809 0.3312 0.4389
C5 C 0.1014(7) 0.4573(17) 0.3845(6)
C6 C 0.0777(7) 0.5304(16) 0.3239(7)
H3 H 0.0342 0.5758 0.3140
C7 C 0.2699(8) 0.301(2) 0.3634(8)
C8 C 0.0565(7) 0.4477(16) 0.4336(7)
O4 O 0.2968(5) 0.2705(13) 0.3152(4)
O5 O 0.3001(6) 0.2578(17) 0.4242(5)
O6 O 0.0820(7) 0.3914(16) 0.4912(6)
H4 H 0.123(5) 0.354(19) 0.500(4)
O7 O -0.0045(5) 0.4945(12) 0.4149(5)
U1A U -0.10488(2) 0.63492(6) 0.38872(2)
U1C U 0.39512(2) 0.13492(6) 0.38872(2)
U1E U 0.10488(2) 0.36508(6) 0.61128(2)
O4C O 0.2032(5) 0.7705(13) 0.1848(4)
O5C O 0.1999(6) 0.7578(17) 0.0758(5)
O6E O 0.0820(7) 0.6086(16) -0.0088(6)
O7A O 0.0045(5) 0.4945(12) 0.0851(5)
O8 O 0.0000 0.830(2) 0.2500
H5 H 0.035(10) 0.78(3) 0.248(17)
H5A H -0.035(10) 0.78(3) 0.252(17)
loop_
_geom_bond_atom_site_label_1
_geom_bond_atom_site_label_2
_geom_bond_site_symmetry_1
_geom_bond_site_symmetry_2
U1 O1 1_555 1_555
O2 U1 1_555 1_555
O3 U1 1_555 1_555
C1 O3 1_555 1_555
C2 C1 1_555 1_555
H1 C2 1_555 1_555
C3 C2 1_555 1_555
C4 C3 1_555 1_555
H2 C4 1_555 1_555
C5 C4 1_555 1_555
C6 C1 1_555 1_555
H3 C6 1_555 1_555
C7 C3 1_555 1_555
C8 C5 1_555 1_555
O4 C7 1_555 1_555
O5 C7 1_555 1_555
O6 C8 1_555 1_555
H4 O6 1_555 1_555
O7 C8 1_555 1_555
O8 H5 1_555 1_555
U1A O7 1_555 1_555
U1C O4 1_555 1_555
U1E O6 1_555 1_555
O4C U1 1_555 1_555
O5C U1 1_555 1_555
O6E U1 1_555 1_555
O7A U1 1_555 1_555
H5A O8 1_555 1_555
C5 C6 1_555 1_555
O5 U1C 1_555 1_555

#END
