
#######################################################################
#
#                 Cambridge Crystallographic Data Centre
#                                CCDC 
#
#######################################################################
#
# If this CIF has been generated from an entry in the Cambridge 
# Structural Database, then it will include bibliographic, chemical, 
# crystal, experimental, refinement or atomic coordinate data resulting 
# from the CCDC's data processing and validation procedures.
#
#######################################################################

data_YUBMIS01
_symmetry_cell_setting           triclinic
_symmetry_space_group_name_H-M   'P -1'
_symmetry_Int_Tables_number      2
_space_group_name_Hall           '-P 1'
loop_
_symmetry_equiv_pos_site_id
_symmetry_equiv_pos_as_xyz
1 x,y,z
2 -x,-y,-z
_cell_length_a                   5.9775(12)
_cell_length_b                   8.1062(16)
_cell_length_c                   8.6773(17)
_cell_angle_alpha                73.13(3)
_cell_angle_beta                 73.05(3)
_cell_angle_gamma                69.19(3)
_cell_volume                     367.674
loop_
_atom_site_label
_atom_site_type_symbol
_atom_site_fract_x
_atom_site_fract_y
_atom_site_fract_z
Yb1 Yb 0.33185(6) -0.66420(5) 0.47320(4)
O1 O -0.4208(12) -0.6039(9) -0.3657(8)
O2 O -0.0293(12) -0.4985(9) 0.3539(8)
O3 O -0.5377(13) -0.8451(9) -0.2852(9)
O4 O 0.2933(12) -0.6406(10) 0.1943(8)
O5 O -0.3034(14) 0.1764(10) -0.6374(10)
O6 O -0.1507(12) -0.1226(9) -0.5502(9)
C1 C 0.0750(17) -0.5464(12) 0.2144(11)
C2 C -0.4054(16) -0.7600(13) -0.2759(12)
C3 C -0.2287(17) -0.8461(13) -0.1632(12)
C4 C -0.0719(17) -0.4830(13) 0.0843(11)
H1 H -0.1515 -0.3543 0.0748
H2 H -0.1994 -0.5420 0.1199
C5 C -0.1488(17) 0.0267(12) -0.6533(11)
C6 C 0.0578(18) 0.0308(12) -0.8030(12)
H3 H 0.1412 0.1079 -0.7754
H4 H -0.1504 -0.7625 -0.1723
H5 H -0.0094 0.0996 -0.9005
H6 H -0.3270 -0.8528 -0.0516
Yb1A Yb -0.33185(6) -0.33580(5) 0.52680(4)
Yb1A_2 Yb -0.33185(6) -0.33580(5) -0.47320(4)
Yb1_2 Yb 0.33185(6) -0.66420(5) -0.52680(4)
Yb1_3 Yb -0.66815(6) -0.66420(5) -0.52680(4)
Yb1A_3 Yb 0.66815(6) -0.33580(5) -0.47320(4)
Yb1_4 Yb -0.66815(6) 0.33580(5) -0.52680(4)
Yb1A_4 Yb 0.66815(6) -1.33580(5) -0.47320(4)
O1A O 0.4208(12) -0.3961(9) 0.3657(8)
O1_2 O 0.5792(12) -0.6039(9) 0.6343(8)
O1A_2 O -0.5792(12) -0.3961(9) -0.6343(8)
O1A_3 O 0.4208(12) -0.3961(9) -0.6343(8)
O2A O 0.0293(12) -0.5015(9) -0.3539(8)
O2A_2 O 0.0293(12) -0.5015(9) 0.6461(8)
O2_2 O -0.0293(12) -0.4985(9) -0.6461(8)
O3A O -0.4623(13) -0.1549(9) -0.7148(9)
O3_2 O 0.4623(13) -0.8451(9) 0.7148(9)
O3A_2 O 0.5377(13) -0.1549(9) -0.7148(9)
O4A O -0.2933(12) -0.3594(10) -0.1943(8)
O5_2 O 0.6966(14) -0.8236(10) 0.3626(10)
O5A O -0.6966(14) -0.1764(10) -0.3626(10)
O5A_2 O 0.3034(14) -1.1764(10) -0.3626(10)
O6A O 0.1507(12) -0.8774(9) 0.5502(9)
O6A_2 O 0.1507(12) -0.8774(9) -0.4498(9)
C1A C -0.0750(17) -0.4536(12) -0.2144(11)
C2A C 0.4054(16) -0.2400(13) -0.7241(12)
C3A C 0.2287(17) -0.1539(13) -0.8368(12)
C4A C 0.0719(17) -0.5170(13) -0.0843(11)
H1A H 0.1515 -0.6457 -0.0748
H2A H 0.1994 -0.4580 -0.1199
C5A C 0.1488(17) -1.0267(12) -0.3467(11)
C6A C -0.0578(18) -1.0308(12) -0.1970(12)
H3A H -0.1412 -1.1079 -0.2246
H4A H 0.1504 -0.2375 -0.8277
H5A H 0.0094 -1.0996 -0.0995
H6A H 0.3270 -0.1472 -0.9484
loop_
_geom_bond_atom_site_label_1
_geom_bond_atom_site_label_2
_geom_bond_site_symmetry_1
_geom_bond_site_symmetry_2
Yb1 O2 1_555 1_555
O1 C2 1_555 1_555
O2 C1 1_555 1_555
O3 C2 1_555 1_555
O4 Yb1 1_555 1_555
O5 C5 1_555 1_555
O6 C5 1_555 1_555
C1 O4 1_555 1_555
C2 C3 1_555 1_555
C3 H4 1_555 1_555
C4 C1 1_555 1_555
H1 C4 1_555 1_555
H2 C4 1_555 1_555
C5 C6 1_555 1_555
C6 H3 1_555 1_555
H5 C6 1_555 1_555
H6 C3 1_555 1_555
Yb1A O2 1_555 1_555
Yb1A_2 O1 1_555 1_555
Yb1_2 O1A_3 1_555 1_555
Yb1_3 O1 1_555 1_555
Yb1A_3 O1A_3 1_555 1_555
Yb1_4 O5 1_555 1_555
Yb1A_4 O5A_2 1_555 1_555
O1A Yb1 1_555 1_555
O1_2 Yb1 1_555 1_555
O1A_2 Yb1A_2 1_555 1_555
O1A_3 C2A 1_555 1_555
O2A Yb1A_2 1_555 1_555
O2A_2 Yb1 1_555 1_555
O2_2 Yb1A_2 1_555 1_555
O3A Yb1A_2 1_555 1_555
O3_2 Yb1 1_555 1_555
O3A_2 Yb1A_3 1_555 1_555
O4A Yb1A_2 1_555 1_555
O5_2 Yb1 1_555 1_555
O5A Yb1A_2 1_555 1_555
O5A_2 C5A 1_555 1_555
O6A Yb1 1_555 1_555
O6A_2 Yb1_2 1_555 1_555
C1A O2A 1_555 1_555
C2A O3A_2 1_555 1_555
C3A C6 1_555 1_555
C4A C4 1_555 1_555
H1A C4A 1_555 1_555
H2A C4A 1_555 1_555
C5A O6A_2 1_555 1_555
C6A C3 1_555 1_555
H3A C6A 1_555 1_555
H4A C3A 1_555 1_555
H5A C6A 1_555 1_555
H6A C3A 1_555 1_555
O3 Yb1_3 1_555 1_555
O6 Yb1A_2 1_555 1_555
Yb1A O2A_2 1_555 1_555
Yb1_2 O2A 1_555 1_555
Yb1_2 O2_2 1_555 1_555
Yb1_3 O1A_2 1_555 1_555
O4A C1A 1_555 1_555
C1A C4A 1_555 1_555
C2A C3A 1_555 1_555
C5A C6A 1_555 1_555

#END
