
#######################################################################
#
#                 Cambridge Crystallographic Data Centre
#                                CCDC 
#
#######################################################################
#
# If this CIF has been generated from an entry in the Cambridge 
# Structural Database, then it will include bibliographic, chemical, 
# crystal, experimental, refinement or atomic coordinate data resulting 
# from the CCDC's data processing and validation procedures.
#
#######################################################################

data_YUBMIS02
_symmetry_cell_setting           triclinic
_symmetry_space_group_name_H-M   'P -1'
_symmetry_Int_Tables_number      2
_space_group_name_Hall           '-P 1'
loop_
_symmetry_equiv_pos_site_id
_symmetry_equiv_pos_as_xyz
1 x,y,z
2 -x,-y,-z
_cell_length_a                   5.9619(12)
_cell_length_b                   8.0893(16)
_cell_length_c                   8.6744(17)
_cell_angle_alpha                73.10(3)
_cell_angle_beta                 73.14(3)
_cell_angle_gamma                69.33(3)
_cell_volume                     366.213
loop_
_atom_site_label
_atom_site_type_symbol
_atom_site_fract_x
_atom_site_fract_y
_atom_site_fract_z
Yb1 Yb 0.33181(5) -0.16398(4) 0.47350(3)
O1 O 0.2938(9) -0.1394(7) 0.1947(6)
O2 O 0.4199(9) 0.1046(6) 0.3664(6)
O3 O -0.0298(9) 0.0018(6) 0.3545(6)
O4 O -0.1462(9) 0.3796(6) 0.4500(6)
O5 O 0.5401(9) 0.3460(7) 0.2841(6)
C1 C 0.0750(12) -0.0450(9) 0.2150(8)
C2 C 0.4063(12) 0.2602(9) 0.2748(8)
C3 C 0.2277(14) 0.3471(10) 0.1621(9)
C4 C -0.1462(12) 0.5280(9) 0.3471(8)
C5 C 0.0584(13) 0.5314(9) 0.1963(9)
O6 O -0.3017(10) 0.6763(7) 0.3630(7)
C6 C -0.0741(13) 0.0181(9) 0.0831(8)
H1 H 0.1251 0.2698 0.1685
H2 H -0.179(14) 0.155(11) 0.087(9)
H3 H -0.200(10) -0.042(10) 0.129(9)
H4 H -0.029(14) 0.610(10) 0.111(10)
H5 H 0.326(16) 0.357(12) 0.059(12)
H6 H 0.157(14) 0.611(10) 0.196(9)
Yb1A Yb -0.33181(5) 0.16398(4) -0.47350(3)
Yb1A_2 Yb 0.66819(5) 0.16398(4) 0.52650(3)
Yb1A_3 Yb -0.33181(5) 0.16398(4) 0.52650(3)
Yb1_2 Yb 0.33181(5) -0.16398(4) -0.52650(3)
Yb1_3 Yb -0.66819(5) 0.83602(4) 0.47350(3)
Yb1_4 Yb -0.66819(5) -0.16398(4) 0.47350(3)
Yb1A_4 Yb 0.66819(5) -0.83602(4) 0.52650(3)
O1A O -0.2938(9) 0.1394(7) -0.1947(6)
O2A O 0.5801(9) -0.1046(6) 0.6336(6)
O2_2 O -0.5801(9) 0.1046(6) -0.6336(6)
O2A_2 O -0.4199(9) -0.1046(6) -0.3664(6)
O2A_3 O -0.4199(9) -0.1046(6) 0.6336(6)
O3A O 0.0298(9) -0.0018(6) -0.3545(6)
O3A_2 O 0.0298(9) -0.0018(6) 0.6455(6)
O3_2 O -0.0298(9) 0.0018(6) -0.6455(6)
O4A O 0.1462(9) -0.3796(6) 0.5500(6)
O4_2 O -0.1462(9) 0.3796(6) -0.5500(6)
O5A O 0.4599(9) -0.3460(7) 0.7159(6)
O5_2 O -0.4599(9) 0.3460(7) -0.7159(6)
O5A_2 O -0.5401(9) -0.3460(7) 0.7159(6)
C1A C -0.0750(12) 0.0450(9) -0.2150(8)
C2A C -0.4063(12) -0.2602(9) 0.7252(8)
C3A C -0.2277(14) -0.3471(10) 0.8379(9)
C4A C 0.1462(12) -0.5280(9) 0.6529(8)
C5A C -0.0584(13) -0.5314(9) 0.8037(9)
O6_2 O 0.6983(10) -0.3237(7) 0.3630(7)
O6A O -0.6983(10) 0.3237(7) -0.3630(7)
O6A_2 O 0.3017(10) -0.6763(7) 0.6370(7)
C6A C 0.0741(13) -0.0181(9) -0.0831(8)
H1A H -0.1251 -0.2698 0.8315
H2A H 0.179(14) -0.155(11) -0.087(9)
H3A H 0.200(10) 0.042(10) -0.129(9)
H4A H 0.029(14) -0.610(10) 0.889(10)
H5A H -0.326(16) -0.357(12) 0.941(12)
H6A H -0.157(14) -0.611(10) 0.804(9)
loop_
_geom_bond_atom_site_label_1
_geom_bond_atom_site_label_2
_geom_bond_site_symmetry_1
_geom_bond_site_symmetry_2
Yb1 O1 1_555 1_555
O1 C1 1_555 1_555
O2 Yb1 1_555 1_555
O3 Yb1 1_555 1_555
O4 C4 1_555 1_555
O5 C2 1_555 1_555
C1 O3 1_555 1_555
C2 O2 1_555 1_555
C3 C2 1_555 1_555
C4 C5 1_555 1_555
C5 C3 1_555 1_555
O6 C4 1_555 1_555
C6 C1 1_555 1_555
H1 C3 1_555 1_555
H2 C6 1_555 1_555
H3 C6 1_555 1_555
H4 C5 1_555 1_555
H5 C3 1_555 1_555
H6 C5 1_555 1_555
Yb1A O1A 1_555 1_555
Yb1A_2 O2 1_555 1_555
Yb1A_3 O3 1_555 1_555
Yb1_2 O3A 1_555 1_555
Yb1_3 O6 1_555 1_555
Yb1_4 O2A_3 1_555 1_555
Yb1A_4 O6A_2 1_555 1_555
O1A C1A 1_555 1_555
O2A Yb1 1_555 1_555
O2_2 Yb1A 1_555 1_555
O2A_2 Yb1A 1_555 1_555
O2A_3 Yb1A_3 1_555 1_555
O3A Yb1A 1_555 1_555
O3A_2 Yb1 1_555 1_555
O3_2 Yb1A 1_555 1_555
O4A Yb1 1_555 1_555
O4_2 Yb1A 1_555 1_555
O5A Yb1 1_555 1_555
O5_2 Yb1A 1_555 1_555
O5A_2 Yb1_4 1_555 1_555
C1A O3A 1_555 1_555
C2A O2A_3 1_555 1_555
C3A C2A 1_555 1_555
C4A O4A 1_555 1_555
C5A C3A 1_555 1_555
O6_2 Yb1 1_555 1_555
O6A Yb1A 1_555 1_555
O6A_2 C4A 1_555 1_555
C6A C6 1_555 1_555
H1A C3A 1_555 1_555
H2A C6A 1_555 1_555
H3A C6A 1_555 1_555
H4A C5A 1_555 1_555
H5A C3A 1_555 1_555
H6A C5A 1_555 1_555
O4 Yb1A_3 1_555 1_555
O5 Yb1A_2 1_555 1_555
Yb1A_2 O2A 1_555 1_555
Yb1A_3 O3A_2 1_555 1_555
Yb1_2 O3_2 1_555 1_555
O5A_2 C2A 1_555 1_555
C1A C6A 1_555 1_555
C4A C5A 1_555 1_555

#END
