
#######################################################################
#
#                 Cambridge Crystallographic Data Centre
#                                CCDC 
#
#######################################################################
#
# If this CIF has been generated from an entry in the Cambridge 
# Structural Database, then it will include bibliographic, chemical, 
# crystal, experimental, refinement or atomic coordinate data resulting 
# from the CCDC's data processing and validation procedures.
#
#######################################################################

data_YUBMIS
_symmetry_cell_setting           triclinic
_symmetry_space_group_name_H-M   'P -1'
_symmetry_Int_Tables_number      2
_space_group_name_Hall           '-P 1'
loop_
_symmetry_equiv_pos_site_id
_symmetry_equiv_pos_as_xyz
1 x,y,z
2 -x,-y,-z
_cell_length_a                   5.9289(13)
_cell_length_b                   8.0629(17)
_cell_length_c                   8.6516(19)
_cell_angle_alpha                72.994(3)
_cell_angle_beta                 72.959(3)
_cell_angle_gamma                69.464(3)
_cell_volume                     361.891
loop_
_atom_site_label
_atom_site_type_symbol
_atom_site_fract_x
_atom_site_fract_y
_atom_site_fract_z
C1 C 0.1436(16) 0.4710(12) 0.1547(12)
O1 O -0.0278(11) 1.0007(8) -0.1460(7)
C2 C -0.0569(16) 0.4683(11) 0.3041(11)
H1 H 0.0169 0.4037 0.3993
H2 H -0.1563 0.3993 0.2957
O2 O 0.1469(11) 0.6202(8) 0.0509(8)
C3 C -0.2295(16) 0.6532(11) 0.3379(11)
H3 H -0.3200 0.6377 0.4518
H4 H -0.1319 0.7337 0.3225
C4 C -0.4063(15) 0.7367(11) 0.2265(10)
O3 O -0.4200(11) 0.8933(8) 0.1357(8)
O4 O 0.2965(12) 0.8612(9) -0.3061(8)
C5 C 0.0769(17) 0.9545(11) -0.2859(11)
C6 C -0.0756(17) 1.0178(13) -0.4179(11)
H5 H -0.2022 0.9563 -0.3826
H6 H -0.1570 1.1468 -0.4286
O5 O -0.5388(12) 0.6503(8) 0.2181(8)
O6 O 0.2988(12) 0.3231(9) 0.1360(9)
Yb1 Yb 0.33184(7) 0.83610(5) -0.02627(5)
C1A C -0.1436(16) 1.5290(12) -0.1547(12)
O1A O 0.0278(11) 0.9993(8) -0.8540(7)
O1A_2 O 0.0278(11) 0.9993(8) 0.1460(7)
O1_2 O -0.0278(11) 1.0007(8) -1.1460(7)
C2A C 0.0569(16) 1.5317(11) -0.3041(11)
H1A H -0.0169 1.5963 -0.3993
H2A H 0.1563 1.6007 -0.2957
O2A O -0.1469(11) 1.3798(8) -0.0509(8)
O2A_2 O -0.1469(11) 1.3798(8) -1.0509(8)
C3A C 0.2295(16) 1.3468(11) -0.3379(11)
H3A H 0.3200 1.3623 -0.4518
H4A H 0.1319 1.2663 -0.3225
C4A C 0.4063(15) 1.2633(11) -0.2265(10)
O3A O 0.4200(11) 1.1067(8) -0.1357(8)
O3_2 O 0.5800(11) 0.8933(8) 0.1357(8)
O3_3 O -0.4200(11) 0.8933(8) -0.8643(8)
O3A_2 O -0.5800(11) 1.1067(8) -1.1357(8)
O4A O -0.2965(12) 1.1388(9) -0.6939(8)
C5A C -0.0769(17) 1.0455(11) -0.7141(11)
C6A C 0.0756(17) 0.9822(13) -0.5821(11)
H5A H 0.2022 1.0437 -0.6174
H6A H 0.1570 0.8532 -0.5714
O5A O 0.5388(12) 1.3497(8) -0.2181(8)
O5_2 O 0.4612(12) 0.6503(8) 0.2181(8)
O5A_2 O -0.4612(12) 1.3497(8) -1.2181(8)
O6A O -0.2988(12) 1.6769(9) -0.1360(9)
O6A_2 O 0.7012(12) 0.6769(9) -0.1360(9)
O6_2 O -0.7012(12) 1.3231(9) -0.8640(9)
Yb1A Yb -0.33184(7) 1.16390(5) -0.97373(5)
Yb1A_2 Yb -0.33184(7) 1.16390(5) 0.02627(5)
Yb1_2 Yb -0.66816(7) 0.83610(5) -0.02627(5)
Yb1A_3 Yb 0.66816(7) 0.16390(5) 0.02627(5)
Yb1_3 Yb 0.33184(7) 0.83610(5) -1.02627(5)
Yb1A_4 Yb 0.66816(7) 1.16390(5) 0.02627(5)
Yb1_4 Yb -0.66816(7) 1.83610(5) -0.02627(5)
loop_
_geom_bond_atom_site_label_1
_geom_bond_atom_site_label_2
_geom_bond_site_symmetry_1
_geom_bond_site_symmetry_2
C1 C2 1_555 1_555
O1 C5 1_555 1_555
C2 H1 1_555 1_555
H2 C2 1_555 1_555
O2 C1 1_555 1_555
C3 C2 1_555 1_555
H3 C3 1_555 1_555
H4 C3 1_555 1_555
C4 C3 1_555 1_555
O3 C4 1_555 1_555
O4 C5 1_555 1_555
C5 C6 1_555 1_555
C6 H5 1_555 1_555
H6 C6 1_555 1_555
O5 C4 1_555 1_555
O6 C1 1_555 1_555
Yb1 O1 1_555 1_555
C1A C2A 1_555 1_555
O1A C5A 1_555 1_555
O1A_2 Yb1 1_555 1_555
O1_2 Yb1A 1_555 1_555
C2A H1A 1_555 1_555
H2A C2A 1_555 1_555
O2A C1A 1_555 1_555
O2A_2 Yb1A 1_555 1_555
C3A C2A 1_555 1_555
H3A C3A 1_555 1_555
H4A C3A 1_555 1_555
C4A C3A 1_555 1_555
O3A Yb1 1_555 1_555
O3_2 Yb1 1_555 1_555
O3_3 Yb1A 1_555 1_555
O3A_2 Yb1A 1_555 1_555
O4A C5A 1_555 1_555
C5A C6A 1_555 1_555
C6A C6 1_555 1_555
H5A C6A 1_555 1_555
H6A C6A 1_555 1_555
O5A C4A 1_555 1_555
O5_2 Yb1 1_555 1_555
O5A_2 Yb1A 1_555 1_555
O6A C1A 1_555 1_555
O6A_2 Yb1 1_555 1_555
O6_2 Yb1A 1_555 1_555
Yb1A O1A 1_555 1_555
Yb1A_2 O1 1_555 1_555
Yb1_2 O3 1_555 1_555
Yb1A_3 O6 1_555 1_555
Yb1_3 O1A 1_555 1_555
Yb1A_4 O3A 1_555 1_555
Yb1_4 O6A 1_555 1_555
O2 Yb1 1_555 1_555
O3 Yb1A_2 1_555 1_555
O4 Yb1 1_555 1_555
O5 Yb1_2 1_555 1_555
O1A_2 Yb1A_2 1_555 1_555
O1_2 Yb1_3 1_555 1_555
O2A Yb1A_2 1_555 1_555
C4A O3A 1_555 1_555
O3_2 Yb1A_4 1_555 1_555
O4A Yb1A 1_555 1_555
O5A Yb1A_4 1_555 1_555

#END
