
#######################################################################
#
#                 Cambridge Crystallographic Data Centre
#                                CCDC 
#
#######################################################################
#
# If this CIF has been generated from an entry in the Cambridge 
# Structural Database, then it will include bibliographic, chemical, 
# crystal, experimental, refinement or atomic coordinate data resulting 
# from the CCDC's data processing and validation procedures.
#
#######################################################################

data_YUBPUI
_symmetry_cell_setting           triclinic
_symmetry_space_group_name_H-M   'P -1'
_symmetry_Int_Tables_number      2
_space_group_name_Hall           '-P 1'
loop_
_symmetry_equiv_pos_site_id
_symmetry_equiv_pos_as_xyz
1 x,y,z
2 -x,-y,-z
_cell_length_a                   10.9784(9)
_cell_length_b                   14.0480(11)
_cell_length_c                   14.5469(12)
_cell_angle_alpha                110.234(2)
_cell_angle_beta                 107.4080(10)
_cell_angle_gamma                102.6580(10)
_cell_volume                     1873.7
loop_
_atom_site_label
_atom_site_type_symbol
_atom_site_fract_x
_atom_site_fract_y
_atom_site_fract_z
O23 O 0.5754(11) 0.0174(8) 0.6780(9)
Cu1 Cu 0.04715(14) -0.44199(10) -0.16068(11)
Cu2 Cu 0.70842(15) 0.57728(10) 0.07009(12)
N1 N 0.6296(9) 0.4257(6) -0.0065(7)
N2 N 0.2274(8) -0.1186(6) -0.0388(6)
C1 C 0.4563(10) 0.1602(7) -0.0423(8)
N3 N 0.8519(8) 0.8954(6) 0.2725(7)
N4 N 0.9020(8) 1.2390(6) 0.6418(7)
N5 N 0.9721(8) 1.4071(6) 0.7684(7)
C2 C 0.5653(11) 0.3591(8) 0.0224(8)
H1 H 0.5454 0.3810 0.0825
N6 N 0.5315(8) 0.2540(6) -0.0469(6)
C3 C 0.3546(11) 0.0777(7) 0.0471(8)
H2 H 0.3376 0.0835 0.1073
N7 N 0.1244(9) -0.2914(6) -0.0843(7)
N8 N 0.7837(9) 0.7296(6) 0.1446(8)
C4 C 0.3046(10) -0.0226(7) -0.0405(8)
C5 C 0.7865(11) 0.7890(8) 0.2381(9)
H3 H 0.7475 0.7606 0.2760
C6 C 0.4088(12) 0.0601(8) -0.1296(8)
H4 H 0.4287 0.0540 -0.1888
C7 C 0.9687(10) 1.3465(8) 0.6734(8)
H5 H 1.0064 1.3737 0.6342
C8 C 0.3329(11) -0.0297(8) -0.1283(8)
H6 H 0.2996 -0.0969 -0.1875
C9 C 0.4291(11) 0.1683(8) 0.0455(8)
H7 H 0.4614 0.2357 0.1042
C10 C 0.9061(11) 1.3347(9) 0.7956(9)
H8 H 0.8935 1.3542 0.8591
C11 C 0.7826(13) 0.9637(9) 0.4173(10)
H9 H 0.7181 0.8949 0.3912
C12 C 0.6367(13) 0.3615(9) -0.0997(9)
H10 H 0.6762 0.3868 -0.1391
C13 C 0.8947(11) 0.9043(8) 0.1952(9)
H11 H 0.9432 0.9681 0.1962
C14 C 0.8527(11) 0.8021(9) 0.1175(10)
H12 H 0.8681 0.7838 0.0552
C15 C 0.8615(12) 1.2325(9) 0.7207(10)
H13 H 0.8130 1.1699 0.7218
C16 C 0.8646(10) 0.9824(7) 0.3653(9)
C17 C 0.1948(11) -0.2220(8) -0.1071(8)
H14 H 0.2198 -0.2424 -0.1647
C18 C 0.7975(13) 1.0487(8) 0.5092(11)
H15 H 0.7461 1.0356 0.5470
C19 C 0.9544(13) 1.0837(8) 0.4029(9)
H16 H 1.0093 1.0964 0.3674
C20 C 0.1110(12) -0.2273(9) 0.0059(9)
H17 H 0.0665 -0.2533 0.0424
C21 C 0.1724(12) -0.1212(8) 0.0330(9)
H18 H 0.1763 -0.0617 0.0896
C22 C 0.5770(13) 0.2562(9) -0.1243(10)
H19 H 0.5684 0.1963 -0.1829
C23 C 0.8865(9) 1.1515(8) 0.5451(8)
C24 C 0.9665(13) 1.1677(9) 0.4916(10)
H20 H 1.0297 1.2366 0.5161
Mo1 Mo -0.72032(9) -0.77212(6) -0.67692(7)
Mo2 Mo -0.66057(9) -0.54033(7) -0.33414(7)
Mo3 Mo -0.48083(9) -0.70853(7) -0.41981(7)
Mo4 Mo -0.30054(9) -0.42947(7) -0.23052(7)
Mo5 Mo -0.85698(8) -0.56814(7) -0.58903(8)
Mo6 Mo -0.63497(9) -0.30831(7) -0.38222(7)
Si1 Si -0.5000 -0.5000 -0.5000
O1 O -0.8171(8) -0.8993(5) -0.7664(5)
O2 O -0.6507(8) -0.7877(8) -0.5569(6)
O3 O -0.4877(7) -0.8102(6) -0.3856(7)
O4 O -0.6495(10) -0.3881(6) -0.3104(7)
O5 O -0.3509(7) -0.5916(6) -0.3008(7)
O6 O -0.7267(9) -0.7040(7) -0.7789(7)
O7 O -0.1674(10) -0.4415(6) -0.2947(7)
O8 O -0.8006(10) -0.4250(6) -0.5080(7)
O9 O -0.4703(7) -0.4560(6) -0.2285(7)
O10 O -0.3817(7) -0.7261(8) -0.4986(6)
O11 O -0.5473(7) -0.7714(8) -0.6943(6)
O12 O -0.6477(12) -0.5811(9) -0.6050(9)
O13 O -1.0247(7) -0.6069(6) -0.6348(6)
O14 O -0.2032(7) -0.4083(5) -0.1084(5)
O15 O -0.7295(7) -0.5486(5) -0.2484(5)
O16 O -0.8422(10) -0.7151(7) -0.6450(8)
O17 O -0.6210(7) -0.6624(6) -0.3707(8)
O18 O -0.8136(10) -0.5885(6) -0.4573(6)
O19 O -0.5117(11) -0.6248(8) -0.5376(9)
O20 O -0.7049(8) -0.2197(6) -0.3381(6)
O21 O -0.6249(12) -0.4831(8) -0.4617(9)
O22 O -0.4896(12) -0.5350(8) -0.4038(9)
O12A O -0.3523(12) -0.4189(9) -0.3950(9)
O19A O -0.4883(11) -0.3752(8) -0.4624(9)
O21A O -0.3751(12) -0.5169(8) -0.5383(9)
O22A O -0.5104(12) -0.4650(8) -0.5962(9)
Cu1A Cu -1.04715(14) -0.55801(10) -0.83932(11)
Cu2A Cu -1.70842(15) -1.57728(10) -1.07009(12)
N1A N -1.6296(9) -1.4257(6) -0.9935(7)
N2A N -1.2274(8) -0.8814(6) -0.9612(6)
C1A C -1.4563(10) -1.1602(7) -0.9577(8)
N3A N -1.8519(8) -1.8954(6) -1.2725(7)
N4A N -1.9020(8) -2.2390(6) -1.6418(7)
N5A N -1.9721(8) -2.4071(6) -1.7684(7)
C2A C -1.5653(11) -1.3591(8) -1.0224(8)
H1A H -1.5454 -1.3810 -1.0825
N6A N -1.5315(8) -1.2540(6) -0.9531(6)
C3A C -1.3546(11) -1.0777(7) -1.0471(8)
H2A H -1.3376 -1.0835 -1.1073
N7A N -1.1244(9) -0.7086(6) -0.9157(7)
N8A N -1.7837(9) -1.7296(6) -1.1446(8)
C4A C -1.3046(10) -0.9774(7) -0.9595(8)
C5A C -1.7865(11) -1.7890(8) -1.2381(9)
H3A H -1.7475 -1.7606 -1.2760
C6A C -1.4088(12) -1.0601(8) -0.8704(8)
H4A H -1.4287 -1.0540 -0.8112
C7A C -1.9687(10) -2.3465(8) -1.6734(8)
H5A H -2.0064 -2.3737 -1.6342
C8A C -1.3329(11) -0.9703(8) -0.8717(8)
H6A H -1.2996 -0.9031 -0.8125
C9A C -1.4291(11) -1.1683(8) -1.0455(8)
H7A H -1.4614 -1.2357 -1.1042
C10A C -1.9061(11) -2.3347(9) -1.7956(9)
H8A H -1.8935 -2.3542 -1.8591
C11A C -1.7826(13) -1.9637(9) -1.4173(10)
H9A H -1.7181 -1.8949 -1.3912
C12A C -1.6367(13) -1.3615(9) -0.9003(9)
H10A H -1.6762 -1.3868 -0.8609
C13A C -1.8947(11) -1.9043(8) -1.1952(9)
H11A H -1.9432 -1.9681 -1.1962
C14A C -1.8527(11) -1.8021(9) -1.1175(10)
H12A H -1.8681 -1.7838 -1.0552
C15A C -1.8615(12) -2.2325(9) -1.7207(10)
H13A H -1.8130 -2.1699 -1.7218
C16A C -1.8646(10) -1.9824(7) -1.3653(9)
C17A C -1.1948(11) -0.7780(8) -0.8929(8)
H14A H -1.2198 -0.7576 -0.8353
C18A C -1.7975(13) -2.0487(8) -1.5092(11)
H15A H -1.7461 -2.0356 -1.5470
C19A C -1.9544(13) -2.0837(8) -1.4029(9)
H16A H -2.0093 -2.0964 -1.3674
C20A C -1.1110(12) -0.7727(9) -1.0059(9)
H17A H -1.0665 -0.7467 -1.0424
C21A C -1.1724(12) -0.8788(8) -1.0330(9)
H18A H -1.1763 -0.9383 -1.0896
C22A C -1.5770(13) -1.2562(9) -0.8757(10)
H19A H -1.5684 -1.1963 -0.8171
C23A C -1.8865(9) -2.1515(8) -1.5451(8)
C24A C -1.9665(13) -2.1677(9) -1.4916(10)
H20A H -2.0297 -2.2366 -1.5161
Mo1A Mo -0.27968(9) -0.22788(6) -0.32308(7)
Mo2A Mo -0.33943(9) -0.45967(7) -0.66586(7)
Mo3A Mo -0.51917(9) -0.29147(7) -0.58019(7)
Mo4A Mo -0.69946(9) -0.57053(7) -0.76948(7)
Mo5A Mo -0.14302(8) -0.43186(7) -0.41097(8)
Mo6A Mo -0.36503(9) -0.69169(7) -0.61778(7)
O1A O -0.1829(8) -0.1007(5) -0.2336(5)
O2A O -0.3493(8) -0.2123(8) -0.4431(6)
O3A O -0.5123(7) -0.1898(6) -0.6144(7)
O4A O -0.3505(10) -0.6119(6) -0.6896(7)
O5A O -0.6491(7) -0.4084(6) -0.6992(7)
O6A O -0.2733(9) -0.2960(7) -0.2211(7)
O7A O -0.8326(10) -0.5585(6) -0.7053(7)
O8A O -0.1994(10) -0.5750(6) -0.4920(7)
O9A O -0.5297(7) -0.5440(6) -0.7715(7)
O10A O -0.6183(7) -0.2739(8) -0.5014(6)
O11A O -0.4527(7) -0.2286(8) -0.3057(6)
O13A O 0.0247(7) -0.3931(6) -0.3652(6)
O14A O -0.7968(7) -0.5917(5) -0.8916(5)
O15A O -0.2705(7) -0.4514(5) -0.7516(5)
O16A O -0.1578(10) -0.2849(7) -0.3550(8)
O17A O -0.3790(7) -0.3376(6) -0.6293(8)
O18A O -0.1864(10) -0.4115(6) -0.5427(6)
O20A O -0.2951(8) -0.7803(6) -0.6619(6)
Cu1_2 Cu 1.04715(14) 1.55801(10) 0.83932(11)
Cu1A_2 Cu -2.04715(14) -2.55801(10) -1.83932(11)
Cu2_2 Cu -0.29158(15) -0.42272(10) -0.92991(12)
Cu2A_2 Cu -0.70842(15) -0.57728(10) -0.07009(12)
N5_2 N -0.0279(8) -0.5929(6) -0.2316(7)
N5A_2 N -0.9721(8) -0.4071(6) -0.7684(7)
O15_2 O -1.7295(7) -1.5486(5) -1.2484(5)
O15A_2 O 0.7295(7) 0.5486(5) 0.2484(5)
loop_
_geom_bond_atom_site_label_1
_geom_bond_atom_site_label_2
_geom_bond_site_symmetry_1
_geom_bond_site_symmetry_2
Cu1 N7 1_555 1_555
Cu2 N1 1_555 1_555
N1 C2 1_555 1_555
N2 C4 1_555 1_555
C1 N6 1_555 1_555
N3 C5 1_555 1_555
N4 C7 1_555 1_555
N5 C7 1_555 1_555
C2 H1 1_555 1_555
N6 C2 1_555 1_555
C3 H2 1_555 1_555
N7 C17 1_555 1_555
N8 Cu2 1_555 1_555
C4 C3 1_555 1_555
C5 N8 1_555 1_555
H3 C5 1_555 1_555
C6 C1 1_555 1_555
H4 C6 1_555 1_555
C7 H5 1_555 1_555
C8 C4 1_555 1_555
H6 C8 1_555 1_555
C9 C1 1_555 1_555
H7 C9 1_555 1_555
C10 N5 1_555 1_555
H8 C10 1_555 1_555
C11 H9 1_555 1_555
C12 N1 1_555 1_555
H10 C12 1_555 1_555
C13 N3 1_555 1_555
H11 C13 1_555 1_555
C14 N8 1_555 1_555
H12 C14 1_555 1_555
C15 N4 1_555 1_555
H13 C15 1_555 1_555
C16 N3 1_555 1_555
C17 N2 1_555 1_555
H14 C17 1_555 1_555
C18 C11 1_555 1_555
H15 C18 1_555 1_555
C19 C16 1_555 1_555
H16 C19 1_555 1_555
C20 N7 1_555 1_555
H17 C20 1_555 1_555
C21 N2 1_555 1_555
H18 C21 1_555 1_555
C22 N6 1_555 1_555
H19 C22 1_555 1_555
C23 N4 1_555 1_555
C24 C19 1_555 1_555
H20 C24 1_555 1_555
Mo1 O1 1_555 1_555
Mo2 O4 1_555 1_555
Mo3 O2 1_555 1_555
Mo4 O5 1_555 1_555
Mo5 O8 1_555 1_555
Mo6 O4 1_555 1_555
Si1 O12 1_555 1_555
O2 Mo1 1_555 1_555
O3 Mo3 1_555 1_555
O5 Mo3 1_555 1_555
O6 Mo1 1_555 1_555
O7 Cu1 1_555 1_555
O8 Mo6 1_555 1_555
O9 Mo2 1_555 1_555
O10 Mo3 1_555 1_555
O11 Mo1 1_555 1_555
O12 Mo1 1_555 1_555
O13 Mo5 1_555 1_555
O14 Mo4 1_555 1_555
O15 Mo2 1_555 1_555
O16 Mo1 1_555 1_555
O17 Mo2 1_555 1_555
O18 Mo2 1_555 1_555
O19 Mo1 1_555 1_555
O20 Mo6 1_555 1_555
O21 Mo2 1_555 1_555
O22 Mo2 1_555 1_555
O12A Mo4 1_555 1_555
O19A Mo6 1_555 1_555
O21A Si1 1_555 1_555
O22A Si1 1_555 1_555
Cu1A N7A 1_555 1_555
Cu2A N1A 1_555 1_555
N1A C2A 1_555 1_555
N2A C4A 1_555 1_555
C1A N6A 1_555 1_555
N3A C5A 1_555 1_555
N4A C7A 1_555 1_555
N5A C7A 1_555 1_555
C2A H1A 1_555 1_555
N6A C2A 1_555 1_555
C3A H2A 1_555 1_555
N7A C17A 1_555 1_555
N8A Cu2A 1_555 1_555
C4A C3A 1_555 1_555
C5A N8A 1_555 1_555
H3A C5A 1_555 1_555
C6A C1A 1_555 1_555
H4A C6A 1_555 1_555
C7A H5A 1_555 1_555
C8A C4A 1_555 1_555
H6A C8A 1_555 1_555
C9A C1A 1_555 1_555
H7A C9A 1_555 1_555
C10A N5A 1_555 1_555
H8A C10A 1_555 1_555
C11A H9A 1_555 1_555
C12A N1A 1_555 1_555
H10A C12A 1_555 1_555
C13A N3A 1_555 1_555
H11A C13A 1_555 1_555
C14A N8A 1_555 1_555
H12A C14A 1_555 1_555
C15A N4A 1_555 1_555
H13A C15A 1_555 1_555
C16A N3A 1_555 1_555
C17A N2A 1_555 1_555
H14A C17A 1_555 1_555
C18A C11A 1_555 1_555
H15A C18A 1_555 1_555
C19A C16A 1_555 1_555
H16A C19A 1_555 1_555
C20A N7A 1_555 1_555
H17A C20A 1_555 1_555
C21A N2A 1_555 1_555
H18A C21A 1_555 1_555
C22A N6A 1_555 1_555
H19A C22A 1_555 1_555
C23A N4A 1_555 1_555
C24A C19A 1_555 1_555
H20A C24A 1_555 1_555
Mo1A O12A 1_555 1_555
Mo2A O21A 1_555 1_555
Mo3A O19A 1_555 1_555
Mo4A O6 1_555 1_555
Mo5A O7 1_555 1_555
Mo6A O10 1_555 1_555
O1A Mo1A 1_555 1_555
O2A Mo1A 1_555 1_555
O3A Mo3A 1_555 1_555
O4A Mo2A 1_555 1_555
O5A Mo3A 1_555 1_555
O6A Mo4 1_555 1_555
O7A Mo5 1_555 1_555
O8A Mo5A 1_555 1_555
O9A Mo2A 1_555 1_555
O10A Mo6 1_555 1_555
O11A Mo6 1_555 1_555
O13A Mo5A 1_555 1_555
O14A Mo4A 1_555 1_555
O15A Mo2A 1_555 1_555
O16A Mo1A 1_555 1_555
O17A Mo2A 1_555 1_555
O18A Mo2A 1_555 1_555
O20A Mo6A 1_555 1_555
Cu1_2 N5 1_555 1_555
Cu1A_2 N5A 1_555 1_555
Cu2_2 O15A 1_555 1_555
Cu2A_2 O15 1_555 1_555
N5_2 Cu1 1_555 1_555
N5A_2 Cu1A 1_555 1_555
O15_2 Cu2A 1_555 1_555
O15A_2 Cu2 1_555 1_555
C3 C9 1_555 1_555
C6 C8 1_555 1_555
C10 C15 1_555 1_555
C11 C16 1_555 1_555
C12 C22 1_555 1_555
C13 C14 1_555 1_555
C18 C23 1_555 1_555
C20 C21 1_555 1_555
C23 C24 1_555 1_555
Mo3 O17 1_555 1_555
Mo3 O19 1_555 1_555
Mo3 O22 1_555 1_555
Mo4 O7 1_555 1_555
Mo4 O9 1_555 1_555
Mo4 O22 1_555 1_555
Mo5 O12 1_555 1_555
Mo5 O16 1_555 1_555
Mo5 O18 1_555 1_555
Mo5 O21 1_555 1_555
Mo6 O21 1_555 1_555
Si1 O19 1_555 1_555
Si1 O21 1_555 1_555
Si1 O22 1_555 1_555
Si1 O12A 1_555 1_555
Si1 O19A 1_555 1_555
O11 Mo6A 1_555 1_555
O12 Mo4A 1_555 1_555
O19 Mo6A 1_555 1_555
O12A Mo5A 1_555 1_555
O19A Mo1A 1_555 1_555
O21A Mo5A 1_555 1_555
O21A Mo6A 1_555 1_555
O22A Mo2A 1_555 1_555
O22A Mo3A 1_555 1_555
O22A Mo4A 1_555 1_555
Cu1A O7A 1_555 1_555
C3A C9A 1_555 1_555
C6A C8A 1_555 1_555
C10A C15A 1_555 1_555
C11A C16A 1_555 1_555
C12A C22A 1_555 1_555
C13A C14A 1_555 1_555
C18A C23A 1_555 1_555
C20A C21A 1_555 1_555
C23A C24A 1_555 1_555
Mo1A O6A 1_555 1_555
Mo1A O11A 1_555 1_555
Mo3A O2A 1_555 1_555
Mo3A O10A 1_555 1_555
Mo3A O17A 1_555 1_555
Mo4A O5A 1_555 1_555
Mo4A O7A 1_555 1_555
Mo4A O9A 1_555 1_555
Mo5A O16A 1_555 1_555
Mo5A O18A 1_555 1_555
Mo6A O4A 1_555 1_555
Mo6A O8A 1_555 1_555

#END
