
#######################################################################
#
#                 Cambridge Crystallographic Data Centre
#                                CCDC 
#
#######################################################################
#
# If this CIF has been generated from an entry in the Cambridge 
# Structural Database, then it will include bibliographic, chemical, 
# crystal, experimental, refinement or atomic coordinate data resulting 
# from the CCDC's data processing and validation procedures.
#
#######################################################################

data_YUBQUI02
_symmetry_cell_setting           monoclinic
_symmetry_space_group_name_H-M   'P 21/c'
_symmetry_Int_Tables_number      14
_space_group_name_Hall           '-P 2ybc'
loop_
_symmetry_equiv_pos_site_id
_symmetry_equiv_pos_as_xyz
1 x,y,z
2 -x,1/2+y,1/2-z
3 -x,-y,-z
4 x,1/2-y,1/2+z
_cell_length_a                   17.1490(4)
_cell_length_b                   12.7240(3)
_cell_length_c                   13.6410(6)
_cell_angle_alpha                90
_cell_angle_beta                 91.6560(10)
_cell_angle_gamma                90
_cell_volume                     2975.28
loop_
_atom_site_label
_atom_site_type_symbol
_atom_site_fract_x
_atom_site_fract_y
_atom_site_fract_z
Fe1 Fe 0.25303(4) 0.00168(5) 0.22011(5)
Cu1 Cu 0.15678(4) 0.29918(5) 0.01048(5)
Cu2 Cu 0.34770(4) -0.26098(5) 0.46777(5)
N1 N 0.1516(2) -0.0802(3) 0.2093(3)
N2 N 0.3560(2) 0.0797(3) 0.2357(3)
N3 N 0.2153(3) 0.1036(4) 0.1239(3)
N4 N 0.2093(2) 0.0854(3) 0.3282(3)
N5 N 0.2912(2) -0.1008(3) 0.3185(3)
N6 N 0.2939(3) -0.0805(4) 0.1149(4)
N7 N 0.0373(3) 0.2792(4) 0.0425(3)
N8 N 0.1961(3) 0.4002(4) 0.1346(3)
N9 N 0.4691(3) -0.2531(4) 0.4928(4)
C1 C 0.0820(3) -0.0320(5) 0.2096(4)
H1 H 0.0808 0.0409 0.2138
C2 C 0.0121(3) -0.0860(5) 0.2041(4)
H2 H -0.0349 -0.0495 0.2043
C3 C 0.0123(4) -0.1944(5) 0.1982(4)
H3 H -0.0338 -0.2329 0.1937
C4 C 0.0837(4) -0.2422(5) 0.1994(4)
C5 C 0.1520(3) -0.1852(4) 0.2037(4)
H4 H 0.1995 -0.2205 0.2027
C6 C 0.4250(3) 0.0295(4) 0.2410(4)
H5 H 0.4249 -0.0435 0.2383
C7 C 0.4947(3) 0.0793(5) 0.2502(5)
H6 H 0.5404 0.0400 0.2541
C8 C 0.4986(4) 0.1882(5) 0.2539(5)
H7 H 0.5455 0.2244 0.2604
C9 C 0.4279(4) 0.2379(4) 0.2473(4)
C10 C 0.3586(3) 0.1851(4) 0.2389(4)
H8 H 0.3123 0.2230 0.2353
C11 C 0.1935(3) 0.1666(3) 0.0693(3)
C12 C 0.1859(3) 0.1318(4) 0.3942(4)
C13 C 0.3127(3) -0.1616(4) 0.3751(4)
C14 C 0.3161(3) -0.1311(4) 0.0517(4)
C15 C -0.0127(4) 0.3592(5) 0.0490(4)
H9 H 0.0072 0.4273 0.0502
C16 C -0.0931(4) 0.3458(7) 0.0541(4)
H10 H -0.1259 0.4037 0.0584
C17 C -0.1236(4) 0.2443(7) 0.0527(5)
H11 H -0.1770 0.2319 0.0555
C18 C -0.0716(3) 0.1648(5) 0.0471(4)
C19 C 0.0065(3) 0.1818(5) 0.0429(4)
H12 H 0.0397 0.1243 0.0402
C20 C 0.1874(3) 0.3682(5) 0.2274(4)
H13 H 0.1602 0.3062 0.2381
C21 C 0.2167(4) 0.4226(6) 0.3079(5)
H14 H 0.2099 0.3974 0.3711
C22 C 0.2564(4) 0.5149(6) 0.2925(6)
H15 H 0.2754 0.5550 0.3449
C23 C 0.2668(4) 0.5454(5) 0.1991(6)
C24 C 0.2356(3) 0.4893(4) 0.1207(5)
H16 H 0.2422 0.5138 0.0573
C25 C 0.5122(4) -0.3378(5) 0.5095(5)
H17 H 0.4869 -0.4019 0.5161
C26 C 0.5926(4) -0.3364(8) 0.5178(6)
H18 H 0.6211 -0.3977 0.5290
C27 C 0.6289(4) -0.2404(9) 0.5087(6)
H19 H 0.6830 -0.2349 0.5141
C28 C 0.5845(4) -0.1550(7) 0.4920(6)
C29 C 0.5066(4) -0.1621(5) 0.4823(5)
H20 H 0.4779 -0.1017 0.4679
F1 F 0.0881(2) -0.3482(3) 0.1961(3)
F2 F 0.4253(2) 0.3448(3) 0.2488(3)
F3 F -0.0982(2) 0.0647(4) 0.0457(3)
F4 F 0.3081(3) 0.6333(3) 0.1790(4)
F5 F 0.6135(3) -0.0545(6) 0.4807(6)
Cu1C Cu 0.15678(4) 0.20082(5) 0.51048(5)
Cu2C Cu 0.34770(4) -0.23902(5) -0.03223(5)
C12C C 0.1859(3) 0.3682(4) -0.1058(4)
C14C C 0.3161(3) -0.3689(4) 0.5517(4)
loop_
_geom_bond_atom_site_label_1
_geom_bond_atom_site_label_2
_geom_bond_site_symmetry_1
_geom_bond_site_symmetry_2
Fe1 N1 1_555 1_555
Cu1 N7 1_555 1_555
Cu2 N9 1_555 1_555
N1 C1 1_555 1_555
N2 Fe1 1_555 1_555
N3 Fe1 1_555 1_555
N4 Fe1 1_555 1_555
N5 Fe1 1_555 1_555
N6 Fe1 1_555 1_555
N7 C15 1_555 1_555
N8 Cu1 1_555 1_555
N9 C25 1_555 1_555
C1 H1 1_555 1_555
C2 C1 1_555 1_555
H2 C2 1_555 1_555
C3 C2 1_555 1_555
H3 C3 1_555 1_555
C4 C3 1_555 1_555
C5 N1 1_555 1_555
H4 C5 1_555 1_555
C6 N2 1_555 1_555
H5 C6 1_555 1_555
C7 C6 1_555 1_555
H6 C7 1_555 1_555
C8 C7 1_555 1_555
H7 C8 1_555 1_555
C9 C8 1_555 1_555
C10 N2 1_555 1_555
H8 C10 1_555 1_555
C11 Cu1 1_555 1_555
C12 N4 1_555 1_555
C13 Cu2 1_555 1_555
C14 N6 1_555 1_555
C15 H9 1_555 1_555
C16 C15 1_555 1_555
H10 C16 1_555 1_555
C17 C16 1_555 1_555
H11 C17 1_555 1_555
C18 C17 1_555 1_555
C19 N7 1_555 1_555
H12 C19 1_555 1_555
C20 N8 1_555 1_555
H13 C20 1_555 1_555
C21 C20 1_555 1_555
H14 C21 1_555 1_555
C22 C21 1_555 1_555
H15 C22 1_555 1_555
C23 C22 1_555 1_555
C24 N8 1_555 1_555
H16 C24 1_555 1_555
C25 H17 1_555 1_555
C26 C25 1_555 1_555
H18 C26 1_555 1_555
C27 C26 1_555 1_555
H19 C27 1_555 1_555
C28 C27 1_555 1_555
C29 N9 1_555 1_555
H20 C29 1_555 1_555
F1 C4 1_555 1_555
F2 C9 1_555 1_555
F3 C18 1_555 1_555
F4 C23 1_555 1_555
F5 C28 1_555 1_555
Cu1C C12 1_555 1_555
Cu2C C14 1_555 1_555
C12C Cu1 1_555 1_555
C14C Cu2 1_555 1_555
N3 C11 1_555 1_555
N5 C13 1_555 1_555
C4 C5 1_555 1_555
C9 C10 1_555 1_555
C18 C19 1_555 1_555
C23 C24 1_555 1_555
C28 C29 1_555 1_555

#END
