
#######################################################################
#
#                 Cambridge Crystallographic Data Centre
#                                CCDC 
#
#######################################################################
#
# If this CIF has been generated from an entry in the Cambridge 
# Structural Database, then it will include bibliographic, chemical, 
# crystal, experimental, refinement or atomic coordinate data resulting 
# from the CCDC's data processing and validation procedures.
#
#######################################################################

data_YUBQET
_symmetry_cell_setting           monoclinic
_symmetry_space_group_name_H-M   'P 21/c'
_symmetry_Int_Tables_number      14
_space_group_name_Hall           '-P 2ybc'
loop_
_symmetry_equiv_pos_site_id
_symmetry_equiv_pos_as_xyz
1 x,y,z
2 -x,1/2+y,1/2-z
3 -x,-y,-z
4 x,1/2-y,1/2+z
_cell_length_a                   11.0020(6)
_cell_length_b                   22.1547(17)
_cell_length_c                   16.9957(9)
_cell_angle_alpha                90
_cell_angle_beta                 100.697(5)
_cell_angle_gamma                90
_cell_volume                     4070.65
loop_
_atom_site_label
_atom_site_type_symbol
_atom_site_fract_x
_atom_site_fract_y
_atom_site_fract_z
Co1 Co 0.14436(4) 0.557404(19) 0.53059(3)
O1 O 0.00072(19) 0.59090(11) 0.45246(14)
O2 O -0.7860(2) 0.85308(11) 0.06017(15)
O3 O -0.6736(2) 0.92857(10) 0.11576(14)
O4 O -0.1626(2) 0.53315(11) 0.46079(14)
N1 N 0.2442(2) 0.55154(12) 0.43341(16)
N2 N 1.0529(2) 0.55536(13) -0.36778(17)
N3 N 0.4411(3) 0.56201(15) 0.18218(19)
H1 H 0.3828 0.5869 0.1636
N4 N 0.5603(3) 0.49748(14) 0.25744(19)
N5 N 0.6118(3) 0.50443(15) 0.1913(2)
C1 C -0.6001(3) 0.82887(16) 0.1492(2)
N6 N 0.8345(3) 0.49663(16) -0.0601(2)
N7 N 0.7811(3) 0.56514(15) -0.15156(19)
H2 H 0.7442 0.5945 -0.1794
C2 C -0.6908(3) 0.87251(16) 0.1067(2)
C3 C 0.4110(3) 0.50414(16) 0.3830(2)
H3 H 0.4764 0.4769 0.3911
C4 C 1.0997(3) 0.51942(17) -0.3061(2)
H4 H 1.1734 0.4993 -0.3079
N8 N 0.9132(3) 0.48914(16) -0.1127(2)
C5 C 0.4583(3) 0.53298(17) 0.2505(2)
C6 C 0.3835(3) 0.53810(17) 0.3131(2)
C7 C 0.9481(3) 0.58442(17) -0.3626(2)
H5 H 0.9135 0.6097 -0.4045
C8 C 0.8887(3) 0.57878(18) -0.2985(2)
H6 H 0.8166 0.6003 -0.2971
C9 C 0.2851(3) 0.57812(18) 0.3049(2)
H7 H 0.2639 0.6010 0.2585
C10 C 0.5360(3) 0.54376(19) 0.1477(2)
N9 N 0.4799(4) 0.6247(3) -0.0475(3)
C11 C 0.3376(3) 0.51239(16) 0.4403(2)
H8 H 0.3547 0.4891 0.4865
C12 C 0.6484(3) 0.5423(2) 0.0328(2)
H9 H 0.7035 0.5138 0.0591
C13 C 0.2187(3) 0.58384(16) 0.3660(2)
H10 H 0.1537 0.6113 0.3599
C14 C -0.2219(4) 0.70689(19) 0.2956(3)
H11 H -0.1876 0.7368 0.2682
C15 C -0.1123(3) 0.57861(16) 0.4367(2)
C16 C -0.1933(3) 0.62226(16) 0.3838(2)
C17 C -0.3497(3) 0.70263(17) 0.2864(2)
C18 C -0.4340(3) 0.74642(17) 0.2367(2)
C19 C 0.9376(3) 0.54066(17) -0.2358(2)
C20 C -0.1447(3) 0.66780(19) 0.3443(2)
H12 H -0.0594 0.6722 0.3505
C21 C -0.4040(3) 0.80676(17) 0.2357(2)
H13 H -0.3286 0.8202 0.2644
C22 C 1.0457(4) 0.51049(18) -0.2406(2)
H14 H 1.0814 0.4844 -0.1999
C23 C 0.6598(4) 0.5623(2) -0.0423(3)
C24 C -0.3962(4) 0.6576(2) 0.3262(3)
H15 H -0.4816 0.6540 0.3210
C25 C 0.7565(3) 0.5422(2) -0.0843(2)
C26 C 0.8759(4) 0.53256(19) -0.1662(2)
C27 C -0.4859(3) 0.84783(18) 0.1919(2)
H16 H -0.4640 0.8884 0.1911
C28 C 0.5555(4) 0.5643(2) 0.0688(2)
C29 C -0.6277(4) 0.76741(18) 0.1491(3)
H17 H -0.7021 0.7536 0.1194
C30 C -0.3213(3) 0.61710(19) 0.3741(3)
H18 H -0.3562 0.5864 0.3998
C31 C 0.5721(5) 0.6028(3) -0.0787(3)
H19 H 0.5783 0.6158 -0.1298
C32 C -0.5472(4) 0.72704(18) 0.1921(3)
H20 H -0.5680 0.6863 0.1916
C33 C 0.4741(5) 0.6044(3) 0.0261(3)
H21 H 0.4100 0.6185 0.0499
Co1_2 Co 1.14436(4) 0.557404(19) -0.46941(3)
Co1B Co -0.14436(4) 0.442596(19) 0.46941(3)
Co1C Co -0.85564(4) 0.942596(19) 0.03059(3)
O2C O 0.2140(2) 0.64692(11) 0.56017(15)
O3C O 0.3264(2) 0.57143(10) 0.61576(14)
O4B O 0.1626(2) 0.46685(11) 0.53921(14)
N2_2 N 0.0529(2) 0.55536(13) 0.63222(17)
N10 N 0.9765(7) 0.6932(3) 0.1067(5)
C34 C 0.8997(8) 0.6521(4) 0.0537(5)
H22 H 0.8162 0.6546 0.0626
H23 H 0.9298 0.6117 0.0640
H24 H 0.9017 0.6626 -0.0008
C35 C 0.9695(9) 0.7564(4) 0.0968(7)
H25 H 1.0459 0.7711 0.0844
H26 H 0.9553 0.7748 0.1454
H27 H 0.9027 0.7663 0.0538
O5 O 1.1055(5) 0.6958(2) 0.2256(4)
C36 C 1.0485(8) 0.6669(4) 0.1716(6)
H28 H 1.0535 0.6250 0.1739
loop_
_geom_bond_atom_site_label_1
_geom_bond_atom_site_label_2
_geom_bond_site_symmetry_1
_geom_bond_site_symmetry_2
Co1 O1 1_555 1_555
O1 C15 1_555 1_555
O2 C2 1_555 1_555
O3 C2 1_555 1_555
O4 C15 1_555 1_555
N1 Co1 1_555 1_555
N2 C4 1_555 1_555
N3 H1 1_555 1_555
N4 N5 1_555 1_555
N5 C10 1_555 1_555
C1 C2 1_555 1_555
N6 N8 1_555 1_555
N7 H2 1_555 1_555
C3 H3 1_555 1_555
C4 H4 1_555 1_555
N8 C26 1_555 1_555
C5 N3 1_555 1_555
C6 C3 1_555 1_555
C7 N2 1_555 1_555
H5 C7 1_555 1_555
C8 C7 1_555 1_555
H6 C8 1_555 1_555
C9 C6 1_555 1_555
H7 C9 1_555 1_555
C10 N3 1_555 1_555
N9 C31 1_555 1_555
C11 N1 1_555 1_555
H8 C11 1_555 1_555
C12 H9 1_555 1_555
C13 N1 1_555 1_555
H10 C13 1_555 1_555
C14 H11 1_555 1_555
C15 C16 1_555 1_555
C16 C20 1_555 1_555
C17 C14 1_555 1_555
C18 C17 1_555 1_555
C19 C8 1_555 1_555
C20 C14 1_555 1_555
H12 C20 1_555 1_555
C21 C18 1_555 1_555
H13 C21 1_555 1_555
C22 C4 1_555 1_555
H14 C22 1_555 1_555
C23 C12 1_555 1_555
C24 C17 1_555 1_555
H15 C24 1_555 1_555
C25 N6 1_555 1_555
C26 N7 1_555 1_555
C27 C1 1_555 1_555
H16 C27 1_555 1_555
C28 C10 1_555 1_555
C29 C1 1_555 1_555
H17 C29 1_555 1_555
C30 C16 1_555 1_555
H18 C30 1_555 1_555
C31 C23 1_555 1_555
H19 C31 1_555 1_555
C32 C18 1_555 1_555
H20 C32 1_555 1_555
C33 N9 1_555 1_555
H21 C33 1_555 1_555
N10 C34 1_555 1_555
C34 H22 1_555 1_555
H23 C34 1_555 1_555
H24 C34 1_555 1_555
C35 N10 1_555 1_555
H25 C35 1_555 1_555
H26 C35 1_555 1_555
H27 C35 1_555 1_555
O5 C36 1_555 1_555
C36 N10 1_555 1_555
H28 C36 1_555 1_555
Co1_2 N2 1_555 1_555
Co1B O4 1_555 1_555
Co1C O2 1_555 1_555
O2C Co1 1_555 1_555
O3C Co1 1_555 1_555
O4B Co1 1_555 1_555
N2_2 Co1 1_555 1_555
O3 Co1C 1_555 1_555
N4 C5 1_555 1_555
N7 C25 1_555 1_555
C3 C11 1_555 1_555
C5 C6 1_555 1_555
C9 C13 1_555 1_555
C12 C28 1_555 1_555
C19 C22 1_555 1_555
C19 C26 1_555 1_555
C21 C27 1_555 1_555
C23 C25 1_555 1_555
C24 C30 1_555 1_555
C28 C33 1_555 1_555
C29 C32 1_555 1_555

#END
