
#######################################################################
#
#                 Cambridge Crystallographic Data Centre
#                                CCDC 
#
#######################################################################
#
# If this CIF has been generated from an entry in the Cambridge 
# Structural Database, then it will include bibliographic, chemical, 
# crystal, experimental, refinement or atomic coordinate data resulting 
# from the CCDC's data processing and validation procedures.
#
#######################################################################

data_YUBRAP
_symmetry_cell_setting           monoclinic
_symmetry_space_group_name_H-M   'P 21/c'
_symmetry_Int_Tables_number      14
_space_group_name_Hall           '-P 2ybc'
loop_
_symmetry_equiv_pos_site_id
_symmetry_equiv_pos_as_xyz
1 x,y,z
2 -x,1/2+y,1/2-z
3 -x,-y,-z
4 x,1/2-y,1/2+z
_cell_length_a                   17.3740(5)
_cell_length_b                   8.7380(2)
_cell_length_c                   23.5790(6)
_cell_angle_alpha                90
_cell_angle_beta                 126.243(2)
_cell_angle_gamma                90
_cell_volume                     2887.03
loop_
_atom_site_label
_atom_site_type_symbol
_atom_site_fract_x
_atom_site_fract_y
_atom_site_fract_z
Fe1 Fe 0.5000 0.5000 0.5000
Fe2 Fe 0.0000 0.5000 0.0000
Cu1 Cu 0.20894(5) 0.39377(8) 0.25845(3)
Cu2 Cu 0.29357(5) 0.75150(9) 0.55435(4)
Cl1 Cl 0.6867(2) -0.0198(2) 0.66005(12)
Cl2 Cl -0.12783(14) -0.0312(2) -0.16049(10)
Cl3 Cl -0.16757(13) 0.1965(3) 0.13958(11)
Cl4 Cl 0.66198(15) 0.7613(4) 0.81398(11)
N1 N 0.4965(3) 0.2929(6) 0.5349(2)
N2 N 0.3913(3) 0.4454(5) 0.4057(2)
N3 N 0.4153(3) 0.5804(6) 0.5208(2)
N4 N 0.0266(3) 0.2922(5) -0.0214(2)
N5 N 0.0846(3) 0.4555(5) 0.1003(2)
N6 N 0.1094(3) 0.9141(6) 0.5074(2)
N7 N 0.1069(4) 0.2926(6) 0.2689(3)
N8 N 0.3856(4) 0.7821(7) 0.6651(3)
C1 C 0.4129(5) 0.2252(8) 0.5124(3)
H1 H 0.3563 0.2790 0.4828
C2 C 0.4098(7) 0.0784(10) 0.5324(4)
H2 H 0.3513 0.0334 0.5153
C3 C 0.4942(7) -0.0027(9) 0.5781(4)
H3 H 0.4933 -0.1023 0.5917
C4 C 0.5783(6) 0.0692(8) 0.6024(4)
C5 C 0.5779(5) 0.2151(7) 0.5793(3)
H4 H 0.6357 0.2607 0.5951
C6 C 0.3238(4) 0.4223(6) 0.3499(3)
C7 C 0.3654(4) 0.6372(7) 0.5325(3)
C8 C 0.1146(4) 0.2318(8) 0.0159(3)
H5 H 0.1648 0.2883 0.0528
C9 C 0.1335(5) 0.0900(8) 0.0019(3)
H6 H 0.1957 0.0526 0.0288
C10 C 0.0604(5) 0.0028(8) -0.0522(3)
H7 H 0.0715 -0.0943 -0.0620
C11 C -0.0288(5) 0.0651(7) -0.0905(3)
C12 C -0.0451(4) 0.2084(7) -0.0737(3)
H8 H -0.1070 0.2467 -0.0994
C13 C 0.1358(4) 0.4343(7) 0.1598(3)
C14 C 0.1791(4) 0.8562(7) 0.5213(3)
C15 C 0.1281(5) 0.2486(8) 0.3314(3)
H9 H 0.1907 0.2585 0.3712
C16 C 0.0608(6) 0.1892(9) 0.3391(4)
H10 H 0.0781 0.1597 0.3831
C17 C -0.0313(5) 0.1747(8) 0.2810(4)
H11 H -0.0780 0.1357 0.2846
C18 C -0.0533(5) 0.2195(8) 0.2165(4)
C19 C 0.0167(4) 0.2755(7) 0.2126(3)
H12 H 0.0008 0.3029 0.1687
C20 C 0.3527(5) 0.8402(11) 0.6998(4)
H13 H 0.2876 0.8589 0.6748
C21 C 0.4105(6) 0.8732(12) 0.7704(4)
H14 H 0.3848 0.9118 0.7926
C22 C 0.5063(6) 0.8484(10) 0.8075(4)
H15 H 0.5472 0.8692 0.8554
C23 C 0.5408(5) 0.7917(10) 0.7718(4)
C24 C 0.4791(5) 0.7570(8) 0.7018(3)
H16 H 0.5032 0.7145 0.6791
Fe2A Fe 0.0000 1.0000 0.5000
Fe2_2 Fe 1.0000 0.5000 1.0000
Fe2A_2 Fe 1.0000 0.0000 0.5000
Cu1B Cu 0.79106(5) 0.60623(8) 0.74155(3)
Cu2B Cu 0.70643(5) 0.24850(9) 0.44565(4)
Cl1B Cl 0.3133(2) 1.0198(2) 0.33995(12)
Cl2B Cl 0.12783(14) 1.0312(2) 0.16049(10)
Cl3B Cl 1.16757(13) 0.8035(3) 0.86042(11)
Cl4B Cl 0.33802(15) 0.2387(4) 0.18602(11)
N1B N 0.5035(3) 0.7071(6) 0.4651(2)
N2B N 0.6087(3) 0.5546(5) 0.5943(2)
N3B N 0.5847(3) 0.4196(6) 0.4792(2)
N4B N -0.0266(3) 0.7078(5) 0.0214(2)
N5B N 0.9154(3) 0.5445(5) 0.8997(2)
N5B_2 N -0.0846(3) 0.5445(5) -0.1003(2)
N6B N 0.8906(3) 0.0859(6) 0.4926(2)
N6A N -0.1094(3) 0.4141(6) -0.0074(2)
N6C N 0.1094(3) 0.5859(6) 0.0074(2)
N7B N 0.8931(4) 0.7074(6) 0.7311(3)
N8B N 0.6144(4) 0.2179(7) 0.3349(3)
C1B C 0.5871(5) 0.7748(8) 0.4876(3)
H1B H 0.6437 0.7210 0.5172
C2B C 0.5902(7) 0.9216(10) 0.4676(4)
H2B H 0.6487 0.9666 0.4847
C3B C 0.5058(7) 1.0027(9) 0.4219(4)
H3B H 0.5067 1.1023 0.4083
C4B C 0.4217(6) 0.9308(8) 0.3976(4)
C5B C 0.4221(5) 0.7849(7) 0.4207(3)
H4B H 0.3643 0.7393 0.4049
C6B C 0.6762(4) 0.5777(6) 0.6501(3)
C7B C 0.6346(4) 0.3628(7) 0.4675(3)
C8B C -0.1146(4) 0.7682(8) -0.0159(3)
H5B H -0.1648 0.7117 -0.0528
C9B C -0.1335(5) 0.9100(8) -0.0019(3)
H6B H -0.1957 0.9474 -0.0288
C10B C -0.0604(5) 0.9972(8) 0.0522(3)
H7B H -0.0715 1.0943 0.0620
C11B C 0.0288(5) 0.9349(7) 0.0905(3)
C12B C 0.0451(4) 0.7916(7) 0.0737(3)
H8B H 0.1070 0.7533 0.0994
C13B C 0.8642(4) 0.5657(7) 0.8402(3)
C14B C 0.8209(4) 0.1438(7) 0.4787(3)
C15B C 0.8719(5) 0.7514(8) 0.6686(3)
H9B H 0.8093 0.7415 0.6288
C16B C 0.9392(6) 0.8108(9) 0.6609(4)
H10B H 0.9219 0.8403 0.6169
C17B C 1.0313(5) 0.8253(8) 0.7190(4)
H11B H 1.0780 0.8643 0.7154
C18B C 1.0533(5) 0.7805(8) 0.7835(4)
C19B C 0.9833(4) 0.7245(7) 0.7874(3)
H12B H 0.9992 0.6971 0.8313
C20B C 0.6473(5) 0.1598(11) 0.3002(4)
H13B H 0.7124 0.1411 0.3252
C21B C 0.5895(6) 0.1268(12) 0.2296(4)
H14B H 0.6152 0.0882 0.2074
C22B C 0.4937(6) 0.1516(10) 0.1925(4)
H15B H 0.4528 0.1308 0.1446
C23B C 0.4592(5) 0.2083(10) 0.2282(4)
C24B C 0.5209(5) 0.2430(8) 0.2982(3)
H16B H 0.4968 0.2855 0.3209
loop_
_geom_bond_atom_site_label_1
_geom_bond_atom_site_label_2
_geom_bond_site_symmetry_1
_geom_bond_site_symmetry_2
Fe1 N1 1_555 1_555
Fe2 N4 1_555 1_555
Cu1 N7 1_555 1_555
Cu2 N8 1_555 1_555
Cl1 C4 1_555 1_555
Cl2 C11 1_555 1_555
Cl3 C18 1_555 1_555
Cl4 C23 1_555 1_555
N1 C1 1_555 1_555
N2 Fe1 1_555 1_555
N3 Fe1 1_555 1_555
N4 C8 1_555 1_555
N5 Fe2 1_555 1_555
N6 C14 1_555 1_555
N7 C15 1_555 1_555
N8 C20 1_555 1_555
C1 H1 1_555 1_555
C2 C1 1_555 1_555
H2 C2 1_555 1_555
C3 C2 1_555 1_555
H3 C3 1_555 1_555
C4 C3 1_555 1_555
C5 N1 1_555 1_555
H4 C5 1_555 1_555
C6 Cu1 1_555 1_555
C7 Cu2 1_555 1_555
C8 H5 1_555 1_555
C9 C8 1_555 1_555
H6 C9 1_555 1_555
C10 C9 1_555 1_555
H7 C10 1_555 1_555
C11 C10 1_555 1_555
C12 N4 1_555 1_555
H8 C12 1_555 1_555
C13 Cu1 1_555 1_555
C14 Cu2 1_555 1_555
C15 H9 1_555 1_555
C16 C15 1_555 1_555
H10 C16 1_555 1_555
C17 C16 1_555 1_555
H11 C17 1_555 1_555
C18 C17 1_555 1_555
C19 N7 1_555 1_555
H12 C19 1_555 1_555
C20 H13 1_555 1_555
C21 C20 1_555 1_555
H14 C21 1_555 1_555
C22 C21 1_555 1_555
H15 C22 1_555 1_555
C23 C22 1_555 1_555
C24 N8 1_555 1_555
H16 C24 1_555 1_555
Fe2A N6 1_555 1_555
Fe2_2 N5B 1_555 1_555
Fe2A_2 N6B 1_555 1_555
Cu1B N7B 1_555 1_555
Cu2B N8B 1_555 1_555
Cl1B C4B 1_555 1_555
Cl2B C11B 1_555 1_555
Cl3B C18B 1_555 1_555
Cl4B C23B 1_555 1_555
N1B Fe1 1_555 1_555
N2B Fe1 1_555 1_555
N3B Fe1 1_555 1_555
N4B Fe2 1_555 1_555
N5B C13B 1_555 1_555
N5B_2 Fe2 1_555 1_555
N6B C14B 1_555 1_555
N6A Fe2 1_555 1_555
N6C Fe2 1_555 1_555
N7B C15B 1_555 1_555
N8B C20B 1_555 1_555
C1B N1B 1_555 1_555
H1B C1B 1_555 1_555
C2B C1B 1_555 1_555
H2B C2B 1_555 1_555
C3B C2B 1_555 1_555
H3B C3B 1_555 1_555
C4B C3B 1_555 1_555
C5B N1B 1_555 1_555
H4B C5B 1_555 1_555
C6B Cu1B 1_555 1_555
C7B Cu2B 1_555 1_555
C8B N4B 1_555 1_555
H5B C8B 1_555 1_555
C9B C8B 1_555 1_555
H6B C9B 1_555 1_555
C10B C9B 1_555 1_555
H7B C10B 1_555 1_555
C11B C10B 1_555 1_555
C12B N4B 1_555 1_555
H8B C12B 1_555 1_555
C13B Cu1B 1_555 1_555
C14B Cu2B 1_555 1_555
C15B H9B 1_555 1_555
C16B C15B 1_555 1_555
H10B C16B 1_555 1_555
C17B C16B 1_555 1_555
H11B C17B 1_555 1_555
C18B C17B 1_555 1_555
C19B N7B 1_555 1_555
H12B C19B 1_555 1_555
C20B H13B 1_555 1_555
C21B C20B 1_555 1_555
H14B C21B 1_555 1_555
C22B C21B 1_555 1_555
H15B C22B 1_555 1_555
C23B C22B 1_555 1_555
C24B N8B 1_555 1_555
H16B C24B 1_555 1_555
N2 C6 1_555 1_555
N3 C7 1_555 1_555
N5 C13 1_555 1_555
C4 C5 1_555 1_555
C11 C12 1_555 1_555
C18 C19 1_555 1_555
C23 C24 1_555 1_555
N2B C6B 1_555 1_555
N3B C7B 1_555 1_555
C4B C5B 1_555 1_555
C11B C12B 1_555 1_555
C18B C19B 1_555 1_555
C23B C24B 1_555 1_555

#END
