
#######################################################################
#
#                 Cambridge Crystallographic Data Centre
#                                CCDC 
#
#######################################################################
#
# If this CIF has been generated from an entry in the Cambridge 
# Structural Database, then it will include bibliographic, chemical, 
# crystal, experimental, refinement or atomic coordinate data resulting 
# from the CCDC's data processing and validation procedures.
#
#######################################################################

data_YUBRAP03
_symmetry_cell_setting           triclinic
_symmetry_space_group_name_H-M   'P -1'
_symmetry_Int_Tables_number      2
_space_group_name_Hall           '-P 1'
loop_
_symmetry_equiv_pos_site_id
_symmetry_equiv_pos_as_xyz
1 x,y,z
2 -x,-y,-z
_cell_length_a                   8.2580(3)
_cell_length_b                   8.3580(3)
_cell_length_c                   10.2050(4)
_cell_angle_alpha                89.645(1)
_cell_angle_beta                 87.833(1)
_cell_angle_gamma                88.945(2)
_cell_volume                     703.719
loop_
_atom_site_label
_atom_site_type_symbol
_atom_site_fract_x
_atom_site_fract_y
_atom_site_fract_z
Fe1 Fe 0.5000 0.5000 0.5000
Cu1 Cu 1.00099(5) 0.20621(6) 0.67618(5)
Cl1 Cl 0.34290(18) 0.29323(16) -0.02531(12)
Cl2 Cl 1.17658(18) -0.27452(15) 1.03174(13)
N1 N 0.4921(4) 0.3155(4) 0.3384(3)
N2 N 0.6849(4) 0.3614(4) 0.5914(3)
N3 N 0.3210(4) 0.3670(4) 0.6103(4)
N4 N 1.0122(4) -0.0300(4) 0.7316(3)
C1 C 0.5165(6) 0.1598(5) 0.3653(4)
H1 H 0.5550 0.1319 0.4470
C2 C 0.4875(6) 0.0393(5) 0.2788(5)
H2 H 0.5063 -0.0671 0.3018
C3 C 0.4306(6) 0.0781(5) 0.1583(4)
H3 H 0.4069 -0.0010 0.0986
C4 C 0.4097(5) 0.2357(5) 0.1281(4)
C5 C 0.4413(5) 0.3520(5) 0.2180(4)
H4 H 0.4272 0.4590 0.1948
C6 C 0.7967(5) 0.2961(5) 0.6290(4)
C7 C 0.2070(5) 0.3031(4) 0.6472(4)
C8 C 0.9557(5) -0.1446(5) 0.6562(4)
H5 H 0.9048 -0.1152 0.5797
C9 C 0.9699(7) -0.3053(5) 0.6873(5)
H6 H 0.9324 -0.3824 0.6312
C10 C 1.0402(6) -0.3496(5) 0.8023(5)
H7 H 1.0511 -0.4569 0.8258
C11 C 1.0941(5) -0.2311(5) 0.8818(4)
C12 C 1.0824(5) -0.0729(5) 0.8422(4)
H8 H 1.1248 0.0058 0.8942
Cu1A Cu -0.00099(5) 0.79379(6) 0.32382(5)
Cu1_2 Cu 0.00099(5) 0.20621(6) 0.67618(5)
Cu1A_2 Cu 0.99901(5) 0.79379(6) 0.32382(5)
Cl1A Cl 0.65710(18) 0.70677(16) 1.02531(12)
Cl2A Cl -0.17658(18) 1.27452(15) -0.03174(13)
N1A N 0.5079(4) 0.6845(4) 0.6616(3)
N2A N 0.3151(4) 0.6386(4) 0.4086(3)
N3A N 0.6790(4) 0.6330(4) 0.3897(4)
N4A N -0.0122(4) 1.0300(4) 0.2684(3)
C1A C 0.4835(6) 0.8402(5) 0.6347(4)
H1A H 0.4450 0.8681 0.5530
C2A C 0.5125(6) 0.9607(5) 0.7212(5)
H2A H 0.4937 1.0671 0.6982
C3A C 0.5694(6) 0.9219(5) 0.8417(4)
H3A H 0.5931 1.0010 0.9014
C4A C 0.5903(5) 0.7643(5) 0.8719(4)
C5A C 0.5587(5) 0.6480(5) 0.7820(4)
H4A H 0.5728 0.5410 0.8052
C6A C 0.2033(5) 0.7039(5) 0.3710(4)
C7A C 0.7930(5) 0.6969(4) 0.3528(4)
C7_2 C 1.2070(5) 0.3031(4) 0.6472(4)
C7A_2 C -0.2070(5) 0.6969(4) 0.3528(4)
C8A C 0.0443(5) 1.1446(5) 0.3438(4)
H5A H 0.0952 1.1152 0.4203
C9A C 0.0301(7) 1.3053(5) 0.3127(5)
H6A H 0.0676 1.3824 0.3688
C10A C -0.0402(6) 1.3496(5) 0.1977(5)
H7A H -0.0511 1.4569 0.1742
C11A C -0.0941(5) 1.2311(5) 0.1182(4)
C12A C -0.0824(5) 1.0729(5) 0.1578(4)
H8A H -0.1248 0.9942 0.1058
loop_
_geom_bond_atom_site_label_1
_geom_bond_atom_site_label_2
_geom_bond_site_symmetry_1
_geom_bond_site_symmetry_2
Fe1 N1 1_555 1_555
Cu1 N4 1_555 1_555
Cl1 C4 1_555 1_555
Cl2 C11 1_555 1_555
N1 C1 1_555 1_555
N2 Fe1 1_555 1_555
N3 Fe1 1_555 1_555
N4 C8 1_555 1_555
C1 H1 1_555 1_555
C2 C1 1_555 1_555
H2 C2 1_555 1_555
C3 C2 1_555 1_555
H3 C3 1_555 1_555
C4 C3 1_555 1_555
C5 N1 1_555 1_555
H4 C5 1_555 1_555
C6 Cu1 1_555 1_555
C7 N3 1_555 1_555
C8 H5 1_555 1_555
C9 C8 1_555 1_555
H6 C9 1_555 1_555
C10 C9 1_555 1_555
H7 C10 1_555 1_555
C11 C10 1_555 1_555
C12 N4 1_555 1_555
H8 C12 1_555 1_555
Cu1A N4A 1_555 1_555
Cu1_2 C7 1_555 1_555
Cu1A_2 C7A 1_555 1_555
Cl1A C4A 1_555 1_555
Cl2A C11A 1_555 1_555
N1A Fe1 1_555 1_555
N2A Fe1 1_555 1_555
N3A Fe1 1_555 1_555
N4A C8A 1_555 1_555
C1A N1A 1_555 1_555
H1A C1A 1_555 1_555
C2A C1A 1_555 1_555
H2A C2A 1_555 1_555
C3A C2A 1_555 1_555
H3A C3A 1_555 1_555
C4A C3A 1_555 1_555
C5A N1A 1_555 1_555
H4A C5A 1_555 1_555
C6A Cu1A 1_555 1_555
C7A N3A 1_555 1_555
C7_2 Cu1 1_555 1_555
C7A_2 Cu1A 1_555 1_555
C8A H5A 1_555 1_555
C9A C8A 1_555 1_555
H6A C9A 1_555 1_555
C10A C9A 1_555 1_555
H7A C10A 1_555 1_555
C11A C10A 1_555 1_555
C12A N4A 1_555 1_555
H8A C12A 1_555 1_555
N2 C6 1_555 1_555
C4 C5 1_555 1_555
C11 C12 1_555 1_555
N2A C6A 1_555 1_555
C4A C5A 1_555 1_555
C11A C12A 1_555 1_555

#END
