
#######################################################################
#
#                 Cambridge Crystallographic Data Centre
#                                CCDC 
#
#######################################################################
#
# If this CIF has been generated from an entry in the Cambridge 
# Structural Database, then it will include bibliographic, chemical, 
# crystal, experimental, refinement or atomic coordinate data resulting 
# from the CCDC's data processing and validation procedures.
#
#######################################################################

data_YUBRIX
_symmetry_cell_setting           triclinic
_symmetry_space_group_name_H-M   'P -1'
_symmetry_Int_Tables_number      2
_space_group_name_Hall           '-P 1'
loop_
_symmetry_equiv_pos_site_id
_symmetry_equiv_pos_as_xyz
1 x,y,z
2 -x,-y,-z
_cell_length_a                   8.3870(6)
_cell_length_b                   8.6050(7)
_cell_length_c                   10.4070(9)
_cell_angle_alpha                92.575(4)
_cell_angle_beta                 92.975(3)
_cell_angle_gamma                92.992(2)
_cell_volume                     748.185
loop_
_atom_site_label
_atom_site_type_symbol
_atom_site_fract_x
_atom_site_fract_y
_atom_site_fract_z
Fe1 Fe 0.5000 0.0000 0.5000
Cu1 Cu 0.02314(13) 0.28333(12) 0.67687(11)
I1 I 0.66023(8) 0.21087(7) -0.03906(6)
I2 I -0.16924(8) 0.77234(7) 1.03865(6)
N1 N 0.5068(9) 0.1834(8) 0.3499(7)
N2 N 0.3226(9) 0.1278(8) 0.5986(8)
N3 N 0.6917(9) 0.1308(8) 0.6125(7)
N4 N 0.0135(9) 0.5203(8) 0.7185(7)
C1 C 0.4702(13) 0.3309(11) 0.3770(9)
H1 H 0.4326 0.3537 0.4579
C2 C 0.4836(14) 0.4488(10) 0.2962(10)
H2 H 0.4541 0.5481 0.3205
C3 C 0.5425(13) 0.4183(10) 0.1757(9)
H3 H 0.5549 0.4971 0.1181
C4 C 0.5825(11) 0.2666(10) 0.1433(8)
C5 C 0.5621(11) 0.1535(10) 0.2337(8)
H4 H 0.5881 0.0523 0.2120
C6 C 0.2187(11) 0.1920(10) 0.6321(9)
C7 C 0.8101(11) 0.1886(10) 0.6469(9)
C8 C 0.0596(12) 0.6323(11) 0.6422(9)
H5 H 0.1107 0.6039 0.5681
C9 C 0.0362(15) 0.7876(11) 0.6664(10)
H6 H 0.0677 0.8608 0.6084
C10 C -0.0343(13) 0.8337(10) 0.7776(9)
H7 H -0.0512 0.9380 0.7967
C11 C -0.0791(10) 0.7192(9) 0.8597(8)
C12 C -0.0566(11) 0.5657(9) 0.8265(9)
H8 H -0.0914 0.4898 0.8811
Cu1A Cu 0.97686(13) -0.28333(12) 0.32313(11)
Cu1_2 Cu 1.02314(13) 0.28333(12) 0.67687(11)
Cu1A_2 Cu -0.02314(13) -0.28333(12) 0.32313(11)
I1A I 0.33977(8) -0.21087(7) 1.03906(6)
I2A I 1.16924(8) -0.77234(7) -0.03865(6)
N1A N 0.4932(9) -0.1834(8) 0.6501(7)
N2A N 0.6774(9) -0.1278(8) 0.4014(8)
N3A N 0.3083(9) -0.1308(8) 0.3875(7)
N4A N 0.9865(9) -0.5203(8) 0.2815(7)
C1A C 0.5298(13) -0.3309(11) 0.6230(9)
H1A H 0.5674 -0.3537 0.5421
C2A C 0.5164(14) -0.4488(10) 0.7038(10)
H2A H 0.5459 -0.5481 0.6795
C3A C 0.4575(13) -0.4183(10) 0.8243(9)
H3A H 0.4451 -0.4971 0.8819
C4A C 0.4175(11) -0.2666(10) 0.8567(8)
C5A C 0.4379(11) -0.1535(10) 0.7663(8)
H4A H 0.4119 -0.0523 0.7880
C6A C 0.7813(11) -0.1920(10) 0.3679(9)
C7A C 0.1899(11) -0.1886(10) 0.3531(9)
C7_2 C -0.1899(11) 0.1886(10) 0.6469(9)
C7A_2 C 1.1899(11) -0.1886(10) 0.3531(9)
C8A C 0.9404(12) -0.6323(11) 0.3578(9)
H5A H 0.8893 -0.6039 0.4319
C9A C 0.9638(15) -0.7876(11) 0.3336(10)
H6A H 0.9323 -0.8608 0.3916
C10A C 1.0343(13) -0.8337(10) 0.2224(9)
H7A H 1.0512 -0.9380 0.2033
C11A C 1.0791(10) -0.7192(9) 0.1403(8)
C12A C 1.0566(11) -0.5657(9) 0.1735(9)
H8A H 1.0914 -0.4898 0.1189
loop_
_geom_bond_atom_site_label_1
_geom_bond_atom_site_label_2
_geom_bond_site_symmetry_1
_geom_bond_site_symmetry_2
Fe1 N1 1_555 1_555
Cu1 N4 1_555 1_555
I1 C4 1_555 1_555
I2 C11 1_555 1_555
N1 C1 1_555 1_555
N2 Fe1 1_555 1_555
N3 Fe1 1_555 1_555
N4 C8 1_555 1_555
C1 H1 1_555 1_555
C2 C1 1_555 1_555
H2 C2 1_555 1_555
C3 C2 1_555 1_555
H3 C3 1_555 1_555
C4 C3 1_555 1_555
C5 N1 1_555 1_555
H4 C5 1_555 1_555
C6 Cu1 1_555 1_555
C7 N3 1_555 1_555
C8 H5 1_555 1_555
C9 C8 1_555 1_555
H6 C9 1_555 1_555
C10 C9 1_555 1_555
H7 C10 1_555 1_555
C11 C10 1_555 1_555
C12 N4 1_555 1_555
H8 C12 1_555 1_555
Cu1A N4A 1_555 1_555
Cu1_2 C7 1_555 1_555
Cu1A_2 C7A 1_555 1_555
I1A C4A 1_555 1_555
I2A C11A 1_555 1_555
N1A Fe1 1_555 1_555
N2A Fe1 1_555 1_555
N3A Fe1 1_555 1_555
N4A C8A 1_555 1_555
C1A N1A 1_555 1_555
H1A C1A 1_555 1_555
C2A C1A 1_555 1_555
H2A C2A 1_555 1_555
C3A C2A 1_555 1_555
H3A C3A 1_555 1_555
C4A C3A 1_555 1_555
C5A N1A 1_555 1_555
H4A C5A 1_555 1_555
C6A Cu1A 1_555 1_555
C7A N3A 1_555 1_555
C7_2 Cu1 1_555 1_555
C7A_2 Cu1A 1_555 1_555
C8A H5A 1_555 1_555
C9A C8A 1_555 1_555
H6A C9A 1_555 1_555
C10A C9A 1_555 1_555
H7A C10A 1_555 1_555
C11A C10A 1_555 1_555
C12A N4A 1_555 1_555
H8A C12A 1_555 1_555
N2 C6 1_555 1_555
C4 C5 1_555 1_555
C11 C12 1_555 1_555
N2A C6A 1_555 1_555
C4A C5A 1_555 1_555
C11A C12A 1_555 1_555

#END
