
#######################################################################
#
#                 Cambridge Crystallographic Data Centre
#                                CCDC 
#
#######################################################################
#
# If this CIF has been generated from an entry in the Cambridge 
# Structural Database, then it will include bibliographic, chemical, 
# crystal, experimental, refinement or atomic coordinate data resulting 
# from the CCDC's data processing and validation procedures.
#
#######################################################################

data_YUBRET
_symmetry_cell_setting           triclinic
_symmetry_space_group_name_H-M   'P -1'
_symmetry_Int_Tables_number      2
_space_group_name_Hall           '-P 1'
loop_
_symmetry_equiv_pos_site_id
_symmetry_equiv_pos_as_xyz
1 x,y,z
2 -x,-y,-z
_cell_length_a                   8.2650(5)
_cell_length_b                   8.4710(6)
_cell_length_c                   10.2680(8)
_cell_angle_alpha                90.866(3)
_cell_angle_beta                 92.670(3)
_cell_angle_gamma                90.244(4)
_cell_volume                     718.02
loop_
_atom_site_label
_atom_site_type_symbol
_atom_site_fract_x
_atom_site_fract_y
_atom_site_fract_z
Fe1 Fe 0.0000 0.0000 0.0000
Cu1 Cu -0.49174(18) 0.29069(18) 0.17730(16)
Br1 Br 0.15975(18) 0.20947(18) -0.53321(13)
Br2 Br -0.67146(17) 0.77541(17) 0.53594(14)
N1 N 0.0070(12) 0.1834(12) -0.1567(9)
N2 N -0.1840(13) 0.1334(13) 0.0945(11)
N3 N 0.1854(13) 0.1312(13) 0.1117(10)
N4 N -0.5013(11) 0.5262(11) 0.2263(10)
C1 C -0.0230(17) 0.3368(16) -0.1317(13)
H1 H -0.0654 0.3628 -0.0519
C2 C 0.0048(16) 0.4585(14) -0.2167(13)
H2 H -0.0121 0.5630 -0.1921
C3 C 0.0573(15) 0.4217(17) -0.3363(12)
H3 H 0.0726 0.5003 -0.3969
C4 C 0.0876(15) 0.2673(17) -0.3667(11)
C5 C 0.0571(15) 0.1495(14) -0.2738(12)
H4 H 0.0731 0.0442 -0.2966
C6 C -0.2927(14) 0.1987(15) 0.1288(12)
C7 C 0.2998(16) 0.1907(15) 0.1475(12)
C8 C -0.4527(15) 0.6412(16) 0.1495(13)
H5 H -0.4047 0.6137 0.0723
C9 C -0.471(2) 0.7993(18) 0.1799(14)
H6 H -0.4373 0.8759 0.1228
C10 C -0.5360(17) 0.8418(16) 0.2912(13)
H7 H -0.5476 0.9481 0.3126
C11 C -0.5870(14) 0.7258(15) 0.3756(11)
C12 C -0.5721(14) 0.5711(14) 0.3334(13)
H8 H -0.6151 0.4927 0.3842
Cu1A Cu 0.49174(18) -0.29069(18) -0.17730(16)
Cu1_2 Cu 0.50826(18) 0.29069(18) 0.17730(16)
Cu1A_2 Cu -0.50826(18) -0.29069(18) -0.17730(16)
Br1A Br -0.15975(18) -0.20947(18) 0.53321(13)
Br2A Br 0.67146(17) -0.77541(17) -0.53594(14)
N1A N -0.0070(12) -0.1834(12) 0.1567(9)
N2A N 0.1840(13) -0.1334(13) -0.0945(11)
N3A N -0.1854(13) -0.1312(13) -0.1117(10)
N4A N 0.5013(11) -0.5262(11) -0.2263(10)
C1A C 0.0230(17) -0.3368(16) 0.1317(13)
H1A H 0.0654 -0.3628 0.0519
C2A C -0.0048(16) -0.4585(14) 0.2167(13)
H2A H 0.0121 -0.5630 0.1921
C3A C -0.0573(15) -0.4217(17) 0.3363(12)
H3A H -0.0726 -0.5003 0.3969
C4A C -0.0876(15) -0.2673(17) 0.3667(11)
C5A C -0.0571(15) -0.1495(14) 0.2738(12)
H4A H -0.0731 -0.0442 0.2966
C6A C 0.2927(14) -0.1987(15) -0.1288(12)
C7A C -0.2998(16) -0.1907(15) -0.1475(12)
C7_2 C -0.7002(16) 0.1907(15) 0.1475(12)
C7A_2 C 0.7002(16) -0.1907(15) -0.1475(12)
C8A C 0.4527(15) -0.6412(16) -0.1495(13)
H5A H 0.4047 -0.6137 -0.0723
C9A C 0.471(2) -0.7993(18) -0.1799(14)
H6A H 0.4373 -0.8759 -0.1228
C10A C 0.5360(17) -0.8418(16) -0.2912(13)
H7A H 0.5476 -0.9481 -0.3126
C11A C 0.5870(14) -0.7258(15) -0.3756(11)
C12A C 0.5721(14) -0.5711(14) -0.3334(13)
H8A H 0.6151 -0.4927 -0.3842
loop_
_geom_bond_atom_site_label_1
_geom_bond_atom_site_label_2
_geom_bond_site_symmetry_1
_geom_bond_site_symmetry_2
Fe1 N1 1_555 1_555
Cu1 N4 1_555 1_555
Br1 C4 1_555 1_555
Br2 C11 1_555 1_555
N1 C1 1_555 1_555
N2 Fe1 1_555 1_555
N3 Fe1 1_555 1_555
N4 C8 1_555 1_555
C1 H1 1_555 1_555
C2 C1 1_555 1_555
H2 C2 1_555 1_555
C3 C2 1_555 1_555
H3 C3 1_555 1_555
C4 C3 1_555 1_555
C5 N1 1_555 1_555
H4 C5 1_555 1_555
C6 Cu1 1_555 1_555
C7 N3 1_555 1_555
C8 H5 1_555 1_555
C9 C8 1_555 1_555
H6 C9 1_555 1_555
C10 C9 1_555 1_555
H7 C10 1_555 1_555
C11 C10 1_555 1_555
C12 N4 1_555 1_555
H8 C12 1_555 1_555
Cu1A N4A 1_555 1_555
Cu1_2 C7 1_555 1_555
Cu1A_2 C7A 1_555 1_555
Br1A C4A 1_555 1_555
Br2A C11A 1_555 1_555
N1A Fe1 1_555 1_555
N2A Fe1 1_555 1_555
N3A Fe1 1_555 1_555
N4A C8A 1_555 1_555
C1A N1A 1_555 1_555
H1A C1A 1_555 1_555
C2A C1A 1_555 1_555
H2A C2A 1_555 1_555
C3A C2A 1_555 1_555
H3A C3A 1_555 1_555
C4A C3A 1_555 1_555
C5A N1A 1_555 1_555
H4A C5A 1_555 1_555
C6A Cu1A 1_555 1_555
C7A N3A 1_555 1_555
C7_2 Cu1 1_555 1_555
C7A_2 Cu1A 1_555 1_555
C8A H5A 1_555 1_555
C9A C8A 1_555 1_555
H6A C9A 1_555 1_555
C10A C9A 1_555 1_555
H7A C10A 1_555 1_555
C11A C10A 1_555 1_555
C12A N4A 1_555 1_555
H8A C12A 1_555 1_555
N2 C6 1_555 1_555
C4 C5 1_555 1_555
C11 C12 1_555 1_555
N2A C6A 1_555 1_555
C4A C5A 1_555 1_555
C11A C12A 1_555 1_555

#END
