
#######################################################################
#
#                 Cambridge Crystallographic Data Centre
#                                CCDC 
#
#######################################################################
#
# If this CIF has been generated from an entry in the Cambridge 
# Structural Database, then it will include bibliographic, chemical, 
# crystal, experimental, refinement or atomic coordinate data resulting 
# from the CCDC's data processing and validation procedures.
#
#######################################################################

data_YUBRUI
_symmetry_cell_setting           cubic
_symmetry_space_group_name_H-M   'P a 3'
_symmetry_Int_Tables_number      205
_space_group_name_Hall           '-P 2ac 2ab 3'
loop_
_symmetry_equiv_pos_site_id
_symmetry_equiv_pos_as_xyz
1 x,y,z
2 1/2-x,-y,1/2+z
3 1/2+x,1/2-y,-z
4 z,x,y
5 -x,1/2+y,1/2-z
6 1/2-z,-x,1/2+y
7 1/2+z,1/2-x,-y
8 -z,1/2+x,1/2-y
9 y,z,x
10 1/2+y,1/2-z,-x
11 -y,1/2+z,1/2-x
12 1/2-y,-z,1/2+x
13 -x,-y,-z
14 1/2+x,y,1/2-z
15 1/2-x,1/2+y,z
16 -z,-x,-y
17 x,1/2-y,1/2+z
18 1/2+z,x,1/2-y
19 1/2-z,1/2+x,y
20 z,1/2-x,1/2+y
21 -y,-z,-x
22 1/2-y,1/2+z,x
23 y,1/2-z,1/2+x
24 1/2+y,z,1/2-x
_cell_length_a                   19.460(3)
_cell_length_b                   19.460(3)
_cell_length_c                   19.460(3)
_cell_angle_alpha                90
_cell_angle_beta                 90
_cell_angle_gamma                90
_cell_volume                     7369.34
loop_
_atom_site_label
_atom_site_type_symbol
_atom_site_fract_x
_atom_site_fract_y
_atom_site_fract_z
Hg1 Hg 0.0000 0.5000 0.0000
N1 N 0.0309(4) 0.3845(4) 0.0382(4)
C1 C 0.0812(5) 0.3494(5) 0.0038(6)
H1 H 0.1012(5) 0.3711(5) -0.0432(6)
C2 C 0.1074(5) 0.2883(5) 0.0261(5)
H2 H 0.1471(5) 0.2623(5) -0.0028(5)
C3 C 0.0825(5) 0.2604(5) 0.0858(5)
C4 C 0.0311(5) 0.2960(5) 0.1215(5)
H3 H 0.0095(5) 0.2755(5) 0.1684(5)
C5 C 0.0094(5) 0.3561(5) 0.0961(5)
H4 H -0.0288(5) 0.3838(5) 0.1254(5)
C6 C 0.1131(5) 0.1959(5) 0.1145(5)
N2 N 0.1685(4) 0.1710(4) 0.0839(4)
C6H C 0.1959(5) 0.1145(5) 0.1131(5)
C3H C 0.2604(5) 0.0858(5) 0.0825(5)
C2H C 0.2883(5) 0.0261(5) 0.1074(5)
C1H C 0.3494(5) 0.0038(6) 0.0812(5)
N1H N 0.3845(4) 0.0382(4) 0.0309(4)
C5H C 0.3561(5) 0.0961(5) 0.0094(5)
C4H C 0.2960(5) 0.1215(5) 0.0311(5)
H3H H 0.2755(5) 0.1684(5) 0.0095(5)
H4H H 0.3838(5) 0.1254(5) -0.0288(5)
H1H H 0.3711(5) -0.0432(6) 0.1012(5)
H2H H 0.2623(5) -0.0028(5) 0.1471(5)
N2H N 0.1710(4) 0.0839(4) 0.1685(4)
C6C C 0.1145(5) 0.1131(5) 0.1959(5)
C3C C 0.0858(5) 0.0825(5) 0.2604(5)
C2C C 0.0261(5) 0.1074(5) 0.2883(5)
C1C C 0.0038(6) 0.0812(5) 0.3494(5)
N1C N 0.0382(4) 0.0309(4) 0.3845(4)
C5C C 0.0961(5) 0.0094(5) 0.3561(5)
C4C C 0.1215(5) 0.0311(5) 0.2960(5)
H3C H 0.1684(5) 0.0095(5) 0.2755(5)
H4C H 0.1254(5) -0.0288(5) 0.3838(5)
H1C H -0.0432(6) 0.1012(5) 0.3711(5)
H2C H -0.0028(5) 0.1471(5) 0.2623(5)
N2C N 0.0839(4) 0.1685(4) 0.1710(4)
N1G N -0.0382(4) 0.5309(4) 0.1155(4)
C1G C -0.0038(6) 0.5812(5) 0.1506(5)
H1G H 0.0432(6) 0.6012(5) 0.1289(5)
C2G C -0.0261(5) 0.6074(5) 0.2117(5)
H2G H 0.0028(5) 0.6471(5) 0.2377(5)
C3G C -0.0858(5) 0.5825(5) 0.2396(5)
C4G C -0.1215(5) 0.5311(5) 0.2040(5)
H3G H -0.1684(5) 0.5095(5) 0.2245(5)
C5G C -0.0961(5) 0.5094(5) 0.1439(5)
H4G H -0.1254(5) 0.4712(5) 0.1162(5)
C6G C -0.1145(5) 0.6131(5) 0.3041(5)
N2G N -0.0839(4) 0.6685(4) 0.3290(4)
C6D C -0.1131(5) 0.6959(5) 0.3855(5)
C3D C -0.0825(5) 0.7604(5) 0.4142(5)
C2D C -0.1074(5) 0.7883(5) 0.4739(5)
C1D C -0.0812(5) 0.8494(5) 0.4962(6)
N1D N -0.0309(4) 0.8845(4) 0.4618(4)
C5D C -0.0094(5) 0.8561(5) 0.4039(5)
C4D C -0.0311(5) 0.7960(5) 0.3785(5)
H3D H -0.0095(5) 0.7755(5) 0.3316(5)
H4D H 0.0288(5) 0.8838(5) 0.3746(5)
H1D H -0.1012(5) 0.8711(5) 0.5432(6)
H2D H -0.1471(5) 0.7623(5) 0.5028(5)
N2D N -0.1685(4) 0.6710(4) 0.4161(4)
C6J C -0.1959(5) 0.6145(5) 0.3869(5)
C3J C -0.2604(5) 0.5858(5) 0.4175(5)
C2J C -0.2883(5) 0.5261(5) 0.3926(5)
C1J C -0.3494(5) 0.5038(6) 0.4188(5)
N1J N -0.3845(4) 0.5382(4) 0.4691(4)
C5J C -0.3561(5) 0.5961(5) 0.4906(5)
C4J C -0.2960(5) 0.6215(5) 0.4689(5)
H3J H -0.2755(5) 0.6684(5) 0.4905(5)
H4J H -0.3838(5) 0.6254(5) 0.5288(5)
H1J H -0.3711(5) 0.4568(6) 0.3988(5)
H2J H -0.2623(5) 0.4972(5) 0.3529(5)
N2J N -0.1710(4) 0.5839(4) 0.3315(4)
N1I N -0.1155(4) 0.4618(4) -0.0309(4)
N1L N -0.0309(4) 0.6155(4) -0.0382(4)
N1S N 0.0382(4) 0.4691(4) -0.1155(4)
N1U N 0.1155(4) 0.5382(4) 0.0309(4)
Hg1B Hg 0.5000 0.0000 0.0000
Hg1C Hg 0.0000 0.0000 0.5000
Hg1C_2 Hg 0.0000 1.0000 0.5000
Hg1A Hg -0.5000 0.5000 0.5000
Cl1 Cl 0.3280(1) 0.3280(1) 0.3280(1)
O1 O 0.2862(4) 0.2862(4) 0.2862(4)
O2 O 0.3598(5) 0.2885(5) 0.3805(5)
O2C O 0.3805(5) 0.3598(5) 0.2885(5)
O2H O 0.2885(5) 0.3805(5) 0.3598(5)
C7 C 0.7974(8) 0.1150(8) 0.0934(8)
C8 C 0.8448(8) 0.1267(7) 0.1511(8)
Cl2 Cl 0.7196(2) 0.1602(2) 0.1164(2)
Cl3 Cl 0.7772(2) 0.0269(2) 0.0780(2)
Cl4 Cl 0.8199(2) 0.0863(2) 0.2280(2)
Cl5 Cl 0.9259(2) 0.0899(3) 0.1223(3)
loop_
_geom_bond_atom_site_label_1
_geom_bond_atom_site_label_2
_geom_bond_site_symmetry_1
_geom_bond_site_symmetry_2
Hg1 N1 1_555 1_555
N1 C1 1_555 1_555
C1 H1 1_555 1_555
C2 C1 1_555 1_555
H2 C2 1_555 1_555
C3 C2 1_555 1_555
C4 C3 1_555 1_555
H3 C4 1_555 1_555
C5 N1 1_555 1_555
H4 C5 1_555 1_555
C6 C3 1_555 1_555
N2 C6 1_555 1_555
Cl1 O1 1_555 1_555
O2 Cl1 1_555 1_555
C7 C8 1_555 1_555
C8 Cl4 1_555 1_555
Cl2 C7 1_555 1_555
Cl3 C7 1_555 1_555
Cl5 C8 1_555 1_555
C6H N2 1_555 1_555
C3H C6H 1_555 1_555
C2H C3H 1_555 1_555
C1H C2H 1_555 1_555
N1H C1H 1_555 1_555
C5H N1H 1_555 1_555
C4H C3H 1_555 1_555
H3H C4H 1_555 1_555
H4H C5H 1_555 1_555
H1H C1H 1_555 1_555
H2H C2H 1_555 1_555
N2H C6H 1_555 1_555
C6C N2H 1_555 1_555
C3C C6C 1_555 1_555
C2C C3C 1_555 1_555
C1C C2C 1_555 1_555
N1C C1C 1_555 1_555
C5C N1C 1_555 1_555
C4C C3C 1_555 1_555
H3C C4C 1_555 1_555
H4C C5C 1_555 1_555
H1C C1C 1_555 1_555
H2C C2C 1_555 1_555
N2C C6 1_555 1_555
N1G Hg1 1_555 1_555
C1G N1G 1_555 1_555
H1G C1G 1_555 1_555
C2G C1G 1_555 1_555
H2G C2G 1_555 1_555
C3G C2G 1_555 1_555
C4G C3G 1_555 1_555
H3G C4G 1_555 1_555
C5G N1G 1_555 1_555
H4G C5G 1_555 1_555
C6G C3G 1_555 1_555
N2G C6G 1_555 1_555
C6D N2G 1_555 1_555
C3D C6D 1_555 1_555
C2D C3D 1_555 1_555
C1D C2D 1_555 1_555
N1D C1D 1_555 1_555
C5D N1D 1_555 1_555
C4D C3D 1_555 1_555
H3D C4D 1_555 1_555
H4D C5D 1_555 1_555
H1D C1D 1_555 1_555
H2D C2D 1_555 1_555
N2D C6D 1_555 1_555
C6J N2D 1_555 1_555
C3J C6J 1_555 1_555
C2J C3J 1_555 1_555
C1J C2J 1_555 1_555
N1J C1J 1_555 1_555
C5J N1J 1_555 1_555
C4J C3J 1_555 1_555
H3J C4J 1_555 1_555
H4J C5J 1_555 1_555
H1J C1J 1_555 1_555
H2J C2J 1_555 1_555
N2J C6G 1_555 1_555
N1I Hg1 1_555 1_555
N1L Hg1 1_555 1_555
N1S Hg1 1_555 1_555
N1U Hg1 1_555 1_555
Hg1B N1H 1_555 1_555
Hg1C N1C 1_555 1_555
Hg1C_2 N1D 1_555 1_555
Hg1A N1J 1_555 1_555
O2C Cl1 1_555 1_555
O2H Cl1 1_555 1_555
C4 C5 1_555 1_555
C5H C4H 1_555 1_555
C6C N2C 1_555 1_555
C5C C4C 1_555 1_555
C4G C5G 1_555 1_555
C5D C4D 1_555 1_555
C6J N2J 1_555 1_555
C5J C4J 1_555 1_555

#END
