
#######################################################################
#
#                 Cambridge Crystallographic Data Centre
#                                CCDC 
#
#######################################################################
#
# If this CIF has been generated from an entry in the Cambridge 
# Structural Database, then it will include bibliographic, chemical, 
# crystal, experimental, refinement or atomic coordinate data resulting 
# from the CCDC's data processing and validation procedures.
#
#######################################################################

data_YUBRAP01
_symmetry_cell_setting           monoclinic
_symmetry_space_group_name_H-M   'P 21/c'
_symmetry_Int_Tables_number      14
_space_group_name_Hall           '-P 2ybc'
loop_
_symmetry_equiv_pos_site_id
_symmetry_equiv_pos_as_xyz
1 x,y,z
2 -x,1/2+y,1/2-z
3 -x,-y,-z
4 x,1/2-y,1/2+z
_cell_length_a                   17.7190(4)
_cell_length_b                   8.9740(2)
_cell_length_c                   23.9950(5)
_cell_angle_alpha                90
_cell_angle_beta                 125.940(1)
_cell_angle_gamma                90
_cell_volume                     3089.11
loop_
_atom_site_label
_atom_site_type_symbol
_atom_site_fract_x
_atom_site_fract_y
_atom_site_fract_z
Fe1 Fe 0.5000 0.5000 0.5000
Fe2 Fe 0.0000 0.5000 0.0000
Cu1 Cu 0.20472(6) 0.38906(11) 0.26028(4)
Cu2 Cu 0.29878(7) 0.75200(12) 0.56138(6)
Cl1 Cl 0.6934(5) -0.0140(5) 0.6652(3)
Cl2 Cl -0.1236(3) -0.0353(4) -0.1591(2)
Cl3 Cl -0.1642(2) 0.2027(6) 0.1419(2)
Cl4 Cl 0.6543(3) 0.7663(8) 0.8162(2)
N1 N 0.5031(5) 0.2772(7) 0.5407(3)
N2 N 0.3841(4) 0.4371(8) 0.4022(3)
N3 N 0.4104(5) 0.5784(8) 0.5239(3)
N4 N 0.0289(5) 0.2771(8) -0.0227(3)
N5 N 0.0921(4) 0.4549(7) 0.1073(3)
N6 N 0.1153(4) 0.9093(8) 0.5052(3)
N7 N 0.1033(6) 0.2923(10) 0.2694(4)
N8 N 0.3868(5) 0.7874(10) 0.6689(4)
C1 C 0.4241(8) 0.2073(13) 0.5174(5)
H1 H 0.3684 0.2560 0.4856
C2 C 0.4202(12) 0.0661(19) 0.5379(7)
H2 H 0.3638 0.0220 0.5232
C3 C 0.5056(13) -0.0081(15) 0.5822(8)
H3 H 0.5068 -0.1071 0.5942
C4 C 0.5854(10) 0.0654(12) 0.6069(6)
C5 C 0.5832(8) 0.2075(10) 0.5843(5)
H4 H 0.6389 0.2554 0.6000
C6 C 0.3173(5) 0.4148(9) 0.3478(4)
C7 C 0.3655(5) 0.6390(10) 0.5382(4)
C8 C 0.1134(7) 0.2182(12) 0.0130(5)
H5 H 0.1630 0.2727 0.0489
C9 C 0.1295(9) 0.0808(15) -0.0012(6)
H6 H 0.1898 0.0426 0.0254
C10 C 0.0578(12) -0.0045(13) -0.0549(6)
H7 H 0.0683 -0.0981 -0.0658
C11 C -0.0288(9) 0.0581(11) -0.0904(5)
C12 C -0.0414(7) 0.1965(10) -0.0739(4)
H8 H -0.1012 0.2365 -0.0993
C13 C 0.1381(5) 0.4309(9) 0.1649(4)
C14 C 0.1850(6) 0.8529(10) 0.5251(4)
C15 C 0.1236(9) 0.2462(13) 0.3293(5)
H9 H 0.1853 0.2513 0.3677
C16 C 0.0575(12) 0.1906(15) 0.3376(8)
H10 H 0.0730 0.1626 0.3804
C17 C -0.0334(12) 0.1793(15) 0.2779(9)
H11 H -0.0804 0.1422 0.2803
C18 C -0.0528(8) 0.2212(13) 0.2179(6)
C19 C 0.0149(7) 0.2789(11) 0.2138(5)
H12 H -0.0007 0.3099 0.1713
C20 C 0.3541(9) 0.8490(17) 0.7008(6)
H13 H 0.2905 0.8690 0.6752
C21 C 0.4080(10) 0.8852(18) 0.7692(7)
H14 H 0.3819 0.9282 0.7895
C22 C 0.4999(12) 0.8567(18) 0.8064(6)
H15 H 0.5376 0.8745 0.8535
C23 C 0.5383(8) 0.8011(17) 0.7744(6)
C24 C 0.4777(7) 0.7627(12) 0.7060(5)
H16 H 0.5019 0.7170 0.6849
Fe2A Fe 0.0000 1.0000 0.5000
Fe2_2 Fe 1.0000 0.5000 1.0000
Fe2A_2 Fe 1.0000 0.0000 0.5000
Cu1B Cu 0.79528(6) 0.61094(11) 0.73972(4)
Cu2B Cu 0.70122(7) 0.24800(12) 0.43862(6)
Cl1B Cl 0.3066(5) 1.0140(5) 0.3348(3)
Cl2B Cl 0.1236(3) 1.0353(4) 0.1591(2)
Cl3B Cl 1.1642(2) 0.7973(6) 0.8581(2)
Cl4B Cl 0.3457(3) 0.2337(8) 0.1838(2)
N1B N 0.4969(5) 0.7228(7) 0.4593(3)
N2B N 0.6159(4) 0.5629(8) 0.5978(3)
N3B N 0.5896(5) 0.4216(8) 0.4761(3)
N4B N -0.0289(5) 0.7229(8) 0.0227(3)
N5B N 0.9079(4) 0.5451(7) 0.8927(3)
N5B_2 N -0.0921(4) 0.5451(7) -0.1073(3)
N6B N 0.8847(4) 0.0907(8) 0.4948(3)
N6A N -0.1153(4) 0.4093(8) -0.0052(3)
N6C N 0.1153(4) 0.5907(8) 0.0052(3)
N7B N 0.8967(6) 0.7077(10) 0.7306(4)
N8B N 0.6132(5) 0.2126(10) 0.3311(4)
C1B C 0.5759(8) 0.7927(13) 0.4826(5)
H1B H 0.6316 0.7440 0.5144
C2B C 0.5798(12) 0.9339(19) 0.4621(7)
H2B H 0.6362 0.9780 0.4768
C3B C 0.4944(13) 1.0081(15) 0.4178(8)
H3B H 0.4932 1.1071 0.4058
C4B C 0.4146(10) 0.9346(12) 0.3931(6)
C5B C 0.4168(8) 0.7925(10) 0.4157(5)
H4B H 0.3611 0.7446 0.4000
C6B C 0.6827(5) 0.5852(9) 0.6522(4)
C7B C 0.6345(5) 0.3610(10) 0.4618(4)
C8B C -0.1134(7) 0.7818(12) -0.0130(5)
H5B H -0.1630 0.7273 -0.0489
C9B C -0.1295(9) 0.9192(15) 0.0012(6)
H6B H -0.1898 0.9574 -0.0254
C10B C -0.0578(12) 1.0045(13) 0.0549(6)
H7B H -0.0683 1.0981 0.0658
C11B C 0.0288(9) 0.9419(11) 0.0904(5)
C12B C 0.0414(7) 0.8035(10) 0.0739(4)
H8B H 0.1012 0.7635 0.0993
C13B C 0.8619(5) 0.5691(9) 0.8351(4)
C14B C 0.8150(6) 0.1471(10) 0.4749(4)
C15B C 0.8764(9) 0.7538(13) 0.6707(5)
H9B H 0.8147 0.7487 0.6323
C16B C 0.9425(12) 0.8094(15) 0.6624(8)
H10B H 0.9270 0.8374 0.6196
C17B C 1.0334(12) 0.8207(15) 0.7221(9)
H11B H 1.0804 0.8578 0.7197
C18B C 1.0528(8) 0.7788(13) 0.7821(6)
C19B C 0.9851(7) 0.7211(11) 0.7862(5)
H12B H 1.0007 0.6901 0.8287
C20B C 0.6459(9) 0.1510(17) 0.2992(6)
H13B H 0.7095 0.1310 0.3248
C21B C 0.5920(10) 0.1148(18) 0.2308(7)
H14B H 0.6181 0.0718 0.2105
C22B C 0.5001(12) 0.1433(18) 0.1936(6)
H15B H 0.4624 0.1255 0.1465
C23B C 0.4617(8) 0.1989(17) 0.2256(6)
C24B C 0.5223(7) 0.2373(12) 0.2940(5)
H16B H 0.4981 0.2830 0.3151
loop_
_geom_bond_atom_site_label_1
_geom_bond_atom_site_label_2
_geom_bond_site_symmetry_1
_geom_bond_site_symmetry_2
Fe1 N1 1_555 1_555
Fe2 N4 1_555 1_555
Cu1 N7 1_555 1_555
Cu2 N8 1_555 1_555
Cl1 C4 1_555 1_555
Cl2 C11 1_555 1_555
Cl3 C18 1_555 1_555
Cl4 C23 1_555 1_555
N1 C1 1_555 1_555
N2 Fe1 1_555 1_555
N3 Fe1 1_555 1_555
N4 C8 1_555 1_555
N5 Fe2 1_555 1_555
N6 C14 1_555 1_555
N7 C15 1_555 1_555
N8 C20 1_555 1_555
C1 H1 1_555 1_555
C2 C1 1_555 1_555
H2 C2 1_555 1_555
C3 C2 1_555 1_555
H3 C3 1_555 1_555
C4 C3 1_555 1_555
C5 N1 1_555 1_555
H4 C5 1_555 1_555
C6 Cu1 1_555 1_555
C7 Cu2 1_555 1_555
C8 H5 1_555 1_555
C9 C8 1_555 1_555
H6 C9 1_555 1_555
C10 C9 1_555 1_555
H7 C10 1_555 1_555
C11 C10 1_555 1_555
C12 N4 1_555 1_555
H8 C12 1_555 1_555
C13 Cu1 1_555 1_555
C14 Cu2 1_555 1_555
C15 H9 1_555 1_555
C16 C15 1_555 1_555
H10 C16 1_555 1_555
C17 C16 1_555 1_555
H11 C17 1_555 1_555
C18 C17 1_555 1_555
C19 N7 1_555 1_555
H12 C19 1_555 1_555
C20 H13 1_555 1_555
C21 C20 1_555 1_555
H14 C21 1_555 1_555
C22 C21 1_555 1_555
H15 C22 1_555 1_555
C23 C22 1_555 1_555
C24 N8 1_555 1_555
H16 C24 1_555 1_555
Fe2A N6 1_555 1_555
Fe2_2 N5B 1_555 1_555
Fe2A_2 N6B 1_555 1_555
Cu1B N7B 1_555 1_555
Cu2B N8B 1_555 1_555
Cl1B C4B 1_555 1_555
Cl2B C11B 1_555 1_555
Cl3B C18B 1_555 1_555
Cl4B C23B 1_555 1_555
N1B Fe1 1_555 1_555
N2B Fe1 1_555 1_555
N3B Fe1 1_555 1_555
N4B Fe2 1_555 1_555
N5B C13B 1_555 1_555
N5B_2 Fe2 1_555 1_555
N6B C14B 1_555 1_555
N6A Fe2 1_555 1_555
N6C Fe2 1_555 1_555
N7B C15B 1_555 1_555
N8B C20B 1_555 1_555
C1B N1B 1_555 1_555
H1B C1B 1_555 1_555
C2B C1B 1_555 1_555
H2B C2B 1_555 1_555
C3B C2B 1_555 1_555
H3B C3B 1_555 1_555
C4B C3B 1_555 1_555
C5B N1B 1_555 1_555
H4B C5B 1_555 1_555
C6B Cu1B 1_555 1_555
C7B Cu2B 1_555 1_555
C8B N4B 1_555 1_555
H5B C8B 1_555 1_555
C9B C8B 1_555 1_555
H6B C9B 1_555 1_555
C10B C9B 1_555 1_555
H7B C10B 1_555 1_555
C11B C10B 1_555 1_555
C12B N4B 1_555 1_555
H8B C12B 1_555 1_555
C13B Cu1B 1_555 1_555
C14B Cu2B 1_555 1_555
C15B H9B 1_555 1_555
C16B C15B 1_555 1_555
H10B C16B 1_555 1_555
C17B C16B 1_555 1_555
H11B C17B 1_555 1_555
C18B C17B 1_555 1_555
C19B N7B 1_555 1_555
H12B C19B 1_555 1_555
C20B H13B 1_555 1_555
C21B C20B 1_555 1_555
H14B C21B 1_555 1_555
C22B C21B 1_555 1_555
H15B C22B 1_555 1_555
C23B C22B 1_555 1_555
C24B N8B 1_555 1_555
H16B C24B 1_555 1_555
N2 C6 1_555 1_555
N3 C7 1_555 1_555
N5 C13 1_555 1_555
C4 C5 1_555 1_555
C11 C12 1_555 1_555
C18 C19 1_555 1_555
C23 C24 1_555 1_555
N2B C6B 1_555 1_555
N3B C7B 1_555 1_555
C4B C5B 1_555 1_555
C11B C12B 1_555 1_555
C18B C19B 1_555 1_555
C23B C24B 1_555 1_555

#END
