
#######################################################################
#
#                 Cambridge Crystallographic Data Centre
#                                CCDC 
#
#######################################################################
#
# If this CIF has been generated from an entry in the Cambridge 
# Structural Database, then it will include bibliographic, chemical, 
# crystal, experimental, refinement or atomic coordinate data resulting 
# from the CCDC's data processing and validation procedures.
#
#######################################################################

data_YUBSUK
_symmetry_cell_setting           triclinic
_symmetry_space_group_name_H-M   'P -1'
_symmetry_Int_Tables_number      2
_space_group_name_Hall           '-P 1'
loop_
_symmetry_equiv_pos_site_id
_symmetry_equiv_pos_as_xyz
1 x,y,z
2 -x,-y,-z
_cell_length_a                   13.465(2)
_cell_length_b                   15.172(2)
_cell_length_c                   18.297(2)
_cell_angle_alpha                103.965(2)
_cell_angle_beta                 103.251(2)
_cell_angle_gamma                104.149(2)
_cell_volume                     3348.35
loop_
_atom_site_label
_atom_site_type_symbol
_atom_site_fract_x
_atom_site_fract_y
_atom_site_fract_z
Ag1 Ag 0.54275(5) 0.79473(4) 0.34287(4)
Ag2 Ag 0.18015(5) 0.90998(4) 0.16701(3)
P1 P 0.42611(16) 0.86676(13) 0.28358(12)
P2 P 0.25572(16) 0.95553(14) 0.30781(11)
O1 O 0.3274(4) 0.7966(3) 0.2066(3)
O2 O 0.3508(5) 0.6735(4) 0.0885(3)
O3 O 0.4723(4) 0.9511(4) 0.2491(3)
O4 O 0.6144(10) 1.1190(6) 0.3089(7)
O5 O 0.1857(5) 0.9275(5) 0.3636(4)
O6 O 0.1643(6) 0.7696(6) 0.4062(5)
O7 O 0.3036(5) 1.0688(4) 0.3551(3)
N1 N 0.5148(6) 0.6820(5) 0.4077(5)
N2 N 0.7191(5) 0.8773(5) 0.4145(4)
N3 N 0.5822(7) 0.6803(6) 0.2468(5)
N4 N 0.3636(5) 0.9221(4) 0.3411(3)
N5 N 0.2912(6) 0.9373(5) 0.0866(4)
N6 N 0.0784(5) 0.7525(5) 0.0903(4)
N7 N 0.0695(6) 0.9982(5) 0.1187(5)
C1 C 0.2906(6) 0.6987(5) 0.1993(4)
C2 C 0.2437(7) 0.6694(6) 0.2515(5)
H1 H 0.2389 0.7147 0.2955
C3 C 0.2022(8) 0.5701(6) 0.2389(6)
H2 H 0.1681 0.5477 0.2740
C4 C 0.2116(7) 0.5061(6) 0.1754(5)
H3 H 0.1835 0.4394 0.1669
C5 C 0.2609(7) 0.5367(6) 0.1239(5)
H4 H 0.2673 0.4915 0.0807
C6 C 0.3015(6) 0.6343(5) 0.1354(4)
C7 C 0.3576(9) 0.6084(6) 0.0198(5)
H5 H 0.3969 0.5664 0.0361
H6 H 0.3957 0.6449 -0.0087
H7 H 0.2850 0.5697 -0.0150
C8 C 0.5664(8) 0.9602(6) 0.2301(6)
C9 C 0.5859(9) 0.8870(9) 0.1818(6)
H8 H 0.5324 0.8258 0.1610
C10 C 0.6804(14) 0.8983(13) 0.1621(9)
H9 H 0.6926 0.8460 0.1289
C11 C 0.7573(19) 0.9891(18) 0.1925(16)
H10 H 0.8231 0.9994 0.1802
C12 C 0.7374(15) 1.0645(15) 0.2410(14)
H11 H 0.7901 1.1261 0.2611
C13 C 0.6423(11) 1.0517(9) 0.2605(9)
C14 C 0.700(3) 1.2108(14) 0.350(2)
H12 H 0.7502 1.2054 0.3956
H13 H 0.6691 1.2608 0.3677
H14 H 0.7396 1.2277 0.3135
C15 C 0.5614(9) 0.7017(6) 0.4836(6)
H15 H 0.5999 0.7667 0.5138
C16 C 0.5581(10) 0.6341(7) 0.5222(6)
H16 H 0.5943 0.6529 0.5773
C17 C 0.5015(8) 0.5380(6) 0.4802(6)
C18 C 0.4530(10) 0.5180(7) 0.4003(7)
H17 H 0.4128 0.4540 0.3681
C19 C 0.4635(10) 0.5914(7) 0.3674(7)
H18 H 0.4314 0.5752 0.3120
C20 C 0.7893(8) 0.8336(8) 0.4334(7)
H19 H 0.7628 0.7663 0.4225
C21 C 0.8976(8) 0.8776(8) 0.4677(8)
H20 H 0.9428 0.8412 0.4816
C22 C 0.9414(6) 0.9746(6) 0.4820(5)
C23 C 0.8669(9) 1.0196(8) 0.4642(9)
H21 H 0.8910 1.0871 0.4752
C24 C 0.7602(8) 0.9718(7) 0.4314(8)
H22 H 0.7126 1.0071 0.4200
C25 C 0.0841(8) 0.8569(8) 0.3331(6)
C26 C -0.0023(8) 0.8711(8) 0.2883(6)
H23 H 0.0048 0.9290 0.2756
C27 C -0.1034(9) 0.7979(12) 0.2606(8)
H24 H -0.1651 0.8041 0.2273
C28 C -0.1087(10) 0.7169(10) 0.2841(8)
H25 H -0.1769 0.6690 0.2674
C29 C -0.0249(10) 0.7008(10) 0.3285(8)
H26 H -0.0333 0.6421 0.3399
C30 C 0.0727(8) 0.7709(8) 0.3569(6)
C31 C 0.1556(13) 0.6872(12) 0.4317(10)
H27 H 0.1182 0.6911 0.4719
H28 H 0.2277 0.6845 0.4544
H29 H 0.1149 0.6295 0.3865
C32 C 0.2926(11) 1.1342(10) 0.3183(10)
C33 C 0.3701(10) 1.1712(10) 0.2854(10)
H30 H 0.4299 1.1482 0.2867
C34 C 0.3601(11) 1.2417(10) 0.2505(9)
H31 H 0.4131 1.2670 0.2280
C35 C 0.2727(12) 1.2753(9) 0.2486(9)
H32 H 0.2658 1.3236 0.2247
C36 C 0.1951(10) 1.2384(10) 0.2815(9)
H33 H 0.1354 1.2614 0.2802
C37 C 0.2051(10) 1.1678(10) 0.3164(9)
O8 O 0.1294(12) 1.1231(12) 0.3456(10)
C38 C 0.029(2) 1.144(3) 0.3382(15)
H34 H -0.0141 1.1059 0.3634
H35 H -0.0108 1.1266 0.2821
H36 H 0.0435 1.2119 0.3642
C45 C 0.3375(8) 0.8756(6) 0.0576(5)
H41 H 0.3139 0.8127 0.0608
C46 C 0.4185(7) 0.8958(6) 0.0227(5)
H42 H 0.4479 0.8475 0.0031
C47 C 0.4565(7) 0.9876(6) 0.0167(5)
C48 C 0.4074(9) 1.0516(7) 0.0481(8)
H43 H 0.4296 1.1155 0.0467
C49 C 0.3278(9) 1.0252(7) 0.0811(7)
H44 H 0.2967 1.0719 0.1012
C50 C 0.0337(7) 0.6905(6) 0.1245(5)
H45 H 0.0240 0.7158 0.1742
C51 C 0.0012(7) 0.5922(6) 0.0912(5)
H46 H -0.0307 0.5520 0.1177
C52 C 0.0152(6) 0.5518(5) 0.0189(5)
C53 C 0.0556(7) 0.6169(6) -0.0192(5)
H47 H 0.0615 0.5936 -0.0706
C54 C 0.0862(7) 0.7136(6) 0.0182(5)
H48 H 0.1146 0.7557 -0.0083
C55 C 0.5935(7) 0.6229(8) 0.2010(6)
C56 C 0.6087(10) 0.5440(9) 0.1420(7)
H49 H 0.6693 0.5257 0.1676
H50 H 0.6236 0.5660 0.0983
H51 H 0.5431 0.4885 0.1215
C57 C 0.0242(7) 1.0486(7) 0.1066(5)
C58 C -0.0346(9) 1.1157(9) 0.0876(7)
H52 H -0.0186 1.1337 0.0426
H53 H -0.0117 1.1732 0.1336
H54 H -0.1121 1.0842 0.0741
C59 C 0.4190(6) 0.9131(5) 0.4759(5)
H55 H 0.3635 0.8534 0.4589
C60 C 0.4315(6) 0.9639(5) 0.4240(4)
C61 C 0.5130(6) 1.0510(5) 0.4471(4)
H56 H 0.5217 1.0853 0.4107
Ag1A Ag 0.45725(5) 1.20527(4) 0.65713(4)
Ag1A_2 Ag 0.45725(5) 0.20527(4) 0.65713(4)
Ag1A_3 Ag 1.45725(5) 1.20527(4) 0.65713(4)
Ag2A Ag 0.81985(5) 1.09002(4) 0.83299(3)
Ag2A_2 Ag 0.81985(5) 1.09002(4) -0.16701(3)
Ag2A_3 Ag -0.18015(5) 0.09002(4) -0.16701(3)
P1A P 0.57389(16) 1.13324(13) 0.71642(12)
P2A P 0.74428(16) 1.04447(14) 0.69219(11)
O1A O 0.6726(4) 1.2034(3) 0.7934(3)
O2A O 0.6492(5) 1.3265(4) 0.9115(3)
O3A O 0.5277(4) 1.0489(4) 0.7509(3)
O4A O 0.3856(10) 0.8810(6) 0.6911(7)
O5A O 0.8143(5) 1.0725(5) 0.6364(4)
O6A O 0.8357(6) 1.2304(6) 0.5938(5)
O7A O 0.6964(5) 0.9312(4) 0.6449(3)
N1A N 0.4852(6) 0.3180(5) 0.5923(5)
N1A_2 N 0.4852(6) 1.3180(5) 0.5923(5)
N2A N 1.2809(5) 1.1227(5) 0.5855(4)
N2A_2 N 0.2809(5) 1.1227(5) 0.5855(4)
N3A N 0.4178(7) 1.3197(6) 0.7532(5)
N4A N 0.6364(5) 1.0779(4) 0.6589(3)
N5A N 0.7088(6) 1.0627(5) -0.0866(4)
N5A_2 N 0.7088(6) 1.0627(5) 0.9134(4)
N6A N -0.0784(5) 0.2475(5) -0.0903(4)
N6A_2 N 0.9216(5) 1.2475(5) 0.9097(4)
N7A N 0.9305(6) 1.0018(5) 0.8813(5)
C1A C 0.7094(6) 1.3013(5) 0.8007(4)
C2A C 0.7563(7) 1.3306(6) 0.7485(5)
H1A H 0.7611 1.2853 0.7045
C3A C 0.7978(8) 1.4299(6) 0.7611(6)
H2A H 0.8319 1.4523 0.7260
C4A C 0.7884(7) 1.4939(6) 0.8246(5)
H3A H 0.8165 1.5606 0.8331
C5A C 0.7391(7) 1.4633(6) 0.8761(5)
H4A H 0.7327 1.5085 0.9193
C6A C 0.6985(6) 1.3657(5) 0.8646(4)
C7A C 0.6424(9) 1.3916(6) 0.9802(5)
H5A H 0.6031 1.4336 0.9639
H6A H 0.6043 1.3551 1.0087
H7A H 0.7150 1.4303 1.0150
C8A C 0.4336(8) 1.0398(6) 0.7699(6)
C9A C 0.4141(9) 1.1130(9) 0.8182(6)
H8A H 0.4676 1.1742 0.8390
C10A C 0.3196(14) 1.1017(13) 0.8379(9)
H9A H 0.3074 1.1540 0.8711
C11A C 0.2427(19) 1.0109(18) 0.8075(16)
H10A H 0.1769 1.0006 0.8198
C12A C 0.2626(15) 0.9355(15) 0.7590(14)
H11A H 0.2099 0.8739 0.7389
C13A C 0.3577(11) 0.9483(9) 0.7395(9)
C14A C 0.300(3) 0.7892(14) 0.650(2)
H12A H 0.2498 0.7946 0.6044
H13A H 0.3309 0.7392 0.6323
H14A H 0.2604 0.7723 0.6865
C15A C 0.4386(9) 0.2983(6) 0.5164(6)
H15A H 0.4001 0.2333 0.4862
C16A C 0.4419(10) 0.3659(7) 0.4778(6)
H16A H 0.4057 0.3471 0.4227
C17A C 0.4985(8) 0.4620(6) 0.5198(6)
C18A C 0.5470(10) 0.4820(7) 0.5997(7)
H17A H 0.5872 0.5460 0.6319
C19A C 0.5365(10) 0.4086(7) 0.6326(7)
H18A H 0.5686 0.4248 0.6880
C20A C 1.2107(8) 1.1664(8) 0.5666(7)
H19A H 1.2372 1.2337 0.5775
C21A C 1.1024(8) 1.1224(8) 0.5323(8)
H20A H 1.0572 1.1588 0.5184
C22A C 1.0586(6) 1.0254(6) 0.5180(5)
C23A C 1.1331(9) 0.9804(8) 0.5358(9)
H21A H 1.1090 0.9129 0.5248
C24A C 1.2398(8) 1.0282(7) 0.5686(8)
H22A H 1.2874 0.9929 0.5800
C25A C 0.9159(8) 1.1431(8) 0.6669(6)
C26A C 1.0023(8) 1.1289(8) 0.7117(6)
H23A H 0.9952 1.0710 0.7244
C27A C 1.1034(9) 1.2021(12) 0.7394(8)
H24A H 1.1651 1.1959 0.7727
C28A C 1.1087(10) 1.2831(10) 0.7159(8)
H25A H 1.1769 1.3310 0.7326
C29A C 1.0249(10) 1.2992(10) 0.6715(8)
H26A H 1.0333 1.3579 0.6601
C30A C 0.9273(8) 1.2291(8) 0.6431(6)
C31A C 0.8444(13) 1.3128(12) 0.5683(10)
H27A H 0.8818 1.3089 0.5281
H28A H 0.7723 1.3155 0.5456
H29A H 0.8851 1.3705 0.6135
C32A C 0.7074(11) 0.8658(10) 0.6817(10)
C33A C 0.6299(10) 0.8288(10) 0.7146(10)
H30A H 0.5701 0.8518 0.7133
C34A C 0.6399(11) 0.7583(10) 0.7495(9)
H31A H 0.5869 0.7330 0.7720
C35A C 0.7273(12) 0.7247(9) 0.7514(9)
H32A H 0.7342 0.6764 0.7753
C36A C 0.8049(10) 0.7616(10) 0.7185(9)
H33A H 0.8646 0.7386 0.7198
C37A C 0.7949(10) 0.8322(10) 0.6836(9)
O8A O 0.8706(12) 0.8769(12) 0.6544(10)
C38A C 0.971(2) 0.856(3) 0.6618(15)
H34A H 1.0141 0.8941 0.6366
H35A H 1.0108 0.8734 0.7179
H36A H 0.9565 0.7881 0.6358
C45A C 0.6625(8) 1.1244(6) -0.0576(5)
H41A H 0.6861 1.1873 -0.0608
C46A C 0.5815(7) 1.1042(6) -0.0227(5)
H42A H 0.5521 1.1525 -0.0031
C47A C 0.5435(7) 1.0124(6) -0.0167(5)
C48A C 0.5926(9) 0.9484(7) -0.0481(8)
H43A H 0.5704 0.8845 -0.0467
C49A C 0.6722(9) 0.9748(7) -0.0811(7)
H44A H 0.7033 0.9281 -0.1012
C50A C -0.0337(7) 0.3095(6) -0.1245(5)
H45A H -0.0240 0.2842 -0.1742
C51A C -0.0012(7) 0.4078(6) -0.0912(5)
H46A H 0.0307 0.4480 -0.1177
C52A C -0.0152(6) 0.4482(5) -0.0189(5)
C53A C -0.0556(7) 0.3831(6) 0.0192(5)
H47A H -0.0615 0.4064 0.0706
C54A C -0.0862(7) 0.2864(6) -0.0182(5)
H48A H -0.1146 0.2443 0.0083
C55A C 0.4065(7) 1.3771(8) 0.7990(6)
C56A C 0.3913(10) 1.4560(9) 0.8580(7)
H49A H 0.3307 1.4743 0.8324
H50A H 0.3764 1.4340 0.9017
H51A H 0.4569 1.5115 0.8785
C57A C 0.9758(7) 0.9514(7) 0.8934(5)
C58A C 1.0346(9) 0.8843(9) 0.9124(7)
H52A H 1.0186 0.8663 0.9574
H53A H 1.0117 0.8268 0.8664
H54A H 1.1121 0.9158 0.9259
C59A C 0.5810(6) 1.0869(5) 0.5241(5)
H55A H 0.6365 1.1466 0.5411
C60A C 0.5685(6) 1.0361(5) 0.5760(4)
C61A C 0.4870(6) 0.9490(5) 0.5529(4)
H56A H 0.4783 0.9147 0.5893
S1 S 0.3634(3) 0.3180(2) 0.0441(2)
O10 O 0.3849(8) 0.3616(9) 0.1290(7)
O11 O 0.3607(8) 0.3873(6) 0.0056(7)
O12 O 0.4144(7) 0.2541(6) 0.0185(9)
F1 F 0.2072(6) 0.1729(5) 0.0409(6)
F2 F 0.1797(7) 0.2100(7) -0.0617(5)
F3 F 0.1620(5) 0.2964(5) 0.0391(4)
C62 C 0.2234(9) 0.2472(7) 0.0149(7)
S2 S 0.9381(3) 0.3684(3) 0.2604(4)
O13 O 0.9140(9) 0.2951(9) 0.2923(11)
O14 O 0.9980(9) 0.3538(10) 0.2057(9)
O15 O 0.989(2) 0.4665(11) 0.3232(12)
F4 F 0.8474(10) 0.4576(8) 0.1825(6)
F5 F 0.7551(14) 0.388(2) 0.2483(13)
F6 F 0.7690(10) 0.3024(12) 0.1439(12)
C63 C 0.835(2) 0.3865(19) 0.2151(15)
C64 C 0.143(5) 0.456(6) 0.507(3)
H57 H 0.1016 0.4848 0.5378
H58 H 0.1044 0.4415 0.4505
Cl1 Cl 0.1369(12) 0.3603(9) 0.5204(9)
Cl2 Cl 0.2643(12) 0.5433(9) 0.5276(10)
O16 O 0.2853(17) 0.4494(16) 0.6313(12)
C39? C 0.2671(11) 1.1311(10) 0.3198(10)
C40? C 0.1755(10) 1.1529(10) 0.3294(9)
H37? H 0.1330 1.1199 0.3553
C41? C 0.1461(10) 1.2230(10) 0.3011(9)
H38? H 0.0835 1.2379 0.3077
C42? C 0.2084(12) 1.2713(9) 0.2633(9)
H39? H 0.1883 1.3193 0.2439
C43? C 0.3000(11) 1.2496(9) 0.2536(8)
H40? H 0.3425 1.2826 0.2277
C44? C 0.3294(9) 1.1795(10) 0.2819(9)
O9? O 0.4176(12) 1.1631(12) 0.2765(10)
loop_
_geom_bond_atom_site_label_1
_geom_bond_atom_site_label_2
_geom_bond_site_symmetry_1
_geom_bond_site_symmetry_2
Ag1 P1 1_555 1_555
Ag2 P2 1_555 1_555
P1 O1 1_555 1_555
P2 O5 1_555 1_555
O1 C1 1_555 1_555
O2 C6 1_555 1_555
O3 P1 1_555 1_555
O4 C13 1_555 1_555
O5 C25 1_555 1_555
O6 C30 1_555 1_555
O7 P2 1_555 1_555
N1 Ag1 1_555 1_555
N2 Ag1 1_555 1_555
N3 Ag1 1_555 1_555
N4 P1 1_555 1_555
N5 Ag2 1_555 1_555
N6 Ag2 1_555 1_555
N7 Ag2 1_555 1_555
C1 C2 1_555 1_555
C2 H1 1_555 1_555
C3 C2 1_555 1_555
H2 C3 1_555 1_555
C4 C3 1_555 1_555
H3 C4 1_555 1_555
C5 C4 1_555 1_555
H4 C5 1_555 1_555
C6 C1 1_555 1_555
C7 O2 1_555 1_555
H5 C7 1_555 1_555
H6 C7 1_555 1_555
H7 C7 1_555 1_555
C8 O3 1_555 1_555
C9 C8 1_555 1_555
H8 C9 1_555 1_555
C10 C9 1_555 1_555
H9 C10 1_555 1_555
C11 C10 1_555 1_555
H10 C11 1_555 1_555
C12 C11 1_555 1_555
H11 C12 1_555 1_555
C13 C8 1_555 1_555
C14 O4 1_555 1_555
H12 C14 1_555 1_555
H13 C14 1_555 1_555
H14 C14 1_555 1_555
C15 N1 1_555 1_555
H15 C15 1_555 1_555
C16 C15 1_555 1_555
H16 C16 1_555 1_555
C17 C16 1_555 1_555
C18 C17 1_555 1_555
H17 C18 1_555 1_555
C19 N1 1_555 1_555
H18 C19 1_555 1_555
C20 N2 1_555 1_555
H19 C20 1_555 1_555
C21 C20 1_555 1_555
H20 C21 1_555 1_555
C22 C21 1_555 1_555
C23 C22 1_555 1_555
H21 C23 1_555 1_555
C24 N2 1_555 1_555
H22 C24 1_555 1_555
C25 C26 1_555 1_555
C26 H23 1_555 1_555
C27 C26 1_555 1_555
H24 C27 1_555 1_555
C28 C27 1_555 1_555
H25 C28 1_555 1_555
C29 C28 1_555 1_555
H26 C29 1_555 1_555
C30 C25 1_555 1_555
C31 O6 1_555 1_555
H27 C31 1_555 1_555
H28 C31 1_555 1_555
H29 C31 1_555 1_555
C32 O7 1_555 1_555
C33 C32 1_555 1_555
H30 C33 1_555 1_555
C34 C33 1_555 1_555
H31 C34 1_555 1_555
C35 C34 1_555 1_555
H32 C35 1_555 1_555
C36 C35 1_555 1_555
H33 C36 1_555 1_555
C37 C32 1_555 1_555
O8 C37 1_555 1_555
C38 O8 1_555 1_555
H34 C38 1_555 1_555
H35 C38 1_555 1_555
H36 C38 1_555 1_555
C45 N5 1_555 1_555
H41 C45 1_555 1_555
C46 C45 1_555 1_555
H42 C46 1_555 1_555
C47 C46 1_555 1_555
C48 C47 1_555 1_555
H43 C48 1_555 1_555
C49 N5 1_555 1_555
H44 C49 1_555 1_555
C50 N6 1_555 1_555
H45 C50 1_555 1_555
C51 C50 1_555 1_555
H46 C51 1_555 1_555
C52 C51 1_555 1_555
C53 C52 1_555 1_555
H47 C53 1_555 1_555
C54 N6 1_555 1_555
H48 C54 1_555 1_555
C55 N3 1_555 1_555
C56 C55 1_555 1_555
H49 C56 1_555 1_555
H50 C56 1_555 1_555
H51 C56 1_555 1_555
C57 N7 1_555 1_555
C58 C57 1_555 1_555
H52 C58 1_555 1_555
H53 C58 1_555 1_555
H54 C58 1_555 1_555
C59 H55 1_555 1_555
C60 N4 1_555 1_555
C61 C60 1_555 1_555
H56 C61 1_555 1_555
S1 O10 1_555 1_555
O11 S1 1_555 1_555
O12 S1 1_555 1_555
F1 C62 1_555 1_555
F2 C62 1_555 1_555
F3 C62 1_555 1_555
C62 S1 1_555 1_555
S2 O13 1_555 1_555
O14 S2 1_555 1_555
O15 S2 1_555 1_555
F4 C63 1_555 1_555
F5 C63 1_555 1_555
F6 C63 1_555 1_555
C63 S2 1_555 1_555
C64 H57 1_555 1_555
H58 C64 1_555 1_555
Cl1 C64 1_555 1_555
Cl2 C64 1_555 1_555
Ag1A P1A 1_555 1_555
Ag1A_2 N1A 1_555 1_555
Ag1A_3 N2A 1_555 1_555
Ag2A P2A 1_555 1_555
Ag2A_2 N5A 1_555 1_555
Ag2A_3 N6A 1_555 1_555
P1A O1A 1_555 1_555
P2A O5A 1_555 1_555
O1A C1A 1_555 1_555
O2A C6A 1_555 1_555
O3A P1A 1_555 1_555
O4A C13A 1_555 1_555
O5A C25A 1_555 1_555
O6A C30A 1_555 1_555
O7A P2A 1_555 1_555
N1A C15A 1_555 1_555
N1A_2 Ag1A 1_555 1_555
N2A C20A 1_555 1_555
N2A_2 Ag1A 1_555 1_555
N3A Ag1A 1_555 1_555
N4A P1A 1_555 1_555
N5A C45A 1_555 1_555
N5A_2 Ag2A 1_555 1_555
N6A C50A 1_555 1_555
N6A_2 Ag2A 1_555 1_555
N7A Ag2A 1_555 1_555
C1A C2A 1_555 1_555
C2A H1A 1_555 1_555
C3A C2A 1_555 1_555
H2A C3A 1_555 1_555
C4A C3A 1_555 1_555
H3A C4A 1_555 1_555
C5A C4A 1_555 1_555
H4A C5A 1_555 1_555
C6A C1A 1_555 1_555
C7A O2A 1_555 1_555
H5A C7A 1_555 1_555
H6A C7A 1_555 1_555
H7A C7A 1_555 1_555
C8A O3A 1_555 1_555
C9A C8A 1_555 1_555
H8A C9A 1_555 1_555
C10A C9A 1_555 1_555
H9A C10A 1_555 1_555
C11A C10A 1_555 1_555
H10A C11A 1_555 1_555
C12A C11A 1_555 1_555
H11A C12A 1_555 1_555
C13A C8A 1_555 1_555
C14A O4A 1_555 1_555
H12A C14A 1_555 1_555
H13A C14A 1_555 1_555
H14A C14A 1_555 1_555
C15A H15A 1_555 1_555
C16A C15A 1_555 1_555
H16A C16A 1_555 1_555
C17A C17 1_555 1_555
C18A C17A 1_555 1_555
H17A C18A 1_555 1_555
C19A N1A 1_555 1_555
H18A C19A 1_555 1_555
C20A H19A 1_555 1_555
C21A C20A 1_555 1_555
H20A C21A 1_555 1_555
C22A C22 1_555 1_555
C23A C22A 1_555 1_555
H21A C23A 1_555 1_555
C24A N2A 1_555 1_555
H22A C24A 1_555 1_555
C25A C26A 1_555 1_555
C26A H23A 1_555 1_555
C27A C26A 1_555 1_555
H24A C27A 1_555 1_555
C28A C27A 1_555 1_555
H25A C28A 1_555 1_555
C29A C28A 1_555 1_555
H26A C29A 1_555 1_555
C30A C25A 1_555 1_555
C31A O6A 1_555 1_555
H27A C31A 1_555 1_555
H28A C31A 1_555 1_555
H29A C31A 1_555 1_555
C32A O7A 1_555 1_555
C33A C32A 1_555 1_555
H30A C33A 1_555 1_555
C34A C33A 1_555 1_555
H31A C34A 1_555 1_555
C35A C34A 1_555 1_555
H32A C35A 1_555 1_555
C36A C35A 1_555 1_555
H33A C36A 1_555 1_555
C37A C32A 1_555 1_555
O8A C37A 1_555 1_555
C38A O8A 1_555 1_555
H34A C38A 1_555 1_555
H35A C38A 1_555 1_555
H36A C38A 1_555 1_555
C45A H41A 1_555 1_555
C46A C45A 1_555 1_555
H42A C46A 1_555 1_555
C47A C47 1_555 1_555
C48A C47A 1_555 1_555
H43A C48A 1_555 1_555
C49A N5A 1_555 1_555
H44A C49A 1_555 1_555
C50A H45A 1_555 1_555
C51A C50A 1_555 1_555
H46A C51A 1_555 1_555
C52A C52 1_555 1_555
C53A C52A 1_555 1_555
H47A C53A 1_555 1_555
C54A N6A 1_555 1_555
H48A C54A 1_555 1_555
C55A N3A 1_555 1_555
C56A C55A 1_555 1_555
H49A C56A 1_555 1_555
H50A C56A 1_555 1_555
H51A C56A 1_555 1_555
C57A N7A 1_555 1_555
C58A C57A 1_555 1_555
H52A C58A 1_555 1_555
H53A C58A 1_555 1_555
H54A C58A 1_555 1_555
C59A C61 1_555 1_555
H55A C59A 1_555 1_555
C60A N4A 1_555 1_555
C61A C59 1_555 1_555
H56A C61A 1_555 1_555
P2 N4 1_555 1_555
C5 C6 1_555 1_555
C12 C13 1_555 1_555
C18 C19 1_555 1_555
C23 C24 1_555 1_555
C29 C30 1_555 1_555
C36 C37 1_555 1_555
C48 C49 1_555 1_555
C53 C54 1_555 1_555
C59 C60 1_555 1_555
P2A N4A 1_555 1_555
C5A C6A 1_555 1_555
C12A C13A 1_555 1_555
C16A C17A 1_555 1_555
C18A C19A 1_555 1_555
C21A C22A 1_555 1_555
C23A C24A 1_555 1_555
C29A C30A 1_555 1_555
C36A C37A 1_555 1_555
C46A C47A 1_555 1_555
C48A C49A 1_555 1_555
C51A C52A 1_555 1_555
C53A C54A 1_555 1_555
C59A C60A 1_555 1_555
C60A C61A 1_555 1_555

#END
