
#######################################################################
#
#                 Cambridge Crystallographic Data Centre
#                                CCDC 
#
#######################################################################
#
# If this CIF has been generated from an entry in the Cambridge 
# Structural Database, then it will include bibliographic, chemical, 
# crystal, experimental, refinement or atomic coordinate data resulting 
# from the CCDC's data processing and validation procedures.
#
#######################################################################

data_YUCCUV
_symmetry_cell_setting           orthorhombic
_symmetry_space_group_name_H-M   'P b c a'
_symmetry_Int_Tables_number      61
_space_group_name_Hall           '-P 2ac 2ab'
loop_
_symmetry_equiv_pos_site_id
_symmetry_equiv_pos_as_xyz
1 x,y,z
2 1/2-x,-y,1/2+z
3 -x,1/2+y,1/2-z
4 1/2+x,1/2-y,-z
5 -x,-y,-z
6 1/2+x,y,1/2-z
7 x,1/2-y,1/2+z
8 1/2-x,1/2+y,z
_cell_length_a                   11.0097(5)
_cell_length_b                   9.6183(5)
_cell_length_c                   28.4383(13)
_cell_angle_alpha                90
_cell_angle_beta                 90
_cell_angle_gamma                90
_cell_volume                     3011.46
loop_
_atom_site_label
_atom_site_type_symbol
_atom_site_fract_x
_atom_site_fract_y
_atom_site_fract_z
Pr1 Pr 0.93591(2) 0.80387(3) -0.046668(9)
P1 P 1.12082(12) 0.66982(15) -0.43487(5)
N1 N 0.9221(4) 0.7891(5) -0.39333(14)
C1 C 0.9350(6) 0.6435(7) -0.2840(2)
H1 H 0.9862 0.5740 -0.2951
C2 C 0.9362(6) 0.6779(7) -0.2363(2)
H2 H 0.9858 0.6291 -0.2156
C3 C 0.8633(5) 0.7847(7) -0.21990(19)
C4 C 0.7869(7) 0.8499(9) -0.2509(2)
H3 H 0.7366 0.9208 -0.2403
C5 C 0.7837(7) 0.8118(9) -0.2977(2)
H4 H 0.7294 0.8552 -0.3180
C6 C 0.8595(5) 0.7111(6) -0.31447(19)
C7 C 0.8714(6) 0.8266(7) -0.1697(2)
C8 C 0.8594(5) 0.6779(6) -0.36695(18)
H5 H 0.7764 0.6694 -0.3780
H6 H 0.9002 0.5899 -0.3723
C9 C 1.0555(4) 0.7918(6) -0.39311(19)
H7 H 1.0830 0.8849 -0.4007
H8 H 1.0844 0.7695 -0.3618
C10 C 0.8605(4) 0.8777(6) -0.42034(18)
C11 C 0.7338(5) 0.8938(6) -0.43322(18)
C12 C 0.7646(5) 1.0128(6) -0.46239(18)
C13 C 0.8920(5) 0.9998(5) -0.44693(18)
O1 O 0.8078(4) 0.9406(5) -0.16125(15)
H9 H 0.8310 0.9759 -0.1366
O2 O 0.9310(4) 0.7673(5) -0.13995(14)
O3 O 0.6388(3) 0.8339(4) -0.42058(13)
O4 O 0.7060(4) 1.0935(4) -0.48813(15)
O5 O 0.9891(3) 1.0688(4) -0.45088(13)
O6 O 1.2539(3) 0.7020(4) -0.43582(14)
O7 O 1.0998(3) 0.5225(4) -0.41611(13)
O8 O 1.0533(3) 0.6889(5) -0.48049(13)
Pr1E Pr 0.43591(2) 0.80387(3) -0.453332(9)
Pr1A Pr 0.56409(2) 1.19613(3) -0.546668(9)
Pr1B Pr 1.06409(2) 1.30387(3) -0.453332(9)
Pr1E_2 Pr 1.43591(2) 0.80387(3) -0.453332(9)
Pr1B_2 Pr 1.06409(2) 0.30387(3) -0.453332(9)
Pr1F Pr 0.93591(2) 0.69613(3) -0.546668(9)
O3E O 1.1388(3) 0.8339(4) -0.07942(13)
O4A O 0.7940(4) 0.9065(4) 0.01187(15)
O5B O 1.0109(3) 0.5688(4) -0.04912(13)
O6E O 0.7539(3) 0.7020(4) -0.06418(14)
O7B O 0.9002(3) 1.0225(4) -0.08389(13)
O8F O 1.0533(3) 0.8111(5) 0.01951(13)
loop_
_geom_bond_atom_site_label_1
_geom_bond_atom_site_label_2
_geom_bond_site_symmetry_1
_geom_bond_site_symmetry_2
Pr1 O2 1_555 1_555
P1 C9 1_555 1_555
N1 C8 1_555 1_555
C1 H1 1_555 1_555
C2 C1 1_555 1_555
H2 C2 1_555 1_555
C3 C2 1_555 1_555
C4 C3 1_555 1_555
H3 C4 1_555 1_555
C5 C4 1_555 1_555
H4 C5 1_555 1_555
C6 C1 1_555 1_555
C7 C3 1_555 1_555
C8 C6 1_555 1_555
H5 C8 1_555 1_555
H6 C8 1_555 1_555
C9 N1 1_555 1_555
H7 C9 1_555 1_555
H8 C9 1_555 1_555
C10 N1 1_555 1_555
C11 C10 1_555 1_555
C12 C11 1_555 1_555
C13 C10 1_555 1_555
O1 C7 1_555 1_555
H9 O1 1_555 1_555
O2 C7 1_555 1_555
O3 C11 1_555 1_555
O4 C12 1_555 1_555
O5 C13 1_555 1_555
O6 P1 1_555 1_555
O7 P1 1_555 1_555
O8 P1 1_555 1_555
Pr1E O3 1_555 1_555
Pr1A O4 1_555 1_555
Pr1B O5 1_555 1_555
Pr1E_2 O6 1_555 1_555
Pr1B_2 O7 1_555 1_555
Pr1F O8 1_555 1_555
O3E Pr1 1_555 1_555
O4A Pr1 1_555 1_555
O5B Pr1 1_555 1_555
O6E Pr1 1_555 1_555
O7B Pr1 1_555 1_555
O8F Pr1 1_555 1_555
C5 C6 1_555 1_555
C12 C13 1_555 1_555

#END
