
#######################################################################
#
#                 Cambridge Crystallographic Data Centre
#                                CCDC 
#
#######################################################################
#
# If this CIF has been generated from an entry in the Cambridge 
# Structural Database, then it will include bibliographic, chemical, 
# crystal, experimental, refinement or atomic coordinate data resulting 
# from the CCDC's data processing and validation procedures.
#
#######################################################################

data_YUCCOP
_symmetry_cell_setting           orthorhombic
_symmetry_space_group_name_H-M   'P b c a'
_symmetry_Int_Tables_number      61
_space_group_name_Hall           '-P 2ac 2ab'
loop_
_symmetry_equiv_pos_site_id
_symmetry_equiv_pos_as_xyz
1 x,y,z
2 1/2-x,-y,1/2+z
3 -x,1/2+y,1/2-z
4 1/2+x,1/2-y,-z
5 -x,-y,-z
6 1/2+x,y,1/2-z
7 x,1/2-y,1/2+z
8 1/2-x,1/2+y,z
_cell_length_a                   11.088(3)
_cell_length_b                   9.669(3)
_cell_length_c                   28.537(7)
_cell_angle_alpha                90
_cell_angle_beta                 90
_cell_angle_gamma                90
_cell_volume                     3059.45
loop_
_atom_site_label
_atom_site_type_symbol
_atom_site_fract_x
_atom_site_fract_y
_atom_site_fract_z
La1 La 0.93577(3) 0.80624(4) -0.046683(12)
P1 P 1.12102(14) 0.66987(18) -0.43380(5)
N1 N 0.9226(4) 0.7899(6) -0.39370(17)
C1 C 0.9355(7) 0.6454(8) -0.2844(2)
H1 H 0.9871 0.5766 -0.2951
C2 C 0.9348(8) 0.6814(8) -0.2369(2)
H2 H 0.9842 0.6340 -0.2160
C3 C 0.8635(6) 0.7837(8) -0.2210(2)
C4 C 0.7861(8) 0.8490(11) -0.2513(3)
H3 H 0.7352 0.9185 -0.2405
C5 C 0.7842(8) 0.8108(11) -0.2980(2)
H4 H 0.7302 0.8535 -0.3183
C6 C 0.8605(6) 0.7114(7) -0.3148(2)
C7 C 0.8702(7) 0.8286(8) -0.1709(2)
C8 C 0.8599(6) 0.6795(7) -0.36728(19)
H5 H 0.7773 0.6718 -0.3782
H6 H 0.8997 0.5917 -0.3728
C9 C 1.0548(5) 0.7931(7) -0.3932(2)
H7 H 1.0819 0.8854 -0.4013
H8 H 1.0829 0.7727 -0.3618
C10 C 0.8614(6) 0.8775(7) -0.4202(2)
C11 C 0.7354(6) 0.8946(7) -0.4326(2)
C12 C 0.7668(6) 1.0125(7) -0.4622(2)
C13 C 0.8933(5) 0.9998(7) -0.4467(2)
O1 O 0.8065(6) 0.9406(7) -0.16226(18)
H9 H 0.8295 0.9758 -0.1377
O2 O 0.9307(5) 0.7700(6) -0.14154(16)
O3 O 0.6411(4) 0.8360(5) -0.41976(16)
O4 O 0.7084(4) 1.0931(5) -0.48726(18)
O5 O 0.9884(4) 1.0680(5) -0.45048(16)
O6 O 1.2521(4) 0.7039(5) -0.43542(17)
O7 O 1.1017(4) 0.5247(5) -0.41402(16)
O8 O 1.0528(4) 0.6837(6) -0.47907(15)
La1E La 0.43577(3) 0.80624(4) -0.453317(12)
La1A La 0.56423(3) 1.19376(4) -0.546683(12)
La1B La 1.06423(3) 1.30624(4) -0.453317(12)
La1E_2 La 1.43577(3) 0.80624(4) -0.453317(12)
La1B_2 La 1.06423(3) 0.30624(4) -0.453317(12)
La1F La 0.93577(3) 0.69376(4) -0.546683(12)
O3E O 1.1411(4) 0.8360(5) -0.08024(16)
O4A O 0.7916(4) 0.9069(5) 0.01274(18)
O5B O 1.0116(4) 0.5680(5) -0.04952(16)
O6E O 0.7521(4) 0.7039(5) -0.06458(17)
O7B O 0.8983(4) 1.0247(5) -0.08598(16)
O8F O 1.0528(4) 0.8163(6) 0.02093(15)
loop_
_geom_bond_atom_site_label_1
_geom_bond_atom_site_label_2
_geom_bond_site_symmetry_1
_geom_bond_site_symmetry_2
La1 O2 1_555 1_555
P1 C9 1_555 1_555
N1 C8 1_555 1_555
C1 H1 1_555 1_555
C2 C1 1_555 1_555
H2 C2 1_555 1_555
C3 C2 1_555 1_555
C4 C3 1_555 1_555
H3 C4 1_555 1_555
C5 C4 1_555 1_555
H4 C5 1_555 1_555
C6 C1 1_555 1_555
C7 C3 1_555 1_555
C8 C6 1_555 1_555
H5 C8 1_555 1_555
H6 C8 1_555 1_555
C9 N1 1_555 1_555
H7 C9 1_555 1_555
H8 C9 1_555 1_555
C10 N1 1_555 1_555
C11 C10 1_555 1_555
C12 C11 1_555 1_555
C13 C10 1_555 1_555
O1 C7 1_555 1_555
H9 O1 1_555 1_555
O2 C7 1_555 1_555
O3 C11 1_555 1_555
O4 C12 1_555 1_555
O5 C13 1_555 1_555
O6 P1 1_555 1_555
O7 P1 1_555 1_555
O8 P1 1_555 1_555
La1E O3 1_555 1_555
La1A O4 1_555 1_555
La1B O5 1_555 1_555
La1E_2 O6 1_555 1_555
La1B_2 O7 1_555 1_555
La1F O8 1_555 1_555
O3E La1 1_555 1_555
O4A La1 1_555 1_555
O5B La1 1_555 1_555
O6E La1 1_555 1_555
O7B La1 1_555 1_555
O8F La1 1_555 1_555
C5 C6 1_555 1_555
C12 C13 1_555 1_555

#END
