
#######################################################################
#
#                 Cambridge Crystallographic Data Centre
#                                CCDC 
#
#######################################################################
#
# If this CIF has been generated from an entry in the Cambridge 
# Structural Database, then it will include bibliographic, chemical, 
# crystal, experimental, refinement or atomic coordinate data resulting 
# from the CCDC's data processing and validation procedures.
#
#######################################################################

data_YUCDIK
_symmetry_cell_setting           orthorhombic
_symmetry_space_group_name_H-M   'P b c a'
_symmetry_Int_Tables_number      61
_space_group_name_Hall           '-P 2ac 2ab'
loop_
_symmetry_equiv_pos_site_id
_symmetry_equiv_pos_as_xyz
1 x,y,z
2 1/2-x,-y,1/2+z
3 -x,1/2+y,1/2-z
4 1/2+x,1/2-y,-z
5 -x,-y,-z
6 1/2+x,y,1/2-z
7 x,1/2-y,1/2+z
8 1/2-x,1/2+y,z
_cell_length_a                   10.8523(6)
_cell_length_b                   9.5280(5)
_cell_length_c                   28.2963(16)
_cell_angle_alpha                90
_cell_angle_beta                 90
_cell_angle_gamma                90
_cell_volume                     2925.86
loop_
_atom_site_label
_atom_site_type_symbol
_atom_site_fract_x
_atom_site_fract_y
_atom_site_fract_z
Gd1 Gd 0.93586(4) 0.80292(5) -0.046757(16)
P1 P 1.1213(2) 0.6690(3) -0.43660(8)
N1 N 0.9228(7) 0.7891(8) -0.3934(3)
C1 C 0.9369(11) 0.6434(12) -0.2831(4)
H1 H 0.9906 0.5755 -0.2946
C2 C 0.9379(12) 0.6751(11) -0.2342(4)
H2 H 0.9869 0.6244 -0.2134
C3 C 0.8647(10) 0.7820(11) -0.2185(4)
C4 C 0.7870(14) 0.8507(15) -0.2494(4)
H3 H 0.7368 0.9232 -0.2387
C5 C 0.7842(12) 0.8103(16) -0.2967(4)
H4 H 0.7290 0.8541 -0.3170
C6 C 0.8588(9) 0.7105(10) -0.3137(3)
C7 C 0.8715(10) 0.8254(13) -0.1679(4)
C8 C 0.8578(9) 0.6766(10) -0.3661(3)
H5 H 0.7734 0.6688 -0.3771
H6 H 0.8984 0.5873 -0.3714
C9 C 1.0576(8) 0.7904(10) -0.3932(3)
H7 H 1.0864 0.8846 -0.4001
H8 H 1.0870 0.7649 -0.3620
C10 C 0.8597(8) 0.8784(9) -0.4208(3)
C11 C 0.7317(8) 0.8960(10) -0.4333(3)
C12 C 0.7630(9) 1.0175(11) -0.4634(3)
C13 C 0.8915(8) 1.0030(10) -0.4475(3)
O1 O 0.8074(8) 0.9440(9) -0.1592(3)
H9 H 0.8312 0.9789 -0.1344
O2 O 0.9312(7) 0.7630(8) -0.1373(2)
O3 O 0.6345(6) 0.8345(7) -0.4208(2)
O4 O 0.7036(6) 1.0962(8) -0.4892(3)
O5 O 0.9900(6) 1.0719(7) -0.4504(3)
O6 O 1.2565(6) 0.6987(8) -0.4380(2)
O7 O 1.0971(6) 0.5192(7) -0.4185(2)
O8 O 1.0519(6) 0.6935(8) -0.4819(2)
Gd1E Gd 0.43586(4) 0.80292(5) -0.453243(16)
Gd1A Gd 0.56414(4) 1.19708(5) -0.546757(16)
Gd1B Gd 1.06414(4) 1.30292(5) -0.453243(16)
Gd1E_2 Gd 1.43586(4) 0.80292(5) -0.453243(16)
Gd1B_2 Gd 1.06414(4) 0.30292(5) -0.453243(16)
Gd1F Gd 0.93586(4) 0.69708(5) -0.546757(16)
O3E O 1.1345(6) 0.8345(7) -0.0792(2)
O4A O 0.7964(6) 0.9038(8) 0.0108(3)
O5B O 1.0100(6) 0.5719(7) -0.0496(3)
O6E O 0.7565(6) 0.6987(8) -0.0620(2)
O7B O 0.9029(6) 1.0192(7) -0.0815(2)
O8F O 1.0519(6) 0.8065(8) 0.0181(2)
loop_
_geom_bond_atom_site_label_1
_geom_bond_atom_site_label_2
_geom_bond_site_symmetry_1
_geom_bond_site_symmetry_2
Gd1 O2 1_555 1_555
P1 C9 1_555 1_555
N1 C8 1_555 1_555
C1 H1 1_555 1_555
C2 C1 1_555 1_555
H2 C2 1_555 1_555
C3 C2 1_555 1_555
C4 C3 1_555 1_555
H3 C4 1_555 1_555
C5 C4 1_555 1_555
H4 C5 1_555 1_555
C6 C1 1_555 1_555
C7 C3 1_555 1_555
C8 C6 1_555 1_555
H5 C8 1_555 1_555
H6 C8 1_555 1_555
C9 N1 1_555 1_555
H7 C9 1_555 1_555
H8 C9 1_555 1_555
C10 N1 1_555 1_555
C11 C10 1_555 1_555
C12 C11 1_555 1_555
C13 C10 1_555 1_555
O1 C7 1_555 1_555
H9 O1 1_555 1_555
O2 C7 1_555 1_555
O3 C11 1_555 1_555
O4 C12 1_555 1_555
O5 C13 1_555 1_555
O6 P1 1_555 1_555
O7 P1 1_555 1_555
O8 P1 1_555 1_555
Gd1E O3 1_555 1_555
Gd1A O4 1_555 1_555
Gd1B O5 1_555 1_555
Gd1E_2 O6 1_555 1_555
Gd1B_2 O7 1_555 1_555
Gd1F O8 1_555 1_555
O3E Gd1 1_555 1_555
O4A Gd1 1_555 1_555
O5B Gd1 1_555 1_555
O6E Gd1 1_555 1_555
O7B Gd1 1_555 1_555
O8F Gd1 1_555 1_555
C5 C6 1_555 1_555
C12 C13 1_555 1_555

#END
