
#######################################################################
#
#                 Cambridge Crystallographic Data Centre
#                                CCDC 
#
#######################################################################
#
# If this CIF has been generated from an entry in the Cambridge 
# Structural Database, then it will include bibliographic, chemical, 
# crystal, experimental, refinement or atomic coordinate data resulting 
# from the CCDC's data processing and validation procedures.
#
#######################################################################

data_YUCDEG
_symmetry_cell_setting           orthorhombic
_symmetry_space_group_name_H-M   'P b c a'
_symmetry_Int_Tables_number      61
_space_group_name_Hall           '-P 2ac 2ab'
loop_
_symmetry_equiv_pos_site_id
_symmetry_equiv_pos_as_xyz
1 x,y,z
2 1/2-x,-y,1/2+z
3 -x,1/2+y,1/2-z
4 1/2+x,1/2-y,-z
5 -x,-y,-z
6 1/2+x,y,1/2-z
7 x,1/2-y,1/2+z
8 1/2-x,1/2+y,z
_cell_length_a                   10.863(2)
_cell_length_b                   9.5249(16)
_cell_length_c                   28.298(5)
_cell_angle_alpha                90
_cell_angle_beta                 90
_cell_angle_gamma                90
_cell_volume                     2927.97
loop_
_atom_site_label
_atom_site_type_symbol
_atom_site_fract_x
_atom_site_fract_y
_atom_site_fract_z
Eu1 Eu 0.93616(2) 0.80303(3) -0.046711(9)
P1 P 1.12122(13) 0.66948(15) -0.43631(5)
N1 N 0.9218(4) 0.7896(5) -0.39305(17)
C1 C 0.9367(8) 0.6421(8) -0.2829(2)
H1 H 0.9887 0.5721 -0.2941
C2 C 0.9376(8) 0.6753(7) -0.2348(2)
H2 H 0.9874 0.6256 -0.2140
C3 C 0.8638(6) 0.7825(7) -0.2188(2)
C4 C 0.7855(9) 0.8519(10) -0.2496(3)
H3 H 0.7347 0.9234 -0.2385
C5 C 0.7829(8) 0.8151(11) -0.2965(3)
H4 H 0.7288 0.8603 -0.3169
C6 C 0.8602(6) 0.7111(7) -0.3137(2)
C7 C 0.8704(6) 0.8266(7) -0.1681(2)
C8 C 0.8591(5) 0.6772(6) -0.36626(19)
H5 H 0.7748 0.6682 -0.3771
H6 H 0.9006 0.5884 -0.3717
C9 C 1.0571(5) 0.7912(6) -0.3930(2)
H7 H 1.0856 0.8854 -0.4001
H8 H 1.0867 0.7662 -0.3618
C10 C 0.8596(5) 0.8795(6) -0.4202(2)
C11 C 0.7323(5) 0.8941(6) -0.4333(2)
C12 C 0.7631(6) 1.0154(7) -0.4630(2)
C13 C 0.8931(5) 1.0030(6) -0.4470(2)
O1 O 0.8089(5) 0.9440(6) -0.15976(18)
H9 H 0.8329 0.9787 -0.1349
O2 O 0.9307(5) 0.7642(5) -0.13803(15)
O3 O 0.6361(4) 0.8343(5) -0.42077(15)
O4 O 0.7038(4) 1.0953(5) -0.48912(17)
O5 O 0.9911(4) 1.0703(4) -0.45065(16)
O6 O 1.2568(4) 0.6995(5) -0.43738(16)
O7 O 1.0979(4) 0.5199(4) -0.41806(15)
O8 O 1.0519(4) 0.6935(6) -0.48147(15)
Eu1E Eu 0.43616(2) 0.80303(3) -0.453289(9)
Eu1A Eu 0.56384(2) 1.19697(3) -0.546711(9)
Eu1B Eu 1.06384(2) 1.30303(3) -0.453289(9)
Eu1E_2 Eu 1.43616(2) 0.80303(3) -0.453289(9)
Eu1B_2 Eu 1.06384(2) 0.30303(3) -0.453289(9)
Eu1F Eu 0.93616(2) 0.69697(3) -0.546711(9)
O3E O 1.1361(4) 0.8343(5) -0.07923(15)
O4A O 0.7962(4) 0.9047(5) 0.01088(17)
O5B O 1.0089(4) 0.5703(4) -0.04935(16)
O6E O 0.7568(4) 0.6995(5) -0.06262(16)
O7B O 0.9021(4) 1.0199(4) -0.08194(15)
O8F O 1.0519(4) 0.8065(6) 0.01853(15)
loop_
_geom_bond_atom_site_label_1
_geom_bond_atom_site_label_2
_geom_bond_site_symmetry_1
_geom_bond_site_symmetry_2
Eu1 O2 1_555 1_555
P1 C9 1_555 1_555
N1 C8 1_555 1_555
C1 H1 1_555 1_555
C2 C1 1_555 1_555
H2 C2 1_555 1_555
C3 C2 1_555 1_555
C4 C3 1_555 1_555
H3 C4 1_555 1_555
C5 C4 1_555 1_555
H4 C5 1_555 1_555
C6 C1 1_555 1_555
C7 C3 1_555 1_555
C8 C6 1_555 1_555
H5 C8 1_555 1_555
H6 C8 1_555 1_555
C9 N1 1_555 1_555
H7 C9 1_555 1_555
H8 C9 1_555 1_555
C10 N1 1_555 1_555
C11 C10 1_555 1_555
C12 C11 1_555 1_555
C13 C10 1_555 1_555
O1 C7 1_555 1_555
H9 O1 1_555 1_555
O2 C7 1_555 1_555
O3 C11 1_555 1_555
O4 C12 1_555 1_555
O5 C13 1_555 1_555
O6 P1 1_555 1_555
O7 P1 1_555 1_555
O8 P1 1_555 1_555
Eu1E O3 1_555 1_555
Eu1A O4 1_555 1_555
Eu1B O5 1_555 1_555
Eu1E_2 O6 1_555 1_555
Eu1B_2 O7 1_555 1_555
Eu1F O8 1_555 1_555
O3E Eu1 1_555 1_555
O4A Eu1 1_555 1_555
O5B Eu1 1_555 1_555
O6E Eu1 1_555 1_555
O7B Eu1 1_555 1_555
O8F Eu1 1_555 1_555
C5 C6 1_555 1_555
C12 C13 1_555 1_555

#END
