
#######################################################################
#
#                 Cambridge Crystallographic Data Centre
#                                CCDC 
#
#######################################################################
#
# If this CIF has been generated from an entry in the Cambridge 
# Structural Database, then it will include bibliographic, chemical, 
# crystal, experimental, refinement or atomic coordinate data resulting 
# from the CCDC's data processing and validation procedures.
#
#######################################################################

data_YUCDOQ
_symmetry_cell_setting           orthorhombic
_symmetry_space_group_name_H-M   'P b c a'
_symmetry_Int_Tables_number      61
_space_group_name_Hall           '-P 2ac 2ab'
loop_
_symmetry_equiv_pos_site_id
_symmetry_equiv_pos_as_xyz
1 x,y,z
2 1/2-x,-y,1/2+z
3 -x,1/2+y,1/2-z
4 1/2+x,1/2-y,-z
5 -x,-y,-z
6 1/2+x,y,1/2-z
7 x,1/2-y,1/2+z
8 1/2-x,1/2+y,z
_cell_length_a                   10.809(3)
_cell_length_b                   9.470(2)
_cell_length_c                   28.244(6)
_cell_angle_alpha                90
_cell_angle_beta                 90
_cell_angle_gamma                90
_cell_volume                     2891.09
loop_
_atom_site_label
_atom_site_type_symbol
_atom_site_fract_x
_atom_site_fract_y
_atom_site_fract_z
Tb1 Tb 0.93637(4) 0.80260(5) -0.046343(17)
P1 P 1.1216(2) 0.6689(3) -0.43682(9)
N1 N 0.9220(8) 0.7869(9) -0.3930(3)
C1 C 0.9362(15) 0.6392(14) -0.2819(5)
H1 H 0.9877 0.5679 -0.2930
C2 C 0.9382(14) 0.6717(12) -0.2343(4)
H2 H 0.9877 0.6210 -0.2134
C3 C 0.8646(13) 0.7820(13) -0.2183(4)
C4 C 0.7866(17) 0.8525(18) -0.2493(5)
H3 H 0.7373 0.9261 -0.2383
C5 C 0.7820(17) 0.814(2) -0.2963(5)
H4 H 0.7263 0.8577 -0.3166
C6 C 0.8607(11) 0.7087(14) -0.3136(4)
C7 C 0.8715(13) 0.8263(16) -0.1678(5)
C8 C 0.8577(10) 0.6745(11) -0.3658(4)
H5 H 0.7725 0.6670 -0.3763
H6 H 0.8979 0.5844 -0.3713
C9 C 1.0577(9) 0.7913(12) -0.3932(4)
H7 H 1.0851 0.8864 -0.4005
H8 H 1.0884 0.7668 -0.3620
C10 C 0.8599(10) 0.8800(11) -0.4205(4)
C11 C 0.7314(10) 0.8945(12) -0.4338(4)
C12 C 0.7617(11) 1.0140(14) -0.4629(4)
C13 C 0.8917(10) 1.0021(12) -0.4476(4)
O1 O 0.8094(10) 0.9466(11) -0.1597(3)
H9 H 0.8332 0.9818 -0.1348
O2 O 0.9314(9) 0.7620(9) -0.1372(3)
O3 O 0.6346(7) 0.8337(9) -0.4213(3)
O4 O 0.7020(8) 1.0944(10) -0.4894(3)
O5 O 0.9912(7) 1.0706(8) -0.4501(3)
O6 O 1.2576(7) 0.6992(10) -0.4380(3)
O7 O 1.0978(7) 0.5181(8) -0.4188(3)
O8 O 1.0520(7) 0.6951(11) -0.4819(3)
Tb1E Tb 0.43637(4) 0.80260(5) -0.453657(17)
Tb1A Tb 0.56363(4) 1.19740(5) -0.546343(17)
Tb1B Tb 1.06363(4) 1.30260(5) -0.453657(17)
Tb1E_2 Tb 1.43637(4) 0.80260(5) -0.453657(17)
Tb1B_2 Tb 1.06363(4) 0.30260(5) -0.453657(17)
Tb1F Tb 0.93637(4) 0.69740(5) -0.546343(17)
O3E O 1.1346(7) 0.8337(9) -0.0787(3)
O4A O 0.7980(8) 0.9056(10) 0.0106(3)
O5B O 1.0088(7) 0.5706(8) -0.0499(3)
O6E O 0.7576(7) 0.6992(10) -0.0620(3)
O7B O 0.9022(7) 1.0181(8) -0.0812(3)
O8F O 1.0520(7) 0.8049(11) 0.0181(3)
loop_
_geom_bond_atom_site_label_1
_geom_bond_atom_site_label_2
_geom_bond_site_symmetry_1
_geom_bond_site_symmetry_2
Tb1 O2 1_555 1_555
P1 C9 1_555 1_555
N1 C8 1_555 1_555
C1 H1 1_555 1_555
C2 C1 1_555 1_555
H2 C2 1_555 1_555
C3 C2 1_555 1_555
C4 C3 1_555 1_555
H3 C4 1_555 1_555
C5 C4 1_555 1_555
H4 C5 1_555 1_555
C6 C1 1_555 1_555
C7 C3 1_555 1_555
C8 C6 1_555 1_555
H5 C8 1_555 1_555
H6 C8 1_555 1_555
C9 N1 1_555 1_555
H7 C9 1_555 1_555
H8 C9 1_555 1_555
C10 N1 1_555 1_555
C11 C10 1_555 1_555
C12 C11 1_555 1_555
C13 C10 1_555 1_555
O1 C7 1_555 1_555
H9 O1 1_555 1_555
O2 C7 1_555 1_555
O3 C11 1_555 1_555
O4 C12 1_555 1_555
O5 C13 1_555 1_555
O6 P1 1_555 1_555
O7 P1 1_555 1_555
O8 P1 1_555 1_555
Tb1E O3 1_555 1_555
Tb1A O4 1_555 1_555
Tb1B O5 1_555 1_555
Tb1E_2 O6 1_555 1_555
Tb1B_2 O7 1_555 1_555
Tb1F O8 1_555 1_555
O3E Tb1 1_555 1_555
O4A Tb1 1_555 1_555
O5B Tb1 1_555 1_555
O6E Tb1 1_555 1_555
O7B Tb1 1_555 1_555
O8F Tb1 1_555 1_555
C5 C6 1_555 1_555
C12 C13 1_555 1_555

#END
