
#######################################################################
#
#                 Cambridge Crystallographic Data Centre
#                                CCDC 
#
#######################################################################
#
# If this CIF has been generated from an entry in the Cambridge 
# Structural Database, then it will include bibliographic, chemical, 
# crystal, experimental, refinement or atomic coordinate data resulting 
# from the CCDC's data processing and validation procedures.
#
#######################################################################

data_YUCGOS
_symmetry_cell_setting           monoclinic
_symmetry_space_group_name_H-M   'C 2/c'
_symmetry_Int_Tables_number      15
_space_group_name_Hall           '-C 2yn'
loop_
_symmetry_equiv_pos_site_id
_symmetry_equiv_pos_as_xyz
1 x,y,z
2 -x,y,1/2-z
3 1/2+x,1/2+y,z
4 1/2-x,1/2+y,1/2-z
5 -x,-y,-z
6 x,-y,1/2+z
7 1/2-x,1/2-y,-z
8 1/2+x,1/2-y,1/2+z
_cell_length_a                   16.319(10)
_cell_length_b                   18.374(8)
_cell_length_c                   22.075(8)
_cell_angle_alpha                90
_cell_angle_beta                 106.13(4)
_cell_angle_gamma                90
_cell_volume                     6358.52
loop_
_atom_site_label
_atom_site_type_symbol
_atom_site_fract_x
_atom_site_fract_y
_atom_site_fract_z
Na2 Na 0.2304(5) 0.2179(5) 0.0720(3)
O1 O -0.1334(7) 0.2856(6) 0.1019(5)
O2 O 0.3336(10) 0.2969(9) 0.0456(7)
O3 O 0.5671(15) 0.1166(13) 0.0025(11)
O4 O 0.5682(14) -0.0259(13) 0.1098(10)
O5 O 0.3310(11) 0.3256(9) 0.2384(8)
O6 O 0.0000 -0.1282(15) 0.2500
O7 O 0.4700(12) 0.1617(11) 0.1516(9)
O8 O 0.0000 0.2895(28) 0.2500
O9 O 0.1457(28) 0.3235(25) 0.0689(20)
O10 O 0.1389(33) 0.3221(29) 0.2159(23)
Tb1 Tb 0.0000 0.0769(1) 0.2500
La1 La 0.2405(1) 0.0758(1) 0.2095(1)
S1 S -0.1001(2) 0.2114(2) -0.0916(2)
O11 O -0.1604(7) 0.1608(6) -0.1313(4)
O12 O -0.0157(7) 0.2064(7) -0.0990(5)
O13 O -0.0850(6) 0.1544(5) 0.1744(4)
O14 O 0.1411(5) 0.1547(6) 0.1162(4)
O15 O 0.0866(5) 0.1322(5) 0.1936(4)
C1 C -0.0934(9) 0.1898(8) -0.0125(6)
C2 C -0.1661(10) 0.1866(9) 0.0066(6)
C3 C -0.1635(9) 0.1735(9) 0.0680(7)
C4 C -0.0844(8) 0.1639(7) 0.1144(6)
C5 C -0.0105(8) 0.1659(7) 0.0947(6)
C6 C -0.0166(9) 0.1802(8) 0.0305(6)
C7 C 0.0759(8) 0.1511(7) 0.1367(6)
S2 S -0.3132(3) -0.0320(3) -0.0596(2)
O16 O -0.3277(12) 0.0533(8) -0.0820(7)
O17 O -0.3843(7) -0.0473(11) -0.0411(5)
O18 O -0.2869(6) -0.0623(7) -0.1083(4)
O19 O -0.0198(5) -0.0056(5) 0.1658(4)
O20 O -0.2706(6) 0.0088(7) 0.1806(4)
O21 O -0.1368(5) 0.0220(5) 0.2297(4)
C8 C -0.2255(8) -0.0261(8) 0.0073(6)
C9 C -0.1417(9) -0.0325(9) 0.0037(6)
C10 C -0.0760(9) -0.0256(8) 0.0561(6)
C11 C -0.0883(8) -0.0123(7) 0.1166(6)
C12 C -0.1722(8) -0.0085(7) 0.1198(6)
C13 C -0.2398(9) -0.0157(8) 0.0655(6)
C14 C -0.1946(8) 0.0071(8) 0.1793(6)
O22 O 0.1316(6) -0.0103(5) 0.1413(5)
O23 O 0.2337(6) 0.1728(6) 0.2917(4)
O24 O 0.3169(7) 0.1948(6) 0.1838(5)
O25 O 0.4004(7) 0.0807(9) 0.2688(6)
O26 O 0.3104(8) -0.0509(7) 0.2074(6)
S1A S 0.1001(2) 0.2114(2) 0.5916(2)
O11A O 0.1604(7) 0.1608(6) 0.6313(4)
O12A O 0.0157(7) 0.2064(7) 0.5990(5)
O13A O 0.0850(6) 0.1544(5) 0.3256(4)
O14A O -0.1411(5) 0.1547(6) 0.3838(4)
O15A O -0.0866(5) 0.1322(5) 0.3064(4)
C1A C 0.0934(9) 0.1898(8) 0.5125(6)
C2A C 0.1661(10) 0.1866(9) 0.4934(6)
C3A C 0.1635(9) 0.1735(9) 0.4320(7)
C4A C 0.0844(8) 0.1639(7) 0.3856(6)
C5A C 0.0105(8) 0.1659(7) 0.4053(6)
C6A C 0.0166(9) 0.1802(8) 0.4695(6)
C7A C -0.0759(8) 0.1511(7) 0.3633(6)
S2A S 0.3132(3) -0.0320(3) 0.5596(2)
O16A O 0.3277(12) 0.0533(8) 0.5820(7)
O17A O 0.3843(7) -0.0473(11) 0.5411(5)
O18A O 0.2869(6) -0.0623(7) 0.6083(4)
O19A O 0.0198(5) -0.0056(5) 0.3342(4)
O20A O 0.2706(6) 0.0088(7) 0.3194(4)
O21A O 0.1368(5) 0.0220(5) 0.2703(4)
C8A C 0.2255(8) -0.0261(8) 0.4927(6)
C9A C 0.1417(9) -0.0325(9) 0.4963(6)
C10A C 0.0760(9) -0.0256(8) 0.4439(6)
C11A C 0.0883(8) -0.0123(7) 0.3834(6)
C12A C 0.1722(8) -0.0085(7) 0.3802(6)
C13A C 0.2398(9) -0.0157(8) 0.4345(6)
C14A C 0.1946(8) 0.0071(8) 0.3207(6)
La1A La -0.2405(1) 0.0758(1) 0.2905(1)
O22A O -0.1316(6) -0.0103(5) 0.3587(5)
O23A O -0.2337(6) 0.1728(6) 0.2083(4)
O24A O -0.3169(7) 0.1948(6) 0.3162(5)
O25A O -0.4004(7) 0.0807(9) 0.2312(6)
O26A O -0.3104(8) -0.0509(7) 0.2926(6)
O18D O 0.2869(6) 0.0623(7) 0.1083(4)
La1D La -0.2405(1) -0.0758(1) -0.2095(1)
La1E La 0.2405(1) -0.0758(1) 0.7095(1)
O18E O -0.2869(6) 0.0623(7) 0.3917(4)
Na1 Na 0.5000 0.0000 0.0000
loop_
_geom_bond_atom_site_label_1
_geom_bond_atom_site_label_2
_geom_bond_site_symmetry_1
_geom_bond_site_symmetry_2
Tb1 O13 1_555 1_555
La1 O14 1_555 1_555
S1 O11 1_555 1_555
O12 S1 1_555 1_555
O13 C4 1_555 1_555
O14 C7 1_555 1_555
O15 Tb1 1_555 1_555
C1 S1 1_555 1_555
C2 C1 1_555 1_555
C3 C2 1_555 1_555
C4 C3 1_555 1_555
C5 C4 1_555 1_555
C6 C1 1_555 1_555
C7 O15 1_555 1_555
S2 O16 1_555 1_555
O17 S2 1_555 1_555
O18 S2 1_555 1_555
O19 Tb1 1_555 1_555
O20 C14 1_555 1_555
O21 Tb1 1_555 1_555
C8 S2 1_555 1_555
C9 C8 1_555 1_555
C10 C9 1_555 1_555
C11 O19 1_555 1_555
C12 C11 1_555 1_555
C13 C8 1_555 1_555
C14 O21 1_555 1_555
O22 La1 1_555 1_555
O23 La1 1_555 1_555
O24 La1 1_555 1_555
O25 La1 1_555 1_555
O26 La1 1_555 1_555
S1A O11A 1_555 1_555
O12A S1A 1_555 1_555
O13A Tb1 1_555 1_555
O14A C7A 1_555 1_555
O15A Tb1 1_555 1_555
C1A S1A 1_555 1_555
C2A C1A 1_555 1_555
C3A C2A 1_555 1_555
C4A O13A 1_555 1_555
C5A C4A 1_555 1_555
C6A C1A 1_555 1_555
C7A O15A 1_555 1_555
S2A O16A 1_555 1_555
O17A S2A 1_555 1_555
O18A S2A 1_555 1_555
O19A Tb1 1_555 1_555
O20A La1 1_555 1_555
O21A Tb1 1_555 1_555
C8A S2A 1_555 1_555
C9A C8A 1_555 1_555
C10A C9A 1_555 1_555
C11A O19A 1_555 1_555
C12A C11A 1_555 1_555
C13A C8A 1_555 1_555
C14A O20A 1_555 1_555
La1A O20 1_555 1_555
O22A La1A 1_555 1_555
O23A La1A 1_555 1_555
O24A La1A 1_555 1_555
O25A La1A 1_555 1_555
O26A La1A 1_555 1_555
O18D La1 1_555 1_555
La1D O18 1_555 1_555
La1E O18A 1_555 1_555
O18E La1A 1_555 1_555
La1 O15 1_555 1_555
La1 O21A 1_555 1_555
C5 C6 1_555 1_555
C5 C7 1_555 1_555
O21 La1A 1_555 1_555
C10 C11 1_555 1_555
C12 C13 1_555 1_555
C12 C14 1_555 1_555
O14A La1A 1_555 1_555
O15A La1A 1_555 1_555
C3A C4A 1_555 1_555
C5A C6A 1_555 1_555
C5A C7A 1_555 1_555
O21A C14A 1_555 1_555
C10A C11A 1_555 1_555
C12A C13A 1_555 1_555
C12A C14A 1_555 1_555

#END
