
#######################################################################
#
#                 Cambridge Crystallographic Data Centre
#                                CCDC 
#
#######################################################################
#
# If this CIF has been generated from an entry in the Cambridge 
# Structural Database, then it will include bibliographic, chemical, 
# crystal, experimental, refinement or atomic coordinate data resulting 
# from the CCDC's data processing and validation procedures.
#
#######################################################################

data_YUCGOU
_symmetry_cell_setting           triclinic
_symmetry_space_group_name_H-M   'P -1'
_symmetry_Int_Tables_number      2
_space_group_name_Hall           '-P 1'
loop_
_symmetry_equiv_pos_site_id
_symmetry_equiv_pos_as_xyz
1 x,y,z
2 -x,-y,-z
_cell_length_a                   7.1628(5)
_cell_length_b                   9.9371(6)
_cell_length_c                   14.9972(10)
_cell_angle_alpha                71.520(6)
_cell_angle_beta                 83.425(6)
_cell_angle_gamma                75.425(6)
_cell_volume                     979.136
loop_
_atom_site_label
_atom_site_type_symbol
_atom_site_fract_x
_atom_site_fract_y
_atom_site_fract_z
Dy1 Dy 0.88959(5) 0.55668(3) 0.37694(2)
Dy2 Dy 1.33642(5) 0.66927(3) 0.40854(2)
O1 O 1.0280(7) 0.6391(5) 0.4745(3)
O2 O 0.6312(7) 0.5777(5) 0.4857(3)
O3 O 0.4179(8) 0.3128(5) 0.3351(4)
O4 O 0.8613(7) 0.8113(5) 0.2888(3)
O5 O 1.4954(8) 0.8758(5) 0.3650(4)
O6 O 0.8523(7) 0.5886(5) 0.2129(3)
C1 C 0.5704(11) 0.6541(7) 0.1237(5)
C2 C 0.7267(12) 1.0858(8) 0.1668(6)
H1 H 0.7122 1.0169 0.1369
H2 H 0.7033 1.1817 0.1225
H3 H 0.6358 1.0844 0.2192
C3 C 0.3261(11) 0.4314(7) 0.2914(5)
O7 O 0.2132(7) 0.5226(5) 0.3340(3)
O8 O 0.5776(7) 0.6254(5) 0.2920(3)
C4 C 0.6726(11) 0.6173(7) 0.2138(5)
O9 O 0.8544(8) 1.3446(5) 0.3615(4)
C5 C 0.3616(10) 0.6355(7) 0.1385(5)
H4 H 0.2913 0.6975 0.1757
H5 H 0.3039 0.6718 0.0775
C6 C 0.3294(11) 0.4815(8) 0.1862(5)
H6 H 0.2078 0.4769 0.1661
H7 H 0.4307 0.4134 0.1636
C7 C 0.9856(11) 0.8881(7) 0.2646(5)
C8 C 0.8186(11) 1.2234(7) 0.4040(5)
C9 C 0.9301(11) 1.0453(7) 0.2014(5)
C10 C 0.5645(12) 0.8154(7) 0.0758(5)
H8 H 0.4895 0.8716 0.1145
H9 H 0.5067 0.8456 0.0158
H10 H 0.6935 0.8303 0.0669
C11 C 1.0714(13) 1.0628(8) 0.1159(6)
H11 H 1.0701 0.9920 0.0850
H12 H 1.1992 1.0484 0.1363
H13 H 1.0334 1.1590 0.0730
C12 C 0.8591(12) 1.1085(8) 0.3544(5)
H14 H 0.9408 1.0212 0.3936
H15 H 0.7378 1.0850 0.3497
C13 C 0.9538(12) 1.1454(8) 0.2576(6)
H16 H 1.0902 1.1367 0.2632
H17 H 0.8976 1.2458 0.2234
C14 C 0.6888(11) 0.5650(8) 0.0606(5)
H18 H 0.8152 0.5850 0.0478
H19 H 0.6251 0.5915 0.0025
H20 H 0.7000 0.4630 0.0921
O10 O 1.1557(7) 0.8439(5) 0.2929(3)
O11 O 0.7461(7) 1.1887(5) 0.4875(4)
H21 H 1.539(15) 0.897(10) 0.409(8)
H22 H 1.589(15) 0.872(9) 0.311(7)
Dy1_2 Dy -0.11041(5) 0.55668(3) 0.37694(2)
Dy1_3 Dy 0.88959(5) 1.55668(3) 0.37694(2)
Dy1A Dy 1.11041(5) 0.44332(3) 0.62306(2)
Dy2_2 Dy 0.33642(5) 0.66927(3) 0.40854(2)
Dy2A Dy 0.66358(5) 0.33073(3) 0.59146(2)
Dy2A_2 Dy 0.66358(5) 1.33073(3) 0.59146(2)
O1A O 0.9720(7) 0.3609(5) 0.5255(3)
O2_2 O 1.6312(7) 0.5777(5) 0.4857(3)
O2A O 1.3688(7) 0.4223(5) 0.5143(3)
O7_2 O 1.2132(7) 0.5226(5) 0.3340(3)
O8_2 O 1.5776(7) 0.6254(5) 0.2920(3)
O9_2 O 0.8544(8) 0.3446(5) 0.3615(4)
O11A O 1.2539(7) 0.8113(5) 0.5125(4)
O12 O 1.7165(9) 0.8776(6) 0.5155(4)
H23 H 1.6917 0.9614 0.5234
H24 H 1.6912 0.8156 0.5665
loop_
_geom_bond_atom_site_label_1
_geom_bond_atom_site_label_2
_geom_bond_site_symmetry_1
_geom_bond_site_symmetry_2
Dy1 O1 1_555 1_555
Dy2 O1 1_555 1_555
O1 Dy1A 1_555 1_555
O2 Dy1 1_555 1_555
O3 C3 1_555 1_555
O4 Dy1 1_555 1_555
O5 Dy2 1_555 1_555
O6 Dy1 1_555 1_555
C1 C4 1_555 1_555
C2 H1 1_555 1_555
H2 C2 1_555 1_555
H3 C2 1_555 1_555
C3 O7 1_555 1_555
O7 Dy1_2 1_555 1_555
O8 Dy1 1_555 1_555
C4 O6 1_555 1_555
O9 C8 1_555 1_555
C5 C1 1_555 1_555
H4 C5 1_555 1_555
H5 C5 1_555 1_555
C6 C3 1_555 1_555
H6 C6 1_555 1_555
H7 C6 1_555 1_555
C7 O4 1_555 1_555
C8 C12 1_555 1_555
C9 C2 1_555 1_555
C10 C1 1_555 1_555
H8 C10 1_555 1_555
H9 C10 1_555 1_555
H10 C10 1_555 1_555
C11 C9 1_555 1_555
H11 C11 1_555 1_555
H12 C11 1_555 1_555
H13 C11 1_555 1_555
C12 H14 1_555 1_555
H15 C12 1_555 1_555
C13 C9 1_555 1_555
H16 C13 1_555 1_555
H17 C13 1_555 1_555
C14 C1 1_555 1_555
H18 C14 1_555 1_555
H19 C14 1_555 1_555
H20 C14 1_555 1_555
O10 Dy2 1_555 1_555
O11 C8 1_555 1_555
H21 O5 1_555 1_555
H22 O5 1_555 1_555
O12 H23 1_555 1_555
H24 O12 1_555 1_555
Dy1_3 O9 1_555 1_555
Dy1A O1A 1_555 1_555
Dy2_2 O2 1_555 1_555
Dy2A O2 1_555 1_555
Dy2A_2 O11 1_555 1_555
O1A Dy1 1_555 1_555
O2_2 Dy2 1_555 1_555
O2A Dy2 1_555 1_555
O7_2 Dy1 1_555 1_555
O8_2 Dy2 1_555 1_555
O9_2 Dy1 1_555 1_555
O11A Dy2 1_555 1_555
Dy2 O7_2 1_555 1_555
O7 Dy2_2 1_555 1_555
O8 C4 1_555 1_555
O8 Dy2_2 1_555 1_555
C5 C6 1_555 1_555
C7 C9 1_555 1_555
C7 O10 1_555 1_555
C12 C13 1_555 1_555
Dy1A O2A 1_555 1_555
Dy2A O1A 1_555 1_555

#END
