
#######################################################################
#
#                 Cambridge Crystallographic Data Centre
#                                CCDC 
#
#######################################################################
#
# If this CIF has been generated from an entry in the Cambridge 
# Structural Database, then it will include bibliographic, chemical, 
# crystal, experimental, refinement or atomic coordinate data resulting 
# from the CCDC's data processing and validation procedures.
#
#######################################################################

data_YUCHAF01
_symmetry_cell_setting           triclinic
_symmetry_space_group_name_H-M   'P -1'
_symmetry_Int_Tables_number      2
_space_group_name_Hall           '-P 1'
loop_
_symmetry_equiv_pos_site_id
_symmetry_equiv_pos_as_xyz
1 x,y,z
2 -x,-y,-z
_cell_length_a                   7.468
_cell_length_b                   9.071
_cell_length_c                   10.178
_cell_angle_alpha                107.77
_cell_angle_beta                 103.67
_cell_angle_gamma                96.07
_cell_volume                     626.088
loop_
_atom_site_label
_atom_site_type_symbol
_atom_site_fract_x
_atom_site_fract_y
_atom_site_fract_z
Mn1 Mn 0.0000 0.5000 0.0000
O1 O -0.1407 0.6810 -0.0591
N1 N -0.1840 0.4793 0.1330
C1 C -0.2870 0.4368 0.1862
S1 S -0.4308 0.3756 0.2632
N2 N 0.2116 0.6906 0.1910
C2 C 0.2345 0.6822 0.3226
C3 C 0.4190 0.9416 0.2966
C4 C 0.3045 0.8178 0.1810
C5 C 0.3474 0.8016 0.4447
C6 C 0.4415 0.9354 0.4353
O1A O 0.1407 0.3190 0.0591
N1A N 0.1840 0.5207 -0.1330
C1A C 0.2870 0.5632 -0.1862
S1A S 0.4308 0.6244 -0.2632
C6A C 0.5585 1.0646 0.5647
C3A C 0.5810 1.0584 0.7034
C4A C 0.6955 1.1822 0.8190
N2A N 0.7884 1.3094 0.8090
Mn1A Mn 1.0000 1.5000 1.0000
C2A C 0.7655 1.3178 0.6774
C5A C 0.6526 1.1984 0.5553
N2A_2 N -0.2116 0.3094 -0.1910
C7 C 0.0775 1.0328 0.6976
C8 C 0.0565 0.9535 0.7923
N3 N -0.0495 0.8124 0.7502
C9 C -0.1320 0.7413 0.6100
C10 C -0.1185 0.8105 0.5078
C11 C -0.0107 0.9597 0.5530
C11A C 0.0107 1.0403 0.4470
C7A C -0.0775 0.9672 0.3024
C8A C -0.0565 1.0465 0.2077
N3A N 0.0495 1.1876 0.2498
C9A C 0.1320 1.2587 0.3900
C10A C 0.1185 1.1895 0.4922
loop_
_geom_bond_atom_site_label_1
_geom_bond_atom_site_label_2
_geom_bond_site_symmetry_1
_geom_bond_site_symmetry_2
Mn1 O1 1_555 1_555
N1 Mn1 1_555 1_555
C1 N1 1_555 1_555
S1 C1 1_555 1_555
N2 Mn1 1_555 1_555
C2 N2 1_555 1_555
C3 C4 1_555 1_555
C4 N2 1_555 1_555
C5 C2 1_555 1_555
C6 C3 1_555 1_555
C7 C8 1_555 1_555
C8 N3 1_555 1_555
N3 C9 1_555 1_555
C9 C10 1_555 1_555
C10 C11 1_555 1_555
C11 C7 1_555 1_555
O1A Mn1 1_555 1_555
N1A Mn1 1_555 1_555
C1A N1A 1_555 1_555
S1A C1A 1_555 1_555
C6A C6 1_555 1_555
C3A C6A 1_555 1_555
C4A C3A 1_555 1_555
N2A C4A 1_555 1_555
Mn1A N2A 1_555 1_555
C2A N2A 1_555 1_555
C5A C6A 1_555 1_555
N2A_2 Mn1 1_555 1_555
C11A C11 1_555 1_555
C7A C11A 1_555 1_555
C8A C7A 1_555 1_555
N3A C8A 1_555 1_555
C9A N3A 1_555 1_555
C10A C11A 1_555 1_555
C5 C6 1_555 1_555
C2A C5A 1_555 1_555
C9A C10A 1_555 1_555

#END
