
#######################################################################
#
#                 Cambridge Crystallographic Data Centre
#                                CCDC 
#
#######################################################################
#
# If this CIF has been generated from an entry in the Cambridge 
# Structural Database, then it will include bibliographic, chemical, 
# crystal, experimental, refinement or atomic coordinate data resulting 
# from the CCDC's data processing and validation procedures.
#
#######################################################################

data_YUCHAF
_symmetry_cell_setting           triclinic
_symmetry_space_group_name_H-M   'P 1'
_symmetry_Int_Tables_number      1
_space_group_name_Hall           'P 1'
loop_
_symmetry_equiv_pos_site_id
_symmetry_equiv_pos_as_xyz
1 x,y,z
_cell_length_a                   7.468(3)
_cell_length_b                   9.071(2)
_cell_length_c                   10.178(4)
_cell_angle_alpha                107.77(2)
_cell_angle_beta                 103.67(2)
_cell_angle_gamma                96.07(2)
_cell_volume                     626.088
loop_
_atom_site_label
_atom_site_type_symbol
_atom_site_fract_x
_atom_site_fract_y
_atom_site_fract_z
Mn1 Mn -0.863 -0.189 0.024
O1 O -1.0009(7) -0.0084(6) -0.0347(5)
O2 O -0.7195(9) -0.3704(6) 0.0835(5)
N1 N -1.051(1) -0.2094(9) 0.1558(7)
C1 C -1.149(1) -0.2514(8) 0.2124(7)
S1 S -1.2962(4) -0.3289(4) 0.2757(3)
N2 N -0.6830(9) -0.1680(8) -0.1102(7)
C2 C -0.575(1) -0.125(1) -0.1599(9)
S2 S -0.4346(4) -0.0801(4) -0.2506(2)
C3 C -0.444(1) 0.257(1) 0.3188(7)
C4 C -0.559(1) 0.127(1) 0.2045(8)
N3 N -0.650(1) -0.0018(7) 0.2171(6)
C5 C -0.629(1) -0.0006(7) 0.3431(7)
C6 C -0.516(1) 0.115(1) 0.4670(7)
C7 C -0.419(1) 0.2487(9) 0.4640(6)
C8 C -0.3020(8) 0.3780(7) 0.5934(7)
C9 C -0.282(1) 0.3739(8) 0.7256(7)
C10 C -0.168(1) 0.4914(8) 0.8424(7)
N4 N -0.0731(8) 0.6169(7) 0.8352(5)
C11 C -0.098(1) 0.6351(9) 0.6979(7)
C12 C -0.2107(9) 0.5119(7) 0.5776(7)
H1 H -1.169 -0.056 -0.080
H2 H -0.960 0.028 -0.108
H3 H -0.588 -0.359 0.111
H4 H -0.754 -0.416 0.140
H5 H -0.379 0.355 0.306
H6 H -0.586 0.140 0.108
H7 H -0.711 -0.109 0.359
H8 H -0.499 0.082 0.556
H9 H -0.375 0.250 0.722
H10 H -0.169 0.502 0.939
H11 H -0.006 0.749 0.695
H12 H -0.208 0.553 0.506
N4_2 N -1.0731(8) -0.3831(7) -0.1648(5)
Mn1_2 Mn 0.137 0.811 1.024
C13 C 0.218(1) -0.653(1) 0.7262(9)
C14 C 0.194(2) -0.743(1) 0.8137(9)
N5 N 0.093(1) -0.8724(9) 0.7801(7)
C15 C 0.002(1) -0.9424(9) 0.628(1)
C16 C 0.028(1) -0.8780(9) 0.5391(9)
C17 C 0.125(2) -0.7277(9) 0.5794(8)
C18 C 0.1464(9) -0.6471(7) 0.4735(7)
C19 C 0.265(1) -0.4990(9) 0.5235(9)
C20 C 0.266(2) -0.425(1) 0.4081(9)
N6 N 0.192(1) -0.4973(8) 0.2796(7)
C21 C 0.081(1) -0.650(1) 0.2291(9)
C22 C 0.063(1) -0.7187(9) 0.3310(8)
H13 H 0.283 -0.533 0.776
H14 H 0.240 -0.680 0.929
H15 H -0.125 -1.029 0.610
H16 H -0.002 -0.974 0.445
H17 H 0.287 -0.451 0.635
H18 H 0.323 -0.313 0.414
H19 H 0.034 -0.727 0.104
H20 H -0.045 -0.830 0.280
loop_
_geom_bond_atom_site_label_1
_geom_bond_atom_site_label_2
_geom_bond_site_symmetry_1
_geom_bond_site_symmetry_2
Mn1 O1 1_555 1_555
O1 H1 1_555 1_555
O2 Mn1 1_555 1_555
N1 Mn1 1_555 1_555
C1 N1 1_555 1_555
S1 C1 1_555 1_555
N2 Mn1 1_555 1_555
C2 N2 1_555 1_555
S2 C2 1_555 1_555
C3 C4 1_555 1_555
C4 N3 1_555 1_555
N3 Mn1 1_555 1_555
C5 N3 1_555 1_555
C6 C5 1_555 1_555
C7 C3 1_555 1_555
C8 C7 1_555 1_555
C9 C8 1_555 1_555
C10 C9 1_555 1_555
N4 C10 1_555 1_555
C11 N4 1_555 1_555
C12 C8 1_555 1_555
H2 O1 1_555 1_555
H3 O2 1_555 1_555
H4 O2 1_555 1_555
H5 C3 1_555 1_555
H6 C4 1_555 1_555
H7 C5 1_555 1_555
H8 C6 1_555 1_555
H9 C9 1_555 1_555
H10 C10 1_555 1_555
H11 C11 1_555 1_555
H12 C12 1_555 1_555
C13 C14 1_555 1_555
C14 N5 1_555 1_555
N5 C15 1_555 1_555
C15 C16 1_555 1_555
C16 C17 1_555 1_555
C17 C13 1_555 1_555
C18 C17 1_555 1_555
C19 C18 1_555 1_555
C20 C19 1_555 1_555
N6 C20 1_555 1_555
C21 N6 1_555 1_555
C22 C18 1_555 1_555
H13 C13 1_555 1_555
H14 C14 1_555 1_555
H15 C15 1_555 1_555
H16 C16 1_555 1_555
H17 C19 1_555 1_555
H18 C20 1_555 1_555
H19 C21 1_555 1_555
H20 C22 1_555 1_555
N4_2 Mn1 1_555 1_555
Mn1_2 N4 1_555 1_555
C6 C7 1_555 1_555
C11 C12 1_555 1_555
C21 C22 1_555 1_555

#END
