
#######################################################################
#
#                 Cambridge Crystallographic Data Centre
#                                CCDC 
#
#######################################################################
#
# If this CIF has been generated from an entry in the Cambridge 
# Structural Database, then it will include bibliographic, chemical, 
# crystal, experimental, refinement or atomic coordinate data resulting 
# from the CCDC's data processing and validation procedures.
#
#######################################################################

data_YUCHUZ
_symmetry_cell_setting           monoclinic
_symmetry_space_group_name_H-M   'C 2/c'
_symmetry_Int_Tables_number      15
_space_group_name_Hall           '-C 2yn'
loop_
_symmetry_equiv_pos_site_id
_symmetry_equiv_pos_as_xyz
1 x,y,z
2 -x,y,1/2-z
3 1/2+x,1/2+y,z
4 1/2-x,1/2+y,1/2-z
5 -x,-y,-z
6 x,-y,1/2+z
7 1/2-x,1/2-y,-z
8 1/2+x,1/2-y,1/2+z
_cell_length_a                   27.833(5)
_cell_length_b                   5.045(5)
_cell_length_c                   17.072(3)
_cell_angle_alpha                90
_cell_angle_beta                 102.12(1)
_cell_angle_gamma                90
_cell_volume                     2343.77
loop_
_atom_site_label
_atom_site_type_symbol
_atom_site_fract_x
_atom_site_fract_y
_atom_site_fract_z
Cu1 Cu 0.20802(2) 0.3197(2) 0.71445(4)
Cl1 Cl 0.25981(4) 0.5990(3) 0.66875(7)
S1 S 0.15655(4) 0.0521(2) 0.61277(6)
S2 S 0.13383(4) 0.5128(2) 0.73790(6)
S3 S 0.05919(4) 0.2078(3) 0.50638(6)
S4 S 0.03851(4) 0.6044(3) 0.62220(6)
C1 C 0.0203(1) 0.463(1) 0.5263(2)
C2 C 0.1044(1) 0.2562(8) 0.5940(2)
C3 C 0.0946(1) 0.4339(9) 0.6462(2)
C4 C 0.1751(2) 0.054(1) 0.5162(3)
C5 C 0.1838(2) 0.323(1) 0.4846(3)
C6 C 0.1163(2) 0.249(1) 0.8036(3)
C7 C 0.0690(3) 0.263(2) 0.8167(5)
H1 H 0.2050 -0.0477 0.5206
H2 H 0.1503 -0.0321 0.4768
H3 H 0.2094 0.4126 0.5231
H4 H 0.1934 0.3158 0.4352
H5 H 0.1546 0.4288 0.4796
H6 H 0.1199 0.0772 0.7794
H7 H 0.1393 0.2509 0.8544
H8 H 0.0643 0.4358 0.8414
H9 H 0.0450 0.2600 0.7669
H10 H 0.0612 0.1308 0.8508
C1D C -0.0203(1) 0.537(1) 0.4737(2)
S3D S -0.05919(4) 0.7922(3) 0.49362(6)
C2D C -0.1044(1) 0.7438(8) 0.4060(2)
S1D S -0.15655(4) 0.9479(2) 0.38723(6)
C4D C -0.1751(2) 0.946(1) 0.4838(3)
C5D C -0.1838(2) 0.677(1) 0.5154(3)
H3D H -0.2094 0.5874 0.4769
H4D H -0.1934 0.6842 0.5648
H5D H -0.1546 0.5712 0.5204
H1D H -0.2050 1.0477 0.4794
H2D H -0.1503 1.0321 0.5232
C3D C -0.0946(1) 0.5661(9) 0.3538(2)
S2D S -0.13383(4) 0.4872(2) 0.26210(6)
C6D C -0.1163(2) 0.751(1) 0.1964(3)
C7D C -0.0690(3) 0.737(2) 0.1833(5)
H8D H -0.0643 0.5642 0.1586
H9D H -0.0450 0.7400 0.2331
H10D H -0.0612 0.8692 0.1492
H6D H -0.1199 0.9228 0.2206
H7D H -0.1393 0.7491 0.1456
S4D S -0.03851(4) 0.3956(3) 0.37780(6)
Cl1C Cl 0.24019(4) 0.0990(3) 0.83125(7)
Cu1C Cu 0.29198(2) -0.1803(2) 0.78555(4)
Cu1C_2 Cu 0.29198(2) 0.8197(2) 0.78555(4)
Cu1D Cu -0.20802(2) 0.6803(2) 0.28555(4)
Cl1D Cl -0.25981(4) 0.4010(3) 0.33125(7)
Cl1G Cl -0.24019(4) 0.9010(3) 0.16875(7)
loop_
_geom_bond_atom_site_label_1
_geom_bond_atom_site_label_2
_geom_bond_site_symmetry_1
_geom_bond_site_symmetry_2
Cu1 Cl1 1_555 1_555
Cl1 Cu1C_2 1_555 1_555
S1 Cu1 1_555 1_555
S2 Cu1 1_555 1_555
S3 C1 1_555 1_555
S4 C1 1_555 1_555
C1 C1D 1_555 1_555
C2 S1 1_555 1_555
C3 S2 1_555 1_555
C4 S1 1_555 1_555
C5 C4 1_555 1_555
C6 S2 1_555 1_555
C7 C6 1_555 1_555
H1 C4 1_555 1_555
H2 C4 1_555 1_555
H3 C5 1_555 1_555
H4 C5 1_555 1_555
H5 C5 1_555 1_555
H6 C6 1_555 1_555
H7 C6 1_555 1_555
H8 C7 1_555 1_555
H9 C7 1_555 1_555
H10 C7 1_555 1_555
C1D S3D 1_555 1_555
S3D C2D 1_555 1_555
C2D S1D 1_555 1_555
S1D C4D 1_555 1_555
C4D C5D 1_555 1_555
C5D H3D 1_555 1_555
H4D C5D 1_555 1_555
H5D C5D 1_555 1_555
H1D C4D 1_555 1_555
H2D C4D 1_555 1_555
C3D C2D 1_555 1_555
S2D C3D 1_555 1_555
C6D S2D 1_555 1_555
C7D C6D 1_555 1_555
H8D C7D 1_555 1_555
H9D C7D 1_555 1_555
H10D C7D 1_555 1_555
H6D C6D 1_555 1_555
H7D C6D 1_555 1_555
S4D C1D 1_555 1_555
Cl1C Cu1 1_555 1_555
Cu1C Cl1C 1_555 1_555
Cu1D S1D 1_555 1_555
Cl1D Cu1D 1_555 1_555
Cl1G Cu1D 1_555 1_555
S3 C2 1_555 1_555
S4 C3 1_555 1_555
C2 C3 1_555 1_555
C3D S4D 1_555 1_555
S2D Cu1D 1_555 1_555

#END
