
#######################################################################
#
#                 Cambridge Crystallographic Data Centre
#                                CCDC 
#
#######################################################################
#
# If this CIF has been generated from an entry in the Cambridge 
# Structural Database, then it will include bibliographic, chemical, 
# crystal, experimental, refinement or atomic coordinate data resulting 
# from the CCDC's data processing and validation procedures.
#
#######################################################################

data_YUCJUC
_symmetry_cell_setting           monoclinic
_symmetry_space_group_name_H-M   'P 21/n'
_symmetry_Int_Tables_number      14
_space_group_name_Hall           '-P 2yn'
loop_
_symmetry_equiv_pos_site_id
_symmetry_equiv_pos_as_xyz
1 x,y,z
2 1/2-x,1/2+y,1/2-z
3 -x,-y,-z
4 1/2+x,1/2-y,1/2+z
_cell_length_a                   10.7450(4)
_cell_length_b                   12.0948(4)
_cell_length_c                   12.7678(4)
_cell_angle_alpha                90
_cell_angle_beta                 102.533(1)
_cell_angle_gamma                90
_cell_volume                     1619.75
loop_
_atom_site_label
_atom_site_type_symbol
_atom_site_fract_x
_atom_site_fract_y
_atom_site_fract_z
Zn1 Zn 0.93020(2) 0.263823(18) 0.254683(17)
O1 O 0.92937(13) 0.15024(11) 0.36317(11)
O2 O 0.77018(13) 0.07562(11) 0.24420(11)
O3 O 0.73062(14) -0.16637(11) 0.31319(12)
O4 O 0.63461(15) -0.06317(12) 0.41791(12)
N1 N 1.02223(16) 0.39142(13) 0.34042(13)
N2 N 0.97822(16) 0.49668(13) 0.33789(13)
H1 H 0.9025 0.5177 0.3021
N3 N 1.46944(16) 0.70921(14) 0.35111(14)
N4 N 1.47016(16) 0.77329(13) 0.43798(14)
H2 H 1.5058 0.8391 0.4478
C1 C 1.06447(19) 0.56473(16) 0.39682(15)
C2 C 1.17080(18) 0.50148(16) 0.44000(15)
C3 C 1.13994(19) 0.39407(16) 0.40258(16)
C4 C 1.2932(2) 0.53889(17) 0.51267(17)
H3 H 1.2733 0.5703 0.5788
H4 H 1.3485 0.4736 0.5337
C5 C 1.36593(18) 0.62358(16) 0.46374(16)
C6 C 1.4052(2) 0.61702(16) 0.36611(16)
C7 C 1.41015(19) 0.72462(16) 0.50735(17)
C8 C 1.0395(2) 0.68548(16) 0.40598(17)
H5 H 0.9494 0.7009 0.3754
H6 H 1.0928 0.7276 0.3668
H7 H 1.0600 0.7072 0.4817
C9 C 1.2185(2) 0.29117(17) 0.4232(2)
H8 H 1.1625 0.2264 0.4100
H9 H 1.2662 0.2906 0.4979
H10 H 1.2783 0.2891 0.3752
C10 C 1.3853(2) 0.52516(18) 0.28574(18)
H11 H 1.4130 0.5492 0.2211
H12 H 1.2947 0.5055 0.2671
H13 H 1.4353 0.4606 0.3164
C11 C 1.4044(2) 0.77743(19) 0.61158(19)
H14 H 1.4825 0.7605 0.6647
H15 H 1.3305 0.7489 0.6366
H16 H 1.3963 0.8577 0.6020
C12 C 0.84574(18) 0.07474(15) 0.33185(16)
C13 C 0.8478(2) -0.01934(17) 0.41093(17)
H17 H 0.9232 -0.0666 0.4118
H18 H 0.8547 0.0111 0.4839
C14 C 0.7278(2) -0.08823(16) 0.38033(16)
Zn1A Zn 0.56980(2) -0.236177(18) 0.245317(17)
Zn1A_2 Zn 1.56980(2) 0.763823(18) 0.245317(17)
O3A O 0.76938(14) 0.33363(11) 0.18681(12)
N3A N 1.03056(16) 0.20921(14) 0.14889(14)
O5 O 1.127(2) 0.537(2) 0.1314(19)
loop_
_geom_bond_atom_site_label_1
_geom_bond_atom_site_label_2
_geom_bond_site_symmetry_1
_geom_bond_site_symmetry_2
Zn1 O1 1_555 1_555
O1 C12 1_555 1_555
O2 C12 1_555 1_555
O3 C14 1_555 1_555
O4 C14 1_555 1_555
N1 Zn1 1_555 1_555
N2 N1 1_555 1_555
H1 N2 1_555 1_555
N3 N4 1_555 1_555
N4 H2 1_555 1_555
C1 N2 1_555 1_555
C2 C1 1_555 1_555
C3 N1 1_555 1_555
C4 C2 1_555 1_555
H3 C4 1_555 1_555
H4 C4 1_555 1_555
C5 C4 1_555 1_555
C6 N3 1_555 1_555
C7 N4 1_555 1_555
C8 C1 1_555 1_555
H5 C8 1_555 1_555
H6 C8 1_555 1_555
H7 C8 1_555 1_555
C9 C3 1_555 1_555
H8 C9 1_555 1_555
H9 C9 1_555 1_555
H10 C9 1_555 1_555
C10 C6 1_555 1_555
H11 C10 1_555 1_555
H12 C10 1_555 1_555
H13 C10 1_555 1_555
C11 C7 1_555 1_555
H14 C11 1_555 1_555
H15 C11 1_555 1_555
H16 C11 1_555 1_555
C12 C13 1_555 1_555
C13 H17 1_555 1_555
H18 C13 1_555 1_555
C14 C13 1_555 1_555
Zn1A O3 1_555 1_555
Zn1A_2 N3 1_555 1_555
O3A Zn1 1_555 1_555
N3A Zn1 1_555 1_555
C2 C3 1_555 1_555
C5 C6 1_555 1_555
C5 C7 1_555 1_555

#END
