
#######################################################################
#
#                 Cambridge Crystallographic Data Centre
#                                CCDC 
#
#######################################################################
#
# If this CIF has been generated from an entry in the Cambridge 
# Structural Database, then it will include bibliographic, chemical, 
# crystal, experimental, refinement or atomic coordinate data resulting 
# from the CCDC's data processing and validation procedures.
#
#######################################################################

data_YUCJOW
_symmetry_cell_setting           orthorhombic
_symmetry_space_group_name_H-M   'P b c a'
_symmetry_Int_Tables_number      61
_space_group_name_Hall           '-P 2ac 2ab'
loop_
_symmetry_equiv_pos_site_id
_symmetry_equiv_pos_as_xyz
1 x,y,z
2 1/2-x,-y,1/2+z
3 -x,1/2+y,1/2-z
4 1/2+x,1/2-y,-z
5 -x,-y,-z
6 1/2+x,y,1/2-z
7 x,1/2-y,1/2+z
8 1/2-x,1/2+y,z
_cell_length_a                   15.5048(4)
_cell_length_b                   9.8540(2)
_cell_length_c                   24.3284(6)
_cell_angle_alpha                90
_cell_angle_beta                 90
_cell_angle_gamma                90
_cell_volume                     3717
loop_
_atom_site_label
_atom_site_type_symbol
_atom_site_fract_x
_atom_site_fract_y
_atom_site_fract_z
Zn1 Zn 0.006054(16) 0.20159(3) 0.623474(10)
N1 N -0.00559(12) 0.4036(2) 0.63133(8)
N2 N -0.01507(12) 0.8352(2) 0.45756(8)
N3 N 0.05914(13) 0.8590(2) 0.48462(7)
C1 C -0.03580(15) 0.6257(2) 0.62379(8)
C2 C -0.03313(15) 0.7959(2) 0.54761(9)
C3 C -0.05010(15) 0.4962(2) 0.60277(9)
C4 C 0.05113(15) 0.8359(2) 0.53849(9)
N4 N 0.03711(15) 0.4743(2) 0.67066(9)
C5 C -0.07233(15) 0.7966(2) 0.49609(9)
C6 C 0.02032(16) 0.6072(3) 0.66770(9)
C7 C -0.36589(17) 0.1646(3) 0.79274(10)
O1 O -0.09419(12) 0.1121(2) 0.65330(7)
C8 C -0.22590(18) 0.0100(3) 0.67593(10)
C9 C -0.16566(16) 0.0717(2) 0.63435(9)
C10 C -0.3190(2) 0.0607(3) 0.75810(11)
C11 C -0.26785(17) 0.1194(2) 0.71121(10)
O2 O -0.18652(12) 0.0805(2) 0.58581(7)
O3 O -0.36884(17) 0.2829(2) 0.77787(10)
C12 C 0.0593(3) 0.7050(3) 0.70732(14)
C13 C -0.07151(17) 0.7564(3) 0.60203(10)
O4 O -0.40270(13) 0.11817(19) 0.83540(7)
C14 C 0.12500(18) 0.8536(3) 0.57658(12)
C15 C -0.1074(2) 0.4561(3) 0.55639(13)
C16 C -0.16343(17) 0.7680(3) 0.48011(12)
H1 H -0.1695 0.7775 0.4410
H2 H -0.1783 0.6771 0.4907
H3 H -0.2011 0.8310 0.4983
H4 H -0.2267(16) 0.177(2) 0.7234(10)
H5 H -0.3029(16) 0.173(2) 0.6896(10)
H6 H -0.1318(16) 0.749(2) 0.5979(9)
H7 H -0.0619(16) 0.824(2) 0.6280(10)
H8 H -0.1924(16) -0.055(3) 0.6986(10)
H9 H -0.2838(18) 0.012(3) 0.7802(12)
H10 H -0.2701(18) -0.043(3) 0.6580(12)
H11 H 0.116(2) 0.724(3) 0.6966(14)
H12 H -0.077(2) 0.462(3) 0.5249(14)
H13 H 0.142(2) 0.769(4) 0.5881(13)
H14 H 0.1022(16) 0.880(3) 0.4666(10)
H15 H -0.125(2) 0.373(4) 0.5586(13)
H16 H -0.362(2) -0.013(3) 0.7455(12)
H17 H 0.169(2) 0.891(3) 0.5576(13)
H18 H 0.060(2) 0.667(4) 0.7428(16)
H19 H 0.0684(19) 0.428(3) 0.6915(12)
H20 H 0.113(2) 0.910(3) 0.6076(15)
H21 H -0.159(2) 0.510(3) 0.5575(12)
H22 H 0.031(3) 0.787(4) 0.7069(17)
Zn1D Zn -0.006054(16) 0.79841(3) 0.376526(10)
Zn1E Zn -0.493946(16) 0.20159(3) 0.876526(10)
N2D N 0.01507(12) 0.1648(2) 0.54244(8)
O4E O 0.09730(13) 0.11817(19) 0.66460(7)
loop_
_geom_bond_atom_site_label_1
_geom_bond_atom_site_label_2
_geom_bond_site_symmetry_1
_geom_bond_site_symmetry_2
Zn1 N1 1_555 1_555
N1 C3 1_555 1_555
N2 N3 1_555 1_555
N3 C4 1_555 1_555
C1 C3 1_555 1_555
C2 C4 1_555 1_555
C3 C15 1_555 1_555
C4 C14 1_555 1_555
N4 N1 1_555 1_555
C5 N2 1_555 1_555
C6 C1 1_555 1_555
C7 C10 1_555 1_555
O1 Zn1 1_555 1_555
C8 C9 1_555 1_555
C9 O1 1_555 1_555
C10 C11 1_555 1_555
C11 C8 1_555 1_555
O2 C9 1_555 1_555
O3 C7 1_555 1_555
C12 C6 1_555 1_555
C13 C1 1_555 1_555
O4 C7 1_555 1_555
C14 H13 1_555 1_555
C15 H12 1_555 1_555
C16 C5 1_555 1_555
H1 C16 1_555 1_555
H2 C16 1_555 1_555
H3 C16 1_555 1_555
H4 C11 1_555 1_555
H5 C11 1_555 1_555
H6 C13 1_555 1_555
H7 C13 1_555 1_555
H8 C8 1_555 1_555
H9 C10 1_555 1_555
H10 C8 1_555 1_555
H11 C12 1_555 1_555
H14 N3 1_555 1_555
H15 C15 1_555 1_555
H16 C10 1_555 1_555
H17 C14 1_555 1_555
H18 C12 1_555 1_555
H19 N4 1_555 1_555
H20 C14 1_555 1_555
H21 C15 1_555 1_555
H22 C12 1_555 1_555
Zn1D N2 1_555 1_555
Zn1E O4 1_555 1_555
N2D Zn1 1_555 1_555
O4E Zn1 1_555 1_555
C2 C5 1_555 1_555
C2 C13 1_555 1_555
N4 C6 1_555 1_555

#END
