
#######################################################################
#
#                 Cambridge Crystallographic Data Centre
#                                CCDC 
#
#######################################################################
#
# If this CIF has been generated from an entry in the Cambridge 
# Structural Database, then it will include bibliographic, chemical, 
# crystal, experimental, refinement or atomic coordinate data resulting 
# from the CCDC's data processing and validation procedures.
#
#######################################################################

data_YUCKEO
_symmetry_cell_setting           orthorhombic
_symmetry_space_group_name_H-M   'P b c n'
_symmetry_Int_Tables_number      60
_space_group_name_Hall           '-P 2n 2ab'
loop_
_symmetry_equiv_pos_site_id
_symmetry_equiv_pos_as_xyz
1 x,y,z
2 1/2-x,1/2-y,1/2+z
3 -x,y,1/2-z
4 1/2+x,1/2-y,-z
5 -x,-y,-z
6 1/2+x,1/2+y,1/2-z
7 x,-y,1/2+z
8 1/2-x,1/2+y,z
_cell_length_a                   20.9965(17)
_cell_length_b                   12.7614(10)
_cell_length_c                   23.8049(15)
_cell_angle_alpha                90
_cell_angle_beta                 90
_cell_angle_gamma                90
_cell_volume                     6378.4
loop_
_atom_site_label
_atom_site_type_symbol
_atom_site_fract_x
_atom_site_fract_y
_atom_site_fract_z
Mn1 Mn 0.11645(5) 0.90524(7) 0.89789(4)
N1 N 0.0975(3) 0.8043(5) 0.8187(2)
C1 C 0.1084(3) 0.6996(5) 0.8156(3)
H1 H 0.1239 0.6643 0.8485
C2 C 0.0983(4) 0.6411(6) 0.7676(3)
H2 H 0.1032 0.5663 0.7682
C3 C 0.0807(3) 0.6927(5) 0.7178(3)
C4 C 0.0711(3) 0.7987(5) 0.7210(3)
H3 H 0.0581 0.8368 0.6881
C5 C 0.0800(3) 0.8510(6) 0.7712(3)
H4 H 0.0732 0.9254 0.7718
C6 C 0.0727(3) 0.6325(5) 0.6640(2)
C7 C 0.0526(4) 0.6871(6) 0.6117(3)
H5 H 0.0752 0.6584 0.5802
H6 H 0.0619 0.7605 0.6149
H7 H 0.0076 0.6776 0.6062
N2 N 0.0859(3) 0.5345(5) 0.6663(2)
N3 N 0.0862(3) 0.4805(5) 0.6155(2)
C8 C 0.0486(3) 0.4032(5) 0.6097(2)
C9 C -0.0007(4) 0.3702(7) 0.6517(3)
H8 H -0.0015 0.4194 0.6822
H9 H 0.0097 0.3019 0.6659
H10 H -0.0417 0.3683 0.6340
C10 C 0.0575(3) 0.3411(5) 0.5573(3)
C11 C 0.0173(3) 0.2589(6) 0.5427(3)
H11 H -0.0193 0.2431 0.5653
C12 C 0.0306(3) 0.2000(6) 0.4952(3)
H12 H 0.0017 0.1448 0.4851
N4 N 0.0820(3) 0.2161(4) 0.4623(2)
C13 C 0.1185(4) 0.2990(6) 0.4754(3)
H13 H 0.1538 0.3150 0.4513
C14 C 0.1085(4) 0.3619(6) 0.5210(3)
H14 H 0.1363 0.4202 0.5281
N5 N 0.1519(3) 1.0294(4) 0.8345(2)
C15 C 0.1252(4) 1.1233(6) 0.8295(3)
H15 H 0.0893 1.1393 0.8530
C16 C 0.1459(4) 1.1980(6) 0.7932(3)
H16 H 0.1252 1.2651 0.7920
C17 C 0.1969(3) 1.1772(5) 0.7577(3)
C18 C 0.2246(4) 1.0794(6) 0.7621(3)
H17 H 0.2604 1.0613 0.7389
C19 C 0.2004(3) 1.0076(6) 0.8002(3)
H18 H 0.2194 0.9392 0.8021
C20 C 0.2188(3) 1.2540(5) 0.7145(3)
C21 C 0.1828(4) 1.3534(7) 0.7061(4)
H19 H 0.2042 1.3960 0.6788
H20 H 0.1802 1.3907 0.7411
H21 H 0.1406 1.3375 0.6930
N6 N 0.2662(3) 1.2241(5) 0.6851(2)
N7 N 0.2875(3) 1.2938(5) 0.6446(2)
C22 C 0.2830(3) 1.2636(6) 0.5936(3)
C23 C 0.2539(6) 1.1611(7) 0.5775(4)
H22 H 0.2687 1.1074 0.6025
H23 H 0.2659 1.1439 0.5397
H24 H 0.2083 1.1661 0.5800
C24 C 0.3072(3) 1.3377(6) 0.5510(3)
C25 C 0.3488(4) 1.4182(6) 0.5641(3)
H25 H 0.3627 1.4278 0.6022
C26 C 0.3702(4) 1.4848(6) 0.5223(3)
H26 H 0.3995 1.5393 0.5327
N8 N 0.3528(3) 1.4784(5) 0.4689(2)
C27 C 0.3084(4) 1.4047(7) 0.4574(3)
H27 H 0.2904 1.4035 0.4204
C28 C 0.2870(4) 1.3311(8) 0.4957(3)
H28 H 0.2587 1.2762 0.4841
N9 N 0.0217(3) 0.9728(5) 0.8933(2)
C29 C -0.0160(3) 1.0209(5) 0.8678(3)
S1 S -0.06865(11) 1.08748(17) 0.83266(9)
N10 N 0.2136(3) 0.8432(5) 0.9020(3)
C30 C 0.2657(4) 0.8750(7) 0.9052(4)
S2 S 0.33741(13) 0.9209(3) 0.90990(19)
Mn1A Mn 0.38355(5) 1.59476(7) 0.39789(4)
Mn1F Mn 0.11645(5) 0.09476(7) 0.39789(4)
N4F N 0.0820(3) 0.7839(4) 0.9623(2)
N8A N 0.1472(3) 1.0216(5) 0.9689(2)
loop_
_geom_bond_atom_site_label_1
_geom_bond_atom_site_label_2
_geom_bond_site_symmetry_1
_geom_bond_site_symmetry_2
Mn1 N1 1_555 1_555
N1 C1 1_555 1_555
C1 H1 1_555 1_555
C2 C1 1_555 1_555
H2 C2 1_555 1_555
C3 C2 1_555 1_555
C4 C3 1_555 1_555
H3 C4 1_555 1_555
C5 N1 1_555 1_555
H4 C5 1_555 1_555
C6 C3 1_555 1_555
C7 C6 1_555 1_555
H5 C7 1_555 1_555
H6 C7 1_555 1_555
H7 C7 1_555 1_555
N2 C6 1_555 1_555
N3 N2 1_555 1_555
C8 N3 1_555 1_555
C9 C8 1_555 1_555
H8 C9 1_555 1_555
H9 C9 1_555 1_555
H10 C9 1_555 1_555
C10 C8 1_555 1_555
C11 C10 1_555 1_555
H11 C11 1_555 1_555
C12 C11 1_555 1_555
H12 C12 1_555 1_555
N4 C12 1_555 1_555
C13 N4 1_555 1_555
H13 C13 1_555 1_555
C14 C10 1_555 1_555
H14 C14 1_555 1_555
N5 Mn1 1_555 1_555
C15 N5 1_555 1_555
H15 C15 1_555 1_555
C16 C15 1_555 1_555
H16 C16 1_555 1_555
C17 C16 1_555 1_555
C18 C17 1_555 1_555
H17 C18 1_555 1_555
C19 N5 1_555 1_555
H18 C19 1_555 1_555
C20 C17 1_555 1_555
C21 C20 1_555 1_555
H19 C21 1_555 1_555
H20 C21 1_555 1_555
H21 C21 1_555 1_555
N6 C20 1_555 1_555
N7 N6 1_555 1_555
C22 N7 1_555 1_555
C23 C22 1_555 1_555
H22 C23 1_555 1_555
H23 C23 1_555 1_555
H24 C23 1_555 1_555
C24 C22 1_555 1_555
C25 C24 1_555 1_555
H25 C25 1_555 1_555
C26 C25 1_555 1_555
H26 C26 1_555 1_555
N8 C26 1_555 1_555
C27 N8 1_555 1_555
H27 C27 1_555 1_555
C28 C24 1_555 1_555
H28 C28 1_555 1_555
N9 Mn1 1_555 1_555
C29 N9 1_555 1_555
S1 C29 1_555 1_555
N10 Mn1 1_555 1_555
C30 N10 1_555 1_555
S2 C30 1_555 1_555
Mn1A N8 1_555 1_555
Mn1F N4 1_555 1_555
N4F Mn1 1_555 1_555
N8A Mn1 1_555 1_555
C4 C5 1_555 1_555
C13 C14 1_555 1_555
C18 C19 1_555 1_555
C27 C28 1_555 1_555

#END
