
#######################################################################
#
#                 Cambridge Crystallographic Data Centre
#                                CCDC 
#
#######################################################################
#
# If this CIF has been generated from an entry in the Cambridge 
# Structural Database, then it will include bibliographic, chemical, 
# crystal, experimental, refinement or atomic coordinate data resulting 
# from the CCDC's data processing and validation procedures.
#
#######################################################################

data_YUCKIS
_symmetry_cell_setting           orthorhombic
_symmetry_space_group_name_H-M   'P b c a'
_symmetry_Int_Tables_number      61
_space_group_name_Hall           '-P 2ac 2ab'
loop_
_symmetry_equiv_pos_site_id
_symmetry_equiv_pos_as_xyz
1 x,y,z
2 1/2-x,-y,1/2+z
3 -x,1/2+y,1/2-z
4 1/2+x,1/2-y,-z
5 -x,-y,-z
6 1/2+x,y,1/2-z
7 x,1/2-y,1/2+z
8 1/2-x,1/2+y,z
_cell_length_a                   7.5717(2)
_cell_length_b                   21.0577(5)
_cell_length_c                   36.3949(9)
_cell_angle_alpha                90
_cell_angle_beta                 90
_cell_angle_gamma                90
_cell_volume                     5802.9
loop_
_atom_site_label
_atom_site_type_symbol
_atom_site_fract_x
_atom_site_fract_y
_atom_site_fract_z
Mn1 Mn 0.00051(3) 0.135629(10) 0.126603(6)
N1 N 0.13765(19) 0.04644(6) 0.14774(4)
N2 N 0.36382(18) -0.12827(6) 0.23028(4)
N3 N 0.47808(19) -0.16870(7) 0.24825(4)
H1 H 0.580(3) -0.1717(11) 0.2410(6)
N4 N 0.79485(19) -0.30750(6) 0.34020(4)
N5 N -0.09241(18) 0.23154(6) 0.10479(3)
N6 N -0.2078(2) 0.43480(6) 0.03401(4)
H2 H -0.167(3) 0.4097(10) 0.0197(5)
N7 N -0.26010(19) 0.49385(6) 0.02163(4)
N8 N -0.3666(2) 0.67484(7) -0.06828(4)
N9 N 0.1907(2) 0.13671(7) 0.07958(4)
N10 N -0.1763(2) 0.13721(8) 0.17233(4)
O1 O 0.28192(16) -0.18340(6) 0.29399(3)
O2 O -0.2831(2) 0.45765(6) 0.09281(3)
O3 O -0.1905(2) 0.08738(7) 0.09137(4)
H3 H -0.266(4) 0.1061(13) 0.0808(7)
H4 H -0.189(4) 0.0480(15) 0.0873(8)
S1 S 0.49772(6) 0.15001(2) 0.037134(12)
S2 S -0.37320(9) 0.07899(3) 0.227613(14)
C1 C 0.0567(2) 0.00513(8) 0.17038(5)
H5 H -0.0676 0.0084 0.1735
C2 C 0.1462(2) -0.04201(8) 0.18941(5)
H6 H 0.0843 -0.0698 0.2054
C3 C 0.3276(2) -0.04804(7) 0.18471(4)
C4 C 0.4115(2) -0.00643(8) 0.16063(4)
H7 H 0.5348 -0.0098 0.1562
C5 C 0.3119(2) 0.03997(8) 0.14325(5)
H8 H 0.3708 0.0687 0.1273
C6 C 0.4349(2) -0.09387(8) 0.20516(4)
H9 H 0.5572 -0.0982 0.1998
C7 C 0.4268(2) -0.19362(7) 0.28029(4)
C8 C 0.5593(2) -0.23421(7) 0.29975(4)
C9 C 0.5716(2) -0.22755(8) 0.33766(4)
H10 H 0.4991 -0.1979 0.3503
C10 C 0.6907(2) -0.26464(8) 0.35675(4)
H11 H 0.6992 -0.2596 0.3826
C11 C 0.7807(2) -0.31438(8) 0.30358(4)
H12 H 0.8527 -0.3451 0.2917
C12 C 0.6654(2) -0.27854(8) 0.28241(4)
H13 H 0.6594 -0.2843 0.2566
C13 C -0.1334(2) 0.27765(8) 0.12852(4)
H14 H -0.1332 0.2680 0.1540
C14 C -0.1763(2) 0.33887(7) 0.11778(4)
H15 H -0.2031 0.3704 0.1356
C15 C -0.1794(2) 0.35336(7) 0.08055(4)
C16 C -0.1411(3) 0.30538(8) 0.05580(4)
H16 H -0.1444 0.3132 0.0301
C17 C -0.0978(2) 0.24581(7) 0.06907(4)
H17 H -0.0704 0.2134 0.0519
C18 C -0.2283(2) 0.41999(7) 0.06998(4)
C19 C -0.2394(3) 0.50237(8) -0.01268(5)
H18 H -0.1913 0.4690 -0.0271
C20 C -0.2876(2) 0.56232(7) -0.03055(4)
C21 C -0.3670(2) 0.61298(8) -0.01260(5)
H19 H -0.3962 0.6102 0.0127
C22 C -0.4027(3) 0.66766(8) -0.03240(5)
H20 H -0.4561 0.7022 -0.0198
C23 C -0.2922(3) 0.62576(9) -0.08511(5)
H21 H -0.2662 0.6297 -0.1105
C24 C -0.2502(3) 0.56930(9) -0.06781(5)
H22 H -0.1965 0.5357 -0.0812
C25 C 0.3174(2) 0.14320(7) 0.06213(4)
C26 C -0.2593(2) 0.11319(9) 0.19555(5)
Mn1B Mn 0.99949(3) -0.364371(10) 0.373397(6)
N4B N 0.20515(19) 0.19250(6) 0.15980(4)
loop_
_geom_bond_atom_site_label_1
_geom_bond_atom_site_label_2
_geom_bond_site_symmetry_1
_geom_bond_site_symmetry_2
Mn1 N1 1_555 1_555
N1 C1 1_555 1_555
N2 N3 1_555 1_555
N3 H1 1_555 1_555
N4 C10 1_555 1_555
N5 Mn1 1_555 1_555
N6 H2 1_555 1_555
N7 N6 1_555 1_555
N8 C22 1_555 1_555
N9 Mn1 1_555 1_555
N10 Mn1 1_555 1_555
O1 C7 1_555 1_555
O2 C18 1_555 1_555
O3 Mn1 1_555 1_555
H3 O3 1_555 1_555
H4 O3 1_555 1_555
S1 C25 1_555 1_555
S2 C26 1_555 1_555
C1 H5 1_555 1_555
C2 C1 1_555 1_555
H6 C2 1_555 1_555
C3 C2 1_555 1_555
C4 C3 1_555 1_555
H7 C4 1_555 1_555
C5 N1 1_555 1_555
H8 C5 1_555 1_555
C6 N2 1_555 1_555
H9 C6 1_555 1_555
C7 N3 1_555 1_555
C8 C7 1_555 1_555
C9 C8 1_555 1_555
H10 C9 1_555 1_555
C10 C9 1_555 1_555
H11 C10 1_555 1_555
C11 N4 1_555 1_555
H12 C11 1_555 1_555
C12 C8 1_555 1_555
H13 C12 1_555 1_555
C13 N5 1_555 1_555
H14 C13 1_555 1_555
C14 C13 1_555 1_555
H15 C14 1_555 1_555
C15 C14 1_555 1_555
C16 C15 1_555 1_555
H16 C16 1_555 1_555
C17 N5 1_555 1_555
H17 C17 1_555 1_555
C18 N6 1_555 1_555
C19 N7 1_555 1_555
H18 C19 1_555 1_555
C20 C19 1_555 1_555
C21 C20 1_555 1_555
H19 C21 1_555 1_555
C22 C21 1_555 1_555
H20 C22 1_555 1_555
C23 N8 1_555 1_555
H21 C23 1_555 1_555
C24 C20 1_555 1_555
H22 C24 1_555 1_555
C25 N9 1_555 1_555
C26 N10 1_555 1_555
Mn1B N4 1_555 1_555
N4B Mn1 1_555 1_555
C3 C6 1_555 1_555
C4 C5 1_555 1_555
C11 C12 1_555 1_555
C15 C18 1_555 1_555
C16 C17 1_555 1_555
C23 C24 1_555 1_555

#END
