
#######################################################################
#
#                 Cambridge Crystallographic Data Centre
#                                CCDC 
#
#######################################################################
#
# If this CIF has been generated from an entry in the Cambridge 
# Structural Database, then it will include bibliographic, chemical, 
# crystal, experimental, refinement or atomic coordinate data resulting 
# from the CCDC's data processing and validation procedures.
#
#######################################################################

data_YUCMUF
_symmetry_cell_setting           triclinic
_symmetry_space_group_name_H-M   'P -1'
_symmetry_Int_Tables_number      2
_space_group_name_Hall           '-P 1'
loop_
_symmetry_equiv_pos_site_id
_symmetry_equiv_pos_as_xyz
1 x,y,z
2 -x,-y,-z
_cell_length_a                   10.4112(5)
_cell_length_b                   11.5745(5)
_cell_length_c                   19.1907(9)
_cell_angle_alpha                96.319(4)
_cell_angle_beta                 93.869(5)
_cell_angle_gamma                100.628(4)
_cell_volume                     2249.95
loop_
_atom_site_label
_atom_site_type_symbol
_atom_site_fract_x
_atom_site_fract_y
_atom_site_fract_z
C1 C 0.2626(4) 0.3646(4) 0.5233(2)
C2 C 0.2869(3) 0.3098(3) 0.45137(19)
C3 C 0.3643(4) 0.3798(4) 0.4111(2)
H1 H 0.4072 0.4553 0.4305
C4 C 0.3796(4) 0.3392(4) 0.3412(2)
H2 H 0.4352 0.3871 0.3155
C5 C 0.3147(4) 0.2308(4) 0.31005(19)
C6 C 0.3308(5) 0.1920(4) 0.2336(2)
C7 C 0.2391(4) 0.1540(3) 0.35079(19)
C8 C 0.1765(4) 0.0361(4) 0.3232(2)
H3 H 0.1796 0.0108 0.2758
C9 C 0.1127(4) -0.0403(4) 0.3637(2)
H4 H 0.0715 -0.1162 0.3439
C10 C 0.1090(4) -0.0044(4) 0.4353(2)
H5 H 0.0698 -0.0582 0.4638
C11 C 0.1621(4) 0.1084(4) 0.4638(2)
H6 H 0.1555 0.1312 0.5112
C12 C 0.2271(3) 0.1920(3) 0.42316(19)
C13 C 0.3942(4) 0.2548(4) 1.02233(19)
C14 C 0.3324(3) 0.2869(3) 0.95569(18)
C15 C 0.4038(4) 0.3724(4) 0.9233(2)
H7 H 0.4835 0.4147 0.9453
C16 C 0.3590(4) 0.3981(4) 0.8565(2)
H8 H 0.4086 0.4586 0.8360
C17 C 0.2454(4) 0.3362(4) 0.8218(2)
C18 C 0.2046(5) 0.3659(6) 0.7490(3)
C19 C 0.1625(4) 0.2497(3) 0.85628(19)
C20 C 0.0360(4) 0.1912(4) 0.8257(2)
H9 H 0.0093 0.2008 0.7798
C21 C -0.0468(4) 0.1210(4) 0.8628(2)
H10 H -0.1293 0.0828 0.8423
C22 C -0.0072(4) 0.1068(4) 0.9317(2)
H11 H -0.0650 0.0616 0.9576
C23 C 0.1147(4) 0.1582(3) 0.9614(2)
H12 H 0.1395 0.1465 1.0071
C24 C 0.2049(3) 0.2290(3) 0.92427(19)
C25 C 0.7383(4) 0.2540(3) 0.15535(19)
H13 H 0.7109 0.3239 0.1704
C26 C 0.7387(4) 0.0760(3) 0.11086(19)
H14 H 0.7104 -0.0013 0.0891
C27 C 0.8634(4) 0.1259(4) 0.1338(2)
H15 H 0.9363 0.0903 0.1309
C28 C 0.9778(4) 0.3254(4) 0.1959(2)
H16 H 1.0411 0.2827 0.2150
H17 H 0.9510 0.3735 0.2349
C29 C 1.0433(4) 0.4059(3) 0.1467(2)
C30 C 0.9818(4) 0.4899(4) 0.1200(2)
H18 H 0.8955 0.4916 0.1290
C31 C 1.0448(4) 0.5704(3) 0.0808(2)
H19 H 1.0012 0.6258 0.0633
C32 C 1.1730(4) 0.5699(3) 0.06681(19)
C33 C 1.2333(4) 0.4839(4) 0.0904(2)
H20 H 1.3185 0.4810 0.0796
C34 C 1.1706(4) 0.4024(3) 0.1293(2)
H21 H 1.2130 0.3443 0.1443
C35 C 1.2479(4) 0.6655(3) 0.0295(2)
H22 H 1.3120 0.6333 0.0028
H23 H 1.1876 0.6915 -0.0035
C36 C 1.3479(4) 0.8788(3) 0.06507(19)
H24 H 1.3297 0.9020 0.0212
C37 C 1.4127(4) 0.8816(4) 0.1728(2)
H25 H 1.4488 0.9082 0.2187
C38 C 1.3572(4) 0.7693(4) 0.1486(2)
H26 H 1.3485 0.7047 0.1739
C39 C -0.1608(4) 0.3296(4) 0.5787(2)
H27 H -0.1389 0.3109 0.5332
C40 C -0.1474(4) 0.3919(4) 0.6870(2)
H28 H -0.1141 0.4245 0.7325
C41 C -0.2746(4) 0.3482(5) 0.6666(2)
H29 H -0.3442 0.3466 0.6947
C42 C -0.4026(4) 0.2510(4) 0.5520(2)
H30 H -0.3791 0.2161 0.5075
H31 H -0.4530 0.3109 0.5423
C43 C -0.4853(4) 0.1565(4) 0.5865(2)
C44 C -0.4556(4) 0.0454(4) 0.5854(2)
H32 H -0.3867 0.0266 0.5609
C45 C -0.5281(5) -0.0383(4) 0.6207(2)
H33 H -0.5071 -0.1131 0.6198
C46 C -0.6316(4) -0.0125(4) 0.6573(2)
C47 C -0.6602(4) 0.0979(4) 0.6577(2)
H34 H -0.7300 0.1162 0.6817
C48 C -0.5889(4) 0.1820(4) 0.6238(2)
H35 H -0.6097 0.2570 0.6256
C49 C -0.7005(5) -0.0992(4) 0.7018(2)
H36 H -0.6354 -0.1214 0.7336
H37 H -0.7574 -0.0602 0.7302
C50 C -0.7537(4) -0.3163(4) 0.6613(2)
H38 H -0.6779 -0.3332 0.6830
C51 C -0.9397(4) -0.3331(4) 0.6034(2)
H39 H -1.0188 -0.3659 0.5770
C52 C -0.8975(4) -0.2183(4) 0.6244(2)
H40 H -0.9405 -0.1570 0.6155
N1 N 0.6596(3) 0.1573(3) 0.12458(15)
N2 N 0.8624(3) 0.2393(3) 0.16229(15)
N3 N 1.3158(3) 0.7682(3) 0.07956(16)
N4 N 1.4084(3) 0.9518(3) 0.11971(16)
N5 N -0.0744(3) 0.3814(3) 0.63125(17)
N6 N -0.2822(3) 0.3068(3) 0.59723(17)
N7 N -0.7797(3) -0.2080(3) 0.66147(16)
N8 N -0.8493(3) -0.3961(3) 0.62635(16)
O1 O 0.1452(3) 0.3404(3) 0.53991(13)
O2 O 0.3522(3) 0.4298(3) 0.56122(15)
O3 O 0.2339(3) 0.1529(3) 0.19147(14)
O4 O 0.4494(3) 0.2037(3) 0.21793(13)
O5 O 0.3688(2) 0.1459(2) 1.03180(13)
O6 O 0.4696(3) 0.3310(3) 1.06274(14)
O7 O 0.2240(5) 0.4703(4) 0.7396(2)
O8 O 0.1547(4) 0.2877(4) 0.70194(18)
Zn1 Zn 0.12582(4) 0.42540(4) 0.63090(2)
Zn2 Zn 0.46017(4) 0.13060(4) 0.12193(2)
N4_2 N 0.4084(3) -0.0482(3) 0.11971(16)
N8_2 N 0.1507(3) 0.6039(3) 0.62635(16)
O5_2 O 0.3688(2) 0.1459(2) 0.03180(13)
Zn1_2 Zn -0.87418(4) -0.57460(4) 0.63090(2)
Zn2_2 Zn 0.46017(4) 0.13060(4) 1.12193(2)
Zn2_3 Zn 1.46017(4) 1.13060(4) 0.12193(2)
loop_
_geom_bond_atom_site_label_1
_geom_bond_atom_site_label_2
_geom_bond_site_symmetry_1
_geom_bond_site_symmetry_2
C1 C2 1_555 1_555
C2 C3 1_555 1_555
C3 H1 1_555 1_555
C4 C3 1_555 1_555
H2 C4 1_555 1_555
C5 C4 1_555 1_555
C6 C5 1_555 1_555
C7 C5 1_555 1_555
C8 C7 1_555 1_555
H3 C8 1_555 1_555
C9 C8 1_555 1_555
H4 C9 1_555 1_555
C10 C9 1_555 1_555
H5 C10 1_555 1_555
C11 C10 1_555 1_555
H6 C11 1_555 1_555
C12 C2 1_555 1_555
C13 C14 1_555 1_555
C14 C15 1_555 1_555
C15 H7 1_555 1_555
C16 C15 1_555 1_555
H8 C16 1_555 1_555
C17 C16 1_555 1_555
C18 C17 1_555 1_555
C19 C17 1_555 1_555
C20 C19 1_555 1_555
H9 C20 1_555 1_555
C21 C20 1_555 1_555
H10 C21 1_555 1_555
C22 C21 1_555 1_555
H11 C22 1_555 1_555
C23 C22 1_555 1_555
H12 C23 1_555 1_555
C24 C14 1_555 1_555
C25 H13 1_555 1_555
C26 H14 1_555 1_555
C27 C26 1_555 1_555
H15 C27 1_555 1_555
C28 H16 1_555 1_555
H17 C28 1_555 1_555
C29 C28 1_555 1_555
C30 C29 1_555 1_555
H18 C30 1_555 1_555
C31 C30 1_555 1_555
H19 C31 1_555 1_555
C32 C31 1_555 1_555
C33 C32 1_555 1_555
H20 C33 1_555 1_555
C34 C29 1_555 1_555
H21 C34 1_555 1_555
C35 C32 1_555 1_555
H22 C35 1_555 1_555
H23 C35 1_555 1_555
C36 H24 1_555 1_555
C37 H25 1_555 1_555
C38 C37 1_555 1_555
H26 C38 1_555 1_555
C39 H27 1_555 1_555
C40 H28 1_555 1_555
C41 C40 1_555 1_555
H29 C41 1_555 1_555
C42 H30 1_555 1_555
H31 C42 1_555 1_555
C43 C42 1_555 1_555
C44 C43 1_555 1_555
H32 C44 1_555 1_555
C45 C44 1_555 1_555
H33 C45 1_555 1_555
C46 C45 1_555 1_555
C47 C46 1_555 1_555
H34 C47 1_555 1_555
C48 C43 1_555 1_555
H35 C48 1_555 1_555
C49 C46 1_555 1_555
H36 C49 1_555 1_555
H37 C49 1_555 1_555
C50 H38 1_555 1_555
C51 H39 1_555 1_555
C52 C51 1_555 1_555
H40 C52 1_555 1_555
N1 C25 1_555 1_555
N2 C25 1_555 1_555
N3 C35 1_555 1_555
N4 C36 1_555 1_555
N5 C39 1_555 1_555
N6 C39 1_555 1_555
N7 C49 1_555 1_555
N8 C50 1_555 1_555
O1 C1 1_555 1_555
O2 C1 1_555 1_555
O3 C6 1_555 1_555
O4 C6 1_555 1_555
O5 C13 1_555 1_555
O6 C13 1_555 1_555
O7 C18 1_555 1_555
O8 C18 1_555 1_555
Zn1 N5 1_555 1_555
Zn2 N1 1_555 1_555
N4_2 Zn2 1_555 1_555
N8_2 Zn1 1_555 1_555
O5_2 Zn2 1_555 1_555
Zn1_2 N8 1_555 1_555
Zn2_2 O5 1_555 1_555
Zn2_3 N4 1_555 1_555
C7 C12 1_555 1_555
C11 C12 1_555 1_555
C19 C24 1_555 1_555
C23 C24 1_555 1_555
C26 N1 1_555 1_555
C27 N2 1_555 1_555
C28 N2 1_555 1_555
C33 C34 1_555 1_555
C36 N3 1_555 1_555
C37 N4 1_555 1_555
C38 N3 1_555 1_555
C40 N5 1_555 1_555
C41 N6 1_555 1_555
C42 N6 1_555 1_555
C47 C48 1_555 1_555
C50 N7 1_555 1_555
C51 N8 1_555 1_555
C52 N7 1_555 1_555
O1 Zn1 1_555 1_555
O4 Zn2 1_555 1_555
O7 Zn1 1_555 1_555
O8 Zn1 1_555 1_555

#END
