
#######################################################################
#
#                 Cambridge Crystallographic Data Centre
#                                CCDC 
#
#######################################################################
#
# If this CIF has been generated from an entry in the Cambridge 
# Structural Database, then it will include bibliographic, chemical, 
# crystal, experimental, refinement or atomic coordinate data resulting 
# from the CCDC's data processing and validation procedures.
#
#######################################################################

data_YUCMIT
_symmetry_cell_setting           triclinic
_symmetry_space_group_name_H-M   'P -1'
_symmetry_Int_Tables_number      2
_space_group_name_Hall           '-P 1'
loop_
_symmetry_equiv_pos_site_id
_symmetry_equiv_pos_as_xyz
1 x,y,z
2 -x,-y,-z
_cell_length_a                   7.4307(8)
_cell_length_b                   10.8485(11)
_cell_length_c                   13.5487(14)
_cell_angle_alpha                74.685(2)
_cell_angle_beta                 85.084(2)
_cell_angle_gamma                88.818(2)
_cell_volume                     1049.52
loop_
_atom_site_label
_atom_site_type_symbol
_atom_site_fract_x
_atom_site_fract_y
_atom_site_fract_z
Cu1 Cu 0.84830(8) 0.38580(5) 0.61369(4)
Ag1 Ag 1.41093(6) 0.35394(4) 1.08504(3)
O1 O 0.5863(5) 0.3471(3) 0.7201(3)
H1 H 0.551(6) 0.415(3) 0.730(4)
H2 H 0.511(5) 0.319(4) 0.691(4)
O7 O 0.7831(5) 0.5530(3) 0.5288(3)
O8 O 0.7663(4) 0.7578(3) 0.5295(3)
O9 O 1.2602(5) 0.3753(3) 0.9460(3)
O10 O 1.2489(5) 0.5685(3) 0.9715(3)
O11 O 0.9483(4) 0.2195(3) 0.6835(3)
O12 O 0.9620(5) 0.0163(3) 0.6752(3)
O13 O 0.4966(5) 0.2265(3) 0.2323(3)
O14 O 0.4999(5) 0.4212(3) 0.2545(3)
N1 N 0.9509(5) 0.4889(4) 0.6972(3)
N2 N 0.7663(5) 0.2895(4) 0.5197(3)
C1 C 0.8080(6) 0.6464(4) 0.5675(4)
C2 C 0.9016(6) 0.6129(4) 0.6659(4)
C3 C 0.9396(6) 0.7004(4) 0.7188(4)
H13 H 0.9009 0.7865 0.6965
C4 C 1.0354(6) 0.6605(5) 0.8052(4)
H14 H 1.0612 0.7189 0.8435
C5 C 1.0930(6) 0.5346(5) 0.8354(4)
C6 C 1.0461(6) 0.4515(5) 0.7793(4)
H15 H 1.0831 0.3647 0.8001
C7 C 1.2071(7) 0.4898(5) 0.9252(4)
C8 C 0.9155(6) 0.1282(5) 0.6423(4)
C9 C 0.8092(6) 0.1648(4) 0.5493(4)
C10 C 0.7612(6) 0.0776(5) 0.4982(4)
H16 H 0.7898 -0.0105 0.5219
C11 C 0.6698(6) 0.1232(5) 0.4111(4)
H17 H 0.6378 0.0663 0.3729
C12 C 0.6243(6) 0.2517(4) 0.3791(4)
C13 C 0.6737(6) 0.3324(4) 0.4368(4)
H18 H 0.6409 0.4201 0.4169
C14 C 0.5326(6) 0.3047(5) 0.2825(4)
Ag1A Ag 1.58907(6) 0.64606(4) 0.91496(3)
Ag1_2 Ag 0.41093(6) 0.35394(4) 0.08504(3)
O10A O 1.7511(5) 0.4315(3) 1.0285(3)
O13_2 O 1.4966(5) 0.2265(3) 1.2323(3)
O14_2 O 1.4999(5) 0.4212(3) 1.2545(3)
Ag2 Ag 0.57850(6) 0.10229(4) 0.04659(3)
O2 O 0.7399(7) 0.2271(4) -0.0749(4)
H3 H 0.759(10) 0.289(4) -0.052(5)
H4 H 0.690(9) 0.253(5) -0.129(3)
O3 O 0.4234(7) -0.0055(4) 0.1803(3)
H5 H 0.481(9) -0.069(4) 0.208(4)
H6 H 0.405(9) 0.040(5) 0.220(4)
O4 O 0.3425(5) 0.1942(4) 0.6676(3)
H7 H 0.237(3) 0.187(6) 0.692(3)
H8 H 0.345(6) 0.206(6) 0.6050(10)
O5 O 0.1807(7) 0.1327(4) 0.9494(4)
H9 H 0.114(8) 0.112(5) 1.003(3)
H10 H 0.218(9) 0.205(3) 0.942(5)
O6 O 0.0321(8) 0.9543(4) 0.8740(3)
H11 H 0.078(9) 1.016(4) 0.886(4)
H12 H 0.033(10) 0.966(6) 0.8116(12)
loop_
_geom_bond_atom_site_label_1
_geom_bond_atom_site_label_2
_geom_bond_site_symmetry_1
_geom_bond_site_symmetry_2
Cu1 O1 1_555 1_555
Ag1 O9 1_555 1_555
Ag2 O2 1_555 1_555
O1 H1 1_555 1_555
H2 O1 1_555 1_555
O2 H3 1_555 1_555
H4 O2 1_555 1_555
O3 Ag2 1_555 1_555
H5 O3 1_555 1_555
H6 O3 1_555 1_555
O4 H7 1_555 1_555
H8 O4 1_555 1_555
O5 H9 1_555 1_555
H10 O5 1_555 1_555
O6 H11 1_555 1_555
H12 O6 1_555 1_555
O7 Cu1 1_555 1_555
O8 C1 1_555 1_555
O9 C7 1_555 1_555
O10 Ag1 1_555 1_555
O11 Cu1 1_555 1_555
O12 C8 1_555 1_555
O13 C14 1_555 1_555
O14 C14 1_555 1_555
N1 Cu1 1_555 1_555
N2 Cu1 1_555 1_555
C1 O7 1_555 1_555
C2 N1 1_555 1_555
C3 C2 1_555 1_555
H13 C3 1_555 1_555
C4 C3 1_555 1_555
H14 C4 1_555 1_555
C5 C4 1_555 1_555
C6 N1 1_555 1_555
H15 C6 1_555 1_555
C7 O10 1_555 1_555
C8 O11 1_555 1_555
C9 N2 1_555 1_555
C10 C9 1_555 1_555
H16 C10 1_555 1_555
C11 C10 1_555 1_555
H17 C11 1_555 1_555
C12 C11 1_555 1_555
C13 N2 1_555 1_555
H18 C13 1_555 1_555
C14 C12 1_555 1_555
Ag1A O10 1_555 1_555
Ag1_2 O13 1_555 1_555
O10A Ag1 1_555 1_555
O13_2 Ag1 1_555 1_555
O14_2 Ag1 1_555 1_555
O14 Ag1_2 1_555 1_555
C1 C2 1_555 1_555
C5 C6 1_555 1_555
C5 C7 1_555 1_555
C8 C9 1_555 1_555
C12 C13 1_555 1_555
Ag1A O10A 1_555 1_555

#END
