
#######################################################################
#
#                 Cambridge Crystallographic Data Centre
#                                CCDC 
#
#######################################################################
#
# If this CIF has been generated from an entry in the Cambridge 
# Structural Database, then it will include bibliographic, chemical, 
# crystal, experimental, refinement or atomic coordinate data resulting 
# from the CCDC's data processing and validation procedures.
#
#######################################################################

data_YUCMAL
_symmetry_cell_setting           orthorhombic
_symmetry_space_group_name_H-M   'P b c a'
_symmetry_Int_Tables_number      61
_space_group_name_Hall           '-P 2ac 2ab'
loop_
_symmetry_equiv_pos_site_id
_symmetry_equiv_pos_as_xyz
1 x,y,z
2 1/2-x,-y,1/2+z
3 1/2+x,1/2-y,-z
4 -x,1/2+y,1/2-z
5 -x,-y,-z
6 1/2+x,y,1/2-z
7 1/2-x,1/2+y,z
8 x,1/2-y,1/2+z
_cell_length_a                   10.335(2)
_cell_length_b                   20.680(4)
_cell_length_c                   34.728(6)
_cell_angle_alpha                90
_cell_angle_beta                 90
_cell_angle_gamma                90
_cell_volume                     7422.34
loop_
_atom_site_label
_atom_site_type_symbol
_atom_site_fract_x
_atom_site_fract_y
_atom_site_fract_z
Cs1 Cs 0.03145(5) 0.11224(2) 0.117133(13)
O1 O 0.0338(4) 0.3380(2) 0.17629(13)
C1 C 0.0937(7) 0.2793(3) 0.18344(17)
C2 C 0.0297(7) 0.2332(3) 0.20602(17)
C3 C 0.0912(7) 0.1736(3) 0.21147(17)
H1 H 0.0504 0.1415 0.2269
C4 C 0.2108(6) 0.1601(3) 0.19481(17)
C5 C 0.2692(6) 0.2066(3) 0.17178(18)
H2 H 0.3499 0.1973 0.1599
C6 C 0.2110(6) 0.2668(3) 0.16575(17)
C7 C 0.0677(8) 0.3879(3) 0.2030(2)
H3 H 0.0218 0.4278 0.1962
H4 H 0.1612 0.3955 0.2019
H5 H 0.0432 0.3747 0.2291
P1 P 0.27862(18) 0.08081(8) 0.19973(5)
O2 O 0.1859(6) 0.0327(2) 0.18544(17)
O3 O 0.3209(7) 0.0756(3) 0.24139(15)
O4 O 0.4049(5) 0.0791(2) 0.17616(19)
H7 H 0.3875 0.0828 0.1526
C8 C -0.1001(7) 0.2458(3) 0.22520(19)
H8 H -0.0862 0.2752 0.2473
H9 H -0.1333 0.2044 0.2355
O5 O 0.1556(4) 0.24228(19) 0.08175(12)
C9 C -0.2492(6) 0.2428(3) 0.16669(19)
C10 C -0.3363(6) 0.2707(3) 0.14138(18)
C11 C -0.3819(6) 0.3320(3) 0.14949(19)
H10 H -0.4404 0.3520 0.1321
C12 C -0.3443(6) 0.3649(3) 0.18239(19)
C13 C -0.2534(6) 0.3364(3) 0.20677(19)
H11 H -0.2249 0.3591 0.2290
C14 C -0.2037(6) 0.2753(3) 0.19913(18)
C15 C 0.2611(8) 0.2191(3) 0.0588(2)
H12 H 0.2664 0.1720 0.0609
H13 H 0.3420 0.2384 0.0679
H14 H 0.2469 0.2312 0.0318
P2 P -0.4024(2) 0.44422(8) 0.19188(5)
O6 O -0.3523(12) 0.4706(5) 0.2284(3)
O8 O -0.5525(6) 0.4366(6) 0.1921(4)
H16 H -0.5864 0.4683 0.1808
C16 C -0.3818(6) 0.2363(3) 0.1052(2)
H17 H -0.4290 0.1968 0.1130
H18 H -0.4442 0.2648 0.0918
O9 O -0.2063(4) 0.3271(2) 0.07244(13)
C17 C -0.1923(7) 0.2633(3) 0.06136(18)
C18 C -0.0948(6) 0.2462(3) 0.03583(17)
C19 C -0.0875(6) 0.1817(3) 0.02427(18)
H19 H -0.0213 0.1692 0.0068
C20 C -0.1741(6) 0.1353(3) 0.03750(19)
C21 C -0.2673(6) 0.1545(3) 0.0642(2)
H20 H -0.3258 0.1231 0.0739
C22 C -0.2775(6) 0.2172(3) 0.07678(17)
C23 C -0.2928(9) 0.3634(4) 0.0482(2)
H21 H -0.2985 0.4080 0.0575
H22 H -0.3789 0.3436 0.0487
H23 H -0.2599 0.3634 0.0217
P3 P -0.1617(2) 0.05181(9) 0.02353(6)
O10 O -0.2905(6) 0.0200(3) 0.0308(2)
O11 O -0.1176(7) 0.0489(3) -0.01833(17)
H24 H -0.0583 0.0213 -0.0206
O12 O -0.0569(5) 0.0222(2) 0.05004(15)
C24 C 0.0003(7) 0.2963(3) 0.02023(19)
H25 H 0.0668 0.2736 0.0048
H26 H -0.0470 0.3257 0.0027
O13 O -0.2032(5) 0.18073(19) 0.15935(13)
C25 C 0.1426(6) 0.3097(3) 0.07991(17)
C26 C 0.2002(6) 0.3470(3) 0.10872(17)
C27 C 0.1882(6) 0.4137(3) 0.10592(19)
H27 H 0.2282 0.4403 0.1248
C28 C 0.1190(6) 0.4425(3) 0.07613(18)
C29 C 0.0589(6) 0.4038(3) 0.04918(19)
H28 H 0.0102 0.4236 0.0292
C30 C 0.0673(6) 0.3363(3) 0.05038(18)
C31 C -0.2872(9) 0.1303(4) 0.1754(3)
H29 H -0.2507 0.0876 0.1696
H30 H -0.3737 0.1338 0.1641
H31 H -0.2931 0.1357 0.2034
P4 P 0.11216(18) 0.52843(8) 0.07200(5)
O14 O 0.0837(11) 0.5673(5) 0.1071(2)
O15 O 0.0268(8) 0.5511(4) 0.0383(2)
H32 H -0.0514 0.5492 0.0448
O16 O 0.2515(7) 0.5489(4) 0.0599(3)
H33 H 0.2611 0.5428 0.0362
C32 C 0.2793(6) 0.3171(3) 0.14058(18)
H34 H 0.3106 0.3523 0.1575
H35 H 0.3563 0.2964 0.1289
H36 H -0.3367 0.4761 0.1407
H38 H 0.0004 0.0045 0.0365
O20 O -0.4067(13) 0.4817(5) 0.1525(2)
Cs1F Cs 0.46855(5) 0.61224(2) 0.117133(13)
Cs1F_2 Cs -0.53145(5) 0.61224(2) 0.117133(13)
O16F O 0.2485(7) 0.0489(4) 0.0599(3)
H33F H 0.2389 0.0428 0.0362
H36F H -0.1633 -0.0239 0.1407
O20F O -0.0933(13) -0.0183(5) 0.1525(2)
O17 O -0.3476(17) -0.0504(8) 0.1292(5)
H6? H 0.2733 0.0489 0.2529
O7? O -0.3672(14) 0.4846(6) 0.1552(3)
H15? H -0.2893 0.4784 0.1495
H37? H -0.5884 0.4696 0.1978
H39? H 0.1059 0.5215 0.0150
H40? H -0.0719 0.5391 0.0561
O18? O -0.2991(19) -0.0319(10) 0.1161(5)
O19? O -0.3155(10) 0.4746(5) 0.2207(3)
O21? O -0.5465(7) 0.4366(6) 0.2044(4)
O22? O 0.1843(9) 0.5633(4) 0.1015(3)
O23? O 0.1394(10) 0.5486(5) 0.0300(2)
O24? O -0.0350(7) 0.5392(5) 0.0776(3)
loop_
_geom_bond_atom_site_label_1
_geom_bond_atom_site_label_2
_geom_bond_site_symmetry_1
_geom_bond_site_symmetry_2
Cs1 C3 1_555 1_555
O1 C1 1_555 1_555
C1 C2 1_555 1_555
C2 C3 1_555 1_555
C3 H1 1_555 1_555
C4 Cs1 1_555 1_555
C5 Cs1 1_555 1_555
H2 C5 1_555 1_555
C6 C1 1_555 1_555
C7 O1 1_555 1_555
H3 C7 1_555 1_555
H4 C7 1_555 1_555
H5 C7 1_555 1_555
P1 C4 1_555 1_555
O2 Cs1 1_555 1_555
O3 P1 1_555 1_555
O4 P1 1_555 1_555
H7 O4 1_555 1_555
C8 C2 1_555 1_555
H8 C8 1_555 1_555
H9 C8 1_555 1_555
O5 Cs1 1_555 1_555
C9 C10 1_555 1_555
C10 C11 1_555 1_555
C11 H10 1_555 1_555
C12 C11 1_555 1_555
C13 C12 1_555 1_555
H11 C13 1_555 1_555
C14 C8 1_555 1_555
C15 O5 1_555 1_555
H12 C15 1_555 1_555
H13 C15 1_555 1_555
H14 C15 1_555 1_555
P2 C12 1_555 1_555
O6 P2 1_555 1_555
O8 P2 1_555 1_555
H16 O8 1_555 1_555
C16 C10 1_555 1_555
H17 C16 1_555 1_555
H18 C16 1_555 1_555
O9 C17 1_555 1_555
C17 C18 1_555 1_555
C18 C19 1_555 1_555
C19 Cs1 1_555 1_555
H19 C19 1_555 1_555
C20 Cs1 1_555 1_555
C21 Cs1 1_555 1_555
H20 C21 1_555 1_555
C22 C16 1_555 1_555
C23 O9 1_555 1_555
H21 C23 1_555 1_555
H22 C23 1_555 1_555
H23 C23 1_555 1_555
P3 C20 1_555 1_555
O10 P3 1_555 1_555
O11 P3 1_555 1_555
H24 O11 1_555 1_555
O12 Cs1 1_555 1_555
C24 C18 1_555 1_555
H25 C24 1_555 1_555
H26 C24 1_555 1_555
O13 Cs1 1_555 1_555
C25 O5 1_555 1_555
C26 C25 1_555 1_555
C27 C26 1_555 1_555
H27 C27 1_555 1_555
C28 C27 1_555 1_555
C29 C28 1_555 1_555
H28 C29 1_555 1_555
C30 C24 1_555 1_555
C31 O13 1_555 1_555
H29 C31 1_555 1_555
H30 C31 1_555 1_555
H31 C31 1_555 1_555
P4 C28 1_555 1_555
O14 P4 1_555 1_555
O15 P4 1_555 1_555
H32 O15 1_555 1_555
O16 P4 1_555 1_555
H33 O16 1_555 1_555
C32 C6 1_555 1_555
H34 C32 1_555 1_555
H35 C32 1_555 1_555
H36 O20 1_555 1_555
H38 O12 1_555 1_555
O20 P2 1_555 1_555
Cs1F O16 1_555 1_555
Cs1F_2 O20 1_555 1_555
O16F Cs1 1_555 1_555
H33F O16F 1_555 1_555
H36F O20F 1_555 1_555
O20F Cs1 1_555 1_555
C3 C4 1_555 1_555
C4 C5 1_555 1_555
C5 C6 1_555 1_555
P1 O2 1_555 1_555
C9 C14 1_555 1_555
C9 O13 1_555 1_555
C13 C14 1_555 1_555
C17 C22 1_555 1_555
C19 C20 1_555 1_555
C20 C21 1_555 1_555
C21 C22 1_555 1_555
P3 O12 1_555 1_555
C25 C30 1_555 1_555
C26 C32 1_555 1_555
C29 C30 1_555 1_555

#END
