
#######################################################################
#
#                 Cambridge Crystallographic Data Centre
#                                CCDC 
#
#######################################################################
#
# If this CIF has been generated from an entry in the Cambridge 
# Structural Database, then it will include bibliographic, chemical, 
# crystal, experimental, refinement or atomic coordinate data resulting 
# from the CCDC's data processing and validation procedures.
#
#######################################################################

data_YUCRIZ
_symmetry_cell_setting           monoclinic
_symmetry_space_group_name_H-M   'P 21/n'
_symmetry_Int_Tables_number      14
_space_group_name_Hall           '-P 2yn'
loop_
_symmetry_equiv_pos_site_id
_symmetry_equiv_pos_as_xyz
1 x,y,z
2 1/2-x,1/2+y,1/2-z
3 -x,-y,-z
4 1/2+x,1/2-y,1/2+z
_cell_length_a                   13.1387(3)
_cell_length_b                   22.9250(5)
_cell_length_c                   13.3035(3)
_cell_angle_alpha                90
_cell_angle_beta                 110.399(3)
_cell_angle_gamma                90
_cell_volume                     3755.79
loop_
_atom_site_label
_atom_site_type_symbol
_atom_site_fract_x
_atom_site_fract_y
_atom_site_fract_z
Cu1 Cu 0.71171(3) 0.19223(2) 0.41674(3)
Cu2 Cu 0.29591(3) 0.17714(2) 0.05964(3)
Cl1 Cl 0.60300(5) 0.25883(3) 0.45283(5)
Cl2 Cl 0.40246(5) 0.24384(3) 0.02000(5)
S1 S 0.53787(6) 0.10664(3) 0.31695(6)
S2 S 0.46929(6) 0.09876(3) 0.15366(6)
C1 C 0.7423(2) 0.07640(12) 0.3140(2)
H1 H 0.7922 0.0434 0.3179
H2 H 0.7125 0.0893 0.2384
C2 C 0.6496(2) 0.05466(12) 0.3469(2)
H3 H 0.6773 0.0465 0.4249
H4 H 0.6220 0.0176 0.3092
C3 C 0.3650(2) 0.04342(12) 0.1387(2)
H5 H 0.3356 0.0308 0.0628
H6 H 0.3987 0.0090 0.1827
C4 C 0.2724(2) 0.06500(12) 0.1719(2)
H7 H 0.2251 0.0315 0.1725
H8 H 0.3029 0.0802 0.2461
C5 C 0.6587(2) 0.26084(12) 0.2056(2)
H9 H 0.6010 0.2852 0.2077
C6 C 0.7005(3) 0.25959(13) 0.1226(2)
H10 H 0.6776 0.2825 0.0591
C7 C 0.7814(2) 0.21845(13) 0.1512(2)
H11 H 0.8260 0.2076 0.1114
C8 C 0.8649(2) 0.15727(12) 0.3200(2)
H12 H 0.9263 0.1798 0.3693
H13 H 0.8936 0.1294 0.2796
C9 C 0.7110(2) 0.14202(13) 0.6317(2)
H14 H 0.6560 0.1649 0.6435
C10 C 0.7700(3) 0.09795(14) 0.6999(2)
H15 H 0.7634 0.0857 0.7656
C11 C 0.8393(3) 0.07612(13) 0.6523(2)
H16 H 0.8901 0.0454 0.6787
C12 C 0.8812(2) 0.10579(13) 0.4863(2)
H17 H 0.9072 0.0659 0.4804
H18 H 0.9449 0.1320 0.5122
C13 C 0.2861(2) 0.12551(13) -0.1585(2)
H19 H 0.3383 0.1489 -0.1741
C14 C 0.2264(3) 0.08092(13) -0.2238(2)
H20 H 0.2295 0.0685 -0.2908
C15 C 0.1620(3) 0.05861(13) -0.1707(2)
H21 H 0.1111 0.0277 -0.1945
C16 C 0.1280(2) 0.08900(12) -0.0015(2)
H22 H 0.1048 0.0490 0.0082
H23 H 0.0627 0.1141 -0.0278
C17 C 0.3512(2) 0.24850(13) 0.2686(2)
H24 H 0.4085 0.2726 0.2646
C18 C 0.3123(3) 0.24813(14) 0.3534(2)
H25 H 0.3364 0.2716 0.4162
C19 C 0.2314(3) 0.20661(13) 0.3272(2)
H26 H 0.1886 0.1958 0.3689
C20 C 0.1456(2) 0.14430(12) 0.1606(2)
H27 H 0.0838 0.1662 0.1101
H28 H 0.1173 0.1172 0.2025
N1 N 0.80654(18) 0.12570(10) 0.38097(18)
N2 N 0.20405(18) 0.11173(10) 0.10139(18)
N3 N 0.78574(19) 0.19638(10) 0.24631(18)
N4 N 0.71189(18) 0.22279(10) 0.28130(18)
N5 N 0.82185(19) 0.10637(10) 0.56129(18)
N6 N 0.74328(19) 0.14713(10) 0.54752(19)
N7 N 0.18465(18) 0.08879(10) -0.07882(18)
N8 N 0.25954(19) 0.13067(10) -0.07085(18)
N9 N 0.22436(18) 0.18434(10) 0.23176(18)
N10 N 0.29678(18) 0.21030(10) 0.19394(18)
Cu1C Cu 0.21171(3) 0.30777(2) -0.08326(3)
Cu2C Cu 0.79591(3) 0.32286(2) 0.55964(3)
Cl1C Cl 0.10300(5) 0.24117(3) -0.04717(5)
Cl2C Cl 0.90246(5) 0.25616(3) 0.52000(5)
B1 B 0.1233(3) 0.06697(14) 0.4324(3)
F1 F 0.18923(16) 0.06603(9) 0.37123(16)
F2 F 0.10793(15) 0.12513(7) 0.45748(15)
F3 F 0.17115(18) 0.03595(8) 0.52585(14)
F4 F 0.02351(15) 0.04219(9) 0.37497(16)
B2 B 0.8695(3) 0.07937(14) 0.0422(3)
F5 F 0.89534(14) 0.13640(7) 0.02179(15)
F6 F 0.80299(17) 0.08118(9) 0.10249(17)
F7 F 0.96412(14) 0.04904(8) 0.09796(15)
F8 F 0.81654(19) 0.05160(9) -0.05397(15)
C21 C 0.5904(3) 0.1462(2) 0.9226(3)
H29 H 0.6695 0.1449 0.9421
H30 H 0.5595 0.1081 0.8953
H31 H 0.5723 0.1562 0.9860
C22 C 0.5460(3) 0.19004(19) 0.8403(4)
N11 N 0.5113(3) 0.22472(16) 0.7756(3)
C23 C 0.5948(3) -0.13866(19) 0.4591(3)
H32 H 0.5385 -0.1578 0.4799
H33 H 0.6437 -0.1169 0.5204
H34 H 0.6364 -0.1682 0.4365
C24 C 0.5444(3) -0.09875(16) 0.3710(3)
N12 N 0.5044(3) -0.06851(15) 0.3015(3)
loop_
_geom_bond_atom_site_label_1
_geom_bond_atom_site_label_2
_geom_bond_site_symmetry_1
_geom_bond_site_symmetry_2
Cu1 Cl1 1_555 1_555
Cu2 Cl2 1_555 1_555
Cl1 Cu2C 1_555 1_555
Cl2 Cu1C 1_555 1_555
S1 Cu1 1_555 1_555
S2 Cu2 1_555 1_555
C1 H1 1_555 1_555
H2 C1 1_555 1_555
C2 S1 1_555 1_555
H3 C2 1_555 1_555
H4 C2 1_555 1_555
C3 S2 1_555 1_555
H5 C3 1_555 1_555
H6 C3 1_555 1_555
C4 C3 1_555 1_555
H7 C4 1_555 1_555
H8 C4 1_555 1_555
C5 H9 1_555 1_555
C6 C5 1_555 1_555
H10 C6 1_555 1_555
C7 C6 1_555 1_555
H11 C7 1_555 1_555
C8 H12 1_555 1_555
H13 C8 1_555 1_555
C9 H14 1_555 1_555
C10 C9 1_555 1_555
H15 C10 1_555 1_555
C11 C10 1_555 1_555
H16 C11 1_555 1_555
C12 H17 1_555 1_555
H18 C12 1_555 1_555
C13 H19 1_555 1_555
C14 C13 1_555 1_555
H20 C14 1_555 1_555
C15 C14 1_555 1_555
H21 C15 1_555 1_555
C16 H22 1_555 1_555
H23 C16 1_555 1_555
C17 H24 1_555 1_555
C18 C17 1_555 1_555
H25 C18 1_555 1_555
C19 C18 1_555 1_555
H26 C19 1_555 1_555
C20 H27 1_555 1_555
H28 C20 1_555 1_555
N1 Cu1 1_555 1_555
N2 Cu2 1_555 1_555
N3 C7 1_555 1_555
N4 Cu1 1_555 1_555
N5 C11 1_555 1_555
N6 Cu1 1_555 1_555
N7 C15 1_555 1_555
N8 Cu2 1_555 1_555
N9 C19 1_555 1_555
N10 Cu2 1_555 1_555
B1 F1 1_555 1_555
F2 B1 1_555 1_555
F3 B1 1_555 1_555
F4 B1 1_555 1_555
B2 F5 1_555 1_555
F6 B2 1_555 1_555
F7 B2 1_555 1_555
F8 B2 1_555 1_555
C21 H29 1_555 1_555
H30 C21 1_555 1_555
H31 C21 1_555 1_555
C22 C21 1_555 1_555
N11 C22 1_555 1_555
C23 H32 1_555 1_555
H33 C23 1_555 1_555
H34 C23 1_555 1_555
C24 C23 1_555 1_555
N12 C24 1_555 1_555
Cu1C Cl1C 1_555 1_555
Cu2C Cl2C 1_555 1_555
Cl1C Cu2 1_555 1_555
Cl2C Cu1 1_555 1_555
S1 S2 1_555 1_555
C1 C2 1_555 1_555
C1 N1 1_555 1_555
C4 N2 1_555 1_555
C5 N4 1_555 1_555
C8 N1 1_555 1_555
C8 N3 1_555 1_555
C9 N6 1_555 1_555
C12 N1 1_555 1_555
C12 N5 1_555 1_555
C13 N8 1_555 1_555
C16 N2 1_555 1_555
C16 N7 1_555 1_555
C17 N10 1_555 1_555
C20 N2 1_555 1_555
C20 N9 1_555 1_555
N3 N4 1_555 1_555
N5 N6 1_555 1_555
N7 N8 1_555 1_555
N9 N10 1_555 1_555

#END
