
#######################################################################
#
#                 Cambridge Crystallographic Data Centre
#                                CCDC 
#
#######################################################################
#
# If this CIF has been generated from an entry in the Cambridge 
# Structural Database, then it will include bibliographic, chemical, 
# crystal, experimental, refinement or atomic coordinate data resulting 
# from the CCDC's data processing and validation procedures.
#
#######################################################################

data_YUCVOI
_symmetry_cell_setting           triclinic
_symmetry_space_group_name_H-M   'P -1'
_symmetry_Int_Tables_number      2
_space_group_name_Hall           '-P 1'
loop_
_symmetry_equiv_pos_site_id
_symmetry_equiv_pos_as_xyz
1 x,y,z
2 -x,-y,-z
_cell_length_a                   7.0020(4)
_cell_length_b                   7.5750(4)
_cell_length_c                   10.2068(6)
_cell_angle_alpha                75.4720(10)
_cell_angle_beta                 70.8430(10)
_cell_angle_gamma                88.2550(10)
_cell_volume                     494.242
loop_
_atom_site_label
_atom_site_type_symbol
_atom_site_fract_x
_atom_site_fract_y
_atom_site_fract_z
Lu1 Lu 0.30978(2) 0.22275(2) 1.015515(15)
C1 C 0.3866(5) 0.0271(5) 0.7936(4)
C2 C 0.4422(6) 0.0079(5) 0.6429(4)
C3 C 0.3265(6) 0.0825(6) 0.5581(4)
H1 H 0.2092 0.1391 0.5967
C4 C 0.6172(6) -0.0741(6) 0.5833(4)
H2 H 0.6975 -0.1239 0.6385
C5 C 0.7147(5) 0.4796(5) 0.7823(4)
C6 C 0.8631(6) 0.4908(5) 0.6353(4)
C7 C 0.8285(6) 0.3850(6) 0.5519(4)
H3 H 0.7123 0.3078 0.5871
C8 C 1.0350(6) 0.6072(6) 0.5834(4)
H4 H 1.0586 0.6793 0.6387
C9 C -0.0823(5) 0.4315(5) 1.0581(4)
O1 O 0.4816(4) -0.0502(4) 0.8752(3)
O2 O 0.2488(4) 0.1349(4) 0.8326(3)
O3 O 0.6143(4) 0.3288(3) 0.8501(3)
O4 O 0.7003(4) 0.6170(4) 0.8308(3)
O5 O -0.0308(4) 0.2714(4) 1.0930(3)
O6 O -0.2519(4) 0.4916(4) 1.1081(3)
O7 O 0.1348(4) -0.0421(4) 1.1585(3)
H5 H 0.0166 -0.0741 1.1644
H6 H 0.1966 -0.1407 1.1670
Lu1A Lu 0.69022(2) -0.22275(2) -0.015515(15)
Lu1A_2 Lu 0.69022(2) -0.22275(2) 0.984485(15)
Lu1A_3 Lu 0.69022(2) 0.77725(2) 0.984485(15)
Lu1A_4 Lu -0.30978(2) 0.77725(2) 0.984485(15)
Lu1_2 Lu 0.30978(2) 0.22275(2) 0.015515(15)
Lu1_3 Lu 1.30978(2) 0.22275(2) 0.015515(15)
Lu1A_5 Lu 1.69022(2) 0.77725(2) -0.015515(15)
C1A C 0.6134(5) -0.0271(5) 0.2064(4)
C2A C 0.5578(6) -0.0079(5) 0.3571(4)
C3A C 0.6735(6) -0.0825(6) 0.4419(4)
H1A H 0.7908 -0.1391 0.4033
C4A C 0.3828(6) 0.0741(6) 0.4167(4)
H2A H 0.3025 0.1239 0.3615
C5A C 1.2853(5) 0.5204(5) 0.2177(4)
C6A C 1.1369(6) 0.5092(5) 0.3647(4)
C7A C 1.1715(6) 0.6150(6) 0.4481(4)
H3A H 1.2877 0.6922 0.4129
C8A C 0.9650(6) 0.3928(6) 0.4166(4)
H4A H 0.9414 0.3207 0.3613
C9A C 0.0823(5) 0.5685(5) 0.9419(4)
O1A O 0.5184(4) 0.0502(4) 0.1248(3)
O1A_2 O 0.5184(4) 0.0502(4) 1.1248(3)
O1_2 O 0.4816(4) -0.0502(4) -0.1248(3)
O2A O 0.7512(4) -0.1349(4) 0.1674(3)
O3A O 1.3857(4) 0.6712(3) 0.1499(3)
O3A_2 O 0.3857(4) -0.3288(3) 0.1499(3)
O4A O 1.2997(4) 0.3830(4) 0.1692(3)
O4A_2 O 0.2997(4) 0.3830(4) 1.1692(3)
O4_2 O 0.7003(4) -0.3830(4) -0.1692(3)
O5A O 0.0308(4) 0.7286(4) 0.9070(3)
O5A_2 O 1.0308(4) -0.2714(4) -0.0930(3)
O6A O 0.2519(4) 0.5084(4) 0.8919(3)
O6_2 O 0.7481(4) -0.5084(4) 0.1081(3)
O7A O 0.8652(4) 0.0421(4) -0.1585(3)
H5A H 0.9834 0.0741 -0.1644
H6A H 0.8034 0.1407 -0.1670
loop_
_geom_bond_atom_site_label_1
_geom_bond_atom_site_label_2
_geom_bond_site_symmetry_1
_geom_bond_site_symmetry_2
Lu1 O1 1_555 1_555
C1 C2 1_555 1_555
C2 C3 1_555 1_555
C3 H1 1_555 1_555
C4 C2 1_555 1_555
H2 C4 1_555 1_555
C5 C6 1_555 1_555
C6 C7 1_555 1_555
C7 H3 1_555 1_555
C8 C6 1_555 1_555
H4 C8 1_555 1_555
C9 O5 1_555 1_555
O1 C1 1_555 1_555
O2 Lu1 1_555 1_555
O3 Lu1 1_555 1_555
O4 C5 1_555 1_555
O5 Lu1 1_555 1_555
O6 C9 1_555 1_555
O7 Lu1 1_555 1_555
H5 O7 1_555 1_555
H6 O7 1_555 1_555
Lu1A O1A 1_555 1_555
Lu1A_2 O1 1_555 1_555
Lu1A_3 O4 1_555 1_555
Lu1A_4 O6 1_555 1_555
Lu1_2 O1A 1_555 1_555
Lu1_3 O4A 1_555 1_555
Lu1A_5 O3A 1_555 1_555
C1A C2A 1_555 1_555
C2A C3A 1_555 1_555
C3A C4 1_555 1_555
H1A C3A 1_555 1_555
C4A C3 1_555 1_555
H2A C4A 1_555 1_555
C5A C6A 1_555 1_555
C6A C7A 1_555 1_555
C7A C8 1_555 1_555
H3A C7A 1_555 1_555
C8A C7 1_555 1_555
H4A C8A 1_555 1_555
C9A C9 1_555 1_555
O1A C1A 1_555 1_555
O1A_2 Lu1 1_555 1_555
O1_2 Lu1A 1_555 1_555
O2A Lu1A 1_555 1_555
O3A C5A 1_555 1_555
O3A_2 Lu1A 1_555 1_555
O4A C5A 1_555 1_555
O4A_2 Lu1 1_555 1_555
O4_2 Lu1A 1_555 1_555
O5A Lu1A_4 1_555 1_555
O5A_2 Lu1A 1_555 1_555
O6A Lu1 1_555 1_555
O6_2 Lu1A 1_555 1_555
O7A Lu1A 1_555 1_555
H5A O7A 1_555 1_555
H6A O7A 1_555 1_555
C1 O2 1_555 1_555
C5 O3 1_555 1_555
Lu1A_2 O1A_2 1_555 1_555
Lu1_2 O1_2 1_555 1_555
C1A O2A 1_555 1_555
C2A C4A 1_555 1_555
C6A C8A 1_555 1_555
C9A O5A 1_555 1_555
C9A O6A 1_555 1_555

#END
