
#######################################################################
#
#                 Cambridge Crystallographic Data Centre
#                                CCDC 
#
#######################################################################
#
# If this CIF has been generated from an entry in the Cambridge 
# Structural Database, then it will include bibliographic, chemical, 
# crystal, experimental, refinement or atomic coordinate data resulting 
# from the CCDC's data processing and validation procedures.
#
#######################################################################

data_YUCWID
_symmetry_cell_setting           triclinic
_symmetry_space_group_name_H-M   'P -1'
_symmetry_Int_Tables_number      2
_space_group_name_Hall           '-P 1'
loop_
_symmetry_equiv_pos_site_id
_symmetry_equiv_pos_as_xyz
1 x,y,z
2 -x,-y,-z
_cell_length_a                   8.5967(17)
_cell_length_b                   11.432(2)
_cell_length_c                   14.423(3)
_cell_angle_alpha                68.433(3)
_cell_angle_beta                 87.673(4)
_cell_angle_gamma                74.635(4)
_cell_volume                     1268.55
loop_
_atom_site_label
_atom_site_type_symbol
_atom_site_fract_x
_atom_site_fract_y
_atom_site_fract_z
Co1 Co 0.63053(6) -0.14519(4) 0.37254(3)
O1 O 0.6918(3) 0.01199(17) 0.26875(13)
O2 O 0.5285(3) 0.08365(17) 0.36879(14)
O3 O 1.4634(3) 0.84914(19) 0.28126(14)
O4 O 1.2435(3) 0.91935(18) 0.35373(14)
O5 O 0.6256(3) 0.62108(18) 0.06262(15)
O6 O 0.9367(3) 0.79789(19) 0.01759(15)
O7 O 0.4880(3) -0.19495(18) 0.49172(15)
N1 N 0.8001(3) -0.2965(2) 0.34395(17)
N2 N 0.8312(3) -0.1855(2) 0.47342(16)
C1 C 0.6272(4) 0.4931(3) 0.1143(2)
C2 C 1.2806(4) 0.8073(2) 0.14796(19)
H1 H 1.3926 0.7800 0.1481
C3 C 0.6156(4) 0.2400(3) 0.23088(19)
C4 C 1.3121(5) 0.8825(3) 0.2871(2)
C5 C 1.2101(4) 0.8686(2) 0.21218(19)
C6 C 1.0202(5) 0.8281(3) 0.0810(2)
C7 C 0.9490(4) -0.3320(3) 0.3897(2)
C8 C 0.6105(4) 0.1044(3) 0.2937(2)
C9 C 1.1861(5) 0.7864(3) 0.0841(2)
H2 H 1.2349 0.7435 0.0424
C10 C 1.0445(4) 0.9135(2) 0.2059(2)
H3 H 0.9959 0.9574 0.2469
C11 C 0.9660(4) -0.2726(3) 0.4596(2)
C12 C 1.0562(5) -0.4759(3) 0.3037(2)
H4 H 1.1410 -0.5348 0.2888
C13 C 0.9468(4) 0.8959(2) 0.1406(2)
H5 H 0.8350 0.9287 0.1370
C14 C 0.7238(4) 0.2625(3) 0.1578(2)
H6 H 0.7939 0.1918 0.1473
C15 C 0.7807(4) -0.3527(3) 0.2806(2)
H7 H 0.6787 -0.3314 0.2498
C16 C 0.5183(4) 0.4717(3) 0.1876(2)
H8 H 0.4480 0.5422 0.1983
C17 C 0.7314(4) 0.3883(3) 0.0993(2)
H9 H 0.8061 0.4013 0.0506
C18 C 0.5132(4) 0.3464(3) 0.2450(2)
H10 H 0.4393 0.3334 0.2941
C19 C 1.0827(4) -0.4225(3) 0.3726(2)
C20 C 0.8459(4) -0.1330(3) 0.5391(2)
H11 H 0.7556 -0.0737 0.5489
C21 C 1.1150(4) -0.3060(3) 0.5110(2)
C22 C 1.2331(4) -0.4527(3) 0.4262(2)
H12 H 1.3225 -0.5120 0.4154
C23 C 0.7016(4) 0.7961(3) -0.0633(2)
H13 H 0.5869 0.8383 -0.0787
H14 H 0.7551 0.8191 -0.1255
C24 C 0.9069(5) -0.4420(3) 0.2586(2)
H15 H 0.8888 -0.4781 0.2132
C25 C 0.7272(4) 0.6493(3) -0.0194(2)
H16 H 0.6989 0.6191 -0.0695
H17 H 0.8396 0.6056 0.0035
C26 C 1.1243(4) -0.2470(3) 0.5802(2)
H18 H 1.2213 -0.2661 0.6159
C27 C 0.9895(5) -0.1616(3) 0.5944(2)
H19 H 0.9935 -0.1229 0.6405
C28 C 1.2484(4) -0.3972(3) 0.4922(2)
H20 H 1.3481 -0.4189 0.5259
C29 C 0.7656(5) 0.8476(3) 0.0062(2)
H21 H 0.7359 0.9423 -0.0217
H22 H 0.7196 0.8195 0.0706
H23 H 0.399(3) -0.145(3) 0.453(2)
H24 H 0.482(4) -0.163(3) 0.5397(16)
Co1_2 Co 1.63053(6) 0.85481(4) 0.37254(3)
O3_2 O 0.4634(3) -0.15086(19) 0.28126(14)
loop_
_geom_bond_atom_site_label_1
_geom_bond_atom_site_label_2
_geom_bond_site_symmetry_1
_geom_bond_site_symmetry_2
Co1 O1 1_555 1_555
O1 C8 1_555 1_555
O2 C8 1_555 1_555
O3 C4 1_555 1_555
O4 C4 1_555 1_555
O5 C1 1_555 1_555
O6 C6 1_555 1_555
O7 Co1 1_555 1_555
N1 Co1 1_555 1_555
N2 Co1 1_555 1_555
C1 C16 1_555 1_555
C2 H1 1_555 1_555
C3 C8 1_555 1_555
C4 C5 1_555 1_555
C5 C2 1_555 1_555
C6 C9 1_555 1_555
C7 N1 1_555 1_555
C9 C2 1_555 1_555
H2 C9 1_555 1_555
C10 C5 1_555 1_555
H3 C10 1_555 1_555
C11 N2 1_555 1_555
C12 H4 1_555 1_555
C13 C6 1_555 1_555
H5 C13 1_555 1_555
C14 C3 1_555 1_555
H6 C14 1_555 1_555
C15 N1 1_555 1_555
H7 C15 1_555 1_555
C16 H8 1_555 1_555
C17 C1 1_555 1_555
H9 C17 1_555 1_555
C18 C3 1_555 1_555
H10 C18 1_555 1_555
C19 C7 1_555 1_555
C20 N2 1_555 1_555
H11 C20 1_555 1_555
C21 C11 1_555 1_555
C22 C19 1_555 1_555
H12 C22 1_555 1_555
C23 H13 1_555 1_555
H14 C23 1_555 1_555
C24 C12 1_555 1_555
H15 C24 1_555 1_555
C25 O5 1_555 1_555
H16 C25 1_555 1_555
H17 C25 1_555 1_555
C26 C21 1_555 1_555
H18 C26 1_555 1_555
C27 C20 1_555 1_555
H19 C27 1_555 1_555
C28 C21 1_555 1_555
H20 C28 1_555 1_555
C29 O6 1_555 1_555
H21 C29 1_555 1_555
H22 C29 1_555 1_555
H23 O7 1_555 1_555
H24 O7 1_555 1_555
Co1_2 O3 1_555 1_555
O3_2 Co1 1_555 1_555
C7 C11 1_555 1_555
C10 C13 1_555 1_555
C12 C19 1_555 1_555
C14 C17 1_555 1_555
C15 C24 1_555 1_555
C16 C18 1_555 1_555
C22 C28 1_555 1_555
C23 C25 1_555 1_555
C23 C29 1_555 1_555
C26 C27 1_555 1_555

#END
