
#######################################################################
#
#                 Cambridge Crystallographic Data Centre
#                                CCDC 
#
#######################################################################
#
# If this CIF has been generated from an entry in the Cambridge 
# Structural Database, then it will include bibliographic, chemical, 
# crystal, experimental, refinement or atomic coordinate data resulting 
# from the CCDC's data processing and validation procedures.
#
#######################################################################

data_YUCYOL
_symmetry_cell_setting           triclinic
_symmetry_space_group_name_H-M   'P -1'
_symmetry_Int_Tables_number      2
_space_group_name_Hall           '-P 1'
loop_
_symmetry_equiv_pos_site_id
_symmetry_equiv_pos_as_xyz
1 x,y,z
2 -x,-y,-z
_cell_length_a                   9.0061(18)
_cell_length_b                   9.4989(19)
_cell_length_c                   11.274(2)
_cell_angle_alpha                86.62(3)
_cell_angle_beta                 70.00(3)
_cell_angle_gamma                76.69(3)
_cell_volume                     881.753
loop_
_atom_site_label
_atom_site_type_symbol
_atom_site_fract_x
_atom_site_fract_y
_atom_site_fract_z
Cu1 Cu 0.07536(4) 0.21613(4) 0.52609(3)
S1 S -0.01189(13) -0.19206(11) 0.93629(9)
S2 S 0.46168(8) 0.25680(7) 0.48652(7)
O1 O 0.1924(2) 0.1114(2) 0.6325(2)
O2 O -0.0035(3) -0.0020(3) 0.7417(2)
O3 O 0.7573(2) 0.2143(2) 0.5117(2)
O4 O 0.9626(2) 0.3236(2) 0.41845(19)
O5 O -0.0550(3) 0.3574(2) 0.6674(2)
H1 H -0.1223 0.4295 0.6535
H2 H -0.0840 0.3276 0.7426
O6 O 0.1701(2) 0.0527(2) 0.4022(2)
H3 H 0.1911 -0.0281 0.4364
H4 H 0.1169 0.0445 0.3546
N1 N 0.1677(6) -0.2901(4) 1.0612(3)
N2 N 0.0307(6) -0.2940(4) 1.0531(3)
N3 N 0.3144(3) 0.4182(3) 0.3579(2)
N4 N 0.2960(3) 0.3209(3) 0.4435(2)
C1 C 0.1326(4) 0.0272(3) 0.7175(3)
C2 C 0.2317(4) -0.0441(3) 0.7958(3)
C3 C 0.3828(4) -0.0218(4) 0.7812(3)
H5 H 0.4279 0.0396 0.7189
C4 C 0.4696(5) -0.0901(5) 0.8587(4)
H6 H 0.5723 -0.0749 0.8461
C5 C 0.4045(7) -0.1796(5) 0.9534(4)
H7 H 0.4615 -0.2231 1.0058
C6 C 0.2523(6) -0.2038(4) 0.9695(3)
C7 C 0.1684(4) -0.1379(3) 0.8911(3)
C8 C 0.8229(3) 0.3009(3) 0.4353(3)
C9 C 0.7259(3) 0.3865(3) 0.3602(3)
C10 C 0.7796(3) 0.4848(3) 0.2697(3)
H8 H 0.8837 0.4994 0.2516
C11 C 0.6799(4) 0.5634(4) 0.2040(3)
H9 H 0.7201 0.6279 0.1427
C12 C 0.5250(4) 0.5467(4) 0.2289(3)
H10 H 0.4596 0.5999 0.1861
C13 C 0.4677(3) 0.4475(3) 0.3204(3)
C14 C 0.5674(3) 0.3674(3) 0.3842(2)
Cu1_2 Cu 1.07536(4) 0.21613(4) 0.52609(3)
O4_2 O -0.0374(2) 0.3236(2) 0.41845(19)
loop_
_geom_bond_atom_site_label_1
_geom_bond_atom_site_label_2
_geom_bond_site_symmetry_1
_geom_bond_site_symmetry_2
Cu1 O1 1_555 1_555
S1 N2 1_555 1_555
S2 N4 1_555 1_555
O1 C1 1_555 1_555
O2 C1 1_555 1_555
O3 C8 1_555 1_555
O4 C8 1_555 1_555
O5 Cu1 1_555 1_555
H1 O5 1_555 1_555
H2 O5 1_555 1_555
O6 Cu1 1_555 1_555
H3 O6 1_555 1_555
H4 O6 1_555 1_555
N1 N2 1_555 1_555
N3 N4 1_555 1_555
N4 Cu1 1_555 1_555
C1 C2 1_555 1_555
C2 C3 1_555 1_555
C3 H5 1_555 1_555
C4 C3 1_555 1_555
H6 C4 1_555 1_555
C5 C4 1_555 1_555
H7 C5 1_555 1_555
C6 N1 1_555 1_555
C7 S1 1_555 1_555
C8 C9 1_555 1_555
C9 C10 1_555 1_555
C10 H8 1_555 1_555
C11 C10 1_555 1_555
H9 C11 1_555 1_555
C12 C11 1_555 1_555
H10 C12 1_555 1_555
C13 N3 1_555 1_555
C14 S2 1_555 1_555
Cu1_2 O4 1_555 1_555
O4_2 Cu1 1_555 1_555
C2 C7 1_555 1_555
C5 C6 1_555 1_555
C6 C7 1_555 1_555
C9 C14 1_555 1_555
C12 C13 1_555 1_555
C13 C14 1_555 1_555

#END
