
#######################################################################
#
#                 Cambridge Crystallographic Data Centre
#                                CCDC 
#
#######################################################################
#
# If this CIF has been generated from an entry in the Cambridge 
# Structural Database, then it will include bibliographic, chemical, 
# crystal, experimental, refinement or atomic coordinate data resulting 
# from the CCDC's data processing and validation procedures.
#
#######################################################################

data_YUCZOM
_symmetry_cell_setting           monoclinic
_symmetry_space_group_name_H-M   'C c'
_symmetry_Int_Tables_number      9
_space_group_name_Hall           'C -2yc'
loop_
_symmetry_equiv_pos_site_id
_symmetry_equiv_pos_as_xyz
1 x,y,z
2 x,-y,1/2+z
3 1/2+x,1/2+y,z
4 1/2+x,1/2-y,1/2+z
_cell_length_a                   10.5021(6)
_cell_length_b                   20.1959(11)
_cell_length_c                   8.1256(4)
_cell_angle_alpha                90
_cell_angle_beta                 102.3670(10)
_cell_angle_gamma                90
_cell_volume                     1683.44
loop_
_atom_site_label
_atom_site_type_symbol
_atom_site_fract_x
_atom_site_fract_y
_atom_site_fract_z
Fe1 Fe 0.99831(11) 0.753902(16) 0.64202(13)
C1 C 0.7398(3) 0.72764(15) 0.4049(4)
H1 H 0.7212 0.7713 0.4273
C2 C 1.0318(4) 0.76341(18) 0.2832(5)
H2 H 0.9801 0.7256 0.2686
C3 C 0.7896(3) 0.85353(16) 0.6887(5)
H3 H 0.7527 0.8158 0.7245
C4 C 0.7264(3) 0.91325(17) 0.6933(4)
H4 H 0.6487 0.9149 0.7306
C5 C 0.7789(3) 0.97064(15) 0.6424(4)
C6 C 0.8935(4) 0.96383(17) 0.5850(5)
H5 H 0.9321 1.0007 0.5475
C7 C 0.9502(4) 0.90224(16) 0.5837(5)
H6 H 1.0269 0.8989 0.5445
C8 C 0.7165(3) 1.03639(15) 0.6479(4)
C9 C 0.5937(3) 1.04287(16) 0.6846(5)
H7 H 0.5493 1.0055 0.7090
C10 C 0.5377(3) 1.10457(17) 0.6847(5)
H8 H 0.4555 1.1076 0.7096
C11 C 0.7777(4) 1.09450(16) 0.6157(5)
H9 H 0.8609 1.0932 0.5932
C12 C 0.7138(3) 1.15402(16) 0.6174(4)
H10 H 0.7559 1.1923 0.5938
N1 N 0.5956(3) 1.16024(12) 0.6509(3)
N2 N 0.9005(3) 0.84703(12) 0.6360(3)
O1 O 0.8405(2) 0.70271(10) 0.4923(3)
O2 O 0.6621(2) 0.69888(11) 0.2902(3)
O3 O 1.0696(2) 0.78393(11) 0.4317(3)
O4 O 1.0559(3) 0.78812(16) 0.1566(4)
O5 O 0.9382(3) 0.73151(14) 0.8633(3)
H11 H 0.946(5) 0.7580(16) 0.942(5)
H12 H 0.892(4) 0.6994(13) 0.871(5)
Fe1B Fe 0.49831(11) 1.253902(16) 0.64202(13)
Fe1C Fe 0.49831(11) 0.746098(16) 0.14202(13)
N1B N 1.0956(3) 0.66024(12) 0.6509(3)
O2C O 1.1621(2) 0.80112(11) 0.7902(3)
O6 O 0.7891(3) 0.63516(14) 0.9637(4)
H13 H 0.727(3) 0.660(2) 0.963(5)
H14 H 0.822(5) 0.620(2) 1.057(3)
O7 O 0.6017(4) 0.5754(3) 0.4995(8)
H15 H 0.644(5) 0.5542(19) 0.444(7)
H16 H 0.626(5) 0.6138(10) 0.518(7)
O8 O 0.7346(5) 0.51513(19) 0.7912(5)
H17 H 0.692(4) 0.531(2) 0.703(3)
H18 H 0.761(5) 0.5426(16) 0.865(4)
O9 O 0.8996(3) 0.40816(15) 0.7836(4)
H19 H 0.850(4) 0.4397(15) 0.764(6)
H20 H 0.885(5) 0.383(2) 0.856(5)
loop_
_geom_bond_atom_site_label_1
_geom_bond_atom_site_label_2
_geom_bond_site_symmetry_1
_geom_bond_site_symmetry_2
Fe1 N2 1_555 1_555
C1 H1 1_555 1_555
C2 H2 1_555 1_555
C3 H3 1_555 1_555
C4 C3 1_555 1_555
H4 C4 1_555 1_555
C5 C4 1_555 1_555
C6 C5 1_555 1_555
H5 C6 1_555 1_555
C7 C6 1_555 1_555
H6 C7 1_555 1_555
C8 C5 1_555 1_555
C9 C8 1_555 1_555
H7 C9 1_555 1_555
C10 C9 1_555 1_555
H8 C10 1_555 1_555
C11 C8 1_555 1_555
H9 C11 1_555 1_555
C12 C11 1_555 1_555
H10 C12 1_555 1_555
N1 C10 1_555 1_555
N2 C3 1_555 1_555
O1 Fe1 1_555 1_555
O2 C1 1_555 1_555
O3 Fe1 1_555 1_555
O4 C2 1_555 1_555
O5 Fe1 1_555 1_555
O6 H13 1_555 1_555
O7 H15 1_555 1_555
O8 H17 1_555 1_555
O9 H19 1_555 1_555
H11 O5 1_555 1_555
H12 O5 1_555 1_555
H14 O6 1_555 1_555
H16 O7 1_555 1_555
H18 O8 1_555 1_555
H20 O9 1_555 1_555
Fe1B N1 1_555 1_555
Fe1C O2 1_555 1_555
N1B Fe1 1_555 1_555
O2C Fe1 1_555 1_555
C1 O1 1_555 1_555
C2 O3 1_555 1_555
C7 N2 1_555 1_555
C12 N1 1_555 1_555

#END
