
#######################################################################
#
#                 Cambridge Crystallographic Data Centre
#                                CCDC 
#
#######################################################################
#
# If this CIF has been generated from an entry in the Cambridge 
# Structural Database, then it will include bibliographic, chemical, 
# crystal, experimental, refinement or atomic coordinate data resulting 
# from the CCDC's data processing and validation procedures.
#
#######################################################################

data_YUDBAB
_symmetry_cell_setting           monoclinic
_symmetry_space_group_name_H-M   'P 21/n'
_symmetry_Int_Tables_number      14
_space_group_name_Hall           '-P 2yn'
loop_
_symmetry_equiv_pos_site_id
_symmetry_equiv_pos_as_xyz
1 x,y,z
2 1/2-x,1/2+y,1/2-z
3 -x,-y,-z
4 1/2+x,1/2-y,1/2+z
_cell_length_a                   10.1668(9)
_cell_length_b                   12.6901(10)
_cell_length_c                   17.7561(15)
_cell_angle_alpha                90
_cell_angle_beta                 98.282(2)
_cell_angle_gamma                90
_cell_volume                     2266.96
loop_
_atom_site_label
_atom_site_type_symbol
_atom_site_fract_x
_atom_site_fract_y
_atom_site_fract_z
Cu1 Cu 0.45011(5) 0.12736(4) 0.14939(3)
N1 N 0.8488(5) 0.0956(4) -0.1465(3)
N2 N 0.5730(4) 0.0823(3) 0.0790(2)
N3 N 0.6660(4) 0.0095(3) 0.1101(2)
N4 N 0.9079(4) -0.2442(3) 0.2979(2)
N5 N -0.0461(6) 0.3982(5) -0.0699(3)
N6 N 0.1858(4) 0.1938(3) 0.1565(2)
N7 N 0.2873(4) 0.1353(3) 0.1992(2)
N8 N -0.0686(5) 0.0552(5) 0.3767(3)
O1 O 0.5487(3) 0.0179(3) 0.21289(18)
O2 O 0.3435(3) 0.2143(3) 0.07589(19)
C1 C 0.8020(6) -0.2097(5) 0.3259(3)
H1 H 0.7872 -0.2352 0.3731
C2 C 0.7125(6) -0.1385(5) 0.2895(3)
H2 H 0.6388 -0.1181 0.3115
C3 C 0.7329(5) -0.0981(4) 0.2207(3)
C4 C 0.8411(6) -0.1342(5) 0.1910(3)
H3 H 0.8580 -0.1103 0.1438
C5 C 0.9246(5) -0.2058(5) 0.2309(3)
H4 H 0.9978 -0.2287 0.2094
C6 C 0.6398(4) -0.0174(4) 0.1789(3)
C7 C 0.5774(5) 0.1201(4) 0.0140(3)
H5 H 0.5077 0.1653 -0.0035
C8 C 0.6502(6) 0.1599(4) -0.1066(3)
H6 H 0.5748 0.2018 -0.1173
C9 C 0.7392(7) 0.1520(5) -0.1583(3)
H7 H 0.7206 0.1886 -0.2040
C10 C 0.8711(5) 0.0412(5) -0.0825(3)
H8 H 0.9477 0.0003 -0.0739
C11 C 0.7869(5) 0.0413(5) -0.0270(3)
H9 H 0.8054 0.0000 0.0165
C12 C 0.6744(5) 0.1048(4) -0.0388(3)
C13 C -0.0844(6) 0.3497(6) -0.0102(4)
H10 H -0.1740 0.3526 -0.0050
C14 C -0.0010(5) 0.2958(5) 0.0441(3)
H11 H -0.0341 0.2638 0.0846
C15 C 0.1327(5) 0.2894(4) 0.0380(3)
C16 C 0.1736(6) 0.3383(5) -0.0226(3)
H12 H 0.2626 0.3361 -0.0292
C17 C 0.0836(7) 0.3908(5) -0.0739(3)
H13 H 0.1151 0.4236 -0.1146
C18 C 0.2306(5) 0.2286(4) 0.0952(3)
C19 C 0.2639(5) 0.0860(4) 0.2576(3)
H14 H 0.3361 0.0480 0.2819
C20 C 0.1437(5) 0.0775(4) 0.2942(3)
C21 C 0.0204(5) 0.1244(4) 0.2684(3)
H15 H 0.0063 0.1633 0.2235
C22 C -0.0803(5) 0.1098(5) 0.3133(3)
H16 H -0.1620 0.1413 0.2970
C23 C 0.0472(7) 0.0100(6) 0.3981(4)
H17 H 0.0572 -0.0303 0.4423
C24 C 0.1537(6) 0.0185(5) 0.3596(3)
H18 H 0.2329 -0.0156 0.3777
Cu1A Cu 1.04989(5) -0.37264(4) 0.35061(3)
N4A N 0.5921(4) 0.2558(3) 0.2021(2)
loop_
_geom_bond_atom_site_label_1
_geom_bond_atom_site_label_2
_geom_bond_site_symmetry_1
_geom_bond_site_symmetry_2
Cu1 N2 1_555 1_555
N1 C9 1_555 1_555
N2 N3 1_555 1_555
N3 C6 1_555 1_555
N4 C1 1_555 1_555
N5 C13 1_555 1_555
N6 N7 1_555 1_555
N7 Cu1 1_555 1_555
N8 C22 1_555 1_555
O1 Cu1 1_555 1_555
O2 Cu1 1_555 1_555
C1 H1 1_555 1_555
C2 C1 1_555 1_555
H2 C2 1_555 1_555
C3 C2 1_555 1_555
C4 C3 1_555 1_555
H3 C4 1_555 1_555
C5 N4 1_555 1_555
H4 C5 1_555 1_555
C6 O1 1_555 1_555
C7 N2 1_555 1_555
H5 C7 1_555 1_555
C8 H6 1_555 1_555
C9 C8 1_555 1_555
H7 C9 1_555 1_555
C10 N1 1_555 1_555
H8 C10 1_555 1_555
C11 C10 1_555 1_555
H9 C11 1_555 1_555
C12 C7 1_555 1_555
C13 H10 1_555 1_555
C14 C13 1_555 1_555
H11 C14 1_555 1_555
C15 C14 1_555 1_555
C16 C15 1_555 1_555
H12 C16 1_555 1_555
C17 N5 1_555 1_555
H13 C17 1_555 1_555
C18 N6 1_555 1_555
C19 N7 1_555 1_555
H14 C19 1_555 1_555
C20 C19 1_555 1_555
C21 C20 1_555 1_555
H15 C21 1_555 1_555
C22 C21 1_555 1_555
H16 C22 1_555 1_555
C23 N8 1_555 1_555
H17 C23 1_555 1_555
C24 C20 1_555 1_555
H18 C24 1_555 1_555
Cu1A N4 1_555 1_555
N4A Cu1 1_555 1_555
O2 C18 1_555 1_555
C3 C6 1_555 1_555
C4 C5 1_555 1_555
C8 C12 1_555 1_555
C11 C12 1_555 1_555
C15 C18 1_555 1_555
C16 C17 1_555 1_555
C23 C24 1_555 1_555

#END
