
#######################################################################
#
#                 Cambridge Crystallographic Data Centre
#                                CCDC 
#
#######################################################################
#
# If this CIF has been generated from an entry in the Cambridge 
# Structural Database, then it will include bibliographic, chemical, 
# crystal, experimental, refinement or atomic coordinate data resulting 
# from the CCDC's data processing and validation procedures.
#
#######################################################################

data_YUDCEH
_symmetry_cell_setting           triclinic
_symmetry_space_group_name_H-M   'P -1'
_symmetry_Int_Tables_number      2
_space_group_name_Hall           '-P 1'
loop_
_symmetry_equiv_pos_site_id
_symmetry_equiv_pos_as_xyz
1 x,y,z
2 -x,-y,-z
_cell_length_a                   11.066(2)
_cell_length_b                   17.157(3)
_cell_length_c                   17.935(4)
_cell_angle_alpha                63.73(3)
_cell_angle_beta                 73.87(3)
_cell_angle_gamma                88.05(3)
_cell_volume                     2917.56
loop_
_atom_site_label
_atom_site_type_symbol
_atom_site_fract_x
_atom_site_fract_y
_atom_site_fract_z
O1 O 0.0544(12) 0.0347(8) 0.4467(8)
H1 H 0.1336 0.0357 0.4258
H2 H 0.0154 0.0180 0.4207
N1 N 0.7116(14) -0.0814(8) -0.1226(10)
C1 C 0.7323(12) -0.0342(8) -0.0979(9)
Cd1 Cd 0.75488(3) 0.11486(3) 0.36708(3)
Cd2 Cd -0.16003(3) 0.43696(3) 0.40898(3)
O2 O -0.0387(4) 0.3036(3) 0.4080(3)
O3 O 0.6433(4) 0.2563(3) 0.3508(3)
O4 O -0.3478(4) 0.3511(3) 0.4418(3)
H3 H -0.4105 0.3804 0.4466
H4 H -0.3570 0.3052 0.4894
O5 O -0.2966(4) 0.5542(3) 0.4259(3)
N2 N -0.0228(5) 0.5246(4) 0.1261(4)
O6 O -0.1105(5) 0.9824(3) 0.3879(4)
O7 O -0.0906(4) 0.5829(3) 0.3641(3)
O8 O 0.9396(4) 0.1973(3) 0.3346(4)
H5 H 0.9528 0.2405 0.2846
H6 H 0.9327 0.2156 0.3724
N3 N 0.7099(5) 0.0878(3) 0.5096(4)
N4 N -0.2023(5) 0.3789(3) 0.5571(3)
O9 O -0.3160(5) 0.9737(3) 0.4024(3)
C2 C -0.1995(5) 0.6935(4) 0.3922(4)
O10 O 0.0556(4) 0.4248(3) 0.3892(3)
C3 C -0.3146(5) 0.7251(4) 0.4151(4)
H7 H -0.3900 0.6915 0.4309
O11 O 0.5573(4) 0.1437(3) 0.3475(3)
N5 N -0.1414(5) 0.4714(3) 0.2660(4)
N6 N 0.8386(5) 0.1453(4) 0.2207(4)
N7 N -0.0699(5) 0.4392(3) 0.1581(3)
N8 N 0.6173(5) 0.0341(4) 0.6467(4)
N9 N -0.2147(5) 0.3585(4) 0.6870(3)
C4 C -0.1750(5) 0.4141(4) 0.6035(4)
H8 H -0.1339 0.4697 0.5807
C5 C -0.0871(6) 0.7440(4) 0.3705(5)
H9 H -0.0096 0.7244 0.3538
C6 C -0.3174(6) 0.8061(4) 0.4146(4)
H10 H -0.3945 0.8278 0.4274
C7 C 0.4242(5) 0.2512(4) 0.3591(4)
C8 C 0.3142(5) 0.1971(4) 0.3825(4)
H11 H 0.3199 0.1400 0.3898
C9 C -0.1392(6) 0.4097(4) 0.2399(4)
H12 H -0.1808 0.3536 0.2744
C10 C 0.1970(5) 0.2286(4) 0.3946(4)
H13 H 0.1244 0.1923 0.4103
C11 C -0.1950(6) 0.6053(4) 0.3936(4)
C12 C 0.5498(5) 0.2148(4) 0.3516(4)
C13 C 0.1869(5) 0.3140(4) 0.3834(4)
C14 C -0.2110(7) 0.9428(4) 0.3964(4)
C15 C 0.6119(6) 0.0378(4) 0.5744(4)
H14 H 0.5478 0.0091 0.5686
C16 C 0.2963(5) 0.3674(4) 0.3590(4)
H15 H 0.2908 0.4248 0.3506
C17 C 0.0600(5) 0.3492(4) 0.3943(4)
N10 N 0.8693(6) 0.1848(4) 0.0835(4)
N11 N -0.2722(6) 0.2827(4) 0.6974(4)
C18 C -0.2052(6) 0.8551(4) 0.3950(4)
C19 C 0.4132(5) 0.3364(4) 0.3472(4)
H16 H 0.4855 0.3731 0.3311
C20 C -0.0700(6) 0.5404(4) 0.1932(4)
H17 H -0.0558 0.5945 0.1911
C21 C -0.2055(6) 0.3710(5) 0.7606(4)
H18 H -0.1331 0.4128 0.7414
H19 H -0.1908 0.3160 0.8045
C22 C 0.0956(6) 0.3606(4) 0.1046(4)
C23 C -0.0331(6) 0.3906(5) 0.1076(5)
H20 H -0.0357 0.4273 0.0486
H21 H -0.0944 0.3400 0.1324
C24 C 0.7950(6) 0.1898(4) 0.1545(5)
H22 H 0.7238 0.2202 0.1563
C25 C -0.4325(6) 0.4090(5) 0.7784(5)
H23 H -0.4389 0.3884 0.7395
C26 C -0.3142(6) 0.4340(5) 0.8589(5)
H24 H -0.2397 0.4309 0.8741
C27 C -0.3225(6) 0.4032(4) 0.8015(4)
N12 N 0.9618(6) 0.1344(5) 0.1028(5)
C28 C 0.4552(6) 0.0451(4) 0.7681(4)
C29 C -0.0909(6) 0.8231(4) 0.3739(5)
H25 H -0.0158 0.8551 0.3618
C30 C 0.1584(6) 0.3581(5) 0.1613(5)
H26 H 0.1216 0.3775 0.2026
C31 C 0.1481(7) 0.3293(5) 0.0449(5)
H27 H 0.1043 0.3290 0.0076
C32 C 0.3297(7) 0.2961(5) 0.0990(5)
C33 C -0.5336(7) 0.4453(5) 0.8126(5)
H28 H -0.6082 0.4481 0.7977
C34 C 0.8240(7) 0.1564(6) -0.0300(6)
C35 C -0.2618(7) 0.3000(5) 0.6176(5)
H29 H -0.2934 0.2606 0.6033
C36 C -0.4125(7) 0.4690(5) 0.8939(5)
H30 H -0.4065 0.4875 0.9344
N13 N 0.7238(6) 0.0834(5) 0.6342(4)
C37 C 0.5146(6) 0.1073(5) 0.7791(5)
H31 H 0.6023 0.1121 0.7664
C38 C 0.2753(7) 0.3273(5) 0.1580(5)
H32 H 0.3178 0.3276 0.1960
C39 C 0.8584(8) 0.2243(6) -0.0051(5)
H33 H 0.9382 0.2572 -0.0455
H34 H 0.7942 0.2647 -0.0095
C40 C 0.3178(7) 0.1566(5) 0.8249(5)
C41 C 0.3245(7) 0.0413(5) 0.7860(5)
H35 H 0.2824 0.0000 0.7791
C42 C -0.5222(7) 0.4770(5) 0.8688(5)
C43 C 0.2670(7) 0.2980(5) 0.0407(5)
H36 H 0.3039 0.2786 -0.0006
C44 C 0.7733(7) 0.1149(5) 0.5495(5)
H37 H 0.8470 0.1532 0.5192
C45 C 0.5284(7) -0.0139(5) 0.7348(5)
H38 H 0.5755 -0.0484 0.7745
H39 H 0.4695 -0.0538 0.7339
C46 C 0.4478(7) 0.1618(5) 0.8083(5)
H40 H 0.4893 0.2020 0.8169
C47 C 0.9408(7) 0.1124(5) 0.1867(5)
H41 H 0.9916 0.0775 0.2192
C48 C 0.2467(8) 0.2179(6) 0.8507(6)
C49 C -0.6221(8) 0.5223(6) 0.8996(6)
C50 C 0.4513(8) 0.2638(6) 0.0955(6)
C51 C 0.2563(7) 0.0964(5) 0.8134(5)
H42 H 0.1689 0.0933 0.8242
N14 N 0.5473(8) 0.2378(6) 0.0945(6)
N15 N 0.1895(8) 0.2659(6) 0.8732(6)
N16 N -0.6991(8) 0.5589(7) 0.9250(6)
C52 C 0.7610(10) 0.0308(7) -0.0743(8)
C53 C 0.7048(10) 0.1317(8) -0.0194(8)
H43 H 0.6393 0.1571 0.0042
C54 C 0.6762(11) 0.0695(8) -0.0428(8)
H44 H 0.5919 0.0552 -0.0353
C55 C 0.9091(11) 0.1131(8) -0.0597(8)
H45 H 0.9939 0.1262 -0.0675
C56 C 0.8757(13) 0.0476(9) -0.0799(10)
H46 H 0.9379 0.0163 -0.0975
Cd1_2 Cd -0.24512(3) 1.11486(3) 0.36708(3)
O6_2 O 0.8895(5) -0.0176(3) 0.3879(4)
O9_2 O 0.6840(5) -0.0263(3) 0.4024(3)
O12 O 0.1331(8) 0.1014(6) 0.2995(6)
H47 H 0.0936 0.1446 0.2761
H48 H 0.2047 0.1059 0.2638
O13 O 0.4888(4) 0.4819(3) 0.4143(3)
H49 H 0.4346 0.4606 0.4643
H50 H 0.5494 0.5113 0.4140
loop_
_geom_bond_atom_site_label_1
_geom_bond_atom_site_label_2
_geom_bond_site_symmetry_1
_geom_bond_site_symmetry_2
O1 H1 1_555 1_555
H2 O1 1_555 1_555
N1 C1 1_555 1_555
C1 C52 1_555 1_555
Cd1 O3 1_555 1_555
Cd2 O2 1_555 1_555
O2 C17 1_555 1_555
O3 C12 1_555 1_555
O4 Cd2 1_555 1_555
H3 O4 1_555 1_555
H4 O4 1_555 1_555
O5 Cd2 1_555 1_555
N2 N7 1_555 1_555
O6 C14 1_555 1_555
O7 Cd2 1_555 1_555
O8 Cd1 1_555 1_555
H5 O8 1_555 1_555
H6 O8 1_555 1_555
N3 Cd1 1_555 1_555
N4 Cd2 1_555 1_555
O9 C14 1_555 1_555
C2 C3 1_555 1_555
O10 Cd2 1_555 1_555
C3 H7 1_555 1_555
O11 Cd1 1_555 1_555
N5 Cd2 1_555 1_555
N6 Cd1 1_555 1_555
N7 C9 1_555 1_555
N8 C15 1_555 1_555
N9 C4 1_555 1_555
C4 N4 1_555 1_555
H8 C4 1_555 1_555
C5 C2 1_555 1_555
H9 C5 1_555 1_555
C6 C3 1_555 1_555
H10 C6 1_555 1_555
C7 C8 1_555 1_555
C8 H11 1_555 1_555
C9 N5 1_555 1_555
H12 C9 1_555 1_555
C10 C8 1_555 1_555
H13 C10 1_555 1_555
C11 O5 1_555 1_555
C12 O11 1_555 1_555
C13 C10 1_555 1_555
C14 C18 1_555 1_555
C15 N3 1_555 1_555
H14 C15 1_555 1_555
C16 C13 1_555 1_555
H15 C16 1_555 1_555
C17 O10 1_555 1_555
N10 C24 1_555 1_555
N11 N9 1_555 1_555
C18 C6 1_555 1_555
C19 C7 1_555 1_555
H16 C19 1_555 1_555
C20 N2 1_555 1_555
H17 C20 1_555 1_555
C21 N9 1_555 1_555
H18 C21 1_555 1_555
H19 C21 1_555 1_555
C22 C23 1_555 1_555
C23 N7 1_555 1_555
H20 C23 1_555 1_555
H21 C23 1_555 1_555
C24 N6 1_555 1_555
H22 C24 1_555 1_555
C25 H23 1_555 1_555
C26 H24 1_555 1_555
C27 C21 1_555 1_555
N12 N10 1_555 1_555
C28 C37 1_555 1_555
C29 C5 1_555 1_555
H25 C29 1_555 1_555
C30 C22 1_555 1_555
H26 C30 1_555 1_555
C31 C22 1_555 1_555
H27 C31 1_555 1_555
C32 C38 1_555 1_555
C33 C25 1_555 1_555
H28 C33 1_555 1_555
C34 C39 1_555 1_555
C35 N4 1_555 1_555
H29 C35 1_555 1_555
C36 C26 1_555 1_555
H30 C36 1_555 1_555
N13 N8 1_555 1_555
C37 H31 1_555 1_555
C38 C30 1_555 1_555
H32 C38 1_555 1_555
C39 N10 1_555 1_555
H33 C39 1_555 1_555
H34 C39 1_555 1_555
C40 C46 1_555 1_555
C41 C28 1_555 1_555
H35 C41 1_555 1_555
C42 C33 1_555 1_555
C43 C31 1_555 1_555
H36 C43 1_555 1_555
C44 N3 1_555 1_555
H37 C44 1_555 1_555
C45 N8 1_555 1_555
H38 C45 1_555 1_555
H39 C45 1_555 1_555
C46 C37 1_555 1_555
H40 C46 1_555 1_555
C47 N6 1_555 1_555
H41 C47 1_555 1_555
C48 C40 1_555 1_555
C49 C42 1_555 1_555
C50 C32 1_555 1_555
C51 C40 1_555 1_555
H42 C51 1_555 1_555
N14 C50 1_555 1_555
N15 C48 1_555 1_555
N16 C49 1_555 1_555
C52 C54 1_555 1_555
C53 C34 1_555 1_555
H43 C53 1_555 1_555
C54 C53 1_555 1_555
H44 C54 1_555 1_555
C55 C34 1_555 1_555
H45 C55 1_555 1_555
C56 C52 1_555 1_555
H46 C56 1_555 1_555
O12 H47 1_555 1_555
H48 O12 1_555 1_555
O13 H49 1_555 1_555
H50 O13 1_555 1_555
Cd1_2 O6 1_555 1_555
O6_2 Cd1 1_555 1_555
O9_2 Cd1 1_555 1_555
O7 C11 1_555 1_555
O9 Cd1_2 1_555 1_555
C2 C11 1_555 1_555
N5 C20 1_555 1_555
C7 C12 1_555 1_555
C13 C17 1_555 1_555
C16 C19 1_555 1_555
N11 C35 1_555 1_555
C18 C29 1_555 1_555
C25 C27 1_555 1_555
C26 C27 1_555 1_555
N12 C47 1_555 1_555
C28 C45 1_555 1_555
C32 C43 1_555 1_555
C36 C42 1_555 1_555
N13 C44 1_555 1_555
C41 C51 1_555 1_555
C55 C56 1_555 1_555

#END
