
#######################################################################
#
#                 Cambridge Crystallographic Data Centre
#                                CCDC 
#
#######################################################################
#
# If this CIF has been generated from an entry in the Cambridge 
# Structural Database, then it will include bibliographic, chemical, 
# crystal, experimental, refinement or atomic coordinate data resulting 
# from the CCDC's data processing and validation procedures.
#
#######################################################################

data_YUDCAD
_symmetry_cell_setting           orthorhombic
_symmetry_space_group_name_H-M   'P b c a'
_symmetry_Int_Tables_number      61
_space_group_name_Hall           '-P 2ac 2ab'
loop_
_symmetry_equiv_pos_site_id
_symmetry_equiv_pos_as_xyz
1 x,y,z
2 1/2-x,-y,1/2+z
3 -x,1/2+y,1/2-z
4 1/2+x,1/2-y,-z
5 -x,-y,-z
6 1/2+x,y,1/2-z
7 x,1/2-y,1/2+z
8 1/2-x,1/2+y,z
_cell_length_a                   13.696(3)
_cell_length_b                   12.414(3)
_cell_length_c                   20.618(4)
_cell_angle_alpha                90
_cell_angle_beta                 90
_cell_angle_gamma                90
_cell_volume                     3505.52
loop_
_atom_site_label
_atom_site_type_symbol
_atom_site_fract_x
_atom_site_fract_y
_atom_site_fract_z
Cd1 Cd 1.040915(14) 0.068942(14) 0.224364(8)
O1 O 1.04280(18) 0.20286(17) 0.30119(9)
O2 O 1.06427(18) 0.04358(17) 0.34406(10)
O3 O 1.05961(15) -0.11999(16) 0.23215(9)
H1 H 1.1147 -0.1342 0.2492
H2 H 1.0143 -0.1456 0.2557
O4 O 1.01947(16) 0.42988(15) 0.61354(9)
O5 O 1.05620(19) 0.27247(17) 0.65537(9)
C1 C 1.0380(2) 0.3307(2) 0.60785(11)
C2 C 1.04040(19) 0.2813(2) 0.54080(11)
C3 C 1.0356(2) 0.3463(2) 0.48654(12)
H3 H 1.0294 0.4205 0.4915
C4 C 1.0399(2) 0.3024(2) 0.42469(12)
H4 H 1.0370 0.3470 0.3885
C5 C 1.04843(19) 0.1919(2) 0.41689(11)
C6 C 1.0527(2) 0.1264(2) 0.47140(12)
H5 H 1.0586 0.0522 0.4666
C7 C 1.0483(2) 0.1710(2) 0.53284(12)
H6 H 1.0507 0.1264 0.5691
C8 C 1.05289(19) 0.1422(2) 0.34998(12)
C9 C 0.8576(2) -0.0443(2) 0.29513(14)
H7 H 0.9031 -0.0945 0.3094
C10 C 0.7875(2) 0.0824(2) 0.24573(13)
H8 H 0.7769 0.1394 0.2173
C11 C 0.7254(2) -0.0871(2) 0.37468(12)
H9 H 0.7544 -0.1579 0.3798
H10 H 0.6558 -0.0969 0.3681
C12 C 0.7415(2) -0.0227(2) 0.43629(13)
C13 C 0.7926(2) 0.0733(2) 0.43775(15)
H11 H 0.8174 0.1021 0.3995
C14 C 0.8071(3) 0.1267(3) 0.49578(16)
H12 H 0.8417 0.1911 0.4964
C15 C 0.7706(3) 0.0849(3) 0.55284(15)
C16 C 0.7192(3) -0.0112(3) 0.55213(14)
H13 H 0.6948 -0.0400 0.5905
C17 C 0.7045(2) -0.0634(3) 0.49399(14)
H14 H 0.6691 -0.1274 0.4934
C18 C 0.7871(3) 0.1411(3) 0.61353(17)
N1 N 0.87403(19) 0.02897(19) 0.24949(11)
N2 N 0.72000(17) 0.04666(18) 0.28567(10)
N3 N 0.76684(17) -0.03578(18) 0.31753(10)
N4 N 0.8003(3) 0.1863(3) 0.66047(17)
Cd1E Cd 0.540915(14) 0.068942(14) 0.275636(8)
Cd1F Cd 1.040915(14) 0.431058(14) 0.724364(8)
O4F O 1.01947(16) 0.07012(15) 0.11354(9)
O5F O 1.05620(19) 0.22753(17) 0.15537(9)
N2E N 1.22000(17) 0.04666(18) 0.21433(10)
loop_
_geom_bond_atom_site_label_1
_geom_bond_atom_site_label_2
_geom_bond_site_symmetry_1
_geom_bond_site_symmetry_2
Cd1 O1 1_555 1_555
O1 C8 1_555 1_555
O2 Cd1 1_555 1_555
O3 Cd1 1_555 1_555
H1 O3 1_555 1_555
H2 O3 1_555 1_555
O4 C1 1_555 1_555
O5 C1 1_555 1_555
C1 C2 1_555 1_555
C2 C3 1_555 1_555
C3 H3 1_555 1_555
C4 C3 1_555 1_555
H4 C4 1_555 1_555
C5 C4 1_555 1_555
C6 C5 1_555 1_555
H5 C6 1_555 1_555
C7 C2 1_555 1_555
H6 C7 1_555 1_555
C8 O2 1_555 1_555
C9 H7 1_555 1_555
C10 H8 1_555 1_555
C11 H9 1_555 1_555
H10 C11 1_555 1_555
C12 C11 1_555 1_555
C13 C12 1_555 1_555
H11 C13 1_555 1_555
C14 C13 1_555 1_555
H12 C14 1_555 1_555
C15 C14 1_555 1_555
C16 C15 1_555 1_555
H13 C16 1_555 1_555
C17 C12 1_555 1_555
H14 C17 1_555 1_555
C18 C15 1_555 1_555
N1 Cd1 1_555 1_555
N2 C10 1_555 1_555
N3 C9 1_555 1_555
N4 C18 1_555 1_555
Cd1E N2 1_555 1_555
Cd1F O4 1_555 1_555
O4F Cd1 1_555 1_555
O5F Cd1 1_555 1_555
N2E Cd1 1_555 1_555
O5 Cd1F 1_555 1_555
C5 C8 1_555 1_555
C6 C7 1_555 1_555
C9 N1 1_555 1_555
C10 N1 1_555 1_555
C11 N3 1_555 1_555
C16 C17 1_555 1_555
N2 N3 1_555 1_555

#END
