
#######################################################################
#
#                 Cambridge Crystallographic Data Centre
#                                CCDC 
#
#######################################################################
#
# If this CIF has been generated from an entry in the Cambridge 
# Structural Database, then it will include bibliographic, chemical, 
# crystal, experimental, refinement or atomic coordinate data resulting 
# from the CCDC's data processing and validation procedures.
#
#######################################################################

data_YUDDOR
_symmetry_cell_setting           triclinic
_symmetry_space_group_name_H-M   'P -1'
_symmetry_Int_Tables_number      2
_space_group_name_Hall           '-P 1'
loop_
_symmetry_equiv_pos_site_id
_symmetry_equiv_pos_as_xyz
1 x,y,z
2 -x,-y,-z
_cell_length_a                   6.8793(17)
_cell_length_b                   7.644(2)
_cell_length_c                   8.026(3)
_cell_angle_alpha                101.51(2)
_cell_angle_beta                 112.03(2)
_cell_angle_gamma                92.82(3)
_cell_volume                     379.776
loop_
_atom_site_label
_atom_site_type_symbol
_atom_site_fract_x
_atom_site_fract_y
_atom_site_fract_z
Co1 Co 0.0000 0.5000 0.5000
Co2 Co 0.5000 1.0000 0.5000
O1 O 0.2944(3) 0.6128(3) 0.5305(2)
O2 O 0.5960(3) 0.7970(3) 0.6380(2)
O3 O 0.7892(3) 0.3575(3) 1.0426(2)
O4 O 0.8770(3) 0.6109(3) 1.2664(2)
O5 O -0.0018(3) 0.2402(3) 0.3366(3)
O6 O 0.2449(3) 0.8438(3) 0.2860(3)
O7 O 0.2892(4) 1.0519(3) 0.6454(3)
C1 C 0.4824(4) 0.6640(4) 0.6432(3)
C2 C 0.5795(4) 0.5610(4) 0.7870(4)
C3 C 0.7224(4) 0.6340(4) 0.9549(4)
C4 C 0.8021(4) 0.5255(4) 1.0966(3)
H1 H 0.524(5) 0.430(5) 0.736(4)
H2 H 0.766(4) 0.758(4) 0.991(4)
H3 H 0.109(8) 0.228(6) 0.330(6)
H4 H -0.063(6) 0.259(5) 0.242(5)
H5 H 0.242(6) 0.780(6) 0.182(6)
H6 H 0.195(7) 0.767(6) 0.316(6)
H7 H 0.253(5) 1.142(6) 0.669(5)
H8 H 0.209(6) 0.977(6) 0.652(5)
Co1_2 Co 1.0000 0.5000 1.5000
Co1_3 Co -1.0000 0.5000 -0.5000
Co2_2 Co -0.5000 0.0000 0.5000
O1A O -0.2944(3) 0.3872(3) 0.4695(2)
O2A O -0.5960(3) 0.2030(3) 0.3620(2)
O2A_2 O 0.4040(3) 1.2030(3) 0.3620(2)
O3A O -0.7892(3) 0.6425(3) -0.0426(2)
O4A O -0.8770(3) 0.3891(3) -0.2664(2)
O4_2 O -0.1230(3) 0.6109(3) 0.2664(2)
O4A_2 O 0.1230(3) 0.3891(3) 0.7336(2)
O5A O 0.0018(3) 0.7598(3) 0.6634(3)
O6A O 0.7551(3) 1.1562(3) 0.7140(3)
O7A O 0.7108(4) 0.9481(3) 0.3546(3)
C1A C -0.4824(4) 0.3360(4) 0.3568(3)
C2A C -0.5795(4) 0.4390(4) 0.2130(4)
C3A C -0.7224(4) 0.3660(4) 0.0451(4)
C4A C -0.8021(4) 0.4745(4) -0.0966(3)
H1A H -0.524(5) 0.570(5) 0.264(4)
H2A H -0.766(4) 0.242(4) 0.009(4)
H3A H -0.109(8) 0.772(6) 0.670(6)
H4A H 0.063(6) 0.741(5) 0.758(5)
H5A H 0.758(6) 1.220(6) 0.818(6)
H6A H 0.805(7) 1.233(6) 0.684(6)
H7A H 0.747(5) 0.858(6) 0.331(5)
H8A H 0.791(6) 1.023(6) 0.348(5)
loop_
_geom_bond_atom_site_label_1
_geom_bond_atom_site_label_2
_geom_bond_site_symmetry_1
_geom_bond_site_symmetry_2
Co1 O1 1_555 1_555
Co2 O2 1_555 1_555
O1 C1 1_555 1_555
O2 C1 1_555 1_555
O3 C4 1_555 1_555
O4 C4 1_555 1_555
O5 Co1 1_555 1_555
O6 Co2 1_555 1_555
O7 Co2 1_555 1_555
C1 C2 1_555 1_555
C2 C3 1_555 1_555
C3 C4 1_555 1_555
H1 C2 1_555 1_555
H2 C3 1_555 1_555
H3 O5 1_555 1_555
H4 O5 1_555 1_555
H5 O6 1_555 1_555
H6 O6 1_555 1_555
H7 O7 1_555 1_555
H8 O7 1_555 1_555
Co1_2 O4 1_555 1_555
Co1_3 O4A 1_555 1_555
Co2_2 O2A 1_555 1_555
O1A Co1 1_555 1_555
O2A C1A 1_555 1_555
O2A_2 Co2 1_555 1_555
O3A C4A 1_555 1_555
O4A C4A 1_555 1_555
O4_2 Co1 1_555 1_555
O4A_2 Co1 1_555 1_555
O5A Co1 1_555 1_555
O6A Co2 1_555 1_555
O7A Co2 1_555 1_555
C1A O1A 1_555 1_555
C2A C1A 1_555 1_555
C3A C2A 1_555 1_555
C4A C3A 1_555 1_555
H1A C2A 1_555 1_555
H2A C3A 1_555 1_555
H3A O5A 1_555 1_555
H4A O5A 1_555 1_555
H5A O6A 1_555 1_555
H6A O6A 1_555 1_555
H7A O7A 1_555 1_555
H8A O7A 1_555 1_555

#END
