
#######################################################################
#
#                 Cambridge Crystallographic Data Centre
#                                CCDC 
#
#######################################################################
#
# If this CIF has been generated from an entry in the Cambridge 
# Structural Database, then it will include bibliographic, chemical, 
# crystal, experimental, refinement or atomic coordinate data resulting 
# from the CCDC's data processing and validation procedures.
#
#######################################################################

data_YUDFOU
_symmetry_cell_setting           monoclinic
_symmetry_space_group_name_H-M   'C 2/c'
_symmetry_Int_Tables_number      15
_space_group_name_Hall           '-C 2yn'
loop_
_symmetry_equiv_pos_site_id
_symmetry_equiv_pos_as_xyz
1 x,y,z
2 -x,y,1/2-z
3 1/2+x,1/2+y,z
4 1/2-x,1/2+y,1/2-z
5 -x,-y,-z
6 x,-y,1/2+z
7 1/2-x,1/2-y,-z
8 1/2+x,1/2-y,1/2+z
_cell_length_a                   25.466(5)
_cell_length_b                   14.961(5)
_cell_length_c                   26.140(5)
_cell_angle_alpha                90
_cell_angle_beta                 94.842(5)
_cell_angle_gamma                90
_cell_volume                     9923.71
loop_
_atom_site_label
_atom_site_type_symbol
_atom_site_fract_x
_atom_site_fract_y
_atom_site_fract_z
Gd1 Gd 0.348238(18) 0.26371(3) 0.006582(18)
C1 C 0.2432(4) 0.3197(6) -0.0799(4)
C2 C 0.2555(4) 0.3515(7) -0.1317(4)
C3 C 0.2201(4) 0.3387(7) -0.1748(4)
H1 H 0.1878 0.3114 -0.1711
C4 C 0.2322(4) 0.3659(7) -0.2227(4)
C5 C 0.2780(4) 0.4124(7) -0.2315(4)
C6 C 0.3121(4) 0.4249(7) -0.1875(4)
C7 C 0.3039(4) 0.3943(7) -0.1384(4)
H2 H 0.3294 0.4018 -0.1111
C8 C 0.2918(4) 0.4413(7) -0.2844(4)
C9 C 0.2738(4) 0.5245(8) -0.3054(4)
C10 C 0.2873(4) 0.5558(8) -0.3512(4)
H3 H 0.2754 0.6116 -0.3629
C11 C 0.3182(4) 0.5061(7) -0.3802(4)
C12 C 0.3371(4) 0.4233(7) -0.3614(4)
H4 H 0.3589 0.3890 -0.3804
C13 C 0.3232(4) 0.3932(7) -0.3145(4)
C14 C 0.3347(4) 0.5384(7) -0.4321(4)
C15 C 0.3691(4) 0.1825(7) -0.1126(4)
C16 C 0.4078(4) 0.1913(6) -0.1541(3)
C17 C 0.4042(4) 0.1361(6) -0.1957(4)
H5 H 0.3780 0.0927 -0.1990
C18 C 0.4393(4) 0.1442(6) -0.2332(4)
C19 C 0.4801(3) 0.2065(7) -0.2304(4)
C20 C 0.4825(4) 0.2627(6) -0.1869(4)
C21 C 0.4470(4) 0.2555(6) -0.1493(4)
H6 H 0.4497 0.2937 -0.1211
C22 C 0.4170(8) 0.343(2) 0.1795(10)
H7 H 0.4303 0.3624 0.2132
H8 H 0.4118 0.2796 0.1796
H9 H 0.3841 0.3724 0.1700
C23 C 0.4968(9) 0.4185(17) 0.1620(10)
H10 H 0.4982 0.4257 0.1986
H11 H 0.4935 0.4761 0.1459
H12 H 0.5285 0.3901 0.1529
C24 C 0.4445(5) 0.3438(10) 0.0972(5)
N1 N 0.3627(4) 0.4720(7) -0.1918(4)
N2 N 0.1927(4) 0.3449(6) -0.2653(3)
N3 N 0.2398(4) 0.5818(8) -0.2759(4)
N4 N 0.3432(4) 0.3011(9) -0.2992(6)
N5 N 0.5248(3) 0.3286(6) -0.1772(4)
N6 N 0.4317(3) 0.0849(6) -0.2780(4)
N7 N 0.4523(4) 0.3646(7) 0.1451(4)
O1 O 0.2778(3) 0.3201(4) -0.0445(3)
O2 O 0.1958(3) 0.2919(5) -0.0763(3)
O3 O 0.3936(4) 0.3943(5) -0.0228(3)
O4 O 0.4010(3) 0.4471(6) -0.1630(3)
O5 O 0.4114(4) 0.1476(8) 0.0190(6)
O6 O 0.3633(3) 0.5336(6) -0.2219(3)
O7 O 0.3000(3) 0.1312(4) -0.0274(3)
O8 O 0.1486(3) 0.3207(6) -0.2561(3)
O9 O 0.2065(3) 0.3454(7) -0.3099(3)
O10 O 0.3463(4) 0.2875(9) -0.2533(5)
O11 O 0.3563(5) 0.2508(6) -0.3318(5)
O12 O 0.2046(3) 0.5462(7) -0.2555(4)
O13 O 0.2513(4) 0.6624(7) -0.2745(3)
O14 O 0.3687(4) 0.4923(5) -0.4514(3)
O15 O 0.3143(3) 0.6088(5) -0.4494(3)
O16 O 0.3782(3) 0.2304(5) -0.0740(3)
O17 O 0.3321(3) 0.1298(5) -0.1210(3)
O18 O 0.5342(3) 0.3569(7) -0.1348(3)
O19 O 0.5484(3) 0.3526(5) -0.2141(3)
O20 O 0.4121(4) 0.0121(6) -0.2702(3)
O21 O 0.4431(3) 0.1116(5) -0.3198(3)
O22 O 0.4090(4) 0.3005(7) 0.0797(5)
C15A C 0.6309(4) 0.1825(7) -0.3874(4)
C16A C 0.5922(4) 0.1913(6) -0.3459(3)
C17A C 0.5958(4) 0.1361(6) -0.3043(4)
H5A H 0.6220 0.0927 -0.3010
C18A C 0.5607(4) 0.1442(6) -0.2668(4)
C19A C 0.5199(3) 0.2065(7) -0.2696(4)
C20A C 0.5175(4) 0.2627(6) -0.3131(4)
C21A C 0.5530(4) 0.2555(6) -0.3507(4)
H6A H 0.5503 0.2937 -0.3789
N5A N 0.4752(3) 0.3286(6) -0.3228(4)
N6A N 0.5683(3) 0.0849(6) -0.2220(4)
O16A O 0.6218(3) 0.2304(5) -0.4260(3)
O17A O 0.6679(3) 0.1298(5) -0.3790(3)
O18A O 0.4658(3) 0.3569(7) -0.3652(3)
O19A O 0.4516(3) 0.3526(5) -0.2859(3)
O20A O 0.5879(4) 0.0121(6) -0.2298(3)
O21A O 0.5569(3) 0.1116(5) -0.1802(3)
Gd1A Gd 0.651762(18) 0.26371(3) -0.506582(18)
C1A C 0.7568(4) 0.3197(6) -0.4201(4)
C2A C 0.7445(4) 0.3515(7) -0.3683(4)
C3A C 0.7799(4) 0.3387(7) -0.3252(4)
H1A H 0.8122 0.3114 -0.3289
C4A C 0.7678(4) 0.3659(7) -0.2773(4)
C5A C 0.7220(4) 0.4124(7) -0.2685(4)
C6A C 0.6879(4) 0.4249(7) -0.3125(4)
C7A C 0.6961(4) 0.3943(7) -0.3616(4)
H2A H 0.6706 0.4018 -0.3889
C8A C 0.7082(4) 0.4413(7) -0.2156(4)
C9A C 0.7262(4) 0.5245(8) -0.1946(4)
C10A C 0.7127(4) 0.5558(8) -0.1488(4)
H3A H 0.7246 0.6116 -0.1371
C11A C 0.6818(4) 0.5061(7) -0.1198(4)
C12A C 0.6629(4) 0.4233(7) -0.1386(4)
H4A H 0.6411 0.3890 -0.1196
C13A C 0.6768(4) 0.3932(7) -0.1855(4)
C14A C 0.6653(4) 0.5384(7) -0.0679(4)
C22A C 0.5830(8) 0.343(2) -0.6795(10)
H7A H 0.5697 0.3624 -0.7132
H8A H 0.5882 0.2796 -0.6796
H9A H 0.6159 0.3724 -0.6700
C23A C 0.5032(9) 0.4185(17) -0.6620(10)
H10A H 0.5018 0.4257 -0.6986
H11A H 0.5065 0.4761 -0.6459
H12A H 0.4715 0.3901 -0.6529
C24A C 0.5555(5) 0.3438(10) -0.5972(5)
N1A N 0.6373(4) 0.4720(7) -0.3082(4)
N2A N 0.8073(4) 0.3449(6) -0.2347(3)
N3A N 0.7602(4) 0.5818(8) -0.2241(4)
N4A N 0.6568(4) 0.3011(9) -0.2008(6)
N7A N 0.5477(4) 0.3646(7) -0.6451(4)
O1A O 0.7222(3) 0.3201(4) -0.4555(3)
O2A O 0.8042(3) 0.2919(5) -0.4237(3)
O3A O 0.6064(4) 0.3943(5) -0.4772(3)
O4A O 0.5990(3) 0.4471(6) -0.3370(3)
O5A O 0.5886(4) 0.1476(8) -0.5190(6)
O6A O 0.6367(3) 0.5336(6) -0.2781(3)
O7A O 0.7000(3) 0.1312(4) -0.4726(3)
O8A O 0.8514(3) 0.3207(6) -0.2439(3)
O9A O 0.7935(3) 0.3454(7) -0.1901(3)
O10A O 0.6537(4) 0.2875(9) -0.2467(5)
O11A O 0.6437(5) 0.2508(6) -0.1682(5)
O12A O 0.7954(3) 0.5462(7) -0.2445(4)
O13A O 0.7487(4) 0.6624(7) -0.2255(3)
O14A O 0.6313(4) 0.4923(5) -0.0486(3)
O15A O 0.6857(3) 0.6088(5) -0.0506(3)
O22A O 0.5910(4) 0.3005(7) -0.5797(5)
Gd1D Gd 0.651762(18) 0.73629(3) -0.006582(18)
Gd1E Gd 0.348238(18) 0.73629(3) -0.493418(18)
Gd1F Gd 0.151762(18) 0.23629(3) -0.006582(18)
Gd1G Gd 0.848238(18) 0.23629(3) -0.493418(18)
O2F O 0.3042(3) 0.2081(5) 0.0763(3)
O2G O 0.6958(3) 0.2081(5) -0.5763(3)
O15D O 0.6857(3) 0.3912(5) -0.5506(3)
O15E O 0.3143(3) 0.3912(5) 0.0506(3)
C25 C 0.3649(8) 0.665(2) -0.1180(10)
H13 H 0.3676 0.6894 -0.1503
C26 C 0.3141 0.6342 -0.1077
C27 C 0.3078(7) 0.5859(11) -0.0610(5)
H14 H 0.3355 0.5802 -0.0356
C28 C 0.2589 0.5479 -0.0551
H15 H 0.2551 0.5130 -0.0262
C29 C 0.2140 0.5596 -0.0911
C30 C 0.1634 0.5189 -0.0859
H16 H 0.1630 0.4933 -0.0522
H17 H 0.1572 0.4729 -0.1113
H18 H 0.1363 0.5634 -0.0907
C31 C 0.2685(10) 0.6305(13) -0.1431(8)
H19 H 0.2738 0.6540 -0.1753
C32 C 0.2180(11) 0.5988(14) -0.1392(9)
H20 H 0.1906 0.6029 -0.1649
O23 O 0.4040(7) 0.6628(11) -0.0908(7)
C33 C 0.5436(11) 0.3595(10) -0.0157(7)
H21 H 0.5723 0.3935 -0.0029
C34 C 0.6171(11) 0.257(2) -0.0415(16)
H22 H 0.6296 0.2018 -0.0257
H23 H 0.6397 0.3049 -0.0294
H24 H 0.6175 0.2516 -0.0781
C35 C 0.5265(10) 0.1951(18) -0.0214(12)
H25 H 0.5440 0.1422 -0.0320
H26 H 0.4938 0.2024 -0.0420
H27 H 0.5197 0.1895 0.0140
N8 N 0.5609(8) 0.2748(13) -0.0279(9)
O24 O 0.5007(7) 0.408(2) -0.0158(10)
C36 C 0.5682(17) 0.100(3) 0.132(2)
H28 H 0.6025 0.1048 0.1191
H29 H 0.5717 0.0806 0.1666
H30 H 0.5513 0.1577 0.1294
C37 C 0.5459(10) -0.0177(17) 0.0532(8)
H31 H 0.5810 -0.0068 0.0439
H32 H 0.5210 -0.0002 0.0254
H33 H 0.5418 -0.0801 0.0603
C38 C 0.4827(10) 0.042(4) 0.109(3)
H34 H 0.4595 -0.0005 0.0942
N9 N 0.5365 0.0359 0.1003
O25 O 0.4656(13) 0.1012(14) 0.1340(11)
O26 O 0.7293(13) 0.271(2) -0.0425(14)
loop_
_geom_bond_atom_site_label_1
_geom_bond_atom_site_label_2
_geom_bond_site_symmetry_1
_geom_bond_site_symmetry_2
Gd1 O1 1_555 1_555
C1 C2 1_555 1_555
C2 C3 1_555 1_555
C3 H1 1_555 1_555
C4 C3 1_555 1_555
C5 C4 1_555 1_555
C6 C5 1_555 1_555
C7 C2 1_555 1_555
H2 C7 1_555 1_555
C8 C5 1_555 1_555
C9 C8 1_555 1_555
C10 C9 1_555 1_555
H3 C10 1_555 1_555
C11 C10 1_555 1_555
C12 C11 1_555 1_555
H4 C12 1_555 1_555
C13 C8 1_555 1_555
C14 C11 1_555 1_555
C15 C16 1_555 1_555
C16 C17 1_555 1_555
C17 H5 1_555 1_555
C18 C17 1_555 1_555
C19 C18 1_555 1_555
C20 C19 1_555 1_555
C21 C16 1_555 1_555
H6 C21 1_555 1_555
C22 H7 1_555 1_555
H8 C22 1_555 1_555
H9 C22 1_555 1_555
C23 H10 1_555 1_555
H11 C23 1_555 1_555
H12 C23 1_555 1_555
C24 N7 1_555 1_555
N1 C6 1_555 1_555
N2 C4 1_555 1_555
N3 C9 1_555 1_555
N4 C13 1_555 1_555
N5 C20 1_555 1_555
N6 C18 1_555 1_555
N7 C22 1_555 1_555
O1 C1 1_555 1_555
O2 C1 1_555 1_555
O3 Gd1 1_555 1_555
O4 N1 1_555 1_555
O5 Gd1 1_555 1_555
O6 N1 1_555 1_555
O7 Gd1 1_555 1_555
O8 N2 1_555 1_555
O9 N2 1_555 1_555
O10 N4 1_555 1_555
O11 N4 1_555 1_555
O12 N3 1_555 1_555
O13 N3 1_555 1_555
O14 C14 1_555 1_555
O15 C14 1_555 1_555
O16 Gd1 1_555 1_555
O17 C15 1_555 1_555
O18 N5 1_555 1_555
O19 N5 1_555 1_555
O20 N6 1_555 1_555
O21 N6 1_555 1_555
O22 Gd1 1_555 1_555
C25 H13 1_555 1_555
C26 C25 1_555 1_555
C27 C26 1_555 1_555
H14 C27 1_555 1_555
C28 C27 1_555 1_555
H15 C28 1_555 1_555
C29 C28 1_555 1_555
C30 C29 1_555 1_555
H16 C30 1_555 1_555
H17 C30 1_555 1_555
H18 C30 1_555 1_555
C31 C26 1_555 1_555
H19 C31 1_555 1_555
C32 C29 1_555 1_555
H20 C32 1_555 1_555
O23 C25 1_555 1_555
C33 H21 1_555 1_555
C34 H22 1_555 1_555
H23 C34 1_555 1_555
H24 C34 1_555 1_555
C35 H25 1_555 1_555
H26 C35 1_555 1_555
H27 C35 1_555 1_555
N8 C33 1_555 1_555
O24 C33 1_555 1_555
C36 H28 1_555 1_555
H29 C36 1_555 1_555
H30 C36 1_555 1_555
C37 H31 1_555 1_555
H32 C37 1_555 1_555
H33 C37 1_555 1_555
C38 H34 1_555 1_555
N9 C36 1_555 1_555
O25 C38 1_555 1_555
C15A C16A 1_555 1_555
C16A C17A 1_555 1_555
C17A H5A 1_555 1_555
C18A C17A 1_555 1_555
C19A C19 1_555 1_555
C20A C19A 1_555 1_555
C21A C16A 1_555 1_555
H6A C21A 1_555 1_555
N5A C20A 1_555 1_555
N6A C18A 1_555 1_555
O16A C15A 1_555 1_555
O17A C15A 1_555 1_555
O18A N5A 1_555 1_555
O19A N5A 1_555 1_555
O20A N6A 1_555 1_555
O21A N6A 1_555 1_555
Gd1A O16A 1_555 1_555
C1A C2A 1_555 1_555
C2A C3A 1_555 1_555
C3A H1A 1_555 1_555
C4A C3A 1_555 1_555
C5A C4A 1_555 1_555
C6A C5A 1_555 1_555
C7A C2A 1_555 1_555
H2A C7A 1_555 1_555
C8A C5A 1_555 1_555
C9A C8A 1_555 1_555
C10A C9A 1_555 1_555
H3A C10A 1_555 1_555
C11A C10A 1_555 1_555
C12A C11A 1_555 1_555
H4A C12A 1_555 1_555
C13A C8A 1_555 1_555
C14A C11A 1_555 1_555
C22A H7A 1_555 1_555
H8A C22A 1_555 1_555
H9A C22A 1_555 1_555
C23A H10A 1_555 1_555
H11A C23A 1_555 1_555
H12A C23A 1_555 1_555
C24A N7A 1_555 1_555
N1A C6A 1_555 1_555
N2A C4A 1_555 1_555
N3A C9A 1_555 1_555
N4A C13A 1_555 1_555
N7A C22A 1_555 1_555
O1A Gd1A 1_555 1_555
O2A C1A 1_555 1_555
O3A Gd1A 1_555 1_555
O4A N1A 1_555 1_555
O5A Gd1A 1_555 1_555
O6A N1A 1_555 1_555
O7A Gd1A 1_555 1_555
O8A N2A 1_555 1_555
O9A N2A 1_555 1_555
O10A N4A 1_555 1_555
O11A N4A 1_555 1_555
O12A N3A 1_555 1_555
O13A N3A 1_555 1_555
O14A C14A 1_555 1_555
O15A C14A 1_555 1_555
O22A Gd1A 1_555 1_555
Gd1D O15A 1_555 1_555
Gd1E O15 1_555 1_555
Gd1F O2 1_555 1_555
Gd1G O2A 1_555 1_555
O2F Gd1 1_555 1_555
O2G Gd1A 1_555 1_555
O15D Gd1A 1_555 1_555
O15E Gd1 1_555 1_555
C6 C7 1_555 1_555
C12 C13 1_555 1_555
C15 O16 1_555 1_555
C20 C21 1_555 1_555
C23 N7 1_555 1_555
C24 O22 1_555 1_555
C31 C32 1_555 1_555
C34 N8 1_555 1_555
C35 N8 1_555 1_555
C37 N9 1_555 1_555
C38 N9 1_555 1_555
C18A C19A 1_555 1_555
C20A C21A 1_555 1_555
C1A O1A 1_555 1_555
C6A C7A 1_555 1_555
C12A C13A 1_555 1_555
C23A N7A 1_555 1_555
C24A O22A 1_555 1_555

#END
