
#######################################################################
#
#                 Cambridge Crystallographic Data Centre
#                                CCDC 
#
#######################################################################
#
# If this CIF has been generated from an entry in the Cambridge 
# Structural Database, then it will include bibliographic, chemical, 
# crystal, experimental, refinement or atomic coordinate data resulting 
# from the CCDC's data processing and validation procedures.
#
#######################################################################

data_YUDFIO
_symmetry_cell_setting           monoclinic
_symmetry_space_group_name_H-M   'C 2/c'
_symmetry_Int_Tables_number      15
_space_group_name_Hall           '-C 2yn'
loop_
_symmetry_equiv_pos_site_id
_symmetry_equiv_pos_as_xyz
1 x,y,z
2 -x,y,1/2-z
3 1/2+x,1/2+y,z
4 1/2-x,1/2+y,1/2-z
5 -x,-y,-z
6 x,-y,1/2+z
7 1/2-x,1/2-y,-z
8 1/2+x,1/2-y,1/2+z
_cell_length_a                   25.179(5)
_cell_length_b                   14.747(5)
_cell_length_c                   26.053(5)
_cell_angle_alpha                90
_cell_angle_beta                 94.964(5)
_cell_angle_gamma                90
_cell_volume                     9637.58
loop_
_atom_site_label
_atom_site_type_symbol
_atom_site_fract_x
_atom_site_fract_y
_atom_site_fract_z
Gd1 Gd 0.850250(14) 0.24571(2) 0.007078(11)
C1 C 0.8418(3) 0.0413(5) 0.0699(2)
C2 C 0.8241(3) 0.0075(5) 0.1205(2)
C3 C 0.7948(3) 0.0610(5) 0.1503(2)
H1 H 0.7841 0.1183 0.1387
C4 C 0.7811(3) 0.0306(5) 0.1976(2)
C5 C 0.7952(3) -0.0556(5) 0.2173(2)
C6 C 0.8244(3) -0.1078(5) 0.1850(2)
C7 C 0.8388(3) -0.0791(5) 0.1381(2)
H2 H 0.8582 -0.1170 0.1182
C8 C 0.7816(3) -0.0850(4) 0.2697(2)
C9 C 0.8179(3) -0.0764(4) 0.3129(2)
C10 C 0.8080(3) -0.1071(4) 0.3616(2)
H3 H 0.8339 -0.1020 0.3891
C11 C 0.7588(3) -0.1452(4) 0.3685(2)
C12 C 0.7216(3) -0.1534(4) 0.3273(2)
H4 H 0.6882 -0.1775 0.3319
C13 C 0.7335(3) -0.1257(5) 0.2787(2)
C14 C 0.8669(3) 0.3256(5) -0.1143(2)
C15 C 0.9066(3) 0.3188(4) -0.1545(2)
C16 C 0.9475(3) 0.2566(4) -0.1493(3)
H5 H 0.9514 0.2190 -0.1206
C17 C 0.9826(3) 0.2502(4) -0.1869(3)
C18 C 0.9797(3) 0.3040(4) -0.2304(2)
C19 C 0.9377(3) 0.3662(5) -0.2345(3)
C20 C 0.9011(3) 0.3729(5) -0.1970(3)
H6 H 0.8731 0.4142 -0.2012
C21 C 0.9448(5) 0.1659(9) 0.0982(5)
H7 H 0.9673 0.1355 0.0775
C22 C 0.9840(6) 0.0768(10) 0.1696(5)
H8 H 0.9810 0.0739 0.2060
H9 H 1.0200 0.0915 0.1633
H10 H 0.9746 0.0191 0.1543
C23 C 0.9187(5) 0.1909(11) 0.1830(5)
H11 H 0.9275 0.1681 0.2172
H12 H 0.8815 0.1816 0.1734
H13 H 0.9266 0.2545 0.1821
C24 C 0.7456(3) -0.1772(4) 0.4216(2)
N1 N 0.7514(3) 0.0913(5) 0.2281(2)
N2 N 0.8398(3) -0.2011(4) 0.1999(2)
N3 N 0.8696(2) -0.0341(4) 0.3087(2)
N4 N 0.6931(3) -0.1450(5) 0.2362(2)
N5 N 0.9282(3) 0.4251(5) -0.2791(3)
N6 N 1.0256(2) 0.1830(4) -0.1781(2)
N7 N 0.9494(3) 0.1438(6) 0.1477(3)
O1 O 0.8215(2) 0.1140(4) 0.05331(17)
O2 O 0.8766(2) -0.0037(4) 0.05031(19)
O3 O 0.8957(3) 0.3861(6) 0.0261(3)
O4 O 0.7650(3) 0.1704(5) 0.2296(2)
O5 O 0.7942(2) 0.3709(3) -0.02905(18)
O6 O 0.8424(3) -0.2213(5) 0.2453(2)
O7 O 0.8986(2) 0.1159(4) -0.02295(18)
O8 O 0.8509(3) -0.2528(3) 0.1661(2)
O9 O 0.7064(3) -0.1416(7) 0.1922(2)
O10 O 0.6491(2) -0.1691(4) 0.24633(19)
O11 O 0.8727(2) 0.0279(4) 0.2775(2)
O12 O 0.9076(2) -0.0617(4) 0.3364(2)
O13 O 0.8794(2) 0.2815(4) -0.07329(19)
O14 O 0.8267(2) 0.3715(3) -0.12401(18)
O15 O 1.0361(2) 0.1562(5) -0.1343(2)
O16 O 1.0491(2) 0.1577(4) -0.21435(19)
O17 O 0.9031(4) 0.4919(6) -0.2751(3)
O18 O 0.9431(3) 0.3989(5) -0.3198(2)
O19 O 0.9151(3) 0.2204(6) 0.0768(3)
O20 O 0.6993(2) -0.2038(4) 0.42488(17)
O21 O 0.78249(19) -0.1764(3) 0.45673(16)
O22 O 0.7144(3) 0.0608(5) 0.2504(2)
C14A C 1.1331(3) 0.3256(5) -0.3857(2)
C15A C 1.0934(3) 0.3188(4) -0.3455(2)
C16A C 1.0525(3) 0.2566(4) -0.3507(3)
H5A H 1.0486 0.2190 -0.3794
C17A C 1.0174(3) 0.2502(4) -0.3131(3)
C18A C 1.0203(3) 0.3040(4) -0.2696(2)
C19A C 1.0623(3) 0.3662(5) -0.2655(3)
C20A C 1.0989(3) 0.3729(5) -0.3030(3)
H6A H 1.1269 0.4142 -0.2988
N5A N 1.0718(3) 0.4251(5) -0.2209(3)
N6A N 0.9744(2) 0.1830(4) -0.3219(2)
O13A O 1.1206(2) 0.2815(4) -0.42671(19)
O14A O 1.1733(2) 0.3715(3) -0.37599(18)
O15A O 0.9639(2) 0.1562(5) -0.3657(2)
O16A O 0.9509(2) 0.1577(4) -0.28565(19)
O17A O 1.0969(4) 0.4919(6) -0.2249(3)
O18A O 1.0569(3) 0.3989(5) -0.1802(2)
Gd1A Gd 1.149750(14) 0.24571(2) -0.507078(11)
C1A C 1.1582(3) 0.0413(5) -0.5699(2)
C2A C 1.1759(3) 0.0075(5) -0.6205(2)
C3A C 1.2052(3) 0.0610(5) -0.6503(2)
H1A H 1.2159 0.1183 -0.6387
C4A C 1.2189(3) 0.0306(5) -0.6976(2)
C5A C 1.2048(3) -0.0556(5) -0.7173(2)
C6A C 1.1756(3) -0.1078(5) -0.6850(2)
C7A C 1.1612(3) -0.0791(5) -0.6381(2)
H2A H 1.1418 -0.1170 -0.6182
C8A C 1.2184(3) -0.0850(4) -0.7697(2)
C9A C 1.1821(3) -0.0764(4) -0.8129(2)
C10A C 1.1920(3) -0.1071(4) -0.8616(2)
H3A H 1.1661 -0.1020 -0.8891
C11A C 1.2412(3) -0.1452(4) -0.8685(2)
C12A C 1.2784(3) -0.1534(4) -0.8273(2)
H4A H 1.3118 -0.1775 -0.8319
C13A C 1.2665(3) -0.1257(5) -0.7787(2)
C21A C 1.0552(5) 0.1659(9) -0.5982(5)
H7A H 1.0327 0.1355 -0.5775
C22A C 1.0160(6) 0.0768(10) -0.6696(5)
H8A H 1.0190 0.0739 -0.7060
H9A H 0.9800 0.0915 -0.6633
H10A H 1.0254 0.0191 -0.6543
C23A C 1.0813(5) 0.1909(11) -0.6830(5)
H11A H 1.0725 0.1681 -0.7172
H12A H 1.1185 0.1816 -0.6734
H13A H 1.0734 0.2545 -0.6821
C24A C 1.2544(3) -0.1772(4) -0.9216(2)
N1A N 1.2486(3) 0.0913(5) -0.7281(2)
N2A N 1.1602(3) -0.2011(4) -0.6999(2)
N3A N 1.1304(2) -0.0341(4) -0.8087(2)
N4A N 1.3069(3) -0.1450(5) -0.7362(2)
N7A N 1.0506(3) 0.1438(6) -0.6477(3)
O1A O 1.1785(2) 0.1140(4) -0.55331(17)
O2A O 1.1234(2) -0.0037(4) -0.55031(19)
O3A O 1.1043(3) 0.3861(6) -0.5261(3)
O4A O 1.2350(3) 0.1704(5) -0.7296(2)
O5A O 1.2058(2) 0.3709(3) -0.47095(18)
O6A O 1.1576(3) -0.2213(5) -0.7453(2)
O7A O 1.1014(2) 0.1159(4) -0.47705(18)
O8A O 1.1491(3) -0.2528(3) -0.6661(2)
O9A O 1.2936(3) -0.1416(7) -0.6922(2)
O10A O 1.3509(2) -0.1691(4) -0.74633(19)
O11A O 1.1273(2) 0.0279(4) -0.7775(2)
O12A O 1.0924(2) -0.0617(4) -0.8364(2)
O19A O 1.0849(3) 0.2204(6) -0.5768(3)
O20A O 1.3007(2) -0.2038(4) -0.92488(17)
O21A O 1.21751(19) -0.1764(3) -0.95673(16)
O22A O 1.2856(3) 0.0608(5) -0.7504(2)
Gd1B Gd 1.350250(14) -0.25429(2) -0.992922(11)
Gd1C Gd 0.649750(14) -0.25429(2) 0.492922(11)
Gd1D Gd 1.149750(14) -0.24571(2) -1.007078(11)
Gd1E Gd 0.850250(14) -0.24571(2) 0.507078(11)
O20B O 1.1993(2) 0.2962(4) -0.57512(17)
O20C O 0.8007(2) 0.2962(4) 0.07512(17)
O21D O 1.21751(19) 0.1764(3) -0.45673(16)
O21E O 0.78249(19) 0.1764(3) -0.04327(16)
C25 C 0.8634(10) -0.1344(16) -0.1080(8)
C26 C 0.8467(8) -0.0942(16) -0.0638(9)
H14 H 0.8725 -0.0852 -0.0365
C27 C 0.8296 -0.1769 -0.1465
H15 H 0.8388 -0.2191 -0.1708
C28 C 0.7938 -0.0656 -0.0566
H16 H 0.7829 -0.0342 -0.0284
C29 C 0.7784(7) -0.1411(8) -0.1401(4)
H17 H 0.7531 -0.1519 -0.1676
C30 C 0.7603 -0.0946 -0.1013
C31 C 0.7094(9) -0.0689(14) -0.0976(9)
H18 H 0.6837 -0.0869 -0.1234
O23 O 0.6955 -0.0238 -0.0626
F1 F 0.9174 -0.1753 -0.1121
C32 C 1.030(3) 0.162(3) -0.016(3)
H19 H 1.0478 0.1535 0.0161
C33 C 1.0111(7) 0.3116(12) -0.0161(9)
H20 H 1.0230 0.3733 -0.0176
H21 H 1.0016 0.2985 0.0180
H22 H 0.9805 0.3031 -0.0403
C34 C 1.0946(12) 0.304(2) -0.0514(10)
H23 H 1.1238 0.2632 -0.0556
H24 H 1.1066 0.3529 -0.0293
H25 H 1.0812 0.3269 -0.0845
N8 N 1.0516 0.2539 -0.0282
O24 O 1.0042(4) 0.0877(16) -0.0211(6)
O25 O 1.071(3) 0.412(3) 0.119(2)
O26 O 0.992(3) 0.434(3) 0.106(2)
O27 O 1.253(4) 0.207(4) -0.0300(12)
loop_
_geom_bond_atom_site_label_1
_geom_bond_atom_site_label_2
_geom_bond_site_symmetry_1
_geom_bond_site_symmetry_2
Gd1 O1 1_555 1_555
C1 C2 1_555 1_555
C2 C3 1_555 1_555
C3 H1 1_555 1_555
C4 C3 1_555 1_555
C5 C4 1_555 1_555
C6 C5 1_555 1_555
C7 C2 1_555 1_555
H2 C7 1_555 1_555
C8 C5 1_555 1_555
C9 C8 1_555 1_555
C10 C9 1_555 1_555
H3 C10 1_555 1_555
C11 C10 1_555 1_555
C12 C11 1_555 1_555
H4 C12 1_555 1_555
C13 C8 1_555 1_555
C14 C15 1_555 1_555
C15 C16 1_555 1_555
C16 H5 1_555 1_555
C17 C16 1_555 1_555
C18 C17 1_555 1_555
C19 C18 1_555 1_555
C20 C15 1_555 1_555
H6 C20 1_555 1_555
C21 H7 1_555 1_555
C22 H8 1_555 1_555
H9 C22 1_555 1_555
H10 C22 1_555 1_555
C23 H11 1_555 1_555
H12 C23 1_555 1_555
H13 C23 1_555 1_555
C24 C11 1_555 1_555
N1 C4 1_555 1_555
N2 C6 1_555 1_555
N3 C9 1_555 1_555
N4 C13 1_555 1_555
N5 C19 1_555 1_555
N6 C17 1_555 1_555
N7 C21 1_555 1_555
O1 C1 1_555 1_555
O2 C1 1_555 1_555
O3 Gd1 1_555 1_555
O4 N1 1_555 1_555
O5 Gd1 1_555 1_555
O6 N2 1_555 1_555
O7 Gd1 1_555 1_555
O8 N2 1_555 1_555
O9 N4 1_555 1_555
O10 N4 1_555 1_555
O11 N3 1_555 1_555
O12 N3 1_555 1_555
O13 Gd1 1_555 1_555
O14 C14 1_555 1_555
O15 N6 1_555 1_555
O16 N6 1_555 1_555
O17 N5 1_555 1_555
O18 N5 1_555 1_555
O19 Gd1 1_555 1_555
O20 C24 1_555 1_555
O21 C24 1_555 1_555
O22 N1 1_555 1_555
C25 C26 1_555 1_555
C26 H14 1_555 1_555
C27 C25 1_555 1_555
H15 C27 1_555 1_555
C28 C26 1_555 1_555
H16 C28 1_555 1_555
C29 C27 1_555 1_555
H17 C29 1_555 1_555
C30 C28 1_555 1_555
C31 C30 1_555 1_555
H18 C31 1_555 1_555
O23 C31 1_555 1_555
F1 C25 1_555 1_555
C32 H19 1_555 1_555
C33 H20 1_555 1_555
H21 C33 1_555 1_555
H22 C33 1_555 1_555
C34 H23 1_555 1_555
H24 C34 1_555 1_555
H25 C34 1_555 1_555
N8 C32 1_555 1_555
O24 C32 1_555 1_555
C14A C15A 1_555 1_555
C15A C16A 1_555 1_555
C16A H5A 1_555 1_555
C17A C16A 1_555 1_555
C18A C18 1_555 1_555
C19A C18A 1_555 1_555
C20A C15A 1_555 1_555
H6A C20A 1_555 1_555
N5A C19A 1_555 1_555
N6A C17A 1_555 1_555
O13A C14A 1_555 1_555
O14A C14A 1_555 1_555
O15A N6A 1_555 1_555
O16A N6A 1_555 1_555
O17A N5A 1_555 1_555
O18A N5A 1_555 1_555
Gd1A O13A 1_555 1_555
C1A C2A 1_555 1_555
C2A C3A 1_555 1_555
C3A H1A 1_555 1_555
C4A C3A 1_555 1_555
C5A C4A 1_555 1_555
C6A C5A 1_555 1_555
C7A C2A 1_555 1_555
H2A C7A 1_555 1_555
C8A C5A 1_555 1_555
C9A C8A 1_555 1_555
C10A C9A 1_555 1_555
H3A C10A 1_555 1_555
C11A C10A 1_555 1_555
C12A C11A 1_555 1_555
H4A C12A 1_555 1_555
C13A C8A 1_555 1_555
C21A H7A 1_555 1_555
C22A H8A 1_555 1_555
H9A C22A 1_555 1_555
H10A C22A 1_555 1_555
C23A H11A 1_555 1_555
H12A C23A 1_555 1_555
H13A C23A 1_555 1_555
C24A C11A 1_555 1_555
N1A C4A 1_555 1_555
N2A C6A 1_555 1_555
N3A C9A 1_555 1_555
N4A C13A 1_555 1_555
N7A C21A 1_555 1_555
O1A Gd1A 1_555 1_555
O2A C1A 1_555 1_555
O3A Gd1A 1_555 1_555
O4A N1A 1_555 1_555
O5A Gd1A 1_555 1_555
O6A N2A 1_555 1_555
O7A Gd1A 1_555 1_555
O8A N2A 1_555 1_555
O9A N4A 1_555 1_555
O10A N4A 1_555 1_555
O11A N3A 1_555 1_555
O12A N3A 1_555 1_555
O19A Gd1A 1_555 1_555
O20A C24A 1_555 1_555
O21A C24A 1_555 1_555
O22A N1A 1_555 1_555
Gd1B O20A 1_555 1_555
Gd1C O20 1_555 1_555
Gd1D O21A 1_555 1_555
Gd1E O21 1_555 1_555
O20B Gd1A 1_555 1_555
O20C Gd1 1_555 1_555
O21D Gd1A 1_555 1_555
O21E Gd1 1_555 1_555
C6 C7 1_555 1_555
C12 C13 1_555 1_555
C14 O13 1_555 1_555
C19 C20 1_555 1_555
C21 O19 1_555 1_555
C22 N7 1_555 1_555
C23 N7 1_555 1_555
C29 C30 1_555 1_555
C33 N8 1_555 1_555
C34 N8 1_555 1_555
C17A C18A 1_555 1_555
C19A C20A 1_555 1_555
C1A O1A 1_555 1_555
C6A C7A 1_555 1_555
C12A C13A 1_555 1_555
C21A O19A 1_555 1_555
C22A N7A 1_555 1_555
C23A N7A 1_555 1_555

#END
