
#######################################################################
#
#                 Cambridge Crystallographic Data Centre
#                                CCDC 
#
#######################################################################
#
# If this CIF has been generated from an entry in the Cambridge 
# Structural Database, then it will include bibliographic, chemical, 
# crystal, experimental, refinement or atomic coordinate data resulting 
# from the CCDC's data processing and validation procedures.
#
#######################################################################

data_YUDHEK
_symmetry_cell_setting           monoclinic
_symmetry_space_group_name_H-M   'C 2/c'
_symmetry_Int_Tables_number      15
_space_group_name_Hall           '-C 2yn'
loop_
_symmetry_equiv_pos_site_id
_symmetry_equiv_pos_as_xyz
1 x,y,z
2 -x,y,1/2-z
3 1/2+x,1/2+y,z
4 1/2-x,1/2+y,1/2-z
5 -x,-y,-z
6 x,-y,1/2+z
7 1/2-x,1/2-y,-z
8 1/2+x,1/2-y,1/2+z
_cell_length_a                   20.085(2)
_cell_length_b                   8.128(7)
_cell_length_c                   14.602(2)
_cell_angle_alpha                90
_cell_angle_beta                 90.969(9)
_cell_angle_gamma                90
_cell_volume                     2383.45
loop_
_atom_site_label
_atom_site_type_symbol
_atom_site_fract_x
_atom_site_fract_y
_atom_site_fract_z
Cu1 Cu 0.5000 0.1761(1) 0.7500
S1 S 0.46117(6) 0.0402(2) 0.62304(8)
S2 S 0.40738(6) 0.3498(2) 0.75458(8)
S3 S 0.29166(7) 0.3716(2) 0.62205(9)
S4 S 0.34213(7) 0.1062(2) 0.50479(9)
C1 C 0.3872(2) 0.1525(6) 0.6051(3)
C2 C 0.3652(2) 0.2723(6) 0.6580(3)
C3 C 0.2775(2) 0.2447(7) 0.5263(3)
C4 C 0.4263(3) -0.1612(7) 0.6570(5)
C5 C 0.3853(4) -0.160(1) 0.7386(6)
C6 C 0.3525(3) 0.273(1) 0.8493(4)
C7 C 0.3046(5) 0.388(1) 0.8725(7)
H1 H 0.3348 0.1687 0.8305
H2 H 0.3811 0.2539 0.9022
H3 H 0.3991 -0.2100 0.6099
H4 H 0.4631 -0.2427 0.6681
H5 H 0.4122 -0.1269 0.7963
H6 H 0.3483 -0.0934 0.7382
H7 H 0.3696 -0.2729 0.7601
H8 H 0.3152 0.4860 0.8960
H9 H 0.2691 0.4017 0.8238
H10 H 0.2727 0.3349 0.9232
S1A S 0.53883(6) 0.0402(2) 0.87696(8)
S2A S 0.59262(6) 0.3498(2) 0.74542(8)
C3F C 0.2225(2) 0.2553(7) 0.4737(3)
S3F S 0.20834(7) 0.1284(2) 0.37795(9)
S4F S 0.15787(7) 0.3938(2) 0.49521(9)
C2F C 0.1348(2) 0.2277(6) 0.3420(3)
C1F C 0.1128(2) 0.3475(6) 0.3949(3)
S2F S 0.09262(6) 0.1502(2) 0.24542(8)
S1F S 0.03883(6) 0.4598(2) 0.37696(8)
Cu1F Cu 0.0000 0.3239(1) 0.2500
C6F C 0.1475(3) 0.227(1) 0.1507(4)
C4F C 0.0737(3) 0.6612(7) 0.3430(5)
C7F C 0.1954(5) 0.112(1) 0.1275(7)
H1F H 0.1652 0.3313 0.1695
H2F H 0.1189 0.2461 0.0978
C5F C 0.1147(4) 0.660(1) 0.2614(6)
H3F H 0.1009 0.7100 0.3901
H4F H 0.0369 0.7427 0.3319
H8F H 0.1848 0.0140 0.1040
H9F H 0.2309 0.0983 0.1762
H10F H 0.2273 0.1651 0.0768
H5F H 0.0878 0.6269 0.2037
H6F H 0.1517 0.5934 0.2618
H7F H 0.1304 0.7729 0.2399
Cl1 Cl 1.0000 0.0000 0.5000
O1 O 0.9297(4) 0.021(1) 0.5292(6)
O2 O 1.0010(5) 0.021(1) 0.4113(5)
O1D O 1.0703(4) -0.021(1) 0.4708(6)
O2D O 0.9990(5) -0.021(1) 0.5887(5)
loop_
_geom_bond_atom_site_label_1
_geom_bond_atom_site_label_2
_geom_bond_site_symmetry_1
_geom_bond_site_symmetry_2
Cu1 S1 1_555 1_555
S1 C1 1_555 1_555
S2 Cu1 1_555 1_555
S3 C2 1_555 1_555
S4 C1 1_555 1_555
C1 C2 1_555 1_555
C2 S2 1_555 1_555
C3 S3 1_555 1_555
C4 S1 1_555 1_555
C5 C4 1_555 1_555
C6 S2 1_555 1_555
C7 C6 1_555 1_555
H1 C6 1_555 1_555
H2 C6 1_555 1_555
H3 C4 1_555 1_555
H4 C4 1_555 1_555
H5 C5 1_555 1_555
H6 C5 1_555 1_555
H7 C5 1_555 1_555
H8 C7 1_555 1_555
H9 C7 1_555 1_555
H10 C7 1_555 1_555
Cl1 O1 1_555 1_555
O2 Cl1 1_555 1_555
S1A Cu1 1_555 1_555
S2A Cu1 1_555 1_555
C3F C3 1_555 1_555
S3F C3F 1_555 1_555
S4F C3F 1_555 1_555
C2F S3F 1_555 1_555
C1F S4F 1_555 1_555
S2F C2F 1_555 1_555
S1F C1F 1_555 1_555
Cu1F S2F 1_555 1_555
C6F S2F 1_555 1_555
C4F S1F 1_555 1_555
C7F C6F 1_555 1_555
H1F C6F 1_555 1_555
H2F C6F 1_555 1_555
C5F C4F 1_555 1_555
H3F C4F 1_555 1_555
H4F C4F 1_555 1_555
H8F C7F 1_555 1_555
H9F C7F 1_555 1_555
H10F C7F 1_555 1_555
H5F C5F 1_555 1_555
H6F C5F 1_555 1_555
H7F C5F 1_555 1_555
O1D Cl1 1_555 1_555
O2D Cl1 1_555 1_555
S4 C3 1_555 1_555
C2F C1F 1_555 1_555
S1F Cu1F 1_555 1_555

#END
