
#######################################################################
#
#                 Cambridge Crystallographic Data Centre
#                                CCDC 
#
#######################################################################
#
# If this CIF has been generated from an entry in the Cambridge 
# Structural Database, then it will include bibliographic, chemical, 
# crystal, experimental, refinement or atomic coordinate data resulting 
# from the CCDC's data processing and validation procedures.
#
#######################################################################

data_YUDHAI
_symmetry_cell_setting           triclinic
_symmetry_space_group_name_H-M   'P -1'
_symmetry_Int_Tables_number      2
_space_group_name_Hall           '-P 1'
loop_
_symmetry_equiv_pos_site_id
_symmetry_equiv_pos_as_xyz
1 x,y,z
2 -x,-y,-z
_cell_length_a                   11.7838(4)
_cell_length_b                   12.3757(4)
_cell_length_c                   13.6009(4)
_cell_angle_alpha                95.7503(12)
_cell_angle_beta                 93.7677(11)
_cell_angle_gamma                109.0329(9)
_cell_volume                     1855.35
loop_
_atom_site_label
_atom_site_type_symbol
_atom_site_fract_x
_atom_site_fract_y
_atom_site_fract_z
N1 N 0.5530(5) 1.6232(4) 1.6245(3)
N2 N 0.5615(3) 1.6305(2) 1.4280(2)
C21 C 0.6256(3) 1.7326(2) 1.48844(16)
C22 C 0.6821(3) 1.83151(19) 1.4462(2)
H11 H 0.7260 1.9013 1.4875
C23 C 0.6745(3) 1.8283(2) 1.3434(2)
H12 H 0.7131 1.8959 1.3145
C24 C 0.6103(4) 1.7261(3) 1.28296(17)
H13 H 0.6051 1.7239 1.2127
C25 C 0.5539(3) 1.6272(2) 1.32524(19)
H14 H 0.5100 1.5574 1.2839
C26 C 0.4845(4) 1.6718(4) 1.6526(3)
C27 C 0.6759(4) 1.6583(4) 1.6775(3)
H15 H 0.7349 1.6242 1.6613
C28 C 0.5083(4) 1.7523(4) 1.7369(3)
H16 H 0.4488 1.7842 1.7565
C29 C 0.7022(4) 1.7365(4) 1.7633(4)
H17 H 0.7778 1.7560 1.8021
C30 C 0.6196(6) 1.7852(7) 1.7918(6)
H18 H 0.6383 1.8412 1.8488
Ru1 Ru 0.51647(12) 1.50688(17) 1.49494(15)
N3 N 0.3662(2) 1.5573(3) 1.5070(2)
C31 C 0.2644(3) 1.5189(3) 1.4382(2)
H19 H 0.2625 1.4691 1.3797
C32 C 0.1655(3) 1.5534(3) 1.4549(3)
H20 H 0.0960 1.5272 1.4079
C33 C 0.1684(3) 1.6263(3) 1.5404(3)
H21 H 0.1008 1.6499 1.5518
C34 C 0.2702(3) 1.6647(3) 1.6092(2)
H22 H 0.2722 1.7145 1.6677
C35 C 0.3691(2) 1.6302(3) 1.5925(2)
N4 N 0.5767(5) 1.6276(5) 1.6171(4)
C36 C 0.5943(8) 1.7104(7) 1.7903(4)
C37 C 0.5469(6) 1.6158(5) 1.7177(4)
C38 C 0.6717(5) 1.8242(4) 1.6638(4)
C39 C 0.6206(4) 1.7279(4) 1.5933(3)
N1A N 0.4470(5) 1.3768(4) 1.3755(3)
N2A N 0.4385(3) 1.3695(2) 1.5720(2)
C21A C 0.3744(3) 1.2674(2) 1.51156(16)
C22A C 0.3179(3) 1.16849(19) 1.5538(2)
H11A H 0.2740 1.0987 1.5125
C23A C 0.3255(3) 1.1717(2) 1.6566(2)
H12A H 0.2869 1.1041 1.6855
C24A C 0.3897(4) 1.2739(3) 1.71704(17)
H13A H 0.3949 1.2761 1.7873
C25A C 0.4461(3) 1.3728(2) 1.67476(19)
H14A H 0.4900 1.4426 1.7161
C26A C 0.5155(4) 1.3282(4) 1.3474(3)
C27A C 0.3241(4) 1.3417(4) 1.3225(3)
H15A H 0.2651 1.3758 1.3387
C28A C 0.4917(4) 1.2477(4) 1.2631(3)
H16A H 0.5512 1.2158 1.2435
C29A C 0.2978(4) 1.2635(4) 1.2367(4)
H17A H 0.2222 1.2440 1.1979
C30A C 0.3804(6) 1.2148(7) 1.2082(6)
H18A H 0.3617 1.1588 1.1512
Ru1A Ru 0.48353(12) 1.49312(17) 1.50506(15)
N3A N 0.6338(2) 1.4427(3) 1.4930(2)
C31A C 0.7356(3) 1.4811(3) 1.5618(2)
H19A H 0.7375 1.5309 1.6203
C32A C 0.8345(3) 1.4466(3) 1.5451(3)
H20A H 0.9040 1.4728 1.5921
C33A C 0.8316(3) 1.3737(3) 1.4596(3)
H21A H 0.8992 1.3501 1.4482
C34A C 0.7298(3) 1.3353(3) 1.3908(2)
H22A H 0.7278 1.2855 1.3323
C35A C 0.6309(2) 1.3698(3) 1.4075(2)
N4A N 0.4233(5) 1.3724(5) 1.3829(4)
C36A C 0.4057(8) 1.2896(7) 1.2097(4)
C37A C 0.4531(6) 1.3842(5) 1.2823(4)
C38A C 0.3283(5) 1.1758(4) 1.3362(4)
C39A C 0.3794(4) 1.2721(4) 1.4067(3)
C40 C -0.0580(5) 1.1414(5) 1.6363(6)
H23 H -0.0599 1.1641 1.7048
N5 N 0.0167(5) 1.2169(4) 1.5879(4)
C41 C 0.0261(8) 1.1897(7) 1.4833(4)
H24 H 0.0781 1.1423 1.4756
H25 H 0.0609 1.2612 1.4544
H26 H -0.0544 1.1471 1.4490
O11 O -0.1247(5) 1.0452(5) 1.6010(6)
C42 C 0.0905(7) 1.3283(6) 1.6398(6)
H27 H 0.0744 1.3894 1.6067
H28 H 0.1760 1.3362 1.6392
H29 H 0.0711 1.3346 1.7087
O12 O 0.111(2) 0.393(2) 0.995(2)
Zn1 Zn 0.43335(2) 0.92106(2) 1.087137(19)
Zn2 Zn 0.20300(2) 0.70724(2) 1.17954(2)
O1 O 0.29439(14) 0.78759(13) 1.30620(11)
O2 O 0.29892(17) 0.64597(14) 1.09362(14)
O3 O 0.27885(13) 0.94402(13) 1.05492(11)
O4 O 0.41140(16) 0.93247(14) 1.23494(11)
O5 O 0.46845(14) 0.77918(13) 1.06205(12)
C1 C 0.4025(2) 0.67748(18) 1.06622(16)
C2 C 0.4396(2) 0.94411(18) 1.40797(16)
C3 C -0.0392(2) 0.9025(2) 1.04794(19)
H1 H -0.0658 0.8356 1.0806
O6 O 0.13227(14) 0.81058(14) 1.11748(14)
C4 C 0.08248(19) 0.95056(18) 1.03496(16)
C5 C 0.12150(19) 1.04804(19) 0.98671(19)
H2 H 0.2044 1.0807 0.9775
C6 C 0.17192(18) 0.89695(17) 1.07224(16)
C7 C 0.3940(2) 0.9075(2) 1.49479(17)
H3 H 0.3212 0.8440 1.4914
C8 C 0.3828(3) 0.4709(2) 1.0240(3)
H4 H 0.3020 0.4500 1.0405
C9 C 0.4534(2) 0.58500(19) 1.03237(16)
C10 C 0.5462(2) 1.0371(2) 1.41358(17)
H5 H 0.5779 1.0628 1.3544
C11 C 0.3771(2) 0.88376(18) 1.30836(16)
C12 C 0.5699(3) 0.6136(2) 1.0088(3)
H6 H 0.6190 0.6924 1.0150
O7 O 1.0559(2) 1.58014(15) 1.18932(16)
O8 O 1.17302(18) 1.48337(17) 1.24184(18)
C13 C 0.7656(2) 1.1773(2) 1.1617(2)
C14 C 0.9645(2) 1.3805(3) 1.1934(2)
C15 C 0.7563(2) 1.2790(2) 1.13317(19)
H7 H 0.6817 1.2796 1.1026
C16 C 0.8555(2) 1.3801(2) 1.14904(19)
H8 H 0.8482 1.4493 1.1292
C17 C 0.9734(2) 1.2783(2) 1.2229(2)
H9 H 1.0478 1.2780 1.2540
C18 C 1.0747(2) 1.4882(2) 1.2101(2)
C19 C 0.8748(2) 1.1774(2) 1.2072(2)
H10 H 0.8818 1.1085 1.2276
O9 O 0.6684(3) 0.9810(3) 1.1776(3)
O10 O 0.5648(4) 1.0673(3) 1.0905(5)
C20 C 0.6605(3) 1.0664(3) 1.1433(3)
O1A O 0.70561(14) 1.21241(13) 1.69380(11)
O4A O 0.58860(16) 1.06753(14) 1.76506(11)
C2A C 0.5604(2) 1.05589(18) 1.59203(16)
C7A C 0.6060(2) 1.0925(2) 1.50521(17)
H3A H 0.6788 1.1560 1.5086
C10A C 0.4538(2) 0.9629(2) 1.58642(17)
H5A H 0.4221 0.9372 1.6456
C11A C 0.6229(2) 1.11624(18) 1.69164(16)
O2A O 0.70108(17) 0.35403(14) 0.90638(14)
O5A O 0.53155(14) 0.22082(13) 0.93795(12)
C1A C 0.5975(2) 0.32252(18) 0.93378(16)
C8A C 0.6172(3) 0.5291(2) 0.9760(3)
H4A H 0.6980 0.5500 0.9595
C9A C 0.5466(2) 0.41500(19) 0.96763(16)
C12A C 0.4301(3) 0.3864(2) 0.9912(3)
H6A H 0.3810 0.3076 0.9850
O3A O -0.27885(13) 1.05598(13) 0.94508(11)
C3A C 0.0392(2) 1.0975(2) 0.95206(19)
H1A H 0.0658 1.1644 0.9194
O6A O -0.13227(14) 1.18942(14) 0.88252(14)
C4A C -0.08248(19) 1.04944(18) 0.96504(16)
C5A C -0.12150(19) 0.95196(19) 1.01329(19)
H2A H -0.2044 0.9193 1.0225
C6A C -0.17192(18) 1.10305(17) 0.92776(16)
Zn1A Zn -0.43335(2) 1.07894(2) 0.912863(19)
Zn2A Zn -0.20300(2) 1.29276(2) 0.82046(2)
O7A O -1.0559(2) 0.41986(15) 0.81068(16)
O8A O -1.17302(18) 0.51663(17) 0.75816(18)
C13A C -0.7656(2) 0.8227(2) 0.8383(2)
C14A C -0.9645(2) 0.6195(3) 0.8066(2)
C15A C -0.7563(2) 0.7210(2) 0.86683(19)
H7A H -0.6817 0.7204 0.8974
C16A C -0.8555(2) 0.6199(2) 0.85096(19)
H8A H -0.8482 0.5507 0.8708
C17A C -0.9734(2) 0.7217(2) 0.7771(2)
H9A H -1.0478 0.7220 0.7460
C18A C -1.0747(2) 0.5118(2) 0.7899(2)
C19A C -0.8748(2) 0.8226(2) 0.7928(2)
H10A H -0.8818 0.8915 0.7724
O9A O -0.6684(3) 1.0190(3) 0.8224(3)
O10A O -0.5648(4) 0.9327(3) 0.9095(5)
C20A C -0.6605(3) 0.9336(3) 0.8567(3)
Zn1_2 Zn -0.56665(2) 0.92106(2) 1.087137(19)
Zn1A_2 Zn 0.56665(2) 0.07894(2) 0.912863(19)
Zn1A_3 Zn 0.56665(2) 1.07894(2) 0.912863(19)
Zn1A_4 Zn 0.56665(2) 1.07894(2) 1.912863(19)
Zn2_2 Zn 1.20300(2) 1.70724(2) 1.17954(2)
Zn2A_2 Zn -1.20300(2) 0.29276(2) 0.82046(2)
Zn2A_3 Zn 0.79700(2) 0.29276(2) 0.82046(2)
Zn2A_4 Zn 0.79700(2) 1.29276(2) 1.82046(2)
O1A_2 O -0.29439(14) 1.21241(13) 0.69380(11)
O2A_2 O -0.29892(17) 1.35403(14) 0.90638(14)
O4A_2 O -0.41140(16) 1.06753(14) 0.76506(11)
O5A_2 O -0.46845(14) 1.22082(13) 0.93795(12)
O7_2 O 0.0559(2) 0.58014(15) 1.18932(16)
O7A_2 O -0.0559(2) 1.41986(15) 0.81068(16)
O10_2 O -0.4352(4) 1.0673(3) 1.0905(5)
O10A_2 O 0.4352(4) 0.9327(3) 0.9095(5)
O13? O -0.0155(12) 1.2013(11) 1.5327(15)
C43? C -0.0901(13) 1.1024(13) 1.5012(13)
H30? H -0.1222 1.0819 1.4334
C44? C -0.2100(16) 0.9104(15) 1.5317(17)
H31? H -0.2423 0.9076 1.4629
H32? H -0.2762 0.8932 1.5740
H33? H -0.1691 0.8532 1.5350
C45? C -0.081(2) 1.048(2) 1.6686(13)
H34? H -0.0240 1.0066 1.6808
H35? H -0.1499 1.0193 1.7069
H36? H -0.0406 1.1303 1.6890
N6? N -0.1216(10) 1.0285(10) 1.5672(11)
N7? N 0.0967(16) 1.2716(18) 1.6946(14)
C46? C 0.153(2) 1.331(2) 1.7920(15)
H37? H 0.2125 1.4058 1.7847
H38? H 0.1932 1.2845 1.8248
H39? H 0.0911 1.3434 1.8322
O14? O 0.067(3) 1.278(3) 1.5278(16)
C47? C 0.1126(18) 1.3239(18) 1.6142(14)
H40? H 0.1623 1.4027 1.6223
C48? C 0.022(3) 1.151(2) 1.690(2)
H41? H -0.0597 1.1464 1.7052
H42? H 0.0569 1.1147 1.7392
H43? H 0.0180 1.1111 1.6236
O15? O -0.032(2) 1.173(2) 1.481(2)
C49? C -0.165(5) 0.953(3) 1.475(2)
H44? H -0.2531 0.9303 1.4651
H45? H -0.1415 0.8844 1.4781
H46? H -0.1298 0.9934 1.4204
C50? C -0.148(3) 0.988(3) 1.661(2)
H47? H -0.1114 0.9287 1.6710
H48? H -0.2356 0.9549 1.6618
H49? H -0.1151 1.0523 1.7145
C51? C -0.055(2) 1.1394(18) 1.565(2)
H50? H -0.0252 1.1910 1.6246
N8? N -0.1216(10) 1.0285(10) 1.5672(11)
O16? O 0.557(3) 1.079(3) 1.084(4)
O17? O 0.9704(17) 1.6355(14) 1.2236(14)
C52? C 0.7812(16) 1.4141(17) 1.1728(17)
H51? H 0.7552 1.4792 1.1739
C53? C 0.9053(17) 1.4274(17) 1.186(2)
C54? C 0.9945(17) 1.5477(14) 1.1928(17)
C55? C 0.698(2) 1.3021(14) 1.1584(18)
H52? H 0.6138 1.2888 1.1466
C56? C 0.8638(16) 1.2241(19) 1.179(2)
H53? H 0.8882 1.1586 1.1838
O18? O 1.1000(16) 1.5582(17) 1.1728(14)
C57? C 0.7419(16) 1.2099(16) 1.162(2)
C58? C 0.952(2) 1.3359(18) 1.191(2)
H54? H 1.0360 1.3484 1.2018
C59? C 0.651(2) 1.0899(17) 1.139(4)
O19? O 0.667(3) 1.0112(19) 1.184(3)
C60? C -0.1359(13) 1.0432(13) 1.4327(9)
H55? H -0.1052 0.9849 1.4014
H56? H -0.0812 1.1202 1.4255
H57? H -0.2164 1.0323 1.4005
O20? O -0.0278(10) 1.2159(9) 1.5874(10)
N9? N -0.1430(9) 1.0314(9) 1.5382(9)
C61? C -0.0847(10) 1.1245(10) 1.6040(11)
H58? H -0.0904 1.1148 1.6721
C62? C -0.2138(15) 0.9171(14) 1.5627(15)
H59? H -0.2958 0.8936 1.5288
H60? H -0.2175 0.9209 1.6347
H61? H -0.1754 0.8609 1.5408
H62? H 0.4157 1.2977 1.1418
H63? H 0.4917 1.4575 1.2622
H64? H 0.2826 1.1043 1.3561
C63? C 0.6560(10) 1.8159(8) 1.7628(6)
H65? H 0.6874 1.8821 1.8112
C64? C 0.2867(4) 1.5972(4) 1.4660(3)
C65? C 0.1849(5) 1.6226(5) 1.4850(4)
C66? C 0.1183(5) 1.5723(5) 1.5592(4)
H66? H 0.0517 1.5939 1.5779
N10? N 0.3249(4) 1.5237(4) 1.5144(4)
C67? C 0.1509(4) 1.4897(4) 1.6057(4)
C68? C 0.2541(4) 1.4675(4) 1.5819(3)
C69? C 0.4528(2) 1.2991(3) 1.6348(3)
C70? C 0.2953(3) 1.3832(2) 1.6267(2)
C71? C 0.2377(2) 1.3151(3) 1.6961(2)
H67? H 0.1642 1.3205 1.7170
H68? H 0.1031 1.4496 1.6528
H69? H 0.5263 1.2936 1.6139
C72? C 0.3952(3) 1.2309(3) 1.7041(3)
H70? H 0.4293 1.1789 1.7306
C73? C 0.2876(3) 1.2389(3) 1.7348(2)
H71? H 0.2483 1.1923 1.7822
N11? N 0.4028(3) 1.3753(2) 1.5961(2)
H72? H 0.1601 1.6737 1.4481
H73? H 0.3326 1.6333 1.4163
loop_
_geom_bond_atom_site_label_1
_geom_bond_atom_site_label_2
_geom_bond_site_symmetry_1
_geom_bond_site_symmetry_2
Zn1 O3 1_555 1_555
Zn2 O1 1_555 1_555
O1 C11 1_555 1_555
O2 Zn2 1_555 1_555
O3 C6 1_555 1_555
O4 Zn1 1_555 1_555
O5 Zn1 1_555 1_555
C1 O2 1_555 1_555
C2 C7 1_555 1_555
C3 H1 1_555 1_555
O6 Zn2 1_555 1_555
C4 C3 1_555 1_555
C5 C4 1_555 1_555
H2 C5 1_555 1_555
C6 O6 1_555 1_555
C7 H3 1_555 1_555
C8 H4 1_555 1_555
C9 C1 1_555 1_555
C10 C2 1_555 1_555
H5 C10 1_555 1_555
C11 O4 1_555 1_555
C12 C9 1_555 1_555
H6 C12 1_555 1_555
O7 C18 1_555 1_555
O8 C18 1_555 1_555
C13 C15 1_555 1_555
C14 C16 1_555 1_555
C15 H7 1_555 1_555
C16 C15 1_555 1_555
H8 C16 1_555 1_555
C17 C14 1_555 1_555
H9 C17 1_555 1_555
C18 C14 1_555 1_555
C19 C13 1_555 1_555
H10 C19 1_555 1_555
O9 C20 1_555 1_555
O10 Zn1 1_555 1_555
C20 C13 1_555 1_555
N1 C26 1_555 1_555
N2 C21 1_555 1_555
C21 C22 1_555 1_555
C22 H11 1_555 1_555
C23 C22 1_555 1_555
H12 C23 1_555 1_555
C24 C23 1_555 1_555
H13 C24 1_555 1_555
C25 N2 1_555 1_555
H14 C25 1_555 1_555
C26 C28 1_555 1_555
C27 N1 1_555 1_555
H15 C27 1_555 1_555
C28 H16 1_555 1_555
C29 C27 1_555 1_555
H17 C29 1_555 1_555
C30 C28 1_555 1_555
H18 C30 1_555 1_555
Ru1 N1 1_555 1_555
N3 Ru1 1_555 1_555
C31 N3 1_555 1_555
H19 C31 1_555 1_555
C32 C31 1_555 1_555
H20 C32 1_555 1_555
C33 C32 1_555 1_555
H21 C33 1_555 1_555
C34 C33 1_555 1_555
H22 C34 1_555 1_555
C35 C26 1_555 1_555
N4 C26 1_555 1_555
C36 C28 1_555 1_555
C37 N1 1_555 1_555
C38 C39 1_555 1_555
C39 N1 1_555 1_555
C40 H23 1_555 1_555
N5 C40 1_555 1_555
C41 N5 1_555 1_555
H24 C41 1_555 1_555
H25 C41 1_555 1_555
H26 C41 1_555 1_555
O11 C40 1_555 1_555
C42 N5 1_555 1_555
H27 C42 1_555 1_555
H28 C42 1_555 1_555
H29 C42 1_555 1_555
O1A C11A 1_555 1_555
O4A C11A 1_555 1_555
C2A C7A 1_555 1_555
C7A C10 1_555 1_555
H3A C7A 1_555 1_555
C10A C7 1_555 1_555
H5A C10A 1_555 1_555
C11A C2A 1_555 1_555
O2A C1A 1_555 1_555
O5A C1A 1_555 1_555
C1A C9A 1_555 1_555
C8A C12 1_555 1_555
H4A C8A 1_555 1_555
C9A C8A 1_555 1_555
C12A C8 1_555 1_555
H6A C12A 1_555 1_555
O3A C6A 1_555 1_555
C3A C5 1_555 1_555
H1A C3A 1_555 1_555
O6A C6A 1_555 1_555
C4A C3A 1_555 1_555
C5A C3 1_555 1_555
H2A C5A 1_555 1_555
C6A C4A 1_555 1_555
Zn1A O3A 1_555 1_555
Zn2A O6A 1_555 1_555
O7A C18A 1_555 1_555
O8A C18A 1_555 1_555
C13A C15A 1_555 1_555
C14A C16A 1_555 1_555
C15A H7A 1_555 1_555
C16A C15A 1_555 1_555
H8A C16A 1_555 1_555
C17A C14A 1_555 1_555
H9A C17A 1_555 1_555
C18A C14A 1_555 1_555
C19A C13A 1_555 1_555
H10A C19A 1_555 1_555
O9A C20A 1_555 1_555
O10A Zn1A 1_555 1_555
C20A C13A 1_555 1_555
Zn1_2 O10A 1_555 1_555
Zn1A_2 O5A 1_555 1_555
Zn1A_3 O10 1_555 1_555
Zn1A_4 O4A 1_555 1_555
Zn2_2 O7 1_555 1_555
Zn2A_2 O7A 1_555 1_555
Zn2A_3 O2A 1_555 1_555
Zn2A_4 O1A 1_555 1_555
O1A_2 Zn2A 1_555 1_555
O2A_2 Zn2A 1_555 1_555
O4A_2 Zn1A 1_555 1_555
O5A_2 Zn1A 1_555 1_555
O7_2 Zn2 1_555 1_555
O7A_2 Zn2A 1_555 1_555
O10_2 Zn1A 1_555 1_555
O10A_2 Zn1 1_555 1_555
N1A Ru1 1_555 1_555
N2A Ru1 1_555 1_555
C21A N2A 1_555 1_555
C22A C21A 1_555 1_555
H11A C22A 1_555 1_555
C23A C22A 1_555 1_555
H12A C23A 1_555 1_555
C24A C23A 1_555 1_555
H13A C24A 1_555 1_555
C25A N2A 1_555 1_555
H14A C25A 1_555 1_555
C26A N1A 1_555 1_555
C27A N1A 1_555 1_555
H15A C27A 1_555 1_555
C28A C26A 1_555 1_555
H16A C28A 1_555 1_555
C29A C27A 1_555 1_555
H17A C29A 1_555 1_555
C30A C28A 1_555 1_555
H18A C30A 1_555 1_555
Ru1A N1 1_555 1_555
N3A Ru1 1_555 1_555
C31A N3A 1_555 1_555
H19A C31A 1_555 1_555
C32A C31A 1_555 1_555
H20A C32A 1_555 1_555
C33A C32A 1_555 1_555
H21A C33A 1_555 1_555
C34A C33A 1_555 1_555
H22A C34A 1_555 1_555
C35A C26A 1_555 1_555
N4A Ru1 1_555 1_555
C36A C28A 1_555 1_555
C37A N1A 1_555 1_555
C38A C39A 1_555 1_555
C39A N1A 1_555 1_555
O5 C1 1_555 1_555
C2 C11 1_555 1_555
C4 C6 1_555 1_555
C8 C9 1_555 1_555
C17 C19 1_555 1_555
O10 C20 1_555 1_555
N2 Ru1 1_555 1_555
N2 Ru1A 1_555 1_555
C21 C39 1_555 1_555
C24 C25 1_555 1_555
C26 C37 1_555 1_555
C26 C39 1_555 1_555
C27 N4 1_555 1_555
C27 C37 1_555 1_555
C27 C39 1_555 1_555
C29 C30 1_555 1_555
C29 C36 1_555 1_555
C30 C36 1_555 1_555
Ru1 N4 1_555 1_555
N3 C35 1_555 1_555
N3 Ru1A 1_555 1_555
C34 C35 1_555 1_555
N4 C37 1_555 1_555
N4 C39 1_555 1_555
N4 Ru1A 1_555 1_555
C36 C37 1_555 1_555
C2A C10A 1_555 1_555
C9A C12A 1_555 1_555
C4A C5A 1_555 1_555
C17A C19A 1_555 1_555
O10A C20A 1_555 1_555
Zn1_2 O10_2 1_555 1_555
Zn1A_3 O10A_2 1_555 1_555
N1A Ru1A 1_555 1_555
N2A Ru1A 1_555 1_555
C21A C39A 1_555 1_555
C24A C25A 1_555 1_555
C26A N4A 1_555 1_555
C26A C37A 1_555 1_555
C26A C39A 1_555 1_555
C27A N4A 1_555 1_555
C27A C37A 1_555 1_555
C27A C39A 1_555 1_555
C29A C30A 1_555 1_555
C29A C36A 1_555 1_555
C30A C36A 1_555 1_555
Ru1A N3A 1_555 1_555
Ru1A N4A 1_555 1_555
N3A C35A 1_555 1_555
C34A C35A 1_555 1_555
N4A C37A 1_555 1_555
N4A C39A 1_555 1_555
C36A C37A 1_555 1_555

#END
