
#######################################################################
#
#                 Cambridge Crystallographic Data Centre
#                                CCDC 
#
#######################################################################
#
# If this CIF has been generated from an entry in the Cambridge 
# Structural Database, then it will include bibliographic, chemical, 
# crystal, experimental, refinement or atomic coordinate data resulting 
# from the CCDC's data processing and validation procedures.
#
#######################################################################

data_YUDJOW
_symmetry_cell_setting           monoclinic
_symmetry_space_group_name_H-M   'P 21/c'
_symmetry_Int_Tables_number      14
_space_group_name_Hall           '-P 2ybc'
loop_
_symmetry_equiv_pos_site_id
_symmetry_equiv_pos_as_xyz
1 x,y,z
2 -x,1/2+y,1/2-z
3 -x,-y,-z
4 x,1/2-y,1/2+z
_cell_length_a                   10.433(2)
_cell_length_b                   13.948(4)
_cell_length_c                   18.718(4)
_cell_angle_alpha                90
_cell_angle_beta                 105.31(2)
_cell_angle_gamma                90
_cell_volume                     2627.17
loop_
_atom_site_label
_atom_site_type_symbol
_atom_site_fract_x
_atom_site_fract_y
_atom_site_fract_z
O1 O 0.8732(1) 0.3380(1) 1.0343(1)
Si1 Si 1.1543(1) 0.3601(1) 1.1366(1)
C1 C 0.9357(2) 0.4174(1) 1.0174(1)
C2 C 0.8717(2) 0.4794(1) 0.9604(1)
C3 C 1.0667(2) 0.4379(1) 1.0578(1)
C4 C 1.3256(2) 0.4086(1) 1.1771(1)
C5 C 1.1681(2) 0.2333(1) 1.1068(1)
C6 C 1.0615(2) 0.3638(1) 1.2097(1)
O2 O 0.6329(1) 0.3362(1) 0.9752(1)
Si2 Si 0.3575(1) 0.3530(1) 0.8659(1)
C7 C 0.5669(1) 0.4157(1) 0.9874(1)
C8 C 0.6246(2) 0.4794(1) 1.0445(1)
C9 C 0.4393(1) 0.4366(1) 0.9418(1)
C10 C 0.3319(2) 0.2330(1) 0.9048(1)
C11 C 0.4614(2) 0.3385(1) 0.7988(1)
C12 C 0.1906(2) 0.4025(1) 0.8127(1)
Na1 Na 0.7319(1) 0.1897(1) 0.9806(1)
O3 O 0.8475(1) 0.0578(1) 1.0492(1)
O4 O 0.6658(1) 0.1624(1) 1.0975(1)
C13 C 0.8583(2) -0.0341(1) 1.0175(1)
C14 C 0.8412(2) 0.0499(2) 1.1239(1)
C15 C 0.7922(2) 0.1430(2) 1.1466(1)
C16 C 0.6002(3) 0.2412(2) 1.1219(1)
O5 O 0.6173(1) 0.0862(1) 0.8811(1)
O6 O 0.8546(1) 0.1743(1) 0.8876(1)
C17 C 0.5308(2) 0.0089(1) 0.8876(1)
C18 C 0.6839(2) 0.0677(1) 0.8249(1)
C19 C 0.7651(2) 0.1538(1) 0.8178(1)
C20 C 0.9401(2) 0.2526(1) 0.8828(1)
H1 H 0.7625(21) 0.3440(16) 1.0083(11)
H2 H 0.7840(17) 0.4657(12) 0.9350(9)
H3 H 1.3757(21) 0.3692(15) 1.2168(12)
H4 H 1.3764(21) 0.4073(15) 1.1369(12)
H5 H 1.3239(20) 0.4740(15) 1.1938(11)
H6 H 1.0846(22) 0.2090(15) 1.0851(12)
H7 H 1.2135(20) 0.2328(15) 1.0713(11)
H8 H 1.2087(20) 0.1947(14) 1.1472(12)
H9 H 1.0587(20) 0.4285(16) 1.2286(11)
H10 H 0.9748(23) 0.3450(15) 1.1903(12)
H11 H 1.1001(24) 0.3247(17) 1.2499(14)
H12 H 0.7109(16) 0.4664(10) 1.0746(8)
H13 H 0.2745(19) 0.2402(13) 0.9390(8)
H14 H 0.4101(22) 0.2089(14) 0.9332(12)
H15 H 0.2974(21) 0.1897(15) 0.8676(12)
H16 H 0.4710(23) 0.3967(19) 0.7767(13)
H17 H 0.4281(23) 0.2925(17) 0.7624(13)
H18 H 0.5472(25) 0.3193(16) 0.8231(13)
H19 H 0.1463(20) 0.3598(14) 0.7776(11)
H20 H 0.1964(18) 0.4659(14) 0.7947(10)
H21 H 0.1340(20) 0.4117(14) 0.8495(11)
H22 H 0.9400(21) -0.0676(15) 1.0459(11)
H23 H 0.7747(21) -0.0741(16) 1.0174(11)
H24 H 0.8606(18) -0.0253(13) 0.9638(11)
H25 H 0.9252(21) 0.0329(14) 1.1545(12)
H26 H 0.7833(19) -0.0041(14) 1.1286(11)
H27 H 0.8554(22) 0.1961(15) 1.1452(12)
H28 H 0.7926(19) 0.1364(14) 1.1968(12)
H29 H 0.6552(21) 0.2982(16) 1.1294(11)
H30 H 0.5830(19) 0.2222(14) 1.1698(11)
H31 H 0.5190(23) 0.2533(17) 1.0843(12)
H32 H 0.4576(20) 0.0006(14) 0.8412(11)
H33 H 0.4923(18) 0.0253(13) 0.9284(11)
H34 H 0.5870(22) -0.0522(16) 0.8995(11)
H35 H 0.7379(19) 0.0100(13) 0.8401(10)
H36 H 0.6196(18) 0.0561(13) 0.7782(11)
H37 H 0.8163(17) 0.1416(12) 0.7808(10)
H38 H 0.7069(18) 0.2092(14) 0.8015(10)
H39 H 0.8840(20) 0.3105(15) 0.8643(11)
H40 H 0.9986(22) 0.2627(16) 0.9333(13)
H41 H 0.9958(20) 0.2374(15) 0.8495(12)
C3B C 0.9333(2) 0.5621(1) 0.9422(1)
Si1B Si 0.8457(1) 0.6399(1) 0.8634(1)
C4B C 0.6744(2) 0.5914(1) 0.8229(1)
H3B H 0.6243(21) 0.6308(15) 0.7832(12)
H4B H 0.6236(21) 0.5927(15) 0.8631(12)
H5B H 0.6761(20) 0.5260(15) 0.8062(11)
C5B C 0.8319(2) 0.7667(1) 0.8932(1)
H6B H 0.9154(22) 0.7910(15) 0.9149(12)
H7B H 0.7865(20) 0.7672(15) 0.9287(11)
H8B H 0.7913(20) 0.8053(14) 0.8528(12)
C6B C 0.9385(2) 0.6362(1) 0.7903(1)
H9B H 0.9413(20) 0.5715(16) 0.7714(11)
H10B H 1.0252(23) 0.6550(15) 0.8097(12)
H11B H 0.8999(24) 0.6753(17) 0.7501(14)
C1B C 1.0643(2) 0.5826(1) 0.9826(1)
O1B O 1.1268(1) 0.6620(1) 0.9657(1)
H1B H 1.2375(21) 0.6560(16) 0.9917(11)
C2B C 1.1283(2) 0.5206(1) 1.0396(1)
H2B H 1.2160(17) 0.5343(12) 1.0650(9)
C9B C 0.5607(1) 0.5634(1) 1.0582(1)
Si2B Si 0.6425(1) 0.6470(1) 1.1341(1)
C10B C 0.6681(2) 0.7670(1) 1.0952(1)
H13B H 0.7255(19) 0.7598(13) 1.0610(8)
H14B H 0.5899(22) 0.7911(14) 1.0668(12)
H15B H 0.7026(21) 0.8103(15) 1.1324(12)
C11B C 0.5386(2) 0.6615(1) 1.2012(1)
H16B H 0.5290(23) 0.6033(19) 1.2233(13)
H17B H 0.5719(23) 0.7075(17) 1.2376(13)
H18B H 0.4528(25) 0.6807(16) 1.1769(13)
C12B C 0.8094(2) 0.5975(1) 1.1873(1)
H19B H 0.8537(20) 0.6402(14) 1.2224(11)
H20B H 0.8036(18) 0.5341(14) 1.2053(10)
H21B H 0.8660(20) 0.5883(14) 1.1505(11)
C7B C 0.4331(1) 0.5843(1) 1.0126(1)
O2B O 0.3671(1) 0.6638(1) 1.0248(1)
C8B C 0.3754(2) 0.5206(1) 0.9555(1)
H12B H 0.2891(16) 0.5336(10) 0.9254(8)
Na1B Na 1.2681(1) 0.8103(1) 1.0194(1)
O3B O 1.1525(1) 0.9422(1) 0.9508(1)
O4B O 1.3342(1) 0.8376(1) 0.9025(1)
C13B C 1.1417(2) 1.0341(1) 0.9825(1)
C14B C 1.1588(2) 0.9501(2) 0.8761(1)
C15B C 1.2078(2) 0.8570(2) 0.8534(1)
C16B C 1.3998(3) 0.7588(2) 0.8781(1)
H22B H 1.0600(21) 1.0676(15) 0.9541(11)
H23B H 1.2253(21) 1.0741(16) 0.9826(11)
H24B H 1.1394(18) 1.0253(13) 1.0362(11)
H25B H 1.0748(21) 0.9671(14) 0.8455(12)
H26B H 1.2167(19) 1.0041(14) 0.8714(11)
H27B H 1.1446(22) 0.8039(15) 0.8548(12)
H28B H 1.2074(19) 0.8636(14) 0.8032(12)
H29B H 1.3448(21) 0.7018(16) 0.8706(11)
H30B H 1.4170(19) 0.7778(14) 0.8302(11)
H31B H 1.4810(23) 0.7467(17) 0.9157(12)
O5B O 1.3827(1) 0.9138(1) 1.1189(1)
O6B O 1.1454(1) 0.8257(1) 1.1124(1)
C17B C 1.4692(2) 0.9911(1) 1.1124(1)
C18B C 1.3161(2) 0.9323(1) 1.1751(1)
C19B C 1.2349(2) 0.8462(1) 1.1822(1)
C20B C 1.0599(2) 0.7474(1) 1.1172(1)
H32B H 1.5424(20) 0.9994(14) 1.1588(11)
H33B H 1.5077(18) 0.9747(13) 1.0716(11)
H34B H 1.4130(22) 1.0522(16) 1.1005(11)
H35B H 1.2621(19) 0.9900(13) 1.1599(10)
H36B H 1.3804(18) 0.9439(13) 1.2218(11)
H37B H 1.1837(17) 0.8584(12) 1.2192(10)
H38B H 1.2931(18) 0.7908(14) 1.1985(10)
H39B H 1.1160(20) 0.6895(15) 1.1357(11)
H40B H 1.0014(22) 0.7373(16) 1.0667(13)
H41B H 1.0042(20) 0.7626(15) 1.1505(12)
Na1B_2 Na 0.2681(1) 0.8103(1) 1.0194(1)
O2B_2 O 1.3671(1) 0.6638(1) 1.0248(1)
loop_
_geom_bond_atom_site_label_1
_geom_bond_atom_site_label_2
_geom_bond_site_symmetry_1
_geom_bond_site_symmetry_2
O1 C1 1_555 1_555
Si1 C3 1_555 1_555
C1 C2 1_555 1_555
C2 H2 1_555 1_555
C3 C1 1_555 1_555
C4 Si1 1_555 1_555
C5 Si1 1_555 1_555
C6 Si1 1_555 1_555
O2 C7 1_555 1_555
Si2 C9 1_555 1_555
C7 C8 1_555 1_555
C8 H12 1_555 1_555
C9 C7 1_555 1_555
C10 Si2 1_555 1_555
C11 Si2 1_555 1_555
C12 Si2 1_555 1_555
Na1 O1 1_555 1_555
O3 Na1 1_555 1_555
O4 Na1 1_555 1_555
C13 O3 1_555 1_555
C14 O3 1_555 1_555
C15 O4 1_555 1_555
C16 O4 1_555 1_555
O5 Na1 1_555 1_555
O6 Na1 1_555 1_555
C17 O5 1_555 1_555
C18 O5 1_555 1_555
C19 O6 1_555 1_555
C20 O6 1_555 1_555
H1 O1 1_555 1_555
H3 C4 1_555 1_555
H4 C4 1_555 1_555
H5 C4 1_555 1_555
H6 C5 1_555 1_555
H7 C5 1_555 1_555
H8 C5 1_555 1_555
H9 C6 1_555 1_555
H10 C6 1_555 1_555
H11 C6 1_555 1_555
H13 C10 1_555 1_555
H14 C10 1_555 1_555
H15 C10 1_555 1_555
H16 C11 1_555 1_555
H17 C11 1_555 1_555
H18 C11 1_555 1_555
H19 C12 1_555 1_555
H20 C12 1_555 1_555
H21 C12 1_555 1_555
H22 C13 1_555 1_555
H23 C13 1_555 1_555
H24 C13 1_555 1_555
H25 C14 1_555 1_555
H26 C14 1_555 1_555
H27 C15 1_555 1_555
H28 C15 1_555 1_555
H29 C16 1_555 1_555
H30 C16 1_555 1_555
H31 C16 1_555 1_555
H32 C17 1_555 1_555
H33 C17 1_555 1_555
H34 C17 1_555 1_555
H35 C18 1_555 1_555
H36 C18 1_555 1_555
H37 C19 1_555 1_555
H38 C19 1_555 1_555
H39 C20 1_555 1_555
H40 C20 1_555 1_555
H41 C20 1_555 1_555
C3B C2 1_555 1_555
Si1B C3B 1_555 1_555
C4B Si1B 1_555 1_555
H3B C4B 1_555 1_555
H4B C4B 1_555 1_555
H5B C4B 1_555 1_555
C5B Si1B 1_555 1_555
H6B C5B 1_555 1_555
H7B C5B 1_555 1_555
H8B C5B 1_555 1_555
C6B Si1B 1_555 1_555
H9B C6B 1_555 1_555
H10B C6B 1_555 1_555
H11B C6B 1_555 1_555
C1B C3B 1_555 1_555
O1B C1B 1_555 1_555
H1B O1B 1_555 1_555
C2B C3 1_555 1_555
H2B C2B 1_555 1_555
C9B C8 1_555 1_555
Si2B C9B 1_555 1_555
C10B Si2B 1_555 1_555
H13B C10B 1_555 1_555
H14B C10B 1_555 1_555
H15B C10B 1_555 1_555
C11B Si2B 1_555 1_555
H16B C11B 1_555 1_555
H17B C11B 1_555 1_555
H18B C11B 1_555 1_555
C12B Si2B 1_555 1_555
H19B C12B 1_555 1_555
H20B C12B 1_555 1_555
H21B C12B 1_555 1_555
C7B C9B 1_555 1_555
O2B C7B 1_555 1_555
C8B C9 1_555 1_555
H12B C8B 1_555 1_555
Na1B O1B 1_555 1_555
O3B Na1B 1_555 1_555
O4B Na1B 1_555 1_555
C13B O3B 1_555 1_555
C14B O3B 1_555 1_555
C15B O4B 1_555 1_555
C16B O4B 1_555 1_555
H22B C13B 1_555 1_555
H23B C13B 1_555 1_555
H24B C13B 1_555 1_555
H25B C14B 1_555 1_555
H26B C14B 1_555 1_555
H27B C15B 1_555 1_555
H28B C15B 1_555 1_555
H29B C16B 1_555 1_555
H30B C16B 1_555 1_555
H31B C16B 1_555 1_555
O5B Na1B 1_555 1_555
O6B Na1B 1_555 1_555
C17B O5B 1_555 1_555
C18B O5B 1_555 1_555
C19B O6B 1_555 1_555
C20B O6B 1_555 1_555
H32B C17B 1_555 1_555
H33B C17B 1_555 1_555
H34B C17B 1_555 1_555
H35B C18B 1_555 1_555
H36B C18B 1_555 1_555
H37B C19B 1_555 1_555
H38B C19B 1_555 1_555
H39B C20B 1_555 1_555
H40B C20B 1_555 1_555
H41B C20B 1_555 1_555
Na1B_2 O2B 1_555 1_555
O2B_2 Na1B 1_555 1_555
O2 Na1 1_555 1_555
C14 C15 1_555 1_555
C18 C19 1_555 1_555
C1B C2B 1_555 1_555
C7B C8B 1_555 1_555
C14B C15B 1_555 1_555
C18B C19B 1_555 1_555

#END
