
#######################################################################
#
#                 Cambridge Crystallographic Data Centre
#                                CCDC 
#
#######################################################################
#
# If this CIF has been generated from an entry in the Cambridge 
# Structural Database, then it will include bibliographic, chemical, 
# crystal, experimental, refinement or atomic coordinate data resulting 
# from the CCDC's data processing and validation procedures.
#
#######################################################################

data_YUDKIR
_symmetry_cell_setting           orthorhombic
_symmetry_space_group_name_H-M   'P c c n'
_symmetry_Int_Tables_number      56
_space_group_name_Hall           '-P 2ab 2ac'
loop_
_symmetry_equiv_pos_site_id
_symmetry_equiv_pos_as_xyz
1 x,y,z
2 1/2-x,1/2-y,z
3 1/2+x,-y,1/2-z
4 -x,1/2+y,1/2-z
5 -x,-y,-z
6 1/2+x,1/2+y,-z
7 1/2-x,y,1/2+z
8 x,1/2-y,1/2+z
_cell_length_a                   14.796(4)
_cell_length_b                   33.950(10)
_cell_length_c                   8.336(3)
_cell_angle_alpha                90
_cell_angle_beta                 90
_cell_angle_gamma                90
_cell_volume                     4187.37
loop_
_atom_site_label
_atom_site_type_symbol
_atom_site_fract_x
_atom_site_fract_y
_atom_site_fract_z
Zn1 Zn 0.4771(1) -0.3737(1) 0.2108(1)
O1 O 0.5223(2) -0.4159(1) 0.0273(3)
C1 C 0.5615(4) -0.4538(2) 0.0404(7)
N1 N 0.5869(2) -0.3384(1) 0.1491(4)
N2 N 0.5782(3) -0.3055(1) 0.0556(5)
N3 N 0.6572(3) -0.2917(1) 0.0183(5)
N4 N 0.7187(2) -0.3160(1) 0.0900(5)
N5 N 0.6985(2) -0.4336(1) 0.4286(5)
N6 N 0.6258(3) -0.4513(1) 0.4897(5)
N7 N 0.5487(2) -0.4352(1) 0.4507(5)
N8 N 0.5699(2) -0.4042(1) 0.3577(4)
N9 N 0.8850(2) -0.3880(1) 0.2670(5)
C2 C 0.6759(3) -0.3447(1) 0.1699(5)
C3 C 0.7149(3) -0.3762(1) 0.2580(5)
C4 C 0.6622(3) -0.4040(1) 0.3451(5)
C5 C 0.8095(3) -0.3821(1) 0.2621(5)
C6 C 0.6327(3) -0.4844(1) 0.5995(6)
C7 C 0.8155(3) -0.3062(2) 0.0751(6)
N10 N 0.3604(2) -0.4090(1) 0.2488(4)
N11 N 0.3482(3) -0.4423(1) 0.1622(5)
N12 N 0.2635(3) -0.4508(1) 0.1507(5)
N13 N 0.2186(2) -0.4217(1) 0.2305(4)
N14 N 0.3168(3) -0.3078(1) 0.5461(5)
N15 N 0.4001(3) -0.2926(1) 0.5581(5)
N16 N 0.4603(2) -0.3085(1) 0.4654(5)
N17 N 0.4170(2) -0.3370(1) 0.3868(4)
N18 N 0.1030(2) -0.3485(1) 0.5045(5)
C8 C 0.2774(3) -0.3961(1) 0.2920(6)
C9 C 0.2597(3) -0.3626(1) 0.3867(5)
C10 C 0.3294(3) -0.3363(1) 0.4377(5)
C11 C 0.1728(3) -0.3550(1) 0.4484(5)
C12 C 0.4203(4) -0.2606(2) 0.6707(7)
C13 C 0.1190(3) -0.4221(2) 0.2306(6)
H1 H 0.5677(18) -0.4091(8) -0.0687(33)
H2 H 0.6376 -0.4622 0.0557
H3 H 0.5596 -0.4796 -0.0502
H4 H 0.5486 -0.4775 0.1366
H5 H 0.6570 -0.4755 0.7001
H6 H 0.6718 -0.5040 0.5542
H7 H 0.5738 -0.4955 0.6165
H8 H 0.8398 -0.2995 0.1784
H9 H 0.8230 -0.2844 0.0032
H10 H 0.8469 -0.3288 0.0335
H11 H 0.4200 -0.2707 0.7783
H12 H 0.3758 -0.2402 0.6610
H13 H 0.4790 -0.2501 0.6467
H14 H 0.0969 -0.4278 0.3364
H15 H 0.0976 -0.4418 0.1572
H16 H 0.0976 -0.3967 0.1972
N18F N 0.3970(2) -0.3485(1) 0.0045(5)
Zn1F Zn 0.0229(1) -0.3737(1) 0.7108(1)
loop_
_geom_bond_atom_site_label_1
_geom_bond_atom_site_label_2
_geom_bond_site_symmetry_1
_geom_bond_site_symmetry_2
Zn1 O1 1_555 1_555
O1 C1 1_555 1_555
C1 H2 1_555 1_555
N1 Zn1 1_555 1_555
N2 N1 1_555 1_555
N3 N2 1_555 1_555
N4 N3 1_555 1_555
N5 N6 1_555 1_555
N6 N7 1_555 1_555
N7 N8 1_555 1_555
N8 Zn1 1_555 1_555
N9 C5 1_555 1_555
C2 N1 1_555 1_555
C3 C2 1_555 1_555
C4 N5 1_555 1_555
C5 C3 1_555 1_555
C6 N6 1_555 1_555
C7 N4 1_555 1_555
N10 Zn1 1_555 1_555
N11 N10 1_555 1_555
N12 N11 1_555 1_555
N13 N12 1_555 1_555
N14 N15 1_555 1_555
N15 N16 1_555 1_555
N16 N17 1_555 1_555
N17 Zn1 1_555 1_555
N18 C11 1_555 1_555
C8 N10 1_555 1_555
C9 C8 1_555 1_555
C10 N14 1_555 1_555
C11 C9 1_555 1_555
C12 N15 1_555 1_555
C13 N13 1_555 1_555
H1 O1 1_555 1_555
H3 C1 1_555 1_555
H4 C1 1_555 1_555
H5 C6 1_555 1_555
H6 C6 1_555 1_555
H7 C6 1_555 1_555
H8 C7 1_555 1_555
H9 C7 1_555 1_555
H10 C7 1_555 1_555
H11 C12 1_555 1_555
H12 C12 1_555 1_555
H13 C12 1_555 1_555
H14 C13 1_555 1_555
H15 C13 1_555 1_555
H16 C13 1_555 1_555
N18F Zn1 1_555 1_555
Zn1F N18 1_555 1_555
N4 C2 1_555 1_555
N8 C4 1_555 1_555
C3 C4 1_555 1_555
N13 C8 1_555 1_555
N17 C10 1_555 1_555
C9 C10 1_555 1_555

#END
