
#######################################################################
#
#                 Cambridge Crystallographic Data Centre
#                                CCDC 
#
#######################################################################
#
# If this CIF has been generated from an entry in the Cambridge 
# Structural Database, then it will include bibliographic, chemical, 
# crystal, experimental, refinement or atomic coordinate data resulting 
# from the CCDC's data processing and validation procedures.
#
#######################################################################

data_YUDNIV
_symmetry_cell_setting           triclinic
_symmetry_space_group_name_H-M   'P -1'
_symmetry_Int_Tables_number      2
_space_group_name_Hall           '-P 1'
loop_
_symmetry_equiv_pos_site_id
_symmetry_equiv_pos_as_xyz
1 x,y,z
2 -x,-y,-z
_cell_length_a                   15.312(5)
_cell_length_b                   17.377(5)
_cell_length_c                   18.686(9)
_cell_angle_alpha                97.889(6)
_cell_angle_beta                 112.553(6)
_cell_angle_gamma                114.902(4)
_cell_volume                     3890.91
loop_
_atom_site_label
_atom_site_type_symbol
_atom_site_fract_x
_atom_site_fract_y
_atom_site_fract_z
Zn1 Zn 0.76086(7) 0.96462(5) 0.30780(5)
Zn2 Zn 0.07373(7) 0.02272(6) -0.15096(5)
Zn3 Zn 0.0000 0.0000 0.0000
N1 N 0.8552(5) 1.1141(4) 0.3551(4)
N2 N 0.9275(6) 1.6249(5) 0.2973(4)
N3 N 1.1767(5) 1.5933(4) 0.5264(4)
N4 N 1.4252(6) 1.5954(5) 0.7813(5)
N5 N 0.0013(5) -0.1267(4) -0.2111(4)
N6 N -0.0174(6) -0.6233(5) -0.1329(5)
N7 N -0.2711(5) -0.6053(4) -0.3700(4)
N8 N -0.5477(6) -0.6346(5) -0.6264(5)
N9 N 0.1747(5) 0.1737(4) -0.1046(4)
N10 N 0.7074(5) 0.8225(4) 0.2804(4)
N11 N 0.4540(5) 0.6534(4) 0.0503(4)
N12 N 0.2109(6) 0.6702(5) -0.1926(4)
N13 N 0.0880(6) 0.1507(4) 0.0544(4)
N14 N 0.6599(6) 0.6523(5) 0.4598(5)
N15 N 0.3724(5) 0.6298(4) 0.2152(4)
N16 N 0.1179(7) 0.6459(5) -0.0229(5)
O1 O 0.1145(4) 0.0279(3) -0.2798(3)
O2 O -0.0212(4) 0.0243(3) -0.2628(3)
O3 O -0.1652(4) -0.0182(3) -0.5652(3)
O4 O -0.2796(5) 0.0062(5) -0.5337(3)
O5 O 0.2144(4) 0.0262(3) -0.0835(3)
O6 O 0.1732(6) 0.0114(5) 0.0212(4)
O7 O 0.5258(6) -0.0016(5) 0.1151(4)
O8 O 0.5125(6) 0.0255(5) 0.2282(4)
O9 O 0.6146(4) 0.9444(4) 0.3030(3)
O10 O 0.6795(5) 0.9537(4) 0.1816(3)
O11 O -0.0267(5) 0.0088(3) -0.1070(3)
C1 C 0.8129(6) 1.1652(5) 0.3382(4)
H1 H 0.7370 1.1364 0.3033
C2 C 0.8726(6) 1.2583(5) 0.3684(5)
H2 H 0.8374 1.2907 0.3543
C3 C 0.9856(6) 1.3033(5) 0.4200(4)
C4 C 1.0315(6) 1.2509(5) 0.4383(5)
H3 H 1.1071 1.2778 0.4731
C5 C 0.9636(7) 1.1574(5) 0.4043(5)
H4 H 0.9961 1.1228 0.4167
C6 C 1.0019(8) 1.7138(6) 0.3274(6)
H5 H 0.9832 1.7494 0.2992
C7 C 1.1027(9) 1.7558(6) 0.3962(6)
H6 H 1.1497 1.8184 0.4157
C8 C 1.1340(7) 1.7032(5) 0.4370(5)
H7 H 1.2031 1.7301 0.4838
C9 C 1.0618(6) 1.6105(5) 0.4074(5)
C10 C 0.9599(7) 1.5756(6) 0.3373(5)
H8 H 0.9105 1.5133 0.3168
C11 C 1.0883(6) 1.5496(5) 0.4491(4)
C12 C 1.0259(6) 1.4563(4) 0.4125(4)
H9 H 0.9657 1.4287 0.3591
C13 C 1.0532(6) 1.4036(5) 0.4555(4)
C14 C 1.1461(6) 1.4491(4) 0.5341(4)
H10 H 1.1685 1.4161 0.5641
C15 C 1.2056(6) 1.5435(5) 0.5682(4)
C16 C 1.3411(7) 1.5527(5) 0.7031(5)
H11 H 1.3059 1.4897 0.6814
C17 C 1.3028(6) 1.5946(5) 0.6524(4)
C18 C 1.3585(6) 1.6883(5) 0.6850(5)
H12 H 1.3367 1.7204 0.6536
C19 C 1.4466(7) 1.7336(6) 0.7645(5)
H13 H 1.4858 1.7967 0.7868
C20 C 1.4764(7) 1.6850(6) 0.8107(5)
H14 H 1.5349 1.7163 0.8649
C21 C 0.0579(6) -0.1701(5) -0.1983(5)
H15 H 0.1346 -0.1350 -0.1682
C22 C 0.0093(6) -0.2624(5) -0.2267(4)
H16 H 0.0524 -0.2886 -0.2133
C23 C -0.1064(6) -0.3175(5) -0.2765(4)
C24 C -0.1651(6) -0.2736(5) -0.2919(5)
H17 H -0.2417 -0.3069 -0.3245
C25 C -0.1087(6) -0.1795(5) -0.2582(5)
H18 H -0.1498 -0.1514 -0.2689
C26 C -0.0877(8) -0.7117(6) -0.1604(6)
H19 H -0.0673 -0.7453 -0.1303
C27 C -0.1900(8) -0.7571(6) -0.2314(6)
H20 H -0.2373 -0.8194 -0.2488
C28 C -0.2193(7) -0.7058(6) -0.2759(5)
H21 H -0.2867 -0.7345 -0.3247
C29 C -0.1498(6) -0.6132(5) -0.2485(5)
C30 C -0.0497(7) -0.5756(5) -0.1760(5)
H22 H -0.0018 -0.5131 -0.1559
C31 C -0.1830(6) -0.5585(5) -0.2950(4)
C32 C -0.1243(6) -0.4632(5) -0.2616(4)
H23 H -0.0617 -0.4318 -0.2094
C33 C -0.1610(6) -0.4168(5) -0.3078(4)
C34 C -0.2546(6) -0.4682(5) -0.3872(5)
H24 H -0.2810 -0.4392 -0.4203
C35 C -0.3071(6) -0.5614(5) -0.4156(4)
C36 C -0.4603(7) -0.5859(6) -0.5489(5)
H25 H -0.4361 -0.5247 -0.5273
C37 C -0.4047(6) -0.6195(5) -0.4997(5)
C38 C -0.4438(7) -0.7114(5) -0.5329(5)
H26 H -0.4096 -0.7384 -0.5025
C39 C -0.5329(7) -0.7616(6) -0.6106(6)
H27 H -0.5597 -0.8231 -0.6335
C40 C -0.5829(7) -0.7221(6) -0.6548(5)
H28 H -0.6444 -0.7581 -0.7072
C41 C 0.1235(6) 0.2197(5) -0.1285(5)
H29 H 0.0486 0.1866 -0.1675
C42 C 0.1751(7) 0.3124(5) -0.0989(5)
H30 H 0.1349 0.3405 -0.1162
C43 C 0.2886(6) 0.3647(4) -0.0425(4)
C44 C 0.3404(6) 0.3172(5) -0.0180(4)
H31 H 0.4154 0.3483 0.0205
C45 C 0.2819(6) 0.2247(5) -0.0501(5)
H32 H 0.3199 0.1950 -0.0325
C46 C 0.7692(6) 0.7926(5) 0.3278(5)
H33 H 0.8307 0.8340 0.3787
C47 C 0.7464(6) 0.7053(5) 0.3050(5)
H34 H 0.7907 0.6877 0.3396
C48 C 0.6559(6) 0.6441(5) 0.2292(5)
H35 H 0.6395 0.5846 0.2116
C49 C 0.5891(6) 0.6706(5) 0.1793(4)
C50 C 0.6204(6) 0.7601(4) 0.2088(4)
H36 H 0.5765 0.7788 0.1753
C51 C 0.4903(6) 0.6099(4) 0.0967(4)
C52 C 0.4391(6) 0.5161(5) 0.0684(4)
H37 H 0.4658 0.4873 0.1017
C53 C 0.3465(6) 0.4651(4) -0.0111(4)
C54 C 0.3125(6) 0.5104(4) -0.0594(4)
H38 H 0.2541 0.4785 -0.1136
C55 C 0.3666(6) 0.6051(5) -0.0264(4)
C56 C 0.2424(7) 0.6228(6) -0.1493(5)
H39 H 0.1986 0.5598 -0.1724
C57 C 0.3360(6) 0.6612(5) -0.0719(5)
C58 C 0.4009(7) 0.7565(5) -0.0375(5)
H40 H 0.4639 0.7855 0.0145
C59 C 0.3703(7) 0.8058(5) -0.0815(5)
H41 H 0.4127 0.8689 -0.0603
C60 C 0.2759(7) 0.7609(6) -0.1574(5)
H42 H 0.2558 0.7955 -0.1863
C61 C 0.0354(7) 0.1954(6) 0.0358(6)
H43 H -0.0407 0.1613 0.0010
C62 C 0.0852(7) 0.2884(5) 0.0642(5)
H44 H 0.0443 0.3161 0.0477
C63 C 0.1978(6) 0.3395(5) 0.1177(4)
C64 C 0.2541(6) 0.2932(5) 0.1383(5)
H45 H 0.3300 0.3249 0.1740
C65 C 0.1955(8) 0.2005(6) 0.1050(5)
H46 H 0.2340 0.1705 0.1190
C66 C 0.6893(7) 0.7371(7) 0.4950(6)
H47 H 0.7515 0.7713 0.5474
C67 C 0.6336(7) 0.7768(6) 0.4588(6)
H48 H 0.6582 0.8368 0.4861
C68 C 0.5425(7) 0.7292(5) 0.3832(5)
H49 H 0.5043 0.7565 0.3584
C69 C 0.5052(6) 0.6387(5) 0.3418(5)
C70 C 0.5678(7) 0.6054(6) 0.3839(5)
H50 H 0.5452 0.5456 0.3581
C71 C 0.4059(6) 0.5839(5) 0.2594(4)
C72 C 0.3521(6) 0.4901(5) 0.2300(4)
H51 H 0.3781 0.4604 0.2624
C73 C 0.2589(6) 0.4405(5) 0.1515(5)
C74 C 0.2230(6) 0.4887(5) 0.1062(5)
H52 H 0.1603 0.4579 0.0540
C75 C 0.2819(6) 0.5837(5) 0.1398(5)
C76 C 0.1499(7) 0.6000(5) 0.0207(5)
H53 H 0.1027 0.5374 0.0010
C77 C 0.2487(6) 0.6384(5) 0.0937(5)
C78 C 0.3180(7) 0.7316(5) 0.1226(5)
H54 H 0.3848 0.7614 0.1719
C79 C 0.2850(8) 0.7792(6) 0.0759(7)
H55 H 0.3309 0.8417 0.0928
C80 C 0.1871(8) 0.7355(7) 0.0066(6)
H56 H 0.1660 0.7695 -0.0227
C81 C 0.0244(7) 0.0243(4) -0.3068(4)
C82 C -0.0364(6) 0.0153(5) -0.3949(4)
H57 H -0.0047 0.0129 -0.4282
C83 C -0.1325(6) 0.0105(5) -0.4282(4)
H58 H -0.1620 0.0149 -0.3936
C84 C -0.1983(7) -0.0013(5) -0.5166(4)
C85 C 0.2333(7) 0.0185(5) -0.0104(6)
C86 C 0.3387(8) 0.0140(5) 0.0315(5)
H59 H 0.3734 0.0080 0.0016
C87 C 0.3799(8) 0.0187(6) 0.1088(6)
H60 H 0.3426 0.0241 0.1366
C88 C 0.4826(8) 0.0160(6) 0.1563(7)
Zn1A Zn -0.76086(7) -0.96462(5) -0.30780(5)
Zn1A_2 Zn 0.23914(7) 0.03538(5) -0.30780(5)
Zn1_2 Zn -0.23914(7) -0.03538(5) -0.69220(5)
Zn1_3 Zn -0.23914(7) -0.03538(5) 0.30780(5)
Zn1A_3 Zn 0.23914(7) 0.03538(5) 0.69220(5)
Zn2A Zn -0.07373(7) -0.02272(6) 0.15096(5)
N1A N -0.8552(5) -1.1141(4) -0.3551(4)
N2A N -0.9275(6) -1.6249(5) -0.2973(4)
N3A N -1.1767(5) -1.5933(4) -0.5264(4)
N4A N -1.4252(6) -1.5954(5) -0.7813(5)
N5A N -0.0013(5) 0.1267(4) 0.2111(4)
N6A N 0.0174(6) 0.6233(5) 0.1329(5)
N7A N 0.2711(5) 0.6053(4) 0.3700(4)
N8A N 0.5477(6) 0.6346(5) 0.6264(5)
N9A N -0.1747(5) -0.1737(4) 0.1046(4)
N10A N -0.7074(5) -0.8225(4) -0.2804(4)
N11A N -0.4540(5) -0.6534(4) -0.0503(4)
N12A N -0.2109(6) -0.6702(5) 0.1926(4)
N13A N -0.0880(6) -0.1507(4) -0.0544(4)
N14A N -0.6599(6) -0.6523(5) -0.4598(5)
N15A N -0.3724(5) -0.6298(4) -0.2152(4)
N16A N -0.1179(7) -0.6459(5) 0.0229(5)
O1A O -0.1145(4) -0.0279(3) 0.2798(3)
O1A_2 O 0.8855(4) 0.9721(3) 0.2798(3)
O1_2 O -0.8855(4) -0.9721(3) -0.2798(3)
O2A O 0.0212(4) -0.0243(3) 0.2628(3)
O3A O 0.1652(4) 0.0182(3) 0.5652(3)
O3_2 O 0.8348(4) 0.9818(3) 0.4348(3)
O3A_2 O -0.8348(4) -0.9818(3) -0.4348(3)
O4A O 0.2796(5) -0.0062(5) 0.5337(3)
O5A O -0.2144(4) -0.0262(3) 0.0835(3)
O6A O -0.1732(6) -0.0114(5) -0.0212(4)
O7A O -0.5258(6) 0.0016(5) -0.1151(4)
O8A O -0.5125(6) -0.0255(5) -0.2282(4)
O9A O -0.6146(4) -0.9444(4) -0.3030(3)
O10A O -0.6795(5) -0.9537(4) -0.1816(3)
O11A O 0.0267(5) -0.0088(3) 0.1070(3)
C1A C -0.8129(6) -1.1652(5) -0.3382(4)
H1A H -0.7370 -1.1364 -0.3033
C2A C -0.8726(6) -1.2583(5) -0.3684(5)
H2A H -0.8374 -1.2907 -0.3543
C3A C -0.9856(6) -1.3033(5) -0.4200(4)
C4A C -1.0315(6) -1.2509(5) -0.4383(5)
H3A H -1.1071 -1.2778 -0.4731
C5A C -0.9636(7) -1.1574(5) -0.4043(5)
H4A H -0.9961 -1.1228 -0.4167
C6A C -1.0019(8) -1.7138(6) -0.3274(6)
H5A H -0.9832 -1.7494 -0.2992
C7A C -1.1027(9) -1.7558(6) -0.3962(6)
H6A H -1.1497 -1.8184 -0.4157
C8A C -1.1340(7) -1.7032(5) -0.4370(5)
H7A H -1.2031 -1.7301 -0.4838
C9A C -1.0618(6) -1.6105(5) -0.4074(5)
C10A C -0.9599(7) -1.5756(6) -0.3373(5)
H8A H -0.9105 -1.5133 -0.3168
C11A C -1.0883(6) -1.5496(5) -0.4491(4)
C12A C -1.0259(6) -1.4563(4) -0.4125(4)
H9A H -0.9657 -1.4287 -0.3591
C13A C -1.0532(6) -1.4036(5) -0.4555(4)
C14A C -1.1461(6) -1.4491(4) -0.5341(4)
H10A H -1.1685 -1.4161 -0.5641
C15A C -1.2056(6) -1.5435(5) -0.5682(4)
C16A C -1.3411(7) -1.5527(5) -0.7031(5)
H11A H -1.3059 -1.4897 -0.6814
C17A C -1.3028(6) -1.5946(5) -0.6524(4)
C18A C -1.3585(6) -1.6883(5) -0.6850(5)
H12A H -1.3367 -1.7204 -0.6536
C19A C -1.4466(7) -1.7336(6) -0.7645(5)
H13A H -1.4858 -1.7967 -0.7868
C20A C -1.4764(7) -1.6850(6) -0.8107(5)
H14A H -1.5349 -1.7163 -0.8649
C21A C -0.0579(6) 0.1701(5) 0.1983(5)
H15A H -0.1346 0.1350 0.1682
C22A C -0.0093(6) 0.2624(5) 0.2267(4)
H16A H -0.0524 0.2886 0.2133
C23A C 0.1064(6) 0.3175(5) 0.2765(4)
C24A C 0.1651(6) 0.2736(5) 0.2919(5)
H17A H 0.2417 0.3069 0.3245
C25A C 0.1087(6) 0.1795(5) 0.2582(5)
H18A H 0.1498 0.1514 0.2689
C26A C 0.0877(8) 0.7117(6) 0.1604(6)
H19A H 0.0673 0.7453 0.1303
C27A C 0.1900(8) 0.7571(6) 0.2314(6)
H20A H 0.2373 0.8194 0.2488
C28A C 0.2193(7) 0.7058(6) 0.2759(5)
H21A H 0.2867 0.7345 0.3247
C29A C 0.1498(6) 0.6132(5) 0.2485(5)
C30A C 0.0497(7) 0.5756(5) 0.1760(5)
H22A H 0.0018 0.5131 0.1559
C31A C 0.1830(6) 0.5585(5) 0.2950(4)
C32A C 0.1243(6) 0.4632(5) 0.2616(4)
H23A H 0.0617 0.4318 0.2094
C33A C 0.1610(6) 0.4168(5) 0.3078(4)
C34A C 0.2546(6) 0.4682(5) 0.3872(5)
H24A H 0.2810 0.4392 0.4203
C35A C 0.3071(6) 0.5614(5) 0.4156(4)
C36A C 0.4603(7) 0.5859(6) 0.5489(5)
H25A H 0.4361 0.5247 0.5273
C37A C 0.4047(6) 0.6195(5) 0.4997(5)
C38A C 0.4438(7) 0.7114(5) 0.5329(5)
H26A H 0.4096 0.7384 0.5025
C39A C 0.5329(7) 0.7616(6) 0.6106(6)
H27A H 0.5597 0.8231 0.6335
C40A C 0.5829(7) 0.7221(6) 0.6548(5)
H28A H 0.6444 0.7581 0.7072
C41A C -0.1235(6) -0.2197(5) 0.1285(5)
H29A H -0.0486 -0.1866 0.1675
C42A C -0.1751(7) -0.3124(5) 0.0989(5)
H30A H -0.1349 -0.3405 0.1162
C43A C -0.2886(6) -0.3647(4) 0.0425(4)
C44A C -0.3404(6) -0.3172(5) 0.0180(4)
H31A H -0.4154 -0.3483 -0.0205
C45A C -0.2819(6) -0.2247(5) 0.0501(5)
H32A H -0.3199 -0.1950 0.0325
C46A C -0.7692(6) -0.7926(5) -0.3278(5)
H33A H -0.8307 -0.8340 -0.3787
C47A C -0.7464(6) -0.7053(5) -0.3050(5)
H34A H -0.7907 -0.6877 -0.3396
C48A C -0.6559(6) -0.6441(5) -0.2292(5)
H35A H -0.6395 -0.5846 -0.2116
C49A C -0.5891(6) -0.6706(5) -0.1793(4)
C50A C -0.6204(6) -0.7601(4) -0.2088(4)
H36A H -0.5765 -0.7788 -0.1753
C51A C -0.4903(6) -0.6099(4) -0.0967(4)
C52A C -0.4391(6) -0.5161(5) -0.0684(4)
H37A H -0.4658 -0.4873 -0.1017
C53A C -0.3465(6) -0.4651(4) 0.0111(4)
C54A C -0.3125(6) -0.5104(4) 0.0594(4)
H38A H -0.2541 -0.4785 0.1136
C55A C -0.3666(6) -0.6051(5) 0.0264(4)
C56A C -0.2424(7) -0.6228(6) 0.1493(5)
H39A H -0.1986 -0.5598 0.1724
C57A C -0.3360(6) -0.6612(5) 0.0719(5)
C58A C -0.4009(7) -0.7565(5) 0.0375(5)
H40A H -0.4639 -0.7855 -0.0145
C59A C -0.3703(7) -0.8058(5) 0.0815(5)
H41A H -0.4127 -0.8689 0.0603
C60A C -0.2759(7) -0.7609(6) 0.1574(5)
H42A H -0.2558 -0.7955 0.1863
C61A C -0.0354(7) -0.1954(6) -0.0358(6)
H43A H 0.0407 -0.1613 -0.0010
C62A C -0.0852(7) -0.2884(5) -0.0642(5)
H44A H -0.0443 -0.3161 -0.0477
C63A C -0.1978(6) -0.3395(5) -0.1177(4)
C64A C -0.2541(6) -0.2932(5) -0.1383(5)
H45A H -0.3300 -0.3249 -0.1740
C65A C -0.1955(8) -0.2005(6) -0.1050(5)
H46A H -0.2340 -0.1705 -0.1190
C66A C -0.6893(7) -0.7371(7) -0.4950(6)
H47A H -0.7515 -0.7713 -0.5474
C67A C -0.6336(7) -0.7768(6) -0.4588(6)
H48A H -0.6582 -0.8368 -0.4861
C68A C -0.5425(7) -0.7292(5) -0.3832(5)
H49A H -0.5043 -0.7565 -0.3584
C69A C -0.5052(6) -0.6387(5) -0.3418(5)
C70A C -0.5678(7) -0.6054(6) -0.3839(5)
H50A H -0.5452 -0.5456 -0.3581
C71A C -0.4059(6) -0.5839(5) -0.2594(4)
C72A C -0.3521(6) -0.4901(5) -0.2300(4)
H51A H -0.3781 -0.4604 -0.2624
C73A C -0.2589(6) -0.4405(5) -0.1515(5)
C74A C -0.2230(6) -0.4887(5) -0.1062(5)
H52A H -0.1603 -0.4579 -0.0540
C75A C -0.2819(6) -0.5837(5) -0.1398(5)
C76A C -0.1499(7) -0.6000(5) -0.0207(5)
H53A H -0.1027 -0.5374 -0.0010
C77A C -0.2487(6) -0.6384(5) -0.0937(5)
C78A C -0.3180(7) -0.7316(5) -0.1226(5)
H54A H -0.3848 -0.7614 -0.1719
C79A C -0.2850(8) -0.7792(6) -0.0759(7)
H55A H -0.3309 -0.8417 -0.0928
C80A C -0.1871(8) -0.7355(7) -0.0066(6)
H56A H -0.1660 -0.7695 0.0227
C81A C -0.0244(7) -0.0243(4) 0.3068(4)
C82A C 0.0364(6) -0.0153(5) 0.3949(4)
H57A H 0.0047 -0.0129 0.4282
C83A C 0.1325(6) -0.0105(5) 0.4282(4)
H58A H 0.1620 -0.0149 0.3936
C84A C 0.1983(7) 0.0013(5) 0.5166(4)
C85A C -0.2333(7) -0.0185(5) 0.0104(6)
C86A C -0.3387(8) -0.0140(5) -0.0315(5)
H59A H -0.3734 -0.0080 -0.0016
C87A C -0.3799(8) -0.0187(6) -0.1088(6)
H60A H -0.3426 -0.0241 -0.1366
C88A C -0.4826(8) -0.0160(6) -0.1563(7)
O12 O 0.6086(9) 0.9985(8) 0.6932(8)
O13 O 0.7786(12) 0.9720(15) 0.7444(12)
C89 C 0.8263(19) 1.0548(15) 0.7819(19)
loop_
_geom_bond_atom_site_label_1
_geom_bond_atom_site_label_2
_geom_bond_site_symmetry_1
_geom_bond_site_symmetry_2
Zn1 N1 1_555 1_555
Zn2 N5 1_555 1_555
Zn3 N13 1_555 1_555
N1 C1 1_555 1_555
N2 C6 1_555 1_555
N3 C11 1_555 1_555
N4 C16 1_555 1_555
N5 C21 1_555 1_555
N6 C26 1_555 1_555
N7 C31 1_555 1_555
N8 C36 1_555 1_555
N9 Zn2 1_555 1_555
N10 Zn1 1_555 1_555
N11 C51 1_555 1_555
N12 C56 1_555 1_555
N13 C61 1_555 1_555
N14 C66 1_555 1_555
N15 C71 1_555 1_555
N16 C76 1_555 1_555
O1 C81 1_555 1_555
O2 Zn2 1_555 1_555
O3 C84 1_555 1_555
O4 C84 1_555 1_555
O5 Zn2 1_555 1_555
O6 Zn3 1_555 1_555
O7 C88 1_555 1_555
O8 C88 1_555 1_555
O9 Zn1 1_555 1_555
O10 Zn1 1_555 1_555
O11 Zn2 1_555 1_555
C1 H1 1_555 1_555
C2 C1 1_555 1_555
H2 C2 1_555 1_555
C3 C2 1_555 1_555
C4 C3 1_555 1_555
H3 C4 1_555 1_555
C5 N1 1_555 1_555
H4 C5 1_555 1_555
C6 H5 1_555 1_555
C7 C6 1_555 1_555
H6 C7 1_555 1_555
C8 C7 1_555 1_555
H7 C8 1_555 1_555
C9 C8 1_555 1_555
C10 N2 1_555 1_555
H8 C10 1_555 1_555
C11 C9 1_555 1_555
C12 C11 1_555 1_555
H9 C12 1_555 1_555
C13 C3 1_555 1_555
C14 C13 1_555 1_555
H10 C14 1_555 1_555
C15 N3 1_555 1_555
C16 H11 1_555 1_555
C17 C15 1_555 1_555
C18 C17 1_555 1_555
H12 C18 1_555 1_555
C19 C18 1_555 1_555
H13 C19 1_555 1_555
C20 N4 1_555 1_555
H14 C20 1_555 1_555
C21 H15 1_555 1_555
C22 C21 1_555 1_555
H16 C22 1_555 1_555
C23 C22 1_555 1_555
C24 C23 1_555 1_555
H17 C24 1_555 1_555
C25 N5 1_555 1_555
H18 C25 1_555 1_555
C26 H19 1_555 1_555
C27 C26 1_555 1_555
H20 C27 1_555 1_555
C28 C27 1_555 1_555
H21 C28 1_555 1_555
C29 C28 1_555 1_555
C30 N6 1_555 1_555
H22 C30 1_555 1_555
C31 C29 1_555 1_555
C32 C31 1_555 1_555
H23 C32 1_555 1_555
C33 C23 1_555 1_555
C34 C33 1_555 1_555
H24 C34 1_555 1_555
C35 N7 1_555 1_555
C36 H25 1_555 1_555
C37 C35 1_555 1_555
C38 C37 1_555 1_555
H26 C38 1_555 1_555
C39 C38 1_555 1_555
H27 C39 1_555 1_555
C40 N8 1_555 1_555
H28 C40 1_555 1_555
C41 N9 1_555 1_555
H29 C41 1_555 1_555
C42 C41 1_555 1_555
H30 C42 1_555 1_555
C43 C42 1_555 1_555
C44 C43 1_555 1_555
H31 C44 1_555 1_555
C45 N9 1_555 1_555
H32 C45 1_555 1_555
C46 N10 1_555 1_555
H33 C46 1_555 1_555
C47 C46 1_555 1_555
H34 C47 1_555 1_555
C48 C47 1_555 1_555
H35 C48 1_555 1_555
C49 C48 1_555 1_555
C50 N10 1_555 1_555
H36 C50 1_555 1_555
C51 C49 1_555 1_555
C52 C51 1_555 1_555
H37 C52 1_555 1_555
C53 C43 1_555 1_555
C54 C53 1_555 1_555
H38 C54 1_555 1_555
C55 N11 1_555 1_555
C56 H39 1_555 1_555
C57 C55 1_555 1_555
C58 C57 1_555 1_555
H40 C58 1_555 1_555
C59 C58 1_555 1_555
H41 C59 1_555 1_555
C60 N12 1_555 1_555
H42 C60 1_555 1_555
C61 H43 1_555 1_555
C62 C61 1_555 1_555
H44 C62 1_555 1_555
C63 C62 1_555 1_555
C64 C63 1_555 1_555
H45 C64 1_555 1_555
C65 N13 1_555 1_555
H46 C65 1_555 1_555
C66 H47 1_555 1_555
C67 C66 1_555 1_555
H48 C67 1_555 1_555
C68 C67 1_555 1_555
H49 C68 1_555 1_555
C69 C68 1_555 1_555
C70 N14 1_555 1_555
H50 C70 1_555 1_555
C71 C69 1_555 1_555
C72 C71 1_555 1_555
H51 C72 1_555 1_555
C73 C63 1_555 1_555
C74 C73 1_555 1_555
H52 C74 1_555 1_555
C75 N15 1_555 1_555
C76 H53 1_555 1_555
C77 C75 1_555 1_555
C78 C77 1_555 1_555
H54 C78 1_555 1_555
C79 C78 1_555 1_555
H55 C79 1_555 1_555
C80 N16 1_555 1_555
H56 C80 1_555 1_555
C81 O2 1_555 1_555
C82 C81 1_555 1_555
H57 C82 1_555 1_555
C83 C82 1_555 1_555
H58 C83 1_555 1_555
C84 C83 1_555 1_555
C85 O5 1_555 1_555
C86 C85 1_555 1_555
H59 C86 1_555 1_555
C87 C86 1_555 1_555
H60 C87 1_555 1_555
C88 C87 1_555 1_555
O13 C89 1_555 1_555
Zn1A N1A 1_555 1_555
Zn1A_2 O1 1_555 1_555
Zn1_2 O3 1_555 1_555
Zn1_3 O1A 1_555 1_555
Zn1A_3 O3A 1_555 1_555
Zn2A N5A 1_555 1_555
N1A C1A 1_555 1_555
N2A C6A 1_555 1_555
N3A C11A 1_555 1_555
N4A C16A 1_555 1_555
N5A C21A 1_555 1_555
N6A C26A 1_555 1_555
N7A C31A 1_555 1_555
N8A C36A 1_555 1_555
N9A Zn2A 1_555 1_555
N10A Zn1A 1_555 1_555
N11A C51A 1_555 1_555
N12A C56A 1_555 1_555
N13A Zn3 1_555 1_555
N14A C66A 1_555 1_555
N15A C71A 1_555 1_555
N16A C76A 1_555 1_555
O1A C81A 1_555 1_555
O1A_2 Zn1 1_555 1_555
O1_2 Zn1A 1_555 1_555
O2A Zn2A 1_555 1_555
O3A C84A 1_555 1_555
O3_2 Zn1 1_555 1_555
O3A_2 Zn1A 1_555 1_555
O4A C84A 1_555 1_555
O5A Zn2A 1_555 1_555
O6A Zn3 1_555 1_555
O7A C88A 1_555 1_555
O8A C88A 1_555 1_555
O9A Zn1A 1_555 1_555
O10A Zn1A 1_555 1_555
O11A Zn3 1_555 1_555
C1A H1A 1_555 1_555
C2A C1A 1_555 1_555
H2A C2A 1_555 1_555
C3A C2A 1_555 1_555
C4A C3A 1_555 1_555
H3A C4A 1_555 1_555
C5A N1A 1_555 1_555
H4A C5A 1_555 1_555
C6A H5A 1_555 1_555
C7A C6A 1_555 1_555
H6A C7A 1_555 1_555
C8A C7A 1_555 1_555
H7A C8A 1_555 1_555
C9A C8A 1_555 1_555
C10A N2A 1_555 1_555
H8A C10A 1_555 1_555
C11A C9A 1_555 1_555
C12A C11A 1_555 1_555
H9A C12A 1_555 1_555
C13A C3A 1_555 1_555
C14A C13A 1_555 1_555
H10A C14A 1_555 1_555
C15A N3A 1_555 1_555
C16A H11A 1_555 1_555
C17A C15A 1_555 1_555
C18A C17A 1_555 1_555
H12A C18A 1_555 1_555
C19A C18A 1_555 1_555
H13A C19A 1_555 1_555
C20A N4A 1_555 1_555
H14A C20A 1_555 1_555
C21A H15A 1_555 1_555
C22A C21A 1_555 1_555
H16A C22A 1_555 1_555
C23A C22A 1_555 1_555
C24A C23A 1_555 1_555
H17A C24A 1_555 1_555
C25A N5A 1_555 1_555
H18A C25A 1_555 1_555
C26A H19A 1_555 1_555
C27A C26A 1_555 1_555
H20A C27A 1_555 1_555
C28A C27A 1_555 1_555
H21A C28A 1_555 1_555
C29A C28A 1_555 1_555
C30A N6A 1_555 1_555
H22A C30A 1_555 1_555
C31A C29A 1_555 1_555
C32A C31A 1_555 1_555
H23A C32A 1_555 1_555
C33A C23A 1_555 1_555
C34A C33A 1_555 1_555
H24A C34A 1_555 1_555
C35A N7A 1_555 1_555
C36A H25A 1_555 1_555
C37A C35A 1_555 1_555
C38A C37A 1_555 1_555
H26A C38A 1_555 1_555
C39A C38A 1_555 1_555
H27A C39A 1_555 1_555
C40A N8A 1_555 1_555
H28A C40A 1_555 1_555
C41A N9A 1_555 1_555
H29A C41A 1_555 1_555
C42A C41A 1_555 1_555
H30A C42A 1_555 1_555
C43A C42A 1_555 1_555
C44A C43A 1_555 1_555
H31A C44A 1_555 1_555
C45A N9A 1_555 1_555
H32A C45A 1_555 1_555
C46A N10A 1_555 1_555
H33A C46A 1_555 1_555
C47A C46A 1_555 1_555
H34A C47A 1_555 1_555
C48A C47A 1_555 1_555
H35A C48A 1_555 1_555
C49A C48A 1_555 1_555
C50A N10A 1_555 1_555
H36A C50A 1_555 1_555
C51A C49A 1_555 1_555
C52A C51A 1_555 1_555
H37A C52A 1_555 1_555
C53A C43A 1_555 1_555
C54A C53A 1_555 1_555
H38A C54A 1_555 1_555
C55A N11A 1_555 1_555
C56A H39A 1_555 1_555
C57A C55A 1_555 1_555
C58A C57A 1_555 1_555
H40A C58A 1_555 1_555
C59A C58A 1_555 1_555
H41A C59A 1_555 1_555
C60A N12A 1_555 1_555
H42A C60A 1_555 1_555
C61A N13A 1_555 1_555
H43A C61A 1_555 1_555
C62A C61A 1_555 1_555
H44A C62A 1_555 1_555
C63A C62A 1_555 1_555
C64A C63A 1_555 1_555
H45A C64A 1_555 1_555
C65A N13A 1_555 1_555
H46A C65A 1_555 1_555
C66A H47A 1_555 1_555
C67A C66A 1_555 1_555
H48A C67A 1_555 1_555
C68A C67A 1_555 1_555
H49A C68A 1_555 1_555
C69A C68A 1_555 1_555
C70A N14A 1_555 1_555
H50A C70A 1_555 1_555
C71A C69A 1_555 1_555
C72A C71A 1_555 1_555
H51A C72A 1_555 1_555
C73A C63A 1_555 1_555
C74A C73A 1_555 1_555
H52A C74A 1_555 1_555
C75A N15A 1_555 1_555
C76A H53A 1_555 1_555
C77A C75A 1_555 1_555
C78A C77A 1_555 1_555
H54A C78A 1_555 1_555
C79A C78A 1_555 1_555
H55A C79A 1_555 1_555
C80A N16A 1_555 1_555
H56A C80A 1_555 1_555
C81A O2A 1_555 1_555
C82A C81A 1_555 1_555
H57A C82A 1_555 1_555
C83A C82A 1_555 1_555
H58A C83A 1_555 1_555
C84A C83A 1_555 1_555
C85A O5A 1_555 1_555
C86A C85A 1_555 1_555
H59A C86A 1_555 1_555
C87A C86A 1_555 1_555
H60A C87A 1_555 1_555
C88A C87A 1_555 1_555
Zn3 O11 1_555 1_555
O6 C85 1_555 1_555
C4 C5 1_555 1_555
C9 C10 1_555 1_555
C12 C13 1_555 1_555
C14 C15 1_555 1_555
C16 C17 1_555 1_555
C19 C20 1_555 1_555
C24 C25 1_555 1_555
C29 C30 1_555 1_555
C32 C33 1_555 1_555
C34 C35 1_555 1_555
C36 C37 1_555 1_555
C39 C40 1_555 1_555
C44 C45 1_555 1_555
C49 C50 1_555 1_555
C52 C53 1_555 1_555
C54 C55 1_555 1_555
C56 C57 1_555 1_555
C59 C60 1_555 1_555
C64 C65 1_555 1_555
C69 C70 1_555 1_555
C72 C73 1_555 1_555
C74 C75 1_555 1_555
C76 C77 1_555 1_555
C79 C80 1_555 1_555
Zn2A O11A 1_555 1_555
O6A C85A 1_555 1_555
C4A C5A 1_555 1_555
C9A C10A 1_555 1_555
C12A C13A 1_555 1_555
C14A C15A 1_555 1_555
C16A C17A 1_555 1_555
C19A C20A 1_555 1_555
C24A C25A 1_555 1_555
C29A C30A 1_555 1_555
C32A C33A 1_555 1_555
C34A C35A 1_555 1_555
C36A C37A 1_555 1_555
C39A C40A 1_555 1_555
C44A C45A 1_555 1_555
C49A C50A 1_555 1_555
C52A C53A 1_555 1_555
C54A C55A 1_555 1_555
C56A C57A 1_555 1_555
C59A C60A 1_555 1_555
C64A C65A 1_555 1_555
C69A C70A 1_555 1_555
C72A C73A 1_555 1_555
C74A C75A 1_555 1_555
C76A C77A 1_555 1_555
C79A C80A 1_555 1_555

#END
