
#######################################################################
#
#                 Cambridge Crystallographic Data Centre
#                                CCDC 
#
#######################################################################
#
# If this CIF has been generated from an entry in the Cambridge 
# Structural Database, then it will include bibliographic, chemical, 
# crystal, experimental, refinement or atomic coordinate data resulting 
# from the CCDC's data processing and validation procedures.
#
#######################################################################

data_YUDPAP
_symmetry_cell_setting           triclinic
_symmetry_space_group_name_H-M   'P -1'
_symmetry_Int_Tables_number      2
_space_group_name_Hall           '-P 1'
loop_
_symmetry_equiv_pos_site_id
_symmetry_equiv_pos_as_xyz
1 x,y,z
2 -x,-y,-z
_cell_length_a                   5.5834(11)
_cell_length_b                   10.397(2)
_cell_length_c                   12.970(3)
_cell_angle_alpha                113.51(3)
_cell_angle_beta                 95.76(3)
_cell_angle_gamma                96.98(3)
_cell_volume                     676.076
loop_
_atom_site_label
_atom_site_type_symbol
_atom_site_fract_x
_atom_site_fract_y
_atom_site_fract_z
Mn1 Mn 0.19456(7) 0.15563(4) 0.52206(3)
P1 P 0.77290(12) 0.34356(7) 0.58685(6)
P2 P 0.64287(12) 0.07462(7) 0.36698(6)
O1 O 0.5192(3) 0.3022(2) 0.60879(16)
O2 O 0.9705(3) 0.2820(2) 0.63211(15)
O3 O 0.8453(3) 0.50439(19) 0.62907(16)
O4 O 0.3777(3) 0.05479(19) 0.37948(15)
O5 O 0.8181(3) 0.01278(18) 0.42354(16)
O6 O 0.6578(4) 0.0173(2) 0.23728(16)
H1 H 0.777(6) -0.005(4) 0.225(3)
O7 O 1.0173(3) 0.2726(2) 0.41087(16)
N1 N 0.7807(5) 0.3415(3) 0.2084(2)
H8 H 0.918(6) 0.399(3) 0.258(3)
C1 C 0.5907(5) 0.3011(3) 0.2518(2)
C2 C 0.3824(5) 0.2159(3) 0.1768(3)
H9 H 0.2468 0.1885 0.2044
C3 C 0.3768(6) 0.1720(3) 0.0613(3)
H10 H 0.2372 0.1144 0.0110
C4 C 0.5763(7) 0.2126(4) 0.0199(3)
H11 H 0.5742 0.1812 -0.0582
C5 C 0.7781(6) 0.3003(4) 0.0958(3)
H12 H 0.9128 0.3311 0.0695
C6 C 0.6201(5) 0.3502(3) 0.3785(2)
H13 H 0.4583 0.3466 0.3995
H14 H 0.7004 0.4491 0.4137
C7 C 0.7645(5) 0.2666(3) 0.4298(2)
H15 H 1.040(6) 0.342(3) 0.404(3)
Mn1_2 Mn 1.19456(7) 0.15563(4) 0.52206(3)
Mn1A Mn 0.80544(7) -0.15563(4) 0.47794(3)
O2_2 O -0.0295(3) 0.2820(2) 0.63211(15)
O5A O 0.1819(3) -0.01278(18) 0.57646(16)
O5_2 O -0.1819(3) 0.01278(18) 0.42354(16)
O7_2 O 0.0173(3) 0.2726(2) 0.41087(16)
H15_2 H 0.040(6) 0.342(3) 0.404(3)
O8 O 0.0435(4) 0.9220(3) 0.17832(19)
H2 H 0.1563 0.9557 0.2384
H3 H 0.0172 0.8318 0.1617
O9 O 0.0649(6) 0.3581(3) 0.8616(2)
H4 H 0.0471 0.3436 0.7899
H5 H 0.2187 0.3975 0.8847
O10 O 0.5675(7) 0.4334(4) 0.8563(3)
H6 H 0.6999 0.4468 0.9008
H7 H 0.5648 0.3853 0.7762
loop_
_geom_bond_atom_site_label_1
_geom_bond_atom_site_label_2
_geom_bond_site_symmetry_1
_geom_bond_site_symmetry_2
Mn1 O1 1_555 1_555
P1 O1 1_555 1_555
P2 O4 1_555 1_555
O2 P1 1_555 1_555
O3 P1 1_555 1_555
O4 Mn1 1_555 1_555
O5 P2 1_555 1_555
O6 P2 1_555 1_555
H1 O6 1_555 1_555
O7 C7 1_555 1_555
O8 H2 1_555 1_555
H3 O8 1_555 1_555
O9 H4 1_555 1_555
H5 O9 1_555 1_555
O10 H6 1_555 1_555
H7 O10 1_555 1_555
N1 H8 1_555 1_555
C1 N1 1_555 1_555
C2 C1 1_555 1_555
H9 C2 1_555 1_555
C3 C2 1_555 1_555
H10 C3 1_555 1_555
C4 C3 1_555 1_555
H11 C4 1_555 1_555
C5 N1 1_555 1_555
H12 C5 1_555 1_555
C6 C1 1_555 1_555
H13 C6 1_555 1_555
H14 C6 1_555 1_555
C7 P1 1_555 1_555
H15 O7 1_555 1_555
Mn1_2 O2 1_555 1_555
Mn1A O5 1_555 1_555
O2_2 Mn1 1_555 1_555
O5A Mn1 1_555 1_555
O5_2 Mn1 1_555 1_555
O7_2 Mn1 1_555 1_555
H15_2 O7_2 1_555 1_555
P2 C7 1_555 1_555
O5 Mn1_2 1_555 1_555
O7 Mn1_2 1_555 1_555
C4 C5 1_555 1_555
C6 C7 1_555 1_555

#END
