
#######################################################################
#
#                 Cambridge Crystallographic Data Centre
#                                CCDC 
#
#######################################################################
#
# If this CIF has been generated from an entry in the Cambridge 
# Structural Database, then it will include bibliographic, chemical, 
# crystal, experimental, refinement or atomic coordinate data resulting 
# from the CCDC's data processing and validation procedures.
#
#######################################################################

data_YUDQAQ
_symmetry_cell_setting           monoclinic
_symmetry_space_group_name_H-M   'C 2/c'
_symmetry_Int_Tables_number      15
_space_group_name_Hall           '-C 2yn'
loop_
_symmetry_equiv_pos_site_id
_symmetry_equiv_pos_as_xyz
1 x,y,z
2 -x,y,1/2-z
3 1/2+x,1/2+y,z
4 1/2-x,1/2+y,1/2-z
5 -x,-y,-z
6 x,-y,1/2+z
7 1/2-x,1/2-y,-z
8 1/2+x,1/2-y,1/2+z
_cell_length_a                   22.093(3)
_cell_length_b                   9.2014(12)
_cell_length_c                   17.042(2)
_cell_angle_alpha                90
_cell_angle_beta                 107.9980(10)
_cell_angle_gamma                90
_cell_volume                     3294.89
loop_
_atom_site_label
_atom_site_type_symbol
_atom_site_fract_x
_atom_site_fract_y
_atom_site_fract_z
Eu1 Eu 1.012321(11) -0.18655(2) 0.573282(14)
Ag1 Ag 0.67015(2) -0.06286(7) 0.63490(3)
O1 O 0.92876(15) -0.0537(4) 0.4724(2)
O2 O 0.87333(16) 0.1229(4) 0.3961(2)
O3 O 0.98591(17) 0.0231(4) 0.6377(2)
O4 O 0.96590(16) 0.2194(4) 0.5559(2)
O5 O 0.94354(16) -0.2663(4) 0.6538(2)
O6 O 1.06208(15) -0.4249(4) 0.57927(19)
O7 O 1.05980(16) -0.6266(4) 0.5064(2)
O8 O 0.93136(16) -0.2319(4) 0.7787(2)
N1 N 0.7318(2) -0.0450(6) 0.5575(3)
N2 N 0.8608(2) 0.3380(5) 0.7677(3)
C1 C 0.7825(3) -0.1284(7) 0.5746(4)
H1 H 0.7878 -0.1989 0.6153
C2 C 0.8283(3) -0.1170(7) 0.5355(4)
H2 H 0.8624 -0.1814 0.5485
C3 C 0.8237(2) -0.0119(6) 0.4782(3)
C4 C 0.7698(3) 0.0707(9) 0.4576(5)
H3 H 0.7633 0.1405 0.4164
C5 C 0.7250(3) 0.0515(9) 0.4975(5)
H4 H 0.6885 0.1084 0.4818
C6 C 0.8783(2) 0.0194(5) 0.4454(3)
C7 C 0.8653(3) 0.1958(6) 0.7614(3)
H5 H 0.8451 0.1370 0.7900
C8 C 0.8984(3) 0.1299(6) 0.7145(3)
H6 H 0.9015 0.0292 0.7136
C9 C 0.9266(2) 0.2137(5) 0.6693(3)
C10 C 0.9205(3) 0.3612(6) 0.6735(4)
H7 H 0.9384 0.4220 0.6430
C11 C 0.8880(3) 0.4190(7) 0.7229(4)
H8 H 0.8847 0.5196 0.7252
C12 C 0.9632(2) 0.1472(5) 0.6171(3)
C13 C 0.9638(2) -0.2474(5) 0.7304(3)
C14 C 1.0348(2) -0.5152(5) 0.5244(3)
Eu1D Eu 0.987679(11) 0.18655(2) 0.426718(14)
Eu1D_2 Eu 0.987679(11) -0.81345(2) 0.426718(14)
Eu1A Eu 0.987679(11) -0.18655(2) 0.926718(14)
Ag1D Ag 1.32985(2) 0.06286(7) 0.36510(3)
Ag1C Ag 0.82985(2) 0.43714(7) 0.86510(3)
Ag1G Ag 1.17015(2) -0.43714(7) 0.13490(3)
O1D O 1.07124(15) 0.0537(4) 0.5276(2)
O2D O 1.12667(16) -0.1229(4) 0.6039(2)
O3D O 1.01409(17) -0.0231(4) 0.3623(2)
O4D O 1.03410(16) -0.2194(4) 0.4441(2)
O5A O 1.05646(16) -0.2663(4) 0.8462(2)
O5D O 1.05646(16) 0.2663(4) 0.3462(2)
O6D O 0.93792(15) -0.5751(4) 0.42073(19)
O6D_2 O 0.93792(15) 0.4249(4) 0.42073(19)
O7D O 0.94020(16) -0.3734(4) 0.4936(2)
O7_2 O 1.05980(16) 0.3734(4) 0.5064(2)
O8A O 1.06864(16) -0.2319(4) 0.7213(2)
O8E O 0.93136(16) 0.2319(4) 0.2787(2)
N1D N 1.2682(2) 0.0450(6) 0.4425(3)
N2D N 1.1392(2) -0.3380(5) 0.2323(3)
N2C N 0.6392(2) -0.1620(5) 0.7323(3)
N2G N 1.3608(2) 0.1620(5) 0.2677(3)
C1D C 1.2175(3) 0.1284(7) 0.4254(4)
H1D H 1.2122 0.1989 0.3847
C2D C 1.1717(3) 0.1170(7) 0.4645(4)
H2D H 1.1376 0.1814 0.4515
C3D C 1.1763(2) 0.0119(6) 0.5218(3)
C4D C 1.2302(3) -0.0707(9) 0.5424(5)
H3D H 1.2367 -0.1405 0.5836
C5D C 1.2750(3) -0.0515(9) 0.5025(5)
H4D H 1.3115 -0.1084 0.5182
C6D C 1.1217(2) -0.0194(5) 0.5546(3)
C7D C 1.1347(3) -0.1958(6) 0.2386(3)
H5D H 1.1549 -0.1370 0.2100
C8D C 1.1016(3) -0.1299(6) 0.2855(3)
H6D H 1.0985 -0.0292 0.2864
C9D C 1.0734(2) -0.2137(5) 0.3307(3)
C10D C 1.0795(3) -0.3612(6) 0.3265(4)
H7D H 1.0616 -0.4220 0.3570
C11D C 1.1120(3) -0.4190(7) 0.2771(4)
H8D H 1.1153 -0.5196 0.2748
C12D C 1.0368(2) -0.1472(5) 0.3829(3)
C13A C 1.0362(2) -0.2474(5) 0.7696(3)
C14D C 0.9652(2) -0.4848(5) 0.4756(3)
O9 O 0.7027(2) 0.1992(6) 0.7391(3)
H9 H 0.7089 0.2367 0.6973
H10 H 0.6680 0.2264 0.7448
loop_
_geom_bond_atom_site_label_1
_geom_bond_atom_site_label_2
_geom_bond_site_symmetry_1
_geom_bond_site_symmetry_2
Eu1 O1 1_555 1_555
Ag1 N1 1_555 1_555
O1 C6 1_555 1_555
O2 C6 1_555 1_555
O3 Eu1 1_555 1_555
O4 C12 1_555 1_555
O5 Eu1 1_555 1_555
O6 Eu1 1_555 1_555
O7 C14 1_555 1_555
O8 C13 1_555 1_555
N1 C1 1_555 1_555
N2 C7 1_555 1_555
C1 H1 1_555 1_555
C2 C1 1_555 1_555
H2 C2 1_555 1_555
C3 C2 1_555 1_555
C4 C3 1_555 1_555
H3 C4 1_555 1_555
C5 N1 1_555 1_555
H4 C5 1_555 1_555
C6 C3 1_555 1_555
C7 H5 1_555 1_555
C8 C7 1_555 1_555
H6 C8 1_555 1_555
C9 C8 1_555 1_555
C10 C9 1_555 1_555
H7 C10 1_555 1_555
C11 N2 1_555 1_555
H8 C11 1_555 1_555
C12 O3 1_555 1_555
C13 O5 1_555 1_555
C14 O6 1_555 1_555
O9 H9 1_555 1_555
H10 O9 1_555 1_555
Eu1D O1 1_555 1_555
Eu1D_2 O7 1_555 1_555
Eu1A O8 1_555 1_555
Ag1D N1D 1_555 1_555
Ag1C N2 1_555 1_555
Ag1G N2D 1_555 1_555
O1D Eu1 1_555 1_555
O2D Eu1 1_555 1_555
O3D Eu1D 1_555 1_555
O4D Eu1 1_555 1_555
O5A Eu1A 1_555 1_555
O5D Eu1D 1_555 1_555
O6D Eu1D_2 1_555 1_555
O6D_2 Eu1D 1_555 1_555
O7D Eu1 1_555 1_555
O7_2 Eu1D 1_555 1_555
O8A Eu1 1_555 1_555
O8E Eu1D 1_555 1_555
N1D C1D 1_555 1_555
N2D C7D 1_555 1_555
N2C Ag1 1_555 1_555
N2G Ag1D 1_555 1_555
C1D H1D 1_555 1_555
C2D C1D 1_555 1_555
H2D C2D 1_555 1_555
C3D C2D 1_555 1_555
C4D C3D 1_555 1_555
H3D C4D 1_555 1_555
C5D N1D 1_555 1_555
H4D C5D 1_555 1_555
C6D O1D 1_555 1_555
C7D H5D 1_555 1_555
C8D C7D 1_555 1_555
H6D C8D 1_555 1_555
C9D C8D 1_555 1_555
C10D C9D 1_555 1_555
H7D C10D 1_555 1_555
C11D N2D 1_555 1_555
H8D C11D 1_555 1_555
C12D O3D 1_555 1_555
C13A C13 1_555 1_555
C14D C14 1_555 1_555
O2 Eu1D 1_555 1_555
O4 Eu1D 1_555 1_555
C4 C5 1_555 1_555
C9 C12 1_555 1_555
C10 C11 1_555 1_555
Eu1D O1D 1_555 1_555
O2D C6D 1_555 1_555
O4D C12D 1_555 1_555
O5A C13A 1_555 1_555
O6D C14D 1_555 1_555
O7D C14D 1_555 1_555
O8A C13A 1_555 1_555
C3D C6D 1_555 1_555
C4D C5D 1_555 1_555
C9D C12D 1_555 1_555
C10D C11D 1_555 1_555

#END
