
#######################################################################
#
#                 Cambridge Crystallographic Data Centre
#                                CCDC 
#
#######################################################################
#
# If this CIF has been generated from an entry in the Cambridge 
# Structural Database, then it will include bibliographic, chemical, 
# crystal, experimental, refinement or atomic coordinate data resulting 
# from the CCDC's data processing and validation procedures.
#
#######################################################################

data_YUDQEU
_symmetry_cell_setting           monoclinic
_symmetry_space_group_name_H-M   'C 2/c'
_symmetry_Int_Tables_number      15
_space_group_name_Hall           '-C 2yn'
loop_
_symmetry_equiv_pos_site_id
_symmetry_equiv_pos_as_xyz
1 x,y,z
2 -x,y,1/2-z
3 1/2+x,1/2+y,z
4 1/2-x,1/2+y,1/2-z
5 -x,-y,-z
6 x,-y,1/2+z
7 1/2-x,1/2-y,-z
8 1/2+x,1/2-y,1/2+z
_cell_length_a                   21.9103(3)
_cell_length_b                   9.29280(10)
_cell_length_c                   17.2452(2)
_cell_angle_alpha                90
_cell_angle_beta                 108.6460(10)
_cell_angle_gamma                90
_cell_volume                     3326.96
loop_
_atom_site_label
_atom_site_type_symbol
_atom_site_fract_x
_atom_site_fract_y
_atom_site_fract_z
Ag1 Ag 0.827781(16) 0.43480(5) 0.36144(2)
C1 C 0.86465(19) 0.1959(4) 0.2605(2)
H1 H 0.8446 0.1379 0.2891
C2 C 0.89754(19) 0.1302(4) 0.2133(2)
H2 H 0.9005 0.0305 0.2119
C3 C 0.92557(15) 0.2150(3) 0.16883(19)
C4 C 0.9190(2) 0.3613(4) 0.1727(3)
H3 H 0.9361 0.4217 0.1419
C5 C 0.8872(2) 0.4176(4) 0.2222(3)
H4 H 0.8840 0.5171 0.2250
C6 C 0.96110(15) 0.1477(3) 0.11624(19)
C7 C 0.71683(18) 0.3694(5) 0.4260(3)
H5 H 0.7108 0.2978 0.3866
C8 C 0.67230(18) 0.3816(5) 0.4668(3)
H6 H 0.6382 0.3170 0.4562
C9 C 0.67846(15) 0.4885(4) 0.5224(2)
C10 C 0.7328(2) 0.5720(6) 0.5405(3)
H7 H 0.7405 0.6421 0.5810
C11 C 0.7761(2) 0.5514(6) 0.4982(3)
H8 H 0.8129 0.6086 0.5114
C12 C 0.62483(15) 0.5212(4) 0.55679(19)
C13 C 0.96317(15) -0.2481(3) 0.23009(18)
C14 C 1.03565(15) -0.5151(3) 0.02481(18)
N1 N 0.86049(15) 0.3373(3) 0.26655(19)
N2 N 0.76770(15) 0.4541(4) 0.4400(2)
Nd1 Nd 1.013075(8) -0.185287(17) 0.073394(9)
O1 O 0.98391(12) 0.0243(2) 0.13620(14)
O2 O 0.96423(12) 0.2200(2) 0.05626(14)
O3 O 0.57297(10) 0.4506(2) 0.53111(13)
O4 O 0.63146(11) 0.6236(3) 0.60596(14)
O5 O 0.94270(11) -0.2678(3) 0.15438(13)
O6 O 0.93021(10) -0.2315(2) 0.27696(13)
O7 O 1.06313(11) -0.4257(2) 0.07936(13)
O8 O 1.06038(11) -0.6265(2) 0.00724(14)
Ag1D Ag 1.172219(16) -0.43480(5) -0.36144(2)
Ag1C Ag 0.672219(16) -0.06520(5) 0.13856(2)
C1D C 1.13535(19) -0.1959(4) -0.2605(2)
H1D H 1.1554 -0.1379 -0.2891
C2D C 1.10246(19) -0.1302(4) -0.2133(2)
H2D H 1.0995 -0.0305 -0.2119
C3D C 1.07443(15) -0.2150(3) -0.16883(19)
C4D C 1.0810(2) -0.3613(4) -0.1727(3)
H3D H 1.0639 -0.4217 -0.1419
C5D C 1.1128(2) -0.4176(4) -0.2222(3)
H4D H 1.1160 -0.5171 -0.2250
C6D C 1.03890(15) -0.1477(3) -0.11624(19)
C7C C 0.78317(18) -0.1306(5) 0.0740(3)
H5C H 0.7892 -0.2022 0.1134
C8C C 0.82770(18) -0.1184(5) 0.0332(3)
H6C H 0.8618 -0.1830 0.0438
C9C C 0.82154(15) -0.0115(4) -0.0224(2)
C10C C 0.7672(2) 0.0720(6) -0.0405(3)
H7C H 0.7595 0.1421 -0.0810
C11C C 0.7239(2) 0.0514(6) 0.0018(3)
H8C H 0.6871 0.1086 -0.0114
C12C C 0.87517(15) 0.0212(4) -0.05679(19)
C13A C 1.03683(15) -0.2481(3) 0.26991(18)
C14D C 0.96435(15) -0.4849(3) -0.02481(18)
N1D N 1.13951(15) -0.3373(3) -0.26655(19)
N2C N 0.73230(15) -0.0459(4) 0.0600(2)
N2D N 1.23230(15) -0.4541(4) -0.4400(2)
Nd1D Nd 0.986925(8) 0.185287(17) -0.073394(9)
Nd1C Nd 0.486925(8) 0.314713(17) 0.426606(9)
Nd1G Nd 0.513075(8) 0.685287(17) 0.573394(9)
Nd1A Nd 0.986925(8) -0.185287(17) 0.426606(9)
Nd1D_2 Nd 0.986925(8) -0.814713(17) -0.073394(9)
O1D O 1.01609(12) -0.0243(2) -0.13620(14)
O2D O 1.03577(12) -0.2200(2) -0.05626(14)
O3C O 0.92703(10) -0.0494(2) -0.03111(13)
O3G O 1.07297(10) 0.0494(2) 0.03111(13)
O4C O 0.86854(11) 0.1236(3) -0.10596(14)
O4G O 1.13146(11) -0.1236(3) 0.10596(14)
O5A O 1.05730(11) -0.2678(3) 0.34562(13)
O5D O 1.05730(11) 0.2678(3) -0.15438(13)
O6A O 1.06979(10) -0.2315(2) 0.22304(13)
O6E O 0.93021(10) 0.2315(2) -0.22304(13)
O7D O 0.93687(11) -0.5743(2) -0.07936(13)
O7D_2 O 0.93687(11) 0.4257(2) -0.07936(13)
O8D O 0.93962(11) -0.3735(2) -0.00724(14)
O8_2 O 1.06038(11) 0.3735(2) 0.00724(14)
O9 O 0.20393(15) 0.6961(4) 0.2424(2)
H9 H 0.1665 0.7227 0.2406
H10 H 0.2168 0.7459 0.2093
loop_
_geom_bond_atom_site_label_1
_geom_bond_atom_site_label_2
_geom_bond_site_symmetry_1
_geom_bond_site_symmetry_2
Ag1 N1 1_555 1_555
C1 H1 1_555 1_555
C2 C1 1_555 1_555
H2 C2 1_555 1_555
C3 C2 1_555 1_555
C4 C3 1_555 1_555
H3 C4 1_555 1_555
C5 C4 1_555 1_555
H4 C5 1_555 1_555
C6 C3 1_555 1_555
C7 H5 1_555 1_555
C8 C7 1_555 1_555
H6 C8 1_555 1_555
C9 C8 1_555 1_555
C10 C9 1_555 1_555
H7 C10 1_555 1_555
C11 C10 1_555 1_555
H8 C11 1_555 1_555
C12 C9 1_555 1_555
C13 O5 1_555 1_555
C14 O7 1_555 1_555
N1 C1 1_555 1_555
N2 Ag1 1_555 1_555
Nd1 O1 1_555 1_555
O1 C6 1_555 1_555
O2 C6 1_555 1_555
O3 C12 1_555 1_555
O4 C12 1_555 1_555
O5 Nd1 1_555 1_555
O6 C13 1_555 1_555
O7 Nd1 1_555 1_555
O8 C14 1_555 1_555
O9 H9 1_555 1_555
H10 O9 1_555 1_555
Ag1D N1D 1_555 1_555
Ag1C N2C 1_555 1_555
C1D H1D 1_555 1_555
C2D C1D 1_555 1_555
H2D C2D 1_555 1_555
C3D C2D 1_555 1_555
C4D C3D 1_555 1_555
H3D C4D 1_555 1_555
C5D C4D 1_555 1_555
H4D C5D 1_555 1_555
C6D C3D 1_555 1_555
C7C H5C 1_555 1_555
C8C C7C 1_555 1_555
H6C C8C 1_555 1_555
C9C C8C 1_555 1_555
C10C C9C 1_555 1_555
H7C C10C 1_555 1_555
C11C C10C 1_555 1_555
H8C C11C 1_555 1_555
C12C C9C 1_555 1_555
C13A C13 1_555 1_555
C14D C14 1_555 1_555
N1D C1D 1_555 1_555
N2C C7C 1_555 1_555
N2D Ag1D 1_555 1_555
Nd1D O2 1_555 1_555
Nd1C O3 1_555 1_555
Nd1G O3 1_555 1_555
Nd1A O6 1_555 1_555
Nd1D_2 O8 1_555 1_555
O1D C6D 1_555 1_555
O2D Nd1 1_555 1_555
O3C Nd1 1_555 1_555
O3G Nd1 1_555 1_555
O4C C12C 1_555 1_555
O4G Nd1 1_555 1_555
O5A C13A 1_555 1_555
O5D Nd1D 1_555 1_555
O6A Nd1 1_555 1_555
O6E Nd1D 1_555 1_555
O7D C14D 1_555 1_555
O7D_2 Nd1D 1_555 1_555
O8D Nd1 1_555 1_555
O8_2 Nd1D 1_555 1_555
C5 N1 1_555 1_555
C7 N2 1_555 1_555
C11 N2 1_555 1_555
O4 Nd1G 1_555 1_555
C5D N1D 1_555 1_555
C6D O2D 1_555 1_555
C11C N2C 1_555 1_555
C12C O3C 1_555 1_555
C13A O6A 1_555 1_555
C14D O8D 1_555 1_555
Nd1D O1D 1_555 1_555
Nd1D O3C 1_555 1_555
Nd1D O3G 1_555 1_555
Nd1D O4C 1_555 1_555
Nd1A O5A 1_555 1_555
Nd1D_2 O7D 1_555 1_555

#END
