
#######################################################################
#
#                 Cambridge Crystallographic Data Centre
#                                CCDC 
#
#######################################################################
#
# If this CIF has been generated from an entry in the Cambridge 
# Structural Database, then it will include bibliographic, chemical, 
# crystal, experimental, refinement or atomic coordinate data resulting 
# from the CCDC's data processing and validation procedures.
#
#######################################################################

data_YUDQUK
_symmetry_cell_setting           monoclinic
_symmetry_space_group_name_H-M   'P 2/c'
_symmetry_Int_Tables_number      13
_space_group_name_Hall           '-P 2yc'
loop_
_symmetry_equiv_pos_site_id
_symmetry_equiv_pos_as_xyz
1 x,y,z
2 -x,y,1/2-z
3 -x,-y,-z
4 x,-y,1/2+z
_cell_length_a                   14.057(3)
_cell_length_b                   7.2396(13)
_cell_length_c                   16.738(3)
_cell_angle_alpha                90
_cell_angle_beta                 107.281(2)
_cell_angle_gamma                90
_cell_volume                     1626.49
loop_
_atom_site_label
_atom_site_type_symbol
_atom_site_fract_x
_atom_site_fract_y
_atom_site_fract_z
Ag1 Ag 0.0000 0.52356(11) -0.2500
Ag2 Ag 1.0000 0.0000 0.5000
C1 C 0.2350(6) 0.4601(11) -0.1955(5)
H1 H 0.2305 0.4694 -0.1413
C2 C 0.3231(6) 0.4048(12) -0.2074(5)
C3 C 0.3296(6) 0.3899(11) -0.2888(5)
H2 H 0.3893 0.3539 -0.2974
C4 C 0.2481(6) 0.4283(10) -0.3563(5)
C5 C 0.1572(6) 0.4862(11) -0.3442(5)
H3 H 0.1019 0.5128 -0.3895
C6 C 0.4095(6) 0.3486(11) -0.1329(4)
C7 C 0.2521(6) 0.4228(11) -0.4452(5)
C8 C 0.8429(6) 0.0142(10) 0.3295(5)
H4 H 0.8984 -0.0147 0.3126
C9 C 0.7545(6) 0.0675(12) 0.2705(5)
C10 C 0.6706(5) 0.1115(10) 0.2960(5)
H5 H 0.6113 0.1475 0.2571
C11 C 0.6779(5) 0.1002(11) 0.3804(5)
C12 C 0.7662(6) 0.0455(11) 0.4380(5)
H6 H 0.7700 0.0366 0.4943
C13 C 0.7485(6) 0.0590(11) 0.1791(5)
C14 C 0.5905(6) 0.1547(11) 0.4104(5)
Gd1 Gd 0.56234(2) 0.24996(5) 0.01527(2)
N1 N 0.1533(5) 0.5022(9) -0.2620(4)
N2 N 0.8479(5) 0.0043(7) 0.4129(4)
O1 O 0.4174(4) 0.4343(7) -0.0680(3)
O2 O 0.4643(4) 0.2258(7) -0.1392(3)
O3 O 0.3211(4) 0.3408(8) -0.4589(3)
O4 O 0.1792(4) 0.4948(7) -0.4991(4)
O5 O 0.6794(4) 0.1630(7) 0.1308(3)
O6 O 0.8237(4) 0.0006(7) 0.1613(3)
O7 O 0.5839(4) 0.0717(7) 0.4711(3)
O8 O 0.5338(4) 0.2807(8) 0.3793(3)
Ag2A Ag 0.0000 0.0000 0.0000
C1A C -0.2350(6) 0.4601(11) -0.3045(5)
H1A H -0.2305 0.4694 -0.3587
C2A C -0.3231(6) 0.4048(12) -0.2926(5)
C3A C -0.3296(6) 0.3899(11) -0.2112(5)
H2A H -0.3893 0.3539 -0.2026
C4A C -0.2481(6) 0.4283(10) -0.1437(5)
C5A C -0.1572(6) 0.4862(11) -0.1558(5)
H3A H -0.1019 0.5128 -0.1105
C6A C -0.4095(6) 0.3486(11) -0.3671(4)
C7A C -0.2521(6) 0.4228(11) -0.0548(5)
C8A C 0.1571(6) 0.0142(10) 0.1705(5)
H4A H 0.1016 -0.0147 0.1874
C9A C 0.2455(6) 0.0675(12) 0.2295(5)
C10A C 0.3294(5) 0.1115(10) 0.2040(5)
H5A H 0.3887 0.1475 0.2429
C11A C 0.3221(5) 0.1002(11) 0.1196(5)
C12A C 0.2338(6) 0.0455(11) 0.0620(5)
H6A H 0.2300 0.0366 0.0057
C13A C 0.2515(6) 0.0590(11) 0.3209(5)
C14A C 0.4095(6) 0.1547(11) 0.0896(5)
Gd1A Gd -0.56234(2) 0.24996(5) -0.51527(2)
Gd1B Gd 0.43766(2) 0.75004(5) -0.01527(2)
Gd1A_2 Gd 0.43766(2) 0.24996(5) -0.51527(2)
Gd1A_3 Gd 0.43766(2) 0.24996(5) 0.48473(2)
Gd1C Gd 0.56234(2) -0.24996(5) 0.51527(2)
Gd1C_2 Gd -0.43766(2) 0.75004(5) -0.48473(2)
Gd1_2 Gd -0.43766(2) 0.24996(5) 0.01527(2)
Gd1B_2 Gd 0.43766(2) -0.24996(5) -0.01527(2)
N1A N -0.1533(5) 0.5022(9) -0.2380(4)
N2A N 0.1521(5) 0.0043(7) 0.0871(4)
N2B N 1.1521(5) -0.0043(7) 0.5871(4)
O1A O -0.4174(4) 0.4343(7) -0.4320(3)
O1B O 0.5826(4) 0.5657(7) 0.0680(3)
O1C O -0.5826(4) 0.5657(7) -0.5680(3)
O2A O -0.4643(4) 0.2258(7) -0.3608(3)
O3A O -0.3211(4) 0.3408(8) -0.0411(3)
O3A_2 O 0.6789(4) 0.3408(8) -0.0411(3)
O3_2 O -0.6789(4) 0.3408(8) -0.4589(3)
O4A O -0.1792(4) 0.4948(7) -0.0009(4)
O5A O 0.3206(4) 0.1630(7) 0.3692(3)
O5A_2 O -0.6794(4) 0.1630(7) -0.6308(3)
O6A O 0.1763(4) 0.0006(7) 0.3387(3)
O7A O 0.4161(4) 0.0717(7) 0.0289(3)
O7C O 0.5839(4) -0.0717(7) -0.0289(3)
O7_2 O -0.4161(4) 0.0717(7) -0.5289(3)
O7B O -0.5839(4) -0.0717(7) -0.4711(3)
O8A O 0.4662(4) 0.2807(8) 0.1207(3)
O8_2 O -0.4662(4) 0.2807(8) -0.6207(3)
O9 O 0.9457(4) 0.7520(7) 0.6094(3)
H7 H 0.9035 0.7348 0.5618
H8 H 0.9156 0.7587 0.6465
O10 O 0.9511(4) 0.2501(8) 0.6129(3)
H9 H 0.9499 0.3675 0.6120
H10 H 0.8931 0.2092 0.6089
loop_
_geom_bond_atom_site_label_1
_geom_bond_atom_site_label_2
_geom_bond_site_symmetry_1
_geom_bond_site_symmetry_2
Ag1 N1 1_555 1_555
Ag2 N2 1_555 1_555
C1 H1 1_555 1_555
C2 C1 1_555 1_555
C3 C2 1_555 1_555
H2 C3 1_555 1_555
C4 C3 1_555 1_555
C5 C4 1_555 1_555
H3 C5 1_555 1_555
C6 C2 1_555 1_555
C7 C4 1_555 1_555
C8 H4 1_555 1_555
C9 C8 1_555 1_555
C10 C9 1_555 1_555
H5 C10 1_555 1_555
C11 C10 1_555 1_555
C12 C11 1_555 1_555
H6 C12 1_555 1_555
C13 C9 1_555 1_555
C14 C11 1_555 1_555
Gd1 O1 1_555 1_555
N1 C1 1_555 1_555
N2 C8 1_555 1_555
O1 C6 1_555 1_555
O2 C6 1_555 1_555
O3 C7 1_555 1_555
O4 C7 1_555 1_555
O5 C13 1_555 1_555
O6 C13 1_555 1_555
O7 C14 1_555 1_555
O8 C14 1_555 1_555
O9 H7 1_555 1_555
H8 O9 1_555 1_555
O10 H9 1_555 1_555
H10 O10 1_555 1_555
Ag2A N2A 1_555 1_555
C1A H1A 1_555 1_555
C2A C1A 1_555 1_555
C3A C2A 1_555 1_555
H2A C3A 1_555 1_555
C4A C3A 1_555 1_555
C5A C4A 1_555 1_555
H3A C5A 1_555 1_555
C6A C2A 1_555 1_555
C7A C4A 1_555 1_555
C8A H4A 1_555 1_555
C9A C8A 1_555 1_555
C10A C9A 1_555 1_555
H5A C10A 1_555 1_555
C11A C10A 1_555 1_555
C12A C11A 1_555 1_555
H6A C12A 1_555 1_555
C13A C9A 1_555 1_555
C14A C11A 1_555 1_555
Gd1A O1A 1_555 1_555
Gd1B O1 1_555 1_555
Gd1A_2 O3 1_555 1_555
Gd1A_3 O7 1_555 1_555
Gd1C O7 1_555 1_555
Gd1C_2 O1A 1_555 1_555
Gd1_2 O3A 1_555 1_555
Gd1B_2 O7A 1_555 1_555
N1A Ag1 1_555 1_555
N2A C8A 1_555 1_555
N2B Ag2 1_555 1_555
O1A C6A 1_555 1_555
O1B Gd1 1_555 1_555
O1C Gd1A 1_555 1_555
O2A C6A 1_555 1_555
O3A C7A 1_555 1_555
O3A_2 Gd1 1_555 1_555
O3_2 Gd1A 1_555 1_555
O4A C7A 1_555 1_555
O5A C13A 1_555 1_555
O5A_2 Gd1A 1_555 1_555
O6A C13A 1_555 1_555
O7A Gd1 1_555 1_555
O7C Gd1 1_555 1_555
O7_2 Gd1A 1_555 1_555
O7B Gd1A 1_555 1_555
O8A Gd1 1_555 1_555
O8_2 Gd1A 1_555 1_555
C5 N1 1_555 1_555
C12 N2 1_555 1_555
Gd1 O2 1_555 1_555
Gd1 O5 1_555 1_555
O8 Gd1A_3 1_555 1_555
C1A N1A 1_555 1_555
C5A N1A 1_555 1_555
C12A N2A 1_555 1_555
C14A O7A 1_555 1_555
C14A O8A 1_555 1_555
Gd1A O2A 1_555 1_555
Gd1B O1B 1_555 1_555
Gd1A_3 O5A 1_555 1_555
Gd1C_2 O1C 1_555 1_555
Gd1B_2 O7C 1_555 1_555

#END
