
#######################################################################
#
#                 Cambridge Crystallographic Data Centre
#                                CCDC 
#
#######################################################################
#
# If this CIF has been generated from an entry in the Cambridge 
# Structural Database, then it will include bibliographic, chemical, 
# crystal, experimental, refinement or atomic coordinate data resulting 
# from the CCDC's data processing and validation procedures.
#
#######################################################################

data_YUDVIC
_symmetry_cell_setting           monoclinic
_symmetry_space_group_name_H-M   'C 2/c'
_symmetry_Int_Tables_number      15
_space_group_name_Hall           '-C 2yn'
loop_
_symmetry_equiv_pos_site_id
_symmetry_equiv_pos_as_xyz
1 x,y,z
2 -x,y,1/2-z
3 1/2+x,1/2+y,z
4 1/2-x,1/2+y,1/2-z
5 -x,-y,-z
6 x,-y,1/2+z
7 1/2-x,1/2-y,-z
8 1/2+x,1/2-y,1/2+z
_cell_length_a                   11.493(1)
_cell_length_b                   11.977(2)
_cell_length_c                   9.959(2)
_cell_angle_alpha                90
_cell_angle_beta                 125.25(1)
_cell_angle_gamma                90
_cell_volume                     1119.51
loop_
_atom_site_label
_atom_site_type_symbol
_atom_site_fract_x
_atom_site_fract_y
_atom_site_fract_z
Ag1 Ag 0.34739(5) 0.37507(4) 0.44474(6)
Ag2 Ag 0.36559(5) 0.37509(4) 0.75002(6)
C1 C 0.3213(6) 0.6005(5) 0.5801(7)
O1 O 0.3078(5) 0.5528(4) 0.4600(6)
O2 O 0.3520(5) 0.5529(4) 0.7087(6)
C2 C 0.2929(7) 0.7229(5) 0.5702(8)
C3 C 0.5084(6) 0.1503(5) 0.5799(7)
O3 O 0.4018(5) 0.1959(4) 0.4603(6)
O4 O 0.6068(5) 0.1954(4) 0.7096(6)
C4 C 0.5275(7) 0.0253(5) 0.5700(8)
H1 H 0.328(9) 0.776(8) 0.653(11)
H2 H 0.575(7) -0.006(6) 0.668(8)
C2F C 0.2071(7) 0.7771(5) 0.4298(8)
C1F C 0.1787(6) 0.8995(5) 0.4199(7)
O1F O 0.1922(5) 0.9472(4) 0.5400(6)
O2F O 0.1480(5) 0.9471(4) 0.2913(6)
H1F H 0.172(9) 0.724(8) 0.347(11)
C4D C 0.4725(7) -0.0253(5) 0.4300(8)
C3D C 0.4916(6) -0.1503(5) 0.4201(7)
O3D O 0.5982(5) -0.1959(4) 0.5397(6)
O4D O 0.3932(5) -0.1954(4) 0.2904(6)
H2D H 0.425(7) 0.006(6) 0.332(8)
Ag1F Ag 0.15261(5) 1.12493(4) 0.55526(6)
Ag2F Ag 0.13441(5) 1.12491(4) 0.24998(6)
Ag2A Ag 0.63441(5) 0.37509(4) 0.74998(6)
O2E O 0.3520(5) 0.4471(4) 0.2087(6)
O4G O 0.1068(5) 0.3046(4) 0.2096(6)
Ag1A Ag 0.65261(5) 0.37507(4) 1.05526(6)
O4A O 0.3932(5) 0.1954(4) 0.7904(6)
Ag1E Ag 0.34739(5) 0.62493(4) 0.94474(6)
Ag1G Ag 0.84739(5) 0.12493(4) 0.94474(6)
Ag1C Ag 0.15261(5) 0.87507(4) 0.05526(6)
Ag1D Ag 0.65261(5) -0.37507(4) 0.55526(6)
Ag1C_2 Ag 0.15261(5) -0.12493(4) 0.05526(6)
Ag2E Ag 0.36559(5) -0.37509(4) 0.25002(6)
Ag2G Ag -0.13441(5) 1.12491(4) 0.25002(6)
O2C O 0.1480(5) 1.0529(4) 0.7913(6)
O3F O 0.0982(5) 1.3041(4) 0.5397(6)
O4A_2 O 0.3932(5) 1.1954(4) 0.7904(6)
Ag1G_2 Ag -0.15261(5) 1.12493(4) -0.05526(6)
O4G_2 O 0.1068(5) 1.3046(4) 0.2096(6)
loop_
_geom_bond_atom_site_label_1
_geom_bond_atom_site_label_2
_geom_bond_site_symmetry_1
_geom_bond_site_symmetry_2
Ag1 Ag2 1_555 1_555
Ag2 O2 1_555 1_555
C1 O1 1_555 1_555
O1 Ag1 1_555 1_555
O2 C1 1_555 1_555
C2 C1 1_555 1_555
C3 O3 1_555 1_555
O3 Ag1 1_555 1_555
O4 C3 1_555 1_555
C4 C3 1_555 1_555
H1 C2 1_555 1_555
H2 C4 1_555 1_555
C2F C2 1_555 1_555
C1F C2F 1_555 1_555
O1F C1F 1_555 1_555
O2F C1F 1_555 1_555
H1F C2F 1_555 1_555
C4D C4 1_555 1_555
C3D C4D 1_555 1_555
O3D C3D 1_555 1_555
O4D C3D 1_555 1_555
H2D C4D 1_555 1_555
Ag1F O1F 1_555 1_555
Ag2F O2F 1_555 1_555
Ag2A Ag1 1_555 1_555
O2E Ag1 1_555 1_555
O4G Ag1 1_555 1_555
Ag1A Ag2 1_555 1_555
O4A Ag2 1_555 1_555
Ag1E O2 1_555 1_555
Ag1G O4 1_555 1_555
Ag1C O2F 1_555 1_555
Ag1D O3D 1_555 1_555
Ag1C_2 O4D 1_555 1_555
Ag2E O4D 1_555 1_555
Ag2G Ag1F 1_555 1_555
O2C Ag1F 1_555 1_555
O3F Ag1F 1_555 1_555
O4A_2 Ag1F 1_555 1_555
Ag1G_2 Ag2F 1_555 1_555
O4G_2 Ag2F 1_555 1_555
Ag2 Ag2A 1_555 1_555
O4 Ag2A 1_555 1_555
Ag1F Ag2F 1_555 1_555
Ag2F Ag2G 1_555 1_555
Ag2A Ag1A 1_555 1_555
Ag1D Ag2E 1_555 1_555
Ag2G Ag1G_2 1_555 1_555

#END
