
#######################################################################
#
#                 Cambridge Crystallographic Data Centre
#                                CCDC 
#
#######################################################################
#
# If this CIF has been generated from an entry in the Cambridge 
# Structural Database, then it will include bibliographic, chemical, 
# crystal, experimental, refinement or atomic coordinate data resulting 
# from the CCDC's data processing and validation procedures.
#
#######################################################################

data_YUDYAX
_symmetry_cell_setting           orthorhombic
_symmetry_space_group_name_H-M   'P 21 21 21'
_symmetry_Int_Tables_number      19
_space_group_name_Hall           'P 2ac 2ab'
loop_
_symmetry_equiv_pos_site_id
_symmetry_equiv_pos_as_xyz
1 x,y,z
2 1/2-x,-y,1/2+z
3 1/2+x,1/2-y,-z
4 -x,1/2+y,1/2-z
_cell_length_a                   6.805(1)
_cell_length_b                   18.486(2)
_cell_length_c                   5.884(1)
_cell_angle_alpha                90
_cell_angle_beta                 90
_cell_angle_gamma                90
_cell_volume                     740.191
loop_
_atom_site_label
_atom_site_type_symbol
_atom_site_fract_x
_atom_site_fract_y
_atom_site_fract_z
Ca1 Ca 0.88203(5) 0.79753(2) 0.91630(6)
O1 O 0.7225(2) 0.68221(1) 1.0510(3)
O2 O 1.0408(2) 0.68719(6) 1.0944(3)
O3 O 1.1119(2) 0.38838(7) 0.8684(2)
O4 O 1.1538(2) 0.33615(7) 1.2042(2)
O5 O 0.9648(2) 0.72171(8) 0.6045(3)
C1 C 0.8807(3) 0.65321(9) 1.1115(3)
C2 C 0.8796(3) 0.57841(10) 1.2117(3)
C3 C 1.0066(3) 0.52377(10) 1.0847(4)
C4 C 0.9932(3) 0.44996(11) 1.1976(5)
C5 C 1.0963(3) 0.38784(9) 1.0778(3)
H1 H 0.754(3) 0.564(1) 1.204(3)
H2 H 0.925(3) 0.582(1) 1.361(4)
H3 H 0.966(3) 0.518(1) 0.934(5)
H4 H 0.847(4) 0.435(1) 1.205(4)
H5 H 1.042(4) 0.456(1) 1.337(5)
H6 H 0.944(4) 0.743(2) 0.490(5)
H7 H 1.061(5) 0.702(2) 0.620(6)
O1B O 1.2225(2) 0.81779(1) 0.9490(3)
O2B O 0.5408(2) 0.81281(6) 0.9056(3)
O3C O 0.8881(2) 0.88838(7) 0.6316(2)
O4C O 0.8462(2) 0.83615(7) 1.2958(2)
Ca1B Ca 0.38203(5) 0.70247(2) 1.08370(6)
Ca1B_2 Ca 1.38203(5) 0.70247(2) 1.08370(6)
Ca1C Ca 1.11797(5) 0.29753(2) 0.58370(6)
Ca1C_2 Ca 1.11797(5) 0.29753(2) 1.58370(6)
loop_
_geom_bond_atom_site_label_1
_geom_bond_atom_site_label_2
_geom_bond_site_symmetry_1
_geom_bond_site_symmetry_2
Ca1 O1 1_555 1_555
O1 C1 1_555 1_555
O2 Ca1 1_555 1_555
O3 C5 1_555 1_555
O4 C5 1_555 1_555
O5 Ca1 1_555 1_555
C1 O2 1_555 1_555
C2 C1 1_555 1_555
C3 C2 1_555 1_555
C4 C3 1_555 1_555
C5 C4 1_555 1_555
H1 C2 1_555 1_555
H2 C2 1_555 1_555
H3 C3 1_555 1_555
H4 C4 1_555 1_555
H5 C4 1_555 1_555
H6 O5 1_555 1_555
H7 O5 1_555 1_555
O1B Ca1 1_555 1_555
O2B Ca1 1_555 1_555
O3C Ca1 1_555 1_555
O4C Ca1 1_555 1_555
Ca1B O1 1_555 1_555
Ca1B_2 O2 1_555 1_555
Ca1C O3 1_555 1_555
Ca1C_2 O4 1_555 1_555
O1B Ca1B_2 1_555 1_555
O2B Ca1B 1_555 1_555

#END
