
#######################################################################
#
#                 Cambridge Crystallographic Data Centre
#                                CCDC 
#
#######################################################################
#
# If this CIF has been generated from an entry in the Cambridge 
# Structural Database, then it will include bibliographic, chemical, 
# crystal, experimental, refinement or atomic coordinate data resulting 
# from the CCDC's data processing and validation procedures.
#
#######################################################################

data_YUDYAX01
_symmetry_cell_setting           orthorhombic
_symmetry_space_group_name_H-M   'P 21 21 21'
_symmetry_Int_Tables_number      19
_space_group_name_Hall           'P 2ac 2ab'
loop_
_symmetry_equiv_pos_site_id
_symmetry_equiv_pos_as_xyz
1 x,y,z
2 1/2+x,1/2-y,-z
3 -x,1/2+y,1/2-z
4 1/2-x,-y,1/2+z
_cell_length_a                   6.78048(6)
_cell_length_b                   18.42351(23)
_cell_length_c                   5.86807(6)
_cell_angle_alpha                90
_cell_angle_beta                 90
_cell_angle_gamma                90
_cell_volume                     733.041
loop_
_atom_site_label
_atom_site_type_symbol
_atom_site_fract_x
_atom_site_fract_y
_atom_site_fract_z
Ca1 Ca -0.11707(30) 0.20243(8) 0.4140(4)
O1 O -0.1182(8) 0.10773(25) 0.1273(8)
O2 O -0.1536(8) 0.16482(29) -0.1985(7)
C1 C -0.0940(13) 0.1098(4) -0.0830(15)
O3 O 0.2783(6) -0.18108(30) -0.0449(9)
O4 O -0.0395(5) -0.18475(29) -0.1085(14)
O5 O -0.0329(6) 0.27532(25) 0.0998(10)
C2 C 0.1195(14) -0.1480(4) -0.1034(17)
C3 C 0.1250(15) -0.0699(4) -0.2193(14)
C4 C -0.0005(12) -0.0249(4) -0.0761(13)
C5 C 0.0042(14) 0.0443(4) -0.2068(12)
Ca1_2 Ca -0.11707(30) 0.20243(8) -0.5860(4)
Ca1B Ca 0.11707(30) -0.29757(8) 0.0860(4)
Ca1C Ca 0.61707(30) -0.20243(8) -0.0860(4)
Ca1C_2 Ca -0.38293(30) -0.20243(8) -0.0860(4)
O2_2 O -0.1536(8) 0.16482(29) 0.8015(7)
O3B O -0.2783(6) 0.31892(30) 0.5449(9)
O3C O 0.2217(6) 0.18108(30) 0.4551(9)
O4B O 0.0395(5) 0.31525(29) 0.6085(14)
O4C O -0.4605(5) 0.18475(29) 0.3915(14)
loop_
_geom_bond_atom_site_label_1
_geom_bond_atom_site_label_2
_geom_bond_site_symmetry_1
_geom_bond_site_symmetry_2
Ca1 O1 1_555 1_555
O1 C1 1_555 1_555
O2 C1 1_555 1_555
C1 C5 1_555 1_555
O3 C2 1_555 1_555
O4 C2 1_555 1_555
O5 Ca1 1_555 1_555
C2 C3 1_555 1_555
C3 C4 1_555 1_555
C4 C5 1_555 1_555
Ca1_2 O2 1_555 1_555
Ca1B O3 1_555 1_555
Ca1C O3 1_555 1_555
Ca1C_2 O4 1_555 1_555
O2_2 Ca1 1_555 1_555
O3B Ca1 1_555 1_555
O3C Ca1 1_555 1_555
O4B Ca1 1_555 1_555
O4C Ca1 1_555 1_555
O4 Ca1B 1_555 1_555

#END
