
#######################################################################
#
#                 Cambridge Crystallographic Data Centre
#                                CCDC 
#
#######################################################################
#
# If this CIF has been generated from an entry in the Cambridge 
# Structural Database, then it will include bibliographic, chemical, 
# crystal, experimental, refinement or atomic coordinate data resulting 
# from the CCDC's data processing and validation procedures.
#
#######################################################################

data_YUFCIL
_symmetry_cell_setting           monoclinic
_symmetry_space_group_name_H-M   'C 2/c'
_symmetry_Int_Tables_number      15
_space_group_name_Hall           '-C 2yn'
loop_
_symmetry_equiv_pos_site_id
_symmetry_equiv_pos_as_xyz
1 x,y,z
2 -x,y,1/2-z
3 1/2+x,1/2+y,z
4 1/2-x,1/2+y,1/2-z
5 -x,-y,-z
6 x,-y,1/2+z
7 1/2-x,1/2-y,-z
8 1/2+x,1/2-y,1/2+z
_cell_length_a                   9.081(2)
_cell_length_b                   6.939(2)
_cell_length_c                   15.84(1)
_cell_angle_alpha                90
_cell_angle_beta                 96.52(3)
_cell_angle_gamma                90
_cell_volume                     991.671
loop_
_atom_site_label
_atom_site_type_symbol
_atom_site_fract_x
_atom_site_fract_y
_atom_site_fract_z
Cd1 Cd 0.0000 0.21016(6) 0.7500
Br1 Br 0.00349(5) -0.0137 0.61698(3)
O1 O -0.2567(5) 0.2377(5) 0.7538(3)
C1 C -0.1421(5) 0.5068(7) 0.5183(3)
C2 C 0.1107(5) 0.4795(8) 0.5639(3)
N1 N -0.0314(4) 0.4876(5) 0.5829(2)
O2 O -0.0604(4) 0.4790(5) 0.6616(2)
H1 H -0.304(8) 0.31(1) 0.720(5)
H2 H -0.285(7) 0.18(1) 0.772(4)
H3 H -0.249(8) 0.51(1) 0.538(5)
H4 H 0.201(7) 0.46(1) 0.598(4)
Br1A Br -0.00349(5) -0.0137 0.88302(3)
O1A O 0.2567(5) 0.2377(5) 0.7462(3)
H1A H 0.304(8) 0.31(1) 0.780(5)
H2A H 0.285(7) 0.18(1) 0.728(4)
C2D C -0.1107(5) 0.5205(8) 0.4361(3)
N1D N 0.0314(4) 0.5124(5) 0.4171(2)
C1D C 0.1421(5) 0.4932(7) 0.4817(3)
H3D H 0.249(8) 0.49(1) 0.462(5)
O2D O 0.0604(4) 0.5210(5) 0.3384(2)
Cd1D Cd 0.0000 0.78984(6) 0.2500
H4D H -0.201(7) 0.54(1) 0.402(4)
O2A O 0.0604(4) 0.4790(5) 0.8384(2)
loop_
_geom_bond_atom_site_label_1
_geom_bond_atom_site_label_2
_geom_bond_site_symmetry_1
_geom_bond_site_symmetry_2
Cd1 Br1 1_555 1_555
O1 Cd1 1_555 1_555
C1 N1 1_555 1_555
C2 N1 1_555 1_555
N1 O2 1_555 1_555
O2 Cd1 1_555 1_555
H1 O1 1_555 1_555
H2 O1 1_555 1_555
H3 C1 1_555 1_555
H4 C2 1_555 1_555
Br1A Cd1 1_555 1_555
O1A Cd1 1_555 1_555
H1A O1A 1_555 1_555
H2A O1A 1_555 1_555
C2D C1 1_555 1_555
N1D C2D 1_555 1_555
C1D C2 1_555 1_555
H3D C1D 1_555 1_555
O2D N1D 1_555 1_555
Cd1D O2D 1_555 1_555
H4D C2D 1_555 1_555
O2A Cd1 1_555 1_555
N1D C1D 1_555 1_555

#END
