
#######################################################################
#
#                 Cambridge Crystallographic Data Centre
#                                CCDC 
#
#######################################################################
#
# If this CIF has been generated from an entry in the Cambridge 
# Structural Database, then it will include bibliographic, chemical, 
# crystal, experimental, refinement or atomic coordinate data resulting 
# from the CCDC's data processing and validation procedures.
#
#######################################################################

data_YUFDIM
_symmetry_cell_setting           orthorhombic
_symmetry_space_group_name_H-M   'P 21 21 21'
_symmetry_Int_Tables_number      19
_space_group_name_Hall           'P 2ac 2ab'
loop_
_symmetry_equiv_pos_site_id
_symmetry_equiv_pos_as_xyz
1 x,y,z
2 1/2-x,-y,1/2+z
3 1/2+x,1/2-y,-z
4 -x,1/2+y,1/2-z
_cell_length_a                   9.682(6)
_cell_length_b                   12.025(4)
_cell_length_c                   19.733(8)
_cell_angle_alpha                90
_cell_angle_beta                 90
_cell_angle_gamma                90
_cell_volume                     2297.44
loop_
_atom_site_label
_atom_site_type_symbol
_atom_site_fract_x
_atom_site_fract_y
_atom_site_fract_z
Cu1 Cu 0.45521(9) -0.21894(7) 0.36699(4)
O1 O 0.3105(5) -0.2678(4) 0.3068(2)
O2 O 0.3473(6) -0.0856(4) 0.3794(3)
O3 O 0.5088(7) 0.1081(6) 0.5713(3)
O4 O 0.4218(6) -0.6236(4) 0.2216(3)
N1 N 0.5610(7) -0.1969(5) 0.4508(3)
N2 N 0.5665(6) -0.3524(5) 0.3540(3)
N3 N 0.3541(8) 0.1442(6) 0.4873(4)
N4 N 0.2033(6) -0.3937(5) 0.2402(4)
C1 C 0.2260(8) -0.5044(6) 0.2123(4)
C2 C 0.3005(9) 0.0938(6) 0.4249(4)
C3 C 0.3130(7) -0.3610(6) 0.2781(4)
C4 C 0.3739(8) -0.0166(6) 0.4242(4)
C5 C 0.4613(9) -0.0243(6) 0.4797(4)
C6 C 0.4169(7) -0.4426(6) 0.2769(4)
C7 C 0.3697(8) -0.5329(7) 0.2359(4)
C8 C 0.449(1) 0.0800(7) 0.5191(4)
C9 C 0.5515(9) -0.1164(6) 0.4943(4)
C10 C 0.5461(8) -0.4359(6) 0.3134(4)
C11 C 0.6916(9) -0.3412(7) 0.3947(4)
C12 C 0.6552(9) -0.2917(7) 0.4624(4)
C13 C 0.1452(9) 0.0786(8) 0.4284(5)
C14 C 0.222(1) -0.5003(9) 0.1361(5)
C15 C 0.342(1) 0.1615(8) 0.3633(5)
C16 C 0.123(1) -0.5861(9) 0.2390(7)
C17 C 0.322(1) 0.2552(8) 0.5085(6)
C18 C 0.0799(8) -0.3289(8) 0.2341(6)
C19 C 0.652(1) -0.5274(7) 0.3031(5)
C20 C 0.633(1) -0.1154(7) 0.5597(4)
C21 C 0.771(1) -0.0592(9) 0.5477(5)
C22 C 0.627(2) -0.616(1) 0.3486(6)
H1 H 0.1238 0.0361 0.4676
H2 H 0.2893 -0.4482 0.1214
H3 H 0.1143 0.0401 0.3892
H4 H 0.1332 -0.4772 0.1211
H5 H 0.1006 0.1488 0.4310
H6 H 0.2425 -0.5714 0.1177
H7 H 0.4393 0.1697 0.3630
H8 H 0.1288 -0.5867 0.2870
H9 H 0.2995 0.2327 0.3651
H10 H 0.1424 -0.6585 0.2221
H11 H 0.3132 0.1241 0.3232
H12 H 0.0331 -0.5643 0.2255
H13 H 0.3649 0.2709 0.5506
H14 H 0.0911 -0.2596 0.2566
H15 H 0.2245 0.2635 0.5130
H16 H 0.0054 -0.3686 0.2541
H17 H 0.3548 0.3054 0.4750
H18 H 0.0607 -0.3163 0.1875
H19 H 0.5833 -0.0749 0.5933
H20 H 0.6428 -0.5555 0.2583
H21 H 0.7424 -0.4986 0.3092
H22 H 0.6471 -0.1894 0.5750
H23 H 0.8230 -0.0578 0.5884
H24 H 0.6932 -0.6734 0.3411
H25 H 0.7557 0.0147 0.5324
H26 H 0.5367 -0.6458 0.3426
H27 H 0.8195 -0.0998 0.5141
H28 H 0.6363 -0.5889 0.3935
H29 H 0.7358 -0.2669 0.4852
H30 H 0.6103 -0.3468 0.4889
H31 H 0.7343 -0.4118 0.3999
H32 H 0.7533 -0.2920 0.3723
O4C O 0.5782(6) -0.1236(4) 0.2784(3)
Cu1C Cu 0.54479(9) -0.71894(7) 0.13301(4)
loop_
_geom_bond_atom_site_label_1
_geom_bond_atom_site_label_2
_geom_bond_site_symmetry_1
_geom_bond_site_symmetry_2
Cu1 O1 1_555 1_555
O1 C3 1_555 1_555
O2 Cu1 1_555 1_555
O3 C8 1_555 1_555
O4 C7 1_555 1_555
N1 Cu1 1_555 1_555
N2 Cu1 1_555 1_555
N3 C2 1_555 1_555
N4 C1 1_555 1_555
C1 C7 1_555 1_555
C2 C4 1_555 1_555
C3 N4 1_555 1_555
C4 O2 1_555 1_555
C5 C4 1_555 1_555
C6 C3 1_555 1_555
C7 C6 1_555 1_555
C8 N3 1_555 1_555
C9 N1 1_555 1_555
C10 N2 1_555 1_555
C11 N2 1_555 1_555
C12 N1 1_555 1_555
C13 C2 1_555 1_555
C14 C1 1_555 1_555
C15 C2 1_555 1_555
C16 C1 1_555 1_555
C17 N3 1_555 1_555
C18 N4 1_555 1_555
C19 C10 1_555 1_555
C20 C9 1_555 1_555
C21 C20 1_555 1_555
C22 C19 1_555 1_555
H1 C13 1_555 1_555
H2 C14 1_555 1_555
H3 C13 1_555 1_555
H4 C14 1_555 1_555
H5 C13 1_555 1_555
H6 C14 1_555 1_555
H7 C15 1_555 1_555
H8 C16 1_555 1_555
H9 C15 1_555 1_555
H10 C16 1_555 1_555
H11 C15 1_555 1_555
H12 C16 1_555 1_555
H13 C17 1_555 1_555
H14 C18 1_555 1_555
H15 C17 1_555 1_555
H16 C18 1_555 1_555
H17 C17 1_555 1_555
H18 C18 1_555 1_555
H19 C20 1_555 1_555
H20 C19 1_555 1_555
H21 C19 1_555 1_555
H22 C20 1_555 1_555
H23 C21 1_555 1_555
H24 C22 1_555 1_555
H25 C21 1_555 1_555
H26 C22 1_555 1_555
H27 C21 1_555 1_555
H28 C22 1_555 1_555
H29 C12 1_555 1_555
H30 C12 1_555 1_555
H31 C11 1_555 1_555
H32 C11 1_555 1_555
O4C Cu1 1_555 1_555
Cu1C O4 1_555 1_555
C5 C8 1_555 1_555
C5 C9 1_555 1_555
C6 C10 1_555 1_555
C11 C12 1_555 1_555

#END
