
#######################################################################
#
#                 Cambridge Crystallographic Data Centre
#                                CCDC 
#
#######################################################################
#
# If this CIF has been generated from an entry in the Cambridge 
# Structural Database, then it will include bibliographic, chemical, 
# crystal, experimental, refinement or atomic coordinate data resulting 
# from the CCDC's data processing and validation procedures.
#
#######################################################################

data_YUFJOA
_symmetry_cell_setting           triclinic
_symmetry_space_group_name_H-M   'P -1'
_symmetry_Int_Tables_number      2
_space_group_name_Hall           '-P 1'
loop_
_symmetry_equiv_pos_site_id
_symmetry_equiv_pos_as_xyz
1 x,y,z
2 -x,-y,-z
_cell_length_a                   7.055(3)
_cell_length_b                   7.190(3)
_cell_length_c                   20.038(10)
_cell_angle_alpha                80.25(2)
_cell_angle_beta                 79.90(2)
_cell_angle_gamma                64.080(15)
_cell_volume                     895.076
loop_
_atom_site_label
_atom_site_type_symbol
_atom_site_fract_x
_atom_site_fract_y
_atom_site_fract_z
Co1 Co -0.00343(4) 0.48246(4) 0.218107(13)
N1 N 0.1553(3) 0.6510(3) 0.69865(8)
N2 N 0.1229(3) 0.5882(3) 0.12579(9)
N3 N 0.2772(3) 0.7531(3) 0.04950(8)
O1 O 0.2958(3) 0.7975(3) 0.25034(8)
O2 O 0.1274(3) 0.5901(3) 0.28498(8)
O3 O 0.3160(3) 0.8566(2) 0.81611(8)
O4 O 0.1426(3) 0.6548(3) 0.83101(7)
O5 O -0.2808(3) 0.7538(3) 0.22533(10)
O6 O 0.2678(3) 0.2026(3) 0.22547(11)
C1 C 0.2182(3) 0.6971(3) 0.29511(10)
C2 C 0.2347(3) 0.7058(3) 0.36903(10)
C3 C 0.2170(3) 0.5541(3) 0.41956(11)
H1 H 0.1991 0.4436 0.4078
C4 C 0.2260(3) 0.5653(3) 0.48755(11)
H2 H 0.2190 0.4596 0.5204
C5 C 0.2452(3) 0.7331(3) 0.50710(10)
C6 C 0.2625(4) 0.8848(3) 0.45621(11)
H3 H 0.2748 0.9983 0.4681
C7 C 0.2618(3) 0.8700(3) 0.38789(11)
H4 H 0.2794 0.9701 0.3546
C8 C 0.2451(3) 0.7502(3) 0.58043(10)
C9 C 0.1620(3) 0.6403(3) 0.63224(10)
H5 H 0.1085 0.5552 0.6198
C10 C 0.2369(3) 0.7693(3) 0.71770(10)
C11 C 0.3202(4) 0.8855(4) 0.67012(11)
H6 H 0.3740 0.9681 0.6840
C12 C 0.3220(4) 0.8769(4) 0.60140(11)
H7 H 0.3752 0.9563 0.5690
C13 C 0.2319(3) 0.7604(3) 0.79457(10)
C14 C 0.2106(4) 0.7192(4) 0.11613(11)
H8 H 0.2254 0.7813 0.1508
C15 C 0.2261(4) 0.6350(4) 0.01419(11)
H9 H 0.2507 0.6269 -0.0326
C16 C 0.1328(4) 0.5334(4) 0.06182(11)
H10 H 0.0830 0.4409 0.0529
C17 C 0.5370(4) 0.8784(4) 0.06193(11)
H11 H 0.5615 0.7960 0.1034
C18 C 0.3908(4) 0.8791(3) 0.02369(10)
C19 C 0.3533(4) 0.9994(4) -0.03836(11)
H12 H 0.2557 0.9982 -0.0639
H13 H -0.288(5) 0.869(2) 0.2128(14)
H14 H -0.403(2) 0.767(5) 0.2352(15)
H15 H 0.383(3) 0.191(5) 0.2064(14)
H16 H 0.263(5) 0.090(2) 0.2309(15)
N2A N 0.8771(3) 1.4118(3) -0.12579(9)
N3A N 0.7228(3) 1.2469(3) -0.04950(8)
C14A C 0.7894(4) 1.2808(4) -0.11613(11)
H8A H 0.7746 1.2187 -0.1508
C15A C 0.7739(4) 1.3650(4) -0.01419(11)
H9A H 0.7493 1.3731 0.0326
C16A C 0.8672(4) 1.4666(4) -0.06182(11)
H10A H 0.9170 1.5591 -0.0529
C17A C 0.4630(4) 1.1216(4) -0.06193(11)
H11A H 0.4385 1.2040 -0.1034
C18A C 0.6092(4) 1.1209(3) -0.02369(10)
C19A C 0.6467(4) 1.0006(4) 0.03836(11)
H12A H 0.7443 1.0018 0.0639
Co1A Co 0.00343(4) 0.51754(4) 0.781893(13)
N1A N -0.1553(3) 0.3490(3) 0.30135(8)
O1A O -0.2958(3) 0.2025(3) 0.74966(8)
O2A O -0.1274(3) 0.4099(3) 0.71502(8)
O3A O -0.3160(3) 0.1434(2) 0.18389(8)
O4A O -0.1426(3) 0.3452(3) 0.16899(7)
O5A O 0.2808(3) 0.2462(3) 0.77467(10)
O6A O -0.2678(3) 0.7974(3) 0.77453(11)
C1A C -0.2182(3) 0.3029(3) 0.70489(10)
C2A C -0.2347(3) 0.2942(3) 0.63097(10)
C3A C -0.2170(3) 0.4459(3) 0.58044(11)
H1A H -0.1991 0.5564 0.5922
C4A C -0.2260(3) 0.4347(3) 0.51245(11)
H2A H -0.2190 0.5404 0.4796
C5A C -0.2452(3) 0.2669(3) 0.49290(10)
C6A C -0.2625(4) 0.1152(3) 0.54379(11)
H3A H -0.2748 0.0017 0.5319
C7A C -0.2618(3) 0.1300(3) 0.61211(11)
H4A H -0.2794 0.0299 0.6454
C8A C -0.2451(3) 0.2498(3) 0.41957(10)
C9A C -0.1620(3) 0.3597(3) 0.36776(10)
H5A H -0.1085 0.4448 0.3802
C10A C -0.2369(3) 0.2307(3) 0.28230(10)
C11A C -0.3202(4) 0.1145(4) 0.32988(11)
H6A H -0.3740 0.0319 0.3160
C12A C -0.3220(4) 0.1231(4) 0.39860(11)
H7A H -0.3752 0.0437 0.4310
C13A C -0.2319(3) 0.2396(3) 0.20543(10)
H13A H 0.288(5) 0.131(2) 0.7872(14)
H14A H 0.403(2) 0.233(5) 0.7648(15)
H15A H -0.383(3) 0.809(5) 0.7936(14)
H16A H -0.263(5) 0.910(2) 0.7691(15)
Co1A_2 Co 1.00343(4) 1.51754(4) -0.218107(13)
N2A_2 N -0.1229(3) 0.4118(3) 0.87421(9)
loop_
_geom_bond_atom_site_label_1
_geom_bond_atom_site_label_2
_geom_bond_site_symmetry_1
_geom_bond_site_symmetry_2
Co1 N2 1_555 1_555
N1 C9 1_555 1_555
N2 C14 1_555 1_555
N3 C14 1_555 1_555
O1 C1 1_555 1_555
O2 Co1 1_555 1_555
O3 C13 1_555 1_555
O4 C13 1_555 1_555
O5 Co1 1_555 1_555
O6 Co1 1_555 1_555
C1 O2 1_555 1_555
C2 C1 1_555 1_555
C3 C2 1_555 1_555
H1 C3 1_555 1_555
C4 C3 1_555 1_555
H2 C4 1_555 1_555
C5 C4 1_555 1_555
C6 C5 1_555 1_555
H3 C6 1_555 1_555
C7 C2 1_555 1_555
H4 C7 1_555 1_555
C8 C5 1_555 1_555
C9 C8 1_555 1_555
H5 C9 1_555 1_555
C10 N1 1_555 1_555
C11 C10 1_555 1_555
H6 C11 1_555 1_555
C12 C8 1_555 1_555
H7 C12 1_555 1_555
C13 C10 1_555 1_555
C14 H8 1_555 1_555
C15 N3 1_555 1_555
H9 C15 1_555 1_555
C16 N2 1_555 1_555
H10 C16 1_555 1_555
C17 H11 1_555 1_555
C18 N3 1_555 1_555
C19 C18 1_555 1_555
H12 C19 1_555 1_555
H13 O5 1_555 1_555
H14 O5 1_555 1_555
H15 O6 1_555 1_555
H16 O6 1_555 1_555
N2A C14A 1_555 1_555
N3A C14A 1_555 1_555
C14A H8A 1_555 1_555
C15A N3A 1_555 1_555
H9A C15A 1_555 1_555
C16A N2A 1_555 1_555
H10A C16A 1_555 1_555
C17A C19 1_555 1_555
H11A C17A 1_555 1_555
C18A N3A 1_555 1_555
C19A C17 1_555 1_555
H12A C19A 1_555 1_555
Co1A N1 1_555 1_555
N1A Co1 1_555 1_555
O1A C1A 1_555 1_555
O2A Co1A 1_555 1_555
O3A C13A 1_555 1_555
O4A Co1 1_555 1_555
O5A Co1A 1_555 1_555
O6A Co1A 1_555 1_555
C1A O2A 1_555 1_555
C2A C1A 1_555 1_555
C3A C2A 1_555 1_555
H1A C3A 1_555 1_555
C4A C3A 1_555 1_555
H2A C4A 1_555 1_555
C5A C4A 1_555 1_555
C6A C5A 1_555 1_555
H3A C6A 1_555 1_555
C7A C2A 1_555 1_555
H4A C7A 1_555 1_555
C8A C5A 1_555 1_555
C9A N1A 1_555 1_555
H5A C9A 1_555 1_555
C10A N1A 1_555 1_555
C11A C10A 1_555 1_555
H6A C11A 1_555 1_555
C12A C8A 1_555 1_555
H7A C12A 1_555 1_555
C13A O4A 1_555 1_555
H13A O5A 1_555 1_555
H14A O5A 1_555 1_555
H15A O6A 1_555 1_555
H16A O6A 1_555 1_555
Co1A_2 N2A 1_555 1_555
N2A_2 Co1A 1_555 1_555
O4 Co1A 1_555 1_555
C6 C7 1_555 1_555
C11 C12 1_555 1_555
C15 C16 1_555 1_555
C17 C18 1_555 1_555
C15A C16A 1_555 1_555
C17A C18A 1_555 1_555
C18A C19A 1_555 1_555
C6A C7A 1_555 1_555
C8A C9A 1_555 1_555
C10A C13A 1_555 1_555
C11A C12A 1_555 1_555

#END
