
#######################################################################
#
#                 Cambridge Crystallographic Data Centre
#                                CCDC 
#
#######################################################################
#
# If this CIF has been generated from an entry in the Cambridge 
# Structural Database, then it will include bibliographic, chemical, 
# crystal, experimental, refinement or atomic coordinate data resulting 
# from the CCDC's data processing and validation procedures.
#
#######################################################################

data_YUFLOC
_symmetry_cell_setting           triclinic
_symmetry_space_group_name_H-M   'P -1'
_symmetry_Int_Tables_number      2
_space_group_name_Hall           '-P 1'
loop_
_symmetry_equiv_pos_site_id
_symmetry_equiv_pos_as_xyz
1 x,y,z
2 -x,-y,-z
_cell_length_a                   11.439(5)
_cell_length_b                   11.966(5)
_cell_length_c                   12.113(5)
_cell_angle_alpha                101.036(5)
_cell_angle_beta                 106.890(5)
_cell_angle_gamma                107.950(5)
_cell_volume                     1435.58
loop_
_atom_site_label
_atom_site_type_symbol
_atom_site_fract_x
_atom_site_fract_y
_atom_site_fract_z
Sr1 Sr 0.0000 0.0000 0.5000
Sr2 Sr 0.28404(3) 0.28592(3) 0.77425(3)
O1 O -0.0775(2) 0.1680(2) 0.4247(2)
O2 O 0.0706(2) 0.2527(2) 0.6108(2)
O3 O -0.1319(2) 0.2992(2) 0.2928(2)
O4 O -0.0908(2) -0.0359(2) 0.6755(2)
O5 O 0.1185(2) 0.0921(2) 0.7663(2)
O6 O -0.2244(2) -0.1296(2) 0.7927(2)
O7 O 0.2616(2) 0.1101(2) 0.5869(2)
O8 O 0.4625(2) 0.2492(2) 0.6965(2)
O9 O 0.6669(2) 0.2147(2) 0.6872(2)
O10 O 0.2100(3) 0.3923(2) 0.9192(2)
O11 O 0.3727(2) 0.4720(2) 0.7161(2)
O12 O 0.4301(2) 0.2256(2) 0.9333(2)
N1 N 0.1394(3) 0.3831(3) 1.0689(3)
N2 N 0.3571(3) 0.5255(3) 0.5525(3)
N3 N 0.5087(3) 0.0821(3) 0.8886(3)
C1 C -0.0033(3) 0.2602(3) 0.5162(3)
C2 C -0.0026(3) 0.3844(3) 0.5084(3)
C3 C -0.0671(3) 0.3961(3) 0.3960(3)
C4 C 0.0631(3) 0.4873(3) 0.6103(3)
H1 H 0.1055 0.4788 0.6845
C5 C 0.0125(3) 0.0240(3) 0.7694(3)
C6 C 0.0061(3) 0.0106(3) 0.8891(3)
C7 C 0.1173(3) 0.0740(3) 0.9952(3)
H2 H 0.1958 0.1235 0.9915
C8 C -0.1135(3) -0.0652(3) 0.8930(3)
C9 C 0.3843(3) 0.1479(3) 0.6152(3)
C10 C 0.4445(3) 0.0715(3) 0.5546(3)
C11 C 0.5828(3) 0.1093(3) 0.5948(3)
C12 C 0.3632(3) -0.0373(3) 0.4606(3)
H3 H 0.2717 -0.0621 0.4345
C13 C 0.1136(4) 0.3658(4) 0.9548(4)
C14 C -0.0301(4) 0.3129(4) 0.8736(4)
H4 H -0.0381 0.3206 0.7946
H5 H -0.0755 0.3570 0.9071
H6 H -0.0688 0.2273 0.8671
C15 C 0.0350(4) 0.3466(4) 1.1191(4)
H7 H -0.0063 0.4052 1.1205
H8 H 0.0739 0.3447 1.2000
H9 H -0.0302 0.2661 1.0692
C16 C 0.2834(4) 0.4290(4) 1.1489(4)
H10 H 0.3348 0.4235 1.0995
H11 H 0.2943 0.3793 1.2016
H12 H 0.3129 0.5134 1.1967
C17 C 0.3881(3) 0.5519(4) 0.6671(4)
C18 C 0.4443(4) 0.6919(4) 0.7369(4)
H13 H 0.3766 0.7238 0.7134
H14 H 0.5181 0.7348 0.7177
H15 H 0.4731 0.7037 0.8225
C19 C 0.3557(4) 0.6180(4) 0.4849(4)
H16 H 0.2658 0.6031 0.4381
H17 H 0.4027 0.6102 0.4317
H18 H 0.3978 0.6998 0.5416
C20 C 0.3033(4) 0.3920(4) 0.4800(4)
H19 H 0.3112 0.3431 0.5339
H20 H 0.3526 0.3808 0.4296
H21 H 0.2117 0.3664 0.4299
C21 C 0.5267(3) 0.1958(3) 0.9379(3)
C22 C 0.6672(3) 0.2899(3) 0.9996(4)
H22 H 0.6669 0.3682 1.0368
H23 H 0.7075 0.2980 0.9408
H24 H 0.7165 0.2635 1.0606
C23 C 0.3722(4) -0.0131(3) 0.8219(4)
H25 H 0.3098 0.0191 0.8384
H26 H 0.3647 -0.0851 0.8479
H27 H 0.3540 -0.0349 0.7364
C24 C 0.6164(4) 0.0406(4) 0.8841(4)
H28 H 0.6157 0.0241 0.8032
H29 H 0.6036 -0.0332 0.9074
H30 H 0.7000 0.1040 0.9389
H31 H -0.139(5) 0.2357(14) 0.312(2)
H32 H -0.207(3) -0.127(5) 0.7313(14)
H33 H 0.622(2) 0.250(3) 0.707(3)
O1A O 0.0775(2) 0.8320(2) 0.5753(2)
O2A O -0.0706(2) 0.7473(2) 0.3892(2)
O3A O 0.1319(2) 0.7008(2) 0.7072(2)
C1A C 0.0033(3) 0.7398(3) 0.4838(3)
C2A C 0.0026(3) 0.6156(3) 0.4916(3)
C3A C 0.0671(3) 0.6039(3) 0.6040(3)
C4A C -0.0631(3) 0.5127(3) 0.3897(3)
H1A H -0.1055 0.5212 0.3155
H31A H 0.139(5) 0.7643(14) 0.688(2)
O4A O 0.0908(2) 0.0359(2) 1.3245(2)
O5A O -0.1185(2) -0.0921(2) 1.2337(2)
O6A O 0.2244(2) 0.1296(2) 1.2073(2)
C5A C -0.0125(3) -0.0240(3) 1.2306(3)
C6A C -0.0061(3) -0.0106(3) 1.1109(3)
C7A C -0.1173(3) -0.0740(3) 1.0048(3)
H2A H -0.1958 -0.1235 1.0085
C8A C 0.1135(3) 0.0652(3) 1.1070(3)
H32A H 0.207(3) 0.127(5) 1.2687(14)
O7A O 0.7384(2) -0.1101(2) 0.4131(2)
O8A O 0.5375(2) -0.2492(2) 0.3035(2)
O9A O 0.3331(2) -0.2147(2) 0.3128(2)
C9A C 0.6157(3) -0.1479(3) 0.3848(3)
C10A C 0.5555(3) -0.0715(3) 0.4454(3)
C11A C 0.4172(3) -0.1093(3) 0.4052(3)
C12A C 0.6368(3) 0.0373(3) 0.5394(3)
H3A H 0.7283 0.0621 0.5655
H33A H 0.378(2) -0.250(3) 0.293(3)
Sr2A Sr -0.28404(3) 0.71408(3) 0.22575(3)
O10A O -0.2100(3) 0.6077(2) 0.0808(2)
O11A O -0.3727(2) 0.5280(2) 0.2839(2)
O12A O -0.4301(2) 0.7744(2) 0.0667(2)
N1A N -0.1394(3) 0.6169(3) -0.0689(3)
N2A N -0.3571(3) 0.4745(3) 0.4475(3)
N3A N -0.5087(3) 0.9179(3) 0.1114(3)
C13A C -0.1136(4) 0.6342(4) 0.0452(4)
C14A C 0.0301(4) 0.6871(4) 0.1264(4)
H4A H 0.0381 0.6794 0.2054
H5A H 0.0755 0.6430 0.0929
H6A H 0.0688 0.7727 0.1329
C15A C -0.0350(4) 0.6534(4) -0.1191(4)
H7A H 0.0063 0.5948 -0.1205
H8A H -0.0739 0.6553 -0.2000
H9A H 0.0302 0.7339 -0.0692
C16A C -0.2834(4) 0.5710(4) -0.1489(4)
H10A H -0.3348 0.5765 -0.0995
H11A H -0.2943 0.6207 -0.2016
H12A H -0.3129 0.4866 -0.1967
C17A C -0.3881(3) 0.4481(4) 0.3329(4)
C18A C -0.4443(4) 0.3081(4) 0.2631(4)
H13A H -0.3766 0.2762 0.2866
H14A H -0.5181 0.2652 0.2823
H15A H -0.4731 0.2963 0.1775
C19A C -0.3557(4) 0.3820(4) 0.5151(4)
H16A H -0.2658 0.3969 0.5619
H17A H -0.4027 0.3898 0.5683
H18A H -0.3978 0.3002 0.4584
C20A C -0.3033(4) 0.6080(4) 0.5200(4)
H19A H -0.3112 0.6569 0.4661
H20A H -0.3526 0.6192 0.5704
H21A H -0.2117 0.6336 0.5701
C21A C -0.5267(3) 0.8042(3) 0.0621(3)
C22A C -0.6672(3) 0.7101(3) 0.0004(4)
H22A H -0.6669 0.6318 -0.0368
H23A H -0.7075 0.7020 0.0592
H24A H -0.7165 0.7365 -0.0606
C23A C -0.3722(4) 1.0131(3) 0.1781(4)
H25A H -0.3098 0.9809 0.1616
H26A H -0.3647 1.0851 0.1521
H27A H -0.3540 1.0349 0.2636
C24A C -0.6164(4) 0.9594(4) 0.1159(4)
H28A H -0.6157 0.9759 0.1968
H29A H -0.6036 1.0332 0.0926
H30A H -0.7000 0.8960 0.0611
Sr1_2 Sr 0.0000 0.0000 1.5000
Sr1_3 Sr 0.0000 1.0000 0.5000
Sr1_4 Sr 1.0000 0.0000 0.5000
Sr2A_2 Sr -0.28404(3) -0.28592(3) 1.22575(3)
Sr2A_3 Sr 0.71596(3) -0.28592(3) 0.22575(3)
O1A_2 O 0.0775(2) -0.1680(2) 0.5753(2)
O2A_2 O -0.0706(2) -0.2527(2) 0.3892(2)
O4A_2 O 0.0908(2) 0.0359(2) 0.3245(2)
O5A_2 O -0.1185(2) -0.0921(2) 0.2337(2)
O5A_3 O -0.1185(2) 0.9079(2) 0.2337(2)
O7A_2 O -0.2616(2) -0.1101(2) 0.4131(2)
O7A_3 O -0.2616(2) 0.8899(2) 0.4131(2)
O8A_2 O -0.4625(2) 0.7508(2) 0.3035(2)
O13 O 0.5000 0.5000 1.0000
H34 H 0.4234(7) 0.497(4) 0.965(7)
H34A H 0.5766(7) 0.503(4) 1.035(7)
H35? H 0.498(4) 0.4290(10) 0.999(5)
loop_
_geom_bond_atom_site_label_1
_geom_bond_atom_site_label_2
_geom_bond_site_symmetry_1
_geom_bond_site_symmetry_2
Sr1 O1 1_555 1_555
Sr2 O2 1_555 1_555
O1 C1 1_555 1_555
O2 Sr1 1_555 1_555
O3 C3 1_555 1_555
O4 Sr1 1_555 1_555
O5 Sr1 1_555 1_555
O6 C8 1_555 1_555
O7 Sr1 1_555 1_555
O8 Sr2 1_555 1_555
O9 C11 1_555 1_555
O10 Sr2 1_555 1_555
O11 Sr2 1_555 1_555
O12 Sr2 1_555 1_555
N1 C13 1_555 1_555
N2 C17 1_555 1_555
N3 C21 1_555 1_555
C1 O2 1_555 1_555
C2 C1 1_555 1_555
C3 C2 1_555 1_555
C4 C2 1_555 1_555
H1 C4 1_555 1_555
C5 O4 1_555 1_555
C6 C5 1_555 1_555
C7 C6 1_555 1_555
H2 C7 1_555 1_555
C8 C6 1_555 1_555
C9 O7 1_555 1_555
C10 C9 1_555 1_555
C11 C10 1_555 1_555
C12 C10 1_555 1_555
H3 C12 1_555 1_555
C13 O10 1_555 1_555
C14 C13 1_555 1_555
H4 C14 1_555 1_555
H5 C14 1_555 1_555
H6 C14 1_555 1_555
C15 N1 1_555 1_555
H7 C15 1_555 1_555
H8 C15 1_555 1_555
H9 C15 1_555 1_555
C16 N1 1_555 1_555
H10 C16 1_555 1_555
H11 C16 1_555 1_555
H12 C16 1_555 1_555
C17 O11 1_555 1_555
C18 C17 1_555 1_555
H13 C18 1_555 1_555
H14 C18 1_555 1_555
H15 C18 1_555 1_555
C19 N2 1_555 1_555
H16 C19 1_555 1_555
H17 C19 1_555 1_555
H18 C19 1_555 1_555
C20 N2 1_555 1_555
H19 C20 1_555 1_555
H20 C20 1_555 1_555
H21 C20 1_555 1_555
C21 O12 1_555 1_555
C22 C21 1_555 1_555
H22 C22 1_555 1_555
H23 C22 1_555 1_555
H24 C22 1_555 1_555
C23 N3 1_555 1_555
H25 C23 1_555 1_555
H26 C23 1_555 1_555
H27 C23 1_555 1_555
C24 N3 1_555 1_555
H28 C24 1_555 1_555
H29 C24 1_555 1_555
H30 C24 1_555 1_555
H31 O3 1_555 1_555
H32 O6 1_555 1_555
H33 O9 1_555 1_555
O13 H34 1_555 1_555
O1A C1A 1_555 1_555
O2A C1A 1_555 1_555
O3A C3A 1_555 1_555
C1A C2A 1_555 1_555
C2A C3A 1_555 1_555
C3A C4 1_555 1_555
C4A C3 1_555 1_555
H1A C4A 1_555 1_555
H31A O3A 1_555 1_555
O4A C5A 1_555 1_555
O5A C5A 1_555 1_555
O6A C8A 1_555 1_555
C5A C6A 1_555 1_555
C6A C7A 1_555 1_555
C7A C8 1_555 1_555
H2A C7A 1_555 1_555
C8A C7 1_555 1_555
H32A O6A 1_555 1_555
O7A C9A 1_555 1_555
O8A C9A 1_555 1_555
O9A C11A 1_555 1_555
C9A C10A 1_555 1_555
C10A C11A 1_555 1_555
C11A C12 1_555 1_555
C12A C11 1_555 1_555
H3A C12A 1_555 1_555
H33A O9A 1_555 1_555
Sr2A O2A 1_555 1_555
O10A Sr2A 1_555 1_555
O11A Sr2A 1_555 1_555
O12A Sr2A 1_555 1_555
N1A C13A 1_555 1_555
N2A C17A 1_555 1_555
N3A C21A 1_555 1_555
C13A O10A 1_555 1_555
C14A C13A 1_555 1_555
H4A C14A 1_555 1_555
H5A C14A 1_555 1_555
H6A C14A 1_555 1_555
C15A N1A 1_555 1_555
H7A C15A 1_555 1_555
H8A C15A 1_555 1_555
H9A C15A 1_555 1_555
C16A N1A 1_555 1_555
H10A C16A 1_555 1_555
H11A C16A 1_555 1_555
H12A C16A 1_555 1_555
C17A O11A 1_555 1_555
C18A C17A 1_555 1_555
H13A C18A 1_555 1_555
H14A C18A 1_555 1_555
H15A C18A 1_555 1_555
C19A N2A 1_555 1_555
H16A C19A 1_555 1_555
H17A C19A 1_555 1_555
H18A C19A 1_555 1_555
C20A N2A 1_555 1_555
H19A C20A 1_555 1_555
H20A C20A 1_555 1_555
H21A C20A 1_555 1_555
C21A O12A 1_555 1_555
C22A C21A 1_555 1_555
H22A C22A 1_555 1_555
H23A C22A 1_555 1_555
H24A C22A 1_555 1_555
C23A N3A 1_555 1_555
H25A C23A 1_555 1_555
H26A C23A 1_555 1_555
H27A C23A 1_555 1_555
C24A N3A 1_555 1_555
H28A C24A 1_555 1_555
H29A C24A 1_555 1_555
H30A C24A 1_555 1_555
Sr1_2 O4A 1_555 1_555
Sr1_3 O1A 1_555 1_555
Sr1_4 O7A 1_555 1_555
Sr2A_2 O5A 1_555 1_555
Sr2A_3 O7A 1_555 1_555
O1A_2 Sr1 1_555 1_555
O2A_2 Sr1 1_555 1_555
O4A_2 Sr1 1_555 1_555
O5A_2 Sr1 1_555 1_555
O5A_3 Sr2A 1_555 1_555
O7A_2 Sr1 1_555 1_555
O7A_3 Sr2A 1_555 1_555
O8A_2 Sr2A 1_555 1_555
H34A O13 1_555 1_555
Sr2 O5 1_555 1_555
Sr2 O7 1_555 1_555
O5 C5 1_555 1_555
O8 C9 1_555 1_555
O2A Sr1_3 1_555 1_555
C2A C4A 1_555 1_555
O5A Sr1_2 1_555 1_555
C6A C8A 1_555 1_555
O8A Sr2A_3 1_555 1_555
C10A C12A 1_555 1_555
Sr1_3 O5A_3 1_555 1_555
Sr1_3 O7A_3 1_555 1_555

#END
