
#######################################################################
#
#                 Cambridge Crystallographic Data Centre
#                                CCDC 
#
#######################################################################
#
# If this CIF has been generated from an entry in the Cambridge 
# Structural Database, then it will include bibliographic, chemical, 
# crystal, experimental, refinement or atomic coordinate data resulting 
# from the CCDC's data processing and validation procedures.
#
#######################################################################

data_YUFLAO
_symmetry_cell_setting           triclinic
_symmetry_space_group_name_H-M   'P -1'
_symmetry_Int_Tables_number      2
_space_group_name_Hall           '-P 1'
loop_
_symmetry_equiv_pos_site_id
_symmetry_equiv_pos_as_xyz
1 x,y,z
2 -x,-y,-z
_cell_length_a                   10.6780(6)
_cell_length_b                   13.4480(8)
_cell_length_c                   14.0150(8)
_cell_angle_alpha                105.5870(10)
_cell_angle_beta                 102.5660(10)
_cell_angle_gamma                93.5890(11)
_cell_volume                     1876.32
loop_
_atom_site_label
_atom_site_type_symbol
_atom_site_fract_x
_atom_site_fract_y
_atom_site_fract_z
Cr1 Cr 0.25290(10) 0.13204(8) 0.43914(8)
Mo1 Mo 0.28664(5) -0.11533(4) 0.35465(4)
Cu1 Cu 0.03394(9) 0.46670(8) 0.68971(7)
O1 O 0.0897(5) 0.3007(4) 0.7064(4)
C1 C -0.1840(7) 0.3497(6) 0.5127(5)
H1 H -0.1259 0.3406 0.4712
N1 N -0.1437(6) 0.4045(5) 0.6109(5)
O2 O 0.1863(7) 0.5566(6) 0.7809(5)
Mo2 Mo 0.23168(5) -0.02314(5) 0.58684(4)
O3 O 0.1068(5) 0.4426(4) 0.5727(4)
C2 C -0.3596(7) 0.3782(6) 0.6261(6)
H2 H -0.4191 0.3912 0.6662
N2 N -0.3998(6) 0.3215(5) 0.5279(5)
Cu2 Cu -0.5000 1.0000 1.0000
Mo3 Mo 0.20772(6) 0.22756(5) 0.67158(4)
N3 N -0.3248(6) 1.0443(5) 1.0883(4)
O4 O -0.0478(5) 0.4978(4) 0.8025(4)
C3 C -0.2302(7) 0.4177(5) 0.6685(5)
Mo4 Mo 0.23216(6) 0.38358(5) 0.52539(5)
O5 O -0.4450(5) 0.8606(4) 0.9846(4)
N4 N -0.0786(6) 1.0817(5) 1.2108(5)
C4 C -0.1692(7) 0.4721(6) 0.7792(6)
Mo5 Mo 0.29621(6) 0.03994(5) 0.20050(4)
N5 N -0.2724(6) 0.7772(5) 1.0221(5)
H3 H -0.1903 0.7819 1.0465
C5 C -0.1778(7) 0.5483(6) 0.9546(5)
H4 H -0.1158 0.6061 0.9584
H5 H -0.1317 0.5020 0.9877
O6 O 0.4173(5) -0.0146(4) 0.1510(4)
Mo6 Mo 0.26315(6) 0.28707(5) 0.29099(5)
O7 O 0.1556(4) -0.0035(3) 0.4252(3)
N6 N -0.2376(6) 0.4921(5) 0.8469(5)
H6 H -0.3195 0.4720 0.8283
C6 C -0.2792(8) 0.5887(6) 1.0091(5)
H7 H -0.2389 0.6161 1.0816
H8 H -0.3438 0.5309 1.0003
O8 O 0.3289(4) 0.1276(4) 0.5796(3)
C7 C -0.3474(7) 0.6736(6) 0.9733(6)
H9 H -0.3610 0.6578 0.8998
H10 H -0.4315 0.6742 0.9889
O9 O 0.1330(4) 0.2171(3) 0.5040(3)
C8 C -0.3268(7) 0.8617(6) 1.0294(5)
O10 O 0.1738(4) 0.1336(4) 0.3006(3)
C9 C -0.2546(6) 0.9655(6) 1.0933(5)
C10 C -0.1324(7) 0.9846(6) 1.1546(5)
H11 H -0.0851 0.9292 1.1578
O11 O 0.1242(4) 0.0857(4) 0.6287(4)
O12 O 0.3301(5) -0.0174(4) 0.7005(4)
C11 C -0.2731(7) 1.1395(6) 1.1435(6)
H12 H -0.3203 1.1948 1.1406
O13 O 0.1161(5) -0.1282(4) 0.5612(4)
C12 C -0.1485(8) 1.1579(7) 1.2061(6)
H13 H -0.1141 1.2255 1.2453
O14 O 0.3477(4) -0.0803(4) 0.5023(3)
C13 C -0.3123(7) 0.3062(6) 0.4725(6)
H14 H -0.3380 0.2652 0.4048
O15 O 0.1725(5) -0.2181(4) 0.3296(4)
O16 O 0.4211(5) -0.1696(4) 0.3264(4)
O17 O 0.2163(4) -0.0754(4) 0.2335(3)
O18 O 0.3788(4) 0.0503(3) 0.3770(3)
O19 O 0.1794(5) 0.0389(4) 0.0955(4)
O20 O 0.3727(5) 0.1828(4) 0.2472(4)
O21 O 0.3452(4) 0.2670(4) 0.4494(3)
O22 O 0.1568(5) 0.3508(4) 0.3838(4)
O23 O 0.3737(5) 0.3916(4) 0.3094(4)
O24 O 0.3495(5) 0.4829(4) 0.5445(4)
O25 O 0.3073(4) 0.3379(4) 0.6409(4)
O26 O 0.3131(5) 0.2307(4) 0.7827(4)
O27 O 0.1542(5) 0.2779(4) 0.1800(4)
Cr1A Cr -1.25290(10) 1.86796(8) 1.56086(8)
Mo1A Mo -1.28664(5) 2.11533(4) 1.64535(4)
Cu1A Cu -1.03394(9) 1.53330(8) 1.31029(7)
O1A O -1.0897(5) 1.6993(4) 1.2936(4)
C1A C -0.8160(7) 1.6503(6) 1.4873(5)
H1A H -0.8741 1.6594 1.5288
N1A N -0.8563(6) 1.5955(5) 1.3891(5)
O2A O -1.1863(7) 1.4434(6) 1.2191(5)
Mo2A Mo -1.23168(5) 2.02314(5) 1.41316(4)
O3A O -1.1068(5) 1.5574(4) 1.4273(4)
C2A C -0.6404(7) 1.6218(6) 1.3739(6)
H2A H -0.5809 1.6088 1.3338
N2A N -0.6002(6) 1.6785(5) 1.4721(5)
Mo3A Mo -1.20772(6) 1.77244(5) 1.32842(4)
N3A N -0.6752(6) 0.9557(5) 0.9117(4)
O4A O -0.9522(5) 1.5022(4) 1.1975(4)
C3A C -0.7698(7) 1.5823(5) 1.3315(5)
Mo4A Mo -1.23216(6) 1.61642(5) 1.47461(5)
O5A O -0.5550(5) 1.1394(4) 1.0154(4)
N4A N -0.9214(6) 0.9183(5) 0.7892(5)
C4A C -0.8308(7) 1.5279(6) 1.2208(6)
Mo5A Mo -1.29621(6) 1.96006(5) 1.79950(4)
N5A N -0.7276(6) 1.2228(5) 0.9779(5)
H3A H -0.8097 1.2181 0.9535
C5A C -0.8222(7) 1.4517(6) 1.0454(5)
H4A H -0.8842 1.3939 1.0416
H5A H -0.8683 1.4980 1.0123
O6A O -1.4173(5) 2.0146(4) 1.8490(4)
Mo6A Mo -1.26315(6) 1.71293(5) 1.70901(5)
O7A O -1.1556(4) 2.0035(3) 1.5748(3)
N6A N -0.7624(6) 1.5079(5) 1.1531(5)
H6A H -0.6805 1.5280 1.1717
C6A C -0.7208(8) 1.4113(6) 0.9909(5)
H7A H -0.7611 1.3839 0.9184
H8A H -0.6562 1.4691 0.9997
O8A O -1.3289(4) 1.8724(4) 1.4204(3)
C7A C -0.6526(7) 1.3264(6) 1.0267(6)
H9A H -0.6390 1.3422 1.1002
H10A H -0.5685 1.3258 1.0111
O9A O -1.1330(4) 1.7829(3) 1.4960(3)
C8A C -0.6732(7) 1.1383(6) 0.9706(5)
O10A O -1.1738(4) 1.8664(4) 1.6994(3)
C9A C -0.7454(6) 1.0345(6) 0.9067(5)
C10A C -0.8676(7) 1.0154(6) 0.8454(5)
H11A H -0.9149 1.0708 0.8422
O11A O -1.1242(4) 1.9143(4) 1.3713(4)
O12A O -1.3301(5) 2.0174(4) 1.2995(4)
C11A C -0.7269(7) 0.8605(6) 0.8565(6)
H12A H -0.6797 0.8052 0.8594
O13A O -1.1161(5) 2.1282(4) 1.4388(4)
C12A C -0.8515(8) 0.8421(7) 0.7939(6)
H13A H -0.8859 0.7745 0.7547
O14A O -1.3477(4) 2.0803(4) 1.4977(3)
C13A C -0.6877(7) 1.6938(6) 1.5275(6)
H14A H -0.6620 1.7348 1.5952
O15A O -1.1725(5) 2.2181(4) 1.6704(4)
O16A O -1.4211(5) 2.1696(4) 1.6736(4)
O17A O -1.2163(4) 2.0754(4) 1.7665(3)
O18A O -1.3788(4) 1.9497(3) 1.6230(3)
O19A O -1.1794(5) 1.9611(4) 1.9045(4)
O20A O -1.3727(5) 1.8172(4) 1.7528(4)
O21A O -1.3452(4) 1.7330(4) 1.5506(3)
O22A O -1.1568(5) 1.6492(4) 1.6162(4)
O23A O -1.3737(5) 1.6084(4) 1.6906(4)
O24A O -1.3495(5) 1.5171(4) 1.4555(4)
O25A O -1.3073(4) 1.6621(4) 1.3591(4)
O26A O -1.3131(5) 1.7693(4) 1.2173(4)
O27A O -1.1542(5) 1.7221(4) 1.8200(4)
Cu2_2 Cu -1.5000 2.0000 2.0000
Cu2_3 Cu 0.5000 0.0000 0.0000
O6_2 O -0.5827(5) 0.9854(4) 1.1510(4)
O6A_2 O -0.4173(5) 1.0146(4) 0.8490(4)
O28 O -0.0110(7) 0.7586(6) 1.1283(5)
O29 O -0.5964(7) 0.7467(6) 1.1095(6)
O30 O 0.1837(8) 0.6772(6) 0.9607(6)
O31 O -0.5049(8) 0.4333(6) 0.8245(6)
O32 O -0.3938(8) 1.3518(7) 1.2561(7)
loop_
_geom_bond_atom_site_label_1
_geom_bond_atom_site_label_2
_geom_bond_site_symmetry_1
_geom_bond_site_symmetry_2
Cr1 O7 1_555 1_555
Mo1 O7 1_555 1_555
Cu1 O1 1_555 1_555
O1 Mo3 1_555 1_555
C1 H1 1_555 1_555
N1 Cu1 1_555 1_555
O2 Cu1 1_555 1_555
Mo2 O7 1_555 1_555
O3 Cu1 1_555 1_555
C2 H2 1_555 1_555
N2 C2 1_555 1_555
Cu2 N3 1_555 1_555
Mo3 O8 1_555 1_555
N3 C9 1_555 1_555
O4 Cu1 1_555 1_555
C3 N1 1_555 1_555
Mo4 O3 1_555 1_555
O5 Cu2 1_555 1_555
N4 C10 1_555 1_555
C4 O4 1_555 1_555
Mo5 O6 1_555 1_555
N5 H3 1_555 1_555
C5 H4 1_555 1_555
H5 C5 1_555 1_555
O6 Cu2_3 1_555 1_555
Mo6 O10 1_555 1_555
N6 C4 1_555 1_555
H6 N6 1_555 1_555
C6 C5 1_555 1_555
H7 C6 1_555 1_555
H8 C6 1_555 1_555
O8 Cr1 1_555 1_555
C7 N5 1_555 1_555
H9 C7 1_555 1_555
H10 C7 1_555 1_555
O9 Cr1 1_555 1_555
C8 O5 1_555 1_555
O10 Cr1 1_555 1_555
C9 C8 1_555 1_555
C10 C9 1_555 1_555
H11 C10 1_555 1_555
O11 Mo2 1_555 1_555
O12 Mo2 1_555 1_555
C11 N3 1_555 1_555
H12 C11 1_555 1_555
O13 Mo2 1_555 1_555
C12 N4 1_555 1_555
H13 C12 1_555 1_555
O14 Mo1 1_555 1_555
C13 C1 1_555 1_555
H14 C13 1_555 1_555
O15 Mo1 1_555 1_555
O16 Mo1 1_555 1_555
O17 Mo1 1_555 1_555
O18 Cr1 1_555 1_555
O19 Mo5 1_555 1_555
O20 Mo5 1_555 1_555
O21 Cr1 1_555 1_555
O22 Mo4 1_555 1_555
O23 Mo6 1_555 1_555
O24 Mo4 1_555 1_555
O25 Mo3 1_555 1_555
O26 Mo3 1_555 1_555
O27 Mo6 1_555 1_555
Cr1A O7A 1_555 1_555
Mo1A O7A 1_555 1_555
Cu1A O1A 1_555 1_555
O1A Mo3A 1_555 1_555
C1A H1A 1_555 1_555
N1A Cu1A 1_555 1_555
O2A Cu1A 1_555 1_555
Mo2A O7A 1_555 1_555
O3A Cu1A 1_555 1_555
C2A H2A 1_555 1_555
N2A C2A 1_555 1_555
Mo3A O8A 1_555 1_555
N3A Cu2 1_555 1_555
O4A Cu1A 1_555 1_555
C3A N1A 1_555 1_555
Mo4A O3A 1_555 1_555
O5A Cu2 1_555 1_555
N4A C10A 1_555 1_555
C4A O4A 1_555 1_555
Mo5A O6A 1_555 1_555
N5A H3A 1_555 1_555
C5A H4A 1_555 1_555
H5A C5A 1_555 1_555
O6A Cu2_2 1_555 1_555
Mo6A O10A 1_555 1_555
N6A C4A 1_555 1_555
H6A N6A 1_555 1_555
C6A C5A 1_555 1_555
H7A C6A 1_555 1_555
H8A C6A 1_555 1_555
O8A Cr1A 1_555 1_555
C7A N5A 1_555 1_555
H9A C7A 1_555 1_555
H10A C7A 1_555 1_555
O9A Cr1A 1_555 1_555
C8A O5A 1_555 1_555
O10A Cr1A 1_555 1_555
C9A N3A 1_555 1_555
C10A C9A 1_555 1_555
H11A C10A 1_555 1_555
O11A Mo2A 1_555 1_555
O12A Mo2A 1_555 1_555
C11A N3A 1_555 1_555
H12A C11A 1_555 1_555
O13A Mo2A 1_555 1_555
C12A N4A 1_555 1_555
H13A C12A 1_555 1_555
O14A Mo1A 1_555 1_555
C13A C1A 1_555 1_555
H14A C13A 1_555 1_555
O15A Mo1A 1_555 1_555
O16A Mo1A 1_555 1_555
O17A Mo1A 1_555 1_555
O18A Cr1A 1_555 1_555
O19A Mo5A 1_555 1_555
O20A Mo5A 1_555 1_555
O21A Cr1A 1_555 1_555
O22A Mo4A 1_555 1_555
O23A Mo6A 1_555 1_555
O24A Mo4A 1_555 1_555
O25A Mo3A 1_555 1_555
O26A Mo3A 1_555 1_555
O27A Mo6A 1_555 1_555
O6_2 Cu2 1_555 1_555
O6A_2 Cu2 1_555 1_555
Mo1 O18 1_555 1_555
C1 N1 1_555 1_555
Mo2 O8 1_555 1_555
Mo2 O14 1_555 1_555
C2 C3 1_555 1_555
N2 C13 1_555 1_555
Mo3 O9 1_555 1_555
Mo3 O11 1_555 1_555
C3 C4 1_555 1_555
Mo4 O9 1_555 1_555
Mo4 O21 1_555 1_555
Mo4 O25 1_555 1_555
Mo5 O10 1_555 1_555
Mo5 O17 1_555 1_555
Mo5 O18 1_555 1_555
N5 C8 1_555 1_555
C5 N6 1_555 1_555
Mo6 O20 1_555 1_555
Mo6 O21 1_555 1_555
Mo6 O22 1_555 1_555
C6 C7 1_555 1_555
C11 C12 1_555 1_555
Mo1A O18A 1_555 1_555
C1A N1A 1_555 1_555
Mo2A O8A 1_555 1_555
Mo2A O14A 1_555 1_555
C2A C3A 1_555 1_555
N2A C13A 1_555 1_555
Mo3A O9A 1_555 1_555
Mo3A O11A 1_555 1_555
C3A C4A 1_555 1_555
Mo4A O9A 1_555 1_555
Mo4A O21A 1_555 1_555
Mo4A O25A 1_555 1_555
Mo5A O10A 1_555 1_555
Mo5A O17A 1_555 1_555
Mo5A O18A 1_555 1_555
N5A C8A 1_555 1_555
C5A N6A 1_555 1_555
Mo6A O20A 1_555 1_555
Mo6A O21A 1_555 1_555
Mo6A O22A 1_555 1_555
C6A C7A 1_555 1_555
C8A C9A 1_555 1_555
C11A C12A 1_555 1_555

#END
