
#######################################################################
#
#                 Cambridge Crystallographic Data Centre
#                                CCDC 
#
#######################################################################
#
# If this CIF has been generated from an entry in the Cambridge 
# Structural Database, then it will include bibliographic, chemical, 
# crystal, experimental, refinement or atomic coordinate data resulting 
# from the CCDC's data processing and validation procedures.
#
#######################################################################

data_YUFPAS
_symmetry_cell_setting           triclinic
_symmetry_space_group_name_H-M   'P -1'
_symmetry_Int_Tables_number      2
_space_group_name_Hall           '-P 1'
loop_
_symmetry_equiv_pos_site_id
_symmetry_equiv_pos_as_xyz
1 x,y,z
2 -x,-y,-z
_cell_length_a                   11.4981(11)
_cell_length_b                   11.7035(11)
_cell_length_c                   13.2243(13)
_cell_angle_alpha                64.013(2)
_cell_angle_beta                 89.207(2)
_cell_angle_gamma                83.681(2)
_cell_volume                     1588.75
loop_
_atom_site_label
_atom_site_type_symbol
_atom_site_fract_x
_atom_site_fract_y
_atom_site_fract_z
Cu1 Cu -0.5000 0.5000 -0.5000
O23 O -0.4534(7) 0.5006(6) -0.3592(6)
C1 C -0.4972(8) 0.2888(9) -0.2930(8)
N1 N 0.1226(14) 0.0948(8) 0.0250(8)
O24 O -0.3022(8) 0.4796(9) -0.5569(10)
C2 C -0.5411(8) 0.2292(9) -0.4291(9)
H1 H -0.5526 0.2481 -0.5045
N2 N -0.5390(8) 0.0781(8) -0.2414(9)
Cu2 Cu 0.0000 0.0000 0.0000
O25 O -0.0898(10) 0.1690(7) -0.0668(6)
N3 N -0.5131(6) 0.3194(7) -0.4026(7)
N4 N -0.0809(10) 0.3761(8) -0.1082(9)
N5 N -0.4453(10) 0.3838(10) -0.1709(8)
C3 C -0.4646(9) 0.3997(10) -0.2736(9)
C4 C -0.2844(13) 0.4453(13) -0.0898(11)
H2 H -0.2629 0.5123 -0.0718
H3 H -0.2848 0.3682 -0.0197
N6 N 0.2787(12) 0.2598(11) 0.0182(9)
C5 C 0.1703(15) 0.2994(11) -0.0236(10)
H4 H 0.1471 0.3871 -0.0563
C6 C -0.1964(12) 0.4222(11) -0.1611(9)
H5 H -0.2214 0.3602 -0.1839
H6 H -0.1922 0.5013 -0.2286
C7 C -0.5124(10) 0.1686(11) -0.2122(10)
H7 H -0.5041 0.1498 -0.1365
C8 C -0.0342(14) 0.2567(10) -0.0676(8)
C9 C -0.4063(14) 0.4839(14) -0.1436(12)
H8 H -0.4604 0.4989 -0.0926
H9 H -0.4074 0.5632 -0.2119
C10 C 0.0884(15) 0.2208(9) -0.0226(9)
C11 C 0.3069(17) 0.1365(14) 0.0644(10)
H10 H 0.3818 0.1042 0.0966
C12 C 0.231(2) 0.0505(13) 0.0681(11)
H11 H 0.2560 -0.0368 0.1002
C13 C -0.5537(9) 0.1087(10) -0.3483(10)
H12 H -0.5731 0.0473 -0.3700
O23A O -0.5466(7) 0.4994(6) -0.6408(6)
C1A C -0.5028(8) 0.7112(9) -0.7070(8)
N1A N -1.1226(14) 0.9052(8) -1.0250(8)
O24A O -0.6978(8) 0.5204(9) -0.4431(10)
C2A C -0.4589(8) 0.7708(9) -0.5709(9)
H1A H -0.4474 0.7519 -0.4955
N2A N -0.4610(8) 0.9219(8) -0.7586(9)
O25A O -0.9102(10) 0.8310(7) -0.9332(6)
N3A N -0.4869(6) 0.6806(7) -0.5974(7)
N4A N -0.9191(10) 0.6239(8) -0.8918(9)
N5A N -0.5547(10) 0.6162(10) -0.8291(8)
C3A C -0.5354(9) 0.6003(10) -0.7264(9)
C4A C -0.7156(13) 0.5547(13) -0.9102(11)
H2A H -0.7371 0.4877 -0.9282
H3A H -0.7152 0.6318 -0.9803
N6A N -1.2787(12) 0.7402(11) -1.0182(9)
C5A C -1.1703(15) 0.7006(11) -0.9764(10)
H4A H -1.1471 0.6129 -0.9437
C6A C -0.8036(12) 0.5778(11) -0.8389(9)
H5A H -0.7786 0.6398 -0.8161
H6A H -0.8078 0.4987 -0.7714
C7A C -0.4876(10) 0.8314(11) -0.7878(10)
H7A H -0.4959 0.8502 -0.8635
C8A C -0.9658(14) 0.7433(10) -0.9324(8)
C9A C -0.5937(14) 0.5161(14) -0.8564(12)
H8A H -0.5396 0.5011 -0.9074
H9A H -0.5926 0.4368 -0.7881
C10A C -1.0884(15) 0.7792(9) -0.9774(9)
C11A C -1.3069(17) 0.8635(14) -1.0644(10)
H10A H -1.3818 0.8958 -1.0966
C12A C -1.231(2) 0.9495(13) -1.0681(11)
H11A H -1.2560 1.0368 -1.1002
C13A C -0.4463(9) 0.8913(10) -0.6517(10)
H12A H -0.4269 0.9527 -0.6300
N1A_2 N -0.1226(14) -0.0948(8) -0.0250(8)
Cu2_2 Cu -1.0000 1.0000 -1.0000
O25A_2 O 0.0898(10) -0.1690(7) 0.0668(6)
O26 O -0.3939(10) 0.1427(12) 0.0275(9)
P1 P 0.0000 0.0000 0.5000
Mo1 Mo -0.13011(7) -0.01418(7) 0.26431(6)
Mo2 Mo 0.01877(7) -0.27089(6) 0.76388(6)
Mo3 Mo -0.27438(6) 0.17541(7) 0.38645(6)
O1 O 0.0545(7) -0.2876(8) 0.4503(9)
Mo4 Mo 0.15564(8) -0.16398(8) 0.36224(8)
O2 O -0.0720(9) 0.0744(9) 0.4001(8)
Mo5 Mo -0.08745(8) -0.28678(8) 0.52155(8)
O3 O -0.1366(7) -0.2143(10) 0.7520(9)
Mo6 Mo -0.26002(7) -0.11341(9) 0.63715(7)
O4 O -0.2271(7) -0.2229(10) 0.5756(8)
O5 O -0.3193(10) 0.0185(7) 0.5036(6)
O6 O 0.2301(10) -0.0178(7) 0.3153(6)
O7 O 0.0303(7) -0.4044(6) 0.8860(6)
O8 O -0.1825(7) -0.0136(8) 0.1476(6)
O9 O -0.3778(6) -0.1611(7) 0.7081(6)
O10 O 0.2490(10) -0.2279(7) 0.5036(6)
O11 O -0.0621(6) 0.1533(6) 0.1939(6)
O12 O -0.2503(6) 0.0747(7) 0.3021(6)
O13 O -0.1546(7) -0.1679(8) 0.3710(8)
O14 O -0.4051(6) 0.2548(8) 0.3336(10)
O15 O -0.1738(6) 0.2826(7) 0.2904(7)
O16 O 0.0323(7) -0.0758(8) 0.2606(10)
O17 O 0.2314(6) -0.2435(7) 0.3011(6)
O18 O -0.0126(8) -0.0786(9) 0.4292(8)
O19 O 0.1238(9) -0.0442(10) 0.4799(8)
O20 O 0.0543(9) 0.1205(9) 0.4166(9)
O21 O -0.1346(8) -0.4346(9) 0.5320(8)
O22 O -0.0167(7) -0.3490(10) 0.6650(8)
O2A O 0.0720(9) -0.0744(9) 0.5999(8)
O18A O 0.0126(8) 0.0786(9) 0.5708(8)
O19A O -0.1238(9) 0.0442(10) 0.5201(8)
O20A O -0.0543(9) -0.1205(9) 0.5834(9)
Mo1A Mo 0.13011(7) 0.01418(7) 0.73569(6)
Mo2A Mo -0.01877(7) 0.27089(6) 0.23612(6)
Mo3A Mo 0.27438(6) -0.17541(7) 0.61355(6)
O1A O -0.0545(7) 0.2876(8) 0.5497(9)
Mo4A Mo -0.15564(8) 0.16398(8) 0.63776(8)
Mo5A Mo 0.08745(8) 0.28678(8) 0.47845(8)
O3A O 0.1366(7) 0.2143(10) 0.2480(9)
Mo6A Mo 0.26002(7) 0.11341(9) 0.36285(7)
O4A O 0.2271(7) 0.2229(10) 0.4244(8)
O5A O 0.3193(10) -0.0185(7) 0.4964(6)
O6A O -0.2301(10) 0.0178(7) 0.6847(6)
O7A O -0.0303(7) 0.4044(6) 0.1140(6)
O8A O 0.1825(7) 0.0136(8) 0.8524(6)
O9A O 0.3778(6) 0.1611(7) 0.2919(6)
O10A O -0.2490(10) 0.2279(7) 0.4964(6)
O11A O 0.0621(6) -0.1533(6) 0.8061(6)
O12A O 0.2503(6) -0.0747(7) 0.6979(6)
O13A O 0.1546(7) 0.1679(8) 0.6290(8)
O14A O 0.4051(6) -0.2548(8) 0.6664(10)
O15A O 0.1738(6) -0.2826(7) 0.7096(7)
O16A O -0.0323(7) 0.0758(8) 0.7394(10)
O17A O -0.2314(6) 0.2435(7) 0.6989(6)
O21A O 0.1346(8) 0.4346(9) 0.4680(8)
O22A O 0.0167(7) 0.3490(10) 0.3350(8)
loop_
_geom_bond_atom_site_label_1
_geom_bond_atom_site_label_2
_geom_bond_site_symmetry_1
_geom_bond_site_symmetry_2
P1 O2 1_555 1_555
Mo1 O2 1_555 1_555
Mo2 O3 1_555 1_555
Mo3 O2 1_555 1_555
O1 Mo4 1_555 1_555
Mo4 O6 1_555 1_555
O2 O18 1_555 1_555
Mo5 O1 1_555 1_555
O3 Mo6 1_555 1_555
Mo6 O4 1_555 1_555
O4 Mo5 1_555 1_555
O5 Mo3 1_555 1_555
O6 Mo6A 1_555 1_555
O7 Mo2 1_555 1_555
O8 Mo1 1_555 1_555
O9 Mo6 1_555 1_555
O10 Mo4 1_555 1_555
O11 Mo1 1_555 1_555
O12 Mo1 1_555 1_555
O13 Mo1 1_555 1_555
O14 Mo3 1_555 1_555
O15 Mo3 1_555 1_555
O16 Mo1 1_555 1_555
O17 Mo4 1_555 1_555
O18 P1 1_555 1_555
O19 P1 1_555 1_555
O20 P1 1_555 1_555
O21 Mo5 1_555 1_555
O22 Mo2 1_555 1_555
Cu1 O23 1_555 1_555
O23 C3 1_555 1_555
C1 N3 1_555 1_555
N1 Cu2 1_555 1_555
O24 Cu1 1_555 1_555
C2 H1 1_555 1_555
N2 C7 1_555 1_555
Cu2 O25 1_555 1_555
O25 C8 1_555 1_555
N3 Cu1 1_555 1_555
N4 C6 1_555 1_555
N5 C3 1_555 1_555
C3 C1 1_555 1_555
C4 H2 1_555 1_555
H3 C4 1_555 1_555
N6 C5 1_555 1_555
C5 H4 1_555 1_555
C6 C4 1_555 1_555
H5 C6 1_555 1_555
H6 C6 1_555 1_555
C7 C1 1_555 1_555
H7 C7 1_555 1_555
C8 N4 1_555 1_555
C9 N5 1_555 1_555
H8 C9 1_555 1_555
H9 C9 1_555 1_555
C10 N1 1_555 1_555
C11 N6 1_555 1_555
H10 C11 1_555 1_555
C12 N1 1_555 1_555
H11 C12 1_555 1_555
C13 C2 1_555 1_555
H12 C13 1_555 1_555
O2A P1 1_555 1_555
O18A P1 1_555 1_555
O19A P1 1_555 1_555
O20A P1 1_555 1_555
Mo1A O2A 1_555 1_555
Mo2A O2 1_555 1_555
Mo3A O10 1_555 1_555
O1A Mo4A 1_555 1_555
Mo4A O18A 1_555 1_555
Mo5A O20 1_555 1_555
O3A Mo2A 1_555 1_555
Mo6A O19 1_555 1_555
O4A Mo5A 1_555 1_555
O5A Mo3A 1_555 1_555
O6A Mo6 1_555 1_555
O7A Mo2A 1_555 1_555
O8A Mo1A 1_555 1_555
O9A Mo6A 1_555 1_555
O10A Mo3 1_555 1_555
O11A Mo2 1_555 1_555
O12A Mo1A 1_555 1_555
O13A Mo1A 1_555 1_555
O14A Mo3A 1_555 1_555
O15A Mo2 1_555 1_555
O16A Mo1A 1_555 1_555
O17A Mo4A 1_555 1_555
O21A Mo5A 1_555 1_555
O22A Mo2A 1_555 1_555
O23A Cu1 1_555 1_555
C1A N3A 1_555 1_555
N1A C10A 1_555 1_555
O24A Cu1 1_555 1_555
C2A H1A 1_555 1_555
N2A C7A 1_555 1_555
O25A C8A 1_555 1_555
N3A Cu1 1_555 1_555
N4A C6A 1_555 1_555
N5A C3A 1_555 1_555
C3A O23A 1_555 1_555
C4A H2A 1_555 1_555
H3A C4A 1_555 1_555
N6A C5A 1_555 1_555
C5A H4A 1_555 1_555
C6A C4A 1_555 1_555
H5A C6A 1_555 1_555
H6A C6A 1_555 1_555
C7A C1A 1_555 1_555
H7A C7A 1_555 1_555
C8A N4A 1_555 1_555
C9A N5A 1_555 1_555
H8A C9A 1_555 1_555
H9A C9A 1_555 1_555
C10A C5A 1_555 1_555
C11A N6A 1_555 1_555
H10A C11A 1_555 1_555
C12A N1A 1_555 1_555
H11A C12A 1_555 1_555
C13A C2A 1_555 1_555
H12A C13A 1_555 1_555
N1A_2 Cu2 1_555 1_555
Cu2_2 N1A 1_555 1_555
O25A_2 Cu2 1_555 1_555
Mo1 O18 1_555 1_555
Mo2 O2A 1_555 1_555
Mo2 O20A 1_555 1_555
Mo3 O12 1_555 1_555
Mo3 O19A 1_555 1_555
Mo4 O16 1_555 1_555
Mo4 O18 1_555 1_555
Mo4 O19 1_555 1_555
O2 O20 1_555 1_555
O2 O19A 1_555 1_555
Mo5 O13 1_555 1_555
Mo5 O18 1_555 1_555
Mo5 O22 1_555 1_555
Mo5 O20A 1_555 1_555
Mo6 O5 1_555 1_555
Mo6 O19A 1_555 1_555
Mo6 O20A 1_555 1_555
O11 Mo2A 1_555 1_555
O15 Mo2A 1_555 1_555
O19 O2A 1_555 1_555
O19 Mo3A 1_555 1_555
O20 Mo2A 1_555 1_555
O20 Mo6A 1_555 1_555
C2 N3 1_555 1_555
N2 C13 1_555 1_555
C4 C9 1_555 1_555
C5 C10 1_555 1_555
C8 C10 1_555 1_555
C11 C12 1_555 1_555
O2A O18A 1_555 1_555
O2A O20A 1_555 1_555
O2A Mo3A 1_555 1_555
O18A Mo1A 1_555 1_555
O18A Mo5A 1_555 1_555
O19A Mo4A 1_555 1_555
Mo1A O11A 1_555 1_555
Mo3A O12A 1_555 1_555
Mo3A O15A 1_555 1_555
O1A Mo5A 1_555 1_555
Mo4A O6A 1_555 1_555
Mo4A O10A 1_555 1_555
Mo4A O16A 1_555 1_555
Mo5A O13A 1_555 1_555
Mo5A O22A 1_555 1_555
O3A Mo6A 1_555 1_555
Mo6A O4A 1_555 1_555
Mo6A O5A 1_555 1_555
C1A C3A 1_555 1_555
C2A N3A 1_555 1_555
N2A C13A 1_555 1_555
O25A Cu2_2 1_555 1_555
C4A C9A 1_555 1_555
C8A C10A 1_555 1_555
C11A C12A 1_555 1_555

#END
