
#######################################################################
#
#                 Cambridge Crystallographic Data Centre
#                                CCDC 
#
#######################################################################
#
# If this CIF has been generated from an entry in the Cambridge 
# Structural Database, then it will include bibliographic, chemical, 
# crystal, experimental, refinement or atomic coordinate data resulting 
# from the CCDC's data processing and validation procedures.
#
#######################################################################

data_YUFTEA
_symmetry_cell_setting           monoclinic
_symmetry_space_group_name_H-M   'P 21/c'
_symmetry_Int_Tables_number      14
_space_group_name_Hall           '-P 2ybc'
loop_
_symmetry_equiv_pos_site_id
_symmetry_equiv_pos_as_xyz
1 x,y,z
2 -x,1/2+y,1/2-z
3 -x,-y,-z
4 x,1/2-y,1/2+z
_cell_length_a                   18.4415(10)
_cell_length_b                   13.8306(7)
_cell_length_c                   22.1185(13)
_cell_angle_alpha                90
_cell_angle_beta                 104.150(4)
_cell_angle_gamma                90
_cell_volume                     5470.31
loop_
_atom_site_label
_atom_site_type_symbol
_atom_site_fract_x
_atom_site_fract_y
_atom_site_fract_z
C1 C 0.9531(5) 0.9792(6) 0.8700(4)
C2 C 0.6360(6) 0.4206(7) 0.9312(5)
H1 H 0.6494 0.3606 0.9150
H2 H 0.5829 0.4226 0.9265
H3 H 0.6609 0.4258 0.9746
C3 C 0.6981(5) 0.6562(7) 0.5901(5)
H4 H 0.6683 0.6114 0.5639
C4 C 0.8211(5) 0.4302(8) 0.7320(5)
H5 H 0.8097 0.3625 0.7327
H6 H 0.8599 0.4396 0.7104
H7 H 0.7772 0.4649 0.7109
C5 C 0.6857(5) 1.3072(6) 0.7925(5)
C6 C 0.7451(5) 0.6595(6) 0.9888(5)
H8 H 0.7025 0.6868 0.9599
H9 H 0.7720 0.7098 1.0148
H10 H 0.7286 0.6122 1.0143
C7 C 0.8678(5) 0.7272(6) 0.8176(5)
C8 C 0.9725(5) 0.9283(6) 0.7290(4)
C9 C 0.6209(5) 0.9378(7) 0.6144(5)
H11 H 0.6291 0.9411 0.5732
H12 H 0.6117 1.0016 0.6279
H13 H 0.5783 0.8975 0.6138
C10 C 0.5656(5) 0.9813(7) 0.9449(4)
H14 H 0.5459 0.9524 0.9754
C11 C 0.8129(5) 1.0439(6) 0.6012(5)
H15 H 0.7826 1.0398 0.5593
H16 H 0.8226 0.9800 0.6183
H17 H 0.8593 1.0752 0.6012
C12 C 0.8365(5) 1.1812(7) 0.8962(5)
H18 H 0.8499 1.1760 0.9408
H19 H 0.7831 1.1856 0.8817
H20 H 0.8590 1.2382 0.8839
C13 C 0.8163(5) 0.7006(6) 0.6591(5)
C14 C 0.8945(5) 0.6752(6) 0.6807(4)
H21 H 0.9114 0.6214 0.6630
C15 C 0.7616(5) 0.8763(6) 0.9013(5)
H22 H 0.7752 0.8935 0.9447
H23 H 0.8060 0.8652 0.8870
H24 H 0.7318 0.8186 0.8959
C16 C 0.6239(5) 1.0685(6) 0.8523(4)
C17 C 0.5914(5) 1.3469(6) 0.6489(5)
H25 H 0.5696 1.4039 0.6307
C18 C 0.7190(6) 1.3194(7) 0.5433(5)
H26 H 0.7293 1.3522 0.5097
C19 C 0.6295(5) 0.9418(6) 0.9294(4)
H27 H 0.6523 0.8868 0.9497
C20 C 0.5270(6) 1.1100(6) 0.7004(5)
C21 C 0.9346(5) 1.0686(6) 0.8953(4)
C22 C 0.6900(5) 1.2202(6) 0.6470(4)
C23 C 0.5253(5) 1.1968(6) 0.8423(5)
H28 H 0.4895 1.2230 0.8607
C24 C 0.9857(5) 1.1182(6) 0.9400(5)
H29 H 0.9724 1.1765 0.9552
C25 C 1.0588(5) 1.0807(6) 0.9630(5)
H30 H 1.0936 1.1135 0.9937
C26 C 0.4957(5) 1.3502(7) 0.7087(5)
H31 H 0.4891 1.4180 0.6977
H32 H 0.4520 1.3152 0.6857
C27 C 0.6570(5) 0.9846(6) 0.8848(4)
C28 C 0.7422(5) 1.1843(6) 0.6139(4)
C29 C 0.5592(5) 1.1079(6) 0.8679(4)
C30 C 0.6515(5) 1.3086(6) 0.6248(4)
C31 C 0.6695(5) 1.3564(7) 0.5740(5)
H33 H 0.6467 1.4153 0.5609
C32 C 1.0481(5) 0.7085(6) 0.8099(5)
H34 H 1.0295 0.6553 0.8305
H35 H 1.1023 0.7082 0.8231
C33 C 0.5331(5) 1.0617(6) 0.9149(5)
H36 H 0.4916 1.0874 0.9260
C34 C 0.7543(5) 1.2305(6) 0.5635(5)
H37 H 0.7865 1.2033 0.5417
C35 C 0.7702(5) 0.6345(6) 0.6164(5)
H38 H 0.7901 0.5763 0.6069
C36 C 1.0267(5) 0.9442(5) 0.8928(4)
C37 C 1.0237(5) 0.6959(7) 0.7409(5)
H39 H 1.0316 0.6297 0.7295
H40 H 1.0519 0.7385 0.7202
C38 C 0.5039(5) 1.3380(6) 0.7764(5)
H41 H 0.4552 1.3410 0.7856
H42 H 0.5345 1.3898 0.7989
C39 C 1.0770(5) 0.9959(6) 0.9394(5)
H43 H 1.1249 0.9712 0.9548
C40 C 0.7854(5) 0.7890(6) 0.6731(4)
C41 C 1.0534(5) 0.8543(6) 0.8730(5)
H44 H 1.1001 0.8329 0.8953
C42 C 0.7098(5) 0.8097(5) 0.6418(4)
C43 C 0.6671(6) 0.7448(6) 0.6013(5)
H45 H 0.6178 0.7595 0.5815
N1 N 0.8442(4) 0.6631(5) 0.8400(4)
N2 N 0.7188(4) 1.3710(5) 0.8176(4)
N3 N 0.8776(5) 0.4190(5) 0.9591(4)
N4 N 0.6691(4) 0.6471(6) 0.7782(5)
N5 N 0.5648(4) 1.3118(5) 0.6922(4)
N6 N 0.5394(4) 1.2438(5) 0.7965(4)
N7 N 1.0188(4) 0.8016(5) 0.8278(3)
N8 N 0.9414(4) 0.7209(5) 0.7219(4)
N9 N 0.4775(4) 1.0663(5) 0.6713(4)
N10 N 1.0066(4) 0.9806(5) 0.7059(4)
O1 O 0.8996(3) 0.9362(4) 0.8298(3)
O2 O 0.7925(3) 0.6149(5) 0.9555(3)
H46 H 0.8362 0.6251 0.9734
O3 O 0.8214(3) 0.8553(4) 0.7099(3)
O4 O 0.6855(3) 0.8980(4) 0.6564(3)
O5 O 0.8624(3) 1.0982(4) 0.8698(3)
O6 O 0.7197(3) 0.9530(4) 0.8664(3)
O7 O 0.6763(3) 1.1657(4) 0.6910(3)
O8 O 0.6557(3) 1.1026(4) 0.8096(3)
O9 O 0.8996(3) 0.4838(4) 0.9271(3)
O10 O 0.8075(3) 0.4010(4) 0.9452(3)
O11 O 0.6846(3) 0.6620(4) 0.8361(4)
O12 O 0.6931(4) 0.5676(5) 0.7608(3)
O13 O 0.9206(4) 0.3742(5) 1.0003(4)
O14 O 0.6322(4) 0.7041(6) 0.7410(4)
O15 O 0.7739(3) 1.0989(4) 0.6386(3)
O16 O 0.6580(3) 0.4993(4) 0.8977(3)
H47 H 0.6214 0.5201 0.8721
O17 O 0.8460(3) 0.4652(5) 0.7946(3)
H48 H 0.8108 0.4900 0.8054
Ru1 Ru 0.91836(4) 0.83042(4) 0.77280(4)
Ru2 Ru 0.60962(4) 1.20409(4) 0.74704(4)
Tb1 Tb 0.77093(2) 0.52463(3) 0.86174(2)
K1 K 0.76350(10) 1.01469(14) 0.75874(9)
N2_2 N 0.7188(4) 0.3710(5) 0.8176(4)
Tb1_2 Tb 0.77093(2) 1.52463(3) 0.86174(2)
C44 C 0.9464(6) 0.8621(8) 0.5749(6)
H49 H 0.9924 0.8329 0.5972
H50 H 0.9066 0.8418 0.5929
H51 H 0.9511 0.9312 0.5774
O18 O 0.9307(4) 0.8332(5) 0.5118(4)
H52 H 0.9088 0.7810 0.5078
C45 C 0.4966(10) 0.3278(11) 0.0393(6)
H53 H 0.5388 0.3302 0.0747
H54 H 0.4549 0.2989 0.0512
H55 H 0.4837 0.3923 0.0243
O19 O 0.5145(7) 0.2736(10) -0.0072(6)
H56 H 0.4839 0.2839 -0.0403
loop_
_geom_bond_atom_site_label_1
_geom_bond_atom_site_label_2
_geom_bond_site_symmetry_1
_geom_bond_site_symmetry_2
C1 C21 1_555 1_555
C2 H1 1_555 1_555
H2 C2 1_555 1_555
H3 C2 1_555 1_555
C3 H4 1_555 1_555
C4 H5 1_555 1_555
H6 C4 1_555 1_555
H7 C4 1_555 1_555
C5 N2 1_555 1_555
C6 H8 1_555 1_555
H9 C6 1_555 1_555
H10 C6 1_555 1_555
C7 N1 1_555 1_555
C8 N10 1_555 1_555
C9 H11 1_555 1_555
H12 C9 1_555 1_555
H13 C9 1_555 1_555
C10 H14 1_555 1_555
C11 H15 1_555 1_555
H16 C11 1_555 1_555
H17 C11 1_555 1_555
C12 H18 1_555 1_555
H19 C12 1_555 1_555
H20 C12 1_555 1_555
C13 C14 1_555 1_555
C14 H21 1_555 1_555
C15 H22 1_555 1_555
H23 C15 1_555 1_555
H24 C15 1_555 1_555
C16 C27 1_555 1_555
C17 H25 1_555 1_555
C18 H26 1_555 1_555
C19 C10 1_555 1_555
H27 C19 1_555 1_555
C20 N9 1_555 1_555
C21 C24 1_555 1_555
C22 C28 1_555 1_555
C23 H28 1_555 1_555
C24 H29 1_555 1_555
C25 C24 1_555 1_555
H30 C25 1_555 1_555
C26 H31 1_555 1_555
H32 C26 1_555 1_555
C27 C19 1_555 1_555
C28 C34 1_555 1_555
C29 C16 1_555 1_555
C30 C17 1_555 1_555
C31 C18 1_555 1_555
H33 C31 1_555 1_555
C32 H34 1_555 1_555
H35 C32 1_555 1_555
C33 C10 1_555 1_555
H36 C33 1_555 1_555
C34 C18 1_555 1_555
H37 C34 1_555 1_555
C35 C3 1_555 1_555
H38 C35 1_555 1_555
C36 C1 1_555 1_555
C37 C32 1_555 1_555
H39 C37 1_555 1_555
H40 C37 1_555 1_555
C38 C26 1_555 1_555
H41 C38 1_555 1_555
H42 C38 1_555 1_555
C39 C25 1_555 1_555
H43 C39 1_555 1_555
C40 C13 1_555 1_555
C41 C36 1_555 1_555
H44 C41 1_555 1_555
C42 C40 1_555 1_555
C43 C3 1_555 1_555
H45 C43 1_555 1_555
N1 Tb1 1_555 1_555
N2 Tb1_2 1_555 1_555
N3 O9 1_555 1_555
N4 O11 1_555 1_555
N5 C17 1_555 1_555
N6 C23 1_555 1_555
N7 C32 1_555 1_555
N8 C14 1_555 1_555
O1 C1 1_555 1_555
O2 C6 1_555 1_555
H46 O2 1_555 1_555
O3 C40 1_555 1_555
O4 C9 1_555 1_555
O5 C12 1_555 1_555
O6 C15 1_555 1_555
O7 C22 1_555 1_555
O8 C16 1_555 1_555
O9 Tb1 1_555 1_555
O10 N3 1_555 1_555
O11 Tb1 1_555 1_555
O12 N4 1_555 1_555
O13 N3 1_555 1_555
O14 N4 1_555 1_555
O15 C11 1_555 1_555
O16 C2 1_555 1_555
H47 O16 1_555 1_555
O17 C4 1_555 1_555
H48 O17 1_555 1_555
Ru1 C7 1_555 1_555
Ru2 C5 1_555 1_555
Tb1 O2 1_555 1_555
K1 O1 1_555 1_555
C44 H49 1_555 1_555
H50 C44 1_555 1_555
H51 C44 1_555 1_555
O18 C44 1_555 1_555
H52 O18 1_555 1_555
C45 H53 1_555 1_555
H54 C45 1_555 1_555
H55 C45 1_555 1_555
O19 C45 1_555 1_555
H56 O19 1_555 1_555
N2_2 Tb1 1_555 1_555
C8 Ru1 1_555 1_555
C13 C35 1_555 1_555
C20 Ru2 1_555 1_555
C21 O5 1_555 1_555
C22 C30 1_555 1_555
C23 C29 1_555 1_555
C26 N5 1_555 1_555
C27 O6 1_555 1_555
C28 O15 1_555 1_555
C29 C33 1_555 1_555
C30 C31 1_555 1_555
C36 C39 1_555 1_555
C37 N8 1_555 1_555
C38 N6 1_555 1_555
C41 N7 1_555 1_555
C42 C43 1_555 1_555
C42 O4 1_555 1_555
N5 Ru2 1_555 1_555
N6 Ru2 1_555 1_555
N7 Ru1 1_555 1_555
N8 Ru1 1_555 1_555
O1 Ru1 1_555 1_555
O3 Ru1 1_555 1_555
O3 K1 1_555 1_555
O4 K1 1_555 1_555
O5 K1 1_555 1_555
O6 K1 1_555 1_555
O7 Ru2 1_555 1_555
O7 K1 1_555 1_555
O8 Ru2 1_555 1_555
O8 K1 1_555 1_555
O10 Tb1 1_555 1_555
O12 Tb1 1_555 1_555
O15 K1 1_555 1_555
O16 Tb1 1_555 1_555
O17 Tb1 1_555 1_555

#END
