
#######################################################################
#
#                 Cambridge Crystallographic Data Centre
#                                CCDC 
#
#######################################################################
#
# If this CIF has been generated from an entry in the Cambridge 
# Structural Database, then it will include bibliographic, chemical, 
# crystal, experimental, refinement or atomic coordinate data resulting 
# from the CCDC's data processing and validation procedures.
#
#######################################################################

data_YUGGEO
_symmetry_cell_setting           triclinic
_symmetry_space_group_name_H-M   'P -1'
_symmetry_Int_Tables_number      2
_space_group_name_Hall           '-P 1'
loop_
_symmetry_equiv_pos_site_id
_symmetry_equiv_pos_as_xyz
1 x,y,z
2 -x,-y,-z
_cell_length_a                   7.1589(12)
_cell_length_b                   10.1414(12)
_cell_length_c                   12.8984(16)
_cell_angle_alpha                67.555(12)
_cell_angle_beta                 73.912(13)
_cell_angle_gamma                78.022(12)
_cell_volume                     826.131
loop_
_atom_site_label
_atom_site_type_symbol
_atom_site_fract_x
_atom_site_fract_y
_atom_site_fract_z
Cu1 Cu 0.17827(11) 0.31367(8) 0.40858(6)
O1 O 0.1216(6) 0.2965(5) 0.5653(4)
C1 C 0.1576(8) 0.1815(7) 0.6531(5)
C2 C 0.1352(9) 0.1921(7) 0.7604(6)
H1 H 0.1020 0.2825 0.7673
C3 C 0.1596(9) 0.0758(7) 0.8561(5)
H2 H 0.1420 0.0872 0.9265
C4 C 0.2116(9) -0.0604(7) 0.8467(6)
Cl1 Cl 0.2402(3) -0.20847(18) 0.96975(14)
C5 C 0.2385(9) -0.0791(7) 0.7443(5)
H3 H 0.2737 -0.1704 0.7393
C6 C 0.2124(9) 0.0413(7) 0.6461(5)
C7 C 0.2411(8) 0.0112(6) 0.5418(5)
H4 H 0.2735 -0.0843 0.5466
C8 C 0.2585(8) 0.0642(7) 0.3458(5)
N1 N 0.2258(7) 0.1053(6) 0.4423(5)
C9 C 0.2947(9) -0.0732(7) 0.3428(6)
H5 H 0.3015 -0.1518 0.4098
C10 C 0.3215(10) -0.0939(8) 0.2371(6)
H6 H 0.3476 -0.1869 0.2354
C11 C 0.3101(10) 0.0198(8) 0.1367(6)
H7 H 0.3271 0.0039 0.0682
C12 C 0.2720(9) 0.1628(7) 0.1390(6)
C13 C 0.2614(10) 0.2870(8) 0.0372(6)
H8 H 0.2729 0.2776 -0.0333
C14 C 0.2342(10) 0.4184(7) 0.0474(6)
H9 H 0.2326 0.5006 -0.0175
C15 C 0.2087(10) 0.4312(7) 0.1546(6)
H10 H 0.1860 0.5227 0.1592
N2 N 0.2153(8) 0.3184(6) 0.2505(5)
C16 C 0.2478(9) 0.1842(7) 0.2419(5)
Cl2 Cl -0.3352(2) 0.43436(17) 0.34910(14)
O2 O -0.1948(7) 0.3858(6) 0.4213(4)
O3 O -0.4597(7) 0.3228(5) 0.3840(5)
O4 O -0.4541(7) 0.5630(5) 0.3629(5)
O5 O -0.2343(8) 0.4631(7) 0.2323(5)
O6 O 0.1671(6) 0.5264(5) 0.3634(4)
H11 H 0.266(5) 0.551(3) 0.370(5)
H12 H 0.059(4) 0.563(3) 0.394(5)
Cu1_2 Cu -0.82173(11) 0.31367(8) 0.40858(6)
O3_2 O 0.5403(7) 0.3228(5) 0.3840(5)
loop_
_geom_bond_atom_site_label_1
_geom_bond_atom_site_label_2
_geom_bond_site_symmetry_1
_geom_bond_site_symmetry_2
Cu1 O1 1_555 1_555
O1 C1 1_555 1_555
C1 C2 1_555 1_555
C2 H1 1_555 1_555
C3 C2 1_555 1_555
H2 C3 1_555 1_555
C4 C3 1_555 1_555
Cl1 C4 1_555 1_555
C5 C4 1_555 1_555
H3 C5 1_555 1_555
C6 C1 1_555 1_555
C7 C6 1_555 1_555
H4 C7 1_555 1_555
C8 N1 1_555 1_555
N1 Cu1 1_555 1_555
C9 C8 1_555 1_555
H5 C9 1_555 1_555
C10 C9 1_555 1_555
H6 C10 1_555 1_555
C11 C10 1_555 1_555
H7 C11 1_555 1_555
C12 C11 1_555 1_555
C13 C12 1_555 1_555
H8 C13 1_555 1_555
C14 C13 1_555 1_555
H9 C14 1_555 1_555
C15 C14 1_555 1_555
H10 C15 1_555 1_555
N2 Cu1 1_555 1_555
C16 C8 1_555 1_555
Cl2 O2 1_555 1_555
O2 Cu1 1_555 1_555
O3 Cl2 1_555 1_555
O4 Cl2 1_555 1_555
O5 Cl2 1_555 1_555
O6 Cu1 1_555 1_555
H11 O6 1_555 1_555
H12 O6 1_555 1_555
Cu1_2 O3 1_555 1_555
O3_2 Cu1 1_555 1_555
C5 C6 1_555 1_555
C7 N1 1_555 1_555
C12 C16 1_555 1_555
C15 N2 1_555 1_555
N2 C16 1_555 1_555

#END
