
#######################################################################
#
#                 Cambridge Crystallographic Data Centre
#                                CCDC 
#
#######################################################################
#
# If this CIF has been generated from an entry in the Cambridge 
# Structural Database, then it will include bibliographic, chemical, 
# crystal, experimental, refinement or atomic coordinate data resulting 
# from the CCDC's data processing and validation procedures.
#
#######################################################################

data_YUGLAP
_symmetry_cell_setting           monoclinic
_symmetry_space_group_name_H-M   'P 21/n'
_symmetry_Int_Tables_number      14
_space_group_name_Hall           '-P 2yn'
loop_
_symmetry_equiv_pos_site_id
_symmetry_equiv_pos_as_xyz
1 x,y,z
2 1/2-x,1/2+y,1/2-z
3 -x,-y,-z
4 1/2+x,1/2-y,1/2+z
_cell_length_a                   12.5035(10)
_cell_length_b                   13.6319(11)
_cell_length_c                   20.0171(16)
_cell_angle_alpha                90
_cell_angle_beta                 94.355(2)
_cell_angle_gamma                90
_cell_volume                     3401.99
loop_
_atom_site_label
_atom_site_type_symbol
_atom_site_fract_x
_atom_site_fract_y
_atom_site_fract_z
Si1 Si 1.0000 0.0000 0.0000
W1 W 1.05842(6) 0.18372(6) 0.12133(3)
W2 W 0.79412(7) 0.08654(6) 0.09689(4)
W3 W 1.00454(6) -0.05928(5) 0.17110(3)
W4 W 0.78361(7) 0.13527(6) -0.07563(4)
W5 W 0.73993(7) -0.10594(7) -0.01873(4)
W6 W 1.03898(6) 0.24538(6) -0.04997(5)
O1 O 0.9776(17) 0.0361(16) 0.0711(11)
O2 O 1.1296(17) -0.0252(16) -0.0040(11)
O3 O 1.1478(12) -0.0975(15) 0.1511(12)
O4 O 0.9551(13) -0.1812(17) 0.1360(12)
O5 O 0.8051(15) -0.1583(19) -0.0959(9)
O6 O 0.718(3) 0.0133(13) -0.0716(9)
O7 O 0.8157(13) -0.2013(19) 0.0332(8)
O8 O 0.759(2) 0.1520(14) 0.0160(8)
O9 O 1.0864(16) 0.2668(11) 0.1811(8)
O10 O 1.0325(13) 0.261(2) 0.0426(8)
O11 O 0.731(3) -0.0272(12) 0.0575(9)
O12 O 1.0120(15) -0.0898(17) 0.2523(8)
O13 O 1.0623(13) 0.0686(11) 0.1750(10)
O14 O 0.8903(14) 0.2387(15) -0.0609(13)
O15 O 0.6996(14) 0.1265(11) 0.1457(9)
O16 O 0.9059(11) 0.1750(10) 0.1192(9)
O17 O 1.0601(15) 0.3612(12) -0.0740(8)
O18 O 0.6169(12) -0.1559(13) -0.0296(8)
O19 O 0.8675(12) -0.0035(11) 0.1577(10)
O20 O 0.6809(12) 0.2001(11) -0.1134(7)
Ag1 Ag 0.62871(11) 0.34655(13) -0.19572(8)
Ag2 Ag 0.12261(13) 0.34708(15) -0.22441(11)
C1 C 0.3198(14) 0.3511(17) -0.1183(10)
H1 H 0.2773 0.3655 -0.0834
C2 C 0.3737(15) 0.3228(14) -0.2129(9)
H2 H 0.3736 0.3117 -0.2587
C3 C 0.5026(18) 0.3539(19) -0.0536(10)
H3 H 0.5387 0.2919 -0.0443
H4 H 0.4632 0.3704 -0.0152
C4 C 0.5862(18) 0.4330(16) -0.0630(9)
C5 C 0.561(2) 0.5166(18) -0.0960(11)
H5 H 0.4914 0.5271 -0.1140
C6 C 0.641(3) 0.589(2) -0.1034(13)
H6 H 0.6239 0.6475 -0.1256
C7 C 0.740(3) 0.571(3) -0.0778(15)
H7 H 0.7919 0.6183 -0.0819
C8 C 0.769(2) 0.484(3) -0.0451(13)
H8 H 0.8383 0.4738 -0.0268
C9 C 0.691(2) 0.4119(18) -0.0406(13)
H9 H 0.7089 0.3505 -0.0227
C10 C -0.1875(16) 0.4630(17) -0.2569(11)
H10 H -0.2316 0.5174 -0.2649
C11 C -0.1296(15) 0.3229(16) -0.2293(11)
H11 H -0.1266 0.2594 -0.2122
C12 C -0.015(2) 0.5348(19) -0.2942(15)
H12 H -0.0561 0.5935 -0.3057
H13 H 0.0149 0.5111 -0.3345
C13 C 0.0752(16) 0.5599(14) -0.2427(14)
C14 C 0.064(2) 0.5581(18) -0.1751(16)
H14 H -0.0012 0.5381 -0.1598
C15 C 0.146(2) 0.585(2) -0.1294(17)
H15 H 0.1369 0.5818 -0.0838
C16 C 0.238(2) 0.6160(18) -0.1493(14)
H16 H 0.2923 0.6370 -0.1181
C17 C 0.2542(19) 0.617(2) -0.2176(18)
H17 H 0.3203 0.6356 -0.2318
C18 C 0.1723(18) 0.5903(19) -0.2639(16)
H18 H 0.1825 0.5927 -0.3094
N1 N 0.2829(12) 0.3361(13) -0.1803(10)
N2 N 0.4284(13) 0.3428(12) -0.1113(7)
N3 N 0.4600(12) 0.3275(12) -0.1730(7)
N4 N -0.2190(12) 0.3814(14) -0.2321(9)
N5 N -0.0492(13) 0.3683(14) -0.2536(10)
N6 N -0.0858(13) 0.4602(14) -0.2697(9)
O21 O 1.0631(19) 0.1007(18) 0.0213(12)
O22 O 0.9699(18) 0.0806(17) -0.0589(11)
O1B O 1.0224(17) -0.0361(16) -0.0711(11)
O2B O 0.8704(17) 0.0252(16) 0.0040(11)
O21B O 0.9369(19) -0.1007(18) -0.0213(12)
O22B O 1.0301(18) -0.0806(17) 0.0589(11)
W1B W 0.94158(6) -0.18372(6) -0.12133(3)
W2B W 1.20588(7) -0.08654(6) -0.09689(4)
W3B W 0.99546(6) 0.05928(5) -0.17110(3)
W4B W 1.21639(7) -0.13527(6) 0.07563(4)
W5B W 1.26007(7) 0.10594(7) 0.01873(4)
W6B W 0.96102(6) -0.24538(6) 0.04997(5)
O3B O 0.8522(12) 0.0975(15) -0.1511(12)
O4B O 1.0449(13) 0.1812(17) -0.1360(12)
O5B O 1.1949(15) 0.1583(19) 0.0959(9)
O6B O 1.282(3) -0.0133(13) 0.0716(9)
O7B O 1.1843(13) 0.2013(19) -0.0332(8)
O8B O 1.241(2) -0.1520(14) -0.0160(8)
O9B O 0.9136(16) -0.2668(11) -0.1811(8)
O10B O 0.9675(13) -0.261(2) -0.0426(8)
O11B O 1.269(3) 0.0272(12) -0.0575(9)
O12B O 0.9880(15) 0.0898(17) -0.2523(8)
O13B O 0.9377(13) -0.0686(11) -0.1750(10)
O14B O 1.1097(14) -0.2387(15) 0.0609(13)
O15B O 1.3004(14) -0.1265(11) -0.1457(9)
O16B O 1.0941(11) -0.1750(10) -0.1192(9)
O17B O 0.9399(15) -0.3612(12) 0.0740(8)
O18B O 1.3831(12) 0.1559(13) 0.0296(8)
O19B O 1.1325(12) 0.0035(11) -0.1577(10)
O20B O 1.3191(12) -0.2001(11) 0.1134(7)
Ag1B Ag 1.37129(11) -0.34655(13) 0.19572(8)
Ag2B Ag 1.87739(13) -0.34708(15) 0.22441(11)
C1B C 1.6802(14) -0.3511(17) 0.1183(10)
H1B H 1.7227 -0.3655 0.0834
C2B C 1.6263(15) -0.3228(14) 0.2129(9)
H2B H 1.6264 -0.3117 0.2587
C3B C 1.4974(18) -0.3539(19) 0.0536(10)
H3B H 1.4613 -0.2919 0.0443
H4B H 1.5368 -0.3704 0.0152
C4B C 1.4138(18) -0.4330(16) 0.0630(9)
C5B C 1.439(2) -0.5166(18) 0.0960(11)
H5B H 1.5086 -0.5271 0.1140
C6B C 1.359(3) -0.589(2) 0.1034(13)
H6B H 1.3761 -0.6475 0.1256
C7B C 1.260(3) -0.571(3) 0.0778(15)
H7B H 1.2081 -0.6183 0.0819
C8B C 1.231(2) -0.484(3) 0.0451(13)
H8B H 1.1617 -0.4738 0.0268
C9B C 1.309(2) -0.4119(18) 0.0406(13)
H9B H 1.2911 -0.3505 0.0227
C10B C 2.1875(16) -0.4630(17) 0.2569(11)
H10B H 2.2316 -0.5174 0.2649
C11B C 2.1296(15) -0.3229(16) 0.2293(11)
H11B H 2.1266 -0.2594 0.2122
C12B C 2.015(2) -0.5348(19) 0.2942(15)
H12B H 2.0561 -0.5935 0.3057
H13B H 1.9851 -0.5111 0.3345
C13B C 1.9248(16) -0.5599(14) 0.2427(14)
C14B C 1.936(2) -0.5581(18) 0.1751(16)
H14B H 2.0012 -0.5381 0.1598
C15B C 1.854(2) -0.585(2) 0.1294(17)
H15B H 1.8631 -0.5818 0.0838
C16B C 1.762(2) -0.6160(18) 0.1493(14)
H16B H 1.7077 -0.6370 0.1181
C17B C 1.7458(19) -0.617(2) 0.2176(18)
H17B H 1.6797 -0.6356 0.2318
C18B C 1.8277(18) -0.5903(19) 0.2639(16)
H18B H 1.8175 -0.5927 0.3094
N1B N 1.7171(12) -0.3361(13) 0.1803(10)
N2B N 1.5716(13) -0.3428(12) 0.1113(7)
N3B N 1.5400(12) -0.3275(12) 0.1730(7)
N4B N 2.2190(12) -0.3814(14) 0.2321(9)
N5B N 2.0492(13) -0.3683(14) 0.2536(10)
N6B N 2.0858(13) -0.4602(14) 0.2697(9)
Ag1_2 Ag -0.37129(11) 0.34655(13) -0.19572(8)
Ag1B_2 Ag 2.37129(11) -0.34655(13) 0.19572(8)
N4_2 N 0.7810(12) 0.3814(14) -0.2321(9)
N4B_2 N 1.2190(12) -0.3814(14) 0.2321(9)
loop_
_geom_bond_atom_site_label_1
_geom_bond_atom_site_label_2
_geom_bond_site_symmetry_1
_geom_bond_site_symmetry_2
Si1 O1 1_555 1_555
W1 O1 1_555 1_555
W2 O1 1_555 1_555
W3 O1 1_555 1_555
W4 O6 1_555 1_555
W5 O5 1_555 1_555
W6 O10 1_555 1_555
O1 O21 1_555 1_555
O2 Si1 1_555 1_555
O3 W3 1_555 1_555
O4 W3 1_555 1_555
O5 W1B 1_555 1_555
O6 W5 1_555 1_555
O7 W5 1_555 1_555
O8 W2 1_555 1_555
O9 W1 1_555 1_555
O10 W1 1_555 1_555
O11 W2 1_555 1_555
O12 W3 1_555 1_555
O13 W1 1_555 1_555
O14 W4 1_555 1_555
O15 W2 1_555 1_555
O16 W1 1_555 1_555
O17 W6 1_555 1_555
O18 W5 1_555 1_555
O19 W2 1_555 1_555
O20 W4 1_555 1_555
Ag1 O20 1_555 1_555
Ag2 N1 1_555 1_555
C1 H1 1_555 1_555
C2 H2 1_555 1_555
C3 H3 1_555 1_555
H4 C3 1_555 1_555
C4 C3 1_555 1_555
C5 C4 1_555 1_555
H5 C5 1_555 1_555
C6 C5 1_555 1_555
H6 C6 1_555 1_555
C7 C6 1_555 1_555
H7 C7 1_555 1_555
C8 C7 1_555 1_555
H8 C8 1_555 1_555
C9 C4 1_555 1_555
H9 C9 1_555 1_555
C10 H10 1_555 1_555
C11 H11 1_555 1_555
C12 H12 1_555 1_555
H13 C12 1_555 1_555
C13 C12 1_555 1_555
C14 C13 1_555 1_555
H14 C14 1_555 1_555
C15 C14 1_555 1_555
H15 C15 1_555 1_555
C16 C15 1_555 1_555
H16 C16 1_555 1_555
C17 C16 1_555 1_555
H17 C17 1_555 1_555
C18 C13 1_555 1_555
H18 C18 1_555 1_555
N1 C1 1_555 1_555
N2 C1 1_555 1_555
N3 Ag1 1_555 1_555
N4 C10 1_555 1_555
N5 Ag2 1_555 1_555
N6 C10 1_555 1_555
O21 Si1 1_555 1_555
O22 Si1 1_555 1_555
O1B Si1 1_555 1_555
O2B Si1 1_555 1_555
O21B Si1 1_555 1_555
O22B Si1 1_555 1_555
W1B O1B 1_555 1_555
W2B O2 1_555 1_555
W3B O22 1_555 1_555
W4B O2 1_555 1_555
W5B O2 1_555 1_555
W6B O4 1_555 1_555
O3B W4 1_555 1_555
O4B W6 1_555 1_555
O5B W1 1_555 1_555
O6B W4B 1_555 1_555
O7B W6 1_555 1_555
O8B W2B 1_555 1_555
O9B W1B 1_555 1_555
O10B W1B 1_555 1_555
O11B W2B 1_555 1_555
O12B W3B 1_555 1_555
O13B W1B 1_555 1_555
O14B W4B 1_555 1_555
O15B W2B 1_555 1_555
O16B W1B 1_555 1_555
O17B W6B 1_555 1_555
O18B W5B 1_555 1_555
O19B W2B 1_555 1_555
O20B W4B 1_555 1_555
Ag1B O20B 1_555 1_555
Ag2B N1B 1_555 1_555
C1B H1B 1_555 1_555
C2B H2B 1_555 1_555
C3B H3B 1_555 1_555
H4B C3B 1_555 1_555
C4B C3B 1_555 1_555
C5B C4B 1_555 1_555
H5B C5B 1_555 1_555
C6B C5B 1_555 1_555
H6B C6B 1_555 1_555
C7B C6B 1_555 1_555
H7B C7B 1_555 1_555
C8B C7B 1_555 1_555
H8B C8B 1_555 1_555
C9B C4B 1_555 1_555
H9B C9B 1_555 1_555
C10B H10B 1_555 1_555
C11B H11B 1_555 1_555
C12B H12B 1_555 1_555
H13B C12B 1_555 1_555
C13B C12B 1_555 1_555
C14B C13B 1_555 1_555
H14B C14B 1_555 1_555
C15B C14B 1_555 1_555
H15B C15B 1_555 1_555
C16B C15B 1_555 1_555
H16B C16B 1_555 1_555
C17B C16B 1_555 1_555
H17B C17B 1_555 1_555
C18B C13B 1_555 1_555
H18B C18B 1_555 1_555
N1B C1B 1_555 1_555
N2B C1B 1_555 1_555
N3B Ag1B 1_555 1_555
N4B C10B 1_555 1_555
N5B Ag2B 1_555 1_555
N6B C10B 1_555 1_555
Ag1_2 N4 1_555 1_555
Ag1B_2 N4B 1_555 1_555
N4_2 Ag1 1_555 1_555
N4B_2 Ag1B 1_555 1_555
W1 O21 1_555 1_555
W2 O16 1_555 1_555
W2 O2B 1_555 1_555
W3 O13 1_555 1_555
W3 O19 1_555 1_555
W3 O22B 1_555 1_555
W4 O8 1_555 1_555
W4 O22 1_555 1_555
W4 O2B 1_555 1_555
W5 O11 1_555 1_555
W5 O2B 1_555 1_555
W5 O21B 1_555 1_555
W6 O14 1_555 1_555
W6 O21 1_555 1_555
W6 O22 1_555 1_555
O1 O22B 1_555 1_555
O3 W4B 1_555 1_555
O7 W6B 1_555 1_555
C2 N1 1_555 1_555
C2 N3 1_555 1_555
C3 N2 1_555 1_555
C8 C9 1_555 1_555
C11 N4 1_555 1_555
C11 N5 1_555 1_555
C12 N6 1_555 1_555
C17 C18 1_555 1_555
N2 N3 1_555 1_555
N5 N6 1_555 1_555
O21 W5B 1_555 1_555
O22 O1B 1_555 1_555
O1B O21B 1_555 1_555
O1B W2B 1_555 1_555
O1B W3B 1_555 1_555
O21B W1B 1_555 1_555
O21B W6B 1_555 1_555
O22B W4B 1_555 1_555
O22B W6B 1_555 1_555
W2B O16B 1_555 1_555
W3B O3B 1_555 1_555
W3B O4B 1_555 1_555
W3B O13B 1_555 1_555
W3B O19B 1_555 1_555
W4B O8B 1_555 1_555
W5B O5B 1_555 1_555
W5B O6B 1_555 1_555
W5B O7B 1_555 1_555
W5B O11B 1_555 1_555
W6B O10B 1_555 1_555
W6B O14B 1_555 1_555
C2B N1B 1_555 1_555
C2B N3B 1_555 1_555
C3B N2B 1_555 1_555
C8B C9B 1_555 1_555
C11B N4B 1_555 1_555
C11B N5B 1_555 1_555
C12B N6B 1_555 1_555
C17B C18B 1_555 1_555
N2B N3B 1_555 1_555
N5B N6B 1_555 1_555

#END
