
#######################################################################
#
#                 Cambridge Crystallographic Data Centre
#                                CCDC 
#
#######################################################################
#
# If this CIF has been generated from an entry in the Cambridge 
# Structural Database, then it will include bibliographic, chemical, 
# crystal, experimental, refinement or atomic coordinate data resulting 
# from the CCDC's data processing and validation procedures.
#
#######################################################################

data_YUGLUJ
_symmetry_cell_setting           monoclinic
_symmetry_space_group_name_H-M   'P 21/n'
_symmetry_Int_Tables_number      14
_space_group_name_Hall           '-P 2yn'
loop_
_symmetry_equiv_pos_site_id
_symmetry_equiv_pos_as_xyz
1 x,y,z
2 1/2-x,1/2+y,1/2-z
3 -x,-y,-z
4 1/2+x,1/2-y,1/2+z
_cell_length_a                   12.505(5)
_cell_length_b                   13.477(5)
_cell_length_c                   19.986(5)
_cell_angle_alpha                90
_cell_angle_beta                 94.670(5)
_cell_angle_gamma                90
_cell_volume                     3357.06
loop_
_atom_site_label
_atom_site_type_symbol
_atom_site_fract_x
_atom_site_fract_y
_atom_site_fract_z
Mo1 Mo -1.53057(5) -0.75118(4) 0.54756(3)
Mo2 Mo -1.70494(5) -0.40632(5) 0.59646(3)
Mo3 Mo -1.50016(4) -0.43756(4) 0.32907(3)
Mo4 Mo -1.72157(5) -0.36861(5) 0.42155(3)
Mo5 Mo -1.56565(5) -0.68286(5) 0.37630(3)
Mo6 Mo -1.76090(5) -0.61020(5) 0.48620(3)
O1 O -1.6253(6) -0.4759(6) 0.5041(4)
O2 O -1.4804(6) -0.5337(6) 0.4341(3)
O3 O -1.4708(6) -0.5756(6) 0.5553(4)
O4 O -1.4429(6) -0.4009(6) 0.5192(4)
O5 O -1.4577(4) -0.3170(5) 0.3675(4)
O6 O -1.5088(5) -0.4080(6) 0.2490(3)
O7 O -1.7401(8) -0.3458(5) 0.5162(3)
O8 O -1.8222(4) -0.3032(4) 0.3853(2)
O9 O -1.5916(5) -0.7680(4) 0.3177(3)
O10 O -1.6481(4) -0.3997(5) 0.3489(4)
O11 O -1.5536(5) -0.8665(4) 0.5715(3)
O12 O -1.6139(4) -0.2616(5) 0.4403(4)
O13 O -1.7985(4) -0.3688(4) 0.6450(3)
O14 O -1.8801(4) -0.6620(4) 0.4759(3)
O15 O -1.5635(4) -0.5686(4) 0.3246(3)
O16 O -1.6311(4) -0.5050(4) 0.6565(3)
O17 O -1.6809(4) -0.7047(6) 0.5317(3)
O18 O -1.6975(5) -0.6587(6) 0.4045(3)
O19 O -1.4057(4) -0.6763(4) 0.3783(3)
O20 O -1.7816(8) -0.4903(4) 0.4293(3)
O21 O -1.7716(8) -0.5277(5) 0.5578(3)
O22 O -1.5339(4) -0.7630(6) 0.4557(3)
P1 P -1.5000 -0.5000 0.5000
Ag1 Ag -1.87528(4) -0.14865(5) 0.30340(3)
Ag2 Ag -1.38150(4) -0.16074(5) 0.27910(4)
C1 C -1.6333(5) -0.1776(6) 0.2718(4)
H1 H -1.6330 -0.2418 0.2888
C2 C -1.6876(5) -0.0373(6) 0.2409(4)
H2 H -1.7300 0.0184 0.2315
C3 C -1.5120(6) 0.0295(7) 0.2045(5)
H3 H -1.5521 0.0890 0.1913
H4 H -1.4806 0.0040 0.1651
C4 C -1.4242(5) 0.0557(5) 0.2570(4)
C5 C -1.4397(6) 0.0579(6) 0.3247(5)
H5 H -1.5059 0.0393 0.3387
C6 C -1.3604(8) 0.0867(7) 0.3711(5)
H6 H -1.3724 0.0877 0.4165
C7 C -1.2614(8) 0.1146(7) 0.3505(6)
H7 H -1.2067 0.1342 0.3821
C8 C -1.2443(7) 0.1132(7) 0.2845(5)
H8 H -1.1779 0.1324 0.2711
C9 C -1.3246(6) 0.0836(6) 0.2368(5)
H9 H -1.3120 0.0823 0.1915
C10 C -1.1804(5) -0.1564(6) 0.3833(4)
H10 H -1.2223 -0.1474 0.4192
C11 C -1.1288(5) -0.1798(5) 0.2870(3)
H11 H -1.1304 -0.1908 0.2410
C12 C -0.9977(6) -0.1490(6) 0.4469(3)
H12 H -0.9615 -0.2119 0.4553
H13 H -1.0358 -0.1329 0.4858
C13 C -0.9145(6) -0.0682(6) 0.4368(3)
C14 C -0.8098(6) -0.0852(6) 0.4596(4)
H14 H -0.7906 -0.1453 0.4800
C15 C -0.7317(7) -0.0128(9) 0.4525(5)
H15 H -0.6612 -0.0241 0.4694
C16 C -0.7583(8) 0.0742(9) 0.4207(5)
H16 H -0.7059 0.1217 0.4149
C17 C -0.8636(9) 0.0915(7) 0.3972(4)
H17 H -0.8821 0.1516 0.3765
C18 C -0.9421(7) 0.0201(6) 0.4043(4)
H18 H -1.0125 0.0315 0.3874
N1 N -1.7210(4) -0.1177(5) 0.2679(3)
N2 N -1.5495(4) -0.1354(5) 0.2490(3)
N3 N -1.5852(4) -0.0445(5) 0.2285(3)
N4 N -1.2182(4) -0.1690(4) 0.3206(3)
N5 N -1.0743(4) -0.1582(4) 0.3881(3)
N6 N -1.0408(4) -0.1732(5) 0.3261(3)
O1B O -1.3747(6) -0.5241(6) 0.4959(4)
O2B O -1.5196(6) -0.4663(6) 0.5659(3)
O3B O -1.5292(6) -0.4244(6) 0.4447(4)
O4B O -1.5571(6) -0.5991(6) 0.4808(4)
Mo1B Mo -1.46943(5) -0.24882(4) 0.45244(3)
Mo2B Mo -1.29506(5) -0.59368(5) 0.40354(3)
Mo3B Mo -1.49984(4) -0.56244(4) 0.67093(3)
Mo4B Mo -1.27843(5) -0.63139(5) 0.57845(3)
Mo5B Mo -1.43435(5) -0.31714(5) 0.62370(3)
Mo6B Mo -1.23910(5) -0.38980(5) 0.51380(3)
O5B O -1.5423(4) -0.6830(5) 0.6325(4)
O6B O -1.4912(5) -0.5920(6) 0.7510(3)
O7B O -1.2599(8) -0.6542(5) 0.4838(3)
O8B O -1.1778(4) -0.6968(4) 0.6147(2)
O9B O -1.4084(5) -0.2320(4) 0.6823(3)
O10B O -1.3519(4) -0.6003(5) 0.6511(4)
O11B O -1.4464(5) -0.1335(4) 0.4285(3)
O12B O -1.3861(4) -0.7384(5) 0.5597(4)
O13B O -1.2015(4) -0.6312(4) 0.3550(3)
O14B O -1.1199(4) -0.3380(4) 0.5241(3)
O15B O -1.4365(4) -0.4314(4) 0.6754(3)
O16B O -1.3689(4) -0.4950(4) 0.3435(3)
O17B O -1.3191(4) -0.2953(6) 0.4683(3)
O18B O -1.3025(5) -0.3413(6) 0.5955(3)
O19B O -1.5943(4) -0.3237(4) 0.6217(3)
O20B O -1.2184(8) -0.5097(4) 0.5707(3)
O21B O -1.2284(8) -0.4723(5) 0.4422(3)
O22B O -1.4661(4) -0.2370(6) 0.5443(3)
Ag1B Ag -1.12472(4) -0.85135(5) 0.69660(3)
Ag2B Ag -1.61850(4) -0.83926(5) 0.72090(4)
C1B C -1.3667(5) -0.8224(6) 0.7282(4)
H1B H -1.3670 -0.7582 0.7112
C2B C -1.3124(5) -0.9627(6) 0.7591(4)
H2B H -1.2700 -1.0184 0.7685
C3B C -1.4880(6) -1.0295(7) 0.7955(5)
H3B H -1.4479 -1.0890 0.8087
H4B H -1.5194 -1.0040 0.8349
C4B C -1.5758(5) -1.0557(5) 0.7430(4)
C5B C -1.5603(6) -1.0579(6) 0.6753(5)
H5B H -1.4941 -1.0393 0.6613
C6B C -1.6396(8) -1.0867(7) 0.6289(5)
H6B H -1.6276 -1.0877 0.5835
C7B C -1.7386(8) -1.1146(7) 0.6495(6)
H7B H -1.7933 -1.1342 0.6179
C8B C -1.7557(7) -1.1132(7) 0.7155(5)
H8B H -1.8221 -1.1324 0.7289
C9B C -1.6754(6) -1.0836(6) 0.7632(5)
H9B H -1.6880 -1.0823 0.8085
C10B C -1.8196(5) -0.8436(6) 0.6167(4)
H10B H -1.7777 -0.8526 0.5808
C11B C -1.8712(5) -0.8202(5) 0.7130(3)
H11B H -1.8696 -0.8092 0.7590
C12B C -2.0023(6) -0.8510(6) 0.5531(3)
H12B H -2.0385 -0.7881 0.5447
H13B H -1.9642 -0.8671 0.5142
C13B C -2.0855(6) -0.9318(6) 0.5632(3)
C14B C -2.1902(6) -0.9148(6) 0.5404(4)
H14B H -2.2094 -0.8547 0.5200
C15B C -2.2683(7) -0.9872(9) 0.5475(5)
H15B H -2.3388 -0.9759 0.5306
C16B C -2.2417(8) -1.0742(9) 0.5793(5)
H16B H -2.2941 -1.1217 0.5851
C17B C -2.1364(9) -1.0915(7) 0.6028(4)
H17B H -2.1179 -1.1516 0.6235
C18B C -2.0579(7) -1.0201(6) 0.5957(4)
H18B H -1.9875 -1.0315 0.6126
N1B N -1.2790(4) -0.8823(5) 0.7321(3)
N2B N -1.4505(4) -0.8646(5) 0.7510(3)
N3B N -1.4148(4) -0.9555(5) 0.7715(3)
N4B N -1.7818(4) -0.8310(4) 0.6794(3)
N5B N -1.9257(4) -0.8418(4) 0.6119(3)
N6B N -1.9592(4) -0.8268(5) 0.6739(3)
Ag1_2 Ag -0.87528(4) -0.14865(5) 0.30340(3)
Ag1B_2 Ag -2.12472(4) -0.85135(5) 0.69660(3)
N6_2 N -2.0408(4) -0.1732(5) 0.3261(3)
N6B_2 N -0.9592(4) -0.8268(5) 0.6739(3)
loop_
_geom_bond_atom_site_label_1
_geom_bond_atom_site_label_2
_geom_bond_site_symmetry_1
_geom_bond_site_symmetry_2
Mo1 O3 1_555 1_555
Mo2 O1 1_555 1_555
Mo3 O2 1_555 1_555
Mo4 O1 1_555 1_555
Mo5 O2 1_555 1_555
Mo6 O1 1_555 1_555
O1 P1 1_555 1_555
O2 P1 1_555 1_555
O3 P1 1_555 1_555
O4 P1 1_555 1_555
O5 Mo3 1_555 1_555
O6 Mo3 1_555 1_555
O7 Mo2 1_555 1_555
O8 Mo4 1_555 1_555
O9 Mo5 1_555 1_555
O10 Mo3 1_555 1_555
O11 Mo1 1_555 1_555
O12 Mo4 1_555 1_555
O13 Mo2 1_555 1_555
O14 Mo6 1_555 1_555
O15 Mo3 1_555 1_555
O16 Mo2 1_555 1_555
O17 Mo1 1_555 1_555
O18 Mo5 1_555 1_555
O19 Mo5 1_555 1_555
O20 Mo4 1_555 1_555
O21 Mo2 1_555 1_555
O22 Mo1 1_555 1_555
P1 O1B 1_555 1_555
Ag1 O8 1_555 1_555
Ag2 N2 1_555 1_555
C1 H1 1_555 1_555
C2 H2 1_555 1_555
C3 H3 1_555 1_555
H4 C3 1_555 1_555
C4 C3 1_555 1_555
C5 C4 1_555 1_555
H5 C5 1_555 1_555
C6 C5 1_555 1_555
H6 C6 1_555 1_555
C7 C6 1_555 1_555
H7 C7 1_555 1_555
C8 C7 1_555 1_555
H8 C8 1_555 1_555
C9 C4 1_555 1_555
H9 C9 1_555 1_555
C10 H10 1_555 1_555
C11 H11 1_555 1_555
C12 H12 1_555 1_555
H13 C12 1_555 1_555
C13 C12 1_555 1_555
C14 C13 1_555 1_555
H14 C14 1_555 1_555
C15 C14 1_555 1_555
H15 C15 1_555 1_555
C16 C15 1_555 1_555
H16 C16 1_555 1_555
C17 C16 1_555 1_555
H17 C17 1_555 1_555
C18 C13 1_555 1_555
H18 C18 1_555 1_555
N1 Ag1 1_555 1_555
N2 C1 1_555 1_555
N3 C2 1_555 1_555
N4 Ag2 1_555 1_555
N5 C10 1_555 1_555
N6 C11 1_555 1_555
O1B O2 1_555 1_555
O2B Mo2 1_555 1_555
O3B Mo3 1_555 1_555
O4B Mo1 1_555 1_555
Mo1B O4 1_555 1_555
Mo2B O2 1_555 1_555
Mo3B O3 1_555 1_555
Mo4B O3 1_555 1_555
Mo5B O4 1_555 1_555
Mo6B O4 1_555 1_555
O5B Mo1 1_555 1_555
O6B Mo3B 1_555 1_555
O7B Mo2B 1_555 1_555
O8B Mo4B 1_555 1_555
O9B Mo5B 1_555 1_555
O10B Mo3B 1_555 1_555
O11B Mo1B 1_555 1_555
O12B Mo1 1_555 1_555
O13B Mo2B 1_555 1_555
O14B Mo6B 1_555 1_555
O15B Mo3B 1_555 1_555
O16B Mo3 1_555 1_555
O17B Mo1B 1_555 1_555
O18B Mo5B 1_555 1_555
O19B Mo2 1_555 1_555
O20B Mo4B 1_555 1_555
O21B Mo2B 1_555 1_555
O22B Mo1B 1_555 1_555
Ag1B O8B 1_555 1_555
Ag2B N2B 1_555 1_555
C1B H1B 1_555 1_555
C2B H2B 1_555 1_555
C3B H3B 1_555 1_555
H4B C3B 1_555 1_555
C4B C3B 1_555 1_555
C5B C4B 1_555 1_555
H5B C5B 1_555 1_555
C6B C5B 1_555 1_555
H6B C6B 1_555 1_555
C7B C6B 1_555 1_555
H7B C7B 1_555 1_555
C8B C7B 1_555 1_555
H8B C8B 1_555 1_555
C9B C4B 1_555 1_555
H9B C9B 1_555 1_555
C10B H10B 1_555 1_555
C11B H11B 1_555 1_555
C12B H12B 1_555 1_555
H13B C12B 1_555 1_555
C13B C12B 1_555 1_555
C14B C13B 1_555 1_555
H14B C14B 1_555 1_555
C15B C14B 1_555 1_555
H15B C15B 1_555 1_555
C16B C15B 1_555 1_555
H16B C16B 1_555 1_555
C17B C16B 1_555 1_555
H17B C17B 1_555 1_555
C18B C13B 1_555 1_555
H18B C18B 1_555 1_555
N1B Ag1B 1_555 1_555
N2B C1B 1_555 1_555
N3B C2B 1_555 1_555
N4B Ag2B 1_555 1_555
N5B C10B 1_555 1_555
N6B C11B 1_555 1_555
Ag1_2 N6 1_555 1_555
Ag1B_2 N6B 1_555 1_555
N6_2 Ag1 1_555 1_555
N6B_2 Ag1B 1_555 1_555
Mo4 O7 1_555 1_555
Mo4 O10 1_555 1_555
Mo4 O3B 1_555 1_555
Mo5 O15 1_555 1_555
Mo5 O22 1_555 1_555
Mo5 O4B 1_555 1_555
Mo6 O17 1_555 1_555
Mo6 O18 1_555 1_555
Mo6 O20 1_555 1_555
Mo6 O21 1_555 1_555
Mo6 O4B 1_555 1_555
O1 O2B 1_555 1_555
O2 O3B 1_555 1_555
O2 O4B 1_555 1_555
O3 O2B 1_555 1_555
O3 O4B 1_555 1_555
O4 O2B 1_555 1_555
O4 O3B 1_555 1_555
O5 Mo1B 1_555 1_555
O12 Mo1B 1_555 1_555
O16 Mo3B 1_555 1_555
O19 Mo2B 1_555 1_555
P1 O2B 1_555 1_555
P1 O3B 1_555 1_555
P1 O4B 1_555 1_555
C1 N1 1_555 1_555
C2 N1 1_555 1_555
C3 N3 1_555 1_555
C8 C9 1_555 1_555
C10 N4 1_555 1_555
C11 N4 1_555 1_555
C12 N5 1_555 1_555
C17 C18 1_555 1_555
N2 N3 1_555 1_555
N5 N6 1_555 1_555
O1B Mo2B 1_555 1_555
O1B Mo4B 1_555 1_555
O1B Mo6B 1_555 1_555
O2B Mo3B 1_555 1_555
O2B Mo5B 1_555 1_555
O3B Mo1B 1_555 1_555
Mo2B O16B 1_555 1_555
Mo3B O5B 1_555 1_555
Mo4B O7B 1_555 1_555
Mo4B O10B 1_555 1_555
Mo4B O12B 1_555 1_555
Mo5B O15B 1_555 1_555
Mo5B O19B 1_555 1_555
Mo5B O22B 1_555 1_555
Mo6B O17B 1_555 1_555
Mo6B O18B 1_555 1_555
Mo6B O20B 1_555 1_555
Mo6B O21B 1_555 1_555
C1B N1B 1_555 1_555
C2B N1B 1_555 1_555
C3B N3B 1_555 1_555
C8B C9B 1_555 1_555
C10B N4B 1_555 1_555
C11B N4B 1_555 1_555
C12B N5B 1_555 1_555
C17B C18B 1_555 1_555
N2B N3B 1_555 1_555
N5B N6B 1_555 1_555

#END
