
#######################################################################
#
#                 Cambridge Crystallographic Data Centre
#                                CCDC 
#
#######################################################################
#
# If this CIF has been generated from an entry in the Cambridge 
# Structural Database, then it will include bibliographic, chemical, 
# crystal, experimental, refinement or atomic coordinate data resulting 
# from the CCDC's data processing and validation procedures.
#
#######################################################################

data_YUGMAQ
_symmetry_cell_setting           triclinic
_symmetry_space_group_name_H-M   'P -1'
_symmetry_Int_Tables_number      2
_space_group_name_Hall           '-P 1'
loop_
_symmetry_equiv_pos_site_id
_symmetry_equiv_pos_as_xyz
1 x,y,z
2 -x,-y,-z
_cell_length_a                   13.7305(7)
_cell_length_b                   16.1417(8)
_cell_length_c                   21.9242(10)
_cell_angle_alpha                109.2670(10)
_cell_angle_beta                 91.6810(10)
_cell_angle_gamma                105.1980(10)
_cell_volume                     4390.62
loop_
_atom_site_label
_atom_site_type_symbol
_atom_site_fract_x
_atom_site_fract_y
_atom_site_fract_z
Si1 Si 0.7275(2) 0.8934(2) 0.71402(16)
W1 W 0.95271(5) 1.05977(4) 0.80342(3)
W2 W 0.81866(5) 0.72020(5) 0.73799(3)
W3 W 0.95830(5) 0.85648(5) 0.66571(3)
W4 W 0.80982(5) 0.92209(5) 0.87462(3)
W5 W 0.49053(5) 0.91551(5) 0.76113(3)
W6 W 0.65151(5) 0.87810(4) 0.55584(3)
W7 W 0.74170(6) 0.69841(5) 0.58461(3)
W8 W 0.64316(4) 1.06489(4) 0.68214(3)
W9 W 0.72814(5) 1.08833(4) 0.84812(3)
W10 W 0.57287(5) 0.74914(4) 0.78667(3)
W11 W 0.49558(5) 0.72961(4) 0.63314(3)
W12 W 0.86881(5) 1.03678(5) 0.63695(3)
O1 O 0.7832(7) 0.9646(7) 0.7851(5)
O2 O 0.7231(7) 0.9478(7) 0.6645(5)
O3 O 0.6118(7) 0.8406(7) 0.7219(5)
O4 O 0.7892(7) 0.8198(7) 0.6857(5)
O5 O 0.9490(8) 0.7725(8) 0.7121(5)
O6 O 1.0690(10) 1.1344(8) 0.8308(6)
O7 O 0.8838(8) 0.7560(8) 0.5905(5)
O8 O 0.4920(8) 0.6812(7) 0.7037(5)
O9 O 1.0787(9) 0.8615(10) 0.6472(6)
O10 O 0.6033(8) 0.8504(7) 0.4774(5)
O11 O 0.7743(7) 1.1104(7) 0.6569(5)
O12 O 0.5960(8) 1.0024(7) 0.8245(5)
O13 O 0.9383(8) 1.0060(7) 0.8693(5)
O14 O 0.4849(8) 0.8285(8) 0.8050(5)
O15 O 0.9242(8) 0.9375(7) 0.6294(5)
O16 O 0.7726(10) 0.6479(8) 0.6472(5)
O17 O 0.7035(8) 1.1071(7) 0.7690(5)
O18 O 0.6025(8) 0.9855(7) 0.5939(5)
O19 O 0.3869(8) 0.9489(8) 0.7864(6)
O20 O 0.8711(8) 1.1339(8) 0.8474(5)
O21 O 0.4252(8) 0.8123(7) 0.6828(5)
O22 O 0.7583(8) 1.0266(7) 0.9048(5)
O23 O 0.7107(9) 1.1819(8) 0.9058(5)
O24 O 0.6750(8) 0.8451(8) 0.8496(5)
O25 O 0.7808(7) 0.9637(7) 0.5574(5)
O26 O 0.8410(10) 0.9143(8) 0.9470(5)
O27 O 0.9173(8) 1.0813(7) 0.7262(5)
O28 O 0.9548(8) 1.1051(8) 0.6093(6)
O29 O 0.8479(8) 0.8231(8) 0.8165(5)
O30 O 0.5194(10) 0.6801(8) 0.8285(6)
O31 O 0.9823(8) 0.9541(7) 0.7478(5)
O32 O 0.7254(8) 0.6059(8) 0.5170(5)
O33 O 0.5432(7) 0.8091(7) 0.5872(5)
O34 O 0.5906(8) 1.1478(7) 0.6775(5)
O35 O 0.6063(8) 0.6828(7) 0.6055(5)
O36 O 0.6806(8) 0.7019(7) 0.7530(5)
O37 O 0.7166(8) 0.7879(7) 0.5523(5)
O38 O 0.3958(9) 0.6480(8) 0.5808(5)
O39 O 0.5364(7) 0.9859(7) 0.7055(5)
O40 O 0.8512(9) 0.6403(7) 0.7625(6)
Ag1 Ag 0.20448(11) 0.97736(14) 0.78737(10)
Ag2 Ag 0.47926(10) 1.22496(10) 0.64697(7)
Ag3 Ag 0.5000 1.5000 0.5000
Ag4 Ag 0.5000 1.0000 0.5000
Ag5 Ag 0.78485(10) 1.22992(10) 0.35801(7)
C1 C 0.7412(16) 1.3128(14) 0.2556(10)
H1 H 0.6733 1.2967 0.2624
C2 C 0.8922(17) 1.3230(14) 0.2624(10)
H2 H 0.9552 1.3160 0.2723
C3 C 0.9392(17) 1.4067(14) 0.1821(10)
H3 H 0.9109 1.3776 0.1365
H4 H 1.0059 1.3976 0.1862
C4 C 0.9513(19) 1.5076(16) 0.2024(11)
C5 C 0.9427(19) 1.5485(16) 0.1610(12)
H5 H 0.9285 1.5130 0.1169
C6 C 0.954(2) 1.6443(17) 0.1790(12)
H6 H 0.9455 1.6703 0.1479
C7 C 0.975(2) 1.6914(18) 0.2378(12)
H7 H 0.9945 1.7548 0.2490
C8 C 0.971(2) 1.6589(18) 0.2856(13)
H8 H 0.9751 1.6967 0.3286
C9 C 0.9615(19) 1.5644(16) 0.2695(11)
H9 H 0.9617 1.5394 0.3021
C10 C 0.6457(13) 1.1172(12) 0.4281(8)
H10 H 0.5933 1.1009 0.3947
C11 C 0.7239(15) 1.1260(14) 0.5153(10)
H11 H 0.7416 1.1198 0.5545
C12 C 0.8950(15) 1.2296(13) 0.5067(10)
H12 H 0.9328 1.2150 0.4698
H13 H 0.9225 1.2117 0.5400
C13 C 0.9110(16) 1.3309(14) 0.5328(10)
C14 C 1.0054(17) 1.3871(15) 0.5471(10)
H14 H 1.0600 1.3624 0.5417
C15 C 1.0254(19) 1.4861(15) 0.5711(11)
H15 H 1.0911 1.5252 0.5781
C16 C 0.9472(18) 1.5175(16) 0.5822(11)
H16 H 0.9610 1.5808 0.6013
C17 C 0.8514(19) 1.4703(16) 0.5695(11)
H17 H 0.8002 1.4991 0.5763
C18 C 0.8276(18) 1.3701(14) 0.5440(10)
H18 H 0.7607 1.3331 0.5353
C19 C 0.5218(19) 1.3652(17) 0.5708(12)
H19 H 0.4992 1.3154 0.5322
C20 C 0.5665(19) 1.4945(18) 0.6347(12)
H20 H 0.5829 1.5578 0.6546
C21 C 0.585(2) 1.4681(19) 0.7440(13)
H21 H 0.6214 1.5327 0.7632
H22 H 0.5193 1.4583 0.7604
C22 C 0.6406(13) 1.4148(12) 0.7607(9)
C23 C 0.6042(12) 1.3736(13) 0.8052(9)
H23 H 0.5423 1.3774 0.8202
C24 C 0.6604(15) 1.3266(13) 0.8274(9)
H24 H 0.6360 1.2990 0.8572
C25 C 0.7529(14) 1.3209(12) 0.8050(9)
H25 H 0.7904 1.2895 0.8198
C26 C 0.7893(12) 1.3621(13) 0.7604(9)
H26 H 0.8512 1.3583 0.7454
C27 C 0.7332(14) 1.4091(13) 0.7382(9)
H27 H 0.7575 1.4367 0.7084
C28 C 0.1891(18) 1.0802(15) 0.6892(11)
H28 H 0.1189 1.0684 0.6881
C29 C 0.3419(16) 1.0846(15) 0.7097(10)
H29 H 0.3997 1.0769 0.7277
C30 C 0.2140(17) 1.1771(15) 0.6215(11)
H30 H 0.1404 1.1614 0.6146
H31 H 0.2376 1.1575 0.5793
C31 C 0.2572(18) 1.2800(16) 0.6533(12)
C32 C 0.2651(18) 1.3316(17) 0.6130(12)
H32 H 0.2467 1.3019 0.5684
C33 C 0.2998(18) 1.4259(17) 0.6379(12)
H33 H 0.3035 1.4598 0.6106
C34 C 0.328(2) 1.4679(19) 0.7022(12)
H34 H 0.3551 1.5313 0.7174
C35 C 0.320(2) 1.4218(19) 0.7520(13)
H35 H 0.3335 1.4521 0.7968
C36 C 0.2883(19) 1.3254(17) 0.7205(12)
H36 H 0.2881 1.2896 0.7461
C37 C 0.2284(15) 0.8652(13) 0.8778(9)
H37 H 0.2867 0.8540 0.8606
C38 C 0.0962(16) 0.9068(13) 0.8950(10)
H38 H 0.0427 0.9316 0.8929
C39 C 0.0452(15) 0.8493(13) 0.9816(9)
H39 H -0.0043 0.8835 0.9859
H40 H 0.0886 0.8732 1.0229
C40 C -0.0117(16) 0.7476(14) 0.9679(10)
C41 C -0.0963(16) 0.7000(14) 0.9203(10)
H41 H -0.1189 0.7295 0.8953
C42 C -0.1462(18) 0.6098(15) 0.9101(11)
H42 H -0.2029 0.5795 0.8787
C43 C -0.1165(18) 0.5676(16) 0.9423(11)
H43 H -0.1526 0.5068 0.9339
C44 C -0.0321(18) 0.6072(15) 0.9901(10)
H44 H -0.0110 0.5743 1.0129
C45 C 0.0202(17) 0.7011(14) 1.0018(10)
H45 H 0.0769 0.7307 1.0332
N1 N 0.8127(10) 1.2965(11) 0.2876(7)
N2 N 0.7730(11) 1.3542(10) 0.2127(8)
N3 N 0.8740(10) 1.3618(10) 0.2202(7)
N4 N 0.6347(11) 1.0882(10) 0.4809(7)
N5 N 0.7349(9) 1.1686(9) 0.4295(6)
N6 N 0.7870(9) 1.1754(9) 0.4858(6)
N7 N 0.5383(12) 1.4484(9) 0.5715(7)
N8 N 0.5676(17) 1.4375(13) 0.6643(9)
N9 N 0.5376(12) 1.3536(10) 0.6250(8)
N10 N 0.2455(11) 1.0482(11) 0.7214(8)
N11 N 0.3448(9) 1.1319(10) 0.6702(7)
N12 N 0.2431(10) 1.1289(10) 0.6602(7)
N13 N 0.1745(11) 0.9123(12) 0.8572(8)
N14 N 0.1915(12) 0.8374(12) 0.9233(8)
N15 N 0.1056(11) 0.8644(10) 0.9327(7)
K1 K 0.2792(5) 0.7797(4) 0.9759(2)
Si1A Si 0.2725(2) 1.1066(2) 0.28598(16)
W1A W 0.04729(5) 0.94023(4) 0.19658(3)
W2A W 0.18134(5) 1.27980(5) 0.26201(3)
W3A W 0.04170(5) 1.14352(5) 0.33429(3)
W4A W 0.19018(5) 1.07791(5) 0.12538(3)
W5A W 0.50947(5) 1.08449(5) 0.23887(3)
W6A W 0.34849(5) 1.12190(4) 0.44416(3)
W7A W 0.25830(6) 1.30159(5) 0.41539(3)
W8A W 0.35684(4) 0.93511(4) 0.31786(3)
W9A W 0.27186(5) 0.91167(4) 0.15188(3)
W10A W 0.42713(5) 1.25086(4) 0.21333(3)
W11A W 0.50442(5) 1.27039(4) 0.36686(3)
W12A W 0.13119(5) 0.96322(5) 0.36305(3)
O1A O 0.2168(7) 1.0354(7) 0.2149(5)
O2A O 0.2769(7) 1.0522(7) 0.3355(5)
O3A O 0.3882(7) 1.1594(7) 0.2781(5)
O4A O 0.2108(7) 1.1802(7) 0.3143(5)
O5A O 0.0510(8) 1.2275(8) 0.2879(5)
O6A O -0.0690(10) 0.8656(8) 0.1692(6)
O7A O 0.1162(8) 1.2440(8) 0.4095(5)
O8A O 0.5080(8) 1.3188(7) 0.2963(5)
O9A O -0.0787(9) 1.1385(10) 0.3528(6)
O10A O 0.3967(8) 1.1496(7) 0.5226(5)
O11A O 0.2257(7) 0.8896(7) 0.3431(5)
O12A O 0.4040(8) 0.9976(7) 0.1755(5)
O13A O 0.0617(8) 0.9940(7) 0.1307(5)
O14A O 0.5151(8) 1.1715(8) 0.1950(5)
O15A O 0.0758(8) 1.0625(7) 0.3706(5)
O16A O 0.2274(10) 1.3521(8) 0.3528(5)
O17A O 0.2965(8) 0.8929(7) 0.2310(5)
O18A O 0.3975(8) 1.0145(7) 0.4061(5)
O19A O 0.6131(8) 1.0511(8) 0.2136(6)
O20A O 0.1289(8) 0.8661(8) 0.1526(5)
O21A O 0.5748(8) 1.1877(7) 0.3172(5)
O22A O 0.2417(8) 0.9734(7) 0.0952(5)
O23A O 0.2893(9) 0.8181(8) 0.0942(5)
O24A O 0.3250(8) 1.1549(8) 0.1504(5)
O25A O 0.2192(7) 1.0363(7) 0.4426(5)
O26A O 0.1590(10) 1.0857(8) 0.0530(5)
O27A O 0.0827(8) 0.9187(7) 0.2738(5)
O28A O 0.0452(8) 0.8949(8) 0.3907(6)
O29A O 0.1521(8) 1.1769(8) 0.1835(5)
O30A O 0.4806(10) 1.3199(8) 0.1715(6)
O31A O 0.0177(8) 1.0459(7) 0.2522(5)
O32A O 0.2746(8) 1.3941(8) 0.4830(5)
O33A O 0.4568(7) 1.1909(7) 0.4128(5)
O34A O 0.4094(8) 0.8522(7) 0.3225(5)
O35A O 0.3937(8) 1.3172(7) 0.3945(5)
O36A O 0.3194(8) 1.2981(7) 0.2470(5)
O37A O 0.2834(8) 1.2121(7) 0.4477(5)
O38A O 0.6042(9) 1.3520(8) 0.4192(5)
O39A O 0.4636(7) 1.0141(7) 0.2945(5)
O40A O 0.1488(9) 1.3597(7) 0.2375(6)
Ag1A Ag 0.79552(11) 1.02264(14) 0.21263(10)
Ag2A Ag 0.52074(10) 0.77504(10) 0.35303(7)
Ag5A Ag 0.21515(10) 0.77008(10) 0.64199(7)
C1A C 0.2588(16) 0.6872(14) 0.7444(10)
H1A H 0.3267 0.7033 0.7376
C2A C 0.1078(17) 0.6770(14) 0.7376(10)
H2A H 0.0448 0.6840 0.7277
C3A C 0.0608(17) 0.5933(14) 0.8179(10)
H3A H 0.0891 0.6224 0.8635
H4A H -0.0059 0.6024 0.8138
C4A C 0.0487(19) 0.4924(16) 0.7976(11)
C5A C 0.0573(19) 0.4515(16) 0.8390(12)
H5A H 0.0715 0.4870 0.8831
C6A C 0.046(2) 0.3557(17) 0.8210(12)
H6A H 0.0545 0.3297 0.8521
C7A C 0.025(2) 0.3086(18) 0.7622(12)
H7A H 0.0055 0.2452 0.7510
C8A C 0.029(2) 0.3411(18) 0.7144(13)
H8A H 0.0249 0.3033 0.6714
C9A C 0.0385(19) 0.4356(16) 0.7305(11)
H9A H 0.0383 0.4606 0.6979
C10A C 0.3543(13) 0.8828(12) 0.5719(8)
H10A H 0.4067 0.8991 0.6053
C11A C 0.2761(15) 0.8740(14) 0.4847(10)
H11A H 0.2584 0.8802 0.4455
C12A C 0.1050(15) 0.7704(13) 0.4933(10)
H12A H 0.0672 0.7850 0.5302
H13A H 0.0775 0.7883 0.4600
C13A C 0.0890(16) 0.6691(14) 0.4672(10)
C14A C -0.0054(17) 0.6129(15) 0.4529(10)
H14A H -0.0600 0.6376 0.4583
C15A C -0.0254(19) 0.5139(15) 0.4289(11)
H15A H -0.0911 0.4748 0.4219
C16A C 0.0528(18) 0.4825(16) 0.4178(11)
H16A H 0.0390 0.4192 0.3987
C17A C 0.1486(19) 0.5297(16) 0.4305(11)
H17A H 0.1998 0.5009 0.4237
C18A C 0.1724(18) 0.6299(14) 0.4560(10)
H18A H 0.2393 0.6669 0.4647
C19A C 0.4782(19) 0.6348(17) 0.4292(12)
H19A H 0.5008 0.6846 0.4678
C20A C 0.4335(19) 0.5055(18) 0.3653(12)
H20A H 0.4171 0.4422 0.3454
C21A C 0.415(2) 0.5319(19) 0.2560(13)
H21A H 0.3786 0.4673 0.2368
H22A H 0.4807 0.5417 0.2396
C22A C 0.3594(13) 0.5852(12) 0.2393(9)
C23A C 0.3958(12) 0.6264(13) 0.1948(9)
H23A H 0.4577 0.6226 0.1798
C24A C 0.3396(15) 0.6734(13) 0.1726(9)
H24A H 0.3640 0.7010 0.1428
C25A C 0.2471(14) 0.6791(12) 0.1950(9)
H25A H 0.2096 0.7105 0.1802
C26A C 0.2107(12) 0.6379(13) 0.2396(9)
H26A H 0.1488 0.6417 0.2546
C27A C 0.2668(14) 0.5909(13) 0.2618(9)
H27A H 0.2425 0.5633 0.2916
C28A C 0.8109(18) 0.9198(15) 0.3108(11)
H28A H 0.8811 0.9316 0.3119
C29A C 0.6581(16) 0.9154(15) 0.2903(10)
H29A H 0.6003 0.9231 0.2723
C30A C 0.7860(17) 0.8229(15) 0.3785(11)
H30A H 0.8596 0.8386 0.3854
H31A H 0.7624 0.8425 0.4207
C31A C 0.7428(18) 0.7200(16) 0.3467(12)
C32A C 0.7349(18) 0.6684(17) 0.3870(12)
H32A H 0.7533 0.6981 0.4316
C33A C 0.7002(18) 0.5741(17) 0.3621(12)
H33A H 0.6965 0.5402 0.3894
C34A C 0.672(2) 0.5321(19) 0.2978(12)
H34A H 0.6449 0.4687 0.2826
C35A C 0.680(2) 0.5782(19) 0.2480(13)
H35A H 0.6665 0.5479 0.2032
C36A C 0.7117(19) 0.6746(17) 0.2795(12)
H36A H 0.7119 0.7104 0.2539
C37A C 0.7716(15) 1.1348(13) 0.1222(9)
H37A H 0.7133 1.1460 0.1394
C38A C 0.9038(16) 1.0932(13) 0.1050(10)
H38A H 0.9573 1.0684 0.1071
C39A C 0.9548(15) 1.1507(13) 0.0184(9)
H39A H 1.0043 1.1165 0.0141
H40A H 0.9114 1.1268 -0.0229
C40A C 1.0117(16) 1.2524(14) 0.0321(10)
C41A C 1.0963(16) 1.3000(14) 0.0797(10)
H41A H 1.1189 1.2705 0.1047
C42A C 1.1462(18) 1.3902(15) 0.0899(11)
H42A H 1.2029 1.4205 0.1213
C43A C 1.1165(18) 1.4324(16) 0.0577(11)
H43A H 1.1526 1.4932 0.0661
C44A C 1.0321(18) 1.3928(15) 0.0099(10)
H44A H 1.0110 1.4257 -0.0129
C45A C 0.9798(17) 1.2989(14) -0.0018(10)
H45A H 0.9231 1.2693 -0.0332
N1A N 0.1873(10) 0.7035(11) 0.7124(7)
N2A N 0.2270(11) 0.6458(10) 0.7873(8)
N3A N 0.1260(10) 0.6382(10) 0.7798(7)
N4A N 0.3653(11) 0.9118(10) 0.5191(7)
N5A N 0.2651(9) 0.8314(9) 0.5705(6)
N6A N 0.2130(9) 0.8246(9) 0.5142(6)
N7A N 0.4617(12) 0.5516(9) 0.4285(7)
N8A N 0.4324(17) 0.5625(13) 0.3357(9)
N9A N 0.4624(12) 0.6464(10) 0.3750(8)
N10A N 0.7545(11) 0.9518(11) 0.2786(8)
N11A N 0.6552(9) 0.8681(10) 0.3298(7)
N12A N 0.7569(10) 0.8711(10) 0.3398(7)
N13A N 0.8255(11) 1.0877(12) 0.1428(8)
N14A N 0.8085(12) 1.1626(12) 0.0767(8)
N15A N 0.8944(11) 1.1356(10) 0.0673(7)
K1A K 0.7208(5) 1.2203(4) 0.0241(2)
O9_2 O 0.0787(9) 0.8615(10) 0.6472(6)
O9A_2 O 0.9213(9) 1.1385(10) 0.3528(6)
O23_2 O 0.7107(9) 1.1819(8) -0.0942(5)
O23A_2 O 0.2893(9) 0.8181(8) 1.0942(5)
Ag3_2 Ag 0.5000 0.5000 0.5000
Ag5_2 Ag -0.21515(10) 1.22992(10) 0.35801(7)
Ag5A_2 Ag 1.21515(10) 0.77008(10) 0.64199(7)
N7A_2 N 0.4617(12) 1.5516(9) 0.4285(7)
K1_2 K 0.2792(5) 0.7797(4) -0.0241(2)
K1A_2 K 0.7208(5) 1.2203(4) 1.0241(2)
loop_
_geom_bond_atom_site_label_1
_geom_bond_atom_site_label_2
_geom_bond_site_symmetry_1
_geom_bond_site_symmetry_2
Si1 O1 1_555 1_555
W1 O1 1_555 1_555
W2 O4 1_555 1_555
W3 O4 1_555 1_555
W4 O1 1_555 1_555
W5 O3 1_555 1_555
W6 O2 1_555 1_555
W7 O4 1_555 1_555
W8 O2 1_555 1_555
W9 O1 1_555 1_555
W10 O3 1_555 1_555
W11 O3 1_555 1_555
W12 O2 1_555 1_555
O2 Si1 1_555 1_555
O3 Si1 1_555 1_555
O4 Si1 1_555 1_555
O5 W2 1_555 1_555
O6 W1 1_555 1_555
O7 W3 1_555 1_555
O8 W10 1_555 1_555
O9 W3 1_555 1_555
O10 W6 1_555 1_555
O11 W8 1_555 1_555
O12 W5 1_555 1_555
O13 W1 1_555 1_555
O14 W5 1_555 1_555
O15 W3 1_555 1_555
O16 W2 1_555 1_555
O17 W8 1_555 1_555
O18 W6 1_555 1_555
O19 W5 1_555 1_555
O20 W1 1_555 1_555
O21 W5 1_555 1_555
O22 W4 1_555 1_555
O23 W9 1_555 1_555
O24 W4 1_555 1_555
O25 W6 1_555 1_555
O26 W4 1_555 1_555
O27 W1 1_555 1_555
O28 W12 1_555 1_555
O29 W2 1_555 1_555
O30 W10 1_555 1_555
O31 W1 1_555 1_555
O32 W7 1_555 1_555
O33 W6 1_555 1_555
O34 W8 1_555 1_555
O35 W7 1_555 1_555
O36 W2 1_555 1_555
O37 W6 1_555 1_555
O38 W11 1_555 1_555
O39 W5 1_555 1_555
O40 W2 1_555 1_555
Ag1 O19 1_555 1_555
Ag2 O34 1_555 1_555
Ag3 N7 1_555 1_555
Ag4 O18 1_555 1_555
Ag5 N1 1_555 1_555
C1 H1 1_555 1_555
C2 H2 1_555 1_555
C3 H3 1_555 1_555
H4 C3 1_555 1_555
C4 C3 1_555 1_555
C5 C4 1_555 1_555
H5 C5 1_555 1_555
C6 C5 1_555 1_555
H6 C6 1_555 1_555
C7 C6 1_555 1_555
H7 C7 1_555 1_555
C8 C7 1_555 1_555
H8 C8 1_555 1_555
C9 C4 1_555 1_555
H9 C9 1_555 1_555
C10 H10 1_555 1_555
C11 H11 1_555 1_555
C12 H12 1_555 1_555
H13 C12 1_555 1_555
C13 C12 1_555 1_555
C14 C13 1_555 1_555
H14 C14 1_555 1_555
C15 C14 1_555 1_555
H15 C15 1_555 1_555
C16 C15 1_555 1_555
H16 C16 1_555 1_555
C17 C16 1_555 1_555
H17 C17 1_555 1_555
C18 C13 1_555 1_555
H18 C18 1_555 1_555
C19 H19 1_555 1_555
C20 H20 1_555 1_555
C21 H21 1_555 1_555
H22 C21 1_555 1_555
C22 C21 1_555 1_555
C23 C22 1_555 1_555
H23 C23 1_555 1_555
C24 C23 1_555 1_555
H24 C24 1_555 1_555
C25 C24 1_555 1_555
H25 C25 1_555 1_555
C26 C25 1_555 1_555
H26 C26 1_555 1_555
C27 C22 1_555 1_555
H27 C27 1_555 1_555
C28 H28 1_555 1_555
C29 H29 1_555 1_555
C30 H30 1_555 1_555
H31 C30 1_555 1_555
C31 C30 1_555 1_555
C32 C31 1_555 1_555
H32 C32 1_555 1_555
C33 C32 1_555 1_555
H33 C33 1_555 1_555
C34 C33 1_555 1_555
H34 C34 1_555 1_555
C35 C34 1_555 1_555
H35 C35 1_555 1_555
C36 C31 1_555 1_555
H36 C36 1_555 1_555
C37 H37 1_555 1_555
C38 H38 1_555 1_555
C39 H39 1_555 1_555
H40 C39 1_555 1_555
C40 C39 1_555 1_555
C41 C40 1_555 1_555
H41 C41 1_555 1_555
C42 C41 1_555 1_555
H42 C42 1_555 1_555
C43 C42 1_555 1_555
H43 C43 1_555 1_555
C44 C43 1_555 1_555
H44 C44 1_555 1_555
C45 C40 1_555 1_555
H45 C45 1_555 1_555
N1 C1 1_555 1_555
N2 C1 1_555 1_555
N3 C2 1_555 1_555
N4 Ag4 1_555 1_555
N5 Ag5 1_555 1_555
N6 C11 1_555 1_555
N7 C19 1_555 1_555
N8 C20 1_555 1_555
N9 Ag2 1_555 1_555
N10 Ag1 1_555 1_555
N11 Ag2 1_555 1_555
N12 C28 1_555 1_555
N13 Ag1 1_555 1_555
N14 C37 1_555 1_555
N15 C38 1_555 1_555
K1 N14 1_555 1_555
Si1A O1A 1_555 1_555
W1A O1A 1_555 1_555
W2A O4A 1_555 1_555
W3A O4A 1_555 1_555
W4A O1A 1_555 1_555
W5A O3A 1_555 1_555
W6A O2A 1_555 1_555
W7A O4A 1_555 1_555
W8A O2A 1_555 1_555
W9A O1A 1_555 1_555
W10A O3A 1_555 1_555
W11A O3A 1_555 1_555
W12A O2A 1_555 1_555
O2A Si1A 1_555 1_555
O3A Si1A 1_555 1_555
O4A Si1A 1_555 1_555
O5A W2A 1_555 1_555
O6A W1A 1_555 1_555
O7A W3A 1_555 1_555
O8A W10A 1_555 1_555
O9A W3A 1_555 1_555
O10A Ag2 1_555 1_555
O11A W8A 1_555 1_555
O12A W5A 1_555 1_555
O13A W1A 1_555 1_555
O14A W5A 1_555 1_555
O15A W3A 1_555 1_555
O16A W2A 1_555 1_555
O17A W8A 1_555 1_555
O18A Ag4 1_555 1_555
O19A W5A 1_555 1_555
O20A W1A 1_555 1_555
O21A W5A 1_555 1_555
O22A W4A 1_555 1_555
O23A W9A 1_555 1_555
O24A W4A 1_555 1_555
O25A W6A 1_555 1_555
O26A W4A 1_555 1_555
O27A W1A 1_555 1_555
O28A W12A 1_555 1_555
O29A W2A 1_555 1_555
O30A W10A 1_555 1_555
O31A W1A 1_555 1_555
O32A W7A 1_555 1_555
O33A W6A 1_555 1_555
O34A W8A 1_555 1_555
O35A W7A 1_555 1_555
O36A W2A 1_555 1_555
O37A W6A 1_555 1_555
O38A W11A 1_555 1_555
O39A W5A 1_555 1_555
O40A W2A 1_555 1_555
Ag1A O19A 1_555 1_555
Ag2A O10 1_555 1_555
Ag5A N1A 1_555 1_555
C1A H1A 1_555 1_555
C2A H2A 1_555 1_555
C3A H3A 1_555 1_555
H4A C3A 1_555 1_555
C4A C3A 1_555 1_555
C5A C4A 1_555 1_555
H5A C5A 1_555 1_555
C6A C5A 1_555 1_555
H6A C6A 1_555 1_555
C7A C6A 1_555 1_555
H7A C7A 1_555 1_555
C8A C7A 1_555 1_555
H8A C8A 1_555 1_555
C9A C4A 1_555 1_555
H9A C9A 1_555 1_555
C10A H10A 1_555 1_555
C11A H11A 1_555 1_555
C12A H12A 1_555 1_555
H13A C12A 1_555 1_555
C13A C12A 1_555 1_555
C14A C13A 1_555 1_555
H14A C14A 1_555 1_555
C15A C14A 1_555 1_555
H15A C15A 1_555 1_555
C16A C15A 1_555 1_555
H16A C16A 1_555 1_555
C17A C16A 1_555 1_555
H17A C17A 1_555 1_555
C18A C13A 1_555 1_555
H18A C18A 1_555 1_555
C19A H19A 1_555 1_555
C20A H20A 1_555 1_555
C21A H21A 1_555 1_555
H22A C21A 1_555 1_555
C22A C21A 1_555 1_555
C23A C22A 1_555 1_555
H23A C23A 1_555 1_555
C24A C23A 1_555 1_555
H24A C24A 1_555 1_555
C25A C24A 1_555 1_555
H25A C25A 1_555 1_555
C26A C25A 1_555 1_555
H26A C26A 1_555 1_555
C27A C22A 1_555 1_555
H27A C27A 1_555 1_555
C28A H28A 1_555 1_555
C29A H29A 1_555 1_555
C30A H30A 1_555 1_555
H31A C30A 1_555 1_555
C31A C30A 1_555 1_555
C32A C31A 1_555 1_555
H32A C32A 1_555 1_555
C33A C32A 1_555 1_555
H33A C33A 1_555 1_555
C34A C33A 1_555 1_555
H34A C34A 1_555 1_555
C35A C34A 1_555 1_555
H35A C35A 1_555 1_555
C36A C31A 1_555 1_555
H36A C36A 1_555 1_555
C37A H37A 1_555 1_555
C38A H38A 1_555 1_555
C39A H39A 1_555 1_555
H40A C39A 1_555 1_555
C40A C39A 1_555 1_555
C41A C40A 1_555 1_555
H41A C41A 1_555 1_555
C42A C41A 1_555 1_555
H42A C42A 1_555 1_555
C43A C42A 1_555 1_555
H43A C43A 1_555 1_555
C44A C43A 1_555 1_555
H44A C44A 1_555 1_555
C45A C40A 1_555 1_555
H45A C45A 1_555 1_555
N1A C1A 1_555 1_555
N2A C1A 1_555 1_555
N3A C2A 1_555 1_555
N4A Ag4 1_555 1_555
N5A Ag5A 1_555 1_555
N6A C11A 1_555 1_555
N7A C19A 1_555 1_555
N8A C20A 1_555 1_555
N9A Ag2A 1_555 1_555
N10A Ag1A 1_555 1_555
N11A Ag2A 1_555 1_555
N12A C28A 1_555 1_555
N13A Ag1A 1_555 1_555
N14A C37A 1_555 1_555
N15A C38A 1_555 1_555
K1A N14A 1_555 1_555
O9_2 Ag5A 1_555 1_555
O9A_2 Ag5 1_555 1_555
O23_2 K1A 1_555 1_555
O23A_2 K1 1_555 1_555
Ag3_2 N7A 1_555 1_555
Ag5_2 O9A 1_555 1_555
Ag5A_2 O9 1_555 1_555
N7A_2 Ag3 1_555 1_555
K1_2 O23A 1_555 1_555
K1A_2 O23 1_555 1_555
W3 O5 1_555 1_555
W3 O31 1_555 1_555
W4 O13 1_555 1_555
W4 O29 1_555 1_555
W7 O7 1_555 1_555
W7 O16 1_555 1_555
W7 O37 1_555 1_555
W8 O18 1_555 1_555
W8 O39 1_555 1_555
W9 O12 1_555 1_555
W9 O17 1_555 1_555
W9 O20 1_555 1_555
W9 O22 1_555 1_555
W10 O14 1_555 1_555
W10 O24 1_555 1_555
W10 O36 1_555 1_555
W11 O8 1_555 1_555
W11 O21 1_555 1_555
W11 O33 1_555 1_555
W11 O35 1_555 1_555
W12 O11 1_555 1_555
W12 O15 1_555 1_555
W12 O25 1_555 1_555
W12 O27 1_555 1_555
C2 N1 1_555 1_555
C3 N3 1_555 1_555
C8 C9 1_555 1_555
C10 N4 1_555 1_555
C10 N5 1_555 1_555
C11 N4 1_555 1_555
C12 N6 1_555 1_555
C17 C18 1_555 1_555
C19 N9 1_555 1_555
C20 N7 1_555 1_555
C21 N8 1_555 1_555
C26 C27 1_555 1_555
C28 N10 1_555 1_555
C29 N10 1_555 1_555
C29 N11 1_555 1_555
C30 N12 1_555 1_555
C35 C36 1_555 1_555
C37 N13 1_555 1_555
C38 N13 1_555 1_555
C39 N15 1_555 1_555
C44 C45 1_555 1_555
N2 N3 1_555 1_555
N5 N6 1_555 1_555
N8 N9 1_555 1_555
N11 N12 1_555 1_555
N14 N15 1_555 1_555
W3A O5A 1_555 1_555
W3A O31A 1_555 1_555
W4A O13A 1_555 1_555
W4A O29A 1_555 1_555
W6A O10A 1_555 1_555
W6A O18A 1_555 1_555
W7A O7A 1_555 1_555
W7A O16A 1_555 1_555
W7A O37A 1_555 1_555
W8A O18A 1_555 1_555
W8A O39A 1_555 1_555
W9A O12A 1_555 1_555
W9A O17A 1_555 1_555
W9A O20A 1_555 1_555
W9A O22A 1_555 1_555
W10A O14A 1_555 1_555
W10A O24A 1_555 1_555
W10A O36A 1_555 1_555
W11A O8A 1_555 1_555
W11A O21A 1_555 1_555
W11A O33A 1_555 1_555
W11A O35A 1_555 1_555
W12A O11A 1_555 1_555
W12A O15A 1_555 1_555
W12A O25A 1_555 1_555
W12A O27A 1_555 1_555
O34A Ag2A 1_555 1_555
C2A N1A 1_555 1_555
C3A N3A 1_555 1_555
C8A C9A 1_555 1_555
C10A N4A 1_555 1_555
C10A N5A 1_555 1_555
C11A N4A 1_555 1_555
C12A N6A 1_555 1_555
C17A C18A 1_555 1_555
C19A N9A 1_555 1_555
C20A N7A 1_555 1_555
C21A N8A 1_555 1_555
C26A C27A 1_555 1_555
C28A N10A 1_555 1_555
C29A N10A 1_555 1_555
C29A N11A 1_555 1_555
C30A N12A 1_555 1_555
C35A C36A 1_555 1_555
C37A N13A 1_555 1_555
C38A N13A 1_555 1_555
C39A N15A 1_555 1_555
C44A C45A 1_555 1_555
N2A N3A 1_555 1_555
N5A N6A 1_555 1_555
N8A N9A 1_555 1_555
N11A N12A 1_555 1_555
N14A N15A 1_555 1_555

#END
