
#######################################################################
#
#                 Cambridge Crystallographic Data Centre
#                                CCDC 
#
#######################################################################
#
# If this CIF has been generated from an entry in the Cambridge 
# Structural Database, then it will include bibliographic, chemical, 
# crystal, experimental, refinement or atomic coordinate data resulting 
# from the CCDC's data processing and validation procedures.
#
#######################################################################

data_YUGTOL
_symmetry_cell_setting           monoclinic
_symmetry_space_group_name_H-M   'P 21/n'
_symmetry_Int_Tables_number      14
_space_group_name_Hall           '-P 2yn'
loop_
_symmetry_equiv_pos_site_id
_symmetry_equiv_pos_as_xyz
1 x,y,z
2 1/2-x,1/2+y,1/2-z
3 -x,-y,-z
4 1/2+x,1/2-y,1/2+z
_cell_length_a                   10.6557(4)
_cell_length_b                   13.8735(6)
_cell_length_c                   17.0837(7)
_cell_angle_alpha                90
_cell_angle_beta                 99.7230(10)
_cell_angle_gamma                90
_cell_volume                     2489.24
loop_
_atom_site_label
_atom_site_type_symbol
_atom_site_fract_x
_atom_site_fract_y
_atom_site_fract_z
Cu1 Cu -0.37114(4) 0.85355(3) 0.22530(2)
Mo1 Mo -0.16609(2) 1.018992(19) 0.487769(14)
N1 N -0.3360(2) 0.92116(19) 0.12996(14)
O1 O -0.2468(2) 0.76146(16) 0.19647(12)
Mo2 Mo -0.05009(2) 0.982887(19) 0.329392(14)
N2 N -0.2634(3) 0.9969(2) -0.00519(17)
O2 O -0.1953(2) 0.93234(17) 0.29574(12)
Mo3 Mo -0.05814(3) 1.22459(2) 0.596775(16)
N3 N -0.0962(3) 0.7459(2) 0.11989(17)
H1 H -0.0659 0.7669 0.0795
O3 O -0.0048(2) 0.45058(17) 0.25360(13)
O4 O -0.0157(2) 1.04904(18) 0.25234(13)
Mo4 Mo 0.06139(2) 1.182943(19) 0.435615(14)
N4 N 0.1374(3) 0.4870(2) 0.17470(17)
H2 H 0.1753 0.4684 0.1367
N5 N -0.0796(2) 0.29108(19) 0.18082(14)
O5 O -0.11470(18) 1.08216(14) 0.39694(11)
N6 N 0.0060(3) 0.2304(2) 0.04440(19)
O6 O -0.3071(2) 0.96848(17) 0.44886(13)
O7 O -0.20906(19) 1.12467(16) 0.53305(13)
O8 O -0.0608(2) 1.12230(16) 0.67303(12)
O9 O -0.1709(3) 1.30195(19) 0.61863(15)
C1 C -0.3874(3) 1.0028(2) 0.09839(19)
H3 H -0.4484 1.0347 0.1217
O10 O 0.0825(2) 1.27603(18) 0.63616(14)
O11 O 0.03830(17) 1.08283(14) 0.54266(10)
O12 O -0.0537(2) 1.25363(15) 0.48688(12)
C2 C -0.0757(3) 0.1800(3) 0.0777(2)
H4 H -0.1041 0.1214 0.0549
O13 O 0.2029(2) 1.22746(18) 0.48143(14)
O14 O 0.0361(2) 1.23643(18) 0.34444(13)
O15 O 0.12364(18) 1.05224(15) 0.41165(11)
C3 C -0.2466(3) 0.8782(2) 0.09584(17)
C4 C -0.2124(3) 0.9165(3) 0.0280(2)
H5 H -0.1513 0.8848 0.0047
C5 C 0.0079(3) 0.3419(2) 0.15007(19)
C6 C 0.1752(3) 0.5800(3) 0.2135(2)
H6 H 0.2666 0.5879 0.2178
H7 H 0.1552 0.5794 0.2668
C7 C -0.1951(3) 0.7896(2) 0.14034(18)
C8 C 0.1090(3) 0.6647(3) 0.1684(2)
H8 H 0.1284 0.6648 0.1149
H9 H 0.1418 0.7240 0.1941
C9 C -0.0352(3) 0.6620(3) 0.1639(2)
H10 H -0.0687 0.6031 0.1377
H11 H -0.0552 0.6618 0.2172
C10 C 0.0470(3) 0.3119(3) 0.0813(2)
H12 H 0.1043 0.3501 0.0597
C11 C 0.0489(3) 0.4312(2) 0.19516(19)
C12 C -0.1218(3) 0.2098(3) 0.1454(2)
H13 H -0.1818 0.1728 0.1655
C13 C -0.3500(4) 1.0401(3) 0.0310(2)
H14 H -0.3864 1.0975 0.0100
Cu1A Cu -0.12886(4) 0.35355(3) 0.27470(2)
Cu1A_2 Cu -0.12886(4) 1.35355(3) 0.27470(2)
Mo1B Mo 0.16609(2) 0.981008(19) 0.512231(14)
Mo2B Mo 0.05009(2) 1.017113(19) 0.670608(14)
O3A O -0.4952(2) 0.95058(17) 0.24640(13)
N5A N -0.4204(2) 0.79108(19) 0.31918(14)
O8B O 0.0608(2) 0.87770(16) 0.32697(12)
O11B O -0.03830(17) 0.91717(14) 0.45734(10)
O14A O -0.5361(2) 0.73643(18) 0.15556(13)
O15B O -0.12364(18) 0.94776(15) 0.58835(11)
O16 O 0.0813(5) 0.9402(4) 0.1134(3)
loop_
_geom_bond_atom_site_label_1
_geom_bond_atom_site_label_2
_geom_bond_site_symmetry_1
_geom_bond_site_symmetry_2
Cu1 N1 1_555 1_555
Mo1 O5 1_555 1_555
N1 C1 1_555 1_555
O1 Cu1 1_555 1_555
Mo2 O2 1_555 1_555
N2 C4 1_555 1_555
O2 Cu1 1_555 1_555
Mo3 O7 1_555 1_555
N3 H1 1_555 1_555
O3 C11 1_555 1_555
O4 Mo2 1_555 1_555
Mo4 O5 1_555 1_555
N4 H2 1_555 1_555
N5 C5 1_555 1_555
O5 Mo2 1_555 1_555
N6 C2 1_555 1_555
O6 Mo1 1_555 1_555
O7 Mo1 1_555 1_555
O8 Mo3 1_555 1_555
O9 Mo3 1_555 1_555
C1 H3 1_555 1_555
O10 Mo3 1_555 1_555
O11 Mo1 1_555 1_555
O12 Mo3 1_555 1_555
C2 H4 1_555 1_555
O13 Mo4 1_555 1_555
O14 Mo4 1_555 1_555
O15 Mo2 1_555 1_555
C3 N1 1_555 1_555
C4 C3 1_555 1_555
H5 C4 1_555 1_555
C5 C10 1_555 1_555
C6 N4 1_555 1_555
H6 C6 1_555 1_555
H7 C6 1_555 1_555
C7 O1 1_555 1_555
C8 C6 1_555 1_555
H8 C8 1_555 1_555
H9 C8 1_555 1_555
C9 N3 1_555 1_555
H10 C9 1_555 1_555
H11 C9 1_555 1_555
C10 N6 1_555 1_555
H12 C10 1_555 1_555
C11 N4 1_555 1_555
C12 N5 1_555 1_555
H13 C12 1_555 1_555
C13 N2 1_555 1_555
H14 C13 1_555 1_555
Cu1A O3 1_555 1_555
Cu1A_2 O14 1_555 1_555
Mo1B O11 1_555 1_555
Mo2B O8 1_555 1_555
O3A Cu1 1_555 1_555
N5A Cu1 1_555 1_555
O8B Mo2 1_555 1_555
O11B Mo1 1_555 1_555
O14A Cu1 1_555 1_555
O15B Mo1 1_555 1_555
Mo2 O11B 1_555 1_555
Mo3 O11 1_555 1_555
N3 C7 1_555 1_555
Mo4 O11 1_555 1_555
Mo4 O12 1_555 1_555
Mo4 O15 1_555 1_555
N5 Cu1A 1_555 1_555
C1 C13 1_555 1_555
O11 Mo2B 1_555 1_555
C2 C12 1_555 1_555
O15 Mo1B 1_555 1_555
C3 C7 1_555 1_555
C5 C11 1_555 1_555
C8 C9 1_555 1_555
Mo1B O11B 1_555 1_555
Mo2B O15B 1_555 1_555

#END
