
#######################################################################
#
#                 Cambridge Crystallographic Data Centre
#                                CCDC 
#
#######################################################################
#
# If this CIF has been generated from an entry in the Cambridge 
# Structural Database, then it will include bibliographic, chemical, 
# crystal, experimental, refinement or atomic coordinate data resulting 
# from the CCDC's data processing and validation procedures.
#
#######################################################################

data_YUGTUR
_symmetry_cell_setting           triclinic
_symmetry_space_group_name_H-M   'P -1'
_symmetry_Int_Tables_number      2
_space_group_name_Hall           '-P 1'
loop_
_symmetry_equiv_pos_site_id
_symmetry_equiv_pos_as_xyz
1 x,y,z
2 -x,-y,-z
_cell_length_a                   11.3935(6)
_cell_length_b                   11.8235(6)
_cell_length_c                   13.0713(6)
_cell_angle_alpha                63.6790(10)
_cell_angle_beta                 88.7650(10)
_cell_angle_gamma                82.9660(10)
_cell_volume                     1565.35
loop_
_atom_site_label
_atom_site_type_symbol
_atom_site_fract_x
_atom_site_fract_y
_atom_site_fract_z
Cu1 Cu 0.5000 0.5000 -0.5000
N1 N 0.3746(16) 0.4028(10) -0.5164(10)
C1 C 0.265(2) 0.4477(16) -0.5628(14)
H1 H 0.2400 0.5347 -0.5998
O23 O 0.5933(12) 0.3305(8) -0.4325(8)
O24 O 0.7947(10) 0.0208(13) 0.0545(14)
Cu2 Cu 1.0000 0.0000 0.0000
N2 N 0.2192(15) 0.2373(13) -0.5027(12)
C2 C 0.1898(19) 0.3623(17) -0.5541(13)
H2 H 0.1137 0.3938 -0.5862
O25 O 0.9554(7) -0.0054(8) -0.1409(7)
C3 C 0.3276(16) 0.1949(13) -0.4579(14)
H3 H 0.3506 0.1076 -0.4197
N3 N 0.5800(11) 0.1231(9) -0.3767(10)
H4 H 0.5366 0.0677 -0.3748
C4 C 0.4079(16) 0.2769(12) -0.4664(11)
N4 N 0.9526(11) 0.1022(12) -0.3317(9)
H5 H 0.9677 0.1705 -0.3894
N5 N 1.0162(8) 0.1787(9) -0.1048(8)
C5 C 0.5334(16) 0.2426(11) -0.4231(10)
C6 C 0.7012(14) 0.0769(13) -0.3274(11)
H6 H 0.6997 0.0022 -0.2548
H7 H 0.7313 0.1419 -0.3129
N6 N 1.0443(11) 0.4162(11) -0.2736(12)
C7 C 0.7826(15) 0.0443(14) -0.4036(12)
H8 H 0.7809 0.1175 -0.4777
H9 H 0.7556 -0.0245 -0.4143
C8 C 0.9094(16) 0.0043(16) -0.3536(13)
H10 H 0.9123 -0.0734 -0.2829
H11 H 0.9606 -0.0131 -0.4066
C9 C 0.9699(11) 0.0931(12) -0.2296(10)
C10 C 1.0038(10) 0.2033(11) -0.2148(10)
C11 C 1.0186(12) 0.3215(12) -0.2989(12)
H12 H 1.0109 0.3376 -0.3750
C12 C 1.0568(11) 0.3891(12) -0.1661(14)
H13 H 1.0761 0.4514 -0.1466
C13 C 1.0422(10) 0.2702(12) -0.0802(12)
H14 H 1.0506 0.2544 -0.0042
N1A N 0.6254(16) 0.5972(10) -0.4836(10)
C1A C 0.735(2) 0.5523(16) -0.4372(14)
H1A H 0.7600 0.4653 -0.4002
O23A O 0.4067(12) 0.6695(8) -0.5675(8)
N2A N 0.7808(15) 0.7627(13) -0.4973(12)
C2A C 0.8102(19) 0.6377(17) -0.4459(13)
H2A H 0.8863 0.6062 -0.4138
O25A O 0.0446(7) 1.0054(8) -0.8591(7)
C3A C 0.6724(16) 0.8051(13) -0.5421(14)
H3A H 0.6494 0.8924 -0.5803
N3A N 0.4200(11) 0.8769(9) -0.6233(10)
H4A H 0.4634 0.9323 -0.6252
C4A C 0.5921(16) 0.7231(12) -0.5336(11)
N4A N 0.0474(11) 0.8978(12) -0.6683(9)
H5A H 0.0323 0.8295 -0.6106
N5A N -0.0162(8) 0.8213(9) -0.8952(8)
C5A C 0.4666(16) 0.7574(11) -0.5769(10)
C6A C 0.2988(14) 0.9231(13) -0.6726(11)
H6A H 0.3003 0.9978 -0.7452
H7A H 0.2687 0.8581 -0.6871
N6A N -0.0443(11) 0.5838(11) -0.7264(12)
C7A C 0.2174(15) 0.9557(14) -0.5964(12)
H8A H 0.2191 0.8825 -0.5223
H9A H 0.2444 1.0245 -0.5857
C8A C 0.0906(16) 0.9957(16) -0.6464(13)
H10A H 0.0877 1.0734 -0.7171
H11A H 0.0394 1.0131 -0.5934
C9A C 0.0301(11) 0.9069(12) -0.7704(10)
C10A C -0.0038(10) 0.7967(11) -0.7852(10)
C11A C -0.0186(12) 0.6785(12) -0.7011(12)
H12A H -0.0109 0.6624 -0.6250
C12A C -0.0568(11) 0.6109(12) -0.8339(14)
H13A H -0.0761 0.5486 -0.8534
C13A C -0.0422(10) 0.7298(12) -0.9198(12)
H14A H -0.0506 0.7456 -0.9958
O24A O 1.2053(10) -0.0208(13) -0.0545(14)
Cu2_2 Cu 0.0000 1.0000 -1.0000
O25A_2 O 1.0446(7) 0.0054(8) 0.1409(7)
N5A_2 N 0.9838(8) -0.1787(9) 0.1048(8)
O26 O 0.912(2) 0.316(3) -0.5520(19)
Mo1 Mo 0.51533(8) 0.23286(8) 0.26736(7)
Si1 Si 0.5000 0.5000 0.0000
Mo2 Mo 0.36702(8) 0.49131(8) -0.23554(7)
Mo3 Mo 0.77509(9) 0.31605(8) 0.11531(8)
O1 O 0.3135(12) 0.4927(13) -0.3527(9)
Mo4 Mo 0.42062(9) 0.20957(9) 0.02246(11)
O2 O 0.5332(10) 0.4271(10) -0.2445(13)
Mo5 Mo 0.65965(13) 0.34642(10) -0.14577(10)
O3 O 0.7365(7) 0.2665(8) -0.2063(7)
Mo6 Mo 0.76317(11) 0.61101(12) -0.13370(10)
O4 O 0.7366(19) 0.4827(11) -0.1899(8)
O5 O 0.8816(7) 0.6598(9) -0.2073(7)
O6 O 0.6430(8) 0.7134(16) -0.2565(13)
O7 O 0.8262(19) 0.4761(11) -0.0032(8)
O8 O 0.9057(8) 0.2384(9) 0.1673(12)
O9 O 0.7545(7) 0.4201(8) 0.1989(8)
O10 O 0.6761(7) 0.2126(8) 0.2135(8)
O11 O 0.5624(7) 0.3433(8) 0.3123(8)
O12 O 0.5258(13) 0.0980(8) 0.3875(8)
O13 O 0.4824(8) 0.1560(17) 0.1634(13)
O14 O 0.3711(9) 0.0818(7) 0.0272(7)
O15 O 0.7274(8) 0.7215(16) -0.0754(12)
O16 O 0.3434(10) 0.3364(10) -0.1279(12)
O17 O 0.4784(10) 0.4229(11) -0.0765(10)
O18 O 0.5569(10) 0.2150(10) -0.0504(13)
O19 O 0.4495(10) 0.3674(11) 0.0877(10)
O20 O 0.5683(10) 0.4220(10) 0.1094(10)
O21 O 0.7504(19) 0.2703(12) 0.0011(9)
O22 O 0.6425(11) 0.4503(11) -0.0228(10)
O17A O 0.5216(10) 0.5771(11) 0.0765(10)
O19A O 0.5505(10) 0.6326(11) -0.0877(10)
O20A O 0.4317(10) 0.5780(10) -0.1094(10)
O22A O 0.3575(11) 0.5497(11) 0.0228(10)
Mo1A Mo 0.48467(8) 0.76714(8) -0.26736(7)
Mo2A Mo 0.63298(8) 0.50869(8) 0.23554(7)
Mo3A Mo 0.22491(9) 0.68395(8) -0.11531(8)
O1A O 0.6865(12) 0.5073(13) 0.3527(9)
Mo4A Mo 0.57938(9) 0.79043(9) -0.02246(11)
O2A O 0.4668(10) 0.5729(10) 0.2445(13)
Mo5A Mo 0.34035(13) 0.65358(10) 0.14577(10)
O3A O 0.2635(7) 0.7335(8) 0.2063(7)
Mo6A Mo 0.23683(11) 0.38899(12) 0.13370(10)
O4A O 0.2634(19) 0.5173(11) 0.1899(8)
O5A O 0.1184(7) 0.3402(9) 0.2073(7)
O6A O 0.3570(8) 0.2866(16) 0.2565(13)
O7A O 0.1738(19) 0.5239(11) 0.0032(8)
O8A O 0.0943(8) 0.7616(9) -0.1673(12)
O9A O 0.2455(7) 0.5799(8) -0.1989(8)
O10A O 0.3239(7) 0.7874(8) -0.2135(8)
O11A O 0.4376(7) 0.6567(8) -0.3123(8)
O12A O 0.4742(13) 0.9020(8) -0.3875(8)
O13A O 0.5176(8) 0.8440(17) -0.1634(13)
O14A O 0.6289(9) 0.9182(7) -0.0272(7)
O15A O 0.2726(8) 0.2785(16) 0.0754(12)
O16A O 0.6566(10) 0.6636(10) 0.1279(12)
O18A O 0.4431(10) 0.7850(10) 0.0504(13)
O21A O 0.2496(19) 0.7297(12) -0.0011(9)
loop_
_geom_bond_atom_site_label_1
_geom_bond_atom_site_label_2
_geom_bond_site_symmetry_1
_geom_bond_site_symmetry_2
Mo1 O10 1_555 1_555
Si1 O17 1_555 1_555
Mo2 O1 1_555 1_555
Mo3 O7 1_555 1_555
Mo4 O13 1_555 1_555
O2 Mo2 1_555 1_555
Mo5 O2 1_555 1_555
O3 Mo5 1_555 1_555
Mo6 O4 1_555 1_555
O4 Mo5 1_555 1_555
O5 Mo6 1_555 1_555
O6 Mo6 1_555 1_555
O7 Mo6 1_555 1_555
O8 Mo3 1_555 1_555
O9 Mo3 1_555 1_555
O10 Mo3 1_555 1_555
O11 Mo1 1_555 1_555
O12 Mo1 1_555 1_555
O13 Mo1 1_555 1_555
O14 Mo4 1_555 1_555
O15 Mo6 1_555 1_555
O16 Mo2 1_555 1_555
O17 Mo2 1_555 1_555
O18 Mo4 1_555 1_555
O19 Mo1 1_555 1_555
O20 Mo1 1_555 1_555
O21 Mo3 1_555 1_555
O22 Si1 1_555 1_555
Cu1 N1 1_555 1_555
N1 C1 1_555 1_555
C1 H1 1_555 1_555
O23 Cu1 1_555 1_555
O24 Cu2 1_555 1_555
Cu2 O25 1_555 1_555
N2 C2 1_555 1_555
C2 C1 1_555 1_555
H2 C2 1_555 1_555
O25 C9 1_555 1_555
C3 N2 1_555 1_555
H3 C3 1_555 1_555
N3 H4 1_555 1_555
C4 N1 1_555 1_555
N4 H5 1_555 1_555
N5 Cu2 1_555 1_555
C5 O23 1_555 1_555
C6 N3 1_555 1_555
H6 C6 1_555 1_555
H7 C6 1_555 1_555
N6 C11 1_555 1_555
C7 C6 1_555 1_555
H8 C7 1_555 1_555
H9 C7 1_555 1_555
C8 N4 1_555 1_555
H10 C8 1_555 1_555
H11 C8 1_555 1_555
C9 N4 1_555 1_555
C10 N5 1_555 1_555
C11 C10 1_555 1_555
H12 C11 1_555 1_555
C12 N6 1_555 1_555
H13 C12 1_555 1_555
C13 N5 1_555 1_555
H14 C13 1_555 1_555
O17A Si1 1_555 1_555
O19A Si1 1_555 1_555
O20A Si1 1_555 1_555
O22A Si1 1_555 1_555
Mo1A O6 1_555 1_555
Mo2A O9 1_555 1_555
Mo3A O20A 1_555 1_555
O1A Mo2A 1_555 1_555
Mo4A O15 1_555 1_555
O2A Mo2A 1_555 1_555
Mo5A O17A 1_555 1_555
O3A Mo5A 1_555 1_555
Mo6A O19 1_555 1_555
O4A Mo5A 1_555 1_555
O5A Mo6A 1_555 1_555
O6A Mo1 1_555 1_555
O7A Mo3A 1_555 1_555
O8A Mo3A 1_555 1_555
O9A Mo2 1_555 1_555
O10A Mo1A 1_555 1_555
O11A Mo2 1_555 1_555
O12A Mo1A 1_555 1_555
O13A Mo1A 1_555 1_555
O14A Mo4A 1_555 1_555
O15A Mo4 1_555 1_555
O16A Mo2A 1_555 1_555
O18A Mo4A 1_555 1_555
O21A Mo3A 1_555 1_555
N1A Cu1 1_555 1_555
C1A N1A 1_555 1_555
H1A C1A 1_555 1_555
O23A Cu1 1_555 1_555
N2A C2A 1_555 1_555
C2A C1A 1_555 1_555
H2A C2A 1_555 1_555
O25A C9A 1_555 1_555
C3A N2A 1_555 1_555
H3A C3A 1_555 1_555
N3A H4A 1_555 1_555
C4A N1A 1_555 1_555
N4A H5A 1_555 1_555
N5A C10A 1_555 1_555
C5A O23A 1_555 1_555
C6A N3A 1_555 1_555
H6A C6A 1_555 1_555
H7A C6A 1_555 1_555
N6A C11A 1_555 1_555
C7A C6A 1_555 1_555
H8A C7A 1_555 1_555
H9A C7A 1_555 1_555
C8A N4A 1_555 1_555
H10A C8A 1_555 1_555
H11A C8A 1_555 1_555
C9A N4A 1_555 1_555
C10A C9A 1_555 1_555
C11A C10A 1_555 1_555
H12A C11A 1_555 1_555
C12A N6A 1_555 1_555
H13A C12A 1_555 1_555
C13A N5A 1_555 1_555
H14A C13A 1_555 1_555
O24A Cu2 1_555 1_555
Cu2_2 O25A 1_555 1_555
O25A_2 Cu2 1_555 1_555
N5A_2 Cu2 1_555 1_555
Si1 O19 1_555 1_555
Si1 O20 1_555 1_555
Mo2 O20A 1_555 1_555
Mo3 O20 1_555 1_555
Mo3 O22 1_555 1_555
Mo4 O16 1_555 1_555
Mo4 O17 1_555 1_555
Mo4 O19 1_555 1_555
Mo5 O17 1_555 1_555
Mo5 O18 1_555 1_555
Mo5 O21 1_555 1_555
Mo5 O22 1_555 1_555
Mo6 O22 1_555 1_555
Mo6 O19A 1_555 1_555
O11 Mo2A 1_555 1_555
O20 Mo2A 1_555 1_555
C3 C4 1_555 1_555
N3 C5 1_555 1_555
C4 C5 1_555 1_555
C7 C8 1_555 1_555
C9 C10 1_555 1_555
C12 C13 1_555 1_555
O17A Mo2A 1_555 1_555
O17A Mo4A 1_555 1_555
O19A Mo1A 1_555 1_555
O19A Mo4A 1_555 1_555
O20A Mo1A 1_555 1_555
O22A Mo3A 1_555 1_555
O22A Mo5A 1_555 1_555
O22A Mo6A 1_555 1_555
Mo1A O11A 1_555 1_555
Mo3A O9A 1_555 1_555
Mo3A O10A 1_555 1_555
Mo4A O13A 1_555 1_555
Mo4A O16A 1_555 1_555
O2A Mo5A 1_555 1_555
Mo5A O18A 1_555 1_555
Mo5A O21A 1_555 1_555
Mo6A O4A 1_555 1_555
Mo6A O6A 1_555 1_555
Mo6A O7A 1_555 1_555
Mo6A O15A 1_555 1_555
C3A C4A 1_555 1_555
N3A C5A 1_555 1_555
C4A C5A 1_555 1_555
N5A Cu2_2 1_555 1_555
C7A C8A 1_555 1_555
C12A C13A 1_555 1_555

#END
