
#######################################################################
#
#                 Cambridge Crystallographic Data Centre
#                                CCDC 
#
#######################################################################
#
# If this CIF has been generated from an entry in the Cambridge 
# Structural Database, then it will include bibliographic, chemical, 
# crystal, experimental, refinement or atomic coordinate data resulting 
# from the CCDC's data processing and validation procedures.
#
#######################################################################

data_YUGTAV
_symmetry_cell_setting           monoclinic
_symmetry_space_group_name_H-M   'P 21/n'
_symmetry_Int_Tables_number      14
_space_group_name_Hall           '-P 2yn'
loop_
_symmetry_equiv_pos_site_id
_symmetry_equiv_pos_as_xyz
1 x,y,z
2 1/2-x,1/2+y,1/2-z
3 -x,-y,-z
4 1/2+x,1/2-y,1/2+z
_cell_length_a                   6.657(8)
_cell_length_b                   6.23(1)
_cell_length_c                   24.067(8)
_cell_angle_alpha                90
_cell_angle_beta                 91.77(7)
_cell_angle_gamma                90
_cell_volume                     997.657
loop_
_atom_site_label
_atom_site_type_symbol
_atom_site_fract_x
_atom_site_fract_y
_atom_site_fract_z
Cu1 Cu 0.29817(7) 0.05192(7) 0.70788(2)
Cl1 Cl 0.2647(2) -0.0845(1) 0.79488(3)
S1 S 0.1112(1) -0.0920(1) 0.63262(3)
S2 S 0.6024(1) -0.0630(1) 0.66867(3)
S3 S 0.2370(1) -0.3422(2) 0.53436(4)
S4 S 0.6689(1) -0.3411(2) 0.56823(4)
C1 C 0.4802(5) -0.4351(6) 0.5212(1)
C2 C 0.5025(5) -0.2040(5) 0.6111(1)
C3 C 0.3074(5) -0.2059(5) 0.5956(1)
C4 C 0.7003(6) -0.2794(7) 0.7109(2)
C5 C 0.0491(7) 0.1332(7) 0.5887(2)
H1 H 0.5932 -0.3759 0.7209
H2 H 0.7977 -0.3600 0.6919
H3 H 0.7604 -0.2259 0.7449
H4 H 0.1631 0.2237 0.5853
H5 H 0.0079 0.0834 0.5525
H6 H -0.0578 0.2130 0.6039
Cl1A Cl 0.2353(2) 0.4155(1) 0.70512(3)
Cu1A Cu 0.20183(7) -0.44808(7) 0.79212(2)
C1B C 0.5198(5) -0.5649(6) 0.4788(1)
S3B S 0.7630(1) -0.6578(2) 0.46564(4)
S4B S 0.3311(1) -0.6589(2) 0.43177(4)
C3B C 0.6926(5) -0.7941(5) 0.4044(1)
C2B C 0.4975(5) -0.7960(5) 0.3889(1)
S1B S 0.8888(1) -0.9080(1) 0.36738(3)
S2B S 0.3976(1) -0.9370(1) 0.33133(3)
Cu1B Cu 0.70183(7) -1.05192(7) 0.29212(2)
C5B C 0.9509(7) -1.1332(7) 0.4113(2)
C4B C 0.2997(6) -0.7206(7) 0.2891(2)
Cl1B Cl 0.7353(2) -0.9155(1) 0.20512(3)
Cl1C Cl 0.7647(2) -1.4155(1) 0.29488(3)
H4B H 0.8369 -1.2237 0.4147
H5B H 0.9921 -1.0834 0.4475
H6B H 1.0578 -1.2130 0.3961
H1B H 0.4068 -0.6241 0.2791
H2B H 0.2023 -0.6400 0.3081
H3B H 0.2396 -0.7741 0.2551
Cu1C Cu 0.79817(7) -0.55192(7) 0.20788(2)
loop_
_geom_bond_atom_site_label_1
_geom_bond_atom_site_label_2
_geom_bond_site_symmetry_1
_geom_bond_site_symmetry_2
Cu1 Cl1 1_555 1_555
Cl1 Cu1A 1_555 1_555
S1 Cu1 1_555 1_555
S2 Cu1 1_555 1_555
S3 C1 1_555 1_555
S4 C1 1_555 1_555
C1 C1B 1_555 1_555
C2 S2 1_555 1_555
C3 S1 1_555 1_555
C4 S2 1_555 1_555
C5 S1 1_555 1_555
H1 C4 1_555 1_555
H2 C4 1_555 1_555
H3 C4 1_555 1_555
H4 C5 1_555 1_555
H5 C5 1_555 1_555
H6 C5 1_555 1_555
Cl1A Cu1 1_555 1_555
C1B S3B 1_555 1_555
S3B C3B 1_555 1_555
S4B C1B 1_555 1_555
C3B C2B 1_555 1_555
C2B S4B 1_555 1_555
S1B C3B 1_555 1_555
S2B C2B 1_555 1_555
Cu1B S1B 1_555 1_555
C5B S1B 1_555 1_555
C4B S2B 1_555 1_555
Cl1B Cu1B 1_555 1_555
Cl1C Cu1B 1_555 1_555
H4B C5B 1_555 1_555
H5B C5B 1_555 1_555
H6B C5B 1_555 1_555
H1B C4B 1_555 1_555
H2B C4B 1_555 1_555
H3B C4B 1_555 1_555
Cu1C Cl1B 1_555 1_555
S3 C3 1_555 1_555
S4 C2 1_555 1_555
C2 C3 1_555 1_555
S2B Cu1B 1_555 1_555

#END
