
#######################################################################
#
#                 Cambridge Crystallographic Data Centre
#                                CCDC 
#
#######################################################################
#
# If this CIF has been generated from an entry in the Cambridge 
# Structural Database, then it will include bibliographic, chemical, 
# crystal, experimental, refinement or atomic coordinate data resulting 
# from the CCDC's data processing and validation procedures.
#
#######################################################################

data_YUGTEZ
_symmetry_cell_setting           monoclinic
_symmetry_space_group_name_H-M   'C 2/c'
_symmetry_Int_Tables_number      15
_space_group_name_Hall           '-C 2yn'
loop_
_symmetry_equiv_pos_site_id
_symmetry_equiv_pos_as_xyz
1 x,y,z
2 -x,y,1/2-z
3 1/2+x,1/2+y,z
4 1/2-x,1/2+y,1/2-z
5 -x,-y,-z
6 x,-y,1/2+z
7 1/2-x,1/2-y,-z
8 1/2+x,1/2-y,1/2+z
_cell_length_a                   15.443(3)
_cell_length_b                   4.906(4)
_cell_length_c                   26.686(3)
_cell_angle_alpha                90
_cell_angle_beta                 96.36(1)
_cell_angle_gamma                90
_cell_volume                     2009.38
loop_
_atom_site_label
_atom_site_type_symbol
_atom_site_fract_x
_atom_site_fract_y
_atom_site_fract_z
Br1 Br 0.85137(5) 0.4840(2) 0.73893(2)
Cu1 Cu 0.72177(6) 0.2588(2) 0.70370(3)
S1 S 0.6057(1) 0.5063(4) 0.65362(5)
S2 S 0.7554(1) 0.0567(4) 0.62628(5)
S3 S 0.4968(1) 0.3008(4) 0.56044(6)
S4 S 0.6348(1) -0.0731(4) 0.53341(6)
C1 C 0.5280(4) 0.044(1) 0.5194(2)
C2 C 0.6550(4) 0.112(1) 0.5898(2)
C3 C 0.5930(4) 0.280(1) 0.6021(2)
C4 C 0.8224(4) 0.306(2) 0.5989(3)
C5 C 0.5063(5) 0.442(2) 0.6820(2)
H1 H 0.5043 0.5516 0.7116
H2 H 0.4563 0.4805 0.6591
H3 H 0.5036 0.2536 0.6921
H4 H 0.8808 0.3008 0.6151
H5 H 0.8237 0.2723 0.5638
H6 H 0.7998 0.4863 0.6028
Cu1C Cu 0.77823(6) 0.7588(2) 0.79630(3)
Br1C Br 0.64863(5) -0.0160(2) 0.76107(2)
C1D C 0.4720(4) -0.044(1) 0.4806(2)
S3D S 0.5032(1) -0.3008(4) 0.43956(6)
S4D S 0.3652(1) 0.0731(4) 0.46659(6)
C3D C 0.4070(4) -0.280(1) 0.3979(2)
C2D C 0.3450(4) -0.112(1) 0.4102(2)
S1D S 0.3943(1) -0.5063(4) 0.34638(5)
S2D S 0.2446(1) -0.0567(4) 0.37372(5)
Cu1D Cu 0.27823(6) -0.2588(2) 0.29630(3)
C5D C 0.4937(5) -0.442(2) 0.3180(2)
C4D C 0.1776(4) -0.306(2) 0.4011(3)
Br1D Br 0.14863(5) -0.4840(2) 0.26107(2)
Br1G Br 0.35137(5) 0.0160(2) 0.23893(2)
H1D H 0.4957 -0.5516 0.2884
H2D H 0.5437 -0.4805 0.3409
H3D H 0.4964 -0.2536 0.3079
H4D H 0.1192 -0.3008 0.3849
H5D H 0.1763 -0.2723 0.4362
H6D H 0.2002 -0.4863 0.3972
Cu1G Cu 0.22177(6) -0.7588(2) 0.20370(3)
loop_
_geom_bond_atom_site_label_1
_geom_bond_atom_site_label_2
_geom_bond_site_symmetry_1
_geom_bond_site_symmetry_2
Br1 Cu1 1_555 1_555
Cu1 S1 1_555 1_555
S1 C3 1_555 1_555
S2 Cu1 1_555 1_555
S3 C1 1_555 1_555
S4 C1 1_555 1_555
C1 C1D 1_555 1_555
C2 S2 1_555 1_555
C3 S3 1_555 1_555
C4 S2 1_555 1_555
C5 S1 1_555 1_555
H1 C5 1_555 1_555
H2 C5 1_555 1_555
H3 C5 1_555 1_555
H4 C4 1_555 1_555
H5 C4 1_555 1_555
H6 C4 1_555 1_555
Cu1C Br1 1_555 1_555
Br1C Cu1 1_555 1_555
C1D S3D 1_555 1_555
S3D C3D 1_555 1_555
S4D C1D 1_555 1_555
C3D C2D 1_555 1_555
C2D S4D 1_555 1_555
S1D C3D 1_555 1_555
S2D C2D 1_555 1_555
Cu1D S1D 1_555 1_555
C5D S1D 1_555 1_555
C4D S2D 1_555 1_555
Br1D Cu1D 1_555 1_555
Br1G Cu1D 1_555 1_555
H1D C5D 1_555 1_555
H2D C5D 1_555 1_555
H3D C5D 1_555 1_555
H4D C4D 1_555 1_555
H5D C4D 1_555 1_555
H6D C4D 1_555 1_555
Cu1G Br1D 1_555 1_555
S4 C2 1_555 1_555
C2 C3 1_555 1_555
S2D Cu1D 1_555 1_555

#END
