
#######################################################################
#
#                 Cambridge Crystallographic Data Centre
#                                CCDC 
#
#######################################################################
#
# If this CIF has been generated from an entry in the Cambridge 
# Structural Database, then it will include bibliographic, chemical, 
# crystal, experimental, refinement or atomic coordinate data resulting 
# from the CCDC's data processing and validation procedures.
#
#######################################################################

data_YUGVAZ
_symmetry_cell_setting           triclinic
_symmetry_space_group_name_H-M   'P -1'
_symmetry_Int_Tables_number      2
_space_group_name_Hall           '-P 1'
loop_
_symmetry_equiv_pos_site_id
_symmetry_equiv_pos_as_xyz
1 x,y,z
2 -x,-y,-z
_cell_length_a                   12.3112(7)
_cell_length_b                   12.7440(8)
_cell_length_c                   13.6911(9)
_cell_angle_alpha                110.9730(10)
_cell_angle_beta                 95.1360(10)
_cell_angle_gamma                117.4280(10)
_cell_volume                     1694.34
loop_
_atom_site_label
_atom_site_type_symbol
_atom_site_fract_x
_atom_site_fract_y
_atom_site_fract_z
O23 O -0.1481(7) -0.5614(7) -0.4494(6)
N1 N -0.5644(9) -0.1217(10) 0.0686(7)
C1 C -0.5126(12) -0.1956(13) 0.0544(10)
Cu1 Cu -0.5000 0.0000 0.0000
N2 N -0.3250(9) -0.8257(10) -0.8322(8)
C2 C -0.424(2) -0.608(2) -0.3501(17)
H1 H -0.5020 -0.6453 -0.3365
O24 O -0.3969(8) -0.0797(8) -0.0396(7)
N3 N -0.6518(16) -0.3225(17) 0.1295(15)
C3 C -0.5582(15) -0.2985(16) 0.0819(13)
H2 H -0.5239 -0.3519 0.0674
N4 N -0.1245(8) -0.6359(8) -0.6435(7)
C4 C -0.6982(16) -0.2446(18) 0.1490(13)
H3 H -0.7601 -0.2567 0.1853
C5 C -0.6562(13) -0.1448(14) 0.1161(11)
H4 H -0.6929 -0.0936 0.1277
N5 N -0.3427(13) -0.2156(14) -0.0130(10)
H5 H -0.3565 -0.2709 0.0134
C6 C -0.1031(11) -0.6688(11) -0.7420(9)
H6 H -0.0205 -0.6264 -0.7471
N6 N -0.3574(8) -0.7148(9) -0.5033(8)
H7 H -0.4262 -0.7742 -0.5578
C7 C -0.2061(11) -0.7665(12) -0.8349(10)
H8 H -0.1908 -0.7915 -0.9024
C8 C -0.3451(11) -0.7954(11) -0.7354(9)
H9 H -0.4280 -0.8395 -0.7314
C9 C -0.2453(9) -0.6997(10) -0.6409(8)
C10 C -0.2513(9) -0.6549(9) -0.5252(8)
C11 C -0.368(3) -0.491(4) -0.333(3)
H10 H -0.3110 -0.4666 -0.3717
C12 C -0.4148(12) -0.1624(14) -0.0018(10)
C13 C -0.258(3) -0.305(3) -0.150(3)
H11 H -0.2641 -0.3650 -0.1202
H12 H -0.1838 -0.2811 -0.1765
C14 C -0.385(3) -0.378(3) -0.251(3)
H13 H -0.4624 -0.4143 -0.2303
H14 H -0.3843 -0.3199 -0.2813
C15 C -0.3677(14) -0.6880(16) -0.3918(12)
H15 H -0.2824 -0.6435 -0.3416
H16 H -0.4193 -0.7722 -0.3906
C16 C -0.2427(16) -0.1880(17) -0.0660(13)
H17 H -0.2423 -0.1311 -0.0978
H18 H -0.1599 -0.1402 -0.0108
Cu2 Cu 0.0000 -0.5000 -0.5000
O23A O -0.8519(7) -0.4386(7) -0.5506(6)
N1A N -0.4356(9) -0.8783(10) -1.0686(7)
C1A C -0.4874(12) -0.8044(13) -1.0544(10)
N2A N -0.6750(9) -0.1743(10) -0.1678(8)
C2A C -0.576(2) -0.392(2) -0.6499(17)
H1A H -0.4980 -0.3547 -0.6635
O24A O -0.6031(8) -0.9203(8) -0.9604(7)
N3A N -0.3482(16) -0.6775(17) -1.1295(15)
C3A C -0.4418(15) -0.7015(16) -1.0819(13)
H2A H -0.4761 -0.6481 -1.0674
N4A N -0.8755(8) -0.3641(8) -0.3565(7)
C4A C -0.3018(16) -0.7554(18) -1.1490(13)
H3A H -0.2399 -0.7433 -1.1853
C5A C -0.3438(13) -0.8552(14) -1.1161(11)
H4A H -0.3071 -0.9064 -1.1277
N5A N -0.6573(13) -0.7844(14) -0.9870(10)
H5A H -0.6435 -0.7291 -1.0134
C6A C -0.8969(11) -0.3312(11) -0.2580(9)
H6A H -0.9795 -0.3736 -0.2529
N6A N -0.6426(8) -0.2852(9) -0.4967(8)
H7A H -0.5738 -0.2258 -0.4422
C7A C -0.7939(11) -0.2335(12) -0.1651(10)
H8A H -0.8092 -0.2085 -0.0976
C8A C -0.6549(11) -0.2046(11) -0.2646(9)
H9A H -0.5720 -0.1605 -0.2686
C9A C -0.7547(9) -0.3003(10) -0.3591(8)
C10A C -0.7487(9) -0.3451(9) -0.4748(8)
C11A C -0.632(3) -0.509(4) -0.667(3)
H10A H -0.6890 -0.5334 -0.6283
C12A C -0.5852(12) -0.8376(14) -0.9982(10)
C13A C -0.742(3) -0.695(3) -0.850(3)
H11A H -0.7359 -0.6350 -0.8798
H12A H -0.8162 -0.7189 -0.8235
C14A C -0.615(3) -0.622(3) -0.749(3)
H13A H -0.5376 -0.5857 -0.7697
H14A H -0.6157 -0.6801 -0.7187
C15A C -0.6323(14) -0.3120(16) -0.6082(12)
H15A H -0.7176 -0.3565 -0.6584
H16A H -0.5807 -0.2278 -0.6094
C16A C -0.7573(16) -0.8120(17) -0.9340(13)
H17A H -0.7577 -0.8689 -0.9022
H18A H -0.8401 -0.8598 -0.9892
O23A_2 O 0.1481(7) -0.4386(7) -0.5506(6)
N1A_2 N -0.4356(9) 0.1217(10) -0.0686(7)
Cu1_2 Cu -0.5000 -1.0000 -1.0000
N2_2 N -0.3250(9) 0.1743(10) 0.1678(8)
O24A_2 O -0.6031(8) 0.0797(8) 0.0396(7)
N4A_2 N 0.1245(8) -0.3641(8) -0.3565(7)
Cu2_2 Cu -1.0000 -0.5000 -0.5000
O25 O -0.063(3) 0.170(3) 0.949(3)
Mo1 Mo -0.24366(9) -0.06625(10) 0.62724(9)
Mo2 Mo 0.05176(10) -0.25406(10) 0.35325(9)
Mo3 Mo -0.28047(9) -0.01340(10) 0.39294(9)
O1 O -0.0675(12) -0.1591(14) 0.4113(13)
Mo4 Mo 0.02161(11) -0.08693(11) 0.71474(9)
O2 O -0.0955(13) -0.0283(13) 0.3924(11)
Mo5 Mo -0.21145(9) -0.32624(10) 0.45662(10)
O3 O -0.1085(12) 0.0293(14) 0.5288(12)
Mo6 Mo -0.20952(10) -0.24802(11) 0.23393(9)
O4 O -0.0797(12) -0.0859(13) 0.5596(11)
O5 O 0.1828(12) -0.1655(9) 0.4832(8)
O6 O 0.1617(13) -0.1142(9) 0.3142(9)
Si1 Si 0.0000 0.0000 0.5000
O7 O -0.0828(12) -0.2850(18) 0.2392(12)
O8 O -0.1645(12) 0.0747(10) 0.3212(12)
O9 O -0.1188(13) -0.1082(10) 0.2048(13)
O10 O -0.3098(13) -0.1709(10) 0.2884(13)
O11 O -0.3276(13) -0.0776(9) 0.4912(9)
O12 O -0.2711(12) -0.3389(19) 0.3230(13)
O13 O -0.0919(11) -0.2537(11) 0.6007(10)
O14 O -0.1246(12) -0.0622(11) 0.7214(10)
O15 O 0.0775(10) -0.3700(9) 0.2752(8)
O16 O -0.3054(9) -0.4809(8) 0.4349(9)
O17 O -0.2913(12) -0.2465(12) 0.5258(10)
O18 O -0.0719(11) -0.3427(18) 0.4076(12)
O19 O -0.3163(9) -0.3631(9) 0.1113(7)
O20 O 0.0318(11) -0.1166(12) 0.8230(8)
O21 O -0.4081(8) -0.0117(9) 0.3424(9)
O22 O -0.3684(8) -0.1057(10) 0.6759(8)
O1A O 0.0675(12) 0.1591(14) 0.5887(13)
O2A O 0.0955(13) 0.0283(13) 0.6076(11)
O3A O 0.1085(12) -0.0293(14) 0.4712(12)
O4A O 0.0797(12) 0.0859(13) 0.4404(11)
Mo1A Mo 0.24366(9) 0.06625(10) 0.37276(9)
Mo2A Mo -0.05176(10) 0.25406(10) 0.64675(9)
Mo3A Mo 0.28047(9) 0.01340(10) 0.60706(9)
Mo4A Mo -0.02161(11) 0.08693(11) 0.28526(9)
Mo5A Mo 0.21145(9) 0.32624(10) 0.54338(10)
Mo6A Mo 0.20952(10) 0.24802(11) 0.76607(9)
O5A O -0.1828(12) 0.1655(9) 0.5168(8)
O6A O -0.1617(13) 0.1142(9) 0.6858(9)
O7A O 0.0828(12) 0.2850(18) 0.7608(12)
O8A O 0.1645(12) -0.0747(10) 0.6788(12)
O9A O 0.1188(13) 0.1082(10) 0.7952(13)
O10A O 0.3098(13) 0.1709(10) 0.7116(13)
O11A O 0.3276(13) 0.0776(9) 0.5088(9)
O12A O 0.2711(12) 0.3389(19) 0.6770(13)
O13A O 0.0919(11) 0.2537(11) 0.3993(10)
O14A O 0.1246(12) 0.0622(11) 0.2786(10)
O15A O -0.0775(10) 0.3700(9) 0.7248(8)
O16A O 0.3054(9) 0.4809(8) 0.5651(9)
O17A O 0.2913(12) 0.2465(12) 0.4742(10)
O18A O 0.0719(11) 0.3427(18) 0.5924(12)
O19A O 0.3163(9) 0.3631(9) 0.8887(7)
O20A O -0.0318(11) 0.1166(12) 0.1770(8)
O21A O 0.4081(8) 0.0117(9) 0.6576(9)
O22A O 0.3684(8) 0.1057(10) 0.3241(8)
loop_
_geom_bond_atom_site_label_1
_geom_bond_atom_site_label_2
_geom_bond_site_symmetry_1
_geom_bond_site_symmetry_2
Mo1 O3 1_555 1_555
Mo2 O1 1_555 1_555
Mo3 O2 1_555 1_555
O1 Mo5 1_555 1_555
Mo4 O4 1_555 1_555
O2 Mo6 1_555 1_555
Mo5 O4 1_555 1_555
O3 Mo3 1_555 1_555
Mo6 O1 1_555 1_555
O4 Mo1 1_555 1_555
O5 Mo2 1_555 1_555
O6 Mo2 1_555 1_555
Si1 O1 1_555 1_555
O7 Mo2 1_555 1_555
O8 Mo3 1_555 1_555
O9 Mo6 1_555 1_555
O10 Mo3 1_555 1_555
O11 Mo1 1_555 1_555
O12 Mo5 1_555 1_555
O13 Mo4 1_555 1_555
O14 Mo1 1_555 1_555
O15 Mo2 1_555 1_555
O16 Mo5 1_555 1_555
O17 Mo1 1_555 1_555
O18 Mo2 1_555 1_555
O19 Mo6 1_555 1_555
O20 Mo4 1_555 1_555
O21 Mo3 1_555 1_555
O22 Mo1 1_555 1_555
O23 C10 1_555 1_555
N1 C1 1_555 1_555
C1 C3 1_555 1_555
Cu1 N1 1_555 1_555
N2 C7 1_555 1_555
C2 H1 1_555 1_555
O24 Cu1 1_555 1_555
N3 C3 1_555 1_555
C3 H2 1_555 1_555
N4 C6 1_555 1_555
C4 N3 1_555 1_555
H3 C4 1_555 1_555
C5 N1 1_555 1_555
H4 C5 1_555 1_555
N5 H5 1_555 1_555
C6 H6 1_555 1_555
N6 H7 1_555 1_555
C7 C6 1_555 1_555
H8 C7 1_555 1_555
C8 N2 1_555 1_555
H9 C8 1_555 1_555
C9 N4 1_555 1_555
C10 N6 1_555 1_555
C11 C2 1_555 1_555
H10 C11 1_555 1_555
C12 C1 1_555 1_555
C13 H11 1_555 1_555
H12 C13 1_555 1_555
C14 C11 1_555 1_555
H13 C14 1_555 1_555
H14 C14 1_555 1_555
C15 C2 1_555 1_555
H15 C15 1_555 1_555
H16 C15 1_555 1_555
C16 N5 1_555 1_555
H17 C16 1_555 1_555
H18 C16 1_555 1_555
Cu2 O23 1_555 1_555
O1A Si1 1_555 1_555
O2A Mo4 1_555 1_555
O3A Mo2 1_555 1_555
O4A Si1 1_555 1_555
Mo1A O6 1_555 1_555
Mo2A O3 1_555 1_555
Mo3A O5 1_555 1_555
Mo4A O2 1_555 1_555
Mo5A O1A 1_555 1_555
Mo6A O1A 1_555 1_555
O5A Mo3 1_555 1_555
O6A Mo1 1_555 1_555
O7A Mo2A 1_555 1_555
O8A Mo4 1_555 1_555
O9A Mo4 1_555 1_555
O10A Mo3A 1_555 1_555
O11A Mo1A 1_555 1_555
O12A Mo5A 1_555 1_555
O13A Mo4A 1_555 1_555
O14A Mo1A 1_555 1_555
O15A Mo2A 1_555 1_555
O16A Mo5A 1_555 1_555
O17A Mo1A 1_555 1_555
O18A Mo2A 1_555 1_555
O19A Mo6A 1_555 1_555
O20A Mo4A 1_555 1_555
O21A Mo3A 1_555 1_555
O22A Mo1A 1_555 1_555
O23A C10A 1_555 1_555
N1A C1A 1_555 1_555
C1A C3A 1_555 1_555
N2A Cu1 1_555 1_555
C2A H1A 1_555 1_555
O24A C12A 1_555 1_555
N3A C3A 1_555 1_555
C3A H2A 1_555 1_555
N4A C6A 1_555 1_555
C4A N3A 1_555 1_555
H3A C4A 1_555 1_555
C5A N1A 1_555 1_555
H4A C5A 1_555 1_555
N5A H5A 1_555 1_555
C6A H6A 1_555 1_555
N6A H7A 1_555 1_555
C7A N2A 1_555 1_555
H8A C7A 1_555 1_555
C8A N2A 1_555 1_555
H9A C8A 1_555 1_555
C9A N4A 1_555 1_555
C10A N6A 1_555 1_555
C11A C2A 1_555 1_555
H10A C11A 1_555 1_555
C12A C1A 1_555 1_555
C13A H11A 1_555 1_555
H12A C13A 1_555 1_555
C14A C11A 1_555 1_555
H13A C14A 1_555 1_555
H14A C14A 1_555 1_555
C15A C2A 1_555 1_555
H15A C15A 1_555 1_555
H16A C15A 1_555 1_555
C16A N5A 1_555 1_555
H17A C16A 1_555 1_555
H18A C16A 1_555 1_555
O23A_2 Cu2 1_555 1_555
N1A_2 Cu1 1_555 1_555
Cu1_2 N2 1_555 1_555
N2_2 Cu1 1_555 1_555
O24A_2 Cu1 1_555 1_555
N4A_2 Cu2 1_555 1_555
Cu2_2 O23A 1_555 1_555
Mo3 O11 1_555 1_555
Mo4 O14 1_555 1_555
O2 Si1 1_555 1_555
Mo5 O13 1_555 1_555
Mo5 O17 1_555 1_555
Mo5 O18 1_555 1_555
O3 Si1 1_555 1_555
Mo6 O7 1_555 1_555
Mo6 O10 1_555 1_555
Mo6 O12 1_555 1_555
O4 Si1 1_555 1_555
Si1 O2A 1_555 1_555
Si1 O3A 1_555 1_555
O8 Mo4A 1_555 1_555
O9 Mo4A 1_555 1_555
O24 C12 1_555 1_555
N4 Cu2 1_555 1_555
C4 C5 1_555 1_555
N5 C12 1_555 1_555
N6 C15 1_555 1_555
C8 C9 1_555 1_555
C9 C10 1_555 1_555
C13 C14 1_555 1_555
C13 C16 1_555 1_555
O1A Mo2A 1_555 1_555
O2A Mo3A 1_555 1_555
O2A Mo6A 1_555 1_555
O3A Mo1A 1_555 1_555
O3A Mo3A 1_555 1_555
O4A Mo1A 1_555 1_555
O4A Mo4A 1_555 1_555
O4A Mo5A 1_555 1_555
Mo2A O5A 1_555 1_555
Mo2A O6A 1_555 1_555
Mo3A O8A 1_555 1_555
Mo3A O11A 1_555 1_555
Mo4A O14A 1_555 1_555
Mo5A O13A 1_555 1_555
Mo5A O17A 1_555 1_555
Mo5A O18A 1_555 1_555
Mo6A O7A 1_555 1_555
Mo6A O9A 1_555 1_555
Mo6A O10A 1_555 1_555
Mo6A O12A 1_555 1_555
N1A Cu1_2 1_555 1_555
O24A Cu1_2 1_555 1_555
N4A Cu2_2 1_555 1_555
C4A C5A 1_555 1_555
N5A C12A 1_555 1_555
C6A C7A 1_555 1_555
N6A C15A 1_555 1_555
C8A C9A 1_555 1_555
C9A C10A 1_555 1_555
C13A C14A 1_555 1_555
C13A C16A 1_555 1_555

#END
