
#######################################################################
#
#                 Cambridge Crystallographic Data Centre
#                                CCDC 
#
#######################################################################
#
# If this CIF has been generated from an entry in the Cambridge 
# Structural Database, then it will include bibliographic, chemical, 
# crystal, experimental, refinement or atomic coordinate data resulting 
# from the CCDC's data processing and validation procedures.
#
#######################################################################

data_YUHDIP
_symmetry_cell_setting           triclinic
_symmetry_space_group_name_H-M   'P -1'
_symmetry_Int_Tables_number      2
_space_group_name_Hall           '-P 1'
loop_
_symmetry_equiv_pos_site_id
_symmetry_equiv_pos_as_xyz
1 x,y,z
2 -x,-y,-z
_cell_length_a                   11.9584(16)
_cell_length_b                   12.3382(17)
_cell_length_c                   13.2513(18)
_cell_angle_alpha                84.083(3)
_cell_angle_beta                 65.274(2)
_cell_angle_gamma                69.814(2)
_cell_volume                     1664.88
loop_
_atom_site_label
_atom_site_type_symbol
_atom_site_fract_x
_atom_site_fract_y
_atom_site_fract_z
Cu1 Cu 0.88992(5) 0.25275(5) 0.36965(4)
Fe1 Fe 1.33738(6) -0.03900(5) 0.32089(5)
B1 B 1.5896(5) 0.0224(5) 0.2151(5)
H1 H 1.6697 0.0423 0.1819
C1 C 1.5203(5) 0.1406(5) 0.3973(4)
H2 H 1.5904 0.1673 0.3757
C2 C 1.4160(5) 0.1637(5) 0.4988(4)
H3 H 1.4006 0.2090 0.5582
C3 C 1.3388(5) 0.1053(4) 0.4938(4)
H4 H 1.2609 0.1041 0.5515
C4 C 1.7318(5) -0.1964(5) 0.1875(4)
H5 H 1.8147 -0.1902 0.1566
C5 C 1.7063(5) -0.2965(5) 0.2080(4)
H6 H 1.7660 -0.3712 0.1934
C6 C 1.5707(5) -0.2630(4) 0.2559(4)
H7 H 1.5233 -0.3136 0.2802
C7 C 1.5167(5) 0.1332(4) 0.0598(4)
H8 H 1.5874 0.1579 0.0186
C8 C 1.4083(5) 0.1562(5) 0.0389(4)
H9 H 1.3907 0.1988 -0.0180
C9 C 1.3311(5) 0.1027(4) 0.1199(4)
H10 H 1.2504 0.1030 0.1267
C10 C 1.1638(4) 0.0698(4) 0.3746(3)
C11 C 1.2913(4) -0.1310(4) 0.2451(4)
C12 C 0.7239(4) 0.1239(4) 0.5497(4)
C13 C 0.7669(5) 0.3798(5) 0.5910(4)
H11 H 0.7426 0.3156 0.6205
C14 C 0.7339(5) 0.4698(5) 0.6620(4)
H12 H 0.6887 0.4650 0.7380
C15 C 0.7662(5) 0.5663(4) 0.6231(4)
C16 C 0.7273(5) 0.6649(4) 0.6990(4)
H13 H 0.6431 0.7175 0.7069
H14 H 0.7904 0.7041 0.6690
H15 H 0.7233 0.6372 0.7705
C17 C 0.8351(4) 0.5661(4) 0.5098(4)
H16 H 0.8604 0.6296 0.4794
C18 C 0.8672(4) 0.4742(4) 0.4406(3)
C19 C 0.9451(4) 0.4650(4) 0.3183(4)
C20 C 0.9949(5) 0.5508(5) 0.2605(4)
H17 H 0.9780 0.6186 0.2975
C21 C 1.0697(5) 0.5331(5) 0.1478(4)
C22 C 1.1263(7) 0.6249(6) 0.0840(5)
H18 H 1.1735 0.6011 0.0065
H19 H 1.1844 0.6348 0.1121
H20 H 1.0568 0.6968 0.0929
C23 C 1.0909(5) 0.4325(5) 0.0971(4)
H21 H 1.1416 0.4182 0.0211
C24 C 1.0371(5) 0.3526(5) 0.1587(4)
H22 H 1.0513 0.2853 0.1227
C25 C 0.8829(5) 0.1623(4) 0.1882(4)
C26 C 0.9444(4) 0.0780(4) 0.0907(3)
C27 C 1.0520(4) -0.0190(4) 0.0784(3)
H23 H 1.0872 -0.0321 0.1310
C28 C 0.8929(4) 0.0960(4) 0.0108(4)
H24 H 0.8206 0.1609 0.0181
N1 N 1.5054(3) 0.0740(3) 0.3349(3)
N2 N 1.3916(3) 0.0506(3) 0.3942(3)
N3 N 1.6197(4) -0.1074(4) 0.2183(3)
N4 N 1.5189(3) -0.1496(3) 0.2620(3)
N5 N 1.5047(4) 0.0697(3) 0.1488(3)
N6 N 1.3885(3) 0.0503(3) 0.1874(3)
N7 N 1.0626(4) 0.1402(4) 0.4031(3)
N8 N 1.2690(5) -0.1887(4) 0.1991(4)
N9 N 0.7674(4) 0.1755(3) 0.4755(3)
N10 N 0.8326(4) 0.3805(3) 0.4808(3)
N11 N 0.9652(3) 0.3675(3) 0.2684(3)
O1 O 0.9485(3) 0.1464(3) 0.2465(2)
O2 O 0.7800(4) 0.2412(3) 0.2055(3)
Cu1A Cu 1.11008(5) -0.25275(5) -0.36965(4)
Cu1A_2 Cu 1.11008(5) -0.25275(5) 0.63035(4)
Fe1A Fe 0.66262(6) 0.03900(5) 0.67911(5)
Fe1A_2 Fe 0.66262(6) 0.03900(5) -0.32089(5)
B1A B 0.4104(5) -0.0224(5) 0.7849(5)
H1A H 0.3303 -0.0423 0.8181
C1A C 0.4797(5) -0.1406(5) 0.6027(4)
H2A H 0.4096 -0.1673 0.6243
C2A C 0.5840(5) -0.1637(5) 0.5012(4)
H3A H 0.5994 -0.2090 0.4418
C3A C 0.6612(5) -0.1053(4) 0.5062(4)
H4A H 0.7391 -0.1041 0.4485
C4A C 0.2682(5) 0.1964(5) 0.8125(4)
H5A H 0.1853 0.1902 0.8434
C5A C 0.2937(5) 0.2965(5) 0.7920(4)
H6A H 0.2340 0.3712 0.8066
C6A C 0.4293(5) 0.2630(4) 0.7441(4)
H7A H 0.4767 0.3136 0.7198
C7A C 0.4833(5) -0.1332(4) 0.9402(4)
H8A H 0.4126 -0.1579 0.9814
C8A C 0.5917(5) -0.1562(5) 0.9611(4)
H9A H 0.6093 -0.1988 1.0180
C9A C 0.6689(5) -0.1027(4) 0.8801(4)
H10A H 0.7496 -0.1030 0.8733
C10A C 0.8362(4) -0.0698(4) -0.3746(3)
C10A_2 C 0.8362(4) -0.0698(4) 0.6254(3)
C11A C 0.7087(4) 0.1310(4) 0.7549(4)
C12A C 1.2761(4) -0.1239(4) 0.4503(4)
C13A C 1.2331(5) -0.3798(5) -0.5910(4)
H11A H 1.2574 -0.3156 -0.6205
C14A C 1.2661(5) -0.4698(5) -0.6620(4)
H12A H 1.3113 -0.4650 -0.7380
C15A C 1.2338(5) -0.5663(4) -0.6231(4)
C16A C 1.2727(5) -0.6649(4) -0.6990(4)
H13A H 1.3569 -0.7175 -0.7069
H14A H 1.2096 -0.7041 -0.6690
H15A H 1.2767 -0.6372 -0.7705
C17A C 1.1649(4) -0.5661(4) -0.5098(4)
H16A H 1.1396 -0.6296 -0.4794
C18A C 1.1328(4) -0.4742(4) -0.4406(3)
C19A C 1.0549(4) -0.4650(4) -0.3183(4)
C20A C 1.0051(5) -0.5508(5) -0.2605(4)
H17A H 1.0220 -0.6186 -0.2975
C21A C 0.9303(5) -0.5331(5) -0.1478(4)
C22A C 0.8737(7) -0.6249(6) -0.0840(5)
H18A H 0.8265 -0.6011 -0.0065
H19A H 0.8156 -0.6348 -0.1121
H20A H 0.9432 -0.6968 -0.0929
C23A C 0.9091(5) -0.4325(5) -0.0971(4)
H21A H 0.8584 -0.4182 -0.0211
C24A C 0.9629(5) -0.3526(5) -0.1587(4)
H22A H 0.9487 -0.2853 -0.1227
C25A C 1.1171(5) -0.1623(4) -0.1882(4)
C26A C 1.0556(4) -0.0780(4) -0.0907(3)
C27A C 0.9480(4) 0.0190(4) -0.0784(3)
H23A H 0.9128 0.0321 -0.1310
C28A C 1.1071(4) -0.0960(4) -0.0108(4)
H24A H 1.1794 -0.1609 -0.0181
N1A N 0.4946(3) -0.0740(3) 0.6651(3)
N2A N 0.6084(3) -0.0506(3) 0.6058(3)
N3A N 0.3803(4) 0.1074(4) 0.7817(3)
N4A N 0.4811(3) 0.1496(3) 0.7380(3)
N5A N 0.4953(4) -0.0697(3) 0.8512(3)
N6A N 0.6115(3) -0.0503(3) 0.8126(3)
N7A N 0.9374(4) -0.1402(4) -0.4031(3)
N8A N 0.7310(5) 0.1887(4) 0.8009(4)
N9A N 1.2326(4) -0.1755(3) 0.5245(3)
N9A_2 N 1.2326(4) -0.1755(3) -0.4755(3)
N10A N 1.1674(4) -0.3805(3) -0.4808(3)
N11A N 1.0348(3) -0.3675(3) -0.2684(3)
O1A O 1.0515(3) -0.1464(3) -0.2465(2)
O2A O 1.2200(4) -0.2412(3) -0.2055(3)
O3 O -0.0134(5) 0.8071(5) 0.3483(4)
H25 H -0.0118 0.7926 0.4119
H26 H 0.0443 0.8382 0.3120
O4 O 0.6212(12) 0.4576(11) 0.2667(12)
H27 H 0.6914 0.4029 0.2591
H28 H 0.6366 0.5208 0.2605
O5 O 0.4985(8) 0.5715(7) 0.0747(7)
H29 H 0.4880 0.6428 0.0794
H30 H 0.5640 0.5428 0.0143
O6 O 0.5451(18) 0.4600(18) 0.4325(14)
H31 H 0.4860 0.4400 0.4281
H32 H 0.5931 0.4024 0.4533
H33 H 0.5427 0.3674 0.1745
H34 H 0.6535 0.3966 0.1190
O7 O 0.578(2) 0.4172(19) 0.1723(17)
loop_
_geom_bond_atom_site_label_1
_geom_bond_atom_site_label_2
_geom_bond_site_symmetry_1
_geom_bond_site_symmetry_2
Cu1 N7 1_555 1_555
Fe1 C10 1_555 1_555
B1 H1 1_555 1_555
C1 H2 1_555 1_555
C2 C1 1_555 1_555
H3 C2 1_555 1_555
C3 C2 1_555 1_555
H4 C3 1_555 1_555
C4 H5 1_555 1_555
C5 C4 1_555 1_555
H6 C5 1_555 1_555
C6 C5 1_555 1_555
H7 C6 1_555 1_555
C7 H8 1_555 1_555
C8 C7 1_555 1_555
H9 C8 1_555 1_555
C9 C8 1_555 1_555
H10 C9 1_555 1_555
C10 N7 1_555 1_555
C11 Fe1 1_555 1_555
C12 N9 1_555 1_555
C13 H11 1_555 1_555
C14 C13 1_555 1_555
H12 C14 1_555 1_555
C15 C14 1_555 1_555
C16 C15 1_555 1_555
H13 C16 1_555 1_555
H14 C16 1_555 1_555
H15 C16 1_555 1_555
C17 C15 1_555 1_555
H16 C17 1_555 1_555
C18 C17 1_555 1_555
C19 C18 1_555 1_555
C20 C19 1_555 1_555
H17 C20 1_555 1_555
C21 C20 1_555 1_555
C22 C21 1_555 1_555
H18 C22 1_555 1_555
H19 C22 1_555 1_555
H20 C22 1_555 1_555
C23 C21 1_555 1_555
H21 C23 1_555 1_555
C24 C23 1_555 1_555
H22 C24 1_555 1_555
C25 C26 1_555 1_555
C26 C27 1_555 1_555
C27 H23 1_555 1_555
C28 C26 1_555 1_555
H24 C28 1_555 1_555
N1 B1 1_555 1_555
N2 Fe1 1_555 1_555
N3 B1 1_555 1_555
N4 Fe1 1_555 1_555
N5 B1 1_555 1_555
N6 Fe1 1_555 1_555
N8 C11 1_555 1_555
N9 Cu1 1_555 1_555
N10 Cu1 1_555 1_555
N11 Cu1 1_555 1_555
O1 Cu1 1_555 1_555
O2 C25 1_555 1_555
O3 H25 1_555 1_555
H26 O3 1_555 1_555
O4 H27 1_555 1_555
H28 O4 1_555 1_555
O5 H29 1_555 1_555
H30 O5 1_555 1_555
O6 H31 1_555 1_555
H32 O6 1_555 1_555
H33 O7 1_555 1_555
H34 O7 1_555 1_555
Cu1A N7A 1_555 1_555
Cu1A_2 N9A 1_555 1_555
Fe1A C12 1_555 1_555
Fe1A_2 C10A 1_555 1_555
B1A H1A 1_555 1_555
C1A H2A 1_555 1_555
C2A C1A 1_555 1_555
H3A C2A 1_555 1_555
C3A C2A 1_555 1_555
H4A C3A 1_555 1_555
C4A H5A 1_555 1_555
C5A C4A 1_555 1_555
H6A C5A 1_555 1_555
C6A C5A 1_555 1_555
H7A C6A 1_555 1_555
C7A H8A 1_555 1_555
C8A C7A 1_555 1_555
H9A C8A 1_555 1_555
C9A C8A 1_555 1_555
H10A C9A 1_555 1_555
C10A N7A 1_555 1_555
C10A_2 Fe1A 1_555 1_555
C11A Fe1A 1_555 1_555
C12A Fe1 1_555 1_555
C13A H11A 1_555 1_555
C14A C13A 1_555 1_555
H12A C14A 1_555 1_555
C15A C14A 1_555 1_555
C16A C15A 1_555 1_555
H13A C16A 1_555 1_555
H14A C16A 1_555 1_555
H15A C16A 1_555 1_555
C17A C15A 1_555 1_555
H16A C17A 1_555 1_555
C18A C17A 1_555 1_555
C19A C18A 1_555 1_555
C20A C19A 1_555 1_555
H17A C20A 1_555 1_555
C21A C20A 1_555 1_555
C22A C21A 1_555 1_555
H18A C22A 1_555 1_555
H19A C22A 1_555 1_555
H20A C22A 1_555 1_555
C23A C21A 1_555 1_555
H21A C23A 1_555 1_555
C24A C23A 1_555 1_555
H22A C24A 1_555 1_555
C25A C26A 1_555 1_555
C26A C27A 1_555 1_555
C27A C28 1_555 1_555
H23A C27A 1_555 1_555
C28A C27 1_555 1_555
H24A C28A 1_555 1_555
N1A B1A 1_555 1_555
N2A Fe1A 1_555 1_555
N3A B1A 1_555 1_555
N4A Fe1A 1_555 1_555
N5A B1A 1_555 1_555
N6A Fe1A 1_555 1_555
N8A C11A 1_555 1_555
N9A C12A 1_555 1_555
N9A_2 Cu1A 1_555 1_555
N10A Cu1A 1_555 1_555
N11A Cu1A 1_555 1_555
O1A Cu1A 1_555 1_555
O2A C25A 1_555 1_555
C1 N1 1_555 1_555
C3 N2 1_555 1_555
C4 N3 1_555 1_555
C6 N4 1_555 1_555
C7 N5 1_555 1_555
C9 N6 1_555 1_555
C13 N10 1_555 1_555
C18 N10 1_555 1_555
C19 N11 1_555 1_555
C24 N11 1_555 1_555
C25 O1 1_555 1_555
N1 N2 1_555 1_555
N3 N4 1_555 1_555
N5 N6 1_555 1_555
C1A N1A 1_555 1_555
C3A N2A 1_555 1_555
C4A N3A 1_555 1_555
C6A N4A 1_555 1_555
C7A N5A 1_555 1_555
C9A N6A 1_555 1_555
C13A N10A 1_555 1_555
C18A N10A 1_555 1_555
C19A N11A 1_555 1_555
C24A N11A 1_555 1_555
C25A O1A 1_555 1_555
C26A C28A 1_555 1_555
N1A N2A 1_555 1_555
N3A N4A 1_555 1_555
N5A N6A 1_555 1_555

#END
