
#######################################################################
#
#                 Cambridge Crystallographic Data Centre
#                                CCDC 
#
#######################################################################
#
# If this CIF has been generated from an entry in the Cambridge 
# Structural Database, then it will include bibliographic, chemical, 
# crystal, experimental, refinement or atomic coordinate data resulting 
# from the CCDC's data processing and validation procedures.
#
#######################################################################

data_YUHJAM
_symmetry_cell_setting           monoclinic
_symmetry_space_group_name_H-M   'P 21/a'
_symmetry_Int_Tables_number      14
_space_group_name_Hall           '-P 2yab'
loop_
_symmetry_equiv_pos_site_id
_symmetry_equiv_pos_as_xyz
1 x,y,z
2 1/2-x,1/2+y,-z
3 -x,-y,-z
4 1/2+x,1/2-y,z
_cell_length_a                   14.506(4)
_cell_length_b                   3.7329(10)
_cell_length_c                   19.245(3)
_cell_angle_alpha                90
_cell_angle_beta                 91.45(2)
_cell_angle_gamma                90
_cell_volume                     1041.77
loop_
_atom_site_label
_atom_site_type_symbol
_atom_site_fract_x
_atom_site_fract_y
_atom_site_fract_z
Na1 Na 0.56684(4) 0.76807(15) 0.94412(3)
Cl1 Cl 0.18735(3) 0.15556(15) 0.66109(2)
O1 O 0.45799(7) 0.2610(3) 0.92918(5)
O2 O 0.31786(6) 0.4412(3) 0.89495(5)
O3 O 0.66380(7) 0.2631(3) 0.97238(6)
O4 O 0.65062(12) 0.7984(7) 0.83462(8)
C1 C 0.39427(9) 0.2972(4) 0.88415(7)
C2 C 0.41375(10) 0.1610(4) 0.81293(7)
H1 H 0.47016(10) 0.0498(4) 0.80602(7)
C3 C 0.35600(10) 0.1888(4) 0.75961(7)
H2 H 0.30025(10) 0.3033(4) 0.76735(7)
C4 C 0.37091(10) 0.0568(4) 0.68890(7)
C5 C 0.29868(11) 0.0284(4) 0.64000(7)
C6 C 0.31178(13) -0.0987(5) 0.57304(8)
H3 H 0.26209(13) -0.1165(5) 0.54174(8)
C7 C 0.3981(2) -0.1973(5) 0.55350(8)
H4 H 0.4073(2) -0.2808(5) 0.50867(8)
C8 C 0.47207(13) -0.1732(5) 0.60029(9)
H5 H 0.53080(13) -0.2398(5) 0.58692(9)
C9 C 0.45814(11) -0.0497(5) 0.66698(8)
H6 H 0.50808(11) -0.0370(5) 0.69815(8)
H7 H 0.6737(15) 0.3267(60) 1.0143(13)
H8 H 0.7123(17) 0.2504(60) 0.9569(12)
H9 H 0.7056(26) 0.8376(93) 0.8429(17)
H10 H 0.6500(20) 0.636(10) 0.8149(18)
O1_2 O 0.45799(7) 1.2610(3) 0.92918(5)
O1B O 0.54201(7) 0.7390(3) 1.07082(5)
O3_2 O 0.66380(7) 1.2631(3) 0.97238(6)
Na1_2 Na 0.56684(4) -0.23193(15) 0.94412(3)
Na1B Na 0.43316(4) 0.23193(15) 1.05588(3)
H7_2 H 0.6737(15) 1.3267(60) 1.0143(13)
H8_2 H 0.7123(17) 1.2504(60) 0.9569(12)
loop_
_geom_bond_atom_site_label_1
_geom_bond_atom_site_label_2
_geom_bond_site_symmetry_1
_geom_bond_site_symmetry_2
Na1 O1 1_555 1_555
Cl1 C5 1_555 1_555
O1 C1 1_555 1_555
O2 C1 1_555 1_555
O3 Na1 1_555 1_555
O4 Na1 1_555 1_555
C1 C2 1_555 1_555
C2 H1 1_555 1_555
C3 C2 1_555 1_555
H2 C3 1_555 1_555
C4 C3 1_555 1_555
C5 C4 1_555 1_555
C6 C5 1_555 1_555
H3 C6 1_555 1_555
C7 C6 1_555 1_555
H4 C7 1_555 1_555
C8 C7 1_555 1_555
H5 C8 1_555 1_555
C9 C4 1_555 1_555
H6 C9 1_555 1_555
H7 O3 1_555 1_555
H8 O3 1_555 1_555
H9 O4 1_555 1_555
H10 O4 1_555 1_555
O1_2 Na1 1_555 1_555
O1B Na1 1_555 1_555
O3_2 Na1 1_555 1_555
Na1_2 O1 1_555 1_555
Na1B O1 1_555 1_555
H7_2 O3_2 1_555 1_555
H8_2 O3_2 1_555 1_555
O3 Na1_2 1_555 1_555
C8 C9 1_555 1_555
O1B Na1B 1_555 1_555

#END
