
#######################################################################
#
#                 Cambridge Crystallographic Data Centre
#                                CCDC 
#
#######################################################################
#
# If this CIF has been generated from an entry in the Cambridge 
# Structural Database, then it will include bibliographic, chemical, 
# crystal, experimental, refinement or atomic coordinate data resulting 
# from the CCDC's data processing and validation procedures.
#
#######################################################################

data_YUHMEV
_symmetry_cell_setting           tetragonal
_symmetry_space_group_name_H-M   'I 41/a'
_symmetry_Int_Tables_number      88
_space_group_name_Hall           '-I 4ad'
loop_
_symmetry_equiv_pos_site_id
_symmetry_equiv_pos_as_xyz
1 x,y,z
2 1/2-x,-y,1/2+z
3 3/4-y,1/4+x,1/4+z
4 3/4+y,3/4-x,3/4+z
5 1/2+x,1/2+y,1/2+z
6 -x,1/2-y,z
7 1/4-y,3/4+x,3/4+z
8 1/4+y,1/4-x,1/4+z
9 -x,-y,-z
10 1/2+x,y,1/2-z
11 1/4+y,3/4-x,3/4-z
12 1/4-y,1/4+x,1/4-z
13 1/2-x,1/2-y,1/2-z
14 x,1/2+y,-z
15 3/4+y,1/4-x,1/4-z
16 3/4-y,3/4+x,3/4-z
_cell_length_a                   16.498(2)
_cell_length_b                   16.498(2)
_cell_length_c                   21.265(4)
_cell_angle_alpha                90
_cell_angle_beta                 90
_cell_angle_gamma                90
_cell_volume                     5787.99
loop_
_atom_site_label
_atom_site_type_symbol
_atom_site_fract_x
_atom_site_fract_y
_atom_site_fract_z
Cu1 Cu 0.67570(3) 0.57650(3) 0.09867(2)
Cu2 Cu 0.48697(4) 0.65775(4) 0.06797(3)
Cl1 Cl 0.61002(6) 0.71333(6) 0.06156(5)
N1 N 0.3548(2) 0.5377(2) 0.06968(15)
N2 N 0.41196(19) 0.57825(19) 0.03361(15)
N3 N 0.3508(2) 0.4868(2) -0.02632(15)
C1 C 0.3207(2) 0.4826(3) 0.03265(19)
C2 C 0.4074(2) 0.5461(2) -0.02335(17)
C3 C 0.4582(3) 0.5727(3) -0.07791(19)
H1 H 0.4846 0.5256 -0.0960
H2 H 0.5002 0.6090 -0.0628
C4 C 0.4094(3) 0.6157(3) -0.1292(2)
H3 H 0.3653 0.5794 -0.1418
C5 C 0.2608(4) 0.4203(4) 0.0547(3)
H4 H 0.2787 0.3745 0.0761
C6 C 0.4637(4) 0.6295(4) -0.1870(3)
H5 H 0.4334 0.6573 -0.2189
H6 H 0.4819 0.5782 -0.2029
H7 H 0.5097 0.6617 -0.1751
C7 C 0.3714(4) 0.6941(4) -0.1058(3)
H8 H 0.3336 0.6823 -0.0728
H9 H 0.3437 0.7204 -0.1399
H10 H 0.4131 0.7293 -0.0900
C8 C 0.1423(4) 0.4789(6) -0.0026(4)
H11 H 0.1405 0.4496 -0.0416
H12 H 0.0881 0.4924 0.0103
H13 H 0.1731 0.5278 -0.0081
C9 C 0.1787(5) 0.4311(6) 0.0433(8)
H14 H 0.1707 0.4703 0.0773
C10 C 0.1231(5) 0.3657(6) 0.0724(5)
H15 H 0.1405 0.3130 0.0589
H16 H 0.1260 0.3688 0.1175
H17 H 0.0682 0.3747 0.0591
Cu1H Cu 0.32430(3) 0.42350(3) -0.09867(2)
Cu1N Cu 0.32650(3) 0.57430(3) 0.15133(2)
Cu2E Cu 0.51303(4) 0.84225(4) 0.06797(3)
Cu2K Cu 0.59225(4) 0.73697(4) 0.18203(3)
Cl1E Cl 0.38998(6) 0.78667(6) 0.06156(5)
Cl1N Cl 0.46333(6) 0.63998(6) 0.18844(5)
N1K N 0.7123(2) 0.6048(2) 0.18032(15)
N3H N 0.6492(2) 0.5132(2) 0.02632(15)
loop_
_geom_bond_atom_site_label_1
_geom_bond_atom_site_label_2
_geom_bond_site_symmetry_1
_geom_bond_site_symmetry_2
Cu1 Cl1 1_555 1_555
Cu2 Cl1 1_555 1_555
Cl1 Cu2E 1_555 1_555
N1 N2 1_555 1_555
N2 Cu2 1_555 1_555
N3 C1 1_555 1_555
C1 N1 1_555 1_555
C2 N2 1_555 1_555
C3 C2 1_555 1_555
H1 C3 1_555 1_555
H2 C3 1_555 1_555
C4 C3 1_555 1_555
H3 C4 1_555 1_555
C5 C1 1_555 1_555
H4 C5 1_555 1_555
C6 C4 1_555 1_555
H5 C6 1_555 1_555
H6 C6 1_555 1_555
H7 C6 1_555 1_555
C7 C4 1_555 1_555
H8 C7 1_555 1_555
H9 C7 1_555 1_555
H10 C7 1_555 1_555
C8 H11 1_555 1_555
H12 C8 1_555 1_555
H13 C8 1_555 1_555
C9 C5 1_555 1_555
H14 C9 1_555 1_555
C10 C9 1_555 1_555
H15 C10 1_555 1_555
H16 C10 1_555 1_555
H17 C10 1_555 1_555
Cu1H N3 1_555 1_555
Cu1N N1 1_555 1_555
Cu2E Cl1E 1_555 1_555
Cu2K Cl1 1_555 1_555
Cl1E Cu2 1_555 1_555
Cl1N Cu2 1_555 1_555
N1K Cu1 1_555 1_555
N3H Cu1 1_555 1_555
N3 C2 1_555 1_555
C8 C9 1_555 1_555
Cu1N Cl1N 1_555 1_555
Cu2K Cl1N 1_555 1_555

#END
