
#######################################################################
#
#                 Cambridge Crystallographic Data Centre
#                                CCDC 
#
#######################################################################
#
# If this CIF has been generated from an entry in the Cambridge 
# Structural Database, then it will include bibliographic, chemical, 
# crystal, experimental, refinement or atomic coordinate data resulting 
# from the CCDC's data processing and validation procedures.
#
#######################################################################

data_YUHMIX01
_symmetry_cell_setting           monoclinic
_symmetry_space_group_name_H-M   'P 21/c'
_symmetry_Int_Tables_number      14
_space_group_name_Hall           '-P 2ybc'
loop_
_symmetry_equiv_pos_site_id
_symmetry_equiv_pos_as_xyz
1 x,y,z
2 -x,1/2+y,1/2-z
3 -x,-y,-z
4 x,1/2-y,1/2+z
_cell_length_a                   12.3610(2)
_cell_length_b                   6.75534(12)
_cell_length_c                   7.11108(13)
_cell_angle_alpha                90
_cell_angle_beta                 100.0239(18)
_cell_angle_gamma                90
_cell_volume                     584.731
loop_
_atom_site_label
_atom_site_type_symbol
_atom_site_fract_x
_atom_site_fract_y
_atom_site_fract_z
Cu1 Cu 0.00000 1.00000 0.50000
Cl1 Cl -0.0716(4) 0.7769(7) 0.2652(8)
N1 N 0.26185(11) 0.61797(17) 0.5360(8)
N2 N 0.31545(12) 0.79186(13) 0.5276(8)
N3 N 0.24430(12) 0.93301(18) 0.5234(9)
N4 N 0.14355(13) 0.85777(15) 0.5307(9)
C1 C 0.15626(17) 0.66416(16) 0.5388(13)
D1 D 0.0939(8) 0.5555(13) 0.5603(14)
C2 C 0.3109(7) 0.4293(14) 0.5325(14)
D2 D 0.2532(7) 0.3190(11) 0.5552(14)
D3 D 0.3260(6) 0.4058(12) 0.3864(13)
C3 C 0.4137(6) 0.4159(10) 0.6782(14)
D4 D 0.4743(8) 0.5375(14) 0.6524(14)
D5 D 0.4576(7) 0.2715(15) 0.6549(12)
D6 D 0.4025(7) 0.4202(14) 0.8217(14)
Cu1A Cu 0.00000 0.50000 0.00000
Cu1A_2 Cu 0.00000 1.50000 0.00000
Cl1A Cl 0.0716(4) 1.2769(7) 0.2348(8)
Cl1B Cl 0.0716(4) 1.2231(7) 0.7348(8)
Cl1C Cl -0.0716(4) 0.7231(7) 0.7652(8)
N1B N -0.26185(11) 1.38203(17) 0.4640(8)
N2B N -0.31545(12) 1.20814(13) 0.4724(8)
N3B N -0.24430(12) 1.06699(18) 0.4766(9)
N4B N -0.14355(13) 1.14223(15) 0.4693(9)
C1B C -0.15626(17) 1.33584(16) 0.4612(13)
D1B D -0.0939(8) 1.4445(13) 0.4397(14)
C2B C -0.3109(7) 1.5707(14) 0.4675(14)
D2B D -0.2532(7) 1.6810(11) 0.4448(14)
D3B D -0.3260(6) 1.5942(12) 0.6136(13)
C3B C -0.4137(6) 1.5841(10) 0.3218(14)
D4B D -0.4743(8) 1.4625(14) 0.3476(14)
D5B D -0.4576(7) 1.7285(15) 0.3451(12)
D6B D -0.4025(7) 1.5798(14) 0.1783(14)
loop_
_geom_bond_atom_site_label_1
_geom_bond_atom_site_label_2
_geom_bond_site_symmetry_1
_geom_bond_site_symmetry_2
Cu1 Cl1 1_555 1_555
Cl1 Cu1A 1_555 1_555
N1 N2 1_555 1_555
N2 N3 1_555 1_555
N3 N4 1_555 1_555
N4 Cu1 1_555 1_555
C1 N1 1_555 1_555
D1 C1 1_555 1_555
C2 N1 1_555 1_555
D2 C2 1_555 1_555
D3 C2 1_555 1_555
C3 C2 1_555 1_555
D4 C3 1_555 1_555
D5 C3 1_555 1_555
D6 C3 1_555 1_555
Cu1A_2 Cl1A 1_555 1_555
Cl1A Cu1 1_555 1_555
Cl1B Cu1 1_555 1_555
Cl1C Cu1 1_555 1_555
N1B N2B 1_555 1_555
N2B N3B 1_555 1_555
N3B N4B 1_555 1_555
N4B Cu1 1_555 1_555
C1B N1B 1_555 1_555
D1B C1B 1_555 1_555
C2B N1B 1_555 1_555
D2B C2B 1_555 1_555
D3B C2B 1_555 1_555
C3B C2B 1_555 1_555
D4B C3B 1_555 1_555
D5B C3B 1_555 1_555
D6B C3B 1_555 1_555
N4 C1 1_555 1_555
N4B C1B 1_555 1_555

#END
