
#######################################################################
#
#                 Cambridge Crystallographic Data Centre
#                                CCDC 
#
#######################################################################
#
# If this CIF has been generated from an entry in the Cambridge 
# Structural Database, then it will include bibliographic, chemical, 
# crystal, experimental, refinement or atomic coordinate data resulting 
# from the CCDC's data processing and validation procedures.
#
#######################################################################

data_YUHMIX
_symmetry_cell_setting           monoclinic
_symmetry_space_group_name_H-M   'P 21/c'
_symmetry_Int_Tables_number      14
_space_group_name_Hall           '-P 2ybc'
loop_
_symmetry_equiv_pos_site_id
_symmetry_equiv_pos_as_xyz
1 x,y,z
2 -x,1/2+y,1/2-z
3 -x,-y,-z
4 x,1/2-y,1/2+z
_cell_length_a                   13.247(3)
_cell_length_b                   6.769(1)
_cell_length_c                   7.302(1)
_cell_angle_alpha                90
_cell_angle_beta                 107.39(2)
_cell_angle_gamma                90
_cell_volume                     624.835
loop_
_atom_site_label
_atom_site_type_symbol
_atom_site_fract_x
_atom_site_fract_y
_atom_site_fract_z
Cu1 Cu 0.00000 0.0000 0.5000
Cl1 Cl 0.06912(9) 0.2148(2) 0.7481(2)
N1 N -0.2537(4) 0.3725(7) 0.3892(7)
N2 N -0.3038(4) 0.1998(7) 0.3822(11)
N3 N -0.2334(4) 0.0616(8) 0.4115(9)
N4 N -0.1366(3) 0.1456(6) 0.4384(6)
C1 C -0.1526(4) 0.3351(8) 0.4223(8)
H1 H -0.1079(56) 0.425(12) 0.427(10)
C2 C -0.3076(7) 0.5662(12) 0.3625(18)
H2 H -0.2618(79) 0.677(16) 0.344(15)
H3 H -0.315(11) 0.580(22) 0.520(23)
C3 C -0.4062(10) 0.5711(19) 0.293(4)
H4 H -0.4318(10) 0.7045(19) 0.2838(41)
H5 H -0.4226(10) 0.5148(19) 0.1667(41)
H6 H -0.4394(10) 0.4946(19) 0.3695(41)
Cl1A Cl -0.06912(9) -0.2852(2) 0.7519(2)
N1B N 0.2537(4) -0.3725(7) 0.6108(7)
N2B N 0.3038(4) -0.1998(7) 0.6178(11)
N3B N 0.2334(4) -0.0616(8) 0.5885(9)
N4B N 0.1366(3) -0.1456(6) 0.5616(6)
C1B C 0.1526(4) -0.3351(8) 0.5777(8)
H1B H 0.1079(56) -0.425(12) 0.573(10)
C2B C 0.3076(7) -0.5662(12) 0.6375(18)
H2B H 0.2618(79) -0.677(16) 0.656(15)
H3B H 0.315(11) -0.580(22) 0.480(23)
C3B C 0.4062(10) -0.5711(19) 0.707(4)
H4B H 0.4318(10) -0.7045(19) 0.7162(41)
H5B H 0.4226(10) -0.5148(19) 0.8333(41)
H6B H 0.4394(10) -0.4946(19) 0.6305(41)
Cl1B Cl -0.06912(9) -0.2148(2) 0.2519(2)
Cl1C Cl 0.06912(9) 0.2852(2) 0.2481(2)
Cu1A Cu 0.00000 0.5000 1.0000
Cu1A_2 Cu 0.00000 -0.5000 1.0000
loop_
_geom_bond_atom_site_label_1
_geom_bond_atom_site_label_2
_geom_bond_site_symmetry_1
_geom_bond_site_symmetry_2
Cu1 Cl1 1_555 1_555
Cl1 Cu1A 1_555 1_555
N1 N2 1_555 1_555
N2 N3 1_555 1_555
N3 N4 1_555 1_555
N4 Cu1 1_555 1_555
C1 N1 1_555 1_555
H1 C1 1_555 1_555
C2 N1 1_555 1_555
H2 C2 1_555 1_555
H3 C2 1_555 1_555
C3 C2 1_555 1_555
H4 C3 1_555 1_555
H5 C3 1_555 1_555
H6 C3 1_555 1_555
Cl1A Cu1 1_555 1_555
N1B N2B 1_555 1_555
N2B N3B 1_555 1_555
N3B N4B 1_555 1_555
N4B Cu1 1_555 1_555
C1B N1B 1_555 1_555
H1B C1B 1_555 1_555
C2B N1B 1_555 1_555
H2B C2B 1_555 1_555
H3B C2B 1_555 1_555
C3B C2B 1_555 1_555
H4B C3B 1_555 1_555
H5B C3B 1_555 1_555
H6B C3B 1_555 1_555
Cl1B Cu1 1_555 1_555
Cl1C Cu1 1_555 1_555
Cu1A_2 Cl1A 1_555 1_555
N4 C1 1_555 1_555
N4B C1B 1_555 1_555

#END
