
#######################################################################
#
#                 Cambridge Crystallographic Data Centre
#                                CCDC 
#
#######################################################################
#
# If this CIF has been generated from an entry in the Cambridge 
# Structural Database, then it will include bibliographic, chemical, 
# crystal, experimental, refinement or atomic coordinate data resulting 
# from the CCDC's data processing and validation procedures.
#
#######################################################################

data_YUHSIE
_symmetry_cell_setting           orthorhombic
_symmetry_space_group_name_H-M   'P n a 21'
_symmetry_Int_Tables_number      33
_space_group_name_Hall           'P 2c -2n'
loop_
_symmetry_equiv_pos_site_id
_symmetry_equiv_pos_as_xyz
1 x,y,z
2 -x,-y,1/2+z
3 1/2+x,1/2-y,z
4 1/2-x,1/2+y,1/2+z
_cell_length_a                   6.8734(14)
_cell_length_b                   21.965(4)
_cell_length_c                   12.326(3)
_cell_angle_alpha                90
_cell_angle_beta                 90
_cell_angle_gamma                90
_cell_volume                     1860.91
loop_
_atom_site_label
_atom_site_type_symbol
_atom_site_fract_x
_atom_site_fract_y
_atom_site_fract_z
Cs1 Cs 0.28896(3) 0.600232(11) 0.39058(2)
Cs2 Cs -0.18883(4) 0.529030(12) 0.59607(2)
Cs3 Cs 0.17632(4) 0.830450(15) 1.06274(2)
C1 C -0.0594(6) 0.7175(2) 0.4752(3)
N1 N -0.0413(5) 0.67056(15) 0.5469(3)
C2 C -0.0176(6) 0.86305(19) 0.7389(3)
C3 C 0.0097(6) 0.56117(19) 0.8746(3)
N2 N 0.0152(5) 0.72038(15) 0.8663(3)
C4 C 0.0089(5) 0.66116(19) 0.8303(3)
C5 C -0.0366(5) 0.79324(17) 0.6018(3)
N3 N 0.0022(5) 0.82206(16) 0.8190(3)
N4 N -0.0583(5) 0.77737(16) 0.4988(3)
N5 N 0.0091(5) 0.95772(18) 0.9529(3)
N6 N 0.0016(5) 0.51033(17) 0.8546(3)
N7 N -0.0802(5) 0.69908(14) 0.3708(2)
N8 N -0.0340(5) 0.85151(15) 0.6305(3)
C6 C -0.0050(6) 0.93888(19) 0.8655(4)
N9 N 0.0220(5) 0.61866(15) 0.9088(3)
N10 N -0.0215(5) 0.92327(15) 0.7627(3)
N11 N -0.0095(5) 0.64378(15) 0.7264(3)
N12 N -0.0206(4) 0.74781(14) 0.6817(3)
C7 C 0.0000(5) 0.76327(18) 0.7919(3)
C8 C -0.0244(5) 0.68608(18) 0.6510(4)
N13 N -0.1328(6) 0.77416(17) 0.2245(3)
C9 C -0.1056(6) 0.74192(19) 0.2978(3)
O1 O 0.1612(7) 0.62287(19) 0.1307(3)
H1 H 0.113(9) 0.629(3) 0.071(3)
H2 H 0.227(9) 0.652(2) 0.149(6)
O2 O 0.7016(5) 0.59419(17) 0.3003(5)
H3 H 0.787(7) 0.620(2) 0.316(6)
H4 H 0.747(9) 0.5602(16) 0.289(7)
O3 O 0.2363(5) 0.50575(19) 0.6131(3)
H5 H 0.318(7) 0.489(3) 0.576(5)
H6 H 0.316(7) 0.523(3) 0.652(4)
Cs1B Cs -0.21104(3) 0.899768(11) 0.39058(2)
Cs1C Cs 0.21104(3) 1.100232(11) 0.89058(2)
Cs1A Cs -0.28896(3) 0.399768(11) 0.89058(2)
Cs2C Cs -0.31117(4) 1.029030(12) 1.09607(2)
Cs2A Cs 0.18883(4) 0.470970(12) 1.09607(2)
Cs2B Cs 0.31117(4) 0.970970(12) 0.59607(2)
Cs2A_2 Cs 0.18883(4) 0.470970(12) 0.09607(2)
Cs3B Cs -0.32368(4) 0.669550(15) 1.06274(2)
Cs3_2 Cs 0.17632(4) 0.830450(15) 0.06274(2)
Cs3B_2 Cs -0.32368(4) 0.669550(15) 0.06274(2)
Cs3B_3 Cs 0.67632(4) 0.669550(15) 0.06274(2)
N2B N 0.5152(5) 0.77962(15) 0.8663(3)
N4B N 0.4417(5) 0.72263(16) 0.4988(3)
N5C N 0.4909(5) 0.45772(18) 0.4529(3)
N5C_2 N -0.5091(5) 0.45772(18) 0.4529(3)
N6A N -0.0016(5) 0.48967(17) 0.3546(3)
N8B N 0.4660(5) 0.64849(15) 0.6305(3)
N8B_2 N -0.5340(5) 0.64849(15) 0.6305(3)
N9B N 0.5220(5) 0.88134(15) 0.9088(3)
N10B N -0.5215(5) 0.57673(15) 0.7627(3)
N13B N 0.3672(6) 0.72584(17) 0.2245(3)
N13_2 N -0.1328(6) 0.77416(17) 1.2245(3)
N13B_2 N 0.3672(6) 0.72584(17) 1.2245(3)
O1A O -0.1612(7) 0.37713(19) 0.6307(3)
O1B O 0.6612(7) 0.87713(19) 1.1307(3)
H1A H -0.113(9) 0.371(3) 0.571(3)
H1B H 0.613(9) 0.871(3) 1.071(3)
H2A H -0.227(9) 0.348(2) 0.649(6)
H2B H 0.727(9) 0.848(2) 1.149(6)
O2B O 0.2016(5) 0.90581(17) 1.3003(5)
H3B H 0.287(7) 0.880(2) 1.316(6)
H4B H 0.247(9) 0.9398(16) 1.289(7)
loop_
_geom_bond_atom_site_label_1
_geom_bond_atom_site_label_2
_geom_bond_site_symmetry_1
_geom_bond_site_symmetry_2
Cs1 N1 1_555 1_555
Cs2 N1 1_555 1_555
Cs3 N2 1_555 1_555
C1 N1 1_555 1_555
N1 C8 1_555 1_555
C2 N3 1_555 1_555
C3 N6 1_555 1_555
N2 C4 1_555 1_555
C4 N9 1_555 1_555
C5 N4 1_555 1_555
N3 Cs3 1_555 1_555
N4 C1 1_555 1_555
N5 Cs3 1_555 1_555
N6 Cs2 1_555 1_555
N7 Cs1 1_555 1_555
N8 C2 1_555 1_555
C6 N5 1_555 1_555
N9 C3 1_555 1_555
N10 C2 1_555 1_555
N11 Cs2 1_555 1_555
N12 C5 1_555 1_555
C7 N2 1_555 1_555
C8 N11 1_555 1_555
N13 C9 1_555 1_555
C9 N7 1_555 1_555
O1 Cs1 1_555 1_555
H1 O1 1_555 1_555
H2 O1 1_555 1_555
O2 Cs1 1_555 1_555
H3 O2 1_555 1_555
H4 O2 1_555 1_555
O3 Cs1 1_555 1_555
H5 O3 1_555 1_555
H6 O3 1_555 1_555
Cs1B N4 1_555 1_555
Cs1C N5 1_555 1_555
Cs1A N6 1_555 1_555
Cs2C N5 1_555 1_555
Cs2A N6 1_555 1_555
Cs2B N8 1_555 1_555
Cs2A_2 O1 1_555 1_555
Cs3B N2 1_555 1_555
Cs3_2 N13 1_555 1_555
Cs3B_2 N13 1_555 1_555
Cs3B_3 O2 1_555 1_555
N2B Cs3 1_555 1_555
N4B Cs1 1_555 1_555
N5C Cs1 1_555 1_555
N5C_2 Cs2 1_555 1_555
N6A Cs1 1_555 1_555
N8B Cs1 1_555 1_555
N8B_2 Cs2 1_555 1_555
N9B Cs3 1_555 1_555
N10B Cs2 1_555 1_555
N13B Cs1 1_555 1_555
N13_2 Cs3 1_555 1_555
N13B_2 Cs3 1_555 1_555
O1A Cs2 1_555 1_555
O1B Cs3 1_555 1_555
H1A O1A 1_555 1_555
H1B O1B 1_555 1_555
H2A O1A 1_555 1_555
H2B O1B 1_555 1_555
O2B Cs3 1_555 1_555
H3B O2B 1_555 1_555
H4B O2B 1_555 1_555
Cs2 O3 1_555 1_555
Cs2 N6A 1_555 1_555
C1 N7 1_555 1_555
C4 N11 1_555 1_555
C5 N8 1_555 1_555
N3 C7 1_555 1_555
N8 Cs1B 1_555 1_555
C6 N10 1_555 1_555
N9 Cs3B 1_555 1_555
N10 Cs2B 1_555 1_555
N12 C7 1_555 1_555
N12 C8 1_555 1_555
N13 Cs1B 1_555 1_555
O1 Cs3B_2 1_555 1_555
Cs1A O1A 1_555 1_555
Cs2A_2 N6A 1_555 1_555
Cs3B N13_2 1_555 1_555
Cs3_2 N13B 1_555 1_555
Cs3B_3 N13B 1_555 1_555

#END
