
#######################################################################
#
#                 Cambridge Crystallographic Data Centre
#                                CCDC 
#
#######################################################################
#
# If this CIF has been generated from an entry in the Cambridge 
# Structural Database, then it will include bibliographic, chemical, 
# crystal, experimental, refinement or atomic coordinate data resulting 
# from the CCDC's data processing and validation procedures.
#
#######################################################################

data_YUHTOL
_symmetry_cell_setting           monoclinic
_symmetry_space_group_name_H-M   'P 21/n'
_symmetry_Int_Tables_number      14
_space_group_name_Hall           '-P 2yn'
loop_
_symmetry_equiv_pos_site_id
_symmetry_equiv_pos_as_xyz
1 x,y,z
2 1/2-x,1/2+y,1/2-z
3 -x,-y,-z
4 1/2+x,1/2-y,1/2+z
_cell_length_a                   14.628(3)
_cell_length_b                   14.452(3)
_cell_length_c                   15.883(3)
_cell_angle_alpha                90
_cell_angle_beta                 107.70(3)
_cell_angle_gamma                90
_cell_volume                     3198.78
loop_
_atom_site_label
_atom_site_type_symbol
_atom_site_fract_x
_atom_site_fract_y
_atom_site_fract_z
C1 C 0.8508(2) 0.8356(2) 0.4122(2)
H1 H 0.9098 0.8654 0.4503
H2 H 0.8414 0.8556 0.3505
C2 C 0.7591(2) 0.9940(2) 0.4509(2)
C3 C 0.7047(3) 1.0407(3) 0.4963(2)
H3 H 0.6627 1.0076 0.5208
C4 C 0.7130(3) 1.1360(3) 0.5051(3)
H4 H 0.6768 1.1685 0.5363
C5 C 0.7740(3) 1.1846(3) 0.4686(3)
H5 H 0.7796 1.2499 0.475
C6 C 0.8265(3) 1.1375(3) 0.4228(3)
H6 H 0.8676 1.1709 0.3976
C7 C 0.8197(3) 1.0421(3) 0.4135(3)
H7 H 0.8558 1.01 0.3821
C8 C 0.7554(2) 0.6369(3) 0.3389(2)
H8 H 0.7501 0.6552 0.2775
H9 H 0.7667 0.5693 0.3441
C9 C 0.5620(2) 0.5889(3) 0.2834(2)
C10 C 0.4806(3) 0.6248(3) 0.2226(3)
H10 H 0.4688 0.6896 0.22
C11 C 0.4165(4) 0.5652(4) 0.1656(3)
H11 H 0.3602 0.5894 0.1243
C12 C 0.4339(3) 0.4705(3) 0.1681(3)
H12 H 0.3903 0.4305 0.1279
C13 C 0.5145(3) 0.4349(3) 0.2292(3)
H13 H 0.5261 0.3701 0.2318
C14 C 0.5789(3) 0.4943(3) 0.2870(2)
H14 H 0.6345 0.4699 0.3291
C15 C 0.9828(2) 0.6738(3) 0.3881(2)
H15 H 1.0207 0.7313 0.3925
H16 H 1.0224 0.6285 0.4305
C16 C 1.0523(2) 0.6667(2) 0.2385(2)
C17 C 1.1424(3) 0.6904(3) 0.2938(3)
H17 H 1.1548 0.6905 0.3561
C18 C 1.2143(4) 0.7139(4) 0.2575(4)
H18 H 1.2762 0.7294 0.2955
C19 C 1.1978(4) 0.7151(4) 0.1678(4)
H19 H 1.2476 0.7317 0.1439
C20 C 1.1081(5) 0.6920(4) 0.1125(4)
H20 H 1.0965 0.6927 0.0503
C21 C 1.0345(4) 0.6677(3) 0.1467(3)
H21 H 0.9729 0.6519 0.1083
C22 C 0.8838(3) 0.6683(2) 0.5445(2)
H22 H 0.8277 0.6903 0.5615
H23 H 0.9412 0.7011 0.5819
C23 C 0.7818(3) 0.5091(3) 0.5678(2)
C24 C 0.7382(3) 0.5438(3) 0.6277(3)
H24 H 0.7695 0.5901 0.6689
C25 C 0.6487(4) 0.5108(4) 0.6273(3)
H25 H 0.6187 0.5356 0.6676
C26 C 0.6031(3) 0.4425(4) 0.5692(3)
H26 H 0.5422 0.4201 0.5695
C27 C 0.6473(3) 0.4066(3) 0.5102(3)
H27 H 0.6169 0.3587 0.4706
C28 C 0.7361(3) 0.4405(3) 0.5088(3)
H28 H 0.7653 0.4167 0.4675
Cu1 Cu 0.61617(3) 0.82089(3) 0.32978(3)
Cu2 Cu 0.51277(3) 0.96717(3) 0.20919(3)
Ge1 Ge 0.86506(2) 0.70076(2) 0.42039(2)
I1 I 0.656852(17) 0.871696(16) 0.184344(15)
I2 I 0.459459(17) 0.895845(18) 0.338597(16)
S1 S 0.74927(6) 0.87125(6) 0.44639(5)
S2 S 0.64295(6) 0.66334(6) 0.36099(5)
S3 S 0.95558(6) 0.62752(6) 0.27649(6)
S4 S 0.89871(6) 0.54502(6) 0.56685(6)
Cu2A Cu 0.98723(3) 0.46717(3) 0.29081(3)
Cu2C Cu 1.01277(3) 0.53283(3) 0.70919(3)
S3A S 0.54442(6) 1.12752(6) 0.22351(6)
S4C S 0.39871(6) 0.95498(6) 0.06685(6)
loop_
_geom_bond_atom_site_label_1
_geom_bond_atom_site_label_2
_geom_bond_site_symmetry_1
_geom_bond_site_symmetry_2
C1 H1 1_555 1_555
H2 C1 1_555 1_555
C2 C3 1_555 1_555
C3 H3 1_555 1_555
C4 C3 1_555 1_555
H4 C4 1_555 1_555
C5 C4 1_555 1_555
H5 C5 1_555 1_555
C6 C5 1_555 1_555
H6 C6 1_555 1_555
C7 C2 1_555 1_555
H7 C7 1_555 1_555
C8 H8 1_555 1_555
H9 C8 1_555 1_555
C9 C10 1_555 1_555
C10 H10 1_555 1_555
C11 C10 1_555 1_555
H11 C11 1_555 1_555
C12 C11 1_555 1_555
H12 C12 1_555 1_555
C13 C12 1_555 1_555
H13 C13 1_555 1_555
C14 C9 1_555 1_555
H14 C14 1_555 1_555
C15 H15 1_555 1_555
H16 C15 1_555 1_555
C16 C17 1_555 1_555
C17 H17 1_555 1_555
C18 C17 1_555 1_555
H18 C18 1_555 1_555
C19 C18 1_555 1_555
H19 C19 1_555 1_555
C20 C19 1_555 1_555
H20 C20 1_555 1_555
C21 C16 1_555 1_555
H21 C21 1_555 1_555
C22 H22 1_555 1_555
H23 C22 1_555 1_555
C23 C24 1_555 1_555
C24 H24 1_555 1_555
C25 C24 1_555 1_555
H25 C25 1_555 1_555
C26 C25 1_555 1_555
H26 C26 1_555 1_555
C27 C26 1_555 1_555
H27 C27 1_555 1_555
C28 C23 1_555 1_555
H28 C28 1_555 1_555
Cu1 I1 1_555 1_555
Cu2 I1 1_555 1_555
Ge1 C1 1_555 1_555
I2 Cu1 1_555 1_555
S1 C1 1_555 1_555
S2 C8 1_555 1_555
S3 C15 1_555 1_555
S4 C22 1_555 1_555
Cu2A S3 1_555 1_555
Cu2C S4 1_555 1_555
S3A Cu2 1_555 1_555
S4C Cu2 1_555 1_555
C2 S1 1_555 1_555
C6 C7 1_555 1_555
C8 Ge1 1_555 1_555
C9 S2 1_555 1_555
C13 C14 1_555 1_555
C15 Ge1 1_555 1_555
C16 S3 1_555 1_555
C20 C21 1_555 1_555
C22 Ge1 1_555 1_555
C23 S4 1_555 1_555
C27 C28 1_555 1_555
Cu1 S1 1_555 1_555
Cu1 S2 1_555 1_555
Cu2 I2 1_555 1_555

#END
