
#######################################################################
#
#                 Cambridge Crystallographic Data Centre
#                                CCDC 
#
#######################################################################
#
# If this CIF has been generated from an entry in the Cambridge 
# Structural Database, then it will include bibliographic, chemical, 
# crystal, experimental, refinement or atomic coordinate data resulting 
# from the CCDC's data processing and validation procedures.
#
#######################################################################

data_YUHTUR
_symmetry_cell_setting           triclinic
_symmetry_space_group_name_H-M   'P -1'
_symmetry_Int_Tables_number      2
_space_group_name_Hall           '-P 1'
loop_
_symmetry_equiv_pos_site_id
_symmetry_equiv_pos_as_xyz
1 x,y,z
2 -x,-y,-z
_cell_length_a                   9.437(5)
_cell_length_b                   13.364(5)
_cell_length_c                   13.920(5)
_cell_angle_alpha                62.08(4)
_cell_angle_beta                 89.78(6)
_cell_angle_gamma                79.63(6)
_cell_volume                     1519.31
loop_
_atom_site_label
_atom_site_type_symbol
_atom_site_fract_x
_atom_site_fract_y
_atom_site_fract_z
Br1 Br 0.25562(5) 0.47742(5) 0.58590(4)
Br2 Br 0.24166(5) 0.52322(5) 0.91489(4)
C1 C 0.6506(4) 0.4160(4) 0.8764(4)
H1 H 0.7207 0.3656 0.9412
H2 H 0.584 0.4713 0.8927
C2 C 0.4887(4) 0.2427(4) 0.9769(4)
C3 C 0.4158(6) 0.1583(5) 0.9821(5)
H3 H 0.402 0.149 0.9194
C4 C 0.3638(7) 0.0886(6) 1.0787(5)
H4 H 0.3133 0.0318 1.082
C5 C 0.3846(6) 0.1006(6) 1.1706(5)
H5 H 0.3496 0.0518 1.2372
C6 C 0.4562(5) 0.1838(5) 1.1651(4)
H6 H 0.4697 0.1929 1.2279
C7 C 0.5087(5) 0.2542(5) 1.0687(4)
H7 H 0.559 0.3109 1.066
C8 C 0.6086(4) 0.5884(4) 0.6214(3)
H8 H 0.6539 0.6392 0.5569
H9 H 0.5705 0.5336 0.6043
C9 C 0.3569(5) 0.7591(5) 0.5230(4)
C10 C 0.3834(5) 0.7460(5) 0.4315(4)
H10 H 0.4639 0.6907 0.4334
C11 C 0.2911(5) 0.8144(5) 0.3364(4)
H11 H 0.3094 0.8057 0.2733
C12 C 0.1750(6) 0.8937(5) 0.3324(5)
H12 H 0.1121 0.9391 0.2672
C13 C 0.1489(6) 0.9080(6) 0.4233(6)
H13 H 0.0685 0.9641 0.42
C14 C 0.2388(5) 0.8413(5) 0.5193(5)
H14 H 0.2205 0.8514 0.5817
C15 C 0.8969(5) 0.3990(5) 0.7164(4)
H15 H 0.8481 0.342 0.7108
H16 H 0.9298 0.4455 0.6439
C16 C 0.9831(5) 0.2394(4) 0.9397(4)
C17 C 0.9062(5) 0.1556(5) 0.9509(4)
H17 H 0.8907 0.1415 0.8913
C18 C 0.8522(6) 0.0925(6) 1.0502(5)
H18 H 0.7968 0.0369 1.0576
C19 C 0.8782(5) 0.1100(5) 1.1375(4)
H19 H 0.8414 0.0665 1.2051
C20 C 0.9579(6) 0.1907(6) 1.1267(5)
H20 H 0.9775 0.2015 1.1877
C21 C 1.0101(5) 0.2565(5) 1.0279(4)
H21 H 1.064 0.3127 1.021
C22 C 0.8438(5) 0.6043(5) 0.7826(4)
H22 H 0.7656 0.6619 0.7871
H23 H 0.8981 0.5579 0.8557
C23 C 0.8563(5) 0.7617(5) 0.5599(4)
C24 C 0.8939(5) 0.7400(5) 0.4744(4)
H24 H 0.9745 0.6811 0.484
C25 C 0.8117(6) 0.8058(5) 0.3741(4)
H25 H 0.8376 0.7921 0.3146
C26 C 0.6942(6) 0.8898(6) 0.3598(4)
H26 H 0.6379 0.9327 0.2913
C27 C 0.6579(6) 0.9120(6) 0.4447(5)
H27 H 0.5765 0.9704 0.4349
C28 C 0.7401(6) 0.8490(5) 0.5447(4)
H28 H 0.7168 0.8658 0.6028
Hg1 Hg 0.271437(19) 0.500903(18) 0.750067(14)
S1 S 0.54945(12) 0.32952(12) 0.84836(9)
S2 S 0.46328(12) 0.67392(12) 0.65053(9)
S3 S 1.05643(12) 0.32006(12) 0.81496(10)
S4 S 0.96627(12) 0.68198(12) 0.68601(10)
Ge1 Ge 0.75499(4) 0.50164(4) 0.74934(3)
Hg1_2 Hg 1.271437(19) 0.500903(18) 0.750067(14)
S3_2 S 0.05643(12) 0.32006(12) 0.81496(10)
S4_2 S -0.03373(12) 0.68198(12) 0.68601(10)
loop_
_geom_bond_atom_site_label_1
_geom_bond_atom_site_label_2
_geom_bond_site_symmetry_1
_geom_bond_site_symmetry_2
Br1 Hg1 1_555 1_555
Br2 Hg1 1_555 1_555
C1 H1 1_555 1_555
H2 C1 1_555 1_555
C2 C3 1_555 1_555
C3 H3 1_555 1_555
C4 C3 1_555 1_555
H4 C4 1_555 1_555
C5 C4 1_555 1_555
H5 C5 1_555 1_555
C6 C5 1_555 1_555
H6 C6 1_555 1_555
C7 C2 1_555 1_555
H7 C7 1_555 1_555
C8 H8 1_555 1_555
H9 C8 1_555 1_555
C9 C10 1_555 1_555
C10 H10 1_555 1_555
C11 C10 1_555 1_555
H11 C11 1_555 1_555
C12 C11 1_555 1_555
H12 C12 1_555 1_555
C13 C12 1_555 1_555
H13 C13 1_555 1_555
C14 C9 1_555 1_555
H14 C14 1_555 1_555
C15 H15 1_555 1_555
H16 C15 1_555 1_555
C16 C17 1_555 1_555
C17 H17 1_555 1_555
C18 C17 1_555 1_555
H18 C18 1_555 1_555
C19 C18 1_555 1_555
H19 C19 1_555 1_555
C20 C19 1_555 1_555
H20 C20 1_555 1_555
C21 C16 1_555 1_555
H21 C21 1_555 1_555
C22 H22 1_555 1_555
H23 C22 1_555 1_555
C23 C24 1_555 1_555
C24 H24 1_555 1_555
C25 C24 1_555 1_555
H25 C25 1_555 1_555
C26 C25 1_555 1_555
H26 C26 1_555 1_555
C27 C26 1_555 1_555
H27 C27 1_555 1_555
C28 C23 1_555 1_555
H28 C28 1_555 1_555
Hg1 S1 1_555 1_555
S1 C1 1_555 1_555
S2 C8 1_555 1_555
S3 C15 1_555 1_555
S4 C22 1_555 1_555
Ge1 C1 1_555 1_555
Hg1_2 S3 1_555 1_555
S3_2 Hg1 1_555 1_555
S4_2 Hg1 1_555 1_555
C2 S1 1_555 1_555
C6 C7 1_555 1_555
C8 Ge1 1_555 1_555
C9 S2 1_555 1_555
C13 C14 1_555 1_555
C15 Ge1 1_555 1_555
C16 S3 1_555 1_555
C20 C21 1_555 1_555
C22 Ge1 1_555 1_555
C23 S4 1_555 1_555
C27 C28 1_555 1_555
Hg1 S2 1_555 1_555
S4 Hg1_2 1_555 1_555

#END
