
#######################################################################
#
#                 Cambridge Crystallographic Data Centre
#                                CCDC 
#
#######################################################################
#
# If this CIF has been generated from an entry in the Cambridge 
# Structural Database, then it will include bibliographic, chemical, 
# crystal, experimental, refinement or atomic coordinate data resulting 
# from the CCDC's data processing and validation procedures.
#
#######################################################################

data_YUHVEE
_symmetry_cell_setting           monoclinic
_symmetry_space_group_name_H-M   'P 21/c'
_symmetry_Int_Tables_number      14
_space_group_name_Hall           '-P 2ybc'
loop_
_symmetry_equiv_pos_site_id
_symmetry_equiv_pos_as_xyz
1 x,y,z
2 -x,1/2+y,1/2-z
3 -x,-y,-z
4 x,1/2-y,1/2+z
_cell_length_a                   3.324(2)
_cell_length_b                   9.9880(10)
_cell_length_c                   8.6440(10)
_cell_angle_alpha                90
_cell_angle_beta                 102.090(3)
_cell_angle_gamma                90
_cell_volume                     280.616
loop_
_atom_site_label
_atom_site_type_symbol
_atom_site_fract_x
_atom_site_fract_y
_atom_site_fract_z
Zn1 Zn -0.19868(9) 0.38492(3) 0.07122(5)
O1 O 0.3264(8) 0.38303(19) 0.2668(4)
O2 O 0.8246(6) 0.3144(2) 0.6245(3)
O3 O -0.2299(6) 0.5959(3) 0.0650(3)
H1 H -0.155(12) 0.635(4) 0.153(3)
C1 C 0.4197(8) 0.4472(3) 0.3943(4)
C2 C 0.6428(8) 0.4152(3) 0.5547(4)
O1B O 0.6736(8) 0.61697(19) 0.7332(4)
O2B O 0.1754(6) 0.6856(2) 0.3755(3)
C1B C 0.5803(8) 0.5528(3) 0.6057(4)
C2B C 0.3572(8) 0.5848(3) 0.4453(4)
Zn1B Zn -0.80132(9) 0.61508(3) -0.07122(5)
O3B O -0.7701(6) 0.4041(3) -0.0650(3)
H1B H -0.845(12) 0.365(4) -0.153(3)
Zn1_2 Zn -1.19868(9) 0.38492(3) 0.07122(5)
Zn1_3 Zn 0.80132(9) 0.38492(3) 0.07122(5)
Zn1A Zn 0.19868(9) 0.88492(3) 0.42878(5)
Zn1B_2 Zn 0.19868(9) 0.61508(3) -0.07122(5)
Zn1B_3 Zn 0.19868(9) 0.61508(3) 0.92878(5)
Zn1B_4 Zn 1.19868(9) 0.61508(3) 0.92878(5)
Zn1C Zn 0.80132(9) 0.11508(3) 0.57122(5)
O1_2 O -0.6736(8) 0.38303(19) 0.2668(4)
O1B_2 O -1.3264(8) 0.61697(19) -0.2668(4)
O1B_3 O -0.3264(8) 0.61697(19) -0.2668(4)
O2A O -0.8246(6) 0.8144(2) -0.1245(3)
O2C O -0.1754(6) 0.1856(2) 0.1245(3)
O3_2 O -1.2299(6) 0.5959(3) 0.0650(3)
O3B_2 O 0.2299(6) 0.4041(3) -0.0650(3)
loop_
_geom_bond_atom_site_label_1
_geom_bond_atom_site_label_2
_geom_bond_site_symmetry_1
_geom_bond_site_symmetry_2
Zn1 O1 1_555 1_555
O1 C1 1_555 1_555
O2 C2 1_555 1_555
O3 Zn1 1_555 1_555
H1 O3 1_555 1_555
C1 C2 1_555 1_555
C2 C1B 1_555 1_555
O1B C1B 1_555 1_555
O2B C2B 1_555 1_555
C1B C2B 1_555 1_555
C2B C1 1_555 1_555
Zn1B O3 1_555 1_555
O3B Zn1 1_555 1_555
H1B O3B 1_555 1_555
Zn1_2 O3B 1_555 1_555
Zn1_3 O1 1_555 1_555
Zn1A O2B 1_555 1_555
Zn1B_2 O3 1_555 1_555
Zn1B_3 O1B 1_555 1_555
Zn1B_4 O1B 1_555 1_555
Zn1C O2 1_555 1_555
O1_2 Zn1 1_555 1_555
O1B_2 Zn1B 1_555 1_555
O1B_3 Zn1B 1_555 1_555
O2A Zn1B 1_555 1_555
O2C Zn1 1_555 1_555
O3_2 Zn1B 1_555 1_555
O3B_2 Zn1 1_555 1_555
Zn1B O3B 1_555 1_555
Zn1_2 O1_2 1_555 1_555
Zn1_2 O3_2 1_555 1_555
Zn1_3 O3B_2 1_555 1_555
Zn1B_2 O1B_3 1_555 1_555
Zn1B_2 O3B_2 1_555 1_555

#END
