
#######################################################################
#
#                 Cambridge Crystallographic Data Centre
#                                CCDC 
#
#######################################################################
#
# If this CIF has been generated from an entry in the Cambridge 
# Structural Database, then it will include bibliographic, chemical, 
# crystal, experimental, refinement or atomic coordinate data resulting 
# from the CCDC's data processing and validation procedures.
#
#######################################################################

data_YUJLEV
_symmetry_cell_setting           monoclinic
_symmetry_space_group_name_H-M   'C 2/c'
_symmetry_Int_Tables_number      15
_space_group_name_Hall           '-C 2yn'
loop_
_symmetry_equiv_pos_site_id
_symmetry_equiv_pos_as_xyz
1 x,y,z
2 -x,y,1/2-z
3 1/2+x,1/2+y,z
4 1/2-x,1/2+y,1/2-z
5 -x,-y,-z
6 x,-y,1/2+z
7 1/2-x,1/2-y,-z
8 1/2+x,1/2-y,1/2+z
_cell_length_a                   9.8382(12)
_cell_length_b                   19.334(3)
_cell_length_c                   9.1194(12)
_cell_angle_alpha                90
_cell_angle_beta                 114.946(9)
_cell_angle_gamma                90
_cell_volume                     1572.79
loop_
_atom_site_label
_atom_site_type_symbol
_atom_site_fract_x
_atom_site_fract_y
_atom_site_fract_z
Zn1 Zn 1.0000 0.207769(19) 0.2500
O1 O 0.77610(18) 0.20822(9) 0.2312(2)
O2 O 0.8087(2) 0.16590(12) 0.4725(2)
C1 C 0.7311(3) 0.18496(13) 0.3327(3)
C2 C 0.5660(3) 0.18158(14) 0.2739(3)
O3 O 1.0867(2) 0.20350(9) 0.5043(2)
H1 H 1.000(3) 0.1950(18) 0.513(5)
H2 H 1.143(3) 0.2362(13) 0.574(3)
N1 N 1.0000 0.09656(15) 0.2500
C3 C 0.9012(3) 0.06078(15) 0.1258(4)
H3 H 0.8308 0.0848 0.0384
C4 C 0.8994(4) -0.01056(16) 0.1218(4)
H4 H 0.8301 -0.0339 0.0323
C5 C 1.0000 -0.0466(2) 0.2500
H5 H 1.0000 -0.0947 0.2500
N2 N 1.0000 0.31949(16) 0.2500
C6 C 1.0652(3) 0.35498(15) 0.1725(4)
H6 H 1.1115 0.3307 0.1181
C7 C 1.0669(4) 0.42636(18) 0.1693(5)
H7 H 1.1129 0.4495 0.1131
C8 C 1.0000 0.4626(3) 0.2500
H8 H 1.0000 0.5107 0.2500
Zn1_2 Zn 0.0000 0.207769(19) 0.2500
O1A O 0.22390(18) 0.20822(9) 0.2688(2)
O1A_2 O 1.22390(18) 0.20822(9) 0.2688(2)
O2A O 0.1913(2) 0.16590(12) 0.0275(2)
C1A C 0.2689(3) 0.18496(13) 0.1673(3)
C2A C 0.4340(3) 0.18158(14) 0.2261(3)
O3A O 0.9133(2) 0.20350(9) -0.0043(2)
H1A H 1.000(3) 0.1950(18) -0.013(5)
H2A H 0.857(3) 0.2362(13) -0.074(3)
C3A C 1.0988(3) 0.06078(15) 0.3742(4)
H3A H 1.1692 0.0848 0.4616
C4A C 1.1006(4) -0.01056(16) 0.3782(4)
H4A H 1.1699 -0.0339 0.4677
C6A C 0.9348(3) 0.35498(15) 0.3275(4)
H6A H 0.8885 0.3307 0.3819
C7A C 0.9331(4) 0.42636(18) 0.3307(5)
H7A H 0.8871 0.4495 0.3869
loop_
_geom_bond_atom_site_label_1
_geom_bond_atom_site_label_2
_geom_bond_site_symmetry_1
_geom_bond_site_symmetry_2
Zn1 O1 1_555 1_555
O1 C1 1_555 1_555
O2 C1 1_555 1_555
C1 C2 1_555 1_555
C2 C2A 1_555 1_555
O3 Zn1 1_555 1_555
H1 O3 1_555 1_555
H2 O3 1_555 1_555
N1 Zn1 1_555 1_555
C3 N1 1_555 1_555
H3 C3 1_555 1_555
C4 C3 1_555 1_555
H4 C4 1_555 1_555
C5 C4 1_555 1_555
H5 C5 1_555 1_555
N2 Zn1 1_555 1_555
C6 N2 1_555 1_555
H6 C6 1_555 1_555
C7 C6 1_555 1_555
H7 C7 1_555 1_555
C8 C7 1_555 1_555
H8 C8 1_555 1_555
Zn1_2 O1A 1_555 1_555
O1A C1A 1_555 1_555
O1A_2 Zn1 1_555 1_555
O2A C1A 1_555 1_555
C1A C2A 1_555 1_555
O3A Zn1 1_555 1_555
H1A O3A 1_555 1_555
H2A O3A 1_555 1_555
C3A N1 1_555 1_555
H3A C3A 1_555 1_555
C4A C5 1_555 1_555
H4A C4A 1_555 1_555
C6A N2 1_555 1_555
H6A C6A 1_555 1_555
C7A C8 1_555 1_555
H7A C7A 1_555 1_555
C3A C4A 1_555 1_555
C6A C7A 1_555 1_555

#END
