
#######################################################################
#
#                 Cambridge Crystallographic Data Centre
#                                CCDC 
#
#######################################################################
#
# If this CIF has been generated from an entry in the Cambridge 
# Structural Database, then it will include bibliographic, chemical, 
# crystal, experimental, refinement or atomic coordinate data resulting 
# from the CCDC's data processing and validation procedures.
#
#######################################################################

data_YUJLIZ
_symmetry_cell_setting           monoclinic
_symmetry_space_group_name_H-M   'C 2/c'
_symmetry_Int_Tables_number      15
_space_group_name_Hall           '-C 2yn'
loop_
_symmetry_equiv_pos_site_id
_symmetry_equiv_pos_as_xyz
1 x,y,z
2 -x,y,1/2-z
3 1/2+x,1/2+y,z
4 1/2-x,1/2+y,1/2-z
5 -x,-y,-z
6 x,-y,1/2+z
7 1/2-x,1/2-y,-z
8 1/2+x,1/2-y,1/2+z
_cell_length_a                   10.1011(13)
_cell_length_b                   19.627(3)
_cell_length_c                   9.2941(13)
_cell_angle_alpha                90
_cell_angle_beta                 114.987(10)
_cell_angle_gamma                90
_cell_volume                     1670.14
loop_
_atom_site_label
_atom_site_type_symbol
_atom_site_fract_x
_atom_site_fract_y
_atom_site_fract_z
Cd1 Cd 1.0000 -0.208172(10) 0.2500
O1 O 1.1983(2) -0.16500(11) 0.0327(2)
O2 O 1.2326(2) -0.21162(9) 0.2655(2)
C1 C 1.2751(3) -0.18615(12) 0.1671(3)
C2 C 1.4354(3) -0.18219(12) 0.2250(3)
N1 N 1.0000 -0.08989(14) 0.2500
C3 C 1.0934(4) -0.05469(14) 0.3738(4)
H1 H 1.1599 -0.0784 0.4610
C4 C 1.0955(5) 0.01584(16) 0.3778(4)
H2 H 1.1614 0.0388 0.4668
C5 C 1.0000 0.0512(2) 0.2500
H3 H 1.0000 0.0986 0.2500
N2 N 1.0000 -0.32712(15) 0.2500
C6 C 0.9323(4) -0.36225(15) 0.3214(4)
H4 H 0.8844 -0.3384 0.3718
C7 C 0.9298(5) -0.43222(18) 0.3241(5)
H5 H 0.8812 -0.4550 0.3753
C8 C 1.0000 -0.4678(2) 0.2500
H6 H 1.0000 -0.5151 0.2500
O3 O 0.9152(2) -0.19817(9) -0.0211(2)
H7 H 0.995(3) -0.1944(18) -0.041(5)
H8 H 0.863(4) -0.2322(15) -0.091(4)
Cd1_2 Cd 2.0000 -0.208172(10) 0.2500
O1A O 1.8017(2) -0.16500(11) 0.4673(2)
O2A O 1.7674(2) -0.21162(9) 0.2345(2)
O2A_2 O 0.7674(2) -0.21162(9) 0.2345(2)
C1A C 1.7249(3) -0.18615(12) 0.3329(3)
C2A C 1.5646(3) -0.18219(12) 0.2750(3)
C3A C 0.9066(4) -0.05469(14) 0.1262(4)
H1A H 0.8401 -0.0784 0.0390
C4A C 0.9045(5) 0.01584(16) 0.1222(4)
H2A H 0.8386 0.0388 0.0332
C6A C 1.0677(4) -0.36225(15) 0.1786(4)
H4A H 1.1156 -0.3384 0.1282
C7A C 1.0702(5) -0.43222(18) 0.1759(5)
H5A H 1.1188 -0.4550 0.1247
O3A O 1.0848(2) -0.19817(9) 0.5211(2)
H7A H 1.005(3) -0.1944(18) 0.541(5)
H8A H 1.137(4) -0.2322(15) 0.591(4)
loop_
_geom_bond_atom_site_label_1
_geom_bond_atom_site_label_2
_geom_bond_site_symmetry_1
_geom_bond_site_symmetry_2
Cd1 O2 1_555 1_555
O1 C1 1_555 1_555
O2 C1 1_555 1_555
C1 C2 1_555 1_555
C2 C2A 1_555 1_555
N1 Cd1 1_555 1_555
C3 N1 1_555 1_555
H1 C3 1_555 1_555
C4 C3 1_555 1_555
H2 C4 1_555 1_555
C5 C4 1_555 1_555
H3 C5 1_555 1_555
N2 Cd1 1_555 1_555
C6 N2 1_555 1_555
H4 C6 1_555 1_555
C7 C6 1_555 1_555
H5 C7 1_555 1_555
C8 C7 1_555 1_555
H6 C8 1_555 1_555
O3 Cd1 1_555 1_555
H7 O3 1_555 1_555
H8 O3 1_555 1_555
Cd1_2 O2A 1_555 1_555
O1A C1A 1_555 1_555
O2A C1A 1_555 1_555
O2A_2 Cd1 1_555 1_555
C1A C2A 1_555 1_555
C3A N1 1_555 1_555
H1A C3A 1_555 1_555
C4A C5 1_555 1_555
H2A C4A 1_555 1_555
C6A N2 1_555 1_555
H4A C6A 1_555 1_555
C7A C8 1_555 1_555
H5A C7A 1_555 1_555
O3A Cd1 1_555 1_555
H7A O3A 1_555 1_555
H8A O3A 1_555 1_555
C3A C4A 1_555 1_555
C6A C7A 1_555 1_555

#END
