
#######################################################################
#
#                 Cambridge Crystallographic Data Centre
#                                CCDC 
#
#######################################################################
#
# If this CIF has been generated from an entry in the Cambridge 
# Structural Database, then it will include bibliographic, chemical, 
# crystal, experimental, refinement or atomic coordinate data resulting 
# from the CCDC's data processing and validation procedures.
#
#######################################################################

data_YUJNOH
_symmetry_cell_setting           tetragonal
_symmetry_space_group_name_H-M   'P 4/n'
_symmetry_Int_Tables_number      85
_space_group_name_Hall           '-P 4a'
loop_
_symmetry_equiv_pos_site_id
_symmetry_equiv_pos_as_xyz
1 x,y,z
2 1/2-x,1/2-y,z
3 1/2-y,x,z
4 y,1/2-x,z
5 -x,-y,-z
6 1/2+x,1/2+y,-z
7 1/2+y,-x,-z
8 -y,1/2+x,-z
_cell_length_a                   12.9854(2)
_cell_length_b                   12.9854(2)
_cell_length_c                   8.8601(3)
_cell_angle_alpha                90
_cell_angle_beta                 90
_cell_angle_gamma                90
_cell_volume                     1494
loop_
_atom_site_label
_atom_site_type_symbol
_atom_site_fract_x
_atom_site_fract_y
_atom_site_fract_z
Sr1 Sr 0.951165(15) 0.055062(15) 0.28641(2)
O1 O 1.00128(12) -0.11047(12) 0.44152(17)
O2 O 1.01614(12) -0.28223(14) 0.43986(19)
O3 O 0.8612(3) 0.2351(2) 0.3060(4)
N1 N 1.00220(14) -0.11206(14) 0.1233(2)
N2 N 1.01814(15) -0.28108(16) 0.1258(2)
C1 C 1.00850(19) -0.1962(2) 0.3766(3)
N3 N 1.00759(15) -0.14732(16) -0.0185(2)
N4 N 1.01704(17) -0.24778(17) -0.0177(2)
O4 O 1.14479(16) 0.0833(2) 0.2848(4)
C2 C 1.00889(17) -0.19643(18) 0.2079(3)
H1 H 1.165(3) 0.084(3) 0.213(4)
H2 H 0.820(4) 0.225(5) 0.284(7)
H3 H 1.170(3) 0.067(3) 0.356(4)
H4 H 0.875(3) 0.263(3) 0.373(5)
Sr1B Sr 0.444938(15) -0.048835(15) 0.28641(2)
Sr1D Sr 1.048835(15) -0.055062(15) -0.28641(2)
Sr1D_2 Sr 1.048835(15) -0.055062(15) 0.71359(2)
Sr1C Sr 1.055062(15) -0.451165(15) 0.28641(2)
Sr1F Sr 0.555062(15) 0.048835(15) 0.71359(2)
Sr1F_2 Sr 0.555062(15) 0.048835(15) -0.28641(2)
Sr1_2 Sr 0.951165(15) 0.055062(15) -0.71359(2)
Sr1G Sr 0.944938(15) 0.451165(15) -0.28641(2)
Sr1G_2 Sr 0.944938(15) 0.451165(15) 0.71359(2)
Sr1_3 Sr 0.951165(15) 0.055062(15) 1.28641(2)
O1B O 0.61047(12) 0.00128(12) 0.44152(17)
O1D O 0.99872(12) 0.11047(12) -0.44152(17)
O1D_2 O 0.99872(12) 0.11047(12) 0.55848(17)
O1F O 0.38953(12) -0.00128(12) 0.55848(17)
O1_2 O 1.00128(12) -0.11047(12) -0.55848(17)
O2B O 0.78223(14) 0.01614(12) 0.43986(19)
O2D O 0.98386(12) 0.28223(14) -0.43986(19)
O2D_2 O 0.98386(12) 0.28223(14) 0.56014(19)
O2A O 0.48386(12) -0.21777(14) 0.43986(19)
O2F O 1.21777(14) -0.01614(12) -0.43986(19)
O2F_2 O 1.21777(14) -0.01614(12) 0.56014(19)
O3B O 0.2649(2) -0.1388(3) 0.3060(4)
O3D O 1.1388(3) -0.2351(2) -0.3060(4)
O3D_2 O 1.1388(3) -0.2351(2) 0.6940(4)
N1B N 0.61206(14) 0.00220(14) 0.1233(2)
N1D N 0.99780(14) 0.11206(14) -0.1233(2)
N1D_2 N 0.99780(14) 0.11206(14) 0.8767(2)
N2B N 0.78108(16) 0.01814(15) 0.1258(2)
N2D N 0.98186(15) 0.28108(16) -0.1258(2)
N2D_2 N 0.98186(15) 0.28108(16) 0.8742(2)
N2A N 0.48186(15) -0.21892(16) 0.1258(2)
N2F N 1.21892(16) -0.01814(15) -0.1258(2)
N2F_2 N 1.21892(16) -0.01814(15) 0.8742(2)
C1B C 0.6962(2) 0.00850(19) 0.3766(3)
C1D C 0.99150(19) 0.1962(2) -0.3766(3)
C1D_2 C 0.99150(19) 0.1962(2) 0.6234(3)
N3B N 0.64732(16) 0.00759(15) -0.0185(2)
N3D N 0.99241(15) 0.14732(16) 0.0185(2)
N3D_2 N 0.99241(15) 0.14732(16) 1.0185(2)
N3F N 0.35268(16) -0.00759(15) 0.0185(2)
N3_2 N 1.00759(15) -0.14732(16) 0.9815(2)
N4B N 0.74778(17) 0.01704(17) -0.0177(2)
N4D N 0.98296(17) 0.24778(17) 0.0177(2)
N4D_2 N 0.98296(17) 0.24778(17) 1.0177(2)
O4B O 0.4167(2) 0.14479(16) 0.2848(4)
O4D O 0.85521(16) -0.0833(2) -0.2848(4)
O4D_2 O 0.85521(16) -0.0833(2) 0.7152(4)
C2B C 0.69643(18) 0.00889(17) 0.2079(3)
C2D C 0.99111(17) 0.19643(18) -0.2079(3)
C2D_2 C 0.99111(17) 0.19643(18) 0.7921(3)
H1B H 0.416(3) 0.165(3) 0.213(4)
H1D H 0.835(3) -0.084(3) -0.213(4)
H1D_2 H 0.835(3) -0.084(3) 0.787(4)
H2B H 0.275(5) -0.180(4) 0.284(7)
H2D H 1.180(4) -0.225(5) -0.284(7)
H2D_2 H 1.180(4) -0.225(5) 0.716(7)
H3B H 0.433(3) 0.170(3) 0.356(4)
H3D H 0.830(3) -0.067(3) -0.356(4)
H3D_2 H 0.830(3) -0.067(3) 0.644(4)
H4B H 0.237(3) -0.125(3) 0.373(5)
H4D H 1.125(3) -0.263(3) -0.373(5)
H4D_2 H 1.125(3) -0.263(3) 0.627(5)
O5 O 0.7500 0.7500 0.5130(9)
O6 O 0.7500 0.7500 0.8911(9)
O7 O 0.7500 0.7500 0.2038(9)
loop_
_geom_bond_atom_site_label_1
_geom_bond_atom_site_label_2
_geom_bond_site_symmetry_1
_geom_bond_site_symmetry_2
Sr1 O1 1_555 1_555
O1 C1 1_555 1_555
O2 C1 1_555 1_555
O3 Sr1 1_555 1_555
N1 Sr1 1_555 1_555
N2 N4 1_555 1_555
C1 C2 1_555 1_555
N3 N1 1_555 1_555
N4 N3 1_555 1_555
O4 Sr1 1_555 1_555
C2 N1 1_555 1_555
H1 O4 1_555 1_555
H2 O3 1_555 1_555
H3 O4 1_555 1_555
H4 O3 1_555 1_555
Sr1B O1B 1_555 1_555
Sr1D N3 1_555 1_555
Sr1D_2 O1 1_555 1_555
Sr1C O2 1_555 1_555
Sr1F O1B 1_555 1_555
Sr1F_2 N3B 1_555 1_555
Sr1_2 O1D 1_555 1_555
Sr1G O2D 1_555 1_555
Sr1G_2 O2D_2 1_555 1_555
Sr1_3 N3D_2 1_555 1_555
O1B C1B 1_555 1_555
O1D Sr1D 1_555 1_555
O1D_2 Sr1 1_555 1_555
O1F Sr1B 1_555 1_555
O1_2 Sr1D 1_555 1_555
O2B Sr1 1_555 1_555
O2D C1D 1_555 1_555
O2D_2 C1D_2 1_555 1_555
O2A Sr1B 1_555 1_555
O2F Sr1D 1_555 1_555
O2F_2 Sr1D_2 1_555 1_555
O3B Sr1B 1_555 1_555
O3D Sr1D 1_555 1_555
O3D_2 Sr1D_2 1_555 1_555
N1B Sr1B 1_555 1_555
N1D Sr1D 1_555 1_555
N1D_2 Sr1D_2 1_555 1_555
N2B Sr1 1_555 1_555
N2D Sr1G 1_555 1_555
N2D_2 Sr1G_2 1_555 1_555
N2A Sr1B 1_555 1_555
N2F Sr1D 1_555 1_555
N2F_2 Sr1D_2 1_555 1_555
C1B O2B 1_555 1_555
C1D O1D 1_555 1_555
C1D_2 O1D_2 1_555 1_555
N3B N1B 1_555 1_555
N3D Sr1 1_555 1_555
N3D_2 N1D_2 1_555 1_555
N3F Sr1B 1_555 1_555
N3_2 Sr1D_2 1_555 1_555
N4B N2B 1_555 1_555
N4D N2D 1_555 1_555
N4D_2 N2D_2 1_555 1_555
O4B Sr1B 1_555 1_555
O4D Sr1D 1_555 1_555
O4D_2 Sr1D_2 1_555 1_555
C2B N1B 1_555 1_555
C2D N1D 1_555 1_555
C2D_2 N1D_2 1_555 1_555
H1B O4B 1_555 1_555
H1D O4D 1_555 1_555
H1D_2 O4D_2 1_555 1_555
H2B O3B 1_555 1_555
H2D O3D 1_555 1_555
H2D_2 O3D_2 1_555 1_555
H3B O4B 1_555 1_555
H3D O4D 1_555 1_555
H3D_2 O4D_2 1_555 1_555
H4B O3B 1_555 1_555
H4D O3D 1_555 1_555
H4D_2 O3D_2 1_555 1_555
N2 C2 1_555 1_555
N2 Sr1C 1_555 1_555
Sr1D_2 O1D_2 1_555 1_555
Sr1F O1F 1_555 1_555
Sr1_2 O1_2 1_555 1_555
N1D N3D 1_555 1_555
N2B C2B 1_555 1_555
N2D C2D 1_555 1_555
N2D_2 C2D_2 1_555 1_555
C1B C2B 1_555 1_555
C1D C2D 1_555 1_555
C1D_2 C2D_2 1_555 1_555
N3B N4B 1_555 1_555
N3D N4D 1_555 1_555
N3D_2 N4D_2 1_555 1_555

#END
