
#######################################################################
#
#                 Cambridge Crystallographic Data Centre
#                                CCDC 
#
#######################################################################
#
# If this CIF has been generated from an entry in the Cambridge 
# Structural Database, then it will include bibliographic, chemical, 
# crystal, experimental, refinement or atomic coordinate data resulting 
# from the CCDC's data processing and validation procedures.
#
#######################################################################

data_YUJQOL
_symmetry_cell_setting           triclinic
_symmetry_space_group_name_H-M   'P -1'
_symmetry_Int_Tables_number      2
_space_group_name_Hall           '-P 1'
loop_
_symmetry_equiv_pos_site_id
_symmetry_equiv_pos_as_xyz
1 x,y,z
2 -x,-y,-z
_cell_length_a                   9.8893(9)
_cell_length_b                   12.2772(11)
_cell_length_c                   15.8563(16)
_cell_angle_alpha                75.014(8)
_cell_angle_beta                 76.456(8)
_cell_angle_gamma                82.337(7)
_cell_volume                     1802.53
loop_
_atom_site_label
_atom_site_type_symbol
_atom_site_fract_x
_atom_site_fract_y
_atom_site_fract_z
Zn1 Zn 0.29533(7) 0.78934(6) 0.25478(5)
N1 N 0.1642(5) 0.7253(4) 0.3710(3)
N2 N 0.1106(5) 0.6230(4) 0.5090(3)
N3 N 0.1250(5) 0.0483(4) 1.0756(4)
N4 N 0.1810(5) -0.0890(4) 1.1852(3)
O1 O 1.4495(5) 1.3832(4) -0.5961(3)
H1 H 1.4442 1.4374 -0.6384
O2 O 1.2899(5) 1.3208(4) -0.6477(3)
O3 O 1.5623(4) 1.1892(3) -0.3134(3)
O4 O 1.5176(5) 1.0120(4) -0.2478(3)
O5 O 0.4040(5) 0.5662(4) 0.2769(3)
O6 O 0.4010(4) 0.7110(3) 0.1626(3)
O7 O 0.5343(5) 0.1944(3) 0.2100(3)
H2 H 0.5391 0.1251 0.2233
O8 O 0.6950(5) 0.1703(4) 0.0884(4)
O9 O 0.7813(4) 0.5694(3) -0.0807(3)
O10 O 1.2307(4) 0.9312(3) -0.4607(3)
C1 C 0.4354(7) 0.6086(6) 0.1951(5)
C2 C 0.5282(6) 0.5409(5) 0.1356(4)
C3 C 0.5340(6) 0.4224(5) 0.1617(5)
H3 H 0.4821 0.3870 0.2167
C4 C 0.6156(6) 0.3581(5) 0.1070(5)
C5 C 0.6955(6) 0.4098(5) 0.0262(5)
H4 H 0.7510 0.3662 -0.0108
C6 C 0.6931(6) 0.5287(5) -0.0002(4)
C7 C 0.6076(6) 0.5923(5) 0.0540(4)
H5 H 0.6031 0.6708 0.0356
C8 C 0.6232(7) 0.2305(5) 0.1322(5)
C9 C 0.7705(6) 0.6891(5) -0.1151(5)
H6 H 0.7664 0.7272 -0.0680
H7 H 0.6861 0.7121 -0.1384
C10 C 0.8960(7) 0.7207(5) -0.1882(4)
C11 C 0.8806(6) 0.8156(5) -0.2579(4)
H8 H 0.7938 0.8554 -0.2585
C12 C 0.9940(7) 0.8506(5) -0.3259(4)
H9 H 0.9819 0.9135 -0.3717
C13 C 1.1243(7) 0.7941(5) -0.3268(5)
C14 C 1.1400(7) 0.7009(5) -0.2581(5)
H10 H 1.2268 0.6611 -0.2579
C15 C 1.0264(7) 0.6658(5) -0.1888(5)
H11 H 1.0397 0.6041 -0.1422
C16 C 0.0448(7) 0.7723(5) 0.4156(5)
H12 H -0.0053 0.8376 0.3908
C17 C 0.0090(7) 0.7112(5) 0.5007(5)
H13 H -0.0677 0.7256 0.5442
C18 C 0.2021(7) 0.6335(5) 0.4297(4)
H14 H 0.2800 0.5839 0.4178
C19 C 0.1209(6) 0.5377(5) 0.5878(4)
C20 C 0.0010(7) 0.5055(5) 0.6500(5)
H15 H -0.0858 0.5371 0.6388
C21 C 0.0095(6) 0.4268(5) 0.7287(4)
H16 H -0.0724 0.4044 0.7689
C22 C 0.1363(6) 0.3801(5) 0.7495(4)
C23 C 0.2567(6) 0.4122(5) 0.6850(4)
H17 H 0.3434 0.3792 0.6953
C24 C 0.2486(6) 0.4922(5) 0.6063(5)
H18 H 0.3300 0.5153 0.5658
C25 C 0.1420(6) 0.2975(5) 0.8355(4)
C26 C 0.0369(7) 0.3030(5) 0.9101(5)
H19 H -0.0317 0.3626 0.9061
C27 C 0.0305(7) 0.2229(5) 0.9901(4)
H20 H -0.0413 0.2279 1.0390
C28 C 0.1338(7) 0.1352(5) 0.9953(4)
C29 C 0.2436(7) 0.1294(5) 0.9241(5)
H21 H 0.3139 0.0712 0.9291
C30 C 0.2478(6) 0.2113(5) 0.8450(5)
H22 H 0.3227 0.2085 0.7974
C31 C 0.0004(7) 0.0068(5) 1.1292(4)
H23 H -0.0898 0.0326 1.1216
C32 C 0.0382(7) -0.0781(5) 1.1941(5)
H24 H -0.0234 -0.1231 1.2388
C33 C 0.2299(7) -0.0105(5) 1.1128(4)
H25 H 0.3238 0.0021 1.0909
C34 C 1.5087(6) 1.0984(5) -0.3085(5)
C35 C 1.4316(6) 1.1033(5) -0.3804(4)
C36 C 1.4333(6) 1.1998(5) -0.4498(5)
H26 H 1.4788 1.2613 -0.4497
C37 C 1.3680(6) 1.2046(5) -0.5185(4)
C38 C 1.3004(6) 1.1137(5) -0.5208(4)
H27 H 1.2571 1.1177 -0.5677
C39 C 1.2981(6) 1.0163(5) -0.4519(4)
C40 C 1.3609(6) 1.0124(5) -0.3809(4)
H28 H 1.3555 0.9489 -0.3335
C41 C 1.3641(7) 1.3067(6) -0.5946(5)
C42 C 1.2468(6) 0.8196(5) -0.4046(5)
H29 H 1.2570 0.7643 -0.4401
H30 H 1.3313 0.8126 -0.3819
Zn1_2 Zn 0.29533(7) -0.21066(6) 1.25478(5)
Zn1A Zn 1.70467(7) 1.21066(6) -0.25478(5)
N4_2 N 0.1810(5) 0.9110(4) 0.1852(3)
O3A O 0.4377(4) 0.8108(3) 0.3134(3)
O11 O 0.5193(9) 0.1123(7) 0.0008(7)
loop_
_geom_bond_atom_site_label_1
_geom_bond_atom_site_label_2
_geom_bond_site_symmetry_1
_geom_bond_site_symmetry_2
Zn1 N1 1_555 1_555
N1 C16 1_555 1_555
N2 C17 1_555 1_555
N3 C28 1_555 1_555
N4 C32 1_555 1_555
O1 H1 1_555 1_555
O2 C41 1_555 1_555
O3 C34 1_555 1_555
O4 C34 1_555 1_555
O5 C1 1_555 1_555
O6 Zn1 1_555 1_555
O7 H2 1_555 1_555
O8 C8 1_555 1_555
O9 C6 1_555 1_555
O10 C39 1_555 1_555
C1 O6 1_555 1_555
C2 C1 1_555 1_555
C3 C2 1_555 1_555
H3 C3 1_555 1_555
C4 C3 1_555 1_555
C5 C4 1_555 1_555
H4 C5 1_555 1_555
C6 C5 1_555 1_555
C7 C2 1_555 1_555
H5 C7 1_555 1_555
C8 O7 1_555 1_555
C9 O9 1_555 1_555
H6 C9 1_555 1_555
H7 C9 1_555 1_555
C10 C9 1_555 1_555
C11 C10 1_555 1_555
H8 C11 1_555 1_555
C12 C11 1_555 1_555
H9 C12 1_555 1_555
C13 C12 1_555 1_555
C14 C13 1_555 1_555
H10 C14 1_555 1_555
C15 C10 1_555 1_555
H11 C15 1_555 1_555
C16 H12 1_555 1_555
C17 C16 1_555 1_555
H13 C17 1_555 1_555
C18 N1 1_555 1_555
H14 C18 1_555 1_555
C19 N2 1_555 1_555
C20 C19 1_555 1_555
H15 C20 1_555 1_555
C21 C20 1_555 1_555
H16 C21 1_555 1_555
C22 C21 1_555 1_555
C23 C22 1_555 1_555
H17 C23 1_555 1_555
C24 C19 1_555 1_555
H18 C24 1_555 1_555
C25 C22 1_555 1_555
C26 C25 1_555 1_555
H19 C26 1_555 1_555
C27 C26 1_555 1_555
H20 C27 1_555 1_555
C28 C27 1_555 1_555
C29 C28 1_555 1_555
H21 C29 1_555 1_555
C30 C25 1_555 1_555
H22 C30 1_555 1_555
C31 N3 1_555 1_555
H23 C31 1_555 1_555
C32 C31 1_555 1_555
H24 C32 1_555 1_555
C33 N3 1_555 1_555
H25 C33 1_555 1_555
C34 C35 1_555 1_555
C35 C36 1_555 1_555
C36 H26 1_555 1_555
C37 C36 1_555 1_555
C38 C37 1_555 1_555
H27 C38 1_555 1_555
C39 C38 1_555 1_555
C40 C35 1_555 1_555
H28 C40 1_555 1_555
C41 O1 1_555 1_555
C42 O10 1_555 1_555
H29 C42 1_555 1_555
H30 C42 1_555 1_555
Zn1_2 N4 1_555 1_555
Zn1A O3 1_555 1_555
N4_2 Zn1 1_555 1_555
O3A Zn1 1_555 1_555
N2 C18 1_555 1_555
N4 C33 1_555 1_555
C4 C8 1_555 1_555
C6 C7 1_555 1_555
C13 C42 1_555 1_555
C14 C15 1_555 1_555
C23 C24 1_555 1_555
C29 C30 1_555 1_555
C37 C41 1_555 1_555
C39 C40 1_555 1_555

#END
