
#######################################################################
#
#                 Cambridge Crystallographic Data Centre
#                                CCDC 
#
#######################################################################
#
# If this CIF has been generated from an entry in the Cambridge 
# Structural Database, then it will include bibliographic, chemical, 
# crystal, experimental, refinement or atomic coordinate data resulting 
# from the CCDC's data processing and validation procedures.
#
#######################################################################

data_YUJTOM01
_symmetry_cell_setting           triclinic
_symmetry_space_group_name_H-M   'P -1'
_symmetry_Int_Tables_number      2
_space_group_name_Hall           '-P 1'
loop_
_symmetry_equiv_pos_site_id
_symmetry_equiv_pos_as_xyz
1 x,y,z
2 -x,-y,-z
_cell_length_a                   16.082(4)
_cell_length_b                   21.698(4)
_cell_length_c                   4.172(1)
_cell_angle_alpha                101.04(2)
_cell_angle_beta                 97.38(2)
_cell_angle_gamma                68.26(2)
_cell_volume                     1324.59
loop_
_atom_site_label
_atom_site_type_symbol
_atom_site_fract_x
_atom_site_fract_y
_atom_site_fract_z
Cu1 Cu 0.57535(8) 0.24465(6) 0.7303(3)
Cu2 Cu 0.42465(8) 0.25540(6) 1.1652(3)
I1 I 0.40648(4) 0.33534(3) 0.7278(1)
I2 I 0.59359(4) 0.16462(3) 0.1508(1)
P1 P 0.66232(15) 0.30604(11) 0.8002(6)
P2 P 0.33754(15) 0.19407(11) 1.0262(6)
C1 C 0.6247(6) 0.3852(4) 0.703(2)
C2 C 0.6744(6) 0.4267(4) 0.734(2)
C3 C 0.7638(6) 0.4059(4) 0.861(2)
C4 C 0.8083(6) 0.3428(4) 0.947(2)
C5 C 0.7742(5) 0.2911(4) 0.927(2)
C6 C 0.8316(5) 0.2256(4) 1.014(2)
C7 C 0.8179(6) 0.1669(5) 0.862(2)
C8 C 0.8742(7) 0.1050(5) 0.938(3)
C9 C 0.9457(7) 0.0995(5) 1.160(3)
C10 C 0.9605(7) 0.1575(5) 1.312(3)
C11 C 0.9050(7) 0.2186(5) 1.241(2)
C12 C 0.6312(8) 0.4943(5) 0.628(3)
C13 C 0.8142(7) 0.4539(5) 0.902(3)
C14 C 0.3750(6) 0.1157(4) 0.809(2)
C15 C 0.3251(6) 0.0736(4) 0.706(2)
C16 C 0.2360(6) 0.0941(4) 0.787(2)
C17 C 0.1916(6) 0.1573(4) 0.951(2)
C18 C 0.2266(5) 0.2083(4) 1.067(2)
C19 C 0.1677(5) 0.2748(4) 1.229(2)
C20 C 0.0952(6) 0.2807(5) 1.399(2)
C21 C 0.0392(7) 0.3427(5) 1.536(3)
C22 C 0.0546(7) 0.4003(5) 1.517(3)
C23 C 0.1268(7) 0.3953(5) 1.355(3)
C24 C 0.1827(6) 0.3334(4) 1.212(2)
C25 C 0.3693(8) 0.0063(5) 0.507(3)
C26 C 0.1843(8) 0.0469(5) 0.680(3)
H1 H 0.557 0.413 0.600
H2 H 0.880 0.331 1.041
H3 H 0.760 0.171 0.678
H4 H 0.861 0.058 0.812
H5 H 0.992 0.051 1.221
H6 H 1.017 0.156 1.498
H7 H 0.920 0.264 1.371
H8 H 0.677 0.522 0.664
H9 H 0.608 0.490 0.365
H10 H 0.571 0.525 0.766
H11 H 0.883 0.431 1.006
H12 H 0.818 0.468 0.667
H13 H 0.781 0.501 1.069
H14 H 0.443 0.087 0.717
H15 H 0.120 0.169 0.998
H16 H 0.082 0.235 1.427
H17 H -0.019 0.346 1.663
H18 H 0.009 0.449 1.632
H19 H 0.141 0.441 1.345
H20 H 0.239 0.331 1.074
H21 H 0.323 -0.022 0.441
H22 H 0.391 0.012 0.276
H23 H 0.429 -0.025 0.641
H24 H 0.117 0.069 0.755
H25 H 0.181 0.033 0.406
H26 H 0.219 -0.001 0.776
I2_2 I 0.59359(4) 0.16462(3) 1.1508(1)
I1_2 I 0.40648(4) 0.33534(3) 1.7278(1)
Cu2_2 Cu 0.42465(8) 0.25540(6) 0.1652(3)
Cu1_2 Cu 0.57535(8) 0.24465(6) -0.2697(3)
loop_
_geom_bond_atom_site_label_1
_geom_bond_atom_site_label_2
_geom_bond_site_symmetry_1
_geom_bond_site_symmetry_2
Cu1 I1 1_555 1_555
Cu2 I1 1_555 1_555
I1 Cu2_2 1_555 1_555
I2 Cu1 1_555 1_555
P1 Cu1 1_555 1_555
P2 Cu2 1_555 1_555
C1 P1 1_555 1_555
C2 C1 1_555 1_555
C3 C2 1_555 1_555
C4 C3 1_555 1_555
C5 P1 1_555 1_555
C6 C5 1_555 1_555
C7 C6 1_555 1_555
C8 C7 1_555 1_555
C9 C8 1_555 1_555
C10 C9 1_555 1_555
C11 C6 1_555 1_555
C12 C2 1_555 1_555
C13 C3 1_555 1_555
C14 P2 1_555 1_555
C15 C14 1_555 1_555
C16 C15 1_555 1_555
C17 C16 1_555 1_555
C18 P2 1_555 1_555
C19 C18 1_555 1_555
C20 C19 1_555 1_555
C21 C20 1_555 1_555
C22 C21 1_555 1_555
C23 C22 1_555 1_555
C24 C19 1_555 1_555
C25 C15 1_555 1_555
C26 C16 1_555 1_555
H1 C1 1_555 1_555
H2 C4 1_555 1_555
H3 C7 1_555 1_555
H4 C8 1_555 1_555
H5 C9 1_555 1_555
H6 C10 1_555 1_555
H7 C11 1_555 1_555
H8 C12 1_555 1_555
H9 C12 1_555 1_555
H10 C12 1_555 1_555
H11 C13 1_555 1_555
H12 C13 1_555 1_555
H13 C13 1_555 1_555
H14 C14 1_555 1_555
H15 C17 1_555 1_555
H16 C20 1_555 1_555
H17 C21 1_555 1_555
H18 C22 1_555 1_555
H19 C23 1_555 1_555
H20 C24 1_555 1_555
H21 C25 1_555 1_555
H22 C25 1_555 1_555
H23 C25 1_555 1_555
H24 C26 1_555 1_555
H25 C26 1_555 1_555
H26 C26 1_555 1_555
I2_2 Cu1 1_555 1_555
I1_2 Cu2 1_555 1_555
Cu2_2 I2 1_555 1_555
Cu1_2 I2 1_555 1_555
Cu2 I2_2 1_555 1_555
C4 C5 1_555 1_555
C10 C11 1_555 1_555
C17 C18 1_555 1_555
C23 C24 1_555 1_555

#END
