
#######################################################################
#
#                 Cambridge Crystallographic Data Centre
#                                CCDC 
#
#######################################################################
#
# If this CIF has been generated from an entry in the Cambridge 
# Structural Database, then it will include bibliographic, chemical, 
# crystal, experimental, refinement or atomic coordinate data resulting 
# from the CCDC's data processing and validation procedures.
#
#######################################################################

data_YUKCAJ
_symmetry_cell_setting           tetragonal
_symmetry_space_group_name_H-M   'P 42/n'
_symmetry_Int_Tables_number      86
_space_group_name_Hall           '-P 4bc'
loop_
_symmetry_equiv_pos_site_id
_symmetry_equiv_pos_as_xyz
1 x,y,z
2 1/2-x,1/2-y,z
3 -y,1/2+x,1/2+z
4 1/2+y,-x,1/2+z
5 -x,-y,-z
6 1/2+x,1/2+y,-z
7 y,1/2-x,1/2-z
8 1/2-y,x,1/2-z
_cell_length_a                   13.0836(2)
_cell_length_b                   13.0836(2)
_cell_length_c                   8.0916(3)
_cell_angle_alpha                90
_cell_angle_beta                 90
_cell_angle_gamma                90
_cell_volume                     1385.12
loop_
_atom_site_label
_atom_site_type_symbol
_atom_site_fract_x
_atom_site_fract_y
_atom_site_fract_z
Cu1 Cu 0.2500 0.2500 0.7500
N1 N 0.1693(9) 0.1600(14) 0.5921(15)
N2 N 0.0153(9) 0.0345(10) 0.0616(14)
C1 C 0.1151(14) 0.2038(12) 0.473(3)
H1 H 0.1040 0.2739 0.4779
C2 C 0.0742(12) 0.1495(19) 0.341(2)
H2 H 0.0366 0.1834 0.2603
C3 C 0.0886(11) 0.0484(17) 0.330(2)
C4 C 0.1397(13) 0.0025(11) 0.460(3)
H3 H 0.1470 -0.0682 0.4622
C5 C 0.1788(10) 0.059(2) 0.5842(19)
H4 H 0.2142 0.0253 0.6681
C6 C 0.0496(10) -0.0095(12) 0.190(2)
H5 H 0.0496 -0.0806 0.1953
Cu1B Cu -0.2500 -0.2500 -0.7500
Cu1B_2 Cu 0.7500 -0.2500 2.2500
N1D N -0.1693(9) -0.1600(14) -0.5921(15)
N1G N 0.3400(14) 0.1693(9) 0.9079(15)
N1C N 0.6600(14) -0.1693(9) 2.0921(15)
N1F N 0.1600(14) 0.3307(9) 0.9079(15)
N1A N 0.3307(9) 0.3400(14) 0.5921(15)
N2D N -0.0153(9) -0.0345(10) -0.0616(14)
N2G N 0.4655(10) 0.0153(9) 1.4384(14)
N2C N 0.5345(10) -0.0153(9) 1.5616(14)
C1D C -0.1151(14) -0.2038(12) -0.473(3)
C1G C 0.2962(12) 0.1151(14) 1.027(3)
C1C C 0.7038(12) -0.1151(14) 1.973(3)
H1D H -0.1040 -0.2739 -0.4779
H1G H 0.2261 0.1040 1.0221
H1C H 0.7739 -0.1040 1.9779
C2D C -0.0742(12) -0.1495(19) -0.341(2)
C2G C 0.3505(19) 0.0742(12) 1.159(2)
C2C C 0.6495(19) -0.0742(12) 1.841(2)
H2D H -0.0366 -0.1834 -0.2603
H2G H 0.3166 0.0366 1.2397
H2C H 0.6834 -0.0366 1.7603
C3D C -0.0886(11) -0.0484(17) -0.330(2)
C3G C 0.4516(17) 0.0886(11) 1.170(2)
C3C C 0.5484(17) -0.0886(11) 1.830(2)
C4D C -0.1397(13) -0.0025(11) -0.460(3)
C4G C 0.4975(11) 0.1397(13) 1.040(3)
C4C C 0.5025(11) -0.1397(13) 1.960(3)
H3D H -0.1470 0.0682 -0.4622
H3G H 0.5682 0.1470 1.0378
H3C H 0.4318 -0.1470 1.9622
C5D C -0.1788(10) -0.059(2) -0.5842(19)
C5G C 0.441(2) 0.1788(10) 0.9158(19)
C5C C 0.559(2) -0.1788(10) 2.0842(19)
H4D H -0.2142 -0.0253 -0.6681
H4G H 0.4747 0.2142 0.8319
H4C H 0.5253 -0.2142 2.1681
C6D C -0.0496(10) 0.0095(12) -0.190(2)
C6G C 0.5095(12) 0.0496(10) 1.310(2)
C6C C 0.4905(12) -0.0496(10) 1.690(2)
H5D H -0.0496 0.0806 -0.1953
H5G H 0.5806 0.0496 1.3047
H5C H 0.4194 -0.0496 1.6953
F1 F 0.2419(18) -0.1659(9) 0.819(3)
B1 B 0.2500 -0.2500 0.726(4)
F2 F 0.3334(9) -0.242(2) 0.630(3)
F1A F 0.2581(18) -0.3341(9) 0.819(3)
F2A F 0.1666(9) -0.258(2) 0.630(3)
loop_
_geom_bond_atom_site_label_1
_geom_bond_atom_site_label_2
_geom_bond_site_symmetry_1
_geom_bond_site_symmetry_2
Cu1 N1 1_555 1_555
N1 C1 1_555 1_555
N2 C6 1_555 1_555
C1 H1 1_555 1_555
C2 C1 1_555 1_555
H2 C2 1_555 1_555
C3 C2 1_555 1_555
C4 C3 1_555 1_555
H3 C4 1_555 1_555
C5 N1 1_555 1_555
H4 C5 1_555 1_555
C6 C3 1_555 1_555
H5 C6 1_555 1_555
F1 B1 1_555 1_555
B1 F2 1_555 1_555
Cu1B N1D 1_555 1_555
Cu1B_2 N1C 1_555 1_555
N1D C1D 1_555 1_555
N1G Cu1 1_555 1_555
N1C C1C 1_555 1_555
N1F Cu1 1_555 1_555
N1A Cu1 1_555 1_555
N2D N2 1_555 1_555
N2G N2C 1_555 1_555
N2C C6C 1_555 1_555
C1D H1D 1_555 1_555
C1G N1G 1_555 1_555
C1C H1C 1_555 1_555
H1G C1G 1_555 1_555
C2D C1D 1_555 1_555
C2G C1G 1_555 1_555
C2C C1C 1_555 1_555
H2D C2D 1_555 1_555
H2G C2G 1_555 1_555
H2C C2C 1_555 1_555
C3D C2D 1_555 1_555
C3G C2G 1_555 1_555
C3C C2C 1_555 1_555
C4D C3D 1_555 1_555
C4G C3G 1_555 1_555
C4C C3C 1_555 1_555
H3D C4D 1_555 1_555
H3G C4G 1_555 1_555
H3C C4C 1_555 1_555
C5D N1D 1_555 1_555
C5G N1G 1_555 1_555
C5C N1C 1_555 1_555
H4D C5D 1_555 1_555
H4G C5G 1_555 1_555
H4C C5C 1_555 1_555
C6D N2D 1_555 1_555
C6G N2G 1_555 1_555
C6C C3C 1_555 1_555
H5D C6D 1_555 1_555
H5G C6G 1_555 1_555
H5C C6C 1_555 1_555
F1A B1 1_555 1_555
F2A B1 1_555 1_555
C4 C5 1_555 1_555
C3D C6D 1_555 1_555
C3G C6G 1_555 1_555
C4D C5D 1_555 1_555
C4G C5G 1_555 1_555
C4C C5C 1_555 1_555

#END
