
#######################################################################
#
#                 Cambridge Crystallographic Data Centre
#                                CCDC 
#
#######################################################################
#
# If this CIF has been generated from an entry in the Cambridge 
# Structural Database, then it will include bibliographic, chemical, 
# crystal, experimental, refinement or atomic coordinate data resulting 
# from the CCDC's data processing and validation procedures.
#
#######################################################################

data_YUKDEN
_symmetry_cell_setting           monoclinic
_symmetry_space_group_name_H-M   'P 21/c'
_symmetry_Int_Tables_number      14
_space_group_name_Hall           '-P 2ybc'
loop_
_symmetry_equiv_pos_site_id
_symmetry_equiv_pos_as_xyz
1 x,y,z
2 -x,1/2+y,1/2-z
3 -x,-y,-z
4 x,1/2-y,1/2+z
_cell_length_a                   6.434(1)
_cell_length_b                   8.4344(8)
_cell_length_c                   9.761(1)
_cell_angle_alpha                90
_cell_angle_beta                 99.93(2)
_cell_angle_gamma                90
_cell_volume                     521.764
loop_
_atom_site_label
_atom_site_type_symbol
_atom_site_fract_x
_atom_site_fract_y
_atom_site_fract_z
Zn1 Zn -0.00502(4) 0.16987(3) 0.15651(3)
P1 P 0.25154(8) -0.14022(6) 0.15225(5)
O1 O 0.1765(3) -0.0035(2) 0.2341(2)
O2 O 0.2216(3) -0.1078(2) -0.0032(2)
O3 O 0.1449(3) -0.2957(2) 0.1833(2)
N1 N 0.8310(3) -0.1526(2) 0.4064(2)
C1 C 0.5329(3) -0.1576(3) 0.2098(2)
C2 C 0.5972(3) -0.1641(3) 0.3666(2)
H1 H 0.860(7) -0.060(5) 0.370(4)
H2 H 0.865(7) -0.145(5) 0.490(4)
H3 H 0.568(6) -0.247(5) 0.167(4)
H4 H 0.584(7) -0.068(5) 0.172(4)
H5 H 0.550(6) -0.258(5) 0.407(4)
H6 H 0.542(6) -0.075(5) 0.411(4)
O2B O -0.2216(3) 0.1078(2) 0.0032(2)
O3A O -0.1449(3) 0.2043(2) 0.3167(2)
N1A N 0.1690(3) 0.3474(2) 0.0936(2)
Zn1B Zn 0.00502(4) -0.16987(3) -0.15651(3)
Zn1A Zn 0.00502(4) -0.33013(3) 0.34349(3)
Zn1A_2 Zn 1.00502(4) -0.33013(3) 0.34349(3)
H1A H 0.140(7) 0.440(5) 0.130(4)
H2A H 0.135(7) 0.355(5) 0.010(4)
loop_
_geom_bond_atom_site_label_1
_geom_bond_atom_site_label_2
_geom_bond_site_symmetry_1
_geom_bond_site_symmetry_2
Zn1 O1 1_555 1_555
P1 O1 1_555 1_555
O2 P1 1_555 1_555
O3 P1 1_555 1_555
N1 C2 1_555 1_555
C1 P1 1_555 1_555
C2 C1 1_555 1_555
H1 N1 1_555 1_555
H2 N1 1_555 1_555
H3 C1 1_555 1_555
H4 C1 1_555 1_555
H5 C2 1_555 1_555
H6 C2 1_555 1_555
O2B Zn1 1_555 1_555
O3A Zn1 1_555 1_555
N1A Zn1 1_555 1_555
Zn1B O2 1_555 1_555
Zn1A O3 1_555 1_555
Zn1A_2 N1 1_555 1_555
H1A N1A 1_555 1_555
H2A N1A 1_555 1_555

#END
