
#######################################################################
#
#                 Cambridge Crystallographic Data Centre
#                                CCDC 
#
#######################################################################
#
# If this CIF has been generated from an entry in the Cambridge 
# Structural Database, then it will include bibliographic, chemical, 
# crystal, experimental, refinement or atomic coordinate data resulting 
# from the CCDC's data processing and validation procedures.
#
#######################################################################

data_YUKFEQ
_symmetry_cell_setting           monoclinic
_symmetry_space_group_name_H-M   'P 21/c'
_symmetry_Int_Tables_number      14
_space_group_name_Hall           '-P 2ybc'
loop_
_symmetry_equiv_pos_site_id
_symmetry_equiv_pos_as_xyz
1 x,y,z
2 -x,1/2+y,1/2-z
3 -x,-y,-z
4 x,1/2-y,1/2+z
_cell_length_a                   4.0834(6)
_cell_length_b                   14.723(2)
_cell_length_c                   10.2621(15)
_cell_angle_alpha                90
_cell_angle_beta                 93.326(2)
_cell_angle_gamma                90
_cell_volume                     615.917
loop_
_atom_site_label
_atom_site_type_symbol
_atom_site_fract_x
_atom_site_fract_y
_atom_site_fract_z
Cd1 Cd 0.5000 1.0000 0.5000
Br1 Br 0.96401(11) 0.97828(4) 0.30917(5)
N1 N 0.5011(9) 0.8474(3) 0.5357(4)
N2 N 0.5922(11) 0.7011(3) 0.5076(4)
C1 C 0.3632(14) 0.7994(4) 0.6307(5)
H1 H 0.2465 0.8247 0.6968
C2 C 0.4183(14) 0.7091(4) 0.6164(6)
H2 H 0.3513 0.6624 0.6698
C3 C 0.6362(12) 0.7853(4) 0.4631(5)
H3 H 0.7493 0.7987 0.3894
C4 C 0.7111(16) 0.6166(4) 0.4525(7)
H4 H 0.5334 0.5863 0.4051
H5 H 0.7973 0.5781 0.5217
H6 H 0.8809 0.6300 0.3945
Cd1_2 Cd 1.5000 1.0000 0.5000
Cd1_3 Cd -0.5000 1.0000 0.5000
Br1_2 Br -0.03599(11) 0.97828(4) 0.30917(5)
Br1B Br 1.03599(11) 1.02172(4) 0.69083(5)
Br1B_2 Br 0.03599(11) 1.02172(4) 0.69083(5)
N1B N 0.4989(9) 1.1526(3) 0.4643(4)
N2B N 0.4078(11) 1.2989(3) 0.4924(4)
C1B C 0.6368(14) 1.2006(4) 0.3693(5)
H1B H 0.7535 1.1753 0.3032
C2B C 0.5817(14) 1.2909(4) 0.3836(6)
H2B H 0.6487 1.3376 0.3302
C3B C 0.3638(12) 1.2147(4) 0.5369(5)
H3B H 0.2507 1.2013 0.6106
C4B C 0.2889(16) 1.3834(4) 0.5475(7)
H4B H 0.4666 1.4137 0.5949
H5B H 0.2027 1.4219 0.4783
H6B H 0.1191 1.3700 0.6055
loop_
_geom_bond_atom_site_label_1
_geom_bond_atom_site_label_2
_geom_bond_site_symmetry_1
_geom_bond_site_symmetry_2
Cd1 Br1 1_555 1_555
Br1 Cd1_2 1_555 1_555
N1 Cd1 1_555 1_555
N2 C2 1_555 1_555
C1 N1 1_555 1_555
H1 C1 1_555 1_555
C2 C1 1_555 1_555
H2 C2 1_555 1_555
C3 N1 1_555 1_555
H3 C3 1_555 1_555
C4 N2 1_555 1_555
H4 C4 1_555 1_555
H5 C4 1_555 1_555
H6 C4 1_555 1_555
Cd1_2 Br1B 1_555 1_555
Cd1_3 Br1_2 1_555 1_555
Br1_2 Cd1 1_555 1_555
Br1B Cd1 1_555 1_555
Br1B_2 Cd1 1_555 1_555
N1B Cd1 1_555 1_555
N2B C2B 1_555 1_555
C1B N1B 1_555 1_555
H1B C1B 1_555 1_555
C2B C1B 1_555 1_555
H2B C2B 1_555 1_555
C3B N1B 1_555 1_555
H3B C3B 1_555 1_555
C4B N2B 1_555 1_555
H4B C4B 1_555 1_555
H5B C4B 1_555 1_555
H6B C4B 1_555 1_555
N2 C3 1_555 1_555
Cd1_3 Br1B_2 1_555 1_555
N2B C3B 1_555 1_555

#END
