
#######################################################################
#
#                 Cambridge Crystallographic Data Centre
#                                CCDC 
#
#######################################################################
#
# If this CIF has been generated from an entry in the Cambridge 
# Structural Database, then it will include bibliographic, chemical, 
# crystal, experimental, refinement or atomic coordinate data resulting 
# from the CCDC's data processing and validation procedures.
#
#######################################################################

data_YUKGIV
_symmetry_cell_setting           triclinic
_symmetry_space_group_name_H-M   'P -1'
_symmetry_Int_Tables_number      2
_space_group_name_Hall           '-P 1'
loop_
_symmetry_equiv_pos_site_id
_symmetry_equiv_pos_as_xyz
1 x,y,z
2 -x,-y,-z
_cell_length_a                   11.3657(6)
_cell_length_b                   12.4420(6)
_cell_length_c                   21.2427(10)
_cell_angle_alpha                105.721(4)
_cell_angle_beta                 92.663(4)
_cell_angle_gamma                116.232(4)
_cell_volume                     2545.28
loop_
_atom_site_label
_atom_site_type_symbol
_atom_site_fract_x
_atom_site_fract_y
_atom_site_fract_z
C1 C 0.5401(9) 0.4699(9) 0.9125(4)
H1 H 0.4501 0.4030 0.9040
H2 H 0.5413 0.5503 0.9292
H3 H 0.5949 0.4621 0.9450
C2 C 0.7221(6) 0.5523(6) 0.8549(3)
C3 C 0.8150(7) 0.6141(7) 0.9112(3)
H4 H 0.7941 0.5996 0.9509
C4 C 0.9437(8) 0.7009(9) 0.9087(4)
H5 H 1.0103 0.7433 0.9468
C5 C 0.9725(7) 0.7238(8) 0.8498(4)
H6 H 1.0579 0.7828 0.8485
C6 C 0.8732(6) 0.6585(6) 0.7917(3)
C7 C 0.7457(6) 0.5696(5) 0.7936(3)
C8 C 0.9094(7) 0.6908(7) 0.7324(4)
H7 H 0.9959 0.7551 0.7377
C9 C 0.9004(10) 0.7056(12) 0.6251(6)
H8 H 0.9148 0.7921 0.6412
H9 H 0.9878 0.7102 0.6254
C10 C 0.8402(19) 0.658(2) 0.5651(8)
H10 H 0.8968 0.6269 0.5430
H11 H 0.8585 0.7336 0.5533
C11 C 0.7177(9) 0.5739(9) 0.5269(4)
H12 H 0.7281 0.5405 0.4818
H13 H 0.6655 0.6176 0.5251
C12 C 0.5752(8) 0.3606(8) 0.5089(3)
H14 H 0.5788 0.3581 0.4649
C13 C 0.4914(7) 0.2416(7) 0.5185(3)
C14 C 0.4390(9) 0.1305(10) 0.4624(3)
H15 H 0.4563 0.1373 0.4209
C15 C 0.3647(10) 0.0150(10) 0.4677(4)
H16 H 0.3318 -0.0564 0.4299
C16 C 0.3364(8) 0.0014(8) 0.5295(3)
H17 H 0.2836 -0.0782 0.5330
C17 C 0.3888(6) 0.1092(6) 0.5855(3)
C18 C 0.4649(6) 0.2301(6) 0.5813(3)
C19 C 0.2896(9) -0.0156(7) 0.6547(4)
H18 H 0.2843 -0.0075 0.7006
H19 H 0.3271 -0.0709 0.6380
H20 H 0.2016 -0.0503 0.6292
C20 C 0.7468(7) 0.2872(8) 0.6968(3)
H21 H 0.7145 0.3046 0.6602
H22 H 0.7539 0.2109 0.6803
H23 H 0.8331 0.3565 0.7196
C21 C 0.6899(6) 0.2458(6) 0.7975(3)
C22 C 0.8114(8) 0.2520(8) 0.8163(4)
H24 H 0.8784 0.2774 0.7918
C23 C 0.8331(8) 0.2199(10) 0.8722(4)
H25 H 0.9143 0.2234 0.8852
C24 C 0.7326(8) 0.1830(9) 0.9078(4)
H26 H 0.7475 0.1612 0.9448
C25 C 0.6078(7) 0.1769(6) 0.8904(3)
C26 C 0.5872(5) 0.2073(5) 0.8337(3)
C27 C 0.5165(8) 0.1486(8) 0.9338(4)
H27 H 0.5443 0.1339 0.9711
C28 C 0.3268(12) 0.1178(17) 0.9831(5)
H28 H 0.3761 0.0984 1.0128
H29 H 0.3279 0.1962 1.0081
C29 C 0.195(2) 0.0223(14) 0.9656(10)
H30 H 0.1659 0.0014 1.0049
H31 H 0.1897 -0.0530 0.9337
C30 C 0.1024(10) 0.0628(10) 0.9351(4)
H32 H 0.0104 -0.0017 0.9286
H33 H 0.1123 0.1409 0.9662
C31 C 0.0271(7) 0.0479(7) 0.8267(4)
H34 H -0.0553 0.0053 0.8379
C32 C 0.0229(6) 0.0667(6) 0.7636(4)
C33 C -0.1043(7) 0.0147(8) 0.7247(5)
H35 H -0.1797 -0.0361 0.7385
C34 C -0.1176(8) 0.0386(9) 0.6664(5)
H36 H -0.2022 0.0021 0.6404
C35 C -0.0073(7) 0.1163(8) 0.6452(4)
H37 H -0.0183 0.1316 0.6054
C36 C 0.1189(6) 0.1707(6) 0.6833(3)
C37 C 0.1368(5) 0.1438(5) 0.7418(3)
C38 C 0.2197(8) 0.3086(9) 0.6202(4)
H38 H 0.3061 0.3618 0.6129
H39 H 0.1768 0.3588 0.6371
H40 H 0.1662 0.2442 0.5788
C39 C 0.3016(6) 0.8548(5) 0.7778(3)
C40 C 0.5085(7) 0.8867(7) 0.7228(3)
C41 C 0.4891(6) 0.6576(6) 0.6854(3)
C42 C 0.3880(6) 0.5665(6) 0.7731(3)
C43 C 0.2782(6) 0.6833(7) 0.6573(3)
C44 C 0.1838(6) 0.5967(7) 0.7481(4)
C45 C 0.3672(7) 0.7653(8) 0.8577(3)
C46 C 0.5876(7) 0.8143(7) 0.8136(3)
Cu1 Cu 0.65633(7) 0.50093(7) 0.64952(3)
Cu2 Cu 0.30812(7) 0.13772(7) 0.84639(3)
Dy1 Dy 0.45719(2) 0.31181(2) 0.740296(12)
Mo1 Mo 0.38783(5) 0.72897(4) 0.75516(2)
N1 N 0.8396(6) 0.6436(6) 0.6747(3)
N2 N 0.6434(6) 0.4667(6) 0.5521(3)
N3 N 0.3995(7) 0.1406(7) 0.9280(3)
N4 N 0.1304(6) 0.0824(5) 0.8701(3)
N5 N 0.2560(6) 0.9222(5) 0.7908(3)
N6 N 0.5697(6) 0.9676(5) 0.7028(3)
N7 N 0.5409(6) 0.6151(6) 0.6502(3)
N8 N 0.3899(5) 0.4772(5) 0.7766(3)
N9 N 0.2216(7) 0.6600(8) 0.6057(3)
N10 N 0.0734(6) 0.5207(7) 0.7423(5)
N11 N 0.3558(8) 0.7898(9) 0.9120(3)
N12 N 0.6906(7) 0.8575(8) 0.8445(4)
O1 O 0.5909(4) 0.4614(4) 0.85204(19)
O2 O 0.6479(4) 0.5001(4) 0.74098(19)
O4 O 0.5071(4) 0.3288(4) 0.63655(18)
O5 O 0.3732(5) 0.1072(4) 0.6493(2)
O6 O 0.6550(4) 0.2717(4) 0.7425(2)
O7 O 0.4716(4) 0.2015(4) 0.81118(19)
O8 O 0.2602(4) 0.1930(4) 0.77512(19)
O9 O 0.2349(4) 0.2500(4) 0.6676(2)
Cu2_2 Cu 0.30812(7) 1.13772(7) 0.84639(3)
N5_2 N 0.2560(6) -0.0778(5) 0.7908(3)
C47 C 0.1730(15) 0.4508(18) 0.9201(8)
C48 C 0.1100(18) 0.5291(17) 0.9159(11)
H41 H 0.0178 0.4756 0.8946
H42 H 0.1551 0.5828 0.8905
H43 H 0.1155 0.5803 0.9600
N13 N 0.2179(14) 0.3905(17) 0.9281(7)
O3 O 1.084(2) 0.648(3) 0.4496(15)
C49? C 0.3268(12) 0.1178(17) 0.9831(5)
C50? C 0.224(3) 0.112(5) 0.9829(13)
C51? C 0.1024(10) 0.0628(10) 0.9351(4)
H44? H 0.3184 0.0391 0.9872
H45? H 0.3847 0.1845 1.0236
H46? H 0.2452 0.1995 1.0039
H47? H 0.1919 0.0712 1.0161
H48? H 0.0510 0.1046 0.9532
H49? H 0.0487 -0.0271 0.9278
loop_
_geom_bond_atom_site_label_1
_geom_bond_atom_site_label_2
_geom_bond_site_symmetry_1
_geom_bond_site_symmetry_2
C1 H1 1_555 1_555
H2 C1 1_555 1_555
H3 C1 1_555 1_555
C2 C3 1_555 1_555
C3 H4 1_555 1_555
C4 C3 1_555 1_555
H5 C4 1_555 1_555
C5 C4 1_555 1_555
H6 C5 1_555 1_555
C6 C5 1_555 1_555
C7 C2 1_555 1_555
C8 C6 1_555 1_555
H7 C8 1_555 1_555
C9 H8 1_555 1_555
H9 C9 1_555 1_555
C10 C9 1_555 1_555
H10 C10 1_555 1_555
H11 C10 1_555 1_555
C11 C10 1_555 1_555
H12 C11 1_555 1_555
H13 C11 1_555 1_555
C12 H14 1_555 1_555
C13 C12 1_555 1_555
C14 C13 1_555 1_555
H15 C14 1_555 1_555
C15 C14 1_555 1_555
H16 C15 1_555 1_555
C16 C15 1_555 1_555
H17 C16 1_555 1_555
C17 C16 1_555 1_555
C18 C13 1_555 1_555
C19 H18 1_555 1_555
H19 C19 1_555 1_555
H20 C19 1_555 1_555
C20 H21 1_555 1_555
H22 C20 1_555 1_555
H23 C20 1_555 1_555
C21 C22 1_555 1_555
C22 H24 1_555 1_555
C23 C22 1_555 1_555
H25 C23 1_555 1_555
C24 C23 1_555 1_555
H26 C24 1_555 1_555
C25 C24 1_555 1_555
C26 C21 1_555 1_555
C27 C25 1_555 1_555
H27 C27 1_555 1_555
C28 H28 1_555 1_555
H29 C28 1_555 1_555
C29 C28 1_555 1_555
H30 C29 1_555 1_555
H31 C29 1_555 1_555
C30 C29 1_555 1_555
H32 C30 1_555 1_555
H33 C30 1_555 1_555
C31 H34 1_555 1_555
C32 C31 1_555 1_555
C33 C32 1_555 1_555
H35 C33 1_555 1_555
C34 C33 1_555 1_555
H36 C34 1_555 1_555
C35 C34 1_555 1_555
H37 C35 1_555 1_555
C36 C35 1_555 1_555
C37 C32 1_555 1_555
C38 H38 1_555 1_555
H39 C38 1_555 1_555
H40 C38 1_555 1_555
C39 Mo1 1_555 1_555
C40 Mo1 1_555 1_555
C41 Mo1 1_555 1_555
C42 Mo1 1_555 1_555
C43 Mo1 1_555 1_555
C44 Mo1 1_555 1_555
C45 Mo1 1_555 1_555
C46 Mo1 1_555 1_555
C47 C48 1_555 1_555
C48 H41 1_555 1_555
H42 C48 1_555 1_555
H43 C48 1_555 1_555
Cu1 N1 1_555 1_555
Cu2 N3 1_555 1_555
Dy1 N8 1_555 1_555
N1 C8 1_555 1_555
N2 C11 1_555 1_555
N3 C27 1_555 1_555
N4 C30 1_555 1_555
N5 C39 1_555 1_555
N6 C40 1_555 1_555
N7 C41 1_555 1_555
N8 C42 1_555 1_555
N9 C43 1_555 1_555
N10 C44 1_555 1_555
N11 C45 1_555 1_555
N12 C46 1_555 1_555
N13 C47 1_555 1_555
O1 C1 1_555 1_555
O2 C7 1_555 1_555
O4 C18 1_555 1_555
O5 C17 1_555 1_555
O6 C20 1_555 1_555
O7 C26 1_555 1_555
O8 C37 1_555 1_555
O9 C36 1_555 1_555
Cu2_2 N5 1_555 1_555
N5_2 Cu2 1_555 1_555
C2 O1 1_555 1_555
C6 C7 1_555 1_555
C9 N1 1_555 1_555
C12 N2 1_555 1_555
C17 C18 1_555 1_555
C19 O5 1_555 1_555
C21 O6 1_555 1_555
C25 C26 1_555 1_555
C28 N3 1_555 1_555
C31 N4 1_555 1_555
C36 C37 1_555 1_555
C38 O9 1_555 1_555
Cu1 N2 1_555 1_555
Cu1 N7 1_555 1_555
Cu1 O2 1_555 1_555
Cu1 O4 1_555 1_555
Cu2 N4 1_555 1_555
Cu2 O7 1_555 1_555
Cu2 O8 1_555 1_555
Dy1 O1 1_555 1_555
Dy1 O2 1_555 1_555
Dy1 O4 1_555 1_555
Dy1 O5 1_555 1_555
Dy1 O6 1_555 1_555
Dy1 O7 1_555 1_555
Dy1 O8 1_555 1_555
Dy1 O9 1_555 1_555

#END
