
#######################################################################
#
#                 Cambridge Crystallographic Data Centre
#                                CCDC 
#
#######################################################################
#
# If this CIF has been generated from an entry in the Cambridge 
# Structural Database, then it will include bibliographic, chemical, 
# crystal, experimental, refinement or atomic coordinate data resulting 
# from the CCDC's data processing and validation procedures.
#
#######################################################################

data_YUKGOB
_symmetry_cell_setting           triclinic
_symmetry_space_group_name_H-M   'P -1'
_symmetry_Int_Tables_number      2
_space_group_name_Hall           '-P 1'
loop_
_symmetry_equiv_pos_site_id
_symmetry_equiv_pos_as_xyz
1 x,y,z
2 -x,-y,-z
_cell_length_a                   11.4580(5)
_cell_length_b                   12.4306(6)
_cell_length_c                   20.5668(11)
_cell_angle_alpha                94.891(4)
_cell_angle_beta                 101.823(4)
_cell_angle_gamma                116.255(3)
_cell_volume                     2519.23
loop_
_atom_site_label
_atom_site_type_symbol
_atom_site_fract_x
_atom_site_fract_y
_atom_site_fract_z
C1 C 0.8744(8) 0.4473(8) 0.4223(4)
H1 H 0.9567 0.5031 0.4132
H2 H 0.8882 0.3865 0.4436
H3 H 0.8486 0.4915 0.4519
C2 C 0.6415(6) 0.3095(6) 0.3625(3)
C3 C 0.5925(9) 0.3123(8) 0.4178(4)
H4 H 0.6480 0.3698 0.4574
C4 C 0.4609(9) 0.2298(10) 0.4149(4)
H5 H 0.4260 0.2336 0.4516
C5 C 0.3832(8) 0.1431(9) 0.3576(4)
H6 H 0.2970 0.0838 0.3566
C6 C 0.4308(6) 0.1414(6) 0.2996(3)
C7 C 0.5600(6) 0.2257(5) 0.3008(3)
C8 C 0.3415(7) 0.0432(7) 0.2431(4)
H7 H 0.2617 -0.0146 0.2502
C9 C 0.2535(11) -0.0939(10) 0.1391(6)
H8 H 0.2835 -0.1545 0.1472
H9 H 0.1709 -0.1188 0.1531
C10 C 0.2236(15) -0.0980(12) 0.0739(6)
H10 H 0.1690 -0.0565 0.0663
H11 H 0.1632 -0.1837 0.0534
C11 C 0.3169(8) -0.0541(7) 0.0319(4)
H12 H 0.2659 -0.0676 -0.0146
H13 H 0.3666 -0.1002 0.0327
C12 C 0.4276(7) 0.1412(7) 0.0102(3)
H14 H 0.3733 0.0994 -0.0334
C13 C 0.5171(7) 0.2688(7) 0.0172(3)
C14 C 0.5046(9) 0.3214(9) -0.0401(4)
H15 H 0.4402 0.2727 -0.0803
C15 C 0.5844(11) 0.4416(10) -0.0377(4)
H16 H 0.5727 0.4744 -0.0760
C16 C 0.6830(9) 0.5162(8) 0.0208(4)
H17 H 0.7390 0.5983 0.0218
C17 C 0.6970(7) 0.4670(6) 0.0775(3)
C18 C 0.6166(6) 0.3438(6) 0.0771(3)
C19 C 0.8803(9) 0.6585(6) 0.1408(4)
H18 H 0.9347 0.6974 0.1865
H19 H 0.8307 0.7007 0.1249
H20 H 0.9376 0.6610 0.1122
C20 C 0.4690(7) 0.4102(7) 0.2041(4)
H21 H 0.4659 0.3573 0.1663
H22 H 0.4424 0.4685 0.1881
H23 H 0.4083 0.3623 0.2287
C21 C 0.6221(6) 0.5497(6) 0.3069(3)
C22 C 0.5190(8) 0.5522(9) 0.3303(4)
H24 H 0.4293 0.4985 0.3074
C23 C 0.5508(10) 0.6363(12) 0.3889(5)
H25 H 0.4816 0.6392 0.4047
C24 C 0.6821(10) 0.7145(10) 0.4234(5)
H26 H 0.7015 0.7688 0.4629
C25 C 0.7880(8) 0.7134(8) 0.3996(4)
C26 C 0.7583(6) 0.6291(6) 0.3413(3)
C27 C 0.9202(8) 0.7938(8) 0.4406(4)
H27 H 0.9266 0.8446 0.4786
C28 C 1.1569(12) 0.8948(13) 0.4856(6)
H28 H 1.1341 0.9535 0.5061
H29 H 1.1712 0.8500 0.5201
C29 C 1.266(2) 0.954(2) 0.4751(10)
H30 H 1.3276 1.0085 0.5174
H31 H 1.2553 1.0048 0.4436
C30 C 1.3372(9) 0.8831(9) 0.4461(5)
H32 H 1.4223 0.9423 0.4399
H33 H 1.3569 0.8376 0.4789
C31 C 1.3200(7) 0.7873(7) 0.3398(4)
H34 H 1.4128 0.8390 0.3542
C32 C 1.2702(6) 0.7061(6) 0.2751(4)
C33 C 1.3646(8) 0.7170(9) 0.2387(5)
H35 H 1.4530 0.7798 0.2551
C34 C 1.3298(9) 0.6389(9) 0.1811(6)
H36 H 1.3937 0.6489 0.1573
C35 C 1.1990(8) 0.5423(8) 0.1559(4)
H37 H 1.1756 0.4878 0.1158
C36 C 1.1043(6) 0.5281(6) 0.1913(3)
C37 C 1.1356(6) 0.6110(6) 0.2506(3)
C38 C 0.9365(10) 0.3340(8) 0.1173(5)
H38 H 0.8423 0.2766 0.1083
H39 H 0.9899 0.2941 0.1309
H40 H 0.9539 0.3645 0.0771
C39 C 0.9924(5) -0.0810(5) 0.2716(3)
C40 C 0.7367(6) -0.1664(6) 0.2207(3)
C41 C 0.7222(6) 0.0329(6) 0.1838(3)
C42 C 0.9106(6) 0.2059(6) 0.2750(4)
C43 C 0.8893(6) -0.0368(6) 0.1483(3)
C44 C 1.0766(7) 0.1481(6) 0.2336(4)
C45 C 1.0189(7) 0.0985(7) 0.3517(4)
C46 C 0.7551(7) -0.0020(7) 0.3151(3)
Cu1 Cu 0.50782(6) 0.14364(6) 0.15362(3)
Cu2 Cu 1.05110(7) 0.72268(6) 0.35137(4)
La1 La 0.80364(3) 0.43022(3) 0.242096(15)
W1 W 0.88772(2) 0.02417(2) 0.249950(11)
N1 N 0.3575(5) 0.0246(5) 0.1840(3)
N2 N 0.4132(5) 0.0779(5) 0.0562(3)
N3 N 1.0335(7) 0.8054(6) 0.4317(3)
N4 N 1.2510(5) 0.7969(5) 0.3802(3)
N5 N 1.0471(5) -0.1379(5) 0.2849(3)
N6 N 0.6573(6) -0.2674(5) 0.2049(3)
N7 N 0.6351(5) 0.0432(5) 0.1509(3)
N8 N 0.9206(6) 0.3019(5) 0.2855(3)
N9 N 0.8891(7) -0.0687(8) 0.0943(3)
N10 N 1.1722(8) 0.2137(8) 0.2205(6)
N11 N 1.0904(8) 0.1366(8) 0.4041(4)
N12 N 0.6813(7) -0.0161(8) 0.3473(3)
O1 O 0.7700(4) 0.3890(4) 0.3602(2)
O2 O 0.6087(4) 0.2349(4) 0.24690(18)
O4 O 0.6374(4) 0.3011(3) 0.13373(18)
O6 O 0.7880(5) 0.5342(4) 0.1389(2)
O7 O 0.6036(4) 0.4736(4) 0.2480(2)
O8 O 0.8546(4) 0.6194(4) 0.3170(2)
O9 O 1.0401(4) 0.5968(4) 0.2809(2)
O10 O 0.9715(4) 0.4343(4) 0.1708(2)
Cu2_2 Cu 1.05110(7) -0.27732(6) 0.35137(4)
N5_2 N 1.0471(5) 0.8621(5) 0.2849(3)
O3 O 0.8605(17) 0.7878(14) -0.0450(7)
O5 O 0.7994(19) 0.554(2) 0.5797(12)
C47? C 1.1569(12) 0.8948(13) 0.4856(6)
C48? C 1.2654(15) 0.8690(14) 0.4971(7)
C49? C 1.3372(9) 0.8831(9) 0.4461(5)
H41? H 1.1872 0.9749 0.4737
H42? H 1.1322 0.8998 0.5277
H43? H 1.2318 0.7852 0.5035
H44? H 1.3298 0.9214 0.5394
H45? H 1.4142 0.8694 0.4622
H46? H 1.3713 0.9665 0.4389
loop_
_geom_bond_atom_site_label_1
_geom_bond_atom_site_label_2
_geom_bond_site_symmetry_1
_geom_bond_site_symmetry_2
C1 H1 1_555 1_555
H2 C1 1_555 1_555
H3 C1 1_555 1_555
C2 C3 1_555 1_555
C3 H4 1_555 1_555
C4 C3 1_555 1_555
H5 C4 1_555 1_555
C5 C4 1_555 1_555
H6 C5 1_555 1_555
C6 C5 1_555 1_555
C7 C2 1_555 1_555
C8 C6 1_555 1_555
H7 C8 1_555 1_555
C9 H8 1_555 1_555
H9 C9 1_555 1_555
C10 C9 1_555 1_555
H10 C10 1_555 1_555
H11 C10 1_555 1_555
C11 C10 1_555 1_555
H12 C11 1_555 1_555
H13 C11 1_555 1_555
C12 H14 1_555 1_555
C13 C12 1_555 1_555
C14 C13 1_555 1_555
H15 C14 1_555 1_555
C15 C14 1_555 1_555
H16 C15 1_555 1_555
C16 C15 1_555 1_555
H17 C16 1_555 1_555
C17 C16 1_555 1_555
C18 C13 1_555 1_555
C19 H18 1_555 1_555
H19 C19 1_555 1_555
H20 C19 1_555 1_555
C20 H21 1_555 1_555
H22 C20 1_555 1_555
H23 C20 1_555 1_555
C21 C22 1_555 1_555
C22 H24 1_555 1_555
C23 C22 1_555 1_555
H25 C23 1_555 1_555
C24 C23 1_555 1_555
H26 C24 1_555 1_555
C25 C24 1_555 1_555
C26 C21 1_555 1_555
C27 C25 1_555 1_555
H27 C27 1_555 1_555
C28 H28 1_555 1_555
H29 C28 1_555 1_555
C29 C28 1_555 1_555
H30 C29 1_555 1_555
H31 C29 1_555 1_555
C30 C29 1_555 1_555
H32 C30 1_555 1_555
H33 C30 1_555 1_555
C31 H34 1_555 1_555
C32 C31 1_555 1_555
C33 C32 1_555 1_555
H35 C33 1_555 1_555
C34 C33 1_555 1_555
H36 C34 1_555 1_555
C35 C34 1_555 1_555
H37 C35 1_555 1_555
C36 C35 1_555 1_555
C37 C32 1_555 1_555
C38 H38 1_555 1_555
H39 C38 1_555 1_555
H40 C38 1_555 1_555
C39 W1 1_555 1_555
C40 W1 1_555 1_555
C41 W1 1_555 1_555
C42 W1 1_555 1_555
C43 W1 1_555 1_555
C44 W1 1_555 1_555
C45 W1 1_555 1_555
C46 W1 1_555 1_555
Cu1 N1 1_555 1_555
Cu2 N3 1_555 1_555
La1 N8 1_555 1_555
N1 C8 1_555 1_555
N2 C11 1_555 1_555
N3 C27 1_555 1_555
N4 C30 1_555 1_555
N5 C39 1_555 1_555
N6 C40 1_555 1_555
N7 C41 1_555 1_555
N8 C42 1_555 1_555
N9 C43 1_555 1_555
N10 C44 1_555 1_555
N11 C45 1_555 1_555
N12 C46 1_555 1_555
O1 C1 1_555 1_555
O2 C7 1_555 1_555
O4 C18 1_555 1_555
O6 C17 1_555 1_555
O7 C20 1_555 1_555
O8 C26 1_555 1_555
O9 C37 1_555 1_555
O10 C36 1_555 1_555
Cu2_2 N5 1_555 1_555
N5_2 Cu2 1_555 1_555
C2 O1 1_555 1_555
C6 C7 1_555 1_555
C9 N1 1_555 1_555
C12 N2 1_555 1_555
C17 C18 1_555 1_555
C19 O6 1_555 1_555
C21 O7 1_555 1_555
C25 C26 1_555 1_555
C28 N3 1_555 1_555
C31 N4 1_555 1_555
C36 C37 1_555 1_555
C38 O10 1_555 1_555
Cu1 N2 1_555 1_555
Cu1 N7 1_555 1_555
Cu1 O2 1_555 1_555
Cu1 O4 1_555 1_555
Cu2 N4 1_555 1_555
Cu2 O8 1_555 1_555
Cu2 O9 1_555 1_555
La1 O1 1_555 1_555
La1 O2 1_555 1_555
La1 O4 1_555 1_555
La1 O6 1_555 1_555
La1 O7 1_555 1_555
La1 O8 1_555 1_555
La1 O9 1_555 1_555
La1 O10 1_555 1_555

#END
