
#######################################################################
#
#                 Cambridge Crystallographic Data Centre
#                                CCDC 
#
#######################################################################
#
# If this CIF has been generated from an entry in the Cambridge 
# Structural Database, then it will include bibliographic, chemical, 
# crystal, experimental, refinement or atomic coordinate data resulting 
# from the CCDC's data processing and validation procedures.
#
#######################################################################

data_YUKJUL
_symmetry_cell_setting           triclinic
_symmetry_space_group_name_H-M   'P -1'
_symmetry_Int_Tables_number      2
_space_group_name_Hall           '-P 1'
loop_
_symmetry_equiv_pos_site_id
_symmetry_equiv_pos_as_xyz
1 x,y,z
2 -x,-y,-z
_cell_length_a                   9.9939(4)
_cell_length_b                   10.6523(4)
_cell_length_c                   10.9658(4)
_cell_angle_alpha                80.5580(10)
_cell_angle_beta                 72.2570(10)
_cell_angle_gamma                74.5410(10)
_cell_volume                     1067.27
loop_
_atom_site_label
_atom_site_type_symbol
_atom_site_fract_x
_atom_site_fract_y
_atom_site_fract_z
Eu1 Eu 0.824908(12) 0.305598(12) 0.465662(11)
Zn1 Zn 0.70787(3) 0.13223(3) 0.88350(3)
N1 N 0.8687(2) 0.1978(2) 0.9250(2)
N2 N 0.5228(2) 0.2951(2) 0.9299(2)
C1 C 0.7769(3) 0.0753(3) 1.1257(2)
C2 C 0.8888(3) 0.1483(2) 1.0412(2)
C3 C 1.0068(3) 0.1615(2) 1.0762(2)
C4 C 1.1059(3) 0.2245(3) 0.9871(3)
H1 H 1.189(4) 0.225(4) 1.006(4)
C5 C 1.0841(4) 0.2752(3) 0.8686(3)
H2 H 1.146(4) 0.325(4) 0.806(4)
C6 C 0.9633(3) 0.2604(3) 0.8413(3)
H3 H 0.942(4) 0.294(3) 0.766(3)
C7 C 1.0296(3) 0.1157(3) 1.2077(2)
C8 C 0.5947(3) 0.3309(3) 0.6999(2)
C9 C 0.4856(3) 0.3638(3) 0.8258(2)
C10 C 0.3606(3) 0.4627(3) 0.8349(2)
C11 C 0.2751(3) 0.4930(3) 0.9574(3)
H4 H 0.196(4) 0.561(3) 0.963(3)
C12 C 0.3149(3) 0.4257(3) 1.0647(3)
H5 H 0.261(4) 0.437(3) 1.147(4)
C13 C 0.4390(3) 0.3268(3) 1.0468(3)
H6 H 0.468(4) 0.281(3) 1.116(3)
C14 C 0.3119(3) 0.5386(3) 0.7198(2)
C15 C 1.0596(3) 0.4787(2) 0.4381(2)
O1 O 0.6856(2) 0.0603(2) 1.07393(18)
O2 O 0.7827(2) 0.0338(2) 1.23664(18)
O3 O 0.9727(2) 0.19714(19) 1.28870(18)
O4 O 1.1094(2) 0.00632(19) 1.22630(18)
O5 O 0.70790(19) 0.24081(18) 0.70312(17)
O6 O 0.57662(19) 0.39473(19) 0.59858(17)
O7 O 0.3309(2) 0.65233(19) 0.68727(19)
O8 O 0.2444(2) 0.4889(2) 0.66786(19)
O9 O 1.0435(2) 0.39274(19) 0.38287(18)
O10 O 1.1621(2) 0.5351(2) 0.40385(18)
O11 O 0.5937(3) 0.0063(3) 0.8612(2)
H7 H 0.5040(16) 0.029(6) 0.869(6)
H8 H 0.629(8) -0.036(7) 0.795(5)
O12 O 0.7339(3) 0.1107(2) 0.4794(2)
H9 H 0.735(5) 0.091(4) 0.407(2)
H10 H 0.674(4) 0.079(5) 0.541(3)
O13 O 1.0021(2) 0.1493(2) 0.5572(2)
H11 H 0.980(5) 0.094(4) 0.620(3)
H12 H 1.082(2) 0.113(4) 0.509(3)
C15A C 0.9404(3) 0.5213(2) 0.5619(2)
O9A O 0.9565(2) 0.60726(19) 0.61713(18)
O10A O 0.8379(2) 0.4649(2) 0.59615(18)
Eu1A Eu 0.175092(12) 0.694402(12) 0.534338(11)
Zn1A Zn 0.29213(3) 0.86777(3) 0.11650(3)
N1A N 0.1313(2) 0.8022(2) 0.0750(2)
N2A N 0.4772(2) 0.7049(2) 0.0701(2)
C1A C 0.2231(3) 0.9247(3) -0.1257(2)
C2A C 0.1112(3) 0.8517(2) -0.0412(2)
C3A C -0.0068(3) 0.8385(2) -0.0762(2)
C4A C -0.1059(3) 0.7755(3) 0.0129(3)
H1A H -0.189(4) 0.775(4) -0.006(4)
C5A C -0.0841(4) 0.7248(3) 0.1314(3)
H2A H -0.146(4) 0.675(4) 0.194(4)
C6A C 0.0367(3) 0.7396(3) 0.1587(3)
H3A H 0.058(4) 0.706(3) 0.234(3)
C7A C -0.0296(3) 0.8843(3) -0.2077(2)
C8A C 0.4053(3) 0.6691(3) 0.3001(2)
C9A C 0.5144(3) 0.6362(3) 0.1742(2)
C10A C 0.6394(3) 0.5373(3) 0.1651(2)
C11A C 0.7249(3) 0.5070(3) 0.0426(3)
H4A H 0.804(4) 0.439(3) 0.037(3)
C12A C 0.6851(3) 0.5743(3) -0.0647(3)
H5A H 0.739(4) 0.563(3) -0.147(4)
C13A C 0.5610(3) 0.6732(3) -0.0468(3)
H6A H 0.532(4) 0.719(3) -0.116(3)
C14A C 0.6881(3) 0.4614(3) 0.2802(2)
O1A O 0.3144(2) 0.9397(2) -0.07393(18)
O2A O 0.2173(2) 0.9662(2) -0.23664(18)
O3A O 0.0273(2) 0.80286(19) -0.28870(18)
O4A O -0.1094(2) 0.99368(19) -0.22630(18)
O5A O 0.29210(19) 0.75919(18) 0.29688(17)
O6A O 0.42338(19) 0.60527(19) 0.40142(17)
O7A O 0.6691(2) 0.34767(19) 0.31273(19)
O8A O 0.7556(2) 0.5111(2) 0.33214(19)
O11A O 0.4063(3) 0.9937(3) 0.1388(2)
H7A H 0.4960(16) 0.971(6) 0.131(6)
H8A H 0.371(8) 1.036(7) 0.205(5)
O12A O 0.2661(3) 0.8893(2) 0.5206(2)
H9A H 0.265(5) 0.909(4) 0.593(2)
H10A H 0.326(4) 0.921(5) 0.459(3)
O13A O -0.0021(2) 0.8507(2) 0.4428(2)
H11A H 0.020(5) 0.906(4) 0.380(3)
H12A H -0.082(2) 0.887(4) 0.491(3)
Eu1_2 Eu 0.824908(12) 0.305598(12) 1.465662(11)
Eu1A_2 Eu 0.175092(12) 0.694402(12) -0.465662(11)
Eu1A_3 Eu 1.175092(12) 0.694402(12) 0.534338(11)
Zn1_2 Zn -0.29213(3) 1.13223(3) -0.11650(3)
Zn1A_2 Zn 1.29213(3) -0.13223(3) 1.11650(3)
O3_2 O 0.9727(2) 0.19714(19) 0.28870(18)
O3A_2 O 0.0273(2) 0.80286(19) 0.71130(18)
O4_2 O 0.1094(2) 1.00632(19) 0.22630(18)
O4A_2 O 0.8906(2) -0.00632(19) 0.77370(18)
O9A_2 O -0.0435(2) 0.60726(19) 0.61713(18)
O10_2 O 0.1621(2) 0.5351(2) 0.40385(18)
O14 O 0.4410(5) 0.1185(5) 0.6601(6)
H13 H 0.411(10) 0.061(7) 0.637(9)
H14 H 0.408(10) 0.170(8) 0.603(7)
O15 O 0.4012(3) 0.2904(3) 0.4410(5)
H15 H 0.483(3) 0.301(6) 0.395(5)
H16 H 0.345(5) 0.360(3) 0.469(6)
O16 O 0.7253(3) 0.8483(4) 0.6592(4)
H17 H 0.678(5) 0.812(5) 0.629(5)
H18 H 0.798(4) 0.795(4) 0.677(5)
loop_
_geom_bond_atom_site_label_1
_geom_bond_atom_site_label_2
_geom_bond_site_symmetry_1
_geom_bond_site_symmetry_2
Eu1 O5 1_555 1_555
Zn1 N1 1_555 1_555
N1 C2 1_555 1_555
N2 Zn1 1_555 1_555
C1 C2 1_555 1_555
C2 C3 1_555 1_555
C3 C4 1_555 1_555
C4 H1 1_555 1_555
C5 C4 1_555 1_555
H2 C5 1_555 1_555
C6 N1 1_555 1_555
H3 C6 1_555 1_555
C7 C3 1_555 1_555
C8 C9 1_555 1_555
C9 N2 1_555 1_555
C10 C9 1_555 1_555
C11 C10 1_555 1_555
H4 C11 1_555 1_555
C12 C11 1_555 1_555
H5 C12 1_555 1_555
C13 N2 1_555 1_555
H6 C13 1_555 1_555
C14 C10 1_555 1_555
C15 O9 1_555 1_555
O1 Zn1 1_555 1_555
O2 C1 1_555 1_555
O3 C7 1_555 1_555
O4 C7 1_555 1_555
O5 Zn1 1_555 1_555
O6 Eu1 1_555 1_555
O7 C14 1_555 1_555
O8 C14 1_555 1_555
O9 Eu1 1_555 1_555
O10 C15 1_555 1_555
O11 Zn1 1_555 1_555
H7 O11 1_555 1_555
H8 O11 1_555 1_555
O12 Eu1 1_555 1_555
H9 O12 1_555 1_555
H10 O12 1_555 1_555
O13 Eu1 1_555 1_555
H11 O13 1_555 1_555
H12 O13 1_555 1_555
O14 H13 1_555 1_555
H14 O14 1_555 1_555
O15 H15 1_555 1_555
H16 O15 1_555 1_555
O16 H17 1_555 1_555
H18 O16 1_555 1_555
C15A C15 1_555 1_555
O9A C15A 1_555 1_555
O10A Eu1 1_555 1_555
Eu1A O7 1_555 1_555
Zn1A N1A 1_555 1_555
N1A C2A 1_555 1_555
N2A Zn1A 1_555 1_555
C1A C2A 1_555 1_555
C2A C3A 1_555 1_555
C3A C4A 1_555 1_555
C4A H1A 1_555 1_555
C5A C4A 1_555 1_555
H2A C5A 1_555 1_555
C6A N1A 1_555 1_555
H3A C6A 1_555 1_555
C7A C3A 1_555 1_555
C8A C9A 1_555 1_555
C9A N2A 1_555 1_555
C10A C9A 1_555 1_555
C11A C10A 1_555 1_555
H4A C11A 1_555 1_555
C12A C11A 1_555 1_555
H5A C12A 1_555 1_555
C13A N2A 1_555 1_555
H6A C13A 1_555 1_555
C14A C10A 1_555 1_555
O1A Zn1A 1_555 1_555
O2A C1A 1_555 1_555
O3A C7A 1_555 1_555
O4A C7A 1_555 1_555
O5A Eu1A 1_555 1_555
O6A Eu1A 1_555 1_555
O7A Eu1 1_555 1_555
O8A Eu1 1_555 1_555
O11A Zn1A 1_555 1_555
H7A O11A 1_555 1_555
H8A O11A 1_555 1_555
O12A Eu1A 1_555 1_555
H9A O12A 1_555 1_555
H10A O12A 1_555 1_555
O13A Eu1A 1_555 1_555
H11A O13A 1_555 1_555
H12A O13A 1_555 1_555
Eu1_2 O3 1_555 1_555
Eu1A_2 O3A 1_555 1_555
Eu1A_3 O10 1_555 1_555
Zn1_2 O4A 1_555 1_555
Zn1A_2 O4 1_555 1_555
O3_2 Eu1 1_555 1_555
O3A_2 Eu1A 1_555 1_555
O4_2 Zn1A 1_555 1_555
O4A_2 Zn1 1_555 1_555
O9A_2 Eu1A 1_555 1_555
O10_2 Eu1A 1_555 1_555
C1 O1 1_555 1_555
C5 C6 1_555 1_555
C8 O5 1_555 1_555
C8 O6 1_555 1_555
C12 C13 1_555 1_555
O8 Eu1A 1_555 1_555
C15A O10A 1_555 1_555
O9A Eu1A_3 1_555 1_555
Zn1A O5A 1_555 1_555
C1A O1A 1_555 1_555
C5A C6A 1_555 1_555
C8A O5A 1_555 1_555
C8A O6A 1_555 1_555
C12A C13A 1_555 1_555
C14A O7A 1_555 1_555
C14A O8A 1_555 1_555

#END
