
#######################################################################
#
#                 Cambridge Crystallographic Data Centre
#                                CCDC 
#
#######################################################################
#
# If this CIF has been generated from an entry in the Cambridge 
# Structural Database, then it will include bibliographic, chemical, 
# crystal, experimental, refinement or atomic coordinate data resulting 
# from the CCDC's data processing and validation procedures.
#
#######################################################################

data_YUKJOF
_symmetry_cell_setting           triclinic
_symmetry_space_group_name_H-M   'P -1'
_symmetry_Int_Tables_number      2
_space_group_name_Hall           '-P 1'
loop_
_symmetry_equiv_pos_site_id
_symmetry_equiv_pos_as_xyz
1 x,y,z
2 -x,-y,-z
_cell_length_a                   10.0243(9)
_cell_length_b                   10.6908(10)
_cell_length_c                   11.0053(10)
_cell_angle_alpha                80.4820(10)
_cell_angle_beta                 72.2410(10)
_cell_angle_gamma                74.5610(10)
_cell_volume                     1078.12
loop_
_atom_site_label
_atom_site_type_symbol
_atom_site_fract_x
_atom_site_fract_y
_atom_site_fract_z
Sm1 Sm 0.175420(15) 0.194911(14) 0.534460(13)
Zn1 Zn 0.29255(4) 0.36789(4) 0.11603(4)
N1 N 0.4776(3) 0.2048(3) 0.0696(3)
N2 N 0.1311(3) 0.3026(3) 0.0752(3)
C1 C 0.4054(3) 0.1693(3) 0.2998(3)
C2 C 0.5142(3) 0.1363(3) 0.1732(3)
C3 C 0.6390(4) 0.0373(3) 0.1649(3)
C4 C 0.7242(4) 0.0070(4) 0.0421(4)
H1 H 0.802(5) -0.059(5) 0.039(4)
C5 C 0.6845(4) 0.0743(4) -0.0652(4)
H2 H 0.739(5) 0.058(4) -0.148(5)
C6 C 0.5607(4) 0.1743(4) -0.0477(3)
H3 H 0.536(4) 0.224(3) -0.114(4)
C7 C 0.6875(3) -0.0382(3) 0.2794(3)
C8 C 0.2228(3) 0.4249(3) -0.1256(3)
C9 C 0.1110(3) 0.3518(3) -0.0410(3)
C10 C -0.0068(3) 0.3385(3) -0.0759(3)
C11 C -0.1054(4) 0.2750(4) 0.0134(4)
H4 H -0.190(6) 0.272(6) -0.008(5)
C12 C -0.0828(5) 0.2246(4) 0.1311(4)
H5 H -0.141(6) 0.183(5) 0.190(5)
C13 C 0.0377(4) 0.2396(4) 0.1583(3)
H6 H 0.061(5) 0.202(4) 0.231(5)
C14 C -0.0301(3) 0.3848(3) -0.2070(3)
C15 C 0.0601(3) -0.0214(3) 0.4380(3)
O1 O 0.2929(2) 0.2594(2) 0.2961(2)
O2 O 0.4242(2) 0.1056(2) 0.4002(2)
O3 O 0.6684(3) -0.1515(2) 0.3120(2)
O4 O 0.7553(3) 0.0109(2) 0.3309(2)
O5 O 0.3139(3) 0.4404(3) -0.0741(2)
O6 O 0.2162(3) 0.4669(3) -0.2362(2)
O7 O 0.0270(3) 0.3039(2) -0.2887(2)
O8 O -0.1104(3) 0.4939(2) -0.2252(2)
O9 O 0.1621(3) 0.0350(2) 0.4040(2)
O10 O 0.0439(3) -0.1079(2) 0.3834(2)
O11 O -0.0023(3) 0.3524(3) 0.4419(3)
H7 H 0.026(6) 0.402(4) 0.375(3)
H8 H -0.080(3) 0.387(5) 0.494(4)
O12 O 0.2682(3) 0.3909(3) 0.5205(3)
H9 H 0.264(6) 0.412(5) 0.593(3)
H10 H 0.240(6) 0.325(3) 0.515(5)
O13 O 0.4071(3) 0.4933(3) 0.1383(3)
H11 H 0.4976(14) 0.478(6) 0.125(6)
H12 H 0.364(6) 0.529(5) 0.207(3)
C15A C -0.0601(3) 0.0214(3) 0.5620(3)
O9A O -0.1621(3) -0.0350(2) 0.5960(2)
O10A O -0.0439(3) 0.1079(2) 0.6166(2)
Sm1A Sm -0.175420(15) -0.194911(14) 0.465540(13)
Zn1A Zn -0.29255(4) -0.36789(4) 0.88397(4)
N1A N -0.4776(3) -0.2048(3) 0.9304(3)
N2A N -0.1311(3) -0.3026(3) 0.9248(3)
C1A C -0.4054(3) -0.1693(3) 0.7002(3)
C2A C -0.5142(3) -0.1363(3) 0.8268(3)
C3A C -0.6390(4) -0.0373(3) 0.8351(3)
C4A C -0.7242(4) -0.0070(4) 0.9579(4)
H1A H -0.802(5) 0.059(5) 0.961(4)
C5A C -0.6845(4) -0.0743(4) 1.0652(4)
H2A H -0.739(5) -0.058(4) 1.148(5)
C6A C -0.5607(4) -0.1743(4) 1.0477(3)
H3A H -0.536(4) -0.224(3) 1.114(4)
C7A C -0.6875(3) 0.0382(3) 0.7206(3)
C8A C -0.2228(3) -0.4249(3) 1.1256(3)
C9A C -0.1110(3) -0.3518(3) 1.0410(3)
C10A C 0.0068(3) -0.3385(3) 1.0759(3)
C11A C 0.1054(4) -0.2750(4) 0.9866(4)
H4A H 0.190(6) -0.272(6) 1.008(5)
C12A C 0.0828(5) -0.2246(4) 0.8689(4)
H5A H 0.141(6) -0.183(5) 0.810(5)
C13A C -0.0377(4) -0.2396(4) 0.8417(3)
H6A H -0.061(5) -0.202(4) 0.769(5)
C14A C 0.0301(3) -0.3848(3) 1.2070(3)
O1A O -0.2929(2) -0.2594(2) 0.7039(2)
O2A O -0.4242(2) -0.1056(2) 0.5998(2)
O3A O -0.6684(3) 0.1515(2) 0.6880(2)
O4A O -0.7553(3) -0.0109(2) 0.6691(2)
O5A O -0.3139(3) -0.4404(3) 1.0741(2)
O6A O -0.2162(3) -0.4669(3) 1.2362(2)
O7A O -0.0270(3) -0.3039(2) 1.2887(2)
O8A O 0.1104(3) -0.4939(2) 1.2252(2)
O11A O 0.0023(3) -0.3524(3) 0.5581(3)
H7A H -0.026(6) -0.402(4) 0.625(3)
H8A H 0.080(3) -0.387(5) 0.506(4)
O12A O -0.2682(3) -0.3909(3) 0.4795(3)
H9A H -0.264(6) -0.412(5) 0.407(3)
H10A H -0.240(6) -0.325(3) 0.485(5)
O13A O -0.4071(3) -0.4933(3) 0.8617(3)
H11A H -0.4976(14) -0.478(6) 0.875(6)
H12A H -0.364(6) -0.529(5) 0.793(3)
Sm1_2 Sm -0.824580(15) 0.194911(14) 0.534460(13)
Sm1_3 Sm 0.175420(15) 0.194911(14) -0.465540(13)
Sm1A_2 Sm -0.175420(15) -0.194911(14) 1.465540(13)
Sm1A_3 Sm 0.824580(15) -0.194911(14) 0.465540(13)
Zn1_2 Zn 0.29255(4) -0.63211(4) 1.11603(4)
Zn1A_2 Zn -0.29255(4) 0.63211(4) -0.11603(4)
O3_2 O -0.3316(3) -0.1515(2) 0.3120(2)
O3A_2 O 0.3316(3) 0.1515(2) 0.6880(2)
O4_2 O -0.2447(3) 0.0109(2) 0.3309(2)
O4A_2 O 0.2447(3) -0.0109(2) 0.6691(2)
O7_2 O 0.0270(3) 0.3039(2) 0.7113(2)
O7A_2 O -0.0270(3) -0.3039(2) 0.2887(2)
O8_2 O -0.1104(3) -0.5061(2) 0.7748(2)
O8A_2 O 0.1104(3) 0.5061(2) 0.2252(2)
O14 O 0.2754(4) 0.6524(5) 0.3400(5)
H13 H 0.209(7) 0.714(5) 0.321(8)
H14 H 0.315(8) 0.680(7) 0.386(7)
O15 O 0.4008(4) 0.7908(4) 0.4396(7)
H15 H 0.354(8) 0.847(7) 0.492(8)
H16 H 0.484(5) 0.805(9) 0.402(8)
O16 O 0.4393(6) 0.6210(6) 0.6579(9)
H17 H 0.518(5) 0.566(8) 0.632(12)
H18 H 0.370(7) 0.587(9) 0.663(12)
loop_
_geom_bond_atom_site_label_1
_geom_bond_atom_site_label_2
_geom_bond_site_symmetry_1
_geom_bond_site_symmetry_2
Sm1 O1 1_555 1_555
Zn1 N1 1_555 1_555
N1 C2 1_555 1_555
N2 Zn1 1_555 1_555
C1 C2 1_555 1_555
C2 C3 1_555 1_555
C3 C4 1_555 1_555
C4 H1 1_555 1_555
C5 C4 1_555 1_555
H2 C5 1_555 1_555
C6 N1 1_555 1_555
H3 C6 1_555 1_555
C7 C3 1_555 1_555
C8 C9 1_555 1_555
C9 N2 1_555 1_555
C10 C9 1_555 1_555
C11 C10 1_555 1_555
H4 C11 1_555 1_555
C12 C11 1_555 1_555
H5 C12 1_555 1_555
C13 N2 1_555 1_555
H6 C13 1_555 1_555
C14 C10 1_555 1_555
C15 O9 1_555 1_555
O1 Zn1 1_555 1_555
O2 Sm1 1_555 1_555
O3 C7 1_555 1_555
O4 C7 1_555 1_555
O5 Zn1 1_555 1_555
O6 C8 1_555 1_555
O7 C14 1_555 1_555
O8 C14 1_555 1_555
O9 Sm1 1_555 1_555
O10 C15 1_555 1_555
O11 Sm1 1_555 1_555
H7 O11 1_555 1_555
H8 O11 1_555 1_555
O12 Sm1 1_555 1_555
H9 O12 1_555 1_555
H10 O12 1_555 1_555
O13 Zn1 1_555 1_555
H11 O13 1_555 1_555
H12 O13 1_555 1_555
O14 H13 1_555 1_555
H14 O14 1_555 1_555
O15 H15 1_555 1_555
H16 O15 1_555 1_555
O16 H17 1_555 1_555
H18 O16 1_555 1_555
C15A C15 1_555 1_555
O9A C15A 1_555 1_555
O10A Sm1 1_555 1_555
Sm1A O10 1_555 1_555
Zn1A N1A 1_555 1_555
N1A C2A 1_555 1_555
N2A Zn1A 1_555 1_555
C1A C2A 1_555 1_555
C2A C3A 1_555 1_555
C3A C4A 1_555 1_555
C4A H1A 1_555 1_555
C5A C4A 1_555 1_555
H2A C5A 1_555 1_555
C6A N1A 1_555 1_555
H3A C6A 1_555 1_555
C7A C3A 1_555 1_555
C8A C9A 1_555 1_555
C9A N2A 1_555 1_555
C10A C9A 1_555 1_555
C11A C10A 1_555 1_555
H4A C11A 1_555 1_555
C12A C11A 1_555 1_555
H5A C12A 1_555 1_555
C13A N2A 1_555 1_555
H6A C13A 1_555 1_555
C14A C10A 1_555 1_555
O1A Sm1A 1_555 1_555
O2A Sm1A 1_555 1_555
O3A C7A 1_555 1_555
O4A C7A 1_555 1_555
O5A Zn1A 1_555 1_555
O6A C8A 1_555 1_555
O7A C14A 1_555 1_555
O8A C14A 1_555 1_555
O11A Sm1A 1_555 1_555
H7A O11A 1_555 1_555
H8A O11A 1_555 1_555
O12A Sm1A 1_555 1_555
H9A O12A 1_555 1_555
H10A O12A 1_555 1_555
O13A Zn1A 1_555 1_555
H11A O13A 1_555 1_555
H12A O13A 1_555 1_555
Sm1_2 O3A 1_555 1_555
Sm1_3 O7 1_555 1_555
Sm1A_2 O7A 1_555 1_555
Sm1A_3 O3 1_555 1_555
Zn1_2 O8A 1_555 1_555
Zn1A_2 O8 1_555 1_555
O3_2 Sm1A 1_555 1_555
O3A_2 Sm1 1_555 1_555
O4_2 Sm1A 1_555 1_555
O4A_2 Sm1 1_555 1_555
O7_2 Sm1 1_555 1_555
O7A_2 Sm1A 1_555 1_555
O8_2 Zn1A 1_555 1_555
O8A_2 Zn1 1_555 1_555
C1 O1 1_555 1_555
C1 O2 1_555 1_555
C5 C6 1_555 1_555
C8 O5 1_555 1_555
C12 C13 1_555 1_555
O4 Sm1A_3 1_555 1_555
C15A O10A 1_555 1_555
O9A Sm1A 1_555 1_555
Zn1A O1A 1_555 1_555
C1A O1A 1_555 1_555
C1A O2A 1_555 1_555
C5A C6A 1_555 1_555
C8A O5A 1_555 1_555
C12A C13A 1_555 1_555
O4A Sm1_2 1_555 1_555

#END
