
#######################################################################
#
#                 Cambridge Crystallographic Data Centre
#                                CCDC 
#
#######################################################################
#
# If this CIF has been generated from an entry in the Cambridge 
# Structural Database, then it will include bibliographic, chemical, 
# crystal, experimental, refinement or atomic coordinate data resulting 
# from the CCDC's data processing and validation procedures.
#
#######################################################################

data_YUKJAR
_symmetry_cell_setting           monoclinic
_symmetry_space_group_name_H-M   'P 21/n'
_symmetry_Int_Tables_number      14
_space_group_name_Hall           '-P 2yn'
loop_
_symmetry_equiv_pos_site_id
_symmetry_equiv_pos_as_xyz
1 x,y,z
2 1/2-x,1/2+y,1/2-z
3 -x,-y,-z
4 1/2+x,1/2-y,1/2+z
_cell_length_a                   13.632(3)
_cell_length_b                   7.1280(14)
_cell_length_c                   14.777(3)
_cell_angle_alpha                90
_cell_angle_beta                 100.52(3)
_cell_angle_gamma                90
_cell_volume                     1411.73
loop_
_atom_site_label
_atom_site_type_symbol
_atom_site_fract_x
_atom_site_fract_y
_atom_site_fract_z
Zn1 Zn 0.49788(3) 0.08727(6) 0.79508(3)
S1 S 0.59448(7) 0.78474(14) 0.53274(8)
N1 N 0.5271(2) 0.2886(4) 0.7038(2)
N2 N 0.7445(2) 0.8299(5) 0.4476(2)
N3 N 0.8918(2) 0.7081(4) 0.5923(2)
C1 C 0.4695(3) 0.4427(5) 0.6907(3)
H1 H 0.4132 0.4493 0.7179
C2 C 0.6046(3) 0.2790(5) 0.6599(3)
H2 H 0.6435 0.1710 0.6668
C3 C 0.6298(3) 0.4213(5) 0.6050(3)
H3 H 0.6830 0.4081 0.5742
C4 C 0.4913(3) 0.5909(5) 0.6382(3)
H4 H 0.4501 0.6959 0.6305
C5 C 0.5736(3) 0.5840(5) 0.5972(3)
C6 C 0.7226(3) 0.7745(5) 0.5268(3)
C7 C 0.8405(3) 0.8284(6) 0.4409(3)
H5 H 0.8594 0.8723 0.3874
C8 C 0.9124(3) 0.7631(6) 0.5117(3)
H6 H 0.9782 0.7573 0.5029
C9 C 0.7955(3) 0.7194(5) 0.6000(3)
H7 H 0.7771 0.6896 0.6559
N4 N 0.3090(3) 0.1800(5) 0.8608(3)
N5 N 0.6082(3) -0.2246(5) 0.8212(3)
O1 O 0.2513(2) 0.1406(6) 0.9100(3)
O2 O 0.2848(3) 0.2738(5) 0.7895(3)
O3 O 0.3975(2) 0.1199(5) 0.8819(2)
O4 O 0.5288(2) -0.1908(4) 0.8523(2)
O5 O 0.6311(2) -0.1013(4) 0.7679(2)
O6 O 0.6570(2) -0.3633(4) 0.8409(3)
O7 O 0.38753(18) -0.0243(3) 0.69373(19)
H8 H 0.3652 0.0621 0.6515
H9 H 0.3420 -0.1118 0.6980
Zn1A Zn 1.00212(3) 0.58727(6) 0.70492(3)
N3A N 0.6082(2) 0.2081(4) 0.9077(2)
loop_
_geom_bond_atom_site_label_1
_geom_bond_atom_site_label_2
_geom_bond_site_symmetry_1
_geom_bond_site_symmetry_2
Zn1 N1 1_555 1_555
S1 C5 1_555 1_555
N1 C1 1_555 1_555
N2 C6 1_555 1_555
N3 C8 1_555 1_555
C1 H1 1_555 1_555
C2 N1 1_555 1_555
H2 C2 1_555 1_555
C3 C2 1_555 1_555
H3 C3 1_555 1_555
C4 C1 1_555 1_555
H4 C4 1_555 1_555
C5 C3 1_555 1_555
C6 S1 1_555 1_555
C7 N2 1_555 1_555
H5 C7 1_555 1_555
C8 C7 1_555 1_555
H6 C8 1_555 1_555
C9 N3 1_555 1_555
H7 C9 1_555 1_555
N4 O1 1_555 1_555
N5 O4 1_555 1_555
O2 N4 1_555 1_555
O3 Zn1 1_555 1_555
O4 Zn1 1_555 1_555
O5 Zn1 1_555 1_555
O6 N5 1_555 1_555
O7 Zn1 1_555 1_555
H8 O7 1_555 1_555
H9 O7 1_555 1_555
Zn1A N3 1_555 1_555
N3A Zn1 1_555 1_555
C4 C5 1_555 1_555
C6 C9 1_555 1_555
N4 O3 1_555 1_555
N5 O5 1_555 1_555

#END
