
#######################################################################
#
#                 Cambridge Crystallographic Data Centre
#                                CCDC 
#
#######################################################################
#
# If this CIF has been generated from an entry in the Cambridge 
# Structural Database, then it will include bibliographic, chemical, 
# crystal, experimental, refinement or atomic coordinate data resulting 
# from the CCDC's data processing and validation procedures.
#
#######################################################################

data_YUKKAS
_symmetry_cell_setting           triclinic
_symmetry_space_group_name_H-M   'P -1'
_symmetry_Int_Tables_number      2
_space_group_name_Hall           '-P 1'
loop_
_symmetry_equiv_pos_site_id
_symmetry_equiv_pos_as_xyz
1 x,y,z
2 -x,-y,-z
_cell_length_a                   9.9430(8)
_cell_length_b                   10.5668(9)
_cell_length_c                   10.9169(9)
_cell_angle_alpha                80.5960(10)
_cell_angle_beta                 72.1490(10)
_cell_angle_gamma                74.5740(10)
_cell_volume                     1048.24
loop_
_atom_site_label
_atom_site_type_symbol
_atom_site_fract_x
_atom_site_fract_y
_atom_site_fract_z
Tb1 Tb 0.174368(12) 0.193750(11) 1.034086(10)
Zn1 Zn 0.29172(3) 0.36786(3) 0.61719(3)
N1 N 0.4779(2) 0.2042(2) 0.5712(2)
N2 N 0.1303(2) 0.3027(2) 0.5752(2)
C1 C 0.6882(3) -0.0384(3) 0.7825(2)
C2 C 0.6402(3) 0.0370(2) 0.6673(2)
C3 C 0.5145(3) 0.1357(3) 0.6755(2)
C4 C 0.5625(3) 0.1724(3) 0.4541(3)
H1 H 0.534(4) 0.220(3) 0.385(3)
C5 C 0.6870(3) 0.0726(3) 0.4367(3)
H2 H 0.741(4) 0.060(4) 0.353(4)
C6 C 0.7265(3) 0.0062(3) 0.5445(3)
H3 H 0.799(4) -0.054(4) 0.540(4)
C7 C 0.4040(3) 0.1692(2) 0.8016(2)
C8 C 0.2251(3) 0.4238(2) 0.3737(2)
C9 C 0.1115(3) 0.3513(2) 0.4583(2)
C10 C -0.0064(3) 0.3385(2) 0.4229(2)
C11 C -0.0280(3) 0.3833(2) 0.2910(2)
C12 C -0.1073(3) 0.2766(3) 0.5129(3)
H4 H -0.193(4) 0.273(3) 0.494(3)
C13 C -0.0857(4) 0.2261(3) 0.6317(3)
H5 H -0.153(4) 0.185(4) 0.692(4)
C14 C 0.0351(3) 0.2406(3) 0.6593(3)
H6 H 0.052(3) 0.206(3) 0.736(3)
C15 C -0.0597(3) 0.0207(2) 1.0623(2)
O1 O 0.42134(19) 0.10550(19) 0.90322(17)
O2 O 0.29062(18) 0.25900(17) 0.79795(17)
O3 O 0.6704(2) -0.15300(18) 0.81452(19)
O4 O 0.7561(2) 0.01088(19) 0.83457(19)
O5 O 0.3161(2) 0.4394(2) 0.42599(18)
O6 O 0.2202(2) 0.4648(2) 0.26214(18)
O7 O 0.0292(2) 0.30077(19) 0.21029(18)
O8 O -0.1074(2) 0.49363(18) 0.27168(18)
O9 O -0.0429(2) 0.10681(19) 1.11838(18)
O10 O -0.1620(2) -0.03619(19) 1.09647(18)
O11 O -0.0022(2) 0.3486(2) 0.9446(2)
H7 H 0.027(5) 0.398(4) 0.878(3)
H8 H -0.086(2) 0.379(4) 0.992(4)
O12 O 0.2629(2) 0.3883(2) 1.0201(2)
H9 H 0.258(4) 0.410(4) 1.0924(19)
H10 H 0.324(4) 0.420(5) 0.959(3)
O13 O 0.4050(3) 0.4960(3) 0.6386(2)
H11 H 0.370(6) 0.537(5) 0.706(3)
H12 H 0.4938(19) 0.468(5) 0.635(6)
C15A C 0.0597(3) -0.0207(2) 0.9377(2)
O9A O 0.0429(2) -0.10681(19) 0.88162(18)
O10A O 0.1620(2) 0.03619(19) 0.90353(18)
Tb1A Tb -0.174368(12) -0.193750(11) 0.965914(10)
Zn1A Zn -0.29172(3) -0.36786(3) 1.38281(3)
N1A N -0.4779(2) -0.2042(2) 1.4288(2)
N2A N -0.1303(2) -0.3027(2) 1.4248(2)
C1A C -0.6882(3) 0.0384(3) 1.2175(2)
C2A C -0.6402(3) -0.0370(2) 1.3327(2)
C3A C -0.5145(3) -0.1357(3) 1.3245(2)
C4A C -0.5625(3) -0.1724(3) 1.5459(3)
H1A H -0.534(4) -0.220(3) 1.615(3)
C5A C -0.6870(3) -0.0726(3) 1.5633(3)
H2A H -0.741(4) -0.060(4) 1.647(4)
C6A C -0.7265(3) -0.0062(3) 1.4555(3)
H3A H -0.799(4) 0.054(4) 1.460(4)
C7A C -0.4040(3) -0.1692(2) 1.1984(2)
C8A C -0.2251(3) -0.4238(2) 1.6263(2)
C9A C -0.1115(3) -0.3513(2) 1.5417(2)
C10A C 0.0064(3) -0.3385(2) 1.5771(2)
C11A C 0.0280(3) -0.3833(2) 1.7090(2)
C12A C 0.1073(3) -0.2766(3) 1.4871(3)
H4A H 0.193(4) -0.273(3) 1.506(3)
C13A C 0.0857(4) -0.2261(3) 1.3683(3)
H5A H 0.153(4) -0.185(4) 1.308(4)
C14A C -0.0351(3) -0.2406(3) 1.3407(3)
H6A H -0.052(3) -0.206(3) 1.264(3)
O1A O -0.42134(19) -0.10550(19) 1.09678(17)
O2A O -0.29062(18) -0.25900(17) 1.20205(17)
O3A O -0.6704(2) 0.15300(18) 1.18548(19)
O4A O -0.7561(2) -0.01088(19) 1.16543(19)
O5A O -0.3161(2) -0.4394(2) 1.57401(18)
O6A O -0.2202(2) -0.4648(2) 1.73786(18)
O7A O -0.0292(2) -0.30077(19) 1.78971(18)
O8A O 0.1074(2) -0.49363(18) 1.72832(18)
O11A O 0.0022(2) -0.3486(2) 1.0554(2)
H7A H -0.027(5) -0.398(4) 1.122(3)
H8A H 0.086(2) -0.379(4) 1.008(4)
O12A O -0.2629(2) -0.3883(2) 0.9799(2)
H9A H -0.258(4) -0.410(4) 0.9076(19)
H10A H -0.324(4) -0.420(5) 1.041(3)
O13A O -0.4050(3) -0.4960(3) 1.3614(2)
H11A H -0.370(6) -0.537(5) 1.294(3)
H12A H -0.4938(19) -0.468(5) 1.365(6)
Tb1_2 Tb -0.825632(12) 0.193750(11) 1.034086(10)
Tb1_3 Tb 0.174368(12) 0.193750(11) 0.034086(10)
Tb1A_2 Tb -0.174368(12) -0.193750(11) 1.965914(10)
Tb1A_3 Tb 0.825632(12) -0.193750(11) 0.965914(10)
Zn1_2 Zn 0.29172(3) -0.63214(3) 1.61719(3)
Zn1A_2 Zn -0.29172(3) 0.63214(3) 0.38281(3)
O3_2 O -0.3296(2) -0.15300(18) 0.81452(19)
O3A_2 O 0.3296(2) 0.15300(18) 1.18548(19)
O4_2 O -0.2439(2) 0.01088(19) 0.83457(19)
O4A_2 O 0.2439(2) -0.01088(19) 1.16543(19)
O7_2 O 0.0292(2) 0.30077(19) 1.21029(18)
O7A_2 O -0.0292(2) -0.30077(19) 0.78971(18)
O8_2 O -0.1074(2) -0.50637(18) 1.27168(18)
O8A_2 O 0.1074(2) 0.50637(18) 0.72832(18)
O14 O 0.2738(3) 0.6545(4) 0.8395(4)
H13 H 0.316(5) 0.692(5) 0.875(5)
H14 H 0.201(4) 0.710(4) 0.823(6)
O15 O 0.4016(3) 0.7905(3) 0.9426(5)
H15 H 0.480(4) 0.800(6) 0.887(5)
H16 H 0.357(6) 0.860(4) 0.980(6)
O16 O 0.5548(5) 0.3825(5) 0.8437(6)
H17 H 0.620(6) 0.424(7) 0.803(7)
H18 H 0.582(8) 0.333(7) 0.905(6)
loop_
_geom_bond_atom_site_label_1
_geom_bond_atom_site_label_2
_geom_bond_site_symmetry_1
_geom_bond_site_symmetry_2
Tb1 O1 1_555 1_555
Zn1 N1 1_555 1_555
N1 C3 1_555 1_555
N2 Zn1 1_555 1_555
C1 C2 1_555 1_555
C2 C3 1_555 1_555
C3 C7 1_555 1_555
C4 N1 1_555 1_555
H1 C4 1_555 1_555
C5 C4 1_555 1_555
H2 C5 1_555 1_555
C6 C2 1_555 1_555
H3 C6 1_555 1_555
C7 O1 1_555 1_555
C8 C9 1_555 1_555
C9 N2 1_555 1_555
C10 C9 1_555 1_555
C11 C10 1_555 1_555
C12 C10 1_555 1_555
H4 C12 1_555 1_555
C13 C12 1_555 1_555
H5 C13 1_555 1_555
C14 N2 1_555 1_555
H6 C14 1_555 1_555
C15 O9 1_555 1_555
O2 Tb1 1_555 1_555
O3 C1 1_555 1_555
O4 C1 1_555 1_555
O5 Zn1 1_555 1_555
O6 C8 1_555 1_555
O7 C11 1_555 1_555
O8 C11 1_555 1_555
O9 Tb1 1_555 1_555
O10 C15 1_555 1_555
O11 Tb1 1_555 1_555
H7 O11 1_555 1_555
H8 O11 1_555 1_555
O12 Tb1 1_555 1_555
H9 O12 1_555 1_555
H10 O12 1_555 1_555
O13 Zn1 1_555 1_555
H11 O13 1_555 1_555
H12 O13 1_555 1_555
O14 H13 1_555 1_555
H14 O14 1_555 1_555
O15 H15 1_555 1_555
H16 O15 1_555 1_555
O16 H17 1_555 1_555
H18 O16 1_555 1_555
C15A C15 1_555 1_555
O9A C15A 1_555 1_555
O10A Tb1 1_555 1_555
Tb1A O10 1_555 1_555
Zn1A N1A 1_555 1_555
N1A C3A 1_555 1_555
N2A Zn1A 1_555 1_555
C1A C2A 1_555 1_555
C2A C3A 1_555 1_555
C3A C7A 1_555 1_555
C4A N1A 1_555 1_555
H1A C4A 1_555 1_555
C5A C4A 1_555 1_555
H2A C5A 1_555 1_555
C6A C2A 1_555 1_555
H3A C6A 1_555 1_555
C7A O1A 1_555 1_555
C8A C9A 1_555 1_555
C9A N2A 1_555 1_555
C10A C9A 1_555 1_555
C11A C10A 1_555 1_555
C12A C10A 1_555 1_555
H4A C12A 1_555 1_555
C13A C12A 1_555 1_555
H5A C13A 1_555 1_555
C14A N2A 1_555 1_555
H6A C14A 1_555 1_555
O1A Tb1A 1_555 1_555
O2A Tb1A 1_555 1_555
O3A C1A 1_555 1_555
O4A C1A 1_555 1_555
O5A Zn1A 1_555 1_555
O6A C8A 1_555 1_555
O7A C11A 1_555 1_555
O8A C11A 1_555 1_555
O11A Tb1A 1_555 1_555
H7A O11A 1_555 1_555
H8A O11A 1_555 1_555
O12A Tb1A 1_555 1_555
H9A O12A 1_555 1_555
H10A O12A 1_555 1_555
O13A Zn1A 1_555 1_555
H11A O13A 1_555 1_555
H12A O13A 1_555 1_555
Tb1_2 O3A 1_555 1_555
Tb1_3 O7 1_555 1_555
Tb1A_2 O7A 1_555 1_555
Tb1A_3 O3 1_555 1_555
Zn1_2 O8A 1_555 1_555
Zn1A_2 O8 1_555 1_555
O3_2 Tb1A 1_555 1_555
O3A_2 Tb1 1_555 1_555
O4_2 Tb1A 1_555 1_555
O4A_2 Tb1 1_555 1_555
O7_2 Tb1 1_555 1_555
O7A_2 Tb1A 1_555 1_555
O8_2 Zn1A 1_555 1_555
O8A_2 Zn1 1_555 1_555
Zn1 O2 1_555 1_555
C5 C6 1_555 1_555
C7 O2 1_555 1_555
C8 O5 1_555 1_555
C13 C14 1_555 1_555
O4 Tb1A_3 1_555 1_555
C15A O10A 1_555 1_555
O9A Tb1A 1_555 1_555
Zn1A O2A 1_555 1_555
C5A C6A 1_555 1_555
C7A O2A 1_555 1_555
C8A O5A 1_555 1_555
C13A C14A 1_555 1_555
O4A Tb1_2 1_555 1_555

#END
