
#######################################################################
#
#                 Cambridge Crystallographic Data Centre
#                                CCDC 
#
#######################################################################
#
# If this CIF has been generated from an entry in the Cambridge 
# Structural Database, then it will include bibliographic, chemical, 
# crystal, experimental, refinement or atomic coordinate data resulting 
# from the CCDC's data processing and validation procedures.
#
#######################################################################

data_YUKWUY
_symmetry_cell_setting           triclinic
_symmetry_space_group_name_H-M   'P -1'
_symmetry_Int_Tables_number      2
_space_group_name_Hall           '-P 1'
loop_
_symmetry_equiv_pos_site_id
_symmetry_equiv_pos_as_xyz
1 x,y,z
2 -x,-y,-z
_cell_length_a                   10.0218(16)
_cell_length_b                   10.7145(16)
_cell_length_c                   10.9870(17)
_cell_angle_alpha                80.478(2)
_cell_angle_beta                 72.442(2)
_cell_angle_gamma                74.522(2)
_cell_volume                     1079.37
loop_
_atom_site_label
_atom_site_type_symbol
_atom_site_fract_x
_atom_site_fract_y
_atom_site_fract_z
Nd1 Nd 0.176191(15) 0.195374(13) 1.034859(13)
Zn1 Zn 0.29277(4) 0.36785(3) 0.61537(3)
N1 N 0.4773(3) 0.2054(3) 0.5684(2)
N2 N 0.1321(3) 0.3022(2) 0.5750(2)
C1 C 0.5598(4) 0.1756(3) 0.4509(3)
H1 H 0.534(4) 0.225(4) 0.380(4)
C2 C 0.6828(4) 0.0764(3) 0.4332(3)
H2 H 0.739(5) 0.056(4) 0.352(4)
C3 C 0.7228(4) 0.0077(3) 0.5403(3)
H3 H 0.804(5) -0.054(4) 0.531(4)
C4 C 0.6385(3) 0.0375(3) 0.6626(3)
C5 C 0.5143(3) 0.1365(3) 0.6717(3)
C6 C 0.6874(3) -0.0379(3) 0.7765(3)
C7 C 0.4069(3) 0.1689(3) 0.7979(3)
C8 C 0.1101(3) 0.3523(3) 0.4596(3)
C9 C -0.0075(3) 0.3381(3) 0.4250(3)
C10 C -0.1045(4) 0.2738(3) 0.5134(3)
H4 H -0.190(5) 0.270(4) 0.493(4)
C11 C -0.0810(4) 0.2229(3) 0.6311(3)
H5 H -0.146(5) 0.179(4) 0.694(4)
C12 C 0.0388(4) 0.2386(3) 0.6581(3)
H6 H 0.062(4) 0.203(4) 0.731(4)
C13 C 0.2206(3) 0.4259(3) 0.3753(3)
C14 C -0.0320(3) 0.3854(3) 0.2945(3)
C15 C 0.0598(3) -0.0222(3) 0.9392(3)
O1 O 0.7554(3) 0.0106(2) 0.8280(2)
O2 O 0.6674(3) -0.1511(2) 0.8096(2)
O3 O 0.4262(2) 0.1051(2) 0.8987(2)
O4 O 0.2940(2) 0.2592(2) 0.7951(2)
O5 O 0.3124(2) 0.4408(2) 0.4266(2)
O6 O 0.2131(3) 0.4683(2) 0.2652(2)
O7 O 0.0250(2) 0.3055(2) 0.2118(2)
O8 O -0.1121(2) 0.4938(2) 0.2767(2)
O9 O 0.1633(2) 0.0335(2) 0.9044(2)
O10 O 0.0445(2) -0.1082(2) 0.8845(2)
O11 O -0.0021(3) 0.3544(3) 0.9406(2)
H7 H -0.088(2) 0.381(5) 0.984(5)
H8 H 0.022(5) 0.407(4) 0.875(3)
O12 O 0.2709(3) 0.3909(3) 1.0217(2)
H9 H 0.263(5) 0.414(4) 1.094(2)
H10 H 0.324(6) 0.424(6) 0.956(4)
O13 O 0.4094(3) 0.4914(3) 0.6382(3)
H11 H 0.375(12) 0.517(10) 0.713(4)
H12 H 0.5006(12) 0.470(9) 0.618(9)
C15A C -0.0598(3) 0.0222(3) 1.0608(3)
O9A O -0.1633(2) -0.0335(2) 1.0956(2)
O10A O -0.0445(2) 0.1082(2) 1.1155(2)
Nd1A Nd -0.176191(15) -0.195374(13) 0.965141(13)
Zn1A Zn -0.29277(4) -0.36785(3) 1.38463(3)
N1A N -0.4773(3) -0.2054(3) 1.4316(2)
N2A N -0.1321(3) -0.3022(2) 1.4250(2)
C1A C -0.5598(4) -0.1756(3) 1.5491(3)
H1A H -0.534(4) -0.225(4) 1.620(4)
C2A C -0.6828(4) -0.0764(3) 1.5668(3)
H2A H -0.739(5) -0.056(4) 1.648(4)
C3A C -0.7228(4) -0.0077(3) 1.4597(3)
H3A H -0.804(5) 0.054(4) 1.469(4)
C4A C -0.6385(3) -0.0375(3) 1.3374(3)
C5A C -0.5143(3) -0.1365(3) 1.3283(3)
C6A C -0.6874(3) 0.0379(3) 1.2235(3)
C7A C -0.4069(3) -0.1689(3) 1.2021(3)
C8A C -0.1101(3) -0.3523(3) 1.5404(3)
C9A C 0.0075(3) -0.3381(3) 1.5750(3)
C10A C 0.1045(4) -0.2738(3) 1.4866(3)
H4A H 0.190(5) -0.270(4) 1.507(4)
C11A C 0.0810(4) -0.2229(3) 1.3689(3)
H5A H 0.146(5) -0.179(4) 1.306(4)
C12A C -0.0388(4) -0.2386(3) 1.3419(3)
H6A H -0.062(4) -0.203(4) 1.269(4)
C13A C -0.2206(3) -0.4259(3) 1.6247(3)
C14A C 0.0320(3) -0.3854(3) 1.7055(3)
O1A O -0.7554(3) -0.0106(2) 1.1720(2)
O2A O -0.6674(3) 0.1511(2) 1.1904(2)
O3A O -0.4262(2) -0.1051(2) 1.1013(2)
O4A O -0.2940(2) -0.2592(2) 1.2049(2)
O5A O -0.3124(2) -0.4408(2) 1.5734(2)
O6A O -0.2131(3) -0.4683(2) 1.7348(2)
O7A O -0.0250(2) -0.3055(2) 1.7882(2)
O8A O 0.1121(2) -0.4938(2) 1.7233(2)
O11A O 0.0021(3) -0.3544(3) 1.0594(2)
H7A H 0.088(2) -0.381(5) 1.016(5)
H8A H -0.022(5) -0.407(4) 1.125(3)
O12A O -0.2709(3) -0.3909(3) 0.9783(2)
H9A H -0.263(5) -0.414(4) 0.906(2)
H10A H -0.324(6) -0.424(6) 1.044(4)
O13A O -0.4094(3) -0.4914(3) 1.3618(3)
H11A H -0.375(12) -0.517(10) 1.287(4)
H12A H -0.5006(12) -0.470(9) 1.382(9)
Nd1_2 Nd -0.823809(15) 0.195374(13) 1.034859(13)
Nd1_3 Nd 0.176191(15) 0.195374(13) 0.034859(13)
Nd1A_2 Nd -0.176191(15) -0.195374(13) 1.965141(13)
Nd1A_3 Nd 0.823809(15) -0.195374(13) 0.965141(13)
Zn1_2 Zn 0.29277(4) -0.63215(3) 1.61537(3)
Zn1A_2 Zn -0.29277(4) 0.63215(3) 0.38463(3)
O1_2 O -0.2446(3) 0.0106(2) 0.8280(2)
O1A_2 O 0.2446(3) -0.0106(2) 1.1720(2)
O2_2 O -0.3326(3) -0.1511(2) 0.8096(2)
O2A_2 O 0.3326(3) 0.1511(2) 1.1904(2)
O7_2 O 0.0250(2) 0.3055(2) 1.2118(2)
O7A_2 O -0.0250(2) -0.3055(2) 0.7882(2)
O8_2 O -0.1121(2) -0.5062(2) 1.2767(2)
O8A_2 O 0.1121(2) 0.5062(2) 0.7233(2)
O14 O 0.6003(4) 0.2087(4) 0.0625(7)
H13 H 0.649(7) 0.142(5) 0.024(8)
H14 H 0.519(5) 0.197(8) 0.108(8)
O15 O 0.7232(4) 0.3513(5) 0.1584(5)
H15 H 0.687(7) 0.314(6) 0.118(7)
H16 H 0.796(6) 0.300(5) 0.176(8)
O16 O 0.5658(6) 0.3788(5) 0.8355(7)
H17 H 0.596(13) 0.325(7) 0.893(8)
H18 H 0.555(13) 0.455(3) 0.855(9)
loop_
_geom_bond_atom_site_label_1
_geom_bond_atom_site_label_2
_geom_bond_site_symmetry_1
_geom_bond_site_symmetry_2
Nd1 O3 1_555 1_555
Zn1 N1 1_555 1_555
N1 C1 1_555 1_555
N2 Zn1 1_555 1_555
C1 H1 1_555 1_555
C2 C1 1_555 1_555
H2 C2 1_555 1_555
C3 C2 1_555 1_555
H3 C3 1_555 1_555
C4 C3 1_555 1_555
C5 N1 1_555 1_555
C6 C4 1_555 1_555
C7 C5 1_555 1_555
C8 N2 1_555 1_555
C9 C8 1_555 1_555
C10 C9 1_555 1_555
H4 C10 1_555 1_555
C11 C10 1_555 1_555
H5 C11 1_555 1_555
C12 N2 1_555 1_555
H6 C12 1_555 1_555
C13 C8 1_555 1_555
C14 C9 1_555 1_555
C15 O9 1_555 1_555
O1 C6 1_555 1_555
O2 C6 1_555 1_555
O3 C7 1_555 1_555
O4 Nd1 1_555 1_555
O5 Zn1 1_555 1_555
O6 C13 1_555 1_555
O7 C14 1_555 1_555
O8 C14 1_555 1_555
O9 Nd1 1_555 1_555
O10 C15 1_555 1_555
O11 Nd1 1_555 1_555
H7 O11 1_555 1_555
H8 O11 1_555 1_555
O12 Nd1 1_555 1_555
H9 O12 1_555 1_555
H10 O12 1_555 1_555
O13 Zn1 1_555 1_555
H11 O13 1_555 1_555
H12 O13 1_555 1_555
O14 H13 1_555 1_555
H14 O14 1_555 1_555
O15 H15 1_555 1_555
H16 O15 1_555 1_555
O16 H17 1_555 1_555
H18 O16 1_555 1_555
C15A C15 1_555 1_555
O9A C15A 1_555 1_555
O10A Nd1 1_555 1_555
Nd1A O10 1_555 1_555
Zn1A N1A 1_555 1_555
N1A C1A 1_555 1_555
N2A Zn1A 1_555 1_555
C1A H1A 1_555 1_555
C2A C1A 1_555 1_555
H2A C2A 1_555 1_555
C3A C2A 1_555 1_555
H3A C3A 1_555 1_555
C4A C3A 1_555 1_555
C5A N1A 1_555 1_555
C6A C4A 1_555 1_555
C7A C5A 1_555 1_555
C8A N2A 1_555 1_555
C9A C8A 1_555 1_555
C10A C9A 1_555 1_555
H4A C10A 1_555 1_555
C11A C10A 1_555 1_555
H5A C11A 1_555 1_555
C12A N2A 1_555 1_555
H6A C12A 1_555 1_555
C13A C8A 1_555 1_555
C14A C9A 1_555 1_555
O1A C6A 1_555 1_555
O2A C6A 1_555 1_555
O3A Nd1A 1_555 1_555
O4A Nd1A 1_555 1_555
O5A Zn1A 1_555 1_555
O6A C13A 1_555 1_555
O7A C14A 1_555 1_555
O8A C14A 1_555 1_555
O11A Nd1A 1_555 1_555
H7A O11A 1_555 1_555
H8A O11A 1_555 1_555
O12A Nd1A 1_555 1_555
H9A O12A 1_555 1_555
H10A O12A 1_555 1_555
O13A Zn1A 1_555 1_555
H11A O13A 1_555 1_555
H12A O13A 1_555 1_555
Nd1_2 O1A 1_555 1_555
Nd1_3 O7 1_555 1_555
Nd1A_2 O7A 1_555 1_555
Nd1A_3 O1 1_555 1_555
Zn1_2 O8A 1_555 1_555
Zn1A_2 O8 1_555 1_555
O1_2 Nd1A 1_555 1_555
O1A_2 Nd1 1_555 1_555
O2_2 Nd1A 1_555 1_555
O2A_2 Nd1 1_555 1_555
O7_2 Nd1 1_555 1_555
O7A_2 Nd1A 1_555 1_555
O8_2 Zn1A 1_555 1_555
O8A_2 Zn1 1_555 1_555
Zn1 O4 1_555 1_555
C4 C5 1_555 1_555
C7 O4 1_555 1_555
C11 C12 1_555 1_555
C13 O5 1_555 1_555
O2 Nd1A_3 1_555 1_555
C15A O10A 1_555 1_555
O9A Nd1A 1_555 1_555
Zn1A O4A 1_555 1_555
C4A C5A 1_555 1_555
C7A O3A 1_555 1_555
C7A O4A 1_555 1_555
C11A C12A 1_555 1_555
C13A O5A 1_555 1_555
O2A Nd1_2 1_555 1_555

#END
