
#######################################################################
#
#                 Cambridge Crystallographic Data Centre
#                                CCDC 
#
#######################################################################
#
# If this CIF has been generated from an entry in the Cambridge 
# Structural Database, then it will include bibliographic, chemical, 
# crystal, experimental, refinement or atomic coordinate data resulting 
# from the CCDC's data processing and validation procedures.
#
#######################################################################

data_YUKWOS
_symmetry_cell_setting           triclinic
_symmetry_space_group_name_H-M   'P -1'
_symmetry_Int_Tables_number      2
_space_group_name_Hall           '-P 1'
loop_
_symmetry_equiv_pos_site_id
_symmetry_equiv_pos_as_xyz
1 x,y,z
2 -x,-y,-z
_cell_length_a                   10.0154(17)
_cell_length_b                   10.7448(18)
_cell_length_c                   10.9746(19)
_cell_angle_alpha                80.363(2)
_cell_angle_beta                 72.521(2)
_cell_angle_gamma                74.593(2)
_cell_volume                     1081.06
loop_
_atom_site_label
_atom_site_type_symbol
_atom_site_fract_x
_atom_site_fract_y
_atom_site_fract_z
Pr1 Pr -0.176874(13) 0.304291(11) 0.464644(11)
Zn1 Zn -0.29292(3) 0.13197(3) 0.88491(3)
N1 N -0.1316(2) 0.1975(2) 0.9247(2)
N2 N -0.4763(2) 0.2934(2) 0.9326(2)
C1 C -0.1097(3) 0.1475(2) 1.0397(2)
C2 C -0.2192(3) 0.0730(2) 1.1239(2)
C3 C 0.0075(3) 0.1615(2) 1.0746(2)
C4 C 0.1040(3) 0.2264(3) 0.9862(3)
H1 H 0.188(4) 0.226(4) 1.009(4)
C5 C 0.0795(4) 0.2780(3) 0.8691(3)
H2 H 0.144(5) 0.319(4) 0.804(4)
C6 C -0.0398(3) 0.2622(3) 0.8421(3)
H3 H -0.067(4) 0.299(3) 0.772(3)
C7 C -0.5579(3) 0.3232(3) 1.0495(3)
H4 H -0.523(4) 0.274(3) 1.117(3)
C8 C -0.6808(4) 0.4222(3) 1.0680(3)
H5 H -0.739(4) 0.440(4) 1.151(4)
C9 C -0.7213(3) 0.4908(3) 0.9615(3)
H6 H -0.799(4) 0.555(4) 0.965(3)
C10 C -0.6380(3) 0.4621(2) 0.8392(2)
C11 C -0.5138(3) 0.3631(2) 0.8296(2)
C12 C -0.6868(3) 0.5373(3) 0.7254(2)
C13 C -0.4075(3) 0.3302(2) 0.7034(2)
C14 C -0.0603(3) 0.5224(2) 0.5608(2)
C15 C 0.0328(3) 0.1139(2) 1.2047(2)
O1 O -0.3111(2) 0.0582(2) 1.07308(18)
O2 O -0.2109(2) 0.0307(2) 1.23409(18)
O3 O -0.0240(2) 0.19280(19) 1.28737(18)
O4 O 0.1136(2) 0.00593(18) 1.22165(17)
O5 O -0.29557(19) 0.24044(17) 0.70557(16)
O6 O -0.4276(2) 0.39471(19) 0.60300(17)
O7 O -0.6664(2) 0.65009(19) 0.6922(2)
O8 O -0.7558(2) 0.48975(19) 0.6747(2)
O9 O -0.1632(2) 0.4675(2) 0.59454(18)
O10 O -0.0455(2) 0.6088(2) 0.61478(19)
O11 O 0.0021(3) 0.1437(2) 0.5602(2)
H7 H 0.0883(19) 0.114(4) 0.520(4)
H8 H -0.021(5) 0.098(3) 0.630(2)
O12 O -0.2726(3) 0.1085(2) 0.4767(2)
H9 H -0.260(4) 0.082(4) 0.405(2)
H10 H -0.329(5) 0.075(5) 0.540(4)
O13 O -0.4106(3) 0.0101(3) 0.8621(2)
H11 H -0.4996(18) 0.035(6) 0.868(6)
H12 H -0.359(7) -0.040(6) 0.805(6)
C14A C 0.0603(3) 0.4776(2) 0.4392(2)
O9A O 0.1632(2) 0.5325(2) 0.40546(18)
O10A O 0.0455(2) 0.3912(2) 0.38522(19)
Pr1A Pr -0.823126(13) 0.695709(11) 0.535356(11)
Zn1A Zn -0.70708(3) 0.86803(3) 0.11509(3)
N1A N -0.8684(2) 0.8025(2) 0.0753(2)
N2A N -0.5237(2) 0.7066(2) 0.0674(2)
C1A C -0.8903(3) 0.8525(2) -0.0397(2)
C2A C -0.7808(3) 0.9270(2) -0.1239(2)
C3A C -1.0075(3) 0.8385(2) -0.0746(2)
C4A C -1.1040(3) 0.7736(3) 0.0138(3)
H1A H -1.188(4) 0.774(4) -0.009(4)
C5A C -1.0795(4) 0.7220(3) 0.1309(3)
H2A H -1.144(5) 0.681(4) 0.196(4)
C6A C -0.9602(3) 0.7378(3) 0.1579(3)
H3A H -0.933(4) 0.701(3) 0.228(3)
C7A C -0.4421(3) 0.6768(3) -0.0495(3)
H4A H -0.477(4) 0.726(3) -0.117(3)
C8A C -0.3192(4) 0.5778(3) -0.0680(3)
H5A H -0.261(4) 0.560(4) -0.151(4)
C9A C -0.2787(3) 0.5092(3) 0.0385(3)
H6A H -0.201(4) 0.445(4) 0.035(3)
C10A C -0.3620(3) 0.5379(2) 0.1608(2)
C11A C -0.4862(3) 0.6369(2) 0.1704(2)
C12A C -0.3132(3) 0.4627(3) 0.2746(2)
C13A C -0.5925(3) 0.6698(2) 0.2966(2)
C15A C -1.0328(3) 0.8861(2) -0.2047(2)
O1A O -0.6889(2) 0.9418(2) -0.07308(18)
O2A O -0.7891(2) 0.9693(2) -0.23409(18)
O3A O -0.9760(2) 0.80720(19) -0.28737(18)
O4A O -1.1136(2) 0.99407(18) -0.22165(17)
O5A O -0.70443(19) 0.75956(17) 0.29443(16)
O6A O -0.5724(2) 0.60529(19) 0.39700(17)
O7A O -0.3336(2) 0.34991(19) 0.3078(2)
O8A O -0.2442(2) 0.51025(19) 0.3253(2)
O11A O -1.0021(3) 0.8563(2) 0.4398(2)
H7A H -1.0883(19) 0.886(4) 0.480(4)
H8A H -0.979(5) 0.902(3) 0.370(2)
O12A O -0.7274(3) 0.8915(2) 0.5233(2)
H9A H -0.740(4) 0.918(4) 0.595(2)
H10A H -0.671(5) 0.925(5) 0.460(4)
O13A O -0.5894(3) 0.9899(3) 0.1379(2)
H11A H -0.5004(18) 0.965(6) 0.132(6)
H12A H -0.641(7) 1.040(6) 0.195(6)
Pr1_2 Pr -0.176874(13) 0.304291(11) 1.464644(11)
Pr1A_2 Pr -0.823126(13) 0.695709(11) -0.464644(11)
Pr1A_3 Pr 0.176874(13) 0.695709(11) 0.535356(11)
Zn1_2 Zn -1.29292(3) 1.13197(3) -0.11509(3)
Zn1A_2 Zn 0.29292(3) -0.13197(3) 1.11509(3)
O3_2 O -0.0240(2) 0.19280(19) 0.28737(18)
O3A_2 O -0.9760(2) 0.80720(19) 0.71263(18)
O4_2 O -0.8864(2) 1.00593(18) 0.22165(17)
O4A_2 O -0.1136(2) -0.00593(18) 0.77835(17)
O9A_2 O -0.8368(2) 0.5325(2) 0.40546(18)
O10_2 O -1.0455(2) 0.6088(2) 0.61478(19)
O14 O -0.2774(3) -0.1462(4) 0.6571(4)
H13 H -0.209(6) -0.213(4) 0.649(8)
O15 O -0.3994(3) 0.7086(3) 0.5642(6)
H14 H -0.486(3) 0.700(8) 0.596(7)
H15 H -0.345(6) 0.648(6) 0.600(7)
O16 O -0.4319(6) 0.8773(6) 0.3330(8)
H16 H -0.420(11) 0.865(12) 0.408(4)
H17 H -0.360(7) 0.904(10) 0.282(7)
loop_
_geom_bond_atom_site_label_1
_geom_bond_atom_site_label_2
_geom_bond_site_symmetry_1
_geom_bond_site_symmetry_2
Pr1 O5 1_555 1_555
Zn1 N1 1_555 1_555
N1 C1 1_555 1_555
N2 Zn1 1_555 1_555
C1 C2 1_555 1_555
C2 O1 1_555 1_555
C3 C1 1_555 1_555
C4 C3 1_555 1_555
H1 C4 1_555 1_555
C5 C4 1_555 1_555
H2 C5 1_555 1_555
C6 N1 1_555 1_555
H3 C6 1_555 1_555
C7 N2 1_555 1_555
H4 C7 1_555 1_555
C8 C7 1_555 1_555
H5 C8 1_555 1_555
C9 C8 1_555 1_555
H6 C9 1_555 1_555
C10 C9 1_555 1_555
C11 N2 1_555 1_555
C12 C10 1_555 1_555
C13 C11 1_555 1_555
C14 O9 1_555 1_555
C15 C3 1_555 1_555
O1 Zn1 1_555 1_555
O2 C2 1_555 1_555
O3 C15 1_555 1_555
O4 C15 1_555 1_555
O5 Zn1 1_555 1_555
O6 Pr1 1_555 1_555
O7 C12 1_555 1_555
O8 C12 1_555 1_555
O9 Pr1 1_555 1_555
O10 C14 1_555 1_555
O11 Pr1 1_555 1_555
H7 O11 1_555 1_555
H8 O11 1_555 1_555
O12 Pr1 1_555 1_555
H9 O12 1_555 1_555
H10 O12 1_555 1_555
O13 Zn1 1_555 1_555
H11 O13 1_555 1_555
H12 O13 1_555 1_555
O14 H13 1_555 1_555
O15 H14 1_555 1_555
H15 O15 1_555 1_555
O16 H16 1_555 1_555
H17 O16 1_555 1_555
C14A C14 1_555 1_555
O9A C14A 1_555 1_555
O10A Pr1 1_555 1_555
Pr1A O7 1_555 1_555
Zn1A N1A 1_555 1_555
N1A C1A 1_555 1_555
N2A Zn1A 1_555 1_555
C1A C2A 1_555 1_555
C2A O1A 1_555 1_555
C3A C1A 1_555 1_555
C4A C3A 1_555 1_555
H1A C4A 1_555 1_555
C5A C4A 1_555 1_555
H2A C5A 1_555 1_555
C6A N1A 1_555 1_555
H3A C6A 1_555 1_555
C7A N2A 1_555 1_555
H4A C7A 1_555 1_555
C8A C7A 1_555 1_555
H5A C8A 1_555 1_555
C9A C8A 1_555 1_555
H6A C9A 1_555 1_555
C10A C9A 1_555 1_555
C11A N2A 1_555 1_555
C12A C10A 1_555 1_555
C13A C11A 1_555 1_555
C15A C3A 1_555 1_555
O1A Zn1A 1_555 1_555
O2A C2A 1_555 1_555
O3A C15A 1_555 1_555
O4A C15A 1_555 1_555
O5A Pr1A 1_555 1_555
O6A Pr1A 1_555 1_555
O7A Pr1 1_555 1_555
O8A Pr1 1_555 1_555
O11A Pr1A 1_555 1_555
H7A O11A 1_555 1_555
H8A O11A 1_555 1_555
O12A Pr1A 1_555 1_555
H9A O12A 1_555 1_555
H10A O12A 1_555 1_555
O13A Zn1A 1_555 1_555
H11A O13A 1_555 1_555
H12A O13A 1_555 1_555
Pr1_2 O3 1_555 1_555
Pr1A_2 O3A 1_555 1_555
Pr1A_3 O10 1_555 1_555
Zn1_2 O4A 1_555 1_555
Zn1A_2 O4 1_555 1_555
O3_2 Pr1 1_555 1_555
O3A_2 Pr1A 1_555 1_555
O4_2 Zn1A 1_555 1_555
O4A_2 Zn1 1_555 1_555
O9A_2 Pr1A 1_555 1_555
O10_2 Pr1A 1_555 1_555
C5 C6 1_555 1_555
C10 C11 1_555 1_555
C13 O5 1_555 1_555
C13 O6 1_555 1_555
O8 Pr1A 1_555 1_555
C14A O10A 1_555 1_555
O9A Pr1A_3 1_555 1_555
Zn1A O5A 1_555 1_555
C5A C6A 1_555 1_555
C10A C11A 1_555 1_555
C12A O7A 1_555 1_555
C12A O8A 1_555 1_555
C13A O5A 1_555 1_555
C13A O6A 1_555 1_555

#END
