
#######################################################################
#
#                 Cambridge Crystallographic Data Centre
#                                CCDC 
#
#######################################################################
#
# If this CIF has been generated from an entry in the Cambridge 
# Structural Database, then it will include bibliographic, chemical, 
# crystal, experimental, refinement or atomic coordinate data resulting 
# from the CCDC's data processing and validation procedures.
#
#######################################################################

data_YUKXEJ
_symmetry_cell_setting           triclinic
_symmetry_space_group_name_H-M   'P -1'
_symmetry_Int_Tables_number      2
_space_group_name_Hall           '-P 1'
loop_
_symmetry_equiv_pos_site_id
_symmetry_equiv_pos_as_xyz
1 x,y,z
2 -x,-y,-z
_cell_length_a                   9.9555(10)
_cell_length_b                   10.5461(11)
_cell_length_c                   10.9407(11)
_cell_angle_alpha                80.7680(10)
_cell_angle_beta                 71.9810(10)
_cell_angle_gamma                74.5670(10)
_cell_volume                     1049.13
loop_
_atom_site_label
_atom_site_type_symbol
_atom_site_fract_x
_atom_site_fract_y
_atom_site_fract_z
Er1 Er 0.173382(12) 0.192787(11) 1.033689(11)
Zn1 Zn 0.29091(4) 0.36783(3) 0.61807(3)
N1 N 0.1300(3) 0.3033(2) 0.5751(2)
N2 N 0.4781(3) 0.2027(3) 0.5724(2)
C1 C 0.0326(4) 0.2422(3) 0.6598(3)
H1 H 0.047(5) 0.213(5) 0.741(5)
C2 C -0.0881(4) 0.2283(4) 0.6317(3)
H2 H -0.151(5) 0.188(4) 0.689(4)
C3 C -0.1085(4) 0.2773(3) 0.5120(3)
H3 H -0.193(5) 0.265(4) 0.491(4)
C4 C -0.0062(3) 0.3383(3) 0.4221(3)
C5 C 0.1122(3) 0.3513(3) 0.4577(3)
C6 C 0.2269(3) 0.4226(3) 0.3727(3)
C7 C -0.0266(3) 0.3825(3) 0.2890(3)
C8 C 0.5636(4) 0.1705(3) 0.4553(3)
H4 H 0.533(4) 0.218(4) 0.390(4)
C9 C 0.6894(4) 0.0710(3) 0.4386(3)
H5 H 0.748(5) 0.061(4) 0.354(5)
C10 C 0.7286(4) 0.0051(3) 0.5466(3)
H6 H 0.806(5) -0.055(5) 0.538(4)
C11 C 0.6409(3) 0.0367(3) 0.6694(3)
C12 C 0.5148(3) 0.1354(3) 0.6773(3)
C13 C 0.4018(3) 0.1688(3) 0.8032(3)
C14 C 0.6897(3) -0.0391(3) 0.7847(3)
C15 C -0.0593(3) 0.0202(3) 1.0627(3)
O1 O 0.2233(3) 0.4631(2) 0.2606(2)
O2 O 0.3173(2) 0.4385(2) 0.4257(2)
O3 O 0.0314(2) 0.2979(2) 0.2091(2)
O4 O -0.1049(2) 0.4933(2) 0.2687(2)
O5 O 0.2886(2) 0.2584(2) 0.79915(19)
O6 O 0.4184(2) 0.1056(2) 0.90581(19)
O7 O 0.6714(3) -0.1542(2) 0.8167(2)
O8 O 0.7568(2) 0.0104(2) 0.8374(2)
O9 O -0.0420(2) 0.1060(2) 1.1193(2)
O10 O -0.1620(2) -0.0370(2) 1.0970(2)
O11 O -0.0014(3) 0.3447(2) 0.9465(2)
H7 H -0.079(3) 0.380(4) 0.999(3)
H8 H 0.025(7) 0.400(5) 0.885(4)
O12 O 0.2598(3) 0.3866(2) 1.0189(2)
H9 H 0.247(5) 0.410(4) 1.0925(19)
H10 H 0.334(4) 0.411(6) 0.969(5)
O13 O 0.4033(3) 0.4975(3) 0.6390(3)
H11 H 0.4924(18) 0.470(5) 0.635(5)
H12 H 0.362(5) 0.544(4) 0.702(3)
C15A C 0.0593(3) -0.0202(3) 0.9373(3)
O9A O 0.0420(2) -0.1060(2) 0.8807(2)
O10A O 0.1620(2) 0.0370(2) 0.9030(2)
Er1A Er -0.173382(12) -0.192787(11) 0.966311(11)
Zn1A Zn -0.29091(4) -0.36783(3) 1.38193(3)
N1A N -0.1300(3) -0.3033(2) 1.4249(2)
N2A N -0.4781(3) -0.2027(3) 1.4276(2)
C1A C -0.0326(4) -0.2422(3) 1.3402(3)
H1A H -0.047(5) -0.213(5) 1.259(5)
C2A C 0.0881(4) -0.2283(4) 1.3683(3)
H2A H 0.151(5) -0.188(4) 1.311(4)
C3A C 0.1085(4) -0.2773(3) 1.4880(3)
H3A H 0.193(5) -0.265(4) 1.509(4)
C4A C 0.0062(3) -0.3383(3) 1.5779(3)
C5A C -0.1122(3) -0.3513(3) 1.5423(3)
C6A C -0.2269(3) -0.4226(3) 1.6273(3)
C7A C 0.0266(3) -0.3825(3) 1.7110(3)
C8A C -0.5636(4) -0.1705(3) 1.5447(3)
H4A H -0.533(4) -0.218(4) 1.610(4)
C9A C -0.6894(4) -0.0710(3) 1.5614(3)
H5A H -0.748(5) -0.061(4) 1.646(5)
C10A C -0.7286(4) -0.0051(3) 1.4534(3)
H6A H -0.806(5) 0.055(5) 1.462(4)
C11A C -0.6409(3) -0.0367(3) 1.3306(3)
C12A C -0.5148(3) -0.1354(3) 1.3227(3)
C13A C -0.4018(3) -0.1688(3) 1.1968(3)
C14A C -0.6897(3) 0.0391(3) 1.2153(3)
O1A O -0.2233(3) -0.4631(2) 1.7394(2)
O2A O -0.3173(2) -0.4385(2) 1.5743(2)
O3A O -0.0314(2) -0.2979(2) 1.7909(2)
O4A O 0.1049(2) -0.4933(2) 1.7313(2)
O5A O -0.2886(2) -0.2584(2) 1.20085(19)
O6A O -0.4184(2) -0.1056(2) 1.09419(19)
O7A O -0.6714(3) 0.1542(2) 1.1833(2)
O8A O -0.7568(2) -0.0104(2) 1.1626(2)
O11A O 0.0014(3) -0.3447(2) 1.0535(2)
H7A H 0.079(3) -0.380(4) 1.001(3)
H8A H -0.025(7) -0.400(5) 1.115(4)
O12A O -0.2598(3) -0.3866(2) 0.9811(2)
H9A H -0.247(5) -0.410(4) 0.9075(19)
H10A H -0.334(4) -0.411(6) 1.031(5)
O13A O -0.4033(3) -0.4975(3) 1.3610(3)
H11A H -0.4924(18) -0.470(5) 1.365(5)
H12A H -0.362(5) -0.544(4) 1.298(3)
Er1_2 Er -0.826618(12) 0.192787(11) 1.033689(11)
Er1_3 Er 0.173382(12) 0.192787(11) 0.033689(11)
Er1A_2 Er -0.173382(12) -0.192787(11) 1.966311(11)
Er1A_3 Er 0.826618(12) -0.192787(11) 0.966311(11)
Zn1_2 Zn 0.29091(4) -0.63217(3) 1.61807(3)
Zn1A_2 Zn -0.29091(4) 0.63217(3) 0.38193(3)
O3_2 O 0.0314(2) 0.2979(2) 1.2091(2)
O3A_2 O -0.0314(2) -0.2979(2) 0.7909(2)
O4_2 O -0.1049(2) -0.5067(2) 1.2687(2)
O4A_2 O 0.1049(2) 0.5067(2) 0.7313(2)
O7_2 O -0.3286(3) -0.1542(2) 0.8167(2)
O7A_2 O 0.3286(3) 0.1542(2) 1.1833(2)
O8_2 O -0.2432(2) 0.0104(2) 0.8374(2)
O8A_2 O 0.2432(2) -0.0104(2) 1.1626(2)
O14 O 0.4494(5) 0.6162(6) 0.1545(6)
H13 H 0.387(7) 0.571(8) 0.193(8)
H14 H 0.418(9) 0.670(8) 0.097(7)
O15 O 0.5981(4) 0.2096(3) 0.0560(6)
H15 H 0.638(7) 0.140(4) 0.016(6)
H16 H 0.517(4) 0.202(7) 0.109(6)
O16 O 0.7275(4) 0.3431(4) 0.1608(4)
H17 H 0.684(6) 0.305(5) 0.127(6)
H18 H 0.801(5) 0.288(5) 0.177(7)
loop_
_geom_bond_atom_site_label_1
_geom_bond_atom_site_label_2
_geom_bond_site_symmetry_1
_geom_bond_site_symmetry_2
Er1 O5 1_555 1_555
Zn1 N1 1_555 1_555
N1 C1 1_555 1_555
N2 Zn1 1_555 1_555
C1 H1 1_555 1_555
C2 C1 1_555 1_555
H2 C2 1_555 1_555
C3 C2 1_555 1_555
H3 C3 1_555 1_555
C4 C3 1_555 1_555
C5 N1 1_555 1_555
C6 C5 1_555 1_555
C7 C4 1_555 1_555
C8 N2 1_555 1_555
H4 C8 1_555 1_555
C9 C8 1_555 1_555
H5 C9 1_555 1_555
C10 C9 1_555 1_555
H6 C10 1_555 1_555
C11 C10 1_555 1_555
C12 N2 1_555 1_555
C13 C12 1_555 1_555
C14 C11 1_555 1_555
C15 O9 1_555 1_555
O1 C6 1_555 1_555
O2 Zn1 1_555 1_555
O3 C7 1_555 1_555
O4 C7 1_555 1_555
O5 Zn1 1_555 1_555
O6 Er1 1_555 1_555
O7 C14 1_555 1_555
O8 C14 1_555 1_555
O9 Er1 1_555 1_555
O10 C15 1_555 1_555
O11 Er1 1_555 1_555
H7 O11 1_555 1_555
H8 O11 1_555 1_555
O12 Er1 1_555 1_555
H9 O12 1_555 1_555
H10 O12 1_555 1_555
O13 Zn1 1_555 1_555
H11 O13 1_555 1_555
H12 O13 1_555 1_555
O14 H13 1_555 1_555
H14 O14 1_555 1_555
O15 H15 1_555 1_555
H16 O15 1_555 1_555
O16 H17 1_555 1_555
H18 O16 1_555 1_555
C15A C15 1_555 1_555
O9A C15A 1_555 1_555
O10A Er1 1_555 1_555
Er1A O10 1_555 1_555
Zn1A N1A 1_555 1_555
N1A C1A 1_555 1_555
N2A Zn1A 1_555 1_555
C1A H1A 1_555 1_555
C2A C1A 1_555 1_555
H2A C2A 1_555 1_555
C3A C2A 1_555 1_555
H3A C3A 1_555 1_555
C4A C3A 1_555 1_555
C5A N1A 1_555 1_555
C6A C5A 1_555 1_555
C7A C4A 1_555 1_555
C8A N2A 1_555 1_555
H4A C8A 1_555 1_555
C9A C8A 1_555 1_555
H5A C9A 1_555 1_555
C10A C9A 1_555 1_555
H6A C10A 1_555 1_555
C11A C10A 1_555 1_555
C12A N2A 1_555 1_555
C13A C12A 1_555 1_555
C14A C11A 1_555 1_555
O1A C6A 1_555 1_555
O2A Zn1A 1_555 1_555
O3A C7A 1_555 1_555
O4A C7A 1_555 1_555
O5A Er1A 1_555 1_555
O6A Er1A 1_555 1_555
O7A C14A 1_555 1_555
O8A C14A 1_555 1_555
O11A Er1A 1_555 1_555
H7A O11A 1_555 1_555
H8A O11A 1_555 1_555
O12A Er1A 1_555 1_555
H9A O12A 1_555 1_555
H10A O12A 1_555 1_555
O13A Zn1A 1_555 1_555
H11A O13A 1_555 1_555
H12A O13A 1_555 1_555
Er1_2 O7A 1_555 1_555
Er1_3 O3 1_555 1_555
Er1A_2 O3A 1_555 1_555
Er1A_3 O7 1_555 1_555
Zn1_2 O4A 1_555 1_555
Zn1A_2 O4 1_555 1_555
O3_2 Er1 1_555 1_555
O3A_2 Er1A 1_555 1_555
O4_2 Zn1A 1_555 1_555
O4A_2 Zn1 1_555 1_555
O7_2 Er1A 1_555 1_555
O7A_2 Er1 1_555 1_555
O8_2 Er1A 1_555 1_555
O8A_2 Er1 1_555 1_555
C4 C5 1_555 1_555
C6 O2 1_555 1_555
C11 C12 1_555 1_555
C13 O5 1_555 1_555
C13 O6 1_555 1_555
O8 Er1A_3 1_555 1_555
C15A O10A 1_555 1_555
O9A Er1A 1_555 1_555
Zn1A O5A 1_555 1_555
C4A C5A 1_555 1_555
C6A O2A 1_555 1_555
C11A C12A 1_555 1_555
C13A O5A 1_555 1_555
C13A O6A 1_555 1_555
O8A Er1_2 1_555 1_555

#END
