
#######################################################################
#
#                 Cambridge Crystallographic Data Centre
#                                CCDC 
#
#######################################################################
#
# If this CIF has been generated from an entry in the Cambridge 
# Structural Database, then it will include bibliographic, chemical, 
# crystal, experimental, refinement or atomic coordinate data resulting 
# from the CCDC's data processing and validation procedures.
#
#######################################################################

data_YUKXAF
_symmetry_cell_setting           triclinic
_symmetry_space_group_name_H-M   'P -1'
_symmetry_Int_Tables_number      2
_space_group_name_Hall           '-P 1'
loop_
_symmetry_equiv_pos_site_id
_symmetry_equiv_pos_as_xyz
1 x,y,z
2 -x,-y,-z
_cell_length_a                   10.013(2)
_cell_length_b                   10.607(2)
_cell_length_c                   10.993(2)
_cell_angle_alpha                80.746(3)
_cell_angle_beta                 72.107(2)
_cell_angle_gamma                74.537(3)
_cell_volume                     1066.88
loop_
_atom_site_label
_atom_site_type_symbol
_atom_site_fract_x
_atom_site_fract_y
_atom_site_fract_z
Ho1 Ho 0.826326(14) 0.306920(13) 0.466275(13)
Zn1 Zn 0.70883(4) 0.13228(4) 0.88229(4)
N1 N 0.8698(3) 0.1970(3) 0.9249(3)
N2 N 0.5217(3) 0.2970(3) 0.9282(3)
C1 C 0.7732(4) 0.0774(3) 1.1271(3)
C2 C 0.8882(4) 0.1487(3) 1.0420(3)
C3 C 1.0062(4) 0.1619(3) 1.0775(3)
C4 C 1.1083(4) 0.2228(4) 0.9877(4)
H1 H 1.192(6) 0.229(6) 1.008(5)
C5 C 1.0874(5) 0.2723(4) 0.8685(4)
H2 H 1.154(6) 0.314(5) 0.801(5)
C6 C 0.9662(4) 0.2585(4) 0.8404(4)
H3 H 0.954(5) 0.287(5) 0.763(5)
C7 C 1.0272(3) 0.1171(3) 1.2107(3)
C8 C 0.5972(4) 0.3310(3) 0.6971(3)
C9 C 0.4852(4) 0.3644(3) 0.8233(3)
C10 C 0.3594(4) 0.4632(3) 0.8313(3)
C11 C 0.2717(4) 0.4951(4) 0.9537(4)
H4 H 0.192(6) 0.571(5) 0.962(5)
C12 C 0.3115(4) 0.4285(4) 1.0622(4)
H5 H 0.253(5) 0.451(5) 1.150(5)
C13 C 0.4370(4) 0.3285(4) 1.0450(4)
H6 H 0.462(5) 0.285(4) 1.114(4)
C14 C 0.3114(4) 0.5383(3) 0.7157(3)
C15 C 1.0592(3) 0.4791(3) 0.4373(3)
O1 O 0.6832(3) 0.0617(3) 1.0745(3)
O2 O 0.7779(3) 0.0362(3) 1.2390(2)
O3 O 0.9696(3) 0.2009(3) 1.2911(2)
O4 O 1.1057(3) 0.0068(2) 1.2305(2)
O5 O 0.7110(3) 0.2414(2) 0.7011(2)
O6 O 0.5805(3) 0.3946(3) 0.5952(2)
O7 O 0.3290(3) 0.6539(2) 0.6840(3)
O8 O 0.2437(3) 0.4892(3) 0.6632(3)
O9 O 1.0426(3) 0.3934(3) 0.3811(2)
O10 O 1.1620(3) 0.5363(3) 0.4030(2)
O11 O 1.0019(3) 0.1537(3) 0.5544(3)
H7 H 1.078(4) 0.116(6) 0.501(5)
H8 H 0.976(7) 0.101(5) 0.619(4)
O12 O 0.7393(3) 0.1131(3) 0.4811(3)
H9 H 0.755(5) 0.089(4) 0.407(2)
H10 H 0.665(5) 0.094(7) 0.534(5)
O13 O 0.5971(3) 0.0024(4) 0.8610(3)
H11 H 0.524(6) 0.040(8) 0.834(8)
H12 H 0.510(4) -0.001(11) 0.899(9)
C15A C 0.9408(3) 0.5209(3) 0.5627(3)
O9A O 0.9574(3) 0.6066(3) 0.6189(2)
O10A O 0.8380(3) 0.4637(3) 0.5970(2)
Ho1A Ho 0.173674(14) 0.693080(13) 0.533725(13)
Zn1A Zn 0.29117(4) 0.86772(4) 0.11771(4)
N1A N 0.1302(3) 0.8030(3) 0.0751(3)
N2A N 0.4783(3) 0.7030(3) 0.0718(3)
C1A C 0.2268(4) 0.9226(3) -0.1271(3)
C2A C 0.1118(4) 0.8513(3) -0.0420(3)
C3A C -0.0062(4) 0.8381(3) -0.0775(3)
C4A C -0.1083(4) 0.7772(4) 0.0123(4)
H1A H -0.192(6) 0.771(6) -0.008(5)
C5A C -0.0874(5) 0.7277(4) 0.1315(4)
H2A H -0.154(6) 0.686(5) 0.199(5)
C6A C 0.0338(4) 0.7415(4) 0.1596(4)
H3A H 0.046(5) 0.713(5) 0.237(5)
C7A C -0.0272(3) 0.8829(3) -0.2107(3)
C8A C 0.4028(4) 0.6690(3) 0.3029(3)
C9A C 0.5148(4) 0.6356(3) 0.1767(3)
C10A C 0.6406(4) 0.5368(3) 0.1687(3)
C11A C 0.7283(4) 0.5049(4) 0.0463(4)
H4A H 0.808(6) 0.429(5) 0.038(5)
C12A C 0.6885(4) 0.5715(4) -0.0622(4)
H5A H 0.747(5) 0.549(5) -0.150(5)
C13A C 0.5630(4) 0.6715(4) -0.0450(4)
H6A H 0.538(5) 0.715(4) -0.114(4)
C14A C 0.6886(4) 0.4617(3) 0.2843(3)
O1A O 0.3168(3) 0.9383(3) -0.0745(3)
O2A O 0.2221(3) 0.9638(3) -0.2390(2)
O3A O 0.0304(3) 0.7991(3) -0.2911(2)
O4A O -0.1057(3) 0.9932(2) -0.2305(2)
O5A O 0.2890(3) 0.7586(2) 0.2989(2)
O6A O 0.4195(3) 0.6054(3) 0.4048(2)
O7A O 0.6710(3) 0.3461(2) 0.3160(3)
O8A O 0.7563(3) 0.5108(3) 0.3368(3)
O11A O -0.0019(3) 0.8463(3) 0.4456(3)
H7A H -0.078(4) 0.884(6) 0.499(5)
H8A H 0.024(7) 0.899(5) 0.381(4)
O12A O 0.2607(3) 0.8869(3) 0.5189(3)
H9A H 0.245(5) 0.911(4) 0.593(2)
H10A H 0.335(5) 0.906(7) 0.466(5)
O13A O 0.4029(3) 0.9976(4) 0.1390(3)
H11A H 0.476(6) 0.960(8) 0.166(8)
H12A H 0.490(4) 1.001(11) 0.101(9)
Ho1_2 Ho 0.826326(14) 0.306920(13) 1.466275(13)
Ho1A_2 Ho 0.173674(14) 0.693080(13) -0.466275(13)
Ho1A_3 Ho 1.173674(14) 0.693080(13) 0.533725(13)
Zn1_2 Zn -0.29117(4) 1.13228(4) -0.11771(4)
Zn1A_2 Zn 1.29117(4) -0.13228(4) 1.11771(4)
O3_2 O 0.9696(3) 0.2009(3) 0.2911(2)
O3A_2 O 0.0304(3) 0.7991(3) 0.7089(2)
O4_2 O 0.1057(3) 1.0068(2) 0.2305(2)
O4A_2 O 0.8943(3) -0.0068(2) 0.7695(2)
O9A_2 O -0.0426(3) 0.6066(3) 0.6189(2)
O10_2 O 0.1620(3) 0.5363(3) 0.4030(2)
O14 O 0.4468(6) 0.1163(7) 0.6555(8)
H13 H 0.381(8) 0.077(10) 0.699(9)
H14 H 0.416(11) 0.174(9) 0.601(9)
O15 O 0.4011(5) 0.2907(4) 0.4459(6)
H15 H 0.487(4) 0.299(9) 0.428(7)
H16 H 0.374(8) 0.312(10) 0.378(5)
O16 O 0.2736(4) 0.1569(5) 0.3403(5)
H17 H 0.217(8) 0.232(4) 0.337(7)
H18 H 0.308(8) 0.127(7) 0.267(3)
loop_
_geom_bond_atom_site_label_1
_geom_bond_atom_site_label_2
_geom_bond_site_symmetry_1
_geom_bond_site_symmetry_2
Ho1 O5 1_555 1_555
Zn1 N1 1_555 1_555
N1 C2 1_555 1_555
N2 Zn1 1_555 1_555
C1 C2 1_555 1_555
C2 C3 1_555 1_555
C3 C4 1_555 1_555
C4 H1 1_555 1_555
C5 C4 1_555 1_555
H2 C5 1_555 1_555
C6 N1 1_555 1_555
H3 C6 1_555 1_555
C7 C3 1_555 1_555
C8 C9 1_555 1_555
C9 N2 1_555 1_555
C10 C9 1_555 1_555
C11 C10 1_555 1_555
H4 C11 1_555 1_555
C12 C11 1_555 1_555
H5 C12 1_555 1_555
C13 N2 1_555 1_555
H6 C13 1_555 1_555
C14 C10 1_555 1_555
C15 O9 1_555 1_555
O1 Zn1 1_555 1_555
O2 C1 1_555 1_555
O3 C7 1_555 1_555
O4 C7 1_555 1_555
O5 Zn1 1_555 1_555
O6 Ho1 1_555 1_555
O7 C14 1_555 1_555
O8 C14 1_555 1_555
O9 Ho1 1_555 1_555
O10 C15 1_555 1_555
O11 Ho1 1_555 1_555
H7 O11 1_555 1_555
H8 O11 1_555 1_555
O12 Ho1 1_555 1_555
H9 O12 1_555 1_555
H10 O12 1_555 1_555
O13 Zn1 1_555 1_555
H11 O13 1_555 1_555
H12 O13 1_555 1_555
O14 H13 1_555 1_555
H14 O14 1_555 1_555
O15 H15 1_555 1_555
H16 O15 1_555 1_555
O16 H17 1_555 1_555
H18 O16 1_555 1_555
C15A C15 1_555 1_555
O9A C15A 1_555 1_555
O10A Ho1 1_555 1_555
Ho1A O7 1_555 1_555
Zn1A N1A 1_555 1_555
N1A C2A 1_555 1_555
N2A Zn1A 1_555 1_555
C1A C2A 1_555 1_555
C2A C3A 1_555 1_555
C3A C4A 1_555 1_555
C4A H1A 1_555 1_555
C5A C4A 1_555 1_555
H2A C5A 1_555 1_555
C6A N1A 1_555 1_555
H3A C6A 1_555 1_555
C7A C3A 1_555 1_555
C8A C9A 1_555 1_555
C9A N2A 1_555 1_555
C10A C9A 1_555 1_555
C11A C10A 1_555 1_555
H4A C11A 1_555 1_555
C12A C11A 1_555 1_555
H5A C12A 1_555 1_555
C13A N2A 1_555 1_555
H6A C13A 1_555 1_555
C14A C10A 1_555 1_555
O1A Zn1A 1_555 1_555
O2A C1A 1_555 1_555
O3A C7A 1_555 1_555
O4A C7A 1_555 1_555
O5A Ho1A 1_555 1_555
O6A Ho1A 1_555 1_555
O7A Ho1 1_555 1_555
O8A Ho1 1_555 1_555
O11A Ho1A 1_555 1_555
H7A O11A 1_555 1_555
H8A O11A 1_555 1_555
O12A Ho1A 1_555 1_555
H9A O12A 1_555 1_555
H10A O12A 1_555 1_555
O13A Zn1A 1_555 1_555
H11A O13A 1_555 1_555
H12A O13A 1_555 1_555
Ho1_2 O3 1_555 1_555
Ho1A_2 O3A 1_555 1_555
Ho1A_3 O10 1_555 1_555
Zn1_2 O4A 1_555 1_555
Zn1A_2 O4 1_555 1_555
O3_2 Ho1 1_555 1_555
O3A_2 Ho1A 1_555 1_555
O4_2 Zn1A 1_555 1_555
O4A_2 Zn1 1_555 1_555
O9A_2 Ho1A 1_555 1_555
O10_2 Ho1A 1_555 1_555
C1 O1 1_555 1_555
C5 C6 1_555 1_555
C8 O5 1_555 1_555
C8 O6 1_555 1_555
C12 C13 1_555 1_555
O8 Ho1A 1_555 1_555
C15A O10A 1_555 1_555
O9A Ho1A_3 1_555 1_555
Zn1A O5A 1_555 1_555
C1A O1A 1_555 1_555
C5A C6A 1_555 1_555
C8A O5A 1_555 1_555
C8A O6A 1_555 1_555
C12A C13A 1_555 1_555
C14A O7A 1_555 1_555
C14A O8A 1_555 1_555

#END
