
#######################################################################
#
#                 Cambridge Crystallographic Data Centre
#                                CCDC 
#
#######################################################################
#
# If this CIF has been generated from an entry in the Cambridge 
# Structural Database, then it will include bibliographic, chemical, 
# crystal, experimental, refinement or atomic coordinate data resulting 
# from the CCDC's data processing and validation procedures.
#
#######################################################################

data_YULCIR
_symmetry_cell_setting           orthorhombic
_symmetry_space_group_name_H-M   'P b c a'
_symmetry_Int_Tables_number      61
_space_group_name_Hall           '-P 2ac 2ab'
loop_
_symmetry_equiv_pos_site_id
_symmetry_equiv_pos_as_xyz
1 x,y,z
2 1/2-x,-y,1/2+z
3 1/2+x,1/2-y,-z
4 -x,1/2+y,1/2-z
5 -x,-y,-z
6 1/2+x,y,1/2-z
7 1/2-x,1/2+y,z
8 x,1/2-y,1/2+z
_cell_length_a                   7.954(3)
_cell_length_b                   33.301(9)
_cell_length_c                   11.208(3)
_cell_angle_alpha                90
_cell_angle_beta                 90
_cell_angle_gamma                90
_cell_volume                     2968.73
loop_
_atom_site_label
_atom_site_type_symbol
_atom_site_fract_x
_atom_site_fract_y
_atom_site_fract_z
K1 K 0.4400(2) -0.00912(5) 0.1810(2)
Sb1 Sb 0.02639(4) 0.128793(9) 0.07325(3)
S1 S 0.3184(2) 0.13469(5) -0.0239(2)
S2 S -0.1263(2) 0.14417(5) -0.1261(1)
S3 S 0.1883(2) 0.12560(4) 0.3087(1)
C1 C 0.3611(8) 0.0862(2) -0.0110(5)
N1 N 0.392(1) 0.0524(2) -0.0010(7)
C2 C -0.1509(9) 0.0968(2) -0.1641(5)
N2 N -0.166(1) 0.0634(2) -0.1893(6)
C3 C 0.2057(7) 0.0762(2) 0.3036(5)
N3 N 0.2206(8) 0.0416(2) 0.3008(6)
C4 C 0.0276(6) 0.1923(1) 0.1026(4)
C5 C -0.0435(6) 0.2079(2) 0.2062(4)
C6 C -0.0455(7) 0.2490(2) 0.2251(5)
C7 C 0.0263(7) 0.2749(2) 0.1416(5)
C8 C 0.0997(7) 0.2593(2) 0.0403(5)
C9 C 0.0989(7) 0.2182(1) 0.0210(5)
H1 H -0.089(6) 0.188(1) 0.268(5)
H2 H -0.078(7) 0.261(2) 0.293(5)
H3 H 0.024(6) 0.307(2) 0.165(5)
H4 H 0.167(7) 0.276(2) -0.021(5)
H5 H 0.150(7) 0.207(2) -0.050(5)
S3E S -0.3117(2) 0.12560(4) 0.1913(1)
Sb1E Sb 0.52639(4) 0.128793(9) 0.42675(3)
Sb1E_2 Sb -0.47361(4) 0.128793(9) 0.42675(3)
C3E C -0.2943(7) 0.0762(2) 0.1964(5)
S1E S 0.8184(2) 0.13469(5) 0.5239(2)
S2E S 0.3737(2) 0.14417(5) 0.6261(1)
S3E_2 S 0.6883(2) 0.12560(4) 0.1913(1)
C4E C 0.5276(6) 0.1923(1) 0.3974(4)
N3E N -0.2794(8) 0.0416(2) 0.1992(6)
C1E C 0.8611(8) 0.0862(2) 0.5110(5)
C2E C 0.3491(9) 0.0968(2) 0.6641(5)
C5E C 0.4565(6) 0.2079(2) 0.2938(4)
C9E C 0.5989(7) 0.2182(1) 0.4790(5)
N1E N 0.892(1) 0.0524(2) 0.5010(7)
N2E N 0.334(1) 0.0634(2) 0.6893(6)
C6E C 0.4545(7) 0.2490(2) 0.2749(5)
H1E H 0.411(6) 0.188(1) 0.232(5)
C8E C 0.5997(7) 0.2593(2) 0.4597(5)
H5E H 0.650(7) 0.207(2) 0.550(5)
C7E C 0.5263(7) 0.2749(2) 0.3584(5)
H2E H 0.422(7) 0.261(2) 0.207(5)
H4E H 0.667(7) 0.276(2) 0.521(5)
H3E H 0.524(6) 0.307(2) 0.335(5)
loop_
_geom_bond_atom_site_label_1
_geom_bond_atom_site_label_2
_geom_bond_site_symmetry_1
_geom_bond_site_symmetry_2
Sb1 S1 1_555 1_555
S1 C1 1_555 1_555
S2 Sb1 1_555 1_555
S3 Sb1 1_555 1_555
C1 N1 1_555 1_555
C2 S2 1_555 1_555
N2 C2 1_555 1_555
C3 S3 1_555 1_555
N3 C3 1_555 1_555
C4 Sb1 1_555 1_555
C5 C4 1_555 1_555
C6 C5 1_555 1_555
C7 C6 1_555 1_555
C8 C7 1_555 1_555
C9 C4 1_555 1_555
H1 C5 1_555 1_555
H2 C6 1_555 1_555
H3 C7 1_555 1_555
H4 C8 1_555 1_555
H5 C9 1_555 1_555
S3E Sb1 1_555 1_555
Sb1E S3 1_555 1_555
Sb1E_2 S3E 1_555 1_555
C3E S3E 1_555 1_555
S1E Sb1E 1_555 1_555
S2E Sb1E 1_555 1_555
S3E_2 Sb1E 1_555 1_555
C4E Sb1E 1_555 1_555
N3E C3E 1_555 1_555
C1E S1E 1_555 1_555
C2E S2E 1_555 1_555
C5E C4E 1_555 1_555
C9E C4E 1_555 1_555
N1E C1E 1_555 1_555
N2E C2E 1_555 1_555
C6E C5E 1_555 1_555
H1E C5E 1_555 1_555
C8E C9E 1_555 1_555
H5E C9E 1_555 1_555
C7E C6E 1_555 1_555
H2E C6E 1_555 1_555
H4E C8E 1_555 1_555
H3E C7E 1_555 1_555
C8 C9 1_555 1_555
C8E C7E 1_555 1_555

#END
