
#######################################################################
#
#                 Cambridge Crystallographic Data Centre
#                                CCDC 
#
#######################################################################
#
# If this CIF has been generated from an entry in the Cambridge 
# Structural Database, then it will include bibliographic, chemical, 
# crystal, experimental, refinement or atomic coordinate data resulting 
# from the CCDC's data processing and validation procedures.
#
#######################################################################

data_YULRUU
_symmetry_cell_setting           triclinic
_symmetry_space_group_name_H-M   'P -1'
_symmetry_Int_Tables_number      2
_space_group_name_Hall           '-P 1'
loop_
_symmetry_equiv_pos_site_id
_symmetry_equiv_pos_as_xyz
1 x,y,z
2 -x,-y,-z
_cell_length_a                   8.408
_cell_length_b                   10.566
_cell_length_c                   12.730
_cell_angle_alpha                105.47
_cell_angle_beta                 102.55
_cell_angle_gamma                90.93
_cell_volume                     1060.59
loop_
_atom_site_label
_atom_site_type_symbol
_atom_site_fract_x
_atom_site_fract_y
_atom_site_fract_z
Cd1 Cd 0.5000 0.5000 0.0000
S1 S 0.7238(3) 0.7556(2) 0.44196(17)
N1 N 0.1847(8) 0.7850(5) 0.1775(4)
N2 N 0.3323(8) 1.1959(6) 0.1473(5)
O1 O 0.7323(9) 0.5831(7) 0.1555(5)
N3 N 0.4163(8) 1.3590(6) 0.0923(4)
N4 N 0.3196(8) 0.6472(5) 0.0739(5)
C1 C 0.3301(10) 0.7491(7) 0.1609(6)
H1 H 0.4287 0.7919 0.2062
C2 C 0.3603(9) 1.2365(7) 0.0606(6)
H2 H 0.3418 1.1832 -0.0127
C3 C 0.0707(10) 0.6998(7) 0.0950(6)
H3 H -0.0423 0.6997 0.0842
C4 C 0.9181(10) 0.6230(7) 0.3389(6)
C5 C 0.3760(11) 1.3012(7) 0.2404(6)
H4 H 0.3702 1.3035 0.3130
C6 C 0.1497(11) 0.8917(7) 0.2682(6)
H5 H 0.2518 0.9384 0.3148
H6 H 0.0965 0.8541 0.3146
C7 C 0.1550(10) 0.6158(7) 0.0327(6)
H7 H 0.1083 0.5464 -0.0295
C8 C 0.0411(10) 0.9886(7) 0.2245(6)
C9 C -0.0148(11) 1.1587(7) 0.1336(6)
H8 H 0.0198 1.2171 0.0983
C10 C 0.2629(11) 1.0674(7) 0.1456(6)
H9 H 0.3347 1.0348 0.2015
H10 H 0.2584 1.0060 0.0729
C11 C -0.1176(11) 0.9902(8) 0.2387(7)
H11 H -0.1543 0.9317 0.2730
C12 C 0.7590(10) 0.6345(7) 0.2602(6)
C13 C 0.4288(11) 1.4006(8) 0.2061(6)
H12 H 0.4677 1.4845 0.2520
O2 O 0.6272(9) 0.7000(7) 0.5002(5)
C14 C -0.2221(12) 1.0773(8) 0.2027(7)
H13 H -0.3275 1.0785 0.2144
N5 N 0.6534(9) 0.7050(7) 0.3096(5)
O3 O 0.7505(9) 0.8991(7) 0.4794(5)
C15 C 0.0940(10) 1.0711(7) 0.1680(6)
C16 C -0.1711(11) 1.1616(8) 0.1499(7)
H14 H -0.2412 1.2202 0.1253
C17 C 0.9130(11) 0.6872(8) 0.4462(6)
C18 C 1.0543(12) 0.5629(9) 0.3188(7)
H15 H 1.0578 0.5170 0.2461
C19 C 1.0403(12) 0.6947(8) 0.5370(6)
H16 H 1.0328 0.7372 0.6096
C20 C 1.1867(13) 0.5696(10) 0.4054(8)
H17 H 1.2808 0.5300 0.3913
C21 C 1.1799(13) 0.6359(9) 0.5147(8)
H18 H 1.2700 0.6406 0.5732
S1A S 0.2762(3) 0.2444(2) -0.44196(17)
N1A N 0.8153(8) 0.2150(5) -0.1775(4)
N2A N 0.6677(8) -0.1959(6) -0.1473(5)
O1A O 0.2677(9) 0.4169(7) -0.1555(5)
N3A N 0.5837(8) -0.3590(6) -0.0923(4)
N4A N 0.6804(8) 0.3528(5) -0.0739(5)
C1A C 0.6699(10) 0.2509(7) -0.1609(6)
H1A H 0.5713 0.2081 -0.2062
C2A C 0.6397(9) -0.2365(7) -0.0606(6)
H2A H 0.6582 -0.1832 0.0127
C3A C 0.9293(10) 0.3002(7) -0.0950(6)
H3A H 1.0423 0.3003 -0.0842
C4A C 0.0819(10) 0.3770(7) -0.3389(6)
C5A C 0.6240(11) -0.3012(7) -0.2404(6)
H4A H 0.6298 -0.3035 -0.3130
C6A C 0.8503(11) 0.1083(7) -0.2682(6)
H5A H 0.7482 0.0616 -0.3148
H6A H 0.9035 0.1459 -0.3146
C7A C 0.8450(10) 0.3842(7) -0.0327(6)
H7A H 0.8917 0.4536 0.0295
C8A C 0.9589(10) 0.0114(7) -0.2245(6)
C9A C 1.0148(11) -0.1587(7) -0.1336(6)
H8A H 0.9802 -0.2171 -0.0983
C10A C 0.7371(11) -0.0674(7) -0.1456(6)
H9A H 0.6653 -0.0348 -0.2015
H10A H 0.7416 -0.0060 -0.0729
C11A C 1.1176(11) 0.0098(8) -0.2387(7)
H11A H 1.1543 0.0683 -0.2730
C12A C 0.2410(10) 0.3655(7) -0.2602(6)
C13A C 0.5712(11) -0.4006(8) -0.2061(6)
H12A H 0.5323 -0.4845 -0.2520
O2A O 0.3728(9) 0.3000(7) -0.5002(5)
C14A C 1.2221(12) -0.0773(8) -0.2027(7)
H13A H 1.3275 -0.0785 -0.2144
N5A N 0.3466(9) 0.2950(7) -0.3096(5)
O3A O 0.2495(9) 0.1009(7) -0.4794(5)
C15A C 0.9060(10) -0.0711(7) -0.1680(6)
C16A C 1.1711(11) -0.1616(8) -0.1499(7)
H14A H 1.2412 -0.2202 -0.1253
C17A C 0.0870(11) 0.3128(8) -0.4462(6)
C18A C -0.0543(12) 0.4371(9) -0.3188(7)
H15A H -0.0578 0.4830 -0.2461
C19A C -0.0403(12) 0.3053(8) -0.5370(6)
H16A H -0.0328 0.2628 -0.6096
C20A C -0.1867(13) 0.4304(10) -0.4054(8)
H17A H -0.2808 0.4700 -0.3913
C21A C -0.1799(13) 0.3641(9) -0.5147(8)
H18A H -0.2700 0.3594 -0.5732
Cd1_2 Cd 0.5000 -0.5000 0.0000
Cd1_3 Cd 0.5000 1.5000 0.0000
N3_2 N 0.4163(8) 0.3590(6) 0.0923(4)
N3A_2 N 0.5837(8) 0.6410(6) -0.0923(4)
O4 O 0.5338(9) 1.0557(8) 0.3731(5)
H19 H 0.5359 1.1260 0.4250
H20 H 0.6181 1.0153 0.3898
loop_
_geom_bond_atom_site_label_1
_geom_bond_atom_site_label_2
_geom_bond_site_symmetry_1
_geom_bond_site_symmetry_2
Cd1 O1 1_555 1_555
S1 O2 1_555 1_555
N1 C1 1_555 1_555
N2 C2 1_555 1_555
O1 C12 1_555 1_555
N3 C2 1_555 1_555
N4 Cd1 1_555 1_555
C1 N4 1_555 1_555
H1 C1 1_555 1_555
C2 H2 1_555 1_555
C3 N1 1_555 1_555
H3 C3 1_555 1_555
C4 C12 1_555 1_555
C5 N2 1_555 1_555
H4 C5 1_555 1_555
C6 N1 1_555 1_555
H5 C6 1_555 1_555
H6 C6 1_555 1_555
C7 N4 1_555 1_555
H7 C7 1_555 1_555
C8 C6 1_555 1_555
C9 H8 1_555 1_555
C10 N2 1_555 1_555
H9 C10 1_555 1_555
H10 C10 1_555 1_555
C11 C8 1_555 1_555
H11 C11 1_555 1_555
C12 N5 1_555 1_555
C13 N3 1_555 1_555
H12 C13 1_555 1_555
C14 C11 1_555 1_555
H13 C14 1_555 1_555
N5 S1 1_555 1_555
O3 S1 1_555 1_555
C15 C8 1_555 1_555
C16 C9 1_555 1_555
H14 C16 1_555 1_555
C17 S1 1_555 1_555
C18 C4 1_555 1_555
H15 C18 1_555 1_555
C19 C17 1_555 1_555
H16 C19 1_555 1_555
C20 C18 1_555 1_555
H17 C20 1_555 1_555
C21 C19 1_555 1_555
H18 C21 1_555 1_555
O4 H19 1_555 1_555
H20 O4 1_555 1_555
S1A O2A 1_555 1_555
N1A C1A 1_555 1_555
N2A C2A 1_555 1_555
O1A Cd1 1_555 1_555
N3A C2A 1_555 1_555
N4A Cd1 1_555 1_555
C1A N4A 1_555 1_555
H1A C1A 1_555 1_555
C2A H2A 1_555 1_555
C3A N1A 1_555 1_555
H3A C3A 1_555 1_555
C4A C12A 1_555 1_555
C5A N2A 1_555 1_555
H4A C5A 1_555 1_555
C6A N1A 1_555 1_555
H5A C6A 1_555 1_555
H6A C6A 1_555 1_555
C7A N4A 1_555 1_555
H7A C7A 1_555 1_555
C8A C6A 1_555 1_555
C9A H8A 1_555 1_555
C10A N2A 1_555 1_555
H9A C10A 1_555 1_555
H10A C10A 1_555 1_555
C11A C8A 1_555 1_555
H11A C11A 1_555 1_555
C12A O1A 1_555 1_555
C13A N3A 1_555 1_555
H12A C13A 1_555 1_555
C14A C11A 1_555 1_555
H13A C14A 1_555 1_555
N5A S1A 1_555 1_555
O3A S1A 1_555 1_555
C15A C8A 1_555 1_555
C16A C9A 1_555 1_555
H14A C16A 1_555 1_555
C17A S1A 1_555 1_555
C18A C4A 1_555 1_555
H15A C18A 1_555 1_555
C19A C17A 1_555 1_555
H16A C19A 1_555 1_555
C20A C18A 1_555 1_555
H17A C20A 1_555 1_555
C21A C19A 1_555 1_555
H18A C21A 1_555 1_555
Cd1_2 N3A 1_555 1_555
Cd1_3 N3 1_555 1_555
N3_2 Cd1 1_555 1_555
N3A_2 Cd1 1_555 1_555
C3 C7 1_555 1_555
C4 C17 1_555 1_555
C5 C13 1_555 1_555
C9 C15 1_555 1_555
C10 C15 1_555 1_555
C14 C16 1_555 1_555
C20 C21 1_555 1_555
C3A C7A 1_555 1_555
C4A C17A 1_555 1_555
C5A C13A 1_555 1_555
C9A C15A 1_555 1_555
C10A C15A 1_555 1_555
C12A N5A 1_555 1_555
C14A C16A 1_555 1_555
C20A C21A 1_555 1_555

#END
