
#######################################################################
#
#                 Cambridge Crystallographic Data Centre
#                                CCDC 
#
#######################################################################
#
# If this CIF has been generated from an entry in the Cambridge 
# Structural Database, then it will include bibliographic, chemical, 
# crystal, experimental, refinement or atomic coordinate data resulting 
# from the CCDC's data processing and validation procedures.
#
#######################################################################

data_YULROO
_symmetry_cell_setting           monoclinic
_symmetry_space_group_name_H-M   'P 21/c'
_symmetry_Int_Tables_number      14
_space_group_name_Hall           '-P 2ybc'
loop_
_symmetry_equiv_pos_site_id
_symmetry_equiv_pos_as_xyz
1 x,y,z
2 -x,1/2+y,1/2-z
3 -x,-y,-z
4 x,1/2-y,1/2+z
_cell_length_a                   18.618(5)
_cell_length_b                   7.995(5)
_cell_length_c                   19.274(5)
_cell_angle_alpha                90
_cell_angle_beta                 97.930(5)
_cell_angle_gamma                90
_cell_volume                     2841.52
loop_
_atom_site_label
_atom_site_type_symbol
_atom_site_fract_x
_atom_site_fract_y
_atom_site_fract_z
Zn1 Zn 0.29175(3) 0.13823(9) 0.28454(3)
S1 S 0.14619(8) 0.0692(2) 0.18218(9)
S2 S 0.42044(8) -0.0228(2) 0.39799(8)
O1 O 0.3693(2) -0.0317(6) 0.44749(17)
N1 N 0.2566(2) 0.4501(7) 0.4466(2)
N2 N 0.3034(2) 1.0044(7) 0.6309(2)
N3 N 0.3788(2) 0.0020(6) 0.3178(2)
O2 O 0.36490(17) -0.1402(5) 0.21389(18)
O3 O 0.2341(2) -0.2468(6) 0.3039(2)
C1 C 0.2106(3) 0.7169(8) 0.4935(3)
O4 O 0.4778(2) 0.0975(6) 0.41315(19)
N4 N 0.2077(2) -0.0029(6) 0.2437(2)
O5 O 0.1747(2) 0.0869(6) 0.11694(19)
C2 C 0.2177(3) 0.8425(8) 0.5452(3)
C3 C 0.3895(3) -0.1344(8) 0.2761(3)
O6 O 0.1127(2) 0.2139(6) 0.2063(2)
C4 C 0.4334(3) -0.2680(8) 0.3152(3)
C5 C 0.4552(3) -0.2248(8) 0.3843(3)
N5 N 0.3113(2) 1.2068(6) 0.7087(2)
N6 N 0.2619(2) 0.2678(6) 0.3640(2)
C6 C 0.2822(3) 0.4160(8) 0.3872(3)
H1 H 0.3108 0.4884 0.3650
C7 C 0.2860(3) 1.0566(8) 0.6923(3)
H2 H 0.2591 0.9938 0.7201
C8 C 0.2869(3) 0.8450(8) 0.5969(3)
H3 H 0.2832 0.7613 0.6327
H4 H 0.3271 0.8136 0.5725
C9 C 0.2204(3) 0.2023(8) 0.4114(3)
H5 H 0.1986 0.0974 0.4088
C10 C 0.1470(3) 0.7108(9) 0.4475(3)
H6 H 0.1412 0.6288 0.4130
C11 C 0.0894(3) -0.1062(9) 0.1789(3)
C12 C 0.1943(3) -0.1621(9) 0.2620(3)
C13 C 0.3428(3) 1.1289(9) 0.6063(3)
H7 H 0.3627 1.1288 0.5646
C14 C 0.4882(3) -0.5338(9) 0.3376(4)
H8 H 0.4991 -0.6404 0.3228
C15 C 0.1227(3) -0.2251(9) 0.2243(3)
C16 C 0.2733(3) 0.5991(8) 0.4899(3)
H9 H 0.3118 0.6603 0.4719
H10 H 0.2918 0.5635 0.5371
C17 C 0.4494(3) -0.4248(9) 0.2910(3)
H11 H 0.4345 -0.4559 0.2448
C18 C 0.4962(3) -0.3277(9) 0.4308(3)
H12 H 0.5131 -0.2941 0.4763
C19 C 0.0914(3) -0.3787(9) 0.2321(3)
H13 H 0.1143 -0.4592 0.2622
C20 C 0.2168(3) 0.3175(9) 0.4624(3)
H14 H 0.1918 0.3073 0.5008
C21 C 0.1627(3) 0.9519(8) 0.5489(3)
H15 H 0.1678 1.0343 0.5832
C22 C 0.3474(3) 1.2513(9) 0.6538(3)
H16 H 0.3715 1.3522 0.6503
C23 C 0.5109(3) -0.4856(9) 0.4059(4)
H17 H 0.5369 -0.5612 0.4363
C24 C 0.0227(3) -0.1359(11) 0.1402(3)
H18 H 0.0004 -0.0561 0.1094
C25 C 0.1000(3) 0.9434(9) 0.5031(4)
H19 H 0.0628 1.0190 0.5070
C26 C -0.0103(4) -0.2887(13) 0.1488(4)
H20 H -0.0560 -0.3106 0.1244
C27 C 0.0913(3) 0.8250(11) 0.4517(4)
H21 H 0.0489 0.8206 0.4200
C28 C 0.0240(4) -0.4090(11) 0.1931(4)
H22 H 0.0016 -0.5120 0.1970
Zn1C Zn 0.29175(3) 1.36177(9) 0.78454(3)
N5C N 0.3113(2) 0.2932(6) 0.2087(2)
loop_
_geom_bond_atom_site_label_1
_geom_bond_atom_site_label_2
_geom_bond_site_symmetry_1
_geom_bond_site_symmetry_2
Zn1 N3 1_555 1_555
S1 N4 1_555 1_555
S2 O1 1_555 1_555
N1 C6 1_555 1_555
N2 C7 1_555 1_555
N3 S2 1_555 1_555
O2 C3 1_555 1_555
O3 C12 1_555 1_555
C1 C2 1_555 1_555
O4 S2 1_555 1_555
N4 Zn1 1_555 1_555
O5 S1 1_555 1_555
C2 C8 1_555 1_555
C3 N3 1_555 1_555
O6 S1 1_555 1_555
C4 C3 1_555 1_555
C5 S2 1_555 1_555
N5 C7 1_555 1_555
N6 Zn1 1_555 1_555
C6 N6 1_555 1_555
H1 C6 1_555 1_555
C7 H2 1_555 1_555
C8 N2 1_555 1_555
H3 C8 1_555 1_555
H4 C8 1_555 1_555
C9 N6 1_555 1_555
H5 C9 1_555 1_555
C10 C1 1_555 1_555
H6 C10 1_555 1_555
C11 S1 1_555 1_555
C12 N4 1_555 1_555
C13 N2 1_555 1_555
H7 C13 1_555 1_555
C14 H8 1_555 1_555
C15 C11 1_555 1_555
C16 N1 1_555 1_555
H9 C16 1_555 1_555
H10 C16 1_555 1_555
C17 C4 1_555 1_555
H11 C17 1_555 1_555
C18 C5 1_555 1_555
H12 C18 1_555 1_555
C19 C15 1_555 1_555
H13 C19 1_555 1_555
C20 N1 1_555 1_555
H14 C20 1_555 1_555
C21 C2 1_555 1_555
H15 C21 1_555 1_555
C22 N5 1_555 1_555
H16 C22 1_555 1_555
C23 C14 1_555 1_555
H17 C23 1_555 1_555
C24 C11 1_555 1_555
H18 C24 1_555 1_555
C25 C21 1_555 1_555
H19 C25 1_555 1_555
C26 C24 1_555 1_555
H20 C26 1_555 1_555
C27 C10 1_555 1_555
H21 C27 1_555 1_555
C28 C19 1_555 1_555
H22 C28 1_555 1_555
Zn1C N5 1_555 1_555
N5C Zn1 1_555 1_555
C1 C16 1_555 1_555
C4 C5 1_555 1_555
C9 C20 1_555 1_555
C12 C15 1_555 1_555
C13 C22 1_555 1_555
C14 C17 1_555 1_555
C18 C23 1_555 1_555
C25 C27 1_555 1_555
C26 C28 1_555 1_555

#END
