
#######################################################################
#
#                 Cambridge Crystallographic Data Centre
#                                CCDC 
#
#######################################################################
#
# If this CIF has been generated from an entry in the Cambridge 
# Structural Database, then it will include bibliographic, chemical, 
# crystal, experimental, refinement or atomic coordinate data resulting 
# from the CCDC's data processing and validation procedures.
#
#######################################################################

data_YULSAB
_symmetry_cell_setting           monoclinic
_symmetry_space_group_name_H-M   'P 21/c'
_symmetry_Int_Tables_number      14
_space_group_name_Hall           '-P 2ybc'
loop_
_symmetry_equiv_pos_site_id
_symmetry_equiv_pos_as_xyz
1 x,y,z
2 -x,1/2+y,1/2-z
3 -x,-y,-z
4 x,1/2-y,1/2+z
_cell_length_a                   10.4564(2)
_cell_length_b                   9.7917(2)
_cell_length_c                   29.6744(5)
_cell_angle_alpha                90
_cell_angle_beta                 98.8820(10)
_cell_angle_gamma                90
_cell_volume                     3001.81
loop_
_atom_site_label
_atom_site_type_symbol
_atom_site_fract_x
_atom_site_fract_y
_atom_site_fract_z
Cd1 Cd 0.491182(12) 0.044607(13) 0.867605(4)
S1 S 0.68246(4) 0.18272(5) 0.967234(15)
S2 S 0.30874(5) -0.11258(5) 0.769376(15)
O1 O 0.62099(14) 0.07555(16) 0.98915(5)
O2 O 0.36734(17) 0.05418(17) 0.92678(5)
O3 O 0.81856(15) 0.1193(2) 0.86282(5)
O4 O 0.60864(19) 0.0392(2) 0.80578(6)
O5 O 0.38277(16) -0.23656(16) 0.76899(5)
O6 O 0.63689(16) 0.31781(16) 0.97459(5)
O7 O 0.34470(16) -0.00542(18) 0.74084(5)
N1 N -0.42535(15) 0.83506(16) 0.89081(5)
N2 N 0.30966(16) -0.05813(18) 0.82111(5)
N3 N -0.33997(15) 0.63025(15) 0.89063(5)
N4 N 0.41351(15) 0.26201(17) 0.85424(6)
O8 O 0.16207(17) -0.0214(3) 0.86929(6)
N5 N 0.34483(17) 0.46472(17) 0.87157(7)
N6 N 0.67605(15) 0.14867(16) 0.91340(5)
C1 C 0.79675(18) 0.1411(2) 0.90192(6)
C2 C 0.85204(18) 0.17636(18) 0.98171(6)
C3 C 0.90169(18) 0.15865(19) 0.94162(6)
C4 C -0.1296(2) 0.52558(18) 0.88158(7)
C5 C -0.42606(19) 0.7750(2) 0.93271(7)
C6 C 0.1409(2) -0.1465(2) 0.75718(7)
C7 C 0.1882(2) -0.0556(2) 0.83187(7)
C8 C -0.2751(2) 0.5091(2) 0.87528(8)
H1 H -0.3072 0.4929 0.8433
H2 H -0.2963 0.4300 0.8923
C9 C -0.37391(19) 0.6491(2) 0.93291(7)
C10 C 0.0871(2) -0.1023(2) 0.79416(7)
C11 C -0.3728(2) 0.7443(2) 0.86665(7)
C12 C 0.1397(2) 0.5544(2) 0.89144(9)
C13 C 0.9305(2) 0.1871(2) 1.02355(7)
C14 C 0.3830(2) 0.4760(2) 0.83013(9)
H3 H 0.3805 0.5543 0.8123
C15 C 0.3645(2) 0.3344(2) 0.88477(8)
H4 H 0.3459 0.2995 0.9122
C16 C -0.0519(2) 0.4952(2) 0.92252(8)
C17 C 0.4255(2) 0.3512(2) 0.81980(8)
H5 H 0.4581 0.3294 0.7932
C18 C 1.1135(2) 0.1678(2) 0.98368(9)
H6 H 1.2029 0.1665 0.9847
C19 C -0.0705(2) 0.5705(3) 0.84577(9)
C20 C 0.0623(2) 0.5854(3) 0.85062(10)
C21 C 1.0340(2) 0.1546(2) 0.94206(8)
C22 C 1.0625(2) 0.1827(2) 1.02380(9)
C23 C 0.0665(3) -0.2047(3) 0.71936(8)
C24 C 0.0809(2) 0.5095(2) 0.92720(9)
H7 H 0.1315 0.4884 0.9549
C25 C -0.0451(2) -0.1103(3) 0.79416(9)
C26 C 0.2854(2) 0.5708(2) 0.89666(11)
H8 H 0.3056 0.6600 0.8854
H9 H 0.3217 0.5660 0.9287
C27 C -0.1201(3) -0.1665(3) 0.75650(10)
H10 H -0.2092 -0.1726 0.7556
C28 C -0.0653(3) -0.2138(3) 0.72001(10)
H11 H 0.897(2) 0.194(2) 1.0489(8)
H12 H 1.118(3) 0.193(3) 1.0516(9)
H13 H 0.104(2) -0.234(2) 0.6964(8)
H14 H 1.067(2) 0.145(3) 0.9156(9)
H15 H -0.115(3) -0.249(3) 0.6951(10)
H16 H -0.082(3) -0.082(3) 0.8199(10)
H17 H -0.463(2) 0.822(3) 0.9563(8)
H18 H -0.359(2) 0.578(3) 0.9543(8)
H19 H -0.363(2) 0.754(2) 0.8382(8)
H20 H -0.087(3) 0.464(3) 0.9463(9)
H21 H -0.119(3) 0.592(3) 0.8190(10)
H22 H 0.097(3) 0.611(3) 0.8240(10)
H23 H 0.388(3) 0.014(3) 0.9508(12)
H24 H 0.299(3) 0.025(3) 0.9149(11)
H25 H 0.692(4) 0.074(4) 0.8175(13)
H26 H 0.581(3) 0.079(3) 0.7864(12)
Cd1_2 Cd -0.508818(12) 1.044607(13) 0.867605(4)
N1_2 N 0.57465(15) -0.16494(16) 0.89081(5)
loop_
_geom_bond_atom_site_label_1
_geom_bond_atom_site_label_2
_geom_bond_site_symmetry_1
_geom_bond_site_symmetry_2
Cd1 O2 1_555 1_555
S1 O1 1_555 1_555
S2 O5 1_555 1_555
O2 H23 1_555 1_555
O3 C1 1_555 1_555
O4 Cd1 1_555 1_555
O6 S1 1_555 1_555
O7 S2 1_555 1_555
N1 C5 1_555 1_555
N2 Cd1 1_555 1_555
N3 C8 1_555 1_555
N4 Cd1 1_555 1_555
O8 C7 1_555 1_555
N5 C14 1_555 1_555
N6 Cd1 1_555 1_555
C1 N6 1_555 1_555
C2 S1 1_555 1_555
C3 C1 1_555 1_555
C4 C8 1_555 1_555
C5 C9 1_555 1_555
C6 S2 1_555 1_555
C7 N2 1_555 1_555
C8 H1 1_555 1_555
H2 C8 1_555 1_555
C9 N3 1_555 1_555
C10 C6 1_555 1_555
C11 N1 1_555 1_555
C12 C20 1_555 1_555
C13 C2 1_555 1_555
C14 H3 1_555 1_555
C15 N4 1_555 1_555
H4 C15 1_555 1_555
C16 C4 1_555 1_555
C17 N4 1_555 1_555
H5 C17 1_555 1_555
C18 H6 1_555 1_555
C19 C4 1_555 1_555
C20 C19 1_555 1_555
C21 C3 1_555 1_555
C22 C13 1_555 1_555
C23 C6 1_555 1_555
C24 C12 1_555 1_555
H7 C24 1_555 1_555
C25 C10 1_555 1_555
C26 N5 1_555 1_555
H8 C26 1_555 1_555
H9 C26 1_555 1_555
C27 C25 1_555 1_555
H10 C27 1_555 1_555
C28 C23 1_555 1_555
H11 C13 1_555 1_555
H12 C22 1_555 1_555
H13 C23 1_555 1_555
H14 C21 1_555 1_555
H15 C28 1_555 1_555
H16 C25 1_555 1_555
H17 C5 1_555 1_555
H18 C9 1_555 1_555
H19 C11 1_555 1_555
H20 C16 1_555 1_555
H21 C19 1_555 1_555
H22 C20 1_555 1_555
H24 O2 1_555 1_555
H25 O4 1_555 1_555
H26 O4 1_555 1_555
Cd1_2 N1 1_555 1_555
N1_2 Cd1 1_555 1_555
S1 N6 1_555 1_555
S2 N2 1_555 1_555
N3 C11 1_555 1_555
N5 C15 1_555 1_555
C2 C3 1_555 1_555
C7 C10 1_555 1_555
C12 C26 1_555 1_555
C14 C17 1_555 1_555
C16 C24 1_555 1_555
C18 C21 1_555 1_555
C18 C22 1_555 1_555
C27 C28 1_555 1_555

#END
