
#######################################################################
#
#                 Cambridge Crystallographic Data Centre
#                                CCDC 
#
#######################################################################
#
# If this CIF has been generated from an entry in the Cambridge 
# Structural Database, then it will include bibliographic, chemical, 
# crystal, experimental, refinement or atomic coordinate data resulting 
# from the CCDC's data processing and validation procedures.
#
#######################################################################

data_YULWEJ
_symmetry_cell_setting           monoclinic
_symmetry_space_group_name_H-M   'P 21/c'
_symmetry_Int_Tables_number      14
_space_group_name_Hall           '-P 2ybc'
loop_
_symmetry_equiv_pos_site_id
_symmetry_equiv_pos_as_xyz
1 x,y,z
2 -x,1/2+y,1/2-z
3 -x,-y,-z
4 x,1/2-y,1/2+z
_cell_length_a                   10.225(5)
_cell_length_b                   13.530(6)
_cell_length_c                   15.503(8)
_cell_angle_alpha                90
_cell_angle_beta                 102.795(9)
_cell_angle_gamma                90
_cell_volume                     2091.49
loop_
_atom_site_label
_atom_site_type_symbol
_atom_site_fract_x
_atom_site_fract_y
_atom_site_fract_z
Co1 Co 0.73949(3) 0.69145(3) 0.96927(3)
O1 O 0.58853(18) 0.78674(16) 0.96258(15)
O2 O 0.49563(19) 0.64704(17) 0.99273(16)
O3 O -0.00582(19) 0.64020(17) 0.95733(16)
O4 O -0.11657(17) 0.78143(15) 0.94852(14)
N1 N 0.2326(2) 1.0481(2) 0.9628(2)
H1 H 0.1576 1.0789 0.9571
H2 H 0.3057 1.0809 0.9664
N2 N 0.6942(2) 0.58652(19) 0.87622(16)
N3 N 0.6243(2) 0.4492(2) 0.80622(19)
N4 N 0.8878(2) -0.0447(2) 0.70658(19)
N5 N 0.8000(2) -0.1381(2) 0.59285(17)
C1 C -0.0079(3) 0.7309(2) 0.9542(2)
C2 C 0.1194(2) 0.7884(2) 0.95839(19)
C3 C 0.1189(3) 0.8901(2) 0.9603(2)
H3 H 0.0383 0.9231 0.9576
C4 C 0.2357(3) 0.9448(2) 0.9660(2)
C5 C 0.3553(3) 0.8934(2) 0.9701(2)
H4 H 0.4346 0.9283 0.9733
C6 C 0.3577(3) 0.7907(2) 0.9695(2)
C7 C 0.2393(2) 0.7384(2) 0.9638(2)
H5 H 0.2405 0.6696 0.9636
C8 C 0.4879(3) 0.7362(2) 0.9764(2)
C9 C 0.6320(3) 0.5020(2) 0.8800(2)
H6 H 0.5977 0.4817 0.9278
C10 C 0.7294(3) 0.5876(3) 0.7955(2)
H7 H 0.7759 0.6381 0.7746
C11 C 0.6854(3) 0.5035(3) 0.7514(2)
H8 H 0.6947 0.4860 0.6950
C12 C 0.5673(3) 0.3503(3) 0.7889(3)
H9 H 0.4993 0.3518 0.7343
H10 H 0.5235 0.3325 0.8362
C13 C 0.6682(3) 0.2719(3) 0.7818(2)
C14 C 0.8050(3) 0.2810(3) 0.8176(3)
H11 H 0.8382 0.3384 0.8476
C15 C 0.8911(3) 0.2059(3) 0.8088(3)
H12 H 0.9822 0.2135 0.8329
C16 C 0.8466(3) 0.1198(3) 0.7657(2)
C17 C 0.7107(3) 0.1108(3) 0.7316(2)
H13 H 0.6775 0.0531 0.7020
C18 C 0.6235(3) 0.1853(3) 0.7403(2)
H14 H 0.5322 0.1767 0.7175
C19 C 0.9473(3) 0.0424(3) 0.7544(3)
H15 H 1.0101 0.0714 0.7230
H16 H 0.9976 0.0223 0.8124
C20 C 0.8710(3) -0.0578(2) 0.6191(2)
H17 H 0.9050 -0.0159 0.5819
C21 C 0.7702(3) -0.1776(3) 0.6675(2)
H18 H 0.7205 -0.2348 0.6693
C22 C 0.8239(3) -0.1209(3) 0.7384(2)
H19 H 0.8185 -0.1315 0.7968
Co1_2 Co -0.26051(3) 0.69145(3) 0.96927(3)
Co1C Co 0.73949(3) -0.19145(3) 0.46927(3)
O4_2 O 0.88343(17) 0.78143(15) 0.94852(14)
N5C N 0.8000(2) 0.6381(2) 1.09285(17)
loop_
_geom_bond_atom_site_label_1
_geom_bond_atom_site_label_2
_geom_bond_site_symmetry_1
_geom_bond_site_symmetry_2
Co1 O1 1_555 1_555
O1 C8 1_555 1_555
O2 C8 1_555 1_555
O3 C1 1_555 1_555
O4 C1 1_555 1_555
N1 H1 1_555 1_555
H2 N1 1_555 1_555
N2 Co1 1_555 1_555
N3 C9 1_555 1_555
N4 C19 1_555 1_555
N5 C20 1_555 1_555
C1 C2 1_555 1_555
C2 C3 1_555 1_555
C3 H3 1_555 1_555
C4 N1 1_555 1_555
C5 C4 1_555 1_555
H4 C5 1_555 1_555
C6 C5 1_555 1_555
C7 C2 1_555 1_555
H5 C7 1_555 1_555
C8 C6 1_555 1_555
C9 N2 1_555 1_555
H6 C9 1_555 1_555
C10 N2 1_555 1_555
H7 C10 1_555 1_555
C11 N3 1_555 1_555
H8 C11 1_555 1_555
C12 N3 1_555 1_555
H9 C12 1_555 1_555
H10 C12 1_555 1_555
C13 C12 1_555 1_555
C14 C13 1_555 1_555
H11 C14 1_555 1_555
C15 C14 1_555 1_555
H12 C15 1_555 1_555
C16 C15 1_555 1_555
C17 C16 1_555 1_555
H13 C17 1_555 1_555
C18 C13 1_555 1_555
H14 C18 1_555 1_555
C19 C16 1_555 1_555
H15 C19 1_555 1_555
H16 C19 1_555 1_555
C20 N4 1_555 1_555
H17 C20 1_555 1_555
C21 N5 1_555 1_555
H18 C21 1_555 1_555
C22 N4 1_555 1_555
H19 C22 1_555 1_555
Co1_2 O4 1_555 1_555
Co1C N5 1_555 1_555
O4_2 Co1 1_555 1_555
N5C Co1 1_555 1_555
C3 C4 1_555 1_555
C6 C7 1_555 1_555
C10 C11 1_555 1_555
C17 C18 1_555 1_555
C21 C22 1_555 1_555

#END
