
#######################################################################
#
#                 Cambridge Crystallographic Data Centre
#                                CCDC 
#
#######################################################################
#
# If this CIF has been generated from an entry in the Cambridge 
# Structural Database, then it will include bibliographic, chemical, 
# crystal, experimental, refinement or atomic coordinate data resulting 
# from the CCDC's data processing and validation procedures.
#
#######################################################################

data_YULWIN
_symmetry_cell_setting           triclinic
_symmetry_space_group_name_H-M   'P -1'
_symmetry_Int_Tables_number      2
_space_group_name_Hall           '-P 1'
loop_
_symmetry_equiv_pos_site_id
_symmetry_equiv_pos_as_xyz
1 x,y,z
2 -x,-y,-z
_cell_length_a                   6.630(4)
_cell_length_b                   10.167(5)
_cell_length_c                   12.475(7)
_cell_angle_alpha                109.11(3)
_cell_angle_beta                 103.70(2)
_cell_angle_gamma                100.43(3)
_cell_volume                     740.704
loop_
_atom_site_label
_atom_site_type_symbol
_atom_site_fract_x
_atom_site_fract_y
_atom_site_fract_z
Co1 Co 0.53487(5) 0.64204(3) 0.83564(3)
O1 O 0.8166(2) 0.54523(17) 0.82083(14)
O2 O 0.5247(2) 0.43704(17) 0.84727(14)
N1 N 0.3693(3) 0.5337(2) 0.65275(16)
O3 O 0.2549(3) 0.6973(2) 0.87250(17)
O4 O 0.6563(3) 0.83197(17) 0.82418(15)
N2 N 0.6713(3) 0.7426(2) 1.03182(15)
C1 C 0.7106(3) 0.4399(2) 0.83515(18)
C2 C 0.2753(4) 0.3933(3) 0.5974(2)
C3 C 0.3325(4) 0.5887(3) 0.5650(2)
C4 C 0.8983(3) 0.7696(2) 1.08830(18)
C5 C 0.7997(4) 0.3168(2) 0.84356(18)
N3 N 0.1795(3) 0.3556(2) 0.47924(17)
C6 C 0.2156(4) 0.4793(3) 0.4577(2)
C7 C 1.0411(4) 0.9001(2) 1.10929(18)
C8 C 0.9768(4) 0.6605(2) 1.11271(18)
C9 C 0.6580(3) 0.1851(2) 0.82202(18)
C10 C 0.0629(5) 0.2087(3) 0.3883(2)
C11 C 1.2639(3) 0.9232(2) 1.15363(18)
C12 C 0.0282(4) 0.0991(3) 0.4443(2)
C13 C 1.4181(4) 1.0587(2) 1.16422(19)
C14 C 0.1613(5) 0.0104(4) 0.4497(3)
C15 C -0.1359(5) 0.0850(4) 0.4946(3)
O5 O 1.6022(3) 1.0550(2) 1.15921(18)
C8A C 1.0232(4) 0.3395(2) 0.88729(18)
C5A C 1.2003(4) 0.6832(2) 1.15644(18)
C11A C 0.7361(3) 0.0768(2) 0.84637(18)
C4A C 1.1017(3) 0.2304(2) 0.91170(18)
C9A C 1.3420(3) 0.8149(2) 1.17798(18)
C1A C 1.2894(3) 0.5601(2) 1.16485(18)
C13A C 0.5819(4) -0.0587(2) 0.83578(19)
C7A C 0.9589(4) 0.0999(2) 0.89071(18)
N2A N 1.3287(3) 0.2574(2) 0.96818(15)
O4A O 1.3437(3) 1.16803(17) 1.17582(15)
O2A O 1.4753(2) 0.56296(17) 1.15273(14)
O1A O 1.1834(2) 0.45477(17) 1.17917(14)
O5A O 0.3978(3) -0.0550(2) 0.84079(18)
O4_2 O 0.6563(3) -0.16803(17) 0.82418(15)
Co1A Co 1.46513(5) 0.35796(3) 1.16436(3)
C15A C 0.1359(5) -0.0850(4) 0.5054(3)
C14A C -0.1613(5) -0.0104(4) 0.5503(3)
Co1A_2 Co 1.46513(5) 1.35796(3) 1.16436(3)
Co1_2 Co 0.53487(5) -0.35796(3) 0.83564(3)
N1A N 1.6307(3) 0.4663(2) 1.34725(16)
O4A_2 O 1.3437(3) 0.16803(17) 1.17582(15)
O3A O 1.7451(3) 0.3027(2) 1.12750(17)
C12A C -0.0282(4) -0.0991(3) 0.5557(2)
C10A C -0.0629(5) -0.2087(3) 0.6117(2)
N3A N -0.1795(3) -0.3556(2) 0.52076(17)
C2A C -0.2753(4) -0.3933(3) 0.4026(2)
C6A C -0.2156(4) -0.4793(3) 0.5423(2)
N1A_2 N -0.3693(3) -0.5337(2) 0.34725(16)
C3A C -0.3325(4) -0.5887(3) 0.4350(2)
Co1A_3 Co -0.53487(5) -0.64204(3) 0.16436(3)
loop_
_geom_bond_atom_site_label_1
_geom_bond_atom_site_label_2
_geom_bond_site_symmetry_1
_geom_bond_site_symmetry_2
Co1 O1 1_555 1_555
O1 C1 1_555 1_555
O2 Co1 1_555 1_555
N1 Co1 1_555 1_555
O3 Co1 1_555 1_555
O4 Co1 1_555 1_555
N2 Co1 1_555 1_555
C1 O2 1_555 1_555
C2 N1 1_555 1_555
C3 N1 1_555 1_555
C4 N2 1_555 1_555
C5 C1 1_555 1_555
N3 C2 1_555 1_555
C6 C3 1_555 1_555
C7 C4 1_555 1_555
C8 C4 1_555 1_555
C9 C5 1_555 1_555
C10 N3 1_555 1_555
C11 C7 1_555 1_555
C12 C10 1_555 1_555
C13 C11 1_555 1_555
C14 C12 1_555 1_555
C15 C12 1_555 1_555
O5 C13 1_555 1_555
C8A C5 1_555 1_555
C5A C8 1_555 1_555
C11A C9 1_555 1_555
C4A C8A 1_555 1_555
C9A C11 1_555 1_555
C1A C5A 1_555 1_555
C13A C11A 1_555 1_555
C7A C11A 1_555 1_555
N2A C4A 1_555 1_555
O4A C13 1_555 1_555
O2A C1A 1_555 1_555
O1A C1A 1_555 1_555
O5A C13A 1_555 1_555
O4_2 C13A 1_555 1_555
Co1A N2A 1_555 1_555
C15A C14 1_555 1_555
C14A C15 1_555 1_555
Co1A_2 O4A 1_555 1_555
Co1_2 O4_2 1_555 1_555
N1A Co1A 1_555 1_555
O4A_2 Co1A 1_555 1_555
O3A Co1A 1_555 1_555
C12A C15A 1_555 1_555
C10A C12A 1_555 1_555
N3A C10A 1_555 1_555
C2A N3A 1_555 1_555
C6A N3A 1_555 1_555
N1A_2 C2A 1_555 1_555
C3A C6A 1_555 1_555
Co1A_3 N1A_2 1_555 1_555
N3 C6 1_555 1_555
C5A C9A 1_555 1_555
C4A C7A 1_555 1_555
O2A Co1A 1_555 1_555
O1A Co1A 1_555 1_555
C14A C12A 1_555 1_555
N1A_2 C3A 1_555 1_555

#END
