
#######################################################################
#
#                 Cambridge Crystallographic Data Centre
#                                CCDC 
#
#######################################################################
#
# If this CIF has been generated from an entry in the Cambridge 
# Structural Database, then it will include bibliographic, chemical, 
# crystal, experimental, refinement or atomic coordinate data resulting 
# from the CCDC's data processing and validation procedures.
#
#######################################################################

data_YULXAG
_symmetry_cell_setting           monoclinic
_symmetry_space_group_name_H-M   'P 21/c'
_symmetry_Int_Tables_number      14
_space_group_name_Hall           '-P 2ybc'
loop_
_symmetry_equiv_pos_site_id
_symmetry_equiv_pos_as_xyz
1 x,y,z
2 -x,1/2+y,1/2-z
3 -x,-y,-z
4 x,1/2-y,1/2+z
_cell_length_a                   12.8113(10)
_cell_length_b                   7.8747(6)
_cell_length_c                   15.8919(17)
_cell_angle_alpha                90
_cell_angle_beta                 90.871(8)
_cell_angle_gamma                90
_cell_volume                     1603.07
loop_
_atom_site_label
_atom_site_type_symbol
_atom_site_fract_x
_atom_site_fract_y
_atom_site_fract_z
Co1 Co 0.334635(17) 0.01150(3) 0.719458(13)
O1 O 0.36623(10) 0.23753(14) 1.21288(7)
O2 O 0.34436(10) 0.34330(14) 1.08574(8)
O3 O 0.39211(11) -0.30718(16) 0.85132(8)
O4 O 0.33835(11) -0.03763(16) 0.84015(8)
N1 N 0.46194(11) -0.38313(16) 1.16851(8)
H1 H 0.5018 -0.3408 1.2107
H2 H 0.5010 -0.4572 1.1396
N2 N 0.18453(12) -0.0318(2) 0.68233(10)
N3 N 0.03236(12) -0.1515(2) 0.65781(11)
C1 C 0.36199(12) 0.2193(2) 1.13253(11)
C2 C 0.37803(12) 0.0458(2) 1.09606(10)
C3 C 0.41023(12) -0.0875(2) 1.14817(10)
H3 H 0.4184 -0.0704 1.2058
C4 C 0.43000(12) -0.24619(19) 1.11330(10)
C5 C 0.41617(13) -0.27172(19) 1.02765(10)
H4 H 0.4297 -0.3779 1.0046
C6 C 0.38211(12) -0.13931(19) 0.97570(10)
C7 C 0.36377(13) 0.01954(19) 1.01005(11)
H5 H 0.3419 0.1086 0.9756
C8 C 0.37088(12) -0.1667(2) 0.88207(10)
C9 C 0.16337(17) -0.3269(3) 0.73862(16)
H6 H 0.2346 -0.3133 0.7571
H7 H 0.1583 -0.4219 0.7009
H8 H 0.1201 -0.3466 0.7864
C10 C 0.12807(14) -0.1704(2) 0.69434(12)
C11 C 0.12203(15) 0.0787(3) 0.63592(13)
H9 H 0.1415 0.1868 0.6185
C12 C 0.02882(17) 0.0054(2) 0.61995(15)
H10 H -0.0268 0.0516 0.5894
C13 C -0.04499(15) -0.2853(3) 0.64459(14)
H11 H -0.1133 -0.2343 0.6361
H12 H -0.0477 -0.3561 0.6945
C14 C -0.01956(14) -0.3948(3) 0.56919(13)
C15 C -0.08739(17) -0.5251(3) 0.54822(16)
H13 H -0.1467 -0.5426 0.5801
C16 C 0.06791(16) -0.3701(3) 0.51984(15)
H14 H 0.1139 -0.2821 0.5327
N2B N -0.18453(12) -0.9682(2) 0.31767(10)
N3B N -0.03236(12) -0.8485(2) 0.34219(11)
C9B C -0.16337(17) -0.6731(3) 0.26138(16)
H6B H -0.2346 -0.6867 0.2429
H7B H -0.1583 -0.5781 0.2991
H8B H -0.1201 -0.6534 0.2136
C10B C -0.12807(14) -0.8296(2) 0.30566(12)
C11B C -0.12203(15) -1.0787(3) 0.36408(13)
H9B H -0.1415 -1.1868 0.3815
C12B C -0.02882(17) -1.0054(2) 0.38005(15)
H10B H 0.0268 -1.0516 0.4106
C13B C 0.04499(15) -0.7147(3) 0.35541(14)
H11B H 0.1133 -0.7657 0.3639
H12B H 0.0477 -0.6439 0.3055
C14B C 0.01956(14) -0.6052(3) 0.43081(13)
C15B C 0.08739(17) -0.4749(3) 0.45178(16)
H13B H 0.1467 -0.4574 0.4199
C16B C -0.06791(16) -0.6299(3) 0.48016(15)
H14B H -0.1139 -0.7179 0.4673
Co1B Co -0.334635(17) -1.01150(3) 0.280542(13)
O1B O -0.36623(10) -1.23753(14) -0.21288(7)
O2B O -0.34436(10) -1.34330(14) -0.08574(8)
O3B O -0.39211(11) -0.69282(16) 0.14868(8)
O4B O -0.33835(11) -0.96237(16) 0.15985(8)
N1B N -0.46194(11) -0.61687(16) -0.16851(8)
H1B H -0.5018 -0.6592 -0.2107
H2B H -0.5010 -0.5428 -0.1396
C1B C -0.36199(12) -1.2193(2) -0.13253(11)
C2B C -0.37803(12) -1.0458(2) -0.09606(10)
C3B C -0.41023(12) -0.9125(2) -0.14817(10)
H3B H -0.4184 -0.9296 -0.2058
C4B C -0.43000(12) -0.75381(19) -0.11330(10)
C5B C -0.41617(13) -0.72828(19) -0.02765(10)
H4B H -0.4297 -0.6221 -0.0046
C6B C -0.38211(12) -0.86069(19) 0.02430(10)
C7B C -0.36377(13) -1.01954(19) -0.01005(11)
H5B H -0.3419 -1.1086 0.0244
C8B C -0.37088(12) -0.8333(2) 0.11793(10)
Co1A Co -0.334635(17) -1.48850(3) -0.219458(13)
Co1A_2 Co -0.334635(17) -0.48850(3) -0.219458(13)
Co1C Co 0.334635(17) -0.51150(3) 1.219458(13)
Co1C_2 Co 0.334635(17) 0.48850(3) 1.219458(13)
O1A O -0.36623(10) -1.26247(14) 0.28712(7)
O1C O 0.36623(10) 0.26247(14) 0.71288(7)
O2A O -0.34436(10) -1.15670(14) 0.41426(8)
O2C O 0.34436(10) 0.15670(14) 0.58574(8)
N1A N -0.46194(11) -0.88313(16) 0.33149(8)
N1C N 0.46194(11) -0.11687(16) 0.66851(8)
O5 O 0.2339(2) 0.4608(4) 0.93122(17)
H15 H 0.269(3) 0.423(5) 0.9724(18)
H16 H 0.282(3) 0.494(5) 0.901(3)
loop_
_geom_bond_atom_site_label_1
_geom_bond_atom_site_label_2
_geom_bond_site_symmetry_1
_geom_bond_site_symmetry_2
Co1 O4 1_555 1_555
O1 C1 1_555 1_555
O2 C1 1_555 1_555
O3 C8 1_555 1_555
O4 C8 1_555 1_555
N1 H1 1_555 1_555
H2 N1 1_555 1_555
N2 Co1 1_555 1_555
N3 C10 1_555 1_555
C1 C2 1_555 1_555
C2 C3 1_555 1_555
C3 H3 1_555 1_555
C4 N1 1_555 1_555
C5 C4 1_555 1_555
H4 C5 1_555 1_555
C6 C5 1_555 1_555
C7 C2 1_555 1_555
H5 C7 1_555 1_555
C8 C6 1_555 1_555
C9 H6 1_555 1_555
H7 C9 1_555 1_555
H8 C9 1_555 1_555
C10 N2 1_555 1_555
C11 N2 1_555 1_555
H9 C11 1_555 1_555
C12 N3 1_555 1_555
H10 C12 1_555 1_555
C13 N3 1_555 1_555
H11 C13 1_555 1_555
H12 C13 1_555 1_555
C14 C13 1_555 1_555
C15 C14 1_555 1_555
H13 C15 1_555 1_555
C16 C14 1_555 1_555
H14 C16 1_555 1_555
O5 H15 1_555 1_555
H16 O5 1_555 1_555
N2B C10B 1_555 1_555
N3B C10B 1_555 1_555
C9B H6B 1_555 1_555
H7B C9B 1_555 1_555
H8B C9B 1_555 1_555
C10B C9B 1_555 1_555
C11B N2B 1_555 1_555
H9B C11B 1_555 1_555
C12B N3B 1_555 1_555
H10B C12B 1_555 1_555
C13B N3B 1_555 1_555
H11B C13B 1_555 1_555
H12B C13B 1_555 1_555
C14B C13B 1_555 1_555
C15B C16 1_555 1_555
H13B C15B 1_555 1_555
C16B C15 1_555 1_555
H14B C16B 1_555 1_555
Co1B N2B 1_555 1_555
O1B C1B 1_555 1_555
O2B C1B 1_555 1_555
O3B C8B 1_555 1_555
O4B Co1B 1_555 1_555
N1B H1B 1_555 1_555
H2B N1B 1_555 1_555
C1B C2B 1_555 1_555
C2B C3B 1_555 1_555
C3B H3B 1_555 1_555
C4B N1B 1_555 1_555
C5B C4B 1_555 1_555
H4B C5B 1_555 1_555
C6B C5B 1_555 1_555
C7B C2B 1_555 1_555
H5B C7B 1_555 1_555
C8B O4B 1_555 1_555
Co1A O1B 1_555 1_555
Co1A_2 N1B 1_555 1_555
Co1C N1 1_555 1_555
Co1C_2 O1 1_555 1_555
O1A Co1B 1_555 1_555
O1C Co1 1_555 1_555
O2A Co1B 1_555 1_555
O2C Co1 1_555 1_555
N1A Co1B 1_555 1_555
N1C Co1 1_555 1_555
O2 Co1C_2 1_555 1_555
C3 C4 1_555 1_555
C6 C7 1_555 1_555
C9 C10 1_555 1_555
C11 C12 1_555 1_555
C11B C12B 1_555 1_555
C14B C15B 1_555 1_555
C14B C16B 1_555 1_555
O2B Co1A 1_555 1_555
C3B C4B 1_555 1_555
C6B C7B 1_555 1_555
C6B C8B 1_555 1_555

#END
