
#######################################################################
#
#                 Cambridge Crystallographic Data Centre
#                                CCDC 
#
#######################################################################
#
# If this CIF has been generated from an entry in the Cambridge 
# Structural Database, then it will include bibliographic, chemical, 
# crystal, experimental, refinement or atomic coordinate data resulting 
# from the CCDC's data processing and validation procedures.
#
#######################################################################

data_YUMCEO
_symmetry_cell_setting           monoclinic
_symmetry_space_group_name_H-M   'P 21/a'
_symmetry_Int_Tables_number      14
_space_group_name_Hall           '-P 2yab'
loop_
_symmetry_equiv_pos_site_id
_symmetry_equiv_pos_as_xyz
1 x,y,z
2 1/2-x,1/2+y,-z
3 -x,-y,-z
4 1/2+x,1/2-y,z
_cell_length_a                   12.116(5)
_cell_length_b                   6.823(6)
_cell_length_c                   14.304(3)
_cell_angle_alpha                90
_cell_angle_beta                 98.90(5)
_cell_angle_gamma                90
_cell_volume                     1168.24
loop_
_atom_site_label
_atom_site_type_symbol
_atom_site_fract_x
_atom_site_fract_y
_atom_site_fract_z
Hg1 Hg 0.2018(1) 0.0676(1) 0.2486(1)
I1 I 0.2279(2) 0.2636(2) 0.4120(1)
I2 I 0.1651(2) 0.2057(3) 0.0719(1)
N1 N 0.0478(12) -0.1506(20) 0.2522(12)
N2 N -0.1349(12) -0.3554(23) 0.2578(12)
C1 C -0.0609(14) -0.4415(22) 0.1927(14)
C2 C -0.1624(16) -0.1608(24) 0.2157(16)
C3 C 0.0417(15) -0.2296(25) 0.3522(15)
C4 C -0.0726(15) -0.3320(27) 0.3525(16)
C5 C -0.0560(14) -0.0332(21) 0.2241(17)
C6 C 0.0371(15) -0.3092(29) 0.1840(18)
N2C N 0.3651(12) -0.1446(23) 0.2578(12)
Hg1C Hg -0.2982(1) -0.5676(1) 0.2486(1)
loop_
_geom_bond_atom_site_label_1
_geom_bond_atom_site_label_2
_geom_bond_site_symmetry_1
_geom_bond_site_symmetry_2
Hg1 I1 1_555 1_555
I2 Hg1 1_555 1_555
N1 Hg1 1_555 1_555
N2 C1 1_555 1_555
C1 C6 1_555 1_555
C2 N2 1_555 1_555
C3 N1 1_555 1_555
C4 N2 1_555 1_555
C5 N1 1_555 1_555
C6 N1 1_555 1_555
N2C Hg1 1_555 1_555
Hg1C N2 1_555 1_555
C2 C5 1_555 1_555
C3 C4 1_555 1_555

#END
