
#######################################################################
#
#                 Cambridge Crystallographic Data Centre
#                                CCDC 
#
#######################################################################
#
# If this CIF has been generated from an entry in the Cambridge 
# Structural Database, then it will include bibliographic, chemical, 
# crystal, experimental, refinement or atomic coordinate data resulting 
# from the CCDC's data processing and validation procedures.
#
#######################################################################

data_YUMFUI
_symmetry_cell_setting           monoclinic
_symmetry_space_group_name_H-M   'P 21/n'
_symmetry_Int_Tables_number      14
_space_group_name_Hall           '-P 2yn'
loop_
_symmetry_equiv_pos_site_id
_symmetry_equiv_pos_as_xyz
1 x,y,z
2 1/2-x,1/2+y,1/2-z
3 -x,-y,-z
4 1/2+x,1/2-y,1/2+z
_cell_length_a                   12.3329(9)
_cell_length_b                   11.6418(10)
_cell_length_c                   25.852(2)
_cell_angle_alpha                90
_cell_angle_beta                 95.465(2)
_cell_angle_gamma                90
_cell_volume                     3694.89
loop_
_atom_site_label
_atom_site_type_symbol
_atom_site_fract_x
_atom_site_fract_y
_atom_site_fract_z
C1 C -0.01439(18) -0.1094(2) 0.80523(9)
C2 C -0.0581(2) -0.1979(2) 0.83375(10)
C3 C -0.1650(2) -0.2280(2) 0.82598(10)
C4 C -0.23636(18) -0.1704(2) 0.78960(10)
C5 C -0.4060(2) -0.1622(3) 0.73933(12)
C6 C -0.19772(19) -0.0798(2) 0.76270(10)
C7 C -0.08722(18) -0.0486(2) 0.76974(9)
C8 C -0.05135(19) 0.0401(2) 0.73612(10)
C9 C 0.0755(2) 0.1584(2) 0.69592(10)
C10 C 0.16891(19) 0.2310(2) 0.71999(11)
C11 C 0.34832(19) 0.1763(2) 0.75593(10)
C12 C 0.42840(18) 0.1147(2) 0.78980(9)
C13 C 0.5368(2) 0.1514(2) 0.79138(10)
C14 C 0.61709(18) 0.1044(2) 0.82546(10)
C15 C 0.7999(2) 0.1153(3) 0.86423(13)
C16 C 0.5902(2) 0.0181(2) 0.85890(11)
C17 C 0.48344(19) -0.0204(2) 0.85735(10)
C18 C 0.40009(18) 0.0261(2) 0.82339(10)
Mn1 Mn 0.17183(3) 0.02715(3) 0.784100(15)
O1 O 0.09313(11) -0.09146(13) 0.81192(6)
O2 O 0.29841(11) -0.01206(13) 0.82557(6)
N1 N 0.04624(14) 0.07631(16) 0.73600(7)
N2 N 0.24499(15) 0.15524(16) 0.75134(8)
O3 O -0.34095(12) -0.21147(14) 0.78253(7)
O4 O 0.72061(12) 0.14779(14) 0.82326(7)
N3 N 0.11507(15) 0.16170(18) 0.84218(8)
C19 C 0.13383(19) 0.2481(2) 0.86295(10)
N4 N 0.21678(15) -0.07360(16) 0.70936(8)
C20 C 0.25306(18) -0.0875(2) 0.67057(10)
N5 N -0.02663(17) 0.51408(19) 0.84480(8)
C21 C 0.0509(2) 0.4650(2) 0.86075(10)
Fe1 Fe 0.17957(3) 0.39266(3) 0.893176(14)
N6 N 0.10723(15) 0.37404(17) 0.95728(8)
N7 N 0.15792(15) 0.40392(17) 1.00456(8)
C22 C 0.0904(2) 0.3816(3) 1.04120(11)
C23 C -0.0037(2) 0.3375(2) 1.01845(11)
C24 C 0.0092(2) 0.3333(2) 0.96622(11)
N8 N 0.30912(15) 0.32217(17) 0.93067(8)
N9 N 0.34117(15) 0.35198(17) 0.98117(8)
C25 C 0.3686(2) 0.2294(2) 0.92083(12)
C26 C 0.4386(2) 0.1998(2) 0.96357(11)
C27 C 0.4179(2) 0.2779(2) 1.00105(11)
N10 N 0.22947(15) 0.54344(18) 0.91894(8)
N11 N 0.27413(15) 0.55405(18) 0.96904(8)
C28 C 0.2327(2) 0.6476(2) 0.89759(11)
C29 C 0.2799(2) 0.7257(3) 0.93311(12)
C30 C 0.3044(2) 0.6643(3) 0.97732(12)
B1 B 0.2761(2) 0.4488(3) 1.00554(12)
N12 N 0.32530(16) 0.48404(18) 1.05816(8)
C31 C 0.2734(2) 0.5463(3) 1.09222(12)
C32 C 0.3463(2) 0.5944(2) 1.12620(11)
C33 C 0.4484(2) 0.5638(3) 1.11232(12)
N13 N 0.43586(18) 0.4952(2) 1.06969(10)
H1 H -0.0424(16) 0.3099(18) 0.9382(9)
H2 H 0.3728(15) 0.2463(18) 0.7364(8)
H3 H -0.1081(14) 0.0753(16) 0.7115(8)
H4 H 0.6427(14) -0.0143(16) 0.8842(8)
H5 H -0.1959(15) -0.2889(18) 0.8432(8)
H6 H 0.0963(15) 0.1117(17) 0.6669(8)
H7 H 0.0122(15) 0.2002(18) 0.6836(8)
H8 H 0.1449(14) 0.2932(17) 0.7437(8)
H9 H 0.1086(15) 0.3982(18) 1.0717(8)
H10 H -0.2432(16) -0.0380(19) 0.7385(8)
H11 H 0.3294(17) 0.643(2) 1.1547(9)
H12 H -0.0066(15) -0.2371(17) 0.8557(8)
H13 H 0.5562(16) 0.2096(18) 0.7699(8)
H14 H 0.3624(15) 0.1952(17) 0.8896(8)
H15 H -0.4270(17) -0.077(2) 0.7458(9)
H16 H 0.8617(16) 0.1591(18) 0.8575(8)
H17 H -0.3633(16) -0.1649(19) 0.7096(9)
H18 H -0.4671(17) -0.2068(19) 0.7320(9)
H19 H 0.4501(16) 0.2918(18) 1.0348(9)
H20 H 0.7793(16) 0.1372(19) 0.8972(9)
H21 H 0.8174(16) 0.032(2) 0.8650(8)
H22 H 0.4633(16) -0.0767(18) 0.8791(8)
H23 H 0.2045(16) 0.6542(18) 0.8628(9)
H24 H 0.2072(15) 0.2726(17) 0.6950(8)
H25 H 0.3358(16) 0.6805(19) 1.0083(9)
H26 H -0.0675(17) 0.3123(19) 1.0326(9)
H27 H 0.5152(18) 0.578(2) 1.1286(10)
H28 H 0.4911(16) 0.1394(19) 0.9637(9)
H29 H 0.2858(18) 0.803(2) 0.9298(10)
H30 H 0.2242(15) 0.547(2) 1.0898(10)
C20A C 0.24694(18) 0.4125(2) 0.82943(10)
Fe1A Fe 0.32043(3) -0.10734(3) 0.606824(14)
C34 C 0.0891(5) -0.0154(5) 0.94215(19)
C35 C 0.1764(5) -0.0056(4) 0.98402(17)
N14 N 0.2453(4) -0.0039(5) 1.01489(16)
H31 H 0.119(3) -0.012(3) 0.9080(16)
H32 H 0.047(2) 0.045(3) 0.9433(13)
H33 H 0.047(4) -0.080(4) 0.953(2)
loop_
_geom_bond_atom_site_label_1
_geom_bond_atom_site_label_2
_geom_bond_site_symmetry_1
_geom_bond_site_symmetry_2
C1 C2 1_555 1_555
C2 C3 1_555 1_555
C3 C4 1_555 1_555
C4 C6 1_555 1_555
C5 O3 1_555 1_555
C6 C7 1_555 1_555
C7 C1 1_555 1_555
C8 C7 1_555 1_555
C9 C10 1_555 1_555
C10 N2 1_555 1_555
C11 C12 1_555 1_555
C12 C13 1_555 1_555
C13 C14 1_555 1_555
C14 C16 1_555 1_555
C15 O4 1_555 1_555
C16 C17 1_555 1_555
C17 C18 1_555 1_555
C18 C12 1_555 1_555
Mn1 O1 1_555 1_555
O1 C1 1_555 1_555
O2 C18 1_555 1_555
N1 C8 1_555 1_555
N2 C11 1_555 1_555
O3 C4 1_555 1_555
O4 C14 1_555 1_555
N3 Mn1 1_555 1_555
C19 N3 1_555 1_555
N4 Mn1 1_555 1_555
C20 N4 1_555 1_555
N5 C21 1_555 1_555
C21 Fe1 1_555 1_555
Fe1 C19 1_555 1_555
N6 Fe1 1_555 1_555
N7 N6 1_555 1_555
C22 N7 1_555 1_555
C23 C22 1_555 1_555
C24 N6 1_555 1_555
N8 Fe1 1_555 1_555
N9 N8 1_555 1_555
C25 N8 1_555 1_555
C26 C25 1_555 1_555
C27 N9 1_555 1_555
N10 Fe1 1_555 1_555
N11 N10 1_555 1_555
C28 N10 1_555 1_555
C29 C28 1_555 1_555
C30 N11 1_555 1_555
B1 N7 1_555 1_555
N12 B1 1_555 1_555
C31 N12 1_555 1_555
C32 C31 1_555 1_555
C33 C32 1_555 1_555
N13 N12 1_555 1_555
C34 C35 1_555 1_555
C35 N14 1_555 1_555
H1 C24 1_555 1_555
H2 C11 1_555 1_555
H3 C8 1_555 1_555
H4 C16 1_555 1_555
H5 C3 1_555 1_555
H6 C9 1_555 1_555
H7 C9 1_555 1_555
H8 C10 1_555 1_555
H9 C22 1_555 1_555
H10 C6 1_555 1_555
H11 C32 1_555 1_555
H12 C2 1_555 1_555
H13 C13 1_555 1_555
H14 C25 1_555 1_555
H15 C5 1_555 1_555
H16 C15 1_555 1_555
H17 C5 1_555 1_555
H18 C5 1_555 1_555
H19 C27 1_555 1_555
H20 C15 1_555 1_555
H21 C15 1_555 1_555
H22 C17 1_555 1_555
H23 C28 1_555 1_555
H24 C10 1_555 1_555
H25 C30 1_555 1_555
H26 C23 1_555 1_555
H27 C33 1_555 1_555
H28 C26 1_555 1_555
H29 C29 1_555 1_555
H30 C31 1_555 1_555
H31 C34 1_555 1_555
H32 C34 1_555 1_555
H33 C34 1_555 1_555
C20A Fe1 1_555 1_555
Fe1A C20 1_555 1_555
C9 N1 1_555 1_555
Mn1 O2 1_555 1_555
Mn1 N1 1_555 1_555
Mn1 N2 1_555 1_555
C23 C24 1_555 1_555
N9 B1 1_555 1_555
C26 C27 1_555 1_555
N11 B1 1_555 1_555
C29 C30 1_555 1_555
C33 N13 1_555 1_555

#END
