
#######################################################################
#
#                 Cambridge Crystallographic Data Centre
#                                CCDC 
#
#######################################################################
#
# If this CIF has been generated from an entry in the Cambridge 
# Structural Database, then it will include bibliographic, chemical, 
# crystal, experimental, refinement or atomic coordinate data resulting 
# from the CCDC's data processing and validation procedures.
#
#######################################################################

data_YUMFAO
_symmetry_cell_setting           triclinic
_symmetry_space_group_name_H-M   'P -1'
_symmetry_Int_Tables_number      2
_space_group_name_Hall           '-P 1'
loop_
_symmetry_equiv_pos_site_id
_symmetry_equiv_pos_as_xyz
1 x,y,z
2 -x,-y,-z
_cell_length_a                   8.2376(4)
_cell_length_b                   8.4859(4)
_cell_length_c                   11.1261(5)
_cell_angle_alpha                68.2020(10)
_cell_angle_beta                 77.5610(10)
_cell_angle_gamma                69.1230(10)
_cell_volume                     671.632
loop_
_atom_site_label
_atom_site_type_symbol
_atom_site_fract_x
_atom_site_fract_y
_atom_site_fract_z
Cd1 Cd 0.50180(3) 0.14291(3) 0.823595(18)
I1 I 0.59408(3) -0.12523(3) 0.70616(2)
S1 S 1.12105(10) 0.07056(11) 0.64979(8)
C1 C 0.8348(4) -0.1088(4) 0.9783(3)
C2 C 0.9164(4) -0.0155(4) 0.8491(3)
C3 C 1.0861(4) -0.0677(4) 0.8025(3)
H1 H 1.1716 -0.1656 0.8477
C4 C 0.9037(4) 0.1932(4) 0.6560(3)
C5 C 0.8275(4) 0.3494(4) 0.5468(3)
C6 C 0.8819(4) 0.3553(4) 0.4173(3)
H2 H 0.9743 0.2636 0.3977
C7 C 0.7969(4) 0.4982(4) 0.3196(3)
H3 H 0.8316 0.4991 0.2341
C8 C 0.6197(4) 0.6343(4) 0.4651(3)
H4 H 0.5324 0.7317 0.4815
C9 C 0.6953(4) 0.4944(4) 0.5691(3)
H5 H 0.6579 0.4974 0.6535
N1 N 0.8121(3) 0.1342(3) 0.7659(2)
N2 N 0.6659(3) 0.6366(3) 0.3418(2)
O1 O 0.6737(2) -0.0379(3) 1.00070(18)
O2 O 0.9247(3) -0.2440(3) 1.0524(2)
O3 O 0.4789(3) 0.3830(3) 0.8840(3)
H6 H 0.409(5) 0.410(5) 0.938(4)
H7 H 0.563(5) 0.382(5) 0.902(4)
Cd1A Cd 0.49820(3) 0.85709(3) 0.176405(18)
Cd1A_2 Cd 0.49820(3) -0.14291(3) 1.176405(18)
N2A N 0.3341(3) 0.3634(3) 0.6582(2)
O1A O 0.3263(2) 0.0379(3) 0.99930(18)
O4 O 0.7495(3) 0.4594(4) 0.9416(3)
H8 H 0.748(5) 0.545(5) 0.884(4)
H9 H 0.841(5) 0.405(5) 0.943(4)
loop_
_geom_bond_atom_site_label_1
_geom_bond_atom_site_label_2
_geom_bond_site_symmetry_1
_geom_bond_site_symmetry_2
Cd1 I1 1_555 1_555
S1 C3 1_555 1_555
C1 C2 1_555 1_555
C2 C3 1_555 1_555
C3 H1 1_555 1_555
C4 S1 1_555 1_555
C5 C4 1_555 1_555
C6 C5 1_555 1_555
H2 C6 1_555 1_555
C7 C6 1_555 1_555
H3 C7 1_555 1_555
C8 H4 1_555 1_555
C9 C5 1_555 1_555
H5 C9 1_555 1_555
N1 Cd1 1_555 1_555
N2 C7 1_555 1_555
O1 Cd1 1_555 1_555
O2 C1 1_555 1_555
O3 Cd1 1_555 1_555
H6 O3 1_555 1_555
H7 O3 1_555 1_555
O4 H8 1_555 1_555
H9 O4 1_555 1_555
Cd1A N2 1_555 1_555
Cd1A_2 O1 1_555 1_555
N2A Cd1 1_555 1_555
O1A Cd1 1_555 1_555
C1 O1 1_555 1_555
C2 N1 1_555 1_555
C4 N1 1_555 1_555
C8 C9 1_555 1_555
C8 N2 1_555 1_555
Cd1A_2 O1A 1_555 1_555

#END
