
#######################################################################
#
#                 Cambridge Crystallographic Data Centre
#                                CCDC 
#
#######################################################################
#
# If this CIF has been generated from an entry in the Cambridge 
# Structural Database, then it will include bibliographic, chemical, 
# crystal, experimental, refinement or atomic coordinate data resulting 
# from the CCDC's data processing and validation procedures.
#
#######################################################################

data_YUMFIW
_symmetry_cell_setting           triclinic
_symmetry_space_group_name_H-M   'P -1'
_symmetry_Int_Tables_number      2
_space_group_name_Hall           '-P 1'
loop_
_symmetry_equiv_pos_site_id
_symmetry_equiv_pos_as_xyz
1 x,y,z
2 -x,-y,-z
_cell_length_a                   8.6591(5)
_cell_length_b                   9.0044(5)
_cell_length_c                   10.6495(6)
_cell_angle_alpha                67.1160(10)
_cell_angle_beta                 82.6880(10)
_cell_angle_gamma                83.9880(10)
_cell_volume                     757.38
loop_
_atom_site_label
_atom_site_type_symbol
_atom_site_fract_x
_atom_site_fract_y
_atom_site_fract_z
Co1 Co 0.49673(5) 0.47245(5) 0.35607(4)
Co2 Co 0.0000 1.0000 0.0000
V1 V 0.10586(7) 0.68444(7) 0.30834(6)
V2 V 0.09154(7) 0.64168(7) 0.62986(6)
S1 S 0.28806(11) 0.00287(10) 0.37130(9)
C1 C 0.3711(4) 0.2234(4) 0.6132(3)
C2 C 0.3483(4) 0.1643(4) 0.5046(3)
C3 C 0.2932(4) 0.0211(4) 0.5239(3)
H1 H 0.2618 -0.0584 0.6106
C4 C 0.3608(4) 0.1901(4) 0.2885(3)
C5 C 0.3849(4) 0.2640(4) 0.1380(3)
C6 C 0.3125(4) 0.4141(4) 0.0671(3)
H2 H 0.2436 0.4686 0.1143
C7 C 0.3436(4) 0.4820(4) -0.0739(3)
H3 H 0.2937 0.5841 -0.1224
C8 C 0.5080(4) 0.2638(4) -0.0754(3)
H4 H 0.5769 0.2118 -0.1247
C9 C 0.4805(4) 0.1864(4) 0.0646(3)
H5 H 0.5265 0.0814 0.1102
N1 N 0.3880(3) 0.2608(3) 0.3701(3)
N2 N 0.4406(3) 0.4110(3) -0.1455(3)
O1 O 0.4361(3) 0.3578(3) 0.5701(2)
O2 O 0.3291(3) 0.1409(3) 0.7351(2)
O3 O 0.2796(3) 0.5893(3) 0.3322(2)
O4 O 0.1200(3) 0.8524(3) 0.1694(2)
O5 O 0.0329(3) 0.7253(3) 0.4582(2)
O6 O -0.0253(3) 0.5614(3) 0.2806(2)
O7 O 0.7159(3) 0.3621(3) 0.3748(2)
O8 O 0.0161(3) 0.7533(3) 0.7132(2)
O9 O 0.1326(3) 0.8940(3) -0.1267(3)
H6 H 0.190(4) 0.957(4) -0.180(3)
H7 H 0.084(4) 0.860(5) -0.166(4)
O10 O 0.1499(3) 1.1863(3) -0.0528(3)
H8 H 0.107(4) 1.270(3) -0.093(4)
H9 H 0.218(3) 1.173(5) -0.105(3)
Co1A Co -0.49673(5) 1.52755(5) -0.35607(4)
Co1A_2 Co 0.50327(5) 0.52755(5) -0.35607(4)
Co1A_3 Co 0.50327(5) 0.52755(5) 0.64393(4)
Co1_2 Co 0.49673(5) 0.47245(5) -0.64393(4)
V1A V -0.10586(7) 1.31556(7) -0.30834(6)
V2A V -0.09154(7) 1.35832(7) -0.62986(6)
V2A_2 V -0.09154(7) 0.35832(7) 0.37014(6)
V2A_3 V 0.90846(7) 0.35832(7) 0.37014(6)
V2_2 V 0.09154(7) 1.64168(7) -0.37014(6)
S1A S 0.71194(11) 0.99713(10) -0.37130(9)
C1A C 0.6289(4) 0.7766(4) -0.6132(3)
C2A C 0.6517(4) 0.8357(4) -0.5046(3)
C3A C 0.7068(4) 0.9789(4) -0.5239(3)
H1A H 0.7382 1.0584 -0.6106
C4A C 0.6392(4) 0.8099(4) -0.2885(3)
C5A C 0.6151(4) 0.7360(4) -0.1380(3)
C6A C 0.6875(4) 0.5859(4) -0.0671(3)
H2A H 0.7564 0.5314 -0.1143
C7A C 0.6564(4) 0.5180(4) 0.0739(3)
H3A H 0.7063 0.4159 0.1224
C8A C 0.4920(4) 0.7362(4) 0.0754(3)
H4A H 0.4231 0.7882 0.1247
C9A C 0.5195(4) 0.8136(4) -0.0646(3)
H5A H 0.4735 0.9186 -0.1102
N1A N 0.6120(3) 0.7392(3) -0.3701(3)
N1A_2 N -0.3880(3) 1.7392(3) -0.3701(3)
N2A N 0.5594(3) 0.5890(3) 0.1455(3)
N2_2 N -0.5594(3) 1.4110(3) -0.1455(3)
O1A O 0.5639(3) 0.6422(3) -0.5701(2)
O1A_2 O 0.5639(3) 0.6422(3) 0.4299(2)
O1A_3 O -0.4361(3) 1.6422(3) -0.5701(2)
O1_2 O -0.5639(3) 1.3578(3) -0.4299(2)
O2A O 0.6709(3) 0.8591(3) -0.7351(2)
O3A O -0.2796(3) 1.4107(3) -0.3322(2)
O4A O -0.1200(3) 1.1476(3) -0.1694(2)
O5A O -0.0329(3) 1.2747(3) -0.4582(2)
O6A O 0.0253(3) 1.4386(3) -0.2806(2)
O6A_2 O 0.0253(3) 0.4386(3) 0.7194(2)
O6_2 O -0.0253(3) 1.5614(3) -0.7194(2)
O7A O 0.2841(3) 0.6379(3) 0.6252(2)
O7A_2 O -0.7159(3) 1.6379(3) -0.3748(2)
O7_2 O -0.2841(3) 1.3621(3) -0.6252(2)
O8A O -0.0161(3) 1.2467(3) -0.7132(2)
O9A O -0.1326(3) 1.1060(3) 0.1267(3)
H6A H -0.190(4) 1.043(4) 0.180(3)
H7A H -0.084(4) 1.140(5) 0.166(4)
O10A O -0.1499(3) 0.8137(3) 0.0528(3)
H8A H -0.107(4) 0.730(3) 0.093(4)
H9A H -0.218(3) 0.827(5) 0.105(3)
loop_
_geom_bond_atom_site_label_1
_geom_bond_atom_site_label_2
_geom_bond_site_symmetry_1
_geom_bond_site_symmetry_2
Co1 N1 1_555 1_555
Co2 O4 1_555 1_555
V1 O3 1_555 1_555
V2 O5 1_555 1_555
S1 C3 1_555 1_555
C1 C2 1_555 1_555
C2 C3 1_555 1_555
C3 H1 1_555 1_555
C4 S1 1_555 1_555
C5 C4 1_555 1_555
C6 C5 1_555 1_555
H2 C6 1_555 1_555
C7 C6 1_555 1_555
H3 C7 1_555 1_555
C8 H4 1_555 1_555
C9 C5 1_555 1_555
H5 C9 1_555 1_555
N1 C2 1_555 1_555
N2 C7 1_555 1_555
O1 Co1 1_555 1_555
O2 C1 1_555 1_555
O3 Co1 1_555 1_555
O4 V1 1_555 1_555
O5 V1 1_555 1_555
O6 V1 1_555 1_555
O7 Co1 1_555 1_555
O8 V2 1_555 1_555
O9 Co2 1_555 1_555
H6 O9 1_555 1_555
H7 O9 1_555 1_555
O10 Co2 1_555 1_555
H8 O10 1_555 1_555
H9 O10 1_555 1_555
Co1A N1A_2 1_555 1_555
Co1A_2 N2 1_555 1_555
Co1A_3 O1 1_555 1_555
Co1_2 O1A 1_555 1_555
V1A O3A 1_555 1_555
V2A O5A 1_555 1_555
V2A_2 O6 1_555 1_555
V2A_3 O7 1_555 1_555
V2_2 O6A 1_555 1_555
S1A C3A 1_555 1_555
C1A C2A 1_555 1_555
C2A C3A 1_555 1_555
C3A H1A 1_555 1_555
C4A S1A 1_555 1_555
C5A C4A 1_555 1_555
C6A C5A 1_555 1_555
H2A C6A 1_555 1_555
C7A C6A 1_555 1_555
H3A C7A 1_555 1_555
C8A H4A 1_555 1_555
C9A C5A 1_555 1_555
H5A C9A 1_555 1_555
N1A Co1A_2 1_555 1_555
N2A Co1 1_555 1_555
N2_2 Co1A 1_555 1_555
O1A Co1A_2 1_555 1_555
O1A_2 Co1 1_555 1_555
O1A_3 Co1A 1_555 1_555
O1_2 Co1A 1_555 1_555
O2A C1A 1_555 1_555
O3A Co1A 1_555 1_555
O4A Co2 1_555 1_555
O5A V1A 1_555 1_555
O6A V1A 1_555 1_555
O6A_2 V2 1_555 1_555
O6_2 V2A 1_555 1_555
O7A V2 1_555 1_555
O7A_2 Co1A 1_555 1_555
O7_2 V2A 1_555 1_555
O8A V2A 1_555 1_555
O9A Co2 1_555 1_555
H6A O9A 1_555 1_555
H7A O9A 1_555 1_555
O10A Co2 1_555 1_555
H8A O10A 1_555 1_555
H9A O10A 1_555 1_555
C1 O1 1_555 1_555
C4 N1 1_555 1_555
C8 C9 1_555 1_555
C8 N2 1_555 1_555
Co1A_3 O1A_2 1_555 1_555
Co1A_3 O7A 1_555 1_555
V1A O4A 1_555 1_555
C1A O1A 1_555 1_555
C2A N1A 1_555 1_555
C4A N1A 1_555 1_555
C7A N2A 1_555 1_555
C8A C9A 1_555 1_555
C8A N2A 1_555 1_555

#END
