
#######################################################################
#
#                 Cambridge Crystallographic Data Centre
#                                CCDC 
#
#######################################################################
#
# If this CIF has been generated from an entry in the Cambridge 
# Structural Database, then it will include bibliographic, chemical, 
# crystal, experimental, refinement or atomic coordinate data resulting 
# from the CCDC's data processing and validation procedures.
#
#######################################################################

data_YUMGEU
_symmetry_cell_setting           triclinic
_symmetry_space_group_name_H-M   'P -1'
_symmetry_Int_Tables_number      2
_space_group_name_Hall           '-P 1'
loop_
_symmetry_equiv_pos_site_id
_symmetry_equiv_pos_as_xyz
1 x,y,z
2 -x,-y,-z
_cell_length_a                   8.5827(3)
_cell_length_b                   10.6301(4)
_cell_length_c                   13.4395(5)
_cell_angle_alpha                95.3540(10)
_cell_angle_beta                 95.6380(10)
_cell_angle_gamma                112.3110(10)
_cell_volume                     1117.45
loop_
_atom_site_label
_atom_site_type_symbol
_atom_site_fract_x
_atom_site_fract_y
_atom_site_fract_z
Cu1 Cu 0.48041(3) 0.45401(3) 0.35623(2)
Cu2 Cu 0.57705(3) 0.26796(3) 0.53110(2)
Cu3 Cu 0.64920(3) 0.10599(3) 0.72765(2)
O1 O 0.3744(3) 0.4723(2) 0.2264(2)
H1 H 0.286(3) 0.411(3) 0.202(3)
H2 H 0.406(5) 0.544(2) 0.204(3)
O2 O 0.34956(19) 0.15352(17) 0.45297(13)
O3 O 0.7809(2) 0.0861(2) 0.84692(14)
H3 H 0.794(4) 0.151(2) 0.889(2)
H4 H 0.738(4) 0.021(2) 0.877(2)
O4 O 0.2952(2) 0.27669(18) 0.33727(14)
O5 O -0.3008(3) -0.1275(2) -0.05312(15)
O6 O -0.1952(3) -0.2286(2) 0.05667(15)
O7 O -0.3643(2) -0.36396(18) 0.34759(14)
O8 O -0.1318(2) -0.31874(19) 0.45929(14)
O9 O 0.7963(2) 0.3901(2) 0.61070(16)
O10 O 0.8523(2) 0.26832(17) 0.72571(14)
O11 O 1.3995(2) 0.6945(2) 1.12977(14)
O12 O 1.1887(3) 0.6987(3) 1.02126(16)
O13 O 1.4753(2) 0.93331(18) 0.74513(13)
O14 O 1.2960(2) 0.8538(2) 0.59941(14)
O15 O 0.6062(2) 0.4210(2) 0.46411(17)
H5 H 0.696(2) 0.482(2) 0.483(2)
O16 O 0.5372(2) 0.12541(19) 0.60908(15)
H6 H 0.462(3) 0.054(2) 0.586(2)
N1 N -0.1464(2) -0.03103(19) 0.21406(14)
N2 N 1.2743(2) 0.5837(2) 0.86222(15)
C1 C 0.2610(3) 0.1726(2) 0.38152(16)
C2 C 0.0931(3) 0.0573(2) 0.34181(16)
C3 C 0.0267(3) -0.0599(2) 0.38756(16)
H7 H 0.0875 -0.0712 0.4448
C4 C -0.1322(3) -0.1601(2) 0.34660(17)
C5 C -0.2170(3) -0.1427(2) 0.25975(17)
H8 H -0.3239 -0.2086 0.2325
C6 C 0.0044(3) 0.0686(2) 0.25372(17)
H9 H 0.0497 0.1457 0.2218
C7 C -0.2123(3) -0.2915(2) 0.39104(17)
C8 C -0.2330(3) -0.0245(2) 0.11555(18)
H10 H -0.1731 0.0644 0.0950
H11 H -0.3478 -0.0330 0.1226
C9 C -0.2412(3) -0.1372(3) 0.03334(19)
C10 C 0.8822(3) 0.3723(2) 0.68309(17)
C11 C 1.0463(3) 0.4915(2) 0.72755(17)
C12 C 1.1129(3) 0.6090(2) 0.68215(18)
H12 H 1.0574 0.6178 0.6218
C13 C 1.2651(3) 0.7136(2) 0.72923(17)
C14 C 1.3428(3) 0.6984(2) 0.81941(18)
H13 H 1.4439 0.7682 0.8512
C15 C 1.1294(3) 0.4806(2) 0.81815(18)
H14 H 1.0846 0.4017 0.8483
C16 C 1.3506(3) 0.8445(2) 0.68498(18)
C17 C 1.3544(3) 0.5802(3) 0.96361(19)
H15 H 1.4770 0.6158 0.9658
H16 H 1.3164 0.4859 0.9770
C18 C 1.3093(3) 0.6657(3) 1.0453(2)
Cu1_2 Cu -0.51959(3) -0.54599(3) 0.35623(2)
Cu2A Cu 1.42295(3) 0.73204(3) 0.46890(2)
Cu3_2 Cu 1.64920(3) 1.10599(3) 0.72765(2)
O7_2 O 0.6357(2) 0.63604(18) 0.34759(14)
O13_2 O 0.4753(2) -0.06669(18) 0.74513(13)
O14A O 0.7040(2) 0.1462(2) 0.40059(14)
O17 O 0.0822(2) 0.3118(2) 0.11038(15)
H17 H 0.009(3) 0.331(3) 0.083(2)
H18 H 0.118(4) 0.280(3) 0.0662(19)
loop_
_geom_bond_atom_site_label_1
_geom_bond_atom_site_label_2
_geom_bond_site_symmetry_1
_geom_bond_site_symmetry_2
Cu1 O1 1_555 1_555
Cu2 O2 1_555 1_555
Cu3 O3 1_555 1_555
O1 H1 1_555 1_555
H2 O1 1_555 1_555
O2 C1 1_555 1_555
O3 H3 1_555 1_555
H4 O3 1_555 1_555
O4 Cu1 1_555 1_555
O5 C9 1_555 1_555
O6 C9 1_555 1_555
O7 C7 1_555 1_555
O8 C7 1_555 1_555
O9 Cu2 1_555 1_555
O10 Cu3 1_555 1_555
O11 C18 1_555 1_555
O12 C18 1_555 1_555
O13 C16 1_555 1_555
O14 C16 1_555 1_555
O15 Cu1 1_555 1_555
H5 O15 1_555 1_555
O16 Cu2 1_555 1_555
H6 O16 1_555 1_555
N1 C5 1_555 1_555
N2 C14 1_555 1_555
C1 O4 1_555 1_555
C2 C1 1_555 1_555
C3 C2 1_555 1_555
H7 C3 1_555 1_555
C4 C3 1_555 1_555
C5 C4 1_555 1_555
H8 C5 1_555 1_555
C6 N1 1_555 1_555
H9 C6 1_555 1_555
C7 C4 1_555 1_555
C8 N1 1_555 1_555
H10 C8 1_555 1_555
H11 C8 1_555 1_555
C9 C8 1_555 1_555
C10 O9 1_555 1_555
C11 C10 1_555 1_555
C12 C11 1_555 1_555
H12 C12 1_555 1_555
C13 C12 1_555 1_555
C14 C13 1_555 1_555
H13 C14 1_555 1_555
C15 N2 1_555 1_555
H14 C15 1_555 1_555
C16 C13 1_555 1_555
C17 N2 1_555 1_555
H15 C17 1_555 1_555
H16 C17 1_555 1_555
C18 C17 1_555 1_555
O17 H17 1_555 1_555
H18 O17 1_555 1_555
Cu1_2 O7 1_555 1_555
Cu2A O14 1_555 1_555
Cu3_2 O13 1_555 1_555
O7_2 Cu1 1_555 1_555
O13_2 Cu3 1_555 1_555
O14A Cu2 1_555 1_555
Cu2 O15 1_555 1_555
Cu3 O16 1_555 1_555
O10 C10 1_555 1_555
C2 C6 1_555 1_555
C11 C15 1_555 1_555

#END
