
#######################################################################
#
#                 Cambridge Crystallographic Data Centre
#                                CCDC 
#
#######################################################################
#
# If this CIF has been generated from an entry in the Cambridge 
# Structural Database, then it will include bibliographic, chemical, 
# crystal, experimental, refinement or atomic coordinate data resulting 
# from the CCDC's data processing and validation procedures.
#
#######################################################################

data_YUMGET
_symmetry_cell_setting           triclinic
_symmetry_space_group_name_H-M   'P -1'
_symmetry_Int_Tables_number      2
_space_group_name_Hall           '-P 1'
loop_
_symmetry_equiv_pos_site_id
_symmetry_equiv_pos_as_xyz
1 x,y,z
2 -x,-y,-z
_cell_length_a                   8.204(2)
_cell_length_b                   9.790(3)
_cell_length_c                   13.121(3)
_cell_angle_alpha                79.130(4)
_cell_angle_beta                 79.019(3)
_cell_angle_gamma                85.061(3)
_cell_volume                     1014.61
loop_
_atom_site_label
_atom_site_type_symbol
_atom_site_fract_x
_atom_site_fract_y
_atom_site_fract_z
Tb1 Tb 0.39700(4) 0.97764(4) 0.15374(3)
C1 C 0.4460(11) 1.2296(9) 0.3034(7)
H1 H 0.5545 1.2225 0.2670
C2 C 0.4078(14) 1.3275(10) 0.3698(8)
H2 H 0.4891 1.3829 0.3783
C3 C 0.2483(13) 1.3403(10) 0.4222(8)
H3 H 0.2196 1.4067 0.4656
C4 C 0.1268(12) 1.2535(9) 0.4110(7)
C5 C -0.0411(12) 1.2611(10) 0.4632(7)
H4 H -0.0843 1.3387 0.4842
C6 C -0.1539(11) 1.1732(10) 0.4526(7)
H5 H -0.2632 1.1807 0.4877
C7 C -0.1053(10) 1.0691(9) 0.3878(6)
C8 C -0.2134(11) 0.9744(10) 0.3755(7)
H6 H -0.3236 0.9783 0.4094
C9 C -0.1593(11) 0.8752(10) 0.3138(7)
H7 H -0.2308 0.8107 0.3059
C10 C 0.0056(11) 0.8742(10) 0.2637(7)
H8 H 0.0428 0.8056 0.2232
C11 C 0.0618(10) 1.0623(9) 0.3327(6)
C12 C 0.1791(10) 1.1550(8) 0.3430(6)
C13 C 0.8455(10) 0.6972(8) 0.0672(6)
C14 C 1.0188(10) 0.6933(8) 0.0322(6)
C15 C 1.1143(12) 0.5919(9) 0.0871(8)
H9 H 1.2290 0.5868 0.0650
C16 C 1.0453(15) 0.5002(10) 0.1718(9)
H10 H 1.1126 0.4329 0.2063
C17 C 0.8750(14) 0.5061(10) 0.2075(9)
H11 H 0.8280 0.4432 0.2658
C18 C 0.7773(12) 0.6045(9) 0.1563(7)
H12 H 0.6634 0.6101 0.1812
C19 C 0.7314(9) 0.7970(8) 0.0096(7)
C20 C 1.1071(10) 0.7937(9) -0.0602(6)
H13 H 1.0274 0.8671 -0.0823
H14 H 1.1453 0.7442 -0.1185
C21 C 1.2547(10) 0.8602(8) -0.0384(6)
N1 N 0.3370(9) 1.1462(7) 0.2889(5)
N2 N 0.1135(8) 0.9638(7) 0.2693(5)
N3 N 0.4200(9) 0.7395(7) 0.3226(6)
O1 O 0.6030(7) 0.8488(6) 0.0640(6)
O2 O 0.7597(7) 0.8255(6) -0.0887(5)
O3 O 1.2465(7) 0.8883(6) 0.0512(4)
O4 O 1.3731(7) 0.8875(6) -0.1156(4)
O5 O 0.4661(8) 0.8599(6) 0.3217(5)
O6 O 0.3576(8) 0.7229(6) 0.2461(5)
O7 O 0.4375(11) 0.6457(7) 0.3964(6)
Tb1A Tb 0.60300(4) 1.02236(4) -0.15374(3)
Tb1_2 Tb 1.39700(4) 0.97764(4) 0.15374(3)
Tb1A_2 Tb 1.60300(4) 1.02236(4) -0.15374(3)
O2A O 0.2403(7) 1.1745(6) 0.0887(5)
O3_2 O 0.2465(7) 0.8883(6) 0.0512(4)
O4A O 0.6269(7) 1.1125(6) 0.1156(4)
loop_
_geom_bond_atom_site_label_1
_geom_bond_atom_site_label_2
_geom_bond_site_symmetry_1
_geom_bond_site_symmetry_2
Tb1 N1 1_555 1_555
C1 H1 1_555 1_555
C2 C1 1_555 1_555
H2 C2 1_555 1_555
C3 C2 1_555 1_555
H3 C3 1_555 1_555
C4 C3 1_555 1_555
C5 C4 1_555 1_555
H4 C5 1_555 1_555
C6 C5 1_555 1_555
H5 C6 1_555 1_555
C7 C6 1_555 1_555
C8 C7 1_555 1_555
H6 C8 1_555 1_555
C9 C8 1_555 1_555
H7 C9 1_555 1_555
C10 C9 1_555 1_555
H8 C10 1_555 1_555
C11 C7 1_555 1_555
C12 C4 1_555 1_555
C13 C14 1_555 1_555
C14 C15 1_555 1_555
C15 H9 1_555 1_555
C16 C15 1_555 1_555
H10 C16 1_555 1_555
C17 C16 1_555 1_555
H11 C17 1_555 1_555
C18 C13 1_555 1_555
H12 C18 1_555 1_555
C19 C13 1_555 1_555
C20 C14 1_555 1_555
H13 C20 1_555 1_555
H14 C20 1_555 1_555
C21 C20 1_555 1_555
N1 C1 1_555 1_555
N2 Tb1 1_555 1_555
N3 O5 1_555 1_555
O1 Tb1 1_555 1_555
O2 C19 1_555 1_555
O3 C21 1_555 1_555
O4 C21 1_555 1_555
O5 Tb1 1_555 1_555
O6 Tb1 1_555 1_555
O7 N3 1_555 1_555
Tb1A O2 1_555 1_555
Tb1_2 O3 1_555 1_555
Tb1A_2 O4 1_555 1_555
O2A Tb1 1_555 1_555
O3_2 Tb1 1_555 1_555
O4A Tb1 1_555 1_555
C10 N2 1_555 1_555
C11 C12 1_555 1_555
C11 N2 1_555 1_555
C12 N1 1_555 1_555
C17 C18 1_555 1_555
C19 O1 1_555 1_555
N3 O6 1_555 1_555

#END
