
#######################################################################
#
#                 Cambridge Crystallographic Data Centre
#                                CCDC 
#
#######################################################################
#
# If this CIF has been generated from an entry in the Cambridge 
# Structural Database, then it will include bibliographic, chemical, 
# crystal, experimental, refinement or atomic coordinate data resulting 
# from the CCDC's data processing and validation procedures.
#
#######################################################################

data_YUMGOE
_symmetry_cell_setting           monoclinic
_symmetry_space_group_name_H-M   'P 21/n'
_symmetry_Int_Tables_number      14
_space_group_name_Hall           '-P 2yn'
loop_
_symmetry_equiv_pos_site_id
_symmetry_equiv_pos_as_xyz
1 x,y,z
2 1/2-x,1/2+y,1/2-z
3 -x,-y,-z
4 1/2+x,1/2-y,1/2+z
_cell_length_a                   9.1905(5)
_cell_length_b                   7.7875(4)
_cell_length_c                   27.5073(15)
_cell_angle_alpha                90
_cell_angle_beta                 94.0020(8)
_cell_angle_gamma                90
_cell_volume                     1963.92
loop_
_atom_site_label
_atom_site_type_symbol
_atom_site_fract_x
_atom_site_fract_y
_atom_site_fract_z
Cu1 Cu 0.52842(2) 0.47511(3) 0.868051(7)
O1 O 0.24603(15) 0.36821(17) 0.81063(5)
O2 O 0.38463(13) 0.59961(16) 0.82647(4)
O3 O -0.45104(15) 0.4174(2) 0.74941(5)
O4 O -0.32472(14) 0.4646(2) 0.82053(5)
O5 O 0.05133(16) 0.4474(2) 0.60335(5)
O6 O -0.12829(14) 0.25742(18) 0.61113(4)
N1 N 0.39195(16) 0.4434(2) 0.92141(5)
N2 N 0.65367(16) 0.3255(2) 0.91306(5)
N3 N 0.04699(15) 0.55893(18) 0.75145(5)
C1 C 0.2578(2) 0.5083(3) 0.92270(7)
H1 H 0.2237 0.5824 0.8979
C2 C 0.1677(2) 0.4700(3) 0.95929(8)
H2 H 0.0736 0.5143 0.9586
C3 C 0.2197(2) 0.3647(3) 0.99693(8)
H3 H 0.1616 0.3385 1.0223
C4 C 0.3592(2) 0.2988(3) 0.99653(7)
H4 H 0.3968 0.2288 1.0218
C5 C 0.44204(19) 0.3388(2) 0.95792(6)
C6 C 0.59134(19) 0.2732(2) 0.95353(6)
C7 C 0.6636(2) 0.1688(3) 0.98797(7)
H5 H 0.6188 0.1351 1.0157
C8 C 0.8035(2) 0.1156(3) 0.98037(8)
H6 H 0.8544 0.0458 1.0031
C9 C 0.8671(2) 0.1670(3) 0.93867(8)
H7 H 0.9609 0.1312 0.9328
C10 C 0.7896(2) 0.2722(3) 0.90589(7)
H8 H 0.8326 0.3072 0.8779
C11 C 0.27493(18) 0.5216(2) 0.80697(6)
C12 C 0.17224(19) 0.6441(2) 0.77814(6)
H9 H 0.1355 0.7275 0.8004
H10 H 0.2273 0.7061 0.7550
C13 C 0.05602(18) 0.5141(2) 0.70425(6)
H11 H 0.1415 0.5357 0.6891
C14 C -0.06010(18) 0.4367(2) 0.67834(6)
C15 C -0.18847(18) 0.4132(2) 0.70129(6)
H12 H -0.2689 0.3639 0.6843
C16 C -0.19740(18) 0.4632(2) 0.74960(6)
C17 C -0.07545(18) 0.5331(2) 0.77441(6)
H13 H -0.0782 0.5622 0.8071
C18 C -0.33884(19) 0.4464(2) 0.77474(6)
C19 C -0.04410(18) 0.3761(2) 0.62596(6)
Cu1_2 Cu -0.47158(2) 0.47511(3) 0.868051(7)
Cu1A Cu -0.02842(2) -0.02489(3) 0.631949(7)
O4_2 O 0.67528(14) 0.4646(2) 0.82053(5)
O6A O 0.62829(14) 0.75742(18) 0.88887(4)
O7 O 0.3521(2) 0.4367(3) 0.60218(9)
H14 H 0.382(4) 0.508(4) 0.6242(11)
H15 H 0.2601(19) 0.442(4) 0.6018(12)
O8 O 0.0224(2) 0.1471(3) 0.82704(8)
H16 H 0.094(3) 0.215(3) 0.8196(11)
H17 H 0.022(3) 0.074(3) 0.8034(9)
O9 O 0.56891(19) 0.1804(3) 0.61367(7)
H18 H 0.513(3) 0.266(3) 0.6078(11)
H19 H 0.652(2) 0.219(4) 0.6121(10)
loop_
_geom_bond_atom_site_label_1
_geom_bond_atom_site_label_2
_geom_bond_site_symmetry_1
_geom_bond_site_symmetry_2
Cu1 O2 1_555 1_555
O1 C11 1_555 1_555
O2 C11 1_555 1_555
O3 C18 1_555 1_555
O4 C18 1_555 1_555
O5 C19 1_555 1_555
O6 C19 1_555 1_555
N1 Cu1 1_555 1_555
N2 Cu1 1_555 1_555
N3 C12 1_555 1_555
C1 N1 1_555 1_555
H1 C1 1_555 1_555
C2 C1 1_555 1_555
H2 C2 1_555 1_555
C3 C2 1_555 1_555
H3 C3 1_555 1_555
C4 C3 1_555 1_555
H4 C4 1_555 1_555
C5 N1 1_555 1_555
C6 N2 1_555 1_555
C7 C6 1_555 1_555
H5 C7 1_555 1_555
C8 C7 1_555 1_555
H6 C8 1_555 1_555
C9 C8 1_555 1_555
H7 C9 1_555 1_555
C10 N2 1_555 1_555
H8 C10 1_555 1_555
C11 C12 1_555 1_555
C12 H9 1_555 1_555
H10 C12 1_555 1_555
C13 N3 1_555 1_555
H11 C13 1_555 1_555
C14 C13 1_555 1_555
C15 C14 1_555 1_555
H12 C15 1_555 1_555
C16 C15 1_555 1_555
C17 N3 1_555 1_555
H13 C17 1_555 1_555
C18 C16 1_555 1_555
C19 C14 1_555 1_555
O7 H14 1_555 1_555
H15 O7 1_555 1_555
O8 H16 1_555 1_555
H17 O8 1_555 1_555
O9 H18 1_555 1_555
H19 O9 1_555 1_555
Cu1_2 O4 1_555 1_555
Cu1A O6 1_555 1_555
O4_2 Cu1 1_555 1_555
O6A Cu1 1_555 1_555
C4 C5 1_555 1_555
C5 C6 1_555 1_555
C9 C10 1_555 1_555
C16 C17 1_555 1_555

#END
