
#######################################################################
#
#                 Cambridge Crystallographic Data Centre
#                                CCDC 
#
#######################################################################
#
# If this CIF has been generated from an entry in the Cambridge 
# Structural Database, then it will include bibliographic, chemical, 
# crystal, experimental, refinement or atomic coordinate data resulting 
# from the CCDC's data processing and validation procedures.
#
#######################################################################

data_YUMGUK
_symmetry_cell_setting           triclinic
_symmetry_space_group_name_H-M   'P -1'
_symmetry_Int_Tables_number      2
_space_group_name_Hall           '-P 1'
loop_
_symmetry_equiv_pos_site_id
_symmetry_equiv_pos_as_xyz
1 x,y,z
2 -x,-y,-z
_cell_length_a                   7.1654(9)
_cell_length_b                   7.6594(9)
_cell_length_c                   11.4555(14)
_cell_angle_alpha                77.713(2)
_cell_angle_beta                 75.932(2)
_cell_angle_gamma                74.525(2)
_cell_volume                     580.336
loop_
_atom_site_label
_atom_site_type_symbol
_atom_site_fract_x
_atom_site_fract_y
_atom_site_fract_z
Cu1 Cu -0.51064(5) 0.79425(4) 0.44813(3)
O1 O -0.7076(3) 0.9259(3) 0.56619(17)
O2 O -0.3200(3) 0.6698(3) 0.32351(18)
H1 H -0.304(6) 0.557(3) 0.330(3)
H2 H -0.312(5) 0.716(4) 0.2490(19)
O3 O -0.6190(3) 0.9964(3) 0.32477(17)
H3 H -0.552(4) 1.017(4) 0.2538(19)
H4 H -0.650(5) 1.092(3) 0.355(3)
O4 O -0.7678(4) 0.6820(3) 0.7061(2)
O5 O -1.2422(3) 0.7980(3) 1.09417(18)
O6 O -1.4184(3) 1.0841(3) 1.10780(19)
O7 O -1.2904(3) 1.3955(3) 0.55241(19)
O8 O -1.3377(3) 1.6900(3) 0.56941(18)
N1 N -1.1452(3) 1.2746(3) 0.7640(2)
C1 C -0.7977(4) 0.8472(4) 0.6653(2)
C2 C -0.9568(4) 0.9756(4) 0.7402(2)
C3 C -1.0077(4) 1.1598(4) 0.6951(2)
H5 H -0.9472 1.2050 0.6172
C4 C -1.2392(4) 1.2130(4) 0.8763(2)
H6 H -1.3352 1.2946 0.9212
C5 C -1.1937(4) 1.0294(4) 0.9246(2)
C6 C -1.0506(4) 0.9093(4) 0.8559(2)
H7 H -1.0178 0.7851 0.8873
C7 C -1.2951(4) 0.9653(4) 1.0533(2)
C8 C -1.1901(4) 1.4737(4) 0.7165(3)
H8 H -1.0692 1.5175 0.6972
H9 H -1.2810 1.5382 0.7796
C9 C -1.2809(4) 1.5189(4) 0.6024(2)
Cu1_2 Cu -1.51064(5) 1.79425(4) 0.44813(3)
Cu1A Cu -1.48936(5) 1.20575(4) 0.55187(3)
O7A O -0.7096(3) 0.6045(3) 0.44759(19)
O8_2 O -0.3377(3) 0.6900(3) 0.56941(18)
O9 O 0.3290(11) 0.5053(7) 0.9540(5)
H10 H 0.197(6) 0.516(13) 1.004(6)
H11 H 0.293(11) 0.585(10) 0.887(5)
loop_
_geom_bond_atom_site_label_1
_geom_bond_atom_site_label_2
_geom_bond_site_symmetry_1
_geom_bond_site_symmetry_2
Cu1 O1 1_555 1_555
O1 C1 1_555 1_555
O2 Cu1 1_555 1_555
H1 O2 1_555 1_555
H2 O2 1_555 1_555
O3 Cu1 1_555 1_555
H3 O3 1_555 1_555
H4 O3 1_555 1_555
O4 C1 1_555 1_555
O5 C7 1_555 1_555
O6 C7 1_555 1_555
O7 C9 1_555 1_555
O8 C9 1_555 1_555
N1 C3 1_555 1_555
C1 C2 1_555 1_555
C2 C3 1_555 1_555
C3 H5 1_555 1_555
C4 N1 1_555 1_555
H6 C4 1_555 1_555
C5 C4 1_555 1_555
C6 C2 1_555 1_555
H7 C6 1_555 1_555
C7 C5 1_555 1_555
C8 N1 1_555 1_555
H8 C8 1_555 1_555
H9 C8 1_555 1_555
C9 C8 1_555 1_555
O9 H10 1_555 1_555
H11 O9 1_555 1_555
Cu1_2 O8 1_555 1_555
Cu1A O7 1_555 1_555
O7A Cu1 1_555 1_555
O8_2 Cu1 1_555 1_555
C5 C6 1_555 1_555

#END
