
#######################################################################
#
#                 Cambridge Crystallographic Data Centre
#                                CCDC 
#
#######################################################################
#
# If this CIF has been generated from an entry in the Cambridge 
# Structural Database, then it will include bibliographic, chemical, 
# crystal, experimental, refinement or atomic coordinate data resulting 
# from the CCDC's data processing and validation procedures.
#
#######################################################################

data_YUMGIX
_symmetry_cell_setting           triclinic
_symmetry_space_group_name_H-M   'P -1'
_symmetry_Int_Tables_number      2
_space_group_name_Hall           '-P 1'
loop_
_symmetry_equiv_pos_site_id
_symmetry_equiv_pos_as_xyz
1 x,y,z
2 -x,-y,-z
_cell_length_a                   8.1145(7)
_cell_length_b                   9.8083(8)
_cell_length_c                   13.0253(11)
_cell_angle_alpha                78.9260(10)
_cell_angle_beta                 79.4260(10)
_cell_angle_gamma                85.7460(10)
_cell_volume                     999.283
loop_
_atom_site_label
_atom_site_type_symbol
_atom_site_fract_x
_atom_site_fract_y
_atom_site_fract_z
Er1 Er 0.60381(2) 0.523721(19) 0.343654(14)
C1 C 0.5498(6) 0.2690(5) 0.2007(4)
H1 H 0.4407 0.2751 0.2375
C2 C 0.5884(7) 0.1705(5) 0.1349(4)
H2 H 0.5060 0.1137 0.1276
C3 C 0.7464(7) 0.1585(5) 0.0820(4)
H3 H 0.7738 0.0924 0.0384
C4 C 0.8691(6) 0.2454(4) 0.0926(3)
C5 C 1.0396(6) 0.2404(5) 0.0392(4)
H4 H 1.0734 0.1745 -0.0039
C6 C 1.1528(6) 0.3287(5) 0.0498(4)
H5 H 1.2628 0.3225 0.0143
C7 C 1.1054(5) 0.4315(5) 0.1151(3)
C8 C 1.2163(6) 0.5287(5) 0.1254(4)
H6 H 1.3272 0.5264 0.0909
C9 C 1.1610(6) 0.6263(5) 0.1859(4)
H7 H 1.2332 0.6925 0.1920
C10 C 0.9960(5) 0.6271(5) 0.2388(3)
H8 H 0.9605 0.6942 0.2806
C11 C 0.9393(5) 0.4394(4) 0.1699(3)
C12 C 0.8177(5) 0.3440(4) 0.1593(3)
C13 C 0.8459(5) 0.1963(4) 0.5692(3)
C14 C 1.0193(5) 0.1957(4) 0.5308(3)
C15 C 1.1197(6) 0.0925(5) 0.5818(4)
H9 H 1.2349 0.0899 0.5577
C16 C 1.0534(7) -0.0050(5) 0.6663(4)
H10 H 1.1232 -0.0733 0.6981
C17 C 0.8836(7) -0.0024(5) 0.7046(4)
H11 H 0.8387 -0.0686 0.7621
C18 C 0.7810(6) 0.0983(5) 0.6574(4)
H12 H 0.6667 0.1014 0.6845
C19 C 0.7246(5) 0.2981(4) 0.5178(4)
C20 C 1.1030(5) 0.3004(5) 0.4392(3)
H13 H 1.0220 0.3749 0.4212
H14 H 1.1368 0.2557 0.3779
C21 C 1.2549(5) 0.3625(4) 0.4613(3)
N1 N 0.6603(4) 0.3544(3) 0.2136(3)
N2 N 0.8866(4) 0.5359(3) 0.2321(3)
N3 N 0.5836(5) 0.7599(4) 0.1750(3)
O1 O 0.5392(4) 0.6371(3) 0.1762(2)
O2 O 0.6480(4) 0.7758(3) 0.2521(3)
O3 O 0.5649(5) 0.8533(3) 0.1012(3)
O4 O 0.7480(4) 0.3307(3) 0.4187(2)
O5 O 0.6024(4) 0.3458(3) 0.5772(3)
O6 O 1.3755(4) 0.3888(3) 0.3846(2)
O7 O 1.2509(4) 0.3896(3) 0.5519(2)
Er1A Er 0.39619(2) 0.476279(19) 0.656346(14)
Er1_2 Er 1.60381(2) 0.523721(19) 0.343654(14)
Er1A_2 Er 1.39619(2) 0.476279(19) 0.656346(14)
O5A O 0.3976(4) 0.6542(3) 0.4228(3)
O6_2 O 0.3755(4) 0.3888(3) 0.3846(2)
O7A O 0.7491(4) 0.6104(3) 0.4481(2)
loop_
_geom_bond_atom_site_label_1
_geom_bond_atom_site_label_2
_geom_bond_site_symmetry_1
_geom_bond_site_symmetry_2
Er1 N1 1_555 1_555
C1 H1 1_555 1_555
C2 C1 1_555 1_555
H2 C2 1_555 1_555
C3 C2 1_555 1_555
H3 C3 1_555 1_555
C4 C3 1_555 1_555
C5 C4 1_555 1_555
H4 C5 1_555 1_555
C6 C5 1_555 1_555
H5 C6 1_555 1_555
C7 C6 1_555 1_555
C8 C7 1_555 1_555
H6 C8 1_555 1_555
C9 C8 1_555 1_555
H7 C9 1_555 1_555
C10 C9 1_555 1_555
H8 C10 1_555 1_555
C11 C7 1_555 1_555
C12 C4 1_555 1_555
C13 C14 1_555 1_555
C14 C15 1_555 1_555
C15 H9 1_555 1_555
C16 C15 1_555 1_555
H10 C16 1_555 1_555
C17 C16 1_555 1_555
H11 C17 1_555 1_555
C18 C13 1_555 1_555
H12 C18 1_555 1_555
C19 C13 1_555 1_555
C20 C14 1_555 1_555
H13 C20 1_555 1_555
H14 C20 1_555 1_555
C21 C20 1_555 1_555
N1 C1 1_555 1_555
N2 Er1 1_555 1_555
N3 O1 1_555 1_555
O1 Er1 1_555 1_555
O2 Er1 1_555 1_555
O3 N3 1_555 1_555
O4 Er1 1_555 1_555
O5 C19 1_555 1_555
O6 C21 1_555 1_555
O7 C21 1_555 1_555
Er1A O5 1_555 1_555
Er1_2 O6 1_555 1_555
Er1A_2 O7 1_555 1_555
O5A Er1 1_555 1_555
O6_2 Er1 1_555 1_555
O7A Er1 1_555 1_555
C10 N2 1_555 1_555
C11 C12 1_555 1_555
C11 N2 1_555 1_555
C12 N1 1_555 1_555
C17 C18 1_555 1_555
C19 O4 1_555 1_555
N3 O2 1_555 1_555

#END
