
#######################################################################
#
#                 Cambridge Crystallographic Data Centre
#                                CCDC 
#
#######################################################################
#
# If this CIF has been generated from an entry in the Cambridge 
# Structural Database, then it will include bibliographic, chemical, 
# crystal, experimental, refinement or atomic coordinate data resulting 
# from the CCDC's data processing and validation procedures.
#
#######################################################################

data_YUMGIY
_symmetry_cell_setting           monoclinic
_symmetry_space_group_name_H-M   'P 21/c'
_symmetry_Int_Tables_number      14
_space_group_name_Hall           '-P 2ybc'
loop_
_symmetry_equiv_pos_site_id
_symmetry_equiv_pos_as_xyz
1 x,y,z
2 -x,1/2+y,1/2-z
3 -x,-y,-z
4 x,1/2-y,1/2+z
_cell_length_a                   9.2384(18)
_cell_length_b                   7.4454(15)
_cell_length_c                   23.041(6)
_cell_angle_alpha                90
_cell_angle_beta                 113.23(3)
_cell_angle_gamma                90
_cell_volume                     1456.36
loop_
_atom_site_label
_atom_site_type_symbol
_atom_site_fract_x
_atom_site_fract_y
_atom_site_fract_z
Cu1 Cu 0.61893(6) 0.45584(7) 0.28820(2)
O1 O 0.4012(4) 0.4839(5) 0.23051(16)
O2 O 0.8351(4) 0.4214(6) 0.34788(17)
H1 H 0.812(8) 0.530(3) 0.350(3)
H2 H 0.850(7) 0.371(7) 0.3830(16)
O3 O 0.4111(4) 0.2483(5) 0.17152(16)
O4 O 0.5408(4) 0.3248(5) 0.34429(16)
H3 H 0.612(5) 0.281(7) 0.3770(17)
H4 H 0.478(5) 0.246(6) 0.320(2)
O5 O -0.0594(5) 0.1991(7) -0.03793(18)
O6 O -0.2839(5) 0.3259(7) -0.04683(18)
O7 O -0.3089(4) 0.5775(4) 0.22862(15)
O8 O -0.1680(5) 0.3453(5) 0.21793(17)
N1 N -0.0762(4) 0.5255(5) 0.13468(17)
C1 C 0.3418(5) 0.3731(6) 0.1850(2)
C2 C 0.1693(5) 0.4022(6) 0.1453(2)
C3 C 0.0803(5) 0.5044(6) 0.1689(2)
H5 H 0.1287 0.5600 0.2091
C4 C -0.1477(5) 0.4564(6) 0.0759(2)
H6 H -0.2570 0.4761 0.0527
C5 C -0.0627(5) 0.3574(6) 0.04955(19)
C6 C 0.0978(5) 0.3280(6) 0.0854(2)
H7 H 0.1578 0.2570 0.0688
C7 C -0.1427(6) 0.2850(7) -0.0169(2)
C8 C -0.1711(5) 0.6229(6) 0.1641(2)
H8 H -0.2672 0.6722 0.1305
H9 H -0.1090 0.7247 0.1894
C9 C -0.2180(5) 0.4984(6) 0.2066(2)
Cu1_2 Cu -0.38107(6) 0.45584(7) 0.28820(2)
Cu1A Cu 0.38107(6) -0.04416(7) 0.21180(2)
O3A O 0.5889(4) 0.7483(5) 0.32848(16)
O7_2 O 0.6911(4) 0.5775(4) 0.22862(15)
O9 O 0.4981(11) 0.3666(18) 0.0688(4)
O10 O 0.7530(13) 0.8853(15) 0.0377(4)
O11 O 0.8966(5) 0.0528(6) 0.1567(2)
H10 H 0.9442 0.1483 0.1542
H11 H 0.8857 0.0551 0.1916
loop_
_geom_bond_atom_site_label_1
_geom_bond_atom_site_label_2
_geom_bond_site_symmetry_1
_geom_bond_site_symmetry_2
Cu1 O1 1_555 1_555
O1 C1 1_555 1_555
O2 Cu1 1_555 1_555
H1 O2 1_555 1_555
H2 O2 1_555 1_555
O3 C1 1_555 1_555
O4 Cu1 1_555 1_555
H3 O4 1_555 1_555
H4 O4 1_555 1_555
O5 C7 1_555 1_555
O6 C7 1_555 1_555
O7 C9 1_555 1_555
O8 C9 1_555 1_555
N1 C3 1_555 1_555
C1 C2 1_555 1_555
C2 C3 1_555 1_555
C3 H5 1_555 1_555
C4 N1 1_555 1_555
H6 C4 1_555 1_555
C5 C4 1_555 1_555
C6 C2 1_555 1_555
H7 C6 1_555 1_555
C7 C5 1_555 1_555
C8 N1 1_555 1_555
H8 C8 1_555 1_555
H9 C8 1_555 1_555
C9 C8 1_555 1_555
O11 H10 1_555 1_555
H11 O11 1_555 1_555
Cu1_2 O7 1_555 1_555
Cu1A O3 1_555 1_555
O3A Cu1 1_555 1_555
O7_2 Cu1 1_555 1_555
C5 C6 1_555 1_555

#END
