
#######################################################################
#
#                 Cambridge Crystallographic Data Centre
#                                CCDC 
#
#######################################################################
#
# If this CIF has been generated from an entry in the Cambridge 
# Structural Database, then it will include bibliographic, chemical, 
# crystal, experimental, refinement or atomic coordinate data resulting 
# from the CCDC's data processing and validation procedures.
#
#######################################################################

data_YUMHEU
_symmetry_cell_setting           triclinic
_symmetry_space_group_name_H-M   'P -1'
_symmetry_Int_Tables_number      2
_space_group_name_Hall           '-P 1'
loop_
_symmetry_equiv_pos_site_id
_symmetry_equiv_pos_as_xyz
1 x,y,z
2 -x,-y,-z
_cell_length_a                   6.2890(8)
_cell_length_b                   7.1355(8)
_cell_length_c                   11.2039(13)
_cell_angle_alpha                74.162(2)
_cell_angle_beta                 78.575(2)
_cell_angle_gamma                65.495(2)
_cell_volume                     438.047
loop_
_atom_site_label
_atom_site_type_symbol
_atom_site_fract_x
_atom_site_fract_y
_atom_site_fract_z
C1 C 0.1998(10) 0.0840(8) 0.6977(5)
C2 C 0.2595(9) 0.1610(8) 0.7955(5)
C3 C 0.1226(10) 0.1778(9) 0.9091(5)
H1 H -0.0132 0.1443 0.9266
C4 C 0.1877(10) 0.2437(9) 0.9953(5)
H2 H 0.1009 0.2510 1.0748
C5 C 0.3810(10) 0.2993(9) 0.9654(5)
H3 H 0.4268 0.3478 1.0233
C6 C 0.5062(10) 0.2832(9) 0.8500(5)
H4 H 0.6372 0.3239 0.8290
C7 C 0.2310(10) 0.3979(8) 0.3808(5)
N1 N 0.4497(8) 0.2122(7) 0.7663(4)
N2 N 0.3404(9) 0.4583(8) 0.4235(5)
O1 O 0.3498(7) 0.0459(6) 0.6044(4)
O2 O 0.0088(7) 0.0621(7) 0.7163(4)
S1 S 0.0865(3) 0.3074(2) 0.32024(13)
Pb1 Pb 0.68196(3) 0.15592(3) 0.559444(18)
N2A N 0.6596(9) 0.5417(8) 0.5765(5)
O1A O 0.6502(7) -0.0459(6) 0.3956(4)
O2_2 O 1.0088(7) 0.0621(7) 0.7163(4)
Pb1A Pb 0.31804(3) 0.84408(3) 0.440556(18)
Pb1A_2 Pb 0.31804(3) -0.15592(3) 0.440556(18)
Pb1_2 Pb -0.31804(3) 0.15592(3) 0.559444(18)
loop_
_geom_bond_atom_site_label_1
_geom_bond_atom_site_label_2
_geom_bond_site_symmetry_1
_geom_bond_site_symmetry_2
C1 C2 1_555 1_555
C2 C3 1_555 1_555
C3 H1 1_555 1_555
C4 C3 1_555 1_555
H2 C4 1_555 1_555
C5 C4 1_555 1_555
H3 C5 1_555 1_555
C6 C5 1_555 1_555
H4 C6 1_555 1_555
C7 N2 1_555 1_555
N1 C2 1_555 1_555
N2 Pb1 1_555 1_555
O1 C1 1_555 1_555
O2 C1 1_555 1_555
S1 C7 1_555 1_555
Pb1 N1 1_555 1_555
N2A Pb1 1_555 1_555
O1A Pb1 1_555 1_555
O2_2 Pb1 1_555 1_555
Pb1A N2 1_555 1_555
Pb1A_2 O1 1_555 1_555
Pb1_2 O2 1_555 1_555
C6 N1 1_555 1_555
O1 Pb1 1_555 1_555
N2A Pb1A 1_555 1_555
O1A Pb1A_2 1_555 1_555

#END
