
#######################################################################
#
#                 Cambridge Crystallographic Data Centre
#                                CCDC 
#
#######################################################################
#
# If this CIF has been generated from an entry in the Cambridge 
# Structural Database, then it will include bibliographic, chemical, 
# crystal, experimental, refinement or atomic coordinate data resulting 
# from the CCDC's data processing and validation procedures.
#
#######################################################################

data_YUMHOF
_symmetry_cell_setting           monoclinic
_symmetry_space_group_name_H-M   'C 2/c'
_symmetry_Int_Tables_number      15
_space_group_name_Hall           '-C 2yn'
loop_
_symmetry_equiv_pos_site_id
_symmetry_equiv_pos_as_xyz
1 x,y,z
2 -x,y,1/2-z
3 1/2+x,1/2+y,z
4 1/2-x,1/2+y,1/2-z
5 -x,-y,-z
6 x,-y,1/2+z
7 1/2-x,1/2-y,-z
8 1/2+x,1/2-y,1/2+z
_cell_length_a                   36.1459(12)
_cell_length_b                   5.2200(2)
_cell_length_c                   18.0068(7)
_cell_angle_alpha                90
_cell_angle_beta                 101.697(3)
_cell_angle_gamma                90
_cell_volume                     3327
loop_
_atom_site_label
_atom_site_type_symbol
_atom_site_fract_x
_atom_site_fract_y
_atom_site_fract_z
Cu1 Cu 0.154871(7) 0.26726(5) 0.070804(16)
O1 O 0.16289(5) 0.8947(4) 0.24365(11)
O2 O 0.15277(4) 0.5320(3) 0.14397(9)
O3 O 0.15554(5) -0.4455(3) -0.02851(9)
O4 O 0.20447(4) -0.1062(3) 0.03102(10)
N1 N 0.10000(5) 0.2039(4) 0.04663(11)
N2 N 0.16505(5) -0.0334(4) 0.01591(11)
N3 N 0.20968(5) 0.2546(4) 0.10098(12)
H1 H 0.2226 0.3707 0.1309
C1 C 0.16995(8) 1.0838(6) 0.30160(18)
H2 H 0.1543 1.2351 0.2853
H3 H 0.1967 1.1321 0.3113
H4 H 0.1637 1.0147 0.3481
C2 C 0.12699(7) 0.8017(5) 0.22402(14)
C3 C 0.09703(7) 0.8841(5) 0.25387(14)
H5 H 0.1006 1.0146 0.2914
C4 C 0.06114(7) 0.7757(5) 0.22901(15)
H6 H 0.0404 0.8342 0.2493
C5 C 0.05612(7) 0.5871(5) 0.17590(15)
H7 H 0.0318 0.5140 0.1598
C6 C 0.08646(7) 0.4974(5) 0.14409(14)
C7 C 0.12293(7) 0.6045(5) 0.16827(13)
C8 C 0.07802(7) 0.3039(5) 0.08777(14)
H8 H 0.0530 0.2388 0.0790
C9 C 0.08281(6) 0.0375(5) -0.01371(13)
C10 C 0.04532(7) 0.0812(5) -0.05058(14)
H9 H 0.0322 0.2246 -0.0362
C11 C 0.02696(7) -0.0786(5) -0.10724(14)
H10 H 0.0014 -0.0461 -0.1309
C12 C 0.04582(7) -0.2862(5) -0.12959(15)
H11 H 0.0332 -0.3994 -0.1678
C13 C 0.08315(7) -0.3275(5) -0.09591(14)
H12 H 0.0960 -0.4701 -0.1116
C14 C 0.10260(7) -0.1659(5) -0.03952(13)
C15 C 0.14411(7) -0.2293(5) -0.01438(13)
C16 C 0.22556(7) 0.0692(5) 0.07488(13)
C17 C 0.26666(7) 0.0150(5) 0.08504(14)
H13 H 0.2765 0.0959 0.0440
H14 H 0.2707 -0.1706 0.0840
H15 H 0.2799 0.0839 0.1339
Cu1_2 Cu 0.154871(7) -0.73274(5) 0.070804(16)
O3_2 O 0.15554(5) 0.5545(3) -0.02851(9)
O5 O 0.23300(5) 0.6480(4) 0.22042(10)
H16 H 0.2097(3) 0.673(6) 0.2136(17)
H17 H 0.2427(8) 0.793(3) 0.2324(17)
loop_
_geom_bond_atom_site_label_1
_geom_bond_atom_site_label_2
_geom_bond_site_symmetry_1
_geom_bond_site_symmetry_2
Cu1 O2 1_555 1_555
O1 C1 1_555 1_555
O2 C7 1_555 1_555
O3 C15 1_555 1_555
O4 N2 1_555 1_555
N1 Cu1 1_555 1_555
N2 Cu1 1_555 1_555
N3 Cu1 1_555 1_555
H1 N3 1_555 1_555
C1 H2 1_555 1_555
H3 C1 1_555 1_555
H4 C1 1_555 1_555
C2 O1 1_555 1_555
C3 C2 1_555 1_555
H5 C3 1_555 1_555
C4 C3 1_555 1_555
H6 C4 1_555 1_555
C5 C4 1_555 1_555
H7 C5 1_555 1_555
C6 C5 1_555 1_555
C7 C2 1_555 1_555
C8 N1 1_555 1_555
H8 C8 1_555 1_555
C9 N1 1_555 1_555
C10 C9 1_555 1_555
H9 C10 1_555 1_555
C11 C10 1_555 1_555
H10 C11 1_555 1_555
C12 C11 1_555 1_555
H11 C12 1_555 1_555
C13 C12 1_555 1_555
H12 C13 1_555 1_555
C14 C9 1_555 1_555
C15 N2 1_555 1_555
C16 O4 1_555 1_555
C17 C16 1_555 1_555
H13 C17 1_555 1_555
H14 C17 1_555 1_555
H15 C17 1_555 1_555
O5 H16 1_555 1_555
H17 O5 1_555 1_555
Cu1_2 O3 1_555 1_555
O3_2 Cu1 1_555 1_555
N3 C16 1_555 1_555
C6 C7 1_555 1_555
C6 C8 1_555 1_555
C13 C14 1_555 1_555
C14 C15 1_555 1_555

#END
