
#######################################################################
#
#                 Cambridge Crystallographic Data Centre
#                                CCDC 
#
#######################################################################
#
# If this CIF has been generated from an entry in the Cambridge 
# Structural Database, then it will include bibliographic, chemical, 
# crystal, experimental, refinement or atomic coordinate data resulting 
# from the CCDC's data processing and validation procedures.
#
#######################################################################

data_YUMHIY
_symmetry_cell_setting           orthorhombic
_symmetry_space_group_name_H-M   'P c c n'
_symmetry_Int_Tables_number      56
_space_group_name_Hall           '-P 2ab 2ac'
loop_
_symmetry_equiv_pos_site_id
_symmetry_equiv_pos_as_xyz
1 x,y,z
2 1/2-x,1/2-y,z
3 -x,1/2+y,1/2-z
4 1/2+x,-y,1/2-z
5 -x,-y,-z
6 1/2+x,1/2+y,-z
7 x,1/2-y,1/2+z
8 1/2-x,y,1/2+z
_cell_length_a                   11.4469(10)
_cell_length_b                   21.7787(18)
_cell_length_c                   7.3116(6)
_cell_angle_alpha                90
_cell_angle_beta                 90
_cell_angle_gamma                90
_cell_volume                     1822.77
loop_
_atom_site_label
_atom_site_type_symbol
_atom_site_fract_x
_atom_site_fract_y
_atom_site_fract_z
Pb1 Pb 0.641446(19) 0.365636(10) 0.62359(3)
S1 S 0.5703(2) 0.27878(7) 1.2526(2)
O1 O 0.6383(3) 0.46883(19) 0.7225(6)
O2 O 0.8070(4) 0.43131(19) 0.8193(6)
N1 N 0.9288(5) 0.6089(2) 0.9051(7)
N2 N 0.5789(6) 0.3548(3) 0.9492(9)
C1 C 0.8896(6) 0.5523(3) 0.8657(8)
H1 H 0.9439 0.5212 0.8477
C2 C 0.7721(5) 0.5382(3) 0.8507(7)
C3 C 0.6915(6) 0.5847(3) 0.8795(8)
H2 H 0.6120 0.5768 0.8694
C4 C 0.7297(7) 0.6422(3) 0.9225(10)
H3 H 0.6766 0.6738 0.9432
C5 C 0.8479(6) 0.6529(3) 0.9349(11)
H4 H 0.8732 0.6921 0.9653
C6 C 0.7377(5) 0.4749(2) 0.7966(8)
C7 C 0.5758(6) 0.3238(3) 1.0740(8)
Pb1G Pb 0.858554(19) 0.365636(10) 1.12359(3)
Pb1C Pb 1.141446(19) 0.634364(10) 0.87641(3)
O2G O 0.6930(4) 0.43131(19) 0.3193(6)
N1C N 0.4288(5) 0.3911(2) 0.5949(7)
loop_
_geom_bond_atom_site_label_1
_geom_bond_atom_site_label_2
_geom_bond_site_symmetry_1
_geom_bond_site_symmetry_2
Pb1 O1 1_555 1_555
S1 C7 1_555 1_555
O1 C6 1_555 1_555
O2 Pb1 1_555 1_555
N1 C1 1_555 1_555
N2 Pb1 1_555 1_555
C1 H1 1_555 1_555
C2 C1 1_555 1_555
C3 C2 1_555 1_555
H2 C3 1_555 1_555
C4 C3 1_555 1_555
H3 C4 1_555 1_555
C5 N1 1_555 1_555
H4 C5 1_555 1_555
C6 O2 1_555 1_555
C7 N2 1_555 1_555
Pb1G O2 1_555 1_555
Pb1C N1 1_555 1_555
O2G Pb1 1_555 1_555
N1C Pb1 1_555 1_555
C2 C6 1_555 1_555
C4 C5 1_555 1_555

#END
