
#######################################################################
#
#                 Cambridge Crystallographic Data Centre
#                                CCDC 
#
#######################################################################
#
# If this CIF has been generated from an entry in the Cambridge 
# Structural Database, then it will include bibliographic, chemical, 
# crystal, experimental, refinement or atomic coordinate data resulting 
# from the CCDC's data processing and validation procedures.
#
#######################################################################

data_YUMKAU
_symmetry_cell_setting           monoclinic
_symmetry_space_group_name_H-M   'P 21/c'
_symmetry_Int_Tables_number      14
_space_group_name_Hall           '-P 2ybc'
loop_
_symmetry_equiv_pos_site_id
_symmetry_equiv_pos_as_xyz
1 x,y,z
2 -x,1/2+y,1/2-z
3 -x,-y,-z
4 x,1/2-y,1/2+z
_cell_length_a                   16.860(5)
_cell_length_b                   24.513(5)
_cell_length_c                   11.920(5)
_cell_angle_alpha                90
_cell_angle_beta                 109.392(5)
_cell_angle_gamma                90
_cell_volume                     4646.93
loop_
_atom_site_label
_atom_site_type_symbol
_atom_site_fract_x
_atom_site_fract_y
_atom_site_fract_z
C1 C 0.1122(2) 0.12101(13) 0.3576(3)
C2 C 0.2061(2) 0.12698(14) 0.3914(3)
C3 C 0.2574(2) 0.10949(17) 0.5019(3)
H1 H 0.2339 0.0946 0.5554
C4 C 0.3439(2) 0.11410(18) 0.5327(3)
H2 H 0.3780 0.1021 0.6071
C5 C 0.3807(2) 0.13631(15) 0.4546(3)
C6 C 0.3282(2) 0.15428(16) 0.3454(4)
H3 H 0.3514 0.1694 0.2918
C7 C 0.2421(2) 0.15023(15) 0.3144(3)
H4 H 0.2080 0.1633 0.2410
C8 C 0.4726(2) 0.13829(17) 0.4895(4)
H5 H 0.5025 0.1404 0.5705
C9 C 0.5169(2) 0.13741(18) 0.4167(4)
H6 H 0.4872 0.1378 0.3355
C10 C 0.6096(2) 0.13581(17) 0.4526(3)
C11 C 0.6606(2) 0.15550(18) 0.5611(4)
H7 H 0.6362 0.1723 0.6115
C12 C 0.7471(2) 0.15081(17) 0.5963(3)
H8 H 0.7800 0.1635 0.6707
C13 C 0.7850(2) 0.12735(14) 0.5215(3)
C14 C 0.7345(2) 0.10885(17) 0.4112(3)
H9 H 0.7589 0.0935 0.3592
C15 C 0.6479(2) 0.11300(19) 0.3779(4)
H10 H 0.6149 0.1002 0.3036
C16 C 0.87835(19) 0.12441(12) 0.5564(3)
C17 C 0.1783(2) 0.17431(14) 0.7935(3)
C18 C 0.2491(2) 0.19500(14) 0.8975(3)
C19 C 0.2336(2) 0.22381(16) 0.9869(3)
H11 H 0.1785 0.2301 0.9838
C20 C 0.3003(2) 0.24369(16) 1.0824(3)
H12 H 0.2894 0.2639 1.1417
C21 C 0.3826(2) 0.23359(16) 1.0893(3)
C22 C 0.3969(2) 0.20393(19) 0.9993(3)
H13 H 0.4518 0.1959 1.0038
C23 C 0.3310(2) 0.18607(18) 0.9030(3)
H14 H 0.3419 0.1678 0.8412
C24 C 0.4521(2) 0.25459(16) 1.1913(3)
H15 H 0.4370 0.2746 1.2473
C25 C 0.5332(2) 0.24821(16) 1.2122(3)
H16 H 0.5488 0.2272 1.1580
C26 C 0.6019(2) 0.27113(15) 1.3131(3)
C27 C 0.6853(2) 0.25877(16) 1.3269(3)
H17 H 0.6973 0.2356 1.2728
C28 C 0.7503(2) 0.28054(16) 1.4199(3)
H18 H 0.8056 0.2725 1.4270
C29 C 0.5868(2) 0.30557(18) 1.3956(3)
H19 H 0.5317 0.3154 1.3867
C30 C 0.8036(2) 0.33827(14) 1.6034(3)
C31 C 0.7338(2) 0.31414(15) 1.5024(3)
C32 C 0.6514(2) 0.32551(17) 1.4907(3)
H20 H 0.6394 0.3468 1.5476
C33 C 0.0503(2) -0.00570(13) 0.8115(3)
H21 H 0.0395 -0.0208 0.8766
C34 C 0.0802(2) 0.00303(13) 0.6561(3)
H22 H 0.0947 -0.0049 0.5891
C35 C -0.0475(2) 0.25738(13) 0.3315(3)
H23 H -0.0736 0.2645 0.2510
C36 C 0.0129(2) 0.26758(13) 0.5140(3)
H24 H 0.0378 0.2835 0.5883
Cd1 Cd 0.052518(13) 0.136869(9) 0.600159(19)
Cd2 Cd 0.006621(16) 0.120044(9) 0.86633(2)
Cd3 Cd -0.066232(14) 0.125511(9) 0.290906(19)
N1 N 0.06555(17) 0.05234(10) 0.6857(2)
N2 N 0.04555(18) 0.04700(11) 0.7880(2)
N3 N 0.07203(17) -0.03507(10) 0.7325(2)
N4 N -0.03504(17) 0.20822(10) 0.3761(2)
N5 N 0.00525(17) 0.21495(11) 0.4971(2)
N6 N -0.01902(17) 0.29650(11) 0.4131(2)
O1 O 0.06649(14) 0.13107(10) 0.2525(2)
O2 O 0.08130(13) 0.10596(9) 0.43554(19)
O3 O 0.78988(16) 0.35169(13) 1.6955(2)
O4 O 0.87495(15) 0.34399(12) 1.5923(2)
O5 O 0.91115(13) 0.10700(9) 0.48206(18)
O6 O 0.92249(13) 0.14109(9) 0.65862(19)
O7 O 0.10550(13) 0.17158(10) 0.8007(2)
O8 O 0.19279(15) 0.16085(12) 0.7009(2)
O9 O 0.0931(3) 0.09483(18) 1.0529(3)
O10 O -0.1037(3) 0.09062(19) 0.9181(4)
H25 H -0.117(3) 0.113(2) 0.969(5)
H26 H 0.089(3) 0.108(2) 1.100(4)
H27 H -0.123(3) 0.0669(19) 0.909(4)
H28 H 0.124(3) 0.070(2) 1.069(4)
Cd1_2 Cd 1.052518(13) 0.136869(9) 0.600159(19)
Cd2_2 Cd 1.006621(16) 0.120044(9) 0.86633(2)
Cd2C Cd 0.006621(16) 0.379956(9) 0.36633(2)
Cd3_2 Cd 0.933768(14) 0.125511(9) 0.290906(19)
Cd3B Cd 0.066232(14) -0.125511(9) 0.709094(19)
Cd3C Cd 0.933768(14) 0.374489(9) 1.790906(19)
N3B N -0.07203(17) 0.03507(10) 0.2675(2)
N6C N -0.01902(17) 0.20350(11) 0.9131(2)
O3C O -0.21012(16) 0.14831(13) 0.1955(2)
O4C O -0.12505(15) 0.15601(12) 0.0923(2)
O5_2 O -0.08885(13) 0.10700(9) 0.48206(18)
O6_2 O -0.07751(13) 0.14109(9) 0.65862(19)
O11 O 0.8040(3) -0.00363(16) 0.8645(3)
N7 N 0.6723(3) 0.0202(2) 0.7447(4)
C37 C 0.7413(4) -0.0093(3) 0.7721(6)
H29 H 0.7439 -0.0365 0.7189
C38 C 0.6681(4) 0.0671(3) 0.8172(6)
H30 H 0.6138 0.0840 0.7853
H31 H 0.7109 0.0929 0.8168
H32 H 0.6768 0.0554 0.8973
C39 C 0.6002(5) 0.0091(3) 0.6403(6)
H33 H 0.5564 0.0349 0.6359
H34 H 0.5800 -0.0272 0.6453
H35 H 0.6162 0.0121 0.5704
loop_
_geom_bond_atom_site_label_1
_geom_bond_atom_site_label_2
_geom_bond_site_symmetry_1
_geom_bond_site_symmetry_2
C1 C2 1_555 1_555
C2 C3 1_555 1_555
C3 H1 1_555 1_555
C4 C3 1_555 1_555
H2 C4 1_555 1_555
C5 C4 1_555 1_555
C6 C5 1_555 1_555
H3 C6 1_555 1_555
C7 C2 1_555 1_555
H4 C7 1_555 1_555
C8 C5 1_555 1_555
H5 C8 1_555 1_555
C9 C8 1_555 1_555
H6 C9 1_555 1_555
C10 C9 1_555 1_555
C11 C10 1_555 1_555
H7 C11 1_555 1_555
C12 C11 1_555 1_555
H8 C12 1_555 1_555
C13 C12 1_555 1_555
C14 C13 1_555 1_555
H9 C14 1_555 1_555
C15 C10 1_555 1_555
H10 C15 1_555 1_555
C16 C13 1_555 1_555
C17 C18 1_555 1_555
C18 C19 1_555 1_555
C19 H11 1_555 1_555
C20 C19 1_555 1_555
H12 C20 1_555 1_555
C21 C20 1_555 1_555
C22 C21 1_555 1_555
H13 C22 1_555 1_555
C23 C18 1_555 1_555
H14 C23 1_555 1_555
C24 C21 1_555 1_555
H15 C24 1_555 1_555
C25 C24 1_555 1_555
H16 C25 1_555 1_555
C26 C25 1_555 1_555
C27 C26 1_555 1_555
H17 C27 1_555 1_555
C28 C27 1_555 1_555
H18 C28 1_555 1_555
C29 C26 1_555 1_555
H19 C29 1_555 1_555
C30 C31 1_555 1_555
C31 C28 1_555 1_555
C32 C29 1_555 1_555
H20 C32 1_555 1_555
C33 H21 1_555 1_555
C34 H22 1_555 1_555
C35 H23 1_555 1_555
C36 H24 1_555 1_555
Cd1 N1 1_555 1_555
Cd2 N2 1_555 1_555
Cd3 N4 1_555 1_555
N1 C34 1_555 1_555
N2 C33 1_555 1_555
N3 C33 1_555 1_555
N4 C35 1_555 1_555
N5 C36 1_555 1_555
N6 C35 1_555 1_555
O1 C1 1_555 1_555
O2 C1 1_555 1_555
O3 C30 1_555 1_555
O4 C30 1_555 1_555
O5 C16 1_555 1_555
O6 C16 1_555 1_555
O7 C17 1_555 1_555
O8 C17 1_555 1_555
O9 Cd2 1_555 1_555
O10 Cd2 1_555 1_555
H25 O10 1_555 1_555
H26 O9 1_555 1_555
H27 O10 1_555 1_555
H28 O9 1_555 1_555
O11 C37 1_555 1_555
N7 C37 1_555 1_555
C37 H29 1_555 1_555
C38 N7 1_555 1_555
H30 C38 1_555 1_555
H31 C38 1_555 1_555
H32 C38 1_555 1_555
C39 N7 1_555 1_555
H33 C39 1_555 1_555
H34 C39 1_555 1_555
H35 C39 1_555 1_555
Cd1_2 O5 1_555 1_555
Cd2_2 O6 1_555 1_555
Cd2C N6 1_555 1_555
Cd3_2 O5 1_555 1_555
Cd3B N3 1_555 1_555
Cd3C O3 1_555 1_555
N3B Cd3 1_555 1_555
N6C Cd2 1_555 1_555
O3C Cd3 1_555 1_555
O4C Cd3 1_555 1_555
O5_2 Cd1 1_555 1_555
O6_2 Cd1 1_555 1_555
C6 C7 1_555 1_555
C14 C15 1_555 1_555
C22 C23 1_555 1_555
C31 C32 1_555 1_555
C34 N3 1_555 1_555
C36 N6 1_555 1_555
Cd1 N5 1_555 1_555
Cd1 O2 1_555 1_555
Cd1 O7 1_555 1_555
Cd1 O8 1_555 1_555
Cd2 O7 1_555 1_555
Cd2 O6_2 1_555 1_555
Cd3 O1 1_555 1_555
Cd3 O2 1_555 1_555
Cd3 O5_2 1_555 1_555
N1 N2 1_555 1_555
N4 N5 1_555 1_555
O4 Cd3C 1_555 1_555
O6 Cd1_2 1_555 1_555

#END
