
#######################################################################
#
#                 Cambridge Crystallographic Data Centre
#                                CCDC 
#
#######################################################################
#
# If this CIF has been generated from an entry in the Cambridge 
# Structural Database, then it will include bibliographic, chemical, 
# crystal, experimental, refinement or atomic coordinate data resulting 
# from the CCDC's data processing and validation procedures.
#
#######################################################################

data_YUMLAV
_symmetry_cell_setting           tetragonal
_symmetry_space_group_name_H-M   'I -4 2 d'
_symmetry_Int_Tables_number      122
_space_group_name_Hall           'I -4 2bw'
loop_
_symmetry_equiv_pos_site_id
_symmetry_equiv_pos_as_xyz
1 x,y,z
2 -x,-y,z
3 y,-x,-z
4 -y,x,-z
5 1/2-x,y,3/4-z
6 1/2+x,-y,3/4-z
7 1/2-y,-x,3/4+z
8 1/2+y,x,3/4+z
9 1/2+x,1/2+y,1/2+z
10 1/2-x,1/2-y,1/2+z
11 1/2+y,1/2-x,1/2-z
12 1/2-y,1/2+x,1/2-z
13 -x,1/2+y,1/4-z
14 x,1/2-y,1/4-z
15 -y,1/2-x,1/4+z
16 y,1/2+x,1/4+z
_cell_length_a                   24.6437(7)
_cell_length_b                   24.6437(7)
_cell_length_c                   20.6139(8)
_cell_angle_alpha                90
_cell_angle_beta                 90
_cell_angle_gamma                90
_cell_volume                     12519.1
loop_
_atom_site_label
_atom_site_type_symbol
_atom_site_fract_x
_atom_site_fract_y
_atom_site_fract_z
Cu1 Cu 0.36088(5) 0.31742(5) 0.12055(9)
Cl1 Cl 0.43068(15) 0.2500 0.1250
N1 N 0.4131(4) 0.3854(4) 0.1125(8)
P1 P 0.31815(15) 0.30531(12) 0.0250(2)
P2 P 0.31553(15) 0.31959(13) 0.2151(2)
C1 C 0.3956(5) 0.4331(5) 0.1144(11)
C2 C 0.4647(6) 0.3824(5) 0.1066(9)
C3 C 0.2776(5) 0.2428(5) 0.0180(8)
C4 C 0.3587(9) 0.3049(7) -0.0480(11)
C5 C 0.2692(8) 0.3577(7) 0.0064(10)
C6 C 0.2622(9) 0.3722(7) 0.2216(12)
C7 C 0.3525(8) 0.3331(7) 0.2859(11)
H1 H 0.3584 0.4385 0.1183
C8 C 0.4293(5) 0.4788(5) 0.1107(11)
C9 C 0.5007(5) 0.4251(5) 0.1023(9)
H2 H 0.4796 0.3477 0.1051
H3 H 0.2472 0.2450 0.0479
H4 H 0.2629 0.2406 -0.0255
C10 C 0.3430(10) 0.3043(8) -0.1113(14)
C11 C 0.4207(8) 0.3021(7) -0.0387(11)
C12 C 0.2853(9) 0.4045(8) -0.0256(12)
C13 C 0.2162(9) 0.3549(8) 0.0284(11)
C14 C 0.2123(11) 0.3632(9) 0.1932(13)
C15 C 0.2731(9) 0.4212(8) 0.2525(11)
C16 C 0.3264(10) 0.3343(8) 0.3455(14)
C17 C 0.4075(8) 0.3423(7) 0.2845(11)
H5 H 0.4131 0.5129 0.1104
C18 C 0.4830(5) 0.4760(4) 0.1077(9)
H6 H 0.5374 0.4184 0.0956
H7 H 0.3059 0.3057 -0.1196
C19 C 0.3772(12) 0.3017(10) -0.1648(13)
C20 C 0.4519(11) 0.2999(9) -0.0938(15)
H8 H 0.4362 0.3019 0.0024
H9 H 0.3205 0.4073 -0.0415
C21 C 0.2494(12) 0.4470(8) -0.0341(12)
C22 C 0.1802(11) 0.3979(9) 0.0208(12)
H10 H 0.2043 0.3234 0.0488
C23 C 0.1720(12) 0.4035(10) 0.1959(14)
H11 H 0.2053 0.3304 0.1724
C24 C 0.2349(12) 0.4628(9) 0.2580(14)
H12 H 0.3074 0.4265 0.2703
H13 H 0.2892 0.3285 0.3465
C25 C 0.3532(12) 0.3437(10) 0.4038(14)
H14 H 0.4252 0.3418 0.2447
C26 C 0.4376(10) 0.3522(10) 0.3404(15)
H15 H 0.3629 0.3015 -0.2066
C27 C 0.4321(12) 0.2994(10) -0.1557(15)
H16 H 0.4894 0.2986 -0.0885
H17 H 0.2606 0.4779 -0.0562
C28 C 0.1976(11) 0.4441(8) -0.0104(12)
H18 H 0.1450 0.3955 0.0366
C29 C 0.1858(13) 0.4513(11) 0.2276(15)
H19 H 0.1379 0.3984 0.1775
H20 H 0.2417 0.4951 0.2799
C30 C 0.4081(10) 0.3519(10) 0.3977(13)
H21 H 0.3355 0.3444 0.4436
H22 H 0.4748 0.3586 0.3394
H23 H 0.4556 0.2976 -0.1909
H24 H 0.1742 0.4733 -0.0154
H25 H 0.1595 0.4784 0.2286
H26 H 0.4274 0.3577 0.4358
Cu1M Cu 0.36088(5) 0.18258(5) 0.12945(9)
C3M C 0.2776(5) 0.2572(5) 0.2320(8)
P2M P 0.31553(15) 0.18041(13) 0.0349(2)
P1M P 0.31815(15) 0.19469(12) 0.2250(2)
N1M N 0.4131(4) 0.1146(4) 0.1375(8)
H3M H 0.2472 0.2550 0.2021
H4M H 0.2629 0.2594 0.2755
C6M C 0.2622(9) 0.1278(7) 0.0284(12)
C7M C 0.3525(8) 0.1669(7) -0.0359(11)
C5M C 0.2692(8) 0.1423(7) 0.2436(10)
C4M C 0.3587(9) 0.1951(7) 0.2980(11)
C14M C 0.2123(11) 0.1368(9) 0.0568(13)
C15M C 0.2731(9) 0.0788(8) -0.0025(11)
C17M C 0.4075(8) 0.1577(7) -0.0345(11)
C16M C 0.3264(10) 0.1657(8) -0.0955(14)
C13M C 0.2162(9) 0.1451(8) 0.2216(11)
C12M C 0.2853(9) 0.0955(8) 0.2756(12)
C10M C 0.3430(10) 0.1957(8) 0.3613(14)
C11M C 0.4207(8) 0.1979(7) 0.2887(11)
C18A C 0.5170(5) 0.5240(4) 0.1077(9)
H11M H 0.2053 0.1696 0.0776
C23M C 0.1720(12) 0.0965(10) 0.0541(14)
C24M C 0.2349(12) 0.0372(9) -0.0080(14)
H12M H 0.3074 0.0735 -0.0203
H14M H 0.4252 0.1582 0.0053
C26M C 0.4376(10) 0.1478(10) -0.0904(15)
C25M C 0.3532(12) 0.1563(10) -0.1538(14)
H13M H 0.2892 0.1715 -0.0965
H10M H 0.2043 0.1766 0.2012
C22M C 0.1802(11) 0.1021(9) 0.2292(12)
C21M C 0.2494(12) 0.0530(8) 0.2841(12)
H9M H 0.3205 0.0927 0.2915
H7M H 0.3059 0.1943 0.3696
C19M C 0.3772(12) 0.1983(10) 0.4148(13)
C20M C 0.4519(11) 0.2001(9) 0.3438(15)
H8M H 0.4362 0.1981 0.2476
C8A C 0.5707(5) 0.5212(5) 0.1107(11)
C9A C 0.4993(5) 0.5749(5) 0.1023(9)
H19M H 0.1379 0.1016 0.0725
C29M C 0.1858(13) 0.0487(11) 0.0224(15)
H20M H 0.2417 0.0049 -0.0299
H22M H 0.4748 0.1414 -0.0894
C30M C 0.4081(10) 0.1481(10) -0.1477(13)
H21M H 0.3355 0.1556 -0.1936
C28M C 0.1976(11) 0.0559(8) 0.2604(12)
H18M H 0.1450 0.1045 0.2134
H17M H 0.2606 0.0221 0.3062
C27M C 0.4321(12) 0.2006(10) 0.4057(15)
H15M H 0.3629 0.1985 0.4566
H16M H 0.4894 0.2014 0.3385
C1A C 0.6044(5) 0.5669(5) 0.1144(11)
H5A H 0.5869 0.4871 0.1104
H6A H 0.4626 0.5816 0.0956
C2A C 0.5353(6) 0.6176(5) 0.1066(9)
H25M H 0.1595 0.0216 0.0214
H26M H 0.4274 0.1423 -0.1858
H24M H 0.1742 0.0267 0.2654
H23M H 0.4556 0.2024 0.4409
N1A N 0.5869(4) 0.6146(4) 0.1125(8)
H1A H 0.6416 0.5615 0.1183
H2A H 0.5204 0.6523 0.1051
Cu1A Cu 0.63912(5) 0.68258(5) 0.12055(9)
Cl2 Cl 0.1091(4) 0.2500 0.1250
O1 O 0.0905(18) 0.201(2) 0.097(3)
O2 O 0.0898(16) 0.2951(17) 0.089(2)
O1M O 0.0905(18) 0.299(2) 0.153(3)
O2M O 0.0898(16) 0.2049(17) 0.161(2)
O3? O 0.1665(10) 0.2500 0.1250
O4? O 0.0903(16) 0.255(2) 0.189(2)
loop_
_geom_bond_atom_site_label_1
_geom_bond_atom_site_label_2
_geom_bond_site_symmetry_1
_geom_bond_site_symmetry_2
Cu1 Cl1 1_555 1_555
Cl1 Cu1M 1_555 1_555
N1 Cu1 1_555 1_555
P1 Cu1 1_555 1_555
P2 Cu1 1_555 1_555
C1 N1 1_555 1_555
C2 N1 1_555 1_555
C3 P1 1_555 1_555
C4 P1 1_555 1_555
C5 P1 1_555 1_555
C6 P2 1_555 1_555
C7 P2 1_555 1_555
H1 C1 1_555 1_555
C8 C1 1_555 1_555
C9 C2 1_555 1_555
H2 C2 1_555 1_555
H3 C3 1_555 1_555
H4 C3 1_555 1_555
C10 C4 1_555 1_555
C11 C4 1_555 1_555
C12 C5 1_555 1_555
C13 C5 1_555 1_555
C14 C6 1_555 1_555
C15 C6 1_555 1_555
C16 C7 1_555 1_555
C17 C7 1_555 1_555
H5 C8 1_555 1_555
C18 C8 1_555 1_555
H6 C9 1_555 1_555
H7 C10 1_555 1_555
C19 C10 1_555 1_555
C20 C11 1_555 1_555
H8 C11 1_555 1_555
H9 C12 1_555 1_555
C21 C12 1_555 1_555
C22 C13 1_555 1_555
H10 C13 1_555 1_555
C23 C14 1_555 1_555
H11 C14 1_555 1_555
C24 C15 1_555 1_555
H12 C15 1_555 1_555
H13 C16 1_555 1_555
C25 C16 1_555 1_555
H14 C17 1_555 1_555
C26 C17 1_555 1_555
H15 C19 1_555 1_555
C27 C19 1_555 1_555
H16 C20 1_555 1_555
H17 C21 1_555 1_555
C28 C21 1_555 1_555
H18 C22 1_555 1_555
C29 C23 1_555 1_555
H19 C23 1_555 1_555
H20 C24 1_555 1_555
C30 C25 1_555 1_555
H21 C25 1_555 1_555
H22 C26 1_555 1_555
H23 C27 1_555 1_555
H24 C28 1_555 1_555
H25 C29 1_555 1_555
H26 C30 1_555 1_555
Cl2 O1 1_555 1_555
O2 Cl2 1_555 1_555
Cu1M P2M 1_555 1_555
C3M P2 1_555 1_555
P2M C3 1_555 1_555
P1M Cu1M 1_555 1_555
N1M Cu1M 1_555 1_555
H3M C3M 1_555 1_555
H4M C3M 1_555 1_555
C6M P2M 1_555 1_555
C7M P2M 1_555 1_555
C5M P1M 1_555 1_555
C4M P1M 1_555 1_555
C14M C6M 1_555 1_555
C15M C6M 1_555 1_555
C17M C7M 1_555 1_555
C16M C7M 1_555 1_555
C13M C5M 1_555 1_555
C12M C5M 1_555 1_555
C10M C4M 1_555 1_555
C11M C4M 1_555 1_555
C18A C18 1_555 1_555
H11M C14M 1_555 1_555
C23M C14M 1_555 1_555
C24M C15M 1_555 1_555
H12M C15M 1_555 1_555
H14M C17M 1_555 1_555
C26M C17M 1_555 1_555
C25M C16M 1_555 1_555
H13M C16M 1_555 1_555
H10M C13M 1_555 1_555
C22M C13M 1_555 1_555
C21M C12M 1_555 1_555
H9M C12M 1_555 1_555
H7M C10M 1_555 1_555
C19M C10M 1_555 1_555
C20M C11M 1_555 1_555
H8M C11M 1_555 1_555
C8A C18A 1_555 1_555
C9A C18A 1_555 1_555
H19M C23M 1_555 1_555
C29M C23M 1_555 1_555
H20M C24M 1_555 1_555
H22M C26M 1_555 1_555
C30M C26M 1_555 1_555
H21M C25M 1_555 1_555
C28M C22M 1_555 1_555
H18M C22M 1_555 1_555
H17M C21M 1_555 1_555
C27M C19M 1_555 1_555
H15M C19M 1_555 1_555
H16M C20M 1_555 1_555
C1A C8A 1_555 1_555
H5A C8A 1_555 1_555
H6A C9A 1_555 1_555
C2A C9A 1_555 1_555
H25M C29M 1_555 1_555
H26M C30M 1_555 1_555
H24M C28M 1_555 1_555
H23M C27M 1_555 1_555
N1A C1A 1_555 1_555
H1A C1A 1_555 1_555
H2A C2A 1_555 1_555
Cu1A N1A 1_555 1_555
O1M Cl2 1_555 1_555
O2M Cl2 1_555 1_555
C9 C18 1_555 1_555
C20 C27 1_555 1_555
C22 C28 1_555 1_555
C24 C29 1_555 1_555
C26 C30 1_555 1_555
C3M P1M 1_555 1_555
C24M C29M 1_555 1_555
C25M C30M 1_555 1_555
C21M C28M 1_555 1_555
C20M C27M 1_555 1_555
C2A N1A 1_555 1_555

#END
