
#######################################################################
#
#                 Cambridge Crystallographic Data Centre
#                                CCDC 
#
#######################################################################
#
# If this CIF has been generated from an entry in the Cambridge 
# Structural Database, then it will include bibliographic, chemical, 
# crystal, experimental, refinement or atomic coordinate data resulting 
# from the CCDC's data processing and validation procedures.
#
#######################################################################

data_YUMVOT
_symmetry_cell_setting           monoclinic
_symmetry_space_group_name_H-M   'C 2/c'
_symmetry_Int_Tables_number      15
_space_group_name_Hall           '-C 2yn'
loop_
_symmetry_equiv_pos_site_id
_symmetry_equiv_pos_as_xyz
1 x,y,z
2 -x,y,1/2-z
3 1/2+x,1/2+y,z
4 1/2-x,1/2+y,1/2-z
5 -x,-y,-z
6 x,-y,1/2+z
7 1/2-x,1/2-y,-z
8 1/2+x,1/2-y,1/2+z
_cell_length_a                   24.044(3)
_cell_length_b                   10.7102(14)
_cell_length_c                   16.138(2)
_cell_angle_alpha                90
_cell_angle_beta                 110.264(2)
_cell_angle_gamma                90
_cell_volume                     3898.58
loop_
_atom_site_label
_atom_site_type_symbol
_atom_site_fract_x
_atom_site_fract_y
_atom_site_fract_z
Pb1 Pb 0.0000 1.30940(6) 0.2500
Pb2 Pb 0.15838(2) 1.31055(4) 0.43373(3)
O1 O 0.1641(4) 0.5475(9) 0.5067(7)
O2 O 0.2026(5) 1.2123(10) 0.3158(8)
H1 H 0.184(6) 1.153(10) 0.287(10)
H2 H 0.237(2) 1.189(13) 0.332(12)
O3 O 0.1855(4) 0.3776(8) 0.5922(7)
O4 O 0.1334(4) 1.1241(8) 0.5219(7)
O5 O 0.2257(4) 1.1262(8) 0.5221(7)
O6 O -0.0221(4) 1.2398(9) 0.4151(6)
O7 O 0.0489(4) 1.3737(9) 0.4174(6)
O8 O -0.1431(5) 1.0247(10) 0.6889(10)
O9 O -0.0831(4) 0.8713(10) 0.6809(7)
N1 N 0.2081(4) 0.7065(9) 0.6414(7)
N2 N 0.0043(5) 1.2464(9) 0.5919(7)
C1 C 0.1563(6) 0.7649(12) 0.6254(10)
H3 H 0.1256 0.7238 0.6367
C2 C 0.1475(6) 0.8837(12) 0.5929(10)
H4 H 0.1108 0.9219 0.5804
C3 C 0.1932(6) 0.9464(11) 0.5787(9)
C4 C 0.2470(6) 0.8861(12) 0.5962(11)
H5 H 0.2781 0.9255 0.5851
C5 C 0.2536(6) 0.7666(13) 0.6303(11)
H6 H 0.2904 0.7275 0.6458
C6 C 0.2131(6) 0.5736(11) 0.6654(9)
H7 H 0.1928 0.5568 0.7067
H8 H 0.2545 0.5507 0.6931
C7 C 0.1844(5) 0.4968(12) 0.5789(10)
C8 C 0.1841(5) 1.0751(11) 0.5387(8)
C9 C 0.0195(6) 1.1240(13) 0.5988(10)
H9 H 0.0520 1.0977 0.5847
C10 C -0.0126(6) 1.0398(12) 0.6262(10)
H10 H -0.0018 0.9560 0.6312
C11 C -0.0616(5) 1.0783(12) 0.6470(8)
C12 C -0.0738(7) 1.2057(13) 0.6422(12)
H11 H -0.1048 1.2355 0.6586
C13 C -0.0409(6) 1.2867(12) 0.6141(11)
H12 H -0.0500 1.3714 0.6103
C14 C 0.0375(6) 1.3322(12) 0.5536(10)
H13 H 0.0797 1.3171 0.5809
H14 H 0.0297 1.4181 0.5652
C15 C 0.0180(5) 1.3102(10) 0.4523(9)
C16 C -0.0995(6) 0.9841(12) 0.6756(10)
Br1 Br -0.09222(6) 1.48902(12) 0.24552(9)
Pb2A Pb -0.15838(2) 1.31055(4) 0.06627(3)
O1A O -0.1641(4) 0.5475(9) -0.0067(7)
O2A O -0.2026(5) 1.2123(10) 0.1842(8)
H1A H -0.184(6) 1.153(10) 0.213(10)
H2A H -0.237(2) 1.189(13) 0.168(12)
O3A O -0.1855(4) 0.3776(8) -0.0922(7)
O4A O -0.1334(4) 1.1241(8) -0.0219(7)
O5A O -0.2257(4) 1.1262(8) -0.0221(7)
O6A O 0.0221(4) 1.2398(9) 0.0849(6)
O7A O -0.0489(4) 1.3737(9) 0.0826(6)
O8A O 0.1431(5) 1.0247(10) -0.1889(10)
O9A O 0.0831(4) 0.8713(10) -0.1809(7)
N1A N -0.2081(4) 0.7065(9) -0.1414(7)
N2A N -0.0043(5) 1.2464(9) -0.0919(7)
C1A C -0.1563(6) 0.7649(12) -0.1254(10)
H3A H -0.1256 0.7238 -0.1367
C2A C -0.1475(6) 0.8837(12) -0.0929(10)
H4A H -0.1108 0.9219 -0.0804
C3A C -0.1932(6) 0.9464(11) -0.0787(9)
C4A C -0.2470(6) 0.8861(12) -0.0962(11)
H5A H -0.2781 0.9255 -0.0851
C5A C -0.2536(6) 0.7666(13) -0.1303(11)
H6A H -0.2904 0.7275 -0.1458
C6A C -0.2131(6) 0.5736(11) -0.1654(9)
H7A H -0.1928 0.5568 -0.2067
H8A H -0.2545 0.5507 -0.1931
C7A C -0.1844(5) 0.4968(12) -0.0789(10)
C8A C -0.1841(5) 1.0751(11) -0.0387(8)
C9A C -0.0195(6) 1.1240(13) -0.0988(10)
H9A H -0.0520 1.0977 -0.0847
C10A C 0.0126(6) 1.0398(12) -0.1262(10)
H10A H 0.0018 0.9560 -0.1312
C11A C 0.0616(5) 1.0783(12) -0.1470(8)
C12A C 0.0738(7) 1.2057(13) -0.1422(12)
H11A H 0.1048 1.2355 -0.1586
C13A C 0.0409(6) 1.2867(12) -0.1141(11)
H12A H 0.0500 1.3714 -0.1103
C14A C -0.0375(6) 1.3322(12) -0.0536(10)
H13A H -0.0797 1.3171 -0.0809
H14A H -0.0297 1.4181 -0.0652
C15A C -0.0180(5) 1.3102(10) 0.0477(9)
C16A C 0.0995(6) 0.9841(12) -0.1756(10)
Br1A Br 0.09222(6) 1.48902(12) 0.25448(9)
Pb1D Pb 0.0000 0.69060(6) -0.2500
Pb1D_2 Pb 0.0000 0.69060(6) 0.7500
Pb2_2 Pb 0.15838(2) 0.31055(4) 0.43373(3)
Pb2A_2 Pb -0.15838(2) 0.31055(4) 0.06627(3)
Pb2D Pb -0.15838(2) 0.68945(4) 0.56627(3)
Pb2E Pb 0.15838(2) 0.68945(4) -0.06627(3)
Pb2F Pb 0.34162(2) 1.18945(4) 0.56627(3)
Pb2G Pb -0.34162(2) 1.18945(4) -0.06627(3)
O1_2 O 0.1641(4) 1.5475(9) 0.5067(7)
O1A_2 O -0.1641(4) 1.5475(9) -0.0067(7)
O3_2 O 0.1855(4) 1.3776(8) 0.5922(7)
O3A_2 O -0.1855(4) 1.3776(8) -0.0922(7)
O5F O 0.2743(4) 1.3738(8) 0.4779(7)
O5G O -0.2743(4) 1.3738(8) 0.0221(7)
O9D O 0.0831(4) 1.1287(10) 0.3191(7)
O9E O -0.0831(4) 1.1287(10) 0.1809(7)
loop_
_geom_bond_atom_site_label_1
_geom_bond_atom_site_label_2
_geom_bond_site_symmetry_1
_geom_bond_site_symmetry_2
Pb1 O7 1_555 1_555
Pb2 O2 1_555 1_555
O1 C7 1_555 1_555
O2 H1 1_555 1_555
H2 O2 1_555 1_555
O3 C7 1_555 1_555
O4 Pb2 1_555 1_555
O5 Pb2 1_555 1_555
O6 C15 1_555 1_555
O7 Pb2 1_555 1_555
O8 C16 1_555 1_555
O9 C16 1_555 1_555
N1 C1 1_555 1_555
N2 C9 1_555 1_555
C1 H3 1_555 1_555
C2 C1 1_555 1_555
H4 C2 1_555 1_555
C3 C2 1_555 1_555
C4 C3 1_555 1_555
H5 C4 1_555 1_555
C5 N1 1_555 1_555
H6 C5 1_555 1_555
C6 N1 1_555 1_555
H7 C6 1_555 1_555
H8 C6 1_555 1_555
C7 C6 1_555 1_555
C8 O4 1_555 1_555
C9 H9 1_555 1_555
C10 C9 1_555 1_555
H10 C10 1_555 1_555
C11 C10 1_555 1_555
C12 C11 1_555 1_555
H11 C12 1_555 1_555
C13 N2 1_555 1_555
H12 C13 1_555 1_555
C14 N2 1_555 1_555
H13 C14 1_555 1_555
H14 C14 1_555 1_555
C15 O7 1_555 1_555
C16 C11 1_555 1_555
Br1 Pb1 1_555 1_555
Pb2A O2A 1_555 1_555
O1A C7A 1_555 1_555
O2A H1A 1_555 1_555
H2A O2A 1_555 1_555
O3A C7A 1_555 1_555
O4A Pb2A 1_555 1_555
O5A Pb2A 1_555 1_555
O6A C15A 1_555 1_555
O7A Pb1 1_555 1_555
O8A C16A 1_555 1_555
O9A C16A 1_555 1_555
N1A C1A 1_555 1_555
N2A C9A 1_555 1_555
C1A H3A 1_555 1_555
C2A C1A 1_555 1_555
H4A C2A 1_555 1_555
C3A C2A 1_555 1_555
C4A C3A 1_555 1_555
H5A C4A 1_555 1_555
C5A N1A 1_555 1_555
H6A C5A 1_555 1_555
C6A N1A 1_555 1_555
H7A C6A 1_555 1_555
H8A C6A 1_555 1_555
C7A C6A 1_555 1_555
C8A O4A 1_555 1_555
C9A H9A 1_555 1_555
C10A C9A 1_555 1_555
H10A C10A 1_555 1_555
C11A C10A 1_555 1_555
C12A C11A 1_555 1_555
H11A C12A 1_555 1_555
C13A N2A 1_555 1_555
H12A C13A 1_555 1_555
C14A N2A 1_555 1_555
H13A C14A 1_555 1_555
H14A C14A 1_555 1_555
C15A O7A 1_555 1_555
C16A C11A 1_555 1_555
Br1A Pb1 1_555 1_555
Pb1D O9A 1_555 1_555
Pb1D_2 O9 1_555 1_555
Pb2_2 O1 1_555 1_555
Pb2A_2 O1A 1_555 1_555
Pb2D O9 1_555 1_555
Pb2E O9A 1_555 1_555
Pb2F O5 1_555 1_555
Pb2G O5A 1_555 1_555
O1_2 Pb2 1_555 1_555
O1A_2 Pb2A 1_555 1_555
O3_2 Pb2 1_555 1_555
O3A_2 Pb2A 1_555 1_555
O5F Pb2 1_555 1_555
O5G Pb2A 1_555 1_555
O9D Pb1 1_555 1_555
O9E Pb1 1_555 1_555
Pb2 O9D 1_555 1_555
O3 Pb2_2 1_555 1_555
O5 C8 1_555 1_555
C3 C8 1_555 1_555
C4 C5 1_555 1_555
C12 C13 1_555 1_555
C14 C15 1_555 1_555
Pb2A O7A 1_555 1_555
Pb2A O9E 1_555 1_555
O3A Pb2A_2 1_555 1_555
O5A C8A 1_555 1_555
C3A C8A 1_555 1_555
C4A C5A 1_555 1_555
C12A C13A 1_555 1_555
C14A C15A 1_555 1_555
Pb2F O5F 1_555 1_555
Pb2G O5G 1_555 1_555

#END
