
#######################################################################
#
#                 Cambridge Crystallographic Data Centre
#                                CCDC 
#
#######################################################################
#
# If this CIF has been generated from an entry in the Cambridge 
# Structural Database, then it will include bibliographic, chemical, 
# crystal, experimental, refinement or atomic coordinate data resulting 
# from the CCDC's data processing and validation procedures.
#
#######################################################################

data_YUMVUZ
_symmetry_cell_setting           orthorhombic
_symmetry_space_group_name_H-M   'F d d 2'
_symmetry_Int_Tables_number      43
_space_group_name_Hall           'F 2 -2d'
loop_
_symmetry_equiv_pos_site_id
_symmetry_equiv_pos_as_xyz
1 x,y,z
2 -x,-y,z
3 1/4-x,1/4+y,1/4+z
4 1/4+x,1/4-y,1/4+z
5 x,1/2+y,1/2+z
6 -x,1/2-y,1/2+z
7 1/4-x,3/4+y,3/4+z
8 1/4+x,3/4-y,3/4+z
9 1/2+x,y,1/2+z
10 1/2-x,-y,1/2+z
11 3/4-x,1/4+y,3/4+z
12 3/4+x,1/4-y,3/4+z
13 1/2+x,1/2+y,z
14 1/2-x,1/2-y,z
15 3/4-x,3/4+y,1/4+z
16 3/4+x,3/4-y,1/4+z
_cell_length_a                   10.5744(5)
_cell_length_b                   39.183(3)
_cell_length_c                   9.2768(5)
_cell_angle_alpha                90
_cell_angle_beta                 90
_cell_angle_gamma                90
_cell_volume                     3843.72
loop_
_atom_site_label
_atom_site_type_symbol
_atom_site_fract_x
_atom_site_fract_y
_atom_site_fract_z
Pr1 Pr 0.2500 0.2500 0.40098(6)
O1 O 0.4697(3) 0.23157(8) 0.3736(3)
O2 O 0.2113(3) 0.19335(8) 0.4934(3)
O3 O 0.3252(3) 0.15520(8) 0.3670(4)
O4 O -0.1222(2) 0.06311(7) 0.7507(3)
O5 O -0.0876(2) 0.02958(7) 0.9414(3)
O6 O 0.1478(3) 0.25363(7) 0.6600(3)
O7 O 0.2500 0.2500 0.8638(4)
N1 N 0.1251(3) 0.08330(8) 0.7360(3)
N2 N 0.2500 0.2500 0.7313(5)
C1 C 0.1794(3) 0.07589(10) 0.6086(4)
H1 H 0.1913 0.0528 0.5809
C2 C 0.2176(4) 0.10177(10) 0.5186(4)
H2 H 0.2558 0.0966 0.4285
C3 C 0.2003(4) 0.13541(10) 0.5594(4)
C4 C 0.1394(3) 0.14235(10) 0.6894(4)
H3 H 0.1229 0.1653 0.7171
C5 C 0.1034(3) 0.11587(9) 0.7770(4)
H4 H 0.0633 0.1204 0.8665
C6 C 0.2511(3) 0.16352(12) 0.4623(5)
C7 C 0.0893(3) 0.05528(10) 0.8355(4)
H5 H 0.1200 0.0608 0.9336
H6 H 0.1317 0.0340 0.8042
C8 C -0.0535(3) 0.04920(9) 0.8411(4)
H7 H 0.493(4) 0.2134(9) 0.408(7)
H8 H 0.512(5) 0.237(2) 0.304(5)
O6M O 0.3522(3) 0.24637(7) 0.6600(3)
O1M O 0.0303(3) 0.26843(8) 0.3736(3)
O2M O 0.2887(3) 0.30665(8) 0.4934(3)
O3M O 0.1748(3) 0.34480(8) 0.3670(4)
O4M O 0.6222(2) 0.43689(7) 0.7507(3)
O5M O 0.5876(2) 0.47042(7) 0.9414(3)
N1M N 0.3749(3) 0.41670(8) 0.7360(3)
C1M C 0.3206(3) 0.42411(10) 0.6086(4)
H1M H 0.3087 0.4472 0.5809
C2M C 0.2824(4) 0.39823(10) 0.5186(4)
H2M H 0.2442 0.4034 0.4285
C3M C 0.2997(4) 0.36459(10) 0.5594(4)
C4M C 0.3606(3) 0.35765(10) 0.6894(4)
H3M H 0.3771 0.3347 0.7171
C5M C 0.3966(3) 0.38413(9) 0.7770(4)
H4M H 0.4367 0.3796 0.8665
C6M C 0.2489(3) 0.33648(12) 0.4623(5)
C7M C 0.4107(3) 0.44472(10) 0.8355(4)
H5M H 0.3800 0.4392 0.9336
H6M H 0.3683 0.4660 0.8042
C8M C 0.5535(3) 0.45080(9) 0.8411(4)
H7M H 0.007(4) 0.2866(9) 0.408(7)
H8M H -0.012(5) 0.263(2) 0.304(5)
Pr1F Pr 0.0000 0.0000 1.15098(6)
Pr1G Pr 0.5000 0.5000 1.15098(6)
O5B O 0.3376(2) 0.27958(7) 0.1914(3)
O5C O 0.1624(2) 0.22042(7) 0.1914(3)
loop_
_geom_bond_atom_site_label_1
_geom_bond_atom_site_label_2
_geom_bond_site_symmetry_1
_geom_bond_site_symmetry_2
Pr1 O1 1_555 1_555
O1 H7 1_555 1_555
O2 Pr1 1_555 1_555
O3 C6 1_555 1_555
O4 C8 1_555 1_555
O5 C8 1_555 1_555
O6 Pr1 1_555 1_555
O7 N2 1_555 1_555
N1 C1 1_555 1_555
N2 O6 1_555 1_555
C1 H1 1_555 1_555
C2 C1 1_555 1_555
H2 C2 1_555 1_555
C3 C2 1_555 1_555
C4 C3 1_555 1_555
H3 C4 1_555 1_555
C5 N1 1_555 1_555
H4 C5 1_555 1_555
C6 O2 1_555 1_555
C7 N1 1_555 1_555
H5 C7 1_555 1_555
H6 C7 1_555 1_555
C8 C7 1_555 1_555
H8 O1 1_555 1_555
O6M Pr1 1_555 1_555
O1M Pr1 1_555 1_555
O2M Pr1 1_555 1_555
O3M C6M 1_555 1_555
O4M C8M 1_555 1_555
O5M C8M 1_555 1_555
N1M C1M 1_555 1_555
C1M H1M 1_555 1_555
C2M C1M 1_555 1_555
H2M C2M 1_555 1_555
C3M C2M 1_555 1_555
C4M C3M 1_555 1_555
H3M C4M 1_555 1_555
C5M N1M 1_555 1_555
H4M C5M 1_555 1_555
C6M O2M 1_555 1_555
C7M N1M 1_555 1_555
H5M C7M 1_555 1_555
H6M C7M 1_555 1_555
C8M C7M 1_555 1_555
H7M O1M 1_555 1_555
H8M O1M 1_555 1_555
Pr1F O5 1_555 1_555
Pr1G O5M 1_555 1_555
O5B Pr1 1_555 1_555
O5C Pr1 1_555 1_555
N2 O6M 1_555 1_555
C3 C6 1_555 1_555
C4 C5 1_555 1_555
C3M C6M 1_555 1_555
C4M C5M 1_555 1_555

#END
