
#######################################################################
#
#                 Cambridge Crystallographic Data Centre
#                                CCDC 
#
#######################################################################
#
# If this CIF has been generated from an entry in the Cambridge 
# Structural Database, then it will include bibliographic, chemical, 
# crystal, experimental, refinement or atomic coordinate data resulting 
# from the CCDC's data processing and validation procedures.
#
#######################################################################

data_YUMVIN
_symmetry_cell_setting           orthorhombic
_symmetry_space_group_name_H-M   'P 21 21 21'
_symmetry_Int_Tables_number      19
_space_group_name_Hall           'P 2ac 2ab'
loop_
_symmetry_equiv_pos_site_id
_symmetry_equiv_pos_as_xyz
1 x,y,z
2 1/2-x,-y,1/2+z
3 -x,1/2+y,1/2-z
4 1/2+x,1/2-y,-z
_cell_length_a                   4.5139(3)
_cell_length_b                   11.3181(7)
_cell_length_c                   20.4554(14)
_cell_angle_alpha                90
_cell_angle_beta                 90
_cell_angle_gamma                90
_cell_volume                     1045.04
loop_
_atom_site_label
_atom_site_type_symbol
_atom_site_fract_x
_atom_site_fract_y
_atom_site_fract_z
Pb1 Pb 0.36688(7) 0.58168(2) 0.946279(12)
O1 O 0.2510(13) 0.9175(5) 0.5163(3)
O2 O -0.1415(14) 0.8928(5) 0.5820(3)
O3 O -0.4395(14) 0.5344(5) 0.8313(3)
O4 O -0.0925(17) 0.6412(5) 0.8803(3)
O5 O -0.0394(17) 0.6748(6) 1.0350(4)
O6 O 0.2380(19) 0.5367(6) 1.0724(4)
O7 O -0.006(2) 0.6421(8) 1.1382(4)
N1 N 0.1091(18) 0.7090(5) 0.6455(3)
N2 N 0.059(2) 0.6188(6) 1.0832(4)
C1 C 0.200(2) 0.7658(7) 0.7000(4)
H1 H 0.3342 0.8278 0.6968
C2 C 0.095(2) 0.7325(7) 0.7598(4)
H2 H 0.1575 0.7714 0.7974
C3 C -0.106(2) 0.6397(6) 0.7641(4)
C4 C -0.2014(18) 0.5863(7) 0.7074(3)
H3 H -0.3405 0.5257 0.7091
C5 C -0.089(2) 0.6232(6) 0.6481(4)
H4 H -0.1525 0.5874 0.6097
C6 C 0.2344(18) 0.7481(7) 0.5815(4)
H5 H 0.1951 0.6881 0.5488
H6 H 0.4476 0.7561 0.5856
C7 C 0.1060(19) 0.8637(6) 0.5590(3)
C8 C -0.218(2) 0.6010(7) 0.8304(4)
Pb1_2 Pb -0.63312(7) 0.58168(2) 0.946279(12)
Pb1B Pb -0.36688(7) 1.08168(2) 0.553721(12)
Pb1B_2 Pb 0.63312(7) 1.08168(2) 0.553721(12)
Pb1C Pb -0.13312(7) 0.91832(2) 1.053721(12)
O1B O 0.7490(13) 0.4175(5) 0.9837(3)
O2B O 0.1415(14) 0.3928(5) 0.9180(3)
O3_2 O 0.5605(14) 0.5344(5) 0.8313(3)
O4_2 O 0.9075(17) 0.6412(5) 0.8803(3)
O5C O 0.4606(17) 0.8252(6) 0.9650(4)
loop_
_geom_bond_atom_site_label_1
_geom_bond_atom_site_label_2
_geom_bond_site_symmetry_1
_geom_bond_site_symmetry_2
Pb1 O4 1_555 1_555
O1 C7 1_555 1_555
O2 C7 1_555 1_555
O3 C8 1_555 1_555
O4 C8 1_555 1_555
O5 Pb1 1_555 1_555
O6 Pb1 1_555 1_555
O7 N2 1_555 1_555
N1 C1 1_555 1_555
N2 O5 1_555 1_555
C1 H1 1_555 1_555
C2 C1 1_555 1_555
H2 C2 1_555 1_555
C3 C2 1_555 1_555
C4 C3 1_555 1_555
H3 C4 1_555 1_555
C5 N1 1_555 1_555
H4 C5 1_555 1_555
C6 N1 1_555 1_555
H5 C6 1_555 1_555
H6 C6 1_555 1_555
C7 C6 1_555 1_555
C8 C3 1_555 1_555
Pb1_2 O3 1_555 1_555
Pb1B O2 1_555 1_555
Pb1B_2 O1 1_555 1_555
Pb1C O5 1_555 1_555
O1B Pb1 1_555 1_555
O2B Pb1 1_555 1_555
O3_2 Pb1 1_555 1_555
O4_2 Pb1 1_555 1_555
O5C Pb1 1_555 1_555
O4 Pb1_2 1_555 1_555
O6 N2 1_555 1_555
C4 C5 1_555 1_555

#END
