
#######################################################################
#
#                 Cambridge Crystallographic Data Centre
#                                CCDC 
#
#######################################################################
#
# If this CIF has been generated from an entry in the Cambridge 
# Structural Database, then it will include bibliographic, chemical, 
# crystal, experimental, refinement or atomic coordinate data resulting 
# from the CCDC's data processing and validation procedures.
#
#######################################################################

data_YUMYIQ
_symmetry_cell_setting           monoclinic
_symmetry_space_group_name_H-M   'P 21'
_symmetry_Int_Tables_number      4
_space_group_name_Hall           'P 2yb'
loop_
_symmetry_equiv_pos_site_id
_symmetry_equiv_pos_as_xyz
1 x,y,z
2 -x,1/2+y,-z
_cell_length_a                   8.1406(6)
_cell_length_b                   5.9229(4)
_cell_length_c                   11.2330(8)
_cell_angle_alpha                90
_cell_angle_beta                 98.219(6)
_cell_angle_gamma                90
_cell_volume                     536.047
loop_
_atom_site_label
_atom_site_type_symbol
_atom_site_fract_x
_atom_site_fract_y
_atom_site_fract_z
Mo1 Mo 0.52433(6) 0.09225(9) 0.80414(4)
Na1 Na 0.7289(3) 0.3044(4) 1.0678(2)
C1 C 0.9022(8) 0.0273(9) 0.8687(5)
C2 C 0.8469(8) -0.2104(10) 0.8286(5)
H1 H 0.9125 -0.3209 0.8801
C3 C 0.8679(9) -0.2541(11) 0.6976(5)
H2 H 0.9855 -0.2581 0.6913
H3 H 0.8221 -0.4013 0.6742
C4 C 0.7856(8) -0.0800(11) 0.6108(5)
C5 C 0.8202(9) -0.0241(10) 0.4993(5)
H4 H 0.9000 -0.0892 0.4586
C6 C 0.6180(8) 0.1908(11) 0.5451(5)
H5 H 0.5348 0.2994 0.5394
N1 N 0.6703(7) -0.2331(8) 0.8434(4)
H6 H 0.6635 -0.2766 0.9193
H7 H 0.6238 -0.3420 0.7937
N2 N 0.6599(6) 0.0555(9) 0.6395(4)
N3 N 0.7133(7) 0.1477(8) 0.4594(4)
H8 H 0.7082 0.2160 0.3914
O1 O 0.4915(4) 0.1002(10) 0.9542(3)
O2 O 0.3587(5) -0.0698(7) 0.7371(4)
O3 O 0.4885(6) 0.3669(7) 0.7503(4)
O4 O 0.7894(6) 0.1725(7) 0.8746(3)
O5 O 1.0536(5) 0.0645(10) 0.8958(3)
O6 O 0.8176(7) -0.0188(8) 1.1698(5)
H9 H 0.871(7) -0.130(7) 1.148(6)
H10 H 0.733(5) -0.063(9) 1.199(6)
Na1A Na 0.2711(3) -0.1956(4) 0.9322(2)
Na1A_2 Na 1.2711(3) -0.1956(4) 0.9322(2)
O1A O 0.5085(4) 0.6002(10) 1.0458(3)
O2A O 0.6413(5) 0.4302(7) 1.2629(4)
O5A O 0.9464(5) 0.5645(10) 1.1042(3)
loop_
_geom_bond_atom_site_label_1
_geom_bond_atom_site_label_2
_geom_bond_site_symmetry_1
_geom_bond_site_symmetry_2
Mo1 N1 1_555 1_555
Na1 O1 1_555 1_555
C1 C2 1_555 1_555
C2 H1 1_555 1_555
C3 C2 1_555 1_555
H2 C3 1_555 1_555
H3 C3 1_555 1_555
C4 C3 1_555 1_555
C5 C4 1_555 1_555
H4 C5 1_555 1_555
C6 H5 1_555 1_555
N1 C2 1_555 1_555
H6 N1 1_555 1_555
H7 N1 1_555 1_555
N2 Mo1 1_555 1_555
N3 C5 1_555 1_555
H8 N3 1_555 1_555
O1 Mo1 1_555 1_555
O2 Mo1 1_555 1_555
O3 Mo1 1_555 1_555
O4 Mo1 1_555 1_555
O5 C1 1_555 1_555
O6 Na1 1_555 1_555
H9 O6 1_555 1_555
H10 O6 1_555 1_555
Na1A O1 1_555 1_555
Na1A_2 O5 1_555 1_555
O1A Na1 1_555 1_555
O2A Na1 1_555 1_555
O5A Na1 1_555 1_555
Na1 O4 1_555 1_555
C1 O4 1_555 1_555
C4 N2 1_555 1_555
C6 N2 1_555 1_555
C6 N3 1_555 1_555
O2 Na1A 1_555 1_555

#END
