
#######################################################################
#
#                 Cambridge Crystallographic Data Centre
#                                CCDC 
#
#######################################################################
#
# If this CIF has been generated from an entry in the Cambridge 
# Structural Database, then it will include bibliographic, chemical, 
# crystal, experimental, refinement or atomic coordinate data resulting 
# from the CCDC's data processing and validation procedures.
#
#######################################################################

data_YUMZEM
_symmetry_cell_setting           monoclinic
_symmetry_space_group_name_H-M   'P 21/n'
_symmetry_Int_Tables_number      14
_space_group_name_Hall           '-P 2yn'
loop_
_symmetry_equiv_pos_site_id
_symmetry_equiv_pos_as_xyz
1 x,y,z
2 1/2-x,1/2+y,1/2-z
3 -x,-y,-z
4 1/2+x,1/2-y,1/2+z
_cell_length_a                   11.254(2)
_cell_length_b                   15.418(3)
_cell_length_c                   14.782(3)
_cell_angle_alpha                90
_cell_angle_beta                 112.23(3)
_cell_angle_gamma                90
_cell_volume                     2374.25
loop_
_atom_site_label
_atom_site_type_symbol
_atom_site_fract_x
_atom_site_fract_y
_atom_site_fract_z
Hg1 Hg 0.24682(5) 0.22392(3) 0.54268(4)
Cu1 Cu 0.57083(14) 0.21397(9) 0.57657(11)
S1 S 0.2509(6) 0.3132(3) 0.6757(4)
O1 O 0.4216(9) 0.2879(5) 0.5106(6)
C1 C 0.0738(17) 0.4016(11) 0.3913(13)
H1 H 0.0645 0.4529 0.4248
H2 H 0.0126 0.3588 0.3930
H3 H 0.0589 0.4156 0.3246
O2 O 0.2473(9) 0.0698(5) 0.6288(7)
O3 O 0.4434(8) 0.1398(5) 0.5952(7)
C2 C 0.4117(14) 0.3571(7) 0.4555(9)
C3 C 0.5485(14) -0.0869(8) 0.6337(10)
H4 H 0.6174 -0.1205 0.6345
C4 C 0.4996(19) 0.4627(10) 0.3770(11)
H5 H 0.5689 0.4837 0.3639
C5 C 0.4470(11) 0.0556(7) 0.6157(9)
C6 C 0.3411(13) -0.0730(8) 0.6474(10)
H6 H 0.2721 -0.0978 0.6580
C7 C 0.8231(16) 0.2936(10) 0.5978(13)
H7 H 0.8517 0.3417 0.6433
H8 H 0.8599 0.3015 0.5487
O4 O 0.1990(9) 0.3684(6) 0.4375(7)
N1 N 0.6941(10) 0.1149(7) 0.6024(9)
C8 C 0.3451(12) 0.0147(8) 0.6307(9)
N2 N 0.6870(12) 0.2977(7) 0.5510(9)
C9 C 0.4473(15) -0.1241(9) 0.6479(11)
H9 H 0.4472 -0.1837 0.6580
C10 C 0.6658(13) 0.0369(9) 0.6100(10)
H10 H 0.7267 -0.0041 0.6106
C11 C 0.5477(12) 0.0027(8) 0.6180(9)
C12 C 0.284(2) 0.4713(9) 0.3556(11)
H11 H 0.2048 0.4990 0.3284
C13 C 0.8233(14) 0.1325(11) 0.6005(16)
H12 H 0.8790 0.0831 0.6273
H13 H 0.8158 0.1405 0.5334
C14 C 0.6469(15) 0.3598(9) 0.4883(11)
H14 H 0.7098 0.3888 0.4735
C15 C 0.5201(16) 0.3894(8) 0.4391(10)
C16 C 0.2956(13) 0.4008(8) 0.4132(10)
C17 C 0.1508(16) 0.0364(11) 0.6573(15)
H15 H 0.1218 -0.0183 0.6254
H16 H 0.0802 0.0763 0.6391
H17 H 0.1845 0.0281 0.7268
C18 C 0.877(2) 0.2067(14) 0.6549(19)
H18 H 0.9697 0.2051 0.6728
H19 H 0.8608 0.2062 0.7147
C19 C 0.2556(17) 0.2420(13) 0.7629(16)
C20 C 0.388(2) 0.5029(10) 0.3365(12)
H20 H 0.3793 0.5510 0.2965
N3 N 0.264(2) 0.1991(14) 0.8306(14)
S2 S 0.1010(4) 0.1463(2) 0.4010(3)
N4 N 0.1364(13) 0.2333(8) 0.2434(9)
C21 C 0.1202(13) 0.1961(8) 0.3101(10)
Cu1C Cu 0.07083(14) 0.28603(9) 0.07657(11)
N4C N 0.6364(13) 0.2667(8) 0.7434(9)
loop_
_geom_bond_atom_site_label_1
_geom_bond_atom_site_label_2
_geom_bond_site_symmetry_1
_geom_bond_site_symmetry_2
Hg1 S1 1_555 1_555
Cu1 O1 1_555 1_555
S1 C19 1_555 1_555
O1 Hg1 1_555 1_555
C1 H1 1_555 1_555
H2 C1 1_555 1_555
H3 C1 1_555 1_555
O2 Hg1 1_555 1_555
O3 Hg1 1_555 1_555
C2 O1 1_555 1_555
C3 H4 1_555 1_555
C4 H5 1_555 1_555
C5 O3 1_555 1_555
C6 H6 1_555 1_555
C7 H7 1_555 1_555
H8 C7 1_555 1_555
O4 Hg1 1_555 1_555
N1 Cu1 1_555 1_555
C8 O2 1_555 1_555
N2 Cu1 1_555 1_555
C9 C3 1_555 1_555
H9 C9 1_555 1_555
C10 N1 1_555 1_555
H10 C10 1_555 1_555
C11 C3 1_555 1_555
C12 H11 1_555 1_555
C13 N1 1_555 1_555
H12 C13 1_555 1_555
H13 C13 1_555 1_555
C14 N2 1_555 1_555
H14 C14 1_555 1_555
C15 C2 1_555 1_555
C16 C2 1_555 1_555
C17 O2 1_555 1_555
H15 C17 1_555 1_555
H16 C17 1_555 1_555
H17 C17 1_555 1_555
C18 C7 1_555 1_555
H18 C18 1_555 1_555
H19 C18 1_555 1_555
C19 N3 1_555 1_555
C20 C4 1_555 1_555
H20 C20 1_555 1_555
S2 Hg1 1_555 1_555
N4 C21 1_555 1_555
C21 S2 1_555 1_555
Cu1C N4 1_555 1_555
N4C Cu1 1_555 1_555
Cu1 O3 1_555 1_555
C1 O4 1_555 1_555
C4 C15 1_555 1_555
C5 C8 1_555 1_555
C5 C11 1_555 1_555
C6 C8 1_555 1_555
C6 C9 1_555 1_555
C7 N2 1_555 1_555
O4 C16 1_555 1_555
C10 C11 1_555 1_555
C12 C16 1_555 1_555
C12 C20 1_555 1_555
C13 C18 1_555 1_555
C14 C15 1_555 1_555

#END
