
#######################################################################
#
#                 Cambridge Crystallographic Data Centre
#                                CCDC 
#
#######################################################################
#
# If this CIF has been generated from an entry in the Cambridge 
# Structural Database, then it will include bibliographic, chemical, 
# crystal, experimental, refinement or atomic coordinate data resulting 
# from the CCDC's data processing and validation procedures.
#
#######################################################################

data_YUNBIT
_symmetry_cell_setting           monoclinic
_symmetry_space_group_name_H-M   'C 2/c'
_symmetry_Int_Tables_number      15
_space_group_name_Hall           '-C 2yn'
loop_
_symmetry_equiv_pos_site_id
_symmetry_equiv_pos_as_xyz
1 x,y,z
2 -x,y,1/2-z
3 1/2+x,1/2+y,z
4 1/2-x,1/2+y,1/2-z
5 -x,-y,-z
6 x,-y,1/2+z
7 1/2-x,1/2-y,-z
8 1/2+x,1/2-y,1/2+z
_cell_length_a                   13.143(3)
_cell_length_b                   12.128(2)
_cell_length_c                   10.858(2)
_cell_angle_alpha                90
_cell_angle_beta                 91.36(3)
_cell_angle_gamma                90
_cell_volume                     1730.26
loop_
_atom_site_label
_atom_site_type_symbol
_atom_site_fract_x
_atom_site_fract_y
_atom_site_fract_z
Ag1 Ag 0.5000 0.70351(10) 0.2500
Ag2 Ag 0.5000 0.5000 0.0000
C1 C 0.7929(10) 0.4865(11) -0.0587(12)
H1 H 0.7385 0.4557 -0.1081
H2 H 0.8266 0.4288 -0.0130
H3 H 0.8408 0.5220 -0.1112
C2 C 0.7810(10) 0.7832(11) 0.2586(10)
H4 H 0.8078 0.7473 0.3312
H5 H 0.7239 0.8280 0.2798
H6 H 0.8328 0.8288 0.2239
C3 C 0.7479(9) 0.6986(11) 0.1668(9)
C4 C 0.7513(9) 0.5683(9) 0.0276(9)
Cl1 Cl 0.4155(2) 0.6873(2) 0.0339(2)
Cl2 Cl 0.5000 0.4748(3) 0.2500
N1 N 0.9168(8) 0.6406(10) 0.1036(11)
H7 H 0.9475 0.6869 0.1516
H8 H 0.9514 0.5974 0.0578
N2 N 0.6537(7) 0.6692(7) 0.1408(7)
N3 N 0.6552(7) 0.5879(7) 0.0517(7)
N4 N 0.8108(7) 0.6356(8) 0.1000(9)
Ag2A Ag 0.5000 0.5000 0.5000
C1A C 0.2071(10) 0.4865(11) 0.5587(12)
H1A H 0.2615 0.4557 0.6081
H2A H 0.1734 0.4288 0.5130
H3A H 0.1592 0.5220 0.6112
C2A C 0.2190(10) 0.7832(11) 0.2414(10)
H4A H 0.1922 0.7473 0.1688
H5A H 0.2761 0.8280 0.2202
H6A H 0.1672 0.8288 0.2761
C3A C 0.2521(9) 0.6986(11) 0.3332(9)
C4A C 0.2487(9) 0.5683(9) 0.4724(9)
Cl1A Cl 0.5845(2) 0.6873(2) 0.4661(2)
Cl1D Cl 0.5845(2) 0.3127(2) -0.0339(2)
Cl2D Cl 0.5000 0.5252(3) -0.2500
N1A N 0.0832(8) 0.6406(10) 0.3964(11)
H7A H 0.0525 0.6869 0.3484
H8A H 0.0486 0.5974 0.4422
N2A N 0.3463(7) 0.6692(7) 0.3592(7)
N3A N 0.3448(7) 0.5879(7) 0.4483(7)
N3D N 0.3448(7) 0.4121(7) -0.0517(7)
N4A N 0.1892(7) 0.6356(8) 0.4000(9)
K1 K 0.5000 0.9100(4) 0.2500
loop_
_geom_bond_atom_site_label_1
_geom_bond_atom_site_label_2
_geom_bond_site_symmetry_1
_geom_bond_site_symmetry_2
Ag1 Cl1 1_555 1_555
Ag2 Cl1 1_555 1_555
C1 H1 1_555 1_555
H2 C1 1_555 1_555
H3 C1 1_555 1_555
C2 H4 1_555 1_555
H5 C2 1_555 1_555
H6 C2 1_555 1_555
C3 C2 1_555 1_555
C4 C1 1_555 1_555
Cl2 Ag1 1_555 1_555
N1 H7 1_555 1_555
H8 N1 1_555 1_555
N2 Ag1 1_555 1_555
N3 Ag2 1_555 1_555
N4 C3 1_555 1_555
Ag2A Cl2 1_555 1_555
C1A H1A 1_555 1_555
H2A C1A 1_555 1_555
H3A C1A 1_555 1_555
C2A H4A 1_555 1_555
H5A C2A 1_555 1_555
H6A C2A 1_555 1_555
C3A C2A 1_555 1_555
C4A C1A 1_555 1_555
Cl1A Ag1 1_555 1_555
Cl1D Ag2 1_555 1_555
Cl2D Ag2 1_555 1_555
N1A H7A 1_555 1_555
H8A N1A 1_555 1_555
N2A Ag1 1_555 1_555
N3A Ag2A 1_555 1_555
N3D Ag2 1_555 1_555
N4A C3A 1_555 1_555
Ag2 Cl2 1_555 1_555
C3 N2 1_555 1_555
C4 N3 1_555 1_555
C4 N4 1_555 1_555
N1 N4 1_555 1_555
N2 N3 1_555 1_555
Ag2A Cl1A 1_555 1_555
C3A N2A 1_555 1_555
C4A N3A 1_555 1_555
C4A N4A 1_555 1_555
N1A N4A 1_555 1_555
N2A N3A 1_555 1_555

#END
