
#######################################################################
#
#                 Cambridge Crystallographic Data Centre
#                                CCDC 
#
#######################################################################
#
# If this CIF has been generated from an entry in the Cambridge 
# Structural Database, then it will include bibliographic, chemical, 
# crystal, experimental, refinement or atomic coordinate data resulting 
# from the CCDC's data processing and validation procedures.
#
#######################################################################

data_YUNBOZ
_symmetry_cell_setting           monoclinic
_symmetry_space_group_name_H-M   'C 2/c'
_symmetry_Int_Tables_number      15
_space_group_name_Hall           '-C 2yn'
loop_
_symmetry_equiv_pos_site_id
_symmetry_equiv_pos_as_xyz
1 x,y,z
2 -x,y,1/2-z
3 1/2+x,1/2+y,z
4 1/2-x,1/2+y,1/2-z
5 -x,-y,-z
6 x,-y,1/2+z
7 1/2-x,1/2-y,-z
8 1/2+x,1/2-y,1/2+z
_cell_length_a                   11.695(4)
_cell_length_b                   17.175(6)
_cell_length_c                   7.861(3)
_cell_angle_alpha                90
_cell_angle_beta                 91.037(7)
_cell_angle_gamma                90
_cell_volume                     1578.71
loop_
_atom_site_label
_atom_site_type_symbol
_atom_site_fract_x
_atom_site_fract_y
_atom_site_fract_z
Br1 Br 0.6644(2) 0.43940(11) -0.1048(3)
C1 C 0.7203(18) 0.2641(11) 0.260(3)
H1 H 0.7777 0.2532 0.1835
C2 C 0.6672(17) 0.2037(12) 0.329(3)
H2 H 0.6887 0.1529 0.3040
C3 C 0.5770(18) 0.2190(11) 0.442(3)
C4 C 0.5484(19) 0.2954(11) 0.475(3)
H3 H 0.4877 0.3068 0.5458
C5 C 0.611(2) 0.3556(12) 0.402(3)
H4 H 0.5935 0.4068 0.4296
C6 C 0.5141(19) 0.1513(11) 0.524(3)
N1 N 0.6979(17) 0.3418(11) 0.292(3)
O1 O 0.5589(14) 0.0867(8) 0.537(2)
O2 O 0.4165(13) 0.1662(8) 0.576(2)
Pb1 Pb 0.81920(7) 0.44578(4) 0.18176(10)
Br1E Br 0.6644(2) 0.56060(11) 0.3952(3)
O1F O 0.9411(14) 0.4133(8) 0.463(2)
O1G O 1.0589(14) 0.4133(8) 0.037(2)
O2G O 0.9165(13) 0.3338(8) 0.076(2)
Pb1E Pb 0.81920(7) 0.55422(4) -0.31824(10)
Pb1F Pb 0.68080(7) 0.05422(4) 0.81824(10)
Pb1G Pb 0.31920(7) 0.05422(4) 0.68176(10)
loop_
_geom_bond_atom_site_label_1
_geom_bond_atom_site_label_2
_geom_bond_site_symmetry_1
_geom_bond_site_symmetry_2
Br1 Pb1 1_555 1_555
C1 H1 1_555 1_555
C2 C1 1_555 1_555
H2 C2 1_555 1_555
C3 C2 1_555 1_555
C4 C3 1_555 1_555
H3 C4 1_555 1_555
C5 C4 1_555 1_555
H4 C5 1_555 1_555
C6 C3 1_555 1_555
N1 C1 1_555 1_555
O1 C6 1_555 1_555
O2 C6 1_555 1_555
Pb1 N1 1_555 1_555
Br1E Pb1 1_555 1_555
O1F Pb1 1_555 1_555
O1G Pb1 1_555 1_555
O2G Pb1 1_555 1_555
Pb1E Br1 1_555 1_555
Pb1F O1 1_555 1_555
Pb1G O1 1_555 1_555
C5 N1 1_555 1_555
O2 Pb1G 1_555 1_555

#END
