
#######################################################################
#
#                 Cambridge Crystallographic Data Centre
#                                CCDC 
#
#######################################################################
#
# If this CIF has been generated from an entry in the Cambridge 
# Structural Database, then it will include bibliographic, chemical, 
# crystal, experimental, refinement or atomic coordinate data resulting 
# from the CCDC's data processing and validation procedures.
#
#######################################################################

data_YUNFET01
_symmetry_cell_setting           monoclinic
_symmetry_space_group_name_H-M   'P 21/n'
_symmetry_Int_Tables_number      14
_space_group_name_Hall           '-P 2yn'
loop_
_symmetry_equiv_pos_site_id
_symmetry_equiv_pos_as_xyz
1 x,y,z
2 1/2-x,1/2+y,1/2-z
3 -x,-y,-z
4 1/2+x,1/2-y,1/2+z
_cell_length_a                   10.450(4)
_cell_length_b                   14.027(5)
_cell_length_c                   18.950(6)
_cell_angle_alpha                90
_cell_angle_beta                 100.459(5)
_cell_angle_gamma                90
_cell_volume                     2731.58
loop_
_atom_site_label
_atom_site_type_symbol
_atom_site_fract_x
_atom_site_fract_y
_atom_site_fract_z
Cu1 Cu 0.66206(5) 0.37130(4) 0.57692(3)
P1 P 0.69204(10) 0.43799(8) 0.68449(6)
N1 N 0.7960(3) 0.4001(2) 0.50968(18)
N2 N 0.5590(3) 0.4753(2) 0.50184(18)
N3 N 0.6025(3) 0.2368(2) 0.55064(19)
C1 C 0.6269(4) 0.5055(3) 0.4570(2)
H1 H 0.5962 0.5545 0.4254
C2 C 0.7528(4) 0.4627(3) 0.4560(2)
C3 C 0.8224(4) 0.4845(4) 0.4030(3)
H2 H 0.7903 0.5285 0.3675
C4 C 0.9401(5) 0.4404(4) 0.4035(3)
H3 H 0.9880 0.4531 0.3677
C5 C 0.9854(4) 0.3774(4) 0.4574(3)
H4 H 1.0650 0.3470 0.4589
C6 C 0.9117(4) 0.3594(3) 0.5098(2)
H5 H 0.9441 0.3172 0.5465
C7 C 0.6855(4) 0.1699(4) 0.5363(3)
H6 H 0.7727 0.1864 0.5405
C8 C 0.6499(4) 0.0781(3) 0.5159(3)
H7 H 0.7121 0.0353 0.5058
C9 C 0.5215(4) 0.0492(3) 0.5103(2)
C10 C 0.4356(4) 0.1185(3) 0.5246(2)
H8 H 0.3478 0.1038 0.5211
C11 C 0.4787(4) 0.2088(3) 0.5441(3)
H9 H 0.4179 0.2533 0.5534
C12 C 0.6374(4) 0.5617(3) 0.6734(2)
C13 C 0.7070(5) 0.6245(3) 0.6383(3)
H10 H 0.7844 0.6046 0.6253
C14 C 0.6629(6) 0.7161(4) 0.6224(3)
H11 H 0.7119 0.7581 0.6001
C15 C 0.5477(6) 0.7452(4) 0.6392(3)
H12 H 0.5177 0.8068 0.6281
C16 C 0.4763(5) 0.6835(4) 0.6725(3)
H13 H 0.3966 0.7031 0.6828
C17 C 0.5212(5) 0.5922(4) 0.6910(3)
H14 H 0.4734 0.5517 0.7151
C18 C 0.8633(4) 0.4480(3) 0.7256(2)
C19 C 0.9476(4) 0.3783(3) 0.7095(2)
H15 H 0.9154 0.3274 0.6801
C20 C 1.0806(5) 0.3840(4) 0.7372(3)
H16 H 1.1367 0.3371 0.7261
C21 C 1.1281(5) 0.4584(4) 0.7805(3)
H17 H 1.2167 0.4620 0.7990
C22 C 1.0453(5) 0.5284(4) 0.7970(3)
H18 H 1.0785 0.5793 0.8262
C23 C 0.9132(5) 0.5231(4) 0.7702(3)
H19 H 0.8576 0.5699 0.7821
C24 C 0.6085(4) 0.3933(3) 0.7539(2)
C25 C 0.6207(6) 0.4366(4) 0.8208(3)
H20 H 0.6789 0.4867 0.8325
C26 C 0.5473(6) 0.4059(5) 0.8699(3)
H21 H 0.5552 0.4359 0.9143
C27 C 0.4625(6) 0.3312(5) 0.8533(3)
H22 H 0.4133 0.3102 0.8866
C28 C 0.4502(6) 0.2878(5) 0.7886(4)
H23 H 0.3926 0.2371 0.7776
C29 C 0.5229(5) 0.3184(4) 0.7385(3)
H24 H 0.5138 0.2881 0.6942
Cu1B Cu 0.33794(5) 0.62870(4) 0.42308(3)
Cu1B_2 Cu 0.33794(5) -0.37130(4) 0.42308(3)
P1B P 0.30796(10) 0.56201(8) 0.31551(6)
N1B N 0.2040(3) 0.5999(2) 0.49032(18)
N2B N 0.4410(3) 0.5247(2) 0.49816(18)
N3B N 0.3975(3) -0.2368(2) 0.44936(19)
N3B_2 N 0.3975(3) 0.7632(2) 0.44936(19)
C1B C 0.3731(4) 0.4945(3) 0.5430(2)
H1B H 0.4038 0.4455 0.5746
C2B C 0.2472(4) 0.5373(3) 0.5440(2)
C3B C 0.1776(4) 0.5155(4) 0.5970(3)
H2B H 0.2097 0.4715 0.6325
C4B C 0.0599(5) 0.5596(4) 0.5965(3)
H3B H 0.0120 0.5469 0.6323
C5B C 0.0146(4) 0.6226(4) 0.5426(3)
H4B H -0.0650 0.6530 0.5411
C6B C 0.0883(4) 0.6406(3) 0.4902(2)
H5B H 0.0559 0.6828 0.4535
C7B C 0.3145(4) -0.1699(4) 0.4637(3)
H6B H 0.2273 -0.1864 0.4595
C8B C 0.3501(4) -0.0781(3) 0.4841(3)
H7B H 0.2879 -0.0353 0.4942
C9B C 0.4785(4) -0.0492(3) 0.4897(2)
C10B C 0.5644(4) -0.1185(3) 0.4754(2)
H8B H 0.6522 -0.1038 0.4789
C11B C 0.5213(4) -0.2088(3) 0.4559(3)
H9B H 0.5821 -0.2533 0.4466
C12B C 0.3626(4) 0.4383(3) 0.3266(2)
C13B C 0.2930(5) 0.3755(3) 0.3617(3)
H10B H 0.2156 0.3954 0.3747
C14B C 0.3371(6) 0.2839(4) 0.3776(3)
H11B H 0.2881 0.2419 0.3999
C15B C 0.4523(6) 0.2548(4) 0.3608(3)
H12B H 0.4823 0.1932 0.3719
C16B C 0.5237(5) 0.3165(4) 0.3275(3)
H13B H 0.6034 0.2969 0.3172
C17B C 0.4788(5) 0.4078(4) 0.3090(3)
H14B H 0.5266 0.4483 0.2849
C18B C 0.1367(4) 0.5520(3) 0.2744(2)
C19B C 0.0524(4) 0.6217(3) 0.2905(2)
H15B H 0.0846 0.6726 0.3199
C20B C -0.0806(5) 0.6160(4) 0.2628(3)
H16B H -0.1367 0.6629 0.2739
C21B C -0.1281(5) 0.5416(4) 0.2195(3)
H17B H -0.2167 0.5380 0.2010
C22B C -0.0453(5) 0.4716(4) 0.2030(3)
H18B H -0.0785 0.4207 0.1738
C23B C 0.0868(5) 0.4769(4) 0.2298(3)
H19B H 0.1424 0.4301 0.2179
C24B C 0.3915(4) 0.6067(3) 0.2461(2)
C25B C 0.3793(6) 0.5634(4) 0.1792(3)
H20B H 0.3211 0.5133 0.1675
C26B C 0.4527(6) 0.5941(5) 0.1301(3)
H21B H 0.4448 0.5641 0.0857
C27B C 0.5375(6) 0.6688(5) 0.1467(3)
H22B H 0.5867 0.6898 0.1134
C28B C 0.5498(6) 0.7122(5) 0.2114(4)
H23B H 0.6074 0.7629 0.2224
C29B C 0.4771(5) 0.6816(4) 0.2615(3)
H24B H 0.4862 0.7119 0.3058
B1 B 0.1302(6) 0.1638(5) 0.5995(5)
F1 F 0.1513(10) 0.0781(6) 0.5679(5)
F2 F 0.2218(11) 0.1822(10) 0.6596(6)
F3 F 0.1617(8) 0.2254(6) 0.5471(6)
F4 F 0.0122(6) 0.1832(5) 0.6170(4)
F5? F 0.1773(11) 0.0766(8) 0.5901(7)
F6? F 0.1755(10) 0.1469(8) 0.6799(6)
F7? F 0.1875(8) 0.2472(7) 0.5914(6)
F8? F -0.0062(10) 0.1588(8) 0.5837(7)
loop_
_geom_bond_atom_site_label_1
_geom_bond_atom_site_label_2
_geom_bond_site_symmetry_1
_geom_bond_site_symmetry_2
Cu1 P1 1_555 1_555
P1 C12 1_555 1_555
N1 Cu1 1_555 1_555
N2 Cu1 1_555 1_555
N3 Cu1 1_555 1_555
C1 N2 1_555 1_555
H1 C1 1_555 1_555
C2 N1 1_555 1_555
C3 C2 1_555 1_555
H2 C3 1_555 1_555
C4 C3 1_555 1_555
H3 C4 1_555 1_555
C5 C4 1_555 1_555
H4 C5 1_555 1_555
C6 N1 1_555 1_555
H5 C6 1_555 1_555
C7 N3 1_555 1_555
H6 C7 1_555 1_555
C8 C7 1_555 1_555
H7 C8 1_555 1_555
C9 C8 1_555 1_555
C10 C9 1_555 1_555
H8 C10 1_555 1_555
C11 N3 1_555 1_555
H9 C11 1_555 1_555
C12 C13 1_555 1_555
C13 H10 1_555 1_555
C14 C13 1_555 1_555
H11 C14 1_555 1_555
C15 C14 1_555 1_555
H12 C15 1_555 1_555
C16 C15 1_555 1_555
H13 C16 1_555 1_555
C17 C12 1_555 1_555
H14 C17 1_555 1_555
C18 P1 1_555 1_555
C19 C18 1_555 1_555
H15 C19 1_555 1_555
C20 C19 1_555 1_555
H16 C20 1_555 1_555
C21 C20 1_555 1_555
H17 C21 1_555 1_555
C22 C21 1_555 1_555
H18 C22 1_555 1_555
C23 C18 1_555 1_555
H19 C23 1_555 1_555
C24 P1 1_555 1_555
C25 C24 1_555 1_555
H20 C25 1_555 1_555
C26 C25 1_555 1_555
H21 C26 1_555 1_555
C27 C26 1_555 1_555
H22 C27 1_555 1_555
C28 C27 1_555 1_555
H23 C28 1_555 1_555
C29 C24 1_555 1_555
H24 C29 1_555 1_555
B1 F1 1_555 1_555
F2 B1 1_555 1_555
F3 B1 1_555 1_555
F4 B1 1_555 1_555
Cu1B P1B 1_555 1_555
Cu1B_2 N3B 1_555 1_555
P1B C12B 1_555 1_555
N1B Cu1B 1_555 1_555
N2B N2 1_555 1_555
N3B C7B 1_555 1_555
N3B_2 Cu1B 1_555 1_555
C1B N2B 1_555 1_555
H1B C1B 1_555 1_555
C2B N1B 1_555 1_555
C3B C2B 1_555 1_555
H2B C3B 1_555 1_555
C4B C3B 1_555 1_555
H3B C4B 1_555 1_555
C5B C4B 1_555 1_555
H4B C5B 1_555 1_555
C6B N1B 1_555 1_555
H5B C6B 1_555 1_555
C7B H6B 1_555 1_555
C8B C7B 1_555 1_555
H7B C8B 1_555 1_555
C9B C9 1_555 1_555
C10B C9B 1_555 1_555
H8B C10B 1_555 1_555
C11B N3B 1_555 1_555
H9B C11B 1_555 1_555
C12B C13B 1_555 1_555
C13B H10B 1_555 1_555
C14B C13B 1_555 1_555
H11B C14B 1_555 1_555
C15B C14B 1_555 1_555
H12B C15B 1_555 1_555
C16B C15B 1_555 1_555
H13B C16B 1_555 1_555
C17B C12B 1_555 1_555
H14B C17B 1_555 1_555
C18B P1B 1_555 1_555
C19B C18B 1_555 1_555
H15B C19B 1_555 1_555
C20B C19B 1_555 1_555
H16B C20B 1_555 1_555
C21B C20B 1_555 1_555
H17B C21B 1_555 1_555
C22B C21B 1_555 1_555
H18B C22B 1_555 1_555
C23B C18B 1_555 1_555
H19B C23B 1_555 1_555
C24B P1B 1_555 1_555
C25B C24B 1_555 1_555
H20B C25B 1_555 1_555
C26B C25B 1_555 1_555
H21B C26B 1_555 1_555
C27B C26B 1_555 1_555
H22B C27B 1_555 1_555
C28B C27B 1_555 1_555
H23B C28B 1_555 1_555
C29B C24B 1_555 1_555
H24B C29B 1_555 1_555
C1 C2 1_555 1_555
C5 C6 1_555 1_555
C10 C11 1_555 1_555
C16 C17 1_555 1_555
C22 C23 1_555 1_555
C28 C29 1_555 1_555
Cu1B N2B 1_555 1_555
C1B C2B 1_555 1_555
C5B C6B 1_555 1_555
C8B C9B 1_555 1_555
C10B C11B 1_555 1_555
C16B C17B 1_555 1_555
C22B C23B 1_555 1_555
C28B C29B 1_555 1_555

#END
