
#######################################################################
#
#                 Cambridge Crystallographic Data Centre
#                                CCDC 
#
#######################################################################
#
# If this CIF has been generated from an entry in the Cambridge 
# Structural Database, then it will include bibliographic, chemical, 
# crystal, experimental, refinement or atomic coordinate data resulting 
# from the CCDC's data processing and validation procedures.
#
#######################################################################

data_YUNGUK
_symmetry_cell_setting           monoclinic
_symmetry_space_group_name_H-M   'C 2/c'
_symmetry_Int_Tables_number      15
_space_group_name_Hall           '-C 2yn'
loop_
_symmetry_equiv_pos_site_id
_symmetry_equiv_pos_as_xyz
1 x,y,z
2 1/2+x,1/2+y,z
3 -x,y,1/2-z
4 1/2-x,1/2+y,1/2-z
5 -x,-y,-z
6 1/2-x,1/2-y,-z
7 x,-y,1/2+z
8 1/2+x,1/2-y,1/2+z
_cell_length_a                   12.4100(10)
_cell_length_b                   15.460(3)
_cell_length_c                   9.0060(10)
_cell_angle_alpha                90
_cell_angle_beta                 123.520(10)
_cell_angle_gamma                90
_cell_volume                     1440.52
loop_
_atom_site_label
_atom_site_type_symbol
_atom_site_fract_x
_atom_site_fract_y
_atom_site_fract_z
Gd1 Gd 0.0000 0.36751(2) 0.7500
C1 C 0.2035(6) 0.3613(4) 0.6861(8)
C2 C 0.3044(6) 0.3544(4) 0.6448(9)
H1 H 0.395(4) 0.3709(9) 0.759(6)
H2 H 0.2834(12) 0.399(2) 0.544(5)
C3 C 0.3118(6) 0.2634(4) 0.5846(8)
H3 H 0.392(4) 0.2609(5) 0.5638(12)
H4 H 0.3341(12) 0.217(2) 0.691(5)
O1 O 0.2087(4) 0.3143(3) 0.8047(5)
O2 O 0.1082(4) 0.4140(3) 0.5993(6)
O3 O 0.0000 0.5264(5) 0.7500
O4 O 0.0521(4) 0.2465(3) 0.9425(6)
O5 O 0.1665(5) 0.4189(4) 1.0436(7)
H5 H 0.008(12) 0.559(6) 0.700(15)
H6 H 0.163(10) 0.215(7) 1.038(14)
H7 H 0.031(11) 0.195(7) 0.900(15)
H8 H 0.228(11) 0.415(8) 1.103(15)
H9 H 0.138(11) 0.453(7) 1.094(15)
Gd1E Gd 0.5000 0.13249(2) 0.2500
C1E C 0.2965(6) 0.1387(4) 0.3139(8)
C2E C 0.1956(6) 0.1456(4) 0.3552(9)
H1E H 0.105(4) 0.1291(9) 0.241(6)
H2E H 0.2166(12) 0.101(2) 0.456(5)
C3E C 0.1882(6) 0.2366(4) 0.4154(8)
H3E H 0.108(4) 0.2391(5) 0.4362(12)
H4E H 0.1659(12) 0.283(2) 0.309(5)
O1E O 0.2913(4) 0.1857(3) 0.1953(5)
O1B O -0.2087(4) 0.3143(3) 0.6953(5)
O2E O 0.3918(4) 0.0860(3) 0.4007(6)
O2B O -0.1082(4) 0.4140(3) 0.9007(6)
O4B O -0.0521(4) 0.2465(3) 0.5575(6)
O5B O -0.1665(5) 0.4189(4) 0.4564(7)
H5B H -0.008(12) 0.559(6) 0.800(15)
H6B H -0.163(10) 0.215(7) 0.462(14)
H7B H -0.031(11) 0.195(7) 0.600(15)
H8B H -0.228(11) 0.415(8) 0.397(15)
H9B H -0.138(11) 0.453(7) 0.406(15)
Cl1 Cl 0.4418(4) 0.4374(3) 1.3906(6)
O6 O 0.4280(12) 0.4144(8) 1.3131(18)
loop_
_geom_bond_atom_site_label_1
_geom_bond_atom_site_label_2
_geom_bond_site_symmetry_1
_geom_bond_site_symmetry_2
Gd1 O1 1_555 1_555
C1 C2 1_555 1_555
C2 H1 1_555 1_555
H2 C2 1_555 1_555
C3 C2 1_555 1_555
H3 C3 1_555 1_555
H4 C3 1_555 1_555
O1 C1 1_555 1_555
O2 Gd1 1_555 1_555
O3 Gd1 1_555 1_555
O4 Gd1 1_555 1_555
O5 Gd1 1_555 1_555
H5 O3 1_555 1_555
H6 O4 1_555 1_555
H7 O4 1_555 1_555
H8 O5 1_555 1_555
H9 O5 1_555 1_555
Gd1E O1E 1_555 1_555
C1E C2E 1_555 1_555
C2E H1E 1_555 1_555
H2E C2E 1_555 1_555
C3E C3 1_555 1_555
H3E C3E 1_555 1_555
H4E C3E 1_555 1_555
O1E C1E 1_555 1_555
O1B Gd1 1_555 1_555
O2E Gd1E 1_555 1_555
O2B Gd1 1_555 1_555
O4B Gd1 1_555 1_555
O5B Gd1 1_555 1_555
H5B O3 1_555 1_555
H6B O4B 1_555 1_555
H7B O4B 1_555 1_555
H8B O5B 1_555 1_555
H9B O5B 1_555 1_555
C1 O2 1_555 1_555
C1E O2E 1_555 1_555
C2E C3E 1_555 1_555

#END
