
#######################################################################
#
#                 Cambridge Crystallographic Data Centre
#                                CCDC 
#
#######################################################################
#
# If this CIF has been generated from an entry in the Cambridge 
# Structural Database, then it will include bibliographic, chemical, 
# crystal, experimental, refinement or atomic coordinate data resulting 
# from the CCDC's data processing and validation procedures.
#
#######################################################################

data_YUNHOF
_symmetry_cell_setting           monoclinic
_symmetry_space_group_name_H-M   'C 2/c'
_symmetry_Int_Tables_number      15
_space_group_name_Hall           '-C 2yn'
loop_
_symmetry_equiv_pos_site_id
_symmetry_equiv_pos_as_xyz
1 x,y,z
2 1/2+x,1/2+y,z
3 -x,y,1/2-z
4 1/2-x,1/2+y,1/2-z
5 -x,-y,-z
6 1/2-x,1/2-y,-z
7 x,-y,1/2+z
8 1/2+x,1/2-y,1/2+z
_cell_length_a                   12.452(3)
_cell_length_b                   15.513(2)
_cell_length_c                   9.030(4)
_cell_angle_alpha                90
_cell_angle_beta                 123.60(2)
_cell_angle_gamma                90
_cell_volume                     1452.87
loop_
_atom_site_label
_atom_site_type_symbol
_atom_site_fract_x
_atom_site_fract_y
_atom_site_fract_z
Sm1 Sm 0.0000 0.36724(3) 0.7500
C1 C 0.2036(6) 0.3612(4) 0.6864(9)
C2 C 0.3048(7) 0.3542(5) 0.6436(11)
H1 H 0.3882 0.3697 0.7480
H2 H 0.2848 0.3946 0.5497
C3 C 0.3121(7) 0.2634(5) 0.5850(11)
H3 H 0.3820 0.2608 0.5672
H4 H 0.3313 0.2230 0.6786
O1 O 0.2089(5) 0.3145(3) 0.8020(6)
O2 O 0.1095(5) 0.4142(3) 0.5994(7)
O3 O 0.0000 0.5269(5) 0.7500
O4 O 0.0533(5) 0.2450(3) 0.9430(7)
O5 O 0.1677(5) 0.4191(4) 1.0462(8)
H5 H 0.029(10) 0.204(6) 0.850(11)
H6 H 0.151(7) 0.221(7) 1.034(12)
H7 H 0.143(10) 0.478(5) 1.057(16)
H8 H 0.251(7) 0.412(7) 1.113(15)
H9 H -0.029(12) 0.574(6) 0.667(13)
Sm1E Sm 0.5000 0.13276(3) 0.2500
C1E C 0.2964(6) 0.1388(4) 0.3136(9)
C2E C 0.1952(7) 0.1458(5) 0.3564(11)
H1E H 0.1118 0.1303 0.2520
H2E H 0.2152 0.1054 0.4503
C3E C 0.1879(7) 0.2366(5) 0.4150(11)
H3E H 0.1180 0.2392 0.4328
H4E H 0.1687 0.2770 0.3214
O1E O 0.2911(5) 0.1855(3) 0.1980(6)
O1B O -0.2089(5) 0.3145(3) 0.6980(6)
O2E O 0.3905(5) 0.0858(3) 0.4006(7)
O2B O -0.1095(5) 0.4142(3) 0.9006(7)
O4B O -0.0533(5) 0.2450(3) 0.5570(7)
O5B O -0.1677(5) 0.4191(4) 0.4538(8)
H5B H -0.029(10) 0.204(6) 0.650(11)
H6B H -0.151(7) 0.221(7) 0.466(12)
H7B H -0.143(10) 0.478(5) 0.443(16)
H8B H -0.251(7) 0.412(7) 0.387(15)
H9B H 0.029(12) 0.574(6) 0.833(13)
Cl1 Cl 0.4426(6) 0.4383(4) 1.3934(8)
O6 O 0.4296(15) 0.4154(10) 1.319(2)
loop_
_geom_bond_atom_site_label_1
_geom_bond_atom_site_label_2
_geom_bond_site_symmetry_1
_geom_bond_site_symmetry_2
Sm1 O1 1_555 1_555
C1 C2 1_555 1_555
C2 H1 1_555 1_555
H2 C2 1_555 1_555
C3 C2 1_555 1_555
H3 C3 1_555 1_555
H4 C3 1_555 1_555
O1 C1 1_555 1_555
O2 Sm1 1_555 1_555
O3 Sm1 1_555 1_555
O4 Sm1 1_555 1_555
O5 Sm1 1_555 1_555
H5 O4 1_555 1_555
H6 O4 1_555 1_555
H7 O5 1_555 1_555
H8 O5 1_555 1_555
H9 O3 1_555 1_555
Sm1E O1E 1_555 1_555
C1E C2E 1_555 1_555
C2E H1E 1_555 1_555
H2E C2E 1_555 1_555
C3E C3 1_555 1_555
H3E C3E 1_555 1_555
H4E C3E 1_555 1_555
O1E C1E 1_555 1_555
O1B Sm1 1_555 1_555
O2E Sm1E 1_555 1_555
O2B Sm1 1_555 1_555
O4B Sm1 1_555 1_555
O5B Sm1 1_555 1_555
H5B O4B 1_555 1_555
H6B O4B 1_555 1_555
H7B O5B 1_555 1_555
H8B O5B 1_555 1_555
H9B O3 1_555 1_555
C1 O2 1_555 1_555
C1E O2E 1_555 1_555
C2E C3E 1_555 1_555

#END
