
#######################################################################
#
#                 Cambridge Crystallographic Data Centre
#                                CCDC 
#
#######################################################################
#
# If this CIF has been generated from an entry in the Cambridge 
# Structural Database, then it will include bibliographic, chemical, 
# crystal, experimental, refinement or atomic coordinate data resulting 
# from the CCDC's data processing and validation procedures.
#
#######################################################################

data_YUNHEV
_symmetry_cell_setting           monoclinic
_symmetry_space_group_name_H-M   'C 2/c'
_symmetry_Int_Tables_number      15
_space_group_name_Hall           '-C 2yn'
loop_
_symmetry_equiv_pos_site_id
_symmetry_equiv_pos_as_xyz
1 x,y,z
2 1/2+x,1/2+y,z
3 -x,y,1/2-z
4 1/2-x,1/2+y,1/2-z
5 -x,-y,-z
6 1/2-x,1/2-y,-z
7 x,-y,1/2+z
8 1/2+x,1/2-y,1/2+z
_cell_length_a                   12.5340(10)
_cell_length_b                   15.6410(10)
_cell_length_c                   9.075
_cell_angle_alpha                90
_cell_angle_beta                 123.63
_cell_angle_gamma                90
_cell_volume                     1481.34
loop_
_atom_site_label
_atom_site_type_symbol
_atom_site_fract_x
_atom_site_fract_y
_atom_site_fract_z
Pr1 Pr 0.0000 0.36676(3) 0.7500
C1 C 0.2029(7) 0.3613(4) 0.6811(9)
C2 C 0.3027(8) 0.3543(5) 0.6388(11)
H1 H 0.3855 0.3700 0.7424
H2 H 0.2825 0.3942 0.5448
C3 C 0.3105(7) 0.2636(5) 0.5811(10)
H3 H 0.3787 0.2614 0.5606
H4 H 0.3320 0.2240 0.6759
O1 O 0.2106(4) 0.3153(3) 0.8007(6)
O2 O 0.1091(5) 0.4134(3) 0.5950(7)
O3 O 0.0000 0.5275(5) 0.7500
O4 O 0.0537(5) 0.2428(3) 0.9445(7)
O5 O 0.1703(5) 0.4185(4) 1.0526(8)
H5 H -0.007(13) 0.577(5) 0.691(14)
H6 H 0.148(7) 0.219(7) 1.037(12)
H7 H 0.015(9) 0.192(5) 0.893(14)
H8 H 0.262(6) 0.418(7) 1.133(14)
H9 H 0.127(9) 0.457(6) 1.086(15)
Pr1E Pr 0.5000 0.13324(3) 0.2500
C1E C 0.2971(7) 0.1387(4) 0.3189(9)
C2E C 0.1973(8) 0.1457(5) 0.3612(11)
H1E H 0.1145 0.1300 0.2576
H2E H 0.2175 0.1058 0.4552
C3E C 0.1895(7) 0.2364(5) 0.4189(10)
H3E H 0.1213 0.2386 0.4394
H4E H 0.1680 0.2760 0.3241
O1E O 0.2894(4) 0.1847(3) 0.1993(6)
O1B O -0.2106(4) 0.3153(3) 0.6993(6)
O2E O 0.3909(5) 0.0866(3) 0.4050(7)
O2B O -0.1091(5) 0.4134(3) 0.9050(7)
O4B O -0.0537(5) 0.2428(3) 0.5555(7)
O5B O -0.1703(5) 0.4185(4) 0.4474(8)
H5B H 0.007(13) 0.577(5) 0.809(14)
H6B H -0.148(7) 0.219(7) 0.463(12)
H7B H -0.015(9) 0.192(5) 0.607(14)
H8B H -0.262(6) 0.418(7) 0.367(14)
H9B H -0.127(9) 0.457(6) 0.414(15)
Cl1 Cl 0.4423(5) 0.4382(3) 1.3928(7)
O6 O 0.4290(13) 0.4161(9) 1.313(2)
loop_
_geom_bond_atom_site_label_1
_geom_bond_atom_site_label_2
_geom_bond_site_symmetry_1
_geom_bond_site_symmetry_2
Pr1 O1 1_555 1_555
C1 C2 1_555 1_555
C2 H1 1_555 1_555
H2 C2 1_555 1_555
C3 C2 1_555 1_555
H3 C3 1_555 1_555
H4 C3 1_555 1_555
O1 C1 1_555 1_555
O2 Pr1 1_555 1_555
O3 Pr1 1_555 1_555
O4 Pr1 1_555 1_555
O5 Pr1 1_555 1_555
H5 O3 1_555 1_555
H6 O4 1_555 1_555
H7 O4 1_555 1_555
H8 O5 1_555 1_555
H9 O5 1_555 1_555
Pr1E O1E 1_555 1_555
C1E C2E 1_555 1_555
C2E H1E 1_555 1_555
H2E C2E 1_555 1_555
C3E C3 1_555 1_555
H3E C3E 1_555 1_555
H4E C3E 1_555 1_555
O1E C1E 1_555 1_555
O1B Pr1 1_555 1_555
O2E Pr1E 1_555 1_555
O2B Pr1 1_555 1_555
O4B Pr1 1_555 1_555
O5B Pr1 1_555 1_555
H5B O3 1_555 1_555
H6B O4B 1_555 1_555
H7B O4B 1_555 1_555
H8B O5B 1_555 1_555
H9B O5B 1_555 1_555
C1 O2 1_555 1_555
C1E O2E 1_555 1_555
C2E C3E 1_555 1_555

#END
