
#######################################################################
#
#                 Cambridge Crystallographic Data Centre
#                                CCDC 
#
#######################################################################
#
# If this CIF has been generated from an entry in the Cambridge 
# Structural Database, then it will include bibliographic, chemical, 
# crystal, experimental, refinement or atomic coordinate data resulting 
# from the CCDC's data processing and validation procedures.
#
#######################################################################

data_YUNHAR
_symmetry_cell_setting           monoclinic
_symmetry_space_group_name_H-M   'C 2/c'
_symmetry_Int_Tables_number      15
_space_group_name_Hall           '-C 2yn'
loop_
_symmetry_equiv_pos_site_id
_symmetry_equiv_pos_as_xyz
1 x,y,z
2 1/2+x,1/2+y,z
3 -x,y,1/2-z
4 1/2-x,1/2+y,1/2-z
5 -x,-y,-z
6 1/2-x,1/2-y,-z
7 x,-y,1/2+z
8 1/2+x,1/2-y,1/2+z
_cell_length_a                   12.525(2)
_cell_length_b                   16.039(2)
_cell_length_c                   8.8530(10)
_cell_angle_alpha                90
_cell_angle_beta                 122.590(10)
_cell_angle_gamma                90
_cell_volume                     1498.44
loop_
_atom_site_label
_atom_site_type_symbol
_atom_site_fract_x
_atom_site_fract_y
_atom_site_fract_z
N1 N 0.4395(11) 0.4541(7) 0.9049(15)
O6 O 0.4040(5) 0.3901(3) 0.8060(8)
O7 O 0.3700(12) 0.4986(7) 0.9253(17)
O8 O 0.5512(11) 0.4737(8) 0.9679(17)
N1D N 0.5605(11) 0.5459(7) 1.0951(15)
O6D O 0.5960(5) 0.6099(3) 1.1940(8)
O7D O 0.6300(12) 0.5014(7) 1.0747(17)
O8D O 0.4488(11) 0.5263(8) 1.0321(17)
Sm1 Sm 0.0000 0.370669(18) 0.2500
O1 O 0.2095(3) 0.3163(2) 0.3100(5)
O2 O 0.1146(4) 0.4116(2) 0.1022(5)
O3 O 0.0000 0.5271(3) 0.2500
O4 O 0.0534(4) 0.2507(2) 0.4458(5)
O5 O 0.1583(4) 0.4210(3) 0.5471(6)
C1 C 0.2065(5) 0.3598(3) 0.1912(7)
C2 C 0.3051(6) 0.3506(4) 0.1449(10)
C3 C 0.3119(6) 0.2625(4) 0.0875(8)
H1 H 0.341(8) 0.220(5) 0.184(11)
H2 H 0.354(9) 0.359(5) 0.228(13)
H3 H -0.001(6) 0.204(3) 0.374(9)
H4 H 0.140(4) 0.236(5) 0.551(7)
H5 H 0.286(8) 0.386(5) 0.058(12)
H6 H 0.245(3) 0.406(5) 0.645(7)
H7 H 0.137(7) 0.4804(18) 0.543(11)
H8 H -0.044(7) 0.559(4) 0.137(6)
H9 H 0.399(8) 0.254(5) 0.111(10)
Sm1E Sm 0.5000 0.129331(18) -0.2500
O1E O 0.2905(3) 0.1837(2) -0.3100(5)
O1B O -0.2095(3) 0.3163(2) 0.1900(5)
O2E O 0.3854(4) 0.0884(2) -0.1022(5)
O2B O -0.1146(4) 0.4116(2) 0.3978(5)
O4B O -0.0534(4) 0.2507(2) 0.0542(5)
O5B O -0.1583(4) 0.4210(3) -0.0471(6)
C1E C 0.2935(5) 0.1402(3) -0.1912(7)
C2E C 0.1949(6) 0.1494(4) -0.1449(10)
C3E C 0.1881(6) 0.2375(4) -0.0875(8)
H1E H 0.159(8) 0.280(5) -0.184(11)
H2E H 0.146(9) 0.141(5) -0.228(13)
H3B H 0.001(6) 0.204(3) 0.126(9)
H4B H -0.140(4) 0.236(5) -0.051(7)
H5E H 0.214(8) 0.114(5) -0.058(12)
H6B H -0.245(3) 0.406(5) -0.145(7)
H7B H -0.137(7) 0.4804(18) -0.043(11)
H8B H 0.044(7) 0.559(4) 0.363(6)
H9E H 0.101(8) 0.246(5) -0.111(10)
loop_
_geom_bond_atom_site_label_1
_geom_bond_atom_site_label_2
_geom_bond_site_symmetry_1
_geom_bond_site_symmetry_2
Sm1 O1 1_555 1_555
O1 C1 1_555 1_555
O2 Sm1 1_555 1_555
O3 Sm1 1_555 1_555
O4 Sm1 1_555 1_555
O5 Sm1 1_555 1_555
C1 O2 1_555 1_555
C2 C1 1_555 1_555
C3 C2 1_555 1_555
N1 O6 1_555 1_555
O7 N1 1_555 1_555
O8 N1 1_555 1_555
H1 C3 1_555 1_555
H2 C2 1_555 1_555
H3 O4 1_555 1_555
H4 O4 1_555 1_555
H5 C2 1_555 1_555
H6 O5 1_555 1_555
H7 O5 1_555 1_555
H8 O3 1_555 1_555
H9 C3 1_555 1_555
Sm1E O1E 1_555 1_555
O1E C1E 1_555 1_555
O1B Sm1 1_555 1_555
O2E Sm1E 1_555 1_555
O2B Sm1 1_555 1_555
O4B Sm1 1_555 1_555
O5B Sm1 1_555 1_555
C1E O2E 1_555 1_555
C2E C1E 1_555 1_555
C3E C3 1_555 1_555
N1D O8 1_555 1_555
O6D N1D 1_555 1_555
O7D O8 1_555 1_555
O8D N1 1_555 1_555
H1E C3E 1_555 1_555
H2E C2E 1_555 1_555
H3B O4B 1_555 1_555
H4B O4B 1_555 1_555
H5E C2E 1_555 1_555
H6B O5B 1_555 1_555
H7B O5B 1_555 1_555
H8B O3 1_555 1_555
H9E C3E 1_555 1_555
O7 O8D 1_555 1_555
C2E C3E 1_555 1_555
N1D O7D 1_555 1_555
N1D O8D 1_555 1_555

#END
