
#######################################################################
#
#                 Cambridge Crystallographic Data Centre
#                                CCDC 
#
#######################################################################
#
# If this CIF has been generated from an entry in the Cambridge 
# Structural Database, then it will include bibliographic, chemical, 
# crystal, experimental, refinement or atomic coordinate data resulting 
# from the CCDC's data processing and validation procedures.
#
#######################################################################

data_YUNJIB
_symmetry_cell_setting           orthorhombic
_symmetry_space_group_name_H-M   'P 21 21 21'
_symmetry_Int_Tables_number      19
_space_group_name_Hall           'P 2ac 2ab'
loop_
_symmetry_equiv_pos_site_id
_symmetry_equiv_pos_as_xyz
1 x,y,z
2 1/2-x,-y,1/2+z
3 -x,1/2+y,1/2-z
4 1/2+x,1/2-y,-z
_cell_length_a                   6.591(4)
_cell_length_b                   11.078(6)
_cell_length_c                   15.408(9)
_cell_angle_alpha                90
_cell_angle_beta                 90
_cell_angle_gamma                90
_cell_volume                     1125.02
loop_
_atom_site_label
_atom_site_type_symbol
_atom_site_fract_x
_atom_site_fract_y
_atom_site_fract_z
Cu1 Cu 0.7500(2) 0.72601(10) -0.00736(6)
O1 O 1.0092(10) 0.7520(6) -0.0612(4)
H1 H 1.0183 0.7541 -0.1214
N1 N 1.1053(12) 0.6881(8) 0.1052(5)
N2 N 0.9007(12) 0.6669(8) 0.0983(5)
N3 N 0.9963(13) 0.6211(8) 0.2290(5)
N4 N 0.8778(15) 0.4583(9) 0.4319(6)
C1 C 0.8410(16) 0.6267(9) 0.1734(6)
H2 H 0.7084 0.6049 0.1866
C2 C 1.1598(16) 0.6622(10) 0.1843(6)
H3 H 1.2901 0.6705 0.2066
C3 C 0.9905(16) 0.5898(9) 0.3207(6)
C4 C 1.104(2) 0.6564(12) 0.3780(7)
H4 H 1.1814 0.7217 0.3594
C5 C 1.100(3) 0.6230(14) 0.4631(8)
H5 H 1.1689 0.6678 0.5047
C6 C 0.989(2) 0.5203(12) 0.4868(7)
H6 H 0.9953 0.4946 0.5442
C7 C 0.8819(17) 0.4926(10) 0.3484(6)
H7 H 0.8079 0.4485 0.3080
Cu1C Cu 1.2500(2) 0.77399(10) 0.00736(6)
Cu1A Cu 0.7500(2) 0.27399(10) 0.49264(6)
O1C O 0.5092(10) 0.7480(6) 0.0612(4)
H1C H 0.5183 0.7459 0.1214
N1C N 0.6053(12) 0.8119(8) -0.1052(5)
N4A N 0.6222(15) 0.5417(9) -0.0681(6)
B1 B 0.873(4) 0.134(2) 0.7823(17)
F1 F 1.0011(18) 0.0482(11) 0.8102(8)
F2 F 0.7043(17) 0.1205(10) 0.8297(7)
F3 F 0.8361(17) 0.1130(11) 0.6953(7)
F4 F 0.9481(18) 0.2477(9) 0.7922(8)
loop_
_geom_bond_atom_site_label_1
_geom_bond_atom_site_label_2
_geom_bond_site_symmetry_1
_geom_bond_site_symmetry_2
Cu1 O1 1_555 1_555
O1 H1 1_555 1_555
N1 N2 1_555 1_555
N2 Cu1 1_555 1_555
N3 C1 1_555 1_555
N4 C6 1_555 1_555
C1 N2 1_555 1_555
H2 C1 1_555 1_555
C2 N1 1_555 1_555
H3 C2 1_555 1_555
C3 N3 1_555 1_555
C4 C3 1_555 1_555
H4 C4 1_555 1_555
C5 C4 1_555 1_555
H5 C5 1_555 1_555
C6 C5 1_555 1_555
H6 C6 1_555 1_555
C7 N4 1_555 1_555
H7 C7 1_555 1_555
B1 F1 1_555 1_555
F2 B1 1_555 1_555
F3 B1 1_555 1_555
F4 B1 1_555 1_555
Cu1C O1 1_555 1_555
Cu1A N4 1_555 1_555
O1C Cu1 1_555 1_555
H1C O1C 1_555 1_555
N1C Cu1 1_555 1_555
N4A Cu1 1_555 1_555
N1 Cu1C 1_555 1_555
N3 C2 1_555 1_555
C3 C7 1_555 1_555

#END
