
#######################################################################
#
#                 Cambridge Crystallographic Data Centre
#                                CCDC 
#
#######################################################################
#
# If this CIF has been generated from an entry in the Cambridge 
# Structural Database, then it will include bibliographic, chemical, 
# crystal, experimental, refinement or atomic coordinate data resulting 
# from the CCDC's data processing and validation procedures.
#
#######################################################################

data_YUNJEX
_symmetry_cell_setting           orthorhombic
_symmetry_space_group_name_H-M   'P 21 21 21'
_symmetry_Int_Tables_number      19
_space_group_name_Hall           'P 2ac 2ab'
loop_
_symmetry_equiv_pos_site_id
_symmetry_equiv_pos_as_xyz
1 x,y,z
2 1/2-x,-y,1/2+z
3 -x,1/2+y,1/2-z
4 1/2+x,1/2-y,-z
_cell_length_a                   6.7418(12)
_cell_length_b                   12.143(2)
_cell_length_c                   13.040(2)
_cell_angle_alpha                90
_cell_angle_beta                 90
_cell_angle_gamma                90
_cell_volume                     1067.53
loop_
_atom_site_label
_atom_site_type_symbol
_atom_site_fract_x
_atom_site_fract_y
_atom_site_fract_z
N1 N 0.4791(6) 0.7230(3) 0.6300(3)
N2 N 0.6817(6) 0.7214(3) 0.6308(3)
C1 C 0.4194(8) 0.6879(4) 0.7192(4)
C2 C 0.7374(7) 0.6853(4) 0.7202(4)
N3 N 0.5782(6) 0.6636(3) 0.7782(3)
Cu1 Cu 0.33265(8) 0.76142(4) 0.50120(6)
C3 C 0.5579(10) 0.6814(4) 0.9649(4)
H1 H 0.5434 0.7573 0.9591
C4 C 0.5591(11) 0.6299(4) 1.0595(4)
H2 H 0.5397 0.6703 1.1193
C5 C 0.5893(10) 0.5184(4) 1.0635(4)
H3 H 0.5937 0.4852 1.1277
C6 C 0.6059(9) 0.5044(4) 0.8901(4)
H4 H 0.6198 0.4618 0.8312
C7 C 0.5789(8) 0.6156(4) 0.8796(3)
H5 H 0.8675 0.6761 0.7411
H6 H 0.2872 0.6808 0.7394
N4 N 0.6130(6) 0.4545(3) 0.9811(3)
O4 O 0.5812(5) 0.7479(3) 0.4262(2)
H7 H 0.571(10) 0.690(2) 0.391(3)
N2C N 0.1817(6) 0.7786(3) 0.3692(3)
Cu1C Cu 0.83265(8) 0.73858(4) 0.49880(6)
Cu1B Cu 0.66735(8) 0.26142(4) 0.99880(6)
N4B N 0.3870(6) 0.9545(3) 0.5189(3)
O4C O 0.0812(5) 0.7521(3) 0.5738(2)
H7C H 0.071(10) 0.810(2) 0.609(3)
N5 N 0.4122(8) 0.4839(4) 0.3833(4)
O1 O 0.4147(7) 0.3841(3) 0.3746(3)
O2 O 0.4469(7) 0.5445(3) 0.3079(3)
O3 O 0.3759(7) 0.5282(3) 0.4671(3)
O5 O 0.9096(9) 0.0726(4) 0.3306(3)
H8 H 0.940(11) 0.051(6) 0.390(3)
H9 H 0.800(6) 0.050(6) 0.306(5)
loop_
_geom_bond_atom_site_label_1
_geom_bond_atom_site_label_2
_geom_bond_site_symmetry_1
_geom_bond_site_symmetry_2
N1 N2 1_555 1_555
N2 C2 1_555 1_555
C1 N1 1_555 1_555
C2 N3 1_555 1_555
N3 C1 1_555 1_555
Cu1 N1 1_555 1_555
C3 H1 1_555 1_555
C4 C3 1_555 1_555
H2 C4 1_555 1_555
C5 C4 1_555 1_555
H3 C5 1_555 1_555
C6 H4 1_555 1_555
C7 N3 1_555 1_555
H5 C2 1_555 1_555
H6 C1 1_555 1_555
N4 C5 1_555 1_555
N5 O1 1_555 1_555
O2 N5 1_555 1_555
O3 N5 1_555 1_555
O4 Cu1 1_555 1_555
H7 O4 1_555 1_555
O5 H8 1_555 1_555
H9 O5 1_555 1_555
N2C Cu1 1_555 1_555
Cu1C N2 1_555 1_555
Cu1B N4 1_555 1_555
N4B Cu1 1_555 1_555
O4C Cu1 1_555 1_555
H7C O4C 1_555 1_555
C3 C7 1_555 1_555
C6 C7 1_555 1_555
C6 N4 1_555 1_555
O4 Cu1C 1_555 1_555

#END
