
#######################################################################
#
#                 Cambridge Crystallographic Data Centre
#                                CCDC 
#
#######################################################################
#
# If this CIF has been generated from an entry in the Cambridge 
# Structural Database, then it will include bibliographic, chemical, 
# crystal, experimental, refinement or atomic coordinate data resulting 
# from the CCDC's data processing and validation procedures.
#
#######################################################################

data_YUNKOI
_symmetry_cell_setting           orthorhombic
_symmetry_space_group_name_H-M   'C m c a'
_symmetry_Int_Tables_number      64
_space_group_name_Hall           '-C 2ac 2'
loop_
_symmetry_equiv_pos_site_id
_symmetry_equiv_pos_as_xyz
1 x,y,z
2 -x,1/2-y,1/2+z
3 -x,1/2+y,1/2-z
4 x,-y,-z
5 1/2+x,1/2+y,z
6 1/2-x,-y,1/2+z
7 1/2-x,y,1/2-z
8 1/2+x,1/2-y,-z
9 -x,-y,-z
10 x,1/2+y,1/2-z
11 x,1/2-y,1/2+z
12 -x,y,z
13 1/2-x,1/2-y,-z
14 1/2+x,y,1/2-z
15 1/2+x,-y,1/2+z
16 1/2-x,1/2+y,z
_cell_length_a                   26.0108(8)
_cell_length_b                   14.1312(13)
_cell_length_c                   17.4098(10)
_cell_angle_alpha                90
_cell_angle_beta                 90
_cell_angle_gamma                90
_cell_volume                     6399.21
loop_
_atom_site_label
_atom_site_type_symbol
_atom_site_fract_x
_atom_site_fract_y
_atom_site_fract_z
Ag1 Ag 0.33412(2) 0.5000 0.5000
N1 N 0.26108(15) 0.6161(3) 0.4841(2)
N2 N 0.18335(14) 0.6270(3) 0.4288(2)
N3 N 0.13018(15) 0.9039(3) 0.4123(2)
N4 N 0.23546(15) 0.6366(3) 0.2835(2)
C1 C 0.17505(19) 0.6186(4) 0.5070(2)
C2 C 0.1302(2) 0.6178(3) 0.5498(3)
H1 H 0.0973 0.6231 0.5263
C3 C 0.1357(2) 0.6089(3) 0.6283(3)
H2 H 0.1059 0.6084 0.6599
C4 C 0.1840(2) 0.6005(4) 0.6625(3)
H3 H 0.1861 0.5938 0.7167
C5 C 0.2285(2) 0.6017(3) 0.6206(3)
H4 H 0.2612 0.5962 0.6446
C6 C 0.22381(18) 0.6113(3) 0.5403(3)
C7 C 0.23611(17) 0.6272(3) 0.4182(3)
C8 C 0.31975(19) 0.6423(4) 0.3464(3)
H5 H 0.3330 0.6478 0.2939
H6 H 0.3338 0.5852 0.3705
H7 H 0.3300 0.6980 0.3762
C9 C 0.26314(17) 0.6360(3) 0.3444(3)
C10 C 0.14099(17) 0.6412(3) 0.3746(3)
H8 H 0.1111 0.6030 0.3915
H9 H 0.1516 0.6179 0.3234
C11 C 0.12488(16) 0.7431(3) 0.3680(3)
C12 C 0.08740(17) 0.7697(4) 0.3150(3)
H10 H 0.0731 0.7245 0.2807
C13 C 0.07151(19) 0.8625(4) 0.3131(3)
H11 H 0.0457 0.8818 0.2778
C14 C 0.09316(18) 0.9277(4) 0.3626(3)
H12 H 0.0814 0.9913 0.3613
C15 C 0.14468(18) 0.8125(3) 0.4148(3)
H13 H 0.1702 0.7949 0.4511
Ag1L Ag 0.16588(2) 1.0000 0.5000
Ag1E Ag 0.16588(2) 0.5000 0.0000
Ag1I Ag 0.33412(2) 1.0000 0.0000
N1F N 0.23892(15) 0.6161(3) 0.0159(2)
N1C N 0.26108(15) 0.3839(3) 0.5159(2)
N2F N 0.31665(14) 0.6270(3) 0.0712(2)
N3F N 0.36982(15) 0.9039(3) 0.0877(2)
N3L N 0.36982(15) 0.5961(3) 0.5877(2)
N3O N 0.36982(15) 0.4039(3) 0.4123(2)
N4F N 0.26454(15) 0.6366(3) 0.2165(2)
C1F C 0.32495(19) 0.6186(4) -0.0070(2)
C2F C 0.3698(2) 0.6178(3) -0.0498(3)
H1F H 0.4027 0.6231 -0.0263
C3F C 0.3643(2) 0.6089(3) -0.1283(3)
H2F H 0.3941 0.6084 -0.1599
C4F C 0.3160(2) 0.6005(4) -0.1625(3)
H3F H 0.3139 0.5938 -0.2167
C5F C 0.2715(2) 0.6017(3) -0.1206(3)
H4F H 0.2388 0.5962 -0.1446
C6F C 0.27619(18) 0.6113(3) -0.0403(3)
C7F C 0.26389(17) 0.6272(3) 0.0818(3)
C8F C 0.18025(19) 0.6423(4) 0.1536(3)
H5F H 0.1670 0.6478 0.2061
H6F H 0.1662 0.5852 0.1295
H7F H 0.1700 0.6980 0.1238
C9F C 0.23686(17) 0.6360(3) 0.1556(3)
C10F C 0.35901(17) 0.6412(3) 0.1254(3)
H8F H 0.3889 0.6030 0.1085
H9F H 0.3484 0.6179 0.1766
C11F C 0.37512(16) 0.7431(3) 0.1320(3)
C12F C 0.41260(17) 0.7697(4) 0.1850(3)
H10F H 0.4269 0.7245 0.2193
C13F C 0.42849(19) 0.8625(4) 0.1869(3)
H11F H 0.4543 0.8818 0.2222
C14F C 0.40684(18) 0.9277(4) 0.1374(3)
H12F H 0.4186 0.9913 0.1387
C15F C 0.35532(18) 0.8125(3) 0.0852(3)
H13F H 0.3298 0.7949 0.0489
C16 C 0.0000 0.3224(8) 0.9584(7)
S1 S 0.0000 0.30839(17) 0.85818(14)
O2 O -0.0429(4) 0.3582(6) 0.8340(5)
O3 O 0.0000 0.2111(4) 0.8422(4)
F1 F 0.0000 0.4068(5) 0.9838(4)
F2 F -0.0506(4) 0.2933(8) 0.9780(6)
O2K O 0.0429(4) 0.3582(6) 0.8340(5)
F2K F 0.0506(4) 0.2933(8) 0.9780(6)
C17 C 0.0000 -0.0382(10) 0.8672(9)
O1 O 0.0000 0.0245(16) 0.9168(14)
F3? F 0.0000 0.2547(15) 1.0026(9)
O4? O 0.0336(9) -0.0390(18) 0.8042(15)
loop_
_geom_bond_atom_site_label_1
_geom_bond_atom_site_label_2
_geom_bond_site_symmetry_1
_geom_bond_site_symmetry_2
Ag1 N1 1_555 1_555
N1 C6 1_555 1_555
N2 C1 1_555 1_555
N3 C14 1_555 1_555
N4 C9 1_555 1_555
C1 C2 1_555 1_555
C2 H1 1_555 1_555
C3 C2 1_555 1_555
H2 C3 1_555 1_555
C4 C3 1_555 1_555
H3 C4 1_555 1_555
C5 C4 1_555 1_555
H4 C5 1_555 1_555
C6 C1 1_555 1_555
C7 N1 1_555 1_555
C8 H5 1_555 1_555
H6 C8 1_555 1_555
H7 C8 1_555 1_555
C9 C7 1_555 1_555
C10 N2 1_555 1_555
H8 C10 1_555 1_555
H9 C10 1_555 1_555
C11 C10 1_555 1_555
C12 C11 1_555 1_555
H10 C12 1_555 1_555
C13 C12 1_555 1_555
H11 C13 1_555 1_555
C14 C13 1_555 1_555
H12 C14 1_555 1_555
C15 N3 1_555 1_555
H13 C15 1_555 1_555
C16 S1 1_555 1_555
C17 O1 1_555 1_555
S1 O2 1_555 1_555
O3 S1 1_555 1_555
F1 C16 1_555 1_555
F2 C16 1_555 1_555
Ag1L N3 1_555 1_555
Ag1E N1F 1_555 1_555
Ag1I N3F 1_555 1_555
N1F C6F 1_555 1_555
N1C Ag1 1_555 1_555
N2F C1F 1_555 1_555
N3F C14F 1_555 1_555
N3L Ag1 1_555 1_555
N3O Ag1 1_555 1_555
N4F N4 1_555 1_555
C1F C2F 1_555 1_555
C2F H1F 1_555 1_555
C3F C2F 1_555 1_555
H2F C3F 1_555 1_555
C4F C3F 1_555 1_555
H3F C4F 1_555 1_555
C5F C4F 1_555 1_555
H4F C5F 1_555 1_555
C6F C1F 1_555 1_555
C7F N1F 1_555 1_555
C8F H5F 1_555 1_555
H6F C8F 1_555 1_555
H7F C8F 1_555 1_555
C9F N4F 1_555 1_555
C10F N2F 1_555 1_555
H8F C10F 1_555 1_555
H9F C10F 1_555 1_555
C11F C10F 1_555 1_555
C12F C11F 1_555 1_555
H10F C12F 1_555 1_555
C13F C12F 1_555 1_555
H11F C13F 1_555 1_555
C14F C13F 1_555 1_555
H12F C14F 1_555 1_555
C15F N3F 1_555 1_555
H13F C15F 1_555 1_555
O2K S1 1_555 1_555
F2K C16 1_555 1_555
N2 C7 1_555 1_555
C5 C6 1_555 1_555
C8 C9 1_555 1_555
C11 C15 1_555 1_555
N2F C7F 1_555 1_555
C5F C6F 1_555 1_555
C7F C9F 1_555 1_555
C8F C9F 1_555 1_555
C11F C15F 1_555 1_555

#END
