
#######################################################################
#
#                 Cambridge Crystallographic Data Centre
#                                CCDC 
#
#######################################################################
#
# If this CIF has been generated from an entry in the Cambridge 
# Structural Database, then it will include bibliographic, chemical, 
# crystal, experimental, refinement or atomic coordinate data resulting 
# from the CCDC's data processing and validation procedures.
#
#######################################################################

data_YUNKIC
_symmetry_cell_setting           monoclinic
_symmetry_space_group_name_H-M   'P 21/c'
_symmetry_Int_Tables_number      14
_space_group_name_Hall           '-P 2ybc'
loop_
_symmetry_equiv_pos_site_id
_symmetry_equiv_pos_as_xyz
1 x,y,z
2 -x,1/2+y,1/2-z
3 -x,-y,-z
4 x,1/2-y,1/2+z
_cell_length_a                   18.924(2)
_cell_length_b                   18.028(2)
_cell_length_c                   18.484(2)
_cell_angle_alpha                90
_cell_angle_beta                 109.975(2)
_cell_angle_gamma                90
_cell_volume                     5926.68
loop_
_atom_site_label
_atom_site_type_symbol
_atom_site_fract_x
_atom_site_fract_y
_atom_site_fract_z
Cu1 Cu 0.42242(6) 0.57470(7) 0.76229(7)
Cu2 Cu 0.31203(5) 0.45480(6) 0.63327(6)
Cu3 Cu 0.77156(5) 0.59453(6) 0.56234(6)
Cu4 Cu 0.91059(6) 0.60885(6) 0.72425(6)
O1 O 0.4038(3) 0.5059(4) 0.6791(4)
H1 H 0.4425 0.4969 0.6599
O2 O 0.2681(4) 0.5152(4) 0.5062(4)
H2 H 0.3112 0.5176 0.5411
H3 H 0.2393 0.5528 0.4964
O3 O 0.8704(3) 0.5656(4) 0.6253(3)
H4 H 0.8979 0.5315 0.6080
O4 O 0.9640(5) 0.5046(4) 0.7805(4)
H5 H 1.0098 0.4959 0.7865
H6 H 0.9387 0.4732 0.7958
N1 N 0.5324(4) 0.5461(4) 0.8025(4)
N2 N 0.7037(4) 0.5598(4) 0.7514(4)
N3 N 0.7464(4) 0.5805(4) 0.6587(4)
N4 N 0.8046(4) 0.5883(4) 0.7276(4)
N5 N 0.2181(4) 0.3936(4) 0.5964(4)
N6 N 0.1884(4) 0.3738(4) 0.5201(4)
N7 N 0.1289(4) 0.3137(4) 0.5831(4)
N8 N 0.0578(4) 0.1668(4) 0.6766(5)
N9 N 0.6410(4) 0.8829(4) 0.9195(4)
N10 N 0.6710(4) 0.8652(4) 0.9969(4)
N11 N 0.5724(4) 0.7956(4) 0.9428(4)
N12 N 0.4406(4) 0.6456(4) 0.8533(5)
N13 N 0.0009(4) 0.6561(4) 0.7030(4)
N14 N 0.1895(4) 0.6161(4) 0.6981(5)
N15 N 0.2649(4) 0.5325(4) 0.6807(4)
N16 N 0.3082(4) 0.5889(4) 0.7244(5)
C1 C 0.5596(6) 0.5105(7) 0.8694(7)
H7 H 0.5269 0.4988 0.8956
C2 C 0.6341(7) 0.4901(8) 0.9017(8)
H8 H 0.6515 0.4673 0.9497
C3 C 0.6815(6) 0.5038(8) 0.8626(7)
H9 H 0.7315 0.4887 0.8820
C4 C 0.6541(5) 0.5406(5) 0.7935(5)
C5 C 0.5797(4) 0.5623(5) 0.7650(5)
H10 H 0.5622 0.5886 0.7189
C6 C 0.6861(5) 0.5642(5) 0.6732(5)
H11 H 0.6386 0.5568 0.6367
C7 C 0.7778(5) 0.5756(5) 0.7825(5)
H12 H 0.8052 0.5772 0.8349
C8 C 0.1810(5) 0.3570(5) 0.6323(5)
H13 H 0.1894 0.3604 0.6848
C9 C 0.1354(5) 0.3255(5) 0.5136(5)
H14 H 0.1065 0.3026 0.4679
C10 C 0.0781(5) 0.2622(5) 0.5980(5)
C11 C 0.0058(5) 0.2558(6) 0.5469(6)
H15 H -0.0120 0.2864 0.5040
C12 C -0.0391(6) 0.2022(7) 0.5620(7)
H16 H -0.0882 0.1955 0.5287
C13 C -0.0115(5) 0.1591(7) 0.6258(6)
H17 H -0.0423 0.1225 0.6345
C14 C 0.1034(5) 0.2178(5) 0.6622(5)
H18 H 0.1524 0.2230 0.6960
C15 C 0.5818(5) 0.8407(5) 0.8878(5)
H19 H 0.5513 0.8416 0.8363
C16 C 0.6284(5) 0.8131(5) 1.0095(5)
H20 H 0.6354 0.7913 1.0570
C17 C 0.5154(4) 0.7411(5) 0.9326(5)
C18 C 0.4828(5) 0.7304(6) 0.9870(5)
H21 H 0.4970 0.7581 1.0321
C19 C 0.4283(6) 0.6774(6) 0.9722(6)
H22 H 0.4046 0.6687 1.0079
C20 C 0.4079(6) 0.6368(6) 0.9059(6)
H23 H 0.3698 0.6018 0.8973
C21 C 0.4939(5) 0.6980(5) 0.8667(5)
H24 H 0.5172 0.7056 0.8304
C22 C -0.0036(5) 0.7273(7) 0.6870(6)
H25 H -0.0477 0.7520 0.6839
C23 C 0.0528(6) 0.7675(6) 0.6746(8)
H26 H 0.0471 0.8180 0.6643
C24 C 0.1185(6) 0.7310(6) 0.6777(7)
H27 H 0.1579 0.7562 0.6693
C25 C 0.1229(5) 0.6569(6) 0.6935(6)
C26 C 0.0630(5) 0.6201(5) 0.7062(6)
H28 H 0.0667 0.5695 0.7169
C27 C 0.1942(5) 0.5505(5) 0.6658(5)
H29 H 0.1533 0.5220 0.6371
C28 C 0.2626(5) 0.6370(5) 0.7350(6)
H30 H 0.2773 0.6802 0.7637
O10 O 0.3907(5) 0.4752(5) 0.8452(6)
O11 O 0.4376(5) 0.6782(5) 0.6803(5)
O17 O 0.8049(4) 0.7313(5) 0.6302(5)
Cu1A Cu 0.57758(6) 1.07470(7) 0.73771(7)
Cu1A_2 Cu 0.57758(6) 0.07470(7) 0.73771(7)
Cu1_2 Cu 1.42242(6) 0.57470(7) 0.76229(7)
Cu1C Cu 0.42242(6) 0.92530(7) 1.26229(7)
Cu2A Cu 0.68797(5) 0.95480(6) 0.86673(6)
Cu2B Cu 0.68797(5) 0.54520(6) 0.36673(6)
Cu2_2 Cu 1.31203(5) 0.45480(6) 0.63327(6)
Cu3C Cu 0.77156(5) 0.90547(6) 1.06234(6)
Cu3B Cu 0.22844(5) 0.40547(6) 0.43766(6)
Cu4_2 Cu -0.08941(6) 0.60885(6) 0.72425(6)
Cu4A Cu 0.08941(6) 0.10885(6) 0.77575(6)
Cu4C Cu 0.91059(6) 0.89115(6) 0.22425(6)
Cu4C_2 Cu 0.91059(6) 0.89115(6) 1.22425(6)
O1A O 0.5962(3) 1.0059(4) 0.8209(4)
H1A H 0.5575 0.9969 0.8401
O2B O 0.7319(4) 0.4848(4) 0.4938(4)
O2A O 0.7319(4) 1.0152(4) 0.9938(4)
H2B H 0.6888 0.4824 0.4589
H2A H 0.6888 1.0176 0.9589
H3B H 0.7607 0.4472 0.5036
H3A H 0.7607 1.0528 1.0036
O3C O 0.8704(3) 0.9344(4) 1.1253(3)
O3_2 O -0.1296(3) 0.5656(4) 0.6253(3)
H4C H 0.8979 0.9685 1.1080
H4_2 H -0.1021 0.5315 0.6080
O4_2 O -0.0360(5) 0.5046(4) 0.7805(4)
H5_2 H 0.0098 0.4959 0.7865
H6_2 H -0.0613 0.4732 0.7958
N1C N 0.5324(4) 0.9539(4) 1.3025(4)
N1A N 0.4676(4) 1.0461(4) 0.6975(4)
N2C N 0.7037(4) 0.9402(4) 1.2514(4)
N3C N 0.7464(4) 0.9195(4) 1.1587(4)
N4C N 0.8046(4) 0.9117(4) 1.2276(4)
N4_2 N -0.1954(4) 0.5883(4) 0.7276(4)
N5B N 0.7819(4) 0.6064(4) 0.4036(4)
N5A N 0.7819(4) 0.8936(4) 0.9036(4)
N6B N 0.8116(4) 0.6262(4) 0.4799(4)
N6A N 0.8116(4) 0.8738(4) 0.9799(4)
N7B N 0.8711(4) 0.6863(4) 0.4169(4)
N8B N 0.9422(4) 0.8332(4) 0.3234(5)
N8A N 0.9422(4) 0.6668(4) 0.8234(5)
N8A_2 N -0.0578(4) 0.6668(4) 0.8234(5)
N9A N 0.3590(4) 0.3829(4) 0.5805(4)
N10A N 0.3290(4) 0.3652(4) 0.5031(4)
N10C N 0.6710(4) 0.6348(4) 0.4969(4)
N11A N 0.4276(4) 0.2956(4) 0.5572(4)
N12A N 0.5594(4) 0.1456(4) 0.6467(5)
N12A_2 N 0.5594(4) 1.1456(4) 0.6467(5)
N13_2 N 1.0009(4) 0.6561(4) 0.7030(4)
N14_2 N 1.1895(4) 0.6161(4) 0.6981(5)
N15_2 N 1.2649(4) 0.5325(4) 0.6807(4)
N15A N 0.7351(4) 1.0325(4) 0.8193(4)
N16_2 N 1.3082(4) 0.5889(4) 0.7244(5)
N16A N 0.6918(4) 1.0889(4) 0.7756(5)
C1C C 0.5596(6) 0.9895(7) 1.3694(7)
H7C H 0.5269 1.0012 1.3956
C2C C 0.6341(7) 1.0099(8) 1.4017(8)
H8C H 0.6515 1.0327 1.4497
C3C C 0.6815(6) 0.9962(8) 1.3626(7)
H9C H 0.7315 1.0113 1.3820
C4C C 0.6541(5) 0.9594(5) 1.2935(5)
C5C C 0.5797(4) 0.9377(5) 1.2650(5)
H10C H 0.5622 0.9114 1.2189
C6C C 0.6861(5) 0.9358(5) 1.1732(5)
H11C H 0.6386 0.9432 1.1367
C7C C 0.7778(5) 0.9244(5) 1.2825(5)
H12C H 0.8052 0.9228 1.3349
C8B C 0.8190(5) 0.6430(5) 0.3677(5)
H13B H 0.8106 0.6396 0.3152
C9B C 0.8646(5) 0.6745(5) 0.4864(5)
H14B H 0.8935 0.6974 0.5321
C10B C 0.9219(5) 0.7378(5) 0.4020(5)
C11B C 0.9942(5) 0.7442(6) 0.4531(6)
H15B H 1.0120 0.7136 0.4960
C12B C 1.0391(6) 0.7978(7) 0.4380(7)
H16B H 1.0882 0.8045 0.4713
C13B C 1.0115(5) 0.8409(7) 0.3742(6)
H17B H 1.0423 0.8775 0.3655
C14B C 0.8966(5) 0.7822(5) 0.3378(5)
H18B H 0.8476 0.7770 0.3040
C15A C 0.4182(5) 0.3407(5) 0.6122(5)
H19A H 0.4487 0.3416 0.6637
C16A C 0.3716(5) 0.3131(5) 0.4905(5)
H20A H 0.3646 0.2913 0.4430
C17A C 0.4846(4) 0.2411(5) 0.5674(5)
C18A C 0.5172(5) 0.2304(6) 0.5130(5)
H21A H 0.5030 0.2581 0.4679
C19A C 0.5717(6) 0.1774(6) 0.5278(6)
H22A H 0.5954 0.1687 0.4921
C20A C 0.5921(6) 0.1368(6) 0.5941(6)
H23A H 0.6302 0.1018 0.6027
C21A C 0.5061(5) 0.1980(5) 0.6333(5)
H24A H 0.4828 0.2056 0.6696
C22_2 C 0.9964(5) 0.7273(7) 0.6870(6)
H25_2 H 0.9523 0.7520 0.6839
C23_2 C 1.0528(6) 0.7675(6) 0.6746(8)
H26_2 H 1.0471 0.8180 0.6643
C24_2 C 1.1185(6) 0.7310(6) 0.6777(7)
H27_2 H 1.1579 0.7562 0.6693
C25_2 C 1.1229(5) 0.6569(6) 0.6935(6)
C26_2 C 1.0630(5) 0.6201(5) 0.7062(6)
H28_2 H 1.0667 0.5695 0.7169
C27_2 C 1.1942(5) 0.5505(5) 0.6658(5)
H29_2 H 1.1533 0.5220 0.6371
C28_2 C 1.2626(5) 0.6370(5) 0.7350(6)
H30_2 H 1.2773 0.6802 0.7637
O10A O 0.6093(5) 0.9752(5) 0.6548(6)
O11A O 0.5624(5) 1.1782(5) 0.8197(5)
O17C O 0.8049(4) 0.7687(5) 1.1302(5)
Si1 Si 0.7981(4) 0.4453(6) 0.0924(5)
F1 F 0.7484(10) 0.4773(11) 0.1399(12)
F2 F 0.8186(12) 0.3663(13) 0.1342(12)
F3 F 0.8754(12) 0.4837(13) 0.1425(14)
F4 F 0.8382(15) 0.4206(15) 0.0291(15)
F5 F 0.7784(11) 0.5251(11) 0.0417(12)
F6 F 0.7286(12) 0.3980(12) 0.0313(13)
Si2 Si 0.36932(15) 0.27448(15) 0.78653(15)
F7 F 0.3727(6) 0.2343(4) 0.7070(4)
F8 F 0.4028(4) 0.1967(4) 0.8360(4)
F9 F 0.4572(4) 0.3053(6) 0.8039(6)
F10 F 0.3699(6) 0.3132(4) 0.8674(4)
F11 F 0.2821(4) 0.2442(5) 0.7686(5)
F12 F 0.3383(3) 0.3543(3) 0.7391(3)
Si3 Si 0.0000 0.5000 0.5000
F13 F 0.0806(4) 0.5177(6) 0.4863(5)
F14 F -0.0062(5) 0.4185(4) 0.4580(4)
F15 F -0.0483(3) 0.5386(4) 0.4149(4)
F13B F -0.0806(4) 0.4823(6) 0.5137(5)
F14B F 0.0062(5) 0.5815(4) 0.5420(4)
F15B F 0.0483(3) 0.4614(4) 0.5851(4)
Si4 Si 0.5000 1.0000 0.0000
F16 F 0.5093(4) 1.0110(6) 0.0940(4)
F17 F 0.5057(5) 0.9096(4) 0.0125(6)
F18 F 0.5936(3) 1.0056(5) 0.0224(4)
F16B F 0.4907(4) 0.9890(6) -0.0940(4)
F17B F 0.4943(5) 1.0904(4) -0.0125(6)
F18B F 0.4064(3) 0.9944(5) -0.0224(4)
O5 O 0.858(2) 0.6209(15) 0.2164(14)
O6 O 0.7293(17) 0.2229(19) 0.131(2)
O7 O 0.6179(10) 0.1218(9) 0.1722(9)
O8 O 0.2588(9) 0.3050(10) 0.0740(10)
O9 O 0.1545(16) 0.5892(16) 0.1437(19)
O12 O 0.3339(16) 0.7911(16) 0.7010(16)
O13 O 0.3676(7) 0.6464(8) 0.5257(8)
O14 O 0.2361(15) 0.805(2) 0.5788(18)
O15 O 0.0105(11) 0.6083(8) 0.3134(9)
O16 O 0.3334(19) 0.1303(15) 0.4835(15)
O18 O 0.1782(8) 0.6375(8) 0.5134(11)
O19 O 0.159(3) 0.599(3) 0.340(3)
F19? F 0.8753(13) 0.5965(13) -0.0471(8)
F20? F 0.8941(10) 0.6582(7) 0.0572(11)
F21? F 0.9757(8) 0.5646(14) 0.0567(14)
F22? F 0.9052(15) 0.5506(16) 0.1253(9)
F23? F 0.8806(16) 0.4899(9) 0.0063(17)
F24? F 0.7993(7) 0.5809(14) 0.0217(14)
O20? O 0.201(3) 0.597(3) 0.295(3)
Si5? Si 0.8872(6) 0.5728(6) 0.0378(6)
loop_
_geom_bond_atom_site_label_1
_geom_bond_atom_site_label_2
_geom_bond_site_symmetry_1
_geom_bond_site_symmetry_2
Cu1 O1 1_555 1_555
Cu2 O1 1_555 1_555
Cu3 O3 1_555 1_555
Cu4 O3 1_555 1_555
Si1 F1 1_555 1_555
F2 Si1 1_555 1_555
F3 Si1 1_555 1_555
F4 Si1 1_555 1_555
F5 Si1 1_555 1_555
F6 Si1 1_555 1_555
Si2 F7 1_555 1_555
F8 Si2 1_555 1_555
F9 Si2 1_555 1_555
F10 Si2 1_555 1_555
F11 Si2 1_555 1_555
F12 Si2 1_555 1_555
Si3 F13 1_555 1_555
F14 Si3 1_555 1_555
F15 Si3 1_555 1_555
Si4 F16 1_555 1_555
F17 Si4 1_555 1_555
F18 Si4 1_555 1_555
O1 H1 1_555 1_555
O2 Cu2 1_555 1_555
H2 O2 1_555 1_555
H3 O2 1_555 1_555
O3 H4 1_555 1_555
O4 Cu4 1_555 1_555
H5 O4 1_555 1_555
H6 O4 1_555 1_555
N1 Cu1 1_555 1_555
N2 C4 1_555 1_555
N3 Cu3 1_555 1_555
N4 Cu4 1_555 1_555
N5 Cu2 1_555 1_555
N6 N5 1_555 1_555
N7 C8 1_555 1_555
N8 C13 1_555 1_555
N9 N10 1_555 1_555
N10 C16 1_555 1_555
N11 C15 1_555 1_555
N12 Cu1 1_555 1_555
N13 C22 1_555 1_555
N14 C25 1_555 1_555
N15 Cu2 1_555 1_555
N16 Cu1 1_555 1_555
C1 N1 1_555 1_555
H7 C1 1_555 1_555
C2 C1 1_555 1_555
H8 C2 1_555 1_555
C3 C2 1_555 1_555
H9 C3 1_555 1_555
C4 C3 1_555 1_555
C5 N1 1_555 1_555
H10 C5 1_555 1_555
C6 N2 1_555 1_555
H11 C6 1_555 1_555
C7 N2 1_555 1_555
H12 C7 1_555 1_555
C8 N5 1_555 1_555
H13 C8 1_555 1_555
C9 N6 1_555 1_555
H14 C9 1_555 1_555
C10 N7 1_555 1_555
C11 C10 1_555 1_555
H15 C11 1_555 1_555
C12 C11 1_555 1_555
H16 C12 1_555 1_555
C13 C12 1_555 1_555
H17 C13 1_555 1_555
C14 N8 1_555 1_555
H18 C14 1_555 1_555
C15 N9 1_555 1_555
H19 C15 1_555 1_555
C16 N11 1_555 1_555
H20 C16 1_555 1_555
C17 N11 1_555 1_555
C18 C17 1_555 1_555
H21 C18 1_555 1_555
C19 C18 1_555 1_555
H22 C19 1_555 1_555
C20 N12 1_555 1_555
H23 C20 1_555 1_555
C21 N12 1_555 1_555
H24 C21 1_555 1_555
C22 H25 1_555 1_555
C23 C22 1_555 1_555
H26 C23 1_555 1_555
C24 C23 1_555 1_555
H27 C24 1_555 1_555
C25 C24 1_555 1_555
C26 N13 1_555 1_555
H28 C26 1_555 1_555
C27 N14 1_555 1_555
H29 C27 1_555 1_555
C28 N14 1_555 1_555
H30 C28 1_555 1_555
O10 Cu1 1_555 1_555
O11 Cu1 1_555 1_555
O17 Cu3 1_555 1_555
Cu1A O1A 1_555 1_555
Cu1A_2 N12A 1_555 1_555
Cu1_2 N16_2 1_555 1_555
Cu1C N1C 1_555 1_555
Cu2A N9 1_555 1_555
Cu2B O2B 1_555 1_555
Cu2_2 N15_2 1_555 1_555
Cu3C N10 1_555 1_555
Cu3B O2 1_555 1_555
Cu4_2 N13 1_555 1_555
Cu4A N8 1_555 1_555
Cu4C N8B 1_555 1_555
Cu4C_2 O3C 1_555 1_555
F13B Si3 1_555 1_555
F14B Si3 1_555 1_555
F15B Si3 1_555 1_555
F16B Si4 1_555 1_555
F17B Si4 1_555 1_555
F18B Si4 1_555 1_555
O1A Cu2A 1_555 1_555
H1A O1A 1_555 1_555
O2B Cu3 1_555 1_555
O2A Cu2A 1_555 1_555
H2B O2B 1_555 1_555
H2A O2A 1_555 1_555
H3B O2B 1_555 1_555
H3A O2A 1_555 1_555
O3C Cu3C 1_555 1_555
O3_2 Cu4_2 1_555 1_555
H4C O3C 1_555 1_555
H4_2 O3_2 1_555 1_555
O4_2 Cu4_2 1_555 1_555
H5_2 O4_2 1_555 1_555
H6_2 O4_2 1_555 1_555
N1C C1C 1_555 1_555
N1A Cu1A 1_555 1_555
N2C C4C 1_555 1_555
N3C Cu3C 1_555 1_555
N4C Cu4C_2 1_555 1_555
N4_2 Cu4_2 1_555 1_555
N5B Cu2B 1_555 1_555
N5A Cu2A 1_555 1_555
N6B Cu3 1_555 1_555
N6A Cu3C 1_555 1_555
N7B C8B 1_555 1_555
N8B C13B 1_555 1_555
N8A Cu4 1_555 1_555
N8A_2 Cu4_2 1_555 1_555
N9A Cu2 1_555 1_555
N10A Cu3B 1_555 1_555
N10C Cu3 1_555 1_555
N11A C15A 1_555 1_555
N12A C20A 1_555 1_555
N12A_2 Cu1A 1_555 1_555
N13_2 Cu4 1_555 1_555
N14_2 C25_2 1_555 1_555
N15_2 N16_2 1_555 1_555
N15A Cu2A 1_555 1_555
N16_2 C28_2 1_555 1_555
N16A Cu1A 1_555 1_555
C1C H7C 1_555 1_555
C2C C1C 1_555 1_555
H8C C2C 1_555 1_555
C3C C2C 1_555 1_555
H9C C3C 1_555 1_555
C4C C3C 1_555 1_555
C5C N1C 1_555 1_555
H10C C5C 1_555 1_555
C6C N2C 1_555 1_555
H11C C6C 1_555 1_555
C7C N2C 1_555 1_555
H12C C7C 1_555 1_555
C8B N5B 1_555 1_555
H13B C8B 1_555 1_555
C9B N6B 1_555 1_555
H14B C9B 1_555 1_555
C10B N7B 1_555 1_555
C11B C10B 1_555 1_555
H15B C11B 1_555 1_555
C12B C11B 1_555 1_555
H16B C12B 1_555 1_555
C13B C12B 1_555 1_555
H17B C13B 1_555 1_555
C14B N8B 1_555 1_555
H18B C14B 1_555 1_555
C15A N9A 1_555 1_555
H19A C15A 1_555 1_555
C16A N10A 1_555 1_555
H20A C16A 1_555 1_555
C17A N11A 1_555 1_555
C18A C17A 1_555 1_555
H21A C18A 1_555 1_555
C19A C18A 1_555 1_555
H22A C19A 1_555 1_555
C20A C19A 1_555 1_555
H23A C20A 1_555 1_555
C21A N12A 1_555 1_555
H24A C21A 1_555 1_555
C22_2 N13_2 1_555 1_555
H25_2 C22_2 1_555 1_555
C23_2 C22_2 1_555 1_555
H26_2 C23_2 1_555 1_555
C24_2 C23_2 1_555 1_555
H27_2 C24_2 1_555 1_555
C25_2 C24_2 1_555 1_555
C26_2 N13_2 1_555 1_555
H28_2 C26_2 1_555 1_555
C27_2 N14_2 1_555 1_555
H29_2 C27_2 1_555 1_555
C28_2 N14_2 1_555 1_555
H30_2 C28_2 1_555 1_555
O10A Cu1A 1_555 1_555
O11A Cu1A 1_555 1_555
O17C Cu3C 1_555 1_555
N3 N4 1_555 1_555
N3 C6 1_555 1_555
N4 C7 1_555 1_555
N6 Cu3B 1_555 1_555
N7 C9 1_555 1_555
N15 N16 1_555 1_555
N15 C27 1_555 1_555
N16 C28 1_555 1_555
C4 C5 1_555 1_555
C10 C14 1_555 1_555
C17 C21 1_555 1_555
C19 C20 1_555 1_555
C25 C26 1_555 1_555
Cu3C O2A 1_555 1_555
N3C N4C 1_555 1_555
N3C C6C 1_555 1_555
N4C C7C 1_555 1_555
N5B N6B 1_555 1_555
N5A N6A 1_555 1_555
N7B C9B 1_555 1_555
N9A N10A 1_555 1_555
N11A C16A 1_555 1_555
N15_2 C27_2 1_555 1_555
N15A N16A 1_555 1_555
C4C C5C 1_555 1_555
C10B C14B 1_555 1_555
C17A C21A 1_555 1_555
C25_2 C26_2 1_555 1_555

#END
