
#######################################################################
#
#                 Cambridge Crystallographic Data Centre
#                                CCDC 
#
#######################################################################
#
# If this CIF has been generated from an entry in the Cambridge 
# Structural Database, then it will include bibliographic, chemical, 
# crystal, experimental, refinement or atomic coordinate data resulting 
# from the CCDC's data processing and validation procedures.
#
#######################################################################

data_YUNKUO
_symmetry_cell_setting           triclinic
_symmetry_space_group_name_H-M   'P -1'
_symmetry_Int_Tables_number      2
_space_group_name_Hall           '-P 1'
loop_
_symmetry_equiv_pos_site_id
_symmetry_equiv_pos_as_xyz
1 x,y,z
2 -x,-y,-z
_cell_length_a                   10.0555(7)
_cell_length_b                   10.2469(7)
_cell_length_c                   11.4333(10)
_cell_angle_alpha                89.924(6)
_cell_angle_beta                 79.294(7)
_cell_angle_gamma                71.349(6)
_cell_volume                     1094.63
loop_
_atom_site_label
_atom_site_type_symbol
_atom_site_fract_x
_atom_site_fract_y
_atom_site_fract_z
Ag1 Ag 1.0000 1.0000 0.0000
Ag2 Ag 0.5000 1.0000 0.5000
N1 N 0.5497(4) 0.9460(3) 0.0242(3)
C1 C 0.6793(5) 0.9349(4) -0.0181(4)
N2 N 0.7643(4) 0.7110(4) 0.0761(4)
N3 N 0.9196(4) 0.8279(3) 0.0306(4)
C2 C 0.9857(5) 0.7094(5) 0.0834(4)
C3 C 1.1577(6) 0.5307(5) 0.1576(5)
H1 H 1.2508 0.4925 0.1750
C4 C 0.7887(5) 0.8262(5) 0.0283(4)
C5 C 0.8914(5) 0.6353(4) 0.1118(4)
C6 C 0.5404(5) 0.7121(4) 0.2061(4)
N4 N 0.4636(5) 0.8532(4) 0.3892(4)
C7 C 1.1235(5) 0.6546(5) 0.1055(5)
H2 H 1.1916 0.7014 0.0853
C8 C 0.7306(5) 1.0227(5) -0.1092(4)
H3 H 0.6480 1.0910 -0.1326
H4 H 0.7909 0.9641 -0.1794
H5 H 0.7863 1.0703 -0.0750
C9 C 0.9251(5) 0.5088(5) 0.1639(5)
H6 H 0.8581 0.4607 0.1828
C10 C 0.6402(5) 0.6664(5) 0.0885(4)
H7 H 0.6722 0.5644 0.0786
H8 H 0.5879 0.7033 0.0240
C12 C 0.5556(6) 0.8072(5) 0.2858(5)
H9 H 0.6344 0.8405 0.2658
C14 C 1.0601(6) 0.4585(5) 0.1859(5)
H11 H 1.0888 0.3725 0.2213
C16 C 0.4273(6) 0.6633(5) 0.2380(5)
H13 H 0.4145 0.5969 0.1871
C18 C 0.3326(6) 0.7113(5) 0.3442(5)
H14 H 0.2533 0.6792 0.3669
C21 C 0.3539(6) 0.8052(6) 0.4163(5)
H17 H 0.2877 0.8380 0.4892
Ag1_2 Ag 0.0000 1.0000 0.0000
Ag2_2 Ag 0.5000 1.0000 -0.5000
N1A N 0.4503(4) 1.0540(3) -0.0242(3)
C1A C 0.3207(5) 1.0651(4) 0.0181(4)
N2A N 0.2357(4) 1.2890(4) -0.0761(4)
N3A N 0.0804(4) 1.1721(3) -0.0306(4)
N3A_2 N 1.0804(4) 1.1721(3) -0.0306(4)
C2A C 0.0143(5) 1.2906(5) -0.0834(4)
C3A C -0.1577(6) 1.4693(5) -0.1576(5)
H1A H -0.2508 1.5075 -0.1750
C4A C 0.2113(5) 1.1738(5) -0.0283(4)
C5A C 0.1086(5) 1.3647(4) -0.1118(4)
C6A C 0.4596(5) 1.2879(4) -0.2061(4)
N4A N 0.5364(5) 1.1468(4) -0.3892(4)
N4A_2 N 0.5364(5) 1.1468(4) 0.6108(4)
C7A C -0.1235(5) 1.3454(5) -0.1055(5)
H2A H -0.1916 1.2986 -0.0853
C8A C 0.2694(5) 0.9773(5) 0.1092(4)
H3A H 0.3520 0.9090 0.1326
H4A H 0.2091 1.0359 0.1794
H5A H 0.2137 0.9297 0.0750
C9A C 0.0749(5) 1.4912(5) -0.1639(5)
H6A H 0.1419 1.5393 -0.1828
C10A C 0.3598(5) 1.3336(5) -0.0885(4)
H7A H 0.3278 1.4356 -0.0786
H8A H 0.4121 1.2967 -0.0240
C12A C 0.4444(6) 1.1928(5) -0.2858(5)
H9A H 0.3656 1.1595 -0.2658
C14A C -0.0601(6) 1.5415(5) -0.1859(5)
H11A H -0.0888 1.6275 -0.2213
C16A C 0.5727(6) 1.3367(5) -0.2380(5)
H13A H 0.5855 1.4031 -0.1871
C18A C 0.6674(6) 1.2887(5) -0.3442(5)
H14A H 0.7467 1.3208 -0.3669
C21A C 0.6461(6) 1.1948(6) -0.4163(5)
H17A H 0.7123 1.1620 -0.4892
S1 S 0.63865(15) 0.26755(14) 0.20090(13)
O1 O 0.5914(5) 0.3417(4) 0.1006(4)
C11 C 0.4817(6) 0.2797(5) 0.3060(5)
C13 C 0.4025(6) 0.1955(5) 0.2890(5)
H10 H 0.4362 0.1278 0.2242
O2 O 0.7119(4) 0.1216(4) 0.1698(4)
O3 O 0.7186(4) 0.3305(4) 0.2630(4)
C15 C 0.2732(6) 0.2096(5) 0.3667(5)
H12 H 0.2198 0.1513 0.3539
C17 C 0.2216(6) 0.3073(6) 0.4622(5)
C19 C 0.3055(6) 0.3906(5) 0.4781(5)
H15 H 0.2739 0.4577 0.5432
C20 C 0.4319(6) 0.3762(5) 0.4011(5)
H16 H 0.4862 0.4338 0.4136
C22 C 0.0846(7) 0.3218(7) 0.5469(6)
H18 H 0.0663 0.3958 0.6079
H19 H 0.0917 0.2348 0.5851
H20 H 0.0059 0.3442 0.5031
C23 C 0.9444(8) -0.0069(8) 0.3411(7)
O4 O 0.7908(10) -0.0238(8) 0.3424(7)
H21? H 0.0430 0.2541 0.5229
H22? H 0.0175 0.4151 0.5456
H23? H 0.1034 0.3057 0.6276
O5? O 0.9651(9) 0.1379(9) 0.3317(9)
loop_
_geom_bond_atom_site_label_1
_geom_bond_atom_site_label_2
_geom_bond_site_symmetry_1
_geom_bond_site_symmetry_2
Ag1 N3 1_555 1_555
Ag2 N4 1_555 1_555
S1 O1 1_555 1_555
N1 C1 1_555 1_555
C1 C4 1_555 1_555
N2 C4 1_555 1_555
N3 C2 1_555 1_555
C2 C5 1_555 1_555
C3 H1 1_555 1_555
C4 N3 1_555 1_555
C5 N2 1_555 1_555
C6 C10 1_555 1_555
N4 C12 1_555 1_555
C7 C2 1_555 1_555
H2 C7 1_555 1_555
C8 C1 1_555 1_555
H3 C8 1_555 1_555
H4 C8 1_555 1_555
H5 C8 1_555 1_555
C9 C5 1_555 1_555
H6 C9 1_555 1_555
C10 N2 1_555 1_555
H7 C10 1_555 1_555
H8 C10 1_555 1_555
C11 S1 1_555 1_555
C12 C6 1_555 1_555
H9 C12 1_555 1_555
C13 C11 1_555 1_555
H10 C13 1_555 1_555
O2 S1 1_555 1_555
C14 C3 1_555 1_555
H11 C14 1_555 1_555
O3 S1 1_555 1_555
C15 C13 1_555 1_555
H12 C15 1_555 1_555
C16 C6 1_555 1_555
H13 C16 1_555 1_555
C17 C15 1_555 1_555
C18 C16 1_555 1_555
H14 C18 1_555 1_555
C19 C17 1_555 1_555
H15 C19 1_555 1_555
C20 C11 1_555 1_555
H16 C20 1_555 1_555
C21 N4 1_555 1_555
H17 C21 1_555 1_555
C22 C17 1_555 1_555
H18 C22 1_555 1_555
H19 C22 1_555 1_555
H20 C22 1_555 1_555
C23 O4 1_555 1_555
Ag1_2 N3A 1_555 1_555
Ag2_2 N4A 1_555 1_555
N1A N1 1_555 1_555
C1A N1A 1_555 1_555
N2A C4A 1_555 1_555
N3A C2A 1_555 1_555
N3A_2 Ag1 1_555 1_555
C2A C5A 1_555 1_555
C3A H1A 1_555 1_555
C4A C1A 1_555 1_555
C5A N2A 1_555 1_555
C6A C10A 1_555 1_555
N4A C12A 1_555 1_555
N4A_2 Ag2 1_555 1_555
C7A C2A 1_555 1_555
H2A C7A 1_555 1_555
C8A C1A 1_555 1_555
H3A C8A 1_555 1_555
H4A C8A 1_555 1_555
H5A C8A 1_555 1_555
C9A C5A 1_555 1_555
H6A C9A 1_555 1_555
C10A N2A 1_555 1_555
H7A C10A 1_555 1_555
H8A C10A 1_555 1_555
C12A C6A 1_555 1_555
H9A C12A 1_555 1_555
C14A C3A 1_555 1_555
H11A C14A 1_555 1_555
C16A C6A 1_555 1_555
H13A C16A 1_555 1_555
C18A C16A 1_555 1_555
H14A C18A 1_555 1_555
C21A N4A 1_555 1_555
H17A C21A 1_555 1_555
C3 C7 1_555 1_555
C9 C14 1_555 1_555
C18 C21 1_555 1_555
C19 C20 1_555 1_555
N3A C4A 1_555 1_555
C3A C7A 1_555 1_555
C9A C14A 1_555 1_555
C18A C21A 1_555 1_555

#END
