
#######################################################################
#
#                 Cambridge Crystallographic Data Centre
#                                CCDC 
#
#######################################################################
#
# If this CIF has been generated from an entry in the Cambridge 
# Structural Database, then it will include bibliographic, chemical, 
# crystal, experimental, refinement or atomic coordinate data resulting 
# from the CCDC's data processing and validation procedures.
#
#######################################################################

data_YUNKEY
_symmetry_cell_setting           monoclinic
_symmetry_space_group_name_H-M   'P 21/n'
_symmetry_Int_Tables_number      14
_space_group_name_Hall           '-P 2yn'
loop_
_symmetry_equiv_pos_site_id
_symmetry_equiv_pos_as_xyz
1 x,y,z
2 1/2-x,1/2+y,1/2-z
3 -x,-y,-z
4 1/2+x,1/2-y,1/2+z
_cell_length_a                   6.921(3)
_cell_length_b                   10.454(4)
_cell_length_c                   18.448(8)
_cell_angle_alpha                90
_cell_angle_beta                 97.579(5)
_cell_angle_gamma                90
_cell_volume                     1323.09
loop_
_atom_site_label
_atom_site_type_symbol
_atom_site_fract_x
_atom_site_fract_y
_atom_site_fract_z
Cu1 Cu 0.62943(4) 1.18487(3) 0.925518(17)
Cu2 Cu 1.0000 1.0000 1.0000
O1 O 0.8349(3) 1.0656(2) 0.91882(10)
H1 H 0.8962 1.0830 0.8831
O2 O 0.7965(4) 1.3551(3) 0.88700(15)
H2 H 0.7343 1.4141 0.8622
H3 H 0.8639 1.3775 0.9269
O3 O 1.4092(3) 1.3016(2) 0.93663(12)
O4 O 1.2998(3) 1.1281(3) 0.97247(14)
N1 N 1.0922(3) 0.8559(2) 0.94127(12)
N2 N 1.2509(3) 0.7838(2) 0.96921(11)
N3 N 1.1353(3) 0.7077(2) 0.86236(11)
N4 N 1.0004(3) 0.6151(2) 0.67110(11)
N5 N 1.2692(4) 1.2424(3) 0.96067(18)
C1 C 1.0255(4) 0.8088(3) 0.87792(15)
H4 H 0.9178 0.8399 0.8476
C2 C 1.2742(4) 0.6957(3) 0.92134(14)
H5 H 1.3714 0.6337 0.9267
C3 C 1.1059(3) 0.6288(3) 0.79839(13)
C4 C 1.1436(4) 0.4995(3) 0.80291(15)
H6 H 1.1919 0.4611 0.8471
C5 C 1.1071(4) 0.4294(3) 0.73952(16)
H7 H 1.1311 0.3419 0.7402
C6 C 1.0349(4) 0.4889(3) 0.67510(16)
H8 H 1.0091 0.4398 0.6329
C7 C 1.0364(4) 0.6842(2) 0.73215(14)
H9 H 1.0141 0.7719 0.7300
Cu1B Cu 1.37057(4) 0.81513(3) 1.074482(17)
Cu1_2 Cu 1.62943(4) 1.18487(3) 0.925518(17)
Cu1A Cu 0.87057(4) 0.68487(3) 0.574482(17)
Cu1B_2 Cu 0.37057(4) 0.81513(3) 1.074482(17)
Cu1C Cu 1.12943(4) 1.31513(3) 1.425518(17)
O1B O 1.1651(3) 0.9344(2) 1.08118(10)
H1B H 1.1038 0.9170 1.1169
O2B O 1.2035(4) 0.6449(3) 1.11300(15)
H2B H 1.2657 0.5859 1.1378
H3B H 1.1361 0.6225 1.0731
O3B O 0.5908(3) 0.6984(2) 1.06337(12)
O3_2 O 0.4092(3) 1.3016(2) 0.93663(12)
O3B_2 O 1.5908(3) 0.6984(2) 1.06337(12)
O4B O 0.7002(3) 0.8719(3) 1.02753(14)
N1B N 0.9078(3) 1.1441(2) 1.05873(12)
N2B N 0.7491(3) 1.2162(2) 1.03079(11)
N3B N 0.8647(3) 1.2923(2) 1.13764(11)
N4B N 0.9996(3) 1.3849(2) 1.32890(11)
N4A N 0.4996(3) 1.1151(2) 0.82890(11)
N4C N 1.5004(3) 0.8849(2) 1.17110(11)
N5B N 0.7308(4) 0.7576(3) 1.03933(18)
C1B C 0.9745(4) 1.1912(3) 1.12208(15)
H4B H 1.0822 1.1601 1.1524
C2B C 0.7258(4) 1.3043(3) 1.07866(14)
H5B H 0.6286 1.3663 1.0733
C3B C 0.8941(3) 1.3712(3) 1.20161(13)
C4B C 0.8564(4) 1.5005(3) 1.19709(15)
H6B H 0.8081 1.5389 1.1529
C5B C 0.8929(4) 1.5706(3) 1.26048(16)
H7B H 0.8689 1.6581 1.2598
C6B C 0.9651(4) 1.5111(3) 1.32490(16)
H8B H 0.9909 1.5602 1.3671
C7B C 0.9636(4) 1.3158(2) 1.26785(14)
H9B H 0.9859 1.2281 1.2700
N6 N 0.0821(4) 0.9094(3) 0.26546(16)
O5 O 0.1401(4) 1.0217(2) 0.26025(15)
O6 O 0.1025(5) 0.8557(3) 0.32490(17)
O7 O 0.0003(4) 0.8566(3) 0.20880(16)
O8 O 1.0000 0.5000 0.0000
loop_
_geom_bond_atom_site_label_1
_geom_bond_atom_site_label_2
_geom_bond_site_symmetry_1
_geom_bond_site_symmetry_2
Cu1 O1 1_555 1_555
Cu2 O1 1_555 1_555
O1 H1 1_555 1_555
O2 Cu1 1_555 1_555
H2 O2 1_555 1_555
H3 O2 1_555 1_555
O3 N5 1_555 1_555
O4 Cu2 1_555 1_555
N1 Cu2 1_555 1_555
N2 N1 1_555 1_555
N3 C1 1_555 1_555
N4 C6 1_555 1_555
N5 O4 1_555 1_555
C1 N1 1_555 1_555
H4 C1 1_555 1_555
C2 N2 1_555 1_555
H5 C2 1_555 1_555
C3 N3 1_555 1_555
C4 C3 1_555 1_555
H6 C4 1_555 1_555
C5 C4 1_555 1_555
H7 C5 1_555 1_555
C6 C5 1_555 1_555
H8 C6 1_555 1_555
C7 N4 1_555 1_555
H9 C7 1_555 1_555
N6 O5 1_555 1_555
O6 N6 1_555 1_555
O7 N6 1_555 1_555
Cu1B N2 1_555 1_555
Cu1_2 O3 1_555 1_555
Cu1A N4 1_555 1_555
Cu1B_2 O3B 1_555 1_555
Cu1C N4B 1_555 1_555
O1B Cu2 1_555 1_555
H1B O1B 1_555 1_555
O2B Cu1B 1_555 1_555
H2B O2B 1_555 1_555
H3B O2B 1_555 1_555
O3B N5B 1_555 1_555
O3_2 Cu1 1_555 1_555
O3B_2 Cu1B 1_555 1_555
O4B Cu2 1_555 1_555
N1B Cu2 1_555 1_555
N2B Cu1 1_555 1_555
N3B C1B 1_555 1_555
N4B C6B 1_555 1_555
N4A Cu1 1_555 1_555
N4C Cu1B 1_555 1_555
N5B O4B 1_555 1_555
C1B N1B 1_555 1_555
H4B C1B 1_555 1_555
C2B N2B 1_555 1_555
H5B C2B 1_555 1_555
C3B N3B 1_555 1_555
C4B C3B 1_555 1_555
H6B C4B 1_555 1_555
C5B C4B 1_555 1_555
H7B C5B 1_555 1_555
C6B C5B 1_555 1_555
H8B C6B 1_555 1_555
C7B N4B 1_555 1_555
H9B C7B 1_555 1_555
N3 C2 1_555 1_555
C3 C7 1_555 1_555
Cu1B O1B 1_555 1_555
N1B N2B 1_555 1_555
N3B C2B 1_555 1_555
C3B C7B 1_555 1_555

#END
