
#######################################################################
#
#                 Cambridge Crystallographic Data Centre
#                                CCDC 
#
#######################################################################
#
# If this CIF has been generated from an entry in the Cambridge 
# Structural Database, then it will include bibliographic, chemical, 
# crystal, experimental, refinement or atomic coordinate data resulting 
# from the CCDC's data processing and validation procedures.
#
#######################################################################

data_YUNLIC
_symmetry_cell_setting           monoclinic
_symmetry_space_group_name_H-M   'P 21/n'
_symmetry_Int_Tables_number      14
_space_group_name_Hall           '-P 2yn'
loop_
_symmetry_equiv_pos_site_id
_symmetry_equiv_pos_as_xyz
1 x,y,z
2 1/2-x,1/2+y,1/2-z
3 -x,-y,-z
4 1/2+x,1/2-y,1/2+z
_cell_length_a                   12.682(3)
_cell_length_b                   9.428(2)
_cell_length_c                   17.105(3)
_cell_angle_alpha                90
_cell_angle_beta                 108.67(2)
_cell_angle_gamma                90
_cell_volume                     1937.55
loop_
_atom_site_label
_atom_site_type_symbol
_atom_site_fract_x
_atom_site_fract_y
_atom_site_fract_z
Cr1 Cr 0.50000 0.00000 0.00000
Cr2 Cr 0.00000 0.00000 0.00000
S1 S 0.24348(5) 0.14017(6) 0.01722(3)
O1 O 0.3441(1) 0.0550(2) 0.0319(1)
O2 O 0.1649(1) 0.0537(2) 0.04766(9)
O3 O 0.1926(2) 0.1688(2) -0.0705(1)
O4 O 0.2694(2) 0.2711(2) 0.0641(1)
O5 O -0.0098(2) 0.0539(2) -0.1429(1)
N1 N 0.5987(2) 0.1062(2) 0.1100(1)
N2 N 0.4999(2) 0.2001(2) -0.0694(1)
N3 N 0.0466(2) -0.2098(2) -0.0237(1)
C1 C 0.6991(2) 0.1566(3) 0.1161(2)
C2 C 0.7641(2) 0.2302(4) 0.1841(2)
C3 C 0.7253(3) 0.2504(3) 0.2500(2)
C4 C 0.6241(3) 0.1971(3) 0.2449(2)
C5 C 0.5624(2) 0.1276(3) 0.1748(2)
C6 C 0.4448(2) 0.3142(3) -0.0576(2)
C7 C 0.4406(3) 0.4393(4) -0.1007(2)
C8 C 0.4957(3) 0.4490(4) -0.1568(2)
C9 C 0.5530(3) 0.3333(4) -0.1695(2)
C10 C 0.5535(2) 0.2124(3) -0.1252(2)
C11 C 0.1352(2) -0.2760(3) 0.0278(2)
C12 C 0.1661(3) -0.4118(3) 0.0140(2)
C13 C 0.1051(3) -0.4822(3) -0.0560(2)
C14 C 0.0150(2) -0.4148(3) -0.1098(2)
C15 C -0.0122(2) -0.2810(3) -0.0917(2)
H1 H 0.047(2) 0.099(3) -0.128(2)
H2 H -0.059(2) 0.102(3) -0.178(2)
H7 H 0.726(2) 0.136(3) 0.072(2)
H8 H 0.829(2) 0.258(3) 0.186(2)
H9 H 0.769(2) 0.300(3) 0.297(2)
H10 H 0.598(2) 0.206(4) 0.291(2)
H11 H 0.493(2) 0.097(3) 0.170(2)
H12 H 0.411(2) 0.309(3) -0.011(2)
H13 H 0.404(3) 0.513(3) -0.091(2)
H14 H 0.491(2) 0.526(3) -0.186(2)
H15 H 0.589(3) 0.328(4) -0.207(2)
H16 H 0.595(2) 0.135(3) -0.128(2)
H17 H 0.173(2) -0.227(3) 0.077(2)
H18 H 0.233(2) -0.458(3) 0.055(2)
H19 H 0.127(2) -0.573(3) -0.067(2)
H20 H -0.027(2) -0.456(3) -0.156(2)
H21 H -0.074(2) -0.236(3) -0.125(2)
O1B O 0.6559(1) -0.0550(2) -0.0319(1)
N1B N 0.4013(2) -0.1062(2) -0.1100(1)
N2B N 0.5001(2) -0.2001(2) 0.0694(1)
O2B O -0.1649(1) -0.0537(2) -0.04766(9)
O5B O 0.0098(2) -0.0539(2) 0.1429(1)
N3B N -0.0466(2) 0.2098(2) 0.0237(1)
S1B S 0.75652(5) -0.14017(6) -0.01722(3)
C1B C 0.3009(2) -0.1566(3) -0.1161(2)
C5B C 0.4376(2) -0.1276(3) -0.1748(2)
C6B C 0.5552(2) -0.3142(3) 0.0576(2)
C10B C 0.4465(2) -0.2124(3) 0.1252(2)
H1B H -0.047(2) -0.099(3) 0.128(2)
H2B H 0.059(2) -0.102(3) 0.178(2)
C11B C -0.1352(2) 0.2760(3) -0.0278(2)
C15B C 0.0122(2) 0.2810(3) 0.0917(2)
O2B_2 O 0.8351(1) -0.0537(2) -0.04766(9)
O3B O 0.8074(2) -0.1688(2) 0.0705(1)
O4B O 0.7306(2) -0.2711(2) -0.0641(1)
C2B C 0.2359(2) -0.2302(4) -0.1841(2)
H7B H 0.274(2) -0.136(3) -0.072(2)
C4B C 0.3759(3) -0.1971(3) -0.2449(2)
H11B H 0.507(2) -0.097(3) -0.170(2)
C7B C 0.5594(3) -0.4393(4) 0.1007(2)
H12B H 0.589(2) -0.309(3) 0.011(2)
C9B C 0.4470(3) -0.3333(4) 0.1695(2)
H16B H 0.405(2) -0.135(3) 0.128(2)
C12B C -0.1661(3) 0.4118(3) -0.0140(2)
H17B H -0.173(2) 0.227(3) -0.077(2)
C14B C -0.0150(2) 0.4148(3) 0.1098(2)
H21B H 0.074(2) 0.236(3) 0.125(2)
C3B C 0.2747(3) -0.2504(3) -0.2500(2)
H8B H 0.171(2) -0.258(3) -0.186(2)
H10B H 0.402(2) -0.206(4) -0.291(2)
C8B C 0.5043(3) -0.4490(4) 0.1568(2)
H13B H 0.596(3) -0.513(3) 0.091(2)
H15B H 0.411(3) -0.328(4) 0.207(2)
C13B C -0.1051(3) 0.4822(3) 0.0560(2)
H18B H -0.233(2) 0.458(3) -0.055(2)
H20B H 0.027(2) 0.456(3) 0.156(2)
H9B H 0.231(2) -0.300(3) -0.297(2)
H14B H 0.509(2) -0.526(3) 0.186(2)
H19B H -0.127(2) 0.573(3) 0.067(2)
Cr2_2 Cr 1.00000 0.00000 0.00000
O6 O -0.2136(2) 0.5018(3) -0.2825(1)
H3 H -0.252(3) 0.488(4) -0.330(2)
H4 H -0.245(3) 0.566(4) -0.261(2)
O7 O -0.1684(2) 0.2131(2) -0.2684(1)
H5 H -0.177(3) 0.210(4) -0.321(2)
H6 H -0.185(3) 0.292(4) -0.261(2)
loop_
_geom_bond_atom_site_label_1
_geom_bond_atom_site_label_2
_geom_bond_site_symmetry_1
_geom_bond_site_symmetry_2
Cr1 O1 1_555 1_555
Cr2 O2 1_555 1_555
S1 O1 1_555 1_555
O2 S1 1_555 1_555
O3 S1 1_555 1_555
O4 S1 1_555 1_555
O5 Cr2 1_555 1_555
O6 H3 1_555 1_555
O7 H5 1_555 1_555
N1 Cr1 1_555 1_555
N2 Cr1 1_555 1_555
N3 Cr2 1_555 1_555
C1 N1 1_555 1_555
C2 C1 1_555 1_555
C3 C2 1_555 1_555
C4 C3 1_555 1_555
C5 N1 1_555 1_555
C6 N2 1_555 1_555
C7 C6 1_555 1_555
C8 C7 1_555 1_555
C9 C8 1_555 1_555
C10 N2 1_555 1_555
C11 N3 1_555 1_555
C12 C11 1_555 1_555
C13 C12 1_555 1_555
C14 C13 1_555 1_555
C15 N3 1_555 1_555
H1 O5 1_555 1_555
H2 O5 1_555 1_555
H4 O6 1_555 1_555
H6 O7 1_555 1_555
H7 C1 1_555 1_555
H8 C2 1_555 1_555
H9 C3 1_555 1_555
H10 C4 1_555 1_555
H11 C5 1_555 1_555
H12 C6 1_555 1_555
H13 C7 1_555 1_555
H14 C8 1_555 1_555
H15 C9 1_555 1_555
H16 C10 1_555 1_555
H17 C11 1_555 1_555
H18 C12 1_555 1_555
H19 C13 1_555 1_555
H20 C14 1_555 1_555
H21 C15 1_555 1_555
O1B Cr1 1_555 1_555
N1B Cr1 1_555 1_555
N2B Cr1 1_555 1_555
O2B Cr2 1_555 1_555
O5B Cr2 1_555 1_555
N3B Cr2 1_555 1_555
S1B O1B 1_555 1_555
C1B N1B 1_555 1_555
C5B N1B 1_555 1_555
C6B N2B 1_555 1_555
C10B N2B 1_555 1_555
H1B O5B 1_555 1_555
H2B O5B 1_555 1_555
C11B N3B 1_555 1_555
C15B N3B 1_555 1_555
O2B_2 S1B 1_555 1_555
O3B S1B 1_555 1_555
O4B S1B 1_555 1_555
C2B C1B 1_555 1_555
H7B C1B 1_555 1_555
C4B C5B 1_555 1_555
H11B C5B 1_555 1_555
C7B C6B 1_555 1_555
H12B C6B 1_555 1_555
C9B C10B 1_555 1_555
H16B C10B 1_555 1_555
C12B C11B 1_555 1_555
H17B C11B 1_555 1_555
C14B C15B 1_555 1_555
H21B C15B 1_555 1_555
C3B C2B 1_555 1_555
H8B C2B 1_555 1_555
H10B C4B 1_555 1_555
C8B C7B 1_555 1_555
H13B C7B 1_555 1_555
H15B C9B 1_555 1_555
C13B C12B 1_555 1_555
H18B C12B 1_555 1_555
H20B C14B 1_555 1_555
H9B C3B 1_555 1_555
H14B C8B 1_555 1_555
H19B C13B 1_555 1_555
Cr2_2 O2B_2 1_555 1_555
C4 C5 1_555 1_555
C9 C10 1_555 1_555
C14 C15 1_555 1_555
C4B C3B 1_555 1_555
C9B C8B 1_555 1_555
C14B C13B 1_555 1_555

#END
