
#######################################################################
#
#                 Cambridge Crystallographic Data Centre
#                                CCDC 
#
#######################################################################
#
# If this CIF has been generated from an entry in the Cambridge 
# Structural Database, then it will include bibliographic, chemical, 
# crystal, experimental, refinement or atomic coordinate data resulting 
# from the CCDC's data processing and validation procedures.
#
#######################################################################

data_YUNLOJ
_symmetry_cell_setting           monoclinic
_symmetry_space_group_name_H-M   'C 2/c'
_symmetry_Int_Tables_number      15
_space_group_name_Hall           '-C 2yn'
loop_
_symmetry_equiv_pos_site_id
_symmetry_equiv_pos_as_xyz
1 x,y,z
2 -x,y,1/2-z
3 1/2+x,1/2+y,z
4 1/2-x,1/2+y,1/2-z
5 -x,-y,-z
6 x,-y,1/2+z
7 1/2-x,1/2-y,-z
8 1/2+x,1/2-y,1/2+z
_cell_length_a                   10.6162(6)
_cell_length_b                   11.8325(7)
_cell_length_c                   25.1063(12)
_cell_angle_alpha                90
_cell_angle_beta                 95.330(5)
_cell_angle_gamma                90
_cell_volume                     3140.12
loop_
_atom_site_label
_atom_site_type_symbol
_atom_site_fract_x
_atom_site_fract_y
_atom_site_fract_z
Cd1 Cd 0.0000 0.02138(8) 0.2500
I1 I 0.23136(6) -0.07179(7) 0.27048(3)
N1 N 0.1416(7) 0.5820(7) 0.4921(3)
C1 C 0.0544(8) 0.3084(8) 0.3669(3)
N2 N 0.1362(7) 0.4773(7) 0.4167(3)
C2 C 0.0613(8) 0.2293(8) 0.3275(3)
H1 H 0.1315 0.2305 0.3080
N3 N 0.2221(7) 0.2918(7) 0.4823(3)
C3 C -0.0035(9) 0.7975(9) 0.3996(4)
H2 H -0.0334 0.8714 0.3977
C4 C 0.1677(9) 0.4839(8) 0.4715(4)
C5 C 0.2260(8) 0.3902(9) 0.5049(4)
C6 C -0.0513(8) 0.3053(8) 0.3963(3)
H3 H -0.0593 0.3566 0.4238
C7 C 0.0803(8) 0.5799(8) 0.4026(4)
C8 C 0.2724(10) 0.4178(9) 0.5610(4)
H4 H 0.3078 0.3513 0.5784
H5 H 0.2033 0.4446 0.5796
H6 H 0.3362 0.4754 0.5612
C9 C 0.0446(9) 0.7557(9) 0.4487(4)
H7 H 0.0486 0.7996 0.4795
C10 C 0.1611(8) 0.3905(9) 0.3788(3)
H8 H 0.2358 0.3490 0.3926
H9 H 0.1796 0.4262 0.3457
C11 C -0.0094(9) 0.7332(9) 0.3523(4)
H10 H -0.0403 0.7661 0.3201
C12 C 0.0869(8) 0.6445(8) 0.4495(4)
C13 C -0.1419(9) 0.2265(9) 0.3840(4)
H11 H -0.2128 0.2237 0.4031
C14 C 0.0301(9) 0.6219(10) 0.3530(4)
H12 H 0.0237 0.5775 0.3223
N4 N -0.0271(7) 0.1505(7) 0.3153(3)
C15 C -0.1293(9) 0.1503(9) 0.3432(4)
H13 H -0.1930 0.0976 0.3348
Cd1F Cd 0.5000 0.47862(8) 0.7500
I1A I -0.23136(6) -0.07179(7) 0.22952(3)
N1F N 0.3584(7) -0.0820(7) 0.5079(3)
C1F C 0.4456(8) 0.1916(8) 0.6331(3)
N2F N 0.3638(7) 0.0227(7) 0.5833(3)
C2F C 0.4387(8) 0.2707(8) 0.6725(3)
H1F H 0.3685 0.2695 0.6920
N3F N 0.2779(7) 0.2082(7) 0.5177(3)
C3F C 0.5035(9) -0.2975(9) 0.6004(4)
H2F H 0.5334 -0.3714 0.6023
C4F C 0.3323(9) 0.0161(8) 0.5285(4)
C5F C 0.2740(8) 0.1098(9) 0.4951(4)
C6F C 0.5513(8) 0.1947(8) 0.6037(3)
H3F H 0.5593 0.1434 0.5762
C7F C 0.4197(8) -0.0799(8) 0.5974(4)
C8F C 0.2276(10) 0.0822(9) 0.4390(4)
H4F H 0.1922 0.1487 0.4216
H5F H 0.2967 0.0554 0.4204
H6F H 0.1638 0.0246 0.4388
C9F C 0.4554(9) -0.2557(9) 0.5513(4)
H7F H 0.4514 -0.2996 0.5205
C10F C 0.3389(8) 0.1095(9) 0.6212(3)
H8F H 0.2642 0.1510 0.6074
H9F H 0.3204 0.0738 0.6543
C11F C 0.5094(9) -0.2332(9) 0.6477(4)
H10F H 0.5403 -0.2661 0.6799
C12F C 0.4131(8) -0.1445(8) 0.5505(4)
C13F C 0.6419(9) 0.2735(9) 0.6160(4)
H11F H 0.7128 0.2763 0.5969
C14F C 0.4699(9) -0.1219(10) 0.6470(4)
H12F H 0.4763 -0.0775 0.6777
N4F N 0.5271(7) 0.3495(7) 0.6847(3)
N4A N 0.0271(7) 0.1505(7) 0.1847(3)
C15F C 0.6293(9) 0.3497(9) 0.6568(4)
H13F H 0.6930 0.4024 0.6652
loop_
_geom_bond_atom_site_label_1
_geom_bond_atom_site_label_2
_geom_bond_site_symmetry_1
_geom_bond_site_symmetry_2
Cd1 I1 1_555 1_555
N1 C4 1_555 1_555
C1 C2 1_555 1_555
N2 C4 1_555 1_555
C2 H1 1_555 1_555
N3 C5 1_555 1_555
C3 H2 1_555 1_555
C4 C5 1_555 1_555
C5 C8 1_555 1_555
C6 C1 1_555 1_555
H3 C6 1_555 1_555
C7 N2 1_555 1_555
C8 H4 1_555 1_555
H5 C8 1_555 1_555
H6 C8 1_555 1_555
C9 C3 1_555 1_555
H7 C9 1_555 1_555
C10 C1 1_555 1_555
H8 C10 1_555 1_555
H9 C10 1_555 1_555
C11 C3 1_555 1_555
H10 C11 1_555 1_555
C12 N1 1_555 1_555
C13 C6 1_555 1_555
H11 C13 1_555 1_555
C14 C7 1_555 1_555
H12 C14 1_555 1_555
N4 Cd1 1_555 1_555
C15 C13 1_555 1_555
H13 C15 1_555 1_555
Cd1F N4F 1_555 1_555
I1A Cd1 1_555 1_555
N1F C4F 1_555 1_555
C1F C2F 1_555 1_555
N2F C4F 1_555 1_555
C2F H1F 1_555 1_555
N3F N3 1_555 1_555
C3F H2F 1_555 1_555
C4F C5F 1_555 1_555
C5F N3F 1_555 1_555
C6F C1F 1_555 1_555
H3F C6F 1_555 1_555
C7F N2F 1_555 1_555
C8F C5F 1_555 1_555
H4F C8F 1_555 1_555
H5F C8F 1_555 1_555
H6F C8F 1_555 1_555
C9F C3F 1_555 1_555
H7F C9F 1_555 1_555
C10F C1F 1_555 1_555
H8F C10F 1_555 1_555
H9F C10F 1_555 1_555
C11F C3F 1_555 1_555
H10F C11F 1_555 1_555
C12F N1F 1_555 1_555
C13F C6F 1_555 1_555
H11F C13F 1_555 1_555
C14F C7F 1_555 1_555
H12F C14F 1_555 1_555
N4F C2F 1_555 1_555
N4A Cd1 1_555 1_555
C15F C13F 1_555 1_555
H13F C15F 1_555 1_555
N2 C10 1_555 1_555
C2 N4 1_555 1_555
C7 C12 1_555 1_555
C9 C12 1_555 1_555
C11 C14 1_555 1_555
N4 C15 1_555 1_555
N2F C10F 1_555 1_555
C7F C12F 1_555 1_555
C9F C12F 1_555 1_555
C11F C14F 1_555 1_555
N4F C15F 1_555 1_555

#END
