
#######################################################################
#
#                 Cambridge Crystallographic Data Centre
#                                CCDC 
#
#######################################################################
#
# If this CIF has been generated from an entry in the Cambridge 
# Structural Database, then it will include bibliographic, chemical, 
# crystal, experimental, refinement or atomic coordinate data resulting 
# from the CCDC's data processing and validation procedures.
#
#######################################################################

data_YUNLUP
_symmetry_cell_setting           triclinic
_symmetry_space_group_name_H-M   'P -1'
_symmetry_Int_Tables_number      2
_space_group_name_Hall           '-P 1'
loop_
_symmetry_equiv_pos_site_id
_symmetry_equiv_pos_as_xyz
1 x,y,z
2 -x,-y,-z
_cell_length_a                   9.2957(6)
_cell_length_b                   9.9701(7)
_cell_length_c                   11.3392(9)
_cell_angle_alpha                98.161(7)
_cell_angle_beta                 113.771(7)
_cell_angle_gamma                102.892(6)
_cell_volume                     905.282
loop_
_atom_site_label
_atom_site_type_symbol
_atom_site_fract_x
_atom_site_fract_y
_atom_site_fract_z
Mn1 Mn 1.5000 0.0000 0.5000
O2 O 1.3671(3) 0.0472(2) 0.3126(2)
N1 N 1.2962(3) -0.2089(3) 0.4508(2)
N2 N 0.5902(3) -0.7259(3) 0.0225(2)
O4 O 1.3797(3) 0.1116(3) 0.5933(2)
N3 N 0.7245(3) -0.4995(3) 0.1468(2)
C1 C 0.5009(4) -0.6838(3) 0.0852(3)
C2 C 1.0124(4) -0.3535(3) 0.3149(3)
N4 N 0.9464(3) -0.4955(3) 0.0290(2)
C3 C 1.1417(4) -0.2281(3) 0.3595(3)
H1 H 1.1192 -0.1508 0.3230
C4 C 0.7211(4) -0.6140(3) 0.0607(3)
C5 C 0.8449(4) -0.3576(3) 0.2105(3)
H2 H 0.7991 -0.2968 0.2530
H3 H 0.8605 -0.3160 0.1407
C6 C 0.2875(4) -0.6901(4) 0.1509(3)
H4 H 0.1862 -0.7390 0.1491
C7 C 0.8444(4) -0.6155(3) 0.0100(3)
C8 C 1.0452(4) -0.4650(3) 0.3693(3)
H5 H 0.9604 -0.5530 0.3414
C9 C 1.3249(4) -0.3188(3) 0.5030(3)
H6 H 1.4331 -0.3078 0.5687
C10 C 0.3713(4) -0.5487(4) 0.2280(3)
H7 H 0.3247 -0.5045 0.2772
C11 C 0.3496(4) -0.7589(3) 0.0777(3)
H8 H 0.2920 -0.8540 0.0240
C12 C 0.5826(4) -0.5434(3) 0.1626(3)
C13 C 1.2031(4) -0.4466(3) 0.4649(3)
H9 H 1.2278 -0.5218 0.5043
C14 C 0.5183(4) -0.4719(4) 0.2351(3)
H10 H 0.5733 -0.3756 0.2862
C15 C 0.8307(4) -0.7571(3) -0.0642(3)
H11 H 0.9181 -0.7465 -0.0929
H12 H 0.7225 -0.7961 -0.1427
H13 H 0.8426 -0.8219 -0.0060
H14 H 1.372(4) 0.088(4) 0.655(3)
H16 H 1.295(3) 0.124(4) 0.540(3)
H17 H 1.273(3) 0.051(5) 0.280(4)
H18 H 1.406(5) 0.043(4) 0.258(3)
Mn1_2 Mn 0.5000 -1.0000 -0.5000
O2A O 1.6329(3) -0.0472(2) 0.6874(2)
N1A N 0.7038(3) -0.7911(3) -0.4508(2)
N1A_2 N 1.7038(3) 0.2089(3) 0.5492(2)
N2A N 1.4098(3) -0.2741(3) -0.0225(2)
O4A O 1.6203(3) -0.1116(3) 0.4067(2)
N3A N 1.2755(3) -0.5005(3) -0.1468(2)
C1A C 1.4991(4) -0.3162(3) -0.0852(3)
C2A C 0.9876(4) -0.6465(3) -0.3149(3)
N4A N 1.0536(3) -0.5045(3) -0.0290(2)
C3A C 0.8583(4) -0.7719(3) -0.3595(3)
H1A H 0.8808 -0.8492 -0.3230
C4A C 1.2789(4) -0.3860(3) -0.0607(3)
C5A C 1.1551(4) -0.6424(3) -0.2105(3)
H2A H 1.2009 -0.7032 -0.2530
H3A H 1.1395 -0.6840 -0.1407
C6A C 1.7125(4) -0.3099(4) -0.1509(3)
H4A H 1.8138 -0.2610 -0.1491
C7A C 1.1556(4) -0.3845(3) -0.0100(3)
C8A C 0.9548(4) -0.5350(3) -0.3693(3)
H5A H 1.0396 -0.4470 -0.3414
C9A C 0.6751(4) -0.6812(3) -0.5030(3)
H6A H 0.5669 -0.6922 -0.5687
C10A C 1.6287(4) -0.4513(4) -0.2280(3)
H7A H 1.6753 -0.4955 -0.2772
C11A C 1.6504(4) -0.2411(3) -0.0777(3)
H8A H 1.7080 -0.1460 -0.0240
C12A C 1.4174(4) -0.4566(3) -0.1626(3)
C13A C 0.7969(4) -0.5534(3) -0.4649(3)
H9A H 0.7722 -0.4782 -0.5043
C14A C 1.4817(4) -0.5281(4) -0.2351(3)
H10A H 1.4267 -0.6244 -0.2862
C15A C 1.1693(4) -0.2429(3) 0.0642(3)
H11A H 1.0819 -0.2535 0.0929
H12A H 1.2775 -0.2039 0.1427
H13A H 1.1574 -0.1781 0.0060
H14A H 1.628(4) -0.088(4) 0.345(3)
H16A H 1.705(3) -0.124(4) 0.460(3)
H17A H 1.727(3) -0.051(5) 0.720(4)
H18A H 1.594(5) -0.043(4) 0.742(3)
Cl1 Cl 0.97570(10) 0.09805(9) 0.30132(8)
O1 O 0.8614(3) 0.1732(2) 0.2420(2)
O3 O 1.1174(3) 0.1931(3) 0.4185(3)
O6 O 0.8974(3) -0.0193(3) 0.3366(3)
O7 O 1.0307(3) 0.0449(3) 0.2068(2)
O5 O 1.5332(3) -0.0136(3) 0.1742(2)
H15 H 1.612(3) 0.040(3) 0.175(4)
H19 H 1.492(5) -0.086(3) 0.111(3)
loop_
_geom_bond_atom_site_label_1
_geom_bond_atom_site_label_2
_geom_bond_site_symmetry_1
_geom_bond_site_symmetry_2
Mn1 O2 1_555 1_555
Cl1 O1 1_555 1_555
O2 H17 1_555 1_555
N1 Mn1 1_555 1_555
O3 Cl1 1_555 1_555
N2 C1 1_555 1_555
O4 Mn1 1_555 1_555
O5 H15 1_555 1_555
N3 C4 1_555 1_555
O6 Cl1 1_555 1_555
C1 C11 1_555 1_555
C2 C3 1_555 1_555
N4 C7 1_555 1_555
O7 Cl1 1_555 1_555
C3 N1 1_555 1_555
H1 C3 1_555 1_555
C4 N2 1_555 1_555
C5 N3 1_555 1_555
H2 C5 1_555 1_555
H3 C5 1_555 1_555
C6 H4 1_555 1_555
C7 C4 1_555 1_555
C8 C2 1_555 1_555
H5 C8 1_555 1_555
C9 N1 1_555 1_555
H6 C9 1_555 1_555
C10 C6 1_555 1_555
H7 C10 1_555 1_555
C11 C6 1_555 1_555
H8 C11 1_555 1_555
C12 N3 1_555 1_555
C13 C8 1_555 1_555
H9 C13 1_555 1_555
C14 C10 1_555 1_555
H10 C14 1_555 1_555
C15 C7 1_555 1_555
H11 C15 1_555 1_555
H12 C15 1_555 1_555
H13 C15 1_555 1_555
H14 O4 1_555 1_555
H16 O4 1_555 1_555
H18 O2 1_555 1_555
H19 O5 1_555 1_555
Mn1_2 N1A 1_555 1_555
O2A Mn1 1_555 1_555
N1A C3A 1_555 1_555
N1A_2 Mn1 1_555 1_555
N2A C1A 1_555 1_555
O4A Mn1 1_555 1_555
N3A C4A 1_555 1_555
C1A C11A 1_555 1_555
C2A C3A 1_555 1_555
N4A N4 1_555 1_555
C3A H1A 1_555 1_555
C4A N2A 1_555 1_555
C5A N3A 1_555 1_555
H2A C5A 1_555 1_555
H3A C5A 1_555 1_555
C6A H4A 1_555 1_555
C7A N4A 1_555 1_555
C8A C2A 1_555 1_555
H5A C8A 1_555 1_555
C9A N1A 1_555 1_555
H6A C9A 1_555 1_555
C10A C6A 1_555 1_555
H7A C10A 1_555 1_555
C11A C6A 1_555 1_555
H8A C11A 1_555 1_555
C12A N3A 1_555 1_555
C13A C8A 1_555 1_555
H9A C13A 1_555 1_555
C14A C10A 1_555 1_555
H10A C14A 1_555 1_555
C15A C7A 1_555 1_555
H11A C15A 1_555 1_555
H12A C15A 1_555 1_555
H13A C15A 1_555 1_555
H14A O4A 1_555 1_555
H16A O4A 1_555 1_555
H17A O2A 1_555 1_555
H18A O2A 1_555 1_555
C1 C12 1_555 1_555
C2 C5 1_555 1_555
C9 C13 1_555 1_555
C12 C14 1_555 1_555
C1A C12A 1_555 1_555
C2A C5A 1_555 1_555
C4A C7A 1_555 1_555
C9A C13A 1_555 1_555
C12A C14A 1_555 1_555

#END
