
#######################################################################
#
#                 Cambridge Crystallographic Data Centre
#                                CCDC 
#
#######################################################################
#
# If this CIF has been generated from an entry in the Cambridge 
# Structural Database, then it will include bibliographic, chemical, 
# crystal, experimental, refinement or atomic coordinate data resulting 
# from the CCDC's data processing and validation procedures.
#
#######################################################################

data_YUNLID
_symmetry_cell_setting           monoclinic
_symmetry_space_group_name_H-M   'C 2/c'
_symmetry_Int_Tables_number      15
_space_group_name_Hall           '-C 2yn'
loop_
_symmetry_equiv_pos_site_id
_symmetry_equiv_pos_as_xyz
1 x,y,z
2 -x,y,1/2-z
3 1/2+x,1/2+y,z
4 1/2-x,1/2+y,1/2-z
5 -x,-y,-z
6 x,-y,1/2+z
7 1/2-x,1/2-y,-z
8 1/2+x,1/2-y,1/2+z
_cell_length_a                   30.954(4)
_cell_length_b                   14.9030(16)
_cell_length_c                   8.2254(11)
_cell_angle_alpha                90
_cell_angle_beta                 101.921(15)
_cell_angle_gamma                90
_cell_volume                     3712.61
loop_
_atom_site_label
_atom_site_type_symbol
_atom_site_fract_x
_atom_site_fract_y
_atom_site_fract_z
Cd1 Cd 1.0000 0.13890(5) 0.2500
N1 N 1.2577(2) 0.3651(4) 0.0566(8)
O1 O 0.96999(18) 0.1233(4) -0.0370(6)
N2 N 1.07107(18) 0.1456(4) 0.1885(7)
N3 N 1.1909(2) 0.3441(4) 0.1197(8)
O2 O 1.0000 -0.0148(5) 0.2500
O3 O 0.97714(19) 0.2622(4) 0.0498(7)
N4 N 1.2372(2) 0.2647(5) 0.4239(8)
C1 C 1.1334(2) 0.2383(5) 0.1711(8)
C2 C 1.1896(3) 0.4316(6) -0.3526(10)
H1 H 1.1909 0.4502 -0.4594
C3 C 1.1834(3) 0.3737(5) -0.0429(10)
C4 C 1.2288(3) 0.4162(5) -0.2384(10)
H2 H 1.2561 0.4255 -0.2655
C5 C 1.0924(2) 0.2239(5) 0.2124(9)
H3 H 1.0794 0.2710 0.2588
C6 C 1.2251(3) 0.3860(5) -0.0802(10)
C7 C 1.2598(3) 0.3081(6) 0.3347(9)
C8 C 1.0891(3) 0.0775(6) 0.1188(10)
H4 H 1.0747 0.0225 0.1028
C9 C 1.1557(3) 0.3280(6) 0.2089(10)
H5 H 1.1337 0.3750 0.1809
H6 H 1.1678 0.3317 0.3273
C10 C 1.1491(3) 0.4201(6) -0.3119(11)
H7 H 1.1239 0.4315 -0.3926
C11 C 1.2359(2) 0.3401(5) 0.1709(10)
C12 C 1.1289(3) 0.0884(6) 0.0705(11)
H8 H 1.1407 0.0413 0.0195
C13 C 1.1441(3) 0.3923(6) -0.1565(11)
H9 H 1.1165 0.3864 -0.1292
C14 C 1.1510(2) 0.1672(6) 0.0968(10)
H10 H 1.1780 0.1738 0.0651
C15 C 0.9652(3) 0.2052(7) -0.0628(10)
C16 C 1.3083(3) 0.3262(7) 0.3794(11)
H11 H 1.3202 0.3024 0.4879
H12 H 1.3133 0.3898 0.3795
H13 H 1.3226 0.2981 0.2995
C17 C 0.9436(3) 0.2381(8) -0.2351(11)
H14 H 0.9621 0.2821 -0.2713
H15 H 0.9154 0.2644 -0.2319
H16 H 0.9394 0.1884 -0.3111
Cd1F Cd 1.5000 0.36110(5) 0.7500
N1F N 1.2423(2) 0.1349(4) 0.9434(8)
O1A O 1.03001(18) 0.1233(4) 0.5370(6)
N2F N 1.42893(18) 0.3544(4) 0.8115(7)
N2A N 0.92893(18) 0.1456(4) 0.3115(7)
N3F N 1.3091(2) 0.1559(4) 0.8803(8)
O3A O 1.02286(19) 0.2622(4) 0.4502(7)
N4F N 1.2628(2) 0.2353(5) 0.5761(8)
C1F C 1.3666(2) 0.2617(5) 0.8289(8)
C2F C 1.3104(3) 0.0684(6) 1.3526(10)
H1F H 1.3091 0.0498 1.4594
C3F C 1.3166(3) 0.1263(5) 1.0429(10)
C4F C 1.2712(3) 0.0838(5) 1.2384(10)
H2F H 1.2439 0.0745 1.2655
C5F C 1.4076(2) 0.2761(5) 0.7876(9)
H3F H 1.4206 0.2290 0.7412
C6F C 1.2749(3) 0.1140(5) 1.0802(10)
C7F C 1.2402(3) 0.1919(6) 0.6653(9)
C8F C 1.4109(3) 0.4225(6) 0.8812(10)
H4F H 1.4253 0.4775 0.8972
C9F C 1.3443(3) 0.1720(6) 0.7911(10)
H5F H 1.3663 0.1250 0.8191
H6F H 1.3322 0.1683 0.6727
C10F C 1.3509(3) 0.0799(6) 1.3119(11)
H7F H 1.3761 0.0685 1.3926
C11F C 1.2641(2) 0.1599(5) 0.8291(10)
C12F C 1.3711(3) 0.4116(6) 0.9295(11)
H8F H 1.3593 0.4587 0.9805
C13F C 1.3559(3) 0.1077(6) 1.1565(11)
H9F H 1.3835 0.1136 1.1292
C14F C 1.3490(2) 0.3328(6) 0.9032(10)
H10F H 1.3220 0.3262 0.9349
C15A C 1.0348(3) 0.2052(7) 0.5628(10)
C16F C 1.1917(3) 0.1738(7) 0.6206(11)
H11F H 1.1798 0.1976 0.5121
H12F H 1.1867 0.1102 0.6205
H13F H 1.1774 0.2019 0.7005
C17A C 1.0564(3) 0.2381(8) 0.7351(11)
H14A H 1.0379 0.2821 0.7713
H15A H 1.0846 0.2644 0.7319
H16A H 1.0606 0.1884 0.8111
O4 O 1.0440(7) 0.4056(12) 0.041(3)
O5 O 1.0485(11) 0.560(2) -0.118(4)
loop_
_geom_bond_atom_site_label_1
_geom_bond_atom_site_label_2
_geom_bond_site_symmetry_1
_geom_bond_site_symmetry_2
Cd1 O1 1_555 1_555
N1 C6 1_555 1_555
O1 C15 1_555 1_555
N2 Cd1 1_555 1_555
N3 C3 1_555 1_555
O2 Cd1 1_555 1_555
O3 Cd1 1_555 1_555
N4 C7 1_555 1_555
C1 C5 1_555 1_555
C2 H1 1_555 1_555
C3 C6 1_555 1_555
C4 C2 1_555 1_555
H2 C4 1_555 1_555
C5 N2 1_555 1_555
H3 C5 1_555 1_555
C6 C4 1_555 1_555
C7 C11 1_555 1_555
C8 N2 1_555 1_555
H4 C8 1_555 1_555
C9 N3 1_555 1_555
H5 C9 1_555 1_555
H6 C9 1_555 1_555
C10 C2 1_555 1_555
H7 C10 1_555 1_555
C11 N1 1_555 1_555
C12 C8 1_555 1_555
H8 C12 1_555 1_555
C13 C3 1_555 1_555
H9 C13 1_555 1_555
C14 C1 1_555 1_555
H10 C14 1_555 1_555
C15 O3 1_555 1_555
C16 C7 1_555 1_555
H11 C16 1_555 1_555
H12 C16 1_555 1_555
H13 C16 1_555 1_555
C17 C15 1_555 1_555
H14 C17 1_555 1_555
H15 C17 1_555 1_555
H16 C17 1_555 1_555
Cd1F N2F 1_555 1_555
N1F C6F 1_555 1_555
O1A Cd1 1_555 1_555
N2F C5F 1_555 1_555
N2A Cd1 1_555 1_555
N3F C3F 1_555 1_555
O3A Cd1 1_555 1_555
N4F N4 1_555 1_555
C1F C5F 1_555 1_555
C2F H1F 1_555 1_555
C3F C6F 1_555 1_555
C4F C2F 1_555 1_555
H2F C4F 1_555 1_555
C5F H3F 1_555 1_555
C6F C4F 1_555 1_555
C7F N4F 1_555 1_555
C8F N2F 1_555 1_555
H4F C8F 1_555 1_555
C9F N3F 1_555 1_555
H5F C9F 1_555 1_555
H6F C9F 1_555 1_555
C10F C2F 1_555 1_555
H7F C10F 1_555 1_555
C11F N1F 1_555 1_555
C12F C8F 1_555 1_555
H8F C12F 1_555 1_555
C13F C3F 1_555 1_555
H9F C13F 1_555 1_555
C14F C1F 1_555 1_555
H10F C14F 1_555 1_555
C15A O1A 1_555 1_555
C16F C7F 1_555 1_555
H11F C16F 1_555 1_555
H12F C16F 1_555 1_555
H13F C16F 1_555 1_555
C17A C15A 1_555 1_555
H14A C17A 1_555 1_555
H15A C17A 1_555 1_555
H16A C17A 1_555 1_555
N3 C11 1_555 1_555
C1 C9 1_555 1_555
C10 C13 1_555 1_555
C12 C14 1_555 1_555
N3F C11F 1_555 1_555
O3A C15A 1_555 1_555
C1F C9F 1_555 1_555
C7F C11F 1_555 1_555
C10F C13F 1_555 1_555
C12F C14F 1_555 1_555

#END
