
#######################################################################
#
#                 Cambridge Crystallographic Data Centre
#                                CCDC 
#
#######################################################################
#
# If this CIF has been generated from an entry in the Cambridge 
# Structural Database, then it will include bibliographic, chemical, 
# crystal, experimental, refinement or atomic coordinate data resulting 
# from the CCDC's data processing and validation procedures.
#
#######################################################################

data_YUNMAW
_symmetry_cell_setting           triclinic
_symmetry_space_group_name_H-M   'P -1'
_symmetry_Int_Tables_number      2
_space_group_name_Hall           '-P 1'
loop_
_symmetry_equiv_pos_site_id
_symmetry_equiv_pos_as_xyz
1 x,y,z
2 -x,-y,-z
_cell_length_a                   9.3626(9)
_cell_length_b                   15.630(4)
_cell_length_c                   15.676(3)
_cell_angle_alpha                64.64(2)
_cell_angle_beta                 87.074(12)
_cell_angle_gamma                89.364(12)
_cell_volume                     2070.07
loop_
_atom_site_label
_atom_site_type_symbol
_atom_site_fract_x
_atom_site_fract_y
_atom_site_fract_z
Mn1 Mn 1.25341(9) 0.58303(6) 0.42387(5)
S1 S 0.93370(13) 0.63822(9) 0.48626(9)
S2 S 1.42693(13) 0.49162(9) 0.63137(8)
O1 O 1.0881(4) 0.6246(3) 0.4983(3)
O2 O 1.3896(4) 0.5598(3) 0.5404(2)
O3 O 0.8555(5) 0.5506(3) 0.5323(3)
N1 N 0.9634(5) 0.5322(3) 0.0143(3)
O4 O 0.9034(5) 0.6937(3) 0.3909(3)
C1 C 1.3958(5) 0.5474(4) 0.7086(4)
O5 O 1.3435(5) 0.4073(3) 0.6678(3)
O6 O 1.5800(4) 0.4746(4) 0.6343(3)
N2 N 1.3403(5) 0.7367(3) 0.3678(3)
N3 N 1.1726(5) 0.6297(3) 0.2739(3)
C2 C 0.5582(6) 0.8445(4) -0.0709(4)
H1 H 0.5223 0.8670 -0.1308
C3 C 0.8812(6) 0.7055(4) 0.5495(4)
N4 N 1.7327(5) 0.9551(3) 0.3341(3)
N5 N 1.5387(5) 0.9896(3) 0.4656(3)
C4 C 0.7024(6) 0.7353(4) 0.0522(4)
N6 N 1.8193(5) 1.1023(3) 0.2916(3)
C5 C 1.3341(7) 0.6259(4) 0.8358(4)
C6 C 1.3026(6) 0.9030(4) 0.2817(4)
H2 H 1.2435 0.9520 0.2454
C7 C 0.9983(6) 0.6358(4) 0.1640(4)
N7 N 0.7924(4) 0.6605(3) 0.0628(3)
C8 C 0.7886(8) 0.8213(5) 0.6347(4)
C9 C 1.8772(7) 0.9198(5) 0.2108(4)
H3 H 1.8435 0.8584 0.2288
C10 C 1.4702(6) 0.7567(4) 0.3849(4)
H4 H 1.5295 0.7066 0.4185
C11 C 1.2620(6) 0.6809(4) 0.2004(4)
H5 H 1.3532 0.6945 0.2125
C12 C 1.2571(6) 0.8095(4) 0.3178(4)
H6 H 1.1648 0.7967 0.3068
C13 C 0.6549(6) 0.7679(4) -0.0391(4)
C14 C 1.2252(6) 0.7141(4) 0.1082(4)
H7 H 1.2890 0.7510 0.0589
C15 C 1.8302(6) 0.9748(4) 0.2576(3)
C16 C 0.8548(6) 0.6014(4) 0.1514(3)
H8 H 0.8650 0.5379 0.1557
H9 H 0.7894 0.5977 0.2030
C17 C 1.5227(6) 0.8491(4) 0.3554(3)
C18 C 0.8446(8) 0.5773(5) -0.1361(4)
H10 H 0.9042 0.5299 -0.1425
H11 H 0.8663 0.6377 -0.1879
H12 H 0.7459 0.5613 -0.1363
C19 C 0.7131(7) 0.7411(5) 0.6493(4)
H13 H 0.6299 0.7257 0.6881
N8 N 0.7092(5) 0.7142(3) -0.0839(3)
C20 C 1.4385(6) 0.9215(4) 0.3011(4)
H14 H 1.4723 0.9836 0.2770
C21 C 1.2628(7) 0.6534(4) 0.7540(4)
H15 H 1.1930 0.6995 0.7411
C22 C 0.8717(6) 0.5822(4) -0.0446(4)
C23 C 1.6812(7) 1.1290(5) 0.4468(5)
H16 H 1.6170 1.1293 0.4964
H17 H 1.6725 1.1872 0.3911
H18 H 1.7776 1.1228 0.4665
C24 C 0.9134(7) 0.8430(5) 0.5758(5)
H19 H 0.9666 0.8969 0.5651
C25 C 1.8798(6) 1.0663(4) 0.2316(4)
C26 C 1.9821(6) 1.1072(4) 0.1565(4)
H20 H 2.0174 1.1681 0.1389
C27 C 0.5194(7) 0.8841(5) -0.0100(5)
H21 H 0.4574 0.9351 -0.0297
C28 C 0.7900(6) 0.6512(4) -0.0214(4)
C29 C 1.3030(8) 0.6676(5) 0.9057(5)
H22 H 1.2273 0.7125 0.8840
H23 H 1.3874 0.6988 0.9112
H24 H 1.2747 0.6179 0.9662
C30 C 0.5717(7) 0.8492(5) 0.0817(5)
H25 H 0.5433 0.8782 0.1205
C31 C 0.6623(6) 0.7744(4) 0.1151(4)
H26 H 0.6954 0.7509 0.1758
C32 C 1.6443(6) 1.0475(4) 0.4254(4)
C33 C 1.0445(6) 0.6074(4) 0.2552(3)
H27 H 0.9825 0.5708 0.3058
C34 C 1.4407(7) 0.5585(5) 0.8523(4)
H28 H 1.4921 0.5397 0.9065
C35 C 1.0903(6) 0.6914(4) 0.0900(4)
H29 H 1.0625 0.7138 0.0281
C36 C 0.7404(9) 0.8860(6) 0.6798(5)
H30 H 0.6539 0.8613 0.7178
H31 H 0.7234 0.9481 0.6313
H32 H 0.8135 0.8898 0.7189
C37 C 1.6681(6) 0.8623(4) 0.3889(4)
H33 H 1.6564 0.8519 0.4545
H34 H 1.7328 0.8146 0.3860
C38 C 2.0282(7) 1.0547(5) 0.1099(4)
H35 H 2.0954 1.0806 0.0594
C39 C 1.4716(6) 0.5188(5) 0.7891(4)
H36 H 1.5425 0.4735 0.8012
C40 C 1.2906(6) 0.6155(4) 0.6899(4)
H37 H 1.2399 0.6353 0.6353
C41 C 1.7314(6) 1.0352(4) 0.3509(4)
C42 C 0.7579(6) 0.6820(4) 0.6074(4)
H38 H 0.7057 0.6277 0.6182
C43 C 1.9756(7) 0.9618(5) 0.1370(4)
H39 H 2.0089 0.9281 0.1036
C44 C 0.9582(7) 0.7853(4) 0.5334(5)
H40 H 1.0407 0.8007 0.4939
Mn1A Mn 0.74659(9) 0.41697(6) 0.57613(5)
Mn1A_2 Mn 1.74659(9) 0.41697(6) 0.57613(5)
Mn1A_3 Mn 0.74659(9) 0.41697(6) -0.42387(5)
Mn1A_4 Mn 1.74659(9) 1.41697(6) 0.57613(5)
S1A S 1.06630(13) 0.36178(9) 0.51374(9)
S2A S 1.57307(13) 0.50838(9) 0.36863(8)
O1A O 0.9119(4) 0.3754(3) 0.5017(3)
O2A O 1.6104(4) 0.4402(3) 0.4596(2)
O2A_2 O 0.6104(4) 0.4402(3) 0.4596(2)
O3A O 1.1445(5) 0.4494(3) 0.4677(3)
N1A N 1.0366(5) 0.4678(3) -0.0143(3)
O4A O 1.0966(5) 0.3063(3) 0.6091(3)
C1A C 1.6042(5) 0.4526(4) 0.2914(4)
O5A O 1.6565(5) 0.5927(3) 0.3322(3)
O6A O 1.4200(4) 0.5254(4) 0.3657(3)
O6_2 O 0.5800(4) 0.4746(4) 0.6343(3)
N2A N 1.6597(5) 1.2633(3) 0.6322(3)
N2A_2 N 0.6597(5) 0.2633(3) 0.6322(3)
N3A N 0.8274(5) 0.3703(3) -0.2739(3)
N3A_2 N 0.8274(5) 0.3703(3) 0.7261(3)
C2A C 1.4418(6) 0.1555(4) 0.0709(4)
H1A H 1.4777 0.1330 0.1308
C3A C 1.1188(6) 0.2945(4) 0.4505(4)
N4A N 1.2673(5) 1.0449(3) 0.6659(3)
N5A N 1.4613(5) 1.0104(3) 0.5344(3)
C4A C 1.2976(6) 0.2647(4) -0.0522(4)
N6A N 1.1807(5) 0.8977(3) 0.7084(3)
C5A C 1.6659(7) 0.3741(4) 0.1642(4)
C6A C 1.6974(6) 1.0970(4) 0.7183(4)
H2A H 1.7565 1.0480 0.7546
C7A C 1.0017(6) 0.3642(4) -0.1640(4)
N7A N 1.2076(4) 0.3395(3) -0.0628(3)
C8A C 1.2114(8) 0.1787(5) 0.3653(4)
C9A C 1.1228(7) 1.0802(5) 0.7892(4)
H3A H 1.1565 1.1416 0.7712
C10A C 1.5298(6) 1.2433(4) 0.6151(4)
H4A H 1.4705 1.2934 0.5815
C11A C 0.7380(6) 0.3191(4) -0.2004(4)
H5A H 0.6468 0.3055 -0.2125
C12A C 1.7429(6) 1.1905(4) 0.6822(4)
H6A H 1.8352 1.2033 0.6932
C13A C 1.3451(6) 0.2321(4) 0.0391(4)
C14A C 0.7748(6) 0.2859(4) -0.1082(4)
H7A H 0.7110 0.2490 -0.0589
C15A C 1.1698(6) 1.0252(4) 0.7424(3)
C16A C 1.1452(6) 0.3986(4) -0.1514(3)
H8A H 1.1350 0.4621 -0.1557
H9A H 1.2106 0.4023 -0.2030
C17A C 1.4773(6) 1.1509(4) 0.6446(3)
C18A C 1.1554(8) 0.4227(5) 0.1361(4)
H10A H 1.0958 0.4701 0.1425
H11A H 1.1337 0.3623 0.1879
H12A H 1.2541 0.4387 0.1363
C19A C 1.2869(7) 0.2589(5) 0.3507(4)
H13A H 1.3701 0.2743 0.3119
N8A N 1.2908(5) 0.2858(3) 0.0839(3)
C20A C 1.5615(6) 1.0785(4) 0.6989(4)
H14A H 1.5277 1.0164 0.7230
C21A C 1.7372(7) 0.3466(4) 0.2460(4)
H15A H 1.8070 0.3005 0.2589
C22A C 1.1283(6) 0.4178(4) 0.0446(4)
C23A C 1.3188(7) 0.8710(5) 0.5532(5)
H16A H 1.3830 0.8707 0.5036
H17A H 1.3275 0.8128 0.6089
H18A H 1.2224 0.8772 0.5335
C24A C 1.0866(7) 0.1570(5) 0.4242(5)
H19A H 1.0334 0.1031 0.4349
C25A C 1.1202(6) 0.9337(4) 0.7684(4)
C26A C 1.0179(6) 0.8928(4) 0.8435(4)
H20A H 0.9826 0.8319 0.8611
C27A C 1.4806(7) 0.1159(5) 0.0100(5)
H21A H 1.5426 0.0649 0.0297
C28A C 1.2100(6) 0.3488(4) 0.0214(4)
C29A C 1.6970(8) 0.3324(5) 0.0943(5)
H22A H 1.7727 0.2875 0.1160
H23A H 1.6126 0.3012 0.0888
H24A H 1.7253 0.3821 0.0338
C30A C 1.4283(7) 0.1508(5) -0.0817(5)
H25A H 1.4567 0.1218 -0.1205
C31A C 1.3377(6) 0.2256(4) -0.1151(4)
H26A H 1.3046 0.2491 -0.1758
C32A C 1.3557(6) 0.9525(4) 0.5746(4)
C33A C 0.9555(6) 0.3926(4) -0.2552(3)
H27A H 1.0175 0.4292 -0.3058
C34A C 1.5593(7) 0.4415(5) 0.1477(4)
H28A H 1.5079 0.4603 0.0935
C35A C 0.9097(6) 0.3086(4) -0.0900(4)
H29A H 0.9375 0.2862 -0.0281
C36A C 1.2596(9) 0.1140(6) 0.3202(5)
H30A H 1.3461 0.1387 0.2822
H31A H 1.2766 0.0519 0.3687
H32A H 1.1865 0.1102 0.2811
C37A C 1.3319(6) 1.1377(4) 0.6111(4)
H33A H 1.3436 1.1481 0.5455
H34A H 1.2672 1.1854 0.6140
C38A C 0.9718(7) 0.9453(5) 0.8901(4)
H35A H 0.9046 0.9194 0.9406
C39A C 1.5284(6) 0.4812(5) 0.2109(4)
H36A H 1.4575 0.5265 0.1988
C40A C 1.7094(6) 0.3845(4) 0.3101(4)
H37A H 1.7601 0.3647 0.3647
C41A C 1.2686(6) 0.9648(4) 0.6491(4)
C42A C 1.2421(6) 0.3180(4) 0.3926(4)
H38A H 1.2943 0.3723 0.3818
C43A C 1.0244(7) 1.0382(5) 0.8630(4)
H39A H 0.9911 1.0719 0.8964
C44A C 1.0418(7) 0.2147(4) 0.4666(5)
H40A H 0.9593 0.1993 0.5061
loop_
_geom_bond_atom_site_label_1
_geom_bond_atom_site_label_2
_geom_bond_site_symmetry_1
_geom_bond_site_symmetry_2
Mn1 O1 1_555 1_555
S1 O1 1_555 1_555
S2 O2 1_555 1_555
O2 Mn1 1_555 1_555
O3 S1 1_555 1_555
N1 C22 1_555 1_555
O4 S1 1_555 1_555
C1 S2 1_555 1_555
O5 S2 1_555 1_555
O6 S2 1_555 1_555
N2 Mn1 1_555 1_555
N3 Mn1 1_555 1_555
C2 H1 1_555 1_555
C3 S1 1_555 1_555
N4 C15 1_555 1_555
N5 C32 1_555 1_555
C4 N7 1_555 1_555
N6 C25 1_555 1_555
C5 C21 1_555 1_555
C6 H2 1_555 1_555
C7 C16 1_555 1_555
N7 C16 1_555 1_555
C8 C19 1_555 1_555
C9 H3 1_555 1_555
C10 N2 1_555 1_555
H4 C10 1_555 1_555
C11 N3 1_555 1_555
H5 C11 1_555 1_555
C12 N2 1_555 1_555
H6 C12 1_555 1_555
C13 C2 1_555 1_555
C14 C11 1_555 1_555
H7 C14 1_555 1_555
C15 C9 1_555 1_555
C16 H8 1_555 1_555
H9 C16 1_555 1_555
C17 C10 1_555 1_555
C18 H10 1_555 1_555
H11 C18 1_555 1_555
H12 C18 1_555 1_555
C19 H13 1_555 1_555
N8 C13 1_555 1_555
C20 C6 1_555 1_555
H14 C20 1_555 1_555
C21 H15 1_555 1_555
C22 C18 1_555 1_555
C23 H16 1_555 1_555
H17 C23 1_555 1_555
H18 C23 1_555 1_555
C24 C8 1_555 1_555
H19 C24 1_555 1_555
C25 C15 1_555 1_555
C26 C25 1_555 1_555
H20 C26 1_555 1_555
C27 C2 1_555 1_555
H21 C27 1_555 1_555
C28 N7 1_555 1_555
C29 C5 1_555 1_555
H22 C29 1_555 1_555
H23 C29 1_555 1_555
H24 C29 1_555 1_555
C30 C27 1_555 1_555
H25 C30 1_555 1_555
C31 C4 1_555 1_555
H26 C31 1_555 1_555
C32 C23 1_555 1_555
C33 N3 1_555 1_555
H27 C33 1_555 1_555
C34 C5 1_555 1_555
H28 C34 1_555 1_555
C35 C7 1_555 1_555
H29 C35 1_555 1_555
C36 C8 1_555 1_555
H30 C36 1_555 1_555
H31 C36 1_555 1_555
H32 C36 1_555 1_555
C37 N4 1_555 1_555
H33 C37 1_555 1_555
H34 C37 1_555 1_555
C38 C26 1_555 1_555
H35 C38 1_555 1_555
C39 C1 1_555 1_555
H36 C39 1_555 1_555
C40 C1 1_555 1_555
H37 C40 1_555 1_555
C41 N4 1_555 1_555
C42 C3 1_555 1_555
H38 C42 1_555 1_555
C43 C9 1_555 1_555
H39 C43 1_555 1_555
C44 C3 1_555 1_555
H40 C44 1_555 1_555
Mn1A O3 1_555 1_555
Mn1A_2 O6 1_555 1_555
Mn1A_3 N3A 1_555 1_555
Mn1A_4 N2A 1_555 1_555
S1A O1A 1_555 1_555
S2A O2A 1_555 1_555
O1A Mn1A 1_555 1_555
O2A Mn1A_2 1_555 1_555
O2A_2 Mn1A 1_555 1_555
O3A Mn1 1_555 1_555
N1A N1 1_555 1_555
O4A S1A 1_555 1_555
C1A S2A 1_555 1_555
O5A S2A 1_555 1_555
O6A Mn1 1_555 1_555
O6_2 Mn1A 1_555 1_555
N2A C10A 1_555 1_555
N2A_2 Mn1A 1_555 1_555
N3A C11A 1_555 1_555
N3A_2 Mn1A 1_555 1_555
C2A H1A 1_555 1_555
C3A S1A 1_555 1_555
N4A C15A 1_555 1_555
N5A N5 1_555 1_555
C4A N7A 1_555 1_555
N6A C25A 1_555 1_555
C5A C21A 1_555 1_555
C6A H2A 1_555 1_555
C7A C16A 1_555 1_555
N7A C16A 1_555 1_555
C8A C19A 1_555 1_555
C9A H3A 1_555 1_555
C10A H4A 1_555 1_555
C11A H5A 1_555 1_555
C12A N2A 1_555 1_555
H6A C12A 1_555 1_555
C13A C2A 1_555 1_555
C14A C11A 1_555 1_555
H7A C14A 1_555 1_555
C15A C9A 1_555 1_555
C16A H8A 1_555 1_555
H9A C16A 1_555 1_555
C17A C10A 1_555 1_555
C18A H10A 1_555 1_555
H11A C18A 1_555 1_555
H12A C18A 1_555 1_555
C19A H13A 1_555 1_555
N8A C13A 1_555 1_555
C20A C6A 1_555 1_555
H14A C20A 1_555 1_555
C21A H15A 1_555 1_555
C22A N1A 1_555 1_555
C23A H16A 1_555 1_555
H17A C23A 1_555 1_555
H18A C23A 1_555 1_555
C24A C8A 1_555 1_555
H19A C24A 1_555 1_555
C25A C15A 1_555 1_555
C26A C25A 1_555 1_555
H20A C26A 1_555 1_555
C27A C2A 1_555 1_555
H21A C27A 1_555 1_555
C28A N7A 1_555 1_555
C29A C5A 1_555 1_555
H22A C29A 1_555 1_555
H23A C29A 1_555 1_555
H24A C29A 1_555 1_555
C30A C27A 1_555 1_555
H25A C30A 1_555 1_555
C31A C4A 1_555 1_555
H26A C31A 1_555 1_555
C32A N5A 1_555 1_555
C33A N3A 1_555 1_555
H27A C33A 1_555 1_555
C34A C5A 1_555 1_555
H28A C34A 1_555 1_555
C35A C7A 1_555 1_555
H29A C35A 1_555 1_555
C36A C8A 1_555 1_555
H30A C36A 1_555 1_555
H31A C36A 1_555 1_555
H32A C36A 1_555 1_555
C37A N4A 1_555 1_555
H33A C37A 1_555 1_555
H34A C37A 1_555 1_555
C38A C26A 1_555 1_555
H35A C38A 1_555 1_555
C39A C1A 1_555 1_555
H36A C39A 1_555 1_555
C40A C1A 1_555 1_555
H37A C40A 1_555 1_555
C41A N4A 1_555 1_555
C42A C3A 1_555 1_555
H38A C42A 1_555 1_555
C43A C9A 1_555 1_555
H39A C43A 1_555 1_555
C44A C3A 1_555 1_555
H40A C44A 1_555 1_555
C4 C13 1_555 1_555
N6 C41 1_555 1_555
C6 C12 1_555 1_555
C7 C33 1_555 1_555
C14 C35 1_555 1_555
C17 C20 1_555 1_555
C17 C37 1_555 1_555
C19 C42 1_555 1_555
N8 C28 1_555 1_555
C21 C40 1_555 1_555
C22 C28 1_555 1_555
C24 C44 1_555 1_555
C30 C31 1_555 1_555
C32 C41 1_555 1_555
C34 C39 1_555 1_555
C38 C43 1_555 1_555
S1A O3A 1_555 1_555
S2A O6A 1_555 1_555
C4A C13A 1_555 1_555
N6A C41A 1_555 1_555
C6A C12A 1_555 1_555
C7A C33A 1_555 1_555
C14A C35A 1_555 1_555
C17A C20A 1_555 1_555
C17A C37A 1_555 1_555
C18A C22A 1_555 1_555
C19A C42A 1_555 1_555
N8A C28A 1_555 1_555
C21A C40A 1_555 1_555
C22A C28A 1_555 1_555
C23A C32A 1_555 1_555
C24A C44A 1_555 1_555
C30A C31A 1_555 1_555
C32A C41A 1_555 1_555
C34A C39A 1_555 1_555
C38A C43A 1_555 1_555

#END
