
#######################################################################
#
#                 Cambridge Crystallographic Data Centre
#                                CCDC 
#
#######################################################################
#
# If this CIF has been generated from an entry in the Cambridge 
# Structural Database, then it will include bibliographic, chemical, 
# crystal, experimental, refinement or atomic coordinate data resulting 
# from the CCDC's data processing and validation procedures.
#
#######################################################################

data_YUNPIH
_symmetry_cell_setting           triclinic
_symmetry_space_group_name_H-M   'P -1'
_symmetry_Int_Tables_number      2
_space_group_name_Hall           '-P 1'
loop_
_symmetry_equiv_pos_site_id
_symmetry_equiv_pos_as_xyz
1 x,y,z
2 -x,-y,-z
_cell_length_a                   10.2938(16)
_cell_length_b                   10.5884(16)
_cell_length_c                   18.556(3)
_cell_angle_alpha                90.444(2)
_cell_angle_beta                 95.115(2)
_cell_angle_gamma                93.133(2)
_cell_volume                     2011.28
loop_
_atom_site_label
_atom_site_type_symbol
_atom_site_fract_x
_atom_site_fract_y
_atom_site_fract_z
Cd1 Cd 0.139917(13) 0.572050(12) 0.064731(7)
Cd2 Cd -0.359853(14) 0.079310(13) 0.559854(8)
C1 C -0.4170(2) 0.2993(2) 0.44666(12)
H1 H -0.4928 0.2984 0.4704
C2 C -0.4053(2) 0.38239(19) 0.39067(12)
H2 H -0.4721 0.4354 0.3773
C3 C -0.2922(2) 0.38648(19) 0.35405(10)
C4 C -0.1938(2) 0.3078(2) 0.37939(11)
H3 H -0.1147 0.3099 0.3586
C5 C -0.2153(2) 0.2270(2) 0.43551(11)
H4 H -0.1493 0.1744 0.4511
C6 C -0.0207(2) 0.4233(2) 0.18079(10)
H5 H 0.0321 0.3597 0.1680
C7 C -0.1111(2) 0.3940(2) 0.22931(10)
H6 H -0.1192 0.3129 0.2479
C8 C -0.19017(19) 0.4880(2) 0.25011(10)
C9 C -0.1752(2) 0.6067(2) 0.21766(11)
H7 H -0.2276 0.6716 0.2289
C10 C -0.08285(19) 0.6263(2) 0.16931(11)
H8 H -0.0746 0.7055 0.1484
C11 C 0.2607(2) 0.72935(19) -0.06595(11)
H9 H 0.1976 0.7854 -0.0564
C12 C 0.3502(2) 0.76626(19) -0.11403(10)
H10 H 0.3467 0.8446 -0.1362
C13 C 0.44620(19) 0.68360(18) -0.12865(10)
C14 C 0.4444(2) 0.56637(19) -0.09450(11)
H11 H 0.5056 0.5081 -0.1033
C15 C 0.3506(2) 0.53837(19) -0.04766(11)
H12 H 0.3506 0.4600 -0.0254
C16 C 0.6978(2) 0.8893(2) -0.31173(11)
H13 H 0.7801 0.9001 -0.3285
C17 C 0.6828(2) 0.8119(2) -0.25365(11)
H14 H 0.7541 0.7720 -0.2318
C18 C 0.55964(19) 0.79322(18) -0.22729(10)
C19 C 0.4567(2) 0.85593(18) -0.26222(10)
H15 H 0.3731 0.8463 -0.2470
C20 C 0.4815(2) 0.93270(19) -0.31987(11)
H16 H 0.4123 0.9748 -0.3424
C21 C 0.13475(18) 0.30710(18) 0.04149(10)
C22 C 0.1317(2) 0.16475(19) 0.03406(13)
H17 H 0.0649 0.1375 -0.0039
H18 H 0.1079 0.1273 0.0789
C23 C 0.2628(2) 0.1163(2) 0.01633(12)
H19 H 0.3312 0.1515 0.0513
H20 H 0.2599 0.0250 0.0208
C24 C 0.2966(2) 0.1513(2) -0.05993(12)
H21 H 0.2374 0.1030 -0.0947
H22 H 0.2819 0.2401 -0.0674
C25 C 0.4363(2) 0.1278(2) -0.07494(11)
H23 H 0.4541 0.0409 -0.0635
H24 H 0.4960 0.1824 -0.0436
C26 C 0.4613(2) 0.1525(2) -0.15362(11)
H25 H 0.4371 0.2374 -0.1659
H26 H 0.4054 0.0939 -0.1845
C27 C 0.6034(2) 0.1387(2) -0.16967(12)
H27 H 0.6311 0.0575 -0.1521
H28 H 0.6078 0.1390 -0.2217
C28 C 0.6971(2) 0.24203(19) -0.13574(10)
C29 C -0.2977(2) -0.12111(19) 0.47098(12)
C30 C -0.2690(3) -0.2327(2) 0.42498(14)
H29 H -0.2311 -0.2018 0.3820
H30 H -0.3504 -0.2797 0.4095
C31 C -0.1755(3) -0.3222(2) 0.46460(14)
H31 H -0.1632 -0.3931 0.4330
H32 H -0.0912 -0.2778 0.4761
C32 C -0.2274(3) -0.3713(2) 0.53400(14)
H33 H -0.2258 -0.3009 0.5679
H34 H -0.3180 -0.4003 0.5230
C33 C -0.1559(2) -0.4773(2) 0.57151(13)
H35 H -0.0625 -0.4578 0.5735
H36 H -0.1754 -0.5552 0.5438
C34 C -0.1957(3) -0.4961(2) 0.64814(13)
H37 H -0.1570 -0.4264 0.6784
H38 H -0.2898 -0.4929 0.6471
C35 C -0.1554(3) -0.6198(2) 0.68244(14)
H39 H -0.0626 -0.6275 0.6794
H40 H -0.1708 -0.6182 0.7332
C36 C -0.2298(2) -0.7343(2) 0.64603(12)
N1 N -0.32506(17) 0.21964(16) 0.46894(9)
N2 N -0.00351(16) 0.53672(16) 0.15063(8)
N3 N -0.28524(18) 0.47106(18) 0.29784(10)
H41 H -0.346(2) 0.518(2) 0.2922(13)
N4 N 0.25906(16) 0.61775(15) -0.03227(8)
N5 N 0.59881(17) 0.95041(16) -0.34547(9)
N6 N 0.54902(17) 0.71050(17) -0.17092(9)
H42 H 0.6191(18) 0.676(2) -0.1577(12)
O1 O 0.22339(13) 0.36462(13) 0.08262(8)
O3 O 0.04707(14) 0.36825(14) 0.00773(8)
O5 O 0.80620(14) 0.21374(13) -0.10506(8)
O7 O 0.66491(6) 0.35576(6) -0.13938(4)
O9 O -0.41393(6) -0.08784(6) 0.47087(4)
O10 O -0.20841(6) -0.06203(6) 0.50924(4)
O11 O -0.35271(6) -0.73127(6) 0.63302(4)
O12 O -0.16962(6) -0.82826(6) 0.63016(4)
Cd1A Cd -0.139917(13) 0.427950(12) -0.064731(7)
Cd1A_2 Cd 0.860083(13) 0.427950(12) -0.064731(7)
Cd2_2 Cd 0.640147(14) 1.079310(13) -0.440146(8)
Cd2A Cd -0.640147(14) -0.079310(13) 0.440146(8)
Cd2_3 Cd -0.359853(14) -0.920690(13) 0.559854(8)
N5_2 N -0.40119(17) -0.04959(16) 0.65453(9)
O3A O -0.04707(14) 0.63175(14) -0.00773(8)
O5A O 0.19380(14) 0.78626(13) 0.10506(8)
O7A O 0.33509(6) 0.64424(6) 0.13938(4)
O9A O -0.58607(6) 0.08784(6) 0.52913(4)
O11_2 O -0.35271(6) 0.26873(6) 0.63302(4)
O12_2 O -0.16962(6) 0.17174(6) 0.63016(4)
O2 O 0.1448(2) 0.9243(2) -0.24554(13)
H43 H 0.086(3) 0.954(3) -0.2183(16)
H44 H 0.122(3) 0.956(3) -0.2886(11)
O4 O 0.50950(18) 0.39641(18) -0.27187(9)
H45 H 0.551(3) 0.355(2) -0.3022(12)
H46 H 0.556(2) 0.390(3) -0.2320(10)
O6 O -0.0616(2) -0.9419(2) 0.80628(15)
H47 H -0.05873(6) -0.90791(6) 0.76607(4)
H48 H -0.0988 -0.9047 0.8396
O8 O 0.02729(6) -0.99707(6) 0.61901(4)
H49 H -0.0147 -0.9306 0.6294
H50 H 0.0220 -1.0087 0.5734
loop_
_geom_bond_atom_site_label_1
_geom_bond_atom_site_label_2
_geom_bond_site_symmetry_1
_geom_bond_site_symmetry_2
Cd1 N2 1_555 1_555
Cd2 N1 1_555 1_555
C1 H1 1_555 1_555
C2 C1 1_555 1_555
H2 C2 1_555 1_555
C3 C2 1_555 1_555
C4 C3 1_555 1_555
H3 C4 1_555 1_555
C5 C4 1_555 1_555
H4 C5 1_555 1_555
C6 H5 1_555 1_555
C7 C6 1_555 1_555
H6 C7 1_555 1_555
C8 C7 1_555 1_555
C9 C8 1_555 1_555
H7 C9 1_555 1_555
C10 C9 1_555 1_555
H8 C10 1_555 1_555
C11 H9 1_555 1_555
C12 C11 1_555 1_555
H10 C12 1_555 1_555
C13 C12 1_555 1_555
C14 C13 1_555 1_555
H11 C14 1_555 1_555
C15 C14 1_555 1_555
H12 C15 1_555 1_555
C16 H13 1_555 1_555
C17 C16 1_555 1_555
H14 C17 1_555 1_555
C18 C17 1_555 1_555
C19 C18 1_555 1_555
H15 C19 1_555 1_555
C20 C19 1_555 1_555
H16 C20 1_555 1_555
C21 C22 1_555 1_555
C22 H17 1_555 1_555
H18 C22 1_555 1_555
C23 C22 1_555 1_555
H19 C23 1_555 1_555
H20 C23 1_555 1_555
C24 C23 1_555 1_555
H21 C24 1_555 1_555
H22 C24 1_555 1_555
C25 C24 1_555 1_555
H23 C25 1_555 1_555
H24 C25 1_555 1_555
C26 C25 1_555 1_555
H25 C26 1_555 1_555
H26 C26 1_555 1_555
C27 C26 1_555 1_555
H27 C27 1_555 1_555
H28 C27 1_555 1_555
C28 C27 1_555 1_555
C29 C30 1_555 1_555
C30 H29 1_555 1_555
H30 C30 1_555 1_555
C31 C30 1_555 1_555
H31 C31 1_555 1_555
H32 C31 1_555 1_555
C32 C31 1_555 1_555
H33 C32 1_555 1_555
H34 C32 1_555 1_555
C33 C32 1_555 1_555
H35 C33 1_555 1_555
H36 C33 1_555 1_555
C34 C33 1_555 1_555
H37 C34 1_555 1_555
H38 C34 1_555 1_555
C35 C34 1_555 1_555
H39 C35 1_555 1_555
H40 C35 1_555 1_555
C36 C35 1_555 1_555
N1 C1 1_555 1_555
N2 C6 1_555 1_555
N3 C3 1_555 1_555
H41 N3 1_555 1_555
N4 Cd1 1_555 1_555
N5 C16 1_555 1_555
N6 C13 1_555 1_555
H42 N6 1_555 1_555
O1 Cd1 1_555 1_555
O2 H43 1_555 1_555
H44 O2 1_555 1_555
O3 Cd1 1_555 1_555
O4 H45 1_555 1_555
H46 O4 1_555 1_555
O5 C28 1_555 1_555
O6 H47 1_555 1_555
H48 O6 1_555 1_555
O7 C28 1_555 1_555
O8 H49 1_555 1_555
H50 O8 1_555 1_555
O9 Cd2 1_555 1_555
O10 Cd2 1_555 1_555
O11 C36 1_555 1_555
O12 C36 1_555 1_555
Cd1A O3 1_555 1_555
Cd1A_2 O5 1_555 1_555
Cd2_2 N5 1_555 1_555
Cd2A O9 1_555 1_555
Cd2_3 O11 1_555 1_555
N5_2 Cd2 1_555 1_555
O3A Cd1 1_555 1_555
O5A Cd1 1_555 1_555
O7A Cd1 1_555 1_555
O9A Cd2 1_555 1_555
O11_2 Cd2 1_555 1_555
O12_2 Cd2 1_555 1_555
C5 N1 1_555 1_555
C8 N3 1_555 1_555
C10 N2 1_555 1_555
C11 N4 1_555 1_555
C15 N4 1_555 1_555
C18 N6 1_555 1_555
C20 N5 1_555 1_555
C21 O1 1_555 1_555
C21 O3 1_555 1_555
C29 O9 1_555 1_555
C29 O10 1_555 1_555
O7 Cd1A_2 1_555 1_555
O12 Cd2_3 1_555 1_555
Cd1A O3A 1_555 1_555
Cd2A O9A 1_555 1_555

#END
