
#######################################################################
#
#                 Cambridge Crystallographic Data Centre
#                                CCDC 
#
#######################################################################
#
# If this CIF has been generated from an entry in the Cambridge 
# Structural Database, then it will include bibliographic, chemical, 
# crystal, experimental, refinement or atomic coordinate data resulting 
# from the CCDC's data processing and validation procedures.
#
#######################################################################

data_YUNQII
_symmetry_cell_setting           orthorhombic
_symmetry_space_group_name_H-M   'P c a n'
_symmetry_Int_Tables_number      60
_space_group_name_Hall           '-P 2n 2c'
loop_
_symmetry_equiv_pos_site_id
_symmetry_equiv_pos_as_xyz
1 x,y,z
2 1/2-x,1/2-y,1/2+z
3 x,-y,1/2-z
4 1/2-x,1/2+y,-z
5 -x,-y,-z
6 1/2+x,1/2+y,1/2-z
7 -x,y,1/2+z
8 1/2+x,1/2-y,z
_cell_length_a                   7.1301(2)
_cell_length_b                   13.3607(3)
_cell_length_c                   24.3162(8)
_cell_angle_alpha                90
_cell_angle_beta                 90
_cell_angle_gamma                90
_cell_volume                     2316.44
loop_
_atom_site_label
_atom_site_type_symbol
_atom_site_fract_x
_atom_site_fract_y
_atom_site_fract_z
Cd1 Cd 0.26071(3) 0.493980(14) -0.061420(9)
Cd2 Cd 0.49727(5) 0.5000 0.2500
O1 O 0.1847(3) 0.52670(16) 0.19252(9)
N1 N 0.1494(4) 0.4201(2) 0.03259(12)
H1 H 0.248(5) 0.383(3) 0.0368(15)
H2 H 0.052(7) 0.379(3) 0.0224(19)
N2 N 0.0878(3) 0.46619(18) 0.08343(10)
C1 C 0.3348(5) 0.6485(2) -0.04696(15)
H3 H 0.3933 0.6763 -0.0801
H4 H 0.2215 0.6868 -0.0381
H5 H 0.4231 0.6524 -0.0162
C2 C 0.3011(5) 0.3430(2) -0.09009(15)
H6 H 0.4084 0.3130 -0.0710
H7 H 0.1881 0.3035 -0.0825
H8 H 0.3252 0.3436 -0.1298
C3 C 0.5353(6) 0.6547(3) 0.26863(19)
H9 H 0.5884 0.6615 0.3056
H10 H 0.4140 0.6891 0.2671
H11 H 0.6211 0.6847 0.2418
C4 C 0.2126(4) 0.5520(2) 0.09435(13)
H12 H 0.1970 0.6027 0.0650
H13 H 0.3447 0.5293 0.0939
C5 C 0.1687(5) 0.5989(2) 0.14944(14)
H14 H 0.2565 0.6549 0.1564
H15 H 0.0397 0.6263 0.1489
C6 C 0.0568(5) 0.4458(2) 0.18324(13)
H16 H -0.0732 0.4718 0.1824
H17 H 0.0665 0.3970 0.2137
C7 C 0.1006(5) 0.3946(2) 0.12949(13)
H18 H 0.2286 0.3660 0.1310
H19 H 0.0111 0.3390 0.1235
Cd1B Cd 0.26071(3) 0.506020(14) 0.561420(9)
Cd1D Cd -0.26071(3) 0.506020(14) 0.061420(9)
Cd1F Cd -0.26071(3) 0.493980(14) 0.438580(9)
O1B O 0.1847(3) 0.47330(16) 0.30748(9)
N1B N 0.1494(4) 0.5799(2) 0.46741(12)
H1B H 0.248(5) 0.617(3) 0.4632(15)
H2B H 0.052(7) 0.621(3) 0.4776(19)
N2B N 0.0878(3) 0.53381(18) 0.41657(10)
N2D N -0.0878(3) 0.53381(18) -0.08343(10)
N2F N -0.0878(3) 0.46619(18) 0.58343(10)
C1B C 0.3348(5) 0.3515(2) 0.54696(15)
H3B H 0.3933 0.3237 0.5801
H4B H 0.2215 0.3132 0.5381
H5B H 0.4231 0.3476 0.5162
C2B C 0.3011(5) 0.6570(2) 0.59009(15)
H6B H 0.4084 0.6870 0.5710
H7B H 0.1881 0.6965 0.5825
H8B H 0.3252 0.6564 0.6298
C3B C 0.5353(6) 0.3453(3) 0.23137(19)
H9B H 0.5884 0.3385 0.1944
H10B H 0.4140 0.3109 0.2329
H11B H 0.6211 0.3153 0.2582
C4B C 0.2126(4) 0.4480(2) 0.40565(13)
H12B H 0.1970 0.3973 0.4350
H13B H 0.3447 0.4707 0.4061
C5B C 0.1687(5) 0.4011(2) 0.35056(14)
H14B H 0.2565 0.3451 0.3436
H15B H 0.0397 0.3737 0.3511
C6B C 0.0568(5) 0.5542(2) 0.31676(13)
H16B H -0.0732 0.5282 0.3176
H17B H 0.0665 0.6030 0.2863
C7B C 0.1006(5) 0.6054(2) 0.37051(13)
H18B H 0.2286 0.6340 0.3690
H19B H 0.0111 0.6610 0.3765
loop_
_geom_bond_atom_site_label_1
_geom_bond_atom_site_label_2
_geom_bond_site_symmetry_1
_geom_bond_site_symmetry_2
Cd1 N1 1_555 1_555
Cd2 O1 1_555 1_555
O1 C5 1_555 1_555
N1 H1 1_555 1_555
H2 N1 1_555 1_555
N2 N1 1_555 1_555
C1 Cd1 1_555 1_555
H3 C1 1_555 1_555
H4 C1 1_555 1_555
H5 C1 1_555 1_555
C2 Cd1 1_555 1_555
H6 C2 1_555 1_555
H7 C2 1_555 1_555
H8 C2 1_555 1_555
C3 Cd2 1_555 1_555
H9 C3 1_555 1_555
H10 C3 1_555 1_555
H11 C3 1_555 1_555
C4 N2 1_555 1_555
H12 C4 1_555 1_555
H13 C4 1_555 1_555
C5 C4 1_555 1_555
H14 C5 1_555 1_555
H15 C5 1_555 1_555
C6 O1 1_555 1_555
H16 C6 1_555 1_555
H17 C6 1_555 1_555
C7 N2 1_555 1_555
H18 C7 1_555 1_555
H19 C7 1_555 1_555
Cd1B N1B 1_555 1_555
Cd1D N2 1_555 1_555
Cd1F N2B 1_555 1_555
O1B Cd2 1_555 1_555
N1B H1B 1_555 1_555
H2B N1B 1_555 1_555
N2B N1B 1_555 1_555
N2D Cd1 1_555 1_555
N2F Cd1B 1_555 1_555
C1B Cd1B 1_555 1_555
H3B C1B 1_555 1_555
H4B C1B 1_555 1_555
H5B C1B 1_555 1_555
C2B Cd1B 1_555 1_555
H6B C2B 1_555 1_555
H7B C2B 1_555 1_555
H8B C2B 1_555 1_555
C3B Cd2 1_555 1_555
H9B C3B 1_555 1_555
H10B C3B 1_555 1_555
H11B C3B 1_555 1_555
C4B N2B 1_555 1_555
H12B C4B 1_555 1_555
H13B C4B 1_555 1_555
C5B O1B 1_555 1_555
H14B C5B 1_555 1_555
H15B C5B 1_555 1_555
C6B O1B 1_555 1_555
H16B C6B 1_555 1_555
H17B C6B 1_555 1_555
C7B N2B 1_555 1_555
H18B C7B 1_555 1_555
H19B C7B 1_555 1_555
C6 C7 1_555 1_555
C4B C5B 1_555 1_555
C6B C7B 1_555 1_555

#END
