
#######################################################################
#
#                 Cambridge Crystallographic Data Centre
#                                CCDC 
#
#######################################################################
#
# If this CIF has been generated from an entry in the Cambridge 
# Structural Database, then it will include bibliographic, chemical, 
# crystal, experimental, refinement or atomic coordinate data resulting 
# from the CCDC's data processing and validation procedures.
#
#######################################################################

data_YUNTIK
_symmetry_cell_setting           monoclinic
_symmetry_space_group_name_H-M   'P 21/c'
_symmetry_Int_Tables_number      14
_space_group_name_Hall           '-P 2ybc'
loop_
_symmetry_equiv_pos_site_id
_symmetry_equiv_pos_as_xyz
1 x,y,z
2 -x,1/2+y,1/2-z
3 -x,-y,-z
4 x,1/2-y,1/2+z
_cell_length_a                   5.211(1)
_cell_length_b                   16.405(4)
_cell_length_c                   18.524(5)
_cell_angle_alpha                90
_cell_angle_beta                 92.79(2)
_cell_angle_gamma                90
_cell_volume                     1581.67
loop_
_atom_site_label
_atom_site_type_symbol
_atom_site_fract_x
_atom_site_fract_y
_atom_site_fract_z
Cu1 Cu 0.4095(1) 0.1694(1) 0.2312(1)
O1 O 1.0747(7) 0.2041(3) 0.1367(2)
O2 O 0.3938(8) 0.2726(3) 0.2885(2)
O3 O 0.5925(9) 0.3906(3) 0.3093(2)
O4 O -0.5237(9) -0.1109(3) 0.5275(3)
N1 N 0.5111(11) 0.0770(3) 0.1641(3)
N2 N 0.6910(9) 0.2229(3) 0.1912(3)
N3 N 0.1696(9) 0.1132(3) 0.2922(3)
N4 N -0.1283(10) 0.0975(3) 0.3712(3)
N5 N -0.2543(9) -0.1638(3) 0.4500(3)
C1 C 0.7628(12) 0.0961(4) 0.1337(4)
C2 C 0.8558(11) 0.1817(4) 0.1545(3)
C3 C 0.7574(12) 0.3028(4) 0.2195(4)
C4 C 0.5681(12) 0.3246(4) 0.2769(3)
C5 C 0.0866(11) 0.0322(4) 0.2903(3)
C6 C 0.0346(13) 0.1492(4) 0.3414(4)
C7 C -0.0970(11) 0.0231(3) 0.3396(3)
C8 C -0.2406(13) -0.0520(4) 0.3616(4)
C9 C -0.1377(13) -0.0862(4) 0.4338(4)
C10 C -0.4394(11) -0.1707(4) 0.4967(3)
C11 C -0.5389(17) -0.2547(5) 0.5090(5)
H1 H 0.521(17) 0.0338(48) 0.1785(48)
H2 H 0.386(15) 0.0682(51) 0.1359(44)
H3 H 0.771(14) 0.0930(44) 0.0802(44)
H4 H 0.883(15) 0.0582(47) 0.1523(44)
H5 H 0.715(14) 0.3477(43) 0.1790(41)
H6 H 0.928(15) 0.3089(43) 0.2356(41)
H7 H -0.256(14) 0.1094(44) 0.4033(42)
H8 H -0.212(14) -0.2097(45) 0.4249(42)
H9 H 0.128(14) -0.0111(43) 0.2519(41)
H10 H 0.052(15) 0.1970(45) 0.3560(42)
H11 H -0.432(15) -0.0366(44) 0.3624(40)
H12 H -0.244(15) -0.0917(44) 0.3239(43)
H13 H 0.070(15) -0.0933(41) 0.4304(40)
H14 H -0.159(14) -0.0447(45) 0.4750(44)
H15 H -0.462(15) -0.2947(46) 0.4778(42)
H16 H -0.528(16) -0.2610(49) 0.5526(44)
H17 H -0.722(15) -0.2525(46) 0.4975(39)
O1_2 O 0.0747(7) 0.2041(3) 0.1367(2)
Cu1_2 Cu 1.4095(1) 0.1694(1) 0.2312(1)
O5 O 0.7459(11) -0.0401(3) -0.0131(3)
O6 O 0.9173(11) -0.1222(4) 0.1096(3)
loop_
_geom_bond_atom_site_label_1
_geom_bond_atom_site_label_2
_geom_bond_site_symmetry_1
_geom_bond_site_symmetry_2
Cu1 O2 1_555 1_555
O1 C2 1_555 1_555
O2 C4 1_555 1_555
O3 C4 1_555 1_555
O4 C10 1_555 1_555
N1 Cu1 1_555 1_555
N2 Cu1 1_555 1_555
N3 Cu1 1_555 1_555
N4 C6 1_555 1_555
N5 C9 1_555 1_555
C1 N1 1_555 1_555
C2 N2 1_555 1_555
C3 N2 1_555 1_555
C4 C3 1_555 1_555
C5 N3 1_555 1_555
C6 N3 1_555 1_555
C7 N4 1_555 1_555
C8 C7 1_555 1_555
C9 C8 1_555 1_555
C10 N5 1_555 1_555
C11 C10 1_555 1_555
H1 N1 1_555 1_555
H2 N1 1_555 1_555
H3 C1 1_555 1_555
H4 C1 1_555 1_555
H5 C3 1_555 1_555
H6 C3 1_555 1_555
H7 N4 1_555 1_555
H8 N5 1_555 1_555
H9 C5 1_555 1_555
H10 C6 1_555 1_555
H11 C8 1_555 1_555
H12 C8 1_555 1_555
H13 C9 1_555 1_555
H14 C9 1_555 1_555
H15 C11 1_555 1_555
H16 C11 1_555 1_555
H17 C11 1_555 1_555
O1_2 Cu1 1_555 1_555
Cu1_2 O1 1_555 1_555
C1 C2 1_555 1_555
C5 C7 1_555 1_555

#END
