
#######################################################################
#
#                 Cambridge Crystallographic Data Centre
#                                CCDC 
#
#######################################################################
#
# If this CIF has been generated from an entry in the Cambridge 
# Structural Database, then it will include bibliographic, chemical, 
# crystal, experimental, refinement or atomic coordinate data resulting 
# from the CCDC's data processing and validation procedures.
#
#######################################################################

data_YUNVIM01
_symmetry_cell_setting           orthorhombic
_symmetry_space_group_name_H-M   'P 21 21 21'
_symmetry_Int_Tables_number      19
_space_group_name_Hall           'P 2ac 2ab'
loop_
_symmetry_equiv_pos_site_id
_symmetry_equiv_pos_as_xyz
1 x,y,z
2 1/2-x,-y,1/2+z
3 -x,1/2+y,1/2-z
4 1/2+x,1/2-y,-z
_cell_length_a                   9.7309(19)
_cell_length_b                   10.942(2)
_cell_length_c                   11.665(2)
_cell_angle_alpha                90
_cell_angle_beta                 90
_cell_angle_gamma                90
_cell_volume                     1242.04
loop_
_atom_site_label
_atom_site_type_symbol
_atom_site_fract_x
_atom_site_fract_y
_atom_site_fract_z
Cu1 Cu 0.34926(6) 0.77302(6) 1.07528(5)
O1 O 0.5371(3) 0.7568(4) 1.0205(3)
O2 O 0.6646(4) 0.6943(3) 0.8736(3)
O3 O 0.3093(3) 0.7005(3) 0.9237(3)
H1 H 0.2293 0.7349 0.9215
O4 O 0.1855(4) 0.4903(3) 0.8756(3)
H2 H 0.1885 0.5650 0.8890
O5 O 0.1713(4) 0.4391(3) 0.6466(3)
H3 H 0.1099 0.4249 0.6966
O6 O 0.2979(5) 0.6573(4) 0.5599(3)
H4 H 0.3035 0.5937 0.5231
C1 C 0.5522(4) 0.7078(5) 0.9245(4)
C2 C 0.4266(5) 0.6514(5) 0.8640(4)
C3 C 0.4340(5) 0.5140(4) 0.8750(4)
H5 H 0.4376 0.4919 0.9554
H6 H 0.5175 0.4848 0.8387
C4 C 0.3102(5) 0.4529(5) 0.8193(4)
H7 H 0.3198 0.3638 0.8241
C5 C 0.2944(5) 0.4914(5) 0.6931(4)
H8 H 0.3727 0.4584 0.6503
C6 C 0.2953(6) 0.6297(5) 0.6796(4)
H9 H 0.2106 0.6628 0.7128
C7 C 0.4184(5) 0.6892(5) 0.7390(4)
H10 H 0.5023 0.6654 0.7001
H11 H 0.4101 0.7774 0.7341
O7 O 0.3598(7) 0.9940(5) 1.0203(4)
O8 O 0.3086(6) 0.9739(5) 0.8449(4)
O9 O 0.2399(7) 1.1316(5) 0.9323(5)
N1 N 0.3008(5) 1.0330(4) 0.9356(4)
O10 O 0.4178(4) 0.8249(3) 1.2273(3)
H12 H 0.4606 0.7621 1.2461
H13 H 0.3757 0.8585 1.2833
Cu1A Cu 0.15074(6) 0.22698(6) 0.57528(5)
Cu1C Cu 0.84926(6) 0.72698(6) 0.92472(5)
O2C O 0.1646(4) 0.8057(3) 1.1264(3)
O5A O 0.3287(4) 0.5609(3) 1.1466(3)
O11 O 0.0813(5) 0.8687(4) 0.7239(4)
H14 H 0.1249 0.9059 0.7748
H15 H 0.0881 0.9168 0.6674
loop_
_geom_bond_atom_site_label_1
_geom_bond_atom_site_label_2
_geom_bond_site_symmetry_1
_geom_bond_site_symmetry_2
Cu1 O1 1_555 1_555
O1 C1 1_555 1_555
O2 C1 1_555 1_555
O3 Cu1 1_555 1_555
H1 O3 1_555 1_555
O4 H2 1_555 1_555
O5 H3 1_555 1_555
O6 H4 1_555 1_555
C1 C2 1_555 1_555
C2 O3 1_555 1_555
C3 C2 1_555 1_555
H5 C3 1_555 1_555
H6 C3 1_555 1_555
C4 O4 1_555 1_555
H7 C4 1_555 1_555
C5 O5 1_555 1_555
H8 C5 1_555 1_555
C6 O6 1_555 1_555
H9 C6 1_555 1_555
C7 C2 1_555 1_555
H10 C7 1_555 1_555
H11 C7 1_555 1_555
O7 Cu1 1_555 1_555
O8 N1 1_555 1_555
O9 N1 1_555 1_555
N1 O7 1_555 1_555
O10 Cu1 1_555 1_555
H12 O10 1_555 1_555
H13 O10 1_555 1_555
O11 H14 1_555 1_555
H15 O11 1_555 1_555
Cu1A O5 1_555 1_555
Cu1C O2 1_555 1_555
O2C Cu1 1_555 1_555
O5A Cu1 1_555 1_555
C3 C4 1_555 1_555
C4 C5 1_555 1_555
C5 C6 1_555 1_555
C6 C7 1_555 1_555

#END
