
#######################################################################
#
#                 Cambridge Crystallographic Data Centre
#                                CCDC 
#
#######################################################################
#
# If this CIF has been generated from an entry in the Cambridge 
# Structural Database, then it will include bibliographic, chemical, 
# crystal, experimental, refinement or atomic coordinate data resulting 
# from the CCDC's data processing and validation procedures.
#
#######################################################################

data_YUNXIQ
_symmetry_cell_setting           triclinic
_symmetry_space_group_name_H-M   'P -1'
_symmetry_Int_Tables_number      2
_space_group_name_Hall           '-P 1'
loop_
_symmetry_equiv_pos_site_id
_symmetry_equiv_pos_as_xyz
1 x,y,z
2 -x,-y,-z
_cell_length_a                   11.2221(8)
_cell_length_b                   16.3393(12)
_cell_length_c                   17.6442(11)
_cell_angle_alpha                65.394(7)
_cell_angle_beta                 76.958(6)
_cell_angle_gamma                74.365(6)
_cell_volume                     2808.76
loop_
_atom_site_label
_atom_site_type_symbol
_atom_site_fract_x
_atom_site_fract_y
_atom_site_fract_z
S2 S 0.1907(4) 1.0297(3) 0.9036(4)
O4 O 0.1734(9) 0.9675(6) 0.8701(6)
F4 F 0.3980(11) 0.9204(8) 0.9514(9)
F5 F 0.3859(10) 1.0627(10) 0.9310(10)
O5 O 0.1568(15) 1.1213(9) 0.8582(14)
F6 F 0.4100(14) 1.0260(12) 0.8231(11)
O6 O 0.1446(18) 1.0023(15) 0.9941(11)
C2 C 0.3528(18) 1.0084(16) 0.9055(18)
C3 C 0.7200(9) 0.8812(8) 0.8230(6)
H1 H 0.7300 0.9215 0.7658
C4 C 0.6369(11) 0.8219(9) 0.8506(9)
C5 C 0.6293(14) 0.7595(11) 0.9335(9)
H2 H 0.5760 0.7166 0.9526
O7 O 0.8608(8) 0.9411(6) 0.8505(5)
N1 N 0.7867(8) 0.8810(7) 0.8784(7)
C6 C 0.7757(12) 0.8232(9) 0.9603(8)
H3 H 0.8204 0.8260 0.9987
C7 C 0.6993(13) 0.7604(11) 0.9874(9)
H4 H 0.6952 0.7173 1.0438
C8 C -0.1036(12) 0.8975(9) 0.4433(8)
H5 H -0.0698 0.9429 0.4470
C9 C -0.0865(13) 0.8098(9) 0.5035(9)
C10 C -0.136(2) 0.7439(12) 0.4969(11)
H6 H -0.1311 0.6840 0.5395
C11 C -0.192(2) 0.7677(12) 0.4279(12)
H7 H -0.2166 0.7215 0.4188
N2 N -0.1680(10) 0.9198(8) 0.3790(6)
C12 C -0.2137(18) 0.8551(12) 0.3718(11)
H8 H -0.2609 0.8711 0.3275
O8 O -0.1841(9) 1.0029(6) 0.3224(6)
Yb1 Yb 0.06267(6) 0.92827(4) 0.79735(4)
O9 O -0.0122(8) 0.8722(7) 0.7287(6)
O10 O 0.2420(7) 0.8234(5) 0.7926(5)
N3 N 0.3588(8) 0.8343(7) 0.7614(6)
O11 O 0.0487(8) 0.8036(6) 0.9193(6)
C13 C -0.0402(11) 0.8417(8) 0.6182(8)
H9 H -0.0992 0.8979 0.6021
N4 N 0.1324(10) 0.8771(7) 1.2242(7)
N5 N 0.0216(9) 0.8169(8) 0.6849(7)
O12 O 0.0207(10) 0.9187(6) 1.2546(6)
C14 C 0.1298(13) 0.8352(9) 1.1723(8)
H10 H 0.0526 0.8367 1.1577
N6 N 0.1363(9) 0.7587(7) 0.9712(6)
C15 C 0.4346(11) 0.8235(9) 0.8170(8)
H11 H 0.4018 0.8117 0.8743
C16 C 0.3985(12) 0.8517(9) 0.6812(9)
H12 H 0.3426 0.8593 0.6445
C17 C 0.2157(13) 0.6831(9) 0.9643(9)
H13 H 0.2073 0.6600 0.9249
C18 C 0.2333(12) 0.7505(9) 1.0801(8)
C19 C 0.3499(13) 0.7869(11) 1.1656(10)
H14 H 0.4265 0.7569 1.1441
C20 C -0.0173(12) 0.7856(9) 0.5740(9)
C21 C 0.1089(14) 0.7418(10) 0.7075(9)
H15 H 0.1523 0.7275 0.7532
C22 C 0.5228(14) 0.8589(11) 0.6502(9)
H16 H 0.5517 0.8721 0.5922
C23 C 0.3101(14) 0.6393(11) 1.0156(9)
H17 H 0.3674 0.5865 1.0110
C24 C 0.6031(13) 0.8468(11) 0.7040(9)
H18 H 0.6884 0.8500 0.6839
C25 C 0.2394(12) 0.7905(9) 1.1409(8)
C26 C 0.1423(12) 0.7920(9) 1.0274(8)
H19 H 0.0834 0.8447 1.0310
C27 C 0.3498(14) 0.8263(12) 1.2207(12)
H20 H 0.4255 0.8212 1.2393
C28 C 0.5572(12) 0.8293(9) 0.7906(8)
C29 C 0.2391(13) 0.8734(10) 1.2489(10)
H21 H 0.2385 0.9029 1.2855
C30 C 0.3197(13) 0.6736(10) 1.0733(9)
H22 H 0.3845 0.6450 1.1080
C31 C 0.0731(17) 0.7047(11) 0.5976(11)
H23 H 0.0908 0.6644 0.5684
C32 C 0.1363(18) 0.6845(11) 0.6639(12)
H24 H 0.1993 0.6306 0.6797
O7_2 O -0.1392(8) 0.9411(6) 0.8505(5)
O8A O 0.1841(9) 0.9971(6) 0.6776(6)
Yb1_2 Yb 1.06267(6) 0.92827(4) 0.79735(4)
Yb1A Yb -0.06267(6) 1.07173(4) 0.20265(4)
Yb1A_2 Yb -0.06267(6) 1.07173(4) 1.20265(4)
O12A O -0.0207(10) 1.0813(6) 0.7454(6)
C33 C 0.136(3) 1.4507(13) 1.105(2)
H25 H 0.2066 1.4716 1.0604
Cl1 Cl 0.0604(9) 1.3676(11) 1.0959(9)
Cl2 Cl 0.1759(18) 1.3810(13) 1.2141(12)
Cl3 Cl 0.0145(13) 1.5419(13) 1.1308(9)
C34 C 0.302(4) 1.394(2) 0.701(2)
H26 H 0.3125 1.4206 0.7402
Cl4 Cl 0.4492(19) 1.3821(13) 0.6306(12)
Cl5 Cl 0.1903(13) 1.4597(7) 0.6453(9)
Cl6 Cl 0.2870(13) 1.2850(6) 0.7548(8)
Cl7 Cl 0.290(3) 0.4642(16) 0.4178(14)
Cl8 Cl 0.187(2) 0.6540(8) 0.3929(8)
Cl9 Cl 0.149(2) 0.5633(18) 0.3035(13)
C35 C 0.248(5) 0.5726(16) 0.355(3)
H27 H 0.3230 0.5908 0.3136
S3 S 0.2940(5) 0.9277(4) 0.4574(3)
C36 C 0.3806(6) 0.8169(4) 0.4572(4)
O13 O 0.3834(6) 0.9639(3) 0.4743(3)
O14 O 0.1941(4) 0.9054(6) 0.5235(3)
O15 O 0.2590(6) 0.9739(4) 0.3744(3)
F7 F 0.3108(8) 0.7718(4) 0.4430(5)
F8 F 0.4777(6) 0.8243(6) 0.3981(5)
F9 F 0.4218(8) 0.7641(3) 0.5303(5)
S1 S 0.6316(4) 0.5055(3) 1.1406(3)
O1 O 0.5985(14) 0.5826(10) 1.1617(10)
O2 O 0.6016(16) 0.5289(11) 1.0584(11)
O3 O 0.7484(15) 0.4480(13) 1.1585(12)
F1 F 0.4117(15) 0.4719(11) 1.2073(15)
F2 F 0.545(2) 0.394(2) 1.2849(14)
F3 F 0.548(2) 0.3632(11) 1.1778(19)
C1 C 0.530(2) 0.4314(14) 1.207(3)
S4? S 0.2693(5) 0.8965(4) 0.4494(3)
C37? C 0.4380(5) 0.8653(5) 0.4412(3)
O16? O 0.2337(4) 0.8995(5) 0.5316(3)
O17? O 0.2349(7) 0.8234(5) 0.4408(4)
O18? O 0.2485(7) 0.9836(4) 0.3813(3)
F10? F 0.4887(5) 0.8581(7) 0.3678(4)
F11? F 0.4873(5) 0.9270(5) 0.4470(3)
F12? F 0.4750(7) 0.7853(4) 0.5008(5)
O19? O 0.047(2) 0.5154(14) 0.4663(14)
H28? H 0.0175 0.5596 0.4249
C38? C 0.047(2) 0.5154(14) 0.4663(14)
H29? H 0.0339 0.5827 0.4425
H30? H 0.0488 0.4935 0.4221
H31? H 0.1271 0.4900 0.4892
loop_
_geom_bond_atom_site_label_1
_geom_bond_atom_site_label_2
_geom_bond_site_symmetry_1
_geom_bond_site_symmetry_2
S1 O1 1_555 1_555
O2 S1 1_555 1_555
O3 S1 1_555 1_555
F1 C1 1_555 1_555
F2 C1 1_555 1_555
F3 C1 1_555 1_555
C1 S1 1_555 1_555
S2 O4 1_555 1_555
O4 Yb1 1_555 1_555
F4 C2 1_555 1_555
F5 C2 1_555 1_555
O5 S2 1_555 1_555
F6 C2 1_555 1_555
O6 S2 1_555 1_555
C2 S2 1_555 1_555
C3 H1 1_555 1_555
C4 C3 1_555 1_555
C5 C4 1_555 1_555
H2 C5 1_555 1_555
O7 N1 1_555 1_555
N1 C3 1_555 1_555
C6 N1 1_555 1_555
H3 C6 1_555 1_555
C7 C5 1_555 1_555
H4 C7 1_555 1_555
C8 H5 1_555 1_555
C9 C8 1_555 1_555
C10 C9 1_555 1_555
H6 C10 1_555 1_555
C11 C10 1_555 1_555
H7 C11 1_555 1_555
N2 C8 1_555 1_555
C12 C11 1_555 1_555
H8 C12 1_555 1_555
O8 N2 1_555 1_555
Yb1 O9 1_555 1_555
O9 N5 1_555 1_555
O10 Yb1 1_555 1_555
N3 O10 1_555 1_555
O11 Yb1 1_555 1_555
C13 H9 1_555 1_555
N4 O12 1_555 1_555
N5 C13 1_555 1_555
O12 Yb1A_2 1_555 1_555
C14 N4 1_555 1_555
H10 C14 1_555 1_555
N6 O11 1_555 1_555
C15 N3 1_555 1_555
H11 C15 1_555 1_555
C16 N3 1_555 1_555
H12 C16 1_555 1_555
C17 N6 1_555 1_555
H13 C17 1_555 1_555
C18 C25 1_555 1_555
C19 H14 1_555 1_555
C20 C9 1_555 1_555
C21 N5 1_555 1_555
H15 C21 1_555 1_555
C22 C16 1_555 1_555
H16 C22 1_555 1_555
C23 C17 1_555 1_555
H17 C23 1_555 1_555
C24 C22 1_555 1_555
H18 C24 1_555 1_555
C25 C14 1_555 1_555
C26 N6 1_555 1_555
H19 C26 1_555 1_555
C27 C19 1_555 1_555
H20 C27 1_555 1_555
C28 C4 1_555 1_555
C29 N4 1_555 1_555
H21 C29 1_555 1_555
C30 C18 1_555 1_555
H22 C30 1_555 1_555
C31 C20 1_555 1_555
H23 C31 1_555 1_555
C32 C21 1_555 1_555
H24 C32 1_555 1_555
C33 H25 1_555 1_555
Cl1 C33 1_555 1_555
Cl2 C33 1_555 1_555
Cl3 C33 1_555 1_555
C34 H26 1_555 1_555
Cl4 C34 1_555 1_555
Cl5 C34 1_555 1_555
Cl6 C34 1_555 1_555
Cl7 C35 1_555 1_555
Cl8 C35 1_555 1_555
Cl9 C35 1_555 1_555
C35 H27 1_555 1_555
S3 C36 1_555 1_555
C36 F7 1_555 1_555
O13 S3 1_555 1_555
O14 S3 1_555 1_555
O15 S3 1_555 1_555
F8 C36 1_555 1_555
F9 C36 1_555 1_555
O7_2 Yb1 1_555 1_555
O8A Yb1 1_555 1_555
Yb1_2 O7 1_555 1_555
Yb1A O8 1_555 1_555
O12A Yb1 1_555 1_555
C6 C7 1_555 1_555
N2 C12 1_555 1_555
C13 C20 1_555 1_555
C15 C28 1_555 1_555
C18 C26 1_555 1_555
C19 C25 1_555 1_555
C23 C30 1_555 1_555
C24 C28 1_555 1_555
C27 C29 1_555 1_555
C31 C32 1_555 1_555

#END
