
#######################################################################
#
#                 Cambridge Crystallographic Data Centre
#                                CCDC 
#
#######################################################################
#
# If this CIF has been generated from an entry in the Cambridge 
# Structural Database, then it will include bibliographic, chemical, 
# crystal, experimental, refinement or atomic coordinate data resulting 
# from the CCDC's data processing and validation procedures.
#
#######################################################################

data_YUNZUC
_symmetry_cell_setting           orthorhombic
_symmetry_space_group_name_H-M   'P m c b'
_symmetry_Int_Tables_number      55
_space_group_name_Hall           '-P 2bc 2'
loop_
_symmetry_equiv_pos_site_id
_symmetry_equiv_pos_as_xyz
1 x,y,z
2 -x,1/2-y,1/2+z
3 x,-y,-z
4 -x,1/2+y,1/2-z
5 -x,-y,-z
6 x,1/2+y,1/2-z
7 -x,y,z
8 x,1/2-y,1/2+z
_cell_length_a                   7.136(3)
_cell_length_b                   7.217(1)
_cell_length_c                   14.855(4)
_cell_angle_alpha                90
_cell_angle_beta                 90
_cell_angle_gamma                90
_cell_volume                     765.04
loop_
_atom_site_label
_atom_site_type_symbol
_atom_site_fract_x
_atom_site_fract_y
_atom_site_fract_z
B1 B 0.5000 0.1562(11) 0.8734(6)
F1 F 0.5000 0.2730(7) 0.9461(3)
F2 F 0.5000 0.2681(7) 0.7981(3)
F3 F 0.3442(6) 0.0518(6) 0.8739(3)
F3F F 0.6558(6) 0.0518(6) 0.8739(3)
Ag1 Ag 0.5000 0.64743(7) 0.87491(4)
N1 N 0.1931(5) 0.6328(4) 0.8791(3)
C1 C 0.0958(6) 0.7243(6) 0.9402(3)
C2 C 0.0952(6) 0.5403(7) 0.8181(3)
H1 H 0.160(7) 0.782(6) 0.978(3)
H2 H 0.162(7) 0.487(6) 0.771(3)
N1F N 0.8069(5) 0.6328(4) 0.8791(3)
C1F C -0.0958(6) 0.7243(6) 0.9402(3)
C2F C -0.0952(6) 0.5403(7) 0.8181(3)
C1F_2 C 0.9042(6) 0.7243(6) 0.9402(3)
C2F_2 C 0.9048(6) 0.5403(7) 0.8181(3)
N1F_2 N -0.1931(5) 0.6328(4) 0.8791(3)
H1F H -0.160(7) 0.782(6) 0.978(3)
H2F H -0.162(7) 0.487(6) 0.771(3)
loop_
_geom_bond_atom_site_label_1
_geom_bond_atom_site_label_2
_geom_bond_site_symmetry_1
_geom_bond_site_symmetry_2
Ag1 N1 1_555 1_555
N1 C1 1_555 1_555
C1 H1 1_555 1_555
C2 N1 1_555 1_555
B1 F1 1_555 1_555
F2 B1 1_555 1_555
F3 B1 1_555 1_555
H2 C2 1_555 1_555
N1F Ag1 1_555 1_555
C1F C1 1_555 1_555
C2F C2 1_555 1_555
C1F_2 N1F 1_555 1_555
C2F_2 N1F 1_555 1_555
N1F_2 C1F 1_555 1_555
H1F C1F 1_555 1_555
H2F C2F 1_555 1_555
F3F B1 1_555 1_555
C2F N1F_2 1_555 1_555

#END
