
#######################################################################
#
#                 Cambridge Crystallographic Data Centre
#                                CCDC 
#
#######################################################################
#
# If this CIF has been generated from an entry in the Cambridge 
# Structural Database, then it will include bibliographic, chemical, 
# crystal, experimental, refinement or atomic coordinate data resulting 
# from the CCDC's data processing and validation procedures.
#
#######################################################################

data_YUPBAO
_symmetry_cell_setting           triclinic
_symmetry_space_group_name_H-M   'P -1'
_symmetry_Int_Tables_number      2
_space_group_name_Hall           '-P 1'
loop_
_symmetry_equiv_pos_site_id
_symmetry_equiv_pos_as_xyz
1 x,y,z
2 -x,-y,-z
_cell_length_a                   7.2692(2)
_cell_length_b                   9.6684(3)
_cell_length_c                   17.6850(5)
_cell_angle_alpha                100.873(3)
_cell_angle_beta                 92.994(2)
_cell_angle_gamma                93.821(3)
_cell_volume                     1215.24
loop_
_atom_site_label
_atom_site_type_symbol
_atom_site_fract_x
_atom_site_fract_y
_atom_site_fract_z
Cu1 Cu 0.0000 0.5000 0.0000
O1 O 0.02439(16) 0.32494(12) 0.03501(6)
C1 C 0.0309(2) 0.30709(16) 0.10685(9)
C2 C -0.0240(2) 0.40645(16) 0.16926(9)
C3 C -0.0122(2) 0.37755(16) 0.24452(9)
H1 H -0.0499 0.4457 0.2857
C4 C 0.0518(2) 0.25420(17) 0.26108(9)
C5 C 0.1028(2) 0.15525(16) 0.19834(9)
H2 H 0.1455 0.0687 0.2074
C6 C 0.0928(2) 0.18008(16) 0.12376(9)
H3 H 0.1284 0.1102 0.0830
C7 C -0.1024(2) 0.53664(16) 0.16043(9)
H4 H -0.1450 0.5933 0.2050
N1 N -0.11865(17) 0.58109(13) 0.09622(7)
N2 N -0.21992(19) 0.69681(15) 0.09185(8)
H5 H -0.182(3) 0.730(2) 0.0550(13)
C8 C -0.2263(2) 0.80406(17) 0.16152(10)
H6 H -0.3020 0.8788 0.1503
H7 H -0.1007 0.8445 0.1792
H8 H -0.2805 0.7609 0.2019
C9 C 0.0693(3) 0.22315(18) 0.34288(9)
C10 C -0.0555(3) 0.0897(2) 0.34667(11)
H9 H -0.0444 0.0698 0.3990
H10 H -0.0172 0.0093 0.3099
H11 H -0.1842 0.1051 0.3335
C11 C 0.2709(3) 0.19794(19) 0.36271(11)
H12 H 0.2830 0.1783 0.4150
H13 H 0.3508 0.2823 0.3599
H14 H 0.3078 0.1172 0.3259
C12 C 0.0118(3) 0.3452(2) 0.40376(10)
H15 H 0.0255 0.3208 0.4550
H16 H -0.1174 0.3617 0.3923
H17 H 0.0908 0.4310 0.4028
Cu2 Cu 0.5000 0.5000 0.0000
O2 O 0.32170(15) 0.59900(11) 0.06133(6)
C13 C 0.3475(2) 0.62423(16) 0.13731(9)
C14 C 0.4235(2) 0.52850(16) 0.17926(9)
C15 C 0.4472(2) 0.56366(16) 0.26024(9)
H18 H 0.4972 0.4973 0.2874
C16 C 0.4004(2) 0.69164(17) 0.30218(9)
C17 C 0.3204(2) 0.78367(17) 0.25965(9)
H19 H 0.2834 0.8710 0.2864
C18 C 0.2938(2) 0.75159(17) 0.18035(9)
H20 H 0.2380 0.8168 0.1541
C19 C 0.4769(2) 0.39092(16) 0.14199(9)
H21 H 0.4888 0.3202 0.1722
N3 N 0.50856(18) 0.36048(13) 0.07022(7)
N4 N 0.5476(2) 0.22542(14) 0.03586(8)
H22 H 0.623(3) 0.236(2) 0.0045(12)
C20 C 0.5993(2) 0.12745(17) 0.08504(10)
H23 H 0.6230 0.0370 0.0529
H24 H 0.4985 0.1126 0.1180
H25 H 0.7112 0.1668 0.1173
C21 C 0.4378(3) 0.73622(17) 0.38962(9)
C22 C 0.5841(3) 0.86275(19) 0.40629(10)
H26 H 0.5394 0.9401 0.3834
H27 H 0.6993 0.8341 0.3838
H28 H 0.6066 0.8945 0.4622
C23 C 0.2600(3) 0.7803(2) 0.42744(11)
H29 H 0.2114 0.8567 0.4048
H30 H 0.2870 0.8133 0.4830
H31 H 0.1679 0.6992 0.4186
C24 C 0.5111(3) 0.61766(19) 0.42605(10)
H32 H 0.5335 0.6507 0.4819
H33 H 0.6270 0.5904 0.4037
H34 H 0.4200 0.5359 0.4160
O1A O -0.02439(16) 0.67506(12) -0.03501(6)
C1A C -0.0309(2) 0.69291(16) -0.10685(9)
C2A C 0.0240(2) 0.59355(16) -0.16926(9)
C3A C 0.0122(2) 0.62245(16) -0.24452(9)
H1A H 0.0499 0.5543 -0.2857
C4A C -0.0518(2) 0.74580(17) -0.26108(9)
C5A C -0.1028(2) 0.84475(16) -0.19834(9)
H2A H -0.1455 0.9313 -0.2074
C6A C -0.0928(2) 0.81992(16) -0.12376(9)
H3A H -0.1284 0.8898 -0.0830
C7A C 0.1024(2) 0.46336(16) -0.16043(9)
H4A H 0.1450 0.4067 -0.2050
N1A N 0.11865(17) 0.41891(13) -0.09622(7)
N2A N 0.21992(19) 0.30319(15) -0.09185(8)
H5A H 0.182(3) 0.270(2) -0.0550(13)
C8A C 0.2263(2) 0.19594(17) -0.16152(10)
H6A H 0.3020 0.1212 -0.1503
H7A H 0.1007 0.1555 -0.1792
H8A H 0.2805 0.2391 -0.2019
C9A C -0.0693(3) 0.77685(18) -0.34288(9)
C10A C 0.0555(3) 0.9103(2) -0.34667(11)
H9A H 0.0444 0.9302 -0.3990
H10A H 0.0172 0.9907 -0.3099
H11A H 0.1842 0.8949 -0.3335
C11A C -0.2709(3) 0.80206(19) -0.36271(11)
H12A H -0.2830 0.8217 -0.4150
H13A H -0.3508 0.7177 -0.3599
H14A H -0.3078 0.8828 -0.3259
C12A C -0.0118(3) 0.6548(2) -0.40376(10)
H15A H -0.0255 0.6792 -0.4550
H16A H 0.1174 0.6383 -0.3923
H17A H -0.0908 0.5690 -0.4028
O2A O -0.32170(15) 0.40100(11) -0.06133(6)
C13A C -0.3475(2) 0.37577(16) -0.13731(9)
C14A C -0.4235(2) 0.47150(16) -0.17926(9)
C15A C -0.4472(2) 0.43634(16) -0.26024(9)
H18A H -0.4972 0.5027 -0.2874
C16A C -0.4004(2) 0.30836(17) -0.30218(9)
C17A C -0.3204(2) 0.21633(17) -0.25965(9)
H19A H -0.2834 0.1290 -0.2864
C18A C -0.2938(2) 0.24841(17) -0.18035(9)
H20A H -0.2380 0.1832 -0.1541
C19A C -0.4769(2) 0.60908(16) -0.14199(9)
H21A H -0.4888 0.6798 -0.1722
N3A N -0.50856(18) 0.63952(13) -0.07022(7)
N4A N -0.5476(2) 0.77458(14) -0.03586(8)
H22A H -0.623(3) 0.764(2) -0.0045(12)
C20A C -0.5993(2) 0.87255(17) -0.08504(10)
H23A H -0.6230 0.9630 -0.0529
H24A H -0.4985 0.8874 -0.1180
H25A H -0.7112 0.8332 -0.1173
C21A C -0.4378(3) 0.26378(17) -0.38962(9)
C22A C -0.5841(3) 0.13725(19) -0.40629(10)
H26A H -0.5394 0.0599 -0.3834
H27A H -0.6993 0.1659 -0.3838
H28A H -0.6066 0.1055 -0.4622
C23A C -0.2600(3) 0.2197(2) -0.42744(11)
H29A H -0.2114 0.1433 -0.4048
H30A H -0.2870 0.1867 -0.4830
H31A H -0.1679 0.3008 -0.4186
C24A C -0.5111(3) 0.38234(19) -0.42605(10)
H32A H -0.5335 0.3493 -0.4819
H33A H -0.6270 0.4096 -0.4037
H34A H -0.4200 0.4641 -0.4160
Cu2_2 Cu -0.5000 0.5000 0.0000
O2A_2 O 0.67830(15) 0.40100(11) -0.06133(6)
N3A_2 N 0.49144(18) 0.63952(13) -0.07022(7)
loop_
_geom_bond_atom_site_label_1
_geom_bond_atom_site_label_2
_geom_bond_site_symmetry_1
_geom_bond_site_symmetry_2
Cu1 O1 1_555 1_555
O1 C1 1_555 1_555
C1 C2 1_555 1_555
C2 C3 1_555 1_555
C3 H1 1_555 1_555
C4 C3 1_555 1_555
C5 C4 1_555 1_555
H2 C5 1_555 1_555
C6 C1 1_555 1_555
H3 C6 1_555 1_555
C7 C2 1_555 1_555
H4 C7 1_555 1_555
N1 Cu1 1_555 1_555
N2 N1 1_555 1_555
H5 N2 1_555 1_555
C8 N2 1_555 1_555
H6 C8 1_555 1_555
H7 C8 1_555 1_555
H8 C8 1_555 1_555
C9 C4 1_555 1_555
C10 C9 1_555 1_555
H9 C10 1_555 1_555
H10 C10 1_555 1_555
H11 C10 1_555 1_555
C11 C9 1_555 1_555
H12 C11 1_555 1_555
H13 C11 1_555 1_555
H14 C11 1_555 1_555
C12 C9 1_555 1_555
H15 C12 1_555 1_555
H16 C12 1_555 1_555
H17 C12 1_555 1_555
Cu2 O2 1_555 1_555
O2 Cu1 1_555 1_555
C13 O2 1_555 1_555
C14 C13 1_555 1_555
C15 C14 1_555 1_555
H18 C15 1_555 1_555
C16 C15 1_555 1_555
C17 C16 1_555 1_555
H19 C17 1_555 1_555
C18 C13 1_555 1_555
H20 C18 1_555 1_555
C19 C14 1_555 1_555
H21 C19 1_555 1_555
N3 Cu2 1_555 1_555
N4 N3 1_555 1_555
H22 N4 1_555 1_555
C20 N4 1_555 1_555
H23 C20 1_555 1_555
H24 C20 1_555 1_555
H25 C20 1_555 1_555
C21 C16 1_555 1_555
C22 C21 1_555 1_555
H26 C22 1_555 1_555
H27 C22 1_555 1_555
H28 C22 1_555 1_555
C23 C21 1_555 1_555
H29 C23 1_555 1_555
H30 C23 1_555 1_555
H31 C23 1_555 1_555
C24 C21 1_555 1_555
H32 C24 1_555 1_555
H33 C24 1_555 1_555
H34 C24 1_555 1_555
O1A Cu1 1_555 1_555
C1A O1A 1_555 1_555
C2A C1A 1_555 1_555
C3A C2A 1_555 1_555
H1A C3A 1_555 1_555
C4A C3A 1_555 1_555
C5A C4A 1_555 1_555
H2A C5A 1_555 1_555
C6A C1A 1_555 1_555
H3A C6A 1_555 1_555
C7A C2A 1_555 1_555
H4A C7A 1_555 1_555
N1A Cu1 1_555 1_555
N2A N1A 1_555 1_555
H5A N2A 1_555 1_555
C8A N2A 1_555 1_555
H6A C8A 1_555 1_555
H7A C8A 1_555 1_555
H8A C8A 1_555 1_555
C9A C4A 1_555 1_555
C10A C9A 1_555 1_555
H9A C10A 1_555 1_555
H10A C10A 1_555 1_555
H11A C10A 1_555 1_555
C11A C9A 1_555 1_555
H12A C11A 1_555 1_555
H13A C11A 1_555 1_555
H14A C11A 1_555 1_555
C12A C9A 1_555 1_555
H15A C12A 1_555 1_555
H16A C12A 1_555 1_555
H17A C12A 1_555 1_555
O2A Cu1 1_555 1_555
C13A O2A 1_555 1_555
C14A C13A 1_555 1_555
C15A C14A 1_555 1_555
H18A C15A 1_555 1_555
C16A C15A 1_555 1_555
C17A C16A 1_555 1_555
H19A C17A 1_555 1_555
C18A C13A 1_555 1_555
H20A C18A 1_555 1_555
C19A C14A 1_555 1_555
H21A C19A 1_555 1_555
N3A C19A 1_555 1_555
N4A N3A 1_555 1_555
H22A N4A 1_555 1_555
C20A N4A 1_555 1_555
H23A C20A 1_555 1_555
H24A C20A 1_555 1_555
H25A C20A 1_555 1_555
C21A C16A 1_555 1_555
C22A C21A 1_555 1_555
H26A C22A 1_555 1_555
H27A C22A 1_555 1_555
H28A C22A 1_555 1_555
C23A C21A 1_555 1_555
H29A C23A 1_555 1_555
H30A C23A 1_555 1_555
H31A C23A 1_555 1_555
C24A C21A 1_555 1_555
H32A C24A 1_555 1_555
H33A C24A 1_555 1_555
H34A C24A 1_555 1_555
Cu2_2 O2A 1_555 1_555
O2A_2 Cu2 1_555 1_555
N3A_2 Cu2 1_555 1_555
C5 C6 1_555 1_555
C7 N1 1_555 1_555
C17 C18 1_555 1_555
C19 N3 1_555 1_555
C5A C6A 1_555 1_555
C7A N1A 1_555 1_555
C17A C18A 1_555 1_555
N3A Cu2_2 1_555 1_555

#END
