
#######################################################################
#
#                 Cambridge Crystallographic Data Centre
#                                CCDC 
#
#######################################################################
#
# If this CIF has been generated from an entry in the Cambridge 
# Structural Database, then it will include bibliographic, chemical, 
# crystal, experimental, refinement or atomic coordinate data resulting 
# from the CCDC's data processing and validation procedures.
#
#######################################################################

data_YUPBUH
_symmetry_cell_setting           triclinic
_symmetry_space_group_name_H-M   'P -1'
_symmetry_Int_Tables_number      2
_space_group_name_Hall           '-P 1'
loop_
_symmetry_equiv_pos_site_id
_symmetry_equiv_pos_as_xyz
1 x,y,z
2 -x,-y,-z
_cell_length_a                   8.9615(19)
_cell_length_b                   12.664(3)
_cell_length_c                   24.099(5)
_cell_angle_alpha                100.117(3)
_cell_angle_beta                 95.283(3)
_cell_angle_gamma                92.318(3)
_cell_volume                     2676.52
loop_
_atom_site_label
_atom_site_type_symbol
_atom_site_fract_x
_atom_site_fract_y
_atom_site_fract_z
Hg1 Hg 0.73293(10) 0.70950(7) 0.24487(4)
Hg2 Hg 0.44192(12) 0.64678(8) 0.07228(5)
Hg3 Hg 0.94135(12) 0.63597(8) 0.07240(5)
Hg4 Hg 1.27431(10) 0.26825(8) 0.44990(4)
I1 I 0.44863(17) 0.72614(13) 0.20736(7)
I2 I 1.00540(16) 0.69999(12) 0.21092(7)
I3 I 0.61244(16) 0.48515(11) 0.07872(6)
I4 I 0.25994(17) 0.78784(12) 0.04261(8)
I5 I 0.76890(17) 0.78949(12) 0.05269(8)
I6 I 0.12160(16) 0.47874(11) 0.07615(7)
I7 I 0.99904(16) 0.28240(12) 0.47612(7)
I8 I 1.56539(16) 0.28312(14) 0.47024(7)
N1 N 1.020(2) 0.1942(12) 0.1742(8)
N2 N 0.7281(17) 0.4891(11) 0.3182(7)
N3 N 0.677(2) 0.5847(13) 0.3073(8)
N4 N 1.2397(19) 0.0021(14) 0.3514(7)
N5 N 1.276(2) 0.0595(15) 0.4035(8)
N6 N 0.5473(18) 1.1766(13) 0.1737(7)
N7 N 0.7759(19) 0.9551(12) 0.3385(7)
N8 N 0.793(2) 0.8450(12) 0.3277(7)
N9 N 0.2570(17) 1.4476(12) 0.3296(7)
N10 N 0.228(2) 1.4211(13) 0.3803(8)
C1 C 0.9449(19) 0.2784(15) 0.2041(9)
C2 C 0.864(2) 0.3548(14) 0.1835(8)
H1 H 0.8581 0.3603 0.1454
C3 C 0.791(2) 0.4226(14) 0.2213(9)
H2 H 0.7302 0.4724 0.2079
C4 C 0.805(2) 0.4197(14) 0.2796(8)
C5 C 0.8906(18) 0.3397(13) 0.2971(9)
H3 H 0.9015 0.3354 0.3354
C6 C 0.957(2) 0.2698(15) 0.2614(8)
C7 C 1.050(2) 0.1797(14) 0.2682(9)
C8 C 1.100(2) 0.1361(15) 0.3135(9)
H4 H 1.0767 0.1642 0.3498
C9 C 1.187(2) 0.0476(15) 0.3036(8)
C10 C 1.228(2) 0.0085(13) 0.2488(8)
H5 H 1.2909 -0.0482 0.2444
C11 C 1.183(2) 0.0460(14) 0.2054(9)
H6 H 1.2093 0.0164 0.1698
C12 C 1.091(2) 0.1352(14) 0.2130(10)
C13 C 1.052(2) 0.1828(15) 0.1143(9)
H7 H 1.0160 0.2445 0.0995
H8 H 1.1600 0.1842 0.1132
C14 C 0.986(3) 0.086(2) 0.0774(9)
H9 H 1.0133 0.0848 0.0397
H10 H 0.8786 0.0848 0.0769
H11 H 1.0221 0.0240 0.0912
C15 C 0.606(3) 0.6221(17) 0.3508(10)
H12 H 0.5647 0.6889 0.3558
C16 C 0.599(2) 0.5515(16) 0.3895(10)
H13 H 0.5510 0.5583 0.4223
C17 C 0.679(3) 0.4728(19) 0.3669(10)
H14 H 0.6997 0.4128 0.3830
C18 C 1.325(4) -0.005(2) 0.4363(11)
H15 H 1.3551 0.0158 0.4748
C19 C 1.327(3) -0.108(2) 0.4060(14)
H16 H 1.3548 -0.1690 0.4198
C20 C 1.279(4) -0.1009(18) 0.3530(12)
H17 H 1.2728 -0.1568 0.3220
C21 C 0.614(2) 1.1118(15) 0.2089(10)
C22 C 0.712(2) 1.0310(16) 0.1986(10)
H18 H 0.7431 1.0111 0.1627
C23 C 0.761(2) 0.9819(15) 0.2405(9)
H19 H 0.8282 0.9284 0.2331
C24 C 0.716(2) 1.0066(15) 0.2957(8)
C25 C 0.621(2) 1.0888(15) 0.3068(9)
H20 H 0.5931 1.1083 0.3432
C26 C 0.568(2) 1.1428(13) 0.2647(8)
C27 C 0.476(2) 1.2307(15) 0.2632(9)
C28 C 0.4027(19) 1.2980(14) 0.3035(9)
H21 H 0.4081 1.2877 0.3409
C29 C 0.325(2) 1.3767(16) 0.2872(8)
C30 C 0.307(2) 1.3975(13) 0.2331(8)
H22 H 0.2460 1.4504 0.2237
C31 C 0.390(3) 1.3330(15) 0.1910(8)
H23 H 0.3898 1.3479 0.1545
C32 C 0.466(3) 1.2497(17) 0.2070(10)
C33 C 0.568(3) 1.1745(16) 0.1148(8)
H24 H 0.6737 1.1709 0.1100
H25 H 0.5349 1.2410 0.1043
C34 C 0.482(3) 1.080(2) 0.0751(11)
H26 H 0.5002 1.0827 0.0367
H27 H 0.3760 1.0846 0.0786
H28 H 0.5141 1.0140 0.0849
C35 C 0.858(2) 0.8292(17) 0.3773(11)
H29 H 0.8907 0.7627 0.3831
C36 C 0.874(3) 0.921(2) 0.4207(11)
H30 H 0.9086 0.9266 0.4587
C37 C 0.827(3) 0.9998(16) 0.3930(11)
H31 H 0.8290 1.0725 0.4086
C38 C 0.169(3) 1.500(2) 0.4091(11)
H32 H 0.1402 1.5024 0.4455
C39 C 0.153(3) 1.584(2) 0.3761(12)
H33 H 0.1131 1.6507 0.3864
C40 C 0.209(3) 1.5444(18) 0.3262(10)
H34 H 0.2134 1.5791 0.2953
Hg2A Hg 0.55808(12) 0.35322(8) -0.07228(5)
Hg3_2 Hg -0.05865(12) 0.63597(8) 0.07240(5)
Hg3A Hg 0.05865(12) 0.36403(8) -0.07240(5)
Hg4_2 Hg 0.27431(10) 1.26825(8) 0.44990(4)
I3A I 0.38756(16) 0.51485(11) -0.07872(6)
I4_2 I 1.25994(17) 0.78784(12) 0.04261(8)
I6_2 I 1.12160(16) 0.47874(11) 0.07615(7)
I6A I 0.87840(16) 0.52126(11) -0.07615(7)
N10_2 N 1.228(2) 0.4211(13) 0.3803(8)
loop_
_geom_bond_atom_site_label_1
_geom_bond_atom_site_label_2
_geom_bond_site_symmetry_1
_geom_bond_site_symmetry_2
Hg1 I1 1_555 1_555
Hg2 I1 1_555 1_555
Hg3 I2 1_555 1_555
Hg4 I7 1_555 1_555
I2 Hg1 1_555 1_555
I3 Hg2 1_555 1_555
I4 Hg2 1_555 1_555
I5 Hg2 1_555 1_555
I6 Hg2 1_555 1_555
I8 Hg4 1_555 1_555
N1 C1 1_555 1_555
N2 N3 1_555 1_555
N3 Hg1 1_555 1_555
N4 N5 1_555 1_555
N5 Hg4 1_555 1_555
N6 C21 1_555 1_555
N7 N8 1_555 1_555
N8 Hg1 1_555 1_555
N9 N10 1_555 1_555
N10 C38 1_555 1_555
C1 C2 1_555 1_555
C2 H1 1_555 1_555
C3 C2 1_555 1_555
H2 C3 1_555 1_555
C4 N2 1_555 1_555
C5 C4 1_555 1_555
H3 C5 1_555 1_555
C6 C1 1_555 1_555
C7 C6 1_555 1_555
C8 C7 1_555 1_555
H4 C8 1_555 1_555
C9 N4 1_555 1_555
C10 C9 1_555 1_555
H5 C10 1_555 1_555
C11 C10 1_555 1_555
H6 C11 1_555 1_555
C12 N1 1_555 1_555
C13 N1 1_555 1_555
H7 C13 1_555 1_555
H8 C13 1_555 1_555
C14 C13 1_555 1_555
H9 C14 1_555 1_555
H10 C14 1_555 1_555
H11 C14 1_555 1_555
C15 N3 1_555 1_555
H12 C15 1_555 1_555
C16 C15 1_555 1_555
H13 C16 1_555 1_555
C17 N2 1_555 1_555
H14 C17 1_555 1_555
C18 N5 1_555 1_555
H15 C18 1_555 1_555
C19 C18 1_555 1_555
H16 C19 1_555 1_555
C20 N4 1_555 1_555
H17 C20 1_555 1_555
C21 C22 1_555 1_555
C22 H18 1_555 1_555
C23 C22 1_555 1_555
H19 C23 1_555 1_555
C24 N7 1_555 1_555
C25 C24 1_555 1_555
H20 C25 1_555 1_555
C26 C21 1_555 1_555
C27 C26 1_555 1_555
C28 C27 1_555 1_555
H21 C28 1_555 1_555
C29 N9 1_555 1_555
C30 C29 1_555 1_555
H22 C30 1_555 1_555
C31 C30 1_555 1_555
H23 C31 1_555 1_555
C32 N6 1_555 1_555
C33 N6 1_555 1_555
H24 C33 1_555 1_555
H25 C33 1_555 1_555
C34 C33 1_555 1_555
H26 C34 1_555 1_555
H27 C34 1_555 1_555
H28 C34 1_555 1_555
C35 N8 1_555 1_555
H29 C35 1_555 1_555
C36 C35 1_555 1_555
H30 C36 1_555 1_555
C37 N7 1_555 1_555
H31 C37 1_555 1_555
C38 H32 1_555 1_555
C39 C38 1_555 1_555
H33 C39 1_555 1_555
C40 N9 1_555 1_555
H34 C40 1_555 1_555
Hg2A I3 1_555 1_555
Hg3_2 I4 1_555 1_555
Hg3A I6 1_555 1_555
Hg4_2 N10 1_555 1_555
I3A Hg2 1_555 1_555
I4_2 Hg3 1_555 1_555
I6_2 Hg3 1_555 1_555
I6A Hg3 1_555 1_555
N10_2 Hg4 1_555 1_555
Hg3 I3 1_555 1_555
Hg3 I5 1_555 1_555
I6 Hg3_2 1_555 1_555
C3 C4 1_555 1_555
C5 C6 1_555 1_555
C7 C12 1_555 1_555
C8 C9 1_555 1_555
C11 C12 1_555 1_555
C16 C17 1_555 1_555
C19 C20 1_555 1_555
C23 C24 1_555 1_555
C25 C26 1_555 1_555
C27 C32 1_555 1_555
C28 C29 1_555 1_555
C31 C32 1_555 1_555
C36 C37 1_555 1_555
C39 C40 1_555 1_555
Hg2A I3A 1_555 1_555
Hg2A I6A 1_555 1_555
Hg3A I3A 1_555 1_555

#END
