
#######################################################################
#
#                 Cambridge Crystallographic Data Centre
#                                CCDC 
#
#######################################################################
#
# If this CIF has been generated from an entry in the Cambridge 
# Structural Database, then it will include bibliographic, chemical, 
# crystal, experimental, refinement or atomic coordinate data resulting 
# from the CCDC's data processing and validation procedures.
#
#######################################################################

data_YUPBIU01
_symmetry_cell_setting           monoclinic
_symmetry_space_group_name_H-M   'P 21/n'
_symmetry_Int_Tables_number      14
_space_group_name_Hall           '-P 2yn'
loop_
_symmetry_equiv_pos_site_id
_symmetry_equiv_pos_as_xyz
1 x,y,z
2 1/2-x,1/2+y,1/2-z
3 -x,-y,-z
4 1/2+x,1/2-y,1/2+z
_cell_length_a                   8.385(1)
_cell_length_b                   11.785(1)
_cell_length_c                   9.797(1)
_cell_angle_alpha                90
_cell_angle_beta                 102.15(1)
_cell_angle_gamma                90
_cell_volume                     946.427
loop_
_atom_site_label
_atom_site_type_symbol
_atom_site_fract_x
_atom_site_fract_y
_atom_site_fract_z
Ag1 Ag 0.36247(3) 0.19003(2) 0.64787(2)
N1 N 0.5513(3) 0.2009(2) 0.5165(3)
N2 N 0.2434(3) 0.2514(2) 0.8233(3)
C1 C 0.6692(5) 0.2777(4) 0.5403(4)
C2 C 0.2650(5) 0.1982(3) 0.9449(4)
C3 C 0.1264(4) 0.3300(3) 0.7996(4)
C4 C 0.5323(4) 0.1458(3) 0.3957(4)
N3 N 0.1392(3) 0.0631(3) 0.5550(3)
C5 C 0.0479(5) 0.0171(3) 0.6352(4)
C6 C 0.0877(5) 0.0455(4) 0.4181(4)
H1 H 0.684(6) 0.315(4) 0.619(5)
H2 H 0.352(6) 0.137(4) 0.970(5)
H3 H 0.111(5) 0.364(4) 0.717(5)
H4 H 0.446(5) 0.087(3) 0.374(4)
H5 H 0.087(6) 0.024(4) 0.732(5)
H6 H 0.153(6) 0.066(5) 0.371(5)
C2C C 0.7650(5) 0.3018(3) 0.4449(4)
C1C C 0.1692(5) 0.2223(4) 1.0403(4)
C4C C 0.0323(4) 0.3542(3) 0.8957(4)
C3C C 0.6264(4) 0.1700(3) 0.2996(4)
C6B C -0.0877(5) -0.0455(4) 0.5819(4)
C5B C -0.0479(5) -0.0171(3) 0.3648(4)
N2C N 0.7434(3) 0.2486(2) 0.3233(3)
H2C H 0.852(6) 0.363(4) 0.470(5)
N1C N 0.0513(3) 0.2991(2) 1.0165(3)
H1C H 0.184(6) 0.185(4) 1.119(5)
H4C H -0.054(5) 0.413(3) 0.874(4)
H3C H 0.611(5) 0.136(4) 0.217(5)
N3B N -0.1392(3) -0.0631(3) 0.4450(3)
H6B H -0.153(6) -0.066(5) 0.629(5)
H5B H -0.087(6) -0.024(4) 0.268(5)
Ag1C Ag 0.86247(3) 0.30997(2) 0.14787(2)
Ag1C_2 Ag -0.13753(3) 0.30997(2) 1.14787(2)
Ag1B Ag -0.36247(3) -0.19003(2) 0.35213(2)
N1C_2 N 1.0513(3) 0.2991(2) 0.0165(3)
N3C N 0.6392(3) 0.4369(3) 0.0550(3)
B1 B 0.2148(5) 0.4010(3) 0.3967(4)
F1 F 0.2697(4) 0.4163(3) 0.5365(3)
F2 F 0.191(2) 0.2917(8) 0.3609(11)
F3 F 0.062(2) 0.457(2) 0.360(2)
F4 F 0.314(2) 0.4545(10) 0.337(2)
F5? F 0.111(2) 0.4759(14) 0.330(2)
F6? F 0.341(2) 0.3920(13) 0.3274(14)
F7? F 0.152(2) 0.2981(10) 0.385(2)
loop_
_geom_bond_atom_site_label_1
_geom_bond_atom_site_label_2
_geom_bond_site_symmetry_1
_geom_bond_site_symmetry_2
Ag1 N1 1_555 1_555
N1 C1 1_555 1_555
N2 Ag1 1_555 1_555
C1 H1 1_555 1_555
C2 N2 1_555 1_555
C3 N2 1_555 1_555
C4 N1 1_555 1_555
N3 Ag1 1_555 1_555
C5 N3 1_555 1_555
C6 N3 1_555 1_555
B1 F1 1_555 1_555
F2 B1 1_555 1_555
F3 B1 1_555 1_555
F4 B1 1_555 1_555
H2 C2 1_555 1_555
H3 C3 1_555 1_555
H4 C4 1_555 1_555
H5 C5 1_555 1_555
H6 C6 1_555 1_555
C2C C1 1_555 1_555
C1C C2 1_555 1_555
C4C C3 1_555 1_555
C3C C4 1_555 1_555
C6B C5 1_555 1_555
C5B C6 1_555 1_555
N2C C2C 1_555 1_555
H2C C2C 1_555 1_555
N1C C1C 1_555 1_555
H1C C1C 1_555 1_555
H4C C4C 1_555 1_555
H3C C3C 1_555 1_555
N3B C6B 1_555 1_555
H6B C6B 1_555 1_555
H5B C5B 1_555 1_555
Ag1C N2C 1_555 1_555
Ag1C_2 N1C 1_555 1_555
Ag1B N3B 1_555 1_555
N1C_2 Ag1C 1_555 1_555
N3C Ag1C 1_555 1_555
C4C N1C 1_555 1_555
C3C N2C 1_555 1_555
C5B N3B 1_555 1_555

#END
