
#######################################################################
#
#                 Cambridge Crystallographic Data Centre
#                                CCDC 
#
#######################################################################
#
# If this CIF has been generated from an entry in the Cambridge 
# Structural Database, then it will include bibliographic, chemical, 
# crystal, experimental, refinement or atomic coordinate data resulting 
# from the CCDC's data processing and validation procedures.
#
#######################################################################

data_YUPBIU
_symmetry_cell_setting           orthorhombic
_symmetry_space_group_name_H-M   'F d d d'
_symmetry_Int_Tables_number      70
_space_group_name_Hall           '-F 2uv 2vw'
loop_
_symmetry_equiv_pos_site_id
_symmetry_equiv_pos_as_xyz
1 x,y,z
2 1/4-x,1/4-y,z
3 x,1/4-y,1/4-z
4 1/4-x,y,1/4-z
5 x,1/2+y,1/2+z
6 1/4-x,3/4-y,1/2+z
7 x,3/4-y,3/4-z
8 1/4-x,1/2+y,3/4-z
9 1/2+x,y,1/2+z
10 3/4-x,1/4-y,1/2+z
11 1/2+x,1/4-y,3/4-z
12 3/4-x,y,3/4-z
13 1/2+x,1/2+y,z
14 3/4-x,3/4-y,z
15 1/2+x,3/4-y,1/4-z
16 3/4-x,1/2+y,1/4-z
17 -x,-y,-z
18 3/4+x,3/4+y,-z
19 -x,3/4+y,3/4+z
20 3/4+x,-y,3/4+z
21 -x,1/2-y,1/2-z
22 3/4+x,1/4+y,1/2-z
23 -x,1/4+y,1/4+z
24 3/4+x,1/2-y,1/4+z
25 1/2-x,-y,1/2-z
26 1/4+x,3/4+y,1/2-z
27 1/2-x,3/4+y,1/4+z
28 1/4+x,-y,1/4+z
29 1/2-x,1/2-y,-z
30 1/4+x,1/4+y,-z
31 1/2-x,1/4+y,3/4+z
32 1/4+x,1/2-y,3/4+z
_cell_length_a                   11.579(2)
_cell_length_b                   13.272(3)
_cell_length_c                   25.304(5)
_cell_angle_alpha                90
_cell_angle_beta                 90
_cell_angle_gamma                90
_cell_volume                     3888.63
loop_
_atom_site_label
_atom_site_type_symbol
_atom_site_fract_x
_atom_site_fract_y
_atom_site_fract_z
Ag1 Ag 0.44948(6) 0.1250 0.1250
N1 N 0.2443(7) 0.1250 0.1250
N2 N 0.4911(3) 0.1988(3) 0.20228(13)
C1 C 0.1832(5) 0.1252(7) 0.0816(2)
C2 C 0.5324(5) 0.2914(4) 0.2051(2)
C3 C 0.4591(5) 0.1581(4) 0.2472(2)
H1 H 0.2217(5) 0.1257(7) 0.0493(2)
H2 H 0.5565(5) 0.3233(4) 0.1743(2)
H3 H 0.4297(5) 0.0929(4) 0.2470(2)
N2B N 0.4911(3) 0.0512(3) 0.04772(13)
C1B C 0.1832(5) 0.1248(7) 0.1684(2)
C1A C 0.0668(5) 0.1248(7) 0.0816(2)
C3T C 0.5409(5) 0.3419(4) 0.2528(2)
C2T C 0.4676(5) 0.2086(4) 0.2949(2)
C2B C 0.5324(5) -0.0414(4) 0.0449(2)
C3B C 0.4591(5) 0.0919(4) 0.0028(2)
C1C C 0.0668(5) 0.1252(7) 0.1684(2)
H1B H 0.2217(5) 0.1243(7) 0.2007(2)
N1A N 0.0057(7) 0.1250 0.1250
H1A H 0.0283(5) 0.1243(7) 0.0493(2)
N2T N 0.5089(3) 0.3012(3) 0.29772(13)
H3T H 0.5703(5) 0.4071(4) 0.2530(2)
H2T H 0.4435(5) 0.1767(4) 0.3257(2)
C3R C 0.5409(5) -0.0919(4) -0.0028(2)
H2B H 0.5565(5) -0.0733(4) 0.0757(2)
C2R C 0.4676(5) 0.0414(4) -0.0449(2)
H3B H 0.4297(5) 0.1571(4) 0.0030(2)
H1C H 0.0283(5) 0.1257(7) 0.2007(2)
Ag1A Ag -0.19948(6) 0.1250 0.1250
Ag1T Ag 0.55052(6) 0.3750 0.3750
N2R N 0.5089(3) -0.0512(3) -0.04772(13)
H3R H 0.5703(5) -0.1571(4) -0.0030(2)
H2R H 0.4435(5) 0.0733(4) -0.0757(2)
N2A N -0.2411(3) 0.0512(3) 0.20228(13)
N2C N -0.2411(3) 0.1988(3) 0.04772(13)
N1T N 0.7557(7) 0.3750 0.3750
N2V N 0.5089(3) 0.4488(3) 0.45228(13)
Ag1P Ag 0.55052(6) -0.1250 -0.1250
C2A C -0.2824(5) -0.0414(4) 0.2051(2)
C3A C -0.2091(5) 0.0919(4) 0.2472(2)
C2C C -0.2824(5) 0.2914(4) 0.0449(2)
C3C C -0.2091(5) 0.1581(4) 0.0028(2)
C1V C 0.8168(5) 0.3752(7) 0.3316(2)
C1T C 0.8168(5) 0.3748(7) 0.4184(2)
C2V C 0.4676(5) 0.5414(4) 0.4551(2)
C3V C 0.5409(5) 0.4081(4) 0.4972(2)
N1P N 0.7557(7) -0.1250 -0.1250
N2P N 0.5089(3) -0.1988(3) -0.20228(13)
C3Y C -0.2909(5) -0.0919(4) 0.2528(2)
H2A H -0.3065(5) -0.0733(4) 0.1743(2)
C2Y C -0.2176(5) 0.0414(4) 0.2949(2)
H3A H -0.1797(5) 0.1571(4) 0.2470(2)
C3EA C -0.2909(5) 0.3419(4) -0.0028(2)
H2C H -0.3065(5) 0.3233(4) 0.0757(2)
C2EA C -0.2176(5) 0.2086(4) -0.0449(2)
H3C H -0.1797(5) 0.0929(4) 0.0030(2)
C1W C 0.9332(5) 0.3748(7) 0.3316(2)
H1V H 0.7783(5) 0.3757(7) 0.2993(2)
C1U C 0.9332(5) 0.3752(7) 0.4184(2)
H1T H 0.7783(5) 0.3743(7) 0.4507(2)
C3F C 0.4591(5) 0.5919(4) 0.5028(2)
H2V H 0.4435(5) 0.5733(4) 0.4243(2)
C2F C 0.5324(5) 0.4586(4) 0.5449(2)
H3V H 0.5703(5) 0.3429(4) 0.4970(2)
C1P C 0.8168(5) -0.1252(7) -0.0816(2)
C1R C 0.8168(5) -0.1248(7) -0.1684(2)
C2P C 0.4676(5) -0.2914(4) -0.2051(2)
C3P C 0.5409(5) -0.1581(4) -0.2472(2)
N2Y N -0.2589(3) -0.0512(3) 0.29772(13)
H3Y H -0.3203(5) -0.1571(4) 0.2530(2)
H2Y H -0.1935(5) 0.0733(4) 0.3257(2)
N2EA N -0.2589(3) 0.3012(3) -0.04772(13)
H3EA H -0.3203(5) 0.4071(4) -0.0030(2)
H2EA H -0.1935(5) 0.1767(4) -0.0757(2)
N1U N 0.9943(7) 0.3750 0.3750
H1W H 0.9717(5) 0.3743(7) 0.2993(2)
H1U H 0.9717(5) 0.3757(7) 0.4507(2)
N2F N 0.4911(3) 0.5512(3) 0.54772(13)
H3F H 0.4297(5) 0.6571(4) 0.5030(2)
H2F H 0.5565(5) 0.4267(4) 0.5757(2)
C1Q C 0.9332(5) -0.1248(7) -0.0816(2)
H1P H 0.7783(5) -0.1257(7) -0.0493(2)
C1S C 0.9332(5) -0.1252(7) -0.1684(2)
H1R H 0.7783(5) -0.1243(7) -0.2007(2)
C3D C 0.4591(5) -0.3419(4) -0.2528(2)
H2P H 0.4435(5) -0.3233(4) -0.1743(2)
C2D C 0.5324(5) -0.2086(4) -0.2949(2)
H3P H 0.5703(5) -0.0929(4) -0.2470(2)
Ag1Y Ag -0.30052(6) -0.1250 0.3750
Ag1CA Ag -0.30052(6) 0.3750 -0.1250
Ag1U Ag 1.19948(6) 0.3750 0.3750
Ag1D Ag 0.44948(6) 0.6250 0.6250
N1Q N 0.9943(7) -0.1250 -0.1250
H1Q H 0.9717(5) -0.1243(7) -0.0493(2)
H1S H 0.9717(5) -0.1257(7) -0.2007(2)
N2D N 0.4911(3) -0.3012(3) -0.29772(13)
H3D H 0.4297(5) -0.4071(4) -0.2530(2)
H2D H 0.5565(5) -0.1767(4) -0.3257(2)
N1Y N -0.5057(7) -0.1250 0.3750
N2AA N -0.2589(3) -0.1988(3) 0.45228(13)
N1CA N -0.5057(7) 0.3750 -0.1250
N2CA N -0.2589(3) 0.4488(3) -0.20228(13)
N2U N 1.2411(3) 0.4488(3) 0.29772(13)
N2W N 1.2411(3) 0.3012(3) 0.45228(13)
N1D N 0.2443(7) 0.6250 0.6250
N2D_2 N 0.4911(3) 0.6988(3) 0.70228(13)
Ag1Q Ag 1.19948(6) -0.1250 -0.1250
Ag1D_2 Ag 0.44948(6) -0.3750 -0.3750
C1AA C -0.5668(5) -0.1252(7) 0.3316(2)
C1Y C -0.5668(5) -0.1248(7) 0.4184(2)
C2AA C -0.2176(5) -0.2914(4) 0.4551(2)
C3AA C -0.2909(5) -0.1581(4) 0.4972(2)
C1CA C -0.5668(5) 0.3752(7) -0.0816(2)
C1EA C -0.5668(5) 0.3748(7) -0.1684(2)
C2CA C -0.2176(5) 0.5414(4) -0.2051(2)
C3CA C -0.2909(5) 0.4081(4) -0.2472(2)
C2U C 1.2824(5) 0.5414(4) 0.2949(2)
C3U C 1.2091(5) 0.4081(4) 0.2528(2)
C2W C 1.2824(5) 0.2086(4) 0.4551(2)
C3W C 1.2091(5) 0.3419(4) 0.4972(2)
C1D C 0.1832(5) 0.6252(7) 0.5816(2)
C1F C 0.1832(5) 0.6248(7) 0.6684(2)
N2S N 1.2411(3) -0.1988(3) -0.04772(13)
N2Q N 1.2411(3) -0.0512(3) -0.20228(13)
C1Z C -0.6832(5) -0.1248(7) 0.3316(2)
H1AA H -0.5283(5) -0.1257(7) 0.2993(2)
C1X C -0.6832(5) -0.1252(7) 0.4184(2)
H1Y H -0.5283(5) -0.1243(7) 0.4507(2)
C3G C -0.2091(5) -0.3419(4) 0.5028(2)
H2AA H -0.1935(5) -0.3233(4) 0.4243(2)
C2G C -0.2824(5) -0.2086(4) 0.5449(2)
H3AA H -0.3203(5) -0.0929(4) 0.4970(2)
C1BA C -0.6832(5) 0.3748(7) -0.0816(2)
H1CA H -0.5283(5) 0.3757(7) -0.0493(2)
C1DA C -0.6832(5) 0.3752(7) -0.1684(2)
H1EA H -0.5283(5) 0.3743(7) -0.2007(2)
C3E C -0.2091(5) 0.5919(4) -0.2528(2)
H2CA H -0.1935(5) 0.5733(4) -0.1743(2)
C2E C -0.2824(5) 0.4586(4) -0.2949(2)
H3CA H -0.3203(5) 0.3429(4) -0.2470(2)
C3M C 1.2909(5) 0.5919(4) 0.2472(2)
H2U H 1.3065(5) 0.5733(4) 0.3257(2)
C2M C 1.2176(5) 0.4586(4) 0.2051(2)
H3U H 1.1797(5) 0.3429(4) 0.2530(2)
C3K C 1.2909(5) 0.1581(4) 0.5028(2)
H2W H 1.3065(5) 0.1767(4) 0.4243(2)
C2K C 1.2176(5) 0.2914(4) 0.5449(2)
H3W H 1.1797(5) 0.4071(4) 0.4970(2)
C1E C 0.0668(5) 0.6248(7) 0.5816(2)
H1D H 0.2217(5) 0.6257(7) 0.5493(2)
C1G C 0.0668(5) 0.6252(7) 0.6684(2)
H1F H 0.2217(5) 0.6243(7) 0.7007(2)
C2S C 1.2824(5) -0.2914(4) -0.0449(2)
C3S C 1.2091(5) -0.1581(4) -0.0028(2)
C2Q C 1.2824(5) 0.0414(4) -0.2051(2)
C3Q C 1.2091(5) -0.0919(4) -0.2472(2)
N1X N -0.7443(7) -0.1250 0.3750
H1Z H -0.7217(5) -0.1243(7) 0.2993(2)
H1X H -0.7217(5) -0.1257(7) 0.4507(2)
N2G N -0.2411(3) -0.3012(3) 0.54772(13)
H3G H -0.1797(5) -0.4071(4) 0.5030(2)
H2G H -0.3065(5) -0.1767(4) 0.5757(2)
N1BA N -0.7443(7) 0.3750 -0.1250
H1BA H -0.7217(5) 0.3743(7) -0.0493(2)
H1DA H -0.7217(5) 0.3757(7) -0.2007(2)
N2E N -0.2411(3) 0.5512(3) -0.29772(13)
H3E H -0.1797(5) 0.6571(4) -0.2530(2)
H2E H -0.3065(5) 0.4267(4) -0.3257(2)
N2M N 1.2589(3) 0.5512(3) 0.20228(13)
H3M H 1.3203(5) 0.6571(4) 0.2470(2)
H2M H 1.1935(5) 0.4267(4) 0.1743(2)
N2K N 1.2589(3) 0.1988(3) 0.54772(13)
H3K H 1.3203(5) 0.0929(4) 0.5030(2)
H2K H 1.1935(5) 0.3233(4) 0.5757(2)
N1E N 0.0057(7) 0.6250 0.6250
H1E H 0.0283(5) 0.6243(7) 0.5493(2)
H1G H 0.0283(5) 0.6257(7) 0.7007(2)
C3O C 1.2909(5) -0.3419(4) 0.0028(2)
H2S H 1.3065(5) -0.3233(4) -0.0757(2)
C2O C 1.2176(5) -0.2086(4) 0.0449(2)
H3S H 1.1797(5) -0.0929(4) -0.0030(2)
C3I C 1.2909(5) 0.0919(4) -0.2528(2)
H2Q H 1.3065(5) 0.0733(4) -0.1743(2)
C2I C 1.2176(5) -0.0414(4) -0.2949(2)
H3Q H 1.1797(5) -0.1571(4) -0.2470(2)
Ag1X Ag -0.94948(6) -0.1250 0.3750
Ag1E Ag -0.19948(6) -0.3750 0.6250
Ag1BA Ag -0.94948(6) 0.3750 -0.1250
Ag1E_2 Ag -0.19948(6) 0.6250 -0.3750
Ag1M Ag 1.30052(6) 0.6250 0.1250
Ag1I Ag 1.30052(6) 0.1250 0.6250
Ag1E_3 Ag -0.19948(6) 0.6250 0.6250
N2O N 1.2589(3) -0.3012(3) 0.04772(13)
H3O H 1.3203(5) -0.4071(4) 0.0030(2)
H2O H 1.1935(5) -0.1767(4) 0.0757(2)
N2I N 1.2589(3) 0.0512(3) -0.29772(13)
H3I H 1.3203(5) 0.1571(4) -0.2530(2)
H2I H 1.1935(5) -0.0733(4) -0.3257(2)
N2X N -0.9911(3) -0.1988(3) 0.29772(13)
N2Z N -0.9911(3) -0.0512(3) 0.45228(13)
N1E_2 N 0.0057(7) -0.3750 0.6250
N2E_2 N -0.2411(3) -0.4488(3) 0.70228(13)
N2DA N -0.9911(3) 0.4488(3) -0.04772(13)
N2BA N -0.9911(3) 0.3012(3) -0.20228(13)
N1M N 1.5057(7) 0.6250 0.1250
N2O_2 N 1.2589(3) 0.6988(3) 0.04772(13)
N1I N 1.5057(7) 0.1250 0.6250
N2I_2 N 1.2589(3) 0.0512(3) 0.70228(13)
Ag1M_2 Ag 1.30052(6) -0.3750 0.1250
Ag1I_2 Ag 1.30052(6) 0.1250 -0.3750
C2X C -1.0324(5) -0.2914(4) 0.2949(2)
C3X C -0.9591(5) -0.1581(4) 0.2528(2)
C2Z C -1.0324(5) 0.0414(4) 0.4551(2)
C3Z C -0.9591(5) -0.0919(4) 0.4972(2)
C2DA C -1.0324(5) 0.5414(4) -0.0449(2)
C3DA C -0.9591(5) 0.4081(4) -0.0028(2)
C2BA C -1.0324(5) 0.2086(4) -0.2051(2)
C3BA C -0.9591(5) 0.3419(4) -0.2472(2)
C1M C 1.5668(5) 0.6248(7) 0.0816(2)
C1O C 1.5668(5) 0.6252(7) 0.1684(2)
C1I C 1.5668(5) 0.1248(7) 0.5816(2)
C1K C 1.5668(5) 0.1252(7) 0.6684(2)
C3L C -1.0409(5) -0.3419(4) 0.2472(2)
H2X H -1.0565(5) -0.3233(4) 0.3257(2)
C2L C -0.9676(5) -0.2086(4) 0.2051(2)
H3X H -0.9297(5) -0.0929(4) 0.2530(2)
C3J C -1.0409(5) 0.0919(4) 0.5028(2)
H2Z H -1.0565(5) 0.0733(4) 0.4243(2)
C2J C -0.9676(5) -0.0414(4) 0.5449(2)
H3Z H -0.9297(5) -0.1571(4) 0.4970(2)
C3N C -1.0409(5) 0.5919(4) 0.0028(2)
H2DA H -1.0565(5) 0.5733(4) -0.0757(2)
C2N C -0.9676(5) 0.4586(4) 0.0449(2)
H3DA H -0.9297(5) 0.3429(4) -0.0030(2)
C3H C -1.0409(5) 0.1581(4) -0.2528(2)
H2BA H -1.0565(5) 0.1767(4) -0.1743(2)
C2H C -0.9676(5) 0.2914(4) -0.2949(2)
H3BA H -0.9297(5) 0.4071(4) -0.2470(2)
C1L C 1.6832(5) 0.6252(7) 0.0816(2)
H1M H 1.5283(5) 0.6243(7) 0.0493(2)
C1N C 1.6832(5) 0.6248(7) 0.1684(2)
H1O H 1.5283(5) 0.6257(7) 0.2007(2)
C1H C 1.6832(5) 0.1252(7) 0.5816(2)
H1I H 1.5283(5) 0.1243(7) 0.5493(2)
C1J C 1.6832(5) 0.1248(7) 0.6684(2)
H1K H 1.5283(5) 0.1257(7) 0.7007(2)
N2L N -1.0089(3) -0.3012(3) 0.20228(13)
H3L H -1.0703(5) -0.4071(4) 0.2470(2)
H2L H -0.9435(5) -0.1767(4) 0.1743(2)
N2J N -1.0089(3) 0.0512(3) 0.54772(13)
H3J H -1.0703(5) 0.1571(4) 0.5030(2)
H2J H -0.9435(5) -0.0733(4) 0.5757(2)
N2N N -1.0089(3) 0.5512(3) 0.04772(13)
H3N H -1.0703(5) 0.6571(4) 0.0030(2)
H2N H -0.9435(5) 0.4267(4) 0.0757(2)
N2H N -1.0089(3) 0.1988(3) -0.29772(13)
H3H H -1.0703(5) 0.0929(4) -0.2530(2)
H2H H -0.9435(5) 0.3233(4) -0.3257(2)
N1L N 1.7443(7) 0.6250 0.1250
H1L H 1.7217(5) 0.6257(7) 0.0493(2)
H1N H 1.7217(5) 0.6243(7) 0.2007(2)
N1H N 1.7443(7) 0.1250 0.6250
H1H H 1.7217(5) 0.1257(7) 0.5493(2)
H1J H 1.7217(5) 0.1243(7) 0.7007(2)
Ag1L Ag -1.05052(6) -0.3750 0.1250
Ag1H Ag -1.05052(6) 0.1250 0.6250
Ag1L_2 Ag -1.05052(6) 0.6250 0.1250
Ag1H_2 Ag -1.05052(6) 0.1250 -0.3750
Ag1L_3 Ag 1.94948(6) 0.6250 0.1250
Ag1H_3 Ag 1.94948(6) 0.1250 0.6250
N1L_2 N -1.2557(7) -0.3750 0.1250
N2N_2 N -1.0089(3) -0.4488(3) 0.04772(13)
N1H_2 N -1.2557(7) 0.1250 0.6250
N2H_2 N -1.0089(3) 0.1988(3) 0.70228(13)
B1 B 0.3750 0.3750 0.0709(4)
F1 F 0.422(2) 0.2957(10) 0.0560(9)
F2 F 0.271(2) 0.386(3) 0.0740(10)
F3 F 0.423(2) 0.4462(9) 0.0370(5)
F4 F 0.410(3) 0.371(3) 0.1170(4)
F1M F 0.328(2) 0.4543(10) 0.0560(9)
F2M F 0.479(2) 0.364(3) 0.0740(10)
F3M F 0.327(2) 0.3038(9) 0.0370(5)
F4M F 0.340(3) 0.379(3) 0.1170(4)
loop_
_geom_bond_atom_site_label_1
_geom_bond_atom_site_label_2
_geom_bond_site_symmetry_1
_geom_bond_site_symmetry_2
Ag1 N1 1_555 1_555
N1 C1 1_555 1_555
N2 Ag1 1_555 1_555
C1 H1 1_555 1_555
C2 N2 1_555 1_555
C3 N2 1_555 1_555
B1 F1 1_555 1_555
F1 F2M 1_555 1_555
F2 B1 1_555 1_555
F3 B1 1_555 1_555
F4 B1 1_555 1_555
H2 C2 1_555 1_555
H3 C3 1_555 1_555
N2B Ag1 1_555 1_555
C1B N1 1_555 1_555
C1A C1 1_555 1_555
C3T C2 1_555 1_555
C2T C3 1_555 1_555
C2B N2B 1_555 1_555
C3B N2B 1_555 1_555
C1C C1B 1_555 1_555
H1B C1B 1_555 1_555
N1A C1A 1_555 1_555
H1A C1A 1_555 1_555
N2T C3T 1_555 1_555
H3T C3T 1_555 1_555
H2T C2T 1_555 1_555
C3R C2B 1_555 1_555
H2B C2B 1_555 1_555
C2R C3B 1_555 1_555
H3B C3B 1_555 1_555
H1C C1C 1_555 1_555
Ag1A N1A 1_555 1_555
Ag1T N2T 1_555 1_555
N2R C3R 1_555 1_555
H3R C3R 1_555 1_555
H2R C2R 1_555 1_555
N2A Ag1A 1_555 1_555
N2C Ag1A 1_555 1_555
N1T Ag1T 1_555 1_555
N2V Ag1T 1_555 1_555
Ag1P N2R 1_555 1_555
C2A N2A 1_555 1_555
C3A N2A 1_555 1_555
C2C N2C 1_555 1_555
C3C N2C 1_555 1_555
C1V N1T 1_555 1_555
C1T N1T 1_555 1_555
C2V N2V 1_555 1_555
C3V N2V 1_555 1_555
N1P Ag1P 1_555 1_555
N2P Ag1P 1_555 1_555
C3Y C2A 1_555 1_555
H2A C2A 1_555 1_555
C2Y C3A 1_555 1_555
H3A C3A 1_555 1_555
C3EA C2C 1_555 1_555
H2C C2C 1_555 1_555
C2EA C3C 1_555 1_555
H3C C3C 1_555 1_555
C1W C1V 1_555 1_555
H1V C1V 1_555 1_555
C1U C1T 1_555 1_555
H1T C1T 1_555 1_555
C3F C2V 1_555 1_555
H2V C2V 1_555 1_555
C2F C3V 1_555 1_555
H3V C3V 1_555 1_555
C1P N1P 1_555 1_555
C1R N1P 1_555 1_555
C2P N2P 1_555 1_555
C3P N2P 1_555 1_555
N2Y C3Y 1_555 1_555
H3Y C3Y 1_555 1_555
H2Y C2Y 1_555 1_555
N2EA C3EA 1_555 1_555
H3EA C3EA 1_555 1_555
H2EA C2EA 1_555 1_555
N1U C1W 1_555 1_555
H1W C1W 1_555 1_555
H1U C1U 1_555 1_555
N2F C3F 1_555 1_555
H3F C3F 1_555 1_555
H2F C2F 1_555 1_555
C1Q C1P 1_555 1_555
H1P C1P 1_555 1_555
C1S C1R 1_555 1_555
H1R C1R 1_555 1_555
C3D C2P 1_555 1_555
H2P C2P 1_555 1_555
C2D C3P 1_555 1_555
H3P C3P 1_555 1_555
Ag1Y N2Y 1_555 1_555
Ag1CA N2EA 1_555 1_555
Ag1U N1U 1_555 1_555
Ag1D N2F 1_555 1_555
N1Q C1Q 1_555 1_555
H1Q C1Q 1_555 1_555
H1S C1S 1_555 1_555
N2D C3D 1_555 1_555
H3D C3D 1_555 1_555
H2D C2D 1_555 1_555
N1Y Ag1Y 1_555 1_555
N2AA Ag1Y 1_555 1_555
N1CA Ag1CA 1_555 1_555
N2CA Ag1CA 1_555 1_555
N2U Ag1U 1_555 1_555
N2W Ag1U 1_555 1_555
N1D Ag1D 1_555 1_555
N2D_2 Ag1D 1_555 1_555
Ag1Q N1Q 1_555 1_555
Ag1D_2 N2D 1_555 1_555
C1AA N1Y 1_555 1_555
C1Y N1Y 1_555 1_555
C2AA N2AA 1_555 1_555
C3AA N2AA 1_555 1_555
C1CA N1CA 1_555 1_555
C1EA N1CA 1_555 1_555
C2CA N2CA 1_555 1_555
C3CA N2CA 1_555 1_555
C2U N2U 1_555 1_555
C3U N2U 1_555 1_555
C2W N2W 1_555 1_555
C3W N2W 1_555 1_555
C1D N1D 1_555 1_555
C1F N1D 1_555 1_555
N2S Ag1Q 1_555 1_555
N2Q Ag1Q 1_555 1_555
C1Z C1AA 1_555 1_555
H1AA C1AA 1_555 1_555
C1X C1Y 1_555 1_555
H1Y C1Y 1_555 1_555
C3G C2AA 1_555 1_555
H2AA C2AA 1_555 1_555
C2G C3AA 1_555 1_555
H3AA C3AA 1_555 1_555
C1BA C1CA 1_555 1_555
H1CA C1CA 1_555 1_555
C1DA C1EA 1_555 1_555
H1EA C1EA 1_555 1_555
C3E C2CA 1_555 1_555
H2CA C2CA 1_555 1_555
C2E C3CA 1_555 1_555
H3CA C3CA 1_555 1_555
C3M C2U 1_555 1_555
H2U C2U 1_555 1_555
C2M C3U 1_555 1_555
H3U C3U 1_555 1_555
C3K C2W 1_555 1_555
H2W C2W 1_555 1_555
C2K C3W 1_555 1_555
H3W C3W 1_555 1_555
C1E C1D 1_555 1_555
H1D C1D 1_555 1_555
C1G C1F 1_555 1_555
H1F C1F 1_555 1_555
C2S N2S 1_555 1_555
C3S N2S 1_555 1_555
C2Q N2Q 1_555 1_555
C3Q N2Q 1_555 1_555
N1X C1Z 1_555 1_555
H1Z C1Z 1_555 1_555
H1X C1X 1_555 1_555
N2G C3G 1_555 1_555
H3G C3G 1_555 1_555
H2G C2G 1_555 1_555
N1BA C1BA 1_555 1_555
H1BA C1BA 1_555 1_555
H1DA C1DA 1_555 1_555
N2E C3E 1_555 1_555
H3E C3E 1_555 1_555
H2E C2E 1_555 1_555
N2M C3M 1_555 1_555
H3M C3M 1_555 1_555
H2M C2M 1_555 1_555
N2K C3K 1_555 1_555
H3K C3K 1_555 1_555
H2K C2K 1_555 1_555
N1E C1E 1_555 1_555
H1E C1E 1_555 1_555
H1G C1G 1_555 1_555
C3O C2S 1_555 1_555
H2S C2S 1_555 1_555
C2O C3S 1_555 1_555
H3S C3S 1_555 1_555
C3I C2Q 1_555 1_555
H2Q C2Q 1_555 1_555
C2I C3Q 1_555 1_555
H3Q C3Q 1_555 1_555
Ag1X N1X 1_555 1_555
Ag1E N2G 1_555 1_555
Ag1BA N1BA 1_555 1_555
Ag1E_2 N2E 1_555 1_555
Ag1M N2M 1_555 1_555
Ag1I N2K 1_555 1_555
Ag1E_3 N1E 1_555 1_555
N2O C3O 1_555 1_555
H3O C3O 1_555 1_555
H2O C2O 1_555 1_555
N2I C3I 1_555 1_555
H3I C3I 1_555 1_555
H2I C2I 1_555 1_555
N2X Ag1X 1_555 1_555
N2Z Ag1X 1_555 1_555
N1E_2 Ag1E 1_555 1_555
N2E_2 Ag1E 1_555 1_555
N2DA Ag1BA 1_555 1_555
N2BA Ag1BA 1_555 1_555
N1M Ag1M 1_555 1_555
N2O_2 Ag1M 1_555 1_555
N1I Ag1I 1_555 1_555
N2I_2 Ag1I 1_555 1_555
Ag1M_2 N2O 1_555 1_555
Ag1I_2 N2I 1_555 1_555
C2X N2X 1_555 1_555
C3X N2X 1_555 1_555
C2Z N2Z 1_555 1_555
C3Z N2Z 1_555 1_555
C2DA N2DA 1_555 1_555
C3DA N2DA 1_555 1_555
C2BA N2BA 1_555 1_555
C3BA N2BA 1_555 1_555
C1M N1M 1_555 1_555
C1O N1M 1_555 1_555
C1I N1I 1_555 1_555
C1K N1I 1_555 1_555
C3L C2X 1_555 1_555
H2X C2X 1_555 1_555
C2L C3X 1_555 1_555
H3X C3X 1_555 1_555
C3J C2Z 1_555 1_555
H2Z C2Z 1_555 1_555
C2J C3Z 1_555 1_555
H3Z C3Z 1_555 1_555
C3N C2DA 1_555 1_555
H2DA C2DA 1_555 1_555
C2N C3DA 1_555 1_555
H3DA C3DA 1_555 1_555
C3H C2BA 1_555 1_555
H2BA C2BA 1_555 1_555
C2H C3BA 1_555 1_555
H3BA C3BA 1_555 1_555
C1L C1M 1_555 1_555
H1M C1M 1_555 1_555
C1N C1O 1_555 1_555
H1O C1O 1_555 1_555
C1H C1I 1_555 1_555
H1I C1I 1_555 1_555
C1J C1K 1_555 1_555
H1K C1K 1_555 1_555
N2L C3L 1_555 1_555
H3L C3L 1_555 1_555
H2L C2L 1_555 1_555
N2J C3J 1_555 1_555
H3J C3J 1_555 1_555
H2J C2J 1_555 1_555
N2N C3N 1_555 1_555
H3N C3N 1_555 1_555
H2N C2N 1_555 1_555
N2H C3H 1_555 1_555
H3H C3H 1_555 1_555
H2H C2H 1_555 1_555
N1L C1L 1_555 1_555
H1L C1L 1_555 1_555
H1N C1N 1_555 1_555
N1H C1H 1_555 1_555
H1H C1H 1_555 1_555
H1J C1J 1_555 1_555
Ag1L N2L 1_555 1_555
Ag1H N2J 1_555 1_555
Ag1L_2 N2N 1_555 1_555
Ag1H_2 N2H 1_555 1_555
Ag1L_3 N1L 1_555 1_555
Ag1H_3 N1H 1_555 1_555
N1L_2 Ag1L 1_555 1_555
N2N_2 Ag1L 1_555 1_555
N1H_2 Ag1H 1_555 1_555
N2H_2 Ag1H 1_555 1_555
F1M B1 1_555 1_555
F2M B1 1_555 1_555
F3M B1 1_555 1_555
F4M B1 1_555 1_555
F1 F3M 1_555 1_555
F2 F1M 1_555 1_555
F2 F3M 1_555 1_555
F2 F4M 1_555 1_555
F3 F1M 1_555 1_555
F3 F2M 1_555 1_555
F4 F2M 1_555 1_555
F4 F4M 1_555 1_555
C2T N2T 1_555 1_555
C1C N1A 1_555 1_555
C2R N2R 1_555 1_555
C2Y N2Y 1_555 1_555
C2EA N2EA 1_555 1_555
C1U N1U 1_555 1_555
C2F N2F 1_555 1_555
C1S N1Q 1_555 1_555
C2D N2D 1_555 1_555
C1X N1X 1_555 1_555
C2G N2G 1_555 1_555
C1DA N1BA 1_555 1_555
C2E N2E 1_555 1_555
C2M N2M 1_555 1_555
C2K N2K 1_555 1_555
C1G N1E 1_555 1_555
C2O N2O 1_555 1_555
C2I N2I 1_555 1_555
C2L N2L 1_555 1_555
C2J N2J 1_555 1_555
C2N N2N 1_555 1_555
C2H N2H 1_555 1_555
C1N N1L 1_555 1_555
C1J N1H 1_555 1_555

#END
