
#######################################################################
#
#                 Cambridge Crystallographic Data Centre
#                                CCDC 
#
#######################################################################
#
# If this CIF has been generated from an entry in the Cambridge 
# Structural Database, then it will include bibliographic, chemical, 
# crystal, experimental, refinement or atomic coordinate data resulting 
# from the CCDC's data processing and validation procedures.
#
#######################################################################

data_YUPDUJ
_symmetry_cell_setting           triclinic
_symmetry_space_group_name_H-M   'P -1'
_symmetry_Int_Tables_number      2
_space_group_name_Hall           '-P 1'
loop_
_symmetry_equiv_pos_site_id
_symmetry_equiv_pos_as_xyz
1 x,y,z
2 -x,-y,-z
_cell_length_a                   7.5107(15)
_cell_length_b                   12.565(3)
_cell_length_c                   18.257(4)
_cell_angle_alpha                70.80(3)
_cell_angle_beta                 79.00(3)
_cell_angle_gamma                76.05(3)
_cell_volume                     1567.39
loop_
_atom_site_label
_atom_site_type_symbol
_atom_site_fract_x
_atom_site_fract_y
_atom_site_fract_z
Gd1 Gd 0.81354(2) 0.541207(14) 0.912479(9)
Gd2 Gd 0.13114(2) 0.736770(14) 0.735360(9)
O1 O 0.6349(3) 0.40216(19) 0.95541(13)
O2 O 0.3320(3) 0.4042(2) 0.97358(13)
O3 O 0.1384(3) 0.54548(19) 0.83193(13)
O4 O 0.0468(3) 0.3798(2) 0.87809(14)
O5 O 0.5229(3) 0.6448(2) 0.87479(14)
O6 O 0.2468(3) 0.7475(2) 0.84576(13)
O7 O 0.8583(3) 0.72921(19) 0.84285(13)
O8 O 0.8378(3) 0.8868(2) 0.74448(14)
O9 O 0.2980(3) 0.5965(2) 0.67051(14)
O10 O 0.4641(3) 0.6994(2) 0.69717(13)
O11 O 0.7899(3) 0.5398(2) 0.78631(13)
O12 O 0.9125(3) 0.6771(2) 0.69092(13)
O13 O 1.0449(3) 0.6077(2) 0.96999(13)
H1 H 0.9780 0.6664 0.9814
H2 H 1.1302 0.6202 0.9319
N1 N 0.6986(5) 0.2566(3) 0.7747(2)
N2 N 0.3155(4) 0.9920(3) 0.93945(18)
N3 N 0.7488(4) 0.4339(3) 0.55246(19)
N4 N 0.1887(4) 0.9451(2) 0.69237(17)
N5 N 0.1694(4) 0.8409(3) 0.58707(17)
C1 C 0.4901(5) 0.3911(3) 0.9362(2)
C2 C 0.5090(5) 0.3554(3) 0.8640(2)
C3 C 0.6774(5) 0.2976(3) 0.8368(2)
H3 H 0.7798 0.2863 0.8621
C4 C 0.5502(5) 0.2752(3) 0.7362(2)
H4 H 0.5632 0.2478 0.6936
C5 C 0.3866(5) 0.3323(3) 0.7591(2)
H5 H 0.2877 0.3444 0.7316
C6 C 0.3593(5) 0.3744(3) 0.8231(2)
C7 C 0.1701(5) 0.4370(3) 0.8462(2)
C8 C 0.4052(5) 0.7342(3) 0.86623(19)
C9 C 0.4437(5) 0.8369(3) 0.8824(2)
C10 C 0.3031(5) 0.8951(3) 0.9252(2)
H6 H 0.1954 0.8657 0.9448
C11 C 0.4670(5) 1.0359(3) 0.9078(2)
H7 H 0.4753 1.1042 0.9154
C12 C 0.6102(5) 0.9851(3) 0.8649(2)
H8 H 0.7130 1.0191 0.8436
C13 C 0.6033(5) 0.8825(3) 0.8529(2)
C14 C 0.7731(5) 0.8299(3) 0.8093(2)
C15 C 0.4519(5) 0.6204(3) 0.6708(2)
C16 C 0.6218(5) 0.5528(3) 0.63737(19)
C17 C 0.6059(5) 0.4986(3) 0.5844(2)
H9 H 0.4894 0.5077 0.5702
C18 C 0.9154(5) 0.4226(3) 0.5742(2)
H10 H 1.0160 0.3760 0.5546
C19 C 0.9440(5) 0.4762(3) 0.6236(2)
H11 H 1.0630 0.4683 0.6349
C20 C 0.7962(5) 0.5426(3) 0.6573(2)
C21 C 0.8324(4) 0.5928(3) 0.7163(2)
C22 C 0.1816(5) 1.0003(3) 0.7438(2)
H12 H 0.1469 0.9645 0.7963
C23 C 0.2238(6) 1.1098(3) 0.7230(2)
H13 H 0.2191 1.1449 0.7611
C24 C 0.2719(5) 1.1646(3) 0.6462(2)
H14 H 0.3044 1.2362 0.6316
C25 C 0.2718(5) 1.1117(3) 0.5897(2)
C26 C 0.3099(5) 1.1657(3) 0.5073(2)
H15 H 0.3396 1.2384 0.4901
C27 C 0.3034(5) 1.1136(3) 0.4547(2)
H16 H 0.3301 1.1501 0.4017
C28 C 0.2556(5) 1.0022(3) 0.4794(2)
C29 C 0.2425(5) 0.9449(3) 0.4262(2)
H17 H 0.2649 0.9792 0.3727
C30 C 0.1965(5) 0.8388(3) 0.4541(2)
H18 H 0.1895 0.7996 0.4199
C31 C 0.1599(5) 0.7898(3) 0.5350(2)
H19 H 0.1273 0.7179 0.5532
C32 C 0.2181(5) 0.9455(3) 0.5593(2)
C33 C 0.2282(5) 1.0010(3) 0.6150(2)
Gd1A Gd 0.18646(2) 0.458793(14) 1.087521(9)
Gd1_2 Gd -0.18646(2) 0.541207(14) 0.912479(9)
Gd1A_2 Gd 1.18646(2) 0.458793(14) 1.087521(9)
Gd2_2 Gd 1.13114(2) 0.736770(14) 0.735360(9)
O2A O 0.6680(3) 0.5958(2) 1.02642(13)
O3_2 O 1.1384(3) 0.54548(19) 0.83193(13)
O4_2 O 1.0468(3) 0.3798(2) 0.87809(14)
O7_2 O -0.1417(3) 0.72921(19) 0.84285(13)
O8_2 O -0.1622(3) 0.8868(2) 0.74448(14)
O12_2 O -0.0875(3) 0.6771(2) 0.69092(13)
O13A O 0.9551(3) 0.3923(2) 1.03001(13)
H1A H 1.0220 0.3336 1.0186
H2A H 0.8698 0.3798 1.0681
O14 O 0.9007(4) 0.8185(3) 0.00548(17)
H20 H 0.9045 0.7696 0.0510
H21 H 0.8438 0.8867 0.0046
loop_
_geom_bond_atom_site_label_1
_geom_bond_atom_site_label_2
_geom_bond_site_symmetry_1
_geom_bond_site_symmetry_2
Gd1 O1 1_555 1_555
Gd2 O3 1_555 1_555
O1 C1 1_555 1_555
O2 C1 1_555 1_555
O3 C7 1_555 1_555
O4 C7 1_555 1_555
O5 Gd1 1_555 1_555
O6 Gd2 1_555 1_555
O7 Gd1 1_555 1_555
O8 C14 1_555 1_555
O9 Gd2 1_555 1_555
O10 Gd2 1_555 1_555
O11 Gd1 1_555 1_555
O12 C21 1_555 1_555
O13 Gd1 1_555 1_555
H1 O13 1_555 1_555
H2 O13 1_555 1_555
N1 C3 1_555 1_555
N2 C10 1_555 1_555
N3 C17 1_555 1_555
N4 Gd2 1_555 1_555
N5 Gd2 1_555 1_555
C1 C2 1_555 1_555
C2 C3 1_555 1_555
C3 H3 1_555 1_555
C4 N1 1_555 1_555
H4 C4 1_555 1_555
C5 C4 1_555 1_555
H5 C5 1_555 1_555
C6 C2 1_555 1_555
C7 C6 1_555 1_555
C8 O5 1_555 1_555
C9 C8 1_555 1_555
C10 C9 1_555 1_555
H6 C10 1_555 1_555
C11 N2 1_555 1_555
H7 C11 1_555 1_555
C12 C11 1_555 1_555
H8 C12 1_555 1_555
C13 C9 1_555 1_555
C14 O7 1_555 1_555
C15 O9 1_555 1_555
C16 C15 1_555 1_555
C17 C16 1_555 1_555
H9 C17 1_555 1_555
C18 N3 1_555 1_555
H10 C18 1_555 1_555
C19 C18 1_555 1_555
H11 C19 1_555 1_555
C20 C16 1_555 1_555
C21 O11 1_555 1_555
C22 N4 1_555 1_555
H12 C22 1_555 1_555
C23 C22 1_555 1_555
H13 C23 1_555 1_555
C24 C23 1_555 1_555
H14 C24 1_555 1_555
C25 C24 1_555 1_555
C26 C25 1_555 1_555
H15 C26 1_555 1_555
C27 C26 1_555 1_555
H16 C27 1_555 1_555
C28 C27 1_555 1_555
C29 C28 1_555 1_555
H17 C29 1_555 1_555
C30 C29 1_555 1_555
H18 C30 1_555 1_555
C31 N5 1_555 1_555
H19 C31 1_555 1_555
C32 N5 1_555 1_555
C33 N4 1_555 1_555
O14 H20 1_555 1_555
H21 O14 1_555 1_555
Gd1A O2 1_555 1_555
Gd1_2 O3 1_555 1_555
Gd1A_2 O13 1_555 1_555
Gd2_2 O7 1_555 1_555
O2A Gd1 1_555 1_555
O3_2 Gd1 1_555 1_555
O4_2 Gd1 1_555 1_555
O7_2 Gd2 1_555 1_555
O8_2 Gd2 1_555 1_555
O12_2 Gd2 1_555 1_555
O13A Gd1 1_555 1_555
H1A O13A 1_555 1_555
H2A O13A 1_555 1_555
O4 Gd1_2 1_555 1_555
O6 C8 1_555 1_555
O8 Gd2_2 1_555 1_555
O10 C15 1_555 1_555
O12 Gd2_2 1_555 1_555
C5 C6 1_555 1_555
C12 C13 1_555 1_555
C13 C14 1_555 1_555
C19 C20 1_555 1_555
C20 C21 1_555 1_555
C25 C33 1_555 1_555
C28 C32 1_555 1_555
C30 C31 1_555 1_555
C32 C33 1_555 1_555
Gd1_2 O7_2 1_555 1_555
Gd1A_2 O13A 1_555 1_555
Gd2_2 O3_2 1_555 1_555

#END
