
#######################################################################
#
#                 Cambridge Crystallographic Data Centre
#                                CCDC 
#
#######################################################################
#
# If this CIF has been generated from an entry in the Cambridge 
# Structural Database, then it will include bibliographic, chemical, 
# crystal, experimental, refinement or atomic coordinate data resulting 
# from the CCDC's data processing and validation procedures.
#
#######################################################################

data_YUPFUL
_symmetry_cell_setting           triclinic
_symmetry_space_group_name_H-M   'P -1'
_symmetry_Int_Tables_number      2
_space_group_name_Hall           '-P 1'
loop_
_symmetry_equiv_pos_site_id
_symmetry_equiv_pos_as_xyz
1 x,y,z
2 -x,-y,-z
_cell_length_a                   7.5449(15)
_cell_length_b                   12.538(3)
_cell_length_c                   14.058(3)
_cell_angle_alpha                71.03(3)
_cell_angle_beta                 82.83(3)
_cell_angle_gamma                79.12(3)
_cell_volume                     1232.14
loop_
_atom_site_label
_atom_site_type_symbol
_atom_site_fract_x
_atom_site_fract_y
_atom_site_fract_z
Eu1 Eu -0.00244(5) 0.56594(3) 0.17615(3)
N1 N 0.3721(7) 1.1251(5) 0.2280(4)
N2 N 0.2833(7) 1.0885(5) 0.3889(4)
H1 H 0.2563 1.0979 0.4472
N3 N 0.2001(7) 1.1071(4) -0.2583(4)
H2 H 0.1917 1.1517 -0.2221
N4 N 0.2548(8) 1.0464(5) -0.3951(4)
C1 C 0.1614(10) 0.6920(6) 0.4399(5)
C2 C 0.2093(8) 0.8092(5) 0.3720(5)
C3 C 0.2061(9) 0.8895(6) 0.4202(5)
H3 H 0.1651 0.8764 0.4875
C4 C 0.2669(9) 0.9906(6) 0.3635(5)
C5 C 0.3467(9) 1.1627(6) 0.3080(6)
H4 H 0.3710 1.2332 0.3068
C6 C 0.3248(9) 1.0139(5) 0.2612(5)
C7 C 0.3290(8) 0.9326(5) 0.2127(5)
H5 H 0.3688 0.9468 0.1451
C8 C 0.2714(8) 0.8287(5) 0.2687(5)
C9 C 0.2652(9) 0.7431(5) 0.2131(5)
C10 C 0.0500(10) 0.7347(6) -0.0214(5)
C11 C 0.0846(8) 0.8152(5) -0.1249(5)
C12 C 0.1080(9) 0.9256(6) -0.1312(5)
H6 H 0.0884 0.9511 -0.0751
C13 C 0.1626(9) 0.9960(5) -0.2268(5)
C14 C 0.2527(9) 1.1304(6) -0.3580(6)
H7 H 0.2848 1.2004 -0.3971
C15 C 0.1977(9) 0.9597(5) -0.3125(5)
C16 C 0.1729(9) 0.8486(6) -0.3040(5)
H8 H 0.1951 0.8230 -0.3601
C17 C 0.1151(8) 0.7771(5) -0.2115(5)
C18 C 0.0721(9) 0.6628(5) -0.2076(5)
O1 O 0.1150(6) 0.7089(4) 0.2213(3)
O2 O -0.2718(6) 0.6684(4) 0.2408(3)
O3 O 0.4035(6) 0.7149(4) 0.1616(3)
O4 O 0.0444(6) 0.4931(4) 0.3537(3)
O5 O 0.2607(6) 0.6032(4) 0.4264(3)
O6 O 0.3348(6) 0.5005(4) 0.1836(3)
O7 O 0.0304(7) 0.6959(4) 0.5054(4)
O8 O -0.2291(6) 0.5580(4) 0.0662(3)
O9 O -0.0770(6) 0.7620(4) 0.0397(3)
O11 O 0.1532(6) 0.6365(4) 0.0052(3)
O14 O -0.0661(6) 0.6260(4) -0.1516(3)
O15 O 0.1684(6) 0.6077(4) -0.2622(3)
H9 H 0.1165 0.5146 0.3832
H12 H -0.0501 0.5405 0.3340
H13 H -0.2718 0.6446 0.3050
H14 H -0.3599 0.6790 0.2051
H15 H 0.3593 0.4630 0.2434
H17 H -0.1745 0.4933 0.0635
H23 H -0.3310 0.6011 0.0569
H24 H -0.0267 0.6933 0.4585
H25 H 0.2561 0.4997 0.1443
Eu1A Eu 0.00244(5) 0.43406(3) -0.17615(3)
O14A O 0.0661(6) 0.3740(4) 0.1516(3)
O15A O -0.1684(6) 0.3923(4) 0.2622(3)
O10 O 0.3796(6) 0.3911(4) 0.5596(3)
H10 H 0.4801 0.4083 0.5662
H18 H 0.3526 0.4565 0.5173
O12 O 0.5085(6) 0.6391(4) -0.3559(4)
H11 H 0.3984 0.6310 -0.3444
H19 H 0.5377 0.6259 -0.4117
O13 O 0.4775(7) 0.3370(5) 0.0839(4)
H20 H 0.5731 0.3588 0.0523
H21 H 0.4834 0.2816 0.0582
O16 O 0.4328(8) 1.1339(6) 0.0165(5)
H16 H 0.3607 1.1486 -0.0296
H22 H 0.4222 1.1890 0.0406
loop_
_geom_bond_atom_site_label_1
_geom_bond_atom_site_label_2
_geom_bond_site_symmetry_1
_geom_bond_site_symmetry_2
Eu1 O1 1_555 1_555
N1 C5 1_555 1_555
N2 H1 1_555 1_555
N3 H2 1_555 1_555
N4 C14 1_555 1_555
C1 C2 1_555 1_555
C2 C3 1_555 1_555
C3 H3 1_555 1_555
C4 N2 1_555 1_555
C5 N2 1_555 1_555
H4 C5 1_555 1_555
C6 N1 1_555 1_555
C7 C6 1_555 1_555
H5 C7 1_555 1_555
C8 C2 1_555 1_555
C9 C8 1_555 1_555
C10 C11 1_555 1_555
C11 C12 1_555 1_555
C12 H6 1_555 1_555
C13 N3 1_555 1_555
C14 N3 1_555 1_555
H7 C14 1_555 1_555
C15 N4 1_555 1_555
C16 C15 1_555 1_555
H8 C16 1_555 1_555
C17 C11 1_555 1_555
C18 C17 1_555 1_555
O1 C9 1_555 1_555
O2 Eu1 1_555 1_555
O3 C9 1_555 1_555
O4 Eu1 1_555 1_555
O5 C1 1_555 1_555
O6 Eu1 1_555 1_555
O7 C1 1_555 1_555
O8 Eu1 1_555 1_555
O9 Eu1 1_555 1_555
O10 H10 1_555 1_555
O11 Eu1 1_555 1_555
O12 H11 1_555 1_555
O13 H20 1_555 1_555
O14 C18 1_555 1_555
O15 C18 1_555 1_555
O16 H16 1_555 1_555
H9 O4 1_555 1_555
H12 O4 1_555 1_555
H13 O2 1_555 1_555
H14 O2 1_555 1_555
H15 O6 1_555 1_555
H17 O8 1_555 1_555
H18 O10 1_555 1_555
H19 O12 1_555 1_555
H21 O13 1_555 1_555
H22 O16 1_555 1_555
H23 O8 1_555 1_555
H24 O7 1_555 1_555
H25 O6 1_555 1_555
Eu1A O14 1_555 1_555
O14A Eu1 1_555 1_555
O15A Eu1 1_555 1_555
C3 C4 1_555 1_555
C4 C6 1_555 1_555
C7 C8 1_555 1_555
C10 O9 1_555 1_555
C10 O11 1_555 1_555
C12 C13 1_555 1_555
C13 C15 1_555 1_555
C16 C17 1_555 1_555
O15 Eu1A 1_555 1_555

#END
