
#######################################################################
#
#                 Cambridge Crystallographic Data Centre
#                                CCDC 
#
#######################################################################
#
# If this CIF has been generated from an entry in the Cambridge 
# Structural Database, then it will include bibliographic, chemical, 
# crystal, experimental, refinement or atomic coordinate data resulting 
# from the CCDC's data processing and validation procedures.
#
#######################################################################

data_YUPFEW
_symmetry_cell_setting           orthorhombic
_symmetry_space_group_name_H-M   'P b c n'
_symmetry_Int_Tables_number      60
_space_group_name_Hall           '-P 2n 2ab'
loop_
_symmetry_equiv_pos_site_id
_symmetry_equiv_pos_as_xyz
1 x,y,z
2 1/2-x,1/2-y,1/2+z
3 -x,y,1/2-z
4 1/2+x,1/2-y,-z
5 -x,-y,-z
6 1/2+x,1/2+y,1/2-z
7 x,-y,1/2+z
8 1/2-x,1/2+y,z
_cell_length_a                   25.9109(10)
_cell_length_b                   18.3337(7)
_cell_length_c                   14.7137(5)
_cell_angle_alpha                90
_cell_angle_beta                 90
_cell_angle_gamma                90
_cell_volume                     6989.64
loop_
_atom_site_label
_atom_site_type_symbol
_atom_site_fract_x
_atom_site_fract_y
_atom_site_fract_z
Zn1 Zn 0.29026(3) 0.72869(4) -0.10359(6)
N1 N 0.2430(2) 0.7833(3) -0.0184(4)
N2 N -0.1577(2) 1.1747(3) 0.5272(4)
N3 N 0.1273(2) 1.0024(3) 0.2522(4)
N4 N 0.0532(2) 1.0751(3) 0.3385(4)
H1 H 0.0554 1.0273 0.3350
N5 N 0.0061(2) 0.9444(3) 0.3735(4)
N6 N 0.0815(2) 0.8731(3) 0.2878(4)
H2 H 0.0830 0.9201 0.3000
O1 O 0.1813(2) 0.3018(3) -0.1867(3)
O2 O 0.1485(2) 0.3650(3) -0.0729(4)
O3 O 0.25757(19) 0.6604(3) -0.1880(3)
O4 O 0.2239(2) 0.6139(3) -0.0625(4)
C1 C 0.2278(3) 0.8515(4) -0.0302(5)
H3 H 0.2384 0.8765 -0.0837
C2 C 0.1973(3) 0.8879(4) 0.0314(5)
H4 H 0.1880 0.9371 0.0202
C3 C 0.1801(3) 0.8538(4) 0.1098(5)
C4 C 0.1956(3) 0.7820(4) 0.1203(5)
H5 H 0.1846 0.7552 0.1721
C5 C 0.2266(3) 0.7490(4) 0.0567(5)
H6 H 0.2369 0.6998 0.0663
C6 C 0.1479(3) 0.8897(4) 0.1780(5)
C7 C 0.1539(3) 0.9646(4) 0.1922(5)
H7 H 0.1786 0.9897 0.1564
C8 C 0.1355(3) 1.0763(4) 0.2665(5)
C9 C 0.1798(3) 1.1138(4) 0.2415(5)
H8 H 0.2072 1.0882 0.2128
C10 C 0.1846(3) 1.1879(5) 0.2578(6)
H9 H 0.2146 1.2131 0.2381
C11 C 0.1463(3) 1.2247(5) 0.3021(6)
H10 H 0.1496 1.2754 0.3138
C12 C 0.1028(3) 1.1873(4) 0.3297(5)
H11 H 0.0766 1.2130 0.3616
C13 C 0.0961(3) 1.1147(4) 0.3128(5)
C14 C 0.0092(3) 1.1023(4) 0.3678(5)
H12 H 0.0057 1.1539 0.3678
C15 C -0.0329(3) 1.0609(4) 0.3992(5)
C16 C -0.0769(3) 1.0999(4) 0.4380(5)
C17 C -0.0865(3) 1.1732(4) 0.4235(5)
H13 H -0.0659 1.1997 0.3815
C18 C -0.1255(3) 1.2081(4) 0.4690(5)
H14 H -0.1301 1.2588 0.4587
C19 C -0.1494(3) 1.1036(4) 0.5399(5)
H15 H -0.1715 1.0779 0.5804
C20 C -0.1110(3) 1.0659(4) 0.4980(5)
H16 H -0.1073 1.0152 0.5099
C21 C -0.0323(3) 0.9842(4) 0.3997(5)
H17 H -0.0624 0.9599 0.4208
C22 C 0.0056(3) 0.8673(4) 0.3800(5)
C23 C -0.0305(3) 0.8278(4) 0.4303(5)
H18 H -0.0575 0.8524 0.4615
C24 C -0.0267(3) 0.7525(5) 0.4343(6)
H19 H -0.0520 0.7254 0.4666
C25 C 0.0129(3) 0.7170(4) 0.3925(6)
H20 H 0.0155 0.6654 0.3968
C26 C 0.0487(3) 0.7553(4) 0.3446(6)
H21 H 0.0764 0.7301 0.3165
C27 C 0.0453(3) 0.8303(4) 0.3361(5)
C28 C 0.1129(3) 0.8475(4) 0.2263(5)
H22 H 0.1117 0.7967 0.2137
C29 C 0.1922(3) 0.4932(4) -0.3428(6)
H23 H 0.1906 0.4949 -0.4073
C30 C 0.2089(3) 0.5537(4) -0.2944(5)
H24 H 0.2200 0.5961 -0.3260
C31 C 0.2093(3) 0.5525(4) -0.2004(5)
C32 C 0.1923(3) 0.4908(4) -0.1562(5)
H25 H 0.1906 0.4908 -0.0917
C33 C 0.1776(3) 0.4287(4) -0.2033(5)
C34 C 0.1780(3) 0.4302(4) -0.2974(6)
H26 H 0.1686 0.3879 -0.3308
C35 C 0.2311(3) 0.6132(4) -0.1452(6)
C36 C 0.1671(3) 0.3603(4) -0.1509(6)
Zn1E Zn -0.20974(3) 1.22869(4) 0.60359(6)
Zn1G Zn 0.20974(3) 0.22869(4) -0.10359(6)
N2E N 0.3423(2) 0.6747(3) -0.0272(4)
O1G O 0.3187(2) 0.8018(3) -0.1867(3)
O5 O 0.0723(6) 0.4707(8) -0.0346(14)
O6 O 0.0000 0.2684(6) 0.2500
O7 O 0.3873(4) 0.1193(6) 0.9740(7)
O8 O 0.0721(5) 0.3780(7) 0.2924(11)
C37 C 0.0673(7) 0.4401(11) 0.2608(14)
N7 N 0.0603(6) 0.4527(9) 0.1769(13)
C38 C 0.0509(9) 0.5282(13) 0.1523(18)
H27 H 0.0462 0.5319 0.0864
H28 H 0.0805 0.5581 0.1707
H29 H 0.0198 0.5457 0.1832
C39 C 0.0555(13) 0.3921(15) 0.111(2)
H30 H 0.0505 0.4121 0.0496
H31 H 0.0258 0.3616 0.1269
H32 H 0.0870 0.3625 0.1119
loop_
_geom_bond_atom_site_label_1
_geom_bond_atom_site_label_2
_geom_bond_site_symmetry_1
_geom_bond_site_symmetry_2
Zn1 N1 1_555 1_555
N1 C1 1_555 1_555
N2 C18 1_555 1_555
N3 C7 1_555 1_555
N4 H1 1_555 1_555
N5 C21 1_555 1_555
N6 H2 1_555 1_555
O1 C36 1_555 1_555
O2 C36 1_555 1_555
O3 Zn1 1_555 1_555
O4 C35 1_555 1_555
C1 H3 1_555 1_555
C2 C1 1_555 1_555
H4 C2 1_555 1_555
C3 C2 1_555 1_555
C4 C3 1_555 1_555
H5 C4 1_555 1_555
C5 N1 1_555 1_555
H6 C5 1_555 1_555
C6 C3 1_555 1_555
C7 C6 1_555 1_555
H7 C7 1_555 1_555
C8 N3 1_555 1_555
C9 C8 1_555 1_555
H8 C9 1_555 1_555
C10 C9 1_555 1_555
H9 C10 1_555 1_555
C11 C10 1_555 1_555
H10 C11 1_555 1_555
C12 C11 1_555 1_555
H11 C12 1_555 1_555
C13 N4 1_555 1_555
C14 N4 1_555 1_555
H12 C14 1_555 1_555
C15 C14 1_555 1_555
C16 C15 1_555 1_555
C17 C16 1_555 1_555
H13 C17 1_555 1_555
C18 C17 1_555 1_555
H14 C18 1_555 1_555
C19 N2 1_555 1_555
H15 C19 1_555 1_555
C20 C16 1_555 1_555
H16 C20 1_555 1_555
C21 C15 1_555 1_555
H17 C21 1_555 1_555
C22 N5 1_555 1_555
C23 C22 1_555 1_555
H18 C23 1_555 1_555
C24 C23 1_555 1_555
H19 C24 1_555 1_555
C25 C24 1_555 1_555
H20 C25 1_555 1_555
C26 C25 1_555 1_555
H21 C26 1_555 1_555
C27 N6 1_555 1_555
C28 N6 1_555 1_555
H22 C28 1_555 1_555
C29 H23 1_555 1_555
C30 C29 1_555 1_555
H24 C30 1_555 1_555
C31 C30 1_555 1_555
C32 C31 1_555 1_555
H25 C32 1_555 1_555
C33 C32 1_555 1_555
C34 C29 1_555 1_555
H26 C34 1_555 1_555
C35 O3 1_555 1_555
C36 C33 1_555 1_555
O8 C37 1_555 1_555
C37 N7 1_555 1_555
N7 C38 1_555 1_555
C38 H27 1_555 1_555
H28 C38 1_555 1_555
H29 C38 1_555 1_555
C39 N7 1_555 1_555
H30 C39 1_555 1_555
H31 C39 1_555 1_555
H32 C39 1_555 1_555
Zn1E N2 1_555 1_555
Zn1G O1 1_555 1_555
N2E Zn1 1_555 1_555
O1G Zn1 1_555 1_555
C4 C5 1_555 1_555
C6 C28 1_555 1_555
C8 C13 1_555 1_555
C12 C13 1_555 1_555
C19 C20 1_555 1_555
C22 C27 1_555 1_555
C26 C27 1_555 1_555
C31 C35 1_555 1_555
C33 C34 1_555 1_555

#END
