
#######################################################################
#
#                 Cambridge Crystallographic Data Centre
#                                CCDC 
#
#######################################################################
#
# If this CIF has been generated from an entry in the Cambridge 
# Structural Database, then it will include bibliographic, chemical, 
# crystal, experimental, refinement or atomic coordinate data resulting 
# from the CCDC's data processing and validation procedures.
#
#######################################################################

data_YUPFEV
_symmetry_cell_setting           tetragonal
_symmetry_space_group_name_H-M   'P 43 21 2'
_symmetry_Int_Tables_number      96
_space_group_name_Hall           'P 4nw 2abw'
loop_
_symmetry_equiv_pos_site_id
_symmetry_equiv_pos_as_xyz
1 x,y,z
2 -x,-y,1/2+z
3 1/2-y,1/2+x,3/4+z
4 1/2+y,1/2-x,1/4+z
5 1/2-x,1/2+y,3/4-z
6 1/2+x,1/2-y,1/4-z
7 y,x,-z
8 -y,-x,1/2-z
_cell_length_a                   16.0648(11)
_cell_length_b                   16.0648(11)
_cell_length_c                   21.030(3)
_cell_angle_alpha                90
_cell_angle_beta                 90
_cell_angle_gamma                90
_cell_volume                     5427.38
loop_
_atom_site_label
_atom_site_type_symbol
_atom_site_fract_x
_atom_site_fract_y
_atom_site_fract_z
C1 C 0.50435(19) 0.40814(19) 0.01517(15)
H1 H 0.5180 0.3535 0.0254
C2 C 0.5662(2) 0.46666(19) 0.01648(16)
H2 H 0.6199 0.4518 0.0284
C3 C 0.54826(18) 0.54826(18) 0.0000
C4 C 0.61403(18) 0.61403(18) 0.0000
C5 C 0.59645(19) 0.69592(18) 0.01106(17)
H3 H 0.5417 0.7119 0.0185
C6 C 0.6591(2) 0.75593(19) 0.01138(16)
H4 H 0.6447 0.8109 0.0200
C7 C 0.9576(2) 0.9564(2) 0.05364(17)
H5 H 0.9380 0.9355 0.0920
C8 C 1.0180(2) 1.0174(2) 0.05587(15)
H6 H 1.0374 1.0367 0.0949
C9 C 1.04975(18) 1.04975(18) 0.0000
C10 C 1.11428(18) 1.11428(18) 0.0000
C11 C 1.14263(19) 1.1528(2) 0.05533(14)
H7 H 1.1192 1.1383 0.0942
C12 C 1.2035(2) 1.2108(2) 0.05344(15)
H8 H 1.2222 1.2327 0.0918
C13 C 0.9190(2) 0.7201(2) 0.09696(17)
C14 C 0.9252(2) 0.6920(2) 0.16474(17)
C15 C 0.9826(2) 0.6289(2) 0.18000(18)
H9 H 1.0132 0.6043 0.1475
C16 C 0.9951(2) 0.6023(2) 0.24208(19)
H10 H 1.0323 0.5596 0.2509
C17 C 0.9513(2) 0.6403(3) 0.29045(18)
H11 H 0.9604 0.6230 0.3321
C18 C 0.8944(2) 0.7029(2) 0.27942(18)
H12 H 0.8666 0.7288 0.3128
C19 C 0.8797(2) 0.7270(2) 0.21454(16)
C20 C 0.7617(2) 0.8272(2) 0.23934(17)
C21 C 0.6931(2) 0.8712(2) 0.20488(18)
H13 H 0.6409 0.8449 0.2146
H14 H 0.7030 0.8684 0.1599
H15 H 0.6914 0.9283 0.2181
C22 C 0.34628(18) 0.3538(2) 0.14399(15)
C23 C 0.3745(2) 0.3275(2) 0.20949(16)
C24 C 0.3392(2) 0.3664(2) 0.26111(15)
H16 H 0.3005 0.4085 0.2540
C25 C 0.3588(2) 0.3455(2) 0.32343(16)
H17 H 0.3337 0.3723 0.3576
C26 C 0.4164(2) 0.2842(2) 0.33287(17)
H18 H 0.4309 0.2698 0.3742
C27 C 0.4531(2) 0.2437(3) 0.28362(18)
H19 H 0.4917 0.2019 0.2919
C28 C 0.4339(2) 0.2637(2) 0.22144(15)
C29 C 0.5296(2) 0.1612(2) 0.16871(18)
C30 C 0.5432(3) 0.1203(3) 0.10507(19)
H20 H 0.5906 0.1450 0.0846
H21 H 0.4948 0.1281 0.0790
H22 H 0.5529 0.0619 0.1111
Co1 Co 0.83339(3) 0.83339(3) 0.0000
Co2 Co 0.33098(2) 0.33098(2) 0.0000
N1 N 0.42537(16) 0.42537(16) 0.0000
N2 N 0.73819(16) 0.73819(16) 0.0000
N3 N 0.92546(16) 0.92546(16) 0.0000
N4 N 1.23824(15) 1.23824(15) 0.0000
N5 N 0.46858(18) 0.22044(17) 0.16884(13)
H23 H 0.4485 0.2332 0.1322
N6 N 0.81637(19) 0.78608(19) 0.20101(14)
H24 H 0.8117 0.7981 0.1613
O1 O 0.75434(14) 0.92042(14) 0.05219(11)
H25 H 0.7783 0.9625 0.0651
H26 H 0.7309 0.9334 0.0173
O2 O 0.23861(14) 0.41991(15) 0.02594(10)
H27 H 0.1875 0.4141 0.0261
H28 H 0.2577 0.4220 0.0624
O3 O 0.57159(15) 0.14263(16) 0.21627(12)
O4 O 0.77093(17) 0.82972(17) 0.29736(12)
O5 O 0.36141(13) 0.30894(13) 0.09707(9)
O6 O 0.30686(16) 0.42170(16) 0.14048(11)
O7 O 0.96043(18) 0.68269(17) 0.05651(13)
O8 O 0.87274(15) 0.78182(14) 0.08403(10)
C1F C 0.40814(19) 0.50435(19) -0.01517(15)
H1F H 0.3535 0.5180 -0.0254
C2F C 0.46666(19) 0.5662(2) -0.01648(16)
H2F H 0.4518 0.6199 -0.0284
C5F C 0.69592(18) 0.59645(19) -0.01106(17)
H3F H 0.7119 0.5417 -0.0185
C6F C 0.75593(19) 0.6591(2) -0.01138(16)
H4F H 0.8109 0.6447 -0.0200
C7F C 0.9564(2) 0.9576(2) -0.05364(17)
H5F H 0.9355 0.9380 -0.0920
C8F C 1.0174(2) 1.0180(2) -0.05587(15)
H6F H 1.0367 1.0374 -0.0949
C11F C 1.1528(2) 1.14263(19) -0.05533(14)
H7F H 1.1383 1.1192 -0.0942
C12F C 1.2108(2) 1.2035(2) -0.05344(15)
H8F H 1.2327 1.2222 -0.0918
C13F C 0.7201(2) 0.9190(2) -0.09696(17)
C14F C 0.6920(2) 0.9252(2) -0.16474(17)
C15F C 0.6289(2) 0.9826(2) -0.18000(18)
H9F H 0.6043 1.0132 -0.1475
C16F C 0.6023(2) 0.9951(2) -0.24208(19)
H10F H 0.5596 1.0323 -0.2509
C17F C 0.6403(3) 0.9513(2) -0.29045(18)
H11F H 0.6230 0.9604 -0.3321
C18F C 0.7029(2) 0.8944(2) -0.27942(18)
H12F H 0.7288 0.8666 -0.3128
C19F C 0.7270(2) 0.8797(2) -0.21454(16)
C20F C 0.8272(2) 0.7617(2) -0.23934(17)
C21F C 0.8712(2) 0.6931(2) -0.20488(18)
H13F H 0.8449 0.6409 -0.2146
H14F H 0.8684 0.7030 -0.1599
H15F H 0.9283 0.6914 -0.2181
C22F C 0.3538(2) 0.34628(18) -0.14399(15)
C23F C 0.3275(2) 0.3745(2) -0.20949(16)
C24F C 0.3664(2) 0.3392(2) -0.26111(15)
H16F H 0.4085 0.3005 -0.2540
C25F C 0.3455(2) 0.3588(2) -0.32343(16)
H17F H 0.3723 0.3337 -0.3576
C26F C 0.2842(2) 0.4164(2) -0.33287(17)
H18F H 0.2698 0.4309 -0.3742
C27F C 0.2437(3) 0.4531(2) -0.28362(18)
H19F H 0.2019 0.4917 -0.2919
C28F C 0.2637(2) 0.4339(2) -0.22144(15)
C29F C 0.1612(2) 0.5296(2) -0.16871(18)
C30F C 0.1203(3) 0.5432(3) -0.10507(19)
H20F H 0.1450 0.5906 -0.0846
H21F H 0.1281 0.4948 -0.0790
H22F H 0.0619 0.5529 -0.1111
Co2_2 Co 1.33098(2) 1.33098(2) 0.0000
N4_2 N 0.23824(15) 0.23824(15) 0.0000
N5F N 0.22044(17) 0.46858(18) -0.16884(13)
H23F H 0.2332 0.4485 -0.1322
N6F N 0.78608(19) 0.81637(19) -0.20101(14)
H24F H 0.7981 0.8117 -0.1613
O1F O 0.92042(14) 0.75434(14) -0.05219(11)
H25F H 0.9625 0.7783 -0.0651
H26F H 0.9334 0.7309 -0.0173
O2F O 0.41991(15) 0.23861(14) -0.02594(10)
H27F H 0.4141 0.1875 -0.0261
H28F H 0.4220 0.2577 -0.0624
O3F O 0.14263(16) 0.57159(15) -0.21627(12)
O4F O 0.82972(17) 0.77093(17) -0.29736(12)
O5F O 0.30894(13) 0.36141(13) -0.09707(9)
O6F O 0.42170(16) 0.30686(16) -0.14048(11)
O7F O 0.68269(17) 0.96043(18) -0.05651(13)
O8F O 0.78182(14) 0.87274(15) -0.08403(10)
loop_
_geom_bond_atom_site_label_1
_geom_bond_atom_site_label_2
_geom_bond_site_symmetry_1
_geom_bond_site_symmetry_2
C1 H1 1_555 1_555
C2 C1 1_555 1_555
H2 C2 1_555 1_555
C3 C2 1_555 1_555
C4 C3 1_555 1_555
C5 C4 1_555 1_555
H3 C5 1_555 1_555
C6 C5 1_555 1_555
H4 C6 1_555 1_555
C7 H5 1_555 1_555
C8 C7 1_555 1_555
H6 C8 1_555 1_555
C9 C8 1_555 1_555
C10 C9 1_555 1_555
C11 C10 1_555 1_555
H7 C11 1_555 1_555
C12 C11 1_555 1_555
H8 C12 1_555 1_555
C13 C14 1_555 1_555
C14 C15 1_555 1_555
C15 H9 1_555 1_555
C16 C15 1_555 1_555
H10 C16 1_555 1_555
C17 C16 1_555 1_555
H11 C17 1_555 1_555
C18 C17 1_555 1_555
H12 C18 1_555 1_555
C19 C14 1_555 1_555
C20 C21 1_555 1_555
C21 H13 1_555 1_555
H14 C21 1_555 1_555
H15 C21 1_555 1_555
C22 C23 1_555 1_555
C23 C24 1_555 1_555
C24 H16 1_555 1_555
C25 C24 1_555 1_555
H17 C25 1_555 1_555
C26 C25 1_555 1_555
H18 C26 1_555 1_555
C27 C26 1_555 1_555
H19 C27 1_555 1_555
C28 C23 1_555 1_555
C29 C30 1_555 1_555
C30 H20 1_555 1_555
H21 C30 1_555 1_555
H22 C30 1_555 1_555
Co1 N2 1_555 1_555
Co2 N1 1_555 1_555
N1 C1 1_555 1_555
N2 C6 1_555 1_555
N3 C7 1_555 1_555
N4 C12 1_555 1_555
N5 C28 1_555 1_555
H23 N5 1_555 1_555
N6 C19 1_555 1_555
H24 N6 1_555 1_555
O1 Co1 1_555 1_555
H25 O1 1_555 1_555
H26 O1 1_555 1_555
O2 Co2 1_555 1_555
H27 O2 1_555 1_555
H28 O2 1_555 1_555
O3 C29 1_555 1_555
O4 C20 1_555 1_555
O5 C22 1_555 1_555
O6 C22 1_555 1_555
O7 C13 1_555 1_555
O8 C13 1_555 1_555
C1F N1 1_555 1_555
H1F C1F 1_555 1_555
C2F C3 1_555 1_555
H2F C2F 1_555 1_555
C5F C4 1_555 1_555
H3F C5F 1_555 1_555
C6F N2 1_555 1_555
H4F C6F 1_555 1_555
C7F N3 1_555 1_555
H5F C7F 1_555 1_555
C8F C9 1_555 1_555
H6F C8F 1_555 1_555
C11F C10 1_555 1_555
H7F C11F 1_555 1_555
C12F N4 1_555 1_555
H8F C12F 1_555 1_555
C13F C14F 1_555 1_555
C14F C15F 1_555 1_555
C15F H9F 1_555 1_555
C16F C15F 1_555 1_555
H10F C16F 1_555 1_555
C17F C16F 1_555 1_555
H11F C17F 1_555 1_555
C18F C17F 1_555 1_555
H12F C18F 1_555 1_555
C19F C14F 1_555 1_555
C20F C21F 1_555 1_555
C21F H13F 1_555 1_555
H14F C21F 1_555 1_555
H15F C21F 1_555 1_555
C22F C23F 1_555 1_555
C23F C24F 1_555 1_555
C24F H16F 1_555 1_555
C25F C24F 1_555 1_555
H17F C25F 1_555 1_555
C26F C25F 1_555 1_555
H18F C26F 1_555 1_555
C27F C26F 1_555 1_555
H19F C27F 1_555 1_555
C28F C23F 1_555 1_555
C29F C30F 1_555 1_555
C30F H20F 1_555 1_555
H21F C30F 1_555 1_555
H22F C30F 1_555 1_555
Co2_2 N4 1_555 1_555
N4_2 Co2 1_555 1_555
N5F C28F 1_555 1_555
H23F N5F 1_555 1_555
N6F C19F 1_555 1_555
H24F N6F 1_555 1_555
O1F Co1 1_555 1_555
H25F O1F 1_555 1_555
H26F O1F 1_555 1_555
O2F Co2 1_555 1_555
H27F O2F 1_555 1_555
H28F O2F 1_555 1_555
O3F C29F 1_555 1_555
O4F C20F 1_555 1_555
O5F Co2 1_555 1_555
O6F C22F 1_555 1_555
O7F C13F 1_555 1_555
O8F Co1 1_555 1_555
C18 C19 1_555 1_555
C20 N6 1_555 1_555
C27 C28 1_555 1_555
C29 N5 1_555 1_555
Co1 N3 1_555 1_555
Co1 O8 1_555 1_555
Co2 O5 1_555 1_555
C1F C2F 1_555 1_555
C5F C6F 1_555 1_555
C7F C8F 1_555 1_555
C11F C12F 1_555 1_555
C13F O8F 1_555 1_555
C18F C19F 1_555 1_555
C20F N6F 1_555 1_555
C22F O5F 1_555 1_555
C27F C28F 1_555 1_555
C29F N5F 1_555 1_555

#END
