
#######################################################################
#
#                 Cambridge Crystallographic Data Centre
#                                CCDC 
#
#######################################################################
#
# If this CIF has been generated from an entry in the Cambridge 
# Structural Database, then it will include bibliographic, chemical, 
# crystal, experimental, refinement or atomic coordinate data resulting 
# from the CCDC's data processing and validation procedures.
#
#######################################################################

data_YUPGUM
_symmetry_cell_setting           triclinic
_symmetry_space_group_name_H-M   'P -1'
_symmetry_Int_Tables_number      2
_space_group_name_Hall           '-P 1'
loop_
_symmetry_equiv_pos_site_id
_symmetry_equiv_pos_as_xyz
1 x,y,z
2 -x,-y,-z
_cell_length_a                   6.9826(13)
_cell_length_b                   8.1024(16)
_cell_length_c                   9.7342(17)
_cell_angle_alpha                79.299(22)
_cell_angle_beta                 86.215(21)
_cell_angle_gamma                72.854(22)
_cell_volume                     517.056
loop_
_atom_site_label
_atom_site_type_symbol
_atom_site_fract_x
_atom_site_fract_y
_atom_site_fract_z
Fe1 Fe 0.0000 1.0000 0.0000
N1 N 0.0234(4) 0.8075(4) 0.1916(3)
C3 C -0.0346(7) 0.8581(5) 0.3141(4)
H1 H -0.0684 0.9771 0.3179
C4 C -0.0473(6) 0.7430(5) 0.4358(4)
H2 H -0.0907 0.7853 0.5184
C5 C 0.0047(5) 0.5649(4) 0.4348(3)
C6 C 0.0673(6) 0.5115(5) 0.3074(4)
H3 H 0.1034 0.3930 0.3013
C7 C 0.0761(7) 0.6334(5) 0.1909(4)
H4 H 0.1204 0.5943 0.1072
O3 O -0.2733(4) 1.1528(4) 0.0689(3)
H5 H -0.374(6) 1.208(7) 0.000(4)
H6 H -0.286(15) 1.202(12) 0.151(6)
O4 O 0.1674(4) 1.1406(4) 0.0899(3)
H7 H 0.243(7) 1.097(7) 0.172(3)
H8 H 0.247(8) 1.194(7) 0.025(5)
Fe1_2 Fe 0.0000 0.0000 1.0000
N1A N -0.0234(4) 0.1925(4) 0.8084(3)
N1A_2 N -0.0234(4) 1.1925(4) -0.1916(3)
C3A C 0.0346(7) 0.1419(5) 0.6859(4)
H1A H 0.0684 0.0229 0.6821
C4A C 0.0473(6) 0.2570(5) 0.5642(4)
H2A H 0.0907 0.2147 0.4816
C5A C -0.0047(5) 0.4351(4) 0.5652(3)
C6A C -0.0673(6) 0.4885(5) 0.6926(4)
H3A H -0.1034 0.6070 0.6987
C7A C -0.0761(7) 0.3666(5) 0.8091(4)
H4A H -0.1204 0.4057 0.8928
O3A O 0.2733(4) 0.8472(4) -0.0689(3)
H5A H 0.374(6) 0.792(7) 0.000(4)
H6A H 0.286(15) 0.798(12) -0.151(6)
O4A O -0.1674(4) 0.8594(4) -0.0899(3)
H7A H -0.243(7) 0.903(7) -0.172(3)
H8A H -0.247(8) 0.806(7) -0.025(5)
O1 O 0.3821(6) 0.8231(4) 0.5870(3)
O2 O 0.3574(6) 0.6115(4) 0.7630(3)
C1 C 0.3977(6) 0.6692(6) 0.6372(4)
C2 C 0.4669(6) 0.5398(7) 0.5441(4)
O1A O 0.6179(6) 0.1769(4) 0.4130(3)
O2A O 0.6426(6) 0.3885(4) 0.2370(3)
C1A C 0.6023(6) 0.3308(6) 0.3628(4)
C2A C 0.5331(6) 0.4602(7) 0.4559(4)
O5 O 0.4178(5) 0.2654(4) 0.8842(3)
H9 H 0.405(9) 0.378(4) 0.828(5)
H10 H 0.463(8) 0.205(7) 0.807(4)
O6 O 0.5709(5) 0.0331(5) 0.6907(3)
H11 H 0.593(7) 0.084(5) 0.597(3)
H12 H 0.475(8) -0.027(9) 0.682(7)
loop_
_geom_bond_atom_site_label_1
_geom_bond_atom_site_label_2
_geom_bond_site_symmetry_1
_geom_bond_site_symmetry_2
Fe1 N1 1_555 1_555
O1 C1 1_555 1_555
O2 C1 1_555 1_555
C1 C2 1_555 1_555
C2 C2A 1_555 1_555
N1 C3 1_555 1_555
C3 H1 1_555 1_555
C4 C3 1_555 1_555
H2 C4 1_555 1_555
C5 C4 1_555 1_555
C6 C5 1_555 1_555
H3 C6 1_555 1_555
C7 N1 1_555 1_555
H4 C7 1_555 1_555
O3 Fe1 1_555 1_555
H5 O3 1_555 1_555
H6 O3 1_555 1_555
O4 Fe1 1_555 1_555
H7 O4 1_555 1_555
H8 O4 1_555 1_555
O5 H9 1_555 1_555
H10 O5 1_555 1_555
O6 H11 1_555 1_555
H12 O6 1_555 1_555
Fe1_2 N1A 1_555 1_555
O1A C1A 1_555 1_555
O2A C1A 1_555 1_555
C1A C2A 1_555 1_555
N1A C3A 1_555 1_555
N1A_2 Fe1 1_555 1_555
C3A H1A 1_555 1_555
C4A C3A 1_555 1_555
H2A C4A 1_555 1_555
C5A C5 1_555 1_555
C6A C5A 1_555 1_555
H3A C6A 1_555 1_555
C7A N1A 1_555 1_555
H4A C7A 1_555 1_555
O3A Fe1 1_555 1_555
H5A O3A 1_555 1_555
H6A O3A 1_555 1_555
O4A Fe1 1_555 1_555
H7A O4A 1_555 1_555
H8A O4A 1_555 1_555
C6 C7 1_555 1_555
C4A C5A 1_555 1_555
C6A C7A 1_555 1_555

#END
