
#######################################################################
#
#                 Cambridge Crystallographic Data Centre
#                                CCDC 
#
#######################################################################
#
# If this CIF has been generated from an entry in the Cambridge 
# Structural Database, then it will include bibliographic, chemical, 
# crystal, experimental, refinement or atomic coordinate data resulting 
# from the CCDC's data processing and validation procedures.
#
#######################################################################

data_YUPGOG
_symmetry_cell_setting           monoclinic
_symmetry_space_group_name_H-M   'C 2/c'
_symmetry_Int_Tables_number      15
_space_group_name_Hall           '-C 2yn'
loop_
_symmetry_equiv_pos_site_id
_symmetry_equiv_pos_as_xyz
1 x,y,z
2 -x,y,1/2-z
3 1/2+x,1/2+y,z
4 1/2-x,1/2+y,1/2-z
5 -x,-y,-z
6 x,-y,1/2+z
7 1/2-x,1/2-y,-z
8 1/2+x,1/2-y,1/2+z
_cell_length_a                   16.798(2)
_cell_length_b                   11.1363(10)
_cell_length_c                   13.4707(19)
_cell_angle_alpha                90
_cell_angle_beta                 126.939(9)
_cell_angle_gamma                90
_cell_volume                     2014.12
loop_
_atom_site_label
_atom_site_type_symbol
_atom_site_fract_x
_atom_site_fract_y
_atom_site_fract_z
Cu1 Cu 0.5000 0.734275(18) 0.7500
N1 N 0.5000 0.55273(14) 0.7500
N2 N 0.5000 -0.08439(14) 0.7500
C3 C 0.47943(13) 0.49064(13) 0.81715(15)
H1 H 0.4645 0.5328 0.8637
C4 C 0.47940(13) 0.36620(12) 0.82024(15)
H2 H 0.4657 0.3265 0.8691
C5 C 0.5000 0.30084(17) 0.7500
C6 C 0.5000 0.16740(16) 0.7500
C7 C 0.46846(13) 0.10201(12) 0.80867(16)
H3 H 0.4471 0.1417 0.8495
C8 C 0.46903(12) -0.02244(12) 0.80614(15)
H4 H 0.4470 -0.0646 0.8450
O3 O 0.63493(9) 0.73641(9) 0.79195(11)
H5 H 0.6443(19) 0.727(2) 0.7323(18)
H6 H 0.6786(16) 0.6802(19) 0.8511(19)
O4 O 0.58245(11) 0.74214(11) 0.97322(13)
H7 H 0.6324(15) 0.797(2) 1.001(2)
H8 H 0.6243(16) 0.6810(17) 1.021(2)
Cu1_2 Cu 0.5000 -0.265725(18) 0.7500
N2_2 N 0.5000 0.91561(14) 0.7500
C3A C 0.52057(13) 0.49064(13) 0.68285(15)
H1A H 0.5355 0.5328 0.6363
C4A C 0.52060(13) 0.36620(12) 0.67976(15)
H2A H 0.5343 0.3265 0.6309
C7A C 0.53154(13) 0.10201(12) 0.69133(16)
H3A H 0.5529 0.1417 0.6505
C8A C 0.53097(12) -0.02244(12) 0.69386(15)
H4A H 0.5530 -0.0646 0.6550
O3A O 0.36507(9) 0.73641(9) 0.70805(11)
H5A H 0.3557(19) 0.727(2) 0.7677(18)
H6A H 0.3214(16) 0.6802(19) 0.6489(19)
O4A O 0.41755(11) 0.74214(11) 0.52678(13)
H7A H 0.3676(15) 0.797(2) 0.499(2)
H8A H 0.3757(16) 0.6810(17) 0.479(2)
O1 O 0.66976(13) 0.69447(13) 0.63008(15)
O2 O 0.70163(12) 0.88887(12) 0.63638(13)
C1 C 0.69992(12) 0.78378(15) 0.60518(15)
C2 C 0.73526(13) 0.76010(14) 0.52969(16)
O1F O 0.83024(13) 0.80553(13) 0.36992(15)
O2F O 0.79837(12) 0.61113(12) 0.36362(13)
C1F C 0.80008(12) 0.71622(15) 0.39482(15)
C2F C 0.76474(13) 0.73990(14) 0.47031(16)
O5 O 0.77247(10) 0.58263(11) 0.96584(12)
H9 H 0.778(2) 0.5104(17) 0.936(3)
H10 H 0.7588(18) 0.566(3) 1.0221(19)
O6 O 0.70576(11) 0.45734(12) 0.61172(13)
H11 H 0.7399(18) 0.435(2) 0.6943(14)
H12 H 0.692(2) 0.5374(13) 0.613(2)
loop_
_geom_bond_atom_site_label_1
_geom_bond_atom_site_label_2
_geom_bond_site_symmetry_1
_geom_bond_site_symmetry_2
Cu1 N1 1_555 1_555
O1 C1 1_555 1_555
O2 C1 1_555 1_555
C1 C2 1_555 1_555
C2 C2F 1_555 1_555
N1 C3 1_555 1_555
N2 C8 1_555 1_555
C3 H1 1_555 1_555
C4 C3 1_555 1_555
H2 C4 1_555 1_555
C5 C4 1_555 1_555
C6 C5 1_555 1_555
C7 C6 1_555 1_555
H3 C7 1_555 1_555
C8 C7 1_555 1_555
H4 C8 1_555 1_555
O3 Cu1 1_555 1_555
H5 O3 1_555 1_555
H6 O3 1_555 1_555
O4 Cu1 1_555 1_555
H7 O4 1_555 1_555
H8 O4 1_555 1_555
O5 H9 1_555 1_555
H10 O5 1_555 1_555
O6 H11 1_555 1_555
H12 O6 1_555 1_555
Cu1_2 N2 1_555 1_555
O1F C1F 1_555 1_555
O2F C1F 1_555 1_555
C1F C2F 1_555 1_555
N2_2 Cu1 1_555 1_555
C3A N1 1_555 1_555
H1A C3A 1_555 1_555
C4A C5 1_555 1_555
H2A C4A 1_555 1_555
C7A C6 1_555 1_555
H3A C7A 1_555 1_555
C8A N2 1_555 1_555
H4A C8A 1_555 1_555
O3A Cu1 1_555 1_555
H5A O3A 1_555 1_555
H6A O3A 1_555 1_555
O4A Cu1 1_555 1_555
H7A O4A 1_555 1_555
H8A O4A 1_555 1_555
C3A C4A 1_555 1_555
C7A C8A 1_555 1_555

#END
