
#######################################################################
#
#                 Cambridge Crystallographic Data Centre
#                                CCDC 
#
#######################################################################
#
# If this CIF has been generated from an entry in the Cambridge 
# Structural Database, then it will include bibliographic, chemical, 
# crystal, experimental, refinement or atomic coordinate data resulting 
# from the CCDC's data processing and validation procedures.
#
#######################################################################

data_YUPGIA
_symmetry_cell_setting           triclinic
_symmetry_space_group_name_H-M   'P -1'
_symmetry_Int_Tables_number      2
_space_group_name_Hall           '-P 1'
loop_
_symmetry_equiv_pos_site_id
_symmetry_equiv_pos_as_xyz
1 x,y,z
2 -x,-y,-z
_cell_length_a                   6.932(2)
_cell_length_b                   8.084(2)
_cell_length_c                   9.649(3)
_cell_angle_alpha                79.16(4)
_cell_angle_beta                 85.45(4)
_cell_angle_gamma                75.38(4)
_cell_volume                     513.581
loop_
_atom_site_label
_atom_site_type_symbol
_atom_site_fract_x
_atom_site_fract_y
_atom_site_fract_z
Co1 Co 0.0000 1.0000 0.0000
N1 N 0.0156(13) 0.8109(9) 0.1897(8)
C3 C -0.0409(16) 0.8592(12) 0.3121(10)
H1 H -0.0773 0.9772 0.3160
C4 C -0.0485(17) 0.7414(12) 0.4354(12)
H2 H -0.0884 0.7810 0.5201
C5 C 0.0036(15) 0.5634(10) 0.4332(9)
C6 C 0.0619(17) 0.5178(13) 0.3042(11)
H3 H 0.1013 0.4011 0.2962
C7 C 0.0628(17) 0.6438(12) 0.1854(10)
H4 H 0.0985 0.6087 0.0986
O3 O -0.2657(12) 1.1437(8) 0.0719(7)
H5 H -0.369(14) 1.190(15) 0.005(11)
H6 H -0.290(12) 1.223(7) 0.137(6)
O4 O 0.1632(12) 1.1370(9) 0.0941(7)
H7 H 0.294(11) 1.064(17) 0.117(18)
H8 H 0.220(19) 1.225(12) 0.037(11)
Co1_2 Co 0.0000 0.0000 1.0000
N1A N -0.0156(13) 0.1891(9) 0.8103(8)
N1A_2 N -0.0156(13) 1.1891(9) -0.1897(8)
C3A C 0.0409(16) 0.1408(12) 0.6879(10)
H1A H 0.0773 0.0228 0.6840
C4A C 0.0485(17) 0.2586(12) 0.5646(12)
H2A H 0.0884 0.2190 0.4799
C5A C -0.0036(15) 0.4366(10) 0.5668(9)
C6A C -0.0619(17) 0.4822(13) 0.6958(11)
H3A H -0.1013 0.5989 0.7038
C7A C -0.0628(17) 0.3562(12) 0.8146(10)
H4A H -0.0985 0.3913 0.9014
O3A O 0.2657(12) 0.8563(8) -0.0719(7)
H5A H 0.369(14) 0.810(15) -0.005(11)
H6A H 0.290(12) 0.777(7) -0.137(6)
O4A O -0.1632(12) 0.8630(9) -0.0941(7)
H7A H -0.294(11) 0.936(17) -0.117(18)
H8A H -0.220(19) 0.775(12) -0.037(11)
O1 O 0.3818(15) 0.8156(9) 0.5858(8)
O2 O 0.3635(14) 0.6114(9) 0.7661(8)
C1 C 0.3990(17) 0.6617(14) 0.6414(12)
C2 C 0.474(2) 0.5328(16) 0.5453(14)
O1A O 0.6182(15) 0.1844(9) 0.4142(8)
O2A O 0.6365(14) 0.3886(9) 0.2339(8)
C1A C 0.6010(17) 0.3383(14) 0.3586(12)
C2A C 0.526(2) 0.4672(16) 0.4547(14)
O5 O 0.4243(13) 0.2615(10) 0.8829(8)
O6 O 0.5796(15) 0.0289(11) 0.6887(8)
loop_
_geom_bond_atom_site_label_1
_geom_bond_atom_site_label_2
_geom_bond_site_symmetry_1
_geom_bond_site_symmetry_2
Co1 N1 1_555 1_555
O1 C1 1_555 1_555
O2 C1 1_555 1_555
C1 C2 1_555 1_555
C2 C2A 1_555 1_555
N1 C3 1_555 1_555
C3 H1 1_555 1_555
C4 C3 1_555 1_555
H2 C4 1_555 1_555
C5 C4 1_555 1_555
C6 C5 1_555 1_555
H3 C6 1_555 1_555
C7 N1 1_555 1_555
H4 C7 1_555 1_555
O3 Co1 1_555 1_555
H5 O3 1_555 1_555
H6 O3 1_555 1_555
O4 Co1 1_555 1_555
H7 O4 1_555 1_555
H8 O4 1_555 1_555
Co1_2 N1A 1_555 1_555
O1A C1A 1_555 1_555
O2A C1A 1_555 1_555
C1A C2A 1_555 1_555
N1A C3A 1_555 1_555
N1A_2 Co1 1_555 1_555
C3A H1A 1_555 1_555
C4A C3A 1_555 1_555
H2A C4A 1_555 1_555
C5A C5 1_555 1_555
C6A C5A 1_555 1_555
H3A C6A 1_555 1_555
C7A N1A 1_555 1_555
H4A C7A 1_555 1_555
O3A Co1 1_555 1_555
H5A O3A 1_555 1_555
H6A O3A 1_555 1_555
O4A Co1 1_555 1_555
H7A O4A 1_555 1_555
H8A O4A 1_555 1_555
C6 C7 1_555 1_555
C4A C5A 1_555 1_555
C6A C7A 1_555 1_555

#END
