
#######################################################################
#
#                 Cambridge Crystallographic Data Centre
#                                CCDC 
#
#######################################################################
#
# If this CIF has been generated from an entry in the Cambridge 
# Structural Database, then it will include bibliographic, chemical, 
# crystal, experimental, refinement or atomic coordinate data resulting 
# from the CCDC's data processing and validation procedures.
#
#######################################################################

data_YUPGAS
_symmetry_cell_setting           triclinic
_symmetry_space_group_name_H-M   'P -1'
_symmetry_Int_Tables_number      2
_space_group_name_Hall           '-P 1'
loop_
_symmetry_equiv_pos_site_id
_symmetry_equiv_pos_as_xyz
1 x,y,z
2 -x,-y,-z
_cell_length_a                   7.278(4)
_cell_length_b                   9.606(6)
_cell_length_c                   11.373(7)
_cell_angle_alpha                82.717(9)
_cell_angle_beta                 73.446(8)
_cell_angle_gamma                69.349(8)
_cell_volume                     712.88
loop_
_atom_site_label
_atom_site_type_symbol
_atom_site_fract_x
_atom_site_fract_y
_atom_site_fract_z
Co1 Co 0.65818(5) 0.86633(3) 0.50127(3)
C1 C 0.7728(4) 1.0936(3) 0.3405(2)
C2 C 0.9138(3) 1.1663(3) 0.2525(2)
C3 C 0.8479(4) 1.3216(3) 0.2427(2)
H1 H 0.7177 1.3749 0.2870
C4 C 0.9700(4) 1.3991(3) 0.1693(2)
H2 H 0.9236 1.5026 0.1657
C5 C 1.1620(4) 1.3193(3) 0.1013(2)
H3 H 1.2455 1.3690 0.0507
C6 C 1.2296(4) 1.1651(3) 0.1090(2)
H4 H 1.3584 1.1129 0.0623
C7 C 1.1107(3) 1.0857(2) 0.1846(2)
C8 C 1.1975(3) 0.9182(3) 0.1815(2)
C9 C 1.1363(4) 0.8451(3) 0.1087(2)
H5 H 1.0315 0.8994 0.0726
C10 C 1.2283(4) 0.6931(3) 0.0888(2)
H6 H 1.1854 0.6469 0.0398
C11 C 1.3845(4) 0.6106(3) 0.1425(2)
H7 H 1.4479 0.5092 0.1291
C12 C 1.4444(4) 0.6809(3) 0.2160(2)
H8 H 1.5485 0.6254 0.2521
C13 C 1.3529(3) 0.8336(3) 0.2376(2)
C14 C 1.4162(4) 0.8979(3) 0.3283(2)
C15 C 1.0667(4) 0.6256(3) 0.4563(3)
H9 H 1.0630 0.6370 0.3709
H10 H 1.1179 0.7001 0.4719
C16 C 1.2135(4) 0.4704(3) 0.4777(3)
H11 H 1.2328 0.4644 0.5594
H12 H 1.3444 0.4572 0.4193
H13 H 0.860(5) 0.650(3) 0.611(3)
N1 N 0.8587(3) 0.6527(2) 0.5345(2)
O1 O 0.8446(3) 0.96040(19) 0.37547(16)
O2 O 0.5892(3) 1.1750(2) 0.37533(18)
O3 O 1.5675(3) 0.8119(2) 0.36570(18)
O4 O 1.3149(3) 1.02800(19) 0.36318(16)
Co1A Co 1.34182(5) 0.13367(3) 0.49873(3)
Co1A_2 Co 0.34182(5) 1.13367(3) 0.49873(3)
Co1_2 Co 1.65818(5) 0.86633(3) 0.50127(3)
Co1A_3 Co 1.34182(5) 1.13367(3) 0.49873(3)
Co1A_4 Co -0.65818(5) 1.13367(3) 0.49873(3)
Co1_3 Co -0.34182(5) 0.86633(3) 0.50127(3)
C1A C 0.2272(4) 0.9064(3) 0.6595(2)
C2A C 0.0862(3) 0.8337(3) 0.7475(2)
C3A C 0.1521(4) 0.6784(3) 0.7573(2)
H1A H 0.2823 0.6251 0.7130
C4A C 0.0300(4) 0.6009(3) 0.8307(2)
H2A H 0.0764 0.4974 0.8343
C5A C -0.1620(4) 0.6807(3) 0.8987(2)
H3A H -0.2455 0.6310 0.9493
C6A C -0.2296(4) 0.8349(3) 0.8910(2)
H4A H -0.3584 0.8871 0.9377
C7A C -0.1107(3) 0.9143(2) 0.8154(2)
C8A C -0.1975(3) 1.0818(3) 0.8185(2)
C9A C -0.1363(4) 1.1549(3) 0.8913(2)
H5A H -0.0315 1.1006 0.9274
C10A C -0.2283(4) 1.3069(3) 0.9112(2)
H6A H -0.1854 1.3531 0.9602
C11A C -0.3845(4) 1.3894(3) 0.8575(2)
H7A H -0.4479 1.4908 0.8709
C12A C -0.4444(4) 1.3191(3) 0.7840(2)
H8A H -0.5485 1.3746 0.7479
C13A C -0.3529(3) 1.1664(3) 0.7624(2)
C14A C -0.4162(4) 1.1021(3) 0.6717(2)
C15A C 0.9333(4) 0.3744(3) 0.5437(3)
H9A H 0.9370 0.3630 0.6291
H10A H 0.8821 0.2999 0.5281
C16A C 0.7865(4) 0.5296(3) 0.5223(3)
H11A H 0.7672 0.5356 0.4406
H12A H 0.6556 0.5428 0.5807
H13A H 1.140(5) 0.350(3) 0.389(3)
N1A N 1.1413(3) 0.3473(2) 0.4655(2)
O1A O 0.1554(3) 1.03960(19) 0.62453(16)
O1A_2 O 1.1554(3) 0.03960(19) 0.62453(16)
O2A O 0.4108(3) 0.8250(2) 0.62467(18)
O2_2 O 1.5892(3) 0.1750(2) 0.37533(18)
O3A O -0.5675(3) 1.1881(2) 0.63430(18)
O3_2 O 0.5675(3) 0.8119(2) 0.36570(18)
O3A_2 O 1.4325(3) 0.1881(2) 0.63430(18)
O4A O -0.3149(3) 0.97200(19) 0.63682(16)
O4A_2 O 0.6851(3) 0.97200(19) 0.63682(16)
O4_2 O 1.3149(3) 0.02800(19) 0.36318(16)
loop_
_geom_bond_atom_site_label_1
_geom_bond_atom_site_label_2
_geom_bond_site_symmetry_1
_geom_bond_site_symmetry_2
Co1 N1 1_555 1_555
C1 C2 1_555 1_555
C2 C3 1_555 1_555
C3 H1 1_555 1_555
C4 C3 1_555 1_555
H2 C4 1_555 1_555
C5 C4 1_555 1_555
H3 C5 1_555 1_555
C6 C5 1_555 1_555
H4 C6 1_555 1_555
C7 C2 1_555 1_555
C8 C7 1_555 1_555
C9 C8 1_555 1_555
H5 C9 1_555 1_555
C10 C9 1_555 1_555
H6 C10 1_555 1_555
C11 C10 1_555 1_555
H7 C11 1_555 1_555
C12 C11 1_555 1_555
H8 C12 1_555 1_555
C13 C8 1_555 1_555
C14 C13 1_555 1_555
C15 H9 1_555 1_555
H10 C15 1_555 1_555
C16 C15 1_555 1_555
H11 C16 1_555 1_555
H12 C16 1_555 1_555
H13 N1 1_555 1_555
N1 C15 1_555 1_555
O1 Co1 1_555 1_555
O2 C1 1_555 1_555
O3 C14 1_555 1_555
O4 C14 1_555 1_555
Co1A N1A 1_555 1_555
Co1A_2 O2 1_555 1_555
Co1_2 O3 1_555 1_555
Co1A_3 O4 1_555 1_555
Co1A_4 O3A 1_555 1_555
Co1_3 O4A 1_555 1_555
C1A C2A 1_555 1_555
C2A C3A 1_555 1_555
C3A H1A 1_555 1_555
C4A C3A 1_555 1_555
H2A C4A 1_555 1_555
C5A C4A 1_555 1_555
H3A C5A 1_555 1_555
C6A C5A 1_555 1_555
H4A C6A 1_555 1_555
C7A C2A 1_555 1_555
C8A C7A 1_555 1_555
C9A C8A 1_555 1_555
H5A C9A 1_555 1_555
C10A C9A 1_555 1_555
H6A C10A 1_555 1_555
C11A C10A 1_555 1_555
H7A C11A 1_555 1_555
C12A C11A 1_555 1_555
H8A C12A 1_555 1_555
C13A C8A 1_555 1_555
C14A C13A 1_555 1_555
C15A H9A 1_555 1_555
H10A C15A 1_555 1_555
C16A N1 1_555 1_555
H11A C16A 1_555 1_555
H12A C16A 1_555 1_555
H13A N1A 1_555 1_555
N1A C16 1_555 1_555
O1A Co1A_2 1_555 1_555
O1A_2 Co1A 1_555 1_555
O2A Co1 1_555 1_555
O2_2 Co1A 1_555 1_555
O3A C14A 1_555 1_555
O3_2 Co1 1_555 1_555
O3A_2 Co1A 1_555 1_555
O4A C14A 1_555 1_555
O4A_2 Co1 1_555 1_555
O4_2 Co1A 1_555 1_555
C1 O1 1_555 1_555
C6 C7 1_555 1_555
C12 C13 1_555 1_555
C1A O1A 1_555 1_555
C1A O2A 1_555 1_555
C6A C7A 1_555 1_555
C12A C13A 1_555 1_555
C15A C16A 1_555 1_555
C15A N1A 1_555 1_555

#END
