
#######################################################################
#
#                 Cambridge Crystallographic Data Centre
#                                CCDC 
#
#######################################################################
#
# If this CIF has been generated from an entry in the Cambridge 
# Structural Database, then it will include bibliographic, chemical, 
# crystal, experimental, refinement or atomic coordinate data resulting 
# from the CCDC's data processing and validation procedures.
#
#######################################################################

data_YUPKOK
_symmetry_cell_setting           triclinic
_symmetry_space_group_name_H-M   'P -1'
_symmetry_Int_Tables_number      2
_space_group_name_Hall           '-P 1'
loop_
_symmetry_equiv_pos_site_id
_symmetry_equiv_pos_as_xyz
1 x,y,z
2 -x,-y,-z
_cell_length_a                   10.5526(6)
_cell_length_b                   10.7291(6)
_cell_length_c                   10.9883(6)
_cell_angle_alpha                93.680(1)
_cell_angle_beta                 99.456(1)
_cell_angle_gamma                109.688(1)
_cell_volume                     1145.84
loop_
_atom_site_label
_atom_site_type_symbol
_atom_site_fract_x
_atom_site_fract_y
_atom_site_fract_z
O16 O 0.0285(3) 0.9555(3) 0.0102(3)
O16A O -0.0285(3) 1.0445(3) -0.0102(3)
Ca1 Ca 0.19961(2) 0.62204(2) 0.49975(2)
K1 K 0.74171(3) 0.70133(3) 0.65161(3)
K2 K 0.25524(3) 1.03484(3) 0.55231(4)
C1 C 0.49937(12) 0.86107(11) 0.82290(11)
S1 S 0.50127(3) 0.90570(3) 0.66920(3)
O1 O 0.37239(10) 0.82082(9) 0.58940(8)
O2 O 0.51234(10) 1.04463(8) 0.67714(9)
O3 O 0.62010(11) 0.88437(12) 0.63536(9)
C2 C 0.38298(12) 0.81970(11) 0.87830(11)
S2 S 0.20920(3) 0.78753(3) 0.80225(3)
O4 O 0.17045(10) 0.66811(9) 0.71002(9)
O5 O 0.12804(10) 0.75995(11) 0.89833(9)
O6 O 0.20461(10) 0.90442(10) 0.74460(9)
C3 C 0.40067(15) 0.79721(13) 1.00289(12)
H1 H 0.3233 0.7708 1.0417
C4 C 0.52938(16) 0.81274(14) 1.07090(12)
H2 H 0.5392 0.7965 1.1553
C5 C 0.64318(15) 0.85175(14) 1.01630(12)
H3 H 0.731 0.8612 1.0625
C6 C 0.62819(13) 0.87710(13) 0.89297(12)
H4 H 0.7068 0.9057 0.856
C7 C 0.28193(11) 0.41599(11) 0.77172(10)
S3 S 0.39510(3) 0.44135(3) 0.66298(2)
O7 O 0.33643(9) 0.49610(9) 0.55828(8)
O8 O 0.52670(9) 0.53368(9) 0.73003(9)
O9 O 0.39905(9) 0.31082(8) 0.62355(9)
C8 C 0.13988(11) 0.34007(11) 0.74418(10)
S4 S 0.04274(3) 0.27906(3) 0.59055(3)
O10 O 0.04631(9) 0.39913(8) 0.53143(8)
O11 O 0.10330(9) 0.19727(9) 0.52889(8)
O12 O -0.09894(9) 0.20798(9) 0.60175(9)
C9 C 0.06585(12) 0.32017(13) 0.83983(11)
H5 H -0.0293 0.2681 0.8215
C10 C 0.12999(14) 0.37585(14) 0.96219(12)
H6 H 0.0793 0.3602 1.027
C11 C 0.26813(14) 0.45412(14) 0.98841(12)
H7 H 0.3117 0.4945 1.0711
C12 C 0.34322(12) 0.47366(12) 0.89365(11)
H8 H 0.4379 0.5273 0.9127
O13 O 0.32955(9) 0.69534(9) 0.33379(9)
H9 H 0.405(2) 0.675(2) 0.340(2)
H10 H 0.363(2) 0.786(2) 0.329(2)
O14 O 0.10959(10) 0.47430(10) 0.30030(9)
H11 H 0.126(2) 0.519(2) 0.248(2)
H12 H 0.028(3) 0.435(2) 0.283(2)
O15 O 0.94242(14) 0.94688(16) 0.74486(15)
H13 H 1.0198(14) 0.953(3) 0.726(2)
H14 H 0.957(2) 0.939(2) 0.8244(6)
Ca1A Ca -0.19961(2) 0.37796(2) 0.50025(2)
Ca1A_2 Ca 0.80039(2) 0.37796(2) 0.50025(2)
Ca1A_3 Ca 0.80039(2) 1.37796(2) 0.50025(2)
K1A K -0.74171(3) 0.29867(3) 0.34839(3)
K1A_2 K 0.25829(3) 0.29867(3) 0.34839(3)
K1_2 K -0.25829(3) 0.70133(3) 0.65161(3)
K1A_3 K 0.25829(3) 1.29867(3) 0.34839(3)
K2A K 0.74476(3) 0.96516(3) 0.44769(4)
K2_2 K 0.25524(3) 0.03484(3) 0.55231(4)
K2A_2 K -0.25524(3) -0.03484(3) 0.44769(4)
K2A_3 K -0.25524(3) 0.96516(3) 0.44769(4)
C1A C 0.50063(12) 1.13893(11) 0.17710(11)
S1A S 0.49873(3) 1.09430(3) 0.33080(3)
O1A O 0.62761(10) 1.17918(9) 0.41060(8)
O1A_2 O -0.37239(10) 0.17918(9) 0.41060(8)
O2A O 0.48766(10) 0.95537(8) 0.32286(9)
O3A O 0.37990(11) 1.11563(12) 0.36464(9)
O3A_2 O -0.62010(11) 0.11563(12) 0.36464(9)
C2A C 0.61702(12) 1.18030(11) 0.12170(11)
S2A S 0.79080(3) 1.21247(3) 0.19775(3)
O4A O 0.82955(10) 1.33189(9) 0.28998(9)
O4A_2 O -0.17045(10) 0.33189(9) 0.28998(9)
O5A O 0.87196(10) 1.24005(11) 0.10167(9)
O6A O 0.79539(10) 1.09558(10) 0.25540(9)
C3A C 0.59933(15) 1.20279(13) -0.00289(12)
H1A H 0.6767 1.2292 -0.0417
C4A C 0.47062(16) 1.18726(14) -0.07090(12)
H2A H 0.4608 1.2035 -0.1553
C5A C 0.35682(15) 1.14825(14) -0.01630(12)
H3A H 0.269 1.1388 -0.0625
C6A C 0.37181(13) 1.12290(13) 0.10703(12)
H4A H 0.2932 1.0943 0.144
C7A C -0.28193(11) 0.58401(11) 0.22828(10)
S3A S -0.39510(3) 0.55865(3) 0.33702(2)
O7A O -0.33643(9) 0.50390(9) 0.44172(8)
O7A_2 O 0.66357(9) 0.50390(9) 0.44172(8)
O7_2 O -0.66357(9) 0.49610(9) 0.55828(8)
O8A O -0.52670(9) 0.46632(9) 0.26997(9)
O9A O -0.39905(9) 0.68918(8) 0.37645(9)
O9_2 O 0.39905(9) 1.31082(8) 0.62355(9)
O9A_2 O 0.60095(9) 0.68918(8) 0.37645(9)
C8A C -0.13988(11) 0.65993(11) 0.25582(10)
S4A S -0.04274(3) 0.72094(3) 0.40945(3)
O10A O -0.04631(9) 0.60087(8) 0.46857(8)
O11A O -0.10330(9) 0.80273(9) 0.47111(8)
O11A_2 O 0.89670(9) 0.80273(9) 0.47111(8)
O11_2 O 0.10330(9) 1.19727(9) 0.52889(8)
O11_3 O -0.89670(9) 0.19727(9) 0.52889(8)
O12A O 0.09894(9) 0.79202(9) 0.39825(9)
O12_2 O 0.90106(9) 1.20798(9) 0.60175(9)
C9A C -0.06585(12) 0.67983(13) 0.16017(11)
H5A H 0.0293 0.7319 0.1785
C10A C -0.12999(14) 0.62415(14) 0.03781(12)
H6A H -0.0793 0.6398 -0.027
C11A C -0.26813(14) 0.54588(14) 0.01159(12)
H7A H -0.3117 0.5055 -0.0711
C12A C -0.34322(12) 0.52634(12) 0.10635(11)
H8A H -0.4379 0.4727 0.0873
O13A O -0.32955(9) 0.30466(9) 0.66621(9)
H9A H -0.405(2) 0.325(2) 0.660(2)
H10A H -0.363(2) 0.214(2) 0.671(2)
O14A O 0.89041(10) 0.52570(10) 0.69970(9)
O14A_2 O -0.10959(10) 0.52570(10) 0.69970(9)
O14_2 O -0.89041(10) 0.47430(10) 0.30030(9)
H11A H 0.874(2) 0.481(2) 0.752(2)
H11A_2 H -0.126(2) 0.481(2) 0.752(2)
H11_2 H -0.874(2) 0.519(2) 0.248(2)
H12A H 0.972(3) 0.565(2) 0.717(2)
H12A_2 H -0.028(3) 0.565(2) 0.717(2)
H12_2 H -0.972(3) 0.435(2) 0.283(2)
O15A O -0.94242(14) 0.05312(16) 0.25514(15)
H13A H -1.0198(14) 0.047(3) 0.274(2)
H14A H -0.957(2) 0.061(2) 0.1756(6)
loop_
_geom_bond_atom_site_label_1
_geom_bond_atom_site_label_2
_geom_bond_site_symmetry_1
_geom_bond_site_symmetry_2
Ca1 O1 1_555 1_555
K1 O3 1_555 1_555
K2 O1 1_555 1_555
C1 S1 1_555 1_555
S1 O1 1_555 1_555
O2 K2 1_555 1_555
O3 S1 1_555 1_555
C2 C1 1_555 1_555
S2 C2 1_555 1_555
O4 Ca1 1_555 1_555
O5 S2 1_555 1_555
O6 K2 1_555 1_555
C3 C2 1_555 1_555
H1 C3 1_555 1_555
C4 C3 1_555 1_555
H2 C4 1_555 1_555
C5 C4 1_555 1_555
H3 C5 1_555 1_555
C6 C1 1_555 1_555
H4 C6 1_555 1_555
C7 S3 1_555 1_555
S3 O7 1_555 1_555
O7 Ca1 1_555 1_555
O8 K1 1_555 1_555
O9 S3 1_555 1_555
C8 C7 1_555 1_555
S4 C8 1_555 1_555
O10 Ca1 1_555 1_555
O11 S4 1_555 1_555
O12 S4 1_555 1_555
C9 C8 1_555 1_555
H5 C9 1_555 1_555
C10 C9 1_555 1_555
H6 C10 1_555 1_555
C11 C10 1_555 1_555
H7 C11 1_555 1_555
C12 C7 1_555 1_555
H8 C12 1_555 1_555
O13 Ca1 1_555 1_555
H9 O13 1_555 1_555
H10 O13 1_555 1_555
O14 Ca1 1_555 1_555
H11 O14 1_555 1_555
H12 O14 1_555 1_555
O15 K1 1_555 1_555
H13 O15 1_555 1_555
H14 O15 1_555 1_555
O16 O16A 1_555 1_555
Ca1A O10 1_555 1_555
Ca1A_2 O7A_2 1_555 1_555
Ca1A_3 O1A 1_555 1_555
K1A O3A_2 1_555 1_555
K1A_2 O7 1_555 1_555
K1_2 O7A 1_555 1_555
K1A_3 O3A 1_555 1_555
K2A O3 1_555 1_555
K2_2 O9 1_555 1_555
K2A_2 O12 1_555 1_555
K2A_3 O9A 1_555 1_555
C1A S1A 1_555 1_555
S1A O1A 1_555 1_555
O1A K2A 1_555 1_555
O1A_2 Ca1A 1_555 1_555
O2A K2A 1_555 1_555
O3A K2 1_555 1_555
C2A C1A 1_555 1_555
S2A C2A 1_555 1_555
O4A Ca1A_3 1_555 1_555
O4A_2 Ca1A 1_555 1_555
O5A S2A 1_555 1_555
O6A K2A 1_555 1_555
C3A C2A 1_555 1_555
H1A C3A 1_555 1_555
C4A C3A 1_555 1_555
H2A C4A 1_555 1_555
C5A C4A 1_555 1_555
H3A C5A 1_555 1_555
C6A C1A 1_555 1_555
H4A C6A 1_555 1_555
C7A S3A 1_555 1_555
S3A O7A 1_555 1_555
O7A Ca1A 1_555 1_555
O7A_2 K1 1_555 1_555
O7_2 K1A 1_555 1_555
O8A K1A 1_555 1_555
O9A S3A 1_555 1_555
O9_2 K2 1_555 1_555
O9A_2 K2A 1_555 1_555
C8A C7A 1_555 1_555
S4A C8A 1_555 1_555
O10A Ca1 1_555 1_555
O11A K1_2 1_555 1_555
O11A_2 K1 1_555 1_555
O11_2 K2 1_555 1_555
O11_3 K1A 1_555 1_555
O12A Ca1 1_555 1_555
O12_2 Ca1A_3 1_555 1_555
C9A C8A 1_555 1_555
H5A C9A 1_555 1_555
C10A C9A 1_555 1_555
H6A C10A 1_555 1_555
C11A C10A 1_555 1_555
H7A C11A 1_555 1_555
C12A C7A 1_555 1_555
H8A C12A 1_555 1_555
O13A Ca1A 1_555 1_555
H9A O13A 1_555 1_555
H10A O13A 1_555 1_555
O14A K1 1_555 1_555
O14A_2 Ca1A 1_555 1_555
O14_2 K1A 1_555 1_555
H11A O14A 1_555 1_555
H11A_2 O14A_2 1_555 1_555
H11_2 O14_2 1_555 1_555
H12A O14A 1_555 1_555
H12A_2 O14A_2 1_555 1_555
H12_2 O14_2 1_555 1_555
O15A K1A 1_555 1_555
H13A O15A 1_555 1_555
H14A O15A 1_555 1_555
K2 O12A 1_555 1_555
S1 O2 1_555 1_555
S2 O4 1_555 1_555
S2 O6 1_555 1_555
C5 C6 1_555 1_555
S3 O8 1_555 1_555
S4 O10 1_555 1_555
O11 K1A_2 1_555 1_555
O11 K2_2 1_555 1_555
O12 Ca1A 1_555 1_555
C11 C12 1_555 1_555
O14 K1A_2 1_555 1_555
Ca1A O10A 1_555 1_555
Ca1A_2 O14A 1_555 1_555
K1_2 O14A_2 1_555 1_555
K1A_3 O11_2 1_555 1_555
K2A O11A_2 1_555 1_555
K2A O12_2 1_555 1_555
K2A_2 O1A_2 1_555 1_555
K2A_3 O11A 1_555 1_555
S1A O2A 1_555 1_555
S1A O3A 1_555 1_555
S2A O4A 1_555 1_555
S2A O6A 1_555 1_555
C5A C6A 1_555 1_555
S3A O8A 1_555 1_555
S4A O10A 1_555 1_555
S4A O11A 1_555 1_555
S4A O12A 1_555 1_555
C11A C12A 1_555 1_555

#END
