
#######################################################################
#
#                 Cambridge Crystallographic Data Centre
#                                CCDC 
#
#######################################################################
#
# If this CIF has been generated from an entry in the Cambridge 
# Structural Database, then it will include bibliographic, chemical, 
# crystal, experimental, refinement or atomic coordinate data resulting 
# from the CCDC's data processing and validation procedures.
#
#######################################################################

data_YUPLEB
_symmetry_cell_setting           triclinic
_symmetry_space_group_name_H-M   'P -1'
_symmetry_Int_Tables_number      2
_space_group_name_Hall           '-P 1'
loop_
_symmetry_equiv_pos_site_id
_symmetry_equiv_pos_as_xyz
1 x,y,z
2 -x,-y,-z
_cell_length_a                   10.1293(5)
_cell_length_b                   10.7829(6)
_cell_length_c                   22.3150(10)
_cell_angle_alpha                102.139(1)
_cell_angle_beta                 94.916(1)
_cell_angle_gamma                104.449(1)
_cell_volume                     2282.75
loop_
_atom_site_label
_atom_site_type_symbol
_atom_site_fract_x
_atom_site_fract_y
_atom_site_fract_z
Sr1 Sr -0.20951(2) 0.03364(2) 0.264174(11)
Sr2 Sr 0.21534(2) 0.02821(2) 0.230671(11)
Sr3 Sr -0.16479(2) -0.52117(2) 0.260020(11)
Sr4 Sr -0.59930(2) 0.50851(2) 0.245980(12)
C1 C 0.1154(2) 0.0634(3) 0.42408(11)
S1 S 0.09885(7) 0.18990(6) 0.38565(3)
O1 O -0.04617(18) 0.16189(17) 0.35980(8)
O2 O 0.18844(18) 0.18571(17) 0.33743(8)
O3 O 0.14455(19) 0.31260(18) 0.43279(9)
C2 C 0.0622(2) -0.0732(3) 0.39958(11)
S2 S -0.04428(6) -0.14810(6) 0.32690(3)
O4 O -0.18198(16) -0.13311(17) 0.33427(8)
O5 O 0.01189(17) -0.07842(17) 0.28131(8)
O6 O -0.04129(18) -0.28503(17) 0.31315(8)
C3 C 0.0858(3) -0.1606(3) 0.43452(12)
H1 H 0.0514 -0.2529 0.4175
C4 C 0.1589(3) -0.1140(3) 0.49387(13)
H2 H 0.1736 -0.1745 0.5174
C5 C 0.2103(3) 0.0196(3) 0.51876(13)
H3 H 0.2598 0.0517 0.5595
C6 C 0.1890(3) 0.1076(3) 0.48361(12)
H4 H 0.2256 0.1997 0.5007
C7 C -0.4753(2) 0.1569(2) 0.39986(11)
S3 S -0.52701(6) -0.00738(6) 0.35227(3)
O7 O -0.66596(17) -0.03198(17) 0.32041(8)
O8 O -0.42557(18) -0.01355(17) 0.30983(8)
O9 O -0.52444(18) -0.09289(17) 0.39479(8)
C8 C -0.4323(2) 0.2718(3) 0.37794(12)
S4 S -0.42133(6) 0.27403(6) 0.29901(3)
O10 O -0.54236(17) 0.18138(17) 0.26157(8)
O11 O -0.41045(17) 0.40980(16) 0.29478(8)
O12 O -0.29146(16) 0.24473(16) 0.28568(8)
C9 C -0.3886(3) 0.3952(3) 0.42029(12)
H5 H -0.3599 0.4729 0.4056
C10 C -0.3870(3) 0.4051(3) 0.48343(13)
H6 H -0.3552 0.4889 0.5119
C11 C -0.4314(3) 0.2931(3) 0.50456(13)
H7 H -0.4319 0.2999 0.5477
C12 C -0.4758(3) 0.1695(3) 0.46314(12)
H8 H -0.5067 0.0929 0.4783
C13 C -0.0035(2) 0.2416(3) 0.12169(11)
S5 S 0.05419(6) 0.24700(6) 0.20049(3)
O13 O -0.00180(19) 0.34072(18) 0.23897(8)
O14 O -0.00209(17) 0.11248(17) 0.20732(8)
O15 O 0.20412(17) 0.28072(17) 0.21105(8)
C14 C -0.0036(2) 0.3538(2) 0.09860(11)
S6 S 0.07198(6) 0.51964(6) 0.14104(3)
O16 O -0.0180(2) 0.55608(18) 0.18481(8)
O17 O 0.20517(19) 0.52051(19) 0.17089(10)
O18 O 0.08507(19) 0.60058(17) 0.09631(8)
C15 C -0.0613(3) 0.3345(3) 0.03725(12)
H9 H -0.0629 0.4089 0.021
C16 C -0.1162(3) 0.2087(3) -0.00050(12)
H10 H -0.1561 0.1975 -0.0421
C17 C -0.1133(3) 0.0998(3) 0.02203(12)
H11 H -0.1496 0.0136 -0.0041
C18 C -0.0568(3) 0.1166(3) 0.08317(12)
H12 H -0.0547 0.0415 0.0987
C19 C -0.3381(2) -0.3959(3) 0.10090(11)
S7 S -0.35638(6) -0.32125(6) 0.17759(3)
O19 O -0.50046(17) -0.32078(17) 0.17786(8)
O20 O -0.32062(17) -0.40021(17) 0.21874(8)
O21 O -0.26255(18) -0.18972(17) 0.19071(8)
C20 C -0.3683(2) -0.5312(3) 0.07508(12)
S8 S -0.42788(7) -0.65959(6) 0.11434(3)
O22 O -0.53879(18) -0.62738(18) 0.14634(9)
O23 O -0.31071(18) -0.66218(17) 0.15710(8)
O24 O -0.4753(2) -0.78050(18) 0.06580(9)
C21 C -0.3558(3) -0.5740(3) 0.01264(13)
H13 H -0.3757 -0.6657 -0.0055
C22 C -0.3150(3) -0.4847(3) -0.02289(13)
H14 H -0.3082 -0.5157 -0.0653
C23 C -0.2842(3) -0.3519(3) 0.00250(13)
H15 H -0.2551 -0.2911 -0.0221
C24 C -0.2955(3) -0.3064(3) 0.06438(12)
H16 H -0.2742 -0.2143 0.082
O25 O -0.3287(3) 0.0593(2) 0.16381(10)
H17 H -0.380(3) 0.004(2) 0.1339(11)
H18 H -0.329(3) 0.1324(15) 0.1623(13)
O26 O 0.0234(2) -0.15533(19) 0.14974(9)
H19 H -0.042(3) -0.160(3) 0.1707(15)
H20 H 0.017(3) -0.2340(18) 0.1313(12)
O27 O 0.3200(3) -0.1566(3) 0.17526(13)
H21 H 0.396(2) -0.103(2) 0.1840(18)
H22 H 0.324(3) -0.2304(17) 0.1600(17)
O28 O 0.2836(2) 0.0785(2) 0.12635(10)
H23 H 0.337(3) 0.039(2) 0.1108(14)
H24 H 0.316(3) 0.1572(16) 0.1307(15)
O29 O -0.0492(3) -0.5370(3) 0.36491(12)
H25 H 0.040(2) -0.488(3) 0.366(2)
H26 H -0.035(4) -0.602(3) 0.3763(19)
O30 O -0.6789(2) 0.4538(2) 0.34508(11)
H27 H -0.722(3) 0.3786(16) 0.3440(15)
H28 H -0.726(3) 0.506(2) 0.3547(16)
O31 O -0.7469(2) 0.6682(2) 0.29884(13)
H29 H -0.728(3) 0.734(3) 0.3283(11)
H30 H -0.820(2) 0.666(3) 0.2776(13)
O32 O -0.4387(2) 0.68776(19) 0.33576(10)
H31 H -0.357(2) 0.723(3) 0.3304(14)
H32 H -0.464(3) 0.750(3) 0.3567(13)
Sr1_2 Sr -0.20951(2) -0.96636(2) 0.264174(11)
Sr1_3 Sr -1.20951(2) 0.03364(2) 0.264174(11)
Sr1_4 Sr 0.79049(2) 0.03364(2) 0.264174(11)
Sr1_5 Sr -0.20951(2) 1.03364(2) 0.264174(11)
Sr2_2 Sr -0.78466(2) 0.02821(2) 0.230671(11)
Sr2_3 Sr 0.21534(2) -0.97179(2) 0.230671(11)
Sr3_2 Sr -0.16479(2) 0.47883(2) 0.260020(11)
Sr3_3 Sr 0.83521(2) 0.47883(2) 0.260020(11)
Sr3_4 Sr -1.16479(2) -0.52117(2) 0.260020(11)
Sr4_2 Sr 0.40070(2) 0.50851(2) 0.245980(12)
Sr4_3 Sr -0.59930(2) -0.49149(2) 0.245980(12)
Sr4_4 Sr 0.40070(2) -0.49149(2) 0.245980(12)
C1_2 C -0.8846(2) 0.0634(3) 0.42408(11)
S1_2 S -0.90115(7) 0.18990(6) 0.38565(3)
O1_2 O -1.04617(18) 0.16189(17) 0.35980(8)
O2_2 O -0.81156(18) 0.18571(17) 0.33743(8)
O3_2 O -0.85545(19) 0.31260(18) 0.43279(9)
C2_2 C -0.9378(2) -0.0732(3) 0.39958(11)
S2_2 S -1.04428(6) -0.14810(6) 0.32690(3)
O4_2 O -1.18198(16) -0.13311(17) 0.33427(8)
O5_2 O -0.98811(17) -0.07842(17) 0.28131(8)
O6_2 O -0.04129(18) 0.71497(17) 0.31315(8)
O6_3 O -1.04129(18) -0.28503(17) 0.31315(8)
C3_2 C -0.9142(3) -0.1606(3) 0.43452(12)
H1_2 H -0.9486 -0.2529 0.4175
C4_2 C -0.8411(3) -0.1140(3) 0.49387(13)
H2_2 H -0.8264 -0.1745 0.5174
C5_2 C -0.7897(3) 0.0196(3) 0.51876(13)
H3_2 H -0.7402 0.0517 0.5595
C6_2 C -0.8110(3) 0.1076(3) 0.48361(12)
H4_2 H -0.7744 0.1997 0.5007
C7_2 C 0.5247(2) 0.1569(2) 0.39986(11)
S3_2 S 0.47299(6) -0.00738(6) 0.35227(3)
O7_2 O 0.33404(17) -0.03198(17) 0.32041(8)
O8_2 O 0.57443(18) -0.01355(17) 0.30983(8)
O8_3 O -1.42557(18) -0.01355(17) 0.30983(8)
O9_2 O 0.47556(18) -0.09289(17) 0.39479(8)
C8_2 C 0.5677(2) 0.2718(3) 0.37794(12)
S4_2 S 0.57867(6) 0.27403(6) 0.29901(3)
O10_2 O 0.45764(17) 0.18138(17) 0.26157(8)
O11_2 O -0.41045(17) -0.59020(16) 0.29478(8)
O11_3 O 0.58955(17) 0.40980(16) 0.29478(8)
O12_2 O -0.29146(16) -0.75527(16) 0.28568(8)
O12_3 O 0.70854(16) 0.24473(16) 0.28568(8)
O12_4 O -1.29146(16) 0.24473(16) 0.28568(8)
C9_2 C 0.6114(3) 0.3952(3) 0.42029(12)
H5_2 H 0.6401 0.4729 0.4056
C10_2 C 0.6130(3) 0.4051(3) 0.48343(13)
H6_2 H 0.6448 0.4889 0.5119
C11_2 C 0.5686(3) 0.2931(3) 0.50456(13)
H7_2 H 0.5681 0.2999 0.5477
C12_2 C 0.5242(3) 0.1695(3) 0.46314(12)
H8_2 H 0.4933 0.0929 0.4783
C13_2 C -0.0035(2) -0.7584(3) 0.12169(11)
S5_2 S 0.05419(6) -0.75300(6) 0.20049(3)
O13_2 O -0.00180(19) -0.65928(18) 0.23897(8)
O14_2 O -1.00209(17) 0.11248(17) 0.20732(8)
O14_3 O -0.00209(17) -0.88752(17) 0.20732(8)
O15_2 O -0.79588(17) 0.28072(17) 0.21105(8)
O15_3 O 0.20412(17) -0.71928(17) 0.21105(8)
C14_2 C -0.0036(2) -0.6462(2) 0.09860(11)
S6_2 S 0.07198(6) -0.48036(6) 0.14104(3)
O16_2 O -0.0180(2) -0.44392(18) 0.18481(8)
O17_2 O -0.79483(19) 0.52051(19) 0.17089(10)
O17_3 O 0.20517(19) -0.47949(19) 0.17089(10)
O18_2 O 0.08507(19) -0.39942(17) 0.09631(8)
C15_2 C -0.0613(3) -0.6655(3) 0.03725(12)
H9_2 H -0.0629 -0.5911 0.021
C16_2 C -0.1162(3) -0.7913(3) -0.00050(12)
H10_2 H -0.1561 -0.8025 -0.0421
C17_2 C -0.1133(3) -0.9002(3) 0.02203(12)
H11_2 H -0.1496 -0.9864 -0.0041
C18_2 C -0.0568(3) -0.8834(3) 0.08317(12)
H12_2 H -0.0547 -0.9585 0.0987
C19_2 C -0.3381(2) 0.6041(3) 0.10090(11)
S7_2 S -0.35638(6) 0.67875(6) 0.17759(3)
O19_2 O -0.50046(17) 0.67922(17) 0.17786(8)
O19_3 O 0.49954(17) 0.67922(17) 0.17786(8)
O20_2 O -0.32062(17) 0.59979(17) 0.21874(8)
O20_3 O 0.67938(17) 0.59979(17) 0.21874(8)
O21_2 O -0.26255(18) 0.81028(17) 0.19071(8)
O21_3 O -1.26255(18) -0.18972(17) 0.19071(8)
C20_2 C -0.3683(2) 0.4688(3) 0.07508(12)
S8_2 S -0.42788(7) 0.34041(6) 0.11434(3)
O22_2 O -0.53879(18) 0.37262(18) 0.14634(9)
O22_3 O 0.46121(18) 0.37262(18) 0.14634(9)
O23_2 O -0.31071(18) 0.33782(17) 0.15710(8)
O24_2 O -0.4753(2) 0.21950(18) 0.06580(9)
C21_2 C -0.3558(3) 0.4260(3) 0.01264(13)
H13_2 H -0.3757 0.3343 -0.0055
C22_2 C -0.3150(3) 0.5153(3) -0.02289(13)
H14_2 H -0.3082 0.4843 -0.0653
C23_2 C -0.2842(3) 0.6481(3) 0.00250(13)
H15_2 H -0.2551 0.7089 -0.0221
C24_2 C -0.2955(3) 0.6936(3) 0.06438(12)
H16_2 H -0.2742 0.7857 0.082
O25_2 O -1.3287(3) 0.0593(2) 0.16381(10)
H17_2 H -1.380(3) 0.004(2) 0.1339(11)
H18_2 H -1.329(3) 0.1324(15) 0.1623(13)
O26_2 O -0.9766(2) -0.15533(19) 0.14974(9)
H19_2 H -1.042(3) -0.160(3) 0.1707(15)
H20_2 H -0.983(3) -0.2340(18) 0.1313(12)
O27_2 O -0.6800(3) -0.1566(3) 0.17526(13)
H21_2 H -0.604(2) -0.103(2) 0.1840(18)
H22_2 H -0.676(3) -0.2304(17) 0.1600(17)
O28_2 O -0.7164(2) 0.0785(2) 0.12635(10)
H23_2 H -0.663(3) 0.039(2) 0.1108(14)
H24_2 H -0.684(3) 0.1572(16) 0.1307(15)
O29_2 O -0.0492(3) 0.4630(3) 0.36491(12)
H25_2 H 0.040(2) 0.512(3) 0.366(2)
H26_2 H -0.035(4) 0.398(3) 0.3763(19)
O30_2 O 0.3211(2) 0.4538(2) 0.34508(11)
H27_2 H 0.278(3) 0.3786(16) 0.3440(15)
H28_2 H 0.274(3) 0.506(2) 0.3547(16)
O31_2 O 0.2531(2) 0.6682(2) 0.29884(13)
H29_2 H 0.272(3) 0.734(3) 0.3283(11)
H30_2 H 0.180(2) 0.666(3) 0.2776(13)
O32_2 O 0.5613(2) 0.68776(19) 0.33576(10)
H31_2 H 0.643(2) 0.723(3) 0.3304(14)
H32_2 H 0.536(3) 0.750(3) 0.3567(13)
O33 O -0.5173(4) -0.0642(4) 0.05922(17)
O34 O 0.0140(5) -0.4411(5) 0.4903(2)
loop_
_geom_bond_atom_site_label_1
_geom_bond_atom_site_label_2
_geom_bond_site_symmetry_1
_geom_bond_site_symmetry_2
Sr1 O1 1_555 1_555
Sr2 O2 1_555 1_555
Sr3 O6 1_555 1_555
Sr4 O11 1_555 1_555
C1 S1 1_555 1_555
S1 O1 1_555 1_555
O2 S1 1_555 1_555
O3 S1 1_555 1_555
C2 C1 1_555 1_555
S2 C2 1_555 1_555
O4 Sr1 1_555 1_555
O5 Sr1 1_555 1_555
O6 S2 1_555 1_555
C3 C2 1_555 1_555
H1 C3 1_555 1_555
C4 C3 1_555 1_555
H2 C4 1_555 1_555
C5 C4 1_555 1_555
H3 C5 1_555 1_555
C6 C1 1_555 1_555
H4 C6 1_555 1_555
C7 S3 1_555 1_555
S3 O7 1_555 1_555
O7 Sr2_2 1_555 1_555
O8 Sr1 1_555 1_555
O9 S3 1_555 1_555
C8 C7 1_555 1_555
S4 C8 1_555 1_555
O10 S4 1_555 1_555
O11 S4 1_555 1_555
O12 Sr1 1_555 1_555
C9 C8 1_555 1_555
H5 C9 1_555 1_555
C10 C9 1_555 1_555
H6 C10 1_555 1_555
C11 C10 1_555 1_555
H7 C11 1_555 1_555
C12 C7 1_555 1_555
H8 C12 1_555 1_555
C13 S5 1_555 1_555
S5 O13 1_555 1_555
O13 Sr3_2 1_555 1_555
O14 Sr1 1_555 1_555
O15 Sr2 1_555 1_555
C14 C13 1_555 1_555
S6 C14 1_555 1_555
O16 S6 1_555 1_555
O17 S6 1_555 1_555
O18 S6 1_555 1_555
C15 C14 1_555 1_555
H9 C15 1_555 1_555
C16 C15 1_555 1_555
H10 C16 1_555 1_555
C17 C16 1_555 1_555
H11 C17 1_555 1_555
C18 C13 1_555 1_555
H12 C18 1_555 1_555
C19 S7 1_555 1_555
S7 O19 1_555 1_555
O19 Sr4_3 1_555 1_555
O20 Sr3 1_555 1_555
O21 Sr1 1_555 1_555
C20 C19 1_555 1_555
S8 C20 1_555 1_555
O22 S8 1_555 1_555
O23 Sr3 1_555 1_555
O24 S8 1_555 1_555
C21 C20 1_555 1_555
H13 C21 1_555 1_555
C22 C21 1_555 1_555
H14 C22 1_555 1_555
C23 C22 1_555 1_555
H15 C23 1_555 1_555
C24 C19 1_555 1_555
H16 C24 1_555 1_555
O25 Sr1 1_555 1_555
H17 O25 1_555 1_555
H18 O25 1_555 1_555
O26 Sr2 1_555 1_555
H19 O26 1_555 1_555
H20 O26 1_555 1_555
O27 Sr2 1_555 1_555
H21 O27 1_555 1_555
H22 O27 1_555 1_555
O28 Sr2 1_555 1_555
H23 O28 1_555 1_555
H24 O28 1_555 1_555
O29 Sr3 1_555 1_555
H25 O29 1_555 1_555
H26 O29 1_555 1_555
O30 Sr4 1_555 1_555
H27 O30 1_555 1_555
H28 O30 1_555 1_555
O31 Sr4 1_555 1_555
H29 O31 1_555 1_555
H30 O31 1_555 1_555
O32 Sr4 1_555 1_555
H31 O32 1_555 1_555
H32 O32 1_555 1_555
Sr1_2 O12_2 1_555 1_555
Sr1_3 O1_2 1_555 1_555
Sr1_4 O8_2 1_555 1_555
Sr1_5 O21_2 1_555 1_555
Sr2_2 O10 1_555 1_555
Sr2_3 O14_3 1_555 1_555
Sr3_2 O11 1_555 1_555
Sr3_3 O11_3 1_555 1_555
Sr3_4 O6_3 1_555 1_555
Sr4_2 O15 1_555 1_555
Sr4_3 O20 1_555 1_555
Sr4_4 O15_3 1_555 1_555
C1_2 S1_2 1_555 1_555
S1_2 O1_2 1_555 1_555
O2_2 Sr2_2 1_555 1_555
O3_2 S1_2 1_555 1_555
C2_2 C1_2 1_555 1_555
S2_2 C2_2 1_555 1_555
O4_2 Sr1_3 1_555 1_555
O5_2 Sr1_3 1_555 1_555
O6_2 Sr3_2 1_555 1_555
O6_3 S2_2 1_555 1_555
C3_2 C2_2 1_555 1_555
H1_2 C3_2 1_555 1_555
C4_2 C3_2 1_555 1_555
H2_2 C4_2 1_555 1_555
C5_2 C4_2 1_555 1_555
H3_2 C5_2 1_555 1_555
C6_2 C1_2 1_555 1_555
H4_2 C6_2 1_555 1_555
C7_2 S3_2 1_555 1_555
S3_2 O7_2 1_555 1_555
O7_2 Sr2 1_555 1_555
O8_2 S3_2 1_555 1_555
O8_3 Sr1_3 1_555 1_555
O9_2 S3_2 1_555 1_555
C8_2 C7_2 1_555 1_555
S4_2 C8_2 1_555 1_555
O10_2 Sr2 1_555 1_555
O11_2 Sr3 1_555 1_555
O11_3 Sr4_2 1_555 1_555
O12_2 Sr3 1_555 1_555
O12_3 Sr1_4 1_555 1_555
O12_4 Sr1_3 1_555 1_555
C9_2 C8_2 1_555 1_555
H5_2 C9_2 1_555 1_555
C10_2 C9_2 1_555 1_555
H6_2 C10_2 1_555 1_555
C11_2 C10_2 1_555 1_555
H7_2 C11_2 1_555 1_555
C12_2 C7_2 1_555 1_555
H8_2 C12_2 1_555 1_555
C13_2 S5_2 1_555 1_555
S5_2 O13_2 1_555 1_555
O13_2 Sr3 1_555 1_555
O14_2 Sr1_3 1_555 1_555
O14_3 Sr1_2 1_555 1_555
O15_2 Sr4 1_555 1_555
O15_3 Sr2_3 1_555 1_555
C14_2 C13_2 1_555 1_555
S6_2 C14_2 1_555 1_555
O16_2 Sr3 1_555 1_555
O17_2 Sr4 1_555 1_555
O17_3 Sr4_4 1_555 1_555
O18_2 S6_2 1_555 1_555
C15_2 C14_2 1_555 1_555
H9_2 C15_2 1_555 1_555
C16_2 C15_2 1_555 1_555
H10_2 C16_2 1_555 1_555
C17_2 C16_2 1_555 1_555
H11_2 C17_2 1_555 1_555
C18_2 C13_2 1_555 1_555
H12_2 C18_2 1_555 1_555
C19_2 S7_2 1_555 1_555
S7_2 O19_2 1_555 1_555
O19_2 Sr4 1_555 1_555
O19_3 Sr4_2 1_555 1_555
O20_2 Sr4 1_555 1_555
O20_3 Sr3_3 1_555 1_555
O21_2 S7_2 1_555 1_555
O21_3 Sr1_3 1_555 1_555
C20_2 C19_2 1_555 1_555
S8_2 C20_2 1_555 1_555
O22_2 Sr4 1_555 1_555
O22_3 Sr4_2 1_555 1_555
O23_2 Sr3_2 1_555 1_555
O24_2 S8_2 1_555 1_555
C21_2 C20_2 1_555 1_555
H13_2 C21_2 1_555 1_555
C22_2 C21_2 1_555 1_555
H14_2 C22_2 1_555 1_555
C23_2 C22_2 1_555 1_555
H15_2 C23_2 1_555 1_555
C24_2 C19_2 1_555 1_555
H16_2 C24_2 1_555 1_555
O25_2 Sr1_3 1_555 1_555
H17_2 O25_2 1_555 1_555
H18_2 O25_2 1_555 1_555
O26_2 Sr2_2 1_555 1_555
H19_2 O26_2 1_555 1_555
H20_2 O26_2 1_555 1_555
O27_2 Sr2_2 1_555 1_555
H21_2 O27_2 1_555 1_555
H22_2 O27_2 1_555 1_555
O28_2 Sr2_2 1_555 1_555
H23_2 O28_2 1_555 1_555
H24_2 O28_2 1_555 1_555
O29_2 Sr3_2 1_555 1_555
H25_2 O29_2 1_555 1_555
H26_2 O29_2 1_555 1_555
O30_2 Sr4_2 1_555 1_555
H27_2 O30_2 1_555 1_555
H28_2 O30_2 1_555 1_555
O31_2 Sr4_2 1_555 1_555
H29_2 O31_2 1_555 1_555
H30_2 O31_2 1_555 1_555
O32_2 Sr4_2 1_555 1_555
H31_2 O32_2 1_555 1_555
H32_2 O32_2 1_555 1_555
Sr2 O5 1_555 1_555
Sr2 O14 1_555 1_555
S2 O4 1_555 1_555
S2 O5 1_555 1_555
C5 C6 1_555 1_555
S3 O8 1_555 1_555
S4 O12 1_555 1_555
O12 Sr3_2 1_555 1_555
C11 C12 1_555 1_555
S5 O14 1_555 1_555
S5 O15 1_555 1_555
O16 Sr3_2 1_555 1_555
O17 Sr4_2 1_555 1_555
C17 C18 1_555 1_555
S7 O20 1_555 1_555
S7 O21 1_555 1_555
S8 O23 1_555 1_555
O22 Sr4_3 1_555 1_555
C23 C24 1_555 1_555
Sr2_2 O5_2 1_555 1_555
Sr2_2 O14_2 1_555 1_555
Sr2_2 O15_2 1_555 1_555
Sr3_2 O20_2 1_555 1_555
Sr3_3 O12_3 1_555 1_555
Sr4_2 O20_3 1_555 1_555
Sr4_3 O11_2 1_555 1_555
S1_2 O2_2 1_555 1_555
S2_2 O4_2 1_555 1_555
S2_2 O5_2 1_555 1_555
C5_2 C6_2 1_555 1_555
S4_2 O10_2 1_555 1_555
S4_2 O11_3 1_555 1_555
S4_2 O12_3 1_555 1_555
C11_2 C12_2 1_555 1_555
S5_2 O14_3 1_555 1_555
S5_2 O15_3 1_555 1_555
S6_2 O16_2 1_555 1_555
S6_2 O17_3 1_555 1_555
C17_2 C18_2 1_555 1_555
S7_2 O20_2 1_555 1_555
S8_2 O22_2 1_555 1_555
S8_2 O23_2 1_555 1_555
C23_2 C24_2 1_555 1_555

#END
