
#######################################################################
#
#                 Cambridge Crystallographic Data Centre
#                                CCDC 
#
#######################################################################
#
# If this CIF has been generated from an entry in the Cambridge 
# Structural Database, then it will include bibliographic, chemical, 
# crystal, experimental, refinement or atomic coordinate data resulting 
# from the CCDC's data processing and validation procedures.
#
#######################################################################

data_YUPSEI
_symmetry_cell_setting           triclinic
_symmetry_space_group_name_H-M   'P -1'
_symmetry_Int_Tables_number      2
_space_group_name_Hall           '-P 1'
loop_
_symmetry_equiv_pos_site_id
_symmetry_equiv_pos_as_xyz
1 x,y,z
2 -x,-y,-z
_cell_length_a                   8.8797(2)
_cell_length_b                   10.4305(2)
_cell_length_c                   16.8737(3)
_cell_angle_alpha                84.3830(10)
_cell_angle_beta                 79.4540(10)
_cell_angle_gamma                68.2650(10)
_cell_volume                     1426.43
loop_
_atom_site_label
_atom_site_type_symbol
_atom_site_fract_x
_atom_site_fract_y
_atom_site_fract_z
Pr1 Pr 0.12120(4) 0.21951(3) 0.21598(2)
Pr2 Pr 0.50487(4) 0.29493(3) 0.29647(2)
C1 C -0.1268(8) 0.0703(7) 0.3501(4)
C2 C -0.0693(8) -0.0450(7) 0.4116(4)
C3 C -0.1827(8) -0.0681(7) 0.4733(4)
H1 H -0.2942 -0.0180 0.4748
C4 C -0.1279(8) -0.1677(7) 0.5337(4)
C5 C 0.0388(8) -0.2435(7) 0.5308(4)
H2 H 0.0749 -0.3098 0.5711
C6 C 0.1509(8) -0.2202(7) 0.4681(4)
C7 C 0.0967(9) -0.1233(7) 0.4076(4)
H3 H 0.1716 -0.1106 0.3642
C8 C -0.2494(8) -0.1961(7) 0.5997(4)
C9 C 0.4495(8) 0.0050(7) 0.2393(4)
C10 C 0.6071(8) -0.1152(7) 0.2426(4)
C11 C 0.6017(8) -0.2466(7) 0.2591(4)
H4 H 0.5018 -0.2597 0.2697
C12 C 0.7481(8) -0.3578(7) 0.2593(4)
C13 C 0.8984(8) -0.3390(7) 0.2455(5)
H5 H 0.9952 -0.4144 0.2480
C14 C 0.9035(9) -0.2070(7) 0.2277(5)
C15 C 0.7567(9) -0.0956(7) 0.2255(4)
H6 H 0.7586 -0.0074 0.2125
C16 C 0.7499(8) -0.5053(7) 0.2781(4)
C17 C 0.2834(8) 0.4602(7) 0.1442(4)
C18 C 0.3136(8) 0.5641(7) 0.0823(4)
C19 C 0.2428(8) 0.5936(7) 0.0131(4)
H7 H 0.1732 0.5501 0.0042
C20 C 0.2777(8) 0.6896(7) -0.0430(4)
C21 C 0.3786(8) 0.7557(7) -0.0298(4)
H8 H 0.4032 0.8174 -0.0689
C22 C 0.4443(8) 0.7312(7) 0.0411(4)
C23 C 0.4135(8) 0.6338(7) 0.0973(4)
H9 H 0.4589 0.6147 0.1445
C24 C 0.2051(8) 0.7230(6) -0.1198(4)
N1 N 0.3209(7) -0.2988(7) 0.4650(4)
H10 H 0.3538 -0.3606 0.5020
H11 H 0.3910 -0.2846 0.4261
N2 N 1.0524(8) -0.1868(8) 0.2068(6)
H12 H 1.0536 -0.1057 0.1926
H13 H 1.1433 -0.2555 0.2081
N3 N 0.5338(8) 0.8095(7) 0.0571(4)
H14 H 0.5479 0.8724 0.0230
H15 H 0.5746 0.7944 0.1011
O1 O -0.2736(6) 0.1491(5) 0.3620(3)
O2 O -0.0217(6) 0.0821(5) 0.2911(3)
O3 O -0.3997(6) -0.1483(5) 0.5948(3)
O4 O -0.1985(6) -0.2737(5) 0.6608(3)
O5 O 0.3180(6) -0.0150(5) 0.2522(3)
O6 O 0.4557(6) 0.1249(5) 0.2199(3)
O7 O 0.6147(6) -0.5203(5) 0.2929(4)
O8 O 0.8860(6) -0.5995(5) 0.2773(3)
O9 O 0.3317(7) 0.4502(6) 0.2108(3)
O10 O 0.2082(7) 0.3868(5) 0.1273(3)
O11 O 0.0641(6) 0.7223(6) -0.1169(3)
O12 O 0.2886(6) 0.7531(5) -0.1819(3)
O13 O 0.2525(7) 0.0722(6) 0.0928(3)
H16 H 0.3134 -0.0083 0.0983
H17 H 0.1881 0.0780 0.0621
O14 O 0.3769(8) 0.4358(6) 0.4172(4)
H18 H 0.3759 0.5148 0.4086
H19 H 0.2883 0.4363 0.4422
Pr1A Pr -0.12120(4) -0.21951(3) 0.78402(2)
Pr1_2 Pr 1.12120(4) -0.78049(3) 0.21598(2)
Pr1A_2 Pr -0.12120(4) 0.78049(3) -0.21598(2)
Pr2_2 Pr -0.49513(4) 0.29493(3) 0.29647(2)
Pr2A Pr -0.50487(4) -0.29493(3) 0.70353(2)
Pr2_3 Pr 0.50487(4) -0.70507(3) 0.29647(2)
Pr2A_2 Pr 0.49513(4) 0.70507(3) -0.29647(2)
O1_2 O 0.7264(6) 0.1491(5) 0.3620(3)
O3A O 0.3997(6) 0.1483(5) 0.4052(3)
O4A O 0.1985(6) 0.2737(5) 0.3392(3)
O7_2 O 0.6147(6) 0.4797(5) 0.2929(4)
O8_2 O -0.1140(6) 0.4005(5) 0.2773(3)
O11A O -0.0641(6) 0.2777(6) 0.1169(3)
O12A O 0.7114(6) 0.2469(5) 0.1819(3)
O15 O 0.1514(14) 0.4170(9) 0.5517(5)
H20 H 0.0560 0.4352 0.5783
H21 H 0.1878 0.4748 0.5642
O16 O 0.568(2) 0.825(2) 0.4357(9)
H22 H 0.5211 0.8138 0.4823
H23 H 0.4954 0.8695 0.4082
O17 O 0.9123(11) 0.9083(13) 0.0318(5)
H24 H 0.8884 0.8383 0.0482
H25 H 0.9910 0.9039 0.0544
loop_
_geom_bond_atom_site_label_1
_geom_bond_atom_site_label_2
_geom_bond_site_symmetry_1
_geom_bond_site_symmetry_2
Pr1 O2 1_555 1_555
Pr2 O6 1_555 1_555
C1 C2 1_555 1_555
C2 C3 1_555 1_555
C3 H1 1_555 1_555
C4 C3 1_555 1_555
C5 C4 1_555 1_555
H2 C5 1_555 1_555
C6 C5 1_555 1_555
C7 C2 1_555 1_555
H3 C7 1_555 1_555
C8 C4 1_555 1_555
C9 C10 1_555 1_555
C10 C11 1_555 1_555
C11 H4 1_555 1_555
C12 C11 1_555 1_555
C13 C12 1_555 1_555
H5 C13 1_555 1_555
C14 C13 1_555 1_555
C15 C10 1_555 1_555
H6 C15 1_555 1_555
C16 C12 1_555 1_555
C17 C18 1_555 1_555
C18 C19 1_555 1_555
C19 H7 1_555 1_555
C20 C19 1_555 1_555
C21 C20 1_555 1_555
H8 C21 1_555 1_555
C22 C21 1_555 1_555
C23 C18 1_555 1_555
H9 C23 1_555 1_555
C24 C20 1_555 1_555
N1 C6 1_555 1_555
H10 N1 1_555 1_555
H11 N1 1_555 1_555
N2 C14 1_555 1_555
H12 N2 1_555 1_555
H13 N2 1_555 1_555
N3 C22 1_555 1_555
H14 N3 1_555 1_555
H15 N3 1_555 1_555
O1 C1 1_555 1_555
O2 C1 1_555 1_555
O3 C8 1_555 1_555
O4 C8 1_555 1_555
O5 Pr1 1_555 1_555
O6 Pr1 1_555 1_555
O7 C16 1_555 1_555
O8 C16 1_555 1_555
O9 Pr2 1_555 1_555
O10 Pr1 1_555 1_555
O11 C24 1_555 1_555
O12 C24 1_555 1_555
O13 Pr1 1_555 1_555
H16 O13 1_555 1_555
H17 O13 1_555 1_555
O14 Pr2 1_555 1_555
H18 O14 1_555 1_555
H19 O14 1_555 1_555
O15 H20 1_555 1_555
H21 O15 1_555 1_555
O16 H22 1_555 1_555
H23 O16 1_555 1_555
O17 H24 1_555 1_555
H25 O17 1_555 1_555
Pr1A O4 1_555 1_555
Pr1_2 O8 1_555 1_555
Pr1A_2 O11 1_555 1_555
Pr2_2 O1 1_555 1_555
Pr2A O3 1_555 1_555
Pr2_3 O7 1_555 1_555
Pr2A_2 O12 1_555 1_555
O1_2 Pr2 1_555 1_555
O3A Pr2 1_555 1_555
O4A Pr1 1_555 1_555
O7_2 Pr2 1_555 1_555
O8_2 Pr1 1_555 1_555
O11A Pr1 1_555 1_555
O12A Pr2 1_555 1_555
Pr2 O4A 1_555 1_555
C6 C7 1_555 1_555
C9 O5 1_555 1_555
C9 O6 1_555 1_555
C14 C15 1_555 1_555
C17 O9 1_555 1_555
C17 O10 1_555 1_555
C22 C23 1_555 1_555
O4 Pr2A 1_555 1_555

#END
