
#######################################################################
#
#                 Cambridge Crystallographic Data Centre
#                                CCDC 
#
#######################################################################
#
# If this CIF has been generated from an entry in the Cambridge 
# Structural Database, then it will include bibliographic, chemical, 
# crystal, experimental, refinement or atomic coordinate data resulting 
# from the CCDC's data processing and validation procedures.
#
#######################################################################

data_YURGEY
_symmetry_cell_setting           monoclinic
_symmetry_space_group_name_H-M   'P 21/n'
_symmetry_Int_Tables_number      14
_space_group_name_Hall           '-P 2yn'
loop_
_symmetry_equiv_pos_site_id
_symmetry_equiv_pos_as_xyz
1 x,y,z
2 1/2-x,1/2+y,1/2-z
3 -x,-y,-z
4 1/2+x,1/2-y,1/2+z
_cell_length_a                   9.8738(6)
_cell_length_b                   11.8691(7)
_cell_length_c                   20.2256(11)
_cell_angle_alpha                90
_cell_angle_beta                 95.131(3)
_cell_angle_gamma                90
_cell_volume                     2360.8
loop_
_atom_site_label
_atom_site_type_symbol
_atom_site_fract_x
_atom_site_fract_y
_atom_site_fract_z
C1 C 0.2354(3) 0.1712(2) 0.89388(13)
C2 C 0.2681(3) 0.1236(2) 0.82818(13)
C3 C 0.2070(3) 0.1789(3) 0.77232(15)
H1 H 0.1508 0.2404 0.7777
C4 C 0.2288(3) 0.1435(3) 0.70933(15)
H2 H 0.1887 0.1817 0.6725
C5 C 0.3103(3) 0.0512(3) 0.70098(15)
H3 H 0.3245 0.0269 0.6585
C6 C 0.3711(3) -0.0054(3) 0.75585(14)
H4 H 0.4254 -0.0679 0.7498
C7 C 0.3515(3) 0.0304(2) 0.81993(13)
C8 C 0.4147(3) -0.0359(2) 0.87769(13)
C9 C -0.1371(3) 0.2092(2) 1.04829(15)
C10 C -0.0628(3) 0.1805(3) 1.11519(14)
H5 H -0.0781 0.2399 1.1467
H6 H -0.0993 0.1111 1.1316
C11 C 0.1637(3) 0.1957(2) 1.17397(14)
H7 H 0.2562 0.1688 1.1727
H8 H 0.1244 0.1576 1.2101
C12 C 0.1658(3) 0.3216(2) 1.18682(14)
H9 H 0.0733 0.3487 1.1877
H10 H 0.2138 0.3365 1.2299
C13 C 0.0483(3) 0.5134(2) 1.09209(13)
C14 C 0.1855(3) 0.5022(2) 1.13232(14)
H11 H 0.2518 0.5487 1.1125
H12 H 0.1779 0.5292 1.1771
C15 C 0.4573(3) 0.4008(2) 1.08978(14)
C16 C 0.3817(3) 0.3822(3) 1.15114(13)
H13 H 0.4083 0.3102 1.1710
H14 H 0.4069 0.4407 1.1834
C17 C 0.2486(3) 0.0373(2) 1.06336(13)
C18 C 0.1129(3) 0.0497(2) 1.09248(15)
H15 H 0.0410 0.0234 1.0604
H16 H 0.1127 0.0027 1.1317
N1 N 0.2332(2) 0.38381(19) 1.13493(11)
N2 N 0.0843(2) 0.16744(19) 1.11065(11)
Nd1 Nd 0.158654(14) 0.298297(12) 1.009308(7)
Nd2 Nd 0.523809(14) 0.166902(12) 0.996907(7)
O1 O 0.1249(2) 0.15076(18) 0.91497(10)
O2 O 0.32017(19) 0.24062(16) 0.92376(9)
O3 O 0.41335(19) 0.00824(16) 0.93626(9)
O4 O 0.4617(2) -0.13082(17) 0.87001(10)
O5 O -0.0695(2) 0.21892(18) 0.99941(10)
O6 O -0.26337(19) 0.22401(19) 1.04781(11)
O7 O 0.29702(19) 0.12690(16) 1.04046(9)
O8 O 0.3006(2) -0.05752(17) 1.06271(11)
O9 O 0.00303(19) 0.42779(16) 1.06080(9)
O10 O -0.0100(2) 0.60786(16) 1.09155(10)
O11 O 0.4241(2) 0.33310(16) 1.04139(9)
O12 O 0.5459(2) 0.4727(2) 1.09023(11)
O13 O 0.5915(3) 0.2743(3) 0.90296(15)
O14 O 0.2446(2) 0.49034(18) 0.98804(11)
H17 H 0.664(3) 0.269(5) 0.886(2)
H18 H 0.540(4) 0.304(4) 0.8746(19)
H19 H 0.188(4) 0.537(3) 0.975(2)
H20 H 0.315(3) 0.504(4) 0.973(2)
Nd1B Nd -0.158654(14) 0.701703(12) 0.990692(7)
Nd2B Nd 0.476191(14) -0.166902(12) 1.003093(7)
Nd2_2 Nd -0.476191(14) 0.166902(12) 0.996907(7)
O3B O 0.58665(19) -0.00824(16) 1.06374(9)
O4B O 0.5383(2) 0.13082(17) 1.12999(10)
O6_2 O 0.73663(19) 0.22401(19) 1.04781(11)
O8B O 0.6994(2) 0.05752(17) 0.93729(11)
O10B O 0.0100(2) 0.39214(16) 0.90845(10)
O15 O 0.8274(3) 0.2250(2) 0.85043(13)
H21 H 0.862(4) 0.214(4) 0.8140(12)
H22 H 0.886(3) 0.260(4) 0.8767(16)
O16 O 0.4466(4) 0.3809(4) 0.8011(2)
loop_
_geom_bond_atom_site_label_1
_geom_bond_atom_site_label_2
_geom_bond_site_symmetry_1
_geom_bond_site_symmetry_2
C1 C2 1_555 1_555
C2 C3 1_555 1_555
C3 H1 1_555 1_555
C4 C3 1_555 1_555
H2 C4 1_555 1_555
C5 C4 1_555 1_555
H3 C5 1_555 1_555
C6 C5 1_555 1_555
H4 C6 1_555 1_555
C7 C2 1_555 1_555
C8 C7 1_555 1_555
C9 C10 1_555 1_555
C10 H5 1_555 1_555
H6 C10 1_555 1_555
C11 H7 1_555 1_555
H8 C11 1_555 1_555
C12 C11 1_555 1_555
H9 C12 1_555 1_555
H10 C12 1_555 1_555
C13 C14 1_555 1_555
C14 H11 1_555 1_555
H12 C14 1_555 1_555
C15 C16 1_555 1_555
C16 H13 1_555 1_555
H14 C16 1_555 1_555
C17 C18 1_555 1_555
C18 H15 1_555 1_555
H16 C18 1_555 1_555
N1 C12 1_555 1_555
N2 C10 1_555 1_555
Nd1 N1 1_555 1_555
Nd2 O2 1_555 1_555
O1 C1 1_555 1_555
O2 C1 1_555 1_555
O3 C8 1_555 1_555
O4 C8 1_555 1_555
O5 C9 1_555 1_555
O6 C9 1_555 1_555
O7 C17 1_555 1_555
O8 C17 1_555 1_555
O9 C13 1_555 1_555
O10 C13 1_555 1_555
O11 C15 1_555 1_555
O12 C15 1_555 1_555
O13 Nd2 1_555 1_555
O14 Nd1 1_555 1_555
O15 H21 1_555 1_555
H17 O13 1_555 1_555
H18 O13 1_555 1_555
H19 O14 1_555 1_555
H20 O14 1_555 1_555
H22 O15 1_555 1_555
Nd1B O10 1_555 1_555
Nd2B O3 1_555 1_555
Nd2_2 O6 1_555 1_555
O3B Nd2 1_555 1_555
O4B Nd2 1_555 1_555
O6_2 Nd2 1_555 1_555
O8B Nd2 1_555 1_555
O10B Nd1 1_555 1_555
C6 C7 1_555 1_555
C11 N2 1_555 1_555
C14 N1 1_555 1_555
C16 N1 1_555 1_555
C18 N2 1_555 1_555
N2 Nd1 1_555 1_555
Nd1 O1 1_555 1_555
Nd1 O2 1_555 1_555
Nd1 O5 1_555 1_555
Nd1 O7 1_555 1_555
Nd1 O9 1_555 1_555
Nd1 O11 1_555 1_555
Nd2 O3 1_555 1_555
Nd2 O7 1_555 1_555
Nd2 O11 1_555 1_555
O4 Nd2B 1_555 1_555
O8 Nd2B 1_555 1_555
Nd2B O3B 1_555 1_555

#END
