
#######################################################################
#
#                 Cambridge Crystallographic Data Centre
#                                CCDC 
#
#######################################################################
#
# If this CIF has been generated from an entry in the Cambridge 
# Structural Database, then it will include bibliographic, chemical, 
# crystal, experimental, refinement or atomic coordinate data resulting 
# from the CCDC's data processing and validation procedures.
#
#######################################################################

data_YURGIC
_symmetry_cell_setting           triclinic
_symmetry_space_group_name_H-M   'P -1'
_symmetry_Int_Tables_number      2
_space_group_name_Hall           '-P 1'
loop_
_symmetry_equiv_pos_site_id
_symmetry_equiv_pos_as_xyz
1 x,y,z
2 -x,-y,-z
_cell_length_a                   12.6217(6)
_cell_length_b                   13.8053(6)
_cell_length_c                   15.9232(7)
_cell_angle_alpha                75.107(2)
_cell_angle_beta                 68.829(2)
_cell_angle_gamma                65.551(2)
_cell_volume                     2336.32
loop_
_atom_site_label
_atom_site_type_symbol
_atom_site_fract_x
_atom_site_fract_y
_atom_site_fract_z
C1 C 0.2024(3) 0.2851(3) 0.3776(2)
C2 C 0.2292(4) 0.1909(3) 0.3453(3)
H1 H 0.1665 0.1706 0.3473
C3 C 0.3484(4) 0.1271(3) 0.3102(3)
H2 H 0.3658 0.0652 0.2868
C4 C 0.4423(4) 0.1548(3) 0.3096(3)
H3 H 0.5227 0.1108 0.2873
C5 C 0.4161(3) 0.2481(3) 0.3423(3)
H4 H 0.4792 0.2664 0.3425
C6 C 0.2961(3) 0.3151(3) 0.3751(2)
C7 C 0.0695(3) 0.3474(3) 0.4147(2)
C8 C 0.2711(3) 0.4180(3) 0.4059(2)
C9 C 0.1948(3) 0.8181(3) 0.2217(2)
C10 C 0.2046(4) 0.9032(3) 0.2457(3)
H5 H 0.2373 0.8911 0.2929
C11 C 0.1667(4) 1.0053(3) 0.2008(3)
H6 H 0.1720 1.0618 0.2186
C12 C 0.1207(4) 1.0234(3) 0.1294(3)
H7 H 0.0968 1.0919 0.0981
C13 C 0.1102(4) 0.9402(3) 0.1043(3)
H8 H 0.0792 0.9531 0.0560
C14 C 0.1454(3) 0.8369(3) 0.1504(2)
C15 C 0.2439(3) 0.7088(3) 0.2723(2)
C16 C 0.1228(3) 0.7502(3) 0.1272(2)
C17 C 0.1505(3) 0.8613(3) -0.3715(2)
C18 C 0.1092(4) 0.9698(3) -0.4068(3)
H9 H 0.0774 0.9899 -0.4556
C19 C 0.1148(4) 1.0468(3) -0.3702(3)
H10 H 0.0871 1.1184 -0.3945
C20 C 0.1613(4) 1.0182(3) -0.2978(3)
H11 H 0.1648 1.0705 -0.2729
C21 C 0.2028(4) 0.9118(3) -0.2621(3)
H12 H 0.2343 0.8930 -0.2132
C22 C 0.1981(3) 0.8323(3) -0.2978(2)
C23 C 0.1424(3) 0.7807(3) -0.4136(2)
C24 C 0.2463(3) 0.7186(3) -0.2541(2)
C25 C 0.3710(3) 0.3184(3) 0.0984(2)
C26 C 0.3267(4) 0.2488(3) 0.0841(3)
H13 H 0.2435 0.2666 0.0963
C27 C 0.4079(5) 0.1522(4) 0.0515(3)
H14 H 0.3788 0.1048 0.0428
C28 C 0.5298(5) 0.1269(4) 0.0323(3)
H15 H 0.5837 0.0644 0.0069
C29 C 0.5741(4) 0.1930(3) 0.0501(3)
H16 H 0.6573 0.1733 0.0394
C30 C 0.4950(3) 0.2891(3) 0.0838(2)
C31 C 0.2805(3) 0.4272(3) 0.1216(3)
C32 C 0.5429(3) 0.3540(3) 0.1117(2)
C33 C -0.2949(3) 0.6920(3) 0.1247(2)
C34 C -0.4115(3) 0.7571(3) 0.1660(2)
H17 H -0.4756 0.7326 0.1826
C35 C -0.4337(4) 0.8578(3) 0.1829(3)
H18 H -0.5122 0.9009 0.2109
C36 C -0.3388(4) 0.8942(3) 0.1582(3)
H19 H -0.3534 0.9614 0.1710
C37 C -0.2222(4) 0.8321(3) 0.1145(3)
H20 H -0.1592 0.8584 0.0965
C38 C -0.1991(3) 0.7304(3) 0.0974(2)
C39 C -0.2709(3) 0.5821(3) 0.1091(2)
C40 C -0.0704(3) 0.6692(3) 0.0502(2)
C41 C 0.6279(3) 0.7149(3) 0.3876(2)
C42 C 0.5056(3) 0.7258(3) 0.4138(2)
C43 C 0.4157(4) 0.8205(3) 0.4446(3)
H21 H 0.3342 0.8287 0.4608
C44 C 0.4472(4) 0.9026(3) 0.4511(3)
H22 H 0.3869 0.9648 0.4735
C45 C 0.5673(4) 0.8922(4) 0.4246(3)
H23 H 0.5879 0.9482 0.4278
C46 C 0.6578(4) 0.7990(3) 0.3931(3)
H24 H 0.7389 0.7925 0.3755
C47 C 0.7294(3) 0.6138(3) 0.3598(2)
C48 C 0.4671(3) 0.6420(3) 0.4023(2)
Er1 Er 0.181920(14) 0.620700(13) -0.036740(10)
Er2 Er 0.501134(13) 0.496114(12) 0.258790(10)
Er3 Er 0.192252(14) 0.612083(13) 0.497062(10)
Er4 Er 0.014780(14) 0.548890(13) 0.241590(10)
O1 O 0.0149(2) 0.3099(2) 0.48990(16)
O2 O 0.0123(2) 0.4286(2) 0.36918(17)
O3 O 0.1692(2) 0.4642(2) 0.45839(17)
O4 O 0.3551(2) 0.4572(2) 0.37891(17)
O5 O 0.1818(2) 0.6877(2) 0.35083(16)
O6 O 0.3484(2) 0.6486(2) 0.23348(18)
O7 O 0.1034(3) 0.6773(2) 0.18946(17)
O8 O 0.1203(2) 0.7565(2) 0.04735(16)
O9 O 0.1472(2) 0.6886(2) -0.36948(16)
O10 O 0.1369(2) 0.8019(2) -0.49338(17)
O11 O 0.3529(2) 0.6594(2) -0.29015(17)
O12 O 0.1771(2) 0.6933(2) -0.17973(16)
O13 O 0.6558(2) 0.3308(2) 0.0881(2)
O14 O 0.4687(2) 0.4256(2) 0.16188(18)
O15 O 0.2801(2) 0.5039(2) 0.05852(17)
O16 O 0.2055(2) 0.4339(2) 0.19834(19)
O17 O 0.8127(2) 0.6195(2) 0.28840(17)
O18 O 0.7282(2) 0.5294(2) 0.41225(18)
O19 O 0.5334(2) 0.5872(2) 0.33743(17)
O20 O 0.3685(2) 0.6353(2) 0.4541(2)
O21 O 0.0009(2) 0.60173(19) 0.09624(15)
O22 O -0.0270(2) 0.6924(2) -0.03306(16)
O23 O -0.1679(2) 0.5313(2) 0.06085(18)
O24 O -0.3535(2) 0.5412(2) 0.14157(17)
O25 O -0.0266(3) 0.6438(3) 0.3577(2)
O26 O -0.0223(4) 0.4105(3) 0.2098(3)
H25 H -0.016(5) 0.402(5) 0.163(4)
H26 H -0.055(5) 0.380(4) 0.243(3)
H27 H 0.025(4) 0.669(4) 0.357(3)
H28 H -0.050(5) 0.619(5) 0.400(4)
Er1A Er 0.818080(14) 0.379300(13) 0.036740(10)
Er1A_2 Er -0.181920(14) 0.379300(13) 0.036740(10)
Er2A Er 0.498866(13) 0.503886(12) -0.258790(10)
Er2_2 Er -0.498866(13) 0.496114(12) 0.258790(10)
Er3A Er -0.192252(14) 0.387917(13) 0.502938(10)
Er3_2 Er 0.192252(14) 0.612083(13) -0.502938(10)
Er3A_2 Er 0.807748(14) 0.387917(13) 0.502938(10)
Er4_2 Er 1.014780(14) 0.548890(13) 0.241590(10)
O1A O -0.0149(2) 0.6901(2) 0.51010(16)
O2A O -0.0123(2) 0.5714(2) 0.63082(17)
O9_2 O 0.1472(2) 0.6886(2) 0.63052(16)
O10_2 O 0.1369(2) 0.8019(2) 0.50662(17)
O11A O 0.6471(2) 0.3406(2) 0.29015(17)
O13A O 0.3442(2) 0.6692(2) -0.0881(2)
O17_2 O -0.1873(2) 0.6195(2) 0.28840(17)
O18A O 0.2718(2) 0.4706(2) 0.58775(18)
O23A O 0.1679(2) 0.4687(2) -0.06085(18)
O24A O 0.3535(2) 0.4588(2) -0.14157(17)
O24_2 O 0.6465(2) 0.5412(2) 0.14157(17)
loop_
_geom_bond_atom_site_label_1
_geom_bond_atom_site_label_2
_geom_bond_site_symmetry_1
_geom_bond_site_symmetry_2
C1 C2 1_555 1_555
C2 H1 1_555 1_555
C3 C2 1_555 1_555
H2 C3 1_555 1_555
C4 C3 1_555 1_555
H3 C4 1_555 1_555
C5 C4 1_555 1_555
H4 C5 1_555 1_555
C6 C1 1_555 1_555
C7 C1 1_555 1_555
C8 C6 1_555 1_555
C9 C10 1_555 1_555
C10 H5 1_555 1_555
C11 C10 1_555 1_555
H6 C11 1_555 1_555
C12 C11 1_555 1_555
H7 C12 1_555 1_555
C13 C12 1_555 1_555
H8 C13 1_555 1_555
C14 C9 1_555 1_555
C15 C9 1_555 1_555
C16 C14 1_555 1_555
C17 C18 1_555 1_555
C18 H9 1_555 1_555
C19 C18 1_555 1_555
H10 C19 1_555 1_555
C20 C19 1_555 1_555
H11 C20 1_555 1_555
C21 C20 1_555 1_555
H12 C21 1_555 1_555
C22 C17 1_555 1_555
C23 C17 1_555 1_555
C24 C22 1_555 1_555
C25 C26 1_555 1_555
C26 H13 1_555 1_555
C27 C26 1_555 1_555
H14 C27 1_555 1_555
C28 C27 1_555 1_555
H15 C28 1_555 1_555
C29 C28 1_555 1_555
H16 C29 1_555 1_555
C30 C25 1_555 1_555
C31 C25 1_555 1_555
C32 C30 1_555 1_555
C33 C34 1_555 1_555
C34 H17 1_555 1_555
C35 C34 1_555 1_555
H18 C35 1_555 1_555
C36 C35 1_555 1_555
H19 C36 1_555 1_555
C37 C36 1_555 1_555
H20 C37 1_555 1_555
C38 C33 1_555 1_555
C39 C33 1_555 1_555
C40 C38 1_555 1_555
C41 C42 1_555 1_555
C42 C43 1_555 1_555
C43 H21 1_555 1_555
C44 C43 1_555 1_555
H22 C44 1_555 1_555
C45 C44 1_555 1_555
H23 C45 1_555 1_555
C46 C41 1_555 1_555
H24 C46 1_555 1_555
C47 C41 1_555 1_555
C48 C42 1_555 1_555
Er1 O8 1_555 1_555
Er2 O4 1_555 1_555
Er3 O3 1_555 1_555
Er4 O2 1_555 1_555
O1 C7 1_555 1_555
O2 C7 1_555 1_555
O3 C8 1_555 1_555
O4 C8 1_555 1_555
O5 C15 1_555 1_555
O6 C15 1_555 1_555
O7 C16 1_555 1_555
O8 C16 1_555 1_555
O9 C23 1_555 1_555
O10 C23 1_555 1_555
O11 C24 1_555 1_555
O12 C24 1_555 1_555
O13 C32 1_555 1_555
O14 C32 1_555 1_555
O15 C31 1_555 1_555
O16 C31 1_555 1_555
O17 C47 1_555 1_555
O18 C47 1_555 1_555
O19 C48 1_555 1_555
O20 C48 1_555 1_555
O21 C40 1_555 1_555
O22 C40 1_555 1_555
O23 C39 1_555 1_555
O24 C39 1_555 1_555
O25 Er4 1_555 1_555
O26 Er4 1_555 1_555
H25 O26 1_555 1_555
H26 O26 1_555 1_555
H27 O25 1_555 1_555
H28 O25 1_555 1_555
Er1A O13 1_555 1_555
Er1A_2 O23 1_555 1_555
Er2A O11 1_555 1_555
Er2_2 O24 1_555 1_555
Er3A O1 1_555 1_555
Er3_2 O9 1_555 1_555
Er3A_2 O18 1_555 1_555
Er4_2 O17 1_555 1_555
O1A Er3 1_555 1_555
O2A Er3 1_555 1_555
O9_2 Er3 1_555 1_555
O10_2 Er3 1_555 1_555
O11A Er2 1_555 1_555
O13A Er1 1_555 1_555
O17_2 Er4 1_555 1_555
O18A Er3 1_555 1_555
O23A Er1 1_555 1_555
O24A Er1 1_555 1_555
O24_2 Er2 1_555 1_555
C5 C6 1_555 1_555
C13 C14 1_555 1_555
C21 C22 1_555 1_555
C29 C30 1_555 1_555
C37 C38 1_555 1_555
C45 C46 1_555 1_555
Er1 O12 1_555 1_555
Er1 O15 1_555 1_555
Er1 O21 1_555 1_555
Er1 O22 1_555 1_555
Er2 O6 1_555 1_555
Er2 O14 1_555 1_555
Er2 O19 1_555 1_555
Er3 O4 1_555 1_555
Er3 O5 1_555 1_555
Er3 O20 1_555 1_555
Er4 O7 1_555 1_555
Er4 O16 1_555 1_555
Er4 O21 1_555 1_555
O2 Er3A 1_555 1_555
O10 Er3_2 1_555 1_555
O24 Er1A_2 1_555 1_555
Er1A O24_2 1_555 1_555
Er2A O24A 1_555 1_555

#END
