
#######################################################################
#
#                 Cambridge Crystallographic Data Centre
#                                CCDC 
#
#######################################################################
#
# If this CIF has been generated from an entry in the Cambridge 
# Structural Database, then it will include bibliographic, chemical, 
# crystal, experimental, refinement or atomic coordinate data resulting 
# from the CCDC's data processing and validation procedures.
#
#######################################################################

data_YURJAX
_symmetry_cell_setting           triclinic
_symmetry_space_group_name_H-M   'P -1'
_symmetry_Int_Tables_number      2
_space_group_name_Hall           '-P 1'
loop_
_symmetry_equiv_pos_site_id
_symmetry_equiv_pos_as_xyz
1 x,y,z
2 -x,-y,-z
_cell_length_a                   8.135(2)
_cell_length_b                   8.834(3)
_cell_length_c                   10.015(3)
_cell_angle_alpha                70.545(4)
_cell_angle_beta                 71.103(4)
_cell_angle_gamma                75.785(4)
_cell_volume                     634.359
loop_
_atom_site_label
_atom_site_type_symbol
_atom_site_fract_x
_atom_site_fract_y
_atom_site_fract_z
Cu1 Cu 0.04022(4) 0.15036(3) 0.87984(3)
N1 N -0.0829(3) 0.3071(3) 0.7331(2)
N2 N -0.0530(3) 0.5375(3) 0.7869(2)
H1 H -0.1180 0.6216 0.8119
N3 N 0.1737(3) 0.3285(2) 0.8552(2)
O1 O 0.2310(2) 0.0442(3) 0.7060(2)
C1 C 0.5204(3) -0.0105(3) 0.5610(3)
H2 H 0.6387 -0.0242 0.5573
O3 O 0.1368(2) -0.0031(2) 1.04007(18)
C2 C -0.1404(4) 0.2457(3) 0.6518(3)
H3 H -0.1123 0.1347 0.6615
C3 C -0.2375(4) 0.3393(4) 0.5565(3)
H4 H -0.2758 0.2928 0.5033
C4 C -0.2779(4) 0.5055(4) 0.5406(3)
H5 H -0.3455 0.5716 0.4774
C5 C -0.2179(4) 0.5711(3) 0.6179(3)
H6 H -0.2431 0.6823 0.6076
C6 C -0.1178(3) 0.4686(3) 0.7133(3)
C7 C 0.1046(3) 0.4870(3) 0.8252(3)
C8 C 0.1878(4) 0.6062(3) 0.8297(3)
H7 H 0.1350 0.7144 0.8124
C9 C 0.3477(4) 0.5600(4) 0.8599(3)
H8 H 0.4049 0.6367 0.8641
C10 C 0.4247(4) 0.3976(4) 0.8842(3)
H9 H 0.5352 0.3646 0.9020
C11 C 0.3345(3) 0.2875(3) 0.8813(3)
H10 H 0.3861 0.1790 0.8981
C12 C 0.3877(3) -0.0135(3) 0.7063(3)
O4 O 0.4435(2) -0.0761(2) 0.81960(19)
H13 H 0.229(3) -0.044(5) 0.994(4)
Cu1A Cu -0.04022(4) -0.15036(3) 1.12016(3)
Cu1A_2 Cu 0.95978(4) -0.15036(3) 0.12016(3)
N1A N 0.0829(3) -0.3071(3) 1.2669(2)
N2A N 0.0530(3) -0.5375(3) 1.2131(2)
H1A H 0.1180 -0.6216 1.1881
N3A N -0.1737(3) -0.3285(2) 1.1448(2)
O1A O 0.7690(2) -0.0442(3) 0.2940(2)
O1A_2 O -0.2310(2) -0.0442(3) 1.2940(2)
C1A C 0.4796(3) 0.0105(3) 0.4390(3)
H2A H 0.3613 0.0242 0.4427
O3A O -0.1368(2) 0.0031(2) 0.95993(18)
C2A C 0.1404(4) -0.2457(3) 1.3482(3)
H3A H 0.1123 -0.1347 1.3385
C3A C 0.2375(4) -0.3393(4) 1.4435(3)
H4A H 0.2758 -0.2928 1.4967
C4A C 0.2779(4) -0.5055(4) 1.4594(3)
H5A H 0.3455 -0.5716 1.5226
C5A C 0.2179(4) -0.5711(3) 1.3821(3)
H6A H 0.2431 -0.6823 1.3924
C6A C 0.1178(3) -0.4686(3) 1.2867(3)
C7A C -0.1046(3) -0.4870(3) 1.1748(3)
C8A C -0.1878(4) -0.6062(3) 1.1703(3)
H7A H -0.1350 -0.7144 1.1876
C9A C -0.3477(4) -0.5600(4) 1.1401(3)
H8A H -0.4049 -0.6367 1.1359
C10A C -0.4247(4) -0.3976(4) 1.1158(3)
H9A H -0.5352 -0.3646 1.0980
C11A C -0.3345(3) -0.2875(3) 1.1187(3)
H10A H -0.3861 -0.1790 1.1019
C12A C 0.6123(3) 0.0135(3) 0.2937(3)
O4A O 0.5565(2) 0.0761(2) 0.18040(19)
H13A H -0.229(3) 0.044(5) 1.006(4)
O2 O 0.1970(3) 0.1399(2) 0.2234(2)
H11 H 0.170(4) 0.098(5) 0.172(4)
H12 H 0.3051(15) 0.125(5) 0.207(4)
loop_
_geom_bond_atom_site_label_1
_geom_bond_atom_site_label_2
_geom_bond_site_symmetry_1
_geom_bond_site_symmetry_2
Cu1 N1 1_555 1_555
N1 C2 1_555 1_555
N2 H1 1_555 1_555
N3 Cu1 1_555 1_555
O1 Cu1 1_555 1_555
C1 H2 1_555 1_555
O2 H11 1_555 1_555
O3 Cu1 1_555 1_555
C2 H3 1_555 1_555
C3 C2 1_555 1_555
H4 C3 1_555 1_555
C4 C3 1_555 1_555
H5 C4 1_555 1_555
C5 C4 1_555 1_555
H6 C5 1_555 1_555
C6 N1 1_555 1_555
C7 N2 1_555 1_555
C8 C7 1_555 1_555
H7 C8 1_555 1_555
C9 C8 1_555 1_555
H8 C9 1_555 1_555
C10 C9 1_555 1_555
H9 C10 1_555 1_555
C11 N3 1_555 1_555
H10 C11 1_555 1_555
C12 O1 1_555 1_555
O4 C12 1_555 1_555
H12 O2 1_555 1_555
H13 O3 1_555 1_555
Cu1A O3 1_555 1_555
Cu1A_2 O1A 1_555 1_555
N1A Cu1A 1_555 1_555
N2A H1A 1_555 1_555
N3A Cu1A 1_555 1_555
O1A C12A 1_555 1_555
O1A_2 Cu1A 1_555 1_555
C1A C1 1_555 1_555
H2A C1A 1_555 1_555
O3A Cu1 1_555 1_555
C2A N1A 1_555 1_555
H3A C2A 1_555 1_555
C3A C2A 1_555 1_555
H4A C3A 1_555 1_555
C4A C3A 1_555 1_555
H5A C4A 1_555 1_555
C5A C4A 1_555 1_555
H6A C5A 1_555 1_555
C6A N1A 1_555 1_555
C7A N2A 1_555 1_555
C8A C7A 1_555 1_555
H7A C8A 1_555 1_555
C9A C8A 1_555 1_555
H8A C9A 1_555 1_555
C10A C9A 1_555 1_555
H9A C10A 1_555 1_555
C11A N3A 1_555 1_555
H10A C11A 1_555 1_555
C12A C1A 1_555 1_555
O4A C12A 1_555 1_555
H13A O3A 1_555 1_555
N2 C6 1_555 1_555
N3 C7 1_555 1_555
C1 C12 1_555 1_555
C5 C6 1_555 1_555
C10 C11 1_555 1_555
Cu1A O3A 1_555 1_555
N2A C6A 1_555 1_555
N3A C7A 1_555 1_555
C5A C6A 1_555 1_555
C10A C11A 1_555 1_555

#END
