
#######################################################################
#
#                 Cambridge Crystallographic Data Centre
#                                CCDC 
#
#######################################################################
#
# If this CIF has been generated from an entry in the Cambridge 
# Structural Database, then it will include bibliographic, chemical, 
# crystal, experimental, refinement or atomic coordinate data resulting 
# from the CCDC's data processing and validation procedures.
#
#######################################################################

data_YURMOO
_symmetry_cell_setting           monoclinic
_symmetry_space_group_name_H-M   'C c'
_symmetry_Int_Tables_number      9
_space_group_name_Hall           'C -2yc'
loop_
_symmetry_equiv_pos_site_id
_symmetry_equiv_pos_as_xyz
1 x,y,z
2 x,-y,1/2+z
3 1/2+x,1/2+y,z
4 1/2+x,1/2-y,1/2+z
_cell_length_a                   7.7735(3)
_cell_length_b                   17.1093(7)
_cell_length_c                   12.1845(6)
_cell_angle_alpha                90
_cell_angle_beta                 97.463(3)
_cell_angle_gamma                90
_cell_volume                     1606.8
loop_
_atom_site_label
_atom_site_type_symbol
_atom_site_fract_x
_atom_site_fract_y
_atom_site_fract_z
Cd1 Cd 0.36028(11) 0.350190(7) 0.46421(9)
O1 O 0.5628(2) 0.34037(9) 0.64466(16)
O2 O 0.44829(19) 0.45127(10) 0.59070(15)
O3 O 0.6157(2) 0.44159(11) 0.74338(17)
O4 O 0.1628(3) 0.33423(11) 0.2809(2)
O5 O 0.2844(2) 0.44272(11) 0.33920(17)
O6 O 0.1120(4) 0.44142(17) 0.1810(2)
N1 N 0.21088(19) 0.24916(11) 0.53849(17)
N2 N 0.0346(2) 0.38472(11) 0.50294(17)
N3 N -0.3138(2) 0.39400(12) 0.42406(18)
N4 N -0.4909(2) 0.24985(10) 0.38758(16)
N5 N 0.5413(2) 0.40955(10) 0.66304(17)
N6 N 0.1812(2) 0.40652(19) 0.2665(2)
C1 C 0.2962(3) 0.18554(12) 0.5936(2)
H1 H 0.4165 0.1834 0.5983
C2 C 0.2180(3) 0.13003(15) 0.6380(3)
H2 H 0.2817 0.0880 0.6702
C3 C 0.0350(3) 0.13211(15) 0.6385(2)
H3 H -0.0247 0.0921 0.6688
C4 C -0.0489(3) 0.19825(15) 0.5904(2)
H4 H -0.1673 0.2044 0.5923
C5 C 0.0404(3) 0.25413(11) 0.54070(19)
C6 C -0.0587(3) 0.32433(13) 0.4868(2)
C7 C -0.0577(3) 0.45753(13) 0.47714(17)
H5 H 0.0002 0.5052 0.4808
C8 C -0.2366(3) 0.45301(15) 0.4466(3)
H6 H -0.2998 0.4993 0.4437
C9 C -0.2295(2) 0.31981(13) 0.43643(19)
C10 C -0.3137(2) 0.24835(14) 0.3897(2)
C11 C -0.2300(3) 0.19170(13) 0.3362(2)
H7 H -0.1105 0.1931 0.3355
C12 C -0.3294(3) 0.13315(14) 0.2839(2)
H8 H -0.2758 0.0951 0.2457
C13 C -0.4993(3) 0.12882(14) 0.28590(19)
H9 H -0.5654 0.0873 0.2545
C14 C -0.5760(3) 0.19422(15) 0.3411(2)
H10 H -0.6955 0.1942 0.3415
Cd1_2 Cd -0.63972(11) 0.350190(7) 0.46421(9)
N4_2 N 0.5091(2) 0.24985(10) 0.38758(16)
loop_
_geom_bond_atom_site_label_1
_geom_bond_atom_site_label_2
_geom_bond_site_symmetry_1
_geom_bond_site_symmetry_2
Cd1 O1 1_555 1_555
O1 N5 1_555 1_555
O2 Cd1 1_555 1_555
O3 N5 1_555 1_555
O4 Cd1 1_555 1_555
O5 Cd1 1_555 1_555
O6 N6 1_555 1_555
N1 Cd1 1_555 1_555
N2 C6 1_555 1_555
N3 C8 1_555 1_555
N4 C10 1_555 1_555
N5 O2 1_555 1_555
N6 O4 1_555 1_555
C1 N1 1_555 1_555
H1 C1 1_555 1_555
C2 C1 1_555 1_555
H2 C2 1_555 1_555
C3 C2 1_555 1_555
H3 C3 1_555 1_555
C4 C3 1_555 1_555
H4 C4 1_555 1_555
C5 N1 1_555 1_555
C6 C5 1_555 1_555
C7 N2 1_555 1_555
H5 C7 1_555 1_555
C8 C7 1_555 1_555
H6 C8 1_555 1_555
C9 N3 1_555 1_555
C10 C9 1_555 1_555
C11 C10 1_555 1_555
H7 C11 1_555 1_555
C12 C11 1_555 1_555
H8 C12 1_555 1_555
C13 C12 1_555 1_555
H9 C13 1_555 1_555
C14 N4 1_555 1_555
H10 C14 1_555 1_555
Cd1_2 N4 1_555 1_555
N4_2 Cd1 1_555 1_555
O5 N6 1_555 1_555
C4 C5 1_555 1_555
C6 C9 1_555 1_555
C13 C14 1_555 1_555

#END
