
#######################################################################
#
#                 Cambridge Crystallographic Data Centre
#                                CCDC 
#
#######################################################################
#
# If this CIF has been generated from an entry in the Cambridge 
# Structural Database, then it will include bibliographic, chemical, 
# crystal, experimental, refinement or atomic coordinate data resulting 
# from the CCDC's data processing and validation procedures.
#
#######################################################################

data_YURNOP
_symmetry_cell_setting           monoclinic
_symmetry_space_group_name_H-M   'P 21/c'
_symmetry_Int_Tables_number      14
_space_group_name_Hall           '-P 2ybc'
loop_
_symmetry_equiv_pos_site_id
_symmetry_equiv_pos_as_xyz
1 x,y,z
2 -x,1/2+y,1/2-z
3 -x,-y,-z
4 x,1/2-y,1/2+z
_cell_length_a                   5.5095(12)
_cell_length_b                   15.195(3)
_cell_length_c                   13.398(3)
_cell_angle_alpha                90
_cell_angle_beta                 93.927(3)
_cell_angle_gamma                90
_cell_volume                     1119
loop_
_atom_site_label
_atom_site_type_symbol
_atom_site_fract_x
_atom_site_fract_y
_atom_site_fract_z
U1 U 0.22247(5) 0.459978(18) 0.28611(2)
O1 O -0.0365(10) 0.5153(4) 0.3270(4)
O2 O 0.4790(10) 0.4069(4) 0.2417(4)
U2 U -0.47319(5) 0.185191(17) 0.04274(2)
O3 O -0.2242(10) 0.1398(4) -0.0170(4)
O4 O -0.7210(10) 0.2299(4) 0.1027(4)
C1 C -0.1310(13) 0.3524(5) 0.1186(5)
C2 C -0.1076(14) 0.2884(5) 0.2079(6)
O5 O -0.2618(10) 0.3288(4) 0.0446(4)
O6 O -0.0143(10) 0.4229(3) 0.1293(4)
O7 O -0.2198(9) 0.2166(3) 0.1982(4)
O8 O 0.0251(10) 0.3133(3) 0.2820(4)
O9 O 0.2598(9) 0.3969(4) 0.4434(4)
O10 O 0.4842(9) 0.5614(3) 0.3581(4)
O11 O 0.2217(11) 0.5827(4) 0.1645(4)
O12 O -0.6107(10) 0.2782(4) -0.1022(4)
U2C U 0.52681(5) 0.314809(17) 0.54274(2)
U2A U 0.47319(5) 0.685191(17) 0.45726(2)
O9C O -0.7402(9) 0.1031(4) -0.0566(4)
O10A O -0.4842(9) 0.0614(3) 0.1419(4)
O13 O -0.3236(19) 0.5547(4) 0.0486(5)
loop_
_geom_bond_atom_site_label_1
_geom_bond_atom_site_label_2
_geom_bond_site_symmetry_1
_geom_bond_site_symmetry_2
U1 O1 1_555 1_555
O2 U1 1_555 1_555
U2 O3 1_555 1_555
O4 U2 1_555 1_555
C1 C2 1_555 1_555
C2 O7 1_555 1_555
O5 U2 1_555 1_555
O6 U1 1_555 1_555
O7 U2 1_555 1_555
O8 U1 1_555 1_555
O9 U1 1_555 1_555
O10 U1 1_555 1_555
O11 U1 1_555 1_555
O12 U2 1_555 1_555
U2C O9 1_555 1_555
U2A O10 1_555 1_555
O9C U2 1_555 1_555
O10A U2 1_555 1_555
C1 O5 1_555 1_555
C1 O6 1_555 1_555
C2 O8 1_555 1_555

#END
