
#######################################################################
#
#                 Cambridge Crystallographic Data Centre
#                                CCDC 
#
#######################################################################
#
# If this CIF has been generated from an entry in the Cambridge 
# Structural Database, then it will include bibliographic, chemical, 
# crystal, experimental, refinement or atomic coordinate data resulting 
# from the CCDC's data processing and validation procedures.
#
#######################################################################

data_YURNOP01
_symmetry_cell_setting           monoclinic
_symmetry_space_group_name_H-M   'P 21/c'
_symmetry_Int_Tables_number      14
_space_group_name_Hall           '-P 2ybc'
loop_
_symmetry_equiv_pos_site_id
_symmetry_equiv_pos_as_xyz
1 x,y,z
2 -x,1/2+y,1/2-z
3 -x,-y,-z
4 x,1/2-y,1/2+z
_cell_length_a                   5.566(2)
_cell_length_b                   15.263(3)
_cell_length_c                   13.372(2)
_cell_angle_alpha                90
_cell_angle_beta                 93.99(2)
_cell_angle_gamma                90
_cell_volume                     1133.25
loop_
_atom_site_label
_atom_site_type_symbol
_atom_site_fract_x
_atom_site_fract_y
_atom_site_fract_z
U1 U 0.28021(11) 0.53937(4) 0.71413(5)
U2 U 0.96871(11) 0.81472(4) 0.95785(5)
O1 O 0.284(3) 0.4159(9) 0.8355(11)
H1 H 0.26(5) 0.415(9) 0.897(5)
H2 H 0.25(5) 0.364(3) 0.814(4)
O2 O 1.106(3) 0.7223(8) 1.1025(12)
H3 H 1.250(12) 0.727(10) 1.129(10)
H4 H 1.020(18) 0.717(11) 1.153(7)
C1 C 0.628(3) 0.6459(9) 0.8832(14)
C2 C 0.603(3) 0.7113(10) 0.7931(11)
O3 O 0.472(2) 0.6865(7) 0.7189(10)
O4 O 0.514(3) 0.5771(8) 0.8707(11)
O5 O 0.759(3) 0.6704(8) 0.9557(11)
O6 O 0.720(2) 0.7816(8) 0.8028(10)
O7 O 0.026(2) 0.5916(8) 0.7596(11)
O8 O 0.537(2) 0.4863(7) 0.6731(9)
O9 O 0.728(2) 0.8594(8) 1.0175(10)
O10 O 1.212(2) 0.7690(8) 0.9007(11)
O11 O 0.023(2) 0.4379(8) 0.6419(12)
H5 H -0.119(12) 0.453(15) 0.664(8)
O12 O 0.234(2) 0.6044(8) 0.5579(11)
H6 H 0.387(14) 0.608(10) 0.540(16)
U2A U 0.03129(11) 0.31472(4) 0.54215(5)
U2C U -0.03129(11) 0.68528(4) 0.45785(5)
O11A O 0.977(2) 0.9379(8) 0.8581(12)
O12C O 1.234(2) 0.8956(8) 1.0579(11)
O13 O 0.820(4) 0.4441(11) 0.9523(17)
H7 H 0.89(6) 0.411(19) 0.912(17)
H8 H 0.74(6) 0.481(17) 0.915(18)
loop_
_geom_bond_atom_site_label_1
_geom_bond_atom_site_label_2
_geom_bond_site_symmetry_1
_geom_bond_site_symmetry_2
U1 O1 1_555 1_555
U2 O2 1_555 1_555
O1 H1 1_555 1_555
H2 O1 1_555 1_555
O2 H3 1_555 1_555
H4 O2 1_555 1_555
C1 C2 1_555 1_555
C2 O3 1_555 1_555
O3 U1 1_555 1_555
O4 U1 1_555 1_555
O5 U2 1_555 1_555
O6 U2 1_555 1_555
O7 U1 1_555 1_555
O8 U1 1_555 1_555
O9 U2 1_555 1_555
O10 U2 1_555 1_555
O11 U1 1_555 1_555
H5 O11 1_555 1_555
O12 U1 1_555 1_555
H6 O12 1_555 1_555
O13 H7 1_555 1_555
H8 O13 1_555 1_555
U2A O11 1_555 1_555
U2C O12 1_555 1_555
O11A U2 1_555 1_555
O12C U2 1_555 1_555
C1 O4 1_555 1_555
C1 O5 1_555 1_555
C2 O6 1_555 1_555

#END
