
#######################################################################
#
#                 Cambridge Crystallographic Data Centre
#                                CCDC 
#
#######################################################################
#
# If this CIF has been generated from an entry in the Cambridge 
# Structural Database, then it will include bibliographic, chemical, 
# crystal, experimental, refinement or atomic coordinate data resulting 
# from the CCDC's data processing and validation procedures.
#
#######################################################################

data_YURRUY
_symmetry_cell_setting           orthorhombic
_symmetry_space_group_name_H-M   'P n n a'
_symmetry_Int_Tables_number      52
_space_group_name_Hall           '-P 2a 2bc'
loop_
_symmetry_equiv_pos_site_id
_symmetry_equiv_pos_as_xyz
1 x,y,z
2 1/2-x,-y,z
3 x,1/2-y,1/2-z
4 1/2-x,1/2+y,1/2-z
5 -x,-y,-z
6 1/2+x,y,-z
7 -x,1/2+y,1/2+z
8 1/2+x,1/2-y,1/2+z
_cell_length_a                   9.252(5)
_cell_length_b                   15.228(12)
_cell_length_c                   17.024(13)
_cell_angle_alpha                90
_cell_angle_beta                 90
_cell_angle_gamma                90
_cell_volume                     2398.5
loop_
_atom_site_label
_atom_site_type_symbol
_atom_site_fract_x
_atom_site_fract_y
_atom_site_fract_z
P1 P 0.1377(1) -0.1100(1) -0.49155(8)
O1 O 0.0789(3) 0.0533(3) -0.3333(2)
C1 C 0.1104(5) -0.2237(4) -0.4559(2)
C2 C 0.0427(6) -0.2859(4) -0.5161(3)
C3 C 0.0226(6) -0.3764(5) -0.4859(3)
C4 C -0.0720(5) -0.3790(5) -0.4123(3)
C5 C -0.0093(6) -0.3167(5) -0.3500(3)
C6 C 0.0121(5) -0.2263(4) -0.3808(3)
C7 C 0.1492(7) 0.1093(6) -0.2849(3)
C8 C 0.0613(9) 0.1172(7) -0.2123(4)
C9 C -0.0887(7) 0.0947(7) -0.2400(4)
C10 C -0.0549(5) 0.0258(5) -0.2993(3)
Li1 Li 0.1080(8) 0.0531(8) -0.4495(4)
H1 H 0.220(4) -0.133(4) -0.557(2)
H2 H 0.2058(5) -0.2445(4) -0.4438(2)
H3 H 0.1048(6) -0.2879(4) -0.5613(3)
H4 H -0.0498(6) -0.2626(4) -0.5310(3)
H5 H -0.0239(6) -0.4106(5) -0.5260(3)
H6 H 0.1154(6) -0.4014(5) -0.4742(3)
H7 H -0.1687(5) -0.3612(5) -0.4251(3)
H8 H -0.0733(5) -0.4377(5) -0.3917(3)
H9 H 0.0823(6) -0.3392(5) -0.3328(3)
H10 H -0.0746(6) -0.3142(5) -0.3063(3)
H11 H -0.0805(5) -0.2022(4) -0.3942(3)
H12 H 0.0562(5) -0.1910(4) -0.3407(3)
H13 H 0.2447(7) 0.0882(6) -0.2735(3)
H14 H 0.1555(7) 0.1662(6) -0.3089(3)
H15 H 0.0953(9) 0.0759(7) -0.1739(4)
H16 H 0.0635(9) 0.1753(7) -0.1904(4)
H17 H -0.1370(7) 0.1445(7) -0.2624(4)
H18 H -0.1465(7) 0.0709(7) -0.1982(4)
H19 H -0.1297(5) 0.0238(5) -0.3383(3)
H20 H -0.0445(5) -0.0310(5) -0.2756(3)
Li1A Li 0.3920(8) -0.0531(8) -0.4495(4)
P1A P 0.3623(1) 0.1100(1) -0.49155(8)
P1D P -0.1377(1) 0.1100(1) -0.50845(8)
Li1D Li -0.1080(8) -0.0531(8) -0.5505(4)
H1A H 0.280(4) 0.133(4) -0.557(2)
H1D H -0.220(4) 0.133(4) -0.443(2)
loop_
_geom_bond_atom_site_label_1
_geom_bond_atom_site_label_2
_geom_bond_site_symmetry_1
_geom_bond_site_symmetry_2
P1 C1 1_555 1_555
O1 C7 1_555 1_555
C1 C2 1_555 1_555
C2 C3 1_555 1_555
C3 C4 1_555 1_555
C4 C5 1_555 1_555
C5 C6 1_555 1_555
C6 C1 1_555 1_555
C7 C8 1_555 1_555
C8 C9 1_555 1_555
C9 C10 1_555 1_555
C10 O1 1_555 1_555
Li1 P1 1_555 1_555
H1 P1 1_555 1_555
H2 C1 1_555 1_555
H3 C2 1_555 1_555
H4 C2 1_555 1_555
H5 C3 1_555 1_555
H6 C3 1_555 1_555
H7 C4 1_555 1_555
H8 C4 1_555 1_555
H9 C5 1_555 1_555
H10 C5 1_555 1_555
H11 C6 1_555 1_555
H12 C6 1_555 1_555
H13 C7 1_555 1_555
H14 C7 1_555 1_555
H15 C8 1_555 1_555
H16 C8 1_555 1_555
H17 C9 1_555 1_555
H18 C9 1_555 1_555
H19 C10 1_555 1_555
H20 C10 1_555 1_555
Li1A P1 1_555 1_555
P1A Li1 1_555 1_555
P1D Li1 1_555 1_555
Li1D P1 1_555 1_555
H1A P1A 1_555 1_555
H1D P1D 1_555 1_555
O1 Li1 1_555 1_555
Li1A P1A 1_555 1_555
P1D Li1D 1_555 1_555

#END
