
#######################################################################
#
#                 Cambridge Crystallographic Data Centre
#                                CCDC 
#
#######################################################################
#
# If this CIF has been generated from an entry in the Cambridge 
# Structural Database, then it will include bibliographic, chemical, 
# crystal, experimental, refinement or atomic coordinate data resulting 
# from the CCDC's data processing and validation procedures.
#
#######################################################################

data_YUSGUP
_symmetry_cell_setting           monoclinic
_symmetry_space_group_name_H-M   'P 21/c'
_symmetry_Int_Tables_number      14
_space_group_name_Hall           '-P 2ybc'
loop_
_symmetry_equiv_pos_site_id
_symmetry_equiv_pos_as_xyz
1 x,y,z
2 -x,1/2+y,1/2-z
3 -x,-y,-z
4 x,1/2-y,1/2+z
_cell_length_a                   11.870(2)
_cell_length_b                   11.798(2)
_cell_length_c                   17.924(4)
_cell_angle_alpha                90
_cell_angle_beta                 95.03(3)
_cell_angle_gamma                90
_cell_volume                     2500.45
loop_
_atom_site_label
_atom_site_type_symbol
_atom_site_fract_x
_atom_site_fract_y
_atom_site_fract_z
Cd1 Cd 0.45556(2) 0.34066(2) 0.990387(12)
O1 O 0.3872(3) 0.1577(2) 0.98153(15)
N1 N 0.3478(2) 0.3763(2) 0.87631(15)
C1 C 0.2466(3) 0.4243(3) 0.87615(19)
H1 H 0.2258 0.4566 0.9209
O2 O 0.5363(2) 0.1839(2) 0.91961(15)
C2 C 0.1699(3) 0.4293(3) 0.81304(19)
H2 H 0.0998 0.4655 0.8156
N2 N -0.4213(2) 0.3123(2) 0.09725(15)
O3 O 0.3063(2) 0.1143(2) 0.57324(14)
C3 C 0.1967(3) 0.3810(3) 0.74644(18)
O4 O 0.4052(2) -0.0255(2) 0.53562(14)
C4 C 0.3037(3) 0.3327(3) 0.74636(19)
H3 H 0.3274 0.3010 0.7022
C5 C 0.3744(3) 0.3318(3) 0.81135(19)
H4 H 0.4459 0.2978 0.8101
C6 C 0.1136(3) 0.3825(3) 0.68073(19)
H5 H 0.0479 0.4259 0.6842
C7 C 0.1231(3) 0.3281(3) 0.61698(19)
H6 H 0.1883 0.2837 0.6139
C8 C 0.0416(3) 0.3305(3) 0.55096(18)
C9 C -0.0565(3) 0.3939(3) 0.54713(19)
H7 H -0.0733 0.4370 0.5889
C10 C -0.1304(3) 0.3953(3) 0.48315(19)
H8 H -0.1969 0.4389 0.4821
C11 C -0.1077(3) 0.3329(3) 0.41991(19)
C12 C -0.0099(3) 0.2679(3) 0.42382(19)
H9 H 0.0065 0.2240 0.3823
C13 C 0.0637(3) 0.2669(3) 0.48803(19)
H10 H 0.1298 0.2227 0.4894
C14 C -0.1886(3) 0.3396(3) 0.35330(19)
H11 H -0.2571 0.3774 0.3588
C15 C -0.1747(3) 0.2972(3) 0.28536(19)
H12 H -0.1055 0.2619 0.2781
C16 C -0.2608(3) 0.3026(3) 0.22189(18)
C17 C -0.3728(3) 0.3349(3) 0.22853(19)
H13 H -0.3965 0.3542 0.2756
C18 C -0.4479(3) 0.3381(3) 0.16602(19)
H14 H -0.5228 0.3599 0.1719
C19 C -0.3154(3) 0.2796(3) 0.09027(19)
H15 H -0.2951 0.2599 0.0424
C20 C -0.2336(3) 0.2732(3) 0.15044(19)
H16 H -0.1599 0.2491 0.1429
C21 C 0.3369(3) 0.0223(3) 0.83382(19)
C22 C 0.2345(3) 0.0741(3) 0.8448(2)
H17 H 0.2226 0.1037 0.8921
C23 C 0.1499(3) 0.0826(4) 0.7871(2)
H18 H 0.0817 0.1192 0.7951
C24 C 0.1656(3) 0.0367(3) 0.7168(2)
H19 H 0.1080 0.0425 0.6776
C25 C 0.2656(3) -0.0170(3) 0.70522(19)
C26 C 0.3502(3) -0.0224(3) 0.76398(19)
H20 H 0.4190 -0.0577 0.7558
C27 C 0.4303(4) 0.0124(3) 0.8972(2)
H21 H 0.4991 -0.0162 0.8772
H22 H 0.4076 -0.0424 0.9341
C28 C 0.4559(4) 0.1257(3) 0.9356(2)
C29 C 0.2841(3) -0.0689(3) 0.62974(19)
H23 H 0.3346 -0.1343 0.6377
H24 H 0.2114 -0.0965 0.6065
C30 C 0.3341(3) 0.0126(3) 0.57652(17)
Cd1_2 Cd -0.54444(2) 0.34066(2) -0.009613(12)
Cd1C Cd 0.45556(2) 0.15934(2) 0.490387(12)
Cd1A Cd 0.54444(2) -0.15934(2) 0.509613(12)
N2_2 N 0.5787(2) 0.3123(2) 1.09725(15)
O3C O 0.3063(2) 0.3857(2) 1.07324(14)
O4A O 0.5948(2) 0.4745(2) 0.96438(14)
O4C O 0.4052(2) 0.5255(2) 1.03562(14)
C30C C 0.3341(3) 0.4874(3) 1.07652(17)
loop_
_geom_bond_atom_site_label_1
_geom_bond_atom_site_label_2
_geom_bond_site_symmetry_1
_geom_bond_site_symmetry_2
Cd1 O1 1_555 1_555
O1 C28 1_555 1_555
N1 Cd1 1_555 1_555
C1 N1 1_555 1_555
H1 C1 1_555 1_555
O2 Cd1 1_555 1_555
C2 C1 1_555 1_555
H2 C2 1_555 1_555
N2 C18 1_555 1_555
O3 C30 1_555 1_555
C3 C2 1_555 1_555
O4 C30 1_555 1_555
C4 C3 1_555 1_555
H3 C4 1_555 1_555
C5 N1 1_555 1_555
H4 C5 1_555 1_555
C6 C3 1_555 1_555
H5 C6 1_555 1_555
C7 C6 1_555 1_555
H6 C7 1_555 1_555
C8 C7 1_555 1_555
C9 C8 1_555 1_555
H7 C9 1_555 1_555
C10 C9 1_555 1_555
H8 C10 1_555 1_555
C11 C10 1_555 1_555
C12 C11 1_555 1_555
H9 C12 1_555 1_555
C13 C8 1_555 1_555
H10 C13 1_555 1_555
C14 C11 1_555 1_555
H11 C14 1_555 1_555
C15 C14 1_555 1_555
H12 C15 1_555 1_555
C16 C15 1_555 1_555
C17 C16 1_555 1_555
H13 C17 1_555 1_555
C18 C17 1_555 1_555
H14 C18 1_555 1_555
C19 N2 1_555 1_555
H15 C19 1_555 1_555
C20 C16 1_555 1_555
H16 C20 1_555 1_555
C21 C22 1_555 1_555
C22 H17 1_555 1_555
C23 C22 1_555 1_555
H18 C23 1_555 1_555
C24 C23 1_555 1_555
H19 C24 1_555 1_555
C25 C24 1_555 1_555
C26 C21 1_555 1_555
H20 C26 1_555 1_555
C27 C21 1_555 1_555
H21 C27 1_555 1_555
H22 C27 1_555 1_555
C28 O2 1_555 1_555
C29 C25 1_555 1_555
H23 C29 1_555 1_555
H24 C29 1_555 1_555
C30 C29 1_555 1_555
Cd1_2 N2 1_555 1_555
Cd1C O3 1_555 1_555
Cd1A O4 1_555 1_555
N2_2 Cd1 1_555 1_555
O3C Cd1 1_555 1_555
O4A Cd1 1_555 1_555
O4C Cd1 1_555 1_555
C30C O3C 1_555 1_555
O4 Cd1C 1_555 1_555
C4 C5 1_555 1_555
C12 C13 1_555 1_555
C19 C20 1_555 1_555
C25 C26 1_555 1_555
C27 C28 1_555 1_555
O4C C30C 1_555 1_555

#END
