
#######################################################################
#
#                 Cambridge Crystallographic Data Centre
#                                CCDC 
#
#######################################################################
#
# If this CIF has been generated from an entry in the Cambridge 
# Structural Database, then it will include bibliographic, chemical, 
# crystal, experimental, refinement or atomic coordinate data resulting 
# from the CCDC's data processing and validation procedures.
#
#######################################################################

data_YUSHAW
_symmetry_cell_setting           monoclinic
_symmetry_space_group_name_H-M   'P 21/c'
_symmetry_Int_Tables_number      14
_space_group_name_Hall           '-P 2ybc'
loop_
_symmetry_equiv_pos_site_id
_symmetry_equiv_pos_as_xyz
1 x,y,z
2 -x,1/2+y,1/2-z
3 -x,-y,-z
4 x,1/2-y,1/2+z
_cell_length_a                   11.804(2)
_cell_length_b                   11.912(2)
_cell_length_c                   18.226(4)
_cell_angle_alpha                90
_cell_angle_beta                 96.12(3)
_cell_angle_gamma                90
_cell_volume                     2548.14
loop_
_atom_site_label
_atom_site_type_symbol
_atom_site_fract_x
_atom_site_fract_y
_atom_site_fract_z
Cd1 Cd -0.52971(11) 0.82295(11) -0.49354(6)
O1 O -0.4591(10) 0.6799(10) -0.5697(5)
C1 C -0.4397(14) 0.8306(13) -0.3170(6)
H1 H -0.5177 0.8399 -0.3124
N1 N -0.4115(12) 0.8076(13) -0.3827(7)
O2 O -0.6145(10) 0.6411(9) -0.5116(5)
C2 C -0.3647(15) 0.8428(12) -0.2531(8)
H2 H -0.3942 0.8612 -0.2087
N2 N -0.3548(13) 1.1379(12) -0.3981(7)
C3 C -0.2463(16) 0.8283(16) -0.2528(9)
O3 O -0.6046(11) 0.4492(13) -0.9706(6)
C4 C -0.2122(15) 0.7998(14) -0.3218(9)
H3 H -0.1346 0.7913 -0.3280
O4 O -0.6591(12) 0.6046(10) -0.9217(5)
C5 C -0.2974(16) 0.7838(14) -0.3824(9)
H4 H -0.2734 0.7545 -0.4260
C6 C -0.1630(18) 0.8922(19) -0.1946(9)
H5 H -0.0897 0.8510 -0.1907
C7 C -0.1844(17) 0.9231(18) -0.1173(8)
H6 H -0.2662 0.9167 -0.1104
C8 C -0.1055(11) 0.8660(12) -0.0501(5)
C9 C -0.1335(11) 0.9214(13) 0.0126(7)
H7 H -0.2052 0.9559 0.0126
C10 C -0.0557(13) 0.9258(13) 0.0754(6)
H8 H -0.0746 0.9633 0.1178
C11 C 0.0502(12) 0.8748(14) 0.0755(5)
C12 C 0.0783(11) 0.8194(14) 0.0127(6)
H9 H 0.1499 0.7849 0.0128
C13 C 0.0004(12) 0.8150(12) -0.0500(5)
H10 H 0.0194 0.7775 -0.0924
C14 C -0.1477(19) 1.0541(18) -0.1291(10)
H11 H -0.2187 1.0986 -0.1311
C15 C -0.133(2) 1.0236(18) -0.2061(10)
H12 H -0.0511 1.0295 -0.2128
C16 C -0.2031(18) 1.0882(18) -0.2716(10)
C17 C -0.1685(17) 1.0774(15) -0.3384(9)
H13 H -0.0949 1.0500 -0.3429
C18 C -0.2388(16) 1.1057(15) -0.4014(9)
H14 H -0.2096 1.1037 -0.4474
C19 C -0.3840(16) 1.1512(14) -0.3315(9)
H15 H -0.4586 1.1770 -0.3284
C20 C -0.3190(16) 1.1323(16) -0.2655(9)
H16 H -0.3463 1.1463 -0.2197
C21 C -0.6613(16) 0.5291(13) -0.6701(7)
C22 C -0.7588(15) 0.5904(18) -0.6655(10)
H17 H -0.7738 0.6181 -0.6192
C23 C -0.8391(15) 0.614(2) -0.7288(10)
H18 H -0.8979 0.6666 -0.7265
C24 C -0.8263(15) 0.5561(17) -0.7928(8)
H19 H -0.8809 0.5659 -0.8337
C25 C -0.7343(17) 0.4827(15) -0.7992(8)
C26 C -0.6547(15) 0.4707(13) -0.7380(6)
H20 H -0.5932 0.4216 -0.7413
C27 C -0.5745(18) 0.5032(13) -0.6024(7)
H21 H -0.5041 0.4731 -0.6188
H22 H -0.6060 0.4469 -0.5711
C28 C -0.5480(16) 0.6141(14) -0.5574(8)
C29 C -0.7206(16) 0.4254(14) -0.8726(7)
H23 H -0.7960 0.4061 -0.8972
H24 H -0.6776 0.3556 -0.8633
C30 C -0.6570(16) 0.5026(14) -0.9249(7)
Cd1A Cd -0.47029(11) 1.32295(11) -1.00646(6)
Cd1B Cd -0.47029(11) 1.17705(11) -0.50646(6)
Cd1A_2 Cd -0.47029(11) 0.32295(11) -1.00646(6)
Cd1C Cd -0.52971(11) 0.67705(11) -0.99354(6)
Cd1B_2 Cd 0.52971(11) 1.17705(11) 0.49354(6)
Cd1_2 Cd 0.47029(11) 0.82295(11) 0.50646(6)
O1A O -0.5409(10) 1.1799(10) -0.9303(5)
C1B C 0.4397(14) 1.1694(13) 0.3170(6)
H1B H 0.5177 1.1601 0.3124
N1B N 0.4115(12) 1.1924(13) 0.3827(7)
N1A N -0.5885(12) 1.3076(13) -1.1173(7)
O2A O -0.3855(10) 1.1411(9) -0.9884(5)
C2B C 0.3647(15) 1.1572(12) 0.2531(8)
H2B H 0.3942 1.1388 0.2087
N2B N 0.3548(13) 0.8621(12) 0.3981(7)
N2B_2 N -0.6452(13) 0.8621(12) -0.6019(7)
N2C N -0.3548(13) 1.3621(12) -0.8981(7)
C3B C 0.2463(16) 1.1717(16) 0.2528(9)
O3A O -0.3954(11) 0.9492(13) -0.5294(6)
O3_2 O -0.6046(11) 1.4492(13) -0.9706(6)
C4B C 0.2122(15) 1.2002(14) 0.3218(9)
H3B H 0.1346 1.2087 0.3280
O4A O -0.3409(12) 1.1046(10) -0.5783(5)
O4C O -0.6591(12) 0.8954(10) -0.4217(5)
O4B O -0.3409(12) 1.3954(10) -1.0783(5)
C5B C 0.2974(16) 1.2162(14) 0.3824(9)
H4B H 0.2734 1.2455 0.4260
C6B C 0.1630(18) 1.1078(19) 0.1946(9)
H5B H 0.0897 1.1490 0.1907
C7B C 0.1844(17) 1.0769(18) 0.1173(8)
H6B H 0.2662 1.0833 0.1104
C8B C 0.1055(11) 1.1340(12) 0.0501(5)
C9B C 0.1335(11) 1.0786(13) -0.0126(7)
H7B H 0.2052 1.0441 -0.0126
C10B C 0.0557(13) 1.0742(13) -0.0754(6)
H8B H 0.0746 1.0367 -0.1178
C11B C -0.0502(12) 1.1252(14) -0.0755(5)
C12B C -0.0783(11) 1.1806(14) -0.0127(6)
H9B H -0.1499 1.2151 -0.0128
C13B C -0.0004(12) 1.1850(12) 0.0500(5)
H10B H -0.0194 1.2225 0.0924
C14B C 0.1477(19) 0.9459(18) 0.1291(10)
H11B H 0.2187 0.9014 0.1311
C15B C 0.133(2) 0.9764(18) 0.2061(10)
H12B H 0.0511 0.9705 0.2128
C16B C 0.2031(18) 0.9118(18) 0.2716(10)
C17B C 0.1685(17) 0.9226(15) 0.3384(9)
H13B H 0.0949 0.9500 0.3429
C18B C 0.2388(16) 0.8943(15) 0.4014(9)
H14B H 0.2096 0.8963 0.4474
C19B C 0.3840(16) 0.8488(14) 0.3315(9)
H15B H 0.4586 0.8230 0.3284
C20B C 0.3190(16) 0.8677(16) 0.2655(9)
H16B H 0.3463 0.8537 0.2197
C21A C -0.3387(16) 1.0291(13) -0.8299(7)
C22A C -0.2412(15) 1.0904(18) -0.8345(10)
H17A H -0.2262 1.1181 -0.8808
C23A C -0.1609(15) 1.114(2) -0.7712(10)
H18A H -0.1021 1.1666 -0.7735
C24A C -0.1737(15) 1.0561(17) -0.7072(8)
H19A H -0.1191 1.0659 -0.6663
C25A C -0.2657(17) 0.9827(15) -0.7008(8)
C26A C -0.3453(15) 0.9707(13) -0.7620(6)
H20A H -0.4068 0.9216 -0.7587
C27A C -0.4255(18) 1.0032(13) -0.8976(7)
H21A H -0.4959 0.9731 -0.8812
H22A H -0.3940 0.9469 -0.9289
C28A C -0.4520(16) 1.1141(14) -0.9426(8)
C29A C -0.2794(16) 0.9254(14) -0.6274(7)
H23A H -0.2040 0.9061 -0.6028
H24A H -0.3224 0.8556 -0.6367
C30A C -0.3430(16) 1.0026(14) -0.5751(7)
loop_
_geom_bond_atom_site_label_1
_geom_bond_atom_site_label_2
_geom_bond_site_symmetry_1
_geom_bond_site_symmetry_2
Cd1 O1 1_555 1_555
O1 C28 1_555 1_555
C1 H1 1_555 1_555
N1 Cd1 1_555 1_555
O2 Cd1 1_555 1_555
C2 C1 1_555 1_555
H2 C2 1_555 1_555
N2 C18 1_555 1_555
C3 C2 1_555 1_555
O3 C30 1_555 1_555
C4 C3 1_555 1_555
H3 C4 1_555 1_555
O4 C30 1_555 1_555
C5 N1 1_555 1_555
H4 C5 1_555 1_555
C6 C3 1_555 1_555
H5 C6 1_555 1_555
C7 C6 1_555 1_555
H6 C7 1_555 1_555
C8 C7 1_555 1_555
C9 C8 1_555 1_555
H7 C9 1_555 1_555
C10 C9 1_555 1_555
H8 C10 1_555 1_555
C11 C10 1_555 1_555
C12 C11 1_555 1_555
H9 C12 1_555 1_555
C13 C8 1_555 1_555
H10 C13 1_555 1_555
C14 C7 1_555 1_555
H11 C14 1_555 1_555
C15 C6 1_555 1_555
H12 C15 1_555 1_555
C16 C15 1_555 1_555
C17 C16 1_555 1_555
H13 C17 1_555 1_555
C18 C17 1_555 1_555
H14 C18 1_555 1_555
C19 N2 1_555 1_555
H15 C19 1_555 1_555
C20 C16 1_555 1_555
H16 C20 1_555 1_555
C21 C22 1_555 1_555
C22 H17 1_555 1_555
C23 C22 1_555 1_555
H18 C23 1_555 1_555
C24 C23 1_555 1_555
H19 C24 1_555 1_555
C25 C24 1_555 1_555
C26 C21 1_555 1_555
H20 C26 1_555 1_555
C27 C21 1_555 1_555
H21 C27 1_555 1_555
H22 C27 1_555 1_555
C28 O2 1_555 1_555
C29 C25 1_555 1_555
H23 C29 1_555 1_555
H24 C29 1_555 1_555
C30 C29 1_555 1_555
Cd1A O1A 1_555 1_555
Cd1B N2 1_555 1_555
Cd1A_2 O3 1_555 1_555
Cd1C O4 1_555 1_555
Cd1B_2 N1B 1_555 1_555
Cd1_2 N2B 1_555 1_555
O1A C28A 1_555 1_555
C1B H1B 1_555 1_555
N1B C1B 1_555 1_555
N1A Cd1A 1_555 1_555
O2A Cd1A 1_555 1_555
C2B C1B 1_555 1_555
H2B C2B 1_555 1_555
N2B C18B 1_555 1_555
N2B_2 Cd1 1_555 1_555
N2C Cd1A 1_555 1_555
C3B C2B 1_555 1_555
O3A Cd1 1_555 1_555
O3_2 Cd1A 1_555 1_555
C4B C3B 1_555 1_555
H3B C4B 1_555 1_555
O4A Cd1B 1_555 1_555
O4C Cd1 1_555 1_555
O4B Cd1A 1_555 1_555
C5B N1B 1_555 1_555
H4B C5B 1_555 1_555
C6B C3B 1_555 1_555
H5B C6B 1_555 1_555
C7B C6B 1_555 1_555
H6B C7B 1_555 1_555
C8B C7B 1_555 1_555
C9B C8B 1_555 1_555
H7B C9B 1_555 1_555
C10B C9B 1_555 1_555
H8B C10B 1_555 1_555
C11B C14 1_555 1_555
C12B C11B 1_555 1_555
H9B C12B 1_555 1_555
C13B C8B 1_555 1_555
H10B C13B 1_555 1_555
C14B C11 1_555 1_555
H11B C14B 1_555 1_555
C15B C6B 1_555 1_555
H12B C15B 1_555 1_555
C16B C15B 1_555 1_555
C17B C16B 1_555 1_555
H13B C17B 1_555 1_555
C18B C17B 1_555 1_555
H14B C18B 1_555 1_555
C19B N2B 1_555 1_555
H15B C19B 1_555 1_555
C20B C16B 1_555 1_555
H16B C20B 1_555 1_555
C21A C22A 1_555 1_555
C22A H17A 1_555 1_555
C23A C22A 1_555 1_555
H18A C23A 1_555 1_555
C24A C23A 1_555 1_555
H19A C24A 1_555 1_555
C25A C24A 1_555 1_555
C26A C21A 1_555 1_555
H20A C26A 1_555 1_555
C27A C21A 1_555 1_555
H21A C27A 1_555 1_555
H22A C27A 1_555 1_555
C28A O2A 1_555 1_555
C29A C25A 1_555 1_555
H23A C29A 1_555 1_555
H24A C29A 1_555 1_555
C30A O3A 1_555 1_555
C1 N1 1_555 1_555
C4 C5 1_555 1_555
C12 C13 1_555 1_555
C14 C15 1_555 1_555
C19 C20 1_555 1_555
C25 C26 1_555 1_555
C27 C28 1_555 1_555
C4B C5B 1_555 1_555
O4A C30A 1_555 1_555
C7B C14B 1_555 1_555
C10B C11B 1_555 1_555
C12B C13B 1_555 1_555
C14B C15B 1_555 1_555
C19B C20B 1_555 1_555
C25A C26A 1_555 1_555
C27A C28A 1_555 1_555
C29A C30A 1_555 1_555

#END
