
#######################################################################
#
#                 Cambridge Crystallographic Data Centre
#                                CCDC 
#
#######################################################################
#
# If this CIF has been generated from an entry in the Cambridge 
# Structural Database, then it will include bibliographic, chemical, 
# crystal, experimental, refinement or atomic coordinate data resulting 
# from the CCDC's data processing and validation procedures.
#
#######################################################################

data_YUSQIN
_symmetry_cell_setting           monoclinic
_symmetry_space_group_name_H-M   'C 2/c'
_symmetry_Int_Tables_number      15
_space_group_name_Hall           '-C 2yn'
loop_
_symmetry_equiv_pos_site_id
_symmetry_equiv_pos_as_xyz
1 x,y,z
2 -x,y,1/2-z
3 1/2+x,1/2+y,z
4 1/2-x,1/2+y,1/2-z
5 -x,-y,-z
6 x,-y,1/2+z
7 1/2-x,1/2-y,-z
8 1/2+x,1/2-y,1/2+z
_cell_length_a                   34.794(6)
_cell_length_b                   4.8924(9)
_cell_length_c                   17.454(3)
_cell_angle_alpha                90
_cell_angle_beta                 104.425(3)
_cell_angle_gamma                90
_cell_volume                     2877.46
loop_
_atom_site_label
_atom_site_type_symbol
_atom_site_fract_x
_atom_site_fract_y
_atom_site_fract_z
Ga1 Ga 1.00000 1.00000 0.00000
Ga2 Ga 1.00000 0.77259(8) -0.25000
P1 P 0.962730(19) 0.52149(12) -0.11783(4)
P2 P 0.561680(19) 0.46558(12) -0.60610(4)
O1 O 0.96127(5) 0.7957(3) -0.07872(10)
O2 O 0.97464(6) 0.5524(4) -0.19638(10)
O3 O 0.99178(5) 0.3227(3) -0.06706(10)
O4 O 0.56462(6) 0.1496(4) -0.59216(12)
H1 H 0.5476(10) 0.107(7) -0.576(2)
O5 O 0.54003(6) 0.5174(4) -0.69200(11)
O6 O 0.54324(5) 0.6124(3) -0.54823(10)
C1 C 0.91405(7) 0.3777(5) -0.14217(15)
H2 H 0.9158 0.1838 -0.1572
H3 H 0.9034 0.3822 -0.0946
C2 C 0.88536(8) 0.5251(6) -0.20913(19)
H4 H 0.8959 0.52 -0.2569
H5 H 0.8836 0.7191 -0.1943
C3 C 0.84383(8) 0.3997(6) -0.22897(18)
H6 H 0.846 0.201 -0.2378
H7 H 0.8321 0.424 -0.1832
C4 C 0.81639(9) 0.5263(6) -0.3017(2)
H8 H 0.8282 0.5013 -0.3473
H9 H 0.8146 0.7252 -0.2928
C5 C 0.77462(8) 0.4072(6) -0.32295(19)
H10 H 0.7763 0.2071 -0.3298
H11 H 0.7621 0.4403 -0.2787
C6 C 0.74864(9) 0.5296(6) -0.3981(2)
H12 H 0.7608 0.4906 -0.4425
H13 H 0.748 0.7305 -0.3919
C7 C 0.70622(8) 0.4216(6) -0.41901(18)
H14 H 0.7068 0.2205 -0.425
H15 H 0.6939 0.462 -0.3749
C8 C 0.68076(8) 0.5443(6) -0.49446(19)
H16 H 0.6923 0.4957 -0.5391
H17 H 0.6813 0.7459 -0.4896
C9 C 0.63803(8) 0.4471(6) -0.51282(17)
H18 H 0.6262 0.5045 -0.4694
H19 H 0.6377 0.2448 -0.5146
C10 C 0.61242(7) 0.5568(5) -0.59111(16)
H20 H 0.6225 0.4839 -0.6353
H21 H 0.6147 0.7585 -0.5916
Ga1_2 Ga 1.00000 0.00000 0.00000
Ga1C Ga 0.50000 0.50000 -0.50000
Ga1_3 Ga 1.00000 2.00000 0.00000
Ga1C_2 Ga 1.50000 1.50000 0.50000
Ga2F Ga 0.50000 0.72741(8) -0.75000
Ga2D Ga 1.00000 1.22741(8) 0.25000
Ga2B Ga 1.50000 1.27259(8) 0.75000
P1D P 1.037270(19) 1.47851(12) 0.11783(4)
P2D P 1.438320(19) 1.53442(12) 0.60610(4)
O1D O 1.03873(5) 1.2043(3) 0.07872(10)
O2D O 1.02536(6) 1.4476(4) 0.19638(10)
O2A O 1.02536(6) 0.5524(4) -0.30362(10)
O3D O 1.00822(5) 1.6773(3) 0.06706(10)
O3_2 O 0.99178(5) 1.3227(3) -0.06706(10)
O3D_2 O 1.00822(5) 0.6773(3) 0.06706(10)
O4D O 1.43538(6) 1.8504(4) 0.59216(12)
H1D H 1.4524(10) 1.893(7) 0.576(2)
O5D O 1.45997(6) 1.4826(4) 0.69200(11)
O5F O 0.95997(6) 0.9826(4) -0.30800(11)
O5G O 1.04003(6) 0.9826(4) -0.19200(11)
O6D O 1.45676(5) 1.3876(3) 0.54823(10)
O6C O 0.95676(5) 1.1124(3) 0.04823(10)
O6G O 1.04324(5) 0.8876(3) -0.04823(10)
C1D C 1.08595(7) 1.6223(5) 0.14217(15)
H2D H 1.0842 1.8162 0.1572
H3D H 1.0966 1.6178 0.0946
C2D C 1.11464(8) 1.4749(6) 0.20913(19)
H4D H 1.1041 1.48 0.2569
H5D H 1.1164 1.2809 0.1943
C3D C 1.15617(8) 1.6003(6) 0.22897(18)
H6D H 1.154 1.799 0.2378
H7D H 1.1679 1.576 0.1832
C4D C 1.18361(9) 1.4737(6) 0.3017(2)
H8D H 1.1718 1.4987 0.3473
H9D H 1.1854 1.2748 0.2928
C5D C 1.22538(8) 1.5928(6) 0.32295(19)
H10D H 1.2237 1.7929 0.3298
H11D H 1.2379 1.5597 0.2787
C6D C 1.25136(9) 1.4704(6) 0.3981(2)
H12D H 1.2392 1.5094 0.4425
H13D H 1.252 1.2695 0.3919
C7D C 1.29378(8) 1.5784(6) 0.41901(18)
H14D H 1.2932 1.7795 0.425
H15D H 1.3061 1.538 0.3749
C8D C 1.31924(8) 1.4557(6) 0.49446(19)
H16D H 1.3077 1.5043 0.5391
H17D H 1.3187 1.2541 0.4896
C9D C 1.36197(8) 1.5529(6) 0.51282(17)
H18D H 1.3738 1.4955 0.4694
H19D H 1.3623 1.7552 0.5146
C10D C 1.38758(7) 1.4432(5) 0.59111(16)
H20D H 1.3775 1.5161 0.6353
H21D H 1.3853 1.2415 0.5916
loop_
_geom_bond_atom_site_label_1
_geom_bond_atom_site_label_2
_geom_bond_site_symmetry_1
_geom_bond_site_symmetry_2
Ga1 O1 1_555 1_555
Ga2 O2 1_555 1_555
P1 O1 1_555 1_555
P2 O4 1_555 1_555
O2 P1 1_555 1_555
O3 P1 1_555 1_555
O4 H1 1_555 1_555
O5 P2 1_555 1_555
O6 P2 1_555 1_555
C1 P1 1_555 1_555
H2 C1 1_555 1_555
H3 C1 1_555 1_555
C2 C1 1_555 1_555
H4 C2 1_555 1_555
H5 C2 1_555 1_555
C3 C2 1_555 1_555
H6 C3 1_555 1_555
H7 C3 1_555 1_555
C4 C3 1_555 1_555
H8 C4 1_555 1_555
H9 C4 1_555 1_555
C5 C4 1_555 1_555
H10 C5 1_555 1_555
H11 C5 1_555 1_555
C6 C5 1_555 1_555
H12 C6 1_555 1_555
H13 C6 1_555 1_555
C7 C6 1_555 1_555
H14 C7 1_555 1_555
H15 C7 1_555 1_555
C8 C7 1_555 1_555
H16 C8 1_555 1_555
H17 C8 1_555 1_555
C9 C8 1_555 1_555
H18 C9 1_555 1_555
H19 C9 1_555 1_555
C10 P2 1_555 1_555
H20 C10 1_555 1_555
H21 C10 1_555 1_555
Ga1_2 O3 1_555 1_555
Ga1C O6 1_555 1_555
Ga1_3 O3D 1_555 1_555
Ga1C_2 O6D 1_555 1_555
Ga2F O5 1_555 1_555
Ga2D O2D 1_555 1_555
Ga2B O5D 1_555 1_555
P1D O1D 1_555 1_555
P2D O4D 1_555 1_555
O1D Ga1 1_555 1_555
O2D P1D 1_555 1_555
O2A Ga2 1_555 1_555
O3D P1D 1_555 1_555
O3_2 Ga1 1_555 1_555
O3D_2 Ga1 1_555 1_555
O4D H1D 1_555 1_555
O5D P2D 1_555 1_555
O5F Ga2 1_555 1_555
O5G Ga2 1_555 1_555
O6D P2D 1_555 1_555
O6C Ga1 1_555 1_555
O6G Ga1 1_555 1_555
C1D P1D 1_555 1_555
H2D C1D 1_555 1_555
H3D C1D 1_555 1_555
C2D C1D 1_555 1_555
H4D C2D 1_555 1_555
H5D C2D 1_555 1_555
C3D C2D 1_555 1_555
H6D C3D 1_555 1_555
H7D C3D 1_555 1_555
C4D C3D 1_555 1_555
H8D C4D 1_555 1_555
H9D C4D 1_555 1_555
C5D C4D 1_555 1_555
H10D C5D 1_555 1_555
H11D C5D 1_555 1_555
C6D C5D 1_555 1_555
H12D C6D 1_555 1_555
H13D C6D 1_555 1_555
C7D C6D 1_555 1_555
H14D C7D 1_555 1_555
H15D C7D 1_555 1_555
C8D C7D 1_555 1_555
H16D C8D 1_555 1_555
H17D C8D 1_555 1_555
C9D C8D 1_555 1_555
H18D C9D 1_555 1_555
H19D C9D 1_555 1_555
C10D P2D 1_555 1_555
H20D C10D 1_555 1_555
H21D C10D 1_555 1_555
C9 C10 1_555 1_555
C9D C10D 1_555 1_555

#END
