
#######################################################################
#
#                 Cambridge Crystallographic Data Centre
#                                CCDC 
#
#######################################################################
#
# If this CIF has been generated from an entry in the Cambridge 
# Structural Database, then it will include bibliographic, chemical, 
# crystal, experimental, refinement or atomic coordinate data resulting 
# from the CCDC's data processing and validation procedures.
#
#######################################################################

data_YUSTOW
_symmetry_cell_setting           orthorhombic
_symmetry_space_group_name_H-M   'P 21 21 21'
_symmetry_Int_Tables_number      19
_space_group_name_Hall           'P 2ac 2ab'
loop_
_symmetry_equiv_pos_site_id
_symmetry_equiv_pos_as_xyz
1 x,y,z
2 1/2-x,-y,1/2+z
3 1/2+x,1/2-y,-z
4 -x,1/2+y,1/2-z
_cell_length_a                   11.495(2)
_cell_length_b                   14.426(3)
_cell_length_c                   28.924(6)
_cell_angle_alpha                90
_cell_angle_beta                 90
_cell_angle_gamma                90
_cell_volume                     4796.38
loop_
_atom_site_label
_atom_site_type_symbol
_atom_site_fract_x
_atom_site_fract_y
_atom_site_fract_z
Ni1 Ni 0.15321(4) 0.42895(3) 0.730022(16)
Ni2 Ni 0.52006(4) 0.27392(3) 0.868881(16)
Ni3 Ni 0.26874(4) 0.47375(3) 1.031128(16)
Ni4 Ni 0.20480(4) 0.75305(3) 0.872336(15)
O1 O 0.0866(2) 0.29813(19) 0.71882(10)
O2 O 0.1003(3) 0.1507(2) 0.73807(13)
O3 O 0.1930(3) 0.0639(2) 0.79878(12)
O4 O 0.3102(3) 0.0834(2) 0.85885(12)
O5 O 0.6777(2) 0.28939(19) 0.90193(9)
O6 O 0.7682(2) 0.3625(2) 0.95897(10)
O7 O 0.7141(2) 0.4598(2) 1.02469(11)
O8 O 0.5599(2) 0.5151(2) 1.05948(11)
O9 O 0.1140(2) 0.50916(18) 1.06268(9)
O10 O -0.0556(2) 0.5782(2) 1.04839(10)
O11 O -0.1391(2) 0.6678(2) 0.98459(11)
O12 O -0.0878(2) 0.7464(2) 0.92310(10)
O13 O 0.2824(3) 0.83315(17) 0.82186(9)
O14 O 0.3615(3) 0.8336(2) 0.75264(10)
O15 O 0.3775(2) 0.72473(19) 0.68882(9)
O16 O 0.2992(3) 0.59334(19) 0.66330(9)
O17 O 0.0287(3) 0.4775(2) 0.68257(11)
H1 H -0.0279 0.5003 0.6970
O18 O 0.2561(3) 0.4063(2) 0.67252(10)
O19 O 0.4981(3) 0.14759(19) 0.89801(10)
H2 H 0.4381 0.1226 0.8871
O20 O 0.3042(3) 0.37353(19) 1.08103(10)
H3 H 0.2701 0.3874 1.1058
O21 O 0.3474(2) 0.56118(19) 1.07922(9)
H4 H 0.4200 0.5549 1.0778
O22 O 0.2312(2) 0.86668(19) 0.91399(10)
H5 H 0.1678 0.8944 0.9181
O23 O 0.0437(2) 0.80532(19) 0.85712(9)
H6 H 0.0263 0.7919 0.8297
N1 N 0.2737(3) 0.3466(2) 0.76947(10)
N2 N 0.3738(3) 0.2669(2) 0.82371(10)
N3 N 0.5303(3) 0.4045(2) 0.83738(10)
N4 N 0.4660(2) 0.3379(2) 0.93238(10)
N5 N 0.1858(2) 0.3795(2) 0.98631(10)
N6 N 0.4104(2) 0.4235(2) 0.99444(10)
N7 N 0.2179(2) 0.5880(2) 0.98985(10)
N8 N 0.3662(3) 0.7034(2) 0.89458(10)
N9 N 0.1507(3) 0.6799(2) 0.93263(10)
N10 N 0.1920(3) 0.6613(2) 0.81240(10)
N11 N 0.1931(3) 0.5641(2) 0.75105(9)
N12 N 0.0491(3) 0.4413(2) 0.78931(11)
C1 C 0.1319(3) 0.2339(3) 0.74143(14)
C2 C 0.2282(3) 0.2594(2) 0.77275(12)
C3 C 0.2887(3) 0.2099(3) 0.80647(13)
C4 C 0.2656(4) 0.1144(3) 0.82337(15)
C5 C 0.3619(3) 0.3468(2) 0.79982(12)
C6 C 0.4491(3) 0.4207(3) 0.80491(12)
C7 C 0.4527(4) 0.4972(3) 0.77624(16)
H7 H 0.3944 0.5063 0.7534
C8 C 0.5428(4) 0.5606(3) 0.78132(17)
H8 H 0.5476 0.6136 0.7619
C9 C 0.6250(4) 0.5450(3) 0.81513(17)
H9 H 0.6869 0.5877 0.8197
C10 C 0.6163(3) 0.4669(3) 0.84219(14)
H10 H 0.6736 0.4566 0.8653
C11 C 0.6767(3) 0.3402(3) 0.93776(13)
C12 C 0.5632(3) 0.3704(3) 0.95479(12)
C13 C 0.5297(3) 0.4230(3) 0.99258(12)
C14 C 0.6026(3) 0.4689(3) 1.02797(15)
C15 C 0.3777(3) 0.3707(3) 0.95838(12)
C16 C 0.2553(3) 0.3430(3) 0.95407(12)
C17 C 0.2161(3) 0.2791(3) 0.92215(14)
H11 H 0.2678 0.2544 0.8996
C18 C 0.1011(3) 0.2512(3) 0.92324(15)
H12 H 0.0723 0.2069 0.9018
C19 C 0.0294(3) 0.2894(3) 0.95620(14)
H13 H -0.0502 0.2721 0.9575
C20 C 0.0726(3) 0.3522(3) 0.98718(15)
H14 H 0.0222 0.3775 1.0099
C21 C 0.0490(3) 0.5608(3) 1.03808(13)
C22 C 0.1016(3) 0.6019(2) 0.99643(12)
C23 C 0.0592(3) 0.6586(3) 0.96117(12)
C24 C -0.0611(3) 0.6930(3) 0.95496(14)
C25 C 0.2431(3) 0.6375(2) 0.95178(12)
C26 C 0.3614(3) 0.6566(2) 0.93509(12)
C27 C 0.4597(3) 0.6370(3) 0.96048(14)
H15 H 0.4535 0.6048 0.9890
C28 C 0.5674(4) 0.6642(3) 0.94423(16)
H16 H 0.6358 0.6518 0.9616
C29 C 0.5738(4) 0.7096(3) 0.90251(16)
H17 H 0.6467 0.7280 0.8901
C30 C 0.4720(4) 0.7276(3) 0.87925(14)
H18 H 0.4770 0.7592 0.8505
C31 C 0.3008(4) 0.7940(3) 0.78460(13)
C32 C 0.2531(3) 0.7008(2) 0.77677(12)
C33 C 0.2546(3) 0.6410(2) 0.73916(11)
C34 C 0.3130(3) 0.6525(3) 0.69346(13)
C35 C 0.1559(3) 0.5797(2) 0.79468(12)
C36 C 0.0753(3) 0.5149(3) 0.81587(13)
C37 C 0.0260(4) 0.5272(3) 0.85901(14)
H19 H 0.0468 0.5791 0.8775
C38 C -0.0535(4) 0.4636(3) 0.87484(16)
H20 H -0.0881 0.4711 0.9044
C39 C -0.0827(4) 0.3891(3) 0.84765(17)
H21 H -0.1378 0.3446 0.8579
C40 C -0.0300(4) 0.3806(3) 0.80513(16)
H22 H -0.0505 0.3295 0.7861
H23 H 0.551(4) 0.105(3) 0.8956(17)
H24 H 0.343(4) 0.6206(8) 1.0767(17)
H25 H -0.002(4) 0.791(4) 0.8775(16)
H26 H 0.280(4) 0.3176(13) 1.0816(17)
H27 H -0.005(4) 0.437(3) 0.6650(14)
H28 H 0.289(3) 0.904(3) 0.9120(17)
H29 H 0.236(4) 0.432(3) 0.6471(9)
H30 H 0.3303(10) 0.405(4) 0.6733(17)
Ni2C Ni 0.47994(4) 0.77392(3) 0.631119(16)
O15C O 0.6225(2) 0.22473(19) 0.81118(9)
O24 O 0.4934(5) 0.4394(4) 0.6630(2)
H31 H 0.487(5) 0.451(4) 0.6923(6)
H32 H 0.558(3) 0.408(3) 0.6648(18)
loop_
_geom_bond_atom_site_label_1
_geom_bond_atom_site_label_2
_geom_bond_site_symmetry_1
_geom_bond_site_symmetry_2
Ni1 O1 1_555 1_555
Ni2 O5 1_555 1_555
Ni3 O9 1_555 1_555
Ni4 O13 1_555 1_555
O1 C1 1_555 1_555
O2 C1 1_555 1_555
O3 C4 1_555 1_555
O4 C4 1_555 1_555
O5 C11 1_555 1_555
O6 C11 1_555 1_555
O7 C14 1_555 1_555
O8 C14 1_555 1_555
O9 C21 1_555 1_555
O10 C21 1_555 1_555
O11 C24 1_555 1_555
O12 C24 1_555 1_555
O13 C31 1_555 1_555
O14 C31 1_555 1_555
O15 C34 1_555 1_555
O16 C34 1_555 1_555
O17 Ni1 1_555 1_555
H1 O17 1_555 1_555
O18 Ni1 1_555 1_555
O19 Ni2 1_555 1_555
H2 O19 1_555 1_555
O20 Ni3 1_555 1_555
H3 O20 1_555 1_555
O21 Ni3 1_555 1_555
H4 O21 1_555 1_555
O22 Ni4 1_555 1_555
H5 O22 1_555 1_555
O23 Ni4 1_555 1_555
H6 O23 1_555 1_555
O24 H31 1_555 1_555
N1 Ni1 1_555 1_555
N2 Ni2 1_555 1_555
N3 Ni2 1_555 1_555
N4 Ni2 1_555 1_555
N5 Ni3 1_555 1_555
N6 Ni3 1_555 1_555
N7 Ni3 1_555 1_555
N8 Ni4 1_555 1_555
N9 Ni4 1_555 1_555
N10 Ni4 1_555 1_555
N11 Ni1 1_555 1_555
N12 Ni1 1_555 1_555
C1 C2 1_555 1_555
C2 N1 1_555 1_555
C3 N2 1_555 1_555
C4 C3 1_555 1_555
C5 N1 1_555 1_555
C6 N3 1_555 1_555
C7 C6 1_555 1_555
H7 C7 1_555 1_555
C8 C7 1_555 1_555
H8 C8 1_555 1_555
C9 C8 1_555 1_555
H9 C9 1_555 1_555
C10 N3 1_555 1_555
H10 C10 1_555 1_555
C11 C12 1_555 1_555
C12 N4 1_555 1_555
C13 N6 1_555 1_555
C14 C13 1_555 1_555
C15 N4 1_555 1_555
C16 N5 1_555 1_555
C17 C16 1_555 1_555
H11 C17 1_555 1_555
C18 C17 1_555 1_555
H12 C18 1_555 1_555
C19 C18 1_555 1_555
H13 C19 1_555 1_555
C20 N5 1_555 1_555
H14 C20 1_555 1_555
C21 C22 1_555 1_555
C22 N7 1_555 1_555
C23 N9 1_555 1_555
C24 C23 1_555 1_555
C25 N7 1_555 1_555
C26 N8 1_555 1_555
C27 C26 1_555 1_555
H15 C27 1_555 1_555
C28 C27 1_555 1_555
H16 C28 1_555 1_555
C29 C28 1_555 1_555
H17 C29 1_555 1_555
C30 N8 1_555 1_555
H18 C30 1_555 1_555
C31 C32 1_555 1_555
C32 N10 1_555 1_555
C33 N11 1_555 1_555
C34 C33 1_555 1_555
C35 N10 1_555 1_555
C36 N12 1_555 1_555
C37 C36 1_555 1_555
H19 C37 1_555 1_555
C38 C37 1_555 1_555
H20 C38 1_555 1_555
C39 C38 1_555 1_555
H21 C39 1_555 1_555
C40 N12 1_555 1_555
H22 C40 1_555 1_555
H23 O19 1_555 1_555
H24 O21 1_555 1_555
H25 O23 1_555 1_555
H26 O20 1_555 1_555
H27 O17 1_555 1_555
H28 O22 1_555 1_555
H29 O18 1_555 1_555
H30 O18 1_555 1_555
H32 O24 1_555 1_555
Ni2C O15 1_555 1_555
O15C Ni2 1_555 1_555
N2 C5 1_555 1_555
N6 C15 1_555 1_555
N9 C25 1_555 1_555
N11 C35 1_555 1_555
C2 C3 1_555 1_555
C5 C6 1_555 1_555
C9 C10 1_555 1_555
C12 C13 1_555 1_555
C15 C16 1_555 1_555
C19 C20 1_555 1_555
C22 C23 1_555 1_555
C25 C26 1_555 1_555
C29 C30 1_555 1_555
C32 C33 1_555 1_555
C35 C36 1_555 1_555
C39 C40 1_555 1_555

#END
