
#######################################################################
#
#                 Cambridge Crystallographic Data Centre
#                                CCDC 
#
#######################################################################
#
# If this CIF has been generated from an entry in the Cambridge 
# Structural Database, then it will include bibliographic, chemical, 
# crystal, experimental, refinement or atomic coordinate data resulting 
# from the CCDC's data processing and validation procedures.
#
#######################################################################

data_YUSTUC
_symmetry_cell_setting           tetragonal
_symmetry_space_group_name_H-M   'I 41/a'
_symmetry_Int_Tables_number      88
_space_group_name_Hall           '-I 4ad'
loop_
_symmetry_equiv_pos_site_id
_symmetry_equiv_pos_as_xyz
1 x,y,z
2 3/4-y,1/4+x,1/4+z
3 -x,1/2-y,z
4 1/4+y,1/4-x,1/4+z
5 1/2+x,1/2+y,1/2+z
6 1/4-y,3/4+x,3/4+z
7 1/2-x,-y,1/2+z
8 3/4+y,3/4-x,3/4+z
9 -x,-y,-z
10 1/4+y,3/4-x,3/4-z
11 x,1/2+y,-z
12 3/4-y,3/4+x,3/4-z
13 1/2-x,1/2-y,1/2-z
14 3/4+y,1/4-x,1/4-z
15 1/2+x,y,1/2-z
16 1/4-y,1/4+x,1/4-z
_cell_length_a                   14.0670(7)
_cell_length_b                   14.0670(7)
_cell_length_c                   39.336(4)
_cell_angle_alpha                90
_cell_angle_beta                 90
_cell_angle_gamma                90
_cell_volume                     7783.83
loop_
_atom_site_label
_atom_site_type_symbol
_atom_site_fract_x
_atom_site_fract_y
_atom_site_fract_z
Ni1 Ni 0.32236(4) 0.53392(4) 0.087771(13)
O1 O 0.1856(4) 0.4690(3) 0.16208(11)
O2 O 0.1314(3) 0.5655(3) 0.20107(9)
O3 O 0.1387(3) 0.7310(3) 0.21814(9)
O4 O 0.2076(2) 0.8625(2) 0.20039(8)
O5 O 0.2826(3) 0.4082(3) 0.10960(10)
H1 H 0.2502 0.4192 0.1271
N1 N 0.2604(3) 0.6284(3) 0.12406(9)
N2 N 0.2637(2) 0.7821(2) 0.14122(8)
N3 N 0.3563(3) 0.6649(3) 0.06611(9)
N4 N 0.1979(3) 0.5272(3) 0.05617(9)
C1 C 0.1761(4) 0.5507(3) 0.17280(12)
C2 C 0.2167(3) 0.6342(3) 0.15530(10)
C3 C 0.2194(3) 0.7285(3) 0.16550(10)
C4 C 0.1869(3) 0.7776(3) 0.19647(11)
C5 C 0.2845(3) 0.7179(3) 0.11693(10)
C6 C 0.3237(3) 0.7398(3) 0.08332(10)
C7 C 0.3189(4) 0.8305(3) 0.06914(12)
H2 H 0.2948 0.8824 0.0820
C8 C 0.3497(4) 0.8435(4) 0.03615(12)
H3 H 0.3462 0.9042 0.0256
C9 C 0.3862(4) 0.7656(4) 0.01860(12)
H4 H 0.4095 0.7724 -0.0039
C10 C 0.3877(4) 0.6795(4) 0.03434(11)
H5 H 0.4125 0.6267 0.0221
C11 C 0.2063(4) 0.5313(4) 0.02230(12)
H6 H 0.2678 0.5421 0.0132
C12 C 0.1332(4) 0.5211(4) 0.00006(12)
H7 H 0.1450 0.5249 -0.0237
C13 C 0.0411(3) 0.5051(3) 0.01177(11)
C14 C 0.0315(4) 0.5007(4) 0.04687(12)
H8 H -0.0293 0.4895 0.0566
C15 C 0.1096(3) 0.5127(4) 0.06796(12)
H9 H 0.1002 0.5104 0.0919
Ni1M Ni 0.28392(4) 0.92764(4) 0.162229(13)
Ni1H Ni -0.32236(4) 0.46608(4) -0.087771(13)
Ni1E Ni -0.28392(4) 0.07236(4) -0.162229(13)
O1H O -0.1856(4) 0.5310(3) -0.16208(11)
O2H O -0.1314(3) 0.4345(3) -0.20107(9)
O3H O -0.1387(3) 0.2690(3) -0.21814(9)
O4O O 0.3875(2) 0.4576(2) 0.04961(8)
O4G O -0.3875(2) 0.5424(2) -0.04961(8)
O4H O -0.2076(2) 0.1375(2) -0.20039(8)
O5H O -0.2826(3) 0.5918(3) -0.10960(10)
H1H H -0.2502 0.5808 -0.1271
N1H N -0.2604(3) 0.3716(3) -0.12406(9)
N2O N 0.4679(2) 0.5137(2) 0.10878(8)
N2G N -0.4679(2) 0.4863(2) -0.10878(8)
N2H N -0.2637(2) 0.2179(2) -0.14122(8)
N3H N -0.3563(3) 0.3351(3) -0.06611(9)
N4H N -0.1979(3) 0.4728(3) -0.05617(9)
C1H C -0.1761(4) 0.4493(3) -0.17280(12)
C2H C -0.2167(3) 0.3658(3) -0.15530(10)
C3H C -0.2194(3) 0.2715(3) -0.16550(10)
C4H C -0.1869(3) 0.2224(3) -0.19647(11)
C5H C -0.2845(3) 0.2821(3) -0.11693(10)
C6H C -0.3237(3) 0.2602(3) -0.08332(10)
C7H C -0.3189(4) 0.1695(3) -0.06914(12)
H2H H -0.2948 0.1176 -0.0820
C8H C -0.3497(4) 0.1565(4) -0.03615(12)
H3H H -0.3462 0.0958 -0.0256
C9H C -0.3862(4) 0.2344(4) -0.01860(12)
H4H H -0.4095 0.2276 0.0039
C10H C -0.3877(4) 0.3205(4) -0.03434(11)
H5H H -0.4125 0.3733 -0.0221
C11H C -0.2063(4) 0.4687(4) -0.02230(12)
H6H H -0.2678 0.4579 -0.0132
C12H C -0.1332(4) 0.4789(4) -0.00006(12)
H7H H -0.1450 0.4751 0.0237
C13H C -0.0411(3) 0.4949(3) -0.01177(11)
C14H C -0.0315(4) 0.4993(4) -0.04687(12)
H8H H 0.0293 0.5105 -0.0566
C15H C -0.1096(3) 0.4873(4) -0.06796(12)
H9H H -0.1002 0.4896 -0.0919
loop_
_geom_bond_atom_site_label_1
_geom_bond_atom_site_label_2
_geom_bond_site_symmetry_1
_geom_bond_site_symmetry_2
Ni1 O5 1_555 1_555
O1 C1 1_555 1_555
O2 C1 1_555 1_555
O3 C4 1_555 1_555
O4 C4 1_555 1_555
O5 H1 1_555 1_555
N1 Ni1 1_555 1_555
N2 C3 1_555 1_555
N3 Ni1 1_555 1_555
N4 Ni1 1_555 1_555
C1 C2 1_555 1_555
C2 N1 1_555 1_555
C3 C2 1_555 1_555
C4 C3 1_555 1_555
C5 N1 1_555 1_555
C6 N3 1_555 1_555
C7 C6 1_555 1_555
H2 C7 1_555 1_555
C8 C7 1_555 1_555
H3 C8 1_555 1_555
C9 C8 1_555 1_555
H4 C9 1_555 1_555
C10 N3 1_555 1_555
H5 C10 1_555 1_555
C11 N4 1_555 1_555
H6 C11 1_555 1_555
C12 C11 1_555 1_555
H7 C12 1_555 1_555
C13 C12 1_555 1_555
C14 C13 1_555 1_555
H8 C14 1_555 1_555
C15 N4 1_555 1_555
H9 C15 1_555 1_555
Ni1M O4 1_555 1_555
Ni1H O4G 1_555 1_555
Ni1E O4H 1_555 1_555
O1H C1H 1_555 1_555
O2H C1H 1_555 1_555
O3H C4H 1_555 1_555
O4O Ni1 1_555 1_555
O4H C4H 1_555 1_555
O5H Ni1H 1_555 1_555
H1H O5H 1_555 1_555
N1H Ni1H 1_555 1_555
N2O Ni1 1_555 1_555
N2G Ni1H 1_555 1_555
N2H Ni1E 1_555 1_555
N3H Ni1H 1_555 1_555
N4H Ni1H 1_555 1_555
C1H C2H 1_555 1_555
C2H N1H 1_555 1_555
C3H N2H 1_555 1_555
C4H C3H 1_555 1_555
C5H N1H 1_555 1_555
C6H N3H 1_555 1_555
C7H C6H 1_555 1_555
H2H C7H 1_555 1_555
C8H C7H 1_555 1_555
H3H C8H 1_555 1_555
C9H C8H 1_555 1_555
H4H C9H 1_555 1_555
C10H N3H 1_555 1_555
H5H C10H 1_555 1_555
C11H N4H 1_555 1_555
H6H C11H 1_555 1_555
C12H C11H 1_555 1_555
H7H C12H 1_555 1_555
C13H C13 1_555 1_555
C14H C13H 1_555 1_555
H8H C14H 1_555 1_555
C15H N4H 1_555 1_555
H9H C15H 1_555 1_555
N2 C5 1_555 1_555
N2 Ni1M 1_555 1_555
C5 C6 1_555 1_555
C9 C10 1_555 1_555
C14 C15 1_555 1_555
N2H C5H 1_555 1_555
C2H C3H 1_555 1_555
C5H C6H 1_555 1_555
C9H C10H 1_555 1_555
C12H C13H 1_555 1_555
C14H C15H 1_555 1_555

#END
