
#######################################################################
#
#                 Cambridge Crystallographic Data Centre
#                                CCDC 
#
#######################################################################
#
# If this CIF has been generated from an entry in the Cambridge 
# Structural Database, then it will include bibliographic, chemical, 
# crystal, experimental, refinement or atomic coordinate data resulting 
# from the CCDC's data processing and validation procedures.
#
#######################################################################

data_YUSTOW02
_symmetry_cell_setting           orthorhombic
_symmetry_space_group_name_H-M   'P 21 21 21'
_symmetry_Int_Tables_number      19
_space_group_name_Hall           'P 2ac 2ab'
loop_
_symmetry_equiv_pos_site_id
_symmetry_equiv_pos_as_xyz
1 x,y,z
2 1/2-x,-y,1/2+z
3 1/2+x,1/2-y,-z
4 -x,1/2+y,1/2-z
_cell_length_a                   11.4952(5)
_cell_length_b                   14.4352(5)
_cell_length_c                   28.9218(14)
_cell_angle_alpha                90
_cell_angle_beta                 90
_cell_angle_gamma                90
_cell_volume                     4799.15
loop_
_atom_site_label
_atom_site_type_symbol
_atom_site_fract_x
_atom_site_fract_y
_atom_site_fract_z
Ni1 Ni 0.52019(3) 0.27364(2) 0.868938(11)
Ni2 Ni 0.26902(3) 0.47385(2) 1.031065(12)
Ni3 Ni 0.79453(3) 0.25310(2) 0.627720(11)
Ni4 Ni 0.15321(3) 0.42905(2) 0.730079(12)
O1 O -0.08660(17) 0.74686(16) 0.92314(7)
O2 O 0.49930(18) 0.14780(12) 0.89779(6)
H1 H 0.5281 0.1019 0.9100
H2 H 0.4298 0.1355 0.8964
O3 O 0.34714(16) 0.56052(13) 1.07930(6)
H3 H 0.3519 0.6167 1.0755
H4 H 0.4151 0.5435 1.0779
O4 O -0.13884(16) 0.66865(15) 0.98439(7)
H5 H -0.1080 0.6301 1.0012
O5 O 0.30424(17) 0.37319(13) 1.08094(6)
H6 H 0.2758 0.3211 1.0799
H7 H 0.2896 0.3971 1.1060
O6 O -0.05478(16) 0.57819(15) 1.04860(7)
O7 O 0.95477(15) 0.30592(12) 0.64292(6)
H8 H 0.9887 0.2928 0.6670
H9 H 1.0034 0.2847 0.6251
O8 O 0.11414(15) 0.50939(13) 1.06277(6)
O9 O 0.76837(16) 0.36736(12) 0.58677(6)
H10 H 0.7173 0.3791 0.5678
H11 H 0.8200 0.4032 0.5788
O10 O 0.62171(17) 0.22462(13) 0.81147(6)
O11 O 0.25621(18) 0.40532(13) 0.67260(6)
H12 H 0.3272 0.4095 0.6741
H13 H 0.2263 0.4288 0.6497
O12 O 0.7017(2) 0.09363(13) 0.83702(6)
O13 O 0.71640(18) 0.33321(12) 0.67815(6)
O14 O 0.02765(18) 0.47687(13) 0.68302(7)
H14 H -0.0309 0.5060 0.6901
H15 H 0.0161 0.4524 0.6579
O15 O 0.6373(2) 0.33381(14) 0.74714(7)
H16 H 0.6295 0.2942 0.7672
O16 O 0.3116(2) 0.08324(15) 0.85866(8)
O17 O 0.1943(2) 0.06359(14) 0.79982(8)
H17 H 0.1637 0.0953 0.7797
O18 O 0.0994(2) 0.15056(14) 0.73813(8)
O19 O 0.08665(16) 0.29828(13) 0.71866(7)
O20 O 0.67813(15) 0.28931(13) 0.90206(6)
O21 O 0.76858(16) 0.36215(16) 0.95890(8)
O22 O 0.71392(16) 0.45933(15) 1.02527(8)
H18 H 0.7397 0.4364 1.0015
O23 O 0.56052(17) 0.51499(16) 1.05908(8)
N1 N 0.36626(18) 0.70306(15) 0.89440(7)
N2 N 0.15077(17) 0.68039(14) 0.93241(7)
N3 N 0.21830(17) 0.58796(14) 0.98980(7)
N4 N 0.18536(17) 0.38015(14) 0.98645(7)
N5 N 0.41086(17) 0.42326(15) 0.99426(7)
N6 N 0.46642(17) 0.33752(15) 0.93246(7)
N7 N 0.37361(17) 0.26673(14) 0.82426(7)
N8 N 0.53040(18) 0.40326(15) 0.83749(8)
N9 N 0.27336(19) 0.34646(14) 0.76977(7)
N10 N 0.95063(18) -0.05805(15) 0.71042(8)
N11 N 0.80705(18) 0.06434(14) 0.74914(7)
N12 N 0.80780(19) 0.16152(14) 0.68761(7)
C1 C 0.4717(2) 0.7279(2) 0.87899(10)
H19 H 0.4764 0.7592 0.8509
C2 C 0.5738(2) 0.7096(2) 0.90256(11)
H20 H 0.6452 0.7280 0.8906
C3 C 0.5676(2) 0.6633(2) 0.94421(11)
H21 H 0.6346 0.6507 0.9611
C4 C 0.4593(2) 0.63602(19) 0.96025(10)
H22 H 0.4529 0.6042 0.9881
C5 C 0.3617(2) 0.65606(17) 0.93501(9)
C6 C 0.2432(2) 0.63790(17) 0.95198(9)
C7 C 0.0597(2) 0.65917(18) 0.96108(9)
C8 C 0.1022(2) 0.60199(18) 0.99620(9)
C9 C -0.0602(2) 0.6936(2) 0.95480(10)
C10 C 0.0501(2) 0.56090(19) 1.03869(9)
C11 C 1.0303(3) -0.1182(2) 0.69476(11)
H23 H 1.0515 -0.1675 0.7137
C12 C 1.0821(3) -0.1105(2) 0.65212(12)
H24 H 1.1356 -0.1546 0.6421
C13 C 1.0534(3) -0.0364(2) 0.62454(11)
H25 H 1.0870 -0.0294 0.5955
C14 C 0.9738(3) 0.0274(2) 0.64064(10)
H26 H 0.9534 0.0782 0.6226
C15 C 0.9246(2) 0.01509(18) 0.68397(9)
C16 C 0.8437(2) 0.08046(18) 0.70543(9)
C17 C 0.7456(2) 0.20062(17) 0.72310(8)
C18 C 0.7447(2) 0.14131(17) 0.76074(8)
C19 C 0.6985(3) 0.29358(19) 0.71516(9)
C20 C 0.6868(2) 0.15269(18) 0.80688(9)
C21 C 0.6169(2) 0.4659(2) 0.84215(10)
H27 H 0.6733 0.4559 0.8646
C22 C 0.6250(3) 0.5448(2) 0.81463(12)
H28 H 0.6855 0.5866 0.8188
C23 C 0.5427(3) 0.5599(2) 0.78134(12)
H29 H 0.5470 0.6117 0.7623
C24 C 0.4527(2) 0.49660(18) 0.77640(11)
H30 H 0.3958 0.5055 0.7540
C25 C 0.4486(2) 0.42015(18) 0.80517(9)
C26 C 0.3618(2) 0.34681(17) 0.80028(9)
C27 C 0.2887(2) 0.20964(18) 0.80647(9)
C28 C 0.2285(2) 0.25873(17) 0.77274(9)
C29 C 0.2672(3) 0.1142(2) 0.82392(11)
C30 C 0.1317(2) 0.2329(2) 0.74150(10)
C31 C 0.0736(2) 0.35299(19) 0.98709(10)
H31 H 0.0242 0.3783 1.0092
C32 C 0.0292(2) 0.2893(2) 0.95641(10)
H32 H -0.0487 0.2721 0.9579
C33 C 0.1014(2) 0.2512(2) 0.92339(11)
H33 H 0.0731 0.2079 0.9024
C34 C 0.2170(2) 0.2786(2) 0.92208(10)
H34 H 0.2676 0.2542 0.9001
C35 C 0.2558(2) 0.34321(18) 0.95425(9)
C36 C 0.3782(2) 0.37060(18) 0.95826(9)
C37 C 0.5632(2) 0.37043(18) 0.95437(9)
C38 C 0.5300(2) 0.42296(18) 0.99253(9)
C39 C 0.6776(2) 0.3399(2) 0.93795(10)
C40 C 0.6023(2) 0.4688(2) 1.02776(11)
Ni3C Ni 0.20547(3) 0.75310(2) 0.872280(11)
Ni4C Ni 0.84679(3) -0.07095(2) 0.769921(12)
N1C N 0.63374(18) 0.20306(15) 0.60560(7)
N2C N 0.84923(17) 0.18039(14) 0.56759(7)
N10C N 0.04937(18) 0.44195(15) 0.78958(8)
N11C N 0.19295(18) 0.56434(14) 0.75086(7)
O24 O 0.4934(2) 0.43822(19) 0.66564(11)
H35 H 0.5631 0.4311 0.6608
H36 H 0.4735 0.4853 0.6519
loop_
_geom_bond_atom_site_label_1
_geom_bond_atom_site_label_2
_geom_bond_site_symmetry_1
_geom_bond_site_symmetry_2
Ni1 O2 1_555 1_555
Ni2 O3 1_555 1_555
Ni3 O7 1_555 1_555
Ni4 O11 1_555 1_555
O1 C9 1_555 1_555
O2 H1 1_555 1_555
H2 O2 1_555 1_555
O3 H3 1_555 1_555
H4 O3 1_555 1_555
O4 H5 1_555 1_555
O5 Ni2 1_555 1_555
H6 O5 1_555 1_555
H7 O5 1_555 1_555
O6 C10 1_555 1_555
O7 H8 1_555 1_555
H9 O7 1_555 1_555
O8 Ni2 1_555 1_555
O9 Ni3 1_555 1_555
H10 O9 1_555 1_555
H11 O9 1_555 1_555
O10 Ni1 1_555 1_555
O11 H12 1_555 1_555
H13 O11 1_555 1_555
O12 C20 1_555 1_555
O13 Ni3 1_555 1_555
O14 Ni4 1_555 1_555
H14 O14 1_555 1_555
H15 O14 1_555 1_555
O15 H16 1_555 1_555
O16 C29 1_555 1_555
O17 H17 1_555 1_555
O18 C30 1_555 1_555
O19 Ni4 1_555 1_555
O20 Ni1 1_555 1_555
O21 C39 1_555 1_555
O22 H18 1_555 1_555
O23 C40 1_555 1_555
N1 C1 1_555 1_555
N2 C6 1_555 1_555
N3 Ni2 1_555 1_555
N4 Ni2 1_555 1_555
N5 Ni2 1_555 1_555
N6 Ni1 1_555 1_555
N7 Ni1 1_555 1_555
N8 Ni1 1_555 1_555
N9 Ni4 1_555 1_555
N10 C11 1_555 1_555
N11 C16 1_555 1_555
N12 Ni3 1_555 1_555
C1 H19 1_555 1_555
C2 C1 1_555 1_555
H20 C2 1_555 1_555
C3 C2 1_555 1_555
H21 C3 1_555 1_555
C4 C3 1_555 1_555
H22 C4 1_555 1_555
C5 N1 1_555 1_555
C6 N3 1_555 1_555
C7 N2 1_555 1_555
C8 N3 1_555 1_555
C9 O4 1_555 1_555
C10 O8 1_555 1_555
C11 H23 1_555 1_555
C12 C11 1_555 1_555
H24 C12 1_555 1_555
C13 C12 1_555 1_555
H25 C13 1_555 1_555
C14 C13 1_555 1_555
H26 C14 1_555 1_555
C15 N10 1_555 1_555
C16 N12 1_555 1_555
C17 N12 1_555 1_555
C18 N11 1_555 1_555
C19 O13 1_555 1_555
C20 O10 1_555 1_555
C21 N8 1_555 1_555
H27 C21 1_555 1_555
C22 C21 1_555 1_555
H28 C22 1_555 1_555
C23 C22 1_555 1_555
H29 C23 1_555 1_555
C24 C23 1_555 1_555
H30 C24 1_555 1_555
C25 N8 1_555 1_555
C26 N7 1_555 1_555
C27 N7 1_555 1_555
C28 N9 1_555 1_555
C29 O17 1_555 1_555
C30 O19 1_555 1_555
C31 N4 1_555 1_555
H31 C31 1_555 1_555
C32 C31 1_555 1_555
H32 C32 1_555 1_555
C33 C32 1_555 1_555
H33 C33 1_555 1_555
C34 C33 1_555 1_555
H34 C34 1_555 1_555
C35 N4 1_555 1_555
C36 N5 1_555 1_555
C37 N6 1_555 1_555
C38 N5 1_555 1_555
C39 O20 1_555 1_555
C40 O22 1_555 1_555
O24 H35 1_555 1_555
H36 O24 1_555 1_555
Ni3C N1 1_555 1_555
Ni4C N10 1_555 1_555
N1C Ni3 1_555 1_555
N2C Ni3 1_555 1_555
N10C Ni4 1_555 1_555
N11C Ni4 1_555 1_555
O15 C19 1_555 1_555
N2 Ni3C 1_555 1_555
N6 C36 1_555 1_555
N9 C26 1_555 1_555
N11 Ni4C 1_555 1_555
C4 C5 1_555 1_555
C5 C6 1_555 1_555
C7 C8 1_555 1_555
C7 C9 1_555 1_555
C8 C10 1_555 1_555
C14 C15 1_555 1_555
C15 C16 1_555 1_555
C17 C18 1_555 1_555
C17 C19 1_555 1_555
C18 C20 1_555 1_555
C24 C25 1_555 1_555
C25 C26 1_555 1_555
C27 C28 1_555 1_555
C27 C29 1_555 1_555
C28 C30 1_555 1_555
C34 C35 1_555 1_555
C35 C36 1_555 1_555
C37 C38 1_555 1_555
C37 C39 1_555 1_555
C38 C40 1_555 1_555

#END
