
#######################################################################
#
#                 Cambridge Crystallographic Data Centre
#                                CCDC 
#
#######################################################################
#
# If this CIF has been generated from an entry in the Cambridge 
# Structural Database, then it will include bibliographic, chemical, 
# crystal, experimental, refinement or atomic coordinate data resulting 
# from the CCDC's data processing and validation procedures.
#
#######################################################################

data_YUSVAK
_symmetry_cell_setting           orthorhombic
_symmetry_space_group_name_H-M   'P b c n'
_symmetry_Int_Tables_number      60
_space_group_name_Hall           '-P 2n 2ab'
loop_
_symmetry_equiv_pos_site_id
_symmetry_equiv_pos_as_xyz
1 x,y,z
2 1/2-x,1/2-y,1/2+z
3 1/2+x,1/2-y,-z
4 -x,y,1/2-z
5 -x,-y,-z
6 1/2+x,1/2+y,1/2-z
7 1/2-x,1/2+y,z
8 x,-y,1/2+z
_cell_length_a                   11.1662(10)
_cell_length_b                   26.553(2)
_cell_length_c                   14.4125(13)
_cell_angle_alpha                90
_cell_angle_beta                 90
_cell_angle_gamma                90
_cell_volume                     4273.25
loop_
_atom_site_label
_atom_site_type_symbol
_atom_site_fract_x
_atom_site_fract_y
_atom_site_fract_z
Cd1 Cd 0.31756(2) 0.099156(9) 0.081327(18)
Cd2 Cd 0.5000 0.314642(11) 0.2500
Cd3 Cd 1.0000 0.381480(11) 0.2500
O1 O 0.4645(2) 0.14748(9) -0.10159(15)
O2 O 0.5690(3) 0.21698(10) -0.12345(17)
O3 O 0.6205(2) 0.29393(10) -0.03486(16)
O4 O 0.5963(2) 0.32393(8) 0.10761(15)
O5 O 0.5580(2) 0.53893(10) 0.3928(2)
O6 O 0.5084(2) 0.46040(10) 0.3598(2)
O7 O 0.6128(2) 0.38190(9) 0.29957(17)
O8 O 0.7965(2) 0.35916(8) 0.25588(16)
O9 O 0.1972(3) 0.09390(10) -0.0400(2)
N1 N 0.3913(2) 0.17825(9) 0.07384(18)
N2 N 0.4337(2) 0.24994(9) 0.15069(17)
N3 N 0.2421(2) 0.14292(10) 0.20911(19)
N4 N 0.8027(2) 0.51772(9) 0.37374(19)
N5 N 0.8927(2) 0.44618(9) 0.32725(17)
N6 N 1.0150(2) 0.56565(10) 0.4087(2)
C1 C 0.5015(3) 0.18822(12) -0.0732(2)
C2 C 0.4675(3) 0.20573(12) 0.0209(2)
C3 C 0.4946(3) 0.24959(11) 0.0685(2)
C4 C 0.5758(3) 0.29186(12) 0.0454(2)
C5 C 0.3719(3) 0.20620(11) 0.1504(2)
C6 C 0.2857(3) 0.19003(12) 0.2206(2)
C7 C 0.2465(3) 0.22148(14) 0.2912(3)
H1 H 0.2777 0.2546 0.2976
C8 C 0.1606(3) 0.20338(15) 0.3523(3)
H2 H 0.1342 0.2236 0.4027
C9 C 0.1141(3) 0.15607(15) 0.3393(3)
H3 H 0.0532 0.1436 0.3792
C10 C 0.1568(3) 0.12706(14) 0.2679(3)
H4 H 0.1246 0.0943 0.2596
C11 C 0.5889(3) 0.49689(14) 0.3694(3)
C12 C 0.7156(3) 0.48331(11) 0.3527(2)
C13 C 0.7717(3) 0.43943(11) 0.3233(2)
C14 C 0.7250(3) 0.38974(11) 0.2903(2)
C15 C 0.9064(3) 0.49360(11) 0.3585(2)
C16 C 1.0217(3) 0.51716(11) 0.3817(2)
C17 C 1.1289(3) 0.49148(13) 0.3806(2)
H5 H 1.1310 0.4571 0.3623
C18 C 1.2328(3) 0.51567(13) 0.4062(2)
H6 H 1.3076 0.4987 0.4039
C19 C 1.2258(3) 0.56497(13) 0.4351(2)
H7 H 1.2956 0.5825 0.4548
C20 C 1.1162(3) 0.58835(13) 0.4349(3)
H8 H 1.1121 0.6225 0.4544
H9 H 0.5487 0.4374 0.3241
H10 H 0.589(4) 0.2441(9) -0.095(3)
H11 H 0.172(4) 0.1227(17) -0.066(3)
H12 H 0.145(3) 0.0815(16) -0.003(2)
Cd1C Cd 0.68244(2) 0.099156(9) 0.418673(18)
Cd1E Cd 0.81756(2) 0.599156(9) 0.418673(18)
Cd1F Cd 0.18244(2) 0.599156(9) 0.081327(18)
Cd3A Cd 0.5000 0.118520(11) -0.2500
Cd3_2 Cd 0.0000 0.381480(11) 0.2500
Cd3A_2 Cd 0.5000 0.118520(11) 0.7500
O1C O 0.5355(2) 0.14748(9) 0.60159(15)
O1A O 1.0355(2) 0.35252(9) 0.39841(15)
O1B O 0.9645(2) 0.35252(9) 0.10159(15)
O2C O 0.4310(3) 0.21698(10) 0.62345(17)
O3C O 0.3795(2) 0.29393(10) 0.53486(16)
O4C O 0.4037(2) 0.32393(8) 0.39239(15)
O5C O 0.4420(2) 0.53893(10) 0.1072(2)
O6C O 0.4916(2) 0.46040(10) 0.1402(2)
O7C O 0.3872(2) 0.38190(9) 0.20043(17)
O8C O 0.2035(2) 0.35916(8) 0.24412(16)
O8C_2 O 1.2035(2) 0.35916(8) 0.24412(16)
O9C O 0.8028(3) 0.09390(10) 0.5400(2)
N1C N 0.6087(2) 0.17825(9) 0.42616(18)
N2C N 0.5663(2) 0.24994(9) 0.34931(17)
N3C N 0.7579(2) 0.14292(10) 0.29089(19)
N4C N 0.1973(2) 0.51772(9) 0.12626(19)
N4E N 0.3027(2) 0.01772(9) 0.12626(19)
N4F N 0.6973(2) 0.01772(9) 0.37374(19)
N5C N 0.1073(2) 0.44618(9) 0.17275(17)
N5C_2 N 1.1073(2) 0.44618(9) 0.17275(17)
N6C N -0.0150(2) 0.56565(10) 0.0913(2)
N6E N 0.5150(2) 0.06565(10) 0.0913(2)
N6F N 0.4850(2) 0.06565(10) 0.4087(2)
C1C C 0.4985(3) 0.18822(12) 0.5732(2)
C2C C 0.5325(3) 0.20573(12) 0.4791(2)
C3C C 0.5054(3) 0.24959(11) 0.4315(2)
C4C C 0.4242(3) 0.29186(12) 0.4546(2)
C5C C 0.6281(3) 0.20620(11) 0.3496(2)
C6C C 0.7143(3) 0.19003(12) 0.2794(2)
C7C C 0.7535(3) 0.22148(14) 0.2088(3)
H1C H 0.7223 0.2546 0.2024
C8C C 0.8394(3) 0.20338(15) 0.1477(3)
H2C H 0.8658 0.2236 0.0973
C9C C 0.8859(3) 0.15607(15) 0.1607(3)
H3C H 0.9468 0.1436 0.1208
C10C C 0.8432(3) 0.12706(14) 0.2321(3)
H4C H 0.8754 0.0943 0.2404
C11C C 0.4111(3) 0.49689(14) 0.1306(3)
C12C C 0.2844(3) 0.48331(11) 0.1473(2)
C13C C 0.2283(3) 0.43943(11) 0.1767(2)
C14C C 0.2750(3) 0.38974(11) 0.2097(2)
C15C C 0.0936(3) 0.49360(11) 0.1415(2)
C16C C -0.0217(3) 0.51716(11) 0.1183(2)
C17C C -0.1289(3) 0.49148(13) 0.1194(2)
H5C H -0.1310 0.4571 0.1377
C18C C -0.2328(3) 0.51567(13) 0.0938(2)
H6C H -0.3076 0.4987 0.0961
C19C C -0.2258(3) 0.56497(13) 0.0649(2)
H7C H -0.2956 0.5825 0.0452
C20C C -0.1162(3) 0.58835(13) 0.0651(3)
H8C H -0.1121 0.6225 0.0456
H9C H 0.4513 0.4374 0.1759
H10C H 0.411(4) 0.2441(9) 0.595(3)
H11C H 0.828(4) 0.1227(17) 0.566(3)
H12C H 0.855(3) 0.0815(16) 0.503(2)
loop_
_geom_bond_atom_site_label_1
_geom_bond_atom_site_label_2
_geom_bond_site_symmetry_1
_geom_bond_site_symmetry_2
Cd1 O9 1_555 1_555
Cd2 O4 1_555 1_555
Cd3 O8 1_555 1_555
O1 C1 1_555 1_555
O2 C1 1_555 1_555
O3 C4 1_555 1_555
O4 C4 1_555 1_555
O5 C11 1_555 1_555
O6 C11 1_555 1_555
O7 Cd2 1_555 1_555
O8 C14 1_555 1_555
O9 H11 1_555 1_555
N1 Cd1 1_555 1_555
N2 Cd2 1_555 1_555
N3 Cd1 1_555 1_555
N4 C12 1_555 1_555
N5 Cd3 1_555 1_555
N6 C16 1_555 1_555
C1 C2 1_555 1_555
C2 N1 1_555 1_555
C3 N2 1_555 1_555
C4 C3 1_555 1_555
C5 N1 1_555 1_555
C6 N3 1_555 1_555
C7 C6 1_555 1_555
H1 C7 1_555 1_555
C8 C7 1_555 1_555
H2 C8 1_555 1_555
C9 C8 1_555 1_555
H3 C9 1_555 1_555
C10 N3 1_555 1_555
H4 C10 1_555 1_555
C11 C12 1_555 1_555
C12 C13 1_555 1_555
C13 N5 1_555 1_555
C14 O7 1_555 1_555
C15 N4 1_555 1_555
C16 C15 1_555 1_555
C17 C16 1_555 1_555
H5 C17 1_555 1_555
C18 C17 1_555 1_555
H6 C18 1_555 1_555
C19 C18 1_555 1_555
H7 C19 1_555 1_555
C20 N6 1_555 1_555
H8 C20 1_555 1_555
H9 O6 1_555 1_555
H10 O2 1_555 1_555
H12 O9 1_555 1_555
Cd1C O9C 1_555 1_555
Cd1E N4 1_555 1_555
Cd1F N4C 1_555 1_555
Cd3A O1 1_555 1_555
Cd3_2 O8C 1_555 1_555
Cd3A_2 O1C 1_555 1_555
O1C C1C 1_555 1_555
O1A Cd3 1_555 1_555
O1B Cd3 1_555 1_555
O2C C1C 1_555 1_555
O3C C4C 1_555 1_555
O4C Cd2 1_555 1_555
O5C C11C 1_555 1_555
O6C C11C 1_555 1_555
O7C Cd2 1_555 1_555
O8C C14C 1_555 1_555
O8C_2 Cd3 1_555 1_555
O9C H11C 1_555 1_555
N1C Cd1C 1_555 1_555
N2C Cd2 1_555 1_555
N3C Cd1C 1_555 1_555
N4C C12C 1_555 1_555
N4E Cd1 1_555 1_555
N4F Cd1C 1_555 1_555
N5C Cd3_2 1_555 1_555
N5C_2 Cd3 1_555 1_555
N6C Cd1F 1_555 1_555
N6E Cd1 1_555 1_555
N6F Cd1C 1_555 1_555
C1C C2C 1_555 1_555
C2C N1C 1_555 1_555
C3C N2C 1_555 1_555
C4C O4C 1_555 1_555
C5C N1C 1_555 1_555
C6C N3C 1_555 1_555
C7C C6C 1_555 1_555
H1C C7C 1_555 1_555
C8C C7C 1_555 1_555
H2C C8C 1_555 1_555
C9C C8C 1_555 1_555
H3C C9C 1_555 1_555
C10C N3C 1_555 1_555
H4C C10C 1_555 1_555
C11C C12C 1_555 1_555
C12C C13C 1_555 1_555
C13C N5C 1_555 1_555
C14C O7C 1_555 1_555
C15C N4C 1_555 1_555
C16C N6C 1_555 1_555
C17C C16C 1_555 1_555
H5C C17C 1_555 1_555
C18C C17C 1_555 1_555
H6C C18C 1_555 1_555
C19C C18C 1_555 1_555
H7C C19C 1_555 1_555
C20C N6C 1_555 1_555
H8C C20C 1_555 1_555
H9C O6C 1_555 1_555
H10C O2C 1_555 1_555
H12C O9C 1_555 1_555
N2 C5 1_555 1_555
N5 C15 1_555 1_555
N6 Cd1E 1_555 1_555
C2 C3 1_555 1_555
C5 C6 1_555 1_555
C9 C10 1_555 1_555
C13 C14 1_555 1_555
C19 C20 1_555 1_555
N2C C5C 1_555 1_555
N5C C15C 1_555 1_555
C2C C3C 1_555 1_555
C3C C4C 1_555 1_555
C5C C6C 1_555 1_555
C9C C10C 1_555 1_555
C13C C14C 1_555 1_555
C15C C16C 1_555 1_555
C19C C20C 1_555 1_555

#END
