
#######################################################################
#
#                 Cambridge Crystallographic Data Centre
#                                CCDC 
#
#######################################################################
#
# If this CIF has been generated from an entry in the Cambridge 
# Structural Database, then it will include bibliographic, chemical, 
# crystal, experimental, refinement or atomic coordinate data resulting 
# from the CCDC's data processing and validation procedures.
#
#######################################################################

data_YUTBAR
_symmetry_cell_setting           monoclinic
_symmetry_space_group_name_H-M   'C 2/c'
_symmetry_Int_Tables_number      15
_space_group_name_Hall           '-C 2yn'
loop_
_symmetry_equiv_pos_site_id
_symmetry_equiv_pos_as_xyz
1 x,y,z
2 -x,y,1/2-z
3 1/2+x,1/2+y,z
4 1/2-x,1/2+y,1/2-z
5 -x,-y,-z
6 x,-y,1/2+z
7 1/2-x,1/2-y,-z
8 1/2+x,1/2-y,1/2+z
_cell_length_a                   19.8537(9)
_cell_length_b                   11.2886(5)
_cell_length_c                   9.5983(4)
_cell_angle_alpha                90
_cell_angle_beta                 107.3390(10)
_cell_angle_gamma                90
_cell_volume                     2053.42
loop_
_atom_site_label
_atom_site_type_symbol
_atom_site_fract_x
_atom_site_fract_y
_atom_site_fract_z
Ni1 Ni 0.0000 -0.03864(3) 0.2500
C1 C 0.09838(10) -0.03277(16) 0.0543(2)
C2 C 0.15876(11) -0.09951(19) 0.0243(2)
C3 C 0.19493(12) -0.04706(19) -0.0659(3)
H1 H 0.1836 0.0292 -0.1021
C4 C 0.17748(11) -0.2097(2) 0.0804(2)
H2 H 0.1541 -0.2429 0.1418
C5 C 0.24669(12) -0.1097(2) -0.0995(3)
C6 C 0.23212(11) -0.2749(2) 0.0471(2)
C7 C 0.05131(13) 0.2102(2) 0.2205(3)
H3 H 0.0873 0.1689 0.1980
C8 C 0.05380(13) 0.3320(2) 0.2215(3)
H4 H 0.0915 0.3711 0.2031
C9 C 0.0000 0.3962(3) 0.2500
C10 C 0.0000 0.5274(2) 0.2500
C11 C -0.05933(13) 0.5914(2) 0.1749(3)
H5 H -0.1004 0.5523 0.1234
C12 C -0.05700(13) 0.7135(2) 0.1771(3)
H6 H -0.0971 0.7548 0.1252
N1 N 0.27980(13) -0.0538(2) -0.2008(3)
N2 N 0.0000 0.1481(2) 0.2500
N3 N 0.0000 0.7754(2) 0.2500
O1 O 0.08614(8) -0.05735(12) 0.17182(16)
O2 O 0.06715(8) 0.04324(11) -0.03678(16)
O3 O 0.28141(16) -0.1095(3) -0.3096(3)
O4 O 0.29915(14) 0.0474(2) -0.1765(4)
Ni1_2 Ni 0.0000 0.96136(3) 0.2500
Ni1B Ni 0.5000 -0.53864(3) 0.2500
Ni1D Ni 0.0000 0.03864(3) -0.2500
Ni1F Ni 0.5000 -0.46136(3) -0.2500
C1F C 0.40162(10) -0.46723(16) -0.0543(2)
C2F C 0.34124(11) -0.40049(19) -0.0243(2)
C3F C 0.30507(12) -0.45294(19) 0.0659(3)
H1F H 0.3164 -0.5292 0.1021
C4F C 0.32252(11) -0.2903(2) -0.0804(2)
H2F H 0.3459 -0.2571 -0.1418
C5F C 0.25331(12) -0.3903(2) 0.0995(3)
C6F C 0.26788(11) -0.2251(2) -0.0471(2)
C7A C -0.05131(13) 0.2102(2) 0.2795(3)
H3A H -0.0873 0.1689 0.3020
C8A C -0.05380(13) 0.3320(2) 0.2785(3)
H4A H -0.0915 0.3711 0.2969
C11A C 0.05933(13) 0.5914(2) 0.3251(3)
H5A H 0.1004 0.5523 0.3766
C12A C 0.05700(13) 0.7135(2) 0.3229(3)
H6A H 0.0971 0.7548 0.3748
N1F N 0.22020(13) -0.4462(2) 0.2008(3)
N3_2 N 0.0000 -0.2246(2) 0.2500
O1F O 0.41386(8) -0.44265(12) -0.17182(16)
O1A O -0.08614(8) -0.05735(12) 0.32818(16)
O2F O 0.43285(8) -0.54324(11) 0.03678(16)
O2D O -0.06715(8) -0.04324(11) 0.03678(16)
O2E O 0.06715(8) -0.04324(11) 0.46322(16)
O3F O 0.21859(16) -0.3905(3) 0.3096(3)
O4F O 0.20085(14) -0.5474(2) 0.1765(4)
loop_
_geom_bond_atom_site_label_1
_geom_bond_atom_site_label_2
_geom_bond_site_symmetry_1
_geom_bond_site_symmetry_2
Ni1 N2 1_555 1_555
C1 C2 1_555 1_555
C2 C3 1_555 1_555
C3 H1 1_555 1_555
C4 C2 1_555 1_555
H2 C4 1_555 1_555
C5 C3 1_555 1_555
C6 C4 1_555 1_555
C7 H3 1_555 1_555
C8 C7 1_555 1_555
H4 C8 1_555 1_555
C9 C8 1_555 1_555
C10 C9 1_555 1_555
C11 C10 1_555 1_555
H5 C11 1_555 1_555
C12 C11 1_555 1_555
H6 C12 1_555 1_555
N1 C5 1_555 1_555
N2 C7 1_555 1_555
N3 C12 1_555 1_555
O1 Ni1 1_555 1_555
O2 C1 1_555 1_555
O3 N1 1_555 1_555
O4 N1 1_555 1_555
Ni1_2 N3 1_555 1_555
Ni1B O2F 1_555 1_555
Ni1D O2 1_555 1_555
Ni1F O1F 1_555 1_555
C1F C2F 1_555 1_555
C2F C3F 1_555 1_555
C3F H1F 1_555 1_555
C4F C2F 1_555 1_555
H2F C4F 1_555 1_555
C5F C6 1_555 1_555
C6F C5 1_555 1_555
C7A N2 1_555 1_555
H3A C7A 1_555 1_555
C8A C9 1_555 1_555
H4A C8A 1_555 1_555
C11A C10 1_555 1_555
H5A C11A 1_555 1_555
C12A N3 1_555 1_555
H6A C12A 1_555 1_555
N1F C5F 1_555 1_555
N3_2 Ni1 1_555 1_555
O1F C1F 1_555 1_555
O1A Ni1 1_555 1_555
O2F C1F 1_555 1_555
O2D Ni1 1_555 1_555
O2E Ni1 1_555 1_555
O3F N1F 1_555 1_555
O4F N1F 1_555 1_555
C1 O1 1_555 1_555
C6 C6F 1_555 1_555
C3F C5F 1_555 1_555
C4F C6F 1_555 1_555
C7A C8A 1_555 1_555
C11A C12A 1_555 1_555

#END
