
#######################################################################
#
#                 Cambridge Crystallographic Data Centre
#                                CCDC 
#
#######################################################################
#
# If this CIF has been generated from an entry in the Cambridge 
# Structural Database, then it will include bibliographic, chemical, 
# crystal, experimental, refinement or atomic coordinate data resulting 
# from the CCDC's data processing and validation procedures.
#
#######################################################################

data_YUVRUD
_symmetry_cell_setting           monoclinic
_symmetry_space_group_name_H-M   'C 2/c'
_symmetry_Int_Tables_number      15
_space_group_name_Hall           '-C 2yn'
loop_
_symmetry_equiv_pos_site_id
_symmetry_equiv_pos_as_xyz
1 x,y,z
2 -x,y,1/2-z
3 1/2+x,1/2+y,z
4 1/2-x,1/2+y,1/2-z
5 -x,-y,-z
6 x,-y,1/2+z
7 1/2-x,1/2-y,-z
8 1/2+x,1/2-y,1/2+z
_cell_length_a                   11.1982(8)
_cell_length_b                   11.4580(6)
_cell_length_c                   11.3321(8)
_cell_angle_alpha                90
_cell_angle_beta                 111.798(5)
_cell_angle_gamma                90
_cell_volume                     1350.05
loop_
_atom_site_label
_atom_site_type_symbol
_atom_site_fract_x
_atom_site_fract_y
_atom_site_fract_z
Co1 Co 0.5000 0.01217(3) 0.7500
N1 N 0.5000 0.20163(19) 0.7500
N2 N 0.5000 0.8210(2) 0.7500
C1 C 0.5810(2) 0.26321(18) 0.7126(2)
H1 H 0.6391 0.2227 0.6869
C2 C 0.5832(2) 0.38330(18) 0.7100(2)
H2 H 0.6406 0.4216 0.6813
C3 C 0.5000 0.4470(2) 0.7500
C4 C 0.5000 0.5757(2) 0.7500
C5 C 0.4757(3) 0.63930(19) 0.8425(2)
H3 H 0.4583 0.6009 0.9066
C6 C 0.4774(3) 0.75932(19) 0.8397(2)
H4 H 0.4619 0.7998 0.9037
N3 N 0.38530(17) -0.01160(14) 0.35684(17)
C7 C 0.34604(18) -0.00129(15) 0.43675(18)
S1 S 0.29126(5) 0.01551(7) 0.55102(5)
Co1_2 Co 0.5000 1.01217(3) 0.7500
Co1D Co 0.5000 -0.01217(3) 0.2500
Co1D_2 Co 0.5000 -0.01217(3) 1.2500
N2_2 N 0.5000 -0.1790(2) 0.7500
C1A C 0.4190(2) 0.26321(18) 0.7874(2)
H1A H 0.3609 0.2227 0.8131
C2A C 0.4168(2) 0.38330(18) 0.7900(2)
H2A H 0.3594 0.4216 0.8187
C5A C 0.5243(3) 0.63930(19) 0.6575(2)
H3A H 0.5417 0.6009 0.5934
C6A C 0.5226(3) 0.75932(19) 0.6603(2)
H4A H 0.5381 0.7998 0.5963
N3D N 0.61470(17) 0.01160(14) 0.64316(17)
N3E N 0.38530(17) 0.01160(14) 0.85684(17)
N3A N 0.61470(17) -0.01160(14) 1.14316(17)
C7A C 0.65396(18) -0.00129(15) 1.06325(18)
S1A S 0.70874(5) 0.01551(7) 0.94898(5)
loop_
_geom_bond_atom_site_label_1
_geom_bond_atom_site_label_2
_geom_bond_site_symmetry_1
_geom_bond_site_symmetry_2
Co1 N1 1_555 1_555
N1 C1 1_555 1_555
N2 C6 1_555 1_555
C1 H1 1_555 1_555
C2 C1 1_555 1_555
H2 C2 1_555 1_555
C3 C2 1_555 1_555
C4 C3 1_555 1_555
C5 C4 1_555 1_555
H3 C5 1_555 1_555
C6 C5 1_555 1_555
H4 C6 1_555 1_555
N3 C7 1_555 1_555
C7 S1 1_555 1_555
S1 Co1 1_555 1_555
Co1_2 N2 1_555 1_555
Co1D N3 1_555 1_555
Co1D_2 N3A 1_555 1_555
N2_2 Co1 1_555 1_555
C1A N1 1_555 1_555
H1A C1A 1_555 1_555
C2A C3 1_555 1_555
H2A C2A 1_555 1_555
C5A C4 1_555 1_555
H3A C5A 1_555 1_555
C6A N2 1_555 1_555
H4A C6A 1_555 1_555
N3D Co1 1_555 1_555
N3E Co1 1_555 1_555
N3A C7A 1_555 1_555
C7A S1A 1_555 1_555
S1A Co1 1_555 1_555
C1A C2A 1_555 1_555
C5A C6A 1_555 1_555

#END
