
#######################################################################
#
#                 Cambridge Crystallographic Data Centre
#                                CCDC 
#
#######################################################################
#
# If this CIF has been generated from an entry in the Cambridge 
# Structural Database, then it will include bibliographic, chemical, 
# crystal, experimental, refinement or atomic coordinate data resulting 
# from the CCDC's data processing and validation procedures.
#
#######################################################################

data_YUVROX
_symmetry_cell_setting           monoclinic
_symmetry_space_group_name_H-M   'C 2/c'
_symmetry_Int_Tables_number      15
_space_group_name_Hall           '-C 2yn'
loop_
_symmetry_equiv_pos_site_id
_symmetry_equiv_pos_as_xyz
1 x,y,z
2 -x,y,1/2-z
3 1/2+x,1/2+y,z
4 1/2-x,1/2+y,1/2-z
5 -x,-y,-z
6 x,-y,1/2+z
7 1/2-x,1/2-y,-z
8 1/2+x,1/2-y,1/2+z
_cell_length_a                   12.2462(11)
_cell_length_b                   11.4238(9)
_cell_length_c                   16.5549(13)
_cell_angle_alpha                90
_cell_angle_beta                 100.1737(15)
_cell_angle_gamma                90
_cell_volume                     2279.58
loop_
_atom_site_label
_atom_site_type_symbol
_atom_site_fract_x
_atom_site_fract_y
_atom_site_fract_z
Co1 Co 0.50000 -0.6252(8) 0.25000
N1 N 0.3649(7) -0.6288(7) 0.1600(5)
C1 C 0.2896(7) -0.6066(7) 0.1076(5)
S1 S 0.1819(7) -0.5774(7) 0.0360(5)
N2 N 0.50000 -0.4405(14) 0.25000
N3 N 0.50000 0.1834(14) 0.25000
C2 C 0.5601(9) -0.3793(14) 0.2008(6)
C3 C 0.5595(9) -0.2566(14) 0.1970(6)
C4 C 0.50000 -0.1923(14) 0.25000
C5 C 0.50000 -0.0629(14) 0.25000
C6 C 0.4676(9) 0.0012(14) 0.1789(6)
C7 C 0.4667(9) 0.1216(14) 0.1814(6)
N4 N 0.3933(8) -0.6433(11) 0.3468(5)
C8 C 0.2977(8) -0.7078(11) 0.3290(5)
C9 C 0.2381(8) -0.7479(11) 0.3868(5)
C10 C 0.2724(8) -0.7218(11) 0.4694(5)
C11 C 0.3884(8) -0.6702(11) 0.4846(5)
C12 C 0.4438(8) -0.6355(11) 0.4243(5)
Co1_2 Co 0.50000 0.3748(8) 0.25000
Co1F Co 0.00000 -0.8748(8) 0.75000
N1A N 0.6351(7) -0.6288(7) 0.3400(5)
C1A C 0.7104(7) -0.6066(7) 0.3924(5)
S1A S 0.8181(7) -0.5774(7) 0.4640(5)
N3_2 N 0.50000 -0.8166(14) 0.25000
C2A C 0.4399(9) -0.3793(14) 0.2992(6)
C3A C 0.4405(9) -0.2566(14) 0.3030(6)
C6A C 0.5324(9) 0.0012(14) 0.3211(6)
C7A C 0.5333(9) 0.1216(14) 0.3186(6)
N4F N 0.1067(8) -0.8567(11) 0.6532(5)
N4A N 0.6067(8) -0.6433(11) 0.1532(5)
C8F C 0.2023(8) -0.7922(11) 0.6710(5)
C9F C 0.2619(8) -0.7521(11) 0.6132(5)
C10F C 0.2276(8) -0.7782(11) 0.5306(5)
C11F C 0.1116(8) -0.8298(11) 0.5154(5)
C12F C 0.0562(8) -0.8645(11) 0.5757(5)
loop_
_geom_bond_atom_site_label_1
_geom_bond_atom_site_label_2
_geom_bond_site_symmetry_1
_geom_bond_site_symmetry_2
Co1 N1 1_555 1_555
N1 C1 1_555 1_555
C1 S1 1_555 1_555
N2 Co1 1_555 1_555
N3 C7 1_555 1_555
C2 N2 1_555 1_555
C3 C2 1_555 1_555
C4 C3 1_555 1_555
C5 C4 1_555 1_555
C6 C5 1_555 1_555
C7 C6 1_555 1_555
N4 Co1 1_555 1_555
C8 N4 1_555 1_555
C9 C8 1_555 1_555
C10 C9 1_555 1_555
C11 C10 1_555 1_555
C12 N4 1_555 1_555
Co1_2 N3 1_555 1_555
Co1F N4F 1_555 1_555
N1A Co1 1_555 1_555
C1A N1A 1_555 1_555
S1A C1A 1_555 1_555
N3_2 Co1 1_555 1_555
C2A N2 1_555 1_555
C3A C4 1_555 1_555
C6A C5 1_555 1_555
C7A N3 1_555 1_555
N4F C8F 1_555 1_555
N4A Co1 1_555 1_555
C8F C9F 1_555 1_555
C9F C10F 1_555 1_555
C10F C10 1_555 1_555
C11F C10F 1_555 1_555
C12F N4F 1_555 1_555
C11 C12 1_555 1_555
C2A C3A 1_555 1_555
C6A C7A 1_555 1_555
C11F C12F 1_555 1_555

#END
