
#######################################################################
#
#                 Cambridge Crystallographic Data Centre
#                                CCDC 
#
#######################################################################
#
# If this CIF has been generated from an entry in the Cambridge 
# Structural Database, then it will include bibliographic, chemical, 
# crystal, experimental, refinement or atomic coordinate data resulting 
# from the CCDC's data processing and validation procedures.
#
#######################################################################

data_YUVSUE
_symmetry_cell_setting           tetragonal
_symmetry_space_group_name_H-M   'I 41/a'
_symmetry_Int_Tables_number      88
_space_group_name_Hall           '-I 4ad'
loop_
_symmetry_equiv_pos_site_id
_symmetry_equiv_pos_as_xyz
1 x,y,z
2 1/2-x,-y,1/2+z
3 3/4-y,1/4+x,1/4+z
4 3/4+y,3/4-x,3/4+z
5 1/2+x,1/2+y,1/2+z
6 -x,1/2-y,z
7 1/4-y,3/4+x,3/4+z
8 1/4+y,1/4-x,1/4+z
9 -x,-y,-z
10 1/2+x,y,1/2-z
11 1/4+y,3/4-x,3/4-z
12 1/4-y,1/4+x,1/4-z
13 1/2-x,1/2-y,1/2-z
14 x,1/2+y,-z
15 3/4+y,1/4-x,1/4-z
16 3/4-y,3/4+x,3/4-z
_cell_length_a                   15.4355(18)
_cell_length_b                   15.4355(18)
_cell_length_c                   22.775(5)
_cell_angle_alpha                90
_cell_angle_beta                 90
_cell_angle_gamma                90
_cell_volume                     5426.25
loop_
_atom_site_label
_atom_site_type_symbol
_atom_site_fract_x
_atom_site_fract_y
_atom_site_fract_z
Co1 Co 1.04353(9) 0.48205(10) 0.05604(6)
C1 C 0.8973(9) 0.3832(8) 0.1206(5)
H1 H 0.9323 0.3797 0.1549
N1 N 0.9266(6) 0.4204(6) 0.0705(4)
O1 O 0.9878(5) 0.5955(5) 0.0817(3)
C2 C 0.8566(7) 0.4151(7) 0.0349(5)
O2 O 0.9194(6) 0.6154(5) -0.0023(4)
N2 N 0.8528(6) 0.4451(7) -0.0209(4)
C3 C 0.7797(9) 0.4231(12) -0.0480(7)
H2 H 0.7747 0.4420 -0.0876
N3 N 0.7126(8) 0.3781(10) -0.0274(6)
N4 N 0.8173(6) 0.3519(6) 0.1193(4)
C4 C 0.7135(9) 0.3553(11) 0.0317(7)
C5 C 0.7913(7) 0.3727(8) 0.0629(5)
N5 N 0.6478(7) 0.3119(12) 0.0540(6)
H3 H 0.6037 0.2975 0.0315
H4 H 0.6480 0.2973 0.0913
C6 C 0.9368(7) 0.6354(7) 0.0498(6)
C7 C 0.8907(10) 0.7158(8) 0.0745(8)
H5 H 0.9089 0.7252 0.1152
H6 H 0.8279 0.7068 0.0732
H7 H 0.9060 0.7666 0.0509
Co1H Co 0.95647(9) 0.51795(10) -0.05604(6)
Co1K Co 0.76795(10) 0.29353(9) 0.19396(6)
O2H O 1.0806(6) 0.3846(5) 0.0023(4)
N2H N 1.1472(6) 0.5549(7) 0.0209(4)
N4N N 1.1019(6) 0.4327(6) 0.1307(4)
loop_
_geom_bond_atom_site_label_1
_geom_bond_atom_site_label_2
_geom_bond_site_symmetry_1
_geom_bond_site_symmetry_2
Co1 N1 1_555 1_555
C1 H1 1_555 1_555
N1 C1 1_555 1_555
O1 Co1 1_555 1_555
C2 N1 1_555 1_555
O2 C6 1_555 1_555
N2 C2 1_555 1_555
C3 N2 1_555 1_555
H2 C3 1_555 1_555
N3 C3 1_555 1_555
N4 C1 1_555 1_555
C4 N3 1_555 1_555
C5 C2 1_555 1_555
N5 C4 1_555 1_555
H3 N5 1_555 1_555
H4 N5 1_555 1_555
C6 O1 1_555 1_555
C7 C6 1_555 1_555
H5 C7 1_555 1_555
H6 C7 1_555 1_555
H7 C7 1_555 1_555
Co1H O2 1_555 1_555
Co1K N4 1_555 1_555
O2H Co1 1_555 1_555
N2H Co1 1_555 1_555
N4N Co1 1_555 1_555
N2 Co1H 1_555 1_555
N4 C5 1_555 1_555
C4 C5 1_555 1_555

#END
