
#######################################################################
#
#                 Cambridge Crystallographic Data Centre
#                                CCDC 
#
#######################################################################
#
# If this CIF has been generated from an entry in the Cambridge 
# Structural Database, then it will include bibliographic, chemical, 
# crystal, experimental, refinement or atomic coordinate data resulting 
# from the CCDC's data processing and validation procedures.
#
#######################################################################

data_YUWHOO
_symmetry_cell_setting           monoclinic
_symmetry_space_group_name_H-M   'C 2/c'
_symmetry_Int_Tables_number      15
_space_group_name_Hall           '-C 2yn'
loop_
_symmetry_equiv_pos_site_id
_symmetry_equiv_pos_as_xyz
1 x,y,z
2 -x,y,1/2-z
3 1/2+x,1/2+y,z
4 1/2-x,1/2+y,1/2-z
5 -x,-y,-z
6 x,-y,1/2+z
7 1/2-x,1/2-y,-z
8 1/2+x,1/2-y,1/2+z
_cell_length_a                   21.857(4)
_cell_length_b                   10.821(2)
_cell_length_c                   12.169(2)
_cell_angle_alpha                90
_cell_angle_beta                 123.31(3)
_cell_angle_gamma                90
_cell_volume                     2405.3
loop_
_atom_site_label
_atom_site_type_symbol
_atom_site_fract_x
_atom_site_fract_y
_atom_site_fract_z
Ga1 Ga 0.2500 0.2500 0.5000
Ga2 Ga 0.0000 0.5000 0.5000
N1 N 0.18662(12) 0.3034(2) 0.5678(2)
N2 N 0.09323(12) 0.3925(2) 0.5657(2)
N3 N 0.34164(12) 0.2344(2) 0.6934(2)
N4 N 0.43385(12) 0.1435(2) 0.8771(2)
N5 N 0.27808(12) 0.4334(2) 0.4971(2)
N6 N 0.28090(16) 0.6388(2) 0.5118(3)
N7 N 0.00521(12) 0.5695(2) 0.3472(2)
C1 C 0.12504(15) 0.3703(3) 0.5002(3)
C2 C 0.13802(16) 0.3334(3) 0.6850(3)
C3 C 0.19499(17) 0.2806(3) 0.6854(3)
C4 C 0.36505(14) 0.1338(2) 0.7705(3)
C5 C 0.45529(16) 0.2612(3) 0.8684(3)
C6 C 0.39940(15) 0.3165(3) 0.7574(3)
C7 C 0.25288(17) 0.5340(3) 0.5236(3)
C8 C 0.32752(19) 0.6043(3) 0.4756(4)
C9 C 0.32596(17) 0.4790(3) 0.4669(4)
C10 C 0.0000 0.5023(3) 0.2500
C11 C 0.00379(18) 0.6900(3) 0.3092(3)
H1 H 0.109(2) 0.395(4) 0.419(5)
H2 H 0.231(3) 0.244(5) 0.750(6)
H3 H 0.128(3) 0.319(5) 0.740(5)
H4 H 0.334(2) 0.062(4) 0.744(4)
H5 H 0.397(2) 0.394(4) 0.728(4)
H6 H 0.502(2) 0.293(3) 0.933(4)
H7 H 0.223(3) 0.529(4) 0.554(5)
H8 H 0.352(3) 0.427(5) 0.449(5)
H9 H 0.354(3) 0.660(5) 0.461(5)
H10 H 0.0000 0.419(5) 0.2500
H11 H 0.008(3) 0.757(4) 0.364(5)
Ga2C Ga 0.5000 0.0000 1.0000
Ga2A Ga 0.0000 0.5000 0.0000
Ga2B Ga 0.5000 0.0000 0.5000
N1F N 0.31338(12) 0.1966(2) 0.4322(2)
N2F N 0.40677(12) 0.1075(2) 0.4343(2)
N2D N -0.09323(12) 0.6075(2) 0.4343(2)
N3F N 0.15836(12) 0.2656(2) 0.3066(2)
N4F N 0.06615(12) 0.3565(2) 0.1229(2)
N4C N 0.06615(12) 0.6435(2) 0.6229(2)
N4G N -0.06615(12) 0.3565(2) 0.3771(2)
N5F N 0.22192(12) 0.0666(2) 0.5029(2)
N6F N 0.21910(16) -0.1388(2) 0.4882(3)
N7A N -0.00521(12) 0.5695(2) 0.1528(2)
N7D N -0.00521(12) 0.4305(2) 0.6528(2)
C1F C 0.37496(15) 0.1297(3) 0.4998(3)
C2F C 0.36198(16) 0.1666(3) 0.3150(3)
C3F C 0.30501(17) 0.2194(3) 0.3146(3)
C4F C 0.13495(14) 0.3662(2) 0.2295(3)
C5F C 0.04471(16) 0.2388(3) 0.1316(3)
C6F C 0.10060(15) 0.1835(3) 0.2426(3)
C7F C 0.24712(17) -0.0340(3) 0.4764(3)
C8F C 0.17248(19) -0.1043(3) 0.5244(4)
C9F C 0.17404(17) 0.0210(3) 0.5331(4)
C11A C -0.00379(18) 0.6900(3) 0.1908(3)
H1F H 0.391(2) 0.105(4) 0.581(5)
H2F H 0.269(3) 0.256(5) 0.250(6)
H3F H 0.372(3) 0.181(5) 0.260(5)
H4F H 0.166(2) 0.438(4) 0.256(4)
H5F H 0.103(2) 0.106(4) 0.272(4)
H6F H -0.002(2) 0.207(3) 0.067(4)
H7F H 0.277(3) -0.029(4) 0.446(5)
H8F H 0.148(3) 0.073(5) 0.551(5)
H9F H 0.146(3) -0.160(5) 0.539(5)
H11A H -0.008(3) 0.757(4) 0.136(5)
loop_
_geom_bond_atom_site_label_1
_geom_bond_atom_site_label_2
_geom_bond_site_symmetry_1
_geom_bond_site_symmetry_2
Ga1 N1 1_555 1_555
Ga2 N2 1_555 1_555
N1 C1 1_555 1_555
N2 C1 1_555 1_555
N3 Ga1 1_555 1_555
N4 C4 1_555 1_555
N5 Ga1 1_555 1_555
N6 C7 1_555 1_555
N7 Ga2 1_555 1_555
C1 H1 1_555 1_555
C2 N2 1_555 1_555
C3 N1 1_555 1_555
C4 N3 1_555 1_555
C5 N4 1_555 1_555
C6 N3 1_555 1_555
C7 N5 1_555 1_555
C8 N6 1_555 1_555
C9 N5 1_555 1_555
C10 N7 1_555 1_555
C11 N7 1_555 1_555
H2 C3 1_555 1_555
H3 C2 1_555 1_555
H4 C4 1_555 1_555
H5 C6 1_555 1_555
H6 C5 1_555 1_555
H7 C7 1_555 1_555
H8 C9 1_555 1_555
H9 C8 1_555 1_555
H10 C10 1_555 1_555
H11 C11 1_555 1_555
Ga2C N4 1_555 1_555
Ga2A N4F 1_555 1_555
Ga2B N2F 1_555 1_555
N1F Ga1 1_555 1_555
N2F C1F 1_555 1_555
N2D Ga2 1_555 1_555
N3F Ga1 1_555 1_555
N4F C4F 1_555 1_555
N4C Ga2 1_555 1_555
N4G Ga2 1_555 1_555
N5F Ga1 1_555 1_555
N6F C7F 1_555 1_555
N7A C10 1_555 1_555
N7D Ga2 1_555 1_555
C1F N1F 1_555 1_555
C2F N2F 1_555 1_555
C3F N1F 1_555 1_555
C4F N3F 1_555 1_555
C5F N4F 1_555 1_555
C6F N3F 1_555 1_555
C7F N5F 1_555 1_555
C8F N6F 1_555 1_555
C9F N5F 1_555 1_555
C11A C11 1_555 1_555
H1F C1F 1_555 1_555
H2F C3F 1_555 1_555
H3F C2F 1_555 1_555
H4F C4F 1_555 1_555
H5F C6F 1_555 1_555
H6F C5F 1_555 1_555
H7F C7F 1_555 1_555
H8F C9F 1_555 1_555
H9F C8F 1_555 1_555
H11A C11A 1_555 1_555
C2 C3 1_555 1_555
C5 C6 1_555 1_555
C8 C9 1_555 1_555
Ga2A N7A 1_555 1_555
N7A C11A 1_555 1_555
C2F C3F 1_555 1_555
C5F C6F 1_555 1_555
C8F C9F 1_555 1_555

#END
