
#######################################################################
#
#                 Cambridge Crystallographic Data Centre
#                                CCDC 
#
#######################################################################
#
# If this CIF has been generated from an entry in the Cambridge 
# Structural Database, then it will include bibliographic, chemical, 
# crystal, experimental, refinement or atomic coordinate data resulting 
# from the CCDC's data processing and validation procedures.
#
#######################################################################

data_YUWKEH
_symmetry_cell_setting           monoclinic
_symmetry_space_group_name_H-M   'P 21/c'
_symmetry_Int_Tables_number      14
_space_group_name_Hall           '-P 2ybc'
loop_
_symmetry_equiv_pos_site_id
_symmetry_equiv_pos_as_xyz
1 x,y,z
2 -x,1/2+y,1/2-z
3 -x,-y,-z
4 x,1/2-y,1/2+z
_cell_length_a                   21.9747(15)
_cell_length_b                   10.1618(7)
_cell_length_c                   14.1140(9)
_cell_angle_alpha                90
_cell_angle_beta                 91.5330(10)
_cell_angle_gamma                90
_cell_volume                     3150.56
loop_
_atom_site_label
_atom_site_type_symbol
_atom_site_fract_x
_atom_site_fract_y
_atom_site_fract_z
Nd1 Nd 0.259436(7) 0.440512(16) 0.767654(10)
Nd2 Nd 0.249277(6) 0.250379(15) 1.025530(10)
O1 O 0.30802(9) 0.2593(2) 0.86164(16)
O2 O 0.28324(12) 0.0696(2) 0.92075(18)
C1 C 0.30754(13) 0.1349(3) 0.8566(2)
C2 C 0.33827(14) 0.0646(3) 0.7771(2)
H1 H 0.3409 0.1225 0.7228
H2 H 0.3146 -0.0121 0.7583
C3 C 0.40141(14) 0.0227(3) 0.8097(2)
C4 C 0.44693(15) 0.1151(4) 0.8244(3)
H3 H 0.4389 0.2033 0.8119
C5 C 0.50427(16) 0.0781(4) 0.8577(3)
H4 H 0.5341 0.1418 0.8676
C6 C 0.51757(16) -0.0515(4) 0.8760(3)
C7 C 0.47273(17) -0.1441(4) 0.8599(3)
H5 H 0.4813 -0.2323 0.8714
C8 C 0.41528(16) -0.1089(4) 0.8271(3)
H6 H 0.3858 -0.1733 0.8165
C9 C 0.57901(16) -0.0929(5) 0.9161(3)
H7 H 0.5887 -0.0382 0.9707
H8 H 0.5759 -0.1829 0.9383
C10 C 0.63119(14) -0.0851(4) 0.8493(2)
O3 O 0.67539(9) -0.1633(2) 0.86484(15)
O4 O 0.63291(11) -0.0069(3) 0.78277(19)
O5 O 0.19456(9) 0.3670(2) 0.90227(14)
O6 O 0.14646(11) 0.4802(3) 0.79496(19)
C11 C 0.14553(14) 0.4202(3) 0.8706(2)
C12 C 0.08881(14) 0.4074(4) 0.9284(2)
H9 H 0.0845 0.3159 0.9467
H10 H 0.0947 0.4582 0.9861
C13 C 0.02994(13) 0.4511(3) 0.8805(2)
C14 C -0.01379(14) 0.3627(3) 0.8535(2)
H11 H -0.0071 0.2736 0.8647
C15 C -0.06825(14) 0.4023(3) 0.8096(2)
H12 H -0.0972 0.3396 0.7916
C16 C -0.07958(14) 0.5331(3) 0.7928(2)
C17 C -0.03626(15) 0.6231(4) 0.8214(2)
H13 H -0.0435 0.7123 0.8112
C18 C 0.01788(15) 0.5839(4) 0.8649(3)
H14 H 0.0464 0.6468 0.8840
C19 C -0.13861(15) 0.5794(4) 0.7454(2)
H15 H -0.1296 0.6460 0.6986
H16 H -0.1579 0.5059 0.7126
C20 C -0.18198(13) 0.6352(3) 0.8153(2)
O7 O -0.21452(10) 0.7341(2) 0.79514(16)
O8 O -0.18703(11) 0.5802(2) 0.89427(16)
O9 O 0.31542(11) 0.4330(2) 1.03542(17)
O10 O 0.30634(11) 0.5495(2) 0.90396(16)
C21 C 0.32979(13) 0.5264(3) 0.9840(2)
C22 C 0.37981(14) 0.6172(3) 1.0209(2)
H17 H 0.3780 0.6996 0.9862
H18 H 0.3735 0.6363 1.0873
C23 C 0.44197(14) 0.5552(3) 1.0101(2)
C24 C 0.45979(15) 0.5054(4) 0.9237(2)
H19 H 0.4328 0.5084 0.8718
C25 C 0.48326(15) 0.5485(4) 1.0866(2)
H20 H 0.4722 0.5808 1.1454
O11 O 0.15324(10) 0.3691(2) 0.51216(19)
O12 O 0.21703(9) 0.4735(2) 0.60660(14)
C26 C 0.16485(13) 0.4649(3) 0.5643(2)
C27 C 0.11867(14) 0.5711(3) 0.5789(2)
H21 H 0.1156 0.5877 0.6463
H22 H 0.1326 0.6515 0.5494
C28 C 0.05675(13) 0.5367(3) 0.5386(2)
C29 C 0.01367(14) 0.4793(3) 0.5948(2)
H23 H 0.0224 0.4649 0.6589
C30 C 0.04247(14) 0.5571(3) 0.4437(2)
H24 H 0.0710 0.5959 0.4051
O13 O 0.24896(14) 0.6776(3) 0.7465(2)
H25 H 0.2443 0.7014 0.6877
H26 H 0.2219 0.7098 0.7858
Nd1A Nd 0.740564(7) 0.940512(16) 0.732346(10)
Nd1A_2 Nd 0.740564(7) -0.059488(16) 0.732346(10)
Nd1A_3 Nd -0.259436(7) 0.940512(16) 0.732346(10)
Nd1B Nd 0.740564(7) 0.559488(16) 1.232346(10)
Nd1B_2 Nd -0.259436(7) 0.559488(16) 0.232346(10)
Nd1A_4 Nd -0.259436(7) -0.059488(16) 0.732346(10)
Nd2A Nd 0.750723(6) 0.750379(15) 0.474470(10)
Nd2B Nd 0.750723(6) -0.250379(15) 0.974470(10)
Nd2B_2 Nd -0.249277(6) 0.749621(15) 0.974470(10)
Nd2C Nd 0.249277(6) 0.249621(15) 0.525530(10)
Nd2B_3 Nd 0.750723(6) 0.749621(15) 0.974470(10)
Nd2A_2 Nd -0.249277(6) 0.750379(15) 0.474470(10)
Nd2A_3 Nd -0.249277(6) -0.249621(15) 0.474470(10)
O1A O 0.69198(9) 0.7593(2) 0.63836(16)
O2A O 0.71676(12) 0.5696(2) 0.57925(18)
C1A C 0.69246(13) 0.6349(3) 0.6434(2)
C2A C 0.66173(14) 0.5646(3) 0.7229(2)
H1A H 0.6591 0.6225 0.7772
H2A H 0.6854 0.4879 0.7417
C3A C 0.59859(14) 0.5227(3) 0.6903(2)
C4A C 0.55307(15) 0.6151(4) 0.6756(3)
H3A H 0.5611 0.7033 0.6881
C5A C 0.49573(16) 0.5781(4) 0.6423(3)
H4A H 0.4659 0.6418 0.6324
C6A C 0.48243(16) 0.4485(4) 0.6240(3)
C7A C 0.52727(17) 0.3559(4) 0.6401(3)
H5A H 0.5187 0.2677 0.6286
C8A C 0.58472(16) 0.3911(4) 0.6729(3)
H6A H 0.6142 0.3267 0.6835
C9A C 0.42099(16) 0.4071(5) 0.5839(3)
H7A H 0.4113 0.4618 0.5293
H8A H 0.4241 0.3171 0.5617
C10A C 0.36881(14) 0.4149(4) 0.6507(2)
O3A O 0.32461(9) 0.3367(2) 0.63516(15)
O3B O 0.32461(9) 0.1633(2) 1.13516(15)
O3_2 O 0.67539(9) 0.8367(2) 0.86484(15)
O3C O 0.67539(9) 0.6633(2) 0.36484(15)
O4A O 0.36709(11) 0.4931(3) 0.71723(19)
O4_2 O 0.63291(11) 0.9931(3) 0.78277(19)
O5A O -0.19456(9) -0.1330(2) 0.59773(14)
O5A_2 O 0.80544(9) 0.8670(2) 0.59773(14)
O6A O -0.14646(11) -0.0198(3) 0.70504(19)
O6A_2 O 0.85354(11) 0.9802(3) 0.70504(19)
C11A C -0.14553(14) -0.0798(3) 0.6294(2)
C12A C -0.08881(14) -0.0926(4) 0.5716(2)
H9A H -0.0845 -0.1841 0.5533
H10A H -0.0947 -0.0418 0.5139
C13A C -0.02994(13) -0.0489(3) 0.6195(2)
C14A C 0.01379(14) -0.1373(3) 0.6465(2)
H11A H 0.0071 -0.2264 0.6353
C15A C 0.06825(14) -0.0977(3) 0.6904(2)
H12A H 0.0972 -0.1604 0.7084
C16A C 0.07958(14) 0.0331(3) 0.7072(2)
C17A C 0.03626(15) 0.1231(4) 0.6786(2)
H13A H 0.0435 0.2123 0.6888
C18A C -0.01788(15) 0.0839(4) 0.6351(3)
H14A H -0.0464 0.1468 0.6160
C19A C 0.13861(15) 0.0794(4) 0.7546(2)
H15A H 0.1296 0.1460 0.8014
H16A H 0.1579 0.0059 0.7874
C20A C 0.18198(13) 0.1352(3) 0.6847(2)
O7A O 0.21452(10) 0.2341(2) 0.70486(16)
O7B O 0.21452(10) 0.2659(2) 1.20486(16)
O7_2 O 0.78548(10) 0.7341(2) 0.79514(16)
O7C O 0.78548(10) 0.7659(2) 0.29514(16)
O8A O 0.18703(11) 0.0802(2) 0.60573(16)
O8B O 0.18703(11) 0.4198(2) 1.10573(16)
O8C O 0.81297(11) 0.9198(2) 0.39427(16)
O9B O 0.68458(11) 0.5670(2) 0.96458(17)
O9A O 0.68458(11) 0.9330(2) 0.46458(17)
O10B O 0.69366(11) 0.4505(2) 1.09604(16)
O10A O 0.69366(11) 1.0495(2) 0.59604(16)
C21B C 0.67021(13) 0.4736(3) 1.0160(2)
C22B C 0.62019(14) 0.3828(3) 0.9791(2)
H17B H 0.6220 0.3004 1.0138
H18B H 0.6265 0.3637 0.9127
C23B C 0.55803(14) 0.4448(3) 0.9899(2)
C24B C 0.54021(15) 0.4946(4) 1.0763(2)
H19B H 0.5672 0.4916 1.1282
C25B C 0.51674(15) 0.4515(4) 0.9134(2)
H20B H 0.5278 0.4192 0.8546
O11B O -0.15324(10) 0.6309(2) 0.48784(19)
O11C O 0.15324(10) 0.1309(2) 1.01216(19)
O11B_2 O 0.84676(10) 0.6309(2) 0.48784(19)
O12B O -0.21703(9) 0.5265(2) 0.39340(14)
O12C O 0.21703(9) 0.0265(2) 1.10660(14)
O12A O 0.78297(9) 0.9735(2) 0.89340(14)
O12B_2 O 0.78297(9) 0.5265(2) 0.39340(14)
C26B C -0.16485(13) 0.5351(3) 0.4357(2)
C27B C -0.11867(14) 0.4289(3) 0.4211(2)
H21B H -0.1156 0.4123 0.3537
H22B H -0.1326 0.3485 0.4506
C28B C -0.05675(13) 0.4633(3) 0.4614(2)
C29B C -0.01367(14) 0.5207(3) 0.4052(2)
H23B H -0.0224 0.5351 0.3411
C30B C -0.04247(14) 0.4429(3) 0.5563(2)
H24B H -0.0710 0.4041 0.5949
O13A O 0.75104(14) 1.1776(3) 0.7535(2)
H25A H 0.7557 1.2014 0.8123
H26A H 0.7781 1.2098 0.7142
O14 O 0.2431(2) 0.8156(3) 0.9108(2)
H27 H 0.2607 0.7411 0.9091
H28 H 0.2519 0.8972 0.9110
O15 O 0.22321(16) 0.8189(3) 0.5891(2)
H29 H 0.2292 0.7799 0.5369
H30 H 0.2055 0.8933 0.5830
loop_
_geom_bond_atom_site_label_1
_geom_bond_atom_site_label_2
_geom_bond_site_symmetry_1
_geom_bond_site_symmetry_2
Nd1 O1 1_555 1_555
Nd2 O1 1_555 1_555
O1 C1 1_555 1_555
O2 Nd2 1_555 1_555
C1 O2 1_555 1_555
C2 C1 1_555 1_555
H1 C2 1_555 1_555
H2 C2 1_555 1_555
C3 C2 1_555 1_555
C4 C3 1_555 1_555
H3 C4 1_555 1_555
C5 C4 1_555 1_555
H4 C5 1_555 1_555
C6 C5 1_555 1_555
C7 C6 1_555 1_555
H5 C7 1_555 1_555
C8 C3 1_555 1_555
H6 C8 1_555 1_555
C9 C6 1_555 1_555
H7 C9 1_555 1_555
H8 C9 1_555 1_555
C10 C9 1_555 1_555
O3 C10 1_555 1_555
O4 C10 1_555 1_555
O5 Nd1 1_555 1_555
O6 Nd1 1_555 1_555
C11 O5 1_555 1_555
C12 C11 1_555 1_555
H9 C12 1_555 1_555
H10 C12 1_555 1_555
C13 C12 1_555 1_555
C14 C13 1_555 1_555
H11 C14 1_555 1_555
C15 C14 1_555 1_555
H12 C15 1_555 1_555
C16 C15 1_555 1_555
C17 C16 1_555 1_555
H13 C17 1_555 1_555
C18 C13 1_555 1_555
H14 C18 1_555 1_555
C19 C16 1_555 1_555
H15 C19 1_555 1_555
H16 C19 1_555 1_555
C20 C19 1_555 1_555
O7 C20 1_555 1_555
O8 C20 1_555 1_555
O9 Nd2 1_555 1_555
O10 Nd1 1_555 1_555
C21 O9 1_555 1_555
C22 C21 1_555 1_555
H17 C22 1_555 1_555
H18 C22 1_555 1_555
C23 C22 1_555 1_555
C24 C23 1_555 1_555
H19 C24 1_555 1_555
C25 C23 1_555 1_555
H20 C25 1_555 1_555
O11 C26 1_555 1_555
O12 Nd1 1_555 1_555
C26 O12 1_555 1_555
C27 C26 1_555 1_555
H21 C27 1_555 1_555
H22 C27 1_555 1_555
C28 C27 1_555 1_555
C29 C28 1_555 1_555
H23 C29 1_555 1_555
C30 C28 1_555 1_555
H24 C30 1_555 1_555
O13 Nd1 1_555 1_555
H25 O13 1_555 1_555
H26 O13 1_555 1_555
O14 H27 1_555 1_555
H28 O14 1_555 1_555
O15 H29 1_555 1_555
H30 O15 1_555 1_555
Nd1A O1A 1_555 1_555
Nd1A_2 O3 1_555 1_555
Nd1A_3 O7 1_555 1_555
Nd1B O10B 1_555 1_555
Nd1B_2 O12B 1_555 1_555
Nd1A_4 O5A 1_555 1_555
Nd2A O1A 1_555 1_555
Nd2B O3 1_555 1_555
Nd2B_2 O7 1_555 1_555
Nd2C O11 1_555 1_555
Nd2B_3 O3_2 1_555 1_555
Nd2A_2 O11B 1_555 1_555
Nd2A_3 O5A 1_555 1_555
O1A C1A 1_555 1_555
O2A Nd2A 1_555 1_555
C1A O2A 1_555 1_555
C2A C1A 1_555 1_555
H1A C2A 1_555 1_555
H2A C2A 1_555 1_555
C3A C2A 1_555 1_555
C4A C3A 1_555 1_555
H3A C4A 1_555 1_555
C5A C4A 1_555 1_555
H4A C5A 1_555 1_555
C6A C5A 1_555 1_555
C7A C6A 1_555 1_555
H5A C7A 1_555 1_555
C8A C3A 1_555 1_555
H6A C8A 1_555 1_555
C9A C6A 1_555 1_555
H7A C9A 1_555 1_555
H8A C9A 1_555 1_555
C10A C9A 1_555 1_555
O3A Nd1 1_555 1_555
O3B Nd2 1_555 1_555
O3_2 Nd1A 1_555 1_555
O3C Nd2A 1_555 1_555
O4A Nd1 1_555 1_555
O4_2 Nd1A 1_555 1_555
O5A C11A 1_555 1_555
O5A_2 Nd1A 1_555 1_555
O6A Nd1A_4 1_555 1_555
O6A_2 Nd1A 1_555 1_555
C11A O6A 1_555 1_555
C12A C11A 1_555 1_555
H9A C12A 1_555 1_555
H10A C12A 1_555 1_555
C13A C12A 1_555 1_555
C14A C13A 1_555 1_555
H11A C14A 1_555 1_555
C15A C14A 1_555 1_555
H12A C15A 1_555 1_555
C16A C15A 1_555 1_555
C17A C16A 1_555 1_555
H13A C17A 1_555 1_555
C18A C13A 1_555 1_555
H14A C18A 1_555 1_555
C19A C16A 1_555 1_555
H15A C19A 1_555 1_555
H16A C19A 1_555 1_555
C20A C19A 1_555 1_555
O7A Nd1 1_555 1_555
O7B Nd2 1_555 1_555
O7_2 Nd1A 1_555 1_555
O7C Nd2A 1_555 1_555
O8A Nd2C 1_555 1_555
O8B Nd2 1_555 1_555
O8C Nd2A 1_555 1_555
O9B Nd2B_3 1_555 1_555
O9A Nd2A 1_555 1_555
O10B C21B 1_555 1_555
O10A Nd1A 1_555 1_555
C21B O9B 1_555 1_555
C22B C21B 1_555 1_555
H17B C22B 1_555 1_555
H18B C22B 1_555 1_555
C23B C22B 1_555 1_555
C24B C25 1_555 1_555
H19B C24B 1_555 1_555
C25B C24 1_555 1_555
H20B C25B 1_555 1_555
O11B C26B 1_555 1_555
O11C Nd2 1_555 1_555
O11B_2 Nd2A 1_555 1_555
O12B Nd2A_2 1_555 1_555
O12C Nd2 1_555 1_555
O12A Nd1A 1_555 1_555
O12B_2 Nd2A 1_555 1_555
C26B O12B 1_555 1_555
C27B C26B 1_555 1_555
H21B C27B 1_555 1_555
H22B C27B 1_555 1_555
C28B C27B 1_555 1_555
C29B C30 1_555 1_555
H23B C29B 1_555 1_555
C30B C29 1_555 1_555
H24B C30B 1_555 1_555
O13A Nd1A 1_555 1_555
H25A O13A 1_555 1_555
H26A O13A 1_555 1_555
Nd2 O5 1_555 1_555
C7 C8 1_555 1_555
O4 Nd1A_2 1_555 1_555
O6 C11 1_555 1_555
C17 C18 1_555 1_555
O8 Nd2B_2 1_555 1_555
O10 C21 1_555 1_555
O12 Nd2C 1_555 1_555
Nd2A O5A_2 1_555 1_555
Nd2C O3A 1_555 1_555
Nd2C O7A 1_555 1_555
Nd2B_3 O7_2 1_555 1_555
Nd2B_3 O12A 1_555 1_555
C7A C8A 1_555 1_555
C10A O3A 1_555 1_555
C10A O4A 1_555 1_555
C17A C18A 1_555 1_555
C20A O7A 1_555 1_555
C20A O8A 1_555 1_555
C23B C24B 1_555 1_555
C23B C25B 1_555 1_555
C28B C29B 1_555 1_555
C28B C30B 1_555 1_555

#END
