
#######################################################################
#
#                 Cambridge Crystallographic Data Centre
#                                CCDC 
#
#######################################################################
#
# If this CIF has been generated from an entry in the Cambridge 
# Structural Database, then it will include bibliographic, chemical, 
# crystal, experimental, refinement or atomic coordinate data resulting 
# from the CCDC's data processing and validation procedures.
#
#######################################################################

data_YUWLOS
_symmetry_cell_setting           monoclinic
_symmetry_space_group_name_H-M   'P 21/n'
_symmetry_Int_Tables_number      14
_space_group_name_Hall           '-P 2yn'
loop_
_symmetry_equiv_pos_site_id
_symmetry_equiv_pos_as_xyz
1 x,y,z
2 1/2-x,1/2+y,1/2-z
3 -x,-y,-z
4 1/2+x,1/2-y,1/2+z
_cell_length_a                   11.45100(10)
_cell_length_b                   18.3188(2)
_cell_length_c                   16.2454(2)
_cell_angle_alpha                90
_cell_angle_beta                 104.0800(10)
_cell_angle_gamma                90
_cell_volume                     3305.39
loop_
_atom_site_label
_atom_site_type_symbol
_atom_site_fract_x
_atom_site_fract_y
_atom_site_fract_z
Cd1 Cd 0.433193(14) 0.345429(9) 0.683817(10)
Cd2 Cd 0.976620(15) 0.231010(9) 0.893810(10)
S1 S 0.32251(6) 0.06450(4) 0.64816(5)
S2 S 0.68305(5) 0.37446(3) 0.42809(3)
O1 O 0.86045(15) 0.13180(10) 0.85029(12)
O2 O 0.69548(15) 0.19147(9) 0.86323(10)
O3 O 0.36118(17) 0.25445(10) 0.75968(11)
O4 O 0.34760(17) 0.23124(9) 0.62560(11)
O5 O 1.03265(16) 0.24147(11) 0.76537(11)
O6 O 0.85840(15) 0.29279(10) 0.76051(10)
O7 O 0.53154(15) 0.42210(9) 0.61394(10)
O8 O 0.50226(15) 0.32646(9) 0.52915(10)
O9 O 0.83752(17) 0.29818(11) 0.95106(12)
H1 H 0.839(3) 0.2952(15) 1.0024(10)
H2 H 0.787(2) 0.2669(14) 0.9297(16)
O10 O 0.61532(16) 0.29096(12) 0.73769(14)
H3 H 0.629(3) 0.2651(16) 0.7817(15)
H4 H 0.6852(19) 0.3011(17) 0.7345(19)
N1 N 0.25400(16) 0.40402(11) 0.61938(12)
N2 N 0.87665(18) 0.68758(11) 1.04090(12)
N3 N 0.47889(18) 0.43383(11) 0.79506(12)
C1 C 0.92653(19) 0.28940(12) 0.63277(14)
C2 C 0.8241(2) 0.32397(13) 0.58440(14)
H5 H 0.7650 0.3406 0.6102
C3 C 0.81051(19) 0.33365(12) 0.49779(14)
C4 C 0.8988(2) 0.30805(15) 0.45982(15)
H6 H 0.8888 0.3131 0.4016
C5 C 1.0009(2) 0.27532(15) 0.50772(17)
H7 H 1.0606 0.2593 0.4820
C6 C 1.0150(2) 0.26622(14) 0.59402(16)
H8 H 1.0845 0.2444 0.6263
C7 C 0.9396(2) 0.27443(12) 0.72563(14)
C8 C 0.6166(2) 0.42852(12) 0.49665(15)
H9 H 0.6804 0.4555 0.5348
H10 H 0.5635 0.4640 0.4620
C9 C 0.54554(18) 0.38814(12) 0.54980(13)
C10 C 0.6710(2) 0.08181(12) 0.78329(14)
C11 C 0.5495(2) 0.09758(13) 0.74972(14)
H11 H 0.5170 0.1407 0.7646
C12 C 0.4772(2) 0.04927(13) 0.69436(15)
C13 C 0.5274(3) -0.01547(15) 0.67340(19)
H12 H 0.4802 -0.0478 0.6351
C14 C 0.6468(3) -0.03193(15) 0.7091(2)
H13 H 0.6789 -0.0758 0.6959
C15 C 0.7188(2) 0.01662(14) 0.76443(17)
H14 H 0.7990 0.0053 0.7887
C16 C 0.7483(2) 0.13943(13) 0.83695(14)
C17 C 0.2852(2) 0.13826(13) 0.70979(17)
H15 H 0.3133 0.1256 0.7693
H16 H 0.1982 0.1420 0.6975
C18 C 0.3351(2) 0.21312(13) 0.69687(16)
C19 C 0.1763(2) 0.43606(16) 0.65643(16)
H17 H 0.1904 0.4332 0.7152
C20 C 0.0757(2) 0.47331(16) 0.61275(15)
H18 H 0.0236 0.4943 0.6419
C21 C 0.05256(18) 0.47937(12) 0.52524(13)
C22 C 0.1327(2) 0.44545(16) 0.48771(15)
H19 H 0.1208 0.4472 0.4290
C23 C 0.2304(2) 0.40889(16) 0.53566(16)
H20 H 0.2827 0.3863 0.5079
C24 C 0.8644(3) 0.67515(16) 0.95866(18)
H21 H 0.9170 0.6981 0.9314
C25 C 0.7773(3) 0.62972(17) 0.91220(18)
H22 H 0.7694 0.6244 0.8542
C26 C 0.7016(2) 0.59218(13) 0.95137(15)
C27 C 0.7134(2) 0.60569(14) 1.03661(15)
H23 H 0.6638 0.5821 1.0658
C28 C 0.8001(2) 0.65476(14) 1.07826(16)
H24 H 0.8047 0.6651 1.1350
C29 C 0.6156(2) 0.53865(14) 0.90123(15)
C30 C 0.5388(2) 0.55775(14) 0.82404(16)
H25 H 0.5322 0.6062 0.8063
C31 C 0.4728(2) 0.50431(13) 0.77422(16)
H26 H 0.4210 0.5181 0.7231
C32 C 0.5493(3) 0.41624(14) 0.87059(16)
H27 H 0.5526 0.3676 0.8873
C33 C 0.6170(3) 0.46601(15) 0.92504(16)
H28 H 0.6634 0.4511 0.9776
Cd1B Cd -0.433193(14) 0.654571(9) 0.316183(10)
Cd1C Cd 0.933193(14) 0.154571(9) 1.183817(10)
Cd1B_2 Cd 1.566807(14) 0.654571(9) 1.316183(10)
Cd2C Cd 0.476620(15) 0.268990(9) 0.393810(10)
Cd2B Cd 1.023380(15) 0.768990(9) 1.106190(10)
Cd2C_2 Cd 1.476620(15) 0.268990(9) 1.393810(10)
Cd2B_2 Cd -0.976620(15) 0.768990(9) 0.106190(10)
S1B S -0.32251(6) 0.93550(4) 0.35184(5)
S2C S 1.18305(5) 0.12554(3) 0.92809(3)
O1B O -0.86045(15) 0.86820(10) 0.14971(12)
O1C O 0.36045(15) 0.36820(10) 0.35029(12)
O2B O -0.69548(15) 0.80853(9) 0.13677(10)
O3B O -0.36118(17) 0.74555(10) 0.24032(11)
O4B O -0.34760(17) 0.76876(9) 0.37440(11)
O5C O 1.53265(16) 0.25853(11) 1.26537(11)
O5C_2 O 0.53265(16) 0.25853(11) 0.26537(11)
O6C O 1.35840(15) 0.20721(10) 1.26051(10)
O6C_2 O 0.35840(15) 0.20721(10) 0.26051(10)
O7C O 1.03154(15) 0.07790(9) 1.11394(10)
O7B O -0.53154(15) 0.57790(9) 0.38606(10)
O8C O 1.00226(15) 0.17354(9) 1.02915(10)
O9C O 0.33752(17) 0.20182(11) 0.45106(12)
H1C H 0.339(3) 0.2048(15) 0.5024(10)
H2C H 0.287(2) 0.2331(14) 0.4297(16)
O10B O -0.61532(16) 0.70904(12) 0.26231(14)
H3B H -0.629(3) 0.7349(16) 0.2183(15)
H4B H -0.6852(19) 0.6989(17) 0.2655(19)
N1B N -0.25400(16) 0.59598(11) 0.38062(12)
N2B N 1.12335(18) 0.31242(11) 0.95910(12)
N2A N 0.62335(18) 0.18758(11) 0.45910(12)
N3B N 1.52111(18) 0.56617(11) 1.20494(12)
N3B_2 N -0.47889(18) 0.56617(11) 0.20494(12)
C1C C 1.42653(19) 0.21060(12) 1.13277(14)
C2C C 1.3241(2) 0.17603(13) 1.08440(14)
H5C H 1.2650 0.1594 1.1102
C3C C 1.31051(19) 0.16635(12) 0.99779(14)
C4C C 1.3988(2) 0.19195(15) 0.95982(15)
H6C H 1.3888 0.1869 0.9016
C5C C 1.5009(2) 0.22468(15) 1.00772(17)
H7C H 1.5606 0.2407 0.9820
C6C C 1.5150(2) 0.23378(14) 1.09402(16)
H8C H 1.5845 0.2556 1.1263
C7C C 1.4396(2) 0.22557(12) 1.22563(14)
C8C C 1.1166(2) 0.07148(12) 0.99665(15)
H9C H 1.1804 0.0445 1.0348
H10C H 1.0635 0.0360 0.9620
C9C C 1.04554(18) 0.11186(12) 1.04980(13)
C10B C -0.6710(2) 0.91819(12) 0.21671(14)
C11B C -0.5495(2) 0.90242(13) 0.25028(14)
H11B H -0.5170 0.8593 0.2354
C12B C -0.4772(2) 0.95073(13) 0.30564(15)
C13B C -0.5274(3) 1.01547(15) 0.32660(19)
H12B H -0.4802 1.0478 0.3649
C14B C -0.6468(3) 1.03193(15) 0.2909(2)
H13B H -0.6789 1.0758 0.3041
C15B C -0.7188(2) 0.98338(14) 0.23557(17)
H14B H -0.7990 0.9947 0.2113
C16B C -0.7483(2) 0.86057(13) 0.16305(14)
C17B C -0.2852(2) 0.86174(13) 0.29021(17)
H15B H -0.3133 0.8744 0.2307
H16B H -0.1982 0.8580 0.3025
C18B C -0.3351(2) 0.78688(13) 0.30313(16)
C19B C -0.1763(2) 0.56394(16) 0.34357(16)
H17B H -0.1904 0.5668 0.2848
C20B C -0.0757(2) 0.52669(16) 0.38725(15)
H18B H -0.0236 0.5057 0.3581
C21B C -0.05256(18) 0.52063(12) 0.47476(13)
C22B C -0.1327(2) 0.55455(16) 0.51229(15)
H19B H -0.1208 0.5528 0.5710
C23B C -0.2304(2) 0.59111(16) 0.46434(16)
H20B H -0.2827 0.6137 0.4921
C24B C 1.1356(3) 0.32485(16) 1.04134(18)
H21B H 1.0830 0.3019 1.0686
C25B C 1.2227(3) 0.37028(17) 1.08780(18)
H22B H 1.2306 0.3756 1.1458
C26B C 1.2984(2) 0.40782(13) 1.04863(15)
C27B C 1.2866(2) 0.39431(14) 0.96339(15)
H23B H 1.3362 0.4179 0.9342
C28B C 1.1999(2) 0.34524(14) 0.92174(16)
H24B H 1.1953 0.3349 0.8650
C29B C 1.3844(2) 0.46135(14) 1.09877(15)
C30B C 1.4612(2) 0.44225(14) 1.17596(16)
H25B H 1.4678 0.3938 1.1937
C31B C 1.5272(2) 0.49569(13) 1.22578(16)
H26B H 1.5790 0.4819 1.2769
C32B C 1.4507(3) 0.58376(14) 1.12941(16)
H27B H 1.4474 0.6324 1.1127
C33B C 1.3830(3) 0.53399(15) 1.07496(16)
H28B H 1.3366 0.5489 1.0224
loop_
_geom_bond_atom_site_label_1
_geom_bond_atom_site_label_2
_geom_bond_site_symmetry_1
_geom_bond_site_symmetry_2
Cd1 O3 1_555 1_555
Cd2 O1 1_555 1_555
S1 C12 1_555 1_555
S2 C3 1_555 1_555
O1 C16 1_555 1_555
O2 C16 1_555 1_555
O3 C18 1_555 1_555
O4 Cd1 1_555 1_555
O5 Cd2 1_555 1_555
O6 Cd2 1_555 1_555
O7 Cd1 1_555 1_555
O8 C9 1_555 1_555
O9 Cd2 1_555 1_555
H1 O9 1_555 1_555
H2 O9 1_555 1_555
O10 Cd1 1_555 1_555
H3 O10 1_555 1_555
H4 O10 1_555 1_555
N1 Cd1 1_555 1_555
N2 C24 1_555 1_555
N3 Cd1 1_555 1_555
C1 C2 1_555 1_555
C2 H5 1_555 1_555
C3 C2 1_555 1_555
C4 C3 1_555 1_555
H6 C4 1_555 1_555
C5 C4 1_555 1_555
H7 C5 1_555 1_555
C6 C1 1_555 1_555
H8 C6 1_555 1_555
C7 O5 1_555 1_555
C8 S2 1_555 1_555
H9 C8 1_555 1_555
H10 C8 1_555 1_555
C9 O7 1_555 1_555
C10 C11 1_555 1_555
C11 H11 1_555 1_555
C12 C11 1_555 1_555
C13 C12 1_555 1_555
H12 C13 1_555 1_555
C14 C13 1_555 1_555
H13 C14 1_555 1_555
C15 C10 1_555 1_555
H14 C15 1_555 1_555
C16 C10 1_555 1_555
C17 S1 1_555 1_555
H15 C17 1_555 1_555
H16 C17 1_555 1_555
C18 O4 1_555 1_555
C19 N1 1_555 1_555
H17 C19 1_555 1_555
C20 C19 1_555 1_555
H18 C20 1_555 1_555
C21 C20 1_555 1_555
C22 C21 1_555 1_555
H19 C22 1_555 1_555
C23 N1 1_555 1_555
H20 C23 1_555 1_555
C24 H21 1_555 1_555
C25 C24 1_555 1_555
H22 C25 1_555 1_555
C26 C25 1_555 1_555
C27 C26 1_555 1_555
H23 C27 1_555 1_555
C28 N2 1_555 1_555
H24 C28 1_555 1_555
C29 C26 1_555 1_555
C30 C29 1_555 1_555
H25 C30 1_555 1_555
C31 N3 1_555 1_555
H26 C31 1_555 1_555
C32 N3 1_555 1_555
H27 C32 1_555 1_555
C33 C29 1_555 1_555
H28 C33 1_555 1_555
Cd1B O3B 1_555 1_555
Cd1C O7C 1_555 1_555
Cd1B_2 N3B 1_555 1_555
Cd2C O8 1_555 1_555
Cd2B N2 1_555 1_555
Cd2C_2 O5C 1_555 1_555
Cd2B_2 O1B 1_555 1_555
S1B C12B 1_555 1_555
S2C C3C 1_555 1_555
O1B C16B 1_555 1_555
O1C Cd2C 1_555 1_555
O2B C16B 1_555 1_555
O3B C18B 1_555 1_555
O4B Cd1B 1_555 1_555
O5C C7C 1_555 1_555
O5C_2 Cd2C 1_555 1_555
O6C Cd2C_2 1_555 1_555
O6C_2 Cd2C 1_555 1_555
O7C C9C 1_555 1_555
O7B Cd1B 1_555 1_555
O8C Cd2 1_555 1_555
O9C Cd2C 1_555 1_555
H1C O9C 1_555 1_555
H2C O9C 1_555 1_555
O10B Cd1B 1_555 1_555
H3B O10B 1_555 1_555
H4B O10B 1_555 1_555
N1B Cd1B 1_555 1_555
N2B Cd2 1_555 1_555
N2A Cd2C 1_555 1_555
N3B C31B 1_555 1_555
N3B_2 Cd1B 1_555 1_555
C1C C2C 1_555 1_555
C2C H5C 1_555 1_555
C3C C2C 1_555 1_555
C4C C3C 1_555 1_555
H6C C4C 1_555 1_555
C5C C4C 1_555 1_555
H7C C5C 1_555 1_555
C6C C1C 1_555 1_555
H8C C6C 1_555 1_555
C7C O6C 1_555 1_555
C8C S2C 1_555 1_555
H9C C8C 1_555 1_555
H10C C8C 1_555 1_555
C9C O8C 1_555 1_555
C10B C11B 1_555 1_555
C11B H11B 1_555 1_555
C12B C11B 1_555 1_555
C13B C12B 1_555 1_555
H12B C13B 1_555 1_555
C14B C13B 1_555 1_555
H13B C14B 1_555 1_555
C15B C10B 1_555 1_555
H14B C15B 1_555 1_555
C16B C10B 1_555 1_555
C17B S1B 1_555 1_555
H15B C17B 1_555 1_555
H16B C17B 1_555 1_555
C18B O4B 1_555 1_555
C19B N1B 1_555 1_555
H17B C19B 1_555 1_555
C20B C19B 1_555 1_555
H18B C20B 1_555 1_555
C21B C21 1_555 1_555
C22B C21B 1_555 1_555
H19B C22B 1_555 1_555
C23B N1B 1_555 1_555
H20B C23B 1_555 1_555
C24B N2B 1_555 1_555
H21B C24B 1_555 1_555
C25B C24B 1_555 1_555
H22B C25B 1_555 1_555
C26B C25B 1_555 1_555
C27B C26B 1_555 1_555
H23B C27B 1_555 1_555
C28B N2B 1_555 1_555
H24B C28B 1_555 1_555
C29B C26B 1_555 1_555
C30B C29B 1_555 1_555
H25B C30B 1_555 1_555
C31B C30B 1_555 1_555
H26B C31B 1_555 1_555
C32B N3B 1_555 1_555
H27B C32B 1_555 1_555
C33B C29B 1_555 1_555
H28B C33B 1_555 1_555
O6 C7 1_555 1_555
C1 C7 1_555 1_555
C5 C6 1_555 1_555
C8 C9 1_555 1_555
C14 C15 1_555 1_555
C17 C18 1_555 1_555
C22 C23 1_555 1_555
C27 C28 1_555 1_555
C30 C31 1_555 1_555
C32 C33 1_555 1_555
C1C C7C 1_555 1_555
C5C C6C 1_555 1_555
C8C C9C 1_555 1_555
C14B C15B 1_555 1_555
C17B C18B 1_555 1_555
C20B C21B 1_555 1_555
C22B C23B 1_555 1_555
C27B C28B 1_555 1_555
C32B C33B 1_555 1_555

#END
