
#######################################################################
#
#                 Cambridge Crystallographic Data Centre
#                                CCDC 
#
#######################################################################
#
# If this CIF has been generated from an entry in the Cambridge 
# Structural Database, then it will include bibliographic, chemical, 
# crystal, experimental, refinement or atomic coordinate data resulting 
# from the CCDC's data processing and validation procedures.
#
#######################################################################

data_YUXGOO
_symmetry_cell_setting           trigonal
_symmetry_space_group_name_H-M   'P -3'
_symmetry_Int_Tables_number      147
_space_group_name_Hall           '-P 3'
loop_
_symmetry_equiv_pos_site_id
_symmetry_equiv_pos_as_xyz
1 x,y,z
2 -y,x-y,z
3 -x+y,-x,z
4 -x,-y,-z
5 y,-x+y,-z
6 x-y,x,-z
_cell_length_a                   14.8380(3)
_cell_length_b                   14.8380(3)
_cell_length_c                   7.3050(1)
_cell_angle_alpha                90
_cell_angle_beta                 90
_cell_angle_gamma                120
_cell_volume                     1392.84
loop_
_atom_site_label
_atom_site_type_symbol
_atom_site_fract_x
_atom_site_fract_y
_atom_site_fract_z
Ag1 Ag 0.0000 0.0000 0.20527(5)
N1 N 0.12427(16) 0.16639(16) 0.2155(3)
O1 O 0.08411(13) 0.23474(14) 0.2108(2)
C1 C 0.2924(2) 0.1763(2) 0.2599(4)
H1 H 0.2530 0.1037 0.2193
H2 H 0.3154 0.1788 0.3866
H3 H 0.3533 0.2149 0.1808
C2 C 0.22492(19) 0.22420(19) 0.2495(3)
C3 C 0.25373(19) 0.33025(18) 0.2704(3)
C4 C 0.1645(2) 0.3324(2) 0.2439(3)
C5 C 0.1372(2) 0.4158(2) 0.2436(4)
H4 H 0.1909 0.4767 0.3092
H5 H 0.0700 0.3907 0.3044
H6 H 0.1328 0.4352 0.1171
C6 C 0.35933(19) 0.4200(2) 0.3136(3)
H7 H 0.3917 0.3983 0.4095
H8 H 0.3514 0.4775 0.3641
C7 C 0.43180(18) 0.46011(18) 0.1493(3)
C8 C 0.40583(19) 0.49794(18) -0.0050(3)
H9 H 0.3412 0.4966 -0.0091
C9 C 0.5267(2) 0.46276(18) 0.1515(3)
H10 H 0.5454 0.4372 0.2554
Ag1C Ag 1.0000 1.0000 -0.20527(5)
Ag1C_2 Ag -1.0000 0.0000 -0.20527(5)
Ag1C_3 Ag 0.0000 -1.0000 -0.20527(5)
N1C N 0.87573(16) 0.83361(16) -0.2155(3)
N1A N -0.16639(16) -0.04212(23) 0.2155(3)
N1D N -0.83361(16) 0.04212(23) -0.2155(3)
N1B N 0.04212(23) -0.12427(16) 0.2155(3)
N1E N -0.04212(23) -0.87573(16) -0.2155(3)
N1D_2 N 1.16639(16) 1.04212(23) -0.2155(3)
N1E_2 N 0.95788(23) 1.12427(16) -0.2155(3)
O1C O 0.91589(13) 0.76526(14) -0.2108(2)
O1A O -0.23474(14) -0.15063(19) 0.2108(2)
O1D O -0.76526(14) 0.15063(19) -0.2108(2)
O1B O 0.15063(19) -0.08411(13) 0.2108(2)
O1E O -0.15063(19) -0.91589(13) -0.2108(2)
C1C C 0.7076(2) 0.8237(2) -0.2599(4)
C1A C -0.1763(2) 0.1161(3) 0.2599(4)
C1D C -0.8237(2) -0.1161(3) -0.2599(4)
C1B C -0.1161(3) -0.2924(2) 0.2599(4)
C1E C 0.1161(3) -0.7076(2) -0.2599(4)
H1C H 0.7470 0.8963 -0.2193
H1A H -0.1037 0.1493 0.2193
H1D H -0.8963 -0.1493 -0.2193
H1B H -0.1493 -0.2530 0.2193
H1E H 0.1493 -0.7470 -0.2193
H2C H 0.6846 0.8212 -0.3866
H2A H -0.1788 0.1366 0.3866
H2D H -0.8212 -0.1366 -0.3866
H2B H -0.1366 -0.3154 0.3866
H2E H 0.1366 -0.6846 -0.3866
H3C H 0.6467 0.7851 -0.1808
H3A H -0.2149 0.1384 0.1808
H3D H -0.7851 -0.1384 -0.1808
H3B H -0.1384 -0.3533 0.1808
H3E H 0.1384 -0.6467 -0.1808
C2C C 0.77508(19) 0.77580(19) -0.2495(3)
C2A C -0.22420(19) 0.00072(27) 0.2495(3)
C2D C -0.77580(19) -0.00072(27) -0.2495(3)
C2B C -0.00072(27) -0.22492(19) 0.2495(3)
C2E C 0.00072(27) -0.77508(19) -0.2495(3)
C3C C 0.74627(19) 0.66975(18) -0.2704(3)
C3A C -0.33025(18) -0.07652(26) 0.2704(3)
C3D C -0.66975(18) 0.07652(26) -0.2704(3)
C3B C 0.07652(26) -0.25373(19) 0.2704(3)
C3E C -0.07652(26) -0.74627(19) -0.2704(3)
C4C C 0.8355(2) 0.6676(2) -0.2439(3)
C4A C -0.3324(2) -0.1679(3) 0.2439(3)
C4D C -0.6676(2) 0.1679(3) -0.2439(3)
C4B C 0.1679(3) -0.1645(2) 0.2439(3)
C4E C -0.1679(3) -0.8355(2) -0.2439(3)
C5C C 0.8628(2) 0.5842(2) -0.2436(4)
C5A C -0.4158(2) -0.2786(3) 0.2436(4)
C5D C -0.5842(2) 0.2786(3) -0.2436(4)
C5B C 0.2786(3) -0.1372(2) 0.2436(4)
C5E C -0.2786(3) -0.8628(2) -0.2436(4)
H4C H 0.8091 0.5233 -0.3092
H4A H -0.4767 -0.2858 0.3092
H4D H -0.5233 0.2858 -0.3092
H4B H 0.2858 -0.1909 0.3092
H4E H -0.2858 -0.8091 -0.3092
H5C H 0.9300 0.6093 -0.3044
H5A H -0.3907 -0.3207 0.3044
H5D H -0.6093 0.3207 -0.3044
H5B H 0.3207 -0.0700 0.3044
H5E H -0.3207 -0.9300 -0.3044
H6C H 0.8672 0.5648 -0.1171
H6A H -0.4352 -0.3024 0.1171
H6D H -0.5648 0.3024 -0.1171
H6B H 0.3024 -0.1328 0.1171
H6E H -0.3024 -0.8672 -0.1171
C6C C 0.64067(19) 0.5800(2) -0.3136(3)
C6A C -0.4200(2) -0.06067(28) 0.3136(3)
C6D C -0.5800(2) 0.06067(28) -0.3136(3)
C6B C 0.06067(28) -0.35933(19) 0.3136(3)
C6E C -0.06067(28) -0.64067(19) -0.3136(3)
H7C H 0.6083 0.6017 -0.4095
H7A H -0.3983 -0.0066 0.4095
H7D H -0.6017 0.0066 -0.4095
H7B H 0.0066 -0.3917 0.4095
H7E H -0.0066 -0.6083 -0.4095
H8C H 0.6486 0.5225 -0.3641
H8A H -0.4775 -0.1261 0.3641
H8D H -0.5225 0.1261 -0.3641
H8B H 0.1261 -0.3514 0.3641
H8E H -0.1261 -0.6486 -0.3641
C7C C 0.56820(18) 0.53989(18) -0.1493(3)
C7A C -0.46011(18) -0.02831(25) 0.1493(3)
C7D C -0.53989(18) 0.02831(25) -0.1493(3)
C7B C 0.02831(25) -0.43180(18) 0.1493(3)
C7E C -0.02831(25) -0.56820(18) -0.1493(3)
C8C C 0.59417(19) 0.50206(18) 0.0050(3)
C8A C -0.49794(18) -0.09211(26) -0.0050(3)
C8D C -0.50206(18) 0.09211(26) 0.0050(3)
C8B C 0.09211(26) -0.40583(19) -0.0050(3)
C8E C -0.09211(26) -0.59417(19) 0.0050(3)
H9C H 0.6588 0.5034 0.0091
H9A H -0.4966 -0.1554 -0.0091
H9D H -0.5034 0.1554 0.0091
H9B H 0.1554 -0.3412 -0.0091
H9E H -0.1554 -0.6588 0.0091
C9C C 0.4733(2) 0.53724(18) -0.1515(3)
C9A C -0.46276(18) 0.06394(27) 0.1515(3)
C9D C -0.53724(18) -0.06394(27) -0.1515(3)
C9B C -0.06394(27) -0.5267(2) 0.1515(3)
C9E C 0.06394(27) -0.4733(2) -0.1515(3)
H10C H 0.4546 0.5628 -0.2554
H10A H -0.4372 0.1082 0.2554
H10D H -0.5628 -0.1082 -0.2554
H10B H -0.1082 -0.5454 0.2554
H10E H 0.1082 -0.4546 -0.2554
Cl1 Cl 0.3333 0.6667 0.56041(16)
O2 O 0.28340(15) 0.56110(14) 0.6246(3)
O3 O 0.3333 0.6667 0.3627(5)
O2A O 0.43890(14) 0.72230(21) 0.6246(3)
O2B O 0.27770(21) 0.71660(15) 0.6246(3)
loop_
_geom_bond_atom_site_label_1
_geom_bond_atom_site_label_2
_geom_bond_site_symmetry_1
_geom_bond_site_symmetry_2
Ag1 N1 1_555 1_555
Cl1 O2 1_555 1_555
N1 O1 1_555 1_555
O1 C4 1_555 1_555
O3 Cl1 1_555 1_555
C1 H1 1_555 1_555
H2 C1 1_555 1_555
H3 C1 1_555 1_555
C2 N1 1_555 1_555
C3 C2 1_555 1_555
C4 C3 1_555 1_555
C5 C4 1_555 1_555
H4 C5 1_555 1_555
H5 C5 1_555 1_555
H6 C5 1_555 1_555
C6 C3 1_555 1_555
H7 C6 1_555 1_555
H8 C6 1_555 1_555
C7 C6 1_555 1_555
C8 C7 1_555 1_555
H9 C8 1_555 1_555
C9 C7 1_555 1_555
H10 C9 1_555 1_555
Ag1C N1C 1_555 1_555
Ag1C_2 N1D 1_555 1_555
Ag1C_3 N1E 1_555 1_555
N1C O1C 1_555 1_555
N1A Ag1 1_555 1_555
N1D O1D 1_555 1_555
N1B Ag1 1_555 1_555
N1E O1E 1_555 1_555
N1D_2 Ag1C 1_555 1_555
N1E_2 Ag1C 1_555 1_555
O1C C4C 1_555 1_555
O1A N1A 1_555 1_555
O1D C4D 1_555 1_555
O1B N1B 1_555 1_555
O1E C4E 1_555 1_555
O2A Cl1 1_555 1_555
O2B Cl1 1_555 1_555
C1C H1C 1_555 1_555
C1A H1A 1_555 1_555
C1D H1D 1_555 1_555
C1B H1B 1_555 1_555
C1E H1E 1_555 1_555
H2C C1C 1_555 1_555
H2A C1A 1_555 1_555
H2D C1D 1_555 1_555
H2B C1B 1_555 1_555
H2E C1E 1_555 1_555
H3C C1C 1_555 1_555
H3A C1A 1_555 1_555
H3D C1D 1_555 1_555
H3B C1B 1_555 1_555
H3E C1E 1_555 1_555
C2C N1C 1_555 1_555
C2A N1A 1_555 1_555
C2D N1D 1_555 1_555
C2B N1B 1_555 1_555
C2E N1E 1_555 1_555
C3C C2C 1_555 1_555
C3A C2A 1_555 1_555
C3D C2D 1_555 1_555
C3B C2B 1_555 1_555
C3E C2E 1_555 1_555
C4C C3C 1_555 1_555
C4A O1A 1_555 1_555
C4D C3D 1_555 1_555
C4B O1B 1_555 1_555
C4E C3E 1_555 1_555
C5C C4C 1_555 1_555
C5A C4A 1_555 1_555
C5D C4D 1_555 1_555
C5B C4B 1_555 1_555
C5E C4E 1_555 1_555
H4C C5C 1_555 1_555
H4A C5A 1_555 1_555
H4D C5D 1_555 1_555
H4B C5B 1_555 1_555
H4E C5E 1_555 1_555
H5C C5C 1_555 1_555
H5A C5A 1_555 1_555
H5D C5D 1_555 1_555
H5B C5B 1_555 1_555
H5E C5E 1_555 1_555
H6C C5C 1_555 1_555
H6A C5A 1_555 1_555
H6D C5D 1_555 1_555
H6B C5B 1_555 1_555
H6E C5E 1_555 1_555
C6C C3C 1_555 1_555
C6A C3A 1_555 1_555
C6D C3D 1_555 1_555
C6B C3B 1_555 1_555
C6E C3E 1_555 1_555
H7C C6C 1_555 1_555
H7A C6A 1_555 1_555
H7D C6D 1_555 1_555
H7B C6B 1_555 1_555
H7E C6E 1_555 1_555
H8C C6C 1_555 1_555
H8A C6A 1_555 1_555
H8D C6D 1_555 1_555
H8B C6B 1_555 1_555
H8E C6E 1_555 1_555
C7C C6C 1_555 1_555
C7A C6A 1_555 1_555
C7D C6D 1_555 1_555
C7B C6B 1_555 1_555
C7E C6E 1_555 1_555
C8C C9 1_555 1_555
C8A C7A 1_555 1_555
C8D C7D 1_555 1_555
C8B C7B 1_555 1_555
C8E C7E 1_555 1_555
H9C C8C 1_555 1_555
H9A C8A 1_555 1_555
H9D C8D 1_555 1_555
H9B C8B 1_555 1_555
H9E C8E 1_555 1_555
C9C C8 1_555 1_555
C9A C7A 1_555 1_555
C9D C7D 1_555 1_555
C9B C7B 1_555 1_555
C9E C7E 1_555 1_555
H10C C9C 1_555 1_555
H10A C9A 1_555 1_555
H10D C9D 1_555 1_555
H10B C9B 1_555 1_555
H10E C9E 1_555 1_555
C1 C2 1_555 1_555
C1C C2C 1_555 1_555
C1A C2A 1_555 1_555
C1D C2D 1_555 1_555
C1B C2B 1_555 1_555
C1E C2E 1_555 1_555
C3A C4A 1_555 1_555
C3B C4B 1_555 1_555
C7C C8C 1_555 1_555
C7C C9C 1_555 1_555
C8A C9D 1_555 1_555
C8D C9A 1_555 1_555
C8B C9E 1_555 1_555
C8E C9B 1_555 1_555

#END
