
#######################################################################
#
#                 Cambridge Crystallographic Data Centre
#                                CCDC 
#
#######################################################################
#
# If this CIF has been generated from an entry in the Cambridge 
# Structural Database, then it will include bibliographic, chemical, 
# crystal, experimental, refinement or atomic coordinate data resulting 
# from the CCDC's data processing and validation procedures.
#
#######################################################################

data_YUXGUU
_symmetry_cell_setting           hexagonal
_symmetry_space_group_name_H-M   'P 63/m'
_symmetry_Int_Tables_number      176
_space_group_name_Hall           '-P 6c'
loop_
_symmetry_equiv_pos_site_id
_symmetry_equiv_pos_as_xyz
1 x,y,z
2 x-y,x,1/2+z
3 -y,x-y,z
4 -x,-y,1/2+z
5 -x+y,-x,z
6 y,-x+y,1/2+z
7 -x,-y,-z
8 -x+y,-x,1/2-z
9 y,-x+y,-z
10 x,y,1/2-z
11 x-y,x,-z
12 -y,x-y,1/2-z
_cell_length_a                   14.4400(2)
_cell_length_b                   14.4400(2)
_cell_length_c                   35.3990(6)
_cell_angle_alpha                90
_cell_angle_beta                 90
_cell_angle_gamma                120
_cell_volume                     6392.28
loop_
_atom_site_label
_atom_site_type_symbol
_atom_site_fract_x
_atom_site_fract_y
_atom_site_fract_z
Ag1 Ag 1.0000 0.0000 0.363061(17)
O1 O 1.0695(3) 0.2395(3) 0.36451(9)
N1 N 1.1167(3) 0.1753(3) 0.36054(11)
C1 C 1.2862(4) 0.1948(4) 0.34003(14)
H1 H 1.2570 0.1233 0.3511
H2 H 1.3570 0.2424 0.3508
H3 H 1.2923 0.1905 0.3126
C2 C 1.2140(4) 0.2373(4) 0.34860(13)
C3 C 1.2359(4) 0.3444(4) 0.34499(12)
C4 C 1.1436(4) 0.3402(4) 0.35463(14)
C5 C 1.1058(4) 0.4192(4) 0.35579(17)
H4 H 1.0865 0.4260 0.3818
H5 H 1.0430 0.3946 0.3394
H6 H 1.1629 0.4888 0.3469
C6 C 1.3397(4) 0.4389(4) 0.33244(12)
H7 H 1.3999 0.4323 0.3427
H8 H 1.3451 0.5051 0.3428
C7 C 1.3491(4) 0.4478(4) 0.28945(13)
C8 C 1.4020(4) 0.4076(4) 0.26957(12)
H9 H 1.4395 0.3791 0.2828
C9 C 1.2996(4) 0.4936(4) 0.26959(12)
H10 H 1.2654 0.5253 0.2829
Ag1G Ag 1.0000 0.0000 0.136939(17)
O1I O 1.0695(3) 0.2395(3) 0.13549(9)
O1B O 0.7605(3) -0.1700(4) 0.36451(9)
O1K O 0.7605(3) -0.1700(4) 0.13549(9)
O1D O 1.1700(4) -0.0695(3) 0.36451(9)
O1G O 1.1700(4) -0.0695(3) 0.13549(9)
N1I N 1.1167(3) 0.1753(3) 0.13946(11)
N1B N 0.8247(3) -0.0586(4) 0.36054(11)
N1K N 0.8247(3) -0.0586(4) 0.13946(11)
N1D N 1.0586(4) -0.1167(3) 0.36054(11)
N1G N 1.0586(4) -0.1167(3) 0.13946(11)
C1I C 1.2862(4) 0.1948(4) 0.15997(14)
C1B C 0.8052(4) 0.0914(6) 0.34003(14)
C1K C 0.8052(4) 0.0914(6) 0.15997(14)
C1D C 0.9086(6) -0.2862(4) 0.34003(14)
C1G C 0.9086(6) -0.2862(4) 0.15997(14)
H1I H 1.2570 0.1233 0.1489
H1B H 0.8767 0.1337 0.3511
H1K H 0.8767 0.1337 0.1489
H1D H 0.8663 -0.2570 0.3511
H1G H 0.8663 -0.2570 0.1489
H2I H 1.3570 0.2424 0.1492
H2B H 0.7576 0.1146 0.3508
H2K H 0.7576 0.1146 0.1492
H2D H 0.8854 -0.3570 0.3508
H2G H 0.8854 -0.3570 0.1492
H3I H 1.2923 0.1905 0.1874
H3B H 0.8095 0.1018 0.3126
H3K H 0.8095 0.1018 0.1874
H3D H 0.8982 -0.2923 0.3126
H3G H 0.8982 -0.2923 0.1874
C2I C 1.2140(4) 0.2373(4) 0.15140(13)
C2B C 0.7627(4) -0.0233(6) 0.34860(13)
C2K C 0.7627(4) -0.0233(6) 0.15140(13)
C2D C 1.0233(6) -0.2140(4) 0.34860(13)
C2G C 1.0233(6) -0.2140(4) 0.15140(13)
C3I C 1.2359(4) 0.3444(4) 0.15501(12)
C3B C 0.6556(4) -0.1085(6) 0.34499(12)
C3K C 0.6556(4) -0.1085(6) 0.15501(12)
C3D C 1.1085(6) -0.2359(4) 0.34499(12)
C3G C 1.1085(6) -0.2359(4) 0.15501(12)
C4I C 1.1436(4) 0.3402(4) 0.14537(14)
C4B C 0.6598(4) -0.1966(6) 0.35463(14)
C4K C 0.6598(4) -0.1966(6) 0.14537(14)
C4D C 1.1966(6) -0.1436(4) 0.35463(14)
C4G C 1.1966(6) -0.1436(4) 0.14537(14)
C5I C 1.1058(4) 0.4192(4) 0.14421(17)
C5B C 0.5808(4) -0.3134(6) 0.35579(17)
C5K C 0.5808(4) -0.3134(6) 0.14421(17)
C5D C 1.3134(6) -0.1058(4) 0.35579(17)
C5G C 1.3134(6) -0.1058(4) 0.14421(17)
H4I H 1.0865 0.4260 0.1182
H4B H 0.5740 -0.3395 0.3818
H4K H 0.5740 -0.3395 0.1182
H4D H 1.3395 -0.0865 0.3818
H4G H 1.3395 -0.0865 0.1182
H5I H 1.0430 0.3946 0.1606
H5B H 0.6054 -0.3516 0.3394
H5K H 0.6054 -0.3516 0.1606
H5D H 1.3516 -0.0430 0.3394
H5G H 1.3516 -0.0430 0.1606
H6I H 1.1629 0.4888 0.1531
H6B H 0.5112 -0.3259 0.3469
H6K H 0.5112 -0.3259 0.1531
H6D H 1.3259 -0.1629 0.3469
H6G H 1.3259 -0.1629 0.1531
C6I C 1.3397(4) 0.4389(4) 0.16756(12)
C6B C 0.5611(4) -0.0992(6) 0.33244(12)
C6K C 0.5611(4) -0.0992(6) 0.16756(12)
C6D C 1.0992(6) -0.3397(4) 0.33244(12)
C6G C 1.0992(6) -0.3397(4) 0.16756(12)
H7I H 1.3999 0.4323 0.1573
H7B H 0.5677 -0.0324 0.3427
H7K H 0.5677 -0.0324 0.1573
H7D H 1.0324 -0.3999 0.3427
H7G H 1.0324 -0.3999 0.1573
H8I H 1.3451 0.5051 0.1572
H8B H 0.4949 -0.1600 0.3428
H8K H 0.4949 -0.1600 0.1572
H8D H 1.1600 -0.3451 0.3428
H8G H 1.1600 -0.3451 0.1572
C7I C 1.3491(4) 0.4478(4) 0.21055(13)
C7B C 0.5522(4) -0.0987(6) 0.28945(13)
C7K C 0.5522(4) -0.0987(6) 0.21055(13)
C7D C 1.0987(6) -0.3491(4) 0.28945(13)
C7G C 1.0987(6) -0.3491(4) 0.21055(13)
C8I C 1.4020(4) 0.4076(4) 0.23043(12)
C8B C 0.5924(4) -0.0056(6) 0.26957(12)
C8K C 0.5924(4) -0.0056(6) 0.23043(12)
C8D C 1.0056(6) -0.4020(4) 0.26957(12)
C8G C 1.0056(6) -0.4020(4) 0.23043(12)
H9I H 1.4395 0.3791 0.2172
H9B H 0.6209 0.0604 0.2828
H9K H 0.6209 0.0604 0.2172
H9D H 0.9396 -0.4395 0.2828
H9G H 0.9396 -0.4395 0.2172
C9I C 1.2996(4) 0.4936(4) 0.23041(12)
C9B C 0.5064(4) -0.1940(6) 0.26959(12)
C9K C 0.5064(4) -0.1940(6) 0.23041(12)
C9D C 1.1940(6) -0.2996(4) 0.26959(12)
C9G C 1.1940(6) -0.2996(4) 0.23041(12)
H10I H 1.2654 0.5253 0.2171
H10B H 0.4747 -0.2599 0.2829
H10K H 0.4747 -0.2599 0.2171
H10D H 1.2599 -0.2654 0.2829
H10G H 1.2599 -0.2654 0.2171
Ag2 Ag 1.0000 0.0000 0.456999(16)
O2 O 1.2377(3) 0.0866(3) 0.44477(10)
N2 N 1.1701(3) 0.1273(3) 0.45382(10)
C10 C 1.4190(4) 0.1445(5) 0.42508(16)
H11 H 1.4882 0.2105 0.4227
H12 H 1.4005 0.1060 0.4010
H13 H 1.4234 0.0993 0.4448
C11 C 1.3351(4) 0.1716(4) 0.43527(14)
C12 C 1.3317(4) 0.2624(4) 0.43785(13)
C13 C 1.2264(4) 0.2318(4) 0.44979(12)
C14 C 1.1796(4) 0.3006(4) 0.45756(13)
H14 H 1.1845 0.3416 0.4348
H15 H 1.2188 0.3499 0.4782
H16 H 1.1043 0.2558 0.4647
C15 C 1.4200(4) 0.3753(4) 0.43067(13)
H17 H 1.3935 0.4109 0.4135
H18 H 1.4801 0.3735 0.4180
C16 C 1.4605(4) 0.4403(4) 0.46694(13)
C17 C 1.4979(4) 0.4041(4) 0.49643(13)
H19 H 1.4974 0.3384 0.4941
C18 C 1.4646(3) 0.5367(4) 0.47105(14)
H20 H 1.4409 0.5632 0.4509
Ag2F Ag 2.0000 1.0000 0.543001(16)
Ag2F_2 Ag 0.0000 0.0000 0.543001(16)
Ag2F_3 Ag 1.0000 -1.0000 0.543001(16)
O2F O 1.7623(3) 0.9134(3) 0.55523(10)
O2B O 0.9134(3) 0.1511(4) 0.44477(10)
O2H O 0.0866(3) -0.1511(4) 0.55523(10)
O2D O 0.8489(4) -0.2377(3) 0.44477(10)
O2J O 1.1511(4) -0.7623(3) 0.55523(10)
N2F N 1.8299(3) 0.8727(3) 0.54618(10)
N2B N 0.8727(3) 0.0428(4) 0.45382(10)
N2H N 0.1273(3) -0.0428(4) 0.54618(10)
N2D N 0.9572(4) -0.1701(3) 0.45382(10)
N2J N 1.0428(4) -0.8299(3) 0.54618(10)
N2H_2 N 2.1273(3) 0.9572(4) 0.54618(10)
N2J_2 N 2.0428(4) 1.1701(3) 0.54618(10)
C10F C 1.5810(4) 0.8555(5) 0.57492(16)
C10B C 0.8555(5) 0.2745(6) 0.42508(16)
C10H C 0.1445(5) -0.2745(6) 0.57492(16)
C10D C 0.7255(6) -0.4190(4) 0.42508(16)
C10J C 1.2745(6) -0.5810(4) 0.57492(16)
H11F H 1.5118 0.7895 0.5773
H11B H 0.7895 0.2777 0.4227
H11H H 0.2105 -0.2777 0.5773
H11D H 0.7223 -0.4882 0.4227
H11J H 1.2777 -0.5118 0.5773
H12F H 1.5995 0.8940 0.5990
H12B H 0.8940 0.2945 0.4010
H12H H 0.1060 -0.2945 0.5990
H12D H 0.7055 -0.4005 0.4010
H12J H 1.2945 -0.5995 0.5990
H13F H 1.5766 0.9007 0.5552
H13B H 0.9007 0.3241 0.4448
H13H H 0.0993 -0.3241 0.5552
H13D H 0.6759 -0.4234 0.4448
H13J H 1.3241 -0.5766 0.5552
C11F C 1.6649(4) 0.8284(4) 0.56473(14)
C11B C 0.8284(4) 0.1635(6) 0.43527(14)
C11H C 0.1716(4) -0.1635(6) 0.56473(14)
C11D C 0.8365(6) -0.3351(4) 0.43527(14)
C11J C 1.1635(6) -0.6649(4) 0.56473(14)
C12F C 1.6683(4) 0.7376(4) 0.56215(13)
C12B C 0.7376(4) 0.0693(6) 0.43785(13)
C12H C 0.2624(4) -0.0693(6) 0.56215(13)
C12D C 0.9307(6) -0.3317(4) 0.43785(13)
C12J C 1.0693(6) -0.6683(4) 0.56215(13)
C13F C 1.7736(4) 0.7682(4) 0.55021(12)
C13B C 0.7682(4) -0.0054(6) 0.44979(12)
C13H C 0.2318(4) 0.0054(6) 0.55021(12)
C13D C 1.0054(6) -0.2264(4) 0.44979(12)
C13J C 0.9946(6) -0.7736(4) 0.55021(12)
C14F C 1.8204(4) 0.6994(4) 0.54244(13)
C14B C 0.6994(4) -0.1210(6) 0.45756(13)
C14H C 0.3006(4) 0.1210(6) 0.54244(13)
C14D C 1.1210(6) -0.1796(4) 0.45756(13)
C14J C 0.8790(6) -0.8204(4) 0.54244(13)
H14F H 1.8155 0.6584 0.5652
H14B H 0.6584 -0.1571 0.4348
H14H H 0.3416 0.1571 0.5652
H14D H 1.1571 -0.1845 0.4348
H14J H 0.8429 -0.8155 0.5652
H15F H 1.7812 0.6501 0.5218
H15B H 0.6501 -0.1311 0.4782
H15H H 0.3499 0.1311 0.5218
H15D H 1.1311 -0.2188 0.4782
H15J H 0.8689 -0.7812 0.5218
H16F H 1.8957 0.7442 0.5353
H16B H 0.7442 -0.1515 0.4647
H16H H 0.2558 0.1515 0.5353
H16D H 1.1515 -0.1043 0.4647
H16J H 0.8485 -0.8957 0.5353
C15F C 1.5800(4) 0.6247(4) 0.56933(13)
C15B C 0.6247(4) 0.0447(6) 0.43067(13)
C15H C 0.3753(4) -0.0447(6) 0.56933(13)
C15D C 0.9553(6) -0.4200(4) 0.43067(13)
C15J C 1.0447(6) -0.5800(4) 0.56933(13)
H17F H 1.6065 0.5891 0.5865
H17B H 0.5891 -0.0174 0.4135
H17H H 0.4109 0.0174 0.5865
H17D H 1.0174 -0.3935 0.4135
H17J H 0.9826 -0.6065 0.5865
H18F H 1.5199 0.6265 0.5820
H18B H 0.6265 0.1066 0.4180
H18H H 0.3735 -0.1066 0.5820
H18D H 0.8934 -0.4801 0.4180
H18J H 1.1066 -0.5199 0.5820
C16F C 1.5395(4) 0.5597(4) 0.53306(13)
C16B C 0.5597(4) 0.0202(6) 0.46694(13)
C16H C 0.4403(4) -0.0202(6) 0.53306(13)
C16D C 0.9798(6) -0.4605(4) 0.46694(13)
C16J C 1.0202(6) -0.5395(4) 0.53306(13)
C17F C 1.5021(4) 0.5959(4) 0.50357(13)
C17B C 0.5959(4) 0.0938(6) 0.49643(13)
C17H C 0.4041(4) -0.0938(6) 0.50357(13)
C17D C 0.9062(6) -0.4979(4) 0.49643(13)
C17J C 1.0938(6) -0.5021(4) 0.50357(13)
H19F H 1.5026 0.6616 0.5059
H19B H 0.6616 0.1590 0.4941
H19H H 0.3384 -0.1590 0.5059
H19D H 0.8410 -0.4974 0.4941
H19J H 1.1590 -0.5026 0.5059
C18F C 1.5354(3) 0.4633(4) 0.52895(14)
C18B C 0.4633(4) -0.0721(5) 0.47105(14)
C18H C 0.5367(4) 0.0721(5) 0.52895(14)
C18D C 1.0721(5) -0.4646(3) 0.47105(14)
C18J C 0.9279(5) -0.5354(3) 0.52895(14)
H20F H 1.5591 0.4368 0.5491
H20B H 0.4368 -0.1223 0.4509
H20H H 0.5632 0.1223 0.5491
H20D H 1.1223 -0.4409 0.4509
H20J H 0.8777 -0.5591 0.5491
Cl1 Cl 1.3333 0.6667 0.40077(6)
O3 O 1.3333 0.6667 0.35989(14)
O4 O 1.2924(3) 0.5597(3) 0.41389(9)
O4B O 1.4403(3) 0.7327(4) 0.41389(9)
O4D O 1.2673(4) 0.7076(3) 0.41389(9)
Cl2 Cl 1.6667 0.3333 0.35730(10)
O5 O 1.5838(5) 0.3516(5) 0.34589(15)
O6 O 1.6667 0.3333 0.3975(2)
O5B O 1.6484(5) 0.2322(7) 0.34589(15)
O5D O 1.7678(7) 0.4162(5) 0.34589(15)
O7 O 1.3074(3) 0.0741(4) 0.25008(14)
C19 C 1.4914(3) 0.1927(4) 0.25008(14)
H21 H 1.5572 0.1888 0.2500
H22 H 1.4896 0.2307 0.2728
C20 C 1.4061(11) 0.0931(12) 0.2500
H23 H 1.4135 0.0566 0.2275
C21 C 1.1169(13) -0.0692(13) 0.2500
H25 H 1.0797 -0.1476 0.2500
H26 H 1.0968 -0.0441 0.2274
C22 C 1.2245(13) -0.0300(13) 0.2500
H27 H 1.2378 -0.0629 0.2277
H22I H 1.4896 0.2307 0.2272
H23I H 1.4135 0.0566 0.2725
H26I H 1.0968 -0.0441 0.2726
H27I H 1.2378 -0.0629 0.2723
H24? H 1.4136 0.0561 0.2723
loop_
_geom_bond_atom_site_label_1
_geom_bond_atom_site_label_2
_geom_bond_site_symmetry_1
_geom_bond_site_symmetry_2
Ag1 N1 1_555 1_555
Ag2 N2 1_555 1_555
Cl1 O3 1_555 1_555
Cl2 O5 1_555 1_555
O1 N1 1_555 1_555
O2 N2 1_555 1_555
O4 Cl1 1_555 1_555
O6 Cl2 1_555 1_555
N1 C2 1_555 1_555
N2 C13 1_555 1_555
C1 H1 1_555 1_555
H2 C1 1_555 1_555
H3 C1 1_555 1_555
C2 C1 1_555 1_555
C3 C2 1_555 1_555
C4 O1 1_555 1_555
C5 C4 1_555 1_555
H4 C5 1_555 1_555
H5 C5 1_555 1_555
H6 C5 1_555 1_555
C6 C3 1_555 1_555
H7 C6 1_555 1_555
H8 C6 1_555 1_555
C7 C6 1_555 1_555
C8 C7 1_555 1_555
H9 C8 1_555 1_555
C9 C7 1_555 1_555
H10 C9 1_555 1_555
C10 H11 1_555 1_555
H12 C10 1_555 1_555
H13 C10 1_555 1_555
C11 O2 1_555 1_555
C12 C11 1_555 1_555
C13 C12 1_555 1_555
C14 C13 1_555 1_555
H14 C14 1_555 1_555
H15 C14 1_555 1_555
H16 C14 1_555 1_555
C15 C12 1_555 1_555
H17 C15 1_555 1_555
H18 C15 1_555 1_555
C16 C15 1_555 1_555
C17 C16 1_555 1_555
H19 C17 1_555 1_555
C18 C16 1_555 1_555
H20 C18 1_555 1_555
O7 C20 1_555 1_555
C19 H21 1_555 1_555
H22 C19 1_555 1_555
C20 C19 1_555 1_555
H23 C20 1_555 1_555
C21 H25 1_555 1_555
H26 C21 1_555 1_555
C22 O7 1_555 1_555
H27 C22 1_555 1_555
Ag1G N1I 1_555 1_555
Ag2F N2F 1_555 1_555
Ag2F_2 N2H 1_555 1_555
Ag2F_3 N2J 1_555 1_555
O1I N1I 1_555 1_555
O1B N1B 1_555 1_555
O1K N1K 1_555 1_555
O1D N1D 1_555 1_555
O1G N1G 1_555 1_555
O2F N2F 1_555 1_555
O2B N2B 1_555 1_555
O2H N2H 1_555 1_555
O2D N2D 1_555 1_555
O2J N2J 1_555 1_555
O4B Cl1 1_555 1_555
O4D Cl1 1_555 1_555
O5B Cl2 1_555 1_555
O5D Cl2 1_555 1_555
N1I C2I 1_555 1_555
N1B Ag1 1_555 1_555
N1K Ag1G 1_555 1_555
N1D Ag1 1_555 1_555
N1G Ag1G 1_555 1_555
N2F C13F 1_555 1_555
N2B Ag2 1_555 1_555
N2H C13H 1_555 1_555
N2D Ag2 1_555 1_555
N2J C13J 1_555 1_555
N2H_2 Ag2F 1_555 1_555
N2J_2 Ag2F 1_555 1_555
C1I H1I 1_555 1_555
C1B H1B 1_555 1_555
C1K H1K 1_555 1_555
C1D H1D 1_555 1_555
C1G H1G 1_555 1_555
H2I C1I 1_555 1_555
H2B C1B 1_555 1_555
H2K C1K 1_555 1_555
H2D C1D 1_555 1_555
H2G C1G 1_555 1_555
H3I C1I 1_555 1_555
H3B C1B 1_555 1_555
H3K C1K 1_555 1_555
H3D C1D 1_555 1_555
H3G C1G 1_555 1_555
C2I C1I 1_555 1_555
C2B N1B 1_555 1_555
C2K N1K 1_555 1_555
C2D N1D 1_555 1_555
C2G N1G 1_555 1_555
C3I C2I 1_555 1_555
C3B C2B 1_555 1_555
C3K C2K 1_555 1_555
C3D C2D 1_555 1_555
C3G C2G 1_555 1_555
C4I O1I 1_555 1_555
C4B O1B 1_555 1_555
C4K O1K 1_555 1_555
C4D O1D 1_555 1_555
C4G O1G 1_555 1_555
C5I C4I 1_555 1_555
C5B C4B 1_555 1_555
C5K C4K 1_555 1_555
C5D C4D 1_555 1_555
C5G C4G 1_555 1_555
H4I C5I 1_555 1_555
H4B C5B 1_555 1_555
H4K C5K 1_555 1_555
H4D C5D 1_555 1_555
H4G C5G 1_555 1_555
H5I C5I 1_555 1_555
H5B C5B 1_555 1_555
H5K C5K 1_555 1_555
H5D C5D 1_555 1_555
H5G C5G 1_555 1_555
H6I C5I 1_555 1_555
H6B C5B 1_555 1_555
H6K C5K 1_555 1_555
H6D C5D 1_555 1_555
H6G C5G 1_555 1_555
C6I C3I 1_555 1_555
C6B C3B 1_555 1_555
C6K C3K 1_555 1_555
C6D C3D 1_555 1_555
C6G C3G 1_555 1_555
H7I C6I 1_555 1_555
H7B C6B 1_555 1_555
H7K C6K 1_555 1_555
H7D C6D 1_555 1_555
H7G C6G 1_555 1_555
H8I C6I 1_555 1_555
H8B C6B 1_555 1_555
H8K C6K 1_555 1_555
H8D C6D 1_555 1_555
H8G C6G 1_555 1_555
C7I C6I 1_555 1_555
C7B C6B 1_555 1_555
C7K C6K 1_555 1_555
C7D C6D 1_555 1_555
C7G C6G 1_555 1_555
C8I C8 1_555 1_555
C8B C7B 1_555 1_555
C8K C7K 1_555 1_555
C8D C7D 1_555 1_555
C8G C7G 1_555 1_555
H9I C8I 1_555 1_555
H9B C8B 1_555 1_555
H9K C8K 1_555 1_555
H9D C8D 1_555 1_555
H9G C8G 1_555 1_555
C9I C9 1_555 1_555
C9B C7B 1_555 1_555
C9K C7K 1_555 1_555
C9D C7D 1_555 1_555
C9G C7G 1_555 1_555
H10I C9I 1_555 1_555
H10B C9B 1_555 1_555
H10K C9K 1_555 1_555
H10D C9D 1_555 1_555
H10G C9G 1_555 1_555
C10F H11F 1_555 1_555
C10B H11B 1_555 1_555
C10H H11H 1_555 1_555
C10D H11D 1_555 1_555
C10J H11J 1_555 1_555
H12F C10F 1_555 1_555
H12B C10B 1_555 1_555
H12H C10H 1_555 1_555
H12D C10D 1_555 1_555
H12J C10J 1_555 1_555
H13F C10F 1_555 1_555
H13B C10B 1_555 1_555
H13H C10H 1_555 1_555
H13D C10D 1_555 1_555
H13J C10J 1_555 1_555
C11F O2F 1_555 1_555
C11B O2B 1_555 1_555
C11H O2H 1_555 1_555
C11D O2D 1_555 1_555
C11J O2J 1_555 1_555
C12F C11F 1_555 1_555
C12B C11B 1_555 1_555
C12H C11H 1_555 1_555
C12D C11D 1_555 1_555
C12J C11J 1_555 1_555
C13F C12F 1_555 1_555
C13B N2B 1_555 1_555
C13H C12H 1_555 1_555
C13D N2D 1_555 1_555
C13J C12J 1_555 1_555
C14F C13F 1_555 1_555
C14B C13B 1_555 1_555
C14H C13H 1_555 1_555
C14D C13D 1_555 1_555
C14J C13J 1_555 1_555
H14F C14F 1_555 1_555
H14B C14B 1_555 1_555
H14H C14H 1_555 1_555
H14D C14D 1_555 1_555
H14J C14J 1_555 1_555
H15F C14F 1_555 1_555
H15B C14B 1_555 1_555
H15H C14H 1_555 1_555
H15D C14D 1_555 1_555
H15J C14J 1_555 1_555
H16F C14F 1_555 1_555
H16B C14B 1_555 1_555
H16H C14H 1_555 1_555
H16D C14D 1_555 1_555
H16J C14J 1_555 1_555
C15F C12F 1_555 1_555
C15B C12B 1_555 1_555
C15H C12H 1_555 1_555
C15D C12D 1_555 1_555
C15J C12J 1_555 1_555
H17F C15F 1_555 1_555
H17B C15B 1_555 1_555
H17H C15H 1_555 1_555
H17D C15D 1_555 1_555
H17J C15J 1_555 1_555
H18F C15F 1_555 1_555
H18B C15B 1_555 1_555
H18H C15H 1_555 1_555
H18D C15D 1_555 1_555
H18J C15J 1_555 1_555
C16F C15F 1_555 1_555
C16B C15B 1_555 1_555
C16H C15H 1_555 1_555
C16D C15D 1_555 1_555
C16J C15J 1_555 1_555
C17F C18 1_555 1_555
C17B C16B 1_555 1_555
C17H C16H 1_555 1_555
C17D C16D 1_555 1_555
C17J C16J 1_555 1_555
H19F C17F 1_555 1_555
H19B C17B 1_555 1_555
H19H C17H 1_555 1_555
H19D C17D 1_555 1_555
H19J C17J 1_555 1_555
C18F C17 1_555 1_555
C18B C16B 1_555 1_555
C18H C16H 1_555 1_555
C18D C16D 1_555 1_555
C18J C16J 1_555 1_555
H20F C18F 1_555 1_555
H20B C18B 1_555 1_555
H20H C18H 1_555 1_555
H20D C18D 1_555 1_555
H20J C18J 1_555 1_555
H22I C19 1_555 1_555
H23I C20 1_555 1_555
H26I C21 1_555 1_555
H27I C22 1_555 1_555
C3 C4 1_555 1_555
C10 C11 1_555 1_555
C21 C22 1_555 1_555
C1B C2B 1_555 1_555
C1K C2K 1_555 1_555
C1D C2D 1_555 1_555
C1G C2G 1_555 1_555
C3I C4I 1_555 1_555
C3B C4B 1_555 1_555
C3K C4K 1_555 1_555
C3D C4D 1_555 1_555
C3G C4G 1_555 1_555
C7I C8I 1_555 1_555
C7I C9I 1_555 1_555
C8B C8K 1_555 1_555
C8D C8G 1_555 1_555
C9B C9K 1_555 1_555
C9D C9G 1_555 1_555
C10F C11F 1_555 1_555
C10B C11B 1_555 1_555
C10H C11H 1_555 1_555
C10D C11D 1_555 1_555
C10J C11J 1_555 1_555
C12B C13B 1_555 1_555
C12D C13D 1_555 1_555
C16F C17F 1_555 1_555
C16F C18F 1_555 1_555
C17B C18H 1_555 1_555
C17H C18B 1_555 1_555
C17D C18J 1_555 1_555
C17J C18D 1_555 1_555

#END
