
#######################################################################
#
#                 Cambridge Crystallographic Data Centre
#                                CCDC 
#
#######################################################################
#
# If this CIF has been generated from an entry in the Cambridge 
# Structural Database, then it will include bibliographic, chemical, 
# crystal, experimental, refinement or atomic coordinate data resulting 
# from the CCDC's data processing and validation procedures.
#
#######################################################################

data_YUXLIN
_symmetry_cell_setting           rhombohedral
_symmetry_space_group_name_H-M   'R 3 c'
_symmetry_Int_Tables_number      161
_space_group_name_Hall           'R 3 -2"c'
loop_
_symmetry_equiv_pos_site_id
_symmetry_equiv_pos_as_xyz
1 x,y,z
2 -y,x-y,z
3 -x+y,-x,z
4 -x+y,y,1/2+z
5 x,x-y,1/2+z
6 -y,-x,1/2+z
7 2/3+x,1/3+y,1/3+z
8 2/3-y,1/3+x-y,1/3+z
9 2/3-x+y,1/3-x,1/3+z
10 2/3-x+y,1/3+y,5/6+z
11 2/3+x,1/3+x-y,5/6+z
12 2/3-y,1/3-x,5/6+z
13 1/3+x,2/3+y,2/3+z
14 1/3-y,2/3+x-y,2/3+z
15 1/3-x+y,2/3-x,2/3+z
16 1/3-x+y,2/3+y,1/6+z
17 1/3+x,2/3+x-y,1/6+z
18 1/3-y,2/3-x,1/6+z
_cell_length_a                   22.9930(6)
_cell_length_b                   22.9930(6)
_cell_length_c                   71.297(2)
_cell_angle_alpha                90
_cell_angle_beta                 90
_cell_angle_gamma                120
_cell_volume                     32643.2
loop_
_atom_site_label
_atom_site_type_symbol
_atom_site_fract_x
_atom_site_fract_y
_atom_site_fract_z
Ag2 Ag -0.00155(8) -0.53834(9) 0.40412(2)
Ga2 Ga 0.3333 -0.3333 0.32136(2)
O3 O 0.2557(4) -0.3773(3) 0.33772(9)
O4 O 0.3031(4) -0.4114(4) 0.30482(9)
C4 C 0.1964(6) -0.3838(8) 0.33451(17)
C5 C 0.3569(6) -0.4656(6) 0.32047(14)
H2 H 0.3639 -0.5029 0.3200
C6 C 0.3189(6) -0.4567(5) 0.30674(15)
N3 N 0.0628(3) -0.4840(5) 0.38092(9)
C20 C 0.0364(3) -0.4805(5) 0.36369(10)
H12 H -0.0107 -0.4991 0.3623
C21 C 0.0789(4) -0.4498(5) 0.34853(8)
H13 H 0.0608 -0.4474 0.3368
C22 C 0.1478(3) -0.4225(5) 0.35060(8)
C23 C 0.3997(3) -0.1742(5) 0.36783(10)
H14 H 0.3712 -0.2213 0.3693
C24 C 0.4115(4) -0.1317(5) 0.38299(8)
H15 H 0.3911 -0.1497 0.3948
N4 N 0.1653(4) -0.2318(5) 0.26203(10)
C25 C 0.1258(4) -0.2559(6) 0.27805(11)
H16 H 0.0862 -0.2528 0.2792
C26 C 0.1442(4) -0.2844(5) 0.29238(10)
H17 H 0.1172 -0.3009 0.3034
C27 C 0.2020(4) -0.2889(5) 0.29071(10)
C28 C 0.2415(4) -0.2649(5) 0.27469(12)
H18 H 0.2810 -0.2679 0.2736
C29 C 0.2231(4) -0.2363(5) 0.26035(9)
H19 H 0.2501 -0.2199 0.2494
Ag2I Ag 0.12988(12) -0.20501(9) 0.23745(2)
Ag2J Ag 0.66512(8) -0.12988(12) 0.23745(2)
Ag2B Ag 0.46321(12) 0.00155(8) 0.40412(2)
Ag2K Ag 0.20501(9) -0.66512(8) 0.23745(2)
Ag2A Ag 0.53834(9) -0.46321(12) 0.40412(2)
O3A O 0.3773(3) -0.3670(5) 0.33772(9)
O3B O 0.3670(5) -0.2557(4) 0.33772(9)
O4A O 0.4114(4) -0.2855(6) 0.30482(9)
O4B O 0.2855(6) -0.3031(4) 0.30482(9)
C4A C 0.3838(8) -0.4198(10) 0.33451(17)
C4B C 0.4198(10) -0.1964(6) 0.33451(17)
C5A C 0.4656(6) -0.1775(8) 0.32047(14)
C5B C 0.1775(8) -0.3569(6) 0.32047(14)
H2A H 0.5029 -0.1332 0.3200
H2B H 0.1332 -0.3639 0.3200
C6A C 0.4567(5) -0.2244(8) 0.30674(15)
C6B C 0.2244(8) -0.3189(6) 0.30674(15)
N3J N 0.7295(3) -0.1199(6) 0.21425(9)
N3B N 0.4532(6) -0.0628(3) 0.38092(9)
N3A N 0.4840(5) -0.4532(6) 0.38092(9)
C20B C 0.4831(6) -0.0364(3) 0.36369(10)
C20A C 0.4805(5) -0.4831(6) 0.36369(10)
H12B H 0.5116 0.0107 0.3623
H12A H 0.4991 -0.5116 0.3623
C21B C 0.4713(6) -0.0789(4) 0.34853(8)
C21A C 0.4498(5) -0.4713(6) 0.34853(8)
H13B H 0.4918 -0.0608 0.3368
H13A H 0.4474 -0.4918 0.3368
C22B C 0.4297(6) -0.1478(3) 0.35060(8)
C22A C 0.4225(5) -0.4297(6) 0.35060(8)
C23B C 0.4261(6) -0.3997(3) 0.36783(10)
C23A C 0.1742(5) -0.4261(6) 0.36783(10)
H14B H 0.4075 -0.3712 0.3693
H14A H 0.2213 -0.4075 0.3693
C24B C 0.4568(6) -0.4115(4) 0.38299(8)
C24A C 0.1317(5) -0.4568(6) 0.38299(8)
H15B H 0.4592 -0.3911 0.3948
H15A H 0.1497 -0.4592 0.3948
N4O N -0.0638(6) -0.5651(5) 0.42870(10)
N4B N 0.6029(6) -0.1653(4) 0.26203(10)
N4A N 0.2318(5) -0.6029(6) 0.26203(10)
N4Q N 0.5651(5) -0.4986(4) 0.42870(10)
C25B C 0.6183(7) -0.1258(4) 0.27805(11)
C25A C 0.2559(6) -0.6183(7) 0.27805(11)
H16B H 0.6610 -0.0862 0.2792
H16A H 0.2528 -0.6610 0.2792
C26B C 0.5714(6) -0.1442(4) 0.29238(10)
C26A C 0.2844(5) -0.5714(6) 0.29238(10)
H17B H 0.5819 -0.1172 0.3034
H17A H 0.3009 -0.5819 0.3034
C27B C 0.5091(6) -0.2020(4) 0.29071(10)
C27A C 0.2889(5) -0.5091(6) 0.29071(10)
C28B C 0.4936(6) -0.2415(4) 0.27469(12)
C28A C 0.2649(5) -0.4936(6) 0.27469(12)
H18B H 0.4511 -0.2810 0.2736
H18A H 0.2679 -0.4511 0.2736
C29B C 0.5406(6) -0.2231(4) 0.26035(9)
C29A C 0.2363(5) -0.5406(6) 0.26035(9)
H19B H 0.5300 -0.2501 0.2494
H19A H 0.2199 -0.5300 0.2494
Ag3 Ag -0.02885(9) -0.51270(10) 0.30178(2)
Ga3 Ga 0.3333 -0.3333 0.22681(3)
O5 O 0.2578(4) -0.3667(4) 0.24325(10)
O6 O 0.2923(4) -0.4105(3) 0.21007(11)
C7 C 0.1942(6) -0.3735(6) 0.23656(16)
C8 C 0.3492(7) -0.4645(9) 0.22059(17)
H3 H 0.3632 -0.4956 0.2172
C9 C 0.3067(5) -0.4589(6) 0.20841(15)
N5 N 0.0403(5) -0.4735(7) 0.27819(16)
C30 C 0.0291(5) -0.4432(8) 0.26281(17)
H20 H -0.0132 -0.4460 0.2612
C31 C 0.0800(5) -0.4088(8) 0.24977(15)
H21 H 0.0724 -0.3880 0.2393
C32 C 0.1420(5) -0.4047(7) 0.25212(14)
C33 C 0.4118(5) -0.1531(7) 0.26750(16)
H22 H 0.3723 -0.1954 0.2691
C34 C 0.4283(6) -0.1022(7) 0.28053(14)
H23 H 0.3999 -0.1098 0.2911
N6 N 0.1959(5) -0.2268(6) 0.15967(12)
C35 C 0.1444(4) -0.2840(6) 0.16807(14)
H24 H 0.1003 -0.3045 0.1631
C36 C 0.1575(5) -0.3111(5) 0.18385(15)
H25 H 0.1224 -0.3502 0.1896
C37 C 0.2221(5) -0.2810(6) 0.19122(13)
C38 C 0.2736(4) -0.2238(6) 0.18281(15)
H26 H 0.3177 -0.2033 0.1879
C39 C 0.2605(4) -0.1967(5) 0.16704(15)
H27 H 0.2957 -0.1577 0.1613
Ag3I Ag 0.18282(13) -0.17937(10) 0.13511(2)
Ag3J Ag 0.63782(9) -0.18282(13) 0.13511(2)
Ag3B Ag 0.51615(13) 0.02885(9) 0.30178(2)
Ag3K Ag 0.17937(10) -0.63782(9) 0.13511(2)
Ag3A Ag 0.51270(10) -0.51615(13) 0.30178(2)
O5A O 0.3667(4) -0.3755(6) 0.24325(10)
O5B O 0.3755(6) -0.2578(4) 0.24325(10)
O6A O 0.4105(3) -0.2972(5) 0.21007(11)
O6B O 0.2972(5) -0.2923(4) 0.21007(11)
C7A C 0.3735(6) -0.4323(8) 0.23656(16)
C7B C 0.4323(8) -0.1942(6) 0.23656(16)
C8A C 0.4645(9) -0.1863(11) 0.22059(17)
C8B C 0.1863(11) -0.3492(7) 0.22059(17)
H3A H 0.4956 -0.1412 0.2172
H3B H 0.1412 -0.3632 0.2172
C9A C 0.4589(6) -0.2344(8) 0.20841(15)
C9B C 0.2344(8) -0.3067(5) 0.20841(15)
N5J N 0.7070(5) -0.1529(9) 0.11152(16)
N5B N 0.4862(9) -0.0403(5) 0.27819(16)
N5A N 0.4735(7) -0.4862(9) 0.27819(16)
C30B C 0.5277(9) -0.0291(5) 0.26281(17)
C30A C 0.4432(8) -0.5277(9) 0.26281(17)
H20B H 0.5672 0.0132 0.2612
H20A H 0.4460 -0.5672 0.2612
C31B C 0.5112(9) -0.0800(5) 0.24977(15)
C31A C 0.4088(8) -0.5112(9) 0.24977(15)
H21B H 0.5396 -0.0724 0.2393
H21A H 0.3880 -0.5396 0.2393
C32B C 0.4533(9) -0.1420(5) 0.25212(14)
C32A C 0.4047(7) -0.4533(9) 0.25212(14)
C33B C 0.4351(9) -0.4118(5) 0.26750(16)
C33A C 0.1531(7) -0.4351(9) 0.26750(16)
H22B H 0.4323 -0.3723 0.2691
H22A H 0.1954 -0.4323 0.2691
C34B C 0.4695(9) -0.4283(6) 0.28053(14)
C34A C 0.1022(7) -0.4695(9) 0.28053(14)
H23B H 0.4903 -0.3999 0.2911
H23A H 0.1098 -0.4903 0.2911
N6O N -0.0894(8) -0.5601(6) 0.32634(12)
N6B N 0.5773(8) -0.1959(5) 0.15967(12)
N6A N 0.2268(6) -0.5773(8) 0.15967(12)
N6Q N 0.5601(6) -0.5292(5) 0.32634(12)
C35B C 0.5716(7) -0.1444(4) 0.16807(14)
C35A C 0.2840(6) -0.5716(7) 0.16807(14)
H24B H 0.5952 -0.1003 0.1631
H24A H 0.3045 -0.5952 0.1631
C36B C 0.5314(7) -0.1575(5) 0.18385(15)
C36A C 0.3111(5) -0.5314(7) 0.18385(15)
H25B H 0.5274 -0.1224 0.1896
H25A H 0.3502 -0.5274 0.1896
C37B C 0.4969(8) -0.2221(5) 0.19122(13)
C37A C 0.2810(6) -0.4969(8) 0.19122(13)
C38B C 0.5026(7) -0.2736(4) 0.18281(15)
C38A C 0.2238(6) -0.5026(7) 0.18281(15)
H26B H 0.4790 -0.3177 0.1879
H26A H 0.2033 -0.4790 0.1879
C39B C 0.5428(6) -0.2605(4) 0.16704(15)
C39A C 0.1967(5) -0.5428(6) 0.16704(15)
H27B H 0.5466 -0.2957 0.1613
H27A H 0.1577 -0.5466 0.1613
Ag1 Ag 0.02620(8) -0.48862(8) 0.500990(19)
Ga1 Ga 0.3333 -0.3333 0.40969(2)
O1 O 0.2555(3) -0.3769(3) 0.42651(8)
C1 C 0.2076(5) -0.3630(6) 0.42770(14)
O2 O 0.2990(3) -0.4141(4) 0.39405(9)
C2 C 0.3257(6) -0.4756(6) 0.41474(18)
H1 H 0.3146 -0.5202 0.4177
C3 C 0.3006(7) -0.4679(6) 0.39743(18)
N1 N 0.0889(4) -0.4434(5) 0.47641(11)
C10 C 0.1573(4) -0.4211(5) 0.47676(11)
H4 H 0.1777 -0.4246 0.4880
C11 C 0.1959(3) -0.3935(5) 0.46073(13)
H5 H 0.2427 -0.3782 0.4610
C12 C 0.1660(4) -0.3883(5) 0.44435(11)
C13 C 0.4916(4) -0.0976(6) 0.44399(11)
H6 H 0.5155 -0.0772 0.4328
C14 C 0.5027(3) -0.0590(6) 0.46002(13)
H7 H 0.5342 -0.0122 0.4598
N2 N 0.1769(4) -0.2028(4) 0.35614(9)
C15 C 0.2219(4) -0.2248(4) 0.35215(7)
H8 H 0.2410 -0.2184 0.3400
C16 C 0.2391(4) -0.2561(4) 0.36598(9)
H9 H 0.2699 -0.2712 0.3633
C17 C 0.2112(4) -0.2655(5) 0.38379(8)
C18 C 0.1662(4) -0.2435(5) 0.38778(8)
H10 H 0.1471 -0.2499 0.4000
C19 C 0.1490(4) -0.2122(5) 0.37396(10)
H11 H 0.1182 -0.1971 0.3767
Ag1I Ag 0.15185(11) -0.15529(8) 0.334323(19)
Ag1J Ag 0.69287(8) -0.15185(11) 0.334323(19)
Ag1B Ag 0.48518(11) -0.02620(8) 0.500990(19)
Ag1K Ag 0.15529(8) -0.69287(8) 0.334323(19)
Ag1A Ag 0.48862(8) -0.48518(11) 0.500990(19)
O1A O 0.3769(3) -0.3676(4) 0.42651(8)
O1B O 0.3676(4) -0.2555(3) 0.42651(8)
C1A C 0.3630(6) -0.4294(8) 0.42770(14)
C1B C 0.4294(8) -0.2076(5) 0.42770(14)
O2A O 0.4141(4) -0.2869(5) 0.39405(9)
O2B O 0.2869(5) -0.2990(3) 0.39405(9)
C2A C 0.4756(6) -0.1987(8) 0.41474(18)
C2B C 0.1987(8) -0.3257(6) 0.41474(18)
H1A H 0.5202 -0.1652 0.4177
H1B H 0.1652 -0.3146 0.4177
C3A C 0.4679(6) -0.2315(9) 0.39743(18)
C3B C 0.2315(9) -0.3006(7) 0.39743(18)
N1J N 0.7556(4) -0.1344(6) 0.30974(11)
N1B N 0.4677(6) -0.0889(4) 0.47641(11)
N1A N 0.4434(5) -0.4677(6) 0.47641(11)
C10B C 0.4216(6) -0.1573(4) 0.47676(11)
C10A C 0.4211(5) -0.4216(6) 0.47676(11)
H4B H 0.3977 -0.1777 0.4880
H4A H 0.4246 -0.3977 0.4880
C11B C 0.4106(6) -0.1959(3) 0.46073(13)
C11A C 0.3935(5) -0.4106(6) 0.46073(13)
H5B H 0.3791 -0.2427 0.4610
H5A H 0.3782 -0.3791 0.4610
C12B C 0.4457(6) -0.1660(4) 0.44435(11)
C12A C 0.3883(5) -0.4457(6) 0.44435(11)
C13B C 0.4108(7) -0.4916(4) 0.44399(11)
C13A C 0.0976(6) -0.4108(7) 0.44399(11)
H6B H 0.4073 -0.5155 0.4328
H6A H 0.0772 -0.4073 0.4328
C14B C 0.4383(7) -0.5027(3) 0.46002(13)
C14A C 0.0590(6) -0.4383(7) 0.46002(13)
H7B H 0.4536 -0.5342 0.4598
H7A H 0.0122 -0.4536 0.4598
N2O N -0.0464(6) -0.5361(4) 0.52281(9)
N2B N 0.6203(6) -0.1769(4) 0.35614(9)
N2A N 0.2028(4) -0.6203(6) 0.35614(9)
N2Q N 0.5361(4) -0.5102(4) 0.52281(9)
C15B C 0.5533(6) -0.2219(4) 0.35215(7)
C15A C 0.2248(4) -0.5533(6) 0.35215(7)
H8B H 0.5406 -0.2410 0.3400
H8A H 0.2184 -0.5406 0.3400
C16B C 0.5048(6) -0.2391(4) 0.36598(9)
C16A C 0.2561(4) -0.5048(6) 0.36598(9)
H9B H 0.4589 -0.2699 0.3633
H9A H 0.2712 -0.4589 0.3633
C17B C 0.5233(6) -0.2112(4) 0.38379(8)
C17A C 0.2655(5) -0.5233(6) 0.38379(8)
C18B C 0.5903(6) -0.1662(4) 0.38778(8)
C18A C 0.2435(5) -0.5903(6) 0.38778(8)
H10B H 0.6030 -0.1471 0.4000
H10A H 0.2499 -0.6030 0.4000
C19B C 0.6388(6) -0.1490(4) 0.37396(10)
C19A C 0.2122(5) -0.6388(6) 0.37396(10)
H11B H 0.6847 -0.1182 0.3767
H11A H 0.1971 -0.6847 0.3767
loop_
_geom_bond_atom_site_label_1
_geom_bond_atom_site_label_2
_geom_bond_site_symmetry_1
_geom_bond_site_symmetry_2
Ag1 N1 1_555 1_555
Ga1 O1 1_555 1_555
O1 C1 1_555 1_555
C1 C12 1_555 1_555
Ag2 N3 1_555 1_555
Ga2 O3 1_555 1_555
O2 Ga1 1_555 1_555
C2 H1 1_555 1_555
Ag3 N5 1_555 1_555
Ga3 O5 1_555 1_555
O3 C4 1_555 1_555
C3 O2 1_555 1_555
O4 Ga2 1_555 1_555
C4 C22 1_555 1_555
O5 C7 1_555 1_555
C5 H2 1_555 1_555
O6 Ga3 1_555 1_555
C6 O4 1_555 1_555
C7 C32 1_555 1_555
C8 H3 1_555 1_555
C9 O6 1_555 1_555
N1 C10 1_555 1_555
C10 H4 1_555 1_555
C11 C10 1_555 1_555
H5 C11 1_555 1_555
C12 C11 1_555 1_555
C13 H6 1_555 1_555
C14 C13 1_555 1_555
H7 C14 1_555 1_555
N2 C15 1_555 1_555
C15 H8 1_555 1_555
C16 C15 1_555 1_555
H9 C16 1_555 1_555
C17 C16 1_555 1_555
C18 C17 1_555 1_555
H10 C18 1_555 1_555
C19 N2 1_555 1_555
H11 C19 1_555 1_555
N3 C20 1_555 1_555
C20 H12 1_555 1_555
C21 C20 1_555 1_555
H13 C21 1_555 1_555
C22 C21 1_555 1_555
C23 H14 1_555 1_555
C24 C23 1_555 1_555
H15 C24 1_555 1_555
N4 C25 1_555 1_555
C25 H16 1_555 1_555
C26 C25 1_555 1_555
H17 C26 1_555 1_555
C27 C26 1_555 1_555
C28 C27 1_555 1_555
H18 C28 1_555 1_555
C29 N4 1_555 1_555
H19 C29 1_555 1_555
N5 C30 1_555 1_555
C30 H20 1_555 1_555
C31 C30 1_555 1_555
H21 C31 1_555 1_555
C32 C31 1_555 1_555
C33 H22 1_555 1_555
C34 C33 1_555 1_555
H23 C34 1_555 1_555
N6 C35 1_555 1_555
C35 H24 1_555 1_555
C36 C35 1_555 1_555
H25 C36 1_555 1_555
C37 C36 1_555 1_555
C38 C37 1_555 1_555
H26 C38 1_555 1_555
C39 N6 1_555 1_555
H27 C39 1_555 1_555
Ag1I N2 1_555 1_555
Ag1J N1J 1_555 1_555
Ag1B N1B 1_555 1_555
Ag1K N2A 1_555 1_555
Ag1A N1A 1_555 1_555
O1A Ga1 1_555 1_555
O1B Ga1 1_555 1_555
C1A C2 1_555 1_555
C1B O1B 1_555 1_555
Ag2I N4 1_555 1_555
Ag2J N3J 1_555 1_555
Ag2B N3B 1_555 1_555
Ag2K N4A 1_555 1_555
Ag2A N3A 1_555 1_555
O2A Ga1 1_555 1_555
O2B Ga1 1_555 1_555
C2A C1B 1_555 1_555
C2B C1 1_555 1_555
H1A C2A 1_555 1_555
H1B C2B 1_555 1_555
Ag3I N6 1_555 1_555
Ag3J N5J 1_555 1_555
Ag3B N5B 1_555 1_555
Ag3K N6A 1_555 1_555
Ag3A N5A 1_555 1_555
O3A Ga2 1_555 1_555
O3B Ga2 1_555 1_555
C3A O2A 1_555 1_555
C3B C17 1_555 1_555
O4A Ga2 1_555 1_555
O4B Ga2 1_555 1_555
C4A C5 1_555 1_555
C4B O3B 1_555 1_555
O5A Ga3 1_555 1_555
O5B Ga3 1_555 1_555
C5A C4B 1_555 1_555
C5B C4 1_555 1_555
H2A C5A 1_555 1_555
H2B C5B 1_555 1_555
O6A Ga3 1_555 1_555
O6B Ga3 1_555 1_555
C6A O4A 1_555 1_555
C6B C27 1_555 1_555
C7A C8 1_555 1_555
C7B O5B 1_555 1_555
C8A C7B 1_555 1_555
C8B C7 1_555 1_555
H3A C8A 1_555 1_555
H3B C8B 1_555 1_555
C9A O6A 1_555 1_555
C9B C37 1_555 1_555
N1B C14 1_555 1_555
N1A C10A 1_555 1_555
C10B N1B 1_555 1_555
C10A H4A 1_555 1_555
H4B C10B 1_555 1_555
C11B C10B 1_555 1_555
C11A C10A 1_555 1_555
H5B C11B 1_555 1_555
H5A C11A 1_555 1_555
C12B C13 1_555 1_555
C12A C1A 1_555 1_555
C13B C12A 1_555 1_555
C13A C12 1_555 1_555
H6B C13B 1_555 1_555
H6A C13A 1_555 1_555
C14B N1A 1_555 1_555
C14A N1 1_555 1_555
H7B C14B 1_555 1_555
H7A C14A 1_555 1_555
N2O Ag1 1_555 1_555
N2B Ag1J 1_555 1_555
N2A C15A 1_555 1_555
N2Q Ag1A 1_555 1_555
C15B N2B 1_555 1_555
C15A H8A 1_555 1_555
H8B C15B 1_555 1_555
C16B C15B 1_555 1_555
C16A C15A 1_555 1_555
H9B C16B 1_555 1_555
H9A C16A 1_555 1_555
C17B C3A 1_555 1_555
C17A C3 1_555 1_555
C18B C17B 1_555 1_555
C18A C17A 1_555 1_555
H10B C18B 1_555 1_555
H10A C18A 1_555 1_555
C19B N2B 1_555 1_555
C19A N2A 1_555 1_555
H11B C19B 1_555 1_555
H11A C19A 1_555 1_555
N3B C24 1_555 1_555
N3A C20A 1_555 1_555
C20B N3B 1_555 1_555
C20A H12A 1_555 1_555
H12B C20B 1_555 1_555
C21B C20B 1_555 1_555
C21A C20A 1_555 1_555
H13B C21B 1_555 1_555
H13A C21A 1_555 1_555
C22B C23 1_555 1_555
C22A C4A 1_555 1_555
C23B C22A 1_555 1_555
C23A C22 1_555 1_555
H14B C23B 1_555 1_555
H14A C23A 1_555 1_555
C24B N3A 1_555 1_555
C24A N3 1_555 1_555
H15B C24B 1_555 1_555
H15A C24A 1_555 1_555
N4O Ag2 1_555 1_555
N4B Ag2J 1_555 1_555
N4A C25A 1_555 1_555
N4Q Ag2A 1_555 1_555
C25B N4B 1_555 1_555
C25A H16A 1_555 1_555
H16B C25B 1_555 1_555
C26B C25B 1_555 1_555
C26A C25A 1_555 1_555
H17B C26B 1_555 1_555
H17A C26A 1_555 1_555
C27B C6A 1_555 1_555
C27A C6 1_555 1_555
C28B C27B 1_555 1_555
C28A C27A 1_555 1_555
H18B C28B 1_555 1_555
H18A C28A 1_555 1_555
C29B N4B 1_555 1_555
C29A N4A 1_555 1_555
H19B C29B 1_555 1_555
H19A C29A 1_555 1_555
N5B C34 1_555 1_555
N5A C30A 1_555 1_555
C30B N5B 1_555 1_555
C30A H20A 1_555 1_555
H20B C30B 1_555 1_555
C31B C30B 1_555 1_555
C31A C30A 1_555 1_555
H21B C31B 1_555 1_555
H21A C31A 1_555 1_555
C32B C33 1_555 1_555
C32A C7A 1_555 1_555
C33B C32A 1_555 1_555
C33A C32 1_555 1_555
H22B C33B 1_555 1_555
H22A C33A 1_555 1_555
C34B N5A 1_555 1_555
C34A N5 1_555 1_555
H23B C34B 1_555 1_555
H23A C34A 1_555 1_555
N6O Ag3 1_555 1_555
N6B Ag3J 1_555 1_555
N6A C35A 1_555 1_555
N6Q Ag3A 1_555 1_555
C35B N6B 1_555 1_555
C35A H24A 1_555 1_555
H24B C35B 1_555 1_555
C36B C35B 1_555 1_555
C36A C35A 1_555 1_555
H25B C36B 1_555 1_555
H25A C36A 1_555 1_555
C37B C9A 1_555 1_555
C37A C9 1_555 1_555
C38B C37B 1_555 1_555
C38A C37A 1_555 1_555
H26B C38B 1_555 1_555
H26A C38A 1_555 1_555
C39B N6B 1_555 1_555
C39A N6A 1_555 1_555
H27B C39B 1_555 1_555
H27A C39A 1_555 1_555
C2 C3 1_555 1_555
C5 C6 1_555 1_555
C8 C9 1_555 1_555
C18 C19 1_555 1_555
C28 C29 1_555 1_555
C38 C39 1_555 1_555
O1A C1A 1_555 1_555
C1B C12B 1_555 1_555
O2B C3B 1_555 1_555
C2A C3A 1_555 1_555
C2B C3B 1_555 1_555
O3A C4A 1_555 1_555
O4B C6B 1_555 1_555
C4B C22B 1_555 1_555
O5A C7A 1_555 1_555
C5A C6A 1_555 1_555
C5B C6B 1_555 1_555
O6B C9B 1_555 1_555
C7B C32B 1_555 1_555
C8A C9A 1_555 1_555
C8B C9B 1_555 1_555
C11B C12B 1_555 1_555
C11A C12A 1_555 1_555
C13B C14B 1_555 1_555
C13A C14A 1_555 1_555
C16B C17B 1_555 1_555
C16A C17A 1_555 1_555
C18B C19B 1_555 1_555
C18A C19A 1_555 1_555
C21B C22B 1_555 1_555
C21A C22A 1_555 1_555
C23B C24B 1_555 1_555
C23A C24A 1_555 1_555
C26B C27B 1_555 1_555
C26A C27A 1_555 1_555
C28B C29B 1_555 1_555
C28A C29A 1_555 1_555
C31B C32B 1_555 1_555
C31A C32A 1_555 1_555
C33B C34B 1_555 1_555
C33A C34A 1_555 1_555
C36B C37B 1_555 1_555
C36A C37A 1_555 1_555
C38B C39B 1_555 1_555
C38A C39A 1_555 1_555

#END
