
#######################################################################
#
#                 Cambridge Crystallographic Data Centre
#                                CCDC 
#
#######################################################################
#
# If this CIF has been generated from an entry in the Cambridge 
# Structural Database, then it will include bibliographic, chemical, 
# crystal, experimental, refinement or atomic coordinate data resulting 
# from the CCDC's data processing and validation procedures.
#
#######################################################################

data_YUXLEJ
_symmetry_cell_setting           rhombohedral
_symmetry_space_group_name_H-M   'R 3 c'
_symmetry_Int_Tables_number      161
_space_group_name_Hall           'R 3 -2"c'
loop_
_symmetry_equiv_pos_site_id
_symmetry_equiv_pos_as_xyz
1 x,y,z
2 -y,x-y,z
3 -x+y,-x,z
4 -x+y,y,1/2+z
5 x,x-y,1/2+z
6 -y,-x,1/2+z
7 2/3+x,1/3+y,1/3+z
8 2/3-y,1/3+x-y,1/3+z
9 2/3-x+y,1/3-x,1/3+z
10 2/3-x+y,1/3+y,5/6+z
11 2/3+x,1/3+x-y,5/6+z
12 2/3-y,1/3-x,5/6+z
13 1/3+x,2/3+y,2/3+z
14 1/3-y,2/3+x-y,2/3+z
15 1/3-x+y,2/3-x,2/3+z
16 1/3-x+y,2/3+y,1/6+z
17 1/3+x,2/3+x-y,1/6+z
18 1/3-y,2/3-x,1/6+z
_cell_length_a                   22.4562(3)
_cell_length_b                   22.4562(3)
_cell_length_c                   72.1481(4)
_cell_angle_alpha                90
_cell_angle_beta                 90
_cell_angle_gamma                120
_cell_volume                     31508.5
loop_
_atom_site_label
_atom_site_type_symbol
_atom_site_fract_x
_atom_site_fract_y
_atom_site_fract_z
Ag2 Ag -0.67183(4) 0.19064(3) -0.114820(8)
Al2 Al -0.3334 0.3333 -0.19723(3)
O3 O -0.4101(2) 0.2973(2) -0.18175(5)
C14 C -0.4696(3) 0.2432(3) -0.18369(7)
O4 O -0.2566(2) 0.3676(2) -0.21293(6)
C15 C -0.1961(3) 0.3175(3) -0.19839(8)
H10 H -0.1581 0.3101 -0.1994
C16 C -0.2047(4) 0.3576(4) -0.21126(9)
C17 C -0.5192(3) 0.2279(4) -0.16827(8)
C18 C -0.4947(3) 0.2603(3) -0.15156(7)
H11 H -0.2629 0.4468 -0.1497
C19 C -0.5410(4) 0.2481(4) -0.13742(9)
H12 H -0.2030 0.5243 -0.1261
N3 N -0.6063(3) 0.2044(4) -0.13889(8)
C20 C -0.1976(4) 0.6301(8) -0.15531(12)
H13 H -0.1779 0.6784 -0.1567
C21 C -0.2313(4) 0.5907(6) -0.16961(11)
H14 H -0.2406 0.6092 -0.1803
C22 C -0.4559(4) 0.1558(4) -0.22677(7)
C23 C -0.5127(5) 0.0907(3) -0.22688(8)
H15 H -0.5391 0.0731 -0.2159
C24 C -0.5321(5) 0.0500(4) -0.24288(10)
H16 H -0.5760 0.0095 -0.2434
N4 N -0.4893(3) 0.0676(4) -0.25759(8)
C25 C -0.4369(5) 0.1279(5) -0.25834(13)
H17 H -0.4101 0.1412 -0.2693
C26 C -0.4160(4) 0.1775(5) -0.24333(10)
H18 H -0.3774 0.2224 -0.2445
Ag2K Ag -0.52397(3) 0.00516(4) -0.281487(8)
Ag2I Ag -0.47086(5) 0.52397(3) -0.281487(8)
Ag2B Ag -0.13753(5) 0.67183(4) -0.114820(8)
Ag2J Ag -0.00516(4) 0.47086(5) -0.281487(8)
Ag2A Ag -0.19064(3) 0.13753(5) -0.114820(8)
O3A O -0.2973(2) 0.2926(3) -0.18175(5)
O3B O -0.2926(3) 0.4101(2) -0.18175(5)
C14A C -0.2432(3) 0.2872(4) -0.18369(7)
C14B C -0.2872(4) 0.4696(3) -0.18369(7)
O4A O -0.3676(2) 0.3758(3) -0.21293(6)
O4B O -0.3758(3) 0.2566(2) -0.21293(6)
C15A C -0.3175(3) 0.4864(4) -0.19839(8)
C15B C -0.4864(4) 0.1961(3) -0.19839(8)
H10A H -0.3101 0.5318 -0.1994
H10B H -0.5318 0.1581 -0.1994
C16A C -0.3576(4) 0.4377(6) -0.21126(9)
C16B C -0.4377(6) 0.2047(4) -0.21126(9)
C17B C -0.2529(5) 0.5192(3) -0.16827(8)
C17A C -0.2279(4) 0.2529(5) -0.16827(8)
C18B C -0.2450(4) 0.4947(3) -0.15156(7)
C18A C -0.2603(3) 0.2450(4) -0.15156(7)
H11B H -0.2903 0.2629 -0.1497
H11A H -0.4468 0.2903 -0.1497
C19B C -0.2109(6) 0.5410(4) -0.13742(9)
C19A C -0.2481(4) 0.2109(6) -0.13742(9)
H12B H -0.2727 0.2030 -0.1261
H12A H -0.5243 0.2727 -0.1261
N3I N -0.5226(5) 0.5377(4) -0.30556(8)
N3B N -0.1893(5) 0.6063(3) -0.13889(8)
N3A N -0.2044(4) 0.1893(5) -0.13889(8)
C20B C -0.1723(9) 0.1976(4) -0.15531(12)
C20A C -0.6301(8) 0.1723(9) -0.15531(12)
H13B H -0.1437 0.1779 -0.1567
H13A H -0.6784 0.1437 -0.1567
C21B C -0.1780(7) 0.2313(4) -0.16961(11)
C21A C -0.5907(6) 0.1780(7) -0.16961(11)
H14B H -0.1502 0.2406 -0.1803
H14A H -0.6092 0.1502 -0.1803
C22B C -0.3883(6) 0.4559(4) -0.22677(7)
C22A C -0.1558(4) 0.3883(6) -0.22677(7)
C23B C -0.3966(6) 0.5127(5) -0.22688(8)
C23A C -0.0907(3) 0.3966(6) -0.22688(8)
H15B H -0.3878 0.5391 -0.2159
H15A H -0.0731 0.3878 -0.2159
C24B C -0.4179(6) 0.5321(5) -0.24288(10)
C24A C -0.0500(4) 0.4179(6) -0.24288(10)
H16B H -0.4145 0.5760 -0.2434
H16A H -0.0095 0.4145 -0.2434
N4Q N -0.7343(4) 0.1560(3) -0.09092(8)
N4B N -0.4431(5) 0.4893(3) -0.25759(8)
N4A N -0.0676(4) 0.4431(5) -0.25759(8)
N4P N -0.1560(3) 0.1098(5) -0.09092(8)
C25B C -0.4352(7) 0.4369(5) -0.25834(13)
C25A C -0.1279(5) 0.4352(7) -0.25834(13)
H17B H -0.4487 0.4101 -0.2693
H17A H -0.1412 0.4487 -0.2693
C26B C -0.4065(6) 0.4160(4) -0.24333(10)
C26A C -0.1775(5) 0.4065(6) -0.24333(10)
H18B H -0.4002 0.3774 -0.2445
H18A H -0.2224 0.4002 -0.2445
Ag3 Ag -0.69737(4) 0.13712(4) -0.216900(7)
Al3 Al -0.3334 0.3333 -0.29188(3)
O5 O -0.41191(18) 0.28491(19) -0.27707(4)
C27 C -0.4691(3) 0.2310(3) -0.28126(7)
O6 O -0.25689(18) 0.37810(19) -0.30803(4)
C28 C -0.1941(3) 0.3240(3) -0.29801(8)
H19 H -0.1601 0.3124 -0.3011
C29 C -0.2081(3) 0.3660(3) -0.31032(6)
C30 C -0.5262(3) 0.2081(3) -0.26743(7)
C31 C -0.5113(5) 0.2448(4) -0.25043(10)
H20 H -0.2516 0.4664 -0.2480
C32 C -0.5603(4) 0.2266(4) -0.23797(11)
H21 H -0.1984 0.5499 -0.2267
N5 N -0.6263(3) 0.1724(3) -0.24067(9)
C33 C -0.2251(5) 0.6395(5) -0.25560(10)
H22 H -0.2201 0.6837 -0.2573
C34 C -0.2576(5) 0.5887(5) -0.26895(11)
H23 H -0.2748 0.5993 -0.2797
C35 C -0.4366(4) 0.1648(3) -0.32631(9)
C36 C -0.5017(4) 0.1283(5) -0.33553(9)
H24 H -0.5421 0.1221 -0.3295
C37 C -0.5054(4) 0.1033(6) -0.35245(10)
H25 H -0.5437 0.0943 -0.3600
N6 N -0.4570(3) 0.0899(3) -0.35953(8)
C38 C -0.3959(4) 0.1224(4) -0.35060(11)
H26 H -0.3586 0.1187 -0.3555
C39 C -0.3852(3) 0.1610(3) -0.33452(9)
H27 H -0.3404 0.1851 -0.3293
Ag3K Ag -0.47045(4) 0.03070(4) -0.383567(7)
Ag3I Ag -0.49884(6) 0.47045(4) -0.383567(7)
Ag3B Ag -0.16551(6) 0.69737(4) -0.216900(7)
Ag3J Ag -0.03070(4) 0.49884(6) -0.383567(7)
Ag3A Ag -0.13712(4) 0.16551(6) -0.216900(7)
O5A O -0.28491(19) 0.30318(26) -0.27707(4)
O5B O -0.30318(26) 0.41191(18) -0.27707(4)
C27A C -0.2310(3) 0.2999(4) -0.28126(7)
C27B C -0.2999(4) 0.4691(3) -0.28126(7)
O6A O -0.37810(19) 0.36501(26) -0.30803(4)
O6B O -0.36501(26) 0.25689(18) -0.30803(4)
C28A C -0.3240(3) 0.4819(4) -0.29801(8)
C28B C -0.4819(4) 0.1941(3) -0.29801(8)
H19A H -0.3124 0.5275 -0.3011
H19B H -0.5275 0.1601 -0.3011
C29A C -0.3660(3) 0.4259(4) -0.31032(6)
C29B C -0.4259(4) 0.2081(3) -0.31032(6)
C30B C -0.2657(4) 0.5262(3) -0.26743(7)
C30A C -0.2081(3) 0.2657(4) -0.26743(7)
C31B C -0.2439(6) 0.5113(5) -0.25043(10)
C31A C -0.2448(4) 0.2439(6) -0.25043(10)
H20B H -0.2820 0.2516 -0.2480
H20A H -0.4664 0.2820 -0.2480
C32B C -0.2131(6) 0.5603(4) -0.23797(11)
C32A C -0.2266(4) 0.2131(6) -0.23797(11)
H21B H -0.2517 0.1984 -0.2267
H21A H -0.5499 0.2517 -0.2267
N5I N -0.5346(4) 0.5057(3) -0.40734(9)
N5B N -0.2013(4) 0.6263(3) -0.24067(9)
N5A N -0.1724(3) 0.2013(4) -0.24067(9)
C33B C -0.1354(7) 0.2251(5) -0.25560(10)
C33A C -0.6395(5) 0.1354(7) -0.25560(10)
H22B H -0.0962 0.2201 -0.2573
H22A H -0.6837 0.0962 -0.2573
C34B C -0.1537(7) 0.2576(5) -0.26895(11)
C34A C -0.5887(5) 0.1537(7) -0.26895(11)
H23B H -0.1259 0.2748 -0.2797
H23A H -0.5993 0.1259 -0.2797
C35B C -0.3986(5) 0.4366(4) -0.32631(9)
C35A C -0.1648(3) 0.3986(5) -0.32631(9)
C36B C -0.3700(6) 0.5017(4) -0.33553(9)
C36A C -0.1283(5) 0.3700(6) -0.33553(9)
H24B H -0.3358 0.5421 -0.3295
H24A H -0.1221 0.3358 -0.3295
C37B C -0.3913(7) 0.5054(4) -0.35245(10)
C37A C -0.1033(6) 0.3913(7) -0.35245(10)
H25B H -0.3620 0.5437 -0.3600
H25A H -0.0943 0.3620 -0.3600
N6Q N -0.7566(3) 0.1237(3) -0.19286(8)
N6B N -0.4531(4) 0.4570(3) -0.35953(8)
N6A N -0.0899(3) 0.4531(4) -0.35953(8)
N6P N -0.1237(3) 0.1198(4) -0.19286(8)
C38B C -0.4817(6) 0.3959(4) -0.35060(11)
C38A C -0.1224(4) 0.4817(6) -0.35060(11)
H26B H -0.5227 0.3586 -0.3555
H26A H -0.1187 0.5227 -0.3555
C39B C -0.4538(4) 0.3852(3) -0.33452(9)
C39A C -0.1610(3) 0.4538(4) -0.33452(9)
H27B H -0.4745 0.3404 -0.3293
H27A H -0.1851 0.4745 -0.3293
Ag1 Ag -0.63645(4) 0.18762(4) -0.018290(9)
Al1 Al -0.3334 0.3334 -0.10994(3)
O1 O -0.40957(16) 0.29874(15) -0.09439(4)
C1 C -0.4564(3) 0.2374(3) -0.09239(7)
O2 O -0.25455(16) 0.36618(17) -0.12502(4)
C2 C -0.1837(3) 0.3459(3) -0.10420(6)
H1 H -0.1383 0.3561 -0.1012
C3 C -0.1968(3) 0.3711(3) -0.12067(6)
C4 C -0.4989(3) 0.2199(3) -0.07459(7)
C5 C -0.4732(5) 0.2653(4) -0.06045(13)
H2 H -0.2624 0.4307 -0.0617
C6 C -0.5109(6) 0.2493(6) -0.04383(14)
H3 H -0.2376 0.4892 -0.0327
N1 N -0.5781(4) 0.1997(4) -0.04355(10)
C7 C -0.2449(5) 0.5985(4) -0.05628(15)
H4 H -0.2442 0.6408 -0.0545
C8 C -0.2710(4) 0.5638(4) -0.07297(9)
H5 H -0.2813 0.5848 -0.0829
C9 C -0.4499(3) 0.1427(3) -0.13495(7)
C10 C -0.4983(5) 0.0733(4) -0.13131(10)
H6 H -0.5193 0.0592 -0.1194
C11 C -0.5141(4) 0.0271(4) -0.14541(13)
H7 H -0.5440 -0.0201 -0.1426
N2 N -0.4910(4) 0.0426(4) -0.16288(9)
C12 C -0.4465(3) 0.1067(4) -0.16617(7)
H8 H -0.4257 0.1192 -0.1780
C13 C -0.4281(3) 0.1579(3) -0.15280(7)
H9 H -0.3997 0.2047 -0.1562
Ag1K Ag -0.52095(4) -0.03022(4) -0.184957(9)
Ag1I Ag -0.50926(6) 0.52095(4) -0.184957(9)
Ag1B Ag -0.17593(6) 0.63645(4) -0.018290(9)
Ag1J Ag 0.03022(4) 0.50926(6) -0.184957(9)
Ag1A Ag -0.18762(4) 0.17593(6) -0.018290(9)
O1A O -0.29874(15) 0.29169(22) -0.09439(4)
O1B O -0.29169(22) 0.40957(16) -0.09439(4)
C1A C -0.2374(3) 0.3062(4) -0.09239(7)
C1B C -0.3062(4) 0.4564(3) -0.09239(7)
O2A O -0.36618(17) 0.37927(23) -0.12502(4)
O2B O -0.37927(23) 0.25455(16) -0.12502(4)
C2A C -0.3459(3) 0.4704(4) -0.10420(6)
C2B C -0.4704(4) 0.1837(3) -0.10420(6)
H1A H -0.3561 0.5056 -0.1012
H1B H -0.5056 0.1383 -0.1012
C3A C -0.3711(3) 0.4321(4) -0.12067(6)
C3B C -0.4321(4) 0.1968(3) -0.12067(6)
C4B C -0.2812(4) 0.4989(3) -0.07459(7)
C4A C -0.2199(3) 0.2812(4) -0.07459(7)
C5B C -0.2615(6) 0.4732(5) -0.06045(13)
C5A C -0.2653(4) 0.2615(6) -0.06045(13)
H2B H -0.3069 0.2624 -0.0617
H2A H -0.4307 0.3069 -0.0617
C6B C -0.2398(8) 0.5109(6) -0.04383(14)
C6A C -0.2493(6) 0.2398(8) -0.04383(14)
H3B H -0.2732 0.2376 -0.0327
H3A H -0.4892 0.2732 -0.0327
N1I N -0.5555(6) 0.5330(4) -0.21022(10)
N1B N -0.2222(6) 0.5781(4) -0.04355(10)
N1A N -0.1997(4) 0.2222(6) -0.04355(10)
C7B C -0.1566(6) 0.2449(5) -0.05628(15)
C7A C -0.5985(4) 0.1566(6) -0.05628(15)
H4B H -0.1150 0.2442 -0.0545
H4A H -0.6408 0.1150 -0.0545
C8B C -0.1652(6) 0.2710(4) -0.07297(9)
C8A C -0.5638(4) 0.1652(6) -0.07297(9)
H5B H -0.1339 0.2813 -0.0829
H5A H -0.5848 0.1339 -0.0829
C9B C -0.4074(4) 0.4499(3) -0.13495(7)
C9A C -0.1427(3) 0.4074(4) -0.13495(7)
C10B C -0.4284(6) 0.4983(5) -0.13131(10)
C10A C -0.0733(4) 0.4284(6) -0.13131(10)
H6B H -0.4215 0.5193 -0.1194
H6A H -0.0592 0.4215 -0.1194
C11B C -0.4588(6) 0.5141(4) -0.14541(13)
C11A C -0.0271(4) 0.4588(6) -0.14541(13)
H7B H -0.4761 0.5440 -0.1426
H7A H 0.0201 0.4761 -0.1426
N2Q N -0.7093(4) 0.1577(4) 0.00379(9)
N2B N -0.4664(6) 0.4910(4) -0.16288(9)
N2A N -0.0426(4) 0.4664(6) -0.16288(9)
N2P N -0.1577(4) 0.1331(6) 0.00379(9)
C12B C -0.4468(5) 0.4465(3) -0.16617(7)
C12A C -0.1067(4) 0.4468(5) -0.16617(7)
H8B H -0.4551 0.4257 -0.1780
H8A H -0.1192 0.4551 -0.1780
C13B C -0.4140(4) 0.4281(3) -0.15280(7)
C13A C -0.1579(3) 0.4140(4) -0.15280(7)
H9B H -0.3956 0.3997 -0.1562
H9A H -0.2047 0.3956 -0.1562
loop_
_geom_bond_atom_site_label_1
_geom_bond_atom_site_label_2
_geom_bond_site_symmetry_1
_geom_bond_site_symmetry_2
Ag1 N1 1_555 1_555
Al1 O1 1_555 1_555
O1 C1 1_555 1_555
C1 C4 1_555 1_555
O2 Al1 1_555 1_555
C2 H1 1_555 1_555
C3 O2 1_555 1_555
C4 C5 1_555 1_555
C5 C6 1_555 1_555
H2 C5B 1_555 1_555
C6 N1 1_555 1_555
H3 C6B 1_555 1_555
N1 C7A 1_555 1_555
C7 H4 1_555 1_555
C8 C7 1_555 1_555
H5 C8 1_555 1_555
C9 C10 1_555 1_555
C10 H6 1_555 1_555
C11 C10 1_555 1_555
H7 C11 1_555 1_555
N2 C11 1_555 1_555
C12 N2 1_555 1_555
H8 C12 1_555 1_555
C13 C9 1_555 1_555
H9 C13 1_555 1_555
Ag2 N3 1_555 1_555
Al2 O3 1_555 1_555
O3 C14 1_555 1_555
C14 C17 1_555 1_555
O4 Al2 1_555 1_555
C15 H10 1_555 1_555
C16 O4 1_555 1_555
C17 C18 1_555 1_555
C18 C19 1_555 1_555
H11 C18B 1_555 1_555
C19 N3 1_555 1_555
H12 C19B 1_555 1_555
N3 C20A 1_555 1_555
C20 H13 1_555 1_555
C21 C20 1_555 1_555
H14 C21 1_555 1_555
C22 C23 1_555 1_555
C23 H15 1_555 1_555
C24 C23 1_555 1_555
H16 C24 1_555 1_555
N4 C24 1_555 1_555
C25 N4 1_555 1_555
H17 C25 1_555 1_555
C26 C22 1_555 1_555
H18 C26 1_555 1_555
Ag3 N5 1_555 1_555
Al3 O5 1_555 1_555
O5 C27 1_555 1_555
C27 C30 1_555 1_555
O6 Al3 1_555 1_555
C28 H19 1_555 1_555
C29 O6 1_555 1_555
C30 C31 1_555 1_555
C31 C32 1_555 1_555
H20 C31B 1_555 1_555
C32 N5 1_555 1_555
H21 C32B 1_555 1_555
N5 C33A 1_555 1_555
C33 H22 1_555 1_555
C34 C33 1_555 1_555
H23 C34 1_555 1_555
C35 C36 1_555 1_555
C36 H24 1_555 1_555
C37 C36 1_555 1_555
H25 C37 1_555 1_555
N6 C37 1_555 1_555
C38 N6 1_555 1_555
H26 C38 1_555 1_555
C39 C35 1_555 1_555
H27 C39 1_555 1_555
Ag1K N2 1_555 1_555
Ag1I N1I 1_555 1_555
Ag1B N1B 1_555 1_555
Ag1J N2A 1_555 1_555
Ag1A N1A 1_555 1_555
O1A Al1 1_555 1_555
O1B Al1 1_555 1_555
C1A C2 1_555 1_555
C1B O1B 1_555 1_555
O2A Al1 1_555 1_555
O2B Al1 1_555 1_555
C2A C1B 1_555 1_555
C2B C1 1_555 1_555
H1A C2A 1_555 1_555
H1B C2B 1_555 1_555
C3A O2A 1_555 1_555
C3B C9 1_555 1_555
C4B C8 1_555 1_555
C4A C1A 1_555 1_555
C5B C4B 1_555 1_555
C5A C4A 1_555 1_555
H2B C5A 1_555 1_555
H2A C5 1_555 1_555
C6B C5B 1_555 1_555
C6A C5A 1_555 1_555
H3B C6A 1_555 1_555
H3A C6 1_555 1_555
N1B C7 1_555 1_555
N1A C6A 1_555 1_555
C7B N1A 1_555 1_555
C7A H4A 1_555 1_555
H4B C7B 1_555 1_555
C8B C4A 1_555 1_555
C8A C4 1_555 1_555
H5B C8B 1_555 1_555
H5A C8A 1_555 1_555
C9B C3A 1_555 1_555
C9A C3 1_555 1_555
C10B C9B 1_555 1_555
C10A C9A 1_555 1_555
H6B C10B 1_555 1_555
H6A C10A 1_555 1_555
C11B C10B 1_555 1_555
C11A C10A 1_555 1_555
H7B C11B 1_555 1_555
H7A C11A 1_555 1_555
N2Q Ag1 1_555 1_555
N2B Ag1I 1_555 1_555
N2A C11A 1_555 1_555
N2P Ag1A 1_555 1_555
C12B N2B 1_555 1_555
C12A N2A 1_555 1_555
H8B C12B 1_555 1_555
H8A C12A 1_555 1_555
C13B C9B 1_555 1_555
C13A C9A 1_555 1_555
H9B C13B 1_555 1_555
H9A C13A 1_555 1_555
Ag2K N4 1_555 1_555
Ag2I N3I 1_555 1_555
Ag2B N3B 1_555 1_555
Ag2J N4A 1_555 1_555
Ag2A N3A 1_555 1_555
O3A Al2 1_555 1_555
O3B Al2 1_555 1_555
C14A C15 1_555 1_555
C14B O3B 1_555 1_555
O4A Al2 1_555 1_555
O4B Al2 1_555 1_555
C15A C14B 1_555 1_555
C15B C14 1_555 1_555
H10A C15A 1_555 1_555
H10B C15B 1_555 1_555
C16A O4A 1_555 1_555
C16B C22 1_555 1_555
C17B C21 1_555 1_555
C17A C14A 1_555 1_555
C18B C17B 1_555 1_555
C18A C17A 1_555 1_555
H11B C18A 1_555 1_555
H11A C18 1_555 1_555
C19B C18B 1_555 1_555
C19A C18A 1_555 1_555
H12B C19A 1_555 1_555
H12A C19 1_555 1_555
N3B C20 1_555 1_555
N3A C19A 1_555 1_555
C20B N3A 1_555 1_555
C20A H13A 1_555 1_555
H13B C20B 1_555 1_555
C21B C17A 1_555 1_555
C21A C17 1_555 1_555
H14B C21B 1_555 1_555
H14A C21A 1_555 1_555
C22B C16A 1_555 1_555
C22A C16 1_555 1_555
C23B C22B 1_555 1_555
C23A C22A 1_555 1_555
H15B C23B 1_555 1_555
H15A C23A 1_555 1_555
C24B C23B 1_555 1_555
C24A C23A 1_555 1_555
H16B C24B 1_555 1_555
H16A C24A 1_555 1_555
N4Q Ag2 1_555 1_555
N4B Ag2I 1_555 1_555
N4A C24A 1_555 1_555
N4P Ag2A 1_555 1_555
C25B N4B 1_555 1_555
C25A N4A 1_555 1_555
H17B C25B 1_555 1_555
H17A C25A 1_555 1_555
C26B C22B 1_555 1_555
C26A C22A 1_555 1_555
H18B C26B 1_555 1_555
H18A C26A 1_555 1_555
Ag3K N6 1_555 1_555
Ag3I N5I 1_555 1_555
Ag3B N5B 1_555 1_555
Ag3J N6A 1_555 1_555
Ag3A N5A 1_555 1_555
O5A Al3 1_555 1_555
O5B Al3 1_555 1_555
C27A C28 1_555 1_555
C27B O5B 1_555 1_555
O6A Al3 1_555 1_555
O6B Al3 1_555 1_555
C28A C27B 1_555 1_555
C28B C27 1_555 1_555
H19A C28A 1_555 1_555
H19B C28B 1_555 1_555
C29A O6A 1_555 1_555
C29B C35 1_555 1_555
C30B C34 1_555 1_555
C30A C27A 1_555 1_555
C31B C30B 1_555 1_555
C31A C30A 1_555 1_555
H20B C31A 1_555 1_555
H20A C31 1_555 1_555
C32B C31B 1_555 1_555
C32A C31A 1_555 1_555
H21B C32A 1_555 1_555
H21A C32 1_555 1_555
N5B C33 1_555 1_555
N5A C32A 1_555 1_555
C33B N5A 1_555 1_555
C33A H22A 1_555 1_555
H22B C33B 1_555 1_555
C34B C30A 1_555 1_555
C34A C30 1_555 1_555
H23B C34B 1_555 1_555
H23A C34A 1_555 1_555
C35B C29A 1_555 1_555
C35A C29 1_555 1_555
C36B C35B 1_555 1_555
C36A C35A 1_555 1_555
H24B C36B 1_555 1_555
H24A C36A 1_555 1_555
C37B C36B 1_555 1_555
C37A C36A 1_555 1_555
H25B C37B 1_555 1_555
H25A C37A 1_555 1_555
N6Q Ag3 1_555 1_555
N6B Ag3I 1_555 1_555
N6A C37A 1_555 1_555
N6P Ag3A 1_555 1_555
C38B N6B 1_555 1_555
C38A N6A 1_555 1_555
H26B C38B 1_555 1_555
H26A C38A 1_555 1_555
C39B C35B 1_555 1_555
C39A C35A 1_555 1_555
H27B C39B 1_555 1_555
H27A C39A 1_555 1_555
C2 C3 1_555 1_555
C12 C13 1_555 1_555
C15 C16 1_555 1_555
C25 C26 1_555 1_555
C28 C29 1_555 1_555
C38 C39 1_555 1_555
O1A C1A 1_555 1_555
C1B C4B 1_555 1_555
O2B C3B 1_555 1_555
C2A C3A 1_555 1_555
C2B C3B 1_555 1_555
C6B N1B 1_555 1_555
C7B C8B 1_555 1_555
C7A C8A 1_555 1_555
C11B N2B 1_555 1_555
C12B C13B 1_555 1_555
C12A C13A 1_555 1_555
O3A C14A 1_555 1_555
C14B C17B 1_555 1_555
O4B C16B 1_555 1_555
C15A C16A 1_555 1_555
C15B C16B 1_555 1_555
C19B N3B 1_555 1_555
C20B C21B 1_555 1_555
C20A C21A 1_555 1_555
C24B N4B 1_555 1_555
C25B C26B 1_555 1_555
C25A C26A 1_555 1_555
O5A C27A 1_555 1_555
C27B C30B 1_555 1_555
O6B C29B 1_555 1_555
C28A C29A 1_555 1_555
C28B C29B 1_555 1_555
C32B N5B 1_555 1_555
C33B C34B 1_555 1_555
C33A C34A 1_555 1_555
C37B N6B 1_555 1_555
C38B C39B 1_555 1_555
C38A C39A 1_555 1_555

#END
