
#######################################################################
#
#                 Cambridge Crystallographic Data Centre
#                                CCDC 
#
#######################################################################
#
# If this CIF has been generated from an entry in the Cambridge 
# Structural Database, then it will include bibliographic, chemical, 
# crystal, experimental, refinement or atomic coordinate data resulting 
# from the CCDC's data processing and validation procedures.
#
#######################################################################

data_YUXMUZ
_symmetry_cell_setting           orthorhombic
_symmetry_space_group_name_H-M   'P n a 21'
_symmetry_Int_Tables_number      33
_space_group_name_Hall           'P 2c -2n'
loop_
_symmetry_equiv_pos_site_id
_symmetry_equiv_pos_as_xyz
1 x,y,z
2 -x,-y,1/2+z
3 1/2-x,1/2+y,1/2+z
4 1/2+x,1/2-y,z
_cell_length_a                   11.154(2)
_cell_length_b                   7.792(2)
_cell_length_c                   12.375(2)
_cell_angle_alpha                90
_cell_angle_beta                 90
_cell_angle_gamma                90
_cell_volume                     1075.54
loop_
_atom_site_label
_atom_site_type_symbol
_atom_site_fract_x
_atom_site_fract_y
_atom_site_fract_z
Ag1 Ag 0.20124(3) 0.85045(5) 0.5000
C1 C 0.2738(6) 0.5701(9) 0.5343(4)
C2 C 0.2855(6) 0.5891(9) 0.4265(5)
C3 C 0.4028(5) 0.6326(7) 0.3756(4)
C4 C 0.5212(5) 0.3546(7) 0.3982(4)
C5 C 0.6526(5) 0.3802(7) 0.4055(4)
C6 C 0.7205(5) 0.4787(8) 0.3392(5)
C7 C 0.4358(5) 0.4402(7) 0.2281(4)
N1 N 0.4594(4) 0.4789(6) 0.3281(3)
N2 N 0.4166(5) 0.4080(6) 0.1384(4)
H1 H 0.202(6) 0.536(8) 0.560(5)
H2 H 0.326(5) 0.594(7) 0.589(4)
H3 H 0.216(5) 0.561(8) 0.390(5)
H4 H 0.382(6) 0.712(9) 0.322(6)
H5 H 0.482(6) 0.647(8) 0.406(5)
H6 H 0.485(4) 0.356(6) 0.472(4)
H7 H 0.493(3) 0.223(5) 0.368(3)
H8 H 0.685(6) 0.309(8) 0.459(5)
H9 H 0.807(4) 0.479(5) 0.339(3)
H10 H 0.681(6) 0.536(9) 0.281(5)
N2B N 0.0834(5) 0.9080(6) 0.6384(4)
C5C C 0.1526(5) 1.1198(7) 0.4055(4)
Ag1B Ag 0.29876(3) 0.35045(5) 0.0000
Ag1C Ag 0.70124(3) 0.64955(5) 0.5000
C6C C 0.2205(5) 1.0213(8) 0.3392(5)
H8C H 0.185(6) 1.191(8) 0.459(5)
H9C H 0.307(4) 1.021(5) 0.339(3)
H10C H 0.181(6) 0.964(9) 0.281(5)
Cl1 Cl 0.4298(1) 0.0605(2) 0.6473(1)
O1 O 0.4289(6) -0.0225(8) 0.5470(4)
O2 O 0.3467(6) 0.1939(7) 0.6522(5)
O3 O 0.4121(10) -0.0465(11) 0.7289(7)
O4 O 0.5426(5) 0.1277(13) 0.6581(7)
loop_
_geom_bond_atom_site_label_1
_geom_bond_atom_site_label_2
_geom_bond_site_symmetry_1
_geom_bond_site_symmetry_2
Ag1 C1 1_555 1_555
Cl1 O1 1_555 1_555
O2 Cl1 1_555 1_555
O3 Cl1 1_555 1_555
O4 Cl1 1_555 1_555
C1 C2 1_555 1_555
C2 Ag1 1_555 1_555
C3 C2 1_555 1_555
C4 C5 1_555 1_555
C5 C6 1_555 1_555
C6 H9 1_555 1_555
C7 N1 1_555 1_555
N1 C3 1_555 1_555
N2 C7 1_555 1_555
H1 C1 1_555 1_555
H2 C1 1_555 1_555
H3 C2 1_555 1_555
H4 C3 1_555 1_555
H5 C3 1_555 1_555
H6 C4 1_555 1_555
H7 C4 1_555 1_555
H8 C5 1_555 1_555
H10 C6 1_555 1_555
N2B Ag1 1_555 1_555
C5C Ag1 1_555 1_555
Ag1B N2 1_555 1_555
Ag1C C5 1_555 1_555
C6C Ag1 1_555 1_555
H8C C5C 1_555 1_555
H9C C6C 1_555 1_555
H10C C6C 1_555 1_555
C4 N1 1_555 1_555
C6 Ag1C 1_555 1_555
C5C C6C 1_555 1_555

#END
