
#######################################################################
#
#                 Cambridge Crystallographic Data Centre
#                                CCDC 
#
#######################################################################
#
# If this CIF has been generated from an entry in the Cambridge 
# Structural Database, then it will include bibliographic, chemical, 
# crystal, experimental, refinement or atomic coordinate data resulting 
# from the CCDC's data processing and validation procedures.
#
#######################################################################

data_YUXTOB
_symmetry_cell_setting           orthorhombic
_symmetry_space_group_name_H-M   'P 21 21 21'
_symmetry_Int_Tables_number      19
_space_group_name_Hall           'P 2ac 2ab'
loop_
_symmetry_equiv_pos_site_id
_symmetry_equiv_pos_as_xyz
1 x,y,z
2 1/2-x,-y,1/2+z
3 -x,1/2+y,1/2-z
4 1/2+x,1/2-y,-z
_cell_length_a                   4.0598(10)
_cell_length_b                   14.261(4)
_cell_length_c                   14.307(4)
_cell_angle_alpha                90
_cell_angle_beta                 90
_cell_angle_gamma                90
_cell_volume                     828.33
loop_
_atom_site_label
_atom_site_type_symbol
_atom_site_fract_x
_atom_site_fract_y
_atom_site_fract_z
Ag1 Ag 0.70849(9) -0.69606(2) 0.42434(3)
Cl1 Cl 0.6718(3) -0.69693(8) 0.61977(7)
N1 N 0.4763(10) -0.5528(2) 0.4055(3)
C1 C 0.4738(13) -0.5063(3) 0.3221(3)
C2 C 0.3258(13) -0.4188(3) 0.3126(3)
H1 H 0.3248 -0.3887 0.2534
C3 C 0.1795(13) -0.3749(3) 0.3888(3)
C4 C 0.1761(13) -0.4232(3) 0.4731(3)
H2 H 0.0708 -0.3971 0.5264
C5 C 0.3292(13) -0.5105(3) 0.4785(3)
H3 H 0.3298 -0.5419 0.5371
C6 C 0.6282(13) -0.5562(3) 0.2393(3)
H4 H 0.8396 -0.5835 0.2582
H5 H 0.6642 -0.5113 0.1885
H6 H 0.4806 -0.6061 0.2178
C7 C 0.0237(14) -0.2787(3) 0.3788(3)
H7 H -0.1627 -0.2733 0.4220
H8 H -0.0541 -0.2703 0.3145
H9 H 0.1874 -0.2304 0.3934
Ag1C Ag 1.20849(9) -0.80394(2) 0.57566(3)
Ag1C_2 Ag 0.20849(9) -0.80394(2) 0.57566(3)
Cl1C Cl 1.1718(3) -0.80307(8) 0.38023(7)
Cl1C_2 Cl 0.1718(3) -0.80307(8) 0.38023(7)
loop_
_geom_bond_atom_site_label_1
_geom_bond_atom_site_label_2
_geom_bond_site_symmetry_1
_geom_bond_site_symmetry_2
Ag1 Cl1 1_555 1_555
Cl1 Ag1C 1_555 1_555
N1 Ag1 1_555 1_555
C1 N1 1_555 1_555
C2 C1 1_555 1_555
H1 C2 1_555 1_555
C3 C2 1_555 1_555
C4 C3 1_555 1_555
H2 C4 1_555 1_555
C5 N1 1_555 1_555
H3 C5 1_555 1_555
C6 C1 1_555 1_555
H4 C6 1_555 1_555
H5 C6 1_555 1_555
H6 C6 1_555 1_555
C7 C3 1_555 1_555
H7 C7 1_555 1_555
H8 C7 1_555 1_555
H9 C7 1_555 1_555
Ag1C Cl1C 1_555 1_555
Ag1C_2 Cl1 1_555 1_555
Cl1C Ag1 1_555 1_555
Cl1C_2 Ag1 1_555 1_555
C4 C5 1_555 1_555
Ag1C_2 Cl1C_2 1_555 1_555

#END
