
#######################################################################
#
#                 Cambridge Crystallographic Data Centre
#                                CCDC 
#
#######################################################################
#
# If this CIF has been generated from an entry in the Cambridge 
# Structural Database, then it will include bibliographic, chemical, 
# crystal, experimental, refinement or atomic coordinate data resulting 
# from the CCDC's data processing and validation procedures.
#
#######################################################################

data_YUXTIV
_symmetry_cell_setting           orthorhombic
_symmetry_space_group_name_H-M   'P 21 21 21'
_symmetry_Int_Tables_number      19
_space_group_name_Hall           'P 2ac 2ab'
loop_
_symmetry_equiv_pos_site_id
_symmetry_equiv_pos_as_xyz
1 x,y,z
2 1/2-x,-y,1/2+z
3 -x,1/2+y,1/2-z
4 1/2+x,1/2-y,-z
_cell_length_a                   4.4293(3)
_cell_length_b                   9.5095(7)
_cell_length_c                   19.0331(14)
_cell_angle_alpha                90
_cell_angle_beta                 90
_cell_angle_gamma                90
_cell_volume                     801.682
loop_
_atom_site_label
_atom_site_type_symbol
_atom_site_fract_x
_atom_site_fract_y
_atom_site_fract_z
I1 I 0.90200(6) 0.62906(2) 0.097098(11)
Ag1 Ag 0.90969(8) 0.85904(3) -0.003989(14)
N1 N 0.7978(8) 1.0409(4) 0.07275(17)
C1 C 0.6042(10) 1.1448(4) 0.05711(18)
H1 H 0.5241 1.1488 0.0109
C2 C 0.5153(10) 1.2464(4) 0.1049(2)
H2 H 0.3805 1.3189 0.0908
C3 C 0.6245(11) 1.2423(4) 0.17392(19)
C4 C 0.8283(10) 1.1348(5) 0.1895(2)
H3 H 0.9109 1.1276 0.2354
C5 C 0.9106(13) 1.0386(4) 0.1385(2)
H4 H 1.0531 0.9678 0.1503
C6 C 0.5265(12) 1.3473(4) 0.2278(2)
H5 H 0.4958 1.2999 0.2729
H6 H 0.3370 1.3913 0.2127
H7 H 0.6824 1.4197 0.2329
I1C I 1.40200(6) 0.87094(2) -0.097098(11)
I1C_2 I 0.40200(6) 0.87094(2) -0.097098(11)
Ag1C Ag 0.40969(8) 0.64096(3) 0.003989(14)
Ag1C_2 Ag 1.40969(8) 0.64096(3) 0.003989(14)
loop_
_geom_bond_atom_site_label_1
_geom_bond_atom_site_label_2
_geom_bond_site_symmetry_1
_geom_bond_site_symmetry_2
I1 Ag1 1_555 1_555
Ag1 N1 1_555 1_555
N1 C1 1_555 1_555
C1 H1 1_555 1_555
C2 C1 1_555 1_555
H2 C2 1_555 1_555
C3 C2 1_555 1_555
C4 C3 1_555 1_555
H3 C4 1_555 1_555
C5 N1 1_555 1_555
H4 C5 1_555 1_555
C6 C3 1_555 1_555
H5 C6 1_555 1_555
H6 C6 1_555 1_555
H7 C6 1_555 1_555
I1C Ag1 1_555 1_555
I1C_2 Ag1 1_555 1_555
Ag1C I1 1_555 1_555
Ag1C_2 I1 1_555 1_555
C4 C5 1_555 1_555
I1C Ag1C_2 1_555 1_555
I1C_2 Ag1C 1_555 1_555

#END
