
#######################################################################
#
#                 Cambridge Crystallographic Data Centre
#                                CCDC 
#
#######################################################################
#
# If this CIF has been generated from an entry in the Cambridge 
# Structural Database, then it will include bibliographic, chemical, 
# crystal, experimental, refinement or atomic coordinate data resulting 
# from the CCDC's data processing and validation procedures.
#
#######################################################################

data_YUXVAP
_symmetry_cell_setting           monoclinic
_symmetry_space_group_name_H-M   'P 21/c'
_symmetry_Int_Tables_number      14
_space_group_name_Hall           '-P 2ybc'
loop_
_symmetry_equiv_pos_site_id
_symmetry_equiv_pos_as_xyz
1 x,y,z
2 -x,1/2+y,1/2-z
3 -x,-y,-z
4 x,1/2-y,1/2+z
_cell_length_a                   10.5136(8)
_cell_length_b                   7.3795(6)
_cell_length_c                   18.5925(16)
_cell_angle_alpha                90
_cell_angle_beta                 91.283(4)
_cell_angle_gamma                90
_cell_volume                     1442.14
loop_
_atom_site_label
_atom_site_type_symbol
_atom_site_fract_x
_atom_site_fract_y
_atom_site_fract_z
Ag1 Ag 0.556351(17) 0.26473(3) 0.716660(10)
Cl1 Cl 0.59659(6) -0.07932(8) 0.69321(3)
N1 N 0.44977(18) 0.3432(3) 0.61162(10)
C1 C 0.4032(2) 0.5097(3) 0.60087(12)
H1 H 0.4186 0.5976 0.6373
C2 C 0.3339(2) 0.5630(3) 0.53999(12)
C3 C 0.3141(2) 0.4348(3) 0.48565(12)
C4 C 0.3629(2) 0.2624(3) 0.49606(13)
H2 H 0.3517 0.1726 0.4598
C5 C 0.4280(2) 0.2211(3) 0.55954(13)
H3 H 0.4586 0.1011 0.5664
C6 C 0.2824(3) 0.7529(3) 0.53432(15)
H4 H 0.1892 0.7492 0.5336
H5 H 0.3118 0.8091 0.4899
H6 H 0.3127 0.8240 0.5758
C7 C 0.2431(2) 0.4831(4) 0.41709(13)
H7 H 0.2511 0.3840 0.3824
H8 H 0.2789 0.5942 0.3970
H9 H 0.1531 0.5024 0.4273
N2 N 0.75178(18) 0.3557(3) 0.76423(10)
C8 C 0.7708(2) 0.5227(3) 0.78884(13)
H10 H 0.7084 0.6118 0.7773
C9 C 0.8760(2) 0.5759(3) 0.83040(13)
C10 C 0.9682(2) 0.4449(3) 0.84688(13)
C11 C 0.9500(2) 0.2728(3) 0.81984(15)
H11 H 1.0122 0.1818 0.8291
C12 C 0.8415(2) 0.2313(3) 0.77918(13)
H12 H 0.8305 0.1114 0.7615
C13 C 0.8875(3) 0.7681(3) 0.85599(18)
H13 H 0.9658 0.8216 0.8377
H14 H 0.8903 0.7704 0.9087
H15 H 0.8140 0.8380 0.8382
C14 C 1.0837(2) 0.4900(4) 0.89348(15)
H16 H 1.0565 0.5230 0.9418
H17 H 1.1294 0.5919 0.8723
H18 H 1.1400 0.3842 0.8965
Ag1A Ag 0.443649(17) -0.23527(3) 0.783340(10)
Cl1A Cl 0.40341(6) 0.42068(8) 0.80679(3)
loop_
_geom_bond_atom_site_label_1
_geom_bond_atom_site_label_2
_geom_bond_site_symmetry_1
_geom_bond_site_symmetry_2
Ag1 Cl1 1_555 1_555
Cl1 Ag1A 1_555 1_555
N1 Ag1 1_555 1_555
C1 N1 1_555 1_555
H1 C1 1_555 1_555
C2 C1 1_555 1_555
C3 C2 1_555 1_555
C4 C3 1_555 1_555
H2 C4 1_555 1_555
C5 N1 1_555 1_555
H3 C5 1_555 1_555
C6 C2 1_555 1_555
H4 C6 1_555 1_555
H5 C6 1_555 1_555
H6 C6 1_555 1_555
C7 C3 1_555 1_555
H7 C7 1_555 1_555
H8 C7 1_555 1_555
H9 C7 1_555 1_555
N2 Ag1 1_555 1_555
C8 N2 1_555 1_555
H10 C8 1_555 1_555
C9 C8 1_555 1_555
C10 C9 1_555 1_555
C11 C10 1_555 1_555
H11 C11 1_555 1_555
C12 N2 1_555 1_555
H12 C12 1_555 1_555
C13 C9 1_555 1_555
H13 C13 1_555 1_555
H14 C13 1_555 1_555
H15 C13 1_555 1_555
C14 C10 1_555 1_555
H16 C14 1_555 1_555
H17 C14 1_555 1_555
H18 C14 1_555 1_555
Cl1A Ag1 1_555 1_555
C4 C5 1_555 1_555
C11 C12 1_555 1_555

#END
