
#######################################################################
#
#                 Cambridge Crystallographic Data Centre
#                                CCDC 
#
#######################################################################
#
# If this CIF has been generated from an entry in the Cambridge 
# Structural Database, then it will include bibliographic, chemical, 
# crystal, experimental, refinement or atomic coordinate data resulting 
# from the CCDC's data processing and validation procedures.
#
#######################################################################

data_YUXVET
_symmetry_cell_setting           monoclinic
_symmetry_space_group_name_H-M   'P 21/c'
_symmetry_Int_Tables_number      14
_space_group_name_Hall           '-P 2ybc'
loop_
_symmetry_equiv_pos_site_id
_symmetry_equiv_pos_as_xyz
1 x,y,z
2 -x,1/2+y,1/2-z
3 -x,-y,-z
4 x,1/2-y,1/2+z
_cell_length_a                   4.5202(4)
_cell_length_b                   10.4992(10)
_cell_length_c                   19.0080(16)
_cell_angle_alpha                90
_cell_angle_beta                 94.837(4)
_cell_angle_gamma                90
_cell_volume                     898.878
loop_
_atom_site_label
_atom_site_type_symbol
_atom_site_fract_x
_atom_site_fract_y
_atom_site_fract_z
I1 I -0.30054(3) -0.121460(13) 0.408710(7)
Ag1 Ag -0.24063(4) 0.098830(16) 0.500900(9)
N1 N -0.1832(4) 0.25726(18) 0.41789(10)
C1 C 0.0046(5) 0.3550(2) 0.42999(12)
H1 H 0.1122 0.3602 0.4750
C2 C 0.0525(5) 0.4497(2) 0.38081(12)
C3 C -0.1016(5) 0.4408(2) 0.31420(12)
C4 C -0.2943(6) 0.3396(2) 0.30100(13)
H2 H -0.4007 0.3306 0.2560
C5 C -0.3313(6) 0.2511(2) 0.35385(12)
H3 H -0.4676 0.1832 0.3442
C6 C -0.0609(7) 0.5399(3) 0.25851(14)
H4 H -0.1811 0.5173 0.2150
H5 H 0.1489 0.5438 0.2492
H6 H -0.1239 0.6232 0.2751
C7 C 0.2626(6) 0.5571(2) 0.40042(14)
H7 H 0.3536 0.5440 0.4485
H8 H 0.1536 0.6378 0.3981
H9 H 0.4179 0.5595 0.3674
I1B I -0.69946(3) 0.121460(13) 0.591290(7)
I1B_2 I 0.30054(3) 0.121460(13) 0.591290(7)
Ag1B Ag 0.24063(4) -0.098830(16) 0.499100(9)
Ag1B_2 Ag -0.75937(4) -0.098830(16) 0.499100(9)
loop_
_geom_bond_atom_site_label_1
_geom_bond_atom_site_label_2
_geom_bond_site_symmetry_1
_geom_bond_site_symmetry_2
I1 Ag1 1_555 1_555
Ag1 N1 1_555 1_555
N1 C1 1_555 1_555
C1 H1 1_555 1_555
C2 C1 1_555 1_555
C3 C2 1_555 1_555
C4 C3 1_555 1_555
H2 C4 1_555 1_555
C5 N1 1_555 1_555
H3 C5 1_555 1_555
C6 C3 1_555 1_555
H4 C6 1_555 1_555
H5 C6 1_555 1_555
H6 C6 1_555 1_555
C7 C2 1_555 1_555
H7 C7 1_555 1_555
H8 C7 1_555 1_555
H9 C7 1_555 1_555
I1B Ag1 1_555 1_555
I1B_2 Ag1 1_555 1_555
Ag1B I1 1_555 1_555
Ag1B_2 I1 1_555 1_555
C4 C5 1_555 1_555
I1B Ag1B_2 1_555 1_555
I1B_2 Ag1B 1_555 1_555

#END
