
#######################################################################
#
#                 Cambridge Crystallographic Data Centre
#                                CCDC 
#
#######################################################################
#
# If this CIF has been generated from an entry in the Cambridge 
# Structural Database, then it will include bibliographic, chemical, 
# crystal, experimental, refinement or atomic coordinate data resulting 
# from the CCDC's data processing and validation procedures.
#
#######################################################################

data_YUXVIX
_symmetry_cell_setting           monoclinic
_symmetry_space_group_name_H-M   'C 2/c'
_symmetry_Int_Tables_number      15
_space_group_name_Hall           '-C 2yn'
loop_
_symmetry_equiv_pos_site_id
_symmetry_equiv_pos_as_xyz
1 x,y,z
2 -x,y,1/2-z
3 1/2+x,1/2+y,z
4 1/2-x,1/2+y,1/2-z
5 -x,-y,-z
6 x,-y,1/2+z
7 1/2-x,1/2-y,-z
8 1/2+x,1/2-y,1/2+z
_cell_length_a                   13.6109(7)
_cell_length_b                   15.3796(7)
_cell_length_c                   8.1799(4)
_cell_angle_alpha                90
_cell_angle_beta                 103.470(1)
_cell_angle_gamma                90
_cell_volume                     1665.2
loop_
_atom_site_label
_atom_site_type_symbol
_atom_site_fract_x
_atom_site_fract_y
_atom_site_fract_z
Cl1 Cl -0.13499(6) 0.04887(5) 0.55606(10)
Ag1 Ag 0.06878(2) 0.064623(15) 0.62528(3)
N1 N 0.10090(17) 0.19831(14) 0.5303(3)
C1 C 0.11684(19) 0.20701(16) 0.3760(3)
H1 H 0.1129 0.1565 0.3080
C2 C 0.1389(2) 0.28583(17) 0.3096(3)
C3 C 0.1457(2) 0.35809(17) 0.4133(4)
H2 H 0.1623 0.4130 0.3739
C4 C 0.1286(2) 0.35126(17) 0.5734(3)
C5 C 0.1067(2) 0.26988(18) 0.6264(3)
H3 H 0.0952 0.2642 0.7361
C6 C 0.1546(2) 0.2916(2) 0.1337(4)
H4 H 0.0975 0.3222 0.0617
H5 H 0.1595 0.2329 0.0897
H6 H 0.2172 0.3235 0.1354
C7 C 0.1365(3) 0.4298(2) 0.6868(5)
H7 H 0.0832 0.4715 0.6381
H8 H 0.2027 0.4572 0.6981
H9 H 0.1285 0.4116 0.7979
Cl1A Cl 0.13499(6) 0.04887(5) 0.94394(10)
Cl1D Cl 0.13499(6) -0.04887(5) 0.44394(10)
Ag1A Ag -0.06878(2) 0.064623(15) 0.87472(3)
Ag1D Ag -0.06878(2) -0.064623(15) 0.37472(3)
loop_
_geom_bond_atom_site_label_1
_geom_bond_atom_site_label_2
_geom_bond_site_symmetry_1
_geom_bond_site_symmetry_2
Cl1 Ag1 1_555 1_555
Ag1 N1 1_555 1_555
N1 C1 1_555 1_555
C1 H1 1_555 1_555
C2 C1 1_555 1_555
C3 C2 1_555 1_555
H2 C3 1_555 1_555
C4 C3 1_555 1_555
C5 N1 1_555 1_555
H3 C5 1_555 1_555
C6 C2 1_555 1_555
H4 C6 1_555 1_555
H5 C6 1_555 1_555
H6 C6 1_555 1_555
C7 C4 1_555 1_555
H7 C7 1_555 1_555
H8 C7 1_555 1_555
H9 C7 1_555 1_555
Cl1A Ag1 1_555 1_555
Cl1D Ag1 1_555 1_555
Ag1A Cl1 1_555 1_555
Ag1D Cl1 1_555 1_555
C4 C5 1_555 1_555
Cl1A Ag1A 1_555 1_555
Cl1D Ag1D 1_555 1_555

#END
