
#######################################################################
#
#                 Cambridge Crystallographic Data Centre
#                                CCDC 
#
#######################################################################
#
# If this CIF has been generated from an entry in the Cambridge 
# Structural Database, then it will include bibliographic, chemical, 
# crystal, experimental, refinement or atomic coordinate data resulting 
# from the CCDC's data processing and validation procedures.
#
#######################################################################

data_YUXWUK
_symmetry_cell_setting           monoclinic
_symmetry_space_group_name_H-M   'C 2/c'
_symmetry_Int_Tables_number      15
_space_group_name_Hall           '-C 2yn'
loop_
_symmetry_equiv_pos_site_id
_symmetry_equiv_pos_as_xyz
1 x,y,z
2 -x,y,1/2-z
3 1/2+x,1/2+y,z
4 1/2-x,1/2+y,1/2-z
5 -x,-y,-z
6 x,-y,1/2+z
7 1/2-x,1/2-y,-z
8 1/2+x,1/2-y,1/2+z
_cell_length_a                   23.2232(18)
_cell_length_b                   6.2683(4)
_cell_length_c                   16.6273(12)
_cell_angle_alpha                90
_cell_angle_beta                 111.946(4)
_cell_angle_gamma                90
_cell_volume                     2245.04
loop_
_atom_site_label
_atom_site_type_symbol
_atom_site_fract_x
_atom_site_fract_y
_atom_site_fract_z
Ag1 Ag 0.178378(5) 0.112415(18) 0.236610(7)
Cl1 Cl 0.246166(15) 0.42614(6) 0.33117(2)
N1 N 0.17443(6) -0.1178(2) 0.34520(8)
H1 H 0.1995(9) -0.214(3) 0.3428(12)
C1 C 0.11612(7) -0.2257(2) 0.33783(10)
H2 H 0.1251 -0.3398 0.3820
H3 H 0.0970 -0.2922 0.2799
C2 C 0.07153(7) -0.0658(3) 0.35093(10)
H4 H 0.0603 0.0417 0.3039
H5 H 0.0331 -0.1403 0.3473
O1 O 0.09769(5) 0.03979(18) 0.43268(6)
C3 C 0.15455(6) 0.1436(2) 0.44007(9)
H6 H 0.1725 0.2152 0.4971
H7 H 0.1458 0.2541 0.3945
C4 C 0.20068(7) -0.0145(2) 0.43096(9)
H8 H 0.2397 0.0597 0.4371
H9 H 0.2102 -0.1237 0.4771
N2 N 0.10865(6) 0.2146(2) 0.09997(8)
H10 H 0.1140(9) 0.127(3) 0.0700(13)
C5 C 0.12246(8) 0.4261(2) 0.07245(10)
H11 H 0.0961 0.4509 0.0108
H12 H 0.1665 0.4322 0.0784
C6 C 0.11002(7) 0.5960(2) 0.12840(10)
H13 H 0.1384 0.5752 0.1894
H14 H 0.1186 0.7382 0.1095
O2 O 0.04689(5) 0.58889(17) 0.12308(7)
C7 C 0.03189(7) 0.3822(2) 0.14595(10)
H15 H -0.0122 0.3800 0.1397
H16 H 0.0577 0.3528 0.2074
C8 C 0.04268(7) 0.2100(3) 0.08973(10)
H17 H 0.0322 0.0688 0.1073
H18 H 0.0159 0.2347 0.0283
Ag1C Ag 0.321622(5) 0.612415(18) 0.263390(7)
Cl1C Cl 0.253834(15) -0.07386(6) 0.16883(2)
loop_
_geom_bond_atom_site_label_1
_geom_bond_atom_site_label_2
_geom_bond_site_symmetry_1
_geom_bond_site_symmetry_2
Ag1 Cl1 1_555 1_555
Cl1 Ag1C 1_555 1_555
N1 Ag1 1_555 1_555
H1 N1 1_555 1_555
C1 N1 1_555 1_555
H2 C1 1_555 1_555
H3 C1 1_555 1_555
C2 C1 1_555 1_555
H4 C2 1_555 1_555
H5 C2 1_555 1_555
O1 C2 1_555 1_555
C3 O1 1_555 1_555
H6 C3 1_555 1_555
H7 C3 1_555 1_555
C4 N1 1_555 1_555
H8 C4 1_555 1_555
H9 C4 1_555 1_555
N2 Ag1 1_555 1_555
H10 N2 1_555 1_555
C5 N2 1_555 1_555
H11 C5 1_555 1_555
H12 C5 1_555 1_555
C6 C5 1_555 1_555
H13 C6 1_555 1_555
H14 C6 1_555 1_555
O2 C6 1_555 1_555
C7 O2 1_555 1_555
H15 C7 1_555 1_555
H16 C7 1_555 1_555
C8 N2 1_555 1_555
H17 C8 1_555 1_555
H18 C8 1_555 1_555
Cl1C Ag1 1_555 1_555
C3 C4 1_555 1_555
C7 C8 1_555 1_555

#END
