
#######################################################################
#
#                 Cambridge Crystallographic Data Centre
#                                CCDC 
#
#######################################################################
#
# If this CIF has been generated from an entry in the Cambridge 
# Structural Database, then it will include bibliographic, chemical, 
# crystal, experimental, refinement or atomic coordinate data resulting 
# from the CCDC's data processing and validation procedures.
#
#######################################################################

data_YUXXIZ
_symmetry_cell_setting           monoclinic
_symmetry_space_group_name_H-M   'P 21/c'
_symmetry_Int_Tables_number      14
_space_group_name_Hall           '-P 2ybc'
loop_
_symmetry_equiv_pos_site_id
_symmetry_equiv_pos_as_xyz
1 x,y,z
2 -x,1/2+y,1/2-z
3 -x,-y,-z
4 x,1/2-y,1/2+z
_cell_length_a                   17.1293(10)
_cell_length_b                   6.3166(4)
_cell_length_c                   8.8274(5)
_cell_angle_alpha                90
_cell_angle_beta                 103.693(1)
_cell_angle_gamma                90
_cell_volume                     927.969
loop_
_atom_site_label
_atom_site_type_symbol
_atom_site_fract_x
_atom_site_fract_y
_atom_site_fract_z
Ag1 Ag 0.481404(11) 0.70138(4) 0.39191(2)
Br1 Br 0.423598(13) 0.29534(4) 0.29114(2)
N1 N 0.37182(13) 0.8344(3) 0.4606(2)
H1 H 0.3895(16) 0.918(5) 0.539(3)
H2 H 0.3471(17) 0.902(5) 0.385(3)
C1 C 0.19289(15) 0.9128(4) 0.4438(3)
C2 C 0.12315(16) 0.8162(5) 0.3569(3)
H3 H 0.1094 0.6778 0.3837
C3 C 0.07366(17) 0.9207(6) 0.2315(3)
H4 H 0.0261 0.8541 0.1738
C4 C 0.09360(18) 1.1218(6) 0.1906(3)
H5 H 0.0606 1.1913 0.1032
C5 C 0.16158(18) 1.2216(5) 0.2770(3)
H6 H 0.1748 1.3605 0.2501
C6 C 0.21064(16) 1.1175(5) 0.4038(3)
H7 H 0.2569 1.1873 0.4637
C7 C 0.24990(15) 0.7942(5) 0.5732(3)
H8 H 0.2194 0.6856 0.6160
H9 H 0.2730 0.8944 0.6582
C8 C 0.31856(15) 0.6860(4) 0.5181(3)
H10 H 0.3513 0.6033 0.6057
H11 H 0.2952 0.5853 0.4336
Ag1A Ag 0.518596(11) 0.20138(4) 0.10809(2)
Ag1B Ag 0.518596(11) 0.29862(4) 0.60809(2)
Br1A Br 0.576402(13) 0.79534(4) 0.20886(2)
Br1B Br 0.576402(13) 0.70466(4) 0.70886(2)
loop_
_geom_bond_atom_site_label_1
_geom_bond_atom_site_label_2
_geom_bond_site_symmetry_1
_geom_bond_site_symmetry_2
Ag1 Br1 1_555 1_555
Br1 Ag1A 1_555 1_555
N1 Ag1 1_555 1_555
H1 N1 1_555 1_555
H2 N1 1_555 1_555
C1 C2 1_555 1_555
C2 H3 1_555 1_555
C3 C2 1_555 1_555
H4 C3 1_555 1_555
C4 C3 1_555 1_555
H5 C4 1_555 1_555
C5 C4 1_555 1_555
H6 C5 1_555 1_555
C6 C1 1_555 1_555
H7 C6 1_555 1_555
C7 C1 1_555 1_555
H8 C7 1_555 1_555
H9 C7 1_555 1_555
C8 N1 1_555 1_555
H10 C8 1_555 1_555
H11 C8 1_555 1_555
Ag1B Br1 1_555 1_555
Br1A Ag1 1_555 1_555
Br1B Ag1 1_555 1_555
C5 C6 1_555 1_555
C7 C8 1_555 1_555
Ag1B Br1B 1_555 1_555

#END
