
#######################################################################
#
#                 Cambridge Crystallographic Data Centre
#                                CCDC 
#
#######################################################################
#
# If this CIF has been generated from an entry in the Cambridge 
# Structural Database, then it will include bibliographic, chemical, 
# crystal, experimental, refinement or atomic coordinate data resulting 
# from the CCDC's data processing and validation procedures.
#
#######################################################################

data_YUYBUQ
_symmetry_cell_setting           monoclinic
_symmetry_space_group_name_H-M   'P 21/n'
_symmetry_Int_Tables_number      14
_space_group_name_Hall           '-P 2yn'
loop_
_symmetry_equiv_pos_site_id
_symmetry_equiv_pos_as_xyz
1 x,y,z
2 1/2-x,1/2+y,1/2-z
3 -x,-y,-z
4 1/2+x,1/2-y,1/2+z
_cell_length_a                   7.886(4)
_cell_length_b                   18.817(8)
_cell_length_c                   13.457(6)
_cell_angle_alpha                90
_cell_angle_beta                 94.001(7)
_cell_angle_gamma                90
_cell_volume                     1992.03
loop_
_atom_site_label
_atom_site_type_symbol
_atom_site_fract_x
_atom_site_fract_y
_atom_site_fract_z
O1 O 0.0392(4) 0.34918(17) 0.4017(2)
Cu1 Cu 0.11476(6) 0.40795(2) 0.29676(3)
O2 O 0.4969(4) 0.15204(15) 0.6946(2)
N1 N 0.2183(4) 0.47146(18) 0.1982(2)
N2 N 0.2181(4) 0.47993(19) 0.3925(2)
C1 C 0.2446(5) 0.21747(19) 0.5640(3)
H1 H 0.3560 0.2220 0.5462
C2 C 0.2086(5) 0.1711(2) 0.6394(3)
C3 C 0.3458(6) 0.1279(2) 0.6926(3)
C4 C 0.1174(5) 0.2572(2) 0.5147(3)
C5 C 0.2944(5) 0.5336(2) 0.3474(4)
C6 C 0.2944(5) 0.5291(2) 0.2414(3)
C7 C 0.0402(6) 0.1647(2) 0.6643(3)
H2 H 0.0138 0.1333 0.7143
C8 C -0.0483(6) 0.2505(2) 0.5416(3)
H3 H -0.1341 0.2776 0.5092
C9 C 0.2129(6) 0.4663(3) 0.1001(3)
H4 H 0.1574 0.4278 0.0690
C10 C 0.3637(8) 0.5916(4) 0.5025(6)
H5 H 0.4121 0.6287 0.5403
C11 C 0.3699(6) 0.5829(3) 0.1864(5)
C12 C 0.2892(8) 0.5176(4) 0.0418(4)
H6 H 0.2854 0.5123 -0.0271
C13 C 0.3698(6) 0.5922(3) 0.3979(5)
C14 C 0.2159(6) 0.4822(3) 0.4919(3)
H7 H 0.1641 0.4455 0.5246
C15 C 0.2891(8) 0.5381(4) 0.5475(5)
H8 H 0.2859 0.5381 0.6164
C16 C -0.0867(6) 0.2041(2) 0.6160(4)
H9 H -0.1982 0.1995 0.6334
C17 C 0.3673(8) 0.5739(4) 0.0850(6)
H10 H 0.4199 0.6071 0.0462
C18 C 0.4403(9) 0.6465(4) 0.3397(9)
H11 H 0.4884 0.6863 0.3716
C19 C 0.4393(9) 0.6420(4) 0.2410(8)
H12 H 0.4860 0.6791 0.2063
O3 O 0.2997(4) 0.30668(17) 0.3981(2)
C20 C 0.1577(6) 0.3066(2) 0.4316(3)
O4 O 0.3099(4) 0.07097(15) 0.7335(2)
Cu1C Cu 0.61476(6) 0.09205(2) 0.79676(3)
O2C O -0.0031(4) 0.34796(15) 0.1946(2)
C21 C 0.651(2) 0.0916(8) 0.3196(15)
H13 H 0.7635 0.0947 0.3509
H14 H 0.6517 0.0626 0.2610
H15 H 0.5762 0.0708 0.3651
O5 O 0.5781(16) 0.1878(9) 0.3964(9)
H16 H 0.4792 0.1847 0.4111
C22 C 0.5921(18) 0.1603(11) 0.2929(13)
H17 H 0.4832 0.1594 0.2547
H18 H 0.6739 0.1868 0.2570
loop_
_geom_bond_atom_site_label_1
_geom_bond_atom_site_label_2
_geom_bond_site_symmetry_1
_geom_bond_site_symmetry_2
O1 Cu1 1_555 1_555
Cu1 N1 1_555 1_555
O2 C3 1_555 1_555
N1 C6 1_555 1_555
N2 Cu1 1_555 1_555
C1 H1 1_555 1_555
C2 C1 1_555 1_555
C3 C2 1_555 1_555
C4 C1 1_555 1_555
C5 N2 1_555 1_555
C6 C5 1_555 1_555
C7 C2 1_555 1_555
H2 C7 1_555 1_555
C8 C4 1_555 1_555
H3 C8 1_555 1_555
C9 N1 1_555 1_555
H4 C9 1_555 1_555
C10 H5 1_555 1_555
C11 C6 1_555 1_555
C12 C9 1_555 1_555
H6 C12 1_555 1_555
C13 C5 1_555 1_555
C14 N2 1_555 1_555
H7 C14 1_555 1_555
C15 C10 1_555 1_555
H8 C15 1_555 1_555
C16 C7 1_555 1_555
H9 C16 1_555 1_555
C17 C11 1_555 1_555
H10 C17 1_555 1_555
C18 C13 1_555 1_555
H11 C18 1_555 1_555
C19 C11 1_555 1_555
H12 C19 1_555 1_555
O3 C20 1_555 1_555
C20 O1 1_555 1_555
O4 C3 1_555 1_555
C21 H13 1_555 1_555
H14 C21 1_555 1_555
H15 C21 1_555 1_555
O5 H16 1_555 1_555
C22 C21 1_555 1_555
H17 C22 1_555 1_555
H18 C22 1_555 1_555
Cu1C O2 1_555 1_555
O2C Cu1 1_555 1_555
C4 C20 1_555 1_555
C8 C16 1_555 1_555
C10 C13 1_555 1_555
C12 C17 1_555 1_555
C14 C15 1_555 1_555
C18 C19 1_555 1_555
O5 C22 1_555 1_555

#END
