
#######################################################################
#
#                 Cambridge Crystallographic Data Centre
#                                CCDC 
#
#######################################################################
#
# If this CIF has been generated from an entry in the Cambridge 
# Structural Database, then it will include bibliographic, chemical, 
# crystal, experimental, refinement or atomic coordinate data resulting 
# from the CCDC's data processing and validation procedures.
#
#######################################################################

data_YUYBAW
_symmetry_cell_setting           triclinic
_symmetry_space_group_name_H-M   'P -1'
_symmetry_Int_Tables_number      2
_space_group_name_Hall           '-P 1'
loop_
_symmetry_equiv_pos_site_id
_symmetry_equiv_pos_as_xyz
1 x,y,z
2 -x,-y,-z
_cell_length_a                   9.879(4)
_cell_length_b                   11.941(5)
_cell_length_c                   12.257(5)
_cell_angle_alpha                62.107(4)
_cell_angle_beta                 77.789(5)
_cell_angle_gamma                84.983(5)
_cell_volume                     1248.9
loop_
_atom_site_label
_atom_site_type_symbol
_atom_site_fract_x
_atom_site_fract_y
_atom_site_fract_z
C1 C 0.0992(3) 0.6966(3) -0.1426(3)
C2 C 0.1328(3) 0.8026(3) -0.2719(3)
C3 C 0.1969(3) 0.9095(3) -0.2889(3)
H1 H 0.2136 0.9169 -0.2206
C4 C 0.2356(3) 1.0056(3) -0.4111(3)
C5 C 0.3011(4) 1.1791(3) -0.5763(3)
H2 H 0.3369 1.2604 -0.6302
C6 C 0.2003(3) 0.9972(3) -0.5109(3)
C7 C 0.1345(4) 0.8901(3) -0.4944(3)
H3 H 0.1121 0.8849 -0.5619
C8 C 0.1042(3) 0.7928(3) -0.3741(3)
H4 H 0.0637 0.7187 -0.3603
C9 C 0.2220(3) 1.2585(3) 0.0391(3)
C10 C 0.2524(3) 1.1450(3) 0.0192(3)
C11 C 0.3298(3) 1.1577(3) -0.0950(3)
H5 H 0.3575 1.2370 -0.1615
C12 C 0.3642(3) 1.0481(3) -0.1063(3)
C13 C 0.4470(4) 0.9083(3) -0.1649(3)
H6 H 0.4938 0.8700 -0.2127
C14 C 0.3228(3) 0.9294(3) -0.0058(3)
C15 C 0.2398(4) 0.9156(3) 0.1070(3)
H7 H 0.2083 0.8365 0.1719
C16 C 0.2071(4) 1.0249(3) 0.1172(3)
H8 H 0.1530 1.0192 0.1917
C17 C 0.7906(3) 1.4765(3) -0.2730(3)
C18 C 0.7613(3) 1.4760(3) -0.3872(3)
C19 C 0.8282(4) 1.5677(3) -0.5058(3)
H9 H 0.8889 1.6257 -0.5103
C20 C 0.8059(4) 1.5732(3) -0.6149(3)
H10 H 0.8496 1.6340 -0.6934
C21 C 0.7151(3) 1.4843(3) -0.6027(3)
C22 C 0.5856(4) 1.3618(3) -0.6281(3)
H11 H 0.5444 1.3279 -0.6678
C23 C 0.6475(3) 1.3924(3) -0.4862(3)
C24 C 0.6697(3) 1.3879(3) -0.3764(3)
H12 H 0.6247 1.3279 -0.2980
C25 C 0.4954(3) 0.5594(3) -0.0631(3)
Cu1 Cu 0.45639(5) 1.16504(4) -0.38218(4)
N1 N 0.3034(3) 1.1216(3) -0.4557(3)
N2 N 0.2425(3) 1.1100(3) -0.6149(2)
H13 H 0.2332 1.1323 -0.6905
N3 N 0.4411(3) 1.0316(2) -0.2073(3)
N4 N 0.3791(3) 0.8432(3) -0.0462(3)
H14 H 0.3721 0.7620 -0.0032
N5 N 0.6716(3) 1.4628(3) -0.6906(2)
H15 H 0.6951 1.5061 -0.7710
N6 N 0.5654(3) 1.3156(3) -0.5054(2)
O1 O 0.1130(2) 0.7084(2) -0.04954(19)
O2 O 0.0639(2) 0.58745(18) -0.12689(19)
O3 O 0.2439(3) 1.3684(2) -0.0525(2)
O4 O 0.1742(2) 1.24566(19) 0.14851(18)
O5 O 0.8699(2) 1.5617(2) -0.2871(2)
O6 O 0.7354(3) 1.3950(2) -0.1651(2)
O7 O 0.6064(2) 0.6103(2) -0.13458(19)
O8 O 0.3767(2) 0.5971(2) -0.08436(19)
Sm1 Sm 0.174265(14) 0.484920(13) 0.071160(12)
C1A C -0.0992(3) 0.3034(3) 0.1426(3)
C2A C -0.1328(3) 0.1974(3) 0.2719(3)
C3A C -0.1969(3) 0.0905(3) 0.2889(3)
H1A H -0.2136 0.0831 0.2206
C4A C -0.2356(3) -0.0056(3) 0.4111(3)
C5A C -0.3011(4) -0.1791(3) 0.5763(3)
H2A H -0.3369 -0.2604 0.6302
C6A C -0.2003(3) 0.0028(3) 0.5109(3)
C7A C -0.1345(4) 0.1099(3) 0.4944(3)
H3A H -0.1121 0.1151 0.5619
C8A C -0.1042(3) 0.2072(3) 0.3741(3)
H4A H -0.0637 0.2813 0.3603
C9_2 C 0.2220(3) 0.2585(3) 0.0391(3)
C10_2 C 0.2524(3) 0.1450(3) 0.0192(3)
C11_2 C 0.3298(3) 0.1577(3) -0.0950(3)
H5_2 H 0.3575 0.2370 -0.1615
C12_2 C 0.3642(3) 0.0481(3) -0.1063(3)
C13_2 C 0.4470(4) -0.0917(3) -0.1649(3)
H6_2 H 0.4938 -0.1300 -0.2127
C14_2 C 0.3228(3) -0.0706(3) -0.0058(3)
C15_2 C 0.2398(4) -0.0844(3) 0.1070(3)
H7_2 H 0.2083 -0.1635 0.1719
C16_2 C 0.2071(4) 0.0249(3) 0.1172(3)
H8_2 H 0.1530 0.0192 0.1917
C17A C 0.2094(3) 0.5235(3) 0.2730(3)
C18A C 0.2387(3) 0.5240(3) 0.3872(3)
C19A C 0.1718(4) 0.4323(3) 0.5058(3)
H9A H 0.1111 0.3743 0.5103
C20A C 0.1941(4) 0.4268(3) 0.6149(3)
H10A H 0.1504 0.3660 0.6934
C21A C 0.2849(3) 0.5157(3) 0.6027(3)
C22A C 0.4144(4) 0.6382(3) 0.6281(3)
H11A H 0.4556 0.6721 0.6678
C23A C 0.3525(3) 0.6076(3) 0.4862(3)
C24A C 0.3303(3) 0.6121(3) 0.3764(3)
H12A H 0.3753 0.6721 0.2980
C25A C 0.5046(3) 0.4406(3) 0.0631(3)
Cu1A Cu -0.45639(5) -0.16504(4) 0.38218(4)
Cu1_2 Cu 0.45639(5) 0.16504(4) -0.38218(4)
Cu1A_2 Cu 0.54361(5) 0.83496(4) 0.38218(4)
N1A N -0.3034(3) -0.1216(3) 0.4557(3)
N2A N -0.2425(3) -0.1100(3) 0.6149(2)
H13A H -0.2332 -0.1323 0.6905
N3_2 N 0.4411(3) 0.0316(2) -0.2073(3)
N3A N -0.4411(3) -0.0316(2) 0.2073(3)
N4_2 N 0.3791(3) -0.1568(3) -0.0462(3)
H14_2 H 0.3721 -0.2380 -0.0032
N5A N 0.3284(3) 0.5372(3) 0.6906(2)
H15A H 0.3049 0.4939 0.7710
N6A N 0.4346(3) 0.6844(3) 0.5054(2)
N6A_2 N -0.5654(3) -0.3156(3) 0.5054(2)
O1A O -0.1130(2) 0.2916(2) 0.04954(19)
O2A O -0.0639(2) 0.41255(18) 0.12689(19)
O3_2 O 0.2439(3) 0.3684(2) -0.0525(2)
O3A O -0.2439(3) 0.6316(2) 0.0525(2)
O4_2 O 0.1742(2) 0.24566(19) 0.14851(18)
O4A O -0.1742(2) 0.75434(19) -0.14851(18)
O5A O 0.1301(2) 0.4383(2) 0.2871(2)
O5_2 O -0.1301(2) 0.5617(2) -0.2871(2)
O6A O 0.2646(3) 0.6050(2) 0.1651(2)
O6_2 O -0.2646(3) 0.3950(2) -0.1651(2)
O7A O 0.3936(2) 0.3897(2) 0.13458(19)
O7_2 O -0.3936(2) 0.6103(2) -0.13458(19)
O8A O 0.6233(2) 0.4029(2) 0.08436(19)
O8A_2 O -0.3767(2) 0.4029(2) 0.08436(19)
Sm1A Sm -0.174265(14) 0.515080(13) -0.071160(12)
Sm1_2 Sm 0.174265(14) 1.484920(13) 0.071160(12)
Sm1A_2 Sm 0.825735(14) 1.515080(13) -0.071160(12)
Sm1A_3 Sm 0.825735(14) 0.515080(13) -0.071160(12)
loop_
_geom_bond_atom_site_label_1
_geom_bond_atom_site_label_2
_geom_bond_site_symmetry_1
_geom_bond_site_symmetry_2
C1 C2 1_555 1_555
C2 C3 1_555 1_555
C3 H1 1_555 1_555
C4 C3 1_555 1_555
C5 H2 1_555 1_555
C6 C4 1_555 1_555
C7 C6 1_555 1_555
H3 C7 1_555 1_555
C8 C2 1_555 1_555
H4 C8 1_555 1_555
C9 C10 1_555 1_555
C10 C11 1_555 1_555
C11 H5 1_555 1_555
C12 C11 1_555 1_555
C13 H6 1_555 1_555
C14 C12 1_555 1_555
C15 C14 1_555 1_555
H7 C15 1_555 1_555
C16 C10 1_555 1_555
H8 C16 1_555 1_555
C17 C18 1_555 1_555
C18 C19 1_555 1_555
C19 H9 1_555 1_555
C20 C19 1_555 1_555
H10 C20 1_555 1_555
C21 C20 1_555 1_555
C22 H11 1_555 1_555
C23 C21 1_555 1_555
C24 C18 1_555 1_555
H12 C24 1_555 1_555
C25 O7 1_555 1_555
Cu1 N1 1_555 1_555
N1 C4 1_555 1_555
N2 C5 1_555 1_555
H13 N2 1_555 1_555
N3 C12 1_555 1_555
N4 C13 1_555 1_555
H14 N4 1_555 1_555
N5 C21 1_555 1_555
H15 N5 1_555 1_555
N6 C22 1_555 1_555
O1 C1 1_555 1_555
O2 C1 1_555 1_555
O3 C9 1_555 1_555
O4 C9 1_555 1_555
O5 C17 1_555 1_555
O6 C17 1_555 1_555
O7 Sm1A_3 1_555 1_555
O8 C25 1_555 1_555
Sm1 O1 1_555 1_555
C1A C2A 1_555 1_555
C2A C3A 1_555 1_555
C3A H1A 1_555 1_555
C4A C3A 1_555 1_555
C5A H2A 1_555 1_555
C6A C4A 1_555 1_555
C7A C6A 1_555 1_555
H3A C7A 1_555 1_555
C8A C2A 1_555 1_555
H4A C8A 1_555 1_555
C9_2 C10_2 1_555 1_555
C10_2 C11_2 1_555 1_555
C11_2 H5_2 1_555 1_555
C12_2 C11_2 1_555 1_555
C13_2 H6_2 1_555 1_555
C14_2 C12_2 1_555 1_555
C15_2 C14_2 1_555 1_555
H7_2 C15_2 1_555 1_555
C16_2 C10_2 1_555 1_555
H8_2 C16_2 1_555 1_555
C17A C18A 1_555 1_555
C18A C19A 1_555 1_555
C19A H9A 1_555 1_555
C20A C19A 1_555 1_555
H10A C20A 1_555 1_555
C21A C20A 1_555 1_555
C22A H11A 1_555 1_555
C23A C21A 1_555 1_555
C24A C18A 1_555 1_555
H12A C24A 1_555 1_555
C25A C25 1_555 1_555
Cu1A N1A 1_555 1_555
Cu1_2 N3_2 1_555 1_555
Cu1A_2 N6A 1_555 1_555
N1A C4A 1_555 1_555
N2A C5A 1_555 1_555
H13A N2A 1_555 1_555
N3_2 C12_2 1_555 1_555
N3A Cu1A 1_555 1_555
N4_2 C13_2 1_555 1_555
H14_2 N4_2 1_555 1_555
N5A C21A 1_555 1_555
H15A N5A 1_555 1_555
N6A C22A 1_555 1_555
N6A_2 Cu1A 1_555 1_555
O1A C1A 1_555 1_555
O2A Sm1 1_555 1_555
O3_2 Sm1 1_555 1_555
O3A Sm1A 1_555 1_555
O4_2 Sm1 1_555 1_555
O4A Sm1A 1_555 1_555
O5A Sm1 1_555 1_555
O5_2 Sm1A 1_555 1_555
O6A Sm1 1_555 1_555
O6_2 Sm1A 1_555 1_555
O7A Sm1 1_555 1_555
O7_2 Sm1A 1_555 1_555
O8A C25A 1_555 1_555
O8A_2 Sm1A 1_555 1_555
Sm1A O2 1_555 1_555
Sm1_2 O3 1_555 1_555
Sm1A_2 O5 1_555 1_555
Sm1A_3 O8A 1_555 1_555
C5 N1 1_555 1_555
C6 N2 1_555 1_555
C7 C8 1_555 1_555
C13 N3 1_555 1_555
C14 N4 1_555 1_555
C15 C16 1_555 1_555
C22 N5 1_555 1_555
C23 C24 1_555 1_555
C23 N6 1_555 1_555
Cu1 N3 1_555 1_555
Cu1 N6 1_555 1_555
O2 Sm1 1_555 1_555
O4 Sm1_2 1_555 1_555
O6 Sm1A_2 1_555 1_555
O8 Sm1 1_555 1_555
C1A O2A 1_555 1_555
C5A N1A 1_555 1_555
C6A N2A 1_555 1_555
C7A C8A 1_555 1_555
C9_2 O3_2 1_555 1_555
C9_2 O4_2 1_555 1_555
C13_2 N3_2 1_555 1_555
C14_2 N4_2 1_555 1_555
C15_2 C16_2 1_555 1_555
C17A O5A 1_555 1_555
C17A O6A 1_555 1_555
C22A N5A 1_555 1_555
C23A C24A 1_555 1_555
C23A N6A 1_555 1_555
C25A O7A 1_555 1_555
O1A Sm1A 1_555 1_555
O2A Sm1A 1_555 1_555

#END
