
#######################################################################
#
#                 Cambridge Crystallographic Data Centre
#                                CCDC 
#
#######################################################################
#
# If this CIF has been generated from an entry in the Cambridge 
# Structural Database, then it will include bibliographic, chemical, 
# crystal, experimental, refinement or atomic coordinate data resulting 
# from the CCDC's data processing and validation procedures.
#
#######################################################################

data_YUYBEA
_symmetry_cell_setting           triclinic
_symmetry_space_group_name_H-M   'P -1'
_symmetry_Int_Tables_number      2
_space_group_name_Hall           '-P 1'
loop_
_symmetry_equiv_pos_site_id
_symmetry_equiv_pos_as_xyz
1 x,y,z
2 -x,-y,-z
_cell_length_a                   9.7523(6)
_cell_length_b                   11.9583(7)
_cell_length_c                   12.2461(7)
_cell_angle_alpha                61.809(1)
_cell_angle_beta                 78.1720(11)
_cell_angle_gamma                84.9511(10)
_cell_volume                     1231.95
loop_
_atom_site_label
_atom_site_type_symbol
_atom_site_fract_x
_atom_site_fract_y
_atom_site_fract_z
C1 C 0.7810(3) 0.7405(3) 0.4606(3)
C2 C 0.7514(4) 0.8552(3) 0.4799(3)
C3 C 0.8000(4) 0.9745(3) 0.3808(3)
H1 H 0.8557 0.9793 0.3073
C4 C 0.7671(4) 1.0840(3) 0.3903(3)
H2 H 0.8000 1.1628 0.3253
C5 C 0.6815(4) 1.0711(3) 0.5024(3)
C6 C 0.5520(4) 1.0938(3) 0.6592(3)
H3 H 0.5028 1.1328 0.7054
C7 C 0.6384(4) 0.9525(3) 0.6036(3)
C8 C 0.6723(4) 0.8428(3) 0.5925(3)
H4 H 0.6427 0.7635 0.6587
C9 C 0.9018(3) 1.3074(3) 0.6407(3)
C10 C 0.8674(3) 1.2002(3) 0.7702(3)
C11 C 0.8971(4) 1.2096(3) 0.8738(3)
H5 H 0.9385 1.2832 0.8604
C12 C 0.8655(4) 1.1110(3) 0.9942(3)
H6 H 0.8878 1.1151 1.0625
C13 C 0.7988(3) 1.0048(3) 1.0096(3)
C14 C 0.6978(4) 0.8228(4) 1.0745(3)
H7 H 0.6623 0.7412 1.1283
C15 C 0.7636(4) 0.9966(3) 0.9090(3)
C16 C 0.8030(4) 1.0936(3) 0.7865(3)
H8 H 0.7865 1.0867 0.7177
C17 C 0.2121(3) 0.5212(3) 0.7678(3)
C18 C 0.2390(3) 0.5226(3) 0.8827(3)
C19 C 0.1708(4) 0.4308(3) 1.0022(3)
H9 H 0.1101 0.3726 1.0063
C20 C 0.1913(4) 0.4252(4) 1.1124(3)
H10 H 0.1465 0.3646 1.1909
C21 C 0.2829(4) 0.5150(3) 1.1001(3)
C22 C 0.4107(4) 0.6387(4) 1.1260(3)
H11 H 0.4517 0.6729 1.1661
C23 C 0.3508(3) 0.6077(3) 0.9829(3)
C24 C 0.3302(4) 0.6114(3) 0.8723(3)
H12 H 0.3759 0.6713 0.7939
C25 C 0.5055(3) 1.4406(3) 0.5633(3)
Cu1 Cu 0.54179(5) 0.83616(4) 0.87925(4)
Dy1 Dy 0.823340(14) 1.517310(13) 0.431350(12)
N1 N 0.5586(3) 0.9698(3) 0.7030(3)
N2 N 0.6240(3) 1.1583(3) 0.5409(3)
H13 H 0.6323 1.2394 0.4974
N3 N 0.7563(3) 0.8915(3) 1.1143(3)
H14 H 0.7654 0.8689 1.1903
N4 N 0.6952(3) 0.8806(3) 0.9535(3)
N5 N 0.4324(3) 0.6850(3) 1.0027(3)
N6 N 0.3242(3) 0.5377(3) 1.1886(3)
H15 H 0.2992 0.4951 1.2691
O1 O 0.8277(2) 0.7534(2) 0.35083(19)
O2 O 0.7576(3) 0.6306(2) 0.5526(2)
O3 O 0.9379(2) 1.4155(2) 0.6264(2)
O4 O 0.8873(2) 1.2976(2) 0.5465(2)
O5 O 0.2700(3) 0.6015(2) 0.6596(2)
O6 O 0.1311(3) 0.4368(2) 0.7809(2)
O7 O 0.6256(2) 1.4052(2) 0.5865(2)
O8 O 0.3933(2) 1.3872(2) 0.6334(2)
C1_2 C 0.7810(3) 1.7405(3) 0.4606(3)
C2_2 C 0.7514(4) 1.8552(3) 0.4799(3)
C3_2 C 0.8000(4) 1.9745(3) 0.3808(3)
H1_2 H 0.8557 1.9793 0.3073
C4_2 C 0.7671(4) 2.0840(3) 0.3903(3)
H2_2 H 0.8000 2.1628 0.3253
C5_2 C 0.6815(4) 2.0711(3) 0.5024(3)
C6_2 C 0.5520(4) 2.0938(3) 0.6592(3)
H3_2 H 0.5028 2.1328 0.7054
C7_2 C 0.6384(4) 1.9525(3) 0.6036(3)
C8_2 C 0.6723(4) 1.8428(3) 0.5925(3)
H4_2 H 0.6427 1.7635 0.6587
C9A C 1.0982(3) 1.6926(3) 0.3593(3)
C10A C 1.1326(3) 1.7998(3) 0.2298(3)
C11A C 1.1029(4) 1.7904(3) 0.1262(3)
H5A H 1.0615 1.7168 0.1396
C12A C 1.1345(4) 1.8890(3) 0.0058(3)
H6A H 1.1122 1.8849 -0.0625
C13A C 1.2012(3) 1.9952(3) -0.0096(3)
C14A C 1.3022(4) 2.1772(4) -0.0745(3)
H7A H 1.3377 2.2588 -0.1283
C15A C 1.2364(4) 2.0034(3) 0.0910(3)
C16A C 1.1970(4) 1.9064(3) 0.2135(3)
H8A H 1.2135 1.9133 0.2823
C17A C 0.7879(3) 1.4788(3) 0.2322(3)
C18A C 0.7610(3) 1.4774(3) 0.1173(3)
C19A C 0.8292(4) 1.5692(3) -0.0022(3)
H9A H 0.8899 1.6274 -0.0063
C20A C 0.8087(4) 1.5748(4) -0.1124(3)
H10A H 0.8535 1.6354 -0.1909
C21A C 0.7171(4) 1.4850(3) -0.1001(3)
C22A C 0.5893(4) 1.3613(4) -0.1260(3)
H11A H 0.5483 1.3271 -0.1661
C23A C 0.6492(3) 1.3923(3) 0.0171(3)
C24A C 0.6698(4) 1.3886(3) 0.1277(3)
H12A H 0.6241 1.3287 0.2061
C25A C 0.4945(3) 1.5594(3) 0.4367(3)
Cu1_2 Cu 0.54179(5) 1.83616(4) 0.87925(4)
Cu1A Cu 1.45821(5) 2.16384(4) 0.12075(4)
Cu1A_2 Cu 0.45821(5) 1.16384(4) 0.12075(4)
Dy1_2 Dy 0.823340(14) 0.517310(13) 0.431350(12)
Dy1A Dy 1.176660(14) 1.482690(13) 0.568650(12)
Dy1A_2 Dy 0.176660(14) 0.482690(13) 0.568650(12)
Dy1A_3 Dy 0.176660(14) 1.482690(13) 0.568650(12)
N1_2 N 0.5586(3) 1.9698(3) 0.7030(3)
N1A N 1.4414(3) 2.0302(3) 0.2970(3)
N2_2 N 0.6240(3) 2.1583(3) 0.5409(3)
H13_2 H 0.6323 2.2394 0.4974
N3A N 1.2437(3) 2.1085(3) -0.1143(3)
H14A H 1.2346 2.1311 -0.1903
N4A N 1.3048(3) 2.1194(3) 0.0465(3)
N5A N 0.5676(3) 1.3150(3) -0.0027(3)
N5A_2 N 1.5676(3) 2.3150(3) -0.0027(3)
N6A N 0.6758(3) 1.4623(3) -0.1886(3)
H15A H 0.7008 1.5049 -0.2691
O1_2 O 0.8277(2) 1.7534(2) 0.35083(19)
O1A O 1.1723(2) 1.2466(2) 0.64917(19)
O2_2 O 0.7576(3) 1.6306(2) 0.5526(2)
O2A O 1.2424(3) 1.3694(2) 0.4474(2)
O3A O 1.0621(2) 1.5845(2) 0.3736(2)
O4A O 1.1127(2) 1.7024(2) 0.4535(2)
O5A O 0.7300(3) 1.3985(2) 0.3404(2)
O5_2 O 1.2700(3) 1.6015(2) 0.6596(2)
O6A O 0.8689(3) 1.5632(2) 0.2191(2)
O6_2 O 1.1311(3) 1.4368(2) 0.7809(2)
O7A O 0.3744(2) 1.5948(2) 0.4135(2)
O7A_2 O 1.3744(2) 1.5948(2) 0.4135(2)
O8A O 0.6067(2) 1.6128(2) 0.3666(2)
O8_2 O 1.3933(2) 1.3872(2) 0.6334(2)
loop_
_geom_bond_atom_site_label_1
_geom_bond_atom_site_label_2
_geom_bond_site_symmetry_1
_geom_bond_site_symmetry_2
C1 C2 1_555 1_555
C2 C3 1_555 1_555
C3 H1 1_555 1_555
C4 C3 1_555 1_555
H2 C4 1_555 1_555
C5 C4 1_555 1_555
C6 H3 1_555 1_555
C7 C5 1_555 1_555
C8 C2 1_555 1_555
H4 C8 1_555 1_555
C9 C10 1_555 1_555
C10 C11 1_555 1_555
C11 H5 1_555 1_555
C12 C11 1_555 1_555
H6 C12 1_555 1_555
C13 C12 1_555 1_555
C14 H7 1_555 1_555
C15 C13 1_555 1_555
C16 C10 1_555 1_555
H8 C16 1_555 1_555
C17 C18 1_555 1_555
C18 C19 1_555 1_555
C19 H9 1_555 1_555
C20 C19 1_555 1_555
H10 C20 1_555 1_555
C21 C20 1_555 1_555
C22 H11 1_555 1_555
C23 C21 1_555 1_555
C24 C18 1_555 1_555
H12 C24 1_555 1_555
C25 O7 1_555 1_555
Cu1 N1 1_555 1_555
Dy1 O3 1_555 1_555
N1 C6 1_555 1_555
N2 C5 1_555 1_555
H13 N2 1_555 1_555
N3 C13 1_555 1_555
H14 N3 1_555 1_555
N4 C14 1_555 1_555
N5 C22 1_555 1_555
N6 C21 1_555 1_555
H15 N6 1_555 1_555
O1 C1 1_555 1_555
O2 C1 1_555 1_555
O3 C9 1_555 1_555
O4 C9 1_555 1_555
O5 C17 1_555 1_555
O6 C17 1_555 1_555
O7 Dy1 1_555 1_555
O8 C25 1_555 1_555
C1_2 C2_2 1_555 1_555
C2_2 C3_2 1_555 1_555
C3_2 H1_2 1_555 1_555
C4_2 C3_2 1_555 1_555
H2_2 C4_2 1_555 1_555
C5_2 C4_2 1_555 1_555
C6_2 H3_2 1_555 1_555
C7_2 C5_2 1_555 1_555
C8_2 C2_2 1_555 1_555
H4_2 C8_2 1_555 1_555
C9A C10A 1_555 1_555
C10A C11A 1_555 1_555
C11A H5A 1_555 1_555
C12A C11A 1_555 1_555
H6A C12A 1_555 1_555
C13A C12A 1_555 1_555
C14A H7A 1_555 1_555
C15A C13A 1_555 1_555
C16A C10A 1_555 1_555
H8A C16A 1_555 1_555
C17A C18A 1_555 1_555
C18A C19A 1_555 1_555
C19A H9A 1_555 1_555
C20A C19A 1_555 1_555
H10A C20A 1_555 1_555
C21A C20A 1_555 1_555
C22A H11A 1_555 1_555
C23A C21A 1_555 1_555
C24A C18A 1_555 1_555
H12A C24A 1_555 1_555
C25A C25 1_555 1_555
Cu1_2 N1_2 1_555 1_555
Cu1A N1A 1_555 1_555
Cu1A_2 N5A 1_555 1_555
Dy1_2 O1 1_555 1_555
Dy1A O3 1_555 1_555
Dy1A_2 O5 1_555 1_555
Dy1A_3 O8 1_555 1_555
N1_2 C6_2 1_555 1_555
N2_2 C5_2 1_555 1_555
H13_2 N2_2 1_555 1_555
N3A C13A 1_555 1_555
H14A N3A 1_555 1_555
N4A C14A 1_555 1_555
N5A C22A 1_555 1_555
N5A_2 Cu1A 1_555 1_555
N6A C21A 1_555 1_555
H15A N6A 1_555 1_555
O1_2 Dy1 1_555 1_555
O1A Dy1A 1_555 1_555
O2_2 Dy1 1_555 1_555
O2A Dy1A 1_555 1_555
O3A Dy1 1_555 1_555
O4A C9A 1_555 1_555
O5A Dy1 1_555 1_555
O5_2 Dy1A 1_555 1_555
O6A Dy1 1_555 1_555
O6_2 Dy1A 1_555 1_555
O7A C25A 1_555 1_555
O7A_2 Dy1A 1_555 1_555
O8A Dy1 1_555 1_555
O8_2 Dy1A 1_555 1_555
C6 N2 1_555 1_555
C7 C8 1_555 1_555
C7 N1 1_555 1_555
C14 N3 1_555 1_555
C15 C16 1_555 1_555
C15 N4 1_555 1_555
C22 N6 1_555 1_555
C23 C24 1_555 1_555
C23 N5 1_555 1_555
Cu1 N4 1_555 1_555
Cu1 N5 1_555 1_555
Dy1 O4 1_555 1_555
O2 Dy1_2 1_555 1_555
O6 Dy1A_2 1_555 1_555
C1_2 O1_2 1_555 1_555
C1_2 O2_2 1_555 1_555
C6_2 N2_2 1_555 1_555
C7_2 C8_2 1_555 1_555
C7_2 N1_2 1_555 1_555
C9A O3A 1_555 1_555
C14A N3A 1_555 1_555
C15A C16A 1_555 1_555
C15A N4A 1_555 1_555
C17A O5A 1_555 1_555
C17A O6A 1_555 1_555
C22A N6A 1_555 1_555
C23A C24A 1_555 1_555
C23A N5A 1_555 1_555
C25A O8A 1_555 1_555
Cu1A N4A 1_555 1_555
Dy1A O3A 1_555 1_555
Dy1A O4A 1_555 1_555
Dy1A_3 O7A 1_555 1_555

#END
