
#######################################################################
#
#                 Cambridge Crystallographic Data Centre
#                                CCDC 
#
#######################################################################
#
# If this CIF has been generated from an entry in the Cambridge 
# Structural Database, then it will include bibliographic, chemical, 
# crystal, experimental, refinement or atomic coordinate data resulting 
# from the CCDC's data processing and validation procedures.
#
#######################################################################

data_YUYQUF
_symmetry_cell_setting           monoclinic
_symmetry_space_group_name_H-M   'P 21/c'
_symmetry_Int_Tables_number      14
_space_group_name_Hall           '-P 2ybc'
loop_
_symmetry_equiv_pos_site_id
_symmetry_equiv_pos_as_xyz
1 x,y,z
2 -x,1/2+y,1/2-z
3 -x,-y,-z
4 x,1/2-y,1/2+z
_cell_length_a                   14.117(3)
_cell_length_b                   15.223(3)
_cell_length_c                   19.919(3)
_cell_angle_alpha                90
_cell_angle_beta                 133.661(9)
_cell_angle_gamma                90
_cell_volume                     3096.79
loop_
_atom_site_label
_atom_site_type_symbol
_atom_site_fract_x
_atom_site_fract_y
_atom_site_fract_z
Zn1 Zn 0.83761(3) 0.65385(2) 0.44026(2)
Zn2 Zn 0.50075(3) 0.78391(2) 0.10791(2)
O1 O 0.67921(18) 0.71525(12) 0.39577(13)
O2 O 0.81374(18) 0.82016(14) 0.42989(12)
O3 O 0.4041(2) 0.92303(15) 0.14109(13)
O4 O 0.56319(18) 0.82650(13) 0.22409(12)
O5 O 0.61360(18) 0.80825(12) 0.62909(12)
O6 O 0.7778(2) 0.71320(13) 0.70068(14)
O7 O 0.7225(2) 0.83548(13) 0.53954(12)
O8 O 0.8233(2) 0.85189(14) 0.83658(13)
O9 O 1.0124(2) 0.91787(15) 0.93443(13)
N1 N 0.4477(2) 0.85542(15) 0.00092(15)
N2 N 0.9897(2) 0.67610(15) 0.57830(15)
N3 N 0.3394(2) 0.71592(18) 0.06238(18)
C1 C 0.7087(3) 0.79535(18) 0.40209(17)
C2 C 0.6144(3) 0.86223(17) 0.38373(18)
C3 C 0.6293(3) 0.8834(2) 0.45797(18)
C4 C 0.5537(4) 0.9447(3) 0.4517(2)
H1 H 0.5656 0.9568 0.5029
C5 C 0.4590(4) 0.9891(3) 0.3691(2)
H2 H 0.4080 1.0321 0.3646
C6 C 0.4412(3) 0.9688(2) 0.2937(2)
H3 H 0.3768 0.9979 0.2378
C7 C 0.5173(3) 0.90625(18) 0.29970(18)
C8 C 0.4921(3) 0.88447(19) 0.21497(18)
C9 C 0.3633(3) 0.9211(2) -0.0382(2)
H4 H 0.3262 0.9356 -0.0152
C10 C 0.3276(3) 0.9690(2) -0.1111(2)
H5 H 0.2682 1.0150 -0.1365
C11 C 0.3813(3) 0.9476(2) -0.1455(2)
H6 H 0.3584 0.9786 -0.1952
C12 C 0.4688(3) 0.8802(2) -0.1059(2)
H7 H 0.5066 0.8648 -0.1283
C13 C 0.5010(3) 0.8353(2) -0.03280(19)
H8 H 0.5612 0.7896 -0.0058
C14 C 0.7318(3) 0.78751(19) 0.67543(18)
C15 C 0.8167(2) 0.86216(17) 0.69242(17)
C16 C 0.8082(3) 0.88507(19) 0.62132(18)
C17 C 0.8836(3) 0.9492(2) 0.6297(2)
H9 H 0.8754 0.9626 0.5803
C18 C 0.9719(3) 0.9936(3) 0.7124(2)
H10 H 1.0240 1.0374 0.7194
C19 C 0.9829(3) 0.9730(2) 0.7851(2)
H11 H 1.0426 1.0035 0.8408
C20 C 0.9070(2) 0.90806(18) 0.77646(17)
C21 C 0.9168(3) 0.89188(18) 0.85541(18)
C22 C 1.1141(3) 0.6761(3) 0.6229(2)
H12 H 1.1375 0.6611 0.5907
C23 C 0.9589(3) 0.6976(2) 0.6262(2)
H13 H 0.8710 0.6982 0.5954
C24 C 1.0509(4) 0.7190(3) 0.7187(2)
H14 H 1.0257 0.7332 0.7499
C25 C 1.1783(4) 0.7191(3) 0.7635(3)
H15 H 1.2425 0.7338 0.8260
C26 C 1.2118(4) 0.6973(3) 0.7158(3)
H16 H 1.2991 0.6967 0.7453
C27 C 0.2156(4) 0.7289(3) -0.0152(3)
H17 H 0.1993 0.7709 -0.0560
C28 C 0.1092(4) 0.6864(3) -0.0409(3)
H18 H 0.0243 0.6981 -0.0967
C29 C 0.1359(5) 0.6246(4) 0.0216(4)
H19 H 0.0675 0.5933 0.0074
C30 C 0.2554(5) 0.6100(4) 0.0997(4)
H20 H 0.2729 0.5688 0.1415
C31 C 0.3570(4) 0.6572(3) 0.1195(3)
H21 H 0.4420 0.6470 0.1759
O10 O 0.79629(18) 0.53384(12) 0.45761(12)
H22 H 0.8622 0.5000 0.4926
H23 H 0.7288 0.5020 0.4191
Zn1C Zn 0.83761(3) 0.84615(2) 0.94026(2)
Zn2C Zn 0.50075(3) 0.71609(2) 0.60791(2)
O5C O 0.61360(18) 0.69175(12) 0.12909(12)
O8C O 0.8233(2) 0.64811(14) 0.33658(13)
O11 O 0.1732(2) 0.07304(15) 0.67952(15)
H24 H 0.1802 0.0917 0.6429
H25 H 0.1901 0.1156 0.7140
loop_
_geom_bond_atom_site_label_1
_geom_bond_atom_site_label_2
_geom_bond_site_symmetry_1
_geom_bond_site_symmetry_2
Zn1 O1 1_555 1_555
Zn2 O4 1_555 1_555
O1 C1 1_555 1_555
O2 C1 1_555 1_555
O3 C8 1_555 1_555
O4 C8 1_555 1_555
O5 C14 1_555 1_555
O6 C14 1_555 1_555
O7 C3 1_555 1_555
O8 C21 1_555 1_555
O9 C21 1_555 1_555
N1 Zn2 1_555 1_555
N2 Zn1 1_555 1_555
N3 Zn2 1_555 1_555
C1 C2 1_555 1_555
C2 C3 1_555 1_555
C3 C4 1_555 1_555
C4 H1 1_555 1_555
C5 C4 1_555 1_555
H2 C5 1_555 1_555
C6 C5 1_555 1_555
H3 C6 1_555 1_555
C7 C2 1_555 1_555
C8 C7 1_555 1_555
C9 N1 1_555 1_555
H4 C9 1_555 1_555
C10 C9 1_555 1_555
H5 C10 1_555 1_555
C11 C10 1_555 1_555
H6 C11 1_555 1_555
C12 C11 1_555 1_555
H7 C12 1_555 1_555
C13 N1 1_555 1_555
H8 C13 1_555 1_555
C14 C15 1_555 1_555
C15 C16 1_555 1_555
C16 O7 1_555 1_555
C17 C16 1_555 1_555
H9 C17 1_555 1_555
C18 C17 1_555 1_555
H10 C18 1_555 1_555
C19 C18 1_555 1_555
H11 C19 1_555 1_555
C20 C15 1_555 1_555
C21 C20 1_555 1_555
C22 N2 1_555 1_555
H12 C22 1_555 1_555
C23 N2 1_555 1_555
H13 C23 1_555 1_555
C24 C23 1_555 1_555
H14 C24 1_555 1_555
C25 C24 1_555 1_555
H15 C25 1_555 1_555
C26 C22 1_555 1_555
H16 C26 1_555 1_555
C27 N3 1_555 1_555
H17 C27 1_555 1_555
C28 C27 1_555 1_555
H18 C28 1_555 1_555
C29 C28 1_555 1_555
H19 C29 1_555 1_555
C30 C29 1_555 1_555
H20 C30 1_555 1_555
C31 N3 1_555 1_555
H21 C31 1_555 1_555
O10 Zn1 1_555 1_555
H22 O10 1_555 1_555
H23 O10 1_555 1_555
O11 H24 1_555 1_555
H25 O11 1_555 1_555
Zn1C O8 1_555 1_555
Zn2C O5 1_555 1_555
O5C Zn2 1_555 1_555
O8C Zn1 1_555 1_555
C6 C7 1_555 1_555
C12 C13 1_555 1_555
C19 C20 1_555 1_555
C25 C26 1_555 1_555
C30 C31 1_555 1_555

#END
