
#######################################################################
#
#                 Cambridge Crystallographic Data Centre
#                                CCDC 
#
#######################################################################
#
# If this CIF has been generated from an entry in the Cambridge 
# Structural Database, then it will include bibliographic, chemical, 
# crystal, experimental, refinement or atomic coordinate data resulting 
# from the CCDC's data processing and validation procedures.
#
#######################################################################

data_YUYSIV
_symmetry_cell_setting           monoclinic
_symmetry_space_group_name_H-M   'P 21/c'
_symmetry_Int_Tables_number      14
_space_group_name_Hall           '-P 2ybc'
loop_
_symmetry_equiv_pos_site_id
_symmetry_equiv_pos_as_xyz
1 x,y,z
2 -x,1/2+y,1/2-z
3 -x,-y,-z
4 x,1/2-y,1/2+z
_cell_length_a                   18.0820(8)
_cell_length_b                   14.5810(6)
_cell_length_c                   16.0310(7)
_cell_angle_alpha                90
_cell_angle_beta                 92.6670(10)
_cell_angle_gamma                90
_cell_volume                     4222.05
loop_
_atom_site_label
_atom_site_type_symbol
_atom_site_fract_x
_atom_site_fract_y
_atom_site_fract_z
C1 C 0.57459(12) 0.37007(15) 0.66975(14)
C2 C 0.61098(11) 0.37172(13) 0.58625(12)
C3 C 0.56599(11) 0.36973(13) 0.51541(13)
H1 H 0.5144 0.3631 0.5222
C4 C 0.59025(11) 0.37681(13) 0.43112(12)
C5 C 0.53017(13) 0.38462(17) 0.36275(15)
H2 H 0.5368 0.4416 0.3315
H3 H 0.4816 0.3852 0.3875
H4 H 0.5331 0.3322 0.3248
C6 C 0.68204(12) 0.39356(14) 0.32883(12)
H5 H 0.6773 0.4596 0.3152
H6 H 0.6485 0.3592 0.2896
C7 C 0.76154(12) 0.36297(14) 0.31768(12)
H7 H 0.7618 0.2977 0.3006
H8 H 0.7830 0.3995 0.2727
C8 C 0.91681(14) 0.36610(16) 0.31041(14)
H9 H 0.9002 0.3100 0.2815
H10 H 0.9705 0.3636 0.3215
H11 H 0.9044 0.4195 0.2753
C9 C 0.87884(11) 0.37413(13) 0.39185(12)
C10 C 0.92623(11) 0.38002(13) 0.46667(13)
H12 H 0.9780 0.3847 0.4597
C11 C 0.90303(10) 0.37939(13) 0.54664(12)
C12 C 0.96142(12) 0.38453(15) 0.61822(14)
C13 C 0.67299(12) 0.57415(13) 0.48149(15)
H13 H 0.6375 0.5557 0.5236
H14 H 0.6553 0.5487 0.4269
C14 C 0.67510(12) 0.67892(13) 0.47596(15)
H15 H 0.6633 0.6979 0.4176
H16 H 0.6368 0.7049 0.5112
C15 C 0.76824(14) 0.57308(13) 0.58817(12)
H17 H 0.8191 0.5529 0.6046
H18 H 0.7345 0.5488 0.6297
C16 C 0.76499(14) 0.67949(13) 0.58842(12)
H19 H 0.7264 0.7000 0.6261
H20 H 0.8131 0.7041 0.6102
C17 C 0.79941(12) 0.57247(13) 0.44534(13)
H21 H 0.7840 0.5528 0.3880
H22 H 0.8492 0.5468 0.4589
C18 C 0.80356(12) 0.67737(13) 0.44816(13)
H23 H 0.8538 0.6963 0.4686
H24 H 0.7949 0.7021 0.3910
C19 C 0.56013(12) 0.88370(15) 0.64407(14)
C20 C 0.60425(11) 0.88094(12) 0.56582(12)
C21 C 0.56607(11) 0.88158(13) 0.48999(13)
H25 H 0.5138 0.8879 0.4902
C22 C 0.59868(11) 0.87339(13) 0.40974(12)
C23 C 0.54468(13) 0.86423(15) 0.33574(14)
H26 H 0.5500 0.9168 0.2984
H27 H 0.4941 0.8625 0.3551
H28 H 0.5548 0.8074 0.3056
C24 C 0.70003(12) 0.85746(14) 0.32013(12)
H29 H 0.6698 0.8912 0.2772
H30 H 0.6974 0.7913 0.3063
C25 C 0.78010(12) 0.88947(13) 0.31872(12)
H31 H 0.8059 0.8545 0.2759
H32 H 0.7813 0.9552 0.3033
C26 C 0.93662(14) 0.88566(17) 0.32979(15)
H33 H 0.9276 0.8326 0.2932
H34 H 0.9892 0.8879 0.3475
H35 H 0.9230 0.9420 0.2994
C27 C 0.89049(12) 0.87717(13) 0.40569(13)
C28 C 0.93144(11) 0.87042(14) 0.48510(14)
H36 H 0.9837 0.8650 0.4840
C29 C 0.90101(11) 0.87121(13) 0.56154(13)
C30 C 0.95303(12) 0.86478(16) 0.63896(15)
C31 C 0.68818(12) 0.07260(13) 0.44594(13)
H37 H 0.6407 0.0473 0.4639
H38 H 0.6944 0.0533 0.3875
C32 C 0.68542(12) 0.17788(13) 0.45000(14)
H39 H 0.6863 0.2031 0.3927
H40 H 0.6385 0.1971 0.4741
C33 C 0.74131(14) 0.07135(13) 0.58523(12)
H41 H 0.7816 0.0469 0.6229
H42 H 0.6936 0.0504 0.6063
C34 C 0.74399(14) 0.17751(13) 0.58612(12)
H43 H 0.6991 0.2014 0.6118
H44 H 0.7876 0.1979 0.6208
C35 C 0.81896(12) 0.07384(13) 0.46960(14)
H45 H 0.8272 0.0499 0.4130
H46 H 0.8610 0.0538 0.5070
C36 C 0.81695(12) 0.17897(13) 0.46667(14)
H47 H 0.8604 0.2037 0.4992
H48 H 0.8202 0.1996 0.4081
N1 N 0.65977(9) 0.37807(10) 0.41473(9)
N2 N 0.80722(9) 0.37424(10) 0.39491(9)
N3 N 0.74669(9) 0.53553(10) 0.50459(9)
N4 N 0.74817(9) 0.71640(10) 0.50339(9)
N5 N 0.66953(9) 0.87258(10) 0.40232(9)
N6 N 0.81878(9) 0.87656(11) 0.40026(9)
N7 N 0.74952(9) 0.03493(10) 0.49964(9)
N8 N 0.74831(9) 0.21587(10) 0.50102(9)
O1 O 0.68168(7) 0.37630(9) 0.59574(8)
O2 O 0.83774(7) 0.37489(9) 0.57431(8)
O3 O 0.67400(7) 0.87611(9) 0.58370(8)
O4 O 0.83325(7) 0.87696(9) 0.58144(8)
F1 F 0.59552(8) 0.29572(9) 0.71483(9)
F2 F 0.50058(7) 0.36946(10) 0.66482(9)
F3 F 0.59510(9) 0.44321(9) 0.71635(9)
F4 F 0.95457(9) 0.31460(12) 0.67058(11)
F5 F 0.95291(9) 0.46041(12) 0.66306(11)
F6 F 1.03113(7) 0.38442(11) 0.59638(10)
F7 F 0.57503(9) 0.80975(10) 0.69172(9)
F8 F 0.48701(7) 0.88661(11) 0.63138(9)
F9 F 0.57872(8) 0.95667(10) 0.69167(9)
F10 F 0.93947(9) 0.78806(11) 0.68170(10)
F11 F 0.94183(9) 0.93404(12) 0.69103(10)
F12 F 1.02471(8) 0.86411(11) 0.62492(10)
Ni1 Ni 0.747248(12) 0.375603(16) 0.497646(13)
Ni2 Ni 0.749334(12) 0.875795(16) 0.495133(13)
N7_2 N 0.74952(9) 1.03493(10) 0.49964(9)
Ni2_2 Ni 0.749334(12) -0.124205(16) 0.495133(13)
O5 O 0.77925(10) 0.37364(12) 0.74475(10)
H49 H 0.7395(9) 0.3726(19) 0.7121(15)
H50 H 0.8177(10) 0.3684(19) 0.7145(15)
O6 O 0.75646(11) 0.87712(15) 0.74143(10)
H51 H 0.7220(13) 0.875(2) 0.7018(14)
H52 H 0.7996(8) 0.869(2) 0.721(2)
loop_
_geom_bond_atom_site_label_1
_geom_bond_atom_site_label_2
_geom_bond_site_symmetry_1
_geom_bond_site_symmetry_2
C1 C2 1_555 1_555
C2 C3 1_555 1_555
C3 H1 1_555 1_555
C4 C3 1_555 1_555
C5 C4 1_555 1_555
H2 C5 1_555 1_555
H3 C5 1_555 1_555
H4 C5 1_555 1_555
C6 H5 1_555 1_555
H6 C6 1_555 1_555
C7 C6 1_555 1_555
H7 C7 1_555 1_555
H8 C7 1_555 1_555
C8 H9 1_555 1_555
H10 C8 1_555 1_555
H11 C8 1_555 1_555
C9 C8 1_555 1_555
C10 C9 1_555 1_555
H12 C10 1_555 1_555
C11 C10 1_555 1_555
C12 C11 1_555 1_555
C13 H13 1_555 1_555
H14 C13 1_555 1_555
C14 C13 1_555 1_555
H15 C14 1_555 1_555
H16 C14 1_555 1_555
C15 H17 1_555 1_555
H18 C15 1_555 1_555
C16 C15 1_555 1_555
H19 C16 1_555 1_555
H20 C16 1_555 1_555
C17 H21 1_555 1_555
H22 C17 1_555 1_555
C18 C17 1_555 1_555
H23 C18 1_555 1_555
H24 C18 1_555 1_555
C19 C20 1_555 1_555
C20 C21 1_555 1_555
C21 H25 1_555 1_555
C22 C21 1_555 1_555
C23 C22 1_555 1_555
H26 C23 1_555 1_555
H27 C23 1_555 1_555
H28 C23 1_555 1_555
C24 H29 1_555 1_555
H30 C24 1_555 1_555
C25 C24 1_555 1_555
H31 C25 1_555 1_555
H32 C25 1_555 1_555
C26 H33 1_555 1_555
H34 C26 1_555 1_555
H35 C26 1_555 1_555
C27 C26 1_555 1_555
C28 C27 1_555 1_555
H36 C28 1_555 1_555
C29 C28 1_555 1_555
C30 C29 1_555 1_555
C31 H37 1_555 1_555
H38 C31 1_555 1_555
C32 C31 1_555 1_555
H39 C32 1_555 1_555
H40 C32 1_555 1_555
C33 H41 1_555 1_555
H42 C33 1_555 1_555
C34 C33 1_555 1_555
H43 C34 1_555 1_555
H44 C34 1_555 1_555
C35 H45 1_555 1_555
H46 C35 1_555 1_555
C36 C35 1_555 1_555
H47 C36 1_555 1_555
H48 C36 1_555 1_555
N1 C4 1_555 1_555
N2 C7 1_555 1_555
N3 C13 1_555 1_555
N4 C14 1_555 1_555
N5 C22 1_555 1_555
N6 C25 1_555 1_555
N7 C31 1_555 1_555
N8 C32 1_555 1_555
O1 C2 1_555 1_555
O2 C11 1_555 1_555
O3 C20 1_555 1_555
O4 C29 1_555 1_555
O5 H49 1_555 1_555
H50 O5 1_555 1_555
O6 H51 1_555 1_555
H52 O6 1_555 1_555
F1 C1 1_555 1_555
F2 C1 1_555 1_555
F3 C1 1_555 1_555
F4 C12 1_555 1_555
F5 C12 1_555 1_555
F6 C12 1_555 1_555
F7 C19 1_555 1_555
F8 C19 1_555 1_555
F9 C19 1_555 1_555
F10 C30 1_555 1_555
F11 C30 1_555 1_555
F12 C30 1_555 1_555
Ni1 N1 1_555 1_555
Ni2 N4 1_555 1_555
N7_2 Ni2 1_555 1_555
Ni2_2 N7 1_555 1_555
C6 N1 1_555 1_555
C9 N2 1_555 1_555
C15 N3 1_555 1_555
C16 N4 1_555 1_555
C17 N3 1_555 1_555
C18 N4 1_555 1_555
C24 N5 1_555 1_555
C27 N6 1_555 1_555
C33 N7 1_555 1_555
C34 N8 1_555 1_555
C35 N7 1_555 1_555
C36 N8 1_555 1_555
N2 Ni1 1_555 1_555
N3 Ni1 1_555 1_555
N5 Ni2 1_555 1_555
N6 Ni2 1_555 1_555
N8 Ni1 1_555 1_555
O1 Ni1 1_555 1_555
O2 Ni1 1_555 1_555
O3 Ni2 1_555 1_555
O4 Ni2 1_555 1_555

#END
