
#######################################################################
#
#                 Cambridge Crystallographic Data Centre
#                                CCDC 
#
#######################################################################
#
# If this CIF has been generated from an entry in the Cambridge 
# Structural Database, then it will include bibliographic, chemical, 
# crystal, experimental, refinement or atomic coordinate data resulting 
# from the CCDC's data processing and validation procedures.
#
#######################################################################

data_YUYTUI
_symmetry_cell_setting           triclinic
_symmetry_space_group_name_H-M   'P -1'
_symmetry_Int_Tables_number      2
_space_group_name_Hall           '-P 1'
loop_
_symmetry_equiv_pos_site_id
_symmetry_equiv_pos_as_xyz
1 x,y,z
2 -x,-y,-z
_cell_length_a                   7.219(3)
_cell_length_b                   7.512(3)
_cell_length_c                   9.560(4)
_cell_angle_alpha                92.314(7)
_cell_angle_beta                 100.913(8)
_cell_angle_gamma                97.734(8)
_cell_volume                     503.268
loop_
_atom_site_label
_atom_site_type_symbol
_atom_site_fract_x
_atom_site_fract_y
_atom_site_fract_z
Er1 Er 0.14131(5) 0.19008(5) 0.41587(3)
O1 O -0.0068(7) 0.1372(7) -0.3864(5)
O2 O 0.0376(8) -0.0294(7) -0.2021(5)
O3 O 0.2687(7) 0.4283(7) -0.4288(5)
O4 O 0.1166(7) 0.6542(7) -0.3810(6)
O5 O 0.3496(8) 0.0687(8) 0.6068(6)
O6 O 0.6095(8) -0.0682(8) 0.6671(6)
N1 N 0.2458(9) 0.4074(8) 0.2469(6)
N2 N 0.3329(10) 0.6849(9) 0.1765(7)
H1 H 0.3744 0.7984 0.1827
C1 C 0.3071(11) 0.5792(11) 0.2893(8)
H2 H 0.3302 0.6240 0.3841
C2 C 0.2284(11) 0.4009(10) 0.0960(7)
C3 C 0.2790(11) 0.5727(11) 0.0516(8)
C4 C 0.2630(11) 0.6075(10) -0.0914(8)
H3 H 0.2949 0.7237 -0.1179
C5 C 0.1986(11) 0.4657(10) -0.1938(8)
C6 C 0.1507(11) 0.2860(10) -0.1508(8)
C7 C 0.1648(11) 0.2562(11) -0.0061(8)
H4 H 0.1322 0.1410 0.0221
C8 C 0.0578(11) 0.1219(10) -0.2527(8)
C9 C 0.1905(10) 0.5176(10) -0.3462(7)
C10 C 0.4866(11) -0.0007(10) 0.5788(8)
Er1A Er 0.85869(5) -0.19008(5) 0.58413(3)
Er1A_2 Er -0.14131(5) -0.19008(5) -0.41587(3)
Er1_2 Er 0.14131(5) 0.19008(5) -0.58413(3)
Er1A_3 Er -0.14131(5) 0.80992(5) -0.41587(3)
Er1A_4 Er -0.14131(5) -0.19008(5) 0.58413(3)
Er1_3 Er 0.14131(5) -0.80992(5) 0.41587(3)
O1A O 0.0068(7) -0.1372(7) 0.3864(5)
O1_2 O -0.0068(7) 0.1372(7) 0.6136(5)
O1_3 O 0.9932(7) 0.1372(7) 0.6136(5)
O1A_2 O 1.0068(7) -0.1372(7) 0.3864(5)
O2A O -0.0376(8) 0.0294(7) 0.2021(5)
O2_2 O 1.0376(8) -0.0294(7) 0.7979(5)
O3A O -0.2687(7) -0.4283(7) 0.4288(5)
O3_2 O 0.2687(7) 0.4283(7) 0.5712(5)
O3A_2 O 0.7313(7) -0.4283(7) 0.4288(5)
O4A O -0.1166(7) -0.6542(7) 0.3810(6)
O4A_2 O -0.1166(7) 0.3458(7) 0.3810(6)
O4_2 O 1.1166(7) -0.3458(7) 0.6190(6)
O5A O 0.6504(8) -0.0687(8) 0.3932(6)
O6A O 0.3905(8) 0.0682(8) 0.3329(6)
N1A N -0.2458(9) -0.4074(8) -0.2469(6)
N1A_2 N 0.7542(9) -0.4074(8) 0.7531(6)
N2A N -0.3329(10) -0.6849(9) -0.1765(7)
H1A H -0.3744 -0.7984 -0.1827
C1A C -0.3071(11) -0.5792(11) -0.2893(8)
H2A H -0.3302 -0.6240 -0.3841
C2A C -0.2284(11) -0.4009(10) -0.0960(7)
C3A C -0.2790(11) -0.5727(11) -0.0516(8)
C4A C -0.2630(11) -0.6075(10) 0.0914(8)
H3A H -0.2949 -0.7237 0.1179
C5A C -0.1986(11) -0.4657(10) 0.1938(8)
C6A C -0.1507(11) -0.2860(10) 0.1508(8)
C7A C -0.1648(11) -0.2562(11) 0.0061(8)
H4A H -0.1322 -0.1410 -0.0221
C8A C -0.0578(11) -0.1219(10) 0.2527(8)
C9A C -0.1905(10) -0.5176(10) 0.3462(7)
C10A C 0.5134(11) 0.0007(10) 0.4212(8)
loop_
_geom_bond_atom_site_label_1
_geom_bond_atom_site_label_2
_geom_bond_site_symmetry_1
_geom_bond_site_symmetry_2
Er1 O5 1_555 1_555
O1 C8 1_555 1_555
O2 C8 1_555 1_555
O3 C9 1_555 1_555
O4 C9 1_555 1_555
O5 C10 1_555 1_555
O6 C10 1_555 1_555
N1 Er1 1_555 1_555
N2 H1 1_555 1_555
C1 N1 1_555 1_555
H2 C1 1_555 1_555
C2 N1 1_555 1_555
C3 N2 1_555 1_555
C4 C3 1_555 1_555
H3 C4 1_555 1_555
C5 C4 1_555 1_555
C6 C5 1_555 1_555
C7 C2 1_555 1_555
H4 C7 1_555 1_555
C8 C6 1_555 1_555
C9 C5 1_555 1_555
C10 C10A 1_555 1_555
Er1A O6 1_555 1_555
Er1A_2 O1 1_555 1_555
Er1_2 O1 1_555 1_555
Er1A_3 O4 1_555 1_555
Er1A_4 O1A 1_555 1_555
Er1_3 O4A 1_555 1_555
O1A Er1 1_555 1_555
O1_2 Er1 1_555 1_555
O1_3 Er1A 1_555 1_555
O1A_2 Er1A 1_555 1_555
O2A Er1 1_555 1_555
O2_2 Er1A 1_555 1_555
O3A Er1A_4 1_555 1_555
O3_2 Er1 1_555 1_555
O3A_2 Er1A 1_555 1_555
O4A C9A 1_555 1_555
O4A_2 Er1 1_555 1_555
O4_2 Er1A 1_555 1_555
O5A Er1A 1_555 1_555
O6A Er1 1_555 1_555
N1A Er1A_2 1_555 1_555
N1A_2 Er1A 1_555 1_555
N2A H1A 1_555 1_555
C1A N1A 1_555 1_555
H2A C1A 1_555 1_555
C2A N1A 1_555 1_555
C3A N2A 1_555 1_555
C4A C3A 1_555 1_555
H3A C4A 1_555 1_555
C5A C4A 1_555 1_555
C6A C5A 1_555 1_555
C7A C2A 1_555 1_555
H4A C7A 1_555 1_555
C8A O1A 1_555 1_555
C9A O3A 1_555 1_555
C10A O5A 1_555 1_555
O2 Er1A_2 1_555 1_555
O3 Er1_2 1_555 1_555
N2 C1 1_555 1_555
C2 C3 1_555 1_555
C6 C7 1_555 1_555
Er1A_4 O1_2 1_555 1_555
O2A C8A 1_555 1_555
O6A C10A 1_555 1_555
N2A C1A 1_555 1_555
C2A C3A 1_555 1_555
C5A C9A 1_555 1_555
C6A C7A 1_555 1_555
C6A C8A 1_555 1_555

#END
