
#######################################################################
#
#                 Cambridge Crystallographic Data Centre
#                                CCDC 
#
#######################################################################
#
# If this CIF has been generated from an entry in the Cambridge 
# Structural Database, then it will include bibliographic, chemical, 
# crystal, experimental, refinement or atomic coordinate data resulting 
# from the CCDC's data processing and validation procedures.
#
#######################################################################

data_YUYVEU
_symmetry_cell_setting           monoclinic
_symmetry_space_group_name_H-M   'P 21/n'
_symmetry_Int_Tables_number      14
_space_group_name_Hall           '-P 2yn'
loop_
_symmetry_equiv_pos_site_id
_symmetry_equiv_pos_as_xyz
1 x,y,z
2 1/2-x,1/2+y,1/2-z
3 -x,-y,-z
4 1/2+x,1/2-y,1/2+z
_cell_length_a                   13.022(4)
_cell_length_b                   11.465(4)
_cell_length_c                   16.832(5)
_cell_angle_alpha                90
_cell_angle_beta                 100.173(5)
_cell_angle_gamma                90
_cell_volume                     2473.46
loop_
_atom_site_label
_atom_site_type_symbol
_atom_site_fract_x
_atom_site_fract_y
_atom_site_fract_z
Zn1 Zn 0.75987(2) -0.11979(2) 0.037132(15)
Cl1 Cl 0.76409(6) -0.08052(6) 0.16778(4)
Cl2 Cl 0.85324(5) -0.27060(5) 0.00394(4)
P1 P 0.83081(4) 0.04292(5) -0.03093(3)
P2 P 0.57919(4) -0.17005(5) -0.00806(3)
C1 C 0.76301(17) 0.0651(2) -0.13405(13)
C2 C 0.68487(19) 0.1474(2) -0.15124(16)
H1 H 0.6693 0.1951 -0.1103
C3 C 0.6294(2) 0.1594(3) -0.22921(19)
H2 H 0.5766 0.2148 -0.2402
C4 C 0.6521(3) 0.0900(3) -0.28997(18)
H3 H 0.6152 0.0987 -0.3422
C5 C 0.7290(3) 0.0080(3) -0.27378(17)
H4 H 0.7442 -0.0391 -0.3152
C6 C 0.7845(2) -0.0058(2) -0.19620(15)
H5 H 0.8362 -0.0624 -0.1856
C7 C 0.84118(17) 0.18682(19) 0.01546(14)
C8 C 0.8673(2) 0.2846(2) -0.02532(16)
H6 H 0.8788 0.2774 -0.0781
C9 C 0.8764(2) 0.3924(2) 0.0117(2)
H7 H 0.8938 0.4575 -0.0160
C10 C 0.8598(3) 0.4030(3) 0.0892(2)
H8 H 0.8655 0.4758 0.1140
C11 C 0.8350(3) 0.3079(3) 0.13056(19)
H9 H 0.8245 0.3159 0.1835
C12 C 0.8254(2) 0.1992(2) 0.09381(15)
H10 H 0.8082 0.1345 0.1221
C13 C 0.53955(17) -0.18919(18) -0.11583(13)
C14 C 0.4408(2) -0.1635(3) -0.15691(16)
H11 H 0.3902 -0.1371 -0.1285
C15 C 0.4164(2) -0.1763(3) -0.23932(17)
H12 H 0.3498 -0.1578 -0.2664
C16 C 0.4898(2) -0.2164(3) -0.28153(16)
H13 H 0.4731 -0.2260 -0.3372
C17 C 0.5877(2) -0.2420(2) -0.24169(15)
H14 H 0.6376 -0.2692 -0.2705
C18 C 0.61353(18) -0.2281(2) -0.15943(14)
H15 H 0.6808 -0.2449 -0.1330
C19 C 0.53974(19) -0.29809(19) 0.04289(14)
C20 C 0.6054(3) -0.3383(3) 0.11067(17)
H16 H 0.6706 -0.3043 0.1266
C21 C 0.5745(3) -0.4288(3) 0.1548(2)
H17 H 0.6190 -0.4560 0.2003
C22 C 0.4784(3) -0.4788(3) 0.1317(2)
H18 H 0.4571 -0.5385 0.1625
C23 C 0.4139(2) -0.4415(2) 0.0640(2)
H19 H 0.3494 -0.4770 0.0478
C24 C 0.4443(2) -0.3507(2) 0.01920(17)
H20 H 0.4001 -0.3251 -0.0270
C25 C 0.96522(16) 0.0057(2) -0.04110(13)
H21 H 0.9652 -0.0673 -0.0702
H22 H 0.9927 0.0659 -0.0720
C26 C 0.49187(18) -0.05835(18) 0.01902(13)
H23 H 0.4202 -0.0830 0.0016
H24 H 0.5037 -0.0498 0.0773
Zn1B Zn 1.24013(2) 0.11979(2) -0.037132(15)
Zn1B_2 Zn 0.24013(2) 0.11979(2) -0.037132(15)
Cl1B Cl 1.23591(6) 0.08052(6) -0.16778(4)
Cl2B Cl 1.14676(5) 0.27060(5) -0.00394(4)
P1B P 1.16919(4) -0.04292(5) 0.03093(3)
P2B P 0.42081(4) 0.17005(5) 0.00806(3)
P2B_2 P 1.42081(4) 0.17005(5) 0.00806(3)
C1B C 1.23699(17) -0.0651(2) 0.13405(13)
C2B C 1.31513(19) -0.1474(2) 0.15124(16)
H1B H 1.3307 -0.1951 0.1103
C3B C 1.3706(2) -0.1594(3) 0.22921(19)
H2B H 1.4234 -0.2148 0.2402
C4B C 1.3479(3) -0.0900(3) 0.28997(18)
H3B H 1.3848 -0.0987 0.3422
C5B C 1.2710(3) -0.0080(3) 0.27378(17)
H4B H 1.2558 0.0391 0.3152
C6B C 1.2155(2) 0.0058(2) 0.19620(15)
H5B H 1.1638 0.0624 0.1856
C7B C 1.15882(17) -0.18682(19) -0.01546(14)
C8B C 1.1327(2) -0.2846(2) 0.02532(16)
H6B H 1.1212 -0.2774 0.0781
C9B C 1.1236(2) -0.3924(2) -0.0117(2)
H7B H 1.1062 -0.4575 0.0160
C10B C 1.1402(3) -0.4030(3) -0.0892(2)
H8B H 1.1345 -0.4758 -0.1140
C11B C 1.1650(3) -0.3079(3) -0.13056(19)
H9B H 1.1755 -0.3159 -0.1835
C12B C 1.1746(2) -0.1992(2) -0.09381(15)
H10B H 1.1918 -0.1345 -0.1221
C13B C 0.46045(17) 0.18919(18) 0.11583(13)
C14B C 0.5592(2) 0.1635(3) 0.15691(16)
H11B H 0.6098 0.1371 0.1285
C15B C 0.5836(2) 0.1763(3) 0.23932(17)
H12B H 0.6502 0.1578 0.2664
C16B C 0.5102(2) 0.2164(3) 0.28153(16)
H13B H 0.5269 0.2260 0.3372
C17B C 0.4123(2) 0.2420(2) 0.24169(15)
H14B H 0.3624 0.2692 0.2705
C18B C 0.38647(18) 0.2281(2) 0.15943(14)
H15B H 0.3192 0.2449 0.1330
C19B C 0.46026(19) 0.29809(19) -0.04289(14)
C20B C 0.3946(3) 0.3383(3) -0.11067(17)
H16B H 0.3294 0.3043 -0.1266
C21B C 0.4255(3) 0.4288(3) -0.1548(2)
H17B H 0.3810 0.4560 -0.2003
C22B C 0.5216(3) 0.4788(3) -0.1317(2)
H18B H 0.5429 0.5385 -0.1625
C23B C 0.5861(2) 0.4415(2) -0.0640(2)
H19B H 0.6506 0.4770 -0.0478
C24B C 0.5557(2) 0.3507(2) -0.01920(17)
H20B H 0.5999 0.3251 0.0270
C25B C 1.03478(16) -0.0057(2) 0.04110(13)
H21B H 1.0348 0.0673 0.0702
H22B H 1.0073 -0.0659 0.0720
C26B C 0.50813(18) 0.05835(18) -0.01902(13)
H23B H 0.5798 0.0830 -0.0016
H24B H 0.4963 0.0498 -0.0773
loop_
_geom_bond_atom_site_label_1
_geom_bond_atom_site_label_2
_geom_bond_site_symmetry_1
_geom_bond_site_symmetry_2
Zn1 Cl1 1_555 1_555
Cl2 Zn1 1_555 1_555
P1 Zn1 1_555 1_555
P2 Zn1 1_555 1_555
C1 P1 1_555 1_555
C2 C1 1_555 1_555
H1 C2 1_555 1_555
C3 C2 1_555 1_555
H2 C3 1_555 1_555
C4 C3 1_555 1_555
H3 C4 1_555 1_555
C5 C4 1_555 1_555
H4 C5 1_555 1_555
C6 C1 1_555 1_555
H5 C6 1_555 1_555
C7 P1 1_555 1_555
C8 C7 1_555 1_555
H6 C8 1_555 1_555
C9 C8 1_555 1_555
H7 C9 1_555 1_555
C10 C9 1_555 1_555
H8 C10 1_555 1_555
C11 C10 1_555 1_555
H9 C11 1_555 1_555
C12 C7 1_555 1_555
H10 C12 1_555 1_555
C13 P2 1_555 1_555
C14 C13 1_555 1_555
H11 C14 1_555 1_555
C15 C14 1_555 1_555
H12 C15 1_555 1_555
C16 C15 1_555 1_555
H13 C16 1_555 1_555
C17 C16 1_555 1_555
H14 C17 1_555 1_555
C18 C13 1_555 1_555
H15 C18 1_555 1_555
C19 P2 1_555 1_555
C20 C19 1_555 1_555
H16 C20 1_555 1_555
C21 C20 1_555 1_555
H17 C21 1_555 1_555
C22 C21 1_555 1_555
H18 C22 1_555 1_555
C23 C22 1_555 1_555
H19 C23 1_555 1_555
C24 C19 1_555 1_555
H20 C24 1_555 1_555
C25 P1 1_555 1_555
H21 C25 1_555 1_555
H22 C25 1_555 1_555
C26 P2 1_555 1_555
H23 C26 1_555 1_555
H24 C26 1_555 1_555
Zn1B Cl1B 1_555 1_555
Zn1B_2 P2B 1_555 1_555
Cl2B Zn1B 1_555 1_555
P1B Zn1B 1_555 1_555
P2B C13B 1_555 1_555
P2B_2 Zn1B 1_555 1_555
C1B P1B 1_555 1_555
C2B C1B 1_555 1_555
H1B C2B 1_555 1_555
C3B C2B 1_555 1_555
H2B C3B 1_555 1_555
C4B C3B 1_555 1_555
H3B C4B 1_555 1_555
C5B C4B 1_555 1_555
H4B C5B 1_555 1_555
C6B C1B 1_555 1_555
H5B C6B 1_555 1_555
C7B P1B 1_555 1_555
C8B C7B 1_555 1_555
H6B C8B 1_555 1_555
C9B C8B 1_555 1_555
H7B C9B 1_555 1_555
C10B C9B 1_555 1_555
H8B C10B 1_555 1_555
C11B C10B 1_555 1_555
H9B C11B 1_555 1_555
C12B C7B 1_555 1_555
H10B C12B 1_555 1_555
C13B C14B 1_555 1_555
C14B H11B 1_555 1_555
C15B C14B 1_555 1_555
H12B C15B 1_555 1_555
C16B C15B 1_555 1_555
H13B C16B 1_555 1_555
C17B C16B 1_555 1_555
H14B C17B 1_555 1_555
C18B C13B 1_555 1_555
H15B C18B 1_555 1_555
C19B P2B 1_555 1_555
C20B C19B 1_555 1_555
H16B C20B 1_555 1_555
C21B C20B 1_555 1_555
H17B C21B 1_555 1_555
C22B C21B 1_555 1_555
H18B C22B 1_555 1_555
C23B C22B 1_555 1_555
H19B C23B 1_555 1_555
C24B C19B 1_555 1_555
H20B C24B 1_555 1_555
C25B C25 1_555 1_555
H21B C25B 1_555 1_555
H22B C25B 1_555 1_555
C26B C26 1_555 1_555
H23B C26B 1_555 1_555
H24B C26B 1_555 1_555
C5 C6 1_555 1_555
C11 C12 1_555 1_555
C17 C18 1_555 1_555
C23 C24 1_555 1_555
P1B C25B 1_555 1_555
P2B C26B 1_555 1_555
C5B C6B 1_555 1_555
C11B C12B 1_555 1_555
C17B C18B 1_555 1_555
C23B C24B 1_555 1_555

#END
