
#######################################################################
#
#                 Cambridge Crystallographic Data Centre
#                                CCDC 
#
#######################################################################
#
# If this CIF has been generated from an entry in the Cambridge 
# Structural Database, then it will include bibliographic, chemical, 
# crystal, experimental, refinement or atomic coordinate data resulting 
# from the CCDC's data processing and validation procedures.
#
#######################################################################

data_YUYVOE
_symmetry_cell_setting           triclinic
_symmetry_space_group_name_H-M   'P -1'
_symmetry_Int_Tables_number      2
_space_group_name_Hall           '-P 1'
loop_
_symmetry_equiv_pos_site_id
_symmetry_equiv_pos_as_xyz
1 x,y,z
2 -x,-y,-z
_cell_length_a                   11.691(3)
_cell_length_b                   12.012(3)
_cell_length_c                   12.121(3)
_cell_angle_alpha                116.680(3)
_cell_angle_beta                 96.633(4)
_cell_angle_gamma                100.975(3)
_cell_volume                     1453.4
loop_
_atom_site_label
_atom_site_type_symbol
_atom_site_fract_x
_atom_site_fract_y
_atom_site_fract_z
Cd1 Cd 0.75220(3) 0.71730(3) 0.76879(3)
C1 C 0.4488(4) 0.6062(4) 0.8117(4)
C2 C 0.3558(6) 0.6534(7) 0.7881(6)
H1 H 0.3353 0.6497 0.7098
C3 C 0.2923(8) 0.7066(8) 0.8799(8)
H2 H 0.2282 0.7364 0.8629
C4 C 0.3259(7) 0.7147(7) 0.9974(7)
H3 H 0.2891 0.7576 1.0621
C5 C 0.4114(7) 0.6610(8) 1.0186(6)
H4 H 0.4272 0.6581 1.0941
C6 C 0.4753(6) 0.6102(6) 0.9275(5)
H5 H 0.5376 0.5782 0.9447
C7 C 0.5388(5) 0.3871(4) 0.6765(4)
C8 C 0.6413(6) 0.3465(6) 0.6729(6)
H6 H 0.7140 0.4019 0.6836
C9 C 0.6353(8) 0.2211(7) 0.6531(7)
H7 H 0.7043 0.1931 0.6491
C10 C 0.5320(8) 0.1414(6) 0.6398(5)
H8 H 0.5303 0.0595 0.6295
C11 C 0.4290(7) 0.1787(6) 0.6413(6)
H9 H 0.3570 0.1216 0.6298
C12 C 0.4315(6) 0.3016(5) 0.6599(5)
H10 H 0.3612 0.3272 0.6614
C13 C 0.4649(4) 0.5261(4) 0.5509(4)
H11 H 0.3863 0.4659 0.5245
H12 H 0.4542 0.6082 0.5612
C14 C 0.1480(6) -0.0481(6) -0.2371(6)
H13 H 0.0660 -0.0620 -0.2626
C15 C 0.2085(8) -0.1227(7) -0.3212(6)
H14 H 0.1671 -0.1873 -0.4023
C16 C 0.3306(7) -0.1005(6) -0.2837(7)
H15 H 0.3715 -0.1488 -0.3408
C17 C 0.3910(6) -0.0094(6) -0.1650(7)
H16 H 0.4731 0.0045 -0.1407
C18 C 0.3309(5) 0.0637(6) -0.0791(6)
H17 H 0.3726 0.1243 0.0033
C19 C 0.2092(5) 0.0469(5) -0.1154(5)
C20 C 0.0956(5) 0.2484(5) -0.0794(5)
C21 C -0.0100(8) 0.2754(11) -0.0826(12)
H18 H -0.0678 0.2396 -0.0523
C22 C -0.0351(9) 0.3559(13) -0.1304(14)
H19 H -0.1054 0.3815 -0.1231
C23 C 0.0425(9) 0.3971(9) -0.1878(10)
H20 H 0.0219 0.4405 -0.2309
C24 C 0.1506(9) 0.3733(10) -0.1805(11)
H21 H 0.2081 0.4078 -0.2120
C25 C 0.1767(7) 0.3000(9) -0.1282(10)
H22 H 0.2516 0.2843 -0.1253
C26 C -0.0082(4) 0.0506(5) -0.0190(5)
H23 H 0.0548 -0.0078 0.1057
H24 H 0.0524 -0.1044 -0.0353
I1 I 0.90914(4) 0.60312(5) 0.63863(5)
I2 I 0.68005(4) 0.89686(4) 0.71630(4)
P1 P 0.54386(10) 0.54905(10) 0.70216(10)
P2 P 0.13581(10) 0.15352(12) -0.00671(11)
Cd1A Cd 0.24780(3) 0.28270(3) 0.23121(3)
Cd1_2 Cd -0.24780(3) -0.28270(3) -0.23121(3)
C1A C 0.5512(4) 0.3938(4) 0.1883(4)
C2A C 0.6442(6) 0.3466(7) 0.2119(6)
H1A H 0.6647 0.3503 0.2902
C3A C 0.7077(8) 0.2934(8) 0.1201(8)
H2A H 0.7718 0.2636 0.1371
C4A C 0.6741(7) 0.2853(7) 0.0026(7)
H3A H 0.7109 0.2424 -0.0621
C5A C 0.5886(7) 0.3390(8) -0.0186(6)
H4A H 0.5728 0.3419 -0.0941
C6A C 0.5247(6) 0.3898(6) 0.0725(5)
H5A H 0.4624 0.4218 0.0553
C7A C 0.4612(5) 0.6129(4) 0.3235(4)
C8A C 0.3587(6) 0.6535(6) 0.3271(6)
H6A H 0.2860 0.5981 0.3164
C9A C 0.3647(8) 0.7789(7) 0.3469(7)
H7A H 0.2957 0.8069 0.3509
C10A C 0.4680(8) 0.8586(6) 0.3602(5)
H8A H 0.4697 0.9405 0.3705
C11A C 0.5710(7) 0.8213(6) 0.3587(6)
H9A H 0.6430 0.8784 0.3702
C12A C 0.5685(6) 0.6984(5) 0.3401(5)
H10A H 0.6388 0.6728 0.3386
C13A C 0.5351(4) 0.4739(4) 0.4491(4)
H11A H 0.6137 0.5341 0.4755
H12A H 0.5458 0.3918 0.4388
C14A C -0.1480(6) 0.0481(6) 0.2371(6)
H13A H -0.0660 0.0620 0.2626
C15A C -0.2085(8) 0.1227(7) 0.3212(6)
H14A H -0.1671 0.1873 0.4023
C16A C -0.3306(7) 0.1005(6) 0.2837(7)
H15A H -0.3715 0.1488 0.3408
C17A C -0.3910(6) 0.0094(6) 0.1650(7)
H16A H -0.4731 -0.0045 0.1407
C18A C -0.3309(5) -0.0637(6) 0.0791(6)
H17A H -0.3726 -0.1243 -0.0033
C19A C -0.2092(5) -0.0469(5) 0.1154(5)
C20A C -0.0956(5) -0.2484(5) 0.0794(5)
C21A C 0.0100(8) -0.2754(11) 0.0826(12)
H18A H 0.0678 -0.2396 0.0523
C22A C 0.0351(9) -0.3559(13) 0.1304(14)
H19A H 0.1054 -0.3815 0.1231
C23A C -0.0425(9) -0.3971(9) 0.1878(10)
H20A H -0.0219 -0.4405 0.2309
C24A C -0.1506(9) -0.3733(10) 0.1805(11)
H21A H -0.2081 -0.4078 0.2120
C25A C -0.1767(7) -0.3000(9) 0.1282(10)
H22A H -0.2516 -0.2843 0.1253
C26A C 0.0082(4) -0.0506(5) 0.0190(5)
H23A H -0.0548 0.0078 -0.1057
H24A H -0.0524 0.1044 0.0353
I1A I 0.09086(4) 0.39688(5) 0.36137(5)
I2A I 0.31995(4) 0.10314(4) 0.28370(4)
P1A P 0.45614(10) 0.45095(10) 0.29784(10)
P2A P 0.86419(10) 0.84648(12) 1.00671(11)
P2A_2 P -0.13581(10) -0.15352(12) 0.00671(11)
O1 O 0.9104(7) 0.9701(18) 0.5327(11)
loop_
_geom_bond_atom_site_label_1
_geom_bond_atom_site_label_2
_geom_bond_site_symmetry_1
_geom_bond_site_symmetry_2
Cd1 I1 1_555 1_555
C1 C2 1_555 1_555
C2 H1 1_555 1_555
C3 C2 1_555 1_555
H2 C3 1_555 1_555
C4 C3 1_555 1_555
H3 C4 1_555 1_555
C5 C4 1_555 1_555
H4 C5 1_555 1_555
C6 C1 1_555 1_555
H5 C6 1_555 1_555
C7 C8 1_555 1_555
C8 H6 1_555 1_555
C9 C8 1_555 1_555
H7 C9 1_555 1_555
C10 C9 1_555 1_555
H8 C10 1_555 1_555
C11 C10 1_555 1_555
H9 C11 1_555 1_555
C12 C7 1_555 1_555
H10 C12 1_555 1_555
C13 H11 1_555 1_555
H12 C13 1_555 1_555
C14 H13 1_555 1_555
C15 C14 1_555 1_555
H14 C15 1_555 1_555
C16 C15 1_555 1_555
H15 C16 1_555 1_555
C17 C16 1_555 1_555
H16 C17 1_555 1_555
C18 C17 1_555 1_555
H17 C18 1_555 1_555
C19 C14 1_555 1_555
C20 C21 1_555 1_555
C21 H18 1_555 1_555
C22 C21 1_555 1_555
H19 C22 1_555 1_555
C23 C22 1_555 1_555
H20 C23 1_555 1_555
C24 C23 1_555 1_555
H21 C24 1_555 1_555
C25 C20 1_555 1_555
H22 C25 1_555 1_555
C26 P2 1_555 1_555
H23 C26A 1_555 1_555
H24 C26A 1_555 1_555
I2 Cd1 1_555 1_555
P1 Cd1 1_555 1_555
P2 C19 1_555 1_555
Cd1A P2 1_555 1_555
Cd1_2 P2A_2 1_555 1_555
C1A C2A 1_555 1_555
C2A H1A 1_555 1_555
C3A C2A 1_555 1_555
H2A C3A 1_555 1_555
C4A C3A 1_555 1_555
H3A C4A 1_555 1_555
C5A C4A 1_555 1_555
H4A C5A 1_555 1_555
C6A C1A 1_555 1_555
H5A C6A 1_555 1_555
C7A C8A 1_555 1_555
C8A H6A 1_555 1_555
C9A C8A 1_555 1_555
H7A C9A 1_555 1_555
C10A C9A 1_555 1_555
H8A C10A 1_555 1_555
C11A C10A 1_555 1_555
H9A C11A 1_555 1_555
C12A C7A 1_555 1_555
H10A C12A 1_555 1_555
C13A C13 1_555 1_555
H11A C13A 1_555 1_555
H12A C13A 1_555 1_555
C14A H13A 1_555 1_555
C15A C14A 1_555 1_555
H14A C15A 1_555 1_555
C16A C15A 1_555 1_555
H15A C16A 1_555 1_555
C17A C16A 1_555 1_555
H16A C17A 1_555 1_555
C18A C17A 1_555 1_555
H17A C18A 1_555 1_555
C19A C14A 1_555 1_555
C20A C21A 1_555 1_555
C21A H18A 1_555 1_555
C22A C21A 1_555 1_555
H19A C22A 1_555 1_555
C23A C22A 1_555 1_555
H20A C23A 1_555 1_555
C24A C23A 1_555 1_555
H21A C24A 1_555 1_555
C25A C20A 1_555 1_555
H22A C25A 1_555 1_555
C26A C26 1_555 1_555
H23A C26 1_555 1_555
H24A C26 1_555 1_555
I1A Cd1A 1_555 1_555
I2A Cd1A 1_555 1_555
P1A Cd1A 1_555 1_555
P2A Cd1 1_555 1_555
P2A_2 C19A 1_555 1_555
C1 P1 1_555 1_555
C5 C6 1_555 1_555
C7 P1 1_555 1_555
C11 C12 1_555 1_555
C13 P1 1_555 1_555
C18 C19 1_555 1_555
C20 P2 1_555 1_555
C24 C25 1_555 1_555
C1A P1A 1_555 1_555
C5A C6A 1_555 1_555
C7A P1A 1_555 1_555
C11A C12A 1_555 1_555
C13A P1A 1_555 1_555
C18A C19A 1_555 1_555
C20A P2A_2 1_555 1_555
C24A C25A 1_555 1_555
C26A P2A_2 1_555 1_555

#END
