
#######################################################################
#
#                 Cambridge Crystallographic Data Centre
#                                CCDC 
#
#######################################################################
#
# If this CIF has been generated from an entry in the Cambridge 
# Structural Database, then it will include bibliographic, chemical, 
# crystal, experimental, refinement or atomic coordinate data resulting 
# from the CCDC's data processing and validation procedures.
#
#######################################################################

data_YUYVAQ
_symmetry_cell_setting           tetragonal
_symmetry_space_group_name_H-M   'I 41/a c d'
_symmetry_Int_Tables_number      142
_space_group_name_Hall           '-I 4bd 2c'
loop_
_symmetry_equiv_pos_site_id
_symmetry_equiv_pos_as_xyz
1 x,y,z
2 1/4-y,3/4+x,1/4+z
3 1/2-x,-y,1/2+z
4 1/4+y,1/4-x,3/4+z
5 x,-y,1/2-z
6 1/4+y,3/4+x,3/4-z
7 1/2-x,y,-z
8 1/4-y,1/4-x,1/4-z
9 1/2+x,1/2+y,1/2+z
10 3/4-y,1/4+x,3/4+z
11 -x,1/2-y,z
12 3/4+y,3/4-x,1/4+z
13 1/2+x,1/2-y,-z
14 3/4+y,1/4+x,1/4-z
15 -x,1/2+y,1/2-z
16 3/4-y,3/4-x,3/4-z
17 -x,-y,-z
18 3/4+y,1/4-x,3/4-z
19 1/2+x,y,1/2-z
20 3/4-y,3/4+x,1/4-z
21 -x,y,1/2+z
22 3/4-y,1/4-x,1/4+z
23 1/2+x,-y,z
24 3/4+y,3/4+x,3/4+z
25 1/2-x,1/2-y,1/2-z
26 1/4+y,3/4-x,1/4-z
27 x,1/2+y,-z
28 1/4-y,1/4+x,3/4-z
29 1/2-x,1/2+y,z
30 1/4-y,3/4-x,3/4+z
31 x,1/2-y,1/2+z
32 1/4+y,1/4+x,1/4+z
_cell_length_a                   22.6368(14)
_cell_length_b                   22.6368(14)
_cell_length_c                   21.1461(13)
_cell_angle_alpha                90
_cell_angle_beta                 90
_cell_angle_gamma                90
_cell_volume                     10835.8
loop_
_atom_site_label
_atom_site_type_symbol
_atom_site_fract_x
_atom_site_fract_y
_atom_site_fract_z
I1 I 0.26631(3) 0.08679(3) 0.19114(3)
Zn1 Zn 0.17165(3) 0.07835(3) 0.1250
P1 P 0.16356(8) 0.15430(8) 0.04638(9)
C1 C 0.0934(3) 0.1534(4) 0.0046(4)
C2 C 0.0469(6) 0.1789(9) 0.0278(11)
H1 H 0.0500 0.2015 0.0644
C3 C -0.0093(7) 0.1724(10) -0.0026(17)
H2 H -0.0419 0.1908 0.0156
C4 C -0.0169(8) 0.1439(8) -0.0516(16)
H3 H -0.0533 0.1428 -0.0720
C5 C 0.0287(8) 0.1154(9) -0.0732(9)
H4 H 0.0240 0.0906 -0.1079
C6 C 0.0845(5) 0.1210(7) -0.0458(6)
H5 H 0.1162 0.1011 -0.0638
C7 C 0.1764(3) 0.2300(3) 0.0691(4)
C8 C 0.1956(5) 0.2434(4) 0.1279(6)
H6 H 0.1993 0.2133 0.1576
C9 C 0.2098(7) 0.2999(6) 0.1449(9)
H7 H 0.2224 0.3081 0.1858
C10 C 0.2054(6) 0.3442(6) 0.1015(12)
H8 H 0.2182 0.3821 0.1117
C11 C 0.1827(6) 0.3333(6) 0.0446(10)
H9 H 0.1757 0.3643 0.0166
C12 C 0.1695(4) 0.2758(4) 0.0270(6)
H10 H 0.1559 0.2680 -0.0137
C13 C 0.2190(3) 0.1410(4) -0.0144(3)
H11 H 0.2116 0.1032 -0.0345
H12 H 0.2165 0.1715 -0.0465
I1G I 0.16321(3) -0.01631(3) 0.05886(3)
Zn1C Zn 0.32835(3) 0.07835(3) -0.1250
P1F P 0.33644(8) 0.15430(8) -0.04638(9)
P1G P 0.09570(8) 0.08644(8) 0.20362(9)
C1F C 0.4066(3) 0.1534(4) -0.0046(4)
C2F C 0.4531(6) 0.1789(9) -0.0278(11)
H1F H 0.4500 0.2015 -0.0644
C3F C 0.5093(7) 0.1724(10) 0.0026(17)
H2F H 0.5419 0.1908 -0.0156
C4F C 0.5169(8) 0.1439(8) 0.0516(16)
H3F H 0.5533 0.1428 0.0720
C5F C 0.4713(8) 0.1154(9) 0.0732(9)
H4F H 0.4760 0.0906 0.1079
C6F C 0.4155(5) 0.1210(7) 0.0458(6)
H5F H 0.3838 0.1011 0.0638
C7F C 0.3236(3) 0.2300(3) -0.0691(4)
C8F C 0.3044(5) 0.2434(4) -0.1279(6)
H6F H 0.3007 0.2133 -0.1576
C9F C 0.2902(7) 0.2999(6) -0.1449(9)
H7F H 0.2776 0.3081 -0.1858
C10F C 0.2946(6) 0.3442(6) -0.1015(12)
H8F H 0.2818 0.3821 -0.1117
C11F C 0.3173(6) 0.3333(6) -0.0446(10)
H9F H 0.3243 0.3643 -0.0166
C12F C 0.3305(4) 0.2758(4) -0.0270(6)
H10F H 0.3441 0.2680 0.0137
C13F C 0.2810(3) 0.1410(4) 0.0144(3)
H11F H 0.2884 0.1032 0.0345
H12F H 0.2835 0.1715 0.0465
loop_
_geom_bond_atom_site_label_1
_geom_bond_atom_site_label_2
_geom_bond_site_symmetry_1
_geom_bond_site_symmetry_2
I1 Zn1 1_555 1_555
Zn1 P1 1_555 1_555
P1 C1 1_555 1_555
C1 C2 1_555 1_555
C2 H1 1_555 1_555
C3 C2 1_555 1_555
H2 C3 1_555 1_555
C4 C3 1_555 1_555
H3 C4 1_555 1_555
C5 C4 1_555 1_555
H4 C5 1_555 1_555
C6 C1 1_555 1_555
H5 C6 1_555 1_555
C7 P1 1_555 1_555
C8 C7 1_555 1_555
H6 C8 1_555 1_555
C9 C8 1_555 1_555
H7 C9 1_555 1_555
C10 C9 1_555 1_555
H8 C10 1_555 1_555
C11 C10 1_555 1_555
H9 C11 1_555 1_555
C12 C7 1_555 1_555
H10 C12 1_555 1_555
C13 P1 1_555 1_555
H11 C13 1_555 1_555
H12 C13 1_555 1_555
I1G Zn1 1_555 1_555
Zn1C P1F 1_555 1_555
P1F C1F 1_555 1_555
P1G Zn1 1_555 1_555
C1F C2F 1_555 1_555
C2F H1F 1_555 1_555
C3F C2F 1_555 1_555
H2F C3F 1_555 1_555
C4F C3F 1_555 1_555
H3F C4F 1_555 1_555
C5F C4F 1_555 1_555
H4F C5F 1_555 1_555
C6F C1F 1_555 1_555
H5F C6F 1_555 1_555
C7F P1F 1_555 1_555
C8F C7F 1_555 1_555
H6F C8F 1_555 1_555
C9F C8F 1_555 1_555
H7F C9F 1_555 1_555
C10F C9F 1_555 1_555
H8F C10F 1_555 1_555
C11F C10F 1_555 1_555
H9F C11F 1_555 1_555
C12F C7F 1_555 1_555
H10F C12F 1_555 1_555
C13F C13 1_555 1_555
H11F C13F 1_555 1_555
H12F C13F 1_555 1_555
C5 C6 1_555 1_555
C11 C12 1_555 1_555
P1F C13F 1_555 1_555
C5F C6F 1_555 1_555
C11F C12F 1_555 1_555

#END
