
#######################################################################
#
#                 Cambridge Crystallographic Data Centre
#                                CCDC 
#
#######################################################################
#
# If this CIF has been generated from an entry in the Cambridge 
# Structural Database, then it will include bibliographic, chemical, 
# crystal, experimental, refinement or atomic coordinate data resulting 
# from the CCDC's data processing and validation procedures.
#
#######################################################################

data_YUZGEG
_symmetry_cell_setting           triclinic
_symmetry_space_group_name_H-M   'P -1'
_symmetry_Int_Tables_number      2
_space_group_name_Hall           '-P 1'
loop_
_symmetry_equiv_pos_site_id
_symmetry_equiv_pos_as_xyz
1 x,y,z
2 -x,-y,-z
_cell_length_a                   9.4433(7)
_cell_length_b                   9.5192(7)
_cell_length_c                   11.1244(9)
_cell_angle_alpha                65.0940(10)
_cell_angle_beta                 77.5590(10)
_cell_angle_gamma                81.7520(10)
_cell_volume                     884.133
loop_
_atom_site_label
_atom_site_type_symbol
_atom_site_fract_x
_atom_site_fract_y
_atom_site_fract_z
Cu1 Cu 0.43635(5) 0.99121(6) 0.34367(5)
Zn1 Zn 1.01347(5) 0.85486(6) 0.25543(5)
N1 N 0.5729(4) 0.8210(4) 0.4369(3)
N2 N 0.6046(4) 1.0756(4) 0.2175(4)
N3 N 0.3347(4) 1.1871(4) 0.2210(4)
H1 H 0.2855 1.1633 0.1719
H2 H 0.2711 1.2299 0.2708
O1 O 0.8251(3) 0.7699(4) 0.4055(3)
O2 O 0.8483(3) 1.0091(4) 0.1652(3)
O3 O 0.2750(3) 0.9200(3) 0.4851(3)
O4 O 0.1474(3) 0.7658(4) 0.6728(3)
O5 O 0.6352(3) 0.1370(3) 0.7899(3)
O6 O 0.8175(3) 0.2899(4) 0.6600(3)
O7 O 1.1501(3) 0.9960(4) 0.0779(3)
H3 H 1.1837 1.0130 -0.0040
H4 H 1.2037 1.0389 0.1035
O8 O 1.0480(3) 0.9984(4) 0.3425(3)
H5 H 1.1178 0.9986 0.3796
H6 H 0.9795 1.0591 0.3599
O9 O 1.0006(4) 0.6838(4) 0.1876(4)
H7 H 0.9189 0.6608 0.2388
H8 H 1.0209 0.6233 0.1470
C1 C 0.7095(4) 0.8472(5) 0.3741(4)
C2 C 0.7238(4) 0.9902(5) 0.2406(4)
C3 C 0.5844(5) 1.2100(6) 0.0957(5)
H9 H 0.5752 1.1782 0.0257
H10 H 0.6667 1.2744 0.0640
C4 C 0.4464(5) 1.2990(5) 0.1303(5)
H11 H 0.4667 1.3608 0.1745
H12 H 0.4104 1.3686 0.0486
C5 C 0.2633(4) 0.7917(5) 0.5903(4)
C6 C 0.3834(4) 0.6670(5) 0.6151(4)
C7 C 0.5289(4) 0.6809(5) 0.5437(4)
C8 C 0.6241(4) 0.5471(5) 0.5791(4)
H13 H 0.7198 0.5535 0.5343
C9 C 0.5790(4) 0.4063(5) 0.6789(4)
C10 C 0.6860(5) 0.2663(5) 0.7121(4)
C11 C 0.4363(5) 0.3929(5) 0.7495(4)
H14 H 0.4056 0.2985 0.8165
C12 C 0.3423(5) 0.5231(5) 0.7172(4)
H15 H 0.2479 0.5152 0.7650
Cu1A Cu 0.56365(5) 0.00879(6) 0.65633(5)
Zn1A Zn 0.98653(5) 0.14514(6) 0.74457(5)
O5A O 0.3648(3) 0.8630(3) 0.2101(3)
O6A O 1.1825(3) 0.7101(4) 0.3400(3)
O10 O 0.9111(4) 0.6237(4) 0.6673(3)
H16 H 0.8996 0.6577 0.5859
H17 H 0.8285 0.6005 0.7168
O11 O 0.9695(8) 0.6957(8) 0.9477(5)
H18 H 1.0375 0.7035 0.8817
H19 H 0.9120 0.6310 0.9539
loop_
_geom_bond_atom_site_label_1
_geom_bond_atom_site_label_2
_geom_bond_site_symmetry_1
_geom_bond_site_symmetry_2
Cu1 N1 1_555 1_555
Zn1 O1 1_555 1_555
N1 C1 1_555 1_555
N2 Cu1 1_555 1_555
N3 Cu1 1_555 1_555
H1 N3 1_555 1_555
H2 N3 1_555 1_555
O1 C1 1_555 1_555
O2 Zn1 1_555 1_555
O3 Cu1 1_555 1_555
O4 C5 1_555 1_555
O5 C10 1_555 1_555
O6 C10 1_555 1_555
O7 Zn1 1_555 1_555
H3 O7 1_555 1_555
H4 O7 1_555 1_555
O8 Zn1 1_555 1_555
H5 O8 1_555 1_555
H6 O8 1_555 1_555
O9 Zn1 1_555 1_555
H7 O9 1_555 1_555
H8 O9 1_555 1_555
C1 C2 1_555 1_555
C2 N2 1_555 1_555
C3 N2 1_555 1_555
H9 C3 1_555 1_555
H10 C3 1_555 1_555
C4 N3 1_555 1_555
H11 C4 1_555 1_555
H12 C4 1_555 1_555
C5 O3 1_555 1_555
C6 C5 1_555 1_555
C7 N1 1_555 1_555
C8 C7 1_555 1_555
H13 C8 1_555 1_555
C9 C8 1_555 1_555
C10 C9 1_555 1_555
C11 C9 1_555 1_555
H14 C11 1_555 1_555
C12 C6 1_555 1_555
H15 C12 1_555 1_555
O10 H16 1_555 1_555
H17 O10 1_555 1_555
O11 H18 1_555 1_555
H19 O11 1_555 1_555
Cu1A O5 1_555 1_555
Zn1A O6 1_555 1_555
O5A Cu1 1_555 1_555
O6A Zn1 1_555 1_555
O2 C2 1_555 1_555
C3 C4 1_555 1_555
C6 C7 1_555 1_555
C11 C12 1_555 1_555

#END
