
#######################################################################
#
#                 Cambridge Crystallographic Data Centre
#                                CCDC 
#
#######################################################################
#
# If this CIF has been generated from an entry in the Cambridge 
# Structural Database, then it will include bibliographic, chemical, 
# crystal, experimental, refinement or atomic coordinate data resulting 
# from the CCDC's data processing and validation procedures.
#
#######################################################################

data_YUZJUZ
_symmetry_cell_setting           monoclinic
_symmetry_space_group_name_H-M   'P 21/c'
_symmetry_Int_Tables_number      14
_space_group_name_Hall           '-P 2ybc'
loop_
_symmetry_equiv_pos_site_id
_symmetry_equiv_pos_as_xyz
1 x,y,z
2 -x,1/2+y,1/2-z
3 -x,-y,-z
4 x,1/2-y,1/2+z
_cell_length_a                   8.9227(8)
_cell_length_b                   8.9095(7)
_cell_length_c                   11.0210(10)
_cell_angle_alpha                90
_cell_angle_beta                 119.223(7)
_cell_angle_gamma                90
_cell_volume                     764.625
loop_
_atom_site_label
_atom_site_type_symbol
_atom_site_fract_x
_atom_site_fract_y
_atom_site_fract_z
C1 C 0.8078(4) 0.4198(4) 0.2254(3)
C2 C 0.9651(4) 0.3739(4) 0.3553(3)
C3 C 1.1285(4) 0.4316(4) 0.4103(4)
H1 H 1.1553 0.5027 0.3620
C4 C 1.2524(4) 0.3804(4) 0.5402(4)
H2 H 1.3632 0.4189 0.5801
C5 C 1.2130(4) 0.2726(4) 0.6113(4)
H3 H 1.2976 0.2412 0.6986
C6 C 1.0493(4) 0.2109(4) 0.5544(4)
H4 H 1.0230 0.1365 0.6002
C7 C 0.9282(4) 0.2655(4) 0.4267(3)
N1 N 0.6659(3) 0.3469(3) 0.2056(3)
O1 O 0.8128(3) 0.5174(3) 0.1469(2)
O2 O 0.6176(3) 0.2621(3) 0.4022(3)
O3 O 0.6815(3) 0.0739(3) 0.2753(3)
S1 S 0.70764(10) 0.22436(10) 0.32897(9)
Ag1 Ag 1.40952(4) 0.10117(4) 0.54225(3)
N1C N 1.6659(3) 0.1531(3) 0.7056(3)
O1A O 1.1872(3) 0.0174(3) 0.3531(2)
Ag1C Ag 0.40952(4) 0.39883(4) 0.04225(3)
Ag1A Ag 0.59048(4) 0.60117(4) -0.04225(3)
Ag1B Ag 1.59048(4) -0.10117(4) 0.45775(3)
loop_
_geom_bond_atom_site_label_1
_geom_bond_atom_site_label_2
_geom_bond_site_symmetry_1
_geom_bond_site_symmetry_2
C1 C2 1_555 1_555
C2 C3 1_555 1_555
C3 H1 1_555 1_555
C4 C3 1_555 1_555
H2 C4 1_555 1_555
C5 C4 1_555 1_555
H3 C5 1_555 1_555
C6 C5 1_555 1_555
H4 C6 1_555 1_555
C7 C2 1_555 1_555
N1 C1 1_555 1_555
O1 C1 1_555 1_555
O2 S1 1_555 1_555
O3 S1 1_555 1_555
S1 C7 1_555 1_555
Ag1 C5 1_555 1_555
N1C Ag1 1_555 1_555
O1A Ag1 1_555 1_555
Ag1C N1 1_555 1_555
Ag1A O1 1_555 1_555
Ag1B Ag1 1_555 1_555
C6 C7 1_555 1_555
N1 S1 1_555 1_555
Ag1C Ag1A 1_555 1_555

#END
