
#######################################################################
#
#                 Cambridge Crystallographic Data Centre
#                                CCDC 
#
#######################################################################
#
# If this CIF has been generated from an entry in the Cambridge 
# Structural Database, then it will include bibliographic, chemical, 
# crystal, experimental, refinement or atomic coordinate data resulting 
# from the CCDC's data processing and validation procedures.
#
#######################################################################

data_YUZKOU02
_symmetry_cell_setting           monoclinic
_symmetry_space_group_name_H-M   'C 2/m'
_symmetry_Int_Tables_number      12
_space_group_name_Hall           '-C 2y'
loop_
_symmetry_equiv_pos_site_id
_symmetry_equiv_pos_as_xyz
1 x,y,z
2 -x,y,-z
3 1/2+x,1/2+y,z
4 1/2-x,1/2+y,-z
5 -x,-y,-z
6 x,-y,z
7 1/2-x,1/2-y,-z
8 1/2+x,1/2-y,z
_cell_length_a                   11.059(2)
_cell_length_b                   28.269(6)
_cell_length_c                   6.6250(10)
_cell_angle_alpha                90
_cell_angle_beta                 113.79(3)
_cell_angle_gamma                90
_cell_volume                     1895.17
loop_
_atom_site_label
_atom_site_type_symbol
_atom_site_fract_x
_atom_site_fract_y
_atom_site_fract_z
Co1 Co -0.5000 0.0000 0.5000
Fe1 Fe -0.5000 -0.12601(2) 0.0000
N1 N -0.5617(3) -0.17925(10) 0.1290(5)
N2 N -0.2287(4) -0.12575(11) 0.3983(6)
N3 N -0.5507(3) -0.04815(10) 0.2751(5)
N4 N -0.3196(4) 0.0000 0.4987(7)
C1 C -0.5350(4) -0.22309(12) 0.0740(5)
C2 C -0.5712(4) -0.26394(13) 0.1518(6)
H1 H -0.5485 -0.2942 0.1152
C3 C -0.6407(4) -0.25978(14) 0.2833(6)
H2 H -0.6670 -0.2872 0.3381
C4 C -0.6720(4) -0.21493(14) 0.3346(6)
H3 H -0.7216 -0.2114 0.4220
C5 C -0.6298(4) -0.17554(13) 0.2568(6)
H4 H -0.6495 -0.1450 0.2949
C6 C -0.5426(3) -0.07751(12) 0.1602(6)
C7 C -0.3285(4) -0.12557(11) 0.2463(6)
C8 C -0.3026(5) 0.0000 0.3099(8)
H5 H -0.3782 0.0000 0.1740
C9 C -0.1790(5) 0.0000 0.3062(8)
H6 H -0.1712 0.0000 0.1685
C10 C -0.0670(6) 0.0000 0.4986(10)
C11 C -0.2153(7) 0.0146(3) 0.6806(12)
C12 C -0.0890(7) 0.0174(3) 0.6893(12)
Co1_2 Co 0.5000 0.0000 0.5000
Fe1_2 Fe -0.5000 -0.12601(2) 1.0000
Fe1D Fe -0.5000 0.12601(2) 1.0000
Fe1D_2 Fe -0.5000 0.12601(2) 0.0000
N1A N -0.4383(3) -0.17925(10) -0.1290(5)
N1A_2 N -0.4383(3) -0.17925(10) 0.8710(5)
N1_2 N -0.5617(3) -0.17925(10) 1.1290(5)
N2A N -0.7713(4) -0.12575(11) -0.3983(6)
N2A_2 N -0.7713(4) -0.12575(11) 0.6017(6)
N2_2 N -0.2287(4) -0.12575(11) 1.3983(6)
N3A N -0.4493(3) -0.04815(10) 0.7249(5)
N3D N -0.4493(3) 0.04815(10) 0.7249(5)
N3E N -0.5507(3) 0.04815(10) 0.2751(5)
N4A N 0.3196(4) 0.0000 0.5013(7)
N4A_2 N -0.6804(4) 0.0000 0.5013(7)
C1A C -0.4650(4) -0.22309(12) -0.0740(5)
C1A_2 C -0.4650(4) -0.22309(12) 0.9260(5)
C1_2 C -0.5350(4) -0.22309(12) 1.0740(5)
C2A C -0.4288(4) -0.26394(13) -0.1518(6)
C2A_2 C -0.4288(4) -0.26394(13) 0.8482(6)
C2_2 C -0.5712(4) -0.26394(13) 1.1518(6)
H1A H -0.4515 -0.2942 -0.1152
H1A_2 H -0.4515 -0.2942 0.8848
H1_2 H -0.5485 -0.2942 1.1152
C3A C -0.3593(4) -0.25978(14) -0.2833(6)
C3A_2 C -0.3593(4) -0.25978(14) 0.7167(6)
C3_2 C -0.6407(4) -0.25978(14) 1.2833(6)
H2A H -0.3330 -0.2872 -0.3381
H2A_2 H -0.3330 -0.2872 0.6619
H2_2 H -0.6670 -0.2872 1.3381
C4A C -0.3280(4) -0.21493(14) -0.3346(6)
C4A_2 C -0.3280(4) -0.21493(14) 0.6654(6)
C4_2 C -0.6720(4) -0.21493(14) 1.3346(6)
H3A H -0.2784 -0.2114 -0.4220
H3A_2 H -0.2784 -0.2114 0.5780
H3_2 H -0.7216 -0.2114 1.4220
C5A C -0.3702(4) -0.17554(13) -0.2568(6)
C5A_2 C -0.3702(4) -0.17554(13) 0.7432(6)
C5_2 C -0.6298(4) -0.17554(13) 1.2568(6)
H4A H -0.3505 -0.1450 -0.2949
H4A_2 H -0.3505 -0.1450 0.7051
H4_2 H -0.6495 -0.1450 1.2949
C6A C -0.4574(3) -0.07751(12) 0.8398(6)
C6D C -0.4574(3) 0.07751(12) 0.8398(6)
C6E C -0.5426(3) 0.07751(12) 0.1602(6)
C6A_2 C -0.4574(3) -0.07751(12) -0.1602(6)
C6_2 C -0.5426(3) -0.07751(12) 1.1602(6)
C7A C -0.6715(4) -0.12557(11) -0.2463(6)
C7A_2 C -0.6715(4) -0.12557(11) 0.7537(6)
C7_2 C -0.3285(4) -0.12557(11) 1.2463(6)
C8A C 0.3026(5) 0.0000 0.6901(8)
H5A H 0.3782 0.0000 0.8260
C9A C 0.1790(5) 0.0000 0.6938(8)
H6A H 0.1712 0.0000 0.8315
C10A C 0.0670(6) 0.0000 0.5014(10)
C11A C 0.2153(7) 0.0146(3) 0.3194(12)
C11D C 0.2153(7) -0.0146(3) 0.3194(12)
C11E C -0.2153(7) -0.0146(3) 0.6806(12)
C12D C 0.0890(7) -0.0174(3) 0.3107(12)
C12A C 0.0890(7) 0.0174(3) 0.3107(12)
C12E C -0.0890(7) -0.0174(3) 0.6893(12)
O1 O -0.0240(12) 0.1335(4) 0.8449(15)
O2? O 0.0174(9) 0.0945(5) 0.7734(14)
loop_
_geom_bond_atom_site_label_1
_geom_bond_atom_site_label_2
_geom_bond_site_symmetry_1
_geom_bond_site_symmetry_2
Co1 N3 1_555 1_555
Fe1 N1 1_555 1_555
N1 C1 1_555 1_555
N2 C7 1_555 1_555
N3 C6 1_555 1_555
N4 Co1 1_555 1_555
C1 C2 1_555 1_555
C2 H1 1_555 1_555
C3 C2 1_555 1_555
H2 C3 1_555 1_555
C4 C3 1_555 1_555
H3 C4 1_555 1_555
C5 N1 1_555 1_555
H4 C5 1_555 1_555
C6 Fe1 1_555 1_555
C7 Fe1 1_555 1_555
C8 N4 1_555 1_555
H5 C8 1_555 1_555
C9 C8 1_555 1_555
H6 C9 1_555 1_555
C10 C9 1_555 1_555
C11 N4 1_555 1_555
C12 C10 1_555 1_555
Co1_2 N4A 1_555 1_555
Fe1_2 N1A_2 1_555 1_555
Fe1D C6D 1_555 1_555
Fe1D_2 C6E 1_555 1_555
N1A Fe1 1_555 1_555
N1A_2 C1A_2 1_555 1_555
N1_2 Fe1_2 1_555 1_555
N2A C7A 1_555 1_555
N2A_2 C7A_2 1_555 1_555
N2_2 C7_2 1_555 1_555
N3A Co1 1_555 1_555
N3D Co1 1_555 1_555
N3E Co1 1_555 1_555
N4A C8A 1_555 1_555
N4A_2 Co1 1_555 1_555
C1A C1 1_555 1_555
C1A_2 C1_2 1_555 1_555
C1_2 N1_2 1_555 1_555
C2A C1A 1_555 1_555
C2A_2 C1A_2 1_555 1_555
C2_2 C1_2 1_555 1_555
H1A C2A 1_555 1_555
H1A_2 C2A_2 1_555 1_555
H1_2 C2_2 1_555 1_555
C3A C2A 1_555 1_555
C3A_2 C2A_2 1_555 1_555
C3_2 C2_2 1_555 1_555
H2A C3A 1_555 1_555
H2A_2 C3A_2 1_555 1_555
H2_2 C3_2 1_555 1_555
C4A C3A 1_555 1_555
C4A_2 C3A_2 1_555 1_555
C4_2 C3_2 1_555 1_555
H3A C4A 1_555 1_555
H3A_2 C4A_2 1_555 1_555
H3_2 C4_2 1_555 1_555
C5A N1A 1_555 1_555
C5A_2 N1A_2 1_555 1_555
C5_2 N1_2 1_555 1_555
H4A C5A 1_555 1_555
H4A_2 C5A_2 1_555 1_555
H4_2 C5_2 1_555 1_555
C6A Fe1_2 1_555 1_555
C6D N3D 1_555 1_555
C6E N3E 1_555 1_555
C6A_2 Fe1 1_555 1_555
C6_2 Fe1_2 1_555 1_555
C7A Fe1 1_555 1_555
C7A_2 Fe1_2 1_555 1_555
C7_2 Fe1_2 1_555 1_555
C8A H5A 1_555 1_555
C9A C8A 1_555 1_555
H6A C9A 1_555 1_555
C10A C10 1_555 1_555
C11A N4A 1_555 1_555
C11D N4A 1_555 1_555
C11E N4 1_555 1_555
C12D C10A 1_555 1_555
C12A C10A 1_555 1_555
C12E C10 1_555 1_555
C4 C5 1_555 1_555
C11 C12 1_555 1_555
C11 C11E 1_555 1_555
C11 C12E 1_555 1_555
C12 C11E 1_555 1_555
C12 C12E 1_555 1_555
N1A C1A 1_555 1_555
N3A C6A 1_555 1_555
C4A C5A 1_555 1_555
C4A_2 C5A_2 1_555 1_555
C4_2 C5_2 1_555 1_555
C9A C10A 1_555 1_555
C11A C11D 1_555 1_555
C11A C12D 1_555 1_555
C11A C12A 1_555 1_555
C11D C12D 1_555 1_555
C11D C12A 1_555 1_555
C11E C12E 1_555 1_555
C12D C12A 1_555 1_555

#END
