
#######################################################################
#
#                 Cambridge Crystallographic Data Centre
#                                CCDC 
#
#######################################################################
#
# If this CIF has been generated from an entry in the Cambridge 
# Structural Database, then it will include bibliographic, chemical, 
# crystal, experimental, refinement or atomic coordinate data resulting 
# from the CCDC's data processing and validation procedures.
#
#######################################################################

data_YUZKOU01
_symmetry_cell_setting           monoclinic
_symmetry_space_group_name_H-M   'C 2/m'
_symmetry_Int_Tables_number      12
_space_group_name_Hall           '-C 2y'
loop_
_symmetry_equiv_pos_site_id
_symmetry_equiv_pos_as_xyz
1 x,y,z
2 -x,y,-z
3 1/2+x,1/2+y,z
4 1/2-x,1/2+y,-z
5 -x,-y,-z
6 x,-y,z
7 1/2-x,1/2-y,-z
8 1/2+x,1/2-y,z
_cell_length_a                   11.134(2)
_cell_length_b                   28.383(6)
_cell_length_c                   6.6499(13)
_cell_angle_alpha                90
_cell_angle_beta                 113.70(3)
_cell_angle_gamma                90
_cell_volume                     1924.24
loop_
_atom_site_label
_atom_site_type_symbol
_atom_site_fract_x
_atom_site_fract_y
_atom_site_fract_z
Co1 Co 1.0000 0.0000 0.0000
Fe1 Fe 1.0000 -0.12667(3) 0.5000
C1 C 0.7154(9) 0.0139(3) -0.1799(15)
N1 N 0.9386(3) -0.17971(12) 0.6291(5)
C2 C 0.8709(4) -0.17601(16) 0.7548(7)
H1 H 0.8506 -0.1456 0.7916
C3 C 0.8295(5) -0.21518(17) 0.8329(8)
H2 H 0.7806 -0.2116 0.9206
C4 C 0.8598(5) -0.25956(16) 0.7822(8)
H3 H 0.8334 -0.2868 0.8367
C5 C 0.9290(5) -0.26388(15) 0.6515(7)
H4 H 0.9514 -0.2941 0.6157
C6 C 0.9654(4) -0.22331(14) 0.5731(6)
C7 C 1.0432(4) -0.07815(14) 0.3421(6)
N2 N 1.0521(4) -0.04894(11) 0.2295(6)
C8 C 1.1706(5) -0.12619(14) 0.7453(7)
N3 N 1.2692(4) -0.12642(14) 0.8959(7)
N4 N 0.8185(5) 0.0000 0.0025(7)
C9 C 0.8005(6) 0.0000 0.1890(10)
H5 H 0.8752 0.0000 0.3246
C10 C 0.6774(6) 0.0000 0.1926(10)
H6 H 0.6696 0.0000 0.3297
C11 C 0.5665(7) 0.0000 0.0021(11)
C12 C 0.5885(9) 0.0166(3) -0.1887(14)
Co1_2 Co 0.0000 0.0000 0.0000
Fe1_2 Fe 1.0000 -0.12667(3) -0.5000
Fe1D Fe 1.0000 0.12667(3) -0.5000
Fe1D_2 Fe 1.0000 0.12667(3) 0.5000
C1E C 0.7154(9) -0.0139(3) -0.1799(15)
C1A C 0.2846(9) 0.0139(3) 0.1799(15)
C1D C 0.2846(9) -0.0139(3) 0.1799(15)
N1A N 1.0614(3) -0.17971(12) 0.3709(5)
N1A_2 N 1.0614(3) -0.17971(12) -0.6291(5)
N1_2 N 0.9386(3) -0.17971(12) -0.3709(5)
C2A C 1.1291(4) -0.17601(16) 0.2452(7)
C2A_2 C 1.1291(4) -0.17601(16) -0.7548(7)
C2_2 C 0.8709(4) -0.17601(16) -0.2452(7)
H1A H 1.1494 -0.1456 0.2084
H1A_2 H 1.1494 -0.1456 -0.7916
H1_2 H 0.8506 -0.1456 -0.2084
C3A C 1.1705(5) -0.21518(17) 0.1671(8)
C3A_2 C 1.1705(5) -0.21518(17) -0.8329(8)
C3_2 C 0.8295(5) -0.21518(17) -0.1671(8)
H2A H 1.2194 -0.2116 0.0794
H2A_2 H 1.2194 -0.2116 -0.9206
H2_2 H 0.7806 -0.2116 -0.0794
C4A C 1.1402(5) -0.25956(16) 0.2178(8)
C4A_2 C 1.1402(5) -0.25956(16) -0.7822(8)
C4_2 C 0.8598(5) -0.25956(16) -0.2178(8)
H3A H 1.1666 -0.2868 0.1633
H3A_2 H 1.1666 -0.2868 -0.8367
H3_2 H 0.8334 -0.2868 -0.1633
C5A C 1.0710(5) -0.26388(15) 0.3485(7)
C5A_2 C 1.0710(5) -0.26388(15) -0.6515(7)
C5_2 C 0.9290(5) -0.26388(15) -0.3485(7)
H4A H 1.0486 -0.2941 0.3843
H4A_2 H 1.0486 -0.2941 -0.6157
H4_2 H 0.9514 -0.2941 -0.3843
C6A C 1.0346(4) -0.22331(14) 0.4269(6)
C6A_2 C 1.0346(4) -0.22331(14) -0.5731(6)
C6_2 C 0.9654(4) -0.22331(14) -0.4269(6)
C7A C 0.9568(4) -0.07815(14) -0.3421(6)
C7D C 0.9568(4) 0.07815(14) -0.3421(6)
C7E C 1.0432(4) 0.07815(14) 0.3421(6)
C7A_2 C 0.9568(4) -0.07815(14) 0.6579(6)
C7_2 C 1.0432(4) -0.07815(14) -0.6579(6)
N2A N 0.9479(4) -0.04894(11) -0.2295(6)
N2D N 0.9479(4) 0.04894(11) -0.2295(6)
N2E N 1.0521(4) 0.04894(11) 0.2295(6)
C8A C 0.8294(5) -0.12619(14) 0.2547(7)
C8A_2 C 0.8294(5) -0.12619(14) -0.7453(7)
C8_2 C 1.1706(5) -0.12619(14) -0.2547(7)
N3A N 0.7308(4) -0.12642(14) 0.1041(7)
N3A_2 N 0.7308(4) -0.12642(14) -0.8959(7)
N3_2 N 1.2692(4) -0.12642(14) -0.1041(7)
N4A N 0.1815(5) 0.0000 -0.0025(7)
N4A_2 N 1.1815(5) 0.0000 -0.0025(7)
C9A C 0.1995(6) 0.0000 -0.1890(10)
H5A H 0.1248 0.0000 -0.3246
C10A C 0.3226(6) 0.0000 -0.1926(10)
H6A H 0.3304 0.0000 -0.3297
C11A C 0.4335(7) 0.0000 -0.0021(11)
C12E C 0.5885(9) -0.0166(3) -0.1887(14)
C12A C 0.4115(9) 0.0166(3) 0.1887(14)
C12D C 0.4115(9) -0.0166(3) 0.1887(14)
O1 O 0.0156(11) 0.3982(9) 0.268(2)
O2? O -0.035(2) 0.3654(5) 0.346(2)
loop_
_geom_bond_atom_site_label_1
_geom_bond_atom_site_label_2
_geom_bond_site_symmetry_1
_geom_bond_site_symmetry_2
Co1 N2 1_555 1_555
Fe1 N1 1_555 1_555
C1 N4 1_555 1_555
N1 C2 1_555 1_555
C2 H1 1_555 1_555
C3 C2 1_555 1_555
H2 C3 1_555 1_555
C4 C3 1_555 1_555
H3 C4 1_555 1_555
C5 C4 1_555 1_555
H4 C5 1_555 1_555
C6 N1 1_555 1_555
C7 Fe1 1_555 1_555
N2 C7 1_555 1_555
C8 Fe1 1_555 1_555
N3 C8 1_555 1_555
N4 Co1 1_555 1_555
C9 N4 1_555 1_555
H5 C9 1_555 1_555
C10 C9 1_555 1_555
H6 C10 1_555 1_555
C11 C10 1_555 1_555
C12 C1 1_555 1_555
Co1_2 N4A 1_555 1_555
Fe1_2 N1A_2 1_555 1_555
Fe1D C7D 1_555 1_555
Fe1D_2 C7E 1_555 1_555
C1E C1 1_555 1_555
C1A C1D 1_555 1_555
C1D N4A 1_555 1_555
N1A Fe1 1_555 1_555
N1A_2 C2A_2 1_555 1_555
N1_2 Fe1_2 1_555 1_555
C2A N1A 1_555 1_555
C2A_2 H1A_2 1_555 1_555
C2_2 N1_2 1_555 1_555
H1A C2A 1_555 1_555
H1_2 C2_2 1_555 1_555
C3A C2A 1_555 1_555
C3A_2 C2A_2 1_555 1_555
C3_2 C2_2 1_555 1_555
H2A C3A 1_555 1_555
H2A_2 C3A_2 1_555 1_555
H2_2 C3_2 1_555 1_555
C4A C3A 1_555 1_555
C4A_2 C3A_2 1_555 1_555
C4_2 C3_2 1_555 1_555
H3A C4A 1_555 1_555
H3A_2 C4A_2 1_555 1_555
H3_2 C4_2 1_555 1_555
C5A C4A 1_555 1_555
C5A_2 C4A_2 1_555 1_555
C5_2 C4_2 1_555 1_555
H4A C5A 1_555 1_555
H4A_2 C5A_2 1_555 1_555
H4_2 C5_2 1_555 1_555
C6A C6 1_555 1_555
C6A_2 N1A_2 1_555 1_555
C6_2 N1_2 1_555 1_555
C7A Fe1_2 1_555 1_555
C7D N2D 1_555 1_555
C7E N2E 1_555 1_555
C7A_2 Fe1 1_555 1_555
C7_2 Fe1_2 1_555 1_555
N2A Co1 1_555 1_555
N2D Co1 1_555 1_555
N2E Co1 1_555 1_555
C8A Fe1 1_555 1_555
C8A_2 Fe1_2 1_555 1_555
C8_2 Fe1_2 1_555 1_555
N3A C8A 1_555 1_555
N3A_2 C8A_2 1_555 1_555
N3_2 C8_2 1_555 1_555
N4A C1A 1_555 1_555
N4A_2 Co1 1_555 1_555
C9A N4A 1_555 1_555
H5A C9A 1_555 1_555
C10A C9A 1_555 1_555
H6A C10A 1_555 1_555
C11A C11 1_555 1_555
C12E C1 1_555 1_555
C12A C1A 1_555 1_555
C12D C1A 1_555 1_555
C5 C6 1_555 1_555
N4 C1E 1_555 1_555
C11 C12 1_555 1_555
C11 C12E 1_555 1_555
C12 C1E 1_555 1_555
C12 C12E 1_555 1_555
C1E C12E 1_555 1_555
C1D C12A 1_555 1_555
C1D C12D 1_555 1_555
N1A C6A 1_555 1_555
C5A C6A 1_555 1_555
C5A_2 C6A_2 1_555 1_555
C5_2 C6_2 1_555 1_555
C6A_2 C6_2 1_555 1_555
C7A N2A 1_555 1_555
C10A C11A 1_555 1_555
C11A C12A 1_555 1_555
C11A C12D 1_555 1_555
C12A C12D 1_555 1_555

#END
