
#######################################################################
#
#                 Cambridge Crystallographic Data Centre
#                                CCDC 
#
#######################################################################
#
# If this CIF has been generated from an entry in the Cambridge 
# Structural Database, then it will include bibliographic, chemical, 
# crystal, experimental, refinement or atomic coordinate data resulting 
# from the CCDC's data processing and validation procedures.
#
#######################################################################

data_YUZRAM
_symmetry_cell_setting           monoclinic
_symmetry_space_group_name_H-M   'P 21/c'
_symmetry_Int_Tables_number      14
_space_group_name_Hall           '-P 2ybc'
loop_
_symmetry_equiv_pos_site_id
_symmetry_equiv_pos_as_xyz
1 x,y,z
2 -x,1/2+y,1/2-z
3 -x,-y,-z
4 x,1/2-y,1/2+z
_cell_length_a                   13.276(7)
_cell_length_b                   12.909(3)
_cell_length_c                   20.627(4)
_cell_angle_alpha                90
_cell_angle_beta                 94.53(2)
_cell_angle_gamma                90
_cell_volume                     3524.01
loop_
_atom_site_label
_atom_site_type_symbol
_atom_site_fract_x
_atom_site_fract_y
_atom_site_fract_z
Ag1 Ag 0.2588(1) 0.6262(1) 0.2416(1)
S1 S 0.3563(2) 0.7232(2) 0.1564(1)
S2 S 0.0842(2) 0.5737(2) 0.1824(1)
S3 S -0.2137(2) 0.2742(2) 0.1823(1)
S4 S 0.6463(2) 0.9552(2) 0.2335(1)
C1 C 0.4284(8) 0.8277(8) 0.1965(5)
C2 C 0.4875(8) 0.8890(7) 0.1479(6)
C3 C 0.5440(9) 0.9838(8) 0.1758(8)
C4 C 0.0275(7) 0.4693(7) 0.2266(4)
C5 C -0.0655(6) 0.4246(6) 0.1897(4)
C6 C -0.1046(6) 0.3332(7) 0.2247(4)
C7 C 0.4478(5) 0.6294(5) 0.1406(3)
C8 C 0.5425(5) 0.6222(6) 0.1742(4)
C9 C 0.6080(5) 0.5428(7) 0.1600(5)
C10 C 0.5787(8) 0.4706(7) 0.1122(6)
C11 C 0.4840(9) 0.4778(8) 0.0786(5)
C12 C 0.4186(6) 0.5572(7) 0.0928(4)
C13 C 0.1194(5) 0.5142(4) 0.1112(3)
C14 C 0.1213(6) 0.5780(5) 0.0570(4)
C15 C 0.1519(7) 0.5386(8) -0.0010(3)
C16 C 0.1806(7) 0.4353(8) -0.0048(3)
C17 C 0.1787(7) 0.3715(5) 0.0494(4)
C18 C 0.1481(6) 0.4109(4) 0.1073(3)
C19 C -0.1668(4) 0.2186(5) 0.1117(2)
C20 C -0.0675(4) 0.1859(5) 0.1084(3)
C21 C -0.0381(5) 0.1403(5) 0.0518(4)
C22 C -0.1078(7) 0.1274(6) -0.0014(3)
C23 C -0.2071(7) 0.1601(6) 0.0019(3)
C24 C -0.2365(4) 0.2057(5) 0.0584(3)
C25 C 0.7313(5) 0.8919(5) 0.1831(4)
C26 C 0.7723(6) 0.9377(4) 0.1301(4)
C27 C 0.8457(7) 0.8859(6) 0.0982(4)
C28 C 0.8780(6) 0.7882(6) 0.1191(4)
C29 C 0.8370(5) 0.7424(4) 0.1721(4)
C30 C 0.7637(5) 0.7942(5) 0.2040(3)
H1 H 0.3828(8) 0.8741(8) 0.2169(5)
H2 H 0.4753(8) 0.7993(8) 0.2303(5)
H3 H 0.4405(8) 0.9113(7) 0.1122(6)
H4 H 0.5359(8) 0.8428(7) 0.1301(6)
H5 H 0.4966(9) 1.0280(8) 0.1962(8)
H6 H 0.5696(9) 1.0225(8) 0.1403(8)
H7 H 0.0770(7) 0.4146(7) 0.2350(4)
H8 H 0.0094(7) 0.4953(7) 0.2682(4)
H9 H -0.1176(6) 0.4773(6) 0.1848(4)
H10 H -0.0491(6) 0.4036(6) 0.1467(4)
H11 H -0.1219(6) 0.3551(7) 0.2674(4)
H12 H -0.0513(6) 0.2819(7) 0.2308(4)
H13 H 0.5621(8) 0.6705(8) 0.2062(5)
H14 H 0.6713(6) 0.5379(11) 0.1825(7)
H15 H 0.6225(10) 0.4174(10) 0.1027(8)
H16 H 0.4645(13) 0.4295(10) 0.0466(7)
H17 H 0.3552(8) 0.5620(10) 0.0703(6)
H18 H 0.1021(9) 0.6470(5) 0.0595(5)
H19 H 0.1533(10) 0.5813(10) -0.0372(4)
H20 H 0.2011(10) 0.4089(11) -0.0436(4)
H21 H 0.1979(10) 0.3024(6) 0.0468(6)
H22 H 0.1468(9) 0.3682(6) 0.1436(4)
H23 H -0.0208(5) 0.1946(8) 0.1440(4)
H24 H 0.0283(5) 0.1185(8) 0.0496(5)
H25 H -0.0881(10) 0.0970(8) -0.0393(3)
H26 H -0.2538(8) 0.1515(9) -0.0338(4)
H27 H -0.3030(4) 0.2276(8) 0.0606(5)
H28 H 0.7507(9) 1.0031(5) 0.1161(5)
H29 H 0.8731(10) 0.9166(9) 0.0628(5)
H30 H 0.9271(8) 0.7535(8) 0.0978(6)
H31 H 0.8587(8) 0.6770(5) 0.1861(6)
H32 H 0.7362(8) 0.7635(7) 0.2394(4)
S4A S 0.3537(2) 0.4552(2) 0.2665(1)
S3A S 0.2137(2) 0.7742(2) 0.3177(1)
Ag1A Ag 0.7412(1) 1.1262(1) 0.2584(1)
Ag1A_2 Ag -0.2588(1) 0.1262(1) 0.2584(1)
B1 B 0.2147(14) 0.0660(14) 0.1631(7)
F1 F 0.1383(15) 0.1069(13) 0.1934(9)
F2 F 0.2021(16) 0.0922(16) 0.0948(9)
F3 F 0.3125(17) 0.1108(15) 0.1816(10)
F4 F 0.1438(42) -0.0210(35) 0.1498(20)
O1 O 0.4804(28) 0.1907(31) 0.0420(18)
F5? F 0.1887(26) 0.1604(29) 0.1475(16)
F6? F 0.2184(24) -0.0427(21) 0.1583(12)
F7? F 0.2573(25) 0.0361(29) 0.2171(18)
F8? F 0.2579(36) 0.0168(38) 0.1114(21)
loop_
_geom_bond_atom_site_label_1
_geom_bond_atom_site_label_2
_geom_bond_site_symmetry_1
_geom_bond_site_symmetry_2
Ag1 S1 1_555 1_555
S1 C1 1_555 1_555
S2 Ag1 1_555 1_555
S3 C6 1_555 1_555
S4 C3 1_555 1_555
C1 C2 1_555 1_555
C2 C3 1_555 1_555
C3 H5 1_555 1_555
C4 S2 1_555 1_555
C5 C4 1_555 1_555
C6 C5 1_555 1_555
C7 S1 1_555 1_555
C8 C7 1_555 1_555
C9 C8 1_555 1_555
C10 C9 1_555 1_555
C11 C10 1_555 1_555
C12 C7 1_555 1_555
C13 S2 1_555 1_555
C14 C13 1_555 1_555
C15 C14 1_555 1_555
C16 C15 1_555 1_555
C17 C16 1_555 1_555
C18 C13 1_555 1_555
C19 S3 1_555 1_555
C20 C19 1_555 1_555
C21 C20 1_555 1_555
C22 C21 1_555 1_555
C23 C22 1_555 1_555
C24 C19 1_555 1_555
C25 S4 1_555 1_555
C26 C25 1_555 1_555
C27 C26 1_555 1_555
C28 C27 1_555 1_555
C29 C28 1_555 1_555
C30 C25 1_555 1_555
B1 F1 1_555 1_555
F2 B1 1_555 1_555
F3 B1 1_555 1_555
F4 B1 1_555 1_555
H1 C1 1_555 1_555
H2 C1 1_555 1_555
H3 C2 1_555 1_555
H4 C2 1_555 1_555
H6 C3 1_555 1_555
H7 C4 1_555 1_555
H8 C4 1_555 1_555
H9 C5 1_555 1_555
H10 C5 1_555 1_555
H11 C6 1_555 1_555
H12 C6 1_555 1_555
H13 C8 1_555 1_555
H14 C9 1_555 1_555
H15 C10 1_555 1_555
H16 C11 1_555 1_555
H17 C12 1_555 1_555
H18 C14 1_555 1_555
H19 C15 1_555 1_555
H20 C16 1_555 1_555
H21 C17 1_555 1_555
H22 C18 1_555 1_555
H23 C20 1_555 1_555
H24 C21 1_555 1_555
H25 C22 1_555 1_555
H26 C23 1_555 1_555
H27 C24 1_555 1_555
H28 C26 1_555 1_555
H29 C27 1_555 1_555
H30 C28 1_555 1_555
H31 C29 1_555 1_555
H32 C30 1_555 1_555
S4A Ag1 1_555 1_555
S3A Ag1 1_555 1_555
Ag1A S4 1_555 1_555
Ag1A_2 S3 1_555 1_555
C11 C12 1_555 1_555
C17 C18 1_555 1_555
C23 C24 1_555 1_555
C29 C30 1_555 1_555

#END
