
#######################################################################
#
#                 Cambridge Crystallographic Data Centre
#                                CCDC 
#
#######################################################################
#
# If this CIF has been generated from an entry in the Cambridge 
# Structural Database, then it will include bibliographic, chemical, 
# crystal, experimental, refinement or atomic coordinate data resulting 
# from the CCDC's data processing and validation procedures.
#
#######################################################################

data_YUZSUI
_symmetry_cell_setting           tetragonal
_symmetry_space_group_name_H-M   'P -4 b 2'
_symmetry_Int_Tables_number      117
_space_group_name_Hall           'P -4 -2ab'
loop_
_symmetry_equiv_pos_site_id
_symmetry_equiv_pos_as_xyz
1 x,y,z
2 -x,-y,z
3 y,-x,-z
4 -y,x,-z
5 1/2+x,1/2-y,z
6 1/2-x,1/2+y,z
7 1/2+y,1/2+x,-z
8 1/2-y,1/2-x,-z
_cell_length_a                   13.7871(10)
_cell_length_b                   13.7871(10)
_cell_length_c                   3.7439(6)
_cell_angle_alpha                90
_cell_angle_beta                 90
_cell_angle_gamma                90
_cell_volume                     711.656
loop_
_atom_site_label
_atom_site_type_symbol
_atom_site_fract_x
_atom_site_fract_y
_atom_site_fract_z
Co1 Co 1.0000 0.5000 1.0000
Cl1 Cl 0.91442(11) 0.58558(11) 0.5000
Br1 Br 1.13096(5) 0.89843(4) 0.70796(19)
N1 N 1.1126(4) 0.6126(4) 1.0000
C1 C 1.0927(5) 0.7034(5) 0.8854(19)
H1 H 1.0291 0.7184 0.8057
C2 C 1.1629(5) 0.7746(5) 0.8817(16)
C3 C 1.2557(4) 0.7557(4) 1.0000
H2 H 1.3044 0.8044 1.0000
Co1_2 Co 1.0000 0.5000 0.0000
Cl1_2 Cl 0.91442(11) 0.58558(11) 1.5000
Cl1A Cl 1.08558(11) 0.41442(11) 0.5000
Cl1A_2 Cl 1.08558(11) 0.41442(11) 1.5000
Br1F Br 1.39843(4) 0.63096(5) 1.29204(19)
Br1A Br 0.86904(5) 0.10157(4) 0.70796(19)
Br1G Br 0.60157(4) 0.36904(5) 1.29204(19)
N1A N 0.8874(4) 0.3874(4) 1.0000
C1F C 1.2034(5) 0.5927(5) 1.1146(19)
C1A C 0.9073(5) 0.2966(5) 0.8854(19)
C1G C 0.7966(5) 0.4073(5) 1.1146(19)
H1F H 1.2184 0.5291 1.1943
H1A H 0.9709 0.2816 0.8057
H1G H 0.7816 0.4709 1.1943
C2F C 1.2746(5) 0.6629(5) 1.1183(16)
C2A C 0.8371(5) 0.2254(5) 0.8817(16)
C2G C 0.7254(5) 0.3371(5) 1.1183(16)
C3A C 0.7443(4) 0.2443(4) 1.0000
H2A H 0.6956 0.1956 1.0000
loop_
_geom_bond_atom_site_label_1
_geom_bond_atom_site_label_2
_geom_bond_site_symmetry_1
_geom_bond_site_symmetry_2
Co1 Cl1 1_555 1_555
Cl1 Co1_2 1_555 1_555
Br1 C2 1_555 1_555
N1 Co1 1_555 1_555
C1 N1 1_555 1_555
H1 C1 1_555 1_555
C2 C1 1_555 1_555
C3 C2 1_555 1_555
H2 C3 1_555 1_555
Co1_2 Cl1A 1_555 1_555
Cl1_2 Co1 1_555 1_555
Cl1A Co1 1_555 1_555
Cl1A_2 Co1 1_555 1_555
Br1F C2F 1_555 1_555
Br1A C2A 1_555 1_555
Br1G C2G 1_555 1_555
N1A Co1 1_555 1_555
C1F N1 1_555 1_555
C1A N1A 1_555 1_555
C1G N1A 1_555 1_555
H1F C1F 1_555 1_555
H1A C1A 1_555 1_555
H1G C1G 1_555 1_555
C2F C3 1_555 1_555
C2A C1A 1_555 1_555
C2G C1G 1_555 1_555
C3A C2A 1_555 1_555
H2A C3A 1_555 1_555
C1F C2F 1_555 1_555
C2G C3A 1_555 1_555

#END
