
#######################################################################
#
#                 Cambridge Crystallographic Data Centre
#                                CCDC 
#
#######################################################################
#
# If this CIF has been generated from an entry in the Cambridge 
# Structural Database, then it will include bibliographic, chemical, 
# crystal, experimental, refinement or atomic coordinate data resulting 
# from the CCDC's data processing and validation procedures.
#
#######################################################################

data_YUZSOC
_symmetry_cell_setting           tetragonal
_symmetry_space_group_name_H-M   'P -4 b 2'
_symmetry_Int_Tables_number      117
_space_group_name_Hall           'P -4 -2ab'
loop_
_symmetry_equiv_pos_site_id
_symmetry_equiv_pos_as_xyz
1 x,y,z
2 -x,-y,z
3 y,-x,-z
4 -y,x,-z
5 1/2+x,1/2-y,z
6 1/2-x,1/2+y,z
7 1/2+y,1/2+x,-z
8 1/2-y,1/2-x,-z
_cell_length_a                   13.7352(11)
_cell_length_b                   13.7352(11)
_cell_length_c                   3.6340(4)
_cell_angle_alpha                90
_cell_angle_beta                 90
_cell_angle_gamma                90
_cell_volume                     685.575
loop_
_atom_site_label
_atom_site_type_symbol
_atom_site_fract_x
_atom_site_fract_y
_atom_site_fract_z
Co1 Co 0.5000 0.0000 0.5000
Cl1 Cl 0.41370(5) 0.08630(5) 0.0000
N1 N 0.3873(2) -0.1127(2) 0.5000
C1 C 0.2956(3) -0.0916(3) 0.3995(10)
H1 H 0.2797 -0.0268 0.3308
C2 C 0.2243(3) -0.1620(3) 0.3942(10)
Cl2 Cl 0.10809(6) -0.12978(7) 0.2488(3)
C3 C 0.2438(2) -0.2562(2) 0.5000
H2 H 0.1949 -0.3051 0.5000
Co1_2 Co 0.5000 0.0000 -0.5000
Cl1_2 Cl 0.41370(5) 0.08630(5) 1.0000
Cl1A Cl 0.58630(5) -0.08630(5) 0.0000
Cl1A_2 Cl 0.58630(5) -0.08630(5) 1.0000
N1A N 0.6127(2) 0.1127(2) 0.5000
C1F C 0.4084(3) -0.2044(3) 0.6005(10)
C1A C 0.7044(3) 0.0916(3) 0.3995(10)
C1G C 0.5916(3) 0.2044(3) 0.6005(10)
H1F H 0.4732 -0.2203 0.6692
H1A H 0.7203 0.0268 0.3308
H1G H 0.5268 0.2203 0.6692
C2F C 0.3380(3) -0.2757(3) 0.6058(10)
C2A C 0.7757(3) 0.1620(3) 0.3942(10)
C2G C 0.6620(3) 0.2757(3) 0.6058(10)
Cl2F Cl 0.37022(7) -0.39191(6) 0.7512(3)
Cl2A Cl 0.89191(6) 0.12978(7) 0.2488(3)
Cl2G Cl 0.62978(7) 0.39191(6) 0.7512(3)
C3A C 0.7562(2) 0.2562(2) 0.5000
H2A H 0.8051 0.3051 0.5000
loop_
_geom_bond_atom_site_label_1
_geom_bond_atom_site_label_2
_geom_bond_site_symmetry_1
_geom_bond_site_symmetry_2
Co1 Cl1 1_555 1_555
Cl1 Co1_2 1_555 1_555
N1 Co1 1_555 1_555
C1 N1 1_555 1_555
H1 C1 1_555 1_555
C2 C1 1_555 1_555
Cl2 C2 1_555 1_555
C3 C2 1_555 1_555
H2 C3 1_555 1_555
Co1_2 Cl1A 1_555 1_555
Cl1_2 Co1 1_555 1_555
Cl1A Co1 1_555 1_555
Cl1A_2 Co1 1_555 1_555
N1A Co1 1_555 1_555
C1F N1 1_555 1_555
C1A N1A 1_555 1_555
C1G N1A 1_555 1_555
H1F C1F 1_555 1_555
H1A C1A 1_555 1_555
H1G C1G 1_555 1_555
C2F C3 1_555 1_555
C2A C1A 1_555 1_555
C2G C1G 1_555 1_555
Cl2F C2F 1_555 1_555
Cl2A C2A 1_555 1_555
Cl2G C2G 1_555 1_555
C3A C2A 1_555 1_555
H2A C3A 1_555 1_555
C1F C2F 1_555 1_555
C2G C3A 1_555 1_555

#END
