
#######################################################################
#
#                 Cambridge Crystallographic Data Centre
#                                CCDC 
#
#######################################################################
#
# If this CIF has been generated from an entry in the Cambridge 
# Structural Database, then it will include bibliographic, chemical, 
# crystal, experimental, refinement or atomic coordinate data resulting 
# from the CCDC's data processing and validation procedures.
#
#######################################################################

data_YUZSIW
_symmetry_cell_setting           triclinic
_symmetry_space_group_name_H-M   'P -1'
_symmetry_Int_Tables_number      2
_space_group_name_Hall           '-P 1'
loop_
_symmetry_equiv_pos_site_id
_symmetry_equiv_pos_as_xyz
1 x,y,z
2 -x,-y,-z
_cell_length_a                   9.2796(5)
_cell_length_b                   15.4914(9)
_cell_length_c                   18.8044(11)
_cell_angle_alpha                85.919(5)
_cell_angle_beta                 81.923(4)
_cell_angle_gamma                87.427(4)
_cell_volume                     2667.94
loop_
_atom_site_label
_atom_site_type_symbol
_atom_site_fract_x
_atom_site_fract_y
_atom_site_fract_z
Au1 Au 1.0000 0.0000 0.5000
Au2 Au 0.87685(4) -0.04771(3) 0.64815(2)
Au3 Au 0.59059(4) -0.05393(3) 0.74073(2)
Au4 Au 0.81773(4) -0.02582(3) 0.83726(2)
Au5 Au 1.12880(4) 0.02741(3) 0.84351(2)
Au6 Au 1.0000 0.0000 1.0000
Au7 Au 0.52518(5) -0.01109(3) 0.57409(2)
Au8 Au 1.38242(5) 0.00600(4) 0.95746(3)
S1 S 1.1750(3) 0.0721(2) 0.54542(15)
S2 S 0.9592(3) 0.0790(2) 0.68276(14)
S3 S 0.8389(3) -0.1828(2) 0.61316(15)
S4 S 0.5866(3) -0.2017(2) 0.73382(14)
S5 S 0.5171(3) 0.0892(2) 0.74673(15)
S6 S 0.7081(3) 0.1061(2) 0.86456(15)
S7 S 0.9109(3) -0.1610(2) 0.80906(16)
S8 S 1.2198(3) -0.0965(2) 0.79172(15)
S9 S 1.0811(3) 0.1728(2) 0.85309(14)
S10 S 0.9255(3) 0.1424(2) 1.00593(14)
S11 S 0.3916(3) -0.1340(2) 0.59307(15)
S12 S 0.3460(3) -0.1132(2) 0.43417(15)
S13 S 1.3151(3) 0.1432(3) 0.98876(19)
S14 S 1.5575(3) 0.1286(3) 1.08401(17)
C1 C 1.1102(11) 0.1086(8) 0.6270(6)
C2 C 1.1992(11) 0.1789(7) 0.6534(5)
H1 H 1.2160 0.1632 0.7025
H2 H 1.2931 0.1827 0.6235
C3 C 1.1200(11) 0.2642(8) 0.6502(6)
H3 H 1.0272 0.2592 0.6821
C4 C 1.0875(13) 0.2983(9) 0.5764(7)
H4 H 1.1773 0.3060 0.5448
H5 H 1.0346 0.3528 0.5802
H6 H 1.0301 0.2576 0.5575
C5 C 1.2090(12) 0.3294(8) 0.6795(6)
H7 H 1.2271 0.3095 0.7270
H8 H 1.1564 0.3842 0.6813
H9 H 1.3000 0.3359 0.6486
C6 C 0.7055(11) -0.2355(8) 0.6645(5)
C7 C 0.6826(12) -0.3283(8) 0.6442(6)
H10 H 0.6068 -0.3535 0.6794
H11 H 0.6469 -0.3244 0.5979
C8 C 0.8145(13) -0.3896(8) 0.6397(6)
H12 H 0.8974 -0.3583 0.6136
C9 C 0.8497(13) -0.4163(9) 0.7144(7)
H13 H 0.7782 -0.4554 0.7382
H14 H 0.8488 -0.3660 0.7414
H15 H 0.9444 -0.4446 0.7110
C10 C 0.7910(15) -0.4666(9) 0.5971(7)
H16 H 0.8755 -0.5050 0.5949
H17 H 0.7753 -0.4465 0.5493
H18 H 0.7075 -0.4969 0.6205
C11 C 0.5869(11) 0.1394(7) 0.8104(5)
C12 C 0.5298(11) 0.2315(8) 0.8183(5)
H19 H 0.4247 0.2311 0.8300
H20 H 0.5679 0.2537 0.8587
C13 C 0.5674(12) 0.2924(8) 0.7533(6)
H21 H 0.5172 0.2741 0.7147
C14 C 0.7277(12) 0.2946(9) 0.7259(7)
H22 H 0.7781 0.3169 0.7615
H23 H 0.7426 0.3314 0.6823
H24 H 0.7645 0.2371 0.7163
C15 C 0.5115(13) 0.3863(9) 0.7701(7)
H25 H 0.4104 0.3857 0.7898
H26 H 0.5234 0.4230 0.7265
H27 H 0.5665 0.4078 0.8042
C16 C 1.0915(11) -0.1671(7) 0.7849(5)
C17 C 1.1490(12) -0.2512(8) 0.7507(6)
H28 H 1.0685 -0.2793 0.7352
H29 H 1.2182 -0.2370 0.7083
C18 C 1.2215(12) -0.3137(8) 0.8005(6)
H30 H 1.3068 -0.2863 0.8130
C19 C 1.1229(12) -0.3371(8) 0.8689(6)
H31 H 1.1006 -0.2866 0.8957
H32 H 1.1706 -0.3806 0.8972
H33 H 1.0344 -0.3592 0.8575
C20 C 1.2731(12) -0.3934(8) 0.7617(6)
H34 H 1.1905 -0.4236 0.7521
H35 H 1.3296 -0.4306 0.7912
H36 H 1.3321 -0.3769 0.7171
C21 C 0.9809(11) 0.2031(8) 0.9286(6)
C22 C 0.9150(11) 0.2932(8) 0.9274(6)
H37 H 0.8876 0.3083 0.9768
H38 H 0.8262 0.2929 0.9057
C23 C 1.0087(11) 0.3636(7) 0.8881(6)
H39 H 1.0432 0.3463 0.8393
C24 C 0.9186(12) 0.4475(8) 0.8826(6)
H40 H 0.8851 0.4657 0.9300
H41 H 0.8364 0.4384 0.8585
H42 H 0.9773 0.4913 0.8557
C25 C 1.1371(12) 0.3749(8) 0.9249(7)
H43 H 1.1894 0.4240 0.9026
H44 H 1.1998 0.3239 0.9213
H45 H 1.1054 0.3841 0.9747
C26 C 0.3286(11) -0.1616(8) 0.5184(6)
C27 C 0.2424(11) -0.2444(8) 0.5280(6)
H46 H 0.1630 -0.2384 0.5670
H47 H 0.2000 -0.2507 0.4844
C28 C 0.3315(11) -0.3256(8) 0.5440(6)
H48 H 0.3788 -0.3174 0.5863
C29 C 0.4505(12) -0.3427(9) 0.4807(6)
H49 H 0.4066 -0.3468 0.4379
H50 H 0.5027 -0.3960 0.4911
H51 H 0.5167 -0.2960 0.4737
C30 C 0.2302(12) -0.4010(8) 0.5620(6)
H52 H 0.1614 -0.3894 0.6036
H53 H 0.2863 -0.4530 0.5718
H54 H 0.1791 -0.4082 0.5219
C31 C 1.4147(12) 0.1758(10) 1.0467(7)
C32 C 1.3704(12) 0.2652(9) 1.0763(6)
H55 H 1.2895 0.2891 1.0528
H56 H 1.3348 0.2560 1.1272
C33 C 1.4857(13) 0.3328(9) 1.0679(6)
H57 H 1.5702 0.3068 1.0884
C34 C 1.5351(13) 0.3584(9) 0.9891(6)
H58 H 1.4545 0.3849 0.9678
H59 H 1.5702 0.3078 0.9645
H60 H 1.6118 0.3988 0.9853
C35 C 1.4331(15) 0.4093(10) 1.1092(7)
H61 H 1.5040 0.4534 1.0995
H62 H 1.4190 0.3925 1.1597
H63 H 1.3425 0.4314 1.0948
Au2A Au 1.12315(4) 0.04771(3) 0.35185(2)
Au3A Au 1.40941(4) 0.05393(3) 0.25927(2)
Au4A Au 1.18227(4) 0.02582(3) 0.16274(2)
Au5A Au 0.87120(4) -0.02741(3) 0.15649(2)
Au5A_2 Au 0.87120(4) -0.02741(3) 1.15649(2)
Au6_2 Au 1.0000 0.0000 0.0000
Au7A Au 1.47482(5) 0.01109(3) 0.42591(2)
Au7A_2 Au 0.47482(5) 0.01109(3) 0.42591(2)
Au7_2 Au 1.52518(5) -0.01109(3) 0.57409(2)
Au8A Au 0.61758(5) -0.00600(4) 0.04254(3)
Au8A_2 Au 1.61758(5) -0.00600(4) 1.04254(3)
Au8_2 Au 0.38242(5) 0.00600(4) -0.04254(3)
S1A S 0.8250(3) -0.0721(2) 0.45458(15)
S2A S 1.0408(3) -0.0790(2) 0.31724(14)
S3A S 1.1611(3) 0.1828(2) 0.38684(15)
S4A S 1.4134(3) 0.2017(2) 0.26618(14)
S5A S 1.4829(3) -0.0892(2) 0.25327(15)
S6A S 1.2919(3) -0.1061(2) 0.13544(15)
S7A S 1.0891(3) 0.1610(2) 0.19094(16)
S8A S 0.7802(3) 0.0965(2) 0.20828(15)
S9A S 0.9189(3) -0.1728(2) 0.14691(14)
S10A S 1.0745(3) -0.1424(2) -0.00593(14)
S10A_2 S 1.0745(3) -0.1424(2) 0.99407(14)
S11A S 0.6084(3) 0.1340(2) 0.40693(15)
S11A_2 S 1.6084(3) 0.1340(2) 0.40693(15)
S12A S 0.6540(3) 0.1132(2) 0.56583(15)
S12_2 S 1.3460(3) -0.1132(2) 0.43417(15)
S13A S 1.6849(3) -0.1432(3) 1.01124(19)
S13A_2 S 0.6849(3) -0.1432(3) 0.01124(19)
S14A S 1.4425(3) -0.1286(3) 0.91599(17)
S14_2 S 0.5575(3) 0.1286(3) 0.08401(17)
C1A C 0.8898(11) -0.1086(8) 0.3730(6)
C2A C 0.8008(11) -0.1789(7) 0.3466(5)
H1A H 0.7840 -0.1632 0.2975
H2A H 0.7069 -0.1827 0.3765
C3A C 0.8800(11) -0.2642(8) 0.3498(6)
H3A H 0.9728 -0.2592 0.3179
C4A C 0.9125(13) -0.2983(9) 0.4236(7)
H4A H 0.8227 -0.3060 0.4552
H5A H 0.9654 -0.3528 0.4198
H6A H 0.9699 -0.2576 0.4425
C5A C 0.7910(12) -0.3294(8) 0.3205(6)
H7A H 0.7729 -0.3095 0.2730
H8A H 0.8436 -0.3842 0.3187
H9A H 0.7000 -0.3359 0.3514
C6A C 1.2945(11) 0.2355(8) 0.3355(5)
C7A C 1.3174(12) 0.3283(8) 0.3558(6)
H10A H 1.3932 0.3535 0.3206
H11A H 1.3531 0.3244 0.4021
C8A C 1.1855(13) 0.3896(8) 0.3603(6)
H12A H 1.1026 0.3583 0.3864
C9A C 1.1503(13) 0.4163(9) 0.2856(7)
H13A H 1.2218 0.4554 0.2618
H14A H 1.1512 0.3660 0.2586
H15A H 1.0556 0.4446 0.2890
C10A C 1.2090(15) 0.4666(9) 0.4029(7)
H16A H 1.1245 0.5050 0.4051
H17A H 1.2247 0.4465 0.4507
H18A H 1.2925 0.4969 0.3795
C11A C 1.4131(11) -0.1394(7) 0.1896(5)
C12A C 1.4702(11) -0.2315(8) 0.1817(5)
H19A H 1.5753 -0.2311 0.1700
H20A H 1.4321 -0.2537 0.1413
C13A C 1.4326(12) -0.2924(8) 0.2467(6)
H21A H 1.4828 -0.2741 0.2853
C14A C 1.2723(12) -0.2946(9) 0.2741(7)
H22A H 1.2219 -0.3169 0.2385
H23A H 1.2574 -0.3314 0.3177
H24A H 1.2355 -0.2371 0.2837
C15A C 1.4885(13) -0.3863(9) 0.2299(7)
H25A H 1.5896 -0.3857 0.2102
H26A H 1.4766 -0.4230 0.2735
H27A H 1.4335 -0.4078 0.1958
C16A C 0.9085(11) 0.1671(7) 0.2151(5)
C17A C 0.8510(12) 0.2512(8) 0.2493(6)
H28A H 0.9315 0.2793 0.2648
H29A H 0.7818 0.2370 0.2917
C18A C 0.7785(12) 0.3137(8) 0.1995(6)
H30A H 0.6932 0.2863 0.1870
C19A C 0.8771(12) 0.3371(8) 0.1311(6)
H31A H 0.8994 0.2866 0.1043
H32A H 0.8294 0.3806 0.1028
H33A H 0.9656 0.3592 0.1425
C20A C 0.7269(12) 0.3934(8) 0.2383(6)
H34A H 0.8095 0.4236 0.2479
H35A H 0.6704 0.4306 0.2088
H36A H 0.6679 0.3769 0.2829
C21A C 1.0191(11) -0.2031(8) 0.0714(6)
C22A C 1.0850(11) -0.2932(8) 0.0726(6)
H37A H 1.1124 -0.3083 0.0232
H38A H 1.1738 -0.2929 0.0943
C23A C 0.9913(11) -0.3636(7) 0.1119(6)
H39A H 0.9568 -0.3463 0.1607
C24A C 1.0814(12) -0.4475(8) 0.1174(6)
H40A H 1.1149 -0.4657 0.0700
H41A H 1.1636 -0.4384 0.1415
H42A H 1.0227 -0.4913 0.1443
C25A C 0.8629(12) -0.3749(8) 0.0751(7)
H43A H 0.8106 -0.4240 0.0974
H44A H 0.8002 -0.3239 0.0787
H45A H 0.8946 -0.3841 0.0253
C26A C 0.6714(11) 0.1616(8) 0.4816(6)
C27A C 0.7576(11) 0.2444(8) 0.4720(6)
H46A H 0.8370 0.2384 0.4330
H47A H 0.8000 0.2507 0.5156
C28A C 0.6685(11) 0.3256(8) 0.4560(6)
H48A H 0.6212 0.3174 0.4137
C29A C 0.5495(12) 0.3427(9) 0.5193(6)
H49A H 0.5934 0.3468 0.5621
H50A H 0.4973 0.3960 0.5089
H51A H 0.4833 0.2960 0.5263
C30A C 0.7698(12) 0.4010(8) 0.4380(6)
H52A H 0.8386 0.3894 0.3964
H53A H 0.7137 0.4530 0.4282
H54A H 0.8209 0.4082 0.4781
C31A C 1.5853(12) -0.1758(10) 0.9533(7)
C32A C 1.6296(12) -0.2652(9) 0.9237(6)
H55A H 1.7105 -0.2891 0.9472
H56A H 1.6652 -0.2560 0.8728
C33A C 1.5143(13) -0.3328(9) 0.9321(6)
H57A H 1.4298 -0.3068 0.9116
C34A C 1.4649(13) -0.3584(9) 1.0109(6)
H58A H 1.5455 -0.3849 1.0322
H59A H 1.4298 -0.3078 1.0355
H60A H 1.3882 -0.3988 1.0147
C35A C 1.5669(15) -0.4093(10) 0.8908(7)
H61A H 1.4960 -0.4534 0.9005
H62A H 1.5810 -0.3925 0.8403
H63A H 1.6575 -0.4314 0.9052
loop_
_geom_bond_atom_site_label_1
_geom_bond_atom_site_label_2
_geom_bond_site_symmetry_1
_geom_bond_site_symmetry_2
Au1 Au2 1_555 1_555
Au2 Au3 1_555 1_555
Au3 Au4 1_555 1_555
Au4 Au5 1_555 1_555
Au5 Au6 1_555 1_555
Au6 S10 1_555 1_555
Au7 Au3 1_555 1_555
Au8 Au5 1_555 1_555
S1 Au1 1_555 1_555
S2 Au2 1_555 1_555
S3 Au2 1_555 1_555
S4 Au3 1_555 1_555
S5 Au3 1_555 1_555
S6 Au4 1_555 1_555
S7 Au4 1_555 1_555
S8 Au5 1_555 1_555
S9 Au5 1_555 1_555
S10 C21 1_555 1_555
S11 Au7 1_555 1_555
S12 C26 1_555 1_555
S13 Au8 1_555 1_555
S14 C31 1_555 1_555
C1 S1 1_555 1_555
C2 C1 1_555 1_555
H1 C2 1_555 1_555
H2 C2 1_555 1_555
C3 C2 1_555 1_555
H3 C3 1_555 1_555
C4 C3 1_555 1_555
H4 C4 1_555 1_555
H5 C4 1_555 1_555
H6 C4 1_555 1_555
C5 C3 1_555 1_555
H7 C5 1_555 1_555
H8 C5 1_555 1_555
H9 C5 1_555 1_555
C6 S3 1_555 1_555
C7 C6 1_555 1_555
H10 C7 1_555 1_555
H11 C7 1_555 1_555
C8 C7 1_555 1_555
H12 C8 1_555 1_555
C9 C8 1_555 1_555
H13 C9 1_555 1_555
H14 C9 1_555 1_555
H15 C9 1_555 1_555
C10 C8 1_555 1_555
H16 C10 1_555 1_555
H17 C10 1_555 1_555
H18 C10 1_555 1_555
C11 S5 1_555 1_555
C12 C11 1_555 1_555
H19 C12 1_555 1_555
H20 C12 1_555 1_555
C13 C12 1_555 1_555
H21 C13 1_555 1_555
C14 C13 1_555 1_555
H22 C14 1_555 1_555
H23 C14 1_555 1_555
H24 C14 1_555 1_555
C15 C13 1_555 1_555
H25 C15 1_555 1_555
H26 C15 1_555 1_555
H27 C15 1_555 1_555
C16 S7 1_555 1_555
C17 C16 1_555 1_555
H28 C17 1_555 1_555
H29 C17 1_555 1_555
C18 C17 1_555 1_555
H30 C18 1_555 1_555
C19 C18 1_555 1_555
H31 C19 1_555 1_555
H32 C19 1_555 1_555
H33 C19 1_555 1_555
C20 C18 1_555 1_555
H34 C20 1_555 1_555
H35 C20 1_555 1_555
H36 C20 1_555 1_555
C21 S9 1_555 1_555
C22 C21 1_555 1_555
H37 C22 1_555 1_555
H38 C22 1_555 1_555
C23 C22 1_555 1_555
H39 C23 1_555 1_555
C24 C23 1_555 1_555
H40 C24 1_555 1_555
H41 C24 1_555 1_555
H42 C24 1_555 1_555
C25 C23 1_555 1_555
H43 C25 1_555 1_555
H44 C25 1_555 1_555
H45 C25 1_555 1_555
C26 S11 1_555 1_555
C27 C26 1_555 1_555
H46 C27 1_555 1_555
H47 C27 1_555 1_555
C28 C27 1_555 1_555
H48 C28 1_555 1_555
C29 C28 1_555 1_555
H49 C29 1_555 1_555
H50 C29 1_555 1_555
H51 C29 1_555 1_555
C30 C28 1_555 1_555
H52 C30 1_555 1_555
H53 C30 1_555 1_555
H54 C30 1_555 1_555
C31 S13 1_555 1_555
C32 C31 1_555 1_555
H55 C32 1_555 1_555
H56 C32 1_555 1_555
C33 C32 1_555 1_555
H57 C33 1_555 1_555
C34 C33 1_555 1_555
H58 C34 1_555 1_555
H59 C34 1_555 1_555
H60 C34 1_555 1_555
C35 C33 1_555 1_555
H61 C35 1_555 1_555
H62 C35 1_555 1_555
H63 C35 1_555 1_555
Au2A Au1 1_555 1_555
Au3A Au2A 1_555 1_555
Au4A Au3A 1_555 1_555
Au5A Au4A 1_555 1_555
Au5A_2 Au6 1_555 1_555
Au6_2 Au5A 1_555 1_555
Au7A Au3A 1_555 1_555
Au7A_2 Au7 1_555 1_555
Au7_2 Au7A 1_555 1_555
Au8A Au5A 1_555 1_555
Au8A_2 Au8 1_555 1_555
Au8_2 Au8A 1_555 1_555
S1A Au1 1_555 1_555
S2A Au2A 1_555 1_555
S3A Au2A 1_555 1_555
S4A Au3A 1_555 1_555
S5A Au3A 1_555 1_555
S6A Au4A 1_555 1_555
S7A Au4A 1_555 1_555
S8A Au5A 1_555 1_555
S9A Au5A 1_555 1_555
S10A Au6_2 1_555 1_555
S10A_2 Au6 1_555 1_555
S11A Au7A_2 1_555 1_555
S11A_2 Au7A 1_555 1_555
S12A Au7 1_555 1_555
S12_2 Au7A 1_555 1_555
S13A Au8A_2 1_555 1_555
S13A_2 Au8A 1_555 1_555
S14A Au8 1_555 1_555
S14_2 Au8A 1_555 1_555
C1A S1A 1_555 1_555
C2A C1A 1_555 1_555
H1A C2A 1_555 1_555
H2A C2A 1_555 1_555
C3A C2A 1_555 1_555
H3A C3A 1_555 1_555
C4A C3A 1_555 1_555
H4A C4A 1_555 1_555
H5A C4A 1_555 1_555
H6A C4A 1_555 1_555
C5A C3A 1_555 1_555
H7A C5A 1_555 1_555
H8A C5A 1_555 1_555
H9A C5A 1_555 1_555
C6A S3A 1_555 1_555
C7A C6A 1_555 1_555
H10A C7A 1_555 1_555
H11A C7A 1_555 1_555
C8A C7A 1_555 1_555
H12A C8A 1_555 1_555
C9A C8A 1_555 1_555
H13A C9A 1_555 1_555
H14A C9A 1_555 1_555
H15A C9A 1_555 1_555
C10A C8A 1_555 1_555
H16A C10A 1_555 1_555
H17A C10A 1_555 1_555
H18A C10A 1_555 1_555
C11A S5A 1_555 1_555
C12A C11A 1_555 1_555
H19A C12A 1_555 1_555
H20A C12A 1_555 1_555
C13A C12A 1_555 1_555
H21A C13A 1_555 1_555
C14A C13A 1_555 1_555
H22A C14A 1_555 1_555
H23A C14A 1_555 1_555
H24A C14A 1_555 1_555
C15A C13A 1_555 1_555
H25A C15A 1_555 1_555
H26A C15A 1_555 1_555
H27A C15A 1_555 1_555
C16A S7A 1_555 1_555
C17A C16A 1_555 1_555
H28A C17A 1_555 1_555
H29A C17A 1_555 1_555
C18A C17A 1_555 1_555
H30A C18A 1_555 1_555
C19A C18A 1_555 1_555
H31A C19A 1_555 1_555
H32A C19A 1_555 1_555
H33A C19A 1_555 1_555
C20A C18A 1_555 1_555
H34A C20A 1_555 1_555
H35A C20A 1_555 1_555
H36A C20A 1_555 1_555
C21A S9A 1_555 1_555
C22A C21A 1_555 1_555
H37A C22A 1_555 1_555
H38A C22A 1_555 1_555
C23A C22A 1_555 1_555
H39A C23A 1_555 1_555
C24A C23A 1_555 1_555
H40A C24A 1_555 1_555
H41A C24A 1_555 1_555
H42A C24A 1_555 1_555
C25A C23A 1_555 1_555
H43A C25A 1_555 1_555
H44A C25A 1_555 1_555
H45A C25A 1_555 1_555
C26A S11A 1_555 1_555
C27A C26A 1_555 1_555
H46A C27A 1_555 1_555
H47A C27A 1_555 1_555
C28A C27A 1_555 1_555
H48A C28A 1_555 1_555
C29A C28A 1_555 1_555
H49A C29A 1_555 1_555
H50A C29A 1_555 1_555
H51A C29A 1_555 1_555
C30A C28A 1_555 1_555
H52A C30A 1_555 1_555
H53A C30A 1_555 1_555
H54A C30A 1_555 1_555
C31A S13A 1_555 1_555
C32A C31A 1_555 1_555
H55A C32A 1_555 1_555
H56A C32A 1_555 1_555
C33A C32A 1_555 1_555
H57A C33A 1_555 1_555
C34A C33A 1_555 1_555
H58A C34A 1_555 1_555
H59A C34A 1_555 1_555
H60A C34A 1_555 1_555
C35A C33A 1_555 1_555
H61A C35A 1_555 1_555
H62A C35A 1_555 1_555
H63A C35A 1_555 1_555
S2 C1 1_555 1_555
S4 C6 1_555 1_555
S6 C11 1_555 1_555
S8 C16 1_555 1_555
S12 Au7A_2 1_555 1_555
S14 Au8A_2 1_555 1_555
S2A C1A 1_555 1_555
S4A C6A 1_555 1_555
S6A C11A 1_555 1_555
S8A C16A 1_555 1_555
S10A C21A 1_555 1_555
S12A C26A 1_555 1_555
S14A C31A 1_555 1_555

#END
