
#######################################################################
#
#                 Cambridge Crystallographic Data Centre
#                                CCDC 
#
#######################################################################
#
# If this CIF has been generated from an entry in the Cambridge 
# Structural Database, then it will include bibliographic, chemical, 
# crystal, experimental, refinement or atomic coordinate data resulting 
# from the CCDC's data processing and validation procedures.
#
#######################################################################

data_YUZVOF
_symmetry_cell_setting           triclinic
_symmetry_space_group_name_H-M   'P -1'
_symmetry_Int_Tables_number      2
_space_group_name_Hall           '-P 1'
loop_
_symmetry_equiv_pos_site_id
_symmetry_equiv_pos_as_xyz
1 x,y,z
2 -x,-y,-z
_cell_length_a                   9.8148(12)
_cell_length_b                   10.9124(14)
_cell_length_c                   14.4129(16)
_cell_angle_alpha                96.247(4)
_cell_angle_beta                 106.864(2)
_cell_angle_gamma                109.411(2)
_cell_volume                     1356.82
loop_
_atom_site_label
_atom_site_type_symbol
_atom_site_fract_x
_atom_site_fract_y
_atom_site_fract_z
Cu1 Cu 0.55608(3) 0.89143(2) 0.031329(17)
Cu2 Cu 0.56479(3) 1.10234(2) 0.210278(18)
O1 O 0.59172(17) 1.07728(14) 0.08177(10)
H1 H 0.684(2) 1.128(2) 0.0974(17)
O2 O 0.74464(18) 1.27256(15) 0.26033(11)
O4 O 0.8810(2) 1.24404(18) 0.16590(13)
O5 O 0.34741(17) 0.97912(15) 0.15499(12)
O6 O 0.70926(17) 0.98741(15) 0.26226(11)
O7 O 0.74636(17) 0.89700(15) 0.12857(10)
O8 O 0.37617(17) 0.79710(14) 0.09156(11)
N1 N 0.5212(2) 0.71755(17) -0.05210(13)
N2 N 0.5332(2) 0.14196(18) -0.66052(13)
C1 C 0.9981(3) 1.4748(2) 0.40194(18)
C2 C 0.8854(3) 1.5101(2) 0.42331(19)
H4 H 0.8055 1.5173 0.3709
C3 C 1.1124(3) 1.4653(2) 0.48007(19)
H5 H 1.1909 1.4414 0.4671
C4 C 0.9916(3) 1.4407(3) 0.29601(19)
H6 H 1.0919 1.4382 0.2968
H7 H 0.9759 1.5121 0.2626
C5 C 0.8632(3) 1.3067(2) 0.23555(17)
C6 C 0.6097(3) 0.7142(2) -0.10681(17)
H8 H 0.6948 0.7934 -0.0993
C7 C 0.5828(3) 0.6010(2) -0.17353(17)
H9 H 0.6470 0.6040 -0.2122
C8 C 0.4622(3) 0.4828(2) -0.18447(15)
C9 C 0.3704(3) 0.4876(2) -0.12769(16)
H10 H 0.2855 0.4095 -0.1331
C10 C 0.4016(3) 0.6047(2) -0.06378(16)
H11 H 0.3362 0.6056 -0.0266
C11 C 0.4005(3) 0.1461(3) -0.65571(18)
H12 H 0.3185 0.1311 -0.7159
C12 C 0.3789(3) 0.1714(3) -0.56638(19)
H13 H 0.2838 0.1753 -0.5660
C13 C 0.4944(3) 0.1911(2) -0.47723(17)
C14 C 0.6311(3) 0.1886(3) -0.48343(18)
H14 H 0.7147 0.2028 -0.4244
C15 C 0.6469(3) 0.1654(3) -0.57501(17)
H15 H 0.7430 0.1661 -0.5772
C16 C 0.4322(3) 0.3512(2) -0.24849(16)
H16 H 0.3196 0.2995 -0.2741
H17 H 0.4800 0.3016 -0.2048
C17 C 0.4875(3) 0.3517(2) -0.33712(17)
H18 H 0.5973 0.4119 -0.3156
H19 H 0.4269 0.3846 -0.3888
C18 C 0.4675(3) 0.2093(2) -0.37990(18)
H20 H 0.5399 0.1830 -0.3305
H21 H 0.3616 0.1482 -0.3894
C19 C 0.0676(2) 0.6313(2) 0.05874(17)
C20 C 0.1409(3) 0.7725(2) 0.1201(2)
H22 H 0.1476 0.7697 0.1897
H23 H 0.0720 0.8195 0.0951
C21 C 0.3011(2) 0.8542(2) 0.12048(15)
C22 C 0.1260(3) 0.5356(2) 0.08453(18)
H24 H 0.2135 0.5587 0.1431
C23 C -0.0596(3) 0.5929(2) -0.02681(19)
H25 H -0.1025 0.6563 -0.0465
C24 C 0.7848(2) 0.9444(2) 0.22163(16)
C25 C 0.9397(3) 0.9456(3) 0.28553(16)
H26 H 0.9442 0.8579 0.2650
H27 H 1.0226 1.0139 0.2718
C26 C 0.9716(2) 0.9739(2) 0.39646(16)
C27 C 0.9935(3) 1.0978(2) 0.44811(17)
H28 H 0.9895 1.1664 0.4133
C28 C 0.9789(3) 0.8767(2) 0.45022(17)
H29 H 0.9648 0.7910 0.4168
Cu1A Cu 0.44392(3) 1.10857(2) -0.031329(17)
Cu1A_2 Cu -0.55608(3) 0.10857(2) -0.031329(17)
Cu1A_3 Cu 1.44392(3) 1.10857(2) 0.968671(17)
Cu1_2 Cu 0.55608(3) 1.89143(2) 1.031329(17)
Cu2A Cu 0.43521(3) 0.89766(2) -0.210278(18)
Cu2_2 Cu 0.56479(3) 0.10234(2) -0.789722(18)
Cu2A_2 Cu 1.43521(3) 1.89766(2) 0.789722(18)
Cu2A_3 Cu -0.56479(3) -0.10234(2) -0.210278(18)
Cu2A_4 Cu 1.43521(3) 0.89766(2) 0.789722(18)
O1A O 0.40828(17) 0.92272(14) -0.08177(10)
H1A H 0.316(2) 0.872(2) -0.0974(17)
O2A O 1.25536(18) 1.72744(15) 0.73967(11)
O2A_2 O 0.25536(18) 0.72744(15) -0.26033(11)
O4A O 1.1190(2) 1.75596(18) 0.83410(13)
O5A O -0.34741(17) 0.02088(15) -0.15499(12)
O5A_2 O 0.65259(17) 1.02088(15) -0.15499(12)
O6A O 1.29074(17) 1.01259(15) 0.73774(11)
O6A_2 O 0.29074(17) 1.01259(15) -0.26226(11)
O7A O 1.25364(17) 1.10300(15) 0.87143(10)
O7A_2 O 0.25364(17) 1.10300(15) -0.12857(10)
O8A O -0.37617(17) 0.20290(14) -0.09156(11)
O8A_2 O 0.62383(17) 1.20290(14) -0.09156(11)
N1_2 N 0.5212(2) 1.71755(17) 0.94790(13)
N1A N 0.4788(2) 1.28245(17) 0.05210(13)
N2_2 N 0.5332(2) 1.14196(18) 0.33948(13)
N2A N 0.4668(2) 0.85804(18) -0.33948(13)
C1A C 1.0019(3) 1.5252(2) 0.59806(18)
C2A C 1.1146(3) 1.4899(2) 0.57669(19)
H4A H 1.1945 1.4827 0.6291
C3A C 0.8876(3) 1.5347(2) 0.51993(19)
H5A H 0.8091 1.5586 0.5329
C4A C 1.0084(3) 1.5593(3) 0.70399(19)
H6A H 0.9081 1.5618 0.7032
H7A H 1.0241 1.4879 0.7374
C5A C 1.1368(3) 1.6933(2) 0.76445(17)
C6_2 C 0.6097(3) 1.7142(2) 0.89319(17)
H8_2 H 0.6948 1.7934 0.9007
C7_2 C 0.5828(3) 1.6010(2) 0.82647(17)
H9_2 H 0.6470 1.6040 0.7878
C8_2 C 0.4622(3) 1.4828(2) 0.81553(15)
C9_2 C 0.3704(3) 1.4876(2) 0.87231(16)
H10_2 H 0.2855 1.4095 0.8669
C10_2 C 0.4016(3) 1.6047(2) 0.93622(16)
H11_2 H 0.3362 1.6056 0.9734
C11_2 C 0.4005(3) 1.1461(3) 0.34429(18)
H12_2 H 0.3185 1.1311 0.2841
C12_2 C 0.3789(3) 1.1714(3) 0.43362(19)
H13_2 H 0.2838 1.1753 0.4340
C13_2 C 0.4944(3) 1.1911(2) 0.52277(17)
C14_2 C 0.6311(3) 1.1886(3) 0.51657(18)
H14_2 H 0.7147 1.2028 0.5756
C15_2 C 0.6469(3) 1.1654(3) 0.42499(17)
H15_2 H 0.7430 1.1661 0.4228
C16_2 C 0.4322(3) 1.3512(2) 0.75151(16)
H16_2 H 0.3196 1.2995 0.7259
H17_2 H 0.4800 1.3016 0.7952
C17_2 C 0.4875(3) 1.3517(2) 0.66288(17)
H18_2 H 0.5973 1.4119 0.6844
H19_2 H 0.4269 1.3846 0.6112
C18_2 C 0.4675(3) 1.2093(2) 0.62010(18)
H20_2 H 0.5399 1.1830 0.6695
H21_2 H 0.3616 1.1482 0.6106
C19A C -0.0676(2) 0.3687(2) -0.05874(17)
C20A C -0.1409(3) 0.2275(2) -0.1201(2)
H22A H -0.1476 0.2303 -0.1897
H23A H -0.0720 0.1805 -0.0951
C21A C -0.3011(2) 0.1458(2) -0.12048(15)
C22A C -0.1260(3) 0.4644(2) -0.08453(18)
H24A H -0.2135 0.4413 -0.1431
C23A C 0.0596(3) 0.4071(2) 0.02681(19)
H25A H 0.1025 0.3437 0.0465
C24A C 1.2152(2) 1.0556(2) 0.77837(16)
C25A C 1.0603(3) 1.0544(3) 0.71447(16)
H26A H 1.0558 1.1421 0.7350
H27A H 0.9774 0.9861 0.7282
C26A C 1.0284(2) 1.0261(2) 0.60354(16)
C27A C 1.0065(3) 0.9022(2) 0.55189(17)
H28A H 1.0105 0.8336 0.5867
C28A C 1.0211(3) 1.1233(2) 0.54978(17)
H29A H 1.0352 1.2090 0.5832
O3 O 1.0448(5) 1.1035(4) 0.1041(4)
H2 H 1.020(6) 1.154(4) 0.141(4)
H3 H 0.969(5) 1.025(3) 0.077(4)
loop_
_geom_bond_atom_site_label_1
_geom_bond_atom_site_label_2
_geom_bond_site_symmetry_1
_geom_bond_site_symmetry_2
Cu1 O1 1_555 1_555
Cu2 O1 1_555 1_555
O1 H1 1_555 1_555
O2 Cu2 1_555 1_555
O3 H2 1_555 1_555
H3 O3 1_555 1_555
O4 C5 1_555 1_555
O5 Cu2 1_555 1_555
O6 Cu2 1_555 1_555
O7 Cu1 1_555 1_555
O8 Cu1 1_555 1_555
N1 Cu1 1_555 1_555
N2 C11 1_555 1_555
C1 C2 1_555 1_555
C2 H4 1_555 1_555
C3 C1 1_555 1_555
H5 C3 1_555 1_555
C4 C1 1_555 1_555
H6 C4 1_555 1_555
H7 C4 1_555 1_555
C5 O2 1_555 1_555
C6 N1 1_555 1_555
H8 C6 1_555 1_555
C7 C6 1_555 1_555
H9 C7 1_555 1_555
C8 C7 1_555 1_555
C9 C8 1_555 1_555
H10 C9 1_555 1_555
C10 N1 1_555 1_555
H11 C10 1_555 1_555
C11 H12 1_555 1_555
C12 C11 1_555 1_555
H13 C12 1_555 1_555
C13 C12 1_555 1_555
C14 C13 1_555 1_555
H14 C14 1_555 1_555
C15 N2 1_555 1_555
H15 C15 1_555 1_555
C16 C8 1_555 1_555
H16 C16 1_555 1_555
H17 C16 1_555 1_555
C17 C16 1_555 1_555
H18 C17 1_555 1_555
H19 C17 1_555 1_555
C18 C13 1_555 1_555
H20 C18 1_555 1_555
H21 C18 1_555 1_555
C19 C20 1_555 1_555
C20 H22 1_555 1_555
H23 C20 1_555 1_555
C21 O5 1_555 1_555
C22 C19 1_555 1_555
H24 C22 1_555 1_555
C23 C19 1_555 1_555
H25 C23 1_555 1_555
C24 O6 1_555 1_555
C25 C24 1_555 1_555
H26 C25 1_555 1_555
H27 C25 1_555 1_555
C26 C25 1_555 1_555
C27 C26 1_555 1_555
H28 C27 1_555 1_555
C28 C26 1_555 1_555
H29 C28 1_555 1_555
Cu1A O1 1_555 1_555
Cu1A_2 O8A 1_555 1_555
Cu1A_3 O7A 1_555 1_555
Cu1_2 N1_2 1_555 1_555
Cu2A O1A 1_555 1_555
Cu2_2 N2 1_555 1_555
Cu2A_2 O2A 1_555 1_555
Cu2A_3 O5A 1_555 1_555
Cu2A_4 O6A 1_555 1_555
O1A Cu1 1_555 1_555
H1A O1A 1_555 1_555
O2A C5A 1_555 1_555
O2A_2 Cu2A 1_555 1_555
O4A C5A 1_555 1_555
O5A C21A 1_555 1_555
O5A_2 Cu2A 1_555 1_555
O6A C24A 1_555 1_555
O6A_2 Cu2A 1_555 1_555
O7A C24A 1_555 1_555
O7A_2 Cu1A 1_555 1_555
O8A C21A 1_555 1_555
O8A_2 Cu1A 1_555 1_555
N1_2 C6_2 1_555 1_555
N1A Cu1A 1_555 1_555
N2_2 Cu2 1_555 1_555
N2A Cu2A 1_555 1_555
C1A C2A 1_555 1_555
C2A C3 1_555 1_555
H4A C2A 1_555 1_555
C3A C2 1_555 1_555
H5A C3A 1_555 1_555
C4A C1A 1_555 1_555
H6A C4A 1_555 1_555
H7A C4A 1_555 1_555
C5A C4A 1_555 1_555
C6_2 H8_2 1_555 1_555
C7_2 C6_2 1_555 1_555
H9_2 C7_2 1_555 1_555
C8_2 C7_2 1_555 1_555
C9_2 C8_2 1_555 1_555
H10_2 C9_2 1_555 1_555
C10_2 N1_2 1_555 1_555
H11_2 C10_2 1_555 1_555
C11_2 N2_2 1_555 1_555
H12_2 C11_2 1_555 1_555
C12_2 C11_2 1_555 1_555
H13_2 C12_2 1_555 1_555
C13_2 C12_2 1_555 1_555
C14_2 C13_2 1_555 1_555
H14_2 C14_2 1_555 1_555
C15_2 N2_2 1_555 1_555
H15_2 C15_2 1_555 1_555
C16_2 C8_2 1_555 1_555
H16_2 C16_2 1_555 1_555
H17_2 C16_2 1_555 1_555
C17_2 C16_2 1_555 1_555
H18_2 C17_2 1_555 1_555
H19_2 C17_2 1_555 1_555
C18_2 C13_2 1_555 1_555
H20_2 C18_2 1_555 1_555
H21_2 C18_2 1_555 1_555
C19A C20A 1_555 1_555
C20A H22A 1_555 1_555
H23A C20A 1_555 1_555
C21A C20A 1_555 1_555
C22A C23 1_555 1_555
H24A C22A 1_555 1_555
C23A C22 1_555 1_555
H25A C23A 1_555 1_555
C24A C25A 1_555 1_555
C25A H26A 1_555 1_555
H27A C25A 1_555 1_555
C26A C25A 1_555 1_555
C27A C28 1_555 1_555
H28A C27A 1_555 1_555
C28A C27 1_555 1_555
H29A C28A 1_555 1_555
O7 C24 1_555 1_555
O8 C21 1_555 1_555
C4 C5 1_555 1_555
C9 C10 1_555 1_555
C14 C15 1_555 1_555
C17 C18 1_555 1_555
C20 C21 1_555 1_555
Cu1A O1A 1_555 1_555
C1A C3A 1_555 1_555
C9_2 C10_2 1_555 1_555
C14_2 C15_2 1_555 1_555
C17_2 C18_2 1_555 1_555
C19A C22A 1_555 1_555
C19A C23A 1_555 1_555
C26A C27A 1_555 1_555
C26A C28A 1_555 1_555

#END
