
#######################################################################
#
#                 Cambridge Crystallographic Data Centre
#                                CCDC 
#
#######################################################################
#
# If this CIF has been generated from an entry in the Cambridge 
# Structural Database, then it will include bibliographic, chemical, 
# crystal, experimental, refinement or atomic coordinate data resulting 
# from the CCDC's data processing and validation procedures.
#
#######################################################################

data_YUZVIZ
_symmetry_cell_setting           monoclinic
_symmetry_space_group_name_H-M   'P 21/c'
_symmetry_Int_Tables_number      14
_space_group_name_Hall           '-P 2ybc'
loop_
_symmetry_equiv_pos_site_id
_symmetry_equiv_pos_as_xyz
1 x,y,z
2 -x,1/2+y,1/2-z
3 -x,-y,-z
4 x,1/2-y,1/2+z
_cell_length_a                   24.3822(19)
_cell_length_b                   12.6226(10)
_cell_length_c                   10.0392(8)
_cell_angle_alpha                90
_cell_angle_beta                 95.283(2)
_cell_angle_gamma                90
_cell_volume                     3076.61
loop_
_atom_site_label
_atom_site_type_symbol
_atom_site_fract_x
_atom_site_fract_y
_atom_site_fract_z
Cu1 Cu 0.457718(16) 0.52275(3) 0.41212(4)
Cu2 Cu 0.037294(17) 0.98695(3) 0.41358(4)
O1 O 0.08554(11) 0.9383(2) 0.5706(2)
O2 O 0.50469(10) 0.4602(2) 0.2833(2)
N1 N 0.39349(11) 0.5694(2) 0.2588(3)
O3 O 0.57085(10) 0.88292(19) 0.0426(2)
O4 O 0.06160(10) 1.36873(19) 0.9625(2)
O5 O -0.00226(12) 1.3468(2) 1.1054(3)
C1 C 0.03956(15) 1.3185(3) 1.0517(3)
O6 O 0.57636(10) 0.4223(2) 0.4320(2)
O7 O 0.49923(10) 0.84379(19) -0.1031(2)
N2 N 0.09638(12) 0.9475(2) 0.2727(3)
C2 C 0.54631(14) 0.8265(3) -0.0463(3)
C3 C 0.55309(14) 0.4301(3) 0.3149(3)
C4 C 0.18084(14) 0.8689(3) 0.1289(3)
O8 O 0.02151(11) 0.9578(2) 0.7144(2)
C5 C 0.31488(14) 0.6378(3) 0.0554(3)
C6 C 0.08968(15) 0.8592(3) 0.1997(3)
H1 H 0.0554 0.8231 0.1972
C7 C 0.61264(14) 0.5119(3) 0.1579(3)
C8 C 0.40286(14) 0.6517(3) 0.1808(3)
H2 H 0.4374 0.6867 0.1946
C9 C 0.65623(15) 0.7041(3) 0.0818(4)
H3 H 0.6716 0.7692 0.0557
C10 C 0.18637(14) 0.9632(3) 0.2014(3)
H4 H 0.2195 1.0029 0.2024
C11 C 0.66026(15) 0.5511(3) 0.2242(4)
H5 H 0.6781 0.5125 0.2971
C12 C 0.13023(14) 0.8178(3) 0.1275(3)
H6 H 0.1236 0.7547 0.0771
C13 C 0.14425(15) 0.9991(3) 0.2712(3)
H7 H 0.1493 1.0631 0.3205
C14 C 0.27261(15) 0.6728(3) -0.0557(3)
H8 H 0.2628 0.6115 -0.1147
H9 H 0.2893 0.7275 -0.1100
C15 C 0.30553(15) 0.5512(3) 0.1358(4)
H10 H 0.2718 0.5133 0.1222
C16 C 0.58617(13) 0.5711(3) 0.0535(3)
H11 H 0.5530 0.5452 0.0078
C17 C 0.57665(15) 0.7304(3) -0.0950(3)
H12 H 0.5496 0.6832 -0.1449
H13 H 0.6030 0.7547 -0.1579
C18 C 0.58771(15) 0.4085(3) 0.1997(4)
H14 H 0.6173 0.3573 0.2280
H15 H 0.5645 0.3776 0.1235
C19 C 0.06663(17) 1.2164(3) 1.1055(4)
H16 H 0.0373 1.1644 1.1194
H17 H 0.0865 1.2314 1.1939
C20 C 0.60765(14) 0.6676(3) 0.0153(3)
C21 C 0.36456(14) 0.6890(3) 0.0802(3)
H18 H 0.3727 0.7494 0.0291
C22 C 0.22834(14) 0.8249(3) 0.0598(3)
H19 H 0.2373 0.8761 -0.0096
H20 H 0.2608 0.8204 0.1264
C23 C 0.68253(15) 0.6464(3) 0.1859(4)
H21 H 0.7158 0.6720 0.2312
C24 C 0.21981(15) 0.7177(3) -0.0051(3)
H22 H 0.1912 0.7236 -0.0813
H23 H 0.2062 0.6677 0.0603
C25 C 0.34478(15) 0.5201(3) 0.2348(4)
H24 H 0.3372 0.4611 0.2889
C26 C 0.12833(15) 1.0222(3) 0.8717(3)
C27 C 0.10630(15) 1.1664(3) 1.0178(3)
C28 C 0.09234(14) 1.0727(3) 0.9515(3)
H25 H 0.0573 1.0420 0.9605
C29 C 0.15741(16) 1.2114(3) 1.0028(4)
H26 H 0.1678 1.2755 1.0478
C30 C 0.06951(16) 0.9385(3) 0.6858(3)
C31 C 0.11237(18) 0.9191(3) 0.8020(4)
H27 H 0.1454 0.8860 0.7690
H28 H 0.0974 0.8697 0.8662
C32 C 0.17885(17) 1.0698(4) 0.8577(4)
H29 H 0.2039 1.0377 0.8028
C33 C 0.19273(18) 1.1634(4) 0.9232(5)
H30 H 0.2274 1.1951 0.9129
Cu1A Cu 0.542282(16) 1.02275(3) 0.08788(4)
Cu1B Cu 0.542282(16) 0.47725(3) 0.58788(4)
Cu1C Cu 0.457718(16) 0.97725(3) -0.08788(4)
Cu2C Cu 0.037294(17) 1.51305(3) 0.91358(4)
Cu2A Cu -0.037294(17) 1.48695(3) 1.08642(4)
Cu2B Cu -0.037294(17) 1.01305(3) 0.58642(4)
O3A O 0.42915(10) 0.38292(19) 0.4574(2)
O4C O 0.06160(10) 1.13127(19) 0.4625(2)
O5A O 0.00226(12) 0.8468(2) 0.3946(3)
O6B O 0.42364(10) 0.5777(2) 0.5680(2)
O7C O 0.49923(10) 0.65621(19) 0.3969(2)
O8B O -0.02151(11) 1.0422(2) 0.2856(2)
loop_
_geom_bond_atom_site_label_1
_geom_bond_atom_site_label_2
_geom_bond_site_symmetry_1
_geom_bond_site_symmetry_2
Cu1 O2 1_555 1_555
Cu2 O1 1_555 1_555
O1 C30 1_555 1_555
O2 C3 1_555 1_555
N1 Cu1 1_555 1_555
O3 C2 1_555 1_555
O4 C1 1_555 1_555
O5 C1 1_555 1_555
C1 C19 1_555 1_555
O6 C3 1_555 1_555
O7 C2 1_555 1_555
N2 Cu2 1_555 1_555
C2 C17 1_555 1_555
C3 C18 1_555 1_555
C4 C10 1_555 1_555
O8 C30 1_555 1_555
C5 C14 1_555 1_555
C6 N2 1_555 1_555
H1 C6 1_555 1_555
C7 C11 1_555 1_555
C8 N1 1_555 1_555
H2 C8 1_555 1_555
C9 H3 1_555 1_555
C10 H4 1_555 1_555
C11 H5 1_555 1_555
C12 C4 1_555 1_555
H6 C12 1_555 1_555
C13 N2 1_555 1_555
H7 C13 1_555 1_555
C14 H8 1_555 1_555
H9 C14 1_555 1_555
C15 C5 1_555 1_555
H10 C15 1_555 1_555
C16 C7 1_555 1_555
H11 C16 1_555 1_555
C17 H12 1_555 1_555
H13 C17 1_555 1_555
C18 C7 1_555 1_555
H14 C18 1_555 1_555
H15 C18 1_555 1_555
C19 H16 1_555 1_555
H17 C19 1_555 1_555
C20 C9 1_555 1_555
C21 C5 1_555 1_555
H18 C21 1_555 1_555
C22 C4 1_555 1_555
H19 C22 1_555 1_555
H20 C22 1_555 1_555
C23 C9 1_555 1_555
H21 C23 1_555 1_555
C24 C14 1_555 1_555
H22 C24 1_555 1_555
H23 C24 1_555 1_555
C25 N1 1_555 1_555
H24 C25 1_555 1_555
C26 C28 1_555 1_555
C27 C19 1_555 1_555
C28 C27 1_555 1_555
H25 C28 1_555 1_555
C29 C27 1_555 1_555
H26 C29 1_555 1_555
C30 C31 1_555 1_555
C31 C26 1_555 1_555
H27 C31 1_555 1_555
H28 C31 1_555 1_555
C32 C26 1_555 1_555
H29 C32 1_555 1_555
C33 C29 1_555 1_555
H30 C33 1_555 1_555
Cu1A O3 1_555 1_555
Cu1B O6 1_555 1_555
Cu1C O7 1_555 1_555
Cu2C O4 1_555 1_555
Cu2A O5 1_555 1_555
Cu2B O8 1_555 1_555
O3A Cu1 1_555 1_555
O4C Cu2 1_555 1_555
O5A Cu2 1_555 1_555
O6B Cu1 1_555 1_555
O7C Cu1 1_555 1_555
O8B Cu2 1_555 1_555
C6 C12 1_555 1_555
C8 C21 1_555 1_555
C10 C13 1_555 1_555
C11 C23 1_555 1_555
C15 C25 1_555 1_555
C16 C20 1_555 1_555
C17 C20 1_555 1_555
C22 C24 1_555 1_555
C32 C33 1_555 1_555

#END
