
#######################################################################
#
#                 Cambridge Crystallographic Data Centre
#                                CCDC 
#
#######################################################################
#
# If this CIF has been generated from an entry in the Cambridge 
# Structural Database, then it will include bibliographic, chemical, 
# crystal, experimental, refinement or atomic coordinate data resulting 
# from the CCDC's data processing and validation procedures.
#
#######################################################################

data_YUZWEW
_symmetry_cell_setting           triclinic
_symmetry_space_group_name_H-M   'P -1'
_symmetry_Int_Tables_number      2
_space_group_name_Hall           '-P 1'
loop_
_symmetry_equiv_pos_site_id
_symmetry_equiv_pos_as_xyz
1 x,y,z
2 -x,-y,-z
_cell_length_a                   8.8816(16)
_cell_length_b                   10.2469(18)
_cell_length_c                   15.551(3)
_cell_angle_alpha                71.530(3)
_cell_angle_beta                 89.774(3)
_cell_angle_gamma                74.903(3)
_cell_volume                     1291.27
loop_
_atom_site_label
_atom_site_type_symbol
_atom_site_fract_x
_atom_site_fract_y
_atom_site_fract_z
Mn1 Mn -0.05291(5) -0.16692(4) -0.40795(3)
O1 O -0.8917(2) 0.1318(2) -0.45346(14)
O2 O -0.8793(2) -0.0895(2) -0.36396(14)
O3 O -0.2330(2) -0.2895(2) -0.36950(14)
O4 O -0.0947(2) -0.2712(2) -0.26004(14)
N1 N -0.8550(3) 0.6422(2) -0.41216(17)
N2 N -0.2402(3) 0.0347(2) -0.41004(16)
C1 C -0.7347(4) 0.5855(3) -0.3489(2)
H1 H -0.7325 0.6274 -0.3041
C2 C -0.4811(3) 0.2763(3) -0.4108(2)
C3 C -0.3641(3) 0.0898(3) -0.4718(2)
H2 H -0.3689 0.0458 -0.5153
C4 C -0.6099(3) 0.4027(3) -0.4111(2)
C5 C -0.4848(3) 0.2075(3) -0.4749(2)
H3 H -0.5681 0.2410 -0.5194
C6 C -0.2050(3) -0.3094(3) -0.2862(2)
C7 C -0.5411(3) -0.1571(3) -0.26222(19)
H4 H -0.4806 -0.0989 -0.3008
H5 H -0.5876 -0.1998 -0.2988
C8 C -0.8540(3) 0.0307(3) -0.3792(2)
C9 C -0.6717(3) -0.0615(3) -0.2261(2)
C10 C -0.7760(3) 0.0613(3) -0.3041(2)
H6 H -0.7130 0.1250 -0.3327
H7 H -0.8582 0.1143 -0.2770
C11 C -0.4320(3) -0.2758(3) -0.1838(2)
C12 C -0.3533(3) 0.2192(3) -0.3467(2)
H8 H -0.3453 0.2610 -0.3024
C13 C -0.2378(3) 0.1004(3) -0.3484(2)
H9 H -0.1537 0.0639 -0.3042
C14 C -0.3067(3) -0.3782(3) -0.2184(2)
H10 H -0.3588 -0.4291 -0.2461
H11 H -0.2394 -0.4485 -0.1664
C15 C -0.5315(4) -0.3644(3) -0.1230(2)
H12 H -0.4646 -0.4403 -0.0731
H13 H -0.5798 -0.4081 -0.1582
C16 C -0.5811(4) -0.2044(4) -0.0282(2)
H14 H -0.5132 -0.2793 0.0218
H15 H -0.6605 -0.1456 -0.0029
C17 C -0.8520(4) 0.5797(3) -0.4751(2)
H16 H -0.9340 0.6173 -0.5206
C18 C -0.6132(4) 0.4684(3) -0.3459(2)
H17 H -0.5327 0.4334 -0.2996
C19 C -0.5926(4) 0.0034(4) -0.1682(2)
H18 H -0.6723 0.0647 -0.1447
H19 H -0.5318 0.0619 -0.2062
C20 C -0.3586(4) -0.2069(4) -0.1268(2)
H20 H -0.2964 -0.1494 -0.1642
H21 H -0.2897 -0.2811 -0.0769
C21 C -0.7661(4) -0.1535(3) -0.1642(2)
H22 H -0.8157 -0.1968 -0.1991
H23 H -0.8477 -0.0938 -0.1408
C22 C -0.7348(4) 0.4623(3) -0.4773(2)
H24 H -0.7396 0.4231 -0.5233
C23 C -0.4855(4) -0.1128(4) -0.0889(2)
H25 H -0.4369 -0.0685 -0.0534
C24 C -0.6589(4) -0.2708(4) -0.0849(2)
H26 H -0.7203 -0.3296 -0.0463
Mn1A Mn -0.94709(5) 0.16692(4) -0.59205(3)
Mn1_2 Mn -1.05291(5) -0.16692(4) -0.40795(3)
Mn1_3 Mn -1.05291(5) 0.83308(4) -0.40795(3)
O1A O -0.1083(2) -0.1318(2) -0.54654(14)
O2_2 O 0.1207(2) -0.0895(2) -0.36396(14)
N1_2 N 0.1450(3) -0.3578(2) -0.41216(17)
O5 O 0.1248(7) 0.7759(8) -0.8099(5)
N3 N -0.0383(5) 0.7004(5) -0.8735(4)
C25 C -0.0387(6) 0.8019(7) -0.9639(5)
H27 H -0.0096 0.7509 -1.0064
H28 H 0.0349 0.8552 -0.9622
H29 H -0.1415 0.8664 -0.9827
C26 C -0.1337(7) 0.6075(7) -0.8726(4)
H30 H -0.1350 0.5474 -0.8112
H31 H -0.0918 0.5492 -0.9093
H32 H -0.2384 0.6635 -0.8964
C27 C 0.0388(9) 0.6972(10) -0.8068(7)
H33 H 0.0319 0.6318 -0.7507
loop_
_geom_bond_atom_site_label_1
_geom_bond_atom_site_label_2
_geom_bond_site_symmetry_1
_geom_bond_site_symmetry_2
Mn1 O3 1_555 1_555
O1 C8 1_555 1_555
O2 C8 1_555 1_555
O3 C6 1_555 1_555
O4 Mn1 1_555 1_555
N1 C1 1_555 1_555
N2 Mn1 1_555 1_555
C1 H1 1_555 1_555
C2 C4 1_555 1_555
C3 N2 1_555 1_555
H2 C3 1_555 1_555
C4 C18 1_555 1_555
C5 C2 1_555 1_555
H3 C5 1_555 1_555
C6 O4 1_555 1_555
C7 H4 1_555 1_555
H5 C7 1_555 1_555
C8 C10 1_555 1_555
C9 C7 1_555 1_555
C10 C9 1_555 1_555
H6 C10 1_555 1_555
H7 C10 1_555 1_555
C11 C7 1_555 1_555
C12 C2 1_555 1_555
H8 C12 1_555 1_555
C13 N2 1_555 1_555
H9 C13 1_555 1_555
C14 C6 1_555 1_555
H10 C14 1_555 1_555
H11 C14 1_555 1_555
C15 C11 1_555 1_555
H12 C15 1_555 1_555
H13 C15 1_555 1_555
C16 H14 1_555 1_555
H15 C16 1_555 1_555
C17 N1 1_555 1_555
H16 C17 1_555 1_555
C18 C1 1_555 1_555
H17 C18 1_555 1_555
C19 C9 1_555 1_555
H18 C19 1_555 1_555
H19 C19 1_555 1_555
C20 C11 1_555 1_555
H20 C20 1_555 1_555
H21 C20 1_555 1_555
C21 C9 1_555 1_555
H22 C21 1_555 1_555
H23 C21 1_555 1_555
C22 C4 1_555 1_555
H24 C22 1_555 1_555
C23 C16 1_555 1_555
H25 C23 1_555 1_555
C24 C15 1_555 1_555
H26 C24 1_555 1_555
O5 C27 1_555 1_555
N3 C25 1_555 1_555
C25 H27 1_555 1_555
H28 C25 1_555 1_555
H29 C25 1_555 1_555
C26 N3 1_555 1_555
H30 C26 1_555 1_555
H31 C26 1_555 1_555
H32 C26 1_555 1_555
C27 N3 1_555 1_555
H33 C27 1_555 1_555
Mn1A O1 1_555 1_555
Mn1_2 O2 1_555 1_555
Mn1_3 N1 1_555 1_555
O1A Mn1 1_555 1_555
O2_2 Mn1 1_555 1_555
N1_2 Mn1 1_555 1_555
C3 C5 1_555 1_555
C11 C14 1_555 1_555
C12 C13 1_555 1_555
C16 C24 1_555 1_555
C17 C22 1_555 1_555
C19 C23 1_555 1_555
C20 C23 1_555 1_555
C21 C24 1_555 1_555

#END
