
#######################################################################
#
#                 Cambridge Crystallographic Data Centre
#                                CCDC 
#
#######################################################################
#
# If this CIF has been generated from an entry in the Cambridge 
# Structural Database, then it will include bibliographic, chemical, 
# crystal, experimental, refinement or atomic coordinate data resulting 
# from the CCDC's data processing and validation procedures.
#
#######################################################################

data_YUZWOG02
_symmetry_cell_setting           monoclinic
_symmetry_space_group_name_H-M   'C 2/c'
_symmetry_Int_Tables_number      15
_space_group_name_Hall           '-C 2yn'
loop_
_symmetry_equiv_pos_site_id
_symmetry_equiv_pos_as_xyz
1 x,y,z
2 -x,y,1/2-z
3 1/2+x,1/2+y,z
4 1/2-x,1/2+y,1/2-z
5 -x,-y,-z
6 x,-y,1/2+z
7 1/2-x,1/2-y,-z
8 1/2+x,1/2-y,1/2+z
_cell_length_a                   22.6124(8)
_cell_length_b                   14.0703(5)
_cell_length_c                   11.2298(4)
_cell_angle_alpha                90
_cell_angle_beta                 113.465(2)
_cell_angle_gamma                90
_cell_volume                     3277.44
loop_
_atom_site_label
_atom_site_type_symbol
_atom_site_fract_x
_atom_site_fract_y
_atom_site_fract_z
C1 C 0.57897(11) 1.19105(18) 0.1327(2)
C2 C 0.62743(12) 1.1817(2) 0.0716(3)
C3 C 0.69553(11) 1.14913(18) 0.1627(2)
C4 C 0.69502(13) 1.0609(2) 0.2428(3)
C5 C 0.76410(13) 1.0311(2) 0.3276(3)
C6 C 0.80102(15) 1.0074(2) 0.2434(3)
C7 C 0.80235(13) 1.0944(2) 0.1650(3)
C8 C 0.83663(12) 1.1757(2) 0.2571(3)
C9 C 0.80121(12) 1.20113(17) 0.3435(3)
C10 C 0.73138(12) 1.2294(2) 0.2554(3)
C11 C 0.73316(13) 1.1235(2) 0.0800(3)
C12 C 0.79834(14) 1.1118(2) 0.4203(3)
C13 C 0.83096(14) 1.2874(2) 0.4301(3)
C14 C 0.89773(12) 1.28691(19) 0.5374(2)
C15 C 0.52009(12) 0.90329(19) 0.1711(3)
C16 C 0.51985(12) 0.80615(18) 0.1672(3)
C17 C 0.5000 0.7544(3) 0.2500
C18 C 0.5000 0.6495(3) 0.2500
C19 C 0.47805(13) 0.59790(19) 0.1351(3)
C20 C 0.47787(13) 0.50045(19) 0.1396(3)
N1 N 0.5000 0.9527(2) 0.2500
N2 N 0.5000 0.4509(2) 0.2500
O1 O 0.55180(8) 1.11487(12) 0.14268(18)
O2 O 0.56804(8) 1.27103(13) 0.16989(18)
O3 O 0.92846(8) 1.20961(12) 0.57116(18)
O4 O 0.91755(8) 1.36551(13) 0.58974(18)
Zn1 Zn 0.5000 1.09749(3) 0.2500
Zn2 Zn 0.5000 0.30425(3) 0.2500
H1 H 0.6118(12) 1.1393(18) 0.006(3)
H2 H 0.6315(11) 1.2396(19) 0.035(2)
H3 H 0.6720(13) 1.012(2) 0.185(3)
H4 H 0.6733(12) 1.0749(18) 0.298(3)
H5 H 0.7639(11) 0.9768(19) 0.376(2)
H6 H 0.7796(12) 0.9571(19) 0.185(3)
H7 H 0.8454(14) 0.9868(19) 0.302(3)
H8 H 0.8257(12) 1.0822(17) 0.112(2)
H9 H 0.8788(13) 1.1559(18) 0.310(3)
H10 H 0.8395(12) 1.2316(19) 0.207(3)
H11 H 0.7078(12) 1.2499(19) 0.309(3)
H12 H 0.7344(12) 1.2854(19) 0.207(3)
H13 H 0.7328(12) 1.1754(18) 0.028(3)
H14 H 0.7107(13) 1.072(2) 0.026(3)
H15 H 0.7779(12) 1.1266(18) 0.475(3)
H16 H 0.8403(12) 1.0924(17) 0.478(2)
H17 H 0.8050(14) 1.3055(18) 0.474(3)
H18 H 0.8319(13) 1.338(2) 0.379(3)
H19 H 0.5327(11) 0.9396(17) 0.119(2)
H20 H 0.5324(11) 0.7761(17) 0.115(2)
H21 H 0.4624(13) 0.6284(19) 0.056(3)
H22 H 0.4609(12) 0.4651(18) 0.065(3)
C15A C 0.47991(12) 0.90329(19) 0.3289(3)
C16A C 0.48015(12) 0.80615(18) 0.3328(3)
C19A C 0.52195(13) 0.59790(19) 0.3649(3)
C20A C 0.52213(13) 0.50045(19) 0.3604(3)
H19A H 0.4673(11) 0.9396(17) 0.381(2)
H20A H 0.4676(11) 0.7761(17) 0.385(2)
H21A H 0.5376(13) 0.6284(19) 0.444(3)
H22A H 0.5391(12) 0.4651(18) 0.435(3)
C1A C 0.42103(11) 1.19105(18) 0.3673(2)
C2A C 0.37257(12) 1.1817(2) 0.4284(3)
C3A C 0.30447(11) 1.14913(18) 0.3373(2)
C4A C 0.30498(13) 1.0609(2) 0.2572(3)
C5A C 0.23590(13) 1.0311(2) 0.1724(3)
C6A C 0.19898(15) 1.0074(2) 0.2566(3)
C7A C 0.19765(13) 1.0944(2) 0.3350(3)
C8A C 0.16337(12) 1.1757(2) 0.2429(3)
C9A C 0.19879(12) 1.20113(17) 0.1565(3)
C10A C 0.26862(12) 1.2294(2) 0.2446(3)
C11A C 0.26684(13) 1.1235(2) 0.4200(3)
C12A C 0.20166(14) 1.1118(2) 0.0797(3)
C13A C 0.16904(14) 1.2874(2) 0.0699(3)
C14A C 0.10227(12) 1.28691(19) -0.0374(2)
O1A O 0.44820(8) 1.11487(12) 0.35732(18)
O2A O 0.43196(8) 1.27103(13) 0.33011(18)
O3A O 0.07154(8) 1.20961(12) -0.07116(18)
O4A O 0.08245(8) 1.36551(13) -0.08974(18)
H1A H 0.3882(12) 1.1393(18) 0.494(3)
H2A H 0.3685(11) 1.2396(19) 0.465(2)
H3A H 0.3280(13) 1.012(2) 0.315(3)
H4A H 0.3267(12) 1.0749(18) 0.202(3)
H5A H 0.2361(11) 0.9768(19) 0.124(2)
H6A H 0.2204(12) 0.9571(19) 0.315(3)
H7A H 0.1546(14) 0.9868(19) 0.198(3)
H8A H 0.1743(12) 1.0822(17) 0.388(2)
H9A H 0.1212(13) 1.1559(18) 0.190(3)
H10A H 0.1605(12) 1.2316(19) 0.293(3)
H11A H 0.2922(12) 1.2499(19) 0.191(3)
H12A H 0.2656(12) 1.2854(19) 0.293(3)
H13A H 0.2672(12) 1.1754(18) 0.472(3)
H14A H 0.2893(13) 1.072(2) 0.474(3)
H15A H 0.2221(12) 1.1266(18) 0.025(3)
H16A H 0.1597(12) 1.0924(17) 0.022(2)
H17A H 0.1950(14) 1.3055(18) 0.026(3)
H18A H 0.1681(13) 1.338(2) 0.121(3)
O2_2 O 0.56804(8) 0.27103(13) 0.16989(18)
O2A_2 O 0.43196(8) 0.27103(13) 0.33011(18)
O3F O 0.57154(8) 0.29039(12) 0.42884(18)
O3G O 0.42846(8) 0.29039(12) 0.07116(18)
O4F O 0.58245(8) 1.13449(13) 0.41026(18)
O4G O 0.41755(8) 1.13449(13) 0.08974(18)
Zn1F Zn 0.0000 1.40251(3) -0.2500
Zn1F_2 Zn 1.0000 1.40251(3) 0.7500
Zn2_2 Zn 0.5000 1.30425(3) 0.2500
Zn2F Zn 0.0000 1.19575(3) -0.2500
Zn2F_2 Zn 1.0000 1.19575(3) 0.7500
loop_
_geom_bond_atom_site_label_1
_geom_bond_atom_site_label_2
_geom_bond_site_symmetry_1
_geom_bond_site_symmetry_2
C1 C2 1_555 1_555
C2 C3 1_555 1_555
C3 C4 1_555 1_555
C4 C5 1_555 1_555
C5 C6 1_555 1_555
C6 C7 1_555 1_555
C7 C8 1_555 1_555
C8 C9 1_555 1_555
C9 C10 1_555 1_555
C10 C3 1_555 1_555
C11 C3 1_555 1_555
C12 C5 1_555 1_555
C13 C9 1_555 1_555
C14 C13 1_555 1_555
C15 C16 1_555 1_555
C16 C17 1_555 1_555
C17 C18 1_555 1_555
C18 C19 1_555 1_555
C19 C20 1_555 1_555
C20 N2 1_555 1_555
N1 C15 1_555 1_555
N2 Zn2 1_555 1_555
O1 C1 1_555 1_555
O2 C1 1_555 1_555
O3 C14 1_555 1_555
O4 C14 1_555 1_555
Zn1 N1 1_555 1_555
Zn2 O2_2 1_555 1_555
H1 C2 1_555 1_555
H2 C2 1_555 1_555
H3 C4 1_555 1_555
H4 C4 1_555 1_555
H5 C5 1_555 1_555
H6 C6 1_555 1_555
H7 C6 1_555 1_555
H8 C7 1_555 1_555
H9 C8 1_555 1_555
H10 C8 1_555 1_555
H11 C10 1_555 1_555
H12 C10 1_555 1_555
H13 C11 1_555 1_555
H14 C11 1_555 1_555
H15 C12 1_555 1_555
H16 C12 1_555 1_555
H17 C13 1_555 1_555
H18 C13 1_555 1_555
H19 C15 1_555 1_555
H20 C16 1_555 1_555
H21 C19 1_555 1_555
H22 C20 1_555 1_555
C15A N1 1_555 1_555
C16A C17 1_555 1_555
C19A C18 1_555 1_555
C20A N2 1_555 1_555
H19A C15A 1_555 1_555
H20A C16A 1_555 1_555
H21A C19A 1_555 1_555
H22A C20A 1_555 1_555
C1A C2A 1_555 1_555
C2A C3A 1_555 1_555
C3A C4A 1_555 1_555
C4A C5A 1_555 1_555
C5A C6A 1_555 1_555
C6A C7A 1_555 1_555
C7A C8A 1_555 1_555
C8A C9A 1_555 1_555
C9A C10A 1_555 1_555
C10A C3A 1_555 1_555
C11A C3A 1_555 1_555
C12A C5A 1_555 1_555
C13A C9A 1_555 1_555
C14A C13A 1_555 1_555
O1A Zn1 1_555 1_555
O2A C1A 1_555 1_555
O3A C14A 1_555 1_555
O4A C14A 1_555 1_555
H1A C2A 1_555 1_555
H2A C2A 1_555 1_555
H3A C4A 1_555 1_555
H4A C4A 1_555 1_555
H5A C5A 1_555 1_555
H6A C6A 1_555 1_555
H7A C6A 1_555 1_555
H8A C7A 1_555 1_555
H9A C8A 1_555 1_555
H10A C8A 1_555 1_555
H11A C10A 1_555 1_555
H12A C10A 1_555 1_555
H13A C11A 1_555 1_555
H14A C11A 1_555 1_555
H15A C12A 1_555 1_555
H16A C12A 1_555 1_555
H17A C13A 1_555 1_555
H18A C13A 1_555 1_555
O2A_2 Zn2 1_555 1_555
O3F Zn2 1_555 1_555
O3G Zn2 1_555 1_555
O4F Zn1 1_555 1_555
O4G Zn1 1_555 1_555
Zn1F O4A 1_555 1_555
Zn1F_2 O4 1_555 1_555
Zn2_2 O2 1_555 1_555
Zn2F O3A 1_555 1_555
Zn2F_2 O3 1_555 1_555
C7 C11 1_555 1_555
C9 C12 1_555 1_555
O1 Zn1 1_555 1_555
C15A C16A 1_555 1_555
C19A C20A 1_555 1_555
C1A O1A 1_555 1_555
C7A C11A 1_555 1_555
C9A C12A 1_555 1_555
O2A Zn2_2 1_555 1_555

#END
