
#######################################################################
#
#                 Cambridge Crystallographic Data Centre
#                                CCDC 
#
#######################################################################
#
# If this CIF has been generated from an entry in the Cambridge 
# Structural Database, then it will include bibliographic, chemical, 
# crystal, experimental, refinement or atomic coordinate data resulting 
# from the CCDC's data processing and validation procedures.
#
#######################################################################

data_YUZWOG01
_symmetry_cell_setting           monoclinic
_symmetry_space_group_name_H-M   'C 2/c'
_symmetry_Int_Tables_number      15
_space_group_name_Hall           '-C 2yn'
loop_
_symmetry_equiv_pos_site_id
_symmetry_equiv_pos_as_xyz
1 x,y,z
2 -x,y,1/2-z
3 1/2+x,1/2+y,z
4 1/2-x,1/2+y,1/2-z
5 -x,-y,-z
6 x,-y,1/2+z
7 1/2-x,1/2-y,-z
8 1/2+x,1/2-y,1/2+z
_cell_length_a                   22.602(5)
_cell_length_b                   14.062(3)
_cell_length_c                   11.233(2)
_cell_angle_alpha                90
_cell_angle_beta                 113.450(3)
_cell_angle_gamma                90
_cell_volume                     3275.31
loop_
_atom_site_label
_atom_site_type_symbol
_atom_site_fract_x
_atom_site_fract_y
_atom_site_fract_z
Zn1 Zn 0.0000 0.30424(3) -0.2500
Zn2 Zn 0.0000 0.09764(3) -0.2500
N1 N 0.0000 0.4515(2) -0.2500
N2 N 0.0000 0.9529(2) -0.2500
O1 O 0.07115(11) 0.29063(14) -0.0716(2)
O2 O 0.08225(11) 0.13443(15) -0.0898(2)
O3 O 0.43215(11) 0.22890(15) 0.3306(2)
O4 O 0.44809(11) 0.38511(15) 0.3567(2)
C1 C 0.10277(16) 0.2134(2) -0.0370(3)
C2 C 0.16876(16) 0.2121(2) 0.0697(3)
H1 H 0.1983 0.1939 0.0303
H2 H 0.1691 0.1607 0.1275
C3 C 0.19896(16) 0.2990(2) 0.1563(3)
C4 C 0.16309(16) 0.3240(2) 0.2430(3)
H3 H 0.1192 0.3427 0.1894
H4 H 0.1614 0.2686 0.2931
C5 C 0.19758(16) 0.4053(2) 0.3346(3)
H5 H 0.1744 0.4203 0.3898
C6 C 0.19883(17) 0.4927(2) 0.2566(3)
H6 H 0.2197 0.5450 0.3146
H7 H 0.1551 0.5118 0.2020
C7 C 0.23597(16) 0.4689(2) 0.1725(3)
H8 H 0.2370 0.5253 0.1220
C8 C 0.20151(17) 0.3882(2) 0.0790(3)
H9 H 0.2243 0.3737 0.0241
H10 H 0.1581 0.4078 0.0237
C9 C 0.26830(15) 0.2712(2) 0.2444(3)
H11 H 0.2673 0.2154 0.2945
H12 H 0.2915 0.2544 0.1909
C10 C 0.26679(16) 0.3766(2) 0.4204(3)
H13 H 0.2662 0.3223 0.4732
H14 H 0.2881 0.4287 0.4781
C11 C 0.30462(15) 0.3509(2) 0.3376(3)
C12 C 0.37257(16) 0.3183(2) 0.4283(3)
H15 H 0.3895 0.3631 0.4996
H16 H 0.3689 0.2571 0.4647
C13 C 0.42092(15) 0.3090(2) 0.3665(3)
C14 C 0.02224(16) 0.5007(2) -0.1391(3)
H17 H 0.0386 0.4674 -0.0612
C15 C 0.02216(16) 0.5980(2) -0.1347(3)
H18 H 0.0368 0.6293 -0.0553
C16 C 0.0000 0.6497(3) -0.2500
C17 C 0.0000 0.7547(3) -0.2500
C18 C 0.01998(15) 0.8057(2) -0.3328(3)
H19 H 0.0331 0.7741 -0.3909
C19 C 0.02030(15) 0.9031(2) -0.3285(3)
H20 H 0.0353 0.9363 -0.3825
C20 C 0.30524(16) 0.4394(2) 0.2572(3)
H21 H 0.3273 0.4912 0.3148
H22 H 0.3283 0.4253 0.2027
Zn1F Zn 0.5000 0.19576(3) 0.2500
Zn1F_2 Zn -0.5000 0.19576(3) -0.7500
Zn2F Zn 0.5000 0.40236(3) 0.2500
Zn2_2 Zn 0.0000 1.09764(3) -0.2500
Zn2F_2 Zn -0.5000 0.40236(3) -0.7500
N2_2 N 0.0000 -0.0471(2) -0.2500
O1A O -0.07115(11) 0.29063(14) -0.4284(2)
O2A O -0.08225(11) 0.13443(15) -0.4102(2)
O3G O -0.06785(11) 0.27110(15) -0.1694(2)
O3F O 0.06785(11) 0.27110(15) -0.3306(2)
O3A O -0.43215(11) 0.22890(15) -0.8306(2)
O4G O -0.05191(11) 0.11489(15) -0.1433(2)
O4F O 0.05191(11) 0.11489(15) -0.3567(2)
O4A O -0.44809(11) 0.38511(15) -0.8567(2)
C1A C -0.10277(16) 0.2134(2) -0.4630(3)
C2A C -0.16876(16) 0.2121(2) -0.5697(3)
H1A H -0.1983 0.1939 -0.5303
H2A H -0.1691 0.1607 -0.6275
C3A C -0.19896(16) 0.2990(2) -0.6563(3)
C4A C -0.16309(16) 0.3240(2) -0.7430(3)
H3A H -0.1192 0.3427 -0.6894
H4A H -0.1614 0.2686 -0.7931
C5A C -0.19758(16) 0.4053(2) -0.8346(3)
H5A H -0.1744 0.4203 -0.8898
C6A C -0.19883(17) 0.4927(2) -0.7566(3)
H6A H -0.2197 0.5450 -0.8146
H7A H -0.1551 0.5118 -0.7020
C7A C -0.23597(16) 0.4689(2) -0.6725(3)
H8A H -0.2370 0.5253 -0.6220
C8A C -0.20151(17) 0.3882(2) -0.5790(3)
H9A H -0.2243 0.3737 -0.5241
H10A H -0.1581 0.4078 -0.5237
C9A C -0.26830(15) 0.2712(2) -0.7444(3)
H11A H -0.2673 0.2154 -0.7945
H12A H -0.2915 0.2544 -0.6909
C10A C -0.26679(16) 0.3766(2) -0.9204(3)
H13A H -0.2662 0.3223 -0.9732
H14A H -0.2881 0.4287 -0.9781
C11A C -0.30462(15) 0.3509(2) -0.8376(3)
C12A C -0.37257(16) 0.3183(2) -0.9283(3)
H15A H -0.3895 0.3631 -0.9996
H16A H -0.3689 0.2571 -0.9647
C13A C -0.42092(15) 0.3090(2) -0.8665(3)
C14A C -0.02224(16) 0.5007(2) -0.3609(3)
H17A H -0.0386 0.4674 -0.4388
C15A C -0.02216(16) 0.5980(2) -0.3653(3)
H18A H -0.0368 0.6293 -0.4447
C18A C -0.01998(15) 0.8057(2) -0.1672(3)
H19A H -0.0331 0.7741 -0.1091
C19A C -0.02030(15) 0.9031(2) -0.1715(3)
H20A H -0.0353 0.9363 -0.1175
C20A C -0.30524(16) 0.4394(2) -0.7572(3)
H21A H -0.3273 0.4912 -0.8148
H22A H -0.3283 0.4253 -0.7027
loop_
_geom_bond_atom_site_label_1
_geom_bond_atom_site_label_2
_geom_bond_site_symmetry_1
_geom_bond_site_symmetry_2
Zn1 N1 1_555 1_555
Zn2 O2 1_555 1_555
N1 C14 1_555 1_555
N2 C19 1_555 1_555
O1 Zn1 1_555 1_555
O2 C1 1_555 1_555
O3 C13 1_555 1_555
O4 C13 1_555 1_555
C1 O1 1_555 1_555
C2 C1 1_555 1_555
H1 C2 1_555 1_555
H2 C2 1_555 1_555
C3 C2 1_555 1_555
C4 C3 1_555 1_555
H3 C4 1_555 1_555
H4 C4 1_555 1_555
C5 C4 1_555 1_555
H5 C5 1_555 1_555
C6 C5 1_555 1_555
H6 C6 1_555 1_555
H7 C6 1_555 1_555
C7 C6 1_555 1_555
H8 C7 1_555 1_555
C8 C3 1_555 1_555
H9 C8 1_555 1_555
H10 C8 1_555 1_555
C9 C3 1_555 1_555
H11 C9 1_555 1_555
H12 C9 1_555 1_555
C10 C5 1_555 1_555
H13 C10 1_555 1_555
H14 C10 1_555 1_555
C11 C9 1_555 1_555
C12 C11 1_555 1_555
H15 C12 1_555 1_555
H16 C12 1_555 1_555
C13 C12 1_555 1_555
C14 H17 1_555 1_555
C15 C14 1_555 1_555
H18 C15 1_555 1_555
C16 C15 1_555 1_555
C17 C16 1_555 1_555
C18 C17 1_555 1_555
H19 C18 1_555 1_555
C19 C18 1_555 1_555
H20 C19 1_555 1_555
C20 C7 1_555 1_555
H21 C20 1_555 1_555
H22 C20 1_555 1_555
Zn1F O3 1_555 1_555
Zn1F_2 O3A 1_555 1_555
Zn2F O4 1_555 1_555
Zn2_2 N2 1_555 1_555
Zn2F_2 O4A 1_555 1_555
N2_2 Zn2 1_555 1_555
O1A Zn1 1_555 1_555
O2A Zn2 1_555 1_555
O3G Zn1 1_555 1_555
O3F Zn1 1_555 1_555
O3A C13A 1_555 1_555
O4G Zn2 1_555 1_555
O4F Zn2 1_555 1_555
O4A C13A 1_555 1_555
C1A O1A 1_555 1_555
C2A C1A 1_555 1_555
H1A C2A 1_555 1_555
H2A C2A 1_555 1_555
C3A C2A 1_555 1_555
C4A C3A 1_555 1_555
H3A C4A 1_555 1_555
H4A C4A 1_555 1_555
C5A C4A 1_555 1_555
H5A C5A 1_555 1_555
C6A C5A 1_555 1_555
H6A C6A 1_555 1_555
H7A C6A 1_555 1_555
C7A C6A 1_555 1_555
H8A C7A 1_555 1_555
C8A C3A 1_555 1_555
H9A C8A 1_555 1_555
H10A C8A 1_555 1_555
C9A C3A 1_555 1_555
H11A C9A 1_555 1_555
H12A C9A 1_555 1_555
C10A C5A 1_555 1_555
H13A C10A 1_555 1_555
H14A C10A 1_555 1_555
C11A C9A 1_555 1_555
C12A C11A 1_555 1_555
H15A C12A 1_555 1_555
H16A C12A 1_555 1_555
C13A C12A 1_555 1_555
C14A N1 1_555 1_555
H17A C14A 1_555 1_555
C15A C16 1_555 1_555
H18A C15A 1_555 1_555
C18A C17 1_555 1_555
H19A C18A 1_555 1_555
C19A N2 1_555 1_555
H20A C19A 1_555 1_555
C20A C7A 1_555 1_555
H21A C20A 1_555 1_555
H22A C20A 1_555 1_555
C7 C8 1_555 1_555
C10 C11 1_555 1_555
C11 C20 1_555 1_555
O2A C1A 1_555 1_555
C7A C8A 1_555 1_555
C10A C11A 1_555 1_555
C11A C20A 1_555 1_555
C14A C15A 1_555 1_555
C18A C19A 1_555 1_555

#END
