
#######################################################################
#
#                 Cambridge Crystallographic Data Centre
#                                CCDC 
#
#######################################################################
#
# If this CIF has been generated from an entry in the Cambridge 
# Structural Database, then it will include bibliographic, chemical, 
# crystal, experimental, refinement or atomic coordinate data resulting 
# from the CCDC's data processing and validation procedures.
#
#######################################################################

data_YUZWIA
_symmetry_cell_setting           monoclinic
_symmetry_space_group_name_H-M   'C 2/c'
_symmetry_Int_Tables_number      15
_space_group_name_Hall           '-C 2yn'
loop_
_symmetry_equiv_pos_site_id
_symmetry_equiv_pos_as_xyz
1 x,y,z
2 -x,y,1/2-z
3 1/2+x,1/2+y,z
4 1/2-x,1/2+y,1/2-z
5 -x,-y,-z
6 x,-y,1/2+z
7 1/2-x,1/2-y,-z
8 1/2+x,1/2-y,1/2+z
_cell_length_a                   23.495(2)
_cell_length_b                   11.6667(10)
_cell_length_c                   13.2885(12)
_cell_angle_alpha                90
_cell_angle_beta                 94.286(2)
_cell_angle_gamma                90
_cell_volume                     3632.31
loop_
_atom_site_label
_atom_site_type_symbol
_atom_site_fract_x
_atom_site_fract_y
_atom_site_fract_z
Mn1 Mn 0.0000 0.27386(4) 0.7500
O1 O 0.39651(8) -0.03678(17) 0.53171(16)
O2 O 0.37376(7) 0.12509(16) 0.60744(14)
H1 H 0.3921 0.1520 0.5620
O3 O 0.07347(7) 0.27214(15) 0.53282(13)
O4 O 0.08375(7) 0.26833(14) 0.70072(13)
O5 O -0.03375(8) 0.27510(16) 0.58881(13)
N1 N 0.0000 0.4698(2) 0.7500
N2 N 0.0000 1.0770(2) 0.7500
C1 C 0.0000 0.8370(3) 0.7500
C2 C 0.24568(9) 0.0953(2) 0.63400(18)
H2 H 0.2670 0.1452 0.5897
H3 H 0.2537 0.1208 0.7016
C3 C 0.10335(10) 0.26078(19) 0.6158(2)
C4 C -0.02574(10) 0.53016(19) 0.81946(18)
H4 H -0.0440 0.4902 0.8684
C5 C 0.18164(9) 0.10902(19) 0.60325(17)
C6 C 0.25249(12) -0.0674(2) 0.5148(2)
H5 H 0.2646 -0.1462 0.5070
H6 H 0.2736 -0.0198 0.4707
C7 C 0.16680(10) 0.2370(2) 0.6149(2)
H7 H 0.1858 0.2652 0.6773
H8 H 0.1816 0.2794 0.5598
C8 C 0.15453(13) -0.1313(3) 0.5534(3)
H9 H 0.1644 -0.2135 0.5488
H10 H 0.1132 -0.1266 0.5358
C9 C -0.01611(11) 1.0166(2) 0.66696(19)
H11 H -0.0276 1.0563 0.6084
C10 C -0.02669(10) 0.64829(19) 0.82239(18)
H12 H -0.0447 0.6867 0.8724
C11 C 0.26555(10) -0.0297(2) 0.62453(19)
C12 C -0.01625(11) 0.8990(2) 0.66342(18)
H13 H -0.0274 0.8611 0.6036
C13 C 0.32944(10) -0.0443(2) 0.6593(2)
H14 H 0.3386 -0.1261 0.6635
H15 H 0.3361 -0.0144 0.7283
C14 C 0.36999(11) 0.0132(2) 0.5934(2)
C15 C 0.23034(11) -0.1042(2) 0.6922(2)
H16 H 0.2416 -0.1838 0.6864
H17 H 0.2380 -0.0811 0.7620
C16 C 0.0000 0.7101(3) 0.7500
C17 C 0.14807(11) 0.0325(2) 0.6715(2)
H18 H 0.1076 0.0395 0.6524
H19 H 0.1548 0.0573 0.7410
C18 C 0.18836(13) -0.0572(3) 0.4849(2)
H20 H 0.1807 -0.0823 0.4148
C19 C 0.17044(12) 0.0680(2) 0.49419(19)
H21 H 0.1917 0.1152 0.4500
H22 H 0.1302 0.0758 0.4734
C20 C 0.16638(12) -0.0927(2) 0.6622(3)
H23 H 0.1448 -0.1406 0.7064
H24 H -0.0010(15) 0.281(3) 0.548(3)
H25 H -0.0563(14) 0.325(3) 0.570(2)
Mn1_2 Mn 0.0000 1.27386(4) 0.7500
O1A O -0.39651(8) -0.03678(17) 0.96829(16)
O2A O -0.37376(7) 0.12509(16) 0.89256(14)
H1A H -0.3921 0.1520 0.9380
O3A O -0.07347(7) 0.27214(15) 0.96718(13)
O4A O -0.08375(7) 0.26833(14) 0.79928(13)
O5A O 0.03375(8) 0.27510(16) 0.91119(13)
N2_2 N 0.0000 0.0770(2) 0.7500
C2A C -0.24568(9) 0.0953(2) 0.86600(18)
H2A H -0.2670 0.1452 0.9103
H3A H -0.2537 0.1208 0.7984
C3A C -0.10335(10) 0.26078(19) 0.8842(2)
C4A C 0.02574(10) 0.53016(19) 0.68054(18)
H4A H 0.0440 0.4902 0.6316
C5A C -0.18164(9) 0.10902(19) 0.89675(17)
C6A C -0.25249(12) -0.0674(2) 0.9852(2)
H5A H -0.2646 -0.1462 0.9930
H6A H -0.2736 -0.0198 1.0293
C7A C -0.16680(10) 0.2370(2) 0.8851(2)
H7A H -0.1858 0.2652 0.8227
H8A H -0.1816 0.2794 0.9402
C8A C -0.15453(13) -0.1313(3) 0.9466(3)
H9A H -0.1644 -0.2135 0.9512
H10A H -0.1132 -0.1266 0.9642
C9A C 0.01611(11) 1.0166(2) 0.83304(19)
H11A H 0.0276 1.0563 0.8916
C10A C 0.02669(10) 0.64829(19) 0.67761(18)
H12A H 0.0447 0.6867 0.6276
C11A C -0.26555(10) -0.0297(2) 0.87547(19)
C12A C 0.01625(11) 0.8990(2) 0.83658(18)
H13A H 0.0274 0.8611 0.8964
C13A C -0.32944(10) -0.0443(2) 0.8407(2)
H14A H -0.3386 -0.1261 0.8365
H15A H -0.3361 -0.0144 0.7717
C14A C -0.36999(11) 0.0132(2) 0.9066(2)
C15A C -0.23034(11) -0.1042(2) 0.8078(2)
H16A H -0.2416 -0.1838 0.8136
H17A H -0.2380 -0.0811 0.7380
C17A C -0.14807(11) 0.0325(2) 0.8285(2)
H18A H -0.1076 0.0395 0.8476
H19A H -0.1548 0.0573 0.7590
C18A C -0.18836(13) -0.0572(3) 1.0151(2)
H20A H -0.1807 -0.0823 1.0852
C19A C -0.17044(12) 0.0680(2) 1.00581(19)
H21A H -0.1917 0.1152 1.0500
H22A H -0.1302 0.0758 1.0266
C20A C -0.16638(12) -0.0927(2) 0.8378(3)
H23A H -0.1448 -0.1406 0.7936
H24A H 0.0010(15) 0.281(3) 0.952(3)
H25A H 0.0563(14) 0.325(3) 0.930(2)
loop_
_geom_bond_atom_site_label_1
_geom_bond_atom_site_label_2
_geom_bond_site_symmetry_1
_geom_bond_site_symmetry_2
Mn1 O4 1_555 1_555
O1 C14 1_555 1_555
O2 H1 1_555 1_555
O3 C3 1_555 1_555
O4 C3 1_555 1_555
O5 Mn1 1_555 1_555
N1 Mn1 1_555 1_555
N2 C9 1_555 1_555
C1 C12 1_555 1_555
C2 H2 1_555 1_555
H3 C2 1_555 1_555
C3 C7 1_555 1_555
C4 N1 1_555 1_555
H4 C4 1_555 1_555
C5 C2 1_555 1_555
C6 H5 1_555 1_555
H6 C6 1_555 1_555
C7 C5 1_555 1_555
H7 C7 1_555 1_555
H8 C7 1_555 1_555
C8 H9 1_555 1_555
H10 C8 1_555 1_555
C9 H11 1_555 1_555
C10 C4 1_555 1_555
H12 C10 1_555 1_555
C11 C2 1_555 1_555
C12 C9 1_555 1_555
H13 C12 1_555 1_555
C13 C11 1_555 1_555
H14 C13 1_555 1_555
H15 C13 1_555 1_555
C14 O2 1_555 1_555
C15 C11 1_555 1_555
H16 C15 1_555 1_555
H17 C15 1_555 1_555
C16 C1 1_555 1_555
C17 C5 1_555 1_555
H18 C17 1_555 1_555
H19 C17 1_555 1_555
C18 C6 1_555 1_555
H20 C18 1_555 1_555
C19 C5 1_555 1_555
H21 C19 1_555 1_555
H22 C19 1_555 1_555
C20 C8 1_555 1_555
H23 C20 1_555 1_555
H24 O5 1_555 1_555
H25 O5 1_555 1_555
Mn1_2 N2 1_555 1_555
O1A C14A 1_555 1_555
O2A H1A 1_555 1_555
O3A C3A 1_555 1_555
O4A Mn1 1_555 1_555
O5A Mn1 1_555 1_555
N2_2 Mn1 1_555 1_555
C2A H2A 1_555 1_555
H3A C2A 1_555 1_555
C3A O4A 1_555 1_555
C4A N1 1_555 1_555
H4A C4A 1_555 1_555
C5A C2A 1_555 1_555
C6A H5A 1_555 1_555
H6A C6A 1_555 1_555
C7A C3A 1_555 1_555
H7A C7A 1_555 1_555
H8A C7A 1_555 1_555
C8A H9A 1_555 1_555
H10A C8A 1_555 1_555
C9A N2 1_555 1_555
H11A C9A 1_555 1_555
C10A C16 1_555 1_555
H12A C10A 1_555 1_555
C11A C2A 1_555 1_555
C12A C1 1_555 1_555
H13A C12A 1_555 1_555
C13A C11A 1_555 1_555
H14A C13A 1_555 1_555
H15A C13A 1_555 1_555
C14A O2A 1_555 1_555
C15A C11A 1_555 1_555
H16A C15A 1_555 1_555
H17A C15A 1_555 1_555
C17A C5A 1_555 1_555
H18A C17A 1_555 1_555
H19A C17A 1_555 1_555
C18A C6A 1_555 1_555
H20A C18A 1_555 1_555
C19A C5A 1_555 1_555
H21A C19A 1_555 1_555
H22A C19A 1_555 1_555
C20A C8A 1_555 1_555
H23A C20A 1_555 1_555
H24A O5A 1_555 1_555
H25A O5A 1_555 1_555
C6 C11 1_555 1_555
C8 C18 1_555 1_555
C10 C16 1_555 1_555
C13 C14 1_555 1_555
C15 C20 1_555 1_555
C17 C20 1_555 1_555
C18 C19 1_555 1_555
C4A C10A 1_555 1_555
C5A C7A 1_555 1_555
C6A C11A 1_555 1_555
C8A C18A 1_555 1_555
C9A C12A 1_555 1_555
C13A C14A 1_555 1_555
C15A C20A 1_555 1_555
C17A C20A 1_555 1_555
C18A C19A 1_555 1_555

#END
