
#######################################################################
#
#                 Cambridge Crystallographic Data Centre
#                                CCDC 
#
#######################################################################
#
# If this CIF has been generated from an entry in the Cambridge 
# Structural Database, then it will include bibliographic, chemical, 
# crystal, experimental, refinement or atomic coordinate data resulting 
# from the CCDC's data processing and validation procedures.
#
#######################################################################

data_YUZXOH
_symmetry_cell_setting           monoclinic
_symmetry_space_group_name_H-M   'P 21'
_symmetry_Int_Tables_number      4
_space_group_name_Hall           'P 2yb'
loop_
_symmetry_equiv_pos_site_id
_symmetry_equiv_pos_as_xyz
1 x,y,z
2 -x,1/2+y,-z
_cell_length_a                   11.564(2)
_cell_length_b                   18.821(4)
_cell_length_c                   17.117(3)
_cell_angle_alpha                90
_cell_angle_beta                 100.68(3)
_cell_angle_gamma                90
_cell_volume                     3660.91
loop_
_atom_site_label
_atom_site_type_symbol
_atom_site_fract_x
_atom_site_fract_y
_atom_site_fract_z
Ni1 Ni -0.31671(7) -0.31487(3) 0.13424(4)
Ni2 Ni 0.17659(7) -0.59733(3) 0.63752(4)
C1 C -0.8414(9) -0.0757(6) -0.0524(6)
H1 H -0.7823 -0.0517 -0.0182
C2 C -0.8391(8) -0.1475(6) -0.0531(5)
C3 C -0.9323(11) -0.1759(7) -0.1048(6)
H2 H -0.9345 -0.2253 -0.1067
C4 C -1.0120(14) -0.1464(11) -0.1483(9)
H3 H -1.0713 -0.1732 -0.1790
C5 C -1.0153(14) -0.0787(15) -0.1523(9)
H4 H -1.0741 -0.0567 -0.1887
C6 C -0.7468(7) -0.1898(5) -0.0045(4)
C7 C -0.6363(7) -0.1674(5) 0.0148(4)
H5 H -0.6179 -0.1224 -0.0016
C8 C -0.5451(7) -0.2089(4) 0.0593(4)
C9 C -0.5706(7) -0.2793(4) 0.0837(4)
C10 C -0.6884(7) -0.3023(5) 0.0663(4)
C11 C -0.7707(7) -0.2577(6) 0.0226(4)
H6 H -0.8479 -0.2738 0.0102
C12 C -0.4295(8) -0.1764(4) 0.0780(4)
H7 H -0.4246 -0.1288 0.0645
C13 C -0.7238(8) -0.3742(5) 0.0941(5)
C14 C -0.6935(10) -0.3781(7) 0.1840(5)
H8 H -0.7363 -0.3422 0.2065
H9 H -0.6105 -0.3706 0.2012
H10 H -0.7144 -0.4241 0.2013
C15 C -0.6584(10) -0.4328(6) 0.0586(6)
H11 H -0.5751 -0.4256 0.0742
H12 H -0.6797 -0.4315 0.0017
H13 H -0.6792 -0.4781 0.0777
C16 C -0.8538(8) -0.3899(6) 0.0702(5)
H14 H -0.8981 -0.3546 0.0924
H15 H -0.8702 -0.4360 0.0897
H16 H -0.8757 -0.3892 0.0133
C17 C -0.2239(6) -0.1644(3) 0.1313(4)
H17 H -0.2180 -0.1483 0.1864
C18 C -0.2136(8) -0.0978(5) 0.0805(5)
H18 H -0.2232 -0.1109 0.0249
H19 H -0.2749 -0.0641 0.0863
C19 C -0.0936(7) -0.0640(4) 0.1077(5)
H20 H -0.0861 -0.0235 0.0740
H21 H -0.0884 -0.0467 0.1616
C20 C 0.0064(7) -0.1142(4) 0.1054(4)
H22 H 0.0804 -0.0899 0.1235
H23 H 0.0045 -0.1296 0.0511
C21 C -0.0017(7) -0.1798(4) 0.1588(4)
H24 H 0.0616 -0.2127 0.1551
H25 H 0.0053 -0.1652 0.2138
C22 C -0.1209(5) -0.2154(3) 0.1300(3)
H26 H -0.1236 -0.2287 0.0744
C23 C -0.0674(7) -0.3093(4) 0.2258(3)
H27 H 0.0040 -0.2857 0.2405
C24 C -0.0815(7) -0.3753(4) 0.2654(4)
C25 C -0.1899(8) -0.4139(4) 0.2559(4)
C26 C -0.1871(8) -0.4815(4) 0.2937(4)
C27 C -0.0843(7) -0.5020(4) 0.3438(4)
H28 H -0.0843 -0.5451 0.3705
C28 C 0.0178(8) -0.4625(5) 0.3566(4)
C29 C 0.0188(8) -0.4010(5) 0.3155(4)
H29 H 0.0884 -0.3752 0.3209
C30 C -0.2944(7) -0.5301(4) 0.2797(4)
C31 C -0.3902(9) -0.5009(5) 0.3203(6)
H30 H -0.3590 -0.4935 0.3757
H31 H -0.4540 -0.5343 0.3149
H32 H -0.4182 -0.4567 0.2961
C32 C -0.3377(10) -0.5428(7) 0.1921(5)
H33 H -0.3590 -0.4983 0.1660
H34 H -0.4052 -0.5734 0.1850
H35 H -0.2765 -0.5647 0.1696
C33 C -0.2679(9) -0.6046(5) 0.3128(7)
H36 H -0.2388 -0.6019 0.3691
H37 H -0.2095 -0.6263 0.2874
H38 H -0.3385 -0.6326 0.3030
C34 C 0.1247(7) -0.4893(4) 0.4099(4)
C35 C 0.1150(7) -0.5232(4) 0.4806(4)
H39 H 0.0404 -0.5283 0.4929
C36 C 0.3142(7) -0.5403(6) 0.5134(5)
H40 H 0.3792 -0.5588 0.5476
C37 C 0.3314(9) -0.5054(6) 0.4465(5)
H41 H 0.4072 -0.4959 0.4384
C38 C 0.2389(8) -0.4854(6) 0.3933(5)
H42 H 0.2498 -0.4685 0.3441
C39 C 0.6154(7) -0.3843(4) 0.9733(4)
H43 H 0.5404 -0.3754 0.9833
C40 C 0.6241(8) -0.4188(5) 0.9032(5)
C41 C 0.7319(9) -0.4335(6) 0.8895(5)
H44 H 0.7418 -0.4602 0.8455
C42 C 0.8286(9) -0.4078(6) 0.9425(6)
H45 H 0.9039 -0.4126 0.9312
C43 C 0.8127(9) -0.3756(5) 1.0113(5)
H46 H 0.8784 -0.3619 1.0483
C44 C 0.5187(7) -0.4429(4) 0.8483(4)
C45 C 0.4132(7) -0.4005(4) 0.8283(4)
H47 H 0.4147 -0.3549 0.8495
C46 C 0.3138(7) -0.4217(4) 0.7817(4)
C47 C 0.3085(7) -0.4923(4) 0.7509(4)
C48 C 0.4092(7) -0.5366(4) 0.7661(4)
C49 C 0.5123(7) -0.5107(4) 0.8158(4)
H48 H 0.5778 -0.5402 0.8271
C50 C 0.2088(7) -0.3695(4) 0.7606(4)
C51 C 0.1101(9) -0.3936(5) 0.8018(5)
H49 H 0.0873 -0.4412 0.7855
H50 H 0.0438 -0.3624 0.7876
H51 H 0.1368 -0.3924 0.8584
C52 C 0.2443(10) -0.2946(5) 0.7888(7)
H52 H 0.2741 -0.2952 0.8450
H53 H 0.1770 -0.2639 0.7776
H54 H 0.3043 -0.2775 0.7615
C53 C 0.1589(9) -0.3695(6) 0.6703(5)
H55 H 0.1350 -0.4168 0.6534
H56 H 0.2183 -0.3534 0.6420
H57 H 0.0922 -0.3382 0.6593
C54 C 0.4162(6) -0.6088(4) 0.7376(4)
H58 H 0.4843 -0.6342 0.7576
C55 C 0.3550(5) -0.7157(3) 0.6683(3)
H59 H 0.3316 -0.7446 0.7104
C56 C 0.4800(7) -0.7376(4) 0.6616(5)
H60 H 0.5074 -0.7079 0.6225
H61 H 0.5318 -0.7301 0.7124
C57 C 0.4864(7) -0.8146(4) 0.6379(4)
H62 H 0.5651 -0.8250 0.6290
H63 H 0.4714 -0.8446 0.6810
C58 C 0.3996(6) -0.8317(3) 0.5643(4)
H64 H 0.4017 -0.8824 0.5541
H65 H 0.4218 -0.8071 0.5195
C59 C 0.2757(6) -0.8106(4) 0.5711(4)
H66 H 0.2229 -0.8202 0.5212
H67 H 0.2501 -0.8387 0.6122
C60 C 0.2698(5) -0.7329(3) 0.5909(3)
H68 H 0.2981 -0.7068 0.5486
C61 C 0.0603(7) -0.7345(4) 0.5709(4)
H69 H 0.0639 -0.7810 0.5533
C62 C -0.0558(7) -0.7033(5) 0.5666(4)
C63 C -0.0758(7) -0.6352(4) 0.5951(4)
C64 C -0.1964(6) -0.6096(4) 0.5829(4)
C65 C -0.2840(7) -0.6525(4) 0.5409(4)
H70 H -0.3611 -0.6359 0.5322
C66 C -0.2630(7) -0.7195(5) 0.5108(5)
C67 C -0.1480(7) -0.7448(4) 0.5261(5)
H71 H -0.1322 -0.7901 0.5090
C68 C -0.2255(7) -0.5369(5) 0.6148(4)
C69 C -0.1667(8) -0.4762(4) 0.5748(6)
H72 H -0.1859 -0.4313 0.5957
H73 H -0.1950 -0.4773 0.5184
H74 H -0.0829 -0.4826 0.5855
C70 C -0.3594(8) -0.5226(5) 0.5984(6)
H75 H -0.3744 -0.4766 0.6187
H76 H -0.3983 -0.5582 0.6242
H77 H -0.3888 -0.5239 0.5422
C71 C -0.1855(8) -0.5325(5) 0.7043(5)
H78 H -0.2039 -0.4864 0.7226
H79 H -0.1020 -0.5401 0.7174
H80 H -0.2252 -0.5682 0.7295
C72 C -0.3626(7) -0.7591(5) 0.4584(5)
C73 C -0.4501(9) -0.7226(6) 0.4096(6)
H81 H -0.4530 -0.6732 0.4109
C74 C -0.5275(12) -0.8326(7) 0.3568(7)
H82 H -0.5845 -0.8573 0.3217
C75 C -0.4413(11) -0.8701(7) 0.4045(8)
H83 H -0.4393 -0.9194 0.4019
C76 C -0.3580(9) -0.8338(6) 0.4560(6)
H84 H -0.2986 -0.8582 0.4894
N1 N -0.3341(6) -0.2060(3) 0.1110(4)
N2 N -0.1448(5) -0.2800(3) 0.1719(3)
N3 N 0.2073(6) -0.5489(4) 0.5319(4)
N4 N -0.9287(13) -0.0355(7) -0.1009(8)
N5 N 0.3387(5) -0.6404(3) 0.6884(3)
N6 N 0.1584(5) -0.7028(3) 0.5971(3)
N7 N 0.7059(6) -0.3633(3) 1.0268(3)
N8 N -0.5337(8) -0.7607(7) 0.3585(5)
O1 O -0.4890(4) -0.3202(3) 0.1223(3)
O2 O -0.2864(5) -0.3899(3) 0.2154(3)
O3 O 0.2074(5) -0.5172(3) 0.7120(3)
O4 O 0.0062(4) -0.5941(3) 0.6311(3)
Ni1_2 Ni 0.68329(7) -0.31487(3) 1.13424(4)
N7_2 N -0.2941(6) -0.3633(3) 0.0268(3)
O5 O -0.8752(15) -0.6969(7) -0.6397(6)
O6 O -0.3617(10) -0.1507(7) -0.1715(11)
loop_
_geom_bond_atom_site_label_1
_geom_bond_atom_site_label_2
_geom_bond_site_symmetry_1
_geom_bond_site_symmetry_2
Ni1 N1 1_555 1_555
Ni2 N3 1_555 1_555
C1 H1 1_555 1_555
C2 C1 1_555 1_555
C3 C2 1_555 1_555
H2 C3 1_555 1_555
C4 C3 1_555 1_555
H3 C4 1_555 1_555
C5 C4 1_555 1_555
H4 C5 1_555 1_555
C6 C2 1_555 1_555
C7 C6 1_555 1_555
H5 C7 1_555 1_555
C8 C7 1_555 1_555
C9 C8 1_555 1_555
C10 C9 1_555 1_555
C11 C6 1_555 1_555
H6 C11 1_555 1_555
C12 C8 1_555 1_555
H7 C12 1_555 1_555
C13 C10 1_555 1_555
C14 C13 1_555 1_555
H8 C14 1_555 1_555
H9 C14 1_555 1_555
H10 C14 1_555 1_555
C15 C13 1_555 1_555
H11 C15 1_555 1_555
H12 C15 1_555 1_555
H13 C15 1_555 1_555
C16 C13 1_555 1_555
H14 C16 1_555 1_555
H15 C16 1_555 1_555
H16 C16 1_555 1_555
C17 H17 1_555 1_555
C18 C17 1_555 1_555
H18 C18 1_555 1_555
H19 C18 1_555 1_555
C19 C18 1_555 1_555
H20 C19 1_555 1_555
H21 C19 1_555 1_555
C20 C19 1_555 1_555
H22 C20 1_555 1_555
H23 C20 1_555 1_555
C21 C20 1_555 1_555
H24 C21 1_555 1_555
H25 C21 1_555 1_555
C22 C17 1_555 1_555
H26 C22 1_555 1_555
C23 H27 1_555 1_555
C24 C23 1_555 1_555
C25 C24 1_555 1_555
C26 C25 1_555 1_555
C27 C26 1_555 1_555
H28 C27 1_555 1_555
C28 C27 1_555 1_555
C29 C24 1_555 1_555
H29 C29 1_555 1_555
C30 C26 1_555 1_555
C31 C30 1_555 1_555
H30 C31 1_555 1_555
H31 C31 1_555 1_555
H32 C31 1_555 1_555
C32 C30 1_555 1_555
H33 C32 1_555 1_555
H34 C32 1_555 1_555
H35 C32 1_555 1_555
C33 C30 1_555 1_555
H36 C33 1_555 1_555
H37 C33 1_555 1_555
H38 C33 1_555 1_555
C34 C28 1_555 1_555
C35 C34 1_555 1_555
H39 C35 1_555 1_555
C36 H40 1_555 1_555
C37 C36 1_555 1_555
H41 C37 1_555 1_555
C38 C34 1_555 1_555
H42 C38 1_555 1_555
C39 H43 1_555 1_555
C40 C39 1_555 1_555
C41 C40 1_555 1_555
H44 C41 1_555 1_555
C42 C41 1_555 1_555
H45 C42 1_555 1_555
C43 C42 1_555 1_555
H46 C43 1_555 1_555
C44 C40 1_555 1_555
C45 C44 1_555 1_555
H47 C45 1_555 1_555
C46 C45 1_555 1_555
C47 C46 1_555 1_555
C48 C47 1_555 1_555
C49 C44 1_555 1_555
H48 C49 1_555 1_555
C50 C46 1_555 1_555
C51 C50 1_555 1_555
H49 C51 1_555 1_555
H50 C51 1_555 1_555
H51 C51 1_555 1_555
C52 C50 1_555 1_555
H52 C52 1_555 1_555
H53 C52 1_555 1_555
H54 C52 1_555 1_555
C53 C50 1_555 1_555
H55 C53 1_555 1_555
H56 C53 1_555 1_555
H57 C53 1_555 1_555
C54 C48 1_555 1_555
H58 C54 1_555 1_555
C55 H59 1_555 1_555
C56 C55 1_555 1_555
H60 C56 1_555 1_555
H61 C56 1_555 1_555
C57 C56 1_555 1_555
H62 C57 1_555 1_555
H63 C57 1_555 1_555
C58 C57 1_555 1_555
H64 C58 1_555 1_555
H65 C58 1_555 1_555
C59 C58 1_555 1_555
H66 C59 1_555 1_555
H67 C59 1_555 1_555
C60 C55 1_555 1_555
H68 C60 1_555 1_555
C61 H69 1_555 1_555
C62 C61 1_555 1_555
C63 C62 1_555 1_555
C64 C63 1_555 1_555
C65 C64 1_555 1_555
H70 C65 1_555 1_555
C66 C65 1_555 1_555
C67 C62 1_555 1_555
H71 C67 1_555 1_555
C68 C64 1_555 1_555
C69 C68 1_555 1_555
H72 C69 1_555 1_555
H73 C69 1_555 1_555
H74 C69 1_555 1_555
C70 C68 1_555 1_555
H75 C70 1_555 1_555
H76 C70 1_555 1_555
H77 C70 1_555 1_555
C71 C68 1_555 1_555
H78 C71 1_555 1_555
H79 C71 1_555 1_555
H80 C71 1_555 1_555
C72 C66 1_555 1_555
C73 C72 1_555 1_555
H81 C73 1_555 1_555
C74 H82 1_555 1_555
C75 C74 1_555 1_555
H83 C75 1_555 1_555
C76 C72 1_555 1_555
H84 C76 1_555 1_555
N1 C12 1_555 1_555
N2 Ni1 1_555 1_555
N3 C35 1_555 1_555
N4 C1 1_555 1_555
N5 Ni2 1_555 1_555
N6 Ni2 1_555 1_555
N7 C39 1_555 1_555
N8 C73 1_555 1_555
O1 Ni1 1_555 1_555
O2 Ni1 1_555 1_555
O3 Ni2 1_555 1_555
O4 Ni2 1_555 1_555
Ni1_2 N7 1_555 1_555
N7_2 Ni1 1_555 1_555
C5 N4 1_555 1_555
C9 O1 1_555 1_555
C10 C11 1_555 1_555
C17 N1 1_555 1_555
C21 C22 1_555 1_555
C22 N2 1_555 1_555
C23 N2 1_555 1_555
C25 O2 1_555 1_555
C28 C29 1_555 1_555
C36 N3 1_555 1_555
C37 C38 1_555 1_555
C43 N7 1_555 1_555
C47 O3 1_555 1_555
C48 C49 1_555 1_555
C54 N5 1_555 1_555
C55 N5 1_555 1_555
C59 C60 1_555 1_555
C60 N6 1_555 1_555
C61 N6 1_555 1_555
C63 O4 1_555 1_555
C66 C67 1_555 1_555
C74 N8 1_555 1_555
C75 C76 1_555 1_555

#END
