
#######################################################################
#
#                 Cambridge Crystallographic Data Centre
#                                CCDC 
#
#######################################################################
#
# If this CIF has been generated from an entry in the Cambridge 
# Structural Database, then it will include bibliographic, chemical, 
# crystal, experimental, refinement or atomic coordinate data resulting 
# from the CCDC's data processing and validation procedures.
#
#######################################################################

data_YUZYUO
_symmetry_cell_setting           monoclinic
_symmetry_space_group_name_H-M   'P 2'
_symmetry_Int_Tables_number      3
_space_group_name_Hall           'P 2y'
loop_
_symmetry_equiv_pos_site_id
_symmetry_equiv_pos_as_xyz
1 x,y,z
2 -x,y,-z
_cell_length_a                   10.3628(1)
_cell_length_b                   11.4311(1)
_cell_length_c                   16.9994(2)
_cell_angle_alpha                90
_cell_angle_beta                 103.446(1)
_cell_angle_gamma                90
_cell_volume                     1958.52
loop_
_atom_site_label
_atom_site_type_symbol
_atom_site_fract_x
_atom_site_fract_y
_atom_site_fract_z
Co1 Co 0.00000 0.17076(13) -0.5
Co2 Co -0.5 0.11499(13) -0.5
P1 P 0.04531(17) 0.16959(16) -0.30646(10)
N1 N -0.5 0.3042(7) -0.5
N2 N -0.5 0.9246(7) -0.5
N3 N 0.00000 -0.0196(7) -0.5
N4 N 0.00000 -0.6408(7) -0.5
O1 O 0.1013(4) 0.1789(4) -0.3813(2)
O2 O 0.1357(4) 0.1134(5) -0.2343(3)
O3 O -0.1801(4) 0.1675(4) -0.4650(2)
O4 O -0.3330(4) 0.1092(4) -0.4015(2)
O9 O -0.6099(5) 0.1274(4) -0.4112(3)
H1 H -0.604(7) 0.113(6) -0.3617(16)
H2 H -0.681(4) 0.164(6) -0.429(4)
C1 C -0.1075(6) 0.0845(6) -0.3323(4)
H5 H -0.0837 0.0028 -0.3422
H6 H -0.1466 0.0834 -0.2844
C2 C -0.2143(7) 0.1237(5) -0.4042(4)
C5 C -0.0005(7) 0.3142(6) -0.2783(4)
C6 C 0.0640(7) 0.3614(7) -0.2045(4)
H9 H 0.123 0.3139 -0.1665
C7 C 0.0435(8) 0.4774(7) -0.1851(5)
H10 H 0.0909 0.5091 -0.1351
C8 C -0.0447(8) 0.5457(8) -0.2380(5)
H11 H -0.0581 0.6249 -0.2252
C9 C -0.1147(8) 0.4977(6) -0.3111(5)
H12 H -0.1785 0.5437 -0.3473
C10 C -0.0916(7) 0.3840(6) -0.3310(4)
H13 H -0.1385 0.3528 -0.3814
C17 C -0.4604(7) 0.3653(6) -0.4307(4)
H19 H -0.4302 0.3238 -0.3814
C18 C -0.4622(7) 0.4850(6) -0.4289(4)
H20 H -0.4374 0.5246 -0.3785
C19 C -0.5 0.5495(8) -0.5
C20 C -0.5 0.6803(8) -0.5
C21 C -0.4796(7) 0.7438(6) -0.5655(4)
H21 H -0.4646 0.7043 -0.6117
C22 C -0.4811(7) 0.8633(6) -0.5635(4)
H22 H -0.4681 0.9049 -0.6094
C23 C -0.0909(7) -0.0800(6) -0.5529(4)
H23 H -0.1565 -0.038 -0.5906
C24 C -0.0943(7) -0.2012(6) -0.5555(4)
H24 H -0.1602 -0.2406 -0.5947
C25 C 0.00000 -0.2644(9) -0.5
C26 C 0.00000 -0.3962(10) -0.5
C27 C -0.1150(7) -0.4584(6) -0.5331(4)
H25 H -0.1953 -0.4187 -0.5566
C28 C -0.1103(7) -0.5804(6) -0.5312(4)
H26 H -0.1894 -0.6225 -0.5532
Co1_2 Co 0.00000 -0.82924(13) -0.5
Co2_2 Co -0.5 1.11499(13) -0.5
Co2_3 Co 0.5 0.11499(13) -0.5
P1A P -0.04531(17) 0.16959(16) -0.69354(10)
N2_2 N -0.5 -0.0754(7) -0.5
N4_2 N 0.00000 0.3592(7) -0.5
O1A O -0.1013(4) 0.1789(4) -0.6187(2)
O2A O -0.1357(4) 0.1134(5) -0.7657(3)
O3A O 0.1801(4) 0.1675(4) -0.5350(2)
O4A O 0.3330(4) 0.1092(4) -0.5985(2)
O4A_2 O -0.6670(4) 0.1092(4) -0.5985(2)
O9A O -0.3901(5) 0.1274(4) -0.5888(3)
H1A H -0.396(7) 0.113(6) -0.6383(16)
H2A H -0.319(4) 0.164(6) -0.571(4)
C1A C 0.1075(6) 0.0845(6) -0.6677(4)
H5A H 0.0837 0.0028 -0.6578
H6A H 0.1466 0.0834 -0.7156
C2A C 0.2143(7) 0.1237(5) -0.5958(4)
C5A C 0.0005(7) 0.3142(6) -0.7217(4)
C6A C -0.0640(7) 0.3614(7) -0.7955(4)
H9A H -0.123 0.3139 -0.8335
C7A C -0.0435(8) 0.4774(7) -0.8149(5)
H10A H -0.0909 0.5091 -0.8649
C8A C 0.0447(8) 0.5457(8) -0.7620(5)
H11A H 0.0581 0.6249 -0.7748
C9A C 0.1147(8) 0.4977(6) -0.6889(5)
H12A H 0.1785 0.5437 -0.6527
C10A C 0.0916(7) 0.3840(6) -0.6690(4)
H13A H 0.1385 0.3528 -0.6186
C17A C -0.5396(7) 0.3653(6) -0.5693(4)
H19A H -0.5698 0.3238 -0.6186
C18A C -0.5378(7) 0.4850(6) -0.5711(4)
H20A H -0.5626 0.5246 -0.6215
C21A C -0.5204(7) 0.7438(6) -0.4345(4)
H21A H -0.5354 0.7043 -0.3883
C22A C -0.5189(7) 0.8633(6) -0.4365(4)
H22A H -0.5319 0.9049 -0.3906
C23A C 0.0909(7) -0.0800(6) -0.4471(4)
H23A H 0.1565 -0.038 -0.4094
C24A C 0.0943(7) -0.2012(6) -0.4445(4)
H24A H 0.1602 -0.2406 -0.4053
C27A C 0.1150(7) -0.4584(6) -0.4669(4)
H25A H 0.1953 -0.4187 -0.4434
C28A C 0.1103(7) -0.5804(6) -0.4688(4)
H26A H 0.1894 -0.6225 -0.4468
Co3 Co -0.5 -0.25695(14) 0.00000
Co4 Co 0.00000 -0.24581(13) 0.00000
P2 P -0.55109(16) -0.25505(16) -0.19433(9)
N5 N -0.5 -0.4457(7) 0.00000
N6 N -0.5 -1.0664(8) 0.00000
N7 N 0.00000 -0.0559(8) 0.00000
N8 N 0.00000 0.5640(7) 0.00000
O5 O -0.6041(4) -0.2547(4) -0.1188(2)
O6 O -0.6375(5) -0.1918(4) -0.2659(3)
O7 O -0.3234(4) -0.2593(4) -0.0342(2)
O8 O -0.1660(4) -0.2392(4) -0.1013(2)
O10 O -0.1083(4) -0.2529(5) 0.0887(3)
H3 H -0.101(7) -0.210(5) 0.130(3)
H4 H -0.188(3) -0.238(7) 0.069(4)
C3 C -0.3869(6) -0.1899(6) -0.1707(4)
H7 H -0.3481 -0.201 -0.2182
H8 H -0.3976 -0.1046 -0.1642
C4 C -0.2867(6) -0.2336(5) -0.0967(4)
C11 C -0.5322(7) -0.4056(7) -0.2207(4)
C12 C -0.4112(8) -0.4640(6) -0.2048(4)
H14 H -0.3312 -0.4216 -0.1854
C13 C -0.4067(9) -0.5842(7) -0.2170(4)
H15 H -0.3239 -0.6239 -0.2038
C14 C -0.5193(10) -0.6450(7) -0.2475(4)
H16 H -0.5153 -0.7272 -0.255
C15 C -0.6397(9) -0.5882(7) -0.2677(5)
H17 H -0.718 -0.6309 -0.2906
C16 C -0.6468(7) -0.4688(7) -0.2547(4)
H18 H -0.73 -0.4299 -0.269
C29 C -0.5944(7) -0.5070(6) -0.0506(4)
H27 H -0.6627 -0.4654 -0.0868
C30 C -0.5972(7) -0.6269(6) -0.0524(4)
H28 H -0.6659 -0.6662 -0.0898
C31 C -0.5 -0.6913(9) 0.00000
C32 C -0.5 -0.8217(9) 0.00000
C33 C -0.6040(8) -0.8851(8) -0.0447(5)
H29 H -0.6784 -0.8455 -0.0769
C34 C -0.6018(8) -1.0061(6) -0.0435(5)
H30 H -0.6755 -1.0477 -0.0747
C35 C 0.0577(7) 0.0069(6) 0.0660(4)
H31 H 0.0972 -0.0347 0.1139
C36 C 0.0633(7) 0.1265(6) 0.0687(4)
H32 H 0.1093 0.1656 0.1163
C37 C 0.00000 0.1905(9) 0.00000
C38 C 0.00000 0.3203(9) 0.00000
C39 C 0.1156(7) 0.3824(6) 0.0306(4)
H33 H 0.1966 0.3425 0.052
C40 C 0.1112(7) 0.5054(6) 0.0293(4)
H34 H 0.1906 0.5479 0.0502
Co3_2 Co -0.5 -1.25695(14) 0.00000
Co4_2 Co 0.00000 0.75419(13) 0.00000
Co4_3 Co -1.00000 -0.24581(13) 0.00000
P2A P -0.44891(16) -0.25505(16) 0.19433(9)
N6_2 N -0.5 -0.0664(8) 0.00000
N8_2 N 0.00000 -0.4360(7) 0.00000
O5A O -0.3959(4) -0.2547(4) 0.1188(2)
O6A O -0.3625(5) -0.1918(4) 0.2659(3)
O7A O -0.6766(4) -0.2593(4) 0.0342(2)
O8A O -0.8340(4) -0.2392(4) 0.1013(2)
O8A_2 O 0.1660(4) -0.2392(4) 0.1013(2)
O10A O 0.1083(4) -0.2529(5) -0.0887(3)
H3A H 0.101(7) -0.210(5) -0.130(3)
H4A H 0.188(3) -0.238(7) -0.069(4)
C3A C -0.6131(6) -0.1899(6) 0.1707(4)
H7A H -0.6519 -0.201 0.2182
H8A H -0.6024 -0.1046 0.1642
C4A C -0.7133(6) -0.2336(5) 0.0967(4)
C11A C -0.4678(7) -0.4056(7) 0.2207(4)
C12A C -0.5888(8) -0.4640(6) 0.2048(4)
H14A H -0.6688 -0.4216 0.1854
C13A C -0.5933(9) -0.5842(7) 0.2170(4)
H15A H -0.6761 -0.6239 0.2038
C14A C -0.4807(10) -0.6450(7) 0.2475(4)
H16A H -0.4847 -0.7272 0.255
C15A C -0.3603(9) -0.5882(7) 0.2677(5)
H17A H -0.282 -0.6309 0.2906
C16A C -0.3532(7) -0.4688(7) 0.2547(4)
H18A H -0.27 -0.4299 0.269
C29A C -0.4056(7) -0.5070(6) 0.0506(4)
H27A H -0.3373 -0.4654 0.0868
C30A C -0.4028(7) -0.6269(6) 0.0524(4)
H28A H -0.3341 -0.6662 0.0898
C33A C -0.3960(8) -0.8851(8) 0.0447(5)
H29A H -0.3216 -0.8455 0.0769
C34A C -0.3982(8) -1.0061(6) 0.0435(5)
H30A H -0.3245 -1.0477 0.0747
C35A C -0.0577(7) 0.0069(6) -0.0660(4)
H31A H -0.0972 -0.0347 -0.1139
C36A C -0.0633(7) 0.1265(6) -0.0687(4)
H32A H -0.1093 0.1656 -0.1163
C39A C -0.1156(7) 0.3824(6) -0.0306(4)
H33A H -0.1966 0.3425 -0.052
C40A C -0.1112(7) 0.5054(6) -0.0293(4)
H34A H -0.1906 0.5479 -0.0502
O11 O -0.8880(5) -0.1279(5) -0.2243(3)
O12 O -0.6212(5) 0.0457(4) -0.2637(3)
O13 O -0.3460(6) 0.1031(7) -0.2316(4)
loop_
_geom_bond_atom_site_label_1
_geom_bond_atom_site_label_2
_geom_bond_site_symmetry_1
_geom_bond_site_symmetry_2
Co1 N3 1_555 1_555
Co2 N1 1_555 1_555
Co3 N5 1_555 1_555
Co4 N7 1_555 1_555
P1 O1 1_555 1_555
P2 O5 1_555 1_555
N1 C17 1_555 1_555
N2 C22 1_555 1_555
N3 C23 1_555 1_555
N4 C28 1_555 1_555
N5 C29 1_555 1_555
N6 C34 1_555 1_555
N7 C35 1_555 1_555
N8 C40 1_555 1_555
O1 Co1 1_555 1_555
O2 P1 1_555 1_555
O3 Co1 1_555 1_555
O4 Co2 1_555 1_555
O5 Co3 1_555 1_555
O6 P2 1_555 1_555
O7 Co3 1_555 1_555
O8 Co4 1_555 1_555
O9 Co2 1_555 1_555
H1 O9 1_555 1_555
H2 O9 1_555 1_555
O10 Co4 1_555 1_555
H3 O10 1_555 1_555
H4 O10 1_555 1_555
C1 P1 1_555 1_555
H5 C1 1_555 1_555
H6 C1 1_555 1_555
C2 O3 1_555 1_555
C3 P2 1_555 1_555
H7 C3 1_555 1_555
H8 C3 1_555 1_555
C4 O7 1_555 1_555
C5 P1 1_555 1_555
C6 C5 1_555 1_555
H9 C6 1_555 1_555
C7 C6 1_555 1_555
H10 C7 1_555 1_555
C8 C7 1_555 1_555
H11 C8 1_555 1_555
C9 C8 1_555 1_555
H12 C9 1_555 1_555
C10 C5 1_555 1_555
H13 C10 1_555 1_555
C11 P2 1_555 1_555
C12 C11 1_555 1_555
H14 C12 1_555 1_555
C13 C12 1_555 1_555
H15 C13 1_555 1_555
C14 C13 1_555 1_555
H16 C14 1_555 1_555
C15 C14 1_555 1_555
H17 C15 1_555 1_555
C16 C11 1_555 1_555
H18 C16 1_555 1_555
C17 H19 1_555 1_555
C18 C17 1_555 1_555
H20 C18 1_555 1_555
C19 C18 1_555 1_555
C20 C19 1_555 1_555
C21 C20 1_555 1_555
H21 C21 1_555 1_555
C22 C21 1_555 1_555
H22 C22 1_555 1_555
C23 H23 1_555 1_555
C24 C23 1_555 1_555
H24 C24 1_555 1_555
C25 C24 1_555 1_555
C26 C25 1_555 1_555
C27 C26 1_555 1_555
H25 C27 1_555 1_555
C28 C27 1_555 1_555
H26 C28 1_555 1_555
C29 H27 1_555 1_555
C30 C29 1_555 1_555
H28 C30 1_555 1_555
C31 C30 1_555 1_555
C32 C31 1_555 1_555
C33 C32 1_555 1_555
H29 C33 1_555 1_555
C34 C33 1_555 1_555
H30 C34 1_555 1_555
C35 H31 1_555 1_555
C36 C35 1_555 1_555
H32 C36 1_555 1_555
C37 C36 1_555 1_555
C38 C37 1_555 1_555
C39 C38 1_555 1_555
H33 C39 1_555 1_555
C40 C39 1_555 1_555
H34 C40 1_555 1_555
Co1_2 N4 1_555 1_555
Co2_2 N2 1_555 1_555
Co2_3 O4A 1_555 1_555
Co3_2 N6 1_555 1_555
Co4_2 N8 1_555 1_555
Co4_3 O8A 1_555 1_555
P1A O1A 1_555 1_555
P2A O5A 1_555 1_555
N2_2 Co2 1_555 1_555
N4_2 Co1 1_555 1_555
N6_2 Co3 1_555 1_555
N8_2 Co4 1_555 1_555
O1A Co1 1_555 1_555
O2A P1A 1_555 1_555
O3A Co1 1_555 1_555
O4A C2A 1_555 1_555
O4A_2 Co2 1_555 1_555
O5A Co3 1_555 1_555
O6A P2A 1_555 1_555
O7A Co3 1_555 1_555
O8A C4A 1_555 1_555
O8A_2 Co4 1_555 1_555
O9A Co2 1_555 1_555
H1A O9A 1_555 1_555
H2A O9A 1_555 1_555
O10A Co4 1_555 1_555
H3A O10A 1_555 1_555
H4A O10A 1_555 1_555
C1A P1A 1_555 1_555
H5A C1A 1_555 1_555
H6A C1A 1_555 1_555
C2A O3A 1_555 1_555
C3A P2A 1_555 1_555
H7A C3A 1_555 1_555
H8A C3A 1_555 1_555
C4A O7A 1_555 1_555
C5A P1A 1_555 1_555
C6A C5A 1_555 1_555
H9A C6A 1_555 1_555
C7A C6A 1_555 1_555
H10A C7A 1_555 1_555
C8A C7A 1_555 1_555
H11A C8A 1_555 1_555
C9A C8A 1_555 1_555
H12A C9A 1_555 1_555
C10A C5A 1_555 1_555
H13A C10A 1_555 1_555
C11A P2A 1_555 1_555
C12A C11A 1_555 1_555
H14A C12A 1_555 1_555
C13A C12A 1_555 1_555
H15A C13A 1_555 1_555
C14A C13A 1_555 1_555
H16A C14A 1_555 1_555
C15A C14A 1_555 1_555
H17A C15A 1_555 1_555
C16A C11A 1_555 1_555
H18A C16A 1_555 1_555
C17A N1 1_555 1_555
H19A C17A 1_555 1_555
C18A C19 1_555 1_555
H20A C18A 1_555 1_555
C21A C20 1_555 1_555
H21A C21A 1_555 1_555
C22A N2 1_555 1_555
H22A C22A 1_555 1_555
C23A N3 1_555 1_555
H23A C23A 1_555 1_555
C24A C25 1_555 1_555
H24A C24A 1_555 1_555
C27A C26 1_555 1_555
H25A C27A 1_555 1_555
C28A N4 1_555 1_555
H26A C28A 1_555 1_555
C29A N5 1_555 1_555
H27A C29A 1_555 1_555
C30A C31 1_555 1_555
H28A C30A 1_555 1_555
C33A C32 1_555 1_555
H29A C33A 1_555 1_555
C34A N6 1_555 1_555
H30A C34A 1_555 1_555
C35A N7 1_555 1_555
H31A C35A 1_555 1_555
C36A C37 1_555 1_555
H32A C36A 1_555 1_555
C39A C38 1_555 1_555
H33A C39A 1_555 1_555
C40A N8 1_555 1_555
H34A C40A 1_555 1_555
O4 C2 1_555 1_555
O8 C4 1_555 1_555
C1 C2 1_555 1_555
C3 C4 1_555 1_555
C9 C10 1_555 1_555
C15 C16 1_555 1_555
C1A C2A 1_555 1_555
C3A C4A 1_555 1_555
C9A C10A 1_555 1_555
C15A C16A 1_555 1_555
C17A C18A 1_555 1_555
C21A C22A 1_555 1_555
C23A C24A 1_555 1_555
C27A C28A 1_555 1_555
C29A C30A 1_555 1_555
C33A C34A 1_555 1_555
C35A C36A 1_555 1_555
C39A C40A 1_555 1_555

#END
