
#######################################################################
#
#                 Cambridge Crystallographic Data Centre
#                                CCDC 
#
#######################################################################
#
# If this CIF has been generated from an entry in the Cambridge 
# Structural Database, then it will include bibliographic, chemical, 
# crystal, experimental, refinement or atomic coordinate data resulting 
# from the CCDC's data processing and validation procedures.
#
#######################################################################

data_ZABQEY
_symmetry_cell_setting           trigonal
_symmetry_space_group_name_H-M   'P 32'
_symmetry_Int_Tables_number      145
_space_group_name_Hall           'P 32'
loop_
_symmetry_equiv_pos_site_id
_symmetry_equiv_pos_as_xyz
1 x,y,z
2 -y,x-y,2/3+z
3 -x+y,-x,1/3+z
_cell_length_a                   10.582(2)
_cell_length_b                   10.582(2)
_cell_length_c                   10.663(3)
_cell_angle_alpha                90
_cell_angle_beta                 90
_cell_angle_gamma                120
_cell_volume                     1034.06
loop_
_atom_site_label
_atom_site_type_symbol
_atom_site_fract_x
_atom_site_fract_y
_atom_site_fract_z
Ag1 Ag -0.1529(1) -0.4718(1) -0.0915(1)
S1 S -0.0883(2) -0.3325(2) 0.2148(2)
F1 F 0.0831(10) -0.1390(6) 0.0585(8)
F2 F -0.0705(11) -0.0952(10) 0.1388(9)
F3 F 0.1021(12) -0.0631(8) 0.2497(8)
O1 O -0.1610(6) -0.3267(6) 0.3266(4)
O2 O -0.1866(8) -0.4021(7) 0.1135(5)
O3 O 0.0171(9) -0.3696(10) 0.2350(8)
N1 N 0.0889(6) -0.3698(6) -0.1285(6)
N2 N 0.7264(6) 0.2905(5) -0.0915(6)
N3 N 0.7523(6) -0.3370(6) -0.1664(6)
C1 C 0.4399(6) -0.0676(6) -0.1126(5)
C2 C 0.3721(7) -0.2171(6) -0.1256(6)
C3 C 0.4512(6) -0.2906(6) -0.1393(5)
C4 C 0.6010(6) -0.2090(6) -0.1389(5)
C5 C 0.6736(7) -0.0572(6) -0.1261(6)
C6 C 0.5917(6) 0.0102(6) -0.1129(6)
C7 C 0.2133(6) -0.3018(6) -0.1274(6)
C8 C 0.6845(7) -0.2810(7) -0.1540(6)
C9 C 0.6651(6) 0.1680(6) -0.1016(6)
C10 C 0.0148(16) -0.1493(10) 0.1596(11)
H1 H 0.3996(55) -0.0201(59) -0.1010(43)
H2 H 0.4069(83) -0.3792(84) -0.1551(64)
H3 H 0.7655(59) -0.0143(56) -0.1250(48)
N3_2 N -0.2477(6) -0.3370(6) -0.1664(6)
N2_2 N -0.2736(6) -0.7095(5) -0.0915(6)
Ag1_2 Ag 0.8471(1) -0.4718(1) -0.0915(1)
Ag1_3 Ag 0.8471(1) 0.5282(1) -0.0915(1)
loop_
_geom_bond_atom_site_label_1
_geom_bond_atom_site_label_2
_geom_bond_site_symmetry_1
_geom_bond_site_symmetry_2
Ag1 O2 1_555 1_555
S1 O1 1_555 1_555
F1 C10 1_555 1_555
F2 C10 1_555 1_555
F3 C10 1_555 1_555
O2 S1 1_555 1_555
O3 S1 1_555 1_555
N1 Ag1 1_555 1_555
N2 C9 1_555 1_555
N3 C8 1_555 1_555
C1 C2 1_555 1_555
C2 C3 1_555 1_555
C3 C4 1_555 1_555
C4 C5 1_555 1_555
C5 C6 1_555 1_555
C6 C1 1_555 1_555
C7 N1 1_555 1_555
C8 C4 1_555 1_555
C9 C6 1_555 1_555
C10 S1 1_555 1_555
H1 C1 1_555 1_555
H2 C3 1_555 1_555
H3 C5 1_555 1_555
N3_2 Ag1 1_555 1_555
N2_2 Ag1 1_555 1_555
Ag1_2 N3 1_555 1_555
Ag1_3 N2 1_555 1_555
C2 C7 1_555 1_555

#END
