
#######################################################################
#
#                 Cambridge Crystallographic Data Centre
#                                CCDC 
#
#######################################################################
#
# If this CIF has been generated from an entry in the Cambridge 
# Structural Database, then it will include bibliographic, chemical, 
# crystal, experimental, refinement or atomic coordinate data resulting 
# from the CCDC's data processing and validation procedures.
#
#######################################################################

data_ZACHAM
_symmetry_cell_setting           monoclinic
_symmetry_space_group_name_H-M   'P 21/n'
_symmetry_Int_Tables_number      14
_space_group_name_Hall           '-P 2yn'
loop_
_symmetry_equiv_pos_site_id
_symmetry_equiv_pos_as_xyz
1 x,y,z
2 1/2-x,1/2+y,1/2-z
3 -x,-y,-z
4 1/2+x,1/2-y,1/2+z
_cell_length_a                   9.827(4)
_cell_length_b                   9.369(3)
_cell_length_c                   14.747(7)
_cell_angle_alpha                90
_cell_angle_beta                 94.13(2)
_cell_angle_gamma                90
_cell_volume                     1354.22
loop_
_atom_site_label
_atom_site_type_symbol
_atom_site_fract_x
_atom_site_fract_y
_atom_site_fract_z
Co1 Co 0.4171(1) 0.2276(1) 0.1859(1)
Cl1 Cl 0.3020(2) 0.1692(3) 0.0560(1)
Cl2 Cl 0.6017(2) 0.1021(2) 0.2317(2)
O1 O 0.2757(4) 0.2340(5) 0.2749(3)
C1 C 0.2665(7) 0.1767(8) 0.3525(5)
C2 C 0.3568(7) 0.0635(9) 0.3946(6)
C3 C 0.3124(8) 0.0495(9) 0.4900(5)
C4 C 0.1773(8) 0.1255(10) 0.4885(5)
N1 N 0.1697(6) 0.2086(6) 0.4066(4)
C5 C 0.0548(7) 0.3004(8) 0.3812(5)
C6 C -0.0694(7) 0.2148(8) 0.3471(5)
N2 N -0.0513(6) 0.1432(6) 0.2622(4)
C7 C -0.0734(8) 0.2166(8) 0.1743(5)
C8 C -0.0750(9) 0.0979(9) 0.1050(5)
C9 C -0.0061(8) -0.0256(9) 0.1542(5)
C10 C -0.0100(8) 0.0096(9) 0.2539(5)
O2 O 0.0207(5) -0.0715(5) 0.3199(3)
H1 H 0.4512 0.0902 0.3956
H2 H 0.3435 -0.0241 0.3614
H3 H 0.3791 0.0897 0.5335
H4 H 0.2992 -0.0491 0.5049
H5 H 0.1015 0.0612 0.4903
H6 H 0.1775 0.1890 0.5396
H7 H 0.0788 0.3633 0.3335
H8 H 0.0337 0.3574 0.4324
H9 H -0.1481 0.2758 0.3402
H10 H -0.0860 0.1440 0.3920
H11 H -0.0004 0.2823 0.1660
H12 H -0.1581 0.2681 0.1709
H13 H -0.0257 0.1258 0.0540
H14 H -0.1671 0.0748 0.0839
H15 H -0.0547 -0.1126 0.1403
H16 H 0.0863 -0.0362 0.1382
O2A O 0.4793(5) 0.4285(5) 0.1801(3)
Co1A Co 0.0829(1) -0.2724(1) 0.3141(1)
loop_
_geom_bond_atom_site_label_1
_geom_bond_atom_site_label_2
_geom_bond_site_symmetry_1
_geom_bond_site_symmetry_2
Co1 Cl1 1_555 1_555
Cl2 Co1 1_555 1_555
O1 Co1 1_555 1_555
C1 O1 1_555 1_555
C2 C1 1_555 1_555
C3 C2 1_555 1_555
C4 C3 1_555 1_555
N1 C1 1_555 1_555
C5 N1 1_555 1_555
C6 C5 1_555 1_555
N2 C6 1_555 1_555
C7 N2 1_555 1_555
C8 C7 1_555 1_555
C9 C8 1_555 1_555
C10 N2 1_555 1_555
O2 C10 1_555 1_555
H1 C2 1_555 1_555
H2 C2 1_555 1_555
H3 C3 1_555 1_555
H4 C3 1_555 1_555
H5 C4 1_555 1_555
H6 C4 1_555 1_555
H7 C5 1_555 1_555
H8 C5 1_555 1_555
H9 C6 1_555 1_555
H10 C6 1_555 1_555
H11 C7 1_555 1_555
H12 C7 1_555 1_555
H13 C8 1_555 1_555
H14 C8 1_555 1_555
H15 C9 1_555 1_555
H16 C9 1_555 1_555
O2A Co1 1_555 1_555
Co1A O2 1_555 1_555
C4 N1 1_555 1_555
C9 C10 1_555 1_555

#END
