
#######################################################################
#
#                 Cambridge Crystallographic Data Centre
#                                CCDC 
#
#######################################################################
#
# If this CIF has been generated from an entry in the Cambridge 
# Structural Database, then it will include bibliographic, chemical, 
# crystal, experimental, refinement or atomic coordinate data resulting 
# from the CCDC's data processing and validation procedures.
#
#######################################################################

data_ZACHEQ
_symmetry_cell_setting           monoclinic
_symmetry_space_group_name_H-M   'C c'
_symmetry_Int_Tables_number      9
_space_group_name_Hall           'C -2yc'
loop_
_symmetry_equiv_pos_site_id
_symmetry_equiv_pos_as_xyz
1 x,y,z
2 x,-y,1/2+z
3 1/2+x,1/2+y,z
4 1/2+x,1/2-y,1/2+z
_cell_length_a                   9.013(4)
_cell_length_b                   15.967(6)
_cell_length_c                   11.002(4)
_cell_angle_alpha                90
_cell_angle_beta                 103.76(2)
_cell_angle_gamma                90
_cell_volume                     1537.86
loop_
_atom_site_label
_atom_site_type_symbol
_atom_site_fract_x
_atom_site_fract_y
_atom_site_fract_z
Zn1 Zn -0.5880(1) -0.1809(1) -0.0454(1)
I1 I -0.7656 -0.0550(1) -0.1008
I2 I -0.6445(1) -0.2982(1) 0.0970(1)
O1 O -0.3820(5) -0.1338(3) 0.0339(4)
C1 C -0.3454(6) -0.0975(3) 0.1366(4)
C2 C -0.4393(8) -0.0891(5) 0.2324(6)
C3 C -0.3509(9) -0.0287(5) 0.3290(6)
C4 C -0.1916(9) -0.0251(4) 0.3067(5)
N1 N -0.2128(6) -0.0606(3) 0.1802(4)
C5 C -0.0871(6) -0.0608(3) 0.1184(5)
C6 C 0.0248(5) -0.1322(3) 0.1607(5)
N2 N -0.0454(5) -0.2117(3) 0.1183(4)
C7 C -0.0869(7) -0.2346(4) -0.0140(4)
C8 C -0.1519(15) -0.3221(5) -0.0137(7)
C9 C -0.1411(13) -0.3444(4) 0.1194(6)
C10 C -0.0699(7) -0.2713(3) 0.1930(5)
O2 O -0.0370(7) -0.2631(3) 0.3096(4)
H1 H -0.4533 -0.1424 0.2683
H2 H -0.5378 -0.0659 0.1947
H3 H -0.3475 -0.0500 0.4112
H4 H -0.3971 0.0258 0.3213
H5 H -0.1211 -0.0586 0.3663
H6 H -0.1552 0.0316 0.3111
H7 H -0.0323 -0.0089 0.1354
H8 H -0.1277 -0.0645 0.0296
H9 H 0.0573 -0.1326 0.2504
H10 H 0.1135 -0.1244 0.1279
H11 H 0.0008 -0.2341 -0.0493
H12 H -0.1627 -0.1974 -0.0611
H13 H -0.0928 -0.3610 -0.0492
H14 H -0.2561 -0.3244 -0.0610
H15 H -0.0789 -0.3932 0.1439
H16 H -0.2409 -0.3550 0.1328
O2C O -0.5370(7) -0.2369(3) -0.1904(4)
Zn1C Zn -0.0880(1) -0.3191(1) 0.4546(1)
loop_
_geom_bond_atom_site_label_1
_geom_bond_atom_site_label_2
_geom_bond_site_symmetry_1
_geom_bond_site_symmetry_2
Zn1 I1 1_555 1_555
I2 Zn1 1_555 1_555
O1 Zn1 1_555 1_555
C1 O1 1_555 1_555
C2 C1 1_555 1_555
C3 C2 1_555 1_555
C4 C3 1_555 1_555
N1 C1 1_555 1_555
C5 N1 1_555 1_555
C6 C5 1_555 1_555
N2 C6 1_555 1_555
C7 N2 1_555 1_555
C8 C7 1_555 1_555
C9 C8 1_555 1_555
C10 N2 1_555 1_555
O2 C10 1_555 1_555
H1 C2 1_555 1_555
H2 C2 1_555 1_555
H3 C3 1_555 1_555
H4 C3 1_555 1_555
H5 C4 1_555 1_555
H6 C4 1_555 1_555
H7 C5 1_555 1_555
H8 C5 1_555 1_555
H9 C6 1_555 1_555
H10 C6 1_555 1_555
H11 C7 1_555 1_555
H12 C7 1_555 1_555
H13 C8 1_555 1_555
H14 C8 1_555 1_555
H15 C9 1_555 1_555
H16 C9 1_555 1_555
O2C Zn1 1_555 1_555
Zn1C O2 1_555 1_555
C4 N1 1_555 1_555
C9 C10 1_555 1_555

#END
