
#######################################################################
#
#                 Cambridge Crystallographic Data Centre
#                                CCDC 
#
#######################################################################
#
# If this CIF has been generated from an entry in the Cambridge 
# Structural Database, then it will include bibliographic, chemical, 
# crystal, experimental, refinement or atomic coordinate data resulting 
# from the CCDC's data processing and validation procedures.
#
#######################################################################

data_ZACHIU
_symmetry_cell_setting           monoclinic
_symmetry_space_group_name_H-M   'C 2/c'
_symmetry_Int_Tables_number      15
_space_group_name_Hall           '-C 2yn'
loop_
_symmetry_equiv_pos_site_id
_symmetry_equiv_pos_as_xyz
1 x,y,z
2 -x,y,1/2-z
3 1/2+x,1/2+y,z
4 1/2-x,1/2+y,1/2-z
5 -x,-y,-z
6 x,-y,1/2+z
7 1/2-x,1/2-y,-z
8 1/2+x,1/2-y,1/2+z
_cell_length_a                   31.53(6)
_cell_length_b                   8.242(8)
_cell_length_c                   14.99(2)
_cell_angle_alpha                90
_cell_angle_beta                 115.3(1)
_cell_angle_gamma                90
_cell_volume                     3521.81
loop_
_atom_site_label
_atom_site_type_symbol
_atom_site_fract_x
_atom_site_fract_y
_atom_site_fract_z
Co1 Co -0.1324(1) -0.1507(2) -0.0193(1)
O1 O -0.1049(5) 0.0616(11) -0.0453(6)
C1 C -0.1250(8) 0.1678(16) -0.1100(9)
C2 C -0.1743(9) 0.2069(19) -0.1636(11)
C3 C -0.1776(8) 0.3061(19) -0.2516(10)
C4 C -0.1300(7) 0.3779(18) -0.2185(10)
N1 N -0.0990(8) 0.2609(14) -0.1439(8)
C5 C -0.0497(8) 0.2630(19) -0.1041(11)
C6 C -0.0303(8) 0.2035(17) -0.1782(10)
N2 N -0.0469(6) 0.0418(13) -0.2170(7)
C7 C -0.0331(7) -0.1029(17) -0.1558(11)
C8 C -0.0584(8) -0.2363(20) -0.2243(11)
C9 C -0.0933(7) -0.1612(16) -0.3185(10)
C10 C -0.0801(7) 0.0148(16) -0.3055(9)
O2 O -0.0974(5) 0.1223(11) -0.3685(6)
N3 N -0.0865(9) -0.4196(17) 0.0309(9)
O3 O -0.0718(5) -0.3001(12) -0.0045(6)
O4 O -0.1276(7) -0.4069(12) 0.0230(7)
O5 O -0.0615(6) -0.5391(15) 0.0660(8)
N4 N -0.1954(8) -0.2592(18) -0.2199(11)
O6 O -0.1571(6) -0.1818(14) -0.1710(8)
O7 O -0.2072(6) -0.2704(13) -0.3090(8)
O8 O -0.2137(7) -0.3317(17) -0.1773(10)
N5 N -0.1942(9) -0.0637(20) -0.0135(10)
C11 C -0.2248(9) -0.0338(23) -0.0045(11)
C12 C -0.2669(8) 0.0196(20) 0.0049(10)
H1 H -0.1852(9) 0.2692(19) -0.1226(11)
H2 H -0.1929(9) 0.1088(19) -0.1851(11)
H3 H -0.1853(8) 0.2378(19) -0.3091(10)
H4 H -0.2013(8) 0.3902(19) -0.2673(10)
H5 H -0.1214(7) 0.3876(18) -0.2732(10)
H6 H -0.1284(7) 0.4842(18) -0.1895(10)
H7 H -0.0372(8) 0.1944(19) -0.0460(11)
H8 H -0.0388(8) 0.3727(19) -0.0836(11)
H9 H -0.0397(8) 0.2795(17) -0.2327(10)
H10 H 0.0037(8) 0.2026(17) -0.1453(10)
H11 H 0.0006(7) -0.1191(17) -0.1285(11)
H12 H -0.0425(7) -0.0954(17) -0.1021(11)
H13 H -0.0364(8) -0.3035(20) -0.2374(11)
H14 H -0.0744(8) -0.3038(20) -0.1954(11)
H15 H -0.1251(7) -0.1770(16) -0.3262(10)
H16 H -0.0903(7) -0.2063(16) -0.3754(10)
H17 H -0.2859(15) -0.0729(21) 0.0022(58)
H18 H -0.2844(16) 0.0925(7) -0.0480(36)
H19 H -0.2580(8) 0.0743(87) 0.0669(29)
O2E O -0.0974(5) -0.1223(11) 0.1315(6)
Co1E Co -0.1324(1) 0.1507(2) -0.5193(1)
loop_
_geom_bond_atom_site_label_1
_geom_bond_atom_site_label_2
_geom_bond_site_symmetry_1
_geom_bond_site_symmetry_2
Co1 O1 1_555 1_555
O1 C1 1_555 1_555
C1 C2 1_555 1_555
C2 C3 1_555 1_555
C3 C4 1_555 1_555
C4 N1 1_555 1_555
N1 C1 1_555 1_555
C5 N1 1_555 1_555
C6 C5 1_555 1_555
N2 C6 1_555 1_555
C7 N2 1_555 1_555
C8 C7 1_555 1_555
C9 C8 1_555 1_555
C10 N2 1_555 1_555
O2 C10 1_555 1_555
N3 O3 1_555 1_555
O3 Co1 1_555 1_555
O4 Co1 1_555 1_555
O5 N3 1_555 1_555
N4 O6 1_555 1_555
O6 Co1 1_555 1_555
O7 N4 1_555 1_555
O8 N4 1_555 1_555
N5 Co1 1_555 1_555
C11 N5 1_555 1_555
C12 C11 1_555 1_555
H1 C2 1_555 1_555
H2 C2 1_555 1_555
H3 C3 1_555 1_555
H4 C3 1_555 1_555
H5 C4 1_555 1_555
H6 C4 1_555 1_555
H7 C5 1_555 1_555
H8 C5 1_555 1_555
H9 C6 1_555 1_555
H10 C6 1_555 1_555
H11 C7 1_555 1_555
H12 C7 1_555 1_555
H13 C8 1_555 1_555
H14 C8 1_555 1_555
H15 C9 1_555 1_555
H16 C9 1_555 1_555
H17 C12 1_555 1_555
H18 C12 1_555 1_555
H19 C12 1_555 1_555
O2E Co1 1_555 1_555
Co1E O2 1_555 1_555
C9 C10 1_555 1_555
N3 O4 1_555 1_555

#END
