
#######################################################################
#
#                 Cambridge Crystallographic Data Centre
#                                CCDC 
#
#######################################################################
#
# If this CIF has been generated from an entry in the Cambridge 
# Structural Database, then it will include bibliographic, chemical, 
# crystal, experimental, refinement or atomic coordinate data resulting 
# from the CCDC's data processing and validation procedures.
#
#######################################################################

data_ZADBUB
_symmetry_cell_setting           monoclinic
_symmetry_space_group_name_H-M   'C 2/c'
_symmetry_Int_Tables_number      15
_space_group_name_Hall           '-C 2yn'
loop_
_symmetry_equiv_pos_site_id
_symmetry_equiv_pos_as_xyz
1 x,y,z
2 -x,y,1/2-z
3 1/2+x,1/2+y,z
4 1/2-x,1/2+y,1/2-z
5 -x,-y,-z
6 x,-y,1/2+z
7 1/2-x,1/2-y,-z
8 1/2+x,1/2-y,1/2+z
_cell_length_a                   12.710(4)
_cell_length_b                   14.147(5)
_cell_length_c                   14.089(6)
_cell_angle_alpha                90
_cell_angle_beta                 100.99(3)
_cell_angle_gamma                90
_cell_volume                     2486.86
loop_
_atom_site_label
_atom_site_type_symbol
_atom_site_fract_x
_atom_site_fract_y
_atom_site_fract_z
Cu1 Cu 0.5000 0.7294(1) 0.2500
N1 N 0.8113(3) 0.7227(3) 0.3822(3)
N2 N 0.7556(4) 0.7267(3) 0.3055(4)
N3 N 0.7010(4) 0.7288(4) 0.2289(4)
N4 N 0.5551(3) 0.7298(3) 0.3926(3)
N5 N 0.4936(3) 0.7397(2) 0.4472(3)
N6 N 0.4395(4) 0.7502(3) 0.5030(4)
N7 N 0.5000 0.5837(3) 0.2500
C1 C 0.5799(4) 0.5346(3) 0.3050(4)
C2 C 0.5835(5) 0.4386(4) 0.3060(4)
C3 C 0.5000 0.3888(6) 0.2500
N8 N 0.5000 0.8731(4) 0.2500
C4 C 0.5780(5) 0.9218(3) 0.2180(4)
C5 C 0.5795(6) 1.0195(4) 0.2179(4)
C6 C 0.5000 1.0672(6) 0.2500
Cu2 Cu 0.7500 0.7500 0.5000
N9 N 0.7541(3) 0.6117(3) 0.5309(3)
C7 C 0.6718(4) 0.5684(3) 0.5599(3)
C8 C 0.6689(5) 0.4716(4) 0.5711(4)
C9 C 0.7528(5) 0.4169(4) 0.5548(4)
C10 C 0.8385(5) 0.4617(3) 0.5264(4)
C11 C 0.8365(4) 0.5572(3) 0.5151(4)
H1 H 0.6438(4) 0.5731(3) 0.3503(4)
H2 H 0.6501(5) 0.4017(4) 0.3495(4)
H3 H 0.5000 0.3140(21) 0.2500
H4 H 0.6403(5) 0.8835(3) 0.1919(4)
H5 H 0.6427(6) 1.0574(4) 0.1928(4)
H6 H 0.5000 1.1412(21) 0.2500
H7 H 0.6059(4) 0.6105(3) 0.5750(3)
H8 H 0.6004(5) 0.4389(4) 0.5928(4)
H9 H 0.7520(5) 0.3411(4) 0.5639(4)
H10 H 0.9063(5) 0.4212(3) 0.5132(4)
H11 H 0.9038(4) 0.5911(3) 0.4925(4)
N3A N 0.2990(4) 0.7288(4) 0.2711(4)
N4A N 0.4449(3) 0.7298(3) 0.1074(3)
C1A C 0.4201(4) 0.5346(3) 0.1950(4)
C2A C 0.4165(5) 0.4386(4) 0.1940(4)
C4A C 0.4220(5) 0.9218(3) 0.2820(4)
C5A C 0.4205(6) 1.0195(4) 0.2821(4)
N1F N 0.6887(3) 0.7773(3) 0.6178(3)
N4F N 0.9449(3) 0.7702(3) 0.6074(3)
N9F N 0.7459(3) 0.8883(3) 0.4691(3)
H1A H 0.3562(4) 0.5731(3) 0.1497(4)
H2A H 0.3499(5) 0.4017(4) 0.1505(4)
H4A H 0.3597(5) 0.8835(3) 0.3081(4)
H5A H 0.3573(6) 1.0574(4) 0.3072(4)
N2F N 0.7444(4) 0.7733(3) 0.6945(4)
Cu1F Cu 1.0000 0.7706(1) 0.7500
N5F N 1.0064(3) 0.7603(2) 0.5528(3)
C7F C 0.8282(4) 0.9316(3) 0.4401(3)
C11F C 0.6635(4) 0.9428(3) 0.4849(4)
N3F N 0.7990(4) 0.7712(4) 0.7711(4)
N6F N 1.0605(4) 0.7498(3) 0.4970(4)
C8F C 0.8311(5) 1.0284(4) 0.4289(4)
H7F H 0.8941(4) 0.8895(3) 0.4250(3)
C10F C 0.6615(5) 1.0383(3) 0.4736(4)
H11F H 0.5962(4) 0.9089(3) 0.5075(4)
C9F C 0.7472(5) 1.0831(4) 0.4452(4)
H8F H 0.8996(5) 1.0611(4) 0.4072(4)
H10F H 0.5937(5) 1.0788(3) 0.4868(4)
H9F H 0.7480(5) 1.1589(4) 0.4361(4)
loop_
_geom_bond_atom_site_label_1
_geom_bond_atom_site_label_2
_geom_bond_site_symmetry_1
_geom_bond_site_symmetry_2
Cu1 N3 1_555 1_555
N1 N2 1_555 1_555
N2 N3 1_555 1_555
N4 Cu1 1_555 1_555
N5 N4 1_555 1_555
N6 N5 1_555 1_555
N7 Cu1 1_555 1_555
C1 N7 1_555 1_555
C2 C1 1_555 1_555
C3 C2 1_555 1_555
N8 Cu1 1_555 1_555
C4 N8 1_555 1_555
C5 C4 1_555 1_555
C6 C5 1_555 1_555
Cu2 N1 1_555 1_555
N9 Cu2 1_555 1_555
C7 N9 1_555 1_555
C8 C7 1_555 1_555
C9 C8 1_555 1_555
C10 C9 1_555 1_555
C11 N9 1_555 1_555
H1 C1 1_555 1_555
H2 C2 1_555 1_555
H3 C3 1_555 1_555
H4 C4 1_555 1_555
H5 C5 1_555 1_555
H6 C6 1_555 1_555
H7 C7 1_555 1_555
H8 C8 1_555 1_555
H9 C9 1_555 1_555
H10 C10 1_555 1_555
H11 C11 1_555 1_555
N3A Cu1 1_555 1_555
N4A Cu1 1_555 1_555
C1A N7 1_555 1_555
C2A C3 1_555 1_555
C4A N8 1_555 1_555
C5A C6 1_555 1_555
N1F Cu2 1_555 1_555
N4F Cu2 1_555 1_555
N9F Cu2 1_555 1_555
H1A C1A 1_555 1_555
H2A C2A 1_555 1_555
H4A C4A 1_555 1_555
H5A C5A 1_555 1_555
N2F N1F 1_555 1_555
Cu1F N4F 1_555 1_555
N5F N4F 1_555 1_555
C7F N9F 1_555 1_555
C11F N9F 1_555 1_555
N3F N2F 1_555 1_555
N6F N5F 1_555 1_555
C8F C7F 1_555 1_555
H7F C7F 1_555 1_555
C10F C11F 1_555 1_555
H11F C11F 1_555 1_555
C9F C8F 1_555 1_555
H8F C8F 1_555 1_555
H10F C10F 1_555 1_555
H9F C9F 1_555 1_555
N4 Cu2 1_555 1_555
C10 C11 1_555 1_555
C1A C2A 1_555 1_555
C4A C5A 1_555 1_555
Cu1F N3F 1_555 1_555
C10F C9F 1_555 1_555

#END
