
#######################################################################
#
#                 Cambridge Crystallographic Data Centre
#                                CCDC 
#
#######################################################################
#
# If this CIF has been generated from an entry in the Cambridge 
# Structural Database, then it will include bibliographic, chemical, 
# crystal, experimental, refinement or atomic coordinate data resulting 
# from the CCDC's data processing and validation procedures.
#
#######################################################################

data_ZADCUC
_symmetry_cell_setting           orthorhombic
_symmetry_space_group_name_H-M   'P 21 21 21'
_symmetry_Int_Tables_number      19
_space_group_name_Hall           'P 2ac 2ab'
loop_
_symmetry_equiv_pos_site_id
_symmetry_equiv_pos_as_xyz
1 x,y,z
2 1/2-x,-y,1/2+z
3 1/2+x,1/2-y,-z
4 -x,1/2+y,1/2-z
_cell_length_a                   6.436(2)
_cell_length_b                   10.001(3)
_cell_length_c                   21.619(7)
_cell_angle_alpha                90
_cell_angle_beta                 90
_cell_angle_gamma                90
_cell_volume                     1391.54
loop_
_atom_site_label
_atom_site_type_symbol
_atom_site_fract_x
_atom_site_fract_y
_atom_site_fract_z
Sn1 Sn 0.3866(1) -0.05048(9) 0.24033(4)
C1 C 0.207(3) -0.206(2) 0.202(1)
C2 C 0.702(3) -0.035(2) 0.213(1)
C3 C 0.264(3) 0.046(2) 0.3189(8)
O1 O 0.256(2) 0.088(1) 0.1757(5)
O2 O 0.477(2) 0.254(1) 0.1945(5)
C4 C 0.321(3) 0.208(1) 0.1660(7)
C5 C 0.307(3) 0.390(2) 0.0914(9)
C6 C 0.213(2) 0.285(1) 0.1175(6)
C7 C 0.015(3) 0.244(2) 0.0963(9)
C8 C -0.079(3) 0.315(2) 0.0506(9)
C9 C 0.009(3) 0.422(2) 0.0229(8)
C10 C 0.210(3) 0.464(2) 0.0417(7)
C11 C 0.312(4) 0.573(2) 0.013(1)
C12 C 0.218(6) 0.641(2) -0.034(1)
C13 C 0.021(5) 0.602(2) -0.052(1)
C14 C -0.084(4) 0.497(2) -0.026(1)
H1 H 0.32(2) -0.28(1) 0.188(5)
H2 H 0.13(3) -0.26(2) 0.226(8)
H3 H 0.17(2) -0.17(2) 0.172(6)
H4 H 0.74(2) -0.06(1) 0.242(4)
H5 H 0.72(2) 0.05(2) 0.199(7)
H6 H 0.72(5) -0.08(3) 0.18(1)
H7 H 0.34(2) 0.09(2) 0.336(6)
H8 H 0.19(3) -0.03(2) 0.351(8)
H9 H 0.17(3) 0.09(2) 0.314(9)
H10 H 0.42(2) 0.42(1) 0.103(6)
H11 H -0.05(4) 0.18(2) 0.12(1)
H12 H -0.19(2) 0.28(1) 0.034(6)
H13 H 0.42(4) 0.60(2) 0.03(1)
H14 H 0.25(4) 0.73(2) -0.044(9)
H15 H -0.02(2) 0.65(2) -0.086(7)
H16 H -0.26(3) 0.50(2) -0.042(8)
O2C O 0.523(2) -0.246(1) 0.3055(5)
Sn1C Sn 0.6134(1) 0.44952(9) 0.25967(4)
loop_
_geom_bond_atom_site_label_1
_geom_bond_atom_site_label_2
_geom_bond_site_symmetry_1
_geom_bond_site_symmetry_2
Sn1 C1 1_555 1_555
C1 H1 1_555 1_555
C2 Sn1 1_555 1_555
C3 Sn1 1_555 1_555
O1 Sn1 1_555 1_555
O2 C4 1_555 1_555
C4 O1 1_555 1_555
C5 C6 1_555 1_555
C6 C4 1_555 1_555
C7 C6 1_555 1_555
C8 C7 1_555 1_555
C9 C8 1_555 1_555
C10 C5 1_555 1_555
C11 C10 1_555 1_555
C12 C11 1_555 1_555
C13 C12 1_555 1_555
C14 C9 1_555 1_555
H2 C1 1_555 1_555
H3 C1 1_555 1_555
H4 C2 1_555 1_555
H5 C2 1_555 1_555
H6 C2 1_555 1_555
H7 C3 1_555 1_555
H8 C3 1_555 1_555
H9 C3 1_555 1_555
H10 C5 1_555 1_555
H11 C7 1_555 1_555
H12 C8 1_555 1_555
H13 C11 1_555 1_555
H14 C12 1_555 1_555
H15 C13 1_555 1_555
H16 C14 1_555 1_555
O2C Sn1 1_555 1_555
Sn1C O2 1_555 1_555
C9 C10 1_555 1_555
C13 C14 1_555 1_555

#END
