
#######################################################################
#
#                 Cambridge Crystallographic Data Centre
#                                CCDC 
#
#######################################################################
#
# If this CIF has been generated from an entry in the Cambridge 
# Structural Database, then it will include bibliographic, chemical, 
# crystal, experimental, refinement or atomic coordinate data resulting 
# from the CCDC's data processing and validation procedures.
#
#######################################################################

data_ZADDAJ
_symmetry_cell_setting           triclinic
_symmetry_space_group_name_H-M   'P -1'
_symmetry_Int_Tables_number      2
_space_group_name_Hall           '-P 1'
loop_
_symmetry_equiv_pos_site_id
_symmetry_equiv_pos_as_xyz
1 x,y,z
2 -x,-y,-z
_cell_length_a                   7.892(1)
_cell_length_b                   9.272(1)
_cell_length_c                   11.942(1)
_cell_angle_alpha                104.75(1)
_cell_angle_beta                 101.69(2)
_cell_angle_gamma                107.92(1)
_cell_volume                     765.659
loop_
_atom_site_label
_atom_site_type_symbol
_atom_site_fract_x
_atom_site_fract_y
_atom_site_fract_z
Fe1 Fe 0.20886(2) 0.41395(2) 0.22624(1)
O1 O 0.4393(1) 0.5868(1) 0.2322(1)
O2 O 0.1574(1) 0.6096(1) 0.3096(1)
O3 O 0.5855(1) 0.8546(1) 0.3009(1)
O4 O 0.3067(1) 0.8782(1) 0.3965(1)
O5 O -0.0478(1) 0.2593(1) 0.2091(1)
O6 O 0.0796(1) 0.3735(1) 0.0516(1)
O7 O -0.3180(1) 0.0926(1) 0.0667(1)
O8 O -0.1979(1) 0.2325(1) -0.0928(1)
O9 O 0.3108(1) 0.2439(1) 0.1666(1)
O10 O 0.2987(1) 0.3803(1) 0.3834(1)
O11 O 0.4574(1) 0.0973(1) 0.2359(1)
O12 O 0.4462(2) 0.2393(1) 0.4612(1)
C1 C 0.4556(1) 0.7296(1) 0.2862(1)
C2 C 0.2940(1) 0.7440(1) 0.3360(1)
C3 C -0.1624(1) 0.1998(1) 0.1013(1)
C4 C -0.0918(1) 0.2732(1) 0.0094(1)
C5 C 0.3850(1) 0.1978(1) 0.2492(1)
C6 C 0.3785(1) 0.2780(1) 0.3774(1)
O13 O -0.5596(2) 0.2565(1) -0.0354(1)
O14 O 0.8335(2) 1.2022(2) 0.4059(1)
O15 O -0.2365(2) 0.5306(2) 0.1207(1)
O16 O -0.0738(2) 0.8201(2) 0.3788(2)
O17 O -0.2218(2) 0.4887(2) 0.3967(1)
Li1 Li 0.5649(4) 1.0649(3) 0.3978(2)
Li2 Li -0.4739(4) 0.0720(3) -0.1030(2)
Li3 Li -0.1153(4) 0.5956(4) 0.2941(3)
H1 H -0.6288(52) 0.2288(45) 0.0035(33)
H2 H -0.6517(53) 0.2551(47) -0.0893(35)
H3 H 0.8621(55) 1.1761(43) 0.3483(34)
H4 H 0.9298(53) 1.1997(42) 0.4579(34)
H5 H -0.3297(63) 0.4548(48) 0.0628(35)
H6 H -0.1895(58) 0.4948(46) 0.1323(34)
H7 H -0.1845(52) 0.8552(44) 0.3398(30)
H8 H 0.0099(55) 0.8718(48) 0.3713(33)
H9 H -0.1501(55) 0.5013(52) 0.4188(36)
H10 H -0.2463(51) 0.5521(42) 0.4553(32)
Li1A Li 0.4351(4) 0.9351(3) 0.6022(2)
Li2A Li -0.5261(4) -0.0720(3) 0.1030(2)
Li1_2 Li 0.5649(4) 0.0649(3) 0.3978(2)
Li2A_2 Li 0.4739(4) -0.0720(3) 0.1030(2)
O4A O 0.6933(1) 1.1218(1) 0.6035(1)
O11_2 O 0.4574(1) 1.0973(1) 0.2359(1)
O12_2 O 0.4462(2) 1.2393(1) 0.4612(1)
O7A O -0.6820(1) -0.0926(1) -0.0667(1)
O11A O -0.4574(1) -0.0973(1) -0.2359(1)
loop_
_geom_bond_atom_site_label_1
_geom_bond_atom_site_label_2
_geom_bond_site_symmetry_1
_geom_bond_site_symmetry_2
Fe1 O1 1_555 1_555
O1 C1 1_555 1_555
O2 Fe1 1_555 1_555
O3 C1 1_555 1_555
O4 C2 1_555 1_555
O5 Fe1 1_555 1_555
O6 Fe1 1_555 1_555
O7 C3 1_555 1_555
O8 C4 1_555 1_555
O9 Fe1 1_555 1_555
O10 Fe1 1_555 1_555
O11 C5 1_555 1_555
O12 C6 1_555 1_555
C1 C2 1_555 1_555
C2 O2 1_555 1_555
C3 O5 1_555 1_555
C4 O6 1_555 1_555
C5 O9 1_555 1_555
C6 O10 1_555 1_555
O13 Li2 1_555 1_555
O14 Li1 1_555 1_555
O15 Li3 1_555 1_555
O16 Li3 1_555 1_555
O17 Li3 1_555 1_555
Li1 O3 1_555 1_555
Li2 O7 1_555 1_555
Li3 O2 1_555 1_555
H1 O13 1_555 1_555
H2 O13 1_555 1_555
H3 O14 1_555 1_555
H4 O14 1_555 1_555
H5 O15 1_555 1_555
H6 O15 1_555 1_555
H7 O16 1_555 1_555
H8 O16 1_555 1_555
H9 O17 1_555 1_555
H10 O17 1_555 1_555
Li1A O4 1_555 1_555
Li2A O7 1_555 1_555
Li1_2 O11 1_555 1_555
Li2A_2 O11 1_555 1_555
O4A Li1 1_555 1_555
O11_2 Li1 1_555 1_555
O12_2 Li1 1_555 1_555
O7A Li2 1_555 1_555
O11A Li2 1_555 1_555
O4 Li1 1_555 1_555
O8 Li2 1_555 1_555
O12 Li1_2 1_555 1_555
C3 C4 1_555 1_555
C5 C6 1_555 1_555
Li1A O4A 1_555 1_555
Li2A O7A 1_555 1_555

#END
