
#######################################################################
#
#                 Cambridge Crystallographic Data Centre
#                                CCDC 
#
#######################################################################
#
# If this CIF has been generated from an entry in the Cambridge 
# Structural Database, then it will include bibliographic, chemical, 
# crystal, experimental, refinement or atomic coordinate data resulting 
# from the CCDC's data processing and validation procedures.
#
#######################################################################

data_ZADGAM10
_symmetry_cell_setting           orthorhombic
_symmetry_space_group_name_H-M   'P n m a'
_symmetry_Int_Tables_number      62
_space_group_name_Hall           '-P 2ac 2n'
loop_
_symmetry_equiv_pos_site_id
_symmetry_equiv_pos_as_xyz
1 x,y,z
2 1/2-x,-y,1/2+z
3 1/2+x,1/2-y,1/2-z
4 -x,1/2+y,-z
5 -x,-y,-z
6 1/2+x,y,1/2-z
7 1/2-x,1/2+y,1/2+z
8 x,1/2-y,z
_cell_length_a                   11.413(4)
_cell_length_b                   22.242(5)
_cell_length_c                   7.736(2)
_cell_angle_alpha                90
_cell_angle_beta                 90
_cell_angle_gamma                90
_cell_volume                     1963.77
loop_
_atom_site_label
_atom_site_type_symbol
_atom_site_fract_x
_atom_site_fract_y
_atom_site_fract_z
Cu1 Cu 0.3770(2) 0.09680(7) 0.4228(2)
Fe1 Fe 0.3805(3) 0.25000 -0.0576(3)
N1 N 0.396(1) 0.1549(4) 0.229(1)
N2 N 0.412(1) 0.1556(5) -0.346(1)
N3 N 0.232(2) 0.25000 -0.060(2)
N4 N 0.650(2) 0.25000 -0.032(2)
O1 O 0.134(1) 0.25000 -0.045(3)
O2 O 0.5406(9) 0.0655(4) 0.390(1)
N5 N 0.207(1) 0.1197(5) 0.429(2)
N6 N 0.3548(9) 0.0190(5) 0.533(1)
C1 C 0.552(1) 0.0139(6) 0.460(1)
C2 C 0.137(1) 0.0902(7) 0.570(2)
C3 C 0.137(2) 0.0239(8) 0.559(2)
C4 C 0.245(2) -0.0059(9) 0.609(2)
C5 C 0.390(1) 0.1901(5) 0.120(2)
C6 C 0.394(1) 0.1894(6) -0.239(2)
C7 C 0.549(2) 0.25000 -0.0500(3)
H1 H 0.20(1) 0.160(6) 0.43(2)
H2 H 0.16(1) 0.102(6) 0.39(2)
H3 H 0.08(1) 0.118(6) 0.51(2)
H4 H 0.17(1) 0.076(6) 0.67(2)
H5 H 0.10(1) 0.040(6) 0.47(2)
H6 H 0.09(1) -0.003(6) 0.63(2)
H7 H 0.27(1) -0.001(7) 0.70(2)
H8 H 0.25(1) -0.050(6) 0.59(2)
C5G C 0.390(1) 0.3099(5) 0.120(2)
C6G C 0.394(1) 0.3106(6) -0.239(2)
C1D C 0.448(1) -0.0139(6) 0.540(1)
N6D N 0.6452(9) -0.0190(5) 0.467(1)
N2_2 N 0.412(1) 0.1556(5) 0.654(1)
N2G N 0.412(1) 0.3444(5) -0.346(1)
N1G N 0.396(1) 0.3451(4) 0.229(1)
Cu1_2 Cu 0.3770(2) 0.09680(7) -0.5772(2)
Cu1G Cu 0.3770(2) 0.40320(7) -0.5772(2)
Cu1G_2 Cu 0.3770(2) 0.40320(7) 0.4228(2)
O2D O 0.4594(9) -0.0655(4) 0.610(1)
Cu1D Cu 0.6230(2) -0.09680(7) 0.5772(2)
C4D C 0.755(2) 0.0059(9) 0.391(2)
C3D C 0.863(2) -0.0239(8) 0.441(2)
H7D H 0.73(1) 0.001(7) 0.30(2)
H8D H 0.75(1) 0.050(6) 0.41(2)
C2D C 0.863(1) -0.0902(7) 0.430(2)
H5D H 0.90(1) -0.040(6) 0.53(2)
H6D H 0.91(1) 0.003(6) 0.37(2)
N5D N 0.793(1) -0.1197(5) 0.571(2)
H3D H 0.92(1) -0.118(6) 0.49(2)
H4D H 0.83(1) -0.076(6) 0.33(2)
H1D H 0.80(1) -0.160(6) 0.57(2)
H2D H 0.84(1) -0.102(6) 0.61(2)
N1D N 0.604(1) -0.1549(4) 0.771(1)
N2D N 0.588(1) -0.1556(5) 0.346(1)
loop_
_geom_bond_atom_site_label_1
_geom_bond_atom_site_label_2
_geom_bond_site_symmetry_1
_geom_bond_site_symmetry_2
Cu1 N1 1_555 1_555
Fe1 N3 1_555 1_555
N1 C5 1_555 1_555
N2 C6 1_555 1_555
N3 O1 1_555 1_555
N4 C7 1_555 1_555
O2 Cu1 1_555 1_555
N5 Cu1 1_555 1_555
N6 Cu1 1_555 1_555
C1 O2 1_555 1_555
C2 N5 1_555 1_555
C3 C2 1_555 1_555
C4 N6 1_555 1_555
C5 Fe1 1_555 1_555
C6 Fe1 1_555 1_555
C7 Fe1 1_555 1_555
H1 N5 1_555 1_555
H2 N5 1_555 1_555
H3 C2 1_555 1_555
H4 C2 1_555 1_555
H5 C3 1_555 1_555
H6 C3 1_555 1_555
H7 C4 1_555 1_555
H8 C4 1_555 1_555
C5G Fe1 1_555 1_555
C6G Fe1 1_555 1_555
C1D N6 1_555 1_555
N6D C1 1_555 1_555
N2_2 Cu1 1_555 1_555
N2G C6G 1_555 1_555
N1G C5G 1_555 1_555
Cu1_2 N2 1_555 1_555
Cu1G N2G 1_555 1_555
Cu1G_2 N1G 1_555 1_555
O2D C1D 1_555 1_555
Cu1D N6D 1_555 1_555
C4D N6D 1_555 1_555
C3D C4D 1_555 1_555
H7D C4D 1_555 1_555
H8D C4D 1_555 1_555
C2D C3D 1_555 1_555
H5D C3D 1_555 1_555
H6D C3D 1_555 1_555
N5D Cu1D 1_555 1_555
H3D C2D 1_555 1_555
H4D C2D 1_555 1_555
H1D N5D 1_555 1_555
H2D N5D 1_555 1_555
N1D Cu1D 1_555 1_555
N2D Cu1D 1_555 1_555
C1 C1D 1_555 1_555
C3 C4 1_555 1_555
O2D Cu1D 1_555 1_555
C2D N5D 1_555 1_555

#END
