
#######################################################################
#
#                 Cambridge Crystallographic Data Centre
#                                CCDC 
#
#######################################################################
#
# If this CIF has been generated from an entry in the Cambridge 
# Structural Database, then it will include bibliographic, chemical, 
# crystal, experimental, refinement or atomic coordinate data resulting 
# from the CCDC's data processing and validation procedures.
#
#######################################################################

data_ZAKCUJ
_symmetry_cell_setting           monoclinic
_symmetry_space_group_name_H-M   'P 21/n'
_symmetry_Int_Tables_number      14
_space_group_name_Hall           '-P 2yn'
loop_
_symmetry_equiv_pos_site_id
_symmetry_equiv_pos_as_xyz
1 x,y,z
2 1/2-x,1/2+y,1/2-z
3 -x,-y,-z
4 1/2+x,1/2-y,1/2+z
_cell_length_a                   4.405(1)
_cell_length_b                   7.997(2)
_cell_length_c                   18.826(5)
_cell_angle_alpha                90
_cell_angle_beta                 90.00
_cell_angle_gamma                90
_cell_volume                     663.179
loop_
_atom_site_label
_atom_site_type_symbol
_atom_site_fract_x
_atom_site_fract_y
_atom_site_fract_z
Sr1 Sr 0.5000 0.5000 0.5000
O1 O 0.5001(8) 0.7045(4) 0.60353(14)
C1 C 0.4990(16) 0.8832(6) 0.5985(3)
H1 H 0.3194(16) 0.9213(6) 0.5735(3)
H2 H 0.6770(16) 0.9219(6) 0.5730(3)
C2 C 0.5005(19) 0.9486(6) 0.6725(3)
H3 H 0.6803(19) 1.0160(6) 0.6806(3)
H4 H 0.3228(19) 1.0176(6) 0.6807(3)
C3 C 0.4987(18) 0.8046(7) 0.7199(3)
H5 H 0.6751(18) 0.8073(7) 0.7508(3)
H6 H 0.3177(18) 0.8060(7) 0.7493(3)
C4 C 0.5038(18) 0.6555(6) 0.6762(3)
H7 H 0.6852(18) 0.5909(6) 0.6862(3)
H8 H 0.3282(18) 0.5865(6) 0.6866(3)
B1 B -0.0006(14) 0.3114(8) 0.5678(3)
H9 H -0.182(12) 0.2462(62) 0.5826(24)
H10 H 0.001(12) 0.4277(71) 0.5780(26)
H11 H -0.014(12) 0.3052(62) 0.5068(25)
H12 H 0.186(12) 0.2527(62) 0.5866(24)
O1B O 0.4999(8) 0.2955(4) 0.39647(14)
C1B C 0.5010(16) 0.1168(6) 0.4015(3)
H1B H 0.6806(16) 0.0787(6) 0.4265(3)
H2B H 0.3230(16) 0.0781(6) 0.4270(3)
C2B C 0.4995(19) 0.0514(6) 0.3275(3)
H3B H 0.3197(19) -0.0160(6) 0.3194(3)
H4B H 0.6772(19) -0.0176(6) 0.3193(3)
C3B C 0.5013(18) 0.1954(7) 0.2801(3)
H5B H 0.3249(18) 0.1927(7) 0.2492(3)
H6B H 0.6823(18) 0.1940(7) 0.2507(3)
C4B C 0.4962(18) 0.3445(6) 0.3238(3)
H7B H 0.3148(18) 0.4091(6) 0.3138(3)
H8B H 0.6718(18) 0.4135(6) 0.3134(3)
B1_2 B 0.9994(14) 0.3114(8) 0.5678(3)
H9_2 H 0.818(12) 0.2462(62) 0.5826(24)
H10_2 H 1.001(12) 0.4277(71) 0.5780(26)
H11_2 H 0.986(12) 0.3052(62) 0.5068(25)
H12_2 H 1.186(12) 0.2527(62) 0.5866(24)
Sr1_2 Sr -0.5000 0.5000 0.5000
Sr1_3 Sr 1.5000 0.5000 0.5000
B1B B 0.0006(14) 0.6886(8) 0.4322(3)
B1B_2 B 1.0006(14) 0.6886(8) 0.4322(3)
H9B H 0.182(12) 0.7538(62) 0.4174(24)
H10B H -0.001(12) 0.5723(71) 0.4220(26)
H10B_2 H 0.999(12) 0.5723(71) 0.4220(26)
H11B H 0.014(12) 0.6948(62) 0.4932(25)
H11B_2 H 1.014(12) 0.6948(62) 0.4932(25)
H12B H 0.814(12) 0.7473(62) 0.4134(24)
H9B_2 H -0.818(12) 0.7538(62) 0.4174(24)
H10_3 H -0.999(12) 0.4277(71) 0.5780(26)
H10B_3 H -1.001(12) 0.5723(71) 0.4220(26)
H11_3 H -1.014(12) 0.3052(62) 0.5068(25)
H11B_3 H -0.986(12) 0.6948(62) 0.4932(25)
H12_3 H -0.814(12) 0.2527(62) 0.5866(24)
H12B_2 H -0.186(12) 0.7473(62) 0.4134(24)
H9_3 H 1.818(12) 0.2462(62) 0.5826(24)
H9B_3 H 1.182(12) 0.7538(62) 0.4174(24)
H10_4 H 2.001(12) 0.4277(71) 0.5780(26)
H10B_4 H 1.999(12) 0.5723(71) 0.4220(26)
H11_4 H 1.986(12) 0.3052(62) 0.5068(25)
H11B_4 H 2.014(12) 0.6948(62) 0.4932(25)
H12B_3 H 1.814(12) 0.7473(62) 0.4134(24)
loop_
_geom_bond_atom_site_label_1
_geom_bond_atom_site_label_2
_geom_bond_site_symmetry_1
_geom_bond_site_symmetry_2
Sr1 O1 1_555 1_555
O1 C1 1_555 1_555
C1 H1 1_555 1_555
H2 C1 1_555 1_555
C2 C1 1_555 1_555
H3 C2 1_555 1_555
H4 C2 1_555 1_555
C3 C2 1_555 1_555
H5 C3 1_555 1_555
H6 C3 1_555 1_555
C4 O1 1_555 1_555
H7 C4 1_555 1_555
H8 C4 1_555 1_555
B1 H9 1_555 1_555
H9 Sr1_2 1_555 1_555
H10 Sr1 1_555 1_555
H11 Sr1 1_555 1_555
H12 Sr1 1_555 1_555
O1B Sr1 1_555 1_555
C1B O1B 1_555 1_555
H1B C1B 1_555 1_555
H2B C1B 1_555 1_555
C2B C1B 1_555 1_555
H3B C2B 1_555 1_555
H4B C2B 1_555 1_555
C3B C2B 1_555 1_555
H5B C3B 1_555 1_555
H6B C3B 1_555 1_555
C4B O1B 1_555 1_555
H7B C4B 1_555 1_555
H8B C4B 1_555 1_555
B1_2 H9_2 1_555 1_555
H9_2 Sr1 1_555 1_555
H10_2 Sr1 1_555 1_555
H11_2 Sr1 1_555 1_555
H12_2 B1_2 1_555 1_555
Sr1_2 H10 1_555 1_555
Sr1_3 H10_2 1_555 1_555
B1B H9B 1_555 1_555
B1B_2 H10B_2 1_555 1_555
H9B Sr1 1_555 1_555
H10B Sr1 1_555 1_555
H10B_2 Sr1 1_555 1_555
H11B Sr1 1_555 1_555
H11B_2 Sr1 1_555 1_555
H12B Sr1 1_555 1_555
H9B_2 Sr1_2 1_555 1_555
H10_3 Sr1_2 1_555 1_555
H10B_3 Sr1_2 1_555 1_555
H11_3 Sr1_2 1_555 1_555
H11B_3 Sr1_2 1_555 1_555
H12_3 Sr1_2 1_555 1_555
H12B_2 Sr1_2 1_555 1_555
H9_3 Sr1_3 1_555 1_555
H9B_3 Sr1_3 1_555 1_555
H10_4 Sr1_3 1_555 1_555
H10B_4 Sr1_3 1_555 1_555
H11_4 Sr1_3 1_555 1_555
H11B_4 Sr1_3 1_555 1_555
H12B_3 Sr1_3 1_555 1_555
C3 C4 1_555 1_555
B1 H10 1_555 1_555
B1 H11 1_555 1_555
B1 H12 1_555 1_555
H11 Sr1_2 1_555 1_555
C3B C4B 1_555 1_555
B1_2 H10_2 1_555 1_555
B1_2 H11_2 1_555 1_555
H11_2 Sr1_3 1_555 1_555
H12_2 Sr1_3 1_555 1_555
Sr1_2 H10B 1_555 1_555
Sr1_2 H11B 1_555 1_555
Sr1_3 H10B_2 1_555 1_555
Sr1_3 H11B_2 1_555 1_555
B1B H10B 1_555 1_555
B1B H11B 1_555 1_555
B1B H12B_2 1_555 1_555
B1B_2 H11B_2 1_555 1_555
B1B_2 H12B 1_555 1_555
B1B_2 H9B_3 1_555 1_555

#END
