
#######################################################################
#
#                 Cambridge Crystallographic Data Centre
#                                CCDC 
#
#######################################################################
#
# If this CIF has been generated from an entry in the Cambridge 
# Structural Database, then it will include bibliographic, chemical, 
# crystal, experimental, refinement or atomic coordinate data resulting 
# from the CCDC's data processing and validation procedures.
#
#######################################################################

data_ZAKHOI
_symmetry_cell_setting           orthorhombic
_symmetry_space_group_name_H-M   'P 21 21 21'
_symmetry_Int_Tables_number      19
_space_group_name_Hall           'P 2ac 2ab'
loop_
_symmetry_equiv_pos_site_id
_symmetry_equiv_pos_as_xyz
1 x,y,z
2 1/2-x,-y,1/2+z
3 1/2+x,1/2-y,-z
4 -x,1/2+y,1/2-z
_cell_length_a                   9.012(2)
_cell_length_b                   16.275(3)
_cell_length_c                   18.774(4)
_cell_angle_alpha                90
_cell_angle_beta                 90
_cell_angle_gamma                90
_cell_volume                     2753.59
loop_
_atom_site_label
_atom_site_type_symbol
_atom_site_fract_x
_atom_site_fract_y
_atom_site_fract_z
Zn1 Zn 0.01944 -0.51047 0.20640
N1 N -0.23524(85) -0.05892(47) 0.31253(45)
C1 C -0.2173(11) -0.14454(60) 0.33939(61)
C2 C -0.0769(10) -0.15159(53) 0.38309(53)
O1 O 0.02267(82) -0.10001(37) 0.37872(37)
N2 N -0.06783(80) -0.21753(44) 0.42431(39)
C3 C 0.0689(10) -0.23709(56) 0.46327(49)
C4 C 0.0873(12) -0.33242(59) 0.46282(53)
C5 C 0.0582(11) -0.20872(55) 0.54112(52)
C6 C 0.1076(11) -0.36335(55) 0.38692(55)
O2 O -0.05726(88) -0.23041(49) 0.57490(42)
O3 O 0.16695(80) -0.17378(53) 0.56646(44)
N3 N 0.22938(91) -0.34639(53) 0.34641(46)
C7 C 0.0154(12) -0.40852(54) 0.34603(47)
N4 N 0.07988(85) -0.42168(52) 0.27962(45)
C8 C 0.2099(11) -0.38200(64) 0.28223(59)
N5 N -0.06989(86) -0.30499(45) 0.07155(41)
C9 C 0.05727(95) -0.27616(53) 0.02981(49)
C10 C 0.0529(13) -0.18043(58) 0.03212(53)
C11 C 0.0671(12) -0.15048(62) 0.10647(57)
N6 N 0.19792(99) -0.15971(70) 0.14616(55)
C12 C 0.1746(12) -0.12688(75) 0.21140(74)
N7 N 0.03854(90) -0.09629(47) 0.21647(45)
C13 C -0.0270(13) -0.11133(56) 0.15029(52)
C14 C 0.0581(12) -0.30705(61) -0.04594(57)
O4 O 0.15502(82) -0.28146(46) -0.08656(40)
O5 O -0.03901(94) -0.35905(48) -0.06535(43)
C15 C -0.0624(10) -0.37036(55) 0.11346(48)
C16 C -0.1981(12) -0.38371(64) 0.15764(58)
O6 O 0.04708(74) -0.41665(39) 0.11731(35)
N8 N -0.20141(86) -0.46712(46) 0.18889(42)
N1C N 0.23524(85) -0.55892(47) 0.18747(45)
Zn1C Zn -0.01944 -0.01047 0.29360
O1C O -0.02267(82) -0.60001(37) 0.12128(37)
N7C N -0.03854(90) -0.59629(47) 0.28353(45)
O7 O 0.2760(11) -1.00275(78) 0.00402(68)
O8 O 0.0832(10) -0.86849(66) -0.15790(54)
O9 O 0.0032(13) -1.00171(58) -0.06875(51)
O10 O -0.2824(12) -1.00620(92) -0.00371(63)
O11 O -0.09927(83) -0.60572(50) -0.19752(45)
O12 O -0.0228(14) -0.75415(60) -0.27643(46)
O13 O 0.0832(13) -0.46178(67) -0.17157(71)
loop_
_geom_bond_atom_site_label_1
_geom_bond_atom_site_label_2
_geom_bond_site_symmetry_1
_geom_bond_site_symmetry_2
Zn1 N4 1_555 1_555
N1 C1 1_555 1_555
C1 C2 1_555 1_555
C2 O1 1_555 1_555
O1 Zn1C 1_555 1_555
N2 C2 1_555 1_555
C3 N2 1_555 1_555
C4 C3 1_555 1_555
C5 C3 1_555 1_555
C6 C4 1_555 1_555
O2 C5 1_555 1_555
O3 C5 1_555 1_555
N3 C6 1_555 1_555
C7 C6 1_555 1_555
N4 C7 1_555 1_555
C8 N3 1_555 1_555
N5 C9 1_555 1_555
C9 C10 1_555 1_555
C10 C11 1_555 1_555
C11 N6 1_555 1_555
N6 C12 1_555 1_555
C12 N7 1_555 1_555
N7 C13 1_555 1_555
C13 C11 1_555 1_555
C14 C9 1_555 1_555
O4 C14 1_555 1_555
O5 C14 1_555 1_555
C15 N5 1_555 1_555
C16 C15 1_555 1_555
O6 Zn1 1_555 1_555
N8 Zn1 1_555 1_555
N1C Zn1 1_555 1_555
Zn1C N1 1_555 1_555
O1C Zn1 1_555 1_555
N7C Zn1 1_555 1_555
N4 C8 1_555 1_555
N7 Zn1C 1_555 1_555
C15 O6 1_555 1_555
C16 N8 1_555 1_555

#END
