
#######################################################################
#
#                 Cambridge Crystallographic Data Centre
#                                CCDC 
#
#######################################################################
#
# If this CIF has been generated from an entry in the Cambridge 
# Structural Database, then it will include bibliographic, chemical, 
# crystal, experimental, refinement or atomic coordinate data resulting 
# from the CCDC's data processing and validation procedures.
#
#######################################################################

data_ZALBUJ
_symmetry_cell_setting           monoclinic
_symmetry_space_group_name_H-M   'P 21/n'
_symmetry_Int_Tables_number      14
_space_group_name_Hall           '-P 2yn'
loop_
_symmetry_equiv_pos_site_id
_symmetry_equiv_pos_as_xyz
1 x,y,z
2 1/2-x,1/2+y,1/2-z
3 -x,-y,-z
4 1/2+x,1/2-y,1/2+z
_cell_length_a                   10.205(2)
_cell_length_b                   9.599(2)
_cell_length_c                   19.431(3)
_cell_angle_alpha                90
_cell_angle_beta                 100.268(3)
_cell_angle_gamma                90
_cell_volume                     1872.93
loop_
_atom_site_label
_atom_site_type_symbol
_atom_site_fract_x
_atom_site_fract_y
_atom_site_fract_z
Zn1 Zn 0.32153(3) 0.01482(3) 0.21888(2)
O1 O 0.2490(2) -0.4035(2) 0.2010(1)
O2 O 0.2248(2) -0.1810(2) 0.2283(1)
O3 O 0.4825(2) -0.0800(2) 0.2844(1)
O4 O 0.6803(3) -0.0318(3) 0.3484(2)
O5 O 0.1596(2) 0.1123(2) 0.1513(1)
O6 O 0.4404(2) 0.2988(3) 0.0431(1)
N1 N 0.3306(2) -0.0887(2) 0.1200(1)
N2 N 0.4986(2) 0.1323(2) 0.1929(1)
N3 N 0.1008(3) 0.1550(3) 0.0354(1)
N4 N 0.2858(3) 0.3609(3) 0.1078(1)
C1 C 0.4379(3) -0.0243(3) 0.0881(1)
C2 C 0.5488(3) 0.0345(3) 0.1432(2)
C3 C 0.3516(3) -0.2359(3) 0.1400(2)
C4 C 0.2681(3) -0.2751(3) 0.1941(1)
C5 C 0.5918(3) 0.1304(3) 0.2617(2)
C6 C 0.5842(3) -0.0054(4) 0.3008(2)
C7 C 0.1998(3) -0.0683(3) 0.0745(2)
C8 C 0.1513(3) 0.0749(3) 0.0889(2)
C9 C 0.4976(3) 0.2808(3) 0.1687(2)
C10 C 0.4037(3) 0.3130(3) 0.1001(2)
C11 C 0.0619(3) 0.2994(3) 0.0464(2)
C12 C 0.1790(3) 0.3978(3) 0.0508(2)
H1 H 0.089 0.119 -0.011
H2 H 0.269 0.372 0.154
H3 H 0.474 -0.092 0.061
H4 H 0.401 0.050 0.058
H5 H 0.611 0.083 0.121
H6 H 0.592 -0.041 0.169
H7 H 0.327 -0.293 0.100
H8 H 0.443 -0.250 0.159
H9 H 0.680 0.142 0.253
H10 H 0.570 0.205 0.290
H11 H 0.208 -0.076 0.027
H12 H 0.139 -0.137 0.085
H13 H 0.473 0.338 0.204
H14 H 0.585 0.304 0.163
H15 H -0.006 0.327 0.009
H16 H 0.029 0.304 0.089
H17 H 0.150 0.490 0.058
H18 H 0.212 0.393 0.008
O1A O 0.2510(2) 0.0965(2) 0.2990(1)
Zn1A Zn 0.17847(3) -0.48518(3) 0.28112(2)
O7 O 0.8362(3) 0.2026(3) 0.3973(1)
H19 H 0.787 0.136 0.387
H20 H 0.864 0.190 0.441
O8 O 0.7795(3) 0.7966(3) 0.4622(1)
H21 H 0.863 0.788 0.453
H22 H 0.749 0.859 0.433
O9 O 0.6310(3) 0.3969(3) 0.3979(1)
H23 H 0.698 0.338 0.401
H24 H 0.625 0.470 0.375
O10 O 0.5995(3) 0.6282(4) 0.3066(2)
loop_
_geom_bond_atom_site_label_1
_geom_bond_atom_site_label_2
_geom_bond_site_symmetry_1
_geom_bond_site_symmetry_2
Zn1 O2 1_555 1_555
O1 C4 1_555 1_555
O2 C4 1_555 1_555
O3 Zn1 1_555 1_555
O4 C6 1_555 1_555
O5 Zn1 1_555 1_555
O6 C10 1_555 1_555
N1 Zn1 1_555 1_555
N2 Zn1 1_555 1_555
N3 C8 1_555 1_555
N4 C10 1_555 1_555
C1 N1 1_555 1_555
C2 N2 1_555 1_555
C3 N1 1_555 1_555
C4 C3 1_555 1_555
C5 N2 1_555 1_555
C6 O3 1_555 1_555
C7 N1 1_555 1_555
C8 O5 1_555 1_555
C9 N2 1_555 1_555
C10 C9 1_555 1_555
C11 N3 1_555 1_555
C12 N4 1_555 1_555
H1 N3 1_555 1_555
H2 N4 1_555 1_555
H3 C1 1_555 1_555
H4 C1 1_555 1_555
H5 C2 1_555 1_555
H6 C2 1_555 1_555
H7 C3 1_555 1_555
H8 C3 1_555 1_555
H9 C5 1_555 1_555
H10 C5 1_555 1_555
H11 C7 1_555 1_555
H12 C7 1_555 1_555
H13 C9 1_555 1_555
H14 C9 1_555 1_555
H15 C11 1_555 1_555
H16 C11 1_555 1_555
H17 C12 1_555 1_555
H18 C12 1_555 1_555
O7 H19 1_555 1_555
H20 O7 1_555 1_555
O8 H21 1_555 1_555
H22 O8 1_555 1_555
O9 H23 1_555 1_555
H24 O9 1_555 1_555
O1A Zn1 1_555 1_555
Zn1A O1 1_555 1_555
C1 C2 1_555 1_555
C5 C6 1_555 1_555
C7 C8 1_555 1_555
C11 C12 1_555 1_555

#END
