
#######################################################################
#
#                 Cambridge Crystallographic Data Centre
#                                CCDC 
#
#######################################################################
#
# If this CIF has been generated from an entry in the Cambridge 
# Structural Database, then it will include bibliographic, chemical, 
# crystal, experimental, refinement or atomic coordinate data resulting 
# from the CCDC's data processing and validation procedures.
#
#######################################################################

data_ZALTOV
_symmetry_cell_setting           monoclinic
_symmetry_space_group_name_H-M   'P 21/n'
_symmetry_Int_Tables_number      14
_space_group_name_Hall           '-P 2yn'
loop_
_symmetry_equiv_pos_site_id
_symmetry_equiv_pos_as_xyz
1 x,y,z
2 1/2-x,1/2+y,1/2-z
3 -x,-y,-z
4 1/2+x,1/2-y,1/2+z
_cell_length_a                   9.664(1)
_cell_length_b                   13.427(2)
_cell_length_c                   20.844(3)
_cell_angle_alpha                90
_cell_angle_beta                 94.74(1)
_cell_angle_gamma                90
_cell_volume                     2695.44
loop_
_atom_site_label
_atom_site_type_symbol
_atom_site_fract_x
_atom_site_fract_y
_atom_site_fract_z
Cd1 Cd 0.26753(4) 0.10065(3) -0.12317(2)
O1 O 0.0942(4) 0.2440(3) -0.1425(2)
O2 O 0.1776(4) 0.2074(3) -0.0442(2)
O3 O 0.0324(3) 0.3305(3) -0.0614(2)
O4 O 0.4043(4) -0.0533(3) -0.1233(2)
O5 O 0.3493(4) 0.0009(3) -0.0310(2)
O6 O 0.4289(5) -0.1498(3) -0.0397(2)
N1 N 0.2579(5) 0.0945(4) -0.2377(2)
N2 N -0.4495(5) -0.2071(3) -0.8695(2)
N3 N 0.0752(5) -0.0018(3) -0.1216(2)
N4 N 0.1013(5) 0.2610(4) -0.0821(2)
N5 N 0.3956(5) -0.0692(4) -0.0637(2)
C1 C -0.4261(6) -0.2977(5) -0.8447(3)
C2 C -0.5297(6) -0.3595(4) -0.8264(3)
C3 C -0.6658(6) -0.3280(4) -0.8323(3)
C4 C -0.6926(6) -0.2353(5) -0.8595(3)
C5 C -0.5833(7) -0.1781(5) -0.8778(3)
C6 C -0.7822(7) -0.3903(5) -0.8091(3)
C7 C -0.7707(6) -0.4990(4) -0.8244(3)
C8 C -0.8216(6) -0.5346(5) -0.8841(3)
C9 C -0.8063(7) -0.6332(5) -0.9012(3)
C10 C -0.7378(6) -0.6997(4) -0.8600(3)
C11 C -0.6868(7) -0.6654(5) -0.7984(3)
C12 C -0.7049(7) -0.5657(5) -0.7806(3)
C13 C 0.0686(6) -0.0889(5) -0.1539(3)
C14 C -0.0423(6) -0.1535(5) -0.1538(3)
C15 C -0.1544(6) -0.1301(4) -0.1200(3)
C16 C -0.1468(6) -0.0400(4) -0.0860(3)
C17 C -0.0328(6) 0.0205(4) -0.0874(3)
C18 C -0.7173(7) -0.8048(5) -0.8809(4)
C19 C 0.1871(7) 0.1634(5) -0.2749(3)
C20 C 0.1868(8) 0.1668(5) -0.3400(3)
C21 C 0.2610(6) 0.0980(5) -0.3727(3)
C22 C 0.3335(7) 0.0265(5) -0.3349(3)
C23 C 0.3299(6) 0.0268(5) -0.2685(3)
C24 C 0.2558(8) 0.0991(7) -0.4463(3)
C25 C 0.1229(6) 0.0475(5) -0.4749(3)
C26 C 0.0084(8) 0.1030(5) -0.4968(3)
C27 C 0.1146(7) -0.0567(5) -0.4789(3)
H1 H -0.669(6) -0.694(4) -0.165(3)
H2 H -0.497(6) -0.578(4) -0.189(3)
H3 H -0.787(6) -0.204(4) -0.863(3)
H4 H -0.605(6) -0.109(5) -0.902(3)
H5 H -0.670(6) -0.542(4) -0.732(3)
H6 H -0.633(6) -0.711(4) -0.760(3)
H7 H -0.133(6) -0.509(4) -0.087(3)
H8 H 0.194(6) -0.105(5) -0.456(3)
H9 H -0.019(6) 0.091(4) -0.062(3)
H10 H -0.227(6) -0.017(4) -0.065(3)
H11 H -0.039(6) -0.220(4) -0.171(3)
H12 H 0.152(6) -0.108(4) -0.183(3)
H13 H 0.125(6) 0.217(4) -0.248(3)
H14 H 0.136(6) 0.223(4) -0.358(3)
H15 H 0.010(7) 0.175(5) -0.495(3)
H16 H -0.160(6) -0.344(4) -0.061(3)
H17 H 0.385(6) -0.025(5) -0.353(3)
H18 H 0.386(6) -0.024(5) -0.242(3)
H19 H -0.125(6) -0.634(4) -0.172(3)
H20 H -0.211(6) -0.613(4) -0.232(3)
H21 H 0.258(7) 0.173(5) -0.460(3)
H22 H 0.335(6) 0.066(5) -0.459(3)
H23 H -0.363(6) -0.160(4) -0.138(3)
H24 H -0.306(6) -0.208(5) -0.073(3)
C27B C -0.1146(7) 0.0567(5) -0.5211(3)
C25B C -0.1229(6) -0.0475(5) -0.5251(3)
C24B C -0.2558(8) -0.0991(7) -0.5537(3)
C21B C -0.2610(6) -0.0980(5) -0.6273(3)
C20B C -0.1868(8) -0.1668(5) -0.6600(3)
C19B C -0.1871(7) -0.1634(5) -0.7251(3)
N1B N -0.2579(5) -0.0945(4) -0.7623(2)
Cd1B Cd -0.26753(4) -0.10065(3) -0.87683(2)
O1B O -0.0942(4) -0.2440(3) -0.8575(2)
N4B N -0.1013(5) -0.2610(4) -0.9179(2)
O2B O -0.1776(4) -0.2074(3) -0.9558(2)
O4B O -0.4043(4) 0.0533(3) -0.8767(2)
N5B N -0.3956(5) 0.0692(4) -0.9363(2)
O5B O -0.3493(4) -0.0009(3) -0.9690(2)
N2B N 0.4495(5) 0.2071(3) -0.1305(2)
C15B C -0.8456(6) -0.8699(4) -0.8800(3)
C14B C -0.9577(6) -0.8465(5) -0.8462(3)
C13B C -1.0686(6) -0.9111(5) -0.8461(3)
N3B N -1.0752(5) -0.9982(3) -0.8784(2)
Cd1B_2 Cd -1.26753(4) -1.10065(3) -0.87683(2)
Cd1_2 Cd -0.73247(4) -0.89935(3) -0.12317(2)
N2B_2 N -0.5505(5) -0.7929(3) -0.1305(2)
C1B C -0.5739(6) -0.7023(5) -0.1553(3)
C2B C -0.4703(6) -0.6405(4) -0.1736(3)
C3B C -0.3342(6) -0.6720(4) -0.1677(3)
C4B C -0.3074(6) -0.7647(5) -0.1405(3)
C5B C -0.4167(7) -0.8219(5) -0.1222(3)
H4B H -0.395(6) -0.891(5) -0.098(3)
H3B H -0.213(6) -0.796(4) -0.137(3)
C6B C -0.2178(7) -0.6097(5) -0.1909(3)
C7B C -0.2293(6) -0.5010(4) -0.1756(3)
C8B C -0.1784(6) -0.4654(5) -0.1159(3)
C9B C -0.1937(7) -0.3668(5) -0.0988(3)
C10B C -0.2622(6) -0.3003(4) -0.1400(3)
C11B C -0.3132(7) -0.3346(5) -0.2016(3)
C12B C -0.2951(7) -0.4343(5) -0.2194(3)
H5B H -0.330(6) -0.458(4) -0.268(3)
H6B H -0.367(6) -0.289(4) -0.240(3)
C18B C -0.2827(7) -0.1952(5) -0.1191(4)
C17B C -0.9672(6) -1.0205(4) -0.9126(3)
C16B C -0.8532(6) -0.9600(4) -0.9140(3)
H10B H -0.773(6) -0.983(4) -0.935(3)
H9B H -0.981(6) -1.091(4) -0.938(3)
H12B H -1.152(6) -0.892(4) -0.817(3)
H11B H -0.961(6) -0.780(4) -0.829(3)
H23B H -0.637(6) -0.840(4) -0.862(3)
H24B H -0.694(6) -0.792(5) -0.927(3)
H16B H -0.840(6) -0.656(4) -0.939(3)
H7B H -0.867(6) -0.491(4) -0.913(3)
H19B H -0.875(6) -0.366(4) -0.828(3)
H20B H -0.789(6) -0.387(4) -0.768(3)
H2B H -0.503(6) -0.422(4) -0.811(3)
H1B H -0.331(6) -0.306(4) -0.835(3)
N3B_2 N -0.0752(5) 0.0018(3) -0.8784(2)
O6B O -0.4289(5) 0.1498(3) -0.9603(2)
O3B O -0.0324(3) -0.3305(3) -0.9386(2)
C23B C -0.3299(6) -0.0268(5) -0.7315(3)
C22B C -0.3335(7) -0.0265(5) -0.6651(3)
H17B H -0.385(6) 0.025(5) -0.647(3)
H18B H -0.386(6) 0.024(5) -0.758(3)
H13B H -0.125(6) -0.217(4) -0.752(3)
H14B H -0.136(6) -0.223(4) -0.642(3)
H21B H -0.258(7) -0.173(5) -0.540(3)
H22B H -0.335(6) -0.066(5) -0.541(3)
C26B C -0.0084(8) -0.1030(5) -0.5032(3)
H8B H -0.194(6) 0.105(5) -0.544(3)
H15B H -0.010(7) -0.175(5) -0.505(3)
loop_
_geom_bond_atom_site_label_1
_geom_bond_atom_site_label_2
_geom_bond_site_symmetry_1
_geom_bond_site_symmetry_2
Cd1 O1 1_555 1_555
O1 N4 1_555 1_555
O2 Cd1 1_555 1_555
O3 N4 1_555 1_555
O4 Cd1 1_555 1_555
O5 Cd1 1_555 1_555
O6 N5 1_555 1_555
N1 Cd1 1_555 1_555
N2 C1 1_555 1_555
N3 Cd1 1_555 1_555
N4 O2 1_555 1_555
N5 O4 1_555 1_555
C1 C2 1_555 1_555
C2 C3 1_555 1_555
C3 C4 1_555 1_555
C4 C5 1_555 1_555
C5 N2 1_555 1_555
C6 C3 1_555 1_555
C7 C6 1_555 1_555
C8 C7 1_555 1_555
C9 C8 1_555 1_555
C10 C9 1_555 1_555
C11 C10 1_555 1_555
C12 C7 1_555 1_555
C13 N3 1_555 1_555
C14 C13 1_555 1_555
C15 C14 1_555 1_555
C16 C15 1_555 1_555
C17 N3 1_555 1_555
C18 C10 1_555 1_555
C19 N1 1_555 1_555
C20 C19 1_555 1_555
C21 C20 1_555 1_555
C22 C21 1_555 1_555
C23 N1 1_555 1_555
C24 C21 1_555 1_555
C25 C24 1_555 1_555
C26 C25 1_555 1_555
C27 C25 1_555 1_555
H1 C1B 1_555 1_555
H2 C2B 1_555 1_555
H3 C4 1_555 1_555
H4 C5 1_555 1_555
H5 C12 1_555 1_555
H6 C11 1_555 1_555
H7 C8B 1_555 1_555
H8 C27 1_555 1_555
H9 C17 1_555 1_555
H10 C16 1_555 1_555
H11 C14 1_555 1_555
H12 C13 1_555 1_555
H13 C19 1_555 1_555
H14 C20 1_555 1_555
H15 C26 1_555 1_555
H16 C9B 1_555 1_555
H17 C22 1_555 1_555
H18 C23 1_555 1_555
H19 C6B 1_555 1_555
H20 C6B 1_555 1_555
H21 C24 1_555 1_555
H22 C24 1_555 1_555
H23 C18B 1_555 1_555
H24 C18B 1_555 1_555
C27B C26 1_555 1_555
C25B C27B 1_555 1_555
C24B C25B 1_555 1_555
C21B C24B 1_555 1_555
C20B C21B 1_555 1_555
C19B C20B 1_555 1_555
N1B C19B 1_555 1_555
Cd1B N2 1_555 1_555
O1B Cd1B 1_555 1_555
N4B O1B 1_555 1_555
O2B Cd1B 1_555 1_555
O4B Cd1B 1_555 1_555
N5B O4B 1_555 1_555
O5B Cd1B 1_555 1_555
N2B Cd1 1_555 1_555
C15B C18 1_555 1_555
C14B C15B 1_555 1_555
C13B C14B 1_555 1_555
N3B C13B 1_555 1_555
Cd1B_2 N3B 1_555 1_555
Cd1_2 N2B_2 1_555 1_555
N2B_2 C1B 1_555 1_555
C1B C2B 1_555 1_555
C2B C3B 1_555 1_555
C3B C4B 1_555 1_555
C4B C5B 1_555 1_555
C5B N2B_2 1_555 1_555
H4B C5B 1_555 1_555
H3B C4B 1_555 1_555
C6B C3B 1_555 1_555
C7B C6B 1_555 1_555
C8B C7B 1_555 1_555
C9B C8B 1_555 1_555
C10B C9B 1_555 1_555
C11B C10B 1_555 1_555
C12B C7B 1_555 1_555
H5B C12B 1_555 1_555
H6B C11B 1_555 1_555
C18B C15 1_555 1_555
C17B N3B 1_555 1_555
C16B C15B 1_555 1_555
H10B C16B 1_555 1_555
H9B C17B 1_555 1_555
H12B C13B 1_555 1_555
H11B C14B 1_555 1_555
H23B C18 1_555 1_555
H24B C18 1_555 1_555
H16B C9 1_555 1_555
H7B C8 1_555 1_555
H19B C6 1_555 1_555
H20B C6 1_555 1_555
H2B C2 1_555 1_555
H1B C1 1_555 1_555
N3B_2 Cd1B 1_555 1_555
O6B N5B 1_555 1_555
O3B N4B 1_555 1_555
C23B N1B 1_555 1_555
C22B C21B 1_555 1_555
H17B C22B 1_555 1_555
H18B C23B 1_555 1_555
H13B C19B 1_555 1_555
H14B C20B 1_555 1_555
H21B C24B 1_555 1_555
H22B C24B 1_555 1_555
C26B C27 1_555 1_555
H8B C27B 1_555 1_555
H15B C26B 1_555 1_555
O5 N5 1_555 1_555
C11 C12 1_555 1_555
C16 C17 1_555 1_555
C22 C23 1_555 1_555
C25B C26B 1_555 1_555
N1B Cd1B 1_555 1_555
N4B O2B 1_555 1_555
N5B O5B 1_555 1_555
C10B C18B 1_555 1_555
C11B C12B 1_555 1_555
C17B C16B 1_555 1_555
C23B C22B 1_555 1_555

#END
