
#######################################################################
#
#                 Cambridge Crystallographic Data Centre
#                                CCDC 
#
#######################################################################
#
# If this CIF has been generated from an entry in the Cambridge 
# Structural Database, then it will include bibliographic, chemical, 
# crystal, experimental, refinement or atomic coordinate data resulting 
# from the CCDC's data processing and validation procedures.
#
#######################################################################

data_ZALTUB
_symmetry_cell_setting           monoclinic
_symmetry_space_group_name_H-M   'P 21/c'
_symmetry_Int_Tables_number      14
_space_group_name_Hall           '-P 2ybc'
loop_
_symmetry_equiv_pos_site_id
_symmetry_equiv_pos_as_xyz
1 x,y,z
2 -x,1/2+y,1/2-z
3 -x,-y,-z
4 x,1/2-y,1/2+z
_cell_length_a                   10.694(2)
_cell_length_b                   12.225(1)
_cell_length_c                   21.600(3)
_cell_angle_alpha                90
_cell_angle_beta                 99.14(1)
_cell_angle_gamma                90
_cell_volume                     2788
loop_
_atom_site_label
_atom_site_type_symbol
_atom_site_fract_x
_atom_site_fract_y
_atom_site_fract_z
Cd1 Cd -0.03499(5) 0.12472(5) -0.13102(3)
F1 F -0.4752(3) 0.4584(4) 0.0548(2)
F2 F -0.4517(6) 0.5052(4) 0.1759(2)
F3 F -0.5475(6) 0.0902(4) 0.0984(3)
F4 F -0.5312(5) 0.1390(4) 0.2194(2)
F5 F -0.2287(5) -0.4589(4) -0.0704(3)
F6 F 0.2163(5) -0.4733(4) -0.0464(3)
O1 O -0.2146(7) 0.2765(6) -0.2874(3)
O2 O -0.0941(6) 0.2862(5) -0.1960(3)
O3 O -0.1586(6) 0.1295(5) -0.2346(3)
O4 O 0.0613(6) 0.2669(5) -0.0581(3)
O5 O 0.1925(6) 0.2273(6) 0.0270(3)
O6 O 0.0985(6) 0.1005(5) -0.0297(3)
N1 N -0.2092(6) 0.1638(5) -0.0834(3)
N2 N -0.8467(6) 0.3662(5) 0.3282(3)
N3 N -0.0357(6) -0.0663(5) -0.1333(3)
N4 N 0.1194(7) 0.2004(6) -0.0189(4)
N5 N -0.1567(7) 0.2333(7) -0.2398(4)
C1 C -0.2558(8) 0.2662(7) -0.0855(4)
C2 C -0.3568(8) 0.2959(7) -0.0571(4)
C3 C -0.4156(7) 0.2198(7) -0.0244(3)
C4 C -0.3658(8) 0.1178(7) -0.0223(4)
C5 C -0.2651(8) 0.0923(6) -0.0515(4)
C6 C -0.5316(9) 0.2463(9) 0.0037(5)
C7 C -0.5116(7) 0.2733(7) 0.0718(4)
C8 C -0.4865(7) 0.3771(7) 0.0952(4)
C9 C -0.4761(8) 0.4006(6) 0.1573(4)
C10 C -0.4904(7) 0.3239(6) 0.2021(4)
C11 C -0.5143(8) 0.2201(6) 0.1785(4)
C12 C -0.5229(8) 0.1952(6) 0.1165(4)
C13 C -0.7723(8) 0.2765(7) 0.3399(4)
C14 C -0.6549(9) 0.2715(8) 0.3223(5)
C15 C -0.6090(7) 0.3557(7) 0.2917(3)
C16 C -0.6854(9) 0.4456(7) 0.2809(4)
C17 C -0.7996(8) 0.4495(7) 0.2997(4)
C18 C -0.4790(9) 0.3498(8) 0.2710(4)
C19 C 0.0574(8) -0.1193(7) -0.0965(4)
C20 C 0.0664(9) -0.2298(7) -0.0940(5)
C21 C -0.0197(8) -0.2940(6) -0.1304(4)
C22 C -0.1155(9) -0.2416(7) -0.1690(4)
C23 C -0.1216(9) -0.1262(8) -0.1700(4)
C24 C -0.009(1) -0.4175(7) -0.1282(5)
C25 C -0.0036(8) -0.4622(6) -0.0625(4)
C26 C -0.1130(8) -0.4790(6) -0.0351(5)
C27 C 0.1063(9) -0.4855(7) -0.0251(4)
H1 H -0.210(8) 0.306(6) -0.100(4)
H2 H -0.371(8) 0.381(7) -0.053(4)
H3 H -0.394(6) 0.076(5) -0.001(3)
H4 H -0.238(7) 0.027(6) -0.052(4)
H5 H -0.564(7) 0.299(6) -0.010(4)
H6 H -0.598(8) 0.179(7) -0.005(4)
H7 H -0.627(7) 0.224(6) 0.334(4)
H8 H -0.664(6) 0.489(5) 0.264(3)
H9 H -0.876(7) 0.506(6) 0.295(4)
H10 H -0.431(8) 0.285(7) 0.291(4)
H11 H -0.435(9) 0.413(8) 0.267(5)
H12 H 0.107(7) -0.074(6) -0.074(3)
H13 H 0.116(7) -0.259(6) -0.065(3)
H14 H -0.173(9) -0.288(7) -0.207(4)
H15 H -0.179(8) -0.070(7) -0.202(4)
H16 H -0.059(7) -0.452(6) -0.154(3)
H17 H 0.064(7) -0.452(7) -0.147(4)
H18 H -0.825(7) 0.220(6) 0.365(3)
C27B C -0.1063(9) -0.5145(7) 0.0251(4)
C26B C 0.1130(8) -0.5210(6) 0.0351(5)
F6B F -0.2163(5) -0.5267(4) 0.0464(3)
C25B C 0.0036(8) -0.5378(6) 0.0625(4)
F5B F 0.2287(5) -0.5411(4) 0.0704(3)
C24B C 0.009(1) -0.5825(7) 0.1282(5)
N2C N 0.1533(6) 0.1338(5) -0.1718(3)
C21B C 0.0197(8) -0.7060(6) 0.1304(4)
H16B H 0.059(7) -0.548(6) 0.154(3)
H17B H -0.064(7) -0.548(7) 0.147(4)
Cd1C Cd -1.03499(5) 0.37528(5) 0.36898(3)
C20B C -0.0664(9) -0.7702(7) 0.0940(5)
C22B C 0.1155(9) -0.7584(7) 0.1690(4)
O2C O -1.0941(6) 0.2138(5) 0.3040(3)
O3C O -1.1586(6) 0.3705(5) 0.2654(3)
O4C O -0.9387(6) 0.2331(5) 0.4419(3)
O6C O -0.9015(6) 0.3995(5) 0.4703(3)
N1C N -1.2092(6) 0.3362(5) 0.4166(3)
N3C N -1.0357(6) 0.5663(5) 0.3667(3)
C19B C -0.0574(8) -0.8807(7) 0.0965(4)
H13B H -0.116(7) -0.741(6) 0.065(3)
C23B C 0.1216(9) -0.8738(8) 0.1700(4)
H14B H 0.173(9) -0.712(7) 0.207(4)
N5C N -1.1567(7) 0.2667(7) 0.2602(4)
N4C N -0.8806(7) 0.2996(6) 0.4811(4)
C19C C -0.9426(8) 0.6193(7) 0.4035(4)
C23C C -1.1216(9) 0.6262(8) 0.3300(4)
N3B N 0.0357(6) -0.9337(5) 0.1333(3)
H12B H -0.107(7) -0.926(6) 0.074(3)
H15B H 0.179(8) -0.930(7) 0.202(4)
O1C O -1.2146(7) 0.2235(6) 0.2126(3)
O5C O -0.8075(6) 0.2727(6) 0.5270(3)
C20C C -0.9336(9) 0.7298(7) 0.4060(5)
H12C H -0.893(7) 0.574(6) 0.426(3)
C22C C -1.1155(9) 0.7416(7) 0.3310(4)
H15C H -1.179(8) 0.570(7) 0.298(4)
Cd1B Cd 0.03499(5) -1.12472(5) 0.13102(3)
C21C C -1.0197(8) 0.7940(6) 0.3696(4)
H13C H -0.884(7) 0.759(6) 0.435(3)
H14C H -1.173(9) 0.788(7) 0.293(4)
C24C C -1.009(1) 0.9175(7) 0.3718(5)
C25C C -1.0036(8) 0.9622(6) 0.4375(4)
H16C H -1.059(7) 0.952(6) 0.346(3)
H17C H -0.936(7) 0.952(7) 0.353(4)
C26C C -1.1130(8) 0.9790(6) 0.4649(5)
C27C C -0.8937(9) 0.9855(7) 0.4749(4)
F5C F -1.2287(5) 0.9589(4) 0.4296(3)
C27A C -1.1063(9) 1.0145(7) 0.5251(4)
F6C F -0.7837(5) 0.9733(4) 0.4536(3)
C26A C -0.8870(8) 1.0210(6) 0.5351(5)
F6A F -1.2163(5) 1.0267(4) 0.5464(3)
C25A C -0.9964(8) 1.0378(6) 0.5625(4)
F5A F -0.7713(5) 1.0411(4) 0.5704(3)
C24A C -0.991(1) 1.0825(7) 0.6282(5)
C21A C -0.9803(8) 1.2060(6) 0.6304(4)
H16A H -0.941(7) 1.048(6) 0.654(3)
H17A H -1.064(7) 1.048(7) 0.647(4)
C20A C -1.0664(9) 1.2702(7) 0.5940(5)
C22A C -0.8845(9) 1.2584(7) 0.6690(4)
C19A C -1.0574(8) 1.3807(7) 0.5965(4)
H13A H -1.116(7) 1.241(6) 0.565(3)
C23A C -0.8784(9) 1.3738(8) 0.6700(4)
H14A H -0.827(9) 1.212(7) 0.707(4)
N3A N -0.9643(6) 1.4337(5) 0.6333(3)
H12A H -1.107(7) 1.426(6) 0.574(3)
H15A H -0.821(8) 1.430(7) 0.702(4)
Cd1A Cd -0.96501(5) 1.62472(5) 0.63102(3)
loop_
_geom_bond_atom_site_label_1
_geom_bond_atom_site_label_2
_geom_bond_site_symmetry_1
_geom_bond_site_symmetry_2
Cd1 O2 1_555 1_555
F1 C8 1_555 1_555
F2 C9 1_555 1_555
F3 C12 1_555 1_555
F4 C11 1_555 1_555
F5 C26 1_555 1_555
F6 C27 1_555 1_555
O1 N5 1_555 1_555
O2 N5 1_555 1_555
O3 Cd1 1_555 1_555
O4 Cd1 1_555 1_555
O5 N4 1_555 1_555
O6 Cd1 1_555 1_555
N1 Cd1 1_555 1_555
N2 C13 1_555 1_555
N3 Cd1 1_555 1_555
N4 O4 1_555 1_555
N5 O3 1_555 1_555
C1 N1 1_555 1_555
C2 C1 1_555 1_555
C3 C2 1_555 1_555
C4 C3 1_555 1_555
C5 N1 1_555 1_555
C6 C3 1_555 1_555
C7 C6 1_555 1_555
C8 C7 1_555 1_555
C9 C8 1_555 1_555
C10 C9 1_555 1_555
C11 C10 1_555 1_555
C12 C7 1_555 1_555
C13 C14 1_555 1_555
C14 C15 1_555 1_555
C15 C16 1_555 1_555
C16 C17 1_555 1_555
C17 N2 1_555 1_555
C18 C10 1_555 1_555
C19 N3 1_555 1_555
C20 C19 1_555 1_555
C21 C20 1_555 1_555
C22 C21 1_555 1_555
C23 N3 1_555 1_555
C24 C21 1_555 1_555
C25 C24 1_555 1_555
C26 C25 1_555 1_555
C27 C25 1_555 1_555
H1 C1 1_555 1_555
H2 C2 1_555 1_555
H3 C4 1_555 1_555
H4 C5 1_555 1_555
H5 C6 1_555 1_555
H6 C6 1_555 1_555
H7 C14 1_555 1_555
H8 C16 1_555 1_555
H9 C17 1_555 1_555
H10 C18 1_555 1_555
H11 C18 1_555 1_555
H12 C19 1_555 1_555
H13 C20 1_555 1_555
H14 C22 1_555 1_555
H15 C23 1_555 1_555
H16 C24 1_555 1_555
H17 C24 1_555 1_555
H18 C13 1_555 1_555
C27B C26 1_555 1_555
C26B C27 1_555 1_555
F6B C27B 1_555 1_555
C25B C27B 1_555 1_555
F5B C26B 1_555 1_555
C24B C25B 1_555 1_555
N2C Cd1 1_555 1_555
C21B C24B 1_555 1_555
H16B C24B 1_555 1_555
H17B C24B 1_555 1_555
Cd1C N2 1_555 1_555
C20B C21B 1_555 1_555
C22B C21B 1_555 1_555
O2C Cd1C 1_555 1_555
O3C Cd1C 1_555 1_555
O4C Cd1C 1_555 1_555
O6C Cd1C 1_555 1_555
N1C Cd1C 1_555 1_555
N3C Cd1C 1_555 1_555
C19B C20B 1_555 1_555
H13B C20B 1_555 1_555
C23B C22B 1_555 1_555
H14B C22B 1_555 1_555
N5C O2C 1_555 1_555
N4C O4C 1_555 1_555
C19C N3C 1_555 1_555
C23C N3C 1_555 1_555
N3B C19B 1_555 1_555
H12B C19B 1_555 1_555
H15B C23B 1_555 1_555
O1C N5C 1_555 1_555
O5C N4C 1_555 1_555
C20C C19C 1_555 1_555
H12C C19C 1_555 1_555
C22C C23C 1_555 1_555
H15C C23C 1_555 1_555
Cd1B N3B 1_555 1_555
C21C C20C 1_555 1_555
H13C C20C 1_555 1_555
H14C C22C 1_555 1_555
C24C C21C 1_555 1_555
C25C C24C 1_555 1_555
H16C C24C 1_555 1_555
H17C C24C 1_555 1_555
C26C C25C 1_555 1_555
C27C C25C 1_555 1_555
F5C C26C 1_555 1_555
C27A C26C 1_555 1_555
F6C C27C 1_555 1_555
C26A C27C 1_555 1_555
F6A C27A 1_555 1_555
C25A C27A 1_555 1_555
F5A C26A 1_555 1_555
C24A C25A 1_555 1_555
C21A C24A 1_555 1_555
H16A C24A 1_555 1_555
H17A C24A 1_555 1_555
C20A C21A 1_555 1_555
C22A C21A 1_555 1_555
C19A C20A 1_555 1_555
H13A C20A 1_555 1_555
C23A C22A 1_555 1_555
H14A C22A 1_555 1_555
N3A C19A 1_555 1_555
H12A C19A 1_555 1_555
H15A C23A 1_555 1_555
Cd1A N3A 1_555 1_555
O6 N4 1_555 1_555
C4 C5 1_555 1_555
C11 C12 1_555 1_555
C15 C18 1_555 1_555
C22 C23 1_555 1_555
C26B C25B 1_555 1_555
O3C N5C 1_555 1_555
O6C N4C 1_555 1_555
C23B N3B 1_555 1_555
C22C C21C 1_555 1_555
C26A C25A 1_555 1_555
C23A N3A 1_555 1_555

#END
