
#######################################################################
#
#                 Cambridge Crystallographic Data Centre
#                                CCDC 
#
#######################################################################
#
# If this CIF has been generated from an entry in the Cambridge 
# Structural Database, then it will include bibliographic, chemical, 
# crystal, experimental, refinement or atomic coordinate data resulting 
# from the CCDC's data processing and validation procedures.
#
#######################################################################

data_ZAMCAR
_symmetry_cell_setting           monoclinic
_symmetry_space_group_name_H-M   'P 21/n'
_symmetry_Int_Tables_number      14
_space_group_name_Hall           '-P 2yn'
loop_
_symmetry_equiv_pos_site_id
_symmetry_equiv_pos_as_xyz
1 x,y,z
2 1/2-x,1/2+y,1/2-z
3 -x,-y,-z
4 1/2+x,1/2-y,1/2+z
_cell_length_a                   9.539(2)
_cell_length_b                   9.684(1)
_cell_length_c                   10.218(1)
_cell_angle_alpha                90
_cell_angle_beta                 106.26(1)
_cell_angle_gamma                90
_cell_volume                     906.14
loop_
_atom_site_label
_atom_site_type_symbol
_atom_site_fract_x
_atom_site_fract_y
_atom_site_fract_z
Ni1 Ni 0.0000 0.5000 0.5000
Ni2 Ni 0.0000 1.0000 0.0000
S1 S 0.1071(2) 1.1096(1) 0.1908(1)
S2 S 0.0095(2) 0.8359(1) 0.1518(1)
N1 N -0.1960(5) 0.5737(4) 0.3656(4)
N2 N -0.0714(5) 0.5583(5) 0.6689(4)
N3 N 0.2694(7) 1.1191(5) 0.5774(5)
N4 N 0.0918(5) 0.6948(4) 0.4944(4)
C1 C 0.0932(5) 0.9561(4) 0.2704(5)
C2 C 0.1417(5) 0.9333(5) 0.4097(5)
C3 C 0.2129(7) 1.0367(5) 0.5021(5)
C4 C 0.1173(5) 0.8010(5) 0.4614(4)
H1 H -0.2312 0.6499 0.4060
H2 H -0.1783 0.6029 0.2826
H3 H -0.2670 0.5024 0.3468
H4 H 0.0106 0.5840 0.7421
H5 H -0.1356 0.6356 0.6447
H6 H -0.1211 0.4840 0.6957
N1B N 0.1960(5) 0.4263(4) 0.6344(4)
H1B H 0.2312 0.3501 0.5940
H2B H 0.1783 0.3971 0.7174
H3B H 0.2670 0.4976 0.6532
N2B N 0.0714(5) 0.4417(5) 0.3311(4)
H4B H -0.0106 0.4160 0.2579
H5B H 0.1356 0.3644 0.3553
H6B H 0.1211 0.5160 0.3043
S1B S -0.1071(2) 0.8904(1) -0.1908(1)
C1B C -0.0932(5) 1.0439(4) -0.2704(5)
S2B S -0.0095(2) 1.1641(1) -0.1518(1)
C2B C -0.1417(5) 1.0667(5) -0.4097(5)
C3B C -0.2129(7) 0.9633(5) -0.5021(5)
N3B N -0.2694(7) 0.8809(5) -0.5774(5)
C4B C -0.1173(5) 1.1990(5) -0.4614(4)
N4B N -0.0918(5) 1.3052(4) -0.4944(4)
Ni1B Ni 0.0000 1.5000 -0.5000
N4B_2 N -0.0918(5) 0.3052(4) 0.5056(4)
loop_
_geom_bond_atom_site_label_1
_geom_bond_atom_site_label_2
_geom_bond_site_symmetry_1
_geom_bond_site_symmetry_2
Ni1 N1 1_555 1_555
Ni2 S1 1_555 1_555
S1 C1 1_555 1_555
S2 Ni2 1_555 1_555
N1 H1 1_555 1_555
N2 Ni1 1_555 1_555
N3 C3 1_555 1_555
N4 Ni1 1_555 1_555
C1 S2 1_555 1_555
C2 C1 1_555 1_555
C3 C2 1_555 1_555
C4 N4 1_555 1_555
H2 N1 1_555 1_555
H3 N1 1_555 1_555
H4 N2 1_555 1_555
H5 N2 1_555 1_555
H6 N2 1_555 1_555
N1B Ni1 1_555 1_555
H1B N1B 1_555 1_555
H2B N1B 1_555 1_555
H3B N1B 1_555 1_555
N2B Ni1 1_555 1_555
H4B N2B 1_555 1_555
H5B N2B 1_555 1_555
H6B N2B 1_555 1_555
S1B Ni2 1_555 1_555
C1B S1B 1_555 1_555
S2B Ni2 1_555 1_555
C2B C1B 1_555 1_555
C3B C2B 1_555 1_555
N3B C3B 1_555 1_555
C4B C2B 1_555 1_555
N4B C4B 1_555 1_555
Ni1B N4B 1_555 1_555
N4B_2 Ni1 1_555 1_555
C2 C4 1_555 1_555
C1B S2B 1_555 1_555

#END
