
#######################################################################
#
#                 Cambridge Crystallographic Data Centre
#                                CCDC 
#
#######################################################################
#
# If this CIF has been generated from an entry in the Cambridge 
# Structural Database, then it will include bibliographic, chemical, 
# crystal, experimental, refinement or atomic coordinate data resulting 
# from the CCDC's data processing and validation procedures.
#
#######################################################################

data_ZAMGID
_symmetry_cell_setting           monoclinic
_symmetry_space_group_name_H-M   'P 21/n'
_symmetry_Int_Tables_number      14
_space_group_name_Hall           '-P 2yn'
loop_
_symmetry_equiv_pos_site_id
_symmetry_equiv_pos_as_xyz
1 x,y,z
2 1/2-x,1/2+y,1/2-z
3 -x,-y,-z
4 1/2+x,1/2-y,1/2+z
_cell_length_a                   8.140(2)
_cell_length_b                   9.672(3)
_cell_length_c                   27.079(4)
_cell_angle_alpha                90
_cell_angle_beta                 94.26(2)
_cell_angle_gamma                90
_cell_volume                     2126.04
loop_
_atom_site_label
_atom_site_type_symbol
_atom_site_fract_x
_atom_site_fract_y
_atom_site_fract_z
Zn1 Zn 0.6457(1) 0.0849(1) 0.3647(1)
C1 C 0.3784(8) 0.3520(6) 0.5143(3)
C2 C 0.5194(8) 0.3088(6) 0.5404(2)
C3 C 0.6350(7) 0.2322(6) 0.5177(2)
C4 C 0.6090(6) 0.1968(5) 0.4677(2)
C5 C 0.4620(6) 0.2376(5) 0.4409(2)
C6 C 0.3481(7) 0.3170(6) 0.4647(2)
C7 C 0.2565(9) 0.4405(7) 0.5402(3)
N1 N 0.7339(5) 0.1253(5) 0.4417(2)
N2 N 0.4293(5) 0.1922(4) 0.3900(2)
C8 C 0.7706(7) -0.0138(5) 0.4603(2)
C9 C 0.8606(7) -0.0937(5) 0.4215(2)
O1 O 0.9675(5) -0.1767(5) 0.4362(2)
O2 O 0.8147(5) -0.0682(4) 0.3762(1)
C10 C 0.8864(6) 0.2082(6) 0.4409(2)
C11 C 0.8996(7) 0.2881(6) 0.3935(2)
O3 O 1.0045(5) 0.3817(5) 0.3939(2)
O4 O 0.8112(5) 0.2503(5) 0.3553(2)
C12 C 0.2882(7) 0.0966(6) 0.3845(2)
C13 C 0.3201(6) -0.0338(5) 0.3554(2)
O5 O 0.1930(5) -0.0914(4) 0.3352(2)
O6 O 0.4655(5) -0.0760(4) 0.3550(2)
C14 C 0.4092(7) 0.3061(6) 0.3535(2)
C15 C 0.4363(6) 0.2517(5) 0.3023(2)
O7 O 0.3527(5) 0.3029(4) 0.2657(1)
O8 O 0.5432(5) 0.1596(4) 0.2985(1)
Zn2 Zn 0.1513(1) -0.2911(1) 0.3051(1)
O9 O 0.1330(5) -0.3579(4) 0.3785(2)
O10 O -0.1064(5) -0.2567(5) 0.3059(2)
O11 O 0.1247(5) -0.4927(4) 0.2813(2)
O12 O 0.4076(5) -0.3239(5) 0.3074(2)
H1 H 0.54000(80) 0.33483(70) 0.57912(20)
H2 H 0.74689(78) 0.19963(64) 0.53865(24)
H3 H 0.23620(69) 0.35122(56) 0.44445(24)
H4 H 0.15293(91) 0.46533(73) 0.51445(33)
H5 H 0.31617(91) 0.53475(73) 0.55319(33)
H6 H 0.21393(91) 0.38422(73) 0.57120(33)
H7 H 0.84797(67) -0.00776(56) 0.49438(22)
H8 H 0.65729(67) -0.06633(56) 0.46695(22)
H9 H 0.88982(64) 0.28086(58) 0.47123(22)
H10 H 0.99057(64) 0.13919(58) 0.44575(22)
H11 H 0.25641(68) 0.06668(61) 0.42101(23)
H12 H 0.18574(68) 0.15071(61) 0.36565(23)
H13 H 0.28622(72) 0.34791(59) 0.35349(22)
H14 H 0.49798(72) 0.38636(59) 0.36305(22)
Zn2A Zn 0.3487(1) 0.2089(1) 0.1949(1)
O7A O 0.1473(5) -0.1971(4) 0.2343(1)
O13 O 0.6984(6) 0.9035(5) 0.2337(2)
O14 O 0.9596(6) 0.0871(5) 0.2785(2)
loop_
_geom_bond_atom_site_label_1
_geom_bond_atom_site_label_2
_geom_bond_site_symmetry_1
_geom_bond_site_symmetry_2
Zn1 N1 1_555 1_555
C1 C2 1_555 1_555
C2 C3 1_555 1_555
C3 C4 1_555 1_555
C4 C5 1_555 1_555
C5 C6 1_555 1_555
C6 C1 1_555 1_555
C7 C1 1_555 1_555
N1 C4 1_555 1_555
N2 Zn1 1_555 1_555
C8 N1 1_555 1_555
C9 C8 1_555 1_555
O1 C9 1_555 1_555
O2 Zn1 1_555 1_555
C10 N1 1_555 1_555
C11 C10 1_555 1_555
O3 C11 1_555 1_555
O4 Zn1 1_555 1_555
C12 N2 1_555 1_555
C13 C12 1_555 1_555
O5 C13 1_555 1_555
O6 Zn1 1_555 1_555
C14 N2 1_555 1_555
C15 C14 1_555 1_555
O7 C15 1_555 1_555
O8 Zn1 1_555 1_555
Zn2 O5 1_555 1_555
O9 Zn2 1_555 1_555
O10 Zn2 1_555 1_555
O11 Zn2 1_555 1_555
O12 Zn2 1_555 1_555
H1 C2 1_555 1_555
H2 C3 1_555 1_555
H3 C6 1_555 1_555
H4 C7 1_555 1_555
H5 C7 1_555 1_555
H6 C7 1_555 1_555
H7 C8 1_555 1_555
H8 C8 1_555 1_555
H9 C10 1_555 1_555
H10 C10 1_555 1_555
H11 C12 1_555 1_555
H12 C12 1_555 1_555
H13 C14 1_555 1_555
H14 C14 1_555 1_555
Zn2A O7 1_555 1_555
O7A Zn2 1_555 1_555
C5 N2 1_555 1_555
C9 O2 1_555 1_555
C11 O4 1_555 1_555
C13 O6 1_555 1_555
C15 O8 1_555 1_555

#END
