
#######################################################################
#
#                 Cambridge Crystallographic Data Centre
#                                CCDC 
#
#######################################################################
#
# If this CIF has been generated from an entry in the Cambridge 
# Structural Database, then it will include bibliographic, chemical, 
# crystal, experimental, refinement or atomic coordinate data resulting 
# from the CCDC's data processing and validation procedures.
#
#######################################################################

data_ZANQEM
_symmetry_cell_setting           orthorhombic
_symmetry_space_group_name_H-M   'P b c a'
_symmetry_Int_Tables_number      61
_space_group_name_Hall           '-P 2ac 2ab'
loop_
_symmetry_equiv_pos_site_id
_symmetry_equiv_pos_as_xyz
1 x,y,z
2 1/2-x,-y,1/2+z
3 -x,1/2+y,1/2-z
4 1/2+x,1/2-y,-z
5 -x,-y,-z
6 1/2+x,y,1/2-z
7 x,1/2-y,1/2+z
8 1/2-x,1/2+y,z
_cell_length_a                   15.2667(11)
_cell_length_b                   6.7170(4)
_cell_length_c                   30.8598(16)
_cell_angle_alpha                90
_cell_angle_beta                 90
_cell_angle_gamma                90
_cell_volume                     3164.56
loop_
_atom_site_label
_atom_site_type_symbol
_atom_site_fract_x
_atom_site_fract_y
_atom_site_fract_z
Ag1 Ag 0.32630(5) 0.68683(11) 0.122155(18)
O1 O 0.1384(4) 0.6081(9) 0.27974(18)
O2 O 0.2325(3) 0.4748(8) 0.32836(16)
O3 O 0.1274(4) 0.7200(9) 0.46953(18)
O4 O 0.2171(3) 0.6095(9) 0.41696(16)
C1 C 0.2118(6) 0.5608(13) 0.2904(2)
C2 C 0.1594(5) 0.4311(13) 0.3564(2)
H1 H 0.1715 0.3060 0.3723
H2 H 0.1065 0.4096 0.3385
C3 C 0.1415(5) 0.5929(15) 0.3883(2)
H3 H 0.1317 0.7205 0.3730
H4 H 0.0884 0.5611 0.4054
C4 C 0.1992(5) 0.6804(12) 0.4566(2)
N1 N 0.3421(4) 0.6597(11) 0.1910(2)
C5 C 0.2759(6) 0.6318(12) 0.2184(2)
H5 H 0.2174 0.6408 0.2080
C6 C 0.2907(5) 0.5899(12) 0.2618(2)
C7 C 0.3766(5) 0.5786(12) 0.2780(3)
H6 H 0.3881 0.5471 0.3074
C8 C 0.4436(5) 0.6155(12) 0.2490(3)
H7 H 0.5027 0.6141 0.2586
C9 C 0.4251(6) 0.6540(14) 0.2065(3)
H8 H 0.4723 0.6777 0.1871
C10 C 0.2811(5) 0.7043(13) 0.4833(2)
C11 C 0.2702(6) 0.7513(12) 0.5268(2)
H9 H 0.2126 0.7616 0.5382
N2 N 0.3379(5) 0.7822(10) 0.5529(2)
C12 C 0.4197(6) 0.7680(13) 0.5363(3)
H10 H 0.4682 0.7907 0.5549
C13 C 0.4354(6) 0.7217(14) 0.4934(3)
H11 H 0.4936 0.7149 0.4827
C14 C 0.3651(5) 0.6855(13) 0.4662(2)
H12 H 0.3739 0.6490 0.4367
Ag1F Ag 0.32630(5) 0.81317(11) 0.622155(18)
N2F N 0.3379(5) 0.7178(10) 0.0529(2)
B1 B 0.0651(6) 0.6709(18) 0.1252(3)
F1 F 0.0369(5) 0.8388(12) 0.1072(3)
F2 F 0.1447(5) 0.6209(11) 0.1101(3)
F3 F 0.0720(6) 0.7014(14) 0.1693(2)
F4 F 0.0034(5) 0.5200(11) 0.1204(3)
loop_
_geom_bond_atom_site_label_1
_geom_bond_atom_site_label_2
_geom_bond_site_symmetry_1
_geom_bond_site_symmetry_2
Ag1 N1 1_555 1_555
O1 C1 1_555 1_555
O2 C1 1_555 1_555
O3 C4 1_555 1_555
O4 C3 1_555 1_555
C1 C6 1_555 1_555
C2 O2 1_555 1_555
H1 C2 1_555 1_555
H2 C2 1_555 1_555
C3 C2 1_555 1_555
H3 C3 1_555 1_555
H4 C3 1_555 1_555
C4 O4 1_555 1_555
N1 C5 1_555 1_555
C5 H5 1_555 1_555
C6 C5 1_555 1_555
C7 C6 1_555 1_555
H6 C7 1_555 1_555
C8 C7 1_555 1_555
H7 C8 1_555 1_555
C9 N1 1_555 1_555
H8 C9 1_555 1_555
C10 C4 1_555 1_555
C11 C10 1_555 1_555
H9 C11 1_555 1_555
N2 C11 1_555 1_555
C12 N2 1_555 1_555
H10 C12 1_555 1_555
C13 C12 1_555 1_555
H11 C13 1_555 1_555
C14 C10 1_555 1_555
H12 C14 1_555 1_555
B1 F1 1_555 1_555
F2 B1 1_555 1_555
F3 B1 1_555 1_555
F4 B1 1_555 1_555
Ag1F N2 1_555 1_555
N2F Ag1 1_555 1_555
C8 C9 1_555 1_555
C13 C14 1_555 1_555

#END
