
#######################################################################
#
#                 Cambridge Crystallographic Data Centre
#                                CCDC 
#
#######################################################################
#
# If this CIF has been generated from an entry in the Cambridge 
# Structural Database, then it will include bibliographic, chemical, 
# crystal, experimental, refinement or atomic coordinate data resulting 
# from the CCDC's data processing and validation procedures.
#
#######################################################################

data_ZANQAI
_symmetry_cell_setting           monoclinic
_symmetry_space_group_name_H-M   'P 21/c'
_symmetry_Int_Tables_number      14
_space_group_name_Hall           '-P 2ybc'
loop_
_symmetry_equiv_pos_site_id
_symmetry_equiv_pos_as_xyz
1 x,y,z
2 -x,1/2+y,1/2-z
3 -x,-y,-z
4 x,1/2-y,1/2+z
_cell_length_a                   5.9447(3)
_cell_length_b                   18.7233(10)
_cell_length_c                   8.7548(5)
_cell_angle_alpha                90
_cell_angle_beta                 94.020(4)
_cell_angle_gamma                90
_cell_volume                     972.05
loop_
_atom_site_label
_atom_site_type_symbol
_atom_site_fract_x
_atom_site_fract_y
_atom_site_fract_z
Cd1 Cd 0.0000 0.5000 0.0000
N1 N 0.3333(4) 0.44388(15) 0.0928(3)
C1 C 0.5139(4) 0.43756(15) 0.1480(3)
Se1 Se 0.79466(5) 0.429324(18) 0.23721(4)
N2 N 0.0930(4) 0.60142(13) 0.1566(3)
O1 O 0.5790(6) 0.72219(18) 0.5227(4)
C2 C 0.2729(5) 0.60423(17) 0.2585(3)
H1 H 0.3604 0.5633 0.2736
C3 C 0.3348(5) 0.66449(16) 0.3420(4)
C4 C 0.2032(6) 0.72501(18) 0.3206(5)
H2 H 0.2402 0.7666 0.3746
C5 C 0.0168(7) 0.72283(19) 0.2183(5)
H3 H -0.0757 0.7626 0.2034
C6 C -0.0302(6) 0.66083(17) 0.1387(4)
H4 H -0.1548 0.6602 0.0683
C7 C 0.5372(6) 0.6672(2) 0.4547(4)
C8 C 0.6815(6) 0.6032(2) 0.4794(4)
H5 H 0.8070 0.6144 0.5503
H6 H 0.7360 0.5884 0.3837
H7 H 0.5951 0.5653 0.5202
Cd1_2 Cd -1.0000 0.5000 0.0000
Cd1_3 Cd 1.0000 0.5000 0.0000
N1B N -0.3333(4) 0.55612(15) -0.0928(3)
C1B C -0.5139(4) 0.56244(15) -0.1480(3)
Se1B Se -0.79466(5) 0.570676(18) -0.23721(4)
Se1_2 Se -0.20534(5) 0.429324(18) 0.23721(4)
Se1B_2 Se 0.20534(5) 0.570676(18) -0.23721(4)
N2B N -0.0930(4) 0.39858(13) -0.1566(3)
O1B O -0.5790(6) 0.27781(18) -0.5227(4)
C2B C -0.2729(5) 0.39577(17) -0.2585(3)
H1B H -0.3604 0.4367 -0.2736
C3B C -0.3348(5) 0.33551(16) -0.3420(4)
C4B C -0.2032(6) 0.27499(18) -0.3206(5)
H2B H -0.2402 0.2334 -0.3746
C5B C -0.0168(7) 0.27717(19) -0.2183(5)
H3B H 0.0757 0.2374 -0.2034
C6B C 0.0302(6) 0.33917(17) -0.1387(4)
H4B H 0.1548 0.3398 -0.0683
C7B C -0.5372(6) 0.3328(2) -0.4547(4)
C8B C -0.6815(6) 0.3968(2) -0.4794(4)
H5B H -0.8070 0.3856 -0.5503
H6B H -0.7360 0.4116 -0.3837
H7B H -0.5951 0.4347 -0.5202
loop_
_geom_bond_atom_site_label_1
_geom_bond_atom_site_label_2
_geom_bond_site_symmetry_1
_geom_bond_site_symmetry_2
Cd1 N1 1_555 1_555
N1 C1 1_555 1_555
C1 Se1 1_555 1_555
Se1 Cd1_3 1_555 1_555
N2 Cd1 1_555 1_555
O1 C7 1_555 1_555
C2 N2 1_555 1_555
H1 C2 1_555 1_555
C3 C2 1_555 1_555
C4 C3 1_555 1_555
H2 C4 1_555 1_555
C5 C4 1_555 1_555
H3 C5 1_555 1_555
C6 N2 1_555 1_555
H4 C6 1_555 1_555
C7 C3 1_555 1_555
C8 C7 1_555 1_555
H5 C8 1_555 1_555
H6 C8 1_555 1_555
H7 C8 1_555 1_555
Cd1_2 Se1B 1_555 1_555
N1B Cd1 1_555 1_555
C1B N1B 1_555 1_555
Se1B C1B 1_555 1_555
Se1_2 Cd1 1_555 1_555
Se1B_2 Cd1 1_555 1_555
N2B Cd1 1_555 1_555
O1B C7B 1_555 1_555
C2B N2B 1_555 1_555
H1B C2B 1_555 1_555
C3B C2B 1_555 1_555
C4B C3B 1_555 1_555
H2B C4B 1_555 1_555
C5B C4B 1_555 1_555
H3B C5B 1_555 1_555
C6B N2B 1_555 1_555
H4B C6B 1_555 1_555
C7B C3B 1_555 1_555
C8B C7B 1_555 1_555
H5B C8B 1_555 1_555
H6B C8B 1_555 1_555
H7B C8B 1_555 1_555
C5 C6 1_555 1_555
C5B C6B 1_555 1_555

#END
