
#######################################################################
#
#                 Cambridge Crystallographic Data Centre
#                                CCDC 
#
#######################################################################
#
# If this CIF has been generated from an entry in the Cambridge 
# Structural Database, then it will include bibliographic, chemical, 
# crystal, experimental, refinement or atomic coordinate data resulting 
# from the CCDC's data processing and validation procedures.
#
#######################################################################

data_ZANSUE
_symmetry_cell_setting           orthorhombic
_symmetry_space_group_name_H-M   'P n a 21'
_symmetry_Int_Tables_number      33
_space_group_name_Hall           'P 2c -2n'
loop_
_symmetry_equiv_pos_site_id
_symmetry_equiv_pos_as_xyz
1 x,y,z
2 -x,-y,1/2+z
3 1/2-x,1/2+y,1/2+z
4 1/2+x,1/2-y,z
_cell_length_a                   6.8437(3)
_cell_length_b                   13.3207(5)
_cell_length_c                   17.9045(7)
_cell_angle_alpha                90
_cell_angle_beta                 90
_cell_angle_gamma                90
_cell_volume                     1632.23
loop_
_atom_site_label
_atom_site_type_symbol
_atom_site_fract_x
_atom_site_fract_y
_atom_site_fract_z
Ce1 Ce 0.48574(3) 0.464973(17) 0.49983(4)
O1 O 0.5984(6) 0.2872(3) 0.5134(2)
O2 O 0.6815(6) 0.1363(3) 0.4705(2)
O3 O 0.5476(11) 0.0845(5) 0.1892(4)
O4 O 0.6142(9) 0.2190(4) 0.1212(3)
O5 O 0.4457(8) 0.5584(3) 0.2552(3)
O6 O 0.4253(7) 0.5458(3) 0.3787(2)
O7 O 0.3428(7) 0.4311(4) 0.6266(3)
H1 H 0.4322 0.4136 0.6560
H2 H 0.2597 0.3850 0.6233
O8 O 0.7604(7) 0.4543(3) 0.5942(3)
H3 H 0.7783 0.5110 0.6135
H4 H 0.8633 0.4356 0.5727
O9 O 0.1808(6) 0.5787(4) 0.5174(3)
H5 H 0.1733 0.6194 0.4817
H6 H 0.1907 0.6105 0.5577
O10 O 0.5804(7) 0.6370(3) 0.5462(3)
H7 H 0.5090 0.6528 0.5826
H8 H 0.6977 0.6360 0.5600
O11 O 0.8185(7) 0.5032(4) 0.4421(3)
H9 H 0.8272 0.5650 0.4335
H10 H 0.8305 0.4712 0.4019
N1 N 0.5422(7) 0.3589(3) 0.3789(3)
C1 C 0.6225(7) 0.2232(4) 0.4618(3)
C2 C 0.5789(8) 0.2597(4) 0.3837(3)
C3 C 0.5835(8) 0.1987(4) 0.3213(4)
H19 H 0.6024 0.1298 0.3262
C4 C 0.5595(8) 0.2415(4) 0.2508(3)
C5 C 0.5308(8) 0.3449(4) 0.2457(3)
H20 H 0.5228 0.3763 0.1994
C6 C 0.5142(7) 0.4002(4) 0.3112(3)
C7 C 0.4583(8) 0.5113(4) 0.3140(3)
C8 C 0.5716(9) 0.1763(5) 0.1811(4)
Ce1C Ce 0.98574(3) 0.035027(17) 0.49983(4)
O2C O 0.1815(6) 0.3637(3) 0.4705(2)
O12 O 1.0103(8) 0.3123(4) 0.6438(3)
H11 H 1.0118 0.2610 0.6165
H12 H 0.9898 0.2961 0.6884
O13 O 0.9175(12) 0.5539(6) 0.2974(4)
H13 H 0.9540 0.5066 0.2697
H14 H 1.0053 0.5977 0.3007
O14 O 0.2199(9) 0.7304(5) 0.2708(4)
H15 H 0.3388 0.7149 0.2686
H16 H 0.1979 0.7848 0.2931
O15 O 0.1128(17) 0.7295(6) 0.4192(5)
H17 H 0.1622 0.7812 0.4383
H18 H -0.0087 0.7384 0.4195
loop_
_geom_bond_atom_site_label_1
_geom_bond_atom_site_label_2
_geom_bond_site_symmetry_1
_geom_bond_site_symmetry_2
Ce1 O1 1_555 1_555
O1 C1 1_555 1_555
O2 C1 1_555 1_555
O3 C8 1_555 1_555
O4 C8 1_555 1_555
O5 C7 1_555 1_555
O6 Ce1 1_555 1_555
O7 Ce1 1_555 1_555
H1 O7 1_555 1_555
H2 O7 1_555 1_555
O8 Ce1 1_555 1_555
H3 O8 1_555 1_555
H4 O8 1_555 1_555
O9 Ce1 1_555 1_555
H5 O9 1_555 1_555
H6 O9 1_555 1_555
O10 Ce1 1_555 1_555
H7 O10 1_555 1_555
H8 O10 1_555 1_555
O11 Ce1 1_555 1_555
H9 O11 1_555 1_555
H10 O11 1_555 1_555
O12 H11 1_555 1_555
H12 O12 1_555 1_555
O13 H13 1_555 1_555
H14 O13 1_555 1_555
O14 H15 1_555 1_555
H16 O14 1_555 1_555
O15 H17 1_555 1_555
H18 O15 1_555 1_555
N1 Ce1 1_555 1_555
C1 C2 1_555 1_555
C2 N1 1_555 1_555
C3 C2 1_555 1_555
H19 C3 1_555 1_555
C4 C3 1_555 1_555
C5 C4 1_555 1_555
H20 C5 1_555 1_555
C6 N1 1_555 1_555
C7 O6 1_555 1_555
C8 C4 1_555 1_555
Ce1C O2 1_555 1_555
O2C Ce1 1_555 1_555
C5 C6 1_555 1_555
C6 C7 1_555 1_555

#END
