
#######################################################################
#
#                 Cambridge Crystallographic Data Centre
#                                CCDC 
#
#######################################################################
#
# If this CIF has been generated from an entry in the Cambridge 
# Structural Database, then it will include bibliographic, chemical, 
# crystal, experimental, refinement or atomic coordinate data resulting 
# from the CCDC's data processing and validation procedures.
#
#######################################################################

data_ZAPCOI10
_symmetry_cell_setting           monoclinic
_symmetry_space_group_name_H-M   'P 21/n'
_symmetry_Int_Tables_number      14
_space_group_name_Hall           '-P 2yn'
loop_
_symmetry_equiv_pos_site_id
_symmetry_equiv_pos_as_xyz
1 x,y,z
2 1/2-x,1/2+y,1/2-z
3 -x,-y,-z
4 1/2+x,1/2-y,1/2+z
_cell_length_a                   6.4457(8)
_cell_length_b                   8.1226(8)
_cell_length_c                   46.351(3)
_cell_angle_alpha                90
_cell_angle_beta                 92.902(8)
_cell_angle_gamma                90
_cell_volume                     2423.63
loop_
_atom_site_label
_atom_site_type_symbol
_atom_site_fract_x
_atom_site_fract_y
_atom_site_fract_z
P1 P -0.5000(2) -0.0795(2) 0.1764(1)
P2 P -0.1560(2) 0.0114(1) 0.0486(1)
Na1 Na -0.3446(3) -0.3522(2) 0.0170(1)
Na2 Na 0.3235(2) -0.0178(2) 0.0213(1)
O1 O 0.0492(4) -0.0800(4) 0.0474(1)
O2 O -0.3254(4) -0.0575(4) 0.0279(1)
O3 O -0.1260(4) 0.1979(4) 0.0445(1)
O4 O -0.2801(6) -0.2684(5) -0.0314(1)
O5 O -0.6892(5) -0.3504(4) 0.0015(1)
O6 O -0.0119(5) -0.3931(5) 0.0381(1)
C1 C -0.5810(7) -0.2969(6) 0.1754(1)
C2 C -0.4578(8) -0.4246(6) 0.1652(1)
C3 C -0.5290(9) -0.5862(7) 0.1653(1)
C4 C -0.7215(8) -0.6221(7) 0.1754(1)
C5 C -0.8427(8) -0.4980(7) 0.1855(1)
C6 C -0.7729(7) -0.3358(6) 0.1854(1)
C7 C -0.2740(7) -0.0842(6) 0.2018(1)
C8 C -0.2527(8) -0.2009(7) 0.2239(1)
C9 C -0.0936(9) -0.1899(8) 0.2452(1)
C10 C 0.0478(9) -0.0620(7) 0.2445(1)
C11 C 0.0303(9) 0.0542(7) 0.2231(1)
C12 C -0.1304(8) 0.0439(6) 0.2019(1)
C13 C -0.3831(7) -0.0539(6) 0.1413(1)
C14 C -0.5077(7) 0.0226(6) 0.1195(1)
C15 C -0.4396(7) 0.0428(6) 0.0921(1)
C16 C -0.2445(7) -0.0136(5) 0.0849(1)
C17 C -0.1191(7) -0.0891(6) 0.1067(1)
C18 C -0.1862(7) -0.1077(6) 0.1343(1)
O7 O -0.4898(6) -0.4780(5) 0.0621(1)
C19 C -0.5780(9) -0.3807(8) 0.0838(1)
H1 H -0.1640(84) -0.2643(61) -0.0362(10)
H2 H -0.3247(93) -0.3320(79) -0.0418(13)
H3 H -0.7893(90) -0.3693(71) 0.0126(12)
H4 H -0.7534(82) -0.2981(67) -0.0137(12)
H5 H -0.0134(75) -0.4448(65) 0.0538(12)
H6 H 0.0096(76) -0.3000(72) 0.0443(11)
H7 H -0.3250(8) -0.4006(6) 0.1583(1)
H8 H -0.4451(9) -0.6720(7) 0.1582(1)
H9 H -0.7698(8) -0.7326(7) 0.1755(1)
H10 H -0.9750(8) -0.5227(7) 0.1925(1)
H11 H -0.8587(7) -0.2508(6) 0.1923(1)
H12 H -0.3488(8) -0.2894(7) 0.2244(1)
H13 H -0.0820(9) -0.2698(8) 0.2602(1)
H14 H 0.1575(9) -0.0547(7) 0.2589(1)
H15 H 0.1277(9) 0.1418(7) 0.2227(1)
H16 H -0.1422(8) 0.1257(6) 0.1873(1)
H17 H -0.6418(7) 0.0612(6) 0.1238(1)
H18 H -0.5269(7) 0.0959(6) 0.0778(1)
H19 H 0.0146(7) -0.1283(6) 0.1023(1)
H20 H -0.0972(7) -0.1577(6) 0.1487(1)
H22 H -0.404(12) -0.5282(96) 0.0710(16)
H26 H -0.4667(9) -0.3313(38) 0.0961(5)
H27 H -0.6646(47) -0.4503(11) 0.0956(5)
H28 H -0.6634(47) -0.2935(29) 0.0747(1)
O4B O 0.2801(6) 0.2684(5) 0.0314(1)
O5B O -0.3108(5) -0.6496(4) -0.0015(1)
O2_2 O 0.6746(4) -0.0575(4) 0.0279(1)
O2B O 0.3254(4) 0.0575(4) -0.0279(1)
Na2_2 Na -0.6765(2) -0.0178(2) 0.0213(1)
Na2B Na -0.3235(2) 0.0178(2) -0.0213(1)
Na1B Na -0.6554(3) -0.6478(2) -0.0170(1)
H1B H 0.1640(84) 0.2643(61) 0.0362(10)
H2B H 0.3247(93) 0.3320(79) 0.0418(13)
H3B H -0.2107(90) -0.6307(71) -0.0126(12)
H4B H -0.2466(82) -0.7019(67) 0.0137(12)
O8 O -0.1173(5) -0.5882(4) 0.0854(1)
C20 C -0.0384(9) -0.6283(7) 0.1135(1)
H21 H -0.1108(79) -0.6713(19) 0.0747(3)
H23 H 0.0997(25) -0.6777(41) 0.1124(1)
H24 H -0.1318(31) -0.7068(35) 0.1222(3)
H25 H -0.0283(53) -0.5282(10) 0.1253(3)
loop_
_geom_bond_atom_site_label_1
_geom_bond_atom_site_label_2
_geom_bond_site_symmetry_1
_geom_bond_site_symmetry_2
P1 C1 1_555 1_555
P2 O1 1_555 1_555
Na1 O2 1_555 1_555
Na2 O1 1_555 1_555
O2 P2 1_555 1_555
O3 P2 1_555 1_555
O4 Na1 1_555 1_555
O5 Na1 1_555 1_555
O6 Na1 1_555 1_555
C1 C2 1_555 1_555
C2 C3 1_555 1_555
C3 C4 1_555 1_555
C4 C5 1_555 1_555
C5 C6 1_555 1_555
C6 C1 1_555 1_555
C7 P1 1_555 1_555
C8 C7 1_555 1_555
C9 C8 1_555 1_555
C10 C9 1_555 1_555
C11 C10 1_555 1_555
C12 C7 1_555 1_555
C13 P1 1_555 1_555
C14 C13 1_555 1_555
C15 C14 1_555 1_555
C16 P2 1_555 1_555
C17 C16 1_555 1_555
C18 C13 1_555 1_555
O7 Na1 1_555 1_555
O8 C20 1_555 1_555
C19 O7 1_555 1_555
C20 H23 1_555 1_555
H1 O4 1_555 1_555
H2 O4 1_555 1_555
H3 O5 1_555 1_555
H4 O5 1_555 1_555
H5 O6 1_555 1_555
H6 O6 1_555 1_555
H7 C2 1_555 1_555
H8 C3 1_555 1_555
H9 C4 1_555 1_555
H10 C5 1_555 1_555
H11 C6 1_555 1_555
H12 C8 1_555 1_555
H13 C9 1_555 1_555
H14 C10 1_555 1_555
H15 C11 1_555 1_555
H16 C12 1_555 1_555
H17 C14 1_555 1_555
H18 C15 1_555 1_555
H19 C17 1_555 1_555
H20 C18 1_555 1_555
H21 O8 1_555 1_555
H22 O7 1_555 1_555
H24 C20 1_555 1_555
H25 C20 1_555 1_555
H26 C19 1_555 1_555
H27 C19 1_555 1_555
H28 C19 1_555 1_555
O4B Na2 1_555 1_555
O5B Na1 1_555 1_555
O2_2 Na2 1_555 1_555
O2B Na2 1_555 1_555
Na2_2 O2 1_555 1_555
Na2B O2 1_555 1_555
Na1B O5 1_555 1_555
H1B O4B 1_555 1_555
H2B O4B 1_555 1_555
H3B O5B 1_555 1_555
H4B O5B 1_555 1_555
O4 Na2B 1_555 1_555
C11 C12 1_555 1_555
C15 C16 1_555 1_555
C17 C18 1_555 1_555
O5B Na1B 1_555 1_555

#END
