
#######################################################################
#
#                 Cambridge Crystallographic Data Centre
#                                CCDC 
#
#######################################################################
#
# If this CIF has been generated from an entry in the Cambridge 
# Structural Database, then it will include bibliographic, chemical, 
# crystal, experimental, refinement or atomic coordinate data resulting 
# from the CCDC's data processing and validation procedures.
#
#######################################################################

data_ZAQMEJ
_symmetry_cell_setting           triclinic
_symmetry_space_group_name_H-M   'P -1'
_symmetry_Int_Tables_number      2
_space_group_name_Hall           '-P 1'
loop_
_symmetry_equiv_pos_site_id
_symmetry_equiv_pos_as_xyz
1 x,y,z
2 -x,-y,-z
_cell_length_a                   12.501(3)
_cell_length_b                   18.154(4)
_cell_length_c                   18.474(4)
_cell_angle_alpha                117.80(3)
_cell_angle_beta                 96.40(3)
_cell_angle_gamma                102.20(3)
_cell_volume                     3516.31
loop_
_atom_site_label
_atom_site_type_symbol
_atom_site_fract_x
_atom_site_fract_y
_atom_site_fract_z
Ca1 Ca 0.1180(3) 0.1005(3) 0.0647(2)
Ca2 Ca -0.3916(3) 0.0886(3) 0.0064(3)
O1 O -0.3005(11) 0.0690(8) 0.1157(7)
O2 O 0.1667(11) 0.0456(8) -0.0698(8)
P1 P -0.0059(5) 0.1756(5) 0.2488(3)
O3 O 0.0521(13) 0.1497(10) 0.1845(9)
O4 O -0.1149(13) 0.1939(9) 0.2365(8)
C1 C 0.0710(24) 0.2336(17) 0.3495(17)
C2 C -0.0294(37) 0.2050(27) 0.4461(26)
C3 C 0.0086(22) 0.2714(16) 0.4219(15)
C4 C 0.0827(37) 0.3562(28) 0.5104(26)
C5 C 0.0476(29) 0.3240(22) 0.5679(22)
C6 C 0.1105(36) 0.2549(27) 0.5633(27)
C7 C 0.0693(36) 0.1743(27) 0.4799(26)
C8 C -0.0767(27) 0.2496(21) 0.5241(21)
C9 C 0.2147(34) 0.3776(26) 0.5262(25)
C10 C 0.0239(30) 0.4237(23) 0.5337(22)
P2 P 0.2606(9) 0.3005(5) 0.0664(5)
O5 O 0.1762(15) 0.2325(11) 0.0664(10)
O6 O 0.2989(18) 0.2865(13) -0.0118(13)
C11 C 0.2566(26) 0.4058(19) 0.1166(19)
C12 C 0.1312(50) 0.4874(38) 0.1978(38)
C13 C 0.2081(38) 0.4285(28) 0.1978(29)
C14 C 0.2842(47) 0.4859(36) 0.2820(34)
C15 C 0.2198(33) 0.5499(25) 0.3288(23)
C16 C 0.2493(53) 0.6177(36) 0.2998(37)
C17 C 0.2066(46) 0.5721(35) 0.2042(34)
C18 C 0.0919(38) 0.5076(31) 0.2793(31)
C19 C 0.4064(50) 0.5313(37) 0.2965(37)
C20 C 0.2542(51) 0.4370(39) 0.3279(39)
P3 P -0.5726(6) 0.1250(4) -0.1339(4)
O7 O -0.6752(14) 0.1473(9) -0.1062(9)
O8 O -0.5202(13) 0.0817(9) -0.0992(9)
C21 C -0.5989(21) 0.0684(15) -0.2454(14)
C22 C -0.5989(33) 0.2045(24) -0.2630(25)
C23 C -0.6562(22) 0.1110(16) -0.2879(15)
C24 C -0.6808(31) 0.0621(22) -0.3870(20)
C25 C -0.6419(31) 0.1385(23) -0.4013(22)
C26 C -0.5064(36) 0.1597(29) -0.3772(27)
C27 C -0.4764(33) 0.2065(25) -0.2777(25)
C28 C -0.6616(35) 0.2227(25) -0.3245(25)
C29 C -0.6330(29) -0.0133(21) -0.4309(21)
C30 C -0.8086(31) 0.0341(24) -0.4194(23)
P4 P -0.2206(6) 0.3055(4) 0.1523(4)
O9 O -0.3296(14) 0.2347(10) 0.1050(10)
O10 O -0.1604(17) 0.3170(12) 0.2368(12)
C31 C -0.2256(23) 0.4137(17) 0.1792(16)
C32 C -0.2680(39) 0.3643(29) 0.0134(27)
C33 C -0.2942(29) 0.4097(23) 0.0989(22)
C34 C -0.3082(40) 0.5039(29) 0.1210(29)
C35 C -0.2974(31) 0.4991(23) 0.0399(24)
C36 C -0.1610(34) 0.5112(29) 0.0427(28)
C37 C -0.1419(43) 0.4269(33) 0.0362(34)
C38 C -0.3360(31) 0.3972(23) -0.0357(22)
C39 C -0.2267(29) 0.5849(22) 0.1975(21)
C40 C -0.4325(35) 0.4972(25) 0.1114(25)
P5 P -0.1183(6) 0.1034(5) -0.0469(4)
O11 O -0.2303(17) 0.1071(11) -0.0366(10)
O12 O -0.0655(11) 0.0497(8) -0.0216(7)
C41 C -0.1050(27) 0.0691(20) -0.1522(19)
C42 C -0.0572(43) 0.2181(30) -0.1532(31)
C43 C -0.1493(32) 0.1229(25) -0.1882(24)
C44 C -0.1695(53) 0.0735(37) -0.2876(32)
C45 C -0.1505(45) 0.1528(35) -0.3001(33)
C46 C -0.0234(48) 0.1637(37) -0.2808(37)
C47 C 0.0502(50) 0.1983(41) -0.1879(39)
C48 C -0.1224(59) 0.2410(41) -0.2125(40)
C49 C -0.0950(51) 0.0144(39) -0.3242(38)
C50 C -0.2953(54) 0.0519(40) -0.3098(40)
P6 P -0.5840(5) 0.1347(5) 0.1290(4)
O13 O -0.5483(11) 0.0661(8) 0.0641(8)
O14 O 0.2951(17) 0.1148(11) 0.1285(10)
C51 C -0.4996(23) 0.1628(17) 0.2280(17)
C52 C -0.5305(60) 0.3103(37) 0.3139(41)
C53 C -0.5347(32) 0.2212(26) 0.3015(24)
C54 C -0.4644(46) 0.2386(35) 0.3930(31)
C55 C -0.4415(45) 0.3358(34) 0.4453(31)
C56 C -0.3333(50) 0.3508(42) 0.4062(41)
C57 C -0.4049(59) 0.3720(45) 0.3475(44)
C58 C -0.5497(49) 0.3544(39) 0.4117(40)
C59 C -0.3514(51) 0.2144(40) 0.3851(39)
C60 C -0.5658(47) 0.2152(36) 0.4282(35)
O12A O 0.0655(11) -0.0497(8) 0.0216(7)
Ca1A Ca -0.1180(3) -0.1005(3) -0.0647(2)
O13A O -0.4517(11) -0.0661(8) -0.0641(8)
Ca2A Ca -0.6084(3) -0.0886(3) -0.0064(3)
O14_2 O -0.7049(17) 0.1148(11) 0.1285(10)
P6_2 P 0.4160(5) 0.1347(5) 0.1290(4)
P5A P 0.1183(6) -0.1034(5) 0.0469(4)
O2A O -0.1667(11) -0.0456(8) 0.0698(8)
O3A O -0.0521(13) -0.1497(10) -0.1845(9)
O5A O -0.1762(15) -0.2325(11) -0.0664(10)
O14A O -0.2951(17) -0.1148(11) -0.1285(10)
P6A P -0.4160(5) -0.1347(5) -0.1290(4)
O1A O -0.6995(11) -0.0690(8) -0.1157(7)
O8A O -0.4798(13) -0.0817(9) 0.0992(9)
O9A O -0.6704(14) -0.2347(10) -0.1050(10)
O11A O -0.7697(17) -0.1071(11) 0.0366(10)
O11A_2 O 0.2303(17) -0.1071(11) 0.0366(10)
C41A C 0.1050(27) -0.0691(20) 0.1522(19)
P1A P 0.0059(5) -0.1756(5) -0.2488(3)
P2A P -0.2606(9) -0.3005(5) -0.0664(5)
C51A C -0.5004(23) -0.1628(17) -0.2280(17)
P3A P -0.4274(6) -0.1250(4) 0.1339(4)
P4A P -0.7794(6) -0.3055(4) -0.1523(4)
P5A_2 P -0.8817(6) -0.1034(5) 0.0469(4)
C43A C 0.1493(32) -0.1229(25) 0.1882(24)
O4A O 0.1149(13) -0.1939(9) -0.2365(8)
C1A C -0.0710(24) -0.2336(17) -0.3495(17)
O6A O -0.2989(18) -0.2865(13) 0.0118(13)
C11A C -0.2566(26) -0.4058(19) -0.1166(19)
C53A C -0.4653(32) -0.2212(26) -0.3015(24)
O7A O -0.3248(14) -0.1473(9) 0.1062(9)
C21A C -0.4011(21) -0.0684(15) 0.2454(14)
O10A O -0.8396(17) -0.3170(12) -0.2368(12)
C31A C -0.7744(23) -0.4137(17) -0.1792(16)
C42A C 0.0572(43) -0.2181(30) 0.1532(31)
C44A C 0.1695(53) -0.0735(37) 0.2876(32)
C3A C -0.0086(22) -0.2714(16) -0.4219(15)
C13A C -0.2081(38) -0.4285(28) -0.1978(29)
C52A C -0.4695(60) -0.3103(37) -0.3139(41)
C54A C -0.5356(46) -0.2386(35) -0.3930(31)
C23A C -0.3438(22) -0.1110(16) 0.2879(15)
C33A C -0.7058(29) -0.4097(23) -0.0989(22)
C47A C -0.0502(50) -0.1983(41) 0.1879(39)
C48A C 0.1224(59) -0.2410(41) 0.2125(40)
C45A C 0.1505(45) -0.1528(35) 0.3001(33)
C49A C 0.0950(51) -0.0144(39) 0.3242(38)
C50A C 0.2953(54) -0.0519(40) 0.3098(40)
C2A C 0.0294(37) -0.2050(27) -0.4461(26)
C4A C -0.0827(37) -0.3562(28) -0.5104(26)
C12A C -0.1312(50) -0.4874(38) -0.1978(38)
C14A C -0.2842(47) -0.4859(36) -0.2820(34)
C57A C -0.5951(59) -0.3720(45) -0.3475(44)
C58A C -0.4503(49) -0.3544(39) -0.4117(40)
C55A C -0.5585(45) -0.3358(34) -0.4453(31)
C59A C -0.6486(51) -0.2144(40) -0.3851(39)
C60A C -0.4342(47) -0.2152(36) -0.4282(35)
C22A C -0.4011(33) -0.2045(24) 0.2630(25)
C24A C -0.3192(31) -0.0621(22) 0.3870(20)
C32A C -0.7320(39) -0.3643(29) -0.0134(27)
C34A C -0.6918(40) -0.5039(29) -0.1210(29)
C46A C 0.0234(48) -0.1637(37) 0.2808(37)
C7A C -0.0693(36) -0.1743(27) -0.4799(26)
C8A C 0.0767(27) -0.2496(21) -0.5241(21)
C5A C -0.0476(29) -0.3240(22) -0.5679(22)
C9A C -0.2147(34) -0.3776(26) -0.5262(25)
C10A C -0.0239(30) -0.4237(23) -0.5337(22)
C17A C -0.2066(46) -0.5721(35) -0.2042(34)
C18A C -0.0919(38) -0.5076(31) -0.2793(31)
C15A C -0.2198(33) -0.5499(25) -0.3288(23)
C19A C -0.4064(50) -0.5313(37) -0.2965(37)
C20A C -0.2542(51) -0.4370(39) -0.3279(39)
C56A C -0.6667(50) -0.3508(42) -0.4062(41)
C27A C -0.5236(33) -0.2065(25) 0.2777(25)
C28A C -0.3384(35) -0.2227(25) 0.3245(25)
C25A C -0.3581(31) -0.1385(23) 0.4013(22)
C29A C -0.3670(29) 0.0133(21) 0.4309(21)
C30A C -0.1914(31) -0.0341(24) 0.4194(23)
C37A C -0.8581(43) -0.4269(33) -0.0362(34)
C38A C -0.6640(31) -0.3972(23) 0.0357(22)
C35A C -0.7026(31) -0.4991(23) -0.0399(24)
C39A C -0.7733(29) -0.5849(22) -0.1975(21)
C40A C -0.5675(35) -0.4972(25) -0.1114(25)
C6A C -0.1105(36) -0.2549(27) -0.5633(27)
C16A C -0.2493(53) -0.6177(36) -0.2998(37)
C26A C -0.4936(36) -0.1597(29) 0.3772(27)
C36A C -0.8390(34) -0.5112(29) -0.0427(28)
loop_
_geom_bond_atom_site_label_1
_geom_bond_atom_site_label_2
_geom_bond_site_symmetry_1
_geom_bond_site_symmetry_2
Ca1 O2 1_555 1_555
Ca2 O1 1_555 1_555
P1 O3 1_555 1_555
O3 Ca1 1_555 1_555
O4 P1 1_555 1_555
C1 P1 1_555 1_555
C2 C3 1_555 1_555
C3 C1 1_555 1_555
C4 C3 1_555 1_555
C5 C4 1_555 1_555
C6 C5 1_555 1_555
C7 C2 1_555 1_555
C8 C2 1_555 1_555
C9 C4 1_555 1_555
C10 C4 1_555 1_555
P2 O5 1_555 1_555
O5 Ca1 1_555 1_555
O6 P2 1_555 1_555
C11 P2 1_555 1_555
C12 C13 1_555 1_555
C13 C11 1_555 1_555
C14 C13 1_555 1_555
C15 C14 1_555 1_555
C16 C15 1_555 1_555
C17 C12 1_555 1_555
C18 C12 1_555 1_555
C19 C14 1_555 1_555
C20 C14 1_555 1_555
P3 O7 1_555 1_555
O8 Ca2 1_555 1_555
C21 P3 1_555 1_555
C22 C23 1_555 1_555
C23 C21 1_555 1_555
C24 C23 1_555 1_555
C25 C24 1_555 1_555
C26 C25 1_555 1_555
C27 C22 1_555 1_555
C28 C22 1_555 1_555
C29 C24 1_555 1_555
C30 C24 1_555 1_555
P4 O9 1_555 1_555
O9 Ca2 1_555 1_555
O10 P4 1_555 1_555
C31 P4 1_555 1_555
C32 C33 1_555 1_555
C33 C31 1_555 1_555
C34 C33 1_555 1_555
C35 C34 1_555 1_555
C36 C35 1_555 1_555
C37 C32 1_555 1_555
C38 C32 1_555 1_555
C39 C34 1_555 1_555
C40 C34 1_555 1_555
P5 O11 1_555 1_555
O11 Ca2 1_555 1_555
O12 Ca1 1_555 1_555
C41 P5 1_555 1_555
C42 C43 1_555 1_555
C43 C41 1_555 1_555
C44 C43 1_555 1_555
C45 C44 1_555 1_555
C46 C45 1_555 1_555
C47 C42 1_555 1_555
C48 C42 1_555 1_555
C49 C44 1_555 1_555
C50 C44 1_555 1_555
P6 O13 1_555 1_555
O13 Ca2 1_555 1_555
O14 Ca1 1_555 1_555
C51 P6 1_555 1_555
C52 C53 1_555 1_555
C53 C51 1_555 1_555
C54 C53 1_555 1_555
C55 C54 1_555 1_555
C56 C55 1_555 1_555
C57 C52 1_555 1_555
C58 C52 1_555 1_555
C59 C54 1_555 1_555
C60 C54 1_555 1_555
O12A Ca1 1_555 1_555
Ca1A O12 1_555 1_555
O13A Ca2 1_555 1_555
Ca2A O13 1_555 1_555
O14_2 P6 1_555 1_555
P6_2 O14 1_555 1_555
P5A O12A 1_555 1_555
O2A Ca1A 1_555 1_555
O3A Ca1A 1_555 1_555
O5A Ca1A 1_555 1_555
O14A Ca1A 1_555 1_555
P6A O13A 1_555 1_555
O1A Ca2A 1_555 1_555
O8A Ca2A 1_555 1_555
O9A Ca2A 1_555 1_555
O11A Ca2A 1_555 1_555
O11A_2 P5A 1_555 1_555
C41A P5A 1_555 1_555
P1A O3A 1_555 1_555
P2A O5A 1_555 1_555
C51A P6A 1_555 1_555
P3A O8A 1_555 1_555
P4A O9A 1_555 1_555
P5A_2 O11A 1_555 1_555
C43A C41A 1_555 1_555
O4A P1A 1_555 1_555
C1A P1A 1_555 1_555
O6A P2A 1_555 1_555
C11A P2A 1_555 1_555
C53A C51A 1_555 1_555
O7A P3A 1_555 1_555
C21A P3A 1_555 1_555
O10A P4A 1_555 1_555
C31A P4A 1_555 1_555
C42A C43A 1_555 1_555
C44A C43A 1_555 1_555
C3A C1A 1_555 1_555
C13A C11A 1_555 1_555
C52A C53A 1_555 1_555
C54A C53A 1_555 1_555
C23A C21A 1_555 1_555
C33A C31A 1_555 1_555
C47A C42A 1_555 1_555
C48A C42A 1_555 1_555
C45A C44A 1_555 1_555
C49A C44A 1_555 1_555
C50A C44A 1_555 1_555
C2A C3A 1_555 1_555
C4A C3A 1_555 1_555
C12A C13A 1_555 1_555
C14A C13A 1_555 1_555
C57A C52A 1_555 1_555
C58A C52A 1_555 1_555
C55A C54A 1_555 1_555
C59A C54A 1_555 1_555
C60A C54A 1_555 1_555
C22A C23A 1_555 1_555
C24A C23A 1_555 1_555
C32A C33A 1_555 1_555
C34A C33A 1_555 1_555
C46A C47A 1_555 1_555
C7A C2A 1_555 1_555
C8A C2A 1_555 1_555
C5A C4A 1_555 1_555
C9A C4A 1_555 1_555
C10A C4A 1_555 1_555
C17A C12A 1_555 1_555
C18A C12A 1_555 1_555
C15A C14A 1_555 1_555
C19A C14A 1_555 1_555
C20A C14A 1_555 1_555
C56A C57A 1_555 1_555
C27A C22A 1_555 1_555
C28A C22A 1_555 1_555
C25A C24A 1_555 1_555
C29A C24A 1_555 1_555
C30A C24A 1_555 1_555
C37A C32A 1_555 1_555
C38A C32A 1_555 1_555
C35A C34A 1_555 1_555
C39A C34A 1_555 1_555
C40A C34A 1_555 1_555
C6A C7A 1_555 1_555
C16A C17A 1_555 1_555
C26A C27A 1_555 1_555
C36A C37A 1_555 1_555
C5 C8 1_555 1_555
C6 C7 1_555 1_555
C15 C18 1_555 1_555
C16 C17 1_555 1_555
P3 O8 1_555 1_555
C25 C28 1_555 1_555
C26 C27 1_555 1_555
C35 C38 1_555 1_555
C36 C37 1_555 1_555
P5 O12 1_555 1_555
C45 C48 1_555 1_555
C46 C47 1_555 1_555
C55 C58 1_555 1_555
C56 C57 1_555 1_555
O12A Ca1A 1_555 1_555
O13A Ca2A 1_555 1_555
O14A P6A 1_555 1_555
C48A C45A 1_555 1_555
C45A C46A 1_555 1_555
C58A C55A 1_555 1_555
C55A C56A 1_555 1_555
C8A C5A 1_555 1_555
C5A C6A 1_555 1_555
C18A C15A 1_555 1_555
C15A C16A 1_555 1_555
C28A C25A 1_555 1_555
C25A C26A 1_555 1_555
C38A C35A 1_555 1_555
C35A C36A 1_555 1_555

#END
