
#######################################################################
#
#                 Cambridge Crystallographic Data Centre
#                                CCDC 
#
#######################################################################
#
# If this CIF has been generated from an entry in the Cambridge 
# Structural Database, then it will include bibliographic, chemical, 
# crystal, experimental, refinement or atomic coordinate data resulting 
# from the CCDC's data processing and validation procedures.
#
#######################################################################

data_ZAQYOF
_symmetry_cell_setting           monoclinic
_symmetry_space_group_name_H-M   'C 2'
_symmetry_Int_Tables_number      5
_space_group_name_Hall           'C 2y'
loop_
_symmetry_equiv_pos_site_id
_symmetry_equiv_pos_as_xyz
1 x,y,z
2 -x,y,-z
3 1/2+x,1/2+y,z
4 1/2-x,1/2+y,-z
_cell_length_a                   17.593(4)
_cell_length_b                   4.7980(10)
_cell_length_c                   9.037(2)
_cell_angle_alpha                90
_cell_angle_beta                 114.21(3)
_cell_angle_gamma                90
_cell_volume                     695.733
loop_
_atom_site_label
_atom_site_type_symbol
_atom_site_fract_x
_atom_site_fract_y
_atom_site_fract_z
V1 V 0.3167(1) 0.4083 0.4202(2)
P1 P 0.2108(1) 0.8608(5) 0.2456(3)
O1 O 0.3959(4) 0.2563(15) 0.4160(8)
O2 O 0.2896(3) 0.7049(15) 0.2478(7)
O3 O 0.2069(3) 0.7382(13) 0.4051(7)
O4 O 0.1333(4) 0.8050(14) 0.0962(8)
O5 O 0.2265(4) 1.1780(14) 0.2650(7)
N1 N 0.3947(4) 0.7210(18) 0.5870(9)
N2 N 0.6109(4) 0.8202(18) 0.9218(9)
C1 C 0.4771(5) 0.6379(23) 0.7104(11)
C2 C 0.5227(5) 0.8874(24) 0.8019(10)
H1 H 0.3637 0.7955 0.6440
H2 H 0.4041 0.8650 0.5226
H3 H 0.6493 0.8491 1.0324
H4 H 0.6407 0.7582 0.8597
H5 H 0.5707 0.6817 0.9177
H6 H 0.4698 0.5079 0.7843
H7 H 0.5087 0.5516 0.6579
H8 H 0.5275 0.9342 0.9087
H9 H 0.5664 0.9778 0.7823
O3C O 0.2931(3) 0.2382(13) 0.5949(7)
O5_2 O 0.2265(4) 0.1780(14) 0.2650(7)
V1C V 0.1833(1) 0.9083 0.5798(2)
V1_2 V 0.3167(1) 1.4083 0.4202(2)
loop_
_geom_bond_atom_site_label_1
_geom_bond_atom_site_label_2
_geom_bond_site_symmetry_1
_geom_bond_site_symmetry_2
V1 O1 1_555 1_555
P1 O2 1_555 1_555
O2 V1 1_555 1_555
O3 V1 1_555 1_555
O4 P1 1_555 1_555
O5 P1 1_555 1_555
N1 V1 1_555 1_555
N2 C2 1_555 1_555
C1 N1 1_555 1_555
C2 C1 1_555 1_555
H1 N1 1_555 1_555
H2 N1 1_555 1_555
H3 N2 1_555 1_555
H4 N2 1_555 1_555
H5 N2 1_555 1_555
H6 C1 1_555 1_555
H7 C1 1_555 1_555
H8 C2 1_555 1_555
H9 C2 1_555 1_555
O3C V1 1_555 1_555
O5_2 V1 1_555 1_555
V1C O3 1_555 1_555
V1_2 O5 1_555 1_555
P1 O3 1_555 1_555

#END
