
#######################################################################
#
#                 Cambridge Crystallographic Data Centre
#                                CCDC 
#
#######################################################################
#
# If this CIF has been generated from an entry in the Cambridge 
# Structural Database, then it will include bibliographic, chemical, 
# crystal, experimental, refinement or atomic coordinate data resulting 
# from the CCDC's data processing and validation procedures.
#
#######################################################################

data_ZARBEZ
_symmetry_cell_setting           triclinic
_symmetry_space_group_name_H-M   'P -1'
_symmetry_Int_Tables_number      2
_space_group_name_Hall           '-P 1'
loop_
_symmetry_equiv_pos_site_id
_symmetry_equiv_pos_as_xyz
1 x,y,z
2 -x,-y,-z
_cell_length_a                   12.380(2)
_cell_length_b                   14.434(2)
_cell_length_c                   9.683(3)
_cell_angle_alpha                90.36(2)
_cell_angle_beta                 105.44(2)
_cell_angle_gamma                90.75(2)
_cell_volume                     1667.61
loop_
_atom_site_label
_atom_site_type_symbol
_atom_site_fract_x
_atom_site_fract_y
_atom_site_fract_z
B1 B 0.0137(4) -0.1552(3) -0.2777(4)
N1 N -0.1155(2) -0.1540(2) -0.3303(3)
C1 C -0.1904(3) -0.1813(3) -0.2574(4)
N2 N -0.2960(3) -0.1662(2) -0.3258(3)
C2 C -0.2900(3) -0.1256(3) -0.4528(4)
C3 C -0.1810(3) -0.1173(3) -0.4563(4)
N3 N 0.0513(2) -0.2301(2) -0.1617(3)
C4 C 0.0521(3) -0.2250(3) -0.0208(4)
N4 N 0.0797(3) -0.3039(2) 0.0479(3)
C5 C 0.0973(4) -0.3634(3) -0.0547(4)
C6 C 0.0806(4) -0.3199(3) -0.1825(4)
N5 N 0.0613(2) -0.1785(2) -0.4054(3)
C7 C 0.0166(3) -0.2361(3) -0.5178(4)
N6 N 0.0844(3) -0.2521(2) -0.5996(3)
C8 C 0.1804(3) -0.2018(3) -0.5347(4)
C9 C 0.1677(3) -0.1571(3) -0.4162(4)
N7 N 0.0594(2) -0.0602(2) -0.2137(3)
C10 C 0.1600(4) -0.0425(3) -0.1181(4)
N8 N 0.1832(3) 0.0470(2) -0.0967(4)
C11 C 0.0942(4) 0.0901(3) -0.1850(4)
C12 C 0.0179(3) 0.0262(3) -0.2567(4)
B2 B -0.6492(4) -0.5282(3) -0.3227(5)
N9 N -0.6064(2) -0.4320(2) -0.2607(3)
C13 C -0.5467(3) -0.3687(3) -0.3146(4)
N10 N -0.5226(3) -0.2917(2) -0.2369(3)
C14 C -0.5698(4) -0.3071(3) -0.1252(5)
C15 C -0.6205(4) -0.3915(3) -0.1381(4)
N11 N -0.5515(2) -0.5954(2) -0.3066(3)
C16 C -0.5607(3) -0.6887(3) -0.3247(5)
N12 N -0.4634(3) -0.7304(2) -0.2997(4)
C17 C -0.3856(3) -0.6604(3) -0.2632(4)
C18 C -0.4379(3) -0.5776(3) -0.2667(4)
N13 N -0.7305(2) -0.5695(2) -0.2424(3)
C19 C -0.8438(3) -0.5739(3) -0.2865(4)
N14 N -0.8902(3) -0.6148(2) -0.1942(3)
C20 C -0.8006(4) -0.6372(3) -0.0819(4)
C21 C -0.7033(3) -0.6103(3) -0.1090(4)
N15 N -0.7139(2) -0.5162(2) -0.4810(3)
C22 C -0.7779(3) -0.4419(3) -0.5328(4)
N16 N -0.8427(3) -0.4542(2) -0.6651(3)
C23 C -0.8193(3) -0.5428(3) -0.7011(4)
C24 C -0.7409(3) -0.5819(3) -0.5905(4)
Li1 Li 0.0551(5) -0.3494(4) 0.2373(6)
Li2 Li -0.4363(5) -0.1707(4) -0.2467(7)
O1 O -0.5374(2) -0.0753(2) -0.3539(3)
O2 O -0.3816(3) -0.1266(2) -0.0475(3)
C25 C -0.4397(8) -0.1061(7) 0.0540(10)
H1 H -0.166 -0.212 -0.153
H2 H -0.361 -0.104 -0.537
H3 H -0.151 -0.087 -0.542
H4 H 0.032 -0.163 0.030
H5 H 0.121 -0.435 -0.036
H6 H 0.089 -0.350 -0.281
H7 H -0.067 -0.266 -0.538
H8 H 0.255 -0.198 -0.573
H9 H 0.229 -0.113 -0.344
H10 H 0.216 -0.096 -0.065
H11 H 0.086 0.164 -0.196
H12 H -0.061 0.041 -0.333
H13 H -0.521 -0.380 -0.412
H14 H -0.567 -0.258 -0.039
H15 H -0.664 -0.421 -0.066
H16 H -0.640 -0.725 -0.357
H17 H -0.296 -0.669 -0.236
H18 H -0.398 -0.510 -0.243
H19 H -0.892 -0.547 -0.388
H20 H -0.807 -0.672 0.014
H21 H -0.620 -0.619 -0.039
H22 H -0.776 -0.379 -0.472
H23 H -0.857 -0.577 -0.802
H24 H -0.707 -0.650 -0.589
H25 H -0.569 -0.083 -0.460
H26 H -0.499 -0.013 -0.341
H27 H -0.306 -0.097 -0.010
H28 H -0.380 -0.087 0.154
H29 H -0.495 -0.049 0.017
H30 H -0.487 -0.167 0.069
Li1_2 Li 0.0551(5) -0.3494(4) -0.7627(6)
N6_2 N 0.0844(3) -0.2521(2) 0.4004(3)
N14A N -0.1098(3) -0.3852(2) 0.1942(3)
N16_2 N 0.1573(3) -0.4542(2) 0.3349(3)
Li1A Li -1.0551(5) -0.6506(4) -0.2373(6)
Li1_3 Li -0.9449(5) -0.3494(4) -0.7627(6)
O3 O -0.4121(2) 0.0938(2) -0.3427(3)
C26 C -0.3145(4) 0.0778(3) -0.2299(5)
H31 H -0.443 0.157 -0.338
H32 H -0.338 0.042 -0.144
H33 H -0.257 0.036 -0.269
H34 H -0.274 0.143 -0.191
loop_
_geom_bond_atom_site_label_1
_geom_bond_atom_site_label_2
_geom_bond_site_symmetry_1
_geom_bond_site_symmetry_2
B1 N1 1_555 1_555
N1 C1 1_555 1_555
C1 N2 1_555 1_555
N2 C2 1_555 1_555
C2 C3 1_555 1_555
C3 N1 1_555 1_555
N3 B1 1_555 1_555
C4 N3 1_555 1_555
N4 C4 1_555 1_555
C5 N4 1_555 1_555
C6 N3 1_555 1_555
N5 B1 1_555 1_555
C7 N5 1_555 1_555
N6 C7 1_555 1_555
C8 N6 1_555 1_555
C9 N5 1_555 1_555
N7 B1 1_555 1_555
C10 N7 1_555 1_555
N8 C10 1_555 1_555
C11 N8 1_555 1_555
C12 N7 1_555 1_555
B2 N9 1_555 1_555
N9 C13 1_555 1_555
C13 N10 1_555 1_555
N10 C14 1_555 1_555
C14 C15 1_555 1_555
C15 N9 1_555 1_555
N11 B2 1_555 1_555
C16 N11 1_555 1_555
N12 C16 1_555 1_555
C17 N12 1_555 1_555
C18 N11 1_555 1_555
N13 B2 1_555 1_555
C19 N13 1_555 1_555
N14 C19 1_555 1_555
C20 N14 1_555 1_555
C21 N13 1_555 1_555
N15 B2 1_555 1_555
C22 N15 1_555 1_555
N16 C22 1_555 1_555
C23 N16 1_555 1_555
C24 N15 1_555 1_555
Li1 N4 1_555 1_555
Li2 N2 1_555 1_555
O1 Li2 1_555 1_555
O2 Li2 1_555 1_555
C25 O2 1_555 1_555
H1 C1 1_555 1_555
H2 C2 1_555 1_555
H3 C3 1_555 1_555
H4 C4 1_555 1_555
H5 C5 1_555 1_555
H6 C6 1_555 1_555
H7 C7 1_555 1_555
H8 C8 1_555 1_555
H9 C9 1_555 1_555
H10 C10 1_555 1_555
H11 C11 1_555 1_555
H12 C12 1_555 1_555
H13 C13 1_555 1_555
H14 C14 1_555 1_555
H15 C15 1_555 1_555
H16 C16 1_555 1_555
H17 C17 1_555 1_555
H18 C18 1_555 1_555
H19 C19 1_555 1_555
H20 C20 1_555 1_555
H21 C21 1_555 1_555
H22 C22 1_555 1_555
H23 C23 1_555 1_555
H24 C24 1_555 1_555
H25 O1 1_555 1_555
H26 O1 1_555 1_555
H27 O2 1_555 1_555
H28 C25 1_555 1_555
H29 C25 1_555 1_555
H30 C25 1_555 1_555
O3 C26 1_555 1_555
C26 H32 1_555 1_555
H31 O3 1_555 1_555
H33 C26 1_555 1_555
H34 C26 1_555 1_555
Li1_2 N6 1_555 1_555
N6_2 Li1 1_555 1_555
N14A Li1 1_555 1_555
N16_2 Li1 1_555 1_555
Li1A N14 1_555 1_555
Li1_3 N16 1_555 1_555
C5 C6 1_555 1_555
C8 C9 1_555 1_555
C11 C12 1_555 1_555
N10 Li2 1_555 1_555
C17 C18 1_555 1_555
C20 C21 1_555 1_555
C23 C24 1_555 1_555

#END
