
#######################################################################
#
#                 Cambridge Crystallographic Data Centre
#                                CCDC 
#
#######################################################################
#
# If this CIF has been generated from an entry in the Cambridge 
# Structural Database, then it will include bibliographic, chemical, 
# crystal, experimental, refinement or atomic coordinate data resulting 
# from the CCDC's data processing and validation procedures.
#
#######################################################################

data_ZARMUA
_symmetry_cell_setting           monoclinic
_symmetry_space_group_name_H-M   'C 2/c'
_symmetry_Int_Tables_number      15
_space_group_name_Hall           '-C 2yn'
loop_
_symmetry_equiv_pos_site_id
_symmetry_equiv_pos_as_xyz
1 x,y,z
2 -x,y,1/2-z
3 1/2+x,1/2+y,z
4 1/2-x,1/2+y,1/2-z
5 -x,-y,-z
6 x,-y,1/2+z
7 1/2-x,1/2-y,-z
8 1/2+x,1/2-y,1/2+z
_cell_length_a                   24.60(2)
_cell_length_b                   10.176(2)
_cell_length_c                   17.921(2)
_cell_angle_alpha                90
_cell_angle_beta                 98.78(6)
_cell_angle_gamma                90
_cell_volume                     4433.59
loop_
_atom_site_label
_atom_site_type_symbol
_atom_site_fract_x
_atom_site_fract_y
_atom_site_fract_z
Sr1 Sr 0.24717(1) 0.09859(3) 0.73083(2)
C1 C 0.1077(1) 0.1956(3) 0.6469(2)
O1 O 0.15858(8) 0.1950(2) 0.6601(1)
C2 C 0.0729(1) 0.0969(3) 0.6749(2)
N1 N 0.0969(1) -0.0136(3) 0.7206(1)
O2 O 0.14698(9) -0.0216(2) 0.7381(2)
O3 O 0.06617(9) -0.0954(2) 0.7416(1)
C3 C 0.0165(1) 0.0988(3) 0.6611(2)
C4 C -0.0100(1) 0.1999(3) 0.6189(2)
N2 N -0.0695(1) 0.2039(3) 0.6059(2)
O4 O -0.09440(9) 0.1167(2) 0.6347(1)
O5 O -0.09262(9) 0.2925(3) 0.5681(2)
C5 C 0.0191(1) 0.2967(3) 0.5878(2)
C6 C 0.0754(1) 0.2934(3) 0.6011(2)
N3 N 0.1029(1) 0.3965(3) 0.5639(2)
O6 O 0.1525(1) 0.4048(3) 0.5760(2)
O7 O 0.0752(1) 0.4688(3) 0.5196(2)
C7 C 0.3624(1) 0.1858(3) 0.6354(2)
O8 O 0.31292(9) 0.1780(2) 0.6422(1)
C8 C 0.4049(1) 0.0941(3) 0.6681(2)
N4 N 0.3911(1) -0.0183(3) 0.7119(2)
O9 O 0.3452(1) -0.0295(3) 0.7289(2)
O10 O 0.4270(1) -0.1004(3) 0.7311(2)
C9 C 0.4595(1) 0.1068(3) 0.6609(2)
C10 C 0.4763(1) 0.2102(3) 0.6212(2)
N5 N 0.5340(1) 0.2244(3) 0.6156(2)
C11 C 0.4388(1) 0.2987(3) 0.5847(2)
O11 O 0.56632(9) 0.1437(3) 0.6501(2)
O12 O 0.5487(1) 0.3139(3) 0.5783(1)
N6 N 0.3475(1) 0.3809(3) 0.5487(2)
O13 O 0.3022(1) 0.4010(3) 0.5654(2)
O14 O 0.3644(1) 0.4406(3) 0.4970(2)
C12 C 0.3844(1) 0.2855(3) 0.5907(2)
O15 O 0.2557(1) -0.1279(2) 0.8024(2)
O16 O 0.2095(2) 0.1691(4) 0.8537(3)
O17 O 0.2217(1) -0.0548(3) 0.6117(2)
O18 O 0.3191(1) 0.2005(3) 0.8323(2)
H1 H -0.004(1) 0.025(3) 0.682(2)
H2 H -0.002(1) 0.370(3) 0.556(2)
H3 H 0.484(1) 0.044(3) 0.687(2)
H4 H 0.450(1) 0.360(3) 0.559(2)
H5 H 0.289(2) -0.134(4) 0.827(2)
H6 H 0.235(2) -0.139(4) 0.836(2)
H7 H 0.217(4) 0.18(1) 0.887(6)
H8 H 0.178(3) 0.172(6) 0.855(3)
H9 H 0.199(2) -0.031(5) 0.581(3)
H10 H 0.244(2) -0.066(4) 0.585(2)
H11 H 0.313(2) 0.264(5) 0.850(3)
H12 H 0.356(2) 0.197(4) 0.847(2)
Sr1C Sr 0.25283(1) -0.40141(3) 0.76917(2)
O15C O 0.2443(1) 0.3721(2) 0.6976(2)
H5C H 0.211(2) 0.366(4) 0.673(2)
H6C H 0.265(2) 0.361(4) 0.664(2)
O19 O 0.2923(1) -0.1122(4) 0.5053(2)
H13 H 0.315(3) -0.174(7) 0.520(4)
H14 H 0.310(3) -0.040(8) 0.480(4)
loop_
_geom_bond_atom_site_label_1
_geom_bond_atom_site_label_2
_geom_bond_site_symmetry_1
_geom_bond_site_symmetry_2
Sr1 O1 1_555 1_555
C1 O1 1_555 1_555
C2 C1 1_555 1_555
N1 C2 1_555 1_555
O2 Sr1 1_555 1_555
O3 N1 1_555 1_555
C3 C2 1_555 1_555
C4 C3 1_555 1_555
N2 C4 1_555 1_555
O4 N2 1_555 1_555
O5 N2 1_555 1_555
C5 C4 1_555 1_555
C6 C1 1_555 1_555
N3 C6 1_555 1_555
O6 N3 1_555 1_555
O7 N3 1_555 1_555
C7 O8 1_555 1_555
O8 Sr1 1_555 1_555
C8 C7 1_555 1_555
N4 C8 1_555 1_555
O9 Sr1 1_555 1_555
O10 N4 1_555 1_555
C9 C8 1_555 1_555
C10 C9 1_555 1_555
N5 C10 1_555 1_555
C11 C10 1_555 1_555
O11 N5 1_555 1_555
O12 N5 1_555 1_555
N6 O13 1_555 1_555
O14 N6 1_555 1_555
C12 C7 1_555 1_555
O15 Sr1 1_555 1_555
O16 Sr1 1_555 1_555
O17 Sr1 1_555 1_555
O18 Sr1 1_555 1_555
H1 C3 1_555 1_555
H2 C5 1_555 1_555
H3 C9 1_555 1_555
H4 C11 1_555 1_555
H5 O15 1_555 1_555
H6 O15 1_555 1_555
H7 O16 1_555 1_555
H8 O16 1_555 1_555
H9 O17 1_555 1_555
H10 O17 1_555 1_555
H11 O18 1_555 1_555
H12 O18 1_555 1_555
O19 H13 1_555 1_555
H14 O19 1_555 1_555
Sr1C O15 1_555 1_555
O15C Sr1 1_555 1_555
H5C O15C 1_555 1_555
H6C O15C 1_555 1_555
N1 O2 1_555 1_555
C5 C6 1_555 1_555
N4 O9 1_555 1_555
C11 C12 1_555 1_555
N6 C12 1_555 1_555

#END
