
#######################################################################
#
#                 Cambridge Crystallographic Data Centre
#                                CCDC 
#
#######################################################################
#
# If this CIF has been generated from an entry in the Cambridge 
# Structural Database, then it will include bibliographic, chemical, 
# crystal, experimental, refinement or atomic coordinate data resulting 
# from the CCDC's data processing and validation procedures.
#
#######################################################################

data_ZARMAI
_symmetry_cell_setting           tetragonal
_symmetry_space_group_name_H-M   'I 4/m'
_symmetry_Int_Tables_number      87
_space_group_name_Hall           '-I 4'
loop_
_symmetry_equiv_pos_site_id
_symmetry_equiv_pos_as_xyz
1 x,y,z
2 -x,-y,z
3 -y,x,z
4 y,-x,z
5 1/2+x,1/2+y,1/2+z
6 1/2-x,1/2-y,1/2+z
7 1/2-y,1/2+x,1/2+z
8 1/2+y,1/2-x,1/2+z
9 -x,-y,-z
10 x,y,-z
11 y,-x,-z
12 -y,x,-z
13 1/2-x,1/2-y,1/2-z
14 1/2+x,1/2+y,1/2-z
15 1/2+y,1/2-x,1/2-z
16 1/2-y,1/2+x,1/2-z
_cell_length_a                   21.265(4)
_cell_length_b                   21.265(4)
_cell_length_c                   22.666(6)
_cell_angle_alpha                90
_cell_angle_beta                 90
_cell_angle_gamma                90
_cell_volume                     10249.6
loop_
_atom_site_label
_atom_site_type_symbol
_atom_site_fract_x
_atom_site_fract_y
_atom_site_fract_z
Zn1 Zn 0.66891(5) -0.18447(5) 0.87322(4)
Zn2 Zn 0.77130(8) 0.12035(7) 0.5000
O1 O 0.7508(3) 0.0530(4) 0.5618(3)
N1 N 0.6802(5) 0.1662(5) 0.5000
O2 O 0.7060(4) -0.1522(4) 0.8045(3)
O3 O 0.8320(3) -0.1739(4) 0.5592(3)
O4 O 0.7892(4) -0.2350(5) 0.6245(4)
O5 O 0.7002(4) 0.0822(5) 0.6425(4)
C1 C 0.7663(4) -0.0705(4) 0.6078(4)
H1 H 0.7835 -0.0636 0.5706
C2 C 0.7365(5) -0.0217(5) 0.6385(4)
C3 C 0.7197(5) -0.0895(5) 0.7230(4)
C4 C 0.7697(5) -0.1286(5) 0.6337(4)
C5 C 0.7486(5) -0.1371(5) 0.6911(4)
H2 H 0.7541 -0.1761 0.7089
N2 N 0.6440(4) 0.1818(3) 0.4519(3)
C6 C 0.5898(6) 0.2026(7) 0.4717(5)
H3 H 0.5564 0.2154 0.4482
C7 C 0.7139(5) -0.0314(5) 0.6970(4)
H4 H 0.6952 0.0016 0.7175
C8 C 0.7295(4) 0.0417(5) 0.6105(5)
O6 O 0.6666(5) -0.0600(6) 0.8095(4)
C9 C 0.6956(7) -0.0986(6) 0.7821(5)
C10 C 0.8009(5) -0.1816(5) 0.6046(5)
O7 O 0.8745(14) 0.0579(11) 0.5000
Zn1I Zn 0.66891(5) -0.18447(5) 0.12678(4)
Zn1L Zn 0.83109(5) -0.31553(5) 0.62678(4)
Zn1O Zn 0.68447(5) 0.16891(5) 0.62678(4)
Zn1F Zn 0.68447(5) 0.16891(5) 0.37322(4)
Zn1E Zn 0.83109(5) -0.31553(5) 0.37322(4)
Zn2B Zn 0.87965(7) -0.22870(8) 0.5000
O1I O 0.7508(3) 0.0530(4) 0.4382(3)
O2I O 0.7060(4) -0.1522(4) 0.1955(3)
O3I O 0.8320(3) -0.1739(4) 0.4408(3)
O3C O 0.8261(4) 0.1680(3) 0.5592(3)
O3J O 0.8261(4) 0.1680(3) 0.4408(3)
O4I O 0.7892(4) -0.2350(5) 0.3755(4)
O4L O 0.7108(4) -0.2650(5) 0.8755(4)
O4E O 0.7108(4) -0.2650(5) 0.1245(4)
O5I O 0.7002(4) 0.0822(5) 0.3575(4)
O5N O 0.5822(5) -0.2002(4) 0.8575(4)
O5G O 0.5822(5) -0.2002(4) 0.1425(4)
C1I C 0.7663(4) -0.0705(4) 0.3922(4)
H1I H 0.7835 -0.0636 0.4294
C2I C 0.7365(5) -0.0217(5) 0.3615(4)
C3I C 0.7197(5) -0.0895(5) 0.2770(4)
C4I C 0.7697(5) -0.1286(5) 0.3663(4)
C5I C 0.7486(5) -0.1371(5) 0.3089(4)
H2I H 0.7541 -0.1761 0.2911
N2I N 0.6440(4) 0.1818(3) 0.5481(3)
N2G N 0.6818(3) -0.1440(4) 0.9519(3)
N2N N 0.6818(3) -0.1440(4) 0.0481(3)
C6I C 0.5898(6) 0.2026(7) 0.5283(5)
H3I H 0.5564 0.2154 0.5518
C7I C 0.7139(5) -0.0314(5) 0.3030(4)
H4I H 0.6952 0.0016 0.2825
C8I C 0.7295(4) 0.0417(5) 0.3895(5)
O6I O 0.6666(5) -0.0600(6) 0.1905(4)
C9I C 0.6956(7) -0.0986(6) 0.2179(5)
C10I C 0.8009(5) -0.1816(5) 0.3954(5)
N3 N 0.5000 0.0000 0.3764(9)
C11 C 0.5293(12) 0.0540(10) 0.4118(10)
H5 H 0.5631 0.0381 0.4355
H6 H 0.4979 0.0725 0.4368
H7 H 0.5453 0.0853 0.3851
C12 C 0.5529(12) -0.0249(17) 0.3383(13)
H8 H 0.5859 -0.0407 0.3630
H9 H 0.5690 0.0084 0.3140
H10 H 0.5374 -0.0582 0.3137
C11A C 0.4707(12) -0.0540(10) 0.4118(10)
H5A H 0.4369 -0.0381 0.4355
H6A H 0.5021 -0.0725 0.4368
H7A H 0.4547 -0.0853 0.3851
C12A C 0.4471(12) 0.0249(17) 0.3383(13)
H8A H 0.4141 0.0407 0.3630
H9A H 0.4310 -0.0084 0.3140
H10A H 0.4626 0.0582 0.3137
loop_
_geom_bond_atom_site_label_1
_geom_bond_atom_site_label_2
_geom_bond_site_symmetry_1
_geom_bond_site_symmetry_2
Zn1 O2 1_555 1_555
Zn2 O1 1_555 1_555
O1 C8 1_555 1_555
N1 Zn2 1_555 1_555
O2 C9 1_555 1_555
O3 C10 1_555 1_555
O4 C10 1_555 1_555
O5 C8 1_555 1_555
C1 H1 1_555 1_555
C2 C1 1_555 1_555
C3 C5 1_555 1_555
C4 C1 1_555 1_555
C5 C4 1_555 1_555
H2 C5 1_555 1_555
N2 N1 1_555 1_555
C6 N2 1_555 1_555
H3 C6 1_555 1_555
C7 C2 1_555 1_555
H4 C7 1_555 1_555
C8 C2 1_555 1_555
O6 C9 1_555 1_555
C9 C3 1_555 1_555
C10 C4 1_555 1_555
O7 Zn2 1_555 1_555
N3 C11 1_555 1_555
C11 H5 1_555 1_555
H6 C11 1_555 1_555
H7 C11 1_555 1_555
C12 N3 1_555 1_555
H8 C12 1_555 1_555
H9 C12 1_555 1_555
H10 C12 1_555 1_555
Zn1I O2I 1_555 1_555
Zn1L O4 1_555 1_555
Zn1O O5 1_555 1_555
Zn1F N2 1_555 1_555
Zn1E O4I 1_555 1_555
Zn2B O3 1_555 1_555
O1I Zn2 1_555 1_555
O2I C9I 1_555 1_555
O3I Zn2B 1_555 1_555
O3C Zn2 1_555 1_555
O3J Zn2 1_555 1_555
O4I C10I 1_555 1_555
O4L Zn1 1_555 1_555
O4E Zn1I 1_555 1_555
O5I Zn1F 1_555 1_555
O5N Zn1 1_555 1_555
O5G Zn1I 1_555 1_555
C1I H1I 1_555 1_555
C2I C1I 1_555 1_555
C3I C5I 1_555 1_555
C4I C1I 1_555 1_555
C5I C4I 1_555 1_555
H2I C5I 1_555 1_555
N2I N1 1_555 1_555
N2G Zn1 1_555 1_555
N2N Zn1I 1_555 1_555
C6I C6 1_555 1_555
H3I C6I 1_555 1_555
C7I C2I 1_555 1_555
H4I C7I 1_555 1_555
C8I O1I 1_555 1_555
O6I C9I 1_555 1_555
C9I C3I 1_555 1_555
C10I O3I 1_555 1_555
C11A N3 1_555 1_555
H5A C11A 1_555 1_555
H6A C11A 1_555 1_555
H7A C11A 1_555 1_555
C12A N3 1_555 1_555
H8A C12A 1_555 1_555
H9A C12A 1_555 1_555
H10A C12A 1_555 1_555
C3 C7 1_555 1_555
Zn1O N2I 1_555 1_555
O5I C8I 1_555 1_555
C2I C8I 1_555 1_555
C3I C7I 1_555 1_555
C4I C10I 1_555 1_555
N2I C6I 1_555 1_555

#END
