
#######################################################################
#
#                 Cambridge Crystallographic Data Centre
#                                CCDC 
#
#######################################################################
#
# If this CIF has been generated from an entry in the Cambridge 
# Structural Database, then it will include bibliographic, chemical, 
# crystal, experimental, refinement or atomic coordinate data resulting 
# from the CCDC's data processing and validation procedures.
#
#######################################################################

data_ZARMOU
_symmetry_cell_setting           triclinic
_symmetry_space_group_name_H-M   'P -1'
_symmetry_Int_Tables_number      2
_space_group_name_Hall           '-P 1'
loop_
_symmetry_equiv_pos_site_id
_symmetry_equiv_pos_as_xyz
1 x,y,z
2 -x,-y,-z
_cell_length_a                   15.120(5)
_cell_length_b                   11.633(3)
_cell_length_c                   6.766(3)
_cell_angle_alpha                87.24(3)
_cell_angle_beta                 79.16(3)
_cell_angle_gamma                84.88(2)
_cell_volume                     1163.58
loop_
_atom_site_label
_atom_site_type_symbol
_atom_site_fract_x
_atom_site_fract_y
_atom_site_fract_z
Ba1 Ba 0.77748(1) 0.52371(1) 0.65870(3)
O1 O 0.7261(2) 0.6406(2) 1.0082(4)
C1 C 0.7341(2) 0.7460(3) 1.0212(4)
C2 C 0.6586(2) 0.8309(3) 1.0682(5)
N1 N 0.5671(2) 0.7924(3) 1.1099(4)
O2 O 0.5551(2) 0.6991(2) 1.1950(5)
O3 O 0.5069(2) 0.8565(3) 1.0614(5)
C3 C 0.6662(2) 0.9476(3) 1.0681(5)
C4 C 0.7515(3) 0.9868(3) 1.0324(5)
N2 N 0.7593(3) 1.1094(2) 1.0349(5)
O4 O 0.6918(2) 1.1749(2) 1.0654(6)
O5 O 0.8359(2) 1.1427(2) 1.0089(6)
C5 C 0.8289(2) 0.9122(3) 0.9963(5)
C6 C 0.8196(2) 0.7958(3) 0.9887(5)
N3 N 0.9028(2) 0.7208(2) 0.9503(4)
O6 O 0.9050(2) 0.6317(2) 0.8592(4)
O7 O 0.9690(2) 0.7504(3) 1.0089(5)
C7 C 0.7813(2) 0.8463(3) 0.5157(4)
O8 O 0.8038(2) 0.7411(2) 0.4997(4)
C8 C 0.6902(2) 0.8988(3) 0.5575(4)
N4 N 0.6151(2) 0.8253(2) 0.5953(4)
O9 O 0.6289(2) 0.7251(2) 0.6558(5)
O10 O 0.5412(2) 0.8660(3) 0.5700(5)
C9 C 0.6674(2) 1.0166(3) 0.5631(5)
C10 C 0.7356(2) 1.0903(3) 0.5306(5)
N5 N 0.7123(2) 1.2133(2) 0.5464(4)
O11 O 0.6334(2) 1.2498(2) 0.5570(5)
O12 O 0.7738(2) 1.2760(2) 0.5475(5)
C11 C 0.8253(2) 1.0494(3) 0.4876(5)
C12 C 0.8468(2) 0.9331(3) 0.4806(5)
N6 N 0.9421(2) 0.8937(2) 0.4360(4)
O13 O 0.9700(2) 0.8137(2) 0.5378(5)
O14 O 0.9914(2) 0.9452(2) 0.3031(4)
O15 O 0.8954(2) 0.4913(3) 0.2956(5)
O16 O 0.6763(2) 0.5060(2) 0.3608(4)
O17 O 0.6087(2) 0.4439(2) 0.8281(4)
O18 O 0.7971(2) 0.3966(2) 1.0222(4)
O19 O 0.9407(2) 0.3896(3) 0.6811(6)
H1 H 0.6134 1.0009 1.0935
H2 H 0.8878 0.9400 0.9760
H3 H 0.6053 1.0456 0.5891
H4 H 0.8720 1.1016 0.4634
H5 H 0.9492 0.5098 0.2636
H6 H 0.8850 0.4674 0.1830
H7 H 0.6244 0.4685 0.3523
H8 H 0.6776 0.5594 0.2629
H9 H 0.5951 0.4195 0.9698
H10 H 0.5928 0.3791 0.7658
H11 H 0.7906 0.3130 1.0332
H12 H 0.7470 0.4175 1.1299
H13 H 1.0000 0.3952 0.6387
H14 H 0.9531 0.3253 0.5917
O12_2 O 0.7738(2) 0.2760(2) 0.5475(5)
Ba1_2 Ba 0.77748(1) 1.52371(1) 0.65870(3)
O20 O 0.4588(2) 0.6039(3) 0.7589(5)
H15 H 0.5161 0.5841 0.7674
H16 H 0.4824 0.6729 0.7315
loop_
_geom_bond_atom_site_label_1
_geom_bond_atom_site_label_2
_geom_bond_site_symmetry_1
_geom_bond_site_symmetry_2
Ba1 O1 1_555 1_555
O1 C1 1_555 1_555
C1 C2 1_555 1_555
C2 N1 1_555 1_555
N1 O2 1_555 1_555
O3 N1 1_555 1_555
C3 C2 1_555 1_555
C4 C3 1_555 1_555
N2 C4 1_555 1_555
O4 N2 1_555 1_555
O5 N2 1_555 1_555
C5 C4 1_555 1_555
C6 C1 1_555 1_555
N3 C6 1_555 1_555
O6 Ba1 1_555 1_555
O7 N3 1_555 1_555
C7 O8 1_555 1_555
O8 Ba1 1_555 1_555
C8 C7 1_555 1_555
N4 C8 1_555 1_555
O9 Ba1 1_555 1_555
O10 N4 1_555 1_555
C9 C8 1_555 1_555
C10 C9 1_555 1_555
N5 C10 1_555 1_555
O11 N5 1_555 1_555
O12 N5 1_555 1_555
C11 C10 1_555 1_555
C12 C7 1_555 1_555
N6 C12 1_555 1_555
O13 N6 1_555 1_555
O14 N6 1_555 1_555
O15 Ba1 1_555 1_555
O16 Ba1 1_555 1_555
O17 Ba1 1_555 1_555
O18 Ba1 1_555 1_555
O19 Ba1 1_555 1_555
H1 C3 1_555 1_555
H2 C5 1_555 1_555
H3 C9 1_555 1_555
H4 C11 1_555 1_555
H5 O15 1_555 1_555
H6 O15 1_555 1_555
H7 O16 1_555 1_555
H8 O16 1_555 1_555
H9 O17 1_555 1_555
H10 O17 1_555 1_555
H11 O18 1_555 1_555
H12 O18 1_555 1_555
H13 O19 1_555 1_555
H14 O19 1_555 1_555
O20 H15 1_555 1_555
H16 O20 1_555 1_555
O12_2 Ba1 1_555 1_555
Ba1_2 O12 1_555 1_555
C5 C6 1_555 1_555
N3 O6 1_555 1_555
N4 O9 1_555 1_555
C11 C12 1_555 1_555

#END
