
#######################################################################
#
#                 Cambridge Crystallographic Data Centre
#                                CCDC 
#
#######################################################################
#
# If this CIF has been generated from an entry in the Cambridge 
# Structural Database, then it will include bibliographic, chemical, 
# crystal, experimental, refinement or atomic coordinate data resulting 
# from the CCDC's data processing and validation procedures.
#
#######################################################################

data_ZARMUA01
_symmetry_cell_setting           monoclinic
_symmetry_space_group_name_H-M   'C 2/c'
_symmetry_Int_Tables_number      15
_space_group_name_Hall           '-C 2yn'
loop_
_symmetry_equiv_pos_site_id
_symmetry_equiv_pos_as_xyz
1 x,y,z
2 -x,y,1/2-z
3 1/2+x,1/2+y,z
4 1/2-x,1/2+y,1/2-z
5 -x,-y,-z
6 x,-y,1/2+z
7 1/2-x,1/2-y,-z
8 1/2+x,1/2-y,1/2+z
_cell_length_a                   24.515(6)
_cell_length_b                   10.142(6)
_cell_length_c                   17.932(4)
_cell_angle_alpha                90
_cell_angle_beta                 98.76(2)
_cell_angle_gamma                90
_cell_volume                     4406.45
loop_
_atom_site_label
_atom_site_type_symbol
_atom_site_fract_x
_atom_site_fract_y
_atom_site_fract_z
Sr1 Sr 0.24708(2) 0.09845(6) 0.73035(3)
C1 C 0.1083(2) 0.1947(5) 0.6471(3)
O1 O 0.1594(1) 0.1940(4) 0.6605(2)
C2 C 0.0733(2) 0.0943(6) 0.6749(3)
N1 N 0.0973(2) -0.0146(5) 0.7206(3)
O2 O 0.1476(2) -0.0225(4) 0.7384(2)
O3 O 0.0664(1) -0.0967(4) 0.7417(2)
C3 C 0.0168(2) 0.0979(6) 0.6610(3)
C4 C -0.0097(2) 0.1987(6) 0.6185(3)
N2 N -0.0693(2) 0.2047(5) 0.6056(3)
O4 O -0.0942(1) 0.1162(4) 0.6344(2)
O5 O -0.0923(2) 0.2928(5) 0.5685(3)
C5 C 0.0194(2) 0.2966(5) 0.5877(3)
C6 C 0.0763(2) 0.2931(5) 0.6012(3)
N3 N 0.1037(2) 0.3961(5) 0.5642(2)
O6 O 0.1533(2) 0.4056(5) 0.5769(3)
O7 O 0.0761(2) 0.4683(4) 0.5193(2)
C7 C 0.3616(2) 0.1857(6) 0.6356(3)
O8 O 0.3121(1) 0.1783(4) 0.6430(2)
C8 C 0.4042(2) 0.0940(6) 0.6683(3)
N4 N 0.3909(2) -0.0183(5) 0.7118(3)
O9 O 0.3445(2) -0.0296(4) 0.7288(3)
O10 O 0.4268(2) -0.1002(5) 0.7317(2)
C9 C 0.4591(2) 0.1061(6) 0.6608(3)
C10 C 0.4758(2) 0.2105(6) 0.6206(3)
N5 N 0.5337(2) 0.2248(5) 0.6154(3)
C11 C 0.4382(2) 0.2995(6) 0.5847(3)
O11 O 0.5659(2) 0.1426(5) 0.6498(3)
O12 O 0.5484(2) 0.3151(5) 0.5781(2)
N6 N 0.3469(2) 0.3815(5) 0.5488(3)
O13 O 0.3016(2) 0.4017(5) 0.5656(3)
O14 O 0.3635(2) 0.4407(5) 0.4967(2)
C12 C 0.3835(2) 0.2860(5) 0.5904(3)
O15 O 0.2556(1) -0.1267(4) 0.8010(2)
O16 O 0.2093(2) 0.1691(5) 0.8516(2)
O17 O 0.2225(1) -0.0539(4) 0.6132(2)
O18 O 0.3189(2) 0.1994(4) 0.8307(2)
H1 H -0.0047 0.0282 0.6810
H2 H 0.0003 0.3664 0.5571
H3 H 0.4858 0.0401 0.6838
H4 H 0.4505 0.3711 0.5554
H5 H 0.2903 -0.1661 0.8298
H6 H 0.2311 -0.1401 0.8345
H7 H 0.2409 0.1647 0.9038
H8 H 0.1700 0.1410 0.8399
H9 H 0.1932 -0.0332 0.5770
H10 H 0.2500 -0.0782 0.5846
H11 H 0.3062 0.2827 0.8438
H12 H 0.3544 0.1926 0.8500
Sr1C Sr 0.25292(2) -0.40155(6) 0.76965(3)
O15C O 0.2444(1) 0.3733(4) 0.6990(2)
H5C H 0.2097 0.3339 0.6702
H6C H 0.2689 0.3599 0.6655
O19 O 0.2917(2) -0.1127(5) 0.5040(3)
H13 H 0.3283 -0.1600 0.5136
H14 H 0.3011 -0.0845 0.5463
loop_
_geom_bond_atom_site_label_1
_geom_bond_atom_site_label_2
_geom_bond_site_symmetry_1
_geom_bond_site_symmetry_2
Sr1 O1 1_555 1_555
C1 O1 1_555 1_555
C2 C1 1_555 1_555
N1 C2 1_555 1_555
O2 Sr1 1_555 1_555
O3 N1 1_555 1_555
C3 C2 1_555 1_555
C4 C3 1_555 1_555
N2 C4 1_555 1_555
O4 N2 1_555 1_555
O5 N2 1_555 1_555
C5 C4 1_555 1_555
C6 C1 1_555 1_555
N3 C6 1_555 1_555
O6 N3 1_555 1_555
O7 N3 1_555 1_555
C7 O8 1_555 1_555
O8 Sr1 1_555 1_555
C8 C7 1_555 1_555
N4 C8 1_555 1_555
O9 Sr1 1_555 1_555
O10 N4 1_555 1_555
C9 C8 1_555 1_555
C10 C9 1_555 1_555
N5 C10 1_555 1_555
C11 C10 1_555 1_555
O11 N5 1_555 1_555
O12 N5 1_555 1_555
N6 O13 1_555 1_555
O14 N6 1_555 1_555
C12 C7 1_555 1_555
O15 Sr1 1_555 1_555
O16 Sr1 1_555 1_555
O17 Sr1 1_555 1_555
O18 Sr1 1_555 1_555
H1 C3 1_555 1_555
H2 C5 1_555 1_555
H3 C9 1_555 1_555
H4 C11 1_555 1_555
H5 O15 1_555 1_555
H6 O15 1_555 1_555
H7 O16 1_555 1_555
H8 O16 1_555 1_555
H9 O17 1_555 1_555
H10 O17 1_555 1_555
H11 O18 1_555 1_555
H12 O18 1_555 1_555
O19 H13 1_555 1_555
H14 O19 1_555 1_555
Sr1C O15 1_555 1_555
O15C Sr1 1_555 1_555
H5C O15C 1_555 1_555
H6C O15C 1_555 1_555
N1 O2 1_555 1_555
C5 C6 1_555 1_555
N4 O9 1_555 1_555
C11 C12 1_555 1_555
N6 C12 1_555 1_555

#END
