
#######################################################################
#
#                 Cambridge Crystallographic Data Centre
#                                CCDC 
#
#######################################################################
#
# If this CIF has been generated from an entry in the Cambridge 
# Structural Database, then it will include bibliographic, chemical, 
# crystal, experimental, refinement or atomic coordinate data resulting 
# from the CCDC's data processing and validation procedures.
#
#######################################################################

data_ZARMOU01
_symmetry_cell_setting           triclinic
_symmetry_space_group_name_H-M   'P -1'
_symmetry_Int_Tables_number      2
_space_group_name_Hall           '-P 1'
loop_
_symmetry_equiv_pos_site_id
_symmetry_equiv_pos_as_xyz
1 x,y,z
2 -x,-y,-z
_cell_length_a                   6.6417(5)
_cell_length_b                   11.5885(8)
_cell_length_c                   15.0331(9)
_cell_angle_alpha                84.647(5)
_cell_angle_beta                 80.070(6)
_cell_angle_gamma                86.803(6)
_cell_volume                     1133.82
loop_
_atom_site_label
_atom_site_type_symbol
_atom_site_fract_x
_atom_site_fract_y
_atom_site_fract_z
O1 O 0.5061(4) 0.2399(2) 0.30514(18)
C1 C 0.5203(5) 0.3460(3) 0.2826(2)
C2 C 0.5612(5) 0.3990(3) 0.1904(2)
C3 C 0.5657(5) 0.5169(3) 0.1670(2)
C4 C 0.5331(5) 0.5916(3) 0.2356(2)
C5 C 0.4903(5) 0.5504(3) 0.3266(2)
C6 C 0.4851(5) 0.4333(3) 0.3475(2)
N1 N 0.6001(5) 0.3255(3) 0.1157(2)
O2 O 0.6644(4) 0.2244(2) 0.13019(19)
O3 O 0.5704(5) 0.3663(3) 0.04064(18)
N2 N 0.5504(5) 0.7143(3) 0.2122(2)
O4 O 0.5597(4) 0.7514(2) 0.13216(17)
O5 O 0.5572(5) 0.7770(2) 0.27369(19)
N3 N 0.4405(5) 0.3937(3) 0.4436(2)
O6 O 0.3051(4) 0.4462(2) 0.49168(18)
O7 O 0.5453(5) 0.3117(2) 0.47131(18)
O8 O 1.0234(4) 0.1408(2) 0.22585(17)
C7 C 1.0321(5) 0.2473(3) 0.2331(2)
C8 C 1.0766(5) 0.3326(3) 0.1565(2)
C9 C 1.0743(5) 0.4500(3) 0.1625(3)
C10 C 1.0363(6) 0.4905(3) 0.2480(3)
C11 C 1.0016(5) 0.4163(3) 0.3265(2)
C12 C 0.9971(5) 0.2992(3) 0.3180(2)
N4 N 1.1186(5) 0.2928(3) 0.0654(2)
O9 O 1.2089(5) 0.1987(2) 0.05472(19)
O10 O 1.0626(5) 0.3566(3) 0.00381(19)
N5 N 1.0392(5) 0.6134(3) 0.2553(2)
O11 O 1.0130(5) 0.6477(2) 0.3318(2)
O12 O 1.0702(5) 0.6794(3) 0.1858(2)
N6 N 0.9615(5) 0.2245(3) 0.4019(2)
O13 O 1.0188(5) 0.2578(3) 0.46903(19)
O14 O 0.8778(4) 0.1319(2) 0.40438(18)
O15 O 1.0407(4) -0.1019(2) 0.29973(19)
O16 O 0.8329(4) -0.0578(2) 0.10903(18)
O17 O 0.3639(4) 0.0013(2) 0.17670(18)
O18 O 0.3167(4) -0.0113(3) 0.39692(19)
O19 O 0.6939(5) -0.1095(3) 0.44320(19)
Ba1 Ba 0.67279(3) 0.023006(18) 0.277611(14)
H1 H 0.9801 0.4443 0.3835
H2 H 1.0990 0.5003 0.1108
H3 H 0.4645 0.6016 0.3717
H4 H 0.5913 0.5455 0.1065
H5 H 0.2808 0.0566 0.1763
H6 H 0.3675 -0.0305 0.1302
H7 H 0.7915 -0.1538 0.4539
H8 H 0.5974 -0.1521 0.4625
H9 H 1.0432 -0.1727 0.3064
H10 H 1.1396 -0.0837 0.2603
H11 H 0.9528 -0.0753 0.0900
H12 H 0.7648 -0.1089 0.0982
H15 H 0.2099 -0.0365 0.3877
H16 H 0.2830 0.0122 0.4472
O5_2 O 0.5572(5) -0.2230(2) 0.27369(19)
Ba1_2 Ba 0.67279(3) 1.023006(18) 0.277611(14)
O20 O 0.7550(5) 0.0998(3) -0.03702(19)
H13 H 0.7620 0.0594 0.0107
H14 H 0.7096 0.1656 -0.0282
loop_
_geom_bond_atom_site_label_1
_geom_bond_atom_site_label_2
_geom_bond_site_symmetry_1
_geom_bond_site_symmetry_2
O1 C1 1_555 1_555
C1 C2 1_555 1_555
C2 C3 1_555 1_555
C3 C4 1_555 1_555
C4 C5 1_555 1_555
C5 C6 1_555 1_555
C6 C1 1_555 1_555
N1 C2 1_555 1_555
O2 N1 1_555 1_555
O3 N1 1_555 1_555
N2 C4 1_555 1_555
O4 N2 1_555 1_555
O5 N2 1_555 1_555
N3 C6 1_555 1_555
O6 N3 1_555 1_555
O7 N3 1_555 1_555
O8 C7 1_555 1_555
C7 C8 1_555 1_555
C8 C9 1_555 1_555
C9 C10 1_555 1_555
C10 C11 1_555 1_555
C11 C12 1_555 1_555
C12 C7 1_555 1_555
N4 C8 1_555 1_555
O9 N4 1_555 1_555
O10 N4 1_555 1_555
N5 C10 1_555 1_555
O11 N5 1_555 1_555
O12 N5 1_555 1_555
N6 C12 1_555 1_555
O13 N6 1_555 1_555
O14 N6 1_555 1_555
O15 Ba1 1_555 1_555
O16 Ba1 1_555 1_555
O17 Ba1 1_555 1_555
O18 Ba1 1_555 1_555
O19 Ba1 1_555 1_555
O20 H13 1_555 1_555
Ba1 O1 1_555 1_555
H1 C11 1_555 1_555
H2 C9 1_555 1_555
H3 C5 1_555 1_555
H4 C3 1_555 1_555
H5 O17 1_555 1_555
H6 O17 1_555 1_555
H7 O19 1_555 1_555
H8 O19 1_555 1_555
H9 O15 1_555 1_555
H10 O15 1_555 1_555
H11 O16 1_555 1_555
H12 O16 1_555 1_555
H14 O20 1_555 1_555
H15 O18 1_555 1_555
H16 O18 1_555 1_555
O5_2 Ba1 1_555 1_555
Ba1_2 O5 1_555 1_555
O2 Ba1 1_555 1_555
O8 Ba1 1_555 1_555
O14 Ba1 1_555 1_555

#END
