
#######################################################################
#
#                 Cambridge Crystallographic Data Centre
#                                CCDC 
#
#######################################################################
#
# If this CIF has been generated from an entry in the Cambridge 
# Structural Database, then it will include bibliographic, chemical, 
# crystal, experimental, refinement or atomic coordinate data resulting 
# from the CCDC's data processing and validation procedures.
#
#######################################################################

data_ZARYUM01
_symmetry_cell_setting           monoclinic
_symmetry_space_group_name_H-M   'P 21/n'
_symmetry_Int_Tables_number      14
_space_group_name_Hall           '-P 2yn'
loop_
_symmetry_equiv_pos_site_id
_symmetry_equiv_pos_as_xyz
1 x,y,z
2 1/2-x,1/2+y,1/2-z
3 -x,-y,-z
4 1/2+x,1/2-y,1/2+z
_cell_length_a                   11.610(4)
_cell_length_b                   20.735(7)
_cell_length_c                   8.171(3)
_cell_angle_alpha                90
_cell_angle_beta                 103.10(3)
_cell_angle_gamma                90
_cell_volume                     1915.84
loop_
_atom_site_label
_atom_site_type_symbol
_atom_site_fract_x
_atom_site_fract_y
_atom_site_fract_z
Cu1 Cu 0.08876(7) -0.04856(5) 1.0688(1)
Br1 Br -0.11915(6) -0.04846(4) 1.10572(9)
S1 S 0.1021(2) -0.13057(9) 0.8855(2)
S2 S 0.2163(1) -0.03352(9) 1.3265(2)
C1 C 0.3474(6) -0.1372(3) 0.7385(10)
C2 C 0.3397(6) -0.1393(3) 0.9061(9)
C3 C 0.4257(8) -0.1082(4) 1.025(1)
C4 C 0.5174(8) -0.0770(4) 0.985(1)
C5 C 0.5232(7) -0.0729(4) 0.819(2)
C6 C 0.4394(7) -0.1031(4) 0.696(1)
C7 C 0.2644(6) -0.1739(3) 0.6052(9)
C8 C 0.1736(6) -0.1454(3) 0.4865(9)
C9 C 0.0987(7) -0.1829(4) 0.367(1)
C10 C 0.1114(8) -0.2493(4) 0.366(1)
C11 C 0.2008(7) -0.2786(3) 0.480(1)
C12 C 0.2756(6) -0.2413(4) 0.5985(9)
C13 C 0.2408(6) -0.1742(3) 0.9557(9)
C14 C -0.0041(6) -0.1925(3) 0.9069(10)
C15 C -0.0283(8) -0.2402(4) 0.766(1)
C16 C 0.1510(8) -0.0734(4) 0.4853(10)
C17 C 0.1927(8) 0.0511(4) 0.3750(10)
C18 C 0.281(1) 0.0739(7) 0.530(2)
H1 H 0.411(5) -0.110(3) 1.122(6)
H2 H 0.579(4) -0.059(3) 1.064(7)
H3 H 0.585(4) -0.055(3) 0.797(7)
H4 H 0.445(4) -0.106(2) 0.584(6)
H5 H 0.037(5) -0.167(3) 0.303(7)
H6 H 0.058(5) -0.273(3) 0.288(7)
H7 H 0.1892 -0.3230 0.4717
H8 H 0.3380 -0.2655 0.6982
H9 H 0.2326 -0.2190 0.9102
H10 H 0.2568 -0.1816 1.0789
H11 H 0.0225 -0.2172 1.0086
H12 H -0.0793 -0.1734 0.9137
H13 H -0.0862 -0.2714 0.7775
H14 H 0.0419 -0.2611 0.7561
H15 H -0.0595 -0.2171 0.6608
H16 H 0.049(5) -0.061(3) 0.470(7)
H17 H 0.180(4) -0.057(3) 0.579(6)
H18 H 0.101(5) 0.053(3) 0.387(7)
H19 H 0.1880 0.0809 0.2696
H20 H 0.367(8) 0.077(5) 0.49(1)
H21 H 0.264(6) 0.106(3) 0.552(9)
H22 H 0.244(9) 0.055(5) 0.62(1)
Cu1B Cu -0.08876(7) 0.04856(5) 0.9312(1)
Br1B Br 0.11915(6) 0.04846(4) 0.89428(9)
S2_2 S 0.2163(1) -0.03352(9) 0.3265(2)
Cu1_2 Cu 0.08876(7) -0.04856(5) 0.0688(1)
loop_
_geom_bond_atom_site_label_1
_geom_bond_atom_site_label_2
_geom_bond_site_symmetry_1
_geom_bond_site_symmetry_2
Cu1 Br1 1_555 1_555
Br1 Cu1B 1_555 1_555
S1 Cu1 1_555 1_555
S2 Cu1 1_555 1_555
C1 C2 1_555 1_555
C2 C3 1_555 1_555
C3 C4 1_555 1_555
C4 C5 1_555 1_555
C5 C6 1_555 1_555
C6 C1 1_555 1_555
C7 C1 1_555 1_555
C8 C7 1_555 1_555
C9 C8 1_555 1_555
C10 C9 1_555 1_555
C11 C10 1_555 1_555
C12 C7 1_555 1_555
C13 S1 1_555 1_555
C14 S1 1_555 1_555
C15 C14 1_555 1_555
C16 C8 1_555 1_555
C17 C18 1_555 1_555
C18 H20 1_555 1_555
H1 C3 1_555 1_555
H2 C4 1_555 1_555
H3 C5 1_555 1_555
H4 C6 1_555 1_555
H5 C9 1_555 1_555
H6 C10 1_555 1_555
H7 C11 1_555 1_555
H8 C12 1_555 1_555
H9 C13 1_555 1_555
H10 C13 1_555 1_555
H11 C14 1_555 1_555
H12 C14 1_555 1_555
H13 C15 1_555 1_555
H14 C15 1_555 1_555
H15 C15 1_555 1_555
H16 C16 1_555 1_555
H17 C16 1_555 1_555
H18 C17 1_555 1_555
H19 C17 1_555 1_555
H21 C18 1_555 1_555
H22 C18 1_555 1_555
Cu1B Br1B 1_555 1_555
Br1B Cu1 1_555 1_555
S2_2 C16 1_555 1_555
Cu1_2 S2_2 1_555 1_555
C2 C13 1_555 1_555
C11 C12 1_555 1_555
C17 S2_2 1_555 1_555

#END
