
#######################################################################
#
#                 Cambridge Crystallographic Data Centre
#                                CCDC 
#
#######################################################################
#
# If this CIF has been generated from an entry in the Cambridge 
# Structural Database, then it will include bibliographic, chemical, 
# crystal, experimental, refinement or atomic coordinate data resulting 
# from the CCDC's data processing and validation procedures.
#
#######################################################################

data_ZASBEC
_symmetry_cell_setting           monoclinic
_symmetry_space_group_name_H-M   'C 2/c'
_symmetry_Int_Tables_number      15
_space_group_name_Hall           '-C 2yn'
loop_
_symmetry_equiv_pos_site_id
_symmetry_equiv_pos_as_xyz
1 x,y,z
2 -x,y,1/2-z
3 1/2+x,1/2+y,z
4 1/2-x,1/2+y,1/2-z
5 -x,-y,-z
6 x,-y,1/2+z
7 1/2-x,1/2-y,-z
8 1/2+x,1/2-y,1/2+z
_cell_length_a                   10.408(2)
_cell_length_b                   20.925(4)
_cell_length_c                   47.922(10)
_cell_angle_alpha                90
_cell_angle_beta                 96.21(3)
_cell_angle_gamma                90
_cell_volume                     10375.6
loop_
_atom_site_label
_atom_site_type_symbol
_atom_site_fract_x
_atom_site_fract_y
_atom_site_fract_z
Co1 Co 0.87599(6) 0.48943(3) 0.134704(11)
N1 N 0.9225(5) 0.41930(17) 0.16107(7)
N2 N 1.2714(4) 0.02928(17) 0.16112(7)
O1 O 1.0249(3) 0.53747(14) 0.14763(6)
O2 O 0.8342(3) 0.55621(14) 0.10882(5)
O3 O 0.7300(3) 0.44449(14) 0.11582(6)
O4 O 0.9712(3) 0.45099(14) 0.10766(6)
O5 O 1.0252(4) 0.27051(16) 0.21468(7)
O6 O 1.0436(4) 0.12006(15) 0.21430(6)
C1 C 1.0434(6) 0.4008(3) 0.16756(11)
H1 H 1.1082 0.4228 0.1596
C2 C 1.0782(6) 0.3517(3) 0.18513(12)
H2 H 1.1649 0.3411 0.1894
C3 C 0.9831(6) 0.3174(2) 0.19660(10)
C4 C 0.8566(6) 0.3337(2) 0.18944(9)
H3 H 0.7901 0.3110 0.1964
C5 C 0.8304(6) 0.3850(2) 0.17150(10)
H4 H 0.7445 0.3961 0.1664
C6 C 0.9290(5) 0.2345(2) 0.22700(9)
H5 H 0.8807 0.2080 0.2129
H6 H 0.8692 0.2629 0.2350
C7 C 1.3201(6) 0.0471(2) 0.18614(11)
H7 H 1.4067 0.0381 0.1916
C8 C 1.2495(7) 0.0789(3) 0.20525(10)
H8 H 1.2891 0.0919 0.2226
C9 C 1.1230(6) 0.0901(2) 0.19783(9)
C10 C 1.0687(6) 0.0692(2) 0.17205(10)
H9 H 0.9811 0.0748 0.1664
C11 C 1.1474(6) 0.0400(2) 0.15487(10)
H10 H 1.1100 0.0266 0.1373
C12 C 1.1035(5) 0.1514(2) 0.23862(8)
H11 H 1.1745 0.1779 0.2339
H12 H 1.1370 0.1203 0.2526
C13 C 1.0000 0.1926(3) 0.2500
C14 C 1.0416(5) 0.5820(2) 0.12796(9)
C15 C 0.9377(6) 0.5920(2) 0.10761(9)
C16 C 0.9458(6) 0.6386(2) 0.08598(10)
C17 C 1.0618(7) 0.6699(3) 0.08664(11)
H13 H 1.0704 0.7003 0.0728
C18 C 1.1684(6) 0.6593(3) 0.10662(11)
C19 C 1.1555(6) 0.6155(2) 0.12781(10)
H14 H 1.2231 0.6088 0.1418
C20 C 0.8329(6) 0.6484(3) 0.06352(11)
C21 C 0.8607(7) 0.7024(3) 0.04314(12)
H15 H 0.8771 0.7414 0.0534
H16 H 0.7873 0.7079 0.0294
H17 H 0.9350 0.6914 0.0339
C22 C 0.7108(6) 0.6665(3) 0.07683(14)
H18 H 0.7262 0.7049 0.0876
H19 H 0.6886 0.6325 0.0889
H20 H 0.6410 0.6733 0.0623
C23 C 0.8072(7) 0.5862(3) 0.04625(12)
H21 H 0.7880 0.5520 0.0585
H22 H 0.8825 0.5754 0.0373
H23 H 0.7352 0.5926 0.0322
C24 C 1.2920(7) 0.6968(4) 0.10494(15)
C25 C 1.3268(11) 0.7052(10) 0.0772(2)
H24 H 1.3507 0.6647 0.0699
H25 H 1.3985 0.7342 0.0776
H26 H 1.2546 0.7224 0.0654
C26 C 1.3932(11) 0.6846(7) 0.1268(3)
H27 H 1.4145 0.6399 0.1270
H28 H 1.3652 0.6964 0.1445
H29 H 1.4680 0.7092 0.1236
C27 C 1.2668(13) 0.7685(5) 0.1055(4)
H30 H 1.1984 0.7792 0.0912
H31 H 1.3439 0.7911 0.1020
H32 H 1.2423 0.7804 0.1235
C28 C 0.7606(5) 0.42957(19) 0.09028(9)
C29 C 0.8938(5) 0.4306(2) 0.08670(9)
C30 C 0.9347(5) 0.4099(2) 0.06070(10)
C31 C 0.8389(6) 0.3945(2) 0.04038(10)
H33 H 0.8632 0.3820 0.0231
C32 C 0.7047(5) 0.3959(2) 0.04320(9)
C33 C 0.6676(5) 0.41261(19) 0.06899(9)
H34 H 0.5808 0.4124 0.0719
C34 C 1.0769(6) 0.4078(3) 0.05653(12)
C35 C 1.1521(7) 0.3639(3) 0.07873(14)
H35 H 1.1448 0.3805 0.0972
H36 H 1.2415 0.3625 0.0755
H37 H 1.1165 0.3216 0.0773
C36 C 1.1343(7) 0.4765(4) 0.05969(15)
H38 H 1.1270 0.4919 0.0783
H39 H 1.0876 0.5043 0.0463
H40 H 1.2237 0.4755 0.0564
C37 C 1.0927(7) 0.3827(5) 0.02697(14)
H41 H 1.0476 0.4104 0.0132
H42 H 1.0576 0.3404 0.0249
H43 H 1.1828 0.3818 0.0243
C38 C 0.6083(6) 0.3801(2) 0.01812(10)
C39 C 0.4695(6) 0.3831(3) 0.02458(12)
H44 H 0.4512 0.4251 0.0312
H45 H 0.4560 0.3522 0.0388
H46 H 0.4130 0.3739 0.0079
C40 C 0.6365(8) 0.3116(3) 0.00765(13)
H47 H 0.6251 0.2812 0.0222
H48 H 0.7238 0.3095 0.0030
H49 H 0.5779 0.3018 -0.0087
C41 C 0.6290(7) 0.4278(3) -0.00578(11)
H50 H 0.6101 0.4704 0.0000
H51 H 0.5726 0.4169 -0.0223
H52 H 0.7172 0.4257 -0.0099
Co1A Co 1.12401(6) 0.48943(3) 0.365296(11)
Co1B Co 1.37599(6) -0.01057(3) 0.134704(11)
Co1C Co 0.62401(6) -0.01057(3) 0.365296(11)
N1A N 1.0775(5) 0.41930(17) 0.33893(7)
N2A N 0.7286(4) 0.02928(17) 0.33888(7)
N2B N 0.7714(4) 0.52928(17) 0.16112(7)
N2C N 1.2286(4) 0.52928(17) 0.33888(7)
O1A O 0.9751(3) 0.53747(14) 0.35237(6)
O2A O 1.1658(3) 0.55621(14) 0.39118(5)
O3A O 1.2700(3) 0.44449(14) 0.38418(6)
O4A O 1.0288(3) 0.45099(14) 0.39234(6)
O5A O 0.9748(4) 0.27051(16) 0.28532(7)
O6A O 0.9564(4) 0.12006(15) 0.28570(6)
C1A C 0.9566(6) 0.4008(3) 0.33244(11)
H1A H 0.8918 0.4228 0.3404
C2A C 0.9218(6) 0.3517(3) 0.31487(12)
H2A H 0.8351 0.3411 0.3106
C3A C 1.0169(6) 0.3174(2) 0.30340(10)
C4A C 1.1434(6) 0.3337(2) 0.31056(9)
H3A H 1.2099 0.3110 0.3036
C5A C 1.1696(6) 0.3850(2) 0.32850(10)
H4A H 1.2555 0.3961 0.3336
C6A C 1.0710(5) 0.2345(2) 0.27300(9)
H5A H 1.1193 0.2080 0.2871
H6A H 1.1308 0.2629 0.2650
C7A C 0.6799(6) 0.0471(2) 0.31386(11)
H7A H 0.5933 0.0381 0.3084
C8A C 0.7505(7) 0.0789(3) 0.29475(10)
H8A H 0.7109 0.0919 0.2774
C9A C 0.8770(6) 0.0901(2) 0.30217(9)
C10A C 0.9313(6) 0.0692(2) 0.32795(10)
H9A H 1.0189 0.0748 0.3336
C11A C 0.8526(6) 0.0400(2) 0.34513(10)
H10A H 0.8900 0.0266 0.3627
C12A C 0.8965(5) 0.1514(2) 0.26138(8)
H11A H 0.8255 0.1779 0.2661
H12A H 0.8630 0.1203 0.2474
C14A C 0.9584(5) 0.5820(2) 0.37204(9)
C15A C 1.0623(6) 0.5920(2) 0.39239(9)
C16A C 1.0542(6) 0.6386(2) 0.41402(10)
C17A C 0.9382(7) 0.6699(3) 0.41336(11)
H13A H 0.9296 0.7003 0.4272
C18A C 0.8316(6) 0.6593(3) 0.39338(11)
C19A C 0.8445(6) 0.6155(2) 0.37219(10)
H14A H 0.7769 0.6088 0.3582
C20A C 1.1671(6) 0.6484(3) 0.43648(11)
C21A C 1.1393(7) 0.7024(3) 0.45686(12)
H15A H 1.1229 0.7414 0.4466
H16A H 1.2127 0.7079 0.4706
H17A H 1.0650 0.6914 0.4661
C22A C 1.2892(6) 0.6665(3) 0.42317(14)
H18A H 1.2738 0.7049 0.4124
H19A H 1.3114 0.6325 0.4111
H20A H 1.3590 0.6733 0.4377
C23A C 1.1928(7) 0.5862(3) 0.45375(12)
H21A H 1.2120 0.5520 0.4415
H22A H 1.1175 0.5754 0.4627
H23A H 1.2648 0.5926 0.4678
C24A C 0.7080(7) 0.6968(4) 0.39506(15)
C25A C 0.6732(11) 0.7052(10) 0.4228(2)
H24A H 0.6493 0.6647 0.4301
H25A H 0.6015 0.7342 0.4224
H26A H 0.7454 0.7224 0.4346
C26A C 0.6068(11) 0.6846(7) 0.3732(3)
H27A H 0.5855 0.6399 0.3730
H28A H 0.6348 0.6964 0.3555
H29A H 0.5320 0.7092 0.3764
C27A C 0.7332(13) 0.7685(5) 0.3945(4)
H30A H 0.8016 0.7792 0.4088
H31A H 0.6561 0.7911 0.3980
H32A H 0.7577 0.7804 0.3765
C28A C 1.2394(5) 0.42957(19) 0.40972(9)
C29A C 1.1062(5) 0.4306(2) 0.41330(9)
C30A C 1.0653(5) 0.4099(2) 0.43930(10)
C31A C 1.1611(6) 0.3945(2) 0.45962(10)
H33A H 1.1368 0.3820 0.4769
C32A C 1.2953(5) 0.3959(2) 0.45680(9)
C33A C 1.3324(5) 0.41261(19) 0.43101(9)
H34A H 1.4192 0.4124 0.4281
C34A C 0.9231(6) 0.4078(3) 0.44347(12)
C35A C 0.8479(7) 0.3639(3) 0.42127(14)
H35A H 0.8552 0.3805 0.4028
H36A H 0.7585 0.3625 0.4245
H37A H 0.8835 0.3216 0.4227
C36A C 0.8657(7) 0.4765(4) 0.44031(15)
H38A H 0.8730 0.4919 0.4217
H39A H 0.9124 0.5043 0.4537
H40A H 0.7763 0.4755 0.4436
C37A C 0.9073(7) 0.3827(5) 0.47303(14)
H41A H 0.9524 0.4104 0.4868
H42A H 0.9424 0.3404 0.4751
H43A H 0.8172 0.3818 0.4757
C38A C 1.3917(6) 0.3801(2) 0.48188(10)
C39A C 1.5305(6) 0.3831(3) 0.47542(12)
H44A H 1.5488 0.4251 0.4688
H45A H 1.5440 0.3522 0.4612
H46A H 1.5870 0.3739 0.4921
C40A C 1.3635(8) 0.3116(3) 0.49235(13)
H47A H 1.3749 0.2812 0.4778
H48A H 1.2762 0.3095 0.4970
H49A H 1.4221 0.3018 0.5087
C41A C 1.3710(7) 0.4278(3) 0.50578(11)
H50A H 1.3899 0.4704 0.5000
H51A H 1.4274 0.4169 0.5223
H52A H 1.2828 0.4257 0.5099
loop_
_geom_bond_atom_site_label_1
_geom_bond_atom_site_label_2
_geom_bond_site_symmetry_1
_geom_bond_site_symmetry_2
Co1 N1 1_555 1_555
N1 C1 1_555 1_555
N2 C7 1_555 1_555
O1 Co1 1_555 1_555
O2 Co1 1_555 1_555
O3 Co1 1_555 1_555
O4 Co1 1_555 1_555
O5 C3 1_555 1_555
O6 C9 1_555 1_555
C1 H1 1_555 1_555
C2 C1 1_555 1_555
H2 C2 1_555 1_555
C3 C2 1_555 1_555
C4 C3 1_555 1_555
H3 C4 1_555 1_555
C5 N1 1_555 1_555
H4 C5 1_555 1_555
C6 O5 1_555 1_555
H5 C6 1_555 1_555
H6 C6 1_555 1_555
C7 H7 1_555 1_555
C8 C7 1_555 1_555
H8 C8 1_555 1_555
C9 C8 1_555 1_555
C10 C9 1_555 1_555
H9 C10 1_555 1_555
C11 N2 1_555 1_555
H10 C11 1_555 1_555
C12 O6 1_555 1_555
H11 C12 1_555 1_555
H12 C12 1_555 1_555
C13 C6 1_555 1_555
C14 O1 1_555 1_555
C15 O2 1_555 1_555
C16 C15 1_555 1_555
C17 C16 1_555 1_555
H13 C17 1_555 1_555
C18 C17 1_555 1_555
C19 C14 1_555 1_555
H14 C19 1_555 1_555
C20 C16 1_555 1_555
C21 C20 1_555 1_555
H15 C21 1_555 1_555
H16 C21 1_555 1_555
H17 C21 1_555 1_555
C22 C20 1_555 1_555
H18 C22 1_555 1_555
H19 C22 1_555 1_555
H20 C22 1_555 1_555
C23 C20 1_555 1_555
H21 C23 1_555 1_555
H22 C23 1_555 1_555
H23 C23 1_555 1_555
C24 C18 1_555 1_555
C25 C24 1_555 1_555
H24 C25 1_555 1_555
H25 C25 1_555 1_555
H26 C25 1_555 1_555
C26 C24 1_555 1_555
H27 C26 1_555 1_555
H28 C26 1_555 1_555
H29 C26 1_555 1_555
C27 C24 1_555 1_555
H30 C27 1_555 1_555
H31 C27 1_555 1_555
H32 C27 1_555 1_555
C28 O3 1_555 1_555
C29 O4 1_555 1_555
C30 C29 1_555 1_555
C31 C30 1_555 1_555
H33 C31 1_555 1_555
C32 C31 1_555 1_555
C33 C28 1_555 1_555
H34 C33 1_555 1_555
C34 C30 1_555 1_555
C35 C34 1_555 1_555
H35 C35 1_555 1_555
H36 C35 1_555 1_555
H37 C35 1_555 1_555
C36 C34 1_555 1_555
H38 C36 1_555 1_555
H39 C36 1_555 1_555
H40 C36 1_555 1_555
C37 C34 1_555 1_555
H41 C37 1_555 1_555
H42 C37 1_555 1_555
H43 C37 1_555 1_555
C38 C32 1_555 1_555
C39 C38 1_555 1_555
H44 C39 1_555 1_555
H45 C39 1_555 1_555
H46 C39 1_555 1_555
C40 C38 1_555 1_555
H47 C40 1_555 1_555
H48 C40 1_555 1_555
H49 C40 1_555 1_555
C41 C38 1_555 1_555
H50 C41 1_555 1_555
H51 C41 1_555 1_555
H52 C41 1_555 1_555
Co1A N1A 1_555 1_555
Co1B N2 1_555 1_555
Co1C N2A 1_555 1_555
N1A C1A 1_555 1_555
N2A C7A 1_555 1_555
N2B Co1 1_555 1_555
N2C Co1A 1_555 1_555
O1A Co1A 1_555 1_555
O2A Co1A 1_555 1_555
O3A Co1A 1_555 1_555
O4A Co1A 1_555 1_555
O5A C3A 1_555 1_555
O6A C9A 1_555 1_555
C1A H1A 1_555 1_555
C2A C1A 1_555 1_555
H2A C2A 1_555 1_555
C3A C2A 1_555 1_555
C4A C3A 1_555 1_555
H3A C4A 1_555 1_555
C5A N1A 1_555 1_555
H4A C5A 1_555 1_555
C6A C13 1_555 1_555
H5A C6A 1_555 1_555
H6A C6A 1_555 1_555
C7A H7A 1_555 1_555
C8A C7A 1_555 1_555
H8A C8A 1_555 1_555
C9A C8A 1_555 1_555
C10A C9A 1_555 1_555
H9A C10A 1_555 1_555
C11A N2A 1_555 1_555
H10A C11A 1_555 1_555
C12A C13 1_555 1_555
H11A C12A 1_555 1_555
H12A C12A 1_555 1_555
C14A O1A 1_555 1_555
C15A O2A 1_555 1_555
C16A C15A 1_555 1_555
C17A C16A 1_555 1_555
H13A C17A 1_555 1_555
C18A C17A 1_555 1_555
C19A C14A 1_555 1_555
H14A C19A 1_555 1_555
C20A C16A 1_555 1_555
C21A C20A 1_555 1_555
H15A C21A 1_555 1_555
H16A C21A 1_555 1_555
H17A C21A 1_555 1_555
C22A C20A 1_555 1_555
H18A C22A 1_555 1_555
H19A C22A 1_555 1_555
H20A C22A 1_555 1_555
C23A C20A 1_555 1_555
H21A C23A 1_555 1_555
H22A C23A 1_555 1_555
H23A C23A 1_555 1_555
C24A C18A 1_555 1_555
C25A C24A 1_555 1_555
H24A C25A 1_555 1_555
H25A C25A 1_555 1_555
H26A C25A 1_555 1_555
C26A C24A 1_555 1_555
H27A C26A 1_555 1_555
H28A C26A 1_555 1_555
H29A C26A 1_555 1_555
C27A C24A 1_555 1_555
H30A C27A 1_555 1_555
H31A C27A 1_555 1_555
H32A C27A 1_555 1_555
C28A O3A 1_555 1_555
C29A O4A 1_555 1_555
C30A C29A 1_555 1_555
C31A C30A 1_555 1_555
H33A C31A 1_555 1_555
C32A C31A 1_555 1_555
C33A C28A 1_555 1_555
H34A C33A 1_555 1_555
C34A C30A 1_555 1_555
C35A C34A 1_555 1_555
H35A C35A 1_555 1_555
H36A C35A 1_555 1_555
H37A C35A 1_555 1_555
C36A C34A 1_555 1_555
H38A C36A 1_555 1_555
H39A C36A 1_555 1_555
H40A C36A 1_555 1_555
C37A C34A 1_555 1_555
H41A C37A 1_555 1_555
H42A C37A 1_555 1_555
H43A C37A 1_555 1_555
C38A C32A 1_555 1_555
C39A C38A 1_555 1_555
H44A C39A 1_555 1_555
H45A C39A 1_555 1_555
H46A C39A 1_555 1_555
C40A C38A 1_555 1_555
H47A C40A 1_555 1_555
H48A C40A 1_555 1_555
H49A C40A 1_555 1_555
C41A C38A 1_555 1_555
H50A C41A 1_555 1_555
H51A C41A 1_555 1_555
H52A C41A 1_555 1_555
C4 C5 1_555 1_555
C10 C11 1_555 1_555
C12 C13 1_555 1_555
C14 C15 1_555 1_555
C18 C19 1_555 1_555
C28 C29 1_555 1_555
C32 C33 1_555 1_555
O5A C6A 1_555 1_555
O6A C12A 1_555 1_555
C4A C5A 1_555 1_555
C10A C11A 1_555 1_555
C14A C15A 1_555 1_555
C18A C19A 1_555 1_555
C28A C29A 1_555 1_555
C32A C33A 1_555 1_555

#END
