
#######################################################################
#
#                 Cambridge Crystallographic Data Centre
#                                CCDC 
#
#######################################################################
#
# If this CIF has been generated from an entry in the Cambridge 
# Structural Database, then it will include bibliographic, chemical, 
# crystal, experimental, refinement or atomic coordinate data resulting 
# from the CCDC's data processing and validation procedures.
#
#######################################################################

data_ZASBUQ
_symmetry_cell_setting           monoclinic
_symmetry_space_group_name_H-M   'P 21/n'
_symmetry_Int_Tables_number      14
_space_group_name_Hall           '-P 2yn'
loop_
_symmetry_equiv_pos_site_id
_symmetry_equiv_pos_as_xyz
1 x,y,z
2 1/2-x,1/2+y,1/2-z
3 -x,-y,-z
4 1/2+x,1/2-y,1/2+z
_cell_length_a                   10.731(6)
_cell_length_b                   5.980(2)
_cell_length_c                   14.476(6)
_cell_angle_alpha                90
_cell_angle_beta                 104.56(2)
_cell_angle_gamma                90
_cell_volume                     899.112
loop_
_atom_site_label
_atom_site_type_symbol
_atom_site_fract_x
_atom_site_fract_y
_atom_site_fract_z
Ti1 Ti 0.6087(1) -0.2464(2) 0.0241(1)
Cl1 Cl 0.5658(1) 0.0774(2) 0.1068(1)
Cl2 Cl 0.7367(1) -0.3889(2) 0.1557(1)
Cl3 Cl 0.4169(1) -0.4255(2) 0.0709(1)
O1 O 0.7254(3) -0.1434(6) -0.0298(2)
C1 C 0.8184(4) -0.1207(7) -0.0787(3)
C2 C 0.9040(6) -0.2766(9) -0.0718(7)
C3 C 0.9990(6) -0.2504(9) -0.1240(7)
C4 C 1.0072(5) -0.0724(8) -0.1728(4)
C5 C 0.9211(7) 0.0795(9) -0.1769(6)
C6 C 0.8217(7) 0.0540(9) -0.1306(6)
Cl1B Cl 0.4342(1) -0.0774(2) -0.1068(1)
Cl3B Cl 0.5831(1) -0.5745(2) -0.0709(1)
Ti1B Ti 0.3913(1) 0.2464(2) -0.0241(1)
Ti1B_2 Ti 0.3913(1) -0.7536(2) -0.0241(1)
loop_
_geom_bond_atom_site_label_1
_geom_bond_atom_site_label_2
_geom_bond_site_symmetry_1
_geom_bond_site_symmetry_2
Ti1 Cl1 1_555 1_555
Cl1 Ti1B 1_555 1_555
Cl2 Ti1 1_555 1_555
Cl3 Ti1 1_555 1_555
O1 Ti1 1_555 1_555
C1 O1 1_555 1_555
C2 C1 1_555 1_555
C3 C2 1_555 1_555
C4 C3 1_555 1_555
C5 C4 1_555 1_555
C6 C1 1_555 1_555
Cl1B Ti1 1_555 1_555
Cl3B Ti1 1_555 1_555
Ti1B Cl1B 1_555 1_555
Ti1B_2 Cl3 1_555 1_555
C5 C6 1_555 1_555
Cl3B Ti1B_2 1_555 1_555

#END
