
#######################################################################
#
#                 Cambridge Crystallographic Data Centre
#                                CCDC 
#
#######################################################################
#
# If this CIF has been generated from an entry in the Cambridge 
# Structural Database, then it will include bibliographic, chemical, 
# crystal, experimental, refinement or atomic coordinate data resulting 
# from the CCDC's data processing and validation procedures.
#
#######################################################################

data_ZASGIL
_symmetry_cell_setting           orthorhombic
_symmetry_space_group_name_H-M   'P b c a'
_symmetry_Int_Tables_number      61
_space_group_name_Hall           '-P 2ac 2ab'
loop_
_symmetry_equiv_pos_site_id
_symmetry_equiv_pos_as_xyz
1 x,y,z
2 1/2-x,-y,1/2+z
3 1/2+x,1/2-y,-z
4 -x,1/2+y,1/2-z
5 -x,-y,-z
6 1/2+x,y,1/2-z
7 1/2-x,1/2+y,z
8 x,1/2-y,1/2+z
_cell_length_a                   17.336(2)
_cell_length_b                   10.1793(12)
_cell_length_c                   18.672(2)
_cell_angle_alpha                90
_cell_angle_beta                 90
_cell_angle_gamma                90
_cell_volume                     3295.02
loop_
_atom_site_label
_atom_site_type_symbol
_atom_site_fract_x
_atom_site_fract_y
_atom_site_fract_z
Hg1 Hg 0.080357(14) 0.90690(3) 0.464509(13)
S1 S -0.05556(9) 0.87599(16) 0.44183(8)
O1 O 0.1278(3) 1.0383(4) 0.3689(2)
O2 O 0.1294(3) 0.8283(4) 0.3375(2)
O3 O 0.1901(3) 0.6578(5) 0.0098(3)
O4 O 0.1081(3) 0.8051(5) 0.0531(3)
N1 N -0.1016(3) 0.9615(5) 0.1233(3)
C1 C -0.0652(3) 0.9062(6) 0.3484(3)
C2 C -0.0717(4) 0.8002(6) 0.3027(3)
H1 H -0.0691 0.7141 0.3221
C3 C -0.0818(4) 0.8150(6) 0.2298(3)
H2 H -0.0849 0.7404 0.1993
C4 C -0.0874(4) 0.9408(6) 0.2019(3)
C5 C -0.0826(4) 1.0496(6) 0.2460(3)
H3 H -0.0875 1.1354 0.2266
C6 C -0.0705(4) 1.0326(6) 0.3191(3)
H4 H -0.0659 1.1072 0.3494
C7 C -0.1797(4) 1.0201(8) 0.1127(4)
H5 H -0.1879 1.0374 0.0616
H6 H -0.1833 1.1027 0.1394
H7 H -0.2191 0.9588 0.1300
C8 C -0.0419(4) 1.0552(7) 0.0937(4)
H8 H 0.0097 1.0171 0.0995
H9 H -0.0446 1.1388 0.1197
H10 H -0.0519 1.0706 0.0427
C9 C -0.0958(5) 0.8378(7) 0.0812(4)
H11 H -0.1359 0.7764 0.0969
H12 H -0.0449 0.7982 0.0887
H13 H -0.1027 0.8573 0.0302
C10 C 0.1386(4) 0.9471(6) 0.3235(4)
C11 C 0.1634(5) 0.9892(6) 0.2496(4)
H14 H 0.1185 1.0300 0.2254
H15 H 0.2034 1.0580 0.2547
C12 C 0.1947(4) 0.8836(7) 0.2014(3)
H16 H 0.1540 0.8173 0.1924
H17 H 0.2383 0.8390 0.2255
C13 C 0.2222(4) 0.9401(7) 0.1299(3)
H18 H 0.1810 0.9959 0.1094
H19 H 0.2679 0.9963 0.1383
C14 C 0.2431(4) 0.8328(6) 0.0761(3)
H20 H 0.2727 0.8728 0.0363
H21 H 0.2772 0.7681 0.0999
C15 C 0.1741(4) 0.7611(7) 0.0452(3)
Hg1D Hg -0.080357(14) 1.09310(3) 0.535491(13)
Hg1G Hg 0.080357(14) 0.59310(3) -0.035491(13)
S1D S 0.05556(9) 1.12401(16) 0.55817(8)
O3G O 0.1901(3) 0.8422(5) 0.5098(3)
loop_
_geom_bond_atom_site_label_1
_geom_bond_atom_site_label_2
_geom_bond_site_symmetry_1
_geom_bond_site_symmetry_2
Hg1 S1 1_555 1_555
S1 C1 1_555 1_555
O1 Hg1 1_555 1_555
O2 C10 1_555 1_555
O3 C15 1_555 1_555
O4 C15 1_555 1_555
N1 C4 1_555 1_555
C1 C2 1_555 1_555
C2 H1 1_555 1_555
C3 C2 1_555 1_555
H2 C3 1_555 1_555
C4 C3 1_555 1_555
C5 C4 1_555 1_555
H3 C5 1_555 1_555
C6 C1 1_555 1_555
H4 C6 1_555 1_555
C7 N1 1_555 1_555
H5 C7 1_555 1_555
H6 C7 1_555 1_555
H7 C7 1_555 1_555
C8 N1 1_555 1_555
H8 C8 1_555 1_555
H9 C8 1_555 1_555
H10 C8 1_555 1_555
C9 N1 1_555 1_555
H11 C9 1_555 1_555
H12 C9 1_555 1_555
H13 C9 1_555 1_555
C10 O1 1_555 1_555
C11 C10 1_555 1_555
H14 C11 1_555 1_555
H15 C11 1_555 1_555
C12 C11 1_555 1_555
H16 C12 1_555 1_555
H17 C12 1_555 1_555
C13 C12 1_555 1_555
H18 C13 1_555 1_555
H19 C13 1_555 1_555
C14 C13 1_555 1_555
H20 C14 1_555 1_555
H21 C14 1_555 1_555
C15 C14 1_555 1_555
Hg1D S1 1_555 1_555
Hg1G O3 1_555 1_555
S1D Hg1 1_555 1_555
O3G Hg1 1_555 1_555
C5 C6 1_555 1_555
Hg1D S1D 1_555 1_555

#END
