
#######################################################################
#
#                 Cambridge Crystallographic Data Centre
#                                CCDC 
#
#######################################################################
#
# If this CIF has been generated from an entry in the Cambridge 
# Structural Database, then it will include bibliographic, chemical, 
# crystal, experimental, refinement or atomic coordinate data resulting 
# from the CCDC's data processing and validation procedures.
#
#######################################################################

data_ZASLIQ
_symmetry_cell_setting           triclinic
_symmetry_space_group_name_H-M   'P -1'
_symmetry_Int_Tables_number      2
_space_group_name_Hall           '-P 1'
loop_
_symmetry_equiv_pos_site_id
_symmetry_equiv_pos_as_xyz
1 x,y,z
2 -x,-y,-z
_cell_length_a                   7.0836(3)
_cell_length_b                   9.4336(4)
_cell_length_c                   12.4037(6)
_cell_angle_alpha                75.948(2)
_cell_angle_beta                 83.685(2)
_cell_angle_gamma                73.303(3)
_cell_volume                     769.436
loop_
_atom_site_label
_atom_site_type_symbol
_atom_site_fract_x
_atom_site_fract_y
_atom_site_fract_z
Zn1 Zn 0.74872(11) -0.29921(7) -0.04242(5)
O1 O 0.8265(7) -0.4956(5) -0.0855(3)
O2 O 0.8230(7) -0.3703(5) -0.2614(4)
O3 O 1.0188(8) -0.6836(5) -0.5445(4)
H1 H 1.0853 -0.6873 -0.6027
O4 O 1.2009(8) -0.9222(5) -0.4913(4)
O5 O 0.9138(7) -1.1684(5) -0.1139(4)
O6 O 0.7435(7) -1.0174(5) -0.0051(4)
O7 O 0.4796(7) -0.1905(5) -0.1041(4)
H2 H 0.4830 -0.1394 -0.1750
H3 H 0.4065 -0.1261 -0.0633
N1 N 0.6801(7) -0.3699(6) 0.1195(4)
C1 C 0.6879(10) -0.5177(7) 0.1597(5)
H6 H 0.7301 -0.5833 0.1115
C2 C 0.6371(10) -0.5766(7) 0.2676(5)
H7 H 0.6459 -0.6796 0.2911
C3 C 0.5724(9) -0.4815(7) 0.3417(5)
C4 C 0.5636(9) -0.3306(7) 0.3010(5)
H8 H 0.5199 -0.2631 0.3478
C5 C 0.6183(9) -0.2785(7) 0.1925(5)
H9 H 0.6127 -0.1761 0.1681
C6 C 0.8434(8) -0.4909(6) -0.1893(5)
C7 C 0.8883(8) -0.6405(6) -0.2206(5)
C8 C 0.8610(8) -0.7674(6) -0.1425(5)
H10 H 0.8162 -0.7592 -0.0704
C9 C 0.9008(8) -0.9068(7) -0.1723(4)
C10 C 0.8501(9) -1.0388(7) -0.0893(5)
C11 C 0.9770(9) -0.9233(7) -0.2778(5)
H11 H 1.0112 -1.0179 -0.2959
C12 C 1.0012(8) -0.7956(6) -0.3561(5)
C13 C 1.0846(9) -0.8075(7) -0.4709(5)
C14 C 0.9535(8) -0.6549(6) -0.3287(5)
H12 H 0.9651 -0.5697 -0.3828
C15 C 0.5131(11) -0.5499(8) 0.4594(5)
H13 H 0.3902 -0.5753 0.4580
H14 H 0.6127 -0.6437 0.4860
Zn1A Zn 0.25128(11) -0.70079(7) 1.04242(5)
Zn1_2 Zn 0.74872(11) -1.29921(7) -0.04242(5)
Zn1A_2 Zn 0.25128(11) 0.29921(7) 1.04242(5)
O1A O 0.1735(7) -0.5044(5) 1.0855(3)
O2A O 0.1770(7) -0.6297(5) 1.2614(4)
O3A O -0.0188(8) -0.3164(5) 1.5445(4)
H1A H -0.0853 -0.3127 1.6027
O4A O -0.2009(8) -0.0778(5) 1.4913(4)
O5A O 0.0862(7) 0.1684(5) 1.1139(4)
O5_2 O 0.9138(7) -0.1684(5) -0.1139(4)
O5A_2 O 0.0862(7) -0.8316(5) 1.1139(4)
O6A O 0.2565(7) 0.0174(5) 1.0051(4)
O7A O 0.5204(7) -0.8095(5) 1.1041(4)
H2A H 0.5170 -0.8606 1.1750
H3A H 0.5935 -0.8739 1.0633
N1A N 0.3199(7) -0.6301(6) 0.8805(4)
C1A C 0.3121(10) -0.4823(7) 0.8403(5)
H6A H 0.2699 -0.4167 0.8885
C2A C 0.3629(10) -0.4234(7) 0.7324(5)
H7A H 0.3541 -0.3204 0.7089
C3A C 0.4276(9) -0.5185(7) 0.6583(5)
C4A C 0.4364(9) -0.6694(7) 0.6990(5)
H8A H 0.4801 -0.7369 0.6522
C5A C 0.3817(9) -0.7215(7) 0.8075(5)
H9A H 0.3873 -0.8239 0.8319
C6A C 0.1566(8) -0.5091(6) 1.1893(5)
C7A C 0.1117(8) -0.3595(6) 1.2206(5)
C8A C 0.1390(8) -0.2326(6) 1.1425(5)
H10A H 0.1838 -0.2408 1.0704
C9A C 0.0992(8) -0.0932(7) 1.1723(4)
C10A C 0.1499(9) 0.0388(7) 1.0893(5)
C11A C 0.0230(9) -0.0767(7) 1.2778(5)
H11A H -0.0112 0.0179 1.2959
C12A C -0.0012(8) -0.2044(6) 1.3561(5)
C13A C -0.0846(9) -0.1925(7) 1.4709(5)
C14A C 0.0465(8) -0.3451(6) 1.3287(5)
H12A H 0.0349 -0.4303 1.3828
C15A C 0.4869(11) -0.4501(8) 0.5406(5)
H13A H 0.6098 -0.4247 0.5420
H14A H 0.3873 -0.3563 0.5140
O8 O 0.5049(9) 0.0485(7) 0.3237(5)
H4 H 0.3968 0.1123 0.3476
H5 H 0.6103 0.0715 0.3427
loop_
_geom_bond_atom_site_label_1
_geom_bond_atom_site_label_2
_geom_bond_site_symmetry_1
_geom_bond_site_symmetry_2
Zn1 O1 1_555 1_555
O1 C6 1_555 1_555
O2 C6 1_555 1_555
O3 H1 1_555 1_555
O4 C13 1_555 1_555
O5 C10 1_555 1_555
O6 C10 1_555 1_555
O7 Zn1 1_555 1_555
H2 O7 1_555 1_555
H3 O7 1_555 1_555
O8 H4 1_555 1_555
H5 O8 1_555 1_555
N1 Zn1 1_555 1_555
C1 N1 1_555 1_555
H6 C1 1_555 1_555
C2 C1 1_555 1_555
H7 C2 1_555 1_555
C3 C2 1_555 1_555
C4 C3 1_555 1_555
H8 C4 1_555 1_555
C5 N1 1_555 1_555
H9 C5 1_555 1_555
C6 C7 1_555 1_555
C7 C8 1_555 1_555
C8 H10 1_555 1_555
C9 C8 1_555 1_555
C10 C9 1_555 1_555
C11 C9 1_555 1_555
H11 C11 1_555 1_555
C12 C11 1_555 1_555
C13 O3 1_555 1_555
C14 C7 1_555 1_555
H12 C14 1_555 1_555
C15 C3 1_555 1_555
H13 C15 1_555 1_555
H14 C15 1_555 1_555
Zn1A O1A 1_555 1_555
Zn1_2 O5 1_555 1_555
Zn1A_2 O5A 1_555 1_555
O1A C6A 1_555 1_555
O2A C6A 1_555 1_555
O3A H1A 1_555 1_555
O4A C13A 1_555 1_555
O5A C10A 1_555 1_555
O5_2 Zn1 1_555 1_555
O5A_2 Zn1A 1_555 1_555
O6A C10A 1_555 1_555
O7A Zn1A 1_555 1_555
H2A O7A 1_555 1_555
H3A O7A 1_555 1_555
N1A Zn1A 1_555 1_555
C1A N1A 1_555 1_555
H6A C1A 1_555 1_555
C2A C1A 1_555 1_555
H7A C2A 1_555 1_555
C3A C2A 1_555 1_555
C4A C3A 1_555 1_555
H8A C4A 1_555 1_555
C5A N1A 1_555 1_555
H9A C5A 1_555 1_555
C6A C7A 1_555 1_555
C7A C8A 1_555 1_555
C8A H10A 1_555 1_555
C9A C8A 1_555 1_555
C10A C9A 1_555 1_555
C11A C9A 1_555 1_555
H11A C11A 1_555 1_555
C12A C11A 1_555 1_555
C13A O3A 1_555 1_555
C14A C7A 1_555 1_555
H12A C14A 1_555 1_555
C15A C15 1_555 1_555
H13A C15A 1_555 1_555
H14A C15A 1_555 1_555
C4 C5 1_555 1_555
C12 C13 1_555 1_555
C12 C14 1_555 1_555
C3A C15A 1_555 1_555
C4A C5A 1_555 1_555
C12A C13A 1_555 1_555
C12A C14A 1_555 1_555

#END
