
#######################################################################
#
#                 Cambridge Crystallographic Data Centre
#                                CCDC 
#
#######################################################################
#
# If this CIF has been generated from an entry in the Cambridge 
# Structural Database, then it will include bibliographic, chemical, 
# crystal, experimental, refinement or atomic coordinate data resulting 
# from the CCDC's data processing and validation procedures.
#
#######################################################################

data_ZASQUH
_symmetry_cell_setting           hexagonal
_symmetry_space_group_name_H-M   'P 61 2 2'
_symmetry_Int_Tables_number      178
_space_group_name_Hall           "P 61 2' (0,0,5)"
loop_
_symmetry_equiv_pos_site_id
_symmetry_equiv_pos_as_xyz
1 x,y,z
2 -y,x-y,1/3+z
3 -x+y,-x,2/3+z
4 -x,-y,1/2+z
5 y,-x+y,5/6+z
6 x-y,x,1/6+z
7 y,x,1/3-z
8 x-y,-y,-z
9 -x,-x+y,2/3-z
10 -y,-x,5/6-z
11 -x+y,y,1/2-z
12 x,x-y,1/6-z
_cell_length_a                   11.36860(10)
_cell_length_b                   11.36860(10)
_cell_length_c                   61.4475(11)
_cell_angle_alpha                90
_cell_angle_beta                 90
_cell_angle_gamma                120
_cell_volume                     6877.79
loop_
_atom_site_label
_atom_site_type_symbol
_atom_site_fract_x
_atom_site_fract_y
_atom_site_fract_z
Co1 Co -0.19033(5) 0.0000 0.0000
C1 C 0.0926(4) 0.9528(4) 0.06228(5)
C2 C 0.2179(4) 1.0787(4) 0.05626(5)
C3 C 0.3455(4) 1.0879(4) 0.05953(5)
C4 C 0.3550(4) 0.9808(4) 0.06913(6)
C5 C 0.2316(4) 0.8570(4) 0.07592(6)
C6 C 0.2105(5) 1.1855(4) 0.04698(5)
H1 H 0.1247 1.1784 0.0445
C7 C 0.3303(6) 1.3043(5) 0.04124(7)
H2 H 0.3254 1.3789 0.0353
C8 C 0.4545(6) 1.3138(5) 0.04406(7)
H3 H 0.5342 1.3945 0.0397
C9 C 0.4667(5) 1.2081(4) 0.05314(7)
C10 C 0.5924(5) 1.2123(6) 0.05650(8)
H4 H 0.6743 1.2913 0.0524
C11 C 0.5984(5) 1.1071(6) 0.06542(8)
H5 H 0.6840 1.1130 0.0674
C12 C 0.4799(4) 0.9896(5) 0.07172(7)
H6 H 0.4852 0.9155 0.0778
C13 C -0.0157(4) 0.7205(4) 0.07665(5)
H7 H -0.0925 0.7363 0.0794
H8 H -0.0015 0.6792 0.0899
C14 C -0.0488(3) 0.6257(3) 0.05773(5)
C15 C 0.0214(4) 0.5681(4) 0.04916(6)
H9 H 0.0998 0.5701 0.0550
C16 C -0.0145(5) 0.4356(4) 0.01395(6)
H10 H -0.0563 0.4417 0.0000
C17 C 0.1374(6) 0.5040(5) 0.01063(11)
H11 H 0.1751 0.6023 0.0093
H12 H 0.1567 0.4691 -0.0027
H13 H 0.1790 0.4850 0.0231
C18 C -0.0729(3) 0.2853(3) 0.01939(5)
C19 C 0.0059(3) -0.1076(3) 0.00704(5)
H14 H -0.0748 -0.1850 0.0120
C20 C 0.1253(3) -0.1112(3) 0.00738(5)
H15 H 0.1259 -0.1895 0.0127
C21 C 0.2449(4) 0.0000 0.0000
C22 C 0.3761(4) 0.0000 0.0000
C23 C 0.3976(3) -0.0848(4) 0.01385(5)
H16 H 0.3281 -0.1444 0.0235
C24 C 0.5209(3) -0.0812(4) 0.01333(5)
H17 H 0.5342 -0.1392 0.0229
N1 N 0.1078(3) 0.8503(3) 0.07193(4)
N2 N -0.1528(3) 0.5986(3) 0.04440(6)
N3 N -0.1511(4) 0.5270(3) 0.02799(5)
N4 N -0.0450(3) 0.5077(3) 0.03066(5)
N5 N -0.0019(3) 0.0000 0.0000
N6 N 0.6225(3) 0.0000 0.0000
O1 O -0.0212(3) 0.9360(3) 0.05920(4)
O2 O 0.2320(3) 0.7603(3) 0.08441(5)
O3 O -0.0867(2) 0.2128(2) 0.00276(3)
O4 O -0.1004(3) 0.2473(3) 0.03830(4)
O5 O -0.2055(3) -0.0196(3) 0.03396(4)
H18 H -0.174(5) 0.056(3) 0.0365(7)
H19 H -0.162(4) -0.040(5) 0.0408(7)
Co1_2 Co 0.80967(5) 0.0000 0.0000
C1G C -0.8602(6) -0.9528(4) -0.06228(5)
C2G C -0.8608(6) -1.0787(4) -0.05626(5)
C3G C -0.7424(6) -1.0879(4) -0.05953(5)
C4G C -0.6258(6) -0.9808(4) -0.06913(6)
C5G C -0.6254(6) -0.8570(4) -0.07592(6)
C6G C -0.9750(6) -1.1855(4) -0.04698(5)
H1G H -1.0537 -1.1784 -0.0445
C7G C -0.9740(8) -1.3043(5) -0.04124(7)
H2G H -1.0535 -1.3789 -0.0353
C8G C -0.8593(8) -1.3138(5) -0.04406(7)
H3G H -0.8603 -1.3945 -0.0397
C9G C -0.7414(6) -1.2081(4) -0.05314(7)
C10G C -0.6199(8) -1.2123(6) -0.05650(8)
H4G H -0.6170 -1.2913 -0.0524
C11G C -0.5087(8) -1.1071(6) -0.06542(8)
H5G H -0.4290 -1.1130 -0.0674
C12G C -0.5097(6) -0.9896(5) -0.07172(7)
H6G H -0.4303 -0.9155 -0.0778
C13G C -0.7362(6) -0.7205(4) -0.07665(5)
H7G H -0.8288 -0.7363 -0.0794
H8G H -0.6807 -0.6792 -0.0899
C14G C -0.6745(4) -0.6257(3) -0.05773(5)
C15G C -0.5467(6) -0.5681(4) -0.04916(6)
H9G H -0.4703 -0.5701 -0.0550
C16G C -0.4501(6) -0.4356(4) -0.01395(6)
H10G H -0.4980 -0.4417 0.0000
C17G C -0.3666(8) -0.5040(5) -0.01063(11)
H11G H -0.4272 -0.6023 -0.0093
H12G H -0.3124 -0.4691 0.0027
H13G H -0.3060 -0.4850 -0.0231
C18G C -0.3582(4) -0.2853(3) -0.01939(5)
C19G C 0.1135(4) 0.1076(3) -0.00704(5)
H14G H 0.1102 0.1850 -0.0120
C20G C 0.2365(4) 0.1112(3) -0.00738(5)
H15G H 0.3154 0.1895 -0.0127
C23G C 0.4824(5) 0.0848(4) -0.01385(5)
H16G H 0.4725 0.1444 -0.0235
C24G C 0.6021(5) 0.0812(4) -0.01333(5)
H17G H 0.6734 0.1392 -0.0229
N1G N -0.7425(4) -0.8503(3) -0.07193(4)
N2G N -0.7514(4) -0.5986(3) -0.04440(6)
N3G N -0.6781(5) -0.5270(3) -0.02799(5)
N4G N -0.5527(4) -0.5077(3) -0.03066(5)
N6_2 N -0.3775(3) 0.0000 0.0000
O1G O -0.9572(4) -0.9360(3) -0.05920(4)
O2G O -0.5283(4) -0.7603(3) -0.08441(5)
O3G O -0.2995(3) -0.2128(2) -0.00276(3)
O4G O -0.3477(4) -0.2473(3) -0.03830(4)
O5G O -0.1859(4) 0.0196(3) -0.03396(4)
H18G H -0.230(6) -0.056(3) -0.0365(7)
H19G H -0.122(6) 0.040(5) -0.0408(7)
O6 O 0.3899(5) 0.7238(4) 0.11771(7)
H20 H 0.3536 0.7405 0.1072
H21 H 0.4585 0.8015 0.1188
O7 O 0.6328(4) 0.9656(4) 0.12601(7)
H22 H 0.6514 0.9402 0.1377
H23 H 0.6574 0.9473 0.1142
O8 O 0.7113(10) 0.8557(5) 0.0833
loop_
_geom_bond_atom_site_label_1
_geom_bond_atom_site_label_2
_geom_bond_site_symmetry_1
_geom_bond_site_symmetry_2
Co1 N5 1_555 1_555
C1 C2 1_555 1_555
C2 C3 1_555 1_555
C3 C4 1_555 1_555
C4 C5 1_555 1_555
C5 N1 1_555 1_555
C6 C2 1_555 1_555
H1 C6 1_555 1_555
C7 C6 1_555 1_555
H2 C7 1_555 1_555
C8 C7 1_555 1_555
H3 C8 1_555 1_555
C9 C3 1_555 1_555
C10 C9 1_555 1_555
H4 C10 1_555 1_555
C11 C10 1_555 1_555
H5 C11 1_555 1_555
C12 C4 1_555 1_555
H6 C12 1_555 1_555
C13 H7 1_555 1_555
H8 C13 1_555 1_555
C14 C13 1_555 1_555
C15 C14 1_555 1_555
H9 C15 1_555 1_555
C16 H10 1_555 1_555
C17 C16 1_555 1_555
H11 C17 1_555 1_555
H12 C17 1_555 1_555
H13 C17 1_555 1_555
C18 C16 1_555 1_555
C19 H14 1_555 1_555
C20 C19 1_555 1_555
H15 C20 1_555 1_555
C21 C20 1_555 1_555
C22 C21 1_555 1_555
C23 C22 1_555 1_555
H16 C23 1_555 1_555
C24 C23 1_555 1_555
H17 C24 1_555 1_555
N1 C1 1_555 1_555
N2 C14 1_555 1_555
N3 N2 1_555 1_555
N4 C15 1_555 1_555
N5 C19 1_555 1_555
N6 C24 1_555 1_555
O1 C1 1_555 1_555
O2 C5 1_555 1_555
O3 Co1 1_555 1_555
O4 C18 1_555 1_555
O5 Co1 1_555 1_555
H18 O5 1_555 1_555
H19 O5 1_555 1_555
O6 H20 1_555 1_555
H21 O6 1_555 1_555
O7 H22 1_555 1_555
H23 O7 1_555 1_555
Co1_2 N6 1_555 1_555
C1G C2G 1_555 1_555
C2G C3G 1_555 1_555
C3G C4G 1_555 1_555
C4G C5G 1_555 1_555
C5G N1G 1_555 1_555
C6G C2G 1_555 1_555
H1G C6G 1_555 1_555
C7G C6G 1_555 1_555
H2G C7G 1_555 1_555
C8G C7G 1_555 1_555
H3G C8G 1_555 1_555
C9G C3G 1_555 1_555
C10G C9G 1_555 1_555
H4G C10G 1_555 1_555
C11G C10G 1_555 1_555
H5G C11G 1_555 1_555
C12G C4G 1_555 1_555
H6G C12G 1_555 1_555
C13G H7G 1_555 1_555
H8G C13G 1_555 1_555
C14G C13G 1_555 1_555
C15G C14G 1_555 1_555
H9G C15G 1_555 1_555
C16G H10G 1_555 1_555
C17G C16G 1_555 1_555
H11G C17G 1_555 1_555
H12G C17G 1_555 1_555
H13G C17G 1_555 1_555
C18G C16G 1_555 1_555
C19G N5 1_555 1_555
H14G C19G 1_555 1_555
C20G C21 1_555 1_555
H15G C20G 1_555 1_555
C23G C22 1_555 1_555
H16G C23G 1_555 1_555
C24G N6 1_555 1_555
H17G C24G 1_555 1_555
N1G C1G 1_555 1_555
N2G C14G 1_555 1_555
N3G N2G 1_555 1_555
N4G C15G 1_555 1_555
N6_2 Co1 1_555 1_555
O1G C1G 1_555 1_555
O2G C5G 1_555 1_555
O3G Co1 1_555 1_555
O4G C18G 1_555 1_555
O5G Co1 1_555 1_555
H18G O5G 1_555 1_555
H19G O5G 1_555 1_555
C8 C9 1_555 1_555
C11 C12 1_555 1_555
C13 N1 1_555 1_555
C16 N4 1_555 1_555
C18 O3 1_555 1_555
N3 N4 1_555 1_555
C8G C9G 1_555 1_555
C11G C12G 1_555 1_555
C13G N1G 1_555 1_555
C16G N4G 1_555 1_555
C18G O3G 1_555 1_555
C19G C20G 1_555 1_555
C23G C24G 1_555 1_555
N3G N4G 1_555 1_555

#END
