
#######################################################################
#
#                 Cambridge Crystallographic Data Centre
#                                CCDC 
#
#######################################################################
#
# If this CIF has been generated from an entry in the Cambridge 
# Structural Database, then it will include bibliographic, chemical, 
# crystal, experimental, refinement or atomic coordinate data resulting 
# from the CCDC's data processing and validation procedures.
#
#######################################################################

data_ZASQOB
_symmetry_cell_setting           hexagonal
_symmetry_space_group_name_H-M   'P 61 2 2'
_symmetry_Int_Tables_number      178
_space_group_name_Hall           "P 61 2' (0,0,5)"
loop_
_symmetry_equiv_pos_site_id
_symmetry_equiv_pos_as_xyz
1 x,y,z
2 -y,x-y,1/3+z
3 -x+y,-x,2/3+z
4 -x,-y,1/2+z
5 y,-x+y,5/6+z
6 x-y,x,1/6+z
7 y,x,1/3-z
8 x-y,-y,-z
9 -x,-x+y,2/3-z
10 -y,-x,5/6-z
11 -x+y,y,1/2-z
12 x,x-y,1/6-z
_cell_length_a                   11.4707(3)
_cell_length_b                   11.4707(3)
_cell_length_c                   61.655(3)
_cell_angle_alpha                90
_cell_angle_beta                 90
_cell_angle_gamma                120
_cell_volume                     7025.52
loop_
_atom_site_label
_atom_site_type_symbol
_atom_site_fract_x
_atom_site_fract_y
_atom_site_fract_z
Fe1 Fe -0.18572(6) 0.0000 0.0000
C1 C 0.0953(5) 0.9500(5) 0.06223(6)
C2 C 0.2188(5) 1.0761(4) 0.05638(6)
C3 C 0.3451(5) 1.0864(5) 0.05943(7)
C4 C 0.3566(5) 0.9806(5) 0.06859(7)
C5 C 0.2359(5) 0.8572(4) 0.07495(8)
C6 C 0.2081(7) 1.1807(5) 0.04768(7)
H1 H 0.1240 1.1723 0.0455
C7 C 0.3269(10) 1.3013(6) 0.04208(9)
H2 H 0.3214 1.3737 0.0365
C8 C 0.4509(9) 1.3110(6) 0.04497(10)
H3 H 0.5282 1.3903 0.0411
C9 C 0.4633(7) 1.2069(6) 0.05346(9)
C10 C 0.5895(7) 1.2144(8) 0.05665(12)
H4 H 0.6683 1.2927 0.0529
C11 C 0.5967(7) 1.1092(9) 0.06498(13)
H5 H 0.6802 1.1155 0.0667
C12 C 0.4810(6) 0.9920(7) 0.07101(10)
H6 H 0.4876 0.9206 0.0767
C13 C -0.0094(5) 0.7189(5) 0.07597(7)
H7 H -0.0844 0.7332 0.0789
H8 H 0.0058 0.6790 0.0888
C14 C -0.0422(4) 0.6259(4) 0.05708(7)
C15 C 0.0249(5) 0.5667(4) 0.04843(7)
H9 H 0.1013 0.5687 0.0540
C16 C -0.0137(6) 0.4318(4) 0.01364(7)
H10 H -0.0568 0.4358 0.0002
C17 C 0.1367(7) 0.4992(6) 0.00957(13)
H11 H 0.1726 0.5941 0.0076
H12 H 0.1530 0.4617 -0.0032
H13 H 0.1797 0.4845 0.0218
C18 C -0.0703(4) 0.2841(4) 0.01950(7)
C19 C 0.0129(4) -0.1075(4) 0.00665(6)
H14 H -0.0655 -0.1834 0.0113
C20 C 0.1314(4) -0.1106(4) 0.00695(6)
H15 H 0.1317 -0.1872 0.0118
C21 C 0.2504(4) 0.0000 0.0000
C22 C 0.3811(5) 0.0000 0.0000
C23 C 0.3996(4) -0.0874(4) 0.01313(7)
H16 H 0.3309 -0.1482 0.0221
C24 C 0.5226(4) -0.0823(4) 0.01257(7)
H17 H 0.5346 -0.1405 0.0216
N1 N 0.1125(4) 0.8492(3) 0.07120(5)
N2 N -0.1470(4) 0.5955(4) 0.04410(8)
N3 N -0.1458(5) 0.5251(4) 0.02763(7)
N4 N -0.0416(4) 0.5054(3) 0.03033(6)
N5 N 0.0055(4) 0.0000 0.0000
N6 N 0.6245(3) 0.0000 0.0000
O1 O -0.0183(4) 0.9311(4) 0.05928(6)
O2 O 0.2373(4) 0.7608(4) 0.08316(7)
O3 O -0.0836(3) 0.2108(3) 0.00311(4)
O4 O -0.0979(4) 0.2472(3) 0.03823(5)
O5 O -0.1996(3) -0.0193(3) 0.03465(5)
H18 H -0.174(6) 0.054(4) 0.0367(9)
H19 H -0.161(5) -0.045(5) 0.0407(8)
Fe1_2 Fe 0.81428(6) 0.0000 0.0000
C1G C -0.8547(7) -0.9500(5) -0.06223(6)
C2G C -0.8573(6) -1.0761(4) -0.05638(6)
C3G C -0.7413(7) -1.0864(5) -0.05943(7)
C4G C -0.6240(7) -0.9806(5) -0.06859(7)
C5G C -0.6213(6) -0.8572(4) -0.07495(8)
C6G C -0.9726(9) -1.1807(5) -0.04768(7)
H1G H -1.0483 -1.1723 -0.0455
C7G C -0.9744(12) -1.3013(6) -0.04208(9)
H2G H -1.0523 -1.3737 -0.0365
C8G C -0.8601(11) -1.3110(6) -0.04497(10)
H3G H -0.8621 -1.3903 -0.0411
C9G C -0.7436(9) -1.2069(6) -0.05346(9)
C10G C -0.6249(11) -1.2144(8) -0.05665(12)
H4G H -0.6244 -1.2927 -0.0529
C11G C -0.5125(11) -1.1092(9) -0.06498(13)
H5G H -0.4353 -1.1155 -0.0667
C12G C -0.5110(9) -0.9920(7) -0.07101(10)
H6G H -0.4330 -0.9206 -0.0767
C13G C -0.7283(7) -0.7189(5) -0.07597(7)
H7G H -0.8176 -0.7332 -0.0789
H8G H -0.6732 -0.6790 -0.0888
C14G C -0.6681(6) -0.6259(4) -0.05708(7)
C15G C -0.5418(6) -0.5667(4) -0.04843(7)
H9G H -0.4674 -0.5687 -0.0540
C16G C -0.4455(7) -0.4318(4) -0.01364(7)
H10G H -0.4926 -0.4358 -0.0002
C17G C -0.3625(9) -0.4992(6) -0.00957(13)
H11G H -0.4215 -0.5941 -0.0076
H12G H -0.3087 -0.4617 0.0032
H13G H -0.3048 -0.4845 -0.0218
C18G C -0.3544(6) -0.2841(4) -0.01950(7)
C19G C 0.1204(6) 0.1075(4) -0.00665(6)
H14G H 0.1179 0.1834 -0.0113
C20G C 0.2420(6) 0.1106(4) -0.00695(6)
H15G H 0.3189 0.1872 -0.0118
C23G C 0.4870(6) 0.0874(4) -0.01313(7)
H16G H 0.4791 0.1482 -0.0221
C24G C 0.6049(6) 0.0823(4) -0.01257(7)
H17G H 0.6751 0.1405 -0.0216
N1G N -0.7367(5) -0.8492(3) -0.07120(5)
N2G N -0.7425(6) -0.5955(4) -0.04410(8)
N3G N -0.6709(6) -0.5251(4) -0.02763(7)
N4G N -0.5470(5) -0.5054(3) -0.03033(6)
N6_2 N -0.3755(3) 0.0000 0.0000
O1G O -0.9494(6) -0.9311(4) -0.05928(6)
O2G O -0.5235(6) -0.7608(4) -0.08316(7)
O3G O -0.2944(4) -0.2108(3) -0.00311(4)
O4G O -0.3451(5) -0.2472(3) -0.03823(5)
O5G O -0.1803(4) 0.0193(3) -0.03465(5)
H18G H -0.228(7) -0.054(4) -0.0367(9)
H19G H -0.116(7) 0.045(5) -0.0407(8)
O6 O 0.3903(6) 0.7316(6) 0.11868(9)
H20 H 0.3540 0.7483 0.1081
H21 H 0.4589 0.8094 0.1198
O7 O 0.6430(5) 0.9717(5) 0.12450(9)
H22 H 0.6616 0.9463 0.1362
H23 H 0.6675 0.9535 0.1127
O8 O 0.7008(15) 0.8504(8) 0.0833
loop_
_geom_bond_atom_site_label_1
_geom_bond_atom_site_label_2
_geom_bond_site_symmetry_1
_geom_bond_site_symmetry_2
Fe1 N5 1_555 1_555
C1 C2 1_555 1_555
C2 C3 1_555 1_555
C3 C4 1_555 1_555
C4 C5 1_555 1_555
C5 N1 1_555 1_555
C6 C2 1_555 1_555
H1 C6 1_555 1_555
C7 C6 1_555 1_555
H2 C7 1_555 1_555
C8 C7 1_555 1_555
H3 C8 1_555 1_555
C9 C3 1_555 1_555
C10 C9 1_555 1_555
H4 C10 1_555 1_555
C11 C10 1_555 1_555
H5 C11 1_555 1_555
C12 C4 1_555 1_555
H6 C12 1_555 1_555
C13 H7 1_555 1_555
H8 C13 1_555 1_555
C14 C13 1_555 1_555
C15 C14 1_555 1_555
H9 C15 1_555 1_555
C16 H10 1_555 1_555
C17 C16 1_555 1_555
H11 C17 1_555 1_555
H12 C17 1_555 1_555
H13 C17 1_555 1_555
C18 C16 1_555 1_555
C19 H14 1_555 1_555
C20 C19 1_555 1_555
H15 C20 1_555 1_555
C21 C20 1_555 1_555
C22 C21 1_555 1_555
C23 C22 1_555 1_555
H16 C23 1_555 1_555
C24 C23 1_555 1_555
H17 C24 1_555 1_555
N1 C1 1_555 1_555
N2 C14 1_555 1_555
N3 N2 1_555 1_555
N4 C15 1_555 1_555
N5 C19 1_555 1_555
N6 C24 1_555 1_555
O1 C1 1_555 1_555
O2 C5 1_555 1_555
O3 Fe1 1_555 1_555
O4 C18 1_555 1_555
O5 Fe1 1_555 1_555
H18 O5 1_555 1_555
H19 O5 1_555 1_555
O6 H20 1_555 1_555
H21 O6 1_555 1_555
O7 H22 1_555 1_555
H23 O7 1_555 1_555
Fe1_2 N6 1_555 1_555
C1G C2G 1_555 1_555
C2G C3G 1_555 1_555
C3G C4G 1_555 1_555
C4G C5G 1_555 1_555
C5G N1G 1_555 1_555
C6G C2G 1_555 1_555
H1G C6G 1_555 1_555
C7G C6G 1_555 1_555
H2G C7G 1_555 1_555
C8G C7G 1_555 1_555
H3G C8G 1_555 1_555
C9G C3G 1_555 1_555
C10G C9G 1_555 1_555
H4G C10G 1_555 1_555
C11G C10G 1_555 1_555
H5G C11G 1_555 1_555
C12G C4G 1_555 1_555
H6G C12G 1_555 1_555
C13G H7G 1_555 1_555
H8G C13G 1_555 1_555
C14G C13G 1_555 1_555
C15G C14G 1_555 1_555
H9G C15G 1_555 1_555
C16G H10G 1_555 1_555
C17G C16G 1_555 1_555
H11G C17G 1_555 1_555
H12G C17G 1_555 1_555
H13G C17G 1_555 1_555
C18G C16G 1_555 1_555
C19G N5 1_555 1_555
H14G C19G 1_555 1_555
C20G C21 1_555 1_555
H15G C20G 1_555 1_555
C23G C22 1_555 1_555
H16G C23G 1_555 1_555
C24G N6 1_555 1_555
H17G C24G 1_555 1_555
N1G C1G 1_555 1_555
N2G C14G 1_555 1_555
N3G N2G 1_555 1_555
N4G C15G 1_555 1_555
N6_2 Fe1 1_555 1_555
O1G C1G 1_555 1_555
O2G C5G 1_555 1_555
O3G Fe1 1_555 1_555
O4G C18G 1_555 1_555
O5G Fe1 1_555 1_555
H18G O5G 1_555 1_555
H19G O5G 1_555 1_555
C8 C9 1_555 1_555
C11 C12 1_555 1_555
C13 N1 1_555 1_555
C16 N4 1_555 1_555
C18 O3 1_555 1_555
N3 N4 1_555 1_555
C8G C9G 1_555 1_555
C11G C12G 1_555 1_555
C13G N1G 1_555 1_555
C16G N4G 1_555 1_555
C18G O3G 1_555 1_555
C19G C20G 1_555 1_555
C23G C24G 1_555 1_555
N3G N4G 1_555 1_555

#END
