
#######################################################################
#
#                 Cambridge Crystallographic Data Centre
#                                CCDC 
#
#######################################################################
#
# If this CIF has been generated from an entry in the Cambridge 
# Structural Database, then it will include bibliographic, chemical, 
# crystal, experimental, refinement or atomic coordinate data resulting 
# from the CCDC's data processing and validation procedures.
#
#######################################################################

data_ZASROC
_symmetry_cell_setting           hexagonal
_symmetry_space_group_name_H-M   'P 61 2 2'
_symmetry_Int_Tables_number      178
_space_group_name_Hall           "P 61 2' (0,0,5)"
loop_
_symmetry_equiv_pos_site_id
_symmetry_equiv_pos_as_xyz
1 x,y,z
2 -y,x-y,1/3+z
3 -x+y,-x,2/3+z
4 -x,-y,1/2+z
5 y,-x+y,5/6+z
6 x-y,x,1/6+z
7 y,x,1/3-z
8 x-y,-y,-z
9 -x,-x+y,2/3-z
10 -y,-x,5/6-z
11 -x+y,y,1/2-z
12 x,x-y,1/6-z
_cell_length_a                   11.4398(4)
_cell_length_b                   11.4398(4)
_cell_length_c                   58.718(5)
_cell_angle_alpha                90
_cell_angle_beta                 90
_cell_angle_gamma                120
_cell_volume                     6654.86
loop_
_atom_site_label
_atom_site_type_symbol
_atom_site_fract_x
_atom_site_fract_y
_atom_site_fract_z
Co1 Co -0.15870(8) 0.0000 0.0000
C1 C 0.1377(6) 0.9698(6) 0.06162(9)
C2 C 0.2709(7) 1.0930(6) 0.05657(9)
C3 C 0.3905(6) 1.0908(6) 0.06040(9)
C4 C 0.3904(6) 0.9805(7) 0.07040(10)
C5 C 0.2605(6) 0.8602(6) 0.07633(9)
C6 C 0.2731(8) 1.2042(7) 0.04742(10)
H1 H 0.1913 1.2040 0.0446
C7 C 0.3995(8) 1.3200(7) 0.04218(11)
H2 H 0.4020 1.3982 0.0361
C8 C 0.5167(8) 1.3196(8) 0.04581(11)
H3 H 0.6000 1.3971 0.0419
C9 C 0.5171(7) 1.2084(7) 0.05514(11)
C10 C 0.6352(7) 1.2023(8) 0.05913(13)
H4 H 0.7200 1.2772 0.0550
C11 C 0.6313(8) 1.0929(8) 0.06861(12)
H5 H 0.7133 1.0932 0.0713
C12 C 0.5081(7) 0.9786(9) 0.07462(12)
H6 H 0.5060 0.9022 0.0814
C13 C 0.0138(6) 0.7318(6) 0.07383(10)
H7 H -0.0623 0.7499 0.0742
H8 H 0.0158 0.6904 0.0885
C14 C -0.0060(6) 0.6368(6) 0.05465(9)
C15 C 0.0681(6) 0.5774(6) 0.04852(9)
H9 H 0.1428 0.5823 0.0564
C16 C 0.0525(7) 0.4312(6) 0.01464(11)
H10 H 0.0426 0.4491 -0.0017
C17 C 0.1979(6) 0.4657(7) 0.01904(12)
H11 H 0.2093 0.4567 0.0355
H12 H 0.2144 0.3992 0.0110
C18 C -0.0409(5) 0.2793(6) 0.01973(10)
C19 C 0.0390(5) -0.1077(5) 0.00710(8)
H13 H -0.0413 -0.1852 0.0121
C20 C 0.1575(5) -0.1117(5) 0.00749(8)
H14 H 0.1581 -0.1898 0.0128
C21 C 0.2760(7) 0.0000 0.0000
C22 C 0.4074(6) 0.0000 0.0000
C23 C 0.4238(5) -0.0938(6) 0.01235(9)
H15 H 0.3511 -0.1608 0.0210
C24 C 0.5472(5) -0.0890(6) 0.01193(9)
H16 H 0.5563 -0.1536 0.0208
N1 N 0.1429(5) 0.8605(5) 0.07052(7)
N2 N -0.1057(5) 0.6002(5) 0.03918(9)
N3 N -0.0927(6) 0.5228(5) 0.02386(9)
N4 N 0.0137(6) 0.5117(5) 0.02929(8)
N5 N 0.0310(5) 0.0000 0.0000
N6 N 0.6542(5) 0.0000 0.0000
O1 O 0.0300(5) 0.9639(4) 0.05811(7)
O2 O 0.2520(5) 0.7618(5) 0.08646(8)
O3 O -0.0544(4) 0.2062(4) 0.00276(6)
O4 O -0.0848(4) 0.2435(4) 0.03896(7)
O5 O 0.2926(6) 0.5926(5) 0.01223(10)
O6 O -0.1773(4) -0.0207(4) 0.03577(6)
H17 H -0.164(6) 0.052(5) 0.0391(10)
H18 H -0.142(6) -0.048(6) 0.0440(10)
Co1_2 Co 0.84130(8) 0.0000 0.0000
C1G C -0.8321(8) -0.9698(6) -0.06162(9)
C2G C -0.8221(9) -1.0930(6) -0.05657(9)
C3G C -0.7003(8) -1.0908(6) -0.06040(9)
C4G C -0.5901(9) -0.9805(7) -0.07040(10)
C5G C -0.5997(8) -0.8602(6) -0.07633(9)
C6G C -0.9311(11) -1.2042(7) -0.04742(10)
H1G H -1.0127 -1.2040 -0.0446
C7G C -0.9205(11) -1.3200(7) -0.04218(11)
H2G H -0.9962 -1.3982 -0.0361
C8G C -0.8029(11) -1.3196(8) -0.04581(11)
H3G H -0.7971 -1.3971 -0.0419
C9G C -0.6913(10) -1.2084(7) -0.05514(11)
C10G C -0.5671(11) -1.2023(8) -0.05913(13)
H4G H -0.5572 -1.2772 -0.0550
C11G C -0.4616(11) -1.0929(8) -0.06861(12)
H5G H -0.3799 -1.0932 -0.0713
C12G C -0.4705(11) -0.9786(9) -0.07462(12)
H6G H -0.3962 -0.9022 -0.0814
C13G C -0.7180(8) -0.7318(6) -0.07383(10)
H7G H -0.8122 -0.7499 -0.0742
H8G H -0.6746 -0.6904 -0.0885
C14G C -0.6428(8) -0.6368(6) -0.05465(9)
C15G C -0.5093(8) -0.5774(6) -0.04852(9)
H9G H -0.4395 -0.5823 -0.0564
C16G C -0.3787(9) -0.4312(6) -0.01464(11)
H10G H -0.4065 -0.4491 0.0017
C17G C -0.2678(9) -0.4657(7) -0.01904(12)
H11G H -0.2474 -0.4567 -0.0355
H12G H -0.1848 -0.3992 -0.0110
C18G C -0.3202(8) -0.2793(6) -0.01973(10)
C19G C 0.1467(7) 0.1077(5) -0.00710(8)
H13G H 0.1439 0.1852 -0.0121
C20G C 0.2692(7) 0.1117(5) -0.00749(8)
H14G H 0.3479 0.1898 -0.0128
C23G C 0.5176(8) 0.0938(6) -0.01235(9)
H15G H 0.5119 0.1608 -0.0210
C24G C 0.6362(8) 0.0890(6) -0.01193(9)
H16G H 0.7099 0.1536 -0.0208
N1G N -0.7176(7) -0.8605(5) -0.07052(7)
N2G N -0.7059(7) -0.6002(5) -0.03918(9)
N3G N -0.6155(8) -0.5228(5) -0.02386(9)
N4G N -0.4980(8) -0.5117(5) -0.02929(8)
N6_2 N -0.3458(5) 0.0000 0.0000
O1G O -0.9339(6) -0.9639(4) -0.05811(7)
O2G O -0.5098(7) -0.7618(5) -0.08646(8)
O3G O -0.2606(6) -0.2062(4) -0.00276(6)
O4G O -0.3283(6) -0.2435(4) -0.03896(7)
O5G O -0.3000(8) -0.5926(5) -0.01223(10)
O6G O -0.1566(6) 0.0207(4) -0.03577(6)
H17G H -0.216(8) -0.052(5) -0.0391(10)
H18G H -0.094(8) 0.048(6) -0.0440(10)
O7 O -0.008(6) 0.336(5) -0.0424(9)
loop_
_geom_bond_atom_site_label_1
_geom_bond_atom_site_label_2
_geom_bond_site_symmetry_1
_geom_bond_site_symmetry_2
Co1 N5 1_555 1_555
C1 C2 1_555 1_555
C2 C3 1_555 1_555
C3 C4 1_555 1_555
C4 C5 1_555 1_555
C5 N1 1_555 1_555
C6 C2 1_555 1_555
H1 C6 1_555 1_555
C7 C6 1_555 1_555
H2 C7 1_555 1_555
C8 C7 1_555 1_555
H3 C8 1_555 1_555
C9 C3 1_555 1_555
C10 C9 1_555 1_555
H4 C10 1_555 1_555
C11 C10 1_555 1_555
H5 C11 1_555 1_555
C12 C4 1_555 1_555
H6 C12 1_555 1_555
C13 H7 1_555 1_555
H8 C13 1_555 1_555
C14 C13 1_555 1_555
C15 C14 1_555 1_555
H9 C15 1_555 1_555
C16 H10 1_555 1_555
C17 C16 1_555 1_555
H11 C17 1_555 1_555
H12 C17 1_555 1_555
C18 C16 1_555 1_555
C19 H13 1_555 1_555
C20 C19 1_555 1_555
H14 C20 1_555 1_555
C21 C20 1_555 1_555
C22 C21 1_555 1_555
C23 C22 1_555 1_555
H15 C23 1_555 1_555
C24 C23 1_555 1_555
H16 C24 1_555 1_555
N1 C1 1_555 1_555
N2 C14 1_555 1_555
N3 N2 1_555 1_555
N4 C15 1_555 1_555
N5 C19 1_555 1_555
N6 C24 1_555 1_555
O1 C1 1_555 1_555
O2 C5 1_555 1_555
O3 Co1 1_555 1_555
O4 C18 1_555 1_555
O5 C17 1_555 1_555
O6 Co1 1_555 1_555
H17 O6 1_555 1_555
H18 O6 1_555 1_555
Co1_2 N6 1_555 1_555
C1G C2G 1_555 1_555
C2G C3G 1_555 1_555
C3G C4G 1_555 1_555
C4G C5G 1_555 1_555
C5G N1G 1_555 1_555
C6G C2G 1_555 1_555
H1G C6G 1_555 1_555
C7G C6G 1_555 1_555
H2G C7G 1_555 1_555
C8G C7G 1_555 1_555
H3G C8G 1_555 1_555
C9G C3G 1_555 1_555
C10G C9G 1_555 1_555
H4G C10G 1_555 1_555
C11G C10G 1_555 1_555
H5G C11G 1_555 1_555
C12G C4G 1_555 1_555
H6G C12G 1_555 1_555
C13G H7G 1_555 1_555
H8G C13G 1_555 1_555
C14G C13G 1_555 1_555
C15G C14G 1_555 1_555
H9G C15G 1_555 1_555
C16G H10G 1_555 1_555
C17G C16G 1_555 1_555
H11G C17G 1_555 1_555
H12G C17G 1_555 1_555
C18G C16G 1_555 1_555
C19G N5 1_555 1_555
H13G C19G 1_555 1_555
C20G C21 1_555 1_555
H14G C20G 1_555 1_555
C23G C22 1_555 1_555
H15G C23G 1_555 1_555
C24G N6 1_555 1_555
H16G C24G 1_555 1_555
N1G C1G 1_555 1_555
N2G C14G 1_555 1_555
N3G N2G 1_555 1_555
N4G C15G 1_555 1_555
N6_2 Co1 1_555 1_555
O1G C1G 1_555 1_555
O2G C5G 1_555 1_555
O3G Co1 1_555 1_555
O4G C18G 1_555 1_555
O5G C17G 1_555 1_555
O6G Co1 1_555 1_555
H17G O6G 1_555 1_555
H18G O6G 1_555 1_555
C8 C9 1_555 1_555
C11 C12 1_555 1_555
C13 N1 1_555 1_555
C16 N4 1_555 1_555
C18 O3 1_555 1_555
N3 N4 1_555 1_555
C8G C9G 1_555 1_555
C11G C12G 1_555 1_555
C13G N1G 1_555 1_555
C16G N4G 1_555 1_555
C18G O3G 1_555 1_555
C19G C20G 1_555 1_555
C23G C24G 1_555 1_555
N3G N4G 1_555 1_555

#END
