
#######################################################################
#
#                 Cambridge Crystallographic Data Centre
#                                CCDC 
#
#######################################################################
#
# If this CIF has been generated from an entry in the Cambridge 
# Structural Database, then it will include bibliographic, chemical, 
# crystal, experimental, refinement or atomic coordinate data resulting 
# from the CCDC's data processing and validation procedures.
#
#######################################################################

data_ZASRIW
_symmetry_cell_setting           hexagonal
_symmetry_space_group_name_H-M   'P 61 2 2'
_symmetry_Int_Tables_number      178
_space_group_name_Hall           "P 61 2' (0,0,5)"
loop_
_symmetry_equiv_pos_site_id
_symmetry_equiv_pos_as_xyz
1 x,y,z
2 -y,x-y,1/3+z
3 -x+y,-x,2/3+z
4 -x,-y,1/2+z
5 y,-x+y,5/6+z
6 x-y,x,1/6+z
7 y,x,1/3-z
8 x-y,-y,-z
9 -x,-x+y,2/3-z
10 -y,-x,5/6-z
11 -x+y,y,1/2-z
12 x,x-y,1/6-z
_cell_length_a                   11.3835(2)
_cell_length_b                   11.3835(2)
_cell_length_c                   61.2732(15)
_cell_angle_alpha                90
_cell_angle_beta                 90
_cell_angle_gamma                120
_cell_volume                     6876.27
loop_
_atom_site_label
_atom_site_type_symbol
_atom_site_fract_x
_atom_site_fract_y
_atom_site_fract_z
Co1 Co -0.18802(4) 0.0000 0.0000
C1 C 0.0908(2) 0.9500(2) 0.06260(4)
C2 C 0.2171(3) 1.0738(2) 0.05661(4)
C3 C 0.3435(2) 1.0813(2) 0.06044(4)
C4 C 0.3505(2) 0.9737(3) 0.07057(4)
C5 C 0.2254(2) 0.8512(3) 0.07720(4)
C6 C 0.2126(3) 1.1802(3) 0.04659(4)
H1 H 0.1277 1.1746 0.0439
C7 C 0.3331(3) 1.2964(3) 0.04034(4)
H2 H 0.3294 1.3698 0.0337
C8 C 0.4550(3) 1.3049(3) 0.04371(4)
H3 H 0.5354 1.3841 0.0391
C9 C 0.4650(3) 1.1992(3) 0.05382(4)
C10 C 0.5894(3) 1.2038(3) 0.05758(5)
H4 H 0.6717 1.2821 0.0534
C11 C 0.5937(3) 1.0976(3) 0.06713(5)
H5 H 0.6786 1.1024 0.0693
C12 C 0.4744(3) 0.9822(3) 0.07372(4)
H6 H 0.4787 0.9091 0.0804
C13 C -0.0232(2) 0.7182(3) 0.07738(4)
H7 H -0.0986 0.7364 0.0799
H8 H -0.0113 0.6764 0.0907
C14 C -0.0569(2) 0.6229(2) 0.05852(4)
C15 C 0.0094(3) 0.5598(2) 0.05071(4)
H9 H 0.0831 0.5563 0.0573
C16 C -0.0187(3) 0.4325(3) 0.01496(4)
H10 H -0.0431 0.4498 0.0001
C17 C 0.1336(4) 0.4801(8) 0.01630(11)
H11 H 0.1535 0.4524 0.0305
H12 H 0.1576 0.4358 0.0046
O1 O 0.2129(3) 0.6211(3) 0.01410(6)
H13 H 0.2738 0.6516 0.0237
C18 C -0.0852(2) 0.2803(2) 0.01936(4)
C19 C 0.0085(2) -0.1073(2) 0.00700(3)
H14 H -0.0722 -0.1847 0.0120
C20 C 0.1282(2) -0.1112(2) 0.00739(4)
H15 H 0.1287 -0.1893 0.0127
C21 C 0.2476(3) 0.0000 0.0000
C22 C 0.3780(3) 0.0000 0.0000
C23 C 0.4044(2) -0.0750(3) 0.01510(4)
H16 H 0.3381 -0.1281 0.0257
C24 C 0.5268(2) -0.0721(3) 0.01467(4)
H17 H 0.5430 -0.1235 0.0252
N1 N 0.1027(2) 0.84672(19) 0.07274(3)
N2 N -0.1562(2) 0.6016(2) 0.04423(4)
N3 N -0.1526(2) 0.5289(2) 0.02774(4)
N4 N -0.0513(2) 0.5036(2) 0.03168(3)
N5 N 0.0009(2) 0.0000 0.0000
N6 N 0.6241(2) 0.0000 0.0000
O2 O -0.02202(18) 0.93438(18) 0.05905(3)
O3 O 0.22283(18) 0.75357(19) 0.08592(3)
O4 O -0.08746(15) 0.21165(15) 0.00289(2)
O5 O -0.12684(19) 0.23736(17) 0.03796(3)
O6 O -0.20268(18) -0.02093(18) 0.03426(3)
H18 H -0.180(3) 0.057(2) 0.0373(5)
H19 H -0.152(3) -0.037(3) 0.0409(5)
Co1_2 Co 0.81198(4) 0.0000 0.0000
C1G C -0.8592(3) -0.9500(2) -0.06260(4)
C2G C -0.8567(4) -1.0738(2) -0.05661(4)
C3G C -0.7378(3) -1.0813(2) -0.06044(4)
C4G C -0.6232(4) -0.9737(3) -0.07057(4)
C5G C -0.6258(4) -0.8512(3) -0.07720(4)
C6G C -0.9676(4) -1.1802(3) -0.04659(4)
H1G H -1.0469 -1.1746 -0.0439
C7G C -0.9633(4) -1.2964(3) -0.04034(4)
H2G H -1.0404 -1.3698 -0.0337
C8G C -0.8499(4) -1.3049(3) -0.04371(4)
H3G H -0.8487 -1.3841 -0.0391
C9G C -0.7342(4) -1.1992(3) -0.05382(4)
C10G C -0.6144(4) -1.2038(3) -0.05758(5)
H4G H -0.6104 -1.2821 -0.0534
C11G C -0.5039(4) -1.0976(3) -0.06713(5)
H5G H -0.4238 -1.1024 -0.0693
C12G C -0.5078(4) -0.9822(3) -0.07372(4)
H6G H -0.4304 -0.9091 -0.0804
C13G C -0.7414(4) -0.7182(3) -0.07738(4)
H7G H -0.8350 -0.7364 -0.0799
H8G H -0.6877 -0.6764 -0.0907
C14G C -0.6798(3) -0.6229(2) -0.05852(4)
C15G C -0.5504(4) -0.5598(2) -0.05071(4)
H9G H -0.4732 -0.5563 -0.0573
C16G C -0.4512(4) -0.4325(3) -0.01496(4)
H10G H -0.4929 -0.4498 -0.0001
C17G C -0.3465(9) -0.4801(8) -0.01630(11)
H11G H -0.2989 -0.4524 -0.0305
H12G H -0.2782 -0.4358 -0.0046
O1G O -0.4082(4) -0.6211(3) -0.01410(6)
H13G H -0.3778 -0.6516 -0.0237
C18G C -0.3655(3) -0.2803(2) -0.01936(4)
C19G C 0.1158(3) 0.1073(2) -0.00700(3)
H14G H 0.1125 0.1847 -0.0120
C20G C 0.2394(3) 0.1112(2) -0.00739(4)
H15G H 0.3180 0.1893 -0.0127
C23G C 0.4794(4) 0.0750(3) -0.01510(4)
H16G H 0.4662 0.1281 -0.0257
C24G C 0.5989(4) 0.0721(3) -0.01467(4)
H17G H 0.6665 0.1235 -0.0252
N1G N -0.74402(28) -0.84672(19) -0.07274(3)
N2G N -0.7578(3) -0.6016(2) -0.04423(4)
N3G N -0.6815(3) -0.5289(2) -0.02774(4)
N4G N -0.5549(3) -0.5036(2) -0.03168(3)
N6_2 N -0.3759(2) 0.0000 0.0000
O2G O -0.95640(25) -0.93438(18) -0.05905(3)
O3G O -0.53074(26) -0.75357(19) -0.08592(3)
O4G O -0.29911(21) -0.21165(15) -0.00289(2)
O5G O -0.36420(25) -0.23736(17) -0.03796(3)
O6G O -0.18175(25) 0.02093(18) -0.03426(3)
H18G H -0.237(4) -0.057(2) -0.0373(5)
H19G H -0.115(4) 0.037(3) -0.0409(5)
O7 O 0.3902(2) 0.7228(2) 0.11814(3)
H20 H 0.3634 0.7195 0.1053
H21 H 0.4542 0.8025 0.1200
O8 O 0.6235(2) 0.9651(2) 0.12792(4)
H22 H 0.6621 0.9568 0.1168
H23 H 0.6455 0.9412 0.1395
O9 O 0.6846(7) 0.8423(3) 0.0833
C25? C -0.0187(3) 0.4325(3) 0.01496(4)
C26? C 0.1321(5) 0.5043(15) 0.00886(14)
H24? H -0.0648 0.4390 0.0015
H25? H 0.1459 0.4733 -0.0055
H26? H 0.1715 0.6040 0.0085
H27? H 0.2504 0.5365 0.0315
O10? O 0.1892(5) 0.4657(5) 0.02562(9)
loop_
_geom_bond_atom_site_label_1
_geom_bond_atom_site_label_2
_geom_bond_site_symmetry_1
_geom_bond_site_symmetry_2
Co1 N5 1_555 1_555
C1 C2 1_555 1_555
C2 C3 1_555 1_555
C3 C4 1_555 1_555
C4 C5 1_555 1_555
C5 N1 1_555 1_555
C6 C2 1_555 1_555
H1 C6 1_555 1_555
C7 C6 1_555 1_555
H2 C7 1_555 1_555
C8 C7 1_555 1_555
H3 C8 1_555 1_555
C9 C3 1_555 1_555
C10 C9 1_555 1_555
H4 C10 1_555 1_555
C11 C10 1_555 1_555
H5 C11 1_555 1_555
C12 C4 1_555 1_555
H6 C12 1_555 1_555
C13 H7 1_555 1_555
H8 C13 1_555 1_555
C14 C13 1_555 1_555
C15 C14 1_555 1_555
H9 C15 1_555 1_555
C16 H10 1_555 1_555
C17 C16 1_555 1_555
H11 C17 1_555 1_555
H12 C17 1_555 1_555
O1 C17 1_555 1_555
H13 O1 1_555 1_555
C18 C16 1_555 1_555
C19 H14 1_555 1_555
C20 C19 1_555 1_555
H15 C20 1_555 1_555
C21 C20 1_555 1_555
C22 C21 1_555 1_555
C23 C22 1_555 1_555
H16 C23 1_555 1_555
C24 C23 1_555 1_555
H17 C24 1_555 1_555
N1 C1 1_555 1_555
N2 C14 1_555 1_555
N3 N2 1_555 1_555
N4 C15 1_555 1_555
N5 C19 1_555 1_555
N6 C24 1_555 1_555
O2 C1 1_555 1_555
O3 C5 1_555 1_555
O4 Co1 1_555 1_555
O5 C18 1_555 1_555
O6 Co1 1_555 1_555
H18 O6 1_555 1_555
H19 O6 1_555 1_555
O7 H20 1_555 1_555
H21 O7 1_555 1_555
O8 H22 1_555 1_555
H23 O8 1_555 1_555
Co1_2 N6 1_555 1_555
C1G C2G 1_555 1_555
C2G C3G 1_555 1_555
C3G C4G 1_555 1_555
C4G C5G 1_555 1_555
C5G N1G 1_555 1_555
C6G C2G 1_555 1_555
H1G C6G 1_555 1_555
C7G C6G 1_555 1_555
H2G C7G 1_555 1_555
C8G C7G 1_555 1_555
H3G C8G 1_555 1_555
C9G C3G 1_555 1_555
C10G C9G 1_555 1_555
H4G C10G 1_555 1_555
C11G C10G 1_555 1_555
H5G C11G 1_555 1_555
C12G C4G 1_555 1_555
H6G C12G 1_555 1_555
C13G H7G 1_555 1_555
H8G C13G 1_555 1_555
C14G C13G 1_555 1_555
C15G C14G 1_555 1_555
H9G C15G 1_555 1_555
C16G H10G 1_555 1_555
C17G C16G 1_555 1_555
H11G C17G 1_555 1_555
H12G C17G 1_555 1_555
O1G C17G 1_555 1_555
H13G O1G 1_555 1_555
C18G C16G 1_555 1_555
C19G N5 1_555 1_555
H14G C19G 1_555 1_555
C20G C21 1_555 1_555
H15G C20G 1_555 1_555
C23G C22 1_555 1_555
H16G C23G 1_555 1_555
C24G N6 1_555 1_555
H17G C24G 1_555 1_555
N1G C1G 1_555 1_555
N2G C14G 1_555 1_555
N3G N2G 1_555 1_555
N4G C15G 1_555 1_555
N6_2 Co1 1_555 1_555
O2G C1G 1_555 1_555
O3G C5G 1_555 1_555
O4G Co1 1_555 1_555
O5G C18G 1_555 1_555
O6G Co1 1_555 1_555
H18G O6G 1_555 1_555
H19G O6G 1_555 1_555
C8 C9 1_555 1_555
C11 C12 1_555 1_555
C13 N1 1_555 1_555
C16 N4 1_555 1_555
C18 O4 1_555 1_555
N3 N4 1_555 1_555
C8G C9G 1_555 1_555
C11G C12G 1_555 1_555
C13G N1G 1_555 1_555
C16G N4G 1_555 1_555
C18G O4G 1_555 1_555
C19G C20G 1_555 1_555
C23G C24G 1_555 1_555
N3G N4G 1_555 1_555

#END
