
#######################################################################
#
#                 Cambridge Crystallographic Data Centre
#                                CCDC 
#
#######################################################################
#
# If this CIF has been generated from an entry in the Cambridge 
# Structural Database, then it will include bibliographic, chemical, 
# crystal, experimental, refinement or atomic coordinate data resulting 
# from the CCDC's data processing and validation procedures.
#
#######################################################################

data_ZASRAO
_symmetry_cell_setting           hexagonal
_symmetry_space_group_name_H-M   'P 61 2 2'
_symmetry_Int_Tables_number      178
_space_group_name_Hall           "P 61 2' (0,0,5)"
loop_
_symmetry_equiv_pos_site_id
_symmetry_equiv_pos_as_xyz
1 x,y,z
2 -y,x-y,1/3+z
3 -x+y,-x,2/3+z
4 -x,-y,1/2+z
5 y,-x+y,5/6+z
6 x-y,x,1/6+z
7 y,x,1/3-z
8 x-y,-y,-z
9 -x,-x+y,2/3-z
10 -y,-x,5/6-z
11 -x+y,y,1/2-z
12 x,x-y,1/6-z
_cell_length_a                   11.29270(10)
_cell_length_b                   11.29270(10)
_cell_length_c                   61.7710(10)
_cell_angle_alpha                90
_cell_angle_beta                 90
_cell_angle_gamma                120
_cell_volume                     6821.99
loop_
_atom_site_label
_atom_site_type_symbol
_atom_site_fract_x
_atom_site_fract_y
_atom_site_fract_z
Ni1 Ni -0.19722(5) 0.0000 0.0000
C1 C 0.0864(4) 0.9522(4) 0.06236(5)
C2 C 0.2127(4) 1.0781(4) 0.05625(5)
C3 C 0.3410(4) 1.0869(4) 0.05963(5)
C4 C 0.3495(4) 0.9785(4) 0.06937(5)
C5 C 0.2251(4) 0.8546(4) 0.07625(5)
C6 C 0.2064(5) 1.1852(4) 0.04676(5)
H1 H 0.1202 1.1784 0.0442
C7 C 0.3264(6) 1.3035(4) 0.04084(7)
H2 H 0.3214 1.3779 0.0347
C8 C 0.4517(5) 1.3137(5) 0.04386(6)
H3 H 0.5322 1.3951 0.0397
C9 C 0.4626(4) 1.2067(5) 0.05294(6)
C10 C 0.5894(5) 1.2110(5) 0.05655(7)
H4 H 0.6723 1.2902 0.0525
C11 C 0.5940(5) 1.1047(6) 0.06563(8)
H5 H 0.6799 1.1100 0.0677
C12 C 0.4752(4) 0.9876(5) 0.07206(7)
H6 H 0.4806 0.9136 0.0783
C13 C -0.0237(4) 0.7185(4) 0.07679(5)
H7 H -0.1010 0.7345 0.0795
H8 H -0.0097 0.6765 0.0899
C14 C -0.0561(4) 0.6243(4) 0.05785(6)
C15 C 0.0130(4) 0.5647(4) 0.04936(6)
H9 H 0.0902 0.5642 0.0553
C16 C -0.0196(5) 0.4350(4) 0.01422(6)
H10 H -0.0612 0.4420 0.0003
C17 C 0.1330(6) 0.5036(5) 0.01088(11)
H11 H 0.1708 0.6023 0.0092
H12 H 0.1523 0.4665 -0.0021
H13 H 0.1752 0.4864 0.0235
C18 C -0.0789(4) 0.2835(4) 0.01924(6)
C19 C -0.0030(3) -0.1072(3) 0.00729(5)
H14 H -0.0839 -0.1844 0.0125
C20 C 0.1172(3) -0.1112(3) 0.00756(5)
H15 H 0.1178 -0.1898 0.0129
C21 C 0.2376(4) 0.0000 0.0000
C22 C 0.3696(4) 0.0000 0.0000
C23 C 0.3924(3) -0.0839(4) 0.01384(5)
H16 H 0.3228 -0.1430 0.0236
C24 C 0.5163(3) -0.0811(4) 0.01339(5)
H17 H 0.5296 -0.1391 0.0230
N1 N 0.1010(3) 0.8492(3) 0.07211(4)
N2 N -0.1603(3) 0.5983(3) 0.04440(6)
N3 N -0.1581(4) 0.5266(4) 0.02803(5)
N4 N -0.0514(3) 0.5072(3) 0.03083(5)
N5 N -0.0114(3) 0.0000 0.0000
N6 N 0.6181(3) 0.0000 0.0000
O1 O -0.0278(3) 0.9358(3) 0.05908(4)
O2 O 0.2243(3) 0.7574(3) 0.08489(5)
O3 O -0.0944(2) 0.2109(2) 0.00265(3)
O4 O -0.1051(3) 0.2451(3) 0.03814(4)
O5 O -0.2137(3) -0.0220(3) 0.03322(4)
H18 H -0.185(5) 0.054(3) 0.0353(8)
H19 H -0.171(4) -0.046(5) 0.0392(7)
Ni1_2 Ni 0.80278(5) 0.0000 0.0000
C1G C -0.8658(6) -0.9522(4) -0.06236(5)
C2G C -0.8654(6) -1.0781(4) -0.05625(5)
C3G C -0.7459(6) -1.0869(4) -0.05963(5)
C4G C -0.6290(6) -0.9785(4) -0.06937(5)
C5G C -0.6295(6) -0.8546(4) -0.07625(5)
C6G C -0.9788(6) -1.1852(4) -0.04676(5)
H1G H -1.0582 -1.1784 -0.0442
C7G C -0.9771(7) -1.3035(4) -0.04084(7)
H2G H -1.0565 -1.3779 -0.0347
C8G C -0.8620(7) -1.3137(5) -0.04386(6)
H3G H -0.8629 -1.3951 -0.0397
C9G C -0.7441(6) -1.2067(5) -0.05294(6)
C10G C -0.6216(7) -1.2110(5) -0.05655(7)
H4G H -0.6179 -1.2902 -0.0525
C11G C -0.5107(8) -1.1047(6) -0.06563(8)
H5G H -0.4301 -1.1100 -0.0677
C12G C -0.5124(6) -0.9876(5) -0.07206(7)
H6G H -0.4330 -0.9136 -0.0783
C13G C -0.7422(6) -0.7185(4) -0.07679(5)
H7G H -0.8355 -0.7345 -0.0795
H8G H -0.6862 -0.6765 -0.0899
C14G C -0.6804(6) -0.6243(4) -0.05785(6)
C15G C -0.5517(6) -0.5647(4) -0.04936(6)
H9G H -0.4740 -0.5642 -0.0553
C16G C -0.4546(6) -0.4350(4) -0.01422(6)
H10G H -0.5032 -0.4420 -0.0003
C17G C -0.3706(8) -0.5036(5) -0.01088(11)
H11G H -0.4315 -0.6023 -0.0092
H12G H -0.3142 -0.4665 0.0021
H13G H -0.3112 -0.4864 -0.0235
C18G C -0.3624(6) -0.2835(4) -0.01924(6)
C19G C 0.1042(4) 0.1072(3) -0.00729(5)
H14G H 0.1005 0.1844 -0.0125
C20G C 0.2284(4) 0.1112(3) -0.00756(5)
H15G H 0.3076 0.1898 -0.0129
C23G C 0.4763(5) 0.0839(4) -0.01384(5)
H16G H 0.4658 0.1430 -0.0236
C24G C 0.5974(5) 0.0811(4) -0.01339(5)
H17G H 0.6687 0.1391 -0.0230
N1G N -0.7482(4) -0.8492(3) -0.07211(4)
N2G N -0.7586(4) -0.5983(3) -0.04440(6)
N3G N -0.6847(6) -0.5266(4) -0.02803(5)
N4G N -0.5586(4) -0.5072(3) -0.03083(5)
N6_2 N -0.3819(3) 0.0000 0.0000
O1G O -0.9636(4) -0.9358(3) -0.05908(4)
O2G O -0.5331(4) -0.7574(3) -0.08489(5)
O3G O -0.3053(3) -0.2109(2) -0.00265(3)
O4G O -0.3502(4) -0.2451(3) -0.03814(4)
O5G O -0.1917(4) 0.0220(3) -0.03322(4)
H18G H -0.239(6) -0.054(3) -0.0353(8)
H19G H -0.125(6) 0.046(5) -0.0392(7)
O6 O 0.3825(5) 0.7172(4) 0.11756(7)
H20 H 0.3442 0.7312 0.1070
H21 H 0.4551 0.7922 0.1192
O7 O 0.6259(4) 0.9569(4) 0.12581(8)
H22 H 0.6518 0.9376 0.1374
H23 H 0.6545 0.9403 0.1143
O8 O 0.7044(9) 0.8522(4) 0.0833
loop_
_geom_bond_atom_site_label_1
_geom_bond_atom_site_label_2
_geom_bond_site_symmetry_1
_geom_bond_site_symmetry_2
Ni1 N5 1_555 1_555
C1 C2 1_555 1_555
C2 C3 1_555 1_555
C3 C4 1_555 1_555
C4 C5 1_555 1_555
C5 N1 1_555 1_555
C6 C2 1_555 1_555
H1 C6 1_555 1_555
C7 C6 1_555 1_555
H2 C7 1_555 1_555
C8 C7 1_555 1_555
H3 C8 1_555 1_555
C9 C3 1_555 1_555
C10 C9 1_555 1_555
H4 C10 1_555 1_555
C11 C10 1_555 1_555
H5 C11 1_555 1_555
C12 C4 1_555 1_555
H6 C12 1_555 1_555
C13 H7 1_555 1_555
H8 C13 1_555 1_555
C14 C13 1_555 1_555
C15 C14 1_555 1_555
H9 C15 1_555 1_555
C16 H10 1_555 1_555
C17 C16 1_555 1_555
H11 C17 1_555 1_555
H12 C17 1_555 1_555
H13 C17 1_555 1_555
C18 C16 1_555 1_555
C19 H14 1_555 1_555
C20 C19 1_555 1_555
H15 C20 1_555 1_555
C21 C20 1_555 1_555
C22 C21 1_555 1_555
C23 C22 1_555 1_555
H16 C23 1_555 1_555
C24 C23 1_555 1_555
H17 C24 1_555 1_555
N1 C1 1_555 1_555
N2 C14 1_555 1_555
N3 N2 1_555 1_555
N4 C15 1_555 1_555
N5 C19 1_555 1_555
N6 C24 1_555 1_555
O1 C1 1_555 1_555
O2 C5 1_555 1_555
O3 Ni1 1_555 1_555
O4 C18 1_555 1_555
O5 Ni1 1_555 1_555
H18 O5 1_555 1_555
H19 O5 1_555 1_555
O6 H20 1_555 1_555
H21 O6 1_555 1_555
O7 H22 1_555 1_555
H23 O7 1_555 1_555
Ni1_2 N6 1_555 1_555
C1G C2G 1_555 1_555
C2G C3G 1_555 1_555
C3G C4G 1_555 1_555
C4G C5G 1_555 1_555
C5G N1G 1_555 1_555
C6G C2G 1_555 1_555
H1G C6G 1_555 1_555
C7G C6G 1_555 1_555
H2G C7G 1_555 1_555
C8G C7G 1_555 1_555
H3G C8G 1_555 1_555
C9G C3G 1_555 1_555
C10G C9G 1_555 1_555
H4G C10G 1_555 1_555
C11G C10G 1_555 1_555
H5G C11G 1_555 1_555
C12G C4G 1_555 1_555
H6G C12G 1_555 1_555
C13G H7G 1_555 1_555
H8G C13G 1_555 1_555
C14G C13G 1_555 1_555
C15G C14G 1_555 1_555
H9G C15G 1_555 1_555
C16G H10G 1_555 1_555
C17G C16G 1_555 1_555
H11G C17G 1_555 1_555
H12G C17G 1_555 1_555
H13G C17G 1_555 1_555
C18G C16G 1_555 1_555
C19G N5 1_555 1_555
H14G C19G 1_555 1_555
C20G C21 1_555 1_555
H15G C20G 1_555 1_555
C23G C22 1_555 1_555
H16G C23G 1_555 1_555
C24G N6 1_555 1_555
H17G C24G 1_555 1_555
N1G C1G 1_555 1_555
N2G C14G 1_555 1_555
N3G N2G 1_555 1_555
N4G C15G 1_555 1_555
N6_2 Ni1 1_555 1_555
O1G C1G 1_555 1_555
O2G C5G 1_555 1_555
O3G Ni1 1_555 1_555
O4G C18G 1_555 1_555
O5G Ni1 1_555 1_555
H18G O5G 1_555 1_555
H19G O5G 1_555 1_555
C8 C9 1_555 1_555
C11 C12 1_555 1_555
C13 N1 1_555 1_555
C16 N4 1_555 1_555
C18 O3 1_555 1_555
N3 N4 1_555 1_555
C8G C9G 1_555 1_555
C11G C12G 1_555 1_555
C13G N1G 1_555 1_555
C16G N4G 1_555 1_555
C18G O3G 1_555 1_555
C19G C20G 1_555 1_555
C23G C24G 1_555 1_555
N3G N4G 1_555 1_555

#END
