
#######################################################################
#
#                 Cambridge Crystallographic Data Centre
#                                CCDC 
#
#######################################################################
#
# If this CIF has been generated from an entry in the Cambridge 
# Structural Database, then it will include bibliographic, chemical, 
# crystal, experimental, refinement or atomic coordinate data resulting 
# from the CCDC's data processing and validation procedures.
#
#######################################################################

data_ZASRUI
_symmetry_cell_setting           hexagonal
_symmetry_space_group_name_H-M   'P 61 2 2'
_symmetry_Int_Tables_number      178
_space_group_name_Hall           "P 61 2' (0,0,5)"
loop_
_symmetry_equiv_pos_site_id
_symmetry_equiv_pos_as_xyz
1 x,y,z
2 x-y,x,1/6+z
3 -y,x-y,1/3+z
4 -x,-y,1/2+z
5 -x+y,-x,2/3+z
6 y,-x+y,5/6+z
7 x-y,-y,-z
8 -x,-x+y,2/3-z
9 y,x,1/3-z
10 -y,-x,5/6-z
11 -x+y,y,1/2-z
12 x,x-y,1/6-z
_cell_length_a                   11.3480(4)
_cell_length_b                   11.3480(4)
_cell_length_c                   62.182(3)
_cell_angle_alpha                90
_cell_angle_beta                 90
_cell_angle_gamma                120
_cell_volume                     6934.8
loop_
_atom_site_label
_atom_site_type_symbol
_atom_site_fract_x
_atom_site_fract_y
_atom_site_fract_z
Ni1 Ni -0.19746(4) 0.0000 0.0000
C1 C 0.0814(3) 0.9468(3) 0.06242(4)
C2 C 0.2076(3) 1.0711(3) 0.05652(4)
C3 C 0.3346(3) 1.0787(3) 0.06035(4)
C4 C 0.3411(3) 0.9710(3) 0.07028(5)
C5 C 0.2158(3) 0.8479(3) 0.07678(5)
C6 C 0.2029(4) 1.1777(3) 0.04672(5)
H1 H 0.1196 1.1721 0.0441
C7 C 0.3236(5) 1.2941(4) 0.04066(6)
H2 H 0.3201 1.3662 0.0342
C8 C 0.4455(5) 1.3030(4) 0.04414(6)
H3 H 0.5244 1.3815 0.0400
C9 C 0.4562(4) 1.1971(4) 0.05390(6)
C10 C 0.5812(4) 1.2014(5) 0.05786(6)
H4 H 0.6623 1.2786 0.0541
C11 C 0.5845(4) 1.0955(5) 0.06703(7)
H5 H 0.6677 1.0996 0.0690
C12 C 0.4657(3) 0.9801(4) 0.07360(6)
H6 H 0.4702 0.9091 0.0802
C13 C -0.0331(3) 0.7132(3) 0.07669(5)
H7 H -0.1076 0.7303 0.0792
H8 H -0.0212 0.6713 0.0895
C14 C -0.0658(3) 0.6195(3) 0.05788(5)
C15 C -0.0001(3) 0.5557(3) 0.05004(5)
H9 H 0.0715 0.5509 0.0564
C16 C -0.0284(4) 0.4302(3) 0.01470(5)
H10 H -0.0555 0.4456 0.0005
C17 C 0.1251(6) 0.4796(19) 0.0151(2)
H11 H 0.1478 0.4522 0.0285
H12 H 0.1470 0.4372 0.0034
O1 O 0.2013(6) 0.6187(5) 0.01309(10)
H13 H 0.2623 0.6492 0.0227
C18 C -0.0934(3) 0.2772(3) 0.01917(4)
C19 C -0.0021(3) -0.1070(3) 0.00693(4)
H14 H -0.0811 -0.1828 0.0118
C20 C 0.1175(3) -0.1115(3) 0.00724(4)
H15 H 0.1177 -0.1886 0.0123
C21 C 0.2374(3) 0.0000 0.0000
C22 C 0.3689(3) 0.0000 0.0000
C23 C 0.3951(3) -0.0765(3) 0.01454(5)
H16 H 0.3296 -0.1299 0.0246
C24 C 0.5180(3) -0.0740(3) 0.01411(5)
H17 H 0.5329 -0.1261 0.0241
N1 N 0.0928(2) 0.8427(2) 0.07228(4)
N2 N -0.1646(3) 0.5987(3) 0.04383(5)
N3 N -0.1613(3) 0.5273(3) 0.02754(5)
N4 N -0.0606(3) 0.5011(2) 0.03123(4)
N5 N -0.0107(2) 0.0000 0.0000
N6 N 0.6164(2) 0.0000 0.0000
O2 O -0.0318(2) 0.9310(2) 0.05883(4)
O3 O 0.2135(3) 0.7502(3) 0.08534(4)
O4 O -0.09758(19) 0.20885(18) 0.00291(3)
O5 O -0.1317(3) 0.2354(2) 0.03757(4)
O6 O -0.2126(2) -0.0239(2) 0.03320(3)
H18 H -0.187(4) 0.055(3) 0.0356(6)
H19 H -0.168(4) -0.045(4) 0.0402(6)
Ni1_2 Ni 0.80254(4) 0.0000 0.0000
C1F C -0.8654(4) -0.9468(3) -0.06242(4)
C2F C -0.8635(4) -1.0711(3) -0.05652(4)
C3F C -0.7441(4) -1.0787(3) -0.06035(4)
C4F C -0.6299(4) -0.9710(3) -0.07028(5)
C5F C -0.6321(4) -0.8479(3) -0.07678(5)
C6F C -0.9748(5) -1.1777(3) -0.04672(5)
H1F H -1.0525 -1.1721 -0.0441
C7F C -0.9705(6) -1.2941(4) -0.04066(6)
H2F H -1.0461 -1.3662 -0.0342
C8F C -0.8575(6) -1.3030(4) -0.04414(6)
H3F H -0.8571 -1.3815 -0.0400
C9F C -0.7409(6) -1.1971(4) -0.05390(6)
C10F C -0.6202(6) -1.2014(5) -0.05786(6)
H4F H -0.6163 -1.2786 -0.0541
C11F C -0.5110(6) -1.0955(5) -0.06703(7)
H5F H -0.4319 -1.0996 -0.0690
C12F C -0.5144(5) -0.9801(4) -0.07360(6)
H6F H -0.4389 -0.9091 -0.0802
C13F C -0.7463(4) -0.7132(3) -0.07669(5)
H7F H -0.8379 -0.7303 -0.0792
H8F H -0.6925 -0.6713 -0.0895
C14F C -0.6853(4) -0.6195(3) -0.05788(5)
C15F C -0.5558(4) -0.5557(3) -0.05004(5)
H9F H -0.4794 -0.5509 -0.0564
C16F C -0.4586(5) -0.4302(3) -0.01470(5)
H10F H -0.5011 -0.4456 -0.0005
C17F C -0.3545(20) -0.4796(19) -0.0151(2)
H11F H -0.3044 -0.4522 -0.0285
H12F H -0.2902 -0.4372 -0.0034
O1F O -0.4174(8) -0.6187(5) -0.01309(10)
H13F H -0.3869 -0.6492 -0.0227
C18F C -0.3706(4) -0.2772(3) -0.01917(4)
C19F C 0.1049(4) 0.1070(3) -0.00693(4)
H14F H 0.1017 0.1828 -0.0118
C20F C 0.2290(4) 0.1115(3) -0.00724(4)
H15F H 0.3063 0.1886 -0.0123
C23F C 0.4716(4) 0.0765(3) -0.01454(5)
H16F H 0.4595 0.1299 -0.0246
C24F C 0.5920(4) 0.0740(3) -0.01411(5)
H17F H 0.6590 0.1261 -0.0241
N1F N -0.7499(3) -0.8427(2) -0.07228(4)
N2F N -0.7633(4) -0.5987(3) -0.04383(5)
N3F N -0.6886(4) -0.5273(3) -0.02754(5)
N4F N -0.5617(4) -0.5011(2) -0.03123(4)
N6_2 N -0.3836(2) 0.0000 0.0000
O2F O -0.9628(3) -0.9310(2) -0.05883(4)
O3F O -0.5367(4) -0.7502(3) -0.08534(4)
O4F O -0.30643(26) -0.20885(18) -0.00291(3)
O5F O -0.3671(4) -0.2354(2) -0.03757(4)
O6F O -0.1887(3) 0.0239(2) -0.03320(3)
H18F H -0.242(5) -0.055(3) -0.0356(6)
H19F H -0.123(6) 0.045(4) -0.0402(6)
O7 O 0.3778(3) 0.7145(4) 0.11822(5)
H20 H 0.3511 0.7113 0.1053
H21 H 0.4418 0.7942 0.1200
O8 O 0.6193(3) 0.9545(3) 0.12665(6)
H22 H 0.6579 0.9463 0.1155
H23 H 0.6413 0.9306 0.1382
O9 O 0.6856(9) 0.8428(4) 0.0833
C25? C -0.0284(4) 0.4302(3) 0.01470(5)
C26? C 0.1232(7) 0.503(3) 0.0085(2)
H24? H -0.0747 0.4357 0.0018
H25? H 0.1359 0.4734 -0.0055
H26? H 0.1611 0.6010 0.0083
H27? H 0.2438 0.5369 0.0304
O10? O 0.1825(8) 0.4661(7) 0.02443(14)
loop_
_geom_bond_atom_site_label_1
_geom_bond_atom_site_label_2
_geom_bond_site_symmetry_1
_geom_bond_site_symmetry_2
Ni1 N5 1_555 1_555
C1 C2 1_555 1_555
C2 C3 1_555 1_555
C3 C4 1_555 1_555
C4 C5 1_555 1_555
C5 N1 1_555 1_555
C6 C2 1_555 1_555
H1 C6 1_555 1_555
C7 C6 1_555 1_555
H2 C7 1_555 1_555
C8 C7 1_555 1_555
H3 C8 1_555 1_555
C9 C3 1_555 1_555
C10 C9 1_555 1_555
H4 C10 1_555 1_555
C11 C10 1_555 1_555
H5 C11 1_555 1_555
C12 C4 1_555 1_555
H6 C12 1_555 1_555
C13 H7 1_555 1_555
H8 C13 1_555 1_555
C14 C13 1_555 1_555
C15 C14 1_555 1_555
H9 C15 1_555 1_555
C16 H10 1_555 1_555
C17 C16 1_555 1_555
H11 C17 1_555 1_555
H12 C17 1_555 1_555
O1 C17 1_555 1_555
H13 O1 1_555 1_555
C18 C16 1_555 1_555
C19 H14 1_555 1_555
C20 C19 1_555 1_555
H15 C20 1_555 1_555
C21 C20 1_555 1_555
C22 C21 1_555 1_555
C23 C22 1_555 1_555
H16 C23 1_555 1_555
C24 C23 1_555 1_555
H17 C24 1_555 1_555
N1 C1 1_555 1_555
N2 C14 1_555 1_555
N3 N2 1_555 1_555
N4 C15 1_555 1_555
N5 C19 1_555 1_555
N6 C24 1_555 1_555
O2 C1 1_555 1_555
O3 C5 1_555 1_555
O4 Ni1 1_555 1_555
O5 C18 1_555 1_555
O6 Ni1 1_555 1_555
H18 O6 1_555 1_555
H19 O6 1_555 1_555
O7 H20 1_555 1_555
H21 O7 1_555 1_555
O8 H22 1_555 1_555
H23 O8 1_555 1_555
Ni1_2 N6 1_555 1_555
C1F C2F 1_555 1_555
C2F C3F 1_555 1_555
C3F C4F 1_555 1_555
C4F C5F 1_555 1_555
C5F N1F 1_555 1_555
C6F C2F 1_555 1_555
H1F C6F 1_555 1_555
C7F C6F 1_555 1_555
H2F C7F 1_555 1_555
C8F C7F 1_555 1_555
H3F C8F 1_555 1_555
C9F C3F 1_555 1_555
C10F C9F 1_555 1_555
H4F C10F 1_555 1_555
C11F C10F 1_555 1_555
H5F C11F 1_555 1_555
C12F C4F 1_555 1_555
H6F C12F 1_555 1_555
C13F H7F 1_555 1_555
H8F C13F 1_555 1_555
C14F C13F 1_555 1_555
C15F C14F 1_555 1_555
H9F C15F 1_555 1_555
C16F H10F 1_555 1_555
C17F C16F 1_555 1_555
H11F C17F 1_555 1_555
H12F C17F 1_555 1_555
O1F C17F 1_555 1_555
H13F O1F 1_555 1_555
C18F C16F 1_555 1_555
C19F N5 1_555 1_555
H14F C19F 1_555 1_555
C20F C21 1_555 1_555
H15F C20F 1_555 1_555
C23F C22 1_555 1_555
H16F C23F 1_555 1_555
C24F N6 1_555 1_555
H17F C24F 1_555 1_555
N1F C1F 1_555 1_555
N2F C14F 1_555 1_555
N3F N2F 1_555 1_555
N4F C15F 1_555 1_555
N6_2 Ni1 1_555 1_555
O2F C1F 1_555 1_555
O3F C5F 1_555 1_555
O4F Ni1 1_555 1_555
O5F C18F 1_555 1_555
O6F Ni1 1_555 1_555
H18F O6F 1_555 1_555
H19F O6F 1_555 1_555
C8 C9 1_555 1_555
C11 C12 1_555 1_555
C13 N1 1_555 1_555
C16 N4 1_555 1_555
C18 O4 1_555 1_555
N3 N4 1_555 1_555
C8F C9F 1_555 1_555
C11F C12F 1_555 1_555
C13F N1F 1_555 1_555
C16F N4F 1_555 1_555
C18F O4F 1_555 1_555
C19F C20F 1_555 1_555
C23F C24F 1_555 1_555
N3F N4F 1_555 1_555

#END
