
#######################################################################
#
#                 Cambridge Crystallographic Data Centre
#                                CCDC 
#
#######################################################################
#
# If this CIF has been generated from an entry in the Cambridge 
# Structural Database, then it will include bibliographic, chemical, 
# crystal, experimental, refinement or atomic coordinate data resulting 
# from the CCDC's data processing and validation procedures.
#
#######################################################################

data_ZASSAP
_symmetry_cell_setting           hexagonal
_symmetry_space_group_name_H-M   'P 61 2 2'
_symmetry_Int_Tables_number      178
_space_group_name_Hall           "P 61 2' (0,0,5)"
loop_
_symmetry_equiv_pos_site_id
_symmetry_equiv_pos_as_xyz
1 x,y,z
2 -y,x-y,1/3+z
3 -x+y,-x,2/3+z
4 -x,-y,1/2+z
5 y,-x+y,5/6+z
6 x-y,x,1/6+z
7 y,x,1/3-z
8 x-y,-y,-z
9 -x,-x+y,2/3-z
10 -y,-x,5/6-z
11 -x+y,y,1/2-z
12 x,x-y,1/6-z
_cell_length_a                   11.21790(10)
_cell_length_b                   11.21790(10)
_cell_length_c                   62.4758(12)
_cell_angle_alpha                90
_cell_angle_beta                 90
_cell_angle_gamma                120
_cell_volume                     6808.72
loop_
_atom_site_label
_atom_site_type_symbol
_atom_site_fract_x
_atom_site_fract_y
_atom_site_fract_z
Cu1 Cu -0.21746(4) 0.0000 0.0000
C1 C 0.0701(3) 0.9426(3) 0.06296(4)
C2 C 0.1979(3) 1.0669(3) 0.05668(4)
C3 C 0.3260(3) 1.0755(3) 0.06082(4)
C4 C 0.3328(3) 0.9673(3) 0.07100(4)
C5 C 0.2060(3) 0.8423(3) 0.07749(4)
C6 C 0.1934(3) 1.1736(3) 0.04634(4)
H1 H 0.1072 1.1675 0.0436
C7 C 0.3157(4) 1.2907(3) 0.03997(5)
H2 H 0.3117 1.3636 0.0329
C8 C 0.4404(4) 1.3014(3) 0.04376(5)
H3 H 0.5221 1.3816 0.0393
C9 C 0.4496(3) 1.1944(3) 0.05424(5)
C10 C 0.5764(3) 1.2009(4) 0.05858(5)
H4 H 0.6600 1.2806 0.0546
C11 C 0.5805(3) 1.0951(4) 0.06836(5)
H5 H 0.6668 1.1010 0.0709
C12 C 0.4583(3) 0.9767(4) 0.07480(5)
H6 H 0.4623 0.9035 0.0817
C13 C -0.0465(3) 0.7082(3) 0.07765(4)
H7 H -0.1223 0.7269 0.0806
H8 H -0.0339 0.6634 0.0904
C14 C -0.0817(3) 0.6152(3) 0.05863(4)
C15 C -0.0163(3) 0.5501(3) 0.05044(5)
H9 H 0.0571 0.5430 0.0567
C16 C -0.0487(3) 0.4270(3) 0.01462(5)
H10 H -0.0972 0.4335 0.0016
C17 C 0.1029(5) 0.4948(11) 0.00833(11)
H11 H 0.1130 0.4630 -0.0060
H12 H 0.1453 0.5963 0.0080
O1 O 0.1644(5) 0.4548(5) 0.02393(8)
H13 H 0.2326 0.5207 0.0299
C18 C -0.1145(3) 0.2723(3) 0.01932(5)
C19 C -0.0260(3) -0.1078(3) 0.00752(4)
H14 H -0.1071 -0.1849 0.0129
C20 C 0.0964(3) -0.1114(3) 0.00774(4)
H15 H 0.0973 -0.1900 0.0132
C21 C 0.2174(3) 0.0000 0.0000
C22 C 0.3506(3) 0.0000 0.0000
C23 C 0.3774(3) -0.0761(3) 0.01479(4)
H16 H 0.3102 -0.1300 0.0252
C24 C 0.5014(3) -0.0732(3) 0.01432(4)
H17 H 0.5177 -0.1256 0.0246
N1 N 0.0820(2) 0.8390(2) 0.07318(3)
N2 N -0.1821(3) 0.5982(3) 0.04475(4)
N3 N -0.1799(3) 0.5264(3) 0.02818(4)
N4 N -0.0785(3) 0.4983(2) 0.03152(4)
N5 N -0.0341(2) 0.0000 0.0000
N6 N 0.6002(3) 0.0000 0.0000
O2 O -0.0436(2) 0.9265(2) 0.05930(3)
O3 O 0.2033(2) 0.7427(2) 0.08589(4)
O4 O -0.11870(18) 0.20319(19) 0.00288(3)
O5 O -0.1533(3) 0.2298(2) 0.03753(3)
O6 O -0.2390(2) -0.0383(2) 0.03791(3)
H18 H -0.209(4) 0.043(3) 0.0394(6)
H19 H -0.178(3) -0.044(4) 0.0436(6)
Cu1_2 Cu 0.78254(4) 0.0000 0.0000
C1G C -0.8725(4) -0.9426(3) -0.06296(4)
C2G C -0.8690(4) -1.0669(3) -0.05668(4)
C3G C -0.7495(4) -1.0755(3) -0.06082(4)
C4G C -0.6345(4) -0.9673(3) -0.07100(4)
C5G C -0.6363(4) -0.8423(3) -0.07749(4)
C6G C -0.9802(4) -1.1736(3) -0.04634(4)
H1G H -1.0603 -1.1675 -0.0436
C7G C -0.9750(5) -1.2907(3) -0.03997(5)
H2G H -1.0519 -1.3636 -0.0329
C8G C -0.8610(5) -1.3014(3) -0.04376(5)
H3G H -0.8595 -1.3816 -0.0393
C9G C -0.7448(4) -1.1944(3) -0.05424(5)
C10G C -0.6245(5) -1.2009(4) -0.05858(5)
H4G H -0.6206 -1.2806 -0.0546
C11G C -0.5146(5) -1.0951(4) -0.06836(5)
H5G H -0.4342 -1.1010 -0.0709
C12G C -0.5184(5) -0.9767(4) -0.07480(5)
H6G H -0.4412 -0.9035 -0.0817
C13G C -0.7547(4) -0.7082(3) -0.07765(4)
H7G H -0.8492 -0.7269 -0.0806
H8G H -0.6973 -0.6634 -0.0904
C14G C -0.6969(4) -0.6152(3) -0.05863(4)
C15G C -0.5664(4) -0.5501(3) -0.05044(5)
H9G H -0.4859 -0.5430 -0.0567
C16G C -0.4757(4) -0.4270(3) -0.01462(5)
H10G H -0.5307 -0.4335 -0.0016
C17G C -0.3919(12) -0.4948(11) -0.00833(11)
H11G H -0.3500 -0.4630 0.0060
H12G H -0.4510 -0.5963 -0.0080
O1G O -0.2904(7) -0.4548(5) -0.02393(8)
H13G H -0.2881 -0.5207 -0.0299
C18G C -0.3868(4) -0.2723(3) -0.01932(5)
C19G C 0.0818(4) 0.1078(3) -0.00752(4)
H14G H 0.0778 0.1849 -0.0129
C20G C 0.2078(4) 0.1114(3) -0.00774(4)
H15G H 0.2873 0.1900 -0.0132
C23G C 0.4535(4) 0.0761(3) -0.01479(4)
H16G H 0.4402 0.1300 -0.0252
C24G C 0.5746(4) 0.0732(3) -0.01432(4)
H17G H 0.6433 0.1256 -0.0246
N1G N -0.7570(3) -0.8390(2) -0.07318(3)
N2G N -0.7803(4) -0.5982(3) -0.04475(4)
N3G N -0.7063(4) -0.5264(3) -0.02818(4)
N4G N -0.5768(4) -0.4983(2) -0.03152(4)
N6_2 N -0.3998(3) 0.0000 0.0000
O2G O -0.9701(3) -0.9265(2) -0.05930(3)
O3G O -0.5394(3) -0.7427(2) -0.08589(4)
O4G O -0.32189(26) -0.20319(19) -0.00288(3)
O5G O -0.3831(4) -0.2298(2) -0.03753(3)
O6G O -0.2007(3) 0.0383(2) -0.03791(3)
H18G H -0.252(5) -0.043(3) -0.0394(6)
H19G H -0.134(5) 0.044(4) -0.0436(6)
O7 O 0.3592(3) 0.6956(3) 0.11845(4)
H20 H 0.3218 0.6901 0.1066
H21 H 0.4247 0.7772 0.1187
O8 O 0.5893(4) 0.9431(4) 0.12929(7)
O9 O 0.6344(18) 0.8172(9) 0.0833
C25? C -0.0487(3) 0.4270(3) 0.01462(5)
C26? C 0.1049(5) 0.4743(12) 0.01605(18)
H22? H -0.0748 0.4448 0.0002
H23? H 0.1234 0.4436 0.0299
H24? H 0.1289 0.4297 0.0045
H25? H 0.2592 0.6463 0.0221
O10? O 0.6098(8) 0.9250(8) 0.11780(15)
O11? O 0.1888(5) 0.6168(5) 0.01437(9)
loop_
_geom_bond_atom_site_label_1
_geom_bond_atom_site_label_2
_geom_bond_site_symmetry_1
_geom_bond_site_symmetry_2
Cu1 N5 1_555 1_555
C1 C2 1_555 1_555
C2 C3 1_555 1_555
C3 C4 1_555 1_555
C4 C5 1_555 1_555
C5 N1 1_555 1_555
C6 C2 1_555 1_555
H1 C6 1_555 1_555
C7 C6 1_555 1_555
H2 C7 1_555 1_555
C8 C7 1_555 1_555
H3 C8 1_555 1_555
C9 C3 1_555 1_555
C10 C9 1_555 1_555
H4 C10 1_555 1_555
C11 C10 1_555 1_555
H5 C11 1_555 1_555
C12 C4 1_555 1_555
H6 C12 1_555 1_555
C13 H7 1_555 1_555
H8 C13 1_555 1_555
C14 C13 1_555 1_555
C15 C14 1_555 1_555
H9 C15 1_555 1_555
C16 H10 1_555 1_555
C17 C16 1_555 1_555
H11 C17 1_555 1_555
H12 C17 1_555 1_555
O1 C17 1_555 1_555
H13 O1 1_555 1_555
C18 C16 1_555 1_555
C19 H14 1_555 1_555
C20 C19 1_555 1_555
H15 C20 1_555 1_555
C21 C20 1_555 1_555
C22 C21 1_555 1_555
C23 C22 1_555 1_555
H16 C23 1_555 1_555
C24 C23 1_555 1_555
H17 C24 1_555 1_555
N1 C1 1_555 1_555
N2 C14 1_555 1_555
N3 N2 1_555 1_555
N4 C15 1_555 1_555
N5 C19 1_555 1_555
N6 C24 1_555 1_555
O2 C1 1_555 1_555
O3 C5 1_555 1_555
O4 Cu1 1_555 1_555
O5 C18 1_555 1_555
O6 Cu1 1_555 1_555
H18 O6 1_555 1_555
H19 O6 1_555 1_555
O7 H20 1_555 1_555
H21 O7 1_555 1_555
Cu1_2 N6 1_555 1_555
C1G C2G 1_555 1_555
C2G C3G 1_555 1_555
C3G C4G 1_555 1_555
C4G C5G 1_555 1_555
C5G N1G 1_555 1_555
C6G C2G 1_555 1_555
H1G C6G 1_555 1_555
C7G C6G 1_555 1_555
H2G C7G 1_555 1_555
C8G C7G 1_555 1_555
H3G C8G 1_555 1_555
C9G C3G 1_555 1_555
C10G C9G 1_555 1_555
H4G C10G 1_555 1_555
C11G C10G 1_555 1_555
H5G C11G 1_555 1_555
C12G C4G 1_555 1_555
H6G C12G 1_555 1_555
C13G H7G 1_555 1_555
H8G C13G 1_555 1_555
C14G C13G 1_555 1_555
C15G C14G 1_555 1_555
H9G C15G 1_555 1_555
C16G H10G 1_555 1_555
C17G C16G 1_555 1_555
H11G C17G 1_555 1_555
H12G C17G 1_555 1_555
O1G C17G 1_555 1_555
H13G O1G 1_555 1_555
C18G C16G 1_555 1_555
C19G N5 1_555 1_555
H14G C19G 1_555 1_555
C20G C21 1_555 1_555
H15G C20G 1_555 1_555
C23G C22 1_555 1_555
H16G C23G 1_555 1_555
C24G N6 1_555 1_555
H17G C24G 1_555 1_555
N1G C1G 1_555 1_555
N2G C14G 1_555 1_555
N3G N2G 1_555 1_555
N4G C15G 1_555 1_555
N6_2 Cu1 1_555 1_555
O2G C1G 1_555 1_555
O3G C5G 1_555 1_555
O4G Cu1 1_555 1_555
O5G C18G 1_555 1_555
O6G Cu1 1_555 1_555
H18G O6G 1_555 1_555
H19G O6G 1_555 1_555
C8 C9 1_555 1_555
C11 C12 1_555 1_555
C13 N1 1_555 1_555
C16 N4 1_555 1_555
C18 O4 1_555 1_555
N3 N4 1_555 1_555
C8G C9G 1_555 1_555
C11G C12G 1_555 1_555
C13G N1G 1_555 1_555
C16G N4G 1_555 1_555
C18G O4G 1_555 1_555
C19G C20G 1_555 1_555
C23G C24G 1_555 1_555
N3G N4G 1_555 1_555

#END
