
#######################################################################
#
#                 Cambridge Crystallographic Data Centre
#                                CCDC 
#
#######################################################################
#
# If this CIF has been generated from an entry in the Cambridge 
# Structural Database, then it will include bibliographic, chemical, 
# crystal, experimental, refinement or atomic coordinate data resulting 
# from the CCDC's data processing and validation procedures.
#
#######################################################################

data_ZASSUJ
_symmetry_cell_setting           orthorhombic
_symmetry_space_group_name_H-M   'P n m a'
_symmetry_Int_Tables_number      62
_space_group_name_Hall           '-P 2ac 2n'
loop_
_symmetry_equiv_pos_site_id
_symmetry_equiv_pos_as_xyz
1 x,y,z
2 1/2-x,-y,1/2+z
3 1/2+x,1/2-y,1/2-z
4 -x,1/2+y,-z
5 -x,-y,-z
6 1/2+x,y,1/2-z
7 1/2-x,1/2+y,1/2+z
8 x,1/2-y,z
_cell_length_a                   10.484(2)
_cell_length_b                   16.466(3)
_cell_length_c                   18.343(4)
_cell_angle_alpha                90
_cell_angle_beta                 90
_cell_angle_gamma                90
_cell_volume                     3166.54
loop_
_atom_site_label
_atom_site_type_symbol
_atom_site_fract_x
_atom_site_fract_y
_atom_site_fract_z
Ag1 Ag 0.05274(5) 0.11991(4) 0.35422(3)
N1 N 0.1462(7) 0.0423(5) 0.4569(3)
N2 N 0.1497(6) 0.2093(4) 0.4487(3)
N3 N 0.3321(7) 0.0502(5) 0.5313(4)
N4 N 0.2825(6) 0.2103(5) 0.5534(3)
N5 N -0.1144(6) 0.2101(5) 0.2980(3)
N6 N -0.1396(6) 0.0468(5) 0.3163(4)
N7 N -0.2938(6) 0.2103(4) 0.2206(3)
N8 N -0.3167(7) 0.0463(5) 0.2359(4)
C1 C 0.1510(9) -0.0385(6) 0.4610(4)
H1 H 0.0866 -0.0696 0.4376
C2 C 0.2486(9) -0.0790(6) 0.4990(4)
H2 H 0.2527 -0.1366 0.5011
C3 C 0.3375(9) -0.0307(6) 0.5327(5)
H3 H 0.4058 -0.0560 0.5581
C4 C 0.2360(8) 0.0818(5) 0.4947(4)
C5 C 0.2246(8) 0.1720(6) 0.4974(4)
C6 C -0.1544(8) -0.0320(7) 0.3260(5)
H4 H -0.0977 -0.0593 0.3581
C7 C -0.2474(9) -0.0762(7) 0.2923(5)
H5 H -0.2561 -0.1331 0.2994
C8 C -0.3277(9) -0.0332(6) 0.2474(5)
H6 H -0.3944 -0.0616 0.2233
C9 C -0.2216(8) 0.0821(6) 0.2718(4)
C10 C -0.2086(7) 0.1708(6) 0.2635(4)
Ag1G Ag 0.05274(5) 0.38009(4) 0.35422(3)
Ag1E Ag -0.44726(5) 0.11991(4) 0.14578(3)
Ag1B Ag -0.44726(5) 0.38009(4) 0.14578(3)
N1G N 0.1462(7) 0.4577(5) 0.4569(3)
N2G N 0.1497(6) 0.2907(4) 0.4487(3)
N3G N 0.3321(7) 0.4498(5) 0.5313(4)
N4G N 0.2825(6) 0.2897(5) 0.5534(3)
N5G N -0.1144(6) 0.2899(5) 0.2980(3)
N6G N -0.1396(6) 0.4532(5) 0.3163(4)
N7G N -0.2938(6) 0.2897(4) 0.2206(3)
N8G N -0.3167(7) 0.4537(5) 0.2359(4)
N8E N 0.1833(7) 0.0463(5) 0.2641(4)
N8B N 0.1833(7) 0.4537(5) 0.2641(4)
C1G C 0.1510(9) 0.5385(6) 0.4610(4)
H1G H 0.0866 0.5696 0.4376
C2G C 0.2486(9) 0.5790(6) 0.4990(4)
H2G H 0.2527 0.6366 0.5011
C3G C 0.3375(9) 0.5307(6) 0.5327(5)
H3G H 0.4058 0.5560 0.5581
C4G C 0.2360(8) 0.4182(5) 0.4947(4)
C5G C 0.2246(8) 0.3280(6) 0.4974(4)
C6G C -0.1544(8) 0.5320(7) 0.3260(5)
H4G H -0.0977 0.5593 0.3581
C7G C -0.2474(9) 0.5762(7) 0.2923(5)
H5G H -0.2561 0.6331 0.2994
C8G C -0.3277(9) 0.5332(6) 0.2474(5)
H6G H -0.3944 0.5616 0.2233
C9G C -0.2216(8) 0.4179(6) 0.2718(4)
C10G C -0.2086(7) 0.3292(6) 0.2635(4)
Cl1 Cl 0.5394(3) 0.2500 0.39777(15)
O1 O 0.5513(17) 0.2500 0.4754(6)
O2 O 0.6093(13) 0.1867(9) 0.3694(5)
O3 O 0.4122(12) 0.2500 0.3858(7)
O2G O 0.6093(13) 0.3133(9) 0.3694(5)
Cl2 Cl 0.9365(15) 0.2500 0.6408(9)
O4 O 1.0134(14) 0.1791(7) 0.6359(9)
O5 O 0.846(2) 0.2500 0.5858(13)
O6 O 0.869(2) 0.2500 0.7059(11)
O4G O 1.0134(14) 0.3209(7) 0.6359(9)
N9 N 0.5820(11) -0.0096(11) 0.6458(6)
C11 C 0.5585(10) 0.1526(9) 0.6420(6)
H7 H 0.5187 0.1682 0.5957
H8 H 0.6426 0.1783 0.6459
H9 H 0.5045 0.1706 0.6826
C12 C 0.5726(11) 0.0656(11) 0.6447(6)
Cl3? Cl 0.957(3) 0.2500 0.6487(18)
O7? O 0.877(3) 0.1873(19) 0.674(2)
O8? O 0.957(5) 0.2500 0.5726(16)
O9? O 1.077(2) 0.2500 0.683(2)
loop_
_geom_bond_atom_site_label_1
_geom_bond_atom_site_label_2
_geom_bond_site_symmetry_1
_geom_bond_site_symmetry_2
Ag1 N1 1_555 1_555
Cl1 O1 1_555 1_555
Cl2 O4 1_555 1_555
O2 Cl1 1_555 1_555
O3 Cl1 1_555 1_555
O5 Cl2 1_555 1_555
O6 Cl2 1_555 1_555
N1 C1 1_555 1_555
N2 Ag1 1_555 1_555
N3 C3 1_555 1_555
N4 C5 1_555 1_555
N5 Ag1 1_555 1_555
N6 Ag1 1_555 1_555
N7 C10 1_555 1_555
N8 C8 1_555 1_555
N9 C12 1_555 1_555
C1 H1 1_555 1_555
C2 C1 1_555 1_555
H2 C2 1_555 1_555
C3 C2 1_555 1_555
H3 C3 1_555 1_555
C4 N1 1_555 1_555
C5 N2 1_555 1_555
C6 N6 1_555 1_555
H4 C6 1_555 1_555
C7 C6 1_555 1_555
H5 C7 1_555 1_555
C8 C7 1_555 1_555
H6 C8 1_555 1_555
C9 N6 1_555 1_555
C10 N5 1_555 1_555
C11 H7 1_555 1_555
H8 C11 1_555 1_555
H9 C11 1_555 1_555
C12 C11 1_555 1_555
Ag1G N1G 1_555 1_555
Ag1E N8 1_555 1_555
Ag1B N8G 1_555 1_555
O2G Cl1 1_555 1_555
O4G Cl2 1_555 1_555
N1G C1G 1_555 1_555
N2G N2 1_555 1_555
N3G C3G 1_555 1_555
N4G N4 1_555 1_555
N5G N5 1_555 1_555
N6G Ag1G 1_555 1_555
N7G N7 1_555 1_555
N8G C8G 1_555 1_555
N8E Ag1 1_555 1_555
N8B Ag1G 1_555 1_555
C1G H1G 1_555 1_555
C2G C1G 1_555 1_555
H2G C2G 1_555 1_555
C3G C2G 1_555 1_555
H3G C3G 1_555 1_555
C4G N1G 1_555 1_555
C5G N2G 1_555 1_555
C6G N6G 1_555 1_555
H4G C6G 1_555 1_555
C7G C6G 1_555 1_555
H5G C7G 1_555 1_555
C8G C7G 1_555 1_555
H6G C8G 1_555 1_555
C9G N6G 1_555 1_555
C10G N5G 1_555 1_555
N3 C4 1_555 1_555
N8 C9 1_555 1_555
C4 C5 1_555 1_555
C9 C10 1_555 1_555
Ag1G N2G 1_555 1_555
Ag1G N5G 1_555 1_555
N3G C4G 1_555 1_555
N4G C5G 1_555 1_555
N7G C10G 1_555 1_555
N8G C9G 1_555 1_555
C4G C5G 1_555 1_555
C9G C10G 1_555 1_555

#END
