
#######################################################################
#
#                 Cambridge Crystallographic Data Centre
#                                CCDC 
#
#######################################################################
#
# If this CIF has been generated from an entry in the Cambridge 
# Structural Database, then it will include bibliographic, chemical, 
# crystal, experimental, refinement or atomic coordinate data resulting 
# from the CCDC's data processing and validation procedures.
#
#######################################################################

data_ZASSIX
_symmetry_cell_setting           hexagonal
_symmetry_space_group_name_H-M   'P 65 2 2'
_symmetry_Int_Tables_number      179
_space_group_name_Hall           "P 65 2' (0,0,1)"
loop_
_symmetry_equiv_pos_site_id
_symmetry_equiv_pos_as_xyz
1 x,y,z
2 -y,x-y,2/3+z
3 -x+y,-x,1/3+z
4 -x,-y,1/2+z
5 y,-x+y,1/6+z
6 x-y,x,5/6+z
7 y,x,2/3-z
8 x-y,-y,-z
9 -x,-x+y,1/3-z
10 -y,-x,1/6-z
11 -x+y,y,1/2-z
12 x,x-y,5/6-z
_cell_length_a                   11.3315(2)
_cell_length_b                   11.3315(2)
_cell_length_c                   59.8555(16)
_cell_angle_alpha                90
_cell_angle_beta                 90
_cell_angle_gamma                120
_cell_volume                     6655.94
loop_
_atom_site_label
_atom_site_type_symbol
_atom_site_fract_x
_atom_site_fract_y
_atom_site_fract_z
Ni1 Ni 0.18144(6) 0.0000 0.0000
C1 C 0.8589(4) 0.9464(4) 0.06173(6)
C2 C 0.8629(4) 1.0744(4) 0.05597(6)
C3 C 0.7442(5) 1.0846(4) 0.05899(6)
C4 C 0.6237(4) 0.9764(5) 0.06771(7)
C5 C 0.6200(4) 0.8496(5) 0.07374(7)
C6 C 0.9818(5) 1.1823(5) 0.04789(6)
H1 H 1.0611 1.1747 0.0462
C7 C 0.9846(6) 1.3049(5) 0.04206(7)
H2 H 1.0660 1.3799 0.0364
C8 C 0.8700(7) 1.3151(5) 0.04452(7)
H3 H 0.8730 1.3976 0.0404
C9 C 0.7478(6) 1.2069(5) 0.05298(8)
C10 C 0.6269(7) 1.2156(6) 0.05567(8)
H4 H 0.6265 1.2965 0.0517
C11 C 0.5125(7) 1.1069(7) 0.06400(9)
H5 H 0.4326 1.1135 0.0657
C12 C 0.5085(5) 0.9871(6) 0.07008(8)
H6 H 0.4270 0.9129 0.0758
C13 C 0.7297(5) 0.7099(4) 0.07480(7)
H7 H 0.6605 0.6611 0.0865
H8 H 0.8186 0.7269 0.0806
C14 C 0.6934(7) 0.6200(7) 0.05448(9)
C15 C 0.5760(7) 0.5604(7) 0.04328(10)
H9 H 0.4951 0.5605 0.0474
N1 N 0.7820(6) 0.5971(6) 0.04339(9)
N2 N 0.7194(6) 0.5233(6) 0.02535(9)
N3 N 0.5921(6) 0.5007(6) 0.02527(9)
C16 C 0.4977(10) 0.4234(9) 0.00765(16)
H10 H 0.5474 0.4061 -0.0043
H11 H 0.4597 0.4777 0.0012
C17 C 0.3813(12) 0.2878(13) 0.0159(3)
O1 O 0.303(3) 0.2112(10) 0.0007(5)
O2 O 0.3753(19) 0.261(3) 0.0361(4)
C23 C 0.4723(4) 0.0864(4) -0.01271(6)
H17 H 0.4610 0.1477 -0.0221
C24 C 0.5965(4) 0.0913(4) -0.01291(6)
H18 H 0.6692 0.1568 -0.0218
C25 C 0.6142(4) 0.0000 0.0000
C26 C 0.7462(5) 0.0000 0.0000
C27 C 0.8680(4) 0.1135(4) -0.00633(6)
H19 H 0.8687 0.1943 -0.0108
C28 C 0.9883(4) 0.1102(4) -0.00626(6)
H20 H 1.0697 0.1893 -0.0108
N7 N 0.7379(3) 0.8423(3) 0.07036(5)
N8 N 0.3666(4) 0.0000 0.0000
N9 N 0.9946(4) 0.0000 0.0000
O5 O 0.9552(3) 0.9280(3) 0.05926(5)
O6 O 0.5186(3) 0.7493(4) 0.08152(6)
O7 O 0.1842(3) -0.0089(3) 0.03453(4)
H21 H 0.243(4) 0.074(3) 0.0357(7)
H22 H 0.111(3) -0.031(4) 0.0412(6)
Ni1_2 Ni 1.18144(6) 0.0000 0.0000
C1G C -0.0875(6) -0.9464(4) -0.06173(6)
C2G C -0.2115(6) -1.0744(4) -0.05597(6)
C3G C -0.3404(6) -1.0846(4) -0.05899(6)
C4G C -0.3527(6) -0.9764(5) -0.06771(7)
C5G C -0.2296(6) -0.8496(5) -0.07374(7)
C6G C -0.2005(7) -1.1823(5) -0.04789(6)
H1G H -0.1136 -1.1747 -0.0462
C7G C -0.3203(8) -1.3049(5) -0.04206(7)
H2G H -0.3139 -1.3799 -0.0364
C8G C -0.4451(9) -1.3151(5) -0.04452(7)
H3G H -0.5246 -1.3976 -0.0404
C9G C -0.4591(8) -1.2069(5) -0.05298(8)
C10G C -0.5887(9) -1.2156(6) -0.05567(8)
H4G H -0.6700 -1.2965 -0.0517
C11G C -0.5944(10) -1.1069(7) -0.06400(9)
H5G H -0.6809 -1.1135 -0.0657
C12G C -0.4786(8) -0.9871(6) -0.07008(8)
H6G H -0.4859 -0.9129 -0.0758
C13G C 0.0198(6) -0.7099(4) -0.07480(7)
H7G H -0.0006 -0.6611 -0.0865
H8G H 0.0917 -0.7269 -0.0806
C14G C 0.0734(10) -0.6200(7) -0.05448(9)
C15G C 0.0156(10) -0.5604(7) -0.04328(10)
H9G H -0.0654 -0.5605 -0.0474
N1G N 0.1849(8) -0.5971(6) -0.04339(9)
N2G N 0.1961(8) -0.5233(6) -0.02535(9)
N3G N 0.0914(8) -0.5007(6) -0.02527(9)
C16G C 0.0743(13) -0.4234(9) -0.00765(16)
H10G H 0.1413 -0.4061 0.0043
H11G H -0.0180 -0.4777 -0.0012
C17G C 0.0935(18) -0.2878(13) -0.0159(3)
O1G O 0.0918(32) -0.2112(10) -0.0007(5)
O2G O 0.1143(36) -0.261(3) -0.0361(4)
C23G C 0.3859(6) -0.0864(4) 0.01271(6)
H17G H 0.3133 -0.1477 0.0221
C24G C 0.5052(6) -0.0913(4) 0.01291(6)
H18G H 0.5124 -0.1568 0.0218
C27G C 0.7545(6) -0.1135(4) 0.00633(6)
H19G H 0.6744 -0.1943 0.0108
C28G C 0.8781(6) -0.1102(4) 0.00626(6)
H20G H 0.8804 -0.1893 0.0108
N7G N -0.1044(4) -0.8423(3) -0.07036(5)
N9_2 N -0.0054(4) 0.0000 0.0000
O5G O 0.0272(4) -0.9280(3) -0.05926(5)
O6G O -0.2307(5) -0.7493(4) -0.08152(6)
O7G O 0.1931(4) 0.0089(3) -0.03453(4)
H21G H 0.169(5) -0.074(3) -0.0357(7)
H22G H 0.142(5) 0.031(4) -0.0412(6)
O9 O 0.2464(15) 0.6505(14) 0.0483(2)
C18? C 0.7297(5) 0.7099(4) 0.07480(7)
H12? H 0.6761 0.6677 0.0885
H13? H 0.8219 0.7222 0.0767
C19? C 0.6599(5) 0.6214(6) 0.05455(9)
C20? C 0.5353(6) 0.5669(6) 0.04543(6)
H14? H 0.4592 0.5688 0.0517
N4? N 0.7386(5) 0.5974(6) 0.04070(7)
N5? N 0.6628(5) 0.5280(5) 0.02303(7)
N6? N 0.5371(5) 0.5091(5) 0.02596(7)
C21? C 0.4298(10) 0.4323(9) 0.01013(16)
H15? H 0.4710 0.4381 -0.0047
H16? H 0.3717 0.4744 0.0089
C22? C 0.3407(12) 0.2832(13) 0.0164(4)
O3? O 0.278(3) 0.2103(10) -0.0004(5)
O4? O 0.3369(19) 0.247(3) 0.0360(4)
O8? O 0.2779(7) 0.6351(7) 0.04549(11)
O10? O 0.0291(8) 0.6751(7) 0.04311(13)
O11? O 0.0716(14) 0.7104(13) 0.0543(2)
O12? O 0.0874(15) 0.6811(13) 0.0441(2)
O13? O 0.1519(5) 0.8481(5) 0.0833
O14? O 0.3390(11) 0.5653(12) 0.01221(18)
loop_
_geom_bond_atom_site_label_1
_geom_bond_atom_site_label_2
_geom_bond_site_symmetry_1
_geom_bond_site_symmetry_2
Ni1 O1 1_555 1_555
C1 C2 1_555 1_555
C2 C3 1_555 1_555
C3 C4 1_555 1_555
C4 C5 1_555 1_555
C5 N7 1_555 1_555
C6 C2 1_555 1_555
H1 C6 1_555 1_555
C7 C6 1_555 1_555
H2 C7 1_555 1_555
C8 C7 1_555 1_555
H3 C8 1_555 1_555
C9 C3 1_555 1_555
C10 C9 1_555 1_555
H4 C10 1_555 1_555
C11 C10 1_555 1_555
H5 C11 1_555 1_555
C12 C4 1_555 1_555
H6 C12 1_555 1_555
C13 H7 1_555 1_555
H8 C13 1_555 1_555
C14 C13 1_555 1_555
C15 C14 1_555 1_555
H9 C15 1_555 1_555
N1 C14 1_555 1_555
N2 N1 1_555 1_555
N3 C15 1_555 1_555
C16 N3 1_555 1_555
H10 C16 1_555 1_555
H11 C16 1_555 1_555
C17 C16 1_555 1_555
O1 C17 1_555 1_555
O2 C17 1_555 1_555
C23 H17 1_555 1_555
C24 C23 1_555 1_555
H18 C24 1_555 1_555
C25 C24 1_555 1_555
C26 C25 1_555 1_555
C27 C26 1_555 1_555
H19 C27 1_555 1_555
C28 C27 1_555 1_555
H20 C28 1_555 1_555
N7 C1 1_555 1_555
N8 Ni1 1_555 1_555
N9 C28 1_555 1_555
O5 C1 1_555 1_555
O6 C5 1_555 1_555
O7 Ni1 1_555 1_555
H21 O7 1_555 1_555
H22 O7 1_555 1_555
Ni1_2 N9 1_555 1_555
C1G C2G 1_555 1_555
C2G C3G 1_555 1_555
C3G C4G 1_555 1_555
C4G C5G 1_555 1_555
C5G N7G 1_555 1_555
C6G C2G 1_555 1_555
H1G C6G 1_555 1_555
C7G C6G 1_555 1_555
H2G C7G 1_555 1_555
C8G C7G 1_555 1_555
H3G C8G 1_555 1_555
C9G C3G 1_555 1_555
C10G C9G 1_555 1_555
H4G C10G 1_555 1_555
C11G C10G 1_555 1_555
H5G C11G 1_555 1_555
C12G C4G 1_555 1_555
H6G C12G 1_555 1_555
C13G H7G 1_555 1_555
H8G C13G 1_555 1_555
C14G C13G 1_555 1_555
C15G C14G 1_555 1_555
H9G C15G 1_555 1_555
N1G C14G 1_555 1_555
N2G N1G 1_555 1_555
N3G C15G 1_555 1_555
C16G N3G 1_555 1_555
H10G C16G 1_555 1_555
H11G C16G 1_555 1_555
C17G C16G 1_555 1_555
O1G Ni1 1_555 1_555
O2G C17G 1_555 1_555
C23G N8 1_555 1_555
H17G C23G 1_555 1_555
C24G C25 1_555 1_555
H18G C24G 1_555 1_555
C27G C26 1_555 1_555
H19G C27G 1_555 1_555
C28G N9 1_555 1_555
H20G C28G 1_555 1_555
N7G C1G 1_555 1_555
N9_2 Ni1 1_555 1_555
O5G C1G 1_555 1_555
O6G C5G 1_555 1_555
O7G Ni1 1_555 1_555
H21G O7G 1_555 1_555
H22G O7G 1_555 1_555
C8 C9 1_555 1_555
C11 C12 1_555 1_555
C13 N7 1_555 1_555
N2 N3 1_555 1_555
C23 N8 1_555 1_555
C8G C9G 1_555 1_555
C11G C12G 1_555 1_555
C13G N7G 1_555 1_555
N2G N3G 1_555 1_555
C17G O1G 1_555 1_555
C23G C24G 1_555 1_555
C27G C28G 1_555 1_555

#END
