
#######################################################################
#
#                 Cambridge Crystallographic Data Centre
#                                CCDC 
#
#######################################################################
#
# If this CIF has been generated from an entry in the Cambridge 
# Structural Database, then it will include bibliographic, chemical, 
# crystal, experimental, refinement or atomic coordinate data resulting 
# from the CCDC's data processing and validation procedures.
#
#######################################################################

data_ZASTAQ
_symmetry_cell_setting           triclinic
_symmetry_space_group_name_H-M   'P -1'
_symmetry_Int_Tables_number      2
_space_group_name_Hall           '-P 1'
loop_
_symmetry_equiv_pos_site_id
_symmetry_equiv_pos_as_xyz
1 x,y,z
2 -x,-y,-z
_cell_length_a                   7.5876(3)
_cell_length_b                   11.6328(6)
_cell_length_c                   13.6088(7)
_cell_angle_alpha                99.735(2)
_cell_angle_beta                 99.024(2)
_cell_angle_gamma                94.537(2)
_cell_volume                     1162.33
loop_
_atom_site_label
_atom_site_type_symbol
_atom_site_fract_x
_atom_site_fract_y
_atom_site_fract_z
Ag1 Ag 0.087289(19) 0.290455(12) 0.598292(12)
Ag2 Ag 0.56366(2) 0.850429(12) 0.875524(12)
N1 N 0.4527(2) 0.72332(14) 0.97676(11)
N2 N 0.1875(2) 0.40898(13) 0.47681(11)
N3 N 0.3533(2) 0.69528(13) 0.77217(11)
N4 N 0.15400(19) 0.49072(13) 0.67182(11)
N5 N 0.1302(2) 0.54465(14) 0.76930(11)
N6 N 0.2556(2) 0.55026(14) 0.96951(12)
N7 N 0.2778(2) 0.67924(13) 0.66755(11)
N8 N 0.7618(3) 1.00146(16) 0.89543(14)
C1 C 0.2711(2) 0.62702(14) 0.81898(13)
C2 C 0.2524(2) 0.51993(14) 0.51915(12)
C3 C 0.2257(2) 0.56216(14) 0.62385(12)
C4 C 0.2147(2) 0.37329(16) 0.38240(14)
H1 H 0.1734 0.2968 0.3500
C5 C 0.3306(2) 0.63442(15) 0.92921(13)
N9 N 0.3382(2) 0.59748(13) 0.47689(11)
N10 N -0.4343(2) -0.13939(15) 0.65116(14)
N11 N -0.1511(2) 0.15668(15) 0.54494(14)
C6 C -0.4227(2) -0.04507(16) 0.63636(14)
C7 C 0.3023(3) 0.44651(17) 0.33140(13)
H2 H 0.3203 0.4209 0.2655
N12 N -0.6678(2) 0.19567(16) 0.64423(16)
C8 C 0.3621(3) 0.55885(17) 0.38186(14)
H3 H 0.4212 0.6098 0.3489
C9 C -0.4111(2) 0.07118(16) 0.61851(14)
C10 C 0.3149(3) 0.55487(18) 1.06835(15)
H4 H 0.2664 0.4985 1.1005
N13 N 0.3031(3) 0.9850(2) 0.85800(19)
C11 C 0.5103(3) 0.72546(18) 1.07509(14)
H5 H 0.5959 0.7855 1.1114
C12 C 0.8506(3) 1.08927(17) 0.91334(14)
C13 C -0.5533(3) 0.13844(16) 0.63223(15)
C14 C -0.2678(3) 0.11682(16) 0.57817(14)
C15 C 0.9600(3) 1.19635(16) 0.93288(14)
C16 C 0.1912(3) 0.97029(19) 0.79005(19)
C17 C 0.4456(3) 0.64065(19) 1.12392(15)
H6 H 0.4886 0.6413 1.1919
C18 C 0.0498(3) 0.9521(2) 0.7033(2)
H7 H 0.0328 1.0255 0.6818
H8 H -0.0595 0.9209 0.7210
H9 H 0.0817 0.8977 0.6493
C19 C 1.0572(3) 1.24094(17) 1.03008(16)
N14 N 1.1378(3) 1.27883(18) 1.10970(16)
C20 C 0.9764(3) 1.25659(17) 0.85314(16)
N15 N 0.9892(3) 1.30663(18) 0.78796(16)
H10 H 0.100(3) 0.496(2) 0.8015(17)
H11 H 0.349(3) 0.717(2) 0.6408(18)
Ag1_2 Ag -0.912711(19) 0.290455(12) 0.598292(12)
N12_2 N 0.3322(2) 0.19567(16) 0.64423(16)
loop_
_geom_bond_atom_site_label_1
_geom_bond_atom_site_label_2
_geom_bond_site_symmetry_1
_geom_bond_site_symmetry_2
Ag1 N2 1_555 1_555
Ag2 N1 1_555 1_555
N1 C5 1_555 1_555
N2 C2 1_555 1_555
N3 Ag2 1_555 1_555
N4 Ag1 1_555 1_555
N5 N4 1_555 1_555
N6 C5 1_555 1_555
N7 N3 1_555 1_555
N8 Ag2 1_555 1_555
C1 N3 1_555 1_555
C2 C3 1_555 1_555
C3 N4 1_555 1_555
C4 N2 1_555 1_555
H1 C4 1_555 1_555
C5 C1 1_555 1_555
N9 C2 1_555 1_555
N10 C6 1_555 1_555
N11 Ag1 1_555 1_555
C6 C9 1_555 1_555
C7 C4 1_555 1_555
H2 C7 1_555 1_555
N12 C13 1_555 1_555
C8 N9 1_555 1_555
H3 C8 1_555 1_555
C9 C13 1_555 1_555
C10 N6 1_555 1_555
H4 C10 1_555 1_555
N13 Ag2 1_555 1_555
C11 N1 1_555 1_555
H5 C11 1_555 1_555
C12 N8 1_555 1_555
C14 N11 1_555 1_555
C15 C12 1_555 1_555
C16 N13 1_555 1_555
C17 C10 1_555 1_555
H6 C17 1_555 1_555
C18 C16 1_555 1_555
H7 C18 1_555 1_555
H8 C18 1_555 1_555
H9 C18 1_555 1_555
C19 C15 1_555 1_555
N14 C19 1_555 1_555
C20 C15 1_555 1_555
N15 C20 1_555 1_555
H10 N5 1_555 1_555
H11 N7 1_555 1_555
Ag1_2 N12 1_555 1_555
N12_2 Ag1 1_555 1_555
N5 C1 1_555 1_555
N7 C3 1_555 1_555
C7 C8 1_555 1_555
C9 C14 1_555 1_555
C11 C17 1_555 1_555

#END
