
#######################################################################
#
#                 Cambridge Crystallographic Data Centre
#                                CCDC 
#
#######################################################################
#
# If this CIF has been generated from an entry in the Cambridge 
# Structural Database, then it will include bibliographic, chemical, 
# crystal, experimental, refinement or atomic coordinate data resulting 
# from the CCDC's data processing and validation procedures.
#
#######################################################################

data_ZASTUK
_symmetry_cell_setting           monoclinic
_symmetry_space_group_name_H-M   'C 2/c'
_symmetry_Int_Tables_number      15
_space_group_name_Hall           '-C 2yn'
loop_
_symmetry_equiv_pos_site_id
_symmetry_equiv_pos_as_xyz
1 x,y,z
2 -x,y,1/2-z
3 1/2+x,1/2+y,z
4 1/2-x,1/2+y,1/2-z
5 -x,-y,-z
6 x,-y,1/2+z
7 1/2-x,1/2-y,-z
8 1/2+x,1/2-y,1/2+z
_cell_length_a                   12.8267(3)
_cell_length_b                   28.9972(8)
_cell_length_c                   9.5316(3)
_cell_angle_alpha                90
_cell_angle_beta                 92.186(2)
_cell_angle_gamma                90
_cell_volume                     3542.59
loop_
_atom_site_label
_atom_site_type_symbol
_atom_site_fract_x
_atom_site_fract_y
_atom_site_fract_z
Mn1 Mn 1.0000 0.5000 0.5000
Mn2 Mn 1.0000 0.593803(17) 0.7500
O1 O 0.95620(15) 0.56311(6) 0.40781(18)
O2 O 0.86120(13) 0.50201(6) 0.62811(17)
O3 O 0.66728(13) 0.48167(7) 0.71805(18)
C1 C 0.7409(2) 0.50272(10) 0.8131(3)
H1 H 0.7541 0.4821 0.8920
H2 H 0.7107 0.5308 0.8492
O4 O 0.90594(12) 0.53713(6) 0.83097(15)
O5 O 0.88992(14) 0.60607(6) 0.57735(18)
O6 O 0.77637(18) 0.65682(7) 0.3762(2)
O7 O 1.10158(17) 0.64358(7) 0.6413(2)
C2 C 0.61125(18) 0.50975(9) 0.6290(3)
C3 C 0.9020(2) 0.59523(8) 0.4518(3)
C4 C 0.53120(18) 0.48682(9) 0.5479(3)
C5 C 0.84414(17) 0.51448(8) 0.7488(2)
C6 C 0.6284(2) 0.55586(10) 0.6117(3)
H3 H 0.6817 0.5705 0.6634
C7 C 0.5126(2) 0.43927(10) 0.5622(3)
H4 H 0.5534 0.4218 0.6248
C8 C 0.5660(2) 0.58098(10) 0.5168(3)
H5 H 0.5781 0.6124 0.5067
C9 C 0.7349(2) 0.72963(9) 0.4658(3)
C10 C 0.8474(3) 0.62237(11) 0.3364(3)
H6 H 0.9003 0.6370 0.2814
H7 H 0.8101 0.6008 0.2752
C11 C 0.8141(2) 0.69633(10) 0.4368(3)
C12 C 0.9161(2) 0.70481(10) 0.4728(4)
H8 H 0.9673 0.6835 0.4510
C13 C 1.1844(3) 0.65931(12) 0.6892(4)
H9 H 1.1900 0.6629 0.7862
C14 C 0.6285(2) 0.72171(10) 0.4255(4)
H10 H 0.6086 0.6948 0.3785
C15 C 0.9435(2) 0.74602(11) 0.5432(4)
H11 H 1.0132 0.7513 0.5690
N1 N 1.2643(2) 0.67134(14) 0.6204(3)
C16 C 1.3612(4) 0.6871(2) 0.6847(5)
H12 H 1.4093 0.6941 0.6130
H13 H 1.3489 0.7142 0.7392
H14 H 1.3900 0.6633 0.7447
C17 C 1.2632(6) 0.6644(5) 0.4746(6)
H15 H 1.3278 0.6751 0.4385
H16 H 1.2549 0.6322 0.4545
H17 H 1.2063 0.6813 0.4311
Mn1A Mn 1.0000 0.5000 1.0000
Mn1B Mn 0.5000 1.0000 0.5000
Mn1_2 Mn 0.0000 0.5000 0.5000
Mn1A_2 Mn 0.0000 0.5000 0.0000
Mn2F Mn 0.5000 0.906197(17) 0.2500
Mn2D Mn 0.0000 0.406197(17) 0.2500
O1F O 0.54380(15) 0.93689(6) 0.59219(18)
O1D O 1.04380(15) 0.43689(6) 0.59219(18)
O2D O 0.13880(13) 0.49799(6) 0.37189(17)
O2D_2 O 1.13880(13) 0.49799(6) 0.37189(17)
O3D O 0.33272(13) 0.51833(7) 0.28195(18)
C1D C 0.2591(2) 0.49728(10) 0.1869(3)
H1D H 0.2459 0.5179 0.1080
H2D H 0.2893 0.4692 0.1508
O4D O 0.09406(12) 0.46287(6) 0.16903(15)
O4A O 1.09406(12) 0.53713(6) 0.66903(15)
O4E O 0.90594(12) 0.46287(6) 0.33097(15)
O5F O 0.61008(14) 0.89393(6) 0.42265(18)
O5A O 1.11008(14) 0.60607(6) 0.92265(18)
O6F O 0.72363(18) 0.84318(7) 0.6238(2)
O7A O 0.89842(17) 0.64358(7) 0.8587(2)
C2D C 0.38875(18) 0.49025(9) 0.3710(3)
C3F C 0.5980(2) 0.90477(8) 0.5482(3)
C4D C 0.46880(18) 0.51318(9) 0.4521(3)
C5D C 0.15586(17) 0.48552(8) 0.2512(2)
C6D C 0.3716(2) 0.44414(10) 0.3883(3)
H3D H 0.3183 0.4295 0.3366
C7D C 0.4874(2) 0.56073(10) 0.4378(3)
H4D H 0.4466 0.5782 0.3752
C8D C 0.4340(2) 0.41902(10) 0.4832(3)
H5D H 0.4219 0.3876 0.4933
C9F C 0.7651(2) 0.77037(9) 0.5342(3)
C10F C 0.6526(3) 0.87763(11) 0.6636(3)
H6F H 0.5997 0.8630 0.7186
H7F H 0.6899 0.8992 0.7248
C11F C 0.6859(2) 0.80367(10) 0.5632(3)
C12F C 0.5839(2) 0.79519(10) 0.5272(4)
H8F H 0.5327 0.8165 0.5490
C13A C 0.8156(3) 0.65931(12) 0.8108(4)
H9A H 0.8100 0.6629 0.7138
C14F C 0.8715(2) 0.77829(10) 0.5745(4)
H10F H 0.8914 0.8052 0.6215
C15F C 0.5565(2) 0.75398(11) 0.4568(4)
H11F H 0.4868 0.7487 0.4310
N1A N 0.7357(2) 0.67134(14) 0.8796(3)
C16A C 0.6388(4) 0.6871(2) 0.8153(5)
H12A H 0.5907 0.6941 0.8870
H13A H 0.6511 0.7142 0.7608
H14A H 0.6100 0.6633 0.7553
C17A C 0.7368(6) 0.6644(5) 1.0254(6)
H15A H 0.6722 0.6751 1.0615
H16A H 0.7451 0.6322 1.0455
H17A H 0.7937 0.6813 1.0689
loop_
_geom_bond_atom_site_label_1
_geom_bond_atom_site_label_2
_geom_bond_site_symmetry_1
_geom_bond_site_symmetry_2
Mn1 O1 1_555 1_555
Mn2 O4 1_555 1_555
O1 C3 1_555 1_555
O2 Mn1 1_555 1_555
O3 C1 1_555 1_555
C1 H1 1_555 1_555
H2 C1 1_555 1_555
O4 C5 1_555 1_555
O5 Mn2 1_555 1_555
O6 C10 1_555 1_555
O7 Mn2 1_555 1_555
C2 O3 1_555 1_555
C3 O5 1_555 1_555
C4 C2 1_555 1_555
C5 O2 1_555 1_555
C6 C2 1_555 1_555
H3 C6 1_555 1_555
C7 C4 1_555 1_555
H4 C7 1_555 1_555
C8 C6 1_555 1_555
H5 C8 1_555 1_555
C9 C11 1_555 1_555
C10 C3 1_555 1_555
H6 C10 1_555 1_555
H7 C10 1_555 1_555
C11 O6 1_555 1_555
C12 C11 1_555 1_555
H8 C12 1_555 1_555
C13 O7 1_555 1_555
H9 C13 1_555 1_555
C14 C9 1_555 1_555
H10 C14 1_555 1_555
C15 C12 1_555 1_555
H11 C15 1_555 1_555
N1 C13 1_555 1_555
C16 N1 1_555 1_555
H12 C16 1_555 1_555
H13 C16 1_555 1_555
H14 C16 1_555 1_555
C17 N1 1_555 1_555
H15 C17 1_555 1_555
H16 C17 1_555 1_555
H17 C17 1_555 1_555
Mn1A O4 1_555 1_555
Mn1B O1F 1_555 1_555
Mn1_2 O2D 1_555 1_555
Mn1A_2 O4D 1_555 1_555
Mn2F O5F 1_555 1_555
Mn2D O4D 1_555 1_555
O1F C3F 1_555 1_555
O1D Mn1 1_555 1_555
O2D C5D 1_555 1_555
O2D_2 Mn1 1_555 1_555
O3D C1D 1_555 1_555
C1D H1D 1_555 1_555
H2D C1D 1_555 1_555
O4D C5D 1_555 1_555
O4A Mn1 1_555 1_555
O4E Mn1 1_555 1_555
O5F C3F 1_555 1_555
O5A Mn2 1_555 1_555
O6F C10F 1_555 1_555
O7A Mn2 1_555 1_555
C2D O3D 1_555 1_555
C3F C10F 1_555 1_555
C4D C4 1_555 1_555
C5D C1D 1_555 1_555
C6D C2D 1_555 1_555
H3D C6D 1_555 1_555
C7D C8 1_555 1_555
H4D C7D 1_555 1_555
C8D C7 1_555 1_555
H5D C8D 1_555 1_555
C9F C9 1_555 1_555
C10F H6F 1_555 1_555
H7F C10F 1_555 1_555
C11F O6F 1_555 1_555
C12F C11F 1_555 1_555
H8F C12F 1_555 1_555
C13A O7A 1_555 1_555
H9A C13A 1_555 1_555
C14F C15 1_555 1_555
H10F C14F 1_555 1_555
C15F C14 1_555 1_555
H11F C15F 1_555 1_555
N1A C13A 1_555 1_555
C16A N1A 1_555 1_555
H12A C16A 1_555 1_555
H13A C16A 1_555 1_555
H14A C16A 1_555 1_555
C17A N1A 1_555 1_555
H15A C17A 1_555 1_555
H16A C17A 1_555 1_555
H17A C17A 1_555 1_555
Mn2 O4A 1_555 1_555
C1 C5 1_555 1_555
C2D C4D 1_555 1_555
C4D C7D 1_555 1_555
C6D C8D 1_555 1_555
C9F C11F 1_555 1_555
C9F C14F 1_555 1_555
C12F C15F 1_555 1_555

#END
