
#######################################################################
#
#                 Cambridge Crystallographic Data Centre
#                                CCDC 
#
#######################################################################
#
# If this CIF has been generated from an entry in the Cambridge 
# Structural Database, then it will include bibliographic, chemical, 
# crystal, experimental, refinement or atomic coordinate data resulting 
# from the CCDC's data processing and validation procedures.
#
#######################################################################

data_ZASTIY
_symmetry_cell_setting           triclinic
_symmetry_space_group_name_H-M   'P -1'
_symmetry_Int_Tables_number      2
_space_group_name_Hall           '-P 1'
loop_
_symmetry_equiv_pos_site_id
_symmetry_equiv_pos_as_xyz
1 x,y,z
2 -x,-y,-z
_cell_length_a                   8.3748(3)
_cell_length_b                   13.6582(5)
_cell_length_c                   19.0224(7)
_cell_angle_alpha                74.578(2)
_cell_angle_beta                 78.091(2)
_cell_angle_gamma                77.000(2)
_cell_volume                     2018.74
loop_
_atom_site_label
_atom_site_type_symbol
_atom_site_fract_x
_atom_site_fract_y
_atom_site_fract_z
Ag1 Ag -0.22383(4) 0.73845(3) 0.66203(2)
Ag2 Ag 0.44618(4) 0.77099(3) 0.31872(2)
Ag3 Ag -0.91518(4) 0.79269(3) 0.979190(19)
O1 O 0.0065(4) 0.8260(3) 0.6666(2)
O2 O 0.0997(5) 0.6639(3) 0.7030(2)
O3 O 0.2662(4) 0.7735(3) 0.67861(19)
O4 O 0.6875(5) 0.7710(4) 0.3851(3)
O5 O 0.9340(5) 0.6803(4) 0.3836(2)
O6 O 0.7870(5) 0.6858(4) 0.3028(3)
O7 O -0.6747(4) 0.8163(3) 1.0349(2)
O8 O -0.4187(4) 0.7369(3) 1.0288(2)
O9 O -0.5733(4) 0.7193(3) 0.9570(2)
N1 N -0.2802(5) 0.8874(3) 0.5738(2)
N2 N -0.0429(5) 0.7289(3) 0.5384(2)
N3 N 0.0722(5) 0.6507(3) 0.5219(2)
N4 N 0.0738(5) 0.8443(3) 0.4339(2)
N5 N 0.1904(5) 0.7661(3) 0.4176(2)
N6 N 0.4199(5) 0.6041(3) 0.3798(2)
N7 N 0.3948(4) 0.9255(3) 0.2358(2)
N8 N 0.5842(5) 0.7552(3) 0.1869(2)
N9 N 0.6946(5) 0.6759(3) 0.1712(2)
N10 N 0.7378(5) 0.8710(3) 0.0970(2)
N11 N 0.8511(5) 0.7909(3) 0.0822(2)
N12 N 1.0651(5) 0.6271(3) 0.0406(2)
N13 N -0.9394(4) 0.9338(3) 0.8864(2)
N14 N -0.7765(4) 0.7478(3) 0.8456(2)
N15 N -0.6722(4) 0.6618(3) 0.8371(2)
N16 N -0.5760(4) 0.8481(3) 0.7726(2)
N17 N -0.4703(4) 0.7614(3) 0.7648(2)
N18 N -0.2772(4) 0.5852(3) 0.7301(2)
N19 N 0.1242(5) 0.7539(3) 0.6832(2)
N20 N 0.8047(5) 0.7109(3) 0.3576(2)
N21 N -0.5546(5) 0.7572(3) 1.0064(2)
C1 C -0.3989(6) 0.9646(4) 0.5919(3)
H1 H -0.4724 0.9505 0.6371
C2 C -0.4194(6) 1.0634(4) 0.5482(3)
H2 H -0.5041 1.1163 0.5632
C3 C -0.3133(6) 1.0836(4) 0.4819(3)
H3 H -0.3251 1.1508 0.4504
C4 C -0.1897(6) 1.0049(4) 0.4616(3)
H4 H -0.1162 1.0170 0.4162
C5 C -0.1767(5) 0.9084(4) 0.5093(3)
C6 C -0.0432(6) 0.8219(4) 0.4924(3)
C7 C 0.1809(5) 0.6713(4) 0.4592(3)
C8 C 0.2997(5) 0.5822(4) 0.4377(3)
C9 C 0.2828(6) 0.4822(4) 0.4748(3)
H5 H 0.1968 0.4697 0.5155
C10 C 0.3933(7) 0.4005(4) 0.4515(3)
H6 H 0.3841 0.3310 0.4756
C11 C 0.5175(7) 0.4227(4) 0.3922(3)
H7 H 0.5955 0.3687 0.3749
C12 C 0.5260(6) 0.5246(4) 0.3585(3)
H8 H 0.6119 0.5390 0.3181
C13 C 0.2760(5) 1.0036(4) 0.2523(3)
H9 H 0.2168 0.9957 0.3012
C14 C 0.2358(6) 1.0946(4) 0.2018(3)
H10 H 0.1497 1.1477 0.2156
C15 C 0.3224(6) 1.1079(4) 0.1303(3)
H11 H 0.2961 1.1699 0.0944
C16 C 0.4485(6) 1.0287(4) 0.1122(3)
H12 H 0.5118 1.0360 0.0642
C17 C 0.4794(5) 0.9388(4) 0.1662(3)
C18 C 0.6070(5) 0.8504(4) 0.1489(2)
C19 C 0.8252(5) 0.6962(4) 0.1186(2)
C20 C 0.9489(5) 0.6059(4) 0.1006(2)
C21 C 0.9415(6) 0.5075(4) 0.1430(3)
H13 H 0.8579 0.4955 0.1849
C22 C 1.0589(6) 0.4267(4) 0.1231(3)
H14 H 1.0564 0.3580 0.1511
C23 C 1.1805(6) 0.4460(4) 0.0620(3)
H15 H 1.2628 0.3915 0.0476
C24 C 1.1777(6) 0.5466(4) 0.0232(3)
H16 H 1.2607 0.5602 -0.0187
C25 C -1.0488(5) 1.0188(4) 0.8936(3)
H17 H -1.1148 1.0199 0.9405
C26 C -1.0730(6) 1.1055(4) 0.8373(3)
H18 H -1.1542 1.1641 0.8453
C27 C -0.9762(6) 1.1053(4) 0.7689(3)
H19 H -0.9908 1.1634 0.7287
C28 C -0.8573(5) 1.0184(4) 0.7601(3)
H20 H -0.7865 1.0170 0.7143
C29 C -0.8439(5) 0.9338(3) 0.8195(3)
C30 C -0.7261(5) 0.8372(4) 0.8119(2)
C31 C -0.5231(5) 0.6719(3) 0.7959(2)
C32 C -0.4081(5) 0.5753(3) 0.7850(2)
C33 C -0.4357(5) 0.4802(4) 0.8294(3)
H21 H -0.5293 0.4756 0.8673
C34 C -0.3247(6) 0.3924(4) 0.8176(3)
H22 H -0.3398 0.3265 0.8477
C35 C -0.1913(6) 0.4021(4) 0.7614(3)
H23 H -0.1141 0.3429 0.7517
C36 C -0.1721(6) 0.4996(4) 0.7194(3)
H24 H -0.0794 0.5058 0.6811
Ag3_2 Ag 1.08482(4) 0.79269(3) -0.020810(19)
N11_2 N -1.1489(5) 0.7909(3) 1.0822(2)
N12_2 N -0.9349(5) 0.6271(3) 1.0406(2)
loop_
_geom_bond_atom_site_label_1
_geom_bond_atom_site_label_2
_geom_bond_site_symmetry_1
_geom_bond_site_symmetry_2
Ag1 O1 1_555 1_555
Ag2 O4 1_555 1_555
Ag3 O7 1_555 1_555
O1 N19 1_555 1_555
O2 N19 1_555 1_555
O3 N19 1_555 1_555
O4 N20 1_555 1_555
O5 N20 1_555 1_555
O6 N20 1_555 1_555
O7 N21 1_555 1_555
O8 N21 1_555 1_555
O9 N21 1_555 1_555
N1 Ag1 1_555 1_555
N2 Ag1 1_555 1_555
N3 N2 1_555 1_555
N4 N5 1_555 1_555
N5 Ag2 1_555 1_555
N6 Ag2 1_555 1_555
N7 Ag2 1_555 1_555
N8 Ag2 1_555 1_555
N9 N8 1_555 1_555
N10 N11 1_555 1_555
N11 C19 1_555 1_555
N12 C20 1_555 1_555
N13 Ag3 1_555 1_555
N14 Ag3 1_555 1_555
N15 N14 1_555 1_555
N16 N17 1_555 1_555
N17 Ag1 1_555 1_555
N18 Ag1 1_555 1_555
C1 N1 1_555 1_555
H1 C1 1_555 1_555
C2 C1 1_555 1_555
H2 C2 1_555 1_555
C3 C2 1_555 1_555
H3 C3 1_555 1_555
C4 C3 1_555 1_555
H4 C4 1_555 1_555
C5 N1 1_555 1_555
C6 N2 1_555 1_555
C7 N3 1_555 1_555
C8 N6 1_555 1_555
C9 C8 1_555 1_555
H5 C9 1_555 1_555
C10 C9 1_555 1_555
H6 C10 1_555 1_555
C11 C10 1_555 1_555
H7 C11 1_555 1_555
C12 N6 1_555 1_555
H8 C12 1_555 1_555
C13 N7 1_555 1_555
H9 C13 1_555 1_555
C14 C13 1_555 1_555
H10 C14 1_555 1_555
C15 C14 1_555 1_555
H11 C15 1_555 1_555
C16 C15 1_555 1_555
H12 C16 1_555 1_555
C17 N7 1_555 1_555
C18 N8 1_555 1_555
C19 N9 1_555 1_555
C20 C19 1_555 1_555
C21 C20 1_555 1_555
H13 C21 1_555 1_555
C22 C21 1_555 1_555
H14 C22 1_555 1_555
C23 C22 1_555 1_555
H15 C23 1_555 1_555
C24 N12 1_555 1_555
H16 C24 1_555 1_555
C25 N13 1_555 1_555
H17 C25 1_555 1_555
C26 C25 1_555 1_555
H18 C26 1_555 1_555
C27 C26 1_555 1_555
H19 C27 1_555 1_555
C28 C27 1_555 1_555
H20 C28 1_555 1_555
C29 N13 1_555 1_555
C30 N14 1_555 1_555
C31 N15 1_555 1_555
C32 N18 1_555 1_555
C33 C32 1_555 1_555
H21 C33 1_555 1_555
C34 C33 1_555 1_555
H22 C34 1_555 1_555
C35 C34 1_555 1_555
H23 C35 1_555 1_555
C36 N18 1_555 1_555
H24 C36 1_555 1_555
Ag3_2 N11 1_555 1_555
N11_2 Ag3 1_555 1_555
N12_2 Ag3 1_555 1_555
N4 C6 1_555 1_555
N5 C7 1_555 1_555
N10 C18 1_555 1_555
N12 Ag3_2 1_555 1_555
N16 C30 1_555 1_555
N17 C31 1_555 1_555
C4 C5 1_555 1_555
C5 C6 1_555 1_555
C7 C8 1_555 1_555
C11 C12 1_555 1_555
C16 C17 1_555 1_555
C17 C18 1_555 1_555
C23 C24 1_555 1_555
C28 C29 1_555 1_555
C29 C30 1_555 1_555
C31 C32 1_555 1_555
C35 C36 1_555 1_555

#END
