
#######################################################################
#
#                 Cambridge Crystallographic Data Centre
#                                CCDC 
#
#######################################################################
#
# If this CIF has been generated from an entry in the Cambridge 
# Structural Database, then it will include bibliographic, chemical, 
# crystal, experimental, refinement or atomic coordinate data resulting 
# from the CCDC's data processing and validation procedures.
#
#######################################################################

data_ZASTEU
_symmetry_cell_setting           monoclinic
_symmetry_space_group_name_H-M   'P 21/c'
_symmetry_Int_Tables_number      14
_space_group_name_Hall           '-P 2ybc'
loop_
_symmetry_equiv_pos_site_id
_symmetry_equiv_pos_as_xyz
1 x,y,z
2 -x,1/2+y,1/2-z
3 -x,-y,-z
4 x,1/2-y,1/2+z
_cell_length_a                   6.9167(5)
_cell_length_b                   8.5461(5)
_cell_length_c                   16.9167(12)
_cell_angle_alpha                90
_cell_angle_beta                 95.348(2)
_cell_angle_gamma                90
_cell_volume                     995.607
loop_
_atom_site_label
_atom_site_type_symbol
_atom_site_fract_x
_atom_site_fract_y
_atom_site_fract_z
Ag1 Ag 0.20176(5) 0.86097(4) 0.424323(19)
N1 N 0.3474(6) 0.8821(4) 0.5535(2)
C1 C 0.3162(6) 1.0088(5) 0.5977(3)
H1 H 0.2545 1.0978 0.5730
N2 N 0.4543(7) 0.6384(4) 0.4635(3)
C2 C 0.3718(6) 1.0127(5) 0.6784(3)
H2 H 0.3486 1.1020 0.7095
N3 N 0.4984(5) 0.7531(4) 0.6690(2)
C3 C 0.4625(7) 0.8811(5) 0.7117(3)
H3 H 0.5012 0.8810 0.7670
N4 N 0.5159(6) 0.4855(4) 0.5808(2)
C4 C 0.4379(6) 0.7614(5) 0.5921(2)
N5 N 0.1502(7) 0.8609(4) 0.2921(3)
C5 C 0.4721(6) 0.6198(5) 0.5426(3)
N6 N 0.0323(7) 1.1447(4) 0.0743(3)
C6 C 0.0842(7) 0.8704(5) 0.2261(3)
N7 N -0.1311(7) 0.6388(4) 0.0747(2)
C7 C 0.0146(7) 0.8825(5) 0.1469(3)
C8 C -0.0659(6) 0.7493(5) 0.1071(2)
C9 C 0.0244(6) 1.0252(5) 0.1063(2)
Ag1B Ag 0.79824(5) 0.13903(4) 0.575677(19)
Ag1A Ag -0.20176(5) 1.36097(4) 0.075677(19)
Ag1A_2 Ag -0.20176(5) 0.36097(4) 0.075677(19)
Ag1C Ag 1.20176(5) 0.63903(4) 0.924323(19)
Ag1C_2 Ag 1.20176(5) -0.36097(4) 0.924323(19)
N1B N 0.6526(6) 0.1179(4) 0.4465(2)
C1B C 0.6838(6) -0.0088(5) 0.4023(3)
H1B H 0.7455 -0.0978 0.4270
N2B N 0.5457(7) 0.3616(4) 0.5365(3)
C2B C 0.6282(6) -0.0127(5) 0.3216(3)
H2B H 0.6514 -0.1020 0.2905
N3B N 0.5016(5) 0.2469(4) 0.3310(2)
C3B C 0.5375(7) 0.1189(5) 0.2883(3)
H3B H 0.4988 0.1190 0.2330
N4B N 0.4841(6) 0.5145(4) 0.4192(2)
C4B C 0.5621(6) 0.2386(5) 0.4079(2)
N5B N 0.8498(7) 0.1391(4) 0.7079(3)
C5B C 0.5279(6) 0.3802(5) 0.4574(3)
N6A N -0.0323(7) 0.6447(4) 0.4257(3)
N6C N 1.0323(7) 0.3553(4) 0.5743(3)
N6B N 0.9677(7) -0.1447(4) 0.9257(3)
C6B C 0.9158(7) 0.1296(5) 0.7739(3)
N7A N 0.1311(7) 1.1388(4) 0.4253(2)
N7C N 0.8689(7) -0.1388(4) 0.5747(2)
N7B N 1.1311(7) 0.3612(4) 0.9253(2)
C7B C 0.9854(7) 0.1175(5) 0.8531(3)
C8B C 1.0659(6) 0.2507(5) 0.8929(2)
C9B C 0.9756(6) -0.0252(5) 0.8937(2)
loop_
_geom_bond_atom_site_label_1
_geom_bond_atom_site_label_2
_geom_bond_site_symmetry_1
_geom_bond_site_symmetry_2
Ag1 N1 1_555 1_555
N1 C1 1_555 1_555
C1 H1 1_555 1_555
N2 Ag1 1_555 1_555
C2 C1 1_555 1_555
H2 C2 1_555 1_555
N3 C3 1_555 1_555
C3 C2 1_555 1_555
H3 C3 1_555 1_555
N4 C5 1_555 1_555
C4 N1 1_555 1_555
N5 Ag1 1_555 1_555
C5 N2 1_555 1_555
N6 C9 1_555 1_555
C6 N5 1_555 1_555
N7 C8 1_555 1_555
C7 C6 1_555 1_555
C8 C7 1_555 1_555
C9 C7 1_555 1_555
Ag1B N1B 1_555 1_555
Ag1A N6 1_555 1_555
Ag1A_2 N7 1_555 1_555
Ag1C N7B 1_555 1_555
Ag1C_2 N6B 1_555 1_555
N1B C1B 1_555 1_555
C1B H1B 1_555 1_555
N2B N4 1_555 1_555
C2B C1B 1_555 1_555
H2B C2B 1_555 1_555
N3B C3B 1_555 1_555
C3B C2B 1_555 1_555
H3B C3B 1_555 1_555
N4B N2 1_555 1_555
C4B N1B 1_555 1_555
N5B Ag1B 1_555 1_555
C5B N2B 1_555 1_555
N6A Ag1 1_555 1_555
N6C Ag1B 1_555 1_555
N6B C9B 1_555 1_555
C6B N5B 1_555 1_555
N7A Ag1 1_555 1_555
N7C Ag1B 1_555 1_555
N7B C8B 1_555 1_555
C7B C6B 1_555 1_555
C8B C7B 1_555 1_555
C9B C7B 1_555 1_555
N3 C4 1_555 1_555
C4 C5 1_555 1_555
Ag1B N2B 1_555 1_555
N3B C4B 1_555 1_555
N4B C5B 1_555 1_555
C4B C5B 1_555 1_555

#END
