
#######################################################################
#
#                 Cambridge Crystallographic Data Centre
#                                CCDC 
#
#######################################################################
#
# If this CIF has been generated from an entry in the Cambridge 
# Structural Database, then it will include bibliographic, chemical, 
# crystal, experimental, refinement or atomic coordinate data resulting 
# from the CCDC's data processing and validation procedures.
#
#######################################################################

data_ZASVAS
_symmetry_cell_setting           monoclinic
_symmetry_space_group_name_H-M   'P 21/c'
_symmetry_Int_Tables_number      14
_space_group_name_Hall           '-P 2ybc'
loop_
_symmetry_equiv_pos_site_id
_symmetry_equiv_pos_as_xyz
1 x,y,z
2 -x,1/2+y,1/2-z
3 -x,-y,-z
4 x,1/2-y,1/2+z
_cell_length_a                   11.6576(3)
_cell_length_b                   7.97420(10)
_cell_length_c                   15.6452(3)
_cell_angle_alpha                90
_cell_angle_beta                 102.303(2)
_cell_angle_gamma                90
_cell_volume                     1420.98
loop_
_atom_site_label
_atom_site_type_symbol
_atom_site_fract_x
_atom_site_fract_y
_atom_site_fract_z
Cd1 Cd 0.48713(2) 0.46566(3) 0.802829(17)
O1 O -0.3819(2) -0.5307(3) 0.96157(19)
O2 O -0.1278(2) -0.3033(3) 0.93723(17)
O3 O 0.5107(2) 0.1835(3) 0.81381(16)
O4 O -0.3325(2) -0.4121(4) 0.84729(17)
O5 O 0.3004(2) 0.3771(3) 0.73086(18)
O6 O 0.3727(2) 0.6228(3) 0.87038(18)
C1 C -0.3112(3) -0.4485(4) 0.9270(3)
C2 C -0.1967(3) -0.3957(5) 0.9859(2)
H1 H -0.2126 -0.3269 1.0332
H2 H -0.1537 -0.4942 1.0113
C3 C 0.0247(3) -0.2800(5) 1.0690(2)
H3 H -0.0212 -0.3337 1.1025
C4 C 0.0489(3) -0.1670(4) 0.9293(2)
C5 C 0.0059(3) -0.1315(5) 0.8402(3)
H4 H -0.0676 -0.1708 0.8121
C6 C 0.1390(3) -0.2271(5) 1.1078(2)
H5 H 0.1683 -0.2470 1.1670
C7 C -0.0188(3) -0.2521(4) 0.9815(2)
O7 O 0.3409(2) 0.0222(3) 0.96445(18)
O8 O 0.4539(2) -0.0747(3) 0.83324(18)
C8 C 0.2301(3) -0.0220(4) 0.9196(3)
C9 C 0.1845(4) 0.0165(5) 0.8340(3)
H6 H 0.2279 0.0793 0.8020
C10 C 0.0712(3) -0.0400(5) 0.7949(3)
H7 H 0.0402 -0.0140 0.7365
C11 C 0.4600(3) 0.0774(4) 0.8537(2)
C12 C 0.4046(3) 0.1434(5) 0.9262(2)
H8 H 0.4660 0.1896 0.9719
H9 H 0.3517 0.2343 0.9031
C13 C 0.2070(3) -0.1477(5) 1.0603(2)
H10 H 0.2829 -0.1158 1.0871
C14 C 0.1644(3) -0.1126(4) 0.9708(2)
Cd1_2 Cd -0.51287(2) -0.53434(3) 0.802829(17)
Cd1A Cd 0.51287(2) -0.03434(3) 0.697171(17)
O4_2 O 0.6675(2) 0.5879(4) 0.84729(17)
O8A O 0.5461(2) 0.4253(3) 0.66676(18)
loop_
_geom_bond_atom_site_label_1
_geom_bond_atom_site_label_2
_geom_bond_site_symmetry_1
_geom_bond_site_symmetry_2
Cd1 O3 1_555 1_555
O1 C1 1_555 1_555
O2 C2 1_555 1_555
O3 C11 1_555 1_555
O4 C1 1_555 1_555
O5 Cd1 1_555 1_555
O6 Cd1 1_555 1_555
C1 C2 1_555 1_555
C2 H1 1_555 1_555
H2 C2 1_555 1_555
C3 H3 1_555 1_555
C4 C5 1_555 1_555
C5 H4 1_555 1_555
C6 C3 1_555 1_555
H5 C6 1_555 1_555
C7 O2 1_555 1_555
O7 C8 1_555 1_555
O8 C11 1_555 1_555
C8 C9 1_555 1_555
C9 H6 1_555 1_555
C10 C5 1_555 1_555
H7 C10 1_555 1_555
C11 C12 1_555 1_555
C12 O7 1_555 1_555
H8 C12 1_555 1_555
H9 C12 1_555 1_555
C13 C6 1_555 1_555
H10 C13 1_555 1_555
C14 C4 1_555 1_555
Cd1_2 O4 1_555 1_555
Cd1A O8 1_555 1_555
O4_2 Cd1 1_555 1_555
O8A Cd1 1_555 1_555
C3 C7 1_555 1_555
C4 C7 1_555 1_555
C8 C14 1_555 1_555
C9 C10 1_555 1_555
C13 C14 1_555 1_555

#END
