
#######################################################################
#
#                 Cambridge Crystallographic Data Centre
#                                CCDC 
#
#######################################################################
#
# If this CIF has been generated from an entry in the Cambridge 
# Structural Database, then it will include bibliographic, chemical, 
# crystal, experimental, refinement or atomic coordinate data resulting 
# from the CCDC's data processing and validation procedures.
#
#######################################################################

data_ZASVEW
_symmetry_cell_setting           monoclinic
_symmetry_space_group_name_H-M   'P 21/c'
_symmetry_Int_Tables_number      14
_space_group_name_Hall           '-P 2ybc'
loop_
_symmetry_equiv_pos_site_id
_symmetry_equiv_pos_as_xyz
1 x,y,z
2 -x,1/2+y,1/2-z
3 -x,-y,-z
4 x,1/2-y,1/2+z
_cell_length_a                   11.9066(2)
_cell_length_b                   20.4425(4)
_cell_length_c                   7.46310(10)
_cell_angle_alpha                90
_cell_angle_beta                 98.596(2)
_cell_angle_gamma                90
_cell_volume                     1796.12
loop_
_atom_site_label
_atom_site_type_symbol
_atom_site_fract_x
_atom_site_fract_y
_atom_site_fract_z
Pb1 Pb 0.839861(14) 0.794752(8) 0.04988(2)
O1 O 0.6166(3) 0.78709(15) 0.0813(4)
O2 O 0.5398(2) 0.62555(14) 0.2052(3)
O3 O 0.9638(3) 0.69506(14) 0.1595(4)
C1 C 0.5763(3) 0.6067(2) -0.1018(5)
H1 H 0.6015 0.6494 -0.1127
O4 O 1.0246(2) 0.56397(14) 0.1488(4)
O5 O 0.7278(2) 0.70717(14) 0.1953(4)
C2 C 0.5739(3) 0.5628(2) -0.2459(5)
H2 H 0.5984 0.5767 -0.3522
O6 O 0.8627(3) 0.68966(16) -0.1115(4)
C3 C 0.5012(3) 0.5216(2) 0.0752(5)
C4 C 0.6314(4) 0.7321(2) 0.1467(5)
C5 C 0.5269(3) 0.69346(19) 0.1715(6)
H3 H 0.4949 0.7128 0.2714
H4 H 0.4715 0.6991 0.0633
C6 C 1.1447(3) 0.4963(2) 0.4328(5)
H5 H 1.1819 0.5097 0.3381
C7 C 0.5414(3) 0.58628(19) 0.0555(5)
O7 O 1.0502(3) 0.83497(19) 0.1460(4)
C8 C 0.5366(3) 0.5001(2) -0.2344(5)
H6 H 0.5361 0.4718 -0.3319
C9 C 1.0279(3) 0.51011(19) 0.4281(5)
C10 C 0.8507(4) 0.5576(2) 0.2805(5)
H7 H 0.8093 0.5799 0.1839
C11 C 0.9299(4) 0.6636(2) 0.0188(6)
C12 C 0.9633(4) 0.54536(19) 0.2818(5)
C13 C 0.9637(4) 0.5942(2) -0.0089(5)
H8 H 0.8958 0.5688 -0.0491
H9 H 1.0105 0.5930 -0.1048
C14 C 1.1222(4) 0.8323(3) 0.0427(7)
H10 H 1.0984 0.8198 -0.0768
N1 N 1.2295(4) 0.8460(2) 0.0911(7)
C15 C 1.2022(4) 0.4636(2) 0.5748(6)
H11 H 1.2790 0.4550 0.5765
C16 C 1.2674(5) 0.8693(4) 0.2719(10)
H12 H 1.3478 0.8771 0.2873
H13 H 1.2508 0.8371 0.3580
H14 H 1.2287 0.9094 0.2912
C17 C 1.3092(5) 0.8463(5) -0.0368(11)
H15 H 1.3833 0.8576 0.0246
H16 H 1.2856 0.8779 -0.1302
H17 H 1.3117 0.8037 -0.0900
Pb1B Pb 0.160139(14) 0.205248(8) -0.04988(2)
Pb1C Pb 0.839861(14) 0.705248(8) -0.45012(2)
Pb1B_2 Pb 1.160139(14) 0.205248(8) 0.95012(2)
Pb1A Pb 1.160139(14) 0.294752(8) 1.45012(2)
O1B O 0.3834(3) 0.21291(15) -0.0813(4)
O2B O 0.4602(2) 0.37445(14) -0.2052(3)
O3B O 1.0362(3) 0.30494(14) 0.8405(4)
O3B_2 O 0.0362(3) 0.30494(14) -0.1595(4)
C1B C 0.4237(3) 0.3933(2) 0.1018(5)
H1B H 0.3985 0.3506 0.1127
O4B O 0.9754(2) 0.43603(14) 0.8512(4)
O5B O 0.2722(2) 0.29283(14) -0.1953(4)
C2B C 0.4261(3) 0.4372(2) 0.2459(5)
H2B H 0.4016 0.4233 0.3522
O6B O 1.1373(3) 0.31034(16) 1.1115(4)
O6C O 0.8627(3) 0.81034(16) 0.3885(4)
O6B_2 O 0.1373(3) 0.31034(16) 0.1115(4)
O6A O 0.1373(3) 0.18966(16) -0.3885(4)
C3B C 0.4988(3) 0.4784(2) -0.0752(5)
C4B C 0.3686(4) 0.2679(2) -0.1467(5)
C5B C 0.4731(3) 0.30654(19) -0.1715(6)
H3B H 0.5051 0.2872 -0.2714
H4B H 0.5285 0.3009 -0.0633
C6B C 0.8553(3) 0.5037(2) 0.5672(5)
H5B H 0.8181 0.4903 0.6619
C7B C 0.4586(3) 0.41372(19) -0.0555(5)
O7B O -0.0502(3) 0.16503(19) -0.1460(4)
C8B C 0.4634(3) 0.4999(2) 0.2344(5)
H6B H 0.4639 0.5282 0.3319
C9B C 0.9721(3) 0.48989(19) 0.5719(5)
C10B C 1.1493(4) 0.4424(2) 0.7195(5)
H7B H 1.1907 0.4201 0.8161
C11B C 1.0701(4) 0.3364(2) 0.9812(6)
C12B C 1.0367(4) 0.45464(19) 0.7182(5)
C13B C 1.0363(4) 0.4058(2) 1.0089(5)
H8B H 1.1042 0.4312 1.0491
H9B H 0.9895 0.4070 1.1048
C14B C -0.1222(4) 0.1677(3) -0.0427(7)
H10B H -0.0984 0.1802 0.0768
N1B N -0.2295(4) 0.1540(2) -0.0911(7)
C15B C 0.7978(4) 0.5364(2) 0.4252(6)
H11B H 0.7210 0.5450 0.4235
C16B C -0.2674(5) 0.1307(4) -0.2719(10)
H12B H -0.3478 0.1229 -0.2873
H13B H -0.2508 0.1629 -0.3580
H14B H -0.2287 0.0906 -0.2912
C17B C -0.3092(5) 0.1537(5) 0.0368(11)
H15B H -0.3833 0.1424 -0.0246
H16B H -0.2856 0.1221 0.1302
H17B H -0.3117 0.1963 0.0900
loop_
_geom_bond_atom_site_label_1
_geom_bond_atom_site_label_2
_geom_bond_site_symmetry_1
_geom_bond_site_symmetry_2
Pb1 O1 1_555 1_555
O1 C4 1_555 1_555
O2 C5 1_555 1_555
O3 Pb1 1_555 1_555
C1 H1 1_555 1_555
O4 C12 1_555 1_555
O5 Pb1 1_555 1_555
C2 C1 1_555 1_555
H2 C2 1_555 1_555
O6 Pb1 1_555 1_555
C3 C7 1_555 1_555
C4 O5 1_555 1_555
C5 C4 1_555 1_555
H3 C5 1_555 1_555
H4 C5 1_555 1_555
C6 H5 1_555 1_555
C7 O2 1_555 1_555
O7 Pb1 1_555 1_555
C8 C2 1_555 1_555
H6 C8 1_555 1_555
C9 C6 1_555 1_555
C10 H7 1_555 1_555
C11 O3 1_555 1_555
C12 C9 1_555 1_555
C13 O4 1_555 1_555
H8 C13 1_555 1_555
H9 C13 1_555 1_555
C14 O7 1_555 1_555
H10 C14 1_555 1_555
N1 C14 1_555 1_555
C15 C6 1_555 1_555
H11 C15 1_555 1_555
C16 N1 1_555 1_555
H12 C16 1_555 1_555
H13 C16 1_555 1_555
H14 C16 1_555 1_555
C17 N1 1_555 1_555
H15 C17 1_555 1_555
H16 C17 1_555 1_555
H17 C17 1_555 1_555
Pb1B O1B 1_555 1_555
Pb1C O6 1_555 1_555
Pb1B_2 O3B 1_555 1_555
Pb1A O6B 1_555 1_555
O1B C4B 1_555 1_555
O2B C5B 1_555 1_555
O3B C11B 1_555 1_555
O3B_2 Pb1B 1_555 1_555
C1B H1B 1_555 1_555
O4B C12B 1_555 1_555
O5B Pb1B 1_555 1_555
C2B C1B 1_555 1_555
H2B C2B 1_555 1_555
O6B Pb1B_2 1_555 1_555
O6C Pb1 1_555 1_555
O6B_2 Pb1B 1_555 1_555
O6A Pb1B 1_555 1_555
C3B C3 1_555 1_555
C4B O5B 1_555 1_555
C5B C4B 1_555 1_555
H3B C5B 1_555 1_555
H4B C5B 1_555 1_555
C6B H5B 1_555 1_555
C7B O2B 1_555 1_555
O7B Pb1B 1_555 1_555
C8B C3 1_555 1_555
H6B C8B 1_555 1_555
C9B C9 1_555 1_555
C10B C15 1_555 1_555
H7B C10B 1_555 1_555
C11B O6B 1_555 1_555
C12B C9B 1_555 1_555
C13B O4B 1_555 1_555
H8B C13B 1_555 1_555
H9B C13B 1_555 1_555
C14B O7B 1_555 1_555
H10B C14B 1_555 1_555
N1B C14B 1_555 1_555
C15B C10 1_555 1_555
H11B C15B 1_555 1_555
C16B N1B 1_555 1_555
H12B C16B 1_555 1_555
H13B C16B 1_555 1_555
H14B C16B 1_555 1_555
C17B N1B 1_555 1_555
H15B C17B 1_555 1_555
H16B C17B 1_555 1_555
H17B C17B 1_555 1_555
C1 C7 1_555 1_555
O6 C11 1_555 1_555
C8 C3B 1_555 1_555
C10 C12 1_555 1_555
C11 C13 1_555 1_555
C1B C7B 1_555 1_555
C2B C8B 1_555 1_555
C3B C7B 1_555 1_555
C6B C9B 1_555 1_555
C6B C15B 1_555 1_555
C10B C12B 1_555 1_555
C11B C13B 1_555 1_555

#END
