
#######################################################################
#
#                 Cambridge Crystallographic Data Centre
#                                CCDC 
#
#######################################################################
#
# If this CIF has been generated from an entry in the Cambridge 
# Structural Database, then it will include bibliographic, chemical, 
# crystal, experimental, refinement or atomic coordinate data resulting 
# from the CCDC's data processing and validation procedures.
#
#######################################################################

data_ZASVOG
_symmetry_cell_setting           triclinic
_symmetry_space_group_name_H-M   'P -1'
_symmetry_Int_Tables_number      2
_space_group_name_Hall           '-P 1'
loop_
_symmetry_equiv_pos_site_id
_symmetry_equiv_pos_as_xyz
1 x,y,z
2 -x,-y,-z
_cell_length_a                   11.7493(11)
_cell_length_b                   12.9213(13)
_cell_length_c                   14.2679(17)
_cell_angle_alpha                107.940(10)
_cell_angle_beta                 97.377(9)
_cell_angle_gamma                97.394(8)
_cell_volume                     2010.97
loop_
_atom_site_label
_atom_site_type_symbol
_atom_site_fract_x
_atom_site_fract_y
_atom_site_fract_z
Cd1 Cd 0.0000 0.5000 0.5000
Cd2 Cd 0.53895(6) -0.55775(6) 0.23443(5)
Cd3 Cd 0.28331(5) 0.44636(5) 0.49350(5)
O1 O 0.1811(6) 0.2981(5) 0.5091(6)
O2 O 0.5763(6) -0.4373(6) 0.3956(5)
O3 O 0.3415(6) 0.6567(6) 0.7111(6)
O4 O 0.1105(6) 0.4766(6) 0.3748(5)
O5 O -0.0029(6) 0.3260(5) 0.4999(6)
O6 O 0.4549(6) -0.1925(6) 0.4416(5)
O7 O 0.1832(5) 0.5536(5) 0.6044(5)
O8 O 0.2225(6) 0.8051(6) 0.8025(5)
O9 O 0.4675(6) -0.3760(7) 0.2949(5)
O10 O 0.3592(6) 1.3582(7) 1.3617(5)
C1 C 0.5202(7) -0.3632(7) 0.3786(7)
O11 O 0.3594(7) 1.3475(7) 1.2040(6)
N1 N 0.5233(7) -0.6517(7) 0.0648(6)
C2 C 0.2385(8) 0.6409(8) 0.6754(7)
C3 C 0.5202(9) -0.2649(8) 0.4702(8)
H1 H 0.4863 -0.2898 0.5197
H2 H 0.5996 -0.2270 0.4997
C4 C 0.1739(9) 0.8949(9) 0.8440(8)
O12 O 0.1280(6) 0.1188(6) 0.5679(6)
O13 O 0.1597(6) 1.1926(6) 1.1367(6)
C5 C 0.0778(7) 0.2739(8) 0.5125(7)
C6 C 0.5892(8) -0.6020(9) 0.0142(7)
O14 O 0.2837(7) 0.5869(7) 0.4330(7)
N2 N 0.6733(7) -0.4585(8) 0.1708(7)
C7 C 0.3143(9) 1.3267(9) 1.2725(9)
C8 C 0.2651(7) 0.0010(8) 0.5392(8)
C9 C 0.1877(8) 0.5534(8) 0.3720(9)
C10 C 0.4039(8) -0.1267(8) 0.5121(7)
C11 C 0.2206(8) 0.9574(8) 0.9468(8)
C12 C 0.3256(7) -0.0685(8) 0.4752(8)
C13 C 0.2145(9) 1.1090(8) 1.0977(8)
C14 C 0.1837(7) 0.0556(7) 0.4989(8)
C15 C 0.6680(8) -0.4948(8) 0.0703(7)
C16 C 0.4230(9) -0.1131(9) 0.6117(9)
H3 H 0.4759 -0.1498 0.6370
C17 C 0.5790(10) -0.6533(10) -0.0900(8)
H4 H 0.6250 -0.6207 -0.1253
C18 C 0.0371(8) 0.1670(8) 0.5347(9)
H5 H -0.0119 0.1832 0.5853
H6 H -0.0104 0.1135 0.4743
C19 C 0.2868(9) 0.0133(8) 0.6417(8)
H7 H 0.2497 0.0601 0.6865
C20 C 0.3027(9) -0.0832(9) 0.3695(8)
H8 H 0.3413 -0.1288 0.3252
C21 C 0.1658(9) 0.0403(9) 0.3999(8)
H9 H 0.1135 0.0773 0.3743
C22 C 0.1698(8) 1.0498(8) 0.9950(8)
O15 O 0.0827(9) 0.5508(9) 0.2195(8)
C23 C 0.0769(8) 1.0770(9) 0.9407(8)
H10 H 0.0409 1.1350 0.9721
C24 C 0.3642(10) -0.0454(10) 0.6748(8)
H11 H 0.3769 -0.0387 0.7423
C25 C 0.2232(10) -0.0285(9) 0.3362(8)
H12 H 0.2073 -0.0381 0.2682
C26 C 0.1701(9) 0.6127(10) 0.2981(8)
H13 H 0.1495 0.6839 0.3303
H14 H 0.2419 0.6255 0.2734
C27 C 0.4361(11) -0.8000(12) -0.0840(10)
H15 H 0.3833 -0.8659 -0.1147
C28 C 0.3042(11) 1.0781(11) 1.1472(10)
H16 H 0.3322 1.1177 1.2145
C29 C 0.7449(10) -0.3663(10) 0.2255(10)
H17 H 0.7494 -0.3440 0.2946
C30 C 0.0821(9) 0.9249(10) 0.7926(9)
H18 H 0.0495 0.8837 0.7265
C31 C 0.5011(11) -0.7522(11) -0.1414(9)
H19 H 0.4926 -0.7850 -0.2104
C32 C 0.1956(10) 1.2532(10) 1.2427(8)
H20 H 0.1954 1.2005 1.2786
H21 H 0.1381 1.2986 1.2643
C33 C 0.4512(10) -0.7489(10) 0.0168(9)
H22 H 0.4098 -0.7827 0.0541
C34 C 0.7302(10) -0.4343(11) 0.0256(10)
H23 H 0.7237 -0.4583 -0.0437
C35 C 0.3125(10) 0.9286(10) 1.0002(9)
H24 H 0.3456 0.8684 0.9689
C36 C 0.1664(9) 0.7301(9) 0.7057(8)
H25 H 0.1611 0.7690 0.6575
H26 H 0.0882 0.6979 0.7085
C37 C 0.0405(9) 1.0194(11) 0.8439(10)
H27 H -0.0162 1.0436 0.8082
C38 C 0.8131(11) -0.3013(11) 0.1867(12)
H28 H 0.8631 -0.2370 0.2278
C39 C 0.0068(10) 0.4921(13) 0.0456(11)
C40 C 0.3542(11) 0.9903(11) 1.1004(11)
H29 H 0.4161 0.9719 1.1358
C41 C 0.0730(12) 0.5687(12) 0.1304(10)
C42 C -0.0510(12) 0.3862(12) 0.0550(13)
H30 H -0.0445 0.3729 0.1157
C43 C 0.1270(12) 0.6719(13) 0.1226(13)
H31 H 0.1712 0.7279 0.1782
C44 C 0.8042(12) -0.3355(12) 0.0842(14)
H32 H 0.8472 -0.2933 0.0542
C45 C -0.1101(13) 0.3153(13) -0.0266(13)
H33 H -0.1456 0.2486 -0.0224
Cd1_2 Cd 0.0000 0.5000 -0.5000
Cd2A Cd -0.53895(6) 1.55775(6) 0.76557(5)
Cd2A_2 Cd 0.46105(6) 0.55775(6) 0.76557(5)
Cd2_2 Cd 0.53895(6) 1.44225(6) 1.23443(5)
Cd2_3 Cd -0.46105(6) 0.44225(6) 0.23443(5)
Cd2A_3 Cd -0.53895(6) -0.44225(6) -0.23443(5)
Cd3A Cd -0.28331(5) 0.55364(5) 0.50650(5)
Cd3A_2 Cd 0.71669(5) -0.44636(5) 0.50650(5)
Cd3_2 Cd 0.28331(5) 1.44636(5) 1.49350(5)
Cd3A_3 Cd -0.28331(5) 0.55364(5) -0.49350(5)
Cd3_3 Cd -0.71669(5) 1.44636(5) 0.49350(5)
Cd3A_4 Cd -0.28331(5) -0.44636(5) -0.49350(5)
O1A O -0.1811(6) 0.7019(5) 0.4909(6)
O2A O -0.5763(6) 1.4373(6) 0.6044(5)
O2A_2 O 0.4237(6) 0.4373(6) 0.6044(5)
O2_2 O -0.4237(6) 0.5627(6) 0.3956(5)
O3A O -0.3415(6) 0.3433(6) 0.2889(6)
O3A_2 O 0.6585(6) -0.6567(6) 0.2889(6)
O3_2 O -0.6585(6) 1.6567(6) 0.7111(6)
O4A O -0.1105(6) 0.5234(6) -0.3748(5)
O4A_2 O -0.1105(6) 0.5234(6) 0.6252(5)
O5A O 0.0029(6) 0.6740(5) 0.5001(6)
O6A O -0.4549(6) 1.1925(6) 0.5584(5)
O7A O -0.1832(5) 0.4464(5) 0.3956(5)
O8A O -0.2225(6) 0.1949(6) 0.1975(5)
O9A O -0.4675(6) 1.3760(7) 0.7051(5)
O10A O -0.3592(6) -0.3582(7) -0.3617(5)
O10_2 O 0.3592(6) 0.3582(7) 0.3617(5)
O10A_2 O -0.3592(6) 0.6418(7) 0.6383(5)
C1A C -0.5202(7) 1.3632(7) 0.6214(7)
O11A O -0.3594(7) -0.3475(7) -0.2040(6)
O11_2 O 0.3594(7) -0.6525(7) 0.2040(6)
O11A_2 O -0.3594(7) 1.6525(7) 0.7960(6)
N1A N -0.5233(7) 1.6517(7) 0.9352(6)
C2A C -0.2385(8) 0.3591(8) 0.3246(7)
C3A C -0.5202(9) 1.2649(8) 0.5298(8)
H1A H -0.4863 1.2898 0.4803
H2A H -0.5996 1.2270 0.5003
C4A C -0.1739(9) 0.1051(9) 0.1560(8)
O12A O -0.1280(6) 0.8812(6) 0.4321(6)
O13A O -0.1597(6) -0.1926(6) -0.1367(6)
C5A C -0.0778(7) 0.7261(8) 0.4875(7)
C6A C -0.5892(8) 1.6020(9) 0.9858(7)
O14A O -0.2837(7) 0.4131(7) -0.4330(7)
O14A_2 O -0.2837(7) 0.4131(7) 0.5670(7)
N2A N -0.6733(7) 1.4585(8) 0.8292(7)
C7A C -0.3143(9) -0.3267(9) -0.2725(9)
C8A C -0.2651(7) 0.9990(8) 0.4608(8)
C9A C -0.1877(8) 0.4466(8) -0.3720(9)
C10A C -0.4039(8) 1.1267(8) 0.4879(7)
C11A C -0.2206(8) 0.0426(8) 0.0532(8)
C12A C -0.3256(7) 1.0685(8) 0.5248(8)
C13A C -0.2145(9) -0.1090(8) -0.0977(8)
C14A C -0.1837(7) 0.9444(7) 0.5011(8)
C15A C -0.6680(8) 1.4948(8) 0.9297(7)
C16A C -0.4230(9) 1.1131(9) 0.3883(9)
H3A H -0.4759 1.1498 0.3630
C17A C -0.5790(10) 1.6533(10) 1.0900(8)
H4A H -0.6250 1.6207 1.1253
C18A C -0.0371(8) 0.8330(8) 0.4653(9)
H5A H 0.0119 0.8168 0.4147
H6A H 0.0104 0.8865 0.5257
C19A C -0.2868(9) 0.9867(8) 0.3583(8)
H7A H -0.2497 0.9399 0.3135
C20A C -0.3027(9) 1.0832(9) 0.6305(8)
H8A H -0.3413 1.1288 0.6748
C21A C -0.1658(9) 0.9597(9) 0.6001(8)
H9A H -0.1135 0.9227 0.6257
C22A C -0.1698(8) -0.0498(8) 0.0050(8)
O15A O -0.0827(9) 0.4492(9) -0.2195(8)
C23A C -0.0769(8) -0.0770(9) 0.0593(8)
H10A H -0.0409 -0.1350 0.0279
C24A C -0.3642(10) 1.0454(10) 0.3252(8)
H11A H -0.3769 1.0387 0.2577
C25A C -0.2232(10) 1.0285(9) 0.6638(8)
H12A H -0.2073 1.0381 0.7318
C26A C -0.1701(9) 0.3873(10) -0.2981(8)
H13A H -0.1495 0.3161 -0.3303
H14A H -0.2419 0.3745 -0.2734
C27A C -0.4361(11) 1.8000(12) 1.0840(10)
H15A H -0.3833 1.8659 1.1147
C28A C -0.3042(11) -0.0781(11) -0.1472(10)
H16A H -0.3322 -0.1177 -0.2145
C29A C -0.7449(10) 1.3663(10) 0.7745(10)
H17A H -0.7494 1.3440 0.7054
C30A C -0.0821(9) 0.0751(10) 0.2074(9)
H18A H -0.0495 0.1163 0.2735
C31A C -0.5011(11) 1.7522(11) 1.1414(9)
H19A H -0.4926 1.7850 1.2104
C32A C -0.1956(10) -0.2532(10) -0.2427(8)
H20A H -0.1954 -0.2005 -0.2786
H21A H -0.1381 -0.2986 -0.2643
C33A C -0.4512(10) 1.7489(10) 0.9832(9)
H22A H -0.4098 1.7827 0.9459
C34A C -0.7302(10) 1.4343(11) 0.9744(10)
H23A H -0.7237 1.4583 1.0437
C35A C -0.3125(10) 0.0714(10) -0.0002(9)
H24A H -0.3456 0.1316 0.0311
C36A C -0.1664(9) 0.2699(9) 0.2943(8)
H25A H -0.1611 0.2310 0.3425
H26A H -0.0882 0.3021 0.2915
C37A C -0.0405(9) -0.0194(11) 0.1561(10)
H27A H 0.0162 -0.0436 0.1918
C38A C -0.8131(11) 1.3013(11) 0.8133(12)
H28A H -0.8631 1.2370 0.7722
C39A C -0.0068(10) 0.5079(13) -0.0456(11)
C40A C -0.3542(11) 0.0097(11) -0.1004(11)
H29A H -0.4161 0.0281 -0.1358
C41A C -0.0730(12) 0.4313(12) -0.1304(10)
C42A C 0.0510(12) 0.6138(12) -0.0550(13)
H30A H 0.0445 0.6271 -0.1157
C43A C -0.1270(12) 0.3281(13) -0.1226(13)
H31A H -0.1712 0.2721 -0.1782
C44A C -0.8042(12) 1.3355(12) 0.9158(14)
H32A H -0.8472 1.2933 0.9458
C45A C 0.1101(13) 0.6847(13) 0.0266(13)
H33A H 0.1456 0.7514 0.0224
loop_
_geom_bond_atom_site_label_1
_geom_bond_atom_site_label_2
_geom_bond_site_symmetry_1
_geom_bond_site_symmetry_2
Cd1 O4 1_555 1_555
Cd2 O2 1_555 1_555
Cd3 O1 1_555 1_555
O1 C5 1_555 1_555
O2 C1 1_555 1_555
O3 C2 1_555 1_555
O4 C9 1_555 1_555
O5 Cd1 1_555 1_555
O6 C3 1_555 1_555
O7 Cd1 1_555 1_555
O8 C4 1_555 1_555
O9 Cd2 1_555 1_555
O10 C7 1_555 1_555
C1 O9 1_555 1_555
O11 C7 1_555 1_555
N1 Cd2 1_555 1_555
C2 O7 1_555 1_555
C3 C1 1_555 1_555
H1 C3 1_555 1_555
H2 C3 1_555 1_555
C4 C11 1_555 1_555
O12 C14 1_555 1_555
O13 C13 1_555 1_555
C5 O5 1_555 1_555
C6 N1 1_555 1_555
O14 Cd3 1_555 1_555
N2 Cd2 1_555 1_555
C7 C32 1_555 1_555
C8 C12 1_555 1_555
C9 O14 1_555 1_555
C10 O6 1_555 1_555
C11 C22 1_555 1_555
C12 C10 1_555 1_555
C13 C22 1_555 1_555
C14 C8 1_555 1_555
C15 C6 1_555 1_555
C16 C10 1_555 1_555
H3 C16 1_555 1_555
C17 C6 1_555 1_555
H4 C17 1_555 1_555
C18 O12 1_555 1_555
H5 C18 1_555 1_555
H6 C18 1_555 1_555
C19 C8 1_555 1_555
H7 C19 1_555 1_555
C20 C12 1_555 1_555
H8 C20 1_555 1_555
C21 C14 1_555 1_555
H9 C21 1_555 1_555
C22 C23 1_555 1_555
O15 C26 1_555 1_555
C23 H10 1_555 1_555
C24 C16 1_555 1_555
H11 C24 1_555 1_555
C25 C20 1_555 1_555
H12 C25 1_555 1_555
C26 C9 1_555 1_555
H13 C26 1_555 1_555
H14 C26 1_555 1_555
C27 H15 1_555 1_555
C28 C13 1_555 1_555
H16 C28 1_555 1_555
C29 N2 1_555 1_555
H17 C29 1_555 1_555
C30 C4 1_555 1_555
H18 C30 1_555 1_555
C31 C17 1_555 1_555
H19 C31 1_555 1_555
C32 O13 1_555 1_555
H20 C32 1_555 1_555
H21 C32 1_555 1_555
C33 N1 1_555 1_555
H22 C33 1_555 1_555
C34 C15 1_555 1_555
H23 C34 1_555 1_555
C35 C11 1_555 1_555
H24 C35 1_555 1_555
C36 O8 1_555 1_555
H25 C36 1_555 1_555
H26 C36 1_555 1_555
C37 C23 1_555 1_555
H27 C37 1_555 1_555
C38 C29 1_555 1_555
H28 C38 1_555 1_555
C39 C41 1_555 1_555
C40 C28 1_555 1_555
H29 C40 1_555 1_555
C41 O15 1_555 1_555
C42 C39 1_555 1_555
H30 C42 1_555 1_555
C43 C41 1_555 1_555
H31 C43 1_555 1_555
C44 C34 1_555 1_555
H32 C44 1_555 1_555
C45 C42 1_555 1_555
H33 C45 1_555 1_555
Cd1_2 O4A 1_555 1_555
Cd2A O2A 1_555 1_555
Cd2A_2 O3 1_555 1_555
Cd2_2 O11 1_555 1_555
Cd2_3 O2_2 1_555 1_555
Cd2A_3 O11A 1_555 1_555
Cd3A O1A 1_555 1_555
Cd3A_2 O2 1_555 1_555
Cd3_2 O10 1_555 1_555
Cd3A_3 O14A 1_555 1_555
Cd3_3 O2A 1_555 1_555
Cd3A_4 O10A 1_555 1_555
O1A C5A 1_555 1_555
O2A C1A 1_555 1_555
O2A_2 Cd3 1_555 1_555
O2_2 Cd3A 1_555 1_555
O3A Cd2_3 1_555 1_555
O3A_2 Cd2 1_555 1_555
O3_2 Cd2A 1_555 1_555
O4A C9A 1_555 1_555
O4A_2 Cd1 1_555 1_555
O5A Cd1 1_555 1_555
O6A C3A 1_555 1_555
O7A Cd1 1_555 1_555
O8A C4A 1_555 1_555
O9A Cd2A 1_555 1_555
O10A C7A 1_555 1_555
O10_2 Cd3 1_555 1_555
O10A_2 Cd3A 1_555 1_555
C1A O9A 1_555 1_555
O11A C7A 1_555 1_555
O11_2 Cd2 1_555 1_555
O11A_2 Cd2A 1_555 1_555
N1A Cd2A 1_555 1_555
C2A O3A 1_555 1_555
C3A C1A 1_555 1_555
H1A C3A 1_555 1_555
H2A C3A 1_555 1_555
C4A C11A 1_555 1_555
O12A C14A 1_555 1_555
O13A C13A 1_555 1_555
C5A O5A 1_555 1_555
C6A N1A 1_555 1_555
O14A C9A 1_555 1_555
O14A_2 Cd3A 1_555 1_555
N2A Cd2A 1_555 1_555
C7A C32A 1_555 1_555
C8A C12A 1_555 1_555
C9A C26A 1_555 1_555
C10A O6A 1_555 1_555
C11A C22A 1_555 1_555
C12A C10A 1_555 1_555
C13A C22A 1_555 1_555
C14A C8A 1_555 1_555
C15A C6A 1_555 1_555
C16A C10A 1_555 1_555
H3A C16A 1_555 1_555
C17A C6A 1_555 1_555
H4A C17A 1_555 1_555
C18A O12A 1_555 1_555
H5A C18A 1_555 1_555
H6A C18A 1_555 1_555
C19A C8A 1_555 1_555
H7A C19A 1_555 1_555
C20A C12A 1_555 1_555
H8A C20A 1_555 1_555
C21A C14A 1_555 1_555
H9A C21A 1_555 1_555
C22A C23A 1_555 1_555
O15A C26A 1_555 1_555
C23A H10A 1_555 1_555
C24A C16A 1_555 1_555
H11A C24A 1_555 1_555
C25A C20A 1_555 1_555
H12A C25A 1_555 1_555
C26A H13A 1_555 1_555
H14A C26A 1_555 1_555
C27A H15A 1_555 1_555
C28A C13A 1_555 1_555
H16A C28A 1_555 1_555
C29A N2A 1_555 1_555
H17A C29A 1_555 1_555
C30A C4A 1_555 1_555
H18A C30A 1_555 1_555
C31A C17A 1_555 1_555
H19A C31A 1_555 1_555
C32A O13A 1_555 1_555
H20A C32A 1_555 1_555
H21A C32A 1_555 1_555
C33A N1A 1_555 1_555
H22A C33A 1_555 1_555
C34A C15A 1_555 1_555
H23A C34A 1_555 1_555
C35A C11A 1_555 1_555
H24A C35A 1_555 1_555
C36A O8A 1_555 1_555
H25A C36A 1_555 1_555
H26A C36A 1_555 1_555
C37A C23A 1_555 1_555
H27A C37A 1_555 1_555
C38A C29A 1_555 1_555
H28A C38A 1_555 1_555
C39A C39 1_555 1_555
C40A C28A 1_555 1_555
H29A C40A 1_555 1_555
C41A O15A 1_555 1_555
C42A C39A 1_555 1_555
H30A C42A 1_555 1_555
C43A C45 1_555 1_555
H31A C43A 1_555 1_555
C44A C34A 1_555 1_555
H32A C44A 1_555 1_555
C45A C43 1_555 1_555
H33A C45A 1_555 1_555
Cd3 O7 1_555 1_555
C2 C36 1_555 1_555
C5 C18 1_555 1_555
N2 C15 1_555 1_555
C19 C24 1_555 1_555
C21 C25 1_555 1_555
C27 C31 1_555 1_555
C27 C33 1_555 1_555
C30 C37 1_555 1_555
C35 C40 1_555 1_555
C38 C44 1_555 1_555
Cd2A_2 O2A_2 1_555 1_555
Cd3A O7A 1_555 1_555
O7A C2A 1_555 1_555
C2A C36A 1_555 1_555
C5A C18A 1_555 1_555
N2A C15A 1_555 1_555
C19A C24A 1_555 1_555
C21A C25A 1_555 1_555
C27A C31A 1_555 1_555
C27A C33A 1_555 1_555
C30A C37A 1_555 1_555
C35A C40A 1_555 1_555
C38A C44A 1_555 1_555
C39A C41A 1_555 1_555
C41A C43A 1_555 1_555
C42A C45A 1_555 1_555

#END
