
#######################################################################
#
#                 Cambridge Crystallographic Data Centre
#                                CCDC 
#
#######################################################################
#
# If this CIF has been generated from an entry in the Cambridge 
# Structural Database, then it will include bibliographic, chemical, 
# crystal, experimental, refinement or atomic coordinate data resulting 
# from the CCDC's data processing and validation procedures.
#
#######################################################################

data_ZASXEW
_symmetry_cell_setting           monoclinic
_symmetry_space_group_name_H-M   'P 1 1 21/b'
_symmetry_Int_Tables_number      14
_space_group_name_Hall           '-P 2bc'
loop_
_symmetry_equiv_pos_site_id
_symmetry_equiv_pos_as_xyz
1 x,y,z
2 -x,1/2-y,1/2+z
3 -x,-y,-z
4 x,1/2+y,1/2-z
_cell_length_a                   16.916(4)
_cell_length_b                   12.132(3)
_cell_length_c                   3.983(1)
_cell_angle_alpha                90
_cell_angle_beta                 90
_cell_angle_gamma                99.66(2)
_cell_volume                     805.821
loop_
_atom_site_label
_atom_site_type_symbol
_atom_site_fract_x
_atom_site_fract_y
_atom_site_fract_z
Tl1 Tl 0.10499(3) -0.11467(5) 0.1350(2)
O1 O 0.1873(6) -0.2285(8) -0.316(3)
N1 N 0.1474(6) -0.4094(9) -0.148(4)
N2 N 0.0259(7) -0.3652(11) 0.127(5)
C1 C 0.0825(9) -0.3808(11) -0.008(4)
C2 C 0.1993(8) -0.3246(12) -0.290(4)
C3 C 0.2746(8) -0.3568(12) -0.417(5)
C4 C 0.2954(9) -0.4614(13) -0.361(5)
C5 C 0.3674(10) -0.4868(15) -0.478(5)
C6 C 0.4228(9) -0.4041(16) -0.642(6)
C7 C 0.4015(10) -0.3024(17) -0.691(5)
C8 C 0.3291(8) -0.2754(12) -0.582(4)
O1_2 O 0.1873(6) -0.2285(8) 0.684(3)
N1C N 0.1474(6) 0.0906(9) -0.352(4)
N1C_2 N 0.1474(6) 0.0906(9) 0.648(4)
N2A N -0.0259(7) -0.1348(11) -0.373(5)
N2A_2 N -0.0259(7) -0.1348(11) 0.627(5)
Tl1_2 Tl 0.10499(3) -0.11467(5) -0.8650(2)
Tl1C Tl 0.10499(3) -0.61467(5) -0.6350(2)
Tl1C_2 Tl 0.10499(3) -0.61467(5) 0.3650(2)
Tl1A Tl -0.10499(3) -0.38533(5) -0.3650(2)
Tl1A_2 Tl -0.10499(3) -0.38533(5) 0.6350(2)
loop_
_geom_bond_atom_site_label_1
_geom_bond_atom_site_label_2
_geom_bond_site_symmetry_1
_geom_bond_site_symmetry_2
Tl1 O1 1_555 1_555
O1 C2 1_555 1_555
N1 C1 1_555 1_555
N2 Tl1 1_555 1_555
C1 N2 1_555 1_555
C2 N1 1_555 1_555
C3 C2 1_555 1_555
C4 C3 1_555 1_555
C5 C4 1_555 1_555
C6 C5 1_555 1_555
C7 C6 1_555 1_555
C8 C3 1_555 1_555
O1_2 Tl1 1_555 1_555
N1C Tl1 1_555 1_555
N1C_2 Tl1 1_555 1_555
N2A Tl1 1_555 1_555
N2A_2 Tl1 1_555 1_555
Tl1_2 O1 1_555 1_555
Tl1C N1 1_555 1_555
Tl1C_2 N1 1_555 1_555
Tl1A N2 1_555 1_555
Tl1A_2 N2 1_555 1_555
C7 C8 1_555 1_555
N1C Tl1_2 1_555 1_555
N2A Tl1_2 1_555 1_555
N2A Tl1A 1_555 1_555
N2A_2 Tl1A_2 1_555 1_555

#END
