
#######################################################################
#
#                 Cambridge Crystallographic Data Centre
#                                CCDC 
#
#######################################################################
#
# If this CIF has been generated from an entry in the Cambridge 
# Structural Database, then it will include bibliographic, chemical, 
# crystal, experimental, refinement or atomic coordinate data resulting 
# from the CCDC's data processing and validation procedures.
#
#######################################################################

data_ZASZIE
_symmetry_cell_setting           monoclinic
_symmetry_space_group_name_H-M   'C c'
_symmetry_Int_Tables_number      9
_space_group_name_Hall           'C -2yc'
loop_
_symmetry_equiv_pos_site_id
_symmetry_equiv_pos_as_xyz
1 x,y,z
2 x,-y,1/2+z
3 1/2+x,1/2+y,z
4 1/2+x,1/2-y,1/2+z
_cell_length_a                   47.055(4)
_cell_length_b                   6.1619(5)
_cell_length_c                   8.4473(7)
_cell_angle_alpha                90
_cell_angle_beta                 100.263(3)
_cell_angle_gamma                90
_cell_volume                     2410.09
loop_
_atom_site_label
_atom_site_type_symbol
_atom_site_fract_x
_atom_site_fract_y
_atom_site_fract_z
Cd1 Cd -0.272231(13) -0.51725(3) -0.04447(4)
O1 O -0.25831(6) -0.3733(4) 0.2265(3)
O2 O -0.27628(7) -0.8570(4) 0.0368(4)
H1 H -0.2858 -0.9310 -0.0396
H2 H -0.2850 -0.8582 0.1167
O3 O -0.22723(7) -0.3963(6) 0.0644(4)
O4 O -0.05398(8) -0.3017(5) 0.1001(5)
O5 O -0.32172(8) -0.4564(5) -0.1156(5)
O6 O -0.29279(6) -0.2014(4) -0.1697(3)
O7 O -0.49843(7) -0.3235(6) -0.0697(5)
C1 C -0.23298(8) -0.3398(5) 0.1959(4)
C2 C -0.21062(8) -0.2193(6) 0.3183(5)
H3 H -0.2120 -0.2758 0.4250
C3 C -0.21904(11) 0.0194(6) 0.3152(7)
H4 H -0.2039 0.1011 0.3803
H5 H -0.2366 0.0357 0.3569
H6 H -0.2219 0.0719 0.2065
C4 C -0.18013(8) -0.2601(5) 0.2915(4)
C5 C -0.16665(9) -0.4579(5) 0.3478(5)
H7 H -0.1766 -0.5566 0.4007
C6 C -0.13942(10) -0.5065(5) 0.3263(6)
H8 H -0.1311 -0.6375 0.3649
C7 C -0.12336(8) -0.3607(6) 0.2459(5)
C8 C -0.09513(9) -0.4104(6) 0.2195(5)
H9 H -0.0864 -0.5401 0.2577
C9 C -0.08090(9) -0.2684(7) 0.1383(5)
C10 C -0.09373(10) -0.0683(7) 0.0819(6)
H10 H -0.0837 0.0275 0.0267
C11 C -0.12049(10) -0.0159(6) 0.1080(6)
H11 H -0.1285 0.1172 0.0723
C12 C -0.13657(8) -0.1618(5) 0.1896(4)
C13 C -0.16492(8) -0.1162(6) 0.2149(5)
H12 H -0.1735 0.0150 0.1786
C14 C -0.03998(14) -0.5020(8) 0.1517(11)
H13 H -0.0210 -0.5030 0.1254
H14 H -0.0510 -0.6206 0.0983
H15 H -0.0386 -0.5169 0.2659
C15 C -0.31822(9) -0.2812(6) -0.1810(5)
C16 C -0.34297(9) -0.1660(6) -0.2931(6)
H16 H -0.3424 -0.2220 -0.4011
C17 C -0.33750(11) 0.0744(7) -0.3018(7)
H17 H -0.3192 0.0982 -0.3337
H18 H -0.3374 0.1385 -0.1981
H19 H -0.3525 0.1396 -0.3792
C18 C -0.37277(9) -0.2270(7) -0.2588(6)
C19 C -0.38501(10) -0.4266(6) -0.3179(6)
H20 H -0.3746 -0.5181 -0.3739
C20 C -0.41149(10) -0.4877(6) -0.2951(6)
H21 H -0.4188 -0.6211 -0.3344
C21 C -0.42841(8) -0.3524(6) -0.2121(5)
C22 C -0.45639(9) -0.4133(6) -0.1875(5)
H22 H -0.4643 -0.5447 -0.2277
C23 C -0.47178(10) -0.2793(6) -0.1048(6)
C24 C -0.45995(10) -0.0769(7) -0.0457(6)
H23 H -0.4705 0.0139 0.0102
C25 C -0.43334(11) -0.0149(6) -0.0701(6)
H24 H -0.4259 0.1186 -0.0312
C26 C -0.41678(9) -0.1500(6) -0.1534(5)
C27 C -0.38893(9) -0.0919(6) -0.1793(5)
H25 H -0.3813 0.0414 -0.1416
C28 C -0.51149(15) -0.5227(8) -0.1259(11)
H26 H -0.5306 -0.5300 -0.1008
H27 H -0.5001 -0.6410 -0.0747
H28 H -0.5126 -0.5322 -0.2403
Cd1A Cd -0.272231(13) -0.48275(3) 0.45553(4)
O1A O -0.25831(6) -0.6267(4) -0.2735(3)
loop_
_geom_bond_atom_site_label_1
_geom_bond_atom_site_label_2
_geom_bond_site_symmetry_1
_geom_bond_site_symmetry_2
Cd1 O1 1_555 1_555
O1 C1 1_555 1_555
O2 Cd1 1_555 1_555
H1 O2 1_555 1_555
H2 O2 1_555 1_555
O3 Cd1 1_555 1_555
O4 C9 1_555 1_555
O5 Cd1 1_555 1_555
O6 Cd1 1_555 1_555
O7 C23 1_555 1_555
C1 O3 1_555 1_555
C2 C1 1_555 1_555
H3 C2 1_555 1_555
C3 C2 1_555 1_555
H4 C3 1_555 1_555
H5 C3 1_555 1_555
H6 C3 1_555 1_555
C4 C2 1_555 1_555
C5 C4 1_555 1_555
H7 C5 1_555 1_555
C6 C5 1_555 1_555
H8 C6 1_555 1_555
C7 C6 1_555 1_555
C8 C7 1_555 1_555
H9 C8 1_555 1_555
C9 C8 1_555 1_555
C10 C9 1_555 1_555
H10 C10 1_555 1_555
C11 C10 1_555 1_555
H11 C11 1_555 1_555
C12 C7 1_555 1_555
C13 C4 1_555 1_555
H12 C13 1_555 1_555
C14 O4 1_555 1_555
H13 C14 1_555 1_555
H14 C14 1_555 1_555
H15 C14 1_555 1_555
C15 O5 1_555 1_555
C16 C15 1_555 1_555
H16 C16 1_555 1_555
C17 C16 1_555 1_555
H17 C17 1_555 1_555
H18 C17 1_555 1_555
H19 C17 1_555 1_555
C18 C16 1_555 1_555
C19 C18 1_555 1_555
H20 C19 1_555 1_555
C20 C19 1_555 1_555
H21 C20 1_555 1_555
C21 C20 1_555 1_555
C22 C21 1_555 1_555
H22 C22 1_555 1_555
C23 C22 1_555 1_555
C24 C23 1_555 1_555
H23 C24 1_555 1_555
C25 C24 1_555 1_555
H24 C25 1_555 1_555
C26 C21 1_555 1_555
C27 C18 1_555 1_555
H25 C27 1_555 1_555
C28 O7 1_555 1_555
H26 C28 1_555 1_555
H27 C28 1_555 1_555
H28 C28 1_555 1_555
Cd1A O1 1_555 1_555
O1A Cd1 1_555 1_555
O6 C15 1_555 1_555
C11 C12 1_555 1_555
C12 C13 1_555 1_555
C25 C26 1_555 1_555
C26 C27 1_555 1_555

#END
