
#######################################################################
#
#                 Cambridge Crystallographic Data Centre
#                                CCDC 
#
#######################################################################
#
# If this CIF has been generated from an entry in the Cambridge 
# Structural Database, then it will include bibliographic, chemical, 
# crystal, experimental, refinement or atomic coordinate data resulting 
# from the CCDC's data processing and validation procedures.
#
#######################################################################

data_ZATGOQ
_symmetry_cell_setting           monoclinic
_symmetry_space_group_name_H-M   'P 21/c'
_symmetry_Int_Tables_number      14
_space_group_name_Hall           '-P 2ybc'
loop_
_symmetry_equiv_pos_site_id
_symmetry_equiv_pos_as_xyz
1 x,y,z
2 -x,1/2+y,1/2-z
3 -x,-y,-z
4 x,1/2-y,1/2+z
_cell_length_a                   8.143(2)
_cell_length_b                   8.646(3)
_cell_length_c                   16.787(5)
_cell_angle_alpha                90
_cell_angle_beta                 97.35(2)
_cell_angle_gamma                90
_cell_volume                     1172.17
loop_
_atom_site_label
_atom_site_type_symbol
_atom_site_fract_x
_atom_site_fract_y
_atom_site_fract_z
Cu1 Cu 0.1418(1) 0.0700(1) 0.1459(1)
N1 N 0.1770(3) 0.1015(3) 0.0355(1)
N2 N 0.3769(4) 0.1577(4) 0.1672(2)
N3 N -0.0014(3) 0.3010(3) 0.1659(1)
N4 N -0.1195(3) 0.4889(3) 0.2439(1)
O1 O -0.0694(3) -0.0330(3) 0.0941(1)
C1 C 0.0701(4) 0.0385(3) -0.0184(2)
C2 C 0.3280(5) 0.1789(4) 0.0220(2)
C3 C 0.4543(5) 0.1413(6) 0.0921(2)
C4 C -0.0168(4) 0.3720(4) 0.2348(2)
C5 C -0.2143(4) 0.5380(4) 0.1776(2)
C6 C -0.2085(5) 0.4698(4) 0.1045(2)
C7 C -0.0981(5) 0.3522(4) 0.1007(2)
C1B C -0.0701(4) -0.0385(3) 0.0184(2)
O1B O 0.0694(3) 0.0330(3) -0.0941(1)
N4A N 0.1195(3) -0.0111(3) 0.2561(1)
N1B N -0.1770(3) -0.1015(3) -0.0355(1)
Cu1B Cu -0.1418(1) -0.0700(1) -0.1459(1)
Cu1A Cu -0.1418(1) 0.5700(1) 0.3541(1)
C2B C -0.3280(5) -0.1789(4) -0.0220(2)
N2B N -0.3769(4) -0.1577(4) -0.1672(2)
N3B N 0.0014(3) -0.3010(3) -0.1659(1)
N4C N -0.1195(3) 0.0111(3) -0.2561(1)
C3B C -0.4543(5) -0.1413(6) -0.0921(2)
C4B C 0.0168(4) -0.3720(4) -0.2348(2)
C7B C 0.0981(5) -0.3522(4) -0.1007(2)
N4B N 0.1195(3) -0.4889(3) -0.2439(1)
C6B C 0.2085(5) -0.4698(4) -0.1045(2)
Cu1C Cu 0.1418(1) -0.5700(1) -0.3541(1)
C5B C 0.2143(4) -0.5380(4) -0.1776(2)
Cl1 Cl 0.6748(1) 0.1465(1) 0.3611(1)
O2 O 0.5903(8) 0.2780(5) 0.3279(3)
O3 O 0.8427(5) 0.1664(8) 0.3872(4)
O4 O 0.5971(7) 0.1009(9) 0.4274(3)
O5 O 0.6425(7) 0.0258(5) 0.3053(3)
loop_
_geom_bond_atom_site_label_1
_geom_bond_atom_site_label_2
_geom_bond_site_symmetry_1
_geom_bond_site_symmetry_2
Cu1 N1 1_555 1_555
Cl1 O2 1_555 1_555
N1 C1 1_555 1_555
N2 Cu1 1_555 1_555
N3 Cu1 1_555 1_555
N4 C4 1_555 1_555
O1 Cu1 1_555 1_555
O3 Cl1 1_555 1_555
O4 Cl1 1_555 1_555
O5 Cl1 1_555 1_555
C1 C1B 1_555 1_555
C2 N1 1_555 1_555
C3 N2 1_555 1_555
C4 N3 1_555 1_555
C5 N4 1_555 1_555
C6 C5 1_555 1_555
C7 N3 1_555 1_555
C1B O1 1_555 1_555
O1B C1 1_555 1_555
N4A Cu1 1_555 1_555
N1B C1B 1_555 1_555
Cu1B O1B 1_555 1_555
Cu1A N4 1_555 1_555
C2B N1B 1_555 1_555
N2B Cu1B 1_555 1_555
N3B Cu1B 1_555 1_555
N4C Cu1B 1_555 1_555
C3B C2B 1_555 1_555
C4B N3B 1_555 1_555
C7B N3B 1_555 1_555
N4B C4B 1_555 1_555
C6B C7B 1_555 1_555
Cu1C N4B 1_555 1_555
C5B N4B 1_555 1_555
C2 C3 1_555 1_555
C6 C7 1_555 1_555
N1B Cu1B 1_555 1_555
N2B C3B 1_555 1_555
C6B C5B 1_555 1_555

#END
