
#######################################################################
#
#                 Cambridge Crystallographic Data Centre
#                                CCDC 
#
#######################################################################
#
# If this CIF has been generated from an entry in the Cambridge 
# Structural Database, then it will include bibliographic, chemical, 
# crystal, experimental, refinement or atomic coordinate data resulting 
# from the CCDC's data processing and validation procedures.
#
#######################################################################

data_ZATRAP
_symmetry_cell_setting           tetragonal
_symmetry_space_group_name_H-M   'P -4 21 c'
_symmetry_Int_Tables_number      114
_space_group_name_Hall           'P -4 2n'
loop_
_symmetry_equiv_pos_site_id
_symmetry_equiv_pos_as_xyz
1 x,y,z
2 -x,-y,z
3 y,-x,-z
4 -y,x,-z
5 1/2-x,1/2+y,1/2-z
6 1/2+x,1/2-y,1/2-z
7 1/2-y,1/2-x,1/2+z
8 1/2+y,1/2+x,1/2+z
_cell_length_a                   31.010(4)
_cell_length_b                   31.010(4)
_cell_length_c                   28.765(6)
_cell_angle_alpha                90
_cell_angle_beta                 90
_cell_angle_gamma                90
_cell_volume                     27661
loop_
_atom_site_label
_atom_site_type_symbol
_atom_site_fract_x
_atom_site_fract_y
_atom_site_fract_z
Cu3 Cu 1.0000 1.0000 0.24565(4)
Cl1 Cl 1.0000 1.0000 0.33055(11)
N2 N 1.04588(12) 1.04741(9) 0.23570(19)
C6 C 1.06024(13) 1.06252(9) 0.27848(19)
H6 H 1.0501 1.0501 0.3058
C7 C 1.08970(14) 1.09624(9) 0.2804(2)
H7 H 1.0993 1.1064 0.3091
C8 C 1.10482(14) 1.11486(9) 0.2396(2)
H8 H 1.1245 1.1374 0.2409
C9 C 1.09047(14) 1.09975(10) 0.1968(2)
H9 H 1.1006 1.1122 0.1695
C10 C 1.06100(13) 1.06602(10) 0.19487(19)
H10 H 1.0514 1.0559 0.1662
C82 C 1.0665(2) 0.93478(19) 0.2694(3)
H72 H 1.0572 0.9407 0.2995
C83 C 1.0994(2) 0.9050(2) 0.2639(3)
H73 H 1.1125 0.8925 0.2896
C84 C 1.1120(2) 0.8946(2) 0.2209(4)
H74 H 1.1334 0.8740 0.2163
C85 C 1.0925(2) 0.9154(2) 0.1822(3)
H75 H 1.1008 0.9091 0.1519
C86 C 1.0605(2) 0.9453(2) 0.1916(3)
H76 H 1.0473 0.9593 0.1669
N8 N 1.04770(14) 0.95483(15) 0.2356(2)
N2A N 0.95412(12) 0.95259(9) 0.23570(19)
C6A C 0.93976(13) 0.93748(9) 0.27848(19)
H6A H 0.9499 0.9499 0.3058
C7A C 0.91030(14) 0.90376(9) 0.2804(2)
H7A H 0.9007 0.8936 0.3091
C8A C 0.89518(14) 0.88514(9) 0.2396(2)
H8A H 0.8755 0.8626 0.2409
C9A C 0.90953(14) 0.90025(10) 0.1968(2)
H9A H 0.8994 0.8878 0.1695
C10A C 0.93900(13) 0.93398(10) 0.19487(19)
H10A H 0.9486 0.9441 0.1662
C82A C 0.9335(2) 1.06522(19) 0.2694(3)
H72A H 0.9428 1.0593 0.2995
C83A C 0.9006(2) 1.0950(2) 0.2639(3)
H73A H 0.8875 1.1075 0.2896
C84A C 0.8880(2) 1.1054(2) 0.2209(4)
H74A H 0.8666 1.1260 0.2163
C85A C 0.9075(2) 1.0846(2) 0.1822(3)
H75A H 0.8992 1.0909 0.1519
C86A C 0.9395(2) 1.0547(2) 0.1916(3)
H76A H 0.9527 1.0407 0.1669
N8A N 0.95230(14) 1.04517(15) 0.2356(2)
Cu1 Cu 1.08548(2) 0.82530(3) 0.52057(2)
Cu2 Cu 1.20816(3) 0.71639(2) 0.25941(3)
Cu4 Cu 0.86390(3) 0.63497(3) 0.27053(3)
Cu5 Cu 0.98651(5) 0.76724(5) 0.02329(4)
N1 N 1.17250(13) 0.70849(11) 0.20083(16)
C1 C 1.14216(14) 0.67550(10) 0.20135(15)
H1 H 1.1391 0.6583 0.2276
C2 C 1.11641(15) 0.66820(10) 0.16259(14)
H2 H 1.0961 0.6461 0.1629
C3 C 1.12099(16) 0.69390(11) 0.12331(14)
H3 H 1.1038 0.6890 0.0974
C4 C 1.15133(15) 0.72690(12) 0.12279(14)
H4 H 1.1544 0.7441 0.0965
C5 C 1.17708(13) 0.73419(11) 0.16155(15)
H5 H 1.1974 0.7563 0.1612
N3 N 0.87634(15) 0.65086(13) 0.3351(2)
C11 C 0.84630(16) 0.66996(15) 0.3644(2)
C12 C 0.85790(17) 0.68113(15) 0.4095(2)
C13 C 0.89954(18) 0.67321(15) 0.42526(19)
C14 C 0.92958(17) 0.65411(13) 0.39589(17)
C15 C 0.91798(16) 0.64294(13) 0.35079(18)
H11 H 0.9381 0.6302 0.3311
C16 C 1.13264(19) 0.74439(19) 0.29718(18)
C17 C 1.09851(18) 0.77554(17) 0.31387(18)
C18 C 1.10393(17) 0.79236(18) 0.35927(18)
C19 C 1.07259(18) 0.82207(16) 0.37396(17)
C20 C 1.03848(17) 0.83539(16) 0.34552(19)
C21 C 1.03458(17) 0.81846(16) 0.30018(17)
C22 C 1.06631(16) 0.78869(16) 0.28409(18)
C23 C 1.1405(2) 0.7786(2) 0.3898(2)
H12 H 1.1355 0.7886 0.4209
H13 H 1.1669 0.7907 0.3783
H14 H 1.1425 0.7477 0.3897
C24 C 1.00733(17) 0.86900(17) 0.36443(18)
H15 H 0.9786 0.8622 0.3545
H16 H 1.0152 0.8970 0.3529
H17 H 1.0086 0.8691 0.3978
C25 C 1.0651(2) 0.7712(2) 0.2352(2)
H18 H 1.0860 0.7486 0.2320
H19 H 1.0716 0.7939 0.2136
H20 H 1.0369 0.7599 0.2287
C26 C 1.07980(19) 0.84099(19) 0.42210(19)
C27 C 0.99873(17) 0.83659(15) 0.26905(18)
H21 H 0.9781 0.8508 0.2893
H22 H 1.0116 0.8588 0.2498
C28 C 0.97307(16) 0.80712(16) 0.23675(18)
C29 C 0.97474(18) 0.81205(19) 0.1885(2)
C30 C 0.94948(19) 0.7845(2) 0.1611(2)
C31 C 0.9226(2) 0.7543(3) 0.1791(2)
C32 C 0.9207(2) 0.7499(2) 0.2283(2)
C33 C 0.94609(19) 0.77573(19) 0.25681(18)
C34 C 0.8931(2) 0.7150(3) 0.2476(2)
C35 C 0.9521(3) 0.7886(3) 0.1083(2)
C36 C 0.9435(2) 0.7700(2) 0.30929(19)
H23 H 0.9225 0.7484 0.3166
H24 H 0.9353 0.7969 0.3234
H25 H 0.9712 0.7613 0.3210
C37 C 0.8975(3) 0.7224(3) 0.1482(3)
H26 H 0.9044 0.7277 0.1162
H27 H 0.8671 0.7262 0.1530
H28 H 0.9055 0.6934 0.1562
C38 C 1.00302(18) 0.84517(18) 0.1640(2)
H29 H 1.0107 0.8676 0.1855
H30 H 0.9875 0.8574 0.1383
H31 H 1.0287 0.8314 0.1527
C39 C 1.13240(18) 0.7363(2) 0.74546(18)
C40 C 1.09997(19) 0.76601(19) 0.7250(2)
C41 C 1.07183(16) 0.78919(18) 0.75478(18)
C42 C 1.03849(15) 0.81594(16) 0.73563(17)
C43 C 1.03653(17) 0.82174(17) 0.68744(19)
C44 C 1.06616(17) 0.79838(16) 0.65874(17)
C45 C 1.09676(19) 0.76974(18) 0.6770(2)
C46 C 1.1249(2) 0.7438(2) 0.6445(2)
H32 H 1.1131 0.7449 0.6137
H33 H 1.1535 0.7558 0.6443
H34 H 1.1261 0.7145 0.6549
C47 C 1.0784(2) 0.7853(2) 0.80705(19)
H35 H 1.1039 0.7687 0.8132
H36 H 1.0817 0.8136 0.8203
H37 H 1.0539 0.7714 0.8207
C48 C 1.0054(2) 0.85300(17) 0.6652(2)
H38 H 0.9911 0.8693 0.6890
H39 H 1.0210 0.8723 0.6451
H40 H 0.9845 0.8373 0.6474
C49 C 1.06548(19) 0.80486(18) 0.60635(18)
C50 C 1.00579(14) 0.83712(14) 0.76808(16)
H41 H 0.9838 0.8513 0.7496
H42 H 1.0203 0.8590 0.7864
C51 C 0.98444(18) 0.80534(18) 0.80039(19)
C52 C 0.98348(19) 0.81210(18) 0.8498(2)
C53 C 0.9655(2) 0.7801(2) 0.8789(2)
C54 C 0.9529(2) 0.7388(2) 0.8618(2)
C55 C 0.9528(2) 0.73380(19) 0.8133(2)
C56 C 0.9670(2) 0.76630(18) 0.78320(19)
C57 C 0.9618(2) 0.7597(2) 0.7306(2)
H43 H 0.9552 0.7300 0.7244
H44 H 0.9388 0.7776 0.7194
H45 H 0.9881 0.7674 0.7152
C58 C 1.0016(2) 0.8526(2) 0.8712(2)
H46 H 1.0117 0.8714 0.8470
H47 H 0.9794 0.8670 0.8887
H48 H 1.0250 0.8453 0.8915
C59 C 0.9363(3) 0.7037(3) 0.8941(3)
H49 H 0.9292 0.6786 0.8763
H50 H 0.9583 0.6966 0.9164
H51 H 0.9111 0.7139 0.9101
C60 C 0.9640(2) 0.7865(2) 0.9309(2)
C61 C 0.9373(2) 0.6921(2) 0.7932(2)
C62 C 1.2543(3) 0.7540(3) 0.3410(3)
H52 H 1.2617 0.7759 0.3203
C63 C 1.2655(3) 0.7585(3) 0.3873(3)
H53 H 1.2795 0.7831 0.3979
C64 C 1.2548(3) 0.7241(3) 0.4185(3)
H54 H 1.2612 0.7261 0.4500
C65 C 1.2356(3) 0.6895(3) 0.4015(3)
H55 H 1.2300 0.6662 0.4211
C66 C 1.2235(3) 0.6870(3) 0.3543(3)
H56 H 1.2086 0.6628 0.3437
C67 C 1.1563(3) 0.7610(4) 0.5256(3)
H57 H 1.1722 0.7854 0.5332
C68 C 1.1767(4) 0.7218(4) 0.5242(3)
H58 H 1.2060 0.7188 0.5301
C69 C 1.1482(5) 0.6838(4) 0.5127(5)
H59 H 1.1593 0.6560 0.5131
C70 C 1.1073(5) 0.6905(4) 0.5020(5)
H60 H 1.0904 0.6675 0.4922
C71 C 1.0892(4) 0.7318(3) 0.5053(3)
H61 H 1.0599 0.7352 0.4997
C72 C 1.0605(2) 0.9111(2) 0.5581(2)
H62 H 1.0893 0.9134 0.5668
C73 C 1.0329(3) 0.9408(2) 0.5727(3)
H63 H 1.0432 0.9641 0.5898
C74 C 0.9898(3) 0.9382(2) 0.5634(3)
H64 H 0.9702 0.9582 0.5749
C75 C 0.9774(2) 0.9049(3) 0.5365(3)
H65 H 0.9484 0.9031 0.5282
C76 C 1.0051(2) 0.8734(2) 0.5204(2)
H66 H 0.9949 0.8503 0.5030
C77 C 0.8044(3) 0.6362(3) 0.1896(3)
H67 H 0.7854 0.6489 0.2106
C78 C 0.7904(4) 0.6285(3) 0.1454(4)
H68 H 0.7619 0.6342 0.1376
C79 C 0.8177(4) 0.6125(4) 0.1129(3)
H69 H 0.8086 0.6061 0.0829
C80 C 0.8599(6) 0.6062(5) 0.1270(4)
H70 H 0.8800 0.5982 0.1047
C81 C 0.8743(4) 0.6112(4) 0.1725(4)
H71 H 0.9025 0.6046 0.1809
N4 N 1.23281(19) 0.71857(18) 0.3246(2)
N5 N 0.8450(2) 0.62625(18) 0.2046(2)
N6 N 1.04813(17) 0.87732(17) 0.53088(17)
N7 N 1.1120(2) 0.7653(2) 0.5158(2)
O1 O 1.16707(15) 0.76164(16) 0.27768(15)
O2 O 1.12765(16) 0.70644(15) 0.30181(16)
O3 O 1.06447(14) 0.81941(14) 0.45533(14)
O4 O 1.10208(17) 0.87453(14) 0.42650(14)
O5 O 0.90834(17) 0.67686(17) 0.24993(19)
O6 O 0.85348(18) 0.7233(2) 0.2581(2)
O7 O 0.98274(19) 0.7643(2) 0.08904(18)
O8 O 0.9259(3) 0.8103(3) 0.0874(2)
O9 O 1.17150(14) 0.74890(12) 0.74092(15)
O10 O 1.12155(14) 0.70147(15) 0.76386(16)
O11 O 1.03509(16) 0.78941(13) 0.58272(14)
O12 O 1.09759(14) 0.82477(13) 0.58902(13)
O13 O 0.99334(19) 0.77238(18) 0.95570(16)
O14 O 0.9330(2) 0.8066(2) 0.94690(19)
O15 O 0.89527(16) 0.68901(16) 0.79212(17)
O16 O 0.96350(16) 0.66453(18) 0.7814(2)
O17 O 1.0384(5) 0.7184(5) 0.0183(6)
O18 O 1.2573(2) 0.76707(17) 0.2274(2)
O19 O 1.14966(19) 0.8613(2) 0.5047(2)
O20 O 0.9111(3) 0.5774(3) 0.2701(3)
N9 N 0.9362(4) 0.7241(7) 0.0201(7)
C87 C 0.8984(5) 0.7481(4) 0.0177(7)
H77 H 0.8998 0.7790 0.0170
C88 C 0.8587(4) 0.7274(5) 0.0163(7)
H78 H 0.8326 0.7440 0.0146
C89 C 0.8567(5) 0.6826(5) 0.0172(8)
H79 H 0.8293 0.6683 0.0162
C90 C 0.8945(7) 0.6586(4) 0.0196(11)
H80 H 0.8931 0.6276 0.0203
C91 C 0.9342(5) 0.6793(7) 0.0211(10)
H81 H 0.9603 0.6627 0.0228
Cu1G Cu 1.32530(3) 0.58548(2) 1.02057(2)
Cu1G_2 Cu 1.32530(3) 0.58548(2) 0.02057(2)
Cu2G Cu 1.21639(2) 0.70816(3) 0.75941(3)
Cu4F Cu 0.86503(3) 0.63610(3) 0.77053(3)
Cu4A Cu 1.13610(3) 0.36503(3) 0.27053(3)
Cu4G Cu 1.13497(3) 0.36390(3) 0.77053(3)
Cu5_2 Cu 0.98651(5) 0.76724(5) 1.02329(4)
Cu5G Cu 1.26724(5) 0.48651(5) 0.52329(4)
N1G N 1.20849(11) 0.67250(13) 0.70083(16)
C1G C 1.17550(10) 0.64216(14) 0.70135(15)
H1G H 1.1583 0.6391 0.7276
C2G C 1.16820(10) 0.61641(15) 0.66259(14)
H2G H 1.1461 0.5961 0.6629
C3G C 1.19390(11) 0.62099(16) 0.62331(14)
H3G H 1.1890 0.6038 0.5974
C4G C 1.22690(12) 0.65133(15) 0.62279(14)
H4G H 1.2441 0.6544 0.5965
C5G C 1.23419(11) 0.67708(13) 0.66155(15)
H5G H 1.2563 0.6974 0.6612
N3F N 0.84914(13) 0.62366(15) 0.8351(2)
C11F C 0.83004(15) 0.65370(16) 0.8644(2)
C12F C 0.81887(15) 0.64210(17) 0.9095(2)
C13F C 0.82679(15) 0.60046(18) 0.92526(19)
C14F C 0.84589(13) 0.57042(17) 0.89589(17)
C15F C 0.85706(13) 0.58202(16) 0.85079(18)
H11F H 0.8698 0.5619 0.8311
C16G C 1.24439(19) 0.63264(19) 0.79718(18)
C17G C 1.27554(17) 0.59851(18) 0.81387(18)
C18G C 1.29236(18) 0.60393(17) 0.85927(18)
C19G C 1.32207(16) 0.57259(18) 0.87396(17)
C20G C 1.33539(16) 0.53848(17) 0.84552(19)
C21G C 1.31846(16) 0.53458(17) 0.80018(17)
C22G C 1.28869(16) 0.56631(16) 0.78409(18)
C23G C 1.2786(2) 0.6405(2) 0.8898(2)
H12G H 1.2886 0.6355 0.9209
H13G H 1.2907 0.6669 0.8783
H14G H 1.2477 0.6425 0.8897
C24G C 1.36900(17) 0.50733(17) 0.86443(18)
H15G H 1.3622 0.4786 0.8545
H16G H 1.3970 0.5152 0.8529
H17G H 1.3691 0.5086 0.8978
C25G C 1.2712(2) 0.5651(2) 0.7352(2)
H18G H 1.2486 0.5860 0.7320
H19G H 1.2939 0.5716 0.7136
H20G H 1.2599 0.5369 0.7287
C26G C 1.34099(19) 0.57980(19) 0.92210(19)
C27G C 1.33659(15) 0.49873(17) 0.76905(18)
H21G H 1.3508 0.4781 0.7893
H22G H 1.3588 0.5116 0.7498
C28G C 1.30712(16) 0.47307(16) 0.73675(18)
C29G C 1.31205(19) 0.47474(18) 0.6885(2)
C30G C 1.2845(2) 0.44948(19) 0.6611(2)
C31G C 1.2543(3) 0.4226(2) 0.6791(2)
C32G C 1.2499(2) 0.4207(2) 0.7283(2)
C33G C 1.27573(19) 0.44609(19) 0.75681(18)
C34G C 1.2150(3) 0.3931(2) 0.7476(2)
C35G C 1.2886(3) 0.4521(3) 0.6083(2)
C36G C 1.2700(2) 0.4435(2) 0.80929(19)
H23G H 1.2484 0.4225 0.8166
H24G H 1.2969 0.4353 0.8234
H25G H 1.2613 0.4712 0.8210
C37G C 1.2224(3) 0.3975(3) 0.6482(3)
H26G H 1.2277 0.4044 0.6162
H27G H 1.2262 0.3671 0.6530
H28G H 1.1934 0.4055 0.6562
C38G C 1.34517(18) 0.50302(18) 0.6640(2)
H29G H 1.3676 0.5107 0.6855
H30G H 1.3574 0.4875 0.6383
H31G H 1.3314 0.5287 0.6527
C39G C 1.2363(2) 0.63240(18) 0.24546(18)
C40G C 1.26601(19) 0.59997(19) 0.2250(2)
C41G C 1.28919(18) 0.57183(16) 0.25478(18)
C42G C 1.31594(16) 0.53849(15) 0.23563(17)
C43G C 1.32174(17) 0.53653(17) 0.18744(19)
C44G C 1.29838(16) 0.56616(17) 0.15874(17)
C45G C 1.26974(18) 0.59676(19) 0.1770(2)
C46G C 1.2438(2) 0.6249(2) 0.1445(2)
H32G H 1.2449 0.6131 0.1137
H33G H 1.2558 0.6535 0.1443
H34G H 1.2145 0.6261 0.1549
C47G C 1.2853(2) 0.5784(2) 0.30705(19)
H35G H 1.2687 0.6039 0.3132
H36G H 1.3136 0.5817 0.3203
H37G H 1.2714 0.5539 0.3207
C48G C 1.35300(17) 0.5054(2) 0.1652(2)
H38G H 1.3693 0.4911 0.1890
H39G H 1.3723 0.5210 0.1451
H40G H 1.3373 0.4845 0.1474
C49G C 1.30486(18) 0.56548(19) 0.10635(18)
C50G C 1.33712(14) 0.50579(14) 0.26808(16)
H41G H 1.3513 0.4838 0.2496
H42G H 1.3590 0.5203 0.2864
C51G C 1.30534(18) 0.48444(18) 0.30039(19)
C52G C 1.31210(18) 0.48348(19) 0.3498(2)
C53G C 1.2801(2) 0.4655(2) 0.3789(2)
C54G C 1.2388(2) 0.4529(2) 0.3618(2)
C55G C 1.23380(19) 0.4528(2) 0.3133(2)
C56G C 1.26630(18) 0.4670(2) 0.28320(19)
C57G C 1.2597(2) 0.4618(2) 0.2306(2)
H43G H 1.2300 0.4552 0.2244
H44G H 1.2776 0.4388 0.2194
H45G H 1.2674 0.4881 0.2152
C58G C 1.3526(2) 0.5016(2) 0.3712(2)
H46G H 1.3714 0.5117 0.3470
H47G H 1.3670 0.4794 0.3887
H48G H 1.3453 0.5250 0.3915
C59G C 1.2037(3) 0.4363(3) 0.3941(3)
H49G H 1.1786 0.4292 0.3763
H50G H 1.1966 0.4583 0.4164
H51G H 1.2139 0.4111 0.4101
C60G C 1.2865(2) 0.4640(2) 0.4309(2)
C61G C 1.1921(2) 0.4373(2) 0.2932(2)
C62G C 1.2540(3) 0.7543(3) 0.8410(3)
H52G H 1.2759 0.7617 0.8203
C63G C 1.2585(3) 0.7655(3) 0.8873(3)
H53G H 1.2831 0.7795 0.8979
C64G C 1.2241(3) 0.7548(3) 0.9185(3)
H54G H 1.2261 0.7612 0.9500
C65G C 1.1895(3) 0.7356(3) 0.9015(3)
H55G H 1.1662 0.7300 0.9211
C66G C 1.1870(3) 0.7235(3) 0.8543(3)
H56G H 1.1628 0.7086 0.8437
C67G C 1.2610(4) 0.6563(3) 1.0256(3)
H57G H 1.2854 0.6722 1.0332
C68G C 1.2218(4) 0.6767(4) 1.0242(3)
H58G H 1.2188 0.7060 1.0301
C69G C 1.1838(4) 0.6482(5) 1.0127(5)
H59G H 1.1560 0.6593 1.0131
C70G C 1.1905(4) 0.6073(5) 1.0020(5)
H60G H 1.1675 0.5904 0.9922
C71G C 1.2318(3) 0.5892(4) 1.0053(3)
H61G H 1.2352 0.5599 0.9997
C72G C 1.4111(2) 0.5605(2) 1.0581(2)
H62G H 1.4134 0.5893 1.0668
C73G C 1.4408(2) 0.5329(3) 1.0727(3)
H63G H 1.4641 0.5432 1.0898
C74G C 1.4382(2) 0.4898(3) 1.0634(3)
H64G H 1.4582 0.4702 1.0749
C75G C 1.4049(3) 0.4774(2) 1.0365(3)
H65G H 1.4031 0.4484 1.0282
C76G C 1.3734(2) 0.5051(2) 1.0204(2)
H66G H 1.3503 0.4949 1.0030
C77F C 0.8638(3) 0.6956(3) 0.6896(3)
H67F H 0.8511 0.7146 0.7106
C78F C 0.8715(3) 0.7096(4) 0.6454(4)
H68F H 0.8658 0.7381 0.6376
C79F C 0.8875(4) 0.6823(4) 0.6129(3)
H69F H 0.8939 0.6914 0.5829
C80F C 0.8938(5) 0.6401(6) 0.6270(4)
H70F H 0.9018 0.6200 0.6047
C81F C 0.8888(4) 0.6257(4) 0.6725(4)
H71F H 0.8954 0.5975 0.6809
N4G N 1.21857(18) 0.73281(19) 0.8246(2)
N5F N 0.87375(18) 0.6550(2) 0.7046(2)
N6G N 1.37732(17) 0.54813(17) 1.03088(17)
N7G N 1.2653(2) 0.6120(2) 1.0158(2)
O1G O 1.26164(16) 0.66707(15) 0.77768(15)
O2G O 1.20644(15) 0.62765(16) 0.80181(16)
O3G O 1.31941(14) 0.56447(14) 0.95533(14)
O4G O 1.37453(14) 0.60208(17) 0.92650(14)
O5G O 1.17686(17) 0.40834(17) 0.74993(19)
O5F O 0.82314(17) 0.59166(17) 0.74993(19)
O6G O 1.2233(2) 0.35348(18) 0.7581(2)
O7G O 1.2643(2) 0.48274(19) 0.58904(18)
O7_2 O 0.98274(19) 0.7643(2) 1.08904(18)
O8G O 1.3103(3) 0.4259(3) 0.5874(2)
O9G O 1.24890(12) 0.67150(14) 0.24092(15)
O10G O 1.20147(15) 0.62155(14) 0.26386(16)
O11G O 1.28941(13) 0.53509(16) 0.08272(14)
O12G O 1.32477(13) 0.59759(14) 0.08902(13)
O12G_2 O 1.32477(13) 0.59759(14) 1.08902(13)
O13G O 1.27238(18) 0.49334(19) 0.45570(16)
O13_2 O 0.99334(19) 0.77238(18) -0.04430(16)
O14G O 1.3066(2) 0.4330(2) 0.44690(19)
O15G O 1.18901(16) 0.39527(16) 0.29212(17)
O15F O 0.81099(16) 0.60473(16) 0.29212(17)
O16G O 1.16453(18) 0.46350(16) 0.2814(2)
O17_2 O 1.0384(5) 0.7184(5) 1.0183(6)
O18G O 1.26707(17) 0.7573(2) 0.7274(2)
O19G O 1.3613(2) 0.64966(19) 1.0047(2)
O20F O 0.9226(3) 0.5889(3) 0.7701(3)
N9_2 N 0.9362(4) 0.7241(7) 1.0201(7)
C87_2 C 0.8984(5) 0.7481(4) 1.0177(7)
H77_2 H 0.8998 0.7790 1.0170
C88_2 C 0.8587(4) 0.7274(5) 1.0163(7)
H78_2 H 0.8326 0.7440 1.0146
C89_2 C 0.8567(5) 0.6826(5) 1.0172(8)
H79_2 H 0.8293 0.6683 1.0162
C90_2 C 0.8945(7) 0.6586(4) 1.0196(11)
H80_2 H 0.8931 0.6276 1.0203
C91_2 C 0.9342(5) 0.6793(7) 1.0211(10)
H81_2 H 0.9603 0.6627 1.0228
Cl2? Cl 1.0128(3) 1.0190(3) 0.1004(4)
C92? C 0.9233(6) 0.6625(5) 0.0179(8)
C93? C 0.8795(6) 0.6534(5) 0.0146(10)
C94? C 0.8497(4) 0.6868(7) 0.0131(14)
C95? C 0.8637(5) 0.7294(6) 0.0150(12)
C96? C 0.9373(4) 0.7050(6) 0.0198(8)
Cl3? Cl 1.0581(11) 1.0195(11) 0.0612(13)
Cu6? Cu 0.92525(6) 0.80390(9) 0.01794(6)
H82? H 0.9439 0.6394 0.0189
H83? H 0.8699 0.6240 0.0132
H84? H 0.8195 0.6806 0.0108
H85? H 0.8431 0.7525 0.0140
H86? H 0.9675 0.7116 0.0222
N10? N 0.9075(6) 0.7385(4) 0.0183(6)
loop_
_geom_bond_atom_site_label_1
_geom_bond_atom_site_label_2
_geom_bond_site_symmetry_1
_geom_bond_site_symmetry_2
Cu1 N6 1_555 1_555
Cu2 N1 1_555 1_555
Cu3 Cl1 1_555 1_555
Cu4 N3 1_555 1_555
Cu5 O7 1_555 1_555
N1 C1 1_555 1_555
C1 H1 1_555 1_555
C2 C1 1_555 1_555
H2 C2 1_555 1_555
C3 C2 1_555 1_555
H3 C3 1_555 1_555
C4 C3 1_555 1_555
H4 C4 1_555 1_555
C5 N1 1_555 1_555
H5 C5 1_555 1_555
N2 Cu3 1_555 1_555
C6 N2 1_555 1_555
H6 C6 1_555 1_555
C7 C6 1_555 1_555
H7 C7 1_555 1_555
C8 C7 1_555 1_555
H8 C8 1_555 1_555
C9 C8 1_555 1_555
H9 C9 1_555 1_555
C10 N2 1_555 1_555
H10 C10 1_555 1_555
N3 C11 1_555 1_555
C11 C12 1_555 1_555
C12 C13 1_555 1_555
C13 C14 1_555 1_555
C14 C15 1_555 1_555
C15 N3 1_555 1_555
H11 C15 1_555 1_555
C16 C17 1_555 1_555
C17 C18 1_555 1_555
C18 C19 1_555 1_555
C19 C20 1_555 1_555
C20 C21 1_555 1_555
C21 C22 1_555 1_555
C22 C17 1_555 1_555
C23 C18 1_555 1_555
H12 C23 1_555 1_555
H13 C23 1_555 1_555
H14 C23 1_555 1_555
C24 C20 1_555 1_555
H15 C24 1_555 1_555
H16 C24 1_555 1_555
H17 C24 1_555 1_555
C25 C22 1_555 1_555
H18 C25 1_555 1_555
H19 C25 1_555 1_555
H20 C25 1_555 1_555
C26 C19 1_555 1_555
C27 C21 1_555 1_555
H21 C27 1_555 1_555
H22 C27 1_555 1_555
C28 C27 1_555 1_555
C29 C28 1_555 1_555
C30 C29 1_555 1_555
C31 C30 1_555 1_555
C32 C31 1_555 1_555
C33 C28 1_555 1_555
C34 C32 1_555 1_555
C35 C30 1_555 1_555
C36 C33 1_555 1_555
H23 C36 1_555 1_555
H24 C36 1_555 1_555
H25 C36 1_555 1_555
C37 C31 1_555 1_555
H26 C37 1_555 1_555
H27 C37 1_555 1_555
H28 C37 1_555 1_555
C38 C29 1_555 1_555
H29 C38 1_555 1_555
H30 C38 1_555 1_555
H31 C38 1_555 1_555
C39 C40 1_555 1_555
C40 C41 1_555 1_555
C41 C42 1_555 1_555
C42 C43 1_555 1_555
C43 C44 1_555 1_555
C44 C45 1_555 1_555
C45 C40 1_555 1_555
C46 C45 1_555 1_555
H32 C46 1_555 1_555
H33 C46 1_555 1_555
H34 C46 1_555 1_555
C47 C41 1_555 1_555
H35 C47 1_555 1_555
H36 C47 1_555 1_555
H37 C47 1_555 1_555
C48 C43 1_555 1_555
H38 C48 1_555 1_555
H39 C48 1_555 1_555
H40 C48 1_555 1_555
C49 C44 1_555 1_555
C50 C42 1_555 1_555
H41 C50 1_555 1_555
H42 C50 1_555 1_555
C51 C50 1_555 1_555
C52 C51 1_555 1_555
C53 C52 1_555 1_555
C54 C53 1_555 1_555
C55 C54 1_555 1_555
C56 C51 1_555 1_555
C57 C56 1_555 1_555
H43 C57 1_555 1_555
H44 C57 1_555 1_555
H45 C57 1_555 1_555
C58 C52 1_555 1_555
H46 C58 1_555 1_555
H47 C58 1_555 1_555
H48 C58 1_555 1_555
C59 C54 1_555 1_555
H49 C59 1_555 1_555
H50 C59 1_555 1_555
H51 C59 1_555 1_555
C60 C53 1_555 1_555
C61 C55 1_555 1_555
C62 H52 1_555 1_555
C63 C62 1_555 1_555
H53 C63 1_555 1_555
C64 C63 1_555 1_555
H54 C64 1_555 1_555
C65 C64 1_555 1_555
H55 C65 1_555 1_555
C66 C65 1_555 1_555
H56 C66 1_555 1_555
C67 H57 1_555 1_555
C68 C67 1_555 1_555
H58 C68 1_555 1_555
C69 C68 1_555 1_555
H59 C69 1_555 1_555
C70 C69 1_555 1_555
H60 C70 1_555 1_555
C71 C70 1_555 1_555
H61 C71 1_555 1_555
C72 H62 1_555 1_555
C73 C72 1_555 1_555
H63 C73 1_555 1_555
C74 C73 1_555 1_555
H64 C74 1_555 1_555
C75 C74 1_555 1_555
H65 C75 1_555 1_555
C76 C75 1_555 1_555
H66 C76 1_555 1_555
C77 H67 1_555 1_555
C78 C77 1_555 1_555
H68 C78 1_555 1_555
C79 C78 1_555 1_555
H69 C79 1_555 1_555
C80 C79 1_555 1_555
H70 C80 1_555 1_555
C81 C80 1_555 1_555
H71 C81 1_555 1_555
C82 H72 1_555 1_555
C83 C82 1_555 1_555
H73 C83 1_555 1_555
C84 C83 1_555 1_555
H74 C84 1_555 1_555
C85 C84 1_555 1_555
H75 C85 1_555 1_555
C86 C85 1_555 1_555
H76 C86 1_555 1_555
N4 Cu2 1_555 1_555
N5 Cu4 1_555 1_555
N6 C72 1_555 1_555
N7 Cu1 1_555 1_555
N8 Cu3 1_555 1_555
O1 Cu2 1_555 1_555
O2 C16 1_555 1_555
O3 Cu1 1_555 1_555
O4 C26 1_555 1_555
O5 Cu4 1_555 1_555
O6 C34 1_555 1_555
O7 C35 1_555 1_555
O8 C35 1_555 1_555
O9 C39 1_555 1_555
O10 C39 1_555 1_555
O11 C49 1_555 1_555
O12 Cu1 1_555 1_555
O13 C60 1_555 1_555
O14 C60 1_555 1_555
O15 C61 1_555 1_555
O16 C61 1_555 1_555
O17 Cu5 1_555 1_555
O18 Cu2 1_555 1_555
O19 Cu1 1_555 1_555
O20 Cu4 1_555 1_555
N9 Cu5 1_555 1_555
C87 N9 1_555 1_555
H77 C87 1_555 1_555
C88 C87 1_555 1_555
H78 C88 1_555 1_555
C89 C88 1_555 1_555
H79 C89 1_555 1_555
C90 C89 1_555 1_555
H80 C90 1_555 1_555
C91 N9 1_555 1_555
H81 C91 1_555 1_555
Cu1G N6G 1_555 1_555
Cu1G_2 O12G 1_555 1_555
Cu2G O9 1_555 1_555
Cu4F O15 1_555 1_555
Cu4A O15G 1_555 1_555
Cu4G O5G 1_555 1_555
Cu5_2 O13 1_555 1_555
Cu5G O7G 1_555 1_555
N1G Cu2G 1_555 1_555
C1G N1G 1_555 1_555
H1G C1G 1_555 1_555
C2G C1G 1_555 1_555
H2G C2G 1_555 1_555
C3G C2G 1_555 1_555
H3G C3G 1_555 1_555
C4G C3G 1_555 1_555
H4G C4G 1_555 1_555
C5G N1G 1_555 1_555
H5G C5G 1_555 1_555
N2A Cu3 1_555 1_555
C6A N2A 1_555 1_555
H6A C6A 1_555 1_555
C7A C6A 1_555 1_555
H7A C7A 1_555 1_555
C8A C7A 1_555 1_555
H8A C8A 1_555 1_555
C9A C8A 1_555 1_555
H9A C9A 1_555 1_555
C10A N2A 1_555 1_555
H10A C10A 1_555 1_555
N3F Cu4F 1_555 1_555
C11F N3F 1_555 1_555
C12F C11F 1_555 1_555
C13F C12F 1_555 1_555
C14F C13F 1_555 1_555
C15F N3F 1_555 1_555
H11F C15F 1_555 1_555
C16G C17G 1_555 1_555
C17G C18G 1_555 1_555
C18G C19G 1_555 1_555
C19G C20G 1_555 1_555
C20G C21G 1_555 1_555
C21G C22G 1_555 1_555
C22G C17G 1_555 1_555
C23G C18G 1_555 1_555
H12G C23G 1_555 1_555
H13G C23G 1_555 1_555
H14G C23G 1_555 1_555
C24G C20G 1_555 1_555
H15G C24G 1_555 1_555
H16G C24G 1_555 1_555
H17G C24G 1_555 1_555
C25G C22G 1_555 1_555
H18G C25G 1_555 1_555
H19G C25G 1_555 1_555
H20G C25G 1_555 1_555
C26G C19G 1_555 1_555
C27G C21G 1_555 1_555
H21G C27G 1_555 1_555
H22G C27G 1_555 1_555
C28G C27G 1_555 1_555
C29G C28G 1_555 1_555
C30G C29G 1_555 1_555
C31G C30G 1_555 1_555
C32G C31G 1_555 1_555
C33G C28G 1_555 1_555
C34G C32G 1_555 1_555
C35G C30G 1_555 1_555
C36G C33G 1_555 1_555
H23G C36G 1_555 1_555
H24G C36G 1_555 1_555
H25G C36G 1_555 1_555
C37G C31G 1_555 1_555
H26G C37G 1_555 1_555
H27G C37G 1_555 1_555
H28G C37G 1_555 1_555
C38G C29G 1_555 1_555
H29G C38G 1_555 1_555
H30G C38G 1_555 1_555
H31G C38G 1_555 1_555
C39G C40G 1_555 1_555
C40G C41G 1_555 1_555
C41G C42G 1_555 1_555
C42G C43G 1_555 1_555
C43G C44G 1_555 1_555
C44G C45G 1_555 1_555
C45G C40G 1_555 1_555
C46G C45G 1_555 1_555
H32G C46G 1_555 1_555
H33G C46G 1_555 1_555
H34G C46G 1_555 1_555
C47G C41G 1_555 1_555
H35G C47G 1_555 1_555
H36G C47G 1_555 1_555
H37G C47G 1_555 1_555
C48G C43G 1_555 1_555
H38G C48G 1_555 1_555
H39G C48G 1_555 1_555
H40G C48G 1_555 1_555
C49G C44G 1_555 1_555
C50G C42G 1_555 1_555
H41G C50G 1_555 1_555
H42G C50G 1_555 1_555
C51G C50G 1_555 1_555
C52G C51G 1_555 1_555
C53G C52G 1_555 1_555
C54G C53G 1_555 1_555
C55G C54G 1_555 1_555
C56G C51G 1_555 1_555
C57G C56G 1_555 1_555
H43G C57G 1_555 1_555
H44G C57G 1_555 1_555
H45G C57G 1_555 1_555
C58G C52G 1_555 1_555
H46G C58G 1_555 1_555
H47G C58G 1_555 1_555
H48G C58G 1_555 1_555
C59G C54G 1_555 1_555
H49G C59G 1_555 1_555
H50G C59G 1_555 1_555
H51G C59G 1_555 1_555
C60G C53G 1_555 1_555
C61G C55G 1_555 1_555
C62G H52G 1_555 1_555
C63G C62G 1_555 1_555
H53G C63G 1_555 1_555
C64G C63G 1_555 1_555
H54G C64G 1_555 1_555
C65G C64G 1_555 1_555
H55G C65G 1_555 1_555
C66G C65G 1_555 1_555
H56G C66G 1_555 1_555
C67G H57G 1_555 1_555
C68G C67G 1_555 1_555
H58G C68G 1_555 1_555
C69G C68G 1_555 1_555
H59G C69G 1_555 1_555
C70G C69G 1_555 1_555
H60G C70G 1_555 1_555
C71G C70G 1_555 1_555
H61G C71G 1_555 1_555
C72G H62G 1_555 1_555
C73G C72G 1_555 1_555
H63G C73G 1_555 1_555
C74G C73G 1_555 1_555
H64G C74G 1_555 1_555
C75G C74G 1_555 1_555
H65G C75G 1_555 1_555
C76G C75G 1_555 1_555
H66G C76G 1_555 1_555
C77F H67F 1_555 1_555
C78F C77F 1_555 1_555
H68F C78F 1_555 1_555
C79F C78F 1_555 1_555
H69F C79F 1_555 1_555
C80F C79F 1_555 1_555
H70F C80F 1_555 1_555
C81F C80F 1_555 1_555
H71F C81F 1_555 1_555
C82A H72A 1_555 1_555
C83A C82A 1_555 1_555
H73A C83A 1_555 1_555
C84A C83A 1_555 1_555
H74A C84A 1_555 1_555
C85A C84A 1_555 1_555
H75A C85A 1_555 1_555
C86A C85A 1_555 1_555
H76A C86A 1_555 1_555
N4G Cu2G 1_555 1_555
N5F Cu4F 1_555 1_555
N6G C72G 1_555 1_555
N7G Cu1G 1_555 1_555
N8A Cu3 1_555 1_555
O1G Cu2G 1_555 1_555
O2G C16G 1_555 1_555
O3G Cu1G 1_555 1_555
O4G C26G 1_555 1_555
O5G C34G 1_555 1_555
O5F Cu4F 1_555 1_555
O6G C34G 1_555 1_555
O7G C35G 1_555 1_555
O7_2 Cu5_2 1_555 1_555
O8G C35G 1_555 1_555
O9G Cu2 1_555 1_555
O10G C39G 1_555 1_555
O11G C49G 1_555 1_555
O12G C49G 1_555 1_555
O12G_2 Cu1G 1_555 1_555
O13G Cu5G 1_555 1_555
O13_2 Cu5 1_555 1_555
O14G C60G 1_555 1_555
O15G C61G 1_555 1_555
O15F Cu4 1_555 1_555
O16G C61G 1_555 1_555
O17_2 Cu5_2 1_555 1_555
O18G Cu2G 1_555 1_555
O19G Cu1G 1_555 1_555
O20F Cu4F 1_555 1_555
N9_2 Cu5_2 1_555 1_555
C87_2 N9_2 1_555 1_555
H77_2 C87_2 1_555 1_555
C88_2 C87_2 1_555 1_555
H78_2 C88_2 1_555 1_555
C89_2 C88_2 1_555 1_555
H79_2 C89_2 1_555 1_555
C90_2 C89_2 1_555 1_555
H80_2 C90_2 1_555 1_555
C91_2 N9_2 1_555 1_555
H81_2 C91_2 1_555 1_555
C4 C5 1_555 1_555
C9 C10 1_555 1_555
C16 O1 1_555 1_555
C26 O3 1_555 1_555
C32 C33 1_555 1_555
C34 O5 1_555 1_555
C49 O12 1_555 1_555
C55 C56 1_555 1_555
C62 N4 1_555 1_555
C66 N4 1_555 1_555
C67 N7 1_555 1_555
C71 N7 1_555 1_555
C76 N6 1_555 1_555
C77 N5 1_555 1_555
C81 N5 1_555 1_555
C82 N8 1_555 1_555
C86 N8 1_555 1_555
C90 C91 1_555 1_555
C4G C5G 1_555 1_555
C9A C10A 1_555 1_555
C14F C15F 1_555 1_555
C16G O1G 1_555 1_555
C26G O3G 1_555 1_555
C32G C33G 1_555 1_555
C39G O9G 1_555 1_555
C55G C56G 1_555 1_555
C60G O13G 1_555 1_555
C62G N4G 1_555 1_555
C66G N4G 1_555 1_555
C67G N7G 1_555 1_555
C71G N7G 1_555 1_555
C76G N6G 1_555 1_555
C77F N5F 1_555 1_555
C81F N5F 1_555 1_555
C82A N8A 1_555 1_555
C86A N8A 1_555 1_555
C90_2 C91_2 1_555 1_555

#END
