
#######################################################################
#
#                 Cambridge Crystallographic Data Centre
#                                CCDC 
#
#######################################################################
#
# If this CIF has been generated from an entry in the Cambridge 
# Structural Database, then it will include bibliographic, chemical, 
# crystal, experimental, refinement or atomic coordinate data resulting 
# from the CCDC's data processing and validation procedures.
#
#######################################################################

data_ZATRET
_symmetry_cell_setting           triclinic
_symmetry_space_group_name_H-M   'P -1'
_symmetry_Int_Tables_number      2
_space_group_name_Hall           '-P 1'
loop_
_symmetry_equiv_pos_site_id
_symmetry_equiv_pos_as_xyz
1 x,y,z
2 -x,-y,-z
_cell_length_a                   11.4190(7)
_cell_length_b                   12.9822(8)
_cell_length_c                   17.2565(11)
_cell_angle_alpha                89.9860(10)
_cell_angle_beta                 79.2290(10)
_cell_angle_gamma                80.3940(10)
_cell_volume                     2476.6
loop_
_atom_site_label
_atom_site_type_symbol
_atom_site_fract_x
_atom_site_fract_y
_atom_site_fract_z
Cu1 Cu 0.29888(5) 0.24981(5) 0.03113(4)
Cu2 Cu 0.66991(6) 0.71387(5) -0.52002(4)
C1 C 0.2471(5) 0.0854(4) 0.1510(3)
H1 H 0.1657 0.1151 0.1582
C2 C 0.2815(6) -0.0014(5) 0.1947(3)
H2 H 0.2237 -0.0285 0.2305
C3 C 0.4013(6) -0.0465(4) 0.1842(3)
H3 H 0.4246 -0.1056 0.2118
C4 C 0.4874(5) -0.0040(4) 0.1326(3)
C5 C 0.4445(5) 0.0843(4) 0.0910(3)
C6 C 0.6154(6) -0.0424(4) 0.1175(4)
H4 H 0.6452 -0.1010 0.1434
C7 C 0.6936(5) 0.0045(4) 0.0668(3)
H5 H 0.7758 -0.0221 0.0592
C8 C 0.6531(5) 0.0940(4) 0.0244(3)
C9 C 0.5271(5) 0.1329(4) 0.0374(3)
C10 C 0.7288(5) 0.1468(4) -0.0289(3)
H6 H 0.8121 0.1249 -0.0385
C11 C 0.6786(5) 0.2317(5) -0.0671(3)
H7 H 0.7275 0.2674 -0.1028
C12 C 0.5533(5) 0.2629(4) -0.0512(3)
H8 H 0.5203 0.3199 -0.0775
C13 C 0.7936(7) 0.9031(5) -0.5055(4)
H9 H 0.8620 0.8682 -0.5393
C14 C 0.7952(9) 1.0023(6) -0.4728(5)
H10 H 0.8657 1.0309 -0.4840
C15 C 0.6971(10) 1.0562(6) -0.4258(5)
H11 H 0.6997 1.1219 -0.4053
C16 C 0.5964(6) 0.9129(4) -0.4412(3)
C17 C 0.5909(8) 1.0132(5) -0.4077(4)
C18 C 0.4785(10) 1.0630(6) -0.3608(4)
H12 H 0.4738 1.1292 -0.3387
C19 C 0.3787(9) 1.0168(6) -0.3476(4)
H13 H 0.3071 1.0522 -0.3176
C20 C 0.3823(7) 0.9147(5) -0.3790(3)
C21 C 0.4924(6) 0.8639(5) -0.4251(3)
C22 C 0.2849(7) 0.8619(7) -0.3692(4)
H14 H 0.2100 0.8939 -0.3413
C23 C 0.2985(6) 0.7638(6) -0.3999(4)
H15 H 0.2330 0.7284 -0.3930
C24 C 0.4107(5) 0.7160(5) -0.4420(3)
H16 H 0.4198 0.6475 -0.4610
C25 C 0.1476(5) 0.7348(4) -0.1020(3)
C26 C 0.0719(4) 0.6972(4) -0.0380(3)
C27 C 0.1111(4) 0.6094(4) 0.0025(3)
C28 C 0.2303(4) 0.5572(4) -0.0241(3)
C29 C 0.3085(4) 0.5936(4) -0.0867(3)
C30 C 0.2657(4) 0.6810(4) -0.1271(3)
C31 C 0.2699(4) 0.4549(4) 0.0126(3)
C32 C 0.0294(4) 0.5713(4) 0.0715(3)
H17 H -0.0533 0.5906 0.0656
H18 H 0.0402 0.6024 0.1196
H19 H 0.0492 0.4966 0.0733
C33 C 0.4389(4) 0.5399(4) -0.1063(3)
H20 H 0.4904 0.5914 -0.1187
H21 H 0.4498 0.4928 -0.1510
H22 H 0.4595 0.5015 -0.0618
C34 C 0.3450(5) 0.7219(4) -0.1977(3)
H23 H 0.2919 0.7678 -0.2255
H24 H 0.3950 0.7646 -0.1773
C35 C 0.4277(5) 0.6447(4) -0.2582(3)
C36 C 0.5482(5) 0.6579(4) -0.2834(3)
C37 C 0.6263(4) 0.5859(4) -0.3382(3)
C38 C 0.5877(5) 0.4998(4) -0.3669(3)
C39 C 0.6793(5) 0.4209(4) -0.4216(3)
H25 H 0.7538 0.4080 -0.4022
H26 H 0.6936 0.4482 -0.4736
H27 H 0.6484 0.3568 -0.4236
C40 C 0.3846(5) 0.5630(4) -0.2917(3)
C41 C 0.0995(5) 0.8330(4) -0.1408(3)
H28 H 0.1576 0.8794 -0.1466
H29 H 0.0251 0.8669 -0.1087
H30 H 0.0852 0.8153 -0.1918
C42 C 0.5988(5) 0.7470(4) -0.2525(3)
H31 H 0.5432 0.8111 -0.2529
H32 H 0.6750 0.7527 -0.2855
H33 H 0.6104 0.7336 -0.1995
C43 C 0.2532(5) 0.5511(4) -0.2722(3)
H34 H 0.2325 0.5169 -0.3158
H35 H 0.2035 0.6188 -0.2621
H36 H 0.2400 0.5099 -0.2261
C44 C 0.4661(5) 0.4909(4) -0.3449(3)
C45 C 0.4233(5) 0.3980(4) -0.3766(3)
C46 C 0.7549(5) 0.5995(4) -0.3665(3)
C47 C -0.0604(5) 0.7483(4) -0.0154(3)
N1 N 0.3257(4) 0.1268(3) 0.1000(2)
N2 N 0.4791(4) 0.2158(3) -0.0007(3)
N3 N 0.5053(4) 0.7653(4) -0.4558(2)
N4 N 0.6955(5) 0.8590(4) -0.4886(3)
O1 O 0.2827(3) 0.4485(3) 0.0821(2)
O2 O 0.8275(4) 0.6861(4) -0.5901(2)
H37 H 0.8673 0.6247 -0.5899
H38 H 0.8384 0.7036 -0.6380
O3 O 0.2864(3) 0.3734(3) -0.0334(2)
O5 O 0.8329(3) 0.5580(3) -0.3271(2)
O7 O 0.7790(3) 0.6490(3) -0.4285(2)
O9 O 0.3823(3) 0.4100(3) -0.4405(2)
O11 O 0.4338(5) 0.3152(3) -0.3414(3)
O13 O -0.1253(3) 0.7264(3) -0.0644(2)
O15 O -0.0993(4) 0.8025(4) 0.0442(3)
Cu1A Cu -0.29888(5) 0.75019(5) -0.03113(4)
Cu2A Cu 0.33009(6) 0.28613(5) -0.47998(4)
O9A O 0.6177(3) 0.5900(3) -0.5595(2)
O13A O 0.1253(3) 0.2736(3) 0.0644(2)
O4 O 0.2314(7) 0.5821(4) 0.2120(3)
H39 H 0.2488 0.5451 0.1695
H40 H 0.2108 0.5432 0.2500
O6 O 0.9391(5) 0.6762(4) 0.7716(3)
H41 H 0.9215 0.6739 0.8215
H42 H 0.9095 0.6273 0.7537
O8 O 0.0132(5) 0.7148(4) 0.5306(3)
H43 H 0.0320 0.7447 0.4873
H44 H -0.0573 0.6995 0.5433
O10 O 0.9487(4) 0.4964(4) 0.4263(3)
H45 H 1.0185 0.4869 0.3971
H46 H 0.9325 0.4375 0.4423
O12 O 0.9009(5) 0.1930(4) 0.6135(3)
H47 H 0.8811 0.2383 0.6512
H48 H 0.9470 0.1361 0.6192
O14 O 0.9773(7) 0.8342(5) 0.6703(3)
H49 H 0.9619 0.7856 0.7016
H50 H 0.9758 0.8132 0.6239
O16 O 0.0150(5) 0.0302(5) 0.6963(4)
H51 H -0.0128 -0.0235 0.6849
H52 H 0.0111 0.0537 0.7428
O17 O 0.8262(7) 0.7664(6) -0.7327(4)
H53 H 0.7885 0.7451 -0.7660
H54 H 0.9017 0.7528 -0.7512
O18 O 0.3433(8) -0.2687(6) 0.2667(5)
H55 H 0.3144 -0.3205 0.2529
H56 H 0.4038 -0.2913 0.2878
O20 O 0.6693(7) -0.2839(5) 0.1854(4)
H59 H 0.6697 -0.3233 0.1460
H60 H 0.6311 -0.3079 0.2267
O21 O 0.9234(14) 0.2597(13) -0.2358(9)
H61 H 0.9345 0.2180 -0.1988
H62 H 0.8675 0.3102 -0.2176
O19? O 0.9877(9) 0.1187(9) -0.1529(6)
H57? H 0.9651 0.1680 -0.1820
H58? H 1.0228 0.1431 -0.1194
loop_
_geom_bond_atom_site_label_1
_geom_bond_atom_site_label_2
_geom_bond_site_symmetry_1
_geom_bond_site_symmetry_2
Cu1 N1 1_555 1_555
Cu2 N3 1_555 1_555
C1 H1 1_555 1_555
C2 C1 1_555 1_555
H2 C2 1_555 1_555
C3 C2 1_555 1_555
H3 C3 1_555 1_555
C4 C3 1_555 1_555
C5 C4 1_555 1_555
C6 C4 1_555 1_555
H4 C6 1_555 1_555
C7 C6 1_555 1_555
H5 C7 1_555 1_555
C8 C7 1_555 1_555
C9 C5 1_555 1_555
C10 C8 1_555 1_555
H6 C10 1_555 1_555
C11 C10 1_555 1_555
H7 C11 1_555 1_555
C12 C11 1_555 1_555
H8 C12 1_555 1_555
C13 H9 1_555 1_555
C14 C13 1_555 1_555
H10 C14 1_555 1_555
C15 C14 1_555 1_555
H11 C15 1_555 1_555
C16 C17 1_555 1_555
C17 C15 1_555 1_555
C18 C17 1_555 1_555
H12 C18 1_555 1_555
C19 C18 1_555 1_555
H13 C19 1_555 1_555
C20 C19 1_555 1_555
C21 C16 1_555 1_555
C22 C20 1_555 1_555
H14 C22 1_555 1_555
C23 C22 1_555 1_555
H15 C23 1_555 1_555
C24 C23 1_555 1_555
H16 C24 1_555 1_555
C25 C26 1_555 1_555
C26 C27 1_555 1_555
C27 C28 1_555 1_555
C28 C29 1_555 1_555
C29 C30 1_555 1_555
C30 C25 1_555 1_555
C31 C28 1_555 1_555
C32 C27 1_555 1_555
H17 C32 1_555 1_555
H18 C32 1_555 1_555
H19 C32 1_555 1_555
C33 C29 1_555 1_555
H20 C33 1_555 1_555
H21 C33 1_555 1_555
H22 C33 1_555 1_555
C34 C30 1_555 1_555
H23 C34 1_555 1_555
H24 C34 1_555 1_555
C35 C34 1_555 1_555
C36 C35 1_555 1_555
C37 C36 1_555 1_555
C38 C37 1_555 1_555
C39 C38 1_555 1_555
H25 C39 1_555 1_555
H26 C39 1_555 1_555
H27 C39 1_555 1_555
C40 C35 1_555 1_555
C41 C25 1_555 1_555
H28 C41 1_555 1_555
H29 C41 1_555 1_555
H30 C41 1_555 1_555
C42 C36 1_555 1_555
H31 C42 1_555 1_555
H32 C42 1_555 1_555
H33 C42 1_555 1_555
C43 C40 1_555 1_555
H34 C43 1_555 1_555
H35 C43 1_555 1_555
H36 C43 1_555 1_555
C44 C38 1_555 1_555
C45 C44 1_555 1_555
C46 C37 1_555 1_555
C47 C26 1_555 1_555
N1 C1 1_555 1_555
N2 Cu1 1_555 1_555
N3 C21 1_555 1_555
N4 Cu2 1_555 1_555
O1 C31 1_555 1_555
O2 Cu2 1_555 1_555
H37 O2 1_555 1_555
H38 O2 1_555 1_555
O3 Cu1 1_555 1_555
O4 H39 1_555 1_555
H40 O4 1_555 1_555
O5 C46 1_555 1_555
O6 H41 1_555 1_555
H42 O6 1_555 1_555
O7 Cu2 1_555 1_555
O8 H43 1_555 1_555
H44 O8 1_555 1_555
O9 C45 1_555 1_555
O10 H45 1_555 1_555
H46 O10 1_555 1_555
O11 C45 1_555 1_555
O12 H47 1_555 1_555
H48 O12 1_555 1_555
O13 C47 1_555 1_555
O14 H49 1_555 1_555
H50 O14 1_555 1_555
O15 C47 1_555 1_555
O16 H51 1_555 1_555
H52 O16 1_555 1_555
O17 H53 1_555 1_555
H54 O17 1_555 1_555
O18 H55 1_555 1_555
H56 O18 1_555 1_555
O20 H59 1_555 1_555
H60 O20 1_555 1_555
O21 H61 1_555 1_555
H62 O21 1_555 1_555
Cu1A O13 1_555 1_555
Cu2A O9 1_555 1_555
O9A Cu2 1_555 1_555
O13A Cu1 1_555 1_555
C5 N1 1_555 1_555
C8 C9 1_555 1_555
C9 N2 1_555 1_555
C12 N2 1_555 1_555
C13 N4 1_555 1_555
C16 N4 1_555 1_555
C20 C21 1_555 1_555
C24 N3 1_555 1_555
C31 O3 1_555 1_555
C40 C44 1_555 1_555
C46 O7 1_555 1_555

#END
