
#######################################################################
#
#                 Cambridge Crystallographic Data Centre
#                                CCDC 
#
#######################################################################
#
# If this CIF has been generated from an entry in the Cambridge 
# Structural Database, then it will include bibliographic, chemical, 
# crystal, experimental, refinement or atomic coordinate data resulting 
# from the CCDC's data processing and validation procedures.
#
#######################################################################

data_ZATYAW
_symmetry_cell_setting           monoclinic
_symmetry_space_group_name_H-M   'P 21/c'
_symmetry_Int_Tables_number      14
_space_group_name_Hall           '-P 2ybc'
loop_
_symmetry_equiv_pos_site_id
_symmetry_equiv_pos_as_xyz
1 x,y,z
2 -x,1/2+y,1/2-z
3 -x,-y,-z
4 x,1/2-y,1/2+z
_cell_length_a                   8.6003(6)
_cell_length_b                   21.8706(16)
_cell_length_c                   13.4565(9)
_cell_angle_alpha                90
_cell_angle_beta                 121.437(4)
_cell_angle_gamma                90
_cell_volume                     2159.56
loop_
_atom_site_label
_atom_site_type_symbol
_atom_site_fract_x
_atom_site_fract_y
_atom_site_fract_z
O1 O 0.2539(3) 0.47918(10) 0.46484(18)
H17 H 0.2718 0.5139 0.4971
H18 H 0.2930 0.4953 0.4247
Co1 Co 0.61377(6) 0.86107(2) 0.75973(4)
C1 C 0.3970(4) 0.96875(14) 0.6024(3)
H1 H 0.2855 0.9851 0.5412
C2 C 0.5548(4) 1.00867(13) 0.6588(3)
C3 C 0.7348(4) 0.98914(13) 0.7527(3)
C4 C 0.8472(4) 1.09229(14) 0.7573(3)
C5 C 0.6724(4) 1.11186(13) 0.6711(2)
C6 C 0.5297(4) 1.06830(13) 0.6225(3)
H2 H 0.4119 1.0809 0.5623
C7 C 0.9939(4) 1.13279(14) 0.8050(3)
H3 H 1.1128 1.1190 0.8611
C8 C 0.9647(4) 1.19279(14) 0.7702(3)
H4 H 1.0645 1.2205 0.8029
C9 C 0.7889(4) 1.21415(14) 0.6865(3)
H5 H 0.7701 1.2560 0.6644
C10 C 0.6468(4) 1.17416(13) 0.6378(3)
H6 H 0.5287 1.1883 0.5807
C11 C 0.2549(4) 0.81874(13) 0.5973(3)
C12 C 0.0976(4) 0.77813(13) 0.5243(2)
C13 C -0.0814(4) 0.79819(14) 0.4556(2)
H7 H -0.1112 0.8400 0.4555
C14 C -0.2145(4) 0.75638(13) 0.3877(3)
H8 H -0.3368 0.7702 0.3414
C15 C -0.0060(4) 0.67769(13) 0.4520(2)
H9 H 0.0206 0.6356 0.4508
C16 C 0.1349(4) 0.71652(13) 0.5234(2)
H10 H 0.2554 0.7013 0.5711
N1 N 0.4001(3) 0.91243(11) 0.6306(2)
N2 N 0.2422(3) 0.87846(11) 0.5663(2)
H11 H 0.1439 0.8962 0.5058
N3 N 0.8686(3) 1.03174(11) 0.7929(2)
H12 H 0.9825 1.0202 0.8472
N4 N -0.1794(3) 0.69654(11) 0.3839(2)
O2 O 0.7760(3) 0.93655(9) 0.79793(17)
O3 O 0.3979(3) 0.79837(9) 0.68176(16)
O4 O 0.5381(3) 0.88526(9) 0.88380(17)
H13 H 0.5898 0.9190 0.9145
H14 H 0.4315 0.8989 0.8371
O5 O 0.6793(3) 0.82979(9) 0.63823(17)
H15 H 0.6685 0.7929 0.6157
H16 H 0.7762 0.8346 0.6369
Co1C Co -0.38623(6) 0.63893(2) 0.25973(4)
N4C N 0.8206(3) 0.80346(11) 0.8839(2)
N5 N 0.5152(4) 0.91204(12) 0.1593(2)
O6 O 0.6027(3) 0.96096(11) 0.1827(2)
O7 O 0.5934(3) 0.86447(11) 0.2161(2)
O8 O 0.3511(3) 0.91054(11) 0.0810(2)
N6 N 0.0478(3) 0.59327(12) 0.2022(2)
O9 O 0.0394(3) 0.64931(9) 0.22028(19)
O10 O 0.1921(3) 0.56423(10) 0.2652(2)
O11 O -0.0867(3) 0.56654(10) 0.12055(18)
O12 O 0.5784(3) 0.78601(10) 0.04754(19)
H19 H 0.5704 0.8093 -0.0055
H20 H 0.5481 0.8107 0.0833
O13 O 0.9566(3) 0.94651(10) 0.39421(18)
H21 H 0.9738 0.9825 0.3781
H22 H 0.8707 0.9452 0.3232
loop_
_geom_bond_atom_site_label_1
_geom_bond_atom_site_label_2
_geom_bond_site_symmetry_1
_geom_bond_site_symmetry_2
O1 H17 1_555 1_555
Co1 N1 1_555 1_555
C1 H1 1_555 1_555
C2 C1 1_555 1_555
C3 C2 1_555 1_555
C4 C5 1_555 1_555
C5 C6 1_555 1_555
C6 C2 1_555 1_555
H2 C6 1_555 1_555
C7 C4 1_555 1_555
H3 C7 1_555 1_555
C8 C7 1_555 1_555
H4 C8 1_555 1_555
C9 C8 1_555 1_555
H5 C9 1_555 1_555
C10 C5 1_555 1_555
H6 C10 1_555 1_555
C11 C12 1_555 1_555
C12 C13 1_555 1_555
C13 H7 1_555 1_555
C14 C13 1_555 1_555
H8 C14 1_555 1_555
C15 H9 1_555 1_555
C16 C12 1_555 1_555
H10 C16 1_555 1_555
N1 C1 1_555 1_555
N2 C11 1_555 1_555
H11 N2 1_555 1_555
N3 C3 1_555 1_555
H12 N3 1_555 1_555
N4 C14 1_555 1_555
O2 Co1 1_555 1_555
O3 Co1 1_555 1_555
O4 Co1 1_555 1_555
H13 O4 1_555 1_555
H14 O4 1_555 1_555
O5 Co1 1_555 1_555
H15 O5 1_555 1_555
H16 O5 1_555 1_555
N5 O6 1_555 1_555
O7 N5 1_555 1_555
O8 N5 1_555 1_555
N6 O9 1_555 1_555
O10 N6 1_555 1_555
O11 N6 1_555 1_555
H18 O1 1_555 1_555
O12 H19 1_555 1_555
H20 O12 1_555 1_555
O13 H21 1_555 1_555
H22 O13 1_555 1_555
Co1C N4 1_555 1_555
N4C Co1 1_555 1_555
C3 O2 1_555 1_555
C4 N3 1_555 1_555
C9 C10 1_555 1_555
C11 O3 1_555 1_555
C15 C16 1_555 1_555
C15 N4 1_555 1_555
N1 N2 1_555 1_555

#END
