
#######################################################################
#
#                 Cambridge Crystallographic Data Centre
#                                CCDC 
#
#######################################################################
#
# If this CIF has been generated from an entry in the Cambridge 
# Structural Database, then it will include bibliographic, chemical, 
# crystal, experimental, refinement or atomic coordinate data resulting 
# from the CCDC's data processing and validation procedures.
#
#######################################################################

data_ZAVNAL
_symmetry_cell_setting           monoclinic
_symmetry_space_group_name_H-M   'P 21/m'
_symmetry_Int_Tables_number      11
_space_group_name_Hall           '-P 2yb'
loop_
_symmetry_equiv_pos_site_id
_symmetry_equiv_pos_as_xyz
1 x,y,z
2 -x,1/2+y,-z
3 -x,-y,-z
4 x,1/2-y,z
_cell_length_a                   9.962(5)
_cell_length_b                   17.620(9)
_cell_length_c                   10.316(5)
_cell_angle_alpha                90
_cell_angle_beta                 111.34(3)
_cell_angle_gamma                90
_cell_volume                     1686.62
loop_
_atom_site_label
_atom_site_type_symbol
_atom_site_fract_x
_atom_site_fract_y
_atom_site_fract_z
Sb1 Sb 0.11410(3) -0.2500 -0.21345(3)
K1 K -0.17525(7) -0.14615(4) -0.46155(8)
O1 O 0.0465(3) -0.2500 -0.4197(3)
O2 O -0.3509(4) -0.2500 -0.6052(3)
O3 O -0.0939(3) -0.2500 -0.2441(3)
O4 O 0.0811(3) -0.13025(13) -0.2471(3)
O5 O -0.3733(3) -0.45748(15) -0.4499(3)
C1 C 0.1341(4) -0.2500 -0.5038(5)
C2 C 0.2937(6) -0.2500 -0.4164(7)
H1 H 0.3161(40) -0.2963(22) -0.3524(41)
H2 H 0.3470(55) -0.2500 -0.4699(53)
C3 C 0.0951(5) -0.1800(2) -0.5943(4)
H3 H 0.1200(5) -0.1355(2) -0.5366(4)
H4 H -0.0066(5) -0.1799(2) -0.6473(4)
H5 H 0.1471(5) -0.1800(2) -0.6565(4)
C4 C -0.4260(5) -0.2500 -0.7464(5)
C5 C -0.5876(6) -0.2500 -0.7782(7)
H6 H -0.6174(49) -0.2962(28) -0.7437(49)
H7 H -0.6375(75) -0.2500 -0.8693(78)
C6 C -0.3886(5) -0.3202(3) -0.8134(5)
H8 H -0.2869(5) -0.3211(3) -0.7943(5)
H9 H -0.4400(5) -0.3186(3) -0.9122(5)
H10 H -0.4155(5) -0.3650(3) -0.7758(5)
C7 C -0.1605(6) -0.2500 -0.1406(5)
C8 C -0.0514(12) -0.2500 0.0045(8)
H11 H -0.0944(80) -0.2500 0.0665(84)
H12 H -0.0288(93) -0.1947(42) -0.0018(89)
C9 C -0.2526(11) -0.1815(5) -0.1652(9)
H13 H -0.1934(11) -0.1369(5) -0.1494(9)
H14 H -0.3041(11) -0.1816(5) -0.1026(9)
H15 H -0.3201(11) -0.1816(5) -0.2594(9)
C10 C 0.1618(4) -0.4320(2) -0.1780(4)
C11 C 0.3085(8) -0.4302(6) -0.1826(13)
H16 H 0.3552(8) -0.3837(6) -0.1423(13)
H17 H 0.3023(8) -0.4335(6) -0.2775(13)
H18 H 0.3631(8) -0.4724(6) -0.1309(13)
C12 C 0.1900(12) -0.4286(4) -0.0227(6)
H19 H 0.2428(12) -0.3832(4) 0.0160(6)
H20 H 0.2451(12) -0.4721(4) 0.0225(6)
H21 H 0.0998(12) -0.4282(4) -0.0088(6)
C13 C 0.0819(10) -0.5003(3) -0.2366(11)
H22 H -0.0119(10) -0.4977(3) -0.2304(11)
H23 H 0.1327(10) -0.5437(3) -0.1858(11)
H24 H 0.0718(10) -0.5048(3) -0.3324(11)
C14 C -0.5106(4) -0.4223(2) -0.5045(5)
H25 H -0.5026(4) -0.3741(2) -0.5465(5)
H26 H -0.5458(4) -0.4125(2) -0.4299(5)
C15 C -0.6127(5) -0.4720(2) -0.6098(5)
H27 H -0.4213(5) -0.5196(2) -0.3145(5)
H28 H -0.2939(5) -0.5526(2) -0.3525(5)
O5C O -0.3733(3) -0.04252(15) -0.4499(3)
K1C K -0.17525(7) -0.35385(4) -0.46155(8)
H1C H 0.3161(40) -0.2037(22) -0.3524(41)
C3C C 0.0951(5) -0.3200(2) -0.5943(4)
H3C H 0.1200(5) -0.3645(2) -0.5366(4)
H4C H -0.0066(5) -0.3201(2) -0.6473(4)
H5C H 0.1471(5) -0.3200(2) -0.6565(4)
H12C H -0.0288(93) -0.3053(42) -0.0018(89)
C9C C -0.2526(11) -0.3185(5) -0.1652(9)
H13C H -0.1934(11) -0.3631(5) -0.1494(9)
H14C H -0.3041(11) -0.3184(5) -0.1026(9)
H15C H -0.3201(11) -0.3184(5) -0.2594(9)
O4C O 0.0811(3) -0.36975(13) -0.2471(3)
O5B O -0.6267(3) -0.54252(15) -0.5501(3)
K1A K -0.82475(7) -0.64615(4) -0.53845(8)
C14B C -0.4894(4) -0.5777(2) -0.4955(5)
H25B H -0.4974(4) -0.6259(2) -0.4535(5)
H26B H -0.4542(4) -0.5875(2) -0.5701(5)
C15B C -0.3873(5) -0.5280(2) -0.3902(5)
H27B H -0.5787(5) -0.4804(2) -0.6855(5)
H28B H -0.7061(5) -0.4474(2) -0.6475(5)
C10C C 0.1618(4) -0.0680(2) -0.1780(4)
C11C C 0.3085(8) -0.0698(6) -0.1826(13)
H16C H 0.3552(8) -0.1163(6) -0.1423(13)
H17C H 0.3023(8) -0.0665(6) -0.2775(13)
H18C H 0.3631(8) -0.0276(6) -0.1309(13)
C12C C 0.1900(12) -0.0714(4) -0.0227(6)
H19C H 0.2428(12) -0.1168(4) 0.0160(6)
H20C H 0.2451(12) -0.0279(4) 0.0225(6)
H21C H 0.0998(12) -0.0718(4) -0.0088(6)
C13C C 0.0819(10) 0.0003(3) -0.2366(11)
H22C H -0.0119(10) -0.0023(3) -0.2304(11)
H23C H 0.1327(10) 0.0437(3) -0.1858(11)
H24C H 0.0718(10) 0.0048(3) -0.3324(11)
H6C H -0.6174(49) -0.2038(28) -0.7437(49)
C6C C -0.3886(5) -0.1798(3) -0.8134(5)
H8C H -0.2869(5) -0.1789(3) -0.7943(5)
H9C H -0.4400(5) -0.1814(3) -0.9122(5)
H10C H -0.4155(5) -0.1350(3) -0.7758(5)
loop_
_geom_bond_atom_site_label_1
_geom_bond_atom_site_label_2
_geom_bond_site_symmetry_1
_geom_bond_site_symmetry_2
Sb1 O1 1_555 1_555
K1 O1 1_555 1_555
O1 C1 1_555 1_555
O2 K1 1_555 1_555
O3 Sb1 1_555 1_555
O4 Sb1 1_555 1_555
O5 C14 1_555 1_555
C1 C2 1_555 1_555
C2 H1 1_555 1_555
H2 C2 1_555 1_555
C3 C1 1_555 1_555
H3 C3 1_555 1_555
H4 C3 1_555 1_555
H5 C3 1_555 1_555
C4 O2 1_555 1_555
C5 C4 1_555 1_555
H6 C5 1_555 1_555
H7 C5 1_555 1_555
C6 C4 1_555 1_555
H8 C6 1_555 1_555
H9 C6 1_555 1_555
H10 C6 1_555 1_555
C7 O3 1_555 1_555
C8 C7 1_555 1_555
H11 C8 1_555 1_555
H12 C8 1_555 1_555
C9 C7 1_555 1_555
H13 C9 1_555 1_555
H14 C9 1_555 1_555
H15 C9 1_555 1_555
C10 C11 1_555 1_555
C11 H16 1_555 1_555
H17 C11 1_555 1_555
H18 C11 1_555 1_555
C12 C10 1_555 1_555
H19 C12 1_555 1_555
H20 C12 1_555 1_555
H21 C12 1_555 1_555
C13 C10 1_555 1_555
H22 C13 1_555 1_555
H23 C13 1_555 1_555
H24 C13 1_555 1_555
C14 H25 1_555 1_555
H26 C14 1_555 1_555
C15 C14 1_555 1_555
H27 C15B 1_555 1_555
H28 C15B 1_555 1_555
O5C K1 1_555 1_555
K1C O1 1_555 1_555
H1C C2 1_555 1_555
C3C C1 1_555 1_555
H3C C3C 1_555 1_555
H4C C3C 1_555 1_555
H5C C3C 1_555 1_555
H12C C8 1_555 1_555
C9C C7 1_555 1_555
H13C C9C 1_555 1_555
H14C C9C 1_555 1_555
H15C C9C 1_555 1_555
O4C Sb1 1_555 1_555
O5B C15 1_555 1_555
K1A O5B 1_555 1_555
C14B O5B 1_555 1_555
H25B C14B 1_555 1_555
H26B C14B 1_555 1_555
C15B O5 1_555 1_555
H27B C15 1_555 1_555
H28B C15 1_555 1_555
C10C O4 1_555 1_555
C11C C10C 1_555 1_555
H16C C11C 1_555 1_555
H17C C11C 1_555 1_555
H18C C11C 1_555 1_555
C12C C10C 1_555 1_555
H19C C12C 1_555 1_555
H20C C12C 1_555 1_555
H21C C12C 1_555 1_555
C13C C10C 1_555 1_555
H22C C13C 1_555 1_555
H23C C13C 1_555 1_555
H24C C13C 1_555 1_555
H6C C5 1_555 1_555
C6C C4 1_555 1_555
H8C C6C 1_555 1_555
H9C C6C 1_555 1_555
H10C C6C 1_555 1_555
K1 O3 1_555 1_555
K1 O4 1_555 1_555
O2 K1C 1_555 1_555
O3 K1C 1_555 1_555
O5 K1C 1_555 1_555
C10 O4C 1_555 1_555
K1C O4C 1_555 1_555
C14B C15B 1_555 1_555

#END
