
#######################################################################
#
#                 Cambridge Crystallographic Data Centre
#                                CCDC 
#
#######################################################################
#
# If this CIF has been generated from an entry in the Cambridge 
# Structural Database, then it will include bibliographic, chemical, 
# crystal, experimental, refinement or atomic coordinate data resulting 
# from the CCDC's data processing and validation procedures.
#
#######################################################################

data_ZAVPET
_symmetry_cell_setting           monoclinic
_symmetry_space_group_name_H-M   'C 2/c'
_symmetry_Int_Tables_number      15
_space_group_name_Hall           '-C 2yn'
loop_
_symmetry_equiv_pos_site_id
_symmetry_equiv_pos_as_xyz
1 x,y,z
2 -x,y,1/2-z
3 1/2+x,1/2+y,z
4 1/2-x,1/2+y,1/2-z
5 -x,-y,-z
6 x,-y,1/2+z
7 1/2-x,1/2-y,-z
8 1/2+x,1/2-y,1/2+z
_cell_length_a                   23.7369(11)
_cell_length_b                   15.8216(7)
_cell_length_c                   16.2890(8)
_cell_angle_alpha                90
_cell_angle_beta                 124.0540(10)
_cell_angle_gamma                90
_cell_volume                     5068.35
loop_
_atom_site_label
_atom_site_type_symbol
_atom_site_fract_x
_atom_site_fract_y
_atom_site_fract_z
La1 La 0.188743(12) 0.330442(16) 0.378405(17)
C1 C 0.0202(2) 0.2611(3) 0.0791(3)
C2 C -0.0453(2) 0.2576(3) 0.0574(3)
H1 H -0.0547 0.2802 0.1025
C3 C -0.0967(2) 0.2210(3) -0.0306(3)
C4 C -0.0827(2) 0.1853(3) -0.0950(3)
H2 H -0.1177 0.1589 -0.1545
C5 C -0.0172(2) 0.1887(3) -0.0714(3)
C6 C 0.0347(2) 0.2268(3) 0.0140(3)
H3 H 0.0794 0.2297 0.0283
C7 C -0.0434(2) 0.0932(3) -0.1987(3)
C8 C -0.0969(2) 0.1099(3) -0.2958(3)
C9 C -0.1387(2) 0.0449(3) -0.3569(3)
H4 H -0.1751 0.0566 -0.4233
C10 C -0.1273(2) -0.0370(3) -0.3212(3)
C11 C -0.0725(2) -0.0537(3) -0.2252(3)
H5 H -0.0638 -0.1100 -0.2008
C12 C -0.0306(3) 0.0108(3) -0.1651(4)
H6 H 0.0074 -0.0015 -0.1002
C13 C 0.0777(2) 0.2997(3) 0.1752(3)
C14 C -0.1691(2) 0.2180(3) -0.0609(3)
C15 C -0.1753(2) -0.1067(3) -0.3847(3)
C16 C 0.0699(3) 0.4589(4) 0.3886(5)
H7 H 0.0320 0.4250 0.3427
C17 C -0.0117(3) 0.5607(4) 0.3691(5)
H8 H -0.0433 0.5157 0.3273
H9 H -0.0206 0.6112 0.3288
H10 H -0.0182 0.5740 0.4221
C18 C 0.1131(3) 0.5898(4) 0.4783(5)
H11 H 0.1567 0.5628 0.5012
H12 H 0.1112 0.6032 0.5354
H13 H 0.1087 0.6420 0.4427
N1 N -0.1132(2) 0.1954(3) -0.3375(4)
N2 N 0.2283(3) 0.5907(3) 0.2855(4)
N3 N 0.0578(3) 0.5327(3) 0.4123(4)
O1 O 0.13566(15) 0.3028(2) 0.1915(2)
O2 O 0.06467(15) 0.3259(2) 0.2361(2)
O3 O -0.18684(15) 0.2579(2) -0.0113(2)
O4 O -0.21107(16) 0.1758(2) -0.1361(2)
O5 O -0.0894(3) 0.2560(3) -0.2822(3)
O6 O -0.1498(2) 0.2026(3) -0.4282(3)
O7 O -0.22010(16) -0.0887(2) -0.4734(2)
O8 O -0.16702(19) -0.1764(2) -0.3437(2)
O9 O 0.00012(17) 0.1554(2) -0.1342(3)
O10 O 0.1865(2) 0.4705(3) 0.3043(3)
O11 O 0.1274(2) 0.4307(3) 0.4221(3)
C19 C 0.2090(6) 0.5431(8) 0.3290(10)
H14 H 0.2122 0.5658 0.3855
C20 C 0.2493(6) 0.6814(7) 0.3209(8)
H15 H 0.2587 0.6873 0.3874
H16 H 0.2124 0.7198 0.2752
H17 H 0.2903 0.6953 0.3229
C21 C 0.1803(6) 0.5873(7) 0.1731(8)
H18 H 0.1386 0.6187 0.1520
H19 H 0.1688 0.5283 0.1517
H20 H 0.2024 0.6128 0.1433
La1A La -0.188743(12) 0.330442(16) 0.121595(17)
La1G La -0.311257(12) 0.169558(16) -0.121595(17)
La1B La -0.311257(12) -0.169558(16) -0.621595(17)
La1D La -0.188743(12) -0.330442(16) -0.378405(17)
O3A O 0.18684(15) 0.2579(2) 0.5113(2)
O3G O 0.31316(15) 0.2421(2) 0.4887(2)
O4G O 0.28893(16) 0.3242(2) 0.3639(2)
O7B O 0.27990(16) 0.4113(2) 0.5266(2)
O8D O 0.16702(19) 0.1764(2) 0.3437(2)
O12 O -0.2509(15) 0.145(2) -0.336(2)
C22? C 0.2327(10) 0.5193(11) 0.3347(15)
C23? C 0.2892(9) 0.6421(11) 0.3235(12)
C24? C 0.2243(10) 0.5717(11) 0.2000(13)
H21? H 0.2742 0.5075 0.3961
H22? H 0.3052 0.6627 0.3899
H23? H 0.2785 0.6902 0.2792
H24? H 0.3248 0.6077 0.3269
H25? H 0.2131 0.5118 0.1842
H26? H 0.2681 0.5835 0.2095
H27? H 0.1888 0.6063 0.1455
loop_
_geom_bond_atom_site_label_1
_geom_bond_atom_site_label_2
_geom_bond_site_symmetry_1
_geom_bond_site_symmetry_2
La1 O1 1_555 1_555
C1 C2 1_555 1_555
C2 H1 1_555 1_555
C3 C2 1_555 1_555
C4 C3 1_555 1_555
H2 C4 1_555 1_555
C5 C4 1_555 1_555
C6 C1 1_555 1_555
H3 C6 1_555 1_555
C7 C8 1_555 1_555
C8 C9 1_555 1_555
C9 H4 1_555 1_555
C10 C9 1_555 1_555
C11 C10 1_555 1_555
H5 C11 1_555 1_555
C12 C7 1_555 1_555
H6 C12 1_555 1_555
C13 C1 1_555 1_555
C14 C3 1_555 1_555
C15 C10 1_555 1_555
C16 H7 1_555 1_555
C17 H8 1_555 1_555
H9 C17 1_555 1_555
H10 C17 1_555 1_555
C18 H11 1_555 1_555
H12 C18 1_555 1_555
H13 C18 1_555 1_555
N1 C8 1_555 1_555
N2 C19 1_555 1_555
N3 C16 1_555 1_555
O1 C13 1_555 1_555
O2 La1 1_555 1_555
O3 C14 1_555 1_555
O4 C14 1_555 1_555
O5 N1 1_555 1_555
O6 N1 1_555 1_555
O7 C15 1_555 1_555
O8 C15 1_555 1_555
O9 C5 1_555 1_555
O10 La1 1_555 1_555
O11 La1 1_555 1_555
C19 O10 1_555 1_555
H14 C19 1_555 1_555
C20 N2 1_555 1_555
H15 C20 1_555 1_555
H16 C20 1_555 1_555
H17 C20 1_555 1_555
C21 N2 1_555 1_555
H18 C21 1_555 1_555
H19 C21 1_555 1_555
H20 C21 1_555 1_555
La1A O3 1_555 1_555
La1G O3 1_555 1_555
La1B O7 1_555 1_555
La1D O8 1_555 1_555
O3A La1 1_555 1_555
O3G La1 1_555 1_555
O4G La1 1_555 1_555
O7B La1 1_555 1_555
O8D La1 1_555 1_555
C5 C6 1_555 1_555
C7 O9 1_555 1_555
C11 C12 1_555 1_555
C13 O2 1_555 1_555
C16 O11 1_555 1_555
C17 N3 1_555 1_555
C18 N3 1_555 1_555
O4 La1G 1_555 1_555

#END
