
#######################################################################
#
#                 Cambridge Crystallographic Data Centre
#                                CCDC 
#
#######################################################################
#
# If this CIF has been generated from an entry in the Cambridge 
# Structural Database, then it will include bibliographic, chemical, 
# crystal, experimental, refinement or atomic coordinate data resulting 
# from the CCDC's data processing and validation procedures.
#
#######################################################################

data_ZAVPIX
_symmetry_cell_setting           monoclinic
_symmetry_space_group_name_H-M   'C 2/c'
_symmetry_Int_Tables_number      15
_space_group_name_Hall           '-C 2yn'
loop_
_symmetry_equiv_pos_site_id
_symmetry_equiv_pos_as_xyz
1 x,y,z
2 -x,y,1/2-z
3 1/2+x,1/2+y,z
4 1/2-x,1/2+y,1/2-z
5 -x,-y,-z
6 x,-y,1/2+z
7 1/2-x,1/2-y,-z
8 1/2+x,1/2-y,1/2+z
_cell_length_a                   23.659(7)
_cell_length_b                   15.770(4)
_cell_length_c                   16.214(9)
_cell_angle_alpha                90
_cell_angle_beta                 123.982(3)
_cell_angle_gamma                90
_cell_volume                     5016.31
loop_
_atom_site_label
_atom_site_type_symbol
_atom_site_fract_x
_atom_site_fract_y
_atom_site_fract_z
Ce1 Ce -0.310840(13) -0.330060(17) -0.121500(19)
C1 C -0.5975(3) -0.2210(3) -0.5302(4)
C2 C -0.5452(3) -0.2576(3) -0.4412(4)
H1 H -0.5545 -0.2804 -0.3957
C3 C -0.4788(3) -0.2607(3) -0.4194(4)
C4 C -0.4654(3) -0.2269(3) -0.4860(4)
H2 H -0.4208 -0.2299 -0.4723
C5 C -0.5175(3) -0.1891(3) -0.5720(4)
C6 C -0.5831(3) -0.1858(4) -0.5950(4)
H3 H -0.6182 -0.1595 -0.6549
C7 C -0.5438(3) -0.0940(4) -0.6995(4)
C8 C -0.5974(3) -0.1107(3) -0.7964(4)
C9 C -0.6387(3) -0.0455(3) -0.8573(4)
H4 H -0.6750 -0.0573 -0.9240
C10 C -0.6277(3) 0.0365(3) -0.8220(4)
C11 C -0.5732(3) 0.0531(4) -0.7258(4)
H5 H -0.5648 0.1096 -0.7012
C12 C -0.5314(3) -0.0111(4) -0.6657(4)
H6 H -0.4935 0.0014 -0.6003
C13 C -0.6695(3) -0.2190(3) -0.5605(4)
C14 C -0.4221(3) -0.2988(3) -0.3235(4)
C15 C -0.6761(3) 0.1068(3) -0.8863(4)
C16 C -0.2822(5) -0.5332(6) -0.1696(7)
H7 H -0.2606 -0.5442 -0.1006
C17 C -0.2417(5) -0.6723(5) -0.1784(7)
H8 H -0.2178 -0.6735 -0.1059
H9 H -0.2774 -0.7158 -0.2079
H10 H -0.2092 -0.6835 -0.1965
C18 C -0.3106(5) -0.5844(6) -0.3219(6)
H11 H -0.3310 -0.5279 -0.3433
H12 H -0.2801 -0.5943 -0.3440
H13 H -0.3466 -0.6274 -0.3511
C19 C -0.4285(4) -0.4580(4) -0.1107(6)
H14 H -0.4662 -0.4237 -0.1567
C20 C -0.3870(4) -0.5890(4) -0.0210(6)
H15 H -0.3430 -0.5623 0.0028
H16 H -0.3896 -0.6024 0.0358
H17 H -0.3914 -0.6413 -0.0568
C21 C -0.5110(4) -0.5600(5) -0.1286(6)
H18 H -0.5429 -0.5154 -0.1712
H19 H -0.5201 -0.6115 -0.1681
H20 H -0.5169 -0.5722 -0.0746
N1 N -0.6135(3) -0.1964(3) -0.8385(4)
N2 N -0.2723(4) -0.5897(5) -0.2153(5)
N3 N -0.4412(3) -0.5318(4) -0.0867(5)
O1 O -0.7118(2) -0.1773(3) -0.6366(3)
O2 O -0.68707(19) -0.2585(2) -0.5106(3)
O3 O -0.4343(2) -0.3253(2) -0.2614(3)
O4 O -0.36385(18) -0.3023(3) -0.3071(3)
O5 O -0.5895(3) -0.2569(3) -0.7827(4)
O6 O -0.6505(3) -0.2032(3) -0.9289(4)
O7 O -0.7202(2) 0.0895(2) -0.9748(3)
O8 O -0.6677(2) 0.1767(2) -0.8443(3)
O9 O -0.5000(2) -0.1562(3) -0.6344(3)
O10 O -0.3134(3) -0.4689(4) -0.1968(4)
O11 O -0.3711(3) -0.4307(3) -0.0776(4)
Ce1A Ce -0.689160(13) -0.330060(17) -0.378500(19)
Ce1G Ce -0.810840(13) -0.169940(17) -0.621500(19)
Ce1B Ce -0.810840(13) 0.169940(17) -1.121500(19)
Ce1D Ce -0.689160(13) 0.330060(17) -0.878500(19)
O1G O -0.2118(2) -0.3227(3) -0.1366(3)
O2A O -0.31293(19) -0.2585(2) 0.0106(3)
O2G O -0.18707(19) -0.2415(2) -0.0106(3)
O7B O -0.2202(2) -0.4105(2) 0.0252(3)
O8D O -0.3323(2) -0.1767(2) -0.1557(3)
O12 O -0.751(3) 0.347(3) -0.660(4)
loop_
_geom_bond_atom_site_label_1
_geom_bond_atom_site_label_2
_geom_bond_site_symmetry_1
_geom_bond_site_symmetry_2
Ce1 O3 1_555 1_555
C1 C2 1_555 1_555
C2 H1 1_555 1_555
C3 C2 1_555 1_555
C4 C3 1_555 1_555
H2 C4 1_555 1_555
C5 C4 1_555 1_555
C6 C1 1_555 1_555
H3 C6 1_555 1_555
C7 C8 1_555 1_555
C8 C9 1_555 1_555
C9 H4 1_555 1_555
C10 C9 1_555 1_555
C11 C10 1_555 1_555
H5 C11 1_555 1_555
C12 C7 1_555 1_555
H6 C12 1_555 1_555
C13 C1 1_555 1_555
C14 C3 1_555 1_555
C15 C10 1_555 1_555
C16 H7 1_555 1_555
C17 H8 1_555 1_555
H9 C17 1_555 1_555
H10 C17 1_555 1_555
C18 H11 1_555 1_555
H12 C18 1_555 1_555
H13 C18 1_555 1_555
C19 H14 1_555 1_555
C20 H15 1_555 1_555
H16 C20 1_555 1_555
H17 C20 1_555 1_555
C21 H18 1_555 1_555
H19 C21 1_555 1_555
H20 C21 1_555 1_555
N1 C8 1_555 1_555
N2 C16 1_555 1_555
N3 C19 1_555 1_555
O1 C13 1_555 1_555
O2 C13 1_555 1_555
O3 C14 1_555 1_555
O4 Ce1 1_555 1_555
O5 N1 1_555 1_555
O6 N1 1_555 1_555
O7 C15 1_555 1_555
O8 C15 1_555 1_555
O9 C5 1_555 1_555
O10 Ce1 1_555 1_555
O11 Ce1 1_555 1_555
Ce1A O2 1_555 1_555
Ce1G O1 1_555 1_555
Ce1B O7 1_555 1_555
Ce1D O8 1_555 1_555
O1G Ce1 1_555 1_555
O2A Ce1 1_555 1_555
O2G Ce1 1_555 1_555
O7B Ce1 1_555 1_555
O8D Ce1 1_555 1_555
C5 C6 1_555 1_555
C7 O9 1_555 1_555
C11 C12 1_555 1_555
C14 O4 1_555 1_555
C16 O10 1_555 1_555
C17 N2 1_555 1_555
C18 N2 1_555 1_555
C19 O11 1_555 1_555
C20 N3 1_555 1_555
C21 N3 1_555 1_555
O2 Ce1G 1_555 1_555

#END
