
#######################################################################
#
#                 Cambridge Crystallographic Data Centre
#                                CCDC 
#
#######################################################################
#
# If this CIF has been generated from an entry in the Cambridge 
# Structural Database, then it will include bibliographic, chemical, 
# crystal, experimental, refinement or atomic coordinate data resulting 
# from the CCDC's data processing and validation procedures.
#
#######################################################################

data_ZAVPOD
_symmetry_cell_setting           monoclinic
_symmetry_space_group_name_H-M   'C 2/c'
_symmetry_Int_Tables_number      15
_space_group_name_Hall           '-C 2yn'
loop_
_symmetry_equiv_pos_site_id
_symmetry_equiv_pos_as_xyz
1 x,y,z
2 -x,y,1/2-z
3 1/2+x,1/2+y,z
4 1/2-x,1/2+y,1/2-z
5 -x,-y,-z
6 x,-y,1/2+z
7 1/2-x,1/2-y,-z
8 1/2+x,1/2-y,1/2+z
_cell_length_a                   23.7046(11)
_cell_length_b                   15.7987(7)
_cell_length_c                   16.2398(14)
_cell_angle_alpha                90
_cell_angle_beta                 124.2040(10)
_cell_angle_gamma                90
_cell_volume                     5029.93
loop_
_atom_site_label
_atom_site_type_symbol
_atom_site_fract_x
_atom_site_fract_y
_atom_site_fract_z
Pr1 Pr -0.189150(9) -0.170700(12) -0.378540(14)
C1 C 0.1278(2) -0.5369(2) 0.3225(3)
C2 C 0.1399(2) -0.4550(2) 0.3591(3)
H1 H 0.1766 -0.4438 0.4259
C3 C 0.0983(2) -0.3892(3) 0.2980(3)
C4 C 0.0441(2) -0.4053(3) 0.2001(3)
C5 C 0.0311(2) -0.4880(3) 0.1653(3)
H2 H -0.0067 -0.4998 0.0995
C6 C 0.0726(2) -0.5531(3) 0.2257(3)
H3 H 0.0634 -0.6095 0.2011
C7 C 0.0180(2) -0.3097(3) 0.0729(3)
C8 C 0.0837(2) -0.3130(3) 0.0958(3)
H4 H 0.1191 -0.3390 0.1557
C9 C 0.09766(19) -0.2779(2) 0.0306(3)
C10 C 0.04522(19) -0.2419(2) -0.0588(3)
H5 H 0.0543 -0.2198 -0.1047
C11 C -0.02072(19) -0.2387(2) -0.0805(3)
C12 C -0.03449(19) -0.2724(2) -0.0142(3)
H6 H -0.0792 -0.2697 -0.0285
C13 C 0.1758(2) -0.6076(3) 0.3868(3)
C14 C 0.17012(19) -0.2801(2) 0.0608(3)
C15 C -0.07806(19) -0.2013(2) -0.1767(3)
C16 C -0.0722(3) -0.0425(3) -0.3888(4)
H7 H -0.0345 -0.0769 -0.3427
C17 C 0.0105(3) 0.0591(3) -0.3699(4)
H8 H 0.0423 0.0140 -0.3284
H9 H 0.0163 0.0728 -0.4236
H10 H 0.0197 0.1096 -0.3290
C18 C -0.1146(3) 0.0886(3) -0.4792(4)
H11 H -0.1585 0.0619 -0.5026
H12 H -0.1101 0.1409 -0.4434
H13 H -0.1125 0.1019 -0.5364
N1 N 0.1145(2) -0.3041(2) 0.3404(3)
N2 N -0.2293(2) 0.0864(3) -0.2843(3)
N3 N -0.0593(2) 0.0308(3) -0.4125(4)
O1 O 0.16684(17) -0.67715(17) 0.3436(2)
O2 O 0.22042(14) -0.59058(18) 0.4760(2)
O3 O 0.1510(2) -0.2977(2) 0.4315(3)
O4 O 0.0918(3) -0.2431(2) 0.2854(3)
O5 O 0.21266(14) -0.3218(2) 0.1369(2)
O6 O 0.18734(14) -0.24056(18) 0.0105(2)
O7 O -0.06610(14) -0.17533(18) -0.2393(2)
O8 O -0.13661(13) -0.19825(19) -0.19352(19)
O9 O 0.00074(15) -0.3428(2) 0.1354(2)
O10 O -0.1868(2) -0.0334(2) -0.3032(3)
O11 O -0.12983(19) -0.0695(2) -0.4222(3)
C19 C -0.2103(6) 0.0399(8) -0.3307(10)
H14 H -0.2143 0.0625 -0.3880
C20 C -0.1999(6) 0.0697(8) -0.1753(9)
H15 H -0.1932 0.0087 -0.1623
H16 H -0.1561 0.0990 -0.1338
H17 H -0.2316 0.0907 -0.1593
C21 C -0.2453(8) 0.1817(9) -0.3239(11)
H18 H -0.2035 0.2086 -0.3100
H19 H -0.2799 0.1819 -0.3959
H20 H -0.2625 0.2132 -0.2903
Pr1B Pr 0.310850(9) -0.670700(12) 0.621460(14)
Pr1G Pr 0.310850(9) -0.329300(12) 0.121460(14)
Pr1A Pr 0.189150(9) -0.170700(12) -0.121460(14)
Pr1D Pr 0.189150(9) -0.829300(12) 0.378540(14)
O1D O -0.16684(17) -0.32285(17) -0.3436(2)
O2B O -0.27958(14) -0.09058(18) -0.5240(2)
O5G O -0.28734(14) -0.1782(2) -0.3631(2)
O6A O -0.18734(14) -0.24056(18) -0.5105(2)
O6G O -0.31266(14) -0.25944(18) -0.4895(2)
O12 O 0.2484(13) -1.3453(16) 0.3389(19)
C22? C 0.3007(11) -1.1257(13) 0.3327(15)
H21? H 0.3318 -1.0835 0.3349
H22? H 0.2979 -1.1746 0.2935
H23? H 0.3177 -1.1440 0.4006
C23? C 0.2711(12) -1.1604(13) 0.3136(16)
H24? H 0.3100 -1.1492 0.3092
H25? H 0.2443 -1.2075 0.2694
H26? H 0.2878 -1.1752 0.3823
C24? C 0.2333(7) -1.0144(8) 0.3318(10)
C25? C 0.1768(6) -1.0987(8) 0.1816(9)
H27? H 0.2244 -0.4992 0.6083
H28? H 0.1612 -1.0436 0.1484
H29? H 0.1385 -1.1288 0.1756
H30? H 0.1947 -1.1322 0.1503
loop_
_geom_bond_atom_site_label_1
_geom_bond_atom_site_label_2
_geom_bond_site_symmetry_1
_geom_bond_site_symmetry_2
Pr1 O7 1_555 1_555
C1 C2 1_555 1_555
C2 H1 1_555 1_555
C3 C2 1_555 1_555
C4 C3 1_555 1_555
C5 C4 1_555 1_555
H2 C5 1_555 1_555
C6 C1 1_555 1_555
H3 C6 1_555 1_555
C7 C8 1_555 1_555
C8 H4 1_555 1_555
C9 C8 1_555 1_555
C10 C9 1_555 1_555
H5 C10 1_555 1_555
C11 C10 1_555 1_555
C12 C7 1_555 1_555
H6 C12 1_555 1_555
C13 C1 1_555 1_555
C14 C9 1_555 1_555
C15 C11 1_555 1_555
C16 H7 1_555 1_555
C17 H8 1_555 1_555
H9 C17 1_555 1_555
H10 C17 1_555 1_555
C18 H11 1_555 1_555
H12 C18 1_555 1_555
H13 C18 1_555 1_555
N1 C3 1_555 1_555
N2 C19 1_555 1_555
N3 C16 1_555 1_555
O1 C13 1_555 1_555
O2 C13 1_555 1_555
O3 N1 1_555 1_555
O4 N1 1_555 1_555
O5 C14 1_555 1_555
O6 C14 1_555 1_555
O7 C15 1_555 1_555
O8 Pr1 1_555 1_555
O9 C4 1_555 1_555
O10 Pr1 1_555 1_555
O11 Pr1 1_555 1_555
C19 O10 1_555 1_555
H14 C19 1_555 1_555
C20 N2 1_555 1_555
H15 C20 1_555 1_555
H16 C20 1_555 1_555
H17 C20 1_555 1_555
C21 N2 1_555 1_555
H18 C21 1_555 1_555
H19 C21 1_555 1_555
H20 C21 1_555 1_555
Pr1B O2 1_555 1_555
Pr1G O5 1_555 1_555
Pr1A O6 1_555 1_555
Pr1D O1 1_555 1_555
O1D Pr1 1_555 1_555
O2B Pr1 1_555 1_555
O5G Pr1 1_555 1_555
O6A Pr1 1_555 1_555
O6G Pr1 1_555 1_555
C5 C6 1_555 1_555
C7 O9 1_555 1_555
C11 C12 1_555 1_555
C15 O8 1_555 1_555
C16 O11 1_555 1_555
C17 N3 1_555 1_555
C18 N3 1_555 1_555
O6 Pr1G 1_555 1_555

#END
