
#######################################################################
#
#                 Cambridge Crystallographic Data Centre
#                                CCDC 
#
#######################################################################
#
# If this CIF has been generated from an entry in the Cambridge 
# Structural Database, then it will include bibliographic, chemical, 
# crystal, experimental, refinement or atomic coordinate data resulting 
# from the CCDC's data processing and validation procedures.
#
#######################################################################

data_ZAVPUJ
_symmetry_cell_setting           monoclinic
_symmetry_space_group_name_H-M   'C 2/c'
_symmetry_Int_Tables_number      15
_space_group_name_Hall           '-C 2yn'
loop_
_symmetry_equiv_pos_site_id
_symmetry_equiv_pos_as_xyz
1 x,y,z
2 -x,y,1/2-z
3 1/2+x,1/2+y,z
4 1/2-x,1/2+y,1/2-z
5 -x,-y,-z
6 x,-y,1/2+z
7 1/2-x,1/2-y,-z
8 1/2+x,1/2-y,1/2+z
_cell_length_a                   23.6490(11)
_cell_length_b                   15.7654(8)
_cell_length_c                   16.2182(8)
_cell_angle_alpha                90
_cell_angle_beta                 124.2720(10)
_cell_angle_gamma                90
_cell_volume                     4996.86
loop_
_atom_site_label
_atom_site_type_symbol
_atom_site_fract_x
_atom_site_fract_y
_atom_site_fract_z
Nd1 Nd 0.689310(13) 0.328710(16) -0.121370(19)
C1 C 0.4021(2) 0.2226(3) -0.5303(4)
C2 C 0.4162(3) 0.1876(3) -0.5959(4)
H1 H 0.3807 0.1621 -0.6563
C3 C 0.4823(3) 0.1904(3) -0.5723(4)
C4 C 0.5343(3) 0.2278(3) -0.4854(4)
H2 H 0.5792 0.2306 -0.4710
C5 C 0.5207(2) 0.2615(3) -0.4186(4)
C6 C 0.4547(2) 0.2582(3) -0.4407(4)
H3 H 0.4456 0.2801 -0.3948
C7 C 0.4548(3) 0.0947(4) -0.7008(4)
C8 C 0.4014(3) 0.1110(3) -0.7988(4)
C9 C 0.3599(3) 0.0449(3) -0.8594(4)
H4 H 0.3230 0.0562 -0.9262
C10 C 0.3716(3) -0.0373(3) -0.8233(4)
C11 C 0.4272(3) -0.0528(4) -0.7263(4)
H5 H 0.4368 -0.1092 -0.7014
C12 C 0.4686(3) 0.0126(4) -0.6658(4)
H6 H 0.5066 0.0009 -0.5999
C13 C 0.3294(2) 0.2208(3) -0.5608(4)
C14 C 0.3244(3) -0.1078(3) -0.8869(4)
C15 C 0.5782(2) 0.2981(3) -0.3226(4)
C16 C 0.5733(4) 0.4572(4) -0.1111(6)
H7 H 0.5355 0.4230 -0.1581
C17 C 0.4901(3) 0.5590(4) -0.1289(6)
H8 H 0.4579 0.5145 -0.1719
H9 H 0.4842 0.5714 -0.0750
H10 H 0.4812 0.6104 -0.1684
C18 C 0.6155(3) 0.5882(4) -0.0191(6)
H11 H 0.6596 0.5619 0.0044
H12 H 0.6107 0.6409 -0.0547
H13 H 0.6132 0.6010 0.0381
N1 N 0.3846(3) 0.1962(3) -0.8418(4)
N2 N 0.7305(3) 0.5843(4) -0.2148(5)
N3 N 0.5604(3) 0.5302(4) -0.0863(5)
O1 O 0.31220(17) 0.2605(2) -0.5101(3)
O2 O 0.28684(18) 0.1790(2) -0.6370(3)
O3 O 0.4075(3) 0.2572(3) -0.7863(4)
O4 O 0.3483(3) 0.2027(3) -0.9328(4)
O5 O 0.27962(18) -0.0909(2) -0.9766(3)
O6 O 0.3332(2) -0.1776(2) -0.8439(3)
O7 O 0.63704(17) 0.3011(2) -0.3053(3)
O8 O 0.56653(17) 0.3240(2) -0.2593(3)
O9 O 0.49892(19) 0.1580(3) -0.6359(3)
O10 O 0.6872(3) 0.4650(3) -0.1964(4)
O11 O 0.6311(2) 0.4300(3) -0.0774(4)
C19 C 0.7346(9) 0.5123(9) -0.1686(13)
H14 H 0.7776 0.4973 -0.1102
C20 C 0.7532(7) 0.6745(7) -0.1797(9)
H15 H 0.7703 0.6790 -0.1090
H16 H 0.7897 0.6899 -0.1883
H17 H 0.7144 0.7130 -0.2190
C21 C 0.6977(8) 0.5696(9) -0.3274(11)
H18 H 0.6854 0.5097 -0.3434
H19 H 0.6565 0.6047 -0.3664
H20 H 0.7304 0.5853 -0.3437
Nd1A Nd 0.310690(13) 0.328710(16) -0.378630(19)
Nd1B Nd 0.189310(13) -0.171290(16) -1.121370(19)
Nd1D Nd 0.310690(13) -0.328710(16) -0.878630(19)
Nd1G Nd 0.189310(13) 0.171290(16) -0.621370(19)
O1A O 0.68780(17) 0.2605(2) 0.0101(3)
O1G O 0.81220(17) 0.2395(2) -0.0101(3)
O2G O 0.78684(18) 0.3210(2) -0.1370(3)
O5B O 0.77962(18) 0.4091(2) 0.0234(3)
O6D O 0.6668(2) 0.1776(2) -0.1561(3)
O12 O 0.2478(13) -0.341(2) -0.660(2)
C22? C 0.1782(8) -0.1022(9) -0.8104(11)
H21? H 0.1574 -0.0491 -0.8467
H22? H 0.1437 -0.1363 -0.8102
H23? H 0.1959 -0.1339 -0.8433
C23? C 0.2102(8) -0.0383(9) -0.6698(13)
C24? C 0.2967(9) -0.1284(11) -0.6723(14)
H24? H 0.2130 -0.0617 -0.6136
H25? H 0.3304 -0.0884 -0.6666
H26? H 0.2906 -0.1754 -0.7161
H27? H 0.3127 -0.1505 -0.6061
loop_
_geom_bond_atom_site_label_1
_geom_bond_atom_site_label_2
_geom_bond_site_symmetry_1
_geom_bond_site_symmetry_2
Nd1 O7 1_555 1_555
C1 C2 1_555 1_555
C2 H1 1_555 1_555
C3 C2 1_555 1_555
C4 C3 1_555 1_555
H2 C4 1_555 1_555
C5 C4 1_555 1_555
C6 C1 1_555 1_555
H3 C6 1_555 1_555
C7 C8 1_555 1_555
C8 C9 1_555 1_555
C9 H4 1_555 1_555
C10 C9 1_555 1_555
C11 C10 1_555 1_555
H5 C11 1_555 1_555
C12 C7 1_555 1_555
H6 C12 1_555 1_555
C13 C1 1_555 1_555
C14 C10 1_555 1_555
C15 C5 1_555 1_555
C16 H7 1_555 1_555
C17 H8 1_555 1_555
H9 C17 1_555 1_555
H10 C17 1_555 1_555
C18 H11 1_555 1_555
H12 C18 1_555 1_555
H13 C18 1_555 1_555
N1 C8 1_555 1_555
N2 C19 1_555 1_555
N3 C16 1_555 1_555
O1 C13 1_555 1_555
O2 C13 1_555 1_555
O3 N1 1_555 1_555
O4 N1 1_555 1_555
O5 C14 1_555 1_555
O6 C14 1_555 1_555
O7 C15 1_555 1_555
O8 Nd1 1_555 1_555
O9 C3 1_555 1_555
O10 Nd1 1_555 1_555
O11 Nd1 1_555 1_555
C19 O10 1_555 1_555
H14 C19 1_555 1_555
C20 N2 1_555 1_555
H15 C20 1_555 1_555
H16 C20 1_555 1_555
H17 C20 1_555 1_555
C21 N2 1_555 1_555
H18 C21 1_555 1_555
H19 C21 1_555 1_555
H20 C21 1_555 1_555
Nd1A O1 1_555 1_555
Nd1B O5 1_555 1_555
Nd1D O6 1_555 1_555
Nd1G O1 1_555 1_555
O1A Nd1 1_555 1_555
O1G Nd1 1_555 1_555
O2G Nd1 1_555 1_555
O5B Nd1 1_555 1_555
O6D Nd1 1_555 1_555
C5 C6 1_555 1_555
C7 O9 1_555 1_555
C11 C12 1_555 1_555
C15 O8 1_555 1_555
C16 O11 1_555 1_555
C17 N3 1_555 1_555
C18 N3 1_555 1_555
O2 Nd1G 1_555 1_555

#END
