
#######################################################################
#
#                 Cambridge Crystallographic Data Centre
#                                CCDC 
#
#######################################################################
#
# If this CIF has been generated from an entry in the Cambridge 
# Structural Database, then it will include bibliographic, chemical, 
# crystal, experimental, refinement or atomic coordinate data resulting 
# from the CCDC's data processing and validation procedures.
#
#######################################################################

data_ZAVQEU
_symmetry_cell_setting           monoclinic
_symmetry_space_group_name_H-M   'C 2/c'
_symmetry_Int_Tables_number      15
_space_group_name_Hall           '-C 2yn'
loop_
_symmetry_equiv_pos_site_id
_symmetry_equiv_pos_as_xyz
1 x,y,z
2 -x,y,1/2-z
3 1/2+x,1/2+y,z
4 1/2-x,1/2+y,1/2-z
5 -x,-y,-z
6 x,-y,1/2+z
7 1/2-x,1/2-y,-z
8 1/2+x,1/2-y,1/2+z
_cell_length_a                   23.5849(11)
_cell_length_b                   15.7031(7)
_cell_length_c                   16.1371(7)
_cell_angle_alpha                90
_cell_angle_beta                 124.2740(10)
_cell_angle_gamma                90
_cell_volume                     4938.68
loop_
_atom_site_label
_atom_site_type_symbol
_atom_site_fract_x
_atom_site_fract_y
_atom_site_fract_z
Eu1 Eu -0.189610(11) 0.327980(14) -0.378100(16)
C1 C 0.1301(2) -0.0381(3) 0.3249(3)
C2 C 0.1418(3) 0.0444(3) 0.3614(4)
H1 H 0.1787 0.0556 0.4286
C3 C 0.1002(3) 0.1108(3) 0.3008(4)
C4 C 0.0460(3) 0.0948(3) 0.2019(4)
C5 C 0.0329(3) 0.0124(4) 0.1668(4)
H2 H -0.0051 0.0009 0.1004
C6 C 0.0741(3) -0.0534(4) 0.2266(4)
H3 H 0.0646 -0.1098 0.2009
C7 C 0.0188(3) 0.1911(3) 0.0737(4)
C8 C -0.0341(2) 0.2279(3) -0.0139(4)
H4 H -0.0790 0.2302 -0.0280
C9 C -0.0212(2) 0.2616(3) -0.0816(3)
C10 C 0.0448(2) 0.2587(3) -0.0606(3)
H5 H 0.0535 0.2803 -0.1074
C11 C 0.0977(2) 0.2237(3) 0.0297(4)
C12 C 0.0845(3) 0.1888(3) 0.0959(4)
H6 H 0.1206 0.1633 0.1565
C13 C 0.1773(2) -0.1092(3) 0.3885(4)
C14 C -0.0797(2) 0.2974(3) -0.1793(3)
C15 C 0.1707(2) 0.2230(3) 0.0592(3)
C16 C -0.2254(4) 0.5191(5) -0.3299(6)
H7 H -0.2585 0.5197 -0.4004
C17 C -0.2941(9) 0.6315(10) -0.3263(11)
H8 H -0.3304 0.5946 -0.3341
H9 H -0.2860 0.6786 -0.2811
H10 H -0.3083 0.6542 -0.3919
C18 C -0.1843(4) 0.5840(5) -0.1772(5)
H11 H -0.1690 0.5260 -0.1518
H12 H -0.1444 0.6192 -0.1585
H13 H -0.2076 0.6082 -0.1480
C19 C -0.0745(4) 0.4563(4) -0.3880(5)
H14 H -0.0369 0.4212 -0.3418
C20 C 0.0093(3) 0.5564(4) -0.3696(5)
H15 H 0.0408 0.5106 -0.3277
H16 H 0.0154 0.5695 -0.4236
H17 H 0.0192 0.6074 -0.3285
C21 C -0.1164(3) 0.5876(4) -0.4809(5)
H18 H -0.1608 0.5607 -0.5059
H19 H -0.1122 0.6400 -0.4449
H20 H -0.1132 0.6011 -0.5374
N1 N 0.1166(3) 0.1961(3) 0.3438(4)
N2 N -0.2306(3) 0.5818(4) -0.2841(4)
N3 N -0.0613(3) 0.5293(4) -0.4130(4)
O1 O 0.1692(2) -0.1783(2) 0.3446(3)
O2 O 0.22140(17) -0.0932(2) 0.4795(2)
O3 O 0.1522(3) 0.2022(3) 0.4352(4)
O4 O 0.0940(3) 0.2571(3) 0.2878(4)
O5 O 0.21398(17) 0.1823(2) 0.1357(3)
O6 O 0.18614(17) 0.2619(2) 0.0062(3)
O7 O -0.06833(17) 0.3224(2) -0.2433(2)
O8 O -0.13821(16) 0.3002(2) -0.1957(2)
O9 O 0.00255(19) 0.1583(3) 0.1378(3)
O10 O -0.1879(3) 0.4610(3) -0.3020(4)
O11 O -0.1331(2) 0.4304(3) -0.4210(3)
Eu1B Eu 0.310390(11) -0.172020(14) 0.621900(16)
Eu1G Eu 0.310390(11) 0.172020(14) 0.121900(16)
Eu1A Eu 0.189610(11) 0.327980(14) -0.121900(16)
Eu1D Eu 0.189610(11) -0.327980(14) 0.378100(16)
O1D O -0.1692(2) 0.1783(2) -0.3446(3)
O2B O -0.27860(17) 0.4068(2) -0.5205(2)
O5G O -0.28602(17) 0.3177(2) -0.3643(3)
O6A O -0.18614(17) 0.2619(2) -0.5062(3)
O6G O -0.31386(17) 0.2381(2) -0.4938(3)
O12 O 0.2456(11) -0.8400(16) 0.3372(17)
C22? C 0.2509(9) -0.6749(9) 0.3201(12)
H21? H 0.2108 -0.7056 0.3085
H22? H 0.2875 -0.6755 0.3918
H23? H 0.2671 -0.7026 0.2827
loop_
_geom_bond_atom_site_label_1
_geom_bond_atom_site_label_2
_geom_bond_site_symmetry_1
_geom_bond_site_symmetry_2
Eu1 O7 1_555 1_555
C1 C2 1_555 1_555
C2 H1 1_555 1_555
C3 C2 1_555 1_555
C4 C3 1_555 1_555
C5 C4 1_555 1_555
H2 C5 1_555 1_555
C6 C1 1_555 1_555
H3 C6 1_555 1_555
C7 C8 1_555 1_555
C8 H4 1_555 1_555
C9 C8 1_555 1_555
C10 C9 1_555 1_555
H5 C10 1_555 1_555
C11 C10 1_555 1_555
C12 C7 1_555 1_555
H6 C12 1_555 1_555
C13 C1 1_555 1_555
C14 C9 1_555 1_555
C15 C11 1_555 1_555
C16 H7 1_555 1_555
C17 H8 1_555 1_555
H9 C17 1_555 1_555
H10 C17 1_555 1_555
C18 H11 1_555 1_555
H12 C18 1_555 1_555
H13 C18 1_555 1_555
C19 H14 1_555 1_555
C20 H15 1_555 1_555
H16 C20 1_555 1_555
H17 C20 1_555 1_555
C21 H18 1_555 1_555
H19 C21 1_555 1_555
H20 C21 1_555 1_555
N1 C3 1_555 1_555
N2 C16 1_555 1_555
N3 C19 1_555 1_555
O1 C13 1_555 1_555
O2 C13 1_555 1_555
O3 N1 1_555 1_555
O4 N1 1_555 1_555
O5 C15 1_555 1_555
O6 C15 1_555 1_555
O7 C14 1_555 1_555
O8 Eu1 1_555 1_555
O9 C4 1_555 1_555
O10 Eu1 1_555 1_555
O11 Eu1 1_555 1_555
Eu1B O2 1_555 1_555
Eu1G O5 1_555 1_555
Eu1A O6 1_555 1_555
Eu1D O1 1_555 1_555
O1D Eu1 1_555 1_555
O2B Eu1 1_555 1_555
O5G Eu1 1_555 1_555
O6A Eu1 1_555 1_555
O6G Eu1 1_555 1_555
C5 C6 1_555 1_555
C7 O9 1_555 1_555
C11 C12 1_555 1_555
C14 O8 1_555 1_555
C16 O10 1_555 1_555
C17 N2 1_555 1_555
C18 N2 1_555 1_555
C19 O11 1_555 1_555
C20 N3 1_555 1_555
C21 N3 1_555 1_555
O6 Eu1G 1_555 1_555

#END
