
#######################################################################
#
#                 Cambridge Crystallographic Data Centre
#                                CCDC 
#
#######################################################################
#
# If this CIF has been generated from an entry in the Cambridge 
# Structural Database, then it will include bibliographic, chemical, 
# crystal, experimental, refinement or atomic coordinate data resulting 
# from the CCDC's data processing and validation procedures.
#
#######################################################################

data_ZAVQOE
_symmetry_cell_setting           monoclinic
_symmetry_space_group_name_H-M   'C 2/c'
_symmetry_Int_Tables_number      15
_space_group_name_Hall           '-C 2yn'
loop_
_symmetry_equiv_pos_site_id
_symmetry_equiv_pos_as_xyz
1 x,y,z
2 -x,y,1/2-z
3 1/2+x,1/2+y,z
4 1/2-x,1/2+y,1/2-z
5 -x,-y,-z
6 x,-y,1/2+z
7 1/2-x,1/2-y,-z
8 1/2+x,1/2-y,1/2+z
_cell_length_a                   23.5862(9)
_cell_length_b                   15.7079(6)
_cell_length_c                   16.0933(12)
_cell_angle_alpha                90
_cell_angle_beta                 124.16
_cell_angle_gamma                90
_cell_volume                     4933.72
loop_
_atom_site_label
_atom_site_type_symbol
_atom_site_fract_x
_atom_site_fract_y
_atom_site_fract_z
Tb1 Tb -0.310550(10) -0.172390(12) -0.123130(14)
C1 C -0.6317(2) -0.5388(3) -0.8263(3)
C2 C -0.6432(2) -0.4566(3) -0.8634(4)
H1 H -0.6797 -0.4454 -0.9310
C3 C -0.6017(2) -0.3903(3) -0.8021(4)
C4 C -0.5473(2) -0.4062(3) -0.7031(4)
C5 C -0.5346(3) -0.4891(4) -0.6679(4)
H2 H -0.4968 -0.5008 -0.6014
C6 C -0.5762(3) -0.5549(3) -0.7282(4)
H3 H -0.5670 -0.6114 -0.7029
C7 C -0.5195(2) -0.3088(3) -0.5748(4)
C8 C -0.5851(2) -0.3103(3) -0.5964(3)
H4 H -0.6215 -0.3352 -0.6570
C9 C -0.5973(2) -0.2753(3) -0.5289(3)
C10 C -0.5439(2) -0.2411(3) -0.4386(3)
H5 H -0.5521 -0.2193 -0.3912
C11 C -0.4782(2) -0.2391(3) -0.4185(3)
C12 C -0.4659(2) -0.2725(3) -0.4872(3)
H6 H -0.4213 -0.2705 -0.4739
C13 C -0.6796(2) -0.6103(3) -0.8903(3)
C14 C -0.6698(2) -0.2753(3) -0.5566(3)
C15 C -0.4193(2) -0.2039(3) -0.3204(3)
C16 C -0.4244(3) -0.0436(4) -0.1135(5)
H7 H -0.4616 -0.0794 -0.1595
C17 C -0.5095(3) 0.0532(4) -0.1300(5)
H8 H -0.5404 0.0077 -0.1737
H9 H -0.5155 0.0630 -0.0753
H10 H -0.5201 0.1056 -0.1692
C18 C -0.3842(3) 0.0875(4) -0.0204(5)
H11 H -0.3397 0.0628 0.0015
H12 H -0.3904 0.1413 -0.0554
H13 H -0.3859 0.0980 0.0382
C19 C -0.2723(4) 0.0153(4) -0.1707(5)
H14 H -0.2366 0.0136 -0.1012
C20 C -0.3165(4) 0.0829(5) -0.3244(5)
H15 H -0.3313 0.0250 -0.3504
H16 H -0.3566 0.1173 -0.3425
H17 H -0.2936 0.1083 -0.3537
C21 C -0.2049(7) 0.1303(9) -0.1721(9)
H18 H -0.1688 0.0937 -0.1650
H19 H -0.2123 0.1787 -0.2155
H20 H -0.1910 0.1512 -0.1058
N1 N -0.6174(3) -0.3053(3) -0.8455(4)
N2 N -0.4388(3) 0.0285(3) -0.0883(4)
N3 N -0.2703(3) 0.0801(4) -0.2180(4)
O1 O -0.67207(18) -0.6789(2) -0.8455(3)
O2 O -0.72256(16) -0.5947(2) -0.9817(2)
O3 O -0.6525(2) -0.2987(3) -0.9368(3)
O4 O -0.5953(3) -0.2438(3) -0.7890(4)
O5 O -0.71432(16) -0.3144(2) -0.6341(2)
O6 O -0.68370(16) -0.2362(2) -0.5018(2)
O7 O -0.43033(16) -0.1798(2) -0.2555(2)
O8 O -0.36104(15) -0.2008(2) -0.3044(2)
O9 O -0.50343(18) -0.3426(2) -0.6391(3)
O10 O -0.3661(2) -0.0681(3) -0.0815(3)
O11 O -0.3109(3) -0.0422(3) -0.1991(3)
Tb1B Tb -0.810550(10) -0.672390(12) -1.123130(14)
Tb1G Tb -0.810550(10) -0.327610(12) -0.623130(14)
Tb1A Tb -0.689450(10) -0.172390(12) -0.376870(14)
Tb1D Tb -0.689450(10) -0.827610(12) -0.876870(14)
O1D O -0.32793(18) -0.3211(2) -0.1545(3)
O2B O -0.22256(16) -0.0947(2) 0.0183(2)
O5G O -0.21432(16) -0.1856(2) -0.1341(2)
O6A O -0.31630(16) -0.2362(2) 0.0018(2)
O6G O -0.18370(16) -0.2638(2) -0.0018(2)
O12 O -0.7449(9) -1.3401(15) -0.8350(14)
C22? C -0.7512(10) -1.1722(10) -0.8183(12)
H21? H -0.7119 -1.2037 -0.8083
H22? H -0.7884 -1.1722 -0.8898
H23? H -0.7670 -1.1995 -0.7800
loop_
_geom_bond_atom_site_label_1
_geom_bond_atom_site_label_2
_geom_bond_site_symmetry_1
_geom_bond_site_symmetry_2
Tb1 O7 1_555 1_555
C1 C2 1_555 1_555
C2 H1 1_555 1_555
C3 C2 1_555 1_555
C4 C3 1_555 1_555
C5 C4 1_555 1_555
H2 C5 1_555 1_555
C6 C1 1_555 1_555
H3 C6 1_555 1_555
C7 C8 1_555 1_555
C8 H4 1_555 1_555
C9 C8 1_555 1_555
C10 C9 1_555 1_555
H5 C10 1_555 1_555
C11 C10 1_555 1_555
C12 C7 1_555 1_555
H6 C12 1_555 1_555
C13 C1 1_555 1_555
C14 C9 1_555 1_555
C15 C11 1_555 1_555
C16 H7 1_555 1_555
C17 H8 1_555 1_555
H9 C17 1_555 1_555
H10 C17 1_555 1_555
C18 H11 1_555 1_555
H12 C18 1_555 1_555
H13 C18 1_555 1_555
C19 H14 1_555 1_555
C20 H15 1_555 1_555
H16 C20 1_555 1_555
H17 C20 1_555 1_555
C21 H18 1_555 1_555
H19 C21 1_555 1_555
H20 C21 1_555 1_555
N1 C3 1_555 1_555
N2 C16 1_555 1_555
N3 C19 1_555 1_555
O1 C13 1_555 1_555
O2 C13 1_555 1_555
O3 N1 1_555 1_555
O4 N1 1_555 1_555
O5 C14 1_555 1_555
O6 C14 1_555 1_555
O7 C15 1_555 1_555
O8 Tb1 1_555 1_555
O9 C4 1_555 1_555
O10 Tb1 1_555 1_555
O11 Tb1 1_555 1_555
Tb1B O2 1_555 1_555
Tb1G O5 1_555 1_555
Tb1A O6 1_555 1_555
Tb1D O1 1_555 1_555
O1D Tb1 1_555 1_555
O2B Tb1 1_555 1_555
O5G Tb1 1_555 1_555
O6A Tb1 1_555 1_555
O6G Tb1 1_555 1_555
C5 C6 1_555 1_555
C7 O9 1_555 1_555
C11 C12 1_555 1_555
C15 O8 1_555 1_555
C16 O10 1_555 1_555
C17 N2 1_555 1_555
C18 N2 1_555 1_555
C19 O11 1_555 1_555
C20 N3 1_555 1_555
C21 N3 1_555 1_555
O6 Tb1G 1_555 1_555

#END
