
#######################################################################
#
#                 Cambridge Crystallographic Data Centre
#                                CCDC 
#
#######################################################################
#
# If this CIF has been generated from an entry in the Cambridge 
# Structural Database, then it will include bibliographic, chemical, 
# crystal, experimental, refinement or atomic coordinate data resulting 
# from the CCDC's data processing and validation procedures.
#
#######################################################################

data_ZAVQAQ
_symmetry_cell_setting           monoclinic
_symmetry_space_group_name_H-M   'C 2/c'
_symmetry_Int_Tables_number      15
_space_group_name_Hall           '-C 2yn'
loop_
_symmetry_equiv_pos_site_id
_symmetry_equiv_pos_as_xyz
1 x,y,z
2 -x,y,1/2-z
3 1/2+x,1/2+y,z
4 1/2-x,1/2+y,1/2-z
5 -x,-y,-z
6 x,-y,1/2+z
7 1/2-x,1/2-y,-z
8 1/2+x,1/2-y,1/2+z
_cell_length_a                   23.6108(10)
_cell_length_b                   15.7288(7)
_cell_length_c                   16.1612(13)
_cell_angle_alpha                90
_cell_angle_beta                 124.2910(10)
_cell_angle_gamma                90
_cell_volume                     4958.59
loop_
_atom_site_label
_atom_site_type_symbol
_atom_site_fract_x
_atom_site_fract_y
_atom_site_fract_z
Sm1 Sm -0.189540(11) -0.171860(14) 0.121690(17)
C1 C 0.0983(2) -0.2766(3) 0.5303(4)
C2 C 0.0844(2) -0.3116(3) 0.5964(4)
H1 H 0.1201 -0.3374 0.6569
C3 C 0.0187(2) -0.3088(3) 0.5735(4)
C4 C -0.0343(2) -0.2723(3) 0.4857(4)
H2 H -0.0792 -0.2703 0.4713
C5 C -0.0210(2) -0.2384(3) 0.4182(3)
C6 C 0.0449(2) -0.2419(3) 0.4395(4)
H3 H 0.0535 -0.2208 0.3926
C7 C 0.0456(2) -0.4048(3) 0.7018(4)
C8 C 0.0999(3) -0.3898(3) 0.8001(4)
C9 C 0.1409(3) -0.4554(3) 0.8604(4)
H4 H 0.1775 -0.4442 0.9278
C10 C 0.1293(2) -0.5373(3) 0.8239(4)
C11 C 0.0739(3) -0.5532(3) 0.7267(4)
H5 H 0.0646 -0.6096 0.7015
C12 C 0.0320(3) -0.4873(4) 0.6662(4)
H6 H -0.0061 -0.4989 0.6000
C13 C 0.1705(2) -0.2777(3) 0.5590(4)
C14 C 0.1771(2) -0.6091(3) 0.8877(4)
C15 C -0.0792(2) -0.2023(3) 0.3210(4)
C16 C -0.0742(3) -0.0434(4) 0.1116(5)
H7 H -0.0366 -0.0785 0.1579
C17 C -0.1164(3) 0.0876(4) 0.0186(5)
H8 H -0.1606 0.0607 -0.0054
H9 H -0.1121 0.1404 0.0540
H10 H -0.1138 0.1004 -0.0385
C18 C 0.0093(3) 0.0566(4) 0.1296(5)
H11 H 0.0409 0.0112 0.1720
H12 H 0.0153 0.0691 0.0756
H13 H 0.0191 0.1078 0.1702
N1 N 0.1161(3) -0.3041(3) 0.8433(4)
N2 N -0.2305(3) 0.0824(3) 0.2162(4)
N3 N -0.0607(3) 0.0297(3) 0.0871(4)
O1 O 0.18694(16) -0.2385(2) 0.5078(3)
O2 O 0.21358(17) -0.3184(2) 0.6364(3)
O3 O 0.0937(3) -0.2428(3) 0.7876(4)
O4 O 0.1524(2) -0.2978(3) 0.9344(4)
O5 O 0.22096(16) -0.5923(2) 0.9789(2)
O6 O 0.16829(19) -0.6779(2) 0.8442(3)
O7 O -0.13785(16) -0.1995(2) 0.3046(3)
O8 O -0.06765(16) -0.1773(2) 0.2575(2)
O9 O 0.00225(18) -0.3416(2) 0.6369(3)
O10 O -0.1879(2) -0.0379(3) 0.1972(3)
O11 O -0.1325(2) -0.0695(3) 0.0785(4)
C19 C -0.2132(7) 0.0337(9) 0.1697(12)
H14 H -0.2206 0.0548 0.1093
C20 C -0.1769(6) 0.0952(7) 0.3180(8)
H15 H -0.1619 0.0402 0.3524
H16 H -0.1383 0.1233 0.3223
H17 H -0.1934 0.1310 0.3500
C22 C -0.3028(12) 0.1206(15) 0.1670(19)
H21 H -0.3338 0.0774 0.1639
H22 H -0.3008 0.1691 0.2066
H23 H -0.3198 0.1396 0.0990
Sm1A Sm 0.189540(11) -0.171860(14) 0.378310(17)
Sm1B Sm 0.310460(11) -0.671860(14) 1.121690(17)
Sm1D Sm 0.189540(11) -0.828140(14) 0.878310(17)
Sm1G Sm 0.310460(11) -0.328140(14) 0.621690(17)
O1A O -0.18694(16) -0.2385(2) -0.0078(3)
O1G O -0.31306(16) -0.2615(2) 0.0078(3)
O2G O -0.28642(17) -0.1816(2) 0.1364(3)
O5B O -0.27904(16) -0.0923(2) -0.0211(2)
O6D O -0.16829(19) -0.3221(2) 0.1558(3)
O12 O 0.2529(10) -0.8406(16) 0.6599(17)
C21? C 0.2936(9) -0.5663(11) 0.8217(13)
H18? H 0.3001 -0.5051 0.8351
H19? H 0.3372 -0.5958 0.8666
H20? H 0.2594 -0.5874 0.8330
C23? C 0.2541(10) -0.6784(10) 0.6774(13)
H24? H 0.2956 -0.7039 0.6884
H25? H 0.2174 -0.6794 0.6058
H26? H 0.2396 -0.7108 0.7144
C24? C 0.2215(13) -0.6515(15) 0.6836(19)
H27? H 0.1817 -0.6331 0.6831
H28? H 0.2436 -0.6996 0.7295
H29? H 0.2066 -0.6688 0.6159
C25? C 0.2358(8) 0.0082(9) 0.3298(12)
H30? H 0.2205 -0.4917 0.6139
loop_
_geom_bond_atom_site_label_1
_geom_bond_atom_site_label_2
_geom_bond_site_symmetry_1
_geom_bond_site_symmetry_2
Sm1 O7 1_555 1_555
C1 C2 1_555 1_555
C2 H1 1_555 1_555
C3 C2 1_555 1_555
C4 C3 1_555 1_555
H2 C4 1_555 1_555
C5 C4 1_555 1_555
C6 C1 1_555 1_555
H3 C6 1_555 1_555
C7 C8 1_555 1_555
C8 C9 1_555 1_555
C9 H4 1_555 1_555
C10 C9 1_555 1_555
C11 C10 1_555 1_555
H5 C11 1_555 1_555
C12 C7 1_555 1_555
H6 C12 1_555 1_555
C13 C1 1_555 1_555
C14 C10 1_555 1_555
C15 C5 1_555 1_555
C16 H7 1_555 1_555
C17 H8 1_555 1_555
H9 C17 1_555 1_555
H10 C17 1_555 1_555
C18 H11 1_555 1_555
H12 C18 1_555 1_555
H13 C18 1_555 1_555
N1 C8 1_555 1_555
N2 C19 1_555 1_555
N3 C16 1_555 1_555
O1 C13 1_555 1_555
O2 C13 1_555 1_555
O3 N1 1_555 1_555
O4 N1 1_555 1_555
O5 C14 1_555 1_555
O6 C14 1_555 1_555
O7 C15 1_555 1_555
O8 Sm1 1_555 1_555
O9 C3 1_555 1_555
O10 Sm1 1_555 1_555
O11 Sm1 1_555 1_555
C19 O10 1_555 1_555
H14 C19 1_555 1_555
C20 N2 1_555 1_555
H15 C20 1_555 1_555
H16 C20 1_555 1_555
H17 C20 1_555 1_555
C22 N2 1_555 1_555
H21 C22 1_555 1_555
H22 C22 1_555 1_555
H23 C22 1_555 1_555
Sm1A O1 1_555 1_555
Sm1B O5 1_555 1_555
Sm1D O6 1_555 1_555
Sm1G O1 1_555 1_555
O1A Sm1 1_555 1_555
O1G Sm1 1_555 1_555
O2G Sm1 1_555 1_555
O5B Sm1 1_555 1_555
O6D Sm1 1_555 1_555
C5 C6 1_555 1_555
C7 O9 1_555 1_555
C11 C12 1_555 1_555
C15 O8 1_555 1_555
C16 O11 1_555 1_555
C17 N3 1_555 1_555
C18 N3 1_555 1_555
O2 Sm1G 1_555 1_555

#END
