
#######################################################################
#
#                 Cambridge Crystallographic Data Centre
#                                CCDC 
#
#######################################################################
#
# If this CIF has been generated from an entry in the Cambridge 
# Structural Database, then it will include bibliographic, chemical, 
# crystal, experimental, refinement or atomic coordinate data resulting 
# from the CCDC's data processing and validation procedures.
#
#######################################################################

data_ZAVRIZ
_symmetry_cell_setting           monoclinic
_symmetry_space_group_name_H-M   'C 2/c'
_symmetry_Int_Tables_number      15
_space_group_name_Hall           '-C 2yn'
loop_
_symmetry_equiv_pos_site_id
_symmetry_equiv_pos_as_xyz
1 x,y,z
2 -x,y,1/2-z
3 1/2+x,1/2+y,z
4 1/2-x,1/2+y,1/2-z
5 -x,-y,-z
6 x,-y,1/2+z
7 1/2-x,1/2-y,-z
8 1/2+x,1/2-y,1/2+z
_cell_length_a                   23.560(4)
_cell_length_b                   15.660(3)
_cell_length_c                   15.991(5)
_cell_angle_alpha                90
_cell_angle_beta                 123.957(2)
_cell_angle_gamma                90
_cell_volume                     4893.69
loop_
_atom_site_label
_atom_site_type_symbol
_atom_site_fract_x
_atom_site_fract_y
_atom_site_fract_z
Tm1 Tm -0.189230(13) -0.171910(17) -0.374200(19)
C1 C 0.1348(3) -0.5414(4) 0.3289(5)
C2 C 0.1459(4) -0.4591(4) 0.3651(5)
H1 H 0.1825 -0.4473 0.4326
C3 C 0.1038(3) -0.3936(4) 0.3035(5)
C4 C 0.0499(3) -0.4091(5) 0.2050(5)
C5 C 0.0374(4) -0.4924(5) 0.1699(5)
H2 H -0.0008 -0.5044 0.1037
C6 C 0.0794(4) -0.5580(5) 0.2297(5)
H3 H 0.0710 -0.6146 0.2040
C7 C 0.0200(3) -0.3106(4) 0.0755(5)
C8 C 0.0853(3) -0.3103(4) 0.0956(5)
H4 H 0.1222 -0.3352 0.1560
C9 C 0.0965(3) -0.2735(4) 0.0272(5)
C10 C 0.0413(3) -0.2404(4) -0.0634(5)
H5 H 0.0482 -0.2182 -0.1124
C11 C -0.0233(3) -0.2402(4) -0.0814(5)
C12 C -0.0345(3) -0.2754(4) -0.0116(5)
H6 H -0.0789 -0.2751 -0.0241
C13 C 0.1820(3) -0.6133(4) 0.3922(5)
C14 C 0.1675(3) -0.2703(4) 0.0514(5)
C15 C -0.0826(3) -0.2054(4) -0.1798(5)
C16 C -0.2314(5) 0.0100(6) -0.3277(7)
H7 H -0.2688 0.0064 -0.3962
C17 C -0.2974(11) 0.1253(13) -0.3277(14)
H8 H -0.3329 0.0862 -0.3368
H9 H -0.2922 0.1725 -0.2835
H10 H -0.3107 0.1481 -0.3933
C18 C -0.1820(5) 0.0829(6) -0.1746(6)
H11 H -0.1417 0.0487 -0.1557
H12 H -0.1683 0.1426 -0.1552
H13 H -0.2025 0.0610 -0.1399
C19 C -0.0779(5) -0.0420(6) -0.3840(7)
H14 H -0.0414 -0.0795 -0.3401
C20 C -0.1158(5) 0.0901(6) -0.4767(7)
H15 H -0.1605 0.0671 -0.4972
H16 H -0.1077 0.1440 -0.4407
H17 H -0.1152 0.1001 -0.5367
C21 C 0.0077(4) 0.0504(6) -0.3713(7)
H18 H 0.0376 0.0037 -0.3286
H19 H 0.0131 0.0593 -0.4272
H20 H 0.0203 0.1028 -0.3311
N1 N 0.1190(3) -0.3080(4) 0.3469(5)
N2 N -0.2305(4) 0.0780(5) -0.2805(6)
N3 N -0.0625(4) 0.0292(5) -0.4108(6)
O1 O 0.1758(2) -0.6816(3) 0.3472(3)
O2 O 0.2241(2) -0.5986(3) 0.4851(3)
O3 O 0.1536(3) -0.3013(4) 0.4394(5)
O4 O 0.0970(4) -0.2465(4) 0.2907(5)
O5 O 0.2148(2) -0.3076(3) 0.1295(3)
O6 O 0.1776(2) -0.2303(3) -0.0077(3)
O7 O -0.0725(2) -0.1812(3) -0.2459(3)
O8 O -0.1406(2) -0.2030(3) -0.1947(3)
O9 O 0.0052(2) -0.3462(3) 0.1411(4)
O10 O -0.1927(3) -0.0479(4) -0.2986(4)
O11 O -0.1362(3) -0.0632(4) -0.4119(5)
Tm1B Tm 0.310770(13) -0.671910(17) 0.625800(19)
Tm1G Tm 0.310770(13) -0.328090(17) 0.125800(19)
Tm1A Tm 0.189230(13) -0.171910(17) -0.125800(19)
Tm1D Tm 0.189230(13) -0.828090(17) 0.374200(19)
O1D O -0.1758(2) -0.3184(3) -0.3472(3)
O2B O -0.2759(2) -0.0986(3) -0.5149(3)
O5G O -0.2852(2) -0.1924(3) -0.3705(3)
O6A O -0.1776(2) -0.2303(3) -0.4923(3)
O12 O 0.2457(10) -0.3435(15) 0.3339(16)
C22? C 0.2531(11) -1.1675(12) 0.3149(14)
H21? H 0.2142 -1.2014 0.3026
H22? H 0.2892 -1.1677 0.3872
H23? H 0.2709 -1.1923 0.2776
loop_
_geom_bond_atom_site_label_1
_geom_bond_atom_site_label_2
_geom_bond_site_symmetry_1
_geom_bond_site_symmetry_2
Tm1 O7 1_555 1_555
C1 C2 1_555 1_555
C2 H1 1_555 1_555
C3 C2 1_555 1_555
C4 C3 1_555 1_555
C5 C4 1_555 1_555
H2 C5 1_555 1_555
C6 C1 1_555 1_555
H3 C6 1_555 1_555
C7 C8 1_555 1_555
C8 H4 1_555 1_555
C9 C8 1_555 1_555
C10 C9 1_555 1_555
H5 C10 1_555 1_555
C11 C10 1_555 1_555
C12 C7 1_555 1_555
H6 C12 1_555 1_555
C13 C1 1_555 1_555
C14 C9 1_555 1_555
C15 C11 1_555 1_555
C16 H7 1_555 1_555
C17 H8 1_555 1_555
H9 C17 1_555 1_555
H10 C17 1_555 1_555
C18 H11 1_555 1_555
H12 C18 1_555 1_555
H13 C18 1_555 1_555
C19 H14 1_555 1_555
C20 H15 1_555 1_555
H16 C20 1_555 1_555
H17 C20 1_555 1_555
C21 H18 1_555 1_555
H19 C21 1_555 1_555
H20 C21 1_555 1_555
N1 C3 1_555 1_555
N2 C16 1_555 1_555
N3 C19 1_555 1_555
O1 C13 1_555 1_555
O2 C13 1_555 1_555
O3 N1 1_555 1_555
O4 N1 1_555 1_555
O5 C14 1_555 1_555
O6 C14 1_555 1_555
O7 C15 1_555 1_555
O8 Tm1 1_555 1_555
O9 C4 1_555 1_555
O10 Tm1 1_555 1_555
O11 Tm1 1_555 1_555
Tm1B O2 1_555 1_555
Tm1G O5 1_555 1_555
Tm1A O6 1_555 1_555
Tm1D O1 1_555 1_555
O1D Tm1 1_555 1_555
O2B Tm1 1_555 1_555
O5G Tm1 1_555 1_555
O6A Tm1 1_555 1_555
C5 C6 1_555 1_555
C7 O9 1_555 1_555
C11 C12 1_555 1_555
C15 O8 1_555 1_555
C16 O10 1_555 1_555
C17 N2 1_555 1_555
C18 N2 1_555 1_555
C19 O11 1_555 1_555
C20 N3 1_555 1_555
C21 N3 1_555 1_555

#END
