
#######################################################################
#
#                 Cambridge Crystallographic Data Centre
#                                CCDC 
#
#######################################################################
#
# If this CIF has been generated from an entry in the Cambridge 
# Structural Database, then it will include bibliographic, chemical, 
# crystal, experimental, refinement or atomic coordinate data resulting 
# from the CCDC's data processing and validation procedures.
#
#######################################################################

data_ZAVRAR
_symmetry_cell_setting           monoclinic
_symmetry_space_group_name_H-M   'C 2/c'
_symmetry_Int_Tables_number      15
_space_group_name_Hall           '-C 2yn'
loop_
_symmetry_equiv_pos_site_id
_symmetry_equiv_pos_as_xyz
1 x,y,z
2 -x,y,1/2-z
3 1/2+x,1/2+y,z
4 1/2-x,1/2+y,1/2-z
5 -x,-y,-z
6 x,-y,1/2+z
7 1/2-x,1/2-y,-z
8 1/2+x,1/2-y,1/2+z
_cell_length_a                   23.5634(10)
_cell_length_b                   15.6940(7)
_cell_length_c                   16.0403(7)
_cell_angle_alpha                90
_cell_angle_beta                 124.0830(10)
_cell_angle_gamma                90
_cell_volume                     4912.85
loop_
_atom_site_label
_atom_site_type_symbol
_atom_site_fract_x
_atom_site_fract_y
_atom_site_fract_z
Ho1 Ho -0.189190(10) 0.327680(13) -0.375650(15)
C1 C 0.1330(3) -0.0397(3) 0.3273(4)
C2 C 0.1445(3) 0.0423(3) 0.3646(4)
H1 H 0.1810 0.0534 0.4323
C3 C 0.1028(3) 0.1085(3) 0.3035(4)
C4 C 0.0485(3) 0.0930(4) 0.2043(4)
C5 C 0.0355(3) 0.0100(4) 0.1690(4)
H2 H -0.0027 -0.0018 0.1027
C6 C 0.0777(3) -0.0562(4) 0.2293(4)
H3 H 0.0689 -0.1128 0.2038
C7 C 0.0200(3) 0.1903(3) 0.0750(4)
C8 C 0.0856(3) 0.1896(3) 0.0962(4)
H4 H 0.1223 0.1649 0.1569
C9 C 0.0972(2) 0.2253(3) 0.0285(4)
C10 C 0.0430(3) 0.2591(3) -0.0622(4)
H5 H 0.0506 0.2809 -0.1104
C11 C -0.0225(2) 0.2608(3) -0.0814(4)
C12 C -0.0342(2) 0.2267(3) -0.0120(4)
H6 H -0.0786 0.2285 -0.0243
C13 C 0.1808(2) -0.1119(3) 0.3918(4)
C14 C 0.1690(2) 0.2268(3) 0.0542(4)
C15 C -0.0817(2) 0.2958(3) -0.1798(4)
C16 C -0.2290(4) 0.5124(5) -0.3280(6)
H7 H -0.2652 0.5097 -0.3973
C17 C -0.1832(4) 0.5837(5) -0.1756(5)
H8 H -0.1421 0.5504 -0.1554
H9 H -0.1704 0.6433 -0.1561
H10 H -0.2042 0.5608 -0.1422
C18 C -0.0763(4) 0.4568(5) -0.3854(6)
H11 H -0.0393 0.4204 -0.3403
C19 C -0.1159(4) 0.5884(5) -0.4790(6)
H12 H -0.1605 0.5644 -0.5004
H13 H -0.1090 0.6424 -0.4437
H14 H -0.1147 0.5986 -0.5382
C20 C 0.0086(4) 0.5522(5) -0.3709(6)
H15 H 0.0393 0.5065 -0.3273
H16 H 0.0143 0.5614 -0.4263
H17 H 0.0198 0.6049 -0.3318
N1 N 0.1184(3) 0.1936(3) 0.3466(4)
N2 N -0.2306(3) 0.5784(4) -0.2817(4)
N3 N -0.0617(3) 0.5286(4) -0.4115(5)
O1 O 0.1736(2) -0.1803(2) 0.3463(3)
O2 O 0.22316(17) -0.0969(2) 0.4836(2)
O3 O 0.1534(3) 0.2001(3) 0.4391(4)
O4 O 0.0963(3) 0.2551(3) 0.2904(4)
O5 O 0.21494(17) 0.1889(2) 0.1324(3)
O6 O 0.18153(18) 0.2665(2) -0.0018(3)
O7 O -0.07080(18) 0.3201(2) -0.2450(3)
O8 O -0.13985(17) 0.2983(2) -0.1956(3)
O9 O 0.0044(2) 0.1557(3) 0.1404(3)
O10 O -0.1903(3) 0.4548(3) -0.2994(4)
O11 O -0.1348(3) 0.4333(3) -0.4155(4)
C21 C -0.2981(9) 0.6255(10) -0.3285(11)
H18 H -0.3332 0.5863 -0.3365
H19 H -0.2926 0.6728 -0.2846
H20 H -0.3121 0.6477 -0.3945
Ho1B Ho 0.310810(10) -0.172320(13) 0.624350(15)
Ho1G Ho 0.310810(10) 0.172320(13) 0.124350(15)
Ho1A Ho 0.189190(10) 0.327680(13) -0.124350(15)
Ho1D Ho 0.189190(10) -0.327680(13) 0.375650(15)
O1D O -0.1736(2) 0.1803(2) -0.3463(3)
O2B O -0.27684(17) 0.4031(2) -0.5164(2)
O5G O -0.28506(17) 0.3111(2) -0.3676(3)
O6A O -0.18153(18) 0.2665(2) -0.4982(3)
O12 O 0.2547(9) -0.3410(12) 0.1643(13)
C22? C 0.2526(9) -0.6693(10) 0.3168(11)
H21? H 0.2133 -0.7020 0.3050
H22? H 0.2889 -0.6696 0.3889
H23? H 0.2697 -0.6951 0.2793
loop_
_geom_bond_atom_site_label_1
_geom_bond_atom_site_label_2
_geom_bond_site_symmetry_1
_geom_bond_site_symmetry_2
Ho1 O7 1_555 1_555
C1 C2 1_555 1_555
C2 H1 1_555 1_555
C3 C2 1_555 1_555
C4 C3 1_555 1_555
C5 C4 1_555 1_555
H2 C5 1_555 1_555
C6 C1 1_555 1_555
H3 C6 1_555 1_555
C7 C8 1_555 1_555
C8 H4 1_555 1_555
C9 C8 1_555 1_555
C10 C9 1_555 1_555
H5 C10 1_555 1_555
C11 C10 1_555 1_555
C12 C7 1_555 1_555
H6 C12 1_555 1_555
C13 C1 1_555 1_555
C14 C9 1_555 1_555
C15 C11 1_555 1_555
C16 H7 1_555 1_555
C17 H8 1_555 1_555
H9 C17 1_555 1_555
H10 C17 1_555 1_555
C18 H11 1_555 1_555
C19 H12 1_555 1_555
H13 C19 1_555 1_555
H14 C19 1_555 1_555
C20 H15 1_555 1_555
H16 C20 1_555 1_555
H17 C20 1_555 1_555
N1 C3 1_555 1_555
N2 C16 1_555 1_555
N3 C18 1_555 1_555
O1 C13 1_555 1_555
O2 C13 1_555 1_555
O3 N1 1_555 1_555
O4 N1 1_555 1_555
O5 C14 1_555 1_555
O6 C14 1_555 1_555
O7 C15 1_555 1_555
O8 Ho1 1_555 1_555
O9 C4 1_555 1_555
O10 Ho1 1_555 1_555
O11 Ho1 1_555 1_555
C21 N2 1_555 1_555
H18 C21 1_555 1_555
H19 C21 1_555 1_555
H20 C21 1_555 1_555
Ho1B O2 1_555 1_555
Ho1G O5 1_555 1_555
Ho1A O6 1_555 1_555
Ho1D O1 1_555 1_555
O1D Ho1 1_555 1_555
O2B Ho1 1_555 1_555
O5G Ho1 1_555 1_555
O6A Ho1 1_555 1_555
C5 C6 1_555 1_555
C7 O9 1_555 1_555
C11 C12 1_555 1_555
C15 O8 1_555 1_555
C16 O10 1_555 1_555
C17 N2 1_555 1_555
C18 O11 1_555 1_555
C19 N3 1_555 1_555
C20 N3 1_555 1_555

#END
