
#######################################################################
#
#                 Cambridge Crystallographic Data Centre
#                                CCDC 
#
#######################################################################
#
# If this CIF has been generated from an entry in the Cambridge 
# Structural Database, then it will include bibliographic, chemical, 
# crystal, experimental, refinement or atomic coordinate data resulting 
# from the CCDC's data processing and validation procedures.
#
#######################################################################

data_ZAVROF
_symmetry_cell_setting           monoclinic
_symmetry_space_group_name_H-M   'P 21/c'
_symmetry_Int_Tables_number      14
_space_group_name_Hall           '-P 2ybc'
loop_
_symmetry_equiv_pos_site_id
_symmetry_equiv_pos_as_xyz
1 x,y,z
2 -x,1/2+y,1/2-z
3 -x,-y,-z
4 x,1/2-y,1/2+z
_cell_length_a                   5.4387(5)
_cell_length_b                   29.037(3)
_cell_length_c                   10.9220(10)
_cell_angle_alpha                90
_cell_angle_beta                 93.882(2)
_cell_angle_gamma                90
_cell_volume                     1720.88
loop_
_atom_site_label
_atom_site_type_symbol
_atom_site_fract_x
_atom_site_fract_y
_atom_site_fract_z
Gd1 Gd 0.00419(11) 0.423848(19) 0.78159(6)
C1 C 0.328(2) 0.4097(4) 1.1520(13)
C2 C 0.279(3) 0.3721(4) 1.2262(14)
H1 H 0.1550 0.3504 1.2008
C3 C 0.415(2) 0.3670(4) 1.3380(13)
C4 C 0.602(3) 0.3972(4) 1.3744(14)
H2 H 0.6972 0.3923 1.4495
C5 C 0.652(2) 0.4351(4) 1.3008(13)
C6 C 0.515(3) 0.4406(5) 1.1921(13)
H3 H 0.5476 0.4663 1.1417
C7 C 0.392(2) 0.2877(4) 1.3828(13)
C8 C 0.267(3) 0.2516(4) 1.4342(13)
C9 C 0.305(2) 0.2066(4) 1.4031(13)
H4 H 0.2111 0.1829 1.4379
C10 C 0.483(3) 0.1953(4) 1.3192(12)
C11 C 0.609(3) 0.2307(4) 1.2720(14)
H5 H 0.7312 0.2237 1.2167
C12 C 0.569(3) 0.2767(5) 1.2997(14)
H6 H 0.6596 0.3003 1.2630
C13 C 0.185(3) 0.4169(4) 1.0323(14)
C14 C 0.535(2) 0.1461(4) 1.2919(12)
C15 C 0.846(2) 0.4707(4) 1.3346(14)
N1 N 0.086(2) 0.2603(4) 1.5213(12)
O1 O 0.2329(17) 0.4533(3) 0.9679(9)
O2 O 0.0302(17) 0.3881(3) 0.9952(9)
O3 O 0.014(3) 0.2986(4) 1.5402(15)
O4 O 0.011(2) 0.2280(4) 1.5794(13)
O5 O 0.3755(17) 0.1166(3) 1.3050(10)
O6 O 0.7423(17) 0.1375(3) 1.2561(9)
O7 O 1.0315(17) 0.4605(3) 1.3988(8)
O8 O 0.8041(17) 0.5103(3) 1.2881(9)
O9 O 0.3581(18) 0.3319(3) 1.4162(8)
O10 O -0.2784(17) 0.4635(3) 0.9034(10)
O11 O -0.3016(17) 0.4608(3) 0.6347(9)
O12 O 0.109(2) 0.3996(3) 0.5825(8)
H7 H 0.08(3) 0.408(4) 0.511(4)
H8 H 0.13(3) 0.3715(8) 0.585(10)
H9 H -0.25(2) 0.4870(16) 0.622(12)
H10 H -0.39(2) 0.461(4) 0.693(9)
H11 H -0.187(14) 0.4860(19) 0.905(12)
H12 H -0.407(12) 0.470(2) 0.934(13)
Gd1C Gd 0.00419(11) 0.076152(19) 1.28159(6)
Gd1C_2 Gd 1.00419(11) 0.076152(19) 1.28159(6)
Gd1B Gd 0.99581(11) 0.576152(19) 1.21841(6)
O5C O 0.3755(17) 0.3834(3) 0.8050(10)
O6C O -0.2577(17) 0.3625(3) 0.7561(9)
O8B O 0.1959(17) 0.4897(3) 0.7119(9)
loop_
_geom_bond_atom_site_label_1
_geom_bond_atom_site_label_2
_geom_bond_site_symmetry_1
_geom_bond_site_symmetry_2
Gd1 O1 1_555 1_555
C1 C2 1_555 1_555
C2 H1 1_555 1_555
C3 C2 1_555 1_555
C4 C3 1_555 1_555
H2 C4 1_555 1_555
C5 C4 1_555 1_555
C6 C1 1_555 1_555
H3 C6 1_555 1_555
C7 C8 1_555 1_555
C8 C9 1_555 1_555
C9 H4 1_555 1_555
C10 C9 1_555 1_555
C11 C10 1_555 1_555
H5 C11 1_555 1_555
C12 C7 1_555 1_555
H6 C12 1_555 1_555
C13 C1 1_555 1_555
C14 C10 1_555 1_555
C15 C5 1_555 1_555
N1 C8 1_555 1_555
O1 C13 1_555 1_555
O2 Gd1 1_555 1_555
O3 N1 1_555 1_555
O4 N1 1_555 1_555
O5 C14 1_555 1_555
O6 C14 1_555 1_555
O7 C15 1_555 1_555
O8 C15 1_555 1_555
O9 C3 1_555 1_555
O10 Gd1 1_555 1_555
O11 Gd1 1_555 1_555
O12 Gd1 1_555 1_555
H7 O12 1_555 1_555
H8 O12 1_555 1_555
H9 O11 1_555 1_555
H10 O11 1_555 1_555
H11 O10 1_555 1_555
H12 O10 1_555 1_555
Gd1C O5 1_555 1_555
Gd1C_2 O6 1_555 1_555
Gd1B O8 1_555 1_555
O5C Gd1 1_555 1_555
O6C Gd1 1_555 1_555
O8B Gd1 1_555 1_555
C5 C6 1_555 1_555
C7 O9 1_555 1_555
C11 C12 1_555 1_555
C13 O2 1_555 1_555

#END
