
#######################################################################
#
#                 Cambridge Crystallographic Data Centre
#                                CCDC 
#
#######################################################################
#
# If this CIF has been generated from an entry in the Cambridge 
# Structural Database, then it will include bibliographic, chemical, 
# crystal, experimental, refinement or atomic coordinate data resulting 
# from the CCDC's data processing and validation procedures.
#
#######################################################################

data_ZAVREV
_symmetry_cell_setting           monoclinic
_symmetry_space_group_name_H-M   'C 2/c'
_symmetry_Int_Tables_number      15
_space_group_name_Hall           '-C 2yn'
loop_
_symmetry_equiv_pos_site_id
_symmetry_equiv_pos_as_xyz
1 x,y,z
2 -x,y,1/2-z
3 1/2+x,1/2+y,z
4 1/2-x,1/2+y,1/2-z
5 -x,-y,-z
6 x,-y,1/2+z
7 1/2-x,1/2-y,-z
8 1/2+x,1/2-y,1/2+z
_cell_length_a                   23.483(4)
_cell_length_b                   15.623(3)
_cell_length_c                   15.964(3)
_cell_angle_alpha                90
_cell_angle_beta                 124.008(2)
_cell_angle_gamma                90
_cell_volume                     4855.04
loop_
_atom_site_label
_atom_site_type_symbol
_atom_site_fract_x
_atom_site_fract_y
_atom_site_fract_z
Er1 Er -0.189210(14) 0.328040(19) -0.37499(2)
C1 C 0.1341(3) -0.0414(5) 0.3283(5)
C2 C 0.1446(4) 0.0419(5) 0.3640(5)
H1 H 0.1812 0.0536 0.4318
C3 C 0.1033(4) 0.1079(5) 0.3038(5)
C4 C 0.0488(4) 0.0916(5) 0.2041(5)
C5 C 0.0366(4) 0.0082(5) 0.1698(6)
H2 H -0.0016 -0.0038 0.1033
C6 C 0.0786(4) -0.0581(5) 0.2297(5)
H3 H 0.0697 -0.1148 0.2040
C7 C 0.0194(3) 0.1896(4) 0.0746(5)
C8 C 0.0847(3) 0.1894(5) 0.0956(5)
H4 H 0.1215 0.1646 0.1565
C9 C 0.0966(3) 0.2258(4) 0.0269(5)
C10 C 0.0426(3) 0.2589(5) -0.0625(5)
H5 H 0.0499 0.2808 -0.1112
C11 C -0.0227(3) 0.2601(4) -0.0814(5)
C12 C -0.0347(3) 0.2255(4) -0.0128(5)
H6 H -0.0794 0.2264 -0.0258
C13 C 0.1817(3) -0.1127(5) 0.3920(5)
C14 C 0.1682(4) 0.2285(5) 0.0526(5)
C15 C -0.0816(3) 0.2957(4) -0.1792(5)
C16 C -0.2291(5) 0.5101(7) -0.3266(7)
H7 H -0.2666 0.5057 -0.3953
C17 C -0.2969(11) 0.6268(14) -0.3286(14)
H8 H -0.3332 0.5880 -0.3392
H9 H -0.2913 0.6734 -0.2834
H10 H -0.3095 0.6507 -0.3936
C18 C -0.1831(5) 0.5821(6) -0.1751(7)
H11 H -0.1416 0.5498 -0.1552
H12 H -0.1709 0.6420 -0.1541
H13 H -0.2043 0.5574 -0.1423
C19 C -0.0768(5) 0.4568(6) -0.3849(7)
H14 H -0.0403 0.4189 -0.3413
C20 C -0.1152(5) 0.5890(6) -0.4757(7)
H15 H -0.1597 0.5643 -0.4969
H16 H -0.1082 0.6425 -0.4390
H17 H -0.1144 0.6007 -0.5353
C21 C 0.0083(5) 0.5529(6) -0.3706(7)
H18 H 0.0387 0.5057 -0.3293
H19 H 0.0137 0.5644 -0.4262
H20 H 0.0203 0.6043 -0.3287
N1 N 0.1181(4) 0.1930(4) 0.3454(5)
N2 N -0.2304(4) 0.5781(5) -0.2817(6)
N3 N -0.0615(4) 0.5298(5) -0.4110(6)
O1 O 0.1746(3) -0.1812(3) 0.3470(4)
O2 O 0.2235(2) -0.0975(3) 0.4844(3)
O3 O 0.1536(4) 0.1991(4) 0.4384(5)
O4 O 0.0959(4) 0.2543(4) 0.2901(5)
O5 O 0.2148(2) 0.1905(3) 0.1305(3)
O6 O 0.1799(2) 0.2681(3) -0.0044(3)
O7 O -0.0722(2) 0.3203(3) -0.2463(3)
O8 O -0.1407(2) 0.2976(3) -0.1953(3)
O9 O 0.0043(3) 0.1543(3) 0.1398(4)
O10 O -0.1911(4) 0.4537(4) -0.2991(5)
O11 O -0.1356(3) 0.4356(4) -0.4139(5)
Er1B Er 0.310790(14) -0.171960(19) 0.62501(2)
Er1G Er 0.310790(14) 0.171960(19) 0.12501(2)
Er1A Er 0.189210(14) 0.328040(19) -0.12501(2)
Er1D Er 0.189210(14) -0.328040(19) 0.37499(2)
O1D O -0.1746(3) 0.1812(3) -0.3470(4)
O2B O -0.2765(2) 0.4025(3) -0.5156(3)
O5G O -0.2852(2) 0.3095(3) -0.3695(3)
O6A O -0.1799(2) 0.2681(3) -0.4956(3)
O12 O 0.2553(10) -0.3436(17) 0.1668(17)
C22? C 0.2514(12) -0.6702(13) 0.3154(15)
H21? H 0.2113 -0.7029 0.3013
H22? H 0.2869 -0.6716 0.3881
H23? H 0.2694 -0.6955 0.2785
loop_
_geom_bond_atom_site_label_1
_geom_bond_atom_site_label_2
_geom_bond_site_symmetry_1
_geom_bond_site_symmetry_2
Er1 O7 1_555 1_555
C1 C2 1_555 1_555
C2 H1 1_555 1_555
C3 C2 1_555 1_555
C4 C3 1_555 1_555
C5 C4 1_555 1_555
H2 C5 1_555 1_555
C6 C1 1_555 1_555
H3 C6 1_555 1_555
C7 C8 1_555 1_555
C8 H4 1_555 1_555
C9 C8 1_555 1_555
C10 C9 1_555 1_555
H5 C10 1_555 1_555
C11 C10 1_555 1_555
C12 C7 1_555 1_555
H6 C12 1_555 1_555
C13 C1 1_555 1_555
C14 C9 1_555 1_555
C15 C11 1_555 1_555
C16 H7 1_555 1_555
C17 H8 1_555 1_555
H9 C17 1_555 1_555
H10 C17 1_555 1_555
C18 H11 1_555 1_555
H12 C18 1_555 1_555
H13 C18 1_555 1_555
C19 H14 1_555 1_555
C20 H15 1_555 1_555
H16 C20 1_555 1_555
H17 C20 1_555 1_555
C21 H18 1_555 1_555
H19 C21 1_555 1_555
H20 C21 1_555 1_555
N1 C3 1_555 1_555
N2 C16 1_555 1_555
N3 C19 1_555 1_555
O1 C13 1_555 1_555
O2 C13 1_555 1_555
O3 N1 1_555 1_555
O4 N1 1_555 1_555
O5 C14 1_555 1_555
O6 C14 1_555 1_555
O7 C15 1_555 1_555
O8 Er1 1_555 1_555
O9 C4 1_555 1_555
O10 Er1 1_555 1_555
O11 Er1 1_555 1_555
Er1B O2 1_555 1_555
Er1G O5 1_555 1_555
Er1A O6 1_555 1_555
Er1D O1 1_555 1_555
O1D Er1 1_555 1_555
O2B Er1 1_555 1_555
O5G Er1 1_555 1_555
O6A Er1 1_555 1_555
C5 C6 1_555 1_555
C7 O9 1_555 1_555
C11 C12 1_555 1_555
C15 O8 1_555 1_555
C16 O10 1_555 1_555
C17 N2 1_555 1_555
C18 N2 1_555 1_555
C19 O11 1_555 1_555
C20 N3 1_555 1_555
C21 N3 1_555 1_555

#END
