
#######################################################################
#
#                 Cambridge Crystallographic Data Centre
#                                CCDC 
#
#######################################################################
#
# If this CIF has been generated from an entry in the Cambridge 
# Structural Database, then it will include bibliographic, chemical, 
# crystal, experimental, refinement or atomic coordinate data resulting 
# from the CCDC's data processing and validation procedures.
#
#######################################################################

data_ZAVWOK
_symmetry_cell_setting           monoclinic
_symmetry_space_group_name_H-M   'P 21/c'
_symmetry_Int_Tables_number      14
_space_group_name_Hall           '-P 2ybc'
loop_
_symmetry_equiv_pos_site_id
_symmetry_equiv_pos_as_xyz
1 x,y,z
2 -x,1/2+y,1/2-z
3 -x,-y,-z
4 x,1/2-y,1/2+z
_cell_length_a                   12.794(3)
_cell_length_b                   16.937(3)
_cell_length_c                   7.1307(14)
_cell_angle_alpha                90
_cell_angle_beta                 105.25(3)
_cell_angle_gamma                90
_cell_volume                     1490.76
loop_
_atom_site_label
_atom_site_type_symbol
_atom_site_fract_x
_atom_site_fract_y
_atom_site_fract_z
Co1 Co 0.24009(8) 0.07694(6) 0.44211(17)
O1 O 0.3631(4) 0.0564(3) 0.3192(9)
N1 N 0.3005(6) 0.1923(4) 0.5256(12)
C1 C 0.3994(7) 0.0962(5) 0.1996(13)
Cu1 Cu 0.22508(8) 0.28432(6) 0.60578(17)
O2 O 0.3549(4) 0.1552(3) 0.1022(9)
N2 N 0.4010(7) 0.1942(4) 0.5757(11)
C2 C 0.5094(6) 0.0730(5) 0.1778(12)
O3 O 0.1004(5) 0.2240(4) 0.6308(11)
N3 N 0.4931(7) 0.1922(5) 0.6065(13)
C3 C 0.5613(6) 0.0069(5) 0.2817(13)
H1 H 0.5230 -0.0227 0.3512
O4 O 0.1174(4) 0.0961(3) 0.5672(9)
N4 N 0.1484(6) 0.1214(4) 0.1537(12)
C4 C 0.7144(7) 0.0263(5) 0.1803(13)
H2 H 0.7837 0.0105 0.1781
N5 N 0.0504(7) 0.1157(4) 0.1265(11)
C5 C 0.6698(7) 0.0917(5) 0.0744(13)
H3 H 0.7091 0.1192 0.0030
N6 N -0.0411(7) 0.1063(5) 0.1010(12)
C6 C 0.5657(7) 0.1167(5) 0.0738(12)
H4 H 0.5353 0.1615 0.0054
N7 N -0.1815(5) 0.0415(4) 0.6278(9)
C7 C 0.0685(7) 0.1537(5) 0.6079(13)
N8 N 0.6614(5) -0.0156(4) 0.2868(11)
C8 C -0.0457(6) 0.1382(5) 0.6274(13)
C9 C -0.1164(7) 0.1992(5) 0.6400(13)
H5 H -0.0944 0.2517 0.6451
C10 C -0.2211(8) 0.1791(5) 0.6449(14)
H6 H -0.2710 0.2182 0.6515
C11 C -0.2501(7) 0.1007(5) 0.6398(13)
H7 H -0.3200 0.0880 0.6449
C12 C -0.0804(6) 0.0610(5) 0.6262(12)
H8 H -0.0313 0.0208 0.6242
Co1B Co -0.24009(8) -0.07694(6) 0.55789(17)
Co1B_2 Co 0.75991(8) -0.07694(6) 0.55789(17)
Cu1C Cu 0.22508(8) 0.21568(6) 0.10578(17)
O2C O 0.3549(4) 0.3448(3) 0.6022(9)
N4C N 0.1484(6) 0.3786(4) 0.6537(12)
N7B N 0.1815(5) -0.0415(4) 0.3722(9)
N8B N 0.3386(5) 0.0156(4) 0.7132(11)
loop_
_geom_bond_atom_site_label_1
_geom_bond_atom_site_label_2
_geom_bond_site_symmetry_1
_geom_bond_site_symmetry_2
Co1 O1 1_555 1_555
O1 C1 1_555 1_555
N1 Co1 1_555 1_555
C1 O2 1_555 1_555
Cu1 N1 1_555 1_555
O2 Cu1C 1_555 1_555
N2 N1 1_555 1_555
C2 C1 1_555 1_555
O3 Cu1 1_555 1_555
N3 N2 1_555 1_555
C3 C2 1_555 1_555
H1 C3 1_555 1_555
O4 Co1 1_555 1_555
N4 Co1 1_555 1_555
C4 H2 1_555 1_555
N5 N4 1_555 1_555
C5 C4 1_555 1_555
H3 C5 1_555 1_555
N6 N5 1_555 1_555
C6 C2 1_555 1_555
H4 C6 1_555 1_555
N7 C11 1_555 1_555
C7 O3 1_555 1_555
N8 C3 1_555 1_555
C8 C7 1_555 1_555
C9 C8 1_555 1_555
H5 C9 1_555 1_555
C10 C9 1_555 1_555
H6 C10 1_555 1_555
C11 C10 1_555 1_555
H7 C11 1_555 1_555
C12 N7 1_555 1_555
H8 C12 1_555 1_555
Co1B N7 1_555 1_555
Co1B_2 N8 1_555 1_555
Cu1C N4 1_555 1_555
O2C Cu1 1_555 1_555
N4C Cu1 1_555 1_555
N7B Co1 1_555 1_555
N8B Co1 1_555 1_555
O4 C7 1_555 1_555
C4 N8 1_555 1_555
C5 C6 1_555 1_555
C8 C12 1_555 1_555

#END
