
#######################################################################
#
#                 Cambridge Crystallographic Data Centre
#                                CCDC 
#
#######################################################################
#
# If this CIF has been generated from an entry in the Cambridge 
# Structural Database, then it will include bibliographic, chemical, 
# crystal, experimental, refinement or atomic coordinate data resulting 
# from the CCDC's data processing and validation procedures.
#
#######################################################################

data_ZAVWIE
_symmetry_cell_setting           monoclinic
_symmetry_space_group_name_H-M   'P 21/c'
_symmetry_Int_Tables_number      14
_space_group_name_Hall           '-P 2ybc'
loop_
_symmetry_equiv_pos_site_id
_symmetry_equiv_pos_as_xyz
1 x,y,z
2 -x,1/2+y,1/2-z
3 -x,-y,-z
4 x,1/2-y,1/2+z
_cell_length_a                   12.885(3)
_cell_length_b                   16.966(3)
_cell_length_c                   7.1856(14)
_cell_angle_alpha                90
_cell_angle_beta                 105.33(3)
_cell_angle_gamma                90
_cell_volume                     1514.93
loop_
_atom_site_label
_atom_site_type_symbol
_atom_site_fract_x
_atom_site_fract_y
_atom_site_fract_z
Ni1 Ni 0.75808(3) 0.92443(2) 0.55372(7)
O1 O 0.63693(18) 0.94539(13) 0.6816(3)
N1 N 0.6970(2) 0.80921(17) 0.4672(5)
C1 C 0.6003(3) 0.90510(19) 0.7973(5)
Cu1 Cu 0.77177(3) 0.71662(2) 0.38585(7)
O2 O 0.64410(19) 0.84546(14) 0.8945(4)
N2 N 0.5972(3) 0.80721(16) 0.4253(5)
C2 C 0.4901(3) 0.92864(19) 0.8173(5)
O3 O 0.8967(2) 0.77713(15) 0.3630(6)
N3 N 0.5044(3) 0.8081(2) 0.3899(6)
C3 C 0.4384(3) 0.99379(19) 0.7136(5)
H1 H 0.4764 1.0237 0.6454
O4 O 0.88087(19) 0.90552(13) 0.4278(4)
N4 N 0.8482(2) 0.87864(17) 0.8278(5)
C4 C 0.2847(3) 0.9740(2) 0.8149(5)
H2 H 0.2157 0.9894 0.8166
N5 N 0.9457(3) 0.88492(17) 0.8635(5)
C5 C 0.3302(3) 0.9093(2) 0.9232(6)
H3 H 0.2918 0.8820 0.9954
N6 N 1.0374(3) 0.8938(2) 0.8939(5)
C6 C 0.4341(3) 0.8850(2) 0.9241(5)
H4 H 0.4650 0.8409 0.9939
N7 N 1.1813(2) 0.95878(16) 0.3703(4)
C7 C 0.9292(3) 0.8477(2) 0.3856(6)
N8 N 0.3368(2) 1.01589(16) 0.7062(4)
C8 C 1.0422(3) 0.86225(19) 0.3649(5)
C9 C 1.1121(3) 0.8014(2) 0.3505(6)
H5 H 1.0895 0.7492 0.3448
C10 C 1.2169(3) 0.8202(2) 0.3449(6)
H6 H 1.2648 0.7807 0.3327
C11 C 1.2486(3) 0.8989(2) 0.3576(5)
H7 H 1.3190 0.9109 0.3575
C12 C 1.0802(3) 0.93965(19) 0.3714(5)
H8 H 1.0328 0.9803 0.3769
Ni1B Ni 1.24192(3) 1.07557(2) 0.44628(7)
Ni1B_2 Ni 0.24192(3) 1.07557(2) 0.44628(7)
Cu1C Cu 0.77177(3) 0.78338(2) 0.88585(7)
O2C O 0.64410(19) 0.65454(14) 0.3945(4)
N4C N 0.8482(2) 0.62136(17) 0.3278(5)
N7B N 0.8187(2) 1.04122(16) 0.6297(4)
N8B N 0.6632(2) 0.98411(16) 0.2938(4)
loop_
_geom_bond_atom_site_label_1
_geom_bond_atom_site_label_2
_geom_bond_site_symmetry_1
_geom_bond_site_symmetry_2
Ni1 O1 1_555 1_555
O1 C1 1_555 1_555
N1 Ni1 1_555 1_555
C1 O2 1_555 1_555
Cu1 N1 1_555 1_555
O2 Cu1C 1_555 1_555
N2 N1 1_555 1_555
C2 C1 1_555 1_555
O3 Cu1 1_555 1_555
N3 N2 1_555 1_555
C3 C2 1_555 1_555
H1 C3 1_555 1_555
O4 Ni1 1_555 1_555
N4 Ni1 1_555 1_555
C4 H2 1_555 1_555
N5 N4 1_555 1_555
C5 C4 1_555 1_555
H3 C5 1_555 1_555
N6 N5 1_555 1_555
C6 C2 1_555 1_555
H4 C6 1_555 1_555
N7 C11 1_555 1_555
C7 O3 1_555 1_555
N8 C3 1_555 1_555
C8 C7 1_555 1_555
C9 C8 1_555 1_555
H5 C9 1_555 1_555
C10 C9 1_555 1_555
H6 C10 1_555 1_555
C11 C10 1_555 1_555
H7 C11 1_555 1_555
C12 N7 1_555 1_555
H8 C12 1_555 1_555
Ni1B N7 1_555 1_555
Ni1B_2 N8 1_555 1_555
Cu1C N4 1_555 1_555
O2C Cu1 1_555 1_555
N4C Cu1 1_555 1_555
N7B Ni1 1_555 1_555
N8B Ni1 1_555 1_555
O4 C7 1_555 1_555
C4 N8 1_555 1_555
C5 C6 1_555 1_555
C8 C12 1_555 1_555

#END
