
#######################################################################
#
#                 Cambridge Crystallographic Data Centre
#                                CCDC 
#
#######################################################################
#
# If this CIF has been generated from an entry in the Cambridge 
# Structural Database, then it will include bibliographic, chemical, 
# crystal, experimental, refinement or atomic coordinate data resulting 
# from the CCDC's data processing and validation procedures.
#
#######################################################################

data_ZAWBUW
_symmetry_cell_setting           monoclinic
_symmetry_space_group_name_H-M   'C 2/m'
_symmetry_Int_Tables_number      12
_space_group_name_Hall           '-C 2y'
loop_
_symmetry_equiv_pos_site_id
_symmetry_equiv_pos_as_xyz
1 x,y,z
2 -x,y,-z
3 1/2+x,1/2+y,z
4 1/2-x,1/2+y,-z
5 -x,-y,-z
6 x,-y,z
7 1/2-x,1/2-y,-z
8 1/2+x,1/2-y,z
_cell_length_a                   31.1056(12)
_cell_length_b                   14.1740(3)
_cell_length_c                   20.8484(8)
_cell_angle_alpha                90
_cell_angle_beta                 93.8479(17)
_cell_angle_gamma                90
_cell_volume                     9171.15
loop_
_atom_site_label
_atom_site_type_symbol
_atom_site_fract_x
_atom_site_fract_y
_atom_site_fract_z
U3 U 0.256500(7) 0.0000 0.156119(12)
U4 U 0.284873(7) 0.0000 0.334569(12)
S3 S 0.22492(4) 0.23790(11) 0.09505(6)
O5 O 0.31364(15) 0.0000 0.1542(3)
O6 O 0.19960(14) 0.0000 0.1579(2)
O7 O 0.33811(15) 0.0000 0.3077(2)
O8 O 0.23247(15) 0.0000 0.3642(2)
O15 O 0.25438(12) 0.1621(3) 0.11775(18)
O16 O 0.22794(13) 0.3163(4) 0.1390(3)
O17 O 0.18160(13) 0.2059(3) 0.0803(2)
O24 O 0.26265(10) 0.0948(3) 0.24808(15)
H6 H 0.2374 0.1143 0.2545
O25 O 0.25177(18) 0.0000 0.0397(3)
H7 H 0.2695 0.0000 0.0020
H8 H 0.2268 0.0000 0.0177
O26 O 0.29310(11) 0.1669(3) 0.36901(16)
H9 H 0.2731 0.2186 0.3574
H10 H 0.3126 0.2021 0.4006
O27 O 0.31766(16) 0.0000 0.4424(2)
H11 H 0.3114 0.0000 0.4862
H12 H 0.3479 0.0000 0.4506
C3 C 0.2473(3) 0.2804(6) 0.0254(3)
H21 H 0.2295 0.3323 0.0092
H22 H 0.2754 0.3065 0.0384
U3C U 0.243500(7) 0.5000 -0.156119(12)
S3F S 0.27508(4) 0.26210(11) -0.09505(6)
O15F O 0.24562(12) 0.3379(3) -0.11775(18)
O15E O 0.25438(12) -0.1621(3) 0.11775(18)
O16F O 0.27206(13) 0.1837(4) -0.1390(3)
O17F O 0.31840(13) 0.2941(3) -0.0803(2)
O24E O 0.26265(10) -0.0948(3) 0.24808(15)
H6E H 0.2374 -0.1143 0.2545
O26E O 0.29310(11) -0.1669(3) 0.36901(16)
H9E H 0.2731 -0.2186 0.3574
H10E H 0.3126 -0.2021 0.4006
C3F C 0.2527(3) 0.2196(6) -0.0254(3)
H21F H 0.2705 0.1677 -0.0092
H22F H 0.2246 0.1935 -0.0384
O44 O 0.22898(16) 0.5000 0.4510(2)
H16 H 0.2459 0.4541 0.4569
H16E H 0.2459 0.5459 0.4569
O47 O 0.17233(19) 0.0000 0.0031(3)
O48 O 0.0598(3) 0.2886(9) 0.4595(5)
U1 U 0.156713(7) 0.5000 0.245517(11)
U2 U 0.126285(8) 0.5000 0.067435(12)
Dy1 Dy 0.090278(10) 0.0000 0.545880(16)
Dy2 Dy 0.01392(3) 0.0000 0.97681(4)
S1 S 0.18779(4) 0.26897(10) 0.31492(5)
S2 S 0.17111(4) 0.17144(11) 0.50893(6)
O1 O 0.09940(14) 0.5000 0.2480(2)
O2 O 0.21358(14) 0.5000 0.2454(2)
O3 O 0.07526(16) 0.5000 0.0995(3)
O4 O 0.17827(18) 0.5000 0.0360(3)
O9 O 0.15871(10) 0.3373(3) 0.27977(16)
O10 O 0.18735(11) 0.1787(3) 0.28216(17)
O11 O 0.23098(10) 0.3062(3) 0.32971(17)
O12 O 0.13557(12) 0.1038(3) 0.49409(17)
O13 O 0.20594(12) 0.1335(3) 0.55099(17)
O14 O 0.15529(11) 0.2611(3) 0.53153(17)
O18 O 0.14994(10) 0.4063(3) 0.15338(15)
H1 H 0.1716 0.3787 0.1457
O19 O 0.16064(16) 0.5000 0.3622(2)
H2 H 0.1851 0.5000 0.3896
H3 H 0.1406 0.5000 0.3852
O20 O 0.11745(13) 0.3326(3) 0.03308(19)
H4 H 0.1326 0.2813 0.0440
H5 H 0.0994 0.3078 0.0002
O21 O 0.0960(2) 0.5000 -0.0430(3)
O22 O 0.0443(3) 0.5000 -0.1168(3)
O23 O 0.0386(3) 0.4306(9) -0.0240(5)
O28 O 0.11842(11) 0.1030(4) 0.62541(16)
O29 O 0.15089(13) 0.1298(4) 0.90772(18)
O30 O 0.01939(13) 0.2285(3) 0.6392(2)
O31 O 0.06424(14) 0.2572(5) 0.9305(2)
O32 O -0.07405(13) 0.1246(4) 0.65673(18)
O33 O -0.02913(15) 0.1158(6) 0.9409(2)
O34 O 0.06138(16) 0.0000 0.4367(2)
H13 H 0.0469 0.0489 0.4238
O35 O 0.0370(2) 0.0000 0.6275(4)
O36 O 0.04306(13) 0.1298(4) 0.5319(2)
H14 H 0.0494 0.1702 0.5609
H15 H 0.0507 0.1585 0.4954
O37 O 0.0088(5) 0.0000 0.8571(8)
O38 O 0.0747(7) 0.0000 0.8265(11)
O39 O 0.0243(6) 0.0453(15) 0.7556(9)
O40 O 0.0663(4) 0.0850(10) 0.9497(5)
N1 N 0.0581(3) 0.5000 -0.0615(4)
N2 N 0.17659(13) 0.0841(5) 0.6984(2)
N3 N 0.13528(16) 0.2127(4) 0.7053(2)
N4 N 0.15198(16) 0.2265(5) 0.8200(2)
N5 N 0.18265(14) 0.0851(5) 0.8155(2)
N6 N 0.06817(18) 0.2900(4) 0.7184(2)
N7 N -0.00192(18) 0.3008(4) 0.7311(3)
N8 N 0.01588(17) 0.3002(4) 0.8467(3)
N9 N 0.08534(18) 0.3109(4) 0.8325(3)
N10 N -0.06958(17) 0.2227(5) 0.7444(2)
N11 N -0.10202(14) 0.0860(5) 0.7524(2)
N12 N -0.08741(14) 0.0862(5) 0.8692(2)
N13 N -0.05050(16) 0.2159(6) 0.8601(3)
N14 N 0.0371(8) 0.0000 0.8109(11)
C1 C 0.16382(15) 0.2518(4) 0.3897(2)
H17 H 0.1584 0.3124 0.4091
H18 H 0.1365 0.2194 0.3823
C2 C 0.19391(15) 0.1934(4) 0.4353(2)
H19 H 0.2209 0.2269 0.4433
H20 H 0.2001 0.1338 0.4149
C4 C 0.14129(16) 0.1301(6) 0.6725(2)
C5 C 0.19403(16) 0.1316(6) 0.7569(2)
H23 H 0.2252 0.1420 0.7565
C6 C 0.16887(19) 0.2256(6) 0.7566(3)
H24 H 0.1872 0.2803 0.7493
C7 C 0.16039(17) 0.1466(6) 0.8522(3)
C8 C 0.1061(2) 0.2840(5) 0.6821(3)
H25 H 0.0973 0.2711 0.6374
H26 H 0.1208 0.3444 0.6839
C9 C 0.1320(2) 0.3072(6) 0.8476(3)
H27 H 0.1450 0.3642 0.8317
H28 H 0.1377 0.3057 0.8939
C10 C 0.0274(2) 0.2684(5) 0.6919(3)
C11 C 0.0655(3) 0.3497(5) 0.7740(3)
H29 H 0.0760 0.4135 0.7661
C12 C 0.0179(3) 0.3499(5) 0.7856(3)
H30 H 0.0068 0.4144 0.7883
C13 C 0.0561(2) 0.2863(6) 0.8753(3)
C14 C -0.0484(2) 0.2972(6) 0.7159(3)
H31 H -0.0609 0.3561 0.7293
H32 H -0.0537 0.2925 0.6696
C15 C -0.0230(2) 0.2931(7) 0.8820(3)
H33 H -0.0147 0.2846 0.9274
H34 H -0.0390 0.3517 0.8773
C16 C -0.08063(17) 0.1415(6) 0.7133(3)
C17 C -0.0849(2) 0.2245(7) 0.8088(3)
H35 H -0.1035 0.2790 0.8153
C18 C -0.10911(18) 0.1316(7) 0.8133(3)
H36 H -0.1398 0.1415 0.8189
C19 C -0.05325(19) 0.1370(7) 0.8938(3)
C20 C -0.1244(3) 0.0000 0.7310(4)
H37 H -0.1529 0.0000 0.7470
H38 H -0.1277 0.0000 0.6844
C21 C -0.1021(3) 0.0000 0.8976(4)
H39 H -0.0927 0.0000 0.9429
H40 H -0.1334 0.0000 0.8944
C22 C 0.1933(2) 0.0000 0.6719(4)
H41 H 0.2244 0.0000 0.6794
H42 H 0.1866 0.0000 0.6258
C23 C 0.2029(2) 0.0000 0.8395(4)
H43 H 0.2327 0.0000 0.8283
H44 H 0.2030 0.0000 0.8860
Dy1_2 Dy 0.090278(10) 1.0000 0.545880(16)
Dy2A Dy -0.01392(3) 0.0000 1.02319(4)
S1E S 0.18779(4) 0.73103(10) 0.31492(5)
S2E S 0.17111(4) 0.82856(11) 0.50893(6)
O9E O 0.15871(10) 0.6627(3) 0.27977(16)
O10E O 0.18735(11) 0.8213(3) 0.28216(17)
O11E O 0.23098(10) 0.6938(3) 0.32971(17)
O12E O 0.13557(12) 0.8962(3) 0.49409(17)
O12E_2 O 0.13557(12) -0.1038(3) 0.49409(17)
O13E O 0.20594(12) 0.8665(3) 0.55099(17)
O14E O 0.15529(11) 0.7389(3) 0.53153(17)
O18E O 0.14994(10) 0.5937(3) 0.15338(15)
H1E H 0.1716 0.6213 0.1457
O20E O 0.11745(13) 0.6674(3) 0.03308(19)
H4E H 0.1326 0.7187 0.0440
H5E H 0.0994 0.6922 0.0002
O23E O 0.0386(3) 0.5694(9) -0.0240(5)
O28E O 0.11842(11) -0.1030(4) 0.62541(16)
O29E O 0.15089(13) -0.1298(4) 0.90772(18)
O30E O 0.01939(13) -0.2285(3) 0.6392(2)
O31E O 0.06424(14) -0.2572(5) 0.9305(2)
O32E O -0.07405(13) -0.1246(4) 0.65673(18)
O33E O -0.02913(15) -0.1158(6) 0.9409(2)
O33A O 0.02913(15) 0.1158(6) 1.0591(2)
O33D O 0.02913(15) -0.1158(6) 1.0591(2)
H13E H 0.0469 -0.0489 0.4238
O36E O 0.04306(13) -0.1298(4) 0.5319(2)
H14E H 0.0494 -0.1702 0.5609
H15E H 0.0507 -0.1585 0.4954
O39E O 0.0243(6) -0.0453(15) 0.7556(9)
O40E O 0.0663(4) -0.0850(10) 0.9497(5)
N2E N 0.17659(13) -0.0841(5) 0.6984(2)
N3E N 0.13528(16) -0.2127(4) 0.7053(2)
N4E N 0.15198(16) -0.2265(5) 0.8200(2)
N5E N 0.18265(14) -0.0851(5) 0.8155(2)
N6E N 0.06817(18) -0.2900(4) 0.7184(2)
N7E N -0.00192(18) -0.3008(4) 0.7311(3)
N8E N 0.01588(17) -0.3002(4) 0.8467(3)
N9E N 0.08534(18) -0.3109(4) 0.8325(3)
N10E N -0.06958(17) -0.2227(5) 0.7444(2)
N11E N -0.10202(14) -0.0860(5) 0.7524(2)
N12E N -0.08741(14) -0.0862(5) 0.8692(2)
N13E N -0.05050(16) -0.2159(6) 0.8601(3)
C1E C 0.16382(15) 0.7482(4) 0.3897(2)
H17E H 0.1584 0.6876 0.4091
H18E H 0.1365 0.7806 0.3823
C2E C 0.19391(15) 0.8066(4) 0.4353(2)
H19E H 0.2209 0.7731 0.4433
H20E H 0.2001 0.8662 0.4149
C4E C 0.14129(16) -0.1301(6) 0.6725(2)
C5E C 0.19403(16) -0.1316(6) 0.7569(2)
H23E H 0.2252 -0.1420 0.7565
C6E C 0.16887(19) -0.2256(6) 0.7566(3)
H24E H 0.1872 -0.2803 0.7493
C7E C 0.16039(17) -0.1466(6) 0.8522(3)
C8E C 0.1061(2) -0.2840(5) 0.6821(3)
H25E H 0.0973 -0.2711 0.6374
H26E H 0.1208 -0.3444 0.6839
C9E C 0.1320(2) -0.3072(6) 0.8476(3)
H27E H 0.1450 -0.3642 0.8317
H28E H 0.1377 -0.3057 0.8939
C10E C 0.0274(2) -0.2684(5) 0.6919(3)
C11E C 0.0655(3) -0.3497(5) 0.7740(3)
H29E H 0.0760 -0.4135 0.7661
C12E C 0.0179(3) -0.3499(5) 0.7856(3)
H30E H 0.0068 -0.4144 0.7883
C13E C 0.0561(2) -0.2863(6) 0.8753(3)
C14E C -0.0484(2) -0.2972(6) 0.7159(3)
H31E H -0.0609 -0.3561 0.7293
H32E H -0.0537 -0.2925 0.6696
C15E C -0.0230(2) -0.2931(7) 0.8820(3)
H33E H -0.0147 -0.2846 0.9274
H34E H -0.0390 -0.3517 0.8773
C16E C -0.08063(17) -0.1415(6) 0.7133(3)
C17E C -0.0849(2) -0.2245(7) 0.8088(3)
H35E H -0.1035 -0.2790 0.8153
C18E C -0.10911(18) -0.1316(7) 0.8133(3)
H36E H -0.1398 -0.1415 0.8189
C19E C -0.05325(19) -0.1370(7) 0.8938(3)
O41? O 0.4432(2) 0.0000 0.3449(4)
O42? O 0.5118(2) 0.0000 0.3346(3)
O43? O 0.4880(4) 0.0554(11) 0.4220(5)
O45? O 0.1015(3) 0.4450(9) 0.5356(4)
O46? O 0.0874(2) 0.4654(8) 0.4152(4)
N15? N 0.4807(3) 0.0000 0.3661(5)
loop_
_geom_bond_atom_site_label_1
_geom_bond_atom_site_label_2
_geom_bond_site_symmetry_1
_geom_bond_site_symmetry_2
U1 O1 1_555 1_555
U2 O3 1_555 1_555
U3 O5 1_555 1_555
U4 O7 1_555 1_555
Dy1 O12 1_555 1_555
Dy2 O33 1_555 1_555
S1 O9 1_555 1_555
S2 O12 1_555 1_555
S3 O15 1_555 1_555
O2 U1 1_555 1_555
O4 U2 1_555 1_555
O6 U3 1_555 1_555
O8 U4 1_555 1_555
O9 U1 1_555 1_555
O10 S1 1_555 1_555
O11 S1 1_555 1_555
O13 S2 1_555 1_555
O14 S2 1_555 1_555
O15 U3 1_555 1_555
O16 S3 1_555 1_555
O17 S3 1_555 1_555
O18 U1 1_555 1_555
H1 O18 1_555 1_555
O19 U1 1_555 1_555
H2 O19 1_555 1_555
H3 O19 1_555 1_555
O20 U2 1_555 1_555
H4 O20 1_555 1_555
H5 O20 1_555 1_555
O21 U2 1_555 1_555
O22 N1 1_555 1_555
O23 N1 1_555 1_555
O24 U3 1_555 1_555
H6 O24 1_555 1_555
O25 U3 1_555 1_555
H7 O25 1_555 1_555
H8 O25 1_555 1_555
O26 U4 1_555 1_555
H9 O26 1_555 1_555
H10 O26 1_555 1_555
O27 U4 1_555 1_555
H11 O27 1_555 1_555
H12 O27 1_555 1_555
O28 Dy1 1_555 1_555
O29 C7 1_555 1_555
O30 C10 1_555 1_555
O31 C13 1_555 1_555
O32 C16 1_555 1_555
O33 C19 1_555 1_555
O34 Dy1 1_555 1_555
H13 O34 1_555 1_555
O35 Dy1 1_555 1_555
O36 Dy1 1_555 1_555
H14 O36 1_555 1_555
H15 O36 1_555 1_555
O37 Dy2 1_555 1_555
O38 N14 1_555 1_555
O39 N14 1_555 1_555
O40 Dy2 1_555 1_555
O44 H16 1_555 1_555
N1 O21 1_555 1_555
N2 C4 1_555 1_555
N3 C4 1_555 1_555
N4 C6 1_555 1_555
N5 C5 1_555 1_555
N6 C8 1_555 1_555
N7 C10 1_555 1_555
N8 C12 1_555 1_555
N9 C9 1_555 1_555
N10 C14 1_555 1_555
N11 C16 1_555 1_555
N12 C18 1_555 1_555
N13 C15 1_555 1_555
N14 O37 1_555 1_555
C1 S1 1_555 1_555
H17 C1 1_555 1_555
H18 C1 1_555 1_555
C2 S2 1_555 1_555
H19 C2 1_555 1_555
H20 C2 1_555 1_555
C3 S3 1_555 1_555
H21 C3 1_555 1_555
H22 C3 1_555 1_555
C4 O28 1_555 1_555
C5 N2 1_555 1_555
H23 C5 1_555 1_555
C6 N3 1_555 1_555
H24 C6 1_555 1_555
C7 N4 1_555 1_555
C8 N3 1_555 1_555
H25 C8 1_555 1_555
H26 C8 1_555 1_555
C9 N4 1_555 1_555
H27 C9 1_555 1_555
H28 C9 1_555 1_555
C10 N6 1_555 1_555
C11 N6 1_555 1_555
H29 C11 1_555 1_555
C12 N7 1_555 1_555
H30 C12 1_555 1_555
C13 N8 1_555 1_555
C14 N7 1_555 1_555
H31 C14 1_555 1_555
H32 C14 1_555 1_555
C15 N8 1_555 1_555
H33 C15 1_555 1_555
H34 C15 1_555 1_555
C16 N10 1_555 1_555
C17 N10 1_555 1_555
H35 C17 1_555 1_555
C18 N11 1_555 1_555
H36 C18 1_555 1_555
C19 N12 1_555 1_555
C20 N11 1_555 1_555
H37 C20 1_555 1_555
H38 C20 1_555 1_555
C21 N12 1_555 1_555
H39 C21 1_555 1_555
H40 C21 1_555 1_555
C22 N2 1_555 1_555
H41 C22 1_555 1_555
H42 C22 1_555 1_555
C23 N5 1_555 1_555
H43 C23 1_555 1_555
H44 C23 1_555 1_555
U3C O15F 1_555 1_555
Dy1_2 O12E 1_555 1_555
Dy2A Dy2 1_555 1_555
S1E O9E 1_555 1_555
S2E O12E 1_555 1_555
S3F O15F 1_555 1_555
O9E U1 1_555 1_555
O10E S1E 1_555 1_555
O11E S1E 1_555 1_555
O12E_2 Dy1 1_555 1_555
O13E S2E 1_555 1_555
O14E S2E 1_555 1_555
O15E U3 1_555 1_555
O16F S3F 1_555 1_555
O17F S3F 1_555 1_555
O18E U1 1_555 1_555
H1E O18E 1_555 1_555
O20E U2 1_555 1_555
H4E O20E 1_555 1_555
H5E O20E 1_555 1_555
O23E N1 1_555 1_555
O24E U3 1_555 1_555
H6E O24E 1_555 1_555
O26E U4 1_555 1_555
H9E O26E 1_555 1_555
H10E O26E 1_555 1_555
O28E Dy1 1_555 1_555
O29E C7E 1_555 1_555
O30E C10E 1_555 1_555
O31E C13E 1_555 1_555
O32E C16E 1_555 1_555
O33E Dy2 1_555 1_555
O33A Dy2 1_555 1_555
O33D Dy2 1_555 1_555
H13E O34 1_555 1_555
O36E Dy1 1_555 1_555
H14E O36E 1_555 1_555
H15E O36E 1_555 1_555
O39E O39 1_555 1_555
O40E Dy2 1_555 1_555
H16E O44 1_555 1_555
N2E C22 1_555 1_555
N3E C4E 1_555 1_555
N4E C6E 1_555 1_555
N5E C23 1_555 1_555
N6E C8E 1_555 1_555
N7E C10E 1_555 1_555
N8E C12E 1_555 1_555
N9E C9E 1_555 1_555
N10E C14E 1_555 1_555
N11E C20 1_555 1_555
N12E C21 1_555 1_555
N13E C15E 1_555 1_555
C1E S1E 1_555 1_555
H17E C1E 1_555 1_555
H18E C1E 1_555 1_555
C2E S2E 1_555 1_555
H19E C2E 1_555 1_555
H20E C2E 1_555 1_555
C3F C3 1_555 1_555
H21F C3F 1_555 1_555
H22F C3F 1_555 1_555
C4E O28E 1_555 1_555
C5E N2E 1_555 1_555
H23E C5E 1_555 1_555
C6E N3E 1_555 1_555
H24E C6E 1_555 1_555
C7E N4E 1_555 1_555
C8E N3E 1_555 1_555
H25E C8E 1_555 1_555
H26E C8E 1_555 1_555
C9E N4E 1_555 1_555
H27E C9E 1_555 1_555
H28E C9E 1_555 1_555
C10E N6E 1_555 1_555
C11E N6E 1_555 1_555
H29E C11E 1_555 1_555
C12E N7E 1_555 1_555
H30E C12E 1_555 1_555
C13E N8E 1_555 1_555
C14E N7E 1_555 1_555
H31E C14E 1_555 1_555
H32E C14E 1_555 1_555
C15E N8E 1_555 1_555
H33E C15E 1_555 1_555
H34E C15E 1_555 1_555
C16E N10E 1_555 1_555
C17E N10E 1_555 1_555
H35E C17E 1_555 1_555
C18E N11E 1_555 1_555
H36E C18E 1_555 1_555
C19E O33E 1_555 1_555
U2 O18 1_555 1_555
U2 O18E 1_555 1_555
U4 O24 1_555 1_555
U4 O24E 1_555 1_555
O33 Dy2A 1_555 1_555
N5 C7 1_555 1_555
N9 C11 1_555 1_555
N9 C13 1_555 1_555
N13 C17 1_555 1_555
N13 C19 1_555 1_555
N14 O39E 1_555 1_555
C1 C2 1_555 1_555
C5 C6 1_555 1_555
C11 C12 1_555 1_555
C17 C18 1_555 1_555
Dy2A O33E 1_555 1_555
Dy2A O33A 1_555 1_555
Dy2A O33D 1_555 1_555
S3F C3F 1_555 1_555
N2E C4E 1_555 1_555
N5E C5E 1_555 1_555
N5E C7E 1_555 1_555
N9E C11E 1_555 1_555
N9E C13E 1_555 1_555
N11E C16E 1_555 1_555
N12E C18E 1_555 1_555
N12E C19E 1_555 1_555
N13E C17E 1_555 1_555
N13E C19E 1_555 1_555
C1E C2E 1_555 1_555
C5E C6E 1_555 1_555
C11E C12E 1_555 1_555
C17E C18E 1_555 1_555

#END
