
#######################################################################
#
#                 Cambridge Crystallographic Data Centre
#                                CCDC 
#
#######################################################################
#
# If this CIF has been generated from an entry in the Cambridge 
# Structural Database, then it will include bibliographic, chemical, 
# crystal, experimental, refinement or atomic coordinate data resulting 
# from the CCDC's data processing and validation procedures.
#
#######################################################################

data_ZAWBOQ
_symmetry_cell_setting           monoclinic
_symmetry_space_group_name_H-M   'C 2/m'
_symmetry_Int_Tables_number      12
_space_group_name_Hall           '-C 2y'
loop_
_symmetry_equiv_pos_site_id
_symmetry_equiv_pos_as_xyz
1 x,y,z
2 -x,y,-z
3 1/2+x,1/2+y,z
4 1/2-x,1/2+y,-z
5 -x,-y,-z
6 x,-y,z
7 1/2-x,1/2-y,-z
8 1/2+x,1/2-y,z
_cell_length_a                   31.3656(7)
_cell_length_b                   14.1509(6)
_cell_length_c                   12.4299(5)
_cell_angle_alpha                90
_cell_angle_beta                 99.607(3)
_cell_angle_gamma                90
_cell_volume                     5439.66
loop_
_atom_site_label
_atom_site_type_symbol
_atom_site_fract_x
_atom_site_fract_y
_atom_site_fract_z
U1 U 0.693403(7) 1.0000 0.422185(18)
U2 U 0.691390(7) 1.0000 0.722366(19)
Nd1 Nd 0.583247(12) 0.5000 -0.08852(3)
S1 S 0.71324(4) 0.76607(9) 0.31268(9)
S2 S 0.67022(5) 0.67256(10) -0.01979(10)
O1 O 0.74978(13) 1.0000 0.4226(4)
O2 O 0.63673(13) 1.0000 0.4188(4)
O3 O 0.74743(15) 1.0000 0.7776(4)
O4 O 0.63544(15) 1.0000 0.6732(4)
O5 O 0.68882(11) 0.8369(2) 0.3651(3)
O6 O 0.71697(11) 0.6777(3) 0.3711(3)
O7 O 0.75423(10) 0.8017(3) 0.2906(3)
O8 O 0.63761(15) 0.6048(3) 0.0015(3)
O9 O 0.69838(16) 0.6351(3) -0.0895(3)
O10 O 0.65131(12) 0.7613(3) -0.0580(3)
O11 O 0.70184(10) 0.9061(2) 0.5782(2)
H1 H 0.7315 0.8912 0.5932
O12 O 0.67927(17) 1.0000 0.2243(4)
H2 H 0.6960 1.0000 0.1803
H3 H 0.6548 1.0000 0.1978
O13 O 0.68725(12) 0.8322(3) 0.7752(3)
H4 H 0.6997 0.7831 0.7466
H5 H 0.6632 0.8030 0.7923
O14 O 0.67417(18) 1.0000 0.9033(4)
H6 H 0.6870 1.0000 0.9656
H7 H 0.6474 1.0000 0.8972
O15 O 0.59915(10) 0.6060(3) -0.2319(3)
O16 O 0.59532(12) 0.6248(3) -0.7141(3)
O17 O 0.50022(12) 0.7342(3) -0.2559(3)
O18 O 0.53840(17) 0.6329(4) -0.0696(5)
H8 H 0.5262 0.6849 -0.0953
H9 H 0.5412 0.6454 0.0056
O19 O 0.5721(2) 0.5000 0.1084(5)
H10 H 0.5815 0.5517 0.1555
O20 O 0.5146(3) 0.5000 -0.2226(8)
H11 H 0.4938 0.5516 -0.2416
N1 N 0.64624(12) 0.5854(3) -0.3524(3)
N2 N 0.60397(12) 0.7125(3) -0.3688(3)
N3 N 0.60508(13) 0.7220(3) -0.5645(3)
N4 N 0.63843(13) 0.5857(3) -0.5519(3)
N5 N 0.53571(14) 0.7931(3) -0.3894(4)
N6 N 0.53549(14) 0.8010(3) -0.5845(4)
C1 C 0.67970(16) 0.7470(4) 0.1841(4)
H12 H 0.6542 0.7118 0.1947
H13 H 0.6703 0.8074 0.1516
C2 C 0.70359(18) 0.6931(4) 0.1081(4)
H14 H 0.7133 0.6330 0.1411
H15 H 0.7289 0.7287 0.0969
C3 C 0.61503(15) 0.6319(4) -0.3110(4)
C4 C 0.65625(15) 0.6315(4) -0.4503(4)
H16 H 0.6873 0.6435 -0.4451
C5 C 0.62989(16) 0.7248(4) -0.4553(4)
H17 H 0.6486 0.7805 -0.4435
C6 C 0.61114(16) 0.6408(4) -0.6187(4)
C7 C 0.57948(16) 0.7855(4) -0.3292(4)
H18 H 0.5942 0.8453 -0.3334
H19 H 0.5781 0.7734 -0.2530
C8 C 0.57901(18) 0.7986(4) -0.6134(5)
H20 H 0.5764 0.7939 -0.6921
H21 H 0.5936 0.8577 -0.5912
C9 C 0.50022(16) 0.7718(4) -0.3448(4)
C10 C 0.52508(17) 0.8460(4) -0.4902(4)
H22 H 0.5367 0.9104 -0.4823
C11 C 0.6665(2) 0.5000 -0.3067(5)
H23 H 0.6665 0.5000 -0.2287
H24 H 0.6965 0.5000 -0.3175
C12 C 0.6568(2) 0.5000 -0.5912(6)
H25 H 0.6879 0.5000 -0.5671
H26 H 0.6515 0.5000 -0.6703
U1_2 U 0.693403(7) 0.0000 0.422185(18)
U1_3 U 0.693403(7) 2.0000 0.422185(18)
U2_2 U 0.691390(7) 0.0000 0.722366(19)
Nd1_2 Nd 0.583247(12) 1.5000 -0.08852(3)
Nd1A Nd 0.416753(12) 0.5000 -0.91148(3)
S1E S 0.71324(4) 1.23393(9) 0.31268(9)
S1E_2 S 0.71324(4) 0.23393(9) 0.31268(9)
S1_2 S 0.71324(4) 1.76607(9) 0.31268(9)
S2E S 0.67022(5) 1.32744(10) -0.01979(10)
S2E_2 S 0.67022(5) 0.32744(10) -0.01979(10)
S2_2 S 0.67022(5) 1.67256(10) -0.01979(10)
O1_2 O 0.74978(13) 0.0000 0.4226(4)
O2_2 O 0.63673(13) 0.0000 0.4188(4)
O3_2 O 0.74743(15) 0.0000 0.7776(4)
O4_2 O 0.63544(15) 0.0000 0.6732(4)
O5E O 0.68882(11) 1.1631(2) 0.3651(3)
O5E_2 O 0.68882(11) 0.1631(2) 0.3651(3)
O5_2 O 0.68882(11) 1.8369(2) 0.3651(3)
O5_3 O 0.68882(11) -0.1631(2) 0.3651(3)
O6E O 0.71697(11) 1.3223(3) 0.3711(3)
O6E_2 O 0.71697(11) 0.3223(3) 0.3711(3)
O6_2 O 0.71697(11) 1.6777(3) 0.3711(3)
O7E O 0.75423(10) 1.1983(3) 0.2906(3)
O7E_2 O 0.75423(10) 0.1983(3) 0.2906(3)
O7_2 O 0.75423(10) 1.8017(3) 0.2906(3)
O8E O 0.63761(15) 1.3952(3) 0.0015(3)
O8E_2 O 0.63761(15) 0.3952(3) 0.0015(3)
O8_2 O 0.63761(15) 1.6048(3) 0.0015(3)
O9E O 0.69838(16) 1.3649(3) -0.0895(3)
O9E_2 O 0.69838(16) 0.3649(3) -0.0895(3)
O9_2 O 0.69838(16) 1.6351(3) -0.0895(3)
O10E O 0.65131(12) 1.2387(3) -0.0580(3)
O10E_2 O 0.65131(12) 0.2387(3) -0.0580(3)
O10_2 O 0.65131(12) 1.7613(3) -0.0580(3)
O11E O 0.70184(10) 1.0939(2) 0.5782(2)
O11E_2 O 0.70184(10) 0.0939(2) 0.5782(2)
O11_2 O 0.70184(10) -0.0939(2) 0.5782(2)
H1E H 0.7315 1.1088 0.5932
H1E_2 H 0.7315 0.1088 0.5932
H1_2 H 0.7315 -0.1088 0.5932
O12_2 O 0.67927(17) 0.0000 0.2243(4)
H2_2 H 0.6960 0.0000 0.1803
H3_2 H 0.6548 0.0000 0.1978
O13E O 0.68725(12) 1.1678(3) 0.7752(3)
O13E_2 O 0.68725(12) 0.1678(3) 0.7752(3)
O13_2 O 0.68725(12) -0.1678(3) 0.7752(3)
H4E H 0.6997 1.2169 0.7466
H4E_2 H 0.6997 0.2169 0.7466
H4_2 H 0.6997 -0.2169 0.7466
H5E H 0.6632 1.1970 0.7923
H5E_2 H 0.6632 0.1970 0.7923
H5_2 H 0.6632 -0.1970 0.7923
O14_2 O 0.67417(18) 0.0000 0.9033(4)
H6_2 H 0.6870 0.0000 0.9656
H7_2 H 0.6474 0.0000 0.8972
O15A O 0.40085(10) 0.6060(3) -0.7681(3)
O15D O 0.40085(10) 0.3940(3) -0.7681(3)
O15E O 0.59915(10) 0.3940(3) -0.2319(3)
O15E_2 O 0.59915(10) 1.3940(3) -0.2319(3)
O15_2 O 0.59915(10) 1.6060(3) -0.2319(3)
O16A O 0.40468(12) 0.6248(3) -0.2859(3)
O16D O 0.40468(12) 0.3752(3) -0.2859(3)
O16E O 0.59532(12) 0.3752(3) -0.7141(3)
O17E O 0.50022(12) 0.2658(3) -0.2559(3)
O17D O 0.49978(12) 0.2658(3) -0.7441(3)
O17A O 0.49978(12) 0.7342(3) -0.7441(3)
O18E O 0.53840(17) 0.3671(4) -0.0696(5)
O18E_2 O 0.53840(17) 1.3671(4) -0.0696(5)
O18_2 O 0.53840(17) 1.6329(4) -0.0696(5)
H8E H 0.5262 0.3151 -0.0953
H8E_2 H 0.5262 1.3151 -0.0953
H8_2 H 0.5262 1.6849 -0.0953
H9E H 0.5412 0.3546 0.0056
H9E_2 H 0.5412 1.3546 0.0056
H9_2 H 0.5412 1.6454 0.0056
O19_2 O 0.5721(2) 1.5000 0.1084(5)
H10E H 0.5815 0.4483 0.1555
H10E_2 H 0.5815 1.4483 0.1555
H10_2 H 0.5815 1.5517 0.1555
O20_2 O 0.5146(3) 1.5000 -0.2226(8)
H11E H 0.4938 0.4484 -0.2416
H11E_2 H 0.4938 1.4484 -0.2416
H11_2 H 0.4938 1.5516 -0.2416
N1A N 0.35376(12) 0.5854(3) -0.6476(3)
N1D N 0.35376(12) 0.4146(3) -0.6476(3)
N1E N 0.64624(12) 0.4146(3) -0.3524(3)
N2A N 0.39603(12) 0.7125(3) -0.6312(3)
N2D N 0.39603(12) 0.2875(3) -0.6312(3)
N2E N 0.60397(12) 0.2875(3) -0.3688(3)
N3A N 0.39492(13) 0.7220(3) -0.4355(3)
N3D N 0.39492(13) 0.2780(3) -0.4355(3)
N3E N 0.60508(13) 0.2780(3) -0.5645(3)
N4A N 0.36157(13) 0.5857(3) -0.4481(3)
N4D N 0.36157(13) 0.4143(3) -0.4481(3)
N4E N 0.63843(13) 0.4143(3) -0.5519(3)
N5E N 0.53571(14) 0.2069(3) -0.3894(4)
N5D N 0.46429(14) 0.2069(3) -0.6106(4)
N5A N 0.46429(14) 0.7931(3) -0.6106(4)
N6A N 0.46451(14) 0.8010(3) -0.4155(4)
N6D N 0.46451(14) 0.1990(3) -0.4155(4)
N6E N 0.53549(14) 0.1990(3) -0.5845(4)
C1E C 0.67970(16) 1.2530(4) 0.1841(4)
C1E_2 C 0.67970(16) 0.2530(4) 0.1841(4)
C1_2 C 0.67970(16) 1.7470(4) 0.1841(4)
H12E H 0.6542 1.2882 0.1947
H12E_2 H 0.6542 0.2882 0.1947
H12_2 H 0.6542 1.7118 0.1947
H13E H 0.6703 1.1926 0.1516
H13E_2 H 0.6703 0.1926 0.1516
H13_2 H 0.6703 1.8074 0.1516
C2E C 0.70359(18) 1.3069(4) 0.1081(4)
C2E_2 C 0.70359(18) 0.3069(4) 0.1081(4)
C2_2 C 0.70359(18) 1.6931(4) 0.1081(4)
H14E H 0.7133 1.3670 0.1411
H14E_2 H 0.7133 0.3670 0.1411
H14_2 H 0.7133 1.6330 0.1411
H15E H 0.7289 1.2713 0.0969
H15E_2 H 0.7289 0.2713 0.0969
H15_2 H 0.7289 1.7287 0.0969
C3A C 0.38497(15) 0.6319(4) -0.6890(4)
C3D C 0.38497(15) 0.3681(4) -0.6890(4)
C3E C 0.61503(15) 0.3681(4) -0.3110(4)
C4A C 0.34375(15) 0.6315(4) -0.5497(4)
C4D C 0.34375(15) 0.3685(4) -0.5497(4)
C4E C 0.65625(15) 0.3685(4) -0.4503(4)
H16E H 0.6873 0.3565 -0.4451
H16D H 0.3127 0.3565 -0.5549
H16A H 0.3127 0.6435 -0.5549
C5A C 0.37011(16) 0.7248(4) -0.5447(4)
C5D C 0.37011(16) 0.2752(4) -0.5447(4)
C5E C 0.62989(16) 0.2752(4) -0.4553(4)
H17E H 0.6486 0.2195 -0.4435
H17D H 0.3514 0.2195 -0.5565
H17A H 0.3514 0.7805 -0.5565
C6A C 0.38886(16) 0.6408(4) -0.3813(4)
C6D C 0.38886(16) 0.3592(4) -0.3813(4)
C6E C 0.61114(16) 0.3592(4) -0.6187(4)
C7E C 0.57948(16) 0.2145(4) -0.3292(4)
C7D C 0.42052(16) 0.2145(4) -0.6708(4)
C7A C 0.42052(16) 0.7855(4) -0.6708(4)
H18D H 0.4058 0.1547 -0.6666
H18E H 0.5942 0.1547 -0.3334
H18A H 0.4058 0.8453 -0.6666
H19D H 0.4219 0.2266 -0.7470
H19E H 0.5781 0.2266 -0.2530
H19A H 0.4219 0.7734 -0.7470
C8A C 0.42099(18) 0.7986(4) -0.3866(5)
C8D C 0.42099(18) 0.2014(4) -0.3866(5)
C8E C 0.57901(18) 0.2014(4) -0.6134(5)
H20E H 0.5764 0.2061 -0.6921
H20D H 0.4236 0.2061 -0.3079
H20A H 0.4236 0.7939 -0.3079
H21E H 0.5936 0.1423 -0.5912
H21D H 0.4064 0.1423 -0.4088
H21A H 0.4064 0.8577 -0.4088
C9E C 0.50022(16) 0.2282(4) -0.3448(4)
C9D C 0.49978(16) 0.2282(4) -0.6552(4)
C9A C 0.49978(16) 0.7718(4) -0.6552(4)
C10D C 0.47492(17) 0.1540(4) -0.5098(4)
C10E C 0.52508(17) 0.1540(4) -0.4902(4)
C10A C 0.47492(17) 0.8460(4) -0.5098(4)
H22E H 0.5367 0.0896 -0.4823
H22D H 0.4633 0.0896 -0.5177
H22A H 0.4633 0.9104 -0.5177
C11A C 0.3335(2) 0.5000 -0.6933(5)
H23A H 0.3335 0.5000 -0.7713
H24A H 0.3035 0.5000 -0.6825
C12A C 0.3432(2) 0.5000 -0.4088(6)
H25A H 0.3121 0.5000 -0.4329
H26A H 0.3485 0.5000 -0.3297
O21 O 0.4960(4) 1.0000 0.1549(13)
O22 O 0.5363(4) 1.0000 0.2972(12)
O23 O 0.4680(4) 1.0000 0.2878(11)
N7 N 0.4988(4) 1.0000 0.2518(10)
O24 O 0.73776(16) 1.0000 0.0858(5)
O25 O 0.5956(3) 0.9341(9) 0.9300(9)
O26 O 0.5975(3) 1.0000 0.1431(10)
O27 O 0.5562(3) 0.7650(9) 0.0901(9)
loop_
_geom_bond_atom_site_label_1
_geom_bond_atom_site_label_2
_geom_bond_site_symmetry_1
_geom_bond_site_symmetry_2
U1 O1 1_555 1_555
U2 O3 1_555 1_555
Nd1 O8 1_555 1_555
S1 O5 1_555 1_555
S2 O8 1_555 1_555
O2 U1 1_555 1_555
O4 U2 1_555 1_555
O5 U1 1_555 1_555
O6 S1 1_555 1_555
O7 S1 1_555 1_555
O9 S2 1_555 1_555
O10 S2 1_555 1_555
O11 U1 1_555 1_555
H1 O11 1_555 1_555
O12 U1 1_555 1_555
H2 O12 1_555 1_555
H3 O12 1_555 1_555
O13 U2 1_555 1_555
H4 O13 1_555 1_555
H5 O13 1_555 1_555
O14 U2 1_555 1_555
H6 O14 1_555 1_555
H7 O14 1_555 1_555
O15 Nd1 1_555 1_555
O16 C6 1_555 1_555
O17 C9 1_555 1_555
O18 Nd1 1_555 1_555
H8 O18 1_555 1_555
H9 O18 1_555 1_555
O19 Nd1 1_555 1_555
H10 O19 1_555 1_555
O20 Nd1 1_555 1_555
H11 O20 1_555 1_555
O21 N7 1_555 1_555
O22 N7 1_555 1_555
O23 N7 1_555 1_555
N1 C3 1_555 1_555
N2 C3 1_555 1_555
N3 C5 1_555 1_555
N4 C4 1_555 1_555
N5 C7 1_555 1_555
N6 C8 1_555 1_555
C1 S1 1_555 1_555
H12 C1 1_555 1_555
H13 C1 1_555 1_555
C2 S2 1_555 1_555
H14 C2 1_555 1_555
H15 C2 1_555 1_555
C3 O15 1_555 1_555
C4 N1 1_555 1_555
H16 C4 1_555 1_555
C5 N2 1_555 1_555
H17 C5 1_555 1_555
C6 N3 1_555 1_555
C7 N2 1_555 1_555
H18 C7 1_555 1_555
H19 C7 1_555 1_555
C8 N3 1_555 1_555
H20 C8 1_555 1_555
H21 C8 1_555 1_555
C9 N5 1_555 1_555
C10 N5 1_555 1_555
H22 C10 1_555 1_555
C11 N1 1_555 1_555
H23 C11 1_555 1_555
H24 C11 1_555 1_555
C12 N4 1_555 1_555
H25 C12 1_555 1_555
H26 C12 1_555 1_555
U1_2 O1_2 1_555 1_555
U1_3 O5_2 1_555 1_555
U2_2 O3_2 1_555 1_555
Nd1_2 O8E 1_555 1_555
Nd1A O15A 1_555 1_555
S1E O5E 1_555 1_555
S1E_2 O5E_2 1_555 1_555
S1_2 O5_2 1_555 1_555
S2E O8E 1_555 1_555
S2E_2 O8E_2 1_555 1_555
S2_2 O8_2 1_555 1_555
O2_2 U1_2 1_555 1_555
O4_2 U2_2 1_555 1_555
O5E U1 1_555 1_555
O5E_2 U1_2 1_555 1_555
O5_3 U1_2 1_555 1_555
O6E S1E 1_555 1_555
O6E_2 S1E_2 1_555 1_555
O6_2 S1_2 1_555 1_555
O7E S1E 1_555 1_555
O7E_2 S1E_2 1_555 1_555
O7_2 S1_2 1_555 1_555
O8E_2 Nd1 1_555 1_555
O8_2 Nd1_2 1_555 1_555
O9E S2E 1_555 1_555
O9E_2 S2E_2 1_555 1_555
O9_2 S2_2 1_555 1_555
O10E S2E 1_555 1_555
O10E_2 S2E_2 1_555 1_555
O10_2 S2_2 1_555 1_555
O11E U1 1_555 1_555
O11E_2 U1_2 1_555 1_555
O11_2 U1_2 1_555 1_555
H1E O11E 1_555 1_555
H1E_2 O11E_2 1_555 1_555
H1_2 O11_2 1_555 1_555
O12_2 U1_2 1_555 1_555
H2_2 O12_2 1_555 1_555
H3_2 O12_2 1_555 1_555
O13E U2 1_555 1_555
O13E_2 U2_2 1_555 1_555
O13_2 U2_2 1_555 1_555
H4E O13E 1_555 1_555
H4E_2 O13E_2 1_555 1_555
H4_2 O13_2 1_555 1_555
H5E O13E 1_555 1_555
H5E_2 O13E_2 1_555 1_555
H5_2 O13_2 1_555 1_555
O14_2 U2_2 1_555 1_555
H6_2 O14_2 1_555 1_555
H7_2 O14_2 1_555 1_555
O15A C3A 1_555 1_555
O15D Nd1A 1_555 1_555
O15E Nd1 1_555 1_555
O15E_2 Nd1_2 1_555 1_555
O15_2 Nd1_2 1_555 1_555
O16A C6A 1_555 1_555
O16D C6D 1_555 1_555
O16E C6E 1_555 1_555
O17E C9E 1_555 1_555
O17D C9D 1_555 1_555
O17A C9A 1_555 1_555
O18E Nd1 1_555 1_555
O18E_2 Nd1_2 1_555 1_555
O18_2 Nd1_2 1_555 1_555
H8E O18E 1_555 1_555
H8E_2 O18E_2 1_555 1_555
H8_2 O18_2 1_555 1_555
H9E O18E 1_555 1_555
H9E_2 O18E_2 1_555 1_555
H9_2 O18_2 1_555 1_555
O19_2 Nd1_2 1_555 1_555
H10E O19 1_555 1_555
H10E_2 O19_2 1_555 1_555
H10_2 O19_2 1_555 1_555
O20_2 Nd1_2 1_555 1_555
H11E O20 1_555 1_555
H11E_2 O20_2 1_555 1_555
H11_2 O20_2 1_555 1_555
N1A C3A 1_555 1_555
N1D C3D 1_555 1_555
N1E C11 1_555 1_555
N2A C3A 1_555 1_555
N2D C3D 1_555 1_555
N2E C3E 1_555 1_555
N3A C5A 1_555 1_555
N3D C5D 1_555 1_555
N3E C5E 1_555 1_555
N4A C4A 1_555 1_555
N4D C4D 1_555 1_555
N4E C12 1_555 1_555
N5E C7E 1_555 1_555
N5D C7D 1_555 1_555
N5A C7A 1_555 1_555
N6A C9 1_555 1_555
N6D C8D 1_555 1_555
N6E C8E 1_555 1_555
C1E S1E 1_555 1_555
C1E_2 S1E_2 1_555 1_555
C1_2 S1_2 1_555 1_555
H12E C1E 1_555 1_555
H12E_2 C1E_2 1_555 1_555
H12_2 C1_2 1_555 1_555
H13E C1E 1_555 1_555
H13E_2 C1E_2 1_555 1_555
H13_2 C1_2 1_555 1_555
C2E S2E 1_555 1_555
C2E_2 S2E_2 1_555 1_555
C2_2 S2_2 1_555 1_555
H14E C2E 1_555 1_555
H14E_2 C2E_2 1_555 1_555
H14_2 C2_2 1_555 1_555
H15E C2E 1_555 1_555
H15E_2 C2E_2 1_555 1_555
H15_2 C2_2 1_555 1_555
C3D O15D 1_555 1_555
C3E O15E 1_555 1_555
C4A N1A 1_555 1_555
C4D N1D 1_555 1_555
C4E N1E 1_555 1_555
H16E C4E 1_555 1_555
H16D C4D 1_555 1_555
H16A C4A 1_555 1_555
C5A N2A 1_555 1_555
C5D N2D 1_555 1_555
C5E N2E 1_555 1_555
H17E C5E 1_555 1_555
H17D C5D 1_555 1_555
H17A C5A 1_555 1_555
C6A N3A 1_555 1_555
C6D N3D 1_555 1_555
C6E N3E 1_555 1_555
C7E N2E 1_555 1_555
C7D N2D 1_555 1_555
C7A N2A 1_555 1_555
H18D C7D 1_555 1_555
H18E C7E 1_555 1_555
H18A C7A 1_555 1_555
H19D C7D 1_555 1_555
H19E C7E 1_555 1_555
H19A C7A 1_555 1_555
C8A N3A 1_555 1_555
C8D N3D 1_555 1_555
C8E N3E 1_555 1_555
H20E C8E 1_555 1_555
H20D C8D 1_555 1_555
H20A C8A 1_555 1_555
H21E C8E 1_555 1_555
H21D C8D 1_555 1_555
H21A C8A 1_555 1_555
C9E N5E 1_555 1_555
C9D N5D 1_555 1_555
C9A N6 1_555 1_555
C10D N5D 1_555 1_555
C10E N5E 1_555 1_555
C10A C10 1_555 1_555
H22E C10E 1_555 1_555
H22D C10D 1_555 1_555
H22A C10A 1_555 1_555
C11A N1A 1_555 1_555
H23A C11A 1_555 1_555
H24A C11A 1_555 1_555
C12A N4A 1_555 1_555
H25A C12A 1_555 1_555
H26A C12A 1_555 1_555
U2 O11 1_555 1_555
U2 O11E 1_555 1_555
N4 C6 1_555 1_555
N6 C10 1_555 1_555
C1 C2 1_555 1_555
C4 C5 1_555 1_555
U2_2 O11E_2 1_555 1_555
U2_2 O11_2 1_555 1_555
N1D C11A 1_555 1_555
N1E C3E 1_555 1_555
N4A C6A 1_555 1_555
N4D C6D 1_555 1_555
N4D C12A 1_555 1_555
N4E C4E 1_555 1_555
N4E C6E 1_555 1_555
N5A C9A 1_555 1_555
N5A C10A 1_555 1_555
N6A C8A 1_555 1_555
N6A C10A 1_555 1_555
N6D C9E 1_555 1_555
N6D C10D 1_555 1_555
N6E C9D 1_555 1_555
N6E C10E 1_555 1_555
C1E C2E 1_555 1_555
C1E_2 C2E_2 1_555 1_555
C1_2 C2_2 1_555 1_555
C4A C5A 1_555 1_555
C4D C5D 1_555 1_555
C4E C5E 1_555 1_555
C10D C10E 1_555 1_555

#END
