
#######################################################################
#
#                 Cambridge Crystallographic Data Centre
#                                CCDC 
#
#######################################################################
#
# If this CIF has been generated from an entry in the Cambridge 
# Structural Database, then it will include bibliographic, chemical, 
# crystal, experimental, refinement or atomic coordinate data resulting 
# from the CCDC's data processing and validation procedures.
#
#######################################################################

data_ZAWCEH
_symmetry_cell_setting           monoclinic
_symmetry_space_group_name_H-M   'C 2/m'
_symmetry_Int_Tables_number      12
_space_group_name_Hall           '-C 2y'
loop_
_symmetry_equiv_pos_site_id
_symmetry_equiv_pos_as_xyz
1 x,y,z
2 -x,y,-z
3 1/2+x,1/2+y,z
4 1/2-x,1/2+y,-z
5 -x,-y,-z
6 x,-y,z
7 1/2-x,1/2-y,-z
8 1/2+x,1/2-y,z
_cell_length_a                   31.1082(12)
_cell_length_b                   14.1633(4)
_cell_length_c                   20.7953(8)
_cell_angle_alpha                90
_cell_angle_beta                 93.892(2)
_cell_angle_gamma                90
_cell_volume                     9141.17
loop_
_atom_site_label
_atom_site_type_symbol
_atom_site_fract_x
_atom_site_fract_y
_atom_site_fract_z
U3 U 0.256460(9) 0.0000 0.156165(12)
U4 U 0.284697(9) 0.0000 0.335030(12)
S3 S 0.22506(5) 0.23816(11) 0.09523(6)
O5 O 0.31416(18) 0.0000 0.1544(2)
O6 O 0.19983(18) 0.0000 0.1573(2)
O7 O 0.33773(18) 0.0000 0.3083(2)
O8 O 0.23260(18) 0.0000 0.3647(2)
O15 O 0.25445(14) 0.1623(3) 0.11774(17)
O16 O 0.22787(16) 0.3158(4) 0.1396(3)
O17 O 0.18239(16) 0.2061(3) 0.0797(2)
O24 O 0.26294(12) 0.0941(3) 0.24797(15)
H6 H 0.2377 0.1136 0.2544
O25 O 0.2519(2) 0.0000 0.0399(3)
H7 H 0.2696 0.0000 0.0022
H8 H 0.2270 0.0000 0.0179
O26 O 0.29268(13) 0.1672(3) 0.36996(17)
H9 H 0.2727 0.2188 0.3583
H10 H 0.3122 0.2024 0.4015
O27 O 0.31728(19) 0.0000 0.4427(2)
H11 H 0.3110 0.0000 0.4865
H12 H 0.3475 0.0000 0.4509
C3 C 0.2472(3) 0.2819(6) 0.0244(3)
H21 H 0.2288 0.3323 0.0072
H22 H 0.2751 0.3097 0.0369
O15E O 0.25445(14) -0.1623(3) 0.11774(17)
O24E O 0.26294(12) -0.0941(3) 0.24797(15)
O26E O 0.29268(13) -0.1672(3) 0.36996(17)
C3F C 0.2528(3) 0.2181(6) -0.0244(3)
O41 O 0.4437(3) 0.0000 0.3471(5)
O42 O 0.5121(3) 0.0000 0.3351(3)
N15 N 0.4814(4) 0.0000 0.3672(5)
O44 O 0.22898(19) 0.5000 0.4514(3)
H16 H 0.2459 0.4541 0.4573
H16E H 0.2459 0.5459 0.4573
O47 O 0.1726(2) 0.0000 0.0024(3)
O48 O 0.0587(4) 0.2851(8) 0.4588(5)
U1 U 0.156500(9) 0.5000 0.245825(11)
U2 U 0.126257(10) 0.5000 0.067339(12)
Yb1 Yb 0.090510(12) 0.0000 0.546551(15)
Yb2 Yb 0.01440(3) 0.0000 0.97641(4)
S1 S 0.18745(5) 0.26888(10) 0.31531(6)
S2 S 0.17042(5) 0.17003(11) 0.50964(6)
O1 O 0.09950(16) 0.5000 0.2484(2)
O2 O 0.21335(17) 0.5000 0.2460(2)
O3 O 0.07552(18) 0.5000 0.0992(3)
O4 O 0.1780(2) 0.5000 0.0357(3)
O9 O 0.15833(13) 0.3371(3) 0.28045(16)
O10 O 0.18695(13) 0.1784(3) 0.28232(17)
O11 O 0.23033(13) 0.3062(3) 0.33066(18)
O12 O 0.13527(15) 0.1011(3) 0.49531(17)
O13 O 0.20568(15) 0.1328(3) 0.55128(17)
O14 O 0.15446(14) 0.2599(3) 0.53214(17)
O18 O 0.14994(13) 0.4069(3) 0.15332(15)
H1 H 0.1716 0.3793 0.1456
O19 O 0.16034(19) 0.5000 0.3622(2)
H2 H 0.1848 0.5000 0.3896
H3 H 0.1403 0.5000 0.3852
O20 O 0.11770(15) 0.3328(3) 0.03283(19)
H4 H 0.1328 0.2816 0.0437
H5 H 0.0996 0.3081 -0.0001
O21 O 0.0963(3) 0.5000 -0.0420(3)
O22 O 0.0439(3) 0.5000 -0.1166(3)
O23 O 0.0385(4) 0.4297(8) -0.0240(5)
O28 O 0.11765(13) 0.1014(4) 0.62500(16)
O29 O 0.15089(16) 0.1305(5) 0.90739(19)
O30 O 0.01920(16) 0.2278(3) 0.6388(2)
O31 O 0.06434(18) 0.2573(5) 0.9302(2)
O32 O -0.07401(16) 0.1243(4) 0.65710(18)
O33 O -0.02843(18) 0.1149(6) 0.9412(2)
O34 O 0.06299(19) 0.0000 0.4395(2)
H13 H 0.0485 0.0489 0.4265
O35 O 0.0387(3) 0.0000 0.6271(4)
O36 O 0.04427(16) 0.1270(4) 0.5328(2)
H14 H 0.0506 0.1674 0.5618
H15 H 0.0520 0.1557 0.4963
O37 O 0.0088(5) 0.0000 0.8574(7)
O38 O 0.0746(7) 0.0000 0.8237(9)
O40 O 0.0664(4) 0.0841(9) 0.9494(5)
N1 N 0.0578(4) 0.5000 -0.0606(5)
N2 N 0.17673(16) 0.0845(5) 0.6975(2)
N3 N 0.13518(19) 0.2125(4) 0.7046(2)
N4 N 0.15214(18) 0.2278(5) 0.8188(2)
N5 N 0.18291(17) 0.0861(5) 0.8147(2)
N6 N 0.0681(2) 0.2901(4) 0.7179(3)
N7 N -0.0021(2) 0.3002(4) 0.7311(3)
N8 N 0.0162(2) 0.3002(5) 0.8467(3)
N9 N 0.0855(2) 0.3112(4) 0.8318(3)
N10 N -0.0696(2) 0.2214(5) 0.7450(3)
N11 N -0.10233(17) 0.0846(5) 0.7536(2)
N12 N -0.08747(19) 0.0853(6) 0.8700(2)
N13 N -0.05025(19) 0.2144(6) 0.8612(3)
N14 N 0.0360(8) 0.0000 0.8116(10)
C1 C 0.16287(18) 0.2507(4) 0.3904(2)
H17 H 0.1575 0.3111 0.4102
H18 H 0.1355 0.2185 0.3824
C2 C 0.19276(19) 0.1914(5) 0.4357(2)
H19 H 0.2200 0.2241 0.4436
H20 H 0.1984 0.1316 0.4152
C4 C 0.1415(2) 0.1293(5) 0.6715(2)
C5 C 0.1943(2) 0.1328(6) 0.7561(3)
H23 H 0.2254 0.1437 0.7556
C6 C 0.1686(2) 0.2260(6) 0.7562(3)
H24 H 0.1867 0.2809 0.7486
C7 C 0.1606(2) 0.1474(7) 0.8519(3)
C8 C 0.1061(2) 0.2837(5) 0.6812(3)
H25 H 0.0971 0.2705 0.6365
H26 H 0.1208 0.3441 0.6828
C9 C 0.1318(3) 0.3077(6) 0.8462(4)
H27 H 0.1445 0.3649 0.8302
H28 H 0.1376 0.3063 0.8926
C10 C 0.0280(3) 0.2682(5) 0.6913(3)
C11 C 0.0656(3) 0.3490(5) 0.7736(3)
H29 H 0.0759 0.4130 0.7656
C12 C 0.0176(3) 0.3491(6) 0.7856(3)
H30 H 0.0064 0.4136 0.7883
C13 C 0.0568(2) 0.2862(6) 0.8744(3)
C14 C -0.0481(3) 0.2970(7) 0.7158(3)
H31 H -0.0606 0.3560 0.7290
H32 H -0.0533 0.2920 0.6694
C15 C -0.0223(3) 0.2926(7) 0.8825(4)
H33 H -0.0384 0.3511 0.8779
H34 H -0.0137 0.2844 0.9279
C16 C -0.0804(2) 0.1411(6) 0.7138(3)
C17 C -0.0845(2) 0.2244(7) 0.8093(3)
H35 H -0.1028 0.2794 0.8157
C18 C -0.1091(2) 0.1317(7) 0.8141(3)
H36 H -0.1398 0.1423 0.8197
C19 C -0.0531(2) 0.1358(8) 0.8945(3)
C20 C -0.1242(3) 0.0000 0.7316(4)
H37 H -0.1531 0.0000 0.7467
H38 H -0.1269 0.0000 0.6849
C21 C -0.1021(4) 0.0000 0.8980(5)
H39 H -0.0929 0.0000 0.9435
H40 H -0.1334 0.0000 0.8946
C22 C 0.1935(3) 0.0000 0.6707(4)
H41 H 0.2246 0.0000 0.6780
H42 H 0.1866 0.0000 0.6245
C23 C 0.2031(3) 0.0000 0.8389(4)
H43 H 0.2030 0.0000 0.8855
H44 H 0.2329 0.0000 0.8280
Yb2A Yb -0.01440(3) 0.0000 1.02359(4)
O9E O 0.15833(13) 0.6629(3) 0.28045(16)
O12E O 0.13527(15) -0.1011(3) 0.49531(17)
O18E O 0.14994(13) 0.5931(3) 0.15332(15)
O20E O 0.11770(15) 0.6672(3) 0.03283(19)
O23E O 0.0385(4) 0.5703(8) -0.0240(5)
O28E O 0.11765(13) -0.1014(4) 0.62500(16)
O33A O 0.02843(18) 0.1149(6) 1.0588(2)
O33D O 0.02843(18) -0.1149(6) 1.0588(2)
O33E O -0.02843(18) -0.1149(6) 0.9412(2)
H13E H 0.0485 -0.0489 0.4265
O36E O 0.04427(16) -0.1270(4) 0.5328(2)
O40E O 0.0664(4) -0.0841(9) 0.9494(5)
N2E N 0.17673(16) -0.0845(5) 0.6975(2)
N5E N 0.18291(17) -0.0861(5) 0.8147(2)
N11E N -0.10233(17) -0.0846(5) 0.7536(2)
N12E N -0.08747(19) -0.0853(6) 0.8700(2)
O39? O 0.0263(8) 0.0462(16) 0.7555(10)
O43? O 0.4887(4) 0.0551(11) 0.4225(6)
O45? O 0.1025(3) 0.4451(8) 0.5351(4)
O46? O 0.0874(3) 0.4630(7) 0.4153(4)
loop_
_geom_bond_atom_site_label_1
_geom_bond_atom_site_label_2
_geom_bond_site_symmetry_1
_geom_bond_site_symmetry_2
U1 O1 1_555 1_555
U2 O3 1_555 1_555
U3 O5 1_555 1_555
U4 O7 1_555 1_555
Yb1 O12 1_555 1_555
Yb2 O33 1_555 1_555
S1 O9 1_555 1_555
S2 O12 1_555 1_555
S3 O15 1_555 1_555
O2 U1 1_555 1_555
O4 U2 1_555 1_555
O6 U3 1_555 1_555
O8 U4 1_555 1_555
O9 U1 1_555 1_555
O10 S1 1_555 1_555
O11 S1 1_555 1_555
O13 S2 1_555 1_555
O14 S2 1_555 1_555
O15 U3 1_555 1_555
O16 S3 1_555 1_555
O17 S3 1_555 1_555
O18 U1 1_555 1_555
H1 O18 1_555 1_555
O19 U1 1_555 1_555
H2 O19 1_555 1_555
H3 O19 1_555 1_555
O20 U2 1_555 1_555
H4 O20 1_555 1_555
H5 O20 1_555 1_555
O21 U2 1_555 1_555
O22 N1 1_555 1_555
O23 N1 1_555 1_555
O24 U3 1_555 1_555
H6 O24 1_555 1_555
O25 U3 1_555 1_555
H7 O25 1_555 1_555
H8 O25 1_555 1_555
O26 U4 1_555 1_555
H9 O26 1_555 1_555
H10 O26 1_555 1_555
O27 U4 1_555 1_555
H11 O27 1_555 1_555
H12 O27 1_555 1_555
O28 Yb1 1_555 1_555
O29 C7 1_555 1_555
O30 C10 1_555 1_555
O31 C13 1_555 1_555
O32 C16 1_555 1_555
O33 C19 1_555 1_555
O34 Yb1 1_555 1_555
H13 O34 1_555 1_555
O35 Yb1 1_555 1_555
O36 Yb1 1_555 1_555
H14 O36 1_555 1_555
H15 O36 1_555 1_555
O37 Yb2 1_555 1_555
O38 N14 1_555 1_555
O40 Yb2 1_555 1_555
O41 N15 1_555 1_555
O42 N15 1_555 1_555
O44 H16 1_555 1_555
N1 O21 1_555 1_555
N2 C4 1_555 1_555
N3 C4 1_555 1_555
N4 C6 1_555 1_555
N5 C5 1_555 1_555
N6 C8 1_555 1_555
N7 C10 1_555 1_555
N8 C12 1_555 1_555
N9 C9 1_555 1_555
N10 C14 1_555 1_555
N11 C16 1_555 1_555
N12 C18 1_555 1_555
N13 C15 1_555 1_555
N14 O37 1_555 1_555
C1 S1 1_555 1_555
H17 C1 1_555 1_555
H18 C1 1_555 1_555
C2 S2 1_555 1_555
H19 C2 1_555 1_555
H20 C2 1_555 1_555
C3 S3 1_555 1_555
H21 C3 1_555 1_555
H22 C3 1_555 1_555
C4 O28 1_555 1_555
C5 N2 1_555 1_555
H23 C5 1_555 1_555
C6 N3 1_555 1_555
H24 C6 1_555 1_555
C7 N4 1_555 1_555
C8 N3 1_555 1_555
H25 C8 1_555 1_555
H26 C8 1_555 1_555
C9 N4 1_555 1_555
H27 C9 1_555 1_555
H28 C9 1_555 1_555
C10 N6 1_555 1_555
C11 N6 1_555 1_555
H29 C11 1_555 1_555
C12 N7 1_555 1_555
H30 C12 1_555 1_555
C13 N8 1_555 1_555
C14 N7 1_555 1_555
H31 C14 1_555 1_555
H32 C14 1_555 1_555
C15 N8 1_555 1_555
H33 C15 1_555 1_555
H34 C15 1_555 1_555
C16 N10 1_555 1_555
C17 N10 1_555 1_555
H35 C17 1_555 1_555
C18 N11 1_555 1_555
H36 C18 1_555 1_555
C19 N12 1_555 1_555
C20 N11 1_555 1_555
H37 C20 1_555 1_555
H38 C20 1_555 1_555
C21 N12 1_555 1_555
H39 C21 1_555 1_555
H40 C21 1_555 1_555
C22 N2 1_555 1_555
H41 C22 1_555 1_555
H42 C22 1_555 1_555
C23 N5 1_555 1_555
H43 C23 1_555 1_555
H44 C23 1_555 1_555
Yb2A Yb2 1_555 1_555
O9E U1 1_555 1_555
O12E Yb1 1_555 1_555
O15E U3 1_555 1_555
O18E U1 1_555 1_555
O20E U2 1_555 1_555
O23E N1 1_555 1_555
O24E U3 1_555 1_555
O26E U4 1_555 1_555
O28E Yb1 1_555 1_555
O33A Yb2 1_555 1_555
O33D Yb2 1_555 1_555
O33E Yb2 1_555 1_555
H13E O34 1_555 1_555
O36E Yb1 1_555 1_555
O40E Yb2 1_555 1_555
H16E O44 1_555 1_555
N2E C22 1_555 1_555
N5E C23 1_555 1_555
N11E C20 1_555 1_555
N12E C21 1_555 1_555
C3F C3 1_555 1_555
U2 O18 1_555 1_555
U2 O18E 1_555 1_555
U4 O24 1_555 1_555
U4 O24E 1_555 1_555
O33 Yb2A 1_555 1_555
N5 C7 1_555 1_555
N9 C11 1_555 1_555
N9 C13 1_555 1_555
N13 C17 1_555 1_555
N13 C19 1_555 1_555
C1 C2 1_555 1_555
C5 C6 1_555 1_555
C11 C12 1_555 1_555
C17 C18 1_555 1_555
Yb2A O33A 1_555 1_555
Yb2A O33D 1_555 1_555
Yb2A O33E 1_555 1_555

#END
