
#######################################################################
#
#                 Cambridge Crystallographic Data Centre
#                                CCDC 
#
#######################################################################
#
# If this CIF has been generated from an entry in the Cambridge 
# Structural Database, then it will include bibliographic, chemical, 
# crystal, experimental, refinement or atomic coordinate data resulting 
# from the CCDC's data processing and validation procedures.
#
#######################################################################

data_ZAWGUB
_symmetry_cell_setting           triclinic
_symmetry_space_group_name_H-M   'P -1'
_symmetry_Int_Tables_number      2
_space_group_name_Hall           '-P 1'
loop_
_symmetry_equiv_pos_site_id
_symmetry_equiv_pos_as_xyz
1 x,y,z
2 -x,-y,-z
_cell_length_a                   10.1238(8)
_cell_length_b                   10.4815(9)
_cell_length_c                   13.1430(11)
_cell_angle_alpha                69.5690(10)
_cell_angle_beta                 75.0340(10)
_cell_angle_gamma                63.5570(10)
_cell_volume                     1161.36
loop_
_atom_site_label
_atom_site_type_symbol
_atom_site_fract_x
_atom_site_fract_y
_atom_site_fract_z
Cu1 Cu 0.96707(2) 0.12749(2) 0.054613(17)
P1 P 0.70266(5) 0.18682(5) -0.06484(4)
P2 P 0.73083(6) 0.11258(5) 0.26210(4)
P3 P 0.61198(7) -0.45196(6) 0.58913(4)
O1 O 0.85518(14) 0.08751(14) -0.02567(11)
O2 O 0.62204(16) 0.30893(15) -0.00327(12)
O3 O 0.70833(18) 0.25572(17) -0.18629(12)
O4 O 0.87428(16) 0.04301(16) 0.19428(11)
O5 O 0.59824(17) 0.21672(16) 0.20239(12)
O6 O 0.76444(19) 0.19120(18) 0.32935(13)
O7 O 0.44820(19) -0.41997(17) 0.60924(12)
O8 O 0.6914(2) -0.50632(18) 0.68906(13)
O9 O 0.6962(2) -0.57048(19) 0.52282(15)
N1 N 1.08044(18) 0.17711(19) 0.12860(14)
N2 N 1.03588(18) 0.26432(18) -0.07794(13)
C1 C 0.59271(19) 0.07743(19) -0.02960(15)
C2 C 0.6919(2) -0.0402(2) 0.36132(15)
C3 C 0.6401(2) -0.2875(2) 0.50538(16)
C4 C 0.7941(3) -0.1456(3) 0.43320(18)
C5 C 0.7681(3) -0.2674(2) 0.50437(18)
C6 C 0.5378(3) -0.1811(3) 0.43490(19)
C7 C 0.5639(2) -0.0583(2) 0.36346(18)
C8 C 1.0176(2) 0.3004(2) -0.18254(17)
C9 C 1.0729(3) 0.3989(3) -0.26417(19)
C10 C 1.1489(3) 0.4610(3) -0.2380(2)
C11 C 1.1717(2) 0.4240(2) -0.1280(2)
C12 C 1.2533(3) 0.4779(3) -0.0900(3)
C13 C 1.2754(3) 0.4332(3) 0.0159(3)
C14 C 1.2198(2) 0.3286(2) 0.0949(2)
C15 C 1.2432(3) 0.2718(3) 0.2060(2)
C16 C 1.1886(3) 0.1696(3) 0.2727(2)
C17 C 1.1068(3) 0.1238(3) 0.23202(18)
C18 C 1.1371(2) 0.2768(2) 0.06005(17)
C19 C 1.1129(2) 0.3246(2) -0.05123(17)
C20 C 0.5033(2) 0.0977(2) -0.10362(15)
C21 C 0.5889(2) -0.0207(2) 0.07406(15)
H1 H 0.4936 0.017 0.3116
H2 H 0.4466 -0.1941 0.4383
H3 H 0.8351 -0.3432 0.5505
H4 H 0.8868 -0.1309 0.4338
H5 H 0.9611 0.255 -0.1975
H6 H 1.0545 0.4182 -0.3378
H7 H 1.1861 0.5209 -0.2906
H8 H 1.2925 0.5416 -0.1418
H9 H 1.3242 0.4761 0.0439
H10 H 1.2963 0.3037 0.2307
H11 H 1.1927 0.1336 0.3419
H12 H 1.065 0.0601 0.2774
H13 H 0.6596 -0.0395 0.1295
H14 H 0.5013 0.1731 -0.1796
H15 H 0.6421 -0.5715 0.4887
H16 H 0.6874 0.2583 0.3515
H17 H 0.6069 0.2828 0.0724
H18 H 0.6987 -0.6243 0.7508
Cu1A Cu 0.03293(2) -0.12749(2) -0.054613(17)
Cu1A_2 Cu 1.03293(2) -0.12749(2) -0.054613(17)
Cu1_2 Cu -0.03293(2) 0.12749(2) 0.054613(17)
P1A P 0.29734(5) -0.18682(5) 0.06484(4)
P2A P 0.26917(6) -0.11258(5) -0.26210(4)
P3A P 0.38802(7) 0.45196(6) -0.58913(4)
O1A O 0.14482(14) -0.08751(14) 0.02567(11)
O1A_2 O 1.14482(14) -0.08751(14) 0.02567(11)
O1_2 O -0.14482(14) 0.08751(14) -0.02567(11)
O2A O 0.37796(16) -0.30893(15) 0.00327(12)
O3A O 0.29167(18) -0.25572(17) 0.18629(12)
O4A O 0.12572(16) -0.04301(16) -0.19428(11)
O5A O 0.40176(17) -0.21672(16) -0.20239(12)
O6A O 0.23556(19) -0.19120(18) -0.32935(13)
O7A O 0.55180(19) 0.41997(17) -0.60924(12)
O8A O 0.3086(2) 0.50632(18) -0.68906(13)
O9A O 0.3038(2) 0.57048(19) -0.52282(15)
N1A N -0.08044(18) -0.17711(19) -0.12860(14)
N2A N -0.03588(18) -0.26432(18) 0.07794(13)
C1A C 0.40729(19) -0.07743(19) 0.02960(15)
C2A C 0.3081(2) 0.0402(2) -0.36132(15)
C3A C 0.3599(2) 0.2875(2) -0.50538(16)
C4A C 0.2059(3) 0.1456(3) -0.43320(18)
C5A C 0.2319(3) 0.2674(2) -0.50437(18)
C6A C 0.4622(3) 0.1811(3) -0.43490(19)
C7A C 0.4361(2) 0.0583(2) -0.36346(18)
C8A C -0.0176(2) -0.3004(2) 0.18254(17)
C9A C -0.0729(3) -0.3989(3) 0.26417(19)
C10A C -0.1489(3) -0.4610(3) 0.2380(2)
C11A C -0.1717(2) -0.4240(2) 0.1280(2)
C12A C -0.2533(3) -0.4779(3) 0.0900(3)
C13A C -0.2754(3) -0.4332(3) -0.0159(3)
C14A C -0.2198(2) -0.3286(2) -0.0949(2)
C15A C -0.2432(3) -0.2718(3) -0.2060(2)
C16A C -0.1886(3) -0.1696(3) -0.2727(2)
C17A C -0.1068(3) -0.1238(3) -0.23202(18)
C18A C -0.1371(2) -0.2768(2) -0.06005(17)
C19A C -0.1129(2) -0.3246(2) 0.05123(17)
C20A C 0.4967(2) -0.0977(2) 0.10362(15)
C21A C 0.4111(2) 0.0207(2) -0.07406(15)
H1A H 0.5064 -0.017 -0.3116
H2A H 0.5534 0.1941 -0.4383
H3A H 0.1649 0.3432 -0.5505
H4A H 0.1132 0.1309 -0.4338
H5A H 0.0389 -0.255 0.1975
H6A H -0.0545 -0.4182 0.3378
H7A H -0.1861 -0.5209 0.2906
H8A H -0.2925 -0.5416 0.1418
H9A H -0.3242 -0.4761 -0.0439
H10A H -0.2963 -0.3037 -0.2307
H11A H -0.1927 -0.1336 -0.3419
H12A H -0.065 -0.0601 -0.2774
H13A H 0.3404 0.0395 -0.1295
H14A H 0.4987 -0.1731 0.1796
H15A H 0.3579 0.5715 -0.4887
H16A H 0.3126 -0.2583 -0.3515
H17A H 0.3931 -0.2828 -0.0724
H18A H 0.3013 0.6243 -0.7508
O10 O 1.1112(7) -0.1238(6) 0.4645(5)
loop_
_geom_bond_atom_site_label_1
_geom_bond_atom_site_label_2
_geom_bond_site_symmetry_1
_geom_bond_site_symmetry_2
Cu1 O1 1_555 1_555
P1 O1 1_555 1_555
P2 O4 1_555 1_555
P3 O7 1_555 1_555
O1 Cu1A_2 1_555 1_555
O2 P1 1_555 1_555
O3 P1 1_555 1_555
O4 Cu1 1_555 1_555
O5 P2 1_555 1_555
O6 P2 1_555 1_555
O8 P3 1_555 1_555
O9 P3 1_555 1_555
N1 Cu1 1_555 1_555
N2 Cu1 1_555 1_555
C1 P1 1_555 1_555
C2 P2 1_555 1_555
C3 P3 1_555 1_555
C4 C2 1_555 1_555
C5 C3 1_555 1_555
C6 C3 1_555 1_555
C7 C2 1_555 1_555
C8 N2 1_555 1_555
C9 C8 1_555 1_555
C10 C9 1_555 1_555
C11 C10 1_555 1_555
C12 C11 1_555 1_555
C13 C12 1_555 1_555
C14 C13 1_555 1_555
C15 C14 1_555 1_555
C16 C15 1_555 1_555
C17 N1 1_555 1_555
C18 N1 1_555 1_555
C19 N2 1_555 1_555
C20 C1 1_555 1_555
C21 C1 1_555 1_555
H1 C7 1_555 1_555
H2 C6 1_555 1_555
H3 C5 1_555 1_555
H4 C4 1_555 1_555
H5 C8 1_555 1_555
H6 C9 1_555 1_555
H7 C10 1_555 1_555
H8 C12 1_555 1_555
H9 C13 1_555 1_555
H10 C15 1_555 1_555
H11 C16 1_555 1_555
H12 C17 1_555 1_555
H13 C21 1_555 1_555
H14 C20 1_555 1_555
H15 O9 1_555 1_555
H16 O6 1_555 1_555
H17 O2 1_555 1_555
H18 O8 1_555 1_555
Cu1A O1A 1_555 1_555
Cu1A_2 O1A_2 1_555 1_555
Cu1_2 O1A 1_555 1_555
P1A O1A 1_555 1_555
P2A O4A 1_555 1_555
P3A O7A 1_555 1_555
O1A_2 Cu1 1_555 1_555
O1_2 Cu1A 1_555 1_555
O2A P1A 1_555 1_555
O3A P1A 1_555 1_555
O4A Cu1A 1_555 1_555
O5A P2A 1_555 1_555
O6A P2A 1_555 1_555
O8A P3A 1_555 1_555
O9A P3A 1_555 1_555
N1A Cu1A 1_555 1_555
N2A Cu1A 1_555 1_555
C1A P1A 1_555 1_555
C2A P2A 1_555 1_555
C3A P3A 1_555 1_555
C4A C2A 1_555 1_555
C5A C3A 1_555 1_555
C6A C3A 1_555 1_555
C7A C2A 1_555 1_555
C8A N2A 1_555 1_555
C9A C8A 1_555 1_555
C10A C9A 1_555 1_555
C11A C10A 1_555 1_555
C12A C11A 1_555 1_555
C13A C12A 1_555 1_555
C14A C13A 1_555 1_555
C15A C14A 1_555 1_555
C16A C15A 1_555 1_555
C17A N1A 1_555 1_555
C18A N1A 1_555 1_555
C19A N2A 1_555 1_555
C20A C21 1_555 1_555
C21A C20 1_555 1_555
H1A C7A 1_555 1_555
H2A C6A 1_555 1_555
H3A C5A 1_555 1_555
H4A C4A 1_555 1_555
H5A C8A 1_555 1_555
H6A C9A 1_555 1_555
H7A C10A 1_555 1_555
H8A C12A 1_555 1_555
H9A C13A 1_555 1_555
H10A C15A 1_555 1_555
H11A C16A 1_555 1_555
H12A C17A 1_555 1_555
H13A C21A 1_555 1_555
H14A C20A 1_555 1_555
H15A O9A 1_555 1_555
H16A O6A 1_555 1_555
H17A O2A 1_555 1_555
H18A O8A 1_555 1_555
C4 C5 1_555 1_555
C6 C7 1_555 1_555
C11 C19 1_555 1_555
C14 C18 1_555 1_555
C16 C17 1_555 1_555
C18 C19 1_555 1_555
Cu1_2 O1_2 1_555 1_555
C1A C20A 1_555 1_555
C1A C21A 1_555 1_555
C4A C5A 1_555 1_555
C6A C7A 1_555 1_555
C11A C19A 1_555 1_555
C14A C18A 1_555 1_555
C16A C17A 1_555 1_555
C18A C19A 1_555 1_555

#END
