
#######################################################################
#
#                 Cambridge Crystallographic Data Centre
#                                CCDC 
#
#######################################################################
#
# If this CIF has been generated from an entry in the Cambridge 
# Structural Database, then it will include bibliographic, chemical, 
# crystal, experimental, refinement or atomic coordinate data resulting 
# from the CCDC's data processing and validation procedures.
#
#######################################################################

data_ZAWGIP
_symmetry_cell_setting           monoclinic
_symmetry_space_group_name_H-M   'P 21/n'
_symmetry_Int_Tables_number      14
_space_group_name_Hall           '-P 2yn'
loop_
_symmetry_equiv_pos_site_id
_symmetry_equiv_pos_as_xyz
1 x,y,z
2 1/2-x,1/2+y,1/2-z
3 -x,-y,-z
4 1/2+x,1/2-y,1/2+z
_cell_length_a                   11.3822(2)
_cell_length_b                   11.1231(2)
_cell_length_c                   15.3382(2)
_cell_angle_alpha                90
_cell_angle_beta                 105.2120(10)
_cell_angle_gamma                90
_cell_volume                     1873.86
loop_
_atom_site_label
_atom_site_type_symbol
_atom_site_fract_x
_atom_site_fract_y
_atom_site_fract_z
Cu1 Cu 0.29582(2) 0.08830(2) 1.006833(15)
S1 S 0.28663(5) 0.40743(4) 1.04268(3)
P1 P 0.03249(4) 0.54180(5) 0.63395(3)
N1 N 0.18250(15) 0.09841(14) 1.08752(11)
N2 N 0.14376(14) 0.13762(15) 0.91307(11)
O1 O 0.34719(13) 0.29200(13) 1.03903(10)
O2 O 0.37691(16) 0.50076(15) 1.07314(10)
O3 O 0.19440(17) 0.40147(17) 1.09090(11)
O4 O -0.07124(14) 0.45668(17) 0.60555(10)
O5 O -0.01356(19) 0.67257(16) 0.63698(11)
O6 O 0.12808(13) 0.53421(17) 0.58349(10)
C1 C 0.2067(2) 0.0793(2) 1.17596(15)
C2 C 0.1198(3) 0.1003(2) 1.22444(17)
C3 C 0.0063(2) 0.1390(2) 1.17975(18)
C4 C -0.02389(19) 0.1563(2) 1.08624(17)
C5 C -0.1411(2) 0.1931(2) 1.0318(2)
C6 C -0.1615(2) 0.2091(2) 0.9422(2)
C7 C -0.06772(19) 0.1923(2) 0.89679(16)
C8 C -0.0809(2) 0.2093(2) 0.80425(18)
C9 C 0.0159(2) 0.1947(2) 0.76885(16)
C10 C 0.1280(2) 0.1586(2) 0.82514(14)
C11 C 0.04780(17) 0.15539(17) 0.94851(14)
C12 C 0.06921(17) 0.13596(17) 1.04337(14)
C13 C 0.21317(18) 0.44406(17) 0.92878(12)
C14 C 0.10107(18) 0.5014(2) 0.90714(13)
C15 C 0.04695(18) 0.53392(19) 0.81815(13)
C16 C 0.10349(16) 0.50790(17) 0.75006(12)
C17 C 0.21623(19) 0.4500(2) 0.77313(13)
C18 C 0.2709(2) 0.4184(2) 0.86182(14)
H1 H 0.2901 0.0553 1.2078
H2 H 0.1405 0.0905 1.2912
H3 H -0.0526 0.1586 1.2081
H4 H -0.2013 0.2092 1.0657
H5 H -0.2385 0.2303 0.9059
H6 H -0.1579 0.2293 0.7687
H7 H 0.0128 0.2017 0.7059
H8 H 0.2013 0.1457 0.8009
H9 H 0.0652 0.5158 0.9521
H10 H -0.0276 0.5771 0.8031
H11 H 0.2571 0.4290 0.7275
H12 H 0.3473 0.3702 0.8797
H13 H -0.0379 0.7065 0.5809
Cu1C Cu -0.20418(2) 0.41170(2) 0.506833(15)
Cu1A Cu 0.20418(2) 0.58830(2) 0.493167(15)
O4C O 0.42876(14) 0.04332(17) 1.10555(10)
O6A O 0.37192(13) 0.03421(17) 0.91651(10)
O7 O 0.42105(14) 0.70687(15) 0.98968(12)
H14 H 0.4873 0.7009 0.9684
H15 H 0.4135 0.6319 1.0094
loop_
_geom_bond_atom_site_label_1
_geom_bond_atom_site_label_2
_geom_bond_site_symmetry_1
_geom_bond_site_symmetry_2
Cu1 N1 1_555 1_555
S1 O1 1_555 1_555
P1 O4 1_555 1_555
N1 C1 1_555 1_555
N2 Cu1 1_555 1_555
O1 Cu1 1_555 1_555
O2 S1 1_555 1_555
O3 S1 1_555 1_555
O4 Cu1C 1_555 1_555
O5 P1 1_555 1_555
O6 P1 1_555 1_555
O7 H14 1_555 1_555
C1 C2 1_555 1_555
C2 C3 1_555 1_555
C3 C4 1_555 1_555
C4 C5 1_555 1_555
C5 C6 1_555 1_555
C6 C7 1_555 1_555
C7 C8 1_555 1_555
C8 C9 1_555 1_555
C9 C10 1_555 1_555
C10 N2 1_555 1_555
C11 N2 1_555 1_555
C12 N1 1_555 1_555
C13 S1 1_555 1_555
C14 C13 1_555 1_555
C15 C14 1_555 1_555
C16 P1 1_555 1_555
C17 C16 1_555 1_555
C18 C13 1_555 1_555
H1 C1 1_555 1_555
H2 C2 1_555 1_555
H3 C3 1_555 1_555
H4 C5 1_555 1_555
H5 C6 1_555 1_555
H6 C8 1_555 1_555
H7 C9 1_555 1_555
H8 C10 1_555 1_555
H9 C14 1_555 1_555
H10 C15 1_555 1_555
H11 C17 1_555 1_555
H12 C18 1_555 1_555
H13 O5 1_555 1_555
H15 O7 1_555 1_555
Cu1A O6 1_555 1_555
O4C Cu1 1_555 1_555
O6A Cu1 1_555 1_555
C4 C12 1_555 1_555
C7 C11 1_555 1_555
C11 C12 1_555 1_555
C15 C16 1_555 1_555
C17 C18 1_555 1_555

#END
