
#######################################################################
#
#                 Cambridge Crystallographic Data Centre
#                                CCDC 
#
#######################################################################
#
# If this CIF has been generated from an entry in the Cambridge 
# Structural Database, then it will include bibliographic, chemical, 
# crystal, experimental, refinement or atomic coordinate data resulting 
# from the CCDC's data processing and validation procedures.
#
#######################################################################

data_ZAWHUC
_symmetry_cell_setting           triclinic
_symmetry_space_group_name_H-M   'P -1'
_symmetry_Int_Tables_number      2
_space_group_name_Hall           '-P 1'
loop_
_symmetry_equiv_pos_site_id
_symmetry_equiv_pos_as_xyz
1 x,y,z
2 -x,-y,-z
_cell_length_a                   5.4378(11)
_cell_length_b                   7.0974(14)
_cell_length_c                   12.031(2)
_cell_angle_alpha                90.52(3)
_cell_angle_beta                 95.20(3)
_cell_angle_gamma                102.28(3)
_cell_volume                     451.644
loop_
_atom_site_label
_atom_site_type_symbol
_atom_site_fract_x
_atom_site_fract_y
_atom_site_fract_z
Zn1 Zn 0.0000 1.0000 0.5000
S1 S 0.50781(11) 0.94564(9) 0.64083(5)
O1 O 0.0916(4) 1.2521(3) 0.60390(16)
H1 H 0.1627 1.2487 0.6695
H2 H -0.0273 1.3121 0.6071
O2 O 0.2458(4) 0.8553(3) 0.58765(16)
O3 O 0.2880(4) 0.6082(3) 1.15364(17)
H3 H 0.3051 0.5915 1.2210
O4 O 0.6969(4) 0.7473(3) 1.18232(17)
O5 O 0.7004(4) 0.8483(3) 0.59169(16)
C1 C 0.5008(5) 0.8477(4) 0.7785(2)
C2 C 0.4966(5) 0.7393(4) 0.9989(2)
C3 C 0.2778(5) 0.6899(4) 0.9264(2)
H6 H 0.1298 0.6203 0.9520
C4 C 0.2791(5) 0.7443(4) 0.8155(2)
H7 H 0.1328 0.7116 0.7669
C5 C 0.5048(5) 0.6980(4) 1.1206(2)
C6 C 0.7177(5) 0.8378(4) 0.9597(2)
H8 H 0.8655 0.8662 1.0078
C7 C 0.7225(5) 0.8947(4) 0.8501(2)
H9 H 0.8712 0.9633 0.8246
Zn1_2 Zn -1.0000 1.0000 0.5000
Zn1_3 Zn 1.0000 1.0000 0.5000
S1A S -0.50781(11) 1.05436(9) 0.35917(5)
O1A O -0.0916(4) 0.7479(3) 0.39610(16)
H1A H -0.1627 0.7513 0.3305
H2A H 0.0273 0.6879 0.3929
O2A O -0.2458(4) 1.1447(3) 0.41235(16)
O3A O -0.2880(4) 1.3918(3) -0.15364(17)
H3A H -0.3051 1.4085 -0.2210
O4A O -0.6969(4) 1.2527(3) -0.18232(17)
O5A O -0.7004(4) 1.1517(3) 0.40831(16)
O5_2 O -0.2996(4) 0.8483(3) 0.59169(16)
O5A_2 O 0.2996(4) 1.1517(3) 0.40831(16)
C1A C -0.5008(5) 1.1523(4) 0.2215(2)
C2A C -0.4966(5) 1.2607(4) 0.0011(2)
C3A C -0.2778(5) 1.3101(4) 0.0736(2)
H6A H -0.1298 1.3797 0.0480
C4A C -0.2791(5) 1.2557(4) 0.1845(2)
H7A H -0.1328 1.2884 0.2331
C5A C -0.5048(5) 1.3020(4) -0.1206(2)
C6A C -0.7177(5) 1.1622(4) 0.0403(2)
H8A H -0.8655 1.1338 -0.0078
C7A C -0.7225(5) 1.1053(4) 0.1499(2)
H9A H -0.8712 1.0367 0.1754
O6 O 0.3032(5) 0.5392(3) 1.37296(18)
H4 H 0.3040 0.4216 1.3854
H5 H 0.3964 0.6086 1.4250
loop_
_geom_bond_atom_site_label_1
_geom_bond_atom_site_label_2
_geom_bond_site_symmetry_1
_geom_bond_site_symmetry_2
Zn1 O1 1_555 1_555
S1 O2 1_555 1_555
O1 H1 1_555 1_555
H2 O1 1_555 1_555
O2 Zn1 1_555 1_555
O3 H3 1_555 1_555
O4 C5 1_555 1_555
O5 S1 1_555 1_555
O6 H4 1_555 1_555
H5 O6 1_555 1_555
C1 S1 1_555 1_555
C2 C3 1_555 1_555
C3 H6 1_555 1_555
C4 C1 1_555 1_555
H7 C4 1_555 1_555
C5 O3 1_555 1_555
C6 C2 1_555 1_555
H8 C6 1_555 1_555
C7 C1 1_555 1_555
H9 C7 1_555 1_555
Zn1_2 O5A 1_555 1_555
Zn1_3 O5 1_555 1_555
S1A O2A 1_555 1_555
O1A Zn1 1_555 1_555
H1A O1A 1_555 1_555
H2A O1A 1_555 1_555
O2A Zn1 1_555 1_555
O3A H3A 1_555 1_555
O4A C5A 1_555 1_555
O5A S1A 1_555 1_555
O5_2 Zn1 1_555 1_555
O5A_2 Zn1 1_555 1_555
C1A S1A 1_555 1_555
C2A C3A 1_555 1_555
C3A H6A 1_555 1_555
C4A C1A 1_555 1_555
H7A C4A 1_555 1_555
C5A O3A 1_555 1_555
C6A C2A 1_555 1_555
H8A C6A 1_555 1_555
C7A C1A 1_555 1_555
H9A C7A 1_555 1_555
C2 C5 1_555 1_555
C3 C4 1_555 1_555
C6 C7 1_555 1_555
C2A C5A 1_555 1_555
C3A C4A 1_555 1_555
C6A C7A 1_555 1_555

#END
