
#######################################################################
#
#                 Cambridge Crystallographic Data Centre
#                                CCDC 
#
#######################################################################
#
# If this CIF has been generated from an entry in the Cambridge 
# Structural Database, then it will include bibliographic, chemical, 
# crystal, experimental, refinement or atomic coordinate data resulting 
# from the CCDC's data processing and validation procedures.
#
#######################################################################

data_ZAWHAI
_symmetry_cell_setting           triclinic
_symmetry_space_group_name_H-M   'P -1'
_symmetry_Int_Tables_number      2
_space_group_name_Hall           '-P 1'
loop_
_symmetry_equiv_pos_site_id
_symmetry_equiv_pos_as_xyz
1 x,y,z
2 -x,-y,-z
_cell_length_a                   9.143(3)
_cell_length_b                   9.400(3)
_cell_length_c                   11.457(4)
_cell_angle_alpha                101.379(7)
_cell_angle_beta                 91.586(7)
_cell_angle_gamma                114.862(6)
_cell_volume                     869.045
loop_
_atom_site_label
_atom_site_type_symbol
_atom_site_fract_x
_atom_site_fract_y
_atom_site_fract_z
Cu1 Cu 0.81255(2) 0.55583(2) 0.370584(17)
P1 P 0.84274(4) 0.28221(5) 0.47920(3)
P2 P 0.81869(4) 0.34008(4) 0.07954(3)
O1 O 0.80796(13) 0.42575(13) 0.48303(10)
O2 O 0.89217(14) 0.22801(15) 0.35500(11)
O3 O 0.96214(14) 0.29713(15) 0.57953(12)
O4 O 0.79878(13) 0.46016(14) 0.02009(10)
O5 O 0.84219(15) 0.38427(14) 0.21526(10)
O6 O 0.95903(14) 0.29898(14) 0.03213(11)
N1 N 0.79099(17) 0.69353(17) 0.26563(13)
N2 N 0.56780(16) 0.45679(17) 0.33534(13)
C1 C 0.65306(17) 0.11920(18) 0.49113(13)
C2 C 0.5743(2) -0.0159(2) 0.39745(14)
C3 C 0.5777(2) 0.1336(2) 0.59367(15)
C4 C 0.64019(17) 0.14837(17) 0.03440(13)
C5 C 0.53329(19) 0.09049(19) 0.11654(13)
C6 C 0.60485(19) 0.05569(19) -0.08282(14)
C7 C 0.9142(2) 0.8143(2) 0.23581(18)
C8 C 0.8922(3) 0.8871(2) 0.14718(19)
C9 C 0.7389(3) 0.8313(3) 0.08788(19)
C10 C 0.6102(3) 0.7061(3) 0.11782(18)
C11 C 0.6397(2) 0.6397(2) 0.20802(15)
C12 C 0.5132(2) 0.5085(2) 0.24997(15)
C13 C 0.3482(2) 0.4438(3) 0.20902(19)
C14 C 0.2387(2) 0.3255(3) 0.2586(2)
C15 C 0.2944(2) 0.2753(3) 0.3470(2)
C16 C 0.4603(2) 0.3425(2) 0.38295(17)
H1 H 0.6740 0.0937 -0.1382
H2 H 1.0150 0.8538 0.2827
H3 H 0.6289 0.2197 0.6562
H4 H 0.5549 0.1576 0.1971
H5 H 0.5008 0.3107 0.4402
H6 H 0.7213 0.8869 0.0269
H7 H 0.6228 -0.0247 0.3302
H8 H 0.1365 0.2988 0.2418
H9 H 0.9896 0.9716 0.1284
H10 H 0.5005 0.6653 0.0766
H11 H 0.3078 0.4796 0.1523
H12 H 0.2246 0.2075 0.3889
H13 H 0.8750 0.2814 0.3022
H14 H 1.0394 0.3834 0.0142
Cu1A Cu 0.18745(2) -0.55583(2) -0.370584(17)
Cu1_2 Cu -0.18745(2) -0.44417(2) 0.370584(17)
Cu1A_2 Cu 0.18745(2) -0.55583(2) 0.629416(17)
Cu1A_3 Cu 1.18745(2) 0.44417(2) 0.629416(17)
P1A P 0.15726(4) -0.28221(5) 0.52080(3)
P2A P 0.18131(4) -0.34008(4) -0.07954(3)
O1A O 0.19204(13) -0.42575(13) 0.51697(10)
O1A_2 O 0.19204(13) -0.42575(13) -0.48303(10)
O2A O 0.10783(14) -0.22801(15) 0.64500(11)
O3A O 0.03786(14) -0.29713(15) 0.42047(12)
O3_2 O -0.03786(14) -0.70287(15) -0.42047(12)
O3A_2 O 1.03786(14) 0.70287(15) 0.42047(12)
O4A O 0.20122(13) -0.46016(14) -0.02009(10)
O5A O 0.15781(15) -0.38427(14) -0.21526(10)
O6A O 0.04097(14) -0.29898(14) -0.03213(11)
N1A N 0.20901(17) -0.69353(17) -0.26563(13)
N2A N 0.43220(16) -0.45679(17) -0.33534(13)
C1A C 0.34694(17) -0.11920(18) 0.50887(13)
C2A C 0.4257(2) 0.0159(2) 0.60255(14)
C3A C 0.4223(2) -0.1336(2) 0.40633(15)
C4A C 0.35981(17) -0.14837(17) -0.03440(13)
C5A C 0.46671(19) -0.09049(19) -0.11654(13)
C6A C 0.39515(19) -0.05569(19) 0.08282(14)
C7A C 0.0858(2) -0.8143(2) -0.23581(18)
C8A C 0.1078(3) -0.8871(2) -0.14718(19)
C9A C 0.2611(3) -0.8313(3) -0.08788(19)
C10A C 0.3898(3) -0.7061(3) -0.11782(18)
C11A C 0.3603(2) -0.6397(2) -0.20802(15)
C12A C 0.4868(2) -0.5085(2) -0.24997(15)
C13A C 0.6518(2) -0.4438(3) -0.20902(19)
C14A C 0.7613(2) -0.3255(3) -0.2586(2)
C15A C 0.7056(2) -0.2753(3) -0.3470(2)
C16A C 0.5397(2) -0.3425(2) -0.38295(17)
H1A H 0.3260 -0.0937 0.1382
H2A H -0.0150 -0.8538 -0.2827
H3A H 0.3711 -0.2197 0.3438
H4A H 0.4451 -0.1576 -0.1971
H5A H 0.4992 -0.3107 -0.4402
H6A H 0.2787 -0.8869 -0.0269
H7A H 0.3772 0.0247 0.6698
H8A H 0.8635 -0.2988 -0.2418
H9A H 0.0104 -0.9716 -0.1284
H10A H 0.4995 -0.6653 -0.0766
H11A H 0.6922 -0.4796 -0.1523
H12A H 0.7754 -0.2075 -0.3889
H13A H 0.1250 -0.2814 0.6978
H14A H -0.0394 -0.3834 -0.0142
loop_
_geom_bond_atom_site_label_1
_geom_bond_atom_site_label_2
_geom_bond_site_symmetry_1
_geom_bond_site_symmetry_2
Cu1 O1 1_555 1_555
P1 O1 1_555 1_555
P2 O4 1_555 1_555
O2 P1 1_555 1_555
O3 P1 1_555 1_555
O5 Cu1 1_555 1_555
O6 P2 1_555 1_555
N1 Cu1 1_555 1_555
N2 Cu1 1_555 1_555
C1 P1 1_555 1_555
C2 C1 1_555 1_555
C3 C1 1_555 1_555
C4 P2 1_555 1_555
C5 C4 1_555 1_555
C6 C4 1_555 1_555
C7 N1 1_555 1_555
C8 C7 1_555 1_555
C9 C8 1_555 1_555
C10 C9 1_555 1_555
C11 N1 1_555 1_555
C12 N2 1_555 1_555
C13 C12 1_555 1_555
C14 C13 1_555 1_555
C15 C14 1_555 1_555
C16 N2 1_555 1_555
H1 C6 1_555 1_555
H2 C7 1_555 1_555
H3 C3 1_555 1_555
H4 C5 1_555 1_555
H5 C16 1_555 1_555
H6 C9 1_555 1_555
H7 C2 1_555 1_555
H8 C14 1_555 1_555
H9 C8 1_555 1_555
H10 C10 1_555 1_555
H11 C13 1_555 1_555
H12 C15 1_555 1_555
H13 O2 1_555 1_555
H14 O6 1_555 1_555
Cu1A O1A_2 1_555 1_555
Cu1_2 O3A 1_555 1_555
Cu1A_2 O1A 1_555 1_555
Cu1A_3 O3 1_555 1_555
P1A O1A 1_555 1_555
P2A O4A 1_555 1_555
O2A P1A 1_555 1_555
O3A P1A 1_555 1_555
O3_2 Cu1A 1_555 1_555
O3A_2 Cu1 1_555 1_555
O5A Cu1A 1_555 1_555
O6A P2A 1_555 1_555
N1A Cu1A 1_555 1_555
N2A Cu1A 1_555 1_555
C1A P1A 1_555 1_555
C2A C3 1_555 1_555
C3A C2 1_555 1_555
C4A P2A 1_555 1_555
C5A C6 1_555 1_555
C6A C5 1_555 1_555
C7A N1A 1_555 1_555
C8A C7A 1_555 1_555
C9A C8A 1_555 1_555
C10A C9A 1_555 1_555
C11A N1A 1_555 1_555
C12A N2A 1_555 1_555
C13A C12A 1_555 1_555
C14A C13A 1_555 1_555
C15A C14A 1_555 1_555
C16A N2A 1_555 1_555
H1A C6A 1_555 1_555
H2A C7A 1_555 1_555
H3A C3A 1_555 1_555
H4A C5A 1_555 1_555
H5A C16A 1_555 1_555
H6A C9A 1_555 1_555
H7A C2A 1_555 1_555
H8A C14A 1_555 1_555
H9A C8A 1_555 1_555
H10A C10A 1_555 1_555
H11A C13A 1_555 1_555
H12A C15A 1_555 1_555
H13A O2A 1_555 1_555
H14A O6A 1_555 1_555
P2 O5 1_555 1_555
C10 C11 1_555 1_555
C11 C12 1_555 1_555
C15 C16 1_555 1_555
P2A O5A 1_555 1_555
C1A C2A 1_555 1_555
C1A C3A 1_555 1_555
C4A C5A 1_555 1_555
C4A C6A 1_555 1_555
C10A C11A 1_555 1_555
C11A C12A 1_555 1_555
C15A C16A 1_555 1_555

#END
