
#######################################################################
#
#                 Cambridge Crystallographic Data Centre
#                                CCDC 
#
#######################################################################
#
# If this CIF has been generated from an entry in the Cambridge 
# Structural Database, then it will include bibliographic, chemical, 
# crystal, experimental, refinement or atomic coordinate data resulting 
# from the CCDC's data processing and validation procedures.
#
#######################################################################

data_ZAWHIQ
_symmetry_cell_setting           monoclinic
_symmetry_space_group_name_H-M   'P 21/c'
_symmetry_Int_Tables_number      14
_space_group_name_Hall           '-P 2ybc'
loop_
_symmetry_equiv_pos_site_id
_symmetry_equiv_pos_as_xyz
1 x,y,z
2 -x,1/2+y,1/2-z
3 -x,-y,-z
4 x,1/2-y,1/2+z
_cell_length_a                   16.566(15)
_cell_length_b                   8.573(8)
_cell_length_c                   18.719(17)
_cell_angle_alpha                90
_cell_angle_beta                 101.70(2)
_cell_angle_gamma                90
_cell_volume                     2603.24
loop_
_atom_site_label
_atom_site_type_symbol
_atom_site_fract_x
_atom_site_fract_y
_atom_site_fract_z
Zn1 Zn -0.24254(6) 0.19845(11) 0.26012(5)
Zn2 Zn -0.06357(6) 0.77358(11) 0.27275(5)
Zn3 Zn -0.54833(6) 0.26450(11) 0.29065(5)
P1 P -0.08421(12) 0.4049(2) 0.28062(12)
P2 P -0.39029(14) 0.4392(3) 0.25646(14)
O1 O -0.1454(4) 0.3092(7) 0.3126(3)
O2 O -0.1173(4) 0.5681(7) 0.2587(3)
O3 O -0.0549(4) 0.3192(7) 0.2193(3)
O4 O 0.2261(3) 0.5914(7) 0.3324(3)
O5 O 0.1471(4) 0.4500(7) 0.2498(3)
O6 O -0.3213(4) 0.3606(8) 0.2273(4)
O7 O -0.4352(4) 0.3244(7) 0.2950(3)
O8 O -0.4441(5) 0.5297(8) 0.1981(4)
O9 O -0.2835(4) 1.0642(7) 0.3296(3)
O10 O -0.3634(4) 0.9348(7) 0.2376(3)
N1 N 0.0560(4) 0.2010(8) 0.6149(4)
N2 N 0.0712(4) 0.3129(7) 0.3484(4)
N3 N -0.4515(5) 0.7041(8) 0.5981(4)
N4 N -0.4076(5) 0.7144(9) 0.3290(4)
C1 C -0.0137(5) 0.2113(9) 0.5639(5)
H1 H -0.0630 0.2258 0.5795
C2 C -0.0169(5) 0.2018(9) 0.4898(4)
H2 H -0.0670 0.2105 0.4570
C3 C 0.0557(5) 0.1790(9) 0.4648(5)
C4 C 0.1284(6) 0.1674(11) 0.5172(5)
H3 H 0.1784 0.1528 0.5029
C5 C 0.1264(6) 0.1774(13) 0.5897(5)
H4 H 0.1757 0.1676 0.6235
C6 C 0.0558(5) 0.1669(9) 0.3848(4)
H5 H 0.0976 0.0917 0.3785
H6 H 0.0029 0.1258 0.3603
C7 C 0.1541(4) 0.3778(9) 0.3748(4)
H7 H 0.1939 0.2939 0.3866
H8 H 0.1550 0.4390 0.4185
C8 C 0.1768(5) 0.4810(9) 0.3149(4)
C9 C 0.0084(5) 0.4343(9) 0.3505(4)
H9 H 0.0317 0.5357 0.3437
H10 H -0.0062 0.4335 0.3981
C10 C -0.5117(8) 0.7692(16) 0.5489(6)
H11 H -0.5522 0.8240 0.5663
C11 C -0.5184(7) 0.7616(16) 0.4755(6)
H12 H -0.5616 0.8121 0.4447
C12 C -0.4615(5) 0.6796(9) 0.4467(5)
C13 C -0.3985(6) 0.6085(15) 0.4958(6)
H13 H -0.3586 0.5501 0.4793
C14 C -0.3956(6) 0.6253(14) 0.5699(5)
H14 H -0.3521 0.5790 0.6021
C15 C -0.4733(5) 0.6637(10) 0.3653(5)
H15 H -0.4841 0.5545 0.3534
H16 H -0.5227 0.7210 0.3438
C16 C -0.3689(6) 0.8631(10) 0.3598(5)
H17 H -0.3240 0.8393 0.4003
H18 H -0.4093 0.9239 0.3787
C17 C -0.3358(5) 0.9607(10) 0.3044(5)
C18 C -0.3444(5) 0.5915(11) 0.3232(5)
H19 H -0.3249 0.5441 0.3706
H20 H -0.2977 0.6390 0.3077
Zn1A Zn 0.24254(6) 0.69845(11) 0.23988(5)
Zn1_2 Zn -0.24254(6) 1.19845(11) 0.26012(5)
Zn2A Zn 0.06357(6) 0.27358(11) 0.22725(5)
Zn2B Zn 0.06357(6) 0.22642(11) 0.72725(5)
Zn3A Zn -0.45167(6) 0.76450(11) 0.20935(5)
Zn3B Zn -0.45167(6) 0.73550(11) 0.70935(5)
O3A O 0.0549(4) 0.8192(7) 0.2807(3)
O4A O -0.2261(3) 0.0914(7) 0.1676(3)
O5A O -0.1471(4) 0.9500(7) 0.2502(3)
O8A O -0.5559(5) 0.0297(8) 0.3019(4)
O9_2 O -0.2835(4) 0.0642(7) 0.3296(3)
O10A O -0.6366(4) 0.4348(7) 0.2624(3)
N1B N -0.0560(4) 0.7990(8) 0.3851(4)
N2A N -0.0712(4) 0.8129(7) 0.1516(4)
N3B N -0.5485(5) 0.2959(8) 0.4019(4)
N4A N -0.5924(5) 0.2144(9) 0.1710(4)
O11 O -0.1950(9) 0.4275(18) 0.4501(6)
O12 O -0.2624(9) 0.5522(18) 0.1282(9)
O13 O -0.2505(17) 0.301(3) 0.0425(13)
loop_
_geom_bond_atom_site_label_1
_geom_bond_atom_site_label_2
_geom_bond_site_symmetry_1
_geom_bond_site_symmetry_2
Zn1 O1 1_555 1_555
Zn2 O2 1_555 1_555
Zn3 O7 1_555 1_555
P1 O1 1_555 1_555
P2 O6 1_555 1_555
O2 P1 1_555 1_555
O3 P1 1_555 1_555
O4 C8 1_555 1_555
O5 C8 1_555 1_555
O6 Zn1 1_555 1_555
O7 P2 1_555 1_555
O8 P2 1_555 1_555
O9 C17 1_555 1_555
O10 C17 1_555 1_555
N1 C1 1_555 1_555
N2 C6 1_555 1_555
N3 C10 1_555 1_555
N4 C15 1_555 1_555
C1 H1 1_555 1_555
C2 C1 1_555 1_555
H2 C2 1_555 1_555
C3 C2 1_555 1_555
C4 C3 1_555 1_555
H3 C4 1_555 1_555
C5 N1 1_555 1_555
H4 C5 1_555 1_555
C6 C3 1_555 1_555
H5 C6 1_555 1_555
H6 C6 1_555 1_555
C7 N2 1_555 1_555
H7 C7 1_555 1_555
H8 C7 1_555 1_555
C8 C7 1_555 1_555
C9 P1 1_555 1_555
H9 C9 1_555 1_555
H10 C9 1_555 1_555
C10 H11 1_555 1_555
C11 C10 1_555 1_555
H12 C11 1_555 1_555
C12 C11 1_555 1_555
C13 C12 1_555 1_555
H13 C13 1_555 1_555
C14 N3 1_555 1_555
H14 C14 1_555 1_555
C15 C12 1_555 1_555
H15 C15 1_555 1_555
H16 C15 1_555 1_555
C16 N4 1_555 1_555
H17 C16 1_555 1_555
H18 C16 1_555 1_555
C17 C16 1_555 1_555
C18 P2 1_555 1_555
H19 C18 1_555 1_555
H20 C18 1_555 1_555
Zn1A O4 1_555 1_555
Zn1_2 O9 1_555 1_555
Zn2A O3 1_555 1_555
Zn2B N1 1_555 1_555
Zn3A O8 1_555 1_555
Zn3B N3 1_555 1_555
O3A Zn2 1_555 1_555
O4A Zn1 1_555 1_555
O5A Zn2 1_555 1_555
O8A Zn3 1_555 1_555
O9_2 Zn1 1_555 1_555
O10A Zn3 1_555 1_555
N1B Zn2 1_555 1_555
N2A Zn2 1_555 1_555
N3B Zn3 1_555 1_555
N4A Zn3 1_555 1_555
O5 Zn2A 1_555 1_555
O10 Zn3A 1_555 1_555
N2 C9 1_555 1_555
N2 Zn2A 1_555 1_555
N4 C18 1_555 1_555
N4 Zn3A 1_555 1_555
C4 C5 1_555 1_555
C13 C14 1_555 1_555

#END
