
#######################################################################
#
#                 Cambridge Crystallographic Data Centre
#                                CCDC 
#
#######################################################################
#
# If this CIF has been generated from an entry in the Cambridge 
# Structural Database, then it will include bibliographic, chemical, 
# crystal, experimental, refinement or atomic coordinate data resulting 
# from the CCDC's data processing and validation procedures.
#
#######################################################################

data_ZAWJIS
_symmetry_cell_setting           triclinic
_symmetry_space_group_name_H-M   'P -1'
_symmetry_Int_Tables_number      2
_space_group_name_Hall           '-P 1'
loop_
_symmetry_equiv_pos_site_id
_symmetry_equiv_pos_as_xyz
1 x,y,z
2 -x,-y,-z
_cell_length_a                   7.6682(17)
_cell_length_b                   10.7302(19)
_cell_length_c                   11.371(2)
_cell_angle_alpha                89.097(5)
_cell_angle_beta                 72.836(6)
_cell_angle_gamma                89.849(6)
_cell_volume                     893.839
loop_
_atom_site_label
_atom_site_type_symbol
_atom_site_fract_x
_atom_site_fract_y
_atom_site_fract_z
Zn1 Zn 0.76708(13) 0.25835(11) 0.18879(8)
S1 S 0.3163(3) 0.2060(2) 0.2978(2)
O1 O 0.5114(8) 0.1639(6) 0.2465(5)
O2 O 0.2861(9) 0.3353(7) 0.2565(6)
O3 O 0.1792(10) 0.1387(6) 0.9112(6)
O4 O 0.2126(10) 0.3464(7) 0.8978(6)
O5 O 0.6307(9) 0.4374(6) 0.2126(5)
H1 H 0.5199 0.4268 0.2358
H2 H 0.6595 0.4758 0.1468
O6 O 1.0184(8) 0.3551(6) 0.1333(5)
H3 H 1.0668 0.3452 0.0595
H4 H 1.0863 0.3290 0.1720
O7 O 0.9283(9) 0.0910(6) 0.1493(5)
H5 H 0.8645 0.0330 0.1398
H6 H 1.0122 0.1024 0.0859
N1 N 0.7404(7) 0.2553(9) 1.0065(5)
N2 N 0.7738(8) 0.2578(8) 0.3773(5)
C1 C 0.2866(7) 0.2232(8) 0.4614(7)
C2 C 0.3406(9) 0.1243(8) 0.5232(7)
H7 H 0.3917 0.0536 0.4802
C3 C 0.3187(9) 0.1302(8) 0.6479(7)
H8 H 0.3552 0.0638 0.6885
C4 C 0.2418(8) 0.2361(8) 0.7131(7)
C5 C 0.1893(10) 0.3346(9) 0.6505(8)
H9 H 0.1392 0.4057 0.6931
C6 C 0.2108(10) 0.3281(9) 0.5245(7)
H10 H 0.1742 0.3942 0.4835
C7 C 0.2157(9) 0.2418(10) 0.8504(7)
C8 C 0.8398(9) 0.1622(7) 0.4257(7)
H11 H 0.8960 0.0975 0.3750
C9 C 0.8273(10) 0.1555(8) 0.5525(8)
H12 H 0.8750 0.0870 0.5834
C10 C 0.7468(9) 0.2478(10) 0.6285(6)
C11 C 0.6765(10) 0.3493(9) 0.5775(7)
H13 H 0.6200 0.4148 0.6270
C12 C 0.6925(10) 0.3510(7) 0.4516(7)
H14 H 0.6456 0.4184 0.4183
C13 C 0.7101(9) 0.1498(9) 0.9552(8)
H15 H 0.6919 0.0772 1.0031
C14 C 0.7039(11) 0.1413(9) 0.8337(8)
H16 H 0.6813 0.0658 0.8018
C15 C 0.7334(9) 0.2525(10) 0.7612(6)
C16 C 0.7615(11) 0.3610(8) 0.8168(8)
H17 H 0.7776 0.4361 0.7729
C17 C 0.7658(10) 0.3586(9) 0.9365(7)
H18 H 0.7875 0.4330 0.9708
Zn1_2 Zn 0.76708(13) 0.25835(11) 1.18879(8)
N1_2 N 0.7404(7) 0.2553(9) 0.0065(5)
loop_
_geom_bond_atom_site_label_1
_geom_bond_atom_site_label_2
_geom_bond_site_symmetry_1
_geom_bond_site_symmetry_2
Zn1 O1 1_555 1_555
S1 O1 1_555 1_555
O2 S1 1_555 1_555
O3 C7 1_555 1_555
O4 C7 1_555 1_555
O5 Zn1 1_555 1_555
H1 O5 1_555 1_555
H2 O5 1_555 1_555
O6 Zn1 1_555 1_555
H3 O6 1_555 1_555
H4 O6 1_555 1_555
O7 Zn1 1_555 1_555
H5 O7 1_555 1_555
H6 O7 1_555 1_555
N1 C13 1_555 1_555
N2 Zn1 1_555 1_555
C1 S1 1_555 1_555
C2 C1 1_555 1_555
H7 C2 1_555 1_555
C3 C2 1_555 1_555
H8 C3 1_555 1_555
C4 C3 1_555 1_555
C5 C4 1_555 1_555
H9 C5 1_555 1_555
C6 C1 1_555 1_555
H10 C6 1_555 1_555
C7 C4 1_555 1_555
C8 N2 1_555 1_555
H11 C8 1_555 1_555
C9 C8 1_555 1_555
H12 C9 1_555 1_555
C10 C9 1_555 1_555
C11 C10 1_555 1_555
H13 C11 1_555 1_555
C12 N2 1_555 1_555
H14 C12 1_555 1_555
C13 H15 1_555 1_555
C14 C13 1_555 1_555
H16 C14 1_555 1_555
C15 C10 1_555 1_555
C16 C15 1_555 1_555
H17 C16 1_555 1_555
C17 N1 1_555 1_555
H18 C17 1_555 1_555
Zn1_2 N1 1_555 1_555
N1_2 Zn1 1_555 1_555
C5 C6 1_555 1_555
C11 C12 1_555 1_555
C14 C15 1_555 1_555
C16 C17 1_555 1_555

#END
