
#######################################################################
#
#                 Cambridge Crystallographic Data Centre
#                                CCDC 
#
#######################################################################
#
# If this CIF has been generated from an entry in the Cambridge 
# Structural Database, then it will include bibliographic, chemical, 
# crystal, experimental, refinement or atomic coordinate data resulting 
# from the CCDC's data processing and validation procedures.
#
#######################################################################

data_ZAWJAK
_symmetry_cell_setting           triclinic
_symmetry_space_group_name_H-M   'P -1'
_symmetry_Int_Tables_number      2
_space_group_name_Hall           '-P 1'
loop_
_symmetry_equiv_pos_site_id
_symmetry_equiv_pos_as_xyz
1 x,y,z
2 -x,-y,-z
_cell_length_a                   5.6965(11)
_cell_length_b                   7.1619(14)
_cell_length_c                   11.935(2)
_cell_angle_alpha                93.51(3)
_cell_angle_beta                 92.42(3)
_cell_angle_gamma                105.53(3)
_cell_volume                     467.393
loop_
_atom_site_label
_atom_site_type_symbol
_atom_site_fract_x
_atom_site_fract_y
_atom_site_fract_z
Cd1 Cd 0.0000 0.5000 0.0000
S1 S 0.4867(2) 0.43320(17) 0.14250(10)
O1 O 0.7053(8) 0.2455(6) 0.6765(3)
O2 O -0.0898(9) 0.2223(7) -0.1165(4)
H1 H 0.013(12) 0.156(10) -0.114(6)
H2 H -0.128(13) 0.238(11) -0.184(2)
O4 O 0.3025(9) 0.1164(7) 0.6604(4)
H5 H 0.3227 0.1005 0.7273
O5 O 0.2258(7) 0.3421(6) 0.0979(3)
O6 O 0.6528(7) 0.3287(5) 0.0815(3)
C1 C 0.5148(10) 0.2014(7) 0.6208(5)
C2 C 0.4968(10) 0.2417(7) 0.5005(4)
C3 C 0.7115(10) 0.3345(8) 0.4527(5)
H6 H 0.8593 0.3610 0.4948
C4 C 0.7087(10) 0.3880(9) 0.3430(5)
H7 H 0.8522 0.4534 0.3121
C5 C 0.4865(9) 0.3418(7) 0.2802(4)
C6 C 0.2738(10) 0.2474(8) 0.3252(4)
H8 H 0.1271 0.2177 0.2820
C7 C 0.2776(10) 0.1960(8) 0.4360(5)
H9 H 0.1335 0.1312 0.4666
Cd1_2 Cd -1.0000 0.5000 0.0000
Cd1_3 Cd 1.0000 0.5000 0.0000
S1A S -0.4867(2) 0.56680(17) -0.14250(10)
O1A O -0.7053(8) 0.7545(6) -0.6765(3)
O2A O 0.0898(9) 0.7777(7) 0.1165(4)
H1A H -0.013(12) 0.844(10) 0.114(6)
H2A H 0.128(13) 0.762(11) 0.184(2)
O4A O -0.3025(9) 0.8836(7) -0.6604(4)
H5A H -0.3227 0.8995 -0.7273
O5A O -0.2258(7) 0.6579(6) -0.0979(3)
O6A O -0.6528(7) 0.6713(5) -0.0815(3)
O6_2 O -0.3472(7) 0.3287(5) 0.0815(3)
O6A_2 O 0.3472(7) 0.6713(5) -0.0815(3)
C1A C -0.5148(10) 0.7986(7) -0.6208(5)
C2A C -0.4968(10) 0.7583(7) -0.5005(4)
C3A C -0.7115(10) 0.6655(8) -0.4527(5)
H6A H -0.8593 0.6390 -0.4948
C4A C -0.7087(10) 0.6120(9) -0.3430(5)
H7A H -0.8522 0.5466 -0.3121
C5A C -0.4865(9) 0.6582(7) -0.2802(4)
C6A C -0.2738(10) 0.7526(8) -0.3252(4)
H8A H -0.1271 0.7823 -0.2820
C7A C -0.2776(10) 0.8040(8) -0.4360(5)
H9A H -0.1335 0.8688 -0.4666
O3 O 0.3067(9) 0.0443(6) 0.8780(3)
H3 H 0.314(14) -0.069(4) 0.891(6)
H4 H 0.400(12) 0.129(7) 0.925(5)
loop_
_geom_bond_atom_site_label_1
_geom_bond_atom_site_label_2
_geom_bond_site_symmetry_1
_geom_bond_site_symmetry_2
Cd1 O2 1_555 1_555
S1 O5 1_555 1_555
O1 C1 1_555 1_555
O2 H1 1_555 1_555
H2 O2 1_555 1_555
O3 H3 1_555 1_555
H4 O3 1_555 1_555
O4 H5 1_555 1_555
O5 Cd1 1_555 1_555
O6 S1 1_555 1_555
C1 O4 1_555 1_555
C2 C1 1_555 1_555
C3 C2 1_555 1_555
H6 C3 1_555 1_555
C4 C3 1_555 1_555
H7 C4 1_555 1_555
C5 S1 1_555 1_555
C6 C5 1_555 1_555
H8 C6 1_555 1_555
C7 C2 1_555 1_555
H9 C7 1_555 1_555
Cd1_2 O6A 1_555 1_555
Cd1_3 O6 1_555 1_555
S1A O5A 1_555 1_555
O1A C1A 1_555 1_555
O2A Cd1 1_555 1_555
H1A O2A 1_555 1_555
H2A O2A 1_555 1_555
O4A H5A 1_555 1_555
O5A Cd1 1_555 1_555
O6A S1A 1_555 1_555
O6_2 Cd1 1_555 1_555
O6A_2 Cd1 1_555 1_555
C1A O4A 1_555 1_555
C2A C1A 1_555 1_555
C3A C2A 1_555 1_555
H6A C3A 1_555 1_555
C4A C3A 1_555 1_555
H7A C4A 1_555 1_555
C5A S1A 1_555 1_555
C6A C5A 1_555 1_555
H8A C6A 1_555 1_555
C7A C2A 1_555 1_555
H9A C7A 1_555 1_555
C4 C5 1_555 1_555
C6 C7 1_555 1_555
C4A C5A 1_555 1_555
C6A C7A 1_555 1_555

#END
