
#######################################################################
#
#                 Cambridge Crystallographic Data Centre
#                                CCDC 
#
#######################################################################
#
# If this CIF has been generated from an entry in the Cambridge 
# Structural Database, then it will include bibliographic, chemical, 
# crystal, experimental, refinement or atomic coordinate data resulting 
# from the CCDC's data processing and validation procedures.
#
#######################################################################

data_ZAWLUG
_symmetry_cell_setting           orthorhombic
_symmetry_space_group_name_H-M   'P b c a'
_symmetry_Int_Tables_number      61
_space_group_name_Hall           '-P 2ac 2ab'
loop_
_symmetry_equiv_pos_site_id
_symmetry_equiv_pos_as_xyz
1 x,y,z
2 1/2-x,-y,1/2+z
3 -x,1/2+y,1/2-z
4 1/2+x,1/2-y,-z
5 -x,-y,-z
6 1/2+x,y,1/2-z
7 x,1/2-y,1/2+z
8 1/2-x,1/2+y,z
_cell_length_a                   14.3014(8)
_cell_length_b                   14.3112(7)
_cell_length_c                   26.2091(12)
_cell_angle_alpha                90
_cell_angle_beta                 90
_cell_angle_gamma                90
_cell_volume                     5364.22
loop_
_atom_site_label
_atom_site_type_symbol
_atom_site_fract_x
_atom_site_fract_y
_atom_site_fract_z
Co1 Co 0.250399(18) 0.030639(19) 0.259544(9)
N1 N 0.19254(11) -0.02322(12) 0.33010(6)
N2 N 0.21749(11) -0.09284(12) 0.50751(6)
N3 N 0.19274(11) -0.08065(12) 0.68799(6)
C1 C 0.24409(13) -0.03646(14) 0.37251(7)
H1 H 0.3080 -0.0183 0.3718
C2 C 0.20927(13) -0.07507(13) 0.41712(7)
C3 C 0.11481(14) -0.10079(15) 0.41750(8)
H2 H 0.0877 -0.1272 0.4473
C4 C 0.06135(14) -0.08754(16) 0.37427(8)
H3 H -0.0029 -0.1045 0.3740
C5 C 0.10228(14) -0.04928(15) 0.33140(7)
H4 H 0.0652 -0.0410 0.3017
C6 C 0.26682(13) -0.08848(13) 0.46379(7)
C7 C 0.36349(13) -0.09748(14) 0.46212(7)
H5 H 0.3954 -0.0930 0.4304
C8 C 0.41391(13) -0.11307(13) 0.50706(7)
C9 C 0.36221(14) -0.11665(14) 0.55216(7)
H6 H 0.3930 -0.1264 0.5838
C10 C 0.26578(13) -0.10595(14) 0.55071(7)
C11 C 0.24319(13) -0.08033(14) 0.64469(7)
H7 H 0.3062 -0.0595 0.6463
C12 C 0.20817(13) -0.10879(14) 0.59792(7)
C13 C 0.11537(14) -0.13850(15) 0.59608(7)
H8 H 0.0884 -0.1581 0.5647
C14 C 0.06317(14) -0.13909(16) 0.64038(8)
H9 H -0.0001 -0.1593 0.6399
C15 C 0.10406(14) -0.11004(15) 0.68528(8)
H10 H 0.0677 -0.1109 0.7156
C16 C 0.51673(13) -0.12659(14) 0.50703(7)
C17 C 0.56948(15) -0.12009(18) 0.46267(8)
H11 H 0.5383 -0.1078 0.4314
C18 C 0.66534(15) -0.13083(18) 0.46223(9)
H12 H 0.6981 -0.1254 0.4308
C19 C 0.71530(14) -0.14948(15) 0.50693(9)
C20 C 0.66294(15) -0.15524(18) 0.55200(9)
H13 H 0.6940 -0.1670 0.5834
C21 C 0.56671(15) -0.14406(17) 0.55168(8)
H14 H 0.5336 -0.1485 0.5830
N4 N 0.81051(13) -0.16154(16) 0.50674(8)
C22 C 0.86406(16) -0.1412(2) 0.46068(12)
H15 H 0.8374 -0.1757 0.4318
H16 H 0.9293 -0.1602 0.4657
H17 H 0.8615 -0.0740 0.4536
C23 C 0.86285(17) -0.1667(2) 0.55424(11)
H18 H 0.8657 -0.1045 0.5699
H19 H 0.9264 -0.1888 0.5472
H20 H 0.8317 -0.2101 0.5776
N5 N 0.12392(12) 0.09380(13) 0.24169(7)
C24 C 0.07545(13) 0.14259(14) 0.21837(7)
S1 S 0.00984(4) 0.21306(4) 0.18495(2)
N6 N 0.37812(12) -0.02914(14) 0.27603(7)
C25 C 0.43453(14) -0.07244(15) 0.29667(8)
S2 S 0.51017(4) -0.13674(6) 0.32728(3)
O1 O 0.20612(11) -0.09122(11) 0.22126(6)
H21 H 0.153(2) -0.0947(19) 0.2120(10)
C26 C 0.26252(17) -0.14947(18) 0.18931(9)
H22 H 0.2661 -0.1222 0.1551
H23 H 0.2346 -0.2119 0.1872
H24 H 0.3256 -0.1542 0.2037
O2 O 0.29730(11) 0.14843(12) 0.30033(7)
H25 H 0.352(2) 0.157(2) 0.3029(11)
C27 C 0.2491(2) 0.23211(18) 0.31205(10)
H26 H 0.2616 0.2788 0.2855
H27 H 0.2705 0.2559 0.3451
H28 H 0.1817 0.2196 0.3136
Co1A Co 0.249601(18) -0.030639(19) 0.759544(9)
N3A N 0.30726(11) 0.08065(12) 0.18799(6)
loop_
_geom_bond_atom_site_label_1
_geom_bond_atom_site_label_2
_geom_bond_site_symmetry_1
_geom_bond_site_symmetry_2
Co1 N1 1_555 1_555
N1 C1 1_555 1_555
N2 C6 1_555 1_555
N3 C11 1_555 1_555
C1 H1 1_555 1_555
C2 C1 1_555 1_555
C3 C2 1_555 1_555
H2 C3 1_555 1_555
C4 C3 1_555 1_555
H3 C4 1_555 1_555
C5 N1 1_555 1_555
H4 C5 1_555 1_555
C6 C2 1_555 1_555
C7 C6 1_555 1_555
H5 C7 1_555 1_555
C8 C7 1_555 1_555
C9 C8 1_555 1_555
H6 C9 1_555 1_555
C10 N2 1_555 1_555
C11 H7 1_555 1_555
C12 C10 1_555 1_555
C13 C12 1_555 1_555
H8 C13 1_555 1_555
C14 C13 1_555 1_555
H9 C14 1_555 1_555
C15 N3 1_555 1_555
H10 C15 1_555 1_555
C16 C8 1_555 1_555
C17 C16 1_555 1_555
H11 C17 1_555 1_555
C18 C17 1_555 1_555
H12 C18 1_555 1_555
C19 C18 1_555 1_555
C20 C19 1_555 1_555
H13 C20 1_555 1_555
C21 C16 1_555 1_555
H14 C21 1_555 1_555
N4 C19 1_555 1_555
C22 N4 1_555 1_555
H15 C22 1_555 1_555
H16 C22 1_555 1_555
H17 C22 1_555 1_555
C23 N4 1_555 1_555
H18 C23 1_555 1_555
H19 C23 1_555 1_555
H20 C23 1_555 1_555
N5 Co1 1_555 1_555
C24 N5 1_555 1_555
S1 C24 1_555 1_555
N6 Co1 1_555 1_555
C25 N6 1_555 1_555
S2 C25 1_555 1_555
O1 Co1 1_555 1_555
H21 O1 1_555 1_555
C26 O1 1_555 1_555
H22 C26 1_555 1_555
H23 C26 1_555 1_555
H24 C26 1_555 1_555
O2 Co1 1_555 1_555
H25 O2 1_555 1_555
C27 O2 1_555 1_555
H26 C27 1_555 1_555
H27 C27 1_555 1_555
H28 C27 1_555 1_555
Co1A N3 1_555 1_555
N3A Co1 1_555 1_555
C4 C5 1_555 1_555
C9 C10 1_555 1_555
C11 C12 1_555 1_555
C14 C15 1_555 1_555
C20 C21 1_555 1_555

#END
