
#######################################################################
#
#                 Cambridge Crystallographic Data Centre
#                                CCDC 
#
#######################################################################
#
# If this CIF has been generated from an entry in the Cambridge 
# Structural Database, then it will include bibliographic, chemical, 
# crystal, experimental, refinement or atomic coordinate data resulting 
# from the CCDC's data processing and validation procedures.
#
#######################################################################

data_ZAWLAM
_symmetry_cell_setting           monoclinic
_symmetry_space_group_name_H-M   'P 21/n'
_symmetry_Int_Tables_number      14
_space_group_name_Hall           '-P 2yn'
loop_
_symmetry_equiv_pos_site_id
_symmetry_equiv_pos_as_xyz
1 x,y,z
2 1/2-x,1/2+y,1/2-z
3 -x,-y,-z
4 1/2+x,1/2-y,1/2+z
_cell_length_a                   10.1868(4)
_cell_length_b                   14.2071(5)
_cell_length_c                   11.0417(5)
_cell_angle_alpha                90
_cell_angle_beta                 107.926(5)
_cell_angle_gamma                90
_cell_volume                     1520.43
loop_
_atom_site_label
_atom_site_type_symbol
_atom_site_fract_x
_atom_site_fract_y
_atom_site_fract_z
I1 I 1.33779(3) 0.584614(19) 0.58664(3)
I2 I 1.25888(3) 0.91665(2) 0.49449(3)
Ca1 Ca 0.88307(9) 0.74734(5) 0.64702(8)
O1 O 1.1309(4) 0.7576(2) 0.6795(4)
O2 O 0.9547(4) 0.7523(3) 0.8758(3)
O3 O 0.9538(5) 0.9104(2) 0.6931(4)
O4 O 0.7635(5) 0.8287(3) 0.4542(4)
O5 O 0.7004(4) 0.6314(2) 0.5964(4)
H1 H 0.928(6) 0.706(3) 0.910(5)
H2 H 0.708(6) 0.590(3) 0.545(4)
H3 H 0.640(5) 0.627(4) 0.633(6)
H4 H 0.932(5) 0.792(3) 0.922(4)
H5 H 1.158(5) 0.803(2) 0.645(4)
H6 H 1.165(9) 0.710(4) 0.655(8)
H7 H 0.727(6) 0.882(2) 0.457(6)
H8 H 0.687(5) 0.815(6) 0.402(7)
H9 H 0.901(8) 0.959(5) 0.638(8)
H10 H 1.023(4) 0.938(4) 0.740(6)
O6 O 0.9942(3) 0.59245(17) 0.7420(3)
C1 C 0.9842(4) 0.5082(3) 0.7222(4)
N1 N 1.0523(4) 0.4647(2) 0.6487(3)
N2 N 0.8997(4) 0.4522(2) 0.7687(4)
C2 C 0.8881(5) 0.3562(3) 0.7544(4)
O7 O 1.0906(3) 0.3447(2) 0.5343(3)
C3 C 1.0402(4) 0.3716(3) 0.6128(4)
C4 C 0.9683(5) 0.3105(3) 0.6802(4)
H11 H 0.9062 0.2699 0.6176
H12 H 1.0368 0.2703 0.7375
O8 O 0.8167(4) 0.3121(2) 0.8031(4)
H13 H 0.873(5) 0.484(3) 0.832(4)
H14 H 1.115(5) 0.502(3) 0.620(4)
Ca1B Ca 1.11693(9) 0.25266(5) 0.35298(8)
Ca1A Ca 0.61693(9) 0.24734(5) 0.85298(8)
O7B O 0.9094(3) 0.6553(2) 0.4657(3)
O8A O 0.6833(4) 0.8121(2) 0.6969(4)
loop_
_geom_bond_atom_site_label_1
_geom_bond_atom_site_label_2
_geom_bond_site_symmetry_1
_geom_bond_site_symmetry_2
Ca1 O1 1_555 1_555
O1 H5 1_555 1_555
O2 Ca1 1_555 1_555
O3 Ca1 1_555 1_555
O4 Ca1 1_555 1_555
O5 Ca1 1_555 1_555
H1 O2 1_555 1_555
H2 O5 1_555 1_555
H3 O5 1_555 1_555
H4 O2 1_555 1_555
H6 O1 1_555 1_555
H7 O4 1_555 1_555
H8 O4 1_555 1_555
H9 O3 1_555 1_555
H10 O3 1_555 1_555
O6 Ca1 1_555 1_555
C1 O6 1_555 1_555
N1 C1 1_555 1_555
N2 C1 1_555 1_555
C2 N2 1_555 1_555
O7 C3 1_555 1_555
C3 N1 1_555 1_555
C4 C2 1_555 1_555
H11 C4 1_555 1_555
H12 C4 1_555 1_555
O8 C2 1_555 1_555
H13 N2 1_555 1_555
H14 N1 1_555 1_555
Ca1B O7 1_555 1_555
Ca1A O8 1_555 1_555
O7B Ca1 1_555 1_555
O8A Ca1 1_555 1_555
C3 C4 1_555 1_555

#END
