
#######################################################################
#
#                 Cambridge Crystallographic Data Centre
#                                CCDC 
#
#######################################################################
#
# If this CIF has been generated from an entry in the Cambridge 
# Structural Database, then it will include bibliographic, chemical, 
# crystal, experimental, refinement or atomic coordinate data resulting 
# from the CCDC's data processing and validation procedures.
#
#######################################################################

data_ZAWMUH
_symmetry_cell_setting           triclinic
_symmetry_space_group_name_H-M   'P -1'
_symmetry_Int_Tables_number      2
_space_group_name_Hall           '-P 1'
loop_
_symmetry_equiv_pos_site_id
_symmetry_equiv_pos_as_xyz
1 x,y,z
2 -x,-y,-z
_cell_length_a                   15.636(4)
_cell_length_b                   16.037(3)
_cell_length_c                   19.011(3)
_cell_angle_alpha                69.543(8)
_cell_angle_beta                 70.462(8)
_cell_angle_gamma                83.439(9)
_cell_volume                     4209.26
loop_
_atom_site_label
_atom_site_type_symbol
_atom_site_fract_x
_atom_site_fract_y
_atom_site_fract_z
Zn1 Zn 0.23724(6) 0.84874(6) 0.33364(5)
Zn2 Zn 0.24178(6) -0.10298(6) 0.79617(5)
Zn3 Zn 0.22392(6) 0.35296(6) -0.15340(6)
Zn4 Zn 0.24704(7) 0.39548(6) 1.29800(6)
O1 O 0.1660(4) 0.7400(4) 0.4004(4)
O2 O 0.1851(4) 0.7482(4) 0.5085(4)
O3 O 0.1748(4) 0.0076(4) 0.7655(4)
O4 O 0.1834(4) -0.0056(4) 0.6502(4)
O5 O 0.3037(4) 0.8285(4) 0.2330(4)
O6 O 0.3563(4) 0.7097(4) 0.3101(3)
O7 O 0.2887(5) 0.4192(4) -0.1149(4)
O8 O 0.3408(4) 0.5368(4) -0.2233(3)
O9 O 0.2991(4) -0.0872(4) 0.8699(4)
O10 O 0.3619(4) 0.0289(5) 0.7655(4)
O11 O 0.3170(4) 0.3407(4) 1.2186(4)
O12 O 0.3621(4) 0.2183(4) 1.2988(4)
O13 O 0.1753(4) 0.2530(4) -0.0431(4)
O14 O 0.1514(5) 0.2205(4) -0.1385(4)
O15 O 0.1875(8) -0.4788(5) 0.2975(7)
O16 O 0.1820(5) -0.5079(5) 0.1950(6)
N1 N 0.0070(5) 0.9998(4) 0.3278(4)
H1 H -0.0526 1.0034 0.3425
N2 N 0.1430(4) 0.9426(4) 0.3122(4)
N3 N 0.0075(5) 1.5076(4) 0.1800(4)
H2 H 0.0664 1.5052 0.1719
N4 N -0.1275(5) 1.5625(5) 0.1835(4)
N5 N 0.4696(5) 0.9406(5) 0.3334(4)
H3 H 0.5281 0.9511 0.3097
N6 N 0.3298(5) 0.9014(4) 0.3573(4)
N7 N 0.0042(4) -0.2467(4) 0.9277(4)
H4 H -0.0553 -0.2484 0.9482
N8 N 0.1421(5) -0.1930(4) 0.8638(4)
N9 N 0.4761(5) -0.1958(4) 0.6719(4)
H5 H 0.5346 -0.2059 0.6635
N10 N 0.3365(5) -0.1557(4) 0.7249(4)
N11 N 0.5294(5) -0.3198(5) 0.3065(4)
H6 H 0.4698 -0.3216 0.3206
N12 N 0.6721(5) -0.3302(4) 0.2383(4)
N13 N 0.0087(4) 0.2534(4) 1.4162(4)
H7 H -0.0509 0.2517 1.4305
N14 N 0.1465(5) 0.3075(4) 1.3675(4)
N15 N 0.4865(5) 0.4354(5) 1.3279(4)
H8 H 0.5462 0.4378 1.3096
N16 N 0.3455(5) 0.4146(5) 1.3377(5)
C1 C 0.1290(5) 0.4207(5) 0.5773(5)
C2 C 0.1115(6) 0.4664(6) 0.5050(5)
H9 H 0.0917 0.4346 0.4794
C3 C 0.1234(6) 0.5583(6) 0.4717(5)
H10 H 0.1127 0.5885 0.4226
C4 C 0.1505(5) 0.6072(5) 0.5083(5)
C5 C 0.1643(6) 0.5626(6) 0.5807(5)
H11 H 0.1810 0.5951 0.6073
C6 C 0.1537(6) 0.4707(6) 0.6147(5)
H12 H 0.1636 0.4414 0.6642
C7 C 0.1698(5) 0.7059(6) 0.4696(5)
C8 C 0.1297(5) 0.3224(5) 0.6085(5)
C9 C 0.1565(6) 0.2721(5) 0.5571(5)
H13 H 0.1675 0.3009 0.5019
C10 C 0.1667(6) 0.1812(5) 0.5864(5)
H14 H 0.1841 0.1482 0.5510
C11 C 0.1523(5) 0.1365(5) 0.6667(5)
C12 C 0.1234(6) 0.1851(6) 0.7179(5)
H15 H 0.1118 0.1554 0.7730
C13 C 0.1111(6) 0.2765(5) 0.6898(5)
H16 H 0.0899 0.3083 0.7262
C14 C 0.1719(5) 0.0380(6) 0.6954(5)
C15 C 0.4004(6) 0.6446(5) 0.0572(5)
C16 C 0.3872(8) 0.7361(6) 0.0434(6)
H17 H 0.3875 0.7744 -0.0077
C17 C 0.3738(8) 0.7716(6) 0.1030(6)
H18 H 0.3652 0.8339 0.0924
C18 C 0.3727(5) 0.7163(6) 0.1785(5)
C19 C 0.3938(6) 0.6278(6) 0.1905(5)
H19 H 0.3985 0.5906 0.2404
C20 C 0.4082(6) 0.5926(6) 0.1310(5)
H20 H 0.4237 0.5315 0.1403
C21 C 0.3442(5) 0.7528(5) 0.2447(5)
C22 C 0.3956(6) 0.6052(6) -0.0008(5)
C23 C 0.4078(6) 0.6544(6) -0.0796(5)
H21 H 0.4302 0.7136 -0.0997
C24 C 0.3884(6) 0.6198(5) -0.1297(5)
H22 H 0.3966 0.6558 -0.1832
C25 C 0.3570(6) 0.5329(6) -0.1027(5)
C26 C 0.3461(9) 0.4835(6) -0.0249(6)
H23 H 0.3238 0.4242 -0.0046
C27 C 0.3671(9) 0.5183(6) 0.0246(6)
H24 H 0.3617 0.4814 0.0773
C28 C 0.3276(5) 0.4942(5) -0.1522(5)
C29 C 0.3864(6) 0.0999(6) 0.9975(5)
C30 C 0.3638(7) 0.0102(6) 1.0222(6)
H25 H 0.3574 -0.0264 1.0752
C31 C 0.3507(7) -0.0259(6) 0.9703(6)
H26 H 0.3329 -0.0865 0.9887
C32 C 0.3632(6) 0.0250(6) 0.8919(5)
C33 C 0.3906(6) 0.1133(6) 0.8656(6)
H27 H 0.4019 0.1485 0.8115
C34 C 0.4013(6) 0.1494(6) 0.9179(6)
H28 H 0.4194 0.2099 0.8992
C35 C 0.3414(5) -0.0130(6) 0.8375(5)
C36 C 0.3853(6) 0.1416(6) 1.0561(5)
C37 C 0.4089(6) 0.0960(6) 1.1238(6)
H29 H 0.4326 0.0375 1.1309
C38 C 0.3986(6) 0.1340(6) 1.1813(5)
H30 H 0.4156 0.1012 1.2269
C39 C 0.3637(6) 0.2197(5) 1.1734(5)
C40 C 0.3392(7) 0.2650(6) 1.1058(6)
H31 H 0.3150 0.3234 1.0989
C41 C 0.3492(8) 0.2266(6) 1.0477(6)
H32 H 0.3314 0.2587 1.0025
C42 C 0.3478(5) 0.2617(5) 1.2358(5)
C43 C 0.1258(5) -0.0795(5) 0.0742(5)
C44 C 0.1428(6) -0.0166(5) 0.1032(5)
H33 H 0.1491 -0.0353 0.1545
C45 C 0.1506(6) 0.0733(5) 0.0579(5)
H34 H 0.1631 0.1153 0.0781
C46 C 0.1403(6) 0.1020(5) -0.0164(5)
C47 C 0.1195(6) 0.0406(6) -0.0442(5)
H35 H 0.1109 0.0596 -0.0946
C48 C 0.1113(6) -0.0479(6) 0.0008(5)
H36 H 0.0954 -0.0890 -0.0187
C49 C 0.1560(6) 0.1985(6) -0.0701(5)
C50 C 0.1298(5) -0.1765(5) 0.1167(5)
C51 C 0.1174(6) -0.2108(6) 0.1977(5)
H37 H 0.0983 -0.1719 0.2279
C52 C 0.1320(7) -0.2999(6) 0.2356(6)
H38 H 0.1259 -0.3205 0.2903
C53 C 0.1555(6) -0.3589(6) 0.1935(6)
C54 C 0.1665(6) -0.3263(6) 0.1131(6)
H39 H 0.1827 -0.3661 0.0837
C55 C 0.1543(6) -0.2370(5) 0.0751(6)
H40 H 0.1627 -0.2165 0.0199
C56 C 0.1756(6) -0.4563(7) 0.2330(9)
C57 C 0.0356(6) 1.1635(5) 0.2661(5)
C58 C -0.0560(6) 1.1858(5) 0.2864(5)
H41 H -0.1006 1.1400 0.3133
C59 C -0.0827(6) 1.2743(5) 0.2678(5)
H42 H -0.1455 1.2885 0.2828
C60 C -0.0186(6) 1.3429(5) 0.2272(5)
C61 C 0.0727(6) 1.3205(5) 0.2060(5)
H43 H 0.1174 1.3662 0.1782
C62 C 0.0992(6) 1.2321(5) 0.2252(5)
H44 H 0.1620 1.2180 0.2101
C63 C 0.0664(5) 1.0709(5) 0.2874(5)
C64 C 0.1507(5) 1.0338(5) 0.2781(5)
H45 H 0.2063 1.0660 0.2521
C65 C 0.0545(5) 0.9249(5) 0.3408(5)
H46 H 0.0288 0.8669 0.3669
C66 C -0.0497(6) 1.4355(5) 0.2090(5)
C67 C -0.1342(6) 1.4711(5) 0.2106(5)
H47 H -0.1884 1.4381 0.2277
C68 C -0.0424(6) 1.5823(5) 0.1663(5)
H48 H -0.0190 1.6411 0.1469
C69 C 0.4601(5) 0.9789(5) 0.4514(5)
C70 C 0.5552(6) 0.9785(5) 0.4346(5)
H49 H 0.5935 0.9640 0.3899
C71 C 0.4066(5) 1.0010(5) 0.5173(5)
H50 H 0.3425 1.0021 0.5297
C72 C 0.0293(5) -0.4115(5) 0.9679(4)
C73 C -0.0617(5) -0.4321(5) 0.9891(5)
H51 H -0.1044 -0.3854 0.9818
C74 C 0.0912(6) -0.4807(5) 0.9794(5)
H52 H 0.1536 -0.4679 0.9655
C75 C 0.4193(5) 0.9528(5) 0.4039(5)
C76 C 0.3335(5) 0.9285(5) 0.4169(5)
H53 H 0.2829 0.9301 0.4613
C77 C 0.4146(6) 0.9101(5) 0.3071(5)
H54 H 0.4331 0.8965 0.2594
C78 C 0.0611(5) -0.3190(5) 0.9319(5)
C79 C 0.1482(5) -0.2839(5) 0.8903(5)
H55 H 0.2026 -0.3174 0.8817
C80 C 0.0559(5) -0.1730(5) 0.8864(5)
H56 H 0.0327 -0.1140 0.8751
C81 C 0.4637(6) -0.2359(5) 0.5587(5)
C82 C 0.4097(6) -0.2566(5) 0.5230(5)
H57 H 0.3457 -0.2581 0.5472
C83 C 0.4451(5) -0.2753(5) 0.4533(5)
H58 H 0.4056 -0.2900 0.4307
C84 C 0.5387(5) -0.2727(5) 0.4158(5)
C85 C 0.5943(6) -0.2537(5) 0.4520(5)
H59 H 0.6583 -0.2532 0.4280
C86 C 0.5587(5) -0.2355(5) 0.5222(5)
H60 H 0.5981 -0.2227 0.5459
C87 C 0.4247(6) -0.2096(5) 0.6293(5)
C88 C 0.3377(6) -0.1849(5) 0.6643(5)
H61 H 0.2864 -0.1876 0.6490
C89 C 0.4214(6) -0.1647(5) 0.7272(5)
H62 H 0.4404 -0.1505 0.7642
C90 C 0.5792(5) -0.2941(5) 0.3434(5)
C91 C 0.6675(6) -0.2999(6) 0.2991(5)
H63 H 0.7186 -0.2850 0.3088
C92 C 0.5870(6) -0.3414(5) 0.2460(5)
H64 H 0.5688 -0.3625 0.2123
C93 C 0.0309(5) 0.0888(5) 1.4640(4)
C94 C -0.0612(5) 0.0688(5) 1.4908(5)
H65 H -0.1037 0.1160 1.4848
C95 C 0.0925(5) 0.0181(5) 1.4739(5)
H66 H 0.1557 0.0300 1.4563
C96 C 0.4690(6) 0.4808(5) 1.4465(6)
C97 C 0.4087(6) 0.4944(6) 1.5141(6)
H67 H 0.3453 0.4914 1.5238
C98 C 0.5606(7) 0.4879(6) 1.4329(6)
H68 H 0.6029 0.4804 1.3862
C99 C 0.0645(5) 0.1810(5) 1.4267(5)
C100 C 0.1510(5) 0.2151(5) 1.3943(5)
H69 H 0.2052 0.1811 1.3907
C101 C 0.0594(5) 0.3271(5) 1.3809(5)
H70 H 0.0360 0.3858 1.3673
C102 C 0.4324(6) 0.4576(5) 1.3936(5)
C103 C 0.3468(6) 0.4451(6) 1.3971(6)
H71 H 0.2939 0.4558 1.4357
C104 C 0.4327(6) 0.4098(6) 1.2974(6)
H72 H 0.4541 0.3905 1.2526
Zn1A Zn 0.76276(6) 1.15126(6) 0.66636(5)
Zn1A_2 Zn -0.23724(6) 1.15126(6) -0.33364(5)
Zn2A Zn 0.75822(6) 2.10298(6) 0.20383(5)
Zn2A_2 Zn -0.24178(6) -0.89702(6) 1.20383(5)
Zn2A_3 Zn 0.75822(6) 0.10298(6) -0.79617(5)
Zn3A Zn -0.22392(6) 1.64704(6) 0.15340(6)
Zn3A_2 Zn 0.77608(6) -0.35296(6) 0.15340(6)
Zn3A_3 Zn 0.77608(6) 1.64704(6) 1.15340(6)
Zn4_2 Zn 0.24704(7) -0.60452(6) 0.29800(6)
Zn4A Zn -0.24704(7) -0.39548(6) 1.70200(6)
Zn4A_2 Zn 0.75296(7) 0.60452(6) 1.70200(6)
Zn4A_3 Zn -0.24704(7) 2.60452(6) -0.29800(6)
Zn4A_4 Zn 0.75296(7) 1.60452(6) -0.29800(6)
O1A O 0.8340(4) 1.2600(4) 0.5996(4)
O2A O 0.8149(4) 1.2518(4) 0.4915(4)
O3A O 0.8252(4) 1.9924(4) 0.2345(4)
O4A O 0.8166(4) 2.0056(4) 0.3498(4)
O5A O 0.6963(4) 1.1715(4) 0.7670(4)
O6A O 0.6437(4) 1.2903(4) 0.6899(3)
O7A O 0.7113(5) 1.5808(4) 1.1149(4)
O7A_2 O -0.2887(5) 1.5808(4) 0.1149(4)
O8A O 0.6592(4) 1.4632(4) 1.2233(3)
O9A O 0.7009(4) 2.0872(4) 0.1301(4)
O10A O 0.6381(4) 1.9711(5) 0.2345(4)
O11A O 0.6830(4) 1.6593(4) -0.2186(4)
O11_2 O 0.3170(4) -0.6593(4) 0.2186(4)
O12A O 0.6379(4) 1.7817(4) -0.2988(4)
O13A O -0.1753(4) 1.7470(4) 0.0431(4)
O14A O -0.1514(5) 1.7795(4) 0.1385(4)
O15A O -0.1875(8) 2.4788(5) -0.2975(7)
O15_2 O 0.1875(8) 0.5212(5) 1.2975(7)
O16A O -0.1820(5) 2.5079(5) -0.1950(6)
N1A N -0.0070(5) 1.0002(4) -0.3278(4)
H1A H 0.0526 0.9966 -0.3425
N2A N -0.1430(4) 1.0574(4) -0.3122(4)
N2A_2 N 0.8570(4) 1.0574(4) 0.6878(4)
N3A N -0.0075(5) 0.4924(4) -0.1800(4)
H2A H -0.0664 0.4948 -0.1719
N4A N 0.1275(5) 0.4375(5) -0.1835(4)
N5A N 0.5304(5) 1.0594(5) 0.6666(4)
H3A H 0.4719 1.0489 0.6903
N6A N 0.6702(5) 1.0986(4) 0.6427(4)
N7A N -0.0042(4) -0.7533(4) 1.0723(4)
H4A H 0.0553 -0.7516 1.0518
N8A N -0.1421(5) -0.8070(4) 1.1362(4)
N8A_2 N 0.8579(5) 2.1930(4) 0.1362(4)
N9A N 0.5239(5) 0.1958(4) -0.6719(4)
H5A H 0.4654 0.2059 -0.6635
N10A N 0.6635(5) 0.1557(4) -0.7249(4)
N10A_2 N 0.6635(5) 2.1557(4) 0.2751(4)
N11A N 0.4706(5) 0.3198(5) -0.3065(4)
H6A H 0.5302 0.3216 -0.3206
N12A N 0.3279(5) 0.3302(4) -0.2383(4)
N12_2 N -0.3279(5) 1.6698(4) 0.2383(4)
N13A N -0.0087(4) -0.2534(4) 1.5838(4)
H7A H 0.0509 -0.2517 1.5695
N14A N -0.1465(5) -0.3075(4) 1.6325(4)
N14_2 N 0.1465(5) -0.6925(4) 0.3675(4)
N15A N 0.5135(5) 0.5646(5) 1.6721(4)
H8A H 0.4538 0.5622 1.6904
N16A N 0.6545(5) 0.5854(5) 1.6623(5)
N16_2 N 0.3455(5) -0.5854(5) 0.3377(5)
C1A C 0.8710(5) 1.5793(5) 0.4227(5)
C2A C 0.8885(6) 1.5336(6) 0.4950(5)
H9A H 0.9083 1.5654 0.5206
C3A C 0.8766(6) 1.4417(6) 0.5283(5)
H10A H 0.8873 1.4115 0.5774
C4A C 0.8495(5) 1.3928(5) 0.4917(5)
C5A C 0.8357(6) 1.4374(6) 0.4193(5)
H11A H 0.8190 1.4049 0.3927
C6A C 0.8463(6) 1.5293(6) 0.3853(5)
H12A H 0.8364 1.5586 0.3358
C7A C 0.8302(5) 1.2941(6) 0.5304(5)
C8A C 0.8703(5) 1.6776(5) 0.3915(5)
C9A C 0.8435(6) 1.7279(5) 0.4429(5)
H13A H 0.8325 1.6991 0.4981
C10A C 0.8333(6) 1.8188(5) 0.4136(5)
H14A H 0.8159 1.8518 0.4490
C11A C 0.8477(5) 1.8635(5) 0.3333(5)
C12A C 0.8766(6) 1.8149(6) 0.2821(5)
H15A H 0.8882 1.8446 0.2270
C13A C 0.8889(6) 1.7235(5) 0.3102(5)
H16A H 0.9101 1.6917 0.2738
C14A C 0.8281(5) 1.9620(6) 0.3046(5)
C15A C 0.5996(6) 1.3554(5) 0.9428(5)
C16A C 0.6128(8) 1.2639(6) 0.9566(6)
H17A H 0.6125 1.2256 1.0077
C17A C 0.6262(8) 1.2284(6) 0.8970(6)
H18A H 0.6348 1.1661 0.9076
C18A C 0.6273(5) 1.2837(6) 0.8215(5)
C19A C 0.6062(6) 1.3722(6) 0.8095(5)
H19A H 0.6015 1.4094 0.7596
C20A C 0.5918(6) 1.4074(6) 0.8690(5)
H20A H 0.5763 1.4685 0.8597
C21A C 0.6558(5) 1.2472(5) 0.7553(5)
C22A C 0.6044(6) 1.3948(6) 1.0008(5)
C23A C 0.5922(6) 1.3456(6) 1.0796(5)
H21A H 0.5698 1.2864 1.0997
C24A C 0.6116(6) 1.3802(5) 1.1297(5)
H22A H 0.6034 1.3442 1.1832
C25A C 0.6430(6) 1.4671(6) 1.1027(5)
C26A C 0.6539(9) 1.5165(6) 1.0249(6)
H23A H 0.6762 1.5758 1.0046
C27A C 0.6329(9) 1.4817(6) 0.9754(6)
H24A H 0.6383 1.5186 0.9227
C28A C 0.6724(5) 1.5058(5) 1.1522(5)
C29A C 0.6136(6) 1.9001(6) 0.0025(5)
C30A C 0.6362(7) 1.9898(6) -0.0222(6)
H25A H 0.6426 2.0264 -0.0752
C31A C 0.6493(7) 2.0259(6) 0.0297(6)
H26A H 0.6671 2.0865 0.0113
C32A C 0.6368(6) 1.9750(6) 0.1081(5)
C33A C 0.6094(6) 1.8867(6) 0.1344(6)
H27A H 0.5981 1.8515 0.1885
C34A C 0.5987(6) 1.8506(6) 0.0821(6)
H28A H 0.5806 1.7901 0.1008
C35A C 0.6586(5) 2.0130(6) 0.1625(5)
C36A C 0.6147(6) 1.8584(6) -0.0561(5)
C37A C 0.5911(6) 1.9040(6) -0.1238(6)
H29A H 0.5674 1.9625 -0.1309
C38A C 0.6014(6) 1.8660(6) -0.1813(5)
H30A H 0.5844 1.8988 -0.2269
C39A C 0.6363(6) 1.7803(5) -0.1734(5)
C40A C 0.6608(7) 1.7350(6) -0.1058(6)
H31A H 0.6850 1.6766 -0.0989
C41A C 0.6508(8) 1.7734(6) -0.0477(6)
H32A H 0.6686 1.7413 -0.0025
C42A C 0.6522(5) 1.7383(5) -0.2358(5)
C43A C -0.1258(5) 2.0795(5) -0.0742(5)
C44A C -0.1428(6) 2.0166(5) -0.1032(5)
H33A H -0.1491 2.0353 -0.1545
C45A C -0.1506(6) 1.9267(5) -0.0579(5)
H34A H -0.1631 1.8847 -0.0781
C46A C -0.1403(6) 1.8980(5) 0.0164(5)
C47A C -0.1195(6) 1.9594(6) 0.0442(5)
H35A H -0.1109 1.9404 0.0946
C48A C -0.1113(6) 2.0479(6) -0.0008(5)
H36A H -0.0954 2.0890 0.0187
C49A C -0.1560(6) 1.8015(6) 0.0701(5)
C50A C -0.1298(5) 2.1765(5) -0.1167(5)
C51A C -0.1174(6) 2.2108(6) -0.1977(5)
H37A H -0.0983 2.1719 -0.2279
C52A C -0.1320(7) 2.2999(6) -0.2356(6)
H38A H -0.1259 2.3205 -0.2903
C53A C -0.1555(6) 2.3589(6) -0.1935(6)
C54A C -0.1665(6) 2.3263(6) -0.1131(6)
H39A H -0.1827 2.3661 -0.0837
C55A C -0.1543(6) 2.2370(5) -0.0751(6)
H40A H -0.1627 2.2165 -0.0199
C56A C -0.1756(6) 2.4563(7) -0.2330(9)
C57A C -0.0356(6) 0.8365(5) -0.2661(5)
C58A C 0.0560(6) 0.8142(5) -0.2864(5)
H41A H 0.1006 0.8600 -0.3133
C59A C 0.0827(6) 0.7257(5) -0.2678(5)
H42A H 0.1455 0.7115 -0.2828
C60A C 0.0186(6) 0.6571(5) -0.2272(5)
C61A C -0.0727(6) 0.6795(5) -0.2060(5)
H43A H -0.1174 0.6338 -0.1782
C62A C -0.0992(6) 0.7679(5) -0.2252(5)
H44A H -0.1620 0.7820 -0.2101
C63A C -0.0664(5) 0.9291(5) -0.2874(5)
C64A C -0.1507(5) 0.9662(5) -0.2781(5)
H45A H -0.2063 0.9340 -0.2521
C65A C -0.0545(5) 1.0751(5) -0.3408(5)
H46A H -0.0288 1.1331 -0.3669
C66A C 0.0497(6) 0.5645(5) -0.2090(5)
C67A C 0.1342(6) 0.5289(5) -0.2106(5)
H47A H 0.1884 0.5619 -0.2277
C68A C 0.0424(6) 0.4177(5) -0.1663(5)
H48A H 0.0190 0.3589 -0.1469
C69A C 0.5399(5) 1.0211(5) 0.5486(5)
C70A C 0.4448(6) 1.0215(5) 0.5654(5)
H49A H 0.4065 1.0360 0.6101
C71A C 0.5934(5) 0.9990(5) 0.4827(5)
H50A H 0.6575 0.9979 0.4703
C72A C -0.0293(5) -0.5885(5) 1.0321(4)
C73A C 0.0617(5) -0.5679(5) 1.0109(5)
H51A H 0.1044 -0.6146 1.0182
C74A C -0.0912(6) -0.5193(5) 1.0206(5)
H52A H -0.1536 -0.5321 1.0345
C75A C 0.5807(5) 1.0472(5) 0.5961(5)
C76A C 0.6665(5) 1.0715(5) 0.5831(5)
H53A H 0.7171 1.0699 0.5387
C77A C 0.5854(6) 1.0899(5) 0.6929(5)
H54A H 0.5669 1.1035 0.7406
C78A C -0.0611(5) -0.6810(5) 1.0681(5)
C79A C -0.1482(5) -0.7161(5) 1.1097(5)
H55A H -0.2026 -0.6826 1.1183
C80A C -0.0559(5) -0.8270(5) 1.1136(5)
H56A H -0.0327 -0.8860 1.1249
C81A C 0.5363(6) 0.2359(5) -0.5587(5)
C82A C 0.5903(6) 0.2566(5) -0.5230(5)
H57A H 0.6543 0.2581 -0.5472
C83A C 0.5549(5) 0.2753(5) -0.4533(5)
H58A H 0.5944 0.2900 -0.4307
C84A C 0.4613(5) 0.2727(5) -0.4158(5)
C85A C 0.4057(6) 0.2537(5) -0.4520(5)
H59A H 0.3417 0.2532 -0.4280
C86A C 0.4413(5) 0.2355(5) -0.5222(5)
H60A H 0.4019 0.2227 -0.5459
C87A C 0.5753(6) 0.2096(5) -0.6293(5)
C88A C 0.6623(6) 0.1849(5) -0.6643(5)
H61A H 0.7136 0.1876 -0.6490
C89A C 0.5786(6) 0.1647(5) -0.7272(5)
H62A H 0.5596 0.1505 -0.7642
C90A C 0.4208(5) 0.2941(5) -0.3434(5)
C91A C 0.3325(6) 0.2999(6) -0.2991(5)
H63A H 0.2814 0.2850 -0.3088
C92A C 0.4130(6) 0.3414(5) -0.2460(5)
H64A H 0.4312 0.3625 -0.2123
C93A C -0.0309(5) -0.0888(5) 1.5360(4)
C94A C 0.0612(5) -0.0688(5) 1.5092(5)
H65A H 0.1037 -0.1160 1.5152
C95A C -0.0925(5) -0.0181(5) 1.5261(5)
H66A H -0.1557 -0.0300 1.5437
C96A C 0.5310(6) 0.5192(5) 1.5535(6)
C97A C 0.5913(6) 0.5056(6) 1.4859(6)
H67A H 0.6547 0.5086 1.4762
C98A C 0.4394(7) 0.5121(6) 1.5671(6)
H68A H 0.3971 0.5196 1.6138
C99A C -0.0645(5) -0.1810(5) 1.5733(5)
C100A C -0.1510(5) -0.2151(5) 1.6057(5)
H69A H -0.2052 -0.1811 1.6093
C101A C -0.0594(5) -0.3271(5) 1.6191(5)
H70A H -0.0360 -0.3858 1.6327
C102A C 0.5676(6) 0.5424(5) 1.6064(5)
C103A C 0.6532(6) 0.5549(6) 1.6029(6)
H71A H 0.7061 0.5442 1.5643
C104A C 0.5673(6) 0.5902(6) 1.7026(6)
H72A H 0.5459 0.6095 1.7474
loop_
_geom_bond_atom_site_label_1
_geom_bond_atom_site_label_2
_geom_bond_site_symmetry_1
_geom_bond_site_symmetry_2
Zn1 O1 1_555 1_555
Zn2 O3 1_555 1_555
Zn3 O7 1_555 1_555
Zn4 O11 1_555 1_555
O1 C7 1_555 1_555
O2 C7 1_555 1_555
O3 C14 1_555 1_555
O4 C14 1_555 1_555
O5 Zn1 1_555 1_555
O6 C21 1_555 1_555
O7 C28 1_555 1_555
O8 C28 1_555 1_555
O9 Zn2 1_555 1_555
O10 C35 1_555 1_555
O11 C42 1_555 1_555
O12 C42 1_555 1_555
O13 Zn3 1_555 1_555
O14 C49 1_555 1_555
O15 C56 1_555 1_555
O16 C56 1_555 1_555
N1 H1 1_555 1_555
N2 Zn1 1_555 1_555
N3 H2 1_555 1_555
N4 C67 1_555 1_555
N5 H3 1_555 1_555
N6 Zn1 1_555 1_555
N7 H4 1_555 1_555
N8 Zn2 1_555 1_555
N9 H5 1_555 1_555
N10 Zn2 1_555 1_555
N11 H6 1_555 1_555
N12 C91 1_555 1_555
N13 H7 1_555 1_555
N14 Zn4 1_555 1_555
N15 H8 1_555 1_555
N16 Zn4 1_555 1_555
C1 C2 1_555 1_555
C2 H9 1_555 1_555
C3 C2 1_555 1_555
H10 C3 1_555 1_555
C4 C3 1_555 1_555
C5 C4 1_555 1_555
H11 C5 1_555 1_555
C6 C1 1_555 1_555
H12 C6 1_555 1_555
C7 C4 1_555 1_555
C8 C1 1_555 1_555
C9 C8 1_555 1_555
H13 C9 1_555 1_555
C10 C9 1_555 1_555
H14 C10 1_555 1_555
C11 C10 1_555 1_555
C12 C11 1_555 1_555
H15 C12 1_555 1_555
C13 C8 1_555 1_555
H16 C13 1_555 1_555
C14 C11 1_555 1_555
C15 C16 1_555 1_555
C16 H17 1_555 1_555
C17 C16 1_555 1_555
H18 C17 1_555 1_555
C18 C17 1_555 1_555
C19 C18 1_555 1_555
H19 C19 1_555 1_555
C20 C15 1_555 1_555
H20 C20 1_555 1_555
C21 O5 1_555 1_555
C22 C15 1_555 1_555
C23 C22 1_555 1_555
H21 C23 1_555 1_555
C24 C23 1_555 1_555
H22 C24 1_555 1_555
C25 C24 1_555 1_555
C26 C25 1_555 1_555
H23 C26 1_555 1_555
C27 C22 1_555 1_555
H24 C27 1_555 1_555
C28 C25 1_555 1_555
C29 C30 1_555 1_555
C30 H25 1_555 1_555
C31 C30 1_555 1_555
H26 C31 1_555 1_555
C32 C31 1_555 1_555
C33 C32 1_555 1_555
H27 C33 1_555 1_555
C34 C29 1_555 1_555
H28 C34 1_555 1_555
C35 O9 1_555 1_555
C36 C29 1_555 1_555
C37 C36 1_555 1_555
H29 C37 1_555 1_555
C38 C37 1_555 1_555
H30 C38 1_555 1_555
C39 C38 1_555 1_555
C40 C39 1_555 1_555
H31 C40 1_555 1_555
C41 C36 1_555 1_555
H32 C41 1_555 1_555
C42 C39 1_555 1_555
C43 C44 1_555 1_555
C44 H33 1_555 1_555
C45 C44 1_555 1_555
H34 C45 1_555 1_555
C46 C45 1_555 1_555
C47 C46 1_555 1_555
H35 C47 1_555 1_555
C48 C43 1_555 1_555
H36 C48 1_555 1_555
C49 O13 1_555 1_555
C50 C43 1_555 1_555
C51 C50 1_555 1_555
H37 C51 1_555 1_555
C52 C51 1_555 1_555
H38 C52 1_555 1_555
C53 C52 1_555 1_555
C54 C53 1_555 1_555
H39 C54 1_555 1_555
C55 C50 1_555 1_555
H40 C55 1_555 1_555
C56 C53 1_555 1_555
C57 C58 1_555 1_555
C58 H41 1_555 1_555
C59 C58 1_555 1_555
H42 C59 1_555 1_555
C60 C59 1_555 1_555
C61 C60 1_555 1_555
H43 C61 1_555 1_555
C62 C57 1_555 1_555
H44 C62 1_555 1_555
C63 N1 1_555 1_555
C64 N2 1_555 1_555
H45 C64 1_555 1_555
C65 N1 1_555 1_555
H46 C65 1_555 1_555
C66 N3 1_555 1_555
C67 C66 1_555 1_555
H47 C67 1_555 1_555
C68 N3 1_555 1_555
H48 C68 1_555 1_555
C69 C70 1_555 1_555
C70 H49 1_555 1_555
C71 C69 1_555 1_555
H50 C71 1_555 1_555
C72 C73 1_555 1_555
C73 H51 1_555 1_555
C74 C72 1_555 1_555
H52 C74 1_555 1_555
C75 N5 1_555 1_555
C76 N6 1_555 1_555
H53 C76 1_555 1_555
C77 N5 1_555 1_555
H54 C77 1_555 1_555
C78 N7 1_555 1_555
C79 N8 1_555 1_555
H55 C79 1_555 1_555
C80 N7 1_555 1_555
H56 C80 1_555 1_555
C81 C82 1_555 1_555
C82 H57 1_555 1_555
C83 C82 1_555 1_555
H58 C83 1_555 1_555
C84 C83 1_555 1_555
C85 C84 1_555 1_555
H59 C85 1_555 1_555
C86 C81 1_555 1_555
H60 C86 1_555 1_555
C87 N9 1_555 1_555
C88 N10 1_555 1_555
H61 C88 1_555 1_555
C89 N9 1_555 1_555
H62 C89 1_555 1_555
C90 N11 1_555 1_555
C91 C90 1_555 1_555
H63 C91 1_555 1_555
C92 N11 1_555 1_555
H64 C92 1_555 1_555
C93 C94 1_555 1_555
C94 H65 1_555 1_555
C95 C93 1_555 1_555
H66 C95 1_555 1_555
C96 C97 1_555 1_555
C97 H67 1_555 1_555
C98 C96 1_555 1_555
H68 C98 1_555 1_555
C99 N13 1_555 1_555
C100 N14 1_555 1_555
H69 C100 1_555 1_555
C101 N13 1_555 1_555
H70 C101 1_555 1_555
C102 N15 1_555 1_555
C103 N16 1_555 1_555
H71 C103 1_555 1_555
C104 N15 1_555 1_555
H72 C104 1_555 1_555
Zn1A O1A 1_555 1_555
Zn1A_2 N2A 1_555 1_555
Zn2A O3A 1_555 1_555
Zn2A_2 N8A 1_555 1_555
Zn2A_3 N10A 1_555 1_555
Zn3A N4 1_555 1_555
Zn3A_2 N12 1_555 1_555
Zn3A_3 O7A 1_555 1_555
Zn4_2 O15 1_555 1_555
Zn4A N14A 1_555 1_555
Zn4A_2 N16A 1_555 1_555
Zn4A_3 O15A 1_555 1_555
Zn4A_4 O11A 1_555 1_555
O1A C7A 1_555 1_555
O2A C7A 1_555 1_555
O3A C14A 1_555 1_555
O4A C14A 1_555 1_555
O5A Zn1A 1_555 1_555
O6A C21A 1_555 1_555
O7A C28A 1_555 1_555
O7A_2 Zn3A 1_555 1_555
O8A C28A 1_555 1_555
O9A Zn2A 1_555 1_555
O10A C35A 1_555 1_555
O11A C42A 1_555 1_555
O11_2 Zn4_2 1_555 1_555
O12A C42A 1_555 1_555
O13A Zn3A 1_555 1_555
O14A C49A 1_555 1_555
O15A C56A 1_555 1_555
O15_2 Zn4 1_555 1_555
O16A C56A 1_555 1_555
N1A H1A 1_555 1_555
N2A C64A 1_555 1_555
N2A_2 Zn1A 1_555 1_555
N3A H2A 1_555 1_555
N4A Zn3 1_555 1_555
N5A H3A 1_555 1_555
N6A Zn1A 1_555 1_555
N7A H4A 1_555 1_555
N8A C79A 1_555 1_555
N8A_2 Zn2A 1_555 1_555
N9A H5A 1_555 1_555
N10A C88A 1_555 1_555
N10A_2 Zn2A 1_555 1_555
N11A H6A 1_555 1_555
N12A Zn3 1_555 1_555
N12_2 Zn3A 1_555 1_555
N13A H7A 1_555 1_555
N14A C100A 1_555 1_555
N14_2 Zn4_2 1_555 1_555
N15A H8A 1_555 1_555
N16A C103A 1_555 1_555
N16_2 Zn4_2 1_555 1_555
C1A C2A 1_555 1_555
C2A H9A 1_555 1_555
C3A C2A 1_555 1_555
H10A C3A 1_555 1_555
C4A C3A 1_555 1_555
C5A C4A 1_555 1_555
H11A C5A 1_555 1_555
C6A C1A 1_555 1_555
H12A C6A 1_555 1_555
C7A C4A 1_555 1_555
C8A C1A 1_555 1_555
C9A C8A 1_555 1_555
H13A C9A 1_555 1_555
C10A C9A 1_555 1_555
H14A C10A 1_555 1_555
C11A C10A 1_555 1_555
C12A C11A 1_555 1_555
H15A C12A 1_555 1_555
C13A C8A 1_555 1_555
H16A C13A 1_555 1_555
C14A C11A 1_555 1_555
C15A C16A 1_555 1_555
C16A H17A 1_555 1_555
C17A C16A 1_555 1_555
H18A C17A 1_555 1_555
C18A C17A 1_555 1_555
C19A C18A 1_555 1_555
H19A C19A 1_555 1_555
C20A C15A 1_555 1_555
H20A C20A 1_555 1_555
C21A O5A 1_555 1_555
C22A C15A 1_555 1_555
C23A C22A 1_555 1_555
H21A C23A 1_555 1_555
C24A C23A 1_555 1_555
H22A C24A 1_555 1_555
C25A C24A 1_555 1_555
C26A C25A 1_555 1_555
H23A C26A 1_555 1_555
C27A C22A 1_555 1_555
H24A C27A 1_555 1_555
C28A C25A 1_555 1_555
C29A C30A 1_555 1_555
C30A H25A 1_555 1_555
C31A C30A 1_555 1_555
H26A C31A 1_555 1_555
C32A C31A 1_555 1_555
C33A C32A 1_555 1_555
H27A C33A 1_555 1_555
C34A C29A 1_555 1_555
H28A C34A 1_555 1_555
C35A O9A 1_555 1_555
C36A C29A 1_555 1_555
C37A C36A 1_555 1_555
H29A C37A 1_555 1_555
C38A C37A 1_555 1_555
H30A C38A 1_555 1_555
C39A C38A 1_555 1_555
C40A C39A 1_555 1_555
H31A C40A 1_555 1_555
C41A C36A 1_555 1_555
H32A C41A 1_555 1_555
C42A C39A 1_555 1_555
C43A C44A 1_555 1_555
C44A H33A 1_555 1_555
C45A C44A 1_555 1_555
H34A C45A 1_555 1_555
C46A C45A 1_555 1_555
C47A C46A 1_555 1_555
H35A C47A 1_555 1_555
C48A C43A 1_555 1_555
H36A C48A 1_555 1_555
C49A O13A 1_555 1_555
C50A C43A 1_555 1_555
C51A C50A 1_555 1_555
H37A C51A 1_555 1_555
C52A C51A 1_555 1_555
H38A C52A 1_555 1_555
C53A C52A 1_555 1_555
C54A C53A 1_555 1_555
H39A C54A 1_555 1_555
C55A C50A 1_555 1_555
H40A C55A 1_555 1_555
C56A C53A 1_555 1_555
C57A C58A 1_555 1_555
C58A H41A 1_555 1_555
C59A C58A 1_555 1_555
H42A C59A 1_555 1_555
C60A C59A 1_555 1_555
C61A C60A 1_555 1_555
H43A C61A 1_555 1_555
C62A C57A 1_555 1_555
H44A C62A 1_555 1_555
C63A N1A 1_555 1_555
C64A C63A 1_555 1_555
H45A C64A 1_555 1_555
C65A N1A 1_555 1_555
H46A C65A 1_555 1_555
C66A N3A 1_555 1_555
C67A N4A 1_555 1_555
H47A C67A 1_555 1_555
C68A N3A 1_555 1_555
H48A C68A 1_555 1_555
C69A C70A 1_555 1_555
C70A C71 1_555 1_555
H49A C70A 1_555 1_555
C71A C70 1_555 1_555
H50A C71A 1_555 1_555
C72A C73A 1_555 1_555
C73A C74 1_555 1_555
H51A C73A 1_555 1_555
C74A C73 1_555 1_555
H52A C74A 1_555 1_555
C75A N5A 1_555 1_555
C76A N6A 1_555 1_555
H53A C76A 1_555 1_555
C77A N5A 1_555 1_555
H54A C77A 1_555 1_555
C78A N7A 1_555 1_555
C79A C78A 1_555 1_555
H55A C79A 1_555 1_555
C80A N7A 1_555 1_555
H56A C80A 1_555 1_555
C81A C82A 1_555 1_555
C82A H57A 1_555 1_555
C83A C82A 1_555 1_555
H58A C83A 1_555 1_555
C84A C83A 1_555 1_555
C85A C84A 1_555 1_555
H59A C85A 1_555 1_555
C86A C81A 1_555 1_555
H60A C86A 1_555 1_555
C87A N9A 1_555 1_555
C88A C87A 1_555 1_555
H61A C88A 1_555 1_555
C89A N9A 1_555 1_555
H62A C89A 1_555 1_555
C90A N11A 1_555 1_555
C91A N12A 1_555 1_555
H63A C91A 1_555 1_555
C92A N11A 1_555 1_555
H64A C92A 1_555 1_555
C93A C94A 1_555 1_555
C94A C95 1_555 1_555
H65A C94A 1_555 1_555
C95A C94 1_555 1_555
H66A C95A 1_555 1_555
C96A C97A 1_555 1_555
C97A C98 1_555 1_555
H67A C97A 1_555 1_555
C98A C97 1_555 1_555
H68A C98A 1_555 1_555
C99A N13A 1_555 1_555
C100A C99A 1_555 1_555
H69A C100A 1_555 1_555
C101A N13A 1_555 1_555
H70A C101A 1_555 1_555
C102A N15A 1_555 1_555
C103A C102A 1_555 1_555
H71A C103A 1_555 1_555
C104A N15A 1_555 1_555
H72A C104A 1_555 1_555
N2 C65 1_555 1_555
N4 C68 1_555 1_555
N6 C77 1_555 1_555
N8 C80 1_555 1_555
N10 C89 1_555 1_555
N12 C92 1_555 1_555
N14 C101 1_555 1_555
N16 C104 1_555 1_555
C5 C6 1_555 1_555
C12 C13 1_555 1_555
C18 C21 1_555 1_555
C19 C20 1_555 1_555
C26 C27 1_555 1_555
C32 C35 1_555 1_555
C33 C34 1_555 1_555
C40 C41 1_555 1_555
C46 C49 1_555 1_555
C47 C48 1_555 1_555
C54 C55 1_555 1_555
C57 C63 1_555 1_555
C60 C66 1_555 1_555
C61 C62 1_555 1_555
C63 C64 1_555 1_555
C69 C75 1_555 1_555
C72 C78 1_555 1_555
C75 C76 1_555 1_555
C78 C79 1_555 1_555
C81 C87 1_555 1_555
C84 C90 1_555 1_555
C85 C86 1_555 1_555
C87 C88 1_555 1_555
C93 C99 1_555 1_555
C96 C102 1_555 1_555
C99 C100 1_555 1_555
C102 C103 1_555 1_555
N2A C65A 1_555 1_555
N4A C68A 1_555 1_555
N6A C77A 1_555 1_555
N8A C80A 1_555 1_555
N10A C89A 1_555 1_555
N12A C92A 1_555 1_555
N14A C101A 1_555 1_555
N16A C104A 1_555 1_555
C5A C6A 1_555 1_555
C12A C13A 1_555 1_555
C18A C21A 1_555 1_555
C19A C20A 1_555 1_555
C26A C27A 1_555 1_555
C32A C35A 1_555 1_555
C33A C34A 1_555 1_555
C40A C41A 1_555 1_555
C46A C49A 1_555 1_555
C47A C48A 1_555 1_555
C54A C55A 1_555 1_555
C57A C63A 1_555 1_555
C60A C66A 1_555 1_555
C61A C62A 1_555 1_555
C66A C67A 1_555 1_555
C69A C71A 1_555 1_555
C69A C75A 1_555 1_555
C72A C74A 1_555 1_555
C72A C78A 1_555 1_555
C75A C76A 1_555 1_555
C81A C87A 1_555 1_555
C84A C90A 1_555 1_555
C85A C86A 1_555 1_555
C90A C91A 1_555 1_555
C93A C95A 1_555 1_555
C93A C99A 1_555 1_555
C96A C98A 1_555 1_555
C96A C102A 1_555 1_555

#END
