
#######################################################################
#
#                 Cambridge Crystallographic Data Centre
#                                CCDC 
#
#######################################################################
#
# If this CIF has been generated from an entry in the Cambridge 
# Structural Database, then it will include bibliographic, chemical, 
# crystal, experimental, refinement or atomic coordinate data resulting 
# from the CCDC's data processing and validation procedures.
#
#######################################################################

data_ZAWMAN
_symmetry_cell_setting           monoclinic
_symmetry_space_group_name_H-M   'C 2/c'
_symmetry_Int_Tables_number      15
_space_group_name_Hall           '-C 2yn'
loop_
_symmetry_equiv_pos_site_id
_symmetry_equiv_pos_as_xyz
1 x,y,z
2 -x,y,1/2-z
3 1/2+x,1/2+y,z
4 1/2-x,1/2+y,1/2-z
5 -x,-y,-z
6 x,-y,1/2+z
7 1/2-x,1/2-y,-z
8 1/2+x,1/2-y,1/2+z
_cell_length_a                   24.608(2)
_cell_length_b                   10.6168(10)
_cell_length_c                   17.7748(16)
_cell_angle_alpha                90
_cell_angle_beta                 116.118(6)
_cell_angle_gamma                90
_cell_volume                     4169.63
loop_
_atom_site_label
_atom_site_type_symbol
_atom_site_fract_x
_atom_site_fract_y
_atom_site_fract_z
Co1 Co 1.0000 0.0000 0.5000
N1 N 0.92967(11) 0.1279(3) 0.49767(18)
N2 N 0.74009(11) 0.3794(2) 0.40370(17)
N3 N 0.55590(11) 0.4671(3) 0.13756(17)
C1 C 0.94206(19) 0.2333(5) 0.5403(4)
H1 H 0.9833 0.2517 0.5755
C2 C 0.89895(19) 0.3195(5) 0.5372(4)
H2 H 0.9109 0.3939 0.5703
C3 C 0.83866(14) 0.2972(3) 0.4862(2)
C4 C 0.82610(14) 0.1888(3) 0.4405(2)
H3 H 0.7854 0.1696 0.4028
C5 C 0.87156(14) 0.1071(3) 0.4482(2)
H4 H 0.8608 0.0315 0.4163
C6 C 0.78929(13) 0.3861(3) 0.4773(2)
C7 C 0.79452(14) 0.4690(3) 0.5397(2)
H5 H 0.8306 0.4711 0.5907
C8 C 0.74672(14) 0.5500(3) 0.5281(2)
C9 C 0.69619(14) 0.5434(3) 0.4509(2)
H6 H 0.6625 0.5967 0.4395
C10 C 0.69484(13) 0.4602(3) 0.3909(2)
C11 C 0.59765(16) 0.3764(3) 0.1662(2)
H7 H 0.5972 0.3136 0.1279
C12 C 0.64101(16) 0.3686(3) 0.2473(2)
H8 H 0.6692 0.3010 0.2641
C13 C 0.64386(13) 0.4585(3) 0.3048(2)
C14 C 0.59970(17) 0.5495(4) 0.2767(2)
H9 H 0.5984 0.6118 0.3142
C15 C 0.55745(17) 0.5503(4) 0.1946(2)
H10 H 0.5274 0.6142 0.1772
C16 C 0.74983(14) 0.6393(3) 0.5936(2)
C17 C 0.79251(19) 0.6264(5) 0.6758(2)
H11 H 0.8197 0.5571 0.6913
C18 C 0.7962(2) 0.7132(6) 0.7360(3)
H12 H 0.8264 0.7037 0.7920
C19 C 0.75662(19) 0.8129(4) 0.7155(2)
H13 H 0.7596 0.8728 0.7569
C20 C 0.71291(18) 0.8248(4) 0.6348(2)
H14 H 0.6848 0.8923 0.6203
C21 C 0.70953(15) 0.7395(3) 0.5746(2)
H15 H 0.6790 0.7492 0.5188
S1 S 1.06783(5) 0.33589(10) 0.38464(7)
N4 N 1.04293(12) 0.1504(3) 0.47530(18)
C22 C 1.05327(13) 0.2301(3) 0.4392(2)
Co1C Co 0.5000 0.5000 0.0000
Co1C_2 Co 1.5000 -0.5000 1.0000
N1D N 1.07033(11) -0.1279(3) 0.50233(18)
N2D N 1.25991(11) -0.3794(2) 0.59630(17)
N3D N 1.44410(11) -0.4671(3) 0.86244(17)
N3C N 0.94410(11) -0.0329(3) 0.36244(17)
N3G N 1.05590(11) 0.0329(3) 0.63756(17)
C1D C 1.05794(19) -0.2333(5) 0.4597(4)
H1D H 1.0167 -0.2517 0.4245
C2D C 1.10105(19) -0.3195(5) 0.4628(4)
H2D H 1.0891 -0.3939 0.4297
C3D C 1.16134(14) -0.2972(3) 0.5138(2)
C4D C 1.17390(14) -0.1888(3) 0.5595(2)
H3D H 1.2146 -0.1696 0.5972
C5D C 1.12844(14) -0.1071(3) 0.5518(2)
H4D H 1.1392 -0.0315 0.5837
C6D C 1.21071(13) -0.3861(3) 0.5227(2)
C7D C 1.20548(14) -0.4690(3) 0.4603(2)
H5D H 1.1694 -0.4711 0.4093
C8D C 1.25328(14) -0.5500(3) 0.4719(2)
C9D C 1.30381(14) -0.5434(3) 0.5491(2)
H6D H 1.3375 -0.5967 0.5605
C10D C 1.30516(13) -0.4602(3) 0.6091(2)
C11D C 1.40235(16) -0.3764(3) 0.8338(2)
H7D H 1.4028 -0.3136 0.8721
C12D C 1.35899(16) -0.3686(3) 0.7527(2)
H8D H 1.3308 -0.3010 0.7359
C13D C 1.35614(13) -0.4585(3) 0.6952(2)
C14D C 1.40030(17) -0.5495(4) 0.7233(2)
H9D H 1.4016 -0.6118 0.6858
C15D C 1.44255(17) -0.5503(4) 0.8054(2)
H10D H 1.4726 -0.6142 0.8228
C16D C 1.25017(14) -0.6393(3) 0.4064(2)
C17D C 1.20749(19) -0.6264(5) 0.3242(2)
H11D H 1.1803 -0.5571 0.3087
C18D C 1.2038(2) -0.7132(6) 0.2640(3)
H12D H 1.1736 -0.7037 0.2080
C19D C 1.24338(19) -0.8129(4) 0.2845(2)
H13D H 1.2404 -0.8728 0.2431
C20D C 1.28709(18) -0.8248(4) 0.3652(2)
H14D H 1.3152 -0.8923 0.3797
C21D C 1.29047(15) -0.7395(3) 0.4254(2)
H15D H 1.3210 -0.7492 0.4812
S1D S 0.93217(5) -0.33589(10) 0.61536(7)
N4D N 0.95707(12) -0.1504(3) 0.52470(18)
C22D C 0.94673(13) -0.2301(3) 0.5608(2)
O1 O 0.9276(5) 0.4861(14) 0.8605(13)
O2? O 0.9397(5) 0.4957(15) 0.7996(14)
O3? O 1.0000 0.308(3) 0.7500
loop_
_geom_bond_atom_site_label_1
_geom_bond_atom_site_label_2
_geom_bond_site_symmetry_1
_geom_bond_site_symmetry_2
Co1 N1 1_555 1_555
N1 C1 1_555 1_555
N2 C6 1_555 1_555
N3 C11 1_555 1_555
C1 H1 1_555 1_555
C2 C1 1_555 1_555
H2 C2 1_555 1_555
C3 C2 1_555 1_555
C4 C3 1_555 1_555
H3 C4 1_555 1_555
C5 N1 1_555 1_555
H4 C5 1_555 1_555
C6 C3 1_555 1_555
C7 C6 1_555 1_555
H5 C7 1_555 1_555
C8 C7 1_555 1_555
C9 C8 1_555 1_555
H6 C9 1_555 1_555
C10 N2 1_555 1_555
C11 H7 1_555 1_555
C12 C11 1_555 1_555
H8 C12 1_555 1_555
C13 C10 1_555 1_555
C14 C13 1_555 1_555
H9 C14 1_555 1_555
C15 N3 1_555 1_555
H10 C15 1_555 1_555
C16 C8 1_555 1_555
C17 C16 1_555 1_555
H11 C17 1_555 1_555
C18 C17 1_555 1_555
H12 C18 1_555 1_555
C19 C18 1_555 1_555
H13 C19 1_555 1_555
C20 C19 1_555 1_555
H14 C20 1_555 1_555
C21 C16 1_555 1_555
H15 C21 1_555 1_555
S1 C22 1_555 1_555
N4 Co1 1_555 1_555
C22 N4 1_555 1_555
Co1C N3 1_555 1_555
Co1C_2 N3D 1_555 1_555
N1D Co1 1_555 1_555
N2D C6D 1_555 1_555
N3D C11D 1_555 1_555
N3C Co1 1_555 1_555
N3G Co1 1_555 1_555
C1D N1D 1_555 1_555
H1D C1D 1_555 1_555
C2D C1D 1_555 1_555
H2D C2D 1_555 1_555
C3D C2D 1_555 1_555
C4D C3D 1_555 1_555
H3D C4D 1_555 1_555
C5D N1D 1_555 1_555
H4D C5D 1_555 1_555
C6D C3D 1_555 1_555
C7D C6D 1_555 1_555
H5D C7D 1_555 1_555
C8D C7D 1_555 1_555
C9D C8D 1_555 1_555
H6D C9D 1_555 1_555
C10D N2D 1_555 1_555
C11D H7D 1_555 1_555
C12D C11D 1_555 1_555
H8D C12D 1_555 1_555
C13D C10D 1_555 1_555
C14D C13D 1_555 1_555
H9D C14D 1_555 1_555
C15D N3D 1_555 1_555
H10D C15D 1_555 1_555
C16D C8D 1_555 1_555
C17D C16D 1_555 1_555
H11D C17D 1_555 1_555
C18D C17D 1_555 1_555
H12D C18D 1_555 1_555
C19D C18D 1_555 1_555
H13D C19D 1_555 1_555
C20D C19D 1_555 1_555
H14D C20D 1_555 1_555
C21D C16D 1_555 1_555
H15D C21D 1_555 1_555
S1D C22D 1_555 1_555
N4D Co1 1_555 1_555
C22D N4D 1_555 1_555
C4 C5 1_555 1_555
C9 C10 1_555 1_555
C12 C13 1_555 1_555
C14 C15 1_555 1_555
C20 C21 1_555 1_555
C4D C5D 1_555 1_555
C9D C10D 1_555 1_555
C12D C13D 1_555 1_555
C14D C15D 1_555 1_555
C20D C21D 1_555 1_555

#END
