
#######################################################################
#
#                 Cambridge Crystallographic Data Centre
#                                CCDC 
#
#######################################################################
#
# If this CIF has been generated from an entry in the Cambridge 
# Structural Database, then it will include bibliographic, chemical, 
# crystal, experimental, refinement or atomic coordinate data resulting 
# from the CCDC's data processing and validation procedures.
#
#######################################################################

data_ZAWMIV
_symmetry_cell_setting           monoclinic
_symmetry_space_group_name_H-M   'C 2/c'
_symmetry_Int_Tables_number      15
_space_group_name_Hall           '-C 2yn'
loop_
_symmetry_equiv_pos_site_id
_symmetry_equiv_pos_as_xyz
1 x,y,z
2 -x,y,1/2-z
3 1/2+x,1/2+y,z
4 1/2-x,1/2+y,1/2-z
5 -x,-y,-z
6 x,-y,1/2+z
7 1/2-x,1/2-y,-z
8 1/2+x,1/2-y,1/2+z
_cell_length_a                   13.9876(19)
_cell_length_b                   10.7135(14)
_cell_length_c                   8.7317(12)
_cell_angle_alpha                90
_cell_angle_beta                 95.998(2)
_cell_angle_gamma                90
_cell_volume                     1301.34
loop_
_atom_site_label
_atom_site_type_symbol
_atom_site_fract_x
_atom_site_fract_y
_atom_site_fract_z
Mn1 Mn 0.5000 0.67223(4) 0.2500
C1 C 0.59810(16) 0.8574(2) -0.2561(3)
H1 H 0.6642 0.8573 -0.2612
C2 C 0.56237(16) 0.8559(2) -0.1116(3)
C3 C 0.46320(16) 0.8591(2) -0.1097(3)
H2 H 0.4376 0.8625 -0.0157
C4 C 0.62841(16) 0.8564(2) 0.0296(3)
C5 C 0.71760(16) 0.9078(2) 0.0501(3)
H3 H 0.7494 0.9475 -0.0246
C6 C 0.68400(17) 0.8292(2) 0.2670(3)
H4 H 0.6901 0.8057 0.3701
C7 C 0.45098(14) 0.5285(2) -0.0329(2)
N1 N 0.75169(13) 0.89036(19) 0.2000(2)
H5 H 0.8066 0.9143 0.2436
N2 N 0.60716(14) 0.80605(17) 0.1693(2)
O1 O 0.41668(11) 0.61446(14) 0.03983(17)
O2 O 0.41305(11) 0.48177(15) -0.15550(18)
Mn1_2 Mn 0.5000 0.67223(4) -0.7500
Mn1D Mn 0.5000 0.32777(4) -0.2500
C1A C 0.40190(16) 0.8574(2) -0.2439(3)
H1A H 0.3358 0.8573 -0.2388
C2A C 0.43763(16) 0.8559(2) -0.3884(3)
C3A C 0.53680(16) 0.8591(2) -0.3903(3)
H2A H 0.5624 0.8625 -0.4843
C4A C 0.37159(16) 0.8564(2) -0.5296(3)
C5A C 0.28240(16) 0.9078(2) -0.5501(3)
H3A H 0.2506 0.9475 -0.4754
C6A C 0.31600(17) 0.8292(2) -0.7670(3)
H4A H 0.3099 0.8057 -0.8701
C7D C 0.54902(14) 0.4715(2) 0.0329(2)
N1A N 0.24831(13) 0.89036(19) -0.7000(2)
H5A H 0.1934 0.9143 -0.7436
N2A N 0.39284(14) 0.80605(17) -0.6693(2)
N2A_2 N 0.39284(14) 0.80605(17) 0.3307(2)
O1D O 0.58332(11) 0.38554(14) -0.03983(17)
O1A O 0.58332(11) 0.61446(14) 0.46017(17)
O2D O 0.58695(11) 0.51823(15) 0.15550(18)
O2E O 0.41305(11) 0.51823(15) 0.34450(18)
loop_
_geom_bond_atom_site_label_1
_geom_bond_atom_site_label_2
_geom_bond_site_symmetry_1
_geom_bond_site_symmetry_2
Mn1 N2 1_555 1_555
C1 H1 1_555 1_555
C2 C1 1_555 1_555
C3 C2 1_555 1_555
H2 C3 1_555 1_555
C4 C2 1_555 1_555
C5 C4 1_555 1_555
H3 C5 1_555 1_555
C6 H4 1_555 1_555
C7 O1 1_555 1_555
N1 C5 1_555 1_555
H5 N1 1_555 1_555
N2 C4 1_555 1_555
O1 Mn1 1_555 1_555
O2 C7 1_555 1_555
Mn1_2 N2A 1_555 1_555
Mn1D O2 1_555 1_555
C1A C3 1_555 1_555
H1A C1A 1_555 1_555
C2A C1A 1_555 1_555
C3A C1 1_555 1_555
H2A C3A 1_555 1_555
C4A C2A 1_555 1_555
C5A C4A 1_555 1_555
H3A C5A 1_555 1_555
C6A H4A 1_555 1_555
C7D C7 1_555 1_555
N1A C5A 1_555 1_555
H5A N1A 1_555 1_555
N2A C4A 1_555 1_555
N2A_2 Mn1 1_555 1_555
O1D Mn1D 1_555 1_555
O1A Mn1 1_555 1_555
O2D Mn1 1_555 1_555
O2E Mn1 1_555 1_555
C6 N1 1_555 1_555
C6 N2 1_555 1_555
C2A C3A 1_555 1_555
C6A N1A 1_555 1_555
C6A N2A 1_555 1_555
C7D O1D 1_555 1_555
C7D O2D 1_555 1_555

#END
