
#######################################################################
#
#                 Cambridge Crystallographic Data Centre
#                                CCDC 
#
#######################################################################
#
# If this CIF has been generated from an entry in the Cambridge 
# Structural Database, then it will include bibliographic, chemical, 
# crystal, experimental, refinement or atomic coordinate data resulting 
# from the CCDC's data processing and validation procedures.
#
#######################################################################

data_ZAWNES
_symmetry_cell_setting           triclinic
_symmetry_space_group_name_H-M   'P -1'
_symmetry_Int_Tables_number      2
_space_group_name_Hall           '-P 1'
loop_
_symmetry_equiv_pos_site_id
_symmetry_equiv_pos_as_xyz
1 x,y,z
2 -x,-y,-z
_cell_length_a                   9.474(4)
_cell_length_b                   9.839(3)
_cell_length_c                   10.349(5)
_cell_angle_alpha                114.122(15)
_cell_angle_beta                 102.710(17)
_cell_angle_gamma                96.854(15)
_cell_volume                     834.806
loop_
_atom_site_label
_atom_site_type_symbol
_atom_site_fract_x
_atom_site_fract_y
_atom_site_fract_z
Co1 Co 0.60627(4) 0.26736(3) 0.76860(4)
O1 O 0.6797(2) 0.1149(2) 0.6222(2)
O2 O 0.8824(2) 0.2804(2) 0.7933(2)
O3 O 0.60934(19) -0.1674(2) 0.3053(2)
O4 O 0.6537(2) -0.2230(2) 0.4964(2)
N1 N 0.7002(3) 0.6507(2) 0.7031(3)
H3 H 0.6965 0.6949 0.6441
N2 N 0.6527(3) 0.4779(2) 0.7797(3)
N3 N 0.6466(3) 0.2659(3) 1.1754(3)
H4 H 0.6111 0.2381 1.2349
N4 N 0.6585(2) 0.2869(2) 0.9752(2)
C1 C 0.8935(3) 0.8615(3) 0.9238(3)
C2 C 0.9290(4) 0.9425(3) 1.0762(3)
H5 H 0.8802 0.9033 1.1290
C3 C 1.0349(4) 1.0802(3) 1.1528(3)
H6 H 1.0585 1.1347 1.2575
C4 C 0.8946(3) 0.4265(3) 1.3582(3)
C5 C 1.0267(3) 0.5276(3) 1.3862(3)
H7 H 1.0460 0.5471 1.3084
C6 C 1.1298(3) 0.5994(3) 1.5245(3)
H8 H 1.2188 0.6677 1.5405
C7 C 0.7876(3) 0.7126(3) 0.8469(3)
C8 C 0.7567(3) 0.6038(3) 0.8933(3)
H9 H 0.8005 0.6136 0.9895
C9 C 0.6211(3) 0.5110(3) 0.6671(3)
H10 H 0.5516 0.4449 0.5730
C10 C 0.7863(3) 0.3574(3) 1.2122(3)
C11 C 0.7908(3) 0.3666(3) 1.0855(3)
H11 H 0.8739 0.4206 1.0746
C12 C 0.5754(3) 0.2275(3) 1.0351(3)
H12 H 0.4772 0.1652 0.9844
C13 C 0.9123(3) 0.0749(3) 0.5851(3)
C14 C 0.8513(3) -0.0722(3) 0.4681(3)
C15 C 0.9402(3) -0.1444(3) 0.3843(3)
H13 H 0.8989 -0.2439 0.3041
C16 C 0.8210(3) 0.1638(3) 0.6761(3)
C17 C 0.6922(3) -0.1593(3) 0.4235(3)
Co1A Co 0.39373(4) -0.26736(3) 0.23140(4)
Co1_2 Co 1.60627(4) 0.26736(3) 0.76860(4)
Co1A_2 Co 1.39373(4) -0.26736(3) 0.23140(4)
Co1A_3 Co 1.39373(4) 0.73264(3) 2.23140(4)
Co1A_4 Co 1.39373(4) 1.73264(3) 1.23140(4)
O1A O 1.3203(2) -0.1149(2) 0.3778(2)
O1A_2 O 0.3203(2) -0.1149(2) 0.3778(2)
O2A O 1.1176(2) -0.2804(2) 0.2067(2)
O3A O 1.39066(19) 0.1674(2) 0.6947(2)
O3A_2 O 0.39066(19) 0.1674(2) 0.6947(2)
O4A O 1.3463(2) 0.2230(2) 0.5036(2)
N1A N 1.2998(3) 1.3493(2) 1.2969(3)
H3A H 1.3035 1.3051 1.3559
N2A N 1.3473(3) 1.5221(2) 1.2203(3)
N2A_2 N 0.3473(3) -0.4779(2) 0.2203(3)
N3A N 1.3534(3) 0.7341(3) 1.8246(3)
H4A H 1.3889 0.7619 1.7651
N4A N 1.3415(2) 0.7131(2) 2.0248(2)
N4A_2 N 0.3415(2) -0.2869(2) 0.0248(2)
C1A C 1.1065(3) 1.1385(3) 1.0762(3)
C2A C 1.0710(4) 1.0575(3) 0.9238(3)
H5A H 1.1198 1.0967 0.8710
C3A C 0.9651(4) 0.9198(3) 0.8472(3)
H6A H 0.9415 0.8653 0.7425
C4A C 1.1054(3) 0.5735(3) 1.6418(3)
C5A C 0.9733(3) 0.4724(3) 1.6138(3)
H7A H 0.9540 0.4529 1.6916
C6A C 0.8702(3) 0.4006(3) 1.4755(3)
H8A H 0.7812 0.3323 1.4595
C7A C 1.2124(3) 1.2874(3) 1.1531(3)
C8A C 1.2433(3) 1.3962(3) 1.1067(3)
H9A H 1.1995 1.3864 1.0105
C9A C 1.3789(3) 1.4890(3) 1.3329(3)
H10A H 1.4484 1.5551 1.4270
C10A C 1.2137(3) 0.6426(3) 1.7878(3)
C11A C 1.2092(3) 0.6334(3) 1.9145(3)
H11A H 1.1261 0.5794 1.9254
C12A C 1.4246(3) 0.7725(3) 1.9649(3)
H12A H 1.5228 0.8348 2.0156
C13A C 1.0877(3) -0.0749(3) 0.4149(3)
C14A C 1.1487(3) 0.0722(3) 0.5319(3)
C15A C 1.0598(3) 0.1444(3) 0.6157(3)
H13A H 1.1011 0.2439 0.6959
C16A C 1.1790(3) -0.1638(3) 0.3239(3)
C17A C 1.3078(3) 0.1593(3) 0.5765(3)
O5 O 0.4665(2) 0.8837(2) 0.6808(2)
H1 H 0.498(4) 0.861(4) 0.615(3)
H2 H 0.425(4) 0.945(3) 0.675(4)
loop_
_geom_bond_atom_site_label_1
_geom_bond_atom_site_label_2
_geom_bond_site_symmetry_1
_geom_bond_site_symmetry_2
Co1 O1 1_555 1_555
O1 C16 1_555 1_555
O2 C16 1_555 1_555
O3 C17 1_555 1_555
O4 C17 1_555 1_555
O5 H1 1_555 1_555
H2 O5 1_555 1_555
N1 H3 1_555 1_555
N2 Co1 1_555 1_555
N3 H4 1_555 1_555
N4 Co1 1_555 1_555
C1 C2 1_555 1_555
C2 H5 1_555 1_555
C3 C2 1_555 1_555
H6 C3 1_555 1_555
C4 C5 1_555 1_555
C5 H7 1_555 1_555
C6 C5 1_555 1_555
H8 C6 1_555 1_555
C7 N1 1_555 1_555
C8 N2 1_555 1_555
H9 C8 1_555 1_555
C9 N1 1_555 1_555
H10 C9 1_555 1_555
C10 N3 1_555 1_555
C11 N4 1_555 1_555
H11 C11 1_555 1_555
C12 N3 1_555 1_555
H12 C12 1_555 1_555
C13 C14 1_555 1_555
C14 C15 1_555 1_555
C15 H13 1_555 1_555
C16 C13 1_555 1_555
C17 C14 1_555 1_555
Co1A O3 1_555 1_555
Co1_2 O3A 1_555 1_555
Co1A_2 O1A 1_555 1_555
Co1A_3 N4A 1_555 1_555
Co1A_4 N2A 1_555 1_555
O1A C16A 1_555 1_555
O1A_2 Co1A 1_555 1_555
O2A C16A 1_555 1_555
O3A C17A 1_555 1_555
O3A_2 Co1 1_555 1_555
O4A C17A 1_555 1_555
N1A H3A 1_555 1_555
N2A C8A 1_555 1_555
N2A_2 Co1A 1_555 1_555
N3A H4A 1_555 1_555
N4A C11A 1_555 1_555
N4A_2 Co1A 1_555 1_555
C1A C3 1_555 1_555
C2A C1A 1_555 1_555
H5A C2A 1_555 1_555
C3A C1 1_555 1_555
H6A C3A 1_555 1_555
C4A C6 1_555 1_555
C5A C4A 1_555 1_555
H7A C5A 1_555 1_555
C6A C4 1_555 1_555
H8A C6A 1_555 1_555
C7A N1A 1_555 1_555
C8A C7A 1_555 1_555
H9A C8A 1_555 1_555
C9A N1A 1_555 1_555
H10A C9A 1_555 1_555
C10A N3A 1_555 1_555
C11A C10A 1_555 1_555
H11A C11A 1_555 1_555
C12A N3A 1_555 1_555
H12A C12A 1_555 1_555
C13A C15 1_555 1_555
C14A C13A 1_555 1_555
C15A C13 1_555 1_555
H13A C15A 1_555 1_555
C16A C13A 1_555 1_555
C17A C14A 1_555 1_555
N2 C9 1_555 1_555
N4 C12 1_555 1_555
C1 C7 1_555 1_555
C4 C10 1_555 1_555
C7 C8 1_555 1_555
C10 C11 1_555 1_555
N2A C9A 1_555 1_555
N4A C12A 1_555 1_555
C1A C7A 1_555 1_555
C2A C3A 1_555 1_555
C4A C10A 1_555 1_555
C5A C6A 1_555 1_555
C14A C15A 1_555 1_555

#END
