
#######################################################################
#
#                 Cambridge Crystallographic Data Centre
#                                CCDC 
#
#######################################################################
#
# If this CIF has been generated from an entry in the Cambridge 
# Structural Database, then it will include bibliographic, chemical, 
# crystal, experimental, refinement or atomic coordinate data resulting 
# from the CCDC's data processing and validation procedures.
#
#######################################################################

data_ZAWNUI
_symmetry_cell_setting           triclinic
_symmetry_space_group_name_H-M   'P -1'
_symmetry_Int_Tables_number      2
_space_group_name_Hall           '-P 1'
loop_
_symmetry_equiv_pos_site_id
_symmetry_equiv_pos_as_xyz
1 x,y,z
2 -x,-y,-z
_cell_length_a                   8.646(4)
_cell_length_b                   11.082(4)
_cell_length_c                   12.399(4)
_cell_angle_alpha                69.156(11)
_cell_angle_beta                 75.233(15)
_cell_angle_gamma                81.380(16)
_cell_volume                     1071.28
loop_
_atom_site_label
_atom_site_type_symbol
_atom_site_fract_x
_atom_site_fract_y
_atom_site_fract_z
Co1 Co 0.88140(3) 0.58739(2) 0.227167(19)
O1 O 0.68708(16) 0.67705(13) 0.16767(12)
O2 O 0.84882(16) 0.83627(12) 0.09980(12)
O3 O 1.05444(16) 0.58548(13) 0.08635(12)
O4 O 1.16758(18) 0.48731(15) 0.23762(12)
N1 N 0.79492(19) 0.22160(14) 0.25312(13)
H5 H 0.8107 0.1623 0.2188
N2 N 0.81750(18) 0.40114(14) 0.28305(13)
N3 N 0.8680(2) 0.67157(16) 0.53063(14)
H6 H 0.8436 0.6534 0.6078
N4 N 0.89279(19) 0.65201(14) 0.35672(13)
C1 C 0.5875(2) 0.87920(18) 0.05065(18)
H7 H 0.5160 0.8202 0.0441
C2 C 0.4855(3) 0.9536(3) 0.12822(19)
H8 H 0.5528 1.0117 0.1386
H9 H 0.4415 0.8922 0.2072
C3 C 0.3482(3) 1.0332(2) 0.07299(18)
H10 H 0.2742 0.9745 0.0707
H11 H 0.2875 1.0858 0.1219
C4 C 1.3243(2) 0.50216(17) 0.04274(16)
H12 H 1.2932 0.4869 -0.0235
C5 C 1.4319(2) 0.38666(18) 0.09838(17)
H13 H 1.3741 0.3066 0.1273
H14 H 1.4594 0.3979 0.1668
C6 C 1.5850(2) 0.37420(17) 0.00796(17)
H15 H 1.5575 0.3559 -0.0572
H16 H 1.6551 0.3005 0.0461
C7 C 0.7181(2) 0.79443(17) 0.10885(16)
C8 C 1.1734(2) 0.52423(17) 0.12869(16)
C9 C 0.5941(2) 0.10582(16) 0.43054(15)
C10 C 0.4932(2) 0.10372(18) 0.53861(17)
H17 H 0.4877 0.1746 0.5658
C11 C 0.4012(2) -0.00016(18) 0.60674(17)
H18 H 0.3335 0.0004 0.6802
C12 C 0.6926(2) 0.21543(16) 0.35982(15)
C13 C 0.7077(2) 0.32838(17) 0.37700(16)
H19 H 0.6512 0.3528 0.4434
C14 C 0.8663(2) 0.33323(17) 0.21071(16)
H20 H 0.9424 0.3602 0.1378
C15 C 0.9707(2) 0.89109(17) 0.47754(16)
C16 C 1.0775(3) 0.9797(2) 0.39587(17)
H21 H 1.1315 0.9661 0.3237
C17 C 1.1064(3) 1.0872(2) 0.41777(17)
H22 H 1.1797 1.1467 0.3606
C18 C 0.9361(2) 0.78179(17) 0.44882(16)
C19 C 0.9503(2) 0.76819(17) 0.34141(16)
H23 H 0.9933 0.8295 0.2672
C20 C 0.8453(3) 0.59670(18) 0.47229(16)
H24 H 0.8010 0.5146 0.5092
Co1A Co 0.11860(3) -0.58739(2) 0.772833(19)
Co1A_2 Co 0.11860(3) 1.41261(2) -0.227167(19)
Co1A_3 Co 1.11860(3) 1.41261(2) 0.772833(19)
Co1A_4 Co 2.11860(3) 0.41261(2) -0.227167(19)
O1A O 0.31292(16) 1.32295(13) -0.16767(12)
O1A_2 O 0.31292(16) -0.67705(13) 0.83233(12)
O2A O 0.15118(16) 1.16373(12) -0.09980(12)
O3A O 1.94556(16) 0.41452(13) -0.08635(12)
O3A_2 O -0.05444(16) -0.58548(13) 0.91365(12)
O4A O 1.83242(18) 0.51269(15) -0.23762(12)
N1A N 0.20508(19) -0.22160(14) 0.74688(13)
H5A H 0.1893 -0.1623 0.7812
N2A N 0.18250(18) -0.40114(14) 0.71695(13)
N3A N 1.1320(2) 1.32843(16) 0.46937(14)
H6A H 1.1564 1.3466 0.3922
N4A N 1.10721(19) 1.34799(14) 0.64328(13)
N4A_2 N 0.10721(19) -0.65201(14) 0.64328(13)
C1A C 0.4125(2) 1.12080(18) -0.05065(18)
H7A H 0.4840 1.1798 -0.0441
C2A C 0.5145(3) 1.0464(3) -0.12822(19)
H8A H 0.4472 0.9883 -0.1386
H9A H 0.5585 1.1078 -0.2072
C3A C 0.6518(3) 0.9668(2) -0.07299(18)
H10A H 0.7258 1.0255 -0.0707
H11A H 0.7125 0.9142 -0.1219
C4A C 1.6757(2) 0.49784(17) -0.04274(16)
H12A H 1.7068 0.5131 0.0235
C5A C 1.5681(2) 0.61334(18) -0.09838(17)
H13A H 1.6259 0.6934 -0.1273
H14A H 1.5406 0.6021 -0.1668
C6A C 1.4150(2) 0.62580(17) -0.00796(17)
H15A H 1.4425 0.6441 0.0572
H16A H 1.3449 0.6995 -0.0461
C7A C 0.2819(2) 1.20557(17) -0.10885(16)
C8A C 1.8266(2) 0.47577(17) -0.12869(16)
C9A C 0.4059(2) -0.10582(16) 0.56946(15)
C10A C 0.5068(2) -0.10372(18) 0.46139(17)
H17A H 0.5123 -0.1746 0.4342
C11A C 0.5988(2) 0.00016(18) 0.39326(17)
H18A H 0.6665 -0.0004 0.3198
C12A C 0.3074(2) -0.21543(16) 0.64018(15)
C13A C 0.2923(2) -0.32838(17) 0.62300(16)
H19A H 0.3488 -0.3528 0.5566
C14A C 0.1337(2) -0.33323(17) 0.78929(16)
H20A H 0.0576 -0.3602 0.8622
C15A C 1.0293(2) 1.10891(17) 0.52246(16)
C16A C 0.9225(3) 1.0203(2) 0.60413(17)
H21A H 0.8685 1.0339 0.6763
C17A C 0.8936(3) 0.9128(2) 0.58223(17)
H22A H 0.8203 0.8533 0.6394
C18A C 1.0639(2) 1.21821(17) 0.55118(16)
C19A C 1.0497(2) 1.23181(17) 0.65859(16)
H23A H 1.0067 1.1705 0.7328
C20A C 1.1547(3) 1.40330(18) 0.52771(16)
H24A H 1.1990 1.4854 0.4908
O5 O 0.3746(3) 0.6174(3) 0.3234(2)
H1 H 0.484(5) 0.626(4) 0.267(3)
H2 H 0.304(5) 0.582(4) 0.290(3)
O6 O 0.8931(2) 0.07803(17) 0.10391(16)
H3 H 0.876(4) 0.006(3) 0.100(3)
H4 H 0.956(4) 0.111(3) 0.052(3)
loop_
_geom_bond_atom_site_label_1
_geom_bond_atom_site_label_2
_geom_bond_site_symmetry_1
_geom_bond_site_symmetry_2
Co1 O1 1_555 1_555
O1 C7 1_555 1_555
O2 C7 1_555 1_555
O3 Co1 1_555 1_555
O4 C8 1_555 1_555
O5 H1 1_555 1_555
H2 O5 1_555 1_555
O6 H3 1_555 1_555
H4 O6 1_555 1_555
N1 H5 1_555 1_555
N2 Co1 1_555 1_555
N3 H6 1_555 1_555
N4 Co1 1_555 1_555
C1 H7 1_555 1_555
C2 C1 1_555 1_555
H8 C2 1_555 1_555
H9 C2 1_555 1_555
C3 C2 1_555 1_555
H10 C3 1_555 1_555
H11 C3 1_555 1_555
C4 H12 1_555 1_555
C5 C4 1_555 1_555
H13 C5 1_555 1_555
H14 C5 1_555 1_555
C6 C5 1_555 1_555
H15 C6 1_555 1_555
H16 C6 1_555 1_555
C7 C1 1_555 1_555
C8 O3 1_555 1_555
C9 C10 1_555 1_555
C10 H17 1_555 1_555
C11 C10 1_555 1_555
H18 C11 1_555 1_555
C12 N1 1_555 1_555
C13 N2 1_555 1_555
H19 C13 1_555 1_555
C14 N1 1_555 1_555
H20 C14 1_555 1_555
C15 C16 1_555 1_555
C16 H21 1_555 1_555
C17 C16 1_555 1_555
H22 C17 1_555 1_555
C18 N3 1_555 1_555
C19 N4 1_555 1_555
H23 C19 1_555 1_555
C20 N3 1_555 1_555
H24 C20 1_555 1_555
Co1A O1A_2 1_555 1_555
Co1A_2 O1A 1_555 1_555
Co1A_3 N4A 1_555 1_555
Co1A_4 O3A 1_555 1_555
O1A C7A 1_555 1_555
O2A C7A 1_555 1_555
O3A C8A 1_555 1_555
O3A_2 Co1A 1_555 1_555
O4A C8A 1_555 1_555
N1A H5A 1_555 1_555
N2A Co1A 1_555 1_555
N3A H6A 1_555 1_555
N4A C19A 1_555 1_555
N4A_2 Co1A 1_555 1_555
C1A C3 1_555 1_555
H7A C1A 1_555 1_555
C2A C1A 1_555 1_555
H8A C2A 1_555 1_555
H9A C2A 1_555 1_555
C3A C1 1_555 1_555
H10A C3A 1_555 1_555
H11A C3A 1_555 1_555
C4A C6 1_555 1_555
H12A C4A 1_555 1_555
C5A C4A 1_555 1_555
H13A C5A 1_555 1_555
H14A C5A 1_555 1_555
C6A C4 1_555 1_555
H15A C6A 1_555 1_555
H16A C6A 1_555 1_555
C7A C1A 1_555 1_555
C8A C4A 1_555 1_555
C9A C11 1_555 1_555
C10A C9A 1_555 1_555
H17A C10A 1_555 1_555
C11A C9 1_555 1_555
H18A C11A 1_555 1_555
C12A N1A 1_555 1_555
C13A N2A 1_555 1_555
H19A C13A 1_555 1_555
C14A N1A 1_555 1_555
H20A C14A 1_555 1_555
C15A C17 1_555 1_555
C16A C15A 1_555 1_555
H21A C16A 1_555 1_555
C17A C15 1_555 1_555
H22A C17A 1_555 1_555
C18A N3A 1_555 1_555
C19A C18A 1_555 1_555
H23A C19A 1_555 1_555
C20A N3A 1_555 1_555
H24A C20A 1_555 1_555
N2 C14 1_555 1_555
N4 C20 1_555 1_555
C4 C8 1_555 1_555
C9 C12 1_555 1_555
C12 C13 1_555 1_555
C15 C18 1_555 1_555
C18 C19 1_555 1_555
N2A C14A 1_555 1_555
N4A C20A 1_555 1_555
C2A C3A 1_555 1_555
C5A C6A 1_555 1_555
C9A C12A 1_555 1_555
C10A C11A 1_555 1_555
C12A C13A 1_555 1_555
C15A C18A 1_555 1_555
C16A C17A 1_555 1_555

#END
