
#######################################################################
#
#                 Cambridge Crystallographic Data Centre
#                                CCDC 
#
#######################################################################
#
# If this CIF has been generated from an entry in the Cambridge 
# Structural Database, then it will include bibliographic, chemical, 
# crystal, experimental, refinement or atomic coordinate data resulting 
# from the CCDC's data processing and validation procedures.
#
#######################################################################

data_ZAWNIW
_symmetry_cell_setting           monoclinic
_symmetry_space_group_name_H-M   'P 21/c'
_symmetry_Int_Tables_number      14
_space_group_name_Hall           '-P 2ybc'
loop_
_symmetry_equiv_pos_site_id
_symmetry_equiv_pos_as_xyz
1 x,y,z
2 -x,1/2+y,1/2-z
3 -x,-y,-z
4 x,1/2-y,1/2+z
_cell_length_a                   18.430(2)
_cell_length_b                   25.380(3)
_cell_length_c                   18.115(2)
_cell_angle_alpha                90
_cell_angle_beta                 101.564(6)
_cell_angle_gamma                90
_cell_volume                     8301.36
loop_
_atom_site_label
_atom_site_type_symbol
_atom_site_fract_x
_atom_site_fract_y
_atom_site_fract_z
Ni1 Ni 0.153682(14) 0.618576(9) 0.312188(14)
Ni2 Ni -0.154980(14) 0.612850(10) 0.166500(15)
Ni3 Ni 0.653149(14) 0.127450(10) 0.826380(14)
Ni4 Ni 0.345090(14) 0.140509(10) 0.682011(14)
O1 O 0.10832(8) 0.66843(6) 0.38461(8)
O2 O 0.04934(8) 0.59779(6) 0.33628(8)
O3 O -0.09759(8) 0.65649(5) 0.26394(8)
O4 O -0.14648(8) 0.57943(5) 0.27304(8)
O5 O -0.11119(8) 0.65581(6) 0.08855(8)
O6 O -0.04786(8) 0.58930(6) 0.14529(8)
O7 O 0.09831(8) 0.65631(5) 0.21119(8)
O8 O 0.14593(8) 0.57775(5) 0.21034(8)
O9 O 0.60696(8) 0.07606(5) 0.89657(8)
O10 O 0.54930(8) 0.14812(5) 0.85201(8)
O11 O 0.40084(8) 0.09510(5) 0.77568(8)
O12 O 0.35396(8) 0.17202(5) 0.79160(8)
O13 O 0.64589(8) 0.17074(5) 0.72824(8)
O14 O 0.59606(8) 0.09276(5) 0.72091(8)
O15 O 0.45193(8) 0.16475(5) 0.66141(8)
O16 O 0.38849(8) 0.09927(6) 0.60218(8)
N1 N 0.31528(10) 0.72538(6) 0.28140(10)
H17 H 0.3297 0.7580 0.2765
N2 N 0.24577(9) 0.65852(6) 0.30180(9)
N3 N 0.68351(10) 0.72293(6) 0.18940(10)
H18 H 0.6689 0.7558 0.1921
N4 N 0.75280(9) 0.65505(6) 0.17211(10)
N5 N -0.28891(10) 0.51231(7) 0.01286(11)
H19 H -0.3264 0.5066 -0.0247
N6 N -0.20978(10) 0.55475(7) 0.09910(10)
N7 N -0.20855(10) 0.21673(7) -0.00809(10)
H20 H -0.1700 0.2202 0.0291
N8 N -0.29076(10) 0.17965(6) -0.09747(10)
N9 N -0.18351(10) 0.02250(6) 0.79435(10)
H21 H -0.1685 -0.0099 0.7888
N10 N -0.25464(10) 0.08808(6) 0.81468(10)
N11 N 0.18456(10) 0.02898(7) 0.70184(10)
H22 H 0.1701 -0.0040 0.7027
N12 N 0.25261(10) 0.09802(7) 0.68657(10)
N13 N 0.21142(10) 0.23791(7) 0.52404(11)
H23 H 0.1736 0.2426 0.4864
N14 N 0.29116(10) 0.19827(7) 0.61324(10)
N15 N 0.29158(10) 0.53137(7) 0.47994(10)
H24 H 0.3304 0.5288 0.5170
N16 N 0.20923(10) 0.56606(6) 0.38836(10)
C1 C -0.01312(12) 0.65507(10) 0.41124(12)
H25 H -0.0275 0.6919 0.3951
C2 C -0.08206(12) 0.61983(9) 0.38914(12)
H26 H -0.1221 0.6374 0.4101
C3 C -0.07278(14) 0.56509(10) 0.42473(13)
H27 H -0.0389 0.5441 0.4003
H28 H -0.1214 0.5471 0.4155
C4 C -0.04192(16) 0.56723(13) 0.50943(15)
H29 H -0.0795 0.5827 0.5351
H30 H -0.0312 0.5310 0.5289
C5 C 0.02804(16) 0.59982(16) 0.52711(15)
H31 H 0.0465 0.6009 0.5823
H32 H 0.0667 0.5833 0.5039
C6 C 0.01351(15) 0.65492(14) 0.49763(14)
H33 H 0.0595 0.6760 0.5112
H34 H -0.0246 0.6715 0.5215
C7 C 0.05061(12) 0.63870(8) 0.37472(11)
C8 C -0.10923(11) 0.61861(8) 0.30447(11)
C9 C 0.01155(12) 0.64510(10) 0.06517(12)
H35 H 0.0225 0.6829 0.0786
C10 C 0.08367(12) 0.61378(8) 0.09056(12)
H36 H 0.1223 0.6324 0.0687
C11 C 0.07977(13) 0.55779(9) 0.05916(13)
H37 H 0.1300 0.5422 0.0696
H38 H 0.0480 0.5361 0.0852
C12 C 0.04900(15) 0.55640(12) -0.02527(14)
H39 H 0.0855 0.5724 -0.0519
H40 H 0.0416 0.5193 -0.0419
C13 C -0.02351(15) 0.58551(14) -0.04662(15)
H41 H -0.0410 0.5842 -0.1019
H42 H -0.0612 0.5682 -0.0229
C14 C -0.01437(15) 0.64196(13) -0.02133(13)
H43 H -0.0621 0.6607 -0.0366
H44 H 0.0225 0.6594 -0.0460
C15 C -0.05169(12) 0.62790(8) 0.10240(11)
C16 C 0.10979(11) 0.61590(8) 0.17510(12)
C17 C 0.48479(11) 0.08897(8) 0.92246(11)
H45 H 0.4690 0.0533 0.9017
C18 C 0.41713(12) 0.12583(8) 0.90358(12)
H46 H 0.3764 0.1080 0.9230
C19 C 0.42959(13) 0.17889(9) 0.94452(12)
H47 H 0.4652 0.2000 0.9226
H48 H 0.3822 0.1985 0.9366
C20 C 0.45915(14) 0.17219(11) 1.02865(14)
H49 H 0.4198 0.1570 1.0522
H50 H 0.4722 0.2072 1.0516
C21 C 0.52712(15) 0.13661(12) 1.04512(14)
H51 H 0.5681 0.1532 1.0256
H52 H 0.5433 0.1321 1.1003
C22 C 0.50968(13) 0.08354(10) 1.00865(13)
H53 H 0.4699 0.0665 1.0295
H54 H 0.5542 0.0608 1.0203
C23 C 0.54963(11) 0.10651(8) 0.88821(11)
C24 C 0.39004(11) 0.13131(8) 0.81919(11)
C25 C 0.58293(12) 0.14157(8) 0.60477(11)
H55 H 0.6206 0.1234 0.5810
C26 C 0.50914(12) 0.11286(9) 0.57551(12)
H56 H 0.5185 0.0742 0.5826
C27 C 0.48203(14) 0.12284(11) 0.49013(13)
H57 H 0.5168 0.1063 0.4619
H58 H 0.4328 0.1064 0.4732
C28 C 0.47691(14) 0.18131(11) 0.47351(14)
H59 H 0.4577 0.1870 0.4190
H60 H 0.4422 0.1980 0.5017
C29 C 0.55218(14) 0.20607(11) 0.49620(13)
H61 H 0.5488 0.2441 0.4838
H62 H 0.5865 0.1896 0.4673
C30 C 0.58270(13) 0.19921(9) 0.58009(12)
H63 H 0.5523 0.2201 0.6087
H64 H 0.6339 0.2131 0.5923
C31 C 0.60866(11) 0.13472(8) 0.68893(11)
C32 C 0.44774(12) 0.12735(8) 0.61628(11)
C33 C 0.42843(11) 0.68151(8) 0.25418(11)
C34 C 0.46613(11) 0.72820(8) 0.24789(11)
H65 H 0.4434 0.7609 0.2551
C35 C 0.53642(11) 0.72775(8) 0.23131(11)
H66 H 0.5609 0.7601 0.2266
C36 C 0.57134(11) 0.68074(8) 0.22158(11)
C37 C 0.53348(14) 0.63360(8) 0.22762(14)
H67 H 0.5565 0.6009 0.2210
C38 C 0.46328(14) 0.63404(8) 0.24301(14)
H68 H 0.4382 0.6017 0.2461
C39 C 0.35454(11) 0.68048(7) 0.27243(11)
C40 C 0.31076(11) 0.63948(8) 0.28533(11)
H69 H 0.3232 0.6033 0.2833
C41 C 0.25112(12) 0.71047(8) 0.29898(12)
H70 H 0.2141 0.7342 0.3083
C42 C 0.64512(11) 0.67865(8) 0.20300(11)
C43 C 0.68871(12) 0.63687(8) 0.19156(11)
H71 H 0.6766 0.6008 0.1963
C44 C 0.74735(12) 0.70712(8) 0.17126(12)
H72 H 0.7838 0.7303 0.1594
C45 C -0.24543(12) 0.41881(8) 0.02784(12)
C46 C -0.21122(14) 0.38028(9) 0.07783(13)
H73 H -0.1860 0.3902 0.1268
C47 C -0.21358(13) 0.32769(9) 0.05701(13)
H74 H -0.1897 0.3021 0.0919
C48 C -0.25051(12) 0.31173(8) -0.01447(12)
C49 C -0.28382(13) 0.35024(8) -0.06461(12)
H75 H -0.3086 0.3404 -0.1138
C50 C -0.28134(13) 0.40296(9) -0.04375(13)
H76 H -0.3045 0.4286 -0.0789
C51 C -0.24048(12) 0.47466(8) 0.04955(12)
C52 C -0.19174(12) 0.50188(8) 0.10205(12)
H77 H -0.1511 0.4867 0.1359
C53 C -0.26854(13) 0.55920(9) 0.04471(13)
H78 H -0.2934 0.5914 0.0299
C54 C -0.25712(12) 0.25644(8) -0.03828(11)
C55 C -0.30765(12) 0.23246(8) -0.09289(12)
H79 H -0.3488 0.2496 -0.1236
C56 C -0.23052(12) 0.17224(8) -0.04549(12)
H80 H -0.2058 0.1394 -0.0358
C57 C -0.06889(11) 0.06741(8) 0.77347(11)
C58 C -0.03014(13) 0.11488(8) 0.77334(14)
H81 H -0.0528 0.1469 0.7837
C59 C 0.04025(13) 0.11578(8) 0.75846(14)
H82 H 0.0657 0.1484 0.7594
C60 C 0.07489(11) 0.06943(8) 0.74205(11)
C61 C 0.03688(12) 0.02213(8) 0.74283(11)
H83 H 0.0594 -0.0099 0.7322
C62 C -0.03344(12) 0.02125(8) 0.75891(11)
H84 H -0.0580 -0.0115 0.7600
C63 C -0.14358(11) 0.06772(8) 0.78928(11)
C64 C -0.18863(11) 0.10805(8) 0.80204(12)
H85 H -0.1763 0.1444 0.8022
C65 C -0.24900(12) 0.03632(8) 0.80919(13)
H86 H -0.2867 0.0121 0.8151
C66 C 0.14732(11) 0.07242(8) 0.72096(11)
C67 C 0.19028(11) 0.11453(8) 0.71112(12)
H87 H 0.1789 0.1502 0.7199
C68 C 0.24658(12) 0.04598(8) 0.68173(12)
H88 H 0.2819 0.0236 0.6660
C69 C 0.25546(12) 0.33156(8) 0.53069(12)
C70 C 0.28796(14) 0.37171(9) 0.57860(12)
H89 H 0.3125 0.3635 0.6285
C71 C 0.28476(13) 0.42356(9) 0.55399(12)
H90 H 0.3076 0.4504 0.5873
C72 C 0.24871(12) 0.43693(8) 0.48141(12)
C73 C 0.21679(13) 0.39669(9) 0.43340(13)
H91 H 0.1923 0.4048 0.3834
C74 C 0.22041(13) 0.34475(9) 0.45800(13)
H92 H 0.1985 0.3178 0.4244
C75 C 0.26059(12) 0.27636(8) 0.55648(12)
C76 C 0.30977(12) 0.25084(8) 0.61066(12)
H93 H 0.3512 0.2669 0.6423
C77 C 0.23129(12) 0.19216(9) 0.55979(13)
H94 H 0.2057 0.1598 0.5482
C78 C 0.24204(12) 0.49143(8) 0.45346(12)
C79 C 0.19139(12) 0.51380(8) 0.39739(12)
H95 H 0.1497 0.4961 0.3685
C80 C 0.26976(12) 0.57455(8) 0.43902(12)
H96 H 0.2950 0.6074 0.4458
Ni2_2 Ni 0.845020(14) 0.612850(10) 0.166500(15)
Ni3_2 Ni -0.346851(14) 0.127450(10) -0.173620(14)
Ni3_3 Ni -0.346851(14) 0.127450(10) 0.826380(14)
N4_2 N -0.24720(9) 0.65505(6) 0.17211(10)
N8_2 N 0.70924(10) 0.17965(6) 0.90253(10)
N10_2 N 0.74536(10) 0.08808(6) 0.81468(10)
O17 O 0.41229(12) 0.50581(7) 0.11957(14)
H1 H 0.4147(17) 0.5156(12) 0.1818(18)
H2 H 0.4117(19) 0.4786(12) 0.131(2)
O18 O 0.08547(15) 0.25937(8) 0.38197(19)
H3 H 0.083(2) 0.2658(14) 0.324(2)
H4 H 0.088(2) 0.2355(14) 0.372(2)
O19 O 0.40936(14) 0.51384(8) 0.27636(16)
H5 H 0.4578(10) 0.5140(14) 0.2934(19)
H6 H 0.407(2) 0.4847(9) 0.2981(18)
O20 O 0.56692(15) 0.52108(9) 0.32554(15)
H7 H 0.582(2) 0.4878(9) 0.3406(19)
H8 H 0.578(2) 0.5122(14) 0.2777(14)
O21 O 0.91706(16) 0.26324(9) 0.32561(17)
H9 H 0.907(2) 0.2283(8) 0.329(2)
H10 H 0.9563(17) 0.2515(15) 0.300(2)
O22 O 0.93054(17) 0.23092(10) 0.67372(18)
H11 H 0.918(2) 0.2658(8) 0.662(2)
H12 H 0.919(2) 0.2394(16) 0.7225(15)
O23 O 0.08936(15) 0.26410(9) 0.2251(2)
H13 H 0.098(2) 0.2332(10) 0.207(2)
H14 H 0.0467(15) 0.2639(17) 0.194(2)
O24 O 0.58149(15) 0.51162(9) 0.17486(16)
H15 H 0.591(2) 0.4781(8) 0.176(2)
H16 H 0.5331(10) 0.5108(15) 0.171(2)
loop_
_geom_bond_atom_site_label_1
_geom_bond_atom_site_label_2
_geom_bond_site_symmetry_1
_geom_bond_site_symmetry_2
Ni1 O1 1_555 1_555
Ni2 O3 1_555 1_555
Ni3 O9 1_555 1_555
Ni4 O11 1_555 1_555
O1 C7 1_555 1_555
O2 Ni1 1_555 1_555
O3 C8 1_555 1_555
O4 Ni2 1_555 1_555
O5 Ni2 1_555 1_555
O6 Ni2 1_555 1_555
O7 Ni1 1_555 1_555
O8 Ni1 1_555 1_555
O9 C23 1_555 1_555
O10 Ni3 1_555 1_555
O11 C24 1_555 1_555
O12 Ni4 1_555 1_555
O13 Ni3 1_555 1_555
O14 Ni3 1_555 1_555
O15 Ni4 1_555 1_555
O16 Ni4 1_555 1_555
O17 H1 1_555 1_555
H2 O17 1_555 1_555
O18 H3 1_555 1_555
H4 O18 1_555 1_555
O19 H5 1_555 1_555
H6 O19 1_555 1_555
O20 H7 1_555 1_555
H8 O20 1_555 1_555
O21 H9 1_555 1_555
H10 O21 1_555 1_555
O22 H11 1_555 1_555
H12 O22 1_555 1_555
O23 H13 1_555 1_555
H14 O23 1_555 1_555
O24 H15 1_555 1_555
H16 O24 1_555 1_555
N1 H17 1_555 1_555
N2 Ni1 1_555 1_555
N3 H18 1_555 1_555
N4 C43 1_555 1_555
N5 H19 1_555 1_555
N6 Ni2 1_555 1_555
N7 H20 1_555 1_555
N8 C55 1_555 1_555
N9 H21 1_555 1_555
N10 C64 1_555 1_555
N11 H22 1_555 1_555
N12 Ni4 1_555 1_555
N13 H23 1_555 1_555
N14 Ni4 1_555 1_555
N15 H24 1_555 1_555
N16 Ni1 1_555 1_555
C1 H25 1_555 1_555
C2 C1 1_555 1_555
H26 C2 1_555 1_555
C3 C2 1_555 1_555
H27 C3 1_555 1_555
H28 C3 1_555 1_555
C4 C3 1_555 1_555
H29 C4 1_555 1_555
H30 C4 1_555 1_555
C5 C4 1_555 1_555
H31 C5 1_555 1_555
H32 C5 1_555 1_555
C6 C1 1_555 1_555
H33 C6 1_555 1_555
H34 C6 1_555 1_555
C7 O2 1_555 1_555
C8 O4 1_555 1_555
C9 H35 1_555 1_555
C10 C9 1_555 1_555
H36 C10 1_555 1_555
C11 C10 1_555 1_555
H37 C11 1_555 1_555
H38 C11 1_555 1_555
C12 C11 1_555 1_555
H39 C12 1_555 1_555
H40 C12 1_555 1_555
C13 C12 1_555 1_555
H41 C13 1_555 1_555
H42 C13 1_555 1_555
C14 C9 1_555 1_555
H43 C14 1_555 1_555
H44 C14 1_555 1_555
C15 O5 1_555 1_555
C16 O7 1_555 1_555
C17 H45 1_555 1_555
C18 C17 1_555 1_555
H46 C18 1_555 1_555
C19 C18 1_555 1_555
H47 C19 1_555 1_555
H48 C19 1_555 1_555
C20 C19 1_555 1_555
H49 C20 1_555 1_555
H50 C20 1_555 1_555
C21 C20 1_555 1_555
H51 C21 1_555 1_555
H52 C21 1_555 1_555
C22 C17 1_555 1_555
H53 C22 1_555 1_555
H54 C22 1_555 1_555
C23 O10 1_555 1_555
C24 O12 1_555 1_555
C25 H55 1_555 1_555
C26 C25 1_555 1_555
H56 C26 1_555 1_555
C27 C26 1_555 1_555
H57 C27 1_555 1_555
H58 C27 1_555 1_555
C28 C27 1_555 1_555
H59 C28 1_555 1_555
H60 C28 1_555 1_555
C29 C28 1_555 1_555
H61 C29 1_555 1_555
H62 C29 1_555 1_555
C30 C25 1_555 1_555
H63 C30 1_555 1_555
H64 C30 1_555 1_555
C31 O13 1_555 1_555
C32 O15 1_555 1_555
C33 C34 1_555 1_555
C34 H65 1_555 1_555
C35 C34 1_555 1_555
H66 C35 1_555 1_555
C36 C35 1_555 1_555
C37 C36 1_555 1_555
H67 C37 1_555 1_555
C38 C33 1_555 1_555
H68 C38 1_555 1_555
C39 N1 1_555 1_555
C40 N2 1_555 1_555
H69 C40 1_555 1_555
C41 N1 1_555 1_555
H70 C41 1_555 1_555
C42 N3 1_555 1_555
C43 C42 1_555 1_555
H71 C43 1_555 1_555
C44 N3 1_555 1_555
H72 C44 1_555 1_555
C45 C46 1_555 1_555
C46 H73 1_555 1_555
C47 C46 1_555 1_555
H74 C47 1_555 1_555
C48 C47 1_555 1_555
C49 C48 1_555 1_555
H75 C49 1_555 1_555
C50 C45 1_555 1_555
H76 C50 1_555 1_555
C51 N5 1_555 1_555
C52 N6 1_555 1_555
H77 C52 1_555 1_555
C53 N5 1_555 1_555
H78 C53 1_555 1_555
C54 N7 1_555 1_555
C55 C54 1_555 1_555
H79 C55 1_555 1_555
C56 N7 1_555 1_555
H80 C56 1_555 1_555
C57 C58 1_555 1_555
C58 H81 1_555 1_555
C59 C58 1_555 1_555
H82 C59 1_555 1_555
C60 C59 1_555 1_555
C61 C60 1_555 1_555
H83 C61 1_555 1_555
C62 C57 1_555 1_555
H84 C62 1_555 1_555
C63 N9 1_555 1_555
C64 C63 1_555 1_555
H85 C64 1_555 1_555
C65 N9 1_555 1_555
H86 C65 1_555 1_555
C66 N11 1_555 1_555
C67 N12 1_555 1_555
H87 C67 1_555 1_555
C68 N11 1_555 1_555
H88 C68 1_555 1_555
C69 C70 1_555 1_555
C70 H89 1_555 1_555
C71 C70 1_555 1_555
H90 C71 1_555 1_555
C72 C71 1_555 1_555
C73 C72 1_555 1_555
H91 C73 1_555 1_555
C74 C69 1_555 1_555
H92 C74 1_555 1_555
C75 N13 1_555 1_555
C76 N14 1_555 1_555
H93 C76 1_555 1_555
C77 N13 1_555 1_555
H94 C77 1_555 1_555
C78 N15 1_555 1_555
C79 N16 1_555 1_555
H95 C79 1_555 1_555
C80 N15 1_555 1_555
H96 C80 1_555 1_555
Ni2_2 N4 1_555 1_555
Ni3_2 N8 1_555 1_555
Ni3_3 N10 1_555 1_555
N4_2 Ni2 1_555 1_555
N8_2 Ni3 1_555 1_555
N10_2 Ni3 1_555 1_555
O6 C15 1_555 1_555
O8 C16 1_555 1_555
O14 C31 1_555 1_555
O16 C32 1_555 1_555
N2 C41 1_555 1_555
N4 C44 1_555 1_555
N6 C53 1_555 1_555
N8 C56 1_555 1_555
N10 C65 1_555 1_555
N12 C68 1_555 1_555
N14 C77 1_555 1_555
N16 C80 1_555 1_555
C1 C7 1_555 1_555
C2 C8 1_555 1_555
C5 C6 1_555 1_555
C9 C15 1_555 1_555
C10 C16 1_555 1_555
C13 C14 1_555 1_555
C17 C23 1_555 1_555
C18 C24 1_555 1_555
C21 C22 1_555 1_555
C25 C31 1_555 1_555
C26 C32 1_555 1_555
C29 C30 1_555 1_555
C33 C39 1_555 1_555
C36 C42 1_555 1_555
C37 C38 1_555 1_555
C39 C40 1_555 1_555
C45 C51 1_555 1_555
C48 C54 1_555 1_555
C49 C50 1_555 1_555
C51 C52 1_555 1_555
C57 C63 1_555 1_555
C60 C66 1_555 1_555
C61 C62 1_555 1_555
C66 C67 1_555 1_555
C69 C75 1_555 1_555
C72 C78 1_555 1_555
C73 C74 1_555 1_555
C75 C76 1_555 1_555
C78 C79 1_555 1_555

#END
