
#######################################################################
#
#                 Cambridge Crystallographic Data Centre
#                                CCDC 
#
#######################################################################
#
# If this CIF has been generated from an entry in the Cambridge 
# Structural Database, then it will include bibliographic, chemical, 
# crystal, experimental, refinement or atomic coordinate data resulting 
# from the CCDC's data processing and validation procedures.
#
#######################################################################

data_ZAWNOC
_symmetry_cell_setting           monoclinic
_symmetry_space_group_name_H-M   'P 21/c'
_symmetry_Int_Tables_number      14
_space_group_name_Hall           '-P 2ybc'
loop_
_symmetry_equiv_pos_site_id
_symmetry_equiv_pos_as_xyz
1 x,y,z
2 -x,1/2+y,1/2-z
3 -x,-y,-z
4 x,1/2-y,1/2+z
_cell_length_a                   9.1363(15)
_cell_length_b                   18.473(3)
_cell_length_c                   14.220(3)
_cell_angle_alpha                90
_cell_angle_beta                 124.842(9)
_cell_angle_gamma                90
_cell_volume                     1969.74
loop_
_atom_site_label
_atom_site_type_symbol
_atom_site_fract_x
_atom_site_fract_y
_atom_site_fract_z
Co1 Co 0.50504(3) 0.777224(11) 0.283832(18)
O1 O 0.50316(19) 0.82408(7) 0.40890(11)
O2 O 0.2567(2) 0.85781(8) 0.25013(11)
O3 O 0.33969(19) 0.79132(6) 0.66024(11)
O4 O 0.3917(2) 0.86378(9) 0.79912(11)
N1 N 0.9742(2) 0.66633(8) 0.52689(12)
H1 H 1.0581 0.6528 0.5973
N2 N 0.7428(2) 0.72461(8) 0.38463(13)
N3 N 1.4676(2) 0.36825(7) 0.47371(12)
H2 H 1.4994 0.3681 0.5449
N4 N 1.45596(19) 0.33784(8) 0.32011(12)
C1 C 0.3055(2) 0.90038(9) 0.42565(14)
H3 H 0.2597 0.9489 0.3892
C2 C 0.4626(2) 0.91240(9) 0.54978(14)
H4 H 0.5578 0.9392 0.5514
H5 H 0.5116 0.8650 0.5874
C3 C 0.4049(3) 0.95517(10) 0.61571(16)
H6 H 0.3631 1.0037 0.5808
H7 H 0.5089 0.9618 0.6959
C4 C 0.2548(3) 0.91654(10) 0.61493(15)
H8 H 0.2085 0.9517 0.6455
C5 C 0.0995(3) 0.89829(11) 0.49217(15)
H9 H 0.0362 0.9437 0.4529
H10 H 0.0145 0.8668 0.4952
C6 C 0.1536(2) 0.86030(9) 0.42039(14)
H11 H 0.0489 0.8575 0.3397
H12 H 0.1922 0.8103 0.4489
C7 C 0.3569(2) 0.85905(9) 0.35615(14)
C8 C 0.3327(2) 0.85284(9) 0.69769(14)
C9 C 1.0548(2) 0.58155(9) 0.42334(14)
C10 C 1.1871(2) 0.54332(9) 0.51930(14)
H13 H 1.2132 0.5549 0.5925
C11 C 1.2819(2) 0.48826(9) 0.50958(14)
H14 H 1.3721 0.4629 0.5761
C12 C 1.2454(2) 0.47001(9) 0.40281(14)
C13 C 1.1102(2) 0.50762(10) 0.30661(15)
H15 H 1.0815 0.4951 0.2331
C14 C 1.0176(2) 0.56256(10) 0.31641(15)
H16 H 0.9275 0.5878 0.2498
C15 C 0.9491(2) 0.63970(9) 0.42776(14)
C16 C 0.8065(2) 0.67703(10) 0.34131(15)
H17 H 0.7578 0.6711 0.2622
C17 C 0.8483(2) 0.71642(9) 0.49687(15)
H18 H 0.8365 0.7426 0.5497
C18 C 1.3435(2) 0.41361(9) 0.38770(14)
C19 C 1.3384(2) 0.39372(9) 0.29333(14)
H19 H 1.2645 0.4153 0.2198
C20 C 1.5314(3) 0.32452(9) 0.43013(15)
H20 H 1.6197 0.2885 0.4728
Co1A Co 1.49496(3) 0.277224(11) 0.216168(18)
Co1C Co 0.50504(3) 0.722776(11) 0.783832(18)
O3C O 0.33969(19) 0.70868(6) 0.16024(11)
N4A N 0.54404(19) 0.83784(8) 0.17989(12)
loop_
_geom_bond_atom_site_label_1
_geom_bond_atom_site_label_2
_geom_bond_site_symmetry_1
_geom_bond_site_symmetry_2
Co1 O1 1_555 1_555
O1 C7 1_555 1_555
O2 C7 1_555 1_555
O3 C8 1_555 1_555
O4 C8 1_555 1_555
N1 H1 1_555 1_555
N2 Co1 1_555 1_555
N3 H2 1_555 1_555
N4 C19 1_555 1_555
C1 H3 1_555 1_555
C2 C1 1_555 1_555
H4 C2 1_555 1_555
H5 C2 1_555 1_555
C3 C2 1_555 1_555
H6 C3 1_555 1_555
H7 C3 1_555 1_555
C4 C3 1_555 1_555
H8 C4 1_555 1_555
C5 C4 1_555 1_555
H9 C5 1_555 1_555
H10 C5 1_555 1_555
C6 C1 1_555 1_555
H11 C6 1_555 1_555
H12 C6 1_555 1_555
C7 C1 1_555 1_555
C8 C4 1_555 1_555
C9 C10 1_555 1_555
C10 H13 1_555 1_555
C11 C10 1_555 1_555
H14 C11 1_555 1_555
C12 C11 1_555 1_555
C13 C12 1_555 1_555
H15 C13 1_555 1_555
C14 C9 1_555 1_555
H16 C14 1_555 1_555
C15 N1 1_555 1_555
C16 N2 1_555 1_555
H17 C16 1_555 1_555
C17 N1 1_555 1_555
H18 C17 1_555 1_555
C18 N3 1_555 1_555
C19 C18 1_555 1_555
H19 C19 1_555 1_555
C20 N3 1_555 1_555
H20 C20 1_555 1_555
Co1A N4 1_555 1_555
Co1C O3 1_555 1_555
O3C Co1 1_555 1_555
N4A Co1 1_555 1_555
N2 C17 1_555 1_555
N4 C20 1_555 1_555
C5 C6 1_555 1_555
C9 C15 1_555 1_555
C12 C18 1_555 1_555
C13 C14 1_555 1_555
C15 C16 1_555 1_555

#END
