
#######################################################################
#
#                 Cambridge Crystallographic Data Centre
#                                CCDC 
#
#######################################################################
#
# If this CIF has been generated from an entry in the Cambridge 
# Structural Database, then it will include bibliographic, chemical, 
# crystal, experimental, refinement or atomic coordinate data resulting 
# from the CCDC's data processing and validation procedures.
#
#######################################################################

data_ZAWPEU
_symmetry_cell_setting           tetragonal
_symmetry_space_group_name_H-M   'P 41 21 2'
_symmetry_Int_Tables_number      92
_space_group_name_Hall           'P 4abw 2nw'
loop_
_symmetry_equiv_pos_site_id
_symmetry_equiv_pos_as_xyz
1 x,y,z
2 -x,-y,1/2+z
3 1/2-y,1/2+x,1/4+z
4 1/2+y,1/2-x,3/4+z
5 1/2-x,1/2+y,1/4-z
6 1/2+x,1/2-y,3/4-z
7 y,x,-z
8 -y,-x,1/2-z
_cell_length_a                   14.672(2)
_cell_length_b                   14.672(2)
_cell_length_c                   22.225(4)
_cell_angle_alpha                90
_cell_angle_beta                 90
_cell_angle_gamma                90
_cell_volume                     4784.32
loop_
_atom_site_label
_atom_site_type_symbol
_atom_site_fract_x
_atom_site_fract_y
_atom_site_fract_z
O14 O -0.3120(17) 0.1093(16) 0.1218(10)
H19 H -0.280(14) 0.10(2) 0.153(6)
H20 H -0.281(14) 0.094(19) 0.091(6)
O15 O 0.7814(19) 0.1057(19) 0.2627(11)
H21 H 0.7314 0.1266 0.2491
H22 H 0.8202 0.1486 0.2638
Zn1 Zn 0.74326(6) 0.84919(6) 0.40416(4)
Zn2 Zn 1.21139(7) 1.32072(8) 0.28173(7)
O1 O 0.8779(4) 0.8360(4) 0.3797(3)
O2 O 0.8276(4) 0.9749(4) 0.3741(3)
O3 O 1.0381(5) 1.2285(5) 0.3172(4)
O4 O 1.1848(5) 1.1935(5) 0.3018(4)
O5 O 1.2931(4) 0.8755(4) 0.3182(3)
O6 O 1.1915(4) 0.7693(5) 0.3278(4)
O7 O 1.3047(4) 1.4509(4) 0.2397(3)
O8 O 1.3464(5) 1.3125(5) 0.2634(4)
O9 O 0.6931(5) 0.8397(4) 0.3072(3)
O10 O 0.6203(6) 0.9177(5) 0.3769(3)
N1 N 0.5889(6) 0.8963(5) 0.2178(3)
H1 H 0.6162 0.9455 0.2017
H2 H 0.5407 0.8820 0.1946
C1 C 1.0513(5) 0.8908(5) 0.3460(4)
H3 H 1.0405 0.8296 0.3543
C2 C 0.9801(5) 0.9531(6) 0.3506(4)
C3 C 0.9975(6) 1.0429(6) 0.3405(4)
H4 H 0.9502 1.0848 0.3440
C4 C 1.0826(6) 1.0733(5) 0.3252(4)
C5 C 1.1565(6) 1.0094(5) 0.3230(4)
H5 H 1.2158 1.0300 0.3175
C6 C 1.1398(5) 0.9187(4) 0.3290(3)
C7 C 0.8898(6) 0.9199(7) 0.3688(4)
C8 C 1.1034(6) 1.1729(6) 0.3153(5)
C9 C 1.2104(6) 0.8494(6) 0.3233(4)
C10 C 1.4877(6) 1.5123(6) 0.2500
H6 H 1.4429 1.5571 0.2500
C11 C 1.4636(5) 1.4205(6) 0.2518(4)
C12 C 1.5325(7) 1.3543(7) 0.2507(5)
H7 H 1.5168 1.2928 0.2503
C13 C 1.6214(7) 1.3786(7) 0.2500
C14 C 1.3667(7) 1.3912(6) 0.2509(5)
C15 C 0.4590(6) 1.0478(6) 0.2442(3)
C16 C 0.5319(7) 1.0172(6) 0.2852(4)
H8 H 0.5119 1.0260 0.3264
H9 H 0.5853 1.0550 0.2789
C17 C 0.5584(6) 0.9175(6) 0.2765(4)
H10 H 0.5038 0.8808 0.2840
C18 C 0.6280(7) 0.8915(6) 0.3234(5)
N2 N 0.3803(7) 1.1140(7) 0.1755(5)
H11 H 0.3637 1.1520 0.1482
N3 N 0.3744(5) 1.0164(7) 0.2470(4)
H12 H 0.3547 0.9759 0.2718
C19 C 0.4662(7) 1.1029(8) 0.1945(4)
H13 H 0.5189 1.1272 0.1778
C20 C 0.3243(7) 1.0585(8) 0.2045(5)
H14 H 0.2625 1.0502 0.1970
O11 O 1.6707(9) 1.2303(10) 0.2647(7)
C21 C 1.6903(16) 1.3034(13) 0.241(2)
O12 O 0.7366(5) 0.8907(5) 0.4880(3)
H15 H 0.7711 0.9375 0.4889
H16 H 0.7489 0.8562 0.5177
O13 O 1.2396(6) 1.3603(7) 0.3721(4)
H17 H 1.2849 1.3248 0.3757
H18 H 1.2252 1.3806 0.4068
Zn1E Zn 0.24326(6) 0.65081(6) 0.34584(4)
Zn1E_2 Zn 1.24326(6) 0.65081(6) 0.34584(4)
Zn1G Zn 1.15081(6) 1.25674(6) 0.09584(4)
Zn2E Zn 0.71139(7) 0.17928(8) 0.46827(7)
Zn2G Zn 0.67928(8) 0.78861(7) 0.21827(7)
Zn2G_2 Zn 1.67928(8) 1.78861(7) 0.21827(7)
O1E O 0.3779(4) 0.6640(4) 0.3703(3)
O2E O 0.3276(4) 0.5251(4) 0.3759(3)
O3E O 0.5381(5) 0.2715(5) 0.4328(4)
O4E O 0.6848(5) 0.3065(5) 0.4482(4)
O5E O 0.7931(4) 0.6245(4) 0.4318(3)
O6E O 0.6915(4) 0.7307(5) 0.4222(4)
O6_2 O 0.1915(4) 0.7693(5) 0.3278(4)
O7G O 1.5491(4) 1.6953(4) 0.2603(3)
O8G O 1.6875(5) 1.6536(5) 0.2366(4)
O8E O 0.8464(5) 0.1875(5) 0.4866(4)
O9G O 1.1603(4) 1.3069(5) 0.1928(3)
O9E O 0.1931(5) 0.6603(4) 0.4428(3)
O9B O 0.6603(4) 0.1931(5) 0.5572(3)
O10G O 1.0823(5) 1.3797(6) 0.1231(3)
O10E O 0.1203(6) 0.5823(5) 0.3731(3)
N1G N 1.1037(5) 1.4111(6) 0.2822(3)
N1B N 0.6037(5) 0.0889(6) 0.4678(3)
H1G H 1.0545 1.3838 0.2983
H1B H 0.5545 0.1162 0.4517
H2G H 1.1180 1.4593 0.3054
H2B H 0.6180 0.0407 0.4446
C1E C 0.5513(5) 0.6092(5) 0.4040(4)
H3E H 0.5405 0.6704 0.3957
C2E C 0.4801(5) 0.5469(6) 0.3994(4)
C3E C 0.4975(6) 0.4571(6) 0.4095(4)
H4E H 0.4502 0.4152 0.4060
C4E C 0.5826(6) 0.4267(5) 0.4248(4)
C5E C 0.6565(6) 0.4906(5) 0.4270(4)
H5E H 0.7158 0.4700 0.4325
C6E C 0.6398(5) 0.5813(4) 0.4210(3)
C7E C 0.3898(6) 0.5801(7) 0.3812(4)
C8E C 0.6034(6) 0.3271(6) 0.4347(5)
C9E C 0.7104(6) 0.6506(6) 0.4267(4)
C11G C 1.5795(6) 1.5364(5) 0.2482(4)
C12G C 1.6457(7) 1.4675(7) 0.2493(5)
H7G H 1.7072 1.4832 0.2497
C14G C 1.6088(6) 1.6333(7) 0.2491(5)
C15G C 0.9522(6) 1.5410(6) 0.2558(3)
C16G C 0.9828(6) 1.4681(7) 0.2148(4)
H8G H 0.9740 1.4881 0.1736
H9G H 0.9450 1.4147 0.2211
C17G C 1.0825(6) 1.4416(6) 0.2235(4)
H10G H 1.1192 1.4962 0.2160
C18G C 1.1085(6) 1.3720(7) 0.1766(5)
N2G N 0.8860(7) 1.6197(7) 0.3245(5)
H11G H 0.8480 1.6363 0.3518
N3G N 0.9836(7) 1.6256(5) 0.2530(4)
H12G H 1.0241 1.6453 0.2282
C19G C 0.8971(8) 1.5338(7) 0.3055(4)
H13G H 0.8728 1.4811 0.3222
C20G C 0.9415(8) 1.6757(7) 0.2955(5)
H14G H 0.9498 1.7375 0.3030
O11G O 1.7697(10) 1.3293(9) 0.2353(7)
C21G C 1.6966(13) 1.3097(16) 0.259(2)
O12E O 0.2366(5) 0.6093(5) 0.2620(3)
H15E H 0.2711 0.5625 0.2611
H16E H 0.2489 0.6438 0.2323
O13E O 0.7396(6) 0.1397(7) 0.3779(4)
H17E H 0.7849 0.1752 0.3743
H18E H 0.7252 0.1194 0.3432
loop_
_geom_bond_atom_site_label_1
_geom_bond_atom_site_label_2
_geom_bond_site_symmetry_1
_geom_bond_site_symmetry_2
Zn1 O1 1_555 1_555
Zn2 O4 1_555 1_555
O1 C7 1_555 1_555
O2 C7 1_555 1_555
O3 C8 1_555 1_555
O4 C8 1_555 1_555
O5 C9 1_555 1_555
O6 C9 1_555 1_555
O7 C14 1_555 1_555
O8 Zn2 1_555 1_555
O9 Zn1 1_555 1_555
O10 Zn1 1_555 1_555
N1 H1 1_555 1_555
H2 N1 1_555 1_555
C1 H3 1_555 1_555
C2 C1 1_555 1_555
C3 C2 1_555 1_555
H4 C3 1_555 1_555
C4 C3 1_555 1_555
C5 C4 1_555 1_555
H5 C5 1_555 1_555
C6 C1 1_555 1_555
C7 C2 1_555 1_555
C8 C4 1_555 1_555
C9 C6 1_555 1_555
C10 H6 1_555 1_555
C11 C10 1_555 1_555
C12 C11 1_555 1_555
H7 C12 1_555 1_555
C13 C12 1_555 1_555
C14 O8 1_555 1_555
C15 C16 1_555 1_555
C16 H8 1_555 1_555
H9 C16 1_555 1_555
C17 N1 1_555 1_555
H10 C17 1_555 1_555
C18 O9 1_555 1_555
N2 H11 1_555 1_555
N3 C15 1_555 1_555
H12 N3 1_555 1_555
C19 C15 1_555 1_555
H13 C19 1_555 1_555
C20 N2 1_555 1_555
H14 C20 1_555 1_555
O11 C21 1_555 1_555
C21 C13 1_555 1_555
O12 Zn1 1_555 1_555
H15 O12 1_555 1_555
H16 O12 1_555 1_555
O13 Zn2 1_555 1_555
H17 O13 1_555 1_555
H18 O13 1_555 1_555
O14 H19 1_555 1_555
H20 O14 1_555 1_555
O15 H21 1_555 1_555
H22 O15 1_555 1_555
Zn1E O1E 1_555 1_555
Zn1E_2 O6 1_555 1_555
Zn1G O9G 1_555 1_555
Zn2E O4E 1_555 1_555
Zn2G O9 1_555 1_555
Zn2G_2 O8G 1_555 1_555
O1E C7E 1_555 1_555
O2E C7E 1_555 1_555
O3E C8E 1_555 1_555
O4E C8E 1_555 1_555
O5E C9E 1_555 1_555
O6E Zn1 1_555 1_555
O6_2 Zn1E 1_555 1_555
O7G C14G 1_555 1_555
O8G C14G 1_555 1_555
O8E Zn2E 1_555 1_555
O9G Zn2 1_555 1_555
O9E Zn1E 1_555 1_555
O9B Zn2E 1_555 1_555
O10G Zn1G 1_555 1_555
O10E Zn1E 1_555 1_555
N1G Zn2 1_555 1_555
N1B Zn2E 1_555 1_555
H1G N1G 1_555 1_555
H1B N1B 1_555 1_555
H2G N1G 1_555 1_555
H2B N1B 1_555 1_555
C1E H3E 1_555 1_555
C2E C1E 1_555 1_555
C3E C2E 1_555 1_555
H4E C3E 1_555 1_555
C4E C3E 1_555 1_555
C5E C4E 1_555 1_555
H5E C5E 1_555 1_555
C6E C1E 1_555 1_555
C7E C2E 1_555 1_555
C8E C4E 1_555 1_555
C9E O6E 1_555 1_555
C11G C10 1_555 1_555
C12G C13 1_555 1_555
H7G C12G 1_555 1_555
C14G C11G 1_555 1_555
C15G C16G 1_555 1_555
C16G H8G 1_555 1_555
H9G C16G 1_555 1_555
C17G N1G 1_555 1_555
H10G C17G 1_555 1_555
C18G O9G 1_555 1_555
N2G H11G 1_555 1_555
N3G C15G 1_555 1_555
H12G N3G 1_555 1_555
C19G C15G 1_555 1_555
H13G C19G 1_555 1_555
C20G N2G 1_555 1_555
H14G C20G 1_555 1_555
O11G C21 1_555 1_555
C21G C13 1_555 1_555
O12E Zn1E 1_555 1_555
H15E O12E 1_555 1_555
H16E O12E 1_555 1_555
O13E Zn2E 1_555 1_555
H17E O13E 1_555 1_555
H18E O13E 1_555 1_555
O10 C18 1_555 1_555
N1 Zn2G 1_555 1_555
C5 C6 1_555 1_555
C11 C14 1_555 1_555
C16 C17 1_555 1_555
C17 C18 1_555 1_555
N2 C19 1_555 1_555
N3 C20 1_555 1_555
O11 C21G 1_555 1_555
C21 C21G 1_555 1_555
O10G C18G 1_555 1_555
C5E C6E 1_555 1_555
C6E C9E 1_555 1_555
C11G C12G 1_555 1_555
C16G C17G 1_555 1_555
C17G C18G 1_555 1_555
N2G C19G 1_555 1_555
N3G C20G 1_555 1_555
O11G C21G 1_555 1_555

#END
