
#######################################################################
#
#                 Cambridge Crystallographic Data Centre
#                                CCDC 
#
#######################################################################
#
# If this CIF has been generated from an entry in the Cambridge 
# Structural Database, then it will include bibliographic, chemical, 
# crystal, experimental, refinement or atomic coordinate data resulting 
# from the CCDC's data processing and validation procedures.
#
#######################################################################

data_ZAWREW
_symmetry_cell_setting           monoclinic
_symmetry_space_group_name_H-M   'C 2'
_symmetry_Int_Tables_number      5
_space_group_name_Hall           'C 2y'
loop_
_symmetry_equiv_pos_site_id
_symmetry_equiv_pos_as_xyz
1 x,y,z
2 -x,y,-z
3 1/2+x,1/2+y,z
4 1/2-x,1/2+y,-z
_cell_length_a                   25.7330(6)
_cell_length_b                   13.5820(3)
_cell_length_c                   17.2990(4)
_cell_angle_alpha                90
_cell_angle_beta                 106.939(1)
_cell_angle_gamma                90
_cell_volume                     5783.79
loop_
_atom_site_label
_atom_site_type_symbol
_atom_site_fract_x
_atom_site_fract_y
_atom_site_fract_z
Zn1 Zn 0.74527(2) 0.86813(4) 0.49855(3)
Zn2 Zn 0.758030(19) 1.38706(3) 0.00218(3)
N1 N 0.74091(15) 0.9630(3) 0.5894(2)
N2 N 0.75305(15) 0.9669(3) 0.4112(2)
N3 N 0.75948(15) 1.2950(3) 0.0975(2)
O1 O 0.69144(14) 1.4578(2) -0.04392(18)
O2 O 0.82501(13) 1.4570(2) 0.05181(19)
C1 C 0.67394(18) 1.5061(3) 0.0072(3)
O3 O 0.69198(14) 1.4964(2) 0.0811(2)
C2 C 0.89833(19) 1.6529(3) -0.0120(3)
H1 H 0.8816 1.6497 -0.0686
O4 O 0.81909(14) 1.5098(3) -0.0717(2)
C3 C 0.62999(17) 1.5795(3) -0.0281(3)
C4 C 0.57770(18) 1.7203(3) -0.0090(3)
H2 H 0.5700 1.7688 0.0256
C5 C 0.93704(17) 1.7252(3) 0.0196(3)
H3 H 0.9458 1.7720 -0.0155
C6 C 0.84008(19) 1.5125(3) 0.0015(3)
C7 C 0.50928(17) 1.8895(4) -0.0936(3)
H4 H 0.5413 1.9085 -0.0529
C8 C 0.6167(2) 1.6510(3) 0.0214(3)
H5 H 0.6353 1.6512 0.0776
C9 C 0.90918(19) 1.5900(4) 0.1213(3)
H6 H 0.8996 1.5443 0.1564
C10 C 0.7972(2) 1.1048(3) 0.3707(3)
H7 H 0.8247 1.1538 0.3846
C11 C 0.88398(17) 1.5860(3) 0.0382(3)
C12 C 0.7246(2) 1.1213(3) 0.6353(3)
H8 H 0.7141 1.1878 0.6224
C13 C 1.00236(18) 1.8990(3) 0.1007(2)
H9 H 0.9700 1.9175 0.0605
C14 C 0.50535(18) 1.7937(3) -0.1248(3)
C15 C 0.76163(18) 1.0999(3) 0.2924(3)
C16 C 1.00591(18) 1.8050(3) 0.1348(3)
C17 C 0.4167(2) 1.8370(5) -0.2122(3)
H10 H 0.3848 1.8196 -0.2539
C18 C 0.5194(2) 0.5765(4) 0.3719(3)
C19 C 0.4682(2) 1.9565(4) -0.1201(3)
H11 H 0.4716 2.0209 -0.0979
C20 C 0.60197(18) 1.5799(4) -0.1098(3)
H12 H 0.6105 1.5324 -0.1446
C21 C 0.7917(2) 1.0372(4) 0.4272(3)
H13 H 0.8164 1.0403 0.4800
C22 C 0.7373(2) 1.0899(4) 0.7144(3)
C23 C 0.7161(2) 1.2168(3) 0.1844(3)
H14 H 0.6836 1.2057 0.1986
C24 C 0.56182(19) 1.6487(4) -0.1409(3)
H15 H 0.5427 1.6475 -0.1969
C25 C 0.5676(2) 0.5490(4) 0.3567(3)
H16 H 0.5708 0.4860 0.3347
C26 C 0.7272(2) 1.0574(4) 0.5749(3)
H17 H 0.7189 1.0812 0.5210
C27 C 1.0443(2) 1.9651(4) 0.1237(3)
H18 H 1.0410 2.0282 0.0991
C28 C 0.76308(18) 1.1705(3) 0.2269(3)
C29 C 0.75167(19) 0.9297(3) 0.6657(2)
H19 H 0.7607 0.8623 0.6764
C30 C 0.94861(19) 1.6617(4) 0.1524(3)
H20 H 0.9657 1.6638 0.2090
C31 C 1.0912(2) 1.9399(4) 0.1829(3)
H21 H 1.1206 1.9851 0.1986
C32 C 1.05354(18) 1.7820(4) 0.1963(3)
H22 H 1.0569 1.7197 0.2223
C33 C 0.45777(19) 1.7689(4) -0.1852(3)
H23 H 0.4537 1.7046 -0.2077
C34 C 0.74998(19) 0.9901(3) 0.7285(3)
H24 H 0.7575 0.9641 0.7816
C35 C 1.1060(2) 0.3817(5) 0.6597(4)
H25 H 1.1340 0.3340 0.6666
C36 C 1.0953(2) 1.8486(4) 0.2190(3)
H26 H 1.1274 1.8316 0.2602
C37 C 0.9763(2) 0.5905(4) 0.6240(3)
C38 C 0.8063(2) 1.2515(4) 0.1406(3)
H27 H 0.8385 1.2651 0.1262
C39 C 0.9260(2) 0.5589(4) 0.6299(3)
H28 H 0.9216 0.4935 0.6464
C40 C 0.80953(19) 1.1892(4) 0.2037(3)
H29 H 0.8431 1.1590 0.2315
C41 C 1.0230(2) 0.5196(4) 0.6390(3)
C42 C 0.4216(2) 1.9294(5) -0.1795(3)
H30 H 0.3927 1.9753 -0.1977
C43 C 0.54892(17) 1.7196(3) -0.0917(3)
C44 C 0.72281(19) 1.0274(4) 0.2761(3)
H31 H 0.6984 1.0215 0.2232
C45 C 0.4731(2) 0.5041(4) 0.3542(3)
C46 C 0.96337(17) 1.7293(3) 0.1037(3)
C47 C 0.6106(2) 0.6135(4) 0.3738(3)
H32 H 0.6429 0.5954 0.3613
C48 C 0.71542(19) 1.2791(3) 0.1212(3)
H33 H 0.6826 1.3118 0.0939
C49 C 0.8821(2) 0.6239(5) 0.6112(3)
H34 H 0.8479 0.6021 0.6152
C50 C 0.4196(2) 0.3773(5) 0.2699(3)
H35 H 0.4112 0.3396 0.2215
C51 C 0.8872(2) 0.7188(4) 0.5871(3)
C52 C 0.3894(2) 0.3647(5) 0.3227(3)
H36 H 0.3611 0.3172 0.3121
C53 C 0.9377(2) 0.7513(4) 0.5837(3)
H37 H 0.9421 0.8175 0.5689
C54 C 0.9814(2) 0.6875(4) 0.6017(3)
H38 H 1.0157 0.7104 0.5987
C55 C 0.71912(19) 0.9633(3) 0.3359(3)
H39 H 0.6915 0.9145 0.3233
C56 C 0.4009(2) 0.4225(5) 0.3920(3)
H40 H 0.3805 0.4134 0.4293
C57 C 1.0299(2) 0.4465(4) 0.6966(3)
H41 H 1.0055 0.4423 0.7286
C58 C 0.4621(2) 0.4439(4) 0.2860(3)
H42 H 0.4839 0.4487 0.2503
C59 C 0.4412(2) 0.4926(5) 0.4078(3)
H43 H 0.4476 0.5331 0.4544
C60 C 0.5161(2) 0.6694(4) 0.4049(3)
H44 H 0.4832 0.6893 0.4146
C61 C 1.0589(2) 0.5231(4) 0.5922(3)
H45 H 1.0554 0.5742 0.5535
C62 C 0.5598(2) 0.7323(5) 0.4235(3)
H46 H 0.5569 0.7949 0.4464
C63 C 1.0719(2) 0.3794(5) 0.7084(3)
H47 H 1.0773 0.3315 0.7500
C64 C 1.0995(2) 0.4534(5) 0.6012(4)
H48 H 1.1226 0.4550 0.5673
O5 O 0.8438(2) 0.8730(5) 0.5436(3)
N4 N 0.75402(16) 1.2885(3) 0.9113(2)
C65 C 0.7197(2) 1.1376(3) 0.8449(3)
H49 H 0.7004 1.0779 0.8451
O6 O 0.79320(17) 0.7541(3) 0.5596(4)
C66 C 0.7270(2) 1.2040(4) 0.9075(3)
H50 H 0.7120 1.1887 0.9501
C67 C 0.6081(2) 0.7049(5) 0.4091(3)
C68 C 0.8378(2) 0.7864(5) 0.5608(3)
C69 C 0.7407(2) 1.1592(3) 0.7821(3)
C70 C 0.6573(2) 0.7731(6) 0.4315(4)
C71 C 0.7680(2) 1.2485(4) 0.7843(3)
H51 H 0.7822 1.2668 0.7415
C72 C 0.7739(2) 1.3093(4) 0.8501(3)
H52 H 0.7931 1.3694 0.8519
O7 O 0.6605(3) 0.8362(6) 0.4767(4)
O8 O 0.6941(2) 0.7577(3) 0.4002(5)
Zn2_2 Zn 0.758030(19) 1.38706(3) 1.00218(3)
N4_2 N 0.75402(16) 1.2885(3) -0.0887(2)
loop_
_geom_bond_atom_site_label_1
_geom_bond_atom_site_label_2
_geom_bond_site_symmetry_1
_geom_bond_site_symmetry_2
Zn1 N1 1_555 1_555
Zn2 N3 1_555 1_555
N1 C26 1_555 1_555
N2 Zn1 1_555 1_555
N3 C38 1_555 1_555
O1 Zn2 1_555 1_555
O2 Zn2 1_555 1_555
C1 O1 1_555 1_555
O3 C1 1_555 1_555
C2 H1 1_555 1_555
O4 C6 1_555 1_555
C3 C1 1_555 1_555
C4 H2 1_555 1_555
C5 C2 1_555 1_555
H3 C5 1_555 1_555
C6 O2 1_555 1_555
C7 H4 1_555 1_555
C8 C3 1_555 1_555
H5 C8 1_555 1_555
C9 H6 1_555 1_555
C10 H7 1_555 1_555
C11 C2 1_555 1_555
C12 H8 1_555 1_555
C13 H9 1_555 1_555
C14 C7 1_555 1_555
C15 C10 1_555 1_555
C16 C13 1_555 1_555
C17 H10 1_555 1_555
C18 C25 1_555 1_555
C19 C7 1_555 1_555
H11 C19 1_555 1_555
C20 C3 1_555 1_555
H12 C20 1_555 1_555
C21 N2 1_555 1_555
H13 C21 1_555 1_555
C22 C12 1_555 1_555
C23 H14 1_555 1_555
C24 C20 1_555 1_555
H15 C24 1_555 1_555
C25 H16 1_555 1_555
C26 C12 1_555 1_555
H17 C26 1_555 1_555
C27 C13 1_555 1_555
H18 C27 1_555 1_555
C28 C15 1_555 1_555
C29 N1 1_555 1_555
H19 C29 1_555 1_555
C30 C9 1_555 1_555
H20 C30 1_555 1_555
C31 C27 1_555 1_555
H21 C31 1_555 1_555
C32 C16 1_555 1_555
H22 C32 1_555 1_555
C33 C14 1_555 1_555
H23 C33 1_555 1_555
C34 C22 1_555 1_555
H24 C34 1_555 1_555
C35 H25 1_555 1_555
C36 C31 1_555 1_555
H26 C36 1_555 1_555
C37 C39 1_555 1_555
C38 H27 1_555 1_555
C39 H28 1_555 1_555
C40 C28 1_555 1_555
H29 C40 1_555 1_555
C41 C37 1_555 1_555
C42 C17 1_555 1_555
H30 C42 1_555 1_555
C43 C4 1_555 1_555
C44 C15 1_555 1_555
H31 C44 1_555 1_555
C45 C18 1_555 1_555
C46 C5 1_555 1_555
C47 C25 1_555 1_555
H32 C47 1_555 1_555
C48 N3 1_555 1_555
H33 C48 1_555 1_555
C49 C39 1_555 1_555
H34 C49 1_555 1_555
C50 H35 1_555 1_555
C51 C49 1_555 1_555
C52 C50 1_555 1_555
H36 C52 1_555 1_555
C53 C51 1_555 1_555
H37 C53 1_555 1_555
C54 C37 1_555 1_555
H38 C54 1_555 1_555
C55 N2 1_555 1_555
H39 C55 1_555 1_555
C56 C52 1_555 1_555
H40 C56 1_555 1_555
C57 C41 1_555 1_555
H41 C57 1_555 1_555
C58 C45 1_555 1_555
H42 C58 1_555 1_555
C59 C45 1_555 1_555
H43 C59 1_555 1_555
C60 C18 1_555 1_555
H44 C60 1_555 1_555
C61 C41 1_555 1_555
H45 C61 1_555 1_555
C62 C60 1_555 1_555
H46 C62 1_555 1_555
C63 C35 1_555 1_555
H47 C63 1_555 1_555
C64 C35 1_555 1_555
H48 C64 1_555 1_555
O5 C68 1_555 1_555
N4 C66 1_555 1_555
C65 H49 1_555 1_555
O6 Zn1 1_555 1_555
C66 C65 1_555 1_555
H50 C66 1_555 1_555
C67 C47 1_555 1_555
C68 C51 1_555 1_555
C69 C22 1_555 1_555
C70 C67 1_555 1_555
C71 C69 1_555 1_555
H51 C71 1_555 1_555
C72 N4 1_555 1_555
H52 C72 1_555 1_555
O7 Zn1 1_555 1_555
O8 C70 1_555 1_555
Zn2_2 N4 1_555 1_555
N4_2 Zn2 1_555 1_555
C4 C8 1_555 1_555
C6 C11 1_555 1_555
C9 C11 1_555 1_555
C10 C21 1_555 1_555
C14 C43 1_555 1_555
C16 C46 1_555 1_555
C17 C33 1_555 1_555
C19 C42 1_555 1_555
C23 C28 1_555 1_555
C23 C48 1_555 1_555
C24 C43 1_555 1_555
C29 C34 1_555 1_555
C30 C46 1_555 1_555
C32 C36 1_555 1_555
C38 C40 1_555 1_555
C44 C55 1_555 1_555
C50 C58 1_555 1_555
C53 C54 1_555 1_555
C56 C59 1_555 1_555
C57 C63 1_555 1_555
C61 C64 1_555 1_555
C62 C67 1_555 1_555
C65 C69 1_555 1_555
O6 C68 1_555 1_555
C70 O7 1_555 1_555
C71 C72 1_555 1_555

#END
