
#######################################################################
#
#                 Cambridge Crystallographic Data Centre
#                                CCDC 
#
#######################################################################
#
# If this CIF has been generated from an entry in the Cambridge 
# Structural Database, then it will include bibliographic, chemical, 
# crystal, experimental, refinement or atomic coordinate data resulting 
# from the CCDC's data processing and validation procedures.
#
#######################################################################

data_ZAWRIA
_symmetry_cell_setting           monoclinic
_symmetry_space_group_name_H-M   'C 2/c'
_symmetry_Int_Tables_number      15
_space_group_name_Hall           '-C 2yn'
loop_
_symmetry_equiv_pos_site_id
_symmetry_equiv_pos_as_xyz
1 x,y,z
2 -x,y,1/2-z
3 1/2+x,1/2+y,z
4 1/2-x,1/2+y,1/2-z
5 -x,-y,-z
6 x,-y,1/2+z
7 1/2-x,1/2-y,-z
8 1/2+x,1/2-y,1/2+z
_cell_length_a                   26.7860(7)
_cell_length_b                   24.7060(7)
_cell_length_c                   7.4370(2)
_cell_angle_alpha                90
_cell_angle_beta                 104.858(2)
_cell_angle_gamma                90
_cell_volume                     4757.06
loop_
_atom_site_label
_atom_site_type_symbol
_atom_site_fract_x
_atom_site_fract_y
_atom_site_fract_z
I1 I 0.07442(2) 0.44540(2) 0.65318(7)
I2 I -0.32712(2) 0.05524(2) 0.86656(8)
Zn1 Zn -0.12374(3) 0.16631(3) 0.16341(10)
O1 O -0.0610(2) 0.2093(2) 0.2900(9)
O2 O -0.1257(2) 0.2619(3) 0.2763(8)
O3 O -0.17956(19) 0.1368(2) 0.2562(6)
O4 O -0.1175(2) 0.1062(2) 0.4850(7)
N1 N -0.0811(2) 0.1052(2) 0.0844(7)
N2 N -0.1680(2) 0.1958(2) -0.0862(7)
C1 C -0.0800(3) 0.2536(4) 0.3206(11)
C2 C -0.0420(3) 0.2966(4) 0.4128(11)
C3 C -0.0592(3) 0.3487(3) 0.3872(10)
H1 H -0.0941 0.3560 0.3232
C4 C -0.0251(3) 0.3916(3) 0.4558(10)
H2 H -0.0367 0.4280 0.4355
C5 C 0.0250(3) 0.3809(3) 0.5522(9)
C6 C 0.0419(3) 0.3284(3) 0.5808(12)
H3 H 0.0762 0.3209 0.6513
C7 C 0.0093(3) 0.2870(4) 0.5075(15)
H4 H 0.0219 0.2508 0.5212
C8 C -0.1638(3) 0.1125(3) 0.4115(9)
C9 C -0.2037(3) 0.0945(3) 0.5042(9)
C10 C -0.2555(3) 0.1059(3) 0.4338(10)
H5 H -0.2668 0.1225 0.3152
C11 C -0.2910(3) 0.0935(3) 0.5317(11)
H6 H -0.3264 0.1022 0.4819
C12 C -0.2749(3) 0.0680(3) 0.7051(10)
C13 C -0.2234(3) 0.0535(3) 0.7745(10)
H7 H -0.2127 0.0347 0.8894
C14 C -0.1877(3) 0.0666(3) 0.6749(9)
H8 H -0.1524 0.0568 0.7218
C15 C -0.0363(3) 0.1159(3) 0.0407(9)
H9 H -0.0264 0.1526 0.0345
C16 C -0.0046(2) 0.0765(3) 0.0052(8)
H10 H 0.0265 0.0861 -0.0261
C17 C -0.0175(2) 0.0222(2) 0.0144(7)
C18 C -0.0639(2) 0.0117(3) 0.0561(8)
H11 H -0.0749 -0.0247 0.0608
C19 C -0.0941(2) 0.0528(3) 0.0906(8)
H12 H -0.1255 0.0441 0.1203
C20 C -0.2186(3) 0.1998(3) -0.1091(9)
H13 H -0.2326 0.1878 -0.0110
C21 C -0.2523(3) 0.2205(3) -0.2688(10)
H14 H -0.2884 0.2218 -0.2787
C22 C -0.2329(3) 0.2394(2) -0.4138(8)
C23 C -0.1792(3) 0.2359(3) -0.3863(9)
H15 H -0.1634 0.2487 -0.4789
C24 C -0.1496(3) 0.2138(3) -0.2237(10)
H16 H -0.1134 0.2114 -0.2095
I1D I -0.07442(2) -0.44540(2) -0.65318(7)
I2D I 0.32712(2) -0.05524(2) -0.86656(8)
Zn1D Zn 0.12374(3) -0.16631(3) -0.16341(10)
Zn1F Zn -0.37626(3) 0.33369(3) -1.16341(10)
O1D O 0.0610(2) -0.2093(2) -0.2900(9)
O2D O 0.1257(2) -0.2619(3) -0.2763(8)
O3D O 0.17956(19) -0.1368(2) -0.2562(6)
O4D O 0.1175(2) -0.1062(2) -0.4850(7)
N1D N 0.0811(2) -0.1052(2) -0.0844(7)
N2F N -0.3320(2) 0.3042(2) -0.9138(7)
N2D N 0.1680(2) -0.1958(2) 0.0862(7)
C1D C 0.0800(3) -0.2536(4) -0.3206(11)
C2D C 0.0420(3) -0.2966(4) -0.4128(11)
C3D C 0.0592(3) -0.3487(3) -0.3872(10)
H1D H 0.0941 -0.3560 -0.3232
C4D C 0.0251(3) -0.3916(3) -0.4558(10)
H2D H 0.0367 -0.4280 -0.4355
C5D C -0.0250(3) -0.3809(3) -0.5522(9)
C6D C -0.0419(3) -0.3284(3) -0.5808(12)
H3D H -0.0762 -0.3209 -0.6513
C7D C -0.0093(3) -0.2870(4) -0.5075(15)
H4D H -0.0219 -0.2508 -0.5212
C8D C 0.1638(3) -0.1125(3) -0.4115(9)
C9D C 0.2037(3) -0.0945(3) -0.5042(9)
C10D C 0.2555(3) -0.1059(3) -0.4338(10)
H5D H 0.2668 -0.1225 -0.3152
C11D C 0.2910(3) -0.0935(3) -0.5317(11)
H6D H 0.3264 -0.1022 -0.4819
C12D C 0.2749(3) -0.0680(3) -0.7051(10)
C13D C 0.2234(3) -0.0535(3) -0.7745(10)
H7D H 0.2127 -0.0347 -0.8894
C14D C 0.1877(3) -0.0666(3) -0.6749(9)
H8D H 0.1524 -0.0568 -0.7218
C15D C 0.0363(3) -0.1159(3) -0.0407(9)
H9D H 0.0264 -0.1526 -0.0345
C16D C 0.0046(2) -0.0765(3) -0.0052(8)
H10D H -0.0265 -0.0861 0.0261
C17D C 0.0175(2) -0.0222(2) -0.0144(7)
C18D C 0.0639(2) -0.0117(3) -0.0561(8)
H11D H 0.0749 0.0247 -0.0608
C19D C 0.0941(2) -0.0528(3) -0.0906(8)
H12D H 0.1255 -0.0441 -0.1203
C20F C -0.2814(3) 0.3002(3) -0.8909(9)
H13F H -0.2674 0.3122 -0.9890
C21F C -0.2477(3) 0.2795(3) -0.7312(10)
H14F H -0.2116 0.2782 -0.7213
C22F C -0.2671(3) 0.2606(2) -0.5862(8)
C23F C -0.3208(3) 0.2641(3) -0.6137(9)
H15F H -0.3366 0.2513 -0.5211
C24F C -0.3504(3) 0.2862(3) -0.7763(10)
H16F H -0.3866 0.2886 -0.7905
loop_
_geom_bond_atom_site_label_1
_geom_bond_atom_site_label_2
_geom_bond_site_symmetry_1
_geom_bond_site_symmetry_2
I1 C5 1_555 1_555
I2 C12 1_555 1_555
Zn1 O1 1_555 1_555
O1 C1 1_555 1_555
O2 C1 1_555 1_555
O3 Zn1 1_555 1_555
O4 C8 1_555 1_555
N1 Zn1 1_555 1_555
N2 Zn1 1_555 1_555
C1 C2 1_555 1_555
C2 C3 1_555 1_555
C3 H1 1_555 1_555
C4 C3 1_555 1_555
H2 C4 1_555 1_555
C5 C4 1_555 1_555
C6 C5 1_555 1_555
H3 C6 1_555 1_555
C7 C2 1_555 1_555
H4 C7 1_555 1_555
C8 O3 1_555 1_555
C9 C8 1_555 1_555
C10 C9 1_555 1_555
H5 C10 1_555 1_555
C11 C10 1_555 1_555
H6 C11 1_555 1_555
C12 C11 1_555 1_555
C13 C12 1_555 1_555
H7 C13 1_555 1_555
C14 C9 1_555 1_555
H8 C14 1_555 1_555
C15 N1 1_555 1_555
H9 C15 1_555 1_555
C16 C15 1_555 1_555
H10 C16 1_555 1_555
C17 C16 1_555 1_555
C18 C17 1_555 1_555
H11 C18 1_555 1_555
C19 N1 1_555 1_555
H12 C19 1_555 1_555
C20 N2 1_555 1_555
H13 C20 1_555 1_555
C21 C20 1_555 1_555
H14 C21 1_555 1_555
C22 C21 1_555 1_555
C23 C22 1_555 1_555
H15 C23 1_555 1_555
C24 N2 1_555 1_555
H16 C24 1_555 1_555
I1D C5D 1_555 1_555
I2D C12D 1_555 1_555
Zn1D O1D 1_555 1_555
Zn1F N2F 1_555 1_555
O1D C1D 1_555 1_555
O2D C1D 1_555 1_555
O3D Zn1D 1_555 1_555
O4D C8D 1_555 1_555
N1D Zn1D 1_555 1_555
N2F C20F 1_555 1_555
N2D Zn1D 1_555 1_555
C1D C2D 1_555 1_555
C2D C3D 1_555 1_555
C3D H1D 1_555 1_555
C4D C3D 1_555 1_555
H2D C4D 1_555 1_555
C5D C4D 1_555 1_555
C6D C5D 1_555 1_555
H3D C6D 1_555 1_555
C7D C2D 1_555 1_555
H4D C7D 1_555 1_555
C8D O3D 1_555 1_555
C9D C8D 1_555 1_555
C10D C9D 1_555 1_555
H5D C10D 1_555 1_555
C11D C10D 1_555 1_555
H6D C11D 1_555 1_555
C12D C11D 1_555 1_555
C13D C12D 1_555 1_555
H7D C13D 1_555 1_555
C14D C9D 1_555 1_555
H8D C14D 1_555 1_555
C15D N1D 1_555 1_555
H9D C15D 1_555 1_555
C16D C15D 1_555 1_555
H10D C16D 1_555 1_555
C17D C17 1_555 1_555
C18D C17D 1_555 1_555
H11D C18D 1_555 1_555
C19D N1D 1_555 1_555
H12D C19D 1_555 1_555
C20F H13F 1_555 1_555
C21F C20F 1_555 1_555
H14F C21F 1_555 1_555
C22F C22 1_555 1_555
C23F C22F 1_555 1_555
H15F C23F 1_555 1_555
C24F N2F 1_555 1_555
H16F C24F 1_555 1_555
C6 C7 1_555 1_555
C13 C14 1_555 1_555
C18 C19 1_555 1_555
C23 C24 1_555 1_555
C6D C7D 1_555 1_555
C13D C14D 1_555 1_555
C16D C17D 1_555 1_555
C18D C19D 1_555 1_555
C21F C22F 1_555 1_555
C23F C24F 1_555 1_555

#END
