
#######################################################################
#
#                 Cambridge Crystallographic Data Centre
#                                CCDC 
#
#######################################################################
#
# If this CIF has been generated from an entry in the Cambridge 
# Structural Database, then it will include bibliographic, chemical, 
# crystal, experimental, refinement or atomic coordinate data resulting 
# from the CCDC's data processing and validation procedures.
#
#######################################################################

data_ZAWTOI
_symmetry_cell_setting           monoclinic
_symmetry_space_group_name_H-M   'P 21/n'
_symmetry_Int_Tables_number      14
_space_group_name_Hall           '-P 2yn'
loop_
_symmetry_equiv_pos_site_id
_symmetry_equiv_pos_as_xyz
1 x,y,z
2 1/2-x,1/2+y,1/2-z
3 -x,-y,-z
4 1/2+x,1/2-y,1/2+z
_cell_length_a                   6.3889(4)
_cell_length_b                   11.0946(7)
_cell_length_c                   16.6876(10)
_cell_angle_alpha                90
_cell_angle_beta                 95.6880(10)
_cell_angle_gamma                90
_cell_volume                     1177.03
loop_
_atom_site_label
_atom_site_type_symbol
_atom_site_fract_x
_atom_site_fract_y
_atom_site_fract_z
Zn1 Zn 0.65410(4) 0.14948(2) -0.003891(14)
N1 N 0.9163(3) 0.37746(16) -0.16043(11)
N2 N 0.8355(3) 0.25526(15) -0.06476(10)
O1 O 0.5136(2) 0.76275(15) -0.07105(9)
O2 O 0.1867(3) 0.74966(17) -0.12582(10)
O3 O 0.2809(2) 0.49919(13) -0.45962(9)
O4 O 0.0483(2) 0.61116(15) -0.40129(9)
C1 C 0.6929(3) 0.51589(18) -0.24702(13)
C2 C 0.6384(3) 0.59052(19) -0.18556(12)
H1 H 0.7294 0.5988 -0.1388
C3 C 0.4486(3) 0.65287(18) -0.19338(12)
C4 C 0.3187(3) 0.64293(18) -0.26449(12)
H2 H 0.1927 0.6855 -0.2705
C5 C 0.3726(3) 0.57096(18) -0.32666(12)
C6 C 0.5612(3) 0.50652(18) -0.31745(13)
H3 H 0.5981 0.4572 -0.3589
C7 C 0.8958(3) 0.4446(2) -0.23651(14)
H4 H 1.0140 0.4993 -0.2376
H5 H 0.8994 0.3886 -0.2810
C8 C 0.7771(3) 0.2986(2) -0.13682(13)
H6 H 0.6536 0.2769 -0.1677
C9 C 1.0255(4) 0.3080(2) -0.04158(15)
H7 H 1.1072 0.2937 0.0068
C10 C 1.0759(4) 0.3839(2) -0.09991(15)
H8 H 1.1960 0.4314 -0.0990
C11 C 0.3751(4) 0.7269(2) -0.12599(13)
C12 C 0.2237(3) 0.55933(19) -0.40195(12)
Zn1B Zn 0.34590(4) 0.85052(2) 0.003891(14)
Zn1C Zn 0.15410(4) 0.35052(2) -0.503891(14)
Zn1A Zn -0.15410(4) 0.64948(2) -0.496109(14)
O1B O 0.4864(2) 0.23725(15) 0.07105(9)
O2B O 0.8133(3) 0.25034(17) 0.12582(10)
O3C O 0.7809(2) 0.00081(13) 0.04038(9)
O4A O 0.4517(2) 0.11116(15) -0.09871(9)
loop_
_geom_bond_atom_site_label_1
_geom_bond_atom_site_label_2
_geom_bond_site_symmetry_1
_geom_bond_site_symmetry_2
Zn1 N2 1_555 1_555
N1 C7 1_555 1_555
N2 C8 1_555 1_555
O1 C11 1_555 1_555
O2 C11 1_555 1_555
O3 C12 1_555 1_555
O4 C12 1_555 1_555
C1 C2 1_555 1_555
C2 H1 1_555 1_555
C3 C2 1_555 1_555
C4 C3 1_555 1_555
H2 C4 1_555 1_555
C5 C4 1_555 1_555
C6 C1 1_555 1_555
H3 C6 1_555 1_555
C7 C1 1_555 1_555
H4 C7 1_555 1_555
H5 C7 1_555 1_555
C8 N1 1_555 1_555
H6 C8 1_555 1_555
C9 N2 1_555 1_555
H7 C9 1_555 1_555
C10 N1 1_555 1_555
H8 C10 1_555 1_555
C11 C3 1_555 1_555
C12 C5 1_555 1_555
Zn1B O1 1_555 1_555
Zn1C O3 1_555 1_555
Zn1A O4 1_555 1_555
O1B Zn1 1_555 1_555
O2B Zn1 1_555 1_555
O3C Zn1 1_555 1_555
O4A Zn1 1_555 1_555
O2 Zn1B 1_555 1_555
C5 C6 1_555 1_555
C9 C10 1_555 1_555

#END
