
#######################################################################
#
#                 Cambridge Crystallographic Data Centre
#                                CCDC 
#
#######################################################################
#
# If this CIF has been generated from an entry in the Cambridge 
# Structural Database, then it will include bibliographic, chemical, 
# crystal, experimental, refinement or atomic coordinate data resulting 
# from the CCDC's data processing and validation procedures.
#
#######################################################################

data_ZAWTAU
_symmetry_cell_setting           triclinic
_symmetry_space_group_name_H-M   'P -1'
_symmetry_Int_Tables_number      2
_space_group_name_Hall           '-P 1'
loop_
_symmetry_equiv_pos_site_id
_symmetry_equiv_pos_as_xyz
1 x,y,z
2 -x,-y,-z
_cell_length_a                   10.1534(13)
_cell_length_b                   10.1725(13)
_cell_length_c                   11.3570(14)
_cell_angle_alpha                114.9560(10)
_cell_angle_beta                 90.045(2)
_cell_angle_gamma                118.9180(10)
_cell_volume                     899.352
loop_
_atom_site_label
_atom_site_type_symbol
_atom_site_fract_x
_atom_site_fract_y
_atom_site_fract_z
Cd1 Cd 0.56147(2) 0.45916(3) 0.727211(19)
N1 N 1.0434(3) 0.6478(3) 0.6917(2)
N2 N 0.7970(3) 0.5640(4) 0.6760(3)
N3 N 0.1027(3) 0.1838(4) 0.8023(3)
O1 O 1.3762(3) 1.2805(3) 1.0972(2)
O2 O 1.4585(3) 1.3096(3) 1.2902(2)
O3 O 1.4364(4) 0.8015(3) 1.2896(2)
O4 O 1.3369(3) 0.5619(3) 1.1004(2)
O5 O 0.4316(4) 0.2662(4) 0.5051(2)
H1 H 0.3706 0.1581 0.4868
H2 H 0.4377 0.2847 0.4351
O6 O 0.3081(3) 0.3265(4) 0.7365(3)
C1 C 1.2579(3) 0.7733(4) 0.8838(3)
C2 C 1.2971(3) 0.9435(4) 0.9549(3)
H5 H 1.2815 0.9936 0.9087
C3 C 1.3588(3) 1.0381(4) 1.0925(3)
C4 C 1.3819(3) 0.9625(4) 1.1614(3)
H6 H 1.4233 1.0255 1.2541
C5 C 1.3433(3) 0.7938(4) 1.0926(3)
C6 C 1.2811(3) 0.6991(4) 0.9533(3)
H7 H 1.2552 0.5861 0.9071
C7 C 1.1955(4) 0.6754(4) 0.7332(3)
H8 H 1.1856 0.5652 0.6990
H9 H 1.2689 0.7382 0.6941
C8 C 0.9153(4) 0.5687(5) 0.7287(3)
H10 H 0.9106 0.5226 0.7851
C9 C 0.8532(4) 0.6433(5) 0.5998(3)
H11 H 0.7952 0.6583 0.5490
C10 C 1.0042(4) 0.6963(5) 0.6089(4)
H12 H 1.0689 0.7543 0.5672
C11 C 1.4008(4) 1.2208(4) 1.1649(3)
C12 C 1.3746(4) 0.7134(4) 1.1652(3)
C13 C 0.2523(4) 0.2709(4) 0.8139(3)
H13 H 0.3201 0.2920 0.8839
C14 C 0.0413(5) 0.1299(6) 0.9007(4)
H14 H 0.1255 0.1601 0.9656
H15 H -0.0307 0.0080 0.8559
H16 H -0.0113 0.1862 0.9455
C15 C -0.0104(5) 0.1479(8) 0.6960(5)
H17 H 0.0429 0.1917 0.6390
H18 H -0.0663 0.2021 0.7354
H19 H -0.0822 0.0263 0.6438
Cd1A Cd 1.43853(2) 1.54084(3) 1.272789(19)
Cd1A_2 Cd 1.43853(2) 0.54084(3) 1.272789(19)
O1A O 0.6238(3) 0.7195(3) 0.9028(2)
O2A O 0.5415(3) 0.6904(3) 0.7098(2)
O3A O 0.5636(4) 0.1985(3) 0.7104(2)
O4A O 0.6631(3) 0.4381(3) 0.8996(2)
O7 O 0.3002(4) 0.9325(4) 0.4975(3)
H3 H 0.3747 1.0065 0.5748
H4 H 0.3202 0.8578 0.4587
loop_
_geom_bond_atom_site_label_1
_geom_bond_atom_site_label_2
_geom_bond_site_symmetry_1
_geom_bond_site_symmetry_2
Cd1 N2 1_555 1_555
N1 C7 1_555 1_555
N2 C8 1_555 1_555
N3 C13 1_555 1_555
O1 C11 1_555 1_555
O2 C11 1_555 1_555
O3 C12 1_555 1_555
O4 C12 1_555 1_555
O5 Cd1 1_555 1_555
H1 O5 1_555 1_555
H2 O5 1_555 1_555
O6 Cd1 1_555 1_555
O7 H3 1_555 1_555
H4 O7 1_555 1_555
C1 C2 1_555 1_555
C2 H5 1_555 1_555
C3 C2 1_555 1_555
C4 C3 1_555 1_555
H6 C4 1_555 1_555
C5 C4 1_555 1_555
C6 C1 1_555 1_555
H7 C6 1_555 1_555
C7 C1 1_555 1_555
H8 C7 1_555 1_555
H9 C7 1_555 1_555
C8 N1 1_555 1_555
H10 C8 1_555 1_555
C9 N2 1_555 1_555
H11 C9 1_555 1_555
C10 N1 1_555 1_555
H12 C10 1_555 1_555
C11 C3 1_555 1_555
C12 C5 1_555 1_555
C13 O6 1_555 1_555
H13 C13 1_555 1_555
C14 N3 1_555 1_555
H14 C14 1_555 1_555
H15 C14 1_555 1_555
H16 C14 1_555 1_555
C15 N3 1_555 1_555
H17 C15 1_555 1_555
H18 C15 1_555 1_555
H19 C15 1_555 1_555
Cd1A O1 1_555 1_555
Cd1A_2 O3 1_555 1_555
O1A Cd1 1_555 1_555
O2A Cd1 1_555 1_555
O3A Cd1 1_555 1_555
O4A Cd1 1_555 1_555
O2 Cd1A 1_555 1_555
O4 Cd1A_2 1_555 1_555
C5 C6 1_555 1_555
C9 C10 1_555 1_555

#END
