
#######################################################################
#
#                 Cambridge Crystallographic Data Centre
#                                CCDC 
#
#######################################################################
#
# If this CIF has been generated from an entry in the Cambridge 
# Structural Database, then it will include bibliographic, chemical, 
# crystal, experimental, refinement or atomic coordinate data resulting 
# from the CCDC's data processing and validation procedures.
#
#######################################################################

data_ZAWVAW
_symmetry_cell_setting           triclinic
_symmetry_space_group_name_H-M   'P -1'
_symmetry_Int_Tables_number      2
_space_group_name_Hall           '-P 1'
loop_
_symmetry_equiv_pos_site_id
_symmetry_equiv_pos_as_xyz
1 x,y,z
2 -x,-y,-z
_cell_length_a                   7.2139(15)
_cell_length_b                   10.355(2)
_cell_length_c                   11.554(2)
_cell_angle_alpha                99.443(2)
_cell_angle_beta                 101.070(3)
_cell_angle_gamma                95.396(2)
_cell_volume                     828.491
loop_
_atom_site_label
_atom_site_type_symbol
_atom_site_fract_x
_atom_site_fract_y
_atom_site_fract_z
C1 C 0.0546(16) 0.6437(11) -0.0467(11)
H1 H 0.1770 0.6493 -0.0616
C2 C -0.0949(16) 0.5995(10) -0.1458(9)
C3 C -0.2793(14) 0.5927(10) -0.1227(9)
C4 C -0.2982(15) 0.6275(10) -0.0033(10)
H2 H -0.4187 0.6223 0.0146
C5 C -0.1353(14) 0.6705(10) 0.0899(10)
H3 H -0.1497 0.6936 0.1686
C6 C -0.0621(14) 0.5603(9) -0.2704(10)
C7 C -0.4552(14) 0.5455(10) -0.2215(9)
C8 C 0.6797(15) 0.9349(10) 0.3186(9)
H4 H 0.7295 0.8630 0.2822
C9 C 0.8017(15) 1.0442(10) 0.3885(9)
H5 H 0.9326 1.0439 0.3974
C10 C 0.7357(13) 1.1510(9) 0.4438(9)
C11 C 0.5415(15) 1.1497(11) 0.4241(9)
C12 C 0.4256(15) 1.0379(10) 0.3567(10)
H6 H 0.2945 1.0359 0.3480
C13 C 0.8757(15) 1.2564(10) 0.5276(8)
C14 C 0.4455(13) 1.2596(11) 0.4828(9)
N1 N 0.0403(12) 0.6785(8) 0.0660(8)
N2 N 0.4914(12) 0.9335(8) 0.3040(7)
O1 O 0.0996(9) 0.5262(7) -0.2755(7)
O2 O -0.1941(10) 0.5639(7) -0.3533(6)
O3 O -0.5165(10) 0.4247(7) -0.2536(7)
O4 O -0.5361(10) 0.6321(7) -0.2640(6)
O5 O 0.9385(11) 1.2355(7) 0.6302(6)
O6 O 0.9317(11) 1.3605(6) 0.4895(6)
O7 O 0.5378(11) 1.3750(7) 0.5094(7)
O8 O 0.2800(9) 1.2398(7) 0.5000(6)
Ag1 Ag 0.29189(12) 0.75593(8) 0.20854(7)
Tb1 Tb 0.25642(7) 0.47473(5) -0.43347(5)
O2A O 0.1941(10) 0.4361(7) -0.6467(6)
O3_2 O 0.4835(10) 0.4247(7) -0.2536(7)
O4_2 O 0.4639(10) 0.6321(7) -0.2640(6)
O6_2 O -0.0683(11) 0.3605(6) -0.5105(6)
O6A O 0.0683(11) 0.6395(6) -0.4895(6)
O7_2 O 0.5378(11) 0.3750(7) -0.4906(7)
O7A O 0.4622(11) 0.6250(7) -0.5094(7)
O8_2 O 0.2800(9) 0.2398(7) -0.5000(6)
Tb1A Tb -0.25642(7) 0.52527(5) -0.56653(5)
Tb1_2 Tb -0.74358(7) 0.47473(5) -0.43347(5)
Tb1_3 Tb 1.25642(7) 1.47473(5) 0.56653(5)
Tb1A_2 Tb 0.74358(7) 1.52527(5) 0.43347(5)
Tb1_4 Tb 0.25642(7) 1.47473(5) 0.56653(5)
O9 O 0.190(3) 0.0163(18) -0.0225(17)
H7 H 0.2890 0.0513 0.0297
H8 H 0.0917 0.0260 0.0073
loop_
_geom_bond_atom_site_label_1
_geom_bond_atom_site_label_2
_geom_bond_site_symmetry_1
_geom_bond_site_symmetry_2
C1 H1 1_555 1_555
C2 C1 1_555 1_555
C3 C2 1_555 1_555
C4 C3 1_555 1_555
H2 C4 1_555 1_555
C5 C4 1_555 1_555
H3 C5 1_555 1_555
C6 C2 1_555 1_555
C7 C3 1_555 1_555
C8 H4 1_555 1_555
C9 C8 1_555 1_555
H5 C9 1_555 1_555
C10 C9 1_555 1_555
C11 C10 1_555 1_555
C12 C11 1_555 1_555
H6 C12 1_555 1_555
C13 C10 1_555 1_555
C14 C11 1_555 1_555
N1 C1 1_555 1_555
N2 C8 1_555 1_555
O1 C6 1_555 1_555
O2 C6 1_555 1_555
O3 C7 1_555 1_555
O4 C7 1_555 1_555
O5 C13 1_555 1_555
O6 C13 1_555 1_555
O7 C14 1_555 1_555
O8 C14 1_555 1_555
Ag1 N1 1_555 1_555
Tb1 O1 1_555 1_555
O9 H7 1_555 1_555
H8 O9 1_555 1_555
O2A Tb1 1_555 1_555
O3_2 Tb1 1_555 1_555
O4_2 Tb1 1_555 1_555
O6_2 Tb1 1_555 1_555
O6A Tb1 1_555 1_555
O7_2 Tb1 1_555 1_555
O7A Tb1 1_555 1_555
O8_2 Tb1 1_555 1_555
Tb1A O2 1_555 1_555
Tb1_2 O3 1_555 1_555
Tb1_3 O6 1_555 1_555
Tb1A_2 O6 1_555 1_555
Tb1_4 O7 1_555 1_555
C5 N1 1_555 1_555
C12 N2 1_555 1_555
N2 Ag1 1_555 1_555
O4 Tb1_2 1_555 1_555
O7 Tb1A_2 1_555 1_555
O8 Tb1_4 1_555 1_555
O6_2 Tb1A 1_555 1_555
O6A Tb1A 1_555 1_555

#END
