
#######################################################################
#
#                 Cambridge Crystallographic Data Centre
#                                CCDC 
#
#######################################################################
#
# If this CIF has been generated from an entry in the Cambridge 
# Structural Database, then it will include bibliographic, chemical, 
# crystal, experimental, refinement or atomic coordinate data resulting 
# from the CCDC's data processing and validation procedures.
#
#######################################################################

data_ZAWVEA
_symmetry_cell_setting           triclinic
_symmetry_space_group_name_H-M   'P -1'
_symmetry_Int_Tables_number      2
_space_group_name_Hall           '-P 1'
loop_
_symmetry_equiv_pos_site_id
_symmetry_equiv_pos_as_xyz
1 x,y,z
2 -x,-y,-z
_cell_length_a                   7.2745(9)
_cell_length_b                   10.4148(13)
_cell_length_c                   11.5977(14)
_cell_angle_alpha                99.777(2)
_cell_angle_beta                 100.9500(10)
_cell_angle_gamma                95.779(2)
_cell_volume                     842.079
loop_
_atom_site_label
_atom_site_type_symbol
_atom_site_fract_x
_atom_site_fract_y
_atom_site_fract_z
Sm1 Sm 0.75668(4) 0.97349(3) 0.06742(2)
N1 N 1.5417(7) 1.1798(5) 0.5658(4)
N2 N -0.0098(7) 0.4288(5) -0.1947(5)
O1 O 0.4386(6) 0.7353(5) 0.1281(4)
O2 O 0.4297(5) 0.8582(4) -0.0133(4)
O3 O 0.0396(5) 0.8732(4) 0.0057(3)
O4 O -0.2165(5) 0.7366(4) -0.0030(4)
O5 O 0.9655(6) 1.1334(4) 0.2402(4)
O6 O 0.9884(6) 0.9254(4) 0.2513(4)
O7 O 1.3063(5) 1.0635(4) 0.1485(3)
O8 O 1.5981(6) 1.0273(4) 0.2265(4)
C1 C 0.3774(8) 0.7574(6) 0.0280(5)
C2 C 0.2341(8) 0.6494(6) -0.0570(5)
C3 C 0.3036(9) 0.5416(6) -0.1117(6)
H5 H 0.4333 0.5414 -0.1030
C4 C 0.1805(9) 0.4349(7) -0.1791(6)
H6 H 0.2299 0.3637 -0.2157
C5 C -0.0771(8) 0.5337(6) -0.1428(5)
H7 H -0.2074 0.5310 -0.1525
C6 C 0.0383(8) 0.6473(6) -0.0748(5)
C7 C -0.0526(8) 0.7583(6) -0.0208(5)
C8 C 1.0476(8) 1.0467(7) 0.2831(5)
C9 C 1.2218(8) 1.0914(6) 0.3822(5)
C10 C 1.2050(9) 1.1274(6) 0.4994(5)
H8 H 1.0864 1.1223 0.5186
C11 C 1.3670(9) 1.1713(6) 0.5888(5)
H9 H 1.3539 1.1957 0.6674
C12 C 1.5556(8) 1.1435(6) 0.4519(5)
H10 H 1.6756 1.1485 0.4348
C13 C 1.4023(8) 1.0992(6) 0.3584(5)
C14 C 1.4395(8) 1.0609(6) 0.2327(5)
Ag1 Ag 1.79070(8) 1.25493(6) 0.70886(5)
Sm1A Sm 0.24332(4) 1.02651(3) -0.06742(2)
Sm1_2 Sm -0.24332(4) 0.97349(3) 0.06742(2)
Sm1A_2 Sm 1.24332(4) 1.02651(3) -0.06742(2)
Sm1_3 Sm 1.75668(4) 0.97349(3) 0.06742(2)
N2_2 N 1.9902(7) 1.4288(5) 0.8053(5)
O2A O 0.5703(5) 1.1418(4) 0.0133(4)
O3_2 O 1.0396(5) 0.8732(4) 0.0057(3)
O3A O 0.9604(5) 1.1268(4) -0.0057(3)
O4_2 O 0.7835(5) 0.7366(4) -0.0030(4)
O7A O 0.6937(5) 0.9365(4) -0.1485(3)
O8_2 O 0.5981(6) 1.0273(4) 0.2265(4)
Ag1_2 Ag -0.20930(8) 0.25493(6) -0.29114(5)
O9 O 0.069(2) 0.6388(12) 0.5915(11)
H1 H 0.1183 0.6655 0.5375
H2 H 0.1542 0.6097 0.6371
O10 O 0.311(3) 0.4924(16) 0.517(2)
H3 H 0.2008 0.4930 0.4771
H4 H 0.3245 0.4129 0.5208
loop_
_geom_bond_atom_site_label_1
_geom_bond_atom_site_label_2
_geom_bond_site_symmetry_1
_geom_bond_site_symmetry_2
Sm1 O2 1_555 1_555
N1 C11 1_555 1_555
N2 C4 1_555 1_555
O1 C1 1_555 1_555
O2 C1 1_555 1_555
O3 C7 1_555 1_555
O4 C7 1_555 1_555
O5 Sm1 1_555 1_555
O6 Sm1 1_555 1_555
O7 C14 1_555 1_555
O8 C14 1_555 1_555
O9 H1 1_555 1_555
H2 O9 1_555 1_555
O10 H3 1_555 1_555
H4 O10 1_555 1_555
C1 C2 1_555 1_555
C2 C3 1_555 1_555
C3 H5 1_555 1_555
C4 C3 1_555 1_555
H6 C4 1_555 1_555
C5 N2 1_555 1_555
H7 C5 1_555 1_555
C6 C2 1_555 1_555
C7 C6 1_555 1_555
C8 O5 1_555 1_555
C9 C8 1_555 1_555
C10 C9 1_555 1_555
H8 C10 1_555 1_555
C11 C10 1_555 1_555
H9 C11 1_555 1_555
C12 N1 1_555 1_555
H10 C12 1_555 1_555
C13 C9 1_555 1_555
C14 C13 1_555 1_555
Ag1 N1 1_555 1_555
Sm1A O2 1_555 1_555
Sm1_2 O3 1_555 1_555
Sm1A_2 O7 1_555 1_555
Sm1_3 O8 1_555 1_555
N2_2 Ag1 1_555 1_555
O2A Sm1 1_555 1_555
O3_2 Sm1 1_555 1_555
O3A Sm1 1_555 1_555
O4_2 Sm1 1_555 1_555
O7A Sm1 1_555 1_555
O8_2 Sm1 1_555 1_555
Ag1_2 N2 1_555 1_555
O3 Sm1A 1_555 1_555
O4 Sm1_2 1_555 1_555
O6 C8 1_555 1_555
C5 C6 1_555 1_555
C12 C13 1_555 1_555
Sm1A O2A 1_555 1_555
Sm1A_2 O3_2 1_555 1_555
Sm1A_2 O3A 1_555 1_555

#END
