
#######################################################################
#
#                 Cambridge Crystallographic Data Centre
#                                CCDC 
#
#######################################################################
#
# If this CIF has been generated from an entry in the Cambridge 
# Structural Database, then it will include bibliographic, chemical, 
# crystal, experimental, refinement or atomic coordinate data resulting 
# from the CCDC's data processing and validation procedures.
#
#######################################################################

data_ZAXKUG01
_symmetry_cell_setting           monoclinic
_symmetry_space_group_name_H-M   'C 2/c'
_symmetry_Int_Tables_number      15
_space_group_name_Hall           '-C 2yn'
loop_
_symmetry_equiv_pos_site_id
_symmetry_equiv_pos_as_xyz
1 x,y,z
2 -x,y,1/2-z
3 1/2+x,1/2+y,z
4 1/2-x,1/2+y,1/2-z
5 -x,-y,-z
6 x,-y,1/2+z
7 1/2-x,1/2-y,-z
8 1/2+x,1/2-y,1/2+z
_cell_length_a                   10.1946(17)
_cell_length_b                   17.174(3)
_cell_length_c                   22.850(4)
_cell_angle_alpha                90
_cell_angle_beta                 90.227(4)
_cell_angle_gamma                90
_cell_volume                     4000.59
loop_
_atom_site_label
_atom_site_type_symbol
_atom_site_fract_x
_atom_site_fract_y
_atom_site_fract_z
O8 O 0.6664(4) 0.2187(2) 0.09592(17)
H11 H 0.7056 0.1944 0.0687
H12 H 0.6315 0.1857 0.1188
Zn1 Zn -0.05602(5) -0.12271(3) 0.01318(3)
Zn2 Zn 0.5000 0.17576(5) 0.2500
O1 O 0.5450(3) 0.1206(2) 0.17594(16)
O2 O -0.0575(3) -0.2271(2) 0.05076(16)
H1 H -0.0992 -0.2638 0.0342
H2 H 0.0131 -0.2455 0.0649
O3 O 0.3419(4) 0.0876(3) 0.1955(2)
O4 O 0.0936(3) -0.0687(2) 0.04989(17)
O5 O 0.2029(3) -0.1521(2) -0.00550(17)
O6 O 0.6933(3) -0.1589(2) 0.00218(18)
O7 O 0.7968(3) -0.06444(19) 0.04844(15)
N1 N -0.0437(4) -0.1281(3) -0.07457(19)
N2 N 0.0336(5) -0.1105(3) -0.1622(2)
N3 N -0.0362(7) -0.1776(4) -0.1645(3)
N4 N 0.3565(6) 0.2569(3) 0.2388(3)
N5 N 0.2029(10) 0.3402(6) 0.2527(4)
N6 N 0.2445(12) 0.3532(6) 0.1951(5)
C1 C 0.4405(5) 0.0813(3) 0.1656(2)
C2 C 0.2003(4) -0.0989(3) 0.0304(2)
C3 C 0.6917(4) -0.0998(3) 0.0333(2)
C4 C 0.4444(4) 0.0230(3) 0.1166(2)
C5 C 0.3272(4) -0.0067(3) 0.0950(2)
H3 H 0.2481 0.0137 0.1081
C6 C 0.3263(4) -0.0662(3) 0.0543(2)
C7 C 0.4461(4) -0.0970(3) 0.0358(2)
H4 H 0.4464 -0.1384 0.0097
C8 C 0.5646(4) -0.0670(3) 0.0557(2)
C9 C 0.5634(4) -0.0061(3) 0.0955(2)
H5 H 0.6421 0.0156 0.1082
C10 C 0.0280(5) -0.0825(3) -0.1087(2)
H6 H 0.0689 -0.0369 -0.0964
C11 C -0.0803(8) -0.1851(4) -0.1114(3)
H7 H -0.1328 -0.2266 -0.0999
C12 C 0.0958(7) -0.0758(5) -0.2136(3)
H8 H 0.1341 -0.1168 -0.2372
H9 H 0.1660 -0.0416 -0.2009
C13 C 0.0000 -0.0306(7) -0.2500
H10 H -0.0497 0.0029 -0.2240
C14 C 0.2713(10) 0.2821(7) 0.2753(4)
C15 C 0.3376(13) 0.3006(7) 0.1900(5)
C16 C 0.068(2) 0.3706(11) 0.2861(9)
C17 C 0.0000 0.4125(13) 0.2500
N1A N 0.0437(4) -0.1281(3) -0.42543(19)
N2A N -0.0336(5) -0.1105(3) -0.3378(2)
N3A N 0.0362(7) -0.1776(4) -0.3355(3)
C10A C -0.0280(5) -0.0825(3) -0.3913(2)
H6A H -0.0689 -0.0369 -0.4036
C11A C 0.0803(8) -0.1851(4) -0.3886(3)
H7A H 0.1328 -0.2266 -0.4001
C12A C -0.0958(7) -0.0758(5) -0.2864(3)
H8A H -0.1341 -0.1168 -0.2628
H9A H -0.1660 -0.0416 -0.2991
H10A H 0.0497 0.0029 -0.2760
N4A N -0.3565(6) 0.2569(3) 0.2612(3)
N5A N -0.2029(10) 0.3402(6) 0.2473(4)
N6A N -0.2445(12) 0.3532(6) 0.3049(5)
C14A C -0.2713(10) 0.2821(7) 0.2247(4)
C15A C -0.3376(13) 0.3006(7) 0.3100(5)
C16A C -0.068(2) 0.3706(11) 0.2139(9)
Zn1A Zn 0.05602(5) -0.12271(3) -0.51318(3)
O1A O -0.5450(3) 0.1206(2) -0.67594(16)
O2A O 0.0575(3) -0.2271(2) -0.55076(16)
H1A H 0.0992 -0.2638 -0.5342
H2A H -0.0131 -0.2455 -0.5649
O3A O -0.3419(4) 0.0876(3) -0.6955(2)
O4A O -0.0936(3) -0.0687(2) -0.54989(17)
O5A O -0.2029(3) -0.1521(2) -0.49450(17)
O6A O -0.6933(3) -0.1589(2) -0.50218(18)
O7A O -0.7968(3) -0.06444(19) -0.54844(15)
C1A C -0.4405(5) 0.0813(3) -0.6656(2)
C2A C -0.2003(4) -0.0989(3) -0.5304(2)
C3A C -0.6917(4) -0.0998(3) -0.5333(2)
C4A C -0.4444(4) 0.0230(3) -0.6166(2)
C5A C -0.3272(4) -0.0067(3) -0.5950(2)
H3A H -0.2481 0.0137 -0.6081
C6A C -0.3263(4) -0.0662(3) -0.5543(2)
C7A C -0.4461(4) -0.0970(3) -0.5358(2)
H4A H -0.4464 -0.1384 -0.5097
C8A C -0.5646(4) -0.0670(3) -0.5557(2)
C9A C -0.5634(4) -0.0061(3) -0.5955(2)
H5A H -0.6421 0.0156 -0.6082
Zn1_2 Zn 0.94398(5) -0.12271(3) 0.01318(3)
Zn1A_2 Zn -0.94398(5) -0.12271(3) -0.51318(3)
Zn2_2 Zn -0.5000 0.17576(5) -0.7500
Zn2_3 Zn -0.5000 0.17576(5) 0.2500
O1A_2 O 0.4550(3) 0.1206(2) 0.32406(16)
O3A_2 O 0.6581(4) 0.0876(3) 0.3045(2)
O7_2 O -0.2032(3) -0.06444(19) 0.04844(15)
O7A_2 O 0.2032(3) -0.06444(19) -0.54844(15)
N4A_2 N 0.6435(6) 0.2569(3) 0.2612(3)
C18? C 0.0000 0.313(7) 0.2500
C19? C 0.143(3) 0.4195(18) 0.2616(13)
H13? H -0.0497 0.0029 -0.2240
loop_
_geom_bond_atom_site_label_1
_geom_bond_atom_site_label_2
_geom_bond_site_symmetry_1
_geom_bond_site_symmetry_2
Zn1 O2 1_555 1_555
Zn2 O1 1_555 1_555
O1 C1 1_555 1_555
O2 H1 1_555 1_555
H2 O2 1_555 1_555
O3 Zn2 1_555 1_555
O4 Zn1 1_555 1_555
O5 C2 1_555 1_555
O6 C3 1_555 1_555
O7 C3 1_555 1_555
N1 Zn1 1_555 1_555
N2 N3 1_555 1_555
N3 C11 1_555 1_555
N4 Zn2 1_555 1_555
N5 N6 1_555 1_555
N6 C15 1_555 1_555
C1 O3 1_555 1_555
C2 O4 1_555 1_555
C3 C8 1_555 1_555
C4 C1 1_555 1_555
C5 C4 1_555 1_555
H3 C5 1_555 1_555
C6 C2 1_555 1_555
C7 C6 1_555 1_555
H4 C7 1_555 1_555
C8 C7 1_555 1_555
C9 C4 1_555 1_555
H5 C9 1_555 1_555
C10 N1 1_555 1_555
H6 C10 1_555 1_555
C11 N1 1_555 1_555
H7 C11 1_555 1_555
C12 N2 1_555 1_555
H8 C12 1_555 1_555
H9 C12 1_555 1_555
C13 C12 1_555 1_555
H10 C13 1_555 1_555
C14 N4 1_555 1_555
C15 N4 1_555 1_555
C16 N5 1_555 1_555
C17 C16 1_555 1_555
O8 H11 1_555 1_555
H12 O8 1_555 1_555
N1A C10A 1_555 1_555
N2A N3A 1_555 1_555
N3A C11A 1_555 1_555
C10A N2A 1_555 1_555
H6A C10A 1_555 1_555
C11A N1A 1_555 1_555
H7A C11A 1_555 1_555
C12A C13 1_555 1_555
H8A C12A 1_555 1_555
H9A C12A 1_555 1_555
H10A C13 1_555 1_555
N4A C14A 1_555 1_555
N5A N6A 1_555 1_555
N6A C15A 1_555 1_555
C14A N5A 1_555 1_555
C15A N4A 1_555 1_555
C16A C17 1_555 1_555
Zn1A N1A 1_555 1_555
O1A C1A 1_555 1_555
O2A Zn1A 1_555 1_555
H1A O2A 1_555 1_555
H2A O2A 1_555 1_555
O3A C1A 1_555 1_555
O4A Zn1A 1_555 1_555
O5A C2A 1_555 1_555
O6A C3A 1_555 1_555
O7A C3A 1_555 1_555
C1A C4A 1_555 1_555
C2A O4A 1_555 1_555
C3A C8A 1_555 1_555
C4A C5A 1_555 1_555
C5A H3A 1_555 1_555
C6A C2A 1_555 1_555
C7A C6A 1_555 1_555
H4A C7A 1_555 1_555
C8A C7A 1_555 1_555
C9A C4A 1_555 1_555
H5A C9A 1_555 1_555
Zn1_2 O7 1_555 1_555
Zn1A_2 O7A 1_555 1_555
Zn2_2 O1A 1_555 1_555
Zn2_3 N4A 1_555 1_555
O1A_2 Zn2 1_555 1_555
O3A_2 Zn2 1_555 1_555
O7_2 Zn1 1_555 1_555
O7A_2 Zn1A 1_555 1_555
N4A_2 Zn2 1_555 1_555
N2 C10 1_555 1_555
N5 C14 1_555 1_555
C5 C6 1_555 1_555
C8 C9 1_555 1_555
N2A C12A 1_555 1_555
N5A C16A 1_555 1_555
O3A Zn2_2 1_555 1_555
C5A C6A 1_555 1_555
C8A C9A 1_555 1_555

#END
