
#######################################################################
#
#                 Cambridge Crystallographic Data Centre
#                                CCDC 
#
#######################################################################
#
# If this CIF has been generated from an entry in the Cambridge 
# Structural Database, then it will include bibliographic, chemical, 
# crystal, experimental, refinement or atomic coordinate data resulting 
# from the CCDC's data processing and validation procedures.
#
#######################################################################

data_ZAXKOA
_symmetry_cell_setting           triclinic
_symmetry_space_group_name_H-M   'P -1'
_symmetry_Int_Tables_number      2
_space_group_name_Hall           '-P 1'
loop_
_symmetry_equiv_pos_site_id
_symmetry_equiv_pos_as_xyz
1 x,y,z
2 -x,-y,-z
_cell_length_a                   10.019(2)
_cell_length_b                   10.1845(19)
_cell_length_c                   11.211(2)
_cell_angle_alpha                96.457(16)
_cell_angle_beta                 112.707(19)
_cell_angle_gamma                116.611(19)
_cell_volume                     885.224
loop_
_atom_site_label
_atom_site_type_symbol
_atom_site_fract_x
_atom_site_fract_y
_atom_site_fract_z
Zn1 Zn 0.37475(5) 0.40258(4) 0.17731(4)
C1 C 0.4569(4) 0.1989(3) 0.1774(3)
C2 C 0.5315(4) 0.1006(3) 0.1748(3)
C3 C 0.6780(4) 0.1569(3) 0.1635(3)
H1 H 0.7320 0.2570 0.1599
C4 C 0.7451(4) 0.0645(3) 0.1575(3)
C5 C 0.6679(4) -0.0819(3) 0.1673(3)
H2 H 0.7149 -0.1425 0.1666
C6 C 0.5202(4) -0.1389(3) 0.1784(3)
C7 C 0.4523(4) -0.0481(3) 0.1825(3)
H3 H 0.3538 -0.0860 0.1904
C8 C 0.4286(4) -0.3029(3) 0.1787(3)
C9 C 0.2358(4) 0.2823(4) 0.3607(3)
H4 H 0.2092 0.1824 0.3214
C10 C 0.3227(4) 0.5217(4) 0.4108(4)
H5 H 0.3722 0.6241 0.4114
C11 C 0.1134(5) 0.2185(4) 0.5167(4)
H6 H 0.1952 0.2416 0.6105
H7 H 0.0645 0.1106 0.4648
C12 C -0.0290(4) 0.2374(4) 0.5173(3)
H8 H -0.0766 0.2646 0.4380
H9 H -0.1197 0.1377 0.5076
C13 C 0.0282(5) 0.3592(4) 0.6447(4)
H10 H 0.1285 0.4559 0.6616
H11 H -0.0619 0.3791 0.6303
C14 C 0.2092(4) 0.3929(4) 0.8895(3)
H12 H 0.3048 0.4897 0.9120
C15 C 0.0337(4) 0.1835(4) 0.8960(4)
H13 H -0.0138 0.1053 0.9292
N1 N 0.3125(3) 0.4054(3) 0.3273(3)
N2 N 0.2030(3) 0.3211(3) 0.4564(3)
N3 N 0.2564(4) 0.4762(3) 0.4900(3)
N4 N 0.0697(3) 0.3115(3) 0.7662(3)
N5 N -0.0457(4) 0.1754(3) 0.7693(3)
N6 N 0.1922(3) 0.3162(3) 0.9755(3)
O1 O 0.5348(3) 0.3367(2) 0.1727(2)
O2 O 0.3210(3) 0.1464(2) 0.1819(3)
O3 O 0.2765(3) -0.3647(2) 0.1537(2)
O4 O 0.5105(3) -0.3725(2) 0.2005(2)
O5 O 0.8870(3) 0.1140(2) 0.1424(2)
H14 H 0.9153 0.1990 0.1276
Zn1_2 Zn 0.37475(5) 0.40258(4) 1.17731(4)
Zn1_3 Zn 0.37475(5) -0.59742(4) 0.17731(4)
N6_2 N 0.1922(3) 0.3162(3) -0.0245(3)
O4_2 O 0.5105(3) 0.6275(2) 0.2005(2)
O6 O 0.9625(3) 0.3844(2) 0.0982(2)
H15 H 1.0632 0.4572 0.1241
H16 H 0.8906 0.3685 0.0167
O7 O 0.4065(4) 0.0785(3) 0.4658(4)
H17 H 0.3027 0.0132 0.4032
H18 H 0.4721 0.0444 0.4715
loop_
_geom_bond_atom_site_label_1
_geom_bond_atom_site_label_2
_geom_bond_site_symmetry_1
_geom_bond_site_symmetry_2
Zn1 N1 1_555 1_555
C1 C2 1_555 1_555
C2 C3 1_555 1_555
C3 H1 1_555 1_555
C4 C3 1_555 1_555
C5 C4 1_555 1_555
H2 C5 1_555 1_555
C6 C5 1_555 1_555
C7 C2 1_555 1_555
H3 C7 1_555 1_555
C8 C6 1_555 1_555
C9 H4 1_555 1_555
C10 H5 1_555 1_555
C11 H6 1_555 1_555
H7 C11 1_555 1_555
C12 C11 1_555 1_555
H8 C12 1_555 1_555
H9 C12 1_555 1_555
C13 C12 1_555 1_555
H10 C13 1_555 1_555
H11 C13 1_555 1_555
C14 H12 1_555 1_555
C15 H13 1_555 1_555
N1 C9 1_555 1_555
N2 C9 1_555 1_555
N3 C10 1_555 1_555
N4 C13 1_555 1_555
N5 C15 1_555 1_555
N6 C14 1_555 1_555
O1 Zn1 1_555 1_555
O2 Zn1 1_555 1_555
O3 C8 1_555 1_555
O4 C8 1_555 1_555
O5 C4 1_555 1_555
H14 O5 1_555 1_555
O6 H15 1_555 1_555
H16 O6 1_555 1_555
O7 H17 1_555 1_555
H18 O7 1_555 1_555
Zn1_2 N6 1_555 1_555
Zn1_3 O4 1_555 1_555
N6_2 Zn1 1_555 1_555
O4_2 Zn1 1_555 1_555
C1 O1 1_555 1_555
C1 O2 1_555 1_555
C6 C7 1_555 1_555
C10 N1 1_555 1_555
C11 N2 1_555 1_555
C14 N4 1_555 1_555
C15 N6 1_555 1_555
N2 N3 1_555 1_555
N4 N5 1_555 1_555

#END
