
#######################################################################
#
#                 Cambridge Crystallographic Data Centre
#                                CCDC 
#
#######################################################################
#
# If this CIF has been generated from an entry in the Cambridge 
# Structural Database, then it will include bibliographic, chemical, 
# crystal, experimental, refinement or atomic coordinate data resulting 
# from the CCDC's data processing and validation procedures.
#
#######################################################################

data_ZAXQUM
_symmetry_cell_setting           tetragonal
_symmetry_space_group_name_H-M   'P 42/n c m'
_symmetry_Int_Tables_number      138
_space_group_name_Hall           '-P 4ac 2ac'
loop_
_symmetry_equiv_pos_site_id
_symmetry_equiv_pos_as_xyz
1 x,y,z
2 1/2-y,x,1/2+z
3 1/2-x,1/2-y,z
4 y,1/2-x,1/2+z
5 1/2+x,-y,1/2-z
6 1/2+y,1/2+x,-z
7 -x,1/2+y,1/2-z
8 -y,-x,-z
9 -x,-y,-z
10 1/2+y,-x,1/2-z
11 1/2+x,1/2+y,-z
12 -y,1/2+x,1/2-z
13 1/2-x,y,1/2+z
14 1/2-y,1/2-x,z
15 x,1/2-y,1/2+z
16 y,x,z
_cell_length_a                   14.639(2)
_cell_length_b                   14.639(2)
_cell_length_c                   20.056(4)
_cell_angle_alpha                90
_cell_angle_beta                 90
_cell_angle_gamma                90
_cell_volume                     4298.01
loop_
_atom_site_label
_atom_site_type_symbol
_atom_site_fract_x
_atom_site_fract_y
_atom_site_fract_z
B1 B 0.2500 -0.2500 0.0000
F1 F 0.2718(9) -0.1777(7) 0.0443(6)
F1B F 0.2282(9) -0.3223(7) 0.0443(6)
F1E F 0.3223(7) -0.2282(9) -0.0443(6)
F1G F 0.1777(7) -0.2718(9) -0.0443(6)
B2 B -0.5223(7) -0.5223(7) -0.2738(8)
F2 F -0.4347(4) -0.5443(5) -0.2695(4)
F3 F -0.5735(6) -0.5735(6) -0.3178(6)
F4 F -0.5525(9) -0.5525(9) -0.2114(8)
F2O F -0.5443(5) -0.4347(4) -0.2695(4)
O3 O -0.3373(9) -0.1627(9) -0.0251(8)
O4 O -0.2500 -0.2500 -0.1272(12)
O5 O -0.1927(15) -0.1927(15) -0.0495(19)
Cu1 Cu -0.5000 -0.5000 0.0000
Cu2 Cu -0.7500 -0.2500 0.2500
N1 N -0.6509(4) -0.3016(4) -0.1871(2)
C1 C -0.5702(4) -0.2611(5) -0.1825(3)
H1 H -0.5576 -0.2106 -0.2108
C2 C -0.5031(5) -0.2894(5) -0.1379(3)
H2 H -0.4468 -0.2571 -0.1369
N2 N -0.5142(4) -0.3596(4) -0.0968(3)
N3 N -0.6081(3) -0.4725(4) -0.0582(2)
C3 C -0.6870(5) -0.5157(5) -0.0585(3)
H3 H -0.6962 -0.5643 -0.0279
C4 C -0.7578(5) -0.4925(5) -0.1024(4)
H4 H -0.8134 -0.5260 -0.1017
C5 C -0.7473(5) -0.4227(4) -0.1455(3)
H5 H -0.7951 -0.4071 -0.1755
C6 C -0.6655(4) -0.3738(4) -0.1457(3)
C7 C -0.5964(4) -0.4016(4) -0.1010(3)
Cu1B Cu -1.0000 0.0000 0.0000
Cu2E Cu -0.7500 -0.2500 -0.2500
Cu2D Cu -0.2500 -0.7500 0.2500
N1G N -0.6984(4) -0.3491(4) 0.1871(2)
N1H N -0.3491(4) -0.6984(4) 0.1871(2)
N1E N -0.8016(4) -0.1509(4) 0.1871(2)
N1L N -0.8491(4) -0.3016(4) 0.3129(2)
N1N N -0.6509(4) -0.1984(4) 0.3129(2)
C1G C -0.7389(5) -0.4298(4) 0.1825(3)
C1H C -0.4298(4) -0.7389(5) 0.1825(3)
C1E C -0.7611(5) -0.0702(4) 0.1825(3)
H1G H -0.7894 -0.4424 0.2108
H1H H -0.4424 -0.7894 0.2108
H1E H -0.7106 -0.0576 0.2108
C2G C -0.7106(5) -0.4969(5) 0.1379(3)
C2H C -0.4969(5) -0.7106(5) 0.1379(3)
C2E C -0.7894(5) -0.0031(5) 0.1379(3)
H2G H -0.7429 -0.5532 0.1369
H2H H -0.5532 -0.7429 0.1369
H2E H -0.7571 0.0532 0.1369
N2G N -0.6404(4) -0.4858(4) 0.0968(3)
N2H N -0.4858(4) -0.6404(4) 0.0968(3)
N2E N -0.8596(4) -0.0142(4) 0.0968(3)
N3G N -0.5275(4) -0.3919(3) 0.0582(2)
N3H N -0.3919(3) -0.5275(4) 0.0582(2)
N3O N -0.4725(4) -0.6081(3) -0.0582(2)
N3E N -0.9725(4) -0.1081(3) 0.0582(2)
C3G C -0.4843(5) -0.3130(5) 0.0585(3)
C3H C -0.3130(5) -0.4843(5) 0.0585(3)
C3E C -1.0157(5) -0.1870(5) 0.0585(3)
H3G H -0.4357 -0.3038 0.0279
H3H H -0.3038 -0.4357 0.0279
H3E H -1.0643 -0.1962 0.0279
C4G C -0.5075(5) -0.2422(5) 0.1024(4)
C4H C -0.2422(5) -0.5075(5) 0.1024(4)
C4E C -0.9925(5) -0.2578(5) 0.1024(4)
H4G H -0.4740 -0.1866 0.1017
H4H H -0.1866 -0.4740 0.1017
H4E H -1.0260 -0.3134 0.1017
C5G C -0.5773(4) -0.2527(5) 0.1455(3)
C5H C -0.2527(5) -0.5773(4) 0.1455(3)
C5E C -0.9227(4) -0.2473(5) 0.1455(3)
H5G H -0.5929 -0.2049 0.1755
H5H H -0.2049 -0.5929 0.1755
H5E H -0.9071 -0.2951 0.1755
C6G C -0.6262(4) -0.3345(4) 0.1457(3)
C6H C -0.3345(4) -0.6262(4) 0.1457(3)
C6E C -0.8738(4) -0.1655(4) 0.1457(3)
C7G C -0.5984(4) -0.4036(4) 0.1010(3)
C7H C -0.4036(4) -0.5984(4) 0.1010(3)
C7E C -0.9016(4) -0.0964(4) 0.1010(3)
C8? C -0.452(2) -0.048(2) -0.038(2)
H6? H -0.4139 -0.0861 -0.0084
H7? H -0.4335 -0.0665 -0.0831
H8? H -0.4601 0.0086 -0.0093
O1? O -0.534(2) -0.1103(19) -0.0352(10)
H9? H -0.5779 -0.0828 -0.0178
O2? O -0.2296(16) -0.2704(16) 0.0547(15)
F5? F 0.1684(8) -0.2213(11) -0.0227(8)
F6? F -0.485(3) -0.485(3) -0.333(2)
O6? O -0.6843(18) -0.6843(18) -0.1840(17)
loop_
_geom_bond_atom_site_label_1
_geom_bond_atom_site_label_2
_geom_bond_site_symmetry_1
_geom_bond_site_symmetry_2
Cu1 N3 1_555 1_555
Cu2 N1G 1_555 1_555
N1 C1 1_555 1_555
C1 H1 1_555 1_555
C2 C1 1_555 1_555
H2 C2 1_555 1_555
N2 C2 1_555 1_555
N3 C3 1_555 1_555
C3 H3 1_555 1_555
C4 C3 1_555 1_555
H4 C4 1_555 1_555
C5 C4 1_555 1_555
H5 C5 1_555 1_555
C6 N1 1_555 1_555
C7 N2 1_555 1_555
B1 F1 1_555 1_555
B2 F2 1_555 1_555
F3 B2 1_555 1_555
F4 B2 1_555 1_555
Cu1B N3E 1_555 1_555
Cu2E N1 1_555 1_555
Cu2D N1H 1_555 1_555
N1G C1G 1_555 1_555
N1H C1H 1_555 1_555
N1E Cu2 1_555 1_555
N1L Cu2 1_555 1_555
N1N Cu2 1_555 1_555
C1G H1G 1_555 1_555
C1H H1H 1_555 1_555
C1E N1E 1_555 1_555
H1E C1E 1_555 1_555
C2G C1G 1_555 1_555
C2H C1H 1_555 1_555
C2E C1E 1_555 1_555
H2G C2G 1_555 1_555
H2H C2H 1_555 1_555
H2E C2E 1_555 1_555
N2G C2G 1_555 1_555
N2H C2H 1_555 1_555
N2E C2E 1_555 1_555
N3G Cu1 1_555 1_555
N3H Cu1 1_555 1_555
N3O Cu1 1_555 1_555
N3E C3E 1_555 1_555
C3G N3G 1_555 1_555
C3H N3H 1_555 1_555
C3E H3E 1_555 1_555
H3G C3G 1_555 1_555
H3H C3H 1_555 1_555
C4G C3G 1_555 1_555
C4H C3H 1_555 1_555
C4E C3E 1_555 1_555
H4G C4G 1_555 1_555
H4H C4H 1_555 1_555
H4E C4E 1_555 1_555
C5G C4G 1_555 1_555
C5H C4H 1_555 1_555
C5E C4E 1_555 1_555
H5G C5G 1_555 1_555
H5H C5H 1_555 1_555
H5E C5E 1_555 1_555
C6G N1G 1_555 1_555
C6H N1H 1_555 1_555
C6E N1E 1_555 1_555
C7G N2G 1_555 1_555
C7H N2H 1_555 1_555
C7E N2E 1_555 1_555
F1B B1 1_555 1_555
F1E B1 1_555 1_555
F1G B1 1_555 1_555
F2O B2 1_555 1_555
N3 C7 1_555 1_555
C5 C6 1_555 1_555
C6 C7 1_555 1_555
N3G C7G 1_555 1_555
N3H C7H 1_555 1_555
N3E C7E 1_555 1_555
C5G C6G 1_555 1_555
C5H C6H 1_555 1_555
C5E C6E 1_555 1_555
C6G C7G 1_555 1_555
C6H C7H 1_555 1_555
C6E C7E 1_555 1_555

#END
