
#######################################################################
#
#                 Cambridge Crystallographic Data Centre
#                                CCDC 
#
#######################################################################
#
# If this CIF has been generated from an entry in the Cambridge 
# Structural Database, then it will include bibliographic, chemical, 
# crystal, experimental, refinement or atomic coordinate data resulting 
# from the CCDC's data processing and validation procedures.
#
#######################################################################

data_ZAXVUR
_symmetry_cell_setting           triclinic
_symmetry_space_group_name_H-M   'P -1'
_symmetry_Int_Tables_number      2
_space_group_name_Hall           '-P 1'
loop_
_symmetry_equiv_pos_site_id
_symmetry_equiv_pos_as_xyz
1 x,y,z
2 -x,-y,-z
_cell_length_a                   6.2589(7)
_cell_length_b                   15.4445(16)
_cell_length_c                   16.1802(17)
_cell_angle_alpha                75.2210(14)
_cell_angle_beta                 83.8603(16)
_cell_angle_gamma                89.9936(16)
_cell_volume                     1503.05
loop_
_atom_site_label
_atom_site_type_symbol
_atom_site_fract_x
_atom_site_fract_y
_atom_site_fract_z
Eu1 Eu 0.04746(3) 0.798674(11) 0.758499(11)
Ag1 Ag 0.39586(5) 0.699162(19) 1.267205(19)
O1 O -0.1217(4) 0.74040(18) 0.90218(17)
O2 O 0.2773(4) 0.83335(17) 0.85979(16)
O3 O 0.3370(4) 0.76379(17) 0.65773(16)
O4 O -0.0378(4) 0.85152(18) 0.61203(17)
O5 O 0.2755(4) 0.92618(17) 0.68893(17)
O6 O -0.0848(4) 0.93230(18) 0.79936(18)
O7 O 0.2423(4) 0.67141(17) 0.82915(17)
O8 O -0.0608(4) 0.66142(18) 0.72033(18)
O9 O -0.3415(4) 0.7999(2) 0.75611(18)
H1 H -0.388(3) 0.793(3) 0.8100(12)
H2 H -0.465(4) 0.809(3) 0.741(2)
N1 N 0.2015(6) 0.7027(3) 1.1565(2)
N2 N 0.2414(6) 0.7306(3) 0.3856(2)
N3 N 0.3718(6) 1.1758(3) 0.7968(3)
N4 N 0.4005(6) 0.4215(2) 0.7226(3)
C1 C -0.2138(7) 0.6593(3) 1.0467(3)
H3 H -0.3442 0.6459 1.0232
H4 H -0.2524 0.6885 1.0932
H5 H -0.1409 0.6034 1.0694
C2 C -0.0654(6) 0.7209(2) 0.9765(2)
C3 C 0.1268(6) 0.7541(3) 0.9989(2)
C4 C 0.2819(6) 0.8125(2) 0.9398(2)
C5 C 0.4604(6) 0.8560(3) 0.9726(2)
H6 H 0.5950 0.8557 0.9357
H7 H 0.4775 0.8226 1.0316
H8 H 0.4242 0.9180 0.9716
C6 C 0.1663(6) 0.7268(3) 1.0866(3)
C7 C -0.0996(7) 0.8841(3) 0.4666(2)
H9 H -0.2446 0.8982 0.4879
H10 H -0.1095 0.8457 0.4273
H11 H -0.0204 0.9397 0.4359
C8 C 0.0166(6) 0.8361(2) 0.5413(2)
C9 C 0.1881(6) 0.7781(3) 0.5271(2)
C10 C 0.3463(6) 0.7483(2) 0.5857(2)
C11 C 0.5330(7) 0.6963(3) 0.5586(3)
H12 H 0.6476 0.6966 0.5953
H13 H 0.5873 0.7240 0.4986
H14 H 0.4854 0.6344 0.5644
C12 C 0.2158(7) 0.7535(3) 0.4482(3)
C13 C 0.5500(7) 1.0368(3) 0.6638(3)
H15 H 0.6654 1.0084 0.6967
H16 H 0.5512 1.1010 0.6604
H17 H 0.5721 1.0280 0.6056
C14 C 0.3354(6) 0.9948(2) 0.7080(2)
C15 C 0.2104(7) 1.0349(2) 0.7667(3)
C16 C 0.0028(7) 1.0020(3) 0.8073(3)
C17 C -0.1220(8) 1.0545(3) 0.8621(3)
H18 H -0.1489 1.1143 0.8266
H19 H -0.0389 1.0601 0.9086
H20 H -0.2594 1.0232 0.8868
C18 C 0.2973(7) 1.1132(3) 0.7830(3)
C19 C 0.4975(7) 0.5600(3) 0.8586(3)
H21 H 0.6265 0.5982 0.8356
H22 H 0.5215 0.5004 0.8492
H23 H 0.4669 0.5549 0.9203
C20 C 0.3098(6) 0.6009(2) 0.8133(2)
C21 C 0.2170(6) 0.5594(3) 0.7552(3)
C22 C 0.0287(6) 0.5909(2) 0.7145(2)
C23 C -0.0668(8) 0.5352(3) 0.6625(3)
H24 H -0.2193 0.5485 0.6593
H25 H -0.0526 0.4715 0.6902
H26 H 0.0094 0.5494 0.6043
C24 C 0.3152(7) 0.4826(2) 0.7371(3)
Ag1A Ag 0.60414(5) 0.300838(19) 0.732795(19)
Ag1_2 Ag 0.39586(5) 0.699162(19) 0.267205(19)
Ag1A_2 Ag 0.60414(5) 1.300838(19) 0.732795(19)
N2_2 N 0.2414(6) 0.7306(3) 1.3856(2)
N3A N 0.6282(6) 0.8242(3) 1.2032(3)
N4A N 0.5995(6) 0.5785(2) 1.2774(3)
loop_
_geom_bond_atom_site_label_1
_geom_bond_atom_site_label_2
_geom_bond_site_symmetry_1
_geom_bond_site_symmetry_2
Eu1 O1 1_555 1_555
Ag1 N1 1_555 1_555
O1 C2 1_555 1_555
O2 Eu1 1_555 1_555
O3 Eu1 1_555 1_555
O4 Eu1 1_555 1_555
O5 Eu1 1_555 1_555
O6 Eu1 1_555 1_555
O7 Eu1 1_555 1_555
O8 Eu1 1_555 1_555
O9 Eu1 1_555 1_555
H1 O9 1_555 1_555
H2 O9 1_555 1_555
N1 C6 1_555 1_555
N2 C12 1_555 1_555
N3 C18 1_555 1_555
N4 C24 1_555 1_555
C1 H3 1_555 1_555
H4 C1 1_555 1_555
H5 C1 1_555 1_555
C2 C1 1_555 1_555
C3 C2 1_555 1_555
C4 O2 1_555 1_555
C5 C4 1_555 1_555
H6 C5 1_555 1_555
H7 C5 1_555 1_555
H8 C5 1_555 1_555
C6 C3 1_555 1_555
C7 H9 1_555 1_555
H10 C7 1_555 1_555
H11 C7 1_555 1_555
C8 O4 1_555 1_555
C9 C8 1_555 1_555
C10 O3 1_555 1_555
C11 C10 1_555 1_555
H12 C11 1_555 1_555
H13 C11 1_555 1_555
H14 C11 1_555 1_555
C12 C9 1_555 1_555
C13 H15 1_555 1_555
H16 C13 1_555 1_555
H17 C13 1_555 1_555
C14 O5 1_555 1_555
C15 C14 1_555 1_555
C16 O6 1_555 1_555
C17 C16 1_555 1_555
H18 C17 1_555 1_555
H19 C17 1_555 1_555
H20 C17 1_555 1_555
C18 C15 1_555 1_555
C19 H21 1_555 1_555
H22 C19 1_555 1_555
H23 C19 1_555 1_555
C20 O7 1_555 1_555
C21 C20 1_555 1_555
C22 O8 1_555 1_555
C23 C22 1_555 1_555
H24 C23 1_555 1_555
H25 C23 1_555 1_555
H26 C23 1_555 1_555
C24 C21 1_555 1_555
Ag1A N4 1_555 1_555
Ag1_2 N2 1_555 1_555
Ag1A_2 N3 1_555 1_555
N2_2 Ag1 1_555 1_555
N3A Ag1 1_555 1_555
N4A Ag1 1_555 1_555
C3 C4 1_555 1_555
C7 C8 1_555 1_555
C9 C10 1_555 1_555
C13 C14 1_555 1_555
C15 C16 1_555 1_555
C19 C20 1_555 1_555
C21 C22 1_555 1_555

#END
