
#######################################################################
#
#                 Cambridge Crystallographic Data Centre
#                                CCDC 
#
#######################################################################
#
# If this CIF has been generated from an entry in the Cambridge 
# Structural Database, then it will include bibliographic, chemical, 
# crystal, experimental, refinement or atomic coordinate data resulting 
# from the CCDC's data processing and validation procedures.
#
#######################################################################

data_ZAXVEZ
_symmetry_cell_setting           orthorhombic
_symmetry_space_group_name_H-M   'P 21 21 21'
_symmetry_Int_Tables_number      19
_space_group_name_Hall           'P 2ac 2ab'
loop_
_symmetry_equiv_pos_site_id
_symmetry_equiv_pos_as_xyz
1 x,y,z
2 1/2-x,-y,1/2+z
3 1/2+x,1/2-y,-z
4 -x,1/2+y,1/2-z
_cell_length_a                   12.410(3)
_cell_length_b                   14.262(3)
_cell_length_c                   19.027(4)
_cell_angle_alpha                90
_cell_angle_beta                 90
_cell_angle_gamma                90
_cell_volume                     3367.62
loop_
_atom_site_label
_atom_site_type_symbol
_atom_site_fract_x
_atom_site_fract_y
_atom_site_fract_z
Cu1 Cu -0.81982(4) -0.07998(4) -0.18269(3)
Cu2 Cu -0.52425(5) -0.03132(4) 0.00910(4)
Cu3 Cu -0.1762(1) 0.0707(1) 0.1410(1)
S1 S -0.8371(2) 0.1290(1) -0.3834(1)
S2 S -0.1451(2) -0.0706(2) 0.3746(1)
O1 O -0.6790(3) -0.1386(3) -0.1542(2)
O2 O -0.7846(4) 0.0121(3) -0.1057(3)
O3 O -0.6569(3) 0.0333(3) -0.0234(3)
O4 O -0.4787(3) 0.0709(3) 0.0711(2)
O5 O -0.2277(3) -0.0406(2) 0.0885(2)
O6 O -0.3268(2) 0.1175(2) 0.1263(2)
N1 N -0.7849(5) 0.0117(4) -0.2716(3)
N2 N -0.8679(3) -0.1976(3) -0.2356(2)
N3 N -0.9791(4) -0.0501(3) -0.1742(2)
N4 N -0.5602(3) -0.1225(3) -0.0626(2)
N5 N -0.3803(3) -0.0841(3) 0.0301(2)
N6 N -0.2122(8) 0.0083(6) 0.2566(4)
N7 N -0.0213(3) 0.0271(3) 0.1430(2)
N8 N -0.1247(3) 0.1947(3) 0.1815(2)
C1 C -0.8046(4) 0.0583(4) -0.3155(3)
C2 C -0.9858(5) -0.1865(5) -0.2463(4)
C3 C -1.0240(6) -0.0944(6) -0.2393(5)
C4 C -0.6408(3) -0.0984(3) -0.1013(2)
C5 C -0.6983(6) -0.0085(4) -0.0767(3)
C6 C -0.4981(4) -0.2055(3) -0.0798(2)
C7 C -0.4205(6) -0.2378(5) -0.0238(4)
C8 C -0.3349(4) -0.1701(3) 0.0005(3)
C9 C -0.3226(3) -0.0297(3) 0.0681(2)
C10 C -0.3800(4) 0.0621(3) 0.0898(2)
C11 C -0.1825(6) -0.0262(6) 0.3119(7)
C12 C 0.0454(5) 0.1095(4) 0.1653(4)
C13 C -0.0164(4) 0.1732(5) 0.2090(5)
C14 C -0.8162(6) -0.2037(5) -0.3048(3)
C15 C -0.8451(6) -0.2812(4) -0.1941(4)
C16 C -0.9994(5) 0.0500(5) -0.1852(6)
C17 C -1.0208(8) -0.0647(9) -0.1031(5)
C18 C -0.0049(6) -0.0596(4) 0.1819(3)
C19 C 0.0151(5) 0.0026(5) 0.0677(4)
C20 C -0.1919(6) 0.2235(5) 0.2408(3)
C21 C -0.1215(7) 0.2694(5) 0.1318(4)
Cu2A Cu -0.97575(5) 0.03132(4) -0.49090(4)
S1A S -0.6629(2) -0.1290(1) 0.1166(1)
O7 O 0.2018(3) 0.1853(3) 0.0197(3)
O8 O -0.1696(8) 0.1469(4) -0.0073(4)
O9 O 0.0120(4) 0.2224(3) -0.0540(3)
loop_
_geom_bond_atom_site_label_1
_geom_bond_atom_site_label_2
_geom_bond_site_symmetry_1
_geom_bond_site_symmetry_2
Cu1 O1 1_555 1_555
Cu2 O3 1_555 1_555
Cu3 O5 1_555 1_555
S1 C1 1_555 1_555
S2 C11 1_555 1_555
O1 C4 1_555 1_555
O2 Cu1 1_555 1_555
O3 C5 1_555 1_555
O4 Cu2 1_555 1_555
O5 C9 1_555 1_555
O6 Cu3 1_555 1_555
N1 Cu1 1_555 1_555
N2 Cu1 1_555 1_555
N3 Cu1 1_555 1_555
N4 Cu2 1_555 1_555
N5 Cu2 1_555 1_555
N6 Cu3 1_555 1_555
N7 Cu3 1_555 1_555
N8 Cu3 1_555 1_555
C1 N1 1_555 1_555
C2 N2 1_555 1_555
C3 N3 1_555 1_555
C4 N4 1_555 1_555
C5 O2 1_555 1_555
C6 N4 1_555 1_555
C7 C6 1_555 1_555
C8 N5 1_555 1_555
C9 N5 1_555 1_555
C10 O4 1_555 1_555
C11 N6 1_555 1_555
C12 N7 1_555 1_555
C13 N8 1_555 1_555
C14 N2 1_555 1_555
C15 N2 1_555 1_555
C16 N3 1_555 1_555
C17 N3 1_555 1_555
C18 N7 1_555 1_555
C19 N7 1_555 1_555
C20 N8 1_555 1_555
C21 N8 1_555 1_555
Cu2A S1 1_555 1_555
S1A Cu2 1_555 1_555
O6 C10 1_555 1_555
C2 C3 1_555 1_555
C4 C5 1_555 1_555
C7 C8 1_555 1_555
C9 C10 1_555 1_555
C12 C13 1_555 1_555

#END
