
#######################################################################
#
#                 Cambridge Crystallographic Data Centre
#                                CCDC 
#
#######################################################################
#
# If this CIF has been generated from an entry in the Cambridge 
# Structural Database, then it will include bibliographic, chemical, 
# crystal, experimental, refinement or atomic coordinate data resulting 
# from the CCDC's data processing and validation procedures.
#
#######################################################################

data_ZAXVOL
_symmetry_cell_setting           triclinic
_symmetry_space_group_name_H-M   'P -1'
_symmetry_Int_Tables_number      2
_space_group_name_Hall           '-P 1'
loop_
_symmetry_equiv_pos_site_id
_symmetry_equiv_pos_as_xyz
1 x,y,z
2 -x,-y,-z
_cell_length_a                   6.3395(14)
_cell_length_b                   15.475(3)
_cell_length_c                   16.273(3)
_cell_angle_alpha                74.775(3)
_cell_angle_beta                 83.984(4)
_cell_angle_gamma                90.269(4)
_cell_volume                     1531.06
loop_
_atom_site_label
_atom_site_type_symbol
_atom_site_fract_x
_atom_site_fract_y
_atom_site_fract_z
Ce1 Ce 0.03771(4) 0.799615(15) 0.758744(15)
Ag1 Ag 0.39738(5) 0.69641(2) 1.26878(2)
O1 O -0.1260(4) 0.74181(19) 0.90771(17)
O2 O 0.2738(4) 0.83321(17) 0.86224(16)
O3 O 0.3334(4) 0.76577(17) 0.65603(16)
O4 O -0.0397(4) 0.85038(18) 0.60690(17)
O5 O 0.2664(5) 0.93247(18) 0.68931(17)
O6 O -0.0881(4) 0.93768(19) 0.80025(18)
O7 O 0.2313(5) 0.66745(18) 0.83071(18)
O8 O -0.0666(4) 0.65799(19) 0.71981(18)
O9 O -0.3571(5) 0.8026(2) 0.7555(2)
H1 H -0.445(8) 0.818(3) 0.789(3)
H2 H -0.408(8) 0.791(3) 0.721(3)
N1 N 0.2070(6) 0.7009(3) 1.1583(2)
N2 N 0.2472(6) 0.7276(3) 0.3869(2)
N3 N 0.3729(6) 1.1779(3) 0.7984(3)
N4 N 0.4018(6) 0.4239(3) 0.7198(3)
C1 C -0.2115(7) 0.6599(3) 1.0517(3)
H3 H -0.3438 0.6484 1.0295
H4 H -0.2430 0.6887 1.0983
H5 H -0.1428 0.6030 1.0733
C2 C -0.0650(6) 0.7207(3) 0.9807(3)
C3 C 0.1277(7) 0.7536(3) 1.0019(3)
C4 C 0.2795(6) 0.8125(3) 0.9418(2)
C5 C 0.4594(7) 0.8547(3) 0.9740(3)
H6 H 0.5937 0.8485 0.9406
H7 H 0.4672 0.8245 1.0346
H8 H 0.4337 0.9184 0.9677
C6 C 0.1700(6) 0.7248(3) 1.0883(3)
C7 C -0.0940(7) 0.8801(3) 0.4614(3)
H9 H -0.2391 0.8930 0.4810
H10 H -0.0984 0.8406 0.4234
H11 H -0.0175 0.9363 0.4302
C8 C 0.0183(6) 0.8349(3) 0.5376(3)
C9 C 0.1910(6) 0.7773(3) 0.5254(3)
C10 C 0.3433(6) 0.7489(3) 0.5846(3)
C11 C 0.5279(7) 0.6957(3) 0.5613(3)
H12 H 0.6414 0.6992 0.5968
H13 H 0.5807 0.7203 0.5007
H14 H 0.4815 0.6329 0.5711
C12 C 0.2214(7) 0.7507(3) 0.4480(3)
C13 C 0.5438(7) 1.0401(3) 0.6671(3)
H15 H 0.6541 1.0127 0.7026
H16 H 0.5460 1.1048 0.6609
H17 H 0.5705 1.0289 0.6105
C14 C 0.3288(7) 0.9997(3) 0.7095(3)
C15 C 0.2092(7) 1.0389(3) 0.7680(3)
C16 C 0.0018(7) 1.0064(3) 0.8088(3)
C17 C -0.1203(7) 1.0574(3) 0.8644(3)
H18 H -0.1615 1.1149 0.8286
H19 H -0.0308 1.0683 0.9065
H20 H -0.2479 1.0223 0.8943
C18 C 0.2966(7) 1.1168(3) 0.7853(3)
C19 C 0.4927(7) 0.5595(3) 0.8564(3)
H21 H 0.6188 0.5982 0.8317
H22 H 0.5161 0.4996 0.8481
H23 H 0.4661 0.5551 0.9178
C20 C 0.3026(7) 0.5990(3) 0.8123(3)
C21 C 0.2131(7) 0.5587(3) 0.7543(3)
C22 C 0.0260(7) 0.5886(3) 0.7139(3)
C23 C -0.0614(7) 0.5336(3) 0.6598(3)
H24 H -0.2166 0.5357 0.6652
H25 H -0.0191 0.4714 0.6795
H26 H -0.0050 0.5583 0.5997
C24 C 0.3148(7) 0.4827(3) 0.7350(3)
Ag1_2 Ag 0.39738(5) 0.69641(2) 0.26878(2)
Ag1A Ag 0.60262(5) 1.30359(2) 0.73122(2)
Ag1A_2 Ag 0.60262(5) 0.30359(2) 0.73122(2)
N2_2 N 0.2472(6) 0.7276(3) 1.3869(2)
N3A N 0.6271(6) 0.8221(3) 1.2016(3)
N4A N 0.5982(6) 0.5761(3) 1.2802(3)
loop_
_geom_bond_atom_site_label_1
_geom_bond_atom_site_label_2
_geom_bond_site_symmetry_1
_geom_bond_site_symmetry_2
Ce1 O1 1_555 1_555
Ag1 N1 1_555 1_555
O1 C2 1_555 1_555
O2 Ce1 1_555 1_555
O3 Ce1 1_555 1_555
O4 Ce1 1_555 1_555
O5 Ce1 1_555 1_555
O6 Ce1 1_555 1_555
O7 Ce1 1_555 1_555
O8 Ce1 1_555 1_555
O9 Ce1 1_555 1_555
H1 O9 1_555 1_555
H2 O9 1_555 1_555
N1 C6 1_555 1_555
N2 C12 1_555 1_555
N3 C18 1_555 1_555
N4 C24 1_555 1_555
C1 H3 1_555 1_555
H4 C1 1_555 1_555
H5 C1 1_555 1_555
C2 C1 1_555 1_555
C3 C2 1_555 1_555
C4 O2 1_555 1_555
C5 C4 1_555 1_555
H6 C5 1_555 1_555
H7 C5 1_555 1_555
H8 C5 1_555 1_555
C6 C3 1_555 1_555
C7 H9 1_555 1_555
H10 C7 1_555 1_555
H11 C7 1_555 1_555
C8 O4 1_555 1_555
C9 C8 1_555 1_555
C10 O3 1_555 1_555
C11 C10 1_555 1_555
H12 C11 1_555 1_555
H13 C11 1_555 1_555
H14 C11 1_555 1_555
C12 C9 1_555 1_555
C13 H15 1_555 1_555
H16 C13 1_555 1_555
H17 C13 1_555 1_555
C14 O5 1_555 1_555
C15 C14 1_555 1_555
C16 O6 1_555 1_555
C17 C16 1_555 1_555
H18 C17 1_555 1_555
H19 C17 1_555 1_555
H20 C17 1_555 1_555
C18 C15 1_555 1_555
C19 H21 1_555 1_555
H22 C19 1_555 1_555
H23 C19 1_555 1_555
C20 O7 1_555 1_555
C21 C20 1_555 1_555
C22 O8 1_555 1_555
C23 C22 1_555 1_555
H24 C23 1_555 1_555
H25 C23 1_555 1_555
H26 C23 1_555 1_555
C24 C21 1_555 1_555
Ag1_2 N2 1_555 1_555
Ag1A N3 1_555 1_555
Ag1A_2 N4 1_555 1_555
N2_2 Ag1 1_555 1_555
N3A Ag1 1_555 1_555
N4A Ag1 1_555 1_555
C3 C4 1_555 1_555
C7 C8 1_555 1_555
C9 C10 1_555 1_555
C13 C14 1_555 1_555
C15 C16 1_555 1_555
C19 C20 1_555 1_555
C21 C22 1_555 1_555

#END
