
#######################################################################
#
#                 Cambridge Crystallographic Data Centre
#                                CCDC 
#
#######################################################################
#
# If this CIF has been generated from an entry in the Cambridge 
# Structural Database, then it will include bibliographic, chemical, 
# crystal, experimental, refinement or atomic coordinate data resulting 
# from the CCDC's data processing and validation procedures.
#
#######################################################################

data_ZAXWUS
_symmetry_cell_setting           monoclinic
_symmetry_space_group_name_H-M   'P 21/c'
_symmetry_Int_Tables_number      14
_space_group_name_Hall           '-P 2ybc'
loop_
_symmetry_equiv_pos_site_id
_symmetry_equiv_pos_as_xyz
1 x,y,z
2 -x,1/2+y,1/2-z
3 -x,-y,-z
4 x,1/2-y,1/2+z
_cell_length_a                   7.8841(5)
_cell_length_b                   21.0206(13)
_cell_length_c                   15.8536(10)
_cell_angle_alpha                90
_cell_angle_beta                 89.7194(8)
_cell_angle_gamma                90
_cell_volume                     2627.36
loop_
_atom_site_label
_atom_site_type_symbol
_atom_site_fract_x
_atom_site_fract_y
_atom_site_fract_z
Yb1 Yb 0.485637(10) 0.188770(4) 0.500649(5)
Ag1 Ag -0.04253(2) -0.001530(7) 0.110980(11)
O1 O 0.5915(2) 0.21185(7) 0.36915(9)
O2 O 0.70743(19) 0.11685(7) 0.47013(9)
O3 O 0.37703(19) 0.09225(7) 0.45827(10)
O4 O 0.2631(2) 0.20904(7) 0.40652(10)
O5 O 0.2335(2) 0.18077(8) 0.57206(10)
O6 O 0.54442(19) 0.15372(7) 0.63475(9)
O7 O 0.42081(19) 0.29352(7) 0.52069(10)
O8 O 0.73398(19) 0.24069(7) 0.53042(10)
C1 C 0.5889(4) 0.19821(12) 0.22161(15)
H1 H 0.4673 0.2052 0.2130
H2 H 0.6307 0.1669 0.1806
H3 H 0.6498 0.2384 0.2139
C2 C 0.6180(3) 0.17372(11) 0.30982(14)
C3 C 0.6781(3) 0.11047(10) 0.32240(13)
C4 C 0.7335(3) 0.08760(10) 0.40289(13)
C5 C 0.8285(3) 0.02541(11) 0.40725(15)
H4 H 0.9236 0.0296 0.4464
H5 H 0.8717 0.0144 0.3510
H6 H 0.7518 -0.0082 0.4271
C6 C 0.6845(3) 0.06932(11) 0.25106(14)
C7 C 0.3293(3) 0.00228(10) 0.37176(17)
H7 H 0.3887 -0.0190 0.4180
H8 H 0.3943 -0.0030 0.3194
H9 H 0.2165 -0.0166 0.3651
C8 C 0.3115(3) 0.07214(10) 0.39145(14)
C9 C 0.2223(3) 0.11233(11) 0.33439(14)
C10 C 0.1933(3) 0.17892(11) 0.34926(14)
C11 C 0.0731(3) 0.21448(12) 0.29242(16)
H10 H 0.0481 0.2563 0.3169
H11 H -0.0324 0.1902 0.2867
H12 H 0.1256 0.2200 0.2367
C12 C 0.1558(3) 0.08415(11) 0.26017(15)
C13 C -0.0116(3) 0.14713(12) 0.64519(15)
H13 H -0.0609 0.1832 0.6757
H14 H -0.0357 0.1077 0.6760
H15 H -0.0610 0.1447 0.5887
C14 C 0.1765(3) 0.15593(10) 0.63781(13)
C15 C 0.2844(3) 0.13669(10) 0.70575(13)
C16 C 0.4650(3) 0.13893(9) 0.70093(13)
C17 C 0.5654(3) 0.12346(12) 0.77886(13)
H16 H 0.6845 0.1165 0.7634
H17 H 0.5196 0.0849 0.8051
H18 H 0.5575 0.1589 0.8188
C18 C 0.2044(3) 0.11534(11) 0.78084(14)
C19 C 0.3970(3) 0.40615(11) 0.51688(15)
H19 H 0.2758 0.3960 0.5197
H20 H 0.4202 0.4313 0.4661
H21 H 0.4291 0.4307 0.5669
C20 C 0.4985(2) 0.34539(11) 0.51377(13)
C21 C 0.6787(3) 0.34917(10) 0.50575(13)
C22 C 0.7888(3) 0.29577(10) 0.51823(13)
C23 C 0.9774(3) 0.30650(11) 0.52036(16)
H22 H 1.0357 0.2655 0.5245
H23 H 1.0060 0.3327 0.5694
H24 H 1.0134 0.3283 0.4686
C24 C 0.7566(3) 0.40927(10) 0.49555(13)
N1 N 0.6827(3) 0.03635(10) 0.19300(13)
N2 N 0.1051(3) 0.06104(11) 0.19958(14)
N3 N 0.1334(3) 0.09884(10) 0.84040(12)
N4 N 0.8260(2) 0.45731(9) 0.48743(12)
Ag1B Ag 0.04253(2) 0.001530(7) 0.889020(11)
Ag1C Ag 0.95747(2) 0.501530(7) 0.610980(11)
Ag1A Ag 1.04253(2) 0.498470(7) 0.389020(11)
N3B N -0.1334(3) -0.09884(10) 0.15960(12)
N4C N -0.1740(2) 0.04269(9) -0.01257(12)
N4A N 0.1740(2) -0.04269(9) 0.01257(12)
loop_
_geom_bond_atom_site_label_1
_geom_bond_atom_site_label_2
_geom_bond_site_symmetry_1
_geom_bond_site_symmetry_2
Yb1 O1 1_555 1_555
Ag1 N2 1_555 1_555
O1 C2 1_555 1_555
O2 Yb1 1_555 1_555
O3 Yb1 1_555 1_555
O4 Yb1 1_555 1_555
O5 Yb1 1_555 1_555
O6 Yb1 1_555 1_555
O7 Yb1 1_555 1_555
O8 Yb1 1_555 1_555
C1 H1 1_555 1_555
H2 C1 1_555 1_555
H3 C1 1_555 1_555
C2 C1 1_555 1_555
C3 C2 1_555 1_555
C4 O2 1_555 1_555
C5 C4 1_555 1_555
H4 C5 1_555 1_555
H5 C5 1_555 1_555
H6 C5 1_555 1_555
C6 C3 1_555 1_555
C7 H7 1_555 1_555
H8 C7 1_555 1_555
H9 C7 1_555 1_555
C8 O3 1_555 1_555
C9 C8 1_555 1_555
C10 O4 1_555 1_555
C11 C10 1_555 1_555
H10 C11 1_555 1_555
H11 C11 1_555 1_555
H12 C11 1_555 1_555
C12 C9 1_555 1_555
C13 H13 1_555 1_555
H14 C13 1_555 1_555
H15 C13 1_555 1_555
C14 O5 1_555 1_555
C15 C14 1_555 1_555
C16 O6 1_555 1_555
C17 C16 1_555 1_555
H16 C17 1_555 1_555
H17 C17 1_555 1_555
H18 C17 1_555 1_555
C18 C15 1_555 1_555
C19 H19 1_555 1_555
H20 C19 1_555 1_555
H21 C19 1_555 1_555
C20 O7 1_555 1_555
C21 C20 1_555 1_555
C22 O8 1_555 1_555
C23 C22 1_555 1_555
H22 C23 1_555 1_555
H23 C23 1_555 1_555
H24 C23 1_555 1_555
C24 C21 1_555 1_555
N1 C6 1_555 1_555
N2 C12 1_555 1_555
N3 C18 1_555 1_555
N4 C24 1_555 1_555
Ag1B N3 1_555 1_555
Ag1C N4 1_555 1_555
Ag1A N4 1_555 1_555
N3B Ag1 1_555 1_555
N4C Ag1 1_555 1_555
N4A Ag1 1_555 1_555
C3 C4 1_555 1_555
C7 C8 1_555 1_555
C9 C10 1_555 1_555
C13 C14 1_555 1_555
C15 C16 1_555 1_555
C19 C20 1_555 1_555
C21 C22 1_555 1_555

#END
