
#######################################################################
#
#                 Cambridge Crystallographic Data Centre
#                                CCDC 
#
#######################################################################
#
# If this CIF has been generated from an entry in the Cambridge 
# Structural Database, then it will include bibliographic, chemical, 
# crystal, experimental, refinement or atomic coordinate data resulting 
# from the CCDC's data processing and validation procedures.
#
#######################################################################

data_ZAXWEC
_symmetry_cell_setting           orthorhombic
_symmetry_space_group_name_H-M   'P 2 2 2'
_symmetry_Int_Tables_number      16
_space_group_name_Hall           'P 2 2'
loop_
_symmetry_equiv_pos_site_id
_symmetry_equiv_pos_as_xyz
1 x,y,z
2 -x,-y,z
3 -x,y,-z
4 x,-y,-z
_cell_length_a                   7.6835(2)
_cell_length_b                   8.6805(2)
_cell_length_c                   12.3540(3)
_cell_angle_alpha                90
_cell_angle_beta                 90
_cell_angle_gamma                90
_cell_volume                     823.97
loop_
_atom_site_label
_atom_site_type_symbol
_atom_site_fract_x
_atom_site_fract_y
_atom_site_fract_z
N2 N 0.5000 0.5000 0.5000
C7 C 0.357(2) 0.5000 0.5000
C8 C 0.207(4) 0.5000 0.5000
C7A C 0.643(2) 0.5000 0.5000
C8A C 0.793(4) 0.5000 0.5000
O3 O 0.0000 0.0000 0.0000
Ag1 Ag 0.0000 0.5000 0.0000
Yb1 Yb -0.5000 0.0000 -0.5000
O1 O -0.5844(6) 0.1492(6) -0.3525(4)
O2 O -0.7362(6) -0.1346(5) -0.4425(3)
C1 C -0.2454(11) 0.2958(10) -0.1762(6)
C2 C -0.3232(9) 0.2278(9) -0.2693(5)
C3 C -0.5059(17) 0.2108(8) -0.2738(4)
C4 C -0.7890(9) -0.1920(8) -0.3555(5)
C5 C -0.3859(13) -0.2684(17) -0.1809(8)
H1 H -0.3085 -0.3506 -0.2062
H2 H -0.4625 -0.3086 -0.1241
H3 H -0.3161 -0.1835 -0.1517
C6 C -0.0168(16) 0.2215(11) -0.3471(6)
H4 H 0.0417 0.1802 -0.4113
H5 H 0.0290 0.1706 -0.2822
H6 H 0.0044 0.3326 -0.3422
N1 N -0.1780(11) 0.3511(10) -0.1026(6)
Ag1_2 Ag -1.0000 -0.5000 0.0000
Ag1_3 Ag -1.0000 0.5000 -1.0000
Ag1_4 Ag 0.0000 -0.5000 -1.0000
O1A O -0.4156(6) -0.1492(6) -0.3525(4)
O1B O -0.4156(6) 0.1492(6) -0.6475(4)
O1C O -0.5844(6) -0.1492(6) -0.6475(4)
O2A O -0.2638(6) 0.1346(5) -0.4425(3)
O2C O -0.7362(6) 0.1346(5) -0.5575(3)
O2B O -0.2638(6) -0.1346(5) -0.5575(3)
C1A C -0.7546(11) -0.2958(10) -0.1762(6)
C1B C -0.7546(11) 0.2958(10) -0.8238(6)
C1C C -0.2454(11) -0.2958(10) -0.8238(6)
C2A C -0.6768(9) -0.2278(9) -0.2693(5)
C2B C -0.6768(9) 0.2278(9) -0.7307(5)
C2C C -0.3232(9) -0.2278(9) -0.7307(5)
C3A C -0.4941(17) -0.2108(8) -0.2738(4)
C3B C -0.4941(17) 0.2108(8) -0.7262(4)
C3C C -0.5059(17) -0.2108(8) -0.7262(4)
C4A C -0.2110(9) 0.1920(8) -0.3555(5)
C4C C -0.7890(9) 0.1920(8) -0.6445(5)
C4B C -0.2110(9) -0.1920(8) -0.6445(5)
C5A C -0.6141(13) 0.2684(17) -0.1809(8)
C5C C -0.3859(13) 0.2684(17) -0.8191(8)
C5B C -0.6141(13) -0.2684(17) -0.8191(8)
H1A H -0.6915 0.3506 -0.2062
H1C H -0.3085 0.3506 -0.7938
H1B H -0.6915 -0.3506 -0.7938
H2A H -0.5375 0.3086 -0.1241
H2C H -0.4625 0.3086 -0.8759
H2B H -0.5375 -0.3086 -0.8759
H3A H -0.6839 0.1835 -0.1517
H3C H -0.3161 0.1835 -0.8483
H3B H -0.6839 -0.1835 -0.8483
C6B C -0.9832(16) 0.2215(11) -0.6529(6)
C6C C -0.0168(16) -0.2215(11) -0.6529(6)
C6A C -0.9832(16) -0.2215(11) -0.3471(6)
H4B H -1.0417 0.1802 -0.5887
H4C H 0.0417 -0.1802 -0.5887
H4A H -1.0417 -0.1802 -0.4113
H5B H -1.0290 0.1706 -0.7178
H5C H 0.0290 -0.1706 -0.7178
H5A H -1.0290 -0.1706 -0.2822
H6B H -1.0044 0.3326 -0.6578
H6C H 0.0044 -0.3326 -0.6578
H6A H -1.0044 -0.3326 -0.3422
N1B N 0.1780(11) 0.3511(10) 0.1026(6)
N1C N -0.1780(11) 0.6489(10) 0.1026(6)
N1A N -0.8220(11) -0.3511(10) -0.1026(6)
N1A_2 N 0.1780(11) 0.6489(10) -0.1026(6)
N1B_2 N -0.8220(11) 0.3511(10) -0.8974(6)
N1C_2 N -0.1780(11) -0.3511(10) -0.8974(6)
H7? H 0.1644 0.4551 0.5678
H8? H 0.1644 0.4389 0.4388
H9? H 0.1644 0.6060 0.4934
H10? H 0.0846 0.0576 0.0000
loop_
_geom_bond_atom_site_label_1
_geom_bond_atom_site_label_2
_geom_bond_site_symmetry_1
_geom_bond_site_symmetry_2
Ag1 N1 1_555 1_555
Yb1 O1 1_555 1_555
O1 C3 1_555 1_555
O2 Yb1 1_555 1_555
C1 C2 1_555 1_555
C2 C3 1_555 1_555
C3 C5A 1_555 1_555
C4 O2 1_555 1_555
C5 H1 1_555 1_555
H2 C5 1_555 1_555
H3 C5 1_555 1_555
C6 H4 1_555 1_555
H5 C6 1_555 1_555
H6 C6 1_555 1_555
N1 C1 1_555 1_555
N2 C7 1_555 1_555
C7 C8 1_555 1_555
Ag1_2 N1A 1_555 1_555
Ag1_3 N1B_2 1_555 1_555
Ag1_4 N1C_2 1_555 1_555
O1A Yb1 1_555 1_555
O1B Yb1 1_555 1_555
O1C Yb1 1_555 1_555
O2A Yb1 1_555 1_555
O2C Yb1 1_555 1_555
O2B Yb1 1_555 1_555
C1A C2A 1_555 1_555
C1B C2B 1_555 1_555
C1C C2C 1_555 1_555
C2A C4 1_555 1_555
C2B C3B 1_555 1_555
C2C C3C 1_555 1_555
C3A C5 1_555 1_555
C3B O1B 1_555 1_555
C3C O1C 1_555 1_555
C4A C2 1_555 1_555
C4C O2C 1_555 1_555
C4B O2B 1_555 1_555
C5A H1A 1_555 1_555
C5C C3B 1_555 1_555
C5B C3C 1_555 1_555
H1C C5C 1_555 1_555
H1B C5B 1_555 1_555
H2A C5A 1_555 1_555
H2C C5C 1_555 1_555
H2B C5B 1_555 1_555
H3A C5A 1_555 1_555
H3C C5C 1_555 1_555
H3B C5B 1_555 1_555
C6B C4C 1_555 1_555
C6C C4B 1_555 1_555
C6A C4 1_555 1_555
H4B C6B 1_555 1_555
H4C C6C 1_555 1_555
H4A C6A 1_555 1_555
H5B C6B 1_555 1_555
H5C C6C 1_555 1_555
H5A C6A 1_555 1_555
H6B C6B 1_555 1_555
H6C C6C 1_555 1_555
H6A C6A 1_555 1_555
N1B Ag1 1_555 1_555
N1C Ag1 1_555 1_555
N1A C1A 1_555 1_555
N1A_2 Ag1 1_555 1_555
N1B_2 C1B 1_555 1_555
N1C_2 C1C 1_555 1_555
C7A N2 1_555 1_555
C8A C7A 1_555 1_555
C6 C4A 1_555 1_555
O1A C3A 1_555 1_555
O2A C4A 1_555 1_555
C2A C3A 1_555 1_555
C2B C4C 1_555 1_555
C2C C4B 1_555 1_555

#END
