
#######################################################################
#
#                 Cambridge Crystallographic Data Centre
#                                CCDC 
#
#######################################################################
#
# If this CIF has been generated from an entry in the Cambridge 
# Structural Database, then it will include bibliographic, chemical, 
# crystal, experimental, refinement or atomic coordinate data resulting 
# from the CCDC's data processing and validation procedures.
#
#######################################################################

data_ZAXZAZ
_symmetry_cell_setting           orthorhombic
_symmetry_space_group_name_H-M   'P n m a'
_symmetry_Int_Tables_number      62
_space_group_name_Hall           '-P 2ac 2n'
loop_
_symmetry_equiv_pos_site_id
_symmetry_equiv_pos_as_xyz
1 x,y,z
2 1/2-x,-y,1/2+z
3 1/2+x,1/2-y,1/2-z
4 -x,1/2+y,-z
5 -x,-y,-z
6 1/2+x,y,1/2-z
7 1/2-x,1/2+y,1/2+z
8 x,1/2-y,z
_cell_length_a                   12.193(9)
_cell_length_b                   12.821(2)
_cell_length_c                   6.685(1)
_cell_angle_alpha                90
_cell_angle_beta                 90
_cell_angle_gamma                90
_cell_volume                     1045.04
loop_
_atom_site_label
_atom_site_type_symbol
_atom_site_fract_x
_atom_site_fract_y
_atom_site_fract_z
Cd1 Cd 0.20062(3) 0.2500 0.11438(5)
N1 N 0.3756(3) 0.2500 -0.1046(5)
N2 N 0.5482(3) 0.2500 -0.3278(6)
C1 C 0.1909(3) 0.4140(4) 0.1791(6)
C2 C 0.3457(5) 0.2500 -0.314(1)
C3 C 0.4466(5) 0.2500 -0.4479(9)
C4 C 0.4442(3) 0.1582(3) -0.0642(6)
C5 C 0.5456(3) 0.1584(3) -0.1974(7)
H1 H 0.2552 0.4353 0.2484
H2 H 0.1848 0.4520 0.0578
H3 H 0.1284 0.4272 0.2603
H4 H 0.3033 0.1895 -0.3412
H5 H 0.4453 0.3105 -0.5298
H6 H 0.4665 0.1592 0.0720
H7 H 0.4028 0.0969 -0.0894
H8 H 0.5451 0.0973 -0.2777
H9 H 0.6091 0.1586 -0.1152
C1G C 0.1909(3) 0.0860(4) 0.1791(6)
C4G C 0.4442(3) 0.3418(3) -0.0642(6)
H4G H 0.3033 0.3105 -0.3412
H1G H 0.2552 0.0647 0.2484
H2G H 0.1848 0.0480 0.0578
H3G H 0.1284 0.0728 0.2603
C5G C 0.5456(3) 0.3416(3) -0.1974(7)
H6G H 0.4665 0.3408 0.0720
H7G H 0.4028 0.4031 -0.0894
N2B N 0.0482(3) 0.2500 -0.1722(6)
H5G H 0.4453 0.1895 -0.5298
H8G H 0.5451 0.4027 -0.2777
H9G H 0.6091 0.3414 -0.1152
Cd1B Cd 0.70062(3) 0.2500 -0.61438(5)
loop_
_geom_bond_atom_site_label_1
_geom_bond_atom_site_label_2
_geom_bond_site_symmetry_1
_geom_bond_site_symmetry_2
Cd1 N1 1_555 1_555
N1 C2 1_555 1_555
N2 C3 1_555 1_555
C1 Cd1 1_555 1_555
C2 C3 1_555 1_555
C3 H5 1_555 1_555
C4 N1 1_555 1_555
C5 N2 1_555 1_555
H1 C1 1_555 1_555
H2 C1 1_555 1_555
H3 C1 1_555 1_555
H4 C2 1_555 1_555
H6 C4 1_555 1_555
H7 C4 1_555 1_555
H8 C5 1_555 1_555
H9 C5 1_555 1_555
C1G Cd1 1_555 1_555
C4G N1 1_555 1_555
H4G C2 1_555 1_555
H1G C1G 1_555 1_555
H2G C1G 1_555 1_555
H3G C1G 1_555 1_555
C5G N2 1_555 1_555
H6G C4G 1_555 1_555
H7G C4G 1_555 1_555
N2B Cd1 1_555 1_555
H5G C3 1_555 1_555
H8G C5G 1_555 1_555
H9G C5G 1_555 1_555
Cd1B N2 1_555 1_555
C4 C5 1_555 1_555
C4G C5G 1_555 1_555

#END
