
#######################################################################
#
#                 Cambridge Crystallographic Data Centre
#                                CCDC 
#
#######################################################################
#
# If this CIF has been generated from an entry in the Cambridge 
# Structural Database, then it will include bibliographic, chemical, 
# crystal, experimental, refinement or atomic coordinate data resulting 
# from the CCDC's data processing and validation procedures.
#
#######################################################################

data_ZAYBAE
_symmetry_cell_setting           tetragonal
_symmetry_space_group_name_H-M   'P 4 n c'
_symmetry_Int_Tables_number      104
_space_group_name_Hall           'P 4 -2n'
loop_
_symmetry_equiv_pos_site_id
_symmetry_equiv_pos_as_xyz
1 x,y,z
2 -x,-y,z
3 -y,x,z
4 y,-x,z
5 1/2+x,1/2-y,1/2+z
6 1/2-x,1/2+y,1/2+z
7 1/2-y,1/2-x,1/2+z
8 1/2+y,1/2+x,1/2+z
_cell_length_a                   14.6513(5)
_cell_length_b                   14.6513(5)
_cell_length_c                   19.1456(15)
_cell_angle_alpha                90
_cell_angle_beta                 90
_cell_angle_gamma                90
_cell_volume                     4109.81
loop_
_atom_site_label
_atom_site_type_symbol
_atom_site_fract_x
_atom_site_fract_y
_atom_site_fract_z
Cu1 Cu 0.46580(8) 0.33572(7) 0.41776(8)
Cl1 Cl 0.5000 0.5000 0.4028(3)
S1 S 0.52675(19) 0.12886(19) 0.32257(15)
S2 S 0.51829(17) 0.13225(16) 0.53001(13)
N1 N 0.4391(6) 0.2940(5) 0.3211(4)
N2 N 0.3907(6) 0.3452(6) 0.2745(5)
N3 N 0.3776(8) 0.2992(8) 0.2192(5)
N4 N 0.4198(7) 0.2175(6) 0.2278(4)
N5 N 0.5751(5) 0.2949(5) 0.4737(4)
N6 N 0.6469(5) 0.3528(5) 0.4814(4)
N7 N 0.7038(5) 0.3210(5) 0.5257(5)
N8 N 0.6675(5) 0.2425(5) 0.5510(4)
C1 C 0.5000 0.0000 0.4248(6)
C2 C 0.4456(6) 0.0688(6) 0.3790(4)
H1 H 0.4136 0.1120 0.4085
H2 H 0.4010 0.0366 0.3508
C3 C 0.5714(5) 0.0500(6) 0.4700(4)
H3 H 0.6139 0.0818 0.4398
H4 H 0.6056 0.0054 0.4969
C4 C 0.4580(7) 0.2164(7) 0.2906(5)
C5 C 0.4160(15) 0.1447(11) 0.1762(6)
H5 H 0.3672 0.1565 0.1439
H6 H 0.4054 0.0875 0.1993
H7 H 0.4728 0.1420 0.1513
C6 C 0.5893(6) 0.2267(5) 0.5165(4)
C7 C 0.7119(9) 0.1928(9) 0.6072(7)
H8 H 0.6920 0.2167 0.6514
H9 H 0.7768 0.1995 0.6032
H10 H 0.6961 0.1293 0.6043
Cu1A Cu 0.53420(8) 0.66428(7) 0.41776(8)
Cu1A_2 Cu 0.53420(8) -0.33572(7) 0.41776(8)
Cu1C Cu 0.33572(7) 0.53420(8) 0.41776(8)
Cu1B Cu 0.66428(7) 0.46580(8) 0.41776(8)
Cu1C_2 Cu 0.33572(7) -0.46580(8) 0.41776(8)
Cu1B_2 Cu -0.33572(7) 0.46580(8) 0.41776(8)
Cu1A_3 Cu -0.46580(8) 0.66428(7) 0.41776(8)
Cl1_2 Cl 0.5000 -0.5000 0.4028(3)
S1A S 0.47325(19) -0.12886(19) 0.32257(15)
S1C S 0.12886(19) 0.47325(19) 0.32257(15)
S1B S -0.12886(19) 0.52675(19) 0.32257(15)
S2A S 0.48171(17) -0.13225(16) 0.53001(13)
S2C S 0.13225(16) 0.48171(17) 0.53001(13)
S2B S -0.13225(16) 0.51829(17) 0.53001(13)
N1A N 0.5609(6) -0.2940(5) 0.3211(4)
N1C N 0.2940(5) 0.5609(6) 0.3211(4)
N1B N -0.2940(5) 0.4391(6) 0.3211(4)
N1A_2 N 0.5609(6) 0.7060(5) 0.3211(4)
N2A N 0.6093(6) -0.3452(6) 0.2745(5)
N2C N 0.3452(6) 0.6093(6) 0.2745(5)
N2B N -0.3452(6) 0.3907(6) 0.2745(5)
N3A N 0.6224(8) -0.2992(8) 0.2192(5)
N3C N 0.2992(8) 0.6224(8) 0.2192(5)
N3B N -0.2992(8) 0.3776(8) 0.2192(5)
N4A N 0.5802(7) -0.2175(6) 0.2278(4)
N4C N 0.2175(6) 0.5802(7) 0.2278(4)
N4B N -0.2175(6) 0.4198(7) 0.2278(4)
N5A N 0.4249(5) -0.2949(5) 0.4737(4)
N5C N 0.2949(5) 0.4249(5) 0.4737(4)
N5B N -0.2949(5) 0.5751(5) 0.4737(4)
N5A_2 N 0.4249(5) 0.7051(5) 0.4737(4)
N6A N 0.3531(5) -0.3528(5) 0.4814(4)
N6C N 0.3528(5) 0.3531(5) 0.4814(4)
N6B N -0.3528(5) 0.6469(5) 0.4814(4)
N6B_2 N 0.6472(5) 0.6469(5) 0.4814(4)
N6B_3 N 0.6472(5) -0.3531(5) 0.4814(4)
N6A_2 N 0.3531(5) 0.6472(5) 0.4814(4)
N7A N 0.2962(5) -0.3210(5) 0.5257(5)
N7C N 0.3210(5) 0.2962(5) 0.5257(5)
N7B N -0.3210(5) 0.7038(5) 0.5257(5)
N8A N 0.3325(5) -0.2425(5) 0.5510(4)
N8C N 0.2425(5) 0.3325(5) 0.5510(4)
N8B N -0.2425(5) 0.6675(5) 0.5510(4)
C1B C 0.0000 0.5000 0.4248(6)
C2A C 0.5544(6) -0.0688(6) 0.3790(4)
C2C C 0.0688(6) 0.5544(6) 0.3790(4)
C2B C -0.0688(6) 0.4456(6) 0.3790(4)
H1A H 0.5864 -0.1120 0.4085
H1C H 0.1120 0.5864 0.4085
H1B H -0.1120 0.4136 0.4085
H2A H 0.5990 -0.0366 0.3508
H2C H 0.0366 0.5990 0.3508
H2B H -0.0366 0.4010 0.3508
C3A C 0.4286(5) -0.0500(6) 0.4700(4)
C3C C 0.0500(6) 0.4286(5) 0.4700(4)
C3B C -0.0500(6) 0.5714(5) 0.4700(4)
H3A H 0.3861 -0.0818 0.4398
H3C H 0.0818 0.3861 0.4398
H3B H -0.0818 0.6139 0.4398
H4A H 0.3944 -0.0054 0.4969
H4C H 0.0054 0.3944 0.4969
H4B H -0.0054 0.6056 0.4969
C4A C 0.5420(7) -0.2164(7) 0.2906(5)
C4C C 0.2164(7) 0.5420(7) 0.2906(5)
C4B C -0.2164(7) 0.4580(7) 0.2906(5)
C5A C 0.5840(15) -0.1447(11) 0.1762(6)
C5C C 0.1447(11) 0.5840(15) 0.1762(6)
C5B C -0.1447(11) 0.4160(15) 0.1762(6)
H5A H 0.6328 -0.1565 0.1439
H5C H 0.1565 0.6328 0.1439
H5B H -0.1565 0.3672 0.1439
H6A H 0.5946 -0.0875 0.1993
H6C H 0.0875 0.5946 0.1993
H6B H -0.0875 0.4054 0.1993
H7A H 0.5272 -0.1420 0.1513
H7C H 0.1420 0.5272 0.1513
H7B H -0.1420 0.4728 0.1513
C6A C 0.4107(6) -0.2267(5) 0.5165(4)
C6C C 0.2267(5) 0.4107(6) 0.5165(4)
C6B C -0.2267(5) 0.5893(6) 0.5165(4)
C7A C 0.2881(9) -0.1928(9) 0.6072(7)
C7C C 0.1928(9) 0.2881(9) 0.6072(7)
C7B C -0.1928(9) 0.7119(9) 0.6072(7)
H8A H 0.3080 -0.2167 0.6514
H8C H 0.2167 0.3080 0.6514
H8B H -0.2167 0.6920 0.6514
H9A H 0.2232 -0.1995 0.6032
H9C H 0.1995 0.2232 0.6032
H9B H -0.1995 0.7768 0.6032
H10A H 0.3039 -0.1293 0.6043
H10C H 0.1293 0.3039 0.6043
H10B H -0.1293 0.6961 0.6043
P1 P 0.5000 0.5000 0.8509(3)
Mo1 Mo 0.67060(6) 0.48952(7) 0.98309(6)
Mo2 Mo 0.68056(6) 0.66204(7) 0.85185(7)
Mo3 Mo 0.50972(8) 0.67235(9) 0.72176(6)
O1 O 0.7493(6) 0.4859(8) 1.0452(5)
O2 O 0.7653(6) 0.7365(6) 0.8571(8)
O3 O 0.5109(9) 0.7484(10) 0.6585(6)
O4 O 0.7183(6) 0.5785(8) 0.9198(7)
O5 O 0.7222(9) 0.5779(8) 0.7827(7)
O6 O 0.6017(7) 0.7123(8) 0.7823(6)
O7 O 0.4134(9) 0.5964(8) 0.6868(6)
O8 O 0.7114(6) 0.4000(6) 0.9203(7)
O9 O 0.5831(6) 0.4083(7) 1.0164(6)
O10 O 0.5580(8) 0.4361(8) 0.8983(7)
O11 O 0.5643(9) 0.5561(9) 0.8060(6)
Mo1B Mo 0.51048(7) 0.67060(6) 0.98309(6)
Mo1C Mo 0.48952(7) 0.32940(6) 0.98309(6)
Mo1A Mo 0.32940(6) 0.51048(7) 0.98309(6)
Mo2C Mo 0.66204(7) 0.31944(6) 0.85185(7)
Mo2A Mo 0.31944(6) 0.33796(7) 0.85185(7)
Mo2B Mo 0.33796(7) 0.68056(6) 0.85185(7)
Mo3C Mo 0.67235(9) 0.49028(8) 0.72176(6)
Mo3A Mo 0.49028(8) 0.32765(9) 0.72176(6)
Mo3B Mo 0.32765(9) 0.50972(8) 0.72176(6)
O1B O 0.5141(8) 0.7493(6) 1.0452(5)
O1C O 0.4859(8) 0.2507(6) 1.0452(5)
O1A O 0.2507(6) 0.5141(8) 1.0452(5)
O2C O 0.7365(6) 0.2347(6) 0.8571(8)
O2A O 0.2347(6) 0.2635(6) 0.8571(8)
O2B O 0.2635(6) 0.7653(6) 0.8571(8)
O3C O 0.7484(10) 0.4891(9) 0.6585(6)
O3A O 0.4891(9) 0.2516(10) 0.6585(6)
O3B O 0.2516(10) 0.5109(9) 0.6585(6)
O4B O 0.4215(8) 0.7183(6) 0.9198(7)
O4C O 0.5785(8) 0.2817(6) 0.9198(7)
O4A O 0.2817(6) 0.4215(8) 0.9198(7)
O5B O 0.4221(8) 0.7222(9) 0.7827(7)
O5C O 0.5779(8) 0.2778(9) 0.7827(7)
O5A O 0.2778(9) 0.4221(8) 0.7827(7)
O6C O 0.7123(8) 0.3983(7) 0.7823(6)
O6A O 0.3983(7) 0.2877(8) 0.7823(6)
O6B O 0.2877(8) 0.6017(7) 0.7823(6)
O7C O 0.5964(8) 0.5866(9) 0.6868(6)
O7A O 0.5866(9) 0.4036(8) 0.6868(6)
O7B O 0.4036(8) 0.4134(9) 0.6868(6)
O8B O 0.6000(6) 0.7114(6) 0.9203(7)
O8C O 0.4000(6) 0.2886(6) 0.9203(7)
O8A O 0.2886(6) 0.6000(6) 0.9203(7)
O9B O 0.5917(7) 0.5831(6) 1.0164(6)
O9A O 0.4169(6) 0.5917(7) 1.0164(6)
O9C O 0.4083(7) 0.4169(6) 1.0164(6)
O10C O 0.4361(8) 0.4420(8) 0.8983(7)
O10B O 0.5639(8) 0.5580(8) 0.8983(7)
O10A O 0.4420(8) 0.5639(8) 0.8983(7)
O11C O 0.5561(9) 0.4357(9) 0.8060(6)
O11A O 0.4357(9) 0.4439(9) 0.8060(6)
O11B O 0.4439(9) 0.5643(9) 0.8060(6)
loop_
_geom_bond_atom_site_label_1
_geom_bond_atom_site_label_2
_geom_bond_site_symmetry_1
_geom_bond_site_symmetry_2
P1 O10 1_555 1_555
Mo1 O1 1_555 1_555
Mo2 O2 1_555 1_555
Mo3 O3 1_555 1_555
Cu1 Cl1 1_555 1_555
Cl1 Cu1A 1_555 1_555
S1 C2 1_555 1_555
S2 C3 1_555 1_555
O4 Mo1 1_555 1_555
O5 Mo2 1_555 1_555
O6 Mo2 1_555 1_555
O7 Mo3 1_555 1_555
O8 Mo1 1_555 1_555
O9 Mo1 1_555 1_555
O10 Mo1 1_555 1_555
O11 P1 1_555 1_555
N1 Cu1 1_555 1_555
N2 N1 1_555 1_555
N3 N2 1_555 1_555
N4 N3 1_555 1_555
N5 Cu1 1_555 1_555
N6 N5 1_555 1_555
N7 N6 1_555 1_555
N8 N7 1_555 1_555
C1 C2 1_555 1_555
C2 H1 1_555 1_555
H2 C2 1_555 1_555
C3 C1 1_555 1_555
H3 C3 1_555 1_555
H4 C3 1_555 1_555
C4 S1 1_555 1_555
C5 N4 1_555 1_555
H5 C5 1_555 1_555
H6 C5 1_555 1_555
H7 C5 1_555 1_555
C6 S2 1_555 1_555
C7 N8 1_555 1_555
H8 C7 1_555 1_555
H9 C7 1_555 1_555
H10 C7 1_555 1_555
Mo1B O1B 1_555 1_555
Mo1C O9 1_555 1_555
Mo1A O1A 1_555 1_555
Mo2C O8 1_555 1_555
Mo2A O2A 1_555 1_555
Mo2B O2B 1_555 1_555
Mo3C O5 1_555 1_555
Mo3A O3A 1_555 1_555
Mo3B O7 1_555 1_555
Cu1A N1A_2 1_555 1_555
Cu1A_2 Cl1_2 1_555 1_555
Cu1C Cl1 1_555 1_555
Cu1B Cl1 1_555 1_555
Cu1C_2 Cl1_2 1_555 1_555
Cu1B_2 N1B 1_555 1_555
Cu1A_3 N6B 1_555 1_555
S1A C2A 1_555 1_555
S1C C2C 1_555 1_555
S1B C2B 1_555 1_555
S2A C3A 1_555 1_555
S2C C3C 1_555 1_555
S2B C3B 1_555 1_555
O1C Mo1C 1_555 1_555
O2C Mo2C 1_555 1_555
O3C Mo3C 1_555 1_555
O3B Mo3B 1_555 1_555
O4B Mo1B 1_555 1_555
O4C Mo1C 1_555 1_555
O4A Mo1A 1_555 1_555
O5B Mo3 1_555 1_555
O5C Mo2C 1_555 1_555
O5A Mo2A 1_555 1_555
O6C Mo2C 1_555 1_555
O6A Mo2A 1_555 1_555
O6B Mo2B 1_555 1_555
O7C Mo3 1_555 1_555
O7A Mo3C 1_555 1_555
O7B Mo3A 1_555 1_555
O8B Mo2 1_555 1_555
O8C Mo1C 1_555 1_555
O8A Mo1A 1_555 1_555
O9B Mo1 1_555 1_555
O9A Mo1B 1_555 1_555
O9C Mo1C 1_555 1_555
O10C P1 1_555 1_555
O10B P1 1_555 1_555
O10A P1 1_555 1_555
O11C P1 1_555 1_555
O11A P1 1_555 1_555
O11B P1 1_555 1_555
N1A Cu1A_2 1_555 1_555
N1C Cu1C 1_555 1_555
N1B N2B 1_555 1_555
N2A N1A 1_555 1_555
N2C N1C 1_555 1_555
N2B N3B 1_555 1_555
N3A N2A 1_555 1_555
N3C N2C 1_555 1_555
N3B N4B 1_555 1_555
N4A N3A 1_555 1_555
N4C N3C 1_555 1_555
N4B C4B 1_555 1_555
N5A Cu1A_2 1_555 1_555
N5C Cu1C 1_555 1_555
N5B Cu1B_2 1_555 1_555
N5A_2 Cu1A 1_555 1_555
N6A Cu1C_2 1_555 1_555
N6C Cu1 1_555 1_555
N6B N5B 1_555 1_555
N6B_2 Cu1A 1_555 1_555
N6B_3 Cu1A_2 1_555 1_555
N6A_2 Cu1C 1_555 1_555
N7A N6A 1_555 1_555
N7C N6C 1_555 1_555
N7B N6B 1_555 1_555
N8A N7A 1_555 1_555
N8C N7C 1_555 1_555
N8B N7B 1_555 1_555
C1B C2C 1_555 1_555
C2A C1 1_555 1_555
C2C H1C 1_555 1_555
C2B C1B 1_555 1_555
H1A C2A 1_555 1_555
H1B C2B 1_555 1_555
H2A C2A 1_555 1_555
H2C C2C 1_555 1_555
H2B C2B 1_555 1_555
C3A C1 1_555 1_555
C3C C1B 1_555 1_555
C3B C1B 1_555 1_555
H3A C3A 1_555 1_555
H3C C3C 1_555 1_555
H3B C3B 1_555 1_555
H4A C3A 1_555 1_555
H4C C3C 1_555 1_555
H4B C3B 1_555 1_555
C4A S1A 1_555 1_555
C4C S1C 1_555 1_555
C4B S1B 1_555 1_555
C5A N4A 1_555 1_555
C5C N4C 1_555 1_555
C5B N4B 1_555 1_555
H5A C5A 1_555 1_555
H5C C5C 1_555 1_555
H5B C5B 1_555 1_555
H6A C5A 1_555 1_555
H6C C5C 1_555 1_555
H6B C5B 1_555 1_555
H7A C5A 1_555 1_555
H7C C5C 1_555 1_555
H7B C5B 1_555 1_555
C6A S2A 1_555 1_555
C6C S2C 1_555 1_555
C6B S2B 1_555 1_555
C7A N8A 1_555 1_555
C7C N8C 1_555 1_555
C7B N8B 1_555 1_555
H8A C7A 1_555 1_555
H8C C7C 1_555 1_555
H8B C7B 1_555 1_555
H9A C7A 1_555 1_555
H9C C7C 1_555 1_555
H9B C7B 1_555 1_555
H10A C7A 1_555 1_555
H10C C7C 1_555 1_555
H10B C7B 1_555 1_555
Mo1 O10B 1_555 1_555
Mo2 O4 1_555 1_555
Mo2 O11 1_555 1_555
Mo2 O10B 1_555 1_555
Mo3 O6 1_555 1_555
Mo3 O11 1_555 1_555
Mo3 O11B 1_555 1_555
O10 Mo1C 1_555 1_555
O10 Mo2C 1_555 1_555
O10 O10C 1_555 1_555
O10 O10B 1_555 1_555
O10 O11C 1_555 1_555
O11 Mo3C 1_555 1_555
O11 O10B 1_555 1_555
O11 O11C 1_555 1_555
O11 O11B 1_555 1_555
N1 C4 1_555 1_555
N4 C4 1_555 1_555
N5 C6 1_555 1_555
N6 Cu1B 1_555 1_555
N8 C6 1_555 1_555
Mo1B O8B 1_555 1_555
Mo1B O9B 1_555 1_555
Mo1B O10B 1_555 1_555
Mo1B O10A 1_555 1_555
Mo1C O10C 1_555 1_555
Mo1A O9A 1_555 1_555
Mo1A O9C 1_555 1_555
Mo1A O10C 1_555 1_555
Mo1A O10A 1_555 1_555
Mo2C O4C 1_555 1_555
Mo2C O11C 1_555 1_555
Mo2A O4A 1_555 1_555
Mo2A O8C 1_555 1_555
Mo2A O10C 1_555 1_555
Mo2A O11A 1_555 1_555
Mo2B O4B 1_555 1_555
Mo2B O5B 1_555 1_555
Mo2B O8A 1_555 1_555
Mo2B O10A 1_555 1_555
Mo2B O11B 1_555 1_555
Mo3C O6C 1_555 1_555
Mo3C O7C 1_555 1_555
Mo3C O11C 1_555 1_555
Mo3A O5C 1_555 1_555
Mo3A O6A 1_555 1_555
Mo3A O7A 1_555 1_555
Mo3A O11C 1_555 1_555
Mo3A O11A 1_555 1_555
Mo3B O5A 1_555 1_555
Mo3B O6B 1_555 1_555
Mo3B O7B 1_555 1_555
Mo3B O11A 1_555 1_555
Mo3B O11B 1_555 1_555
O10C O10A 1_555 1_555
O10C O11A 1_555 1_555
O10B O10A 1_555 1_555
O10A O11B 1_555 1_555
O11C O11A 1_555 1_555
O11A O11B 1_555 1_555
N1A C4A 1_555 1_555
N1C C4C 1_555 1_555
N1B C4B 1_555 1_555
N4A C4A 1_555 1_555
N4C C4C 1_555 1_555
N5A N6A 1_555 1_555
N5A C6A 1_555 1_555
N5C N6C 1_555 1_555
N5C C6C 1_555 1_555
N5B C6B 1_555 1_555
N5A_2 N6A_2 1_555 1_555
N8A C6A 1_555 1_555
N8C C6C 1_555 1_555
N8B C6B 1_555 1_555

#END
