
#######################################################################
#
#                 Cambridge Crystallographic Data Centre
#                                CCDC 
#
#######################################################################
#
# If this CIF has been generated from an entry in the Cambridge 
# Structural Database, then it will include bibliographic, chemical, 
# crystal, experimental, refinement or atomic coordinate data resulting 
# from the CCDC's data processing and validation procedures.
#
#######################################################################

data_ZAYBAC
_symmetry_cell_setting           monoclinic
_symmetry_space_group_name_H-M   'C 2/c'
_symmetry_Int_Tables_number      15
_space_group_name_Hall           '-C 2yn'
loop_
_symmetry_equiv_pos_site_id
_symmetry_equiv_pos_as_xyz
1 x,y,z
2 -x,y,1/2-z
3 1/2+x,1/2+y,z
4 1/2-x,1/2+y,1/2-z
5 -x,-y,-z
6 x,-y,1/2+z
7 1/2-x,1/2-y,-z
8 1/2+x,1/2-y,1/2+z
_cell_length_a                   27.571(4)
_cell_length_b                   5.062(1)
_cell_length_c                   17.284(3)
_cell_angle_alpha                90
_cell_angle_beta                 127.63(1)
_cell_angle_gamma                90
_cell_volume                     1910.41
loop_
_atom_site_label
_atom_site_type_symbol
_atom_site_fract_x
_atom_site_fract_y
_atom_site_fract_z
Ag1 Ag -0.01553(1) -0.18509(4) 0.42605(1)
O1 O 0.04167(6) 0.0631(3) 0.4039(1)
O2 O -0.04948(6) -0.3831(3) 0.49987(9)
O3 O 0.05855(6) 0.5620(4) 0.2307(1)
O4 O 0.18642(7) 0.0546(4) 0.5006(1)
N1 N 0.11646(7) 0.3336(4) 0.3759(1)
C1 C 0.05892(8) 0.2835(4) 0.4437(1)
C2 C 0.09540(9) 0.4623(5) 0.4251(1)
C3 C 0.09530(8) 0.3911(4) 0.2811(1)
C4 C 0.12825(8) 0.2072(5) 0.2609(1)
C5 C 0.16705(8) 0.0525(5) 0.3428(1)
C6 C 0.20392(9) -0.1377(6) 0.3457(2)
C7 C 0.20019(9) -0.1682(6) 0.2623(2)
C8 C 0.16195(9) -0.0122(6) 0.1807(2)
C9 C 0.12515(9) 0.1808(6) 0.1781(1)
C10 C 0.16010(9) 0.1338(5) 0.4179(1)
H1 H 0.1299(9) 0.524(6) 0.486(1)
H2 H 0.0697(9) 0.608(6) 0.386(2)
H3 H 0.231(1) -0.239(6) 0.401(2)
H4 H 0.225(1) -0.294(7) 0.262(2)
H5 H 0.160(1) -0.035(6) 0.126(2)
H6 H 0.096(1) 0.290(6) 0.120(2)
Ag1D Ag 0.01553(1) 0.18509(4) 0.57395(1)
O2D O 0.04948(6) -0.6169(3) 0.50013(9)
Ag1D_2 Ag 0.01553(1) -0.81491(4) 0.57395(1)
O2D_2 O 0.04948(6) 0.3831(3) 0.50013(9)
O1D O -0.04167(6) -0.0631(3) 0.5961(1)
O2_2 O -0.04948(6) 0.6169(3) 0.49987(9)
O3E O 0.05855(6) 0.4380(4) 0.7307(1)
C1D C -0.05892(8) -0.2835(4) 0.5563(1)
O3A O -0.05855(6) -0.4380(4) 0.2693(1)
C2D C -0.09540(9) -0.4623(5) 0.5749(1)
Ag1A Ag 0.01553(1) 0.81491(4) 0.07395(1)
N1D N -0.11646(7) -0.3336(4) 0.6241(1)
H1D H -0.1299(9) -0.524(6) 0.514(1)
H2D H -0.0697(9) -0.608(6) 0.614(2)
C3D C -0.09530(8) -0.3911(4) 0.7189(1)
C10D C -0.16010(9) -0.1338(5) 0.5821(1)
O3D O -0.05855(6) -0.5620(4) 0.7693(1)
C4D C -0.12825(8) -0.2072(5) 0.7391(1)
O4D O -0.18642(7) -0.0546(4) 0.4994(1)
C5D C -0.16705(8) -0.0525(5) 0.6572(1)
C9D C -0.12515(9) -0.1808(6) 0.8219(1)
C6D C -0.20392(9) 0.1377(6) 0.6543(2)
C8D C -0.16195(9) 0.0122(6) 0.8193(2)
H6D H -0.096(1) -0.290(6) 0.880(2)
C7D C -0.20019(9) 0.1682(6) 0.7377(2)
H3D H -0.231(1) 0.239(6) 0.599(2)
H5D H -0.160(1) 0.035(6) 0.874(2)
H4D H -0.225(1) 0.294(7) 0.738(2)
Ag1_2 Ag -0.01553(1) 0.81491(4) 0.42605(1)
Ag1E Ag -0.01553(1) -0.81491(4) 0.92605(1)
loop_
_geom_bond_atom_site_label_1
_geom_bond_atom_site_label_2
_geom_bond_site_symmetry_1
_geom_bond_site_symmetry_2
Ag1 O1 1_555 1_555
O1 C1 1_555 1_555
O2 Ag1 1_555 1_555
O3 C3 1_555 1_555
O4 C10 1_555 1_555
N1 C2 1_555 1_555
C1 C2 1_555 1_555
C2 H1 1_555 1_555
C3 N1 1_555 1_555
C4 C3 1_555 1_555
C5 C4 1_555 1_555
C6 C5 1_555 1_555
C7 C6 1_555 1_555
C8 C7 1_555 1_555
C9 C4 1_555 1_555
C10 N1 1_555 1_555
H2 C2 1_555 1_555
H3 C6 1_555 1_555
H4 C7 1_555 1_555
H5 C8 1_555 1_555
H6 C9 1_555 1_555
Ag1D Ag1 1_555 1_555
O2D Ag1 1_555 1_555
Ag1D_2 O2 1_555 1_555
O2D_2 C1 1_555 1_555
O1D Ag1D 1_555 1_555
O2_2 Ag1D 1_555 1_555
O3E Ag1D 1_555 1_555
C1D O2 1_555 1_555
O3A Ag1 1_555 1_555
C2D C1D 1_555 1_555
Ag1A O3 1_555 1_555
N1D C2D 1_555 1_555
H1D C2D 1_555 1_555
H2D C2D 1_555 1_555
C3D N1D 1_555 1_555
C10D N1D 1_555 1_555
O3D C3D 1_555 1_555
C4D C3D 1_555 1_555
O4D C10D 1_555 1_555
C5D C10D 1_555 1_555
C9D C4D 1_555 1_555
C6D C5D 1_555 1_555
C8D C9D 1_555 1_555
H6D C9D 1_555 1_555
C7D C6D 1_555 1_555
H3D C6D 1_555 1_555
H5D C8D 1_555 1_555
H4D C7D 1_555 1_555
Ag1_2 O2D_2 1_555 1_555
Ag1E O3D 1_555 1_555
C5 C10 1_555 1_555
C8 C9 1_555 1_555
Ag1D O2D_2 1_555 1_555
O2D Ag1D_2 1_555 1_555
O1D C1D 1_555 1_555
O2_2 Ag1_2 1_555 1_555
C4D C5D 1_555 1_555
C8D C7D 1_555 1_555

#END
