
#######################################################################
#
#                 Cambridge Crystallographic Data Centre
#                                CCDC 
#
#######################################################################
#
# If this CIF has been generated from an entry in the Cambridge 
# Structural Database, then it will include bibliographic, chemical, 
# crystal, experimental, refinement or atomic coordinate data resulting 
# from the CCDC's data processing and validation procedures.
#
#######################################################################

data_ZAYBEI
_symmetry_cell_setting           tetragonal
_symmetry_space_group_name_H-M   'I -4 2 d'
_symmetry_Int_Tables_number      122
_space_group_name_Hall           'I -4 2bw'
loop_
_symmetry_equiv_pos_site_id
_symmetry_equiv_pos_as_xyz
1 x,y,z
2 -x,-y,z
3 y,-x,-z
4 -y,x,-z
5 1/2-x,y,3/4-z
6 1/2+x,-y,3/4-z
7 1/2-y,-x,3/4+z
8 1/2+y,x,3/4+z
9 1/2+x,1/2+y,1/2+z
10 1/2-x,1/2-y,1/2+z
11 1/2+y,1/2-x,1/2-z
12 1/2-y,1/2+x,1/2-z
13 -x,1/2+y,1/4-z
14 x,1/2-y,1/4-z
15 -y,1/2-x,1/4+z
16 y,1/2+x,1/4+z
_cell_length_a                   20.3235(14)
_cell_length_b                   20.3235(14)
_cell_length_c                   39.008(6)
_cell_angle_alpha                90
_cell_angle_beta                 90
_cell_angle_gamma                90
_cell_volume                     16112
loop_
_atom_site_label
_atom_site_type_symbol
_atom_site_fract_x
_atom_site_fract_y
_atom_site_fract_z
O2 O 0.2444(10) 0.7346(8) 0.7733(4)
Si1 Si 0.2500 0.2502(4) 0.8750
Mo1 Mo 0.07782(9) 0.25164(15) 0.88494(5)
Mo2 Mo 0.14934(10) 0.33802(11) 0.81666(7)
Mo3 Mo 0.15001(12) 0.16502(18) 0.81707(8)
Mo4 Mo 0.32202(9) 0.33588(9) 0.80698(4)
Mo5 Mo 0.2500 0.42398(14) 0.8750
Mo6 Mo 0.17836(17) 0.16288(13) 0.94316(5)
Mo7 Mo 0.2500 0.07743(12) 0.8750
O3 O 0.242(2) 0.314(2) 0.8504(11)
O4 O 0.188(2) 0.253(2) 0.9065(11)
O5 O 0.238(2) 0.183(2) 0.8540(11)
O6 O 0.317(2) 0.252(2) 0.8951(11)
O7 O -0.0031(10) 0.2484(12) 0.8900(5)
O8 O 0.1003(12) 0.3678(14) 0.7894(6)
O9 O 0.0974(11) 0.1251(11) 0.7916(6)
O10 O 0.3570(9) 0.3754(10) 0.7746(5)
O11 O 0.2500 0.5044(12) 0.8750
O12 O 0.1428(8) 0.1234(8) 0.9760(4)
O13 O 0.2500 -0.0030(17) 0.8750
O14 O 0.0862(11) 0.3172(11) 0.8512(6)
O15 O 0.1382(10) 0.2521(11) 0.7996(5)
O16 O 0.0813(11) 0.1849(11) 0.8488(6)
O17 O 0.0923(12) 0.3235(12) 0.9213(6)
O18 O 0.2317(10) 0.3394(10) 0.7944(6)
O19 O 0.2338(11) 0.1736(11) 0.7979(6)
O20 O 0.1067(12) 0.1881(12) 0.9175(6)
O21 O 0.1957(10) 0.4124(10) 0.9174(5)
O22 O 0.3288(11) 0.2509(11) 0.7870(5)
O23 O 0.1908(11) 0.1009(11) 0.9079(6)
O24 O 0.1786(12) 0.0881(13) 0.8429(6)
O25 O 0.1776(10) 0.4006(10) 0.8479(6)
Mo1D Mo 0.42218(9) 0.25164(15) 0.86506(5)
Mo2D Mo 0.35066(10) 0.33802(11) 0.93334(7)
Mo3D Mo 0.34999(12) 0.16502(18) 0.93293(8)
Mo4D Mo 0.17798(9) 0.33588(9) 0.94302(4)
Mo6D Mo 0.32164(17) 0.16288(13) 0.80684(5)
O3D O 0.258(2) 0.314(2) 0.8996(11)
O4D O 0.312(2) 0.253(2) 0.8435(11)
O5D O 0.262(2) 0.183(2) 0.8960(11)
O6D O 0.183(2) 0.252(2) 0.8549(11)
O7D O 0.5031(10) 0.2484(12) 0.8600(5)
O8D O 0.3997(12) 0.3678(14) 0.9606(6)
O9D O 0.4026(11) 0.1251(11) 0.9584(6)
O10D O 0.1430(9) 0.3754(10) 0.9754(5)
O12D O 0.3572(8) 0.1234(8) 0.7740(4)
O14D O 0.4138(11) 0.3172(11) 0.8988(6)
O15D O 0.3618(10) 0.2521(11) 0.9504(5)
O16D O 0.4187(11) 0.1849(11) 0.9012(6)
O17D O 0.4077(12) 0.3235(12) 0.8287(6)
O18D O 0.2683(10) 0.3394(10) 0.9556(6)
O19D O 0.2662(11) 0.1736(11) 0.9521(6)
O20D O 0.3933(12) 0.1881(12) 0.8325(6)
O21D O 0.3043(10) 0.4124(10) 0.8326(5)
O22D O 0.1712(11) 0.2509(11) 0.9630(5)
O23D O 0.3092(11) 0.1009(11) 0.8421(6)
O24D O 0.3214(12) 0.0881(13) 0.9071(6)
O25D O 0.3224(10) 0.4006(10) 0.9021(6)
Cu1 Cu 0.81961(13) 1.15901(13) 0.90300(7)
Cu2 Cu 0.85201(15) 1.33311(15) 0.91143(7)
S1 S 0.9454(3) 1.0774(3) 0.95925(14)
S2 S 0.9522(3) 1.0804(3) 0.85602(16)
S3 S 0.9195(3) 1.4590(3) 0.97184(14)
S4 S 0.9216(4) 1.4632(3) 0.86241(17)
O1 O 0.7653(7) 1.2613(8) 0.9114(4)
N1 N 0.8896(8) 1.1916(9) 0.9351(5)
N2 N 0.8921(8) 1.2578(10) 0.9402(5)
N3 N 0.9406(9) 1.2675(9) 0.9621(4)
N4 N 0.9639(9) 1.2098(9) 0.9710(4)
N5 N 0.8242(9) 1.1237(8) 0.8556(4)
N6 N 0.7720(9) 1.1184(8) 0.8337(4)
N7 N 0.7891(9) 1.0900(9) 0.8068(4)
N8 N 0.8495(9) 1.0686(8) 0.8107(4)
N9 N 0.8120(10) 1.4029(10) 0.9394(5)
N10 N 0.7476(11) 1.4071(10) 0.9451(5)
N11 N 0.7286(10) 1.4425(11) 0.9657(6)
N12 N 0.7862(11) 1.4702(11) 0.9818(6)
N13 N 0.8814(9) 1.3355(10) 0.8643(5)
N14 N 0.8735(10) 1.2854(10) 0.8407(5)
N15 N 0.8918(10) 1.3046(12) 0.8123(6)
N16 N 0.9132(10) 1.3661(11) 0.8150(5)
C1 C 1.0000 1.0000 0.9069(7)
C2 C 1.0125(10) 1.0577(10) 0.9298(5)
H1 H 1.0212 1.0960 0.9156
H2 H 1.0519 1.0491 0.9431
C3 C 0.9380(10) 1.0107(9) 0.8849(5)
H3 H 0.9005 1.0197 0.8995
H4 H 0.9286 0.9714 0.8716
C4 C 0.9339(9) 1.1621(11) 0.9545(5)
C5 C 1.0156(11) 1.2074(12) 0.9984(6)
H5 H 1.0273 1.2514 1.0050
H6 H 1.0539 1.1851 0.9897
H7 H 0.9989 1.1841 1.0179
C6 C 0.8720(10) 1.0903(10) 0.8410(5)
C7 C 0.8851(12) 1.0299(11) 0.7834(5)
H8 H 0.8558 1.0217 0.7646
H9 H 0.8999 0.9888 0.7927
H10 H 0.9223 1.0547 0.7754
C8 C 1.0000 1.5000 0.9156(8)
C9 C 0.9413(11) 1.5234(12) 0.9383(6)
H11 H 0.9033 1.5317 0.9239
H12 H 0.9530 1.5643 0.9496
C10 C 0.9868(11) 1.4383(12) 0.8945(6)
H13 H 0.9711 1.4029 0.9090
H14 H 1.0264 1.4240 0.8828
C11 C 0.8377(13) 1.4430(12) 0.9629(6)
C12 C 0.7861(14) 1.5122(13) 1.0112(6)
H15 H 0.8305 1.5240 1.0169
H16 H 0.7664 1.4895 1.0302
H17 H 0.7613 1.5513 1.0063
C13 C 0.9089(12) 1.3836(12) 0.8471(6)
C14 C 0.9375(13) 1.4043(14) 0.7845(6)
H18 H 0.9509 1.4475 0.7917
H19 H 0.9028 1.4080 0.7679
H20 H 0.9743 1.3818 0.7744
Cu1A Cu 1.18039(13) 0.84099(13) 0.90300(7)
Cu1D Cu 0.68039(13) 1.15901(13) 0.84700(7)
Cu1E Cu 1.31961(13) 0.84099(13) 0.84700(7)
Cu2A Cu 1.14799(15) 0.66689(15) 0.91143(7)
Cu2A_2 Cu 1.14799(15) 1.66689(15) 0.91143(7)
S1A S 1.0546(3) 0.9226(3) 0.95925(14)
S2A S 1.0478(3) 0.9196(3) 0.85602(16)
S3A S 1.0805(3) 1.5410(3) 0.97184(14)
S4A S 1.0784(4) 1.5368(3) 0.86241(17)
O1A O 1.2347(7) 0.7387(8) 0.9114(4)
N1A N 1.1104(8) 0.8084(9) 0.9351(5)
N2A N 1.1079(8) 0.7422(10) 0.9402(5)
N3A N 1.0594(9) 0.7325(9) 0.9621(4)
N4A N 1.0361(9) 0.7902(9) 0.9710(4)
N5A N 1.1758(9) 0.8763(8) 0.8556(4)
N6A N 1.2280(9) 0.8816(8) 0.8337(4)
N6D N 0.7280(9) 1.1184(8) 0.9163(4)
N6E N 1.2720(9) 0.8816(8) 0.9163(4)
N7A N 1.2109(9) 0.9100(9) 0.8068(4)
N8A N 1.1505(9) 0.9314(8) 0.8107(4)
N9A N 1.1880(10) 1.5971(10) 0.9394(5)
N9A_2 N 1.1880(10) 0.5971(10) 0.9394(5)
N10A N 1.2524(11) 1.5929(10) 0.9451(5)
N11A N 1.2714(10) 1.5575(11) 0.9657(6)
N12A N 1.2138(11) 1.5298(11) 0.9818(6)
N13A N 1.1186(9) 1.6645(10) 0.8643(5)
N13A_2 N 1.1186(9) 0.6645(10) 0.8643(5)
N14A N 1.1265(10) 1.7146(10) 0.8407(5)
N15A N 1.1082(10) 1.6954(12) 0.8123(6)
N16A N 1.0868(10) 1.6339(11) 0.8150(5)
C2A C 0.9875(10) 0.9423(10) 0.9298(5)
H1A H 0.9788 0.9040 0.9156
H2A H 0.9481 0.9509 0.9431
C3A C 1.0620(10) 0.9893(9) 0.8849(5)
H3A H 1.0995 0.9803 0.8995
H4A H 1.0714 1.0286 0.8716
C4A C 1.0661(9) 0.8379(11) 0.9545(5)
C5A C 0.9844(11) 0.7926(12) 0.9984(6)
H5A H 0.9727 0.7486 1.0050
H6A H 0.9461 0.8149 0.9897
H7A H 1.0011 0.8159 1.0179
C6A C 1.1280(10) 0.9097(10) 0.8410(5)
C7A C 1.1149(12) 0.9701(11) 0.7834(5)
H8A H 1.1442 0.9783 0.7646
H9A H 1.1001 1.0112 0.7927
H10A H 1.0777 0.9453 0.7754
C9A C 1.0587(11) 1.4766(12) 0.9383(6)
H11A H 1.0967 1.4683 0.9239
H12A H 1.0470 1.4357 0.9496
C10A C 1.0132(11) 1.5617(12) 0.8945(6)
H13A H 1.0289 1.5971 0.9090
H14A H 0.9736 1.5760 0.8828
C11A C 1.1623(13) 1.5570(12) 0.9629(6)
C12A C 1.2139(14) 1.4878(13) 1.0112(6)
H15A H 1.1695 1.4760 1.0169
H16A H 1.2336 1.5105 1.0302
H17A H 1.2387 1.4487 1.0063
C13A C 1.0911(12) 1.6164(12) 0.8471(6)
C14A C 1.0625(13) 1.5957(14) 0.7845(6)
H18A H 1.0491 1.5525 0.7917
H19A H 1.0972 1.5920 0.7679
H20A H 1.0257 1.6182 0.7744
loop_
_geom_bond_atom_site_label_1
_geom_bond_atom_site_label_2
_geom_bond_site_symmetry_1
_geom_bond_site_symmetry_2
Cu1 O1 1_555 1_555
Cu2 O1 1_555 1_555
S1 C2 1_555 1_555
S2 C3 1_555 1_555
S3 C9 1_555 1_555
S4 C10 1_555 1_555
N1 Cu1 1_555 1_555
N2 Cu2 1_555 1_555
N3 N2 1_555 1_555
N4 N3 1_555 1_555
N5 Cu1 1_555 1_555
N6 N5 1_555 1_555
N7 N6 1_555 1_555
N8 N7 1_555 1_555
N9 Cu2 1_555 1_555
N10 N9 1_555 1_555
N11 N10 1_555 1_555
N12 N11 1_555 1_555
N13 Cu2 1_555 1_555
N14 N13 1_555 1_555
N15 N14 1_555 1_555
N16 N15 1_555 1_555
C1 C2 1_555 1_555
C2 H1 1_555 1_555
H2 C2 1_555 1_555
C3 C1 1_555 1_555
H3 C3 1_555 1_555
H4 C3 1_555 1_555
C4 S1 1_555 1_555
C5 N4 1_555 1_555
H5 C5 1_555 1_555
H6 C5 1_555 1_555
H7 C5 1_555 1_555
C6 S2 1_555 1_555
C7 N8 1_555 1_555
H8 C7 1_555 1_555
H9 C7 1_555 1_555
H10 C7 1_555 1_555
C8 C9 1_555 1_555
C9 H11 1_555 1_555
H12 C9 1_555 1_555
C10 C8 1_555 1_555
H13 C10 1_555 1_555
H14 C10 1_555 1_555
C11 S3 1_555 1_555
C12 N12 1_555 1_555
H15 C12 1_555 1_555
H16 C12 1_555 1_555
H17 C12 1_555 1_555
C13 S4 1_555 1_555
C14 N16 1_555 1_555
H18 C14 1_555 1_555
H19 C14 1_555 1_555
H20 C14 1_555 1_555
Si1 O3 1_555 1_555
Mo1 O4 1_555 1_555
Mo2 O3 1_555 1_555
Mo3 O5 1_555 1_555
Mo4 O3 1_555 1_555
Mo5 O3 1_555 1_555
Mo6 O4 1_555 1_555
Mo7 O5 1_555 1_555
O3 O6D 1_555 1_555
O4 Si1 1_555 1_555
O5 Si1 1_555 1_555
O6 Si1 1_555 1_555
O7 Mo1 1_555 1_555
O8 Mo2 1_555 1_555
O9 Mo3 1_555 1_555
O10 Mo4 1_555 1_555
O11 Mo5 1_555 1_555
O12 Mo6 1_555 1_555
O13 Mo7 1_555 1_555
O14 Mo1 1_555 1_555
O15 Mo2 1_555 1_555
O16 Mo1 1_555 1_555
O17 Mo1 1_555 1_555
O18 Mo2 1_555 1_555
O19 Mo3 1_555 1_555
O20 Mo1 1_555 1_555
O21 Mo5 1_555 1_555
O22 Mo4 1_555 1_555
O23 Mo6 1_555 1_555
O24 Mo3 1_555 1_555
O25 Mo2 1_555 1_555
Cu1A O1A 1_555 1_555
Cu1D N6 1_555 1_555
Cu1E N6A 1_555 1_555
Cu2A O1A 1_555 1_555
Cu2A_2 N9A 1_555 1_555
S1A C2A 1_555 1_555
S2A C3A 1_555 1_555
S3A C9A 1_555 1_555
S4A C10A 1_555 1_555
N1A Cu1A 1_555 1_555
N2A Cu2A 1_555 1_555
N3A N2A 1_555 1_555
N4A N3A 1_555 1_555
N5A Cu1A 1_555 1_555
N6A N5A 1_555 1_555
N6D Cu1 1_555 1_555
N6E Cu1A 1_555 1_555
N7A N6A 1_555 1_555
N8A N7A 1_555 1_555
N9A N10A 1_555 1_555
N9A_2 Cu2A 1_555 1_555
N10A N11A 1_555 1_555
N11A N12A 1_555 1_555
N12A C11A 1_555 1_555
N13A Cu2A_2 1_555 1_555
N13A_2 Cu2A 1_555 1_555
N14A N13A 1_555 1_555
N15A N14A 1_555 1_555
N16A N15A 1_555 1_555
C2A C1 1_555 1_555
H1A C2A 1_555 1_555
H2A C2A 1_555 1_555
C3A C1 1_555 1_555
H3A C3A 1_555 1_555
H4A C3A 1_555 1_555
C4A S1A 1_555 1_555
C5A N4A 1_555 1_555
H5A C5A 1_555 1_555
H6A C5A 1_555 1_555
H7A C5A 1_555 1_555
C6A S2A 1_555 1_555
C7A N8A 1_555 1_555
H8A C7A 1_555 1_555
H9A C7A 1_555 1_555
H10A C7A 1_555 1_555
C9A C8 1_555 1_555
H11A C9A 1_555 1_555
H12A C9A 1_555 1_555
C10A C8 1_555 1_555
H13A C10A 1_555 1_555
H14A C10A 1_555 1_555
C11A S3A 1_555 1_555
C12A N12A 1_555 1_555
H15A C12A 1_555 1_555
H16A C12A 1_555 1_555
H17A C12A 1_555 1_555
C13A S4A 1_555 1_555
C14A N16A 1_555 1_555
H18A C14A 1_555 1_555
H19A C14A 1_555 1_555
H20A C14A 1_555 1_555
Mo1D O6 1_555 1_555
Mo2D O6 1_555 1_555
Mo3D O6 1_555 1_555
Mo4D O4 1_555 1_555
Mo6D O19 1_555 1_555
O3D Si1 1_555 1_555
O4D Si1 1_555 1_555
O5D Si1 1_555 1_555
O6D Si1 1_555 1_555
O7D Mo1D 1_555 1_555
O8D Mo2D 1_555 1_555
O9D Mo3D 1_555 1_555
O10D Mo4D 1_555 1_555
O12D Mo6D 1_555 1_555
O14D Mo1D 1_555 1_555
O15D Mo2D 1_555 1_555
O16D Mo1D 1_555 1_555
O17D Mo4 1_555 1_555
O18D Mo2D 1_555 1_555
O19D Mo6 1_555 1_555
O20D Mo1D 1_555 1_555
O21D Mo4 1_555 1_555
O22D Mo6 1_555 1_555
O23D Mo7 1_555 1_555
O24D Mo7 1_555 1_555
O25D Mo5 1_555 1_555
N1 N2 1_555 1_555
N1 C4 1_555 1_555
N4 C4 1_555 1_555
N5 C6 1_555 1_555
N8 C6 1_555 1_555
N9 C11 1_555 1_555
N12 C11 1_555 1_555
N13 C13 1_555 1_555
N16 C13 1_555 1_555
Mo1 O6D 1_555 1_555
Mo2 O14 1_555 1_555
Mo2 O6D 1_555 1_555
Mo3 O15 1_555 1_555
Mo3 O16 1_555 1_555
Mo3 O6D 1_555 1_555
Mo4 O18 1_555 1_555
Mo4 O4D 1_555 1_555
Mo5 O25 1_555 1_555
Mo5 O3D 1_555 1_555
Mo5 O21D 1_555 1_555
Mo6 O20 1_555 1_555
Mo7 O23 1_555 1_555
Mo7 O24 1_555 1_555
Mo7 O5D 1_555 1_555
O5 O5D 1_555 1_555
O5 O6D 1_555 1_555
O6 O3D 1_555 1_555
O6 O5D 1_555 1_555
O17 Mo4D 1_555 1_555
O21 Mo4D 1_555 1_555
O22 Mo6D 1_555 1_555
N1A N2A 1_555 1_555
N1A C4A 1_555 1_555
N4A C4A 1_555 1_555
N5A C6A 1_555 1_555
N8A C6A 1_555 1_555
N9A C11A 1_555 1_555
N13A C13A 1_555 1_555
N16A C13A 1_555 1_555
Mo1D O4D 1_555 1_555
Mo1D O17D 1_555 1_555
Mo2D O3D 1_555 1_555
Mo2D O14D 1_555 1_555
Mo2D O25D 1_555 1_555
Mo3D O5D 1_555 1_555
Mo3D O15D 1_555 1_555
Mo3D O16D 1_555 1_555
Mo3D O19D 1_555 1_555
Mo3D O24D 1_555 1_555
Mo4D O3D 1_555 1_555
Mo4D O18D 1_555 1_555
Mo4D O22D 1_555 1_555
Mo6D O4D 1_555 1_555
Mo6D O20D 1_555 1_555
Mo6D O23D 1_555 1_555

#END
