
#######################################################################
#
#                 Cambridge Crystallographic Data Centre
#                                CCDC 
#
#######################################################################
#
# If this CIF has been generated from an entry in the Cambridge 
# Structural Database, then it will include bibliographic, chemical, 
# crystal, experimental, refinement or atomic coordinate data resulting 
# from the CCDC's data processing and validation procedures.
#
#######################################################################

data_ZAYJOA
_symmetry_cell_setting           monoclinic
_symmetry_space_group_name_H-M   'P 21/c'
_symmetry_Int_Tables_number      14
_space_group_name_Hall           '-P 2ybc'
loop_
_symmetry_equiv_pos_site_id
_symmetry_equiv_pos_as_xyz
1 x,y,z
2 -x,1/2+y,1/2-z
3 -x,-y,-z
4 x,1/2-y,1/2+z
_cell_length_a                   12.283(5)
_cell_length_b                   21.743(5)
_cell_length_c                   22.757(5)
_cell_angle_alpha                90
_cell_angle_beta                 91.631(5)
_cell_angle_gamma                90
_cell_volume                     6075.23
loop_
_atom_site_label
_atom_site_type_symbol
_atom_site_fract_x
_atom_site_fract_y
_atom_site_fract_z
Ce1 Ce 0.14677(13) -0.11443(7) 0.08346(7)
Ce2 Ce 0.63329(14) -0.21126(7) 0.08523(8)
W1 W 0.31677(12) -0.53414(6) 0.35167(7)
W2 W 0.24144(12) -0.40329(7) 0.41137(6)
W3 W 0.05903(11) -0.48721(6) 0.33583(7)
W4 W -0.00605(11) -0.35692(6) 0.24347(7)
W5 W 0.19641(12) -0.28147(6) 0.17810(7)
W6 W 0.17371(11) -0.27134(6) 0.32425(6)
W7 W 0.45222(11) -0.31948(6) 0.34126(6)
W8 W 0.47088(11) -0.33342(6) 0.19529(8)
W9 W 0.53288(10) -0.45432(6) 0.28151(6)
W10 W 0.34337(12) -0.54480(6) 0.19464(6)
W11 W 0.07932(11) -0.49903(6) 0.17840(6)
W12 W 0.27851(11) -0.42114(6) 0.10860(6)
C1 C 0.193(2) -0.0878(12) 0.2419(13)
H1 H 0.1232 -0.0677 0.2378
C2 C 0.240(3) -0.0950(14) 0.2985(16)
H2 H 0.2046 -0.0821 0.3334
C3 C 0.384(3) -0.1377(16) 0.2569(17)
H3 H 0.4571 -0.1536 0.2601
C4 C 0.339(2) -0.1312(11) 0.1994(11)
C5 C 0.395(2) -0.1478(12) 0.1407(12)
C6 C 0.706(2) -0.2183(13) 0.2402(14)
H4 H 0.6356 -0.2372 0.2409
C7 C 0.762(3) -0.2110(14) 0.2921(16)
H5 H 0.7266 -0.2181 0.3286
C8 C 0.909(3) -0.1799(13) 0.2403(14)
H6 H 0.9833 -0.1668 0.2396
C9 C 0.8510(19) -0.1849(10) 0.1904(11)
C10 C 0.886(3) -0.1741(14) 0.1319(15)
N1 N 0.7412(18) -0.2020(9) 0.1902(10)
N2 N 0.864(2) -0.1930(10) 0.2934(11)
N3 N 0.2396(19) -0.1070(10) 0.1947(11)
N4 N 0.342(2) -0.1226(11) 0.3022(12)
O2 O 0.2264(17) -0.4500(9) 0.3317(9)
O4 O 0.1774(19) -0.3426(10) 0.2553(11)
O6 O 0.399(2) -0.3847(10) 0.2707(10)
O8 O 0.243(2) -0.4564(12) 0.2036(13)
O9 O -0.1402(19) -0.3415(10) 0.2375(11)
O12 O 0.1807(16) -0.2186(8) 0.1288(8)
O13 O 0.145(2) -0.2050(10) 0.3637(12)
O15 O 0.534(2) -0.2771(9) 0.3866(11)
O17 O 0.5665(15) -0.2919(8) 0.1541(9)
O19 O 0.6609(16) -0.4844(9) 0.2913(9)
O20 O 0.3925(19) -0.6130(9) 0.1729(12)
O21 O -0.020(2) -0.5418(11) 0.1436(12)
O22 O 0.2932(18) -0.4169(12) 0.0377(10)
O23 O 0.3061(18) -0.4843(10) 0.4233(13)
O24 O 0.1604(18) -0.5508(10) 0.3570(11)
O25 O 0.451(2) -0.4946(11) 0.3394(11)
O26 O 0.317(2) -0.5635(13) 0.2740(14)
O27 O 0.099(2) -0.4472(10) 0.4088(11)
O28 O 0.379(2) -0.3691(11) 0.3982(11)
O29 O 0.172(2) -0.3320(11) 0.3843(11)
O30 O -0.0043(19) -0.4154(10) 0.3047(10)
O31 O 0.0562(19) -0.5187(10) 0.2575(10)
O32 O 0.041(2) -0.3002(11) 0.1858(11)
O33 O 0.0320(19) -0.2965(10) 0.3040(11)
O34 O 0.0174(18) -0.4223(10) 0.1904(10)
O35 O 0.1856(19) -0.2303(11) 0.2511(11)
O36 O 0.3437(17) -0.2850(9) 0.1902(11)
O37 O 0.207(2) -0.3477(11) 0.1236(12)
O38 O 0.3284(17) -0.2734(9) 0.3293(10)
O39 O 0.503(2) -0.2868(10) 0.2709(11)
O40 O 0.5560(18) -0.3889(9) 0.3397(10)
O41 O 0.5730(19) -0.3975(10) 0.2221(10)
O42 O 0.411(2) -0.3876(11) 0.1428(13)
O43 O 0.469(2) -0.5052(12) 0.2211(12)
O44 O 0.1928(19) -0.5604(11) 0.1767(12)
O45 O 0.3511(16) -0.4963(9) 0.1252(9)
O46 O 0.149(2) -0.4602(11) 0.1138(12)
O47 O 0.4851(15) -0.1723(9) 0.1502(10)
O48 O 0.3453(16) -0.1360(9) 0.0958(9)
O49 O 0.2306(15) -0.3903(9) 0.4862(9)
O50 O 0.0825(19) -0.2067(10) 0.0159(10)
O51 O -0.001(2) -0.0710(12) 0.0142(11)
O52 O 0.236(2) -0.0125(10) 0.0713(15)
O53 O -0.0501(16) -0.5270(9) 0.3620(10)
O54 O 0.9910(17) -0.1524(9) 0.1329(10)
O55 O 0.513(2) -0.2869(11) 0.0289(12)
O56 O 0.752(2) -0.3047(9) 0.0794(12)
O57 O 0.697(2) -0.2096(12) -0.0187(13)
O58 O 0.498(2) -0.1503(11) 0.0206(11)
O59 O 0.8340(16) -0.1798(8) 0.0862(8)
O60 O 0.3489(16) -0.5979(9) 0.3896(9)
Ce1A Ce -0.14677(13) -0.61443(7) 0.41654(7)
Ce1C Ce 0.14677(13) -0.38557(7) 0.58346(7)
Ce1_2 Ce 1.14677(13) -0.11443(7) 0.08346(7)
Ce2A Ce 0.36671(14) -0.71126(7) 0.41477(8)
O49C O 0.2306(15) -0.1097(9) -0.0138(9)
O53A O 0.0501(16) -0.0270(9) 0.1380(10)
O54_2 O -0.0090(17) -0.1524(9) 0.1329(10)
O60A O 0.6511(16) -0.0979(9) 0.1104(9)
N5 N -0.0290(19) -0.3103(11) 0.0622(11)
H7 H 0.0073 -0.3338 0.0926
H8 H -0.0255 -0.3320 0.0255
H9 H -0.1039 -0.3044 0.0718
H10 H 0.0059 -0.2711 0.0586
N6 N -0.248(2) -0.4151(14) 0.1428(14)
H11 H -0.1856 -0.4282 0.1658
H12 H -0.2800 -0.4499 0.1230
H13 H -0.3005 -0.3970 0.1682
H14 H -0.2263 -0.3853 0.1144
O1 O 0.401(3) -0.1423(17) 0.4130(11)
O3 O 0.443(2) 0.0353(13) 0.0384(10)
O5 O -0.093(3) -0.1922(14) -0.0657(12)
O7 O 0.290(2) -0.2282(13) 0.4866(15)
O10 O -0.074(2) -0.1807(16) 0.4047(12)
O11 O 0.079(5) -0.119(3) 0.474(3)
O14 O 0.214(2) 0.1081(14) 0.1352(14)
O16 O -0.425(7) -0.405(4) -0.007(4)
O18 O -0.205(5) -0.093(3) 0.458(3)
loop_
_geom_bond_atom_site_label_1
_geom_bond_atom_site_label_2
_geom_bond_site_symmetry_1
_geom_bond_site_symmetry_2
Ce1 N3 1_555 1_555
Ce2 N1 1_555 1_555
W1 O2 1_555 1_555
W2 O2 1_555 1_555
W3 O2 1_555 1_555
W4 O4 1_555 1_555
W5 O4 1_555 1_555
W6 O4 1_555 1_555
W7 O6 1_555 1_555
W8 O6 1_555 1_555
W9 O6 1_555 1_555
W10 O8 1_555 1_555
W11 O8 1_555 1_555
W12 O8 1_555 1_555
C1 H1 1_555 1_555
C2 C1 1_555 1_555
H2 C2 1_555 1_555
C3 H3 1_555 1_555
C4 C3 1_555 1_555
C5 C4 1_555 1_555
C6 H4 1_555 1_555
C7 C6 1_555 1_555
H5 C7 1_555 1_555
C8 H6 1_555 1_555
C9 C8 1_555 1_555
C10 C9 1_555 1_555
N1 C6 1_555 1_555
N2 C7 1_555 1_555
N3 C1 1_555 1_555
N4 C2 1_555 1_555
N5 H7 1_555 1_555
H8 N5 1_555 1_555
H9 N5 1_555 1_555
H10 N5 1_555 1_555
N6 H11 1_555 1_555
H12 N6 1_555 1_555
H13 N6 1_555 1_555
H14 N6 1_555 1_555
O9 W4 1_555 1_555
O12 Ce1 1_555 1_555
O13 W6 1_555 1_555
O15 W7 1_555 1_555
O17 Ce2 1_555 1_555
O19 W9 1_555 1_555
O20 W10 1_555 1_555
O21 W11 1_555 1_555
O22 W12 1_555 1_555
O23 W1 1_555 1_555
O24 W1 1_555 1_555
O25 W1 1_555 1_555
O26 W1 1_555 1_555
O27 W2 1_555 1_555
O28 W2 1_555 1_555
O29 W2 1_555 1_555
O30 W3 1_555 1_555
O31 W3 1_555 1_555
O32 W4 1_555 1_555
O33 W4 1_555 1_555
O34 W4 1_555 1_555
O35 W5 1_555 1_555
O36 W5 1_555 1_555
O37 W5 1_555 1_555
O38 W6 1_555 1_555
O39 W7 1_555 1_555
O40 W7 1_555 1_555
O41 W8 1_555 1_555
O42 W8 1_555 1_555
O43 W9 1_555 1_555
O44 W10 1_555 1_555
O45 W10 1_555 1_555
O46 W11 1_555 1_555
O47 Ce2 1_555 1_555
O48 Ce1 1_555 1_555
O49 W2 1_555 1_555
O50 Ce1 1_555 1_555
O51 Ce1 1_555 1_555
O52 Ce1 1_555 1_555
O53 W3 1_555 1_555
O54 C10 1_555 1_555
O55 Ce2 1_555 1_555
O56 Ce2 1_555 1_555
O57 Ce2 1_555 1_555
O58 Ce2 1_555 1_555
O59 Ce2 1_555 1_555
O60 W1 1_555 1_555
Ce1A O53 1_555 1_555
Ce1C O49 1_555 1_555
Ce1_2 O54 1_555 1_555
Ce2A O60 1_555 1_555
O49C Ce1 1_555 1_555
O53A Ce1 1_555 1_555
O54_2 Ce1 1_555 1_555
O60A Ce2 1_555 1_555
W2 O23 1_555 1_555
W3 O24 1_555 1_555
W3 O27 1_555 1_555
W4 O30 1_555 1_555
W5 O12 1_555 1_555
W5 O32 1_555 1_555
W6 O29 1_555 1_555
W6 O33 1_555 1_555
W6 O35 1_555 1_555
W7 O28 1_555 1_555
W7 O38 1_555 1_555
W8 O17 1_555 1_555
W8 O36 1_555 1_555
W8 O39 1_555 1_555
W9 O25 1_555 1_555
W9 O40 1_555 1_555
W9 O41 1_555 1_555
W10 O26 1_555 1_555
W10 O43 1_555 1_555
W11 O31 1_555 1_555
W11 O34 1_555 1_555
W11 O44 1_555 1_555
W12 O37 1_555 1_555
W12 O42 1_555 1_555
W12 O45 1_555 1_555
W12 O46 1_555 1_555
C3 N4 1_555 1_555
C4 N3 1_555 1_555
C5 O47 1_555 1_555
C5 O48 1_555 1_555
C8 N2 1_555 1_555
C9 N1 1_555 1_555
C10 O59 1_555 1_555

#END
