
#######################################################################
#
#                 Cambridge Crystallographic Data Centre
#                                CCDC 
#
#######################################################################
#
# If this CIF has been generated from an entry in the Cambridge 
# Structural Database, then it will include bibliographic, chemical, 
# crystal, experimental, refinement or atomic coordinate data resulting 
# from the CCDC's data processing and validation procedures.
#
#######################################################################

data_ZAYQAT
_symmetry_cell_setting           triclinic
_symmetry_space_group_name_H-M   'P -1'
_symmetry_Int_Tables_number      2
_space_group_name_Hall           '-P 1'
loop_
_symmetry_equiv_pos_site_id
_symmetry_equiv_pos_as_xyz
1 x,y,z
2 -x,-y,-z
_cell_length_a                   9.938(2)
_cell_length_b                   12.569(3)
_cell_length_c                   12.762(3)
_cell_angle_alpha                63.939(4)
_cell_angle_beta                 86.424(3)
_cell_angle_gamma                71.117(4)
_cell_volume                     1348.98
loop_
_atom_site_label
_atom_site_type_symbol
_atom_site_fract_x
_atom_site_fract_y
_atom_site_fract_z
Cu1 Cu 0.11391(5) 0.11583(4) 0.40658(5)
C1 C 0.4254(4) 0.2785(4) 0.2650(4)
C2 C 0.5616(4) 0.1896(4) 0.3084(3)
H1 H 0.5712 0.1059 0.3561
C3 C 0.6818(4) 0.2252(4) 0.2810(4)
C4 C 0.6667(4) 0.3501(4) 0.2093(3)
H2 H 0.7477 0.3740 0.1897
C5 C 0.5324(4) 0.4398(4) 0.1666(3)
C6 C 0.4110(4) 0.4035(4) 0.1930(4)
H3 H 0.3208 0.4626 0.1626
C7 C 0.2947(4) 0.2418(4) 0.2967(4)
C8 C 0.8264(4) 0.1314(4) 0.3372(4)
C9 C 0.4142(6) 0.6685(4) 0.0788(4)
C10 C 0.4314(9) 0.7918(5) -0.0049(6)
C11 C 0.5587(9) 0.8115(6) -0.0322(6)
H4 H 0.6433 0.7450 0.0013
C12 C 0.5637(9) 0.9281(6) -0.1085(6)
H5 H 0.6520 0.9394 -0.1248
C13 C 0.3228(10) 1.0086(6) -0.1353(6)
H6 H 0.2405 1.0767 -0.1726
C14 C 0.3076(9) 0.8926(6) -0.0555(6)
H7 H 0.2181 0.8847 -0.0378
C15 C 0.1513(5) -0.0646(4) 0.2975(4)
H8 H 0.0602 -0.0281 0.2586
C16 C 0.2510(5) -0.1665(4) 0.2980(4)
H9 H 0.2432 -0.2117 0.2586
C17 C 0.4981(4) -0.2940(4) 0.3991(4)
C18 C 0.5711(5) -0.3172(4) 0.3136(4)
H10 H 0.5370 -0.2651 0.2354
C19 C 0.6953(5) -0.4177(4) 0.3425(4)
H11 H 0.7454 -0.4342 0.2843
C20 C 0.7449(4) -0.4942(4) 0.4597(4)
C21 C 0.9027(5) -0.6711(4) 0.4286(4)
H12 H 0.8426 -0.6585 0.3682
C22 C 1.0796(5) -0.7447(4) 0.5549(4)
H13 H 1.1674 -0.7943 0.5987
C23 C 0.9853(5) -0.6483(4) 0.5686(4)
H14 H 0.9950 -0.6195 0.6226
C24 C 0.6734(5) -0.4703(4) 0.5460(4)
H15 H 0.7089 -0.5208 0.6242
C25 C 0.5468(5) -0.3695(4) 0.5154(4)
H16 H 0.4954 -0.3532 0.5732
C26 C 0.3340(5) -0.1014(4) 0.4045(4)
H17 H 0.3952 -0.0960 0.4528
N1 N 0.4458(8) 1.0248(5) -0.1593(5)
N2 N 0.5249(4) 0.5659(3) 0.0937(3)
H18 H 0.5976 0.5775 0.0558
N3 N 0.2039(4) -0.0219(3) 0.3633(3)
N4 N 0.3669(4) -0.1908(3) 0.3682(3)
N5 N 1.0270(4) -0.7591(3) 0.4665(3)
N6 N 0.8721(4) -0.6011(3) 0.4869(3)
O1 O 0.3023(3) 0.1483(3) 0.3929(3)
O2 O 0.1840(3) 0.3043(3) 0.2269(3)
O3 O 0.8344(3) 0.0224(3) 0.4057(3)
O4 O 0.9301(3) 0.1731(3) 0.3124(3)
O5 O 0.3077(4) 0.6657(3) 0.1309(4)
Cu1_2 Cu 1.11391(5) -0.88417(4) 0.40658(5)
Cu1A Cu 0.88609(5) -0.11583(4) 0.59342(5)
Cu1_3 Cu 1.11391(5) 0.11583(4) 0.40658(5)
N5_2 N 0.0270(4) 0.2409(3) 0.4665(3)
O3A O 0.1656(3) -0.0224(3) 0.5943(3)
O4_2 O -0.0699(3) 0.1731(3) 0.3124(3)
O6 O 0.0101(10) 0.7574(12) 0.1262(9)
H19 H 0.1001 0.7388 0.1245
H20 H -0.0104 0.6906 0.1484
O7 O 0.1887(4) 0.4556(4) -0.0137(3)
H21 H 0.1383 0.5284 -0.0223
H22 H 0.1893 0.3978 0.0597
O8 O -0.0155(7) 0.2725(6) 0.0613(5)
H23 H -0.0474 0.2446 0.1279
H24 H 0.0665 0.2750 0.0729
O9 O 0.9779(6) 0.5342(5) 0.1981(4)
H25 H 1.0460 0.4660 0.2141
H26 H 0.9216 0.5465 0.1434
loop_
_geom_bond_atom_site_label_1
_geom_bond_atom_site_label_2
_geom_bond_site_symmetry_1
_geom_bond_site_symmetry_2
Cu1 N3 1_555 1_555
C1 C2 1_555 1_555
C2 H1 1_555 1_555
C3 C2 1_555 1_555
C4 C3 1_555 1_555
H2 C4 1_555 1_555
C5 C4 1_555 1_555
C6 C1 1_555 1_555
H3 C6 1_555 1_555
C7 C1 1_555 1_555
C8 C3 1_555 1_555
C9 C10 1_555 1_555
C10 C11 1_555 1_555
C11 H4 1_555 1_555
C12 C11 1_555 1_555
H5 C12 1_555 1_555
C13 H6 1_555 1_555
C14 C10 1_555 1_555
H7 C14 1_555 1_555
C15 H8 1_555 1_555
C16 C15 1_555 1_555
H9 C16 1_555 1_555
C17 C18 1_555 1_555
C18 H10 1_555 1_555
C19 C18 1_555 1_555
H11 C19 1_555 1_555
C20 C19 1_555 1_555
C21 H12 1_555 1_555
C22 H13 1_555 1_555
C23 C22 1_555 1_555
H14 C23 1_555 1_555
C24 C20 1_555 1_555
H15 C24 1_555 1_555
C25 C17 1_555 1_555
H16 C25 1_555 1_555
C26 H17 1_555 1_555
N1 C12 1_555 1_555
N2 C5 1_555 1_555
H18 N2 1_555 1_555
N3 C15 1_555 1_555
N4 C16 1_555 1_555
N5 C21 1_555 1_555
N6 C20 1_555 1_555
O1 Cu1 1_555 1_555
O2 C7 1_555 1_555
O3 C8 1_555 1_555
O4 C8 1_555 1_555
O5 C9 1_555 1_555
O6 H19 1_555 1_555
H20 O6 1_555 1_555
O7 H21 1_555 1_555
H22 O7 1_555 1_555
O8 H23 1_555 1_555
H24 O8 1_555 1_555
O9 H25 1_555 1_555
H26 O9 1_555 1_555
Cu1_2 N5 1_555 1_555
Cu1A O3 1_555 1_555
Cu1_3 O4 1_555 1_555
N5_2 Cu1 1_555 1_555
O3A Cu1 1_555 1_555
O4_2 Cu1 1_555 1_555
C5 C6 1_555 1_555
C7 O1 1_555 1_555
C9 N2 1_555 1_555
C13 C14 1_555 1_555
C13 N1 1_555 1_555
C17 N4 1_555 1_555
C21 N6 1_555 1_555
C22 N5 1_555 1_555
C23 N6 1_555 1_555
C24 C25 1_555 1_555
C26 N3 1_555 1_555
C26 N4 1_555 1_555

#END
