
#######################################################################
#
#                 Cambridge Crystallographic Data Centre
#                                CCDC 
#
#######################################################################
#
# If this CIF has been generated from an entry in the Cambridge 
# Structural Database, then it will include bibliographic, chemical, 
# crystal, experimental, refinement or atomic coordinate data resulting 
# from the CCDC's data processing and validation procedures.
#
#######################################################################

data_ZAYREY
_symmetry_cell_setting           monoclinic
_symmetry_space_group_name_H-M   'P 21/c'
_symmetry_Int_Tables_number      14
_space_group_name_Hall           '-P 2ybc'
loop_
_symmetry_equiv_pos_site_id
_symmetry_equiv_pos_as_xyz
1 x,y,z
2 -x,1/2+y,1/2-z
3 -x,-y,-z
4 x,1/2-y,1/2+z
_cell_length_a                   14.971(2)
_cell_length_b                   11.9980(18)
_cell_length_c                   9.9336(15)
_cell_angle_alpha                90
_cell_angle_beta                 105.648(2)
_cell_angle_gamma                90
_cell_volume                     1718.16
loop_
_atom_site_label
_atom_site_type_symbol
_atom_site_fract_x
_atom_site_fract_y
_atom_site_fract_z
O9 O 0.7500(5) -1.0785(6) 0.5100(8)
H5 H 0.7592 -1.1466 0.5331
H6 H 0.7574 -1.0689 0.4289
Cd1 Cd 0.40565(4) -1.42573(4) 0.39974(6)
Cd2 Cd 0.37515(4) -1.74361(5) 0.42159(6)
Cd3 Cd 0.5080(4) -1.5000(7) 1.0019(8)
P1 P 0.36607(14) -1.56921(16) 0.6567(2)
P2 P 0.39021(14) -1.20894(16) 0.5943(2)
F1 F 0.3643(3) -1.5888(3) 0.2892(4)
O1 O 0.4455(4) -1.5409(4) 0.5933(6)
O2 O 0.3077(4) -1.6643(4) 0.5760(5)
O3 O 0.3973(4) -1.5932(4) 0.8129(5)
O4 O 0.4643(4) -1.2803(4) 0.5582(5)
O5 O 0.3987(4) -1.2125(4) 0.7506(5)
O6 O 0.3826(4) -1.0904(4) 0.5381(6)
O7 O 0.4594(4) -1.8493(4) 0.6215(5)
H1 H 0.5137 -1.8225 0.6520
O8 O 0.2221(4) -1.7620(5) 0.2742(7)
H3 H 0.2123 -1.7114 0.2122
H4 H 0.1837 -1.7552 0.3230
N1 N 0.2764(4) -1.3917(5) 0.4952(6)
C1 C 0.2952(5) -1.4439(6) 0.6365(8)
H7 H 0.3263 -1.3898 0.7061
H8 H 0.2365 -1.4623 0.6549
C2 C 0.2788(5) -1.2684(6) 0.5056(8)
H9 H 0.2593 -1.2377 0.4119
H10 H 0.2338 -1.2450 0.5543
C3 C 0.1843(6) -1.4325(7) 0.4035(9)
H11 H 0.1827 -1.5135 0.4155
C4 C 0.1007(6) -1.3844(8) 0.4419(9)
H12 H 0.1041 -1.4025 0.5384
H13 H 0.1006 -1.3039 0.4329
C5 C 0.0113(7) -1.4323(10) 0.3459(11)
H14 H -0.0416 -1.4008 0.3713
H15 H 0.0103 -1.5123 0.3589
C6 C 0.0033(7) -1.4071(11) 0.1946(12)
H16 H -0.0001 -1.3272 0.1795
H17 H -0.0528 -1.4404 0.1360
C7 C 0.0869(7) -1.4536(10) 0.1563(11)
H18 H 0.0860 -1.5343 0.1624
H19 H 0.0832 -1.4340 0.0602
C8 C 0.1773(6) -1.4106(8) 0.2501(9)
H20 H 0.2287 -1.4467 0.2254
H21 H 0.1819 -1.3311 0.2355
Cd1B Cd 0.59435(4) -1.57427(4) 0.60026(6)
Cd1C Cd 0.40565(4) -1.07427(4) 0.89974(6)
Cd1B_2 Cd 0.59435(4) -1.57427(4) 1.60026(6)
Cd1_2 Cd 0.40565(4) -1.42573(4) 1.39974(6)
Cd1A Cd 0.59435(4) -1.92573(4) 1.10026(6)
Cd2C Cd 0.37515(4) -1.75639(5) 0.92159(6)
Cd2B Cd 0.62485(4) -1.25639(5) 0.57841(6)
Cd2A Cd 0.62485(4) -1.24361(5) 1.07841(6)
Cd2B_2 Cd 0.62485(4) -1.25639(5) 1.57841(6)
Cd2_2 Cd 0.37515(4) -1.74361(5) 1.42159(6)
Cd3B Cd 0.4920(4) -1.5000(7) 0.9981(8)
Cd3A Cd 0.4920(4) -1.0000(7) 0.4981(8)
Cd3C Cd 0.5080(4) -1.0000(7) 0.5019(8)
Cd3A_2 Cd 0.4920(4) -2.0000(7) 0.4981(8)
Cd3C_2 Cd 0.5080(4) -2.0000(7) 0.5019(8)
Cd3C_3 Cd 0.5080(4) -2.0000(7) 1.5019(8)
Cd3A_3 Cd 0.4920(4) -2.0000(7) 1.4981(8)
Cd3A_4 Cd 0.4920(4) -1.0000(7) 1.4981(8)
Cd3C_4 Cd 0.5080(4) -1.0000(7) 1.5019(8)
P1B P 0.63393(14) -1.43079(16) 1.3433(2)
P1A P 0.63393(14) -1.06921(16) 1.8433(2)
P1_2 P 0.36607(14) -1.56921(16) 1.6567(2)
P2B P 0.60979(14) -1.79106(16) 1.4057(2)
F1B F 0.6357(3) -1.4112(3) 1.7108(4)
O1B O 0.5545(4) -1.4591(4) 0.4067(6)
O1B_2 O 0.5545(4) -1.4591(4) 1.4067(6)
O1_2 O 0.4455(4) -1.5409(4) 1.5933(6)
O2B O 0.6923(4) -1.3357(4) 1.4240(5)
O3C O 0.3973(4) -1.9068(4) 0.3129(5)
O3B O 0.6027(4) -1.4068(4) 1.1871(5)
O3A O 0.6027(4) -1.0932(4) 1.6871(5)
O4B O 0.5357(4) -1.7197(4) 0.4418(5)
O4B_2 O 0.5357(4) -1.7197(4) 1.4418(5)
O4_2 O 0.4643(4) -1.2803(4) 1.5582(5)
O5C O 0.3987(4) -1.2875(4) 0.2506(5)
O5B O 0.6013(4) -1.7875(4) 1.2494(5)
O5A O 0.6013(4) -1.7125(4) 1.7494(5)
O6A O 0.6174(4) -1.5904(4) 0.9619(6)
O6C O 0.3826(4) -1.4096(4) 1.0381(6)
O6B O 0.6174(4) -1.9096(4) 1.4619(6)
O7A O 0.5406(4) -1.3493(4) 0.8785(5)
O7C O 0.4594(4) -1.6507(4) 1.1215(5)
O7B O 0.5406(4) -1.1507(4) 1.3785(5)
H1A H 0.4863 -1.3225 0.8480
H1C H 0.5137 -1.6775 1.1520
H1B H 0.4863 -1.1775 1.3480
O8B O 0.7779(4) -1.2380(5) 1.7258(7)
H3B H 0.7877 -1.2886 1.7878
H4B H 0.8163 -1.2448 1.6770
N1B N 0.7236(4) -1.6083(5) 1.5048(6)
C1B C 0.7048(5) -1.5561(6) 1.3635(8)
H7B H 0.6737 -1.6102 1.2939
H8B H 0.7635 -1.5377 1.3451
C2B C 0.7212(5) -1.7316(6) 1.4944(8)
H9B H 0.7407 -1.7623 1.5881
H10B H 0.7662 -1.7550 1.4457
C3B C 0.8157(6) -1.5675(7) 1.5965(9)
H11B H 0.8173 -1.4865 1.5845
C4B C 0.8993(6) -1.6156(8) 1.5581(9)
H12B H 0.8959 -1.5975 1.4616
H13B H 0.8994 -1.6961 1.5671
C5B C 0.9887(7) -1.5677(10) 1.6541(11)
H14B H 1.0416 -1.5992 1.6287
H15B H 0.9897 -1.4877 1.6411
C6B C 0.9967(7) -1.5929(11) 1.8054(12)
H16B H 1.0001 -1.6728 1.8205
H17B H 1.0528 -1.5596 1.8640
C7B C 0.9131(7) -1.5464(10) 1.8437(11)
H18B H 0.9140 -1.4657 1.8376
H19B H 0.9168 -1.5660 1.9398
C8B C 0.8227(6) -1.5894(8) 1.7499(9)
H20B H 0.7713 -1.5533 1.7746
H21B H 0.8181 -1.6689 1.7645
H2? H 0.4631 -1.9167 0.5973
loop_
_geom_bond_atom_site_label_1
_geom_bond_atom_site_label_2
_geom_bond_site_symmetry_1
_geom_bond_site_symmetry_2
Cd1 F1 1_555 1_555
Cd2 F1 1_555 1_555
Cd3 O3 1_555 1_555
P1 O1 1_555 1_555
P2 O4 1_555 1_555
O1 Cd1 1_555 1_555
O2 Cd2 1_555 1_555
O3 P1 1_555 1_555
O4 Cd1 1_555 1_555
O5 P2 1_555 1_555
O6 P2 1_555 1_555
O7 Cd2 1_555 1_555
H1 O7 1_555 1_555
O8 Cd2 1_555 1_555
H3 O8 1_555 1_555
H4 O8 1_555 1_555
O9 H5 1_555 1_555
H6 O9 1_555 1_555
N1 Cd1 1_555 1_555
C1 P1 1_555 1_555
H7 C1 1_555 1_555
H8 C1 1_555 1_555
C2 P2 1_555 1_555
H9 C2 1_555 1_555
H10 C2 1_555 1_555
C3 N1 1_555 1_555
H11 C3 1_555 1_555
C4 C3 1_555 1_555
H12 C4 1_555 1_555
H13 C4 1_555 1_555
C5 C4 1_555 1_555
H14 C5 1_555 1_555
H15 C5 1_555 1_555
C6 C5 1_555 1_555
H16 C6 1_555 1_555
H17 C6 1_555 1_555
C7 C6 1_555 1_555
H18 C7 1_555 1_555
H19 C7 1_555 1_555
C8 C3 1_555 1_555
H20 C8 1_555 1_555
H21 C8 1_555 1_555
Cd1B O1 1_555 1_555
Cd1C O5 1_555 1_555
Cd1B_2 F1B 1_555 1_555
Cd1_2 O1B_2 1_555 1_555
Cd1A O5B 1_555 1_555
Cd2C O3 1_555 1_555
Cd2B O4 1_555 1_555
Cd2A O3B 1_555 1_555
Cd2B_2 F1B 1_555 1_555
Cd2_2 O4B_2 1_555 1_555
Cd3B Cd3 1_555 1_555
Cd3A O6 1_555 1_555
Cd3C O6 1_555 1_555
Cd3A_2 O7 1_555 1_555
Cd3C_2 O7 1_555 1_555
Cd3C_3 O6B 1_555 1_555
Cd3A_3 O6B 1_555 1_555
Cd3A_4 O3A 1_555 1_555
Cd3C_4 O3A 1_555 1_555
P1B O1B_2 1_555 1_555
P1A O3A 1_555 1_555
P1_2 O1_2 1_555 1_555
P2B O4B_2 1_555 1_555
O1B Cd1 1_555 1_555
O1B_2 Cd1B_2 1_555 1_555
O1_2 Cd1B_2 1_555 1_555
O2B Cd2B_2 1_555 1_555
O3C Cd2 1_555 1_555
O3B Cd3 1_555 1_555
O3A Cd2B_2 1_555 1_555
O4B Cd2 1_555 1_555
O4B_2 Cd1B_2 1_555 1_555
O4_2 Cd2B_2 1_555 1_555
O5C Cd1 1_555 1_555
O5B P2B 1_555 1_555
O5A Cd1B_2 1_555 1_555
O6A Cd3 1_555 1_555
O6C Cd3 1_555 1_555
O6B P2B 1_555 1_555
O7A Cd3 1_555 1_555
O7C Cd3 1_555 1_555
O7B Cd2B_2 1_555 1_555
H1A O7A 1_555 1_555
H1C O7C 1_555 1_555
H1B O7B 1_555 1_555
O8B Cd2B_2 1_555 1_555
H3B O8B 1_555 1_555
H4B O8B 1_555 1_555
N1B Cd1B_2 1_555 1_555
C1B P1B 1_555 1_555
H7B C1B 1_555 1_555
H8B C1B 1_555 1_555
C2B P2B 1_555 1_555
H9B C2B 1_555 1_555
H10B C2B 1_555 1_555
C3B N1B 1_555 1_555
H11B C3B 1_555 1_555
C4B C3B 1_555 1_555
H12B C4B 1_555 1_555
H13B C4B 1_555 1_555
C5B C4B 1_555 1_555
H14B C5B 1_555 1_555
H15B C5B 1_555 1_555
C6B C5B 1_555 1_555
H16B C6B 1_555 1_555
H17B C6B 1_555 1_555
C7B C6B 1_555 1_555
H18B C7B 1_555 1_555
H19B C7B 1_555 1_555
C8B C3B 1_555 1_555
H20B C8B 1_555 1_555
H21B C8B 1_555 1_555
P1 O2 1_555 1_555
O3 Cd3B 1_555 1_555
N1 C1 1_555 1_555
N1 C2 1_555 1_555
C7 C8 1_555 1_555
Cd1B O1B 1_555 1_555
Cd1B O4B 1_555 1_555
Cd1_2 O1_2 1_555 1_555
Cd2C O7C 1_555 1_555
Cd3B O3B 1_555 1_555
Cd3B O6A 1_555 1_555
Cd3B O6C 1_555 1_555
Cd3B O7A 1_555 1_555
Cd3B O7C 1_555 1_555
Cd3A Cd3C 1_555 1_555
Cd3A_2 Cd3C_2 1_555 1_555
Cd3A_2 O3C 1_555 1_555
Cd3C_2 O3C 1_555 1_555
Cd3A_4 O7B 1_555 1_555
Cd3C_4 O7B 1_555 1_555
P1B O2B 1_555 1_555
P1B O3B 1_555 1_555
N1B C1B 1_555 1_555
N1B C2B 1_555 1_555
C7B C8B 1_555 1_555

#END
