
#######################################################################
#
#                 Cambridge Crystallographic Data Centre
#                                CCDC 
#
#######################################################################
#
# If this CIF has been generated from an entry in the Cambridge 
# Structural Database, then it will include bibliographic, chemical, 
# crystal, experimental, refinement or atomic coordinate data resulting 
# from the CCDC's data processing and validation procedures.
#
#######################################################################

data_ZAYSOJ
_symmetry_cell_setting           triclinic
_symmetry_space_group_name_H-M   'P -1'
_symmetry_Int_Tables_number      2
_space_group_name_Hall           '-P 1'
loop_
_symmetry_equiv_pos_site_id
_symmetry_equiv_pos_as_xyz
1 x,y,z
2 -x,-y,-z
_cell_length_a                   10.062(2)
_cell_length_b                   10.119(2)
_cell_length_c                   10.154(2)
_cell_angle_alpha                67.62(3)
_cell_angle_beta                 79.95(3)
_cell_angle_gamma                86.45(3)
_cell_volume                     941.302
loop_
_atom_site_label
_atom_site_type_symbol
_atom_site_fract_x
_atom_site_fract_y
_atom_site_fract_z
Mn1 Mn 1.12720(6) 0.64113(5) 0.03874(6)
C1 C 0.9334(4) 0.5216(5) 0.3016(5)
H1 H 0.9673 0.4392 0.2882
C2 C 0.8407(5) 0.5143(5) 0.4083(5)
H2 H 0.8077 0.4250 0.4724
C3 C 0.7875(4) 0.6362(6) 0.4316(5)
C4 C 0.8301(5) 0.7613(5) 0.3437(5)
H3 H 0.7970 0.8450 0.3548
C5 C 0.9232(5) 0.7603(5) 0.2386(5)
H4 H 0.9570 0.8483 0.1719
C6 C 0.6889(5) 0.6307(7) 0.5510(5)
H5 H 0.7177 0.6904 0.5963
H6 H 0.6811 0.5333 0.6213
C7 C 0.5516(4) 0.6805(5) 0.5084(5)
H7 H 0.5588 0.7792 0.4411
H8 H 0.5248 0.6235 0.4591
C8 C 0.4510(4) 0.6699(4) 0.6273(4)
C9 C 0.4626(4) 0.5527(4) 0.7535(4)
H9 H 0.5300 0.4845 0.7595
C10 C 0.3706(4) 0.5481(4) 0.8612(4)
H10 H 0.3709 0.4726 0.9493
C11 C 0.2575(4) 0.7664(4) 0.7276(5)
H11 H 0.1886 0.8326 0.7244
C12 C 0.3454(4) 0.7789(5) 0.6150(5)
H12 H 0.3421 0.8552 0.5280
C13 C 1.2334(4) 0.8324(4) 0.0854(4)
C14 C 1.2845(4) 0.9467(3) 0.1180(4)
C15 C 1.4160(4) 0.9290(4) 0.1571(4)
H13 H 1.4662 0.8468 0.1646
C16 C 1.4638(4) 1.0365(4) 0.1825(4)
H14 H 1.5493 1.0319 0.2072
C17 C 1.3776(4) 1.1617(4) 0.1703(4)
H15 H 1.4129 1.2359 0.1865
C18 C 1.2447(4) 1.1797(3) 0.1358(4)
C19 C 1.1991(4) 1.0715(3) 0.1087(4)
H16 H 1.1136 1.0761 0.0842
C20 C 1.1511(4) 1.3159(4) 0.1208(4)
N1 N 0.9763(3) 0.6406(3) 0.2171(3)
N2 N 0.2689(3) 0.6539(3) 0.8505(3)
O1 O 1.1382(3) 0.8711(2) -0.0023(3)
O2 O 1.2843(3) 0.7035(2) 0.1469(3)
O3 O 1.0287(2) 1.3221(3) 0.1039(3)
O4 O 1.2011(2) 1.4183(2) 0.1274(3)
Mn1_2 Mn 0.12720(6) 0.64113(5) 1.03874(6)
Mn1A Mn 0.87280(6) 1.35887(5) -0.03874(6)
Mn1_3 Mn 1.12720(6) 1.64113(5) 0.03874(6)
N2_2 N 1.2689(3) 0.6539(3) -0.1495(3)
O3A O 0.9713(2) 0.6779(3) -0.1039(3)
O4_2 O 1.2011(2) 0.4183(2) 0.1274(3)
loop_
_geom_bond_atom_site_label_1
_geom_bond_atom_site_label_2
_geom_bond_site_symmetry_1
_geom_bond_site_symmetry_2
Mn1 N1 1_555 1_555
C1 H1 1_555 1_555
C2 C1 1_555 1_555
H2 C2 1_555 1_555
C3 C2 1_555 1_555
C4 C3 1_555 1_555
H3 C4 1_555 1_555
C5 C4 1_555 1_555
H4 C5 1_555 1_555
C6 C3 1_555 1_555
H5 C6 1_555 1_555
H6 C6 1_555 1_555
C7 C6 1_555 1_555
H7 C7 1_555 1_555
H8 C7 1_555 1_555
C8 C7 1_555 1_555
C9 C8 1_555 1_555
H9 C9 1_555 1_555
C10 C9 1_555 1_555
H10 C10 1_555 1_555
C11 H11 1_555 1_555
C12 C8 1_555 1_555
H12 C12 1_555 1_555
C13 C14 1_555 1_555
C14 C15 1_555 1_555
C15 H13 1_555 1_555
C16 C15 1_555 1_555
H14 C16 1_555 1_555
C17 C16 1_555 1_555
H15 C17 1_555 1_555
C18 C17 1_555 1_555
C19 C14 1_555 1_555
H16 C19 1_555 1_555
C20 C18 1_555 1_555
N1 C1 1_555 1_555
N2 C10 1_555 1_555
O1 Mn1 1_555 1_555
O2 Mn1 1_555 1_555
O3 C20 1_555 1_555
O4 C20 1_555 1_555
Mn1_2 N2 1_555 1_555
Mn1A O3 1_555 1_555
Mn1_3 O4 1_555 1_555
N2_2 Mn1 1_555 1_555
O3A Mn1 1_555 1_555
O4_2 Mn1 1_555 1_555
C5 N1 1_555 1_555
C11 C12 1_555 1_555
C11 N2 1_555 1_555
C13 O1 1_555 1_555
C13 O2 1_555 1_555
C18 C19 1_555 1_555

#END
