
#######################################################################
#
#                 Cambridge Crystallographic Data Centre
#                                CCDC 
#
#######################################################################
#
# If this CIF has been generated from an entry in the Cambridge 
# Structural Database, then it will include bibliographic, chemical, 
# crystal, experimental, refinement or atomic coordinate data resulting 
# from the CCDC's data processing and validation procedures.
#
#######################################################################

data_ZAYWIH
_symmetry_cell_setting           monoclinic
_symmetry_space_group_name_H-M   'P 21/c'
_symmetry_Int_Tables_number      14
_space_group_name_Hall           '-P 2ybc'
loop_
_symmetry_equiv_pos_site_id
_symmetry_equiv_pos_as_xyz
1 x,y,z
2 -x,1/2+y,1/2-z
3 -x,-y,-z
4 x,1/2-y,1/2+z
_cell_length_a                   15.131(4)
_cell_length_b                   6.3211(15)
_cell_length_c                   22.121(5)
_cell_angle_alpha                90
_cell_angle_beta                 105.984(4)
_cell_angle_gamma                90
_cell_volume                     2033.96
loop_
_atom_site_label
_atom_site_type_symbol
_atom_site_fract_x
_atom_site_fract_y
_atom_site_fract_z
Ag1 Ag 0.57015(3) 0.59200(7) 0.57047(2)
C1 C 0.8028(3) 1.1820(8) 0.6700(2)
C2 C 0.8648(4) 1.3404(10) 0.6969(3)
H1 H 0.8691 1.4640 0.6734
C3 C 0.9196(4) 1.3188(12) 0.7570(3)
H2 H 0.9623 1.4277 0.7744
C4 C 0.9148(4) 1.1459(12) 0.7925(3)
H3 H 0.9535 1.1352 0.8342
C5 C 0.8555(4) 0.9910(11) 0.7684(3)
H4 H 0.8521 0.8702 0.7932
C6 C 0.7990(4) 1.0048(9) 0.7076(2)
C7 C 0.7313(4) 0.8490(9) 0.6832(2)
C8 C 0.4124(3) -0.1978(8) 0.6156(2)
C9 C 0.3694(3) -0.3491(8) 0.6424(2)
H5 H 0.3526 -0.4810 0.6218
C10 C 0.3507(4) -0.3100(10) 0.6985(3)
H6 H 0.3202 -0.4149 0.7161
C11 C 0.3753(4) -0.1216(10) 0.7300(3)
H7 H 0.3611 -0.0962 0.7686
C12 C 0.4196(4) 0.0263(10) 0.7054(3)
H8 H 0.4379 0.1554 0.7273
C13 C 0.4387(3) -0.0094(8) 0.6480(2)
C14 C 0.4860(4) 0.1478(8) 0.6227(3)
C15 C 0.8367(4) 0.6017(9) 0.4736(2)
H9 H 0.8262 0.4628 0.4865
C16 C 0.9088(4) 0.6386(9) 0.4484(3)
H10 H 0.9466 0.5238 0.4433
C17 C 0.9271(3) 0.8364(10) 0.4305(2)
C18 C 0.8692(4) 0.9983(9) 0.4361(3)
H11 H 0.8790 1.1362 0.4222
C19 C 0.7971(3) 0.9626(8) 0.4617(2)
H12 H 0.7590 1.0773 0.4665
C20 C 0.7797(3) 0.7652(8) 0.4803(2)
C21 C 0.7023(3) 0.7275(8) 0.5087(2)
C22 C 1.0081(4) 0.8763(11) 0.4050(3)
H13 H 1.0309 1.0205 0.4157
H14 H 0.9892 0.8595 0.3592
H15 H 1.0571 0.7748 0.4235
N1 N 0.6746(4) 0.7290(9) 0.6635(2)
N2 N 0.7510(3) 1.1969(7) 0.6105(2)
H16 H 0.7560 1.3082 0.5877
H17 H 0.7120 1.0954 0.5940
N3 N 0.5234(4) 0.2705(8) 0.6015(2)
N4 N 0.4310(3) -0.2353(6) 0.55840(18)
H18 H 0.4322 -0.1084 0.5383
H19 H 0.3845 -0.3160 0.5334
O1 O 0.6868(2) 0.5390(5) 0.52097(15)
O2 O 0.6564(2) 0.8789(5) 0.51860(16)
Ag1_2 Ag 0.57015(3) -0.40800(7) 0.57047(2)
N4_2 N 0.4310(3) 0.7647(6) 0.55840(18)
H18_2 H 0.4322 0.8916 0.5383
H19_2 H 0.3845 0.6840 0.5334
loop_
_geom_bond_atom_site_label_1
_geom_bond_atom_site_label_2
_geom_bond_site_symmetry_1
_geom_bond_site_symmetry_2
Ag1 N1 1_555 1_555
C1 C2 1_555 1_555
C2 H1 1_555 1_555
C3 C2 1_555 1_555
H2 C3 1_555 1_555
C4 C3 1_555 1_555
H3 C4 1_555 1_555
C5 C4 1_555 1_555
H4 C5 1_555 1_555
C6 C1 1_555 1_555
C7 C6 1_555 1_555
C8 C9 1_555 1_555
C9 H5 1_555 1_555
C10 C9 1_555 1_555
H6 C10 1_555 1_555
C11 C10 1_555 1_555
H7 C11 1_555 1_555
C12 C11 1_555 1_555
H8 C12 1_555 1_555
C13 C8 1_555 1_555
C14 C13 1_555 1_555
C15 H9 1_555 1_555
C16 C15 1_555 1_555
H10 C16 1_555 1_555
C17 C16 1_555 1_555
C18 C17 1_555 1_555
H11 C18 1_555 1_555
C19 C18 1_555 1_555
H12 C19 1_555 1_555
C20 C15 1_555 1_555
C21 C20 1_555 1_555
C22 C17 1_555 1_555
H13 C22 1_555 1_555
H14 C22 1_555 1_555
H15 C22 1_555 1_555
N1 C7 1_555 1_555
N2 C1 1_555 1_555
H16 N2 1_555 1_555
H17 N2 1_555 1_555
N3 Ag1 1_555 1_555
N4 C8 1_555 1_555
H18 N4 1_555 1_555
H19 N4 1_555 1_555
O1 Ag1 1_555 1_555
O2 Ag1 1_555 1_555
Ag1_2 N4 1_555 1_555
N4_2 Ag1 1_555 1_555
H18_2 N4_2 1_555 1_555
H19_2 N4_2 1_555 1_555
C5 C6 1_555 1_555
C12 C13 1_555 1_555
C14 N3 1_555 1_555
C19 C20 1_555 1_555
C21 O1 1_555 1_555
C21 O2 1_555 1_555

#END
