
#######################################################################
#
#                 Cambridge Crystallographic Data Centre
#                                CCDC 
#
#######################################################################
#
# If this CIF has been generated from an entry in the Cambridge 
# Structural Database, then it will include bibliographic, chemical, 
# crystal, experimental, refinement or atomic coordinate data resulting 
# from the CCDC's data processing and validation procedures.
#
#######################################################################

data_ZAYXOO
_symmetry_cell_setting           triclinic
_symmetry_space_group_name_H-M   'P -1'
_symmetry_Int_Tables_number      2
_space_group_name_Hall           '-P 1'
loop_
_symmetry_equiv_pos_site_id
_symmetry_equiv_pos_as_xyz
1 x,y,z
2 -x,-y,-z
_cell_length_a                   10.7780(11)
_cell_length_b                   10.8948(11)
_cell_length_c                   15.1161(15)
_cell_angle_alpha                83.552(4)
_cell_angle_beta                 85.476(4)
_cell_angle_gamma                84.133(4)
_cell_volume                     1750.44
loop_
_atom_site_label
_atom_site_type_symbol
_atom_site_fract_x
_atom_site_fract_y
_atom_site_fract_z
Eu1 Eu -0.449230(13) 0.200560(14) -0.163690(10)
Eu2 Eu -0.057060(13) 0.696050(13) -0.668230(10)
O1 O -0.3618(2) 0.1183(2) -0.01930(15)
O2 O -0.2400(2) 0.2356(2) -0.10852(15)
O3 O -0.1582(2) -0.1494(2) 0.22086(15)
O4 O 0.0298(2) -0.1075(2) 0.25008(15)
O5 O -0.17494(19) 0.0352(2) 0.08706(14)
O6 O -0.2826(2) 0.7273(2) -0.61012(15)
O7 O -0.1533(2) 0.6175(2) -0.51948(15)
O8 O -0.5598(2) 0.3968(2) -0.24601(15)
O9 O -0.3567(2) 0.3554(2) -0.27350(16)
O10 O -0.3463(2) 0.5394(2) -0.40800(15)
O11 O -0.5276(2) 0.1516(2) -0.29917(16)
H1 H -0.5837 0.1947 -0.3285
H2 H -0.4954 0.0951 -0.3375
O12 O -0.6649(2) 0.1966(2) -0.11134(16)
H3 H -0.7032 0.2434 -0.0752
H4 H -0.7234 0.1575 -0.1372
O13 O -0.5019(2) -0.0122(2) -0.12832(16)
H5 H -0.5445 -0.0245 -0.0959
H6 H -0.4503 -0.0886 -0.1293
O14 O -0.2809(2) 0.0646(2) -0.22922(16)
H7 H -0.2805 -0.0017 -0.2552
H8 H -0.2105 0.0836 -0.2324
O15 O -0.4880(2) 0.3663(2) -0.06847(16)
H9 H -0.5260 0.4334 -0.0859
H10 H -0.4555 0.3757 -0.0197
O16 O -0.1894(2) 0.5669(2) -0.73382(16)
H11 H -0.2563 0.5906 -0.7340
H12 H -0.1647 0.5278 -0.7742
O17 O 0.0521(2) 0.6439(2) -0.80657(16)
H13 H 0.0608 0.5755 -0.8234
H14 H 0.1125 0.6888 -0.8382
O18 O 0.1465(2) 0.6985(2) -0.61855(18)
H15 H 0.1671 0.7623 -0.5973
H16 H 0.2187 0.6563 -0.6439
O19 O 0.0374(2) 0.4864(2) -0.63265(16)
H17 H 0.0815 0.4704 -0.5915
H18 H 0.0282 0.4174 -0.6521
O20 O -0.0768(2) 0.8613(2) -0.57098(16)
H19 H -0.0519 0.9352 -0.5867
H20 H -0.0635 0.8523 -0.5138
C1 C -0.2585(3) 0.1633(3) -0.0384(2)
C2 C -0.0657(3) -0.0851(3) 0.2055(2)
C3 C -0.1556(3) 0.1290(3) 0.0213(2)
C4 C -0.0415(3) 0.1701(3) 0.0243(2)
H21 H -0.0064 0.2344 -0.0143
C5 C 0.0148(3) 0.0974(3) 0.0972(2)
H22 H 0.0951 0.1036 0.1172
C6 C -0.0693(3) 0.0169(3) 0.1325(2)
C7 C -0.2621(3) 0.6600(3) -0.5381(2)
C8 C -0.4581(3) 0.4195(3) -0.2899(2)
C9 C -0.3701(3) 0.6300(3) -0.4760(2)
C10 C -0.4942(3) 0.6691(3) -0.4738(2)
H23 H -0.5345 0.7310 -0.5139
C11 C -0.5515(3) 0.5995(3) -0.4001(2)
H24 H -0.6377 0.6060 -0.3806
C12 C -0.4593(3) 0.5214(3) -0.3626(2)
Eu2_2 Eu -0.057060(13) -0.303950(13) 0.331770(10)
O3_2 O -0.1582(2) 0.8506(2) -0.77914(15)
O4_2 O 0.0298(2) 0.8925(2) -0.74992(15)
O21 O 0.0524(2) 0.2521(2) -0.69135(17)
O22 O -0.0084(2) 0.0978(2) -0.59285(18)
O23 O -0.2221(2) 0.4473(2) -0.89555(17)
O24 O -0.4130(2) 0.3842(2) -0.89965(16)
O25 O -0.1637(2) 0.2852(2) -0.76292(15)
C13 C -0.0258(3) 0.1792(3) -0.6576(2)
C14 C -0.3065(3) 0.3772(3) -0.8688(2)
C15 C -0.1486(3) 0.1898(3) -0.6971(2)
C16 C -0.2503(3) 0.1249(3) -0.6871(2)
H25 H -0.2632 0.0544 -0.6456
C17 C -0.3338(3) 0.1826(3) -0.7506(2)
H26 H -0.4134 0.1581 -0.7601
C18 C -0.2779(3) 0.2794(3) -0.7951(2)
O26 O -0.9670(2) 0.4091(2) -0.85727(17)
H27 H -0.9697 0.3544 -0.8113
H28 H -1.0486 0.4135 -0.8765
O27 O -0.7801(2) 0.3486(2) -0.98534(17)
H29 H -0.7761 0.4234 -1.0210
H30 H -0.8417 0.3721 -0.9489
O28 O -0.6136(2) 0.2491(2) -0.86184(18)
H31 H -0.5506 0.2963 -0.8691
H32 H -0.6615 0.2913 -0.9024
O29 O -0.7011(2) 0.1572(2) -0.69670(17)
H33 H -0.7759 0.1987 -0.6853
H34 H -0.6836 0.2033 -0.7445
O30 O -0.5684(2) 0.0024(2) -0.57406(18)
H35 H -0.6006 0.0766 -0.5977
H36 H -0.6376 -0.0390 -0.5512
O31 O -0.7906(3) -0.1010(4) -0.5444(2)
H37 H -0.8429 -0.0385 -0.5652
H38 H -0.8148 -0.1271 -0.4931
loop_
_geom_bond_atom_site_label_1
_geom_bond_atom_site_label_2
_geom_bond_site_symmetry_1
_geom_bond_site_symmetry_2
Eu1 O1 1_555 1_555
Eu2 O6 1_555 1_555
O1 C1 1_555 1_555
O2 Eu1 1_555 1_555
O3 C2 1_555 1_555
O4 C2 1_555 1_555
O5 C3 1_555 1_555
O6 C7 1_555 1_555
O7 Eu2 1_555 1_555
O8 Eu1 1_555 1_555
O9 Eu1 1_555 1_555
O10 C9 1_555 1_555
O11 Eu1 1_555 1_555
H1 O11 1_555 1_555
H2 O11 1_555 1_555
O12 Eu1 1_555 1_555
H3 O12 1_555 1_555
H4 O12 1_555 1_555
O13 Eu1 1_555 1_555
H5 O13 1_555 1_555
H6 O13 1_555 1_555
O14 Eu1 1_555 1_555
H7 O14 1_555 1_555
H8 O14 1_555 1_555
O15 Eu1 1_555 1_555
H9 O15 1_555 1_555
H10 O15 1_555 1_555
O16 Eu2 1_555 1_555
H11 O16 1_555 1_555
H12 O16 1_555 1_555
O17 Eu2 1_555 1_555
H13 O17 1_555 1_555
H14 O17 1_555 1_555
O18 Eu2 1_555 1_555
H15 O18 1_555 1_555
H16 O18 1_555 1_555
O19 Eu2 1_555 1_555
H17 O19 1_555 1_555
H18 O19 1_555 1_555
O20 Eu2 1_555 1_555
H19 O20 1_555 1_555
H20 O20 1_555 1_555
C1 O2 1_555 1_555
C2 C6 1_555 1_555
C3 C1 1_555 1_555
C4 C3 1_555 1_555
H21 C4 1_555 1_555
C5 C4 1_555 1_555
H22 C5 1_555 1_555
C6 O5 1_555 1_555
C7 O7 1_555 1_555
C8 O8 1_555 1_555
C9 C7 1_555 1_555
C10 C9 1_555 1_555
H23 C10 1_555 1_555
C11 C10 1_555 1_555
H24 C11 1_555 1_555
C12 O10 1_555 1_555
O21 C13 1_555 1_555
O22 C13 1_555 1_555
O23 C14 1_555 1_555
O24 C14 1_555 1_555
O25 C15 1_555 1_555
C13 C15 1_555 1_555
C14 C18 1_555 1_555
C15 C16 1_555 1_555
C16 H25 1_555 1_555
C17 C16 1_555 1_555
H26 C17 1_555 1_555
C18 O25 1_555 1_555
O26 H27 1_555 1_555
H28 O26 1_555 1_555
O27 H29 1_555 1_555
H30 O27 1_555 1_555
O28 H31 1_555 1_555
H32 O28 1_555 1_555
O29 H33 1_555 1_555
H34 O29 1_555 1_555
O30 H35 1_555 1_555
H36 O30 1_555 1_555
O31 H37 1_555 1_555
H38 O31 1_555 1_555
Eu2_2 O3 1_555 1_555
O3_2 Eu2 1_555 1_555
O4_2 Eu2 1_555 1_555
O4 Eu2_2 1_555 1_555
O9 C8 1_555 1_555
C5 C6 1_555 1_555
C8 C12 1_555 1_555
C11 C12 1_555 1_555
C17 C18 1_555 1_555

#END
