
#######################################################################
#
#                 Cambridge Crystallographic Data Centre
#                                CCDC 
#
#######################################################################
#
# If this CIF has been generated from an entry in the Cambridge 
# Structural Database, then it will include bibliographic, chemical, 
# crystal, experimental, refinement or atomic coordinate data resulting 
# from the CCDC's data processing and validation procedures.
#
#######################################################################

data_ZAYXEE
_symmetry_cell_setting           triclinic
_symmetry_space_group_name_H-M   'P -1'
_symmetry_Int_Tables_number      2
_space_group_name_Hall           '-P 1'
loop_
_symmetry_equiv_pos_site_id
_symmetry_equiv_pos_as_xyz
1 x,y,z
2 -x,-y,-z
_cell_length_a                   5.5268(4)
_cell_length_b                   8.1480(6)
_cell_length_c                   13.5614(11)
_cell_angle_alpha                77.2730(10)
_cell_angle_beta                 86.0710(10)
_cell_angle_gamma                80.0580(10)
_cell_volume                     586.457
loop_
_atom_site_label
_atom_site_type_symbol
_atom_site_fract_x
_atom_site_fract_y
_atom_site_fract_z
Co1 Co 0.27252(3) 0.41243(2) 0.970130(14)
C1 C 0.0228(3) 0.3345(2) 1.18215(11)
C2 C -0.1567(3) 0.2249(2) 1.19949(11)
C3 C -0.1778(3) 0.1177(2) 1.29374(11)
H1 H -0.2971 0.0474 1.3045
C4 C -0.0262(3) 0.1123(2) 1.37239(11)
C5 C 0.1621(3) 0.2127(2) 1.35394(12)
H2 H 0.2704 0.2068 1.4046
C6 C 0.1862(3) 0.3189(2) 1.26153(12)
H3 H 0.3133 0.3829 1.2503
C7 C -0.3273(3) 0.2153(2) 1.12001(11)
C8 C 0.3499(3) 0.3571(2) 0.74914(13)
H4 H 0.1888 0.4056 0.7329
C9 C 0.6848(3) 0.2678(2) 0.82973(14)
H5 H 0.7985 0.2431 0.8806
C10 C 0.7280(4) 0.2297(3) 0.73715(15)
H6 H 0.8747 0.1753 0.7130
C11 C 0.4727(4) 0.2738(3) 0.58239(14)
H7 H 0.2977 0.2828 0.5740
H8 H 0.5513 0.1626 0.5721
C12 C 0.5720(4) 0.4116(3) 0.50192(15)
H9 H 0.7420 0.4118 0.5155
H10 H 0.5688 0.3833 0.4362
N1 N -0.0699(3) 0.00016(19) 1.46505(10)
N2 N 0.4459(3) 0.34907(19) 0.83676(11)
N3 N 0.5140(3) 0.2865(2) 0.68601(11)
O1 O 0.1994(2) 0.15423(17) 1.00721(10)
H11 H 0.230(4) 0.101(3) 0.9597(13)
H12 H 0.307(4) 0.113(3) 1.0507(14)
O2 O 0.0424(2) 0.44829(15) 1.09742(8)
O3 O -0.4008(2) 0.35145(15) 1.05399(8)
O4 O -0.3971(2) 0.07682(16) 1.12371(9)
Co1A Co 0.72748(3) 0.58757(2) 0.029870(14)
Co1A_2 Co -0.27252(3) 0.58757(2) 1.029870(14)
Co1_2 Co -0.72748(3) 0.41243(2) 0.970130(14)
Co1A_3 Co -0.27252(3) -0.41243(2) 2.029870(14)
Co1_3 Co 0.27252(3) -0.58757(2) 1.970130(14)
Co1A_4 Co 0.72748(3) -0.41243(2) 2.029870(14)
C1A C -0.0228(3) -0.3345(2) 1.81785(11)
C2A C 0.1567(3) -0.2249(2) 1.80051(11)
C3A C 0.1778(3) -0.1177(2) 1.70626(11)
H1A H 0.2971 -0.0474 1.6955
C4A C 0.0262(3) -0.1123(2) 1.62761(11)
C5A C -0.1621(3) -0.2127(2) 1.64606(12)
H2A H -0.2704 -0.2068 1.5954
C6A C -0.1862(3) -0.3189(2) 1.73847(12)
H3A H -0.3133 -0.3829 1.7497
C7A C 0.3273(3) -0.2153(2) 1.87999(11)
C8A C 0.6501(3) 0.6429(2) 0.25086(13)
H4A H 0.8112 0.5944 0.2671
C9A C 0.3152(3) 0.7322(2) 0.17027(14)
H5A H 0.2015 0.7569 0.1194
C10A C 0.2720(4) 0.7703(3) 0.26285(15)
H6A H 0.1253 0.8247 0.2870
C11A C 0.5273(4) 0.7262(3) 0.41761(14)
H7A H 0.7023 0.7172 0.4260
H8A H 0.4487 0.8374 0.4279
C12A C 0.4280(4) 0.5884(3) 0.49808(15)
H9A H 0.2580 0.5882 0.4845
H10A H 0.4312 0.6167 0.5638
N1A N 0.0699(3) -0.00016(19) 1.53495(10)
N2A N 0.5541(3) 0.65093(19) 0.16324(11)
N3A N 0.4860(3) 0.7135(2) 0.31399(11)
O1A O 0.8006(2) 0.84577(17) -0.00721(10)
H11A H 0.770(4) 0.899(3) 0.0403(13)
H12A H 0.693(4) 0.887(3) -0.0507(14)
O2A O -0.0424(2) -0.44829(15) 1.90258(8)
O2A_2 O -0.0424(2) 0.55171(15) 0.90258(8)
O2A_3 O 0.9576(2) 0.55171(15) -0.09742(8)
O2_2 O 1.0424(2) 0.44829(15) 0.09742(8)
O3A O 0.4008(2) -0.35145(15) 1.94601(8)
O3_2 O 0.5992(2) 0.35145(15) 1.05399(8)
O3A_2 O 0.4008(2) 0.64855(15) 0.94601(8)
O3A_3 O 0.4008(2) 0.64855(15) -0.05399(8)
O3_3 O 0.5992(2) 0.35145(15) 0.05399(8)
O4A O 0.3971(2) -0.07682(16) 1.87629(9)
loop_
_geom_bond_atom_site_label_1
_geom_bond_atom_site_label_2
_geom_bond_site_symmetry_1
_geom_bond_site_symmetry_2
Co1 N2 1_555 1_555
C1 C2 1_555 1_555
C2 C3 1_555 1_555
C3 H1 1_555 1_555
C4 C3 1_555 1_555
C5 C4 1_555 1_555
H2 C5 1_555 1_555
C6 C1 1_555 1_555
H3 C6 1_555 1_555
C7 C2 1_555 1_555
C8 H4 1_555 1_555
C9 H5 1_555 1_555
C10 C9 1_555 1_555
H6 C10 1_555 1_555
C11 H7 1_555 1_555
H8 C11 1_555 1_555
C12 C11 1_555 1_555
H9 C12 1_555 1_555
H10 C12 1_555 1_555
N1 C4 1_555 1_555
N2 C8 1_555 1_555
N3 C8 1_555 1_555
O1 Co1 1_555 1_555
H11 O1 1_555 1_555
H12 O1 1_555 1_555
O2 Co1 1_555 1_555
O3 C7 1_555 1_555
O4 C7 1_555 1_555
Co1A N2A 1_555 1_555
Co1A_2 O2 1_555 1_555
Co1_2 O3 1_555 1_555
Co1A_3 O2A 1_555 1_555
Co1_3 O2A 1_555 1_555
Co1A_4 O3A 1_555 1_555
C1A C2A 1_555 1_555
C2A C3A 1_555 1_555
C3A H1A 1_555 1_555
C4A C3A 1_555 1_555
C5A C4A 1_555 1_555
H2A C5A 1_555 1_555
C6A C1A 1_555 1_555
H3A C6A 1_555 1_555
C7A C2A 1_555 1_555
C8A H4A 1_555 1_555
C9A H5A 1_555 1_555
C10A C9A 1_555 1_555
H6A C10A 1_555 1_555
C11A H7A 1_555 1_555
H8A C11A 1_555 1_555
C12A C12 1_555 1_555
H9A C12A 1_555 1_555
H10A C12A 1_555 1_555
N1A N1 1_555 1_555
N2A C8A 1_555 1_555
N3A C8A 1_555 1_555
O1A Co1A 1_555 1_555
H11A O1A 1_555 1_555
H12A O1A 1_555 1_555
O2A C1A 1_555 1_555
O2A_2 Co1 1_555 1_555
O2A_3 Co1A 1_555 1_555
O2_2 Co1A 1_555 1_555
O3A Co1_3 1_555 1_555
O3_2 Co1 1_555 1_555
O3A_2 Co1 1_555 1_555
O3A_3 Co1A 1_555 1_555
O3_3 Co1A 1_555 1_555
O4A C7A 1_555 1_555
C1 O2 1_555 1_555
C5 C6 1_555 1_555
C9 N2 1_555 1_555
C10 N3 1_555 1_555
C11 N3 1_555 1_555
O3 Co1A_2 1_555 1_555
Co1A_2 O2A_2 1_555 1_555
C4A N1A 1_555 1_555
C5A C6A 1_555 1_555
C7A O3A 1_555 1_555
C9A N2A 1_555 1_555
C10A N3A 1_555 1_555
C11A C12A 1_555 1_555
C11A N3A 1_555 1_555

#END
