
#######################################################################
#
#                 Cambridge Crystallographic Data Centre
#                                CCDC 
#
#######################################################################
#
# If this CIF has been generated from an entry in the Cambridge 
# Structural Database, then it will include bibliographic, chemical, 
# crystal, experimental, refinement or atomic coordinate data resulting 
# from the CCDC's data processing and validation procedures.
#
#######################################################################

data_ZAZBIN
_symmetry_cell_setting           monoclinic
_symmetry_space_group_name_H-M   'P 21/n'
_symmetry_Int_Tables_number      14
_space_group_name_Hall           '-P 2yn'
loop_
_symmetry_equiv_pos_site_id
_symmetry_equiv_pos_as_xyz
1 x,y,z
2 1/2-x,1/2+y,1/2-z
3 -x,-y,-z
4 1/2+x,1/2-y,1/2+z
_cell_length_a                   21.148(4)
_cell_length_b                   15.728(3)
_cell_length_c                   23.879(4)
_cell_angle_alpha                90
_cell_angle_beta                 102.148(3)
_cell_angle_gamma                90
_cell_volume                     7764.68
loop_
_atom_site_label
_atom_site_type_symbol
_atom_site_fract_x
_atom_site_fract_y
_atom_site_fract_z
O1 O 0.6233(2) 0.1923(3) 0.7461(3)
C1 C 1.3940(3) 0.7117(4) 0.8226(3)
C2 C 1.4660(3) 0.6965(4) 0.8441(3)
C3 C 1.5040(3) 0.6870(4) 0.8028(3)
H1 H 1.4851 0.6881 0.7640
C4 C 1.5710(3) 0.6759(6) 0.8212(4)
H2 H 1.5966 0.6701 0.7942
C5 C 1.5988(4) 0.6734(6) 0.8776(5)
H3 H 1.6433 0.6660 0.8891
C6 C 1.5622(4) 0.6816(5) 0.9174(4)
H4 H 1.5820 0.6781 0.9560
C7 C 1.4950(3) 0.6953(4) 0.9023(3)
C8 C 1.4588(4) 0.7037(5) 0.9494(3)
C9 C 1.4199(4) 0.6326(5) 0.9628(3)
C10 C 1.4261(3) 0.5516(5) 0.9440(3)
H5 H 1.4568 0.5406 0.9221
C11 C 1.3879(4) 0.4850(6) 0.9565(3)
H6 H 1.3944 0.4301 0.9444
C12 C 1.3418(4) 0.5000(6) 0.9860(3)
C13 C 1.3335(5) 0.5784(7) 1.0052(3)
H7 H 1.3007 0.5882 1.0250
C14 C 1.3738(5) 0.6467(6) 0.9958(4)
H8 H 1.3695 0.7001 1.0113
C15 C 1.2594(3) 0.7108(5) 0.6328(3)
C16 C 1.2348(3) 0.6858(5) 0.5732(3)
C17 C 1.2792(4) 0.6716(7) 0.5377(3)
H9 H 1.3232 0.6804 0.5513
C18 C 1.2557(6) 0.6440(8) 0.4816(4)
H10 H 1.2847 0.6340 0.4580
C19 C 1.1915(5) 0.6314(8) 0.4605(4)
H11 H 1.1770 0.6120 0.4233
C20 C 1.1481(4) 0.6478(6) 0.4951(3)
H12 H 1.1041 0.6405 0.4803
C21 C 1.1682(3) 0.6747(4) 0.5510(3)
C22 C 1.1199(3) 0.6941(5) 0.5856(3)
C23 C 1.0800(3) 0.6239(4) 0.6016(3)
C24 C 1.0943(4) 0.5406(5) 0.5943(4)
H13 H 1.1301 0.5284 0.5787
C25 C 1.0591(4) 0.4736(5) 0.6085(4)
H14 H 1.0707 0.4175 0.6036
C26 C 1.0062(4) 0.4934(5) 0.6303(3)
C27 C 0.9902(4) 0.5761(5) 0.6401(4)
H15 H 0.9551 0.5884 0.6564
C28 C 1.0277(4) 0.6400(5) 0.6250(4)
H16 H 1.0170 0.6961 0.6309
C29 C 1.1984(2) 0.5534(4) 0.7593(2)
H17 H 1.1813 0.5564 0.7202
C30 C 1.2520(3) 0.5823(4) 0.8434(2)
H18 H 1.2790 0.6097 0.8739
C31 C 1.2200(3) 0.5087(4) 0.8474(3)
H19 H 1.2213 0.4764 0.8802
C32 C 1.1425(3) 0.4188(4) 0.7749(3)
H20 H 1.1623 0.3680 0.7939
H21 H 1.1380 0.4108 0.7340
C33 C 1.0759(2) 0.4298(3) 0.7880(2)
C34 C 1.0440(3) 0.3590(4) 0.8007(3)
H22 H 1.0649 0.3066 0.8049
C35 C 0.9810(3) 0.3654(4) 0.8074(3)
H23 H 0.9600 0.3175 0.8173
C36 C 0.9489(2) 0.4418(4) 0.7995(3)
C37 C 0.9817(3) 0.5117(4) 0.7890(3)
H24 H 0.9608 0.5641 0.7852
C38 C 1.0448(3) 0.5070(4) 0.7840(3)
H25 H 1.0667 0.5562 0.7778
C39 C 0.8791(3) 0.4509(4) 0.8055(4)
H26 H 0.8767 0.4416 0.8451
H27 H 0.8644 0.5083 0.7952
C40 C 0.8173(3) 0.3898(5) 0.7111(3)
H28 H 0.8302 0.4280 0.6860
C41 C 0.7758(3) 0.3232(5) 0.6969(3)
H29 H 0.7547 0.3086 0.6600
C42 C 0.8074(2) 0.3252(4) 0.7879(3)
H30 H 0.8124 0.3115 0.8265
C43 C 0.7187(6) 0.1285(8) 0.8669(5)
C44 C 0.7248(5) 0.1427(5) 0.9296(3)
C45 C 0.6788(5) 0.1080(6) 0.9568(4)
H31 H 0.6494 0.0682 0.9379
C46 C 0.6768(6) 0.1328(8) 1.0123(4)
H32 H 0.6461 0.1095 1.0305
C47 C 0.7208(7) 0.1922(8) 1.0406(3)
H33 H 0.7195 0.2088 1.0777
C48 C 0.7668(6) 0.2270(7) 1.0134(4)
H34 H 0.7962 0.2668 1.0323
C49 C 0.7688(4) 0.2022(6) 0.9579(4)
C50 C 0.8181(9) 0.2370(8) 0.9341(5)
C51 C 0.8735(6) 0.1908(8) 0.9262(4)
C52 C 0.8782(7) 0.0991(9) 0.9384(5)
H35 H 0.8444 0.0713 0.9502
C53 C 0.9363(7) 0.0506(9) 0.9320(5)
H36 H 0.9415 -0.0079 0.9361
C54 C 0.9812(7) 0.1059(14) 0.9191(6)
C55 C 0.9819(7) 0.1770(12) 0.9101(5)
H37 H 1.0171 0.2017 0.8988
C56 C 0.9284(8) 0.2267(10) 0.9166(6)
H38 H 0.9309 0.2856 0.9142
C57 C 0.7496(3) 0.0642(4) 0.6605(3)
H39 H 0.7257 0.0963 0.6307
C58 C 0.7830(4) -0.0048(5) 0.6541(3)
H40 H 0.7866 -0.0299 0.6196
C59 C 0.7931(3) 0.0209(4) 0.7443(3)
H41 H 0.8054 0.0161 0.7839
C60 C 0.8545(3) -0.1070(4) 0.7211(4)
H42 H 0.8392 -0.1525 0.6942
H43 H 0.8535 -0.1272 0.7593
C61 C 0.9229(3) -0.0838(4) 0.7180(4)
C62 C 0.9489(3) -0.1098(4) 0.6730(3)
H44 H 0.9240 -0.1417 0.6437
C63 C 1.0121(3) -0.0892(4) 0.6707(3)
H45 H 1.0290 -0.1086 0.6401
C64 C 1.0499(3) -0.0415(4) 0.7118(3)
C65 C 1.0236(3) -0.0159(5) 0.7581(4)
H46 H 1.0480 0.0177 0.7868
C66 C 0.9616(4) -0.0397(6) 0.7618(4)
H47 H 0.9460 -0.0257 0.7943
C67 C 1.1171(3) -0.0166(4) 0.7092(3)
H48 H 1.1211 -0.0163 0.6694
H49 H 1.1251 0.0408 0.7238
C68 C 1.1886(2) -0.1450(3) 0.7222(3)
H50 H 1.1743 -0.1660 0.6853
C69 C 1.2397(3) -0.1302(5) 0.8092(3)
H51 H 1.2680 -0.1393 0.8442
C70 C 1.1986(3) -0.0637(4) 0.7969(3)
H52 H 1.1932 -0.0198 0.8215
C71 C 0.6053(3) 0.2139(4) 0.6947(4)
C72 C 0.5357(3) 0.2350(4) 0.6722(3)
C73 C 0.4942(3) 0.2362(4) 0.7094(4)
H53 H 0.5089 0.2239 0.7481
C74 C 0.4283(4) 0.2567(6) 0.6872(5)
H54 H 0.3990 0.2570 0.7113
C75 C 0.4081(4) 0.2758(9) 0.6313(6)
H55 H 0.3649 0.2893 0.6173
C76 C 0.4485(5) 0.2757(8) 0.5959(6)
H56 H 0.4329 0.2905 0.5578
C77 C 0.5147(4) 0.2539(5) 0.6140(4)
C78 C 0.5574(5) 0.2606(8) 0.5743(5)
C79 C 0.5722(4) 0.1790(7) 0.5460(4)
C80 C 0.6030(5) 0.1810(9) 0.4995(6)
H57 H 0.6149 0.2337 0.4874
C81 C 0.6159(5) 0.1147(10) 0.4724(5)
H58 H 0.6341 0.1208 0.4404
C82 C 0.6028(4) 0.0340(8) 0.4907(4)
C83 C 0.5713(4) 0.0269(7) 0.5385(4)
H59 H 0.5611 -0.0262 0.5513
C84 C 0.5568(4) 0.0990(6) 0.5646(3)
H60 H 0.5363 0.0950 0.5954
N1 N 1.23892(18) 0.6101(3) 0.78863(17)
N2 N 1.18539(18) 0.4916(3) 0.7933(2)
N3 N 0.8359(2) 0.3897(3) 0.7686(2)
N4 N 0.77001(19) 0.2816(3) 0.7451(2)
N5 N 0.75533(19) 0.0815(3) 0.7171(2)
N6 N 0.8111(2) -0.0319(3) 0.7073(3)
N7 N 1.1668(2) -0.0733(3) 0.7419(2)
N8 N 1.23313(19) -0.1825(3) 0.76210(19)
O2 O 1.37111(18) 0.6990(3) 0.7712(2)
O3 O 1.3612(2) 0.7356(3) 0.8566(2)
O4 O 1.4661(4) 0.7689(4) 0.9778(3)
O5 O 1.2370(2) 0.6765(3) 0.67014(19)
O6 O 1.3038(4) 0.7672(5) 0.6432(3)
O7 O 1.1131(2) 0.7681(4) 0.6004(2)
O8 O 0.7493(2) 0.1695(4) 0.8399(2)
O9 O 0.6816(5) 0.0645(6) 0.8369(5)
O10 O 0.8166(6) 0.3116(7) 0.9252(4)
O11 O 0.6450(2) 0.2165(3) 0.6639(2)
O12 O 0.5733(5) 0.3258(5) 0.5552(5)
Cl1 Cl 1.28957(11) 0.41909(18) 0.99711(10)
Cl2 Cl 0.96021(12) 0.40986(14) 0.64854(10)
Cl3 Cl 1.05254(19) 0.0420(3) 0.91608(17)
Cl4 Cl 0.62005(17) -0.0549(3) 0.45583(14)
Co1 Co 1.27700(3) 0.70785(5) 0.75113(3)
Co2 Co 0.71843(3) 0.17776(5) 0.75639(3)
N8_2 N 1.23313(19) 0.8175(3) 0.76210(19)
Co1_2 Co 1.27700(3) -0.29215(5) 0.75113(3)
loop_
_geom_bond_atom_site_label_1
_geom_bond_atom_site_label_2
_geom_bond_site_symmetry_1
_geom_bond_site_symmetry_2
O1 C71 1_555 1_555
C1 C2 1_555 1_555
C2 C3 1_555 1_555
C3 H1 1_555 1_555
C4 C3 1_555 1_555
H2 C4 1_555 1_555
C5 C4 1_555 1_555
H3 C5 1_555 1_555
C6 C5 1_555 1_555
H4 C6 1_555 1_555
C7 C2 1_555 1_555
C8 C7 1_555 1_555
C9 C8 1_555 1_555
C10 C9 1_555 1_555
H5 C10 1_555 1_555
C11 C10 1_555 1_555
H6 C11 1_555 1_555
C12 C11 1_555 1_555
C13 C12 1_555 1_555
H7 C13 1_555 1_555
C14 C9 1_555 1_555
H8 C14 1_555 1_555
C15 C16 1_555 1_555
C16 C17 1_555 1_555
C17 H9 1_555 1_555
C18 C17 1_555 1_555
H10 C18 1_555 1_555
C19 C18 1_555 1_555
H11 C19 1_555 1_555
C20 C19 1_555 1_555
H12 C20 1_555 1_555
C21 C16 1_555 1_555
C22 C21 1_555 1_555
C23 C22 1_555 1_555
C24 C23 1_555 1_555
H13 C24 1_555 1_555
C25 C24 1_555 1_555
H14 C25 1_555 1_555
C26 C25 1_555 1_555
C27 C26 1_555 1_555
H15 C27 1_555 1_555
C28 C23 1_555 1_555
H16 C28 1_555 1_555
C29 H17 1_555 1_555
C30 H18 1_555 1_555
C31 C30 1_555 1_555
H19 C31 1_555 1_555
C32 H20 1_555 1_555
H21 C32 1_555 1_555
C33 C32 1_555 1_555
C34 C33 1_555 1_555
H22 C34 1_555 1_555
C35 C34 1_555 1_555
H23 C35 1_555 1_555
C36 C35 1_555 1_555
C37 C36 1_555 1_555
H24 C37 1_555 1_555
C38 C33 1_555 1_555
H25 C38 1_555 1_555
C39 C36 1_555 1_555
H26 C39 1_555 1_555
H27 C39 1_555 1_555
C40 H28 1_555 1_555
C41 C40 1_555 1_555
H29 C41 1_555 1_555
C42 H30 1_555 1_555
C43 C44 1_555 1_555
C44 C45 1_555 1_555
C45 H31 1_555 1_555
C46 C45 1_555 1_555
H32 C46 1_555 1_555
C47 C46 1_555 1_555
H33 C47 1_555 1_555
C48 C47 1_555 1_555
H34 C48 1_555 1_555
C49 C44 1_555 1_555
C50 C49 1_555 1_555
C51 C50 1_555 1_555
C52 C51 1_555 1_555
H35 C52 1_555 1_555
C53 C52 1_555 1_555
H36 C53 1_555 1_555
C54 C53 1_555 1_555
C55 C54 1_555 1_555
H37 C55 1_555 1_555
C56 C51 1_555 1_555
H38 C56 1_555 1_555
C57 H39 1_555 1_555
C58 C57 1_555 1_555
H40 C58 1_555 1_555
C59 H41 1_555 1_555
C60 H42 1_555 1_555
H43 C60 1_555 1_555
C61 C60 1_555 1_555
C62 C61 1_555 1_555
H44 C62 1_555 1_555
C63 C62 1_555 1_555
H45 C63 1_555 1_555
C64 C63 1_555 1_555
C65 C64 1_555 1_555
H46 C65 1_555 1_555
C66 C61 1_555 1_555
H47 C66 1_555 1_555
C67 C64 1_555 1_555
H48 C67 1_555 1_555
H49 C67 1_555 1_555
C68 H50 1_555 1_555
C69 H51 1_555 1_555
C70 C69 1_555 1_555
H52 C70 1_555 1_555
C71 C72 1_555 1_555
C72 C73 1_555 1_555
C73 H53 1_555 1_555
C74 C73 1_555 1_555
H54 C74 1_555 1_555
C75 C74 1_555 1_555
H55 C75 1_555 1_555
C76 C75 1_555 1_555
H56 C76 1_555 1_555
C77 C72 1_555 1_555
C78 C77 1_555 1_555
C79 C78 1_555 1_555
C80 C79 1_555 1_555
H57 C80 1_555 1_555
C81 C80 1_555 1_555
H58 C81 1_555 1_555
C82 C81 1_555 1_555
C83 C82 1_555 1_555
H59 C83 1_555 1_555
C84 C79 1_555 1_555
H60 C84 1_555 1_555
N1 C29 1_555 1_555
N2 C29 1_555 1_555
N3 C39 1_555 1_555
N4 C41 1_555 1_555
N5 C57 1_555 1_555
N6 C58 1_555 1_555
N7 C67 1_555 1_555
N8 C68 1_555 1_555
O2 C1 1_555 1_555
O3 C1 1_555 1_555
O4 C8 1_555 1_555
O5 C15 1_555 1_555
O6 C15 1_555 1_555
O7 C22 1_555 1_555
O8 C43 1_555 1_555
O9 C43 1_555 1_555
O10 C50 1_555 1_555
O11 C71 1_555 1_555
O12 C78 1_555 1_555
Cl1 C12 1_555 1_555
Cl2 C26 1_555 1_555
Cl3 C54 1_555 1_555
Cl4 C82 1_555 1_555
Co1 N1 1_555 1_555
Co2 O1 1_555 1_555
N8_2 Co1 1_555 1_555
Co1_2 N8 1_555 1_555
C6 C7 1_555 1_555
C13 C14 1_555 1_555
C20 C21 1_555 1_555
C27 C28 1_555 1_555
C30 N1 1_555 1_555
C31 N2 1_555 1_555
C32 N2 1_555 1_555
C37 C38 1_555 1_555
C40 N3 1_555 1_555
C42 N3 1_555 1_555
C42 N4 1_555 1_555
C48 C49 1_555 1_555
C55 C56 1_555 1_555
C59 N5 1_555 1_555
C59 N6 1_555 1_555
C60 N6 1_555 1_555
C65 C66 1_555 1_555
C68 N7 1_555 1_555
C69 N8 1_555 1_555
C70 N7 1_555 1_555
C76 C77 1_555 1_555
C83 C84 1_555 1_555
N4 Co2 1_555 1_555
N5 Co2 1_555 1_555
O2 Co1 1_555 1_555
O5 Co1 1_555 1_555
O8 Co2 1_555 1_555

#END
