
#######################################################################
#
#                 Cambridge Crystallographic Data Centre
#                                CCDC 
#
#######################################################################
#
# If this CIF has been generated from an entry in the Cambridge 
# Structural Database, then it will include bibliographic, chemical, 
# crystal, experimental, refinement or atomic coordinate data resulting 
# from the CCDC's data processing and validation procedures.
#
#######################################################################

data_ZAZDUB
_symmetry_cell_setting           monoclinic
_symmetry_space_group_name_H-M   'P 21/c'
_symmetry_Int_Tables_number      14
_space_group_name_Hall           '-P 2ybc'
loop_
_symmetry_equiv_pos_site_id
_symmetry_equiv_pos_as_xyz
1 x,y,z
2 -x,1/2+y,1/2-z
3 -x,-y,-z
4 x,1/2-y,1/2+z
_cell_length_a                   8.6674(8)
_cell_length_b                   10.8050(11)
_cell_length_c                   21.815(2)
_cell_angle_alpha                90
_cell_angle_beta                 99.205(3)
_cell_angle_gamma                90
_cell_volume                     2016.69
loop_
_atom_site_label
_atom_site_type_symbol
_atom_site_fract_x
_atom_site_fract_y
_atom_site_fract_z
Cu1 Cu 0.31905(5) 0.27032(5) 0.121035(19)
Br2 Br 0.43598(5) 0.50331(4) 0.11452(2)
N1 N 0.5321(3) 0.3104(3) 0.61967(13)
N2 N 0.3160(4) 0.2689(3) 0.21160(13)
N3 N 0.3064(3) 0.2580(3) 0.53288(13)
N4 N 0.0935(3) 0.1752(3) 0.59036(13)
C1 C 0.1751(4) 0.2261(3) 0.49422(16)
C2 C 0.1697(4) 0.2321(3) 0.43099(16)
H1 H 0.0783 0.2120 0.4044
C3 C 0.3030(4) 0.2686(3) 0.40704(16)
C4 C 0.4370(4) 0.3022(3) 0.44879(16)
H2 H 0.5273 0.3268 0.4341
C5 C 0.4333(4) 0.2986(3) 0.51196(15)
C6 C 0.0509(4) 0.1806(3) 0.52798(16)
C7 C -0.0948(4) 0.1418(3) 0.49884(17)
H3 H -0.1218 0.1469 0.4559
C8 C -0.1998(4) 0.0952(3) 0.53475(18)
H4 H -0.2984 0.0687 0.5163
C9 C -0.1557(4) 0.0890(4) 0.59794(19)
H5 H -0.2244 0.0581 0.6229
C10 C -0.0095(4) 0.1287(4) 0.62411(18)
H6 H 0.0194 0.1230 0.6670
C11 C 0.5615(4) 0.3354(3) 0.56219(16)
C12 C 0.6985(4) 0.3908(3) 0.55146(18)
H7 H 0.7155 0.4074 0.5113
C13 C 0.8103(5) 0.4209(4) 0.6025(2)
H8 H 0.9036 0.4584 0.5969
C14 C 0.7813(5) 0.3945(4) 0.6613(2)
H9 H 0.8547 0.4135 0.6959
C15 C 0.6420(4) 0.3396(4) 0.66789(18)
H10 H 0.6230 0.3219 0.7077
C16 C 0.2164(5) 0.1967(4) 0.23646(17)
H11 H 0.1507 0.1449 0.2101
C17 C 0.2060(5) 0.1949(4) 0.29820(17)
H12 H 0.1327 0.1446 0.3128
C18 C 0.3065(4) 0.2693(3) 0.33952(16)
C19 C 0.4097(5) 0.3429(4) 0.31392(17)
H13 H 0.4790 0.3937 0.3394
C20 C 0.4105(5) 0.3417(4) 0.25119(17)
H14 H 0.4797 0.3937 0.2352
Cu1C Cu 0.31905(5) 0.22968(5) 0.621035(19)
N1C N 0.5321(3) 0.1896(3) 0.11967(13)
N3C N 0.3064(3) 0.2420(3) 0.03288(13)
N4C N 0.0935(3) 0.3248(3) 0.09036(13)
Br1 Br 0.21353(5) 0.53024(5) 0.60976(2)
O1 O 0.1805(4) 0.6781(4) 0.17515(19)
O2 O 0.1095(15) 0.8995(9) 0.2433(5)
loop_
_geom_bond_atom_site_label_1
_geom_bond_atom_site_label_2
_geom_bond_site_symmetry_1
_geom_bond_site_symmetry_2
Cu1 Br2 1_555 1_555
N1 C11 1_555 1_555
N2 Cu1 1_555 1_555
N3 C1 1_555 1_555
N4 C6 1_555 1_555
C1 C2 1_555 1_555
C2 H1 1_555 1_555
C3 C2 1_555 1_555
C4 C3 1_555 1_555
H2 C4 1_555 1_555
C5 N3 1_555 1_555
C6 C1 1_555 1_555
C7 C6 1_555 1_555
H3 C7 1_555 1_555
C8 C7 1_555 1_555
H4 C8 1_555 1_555
C9 C8 1_555 1_555
H5 C9 1_555 1_555
C10 N4 1_555 1_555
H6 C10 1_555 1_555
C11 C5 1_555 1_555
C12 C11 1_555 1_555
H7 C12 1_555 1_555
C13 C12 1_555 1_555
H8 C13 1_555 1_555
C14 C13 1_555 1_555
H9 C14 1_555 1_555
C15 N1 1_555 1_555
H10 C15 1_555 1_555
C16 N2 1_555 1_555
H11 C16 1_555 1_555
C17 C16 1_555 1_555
H12 C17 1_555 1_555
C18 C3 1_555 1_555
C19 C18 1_555 1_555
H13 C19 1_555 1_555
C20 N2 1_555 1_555
H14 C20 1_555 1_555
Cu1C N1 1_555 1_555
N1C Cu1 1_555 1_555
N3C Cu1 1_555 1_555
N4C Cu1 1_555 1_555
N3 Cu1C 1_555 1_555
N4 Cu1C 1_555 1_555
C4 C5 1_555 1_555
C9 C10 1_555 1_555
C14 C15 1_555 1_555
C17 C18 1_555 1_555
C19 C20 1_555 1_555

#END
