
#######################################################################
#
#                 Cambridge Crystallographic Data Centre
#                                CCDC 
#
#######################################################################
#
# If this CIF has been generated from an entry in the Cambridge 
# Structural Database, then it will include bibliographic, chemical, 
# crystal, experimental, refinement or atomic coordinate data resulting 
# from the CCDC's data processing and validation procedures.
#
#######################################################################

data_ZAZDAH
_symmetry_cell_setting           monoclinic
_symmetry_space_group_name_H-M   'C c'
_symmetry_Int_Tables_number      9
_space_group_name_Hall           'C -2yc'
loop_
_symmetry_equiv_pos_site_id
_symmetry_equiv_pos_as_xyz
1 x,y,z
2 x,-y,1/2+z
3 1/2+x,1/2+y,z
4 1/2+x,1/2-y,1/2+z
_cell_length_a                   9.8720(6)
_cell_length_b                   16.7397(9)
_cell_length_c                   17.0371(12)
_cell_angle_alpha                90
_cell_angle_beta                 104.8080(10)
_cell_angle_gamma                90
_cell_volume                     2721.95
loop_
_atom_site_label
_atom_site_type_symbol
_atom_site_fract_x
_atom_site_fract_y
_atom_site_fract_z
C1 C 0.5043(4) 0.3317(3) 0.8375(3)
C2 C 0.5021(4) 0.3720(4) 0.9060(3)
H1 H 0.4846 0.3423 0.9485
C3 C 0.5235(5) 0.4533(4) 0.9189(4)
H2 H 0.5209 0.4767 0.9680
C4 C 0.5508(5) 0.5020(4) 0.8512(4)
H3 H 0.5610 0.5572 0.8544
C5 C 0.5958(5) 0.4980(3) 0.7164(4)
H4 H 0.6138 0.5526 0.7206
C6 C 0.6052(6) 0.4617(4) 0.6496(4)
H5 H 0.6298 0.4899 0.6083
C7 C 0.5790(5) 0.3844(4) 0.6423(3)
H6 H 0.5822 0.3601 0.5936
C8 C 0.5481(6) 0.3377(2) 0.6999(3)
H7 H 0.5353 0.2830 0.6918
C9 C 0.5349(4) 0.3746(3) 0.7755(3)
C10 C 0.5598(4) 0.4590(2) 0.7831(3)
C11 C 0.4689(5) 0.2419(3) 0.8272(3)
H8 H 0.5244 0.2176 0.7941
H9 H 0.4936 0.2163 0.8800
C12 C 0.3162(4) 0.2280(2) 0.7881(2)
C13 C -0.3644(4) 0.1238(2) 0.6019(2)
C14 C -0.4305(5) 0.0870(3) 0.6521(3)
H10 H -0.3800 0.0526 0.6917
C15 C -0.5743(6) 0.0994(4) 0.6462(4)
H11 H -0.6171 0.0728 0.6814
C16 C -0.6493(6) 0.1492(4) 0.5901(4)
H12 H -0.7439 0.1572 0.5865
C17 C -0.6603(6) 0.2424(4) 0.4755(4)
H13 H -0.7553 0.2507 0.4704
C18 C -0.5967(8) 0.2812(4) 0.4245(4)
H14 H -0.6478 0.3163 0.3857
C19 C -0.4569(7) 0.2686(3) 0.4302(3)
H15 H -0.4148 0.2947 0.3944
C20 C -0.3797(5) 0.2192(2) 0.4868(3)
H16 H -0.2851 0.2121 0.4896
C21 C -0.4413(4) 0.1773(2) 0.5428(2)
C22 C -0.5847(4) 0.1894(3) 0.5364(3)
C23 C -0.2129(4) 0.1056(2) 0.6065(3)
H17 H -0.2070 0.0888 0.5530
H18 H -0.1850 0.0605 0.6427
C24 C -0.1059(4) 0.1725(2) 0.6348(3)
C25 C -0.0752(4) 0.3818(2) 0.5460(2)
H19 H -0.1579 0.3649 0.5573
C26 C -0.0852(4) 0.4311(2) 0.4812(2)
H20 H -0.1726 0.4468 0.4496
C27 C 0.0360(3) 0.4578(2) 0.46251(19)
C28 C 0.1603(4) 0.4296(2) 0.5112(2)
H21 H 0.2446 0.4448 0.5006
C29 C 0.1616(4) 0.3794(3) 0.5748(2)
H22 H 0.2472 0.3607 0.6059
C30 C 0.0329(3) 0.51534(19) 0.39496(19)
C31 C -0.0810(4) 0.5647(2) 0.3649(2)
H23 H -0.1599 0.5610 0.3850
C32 C -0.0769(4) 0.6190(2) 0.3051(2)
H24 H -0.1559 0.6502 0.2842
C33 C 0.1445(4) 0.5802(2) 0.3037(2)
H25 H 0.2225 0.5849 0.2829
C34 C 0.1458(4) 0.5236(2) 0.3619(2)
H26 H 0.2233 0.4905 0.3792
N1 N 0.0442(3) 0.35655(18) 0.59378(18)
N2 N 0.0350(3) 0.62939(19) 0.27547(18)
O1 O 0.2587(3) 0.27388(15) 0.72988(16)
O2 O 0.2541(4) 0.1753(2) 0.8135(2)
O3 O -0.1248(3) 0.22125(18) 0.6866(2)
O4 O -0.0016(3) 0.17509(17) 0.6086(2)
Zn1 Zn 0.05717(3) 0.281839(17) 0.69309(3)
N2A N 0.0350(3) 0.37061(19) 0.77547(18)
Zn1A Zn 0.05717(3) 0.718161(17) 0.19309(3)
loop_
_geom_bond_atom_site_label_1
_geom_bond_atom_site_label_2
_geom_bond_site_symmetry_1
_geom_bond_site_symmetry_2
C1 C2 1_555 1_555
C2 H1 1_555 1_555
C3 C2 1_555 1_555
H2 C3 1_555 1_555
C4 C3 1_555 1_555
H3 C4 1_555 1_555
C5 H4 1_555 1_555
C6 C5 1_555 1_555
H5 C6 1_555 1_555
C7 C6 1_555 1_555
H6 C7 1_555 1_555
C8 C7 1_555 1_555
H7 C8 1_555 1_555
C9 C1 1_555 1_555
C10 C4 1_555 1_555
C11 C1 1_555 1_555
H8 C11 1_555 1_555
H9 C11 1_555 1_555
C12 C11 1_555 1_555
C13 C14 1_555 1_555
C14 H10 1_555 1_555
C15 C14 1_555 1_555
H11 C15 1_555 1_555
C16 C15 1_555 1_555
H12 C16 1_555 1_555
C17 H13 1_555 1_555
C18 C17 1_555 1_555
H14 C18 1_555 1_555
C19 C18 1_555 1_555
H15 C19 1_555 1_555
C20 C19 1_555 1_555
H16 C20 1_555 1_555
C21 C13 1_555 1_555
C22 C16 1_555 1_555
C23 C13 1_555 1_555
H17 C23 1_555 1_555
H18 C23 1_555 1_555
C24 C23 1_555 1_555
C25 H19 1_555 1_555
C26 C25 1_555 1_555
H20 C26 1_555 1_555
C27 C26 1_555 1_555
C28 C27 1_555 1_555
H21 C28 1_555 1_555
C29 C28 1_555 1_555
H22 C29 1_555 1_555
C30 C27 1_555 1_555
C31 C30 1_555 1_555
H23 C31 1_555 1_555
C32 C31 1_555 1_555
H24 C32 1_555 1_555
C33 H25 1_555 1_555
C34 C30 1_555 1_555
H26 C34 1_555 1_555
N1 C25 1_555 1_555
N2 C32 1_555 1_555
O1 C12 1_555 1_555
O2 C12 1_555 1_555
O3 C24 1_555 1_555
O4 C24 1_555 1_555
Zn1 N1 1_555 1_555
N2A Zn1 1_555 1_555
Zn1A N2 1_555 1_555
C5 C10 1_555 1_555
C8 C9 1_555 1_555
C9 C10 1_555 1_555
C17 C22 1_555 1_555
C20 C21 1_555 1_555
C21 C22 1_555 1_555
C29 N1 1_555 1_555
C33 C34 1_555 1_555
C33 N2 1_555 1_555
O1 Zn1 1_555 1_555
O3 Zn1 1_555 1_555
O4 Zn1 1_555 1_555

#END
