
#######################################################################
#
#                 Cambridge Crystallographic Data Centre
#                                CCDC 
#
#######################################################################
#
# If this CIF has been generated from an entry in the Cambridge 
# Structural Database, then it will include bibliographic, chemical, 
# crystal, experimental, refinement or atomic coordinate data resulting 
# from the CCDC's data processing and validation procedures.
#
#######################################################################

data_ZAZDEL
_symmetry_cell_setting           monoclinic
_symmetry_space_group_name_H-M   'P 21/n'
_symmetry_Int_Tables_number      14
_space_group_name_Hall           '-P 2yn'
loop_
_symmetry_equiv_pos_site_id
_symmetry_equiv_pos_as_xyz
1 x,y,z
2 1/2-x,1/2+y,1/2-z
3 -x,-y,-z
4 1/2+x,1/2-y,1/2+z
_cell_length_a                   16.528(3)
_cell_length_b                   8.6531(14)
_cell_length_c                   18.604(3)
_cell_angle_alpha                90
_cell_angle_beta                 104.030(5)
_cell_angle_gamma                90
_cell_volume                     2581.34
loop_
_atom_site_label
_atom_site_type_symbol
_atom_site_fract_x
_atom_site_fract_y
_atom_site_fract_z
Cu1 Cu 0.0000 0.5000 0.0000
Cu2 Cu -0.56667(3) 0.75412(7) 0.18662(3)
O1 O -0.5278(2) 0.6418(5) 0.3014(2)
N1 N -0.4668(2) 0.7192(5) 0.1526(2)
C1 C -0.4564(3) 0.5839(6) 0.1213(3)
C2 C -0.3214(3) 0.6654(6) 0.1105(3)
C3 C -0.3833(3) 0.5522(6) 0.1000(3)
H1 H -0.3756 0.4572 0.0792
C4 C -0.3337(3) 0.8066(6) 0.1426(3)
H2 H -0.2931 0.8833 0.1497
C5 C -0.4082(3) 0.8299(6) 0.1636(3)
O2 O 0.0386(2) 0.7107(4) 0.0120(2)
O3 O 0.1287(3) 0.6304(5) 0.1129(2)
O4 O 0.3265(2) 0.8058(5) 0.2045(2)
O5 O 0.2984(3) 0.8848(6) 0.0884(2)
C6 C 0.0969(3) 0.7321(6) 0.0703(3)
C7 C 0.1249(3) 0.8992(6) 0.0849(4)
H3 H 0.1439 0.9370 0.0427
H4 H 0.0771 0.9610 0.0888
C8 C 0.1933(3) 0.9224(7) 0.1538(3)
H5 H 0.1977 1.0317 0.1657
H6 H 0.1785 0.8692 0.1947
C9 C 0.2777(3) 0.8644(6) 0.1467(3)
N2 N -0.0977(2) 0.5616(5) 0.0419(2)
C10 C -0.1373(3) 0.4556(6) 0.0734(3)
H7 H -0.1157 0.3559 0.0794
C11 C -0.2080(3) 0.4863(6) 0.0972(3)
H8 H -0.2328 0.4090 0.1193
C12 C -0.2418(3) 0.6323(6) 0.0882(3)
C13 C -0.2004(3) 0.7446(6) 0.0574(3)
H9 H -0.2205 0.8454 0.0516
C14 C -0.1291(3) 0.7048(6) 0.0355(3)
H10 H -0.1016 0.7811 0.0153
N3 N -0.5926(2) 0.5431(5) 0.1382(2)
C15 C -0.5301(3) 0.4802(6) 0.1126(3)
C16 C -0.6610(3) 0.4576(7) 0.1349(3)
H11 H -0.7046 0.5005 0.1517
C17 C -0.6695(3) 0.3099(7) 0.1078(3)
H12 H -0.7175 0.2532 0.1068
C18 C -0.6057(3) 0.2474(7) 0.0821(3)
H13 H -0.6101 0.1472 0.0636
C19 C -0.5340(3) 0.3343(6) 0.0838(3)
H14 H -0.4904 0.2942 0.0661
N4 N -0.5071(2) 0.9591(5) 0.2163(2)
C20 C -0.4315(3) 0.9690(6) 0.2006(3)
C21 C -0.5330(3) 1.0778(6) 0.2509(3)
H15 H -0.5847 1.0713 0.2621
C22 C -0.4857(3) 1.2102(6) 0.2705(3)
H16 H -0.5051 1.2909 0.2948
C23 C -0.4103(3) 1.2201(6) 0.2537(3)
H17 H -0.3778 1.3084 0.2660
C24 C -0.3820(3) 1.0979(6) 0.2182(3)
H18 H -0.3304 1.1031 0.2065
Cu2B Cu 0.56667(3) 0.24588(7) -0.18662(3)
Cu2_2 Cu 0.43333(3) 0.75412(7) 0.18662(3)
Cu2B_2 Cu -0.43333(3) 0.24588(7) -0.18662(3)
O1B O 0.5278(2) 0.3582(5) -0.3014(2)
N1B N 0.4668(2) 0.2808(5) -0.1526(2)
C1B C 0.4564(3) 0.4161(6) -0.1213(3)
C2B C 0.3214(3) 0.3346(6) -0.1105(3)
C3B C 0.3833(3) 0.4478(6) -0.1000(3)
H1B H 0.3756 0.5428 -0.0792
C4B C 0.3337(3) 0.1934(6) -0.1426(3)
H2B H 0.2931 0.1167 -0.1497
C5B C 0.4082(3) 0.1701(6) -0.1636(3)
O2B O -0.0386(2) 0.2893(4) -0.0120(2)
O3B O -0.1287(3) 0.3696(5) -0.1129(2)
O4B O -0.3265(2) 0.1942(5) -0.2045(2)
O4_2 O -0.6735(2) 0.8058(5) 0.2045(2)
O4B_2 O 0.6735(2) 0.1942(5) -0.2045(2)
O5B O -0.2984(3) 0.1152(6) -0.0884(2)
C6B C -0.0969(3) 0.2679(6) -0.0703(3)
C7B C -0.1249(3) 0.1008(6) -0.0849(4)
H3B H -0.1439 0.0630 -0.0427
H4B H -0.0771 0.0390 -0.0888
C8B C -0.1933(3) 0.0776(7) -0.1538(3)
H5B H -0.1977 -0.0317 -0.1657
H6B H -0.1785 0.1308 -0.1947
C9B C -0.2777(3) 0.1356(6) -0.1467(3)
N2B N 0.0977(2) 0.4384(5) -0.0419(2)
C10B C 0.1373(3) 0.5444(6) -0.0734(3)
H7B H 0.1157 0.6441 -0.0794
C11B C 0.2080(3) 0.5137(6) -0.0972(3)
H8B H 0.2328 0.5910 -0.1193
C12B C 0.2418(3) 0.3677(6) -0.0882(3)
C13B C 0.2004(3) 0.2554(6) -0.0574(3)
H9B H 0.2205 0.1546 -0.0516
C14B C 0.1291(3) 0.2952(6) -0.0355(3)
H10B H 0.1016 0.2189 -0.0153
N3B N 0.5926(2) 0.4569(5) -0.1382(2)
C15B C 0.5301(3) 0.5198(6) -0.1126(3)
C16B C 0.6610(3) 0.5424(7) -0.1349(3)
H11B H 0.7046 0.4995 -0.1517
C17B C 0.6695(3) 0.6901(7) -0.1078(3)
H12B H 0.7175 0.7468 -0.1068
C18B C 0.6057(3) 0.7526(7) -0.0821(3)
H13B H 0.6101 0.8528 -0.0636
C19B C 0.5340(3) 0.6657(6) -0.0838(3)
H14B H 0.4904 0.7058 -0.0661
N4B N 0.5071(2) 0.0409(5) -0.2163(2)
C20B C 0.4315(3) 0.0310(6) -0.2006(3)
C21B C 0.5330(3) -0.0778(6) -0.2509(3)
H15B H 0.5847 -0.0713 -0.2621
C22B C 0.4857(3) -0.2102(6) -0.2705(3)
H16B H 0.5051 -0.2909 -0.2948
C23B C 0.4103(3) -0.2201(6) -0.2537(3)
H17B H 0.3778 -0.3084 -0.2660
C24B C 0.3820(3) -0.0979(6) -0.2182(3)
H18B H 0.3304 -0.1031 -0.2065
O6 O -0.3543(3) 1.1795(6) 0.0367(3)
O7 O 0.1407(2) 0.3194(5) 0.1426(2)
Br1 Br -0.32738(3) 0.60647(6) 0.33003(4)
O8 O -0.5000 1.0000 0.0000
loop_
_geom_bond_atom_site_label_1
_geom_bond_atom_site_label_2
_geom_bond_site_symmetry_1
_geom_bond_site_symmetry_2
Cu1 O2 1_555 1_555
Cu2 O1 1_555 1_555
N1 Cu2 1_555 1_555
C1 N1 1_555 1_555
C2 C3 1_555 1_555
C3 C1 1_555 1_555
H1 C3 1_555 1_555
C4 C2 1_555 1_555
H2 C4 1_555 1_555
C5 N1 1_555 1_555
O2 C6 1_555 1_555
O3 C6 1_555 1_555
O4 C9 1_555 1_555
O5 C9 1_555 1_555
C6 C7 1_555 1_555
C7 H3 1_555 1_555
H4 C7 1_555 1_555
C8 C7 1_555 1_555
H5 C8 1_555 1_555
H6 C8 1_555 1_555
C9 C8 1_555 1_555
N2 Cu1 1_555 1_555
C10 N2 1_555 1_555
H7 C10 1_555 1_555
C11 C10 1_555 1_555
H8 C11 1_555 1_555
C12 C2 1_555 1_555
C13 C12 1_555 1_555
H9 C13 1_555 1_555
C14 N2 1_555 1_555
H10 C14 1_555 1_555
N3 Cu2 1_555 1_555
C15 C1 1_555 1_555
C16 N3 1_555 1_555
H11 C16 1_555 1_555
C17 C16 1_555 1_555
H12 C17 1_555 1_555
C18 C17 1_555 1_555
H13 C18 1_555 1_555
C19 C15 1_555 1_555
H14 C19 1_555 1_555
N4 Cu2 1_555 1_555
C20 C5 1_555 1_555
C21 N4 1_555 1_555
H15 C21 1_555 1_555
C22 C21 1_555 1_555
H16 C22 1_555 1_555
C23 C22 1_555 1_555
H17 C23 1_555 1_555
C24 C20 1_555 1_555
H18 C24 1_555 1_555
Cu2B O1B 1_555 1_555
Cu2_2 O4 1_555 1_555
Cu2B_2 O4B 1_555 1_555
N1B Cu2B 1_555 1_555
C1B N1B 1_555 1_555
C2B C3B 1_555 1_555
C3B C1B 1_555 1_555
H1B C3B 1_555 1_555
C4B C2B 1_555 1_555
H2B C4B 1_555 1_555
C5B N1B 1_555 1_555
O2B Cu1 1_555 1_555
O3B C6B 1_555 1_555
O4B C9B 1_555 1_555
O4_2 Cu2 1_555 1_555
O4B_2 Cu2B 1_555 1_555
O5B C9B 1_555 1_555
C6B O2B 1_555 1_555
C7B C6B 1_555 1_555
H3B C7B 1_555 1_555
H4B C7B 1_555 1_555
C8B C7B 1_555 1_555
H5B C8B 1_555 1_555
H6B C8B 1_555 1_555
C9B C8B 1_555 1_555
N2B Cu1 1_555 1_555
C10B N2B 1_555 1_555
H7B C10B 1_555 1_555
C11B C10B 1_555 1_555
H8B C11B 1_555 1_555
C12B C2B 1_555 1_555
C13B C12B 1_555 1_555
H9B C13B 1_555 1_555
C14B N2B 1_555 1_555
H10B C14B 1_555 1_555
N3B Cu2B 1_555 1_555
C15B C1B 1_555 1_555
C16B N3B 1_555 1_555
H11B C16B 1_555 1_555
C17B C16B 1_555 1_555
H12B C17B 1_555 1_555
C18B C17B 1_555 1_555
H13B C18B 1_555 1_555
C19B C15B 1_555 1_555
H14B C19B 1_555 1_555
N4B Cu2B 1_555 1_555
C20B C5B 1_555 1_555
C21B N4B 1_555 1_555
H15B C21B 1_555 1_555
C22B C21B 1_555 1_555
H16B C22B 1_555 1_555
C23B C22B 1_555 1_555
H17B C23B 1_555 1_555
C24B C20B 1_555 1_555
H18B C24B 1_555 1_555
C4 C5 1_555 1_555
C11 C12 1_555 1_555
C13 C14 1_555 1_555
N3 C15 1_555 1_555
C18 C19 1_555 1_555
N4 C20 1_555 1_555
C23 C24 1_555 1_555
C4B C5B 1_555 1_555
C11B C12B 1_555 1_555
C13B C14B 1_555 1_555
N3B C15B 1_555 1_555
C18B C19B 1_555 1_555
N4B C20B 1_555 1_555
C23B C24B 1_555 1_555

#END
