
#######################################################################
#
#                 Cambridge Crystallographic Data Centre
#                                CCDC 
#
#######################################################################
#
# If this CIF has been generated from an entry in the Cambridge 
# Structural Database, then it will include bibliographic, chemical, 
# crystal, experimental, refinement or atomic coordinate data resulting 
# from the CCDC's data processing and validation procedures.
#
#######################################################################

data_ZAZFEN
_symmetry_cell_setting           triclinic
_symmetry_space_group_name_H-M   'P -1'
_symmetry_Int_Tables_number      2
_space_group_name_Hall           '-P 1'
loop_
_symmetry_equiv_pos_site_id
_symmetry_equiv_pos_as_xyz
1 x,y,z
2 -x,-y,-z
_cell_length_a                   8.841(4)
_cell_length_b                   10.104(5)
_cell_length_c                   14.995(7)
_cell_angle_alpha                99.322(15)
_cell_angle_beta                 90.675(16)
_cell_angle_gamma                108.535(14)
_cell_volume                     1250.37
loop_
_atom_site_label
_atom_site_type_symbol
_atom_site_fract_x
_atom_site_fract_y
_atom_site_fract_z
Co1 Co 0.72371(10) 0.20767(10) 0.30872(6)
N1 N 0.7425(6) 0.2400(5) 0.4468(4)
N2 N 0.9771(6) 0.2941(6) 0.3418(4)
O1 O 0.6883(6) 0.3170(5) 0.2100(4)
O2 O 0.6991(7) 0.4618(5) 0.3383(4)
O3 O 0.7293(6) 1.0391(5) 0.2128(3)
N3 N 0.4807(6) 0.1377(6) 0.3434(4)
N4 N 0.8119(8) 0.3308(8) 0.9258(4)
C1 C 0.9043(7) 0.3153(7) 0.5843(4)
H1 H 1.0052 0.3523 0.6146
O4 O 0.7623(8) 0.9679(5) 0.3392(4)
C2 C 0.8906(7) 0.2951(7) 0.4916(4)
C3 C 0.4588(7) 0.1456(7) 0.4329(4)
C4 C 0.7151(7) 0.6892(7) 0.2488(4)
H2 H 0.7248 0.7067 0.3118
C5 C 0.6184(8) 0.2257(7) 0.5860(4)
H3 H 0.5259 0.2030 0.6171
C6 C 1.2515(8) 0.3785(8) 0.3096(5)
H4 H 1.3279 0.3961 0.2670
C7 C 1.0230(8) 0.3278(7) 0.4298(5)
C8 C 0.1962(8) 0.0397(7) 0.3124(5)
H5 H 0.1091 0.0054 0.2700
C9 C 0.7810(7) 0.3025(7) 0.7342(4)
C10 C 0.6077(8) 0.2049(7) 0.4925(5)
C11 C 0.7282(8) 0.8011(7) 0.2030(5)
C12 C 0.6879(8) 0.5513(8) 0.2027(5)
C13 C 0.3091(8) 0.0992(7) 0.4659(5)
H6 H 0.2976 0.1043 0.5278
C14 C 0.6896(8) 0.4376(8) 0.2541(5)
C15 C 0.7682(8) 0.2809(7) 0.6340(4)
C16 C 0.7444(8) 0.9444(7) 0.2556(5)
C17 C 1.1807(7) 0.3876(7) 0.4620(5)
H7 H 1.2086 0.4108 0.5239
C18 C 0.6840(10) 0.2456(10) 0.8754(5)
H8 H 0.5997 0.1943 0.9054
C19 C 0.9151(9) 0.3976(9) 0.7861(5)
H9 H 0.9992 0.4537 0.7582
C20 C 0.7150(9) 0.7749(8) 0.1087(5)
H10 H 0.7240 0.8487 0.0771
C21 C 0.1756(8) 0.0445(8) 0.4041(5)
H11 H 0.0736 0.0115 0.4243
C22 C 0.6642(9) 0.2258(8) 0.7837(5)
H12 H 0.5712 0.1600 0.7539
C23 C 0.6889(9) 0.6406(7) 0.0625(5)
H13 H 0.6813 0.6236 -0.0005
C24 C 0.9220(10) 0.4076(10) 0.8786(6)
H14 H 1.0118 0.4741 0.9110
C25 C 1.2961(8) 0.4121(7) 0.4001(5)
H15 H 1.4037 0.4513 0.4198
C26 C 0.3482(8) 0.0869(7) 0.2864(5)
H16 H 0.3617 0.0838 0.2248
C27 C 1.0914(8) 0.3182(7) 0.2823(5)
H17 H 1.0613 0.2932 0.2207
C28 C 0.6737(9) 0.5307(8) 0.1083(5)
H18 H 0.6534 0.4397 0.0755
Co1_2 Co 0.72371(10) 1.20767(10) 0.30872(6)
O3_2 O 0.7293(6) 0.0391(5) 0.2128(3)
O5 O 0.8954(8) 0.1727(8) 0.0608(4)
O6 O 0.4746(9) 0.1195(9) 0.0587(5)
O7 O 0.1539(11) 0.0725(12) 0.0912(6)
loop_
_geom_bond_atom_site_label_1
_geom_bond_atom_site_label_2
_geom_bond_site_symmetry_1
_geom_bond_site_symmetry_2
Co1 N1 1_555 1_555
N1 C2 1_555 1_555
N2 Co1 1_555 1_555
O1 Co1 1_555 1_555
O2 C14 1_555 1_555
O3 C16 1_555 1_555
N3 Co1 1_555 1_555
N4 C18 1_555 1_555
C1 H1 1_555 1_555
O4 C16 1_555 1_555
C2 C1 1_555 1_555
C3 N3 1_555 1_555
C4 H2 1_555 1_555
C5 H3 1_555 1_555
C6 H4 1_555 1_555
C7 N2 1_555 1_555
C8 H5 1_555 1_555
C9 C15 1_555 1_555
C10 N1 1_555 1_555
C11 C4 1_555 1_555
C12 C4 1_555 1_555
C13 C3 1_555 1_555
H6 C13 1_555 1_555
C14 O1 1_555 1_555
C15 C1 1_555 1_555
C16 C11 1_555 1_555
C17 C7 1_555 1_555
H7 C17 1_555 1_555
C18 H8 1_555 1_555
C19 C9 1_555 1_555
H9 C19 1_555 1_555
C20 C11 1_555 1_555
H10 C20 1_555 1_555
C21 C8 1_555 1_555
H11 C21 1_555 1_555
C22 C9 1_555 1_555
H12 C22 1_555 1_555
C23 C20 1_555 1_555
H13 C23 1_555 1_555
C24 N4 1_555 1_555
H14 C24 1_555 1_555
C25 C6 1_555 1_555
H15 C25 1_555 1_555
C26 N3 1_555 1_555
H16 C26 1_555 1_555
C27 N2 1_555 1_555
H17 C27 1_555 1_555
C28 C12 1_555 1_555
H18 C28 1_555 1_555
Co1_2 O3 1_555 1_555
O3_2 Co1 1_555 1_555
C2 C7 1_555 1_555
C3 C10 1_555 1_555
C5 C10 1_555 1_555
C5 C15 1_555 1_555
C6 C27 1_555 1_555
C8 C26 1_555 1_555
C12 C14 1_555 1_555
C13 C21 1_555 1_555
C17 C25 1_555 1_555
C18 C22 1_555 1_555
C19 C24 1_555 1_555
C23 C28 1_555 1_555

#END
