
#######################################################################
#
#                 Cambridge Crystallographic Data Centre
#                                CCDC 
#
#######################################################################
#
# If this CIF has been generated from an entry in the Cambridge 
# Structural Database, then it will include bibliographic, chemical, 
# crystal, experimental, refinement or atomic coordinate data resulting 
# from the CCDC's data processing and validation procedures.
#
#######################################################################

data_ZAZFAJ
_symmetry_cell_setting           monoclinic
_symmetry_space_group_name_H-M   'P 21/n'
_symmetry_Int_Tables_number      14
_space_group_name_Hall           '-P 2yn'
loop_
_symmetry_equiv_pos_site_id
_symmetry_equiv_pos_as_xyz
1 x,y,z
2 1/2-x,1/2+y,1/2-z
3 -x,-y,-z
4 1/2+x,1/2-y,1/2+z
_cell_length_a                   8.7967(17)
_cell_length_b                   13.421(3)
_cell_length_c                   20.615(4)
_cell_angle_alpha                90
_cell_angle_beta                 92.277(6)
_cell_angle_gamma                90
_cell_volume                     2431.9
loop_
_atom_site_label
_atom_site_type_symbol
_atom_site_fract_x
_atom_site_fract_y
_atom_site_fract_z
Ni1 Ni 0.37961(4) 0.26680(3) 0.137748(16)
O1 O 0.3969(3) 0.12371(15) 0.16860(11)
N1 N 0.3691(2) 0.41335(17) 0.12323(10)
C1 C 0.2487(3) 0.4637(2) 0.14423(13)
C2 C 0.2461(3) 0.5672(2) 0.14212(14)
H1 H 0.1629 0.6022 0.1567
C3 C 0.3699(3) 0.6180(2) 0.11780(13)
C4 C 0.4923(3) 0.5632(2) 0.09623(13)
H2 H 0.5761 0.5956 0.0798
C5 C 0.4886(3) 0.46051(19) 0.09935(12)
N2 N 0.1628(3) 0.30069(18) 0.17177(11)
C6 C 0.1275(3) 0.3985(2) 0.16995(13)
C7 C 0.0593(4) 0.2369(2) 0.19398(17)
H3 H 0.0825 0.1693 0.1950
C8 C -0.0778(4) 0.2670(3) 0.21512(19)
H4 H -0.1467 0.2206 0.2301
C9 C -0.1138(4) 0.3677(3) 0.21404(18)
H5 H -0.2067 0.3897 0.2286
C10 C -0.0097(3) 0.4345(2) 0.19105(15)
H6 H -0.0312 0.5024 0.1897
N3 N 0.5897(3) 0.29536(17) 0.09541(11)
C11 C 0.6130(3) 0.39259(19) 0.08038(13)
C12 C 0.6975(4) 0.2300(2) 0.08030(17)
H7 H 0.6832 0.1632 0.0904
C13 C 0.8289(4) 0.2571(3) 0.05050(19)
H8 H 0.9018 0.2095 0.0413
C14 C 0.8505(4) 0.3553(3) 0.03467(17)
H9 H 0.9379 0.3752 0.0143
C15 C 0.7402(3) 0.4246(2) 0.04954(14)
H10 H 0.7519 0.4914 0.0389
N4 N 0.3831(3) 0.93710(19) 0.11451(13)
C16 C 0.4514(4) 0.8828(2) 0.06999(17)
H11 H 0.5028 0.9158 0.0378
C17 C 0.4494(4) 0.7799(2) 0.06946(16)
H12 H 0.5003 0.7452 0.0379
C18 C 0.3719(3) 0.7285(2) 0.11577(14)
C19 C 0.2979(4) 0.7853(2) 0.16114(15)
H13 H 0.2428 0.7546 0.1931
C20 C 0.3071(4) 0.8875(2) 0.15834(16)
H14 H 0.2568 0.9241 0.1892
O2 O 0.5678(3) 0.16761(15) 0.27117(10)
O3 O 0.4811(2) 0.31050(15) 0.22908(9)
O4 O 0.7260(3) 0.15225(16) 0.50120(10)
O5 O 0.7834(2) 0.29187(14) 0.55455(9)
C21 C 0.5865(3) 0.3131(2) 0.33595(13)
C22 C 0.6351(3) 0.2591(2) 0.39039(13)
H15 H 0.6452 0.1903 0.3872
C23 C 0.6691(3) 0.3053(2) 0.44939(13)
C24 C 0.6516(3) 0.4085(2) 0.45412(14)
H16 H 0.6721 0.4404 0.4935
C25 C 0.6037(4) 0.4633(2) 0.40007(15)
H17 H 0.5923 0.5320 0.4033
C26 C 0.5728(4) 0.4160(2) 0.34125(14)
H18 H 0.5427 0.4534 0.3050
C27 C 0.5427(3) 0.2594(2) 0.27360(13)
C28 C 0.7296(3) 0.2440(2) 0.50654(14)
Ni1C Ni 0.87961(4) 0.23320(3) 0.637748(16)
O5C O 0.2834(2) 0.20813(14) 0.05455(9)
loop_
_geom_bond_atom_site_label_1
_geom_bond_atom_site_label_2
_geom_bond_site_symmetry_1
_geom_bond_site_symmetry_2
Ni1 O1 1_555 1_555
N1 Ni1 1_555 1_555
C1 N1 1_555 1_555
C2 C1 1_555 1_555
H1 C2 1_555 1_555
C3 C2 1_555 1_555
C4 C3 1_555 1_555
H2 C4 1_555 1_555
C5 N1 1_555 1_555
N2 Ni1 1_555 1_555
C6 C1 1_555 1_555
C7 N2 1_555 1_555
H3 C7 1_555 1_555
C8 C7 1_555 1_555
H4 C8 1_555 1_555
C9 C8 1_555 1_555
H5 C9 1_555 1_555
C10 C6 1_555 1_555
H6 C10 1_555 1_555
N3 Ni1 1_555 1_555
C11 C5 1_555 1_555
C12 N3 1_555 1_555
H7 C12 1_555 1_555
C13 C12 1_555 1_555
H8 C13 1_555 1_555
C14 C13 1_555 1_555
H9 C14 1_555 1_555
C15 C11 1_555 1_555
H10 C15 1_555 1_555
N4 C16 1_555 1_555
C16 H11 1_555 1_555
C17 C16 1_555 1_555
H12 C17 1_555 1_555
C18 C3 1_555 1_555
C19 C18 1_555 1_555
H13 C19 1_555 1_555
C20 N4 1_555 1_555
H14 C20 1_555 1_555
O2 C27 1_555 1_555
O3 Ni1 1_555 1_555
O4 C28 1_555 1_555
O5 C28 1_555 1_555
C21 C22 1_555 1_555
C22 H15 1_555 1_555
C23 C22 1_555 1_555
C24 C23 1_555 1_555
H16 C24 1_555 1_555
C25 C24 1_555 1_555
H17 C25 1_555 1_555
C26 C21 1_555 1_555
H18 C26 1_555 1_555
C27 O3 1_555 1_555
C28 C23 1_555 1_555
Ni1C O5 1_555 1_555
O5C Ni1 1_555 1_555
C4 C5 1_555 1_555
N2 C6 1_555 1_555
C9 C10 1_555 1_555
N3 C11 1_555 1_555
C14 C15 1_555 1_555
C17 C18 1_555 1_555
C19 C20 1_555 1_555
C21 C27 1_555 1_555
C25 C26 1_555 1_555

#END
