
#######################################################################
#
#                 Cambridge Crystallographic Data Centre
#                                CCDC 
#
#######################################################################
#
# If this CIF has been generated from an entry in the Cambridge 
# Structural Database, then it will include bibliographic, chemical, 
# crystal, experimental, refinement or atomic coordinate data resulting 
# from the CCDC's data processing and validation procedures.
#
#######################################################################

data_ZAZJOZ
_symmetry_cell_setting           monoclinic
_symmetry_space_group_name_H-M   'P 21/c'
_symmetry_Int_Tables_number      14
_space_group_name_Hall           '-P 2ybc'
loop_
_symmetry_equiv_pos_site_id
_symmetry_equiv_pos_as_xyz
1 x,y,z
2 -x,1/2+y,1/2-z
3 -x,-y,-z
4 x,1/2-y,1/2+z
_cell_length_a                   7.999(2)
_cell_length_b                   8.009(2)
_cell_length_c                   9.201(2)
_cell_angle_alpha                90
_cell_angle_beta                 100.24(3)
_cell_angle_gamma                90
_cell_volume                     580.064
loop_
_atom_site_label
_atom_site_type_symbol
_atom_site_fract_x
_atom_site_fract_y
_atom_site_fract_z
V1 V -0.0554(1) -0.0024(2) 0.4894(1)
P1 P -0.1166(1) 0.3190(1) 0.2789(1)
O1 O -0.0253(4) 0.2235(4) 0.4120(3)
O2 O 0.0100(3) 0.3963(3) 0.1945(3)
O3 O -0.2592(4) 0.2241(5) 0.1863(4)
O4 O -0.2553(4) -0.0139(5) 0.4675(4)
N1 N -0.3338(4) 0.4700(4) 0.4536(3)
C1 C -0.2083(5) 0.5032(4) 0.3537(4)
C2 C -0.3764(5) 0.6310(5) 0.5210(5)
C3 C -0.4964(5) 0.3956(5) 0.3741(4)
H1 H -0.1058 0.5665 0.3820
H2 H -0.2707 0.5462 0.2627
H3 H -0.4236 0.7403 0.5000
H4 H -0.3413 0.6183 0.6257
H5 H -0.4922 0.2897 0.4201
H6 H -0.5902 0.4118 0.2944
C3B C -0.5036(5) 0.6044(5) 0.6259(4)
N1B N -0.6662(4) 0.5300(4) 0.5464(3)
C1B C -0.7917(5) 0.4968(4) 0.6463(4)
P1B P -0.8834(1) 0.6810(1) 0.7211(1)
O1B O -0.9747(4) 0.7765(4) 0.5880(3)
O2B O -1.0100(3) 0.6037(3) 0.8055(3)
O3B O -0.7408(4) 0.7759(5) 0.8137(4)
H1B H -0.8942 0.4335 0.6180
H2B H -0.7293 0.4538 0.7373
C2B C -0.6236(5) 0.3690(5) 0.4790(5)
H3B H -0.5764 0.2597 0.5000
H4B H -0.6587 0.3817 0.3743
H5B H -0.5078 0.7103 0.5799
H6B H -0.4098 0.5882 0.7056
V1B V -0.9446(1) 1.0024(2) 0.5106(1)
O4B O -0.7447(4) 1.0139(5) 0.5325(4)
V1B_2 V 0.0554(1) 0.0024(2) 0.5106(1)
O1B_2 O 0.0253(4) -0.2235(4) 0.5880(3)
O2A O -0.0100(3) -0.1037(3) 0.3055(3)
O2C O 0.0100(3) 0.1037(3) 0.6945(3)
V1A V 0.0554(1) 0.4976(2) 0.0106(1)
V1C V -0.0554(1) 0.5024(2) -0.0106(1)
V1_2 V -1.0554(1) 0.9976(2) 0.4894(1)
V1A_2 V -0.9446(1) 0.4976(2) 1.0106(1)
V1C_2 V -1.0554(1) 0.5024(2) 0.9894(1)
O1_2 O -1.0253(4) 1.2235(4) 0.4120(3)
O2A_2 O -1.0100(3) 0.8963(3) 0.3055(3)
O2C_2 O -0.9900(3) 1.1037(3) 0.6945(3)
loop_
_geom_bond_atom_site_label_1
_geom_bond_atom_site_label_2
_geom_bond_site_symmetry_1
_geom_bond_site_symmetry_2
V1 O1 1_555 1_555
P1 O1 1_555 1_555
O1 V1B_2 1_555 1_555
O2 P1 1_555 1_555
O3 P1 1_555 1_555
O4 V1 1_555 1_555
N1 C1 1_555 1_555
C1 P1 1_555 1_555
C2 N1 1_555 1_555
C3 N1 1_555 1_555
H1 C1 1_555 1_555
H2 C1 1_555 1_555
H3 C2 1_555 1_555
H4 C2 1_555 1_555
H5 C3 1_555 1_555
H6 C3 1_555 1_555
C3B C2 1_555 1_555
N1B C3B 1_555 1_555
C1B N1B 1_555 1_555
P1B C1B 1_555 1_555
O1B P1B 1_555 1_555
O2B P1B 1_555 1_555
O3B P1B 1_555 1_555
H1B C1B 1_555 1_555
H2B C1B 1_555 1_555
C2B C3 1_555 1_555
H3B C2B 1_555 1_555
H4B C2B 1_555 1_555
H5B C3B 1_555 1_555
H6B C3B 1_555 1_555
V1B O1B 1_555 1_555
O4B V1B 1_555 1_555
V1B_2 V1 1_555 1_555
O1B_2 V1 1_555 1_555
O2A V1 1_555 1_555
O2C V1 1_555 1_555
V1A O2 1_555 1_555
V1C O2 1_555 1_555
V1_2 O1B 1_555 1_555
V1A_2 O2B 1_555 1_555
V1C_2 O2B 1_555 1_555
O1_2 V1B 1_555 1_555
O2A_2 V1B 1_555 1_555
O2C_2 V1B 1_555 1_555
N1B C2B 1_555 1_555
V1B V1_2 1_555 1_555
V1B_2 O1B_2 1_555 1_555
V1B_2 O2A 1_555 1_555
V1B_2 O2C 1_555 1_555
V1A V1C 1_555 1_555
V1_2 O1_2 1_555 1_555
V1_2 O2A_2 1_555 1_555
V1_2 O2C_2 1_555 1_555
V1A_2 V1C_2 1_555 1_555

#END
