
#######################################################################
#
#                 Cambridge Crystallographic Data Centre
#                                CCDC 
#
#######################################################################
#
# If this CIF has been generated from an entry in the Cambridge 
# Structural Database, then it will include bibliographic, chemical, 
# crystal, experimental, refinement or atomic coordinate data resulting 
# from the CCDC's data processing and validation procedures.
#
#######################################################################

data_ZAZXUV
_symmetry_cell_setting           monoclinic
_symmetry_space_group_name_H-M   'P 21/n'
_symmetry_Int_Tables_number      14
_space_group_name_Hall           '-P 2yn'
loop_
_symmetry_equiv_pos_site_id
_symmetry_equiv_pos_as_xyz
1 x,y,z
2 1/2-x,1/2+y,1/2-z
3 -x,-y,-z
4 1/2+x,1/2-y,1/2+z
_cell_length_a                   9.5586(2)
_cell_length_b                   12.6152(2)
_cell_length_c                   22.9512(4)
_cell_angle_alpha                90
_cell_angle_beta                 97.5790(10)
_cell_angle_gamma                90
_cell_volume                     2743.36
loop_
_atom_site_label
_atom_site_type_symbol
_atom_site_fract_x
_atom_site_fract_y
_atom_site_fract_z
Eu1 Eu 0.251867(10) 0.464239(8) -0.000216(5)
O1 O 0.32264(16) 0.59553(12) -0.07394(7)
O2 O 0.15938(16) 0.64624(12) -0.02097(7)
O3 O 0.43345(17) 0.56719(13) 0.05037(8)
O4 O 0.62533(17) 0.66358(13) 0.05058(8)
O5 O 0.09533(17) 0.44080(14) -0.09049(7)
O6 O -0.11322(18) 0.49960(14) -0.07295(8)
O7 O 0.11905(18) 0.30453(14) 0.01297(9)
O8 O 0.39670(19) 0.35654(15) 0.07686(8)
N1 N 0.1335(2) 1.14769(16) -0.06962(11)
N2 N 0.3606(3) 1.13079(17) 0.08443(11)
N3 N -0.5420(3) 0.2559(2) -0.26343(13)
C1 C 0.2395(2) 0.66579(17) -0.05934(10)
C2 C 0.2406(3) 0.77194(18) -0.08646(11)
C3 C 0.1833(3) 0.85500(19) -0.06420(11)
C4 C 0.1809(3) 0.96388(17) -0.08707(11)
C5 C 0.1403(3) 1.04602(19) -0.05279(13)
C6 C 0.1692(3) 1.1702(2) -0.12235(13)
C7 C 0.2106(4) 1.0944(2) -0.15970(13)
C8 C 0.2170(3) 0.9895(2) -0.14186(12)
C9 C 0.4979(2) 0.65398(17) 0.05668(9)
C10 C 0.4170(2) 0.74826(18) 0.07146(10)
C11 C 0.4635(2) 0.84673(18) 0.07151(11)
C12 C 0.3844(2) 0.94033(18) 0.08666(11)
C13 C 0.4276(3) 1.04194(19) 0.07308(13)
C14 C 0.2463(3) 1.1209(2) 0.11154(14)
C15 C 0.1962(3) 1.0248(2) 0.12842(15)
C16 C 0.2647(3) 0.9338(2) 0.11556(13)
C17 C -0.0365(2) 0.44717(17) -0.10237(10)
C18 C -0.1022(3) 0.3866(2) -0.15478(11)
C19 C -0.2396(3) 0.3832(2) -0.17104(11)
C20 C -0.3149(3) 0.31425(19) -0.21628(10)
C21 C -0.4612(3) 0.3190(3) -0.22631(14)
C22 C -0.4764(4) 0.1846(3) -0.29264(15)
C23 C -0.3340(4) 0.1733(3) -0.28632(15)
C24 C -0.2512(3) 0.2384(3) -0.24777(13)
H1 H 0.287(3) 0.7784(19) -0.1196(11)
H2 H 0.144(3) 0.8438(19) -0.0303(11)
H3 H 0.117(3) 1.028(2) -0.0151(12)
H4 H 0.164(3) 1.242(2) -0.1332(12)
H5 H 0.232(3) 1.112(2) -0.1959(13)
H6 H 0.252(3) 0.940(2) -0.1690(13)
H7 H 0.333(3) 0.735(2) 0.0789(11)
H8 H 0.550(3) 0.857(2) 0.0601(11)
H9 H 0.504(3) 1.048(2) 0.0542(12)
H10 H 0.204(3) 1.183(2) 0.1182(12)
H11 H 0.120(3) 1.024(2) 0.1488(14)
H12 H 0.231(3) 0.873(2) 0.1256(11)
H13 H -0.041(3) 0.347(2) -0.1765(13)
H14 H -0.297(3) 0.424(2) -0.1502(12)
H15 H -0.505(3) 0.366(2) -0.2041(13)
H16 H -0.538(4) 0.138(3) -0.3193(15)
H17 H -0.298(3) 0.126(3) -0.3057(14)
H18 H -0.164(4) 0.236(2) -0.2427(13)
H19 H 0.117(3) 0.257(3) -0.0127(15)
H20 H 0.038(4) 0.314(2) 0.0183(13)
H21 H 0.387(4) 0.293(3) 0.0759(15)
H22 H 0.480(3) 0.372(2) 0.0765(12)
Eu1B Eu 0.748133(10) 0.535761(8) 0.000216(5)
Eu1B_2 Eu -0.251867(10) 0.535761(8) 0.000216(5)
O4B O 0.37467(17) 0.33642(13) -0.05058(8)
O6B O 0.11322(18) 0.50040(14) 0.07295(8)
O9 O 0.8327(3) 0.6990(2) 0.26288(12)
H23 H 0.882(5) 0.758(4) 0.280(2)
H24 H 0.750(5) 0.721(3) 0.2623(18)
O10 O 0.7495(3) 0.5165(3) 0.19538(14)
H25 H 0.783(5) 0.532(4) 0.161(2)
H26 H 0.793(5) 0.570(4) 0.2157(19)
O11 O 0.5163(3) 0.3882(2) 0.20275(12)
H27 H 0.610(6) 0.447(4) 0.201(2)
H28 H 0.464(5) 0.382(4) 0.168(2)
loop_
_geom_bond_atom_site_label_1
_geom_bond_atom_site_label_2
_geom_bond_site_symmetry_1
_geom_bond_site_symmetry_2
Eu1 O1 1_555 1_555
O1 C1 1_555 1_555
O2 Eu1 1_555 1_555
O3 Eu1 1_555 1_555
O4 C9 1_555 1_555
O5 Eu1 1_555 1_555
O6 C17 1_555 1_555
O7 Eu1 1_555 1_555
O8 Eu1 1_555 1_555
O9 H23 1_555 1_555
O10 H25 1_555 1_555
O11 H27 1_555 1_555
N1 C5 1_555 1_555
N2 C13 1_555 1_555
N3 C21 1_555 1_555
C1 O2 1_555 1_555
C2 C1 1_555 1_555
C3 C2 1_555 1_555
C4 C3 1_555 1_555
C5 C4 1_555 1_555
C6 N1 1_555 1_555
C7 C6 1_555 1_555
C8 C4 1_555 1_555
C9 O3 1_555 1_555
C10 C9 1_555 1_555
C11 C10 1_555 1_555
C12 C11 1_555 1_555
C13 C12 1_555 1_555
C14 N2 1_555 1_555
C15 C14 1_555 1_555
C16 C12 1_555 1_555
C17 O5 1_555 1_555
C18 C17 1_555 1_555
C19 C18 1_555 1_555
C20 C19 1_555 1_555
C21 C20 1_555 1_555
C22 N3 1_555 1_555
C23 C22 1_555 1_555
C24 C20 1_555 1_555
H1 C2 1_555 1_555
H2 C3 1_555 1_555
H3 C5 1_555 1_555
H4 C6 1_555 1_555
H5 C7 1_555 1_555
H6 C8 1_555 1_555
H7 C10 1_555 1_555
H8 C11 1_555 1_555
H9 C13 1_555 1_555
H10 C14 1_555 1_555
H11 C15 1_555 1_555
H12 C16 1_555 1_555
H13 C18 1_555 1_555
H14 C19 1_555 1_555
H15 C21 1_555 1_555
H16 C22 1_555 1_555
H17 C23 1_555 1_555
H18 C24 1_555 1_555
H19 O7 1_555 1_555
H20 O7 1_555 1_555
H21 O8 1_555 1_555
H22 O8 1_555 1_555
H24 O9 1_555 1_555
H26 O10 1_555 1_555
H28 O11 1_555 1_555
Eu1B O4 1_555 1_555
Eu1B_2 O6 1_555 1_555
O4B Eu1 1_555 1_555
O6B Eu1 1_555 1_555
C7 C8 1_555 1_555
C15 C16 1_555 1_555
C23 C24 1_555 1_555

#END
