
#######################################################################
#
#                 Cambridge Crystallographic Data Centre
#                                CCDC 
#
#######################################################################
#
# If this CIF has been generated from an entry in the Cambridge 
# Structural Database, then it will include bibliographic, chemical, 
# crystal, experimental, refinement or atomic coordinate data resulting 
# from the CCDC's data processing and validation procedures.
#
#######################################################################

data_ZAZYEG
_symmetry_cell_setting           monoclinic
_symmetry_space_group_name_H-M   'P 21/n'
_symmetry_Int_Tables_number      14
_space_group_name_Hall           '-P 2yn'
loop_
_symmetry_equiv_pos_site_id
_symmetry_equiv_pos_as_xyz
1 x,y,z
2 1/2-x,1/2+y,1/2-z
3 -x,-y,-z
4 1/2+x,1/2-y,1/2+z
_cell_length_a                   9.5502(2)
_cell_length_b                   12.5828(2)
_cell_length_c                   22.9473(4)
_cell_angle_alpha                90
_cell_angle_beta                 97.6970(10)
_cell_angle_gamma                90
_cell_volume                     2732.69
loop_
_atom_site_label
_atom_site_type_symbol
_atom_site_fract_x
_atom_site_fract_y
_atom_site_fract_z
Gd1 Gd 0.24845(3) 0.964151(12) -0.000164(11)
O1 O 0.1774(3) 1.09461(19) 0.07328(12)
O2 O 0.3409(3) 1.14532(19) 0.02042(12)
O3 O 0.1250(3) 0.8384(2) 0.05041(12)
O4 O -0.0683(3) 0.93422(18) 0.05028(12)
O5 O 0.3856(3) 0.9994(2) -0.07283(12)
O6 O 0.5953(3) 1.0592(2) -0.08939(12)
O7 O 0.1039(4) 0.8571(3) -0.07669(15)
O8 O 0.3802(3) 0.8047(2) -0.01352(15)
N1 N 0.3660(4) 1.6486(3) 0.06939(18)
N2 N -0.1379(4) 0.3697(3) 0.08397(18)
N3 N -0.0422(4) 1.2435(4) -0.2633(2)
C1 C 0.3589(4) 1.5463(3) 0.05287(19)
H1 H 0.3818 1.5300 0.0158
C2 C 0.3313(5) 1.6701(3) 0.1222(2)
H2 H 0.3352 1.7404 0.1348
C3 C 0.2899(6) 1.5938(3) 0.1594(2)
H3 H 0.2665 1.6127 0.1960
C4 C 0.2835(5) 1.4891(3) 0.1416(2)
H4 H 0.2551 1.4365 0.1660
C5 C 0.3202(4) 1.4633(3) 0.08676(17)
C6 C 0.3178(4) 1.3542(3) 0.06386(17)
H5 H 0.3616 1.3427 0.0305
C7 C 0.2598(4) 1.2711(3) 0.08591(18)
H6 H 0.2167 1.2794 0.1196
C8 C 0.2615(4) 1.1649(3) 0.05842(18)
C9 C -0.0713(5) 0.4584(3) 0.07290(19)
H7 H 0.0099 0.4526 0.0549
C10 C -0.2510(6) 0.3784(4) 0.1114(2)
H8 H -0.2988 0.3168 0.1195
C11 C -0.3008(5) 0.4744(4) 0.1285(2)
H9 H -0.3790 0.4773 0.1486
C12 C -0.2330(5) 0.5662(3) 0.1155(2)
H10 H -0.2663 0.6319 0.1260
C13 C -0.1155(4) 0.5602(3) 0.08660(18)
C14 C -0.0364(4) 0.6538(3) 0.07125(17)
H11 H 0.0529 0.6428 0.0604
C15 C -0.0828(4) 0.7524(3) 0.07178(17)
H12 H -0.1723 0.7634 0.0823
C16 C -0.0021(4) 0.8473(3) 0.05670(16)
C17 C 0.0389(5) 1.1801(4) -0.2266(2)
H13 H -0.0057 1.1288 -0.2064
C18 C 0.0240(6) 1.3154(4) -0.2926(2)
H14 H -0.0306 1.3601 -0.3187
C19 C 0.1678(6) 1.3268(4) -0.2862(2)
H15 H 0.2097 1.3779 -0.3074
C20 C 0.2490(5) 1.2608(3) -0.2475(2)
H16 H 0.3469 1.2672 -0.2423
C21 C 0.1850(5) 1.1849(3) -0.21626(17)
C22 C 0.2614(5) 1.1164(3) -0.17092(19)
C23 C 0.3981(4) 1.1125(3) -0.15427(17)
H17 H 0.4571 1.1492 -0.1764
C24 C 0.4634(4) 1.0524(3) -0.10197(16)
H18 H 0.112(5) 0.794(4) -0.0729(19)
H19 H 0.029(5) 0.868(3) -0.0780(19)
H20 H 0.468(6) 0.817(4) -0.018(2)
H21 H 0.384(5) 0.760(4) 0.008(2)
H26 H 0.211(4) 1.075(3) -0.1512(17)
Gd1B Gd -0.24845(3) 1.035849(12) 0.000164(11)
Gd1B_2 Gd 0.75155(3) 1.035849(12) 0.000164(11)
O4B O 0.0683(3) 1.06578(18) -0.05028(12)
O6B O 0.4047(3) 0.9408(2) 0.08939(12)
O9 O -0.3319(6) 1.1986(4) -0.2627(2)
H22 H -0.380(7) 1.236(5) -0.272(3)
H23 H -0.234(8) 1.219(5) -0.265(3)
O10 O 0.7501(6) 1.0158(4) -0.1950(2)
H24 H 0.748(8) 1.033(6) -0.163(3)
H25 H 0.708(8) 1.065(6) -0.216(3)
O11 O -0.0163(5) 0.8876(4) -0.2025(2)
H27 H -0.098(9) 0.933(6) -0.200(3)
H28 H 0.027(7) 0.872(5) -0.170(3)
loop_
_geom_bond_atom_site_label_1
_geom_bond_atom_site_label_2
_geom_bond_site_symmetry_1
_geom_bond_site_symmetry_2
Gd1 O1 1_555 1_555
O1 C8 1_555 1_555
O2 Gd1 1_555 1_555
O3 Gd1 1_555 1_555
O4 C16 1_555 1_555
O5 Gd1 1_555 1_555
O6 C24 1_555 1_555
O7 Gd1 1_555 1_555
O8 Gd1 1_555 1_555
O9 H22 1_555 1_555
O10 H24 1_555 1_555
O11 H27 1_555 1_555
N1 C1 1_555 1_555
N2 C9 1_555 1_555
N3 C17 1_555 1_555
C1 H1 1_555 1_555
C2 N1 1_555 1_555
H2 C2 1_555 1_555
C3 C2 1_555 1_555
H3 C3 1_555 1_555
C4 C3 1_555 1_555
H4 C4 1_555 1_555
C5 C1 1_555 1_555
C6 C5 1_555 1_555
H5 C6 1_555 1_555
C7 C6 1_555 1_555
H6 C7 1_555 1_555
C8 O2 1_555 1_555
C9 H7 1_555 1_555
C10 N2 1_555 1_555
H8 C10 1_555 1_555
C11 C10 1_555 1_555
H9 C11 1_555 1_555
C12 C11 1_555 1_555
H10 C12 1_555 1_555
C13 C9 1_555 1_555
C14 C13 1_555 1_555
H11 C14 1_555 1_555
C15 C14 1_555 1_555
H12 C15 1_555 1_555
C16 O3 1_555 1_555
C17 H13 1_555 1_555
C18 N3 1_555 1_555
H14 C18 1_555 1_555
C19 C18 1_555 1_555
H15 C19 1_555 1_555
C20 C19 1_555 1_555
H16 C20 1_555 1_555
C21 C17 1_555 1_555
C22 C21 1_555 1_555
C23 C22 1_555 1_555
H17 C23 1_555 1_555
C24 O5 1_555 1_555
H18 O7 1_555 1_555
H19 O7 1_555 1_555
H20 O8 1_555 1_555
H21 O8 1_555 1_555
H23 O9 1_555 1_555
H25 O10 1_555 1_555
H26 C22 1_555 1_555
H28 O11 1_555 1_555
Gd1B O4 1_555 1_555
Gd1B_2 O6 1_555 1_555
O4B Gd1 1_555 1_555
O6B Gd1 1_555 1_555
C4 C5 1_555 1_555
C7 C8 1_555 1_555
C12 C13 1_555 1_555
C15 C16 1_555 1_555
C20 C21 1_555 1_555
C23 C24 1_555 1_555

#END
