
#######################################################################
#
#                 Cambridge Crystallographic Data Centre
#                                CCDC 
#
#######################################################################
#
# If this CIF has been generated from an entry in the Cambridge 
# Structural Database, then it will include bibliographic, chemical, 
# crystal, experimental, refinement or atomic coordinate data resulting 
# from the CCDC's data processing and validation procedures.
#
#######################################################################

data_ZAZYAC
_symmetry_cell_setting           monoclinic
_symmetry_space_group_name_H-M   'P 21/n'
_symmetry_Int_Tables_number      14
_space_group_name_Hall           '-P 2yn'
loop_
_symmetry_equiv_pos_site_id
_symmetry_equiv_pos_as_xyz
1 x,y,z
2 1/2-x,1/2+y,1/2-z
3 -x,-y,-z
4 1/2+x,1/2-y,1/2+z
_cell_length_a                   9.53830(10)
_cell_length_b                   12.5674(2)
_cell_length_c                   22.9514(4)
_cell_angle_alpha                90
_cell_angle_beta                 97.6270(10)
_cell_angle_gamma                90
_cell_volume                     2726.88
loop_
_atom_site_label
_atom_site_type_symbol
_atom_site_fract_x
_atom_site_fract_y
_atom_site_fract_z
Tb1 Tb 0.25097(2) 0.464073(11) 0.000302(9)
O1 O 0.3756(2) 0.34001(18) -0.04963(11)
O2 O 0.5694(2) 0.43523(18) -0.05049(11)
O3 O 0.3229(2) 0.59351(18) -0.07275(11)
O4 O 0.1591(2) 0.64461(17) -0.02012(11)
O5 O 0.1140(3) 0.49906(19) 0.07253(11)
O6 O -0.0953(2) 0.55965(18) 0.08875(11)
O7 O 0.1218(3) 0.3045(2) 0.01311(13)
O8 O 0.3957(3) 0.3575(2) 0.07663(13)
N1 N 0.6388(4) -0.1309(3) -0.08374(16)
N2 N 0.1341(3) 1.1478(3) -0.06930(16)
N3 N 0.5422(4) 0.7438(3) 0.26308(17)
C1 C 0.5717(4) -0.0416(3) -0.07284(19)
C2 C 0.7516(5) -0.1207(4) -0.1115(2)
C3 C 0.8010(5) -0.0249(4) -0.1284(2)
C4 C 0.7328(5) 0.0663(3) -0.1154(2)
C5 C 0.6136(4) 0.0603(3) -0.08632(16)
C6 C 0.5358(4) 0.1545(3) -0.07110(16)
C7 C 0.5819(4) 0.2527(3) -0.07176(17)
C8 C 0.5028(3) 0.3482(3) -0.05631(14)
C9 C 0.1411(4) 1.0456(3) -0.05302(19)
C10 C 0.1697(5) 1.1697(3) -0.1221(2)
C11 C 0.2107(5) 1.0939(3) -0.1593(2)
C12 C 0.2161(5) 0.9889(3) -0.14157(19)
C13 C 0.1798(4) 0.9628(3) -0.08670(16)
C14 C 0.1822(4) 0.8541(3) -0.06462(18)
C15 C 0.2398(4) 0.7701(3) -0.08580(18)
C16 C 0.2388(4) 0.6641(3) -0.05858(16)
C17 C 0.4608(5) 0.6802(4) 0.2264(2)
C18 C 0.4757(6) 0.8158(4) 0.2925(2)
C19 C 0.3327(6) 0.8263(4) 0.2860(2)
C20 C 0.2502(5) 0.7608(3) 0.2476(2)
C21 C 0.3149(4) 0.6846(3) 0.21614(16)
C22 C 0.2387(4) 0.6158(3) 0.17101(16)
C23 C 0.1014(4) 0.6123(3) 0.15412(16)
C24 C 0.0363(4) 0.5519(2) 0.10158(15)
H1 H 0.501(4) -0.048(3) -0.0556(15)
H2 H 0.797(4) -0.179(3) -0.1183(15)
H3 H 0.876(5) -0.015(3) -0.1461(19)
H4 H 0.766(3) 0.130(3) -0.1242(13)
H5 H 0.450(4) 0.142(3) -0.0598(15)
H6 H 0.664(4) 0.265(3) -0.0785(15)
H7 H 0.120(4) 1.029(3) -0.0179(16)
H8 H 0.171(4) 1.242(3) -0.1314(16)
H9 H 0.221(4) 1.110(3) -0.1951(15)
H10 H 0.244(4) 0.941(3) -0.1668(16)
H11 H 0.144(3) 0.845(2) -0.0338(13)
H12 H 0.284(4) 0.776(3) -0.1166(15)
H13 H 0.504(3) 0.631(3) 0.2074(13)
H14 H 0.537(4) 0.855(3) 0.3189(18)
H15 H 0.290(4) 0.873(3) 0.3018(16)
H16 H 0.159(4) 0.761(3) 0.2436(16)
H17 H 0.290(3) 0.581(2) 0.1498(13)
H18 H 0.042(4) 0.654(3) 0.1717(15)
H19 H 0.114(6) 0.248(5) -0.017(2)
H20 H 0.059(3) 0.314(3) 0.0175(15)
H21 H 0.480(4) 0.372(3) 0.0768(16)
H22 H 0.388(4) 0.299(3) 0.0756(18)
Tb1B Tb 0.74903(2) 0.535927(11) -0.000302(9)
Tb1B_2 Tb -0.25097(2) 0.535927(11) -0.000302(9)
O2B O 0.4306(2) 0.56477(18) 0.05049(11)
O6B O 0.0953(2) 0.44035(18) -0.08875(11)
O9 O -0.5159(5) 0.6131(3) -0.20242(18)
H23 H -0.595(6) 0.579(5) -0.200(3)
H24 H -0.473(5) 0.609(4) -0.172(2)
O10 O -0.8319(5) 0.3028(3) -0.26208(19)
H25 H -0.737(6) 0.276(4) -0.262(2)
H26 H -0.873(5) 0.261(4) -0.272(2)
O11 O -0.7496(5) 0.4843(4) -0.1947(2)
H27 H -0.790(7) 0.439(5) -0.215(3)
H28 H -0.767(5) 0.479(4) -0.165(2)
loop_
_geom_bond_atom_site_label_1
_geom_bond_atom_site_label_2
_geom_bond_site_symmetry_1
_geom_bond_site_symmetry_2
Tb1 O1 1_555 1_555
O1 C8 1_555 1_555
O2 C8 1_555 1_555
O3 Tb1 1_555 1_555
O4 Tb1 1_555 1_555
O5 Tb1 1_555 1_555
O6 C24 1_555 1_555
O7 Tb1 1_555 1_555
O8 Tb1 1_555 1_555
O9 H23 1_555 1_555
O10 H25 1_555 1_555
O11 H27 1_555 1_555
N1 C1 1_555 1_555
N2 C9 1_555 1_555
N3 C17 1_555 1_555
C1 C5 1_555 1_555
C2 N1 1_555 1_555
C3 C2 1_555 1_555
C4 C3 1_555 1_555
C5 C4 1_555 1_555
C6 C5 1_555 1_555
C7 C6 1_555 1_555
C8 C7 1_555 1_555
C9 C13 1_555 1_555
C10 N2 1_555 1_555
C11 C10 1_555 1_555
C12 C11 1_555 1_555
C13 C12 1_555 1_555
C14 C13 1_555 1_555
C15 C14 1_555 1_555
C16 O3 1_555 1_555
C17 C21 1_555 1_555
C18 N3 1_555 1_555
C19 C18 1_555 1_555
C20 C19 1_555 1_555
C21 C20 1_555 1_555
C22 C21 1_555 1_555
C23 C22 1_555 1_555
C24 O5 1_555 1_555
H1 C1 1_555 1_555
H2 C2 1_555 1_555
H3 C3 1_555 1_555
H4 C4 1_555 1_555
H5 C6 1_555 1_555
H6 C7 1_555 1_555
H7 C9 1_555 1_555
H8 C10 1_555 1_555
H9 C11 1_555 1_555
H10 C12 1_555 1_555
H11 C14 1_555 1_555
H12 C15 1_555 1_555
H13 C17 1_555 1_555
H14 C18 1_555 1_555
H15 C19 1_555 1_555
H16 C20 1_555 1_555
H17 C22 1_555 1_555
H18 C23 1_555 1_555
H19 O7 1_555 1_555
H20 O7 1_555 1_555
H21 O8 1_555 1_555
H22 O8 1_555 1_555
H24 O9 1_555 1_555
H26 O10 1_555 1_555
H28 O11 1_555 1_555
Tb1B O2 1_555 1_555
Tb1B_2 O6 1_555 1_555
O2B Tb1 1_555 1_555
O6B Tb1 1_555 1_555
O4 C16 1_555 1_555
C15 C16 1_555 1_555
C23 C24 1_555 1_555

#END
