
#######################################################################
#
#                 Cambridge Crystallographic Data Centre
#                                CCDC 
#
#######################################################################
#
# If this CIF has been generated from an entry in the Cambridge 
# Structural Database, then it will include bibliographic, chemical, 
# crystal, experimental, refinement or atomic coordinate data resulting 
# from the CCDC's data processing and validation procedures.
#
#######################################################################

data_ZBPPHN
_symmetry_cell_setting           monoclinic
_symmetry_space_group_name_H-M   'P 21/c'
_symmetry_Int_Tables_number      14
_space_group_name_Hall           '-P 2ybc'
loop_
_symmetry_equiv_pos_site_id
_symmetry_equiv_pos_as_xyz
1 x,y,z
2 -x,1/2+y,1/2-z
3 -x,-y,-z
4 x,1/2-y,1/2+z
_cell_length_a                   10.16(2)
_cell_length_b                   14.08(2)
_cell_length_c                   32.59(4)
_cell_angle_alpha                90
_cell_angle_beta                 96.8(2)
_cell_angle_gamma                90
_cell_volume                     4629.3
loop_
_atom_site_label
_atom_site_type_symbol
_atom_site_fract_x
_atom_site_fract_y
_atom_site_fract_z
C1 C 0.26570 -0.19520 0.54120
C2 C 0.25370 -0.38650 0.50010
C3 C 0.19840 -0.52630 0.38040
C4 C 0.18650 -0.35110 0.31210
C5 C 0.18710 0.01960 0.33960
C6 C 0.34780 0.06260 0.33590
C7 C 0.37540 0.12000 0.30350
C8 C 0.42420 0.18690 0.28790
C9 C 0.22830 0.00940 0.43140
C10 C 0.35140 0.04050 0.44730
C11 C 0.35840 0.09590 0.48220
C12 C 0.25560 0.13150 0.49860
C13 C 0.13840 0.09770 0.48610
C14 C 0.11450 0.03360 0.44990
C15 C -0.29460 -0.38240 0.36870
C16 C -0.31300 -0.17750 0.33940
C17 C -0.42790 -0.15470 0.32020
C18 C -0.45050 -0.08980 0.28130
C19 C -0.34980 -0.06000 0.26500
C20 C -0.23940 -0.08790 0.27700
C21 C -0.20260 -0.15920 0.31580
O1 O 0.10970 -0.23930 0.46920
O2 O 0.07300 -0.34460 0.38230
O3 O 0.07990 -0.12240 0.38580
O4 O 0.36190 -0.23840 0.46790
O5 O 0.32560 -0.34710 0.38280
O6 O 0.32800 -0.12170 0.38300
O7 O -0.16280 -0.22980 0.40930
O8 O -0.41590 -0.24000 0.40720
P1 P 0.24460 -0.26170 0.49050
P2 P 0.19470 -0.38300 0.36420
P3 P 0.20490 -0.06610 0.38610
P4 P -0.29430 -0.25350 0.38470
Zn1 Zn 0.02600 -0.23460 0.41230
Zn2 Zn 0.40270 -0.23660 0.41150
Zn2_2 Zn -0.59730 -0.23660 0.41150
O8_2 O 0.58410 -0.24000 0.40720
loop_
_geom_bond_atom_site_label_1
_geom_bond_atom_site_label_2
_geom_bond_site_symmetry_1
_geom_bond_site_symmetry_2
C1 P1 1_555 1_555
C2 P1 1_555 1_555
C3 P2 1_555 1_555
C4 P2 1_555 1_555
C5 C6 1_555 1_555
C6 C7 1_555 1_555
C7 C8 1_555 1_555
C9 C10 1_555 1_555
C10 C11 1_555 1_555
C11 C12 1_555 1_555
C12 C13 1_555 1_555
C13 C14 1_555 1_555
C14 C9 1_555 1_555
C15 P4 1_555 1_555
C16 C17 1_555 1_555
C17 C18 1_555 1_555
C18 C19 1_555 1_555
C19 C20 1_555 1_555
C20 C21 1_555 1_555
C21 C16 1_555 1_555
O1 P1 1_555 1_555
O2 P2 1_555 1_555
O3 P3 1_555 1_555
O4 P1 1_555 1_555
O5 P2 1_555 1_555
O6 P3 1_555 1_555
O7 P4 1_555 1_555
O8 P4 1_555 1_555
P3 C5 1_555 1_555
P4 C16 1_555 1_555
Zn1 O1 1_555 1_555
Zn2 O4 1_555 1_555
Zn2_2 O8 1_555 1_555
O8_2 Zn2 1_555 1_555
C9 P3 1_555 1_555
O2 Zn1 1_555 1_555
O3 Zn1 1_555 1_555
O5 Zn2 1_555 1_555
O6 Zn2 1_555 1_555
O7 Zn1 1_555 1_555

#END
