
#######################################################################
#
#                 Cambridge Crystallographic Data Centre
#                                CCDC 
#
#######################################################################
#
# If this CIF has been generated from an entry in the Cambridge 
# Structural Database, then it will include bibliographic, chemical, 
# crystal, experimental, refinement or atomic coordinate data resulting 
# from the CCDC's data processing and validation procedures.
#
#######################################################################

data_ZBPPHN01
_symmetry_cell_setting           orthorhombic
_symmetry_space_group_name_H-M   'P 21 21 21'
_symmetry_Int_Tables_number      19
_space_group_name_Hall           'P 2ac 2ab'
loop_
_symmetry_equiv_pos_site_id
_symmetry_equiv_pos_as_xyz
1 x,y,z
2 1/2+x,1/2-y,-z
3 -x,1/2+y,1/2-z
4 1/2-x,-y,1/2+z
_cell_length_a                   10.18(2)
_cell_length_b                   14.10(2)
_cell_length_c                   32.43(4)
_cell_angle_alpha                90
_cell_angle_beta                 90
_cell_angle_gamma                90
_cell_volume                     4654.94
loop_
_atom_site_label
_atom_site_type_symbol
_atom_site_fract_x
_atom_site_fract_y
_atom_site_fract_z
C1 C 0.34500 0.55500 0.54100
C2 C 0.34500 0.36400 0.50000
C3 C 0.34500 0.22400 0.38000
C4 C 0.34500 0.39800 0.31200
C5 C 0.34500 0.77000 0.34000
C6 C 0.34500 0.75900 0.43100
C7 C -0.15500 0.36800 0.36900
C8 C -0.15500 0.57300 0.34000
O1 O 0.22200 0.51100 0.46900
O2 O 0.22200 0.40500 0.38200
O3 O 0.22200 0.62800 0.38600
O4 O 0.46800 0.51200 0.46800
O5 O 0.46800 0.40300 0.38300
O6 O 0.46800 0.62800 0.38300
O7 O -0.03200 0.52000 0.40900
O8 O -0.27800 0.51000 0.40700
P1 P 0.34500 0.48800 0.49100
P2 P 0.34500 0.36700 0.36400
P3 P 0.34500 0.68400 0.38600
P4 P -0.15500 0.49700 0.38500
Zn1 Zn 0.15800 0.51500 0.41200
Zn2 Zn 0.53200 0.51300 0.41200
Zn2_2 Zn -0.46800 0.51300 0.41200
O8_2 O 0.72200 0.51000 0.40700
loop_
_geom_bond_atom_site_label_1
_geom_bond_atom_site_label_2
_geom_bond_site_symmetry_1
_geom_bond_site_symmetry_2
C1 P1 1_555 1_555
C2 P1 1_555 1_555
C3 P2 1_555 1_555
C4 P2 1_555 1_555
C5 P3 1_555 1_555
C6 P3 1_555 1_555
C7 P4 1_555 1_555
C8 P4 1_555 1_555
O1 P1 1_555 1_555
O2 P2 1_555 1_555
O3 P3 1_555 1_555
O4 P1 1_555 1_555
O5 P2 1_555 1_555
O6 P3 1_555 1_555
O7 P4 1_555 1_555
O8 P4 1_555 1_555
Zn1 O1 1_555 1_555
Zn2 O4 1_555 1_555
Zn2_2 O8 1_555 1_555
O8_2 Zn2 1_555 1_555
O2 Zn1 1_555 1_555
O3 Zn1 1_555 1_555
O5 Zn2 1_555 1_555
O6 Zn2 1_555 1_555
O7 Zn1 1_555 1_555

#END
