
#######################################################################
#
#                 Cambridge Crystallographic Data Centre
#                                CCDC 
#
#######################################################################
#
# If this CIF has been generated from an entry in the Cambridge 
# Structural Database, then it will include bibliographic, chemical, 
# crystal, experimental, refinement or atomic coordinate data resulting 
# from the CCDC's data processing and validation procedures.
#
#######################################################################

data_ZEBBUF
_symmetry_cell_setting           monoclinic
_symmetry_space_group_name_H-M   'P 21/n'
_symmetry_Int_Tables_number      14
_space_group_name_Hall           '-P 2yn'
loop_
_symmetry_equiv_pos_site_id
_symmetry_equiv_pos_as_xyz
1 x,y,z
2 1/2-x,1/2+y,1/2-z
3 -x,-y,-z
4 1/2+x,1/2-y,1/2+z
_cell_length_a                   10.5871(9)
_cell_length_b                   10.8513(10)
_cell_length_c                   19.7147(18)
_cell_angle_alpha                90
_cell_angle_beta                 90.199(2)
_cell_angle_gamma                90
_cell_volume                     2264.89
loop_
_atom_site_label
_atom_site_type_symbol
_atom_site_fract_x
_atom_site_fract_y
_atom_site_fract_z
Mn1 Mn 0.85524(5) 0.64808(5) 0.17438(3)
O1 O 0.7312(2) 0.6895(2) 0.25765(12)
O2 O 0.6019(2) 0.8333(2) 0.21561(12)
C1 C 0.6386(3) 0.7613(3) 0.26237(19)
C2 C 0.5613(3) 0.7545(3) 0.32657(18)
C3 C 0.4308(3) 0.7645(3) 0.32136(19)
H1 H 0.3941 0.7867 0.2790
C4 C 0.3530(4) 0.7427(4) 0.3763(2)
H2 H 0.2638 0.7483 0.3714
C5 C 0.4056(4) 0.7130(4) 0.4384(2)
H3 H 0.3530 0.6961 0.4762
C6 C 0.5365(4) 0.7078(3) 0.4451(2)
H4 H 0.5724 0.6898 0.4882
C7 C 0.6160(3) 0.7285(3) 0.38990(18)
C8 C 0.7553(3) 0.7145(3) 0.40153(17)
C9 C 0.7978(4) 0.5948(4) 0.41532(18)
H5 H 0.7390 0.5287 0.4139
C10 C 0.9214(4) 0.5702(4) 0.43077(19)
H6 H 0.9477 0.4879 0.4394
C11 C 1.0079(4) 0.6661(4) 0.43378(19)
H7 H 1.0941 0.6500 0.4442
C12 C 0.9678(4) 0.7850(4) 0.42148(18)
H8 H 1.0271 0.8505 0.4245
C13 C 0.8431(3) 0.8117(3) 0.40485(17)
C14 C 0.8102(3) 0.9467(3) 0.39381(17)
O3 O 0.7128(2) 0.9724(2) 0.35939(12)
O4 O 0.8836(2) 1.0250(2) 0.41946(13)
N1 N 0.9752(3) 0.8185(3) 0.19733(15)
N2 N 1.0363(3) 0.6267(3) 0.11500(14)
C15 C 0.9487(4) 0.9079(3) 0.24063(19)
H9 H 0.8648 0.9136 0.2573
C16 C 1.0368(4) 0.9944(4) 0.2633(2)
H10 H 1.0140 1.0547 0.2959
C17 C 1.1574(4) 0.9907(3) 0.2375(2)
H11 H 1.2188 1.0488 0.2522
C18 C 1.1890(4) 0.9012(3) 0.18950(19)
C19 C 1.0956(3) 0.8135(3) 0.17258(18)
C20 C 1.3119(3) 0.8917(4) 0.1592(2)
H12 H 1.3738 0.9528 0.1687
C21 C 1.3405(4) 0.7977(4) 0.1178(2)
H13 H 1.4224 0.7940 0.0983
C22 C 1.2511(3) 0.7031(4) 0.10202(18)
C23 C 1.2799(4) 0.6001(4) 0.06201(18)
H14 H 1.3625 0.5896 0.0443
C24 C 1.1877(4) 0.5148(4) 0.04868(19)
H15 H 1.2052 0.4454 0.0208
C25 C 1.0668(4) 0.5311(4) 0.07672(18)
H16 H 1.0040 0.4706 0.0677
C26 C 1.1279(3) 0.7124(3) 0.12824(18)
O5 O 0.9590(2) 0.5632(2) 0.26117(12)
H17 H 1.0021 0.6279 0.2871
H18 H 1.0215 0.5047 0.2437
O6 O 0.7239(2) 0.7429(2) 0.10373(12)
H19 H 0.7343 0.8323 0.1083
H20 H 0.6368 0.7203 0.1150
Mn1A Mn 0.64476(5) 1.14808(5) 0.32562(3)
O3A O 0.7872(2) 0.4724(2) 0.14061(12)
loop_
_geom_bond_atom_site_label_1
_geom_bond_atom_site_label_2
_geom_bond_site_symmetry_1
_geom_bond_site_symmetry_2
Mn1 O1 1_555 1_555
O1 C1 1_555 1_555
O2 C1 1_555 1_555
C1 C2 1_555 1_555
C2 C3 1_555 1_555
C3 H1 1_555 1_555
C4 C3 1_555 1_555
H2 C4 1_555 1_555
C5 C4 1_555 1_555
H3 C5 1_555 1_555
C6 C5 1_555 1_555
H4 C6 1_555 1_555
C7 C2 1_555 1_555
C8 C7 1_555 1_555
C9 C8 1_555 1_555
H5 C9 1_555 1_555
C10 C9 1_555 1_555
H6 C10 1_555 1_555
C11 C10 1_555 1_555
H7 C11 1_555 1_555
C12 C11 1_555 1_555
H8 C12 1_555 1_555
C13 C8 1_555 1_555
C14 C13 1_555 1_555
O3 C14 1_555 1_555
O4 C14 1_555 1_555
N1 Mn1 1_555 1_555
N2 Mn1 1_555 1_555
C15 N1 1_555 1_555
H9 C15 1_555 1_555
C16 C15 1_555 1_555
H10 C16 1_555 1_555
C17 C16 1_555 1_555
H11 C17 1_555 1_555
C18 C17 1_555 1_555
C19 N1 1_555 1_555
C20 C18 1_555 1_555
H12 C20 1_555 1_555
C21 C20 1_555 1_555
H13 C21 1_555 1_555
C22 C21 1_555 1_555
C23 C22 1_555 1_555
H14 C23 1_555 1_555
C24 C23 1_555 1_555
H15 C24 1_555 1_555
C25 N2 1_555 1_555
H16 C25 1_555 1_555
C26 N2 1_555 1_555
O5 Mn1 1_555 1_555
H17 O5 1_555 1_555
H18 O5 1_555 1_555
O6 Mn1 1_555 1_555
H19 O6 1_555 1_555
H20 O6 1_555 1_555
Mn1A O3 1_555 1_555
O3A Mn1 1_555 1_555
C6 C7 1_555 1_555
C12 C13 1_555 1_555
C18 C19 1_555 1_555
C19 C26 1_555 1_555
C22 C26 1_555 1_555
C24 C25 1_555 1_555

#END
