
#######################################################################
#
#                 Cambridge Crystallographic Data Centre
#                                CCDC 
#
#######################################################################
#
# If this CIF has been generated from an entry in the Cambridge 
# Structural Database, then it will include bibliographic, chemical, 
# crystal, experimental, refinement or atomic coordinate data resulting 
# from the CCDC's data processing and validation procedures.
#
#######################################################################

data_ZEBDAL
_symmetry_cell_setting           triclinic
_symmetry_space_group_name_H-M   'P -1'
_symmetry_Int_Tables_number      2
_space_group_name_Hall           '-P 1'
loop_
_symmetry_equiv_pos_site_id
_symmetry_equiv_pos_as_xyz
1 x,y,z
2 -x,-y,-z
_cell_length_a                   10.101(2)
_cell_length_b                   12.793(3)
_cell_length_c                   8.301(1)
_cell_angle_alpha                95.94(2)
_cell_angle_beta                 93.37(2)
_cell_angle_gamma                79.35(2)
_cell_volume                     1047.67
loop_
_atom_site_label
_atom_site_type_symbol
_atom_site_fract_x
_atom_site_fract_y
_atom_site_fract_z
Cu1 Cu 0.10199(6) 0.24147(4) 0.07983(7)
N1 N 0.0417(3) 0.3905(3) 0.0270(4)
N2 N 0.0405(3) 0.1007(2) 0.0331(4)
N3 N 0.2763(4) 0.2043(3) 0.1992(5)
C1 C -0.0869(4) 0.4421(3) 0.0509(5)
C2 C 0.1291(4) 0.4479(3) -0.0242(5)
C3 C 0.2644(4) 0.3986(3) -0.0548(6)
C4 C 0.3518(4) 0.4548(4) -0.1065(6)
C5 C 0.3104(5) 0.5642(4) -0.1277(6)
C6 C -0.1824(5) 0.3852(3) 0.1014(6)
C7 C 0.0704(4) 0.0389(3) -0.1058(5)
C8 C -0.0284(4) 0.0617(3) 0.1409(5)
C9 C -0.0598(5) 0.1206(3) 0.2924(6)
C10 C -0.1303(5) 0.0833(4) 0.3995(6)
C11 C -0.1759(5) -0.0156(4) 0.3630(6)
C12 C 0.1470(4) 0.0742(3) -0.2222(6)
C13 C 0.3836(6) 0.1748(4) 0.2407(6)
C14 C 0.5210(6) 0.1384(5) 0.2959(7)
H2 H 0.2930 0.3238 -0.0391
H3 H 0.4436 0.4199 -0.1300
H4 H 0.3751 0.6039 -0.1635
H5 H -0.1560 0.3102 0.1172
H6 H -0.0289 0.1878 0.3194
H7 H -0.1495 0.1244 0.5035
H8 H -0.2290 -0.0415 0.4399
H9 H 0.1794 0.1409 -0.1971
H10 H 0.5278 0.1345 0.4103
H11 H 0.5567 0.0690 0.2441
H12 H 0.5787 0.1865 0.2707
C2A C -0.1291(4) 0.5521(3) 0.0242(5)
C1A C 0.0869(4) 0.5579(3) -0.0509(5)
C6A C 0.1824(5) 0.6148(3) -0.1014(6)
C5A C -0.3104(5) 0.4358(4) 0.1277(6)
C8A C 0.0284(4) -0.0617(3) -0.1409(5)
C7A C -0.0704(4) -0.0389(3) 0.1058(5)
C12A C -0.1470(4) -0.0742(3) 0.2222(6)
C11A C 0.1759(5) 0.0156(4) -0.3630(6)
N1A N -0.0417(3) 0.6095(3) -0.0270(4)
C3A C -0.2644(4) 0.6014(3) 0.0548(6)
H5A H 0.1560 0.6898 -0.1172
C4A C -0.3518(4) 0.5452(4) 0.1065(6)
H4A H -0.3751 0.3961 0.1635
N2A N -0.0405(3) -0.1007(2) -0.0331(4)
C9A C 0.0598(5) -0.1206(3) -0.2924(6)
H9A H -0.1794 -0.1409 0.1971
C10A C 0.1303(5) -0.0833(4) -0.3995(6)
H8A H 0.2290 0.0415 -0.4399
Cu1A Cu -0.10199(6) 0.75853(4) -0.07983(7)
H2A H -0.2930 0.6762 0.0391
H3A H -0.4436 0.5801 0.1300
Cu1A_2 Cu -0.10199(6) -0.24147(4) -0.07983(7)
H6A H 0.0289 -0.1878 -0.3194
H7A H 0.1495 -0.1244 -0.5035
N2A_2 N -0.0405(3) 0.8993(2) -0.0331(4)
N3A N -0.2763(4) 0.7957(3) -0.1992(5)
C13A C -0.3836(6) 0.8252(4) -0.2407(6)
C14A C -0.5210(6) 0.8616(5) -0.2959(7)
H10A H -0.5278 0.8655 -0.4103
H11A H -0.5567 0.9310 -0.2441
H12A H -0.5787 0.8135 -0.2707
P1 P 0.6055(2) 0.1476(1) 0.8129(2)
F1 F 0.6315(4) 0.0616(3) 0.6641(4)
F2 F 0.5786(5) 0.2355(3) 0.9603(5)
F3 F 0.5735(4) 0.2391(3) 0.6950(5)
F4 F 0.6385(5) 0.0575(3) 0.9290(4)
F5 F 0.4534(4) 0.1390(3) 0.8063(6)
F6 F 0.7579(4) 0.1609(4) 0.8184(6)
C15 C 0.2231(7) 0.5956(5) 0.3697(7)
C16 C 0.3268(6) 0.5119(6) 0.3962(7)
C17 C 0.3036(6) 0.4232(5) 0.4648(7)
C18 C 0.1733(5) 0.4165(4) 0.5058(6)
C19 C 0.0674(5) 0.5021(4) 0.4793(5)
C20 C 0.0925(6) 0.5924(4) 0.4099(6)
C21 C -0.0176(7) 0.6779(4) 0.3871(7)
C22 C 0.1421(6) 0.3248(4) 0.5730(7)
H1 H 0.2271 0.2598 0.5947
H13 H 0.2435 0.6570 0.3216
H14 H 0.4205 0.5135 0.3688
H15 H 0.3800 0.3634 0.4884
H16 H -0.0021 0.7408 0.3390
C19A C -0.0674(5) 0.4979(4) 0.5207(5)
C22A C -0.1421(6) 0.6752(4) 0.4270(7)
C21A C 0.0176(7) 0.3221(4) 0.6129(7)
C18A C -0.1733(5) 0.5835(4) 0.4942(6)
C20A C -0.0925(6) 0.4076(4) 0.5901(6)
H1A H -0.2271 0.7402 0.4053
H16A H 0.0021 0.2592 0.6610
C17A C -0.3036(6) 0.5768(5) 0.5352(7)
C15A C -0.2231(7) 0.4044(5) 0.6303(7)
C16A C -0.3268(6) 0.4881(6) 0.6038(7)
H15A H -0.3800 0.6366 0.5116
H13A H -0.2435 0.3430 0.6784
H14A H -0.4205 0.4865 0.6312
loop_
_geom_bond_atom_site_label_1
_geom_bond_atom_site_label_2
_geom_bond_site_symmetry_1
_geom_bond_site_symmetry_2
Cu1 N1 1_555 1_555
P1 F1 1_555 1_555
F2 P1 1_555 1_555
F3 P1 1_555 1_555
F4 P1 1_555 1_555
F5 P1 1_555 1_555
F6 P1 1_555 1_555
N1 C1 1_555 1_555
N2 Cu1 1_555 1_555
N3 Cu1 1_555 1_555
C1 C6 1_555 1_555
C2 N1 1_555 1_555
C3 C2 1_555 1_555
C4 C3 1_555 1_555
C5 C4 1_555 1_555
C6 H5 1_555 1_555
C7 N2 1_555 1_555
C8 N2 1_555 1_555
C9 C8 1_555 1_555
C10 C9 1_555 1_555
C11 C10 1_555 1_555
C12 C7 1_555 1_555
C13 N3 1_555 1_555
C14 C13 1_555 1_555
C15 C16 1_555 1_555
C16 C17 1_555 1_555
C17 C18 1_555 1_555
C18 C19 1_555 1_555
C19 C20 1_555 1_555
C20 C15 1_555 1_555
C21 C20 1_555 1_555
C22 C18 1_555 1_555
H1 C22 1_555 1_555
H2 C3 1_555 1_555
H3 C4 1_555 1_555
H4 C5 1_555 1_555
H6 C9 1_555 1_555
H7 C10 1_555 1_555
H8 C11 1_555 1_555
H9 C12 1_555 1_555
H10 C14 1_555 1_555
H11 C14 1_555 1_555
H12 C14 1_555 1_555
H13 C15 1_555 1_555
H14 C16 1_555 1_555
H15 C17 1_555 1_555
H16 C21 1_555 1_555
C2A C1 1_555 1_555
C1A C2 1_555 1_555
C6A C5 1_555 1_555
C5A C6 1_555 1_555
C8A C7 1_555 1_555
C7A C8 1_555 1_555
C12A C11 1_555 1_555
C11A C12 1_555 1_555
N1A C2A 1_555 1_555
C3A C2A 1_555 1_555
H5A C6A 1_555 1_555
C4A C5A 1_555 1_555
H4A C5A 1_555 1_555
N2A C8A 1_555 1_555
C9A C8A 1_555 1_555
H9A C12A 1_555 1_555
C10A C11A 1_555 1_555
H8A C11A 1_555 1_555
Cu1A N1A 1_555 1_555
H2A C3A 1_555 1_555
H3A C4A 1_555 1_555
Cu1A_2 N2A 1_555 1_555
H6A C9A 1_555 1_555
H7A C10A 1_555 1_555
N2A_2 Cu1A 1_555 1_555
N3A Cu1A 1_555 1_555
C13A N3A 1_555 1_555
C14A C13A 1_555 1_555
H10A C14A 1_555 1_555
H11A C14A 1_555 1_555
H12A C14A 1_555 1_555
C19A C19 1_555 1_555
C22A C21 1_555 1_555
C21A C22 1_555 1_555
C18A C19A 1_555 1_555
C20A C19A 1_555 1_555
H1A C22A 1_555 1_555
H16A C21A 1_555 1_555
C17A C18A 1_555 1_555
C15A C20A 1_555 1_555
C16A C17A 1_555 1_555
H15A C17A 1_555 1_555
H13A C15A 1_555 1_555
H14A C16A 1_555 1_555
C1A N1A 1_555 1_555
C1A C6A 1_555 1_555
C7A N2A 1_555 1_555
C7A C12A 1_555 1_555
C3A C4A 1_555 1_555
C9A C10A 1_555 1_555
C22A C18A 1_555 1_555
C21A C20A 1_555 1_555
C15A C16A 1_555 1_555

#END
