
#######################################################################
#
#                 Cambridge Crystallographic Data Centre
#                                CCDC 
#
#######################################################################
#
# If this CIF has been generated from an entry in the Cambridge 
# Structural Database, then it will include bibliographic, chemical, 
# crystal, experimental, refinement or atomic coordinate data resulting 
# from the CCDC's data processing and validation procedures.
#
#######################################################################

data_ZEBKUM
_symmetry_cell_setting           triclinic
_symmetry_space_group_name_H-M   'P -1'
_symmetry_Int_Tables_number      2
_space_group_name_Hall           '-P 1'
loop_
_symmetry_equiv_pos_site_id
_symmetry_equiv_pos_as_xyz
1 x,y,z
2 -x,-y,-z
_cell_length_a                   3.561(1)
_cell_length_b                   9.984(3)
_cell_length_c                   13.659(6)
_cell_angle_alpha                100.19(3)
_cell_angle_beta                 94.58(3)
_cell_angle_gamma                90.33(2)
_cell_volume                     476.335
loop_
_atom_site_label
_atom_site_type_symbol
_atom_site_fract_x
_atom_site_fract_y
_atom_site_fract_z
Cu1 Cu 0.0981(2) 0.1604(1) 0.2812(1)
Na1 Na -0.2904(8) 0.2300(3) 0.5084(2)
N1 N 0.1432(17) 0.3133(5) 0.3932(4)
N2 N 0.2231(17) 0.4295(6) 0.3893(4)
N3 N 0.2982(22) 0.5407(6) 0.3909(6)
N4 N 0.4853(17) 0.2219(6) 0.2018(5)
N5 N 0.4702(16) 0.3291(6) 0.1729(4)
N6 N 0.4636(25) 0.4275(7) 0.1398(7)
O1 O -0.1766(14) 0.0627(4) 0.3703(3)
O2 O -0.2676(14) -0.1467(5) 0.4029(4)
C1 C -0.1773(17) -0.0670(6) 0.3499(4)
N7 N 0.0690(14) -0.0284(5) 0.1993(4)
C2 C -0.0580(16) -0.1230(6) 0.2473(4)
C3 C -0.0929(18) -0.2594(6) 0.2044(5)
C4 C -0.0065(21) -0.2980(7) 0.1065(6)
C5 C 0.1177(20) -0.2006(7) 0.0567(5)
C6 C 0.1617(18) -0.0670(7) 0.1049(5)
H1 H -0.1859(18) -0.3339(6) 0.2462(5)
H2 H -0.0341(21) -0.4033(7) 0.0701(6)
H3 H 0.1784(20) -0.2282(7) -0.0204(5)
H4 H 0.2757(18) 0.0077(7) 0.0664(5)
N4_2 N -0.5147(17) 0.2219(6) 0.2018(5)
Na1_2 Na 0.7096(8) 0.2300(3) 0.5084(2)
N1_2 N -0.8568(17) 0.3133(5) 0.3932(4)
O2A O -0.7324(14) 0.1467(5) 0.5971(4)
N3A N -0.2982(22) 0.4593(6) 0.6091(6)
Cu1_2 Cu 1.0981(2) 0.1604(1) 0.2812(1)
O2A_2 O 0.2676(14) 0.1467(5) 0.5971(4)
Na1A Na 0.2904(8) 0.7700(3) 0.4916(2)
Na1A_2 Na 0.2904(8) -0.2300(3) 0.4916(2)
Na1A_3 Na -0.7096(8) -0.2300(3) 0.4916(2)
loop_
_geom_bond_atom_site_label_1
_geom_bond_atom_site_label_2
_geom_bond_site_symmetry_1
_geom_bond_site_symmetry_2
Cu1 N1 1_555 1_555
Na1 N1 1_555 1_555
N1 N2 1_555 1_555
N2 N3 1_555 1_555
N3 Na1A 1_555 1_555
N4 Cu1 1_555 1_555
N5 N4 1_555 1_555
N6 N5 1_555 1_555
O1 Cu1 1_555 1_555
O2 C1 1_555 1_555
C1 O1 1_555 1_555
N7 Cu1 1_555 1_555
C2 C1 1_555 1_555
C3 C2 1_555 1_555
C4 C3 1_555 1_555
C5 C4 1_555 1_555
C6 N7 1_555 1_555
H1 C3 1_555 1_555
H2 C4 1_555 1_555
H3 C5 1_555 1_555
H4 C6 1_555 1_555
N4_2 Cu1 1_555 1_555
Na1_2 N1 1_555 1_555
N1_2 Na1 1_555 1_555
O2A Na1 1_555 1_555
N3A Na1 1_555 1_555
Cu1_2 N4 1_555 1_555
O2A_2 Na1 1_555 1_555
Na1A_2 O2 1_555 1_555
Na1A_3 O2 1_555 1_555
Na1 O1 1_555 1_555
N7 C2 1_555 1_555
C5 C6 1_555 1_555
Na1_2 O2A_2 1_555 1_555

#END
