
#######################################################################
#
#                 Cambridge Crystallographic Data Centre
#                                CCDC 
#
#######################################################################
#
# If this CIF has been generated from an entry in the Cambridge 
# Structural Database, then it will include bibliographic, chemical, 
# crystal, experimental, refinement or atomic coordinate data resulting 
# from the CCDC's data processing and validation procedures.
#
#######################################################################

data_ZEBLAT
_symmetry_cell_setting           triclinic
_symmetry_space_group_name_H-M   'P -1'
_symmetry_Int_Tables_number      2
_space_group_name_Hall           '-P 1'
loop_
_symmetry_equiv_pos_site_id
_symmetry_equiv_pos_as_xyz
1 x,y,z
2 -x,-y,-z
_cell_length_a                   3.796(2)
_cell_length_b                   10.271(4)
_cell_length_c                   13.185(5)
_cell_angle_alpha                100.73(3)
_cell_angle_beta                 98.00(3)
_cell_angle_gamma                94.79(3)
_cell_volume                     496.99
loop_
_atom_site_label
_atom_site_type_symbol
_atom_site_fract_x
_atom_site_fract_y
_atom_site_fract_z
Cu1 Cu 0.1315(1) 0.1194 0.2812
K1 K -0.1188(2) 0.3161(1) 0.5442(1)
N1 N -0.2232(9) 0.0815(3) 0.3684(3)
N2 N -0.2897(8) -0.0239(3) 0.3917(2)
N3 N -0.3655(10) -0.1218(3) 0.4166(3)
N4 N 0.0713(10) -0.0505(3) 0.1853(3)
N5 N 0.0301(9) -0.1597(3) 0.2039(3)
N6 N -0.0046(15) -0.2676(4) 0.2144(4)
O1 O 0.2453(7) 0.3024(2) 0.3682(2)
O2 O 0.5380(7) 0.5007(2) 0.3744(2)
C1 C 0.4141(9) 0.3865(3) 0.3290(3)
N7 N 0.3554(7) 0.2095(3) 0.1797(2)
C2 C 0.4686(9) 0.3388(3) 0.2173(3)
C3 C 0.6180(10) 0.4191(3) 0.1581(3)
C4 C 0.6537(10) 0.3638(4) 0.0575(3)
C5 C 0.5377(10) 0.2315(4) 0.0182(3)
C6 C 0.3910(10) 0.1568(3) 0.0815(3)
H1 H 0.7051(10) 0.5233(3) 0.1901(3)
H2 H 0.7726(10) 0.4241(4) 0.0095(3)
H3 H 0.5612(10) 0.1868(4) -0.0611(3)
H4 H 0.3019(10) 0.0524(3) 0.0509(3)
N1_2 N 0.7768(9) 0.0815(3) 0.3684(3)
K1A K 0.1188(2) 0.6839(1) 0.4558(1)
N3A N 0.3655(10) 0.1218(3) 0.5834(3)
O1_2 O -0.7547(7) 0.3024(2) 0.3682(2)
O2A O 0.4620(7) 0.4993(2) 0.6256(2)
Cu1_2 Cu -0.8685(1) 0.1194 0.2812
N3A_2 N -0.6345(10) 0.1218(3) 0.5834(3)
N6A N 0.0046(15) 0.2676(4) 0.7856(4)
K1_2 K 0.8812(2) 0.3161(1) 0.5442(1)
O2A_2 O -0.5380(7) 0.4993(2) 0.6256(2)
K1A_2 K 0.1188(2) -0.3161(1) 0.4558(1)
K1A_3 K -0.8812(2) -0.3161(1) 0.4558(1)
K1A_4 K 1.1188(2) 0.6839(1) 0.4558(1)
loop_
_geom_bond_atom_site_label_1
_geom_bond_atom_site_label_2
_geom_bond_site_symmetry_1
_geom_bond_site_symmetry_2
Cu1 N1 1_555 1_555
K1 N1 1_555 1_555
N1 N2 1_555 1_555
N2 N3 1_555 1_555
N3 K1A_2 1_555 1_555
N4 Cu1 1_555 1_555
N5 N4 1_555 1_555
N6 N5 1_555 1_555
O1 Cu1 1_555 1_555
O2 C1 1_555 1_555
C1 O1 1_555 1_555
N7 Cu1 1_555 1_555
C2 C1 1_555 1_555
C3 C2 1_555 1_555
C4 C3 1_555 1_555
C5 C4 1_555 1_555
C6 N7 1_555 1_555
H1 C3 1_555 1_555
H2 C4 1_555 1_555
H3 C5 1_555 1_555
H4 C6 1_555 1_555
N1_2 Cu1 1_555 1_555
K1A O2 1_555 1_555
N3A K1 1_555 1_555
O1_2 K1 1_555 1_555
O2A K1 1_555 1_555
Cu1_2 N1 1_555 1_555
N3A_2 K1 1_555 1_555
N6A K1 1_555 1_555
K1_2 O1 1_555 1_555
O2A_2 K1 1_555 1_555
K1A_2 N6 1_555 1_555
K1A_3 N3 1_555 1_555
K1A_4 O2 1_555 1_555
K1 O1 1_555 1_555
N7 C2 1_555 1_555
C5 C6 1_555 1_555
N1_2 K1_2 1_555 1_555
N3A K1_2 1_555 1_555
O1_2 Cu1_2 1_555 1_555
O2A K1_2 1_555 1_555

#END
