
#######################################################################
#
#                 Cambridge Crystallographic Data Centre
#                                CCDC 
#
#######################################################################
#
# If this CIF has been generated from an entry in the Cambridge 
# Structural Database, then it will include bibliographic, chemical, 
# crystal, experimental, refinement or atomic coordinate data resulting 
# from the CCDC's data processing and validation procedures.
#
#######################################################################

data_ZEBMUQ
_symmetry_cell_setting           orthorhombic
_symmetry_space_group_name_H-M   'P c a 21'
_symmetry_Int_Tables_number      29
_space_group_name_Hall           'P 2c -2ac'
loop_
_symmetry_equiv_pos_site_id
_symmetry_equiv_pos_as_xyz
1 x,y,z
2 -x,-y,1/2+z
3 1/2+x,-y,z
4 1/2-x,y,1/2+z
_cell_length_a                   17.459(2)
_cell_length_b                   12.6894(18)
_cell_length_c                   10.8705(11)
_cell_angle_alpha                90
_cell_angle_beta                 90
_cell_angle_gamma                90
_cell_volume                     2408.3
loop_
_atom_site_label
_atom_site_type_symbol
_atom_site_fract_x
_atom_site_fract_y
_atom_site_fract_z
O1 O 0.0346(4) 0.0365(5) 0.4815(5)
O2 O -0.0016(4) 0.0588(6) 0.2899(6)
C1 C 0.0238(5) 0.0912(8) 0.3904(8)
N1 N 0.0730(4) -0.2045(6) 0.4569(6)
C2 C 0.1245(5) -0.2804(7) 0.4241(7)
H1 H 0.1285 -0.3094 0.3458
C3 C 0.1691(5) -0.3076(8) 0.5208(9)
H2 H 0.2083 -0.3572 0.5222
C4 C 0.0867(5) -0.1862(8) 0.5726(8)
H3 H 0.0602 -0.1373 0.6199
N2 N 0.1441(4) -0.2471(6) 0.6154(7)
C5 C 0.1780(6) -0.2464(8) 0.7408(8)
H4 H 0.2231 -0.2909 0.7411
H5 H 0.1413 -0.2764 0.7980
Cd1 Cd -0.01466(2) -0.11270(4) 0.35403(6)
N3 N 0.3861(4) 0.1235(6) 0.4848(6)
O3 O 0.0998(4) 0.1750(5) 0.6987(5)
O4 O -0.0245(4) 0.1906(5) 0.6637(5)
C6 C 0.0604(4) 0.2553(6) 0.5129(7)
C7 C 0.1012(7) 0.4126(8) 0.4041(9)
H6 H 0.1176 0.4823 0.4067
C8 C 0.0896(4) 0.3562(7) 0.5124(7)
C9 C 0.0483(5) 0.2064(7) 0.3978(7)
C10 C 0.0446(5) 0.1989(7) 0.6317(7)
N4 N 0.1119(4) 0.4059(5) 0.6265(6)
N5 N 0.3093(4) 0.0828(6) 0.6379(6)
C11 C 0.3738(5) 0.0603(7) 0.5780(8)
H7 H 0.4066 0.0057 0.6000
C12 C 0.1643(4) 0.4875(6) 0.8530(13)
C13 C 0.0860(5) 0.4608(7) 0.8302(9)
H8 H 0.0504 0.4695 0.8930
C14 C 0.2134(6) 0.4703(9) 0.7493(9)
H9 H 0.2651 0.4870 0.7558
C15 C 0.0617(5) 0.4231(7) 0.7196(7)
H10 H 0.0100 0.4089 0.7078
C16 C 0.1872(5) 0.4312(7) 0.6444(7)
H11 H 0.2216 0.4206 0.5801
C17 C 0.3241(6) 0.1892(8) 0.4839(9)
H12 H 0.3162 0.2430 0.4272
C18 C 0.2761(5) 0.1655(8) 0.5762(10)
H13 H 0.2299 0.1983 0.5946
C19 C 0.0881(6) 0.3635(8) 0.2929(9)
H14 H 0.0983 0.3988 0.2198
C20 C 0.0599(5) 0.2622(7) 0.2898(8)
H15 H 0.0485 0.2309 0.2146
O5 O 0.1880(4) 0.5206(6) 0.9528(6)
C21 C 0.2773(6) 0.0264(8) 0.7422(8)
H16 H 0.3156 0.0200 0.8064
H17 H 0.2341 0.0653 0.7753
C22 C 0.2001(6) -0.1371(9) 0.7850(9)
H18 H 0.2248 -0.1428 0.8647
H19 H 0.1541 -0.0950 0.7951
C23 C 0.2507(5) -0.0848(10) 0.7014(8)
H20 H 0.2956 -0.1286 0.6897
H21 H 0.2253 -0.0786 0.6224
Cd1B Cd 0.48534(2) 0.11270(4) 0.35403(6)
Cd1A Cd 0.01466(2) 0.11270(4) 0.85403(6)
N3B N -0.1139(4) -0.1235(6) 0.4848(6)
O3A O -0.0998(4) -0.1750(5) 0.1987(5)
O4A O 0.0245(4) -0.1906(5) 0.1637(5)
O6 O 0.1237(3) 0.6276(6) 0.1390(6)
H22 H 0.0949 0.6816 0.1462
H23 H 0.1660 0.6073 0.1085
loop_
_geom_bond_atom_site_label_1
_geom_bond_atom_site_label_2
_geom_bond_site_symmetry_1
_geom_bond_site_symmetry_2
O1 C1 1_555 1_555
O2 C1 1_555 1_555
C1 C9 1_555 1_555
N1 C2 1_555 1_555
C2 H1 1_555 1_555
C3 C2 1_555 1_555
H2 C3 1_555 1_555
C4 N1 1_555 1_555
H3 C4 1_555 1_555
N2 C3 1_555 1_555
C5 N2 1_555 1_555
H4 C5 1_555 1_555
H5 C5 1_555 1_555
Cd1 O1 1_555 1_555
N3 C11 1_555 1_555
O3 C10 1_555 1_555
O4 C10 1_555 1_555
C6 C8 1_555 1_555
C7 H6 1_555 1_555
C8 C7 1_555 1_555
C9 C6 1_555 1_555
C10 C6 1_555 1_555
N4 C8 1_555 1_555
N5 C11 1_555 1_555
C11 H7 1_555 1_555
C12 C13 1_555 1_555
C13 H8 1_555 1_555
C14 C12 1_555 1_555
H9 C14 1_555 1_555
C15 N4 1_555 1_555
H10 C15 1_555 1_555
C16 N4 1_555 1_555
H11 C16 1_555 1_555
C17 N3 1_555 1_555
H12 C17 1_555 1_555
C18 N5 1_555 1_555
H13 C18 1_555 1_555
C19 C7 1_555 1_555
H14 C19 1_555 1_555
C20 C9 1_555 1_555
H15 C20 1_555 1_555
O5 C12 1_555 1_555
C21 N5 1_555 1_555
H16 C21 1_555 1_555
H17 C21 1_555 1_555
C22 C5 1_555 1_555
H18 C22 1_555 1_555
H19 C22 1_555 1_555
C23 C21 1_555 1_555
H20 C23 1_555 1_555
H21 C23 1_555 1_555
O6 H22 1_555 1_555
H23 O6 1_555 1_555
Cd1B N3 1_555 1_555
Cd1A O3 1_555 1_555
N3B Cd1 1_555 1_555
O3A Cd1 1_555 1_555
O4A Cd1 1_555 1_555
O2 Cd1 1_555 1_555
N1 Cd1 1_555 1_555
C4 N2 1_555 1_555
O4 Cd1A 1_555 1_555
C13 C15 1_555 1_555
C14 C16 1_555 1_555
C17 C18 1_555 1_555
C19 C20 1_555 1_555
C22 C23 1_555 1_555

#END
