
#######################################################################
#
#                 Cambridge Crystallographic Data Centre
#                                CCDC 
#
#######################################################################
#
# If this CIF has been generated from an entry in the Cambridge 
# Structural Database, then it will include bibliographic, chemical, 
# crystal, experimental, refinement or atomic coordinate data resulting 
# from the CCDC's data processing and validation procedures.
#
#######################################################################

data_ZEBNOL
_symmetry_cell_setting           triclinic
_symmetry_space_group_name_H-M   'P -1'
_symmetry_Int_Tables_number      2
_space_group_name_Hall           '-P 1'
loop_
_symmetry_equiv_pos_site_id
_symmetry_equiv_pos_as_xyz
1 x,y,z
2 -x,-y,-z
_cell_length_a                   10.5614(12)
_cell_length_b                   12.7686(15)
_cell_length_c                   14.1557(16)
_cell_angle_alpha                91.971(1)
_cell_angle_beta                 110.104(1)
_cell_angle_gamma                102.555(1)
_cell_volume                     1737.34
loop_
_atom_site_label
_atom_site_type_symbol
_atom_site_fract_x
_atom_site_fract_y
_atom_site_fract_z
Sm1 Sm 0.95889(4) 0.74777(3) 0.46747(3)
Sm2 Sm 0.59010(4) 0.75080(3) 0.52506(3)
Co1 Co 0.78536(12) 0.77453(10) 0.99689(8)
O1 O 0.8185(5) 0.7168(4) 0.5880(4)
O2 O 0.7255(6) 0.7734(4) 0.4038(4)
O3 O 0.5185(6) 0.8048(5) 0.3498(4)
O4 O 0.5557(6) 0.5835(4) 0.4200(4)
O5 O 0.9686(6) 0.9164(4) 0.3901(4)
O6 O 0.8770(6) 0.7010(5) 0.2884(4)
O7 O 0.9994(6) 1.0950(4) 0.4149(4)
O8 O 1.0267(6) 0.6858(5) 0.6425(4)
N1 N 0.5191(7) 0.8359(6) 0.1629(5)
H1 H 0.4536 0.8561 0.1756
N2 N 1.0256(7) 0.6660(6) 0.8354(5)
H2 H 1.0837 0.6345 0.8236
O9 O 0.4409(6) 0.4091(4) 0.3896(4)
C1 C 0.9210(9) 0.7011(6) 0.6581(6)
C2 C 0.8585(9) 0.7469(7) 0.8168(6)
O10 O 0.6814(6) 0.8149(5) 0.6984(4)
C3 C 0.6241(8) 0.7932(6) 0.3336(6)
C4 C 0.7413(8) 0.8023(6) 0.7884(6)
O11 O 0.7112(6) 0.8368(5) 0.8606(4)
C5 C 0.7028(9) 0.7777(7) 0.1765(6)
O12 O 0.8662(6) 0.7133(5) 0.1303(4)
C6 C 0.6251(8) 0.8021(7) 0.2311(6)
C7 C 0.4985(8) 0.4976(7) 0.4442(6)
C8 C 0.9256(9) 0.7047(7) 0.7639(6)
C9 C 0.8249(8) 0.7292(6) 0.2022(6)
C10 C 1.1069(9) 0.6554(7) 1.0209(6)
C11 C 0.2356(8) 0.9350(6) -0.0906(5)
H3 H 0.1721 0.9709 -0.0815
C12 C 1.1363(10) 0.7138(8) 1.1142(6)
H4 H 1.1017 0.7744 1.1168
N3 N 1.2165(11) 0.6821(10) 1.2027(7)
C13 C 0.5345(9) 0.8322(7) 0.0717(6)
N4 N 0.6449(7) 0.7973(6) 0.0773(5)
N5 N 0.9165(7) 0.7357(6) 0.9186(5)
C14 C 1.0167(9) 0.6862(7) 0.9264(6)
C15 C 0.4287(9) 0.8570(7) -0.0191(6)
C16 C 1.2402(9) 0.5356(7) 1.1053(7)
H5 H 1.2742 0.4746 1.1027
N6 N 0.3226(11) 0.8520(9) -0.1998(7)
C17 C 0.3315(10) 0.9107(8) -0.0116(7)
H6 H 0.3336 0.9310 0.0527
C18 C 0.2317(10) 0.9074(8) -0.1822(8)
H7 H 0.1653 0.9257 -0.2374
C19 C 1.1635(10) 0.5688(8) 1.0204(7)
H8 H 1.1481 0.5314 0.9584
C20 C 0.4235(10) 0.8286(9) -0.1160(7)
H9 H 0.4879 0.7937 -0.1249
C21 C 1.2662(12) 0.5917(9) 1.1926(8)
H10 H 1.3213 0.5694 1.2512
O13 O 1.1233(6) 0.6392(5) 0.4614(4)
O14 O 1.4200(6) 0.8505(5) 0.5361(5)
O15 O 1.2024(6) 0.8512(5) 0.5170(5)
C22 C 1.2492(8) 0.6853(7) 0.4763(6)
C23 C 1.2948(9) 0.8058(7) 0.5137(6)
O16 O 1.3375(6) 0.6432(5) 0.4646(5)
C24 C 0.9895(8) 1.0032(7) 0.4435(5)
O17 O 0.8310(6) 0.5543(4) 0.4374(4)
H11 H 0.7520 0.5626 0.4342
H12 H 0.8391 0.4942 0.4597
O18 O 0.6896(7) 0.9464(5) 0.5425(5)
H13 H 0.7703 0.9398 0.5774
H14 H 0.6992 0.9985 0.5077
O19 O 0.9185(6) 0.9330(5) 1.0568(4)
H15 H 0.9430 0.9916 1.0383
H16 H 0.9866 0.9214 1.1009
O20 O 0.6493(7) 0.6256(5) 0.9298(5)
H17 H 0.6152 0.5848 0.9658
H18 H 0.5862 0.6197 0.8718
Sm1A Sm 1.04111(4) 1.25223(3) 0.53253(3)
Sm1_2 Sm -0.04111(4) 0.74777(3) 0.46747(3)
Sm1_3 Sm 0.95889(4) 0.74777(3) 1.46747(3)
Sm2_2 Sm 1.59010(4) 0.75080(3) 0.52506(3)
Sm2A Sm 0.40990(4) 0.24920(3) 0.47494(3)
Sm2_3 Sm 0.59010(4) 0.75080(3) 1.52506(3)
Sm2A_2 Sm 1.40990(4) 1.24920(3) 0.47494(3)
Co1_2 Co 0.78536(12) 0.77453(10) -0.00311(8)
Co1A Co 1.21464(12) 1.22547(10) 0.00311(8)
O1A O 1.1815(5) 1.2832(4) 0.4120(4)
O1_2 O 1.8185(5) 0.7168(4) 0.5880(4)
O2_2 O 0.7255(6) 0.7734(4) 1.4038(4)
O2A O 1.2745(6) 1.2266(4) 0.5962(4)
O2_3 O 1.7255(6) 0.7734(4) 0.4038(4)
O3_2 O 0.5185(6) 0.8048(5) 1.3498(4)
O3_3 O 1.5185(6) 0.8048(5) 0.3498(4)
O4A O 0.4443(6) 0.4165(4) 0.5800(4)
O4_2 O 1.5557(6) 0.5835(4) 0.4200(4)
O5A O 1.0314(6) 1.0836(4) 0.6099(4)
O6_2 O 0.8770(6) 0.7010(5) 1.2884(4)
O6A O 1.1230(6) 1.2990(5) 0.7116(4)
O7A O 1.0006(6) 0.9050(4) 0.5851(4)
O8A O 0.9733(6) 1.3142(5) 0.3575(4)
N1_2 N 0.5191(7) 0.8359(6) 1.1629(5)
H1_2 H 0.4536 0.8561 1.1756
N2A N 0.9744(7) 1.3340(6) 0.1646(5)
H2A H 0.9163 1.3655 0.1764
O9A O 0.5591(6) 0.5909(4) 0.6104(4)
O9A_2 O 1.5591(6) 0.5909(4) 0.6104(4)
C1A C 1.0790(9) 1.2989(6) 0.3419(6)
C2A C 1.1415(9) 1.2531(7) 0.1832(6)
O10A O 1.3186(6) 1.1851(5) 0.3016(4)
O10_2 O 1.6814(6) 0.8149(5) 0.6984(4)
C3_2 C 0.6241(8) 0.7932(6) 1.3336(6)
C4A C 1.2587(8) 1.1977(6) 0.2116(6)
O11A O 1.2888(6) 1.1632(5) 0.1394(4)
O11_2 O 0.7112(6) 0.8368(5) -0.1394(4)
C5_2 C 0.7028(9) 0.7777(7) 1.1765(6)
O12_2 O 0.8662(6) 0.7133(5) 1.1303(4)
C6_2 C 0.6251(8) 0.8021(7) 1.2311(6)
C7A C 0.5015(8) 0.5024(7) 0.5558(6)
C8A C 1.0744(9) 1.2953(7) 0.2361(6)
C9_2 C 0.8249(8) 0.7292(6) 1.2022(6)
C10A C 0.8931(9) 1.3446(7) -0.0209(6)
C11_2 C 0.2356(8) 0.9350(6) 0.9094(5)
H3_2 H 0.1721 0.9709 0.9185
C12A C 0.8637(10) 1.2862(8) -0.1142(6)
H4A H 0.8983 1.2256 -0.1168
N3A N 0.7835(11) 1.3179(10) -0.2027(7)
C13_2 C 0.5345(9) 0.8322(7) 1.0717(6)
N4_2 N 0.6449(7) 0.7973(6) 1.0773(5)
N5A N 1.0835(7) 1.2643(6) 0.0814(5)
N5_2 N 0.9165(7) 0.7357(6) -0.0814(5)
C14A C 0.9833(9) 1.3138(7) 0.0736(6)
C15_2 C 0.4287(9) 0.8570(7) 0.9809(6)
C16A C 0.7598(9) 1.4644(7) -0.1053(7)
H5A H 0.7258 1.5254 -0.1027
N6_2 N 0.3226(11) 0.8520(9) 0.8002(7)
C17_2 C 0.3315(10) 0.9107(8) 0.9884(7)
H6_2 H 0.3336 0.9310 1.0527
C18_2 C 0.2317(10) 0.9074(8) 0.8178(8)
H7_2 H 0.1653 0.9257 0.7626
C19A C 0.8365(10) 1.4312(8) -0.0204(7)
H8A H 0.8519 1.4686 0.0416
C20_2 C 0.4235(10) 0.8286(9) 0.8840(7)
H9_2 H 0.4879 0.7937 0.8751
C21A C 0.7338(12) 1.4083(9) -0.1926(8)
H10A H 0.6787 1.4306 -0.2512
O13_2 O 0.1233(6) 0.6392(5) 0.4614(4)
O13A O 0.8767(6) 1.3608(5) 0.5386(4)
O14_2 O 0.4200(6) 0.8505(5) 0.5361(5)
O15_2 O 0.2024(6) 0.8512(5) 0.5170(5)
O15A O 0.7976(6) 1.1488(5) 0.4830(5)
C22_2 C 0.2492(8) 0.6853(7) 0.4763(6)
C23_2 C 0.2948(9) 0.8058(7) 0.5137(6)
O16_2 O 0.3375(6) 0.6432(5) 0.4646(5)
C24A C 1.0105(8) 0.9968(7) 0.5565(5)
O17A O 1.1690(6) 1.4457(4) 0.5626(4)
H11A H 1.2480 1.4374 0.5658
H12A H 1.1609 1.5058 0.5403
O18_2 O 1.6896(7) 0.9464(5) 0.5425(5)
H13_2 H 1.7703 0.9398 0.5774
H14_2 H 1.6992 0.9985 0.5077
O19_2 O 0.9185(6) 0.9330(5) 0.0568(4)
H15_2 H 0.9430 0.9916 0.0383
H16_2 H 0.9866 0.9214 0.1009
O20_2 O 0.6493(7) 0.6256(5) -0.0702(5)
H17_2 H 0.6152 0.5848 -0.0342
H18_2 H 0.5862 0.6197 -0.1282
O21 O 0.8381(9) 0.4727(7) 0.2309(6)
H19 H 0.8936 0.4493 0.2798
H20 H 0.8860 0.5255 0.2133
O22 O 0.3889(8) -0.0251(6) 0.2411(6)
H21 H 0.3572 0.0159 0.1977
H22 H 0.4165 0.0101 0.2996
O23 O 0.1076(9) 0.9372(7) 0.2562(6)
H23 H 0.1876 0.9402 0.2539
H24 H 0.0724 0.9812 0.2177
O24 O 0.4221(12) 0.6157(10) 0.7466(9)
H25 H 0.4301 0.6018 0.6900
H26 H 0.3833 0.6680 0.7418
loop_
_geom_bond_atom_site_label_1
_geom_bond_atom_site_label_2
_geom_bond_site_symmetry_1
_geom_bond_site_symmetry_2
Sm1 O1 1_555 1_555
Sm2 O1 1_555 1_555
Co1 O11 1_555 1_555
O1 C1 1_555 1_555
O2 Sm1 1_555 1_555
O3 Sm2 1_555 1_555
O4 Sm2 1_555 1_555
O5 Sm1 1_555 1_555
O6 Sm1 1_555 1_555
O7 C24 1_555 1_555
O8 Sm1 1_555 1_555
N1 H1 1_555 1_555
N2 H2 1_555 1_555
O9 C7 1_555 1_555
C1 O8 1_555 1_555
C2 C4 1_555 1_555
O10 Sm2 1_555 1_555
C3 O2 1_555 1_555
C4 O10 1_555 1_555
O11 C4 1_555 1_555
C5 C6 1_555 1_555
O12 C9 1_555 1_555
C6 N1 1_555 1_555
C7 O4 1_555 1_555
C8 N2 1_555 1_555
C9 O6 1_555 1_555
C10 C12 1_555 1_555
C11 H3 1_555 1_555
C12 H4 1_555 1_555
N3 C12 1_555 1_555
C13 N1 1_555 1_555
N4 C5 1_555 1_555
N5 Co1 1_555 1_555
C14 N2 1_555 1_555
C15 C13 1_555 1_555
C16 H5 1_555 1_555
N6 C18 1_555 1_555
C17 C11 1_555 1_555
H6 C17 1_555 1_555
C18 C11 1_555 1_555
H7 C18 1_555 1_555
C19 C10 1_555 1_555
H8 C19 1_555 1_555
C20 C15 1_555 1_555
H9 C20 1_555 1_555
C21 N3 1_555 1_555
H10 C21 1_555 1_555
O13 Sm1 1_555 1_555
O14 C23 1_555 1_555
O15 Sm1 1_555 1_555
C22 O13 1_555 1_555
C23 O15 1_555 1_555
O16 C22 1_555 1_555
C24 O5 1_555 1_555
O17 Sm1 1_555 1_555
H11 O17 1_555 1_555
H12 O17 1_555 1_555
O18 Sm2 1_555 1_555
H13 O18 1_555 1_555
H14 O18 1_555 1_555
O19 Co1 1_555 1_555
H15 O19 1_555 1_555
H16 O19 1_555 1_555
O20 Co1 1_555 1_555
H17 O20 1_555 1_555
H18 O20 1_555 1_555
O21 H19 1_555 1_555
H20 O21 1_555 1_555
O22 H21 1_555 1_555
H22 O22 1_555 1_555
O23 H23 1_555 1_555
H24 O23 1_555 1_555
O24 H25 1_555 1_555
H26 O24 1_555 1_555
Sm1A O7 1_555 1_555
Sm1_2 O13_2 1_555 1_555
Sm1_3 O2_2 1_555 1_555
Sm2_2 O14 1_555 1_555
Sm2A O9 1_555 1_555
Sm2_3 O2_2 1_555 1_555
Sm2A_2 O1A 1_555 1_555
Co1_2 O12 1_555 1_555
Co1A O11A 1_555 1_555
O1A Sm1A 1_555 1_555
O1_2 Sm2_2 1_555 1_555
O2_2 C3_2 1_555 1_555
O2A Sm1A 1_555 1_555
O2_3 Sm2_2 1_555 1_555
O3_2 Sm2_3 1_555 1_555
O3_3 Sm2_2 1_555 1_555
O4A Sm2A 1_555 1_555
O4_2 Sm2_2 1_555 1_555
O5A Sm1A 1_555 1_555
O6_2 Sm1_3 1_555 1_555
O6A Sm1A 1_555 1_555
O7A Sm1 1_555 1_555
O8A Sm1A 1_555 1_555
N1_2 H1_2 1_555 1_555
N2A H2A 1_555 1_555
O9A Sm2 1_555 1_555
O9A_2 Sm2_2 1_555 1_555
C1A O1A 1_555 1_555
C2A C4A 1_555 1_555
O10A Sm2A_2 1_555 1_555
O10_2 Sm2_2 1_555 1_555
C3_2 O3_2 1_555 1_555
C4A O10A 1_555 1_555
O11A C4A 1_555 1_555
O11_2 Co1_2 1_555 1_555
C5_2 C6_2 1_555 1_555
O12_2 Co1 1_555 1_555
C6_2 N1_2 1_555 1_555
C7A C7 1_555 1_555
C8A N2A 1_555 1_555
C9_2 O6_2 1_555 1_555
C10A C12A 1_555 1_555
C11_2 H3_2 1_555 1_555
C12A H4A 1_555 1_555
N3A C12A 1_555 1_555
C13_2 N1_2 1_555 1_555
N4_2 Co1 1_555 1_555
N5A Co1A 1_555 1_555
N5_2 Co1_2 1_555 1_555
C14A N2A 1_555 1_555
C15_2 C13_2 1_555 1_555
C16A H5A 1_555 1_555
N6_2 C18_2 1_555 1_555
C17_2 C11_2 1_555 1_555
H6_2 C17_2 1_555 1_555
C18_2 C11_2 1_555 1_555
H7_2 C18_2 1_555 1_555
C19A C10A 1_555 1_555
H8A C19A 1_555 1_555
C20_2 C15_2 1_555 1_555
H9_2 C20_2 1_555 1_555
C21A N3A 1_555 1_555
H10A C21A 1_555 1_555
O13_2 C22_2 1_555 1_555
O13A Sm1A 1_555 1_555
O14_2 Sm2 1_555 1_555
O15_2 Sm1_2 1_555 1_555
O15A Sm1A 1_555 1_555
C22_2 C23_2 1_555 1_555
C23_2 O14_2 1_555 1_555
O16_2 Sm2 1_555 1_555
C24A C24 1_555 1_555
O17A Sm1A 1_555 1_555
H11A O17A 1_555 1_555
H12A O17A 1_555 1_555
O18_2 Sm2_2 1_555 1_555
H13_2 O18_2 1_555 1_555
H14_2 O18_2 1_555 1_555
O19_2 Co1_2 1_555 1_555
H15_2 O19_2 1_555 1_555
H16_2 O19_2 1_555 1_555
O20_2 Co1_2 1_555 1_555
H17_2 O20_2 1_555 1_555
H18_2 O20_2 1_555 1_555
Sm2 O2 1_555 1_555
O3 C3 1_555 1_555
C1 C8 1_555 1_555
C2 C8 1_555 1_555
C2 N5 1_555 1_555
C3 C6 1_555 1_555
C5 C9 1_555 1_555
C10 C14 1_555 1_555
C13 N4 1_555 1_555
N4 Co1_2 1_555 1_555
N5 C14 1_555 1_555
C15 C17 1_555 1_555
C16 C19 1_555 1_555
C16 C21 1_555 1_555
N6 C20 1_555 1_555
C22 C23 1_555 1_555
O16 Sm2_2 1_555 1_555
Sm2A_2 O2A 1_555 1_555
O4A C7A 1_555 1_555
O5A C24A 1_555 1_555
O7A C24A 1_555 1_555
O8A C1A 1_555 1_555
O9A C7A 1_555 1_555
C1A C8A 1_555 1_555
C2A C8A 1_555 1_555
C2A N5A 1_555 1_555
C3_2 C6_2 1_555 1_555
C5_2 C9_2 1_555 1_555
C5_2 N4_2 1_555 1_555
O12_2 C9_2 1_555 1_555
C10A C14A 1_555 1_555
C13_2 N4_2 1_555 1_555
N5A C14A 1_555 1_555
C15_2 C17_2 1_555 1_555
C16A C19A 1_555 1_555
C16A C21A 1_555 1_555
N6_2 C20_2 1_555 1_555
O15_2 C23_2 1_555 1_555
C22_2 O16_2 1_555 1_555

#END
