
#######################################################################
#
#                 Cambridge Crystallographic Data Centre
#                                CCDC 
#
#######################################################################
#
# If this CIF has been generated from an entry in the Cambridge 
# Structural Database, then it will include bibliographic, chemical, 
# crystal, experimental, refinement or atomic coordinate data resulting 
# from the CCDC's data processing and validation procedures.
#
#######################################################################

data_ZEBNEB
_symmetry_cell_setting           monoclinic
_symmetry_space_group_name_H-M   'P 21/c'
_symmetry_Int_Tables_number      14
_space_group_name_Hall           '-P 2ybc'
loop_
_symmetry_equiv_pos_site_id
_symmetry_equiv_pos_as_xyz
1 x,y,z
2 -x,1/2+y,1/2-z
3 -x,-y,-z
4 x,1/2-y,1/2+z
_cell_length_a                   9.0309(10)
_cell_length_b                   16.6234(18)
_cell_length_c                   10.7100(12)
_cell_angle_alpha                90
_cell_angle_beta                 99.273(11)
_cell_angle_gamma                90
_cell_volume                     1586.82
loop_
_atom_site_label
_atom_site_type_symbol
_atom_site_fract_x
_atom_site_fract_y
_atom_site_fract_z
Zn1 Zn 0.65293(6) 0.80412(3) 0.62134(5)
O1 O 0.7419(3) 0.70793(18) 0.7104(3)
O2 O 0.9627(4) 0.7627(2) 0.7895(3)
O3 O 0.7740(4) 0.67365(19) 0.9926(3)
O4 O 0.6374(5) 0.5634(3) 0.9725(4)
O5 O 1.4506(4) 0.7702(2) 0.5406(3)
N1 N 1.1461(4) 0.6354(3) 0.6892(4)
N2 N 0.6120(4) 0.8800(2) 0.7600(3)
C1 C 0.8776(5) 0.7059(3) 0.7671(4)
C2 C 0.7411(5) 0.6037(3) 0.9471(4)
C3 C 0.9279(5) 0.6195(3) 0.7975(4)
C4 C 0.8472(5) 0.5690(3) 0.8656(4)
C5 C 0.8721(6) 0.4871(3) 0.8693(5)
H1 H 0.8165 0.4543 0.9148
C6 C 0.9787(6) 0.4529(3) 0.8064(5)
H2 H 0.9911 0.3974 0.8051
C7 C 1.0661(6) 0.5028(3) 0.7458(5)
H3 H 1.1412 0.4812 0.7059
C8 C 1.0423(5) 0.5846(3) 0.7441(4)
C9 C 1.2795(6) 0.6536(3) 0.7594(5)
H4 H 1.3007 0.6343 0.8418
C10 C 1.3838(6) 0.6990(3) 0.7144(5)
H5 H 1.4739 0.7109 0.7663
C11 C 1.3568(5) 0.7281(3) 0.5901(4)
C12 C 1.2144(6) 0.7087(4) 0.5200(5)
H6 H 1.1893 0.7273 0.4375
C13 C 1.1151(6) 0.6640(4) 0.5701(6)
H7 H 1.0227 0.6524 0.5215
C14 C 0.5275(6) 0.9456(3) 0.7320(4)
H8 H 0.4984 0.9593 0.6474
C15 C 0.4824(6) 0.9931(3) 0.8226(4)
H9 H 0.4228 1.0379 0.7990
C16 C 0.5251(5) 0.9750(3) 0.9498(4)
C17 C 0.6149(6) 0.9082(3) 0.9782(4)
H10 H 0.6479 0.8941 1.0621
C18 C 0.6555(6) 0.8623(3) 0.8820(4)
H11 H 0.7155 0.8173 0.9029
Zn1C Zn 0.65293(6) 0.69588(3) 0.12134(5)
Zn1C_2 Zn 0.65293(6) 0.69588(3) 1.12134(5)
Zn1_2 Zn 1.65293(6) 0.80412(3) 0.62134(5)
Zn1B Zn 0.34707(6) 1.19588(3) 1.37866(5)
Zn1C_3 Zn 1.65293(6) 0.69588(3) 0.12134(5)
O1C O 0.7419(3) 0.79207(18) 0.2104(3)
O2C O 0.9627(4) 0.7373(2) 0.2895(3)
O3C O 0.7740(4) 0.82635(19) 0.4926(3)
O3_2 O 0.7740(4) 0.67365(19) -0.0074(3)
O4C O 0.6374(5) 0.9366(3) 0.4725(4)
O4_2 O 0.6374(5) 0.5634(3) -0.0275(4)
O5C O 1.4506(4) 0.7298(2) 0.0406(3)
O5_2 O 0.4506(4) 0.7702(2) 0.5406(3)
O5C_2 O 0.4506(4) 0.7298(2) 0.0406(3)
N1C N 1.1461(4) 0.8646(3) 0.1892(4)
N2B N 0.3880(4) 1.1200(2) 1.2400(3)
N2C N 0.6120(4) 0.6200(2) 0.2600(3)
C1C C 0.8776(5) 0.7941(3) 0.2671(4)
C2C C 0.7411(5) 0.8963(3) 0.4471(4)
C3C C 0.9279(5) 0.8805(3) 0.2975(4)
C4C C 0.8472(5) 0.9310(3) 0.3656(4)
C5C C 0.8721(6) 1.0129(3) 0.3693(5)
H1C H 0.8165 1.0457 0.4148
C6C C 0.9787(6) 1.0471(3) 0.3064(5)
H2C H 0.9911 1.1026 0.3051
C7C C 1.0661(6) 0.9972(3) 0.2458(5)
H3C H 1.1412 1.0188 0.2059
C8C C 1.0423(5) 0.9154(3) 0.2441(4)
C9C C 1.2795(6) 0.8464(3) 0.2594(5)
H4C H 1.3007 0.8657 0.3418
C10C C 1.3838(6) 0.8010(3) 0.2144(5)
H5C H 1.4739 0.7891 0.2663
C11C C 1.3568(5) 0.7719(3) 0.0901(4)
C12C C 1.2144(6) 0.7913(4) 0.0200(5)
H6C H 1.1893 0.7727 -0.0625
C13C C 1.1151(6) 0.8360(4) 0.0701(6)
H7C H 1.0227 0.8476 0.0215
C14B C 0.4725(6) 1.0544(3) 1.2680(4)
H8B H 0.5016 1.0407 1.3526
C15B C 0.5176(6) 1.0069(3) 1.1774(4)
H9B H 0.5772 0.9621 1.2010
C16B C 0.4749(5) 1.0250(3) 1.0502(4)
C17B C 0.3851(6) 1.0918(3) 1.0218(4)
H10B H 0.3521 1.1059 0.9379
C18B C 0.3445(6) 1.1377(3) 1.1180(4)
H11B H 0.2845 1.1827 1.0971
loop_
_geom_bond_atom_site_label_1
_geom_bond_atom_site_label_2
_geom_bond_site_symmetry_1
_geom_bond_site_symmetry_2
Zn1 O1 1_555 1_555
O1 C1 1_555 1_555
O2 C1 1_555 1_555
O3 C2 1_555 1_555
O4 C2 1_555 1_555
O5 C11 1_555 1_555
N1 C8 1_555 1_555
N2 Zn1 1_555 1_555
C1 C3 1_555 1_555
C2 C4 1_555 1_555
C3 C4 1_555 1_555
C4 C5 1_555 1_555
C5 H1 1_555 1_555
C6 C5 1_555 1_555
H2 C6 1_555 1_555
C7 C6 1_555 1_555
H3 C7 1_555 1_555
C8 C3 1_555 1_555
C9 N1 1_555 1_555
H4 C9 1_555 1_555
C10 C9 1_555 1_555
H5 C10 1_555 1_555
C11 C10 1_555 1_555
C12 C11 1_555 1_555
H6 C12 1_555 1_555
C13 N1 1_555 1_555
H7 C13 1_555 1_555
C14 N2 1_555 1_555
H8 C14 1_555 1_555
C15 C14 1_555 1_555
H9 C15 1_555 1_555
C16 C15 1_555 1_555
C17 C16 1_555 1_555
H10 C17 1_555 1_555
C18 N2 1_555 1_555
H11 C18 1_555 1_555
Zn1C O1C 1_555 1_555
Zn1C_2 O3 1_555 1_555
Zn1_2 O5 1_555 1_555
Zn1B N2B 1_555 1_555
Zn1C_3 O5C 1_555 1_555
O1C C1C 1_555 1_555
O2C C1C 1_555 1_555
O3C Zn1 1_555 1_555
O3_2 Zn1C 1_555 1_555
O4C Zn1 1_555 1_555
O4_2 Zn1C 1_555 1_555
O5C C11C 1_555 1_555
O5_2 Zn1 1_555 1_555
O5C_2 Zn1C 1_555 1_555
N1C C8C 1_555 1_555
N2B C14B 1_555 1_555
N2C Zn1C 1_555 1_555
C1C C3C 1_555 1_555
C2C O3C 1_555 1_555
C3C C4C 1_555 1_555
C4C C2C 1_555 1_555
C5C C4C 1_555 1_555
H1C C5C 1_555 1_555
C6C C5C 1_555 1_555
H2C C6C 1_555 1_555
C7C C6C 1_555 1_555
H3C C7C 1_555 1_555
C8C C3C 1_555 1_555
C9C N1C 1_555 1_555
H4C C9C 1_555 1_555
C10C C9C 1_555 1_555
H5C C10C 1_555 1_555
C11C C10C 1_555 1_555
C12C C11C 1_555 1_555
H6C C12C 1_555 1_555
C13C N1C 1_555 1_555
H7C C13C 1_555 1_555
C14B H8B 1_555 1_555
C15B C14B 1_555 1_555
H9B C15B 1_555 1_555
C16B C16 1_555 1_555
C17B C16B 1_555 1_555
H10B C17B 1_555 1_555
C18B N2B 1_555 1_555
H11B C18B 1_555 1_555
O4 Zn1C_2 1_555 1_555
C7 C8 1_555 1_555
C12 C13 1_555 1_555
C17 C18 1_555 1_555
O4C C2C 1_555 1_555
C7C C8C 1_555 1_555
C12C C13C 1_555 1_555
C15B C16B 1_555 1_555
C17B C18B 1_555 1_555

#END
