
#######################################################################
#
#                 Cambridge Crystallographic Data Centre
#                                CCDC 
#
#######################################################################
#
# If this CIF has been generated from an entry in the Cambridge 
# Structural Database, then it will include bibliographic, chemical, 
# crystal, experimental, refinement or atomic coordinate data resulting 
# from the CCDC's data processing and validation procedures.
#
#######################################################################

data_ZEBNUR
_symmetry_cell_setting           triclinic
_symmetry_space_group_name_H-M   'P -1'
_symmetry_Int_Tables_number      2
_space_group_name_Hall           '-P 1'
loop_
_symmetry_equiv_pos_site_id
_symmetry_equiv_pos_as_xyz
1 x,y,z
2 -x,-y,-z
_cell_length_a                   10.5890(13)
_cell_length_b                   12.8173(16)
_cell_length_c                   14.2610(18)
_cell_angle_alpha                92.008(2)
_cell_angle_beta                 110.531(1)
_cell_angle_gamma                102.872(2)
_cell_volume                     1753.42
loop_
_atom_site_label
_atom_site_type_symbol
_atom_site_fract_x
_atom_site_fract_y
_atom_site_fract_z
O21 O 0.3471(9) 0.4723(6) 0.7339(6)
H19 H 0.2807 0.4404 0.7512
H20 H 0.3547 0.5397 0.7423
O22 O 0.1152(8) 0.0263(6) 0.2611(6)
H21 H 0.0541 0.0146 0.2017
H22 H 0.1251 -0.0356 0.2767
O23 O 0.3893(9) 0.0650(8) 0.2418(7)
H23 H 0.3911 0.0390 0.2961
H24 H 0.4706 0.1035 0.2521
O24 O 0.0818(10) 0.3820(9) 0.7564(8)
H25 H 0.0438 0.3839 0.7997
H26 H 0.0197 0.3474 0.7018
Sm1 Sm 0.54248(4) 0.25213(3) 0.03180(3)
Sm2 Sm 0.91125(4) 0.24861(3) -0.02422(3)
O1 O 0.9846(6) 0.1966(5) 0.1504(4)
O2 O 0.7764(5) 0.2259(4) 0.0953(4)
O3 O 0.6263(6) 0.2995(4) 0.2102(4)
O4 O 0.6367(6) 0.2876(5) 0.3665(4)
C1 C 0.7993(8) 0.2225(6) 0.3221(6)
C2 C 0.8772(8) 0.1981(7) 0.2684(6)
C3 C 0.8767(8) 0.2059(6) 0.1656(6)
C4 C 0.6779(8) 0.2712(7) 0.2963(6)
C5 C 0.9694(8) 0.1680(6) 0.4266(6)
N1 N 0.9839(7) 0.1643(6) 0.3361(5)
H1 H 1.0489 0.1441 0.3232
N2 N 0.8588(7) 0.2025(5) 0.4215(5)
O5 O 0.6822(5) 0.2822(4) -0.0877(4)
O6 O 0.4744(6) 0.3138(5) -0.1423(4)
O7 O 0.7864(6) 0.1585(5) -0.3576(4)
O8 O 0.8170(6) 0.1832(5) -0.1964(4)
C6 C 0.5788(8) 0.2986(6) -0.1588(6)
C7 C 0.6412(9) 0.2508(6) -0.3166(6)
C8 C 0.5745(8) 0.2947(6) -0.2631(6)
C9 C 0.7560(9) 0.1942(6) -0.2868(6)
C10 C 0.3929(8) 0.3442(6) -0.5201(6)
C11 C 0.4839(9) 0.3131(7) -0.4249(6)
N3 N 0.4750(7) 0.3335(6) -0.3346(5)
H2 H 0.4174 0.3653 -0.3233
N4 N 0.5828(7) 0.2622(6) -0.4173(5)
Fe1 Fe 0.71560(13) 0.22327(10) 0.50265(9)
O9 O 0.5758(6) 0.0643(5) 0.4395(4)
O10 O 0.8553(7) 0.3754(5) 0.5740(5)
C12 C 0.2547(8) 0.3148(7) 0.0245(6)
C13 C 1.0017(9) 0.5022(7) 0.0554(6)
C14 C 0.2063(9) 0.1943(7) -0.0139(7)
C15 C 0.4912(8) 0.0030(7) -0.0558(6)
O11 O 0.5002(6) 0.0944(4) -0.0851(4)
O12 O 0.9466(6) 0.4164(4) 0.0797(4)
O13 O 0.1640(6) 0.3565(5) 0.0365(5)
O14 O 0.0797(6) 0.1489(5) -0.0368(5)
O15 O 1.0565(6) 0.5912(5) 0.1088(4)
O16 O 0.2983(6) 0.1501(5) -0.0196(5)
O17 O 0.6698(6) 0.4459(4) 0.0617(5)
H7 H 0.7450 0.4345 0.0599
H8 H 0.6530 0.4978 0.0279
C16 C 1.0727(9) 0.1429(7) 0.5177(6)
C17 C 1.1716(9) 0.0901(7) 0.5098(7)
H9 H 1.1712 0.0715 0.4460
O18 O 0.8096(8) 0.0534(5) -0.0406(5)
H10 H 0.8192 -0.0040 -0.0139
H11 H 0.7873 0.0387 -0.1038
O19 O 0.4692(6) -0.0847(4) -0.1091(4)
O20 O 0.3791(6) 0.3612(5) 0.0397(5)
N5 N 1.2666(8) 0.0655(6) 0.5903(6)
C18 C 0.2596(9) 0.4629(7) -0.6024(6)
H12 H 0.2229 0.5219 -0.5991
C19 C 0.3675(9) 0.2891(8) -0.6116(6)
H13 H 0.4041 0.2299 -0.6140
C20 C 1.0753(10) 0.1690(8) 0.6137(7)
H14 H 1.0100 0.2027 0.6219
N6 N 0.2881(10) 0.3206(8) -0.7006(7)
C21 C 1.2685(9) 0.0930(8) 0.6820(7)
H15 H 1.3352 0.0766 0.7381
C22 C 0.2356(11) 0.4105(8) -0.6895(8)
H16 H 0.1810 0.4337 -0.7475
C23 C 0.3364(10) 0.4312(8) -0.5192(7)
H17 H 0.3532 0.4690 -0.4574
C24 C 1.1737(10) 0.1455(8) 0.6963(7)
H18 H 1.1772 0.1642 0.7609
C13A C 0.9983(9) 0.4978(7) -0.0554(6)
O12A O 1.0534(6) 0.5836(4) -0.0797(4)
O15A O 0.9435(6) 0.4088(5) -0.1088(4)
C15A C 0.5088(8) -0.0030(7) 0.0558(6)
O11A O 0.4998(6) -0.0944(4) 0.0851(4)
O19A O 0.5308(6) 0.0847(4) 0.1091(4)
Sm1A Sm 0.45752(4) -0.25213(3) -0.03180(3)
Sm2_2 Sm -0.08875(4) 0.24861(3) -0.02422(3)
Fe1_2 Fe 0.71560(13) 0.22327(10) -0.49735(9)
C12_2 C 1.2547(8) 0.3148(7) 0.0245(6)
C14_2 C 1.2063(9) 0.1943(7) -0.0139(7)
O13_2 O 1.1640(6) 0.3565(5) 0.0365(5)
O14_2 O 1.0797(6) 0.1489(5) -0.0368(5)
O16_2 O 1.2983(6) 0.1501(5) -0.0196(5)
O20_2 O 1.3791(6) 0.3612(5) 0.0397(5)
O5_2 O 0.6822(5) 0.2822(4) 0.9123(4)
O6_2 O 0.4744(6) 0.3138(5) 0.8577(4)
O7_2 O 0.7864(6) 0.1585(5) 0.6424(4)
O8_2 O 0.8170(6) 0.1832(5) 0.8036(4)
C6_2 C 0.5788(8) 0.2986(6) 0.8412(6)
C7_2 C 0.6412(9) 0.2508(6) 0.6834(6)
C8_2 C 0.5745(8) 0.2947(6) 0.7369(6)
C9_2 C 0.7560(9) 0.1942(6) 0.7132(6)
C10_2 C 0.3929(8) 0.3442(6) 0.4799(6)
C11_2 C 0.4839(9) 0.3131(7) 0.5751(6)
N3_2 N 0.4750(7) 0.3335(6) 0.6654(5)
H2_2 H 0.4174 0.3653 0.6767
N4_2 N 0.5828(7) 0.2622(6) 0.5827(5)
C18_2 C 0.2596(9) 0.4629(7) 0.3976(6)
H12_2 H 0.2229 0.5219 0.4009
C19_2 C 0.3675(9) 0.2891(8) 0.3884(6)
H13_2 H 0.4041 0.2299 0.3860
N6_2 N 0.2881(10) 0.3206(8) 0.2994(7)
C22_2 C 0.2356(11) 0.4105(8) 0.3105(8)
H16_2 H 0.1810 0.4337 0.2525
C23_2 C 0.3364(10) 0.4312(8) 0.4808(7)
H17_2 H 0.3532 0.4690 0.5426
O1A O 0.0154(6) -0.1966(5) -0.1504(4)
O2A O 0.2236(5) -0.2259(4) -0.0953(4)
O3A O 0.3737(6) -0.2995(4) -0.2102(4)
O4A O 0.3633(6) -0.2876(5) -0.3665(4)
C1A C 0.2007(8) -0.2225(6) -0.3221(6)
C2A C 0.1228(8) -0.1981(7) -0.2684(6)
C3A C 0.1233(8) -0.2059(6) -0.1656(6)
C4A C 0.3221(8) -0.2712(7) -0.2963(6)
C5A C 0.0306(8) -0.1680(6) -0.4266(6)
N1A N 0.0161(7) -0.1643(6) -0.3361(5)
H1A H -0.0489 -0.1441 -0.3232
N2A N 0.1412(7) -0.2025(5) -0.4215(5)
C16A C -0.0727(9) -0.1429(7) -0.5177(6)
C17A C -0.1716(9) -0.0901(7) -0.5098(7)
H9A H -0.1712 -0.0715 -0.4460
N5A N -0.2666(8) -0.0655(6) -0.5903(6)
C20A C -0.0753(10) -0.1690(8) -0.6137(7)
H14A H -0.0100 -0.2027 -0.6219
C21A C -0.2685(9) -0.0930(8) -0.6820(7)
H15A H -0.3352 -0.0766 -0.7381
C24A C -0.1737(10) -0.1455(8) -0.6963(7)
H18A H -0.1772 -0.1642 -0.7609
O17A O 0.3302(6) -0.4459(4) -0.0617(5)
H7A H 0.2550 -0.4345 -0.0599
H8A H 0.3470 -0.4978 -0.0279
O18_2 O -0.1904(8) 0.0534(5) -0.0406(5)
H10_2 H -0.1808 -0.0040 -0.0139
H11_2 H -0.2127 0.0387 -0.1038
O9_2 O 0.5758(6) 0.0643(5) -0.5605(4)
O10_2 O 0.8553(7) 0.3754(5) -0.4260(5)
Sm2A Sm 1.08875(4) 0.75139(3) 0.02422(3)
O5A O 0.3178(5) -0.2822(4) 0.0877(4)
O6A O 0.5256(6) -0.3138(5) 0.1423(4)
O16A O 0.7017(6) -0.1501(5) 0.0196(5)
O20A O 0.6209(6) -0.3612(5) -0.0397(5)
O1_2 O -0.0154(6) 0.1966(5) 0.1504(4)
O2_2 O -0.2236(5) 0.2259(4) 0.0953(4)
O8_3 O -0.1830(6) 0.1832(5) -0.1964(4)
O12_2 O -0.0534(6) 0.4164(4) 0.0797(4)
O15A_2 O -0.0565(6) 0.4088(5) -0.1088(4)
O5_3 O -0.3178(5) 0.2822(4) -0.0877(4)
O4_2 O 0.6367(6) 0.2876(5) -0.6335(4)
N2_2 N 0.8588(7) 0.2025(5) -0.5785(5)
Sm1_2 Sm 1.54248(4) 0.25213(3) 0.03180(3)
Sm1_3 Sm 0.54248(4) 0.25213(3) 1.03180(3)
Sm2_3 Sm 0.91125(4) 0.24861(3) 0.97578(3)
Sm2A_2 Sm 0.08875(4) -0.24861(3) 0.02422(3)
Fe1A Fe 0.28440(13) -0.22327(10) -0.50265(9)
H3? H 0.5905 0.0753 0.5020
H4? H 0.6252 0.0228 0.4327
H5? H 0.9006 0.4105 0.5579
H6? H 0.8075 0.3293 0.5732
loop_
_geom_bond_atom_site_label_1
_geom_bond_atom_site_label_2
_geom_bond_site_symmetry_1
_geom_bond_site_symmetry_2
Sm1 O2 1_555 1_555
Sm2 O1 1_555 1_555
O1 C3 1_555 1_555
O2 Sm2 1_555 1_555
O3 Sm1 1_555 1_555
O4 C4 1_555 1_555
C1 C2 1_555 1_555
C2 C3 1_555 1_555
C3 O2 1_555 1_555
C4 O3 1_555 1_555
C5 N1 1_555 1_555
N1 C2 1_555 1_555
H1 N1 1_555 1_555
N2 C1 1_555 1_555
O5 Sm1 1_555 1_555
O6 Sm1 1_555 1_555
O7 C9 1_555 1_555
O8 Sm2 1_555 1_555
C6 O5 1_555 1_555
C7 C8 1_555 1_555
C8 C6 1_555 1_555
C9 O8 1_555 1_555
C10 C11 1_555 1_555
C11 N3 1_555 1_555
N3 C8 1_555 1_555
H2 N3 1_555 1_555
N4 C7 1_555 1_555
Fe1 O4 1_555 1_555
O9 Fe1 1_555 1_555
O10 Fe1 1_555 1_555
C12 C14 1_555 1_555
C13 O12 1_555 1_555
C14 O14 1_555 1_555
C15 O11 1_555 1_555
O11 Sm1 1_555 1_555
O12 Sm2 1_555 1_555
O13 C12 1_555 1_555
O14 Sm2_2 1_555 1_555
O15 C13 1_555 1_555
O16 Sm1 1_555 1_555
O17 Sm1 1_555 1_555
H7 O17 1_555 1_555
H8 O17 1_555 1_555
C16 C5 1_555 1_555
C17 C16 1_555 1_555
H9 C17 1_555 1_555
O18 Sm2 1_555 1_555
H10 O18 1_555 1_555
H11 O18 1_555 1_555
O19 C15 1_555 1_555
O20 Sm1 1_555 1_555
N5 C17 1_555 1_555
C18 H12 1_555 1_555
C19 C10 1_555 1_555
H13 C19 1_555 1_555
C20 C16 1_555 1_555
H14 C20 1_555 1_555
N6 C19 1_555 1_555
C21 N5 1_555 1_555
H15 C21 1_555 1_555
C22 C18 1_555 1_555
H16 C22 1_555 1_555
C23 C10 1_555 1_555
H17 C23 1_555 1_555
C24 C20 1_555 1_555
H18 C24 1_555 1_555
O21 H19 1_555 1_555
H20 O21 1_555 1_555
O22 H21 1_555 1_555
H22 O22 1_555 1_555
O23 H23 1_555 1_555
H24 O23 1_555 1_555
O24 H25 1_555 1_555
H26 O24 1_555 1_555
C13A C13 1_555 1_555
O12A C13A 1_555 1_555
O15A Sm2 1_555 1_555
C15A C15 1_555 1_555
O11A C15A 1_555 1_555
O19A Sm1 1_555 1_555
Sm1A O19 1_555 1_555
Sm2_2 O13 1_555 1_555
Fe1_2 O7 1_555 1_555
C12_2 C14_2 1_555 1_555
C14_2 O14_2 1_555 1_555
O13_2 Sm2 1_555 1_555
O14_2 Sm2 1_555 1_555
O16_2 C14_2 1_555 1_555
O20_2 C12_2 1_555 1_555
O5_2 C6_2 1_555 1_555
O6_2 C6_2 1_555 1_555
O7_2 Fe1 1_555 1_555
O8_2 C9_2 1_555 1_555
C6_2 C8_2 1_555 1_555
C7_2 C8_2 1_555 1_555
C8_2 N3_2 1_555 1_555
C9_2 O7_2 1_555 1_555
C10_2 C11_2 1_555 1_555
C11_2 N3_2 1_555 1_555
N3_2 H2_2 1_555 1_555
N4_2 Fe1 1_555 1_555
C18_2 H12_2 1_555 1_555
C19_2 C10_2 1_555 1_555
H13_2 C19_2 1_555 1_555
N6_2 C19_2 1_555 1_555
C22_2 C18_2 1_555 1_555
H16_2 C22_2 1_555 1_555
C23_2 C10_2 1_555 1_555
H17_2 C23_2 1_555 1_555
O1A C3A 1_555 1_555
O2A Sm1A 1_555 1_555
O3A Sm1A 1_555 1_555
O4A C4A 1_555 1_555
C1A C2A 1_555 1_555
C2A C3A 1_555 1_555
C3A O2A 1_555 1_555
C4A O3A 1_555 1_555
C5A N1A 1_555 1_555
N1A C2A 1_555 1_555
H1A N1A 1_555 1_555
N2A C1A 1_555 1_555
C16A C5A 1_555 1_555
C17A C16A 1_555 1_555
H9A C17A 1_555 1_555
N5A C17A 1_555 1_555
C20A C16A 1_555 1_555
H14A C20A 1_555 1_555
C21A N5A 1_555 1_555
H15A C21A 1_555 1_555
C24A C20A 1_555 1_555
H18A C24A 1_555 1_555
O17A Sm1A 1_555 1_555
H7A O17A 1_555 1_555
H8A O17A 1_555 1_555
O18_2 Sm2_2 1_555 1_555
H10_2 O18_2 1_555 1_555
H11_2 O18_2 1_555 1_555
O9_2 Fe1_2 1_555 1_555
O10_2 Fe1_2 1_555 1_555
Sm2A O15 1_555 1_555
O5A Sm1A 1_555 1_555
O6A Sm1A 1_555 1_555
O16A Sm1A 1_555 1_555
O20A Sm1A 1_555 1_555
O1_2 Sm2_2 1_555 1_555
O2_2 Sm2_2 1_555 1_555
O8_3 Sm2_2 1_555 1_555
O12_2 Sm2_2 1_555 1_555
O15A_2 Sm2_2 1_555 1_555
O5_3 Sm2_2 1_555 1_555
O4_2 Fe1_2 1_555 1_555
N2_2 Fe1_2 1_555 1_555
Sm1_2 O16_2 1_555 1_555
Sm1_3 O5_2 1_555 1_555
Sm2_3 O5_2 1_555 1_555
Sm2A_2 O1A 1_555 1_555
Fe1A O4A 1_555 1_555
Sm2 O5 1_555 1_555
C1 C4 1_555 1_555
C5 N2 1_555 1_555
N2 Fe1 1_555 1_555
O6 C6 1_555 1_555
C7 C9 1_555 1_555
C11 N4 1_555 1_555
N4 Fe1_2 1_555 1_555
C12 O20 1_555 1_555
C14 O16 1_555 1_555
C18 C23 1_555 1_555
N6 C22 1_555 1_555
C21 C24 1_555 1_555
C13A O15A 1_555 1_555
O12A Sm2A 1_555 1_555
C15A O19A 1_555 1_555
O11A Sm1A 1_555 1_555
C12_2 O13_2 1_555 1_555
O20_2 Sm1_2 1_555 1_555
O6_2 Sm1_3 1_555 1_555
O8_2 Sm2_3 1_555 1_555
C7_2 C9_2 1_555 1_555
C7_2 N4_2 1_555 1_555
C11_2 N4_2 1_555 1_555
C18_2 C23_2 1_555 1_555
N6_2 C22_2 1_555 1_555
O2A Sm2A_2 1_555 1_555
C1A C4A 1_555 1_555
C5A N2A 1_555 1_555
N2A Fe1A 1_555 1_555
C21A C24A 1_555 1_555
O5A Sm2A_2 1_555 1_555

#END
