
#######################################################################
#
#                 Cambridge Crystallographic Data Centre
#                                CCDC 
#
#######################################################################
#
# If this CIF has been generated from an entry in the Cambridge 
# Structural Database, then it will include bibliographic, chemical, 
# crystal, experimental, refinement or atomic coordinate data resulting 
# from the CCDC's data processing and validation procedures.
#
#######################################################################

data_ZEBPIH
_symmetry_cell_setting           monoclinic
_symmetry_space_group_name_H-M   'P 21/c'
_symmetry_Int_Tables_number      14
_space_group_name_Hall           '-P 2ybc'
loop_
_symmetry_equiv_pos_site_id
_symmetry_equiv_pos_as_xyz
1 x,y,z
2 -x,1/2+y,1/2-z
3 -x,-y,-z
4 x,1/2-y,1/2+z
_cell_length_a                   8.4700(6)
_cell_length_b                   23.5866(17)
_cell_length_c                   15.4231(9)
_cell_angle_alpha                90
_cell_angle_beta                 117.274(3)
_cell_angle_gamma                90
_cell_volume                     2738.65
loop_
_atom_site_label
_atom_site_type_symbol
_atom_site_fract_x
_atom_site_fract_y
_atom_site_fract_z
Sm1 Sm 1.00028(18) 0.74034(6) 0.34466(10)
Sm2 Sm 1.15883(17) 0.72289(6) 0.64871(10)
Ag1 Ag 0.7636(4) 0.92924(13) 0.32090(19)
Ag2 Ag 0.9880(4) 0.48243(11) 0.72608(17)
Ag3 Ag 0.6806(4) 0.56605(12) 0.27538(18)
O1 O 0.927(3) 0.8358(11) 0.3843(13)
O2 O 1.315(3) 0.7434(10) 0.4332(16)
H1 H 1.3415 0.7427 0.4934
H2 H 1.4051 0.7322 0.4276
O3 O 1.090(3) 0.7945(9) 0.5257(13)
O4 O 0.828(3) 0.7191(10) 0.5605(14)
H3 H 0.7621 0.6919 0.5272
H4 H 0.8103 0.7437 0.5166
O5 O 1.070(3) 0.8025(9) 0.7181(16)
O6 O 1.237(4) 0.8825(12) 0.7808(18)
O7 O 0.934(3) 0.6364(10) 0.3519(14)
O8 O 1.079(3) 0.6808(9) 0.4924(15)
O9 O 1.262(3) 0.6320(10) 0.6766(16)
O10 O 1.252(3) 0.5464(10) 0.7379(16)
O11 O 0.731(3) 0.7347(9) 0.3695(15)
O12 O 0.435(3) 0.7547(10) 0.3014(16)
O13 O 0.722(3) 0.7437(9) 0.1944(16)
O14 O 0.428(3) 0.7618(10) 0.1266(13)
O15 O 1.075(2) 0.8055(7) 0.2608(12)
H5 H 1.0564 0.8257 0.2985
N1 N 0.848(4) 0.9273(13) 0.4744(19)
N2 N 0.944(3) 0.9440(10) 0.6351(17)
N3 N 0.495(4) 1.0642(13) 0.378(2)
N4 N 0.916(3) 0.5247(10) 0.5879(16)
N5 N 0.796(3) 0.5555(10) 0.4351(17)
N6 N 0.375(3) 0.4388(14) 0.3319(18)
C1 C 0.990(4) 0.8357(13) 0.475(2)
C2 C 0.948(4) 0.8809(13) 0.527(2)
C3 C 1.001(4) 0.8904(13) 0.624(2)
C4 C 1.124(4) 0.8560(13) 0.715(2)
C5 C 0.845(4) 0.9608(15) 0.541(2)
C6 C 0.740(4) 1.0131(15) 0.510(2)
C7 C 0.760(4) 1.0584(15) 0.573(2)
H6 H 0.8470 1.0572 0.6380
C8 C 0.646(4) 1.1050(15) 0.539(2)
H7 H 0.6526 1.1341 0.5810
C9 C 0.519(4) 1.1078(15) 0.438(2)
H8 H 0.4523 1.1406 0.4133
C10 C 0.598(4) 1.0164(15) 0.415(2)
H9 H 0.5705 0.9845 0.3756
C11 C 0.985(4) 0.6375(12) 0.446(2)
C12 C 0.941(4) 0.5912(12) 0.491(2)
C13 C 1.012(4) 0.5683(12) 0.584(2)
C14 C 1.193(4) 0.5844(12) 0.672(2)
C15 C 0.789(4) 0.5198(12) 0.498(2)
C16 C 0.646(4) 0.4783(12) 0.461(2)
C17 C 0.649(4) 0.4323(12) 0.518(2)
H10 H 0.7469 0.4277 0.5791
C18 C 0.515(4) 0.3940(12) 0.489(2)
H11 H 0.5109 0.3681 0.5337
C19 C 0.383(4) 0.3934(12) 0.392(2)
H12 H 0.3023 0.3636 0.3681
C20 C 0.506(4) 0.4789(12) 0.368(2)
H13 H 0.5007 0.5088 0.3277
C21 C 0.580(4) 0.7474(12) 0.303(2)
C22 C 0.577(4) 0.7512(12) 0.199(2)
Sm1C Sm 1.00028(18) 0.75966(6) 0.84466(10)
Sm2C Sm 0.15883(17) 0.77711(6) 0.14871(10)
Sm2C_2 Sm 1.15883(17) 0.77711(6) 0.14871(10)
Ag1A Ag 0.2364(4) 0.42924(13) 0.17910(19)
Ag2A Ag 1.0120(4) 0.98243(11) 0.77392(17)
Ag3A Ag 0.3194(4) 1.06605(12) 0.22462(18)
O5C O 1.070(3) 0.6975(9) 0.2181(16)
O12C O 1.435(3) 0.7453(10) 0.8014(16)
O14C O 1.428(3) 0.7382(10) 0.6266(13)
O15C O 1.075(2) 0.6945(7) 0.7608(12)
H5C H 1.0564 0.6743 0.7985
N2A N 1.056(3) 0.4440(10) 0.8649(17)
N3A N 0.505(4) 0.5642(13) 0.122(2)
N6A N 0.625(3) 0.9388(14) 0.1681(18)
loop_
_geom_bond_atom_site_label_1
_geom_bond_atom_site_label_2
_geom_bond_site_symmetry_1
_geom_bond_site_symmetry_2
Sm1 O1 1_555 1_555
Sm2 O3 1_555 1_555
Ag1 O1 1_555 1_555
Ag2 O10 1_555 1_555
Ag3 O7 1_555 1_555
O1 C1 1_555 1_555
O2 Sm1 1_555 1_555
H1 O2 1_555 1_555
H2 O2 1_555 1_555
O3 Sm1 1_555 1_555
O4 Sm2 1_555 1_555
H3 O4 1_555 1_555
H4 O4 1_555 1_555
O5 Sm2 1_555 1_555
O6 C4 1_555 1_555
O7 Sm1 1_555 1_555
O8 Sm1 1_555 1_555
O9 Sm2 1_555 1_555
O10 C14 1_555 1_555
O11 Sm1 1_555 1_555
O12 C21 1_555 1_555
O13 Sm1 1_555 1_555
O14 C22 1_555 1_555
O15 Sm1 1_555 1_555
H5 O15 1_555 1_555
N1 Ag1 1_555 1_555
N2 C3 1_555 1_555
N3 C9 1_555 1_555
N4 Ag2 1_555 1_555
N5 Ag3 1_555 1_555
N6 C19 1_555 1_555
C1 O3 1_555 1_555
C2 N1 1_555 1_555
C3 C2 1_555 1_555
C4 O5 1_555 1_555
C5 N1 1_555 1_555
C6 C5 1_555 1_555
C7 C6 1_555 1_555
H6 C7 1_555 1_555
C8 C7 1_555 1_555
H7 C8 1_555 1_555
C9 C8 1_555 1_555
H8 C9 1_555 1_555
C10 N3 1_555 1_555
H9 C10 1_555 1_555
C11 O7 1_555 1_555
C12 N5 1_555 1_555
C13 N4 1_555 1_555
C14 O9 1_555 1_555
C15 N4 1_555 1_555
C16 C15 1_555 1_555
C17 C16 1_555 1_555
H10 C17 1_555 1_555
C18 C17 1_555 1_555
H11 C18 1_555 1_555
C19 C18 1_555 1_555
H12 C19 1_555 1_555
C20 N6 1_555 1_555
H13 C20 1_555 1_555
C21 O11 1_555 1_555
C22 O13 1_555 1_555
Sm1C O5 1_555 1_555
Sm2C O12 1_555 1_555
Sm2C_2 O15 1_555 1_555
Ag1A N6 1_555 1_555
Ag2A N2 1_555 1_555
Ag3A N3 1_555 1_555
O5C Sm1 1_555 1_555
O12C Sm2 1_555 1_555
O14C Sm2 1_555 1_555
O15C Sm2 1_555 1_555
H5C O15C 1_555 1_555
N2A Ag2 1_555 1_555
N3A Ag3 1_555 1_555
N6A Ag1 1_555 1_555
Sm2 O8 1_555 1_555
O8 C11 1_555 1_555
O14 Sm2C 1_555 1_555
N2 C5 1_555 1_555
N5 C15 1_555 1_555
C1 C2 1_555 1_555
C3 C4 1_555 1_555
C6 C10 1_555 1_555
C11 C12 1_555 1_555
C12 C13 1_555 1_555
C13 C14 1_555 1_555
C16 C20 1_555 1_555
C21 C22 1_555 1_555
Sm1C O15C 1_555 1_555
Sm2C_2 O5C 1_555 1_555

#END
