
#######################################################################
#
#                 Cambridge Crystallographic Data Centre
#                                CCDC 
#
#######################################################################
#
# If this CIF has been generated from an entry in the Cambridge 
# Structural Database, then it will include bibliographic, chemical, 
# crystal, experimental, refinement or atomic coordinate data resulting 
# from the CCDC's data processing and validation procedures.
#
#######################################################################

data_ZEBPAZ
_symmetry_cell_setting           triclinic
_symmetry_space_group_name_H-M   'P -1'
_symmetry_Int_Tables_number      2
_space_group_name_Hall           '-P 1'
loop_
_symmetry_equiv_pos_site_id
_symmetry_equiv_pos_as_xyz
1 x,y,z
2 -x,-y,-z
_cell_length_a                   10.5406(9)
_cell_length_b                   12.7755(11)
_cell_length_c                   14.1480(13)
_cell_angle_alpha                91.801(1)
_cell_angle_beta                 110.012(1)
_cell_angle_gamma                102.861(1)
_cell_volume                     1733.16
loop_
_atom_site_label
_atom_site_type_symbol
_atom_site_fract_x
_atom_site_fract_y
_atom_site_fract_z
O21 O 0.6136(7) 0.5247(6) 0.2573(6)
H19 H 0.5298 0.5287 0.2299
H20 H 0.6138 0.4727 0.2935
O22 O 0.8921(9) 0.5613(8) 0.2479(6)
H21 H 0.9370 0.5682 0.2079
H22 H 0.8472 0.6094 0.2401
O23 O 0.8461(7) 0.9752(5) 0.7345(5)
H23 H 0.8717 1.0434 0.7420
H24 H 0.8968 0.9530 0.7875
O24 O 0.5829(10) 0.8876(9) 0.7543(8)
H25 H 0.5246 0.8854 0.7838
H26 H 0.5404 0.8535 0.6958
Eu1 Eu 0.04207(4) 0.75135(3) 0.03259(3)
Eu2 Eu 0.41122(4) 0.74951(3) -0.02499(3)
Co1 Co 0.21597(11) 0.72575(10) 0.50275(8)
C1 C 0.3738(7) 0.6970(6) 0.2694(5)
C2 C 0.3753(7) 0.7098(6) 0.1667(5)
C3 C 0.2972(7) 0.7191(7) 0.3225(5)
C4 C 0.1760(8) 0.7687(5) 0.2952(5)
C5 C 0.4694(6) 0.6688(6) 0.4261(6)
C6 C 0.5701(6) 0.6439(6) 0.5175(5)
N1 N 0.3534(6) 0.7026(5) 0.4209(4)
N2 N 0.4809(6) 0.6650(5) 0.3359(4)
H1 H 0.5460 0.6454 0.3219
O1 O 0.1227(5) 0.7990(5) 0.2107(4)
O2 O 0.4815(5) 0.6957(5) 0.1474(3)
O3 O 0.2717(4) 0.7265(4) 0.0941(3)
O4 O 0.1372(5) 0.7873(5) 0.3684(4)
O5 O 0.2910(5) 0.6649(5) -0.3592(4)
N3 N 0.0856(6) 0.7633(5) -0.4179(4)
O6 O 0.1840(4) 0.7824(4) -0.0874(3)
O7 O 0.4456(5) 0.9160(4) 0.0817(4)
O8 O -0.0251(5) 0.8132(5) -0.1405(4)
O9 O -0.0001(5) 0.5953(4) -0.0842(4)
N4 N 0.7652(7) 0.5643(6) 0.5903(5)
C7 C 0.6750(9) 0.6496(8) 0.6989(6)
H2 H 0.6789 0.6683 0.7641
C8 C 0.7692(9) 0.5932(7) 0.6822(8)
H3 H 0.8361 0.5761 0.7379
C9 C 0.6668(8) 0.5867(8) 0.5120(6)
H4 H 0.6614 0.5623 0.4477
C10 C 0.5781(10) 0.6755(9) 0.6156(7)
H5 H 0.5173 0.7143 0.6244
C11 C -0.1079(7) 0.8415(6) -0.5193(6)
C12 C -0.1352(8) 0.7846(9) -0.6145(7)
H6 H -0.0984 0.7256 -0.6182
N5 N -0.0232(6) 0.8347(6) -0.3337(4)
H7 H -0.0792 0.8683 -0.3216
C13 C 0.1447(8) 0.7507(7) -0.3140(5)
C14 C 0.0778(7) 0.7957(6) -0.2615(5)
C15 C -0.0182(6) 0.8113(6) -0.4231(6)
O10 O 0.3225(4) 0.6861(4) -0.1987(4)
C16 C 0.2585(7) 0.6984(7) -0.2889(6)
C17 C -0.2166(8) 0.8173(7) -0.7016(6)
H8 H -0.2393 0.7793 -0.7647
N6 N -0.2404(8) 0.9639(7) -0.6019(6)
C18 C -0.2613(10) 0.9044(8) -0.6924(6)
H9 H -0.3115 0.9283 -0.7520
C19 C -0.1645(8) 0.9307(6) -0.5187(6)
H10 H -0.1477 0.9685 -0.4566
O11 O -0.0326(5) 0.4155(4) -0.1113(4)
O12 O 0.5574(6) 1.0904(5) 0.1087(4)
C20 C 0.0787(7) 0.7947(6) -0.1575(6)
O13 O -0.1205(6) 0.8613(4) 0.0405(5)
O14 O -0.2017(5) 0.6522(5) -0.0165(5)
C21 C -0.2508(6) 0.8158(6) 0.0232(5)
C22 C -0.2920(6) 0.6943(6) -0.0127(5)
C23 C 0.4968(7) 1.0007(6) 0.0555(5)
O15 O -0.3370(5) 0.8518(4) 0.0343(4)
O16 O -0.4226(6) 0.6493(5) -0.0376(5)
C24 C -0.0097(8) 0.5025(7) -0.0556(5)
O17 O 0.0795(6) 0.5656(5) 0.4443(5)
H11 H 0.1083 0.5094 0.4403
H12 H 0.0062 0.5604 0.3923
O18 O 0.3537(6) 0.8749(6) 0.5687(5)
H13 H 0.4326 0.9055 0.5672
H14 H 0.3278 0.9217 0.5983
O19 O 0.1703(5) 0.9458(5) 0.0613(4)
H15 H 0.2280 0.9673 0.1221
H16 H 0.1612 1.0012 0.0314
O20 O 0.3056(6) 0.5551(5) -0.0424(4)
H17 H 0.2586 0.5131 -0.0151
H18 H 0.3109 0.5180 -0.0918
C23A C 0.5032(7) 0.9993(6) -0.0555(5)
O7A O 0.5544(5) 1.0840(4) -0.0817(4)
O12A O 0.4426(6) 0.9096(5) -0.1087(4)
C24A C 0.0097(8) 0.4975(7) 0.0556(5)
O9A O 0.0001(5) 0.4047(4) 0.0842(4)
O11A O 0.0326(5) 0.5845(4) 0.1113(4)
Eu1A Eu -0.04207(4) 0.24865(3) -0.03259(3)
Eu2_2 Eu -0.58878(4) 0.74951(3) -0.02499(3)
Co1_2 Co 0.21597(11) 0.72575(10) -0.49725(8)
O13_2 O 0.8795(6) 0.8613(4) 0.0405(5)
O14_2 O 0.7983(5) 0.6522(5) -0.0165(5)
C21_2 C 0.7492(6) 0.8158(6) 0.0232(5)
C22_2 C 0.7080(6) 0.6943(6) -0.0127(5)
O15_2 O 0.6630(5) 0.8518(4) 0.0343(4)
O16_2 O 0.5774(6) 0.6493(5) -0.0376(5)
O5_2 O 0.2910(5) 0.6649(5) 0.6408(4)
N3_2 N 0.0856(6) 0.7633(5) 0.5821(4)
O6_2 O 0.1840(4) 0.7824(4) 0.9126(3)
O8_2 O -0.0251(5) 0.8132(5) 0.8595(4)
C11_2 C -0.1079(7) 0.8415(6) 0.4807(6)
C12_2 C -0.1352(8) 0.7846(9) 0.3855(7)
H6_2 H -0.0984 0.7256 0.3818
N5_2 N -0.0232(6) 0.8347(6) 0.6663(4)
H7_2 H -0.0792 0.8683 0.6784
C13_2 C 0.1447(8) 0.7507(7) 0.6860(5)
C14_2 C 0.0778(7) 0.7957(6) 0.7385(5)
C15_2 C -0.0182(6) 0.8113(6) 0.5769(6)
O10_2 O 0.3225(4) 0.6861(4) 0.8013(4)
C16_2 C 0.2585(7) 0.6984(7) 0.7111(6)
C17_2 C -0.2166(8) 0.8173(7) 0.2984(6)
H8_2 H -0.2393 0.7793 0.2353
N6_2 N -0.2404(8) 0.9639(7) 0.3981(6)
C18_2 C -0.2613(10) 0.9044(8) 0.3076(6)
H9_2 H -0.3115 0.9283 0.2480
C19_2 C -0.1645(8) 0.9307(6) 0.4813(6)
H10_2 H -0.1477 0.9685 0.5434
C20_2 C 0.0787(7) 0.7947(6) 0.8425(6)
C1A C -0.3738(7) 0.3030(6) -0.2694(5)
C2A C -0.3753(7) 0.2902(6) -0.1667(5)
C3A C -0.2972(7) 0.2809(7) -0.3225(5)
C4A C -0.1760(8) 0.2313(5) -0.2952(5)
C5A C -0.4694(6) 0.3312(6) -0.4261(6)
C6A C -0.5701(6) 0.3561(6) -0.5175(5)
N1A N -0.3534(6) 0.2974(5) -0.4209(4)
N2A N -0.4809(6) 0.3350(5) -0.3359(4)
H1A H -0.5460 0.3546 -0.3219
O1A O -0.1227(5) 0.2010(5) -0.2107(4)
O2A O -0.4815(5) 0.3043(5) -0.1474(3)
O3A O -0.2717(4) 0.2735(4) -0.0941(3)
O4A O -0.1372(5) 0.2127(5) -0.3684(4)
N4A N -0.7652(7) 0.4357(6) -0.5903(5)
C7A C -0.6750(9) 0.3504(8) -0.6989(6)
H2A H -0.6789 0.3317 -0.7641
C8A C -0.7692(9) 0.4068(7) -0.6822(8)
H3A H -0.8361 0.4239 -0.7379
C9A C -0.6668(8) 0.4133(8) -0.5120(6)
H4A H -0.6614 0.4377 -0.4477
C10A C -0.5781(10) 0.3245(9) -0.6156(7)
H5A H -0.5173 0.2857 -0.6244
O19A O -0.1703(5) 0.0542(5) -0.0613(4)
H15A H -0.2280 0.0327 -0.1221
H16A H -0.1612 -0.0012 -0.0314
O20_2 O -0.6944(6) 0.5551(5) -0.0424(4)
H17_2 H -0.7414 0.5131 -0.0151
H18_2 H -0.6891 0.5180 -0.0918
O17_2 O 0.0795(6) 0.5656(5) -0.5557(5)
H11_2 H 0.1083 0.5094 -0.5597
H12_2 H 0.0062 0.5604 -0.6077
O18_2 O 0.3537(6) 0.8749(6) -0.4313(5)
H13_2 H 0.4326 0.9055 -0.4328
H14_2 H 0.3278 0.9217 -0.4017
Eu2A Eu 0.58878(4) 1.25049(3) 0.02499(3)
O6A O -0.1840(4) 0.2176(4) 0.0874(3)
O8A O 0.0251(5) 0.1868(5) 0.1405(4)
O13A O 0.1205(6) 0.1387(4) -0.0405(5)
O14A O 0.2017(5) 0.3478(5) 0.0165(5)
O2_2 O -0.5185(5) 0.6957(5) 0.1474(3)
O7_2 O -0.5544(5) 0.9160(4) 0.0817(4)
O10_3 O -0.6775(4) 0.6861(4) -0.1987(4)
O12A_2 O -0.5574(6) 0.9096(5) -0.1087(4)
O6_3 O -0.8160(4) 0.7824(4) -0.0874(3)
O3_2 O -0.7283(4) 0.7265(4) 0.0941(3)
N1_2 N 0.3534(6) 0.7026(5) -0.5791(4)
O4_2 O 0.1372(5) 0.7873(5) -0.6316(4)
Eu1_2 Eu 1.04207(4) 0.75135(3) 0.03259(3)
Eu1_3 Eu 0.04207(4) 0.75135(3) 1.03259(3)
Eu2_3 Eu 0.41122(4) 0.74951(3) 0.97501(3)
Co1A Co -0.21597(11) 0.27425(10) -0.50275(8)
Eu2A_2 Eu -0.41122(4) 0.25049(3) 0.02499(3)
loop_
_geom_bond_atom_site_label_1
_geom_bond_atom_site_label_2
_geom_bond_site_symmetry_1
_geom_bond_site_symmetry_2
Eu1 O1 1_555 1_555
Eu2 O2 1_555 1_555
Co1 N1 1_555 1_555
C1 C2 1_555 1_555
C2 O2 1_555 1_555
C3 C1 1_555 1_555
C4 C3 1_555 1_555
C5 C6 1_555 1_555
C6 C9 1_555 1_555
N1 C3 1_555 1_555
N2 C1 1_555 1_555
H1 N2 1_555 1_555
O1 C4 1_555 1_555
O3 Eu1 1_555 1_555
O4 Co1 1_555 1_555
O5 C16 1_555 1_555
N3 C13 1_555 1_555
O6 Eu1 1_555 1_555
O7 Eu2 1_555 1_555
O8 Eu1 1_555 1_555
O9 Eu1 1_555 1_555
N4 C8 1_555 1_555
C7 H2 1_555 1_555
C8 C7 1_555 1_555
H3 C8 1_555 1_555
C9 N4 1_555 1_555
H4 C9 1_555 1_555
C10 C6 1_555 1_555
H5 C10 1_555 1_555
C11 C12 1_555 1_555
C12 H6 1_555 1_555
N5 H7 1_555 1_555
C13 C14 1_555 1_555
C14 N5 1_555 1_555
C15 N3 1_555 1_555
O10 Eu2 1_555 1_555
C16 C13 1_555 1_555
C17 C12 1_555 1_555
H8 C17 1_555 1_555
N6 C18 1_555 1_555
C18 C17 1_555 1_555
H9 C18 1_555 1_555
C19 C11 1_555 1_555
H10 C19 1_555 1_555
O11 C24 1_555 1_555
O12 C23 1_555 1_555
C20 O6 1_555 1_555
O13 Eu1 1_555 1_555
O14 Eu1 1_555 1_555
C21 O13 1_555 1_555
C22 O14 1_555 1_555
C23 O7 1_555 1_555
O15 C21 1_555 1_555
O16 C22 1_555 1_555
C24 O9 1_555 1_555
O17 Co1 1_555 1_555
H11 O17 1_555 1_555
H12 O17 1_555 1_555
O18 Co1 1_555 1_555
H13 O18 1_555 1_555
H14 O18 1_555 1_555
O19 Eu1 1_555 1_555
H15 O19 1_555 1_555
H16 O19 1_555 1_555
O20 Eu2 1_555 1_555
H17 O20 1_555 1_555
H18 O20 1_555 1_555
O21 H19 1_555 1_555
H20 O21 1_555 1_555
O22 H21 1_555 1_555
H22 O22 1_555 1_555
O23 H23 1_555 1_555
H24 O23 1_555 1_555
O24 H25 1_555 1_555
H26 O24 1_555 1_555
C23A C23 1_555 1_555
O7A C23A 1_555 1_555
O12A Eu2 1_555 1_555
C24A C24 1_555 1_555
O9A C24A 1_555 1_555
O11A Eu1 1_555 1_555
Eu1A O11 1_555 1_555
Eu2_2 O15 1_555 1_555
Co1_2 O5 1_555 1_555
O13_2 C21_2 1_555 1_555
O14_2 C22_2 1_555 1_555
C21_2 C22_2 1_555 1_555
C22_2 O16_2 1_555 1_555
O15_2 Eu2 1_555 1_555
O16_2 Eu2 1_555 1_555
O5_2 Co1 1_555 1_555
N3_2 Co1 1_555 1_555
O6_2 C20_2 1_555 1_555
O8_2 C20_2 1_555 1_555
C11_2 C12_2 1_555 1_555
C12_2 H6_2 1_555 1_555
N5_2 H7_2 1_555 1_555
C13_2 N3_2 1_555 1_555
C14_2 N5_2 1_555 1_555
C15_2 N3_2 1_555 1_555
O10_2 C16_2 1_555 1_555
C16_2 O5_2 1_555 1_555
C17_2 C12_2 1_555 1_555
H8_2 C17_2 1_555 1_555
N6_2 C18_2 1_555 1_555
C18_2 C17_2 1_555 1_555
H9_2 C18_2 1_555 1_555
C19_2 C11_2 1_555 1_555
H10_2 C19_2 1_555 1_555
C20_2 C14_2 1_555 1_555
C1A C2A 1_555 1_555
C2A O2A 1_555 1_555
C3A C1A 1_555 1_555
C4A C3A 1_555 1_555
C5A C6A 1_555 1_555
C6A C9A 1_555 1_555
N1A C3A 1_555 1_555
N2A C1A 1_555 1_555
H1A N2A 1_555 1_555
O1A Eu1A 1_555 1_555
O2A Eu2A_2 1_555 1_555
O3A Eu1A 1_555 1_555
O4A C4A 1_555 1_555
N4A C8A 1_555 1_555
C7A H2A 1_555 1_555
C8A C7A 1_555 1_555
H3A C8A 1_555 1_555
C9A N4A 1_555 1_555
H4A C9A 1_555 1_555
C10A C6A 1_555 1_555
H5A C10A 1_555 1_555
O19A Eu1A 1_555 1_555
H15A O19A 1_555 1_555
H16A O19A 1_555 1_555
O20_2 Eu2_2 1_555 1_555
H17_2 O20_2 1_555 1_555
H18_2 O20_2 1_555 1_555
O17_2 Co1_2 1_555 1_555
H11_2 O17_2 1_555 1_555
H12_2 O17_2 1_555 1_555
O18_2 Co1_2 1_555 1_555
H13_2 O18_2 1_555 1_555
H14_2 O18_2 1_555 1_555
Eu2A O12 1_555 1_555
O6A Eu1A 1_555 1_555
O8A Eu1A 1_555 1_555
O13A Eu1A 1_555 1_555
O14A Eu1A 1_555 1_555
O2_2 Eu2_2 1_555 1_555
O7_2 Eu2_2 1_555 1_555
O10_3 Eu2_2 1_555 1_555
O12A_2 Eu2_2 1_555 1_555
O6_3 Eu2_2 1_555 1_555
O3_2 Eu2_2 1_555 1_555
N1_2 Co1_2 1_555 1_555
O4_2 Co1_2 1_555 1_555
Eu1_2 O13_2 1_555 1_555
Eu1_3 O6_2 1_555 1_555
Eu2_3 O6_2 1_555 1_555
Co1A N1A 1_555 1_555
Eu2A_2 O3A 1_555 1_555
Eu2 O6 1_555 1_555
Eu2 O3 1_555 1_555
C2 O3 1_555 1_555
C4 O4 1_555 1_555
C5 N1 1_555 1_555
C5 N2 1_555 1_555
N3 Co1_2 1_555 1_555
O8 C20 1_555 1_555
C7 C10 1_555 1_555
C11 C15 1_555 1_555
N5 C15 1_555 1_555
C14 C20 1_555 1_555
O10 C16 1_555 1_555
N6 C19 1_555 1_555
C21 C22 1_555 1_555
O16 Eu2_2 1_555 1_555
C23A O12A 1_555 1_555
O7A Eu2A 1_555 1_555
C24A O11A 1_555 1_555
O9A Eu1A 1_555 1_555
O14_2 Eu1_2 1_555 1_555
C21_2 O15_2 1_555 1_555
O8_2 Eu1_3 1_555 1_555
C11_2 C15_2 1_555 1_555
N5_2 C15_2 1_555 1_555
C13_2 C16_2 1_555 1_555
C13_2 C14_2 1_555 1_555
O10_2 Eu2_3 1_555 1_555
N6_2 C19_2 1_555 1_555
C2A O3A 1_555 1_555
C4A O1A 1_555 1_555
C5A N1A 1_555 1_555
C5A N2A 1_555 1_555
O4A Co1A 1_555 1_555
C7A C10A 1_555 1_555
O6A Eu2A_2 1_555 1_555

#END
