
#######################################################################
#
#                 Cambridge Crystallographic Data Centre
#                                CCDC 
#
#######################################################################
#
# If this CIF has been generated from an entry in the Cambridge 
# Structural Database, then it will include bibliographic, chemical, 
# crystal, experimental, refinement or atomic coordinate data resulting 
# from the CCDC's data processing and validation procedures.
#
#######################################################################

data_ZEBPON
_symmetry_cell_setting           monoclinic
_symmetry_space_group_name_H-M   'P 21/c'
_symmetry_Int_Tables_number      14
_space_group_name_Hall           '-P 2ybc'
loop_
_symmetry_equiv_pos_site_id
_symmetry_equiv_pos_as_xyz
1 x,y,z
2 -x,1/2+y,1/2-z
3 -x,-y,-z
4 x,1/2-y,1/2+z
_cell_length_a                   8.4073(4)
_cell_length_b                   23.5633(12)
_cell_length_c                   15.3911(6)
_cell_angle_alpha                90
_cell_angle_beta                 117.149(2)
_cell_angle_gamma                90
_cell_volume                     2713.1
loop_
_atom_site_label
_atom_site_type_symbol
_atom_site_fract_x
_atom_site_fract_y
_atom_site_fract_z
Gd1 Gd 0.99746(16) 0.75935(5) 0.34345(9)
Gd2 Gd 1.15675(16) 0.77668(5) 0.64857(9)
Ag1 Ag 0.9889(3) 1.01753(10) 0.72551(16)
Ag2 Ag 0.7648(4) 0.57134(11) 0.32151(17)
Ag3 Ag 0.6779(3) 0.93280(10) 0.27506(16)
O1 O 0.930(2) 0.8622(7) 0.3522(14)
O2 O 1.089(3) 0.7055(8) 0.5297(16)
O3 O 1.071(2) 0.6968(7) 0.7181(12)
O4 O 1.075(2) 0.8195(7) 0.4920(12)
O5 O 1.260(2) 0.8675(8) 0.6755(12)
O6 O 0.719(3) 0.7559(8) 0.1939(13)
O7 O 0.432(2) 0.7459(9) 0.3006(12)
N1 N 0.490(3) 0.4336(10) 0.3782(16)
C1 C 0.581(3) 0.7523(11) 0.2981(17)
O8 O 0.834(2) 0.7800(9) 0.5615(11)
H1 H 0.7799 0.7832 0.4997
H2 H 0.7514 0.7682 0.5741
C2 C 0.572(3) 0.7487(11) 0.1960(17)
O9 O 0.428(2) 0.7369(9) 0.1258(12)
O10 O 1.308(2) 0.7573(8) 0.4310(12)
H3 H 1.4153 0.7478 0.4458
H4 H 1.3094 0.7741 0.4801
O11 O 1.065(2) 0.6937(8) 0.2603(12)
H5 H 1.0500 0.6637 0.2267
O12 O 1.258(3) 0.9529(9) 0.7375(14)
O13 O 1.245(3) 0.6191(10) 0.7843(17)
N2 N 0.795(3) 0.9406(10) 0.4326(17)
C3 C 0.779(4) 0.9794(11) 0.493(2)
C4 C 0.942(3) 0.9081(10) 0.4936(17)
O14 O 0.927(3) 0.6671(9) 0.3874(14)
C5 C 0.994(4) 0.6638(10) 0.4794(19)
C6 C 1.011(4) 0.6103(10) 0.6288(19)
N3 N 0.941(3) 0.5566(9) 0.6354(14)
C7 C 0.499(4) 1.0233(12) 0.366(2)
H6 H 0.4928 0.9929 0.3255
C8 C 0.653(4) 1.0699(11) 0.523(2)
H7 H 0.7468 1.0737 0.5855
C9 C 0.643(4) 1.0246(11) 0.461(2)
N4 N 0.917(3) 0.9754(9) 0.5861(16)
C10 C 1.015(3) 0.9293(10) 0.5853(17)
C11 C 0.990(3) 0.8613(10) 0.4452(17)
C12 C 0.844(4) 0.5382(12) 0.541(2)
N5 N 0.849(3) 0.5739(10) 0.4726(14)
C13 C 0.957(4) 0.6187(10) 0.5297(19)
N6 N 0.370(3) 1.0641(10) 0.3288(17)
C14 C 0.509(4) 1.1096(12) 0.484(2)
H8 H 0.5030 1.1383 0.5238
C15 C 0.511(4) 0.3894(13) 0.438(2)
H9 H 0.4394 0.3572 0.4156
C16 C 0.641(4) 0.3933(13) 0.535(2)
H10 H 0.6540 0.3636 0.5775
C17 C 0.592(4) 0.4808(13) 0.414(2)
H11 H 0.5656 0.5123 0.3732
C18 C 0.383(4) 1.1067(12) 0.391(2)
H12 H 0.2986 1.1356 0.3675
O15 O 0.726(2) 0.7638(9) 0.3705(14)
C19 C 1.191(3) 0.9164(10) 0.6750(17)
C20 C 0.751(4) 0.4396(12) 0.570(2)
H13 H 0.8377 0.4407 0.6349
C21 C 0.733(4) 0.4852(12) 0.508(2)
C22 C 1.116(4) 0.6431(14) 0.719(3)
Gd1C Gd 0.99746(16) 0.74065(5) 0.84345(9)
Gd2C Gd 0.15675(16) 0.72332(5) 0.14857(9)
Gd2C_2 Gd 1.15675(16) 0.72332(5) 0.14857(9)
Ag1A Ag 1.0111(3) 0.51753(10) 0.77449(16)
Ag2A Ag 0.2352(4) 1.07134(11) 0.17849(17)
Ag3A Ag 0.3221(3) 0.43280(10) 0.22494(16)
O3C O 1.071(2) 0.8032(7) 0.2181(12)
O7C O 1.432(2) 0.7541(9) 0.8006(12)
N1A N 0.510(3) 0.9336(10) 0.1218(16)
O9C O 1.428(2) 0.7631(9) 0.6258(12)
O11C O 1.065(2) 0.8063(8) 0.7603(12)
H5C H 1.0500 0.8363 0.7267
N3A N 1.059(3) 1.0566(9) 0.8646(14)
N6A N 0.630(3) 0.5641(10) 0.1712(17)
loop_
_geom_bond_atom_site_label_1
_geom_bond_atom_site_label_2
_geom_bond_site_symmetry_1
_geom_bond_site_symmetry_2
Gd1 O1 1_555 1_555
Gd2 O2 1_555 1_555
Ag1 O12 1_555 1_555
Ag2 O14 1_555 1_555
Ag3 O1 1_555 1_555
O1 C11 1_555 1_555
O2 Gd1 1_555 1_555
O3 Gd2 1_555 1_555
O4 Gd1 1_555 1_555
O5 Gd2 1_555 1_555
O6 Gd1 1_555 1_555
O7 C1 1_555 1_555
N1 C15 1_555 1_555
C1 C2 1_555 1_555
O8 Gd2 1_555 1_555
H1 O8 1_555 1_555
H2 O8 1_555 1_555
C2 O6 1_555 1_555
O9 C2 1_555 1_555
O10 Gd1 1_555 1_555
H3 O10 1_555 1_555
H4 O10 1_555 1_555
O11 Gd1 1_555 1_555
H5 O11 1_555 1_555
O12 C19 1_555 1_555
O13 C22 1_555 1_555
N2 Ag3 1_555 1_555
C3 N2 1_555 1_555
C4 N2 1_555 1_555
O14 Gd1 1_555 1_555
C5 O2 1_555 1_555
C6 N3 1_555 1_555
N3 C12 1_555 1_555
C7 H6 1_555 1_555
C8 H7 1_555 1_555
C9 C3 1_555 1_555
N4 Ag1 1_555 1_555
C10 C4 1_555 1_555
C11 O4 1_555 1_555
C12 N5 1_555 1_555
N5 Ag2 1_555 1_555
C13 C5 1_555 1_555
N6 C7 1_555 1_555
C14 C8 1_555 1_555
H8 C14 1_555 1_555
C15 H9 1_555 1_555
C16 C15 1_555 1_555
H10 C16 1_555 1_555
C17 N1 1_555 1_555
H11 C17 1_555 1_555
C18 N6 1_555 1_555
H12 C18 1_555 1_555
O15 Gd1 1_555 1_555
C19 O5 1_555 1_555
C20 C16 1_555 1_555
H13 C20 1_555 1_555
C21 C12 1_555 1_555
C22 O3 1_555 1_555
Gd1C O3 1_555 1_555
Gd2C O7 1_555 1_555
Gd2C_2 O11 1_555 1_555
Ag1A N3 1_555 1_555
Ag2A N6 1_555 1_555
Ag3A N1 1_555 1_555
O3C Gd1 1_555 1_555
O7C Gd2 1_555 1_555
N1A Ag3 1_555 1_555
O9C Gd2 1_555 1_555
O11C Gd2 1_555 1_555
H5C O11C 1_555 1_555
N3A Ag1 1_555 1_555
N6A Ag2 1_555 1_555
Gd2 O4 1_555 1_555
C1 O15 1_555 1_555
O9 Gd2C 1_555 1_555
C3 N4 1_555 1_555
C4 C11 1_555 1_555
O14 C5 1_555 1_555
C6 C13 1_555 1_555
C6 C22 1_555 1_555
C7 C9 1_555 1_555
C8 C9 1_555 1_555
N4 C10 1_555 1_555
C10 C19 1_555 1_555
N5 C13 1_555 1_555
C14 C18 1_555 1_555
C17 C21 1_555 1_555
C20 C21 1_555 1_555
Gd1C O11C 1_555 1_555
Gd2C_2 O3C 1_555 1_555

#END
