
#######################################################################
#
#                 Cambridge Crystallographic Data Centre
#                                CCDC 
#
#######################################################################
#
# If this CIF has been generated from an entry in the Cambridge 
# Structural Database, then it will include bibliographic, chemical, 
# crystal, experimental, refinement or atomic coordinate data resulting 
# from the CCDC's data processing and validation procedures.
#
#######################################################################

data_ZEBPUT
_symmetry_cell_setting           monoclinic
_symmetry_space_group_name_H-M   'P 21/c'
_symmetry_Int_Tables_number      14
_space_group_name_Hall           '-P 2ybc'
loop_
_symmetry_equiv_pos_site_id
_symmetry_equiv_pos_as_xyz
1 x,y,z
2 -x,1/2+y,1/2-z
3 -x,-y,-z
4 x,1/2-y,1/2+z
_cell_length_a                   8.367(2)
_cell_length_b                   23.540(12)
_cell_length_c                   15.388(10)
_cell_angle_alpha                90
_cell_angle_beta                 117.11(5)
_cell_angle_gamma                90
_cell_volume                     2697.82
loop_
_atom_site_label
_atom_site_type_symbol
_atom_site_fract_x
_atom_site_fract_y
_atom_site_fract_z
Tb1 Tb 0.65526(5) -0.276330(16) 0.14886(3)
Tb2 Tb 0.49570(5) -0.259350(16) -0.15728(3)
Ag1 Ag 0.26713(10) -0.07179(3) -0.17727(5)
Ag2 Ag 0.48837(9) -0.51733(3) 0.22471(5)
Ag3 Ag 0.17615(10) -0.43229(3) -0.22494(5)
O1 O 0.4291(7) -0.3604(2) -0.1487(4)
O2 O 0.3319(7) -0.2787(2) 0.0610(4)
H1 H 0.2851 -0.2765 -0.0009
H2 H 0.2701 -0.2580 0.0796
O3 O 0.5740(6) -0.3175(2) -0.0083(4)
O4 O 0.7581(7) -0.3669(2) 0.1746(4)
O5 O 0.7585(7) -0.4520(3) 0.2371(4)
O6 O 0.4364(8) -0.1656(2) -0.1096(4)
O7 O 0.5976(7) -0.2059(2) 0.0312(4)
O8 O 0.5744(7) -0.1963(2) 0.2207(4)
O9 O 0.7434(9) -0.1188(3) 0.2836(5)
O10 O 0.2251(7) -0.2633(3) -0.1317(4)
O11 O -0.0711(6) -0.2450(2) -0.2009(4)
O12 O 0.2170(6) -0.2565(3) -0.3066(4)
O13 O -0.0746(6) -0.2364(2) -0.3739(4)
O14 O 0.5633(6) -0.1942(2) -0.2426(4)
H3 H 0.5513 -0.1613 -0.2242
N1 N 0.2922(8) -0.4404(3) -0.0672(4)
N2 N 0.4157(8) -0.4759(2) 0.0852(4)
N3 N -0.1255(8) -0.5634(3) -0.1692(5)
N4 N 0.4407(8) -0.0562(3) 0.1356(5)
N5 N 0.3571(9) -0.0735(3) -0.0228(5)
N6 N -0.0023(9) 0.0658(3) -0.1205(5)
C1 C 0.4834(9) -0.3601(3) -0.0574(6)
C2 C 0.4377(9) -0.4073(3) -0.0105(5)
C3 C 0.5120(9) -0.4291(3) 0.0833(5)
C4 C 0.6895(10) -0.4149(3) 0.1739(6)
C5 C 0.2806(10) -0.4802(3) -0.0082(6)
C6 C 0.1428(10) -0.5245(3) -0.0400(6)
C7 C 0.1472(11) -0.5695(3) 0.0190(6)
H4 H 0.2397 -0.5724 0.0823
C8 C 0.0111(11) -0.6109(4) -0.0174(7)
H5 H 0.0110 -0.6409 0.0218
C9 C -0.1192(11) -0.6062(3) -0.1099(7)
H6 H -0.2086 -0.6338 -0.1338
C10 C -0.0002(10) -0.5224(3) -0.1327(6)
H7 H -0.0103 -0.4911 -0.1717
C11 C 0.4989(11) -0.1656(3) -0.0185(7)
C12 C 0.4557(10) -0.1192(3) 0.0301(6)
C13 C 0.5049(10) -0.1084(3) 0.1275(5)
C14 C 0.6141(12) -0.1431(4) 0.2167(6)
C15 C 0.3469(10) -0.0369(3) 0.0409(6)
C16 C 0.2376(10) 0.0151(4) 0.0111(6)
C17 C 0.2546(11) 0.0598(4) 0.0724(6)
H8 H 0.3406 0.0584 0.1375
C18 C 0.1463(13) 0.1060(4) 0.0382(7)
H9 H 0.1580 0.1360 0.0800
C19 C 0.0176(11) 0.1086(4) -0.0595(7)
H10 H -0.0552 0.1406 -0.0824
C20 C 0.0993(11) 0.0197(4) -0.0853(6)
H11 H 0.0777 -0.0112 -0.1267
C21 C 0.0752(9) -0.2520(3) -0.2024(5)
C22 C 0.0739(9) -0.2476(3) -0.3024(5)
O15 O 0.8095(7) -0.2561(2) -0.0682(4)
H12 H 0.8678 -0.2462 -0.0989
H13 H 0.8900 -0.2647 -0.0112
Tb1C Tb 0.65526(5) -0.223670(16) -0.35114(3)
Tb1C_2 Tb -0.34474(5) -0.223670(16) -0.35114(3)
Tb2C Tb 0.49570(5) -0.240650(16) 0.34272(3)
Ag1A Ag -0.26713(10) -0.57179(3) -0.32273(5)
Ag2A Ag 0.51163(9) -0.01733(3) 0.27529(5)
Ag3A Ag -0.17615(10) 0.06771(3) -0.27506(5)
O8C O 0.5744(7) -0.3037(2) -0.2793(4)
O11C O 0.9289(6) -0.2550(2) 0.2991(4)
O13C O 0.9254(6) -0.2636(2) 0.1261(4)
O14C O 0.5633(6) -0.3058(2) 0.2574(4)
H3C H 0.5513 -0.3387 0.2758
N3A N 0.1255(8) -0.0634(3) -0.3308(5)
N4A N 0.5593(8) -0.5562(3) 0.3644(5)
N6A N 0.0023(9) -0.4342(3) -0.3795(5)
loop_
_geom_bond_atom_site_label_1
_geom_bond_atom_site_label_2
_geom_bond_site_symmetry_1
_geom_bond_site_symmetry_2
Tb1 O2 1_555 1_555
Tb2 O1 1_555 1_555
Ag1 O6 1_555 1_555
Ag2 O5 1_555 1_555
Ag3 O1 1_555 1_555
O1 C1 1_555 1_555
O2 H1 1_555 1_555
H2 O2 1_555 1_555
O3 Tb1 1_555 1_555
O4 Tb1 1_555 1_555
O5 C4 1_555 1_555
O6 Tb2 1_555 1_555
O7 Tb1 1_555 1_555
O8 Tb1 1_555 1_555
O9 C14 1_555 1_555
O10 Tb2 1_555 1_555
O11 C21 1_555 1_555
O12 Tb2 1_555 1_555
O13 C22 1_555 1_555
O14 Tb2 1_555 1_555
H3 O14 1_555 1_555
N1 Ag3 1_555 1_555
N2 Ag2 1_555 1_555
N3 C9 1_555 1_555
N4 C13 1_555 1_555
N5 Ag1 1_555 1_555
N6 C19 1_555 1_555
C1 O3 1_555 1_555
C2 N1 1_555 1_555
C3 N2 1_555 1_555
C4 O4 1_555 1_555
C5 N1 1_555 1_555
C6 C5 1_555 1_555
C7 C6 1_555 1_555
H4 C7 1_555 1_555
C8 C7 1_555 1_555
H5 C8 1_555 1_555
C9 C8 1_555 1_555
H6 C9 1_555 1_555
C10 N3 1_555 1_555
H7 C10 1_555 1_555
C11 O6 1_555 1_555
C12 N5 1_555 1_555
C13 C12 1_555 1_555
C14 O8 1_555 1_555
C15 N4 1_555 1_555
C16 C15 1_555 1_555
C17 C16 1_555 1_555
H8 C17 1_555 1_555
C18 C17 1_555 1_555
H9 C18 1_555 1_555
C19 C18 1_555 1_555
H10 C19 1_555 1_555
C20 N6 1_555 1_555
H11 C20 1_555 1_555
C21 O10 1_555 1_555
C22 O12 1_555 1_555
O15 Tb2 1_555 1_555
H12 O15 1_555 1_555
H13 O15 1_555 1_555
Tb1C O14 1_555 1_555
Tb1C_2 O11 1_555 1_555
Tb2C O8 1_555 1_555
Ag1A N3 1_555 1_555
Ag2A N4 1_555 1_555
Ag3A N6 1_555 1_555
O8C Tb2 1_555 1_555
O11C Tb1 1_555 1_555
O13C Tb1 1_555 1_555
O14C Tb1 1_555 1_555
H3C O14C 1_555 1_555
N3A Ag1 1_555 1_555
N4A Ag2 1_555 1_555
N6A Ag3 1_555 1_555
Tb2 O3 1_555 1_555
Tb2 O7 1_555 1_555
O7 C11 1_555 1_555
O13 Tb1C_2 1_555 1_555
N2 C5 1_555 1_555
N5 C15 1_555 1_555
C1 C2 1_555 1_555
C2 C3 1_555 1_555
C3 C4 1_555 1_555
C6 C10 1_555 1_555
C11 C12 1_555 1_555
C13 C14 1_555 1_555
C16 C20 1_555 1_555
C21 C22 1_555 1_555
Tb1C O8C 1_555 1_555
Tb2C O14C 1_555 1_555

#END
