
#######################################################################
#
#                 Cambridge Crystallographic Data Centre
#                                CCDC 
#
#######################################################################
#
# If this CIF has been generated from an entry in the Cambridge 
# Structural Database, then it will include bibliographic, chemical, 
# crystal, experimental, refinement or atomic coordinate data resulting 
# from the CCDC's data processing and validation procedures.
#
#######################################################################

data_ZEBQEE
_symmetry_cell_setting           triclinic
_symmetry_space_group_name_H-M   'P -1'
_symmetry_Int_Tables_number      2
_space_group_name_Hall           '-P 1'
loop_
_symmetry_equiv_pos_site_id
_symmetry_equiv_pos_as_xyz
1 x,y,z
2 -x,-y,-z
_cell_length_a                   10.5283(16)
_cell_length_b                   12.771(2)
_cell_length_c                   14.211(2)
_cell_angle_alpha                91.875(2)
_cell_angle_beta                 110.438(2)
_cell_angle_gamma                103.068(2)
_cell_volume                     1731.01
loop_
_atom_site_label
_atom_site_type_symbol
_atom_site_fract_x
_atom_site_fract_y
_atom_site_fract_z
O21 O 0.6149(10) 0.5263(8) 0.2581(7)
H19 H 0.5311 0.5303 0.2307
H20 H 0.6151 0.4743 0.2944
O22 O 0.8925(10) 0.5614(10) 0.2460(7)
H21 H 0.9375 0.5683 0.2060
H22 H 0.8476 0.6095 0.2382
O23 O 0.8464(10) 0.9736(7) 0.7362(7)
H23 H 0.8720 1.0419 0.7437
H24 H 0.8971 0.9514 0.7892
O24 O 0.5803(12) 0.8855(12) 0.7541(9)
H25 H 0.5220 0.8833 0.7837
H26 H 0.5378 0.8514 0.6957
Eu1 Eu 0.04284(5) 0.75177(4) 0.03176(4)
Eu2 Eu 0.41221(5) 0.74924(4) -0.02405(4)
Fe1 Fe 0.21670(16) 0.72414(13) 0.50315(10)
C1 C 0.3762(8) 0.6981(7) 0.2687(6)
C2 C 0.3718(11) 0.7039(8) 0.1674(8)
C3 C 0.2988(10) 0.7239(8) 0.3247(7)
C4 C 0.1808(10) 0.7729(7) 0.2956(7)
C5 C 0.4706(9) 0.6696(9) 0.4238(8)
C6 C 0.5741(9) 0.6418(8) 0.5185(8)
N1 N 0.3612(9) 0.7052(8) 0.4223(6)
N2 N 0.4830(8) 0.6654(7) 0.3363(6)
H1 H 0.5481 0.6451 0.3231
O1 O 0.1233(7) 0.7957(6) 0.2072(5)
O2 O 0.4820(6) 0.6961(6) 0.1481(5)
O3 O 0.2771(9) 0.7267(5) 0.0956(5)
O4 O 0.1389(7) 0.7891(6) 0.3661(5)
O5 O 0.2837(7) 0.6594(6) -0.3589(5)
N3 N 0.0836(9) 0.7621(7) -0.4167(6)
O6 O 0.1814(9) 0.7816(6) -0.0864(5)
O7 O 0.4497(7) 0.9189(5) 0.0797(5)
O8 O -0.0256(6) 0.8139(6) -0.1399(5)
O9 O 0.0001(8) 0.5924(6) -0.0834(5)
N4 N 0.7720(8) 0.5635(7) 0.5917(6)
C7 C 0.6757(12) 0.6451(10) 0.6930(10)
H2 H 0.6802 0.6635 0.7582
C8 C 0.7651(11) 0.5906(8) 0.6829(8)
H3 H 0.8253 0.5703 0.7404
C9 C 0.6751(10) 0.5906(9) 0.5129(8)
H4 H 0.6755 0.5736 0.4489
C10 C 0.5780(11) 0.6756(9) 0.6148(8)
H5 H 0.5189 0.7156 0.6243
C11 C -0.1104(12) 0.8461(10) -0.5196(8)
C12 C -0.1331(11) 0.7880(10) -0.6147(8)
H6 H -0.0950 0.7298 -0.6189
N5 N -0.0252(8) 0.8336(7) -0.3353(6)
H7 H -0.0850 0.8635 -0.3243
C13 C 0.1430(9) 0.7540(9) -0.3164(7)
C14 C 0.0771(8) 0.7958(8) -0.2628(7)
C15 C -0.0139(11) 0.8153(8) -0.4238(7)
O10 O 0.3191(7) 0.6871(6) -0.1950(6)
C16 C 0.2578(11) 0.6975(8) -0.2851(8)
C17 C -0.2165(13) 0.8249(10) -0.7004(9)
H8 H -0.2395 0.7894 -0.7646
N6 N -0.2414(11) 0.9652(9) -0.6009(8)
C18 C -0.2634(14) 0.9130(10) -0.6888(9)
H9 H -0.3147 0.9384 -0.7469
C19 C -0.1661(13) 0.9327(10) -0.5197(8)
H10 H -0.1489 0.9706 -0.4577
O11 O -0.0331(8) 0.4143(5) -0.1096(5)
O12 O 0.5547(7) 1.0909(5) 0.1099(5)
C20 C 0.0817(11) 0.8030(7) -0.1596(7)
O13 O -0.1197(6) 0.8611(6) 0.0379(5)
O14 O -0.2003(7) 0.6545(6) -0.0201(5)
C21 C -0.2426(10) 0.8119(8) 0.0277(8)
C22 C -0.2931(10) 0.6955(9) -0.0133(8)
C23 C 0.4975(9) 1.0005(7) 0.0551(7)
O15 O -0.3369(7) 0.8527(6) 0.0356(5)
O16 O -0.4228(7) 0.6503(6) -0.0357(6)
C24 C -0.0129(11) 0.5014(8) -0.0562(8)
O17 O 0.0776(7) 0.5650(6) 0.4419(5)
H11 H 0.1063 0.5088 0.4379
H12 H 0.0042 0.5598 0.3899
O18 O 0.3530(8) 0.8747(7) 0.5727(6)
H13 H 0.4319 0.9052 0.5712
H14 H 0.3271 0.9214 0.6023
O19 O 0.1686(7) 0.9435(6) 0.0605(5)
H15 H 0.2263 0.9650 0.1213
H16 H 0.1595 0.9990 0.0306
O20 O 0.3086(9) 0.5547(7) -0.0426(6)
H17 H 0.2615 0.5127 -0.0153
H18 H 0.3139 0.5176 -0.0920
C23A C 0.5025(9) 0.9995(7) -0.0551(7)
O7A O 0.5503(7) 1.0811(5) -0.0797(5)
O12A O 0.4453(7) 0.9091(5) -0.1099(5)
C24A C 0.0129(11) 0.4986(8) 0.0562(8)
O9A O -0.0001(8) 0.4076(6) 0.0834(5)
O11A O 0.0331(8) 0.5857(5) 0.1096(5)
Eu1A Eu -0.04284(5) 0.24823(4) -0.03176(4)
Eu2_2 Eu -0.58779(5) 0.74924(4) -0.02405(4)
Fe1_2 Fe 0.21670(16) 0.72414(13) -0.49685(10)
O13_2 O 0.8803(6) 0.8611(6) 0.0379(5)
O14_2 O 0.7997(7) 0.6545(6) -0.0201(5)
C21_2 C 0.7574(10) 0.8119(8) 0.0277(8)
C22_2 C 0.7069(10) 0.6955(9) -0.0133(8)
O15_2 O 0.6631(7) 0.8527(6) 0.0356(5)
O16_2 O 0.5772(7) 0.6503(6) -0.0357(6)
O5_2 O 0.2837(7) 0.6594(6) 0.6411(5)
N3_2 N 0.0836(9) 0.7621(7) 0.5833(6)
O6_2 O 0.1814(9) 0.7816(6) 0.9136(5)
O8_2 O -0.0256(6) 0.8139(6) 0.8601(5)
C11_2 C -0.1104(12) 0.8461(10) 0.4804(8)
C12_2 C -0.1331(11) 0.7880(10) 0.3853(8)
H6_2 H -0.0950 0.7298 0.3811
N5_2 N -0.0252(8) 0.8336(7) 0.6647(6)
H7_2 H -0.0850 0.8635 0.6757
C13_2 C 0.1430(9) 0.7540(9) 0.6836(7)
C14_2 C 0.0771(8) 0.7958(8) 0.7372(7)
C15_2 C -0.0139(11) 0.8153(8) 0.5762(7)
O10_2 O 0.3191(7) 0.6871(6) 0.8050(6)
C16_2 C 0.2578(11) 0.6975(8) 0.7149(8)
C17_2 C -0.2165(13) 0.8249(10) 0.2996(9)
H8_2 H -0.2395 0.7894 0.2354
N6_2 N -0.2414(11) 0.9652(9) 0.3991(8)
C18_2 C -0.2634(14) 0.9130(10) 0.3112(9)
H9_2 H -0.3147 0.9384 0.2531
C19_2 C -0.1661(13) 0.9327(10) 0.4803(8)
H10_2 H -0.1489 0.9706 0.5423
C20_2 C 0.0817(11) 0.8030(7) 0.8404(7)
C1A C -0.3762(8) 0.3019(7) -0.2687(6)
C2A C -0.3718(11) 0.2961(8) -0.1674(8)
C3A C -0.2988(10) 0.2761(8) -0.3247(7)
C4A C -0.1808(10) 0.2271(7) -0.2956(7)
C5A C -0.4706(9) 0.3304(9) -0.4238(8)
C6A C -0.5741(9) 0.3582(8) -0.5185(8)
N1A N -0.3612(9) 0.2948(8) -0.4223(6)
N2A N -0.4830(8) 0.3346(7) -0.3363(6)
H1A H -0.5481 0.3549 -0.3231
O1A O -0.1233(7) 0.2043(6) -0.2072(5)
O2A O -0.4820(6) 0.3039(6) -0.1481(5)
O3A O -0.2771(9) 0.2733(5) -0.0956(5)
O4A O -0.1389(7) 0.2109(6) -0.3661(5)
N4A N -0.7720(8) 0.4365(7) -0.5917(6)
C7A C -0.6757(12) 0.3549(10) -0.6930(10)
H2A H -0.6802 0.3365 -0.7582
C8A C -0.7651(11) 0.4094(8) -0.6829(8)
H3A H -0.8253 0.4297 -0.7404
C9A C -0.6751(10) 0.4094(9) -0.5129(8)
H4A H -0.6755 0.4264 -0.4489
C10A C -0.5780(11) 0.3244(9) -0.6148(8)
H5A H -0.5189 0.2844 -0.6243
O19A O -0.1686(7) 0.0565(6) -0.0605(5)
H15A H -0.2263 0.0350 -0.1213
H16A H -0.1595 0.0010 -0.0306
O20_2 O -0.6914(9) 0.5547(7) -0.0426(6)
H17_2 H -0.7385 0.5127 -0.0153
H18_2 H -0.6861 0.5176 -0.0920
O17_2 O 0.0776(7) 0.5650(6) -0.5581(5)
H11_2 H 0.1063 0.5088 -0.5621
H12_2 H 0.0042 0.5598 -0.6101
O18_2 O 0.3530(8) 0.8747(7) -0.4273(6)
H13_2 H 0.4319 0.9052 -0.4288
H14_2 H 0.3271 0.9214 -0.3977
Eu2A Eu 0.58779(5) 1.25076(4) 0.02405(4)
O6A O -0.1814(9) 0.2184(6) 0.0864(5)
O8A O 0.0256(6) 0.1861(6) 0.1399(5)
O13A O 0.1197(6) 0.1389(6) -0.0379(5)
O14A O 0.2003(7) 0.3455(6) 0.0201(5)
O2_2 O -0.5180(6) 0.6961(6) 0.1481(5)
O7_2 O -0.5503(7) 0.9189(5) 0.0797(5)
O10_3 O -0.6809(7) 0.6871(6) -0.1950(6)
O12A_2 O -0.5547(7) 0.9091(5) -0.1099(5)
O6_3 O -0.8186(9) 0.7816(6) -0.0864(5)
O3_2 O -0.7229(9) 0.7267(5) 0.0956(5)
N1_2 N 0.3612(9) 0.7052(8) -0.5777(6)
O4_2 O 0.1389(7) 0.7891(6) -0.6339(5)
Eu1_2 Eu 1.04284(5) 0.75177(4) 0.03176(4)
Eu1_3 Eu 0.04284(5) 0.75177(4) 1.03176(4)
Eu2_3 Eu 0.41221(5) 0.74924(4) 0.97595(4)
Fe1A Fe -0.21670(16) 0.27586(13) -0.50315(10)
Eu2A_2 Eu -0.41221(5) 0.25076(4) 0.02405(4)
loop_
_geom_bond_atom_site_label_1
_geom_bond_atom_site_label_2
_geom_bond_site_symmetry_1
_geom_bond_site_symmetry_2
Eu1 O1 1_555 1_555
Eu2 O2 1_555 1_555
Fe1 N1 1_555 1_555
C1 C2 1_555 1_555
C2 O2 1_555 1_555
C3 C1 1_555 1_555
C4 C3 1_555 1_555
C5 C6 1_555 1_555
C6 C9 1_555 1_555
N1 C3 1_555 1_555
N2 C1 1_555 1_555
H1 N2 1_555 1_555
O1 C4 1_555 1_555
O3 Eu1 1_555 1_555
O4 Fe1 1_555 1_555
O5 C16 1_555 1_555
N3 C13 1_555 1_555
O6 Eu1 1_555 1_555
O7 Eu2 1_555 1_555
O8 Eu1 1_555 1_555
O9 Eu1 1_555 1_555
N4 C8 1_555 1_555
C7 H2 1_555 1_555
C8 C7 1_555 1_555
H3 C8 1_555 1_555
C9 N4 1_555 1_555
H4 C9 1_555 1_555
C10 C6 1_555 1_555
H5 C10 1_555 1_555
C11 C12 1_555 1_555
C12 H6 1_555 1_555
N5 H7 1_555 1_555
C13 C14 1_555 1_555
C14 N5 1_555 1_555
C15 N3 1_555 1_555
O10 Eu2 1_555 1_555
C16 C13 1_555 1_555
C17 C12 1_555 1_555
H8 C17 1_555 1_555
N6 C18 1_555 1_555
C18 C17 1_555 1_555
H9 C18 1_555 1_555
C19 C11 1_555 1_555
H10 C19 1_555 1_555
O11 C24 1_555 1_555
O12 C23 1_555 1_555
C20 O6 1_555 1_555
O13 Eu1 1_555 1_555
O14 Eu1 1_555 1_555
C21 O13 1_555 1_555
C22 O14 1_555 1_555
C23 O7 1_555 1_555
O15 C21 1_555 1_555
O16 C22 1_555 1_555
C24 O9 1_555 1_555
O17 Fe1 1_555 1_555
H11 O17 1_555 1_555
H12 O17 1_555 1_555
O18 Fe1 1_555 1_555
H13 O18 1_555 1_555
H14 O18 1_555 1_555
O19 Eu1 1_555 1_555
H15 O19 1_555 1_555
H16 O19 1_555 1_555
O20 Eu2 1_555 1_555
H17 O20 1_555 1_555
H18 O20 1_555 1_555
O21 H19 1_555 1_555
H20 O21 1_555 1_555
O22 H21 1_555 1_555
H22 O22 1_555 1_555
O23 H23 1_555 1_555
H24 O23 1_555 1_555
O24 H25 1_555 1_555
H26 O24 1_555 1_555
C23A C23 1_555 1_555
O7A C23A 1_555 1_555
O12A Eu2 1_555 1_555
C24A C24 1_555 1_555
O9A C24A 1_555 1_555
O11A Eu1 1_555 1_555
Eu1A O11 1_555 1_555
Eu2_2 O15 1_555 1_555
Fe1_2 O5 1_555 1_555
O13_2 C21_2 1_555 1_555
O14_2 C22_2 1_555 1_555
C21_2 C22_2 1_555 1_555
C22_2 O16_2 1_555 1_555
O15_2 Eu2 1_555 1_555
O16_2 Eu2 1_555 1_555
O5_2 Fe1 1_555 1_555
N3_2 Fe1 1_555 1_555
O6_2 C20_2 1_555 1_555
O8_2 C20_2 1_555 1_555
C11_2 C12_2 1_555 1_555
C12_2 H6_2 1_555 1_555
N5_2 H7_2 1_555 1_555
C13_2 N3_2 1_555 1_555
C14_2 N5_2 1_555 1_555
C15_2 N3_2 1_555 1_555
O10_2 C16_2 1_555 1_555
C16_2 O5_2 1_555 1_555
C17_2 C12_2 1_555 1_555
H8_2 C17_2 1_555 1_555
N6_2 C18_2 1_555 1_555
C18_2 C17_2 1_555 1_555
H9_2 C18_2 1_555 1_555
C19_2 C11_2 1_555 1_555
H10_2 C19_2 1_555 1_555
C20_2 C14_2 1_555 1_555
C1A C2A 1_555 1_555
C2A O2A 1_555 1_555
C3A C1A 1_555 1_555
C4A C3A 1_555 1_555
C5A C6A 1_555 1_555
C6A C9A 1_555 1_555
N1A C3A 1_555 1_555
N2A C1A 1_555 1_555
H1A N2A 1_555 1_555
O1A Eu1A 1_555 1_555
O2A Eu2A_2 1_555 1_555
O3A Eu1A 1_555 1_555
O4A C4A 1_555 1_555
N4A C8A 1_555 1_555
C7A H2A 1_555 1_555
C8A C7A 1_555 1_555
H3A C8A 1_555 1_555
C9A N4A 1_555 1_555
H4A C9A 1_555 1_555
C10A C6A 1_555 1_555
H5A C10A 1_555 1_555
O19A Eu1A 1_555 1_555
H15A O19A 1_555 1_555
H16A O19A 1_555 1_555
O20_2 Eu2_2 1_555 1_555
H17_2 O20_2 1_555 1_555
H18_2 O20_2 1_555 1_555
O17_2 Fe1_2 1_555 1_555
H11_2 O17_2 1_555 1_555
H12_2 O17_2 1_555 1_555
O18_2 Fe1_2 1_555 1_555
H13_2 O18_2 1_555 1_555
H14_2 O18_2 1_555 1_555
Eu2A O12 1_555 1_555
O6A Eu1A 1_555 1_555
O8A Eu1A 1_555 1_555
O13A Eu1A 1_555 1_555
O14A Eu1A 1_555 1_555
O2_2 Eu2_2 1_555 1_555
O7_2 Eu2_2 1_555 1_555
O10_3 Eu2_2 1_555 1_555
O12A_2 Eu2_2 1_555 1_555
O6_3 Eu2_2 1_555 1_555
O3_2 Eu2_2 1_555 1_555
N1_2 Fe1_2 1_555 1_555
O4_2 Fe1_2 1_555 1_555
Eu1_2 O13_2 1_555 1_555
Eu1_3 O6_2 1_555 1_555
Eu2_3 O6_2 1_555 1_555
Fe1A N1A 1_555 1_555
Eu2A_2 O3A 1_555 1_555
Eu2 O6 1_555 1_555
Eu2 O3 1_555 1_555
C2 O3 1_555 1_555
C4 O4 1_555 1_555
C5 N1 1_555 1_555
C5 N2 1_555 1_555
N3 Fe1_2 1_555 1_555
O8 C20 1_555 1_555
C7 C10 1_555 1_555
C11 C15 1_555 1_555
N5 C15 1_555 1_555
C14 C20 1_555 1_555
O10 C16 1_555 1_555
N6 C19 1_555 1_555
C21 C22 1_555 1_555
O16 Eu2_2 1_555 1_555
C23A O12A 1_555 1_555
O7A Eu2A 1_555 1_555
C24A O11A 1_555 1_555
O9A Eu1A 1_555 1_555
O14_2 Eu1_2 1_555 1_555
C21_2 O15_2 1_555 1_555
O8_2 Eu1_3 1_555 1_555
C11_2 C15_2 1_555 1_555
N5_2 C15_2 1_555 1_555
C13_2 C16_2 1_555 1_555
C13_2 C14_2 1_555 1_555
O10_2 Eu2_3 1_555 1_555
N6_2 C19_2 1_555 1_555
C2A O3A 1_555 1_555
C4A O1A 1_555 1_555
C5A N1A 1_555 1_555
C5A N2A 1_555 1_555
O4A Fe1A 1_555 1_555
C7A C10A 1_555 1_555
O6A Eu2A_2 1_555 1_555

#END
