
#######################################################################
#
#                 Cambridge Crystallographic Data Centre
#                                CCDC 
#
#######################################################################
#
# If this CIF has been generated from an entry in the Cambridge 
# Structural Database, then it will include bibliographic, chemical, 
# crystal, experimental, refinement or atomic coordinate data resulting 
# from the CCDC's data processing and validation procedures.
#
#######################################################################

data_ZEBROP
_symmetry_cell_setting           orthorhombic
_symmetry_space_group_name_H-M   'P n n m'
_symmetry_Int_Tables_number      58
_space_group_name_Hall           '-P 2 2n'
loop_
_symmetry_equiv_pos_site_id
_symmetry_equiv_pos_as_xyz
1 x,y,z
2 -x,-y,z
3 1/2+x,1/2-y,1/2-z
4 1/2-x,1/2+y,1/2-z
5 -x,-y,-z
6 x,y,-z
7 1/2-x,1/2+y,1/2+z
8 1/2+x,1/2-y,1/2+z
_cell_length_a                   7.2570(3)
_cell_length_b                   25.9657(10)
_cell_length_c                   7.5506(3)
_cell_angle_alpha                90
_cell_angle_beta                 90
_cell_angle_gamma                90
_cell_volume                     1422.78
loop_
_atom_site_label
_atom_site_type_symbol
_atom_site_fract_x
_atom_site_fract_y
_atom_site_fract_z
Mn1 Mn -0.51636(14) 1.28175(4) 1.5000
O1 O -0.8443(5) 1.25846(14) 1.1860(4)
O2 O -0.6588(5) 1.31908(13) 1.2848(5)
O3 O -0.7230(8) 1.21891(19) 1.5000
N1 N -0.3217(8) 1.3512(2) 1.5000
N2 N 0.0357(10) 1.4786(3) 1.5000
C1 C -0.3883(11) 1.3983(3) 1.5000
H1 H -0.5157 1.4024 1.5000
C2 C -0.1397(11) 1.3460(3) 1.5000
H2 H -0.0898 1.3130 1.5000
C3 C -0.0205(11) 1.3880(4) 1.5000
H3 H 0.1064 1.3829 1.5000
C4 C -0.7969(11) 1.3323(3) 1.0000
H4 H -0.9299 1.3388 1.0000
C5 C -0.7603(6) 1.30075(17) 1.1689(6)
C6 C -0.0907(11) 1.4366(3) 1.5000
C7 C -0.2805(11) 1.4422(3) 1.5000
H5 H -0.3342 1.4748 1.5000
C8 C -0.7086(15) 1.3848(3) 1.0000
H6 H -0.7497 1.4036 0.8963
C9 C -0.495(3) 1.3830(7) 1.0000
H7 H -0.4539 1.3643 0.8962
C10 C -0.401(4) 1.4370(9) 1.0000
H8 H -0.4464 1.4553 0.8967
C11 C -0.183(4) 1.4383(11) 1.0000
H9 H -0.1478 1.4739 1.0000
H10 H -0.1347 1.4218 0.8962
H11 H -0.797(8) 1.227(3) 1.411(7)
Mn1_2 Mn -0.51636(14) 1.28175(4) 0.5000
Mn1B Mn -1.01636(14) 1.21825(4) 1.0000
Mn1A Mn 0.51636(14) 1.71825(4) 1.5000
Mn1B_2 Mn -0.01636(14) 1.21825(4) 1.0000
Mn1B_3 Mn -0.01636(14) 1.21825(4) 2.0000
O1E O -0.8443(5) 1.25846(14) 0.8140(4)
O1B O -0.3443(5) 1.24154(14) 1.3140(4)
O1G O -0.3443(5) 1.24154(14) 1.6860(4)
O1C O 0.3443(5) 1.75846(14) 1.3140(4)
O1F O 0.3443(5) 1.75846(14) 1.6860(4)
O2E O -0.6588(5) 1.31908(13) 0.7152(5)
O2B O -0.1588(5) 1.18092(13) 1.2152(5)
O2G O -0.1588(5) 1.18092(13) 1.7848(5)
O2E_2 O -0.6588(5) 1.31908(13) 1.7152(5)
O2A O 0.6588(5) 1.68092(13) 1.2848(5)
O2D O 0.6588(5) 1.68092(13) 1.7152(5)
O3A O 0.7230(8) 1.78109(19) 1.5000
N1A N 0.3217(8) 1.6488(2) 1.5000
N2A N -0.0357(10) 1.5214(3) 1.5000
C1A C 0.3883(11) 1.6017(3) 1.5000
H1A H 0.5157 1.5976 1.5000
C2A C 0.1397(11) 1.6540(3) 1.5000
H2A H 0.0898 1.6870 1.5000
C3A C 0.0205(11) 1.6120(4) 1.5000
H3A H -0.1064 1.6171 1.5000
C4B C -0.2969(11) 1.1677(3) 1.5000
H4B H -0.4299 1.1612 1.5000
C5E C -0.7603(6) 1.30075(17) 0.8311(6)
C5B C -0.2603(6) 1.19925(17) 1.3311(6)
C5G C -0.2603(6) 1.19925(17) 1.6689(6)
C6A C 0.0907(11) 1.5634(3) 1.5000
C7A C 0.2805(11) 1.5578(3) 1.5000
H5A H 0.3342 1.5252 1.5000
C8B C -0.2086(15) 1.1152(3) 1.5000
H6E H -0.7497 1.4036 1.1037
H6B H -0.2497 1.0964 1.6037
H6G H -0.2497 1.0964 1.3963
C9B C 0.005(3) 1.1170(7) 1.5000
H7E H -0.4539 1.3643 1.1038
H7B H 0.0461 1.1357 1.6038
H7G H 0.0461 1.1357 1.3962
C10B C 0.099(4) 1.0630(9) 1.5000
H8E H -0.4464 1.4553 1.1033
H8B H 0.0536 1.0447 1.6033
H8G H 0.0536 1.0447 1.3967
C11B C 0.317(4) 1.0617(11) 1.5000
H9B H 0.3522 1.0261 1.5000
H10E H -0.1347 1.4218 1.1038
H10B H 0.3653 1.0782 1.6038
H10G H 0.3653 1.0782 1.3962
H11E H -0.797(8) 1.227(3) 1.589(7)
H11A H 0.797(8) 1.773(3) 1.411(7)
H11D H 0.797(8) 1.773(3) 1.589(7)
loop_
_geom_bond_atom_site_label_1
_geom_bond_atom_site_label_2
_geom_bond_site_symmetry_1
_geom_bond_site_symmetry_2
Mn1 O2 1_555 1_555
O1 C5 1_555 1_555
O2 C5 1_555 1_555
O3 Mn1 1_555 1_555
N1 Mn1 1_555 1_555
N2 C6 1_555 1_555
C1 N1 1_555 1_555
H1 C1 1_555 1_555
C2 N1 1_555 1_555
H2 C2 1_555 1_555
C3 C2 1_555 1_555
H3 C3 1_555 1_555
C4 H4 1_555 1_555
C5 C4 1_555 1_555
C6 C3 1_555 1_555
C7 C1 1_555 1_555
H5 C7 1_555 1_555
C8 C4 1_555 1_555
H6 C8 1_555 1_555
C9 C8 1_555 1_555
H7 C9 1_555 1_555
C10 C9 1_555 1_555
H8 C10 1_555 1_555
C11 C10 1_555 1_555
H9 C11 1_555 1_555
H10 C11 1_555 1_555
H11 O3 1_555 1_555
Mn1_2 O2E 1_555 1_555
Mn1B O1 1_555 1_555
Mn1A O1C 1_555 1_555
Mn1B_2 O2B 1_555 1_555
Mn1B_3 O2G 1_555 1_555
O1E Mn1B 1_555 1_555
O1B Mn1 1_555 1_555
O1G Mn1 1_555 1_555
O1F Mn1A 1_555 1_555
O2E C5E 1_555 1_555
O2B C5B 1_555 1_555
O2G C5G 1_555 1_555
O2E_2 Mn1 1_555 1_555
O2A Mn1A 1_555 1_555
O2D Mn1A 1_555 1_555
O3A Mn1A 1_555 1_555
N1A Mn1A 1_555 1_555
N2A N2 1_555 1_555
C1A N1A 1_555 1_555
H1A C1A 1_555 1_555
C2A N1A 1_555 1_555
H2A C2A 1_555 1_555
C3A C2A 1_555 1_555
H3A C3A 1_555 1_555
C4B H4B 1_555 1_555
C5E C4 1_555 1_555
C5B O1B 1_555 1_555
C5G O1G 1_555 1_555
C6A N2A 1_555 1_555
C7A C1A 1_555 1_555
H5A C7A 1_555 1_555
C8B C4B 1_555 1_555
H6E C8 1_555 1_555
H6B C8B 1_555 1_555
H6G C8B 1_555 1_555
C9B C8B 1_555 1_555
H7E C9 1_555 1_555
H7B C9B 1_555 1_555
H7G C9B 1_555 1_555
C10B C9B 1_555 1_555
H8E C10 1_555 1_555
H8B C10B 1_555 1_555
H8G C10B 1_555 1_555
C11B C10B 1_555 1_555
H9B C11B 1_555 1_555
H10E C11 1_555 1_555
H10B C11B 1_555 1_555
H10G C11B 1_555 1_555
H11E O3 1_555 1_555
H11A O3A 1_555 1_555
H11D O3A 1_555 1_555
C6 C7 1_555 1_555
O1E C5E 1_555 1_555
C3A C6A 1_555 1_555
C4B C5B 1_555 1_555
C4B C5G 1_555 1_555
C6A C7A 1_555 1_555

#END
