
#######################################################################
#
#                 Cambridge Crystallographic Data Centre
#                                CCDC 
#
#######################################################################
#
# If this CIF has been generated from an entry in the Cambridge 
# Structural Database, then it will include bibliographic, chemical, 
# crystal, experimental, refinement or atomic coordinate data resulting 
# from the CCDC's data processing and validation procedures.
#
#######################################################################

data_ZEBREF
_symmetry_cell_setting           monoclinic
_symmetry_space_group_name_H-M   'P 21/n'
_symmetry_Int_Tables_number      14
_space_group_name_Hall           '-P 2yn'
loop_
_symmetry_equiv_pos_site_id
_symmetry_equiv_pos_as_xyz
1 x,y,z
2 1/2-x,1/2+y,1/2-z
3 -x,-y,-z
4 1/2+x,1/2-y,1/2+z
_cell_length_a                   7.300(3)
_cell_length_b                   20.927(10)
_cell_length_c                   7.5480(7)
_cell_angle_alpha                90
_cell_angle_beta                 91.396(16)
_cell_angle_gamma                90
_cell_volume                     1152.74
loop_
_atom_site_label
_atom_site_type_symbol
_atom_site_fract_x
_atom_site_fract_y
_atom_site_fract_z
Mn1 Mn 0.19843(7) 0.21364(3) 0.03328(6)
N1 N -0.0187(4) 0.13486(15) 0.0128(4)
O1 O 0.0375(3) 0.26631(12) 0.2231(3)
O2 O 0.0381(3) 0.26846(12) -0.1543(3)
O3 O -0.1849(3) 0.33398(12) -0.2382(3)
O4 O -0.1753(3) 0.33361(12) 0.3107(3)
O5 O 0.4247(3) 0.28493(13) 0.0347(3)
C1 C -0.0596(5) 0.31535(17) 0.2028(4)
C2 C -0.0315(5) 0.35642(17) 0.0362(4)
H1 H 0.0983 0.3684 0.0380
C3 C -0.0633(5) 0.31612(16) -0.1314(4)
C4 C -0.3012(5) 0.04752(19) -0.0246(6)
C5 C -0.1377(7) 0.4178(2) 0.0337(5)
H2 H -0.1118 0.4411 0.1410
H3 H -0.2664 0.4085 0.0248
H4 H -0.1028 0.4430 -0.0662
C6 C -0.2946(8) 0.0883(3) 0.1068(10)
H5 H -0.3867 0.0886 0.1897
C7 C -0.1669(9) 0.0503(3) -0.1431(8)
H6 H -0.1671 0.0229 -0.2401
C8 C -0.0292(8) 0.0944(3) -0.1179(8)
H7 H 0.0633 0.0954 -0.2004
C9 C -0.1515(9) 0.1309(3) 0.1220(10)
H8 H -0.1503 0.1587 0.2180
N2 N -0.4455(5) 0.00102(18) -0.0586(5)
H9 H 0.486(5) 0.271(2) 0.129(4)
H10 H 0.490(6) 0.271(2) -0.052(5)
Mn1B Mn -1.19843(7) -0.21364(3) -0.03328(6)
Mn1C Mn -0.30157(7) 0.28636(3) -0.46672(6)
Mn1C_2 Mn -0.30157(7) 0.28636(3) 0.53328(6)
Mn1C_3 Mn 0.69843(7) 0.28636(3) 0.53328(6)
Mn1_2 Mn 0.19843(7) 0.21364(3) 1.03328(6)
N1B N -0.9813(4) -0.13486(15) -0.0128(4)
O1C O 0.5375(3) 0.23369(12) 0.7231(3)
O1B O -1.0375(3) -0.26631(12) -0.2231(3)
O2C O 0.5381(3) 0.23154(12) 0.3457(3)
O2B O -1.0381(3) -0.26846(12) 0.1543(3)
O3C O 0.3151(3) 0.16602(12) 0.2618(3)
O3A O -1.3151(3) -0.16602(12) -0.2618(3)
O4C O 0.3247(3) 0.16639(12) 0.8107(3)
O4C_2 O 0.3247(3) 0.16639(12) -0.1893(3)
O4A O -1.3247(3) -0.16639(12) 0.1893(3)
O5B O -1.4247(3) -0.28493(13) -0.0347(3)
C1C C 0.4404(5) 0.18465(17) 0.7028(4)
C2C C 0.4685(5) 0.14358(17) 0.5362(4)
H1C H 0.5983 0.1316 0.5380
C3C C 0.4367(5) 0.18388(16) 0.3686(4)
C4B C -0.6988(5) -0.04752(19) 0.0246(6)
C5C C 0.3623(7) 0.0822(2) 0.5337(5)
H2C H 0.3882 0.0589 0.6410
H3C H 0.2336 0.0915 0.5248
H4C H 0.3972 0.0570 0.4338
C6B C -0.7054(8) -0.0883(3) -0.1068(10)
H5B H -0.6133 -0.0886 -0.1897
C7B C -0.8331(9) -0.0503(3) 0.1431(8)
H6B H -0.8329 -0.0229 0.2401
C8B C -0.9708(8) -0.0944(3) 0.1179(8)
H7B H -1.0633 -0.0954 0.2004
C9B C -0.8485(9) -0.1309(3) -0.1220(10)
H8B H -0.8497 -0.1587 -0.2180
N2B N -0.5545(5) -0.00102(18) 0.0586(5)
H9B H -1.486(5) -0.271(2) -0.129(4)
H10B H -1.490(6) -0.271(2) 0.052(5)
loop_
_geom_bond_atom_site_label_1
_geom_bond_atom_site_label_2
_geom_bond_site_symmetry_1
_geom_bond_site_symmetry_2
Mn1 N1 1_555 1_555
N1 C8 1_555 1_555
O1 Mn1 1_555 1_555
O2 Mn1 1_555 1_555
O3 C3 1_555 1_555
O4 C1 1_555 1_555
O5 Mn1 1_555 1_555
C1 O1 1_555 1_555
C2 C1 1_555 1_555
H1 C2 1_555 1_555
C3 O2 1_555 1_555
C4 C6 1_555 1_555
C5 C2 1_555 1_555
H2 C5 1_555 1_555
H3 C5 1_555 1_555
H4 C5 1_555 1_555
C6 H5 1_555 1_555
C7 C4 1_555 1_555
H6 C7 1_555 1_555
C8 C7 1_555 1_555
H7 C8 1_555 1_555
C9 N1 1_555 1_555
H8 C9 1_555 1_555
N2 C4 1_555 1_555
H9 O5 1_555 1_555
H10 O5 1_555 1_555
Mn1B N1B 1_555 1_555
Mn1C O3 1_555 1_555
Mn1C_2 O4 1_555 1_555
Mn1C_3 O1C 1_555 1_555
Mn1_2 O4C 1_555 1_555
N1B C8B 1_555 1_555
O1C C1C 1_555 1_555
O1B Mn1B 1_555 1_555
O2C Mn1C_3 1_555 1_555
O2B Mn1B 1_555 1_555
O3C Mn1 1_555 1_555
O3A Mn1B 1_555 1_555
O4C C1C 1_555 1_555
O4C_2 Mn1 1_555 1_555
O4A Mn1B 1_555 1_555
O5B Mn1B 1_555 1_555
C1C C2C 1_555 1_555
C2C H1C 1_555 1_555
C3C O2C 1_555 1_555
C4B C6B 1_555 1_555
C5C C2C 1_555 1_555
H2C C5C 1_555 1_555
H3C C5C 1_555 1_555
H4C C5C 1_555 1_555
C6B H5B 1_555 1_555
C7B C4B 1_555 1_555
H6B C7B 1_555 1_555
C8B C7B 1_555 1_555
H7B C8B 1_555 1_555
C9B N1B 1_555 1_555
H8B C9B 1_555 1_555
N2B N2 1_555 1_555
H9B O5B 1_555 1_555
H10B O5B 1_555 1_555
C2 C3 1_555 1_555
C6 C9 1_555 1_555
O3C C3C 1_555 1_555
C2C C3C 1_555 1_555
C4B N2B 1_555 1_555
C6B C9B 1_555 1_555

#END
