
#######################################################################
#
#                 Cambridge Crystallographic Data Centre
#                                CCDC 
#
#######################################################################
#
# If this CIF has been generated from an entry in the Cambridge 
# Structural Database, then it will include bibliographic, chemical, 
# crystal, experimental, refinement or atomic coordinate data resulting 
# from the CCDC's data processing and validation procedures.
#
#######################################################################

data_ZEBSAC
_symmetry_cell_setting           triclinic
_symmetry_space_group_name_H-M   'P -1'
_symmetry_Int_Tables_number      2
_space_group_name_Hall           '-P 1'
loop_
_symmetry_equiv_pos_site_id
_symmetry_equiv_pos_as_xyz
1 x,y,z
2 -x,-y,-z
_cell_length_a                   12.947(3)
_cell_length_b                   13.527(3)
_cell_length_c                   14.019(3)
_cell_angle_alpha                92.85(3)
_cell_angle_beta                 114.30(3)
_cell_angle_gamma                112.22(3)
_cell_volume                     2009.22
loop_
_atom_site_label
_atom_site_type_symbol
_atom_site_fract_x
_atom_site_fract_y
_atom_site_fract_z
Mn1 Mn 0.0000 0.5000 0.0000
Mn2 Mn 0.5000 0.5000 0.5000
Mn3 Mn 0.5000 1.5000 0.0000
Mn4 Mn 1.0000 1.5000 0.5000
O1 O 0.5804(4) 0.5060(4) 0.3921(3)
O2 O -0.0764(4) 0.5033(3) 0.1101(3)
N1 N 0.5148(4) 1.3382(3) 0.0290(3)
N2 N 0.4799(4) 0.6599(3) 0.4697(4)
O3 O 0.6626(3) 1.5900(2) 0.1588(2)
O4 O 0.3653(3) 1.4683(3) 0.0634(3)
O5 O 0.3154(3) 0.3971(3) 0.3672(2)
N3 N 0.1787(4) 0.6585(3) 0.1095(3)
O6 O 1.1026(3) 1.4685(3) 0.4224(3)
N4 N 0.8237(4) 1.3400(3) 0.3922(3)
O7 O 0.9330(3) 1.5933(3) 0.3849(2)
O8 O 0.0815(3) 0.3978(2) 0.0822(2)
C1 C 0.5998(5) 1.2375(4) 0.3026(4)
H1 H 0.5214 1.2383 0.2750
C2 C 0.1710(5) 0.7548(4) 0.1228(4)
H2 H 0.0918 0.7530 0.0997
C3 C 0.7109(5) 1.3354(4) 0.3516(4)
H3 H 0.7041 1.4014 0.3555
C4 C 0.2754(5) 0.8554(4) 0.1691(5)
H4 H 0.2668 0.9202 0.1761
C5 C 0.6231(5) 1.3350(4) 0.0653(4)
H5 H 0.6952 1.4016 0.0923
C6 C 0.6383(5) 1.2388(4) 0.0663(4)
H6 H 0.7179 1.2407 0.0938
N5 N 0.4954(4) 1.0419(3) 0.2483(4)
N6 N 0.5081(4) 0.9575(3) 0.2537(4)
C7 C 0.7288(5) 1.1427(4) 0.3360(4)
H7 H 0.7385 1.0783 0.3312
C8 C 0.4124(5) 1.2427(4) -0.0067(4)
H8 H 0.3349 1.2445 -0.0300
C9 C 0.4025(5) 0.7598(4) 0.1961(4)
H9 H 0.4807 0.7587 0.2225
C10 C 0.6096(4) 1.1397(4) 0.2964(4)
C11 C 0.2927(5) 0.6636(4) 0.1472(4)
H10 H 0.2994 0.5978 0.1402
C12 C 0.3938(5) 0.8576(4) 0.2051(4)
C13 C 0.5308(5) 1.1401(4) 0.0251(4)
C14 C 0.8320(5) 1.2442(4) 0.3825(4)
H11 H 0.9118 1.2465 0.4086
C15 C 0.1416(4) 0.2843(3) 0.1980(3)
C16 C 0.4138(5) 1.1415(4) -0.0113(4)
H12 H 0.3398 1.0767 -0.0376
N7 N 0.5483(4) 1.0418(3) 0.0248(4)
C17 C 0.0822(4) 0.3636(3) 0.1630(3)
O9 O 0.0366(5) 0.3917(4) 0.2171(3)
C18 C 0.3573(6) 0.7613(4) 0.4340(5)
H13 H 0.2783 0.7605 0.4071
C19 C 0.3711(6) 0.6638(4) 0.4345(5)
H14 H 0.2987 0.5976 0.4082
N8 N 0.4521(5) 0.9586(3) 0.4763(4)
C20 C 0.4662(6) 0.8590(4) 0.4751(4)
C21 C 0.5824(6) 0.8558(4) 0.5079(5)
H15 H 0.6566 0.9199 0.5315
C22 C 0.5827(6) 0.7547(4) 0.5039(5)
H16 H 0.6598 0.7521 0.5267
C23 C 0.0849(4) 0.2140(4) 0.2634(4)
H17 H 0.1325 0.1728 0.2939
H18 H 0.0954 0.2632 0.3229
O10 O 0.3566(4) 0.3822(4) 0.2312(3)
C24 C 0.2827(4) 0.3612(4) 0.2716(4)
C25 C -0.0540(6) 0.1335(6) 0.1992(6)
H19 H -0.0813 0.0935 0.2457
H20 H -0.0655 0.0828 0.1411
H21 H -0.1028 0.1733 0.1703
C26 C 0.1236(5) 0.2131(4) 0.0976(4)
H22 H 0.0344 0.1753 0.0473
H23 H 0.1650 0.2612 0.0623
C27 C 0.8594(5) 1.7193(3) 0.3017(3)
C28 C 0.9938(5) 1.7923(4) 0.3203(4)
H24 H 1.0459 1.8278 0.3967
H25 H 1.0269 1.7446 0.3027
C29 C 0.8670(4) 1.6433(3) 0.3795(3)
C30 C 0.7896(6) 1.7857(4) 0.3166(4)
H26 H 0.7683 1.8193 0.2562
H27 H 0.7112 1.7343 0.3133
C31 C 0.8610(9) 1.8751(6) 0.4202(6)
H28 H 0.8105 1.9117 0.4209
H29 H 0.9385 1.9275 0.4244
H30 H 0.8792 1.8428 0.4809
C32 C 0.1751(7) 0.1279(6) 0.1222(6)
H31 H 0.1610 0.0872 0.0564
H32 H 0.1329 0.0783 0.1551
H33 H 0.2639 0.1645 0.1707
O11 O 0.8274(4) 1.6400(3) 0.1289(3)
O12 O 0.8123(4) 1.6383(4) 0.4354(3)
C33 C 0.7762(5) 1.6425(3) 0.1875(3)
C34 C 1.0093(8) 1.8806(5) 0.2583(6)
H34 H 1.0965 1.9197 0.2759
H35 H 0.9810 1.9310 0.2773
H36 H 0.9601 1.8471 0.1822
Mn2_2 Mn 0.5000 1.5000 0.5000
Mn2_3 Mn -0.5000 0.5000 -0.5000
Mn3_2 Mn 0.5000 0.5000 0.0000
Mn3_3 Mn 1.5000 1.5000 1.0000
Mn4_2 Mn -1.0000 -0.5000 -0.5000
O1A O 0.4196(4) 0.4940(4) 0.6079(3)
O2A O 0.0764(4) 0.4967(3) -0.1101(3)
N1A N 0.4852(4) 0.6618(3) -0.0290(3)
N1A_2 N 0.4852(4) 1.6618(3) -0.0290(3)
N2A N 0.5201(4) 1.3401(3) 0.5303(4)
N2A_2 N 0.5201(4) 0.3401(3) 0.5303(4)
O3A O 1.3374(3) 1.4100(2) 0.8412(2)
O3A_2 O 0.3374(3) 1.4100(2) -0.1588(2)
O4A O 0.6347(3) 1.5317(3) -0.0634(3)
O5A O -0.3154(3) 0.6029(3) -0.3672(2)
O5A_2 O 0.6846(3) 0.6029(3) 0.6328(2)
N3A N -0.1787(4) 0.3415(3) -0.1095(3)
O6A O 0.8974(3) 1.5315(3) 0.5776(3)
N4A N -0.8237(4) -0.3400(3) -0.3922(3)
N4A_2 N 1.1763(4) 1.6600(3) 0.6078(3)
O7A O 1.0670(3) 1.4067(3) 0.6151(2)
O8A O -0.0815(3) 0.6022(2) -0.0822(2)
C1A C -0.5998(5) -0.2375(4) -0.3026(4)
H1A H -0.5214 -0.2383 -0.2750
C2A C -0.1710(5) 0.2452(4) -0.1228(4)
H2A H -0.0918 0.2470 -0.0997
C3A C -0.7109(5) -0.3354(4) -0.3516(4)
H3A H -0.7041 -0.4014 -0.3555
C4A C -0.2754(5) 0.1446(4) -0.1691(5)
H4A H -0.2668 0.0798 -0.1761
C5A C 0.3769(5) 0.6650(4) -0.0653(4)
H5A H 0.3048 0.5984 -0.0923
C6A C 0.3617(5) 0.7612(4) -0.0663(4)
H6A H 0.2821 0.7593 -0.0938
N5A N -0.4954(4) -0.0419(3) -0.2483(4)
N6A N -0.5081(4) 0.0425(3) -0.2537(4)
C7A C -0.7288(5) -0.1427(4) -0.3360(4)
H7A H -0.7385 -0.0783 -0.3312
C8A C 0.5876(5) 0.7573(4) 0.0067(4)
H8A H 0.6651 0.7555 0.0300
C9A C -0.4025(5) 0.2402(4) -0.1961(4)
H9A H -0.4807 0.2413 -0.2225
C10A C -0.6096(4) -0.1397(4) -0.2964(4)
C11A C -0.2927(5) 0.3364(4) -0.1472(4)
H10A H -0.2994 0.4022 -0.1402
C12A C -0.3938(5) 0.1424(4) -0.2051(4)
C13A C 0.4692(5) 0.8599(4) -0.0251(4)
C14A C -0.8320(5) -0.2442(4) -0.3825(4)
H11A H -0.9118 -0.2465 -0.4086
C15A C -0.1416(4) 0.7157(3) -0.1980(3)
C16A C 0.5862(5) 0.8585(4) 0.0113(4)
H12A H 0.6602 0.9233 0.0376
N7A N 0.4517(4) 0.9582(3) -0.0248(4)
C17A C -0.0822(4) 0.6364(3) -0.1630(3)
O9A O -0.0366(5) 0.6083(4) -0.2171(3)
C18A C 0.6427(6) 1.2387(4) 0.5660(5)
H13A H 0.7217 1.2395 0.5929
C19A C 0.6289(6) 1.3362(4) 0.5655(5)
H14A H 0.7013 1.4024 0.5918
N8A N 0.5479(5) 1.0414(3) 0.5237(4)
C20A C 0.5338(6) 1.1410(4) 0.5249(4)
C21A C 0.4176(6) 1.1442(4) 0.4921(5)
H15A H 0.3434 1.0801 0.4685
C22A C 0.4173(6) 1.2453(4) 0.4961(5)
H16A H 0.3402 1.2479 0.4733
C23A C -0.0849(4) 0.7860(4) -0.2634(4)
H17A H -0.1325 0.8272 -0.2939
H18A H -0.0954 0.7368 -0.3229
O10A O -0.3566(4) 0.6178(4) -0.2312(3)
C24A C -0.2827(4) 0.6388(4) -0.2716(4)
C25A C 0.0540(6) 0.8665(6) -0.1992(6)
H19A H 0.0813 0.9065 -0.2457
H20A H 0.0655 0.9172 -0.1411
H21A H 0.1028 0.8267 -0.1703
C26A C -0.1236(5) 0.7869(4) -0.0976(4)
H22A H -0.0344 0.8247 -0.0473
H23A H -0.1650 0.7388 -0.0623
C27A C 1.1406(5) 1.2807(3) 0.6983(3)
C28A C 1.0062(5) 1.2077(4) 0.6797(4)
H24A H 0.9541 1.1722 0.6033
H25A H 0.9731 1.2554 0.6973
C29A C 1.1330(4) 1.3567(3) 0.6205(3)
C30A C 1.2104(6) 1.2143(4) 0.6834(4)
H26A H 1.2317 1.1807 0.7438
H27A H 1.2888 1.2657 0.6867
C31A C 1.1390(9) 1.1249(6) 0.5798(6)
H28A H 1.1895 1.0883 0.5791
H29A H 1.0615 1.0725 0.5756
H30A H 1.1208 1.1572 0.5191
C32A C -0.1751(7) 0.8721(6) -0.1222(6)
H31A H -0.1610 0.9128 -0.0564
H32A H -0.1329 0.9217 -0.1551
H33A H -0.2639 0.8355 -0.1707
O11A O 1.1726(4) 1.3600(3) 0.8711(3)
O12A O 1.1877(4) 1.3617(4) 0.5646(3)
C33A C 1.2238(5) 1.3575(3) 0.8125(3)
C34A C 0.9907(8) 1.1194(5) 0.7417(6)
H34A H 0.9035 1.0803 0.7241
H35A H 1.0190 1.0690 0.7227
H36A H 1.0399 1.1529 0.8178
loop_
_geom_bond_atom_site_label_1
_geom_bond_atom_site_label_2
_geom_bond_site_symmetry_1
_geom_bond_site_symmetry_2
Mn1 O2 1_555 1_555
Mn2 O1 1_555 1_555
Mn3 N1 1_555 1_555
Mn4 O6 1_555 1_555
N1 C5 1_555 1_555
N2 Mn2 1_555 1_555
O3 Mn3 1_555 1_555
O4 Mn3 1_555 1_555
O5 Mn2 1_555 1_555
N3 Mn1 1_555 1_555
N4 Mn4 1_555 1_555
O7 Mn4 1_555 1_555
O8 Mn1 1_555 1_555
C1 H1 1_555 1_555
C2 N3 1_555 1_555
H2 C2 1_555 1_555
C3 N4 1_555 1_555
H3 C3 1_555 1_555
C4 C2 1_555 1_555
H4 C4 1_555 1_555
C5 H5 1_555 1_555
C6 C5 1_555 1_555
H6 C6 1_555 1_555
N5 N6 1_555 1_555
N6 C12 1_555 1_555
C7 H7 1_555 1_555
C8 N1 1_555 1_555
H8 C8 1_555 1_555
C9 H9 1_555 1_555
C10 C1 1_555 1_555
C11 N3 1_555 1_555
H10 C11 1_555 1_555
C12 C4 1_555 1_555
C13 C6 1_555 1_555
C14 N4 1_555 1_555
H11 C14 1_555 1_555
C15 C17 1_555 1_555
C16 C8 1_555 1_555
H12 C16 1_555 1_555
N7 C13 1_555 1_555
C17 O8 1_555 1_555
O9 C17 1_555 1_555
C18 H13 1_555 1_555
C19 N2 1_555 1_555
H14 C19 1_555 1_555
N8 C20 1_555 1_555
C20 C18 1_555 1_555
C21 C20 1_555 1_555
H15 C21 1_555 1_555
C22 N2 1_555 1_555
H16 C22 1_555 1_555
C23 C15 1_555 1_555
H17 C23 1_555 1_555
H18 C23 1_555 1_555
O10 C24 1_555 1_555
C24 O5 1_555 1_555
C25 C23 1_555 1_555
H19 C25 1_555 1_555
H20 C25 1_555 1_555
H21 C25 1_555 1_555
C26 C15 1_555 1_555
H22 C26 1_555 1_555
H23 C26 1_555 1_555
C27 C28 1_555 1_555
C28 H24 1_555 1_555
H25 C28 1_555 1_555
C29 O7 1_555 1_555
C30 C27 1_555 1_555
H26 C30 1_555 1_555
H27 C30 1_555 1_555
C31 C30 1_555 1_555
H28 C31 1_555 1_555
H29 C31 1_555 1_555
H30 C31 1_555 1_555
C32 C26 1_555 1_555
H31 C32 1_555 1_555
H32 C32 1_555 1_555
H33 C32 1_555 1_555
O11 C33 1_555 1_555
O12 C29 1_555 1_555
C33 O3 1_555 1_555
C34 C28 1_555 1_555
H34 C34 1_555 1_555
H35 C34 1_555 1_555
H36 C34 1_555 1_555
Mn2_2 N2A 1_555 1_555
Mn2_3 O5A 1_555 1_555
Mn3_2 N1A 1_555 1_555
Mn3_3 O3A 1_555 1_555
Mn4_2 N4A 1_555 1_555
O1A Mn2 1_555 1_555
O2A Mn1 1_555 1_555
N1A C5A 1_555 1_555
N1A_2 Mn3 1_555 1_555
N2A C19A 1_555 1_555
N2A_2 Mn2 1_555 1_555
O3A C33A 1_555 1_555
O3A_2 Mn3 1_555 1_555
O4A Mn3 1_555 1_555
O5A C24A 1_555 1_555
O5A_2 Mn2 1_555 1_555
N3A Mn1 1_555 1_555
O6A Mn4 1_555 1_555
N4A C3A 1_555 1_555
N4A_2 Mn4 1_555 1_555
O7A Mn4 1_555 1_555
O8A Mn1 1_555 1_555
C1A H1A 1_555 1_555
C2A N3A 1_555 1_555
H2A C2A 1_555 1_555
C3A C1A 1_555 1_555
H3A C3A 1_555 1_555
C4A C2A 1_555 1_555
H4A C4A 1_555 1_555
C5A H5A 1_555 1_555
C6A C5A 1_555 1_555
H6A C6A 1_555 1_555
N5A N6A 1_555 1_555
N6A C12A 1_555 1_555
C7A H7A 1_555 1_555
C8A N1A 1_555 1_555
H8A C8A 1_555 1_555
C9A H9A 1_555 1_555
C10A C1A 1_555 1_555
C11A N3A 1_555 1_555
H10A C11A 1_555 1_555
C12A C4A 1_555 1_555
C13A C6A 1_555 1_555
C14A N4A 1_555 1_555
H11A C14A 1_555 1_555
C15A C17A 1_555 1_555
C16A C8A 1_555 1_555
H12A C16A 1_555 1_555
N7A N7 1_555 1_555
C17A O8A 1_555 1_555
O9A C17A 1_555 1_555
C18A H13A 1_555 1_555
C19A C18A 1_555 1_555
H14A C19A 1_555 1_555
N8A N8 1_555 1_555
C20A C18A 1_555 1_555
C21A C20A 1_555 1_555
H15A C21A 1_555 1_555
C22A N2A 1_555 1_555
H16A C22A 1_555 1_555
C23A C15A 1_555 1_555
H17A C23A 1_555 1_555
H18A C23A 1_555 1_555
O10A C24A 1_555 1_555
C24A C15A 1_555 1_555
C25A C23A 1_555 1_555
H19A C25A 1_555 1_555
H20A C25A 1_555 1_555
H21A C25A 1_555 1_555
C26A C15A 1_555 1_555
H22A C26A 1_555 1_555
H23A C26A 1_555 1_555
C27A C28A 1_555 1_555
C28A H24A 1_555 1_555
H25A C28A 1_555 1_555
C29A O7A 1_555 1_555
C30A C27A 1_555 1_555
H26A C30A 1_555 1_555
H27A C30A 1_555 1_555
C31A C30A 1_555 1_555
H28A C31A 1_555 1_555
H29A C31A 1_555 1_555
H30A C31A 1_555 1_555
C32A C26A 1_555 1_555
H31A C32A 1_555 1_555
H32A C32A 1_555 1_555
H33A C32A 1_555 1_555
O11A C33A 1_555 1_555
O12A C29A 1_555 1_555
C33A C27A 1_555 1_555
C34A C28A 1_555 1_555
H34A C34A 1_555 1_555
H35A C34A 1_555 1_555
H36A C34A 1_555 1_555
C1 C3 1_555 1_555
N5 C10 1_555 1_555
C7 C10 1_555 1_555
C7 C14 1_555 1_555
C9 C11 1_555 1_555
C9 C12 1_555 1_555
C13 C16 1_555 1_555
C15 C24 1_555 1_555
C18 C19 1_555 1_555
C21 C22 1_555 1_555
C27 C29 1_555 1_555
C27 C33 1_555 1_555
N5A C10A 1_555 1_555
C7A C10A 1_555 1_555
C7A C14A 1_555 1_555
C9A C11A 1_555 1_555
C9A C12A 1_555 1_555
C13A C16A 1_555 1_555
C13A N7A 1_555 1_555
N8A C20A 1_555 1_555
C21A C22A 1_555 1_555
C27A C29A 1_555 1_555

#END
