
#######################################################################
#
#                 Cambridge Crystallographic Data Centre
#                                CCDC 
#
#######################################################################
#
# If this CIF has been generated from an entry in the Cambridge 
# Structural Database, then it will include bibliographic, chemical, 
# crystal, experimental, refinement or atomic coordinate data resulting 
# from the CCDC's data processing and validation procedures.
#
#######################################################################

data_ZEBZAJ
_symmetry_cell_setting           triclinic
_symmetry_space_group_name_H-M   'P -1'
_symmetry_Int_Tables_number      2
_space_group_name_Hall           '-P 1'
loop_
_symmetry_equiv_pos_site_id
_symmetry_equiv_pos_as_xyz
1 x,y,z
2 -x,-y,-z
_cell_length_a                   3.7843(8)
_cell_length_b                   7.7515(16)
_cell_length_c                   10.297(2)
_cell_angle_alpha                92.957(2)
_cell_angle_beta                 95.118(3)
_cell_angle_gamma                92.835(3)
_cell_volume                     300.003
loop_
_atom_site_label
_atom_site_type_symbol
_atom_site_fract_x
_atom_site_fract_y
_atom_site_fract_z
Ag1 Ag 1.0000 0.0000 0.0000
C1 C 0.2693(14) -0.3014(6) 0.5288(5)
H1 H 0.1805 -0.4036 0.5601
C2 C 0.3569(13) -0.3011(6) 0.4009(5)
H2 H 0.3154 -0.4012 0.3468
C3 C 0.5057(13) -0.1521(6) 0.3533(4)
C4 C 0.5532(12) 0.0007(5) 0.4356(4)
C5 C 0.3105(12) -0.1541(6) 0.6101(4)
C6 C 0.6133(13) -0.1468(6) 0.2194(5)
C7 C 0.1882(13) -0.1535(6) 0.7448(5)
N1 N 0.7739(11) 0.0020(5) 0.1792(4)
O1 O 0.5766(10) -0.2795(5) 0.1446(3)
O2 O 0.0652(11) -0.2842(5) 0.7864(4)
Ag1_2 Ag 0.0000 0.0000 1.0000
C1A C 0.7307(14) 0.3014(6) 0.4712(5)
H1A H 0.8195 0.4036 0.4399
C2A C 0.6431(13) 0.3011(6) 0.5991(5)
H2A H 0.6846 0.4012 0.6532
C3A C 0.4943(13) 0.1521(6) 0.6467(4)
C4A C 0.4468(12) -0.0007(5) 0.5644(4)
C5A C 0.6895(12) 0.1541(6) 0.3899(4)
C6A C 0.3867(13) 0.1468(6) 0.7806(5)
C7A C 0.8118(13) 0.1535(6) 0.2552(5)
N1A N 0.2261(11) -0.0020(5) 0.8208(4)
N1A_2 N 1.2261(11) -0.0020(5) -0.1792(4)
O1A O 0.4234(10) 0.2795(5) 0.8554(3)
O2A O 0.9348(11) 0.2842(5) 0.2136(4)
N2 N 1.0000 0.5000 1.0000
H3 H 1.0294 0.5228 0.9167
H4 H 0.7748 0.5207 1.0150
H3A H 0.9706 0.4772 1.0833
H4A H 1.2252 0.4793 0.9850
H5? H 1.1432 0.5651 1.0514
H6? H 1.0384 0.3946 1.0120
loop_
_geom_bond_atom_site_label_1
_geom_bond_atom_site_label_2
_geom_bond_site_symmetry_1
_geom_bond_site_symmetry_2
Ag1 N1 1_555 1_555
C1 H1 1_555 1_555
C2 C1 1_555 1_555
H2 C2 1_555 1_555
C3 C2 1_555 1_555
C4 C3 1_555 1_555
C5 C1 1_555 1_555
C6 C3 1_555 1_555
C7 C5 1_555 1_555
N1 C6 1_555 1_555
N2 H3 1_555 1_555
H4 N2 1_555 1_555
O1 C6 1_555 1_555
O2 C7 1_555 1_555
Ag1_2 N1A 1_555 1_555
C1A H1A 1_555 1_555
C2A C1A 1_555 1_555
H2A C2A 1_555 1_555
C3A C2A 1_555 1_555
C4A C4 1_555 1_555
C5A C4 1_555 1_555
C6A C3A 1_555 1_555
C7A N1 1_555 1_555
N1A C7 1_555 1_555
N1A_2 Ag1 1_555 1_555
H3A N2 1_555 1_555
H4A N2 1_555 1_555
O1A C6A 1_555 1_555
O2A C7A 1_555 1_555
C5 C4A 1_555 1_555
C1A C5A 1_555 1_555
C3A C4A 1_555 1_555
C5A C7A 1_555 1_555
C6A N1A 1_555 1_555

#END
