
#######################################################################
#
#                 Cambridge Crystallographic Data Centre
#                                CCDC 
#
#######################################################################
#
# If this CIF has been generated from an entry in the Cambridge 
# Structural Database, then it will include bibliographic, chemical, 
# crystal, experimental, refinement or atomic coordinate data resulting 
# from the CCDC's data processing and validation procedures.
#
#######################################################################

data_ZECFAO
_symmetry_cell_setting           orthorhombic
_symmetry_space_group_name_H-M   'P 2 n a'
_symmetry_Int_Tables_number      30
_space_group_name_Hall           'P -2ac 2'
loop_
_symmetry_equiv_pos_site_id
_symmetry_equiv_pos_as_xyz
1 x,y,z
2 1/2+x,y,1/2-z
3 x,-y,-z
4 1/2+x,-y,1/2+z
_cell_length_a                   7.393(2)
_cell_length_b                   9.999(5)
_cell_length_c                   13.557(10)
_cell_angle_alpha                90
_cell_angle_beta                 90
_cell_angle_gamma                90
_cell_volume                     1002.17
loop_
_atom_site_label
_atom_site_type_symbol
_atom_site_fract_x
_atom_site_fract_y
_atom_site_fract_z
Co1 Co -0.1010(2) -0.5000 0.0000
N1 N -0.0988(6) -0.3991(1) 0.1361(1)
N2 N -0.0991(9) -0.2579(1) 0.2592(1)
N3 N -0.6081(10) -0.0022(1) -0.1445(2)
N4 N -0.3066(2) -0.6284(1) 0.0559(1)
N5 N -0.8911(2) -0.3705(2) -0.0552(1)
C1 C -0.1041(8) -0.2707(1) 0.1604(1)
C2 C -0.1032(11) -0.3826(2) 0.3003(1)
C3 C -0.1004(11) -0.4667(2) 0.2241(1)
C4 C -0.0957(12) -0.1527(1) 0.0925(2)
C5 C -0.6030(7) -0.7536(1) 0.0904(1)
C6 C -0.5972(10) -0.1108(1) -0.1203(1)
C7 C -0.7628(3) -0.3121(2) -0.0718(1)
C8 C -0.4384(2) -0.6859(2) 0.0721(1)
H1 H -0.0941(9) -0.1837(1) 0.2911(1)
H2 H -0.1072(11) -0.4041(2) 0.3670(1)
H3 H -0.0996(11) -0.5594(2) 0.2298(1)
H4 H -0.1602(19) -0.1726(5) 0.0328(4)
H5 H 0.0283(12) -0.1332(8) 0.0771(8)
H6 H -0.1497(20) -0.0766(4) 0.1240(4)
N1B N -0.0988(6) -0.6009(1) -0.1361(1)
N4B N -0.3066(2) -0.3716(1) -0.0559(1)
N5_2 N 0.1089(2) -0.3705(2) -0.0552(1)
C1B C -0.1041(8) -0.7293(1) -0.1604(1)
C3B C -0.1004(11) -0.5333(2) -0.2241(1)
C8B C -0.4384(2) -0.3141(2) -0.0721(1)
N2B N -0.0991(9) -0.7421(1) -0.2592(1)
C4B C -0.0957(12) -0.8473(1) -0.0925(2)
C2B C -0.1032(11) -0.6174(2) -0.3003(1)
H3B H -0.0996(11) -0.4406(2) -0.2298(1)
C5B C -0.6030(7) -0.2464(1) -0.0904(1)
H1B H -0.0941(9) -0.8163(1) -0.2911(1)
H4B H -0.1602(19) -0.8274(5) -0.0328(4)
H5B H 0.0283(12) -0.8668(8) -0.0771(8)
H6B H -0.1497(20) -0.9234(4) -0.1240(4)
H2B H -0.1072(11) -0.5959(2) -0.3670(1)
C6B C -0.5972(10) -0.8892(1) 0.1203(1)
C7B C -0.7628(3) -0.6879(2) 0.0718(1)
N5B N 0.1089(2) -0.6295(2) 0.0552(1)
N3B N -0.6081(10) -0.9978(1) 0.1445(2)
N5B_2 N -0.8911(2) -0.6295(2) 0.0552(1)
Co1_2 Co -1.1010(2) -0.5000 0.0000
loop_
_geom_bond_atom_site_label_1
_geom_bond_atom_site_label_2
_geom_bond_site_symmetry_1
_geom_bond_site_symmetry_2
Co1 N1 1_555 1_555
N1 C1 1_555 1_555
N2 C1 1_555 1_555
N3 C6 1_555 1_555
N4 Co1 1_555 1_555
N5 C7 1_555 1_555
C1 C4 1_555 1_555
C2 N2 1_555 1_555
C3 N1 1_555 1_555
C4 H4 1_555 1_555
C5 C8 1_555 1_555
C6 C5B 1_555 1_555
C7 C5B 1_555 1_555
C8 N4 1_555 1_555
H1 N2 1_555 1_555
H2 C2 1_555 1_555
H3 C3 1_555 1_555
H5 C4 1_555 1_555
H6 C4 1_555 1_555
N1B Co1 1_555 1_555
N4B Co1 1_555 1_555
N5_2 Co1 1_555 1_555
C1B N1B 1_555 1_555
C3B N1B 1_555 1_555
C8B N4B 1_555 1_555
N2B C1B 1_555 1_555
C4B C1B 1_555 1_555
C2B C3B 1_555 1_555
H3B C3B 1_555 1_555
C5B C8B 1_555 1_555
H1B N2B 1_555 1_555
H4B C4B 1_555 1_555
H5B C4B 1_555 1_555
H6B C4B 1_555 1_555
H2B C2B 1_555 1_555
C6B C5 1_555 1_555
C7B C5 1_555 1_555
N5B Co1 1_555 1_555
N3B C6B 1_555 1_555
N5B_2 C7B 1_555 1_555
Co1_2 N5 1_555 1_555
C2 C3 1_555 1_555
N2B C2B 1_555 1_555
N5B_2 Co1_2 1_555 1_555

#END
