
#######################################################################
#
#                 Cambridge Crystallographic Data Centre
#                                CCDC 
#
#######################################################################
#
# If this CIF has been generated from an entry in the Cambridge 
# Structural Database, then it will include bibliographic, chemical, 
# crystal, experimental, refinement or atomic coordinate data resulting 
# from the CCDC's data processing and validation procedures.
#
#######################################################################

data_ZECKID
_symmetry_cell_setting           tetragonal
_symmetry_space_group_name_H-M   'I 41 m d'
_symmetry_Int_Tables_number      109
_space_group_name_Hall           'I 4bw -2'
loop_
_symmetry_equiv_pos_site_id
_symmetry_equiv_pos_as_xyz
1 x,y,z
2 -x,-y,z
3 -y,1/2+x,1/4+z
4 y,1/2-x,1/4+z
5 -x,y,z
6 x,-y,z
7 y,1/2+x,1/4+z
8 -y,1/2-x,1/4+z
9 1/2+x,1/2+y,1/2+z
10 1/2-x,1/2-y,1/2+z
11 1/2-y,x,3/4+z
12 1/2+y,-x,3/4+z
13 1/2-x,1/2+y,1/2+z
14 1/2+x,1/2-y,1/2+z
15 1/2+y,x,3/4+z
16 1/2-y,-x,3/4+z
_cell_length_a                   16.119(4)
_cell_length_b                   16.119(4)
_cell_length_c                   16.455(4)
_cell_angle_alpha                90
_cell_angle_beta                 90
_cell_angle_gamma                90
_cell_volume                     4275.37
loop_
_atom_site_label
_atom_site_type_symbol
_atom_site_fract_x
_atom_site_fract_y
_atom_site_fract_z
Cu1 Cu 0.0000 0.10143(6) 0.80027(7)
N1 N 0.0899(3) 0.0419(3) 0.7441(4)
O1 O 0.0000 0.0000 0.9071(7)
C1 C 0.2008(6) 0.0000 0.6770(6)
C2 C 0.1557(4) 0.0692(4) 0.7037(4)
C3 C 0.1729(6) 0.1597(4) 0.6926(6)
H1 H 0.1528 0.1901 0.7395
H2 H 0.1449 0.1794 0.6441
H3 H 0.2322 0.1683 0.6870
O2 O 0.3101(4) 0.0669(3) 0.6066(3)
C4 C 0.2752(6) 0.0000 0.6294(6)
Cu1A Cu 0.0000 -0.10143(6) 0.80027(7)
Cu1J Cu 0.39857(6) 0.0000 0.55027(7)
Cu1K Cu -0.39857(6) 0.0000 0.55027(7)
N1E N 0.0899(3) -0.0419(3) 0.7441(4)
N1D N -0.0899(3) 0.0419(3) 0.7441(4)
N1A N -0.0899(3) -0.0419(3) 0.7441(4)
C1A C -0.2008(6) 0.0000 0.6770(6)
C2E C 0.1557(4) -0.0692(4) 0.7037(4)
C2D C -0.1557(4) 0.0692(4) 0.7037(4)
C2A C -0.1557(4) -0.0692(4) 0.7037(4)
C3E C 0.1729(6) -0.1597(4) 0.6926(6)
C3D C -0.1729(6) 0.1597(4) 0.6926(6)
C3A C -0.1729(6) -0.1597(4) 0.6926(6)
H1E H 0.1528 -0.1901 0.7395
H1D H -0.1528 0.1901 0.7395
H1A H -0.1528 -0.1901 0.7395
H2E H 0.1449 -0.1794 0.6441
H2D H -0.1449 0.1794 0.6441
H2A H -0.1449 -0.1794 0.6441
H3E H 0.2322 -0.1683 0.6870
H3D H -0.2322 0.1683 0.6870
H3A H -0.2322 -0.1683 0.6870
O2E O 0.3101(4) -0.0669(3) 0.6066(3)
O2D O -0.3101(4) 0.0669(3) 0.6066(3)
O2A O -0.3101(4) -0.0669(3) 0.6066(3)
O2C O 0.0669(3) 0.1899(4) 0.8566(3)
O2G O -0.0669(3) 0.1899(4) 0.8566(3)
O2F O 0.0669(3) -0.1899(4) 0.8566(3)
O2B O -0.0669(3) -0.1899(4) 0.8566(3)
C4A C -0.2752(6) 0.0000 0.6294(6)
loop_
_geom_bond_atom_site_label_1
_geom_bond_atom_site_label_2
_geom_bond_site_symmetry_1
_geom_bond_site_symmetry_2
Cu1 N1 1_555 1_555
N1 C2 1_555 1_555
O1 Cu1 1_555 1_555
C1 C2 1_555 1_555
C2 C3 1_555 1_555
C3 H1 1_555 1_555
H2 C3 1_555 1_555
H3 C3 1_555 1_555
O2 C4 1_555 1_555
C4 C1 1_555 1_555
Cu1A O1 1_555 1_555
Cu1J O2 1_555 1_555
Cu1K O2D 1_555 1_555
N1E N1 1_555 1_555
N1D Cu1 1_555 1_555
N1A Cu1A 1_555 1_555
C1A C2D 1_555 1_555
C2E C1 1_555 1_555
C2D N1D 1_555 1_555
C2A N1A 1_555 1_555
C3E C2E 1_555 1_555
C3D C2D 1_555 1_555
C3A C2A 1_555 1_555
H1E C3E 1_555 1_555
H1D C3D 1_555 1_555
H1A C3A 1_555 1_555
H2E C3E 1_555 1_555
H2D C3D 1_555 1_555
H2A C3A 1_555 1_555
H3E C3E 1_555 1_555
H3D C3D 1_555 1_555
H3A C3A 1_555 1_555
O2E C4 1_555 1_555
O2D C4A 1_555 1_555
O2A Cu1K 1_555 1_555
O2C Cu1 1_555 1_555
O2G Cu1 1_555 1_555
O2F Cu1A 1_555 1_555
O2B Cu1A 1_555 1_555
C4A C1A 1_555 1_555
Cu1A N1E 1_555 1_555
Cu1J O2E 1_555 1_555
N1E C2E 1_555 1_555
N1D N1A 1_555 1_555
C1A C2A 1_555 1_555
O2A C4A 1_555 1_555

#END
