
#######################################################################
#
#                 Cambridge Crystallographic Data Centre
#                                CCDC 
#
#######################################################################
#
# If this CIF has been generated from an entry in the Cambridge 
# Structural Database, then it will include bibliographic, chemical, 
# crystal, experimental, refinement or atomic coordinate data resulting 
# from the CCDC's data processing and validation procedures.
#
#######################################################################

data_ZECKOJ
_symmetry_cell_setting           tetragonal
_symmetry_space_group_name_H-M   'I 41 m d'
_symmetry_Int_Tables_number      109
_space_group_name_Hall           'I 4bw -2'
loop_
_symmetry_equiv_pos_site_id
_symmetry_equiv_pos_as_xyz
1 x,y,z
2 -x,-y,z
3 -y,1/2+x,1/4+z
4 y,1/2-x,1/4+z
5 -x,y,z
6 x,-y,z
7 y,1/2+x,1/4+z
8 -y,1/2-x,1/4+z
9 1/2+x,1/2+y,1/2+z
10 1/2-x,1/2-y,1/2+z
11 1/2-y,x,3/4+z
12 1/2+y,-x,3/4+z
13 1/2-x,1/2+y,1/2+z
14 1/2+x,1/2-y,1/2+z
15 1/2+y,x,3/4+z
16 1/2-y,-x,3/4+z
_cell_length_a                   16.756(8)
_cell_length_b                   16.756(8)
_cell_length_c                   14.209(7)
_cell_angle_alpha                90
_cell_angle_beta                 90
_cell_angle_gamma                90
_cell_volume                     3989.37
loop_
_atom_site_label
_atom_site_type_symbol
_atom_site_fract_x
_atom_site_fract_y
_atom_site_fract_z
Cu1 Cu 0.09908(10) 0.0000 0.47883(14)
N1 N 0.0406(5) -0.0872(5) 0.5383(7)
C1 C 0.0667(6) -0.1554(7) 0.5756(8)
C2 C 0.0000 -0.2045(9) 0.6002(12)
C3 C 0.1530(7) -0.1733(10) 0.5874(13)
H1 H 0.1630 -0.2285 0.5708
H2 H 0.1683 -0.1643 0.6524
H3 H 0.1840 -0.1386 0.5467
O1 O 0.0651(5) -0.3151(6) 0.6655(8)
C4 C 0.0000 -0.2792(10) 0.6447(15)
O2 O 0.0000 0.0000 0.3527(16)
Cu1A Cu -0.09908(10) 0.0000 0.47883(14)
Cu1B Cu 0.0000 -0.40092(10) 0.72883(14)
Cu1C Cu 0.0000 0.40092(10) 0.72883(14)
N1D N -0.0406(5) -0.0872(5) 0.5383(7)
N1E N 0.0406(5) 0.0872(5) 0.5383(7)
N1A N -0.0406(5) 0.0872(5) 0.5383(7)
C1D C -0.0667(6) -0.1554(7) 0.5756(8)
C1E C 0.0667(6) 0.1554(7) 0.5756(8)
C1A C -0.0667(6) 0.1554(7) 0.5756(8)
C2A C 0.0000 0.2045(9) 0.6002(12)
C3D C -0.1530(7) -0.1733(10) 0.5874(13)
C3E C 0.1530(7) 0.1733(10) 0.5874(13)
C3A C -0.1530(7) 0.1733(10) 0.5874(13)
H1D H -0.1630 -0.2285 0.5708
H1E H 0.1630 0.2285 0.5708
H1A H -0.1630 0.2285 0.5708
H2D H -0.1683 -0.1643 0.6524
H2E H 0.1683 0.1643 0.6524
H2A H -0.1683 0.1643 0.6524
H3D H -0.1840 -0.1386 0.5467
H3E H 0.1840 0.1386 0.5467
H3A H -0.1840 0.1386 0.5467
O1D O -0.0651(5) -0.3151(6) 0.6655(8)
O1K O 0.1849(6) -0.0651(5) 0.4155(8)
O1N O 0.1849(6) 0.0651(5) 0.4155(8)
O1O O -0.1849(6) -0.0651(5) 0.4155(8)
O1J O -0.1849(6) 0.0651(5) 0.4155(8)
O1A O -0.0651(5) 0.3151(6) 0.6655(8)
O1E O 0.0651(5) 0.3151(6) 0.6655(8)
C4A C 0.0000 0.2792(10) 0.6447(15)
loop_
_geom_bond_atom_site_label_1
_geom_bond_atom_site_label_2
_geom_bond_site_symmetry_1
_geom_bond_site_symmetry_2
Cu1 N1 1_555 1_555
N1 C1 1_555 1_555
C1 C2 1_555 1_555
C2 C4 1_555 1_555
C3 C1 1_555 1_555
H1 C3 1_555 1_555
H2 C3 1_555 1_555
H3 C3 1_555 1_555
O1 C4 1_555 1_555
C4 O1D 1_555 1_555
O2 Cu1 1_555 1_555
Cu1A O2 1_555 1_555
Cu1B O1 1_555 1_555
Cu1C O1A 1_555 1_555
N1D N1 1_555 1_555
N1E Cu1 1_555 1_555
N1A Cu1A 1_555 1_555
C1D C2 1_555 1_555
C1E N1E 1_555 1_555
C1A N1A 1_555 1_555
C2A C1E 1_555 1_555
C3D C1D 1_555 1_555
C3E C1E 1_555 1_555
C3A C1A 1_555 1_555
H1D C3D 1_555 1_555
H1E C3E 1_555 1_555
H1A C3A 1_555 1_555
H2D C3D 1_555 1_555
H2E C3E 1_555 1_555
H2A C3A 1_555 1_555
H3D C3D 1_555 1_555
H3E C3E 1_555 1_555
H3A C3A 1_555 1_555
O1D Cu1B 1_555 1_555
O1K Cu1 1_555 1_555
O1N Cu1 1_555 1_555
O1O Cu1A 1_555 1_555
O1J Cu1A 1_555 1_555
O1A C4A 1_555 1_555
O1E Cu1C 1_555 1_555
C4A C2A 1_555 1_555
Cu1A N1D 1_555 1_555
N1D C1D 1_555 1_555
N1E N1A 1_555 1_555
C1A C2A 1_555 1_555
O1E C4A 1_555 1_555

#END
