
#######################################################################
#
#                 Cambridge Crystallographic Data Centre
#                                CCDC 
#
#######################################################################
#
# If this CIF has been generated from an entry in the Cambridge 
# Structural Database, then it will include bibliographic, chemical, 
# crystal, experimental, refinement or atomic coordinate data resulting 
# from the CCDC's data processing and validation procedures.
#
#######################################################################

data_ZECXUC
_symmetry_cell_setting           triclinic
_symmetry_space_group_name_H-M   'P -1'
_symmetry_Int_Tables_number      2
_space_group_name_Hall           '-P 1'
loop_
_symmetry_equiv_pos_site_id
_symmetry_equiv_pos_as_xyz
1 x,y,z
2 -x,-y,-z
_cell_length_a                   16.7690(6)
_cell_length_b                   16.8322(6)
_cell_length_c                   21.3485(7)
_cell_angle_alpha                88.713(1)
_cell_angle_beta                 82.497(1)
_cell_angle_gamma                76.926(1)
_cell_volume                     5819.2
loop_
_atom_site_label
_atom_site_type_symbol
_atom_site_fract_x
_atom_site_fract_y
_atom_site_fract_z
W1 W 0.58384(3) 0.39753(3) -0.79581(2)
W2 W 1.06081(3) 0.32569(3) -0.75216(2)
W3 W 0.99947(3) 0.16768(3) -0.84279(2)
W4 W 0.58108(3) 0.03597(3) -0.77713(2)
W5 W 0.80535(3) -0.00690(3) -0.76281(2)
W6 W 0.60643(3) 0.14348(3) -0.91118(2)
W7 W 0.97774(3) 0.06813(3) -0.70548(2)
W8 W 0.89446(3) 0.38382(3) -0.85266(2)
W9 W 0.75374(3) 0.47243(3) -0.73385(2)
W10 W 1.02458(3) 0.23139(3) -0.61346(2)
W11 W 0.47311(3) 0.23028(3) -0.78511(2)
W12 W 0.82954(3) 0.08950(3) -0.90062(2)
W13 W 0.72559(3) 0.30628(3) -0.91295(2)
W14 W 0.55703(3) 0.29096(3) -0.64464(2)
W15 W 0.72965(3) 0.36280(3) -0.58386(2)
W16 W 0.92468(3) 0.42713(3) -0.63453(2)
W17 W 0.82657(3) 0.16648(3) -0.57281(2)
W18 W 0.65389(3) 0.09524(3) -0.63275(2)
P1 P 0.68722(19) 0.19348(18) -0.77666(14)
P2 P 0.86840(19) 0.27234(19) -0.71340(14)
O1 O 0.4788(5) 0.1175(5) -0.7675(4)
O3 O 0.5155(5) 0.3262(5) -0.8079(4)
O5 O 0.8308(5) 0.3938(5) -0.5872(4)
O6 O 0.8012(5) 0.2057(5) -0.9165(4)
O7 O 1.0194(5) 0.4204(5) -0.6955(4)
O8 O 0.5695(5) 0.1868(5) -0.6042(4)
O9 O 0.9258(5) 0.2099(5) -0.5730(4)
O10 O 0.9326(6) 0.4271(5) -0.9207(4)
O11 O 0.7203(5) 0.0878(5) -0.9122(4)
O12 O 0.5719(5) 0.3686(5) -0.7084(4)
O13 O 0.8899(5) 0.0953(5) -0.6361(4)
O14 O 0.7298(5) 0.1423(5) -0.5931(4)
O15 O 1.0292(5) 0.1396(5) -0.6674(4)
O16 O 0.8417(5) -0.0075(5) -0.8517(4)
O17 O 0.9002(5) 0.0226(5) -0.7460(4)
O18 O 1.0994(5) 0.2657(5) -0.6810(4)
O19 O 0.5916(5) 0.0668(5) -0.6923(4)
O20 O 1.0372(5) 0.0806(5) -0.7864(4)
O21 O 0.4944(5) 0.2506(5) -0.7047(4)
O22 O 0.6660(5) 0.2016(5) -0.7047(4)
O23 O 0.9401(5) 0.2694(5) -0.8677(4)
O24 O 0.6151(5) 0.1637(5) -0.8017(4)
O25 O 1.1495(5) 0.3488(5) -0.7874(4)
O26 O 0.7493(5) 0.0357(5) -0.6838(4)
O27 O 0.9797(5) 0.3840(5) -0.8047(4)
O28 O 0.5425(5) -0.0492(5) -0.7645(4)
O29 O 0.6402(5) 0.3163(5) -0.6050(4)
O30 O 0.8513(5) 0.4709(5) -0.6914(4)
O31 O 0.8382(5) 0.1092(5) -0.5061(4)
O32 O 0.9276(6) 0.5123(6) -0.5936(4)
O33 O 0.8240(5) 0.4776(5) -0.8121(4)
O34 O 0.9067(5) 0.1907(5) -0.7489(4)
O35 O 0.7092(5) 0.5740(5) -0.7214(4)
O36 O 0.9236(5) 0.1123(5) -0.8680(4)
O37 O 0.5820(5) 0.0478(5) -0.8651(4)
O38 O 0.9928(5) 0.3426(5) -0.5879(4)
O39 O 0.5875(5) 0.1245(5) -0.9852(4)
O40 O 1.0772(5) 0.1437(5) -0.9048(4)
O41 O 1.0931(5) 0.1941(6) -0.5615(4)
O42 O 0.8782(5) 0.0503(5) -0.9715(4)
O43 O 0.7970(5) 0.3602(5) -0.8833(4)
O44 O 0.6315(5) 0.3913(5) -0.8809(4)
O45 O 0.4997(5) 0.2008(5) -0.8741(4)
O46 O 0.6763(5) 0.4416(5) -0.7755(4)
O47 O 1.0365(5) -0.0219(5) -0.6813(4)
O48 O 0.7643(5) 0.2697(5) -0.5349(4)
O49 O 0.6949(5) -0.0056(5) -0.7848(4)
O50 O 0.6444(5) 0.2396(5) -0.9220(4)
O51 O 0.7128(5) 0.4260(5) -0.6586(4)
O52 O 0.6386(5) 0.0264(5) -0.5749(4)
O53 O 0.8067(5) 0.2613(5) -0.6556(4)
O54 O 0.8286(5) 0.3393(5) -0.7584(4)
O55 O 0.6906(5) 0.2765(5) -0.8070(4)
O56 O 0.7665(5) 0.1300(5) -0.7958(4)
O57 O 0.4716(5) 0.3446(5) -0.5979(4)
O58 O 0.7357(5) 0.3351(5) -0.9915(4)
O59 O 0.6724(5) 0.4287(5) -0.5262(4)
O60 O 1.0565(5) 0.2328(5) -0.7952(4)
O61 O 0.3694(5) 0.2654(5) -0.7813(4)
O62 O 0.5140(5) 0.4891(5) -0.7965(4)
O63 O 0.8292(5) -0.1085(5) -0.7475(4)
O64 O 0.9413(5) 0.3024(5) -0.6885(4)
Ag1 Ag 0.93237(7) 0.61087(7) -0.50412(5)
Ag2 Ag 1.48952(6) -0.10967(6) -0.86842(5)
Ag3 Ag 1.5000 1.0000 -0.5000
Ag4 Ag 2.31775(6) -0.24112(6) -0.92706(5)
Ag5 Ag 1.5000 0.0000 -1.0000
Ag6 Ag 1.13744(9) 0.31643(10) -0.35817(7)
C1 C 2.1513(8) -0.1138(8) -0.8692(7)
H1 H 2.1745 -0.0885 -0.8403
C2 C 2.1367(7) -0.1956(7) -0.9394(6)
H2 H 2.1481 -0.2372 -0.9695
C3 C 2.0701(8) -0.0935(8) -0.8796(6)
H3 H 2.0293 -0.0509 -0.8607
C4 C 1.9869(8) -0.1500(8) -0.9524(6)
H4 H 1.9998 -0.1484 -0.9980
H5 H 1.9437 -0.1023 -0.9392
C5 C 1.9564(7) -0.2265(7) -0.9340(6)
C6 C 1.8928(8) -0.2235(7) -0.8858(6)
H6 H 1.8664 -0.1740 -0.8661
C7 C 1.5487(9) 0.8848(10) -0.6192(7)
H7 H 1.5891 0.9114 -0.6368
C8 C 1.5279(11) 0.8201(11) -0.6456(8)
H8 H 1.5515 0.7942 -0.6838
C9 C 0.7257(10) 0.5235(11) -0.4154(8)
H9 H 0.6855 0.4933 -0.4147
C10 C 1.3650(10) 0.1987(10) -0.5691(8)
H10 H 1.4207 0.1693 -0.5644
H11 H 1.3690 0.2398 -0.6012
C11 C 0.6880(9) 0.5817(10) -0.3043(7)
H12 H 0.6293 0.5945 -0.3077
H13 H 0.7004 0.6274 -0.2836
C12 C 0.8728(11) 0.4143(11) -0.1655(7)
H14 H 0.8637 0.3900 -0.1243
H15 H 0.8858 0.4667 -0.1594
C13 C 1.3132(11) 0.3152(10) -0.4256(8)
H16 H 1.3241 0.3485 -0.3951
C14 C 1.2534(10) 0.2467(10) -0.4781(7)
H17 H 1.2140 0.2217 -0.4909
C15 C 1.3663(11) 0.2814(10) -0.4757(7)
H18 H 1.4207 0.2863 -0.4852
C16 C 1.0373(11) 0.7248(10) -0.5672(7)
H19 H 1.0072 0.7666 -0.5401
C17 C 0.6642(11) 0.4440(11) -0.2640(9)
H20 H 0.6196 0.4500 -0.2869
C18 C 0.7085(9) 0.5063(9) -0.2646(7)
C19 C 0.7516(11) 0.3684(10) -0.1949(8)
H21 H 0.7646 0.3228 -0.1697
C20 C 1.0005(12) 0.3850(11) -0.2452(7)
H22 H 1.0060 0.4387 -0.2494
C21 C 0.6870(11) 0.3754(11) -0.2301(9)
H23 H 0.6592 0.3335 -0.2305
C22 C 1.4488(10) 0.8517(9) -0.5538(7)
H24 H 1.4091 0.8505 -0.5192
C23 C 0.7845(9) 0.5276(9) -0.4638(7)
H25 H 0.7929 0.4998 -0.5021
C24 C 1.2659(10) 0.7789(9) -0.6269(7)
H26 H 1.2550 0.7626 -0.5853
C25 C 1.2540(8) 0.0989(9) -0.6795(6)
C26 C 1.3469(10) 0.7743(10) -0.6517(7)
C27 C 0.7972(10) 0.6052(9) -0.3894(7)
H27 H 0.8150 0.6426 -0.3663
C28 C 1.6249(9) -0.2668(9) -0.9115(8)
H28 H 1.5982 -0.2795 -0.9442
C29 C 0.7761(10) 0.4959(9) -0.2312(7)
H29 H 0.8068 0.5356 -0.2326
C30 C 1.3527(9) 0.0170(8) -0.7961(7)
H30 H 1.3866 0.0191 -0.7653
C31 C 1.3086(8) -0.0137(8) -0.8798(7)
H31 H 1.3065 -0.0370 -0.9185
C32 C 2.5376(8) -0.4307(9) -0.9282(7)
H32 H 2.5738 -0.4711 -0.9090
C33 C 2.4756(8) -0.3486(8) -0.9978(7)
H33 H 2.4627 -0.3245 -1.0359
C34 C 1.6818(8) -0.0899(8) -0.9788(7)
H34 H 1.6839 -0.0585 -0.9440
C35 C 2.6808(8) -0.4299(8) -1.0465(6)
C36 C 1.9940(8) -0.3008(7) -0.9637(6)
H35 H 2.0358 -0.3029 -0.9973
C37 C 1.6549(8) -0.2048(8) -0.8345(7)
H36 H 1.6526 -0.1663 -0.8034
C38 C 2.4726(9) -0.3759(8) -0.8998(6)
H37 H 2.4553 -0.3735 -0.8566
C39 C 1.2431(11) 0.0304(10) -0.6444(8)
H38 H 1.2411 -0.0175 -0.6688
C40 C 1.2710(12) 0.0149(12) -0.5873(9)
H39 H 1.2659 -0.0329 -0.5661
C41 C 1.2160(11) 0.8364(9) -0.7209(7)
H40 H 1.1722 0.8562 -0.7439
C42 C 1.2933(9) 0.1539(9) -0.6538(6)
H41 H 1.3027 0.1995 -0.6763
C43 C 1.3073(9) 0.0706(10) -0.5603(7)
H42 H 1.3471 0.0485 -0.5311
C44 C 1.2962(11) 0.8369(10) -0.7469(8)
H43 H 1.3059 0.8583 -0.7870
C45 C 1.3184(9) 0.1384(9) -0.5927(6)
C46 C 2.7517(9) -0.4755(8) -1.0217(7)
H44 H 2.7496 -0.5248 -1.0017
C47 C 1.2015(10) 0.8059(9) -0.6596(7)
C48 C 2.7608(7) -0.2415(7) -1.1017(6)
H45 H 2.8174 -0.2361 -1.1119
H46 H 2.7357 -0.2351 -1.1405
C49 C 1.6366(8) -0.1405(8) -1.0544(7)
H47 H 1.6015 -0.1511 -1.0819
C50 C 1.0190(9) 0.2560(10) -0.2574(7)
H48 H 1.0410 0.2030 -0.2720
C51 C 2.8236(8) -0.4478(9) -1.0269(6)
H49 H 2.8701 -0.4804 -1.0125
C52 C 1.9701(8) -0.3703(8) -0.9441(6)
H50 H 1.9962 -0.4194 -0.9644
C53 C 1.2276(8) 0.1156(8) -0.7431(6)
H51 H 1.1696 0.1145 -0.7405
H52 H 1.2328 0.1702 -0.7554
C54 C 1.3627(11) 0.8051(10) -0.7132(8)
H53 H 1.4165 0.8043 -0.7311
C55 C 1.8682(8) -0.2948(8) -0.8666(7)
C56 C 2.6027(9) -0.4573(9) -1.0424(7)
H54 H 2.5820 -0.4492 -1.0830
H55 H 2.6135 -0.5152 -1.0335
C57 C 1.7925(8) -0.2910(8) -0.8163(6)
H56 H 1.7964 -0.3434 -0.7956
H57 H 1.7913 -0.2503 -0.7845
C58 C 2.7606(8) -0.3266(8) -1.0752(6)
C59 C 0.7973(10) 0.4265(9) -0.1960(6)
C60 C 1.1267(9) 0.6593(8) -0.6424(7)
H58 H 1.1696 0.6467 -0.6755
C61 C 2.8284(9) -0.3739(8) -1.0524(6)
H59 H 2.8770 -0.3557 -1.0544
C62 C 0.9547(10) 0.2787(9) -0.2124(8)
H60 H 0.9235 0.2451 -0.1907
C63 C 1.7456(8) -0.1449(8) -1.0084(6)
H61 H 1.7992 -0.1585 -0.9981
C64 C 1.0813(9) 0.6091(9) -0.6138(7)
H62 H 1.0870 0.5551 -0.6257
C65 C 1.4190(9) 0.7392(10) -0.6136(7)
H63 H 1.3975 0.7202 -0.5730
H64 H 1.4559 0.6930 -0.6362
C66 C 1.1145(9) 0.8109(8) -0.6304(7)
H65 H 1.1033 0.8457 -0.5932
H66 H 1.0776 0.8365 -0.6601
C67 C 2.6877(8) -0.3534(8) -1.0730(6)
H67 H 2.6427 -0.3205 -1.0892
C68 C 1.9080(8) -0.3692(8) -0.8949(7)
H68 H 1.8931 -0.4172 -0.8809
C69 C 1.6971(9) -0.3096(10) -0.8948(8)
H69 H 1.7283 -0.3581 -0.9135
C70 C 1.2460(8) 0.0375(8) -0.8463(6)
H70 H 1.1930 0.0560 -0.8572
N1 N 2.1923(6) -0.1769(7) -0.9082(5)
N2 N 2.0609(6) -0.1478(6) -0.9229(5)
N3 N 1.2400(9) 0.2918(9) -0.4274(7)
N4 N 1.0474(8) 0.3234(9) -0.2786(6)
N5 N 0.7352(8) 0.5705(8) -0.3685(6)
N6 N 1.4986(8) 0.9043(7) -0.5607(6)
N7 N 1.3279(7) 0.2394(8) -0.5099(6)
N8 N 1.6141(7) -0.0872(7) -1.0073(5)
N9 N 2.4345(7) -0.3235(7) -0.9435(5)
N10 N 2.5393(7) -0.4137(7) -0.9934(6)
N11 N 1.4645(8) 0.8011(8) -0.6038(6)
N12 N 1.3764(6) -0.0266(7) -0.8482(5)
N13 N 1.0960(8) 0.7331(7) -0.6123(6)
N14 N 1.7166(6) -0.2700(7) -0.8462(5)
N15 N 1.5980(7) -0.2005(6) -0.8712(6)
N16 N 1.0262(8) 0.6470(8) -0.5653(6)
N17 N 1.7162(7) -0.1772(7) -1.0573(5)
N18 N 0.8302(7) 0.5803(7) -0.4465(5)
N19 N 0.9439(8) 0.3603(8) -0.2046(6)
N20 N 1.2747(6) 0.0578(6) -0.7926(5)
Ag1A Ag 2.06763(7) -0.61087(7) -1.49588(5)
Ag2A Ag 1.51048(6) 0.10967(6) -1.13158(5)
Ag3_2 Ag 1.5000 -1.0000 -1.5000
Ag4_2 Ag 1.31775(6) -0.24112(6) -0.92706(5)
Ag4A Ag 0.68225(6) 0.24112(6) -1.07294(5)
Ag5_2 Ag 2.5000 0.0000 -1.0000
Ag6A Ag 1.86256(9) -0.31643(10) -1.64183(7)
C1A C 0.8487(8) 0.1138(8) -1.1308(7)
H1A H 0.8255 0.0885 -1.1597
C2A C 0.8633(7) 0.1956(7) -1.0606(6)
H2A H 0.8519 0.2372 -1.0305
C3A C 0.9299(8) 0.0935(8) -1.1204(6)
H3A H 0.9707 0.0509 -1.1393
C4A C 1.0131(8) 0.1500(8) -1.0476(6)
H4A H 1.0002 0.1484 -1.0020
H5A H 1.0563 0.1023 -1.0608
C5A C 1.0436(7) 0.2265(7) -1.0660(6)
C6A C 1.1072(8) 0.2235(7) -1.1142(6)
H6A H 1.1336 0.1740 -1.1339
C7A C 1.4513(9) -0.8848(10) -1.3808(7)
H7A H 1.4109 -0.9114 -1.3632
C8A C 1.4721(11) -0.8201(11) -1.3544(8)
H8A H 1.4485 -0.7942 -1.3162
C9A C 2.2743(10) -0.5235(11) -1.5846(8)
H9A H 2.3145 -0.4933 -1.5853
C10A C 1.6350(10) -0.1987(10) -1.4309(8)
H10A H 1.5793 -0.1693 -1.4356
H11A H 1.6310 -0.2398 -1.3988
C11A C 2.3120(9) -0.5817(10) -1.6957(7)
H12A H 2.3707 -0.5945 -1.6923
H13A H 2.2996 -0.6274 -1.7164
C12A C 2.1272(11) -0.4143(11) -1.8345(7)
H14A H 2.1363 -0.3900 -1.8757
H15A H 2.1142 -0.4667 -1.8406
C13A C 1.6868(11) -0.3152(10) -1.5744(8)
H16A H 1.6759 -0.3485 -1.6049
C14A C 1.7466(10) -0.2467(10) -1.5219(7)
H17A H 1.7860 -0.2217 -1.5091
C15A C 1.6337(11) -0.2814(10) -1.5243(7)
H18A H 1.5793 -0.2863 -1.5148
C16A C 1.9627(11) -0.7248(10) -1.4328(7)
H19A H 1.9928 -0.7666 -1.4599
C17A C 2.3358(11) -0.4440(11) -1.7360(9)
H20A H 2.3804 -0.4500 -1.7131
C18A C 2.2915(9) -0.5063(9) -1.7354(7)
C19A C 2.2484(11) -0.3684(10) -1.8051(8)
H21A H 2.2354 -0.3228 -1.8303
C20A C 1.9995(12) -0.3850(11) -1.7548(7)
H22A H 1.9940 -0.4387 -1.7506
C21A C 2.3130(11) -0.3754(11) -1.7699(9)
H23A H 2.3408 -0.3335 -1.7695
C22A C 1.5512(10) -0.8517(9) -1.4462(7)
H24A H 1.5909 -0.8505 -1.4808
C23A C 2.2155(9) -0.5276(9) -1.5362(7)
H25A H 2.2071 -0.4998 -1.4979
C24A C 1.7341(10) -0.7789(9) -1.3731(7)
H26A H 1.7450 -0.7626 -1.4147
C25A C 1.7460(8) -0.0989(9) -1.3205(6)
C26A C 1.6531(10) -0.7743(10) -1.3483(7)
C27A C 2.2028(10) -0.6052(9) -1.6106(7)
H27A H 2.1850 -0.6426 -1.6337
C28A C 1.3751(9) 0.2668(9) -1.0885(8)
H28A H 1.4018 0.2795 -1.0558
C29A C 2.2239(10) -0.4959(9) -1.7688(7)
H29A H 2.1932 -0.5356 -1.7674
C30A C 1.6473(9) -0.0170(8) -1.2039(7)
H30A H 1.6134 -0.0191 -1.2347
C31A C 1.6914(8) 0.0137(8) -1.1202(7)
H31A H 1.6935 0.0370 -1.0815
C32_2 C 1.5376(8) -0.4307(9) -0.9282(7)
H32_2 H 1.5738 -0.4711 -0.9090
C33_2 C 1.4756(8) -0.3486(8) -0.9978(7)
H33_2 H 1.4627 -0.3245 -1.0359
C34_2 C 2.6818(8) -0.0899(8) -0.9788(7)
H34_2 H 2.6839 -0.0585 -0.9440
C35_2 C 1.6808(8) -0.4299(8) -1.0465(6)
C36A C 1.0060(8) 0.3008(7) -1.0363(6)
H35A H 0.9642 0.3029 -1.0027
C37A C 1.3451(8) 0.2048(8) -1.1655(7)
H36A H 1.3474 0.1663 -1.1966
C38_2 C 1.4726(9) -0.3759(8) -0.8998(6)
H37_2 H 1.4553 -0.3735 -0.8566
C39A C 1.7569(11) -0.0304(10) -1.3556(8)
H38A H 1.7589 0.0175 -1.3312
C40A C 1.7290(12) -0.0149(12) -1.4127(9)
H39A H 1.7341 0.0329 -1.4339
C41A C 1.7840(11) -0.8364(9) -1.2791(7)
H40A H 1.8278 -0.8562 -1.2561
C42A C 1.7067(9) -0.1539(9) -1.3462(6)
H41A H 1.6973 -0.1995 -1.3237
C43A C 1.6927(9) -0.0706(10) -1.4397(7)
H42A H 1.6529 -0.0485 -1.4689
C44A C 1.7038(11) -0.8369(10) -1.2531(8)
H43A H 1.6941 -0.8583 -1.2130
C45A C 1.6816(9) -0.1384(9) -1.4073(6)
C46_2 C 1.7517(9) -0.4755(8) -1.0217(7)
H44_2 H 1.7496 -0.5248 -1.0017
C47A C 1.7985(10) -0.8059(9) -1.3404(7)
C48_2 C 1.7608(7) -0.2415(7) -1.1017(6)
H45_2 H 1.8174 -0.2361 -1.1119
H46_2 H 1.7357 -0.2351 -1.1405
C49_2 C 2.6366(8) -0.1405(8) -1.0544(7)
H47_2 H 2.6015 -0.1511 -1.0819
C50A C 1.9810(9) -0.2560(10) -1.7426(7)
H48A H 1.9590 -0.2030 -1.7280
C51_2 C 1.8236(8) -0.4478(9) -1.0269(6)
H49_2 H 1.8701 -0.4804 -1.0125
C52A C 1.0299(8) 0.3703(8) -1.0559(6)
H50A H 1.0038 0.4194 -1.0356
C53A C 1.7724(8) -0.1156(8) -1.2569(6)
H51A H 1.8304 -0.1145 -1.2595
H52A H 1.7672 -0.1702 -1.2446
C54A C 1.6373(11) -0.8051(10) -1.2868(8)
H53A H 1.5835 -0.8043 -1.2689
C55A C 1.1318(8) 0.2948(8) -1.1334(7)
C56_2 C 1.6027(9) -0.4573(9) -1.0424(7)
H54_2 H 1.5820 -0.4492 -1.0830
H55_2 H 1.6135 -0.5152 -1.0335
C57A C 1.2075(8) 0.2910(8) -1.1837(6)
H56A H 1.2036 0.3434 -1.2044
H57A H 1.2087 0.2503 -1.2155
C58_2 C 1.7606(8) -0.3266(8) -1.0752(6)
C59A C 2.2027(10) -0.4265(9) -1.8040(6)
C60A C 1.8733(9) -0.6593(8) -1.3576(7)
H58A H 1.8304 -0.6467 -1.3245
C61_2 C 1.8284(9) -0.3739(8) -1.0524(6)
H59_2 H 1.8770 -0.3557 -1.0544
C62A C 2.0453(10) -0.2787(9) -1.7876(8)
H60A H 2.0765 -0.2451 -1.8093
C63_2 C 2.7456(8) -0.1449(8) -1.0084(6)
H61_2 H 2.7992 -0.1585 -0.9981
C64A C 1.9187(9) -0.6091(9) -1.3862(7)
H62A H 1.9130 -0.5551 -1.3743
C65A C 1.5810(9) -0.7392(10) -1.3864(7)
H63A H 1.6025 -0.7202 -1.4270
H64A H 1.5441 -0.6930 -1.3638
C66A C 1.8855(9) -0.8109(8) -1.3696(7)
H65A H 1.8967 -0.8457 -1.4068
H66A H 1.9224 -0.8365 -1.3399
C67_2 C 1.6877(8) -0.3534(8) -1.0730(6)
H67_2 H 1.6427 -0.3205 -1.0892
C68A C 1.0920(8) 0.3692(8) -1.1051(7)
H68A H 1.1069 0.4172 -1.1191
C69A C 1.3029(9) 0.3096(10) -1.1052(8)
H69A H 1.2717 0.3581 -1.0865
C70A C 1.7540(8) -0.0375(8) -1.1537(6)
H70A H 1.8070 -0.0560 -1.1428
N1A N 0.8077(6) 0.1769(7) -1.0918(5)
N2A N 0.9391(6) 0.1478(6) -1.0771(5)
N3A N 1.7600(9) -0.2918(9) -1.5726(7)
N4A N 1.9526(8) -0.3234(9) -1.7214(6)
N5A N 2.2648(8) -0.5705(8) -1.6315(6)
N6A N 1.5014(8) 1.0957(7) -0.4393(6)
N6A_2 N 1.5014(8) -0.9043(7) -1.4393(6)
N7A N 1.6721(7) -0.2394(8) -1.4901(6)
N8A N 1.3859(7) 0.0872(7) -0.9927(5)
N8_2 N 2.6141(7) -0.0872(7) -1.0073(5)
N9_2 N 1.4345(7) -0.3235(7) -0.9435(5)
N9A N 0.5655(7) 0.3235(7) -1.0565(5)
N10_2 N 1.5393(7) -0.4137(7) -0.9934(6)
N11A N 1.5355(8) -0.8011(8) -1.3962(6)
N12A N 1.6236(6) 0.0266(7) -1.1518(5)
N13A N 1.9040(8) -0.7331(7) -1.3877(6)
N14A N 1.2834(6) 0.2700(7) -1.1538(5)
N15A N 1.4020(7) 0.2005(6) -1.1288(6)
N16A N 1.9738(8) -0.6470(8) -1.4347(6)
N17_2 N 2.7162(7) -0.1772(7) -1.0573(5)
N18A N 2.1698(7) -0.5803(7) -1.5535(5)
N19A N 2.0561(8) -0.3603(8) -1.7954(6)
N20A N 1.7253(6) -0.0578(6) -1.2074(5)
O2 O 0.5454(9) 0.6427(10) -0.7399(7)
O4 O 0.5176(11) 0.5836(11) -0.5285(8)
K1 K 0.14747(18) 0.05056(17) -0.52746(15)
K2 K 0.62831(17) 0.56759(17) -0.48032(13)
loop_
_geom_bond_atom_site_label_1
_geom_bond_atom_site_label_2
_geom_bond_site_symmetry_1
_geom_bond_site_symmetry_2
W1 O3 1_555 1_555
W2 O7 1_555 1_555
W3 O20 1_555 1_555
W4 O1 1_555 1_555
W5 O16 1_555 1_555
W6 O11 1_555 1_555
W7 O13 1_555 1_555
W8 O10 1_555 1_555
W9 O30 1_555 1_555
W10 O9 1_555 1_555
W11 O1 1_555 1_555
W12 O6 1_555 1_555
W13 O6 1_555 1_555
W14 O8 1_555 1_555
W15 O5 1_555 1_555
W16 O5 1_555 1_555
W17 O9 1_555 1_555
W18 O8 1_555 1_555
Ag1 N16 1_555 1_555
Ag2 Ag5 1_555 1_555
Ag3 N6 1_555 1_555
Ag4 N1 1_555 1_555
Ag5 N8 1_555 1_555
Ag6 N3 1_555 1_555
P1 O22 1_555 1_555
P2 O34 1_555 1_555
O3 W11 1_555 1_555
O7 W16 1_555 1_555
O11 W12 1_555 1_555
O12 W1 1_555 1_555
O13 W17 1_555 1_555
O14 W17 1_555 1_555
O15 W7 1_555 1_555
O16 W12 1_555 1_555
O17 W5 1_555 1_555
O18 W2 1_555 1_555
O19 W4 1_555 1_555
O20 W7 1_555 1_555
O21 W11 1_555 1_555
O22 W14 1_555 1_555
O23 W3 1_555 1_555
O24 W4 1_555 1_555
O25 W2 1_555 1_555
O26 W5 1_555 1_555
O27 W2 1_555 1_555
O28 W4 1_555 1_555
O29 W14 1_555 1_555
O30 W16 1_555 1_555
O31 W17 1_555 1_555
O32 W16 1_555 1_555
O33 W8 1_555 1_555
O34 W3 1_555 1_555
O35 W9 1_555 1_555
O36 W3 1_555 1_555
O37 W4 1_555 1_555
O38 W10 1_555 1_555
O39 W6 1_555 1_555
O40 W3 1_555 1_555
O41 W10 1_555 1_555
O42 W12 1_555 1_555
O43 W8 1_555 1_555
O44 W1 1_555 1_555
O45 W6 1_555 1_555
O46 W1 1_555 1_555
O47 W7 1_555 1_555
O48 W15 1_555 1_555
O49 W4 1_555 1_555
O50 W6 1_555 1_555
O51 W9 1_555 1_555
O52 W18 1_555 1_555
O53 W15 1_555 1_555
O54 W8 1_555 1_555
O55 W1 1_555 1_555
O56 W5 1_555 1_555
O57 W14 1_555 1_555
O58 W13 1_555 1_555
O59 W15 1_555 1_555
O60 W2 1_555 1_555
O61 W11 1_555 1_555
O62 W1 1_555 1_555
O63 W5 1_555 1_555
O64 W2 1_555 1_555
C1 H1 1_555 1_555
C2 H2 1_555 1_555
C3 C1 1_555 1_555
H3 C3 1_555 1_555
C4 H4 1_555 1_555
H5 C4 1_555 1_555
C5 C4 1_555 1_555
C6 C5 1_555 1_555
H6 C6 1_555 1_555
C7 H7 1_555 1_555
C8 C7 1_555 1_555
H8 C8 1_555 1_555
C9 H9 1_555 1_555
C10 H10 1_555 1_555
H11 C10 1_555 1_555
C11 H12 1_555 1_555
H13 C11 1_555 1_555
C12 H14 1_555 1_555
H15 C12 1_555 1_555
C13 H16 1_555 1_555
C14 H17 1_555 1_555
C15 C13 1_555 1_555
H18 C15 1_555 1_555
C16 H19 1_555 1_555
C17 H20 1_555 1_555
C18 C11 1_555 1_555
C19 H21 1_555 1_555
C20 H22 1_555 1_555
C21 C17 1_555 1_555
H23 C21 1_555 1_555
C22 H24 1_555 1_555
C23 C9 1_555 1_555
H25 C23 1_555 1_555
C24 H26 1_555 1_555
C25 C39 1_555 1_555
C26 C24 1_555 1_555
C27 H27 1_555 1_555
C28 H28 1_555 1_555
C29 C18 1_555 1_555
H29 C29 1_555 1_555
C30 H30 1_555 1_555
C31 H31 1_555 1_555
C32 H32 1_555 1_555
C33 H33 1_555 1_555
C34 H34 1_555 1_555
C35 C46 1_555 1_555
C36 C5 1_555 1_555
H35 C36 1_555 1_555
C37 H36 1_555 1_555
C38 C32 1_555 1_555
H37 C38 1_555 1_555
C39 H38 1_555 1_555
C40 C39 1_555 1_555
H39 C40 1_555 1_555
C41 H40 1_555 1_555
C42 C25 1_555 1_555
H41 C42 1_555 1_555
C43 C40 1_555 1_555
H42 C43 1_555 1_555
C44 C41 1_555 1_555
H43 C44 1_555 1_555
C45 C10 1_555 1_555
C46 H44 1_555 1_555
C47 C24 1_555 1_555
C48 H45 1_555 1_555
H46 C48 1_555 1_555
C49 H47 1_555 1_555
C50 H48 1_555 1_555
C51 C46 1_555 1_555
H49 C51 1_555 1_555
C52 C36 1_555 1_555
H50 C52 1_555 1_555
C53 C25 1_555 1_555
H51 C53 1_555 1_555
H52 C53 1_555 1_555
C54 C26 1_555 1_555
H53 C54 1_555 1_555
C55 C6 1_555 1_555
C56 C35 1_555 1_555
H54 C56 1_555 1_555
H55 C56 1_555 1_555
C57 C55 1_555 1_555
H56 C57 1_555 1_555
H57 C57 1_555 1_555
C58 C48 1_555 1_555
C59 C12 1_555 1_555
C60 H58 1_555 1_555
C61 C51 1_555 1_555
H59 C61 1_555 1_555
C62 C50 1_555 1_555
H60 C62 1_555 1_555
C63 C34 1_555 1_555
H61 C63 1_555 1_555
C64 C60 1_555 1_555
H62 C64 1_555 1_555
C65 C26 1_555 1_555
H63 C65 1_555 1_555
H64 C65 1_555 1_555
C66 C47 1_555 1_555
H65 C66 1_555 1_555
H66 C66 1_555 1_555
C67 C35 1_555 1_555
H67 C67 1_555 1_555
C68 C52 1_555 1_555
H68 C68 1_555 1_555
C69 C28 1_555 1_555
H69 C69 1_555 1_555
C70 C31 1_555 1_555
H70 C70 1_555 1_555
N1 C1 1_555 1_555
N2 C2 1_555 1_555
N3 C13 1_555 1_555
N4 Ag6 1_555 1_555
N5 C9 1_555 1_555
N6 C7 1_555 1_555
N7 C10 1_555 1_555
N8 C34 1_555 1_555
N9 Ag4 1_555 1_555
N10 C32 1_555 1_555
N11 C8 1_555 1_555
N12 Ag2 1_555 1_555
N13 C16 1_555 1_555
N14 C37 1_555 1_555
N15 Ag2 1_555 1_555
N16 C16 1_555 1_555
N17 C49 1_555 1_555
N18 Ag1 1_555 1_555
N19 C12 1_555 1_555
N20 C30 1_555 1_555
Ag1A N16A 1_555 1_555
Ag2A Ag5 1_555 1_555
Ag3_2 N6A_2 1_555 1_555
Ag4_2 N9_2 1_555 1_555
Ag4A N1A 1_555 1_555
Ag5_2 N8_2 1_555 1_555
Ag6A N3A 1_555 1_555
C1A H1A 1_555 1_555
C2A H2A 1_555 1_555
C3A C1A 1_555 1_555
H3A C3A 1_555 1_555
C4A H4A 1_555 1_555
H5A C4A 1_555 1_555
C5A C4A 1_555 1_555
C6A C5A 1_555 1_555
H6A C6A 1_555 1_555
C7A H7A 1_555 1_555
C8A C7A 1_555 1_555
H8A C8A 1_555 1_555
C9A H9A 1_555 1_555
C10A H10A 1_555 1_555
H11A C10A 1_555 1_555
C11A H12A 1_555 1_555
H13A C11A 1_555 1_555
C12A H14A 1_555 1_555
H15A C12A 1_555 1_555
C13A H16A 1_555 1_555
C14A H17A 1_555 1_555
C15A C13A 1_555 1_555
H18A C15A 1_555 1_555
C16A H19A 1_555 1_555
C17A H20A 1_555 1_555
C18A C11A 1_555 1_555
C19A H21A 1_555 1_555
C20A H22A 1_555 1_555
C21A C17A 1_555 1_555
H23A C21A 1_555 1_555
C22A H24A 1_555 1_555
C23A C9A 1_555 1_555
H25A C23A 1_555 1_555
C24A H26A 1_555 1_555
C25A C39A 1_555 1_555
C26A C24A 1_555 1_555
C27A H27A 1_555 1_555
C28A H28A 1_555 1_555
C29A C18A 1_555 1_555
H29A C29A 1_555 1_555
C30A H30A 1_555 1_555
C31A H31A 1_555 1_555
C32_2 H32_2 1_555 1_555
C33_2 H33_2 1_555 1_555
C34_2 H34_2 1_555 1_555
C35_2 C46_2 1_555 1_555
C36A C5A 1_555 1_555
H35A C36A 1_555 1_555
C37A H36A 1_555 1_555
C38_2 C32_2 1_555 1_555
H37_2 C38_2 1_555 1_555
C39A H38A 1_555 1_555
C40A C39A 1_555 1_555
H39A C40A 1_555 1_555
C41A H40A 1_555 1_555
C42A C25A 1_555 1_555
H41A C42A 1_555 1_555
C43A C40A 1_555 1_555
H42A C43A 1_555 1_555
C44A C41A 1_555 1_555
H43A C44A 1_555 1_555
C45A C10A 1_555 1_555
C46_2 H44_2 1_555 1_555
C47A C24A 1_555 1_555
C48_2 N17 1_555 1_555
H45_2 C48_2 1_555 1_555
H46_2 C48_2 1_555 1_555
C49_2 H47_2 1_555 1_555
C50A H48A 1_555 1_555
C51_2 C46_2 1_555 1_555
H49_2 C51_2 1_555 1_555
C52A C36A 1_555 1_555
H50A C52A 1_555 1_555
C53A C25A 1_555 1_555
H51A C53A 1_555 1_555
H52A C53A 1_555 1_555
C54A C26A 1_555 1_555
H53A C54A 1_555 1_555
C55A C6A 1_555 1_555
C56_2 C35_2 1_555 1_555
H54_2 C56_2 1_555 1_555
H55_2 C56_2 1_555 1_555
C57A C55A 1_555 1_555
H56A C57A 1_555 1_555
H57A C57A 1_555 1_555
C58_2 C48_2 1_555 1_555
C59A C12A 1_555 1_555
C60A H58A 1_555 1_555
C61_2 C51_2 1_555 1_555
H59_2 C61_2 1_555 1_555
C62A C50A 1_555 1_555
H60A C62A 1_555 1_555
C63_2 C34_2 1_555 1_555
H61_2 C63_2 1_555 1_555
C64A C60A 1_555 1_555
H62A C64A 1_555 1_555
C65A C26A 1_555 1_555
H63A C65A 1_555 1_555
H64A C65A 1_555 1_555
C66A C47A 1_555 1_555
H65A C66A 1_555 1_555
H66A C66A 1_555 1_555
C67_2 C35_2 1_555 1_555
H67_2 C67_2 1_555 1_555
C68A C52A 1_555 1_555
H68A C68A 1_555 1_555
C69A C28A 1_555 1_555
H69A C69A 1_555 1_555
C70A C31A 1_555 1_555
H70A C70A 1_555 1_555
N1A C1A 1_555 1_555
N2A C2A 1_555 1_555
N3A C13A 1_555 1_555
N4A Ag6A 1_555 1_555
N5A C9A 1_555 1_555
N6A Ag3 1_555 1_555
N6A_2 C7A 1_555 1_555
N7A C10A 1_555 1_555
N8A Ag5 1_555 1_555
N8_2 C34_2 1_555 1_555
N9_2 C33_2 1_555 1_555
N9A Ag4A 1_555 1_555
N10_2 C32_2 1_555 1_555
N11A C8A 1_555 1_555
N12A Ag2A 1_555 1_555
N13A C16A 1_555 1_555
N14A C37A 1_555 1_555
N15A Ag2A 1_555 1_555
N16A C16A 1_555 1_555
N17_2 C48 1_555 1_555
N18A Ag1A 1_555 1_555
N19A C12A 1_555 1_555
N20A C30A 1_555 1_555
W3 O60 1_555 1_555
W5 O49 1_555 1_555
W6 O24 1_555 1_555
W6 O37 1_555 1_555
W7 O17 1_555 1_555
W7 O34 1_555 1_555
W8 O23 1_555 1_555
W8 O27 1_555 1_555
W9 O33 1_555 1_555
W9 O46 1_555 1_555
W9 O54 1_555 1_555
W10 O15 1_555 1_555
W10 O18 1_555 1_555
W10 O64 1_555 1_555
W11 O24 1_555 1_555
W11 O45 1_555 1_555
W12 O36 1_555 1_555
W12 O56 1_555 1_555
W13 O43 1_555 1_555
W13 O44 1_555 1_555
W13 O50 1_555 1_555
W13 O55 1_555 1_555
W14 O12 1_555 1_555
W14 O21 1_555 1_555
W15 O29 1_555 1_555
W15 O51 1_555 1_555
W16 O38 1_555 1_555
W16 O64 1_555 1_555
W17 O48 1_555 1_555
W17 O53 1_555 1_555
W18 O14 1_555 1_555
W18 O19 1_555 1_555
W18 O22 1_555 1_555
W18 O26 1_555 1_555
P1 O24 1_555 1_555
P1 O55 1_555 1_555
P1 O56 1_555 1_555
P2 O53 1_555 1_555
P2 O54 1_555 1_555
P2 O64 1_555 1_555
C2 N1 1_555 1_555
C3 N2 1_555 1_555
C4 N2 1_555 1_555
C11 N5 1_555 1_555
C14 N3 1_555 1_555
C14 N7 1_555 1_555
C15 N7 1_555 1_555
C17 C18 1_555 1_555
C19 C21 1_555 1_555
C19 C59 1_555 1_555
C20 N4 1_555 1_555
C20 N19 1_555 1_555
C22 N6 1_555 1_555
C22 N11 1_555 1_555
C23 N18 1_555 1_555
C27 N5 1_555 1_555
C27 N18 1_555 1_555
C28 N15 1_555 1_555
C29 C59 1_555 1_555
C30 N12 1_555 1_555
C31 N12 1_555 1_555
C33 N9 1_555 1_555
C33 N10 1_555 1_555
C37 N15 1_555 1_555
C38 N9 1_555 1_555
C41 C47 1_555 1_555
C42 C45 1_555 1_555
C43 C45 1_555 1_555
C44 C54 1_555 1_555
C49 N8 1_555 1_555
C50 N4 1_555 1_555
C53 N20 1_555 1_555
C55 C68 1_555 1_555
C56 N10 1_555 1_555
C57 N14 1_555 1_555
C58 C61 1_555 1_555
C58 C67 1_555 1_555
C60 N13 1_555 1_555
C62 N19 1_555 1_555
C63 N17 1_555 1_555
C64 N16 1_555 1_555
C65 N11 1_555 1_555
C66 N13 1_555 1_555
C69 N14 1_555 1_555
C70 N20 1_555 1_555
C2A N1A 1_555 1_555
C3A N2A 1_555 1_555
C4A N2A 1_555 1_555
C11A N5A 1_555 1_555
C14A N3A 1_555 1_555
C14A N7A 1_555 1_555
C15A N7A 1_555 1_555
C17A C18A 1_555 1_555
C19A C21A 1_555 1_555
C19A C59A 1_555 1_555
C20A N4A 1_555 1_555
C20A N19A 1_555 1_555
C22A N6A_2 1_555 1_555
C22A N11A 1_555 1_555
C23A N18A 1_555 1_555
C27A N5A 1_555 1_555
C27A N18A 1_555 1_555
C28A N15A 1_555 1_555
C29A C59A 1_555 1_555
C30A N12A 1_555 1_555
C31A N12A 1_555 1_555
C33_2 N10_2 1_555 1_555
C37A N15A 1_555 1_555
C38_2 N9_2 1_555 1_555
C41A C47A 1_555 1_555
C42A C45A 1_555 1_555
C43A C45A 1_555 1_555
C44A C54A 1_555 1_555
C49_2 N8_2 1_555 1_555
C49_2 N17_2 1_555 1_555
C50A N4A 1_555 1_555
C53A N20A 1_555 1_555
C55A C68A 1_555 1_555
C56_2 N10_2 1_555 1_555
C57A N14A 1_555 1_555
C58_2 C61_2 1_555 1_555
C58_2 C67_2 1_555 1_555
C60A N13A 1_555 1_555
C62A N19A 1_555 1_555
C63_2 N17_2 1_555 1_555
C64A N16A 1_555 1_555
C65A N11A 1_555 1_555
C66A N13A 1_555 1_555
C69A N14A 1_555 1_555
C70A N20A 1_555 1_555

#END
