
#######################################################################
#
#                 Cambridge Crystallographic Data Centre
#                                CCDC 
#
#######################################################################
#
# If this CIF has been generated from an entry in the Cambridge 
# Structural Database, then it will include bibliographic, chemical, 
# crystal, experimental, refinement or atomic coordinate data resulting 
# from the CCDC's data processing and validation procedures.
#
#######################################################################

data_ZECXIQ
_symmetry_cell_setting           triclinic
_symmetry_space_group_name_H-M   'P -1'
_symmetry_Int_Tables_number      2
_space_group_name_Hall           '-P 1'
loop_
_symmetry_equiv_pos_site_id
_symmetry_equiv_pos_as_xyz
1 x,y,z
2 -x,-y,-z
_cell_length_a                   12.5035(4)
_cell_length_b                   13.6536(5)
_cell_length_c                   14.4885(5)
_cell_angle_alpha                115.173(1)
_cell_angle_beta                 91.440(1)
_cell_angle_gamma                107.595(1)
_cell_volume                     2099.67
loop_
_atom_site_label
_atom_site_type_symbol
_atom_site_fract_x
_atom_site_fract_y
_atom_site_fract_z
Ag1 Ag 0.5000 1.0000 1.0000
Ag3 Ag 0.0000 0.0000 1.0000
N3 N 0.4605(7) 0.8247(6) 0.9378(7)
N4 N 0.0475(6) 0.1264(6) 0.7828(5)
N7 N 0.4372(6) 0.6559(6) 0.9276(5)
N8 N 0.0122(6) 0.0245(6) 0.8698(6)
C1 C 0.0748(10) 0.3829(9) 0.9321(8)
H1 H -0.0032 0.3462 0.9243
C3 C 0.1326(10) 0.4840(9) 1.0221(8)
H4 H 0.0939 0.5129 1.0756
C5 C 0.4609(8) 0.7672(8) 0.9909(8)
H6 H 0.4756 0.7999 1.0628
C8 C -0.0057(8) -0.0485(8) 0.7670(7)
H9 H -0.0295 -0.1285 0.7383
C10 C 0.2469(10) 0.5410(9) 1.0319(7)
H10 H 0.2846 0.6085 1.0921
C11 C 0.0160(8) 0.0121(9) 0.7134(7)
H11 H 0.0107 -0.0179 0.6419
C13 C 0.4188(8) 0.6405(8) 0.8280(7)
H13 H 0.4001 0.5717 0.7674
C15 C 0.4279(8) 0.5656(8) 0.9608(7)
H15 H 0.4674 0.6012 1.0318
H16 H 0.4642 0.5133 0.9174
C16 C 0.4335(8) 0.7461(9) 0.8364(9)
H17 H 0.4262 0.7626 0.7810
C17 C 0.3067(9) 0.4996(8) 0.9538(7)
C19 C 0.0440(8) 0.1296(8) 0.8766(7)
H19 H 0.0616 0.1970 0.9385
C20 C 0.2485(9) 0.3953(8) 0.8649(7)
H20 H 0.2877 0.3648 0.8123
C26 C 0.1333(9) 0.3377(8) 0.8550(7)
C27 C 0.0742(9) 0.2258(9) 0.7594(8)
H26 H 0.0042 0.2278 0.7312
H27 H 0.1228 0.2164 0.7074
Ag3_2 Ag 1.0000 2.0000 1.0000
N3A N 0.5395(7) 1.1753(6) 1.0622(7)
N4A N 0.9525(6) 1.8736(6) 1.2172(5)
N7A N 0.5628(6) 1.3441(6) 1.0724(5)
N8A N 0.9878(6) 1.9755(6) 1.1302(6)
N8A_2 N -0.0122(6) -0.0245(6) 1.1302(6)
C1A C 0.9252(10) 1.6171(9) 1.0679(8)
H1A H 1.0032 1.6538 1.0757
C3A C 0.8674(10) 1.5160(9) 0.9779(8)
H4A H 0.9061 1.4871 0.9244
C5A C 0.5391(8) 1.2328(8) 1.0091(8)
H6A H 0.5244 1.2001 0.9372
C8A C 1.0057(8) 2.0485(8) 1.2330(7)
H9A H 1.0295 2.1285 1.2617
C10A C 0.7531(10) 1.4590(9) 0.9681(7)
H10A H 0.7154 1.3915 0.9079
C11A C 0.9840(8) 1.9879(9) 1.2866(7)
H11A H 0.9893 2.0179 1.3581
C13A C 0.5812(8) 1.3595(8) 1.1720(7)
H13A H 0.5999 1.4283 1.2326
C15A C 0.5721(8) 1.4344(8) 1.0392(7)
H15A H 0.5326 1.3988 0.9682
H16A H 0.5358 1.4867 1.0826
C16A C 0.5665(8) 1.2539(9) 1.1636(9)
H17A H 0.5738 1.2374 1.2190
C17A C 0.6933(9) 1.5004(8) 1.0462(7)
C19A C 0.9560(8) 1.8704(8) 1.1234(7)
H19A H 0.9384 1.8030 1.0615
C20A C 0.7515(9) 1.6047(8) 1.1351(7)
H20A H 0.7123 1.6352 1.1877
C26A C 0.8667(9) 1.6623(8) 1.1450(7)
C27A C 0.9258(9) 1.7742(9) 1.2406(8)
H26A H 0.9958 1.7722 1.2688
H27A H 0.8772 1.7836 1.2926
Ag2 Ag -0.24999(6) -0.01821(6) 0.99544(5)
N1 N 0.3050(6) 0.3419(6) 1.2588(6)
N2 N -0.1956(6) 0.1614(6) 1.0915(5)
N5 N -0.1275(6) 0.3273(6) 1.2314(5)
N6 N 0.2779(6) 0.1914(6) 1.1097(6)
C2 C 0.3132(9) 0.4088(9) 1.3706(8)
H2 H 0.3443 0.4904 1.3895
H3 H 0.3651 0.3916 1.4073
C4 C 0.2822(8) 0.2848(9) 1.0920(8)
H5 H 0.2761 0.2838 1.0276
C6 C 0.2969(8) 0.3778(9) 1.1850(9)
H7 H 0.3006 0.4511 1.1960
C7 C 0.2927(8) 0.2299(8) 1.2096(7)
H8 H 0.2944 0.1852 1.2430
C9 C 0.1990(8) 0.3824(8) 1.4033(7)
C12 C -0.1698(7) 0.2129(7) 1.1925(7)
H12 H -0.1798 0.1741 1.2327
C14 C 0.1703(10) 0.3236(8) 1.4607(8)
H14 H 0.2253 0.3035 1.4856
C18 C -0.1699(8) 0.2497(8) 1.0643(8)
H18 H -0.1794 0.2400 0.9967
C21 C 0.0612(10) 0.2933(9) 1.4826(8)
H21 H 0.0430 0.2532 1.5216
C22 C -0.1294(8) 0.3512(8) 1.1487(8)
H22 H -0.1069 0.4238 1.1511
C23 C 0.0044(8) 0.3815(7) 1.3879(7)
C24 C -0.0844(8) 0.4098(8) 1.3415(7)
H23 H -0.1473 0.4082 1.3793
H24 H -0.0514 0.4871 1.3481
C25 C -0.0185(10) 0.3234(8) 1.4461(8)
H25 H -0.0914 0.3037 1.4614
C28 C 0.1146(8) 0.4125(7) 1.3667(7)
H28 H 0.1323 0.4532 1.3282
Ag2A Ag 0.24999(6) 0.01821(6) 1.00456(5)
N1A N -0.3050(6) -0.3419(6) 0.7412(6)
N2A N 0.1956(6) -0.1614(6) 0.9085(5)
N5A N 0.1275(6) -0.3273(6) 0.7686(5)
N6A N -0.2779(6) -0.1914(6) 0.8903(6)
C2A C -0.3132(9) -0.4088(9) 0.6294(8)
H2A H -0.3443 -0.4904 0.6105
H3A H -0.3651 -0.3916 0.5927
C4A C -0.2822(8) -0.2848(9) 0.9080(8)
H5A H -0.2761 -0.2838 0.9724
C6A C -0.2969(8) -0.3778(9) 0.8150(9)
H7A H -0.3006 -0.4511 0.8040
C7A C -0.2927(8) -0.2299(8) 0.7904(7)
H8A H -0.2944 -0.1852 0.7570
C9A C -0.1990(8) -0.3824(8) 0.5967(7)
C12A C 0.1698(7) -0.2129(7) 0.8075(7)
H12A H 0.1798 -0.1741 0.7673
C14A C -0.1703(10) -0.3236(8) 0.5393(8)
H14A H -0.2253 -0.3035 0.5144
C18A C 0.1699(8) -0.2497(8) 0.9357(8)
H18A H 0.1794 -0.2400 1.0033
C21A C -0.0612(10) -0.2933(9) 0.5174(8)
H21A H -0.0430 -0.2532 0.4784
C22A C 0.1294(8) -0.3512(8) 0.8513(8)
H22A H 0.1069 -0.4238 0.8489
C23A C -0.0044(8) -0.3815(7) 0.6121(7)
C24A C 0.0844(8) -0.4098(8) 0.6585(7)
H23A H 0.1473 -0.4082 0.6207
H24A H 0.0514 -0.4871 0.6519
C25A C 0.0185(10) -0.3234(8) 0.5539(8)
H25A H 0.0914 -0.3037 0.5386
C28A C -0.1146(8) -0.4125(7) 0.6333(7)
H28A H -0.1323 -0.4532 0.6718
Si1 Si 0.5000 0.0000 0.5000
W1 W 0.60024(3) 0.22948(3) 0.43647(3)
W2 W 0.35977(3) -0.01417(3) 0.27832(3)
W3 W 0.75325(3) 0.23414(3) 0.64748(3)
W4 W 0.51456(4) -0.27145(3) 0.33554(3)
W5 W 0.63431(3) -0.03638(3) 0.28202(3)
W6 W 0.76302(3) -0.04392(3) 0.49714(4)
O2 O 0.8805(18) -0.0793(18) 0.4913(16)
O3 O 0.5230(6) -0.4003(6) 0.2598(5)
O4 O 0.6944(6) -0.0549(7) 0.1765(5)
O6 O 0.8372(10) 0.1295(10) 0.5878(9)
O7 O 0.8716(6) 0.3455(6) 0.7192(5)
O8 O 0.6529(7) 0.3404(7) 0.4084(8)
O9 O 0.5662(8) 0.1358(8) 0.5411(7)
O10 O 0.2941(8) -0.0171(7) 0.1742(6)
O11 O 0.6214(8) 0.0399(8) 0.5744(7)
O12 O 0.4823(6) -0.0569(6) 0.2284(6)
O13 O 0.4633(6) 0.1441(7) 0.3446(6)
O14 O 0.5796(9) -0.0674(9) 0.4211(8)
O16 O 0.2472(11) 0.0382(10) 0.3585(10)
O18 O 0.6531(11) 0.3219(11) 0.7091(9)
O20 O 0.3061(10) -0.1491(10) 0.2846(9)
O22 O 0.7397(11) 0.2886(12) 0.5409(9)
O24 O 0.5127(11) 0.2643(12) 0.5409(10)
O25 O 0.6646(6) 0.1215(6) 0.3436(6)
O27 O 0.6445(10) -0.1773(10) 0.4411(9)
O28 O 0.5160(8) 0.0362(8) 0.4107(7)
O30 O 0.5808(10) -0.2119(10) 0.2348(9)
O32 O 0.7305(9) -0.0087(9) 0.3949(8)
W1A W 0.39976(3) -0.22948(3) 0.56353(3)
W2A W 0.64023(3) 0.01417(3) 0.72168(3)
W3A W 0.24675(3) -0.23414(3) 0.35252(3)
W4A W 0.48544(4) 0.27145(3) 0.66446(3)
W5A W 0.36569(3) 0.03638(3) 0.71798(3)
W6A W 0.23698(3) 0.04392(3) 0.50286(4)
O2A O 0.1195(18) 0.0793(18) 0.5087(16)
O3A O 0.4770(6) 0.4003(6) 0.7402(5)
O4A O 0.3056(6) 0.0549(7) 0.8235(5)
O6A O 0.1628(10) -0.1295(10) 0.4122(9)
O7A O 0.1284(6) -0.3455(6) 0.2808(5)
O8A O 0.3471(7) -0.3404(7) 0.5916(8)
O9A O 0.4338(8) -0.1358(8) 0.4589(7)
O10A O 0.7059(8) 0.0171(7) 0.8258(6)
O11A O 0.3786(8) -0.0399(8) 0.4256(7)
O12A O 0.5177(6) 0.0569(6) 0.7716(6)
O13A O 0.5367(6) -0.1441(7) 0.6554(6)
O14A O 0.4204(9) 0.0674(9) 0.5789(8)
O16A O 0.7528(11) -0.0382(10) 0.6415(10)
O18A O 0.3469(11) -0.3219(11) 0.2909(9)
O20A O 0.6939(10) 0.1491(10) 0.7154(9)
O22A O 0.2603(11) -0.2886(12) 0.4591(9)
O24A O 0.4873(11) -0.2643(12) 0.4591(10)
O25A O 0.3354(6) -0.1215(6) 0.6564(6)
O27A O 0.3555(10) 0.1773(10) 0.5589(9)
O28A O 0.4840(8) -0.0362(8) 0.5893(7)
O30A O 0.4192(10) 0.2119(10) 0.7652(9)
O32A O 0.2695(9) 0.0087(9) 0.6051(8)
O1? O 0.8912(16) -0.0579(17) 0.4900(14)
O5? O 0.7884(10) 0.1142(10) 0.5511(9)
O15? O 0.7052(10) -0.0541(10) 0.6013(9)
O17? O 0.6204(10) 0.2692(11) 0.7017(8)
O19? O 0.2547(11) -0.1713(10) 0.2434(10)
O21? O 0.7136(10) 0.2342(11) 0.5329(8)
O23? O 0.5435(11) 0.3192(12) 0.5501(10)
O26? O 0.3193(10) 0.2122(10) 0.6009(9)
O29? O 0.4532(10) 0.1767(10) 0.7226(9)
O31? O 0.7687(10) -0.0369(10) 0.3538(9)
loop_
_geom_bond_atom_site_label_1
_geom_bond_atom_site_label_2
_geom_bond_site_symmetry_1
_geom_bond_site_symmetry_2
Si1 O9 1_555 1_555
W1 O8 1_555 1_555
W2 O10 1_555 1_555
W3 O6 1_555 1_555
W4 O3 1_555 1_555
W5 O4 1_555 1_555
W6 O2 1_555 1_555
Ag1 N3 1_555 1_555
Ag2 N2 1_555 1_555
Ag3 N8 1_555 1_555
N1 C2 1_555 1_555
N2 C12 1_555 1_555
N3 C5 1_555 1_555
N4 C11 1_555 1_555
N5 C12 1_555 1_555
N6 C4 1_555 1_555
N7 C5 1_555 1_555
N8 C8 1_555 1_555
C1 H1 1_555 1_555
C2 H2 1_555 1_555
H3 C2 1_555 1_555
C3 C1 1_555 1_555
H4 C3 1_555 1_555
C4 H5 1_555 1_555
C5 H6 1_555 1_555
C6 N1 1_555 1_555
H7 C6 1_555 1_555
C7 N1 1_555 1_555
H8 C7 1_555 1_555
C8 H9 1_555 1_555
C9 C2 1_555 1_555
C10 C3 1_555 1_555
H10 C10 1_555 1_555
C11 C8 1_555 1_555
H11 C11 1_555 1_555
C12 H12 1_555 1_555
C13 N7 1_555 1_555
H13 C13 1_555 1_555
C14 C9 1_555 1_555
H14 C14 1_555 1_555
C15 N7 1_555 1_555
H15 C15 1_555 1_555
H16 C15 1_555 1_555
C16 N3 1_555 1_555
H17 C16 1_555 1_555
C17 C10 1_555 1_555
C18 N2 1_555 1_555
H18 C18 1_555 1_555
C19 N4 1_555 1_555
H19 C19 1_555 1_555
C20 C17 1_555 1_555
H20 C20 1_555 1_555
C21 C14 1_555 1_555
H21 C21 1_555 1_555
C22 N5 1_555 1_555
H22 C22 1_555 1_555
C23 C24 1_555 1_555
C24 N5 1_555 1_555
H23 C24 1_555 1_555
H24 C24 1_555 1_555
C25 C21 1_555 1_555
H25 C25 1_555 1_555
C26 C1 1_555 1_555
C27 N4 1_555 1_555
H26 C27 1_555 1_555
H27 C27 1_555 1_555
C28 C9 1_555 1_555
H28 C28 1_555 1_555
O6 W6 1_555 1_555
O7 W3 1_555 1_555
O9 W1 1_555 1_555
O11 Si1 1_555 1_555
O12 W2 1_555 1_555
O13 W1 1_555 1_555
O14 Si1 1_555 1_555
O16 W2 1_555 1_555
O18 W3 1_555 1_555
O20 W2 1_555 1_555
O22 W1 1_555 1_555
O24 W1 1_555 1_555
O25 W1 1_555 1_555
O27 W4 1_555 1_555
O28 Si1 1_555 1_555
O30 W4 1_555 1_555
O32 W5 1_555 1_555
W1A O8A 1_555 1_555
W2A O11 1_555 1_555
W3A O20 1_555 1_555
W4A O9 1_555 1_555
W5A O4A 1_555 1_555
W6A O16 1_555 1_555
Ag2A N6 1_555 1_555
Ag3_2 N8A 1_555 1_555
N1A C2A 1_555 1_555
N2A Ag2A 1_555 1_555
N3A Ag1 1_555 1_555
N4A C11A 1_555 1_555
N5A C12A 1_555 1_555
N6A Ag2 1_555 1_555
N7A C5A 1_555 1_555
N8A C8A 1_555 1_555
N8A_2 Ag3 1_555 1_555
C1A H1A 1_555 1_555
C2A H2A 1_555 1_555
H3A C2A 1_555 1_555
C3A C1A 1_555 1_555
H4A C3A 1_555 1_555
C4A N6A 1_555 1_555
H5A C4A 1_555 1_555
C5A N3A 1_555 1_555
H6A C5A 1_555 1_555
C6A N1A 1_555 1_555
H7A C6A 1_555 1_555
C7A N1A 1_555 1_555
H8A C7A 1_555 1_555
C8A H9A 1_555 1_555
C9A C2A 1_555 1_555
C10A C3A 1_555 1_555
H10A C10A 1_555 1_555
C11A C8A 1_555 1_555
H11A C11A 1_555 1_555
C12A N2A 1_555 1_555
H12A C12A 1_555 1_555
C13A N7A 1_555 1_555
H13A C13A 1_555 1_555
C14A C9A 1_555 1_555
H14A C14A 1_555 1_555
C15A N7A 1_555 1_555
H15A C15A 1_555 1_555
H16A C15A 1_555 1_555
C16A N3A 1_555 1_555
H17A C16A 1_555 1_555
C17A C10A 1_555 1_555
C18A N2A 1_555 1_555
H18A C18A 1_555 1_555
C19A N4A 1_555 1_555
H19A C19A 1_555 1_555
C20A C17A 1_555 1_555
H20A C20A 1_555 1_555
C21A C14A 1_555 1_555
H21A C21A 1_555 1_555
C22A N5A 1_555 1_555
H22A C22A 1_555 1_555
C23A C24A 1_555 1_555
C24A N5A 1_555 1_555
H23A C24A 1_555 1_555
H24A C24A 1_555 1_555
C25A C21A 1_555 1_555
H25A C25A 1_555 1_555
C26A C1A 1_555 1_555
C27A N4A 1_555 1_555
H26A C27A 1_555 1_555
H27A C27A 1_555 1_555
C28A C9A 1_555 1_555
H28A C28A 1_555 1_555
O2A W6A 1_555 1_555
O3A W4A 1_555 1_555
O6A W3A 1_555 1_555
O7A W3A 1_555 1_555
O9A Si1 1_555 1_555
O10A W2A 1_555 1_555
O11A Si1 1_555 1_555
O12A W2A 1_555 1_555
O13A W1A 1_555 1_555
O14A Si1 1_555 1_555
O16A W6 1_555 1_555
O18A W4 1_555 1_555
O20A W3 1_555 1_555
O22A W1A 1_555 1_555
O24A W4 1_555 1_555
O25A W1A 1_555 1_555
O27A W4A 1_555 1_555
O28A Si1 1_555 1_555
O30A W4A 1_555 1_555
O32A W5A 1_555 1_555
W1 O28 1_555 1_555
W2 O13 1_555 1_555
W2 O28 1_555 1_555
W2 O11A 1_555 1_555
W3 O9 1_555 1_555
W3 O11 1_555 1_555
W3 O22 1_555 1_555
W4 O14 1_555 1_555
W4 O9A 1_555 1_555
W5 O12 1_555 1_555
W5 O14 1_555 1_555
W5 O25 1_555 1_555
W5 O28 1_555 1_555
W5 O30 1_555 1_555
W6 O11 1_555 1_555
W6 O14 1_555 1_555
W6 O27 1_555 1_555
W6 O32 1_555 1_555
N6 C7 1_555 1_555
N8 C19 1_555 1_555
C4 C6 1_555 1_555
C13 C16 1_555 1_555
C15 C17 1_555 1_555
C18 C22 1_555 1_555
C20 C26 1_555 1_555
C23 C25 1_555 1_555
C23 C28 1_555 1_555
C26 C27 1_555 1_555
O18 W4A 1_555 1_555
O24 W4A 1_555 1_555
W1A O9A 1_555 1_555
W1A O24A 1_555 1_555
W1A O28A 1_555 1_555
W2A O13A 1_555 1_555
W2A O16A 1_555 1_555
W2A O20A 1_555 1_555
W2A O28A 1_555 1_555
W3A O9A 1_555 1_555
W3A O11A 1_555 1_555
W3A O18A 1_555 1_555
W3A O22A 1_555 1_555
W4A O14A 1_555 1_555
W5A O12A 1_555 1_555
W5A O14A 1_555 1_555
W5A O25A 1_555 1_555
W5A O28A 1_555 1_555
W5A O30A 1_555 1_555
W6A O6A 1_555 1_555
W6A O11A 1_555 1_555
W6A O14A 1_555 1_555
W6A O27A 1_555 1_555
W6A O32A 1_555 1_555
N6A C7A 1_555 1_555
N8A C19A 1_555 1_555
C4A C6A 1_555 1_555
C13A C16A 1_555 1_555
C15A C17A 1_555 1_555
C18A C22A 1_555 1_555
C20A C26A 1_555 1_555
C23A C25A 1_555 1_555
C23A C28A 1_555 1_555
C26A C27A 1_555 1_555

#END
