
#######################################################################
#
#                 Cambridge Crystallographic Data Centre
#                                CCDC 
#
#######################################################################
#
# If this CIF has been generated from an entry in the Cambridge 
# Structural Database, then it will include bibliographic, chemical, 
# crystal, experimental, refinement or atomic coordinate data resulting 
# from the CCDC's data processing and validation procedures.
#
#######################################################################

data_ZECXOW
_symmetry_cell_setting           triclinic
_symmetry_space_group_name_H-M   'P -1'
_symmetry_Int_Tables_number      2
_space_group_name_Hall           '-P 1'
loop_
_symmetry_equiv_pos_site_id
_symmetry_equiv_pos_as_xyz
1 x,y,z
2 -x,-y,-z
_cell_length_a                   15.0870(8)
_cell_length_b                   15.3430(8)
_cell_length_c                   26.0420(14)
_cell_angle_alpha                95.941(1)
_cell_angle_beta                 100.639(1)
_cell_angle_gamma                115.479(1)
_cell_volume                     5233.46
loop_
_atom_site_label
_atom_site_type_symbol
_atom_site_fract_x
_atom_site_fract_y
_atom_site_fract_z
W1 W 0.23823(6) -0.02246(6) -0.86484(3)
W2 W 0.42753(6) 0.33959(6) -0.87568(3)
W3 W 0.17313(6) 0.16101(6) -0.86101(3)
W4 W 0.13393(6) 0.01611(6) -0.65048(3)
W5 W 0.79854(6) 0.48181(6) -0.68953(3)
W6 W 0.62423(5) 0.12076(6) -0.75507(3)
W7 W 0.40641(6) 0.07822(6) -0.62366(3)
W8 W 0.68702(6) 0.52608(6) -0.80187(3)
W9 W 0.21374(6) 0.31107(6) -0.73096(3)
W10 W 0.58321(6) 0.45762(6) -0.63382(3)
W11 W 0.36962(5) -0.05992(5) -0.74200(3)
W12 W 0.46563(6) 0.49044(6) -0.74729(3)
W13 W 0.33144(6) 0.27619(6) -0.61833(3)
W14 W 0.49264(6) 0.15552(6) -0.87891(3)
W15 W 0.75515(6) 0.34333(6) -0.80957(3)
W16 W 0.02180(6) 0.04886(6) -0.76660(3)
W17 W 0.65929(6) 0.25960(6) -0.63774(3)
W18 W 0.09438(6) -0.13106(6) -0.76792(3)
Ag1 Ag 0.98701(16) 0.29802(18) -0.81793(10)
Ag2 Ag -0.0348(2) -0.2484(2) -0.65513(15)
Ag3 Ag 0.93518(12) 0.18269(12) -0.98837(7)
Ag4 Ag 1.0000 0.0000 -1.0000
P1 P 0.5491(3) 0.3088(3) -0.75545(18)
P2 P 0.2819(3) 0.1193(3) -0.73955(18)
O1 O 0.9044(13) 0.2166(14) -0.7596(9)
O2 O 0.3742(9) -0.1691(9) -0.7531(5)
O3 O 0.7552(9) 0.4586(9) -0.8305(5)
O4 O 0.3493(10) 0.4123(9) -0.7271(5)
O5 O 0.0687(9) 0.0797(9) -0.8266(5)
O6 O 0.0841(10) -0.1097(10) -0.6956(6)
O7 O 0.7039(9) 0.5063(9) -0.6583(5)
O8 O 0.7895(10) 0.5685(10) -0.7373(6)
O9 O 0.6312(9) 0.2616(9) -0.8594(5)
O10 O 0.4772(9) 0.2600(9) -0.8112(5)
O11 O 0.2611(9) 0.0161(9) -0.6322(5)
O12 O 0.0984(9) 0.1859(10) -0.7358(5)
O13 O 0.6766(9) 0.0421(10) -0.7684(6)
O14 O 0.4506(9) 0.3809(9) -0.6270(5)
O15 O 0.5116(9) 0.3692(9) -0.7232(5)
O16 O 0.5937(9) 0.5397(9) -0.7668(5)
O17 O 0.3288(9) -0.0404(9) -0.8105(5)
O18 O 0.6880(9) 0.1735(9) -0.6808(5)
O19 O 0.2955(10) 0.2340(9) -0.8773(5)
O20 O 0.3577(8) 0.0721(8) -0.8807(5)
O21 O 0.1503(10) 0.3788(10) -0.7379(6)
O22 O -0.0066(9) -0.0851(9) -0.7858(5)
O23 O 0.2254(9) -0.1197(8) -0.7451(5)
O24 O 0.7576(10) 0.3658(10) -0.6620(5)
O25 O 0.5384(10) 0.5349(9) -0.6738(5)
O26 O 0.6568(9) 0.3860(8) -0.7612(5)
O27 O 0.0876(10) -0.0157(10) -0.5965(6)
O28 O 0.5375(9) 0.1037(9) -0.8225(5)
O29 O 0.0248(9) 0.0284(9) -0.6935(6)
O30 O 0.6335(10) 0.5313(9) -0.5725(5)
O31 O 0.4013(9) 0.2024(9) -0.6090(5)
O32 O 0.5675(9) 0.2335(8) -0.7254(5)
O33 O 0.2096(9) 0.1548(9) -0.6278(5)
O34 O 0.4105(9) 0.4083(9) -0.8167(5)
O35 O 0.2468(9) 0.3268(9) -0.6556(5)
O36 O 0.1753(9) 0.0448(9) -0.7334(5)
O37 O 0.4529(9) 0.2429(9) -0.9135(5)
O38 O 0.3964(8) -0.0361(9) -0.6662(5)
O39 O 0.7372(10) 0.2734(11) -0.5772(6)
O40 O 0.8448(8) 0.4274(9) -0.7418(5)
O41 O 0.5035(10) 0.0919(10) -0.9333(6)
O42 O 0.5385(9) 0.1540(9) -0.6332(5)
O43 O 0.1620(9) 0.0383(9) -0.8967(5)
O44 O -0.0996(9) 0.0378(9) -0.7841(6)
O45 O 0.3392(9) 0.3224(9) -0.5542(5)
O46 O 0.7244(9) 0.2356(9) -0.7721(5)
O47 O 0.5052(9) 0.0264(9) -0.7381(5)
O48 O 0.4408(10) 0.5867(9) -0.7561(6)
O49 O 0.2723(8) 0.1147(9) -0.7989(5)
O50 O 0.1354(9) -0.0931(9) -0.8317(5)
O51 O 0.2051(9) 0.2642(9) -0.8030(5)
O52 O 0.6091(9) 0.3498(9) -0.6213(5)
O53 O 0.5658(8) 0.4320(8) -0.8555(5)
O54 O 0.0925(9) 0.1793(10) -0.9088(5)
O55 O 0.7264(10) 0.6262(10) -0.8297(6)
O56 O 0.4428(10) 0.0621(10) -0.5607(6)
O57 O 0.3580(9) 0.0859(9) -0.7153(5)
O58 O 0.9107(10) 0.5578(11) -0.6448(6)
O59 O 0.3861(9) 0.3838(9) -0.9276(5)
O60 O 0.0234(11) -0.2539(10) -0.7898(6)
O61 O 0.8401(10) 0.3333(10) -0.8416(6)
O62 O 0.2054(10) -0.1182(9) -0.9166(5)
O63 O 0.3040(8) 0.2216(9) -0.7105(5)
N1 N -0.1997(18) -0.2078(18) -0.5352(10)
N2 N -0.023(2) -0.131(2) -0.5229(12)
N3 N 0.0671(14) -0.4719(15) -0.6999(9)
N4 N 1.0622(13) 0.3896(13) -0.8687(8)
N5 N 0.2248(11) -0.3750(12) -0.6901(7)
N6 N 0.1033(14) -0.2463(14) -0.6091(8)
N7 N 0.6864(12) -0.0049(12) -0.9323(7)
N8 N 0.2610(12) -0.2151(12) -0.5777(7)
N9 N 0.8233(13) 0.0953(12) -0.9501(7)
N10 N 1.0402(14) 0.2791(13) -1.0238(7)
N11 N 1.1822(13) 0.3966(12) -1.0319(8)
N12 N 1.1114(11) 0.0953(11) -1.0339(7)
N13 N 0.7396(12) -0.1889(13) -0.9530(7)
N14 N 1.1818(12) 0.4910(12) -0.9004(7)
C1 C -0.121(2) -0.142(3) -0.5490(14)
H1 H -0.1284 -0.1053 -0.5742
C2 C -0.388(2) -0.0626(19) -0.6209(13)
H2 H -0.4199 -0.0578 -0.6538
C3 C -0.164(3) -0.259(2) -0.5048(14)
H3 H -0.2028 -0.3160 -0.4934
C4 C -0.066(2) -0.213(2) -0.4954(14)
H4 H -0.0249 -0.2307 -0.4724
C5 C -0.4002(19) -0.223(2) -0.6622(11)
H5 H -0.4330 -0.2878 -0.6544
H6 H -0.4500 -0.2151 -0.6883
C6 C -0.296(2) -0.081(2) -0.5205(13)
H7 H -0.2641 -0.0854 -0.4874
C7 C -0.312(2) -0.004(2) -0.5246(13)
H8 H -0.2955 0.0422 -0.4936
C8 C -0.303(2) -0.236(2) -0.5538(13)
H9 H -0.3376 -0.2679 -0.5281
H10 H -0.3293 -0.2845 -0.5870
C9 C 0.848(2) 0.0854(18) -0.8995(10)
H11 H 0.9129 0.1154 -0.8764
C10 C -0.350(2) 0.012(2) -0.5698(13)
H12 H -0.3541 0.0708 -0.5704
C11 C 0.5196(18) -0.212(2) -0.8281(10)
H13 H 0.4988 -0.2043 -0.7972
C12 C 0.5404(18) -0.2950(19) -0.8410(10)
H14 H 0.5285 -0.3438 -0.8209
C13 C 0.1725(17) -0.3562(16) -0.7312(10)
H15 H 0.1985 -0.3093 -0.7516
C14 C 0.5304(14) -0.1444(16) -0.8616(9)
H16 H 0.5135 -0.0938 -0.8540
C15 C 0.0751(17) -0.4191(16) -0.7366(10)
H17 H 0.0209 -0.4244 -0.7628
C16 C 0.2037(18) -0.2678(18) -0.5478(10)
H18 H 0.2270 -0.2887 -0.5183
C17 C 0.6271(14) -0.2494(18) -0.9640(10)
H19 H 0.6096 -0.3189 -0.9723
H20 H 0.5941 -0.2340 -0.9948
C18 C 0.7576(16) 0.0211(17) -0.8880(10)
H21 H 0.7498 0.0012 -0.8559
C19 C 0.1580(17) -0.4438(16) -0.6714(10)
H22 H 0.1742 -0.4685 -0.6419
C20 C 0.7280(17) 0.0403(15) -0.9701(9)
H23 H 0.6929 0.0325 -1.0050
C21 C 1.1606(17) 0.4283(16) -0.8670(10)
H24 H 1.2075 0.4139 -0.8460
C22 C 0.4233(18) -0.4331(18) -0.5604(11)
H25 H 0.4335 -0.4883 -0.5577
C23 C 0.4404(16) -0.3670(17) -0.5136(9)
H26 H 0.4590 -0.3782 -0.4798
C24 C 0.3908(14) -0.4170(16) -0.6117(10)
H27 H 0.3826 -0.4604 -0.6420
C25 C -0.324(2) -0.152(2) -0.5629(14)
C26 C 1.0186(16) 0.3131(17) -1.0707(9)
H28 H 0.9555 0.2901 -1.0945
C27 C 1.0220(16) 0.4248(16) -0.9054(9)
H29 H 0.9532 0.4075 -0.9159
C28 C 0.3392(14) -0.3247(16) -0.6715(9)
H30 H 0.3665 -0.3530 -0.6955
H31 H 0.3654 -0.2550 -0.6721
C29 C 0.5779(15) -0.0794(15) -0.9404(9)
H32 H 0.5392 -0.0457 -0.9320
H33 H 0.5500 -0.1126 -0.9777
C30 C 1.2921(15) 0.6979(14) -0.9372(9)
H34 H 1.2866 0.7187 -0.9036
C31 C 0.5895(15) -0.2300(16) -0.9172(8)
C32 C -0.365(2) -0.145(2) -0.6107(13)
C33 C 0.4278(16) -0.2839(17) -0.5208(9)
H35 H 0.4436 -0.2359 -0.4910
C34 C 1.2998(15) 0.7597(15) -0.9729(9)
H36 H 1.3241 0.8301 -0.9591
C35 C 0.3684(16) -0.1818(14) -0.5716(10)
H37 H 0.4064 -0.1334 -0.5385
H38 H 0.3887 -0.1506 -0.6009
C36 C 0.8085(14) -0.1822(15) -0.9092(8)
H39 H 0.7967 -0.2111 -0.8798
C37 C 0.3708(14) -0.3369(14) -0.6176(9)
C38 C 0.1107(16) -0.2852(17) -0.5662(9)
H40 H 0.0571 -0.3197 -0.5517
C39 C 1.2893(16) 0.4762(15) -1.0168(9)
H41 H 1.3286 0.4621 -0.9880
H42 H 1.3184 0.4768 -1.0472
C40 C 1.0930(15) 0.4885(16) -0.9256(10)
H43 H 1.0837 0.5235 -0.9514
C41 C 1.1106(17) 0.3878(15) -1.0743(9)
H44 H 1.1204 0.4245 -1.1008
C42 C 0.5787(14) -0.2964(16) -0.8849(9)
H45 H 0.5982 -0.3450 -0.8930
C43 C 0.5673(14) -0.1534(14) -0.9070(8)
C44 C 0.1991(16) -0.2040(15) -0.6159(9)
H46 H 0.2178 -0.1721 -0.6435
C45 C 0.3927(14) -0.2698(15) -0.5709(10)
C46 C 1.3069(15) 0.6388(15) -1.0372(9)
H47 H 1.3369 0.6291 -1.0663
C47 C 1.3105(15) 0.7303(14) -1.0231(9)
H48 H 1.3552 0.7832 -1.0382
C48 C 1.2108(15) 0.1367(13) -1.0120(9)
H49 H 1.2417 0.1315 -0.9789
C49 C 1.2906(14) 0.5502(14) -0.9045(9)
H50 H 1.3186 0.5058 -0.9128
H51 H 1.3323 0.5944 -0.8705
C50 C 1.1392(17) 0.3316(13) -1.0032(8)
H52 H 1.1745 0.3239 -0.9722
C51 C 1.0984(14) 0.1212(14) -1.0812(8)
H53 H 1.0355 0.1011 -1.1047
C52 C 1.2919(13) 0.6087(13) -0.9472(8)
C53 C 1.2971(13) 0.5765(13) -0.9994(8)
N15 N -0.3163(16) -0.2149(18) -0.6853(10)
C54 C -0.2597(19) -0.2616(17) -0.6667(10)
H54 H -0.2724 -0.3022 -0.6420
N16 N -0.1807(17) -0.2372(19) -0.6914(11)
C55 C -0.1886(18) -0.1754(19) -0.7253(11)
H55 H -0.1453 -0.1480 -0.7468
C56 C -0.272(2) -0.1616(19) -0.7215(11)
H56 H -0.2951 -0.1234 -0.7400
W1A W 1.76177(6) 0.02246(6) -1.13516(3)
W2A W 1.57247(6) -0.33959(6) -1.12432(3)
W3A W 1.82687(6) -0.16101(6) -1.13899(3)
W4A W 1.86607(6) -0.01611(6) -1.34952(3)
W5A W 1.20146(6) -0.48181(6) -1.31047(3)
W6A W 1.37577(5) -0.12076(6) -1.24493(3)
W7A W 1.59359(6) -0.07822(6) -1.37634(3)
W8A W 1.31298(6) -0.52608(6) -1.19813(3)
W9A W 1.78626(6) -0.31107(6) -1.26904(3)
W10A W 1.41679(6) -0.45762(6) -1.36618(3)
W11A W 1.63038(5) 0.05992(5) -1.25800(3)
W12A W 1.53437(6) -0.49044(6) -1.25271(3)
W13A W 1.66856(6) -0.27619(6) -1.38167(3)
W14A W 1.50736(6) -0.15552(6) -1.12109(3)
W15A W 1.24485(6) -0.34333(6) -1.19043(3)
W16A W 1.97820(6) -0.04886(6) -1.23340(3)
W17A W 1.34071(6) -0.25960(6) -1.36226(3)
W18A W 1.90562(6) 0.13106(6) -1.23208(3)
Ag1A Ag 1.01299(16) -0.29802(18) -1.18207(10)
Ag1_2 Ag -0.01299(16) 0.29802(18) -0.81793(10)
Ag1A_2 Ag 2.01299(16) -0.29802(18) -1.18207(10)
Ag2A Ag 2.0348(2) 0.2484(2) -1.34487(15)
Ag3A Ag 1.06482(12) -0.18269(12) -1.01163(7)
P1A P 1.4509(3) -0.3088(3) -1.24455(18)
P2A P 1.7181(3) -0.1193(3) -1.26045(18)
O1A O 1.0956(13) -0.2166(14) -1.2404(9)
O2A O 1.6258(9) 0.1691(9) -1.2469(5)
O3A O 1.2448(9) -0.4586(9) -1.1695(5)
O4A O 1.6507(10) -0.4123(9) -1.2729(5)
O5A O 1.9313(9) -0.0797(9) -1.1734(5)
O6A O 1.9159(10) 0.1097(10) -1.3044(6)
O7A O 1.2961(9) -0.5063(9) -1.3417(5)
O8A O 1.2105(10) -0.5685(10) -1.2627(6)
O9A O 1.3688(9) -0.2616(9) -1.1406(5)
O10A O 1.5228(9) -0.2600(9) -1.1888(5)
O11A O 1.7389(9) -0.0161(9) -1.3678(5)
O12A O 1.9016(9) -0.1859(10) -1.2642(5)
O13A O 1.3234(9) -0.0421(10) -1.2316(6)
O14A O 1.5494(9) -0.3809(9) -1.3730(5)
O15A O 1.4884(9) -0.3692(9) -1.2768(5)
O16A O 1.4063(9) -0.5397(9) -1.2332(5)
O17A O 1.6712(9) 0.0404(9) -1.1895(5)
O18A O 1.3120(9) -0.1735(9) -1.3192(5)
O19A O 1.7045(10) -0.2340(9) -1.1227(5)
O20A O 1.6423(8) -0.0721(8) -1.1193(5)
O21A O 0.8497(10) -0.3788(10) -1.2621(6)
O21_2 O 1.1503(10) 0.3788(10) -0.7379(6)
O21A_2 O 1.8497(10) -0.3788(10) -1.2621(6)
O22A O 2.0066(9) 0.0851(9) -1.2142(5)
O23A O 1.7746(9) 0.1197(8) -1.2549(5)
O24A O 1.2424(10) -0.3658(10) -1.3380(5)
O25A O 1.4616(10) -0.5349(9) -1.3262(5)
O26A O 1.3432(9) -0.3860(8) -1.2388(5)
O27A O 1.9124(10) 0.0157(10) -1.4035(6)
O28A O 1.4625(9) -0.1037(9) -1.1775(5)
O29A O 1.9752(9) -0.0284(9) -1.3065(6)
O30A O 1.3665(10) -0.5313(9) -1.4275(5)
O31A O 1.5987(9) -0.2024(9) -1.3910(5)
O32A O 1.4325(9) -0.2335(8) -1.2746(5)
O33A O 1.7904(9) -0.1548(9) -1.3722(5)
O34A O 1.5895(9) -0.4083(9) -1.1833(5)
O35A O 1.7532(9) -0.3268(9) -1.3444(5)
O36A O 1.8247(9) -0.0448(9) -1.2666(5)
O37A O 1.5471(9) -0.2429(9) -1.0865(5)
O38A O 1.6036(8) 0.0361(9) -1.3338(5)
O39A O 1.2628(10) -0.2734(11) -1.4228(6)
O40A O 1.1552(8) -0.4274(9) -1.2582(5)
O41A O 1.4965(10) -0.0919(10) -1.0667(6)
O42A O 1.4615(9) -0.1540(9) -1.3668(5)
O43A O 1.8380(9) -0.0383(9) -1.1033(5)
O44A O 2.0996(9) -0.0378(9) -1.2159(6)
O45A O 1.6608(9) -0.3224(9) -1.4458(5)
O46A O 1.2756(9) -0.2356(9) -1.2279(5)
O47A O 1.4948(9) -0.0264(9) -1.2619(5)
O48A O 1.5592(10) -0.5867(9) -1.2439(6)
O49A O 1.7277(8) -0.1147(9) -1.2011(5)
O50A O 1.8646(9) 0.0931(9) -1.1683(5)
O51A O 1.7949(9) -0.2642(9) -1.1970(5)
O52A O 1.3909(9) -0.3498(9) -1.3787(5)
O53A O 1.4342(8) -0.4320(8) -1.1445(5)
O54A O 1.9075(9) -0.1793(10) -1.0912(5)
O55A O 1.2736(10) -0.6262(10) -1.1703(6)
O56A O 1.5572(10) -0.0621(10) -1.4393(6)
O57A O 1.6420(9) -0.0859(9) -1.2847(5)
O58A O 1.0893(10) -0.5578(11) -1.3552(6)
O59A O 1.6139(9) -0.3838(9) -1.0724(5)
O60A O 1.9766(11) 0.2539(10) -1.2102(6)
O61A O 1.1599(10) -0.3333(10) -1.1584(6)
O62A O 1.7946(10) 0.1182(9) -1.0834(5)
O63A O 1.6960(8) -0.2216(9) -1.2895(5)
N1A N 2.1997(18) 0.2078(18) -1.4648(10)
N2A N 2.023(2) 0.131(2) -1.4771(12)
N3A N 1.9329(14) 0.4719(15) -1.3001(9)
N4A N 0.9378(13) -0.3896(13) -1.1313(8)
N5A N 1.7752(11) 0.3750(12) -1.3099(7)
N6A N 1.8967(14) 0.2463(14) -1.3909(8)
N7A N 1.3136(12) 0.0049(12) -1.0677(7)
N8A N 1.7390(12) 0.2151(12) -1.4223(7)
N9A N 1.1767(13) -0.0953(12) -1.0499(7)
N10A N 0.9598(14) -0.2791(13) -0.9762(7)
N11A N 0.8178(13) -0.3966(12) -0.9681(8)
N12A N 0.8886(11) -0.0953(11) -0.9661(7)
N13A N 1.2604(12) 0.1889(13) -1.0470(7)
N14A N 0.8182(12) -0.4910(12) -1.0996(7)
C1A C 2.121(2) 0.142(3) -1.4510(14)
H1A H 2.1284 0.1053 -1.4258
C2A C 2.388(2) 0.0626(19) -1.3791(13)
H2A H 2.4199 0.0578 -1.3462
C3A C 2.164(3) 0.259(2) -1.4952(14)
H3A H 2.2028 0.3160 -1.5066
C4A C 2.066(2) 0.213(2) -1.5046(14)
H4A H 2.0249 0.2307 -1.5276
C5A C 2.4002(19) 0.223(2) -1.3378(11)
H5A H 2.4330 0.2878 -1.3456
H6A H 2.4500 0.2151 -1.3117
C6A C 2.296(2) 0.081(2) -1.4795(13)
H7A H 2.2641 0.0854 -1.5126
C7A C 2.312(2) 0.004(2) -1.4754(13)
H8A H 2.2955 -0.0422 -1.5064
C8A C 2.303(2) 0.236(2) -1.4462(13)
H9A H 2.3376 0.2679 -1.4719
H10A H 2.3293 0.2845 -1.4130
C9A C 1.152(2) -0.0854(18) -1.1005(10)
H11A H 1.0871 -0.1154 -1.1236
C10A C 2.350(2) -0.012(2) -1.4302(13)
H12A H 2.3541 -0.0708 -1.4296
C11A C 1.4804(18) 0.212(2) -1.1719(10)
H13A H 1.5012 0.2043 -1.2028
C12A C 1.4596(18) 0.2950(19) -1.1590(10)
H14A H 1.4715 0.3438 -1.1791
C13A C 1.8275(17) 0.3562(16) -1.2688(10)
H15A H 1.8015 0.3093 -1.2484
C14A C 1.4696(14) 0.1444(16) -1.1384(9)
H16A H 1.4865 0.0938 -1.1460
C15A C 1.9249(17) 0.4191(16) -1.2634(10)
H17A H 1.9791 0.4244 -1.2372
C16A C 1.7963(18) 0.2678(18) -1.4522(10)
H18A H 1.7730 0.2887 -1.4817
C17A C 1.3729(14) 0.2494(18) -1.0360(10)
H19A H 1.3904 0.3189 -1.0277
H20A H 1.4059 0.2340 -1.0052
C18A C 1.2424(16) -0.0211(17) -1.1120(10)
H21A H 1.2502 -0.0012 -1.1441
C19A C 1.8420(17) 0.4438(16) -1.3286(10)
H22A H 1.8258 0.4685 -1.3581
C20A C 1.2720(17) -0.0403(15) -1.0299(9)
H23A H 1.3071 -0.0325 -0.9950
C21A C 0.8394(17) -0.4283(16) -1.1330(10)
H24A H 0.7925 -0.4139 -1.1540
C22A C 1.5767(18) 0.4331(18) -1.4396(11)
H25A H 1.5665 0.4883 -1.4423
C23A C 1.5596(16) 0.3670(17) -1.4864(9)
H26A H 1.5410 0.3782 -1.5202
C24A C 1.6092(14) 0.4170(16) -1.3883(10)
H27A H 1.6174 0.4604 -1.3580
C25A C 2.324(2) 0.152(2) -1.4371(14)
C26A C 0.9814(16) -0.3131(17) -0.9293(9)
H28A H 1.0445 -0.2901 -0.9055
C27A C 0.9780(16) -0.4248(16) -1.0946(9)
H29A H 1.0468 -0.4075 -1.0841
C28A C 1.6608(14) 0.3247(16) -1.3285(9)
H30A H 1.6335 0.3530 -1.3045
H31A H 1.6346 0.2550 -1.3279
C29A C 1.4221(15) 0.0794(15) -1.0596(9)
H32A H 1.4608 0.0457 -1.0680
H33A H 1.4500 0.1126 -1.0223
C30A C 0.7079(15) -0.6979(14) -1.0628(9)
H34A H 0.7134 -0.7187 -1.0964
C31A C 1.4105(15) 0.2300(16) -1.0828(8)
C32A C 2.365(2) 0.145(2) -1.3893(13)
C33A C 1.5722(16) 0.2839(17) -1.4792(9)
H35A H 1.5564 0.2359 -1.5090
C34A C 0.7002(15) -0.7597(15) -1.0271(9)
H36A H 0.6759 -0.8301 -1.0409
C35A C 1.6316(16) 0.1818(14) -1.4284(10)
H37A H 1.5936 0.1334 -1.4615
H38A H 1.6113 0.1506 -1.3991
C36A C 1.1915(14) 0.1822(15) -1.0908(8)
H39A H 1.2033 0.2111 -1.1202
C37A C 1.6292(14) 0.3369(14) -1.3824(9)
C38A C 1.8893(16) 0.2852(17) -1.4338(9)
H40A H 1.9429 0.3197 -1.4483
C39A C 0.7107(16) -0.4762(15) -0.9832(9)
H41A H 0.6714 -0.4621 -1.0120
H42A H 0.6816 -0.4768 -0.9528
C40A C 0.9070(15) -0.4885(16) -1.0744(10)
H43A H 0.9163 -0.5235 -1.0486
C41A C 0.8894(17) -0.3878(15) -0.9257(9)
H44A H 0.8796 -0.4245 -0.8992
C42A C 1.4213(14) 0.2964(16) -1.1151(9)
H45A H 1.4018 0.3450 -1.1070
C43A C 1.4327(14) 0.1534(14) -1.0930(8)
C44A C 1.8009(16) 0.2040(15) -1.3841(9)
H46A H 1.7822 0.1721 -1.3565
C45A C 1.6073(14) 0.2698(15) -1.4291(10)
C46A C 0.6931(15) -0.6388(15) -0.9628(9)
H47A H 0.6631 -0.6291 -0.9337
C47A C 0.6895(15) -0.7303(14) -0.9769(9)
H48A H 0.6448 -0.7832 -0.9618
C48A C 0.7892(15) -0.1367(13) -0.9880(9)
H49A H 0.7583 -0.1315 -1.0211
C49A C 0.7094(14) -0.5502(14) -1.0955(9)
H50A H 0.6814 -0.5058 -1.0872
H51A H 0.6677 -0.5944 -1.1295
C50A C 0.8608(17) -0.3316(13) -0.9968(8)
H52A H 0.8255 -0.3239 -1.0278
C51A C 0.9016(14) -0.1212(14) -0.9188(8)
H53A H 0.9645 -0.1011 -0.8953
C52A C 0.7081(13) -0.6087(13) -1.0528(8)
C53A C 0.7029(13) -0.5765(13) -1.0006(8)
N15A N 2.3163(16) 0.2149(18) -1.3147(10)
C54A C 2.2597(19) 0.2616(17) -1.3333(10)
H54A H 2.2724 0.3022 -1.3580
N16A N 2.1807(17) 0.2372(19) -1.3086(11)
C55A C 2.1886(18) 0.1754(19) -1.2747(11)
H55A H 2.1453 0.1480 -1.2532
C56A C 2.272(2) 0.1616(19) -1.2785(11)
H56A H 2.2951 0.1234 -1.2600
Na1 Na 0.8592(6) 0.3339(7) -0.9387(3)
loop_
_geom_bond_atom_site_label_1
_geom_bond_atom_site_label_2
_geom_bond_site_symmetry_1
_geom_bond_site_symmetry_2
W1 O17 1_555 1_555
W2 O10 1_555 1_555
W3 O5 1_555 1_555
W4 O6 1_555 1_555
W5 O7 1_555 1_555
W6 O13 1_555 1_555
W7 O11 1_555 1_555
W8 O3 1_555 1_555
W9 O4 1_555 1_555
W10 O7 1_555 1_555
W11 O2 1_555 1_555
W12 O4 1_555 1_555
W13 O14 1_555 1_555
W14 O9 1_555 1_555
W15 O3 1_555 1_555
W16 O5 1_555 1_555
W17 O18 1_555 1_555
W18 O6 1_555 1_555
Ag1 O1 1_555 1_555
Ag2 O6 1_555 1_555
Ag3 Ag4 1_555 1_555
Ag4 N12 1_555 1_555
P1 O10 1_555 1_555
P2 O36 1_555 1_555
O8 W5 1_555 1_555
O9 W15 1_555 1_555
O10 W14 1_555 1_555
O11 W4 1_555 1_555
O12 W9 1_555 1_555
O14 W10 1_555 1_555
O15 W10 1_555 1_555
O16 W8 1_555 1_555
O17 W11 1_555 1_555
O18 W6 1_555 1_555
O19 W2 1_555 1_555
O20 W1 1_555 1_555
O21 W9 1_555 1_555
O22 W16 1_555 1_555
O23 W11 1_555 1_555
O24 W5 1_555 1_555
O25 W10 1_555 1_555
O26 W5 1_555 1_555
O27 W4 1_555 1_555
O28 W6 1_555 1_555
O29 W4 1_555 1_555
O30 W10 1_555 1_555
O31 W7 1_555 1_555
O32 W6 1_555 1_555
O33 W4 1_555 1_555
O34 W2 1_555 1_555
O35 W9 1_555 1_555
O36 W4 1_555 1_555
O37 W2 1_555 1_555
O38 W7 1_555 1_555
O39 W17 1_555 1_555
O40 W5 1_555 1_555
O41 W14 1_555 1_555
O42 W7 1_555 1_555
O43 W1 1_555 1_555
O44 W16 1_555 1_555
O45 W13 1_555 1_555
O46 W6 1_555 1_555
O47 W6 1_555 1_555
O48 W12 1_555 1_555
O49 W1 1_555 1_555
O50 W1 1_555 1_555
O51 W3 1_555 1_555
O52 W10 1_555 1_555
O53 W2 1_555 1_555
O54 W3 1_555 1_555
O55 W8 1_555 1_555
O56 W7 1_555 1_555
O57 W7 1_555 1_555
O58 W5 1_555 1_555
O59 W2 1_555 1_555
O60 W18 1_555 1_555
O61 W15 1_555 1_555
O62 W1 1_555 1_555
O63 W9 1_555 1_555
N1 C1 1_555 1_555
N2 C1 1_555 1_555
N3 C15 1_555 1_555
N4 Ag1 1_555 1_555
N5 C13 1_555 1_555
N6 Ag2 1_555 1_555
N7 C18 1_555 1_555
N8 C16 1_555 1_555
N9 Ag3 1_555 1_555
N10 Ag3 1_555 1_555
N11 C39 1_555 1_555
N12 C48 1_555 1_555
N13 C17 1_555 1_555
N14 C21 1_555 1_555
C1 H1 1_555 1_555
C2 H2 1_555 1_555
C3 N1 1_555 1_555
H3 C3 1_555 1_555
C4 N2 1_555 1_555
H4 C4 1_555 1_555
C5 H5 1_555 1_555
H6 C5 1_555 1_555
C6 H7 1_555 1_555
C7 C6 1_555 1_555
H8 C7 1_555 1_555
C8 N1 1_555 1_555
H9 C8 1_555 1_555
H10 C8 1_555 1_555
C9 N9 1_555 1_555
H11 C9 1_555 1_555
C10 C2 1_555 1_555
H12 C10 1_555 1_555
C11 H13 1_555 1_555
C12 C11 1_555 1_555
H14 C12 1_555 1_555
C13 H15 1_555 1_555
C14 C11 1_555 1_555
H16 C14 1_555 1_555
C15 C13 1_555 1_555
H17 C15 1_555 1_555
C16 H18 1_555 1_555
C17 H19 1_555 1_555
H20 C17 1_555 1_555
C18 C9 1_555 1_555
H21 C18 1_555 1_555
C19 N3 1_555 1_555
H22 C19 1_555 1_555
C20 N7 1_555 1_555
H23 C20 1_555 1_555
C21 N4 1_555 1_555
H24 C21 1_555 1_555
C22 H25 1_555 1_555
C23 C22 1_555 1_555
H26 C23 1_555 1_555
C24 C22 1_555 1_555
H27 C24 1_555 1_555
C25 C6 1_555 1_555
C26 N10 1_555 1_555
H28 C26 1_555 1_555
C27 N4 1_555 1_555
H29 C27 1_555 1_555
C28 N5 1_555 1_555
H30 C28 1_555 1_555
H31 C28 1_555 1_555
C29 N7 1_555 1_555
H32 C29 1_555 1_555
H33 C29 1_555 1_555
C30 H34 1_555 1_555
C31 C17 1_555 1_555
C32 C2 1_555 1_555
C33 C23 1_555 1_555
H35 C33 1_555 1_555
C34 C30 1_555 1_555
H36 C34 1_555 1_555
C35 N8 1_555 1_555
H37 C35 1_555 1_555
H38 C35 1_555 1_555
C36 N13 1_555 1_555
H39 C36 1_555 1_555
C37 C24 1_555 1_555
C38 N6 1_555 1_555
H40 C38 1_555 1_555
C39 H41 1_555 1_555
H42 C39 1_555 1_555
C40 N14 1_555 1_555
H43 C40 1_555 1_555
C41 N11 1_555 1_555
H44 C41 1_555 1_555
C42 C12 1_555 1_555
H45 C42 1_555 1_555
C43 C14 1_555 1_555
C44 N6 1_555 1_555
H46 C44 1_555 1_555
C45 C33 1_555 1_555
C46 H47 1_555 1_555
C47 C34 1_555 1_555
H48 C47 1_555 1_555
C48 H49 1_555 1_555
C49 N14 1_555 1_555
H50 C49 1_555 1_555
H51 C49 1_555 1_555
C50 N10 1_555 1_555
H52 C50 1_555 1_555
C51 N12 1_555 1_555
H53 C51 1_555 1_555
C52 C30 1_555 1_555
C53 C39 1_555 1_555
N15 C5 1_555 1_555
C54 N15 1_555 1_555
H54 C54 1_555 1_555
N16 Ag2 1_555 1_555
C55 N16 1_555 1_555
H55 C55 1_555 1_555
C56 N15 1_555 1_555
H56 C56 1_555 1_555
W1A O17A 1_555 1_555
W2A O10A 1_555 1_555
W3A O5A 1_555 1_555
W4A O6A 1_555 1_555
W5A O7A 1_555 1_555
W6A O13A 1_555 1_555
W7A O11A 1_555 1_555
W8A O3A 1_555 1_555
W9A O4A 1_555 1_555
W10A O7A 1_555 1_555
W11A O2A 1_555 1_555
W12A O4A 1_555 1_555
W13A O14A 1_555 1_555
W14A O9A 1_555 1_555
W15A O3A 1_555 1_555
W16A O5A 1_555 1_555
W17A O18A 1_555 1_555
W18A O6A 1_555 1_555
Ag1A O1A 1_555 1_555
Ag1_2 O21 1_555 1_555
Ag1A_2 O21A_2 1_555 1_555
Ag2A O6A 1_555 1_555
Ag3A Ag4 1_555 1_555
P1A O10A 1_555 1_555
P2A O36A 1_555 1_555
O8A W5A 1_555 1_555
O9A W15A 1_555 1_555
O10A W14A 1_555 1_555
O11A W4A 1_555 1_555
O12A W9A 1_555 1_555
O14A W10A 1_555 1_555
O15A W10A 1_555 1_555
O16A W8A 1_555 1_555
O17A W11A 1_555 1_555
O18A W6A 1_555 1_555
O19A W2A 1_555 1_555
O20A W1A 1_555 1_555
O21A Ag1A 1_555 1_555
O21_2 Ag1 1_555 1_555
O21A_2 W9A 1_555 1_555
O22A W16A 1_555 1_555
O23A W11A 1_555 1_555
O24A W5A 1_555 1_555
O25A W10A 1_555 1_555
O26A W5A 1_555 1_555
O27A W4A 1_555 1_555
O28A W6A 1_555 1_555
O29A W4A 1_555 1_555
O30A W10A 1_555 1_555
O31A W7A 1_555 1_555
O32A W6A 1_555 1_555
O33A W4A 1_555 1_555
O34A W2A 1_555 1_555
O35A W9A 1_555 1_555
O36A W4A 1_555 1_555
O37A W2A 1_555 1_555
O38A W7A 1_555 1_555
O39A W17A 1_555 1_555
O40A W5A 1_555 1_555
O41A W14A 1_555 1_555
O42A W7A 1_555 1_555
O43A W1A 1_555 1_555
O44A W16A 1_555 1_555
O45A W13A 1_555 1_555
O46A W6A 1_555 1_555
O47A W6A 1_555 1_555
O48A W12A 1_555 1_555
O49A W1A 1_555 1_555
O50A W1A 1_555 1_555
O51A W3A 1_555 1_555
O52A W10A 1_555 1_555
O53A W2A 1_555 1_555
O54A W3A 1_555 1_555
O55A W8A 1_555 1_555
O56A W7A 1_555 1_555
O57A W7A 1_555 1_555
O58A W5A 1_555 1_555
O59A W2A 1_555 1_555
O60A W18A 1_555 1_555
O61A W15A 1_555 1_555
O62A W1A 1_555 1_555
O63A W9A 1_555 1_555
N1A C1A 1_555 1_555
N2A C1A 1_555 1_555
N3A C15A 1_555 1_555
N4A Ag1A 1_555 1_555
N5A C13A 1_555 1_555
N6A Ag2A 1_555 1_555
N7A C18A 1_555 1_555
N8A C16A 1_555 1_555
N9A Ag3A 1_555 1_555
N10A Ag3A 1_555 1_555
N11A C39A 1_555 1_555
N12A Ag4 1_555 1_555
N13A C48 1_555 1_555
N14A C21A 1_555 1_555
C1A H1A 1_555 1_555
C2A H2A 1_555 1_555
C3A N1A 1_555 1_555
H3A C3A 1_555 1_555
C4A N2A 1_555 1_555
H4A C4A 1_555 1_555
C5A H5A 1_555 1_555
H6A C5A 1_555 1_555
C6A H7A 1_555 1_555
C7A C6A 1_555 1_555
H8A C7A 1_555 1_555
C8A N1A 1_555 1_555
H9A C8A 1_555 1_555
H10A C8A 1_555 1_555
C9A N9A 1_555 1_555
H11A C9A 1_555 1_555
C10A C2A 1_555 1_555
H12A C10A 1_555 1_555
C11A H13A 1_555 1_555
C12A C11A 1_555 1_555
H14A C12A 1_555 1_555
C13A H15A 1_555 1_555
C14A C11A 1_555 1_555
H16A C14A 1_555 1_555
C15A C13A 1_555 1_555
H17A C15A 1_555 1_555
C16A H18A 1_555 1_555
C17A N13A 1_555 1_555
H19A C17A 1_555 1_555
H20A C17A 1_555 1_555
C18A C9A 1_555 1_555
H21A C18A 1_555 1_555
C19A N3A 1_555 1_555
H22A C19A 1_555 1_555
C20A N7A 1_555 1_555
H23A C20A 1_555 1_555
C21A N4A 1_555 1_555
H24A C21A 1_555 1_555
C22A H25A 1_555 1_555
C23A C22A 1_555 1_555
H26A C23A 1_555 1_555
C24A C22A 1_555 1_555
H27A C24A 1_555 1_555
C25A C6A 1_555 1_555
C26A N10A 1_555 1_555
H28A C26A 1_555 1_555
C27A N4A 1_555 1_555
H29A C27A 1_555 1_555
C28A N5A 1_555 1_555
H30A C28A 1_555 1_555
H31A C28A 1_555 1_555
C29A N7A 1_555 1_555
H32A C29A 1_555 1_555
H33A C29A 1_555 1_555
C30A H34A 1_555 1_555
C31A C17A 1_555 1_555
C32A C2A 1_555 1_555
C33A C23A 1_555 1_555
H35A C33A 1_555 1_555
C34A C30A 1_555 1_555
H36A C34A 1_555 1_555
C35A N8A 1_555 1_555
H37A C35A 1_555 1_555
H38A C35A 1_555 1_555
C36A C51 1_555 1_555
H39A C36A 1_555 1_555
C37A C24A 1_555 1_555
C38A N6A 1_555 1_555
H40A C38A 1_555 1_555
C39A H41A 1_555 1_555
H42A C39A 1_555 1_555
C40A N14A 1_555 1_555
H43A C40A 1_555 1_555
C41A N11A 1_555 1_555
H44A C41A 1_555 1_555
C42A C12A 1_555 1_555
H45A C42A 1_555 1_555
C43A C14A 1_555 1_555
C44A N6A 1_555 1_555
H46A C44A 1_555 1_555
C45A C33A 1_555 1_555
C46A H47A 1_555 1_555
C47A C34A 1_555 1_555
H48A C47A 1_555 1_555
C48A N13 1_555 1_555
H49A C48A 1_555 1_555
C49A N14A 1_555 1_555
H50A C49A 1_555 1_555
H51A C49A 1_555 1_555
C50A N10A 1_555 1_555
H52A C50A 1_555 1_555
C51A C36 1_555 1_555
H53A C51A 1_555 1_555
C52A C30A 1_555 1_555
C53A C39A 1_555 1_555
N15A C5A 1_555 1_555
C54A N15A 1_555 1_555
H54A C54A 1_555 1_555
N16A Ag2A 1_555 1_555
C55A N16A 1_555 1_555
H55A C55A 1_555 1_555
C56A N15A 1_555 1_555
H56A C56A 1_555 1_555
W3 O19 1_555 1_555
W3 O43 1_555 1_555
W3 O49 1_555 1_555
W8 O8 1_555 1_555
W8 O26 1_555 1_555
W8 O53 1_555 1_555
W9 O51 1_555 1_555
W11 O38 1_555 1_555
W11 O47 1_555 1_555
W11 O57 1_555 1_555
W12 O15 1_555 1_555
W12 O16 1_555 1_555
W12 O25 1_555 1_555
W12 O34 1_555 1_555
W13 O31 1_555 1_555
W13 O33 1_555 1_555
W13 O35 1_555 1_555
W13 O63 1_555 1_555
W14 O20 1_555 1_555
W14 O28 1_555 1_555
W14 O37 1_555 1_555
W15 O26 1_555 1_555
W15 O40 1_555 1_555
W15 O46 1_555 1_555
W16 O12 1_555 1_555
W16 O29 1_555 1_555
W16 O36 1_555 1_555
W17 O24 1_555 1_555
W17 O32 1_555 1_555
W17 O42 1_555 1_555
W17 O52 1_555 1_555
W18 O22 1_555 1_555
W18 O23 1_555 1_555
W18 O36 1_555 1_555
W18 O50 1_555 1_555
Ag1 O61 1_555 1_555
P1 O15 1_555 1_555
P1 O26 1_555 1_555
P1 O32 1_555 1_555
P2 O49 1_555 1_555
P2 O57 1_555 1_555
P2 O63 1_555 1_555
N5 C19 1_555 1_555
N8 C44 1_555 1_555
N9 C20 1_555 1_555
N11 C50 1_555 1_555
C3 C4 1_555 1_555
C5 C32 1_555 1_555
C7 C10 1_555 1_555
C8 C25 1_555 1_555
C16 C38 1_555 1_555
C25 C32 1_555 1_555
C26 C41 1_555 1_555
C27 C40 1_555 1_555
C28 C37 1_555 1_555
C29 C43 1_555 1_555
C31 C42 1_555 1_555
C31 C43 1_555 1_555
C35 C45 1_555 1_555
C37 C45 1_555 1_555
C46 C47 1_555 1_555
C46 C53 1_555 1_555
C49 C52 1_555 1_555
C52 C53 1_555 1_555
C54 N16 1_555 1_555
C55 C56 1_555 1_555
W3A O19A 1_555 1_555
W3A O43A 1_555 1_555
W3A O49A 1_555 1_555
W8A O8A 1_555 1_555
W8A O26A 1_555 1_555
W8A O53A 1_555 1_555
W9A O51A 1_555 1_555
W11A O38A 1_555 1_555
W11A O47A 1_555 1_555
W11A O57A 1_555 1_555
W12A O15A 1_555 1_555
W12A O16A 1_555 1_555
W12A O25A 1_555 1_555
W12A O34A 1_555 1_555
W13A O31A 1_555 1_555
W13A O33A 1_555 1_555
W13A O35A 1_555 1_555
W13A O63A 1_555 1_555
W14A O20A 1_555 1_555
W14A O28A 1_555 1_555
W14A O37A 1_555 1_555
W15A O26A 1_555 1_555
W15A O40A 1_555 1_555
W15A O46A 1_555 1_555
W16A O12A 1_555 1_555
W16A O29A 1_555 1_555
W16A O36A 1_555 1_555
W17A O24A 1_555 1_555
W17A O32A 1_555 1_555
W17A O42A 1_555 1_555
W17A O52A 1_555 1_555
W18A O22A 1_555 1_555
W18A O23A 1_555 1_555
W18A O36A 1_555 1_555
W18A O50A 1_555 1_555
Ag1A O61A 1_555 1_555
P1A O15A 1_555 1_555
P1A O26A 1_555 1_555
P1A O32A 1_555 1_555
P2A O49A 1_555 1_555
P2A O57A 1_555 1_555
P2A O63A 1_555 1_555
N5A C19A 1_555 1_555
N8A C44A 1_555 1_555
N9A C20A 1_555 1_555
N11A C50A 1_555 1_555
N12A C48A 1_555 1_555
N12A C51A 1_555 1_555
N13A C36A 1_555 1_555
C3A C4A 1_555 1_555
C5A C32A 1_555 1_555
C7A C10A 1_555 1_555
C8A C25A 1_555 1_555
C16A C38A 1_555 1_555
C25A C32A 1_555 1_555
C26A C41A 1_555 1_555
C27A C40A 1_555 1_555
C28A C37A 1_555 1_555
C29A C43A 1_555 1_555
C31A C42A 1_555 1_555
C31A C43A 1_555 1_555
C35A C45A 1_555 1_555
C37A C45A 1_555 1_555
C46A C47A 1_555 1_555
C46A C53A 1_555 1_555
C49A C52A 1_555 1_555
C52A C53A 1_555 1_555
C54A N16A 1_555 1_555
C55A C56A 1_555 1_555

#END
