
#######################################################################
#
#                 Cambridge Crystallographic Data Centre
#                                CCDC 
#
#######################################################################
#
# If this CIF has been generated from an entry in the Cambridge 
# Structural Database, then it will include bibliographic, chemical, 
# crystal, experimental, refinement or atomic coordinate data resulting 
# from the CCDC's data processing and validation procedures.
#
#######################################################################

data_ZECXEM
_symmetry_cell_setting           monoclinic
_symmetry_space_group_name_H-M   'C 2/c'
_symmetry_Int_Tables_number      15
_space_group_name_Hall           '-C 2yn'
loop_
_symmetry_equiv_pos_site_id
_symmetry_equiv_pos_as_xyz
1 x,y,z
2 -x,y,1/2-z
3 1/2+x,1/2+y,z
4 1/2-x,1/2+y,1/2-z
5 -x,-y,-z
6 x,-y,1/2+z
7 1/2-x,1/2-y,-z
8 1/2+x,1/2-y,1/2+z
_cell_length_a                   25.7590(8)
_cell_length_b                   13.5930(4)
_cell_length_c                   27.1420(8)
_cell_angle_alpha                90
_cell_angle_beta                 116.68
_cell_angle_gamma                90
_cell_volume                     8491.7
loop_
_atom_site_label
_atom_site_type_symbol
_atom_site_fract_x
_atom_site_fract_y
_atom_site_fract_z
Ag1 Ag 0.25046(3) -0.11760(4) 0.32321(3)
N1 N 0.2928(3) -0.8186(5) 0.3241(3)
N2 N 0.2176(3) -0.2600(5) 0.3160(3)
N3 N 0.2870(3) -0.9785(5) 0.3296(3)
N4 N 0.2134(3) -0.4210(5) 0.3110(3)
C1 C 0.2450(4) -0.3411(5) 0.3147(4)
H1 H 0.2818 -0.3425 0.3162
C2 C 0.1660(4) -0.2904(7) 0.3138(5)
H2 H 0.1378 -0.2491 0.3151
C3 C 0.3417(4) -0.9547(7) 0.3350(4)
H3 H 0.3709 -0.9993 0.3397
C4 C 0.3454(4) -0.8556(6) 0.3323(4)
H4 H 0.3775 -0.8198 0.3354
C5 C 0.2624(4) -0.5692(5) 0.3668(3)
C6 C 0.2679(4) -0.5227(7) 0.4140(4)
H5 H 0.2532 -0.4595 0.4117
C7 C 0.2949(4) -0.5688(7) 0.4647(4)
H6 H 0.2984 -0.5364 0.4962
C8 C 0.3109(4) -0.7106(7) 0.4217(4)
H7 H 0.3253 -0.7742 0.4245
C9 C 0.2761(4) -0.7147(5) 0.3176(4)
H8 H 0.2356 -0.7096 0.2908
H9 H 0.2989 -0.6799 0.3029
C10 C 0.2317(4) -0.5225(6) 0.3105(4)
H10 H 0.2574 -0.5240 0.2932
H11 H 0.1978 -0.5616 0.2881
C11 C 0.2839(3) -0.6646(6) 0.3700(3)
C12 C 0.1620(4) -0.3890(7) 0.3095(4)
H12 H 0.1308 -0.4278 0.3061
C24 C 0.2593(4) -0.8947(6) 0.3232(4)
H24 H 0.2214 -0.8889 0.3186
C28 C 0.3163(4) -0.6617(7) 0.4686(4)
H28 H 0.3347 -0.6923 0.5028
Ag1_2 Ag 0.25046(3) -1.11760(4) 0.32321(3)
N3_2 N 0.2870(3) 0.0215(5) 0.3296(3)
Ag2 Ag 0.06566(3) 0.05196(5) 0.55494(3)
N5 N 0.0949(3) -0.0842(5) 0.5404(3)
N6 N 0.0353(3) 0.1901(6) 0.5691(3)
N7 N 0.1279(3) -0.1999(5) 0.5049(3)
N8 N 0.0103(4) -0.3024(6) 0.4085(3)
C13 C 0.1316(5) -0.2360(8) 0.5534(4)
H13 H 0.1460 -0.2969 0.5692
C14 C 0.1100(4) -0.1657(8) 0.5735(4)
H14 H 0.1059 -0.1714 0.6057
C15 C 0.1075(4) -0.1080(6) 0.5000(4)
H15 H 0.1029 -0.0657 0.4714
C16 C 0.0963(5) -0.4041(8) 0.4280(4)
C17 C 0.0457(5) -0.3493(9) 0.3836(4)
H16 H 0.0217 -0.3946 0.3547
H17 H 0.0600 -0.2991 0.3674
C18 C 0.1443(5) -0.3555(7) 0.4673(4)
C19 C 0.0929(5) -0.5054(8) 0.4305(4)
H18 H 0.0608 -0.5375 0.4036
C20 C 0.1517(5) -0.2471(7) 0.4696(5)
H19 H 0.1927 -0.2316 0.4842
H20 H 0.1320 -0.2205 0.4326
C21 C 0.1884(5) -0.4116(8) 0.5071(4)
H21 H 0.2220 -0.3810 0.5327
C22 C 0.1824(5) -0.5140(8) 0.5089(5)
H22 H 0.2114 -0.5504 0.5366
C23 C 0.1350(5) -0.5599(8) 0.4710(5)
H23 H 0.1310 -0.6278 0.4723
C25 C 0.0352(4) 0.2752(7) 0.5429(4)
H25 H 0.0522 0.2836 0.5194
C26 C -0.0071(5) -0.3456(7) 0.4439(4)
H26 H -0.0008 -0.4104 0.4563
C27 C 0.0081(4) 0.2104(7) 0.5986(4)
H27 H 0.0025 0.1657 0.6216
Ag2D Ag -0.06566(3) -0.05196(5) 0.44506(3)
N5D N -0.0949(3) 0.0842(5) 0.4596(3)
N6D N -0.0353(3) -0.1901(6) 0.4309(3)
N7D N -0.1279(3) 0.1999(5) 0.4951(3)
N8D N -0.0103(4) 0.3024(6) 0.5915(3)
C13D C -0.1316(5) 0.2360(8) 0.4466(4)
H13D H -0.1460 0.2969 0.4308
C14D C -0.1100(4) 0.1657(8) 0.4265(4)
H14D H -0.1059 0.1714 0.3943
C15D C -0.1075(4) 0.1080(6) 0.5000(4)
H15D H -0.1029 0.0657 0.5286
C16D C -0.0963(5) 0.4041(8) 0.5720(4)
C17D C -0.0457(5) 0.3493(9) 0.6164(4)
H16D H -0.0217 0.3946 0.6453
H17D H -0.0600 0.2991 0.6326
C18D C -0.1443(5) 0.3555(7) 0.5327(4)
C19D C -0.0929(5) 0.5054(8) 0.5695(4)
H18D H -0.0608 0.5375 0.5964
C20D C -0.1517(5) 0.2471(7) 0.5304(5)
H19D H -0.1927 0.2316 0.5158
H20D H -0.1320 0.2205 0.5674
C21D C -0.1884(5) 0.4116(8) 0.4929(4)
H21D H -0.2220 0.3810 0.4673
C22D C -0.1824(5) 0.5140(8) 0.4911(5)
H22D H -0.2114 0.5504 0.4634
C23D C -0.1350(5) 0.5599(8) 0.5290(5)
H23D H -0.1310 0.6278 0.5277
C25D C -0.0352(4) -0.2752(7) 0.4571(4)
H25D H -0.0522 -0.2836 0.4806
C26D C 0.0071(5) 0.3456(7) 0.5561(4)
H26D H 0.0008 0.4104 0.5437
C27D C -0.0081(4) -0.2104(7) 0.4014(4)
H27D H -0.0025 -0.1657 0.3784
Si1 Si 0.0000 0.12815(19) 0.2500
W1 W 0.024183(15) 0.12817(2) 0.388297(13)
W2 W 0.119313(14) -0.00225(2) 0.350695(13)
W3 W 0.094600(14) 0.25918(2) 0.211880(13)
W4 W 0.0000 -0.13183(3) 0.2500
W5 W 0.0000 0.38850(3) 0.2500
W6 W 0.095040(15) -0.00056(3) 0.212220(15)
W7 W 0.119084(15) 0.25709(3) 0.350473(15)
O1 O 0.0562(5) 0.3359(8) 0.3174(5)
O3 O 0.1454(5) 0.2837(8) 0.2904(4)
O5 O 0.0492(4) 0.1242(6) 0.3142(4)
O6 O 0.1160(5) 0.1233(7) 0.2250(5)
O8 O -0.0403(5) 0.2328(8) 0.3649(4)
O10 O -0.0401(4) 0.2259(7) 0.2398(4)
O11 O -0.0401(4) 0.0362(7) 0.3674(4)
O13 O 0.0670(5) 0.2291(7) 0.3752(5)
O15 O 0.1285(5) 0.0112(8) 0.2869(4)
O17 O 0.1411(3) 0.3180(5) 0.1942(3)
O18 O 0.1373(4) 0.1343(7) 0.3490(4)
O20 O 0.0668(5) 0.0346(8) 0.3788(5)
O22 O -0.0302(4) 0.1310(6) 0.2901(4)
O23 O 0.0000 -0.2532(6) 0.2500
O24 O 0.1401(2) -0.0623(4) 0.1938(2)
O25 O 0.0263(6) 0.1159(9) 0.4508(5)
O27 O 0.1740(3) 0.3176(5) 0.3980(2)
O28 O 0.0410(4) 0.0310(7) 0.2638(4)
O29 O 0.0396(5) 0.3427(9) 0.2159(5)
O31 O 0.1751(3) -0.0648(6) 0.3982(3)
O32 O 0.0554(5) -0.1281(8) 0.2196(4)
O34 O 0.0726(5) -0.1238(8) 0.3241(4)
O36 O 0.0000 0.5115(6) 0.2500
W1A W -0.024183(15) 0.12817(2) 0.111703(13)
W2A W -0.119313(14) -0.00225(2) 0.149305(13)
W3A W -0.094600(14) 0.25918(2) 0.288120(13)
W6A W -0.095040(15) -0.00056(3) 0.287780(15)
W7A W -0.119084(15) 0.25709(3) 0.149527(15)
O1A O -0.0562(5) 0.3359(8) 0.1826(5)
O3A O -0.1454(5) 0.2837(8) 0.2096(4)
O5A O -0.0492(4) 0.1242(6) 0.1858(4)
O6A O -0.1160(5) 0.1233(7) 0.2750(5)
O8A O 0.0403(5) 0.2328(8) 0.1351(4)
O10A O 0.0401(4) 0.2259(7) 0.2602(4)
O11A O 0.0401(4) 0.0362(7) 0.1326(4)
O13A O -0.0670(5) 0.2291(7) 0.1248(5)
O15A O -0.1285(5) 0.0112(8) 0.2131(4)
O17A O -0.1411(3) 0.3180(5) 0.3058(3)
O18A O -0.1373(4) 0.1343(7) 0.1510(4)
O20A O -0.0668(5) 0.0346(8) 0.1212(5)
O22A O 0.0302(4) 0.1310(6) 0.2099(4)
O24A O -0.1401(2) -0.0623(4) 0.3062(2)
O25A O -0.0263(6) 0.1159(9) 0.0492(5)
O27A O -0.1740(3) 0.3176(5) 0.1020(2)
O28A O -0.0410(4) 0.0310(7) 0.2362(4)
O29A O -0.0396(5) 0.3427(9) 0.2841(5)
O31A O -0.1751(3) -0.0648(6) 0.1018(3)
O32A O -0.0554(5) -0.1281(8) 0.2804(4)
O34A O -0.0726(5) -0.1238(8) 0.1759(4)
O2? O 0.0715(5) 0.3832(8) 0.3164(5)
O4? O -0.1280(5) 0.2443(8) 0.2113(4)
O7? O -0.1305(5) 0.1329(7) 0.2904(5)
O9? O -0.0287(5) 0.2172(8) 0.3505(5)
O12? O -0.0283(5) 0.0254(7) 0.3481(4)
O14? O 0.0876(5) 0.2198(7) 0.4054(4)
O16? O -0.1450(5) -0.0322(8) 0.2065(4)
O19? O 0.1598(5) 0.1226(7) 0.3755(5)
O21? O 0.0874(5) 0.0232(8) 0.4030(5)
O26? O 0.0446(6) 0.1379(9) 0.4567(5)
O30? O 0.0553(5) 0.3796(8) 0.2126(5)
O33? O -0.0397(4) -0.0788(8) 0.2886(4)
O35? O 0.0561(5) -0.0866(8) 0.3123(5)
loop_
_geom_bond_atom_site_label_1
_geom_bond_atom_site_label_2
_geom_bond_site_symmetry_1
_geom_bond_site_symmetry_2
Si1 O5 1_555 1_555
W1 O5 1_555 1_555
W2 O5 1_555 1_555
W3 O3 1_555 1_555
W4 O23 1_555 1_555
W5 O1 1_555 1_555
W6 O6 1_555 1_555
W7 O1 1_555 1_555
Ag1 N2 1_555 1_555
Ag2 N5 1_555 1_555
N1 C4 1_555 1_555
N2 C1 1_555 1_555
N3 C3 1_555 1_555
N4 C1 1_555 1_555
N5 C14 1_555 1_555
N6 Ag2 1_555 1_555
N7 C13 1_555 1_555
N8 C17 1_555 1_555
O3 W7 1_555 1_555
O5 W7 1_555 1_555
O6 W3 1_555 1_555
O8 W1 1_555 1_555
O10 Si1 1_555 1_555
O11 W1 1_555 1_555
O13 W1 1_555 1_555
O15 W2 1_555 1_555
O17 W3 1_555 1_555
O18 W2 1_555 1_555
O20 W1 1_555 1_555
O22 Si1 1_555 1_555
O24 W6 1_555 1_555
O25 W1 1_555 1_555
O27 W7 1_555 1_555
O28 Si1 1_555 1_555
O29 W3 1_555 1_555
O31 W2 1_555 1_555
O32 W4 1_555 1_555
O34 W2 1_555 1_555
O36 W5 1_555 1_555
C1 H1 1_555 1_555
C2 N2 1_555 1_555
H2 C2 1_555 1_555
C3 H3 1_555 1_555
C4 C3 1_555 1_555
H4 C4 1_555 1_555
C5 C6 1_555 1_555
C6 H5 1_555 1_555
C7 C6 1_555 1_555
H6 C7 1_555 1_555
C8 H7 1_555 1_555
C9 N1 1_555 1_555
H8 C9 1_555 1_555
H9 C9 1_555 1_555
C10 N4 1_555 1_555
H10 C10 1_555 1_555
H11 C10 1_555 1_555
C11 C5 1_555 1_555
C12 N4 1_555 1_555
H12 C12 1_555 1_555
C13 H13 1_555 1_555
C14 C13 1_555 1_555
H14 C14 1_555 1_555
C15 N5 1_555 1_555
H15 C15 1_555 1_555
C16 C17 1_555 1_555
C17 H16 1_555 1_555
H17 C17 1_555 1_555
C18 C16 1_555 1_555
C19 C16 1_555 1_555
H18 C19 1_555 1_555
C20 N7 1_555 1_555
H19 C20 1_555 1_555
H20 C20 1_555 1_555
C21 C18 1_555 1_555
H21 C21 1_555 1_555
C22 C21 1_555 1_555
H22 C22 1_555 1_555
C23 C19 1_555 1_555
H23 C23 1_555 1_555
C24 N1 1_555 1_555
H24 C24 1_555 1_555
C25 N6 1_555 1_555
H25 C25 1_555 1_555
C26 N8 1_555 1_555
H26 C26 1_555 1_555
C27 N6 1_555 1_555
H27 C27 1_555 1_555
C28 C7 1_555 1_555
H28 C28 1_555 1_555
W1A O5A 1_555 1_555
W2A O5A 1_555 1_555
W3A O8 1_555 1_555
W6A O11 1_555 1_555
W7A O10 1_555 1_555
Ag1_2 N3 1_555 1_555
Ag2D N5D 1_555 1_555
N3_2 Ag1 1_555 1_555
N5D C14D 1_555 1_555
N6D Ag2D 1_555 1_555
N7D C13D 1_555 1_555
N8D C27 1_555 1_555
O1A W5 1_555 1_555
O3A W3A 1_555 1_555
O5A Si1 1_555 1_555
O6A W3A 1_555 1_555
O8A W3 1_555 1_555
O10A Si1 1_555 1_555
O11A W6 1_555 1_555
O13A W1A 1_555 1_555
O15A W2A 1_555 1_555
O17A W3A 1_555 1_555
O18A W2A 1_555 1_555
O20A W1A 1_555 1_555
O22A Si1 1_555 1_555
O24A W6A 1_555 1_555
O25A W1A 1_555 1_555
O27A W7A 1_555 1_555
O28A Si1 1_555 1_555
O29A W5 1_555 1_555
O31A W2A 1_555 1_555
O32A W4 1_555 1_555
O34A W4 1_555 1_555
C13D H13D 1_555 1_555
C14D C13D 1_555 1_555
H14D C14D 1_555 1_555
C15D N5D 1_555 1_555
H15D C15D 1_555 1_555
C16D C17D 1_555 1_555
C17D N8D 1_555 1_555
H16D C17D 1_555 1_555
H17D C17D 1_555 1_555
C18D C16D 1_555 1_555
C19D C16D 1_555 1_555
H18D C19D 1_555 1_555
C20D N7D 1_555 1_555
H19D C20D 1_555 1_555
H20D C20D 1_555 1_555
C21D C18D 1_555 1_555
H21D C21D 1_555 1_555
C22D C21D 1_555 1_555
H22D C22D 1_555 1_555
C23D C19D 1_555 1_555
H23D C23D 1_555 1_555
C25D C26 1_555 1_555
H25D C25D 1_555 1_555
C26D C25 1_555 1_555
H26D C26D 1_555 1_555
C27D N8 1_555 1_555
H27D C27D 1_555 1_555
W1 O22 1_555 1_555
W2 O20 1_555 1_555
W2 O28 1_555 1_555
W3 O10A 1_555 1_555
W3 O22A 1_555 1_555
W4 O28 1_555 1_555
W4 O34 1_555 1_555
W4 O28A 1_555 1_555
W5 O10 1_555 1_555
W5 O29 1_555 1_555
W5 O10A 1_555 1_555
W6 O15 1_555 1_555
W6 O28 1_555 1_555
W6 O32 1_555 1_555
W6 O22A 1_555 1_555
W7 O13 1_555 1_555
W7 O18 1_555 1_555
W7 O10A 1_555 1_555
N3 C24 1_555 1_555
N7 C15 1_555 1_555
O10 W3A 1_555 1_555
O22 W3A 1_555 1_555
O22 W6A 1_555 1_555
C2 C12 1_555 1_555
C5 C10 1_555 1_555
C8 C11 1_555 1_555
C8 C28 1_555 1_555
C9 C11 1_555 1_555
C18 C20 1_555 1_555
C22 C23 1_555 1_555
W1A O8A 1_555 1_555
W1A O11A 1_555 1_555
W1A O22A 1_555 1_555
W2A O20A 1_555 1_555
W2A O28A 1_555 1_555
W2A O34A 1_555 1_555
W3A O29A 1_555 1_555
W6A O6A 1_555 1_555
W6A O15A 1_555 1_555
W6A O28A 1_555 1_555
W6A O32A 1_555 1_555
W7A O1A 1_555 1_555
W7A O3A 1_555 1_555
W7A O5A 1_555 1_555
W7A O13A 1_555 1_555
W7A O18A 1_555 1_555
N6D C25D 1_555 1_555
N6D C27D 1_555 1_555
N7D C15D 1_555 1_555
N8D C26D 1_555 1_555
C18D C20D 1_555 1_555
C22D C23D 1_555 1_555

#END
