
#######################################################################
#
#                 Cambridge Crystallographic Data Centre
#                                CCDC 
#
#######################################################################
#
# If this CIF has been generated from an entry in the Cambridge 
# Structural Database, then it will include bibliographic, chemical, 
# crystal, experimental, refinement or atomic coordinate data resulting 
# from the CCDC's data processing and validation procedures.
#
#######################################################################

data_ZEDGEW
_symmetry_cell_setting           monoclinic
_symmetry_space_group_name_H-M   'P 21'
_symmetry_Int_Tables_number      4
_space_group_name_Hall           'P 2yb'
loop_
_symmetry_equiv_pos_site_id
_symmetry_equiv_pos_as_xyz
1 x,y,z
2 -x,1/2+y,-z
_cell_length_a                   9.6544(19)
_cell_length_b                   20.825(4)
_cell_length_c                   10.138(2)
_cell_angle_alpha                90
_cell_angle_beta                 117.47(3)
_cell_angle_gamma                90
_cell_volume                     1808.46
loop_
_atom_site_label
_atom_site_type_symbol
_atom_site_fract_x
_atom_site_fract_y
_atom_site_fract_z
Co1 Co 0.51518(13) 0.60397(6) 0.63070(11)
O1 O 0.6269(7) 0.6841(3) 0.7699(6)
O2 O 0.4487(6) 0.5113(3) 0.5465(6)
H1 H 0.3873 0.5287 0.4687
H2 H 0.4022 0.4827 0.5653
O3 O 0.7289(7) 0.5882(3) 0.8340(7)
O5 O 1.3335(7) 0.6461(3) 1.4442(6)
O6 O 1.2341(7) 0.5617(3) 1.2931(7)
N1 N 0.3818(8) 0.5930(4) 0.7607(8)
N2 N 0.1902(8) 0.6644(4) 0.6373(9)
H5 H 0.2388 0.6726 0.5864
N3 N -0.3383(9) 0.6142(4) 0.5197(8)
C1 C 0.7337(10) 0.6470(5) 0.8600(10)
C2 C 0.8642(11) 0.6752(5) 0.9941(10)
C3 C 0.9822(10) 0.6373(5) 1.0860(10)
H7 H 0.9799 0.5938 1.0645
C4 C 1.1107(10) 0.6623(5) 1.2156(9)
C5 C 1.1149(12) 0.7281(6) 1.2398(11)
H8 H 1.1993 0.7464 1.3208
C6 C 0.9916(15) 0.7670(7) 1.1420(13)
H9 H 0.9930 0.8109 1.1593
C7 C 0.8699(13) 0.7404(6) 1.0220(12)
H10 H 0.7889 0.7666 0.9573
C8 C 1.2377(10) 0.6203(5) 1.3270(10)
C9 C 0.2551(11) 0.6225(5) 0.7474(9)
C10 C 0.1991(11) 0.6133(5) 0.8500(10)
H11 H 0.1124 0.6360 0.8415
C11 C 0.2719(12) 0.5710(5) 0.9625(11)
H12 H 0.2332 0.5637 1.0299
C12 C 0.4050(12) 0.5381(5) 0.9782(10)
H13 H 0.4571 0.5091 1.0553
C13 C 0.4557(12) 0.5509(5) 0.8727(10)
H14 H 0.5436 0.5297 0.8797
C14 C 0.0385(10) 0.6986(5) 0.5943(10)
H15 H 0.0272 0.7325 0.5245
H16 H 0.0413 0.7184 0.6821
C15 C -0.2118(10) 0.6509(5) 0.5732(10)
H17 H -0.1964 0.6770 0.6532
C16 C -0.1014(11) 0.6549(5) 0.5249(10)
C17 C -0.1305(12) 0.6147(6) 0.4054(11)
H18 H -0.0597 0.6137 0.3669
C18 C -0.2586(13) 0.5770(5) 0.3435(11)
H19 H -0.2761 0.5504 0.2635
C19 C -0.3626(11) 0.5785(5) 0.4011(11)
H20 H -0.4530 0.5540 0.3559
Co1_2 Co 1.51518(13) 0.60397(6) 1.63070(11)
Co1_3 Co -0.48482(13) 0.60397(6) 0.63070(11)
O5_2 O 0.3335(7) 0.6461(3) 0.4442(6)
N3_2 N 0.6617(9) 0.6142(4) 0.5197(8)
Co2 Co 1.05372(13) 0.39604(6) 0.38591(11)
O4 O 1.0019(7) 0.4883(4) 0.2975(6)
H3 H 0.941(7) 0.477(5) 0.208(4)
H4 H 0.949(8) 0.503(5) 0.338(8)
O7 O 1.2703(7) 0.4151(3) 0.5925(7)
O8 O 1.1610(7) 0.3194(3) 0.5346(7)
O9 O 1.7704(8) 0.4402(4) 1.0570(8)
O10 O 1.8739(7) 0.3544(3) 1.2058(6)
N4 N 0.9206(8) 0.4152(3) 0.5086(8)
N5 N 0.7342(9) 0.3360(4) 0.3993(9)
H6 H 0.7840 0.3256 0.3507
N6 N 0.2039(9) 0.3814(4) 0.2785(8)
C20 C 1.2685(12) 0.3571(6) 0.6218(10)
C21 C 1.4042(12) 0.3272(5) 0.7557(11)
C22 C 1.5263(11) 0.3645(5) 0.8566(9)
H21 H 1.5250 0.4086 0.8416
C23 C 1.6481(11) 0.3379(5) 0.9773(11)
C24 C 1.6479(12) 0.2739(6) 1.0016(11)
H22 H 1.7307 0.2557 1.0841
C25 C 1.5271(15) 0.2353(7) 0.9061(14)
H23 H 1.5279 0.1915 0.9238
C26 C 1.4049(14) 0.2628(6) 0.7838(11)
H24 H 1.3220 0.2372 0.7197
C27 C 1.7715(10) 0.3838(6) 1.0858(10)
C28 C 0.7951(10) 0.3831(5) 0.5030(10)
C29 C 0.7320(11) 0.3979(6) 0.6018(10)
H25 H 0.6461 0.3754 0.5957
C30 C 0.7964(12) 0.4442(5) 0.7028(11)
H26 H 0.7573 0.4531 0.7692
C31 C 0.9240(12) 0.4796(5) 0.7094(11)
H27 H 0.9709 0.5126 0.7774
C32 C 0.9736(12) 0.4617(5) 0.6078(10)
H28 H 1.0556 0.4856 0.6092
C33 C 0.5894(11) 0.3020(5) 0.3649(10)
H29 H 0.5943 0.2861 0.4569
H30 H 0.5816 0.2651 0.3034
C34 C 0.3408(10) 0.3459(5) 0.3440(11)
H31 H 0.3638 0.3236 0.4312
C35 C 0.4439(12) 0.3421(5) 0.2860(11)
C36 C 0.4035(12) 0.3726(5) 0.1522(11)
H32 H 0.4711 0.3711 0.1102
C37 C 0.2635(11) 0.4054(5) 0.0799(10)
H33 H 0.2365 0.4260 -0.0100
C38 C 0.1643(11) 0.4068(5) 0.1446(11)
H34 H 0.0669 0.4261 0.0931
Co2_2 Co 2.05372(13) 0.39604(6) 1.38591(11)
Co2_3 Co 0.05372(13) 0.39604(6) 0.38591(11)
O10_2 O 0.8739(7) 0.3544(3) 0.2058(6)
N6_2 N 1.2039(9) 0.3814(4) 0.2785(8)
loop_
_geom_bond_atom_site_label_1
_geom_bond_atom_site_label_2
_geom_bond_site_symmetry_1
_geom_bond_site_symmetry_2
Co1 O1 1_555 1_555
Co2 O4 1_555 1_555
O1 C1 1_555 1_555
O2 Co1 1_555 1_555
H1 O2 1_555 1_555
H2 O2 1_555 1_555
O3 Co1 1_555 1_555
O4 H3 1_555 1_555
H4 O4 1_555 1_555
O5 C8 1_555 1_555
O6 C8 1_555 1_555
O7 Co2 1_555 1_555
O8 Co2 1_555 1_555
O9 C27 1_555 1_555
O10 C27 1_555 1_555
N1 Co1 1_555 1_555
N2 H5 1_555 1_555
N3 C15 1_555 1_555
N4 Co2 1_555 1_555
N5 H6 1_555 1_555
N6 C34 1_555 1_555
C1 O3 1_555 1_555
C2 C1 1_555 1_555
C3 C2 1_555 1_555
H7 C3 1_555 1_555
C4 C3 1_555 1_555
C5 C4 1_555 1_555
H8 C5 1_555 1_555
C6 C5 1_555 1_555
H9 C6 1_555 1_555
C7 C2 1_555 1_555
H10 C7 1_555 1_555
C8 C4 1_555 1_555
C9 N1 1_555 1_555
C10 C9 1_555 1_555
H11 C10 1_555 1_555
C11 C10 1_555 1_555
H12 C11 1_555 1_555
C12 C11 1_555 1_555
H13 C12 1_555 1_555
C13 N1 1_555 1_555
H14 C13 1_555 1_555
C14 N2 1_555 1_555
H15 C14 1_555 1_555
H16 C14 1_555 1_555
C15 H17 1_555 1_555
C16 C14 1_555 1_555
C17 C16 1_555 1_555
H18 C17 1_555 1_555
C18 C17 1_555 1_555
H19 C18 1_555 1_555
C19 N3 1_555 1_555
H20 C19 1_555 1_555
C20 O7 1_555 1_555
C21 C20 1_555 1_555
C22 C21 1_555 1_555
H21 C22 1_555 1_555
C23 C22 1_555 1_555
C24 C23 1_555 1_555
H22 C24 1_555 1_555
C25 C24 1_555 1_555
H23 C25 1_555 1_555
C26 C21 1_555 1_555
H24 C26 1_555 1_555
C27 C23 1_555 1_555
C28 N4 1_555 1_555
C29 C28 1_555 1_555
H25 C29 1_555 1_555
C30 C29 1_555 1_555
H26 C30 1_555 1_555
C31 C30 1_555 1_555
H27 C31 1_555 1_555
C32 N4 1_555 1_555
H28 C32 1_555 1_555
C33 N5 1_555 1_555
H29 C33 1_555 1_555
H30 C33 1_555 1_555
C34 H31 1_555 1_555
C35 C33 1_555 1_555
C36 C35 1_555 1_555
H32 C36 1_555 1_555
C37 C36 1_555 1_555
H33 C37 1_555 1_555
C38 N6 1_555 1_555
H34 C38 1_555 1_555
Co1_2 O5 1_555 1_555
Co1_3 N3 1_555 1_555
Co2_2 O10 1_555 1_555
Co2_3 N6 1_555 1_555
O5_2 Co1 1_555 1_555
O10_2 Co2 1_555 1_555
N3_2 Co1 1_555 1_555
N6_2 Co2 1_555 1_555
O8 C20 1_555 1_555
N2 C9 1_555 1_555
N5 C28 1_555 1_555
C6 C7 1_555 1_555
C12 C13 1_555 1_555
C15 C16 1_555 1_555
C18 C19 1_555 1_555
C25 C26 1_555 1_555
C31 C32 1_555 1_555
C34 C35 1_555 1_555
C37 C38 1_555 1_555

#END
