
#######################################################################
#
#                 Cambridge Crystallographic Data Centre
#                                CCDC 
#
#######################################################################
#
# If this CIF has been generated from an entry in the Cambridge 
# Structural Database, then it will include bibliographic, chemical, 
# crystal, experimental, refinement or atomic coordinate data resulting 
# from the CCDC's data processing and validation procedures.
#
#######################################################################

data_ZEDGIA
_symmetry_cell_setting           triclinic
_symmetry_space_group_name_H-M   'P -1'
_symmetry_Int_Tables_number      2
_space_group_name_Hall           '-P 1'
loop_
_symmetry_equiv_pos_site_id
_symmetry_equiv_pos_as_xyz
1 x,y,z
2 -x,-y,-z
_cell_length_a                   9.1940(18)
_cell_length_b                   10.167(2)
_cell_length_c                   10.905(2)
_cell_angle_alpha                114.80(3)
_cell_angle_beta                 97.60(3)
_cell_angle_gamma                102.10(3)
_cell_volume                     876.505
loop_
_atom_site_label
_atom_site_type_symbol
_atom_site_fract_x
_atom_site_fract_y
_atom_site_fract_z
Zn1 Zn 0.39546(3) 0.84008(3) 0.76077(3)
O1 O 0.3139(2) 0.7161(2) 0.8509(2)
O2 O 0.3843(2) 0.5416(2) 0.6854(2)
O3 O 0.3429(2) 0.0271(2) 0.8728(2)
O4 O 0.4606(2) 0.1007(2) 0.7380(2)
N1 N 0.2577(2) 0.7661(2) 0.5663(2)
N2 N 0.0479(2) 0.6786(3) 0.6335(2)
H1 H 0.113(3) 0.685(4) 0.701(2)
N3 N -0.3794(2) 0.8690(2) 0.7710(2)
C1 C 0.3407(3) 0.5867(3) 0.7940(3)
C2 C 0.3133(3) 0.4887(3) 0.8654(3)
C3 C 0.3576(3) 0.3573(3) 0.8182(3)
H2 H 0.4042 0.3323 0.7441
C4 C 0.3335(3) 0.2630(3) 0.8801(3)
C5 C 0.2640(3) 0.3000(3) 0.9901(3)
H3 H 0.2463 0.2366 1.0314
C6 C 0.2205(4) 0.4323(3) 1.0386(3)
H4 H 0.1746 0.4576 1.1131
C7 C 0.2450(3) 0.5262(3) 0.9770(3)
H5 H 0.2159 0.6146 1.0101
C8 C 0.3847(3) 0.1218(3) 0.8254(3)
C9 C 0.1039(3) 0.7217(3) 0.5433(3)
C10 C 0.0100(3) 0.7195(4) 0.4301(3)
H6 H -0.0961 0.6941 0.4172
C11 C 0.0762(4) 0.7553(5) 0.3386(4)
H7 H 0.0147 0.7538 0.2629
C12 C 0.2334(4) 0.7934(4) 0.3579(4)
H8 H 0.2794 0.8137 0.2942
C13 C 0.3190(3) 0.8005(4) 0.4739(3)
H9 H 0.4254 0.8306 0.4900
C14 C -0.1129(3) 0.6409(3) 0.6327(3)
H10 H -0.1320 0.5735 0.6745
H11 H -0.1734 0.5864 0.5368
C15 C -0.3220(3) 0.7579(3) 0.6971(3)
H12 H -0.3901 0.6635 0.6344
C16 C -0.1663(3) 0.7775(3) 0.7101(3)
C17 C -0.0669(3) 0.9214(3) 0.8018(3)
H13 H 0.0386 0.9401 0.8120
C18 C -0.1261(3) 1.0358(3) 0.8772(3)
H14 H -0.0607 1.1322 0.9383
C19 C -0.2819(3) 1.0065(3) 0.8617(3)
H15 H -0.3210 1.0831 0.9149
Zn1_2 Zn 0.39546(3) -0.15992(3) 0.76077(3)
Zn1_3 Zn -0.60454(3) 0.84008(3) 0.76077(3)
O3_2 O 0.3429(2) 1.0271(2) 0.8728(2)
N3_2 N 0.6206(2) 0.8690(2) 0.7710(2)
loop_
_geom_bond_atom_site_label_1
_geom_bond_atom_site_label_2
_geom_bond_site_symmetry_1
_geom_bond_site_symmetry_2
Zn1 O1 1_555 1_555
O1 C1 1_555 1_555
O2 C1 1_555 1_555
O3 C8 1_555 1_555
O4 C8 1_555 1_555
N1 Zn1 1_555 1_555
N2 H1 1_555 1_555
N3 C15 1_555 1_555
C1 C2 1_555 1_555
C2 C3 1_555 1_555
C3 H2 1_555 1_555
C4 C3 1_555 1_555
C5 C4 1_555 1_555
H3 C5 1_555 1_555
C6 C5 1_555 1_555
H4 C6 1_555 1_555
C7 C2 1_555 1_555
H5 C7 1_555 1_555
C8 C4 1_555 1_555
C9 N1 1_555 1_555
C10 C9 1_555 1_555
H6 C10 1_555 1_555
C11 C10 1_555 1_555
H7 C11 1_555 1_555
C12 C11 1_555 1_555
H8 C12 1_555 1_555
C13 N1 1_555 1_555
H9 C13 1_555 1_555
C14 N2 1_555 1_555
H10 C14 1_555 1_555
H11 C14 1_555 1_555
C15 H12 1_555 1_555
C16 C14 1_555 1_555
C17 C16 1_555 1_555
H13 C17 1_555 1_555
C18 C17 1_555 1_555
H14 C18 1_555 1_555
C19 N3 1_555 1_555
H15 C19 1_555 1_555
Zn1_2 O3 1_555 1_555
Zn1_3 N3 1_555 1_555
O3_2 Zn1 1_555 1_555
N3_2 Zn1 1_555 1_555
N2 C9 1_555 1_555
C6 C7 1_555 1_555
C12 C13 1_555 1_555
C15 C16 1_555 1_555
C18 C19 1_555 1_555

#END
