
#######################################################################
#
#                 Cambridge Crystallographic Data Centre
#                                CCDC 
#
#######################################################################
#
# If this CIF has been generated from an entry in the Cambridge 
# Structural Database, then it will include bibliographic, chemical, 
# crystal, experimental, refinement or atomic coordinate data resulting 
# from the CCDC's data processing and validation procedures.
#
#######################################################################

data_ZEDGOG
_symmetry_cell_setting           monoclinic
_symmetry_space_group_name_H-M   'P 21/n'
_symmetry_Int_Tables_number      14
_space_group_name_Hall           '-P 2yn'
loop_
_symmetry_equiv_pos_site_id
_symmetry_equiv_pos_as_xyz
1 x,y,z
2 1/2-x,1/2+y,1/2-z
3 -x,-y,-z
4 1/2+x,1/2-y,1/2+z
_cell_length_a                   12.055(2)
_cell_length_b                   13.112(3)
_cell_length_c                   16.940(3)
_cell_angle_alpha                90
_cell_angle_beta                 107.21(3)
_cell_angle_gamma                90
_cell_volume                     2557.74
loop_
_atom_site_label
_atom_site_type_symbol
_atom_site_fract_x
_atom_site_fract_y
_atom_site_fract_z
Cd1 Cd 0.64387(2) 0.146382(19) 0.776846(18)
Cd2 Cd 0.83303(2) 0.356175(19) 0.703733(18)
O1 O 0.5267(2) 0.2432(2) 0.67785(18)
O2 O 0.6637(3) 0.3523(2) 0.74175(18)
O3 O 0.2814(3) 0.3436(2) 0.39966(19)
O4 O 0.2168(3) 0.4998(2) 0.37724(19)
O5 O 0.7751(3) 0.1453(2) 0.70080(18)
O6 O 0.7436(3) 0.2558(2) 0.59740(17)
O7 O 0.4563(3) -0.0020(2) 0.28881(19)
O8 O 0.4519(3) 0.1548(2) 0.3341(2)
N1 N 0.5047(3) 0.1880(3) 0.8484(2)
N2 N 0.3465(4) 0.1165(3) 0.7542(3)
H1 H 0.3945 0.0834 0.7349
N3 N 0.0029(3) 0.3213(3) 0.6663(2)
C1 C 0.5697(3) 0.3327(3) 0.6888(3)
C2 C 0.5018(3) 0.4139(3) 0.6331(2)
C3 C 0.4252(3) 0.3886(3) 0.5577(2)
H2 H 0.4169 0.3207 0.5410
C4 C 0.3597(3) 0.4637(3) 0.5060(2)
C5 C 0.3713(3) 0.5642(3) 0.5322(2)
H3 H 0.3263 0.6145 0.4991
C6 C 0.4502(4) 0.5905(3) 0.6079(3)
H4 H 0.4589 0.6585 0.6243
C7 C 0.5156(3) 0.5159(3) 0.6587(2)
H5 H 0.5681 0.5333 0.7092
C8 C 0.2817(3) 0.4344(3) 0.4228(2)
C9 C 0.7395(3) 0.1668(3) 0.6246(2)
C10 C 0.6930(3) 0.0857(3) 0.5623(2)
C11 C 0.6192(3) 0.1111(3) 0.4849(2)
H6 H 0.5994 0.1791 0.4726
C12 C 0.5747(3) 0.0368(3) 0.4261(2)
C13 C 0.6048(4) -0.0646(3) 0.4447(3)
H7 H 0.5759 -0.1150 0.4054
C14 C 0.6780(4) -0.0909(3) 0.5221(3)
H8 H 0.6975 -0.1589 0.5344
C15 C 0.7220(4) -0.0164(3) 0.5810(3)
H9 H 0.7708 -0.0343 0.6328
C16 C 0.4888(3) 0.0647(3) 0.3451(2)
C17 C 0.3901(4) 0.1738(4) 0.8232(3)
C18 C 0.3190(5) 0.2157(6) 0.8666(4)
H10 H 0.2393 0.2043 0.8487
C19 C 0.3660(6) 0.2730(8) 0.9348(4)
H11 H 0.3195 0.2999 0.9647
C20 C 0.4836(6) 0.2908(7) 0.9590(4)
H12 H 0.5177 0.3322 1.0042
C21 C 0.5490(5) 0.2463(5) 0.9154(3)
H13 H 0.6288 0.2569 0.9331
C22 C 0.2236(4) 0.1081(4) 0.7113(4)
H14 H 0.1851 0.0764 0.7478
H15 H 0.2132 0.0639 0.6637
C23 C 0.0574(4) 0.2322(4) 0.6896(3)
H16 H 0.0201 0.1826 0.7118
C24 C 0.1661(4) 0.2102(4) 0.6824(3)
C25 C 0.2211(5) 0.2857(5) 0.6504(4)
H17 H 0.2950 0.2747 0.6453
C26 C 0.1658(5) 0.3761(4) 0.6264(4)
H18 H 0.2018 0.4267 0.6044
C27 C 0.0565(5) 0.3932(4) 0.6346(3)
H19 H 0.0197 0.4553 0.6179
Cd1C Cd 0.14387(2) 0.353618(19) 0.276846(18)
Cd1B Cd 0.35613(2) -0.146382(19) 0.223154(18)
Cd2B Cd 0.16697(2) 0.643825(19) 0.296267(18)
Cd2C Cd 0.33303(2) 0.143825(19) 0.203733(18)
Cd2_2 Cd -0.16697(2) 0.356175(19) 0.703733(18)
O3C O 0.7814(3) 0.1564(2) 0.89966(19)
O4C O 0.7168(3) 0.0002(2) 0.87724(19)
O4B O 0.7832(3) 0.5002(2) 0.62276(19)
O7B O 0.5437(3) 0.0020(2) 0.71119(19)
O7C O 0.9563(3) 0.5020(2) 0.78881(19)
O8C O 0.9519(3) 0.3452(2) 0.8341(2)
N3_2 N 1.0029(3) 0.3213(3) 0.6663(2)
loop_
_geom_bond_atom_site_label_1
_geom_bond_atom_site_label_2
_geom_bond_site_symmetry_1
_geom_bond_site_symmetry_2
Cd1 O1 1_555 1_555
Cd2 O2 1_555 1_555
O1 C1 1_555 1_555
O2 C1 1_555 1_555
O3 C8 1_555 1_555
O4 C8 1_555 1_555
O5 Cd1 1_555 1_555
O6 Cd2 1_555 1_555
O7 C16 1_555 1_555
O8 C16 1_555 1_555
N1 Cd1 1_555 1_555
N2 H1 1_555 1_555
N3 C23 1_555 1_555
C1 C2 1_555 1_555
C2 C3 1_555 1_555
C3 H2 1_555 1_555
C4 C3 1_555 1_555
C5 C4 1_555 1_555
H3 C5 1_555 1_555
C6 C5 1_555 1_555
H4 C6 1_555 1_555
C7 C2 1_555 1_555
H5 C7 1_555 1_555
C8 C4 1_555 1_555
C9 O5 1_555 1_555
C10 C9 1_555 1_555
C11 C10 1_555 1_555
H6 C11 1_555 1_555
C12 C11 1_555 1_555
C13 C12 1_555 1_555
H7 C13 1_555 1_555
C14 C13 1_555 1_555
H8 C14 1_555 1_555
C15 C10 1_555 1_555
H9 C15 1_555 1_555
C16 C12 1_555 1_555
C17 N1 1_555 1_555
C18 C17 1_555 1_555
H10 C18 1_555 1_555
C19 C18 1_555 1_555
H11 C19 1_555 1_555
C20 C19 1_555 1_555
H12 C20 1_555 1_555
C21 N1 1_555 1_555
H13 C21 1_555 1_555
C22 N2 1_555 1_555
H14 C22 1_555 1_555
H15 C22 1_555 1_555
C23 H16 1_555 1_555
C24 C22 1_555 1_555
C25 C24 1_555 1_555
H17 C25 1_555 1_555
C26 C25 1_555 1_555
H18 C26 1_555 1_555
C27 N3 1_555 1_555
H19 C27 1_555 1_555
Cd1C O3 1_555 1_555
Cd1B O7 1_555 1_555
Cd2B O4 1_555 1_555
Cd2C O7 1_555 1_555
Cd2_2 N3 1_555 1_555
O3C Cd1 1_555 1_555
O4C Cd1 1_555 1_555
O4B Cd2 1_555 1_555
O7B Cd1 1_555 1_555
O7C Cd2 1_555 1_555
O8C Cd2 1_555 1_555
N3_2 Cd2 1_555 1_555
O4 Cd1C 1_555 1_555
O6 C9 1_555 1_555
O8 Cd2C 1_555 1_555
N2 C17 1_555 1_555
C6 C7 1_555 1_555
C14 C15 1_555 1_555
C20 C21 1_555 1_555
C23 C24 1_555 1_555
C26 C27 1_555 1_555

#END
