
#######################################################################
#
#                 Cambridge Crystallographic Data Centre
#                                CCDC 
#
#######################################################################
#
# If this CIF has been generated from an entry in the Cambridge 
# Structural Database, then it will include bibliographic, chemical, 
# crystal, experimental, refinement or atomic coordinate data resulting 
# from the CCDC's data processing and validation procedures.
#
#######################################################################

data_ZEDGUM
_symmetry_cell_setting           triclinic
_symmetry_space_group_name_H-M   'P -1'
_symmetry_Int_Tables_number      2
_space_group_name_Hall           '-P 1'
loop_
_symmetry_equiv_pos_site_id
_symmetry_equiv_pos_as_xyz
1 x,y,z
2 -x,-y,-z
_cell_length_a                   9.0247(18)
_cell_length_b                   10.475(2)
_cell_length_c                   12.242(2)
_cell_angle_alpha                99.96(3)
_cell_angle_beta                 110.61(3)
_cell_angle_gamma                106.37(3)
_cell_volume                     990.423
loop_
_atom_site_label
_atom_site_type_symbol
_atom_site_fract_x
_atom_site_fract_y
_atom_site_fract_z
Mn1 Mn 0.55704(6) 0.21343(4) 0.16593(4)
O1 O 0.4981(3) 0.40768(19) 0.2065(2)
O2 O 0.6883(3) 0.2565(2) 0.3665(2)
H1 H 0.687(4) 0.337(2) 0.392(3)
H2 H 0.787(2) 0.257(3) 0.407(3)
O3 O 0.6644(4) 0.5002(3) 0.4075(2)
O4 O 0.6206(3) 1.03089(19) 0.1439(2)
O5 O 0.5641(3) 0.81990(19) 0.02604(19)
N1 N 0.3093(3) 0.0953(2) 0.1685(2)
N2 N -0.1541(4) -0.3587(3) 0.0179(3)
H4 H -0.256(2) -0.390(4) -0.040(3)
N3 N -0.2063(3) -0.6286(3) 0.1709(3)
C1 C 0.5725(4) 0.5050(3) 0.3050(3)
C2 C 0.5539(4) 0.6442(3) 0.3051(3)
C3 C 0.5638(4) 0.7026(3) 0.2133(3)
H5 H 0.5702 0.6515 0.1461
C4 C 0.5643(4) 0.8376(3) 0.2206(3)
C5 C 0.5490(5) 0.9103(3) 0.3191(3)
H6 H 0.5499 1.0003 0.3252
C6 C 0.5325(5) 0.8504(3) 0.4089(3)
H7 H 0.5171 0.8984 0.4728
C7 C 0.5390(4) 0.7187(3) 0.4030(3)
H8 H 0.5332 0.6804 0.4651
C8 C 0.5835(4) 0.9012(3) 0.1222(3)
C9 C 0.2139(4) -0.0324(3) 0.0895(3)
H9 H 0.2482 -0.0648 0.0304
C10 C 0.0667(4) -0.1199(3) 0.0901(3)
C11 C 0.0158(5) -0.0701(3) 0.1766(3)
H10 H -0.0821 -0.1254 0.1802
C12 C 0.1107(5) 0.0625(4) 0.2583(4)
H11 H 0.0765 0.0982 0.3163
C13 C 0.2573(4) 0.1414(3) 0.2524(3)
H12 H 0.3225 0.2298 0.3086
C14 C -0.0268(4) -0.2593(3) -0.0022(3)
H13 H -0.0819 -0.2468 -0.0812
H14 H 0.0559 -0.2996 -0.0073
C15 C -0.2343(4) -0.5479(3) 0.0984(3)
H15 H -0.3463 -0.5680 0.0443
C16 C -0.1065(4) -0.4353(3) 0.0984(3)
C17 C 0.0599(4) -0.4069(3) 0.1792(3)
H16 H 0.1499 -0.3338 0.1822
C18 C 0.0898(4) -0.4892(4) 0.2553(4)
H17 H 0.2004 -0.4707 0.3111
C19 C -0.0447(4) -0.5989(4) 0.2482(3)
H18 H -0.0222 -0.6542 0.2990
Mn1_2 Mn 0.55704(6) 1.21343(4) 0.16593(4)
Mn1A Mn 0.44296(6) 0.78657(4) -0.16593(4)
Mn1_3 Mn -0.44296(6) -0.78657(4) 0.16593(4)
O4_2 O 0.6206(3) 0.03089(19) 0.1439(2)
O5A O 0.4359(3) 0.18010(19) -0.02604(19)
N3_2 N 0.7937(3) 0.3714(3) 0.1709(3)
O6 O 0.0171(4) 0.2590(3) 0.4806(3)
H3 H 0.108(4) 0.332(4) 0.515(5)
C20 C 0.0046(7) 0.1864(6) 0.5647(5)
H19 H 0.0758 0.1325 0.5718
H20 H -0.1116 0.1252 0.5370
H21 H 0.0410 0.2517 0.6432
loop_
_geom_bond_atom_site_label_1
_geom_bond_atom_site_label_2
_geom_bond_site_symmetry_1
_geom_bond_site_symmetry_2
Mn1 O1 1_555 1_555
O1 C1 1_555 1_555
O2 Mn1 1_555 1_555
H1 O2 1_555 1_555
H2 O2 1_555 1_555
O3 C1 1_555 1_555
O4 C8 1_555 1_555
O5 C8 1_555 1_555
O6 H3 1_555 1_555
N1 Mn1 1_555 1_555
N2 H4 1_555 1_555
N3 C15 1_555 1_555
C1 C2 1_555 1_555
C2 C3 1_555 1_555
C3 H5 1_555 1_555
C4 C3 1_555 1_555
C5 C4 1_555 1_555
H6 C5 1_555 1_555
C6 C5 1_555 1_555
H7 C6 1_555 1_555
C7 C2 1_555 1_555
H8 C7 1_555 1_555
C8 C4 1_555 1_555
C9 N1 1_555 1_555
H9 C9 1_555 1_555
C10 C9 1_555 1_555
C11 C10 1_555 1_555
H10 C11 1_555 1_555
C12 C11 1_555 1_555
H11 C12 1_555 1_555
C13 N1 1_555 1_555
H12 C13 1_555 1_555
C14 N2 1_555 1_555
H13 C14 1_555 1_555
H14 C14 1_555 1_555
C15 H15 1_555 1_555
C16 N2 1_555 1_555
C17 C16 1_555 1_555
H16 C17 1_555 1_555
C18 C17 1_555 1_555
H17 C18 1_555 1_555
C19 N3 1_555 1_555
H18 C19 1_555 1_555
C20 O6 1_555 1_555
H19 C20 1_555 1_555
H20 C20 1_555 1_555
H21 C20 1_555 1_555
Mn1_2 O4 1_555 1_555
Mn1A O5 1_555 1_555
Mn1_3 N3 1_555 1_555
O4_2 Mn1 1_555 1_555
O5A Mn1 1_555 1_555
N3_2 Mn1 1_555 1_555
C6 C7 1_555 1_555
C10 C14 1_555 1_555
C12 C13 1_555 1_555
C15 C16 1_555 1_555
C18 C19 1_555 1_555

#END
