
#######################################################################
#
#                 Cambridge Crystallographic Data Centre
#                                CCDC 
#
#######################################################################
#
# If this CIF has been generated from an entry in the Cambridge 
# Structural Database, then it will include bibliographic, chemical, 
# crystal, experimental, refinement or atomic coordinate data resulting 
# from the CCDC's data processing and validation procedures.
#
#######################################################################

data_ZEDHUN
_symmetry_cell_setting           triclinic
_symmetry_space_group_name_H-M   'P -1'
_symmetry_Int_Tables_number      2
_space_group_name_Hall           '-P 1'
loop_
_symmetry_equiv_pos_site_id
_symmetry_equiv_pos_as_xyz
1 x,y,z
2 -x,-y,-z
_cell_length_a                   11.790(2)
_cell_length_b                   12.562(3)
_cell_length_c                   13.051(3)
_cell_angle_alpha                81.35(3)
_cell_angle_beta                 71.88(3)
_cell_angle_gamma                72.32(3)
_cell_volume                     1746.96
loop_
_atom_site_label
_atom_site_type_symbol
_atom_site_fract_x
_atom_site_fract_y
_atom_site_fract_z
Cu1 Cu -0.5000 0.0000 1.0000
N1 N -0.3560(11) 0.0480(10) 0.9379(9)
N2 N -0.1794(12) 0.0898(13) 0.9229(12)
N3 N -0.2082(12) 0.1084(11) 0.8250(10)
C1 C -0.131(3) 0.6127(15) 0.7345(18)
H1 H -0.0733 0.6299 0.6650
H2 H -0.2156 0.6591 0.7350
N4 N -0.0972(12) 0.6422(11) 0.8223(10)
N5 N -0.1192(13) 0.5901(11) 0.9190(11)
C2 C -0.0936(14) 0.6440(12) 0.9844(11)
H3 H -0.1011 0.6246 1.0590
N6 N -0.0558(13) 0.7294(12) 0.9282(12)
H4 H -0.0331 0.7785 0.9532
C3 C -0.0580(14) 0.7283(12) 0.8280(11)
H5 H -0.0354 0.7804 0.7701
C7 C -0.3102(13) 0.0799(12) 0.8343(11)
H11 H -0.3451 0.0818 0.7773
C8 C -0.2728(14) 0.0561(14) 0.9852(13)
H12 H -0.2820 0.0380 1.0601
C9 C -0.1234(16) 0.1499(15) 0.7287(13)
H13 H -0.1472 0.1450 0.6636
H14 H -0.0377 0.1015 0.7205
C10 C -0.1260(13) 0.2700(13) 0.7365(11)
C11 C -0.2379(15) 0.3522(15) 0.7599(13)
H15 H -0.3138 0.3333 0.7752
C12 C -0.2381(14) 0.4601(16) 0.7606(13)
H16 H -0.3147 0.5168 0.7737
C13 C -0.1274(19) 0.4904(13) 0.7425(17)
C14 C -0.0174(18) 0.4053(17) 0.7200(19)
H17 H 0.0592 0.4231 0.7048
C15 C -0.0167(16) 0.2968(14) 0.7191(15)
H18 H 0.0595 0.2396 0.7064
N1A N -0.6440(11) -0.0480(10) 1.0621(9)
N2A N -0.8206(12) -0.0898(13) 1.0771(12)
N3A N -0.7918(12) -0.1084(11) 1.1750(10)
C1A C -0.869(3) -0.6127(15) 1.2655(18)
H1A H -0.9267 -0.6299 1.3350
H2A H -0.7844 -0.6591 1.2650
N4A N -0.9028(12) -0.6422(11) 1.1777(10)
N5A N -0.8808(13) -0.5901(11) 1.0810(11)
C2A C -0.9064(14) -0.6440(12) 1.0156(11)
H3A H -0.8989 -0.6246 0.9410
N6A N -0.9442(13) -0.7294(12) 1.0718(12)
H4A H -0.9669 -0.7785 1.0468
C3A C -0.9420(14) -0.7283(12) 1.1720(11)
H5A H -0.9646 -0.7804 1.2299
C7A C -0.6898(13) -0.0799(12) 1.1657(11)
H11A H -0.6549 -0.0818 1.2227
C8A C -0.7272(14) -0.0561(14) 1.0148(13)
H12A H -0.7180 -0.0380 0.9399
C9A C -0.8766(16) -0.1499(15) 1.2713(13)
H13A H -0.8528 -0.1450 1.3364
H14A H -0.9623 -0.1015 1.2795
C10A C -0.8740(13) -0.2700(13) 1.2635(11)
C11A C -0.7621(15) -0.3522(15) 1.2401(13)
H15A H -0.6862 -0.3333 1.2248
C12A C -0.7619(14) -0.4601(16) 1.2394(13)
H16A H -0.6853 -0.5168 1.2263
C13A C -0.8726(19) -0.4904(13) 1.2575(17)
C14A C -0.9826(18) -0.4053(17) 1.2800(19)
H17A H -1.0592 -0.4231 1.2952
C15A C -0.9833(16) -0.2968(14) 1.2809(15)
H18A H -1.0595 -0.2396 1.2936
Cu2 Cu 0.5000 0.5000 0.5000
C16 C 0.2898(14) 0.6113(17) 0.9147(11)
H19 H 0.2142 0.5937 0.9642
H20 H 0.2763 0.6934 0.9100
C17 C 0.3994(12) 0.5538(13) 0.9581(11)
C18 C 0.4636(14) 0.6146(15) 0.9865(12)
H21 H 0.4386 0.6940 0.9782
C19 C 0.4342(16) 0.4393(17) 0.9723(13)
H22 H 0.3898 0.3964 0.9545
N10 N 0.3978(18) 0.5321(18) 0.6368(17)
C20 C 0.420(2) 0.559(2) 0.7251(18)
H23 H 0.4966 0.5672 0.7282
N11 N 0.313(2) 0.574(2) 0.8081(12)
N12 N 0.2239(16) 0.5551(19) 0.7711(14)
C21 C 0.2765(18) 0.5294(19) 0.6653(16)
H24 H 0.2361 0.5126 0.6196
Cu2_2 Cu 0.5000 0.5000 1.5000
C16A C 0.7102(14) 0.3887(17) 1.0853(11)
H19A H 0.7858 0.4063 1.0358
H20A H 0.7237 0.3066 1.0900
C17A C 0.6006(12) 0.4462(13) 1.0419(11)
C18A C 0.5364(14) 0.3854(15) 1.0135(12)
H21A H 0.5614 0.3060 1.0218
C19A C 0.5658(16) 0.5607(17) 1.0277(13)
H22A H 0.6102 0.6036 1.0455
N10A N 0.6022(18) 0.4679(18) 1.3632(17)
N10A_2 N 0.6022(18) 0.4679(18) 0.3632(17)
C20A C 0.580(2) 0.441(2) 1.2749(18)
H23A H 0.5034 0.4328 1.2718
N11A N 0.687(2) 0.426(2) 1.1919(12)
N12A N 0.7761(16) 0.4449(19) 1.2289(14)
C21A C 0.7235(18) 0.4706(19) 1.3347(16)
H24A H 0.7639 0.4874 1.3804
O42 O 0.0296(12) 0.1328(13) 0.9534(11)
Si1 Si 0.5000 0.0000 0.5000
Mo1 Mo 0.66817(12) -0.28228(10) 0.51838(12)
Mo2 Mo 0.64809(11) -0.14742(10) 0.26308(9)
Mo3 Mo 0.80408(12) -0.07106(13) 0.52750(12)
Mo4 Mo 0.44414(12) 0.12513(11) 0.25343(10)
Mo5 Mo 0.38446(13) -0.20724(11) 0.45012(11)
Mo6 Mo 0.73676(11) 0.08826(11) 0.29606(9)
O1 O 0.5407(15) -0.1149(13) 0.4409(13)
O2 O 0.6269(15) 0.0490(14) 0.4674(14)
O3 O 0.4018(16) 0.0962(14) 0.4378(14)
O4 O 0.4371(16) -0.0069(15) 0.6255(14)
O5 O 0.819(2) -0.2350(19) 0.5172(18)
O7 O 0.7102(19) 0.0715(15) 0.5809(16)
O9 O 0.729(2) -0.1219(19) 0.6975(18)
O11 O 0.806(2) -0.0315(19) 0.4006(17)
O13 O 0.518(3) -0.2775(19) 0.523(2)
O15 O 0.7011(18) -0.2278(17) 0.3748(16)
O17 O 0.6277(18) -0.2817(17) 0.6791(16)
O19 O 0.3291(19) -0.1765(16) 0.5962(16)
O21 O 0.4865(18) -0.1751(18) 0.3340(17)
O23 O 0.518(2) -0.014(2) 0.2360(19)
O25 O 0.743(4) -0.056(4) 0.264(2)
O27 O 0.707(5) -0.231(3) 0.164(3)
O29 O 0.597(2) 0.152(2) 0.2604(19)
O31 O 0.741(2) -0.422(2) 0.514(2)
O33 O 0.865(3) 0.115(3) 0.216(3)
O35 O 0.406(3) 0.192(3) 0.151(2)
O37 O 0.312(3) -0.294(2) 0.439(3)
O39 O 0.935(4) -0.118(3) 0.558(4)
Mo1A Mo 0.33183(12) 0.28228(10) 0.48162(12)
Mo2A Mo 0.35191(11) 0.14742(10) 0.73692(9)
Mo3A Mo 0.19592(12) 0.07106(13) 0.47250(12)
Mo4A Mo 0.55586(12) -0.12513(11) 0.74657(10)
Mo5A Mo 0.61554(13) 0.20724(11) 0.54988(11)
Mo6A Mo 0.26324(11) -0.08826(11) 0.70394(9)
O1A O 0.4593(15) 0.1149(13) 0.5591(13)
O2A O 0.3731(15) -0.0490(14) 0.5326(14)
O3A O 0.5982(16) -0.0962(14) 0.5622(14)
O4A O 0.5629(16) 0.0069(15) 0.3745(14)
O5A O 0.181(2) 0.2350(19) 0.4828(18)
O7A O 0.2898(19) -0.0715(15) 0.4191(16)
O9A O 0.271(2) 0.1219(19) 0.3025(18)
O11A O 0.194(2) 0.0315(19) 0.5994(17)
O13A O 0.482(3) 0.2775(19) 0.477(2)
O15A O 0.2989(18) 0.2278(17) 0.6252(16)
O17A O 0.3723(18) 0.2817(17) 0.3209(16)
O19A O 0.6709(19) 0.1765(16) 0.4038(16)
O21A O 0.5135(18) 0.1751(18) 0.6660(17)
O23A O 0.482(2) 0.014(2) 0.7640(19)
O25A O 0.257(4) 0.056(4) 0.736(2)
O27A O 0.293(5) 0.231(3) 0.836(3)
O29A O 0.403(2) -0.152(2) 0.7396(19)
O31A O 0.259(2) 0.422(2) 0.486(2)
O33A O 0.135(3) -0.115(3) 0.784(3)
O35A O 0.594(3) -0.192(3) 0.849(2)
O37A O 0.688(3) 0.294(2) 0.561(3)
O39A O 0.065(4) 0.118(3) 0.442(4)
O6? O 0.774(2) -0.1839(19) 0.4855(18)
O8? O 0.768(2) 0.0932(18) 0.5644(17)
O10? O 0.6819(19) -0.0760(18) 0.6642(17)
O12? O 0.861(2) -0.0067(18) 0.3761(18)
O14? O 0.530(2) -0.319(2) 0.4913(19)
O16? O 0.2746(19) 0.2686(17) 0.6612(18)
O18? O 0.590(2) -0.2356(18) 0.6430(17)
O20? O 0.7245(18) 0.2087(17) 0.3805(16)
O22? O 0.499(2) 0.216(2) 0.701(2)
O24? O 0.461(2) 0.0172(19) 0.8102(18)
O26? O 0.239(4) 0.059(4) 0.779(2)
O28? O 0.288(5) 0.194(3) 0.868(3)
O30? O 0.619(2) 0.152(2) 0.216(2)
O32? O 0.767(2) -0.406(2) 0.521(2)
O34? O 0.849(3) 0.123(3) 0.189(3)
O36? O 0.561(3) -0.188(3) 0.877(2)
O38? O 0.654(3) 0.321(2) 0.568(2)
O40? O 0.944(3) -0.096(2) 0.547(2)
C4? C -0.149(9) 0.596(5) 0.796(6)
H6? H -0.2344 0.6468 0.8059
H7? H -0.1252 0.5834 0.8638
N7? N -0.058(5) 0.629(5) 0.703(4)
N8? N 0.008(5) 0.688(5) 0.725(4)
C5? C 0.098(4) 0.700(4) 0.634(4)
H8? H 0.1587 0.7382 0.6267
N9? N 0.087(3) 0.648(2) 0.556(2)
H9? H 0.1353 0.6432 0.4893
C6? C -0.009(4) 0.604(4) 0.599(4)
H10? H -0.0378 0.5623 0.5615
O41? O 0.087(3) 0.648(2) 0.556(2)
N13? N 0.384(3) 0.519(2) 0.652(2)
C22? C 0.388(3) 0.586(3) 0.716(2)
H25? H 0.4414 0.6338 0.6991
N14? N 0.307(3) 0.577(3) 0.8083(14)
N15? N 0.253(2) 0.504(2) 0.8010(16)
C23? C 0.300(3) 0.468(2) 0.704(2)
H26? H 0.2777 0.4141 0.6769
loop_
_geom_bond_atom_site_label_1
_geom_bond_atom_site_label_2
_geom_bond_site_symmetry_1
_geom_bond_site_symmetry_2
Si1 O1 1_555 1_555
Mo1 O1 1_555 1_555
Mo2 O1 1_555 1_555
Mo3 O2 1_555 1_555
Mo4 O3 1_555 1_555
Mo5 O1 1_555 1_555
Mo6 O2 1_555 1_555
O2 Si1 1_555 1_555
O3 Si1 1_555 1_555
O4 Si1 1_555 1_555
O5 Mo1 1_555 1_555
O7 Mo3 1_555 1_555
O9 Mo3 1_555 1_555
O11 Mo3 1_555 1_555
O13 Mo1 1_555 1_555
O15 Mo1 1_555 1_555
O17 Mo1 1_555 1_555
O19 Mo5 1_555 1_555
O21 Mo2 1_555 1_555
O23 Mo2 1_555 1_555
O25 Mo2 1_555 1_555
O27 Mo2 1_555 1_555
O29 Mo4 1_555 1_555
O31 Mo1 1_555 1_555
O33 Mo6 1_555 1_555
O35 Mo4 1_555 1_555
O37 Mo5 1_555 1_555
O39 Mo3 1_555 1_555
Cu1 N1 1_555 1_555
Cu2 N10 1_555 1_555
N1 C7 1_555 1_555
N2 N3 1_555 1_555
N3 C7 1_555 1_555
C1 H1 1_555 1_555
H2 C1 1_555 1_555
N4 C1 1_555 1_555
N5 N4 1_555 1_555
C2 N5 1_555 1_555
H3 C2 1_555 1_555
N6 C2 1_555 1_555
H4 N6 1_555 1_555
C3 N4 1_555 1_555
H5 C3 1_555 1_555
C7 H11 1_555 1_555
C8 N1 1_555 1_555
H12 C8 1_555 1_555
C9 N3 1_555 1_555
H13 C9 1_555 1_555
H14 C9 1_555 1_555
C10 C9 1_555 1_555
C11 C10 1_555 1_555
H15 C11 1_555 1_555
C12 C11 1_555 1_555
H16 C12 1_555 1_555
C13 C1 1_555 1_555
C14 C13 1_555 1_555
H17 C14 1_555 1_555
C15 C10 1_555 1_555
H18 C15 1_555 1_555
C16 H19 1_555 1_555
H20 C16 1_555 1_555
C17 C16 1_555 1_555
C18 C17 1_555 1_555
H21 C18 1_555 1_555
C19 C17 1_555 1_555
H22 C19 1_555 1_555
N10 C20 1_555 1_555
C20 H23 1_555 1_555
N11 C16 1_555 1_555
N12 N11 1_555 1_555
C21 N10 1_555 1_555
H24 C21 1_555 1_555
Mo1A O3 1_555 1_555
Mo2A O4 1_555 1_555
Mo3A O3 1_555 1_555
Mo4A O4 1_555 1_555
Mo5A O2 1_555 1_555
Mo6A O4 1_555 1_555
O1A Si1 1_555 1_555
O2A Si1 1_555 1_555
O3A Si1 1_555 1_555
O4A Si1 1_555 1_555
O5A Mo1A 1_555 1_555
O7A Mo5 1_555 1_555
O9A Mo4 1_555 1_555
O11A Mo3A 1_555 1_555
O13A Mo1A 1_555 1_555
O15A Mo1A 1_555 1_555
O17A Mo4 1_555 1_555
O19A Mo6 1_555 1_555
O21A Mo2A 1_555 1_555
O23A Mo2A 1_555 1_555
O25A Mo2A 1_555 1_555
O27A Mo2A 1_555 1_555
O29A Mo4A 1_555 1_555
O31A Mo1A 1_555 1_555
O33A Mo6A 1_555 1_555
O35A Mo4A 1_555 1_555
O37A Mo5A 1_555 1_555
O39A Mo3A 1_555 1_555
Cu2_2 N10A 1_555 1_555
N1A Cu1 1_555 1_555
N2A N3A 1_555 1_555
N3A C7A 1_555 1_555
C1A H1A 1_555 1_555
H2A C1A 1_555 1_555
N4A C1A 1_555 1_555
N5A N4A 1_555 1_555
C2A N5A 1_555 1_555
H3A C2A 1_555 1_555
N6A C2A 1_555 1_555
H4A N6A 1_555 1_555
C3A N4A 1_555 1_555
H5A C3A 1_555 1_555
C7A N1A 1_555 1_555
H11A C7A 1_555 1_555
C8A N1A 1_555 1_555
H12A C8A 1_555 1_555
C9A N3A 1_555 1_555
H13A C9A 1_555 1_555
H14A C9A 1_555 1_555
C10A C9A 1_555 1_555
C11A C10A 1_555 1_555
H15A C11A 1_555 1_555
C12A C11A 1_555 1_555
H16A C12A 1_555 1_555
C13A C1A 1_555 1_555
C14A C13A 1_555 1_555
H17A C14A 1_555 1_555
C15A C10A 1_555 1_555
H18A C15A 1_555 1_555
C16A H19A 1_555 1_555
H20A C16A 1_555 1_555
C17A C16A 1_555 1_555
C18A C19 1_555 1_555
H21A C18A 1_555 1_555
C19A C18 1_555 1_555
H22A C19A 1_555 1_555
N10A C20A 1_555 1_555
N10A_2 Cu2 1_555 1_555
C20A H23A 1_555 1_555
N11A C16A 1_555 1_555
N12A N11A 1_555 1_555
C21A N10A 1_555 1_555
H24A C21A 1_555 1_555
Mo1 O3A 1_555 1_555
Mo2 O15 1_555 1_555
Mo2 O4A 1_555 1_555
Mo3 O5 1_555 1_555
Mo3 O3A 1_555 1_555
Mo4 O23 1_555 1_555
Mo4 O4A 1_555 1_555
Mo5 O13 1_555 1_555
Mo5 O21 1_555 1_555
Mo5 O2A 1_555 1_555
Mo6 O11 1_555 1_555
Mo6 O25 1_555 1_555
Mo6 O29 1_555 1_555
Mo6 O4A 1_555 1_555
O7 Mo5A 1_555 1_555
O9 Mo4A 1_555 1_555
O17 Mo4A 1_555 1_555
O19 Mo6A 1_555 1_555
N2 C8 1_555 1_555
N6 C3 1_555 1_555
C12 C13 1_555 1_555
C14 C15 1_555 1_555
C20 N11 1_555 1_555
N12 C21 1_555 1_555
Mo1A O1A 1_555 1_555
Mo1A O17A 1_555 1_555
Mo2A O1A 1_555 1_555
Mo2A O15A 1_555 1_555
Mo3A O2A 1_555 1_555
Mo3A O5A 1_555 1_555
Mo3A O7A 1_555 1_555
Mo3A O9A 1_555 1_555
Mo4A O3A 1_555 1_555
Mo4A O23A 1_555 1_555
Mo5A O1A 1_555 1_555
Mo5A O13A 1_555 1_555
Mo5A O19A 1_555 1_555
Mo5A O21A 1_555 1_555
Mo6A O2A 1_555 1_555
Mo6A O11A 1_555 1_555
Mo6A O25A 1_555 1_555
Mo6A O29A 1_555 1_555
N2A C8A 1_555 1_555
N6A C3A 1_555 1_555
C12A C13A 1_555 1_555
C14A C15A 1_555 1_555
C17A C18A 1_555 1_555
C17A C19A 1_555 1_555
C20A N11A 1_555 1_555
N12A C21A 1_555 1_555

#END
