
#######################################################################
#
#                 Cambridge Crystallographic Data Centre
#                                CCDC 
#
#######################################################################
#
# If this CIF has been generated from an entry in the Cambridge 
# Structural Database, then it will include bibliographic, chemical, 
# crystal, experimental, refinement or atomic coordinate data resulting 
# from the CCDC's data processing and validation procedures.
#
#######################################################################

data_ZEDHEX
_symmetry_cell_setting           orthorhombic
_symmetry_space_group_name_H-M   'P n c 2'
_symmetry_Int_Tables_number      30
_space_group_name_Hall           'P 2 -2bc'
loop_
_symmetry_equiv_pos_site_id
_symmetry_equiv_pos_as_xyz
1 x,y,z
2 -x,-y,z
3 x,1/2-y,1/2+z
4 -x,1/2+y,1/2+z
_cell_length_a                   9.4225(18)
_cell_length_b                   17.784(4)
_cell_length_c                   11.416(3)
_cell_angle_alpha                90
_cell_angle_beta                 90
_cell_angle_gamma                90
_cell_volume                     1912.98
loop_
_atom_site_label
_atom_site_type_symbol
_atom_site_fract_x
_atom_site_fract_y
_atom_site_fract_z
Ni1 Ni 0.25684(4) 0.77883(2) 0.49995(10)
O1 O 0.3126(3) 0.82534(15) 0.3279(3)
O2 O 0.3539(3) 0.88785(13) 0.4871(2)
O3 O 0.1736(3) 0.67625(14) 0.4929(4)
O4 O 0.1397(6) 0.6190(2) 0.3223(3)
O5 O 0.2521(3) 0.78220(16) 0.6767(3)
H1 H 0.2738 0.7455 0.7209
H2 H 0.2148 0.8163 0.7188
N1 N 0.4617(3) 0.72622(16) 0.5012(4)
N2 N 0.7525(5) 0.6726(6) 0.7836(7)
H5 H 0.6709 0.6510 0.7817
N3 N 1.0546(3) 0.67149(17) 0.9809(3)
C1 C 0.3618(4) 0.88264(19) 0.3785(3)
C2 C 0.5000 1.0000 0.3694(4)
H6 H 0.5000 1.0000 0.4509
C3 C 0.4327(4) 0.94274(19) 0.3098(3)
C4 C 0.4323(4) 0.9433(2) 0.1882(3)
H7 H 0.3862 0.9052 0.1472
C5 C 0.5000 1.0000 0.1285(5)
H8 H 0.5000 1.0000 0.0470
C6 C 0.1299(5) 0.6227(2) 0.4279(4)
C7 C 0.0000 0.5000 0.4330(5)
H9 H 0.0000 0.5000 0.3515
C8 C 0.0636(3) 0.55866(16) 0.4947(4)
C9 C 0.0645(5) 0.5581(2) 0.6151(4)
H10 H 0.1085 0.5968 0.6560
C10 C 0.0000 0.5000 0.6759(6)
H11 H 0.0000 0.5000 0.7573
C11 C 0.5604(5) 0.7392(3) 0.5840(5)
H12 H 0.5402 0.7743 0.6421
C12 C 0.6882(5) 0.7037(4) 0.5873(5)
C13 C 0.7158(6) 0.6515(4) 0.5027(9)
H13 H 0.8003 0.6246 0.5043
C14 C 0.6185(7) 0.6388(4) 0.4153(6)
H14 H 0.6384 0.6050 0.3552
C15 C 0.4942(5) 0.6758(3) 0.4178(4)
H15 H 0.4279 0.6661 0.3593
C16 C 0.7876(8) 0.7173(6) 0.6906(8)
H16 H 0.8845 0.7068 0.6670
H17 H 0.7823 0.7696 0.7139
C17 C 0.9703(5) 0.6917(3) 0.8933(4)
H18 H 1.0013 0.7280 0.8405
C18 C 0.8353(6) 0.6596(4) 0.8785(5)
C19 C 0.7934(8) 0.6087(5) 0.9599(6)
H19 H 0.7025 0.5885 0.9552
C20 C 0.8801(7) 0.5867(4) 1.0476(7)
H20 H 0.8526 0.5502 1.1014
C21 C 1.0087(6) 0.6201(3) 1.0534(5)
H21 H 1.0692 0.6053 1.1135
Ni1A Ni 0.74316(4) 1.22117(2) 0.49995(10)
Ni1B Ni 1.25684(4) 0.72117(2) 0.99995(10)
Ni1A_2 Ni -0.25684(4) 0.22117(2) 0.49995(10)
Ni1B_2 Ni -0.74316(4) 0.72117(2) -0.00005(10)
O1A O 0.6874(3) 1.17466(15) 0.3279(3)
O2A O 0.6461(3) 1.11215(13) 0.4871(2)
O3A O -0.1736(3) 0.32375(14) 0.4929(4)
O3A_2 O 0.8264(3) 1.32375(14) 0.4929(4)
O4A O -0.1397(6) 0.3810(2) 0.3223(3)
O5A O 0.7479(3) 1.21780(16) 0.6767(3)
H1A H 0.7262 1.2545 0.7209
H2A H 0.7852 1.1837 0.7188
N1B N -0.5383(3) 0.77378(16) 0.0012(4)
N1A N 0.5383(3) 1.27378(16) 0.5012(4)
N2B N -0.2475(5) 0.8274(6) 0.2836(7)
H5B H -0.3291 0.8490 0.2817
N3B N 0.0546(3) 0.82851(17) 0.4809(3)
N3C N 0.9454(3) 1.17149(17) 0.4809(3)
C1A C 0.6382(4) 1.11736(19) 0.3785(3)
C3A C 0.5673(4) 1.05726(19) 0.3098(3)
C4A C 0.5677(4) 1.0567(2) 0.1882(3)
H7A H 0.6138 1.0948 0.1472
C6A C -0.1299(5) 0.3773(2) 0.4279(4)
C8A C -0.0636(3) 0.44134(16) 0.4947(4)
C9A C -0.0645(5) 0.4419(2) 0.6151(4)
H10A H -0.1085 0.4032 0.6560
C11B C -0.4396(5) 0.7608(3) 0.0840(5)
H12B H -0.4598 0.7257 0.1421
C12B C -0.3118(5) 0.7963(4) 0.0873(5)
C13B C -0.2842(6) 0.8485(4) 0.0027(9)
H13B H -0.1997 0.8754 0.0043
C14B C -0.3815(7) 0.8612(4) -0.0847(6)
H14B H -0.3616 0.8950 -0.1448
C15B C -0.5058(5) 0.8242(3) -0.0822(4)
H15B H -0.5721 0.8339 -0.1407
C16B C -0.2124(8) 0.7827(6) 0.1906(8)
H16B H -0.1155 0.7932 0.1670
H17B H -0.2177 0.7304 0.2139
C17B C -0.0297(5) 0.8083(3) 0.3933(4)
H18B H 0.0013 0.7720 0.3405
C18B C -0.1647(6) 0.8404(4) 0.3785(5)
C19B C -0.2066(8) 0.8913(5) 0.4599(6)
H19B H -0.2975 0.9115 0.4552
C20B C -0.1199(7) 0.9133(4) 0.5476(7)
H20B H -0.1474 0.9498 0.6014
C21B C 0.0087(6) 0.8799(3) 0.5534(5)
H21B H 0.0692 0.8947 0.6135
O6 O 0.3565(10) 0.9796(4) 0.7052(8)
H3 H 0.3640 0.9575 0.6394
H4 H 0.2963 0.9556 0.7462
loop_
_geom_bond_atom_site_label_1
_geom_bond_atom_site_label_2
_geom_bond_site_symmetry_1
_geom_bond_site_symmetry_2
Ni1 O1 1_555 1_555
O1 C1 1_555 1_555
O2 Ni1 1_555 1_555
O3 Ni1 1_555 1_555
O4 C6 1_555 1_555
O5 Ni1 1_555 1_555
H1 O5 1_555 1_555
H2 O5 1_555 1_555
O6 H3 1_555 1_555
H4 O6 1_555 1_555
N1 Ni1 1_555 1_555
N2 H5 1_555 1_555
N3 C17 1_555 1_555
C1 O2 1_555 1_555
C2 H6 1_555 1_555
C3 C1 1_555 1_555
C4 C3 1_555 1_555
H7 C4 1_555 1_555
C5 C4 1_555 1_555
H8 C5 1_555 1_555
C6 O3 1_555 1_555
C7 H9 1_555 1_555
C8 C6 1_555 1_555
C9 C8 1_555 1_555
H10 C9 1_555 1_555
C10 C9 1_555 1_555
H11 C10 1_555 1_555
C11 N1 1_555 1_555
H12 C11 1_555 1_555
C12 C11 1_555 1_555
C13 C12 1_555 1_555
H13 C13 1_555 1_555
C14 C13 1_555 1_555
H14 C14 1_555 1_555
C15 N1 1_555 1_555
H15 C15 1_555 1_555
C16 N2 1_555 1_555
H16 C16 1_555 1_555
H17 C16 1_555 1_555
C17 H18 1_555 1_555
C18 N2 1_555 1_555
C19 C18 1_555 1_555
H19 C19 1_555 1_555
C20 C19 1_555 1_555
H20 C20 1_555 1_555
C21 N3 1_555 1_555
H21 C21 1_555 1_555
Ni1A O1A 1_555 1_555
Ni1B N3 1_555 1_555
Ni1A_2 O3A 1_555 1_555
Ni1B_2 N1B 1_555 1_555
O1A C1A 1_555 1_555
O2A Ni1A 1_555 1_555
O3A C6A 1_555 1_555
O3A_2 Ni1A 1_555 1_555
O4A C6A 1_555 1_555
O5A Ni1A 1_555 1_555
H1A O5A 1_555 1_555
H2A O5A 1_555 1_555
N1B C11B 1_555 1_555
N1A Ni1A 1_555 1_555
N2B H5B 1_555 1_555
N3B Ni1 1_555 1_555
N3C Ni1A 1_555 1_555
C1A O2A 1_555 1_555
C3A C2 1_555 1_555
C4A C5 1_555 1_555
H7A C4A 1_555 1_555
C6A C8A 1_555 1_555
C8A C7 1_555 1_555
C9A C10 1_555 1_555
H10A C9A 1_555 1_555
C11B H12B 1_555 1_555
C12B C11B 1_555 1_555
C13B C12B 1_555 1_555
H13B C13B 1_555 1_555
C14B C13B 1_555 1_555
H14B C14B 1_555 1_555
C15B N1B 1_555 1_555
H15B C15B 1_555 1_555
C16B N2B 1_555 1_555
H16B C16B 1_555 1_555
H17B C16B 1_555 1_555
C17B N3B 1_555 1_555
H18B C17B 1_555 1_555
C18B N2B 1_555 1_555
C19B C18B 1_555 1_555
H19B C19B 1_555 1_555
C20B C19B 1_555 1_555
H20B C20B 1_555 1_555
C21B N3B 1_555 1_555
H21B C21B 1_555 1_555
C2 C3 1_555 1_555
C7 C8 1_555 1_555
C12 C16 1_555 1_555
C14 C15 1_555 1_555
C17 C18 1_555 1_555
C20 C21 1_555 1_555
C1A C3A 1_555 1_555
C3A C4A 1_555 1_555
C8A C9A 1_555 1_555
C12B C16B 1_555 1_555
C14B C15B 1_555 1_555
C17B C18B 1_555 1_555
C20B C21B 1_555 1_555

#END
