
#######################################################################
#
#                 Cambridge Crystallographic Data Centre
#                                CCDC 
#
#######################################################################
#
# If this CIF has been generated from an entry in the Cambridge 
# Structural Database, then it will include bibliographic, chemical, 
# crystal, experimental, refinement or atomic coordinate data resulting 
# from the CCDC's data processing and validation procedures.
#
#######################################################################

data_ZEDHAT
_symmetry_cell_setting           orthorhombic
_symmetry_space_group_name_H-M   'P n c 2'
_symmetry_Int_Tables_number      30
_space_group_name_Hall           'P 2 -2bc'
loop_
_symmetry_equiv_pos_site_id
_symmetry_equiv_pos_as_xyz
1 x,y,z
2 -x,-y,z
3 x,1/2-y,1/2+z
4 -x,1/2+y,1/2+z
_cell_length_a                   9.5360(12)
_cell_length_b                   17.804(2)
_cell_length_c                   11.4530(16)
_cell_angle_alpha                90
_cell_angle_beta                 90
_cell_angle_gamma                90
_cell_volume                     1944.48
loop_
_atom_site_label
_atom_site_type_symbol
_atom_site_fract_x
_atom_site_fract_y
_atom_site_fract_z
Co1 Co 0.25691(4) 0.77883(2) 0.49994(9)
O1 O 0.3129(3) 0.82524(14) 0.3280(2)
O2 O 0.3539(3) 0.88785(12) 0.4870(2)
O3 O 0.1739(3) 0.67609(13) 0.4924(4)
O4 O 0.1396(5) 0.6190(2) 0.3221(3)
O5 O 0.2530(3) 0.78217(15) 0.6767(3)
H1 H 0.202(5) 0.807(2) 0.723(4)
H2 H 0.237(5) 0.7356(8) 0.688(6)
N1 N -0.5382(3) 0.77378(15) 0.0010(3)
N2 N -0.2478(5) 0.8260(5) 0.2838(6)
H5 H -0.3297 0.8461 0.2830
N3 N 0.0545(3) 0.82847(16) 0.4808(3)
C1 C 0.3618(4) 0.88253(18) 0.3784(3)
C2 C 0.5000 1.0000 0.3693(4)
H6 H 0.5000 1.0000 0.4505
C3 C 0.4327(4) 0.94269(18) 0.3097(3)
C4 C 0.4327(4) 0.9432(2) 0.1882(3)
H7 H 0.3872 0.9053 0.1472
C5 C 0.5000 1.0000 0.1286(5)
H8 H 0.5000 1.0000 0.0474
C6 C 0.1303(4) 0.6226(2) 0.4281(4)
C7 C 0.0000 0.5000 0.4330(5)
H9 H 0.0000 0.5000 0.3518
C8 C 0.0636(3) 0.55864(15) 0.4946(4)
C9 C 0.0643(4) 0.5580(2) 0.6154(4)
H10 H 0.1081 0.5966 0.6562
C10 C 0.0000 0.5000 0.6757(5)
H11 H 0.0000 0.5000 0.7569
C11 C -0.4398(4) 0.7610(3) 0.0842(4)
H12 H -0.4605 0.7263 0.1424
C12 C -0.3118(5) 0.7958(4) 0.0877(5)
C13 C -0.2839(5) 0.8481(4) 0.0026(9)
H13 H -0.1998 0.8745 0.0036
C14 C -0.3811(6) 0.8614(3) -0.0845(6)
H14 H -0.3616 0.8954 -0.1440
C15 C -0.5060(5) 0.8241(3) -0.0822(4)
H15 H -0.5714 0.8339 -0.1405
C16 C -0.2118(7) 0.7822(5) 0.1907(8)
H16 H -0.1165 0.7936 0.1670
H17 H -0.2155 0.7297 0.2132
C17 C -0.0296(4) 0.8081(3) 0.3930(4)
H18 H 0.0008 0.7719 0.3403
C18 C -0.1641(5) 0.8405(4) 0.3784(5)
C19 C -0.2062(7) 0.8918(5) 0.4601(6)
H19 H -0.2956 0.9124 0.4553
C20 C -0.1203(6) 0.9129(4) 0.5472(7)
H20 H -0.1480 0.9488 0.6015
C21 C 0.0089(6) 0.8799(3) 0.5537(5)
H21 H 0.0684 0.8948 0.6136
Co1A Co 0.74309(4) 1.22117(2) 0.49994(9)
Co1B Co -0.74309(4) 0.72117(2) -0.00006(9)
Co1A_2 Co -0.25691(4) 0.22117(2) 0.49994(9)
Co1B_2 Co 1.25691(4) 0.72117(2) 0.99994(9)
O1A O 0.6871(3) 1.17476(14) 0.3280(2)
O2A O 0.6461(3) 1.11215(12) 0.4870(2)
O3A O -0.1739(3) 0.32391(13) 0.4924(4)
O3A_2 O 0.8261(3) 1.32391(13) 0.4924(4)
O4A O -0.1396(5) 0.3810(2) 0.3221(3)
O5A O 0.7470(3) 1.21783(15) 0.6767(3)
H1A H 0.798(5) 1.193(2) 0.723(4)
H2A H 0.763(5) 1.2644(8) 0.688(6)
N1B N 0.4618(3) 0.72622(15) 0.5010(3)
N1C N 0.5382(3) 1.27378(15) 0.5010(3)
N2B N 0.7522(5) 0.6740(5) 0.7838(6)
H5B H 0.6703 0.6539 0.7830
N3B N 1.0545(3) 0.67153(16) 0.9808(3)
N3A N 0.9455(3) 1.17153(16) 0.4808(3)
C1A C 0.6382(4) 1.11747(18) 0.3784(3)
C3A C 0.5673(4) 1.05731(18) 0.3097(3)
C4A C 0.5673(4) 1.0568(2) 0.1882(3)
H7A H 0.6128 1.0947 0.1472
C6A C -0.1303(4) 0.3774(2) 0.4281(4)
C8A C -0.0636(3) 0.44136(15) 0.4946(4)
C9A C -0.0643(4) 0.4420(2) 0.6154(4)
H10A H -0.1081 0.4034 0.6562
C11B C 0.5602(4) 0.7390(3) 0.5842(4)
H12B H 0.5395 0.7737 0.6424
C12B C 0.6882(5) 0.7042(4) 0.5877(5)
C13B C 0.7161(5) 0.6519(4) 0.5026(9)
H13B H 0.8002 0.6255 0.5036
C14B C 0.6189(6) 0.6386(3) 0.4155(6)
H14B H 0.6384 0.6046 0.3560
C15B C 0.4940(5) 0.6759(3) 0.4178(4)
H15B H 0.4286 0.6661 0.3595
C16B C 0.7882(7) 0.7178(5) 0.6907(8)
H16B H 0.8835 0.7064 0.6670
H17B H 0.7845 0.7703 0.7132
C17B C 0.9704(4) 0.6919(3) 0.8930(4)
H18B H 1.0008 0.7281 0.8403
C18B C 0.8359(5) 0.6595(4) 0.8784(5)
C19B C 0.7938(7) 0.6082(5) 0.9601(6)
H19B H 0.7044 0.5876 0.9553
C20B C 0.8797(6) 0.5871(4) 1.0472(7)
H20B H 0.8520 0.5512 1.1015
C21B C 1.0089(6) 0.6201(3) 1.0537(5)
H21B H 1.0684 0.6052 1.1136
O6 O 0.3574(9) 0.9799(4) 0.7058(8)
H3 H 0.2974 0.9561 0.7464
H4 H 0.3648 0.9579 0.6402
loop_
_geom_bond_atom_site_label_1
_geom_bond_atom_site_label_2
_geom_bond_site_symmetry_1
_geom_bond_site_symmetry_2
Co1 O1 1_555 1_555
O1 C1 1_555 1_555
O2 Co1 1_555 1_555
O3 Co1 1_555 1_555
O4 C6 1_555 1_555
O5 Co1 1_555 1_555
H1 O5 1_555 1_555
H2 O5 1_555 1_555
O6 H3 1_555 1_555
H4 O6 1_555 1_555
N1 C11 1_555 1_555
N2 H5 1_555 1_555
N3 Co1 1_555 1_555
C1 O2 1_555 1_555
C2 H6 1_555 1_555
C3 C1 1_555 1_555
C4 C3 1_555 1_555
H7 C4 1_555 1_555
C5 C4 1_555 1_555
H8 C5 1_555 1_555
C6 O3 1_555 1_555
C7 H9 1_555 1_555
C8 C6 1_555 1_555
C9 C8 1_555 1_555
H10 C9 1_555 1_555
C10 C9 1_555 1_555
H11 C10 1_555 1_555
C11 H12 1_555 1_555
C12 C11 1_555 1_555
C13 C12 1_555 1_555
H13 C13 1_555 1_555
C14 C13 1_555 1_555
H14 C14 1_555 1_555
C15 N1 1_555 1_555
H15 C15 1_555 1_555
C16 N2 1_555 1_555
H16 C16 1_555 1_555
H17 C16 1_555 1_555
C17 N3 1_555 1_555
H18 C17 1_555 1_555
C18 N2 1_555 1_555
C19 C18 1_555 1_555
H19 C19 1_555 1_555
C20 C19 1_555 1_555
H20 C20 1_555 1_555
C21 N3 1_555 1_555
H21 C21 1_555 1_555
Co1A O1A 1_555 1_555
Co1B N1 1_555 1_555
Co1A_2 O3A 1_555 1_555
Co1B_2 N3B 1_555 1_555
O1A C1A 1_555 1_555
O2A Co1A 1_555 1_555
O3A C6A 1_555 1_555
O3A_2 Co1A 1_555 1_555
O4A C6A 1_555 1_555
O5A Co1A 1_555 1_555
H1A O5A 1_555 1_555
H2A O5A 1_555 1_555
N1B Co1 1_555 1_555
N1C Co1A 1_555 1_555
N2B H5B 1_555 1_555
N3B C17B 1_555 1_555
N3A Co1A 1_555 1_555
C1A O2A 1_555 1_555
C3A C2 1_555 1_555
C4A C5 1_555 1_555
H7A C4A 1_555 1_555
C6A C8A 1_555 1_555
C8A C7 1_555 1_555
C9A C10 1_555 1_555
H10A C9A 1_555 1_555
C11B N1B 1_555 1_555
H12B C11B 1_555 1_555
C12B C11B 1_555 1_555
C13B C12B 1_555 1_555
H13B C13B 1_555 1_555
C14B C13B 1_555 1_555
H14B C14B 1_555 1_555
C15B N1B 1_555 1_555
H15B C15B 1_555 1_555
C16B N2B 1_555 1_555
H16B C16B 1_555 1_555
H17B C16B 1_555 1_555
C17B H18B 1_555 1_555
C18B N2B 1_555 1_555
C19B C18B 1_555 1_555
H19B C19B 1_555 1_555
C20B C19B 1_555 1_555
H20B C20B 1_555 1_555
C21B N3B 1_555 1_555
H21B C21B 1_555 1_555
C2 C3 1_555 1_555
C7 C8 1_555 1_555
C12 C16 1_555 1_555
C14 C15 1_555 1_555
C17 C18 1_555 1_555
C20 C21 1_555 1_555
C1A C3A 1_555 1_555
C3A C4A 1_555 1_555
C8A C9A 1_555 1_555
C12B C16B 1_555 1_555
C14B C15B 1_555 1_555
C17B C18B 1_555 1_555
C20B C21B 1_555 1_555

#END
