
#######################################################################
#
#                 Cambridge Crystallographic Data Centre
#                                CCDC 
#
#######################################################################
#
# If this CIF has been generated from an entry in the Cambridge 
# Structural Database, then it will include bibliographic, chemical, 
# crystal, experimental, refinement or atomic coordinate data resulting 
# from the CCDC's data processing and validation procedures.
#
#######################################################################

data_ZEDHOH
_symmetry_cell_setting           triclinic
_symmetry_space_group_name_H-M   'P -1'
_symmetry_Int_Tables_number      2
_space_group_name_Hall           '-P 1'
loop_
_symmetry_equiv_pos_site_id
_symmetry_equiv_pos_as_xyz
1 x,y,z
2 -x,-y,-z
_cell_length_a                   11.1768(5)
_cell_length_b                   12.2798(7)
_cell_length_c                   13.8457(5)
_cell_angle_alpha                92.345(4)
_cell_angle_beta                 101.299(4)
_cell_angle_gamma                110.315(5)
_cell_volume                     1735.26
loop_
_atom_site_label
_atom_site_type_symbol
_atom_site_fract_x
_atom_site_fract_y
_atom_site_fract_z
Cu2 Cu 0.33412(9) 0.66723(9) -0.11142(7)
C7 C 0.2981(9) 0.5554(7) 0.0627(7)
H7 H 0.2138 0.5030 0.0291
C8 C 0.4774(7) 0.6966(6) 0.0923(6)
H8 H 0.5468 0.7660 0.0870
C9 C 0.5520(8) 0.6896(7) 0.2729(6)
H9 H 0.6352 0.7516 0.2688
H10 H 0.5734 0.6240 0.3009
C10 C 0.4874(7) 0.7374(6) 0.3425(5)
C11 C 0.3570(8) 0.7238(7) 0.3220(5)
H11 H 0.3025 0.6851 0.2596
C12 C 0.3048(7) 0.7654(7) 0.3905(6)
H12 H 0.2145 0.7547 0.3754
C13 C 0.3807(7) 0.8213(6) 0.4788(5)
C14 C 0.5088(7) 0.8372(6) 0.4989(5)
H13 H 0.5627 0.8786 0.5606
C15 C 0.5640(6) 0.7950(6) 0.4323(5)
H14 H 0.6544 0.8059 0.4487
C16 C 0.1887(8) 0.6326(7) 0.6825(7)
H15 H 0.1276 0.5580 0.6880
C17 C 0.3474(7) 0.7918(6) 0.7186(6)
H16 H 0.4223 0.8560 0.7528
C18 C 0.3240(8) 0.8665(6) 0.5564(5)
H17 H 0.3894 0.9413 0.5923
H18 H 0.2455 0.8816 0.5229
N4 N 0.3803(7) 0.6397(5) 0.0195(4)
N5 N 0.4697(7) 0.6487(6) 0.1729(5)
N6 N 0.3507(8) 0.5562(6) 0.1568(6)
N7 N 0.2870(6) 0.6973(6) 0.7576(4)
N8 N 0.2888(6) 0.7836(5) 0.6265(5)
N9 N 0.1855(6) 0.6825(6) 0.6010(5)
Cu2_2 Cu 0.33412(9) 0.66723(9) -1.11142(7)
Cu2_3 Cu 0.33412(9) 0.66723(9) 0.88858(7)
C7_2 C 0.2981(9) 0.5554(7) -0.9373(7)
H7_2 H 0.2138 0.5030 -0.9709
C8_2 C 0.4774(7) 0.6966(6) -0.9077(6)
H8_2 H 0.5468 0.7660 -0.9130
C9_2 C 0.5520(8) 0.6896(7) -0.7271(6)
H9_2 H 0.6352 0.7516 -0.7312
H10_2 H 0.5734 0.6240 -0.6991
C10_2 C 0.4874(7) 0.7374(6) -0.6575(5)
C11_2 C 0.3570(8) 0.7238(7) -0.6780(5)
H11_2 H 0.3025 0.6851 -0.7404
C12_2 C 0.3048(7) 0.7654(7) -0.6095(6)
H12_2 H 0.2145 0.7547 -0.6246
C13_2 C 0.3807(7) 0.8213(6) -0.5212(5)
C14_2 C 0.5088(7) 0.8372(6) -0.5011(5)
H13_2 H 0.5627 0.8786 -0.4394
C15_2 C 0.5640(6) 0.7950(6) -0.5677(5)
H14_2 H 0.6544 0.8059 -0.5513
C16_2 C 0.1887(8) 0.6326(7) -0.3175(7)
H15_2 H 0.1276 0.5580 -0.3120
C17_2 C 0.3474(7) 0.7918(6) -0.2814(6)
H16_2 H 0.4223 0.8560 -0.2472
C18_2 C 0.3240(8) 0.8665(6) -0.4436(5)
H17_2 H 0.3894 0.9413 -0.4077
H18_2 H 0.2455 0.8816 -0.4771
N4_2 N 0.3803(7) 0.6397(5) -0.9805(4)
N5_2 N 0.4697(7) 0.6487(6) -0.8271(5)
N6_2 N 0.3507(8) 0.5562(6) -0.8432(6)
N7_2 N 0.2870(6) 0.6973(6) -0.2424(4)
N7_3 N 0.2870(6) 0.6973(6) -1.2424(4)
N8_2 N 0.2888(6) 0.7836(5) -0.3735(5)
N9_2 N 0.1855(6) 0.6825(6) -0.3990(5)
P1 P 1.0000 1.0000 0.0000
Mo1 Mo 1.12070(5) 1.25939(4) -0.11315(4)
Mo2 Mo 0.99276(5) 1.26824(4) 0.10295(4)
Mo3 Mo 1.29678(5) 1.22778(5) 0.12156(4)
Mo4 Mo 1.16957(5) 1.00028(5) -0.19124(4)
Mo5 Mo 0.85021(7) 1.01326(6) -0.24805(4)
Mo6 Mo 1.29531(6) 0.94440(6) 0.05081(5)
O1 O 1.2686(3) 1.2782(3) 0.0008(3)
O2 O 1.1622(3) 1.2844(3) 0.1537(3)
O3 O 1.0452(3) 1.3085(3) -0.0239(3)
O4 O 0.9848(5) 1.3938(4) 0.1440(4)
O5 O 0.7846(4) 1.0243(4) -0.3635(3)
O6 O 1.2881(4) 0.9947(4) -0.0846(3)
O7 O 1.4352(4) 0.9231(3) 0.0723(3)
O8 O 0.8216(4) 1.1995(4) 0.0098(3)
O9 O 1.2005(4) 1.1548(4) -0.1668(3)
O10 O 0.9719(4) 1.1777(4) -0.2051(3)
O11 O 1.4330(3) 1.3316(4) 0.1833(3)
O12 O 1.1862(4) 1.3800(4) -0.1640(3)
O13 O 1.2427(4) 0.9969(3) -0.2841(3)
O14 O 0.9923(4) 0.9820(4) -0.2656(4)
O15 O 1.2810(8) 1.1492(7) 0.2510(6)
O17 O 0.7120(8) 1.0563(9) -0.1931(7)
O19 O 0.9240(4) 1.1692(4) 0.1891(3)
O20 O 1.3944(7) 1.1299(8) 0.1057(6)
O22 O 0.9267(6) 1.0651(5) 0.0494(5)
O23 O 1.1409(6) 1.0378(6) 0.0813(5)
O24 O 1.0334(6) 1.0576(6) -0.0942(5)
O25 O 0.9353(6) 0.8741(5) -0.0145(5)
Mo1A Mo 0.87930(5) 0.74061(4) 0.11315(4)
Mo2A Mo 1.00724(5) 0.73176(4) -0.10295(4)
Mo3A Mo 0.70322(5) 0.77222(5) -0.12156(4)
Mo4A Mo 0.83043(5) 0.99972(5) 0.19124(4)
Mo5A Mo 1.14979(7) 0.98674(6) 0.24805(4)
Mo6A Mo 0.70469(6) 1.05560(6) -0.05081(5)
O1A O 0.7314(3) 0.7218(3) -0.0008(3)
O2A O 0.8378(3) 0.7156(3) -0.1537(3)
O3A O 0.9548(3) 0.6915(3) 0.0239(3)
O4A O 1.0152(5) 0.6062(4) -0.1440(4)
O5A O 1.2154(4) 0.9757(4) 0.3635(3)
O6A O 0.7119(4) 1.0053(4) 0.0846(3)
O7A O 0.5648(4) 1.0769(3) -0.0723(3)
O8A O 1.1784(4) 0.8005(4) -0.0098(3)
O9A O 0.7995(4) 0.8452(4) 0.1668(3)
O10A O 1.0281(4) 0.8223(4) 0.2051(3)
O11A O 0.5670(3) 0.6684(4) -0.1833(3)
O12A O 0.8138(4) 0.6200(4) 0.1640(3)
O13A O 0.7573(4) 1.0031(3) 0.2841(3)
O14A O 1.0077(4) 1.0180(4) 0.2656(4)
O15A O 0.7190(8) 0.8508(7) -0.2510(6)
O17A O 1.2880(8) 0.9437(9) 0.1931(7)
O19A O 1.0760(4) 0.8308(4) -0.1891(3)
O20A O 0.6056(7) 0.8701(8) -0.1057(6)
O22A O 1.0733(6) 0.9349(5) -0.0494(5)
O23A O 0.8591(6) 0.9622(6) -0.0813(5)
O24A O 0.9666(6) 0.9424(6) 0.0942(5)
O25A O 1.0647(6) 1.1259(5) 0.0145(5)
Cu1 Cu 0.0000 0.0000 0.5000
C1 C 0.1039(5) 0.2286(5) 0.4375(5)
H1 H 0.1053 0.2008 0.3728
C2 C 0.0811(7) 0.2397(6) 0.5810(5)
H2 H 0.0595 0.2174 0.6422
C3 C 0.2224(6) 0.4458(5) 0.4325(5)
H3 H 0.1995 0.5127 0.4535
H4 H 0.1977 0.4316 0.3591
C4 C 0.3658(6) 0.4752(5) 0.4665(5)
C5 C 0.4357(7) 0.4386(5) 0.4102(5)
H5 H 0.3919 0.3965 0.3465
C6 C 0.4326(7) 0.5392(6) 0.5573(5)
H6 H 0.3877 0.5680 0.5975
N1 N 0.0576(5) 0.1610(4) 0.5036(4)
N2 N 0.1485(5) 0.3410(4) 0.4739(4)
N3 N 0.1358(5) 0.3503(5) 0.5679(4)
Cu1_2 Cu 1.0000 1.0000 0.5000
C1A C 0.8961(5) 0.7714(5) 0.5625(5)
H1A H 0.8947 0.7992 0.6272
C2A C 0.9189(7) 0.7603(6) 0.4190(5)
H2A H 0.9405 0.7826 0.3578
C3A C 0.7776(6) 0.5542(5) 0.5675(5)
H3A H 0.8005 0.4873 0.5465
H4A H 0.8023 0.5684 0.6409
C4A C 0.6342(6) 0.5248(5) 0.5335(5)
C5A C 0.5643(7) 0.5614(5) 0.5898(5)
H5A H 0.6081 0.6035 0.6535
C6A C 0.5674(7) 0.4608(6) 0.4427(5)
H6A H 0.6123 0.4320 0.4025
N1A N 0.9424(5) 0.8390(4) 0.4964(4)
N1A_2 N -0.0576(5) -0.1610(4) 0.4964(4)
N2A N 0.8515(5) 0.6590(4) 0.5261(4)
N3A N 0.8642(5) 0.6497(5) 0.4321(4)
O16? O 0.7932(8) 0.8807(8) -0.2107(6)
O18? O 0.7809(8) 1.0805(8) -0.1514(7)
O21? O 0.6774(8) 0.8958(8) -0.0650(7)
loop_
_geom_bond_atom_site_label_1
_geom_bond_atom_site_label_2
_geom_bond_site_symmetry_1
_geom_bond_site_symmetry_2
Cu1 N1 1_555 1_555
Cu2 N4 1_555 1_555
P1 O22 1_555 1_555
Mo1 O1 1_555 1_555
Mo2 O2 1_555 1_555
Mo3 O1 1_555 1_555
Mo4 O6 1_555 1_555
Mo5 O5 1_555 1_555
Mo6 O6 1_555 1_555
O2 Mo3 1_555 1_555
O3 Mo1 1_555 1_555
O4 Mo2 1_555 1_555
O7 Mo6 1_555 1_555
O8 Mo2 1_555 1_555
O9 Mo1 1_555 1_555
O10 Mo1 1_555 1_555
O11 Mo3 1_555 1_555
O12 Mo1 1_555 1_555
O13 Mo4 1_555 1_555
O14 Mo4 1_555 1_555
O15 Mo3 1_555 1_555
O17 Mo5 1_555 1_555
O19 Mo2 1_555 1_555
O20 Mo3 1_555 1_555
O22 Mo2 1_555 1_555
O23 P1 1_555 1_555
O24 P1 1_555 1_555
O25 P1 1_555 1_555
C1 H1 1_555 1_555
C2 H2 1_555 1_555
C3 H3 1_555 1_555
H4 C3 1_555 1_555
C4 C3 1_555 1_555
C5 C4 1_555 1_555
H5 C5 1_555 1_555
C6 C4 1_555 1_555
H6 C6 1_555 1_555
C7 H7 1_555 1_555
C8 H8 1_555 1_555
C9 H9 1_555 1_555
H10 C9 1_555 1_555
C10 C9 1_555 1_555
C11 C10 1_555 1_555
H11 C11 1_555 1_555
C12 C11 1_555 1_555
H12 C12 1_555 1_555
C13 C12 1_555 1_555
C14 C13 1_555 1_555
H13 C14 1_555 1_555
C15 C10 1_555 1_555
H14 C15 1_555 1_555
C16 H15 1_555 1_555
C17 H16 1_555 1_555
C18 C13 1_555 1_555
H17 C18 1_555 1_555
H18 C18 1_555 1_555
N1 C1 1_555 1_555
N2 C1 1_555 1_555
N3 C2 1_555 1_555
N4 C7 1_555 1_555
N5 C8 1_555 1_555
N6 C7 1_555 1_555
N7 C16 1_555 1_555
N8 C17 1_555 1_555
N9 C16 1_555 1_555
Cu1_2 N1A 1_555 1_555
Cu2_2 N4_2 1_555 1_555
Cu2_3 N7 1_555 1_555
Mo1A O25 1_555 1_555
Mo2A O25 1_555 1_555
Mo3A O1A 1_555 1_555
Mo4A O19 1_555 1_555
Mo5A O15 1_555 1_555
Mo6A O8 1_555 1_555
O1A Mo1A 1_555 1_555
O2A Mo2A 1_555 1_555
O3A Mo1A 1_555 1_555
O4A Mo2A 1_555 1_555
O5A Mo5A 1_555 1_555
O6A Mo4A 1_555 1_555
O7A Mo6A 1_555 1_555
O8A Mo6 1_555 1_555
O9A Mo1A 1_555 1_555
O10A Mo1A 1_555 1_555
O11A Mo3A 1_555 1_555
O12A Mo1A 1_555 1_555
O13A Mo4A 1_555 1_555
O14A Mo4A 1_555 1_555
O15A Mo5 1_555 1_555
O17A Mo6 1_555 1_555
O19A Mo4 1_555 1_555
O20A Mo3A 1_555 1_555
O22A P1 1_555 1_555
O23A P1 1_555 1_555
O24A P1 1_555 1_555
O25A P1 1_555 1_555
C1A H1A 1_555 1_555
C2A H2A 1_555 1_555
C3A H3A 1_555 1_555
H4A C3A 1_555 1_555
C4A C3A 1_555 1_555
C5A C6 1_555 1_555
H5A C5A 1_555 1_555
C6A C5 1_555 1_555
H6A C6A 1_555 1_555
C7_2 H7_2 1_555 1_555
C8_2 H8_2 1_555 1_555
C9_2 H9_2 1_555 1_555
H10_2 C9_2 1_555 1_555
C10_2 C9_2 1_555 1_555
C11_2 C10_2 1_555 1_555
H11_2 C11_2 1_555 1_555
C12_2 C11_2 1_555 1_555
H12_2 C12_2 1_555 1_555
C13_2 C12_2 1_555 1_555
C14_2 C13_2 1_555 1_555
H13_2 C14_2 1_555 1_555
C15_2 C10_2 1_555 1_555
H14_2 C15_2 1_555 1_555
C16_2 H15_2 1_555 1_555
C17_2 H16_2 1_555 1_555
C18_2 C13_2 1_555 1_555
H17_2 C18_2 1_555 1_555
H18_2 C18_2 1_555 1_555
N1A C1A 1_555 1_555
N1A_2 Cu1 1_555 1_555
N2A C1A 1_555 1_555
N3A C2A 1_555 1_555
N4_2 C7_2 1_555 1_555
N5_2 C8_2 1_555 1_555
N6_2 C7_2 1_555 1_555
N7_2 Cu2 1_555 1_555
N7_3 Cu2_2 1_555 1_555
N8_2 C17_2 1_555 1_555
N9_2 C16_2 1_555 1_555
Mo1 O24 1_555 1_555
Mo1 O25A 1_555 1_555
Mo2 O3 1_555 1_555
Mo2 O25A 1_555 1_555
Mo3 O23 1_555 1_555
Mo4 O9 1_555 1_555
Mo4 O24 1_555 1_555
Mo4 O22A 1_555 1_555
Mo5 O10 1_555 1_555
Mo5 O14 1_555 1_555
Mo5 O24 1_555 1_555
Mo5 O23A 1_555 1_555
Mo6 O20 1_555 1_555
Mo6 O23 1_555 1_555
O17 Mo6A 1_555 1_555
O22 Mo4A 1_555 1_555
O23 Mo5A 1_555 1_555
C2 N1 1_555 1_555
C3 N2 1_555 1_555
C8 N4 1_555 1_555
C9 N5 1_555 1_555
C14 C15 1_555 1_555
C17 N7 1_555 1_555
C18 N8 1_555 1_555
N2 N3 1_555 1_555
N5 N6 1_555 1_555
N8 N9 1_555 1_555
Mo1A O24A 1_555 1_555
Mo2A O3A 1_555 1_555
Mo2A O8A 1_555 1_555
Mo2A O19A 1_555 1_555
Mo2A O22A 1_555 1_555
Mo3A O2A 1_555 1_555
Mo3A O15A 1_555 1_555
Mo3A O23A 1_555 1_555
Mo4A O9A 1_555 1_555
Mo4A O24A 1_555 1_555
Mo5A O10A 1_555 1_555
Mo5A O14A 1_555 1_555
Mo5A O17A 1_555 1_555
Mo5A O24A 1_555 1_555
Mo6A O6A 1_555 1_555
Mo6A O20A 1_555 1_555
Mo6A O23A 1_555 1_555
C2A N1A 1_555 1_555
C3A N2A 1_555 1_555
C4A C5A 1_555 1_555
C4A C6A 1_555 1_555
C8_2 N4_2 1_555 1_555
C9_2 N5_2 1_555 1_555
C14_2 C15_2 1_555 1_555
C16_2 N7_2 1_555 1_555
C17_2 N7_2 1_555 1_555
C18_2 N8_2 1_555 1_555
N2A N3A 1_555 1_555
N5_2 N6_2 1_555 1_555
N8_2 N9_2 1_555 1_555

#END
