
#######################################################################
#
#                 Cambridge Crystallographic Data Centre
#                                CCDC 
#
#######################################################################
#
# If this CIF has been generated from an entry in the Cambridge 
# Structural Database, then it will include bibliographic, chemical, 
# crystal, experimental, refinement or atomic coordinate data resulting 
# from the CCDC's data processing and validation procedures.
#
#######################################################################

data_ZEDJAV
_symmetry_cell_setting           triclinic
_symmetry_space_group_name_H-M   'P -1'
_symmetry_Int_Tables_number      2
_space_group_name_Hall           '-P 1'
loop_
_symmetry_equiv_pos_site_id
_symmetry_equiv_pos_as_xyz
1 x,y,z
2 -x,-y,-z
_cell_length_a                   14.0334(9)
_cell_length_b                   14.4092(9)
_cell_length_c                   15.3559(9)
_cell_angle_alpha                87.956(1)
_cell_angle_beta                 62.931(1)
_cell_angle_gamma                72.497(1)
_cell_volume                     2618.18
loop_
_atom_site_label
_atom_site_type_symbol
_atom_site_fract_x
_atom_site_fract_y
_atom_site_fract_z
Cu1 Cu 0.38980(14) 0.39981(11) 0.54772(13)
Cu2 Cu 0.86823(17) -0.00223(18) 1.08311(13)
N1 N 0.4503(6) 0.2620(5) 0.5462(5)
C1 C 0.4217(6) 0.2168(5) 0.6279(5)
H1 H 0.3709 0.2467 0.6918
N2 N 0.4794(6) 0.1208(5) 0.6012(5)
N3 N 0.5435(7) 0.1067(5) 0.5031(5)
C2 C 0.5255(7) 0.1940(5) 0.4691(5)
H2 H 0.5593 0.2054 0.4035
N4 N 0.8547(7) 0.0231(6) 0.9656(5)
C3 C 0.8642(7) -0.0428(5) 0.9008(5)
H3 H 0.8771 -0.1096 0.9055
N5 N 0.8518(7) 0.0039(5) 0.8281(5)
N6 N 0.8346(8) 0.0987(5) 0.8480(6)
C4 C 0.8365(8) 0.1105(5) 0.9330(6)
H4 H 0.8267 0.1694 0.9640
N7 N 0.3424(7) 0.5366(5) 0.5392(5)
C5 C 0.3725(7) 0.5795(5) 0.4562(5)
H5 H 0.4223 0.5477 0.3928
N8 N 0.3183(7) 0.6759(5) 0.4805(5)
N9 N 0.2547(7) 0.6927(5) 0.5785(5)
C6 C 0.2696(7) 0.6066(5) 0.6147(5)
H6 H 0.2353 0.5971 0.6808
N10 N 0.8773(8) -0.0191(7) 1.2028(6)
C7 C 0.8911(8) -0.1043(6) 1.2392(6)
H7 H 0.9028 -0.1643 1.2088
N11 N 0.8852(7) -0.0889(6) 1.3265(6)
N12 N 0.8678(7) 0.0059(6) 1.3442(5)
C8 C 0.8629(8) 0.0491(6) 1.2677(6)
H8 H 0.8515 0.1153 1.2608
C9 C 0.4769(10) 0.0438(8) 0.6655(8)
H9 H 0.4819 -0.0153 0.6331
H10 H 0.4057 0.0638 0.7256
C10 C 0.8624(10) -0.0354(8) 0.7379(8)
H11 H 0.8971 -0.1059 0.7295
H12 H 0.9138 -0.0099 0.6836
C11 C 0.5741(6) 0.0220(5) 0.6910(5)
C12 C 0.5788(6) 0.0925(5) 0.7456(5)
H13 H 0.5213 0.1524 0.7692
C13 C 0.6687(6) 0.0744(5) 0.7651(5)
H14 H 0.6719 0.1221 0.8020
C14 C 0.7538(6) -0.0141(5) 0.7301(5)
C15 C 0.7490(6) -0.0846(5) 0.6756(5)
H15 H 0.8066 -0.1444 0.6519
C16 C 0.6591(6) -0.0665(5) 0.6560(5)
H16 H 0.6559 -0.1142 0.6191
C17 C 0.3154(11) 0.7510(9) 0.4173(9)
H17 H 0.3803 0.7284 0.3528
H18 H 0.3198 0.8087 0.4440
C18 C 0.8972(13) -0.1610(10) 1.3944(10)
H19 H 0.8931 -0.2218 1.3735
H20 H 0.8347 -0.1367 1.4599
C19 C 0.2062(6) 0.7779(6) 0.4075(6)
C20 C 0.1133(6) 0.8526(6) 0.4703(5)
H21 H 0.1178 0.8895 0.5160
C21 C 0.0140(6) 0.8729(6) 0.4659(5)
H22 H -0.0491 0.9237 0.5086
C22 C 1.0075(7) -0.1814(6) 1.3987(5)
C23 C 1.1003(7) -0.2561(6) 1.3358(6)
H23 H 1.0959 -0.2930 1.2902
C24 C 0.1997(7) 0.7236(6) 0.3402(6)
H24 H 0.2628 0.6728 0.2976
C21_2 C 1.0140(6) -0.1271(6) 1.4659(5)
C22_2 C 0.0075(7) 0.8186(6) 0.3987(5)
C23_2 C 0.1003(7) 0.7439(6) 0.3358(6)
C24_2 C 1.1997(7) -0.2764(6) 1.3402(6)
Cu3 Cu -0.45134(15) 0.45355(11) 0.87424(12)
N13 N -0.4140(6) 0.5447(6) 0.7798(6)
C25 C -0.3094(6) 0.5513(6) 0.7298(6)
H25 H -0.2476 0.5177 0.7393
N14 N -0.3097(6) 0.6149(5) 0.6637(5)
N15 N -0.4145(6) 0.6476(6) 0.6728(6)
C26 C -0.4790(6) 0.6043(6) 0.7445(6)
H26 H -0.5552 0.6138 0.7660
N16 N -0.4727(6) 0.3558(5) 0.9627(6)
C27 C -0.5583(6) 0.3185(5) 1.0028(5)
H27 H -0.6204 0.3343 0.9911
N17 N -0.5384(6) 0.2542(5) 1.0629(5)
N18 N -0.4405(6) 0.2518(6) 1.0598(6)
C28 C -0.3999(7) 0.3146(6) 0.9979(7)
H28 H -0.3331 0.3274 0.9822
C29 C -0.2187(11) 0.6498(9) 0.5941(9)
H29 H -0.2136 0.7021 0.6282
H30 H -0.2368 0.6769 0.5427
C30 C -0.0907(12) 0.4836(9) 0.4985(9)
H31 H -0.1512 0.4721 0.4959
C31 C -0.1072(10) 0.5715(9) 0.5482(8)
C32 C -0.0148(11) 0.5854(9) 0.5463(9)
H32 H -0.0233 0.6442 0.5766
C33 C -0.5985(11) 0.1890(9) 1.1175(9)
H33 H -0.6775 0.2164 1.1336
H34 H -0.5938 0.1816 1.1786
C34 C -0.5483(10) 0.0905(8) 1.0573(8)
C35 C -0.4506(10) 0.0220(9) 1.0530(9)
H35 H -0.4174 0.0358 1.0892
C36 C -0.5951(11) 0.0657(9) 1.0054(11)
H36 H -0.6612 0.1100 1.0096
C30A C 0.0907(12) 0.5164(9) 0.5015(9)
C32A C 0.0148(11) 0.4146(9) 0.4537(9)
C35A C -0.5494(10) -0.0220(9) 0.9470(9)
C36A C -0.4049(11) -0.0657(9) 0.9946(11)
O23 O 0.3655(14) 0.8479(12) 0.7816(12)
W1 W 0.29059(4) 0.45357(4) 0.83989(3)
W2 W -0.17141(4) 0.44877(3) 0.91213(4)
W3 W -0.10778(4) 0.30234(3) 1.07930(3)
W4 W 0.11590(4) 0.40532(4) 0.75104(3)
W5 W 0.06815(4) 0.35231(3) 1.16629(3)
W6 W 0.18180(4) 0.25790(3) 0.91808(3)
Si1 Si 0.0000 0.5000 1.0000
O1 O 0.1102(10) 0.4258(8) 0.9104(8)
O2 O 0.0264(11) 0.3935(9) 1.0318(9)
O3 O -0.0253(10) 0.5038(8) 0.9057(8)
O4 O 0.1075(10) 0.5392(8) 0.9703(8)
O5 O 0.2615(13) 0.4213(10) 0.7317(11)
O6 O 0.3082(12) 0.4930(10) 0.9551(10)
O7 O 0.2560(12) 0.6025(10) 0.8303(10)
O8 O 0.1629(13) 0.4293(12) 1.1143(12)
O9 O -0.0275(14) 0.3900(12) 0.8259(12)
O10 O 0.0530(12) 0.5365(10) 0.7668(11)
O11 O -0.1674(13) 0.3242(11) 0.9815(11)
O12 O 0.1812(13) 0.2703(11) 0.7892(11)
O13 O 0.2671(13) 0.3435(10) 0.8884(10)
O14 O -0.0365(14) 0.2851(11) 1.1707(11)
O15 O 0.0357(14) 0.2556(12) 0.9731(12)
O16 O -0.1577(8) 0.2080(6) 1.1154(6)
O17 O 0.1715(7) 0.2729(7) 1.0435(6)
O18 O 0.1730(7) 0.3579(5) 0.6328(5)
O19 O 0.1028(7) 0.2816(6) 1.2423(6)
O20 O 0.4289(7) 0.4297(6) 0.7628(6)
O21 O 0.2666(7) 0.1414(6) 0.8800(6)
O22 O -0.2535(6) 0.4246(5) 0.8690(6)
W2A W 0.17141(4) 0.55123(3) 1.08787(4)
W3A W 0.10778(4) 0.69766(3) 0.92070(3)
W5A W -0.06815(4) 0.64769(3) 0.83371(3)
O1A O -0.1102(10) 0.5742(8) 1.0896(8)
O2A O -0.0264(11) 0.6065(9) 0.9682(9)
O3A O 0.0253(10) 0.4962(8) 1.0943(8)
O4A O -0.1075(10) 0.4608(8) 1.0297(8)
O6A O -0.3082(12) 0.5070(10) 1.0449(10)
O7A O -0.2560(12) 0.3975(10) 1.1697(10)
O8A O -0.1629(13) 0.5707(12) 0.8857(12)
O10A O -0.0530(12) 0.4635(10) 1.2332(11)
O24? O 0.0457(12) 0.5434(10) 0.7251(11)
O25? O -0.1271(13) 0.3464(11) 0.9712(11)
O26? O 0.1359(13) 0.3079(11) 0.8228(11)
O27? O 0.3130(13) 0.3075(11) 0.8550(11)
O28? O 0.0495(13) 0.6750(12) 0.8412(12)
O29? O -0.0479(14) 0.7862(12) 1.0172(11)
O30? O 0.2175(14) 0.4521(12) 0.7688(12)
O31? O 0.2602(12) 0.4730(10) 0.9677(10)
O32? O 0.2095(13) 0.5812(10) 0.8452(10)
O33? O -0.1700(13) 0.5756(11) 0.8454(12)
O34? O -0.0294(13) 0.3912(12) 0.7840(12)
loop_
_geom_bond_atom_site_label_1
_geom_bond_atom_site_label_2
_geom_bond_site_symmetry_1
_geom_bond_site_symmetry_2
W1 O1 1_555 1_555
W2 O3 1_555 1_555
W3 O2 1_555 1_555
W4 O1 1_555 1_555
W5 O2 1_555 1_555
W6 O1 1_555 1_555
Si1 O1 1_555 1_555
O2 W6 1_555 1_555
O3 W4 1_555 1_555
O4 W1 1_555 1_555
O5 W1 1_555 1_555
O6 W1 1_555 1_555
O7 W1 1_555 1_555
O8 W5 1_555 1_555
O9 W2 1_555 1_555
O10 W4 1_555 1_555
O11 W2 1_555 1_555
O12 W4 1_555 1_555
O13 W1 1_555 1_555
O14 W3 1_555 1_555
O15 W3 1_555 1_555
O16 W3 1_555 1_555
O17 W5 1_555 1_555
O18 W4 1_555 1_555
O19 W5 1_555 1_555
O20 W1 1_555 1_555
O21 W6 1_555 1_555
O22 W2 1_555 1_555
Cu1 N1 1_555 1_555
Cu2 N4 1_555 1_555
Cu3 N13 1_555 1_555
N1 C1 1_555 1_555
C1 H1 1_555 1_555
N2 C1 1_555 1_555
N3 N2 1_555 1_555
C2 N1 1_555 1_555
H2 C2 1_555 1_555
N4 C3 1_555 1_555
C3 H3 1_555 1_555
N5 C3 1_555 1_555
N6 N5 1_555 1_555
C4 N4 1_555 1_555
H4 C4 1_555 1_555
N7 Cu1 1_555 1_555
C5 N7 1_555 1_555
H5 C5 1_555 1_555
N8 C5 1_555 1_555
N9 N8 1_555 1_555
C6 N7 1_555 1_555
H6 C6 1_555 1_555
N10 Cu2 1_555 1_555
C7 N10 1_555 1_555
H7 C7 1_555 1_555
N11 C7 1_555 1_555
N12 N11 1_555 1_555
C8 N10 1_555 1_555
H8 C8 1_555 1_555
C9 N2 1_555 1_555
H9 C9 1_555 1_555
H10 C9 1_555 1_555
C10 N5 1_555 1_555
H11 C10 1_555 1_555
H12 C10 1_555 1_555
C11 C9 1_555 1_555
C12 C11 1_555 1_555
H13 C12 1_555 1_555
C13 C12 1_555 1_555
H14 C13 1_555 1_555
C14 C10 1_555 1_555
C15 C14 1_555 1_555
H15 C15 1_555 1_555
C16 C11 1_555 1_555
H16 C16 1_555 1_555
C17 N8 1_555 1_555
H17 C17 1_555 1_555
H18 C17 1_555 1_555
C18 N11 1_555 1_555
H19 C18 1_555 1_555
H20 C18 1_555 1_555
C19 C17 1_555 1_555
C20 C19 1_555 1_555
H21 C20 1_555 1_555
C21 C20 1_555 1_555
H22 C21 1_555 1_555
C22 C18 1_555 1_555
C23 C22 1_555 1_555
H23 C23 1_555 1_555
C24 C19 1_555 1_555
H24 C24 1_555 1_555
N13 C25 1_555 1_555
C25 H25 1_555 1_555
N14 C25 1_555 1_555
N15 N14 1_555 1_555
C26 N13 1_555 1_555
H26 C26 1_555 1_555
N16 Cu3 1_555 1_555
C27 N16 1_555 1_555
H27 C27 1_555 1_555
N17 C27 1_555 1_555
N18 N17 1_555 1_555
C28 N16 1_555 1_555
H28 C28 1_555 1_555
C29 N14 1_555 1_555
H29 C29 1_555 1_555
H30 C29 1_555 1_555
C30 H31 1_555 1_555
C31 C29 1_555 1_555
C32 C31 1_555 1_555
H32 C32 1_555 1_555
C33 N17 1_555 1_555
H33 C33 1_555 1_555
H34 C33 1_555 1_555
C34 C33 1_555 1_555
C35 C34 1_555 1_555
H35 C35 1_555 1_555
C36 C34 1_555 1_555
H36 C36 1_555 1_555
W2A O4 1_555 1_555
W3A O4 1_555 1_555
W5A O3 1_555 1_555
O1A Si1 1_555 1_555
O2A Si1 1_555 1_555
O3A W5 1_555 1_555
O4A W2 1_555 1_555
O6A W2 1_555 1_555
O7A W3 1_555 1_555
O8A W2 1_555 1_555
O10A W5 1_555 1_555
C21_2 C22 1_555 1_555
C22_2 C21 1_555 1_555
C23_2 C24 1_555 1_555
C24_2 C23 1_555 1_555
C30A C32 1_555 1_555
C32A C30 1_555 1_555
C35A C36 1_555 1_555
C36A C35 1_555 1_555
W3 O11 1_555 1_555
W3 O4A 1_555 1_555
W4 O5 1_555 1_555
W4 O9 1_555 1_555
W5 O14 1_555 1_555
W6 O12 1_555 1_555
W6 O13 1_555 1_555
W6 O15 1_555 1_555
W6 O17 1_555 1_555
Si1 O2 1_555 1_555
Si1 O3 1_555 1_555
Si1 O4 1_555 1_555
Si1 O3A 1_555 1_555
Si1 O4A 1_555 1_555
O6 W2A 1_555 1_555
O7 W3A 1_555 1_555
O8 W2A 1_555 1_555
O10 W5A 1_555 1_555
N3 C2 1_555 1_555
N6 C4 1_555 1_555
N9 C6 1_555 1_555
N12 C8 1_555 1_555
C13 C14 1_555 1_555
C15 C16 1_555 1_555
N15 C26 1_555 1_555
N18 C28 1_555 1_555
C30 C31 1_555 1_555
W2A O3A 1_555 1_555
W3A O2A 1_555 1_555
W5A O2A 1_555 1_555
W5A O8A 1_555 1_555
C22_2 C23_2 1_555 1_555

#END
