
#######################################################################
#
#                 Cambridge Crystallographic Data Centre
#                                CCDC 
#
#######################################################################
#
# If this CIF has been generated from an entry in the Cambridge 
# Structural Database, then it will include bibliographic, chemical, 
# crystal, experimental, refinement or atomic coordinate data resulting 
# from the CCDC's data processing and validation procedures.
#
#######################################################################

data_ZEDRAD
_symmetry_cell_setting           monoclinic
_symmetry_space_group_name_H-M   'P 21/m'
_symmetry_Int_Tables_number      11
_space_group_name_Hall           '-P 2yb'
loop_
_symmetry_equiv_pos_site_id
_symmetry_equiv_pos_as_xyz
1 x,y,z
2 -x,1/2+y,-z
3 -x,-y,-z
4 x,1/2-y,z
_cell_length_a                   5.8767(12)
_cell_length_b                   16.476(3)
_cell_length_c                   7.5012(15)
_cell_angle_alpha                90
_cell_angle_beta                 94.47(3)
_cell_angle_gamma                90
_cell_volume                     724.091
loop_
_atom_site_label
_atom_site_type_symbol
_atom_site_fract_x
_atom_site_fract_y
_atom_site_fract_z
Ba1 Ba 0.18036(3) 0.467200(12) 0.28696(3)
S1 S 0.66124(14) 0.58511(5) 0.20088(11)
O1 O 0.4427(5) 0.60064(17) 0.1017(4)
O2 O -0.0697(10) 0.3349(3) 0.1322(6)
H1 H -0.168(9) 0.316(6) 0.192(8)
H2 H -0.097(12) 0.335(6) 0.0238(17)
O3 O 0.5166(7) 0.3486(2) 0.3178(6)
H3 H 0.421(9) 0.313(3) 0.321(8)
H4 H 0.597(10) 0.357(4) 0.410(5)
O4 O 0.6335(6) 0.53107(15) 0.3533(4)
O5 O 0.8305(5) 0.55064(18) 0.0883(4)
O6 O 1.0742(4) 0.60625(14) 0.4565(4)
C1 C 0.6766(8) 0.7500 0.2279(7)
H5 H 0.5433 0.7500 0.1525
C2 C 0.7739(6) 0.67684(19) 0.2829(5)
C3 C 0.9807(5) 0.6751(2) 0.3977(5)
C4 C 1.0747(9) 0.7500 0.4508(7)
H6 H 1.2081 0.7500 0.5262
Ba1C Ba 0.18036(3) 1.032800(12) 0.28696(3)
Ba1B Ba 0.81964(3) 0.532800(12) 0.71304(3)
Ba1_2 Ba 1.18036(3) 0.467200(12) 0.28696(3)
Ba1B_2 Ba 0.81964(3) 0.532800(12) -0.28696(3)
Ba1A Ba 0.81964(3) 0.967200(12) 0.71304(3)
Ba1C_2 Ba 1.18036(3) 1.032800(12) 0.28696(3)
Ba1A_2 Ba 0.81964(3) 0.967200(12) -0.28696(3)
S1C S 0.66124(14) 0.91489(5) 0.20088(11)
O1C O 0.4427(5) 0.89936(17) 0.1017(4)
O2C O -0.0697(10) 1.1651(3) 0.1322(6)
H1C H -0.168(9) 1.184(6) 0.192(8)
H2C H -0.097(12) 1.165(6) 0.0238(17)
O3C O 0.5166(7) 1.1514(2) 0.3178(6)
H3C H 0.421(9) 1.187(3) 0.321(8)
H4C H 0.597(10) 1.143(4) 0.410(5)
O4C O 0.6335(6) 0.96893(15) 0.3533(4)
O4B O 0.3665(6) 0.46893(15) 0.6467(4)
O4A O 0.3665(6) 1.03107(15) 0.6467(4)
O5C O 0.8305(5) 0.94936(18) 0.0883(4)
O5_2 O -0.1695(5) 0.55064(18) 0.0883(4)
O5B O 0.1695(5) 0.44936(18) -0.0883(4)
O5C_2 O -0.1695(5) 0.94936(18) 0.0883(4)
O5A O 0.1695(5) 1.05064(18) -0.0883(4)
O6C O 1.0742(4) 0.89375(14) 0.4565(4)
O6_2 O 0.0742(4) 0.60625(14) 0.4565(4)
O6B O -0.0742(4) 0.39375(14) 0.5435(4)
O6C_2 O 0.0742(4) 0.89375(14) 0.4565(4)
O6A O -0.0742(4) 1.10625(14) 0.5435(4)
C2C C 0.7739(6) 0.82316(19) 0.2829(5)
C3C C 0.9807(5) 0.8249(2) 0.3977(5)
loop_
_geom_bond_atom_site_label_1
_geom_bond_atom_site_label_2
_geom_bond_site_symmetry_1
_geom_bond_site_symmetry_2
Ba1 O1 1_555 1_555
S1 O1 1_555 1_555
O2 Ba1 1_555 1_555
H1 O2 1_555 1_555
H2 O2 1_555 1_555
O3 Ba1 1_555 1_555
H3 O3 1_555 1_555
H4 O3 1_555 1_555
O4 Ba1 1_555 1_555
O5 S1 1_555 1_555
O6 C3 1_555 1_555
C1 H5 1_555 1_555
C2 S1 1_555 1_555
C3 C2 1_555 1_555
C4 C3 1_555 1_555
H6 C4 1_555 1_555
Ba1C O1C 1_555 1_555
Ba1B O4 1_555 1_555
Ba1_2 O5 1_555 1_555
Ba1B_2 O5 1_555 1_555
Ba1A O4C 1_555 1_555
Ba1C_2 O5C 1_555 1_555
Ba1A_2 O5C 1_555 1_555
S1C O1C 1_555 1_555
O2C Ba1C 1_555 1_555
H1C O2C 1_555 1_555
H2C O2C 1_555 1_555
O3C Ba1C 1_555 1_555
H3C O3C 1_555 1_555
H4C O3C 1_555 1_555
O4C Ba1C 1_555 1_555
O4B Ba1 1_555 1_555
O4A Ba1C 1_555 1_555
O5C S1C 1_555 1_555
O5_2 Ba1 1_555 1_555
O5B Ba1 1_555 1_555
O5C_2 Ba1C 1_555 1_555
O5A Ba1C 1_555 1_555
O6C Ba1A 1_555 1_555
O6_2 Ba1 1_555 1_555
O6B Ba1 1_555 1_555
O6C_2 Ba1C 1_555 1_555
O6A Ba1C 1_555 1_555
C2C C1 1_555 1_555
C3C C4 1_555 1_555
S1 O4 1_555 1_555
O6 Ba1B 1_555 1_555
O6 Ba1_2 1_555 1_555
C1 C2 1_555 1_555
Ba1B O4B 1_555 1_555
Ba1A O4A 1_555 1_555
Ba1C_2 O6C 1_555 1_555
S1C O4C 1_555 1_555
S1C C2C 1_555 1_555
O6C C3C 1_555 1_555
C2C C3C 1_555 1_555

#END
