
#######################################################################
#
#                 Cambridge Crystallographic Data Centre
#                                CCDC 
#
#######################################################################
#
# If this CIF has been generated from an entry in the Cambridge 
# Structural Database, then it will include bibliographic, chemical, 
# crystal, experimental, refinement or atomic coordinate data resulting 
# from the CCDC's data processing and validation procedures.
#
#######################################################################

data_ZEDVUB
_symmetry_cell_setting           monoclinic
_symmetry_space_group_name_H-M   'P 21/n'
_symmetry_Int_Tables_number      14
_space_group_name_Hall           '-P 2yn'
loop_
_symmetry_equiv_pos_site_id
_symmetry_equiv_pos_as_xyz
1 x,y,z
2 1/2-x,1/2+y,1/2-z
3 -x,-y,-z
4 1/2+x,1/2-y,1/2+z
_cell_length_a                   24.003(5)
_cell_length_b                   11.365(2)
_cell_length_c                   32.883(7)
_cell_angle_alpha                90
_cell_angle_beta                 97.17(3)
_cell_angle_gamma                90
_cell_volume                     8900.14
loop_
_atom_site_label
_atom_site_type_symbol
_atom_site_fract_x
_atom_site_fract_y
_atom_site_fract_z
Sm1 Sm 0.587905(16) 0.75991(4) 0.372725(11)
Sm2 Sm 0.871550(15) 1.26873(4) 0.601540(11)
O1 O 0.5891(3) 0.8794(6) 0.31157(17)
O2 O 0.4995(2) 0.7127(5) 0.32325(17)
O3 O 0.5754(2) 0.6033(6) 0.31958(16)
O4 O 0.8266(2) 1.4143(5) 0.63945(16)
O5 O 0.5350(2) 0.5927(5) 0.39948(15)
O7 O 0.5931(2) 0.6866(5) 0.44603(15)
O9 O 0.5240(2) 0.8827(5) 0.39905(15)
O11 O 0.4629(2) 1.0314(5) 0.38794(15)
O13 O 0.6516(3) 0.9062(6) 0.39608(18)
O15 O 0.7146(3) 1.0351(6) 0.37871(18)
O18 O 0.7841(2) 1.1745(6) 0.58657(18)
O19 O 0.7122(2) 1.0670(6) 0.60045(19)
O21 O 0.6737(2) 0.6649(6) 0.37347(16)
O23 O 0.7475(2) 0.5866(6) 0.35076(18)
O26 O 0.8276(2) 0.4013(5) 0.55322(16)
O28 O 0.7810(2) 0.5506(5) 0.57655(16)
O29 O 0.4296(3) 0.2464(5) 0.16897(18)
O31 O 0.3646(2) 0.3806(6) 0.15686(17)
O33 O 0.9449(2) 1.1130(5) 0.59197(15)
O35 O 0.8905(2) 1.1786(5) 0.53802(15)
O37 O 0.9472(2) 1.3900(5) 0.59303(15)
O38 O 1.0039(3) 1.5385(6) 0.61141(16)
C39 C 0.5238(3) 0.6275(7) 0.3074(2)
C40 C 0.4932(3) 0.5537(8) 0.2744(2)
C41 C 0.4383(3) 0.5811(8) 0.2583(2)
H35 H 0.4201 0.6448 0.2687
C42 C 0.5197(3) 0.4560(7) 0.2596(2)
H36 H 0.5562 0.4369 0.2706
C43 C 0.5541(3) 0.6149(7) 0.4371(2)
C44 C 0.5262(3) 0.5551(7) 0.4694(2)
C45 C 0.5373(3) 0.5926(7) 0.5102(2)
H37 H 0.5626 0.6536 0.5171
C46 C 0.4889(3) 0.4603(7) 0.4601(2)
H38 H 0.4821 0.4332 0.4332
C47 C 0.4951(3) 0.9666(7) 0.4116(2)
C48 C 0.4989(3) 0.9855(7) 0.4573(2)
C49 C 0.5306(3) 0.9084(7) 0.4847(2)
H39 H 0.5508 0.8473 0.4747
C50 C 0.4684(3) 1.0756(7) 0.4733(2)
H40 H 0.4470 1.1261 0.4554
C51 C 0.6911(3) 0.9821(8) 0.4042(3)
C52 C 0.7053(3) 1.0106(7) 0.4491(2)
C53 C 0.6835(3) 0.9479(7) 0.4797(3)
H41 H 0.6597 0.8846 0.4726
C54 C 0.6962(3) 0.9773(7) 0.5200(3)
H42 H 0.6816 0.9327 0.5399
C55 C 0.7309(3) 1.0737(7) 0.5319(3)
C56 C 0.7531(3) 1.1367(7) 0.5017(2)
H43 H 0.7764 1.2005 0.5091
C57 C 0.7412(3) 1.1067(8) 0.4605(3)
H44 H 0.7568 1.1495 0.4406
C58 C 0.7434(3) 1.1080(7) 0.5755(3)
C59 C 0.7198(3) 0.6147(7) 0.3793(2)
C60 C 0.7436(3) 0.5888(7) 0.4225(2)
C61 C 0.7786(3) 0.4913(8) 0.4318(2)
H45 H 0.7904 0.4470 0.4107
C62 C 0.7961(3) 0.4599(8) 0.4725(2)
H46 H 0.8183 0.3934 0.4783
C63 C 0.7803(3) 0.5283(7) 0.5044(2)
C64 C 0.7477(3) 0.6301(7) 0.4951(2)
H47 H 0.7383 0.6782 0.5161
C65 C 0.7297(3) 0.6586(7) 0.4544(2)
H48 H 0.7080 0.7256 0.4484
C66 C 0.7971(3) 0.4921(7) 0.5479(2)
C67 C 0.4096(3) 0.3435(8) 0.1780(2)
C68 C 0.4375(3) 0.4175(8) 0.2121(2)
C69 C 0.4107(3) 0.5139(8) 0.2271(2)
H49 H 0.3742 0.5330 0.2161
C70 C 0.4916(3) 0.3872(8) 0.2286(2)
H50 H 0.5090 0.3215 0.2190
C71 C 0.9320(3) 1.1201(7) 0.5536(2)
C72 C 0.9673(3) 1.0570(7) 0.5262(2)
C73 C 1.0073(3) 0.9743(7) 0.5417(2)
H51 H 1.0121 0.9567 0.5695
C74 C 0.9599(3) 1.0818(7) 0.4845(2)
H52 H 0.9330 1.1362 0.4741
C75 C 0.9798(3) 1.4697(7) 0.5845(2)
C76 C 0.9896(3) 1.4853(7) 0.5412(2)
C77 C 0.9646(3) 1.4101(7) 0.5105(2)
H53 H 0.9412 1.3497 0.5172
C78 C 1.0255(3) 1.5750(7) 0.5302(2)
H54 H 1.0429 1.6249 0.5503
Sm1B Sm 0.412095(16) 0.24009(4) 0.627275(11)
Sm1B_2 Sm 0.412095(16) 1.24009(4) 0.627275(11)
Sm1_2 Sm 0.587905(16) 1.75991(4) 0.372725(11)
Sm1C Sm 1.087905(16) 0.74009(4) 0.872725(11)
Sm2_2 Sm 0.871550(15) 0.26873(4) 0.601540(11)
Sm2C Sm 0.371550(15) 0.23127(4) 0.101540(11)
Sm2B Sm 1.128450(15) 0.73127(4) 0.398460(11)
Sm2B_2 Sm 1.128450(15) 1.73127(4) 0.398460(11)
Sm2B_3 Sm 0.128450(15) -0.26873(4) 0.398460(11)
O1B O 0.4109(3) 0.1206(6) 0.68843(17)
O2C O 0.9995(2) 0.7873(5) 0.82325(17)
O2B O 0.5005(2) 0.2873(5) 0.67675(17)
O3C O 1.0754(2) 0.8967(6) 0.81958(16)
O3B O 0.4246(2) 0.3967(6) 0.68042(16)
O4_2 O 0.8266(2) 0.4143(5) 0.63945(16)
O5B O 0.4650(2) 0.4073(5) 0.60052(15)
O7B O 0.4069(2) 0.3134(5) 0.55397(15)
O9B O 0.4760(2) 1.1173(5) 0.60095(15)
O9B_2 O 0.4760(2) 0.1173(5) 0.60095(15)
O11B O 0.5371(2) 0.9686(5) 0.61206(15)
O13B O 0.3484(3) 0.0938(6) 0.60392(18)
O15B O 0.2854(3) -0.0351(6) 0.62129(18)
O18B O 0.2159(2) -0.1745(6) 0.41343(18)
O18_2 O 0.7841(2) 0.1745(6) 0.58657(18)
O19B O 0.2878(2) -0.0670(6) 0.39955(19)
O21_2 O 0.6737(2) 1.6649(6) 0.37347(16)
O21B O 0.3263(2) 0.3351(6) 0.62653(16)
O23_2 O 0.7475(2) 1.5866(6) 0.35076(18)
O26_2 O 0.8276(2) 1.4013(5) 0.55322(16)
O28_2 O 0.7810(2) 1.5506(5) 0.57655(16)
O29C O 0.9296(3) 1.2536(5) 0.66897(18)
O29C_2 O 0.9296(3) 0.2536(5) 0.66897(18)
O31C O 0.8646(2) 1.1194(6) 0.65686(17)
O31C_2 O 0.8646(2) 0.1194(6) 0.65686(17)
O33B O 1.0551(2) 0.8870(5) 0.40803(15)
O33_2 O 0.9449(2) 0.1130(5) 0.59197(15)
O35B O 1.1095(2) 0.8214(5) 0.46198(15)
O35_2 O 0.8905(2) 0.1786(5) 0.53802(15)
O37B O 1.0528(2) 1.6100(5) 0.40697(15)
O37_2 O 0.9472(2) 0.3900(5) 0.59303(15)
O38B O 0.9961(3) 1.4615(6) 0.38859(16)
C39C C 1.0238(3) 0.8725(7) 0.8074(2)
C40C C 0.9932(3) 0.9463(8) 0.7744(2)
C41C C 0.9383(3) 0.9189(8) 0.7583(2)
H35C H 0.9201 0.8552 0.7687
C42C C 1.0197(3) 1.0440(7) 0.7596(2)
H36C H 1.0562 1.0631 0.7706
C43B C 0.4459(3) 0.3851(7) 0.5629(2)
C44B C 0.4738(3) 0.4449(7) 0.5306(2)
C45B C 0.4627(3) 0.4074(7) 0.4898(2)
H37B H 0.4374 0.3464 0.4829
C46B C 0.5111(3) 0.5397(7) 0.5399(2)
H38B H 0.5179 0.5668 0.5668
C47B C 0.5049(3) 1.0334(7) 0.5884(2)
C48B C 0.5011(3) 1.0145(7) 0.5427(2)
C49B C 0.4694(3) 1.0916(7) 0.5153(2)
H39B H 0.4492 1.1527 0.5253
C50B C 0.5316(3) 0.9244(7) 0.5267(2)
H40B H 0.5530 0.8739 0.5446
C51B C 0.3089(3) 0.0179(8) 0.5958(3)
C52B C 0.2947(3) -0.0106(7) 0.5509(2)
C53B C 0.3165(3) 0.0521(7) 0.5203(3)
H41B H 0.3403 0.1154 0.5274
C54B C 0.3038(3) 0.0227(7) 0.4800(3)
H42B H 0.3184 0.0673 0.4601
C55B C 0.2691(3) -0.0737(7) 0.4681(3)
C56B C 0.2469(3) -0.1367(7) 0.4983(2)
H43B H 0.2236 -0.2005 0.4909
C57B C 0.2588(3) -0.1067(8) 0.5395(3)
H44B H 0.2432 -0.1495 0.5594
C58B C 0.2566(3) -0.1080(7) 0.4245(3)
C59_2 C 0.7198(3) 1.6147(7) 0.3793(2)
C60_2 C 0.7436(3) 1.5888(7) 0.4225(2)
C61_2 C 0.7786(3) 1.4913(8) 0.4318(2)
H45_2 H 0.7904 1.4470 0.4107
C62_2 C 0.7961(3) 1.4599(8) 0.4725(2)
H46_2 H 0.8183 1.3934 0.4783
C63_2 C 0.7803(3) 1.5283(7) 0.5044(2)
C64_2 C 0.7477(3) 1.6301(7) 0.4951(2)
H47_2 H 0.7383 1.6782 0.5161
C65_2 C 0.7297(3) 1.6586(7) 0.4544(2)
H48_2 H 0.7080 1.7256 0.4484
C66_2 C 0.7971(3) 1.4921(7) 0.5479(2)
C67C C 0.9096(3) 1.1565(8) 0.6780(2)
C68C C 0.9375(3) 1.0825(8) 0.7121(2)
C69C C 0.9107(3) 0.9861(8) 0.7271(2)
H49C H 0.8742 0.9670 0.7161
C70C C 0.9916(3) 1.1128(8) 0.7286(2)
H50C H 1.0090 1.1785 0.7190
C71B C 1.0680(3) 0.8799(7) 0.4464(2)
C72B C 1.0327(3) 0.9430(7) 0.4738(2)
C73B C 0.9927(3) 1.0257(7) 0.4583(2)
H51B H 0.9879 1.0433 0.4305
C74B C 1.0401(3) 0.9182(7) 0.5155(2)
H52B H 1.0670 0.8638 0.5259
C75B C 1.0202(3) 1.5303(7) 0.4155(2)
C76B C 1.0104(3) 1.5147(7) 0.4588(2)
C77B C 1.0354(3) 1.5899(7) 0.4895(2)
H53B H 1.0588 1.6503 0.4828
C78B C 0.9745(3) 1.4250(7) 0.4698(2)
H54B H 0.9571 1.3751 0.4497
O6 O 0.3359(7) 1.3566(16) 0.4211(5)
O8 O 0.2785(7) 1.3042(12) 0.3782(4)
O10 O 0.7611(4) 0.0576(14) 0.6757(3)
O12 O 0.5944(4) 0.1834(12) 0.1927(3)
O14 O 0.6850(4) 0.9857(14) 0.3001(3)
O16 O 0.6707(5) 0.2293(16) 0.2609(4)
O17 O 0.6795(4) 0.1139(10) 0.7216(3)
O20 O 0.7306(4) 0.7271(14) 0.2778(3)
O22 O 0.7019(4) -0.0370(10) 0.7865(2)
O24 O 0.6597(3) 0.4429(9) 0.3060(3)
O25 O 0.4255(3) 0.8974(7) 0.3198(2)
O27 O 0.9951(3) 0.4483(6) 0.68642(17)
O30 O 0.6442(2) 0.8685(6) 0.61011(19)
O32 O 0.4974(3) -0.0297(6) 0.26403(19)
O34 O 0.7750(12) -0.179(3) 0.6788(9)
O36 O 0.7835(6) -0.1707(14) 0.7577(5)
O39 O 1.1309(5) 0.8144(12) 0.6007(3)
N11 N 1.1565(5) 0.6729(13) 0.6490(4)
C79 C 1.1174(6) 0.7166(14) 0.6200(5)
H55 H 1.0826 0.6805 0.6136
C80 C 1.2119(5) 0.7283(15) 0.6576(5)
H56 H 1.2120 0.8014 0.6430
H57 H 1.2399 0.6768 0.6489
H58 H 1.2201 0.7429 0.6865
C81 C 1.1543(7) 0.5627(13) 0.6736(5)
H59 H 1.1179 0.5273 0.6677
H60 H 1.1613 0.5813 0.7023
H61 H 1.1824 0.5088 0.6667
N1 N 0.3707(3) 0.6639(6) 0.3969(2)
N2 N 0.3661(3) 0.5197(6) 0.3546(2)
N3 N 0.4368(3) 0.3864(6) 0.34558(19)
N4 N 0.5141(3) 0.2688(6) 0.3413(2)
N5 N 0.5971(3) 0.2920(6) 0.3737(2)
C1 C 0.3826(3) 0.7214(7) 0.4708(3)
C2 C 0.3940(3) 0.7509(7) 0.4276(3)
H1 H 0.3781 0.8275 0.4201
H2 H 0.4343 0.7560 0.4272
C3 C 0.4011(3) 0.5851(8) 0.3797(2)
H3 H 0.4400 0.5771 0.3843
C4 C 0.3148(3) 0.6484(9) 0.3813(3)
H4 H 0.2845 0.6923 0.3881
C5 C 0.3122(3) 0.5597(8) 0.3551(3)
H5 H 0.2800 0.5301 0.3398
C6 C 0.3841(3) 0.4157(7) 0.3336(2)
C7 C 0.3482(3) 0.3564(8) 0.3048(2)
H6 H 0.3114 0.3814 0.2975
C8 C 0.3690(4) 0.2593(8) 0.2874(3)
H7 H 0.3462 0.2163 0.2678
C9 C 0.4244(4) 0.2246(8) 0.2992(3)
H8 H 0.4395 0.1582 0.2881
C10 C 0.4555(3) 0.2928(7) 0.3277(2)
C11 C 0.5469(3) 0.3413(8) 0.3661(2)
H9 H 0.5362 0.4132 0.3763
C12 C 0.5446(4) 0.1715(8) 0.3323(3)
H10 H 0.5319 0.1088 0.3155
C13 C 0.5968(4) 0.1852(8) 0.3528(3)
H11 H 0.6267 0.1332 0.3529
C14 C 0.6428(3) 0.3398(9) 0.4033(3)
H12 H 0.6459 0.4239 0.3991
H13 H 0.6780 0.3037 0.3987
C15 C 0.6323(3) 0.3172(7) 0.4471(2)
C16 C 0.6086(3) 0.2147(7) 0.4588(3)
H14 H 0.5973 0.1576 0.4392
C17 C 0.3987(3) 0.8048(7) 0.5011(2)
H15 H 0.4147 0.8752 0.4939
C18 C 0.6477(3) 0.4035(7) 0.4767(2)
H16 H 0.6627 0.4746 0.4692
C19 C 0.3595(3) 0.6176(8) 0.4826(3)
H17 H 0.3485 0.5605 0.4630
N1B N 0.6293(3) 0.3361(6) 0.6031(2)
N2B N 0.6339(3) 0.4803(6) 0.6454(2)
N3B N 0.5632(3) 0.6136(6) 0.65442(19)
N4B N 0.4859(3) 0.7312(6) 0.6587(2)
N5B N 0.4029(3) 0.7080(6) 0.6263(2)
C1B C 0.6174(3) 0.2786(7) 0.5292(3)
C2B C 0.6060(3) 0.2491(7) 0.5724(3)
H1B H 0.6219 0.1725 0.5799
H2B H 0.5657 0.2440 0.5728
C3B C 0.5989(3) 0.4149(8) 0.6203(2)
H3B H 0.5600 0.4229 0.6157
C4B C 0.6852(3) 0.3516(9) 0.6187(3)
H4B H 0.7155 0.3077 0.6119
C5B C 0.6878(3) 0.4403(8) 0.6449(3)
H5B H 0.7200 0.4699 0.6602
C6B C 0.6159(3) 0.5843(7) 0.6664(2)
C7B C 0.6518(3) 0.6436(8) 0.6952(2)
H6B H 0.6886 0.6186 0.7025
C8B C 0.6310(4) 0.7407(8) 0.7126(3)
H7B H 0.6538 0.7837 0.7322
C9B C 0.5756(4) 0.7754(8) 0.7008(3)
H8B H 0.5605 0.8418 0.7119
C10B C 0.5445(3) 0.7072(7) 0.6723(2)
C11B C 0.4531(3) 0.6587(8) 0.6339(2)
H9B H 0.4638 0.5868 0.6237
C12B C 0.4554(4) 0.8285(8) 0.6677(3)
H10B H 0.4681 0.8912 0.6845
C13B C 0.4032(4) 0.8148(8) 0.6472(3)
H11B H 0.3733 0.8668 0.6471
C14B C 0.3572(3) 0.6602(9) 0.5967(3)
H12B H 0.3541 0.5761 0.6009
H13B H 0.3220 0.6963 0.6013
C15B C 0.3677(3) 0.6828(7) 0.5529(2)
C16B C 0.3914(3) 0.7853(7) 0.5412(3)
H14B H 0.4027 0.8424 0.5608
C17B C 0.6013(3) 0.1952(7) 0.4989(2)
H15B H 0.5853 0.1248 0.5061
C18B C 0.3523(3) 0.5965(7) 0.5233(2)
H16B H 0.3373 0.5254 0.5308
C19B C 0.6405(3) 0.3824(8) 0.5174(3)
H17B H 0.6515 0.4395 0.5370
N6 N 0.8823(3) -0.1852(7) 0.6160(3)
N7 N 0.9596(3) -0.1993(7) 0.6568(2)
N8 N 1.0368(3) -0.0789(6) 0.6591(2)
N9 N 1.1107(3) 0.0476(7) 0.6555(2)
N10 N 1.1159(3) 0.1880(7) 0.6124(3)
C20 C 0.8415(3) -0.1437(9) 0.5818(3)
H18 H 0.8382 -0.0588 0.5835
H19 H 0.8050 -0.1773 0.5845
C21 C 0.9302(3) -0.1324(8) 0.6280(3)
H20 H 0.9419 -0.0609 0.6182
C22 C 0.8795(5) -0.2885(9) 0.6364(4)
H21 H 0.8502 -0.3426 0.6329
C23 C 0.9279(4) -0.2983(9) 0.6631(4)
H22 H 0.9375 -0.3589 0.6817
C24 C 1.0141(4) -0.1706(8) 0.6757(3)
C25 C 1.0413(4) -0.2354(9) 0.7083(3)
H23 H 1.0241 -0.3002 0.7186
C26 C 1.0943(4) -0.2009(11) 0.7247(3)
H24 H 1.1134 -0.2420 0.7466
C27 C 1.1195(4) -0.1030(9) 0.7081(3)
H25 H 1.1549 -0.0759 0.7187
C28 C 1.0889(3) -0.0508(8) 0.6757(2)
C29 C 1.0814(3) 0.1158(8) 0.6271(3)
H26 H 1.0429 0.1120 0.6192
C30 C 1.1666(4) 0.0836(12) 0.6590(5)
H27 H 1.1961 0.0535 0.6770
C31 C 1.1699(5) 0.1699(12) 0.6315(5)
H28 H 1.2021 0.2097 0.6263
C32 C 1.0998(5) 0.2731(10) 0.5797(4)
H29 H 1.1174 0.3481 0.5872
H30 H 1.0594 0.2845 0.5769
C33 C 1.1167(4) 0.2335(8) 0.5379(3)
C34 C 1.1039(4) 0.3122(8) 0.5056(3)
H31 H 1.0870 0.3838 0.5102
C35 C 1.1163(4) 0.2842(8) 0.4661(3)
H32 H 1.1075 0.3371 0.4447
C36 C 0.8581(3) -0.1763(8) 0.5410(3)
C37 C 0.8460(4) -0.0991(9) 0.5079(3)
H33 H 0.8293 -0.0270 0.5121
C38 C 1.1417(4) 0.1275(9) 0.5310(4)
H34 H 1.1504 0.0748 0.5525
N6B N 1.1177(3) 0.1852(7) 0.3840(3)
N7B N 1.0404(3) 0.1993(7) 0.3432(2)
N8B N 0.9632(3) 0.0789(6) 0.3409(2)
N9B N 0.8893(3) -0.0476(7) 0.3445(2)
N10B N 0.8841(3) -0.1880(7) 0.3876(3)
C20B C 1.1585(3) 0.1437(9) 0.4182(3)
H18B H 1.1618 0.0588 0.4165
H19B H 1.1950 0.1773 0.4155
C21B C 1.0698(3) 0.1324(8) 0.3720(3)
H20B H 1.0581 0.0609 0.3818
C22B C 1.1205(5) 0.2885(9) 0.3636(4)
H21B H 1.1498 0.3426 0.3671
C23B C 1.0721(4) 0.2983(9) 0.3369(4)
H22B H 1.0625 0.3589 0.3183
C24B C 0.9859(4) 0.1706(8) 0.3243(3)
C25B C 0.9587(4) 0.2354(9) 0.2917(3)
H23B H 0.9759 0.3002 0.2814
C26B C 0.9057(4) 0.2009(11) 0.2753(3)
H24B H 0.8866 0.2420 0.2534
C27B C 0.8805(4) 0.1030(9) 0.2919(3)
H25B H 0.8451 0.0759 0.2813
C28B C 0.9111(3) 0.0508(8) 0.3243(2)
C29B C 0.9186(3) -0.1158(8) 0.3729(3)
H26B H 0.9571 -0.1120 0.3808
C30B C 0.8334(4) -0.0836(12) 0.3410(5)
H27B H 0.8039 -0.0535 0.3230
C31B C 0.8301(5) -0.1699(12) 0.3685(5)
H28B H 0.7979 -0.2097 0.3737
C32B C 0.9002(5) -0.2731(10) 0.4203(4)
H29B H 0.8826 -0.3481 0.4128
H30B H 0.9406 -0.2845 0.4231
C33B C 0.8833(4) -0.2335(8) 0.4621(3)
C34B C 0.8961(4) -0.3122(8) 0.4944(3)
H31B H 0.9130 -0.3838 0.4898
C35B C 0.8837(4) -0.2842(8) 0.5339(3)
H32B H 0.8925 -0.3371 0.5553
C36B C 1.1419(3) 0.1763(8) 0.4590(3)
C37B C 1.1540(4) 0.0991(9) 0.4921(3)
H33B H 1.1707 0.0270 0.4879
C38B C 0.8583(4) -0.1275(9) 0.4690(4)
H34B H 0.8496 -0.0748 0.4475
loop_
_geom_bond_atom_site_label_1
_geom_bond_atom_site_label_2
_geom_bond_site_symmetry_1
_geom_bond_site_symmetry_2
Sm1 O1 1_555 1_555
Sm2 O4 1_555 1_555
O2 Sm1 1_555 1_555
O3 Sm1 1_555 1_555
O5 Sm1 1_555 1_555
O7 Sm1 1_555 1_555
O9 Sm1 1_555 1_555
O11 C47 1_555 1_555
O13 Sm1 1_555 1_555
O15 C51 1_555 1_555
O18 Sm2 1_555 1_555
O19 C58 1_555 1_555
O21 Sm1 1_555 1_555
O23 C59 1_555 1_555
O26 C66 1_555 1_555
O28 C66 1_555 1_555
O29 C67 1_555 1_555
O31 C67 1_555 1_555
O33 Sm2 1_555 1_555
O35 Sm2 1_555 1_555
O37 Sm2 1_555 1_555
O38 C75 1_555 1_555
O39 C79 1_555 1_555
N1 C2 1_555 1_555
N2 C3 1_555 1_555
N3 C6 1_555 1_555
N4 C10 1_555 1_555
N5 C11 1_555 1_555
N6 C20 1_555 1_555
N7 C21 1_555 1_555
N8 C24 1_555 1_555
N9 C28 1_555 1_555
N10 C29 1_555 1_555
N11 C79 1_555 1_555
C1 C2 1_555 1_555
C2 H1 1_555 1_555
H2 C2 1_555 1_555
C3 N1 1_555 1_555
H3 C3 1_555 1_555
C4 N1 1_555 1_555
H4 C4 1_555 1_555
C5 N2 1_555 1_555
H5 C5 1_555 1_555
C6 N2 1_555 1_555
C7 C6 1_555 1_555
H6 C7 1_555 1_555
C8 C7 1_555 1_555
H7 C8 1_555 1_555
C9 C8 1_555 1_555
H8 C9 1_555 1_555
C10 N3 1_555 1_555
C11 N4 1_555 1_555
H9 C11 1_555 1_555
C12 N4 1_555 1_555
H10 C12 1_555 1_555
C13 N5 1_555 1_555
H11 C13 1_555 1_555
C14 N5 1_555 1_555
H12 C14 1_555 1_555
H13 C14 1_555 1_555
C15 C14 1_555 1_555
C16 C15 1_555 1_555
H14 C16 1_555 1_555
C17 C1 1_555 1_555
H15 C17 1_555 1_555
C18 C15 1_555 1_555
H16 C18 1_555 1_555
C19 C1 1_555 1_555
H17 C19 1_555 1_555
C20 H18 1_555 1_555
H19 C20 1_555 1_555
C21 N6 1_555 1_555
H20 C21 1_555 1_555
C22 N6 1_555 1_555
H21 C22 1_555 1_555
C23 N7 1_555 1_555
H22 C23 1_555 1_555
C24 N7 1_555 1_555
C25 C24 1_555 1_555
H23 C25 1_555 1_555
C26 C25 1_555 1_555
H24 C26 1_555 1_555
C27 C26 1_555 1_555
H25 C27 1_555 1_555
C28 N8 1_555 1_555
C29 N9 1_555 1_555
H26 C29 1_555 1_555
C30 N9 1_555 1_555
H27 C30 1_555 1_555
C31 N10 1_555 1_555
H28 C31 1_555 1_555
C32 N10 1_555 1_555
H29 C32 1_555 1_555
H30 C32 1_555 1_555
C33 C32 1_555 1_555
C34 C33 1_555 1_555
H31 C34 1_555 1_555
C35 C34 1_555 1_555
H32 C35 1_555 1_555
C36 C20 1_555 1_555
C37 C36 1_555 1_555
H33 C37 1_555 1_555
C38 C33 1_555 1_555
H34 C38 1_555 1_555
C39 O2 1_555 1_555
C40 C39 1_555 1_555
C41 C40 1_555 1_555
H35 C41 1_555 1_555
C42 C40 1_555 1_555
H36 C42 1_555 1_555
C43 O5 1_555 1_555
C44 C43 1_555 1_555
C45 C44 1_555 1_555
H37 C45 1_555 1_555
C46 C44 1_555 1_555
H38 C46 1_555 1_555
C47 O9 1_555 1_555
C48 C47 1_555 1_555
C49 C48 1_555 1_555
H39 C49 1_555 1_555
C50 C48 1_555 1_555
H40 C50 1_555 1_555
C51 O13 1_555 1_555
C52 C51 1_555 1_555
C53 C52 1_555 1_555
H41 C53 1_555 1_555
C54 C53 1_555 1_555
H42 C54 1_555 1_555
C55 C54 1_555 1_555
C56 C55 1_555 1_555
H43 C56 1_555 1_555
C57 C52 1_555 1_555
H44 C57 1_555 1_555
C58 O18 1_555 1_555
C59 O21 1_555 1_555
C60 C59 1_555 1_555
C61 C60 1_555 1_555
H45 C61 1_555 1_555
C62 C61 1_555 1_555
H46 C62 1_555 1_555
C63 C62 1_555 1_555
C64 C63 1_555 1_555
H47 C64 1_555 1_555
C65 C60 1_555 1_555
H48 C65 1_555 1_555
C66 C63 1_555 1_555
C67 C68 1_555 1_555
C68 C69 1_555 1_555
C69 C41 1_555 1_555
H49 C69 1_555 1_555
C70 C42 1_555 1_555
H50 C70 1_555 1_555
C71 O33 1_555 1_555
C72 C71 1_555 1_555
C73 C72 1_555 1_555
H51 C73 1_555 1_555
C74 C72 1_555 1_555
H52 C74 1_555 1_555
C75 O37 1_555 1_555
C76 C75 1_555 1_555
C77 C76 1_555 1_555
H53 C77 1_555 1_555
C78 C76 1_555 1_555
H54 C78 1_555 1_555
C79 H55 1_555 1_555
C80 N11 1_555 1_555
H56 C80 1_555 1_555
H57 C80 1_555 1_555
H58 C80 1_555 1_555
C81 N11 1_555 1_555
H59 C81 1_555 1_555
H60 C81 1_555 1_555
H61 C81 1_555 1_555
Sm1B O1B 1_555 1_555
Sm1B_2 O9B 1_555 1_555
Sm1_2 O21_2 1_555 1_555
Sm1C O2C 1_555 1_555
Sm2_2 O26 1_555 1_555
Sm2C O29 1_555 1_555
Sm2B O33B 1_555 1_555
Sm2B_2 O37B 1_555 1_555
Sm2B_3 O18B 1_555 1_555
O2C C39C 1_555 1_555
O2B Sm1B 1_555 1_555
O3C Sm1C 1_555 1_555
O3B Sm1B 1_555 1_555
O4_2 Sm2_2 1_555 1_555
O5B Sm1B 1_555 1_555
O7B Sm1B 1_555 1_555
O9B C47B 1_555 1_555
O9B_2 Sm1B 1_555 1_555
O11B C47B 1_555 1_555
O13B Sm1B 1_555 1_555
O15B C51B 1_555 1_555
O18B C58B 1_555 1_555
O18_2 Sm2_2 1_555 1_555
O19B C58B 1_555 1_555
O21_2 C59_2 1_555 1_555
O21B Sm1B 1_555 1_555
O23_2 C59_2 1_555 1_555
O26_2 Sm2 1_555 1_555
O28_2 C66_2 1_555 1_555
O29C Sm2 1_555 1_555
O29C_2 Sm2_2 1_555 1_555
O31C Sm2 1_555 1_555
O31C_2 Sm2_2 1_555 1_555
O33B C71B 1_555 1_555
O33_2 Sm2_2 1_555 1_555
O35B Sm2B 1_555 1_555
O35_2 Sm2_2 1_555 1_555
O37B C75B 1_555 1_555
O37_2 Sm2_2 1_555 1_555
O38B C75B 1_555 1_555
N1B C2B 1_555 1_555
N2B C3B 1_555 1_555
N3B C6B 1_555 1_555
N4B C10B 1_555 1_555
N5B C11B 1_555 1_555
N6B C20B 1_555 1_555
N7B C21B 1_555 1_555
N8B C24B 1_555 1_555
N9B C28B 1_555 1_555
N10B C29B 1_555 1_555
C1B C2B 1_555 1_555
C2B H1B 1_555 1_555
H2B C2B 1_555 1_555
C3B N1B 1_555 1_555
H3B C3B 1_555 1_555
C4B N1B 1_555 1_555
H4B C4B 1_555 1_555
C5B N2B 1_555 1_555
H5B C5B 1_555 1_555
C6B N2B 1_555 1_555
C7B C6B 1_555 1_555
H6B C7B 1_555 1_555
C8B C7B 1_555 1_555
H7B C8B 1_555 1_555
C9B C8B 1_555 1_555
H8B C9B 1_555 1_555
C10B N3B 1_555 1_555
C11B N4B 1_555 1_555
H9B C11B 1_555 1_555
C12B N4B 1_555 1_555
H10B C12B 1_555 1_555
C13B N5B 1_555 1_555
H11B C13B 1_555 1_555
C14B N5B 1_555 1_555
H12B C14B 1_555 1_555
H13B C14B 1_555 1_555
C15B C14B 1_555 1_555
C16B C17 1_555 1_555
H14B C16B 1_555 1_555
C17B C16 1_555 1_555
H15B C17B 1_555 1_555
C18B C19 1_555 1_555
H16B C18B 1_555 1_555
C19B C18 1_555 1_555
H17B C19B 1_555 1_555
C20B H18B 1_555 1_555
H19B C20B 1_555 1_555
C21B N6B 1_555 1_555
H20B C21B 1_555 1_555
C22B N6B 1_555 1_555
H21B C22B 1_555 1_555
C23B N7B 1_555 1_555
H22B C23B 1_555 1_555
C24B N7B 1_555 1_555
C25B C24B 1_555 1_555
H23B C25B 1_555 1_555
C26B C25B 1_555 1_555
H24B C26B 1_555 1_555
C27B C26B 1_555 1_555
H25B C27B 1_555 1_555
C28B N8B 1_555 1_555
C29B N9B 1_555 1_555
H26B C29B 1_555 1_555
C30B N9B 1_555 1_555
H27B C30B 1_555 1_555
C31B N10B 1_555 1_555
H28B C31B 1_555 1_555
C32B N10B 1_555 1_555
H29B C32B 1_555 1_555
H30B C32B 1_555 1_555
C33B C32B 1_555 1_555
C34B C33B 1_555 1_555
H31B C34B 1_555 1_555
C35B C36 1_555 1_555
H32B C35B 1_555 1_555
C36B C35 1_555 1_555
C37B C38 1_555 1_555
H33B C37B 1_555 1_555
C38B C37 1_555 1_555
H34B C38B 1_555 1_555
C39C O3C 1_555 1_555
C40C C39C 1_555 1_555
C41C C40C 1_555 1_555
H35C C41C 1_555 1_555
C42C C40C 1_555 1_555
H36C C42C 1_555 1_555
C43B O5B 1_555 1_555
C44B C43B 1_555 1_555
C45B C46 1_555 1_555
H37B C45B 1_555 1_555
C46B C45 1_555 1_555
H38B C46B 1_555 1_555
C47B C48B 1_555 1_555
C48B C49B 1_555 1_555
C49B C50 1_555 1_555
H39B C49B 1_555 1_555
C50B C49 1_555 1_555
H40B C50B 1_555 1_555
C51B O13B 1_555 1_555
C52B C51B 1_555 1_555
C53B C52B 1_555 1_555
H41B C53B 1_555 1_555
C54B C53B 1_555 1_555
H42B C54B 1_555 1_555
C55B C54B 1_555 1_555
C56B C55B 1_555 1_555
H43B C56B 1_555 1_555
C57B C52B 1_555 1_555
H44B C57B 1_555 1_555
C58B C55B 1_555 1_555
C59_2 C60_2 1_555 1_555
C60_2 C61_2 1_555 1_555
C61_2 H45_2 1_555 1_555
C62_2 C61_2 1_555 1_555
H46_2 C62_2 1_555 1_555
C63_2 C62_2 1_555 1_555
C64_2 C63_2 1_555 1_555
H47_2 C64_2 1_555 1_555
C65_2 C60_2 1_555 1_555
H48_2 C65_2 1_555 1_555
C66_2 O26_2 1_555 1_555
C67C O29C 1_555 1_555
C68C C67C 1_555 1_555
C69C C41C 1_555 1_555
H49C C69C 1_555 1_555
C70C C42C 1_555 1_555
H50C C70C 1_555 1_555
C71B O35B 1_555 1_555
C72B C71B 1_555 1_555
C73B C74 1_555 1_555
H51B C73B 1_555 1_555
C74B C73 1_555 1_555
H52B C74B 1_555 1_555
C75B C76B 1_555 1_555
C76B C77B 1_555 1_555
C77B C78 1_555 1_555
H53B C77B 1_555 1_555
C78B C77 1_555 1_555
H54B C78B 1_555 1_555
O3 C39 1_555 1_555
O7 C43 1_555 1_555
O31 Sm2C 1_555 1_555
O35 C71 1_555 1_555
C4 C5 1_555 1_555
C9 C10 1_555 1_555
C12 C13 1_555 1_555
C22 C23 1_555 1_555
C27 C28 1_555 1_555
C30 C31 1_555 1_555
C55 C58 1_555 1_555
C56 C57 1_555 1_555
C64 C65 1_555 1_555
C68 C70 1_555 1_555
O7B C43B 1_555 1_555
O31C C67C 1_555 1_555
C1B C17B 1_555 1_555
C1B C19B 1_555 1_555
C4B C5B 1_555 1_555
C9B C10B 1_555 1_555
C12B C13B 1_555 1_555
C15B C16B 1_555 1_555
C15B C18B 1_555 1_555
C20B C36B 1_555 1_555
C22B C23B 1_555 1_555
C27B C28B 1_555 1_555
C30B C31B 1_555 1_555
C33B C38B 1_555 1_555
C34B C35B 1_555 1_555
C36B C37B 1_555 1_555
C44B C45B 1_555 1_555
C44B C46B 1_555 1_555
C48B C50B 1_555 1_555
C56B C57B 1_555 1_555
C63_2 C66_2 1_555 1_555
C64_2 C65_2 1_555 1_555
C68C C69C 1_555 1_555
C68C C70C 1_555 1_555
C72B C73B 1_555 1_555
C72B C74B 1_555 1_555
C76B C78B 1_555 1_555

#END
