
#######################################################################
#
#                 Cambridge Crystallographic Data Centre
#                                CCDC 
#
#######################################################################
#
# If this CIF has been generated from an entry in the Cambridge 
# Structural Database, then it will include bibliographic, chemical, 
# crystal, experimental, refinement or atomic coordinate data resulting 
# from the CCDC's data processing and validation procedures.
#
#######################################################################

data_ZEDVIP
_symmetry_cell_setting           monoclinic
_symmetry_space_group_name_H-M   'P 21/c'
_symmetry_Int_Tables_number      14
_space_group_name_Hall           '-P 2ybc'
loop_
_symmetry_equiv_pos_site_id
_symmetry_equiv_pos_as_xyz
1 x,y,z
2 -x,1/2+y,1/2-z
3 -x,-y,-z
4 x,1/2-y,1/2+z
_cell_length_a                   23.198(5)
_cell_length_b                   15.455(3)
_cell_length_c                   34.046(10)
_cell_angle_alpha                90
_cell_angle_beta                 130.442(19)
_cell_angle_gamma                90
_cell_volume                     9289.8
loop_
_atom_site_label
_atom_site_type_symbol
_atom_site_fract_x
_atom_site_fract_y
_atom_site_fract_z
N1 N 0.2262(5) 0.4929(6) 0.2802(4)
N2 N 0.3013(5) 0.4413(7) 0.2693(4)
N3 N 0.3217(5) 0.3012(6) 0.2620(3)
N4 N 0.3344(4) 0.1526(6) 0.2576(3)
N5 N 0.2712(5) 0.0469(6) 0.2533(3)
N6 N 0.2183(6) 0.0352(5) 0.4465(4)
N7 N 0.1463(5) 0.1046(6) 0.4576(3)
N8 N 0.1541(5) 0.2425(6) 0.4815(3)
N9 N 0.1679(5) 0.3880(5) 0.5027(4)
N10 N 0.2379(4) 0.4835(5) 0.5050(3)
C1 C 0.2453(6) 0.4212(8) 0.2686(5)
H1 H 0.2230 0.3670 0.2614
C2 C 0.2744(7) 0.5605(7) 0.2895(5)
H2 H 0.2741 0.6170 0.2988
C3 C 0.3196(7) 0.5293(9) 0.2827(5)
H3 H 0.3573 0.5596 0.2860
C4 C 0.3386(6) 0.3818(6) 0.2612(4)
C5 C 0.3882(7) 0.4038(9) 0.2550(5)
H4 H 0.3968 0.4620 0.2536
C6 C 0.4259(6) 0.3432(10) 0.2506(5)
H5 H 0.4613 0.3592 0.2474
C7 C 0.4101(6) 0.2550(8) 0.2511(4)
H6 H 0.4336 0.2099 0.2481
C8 C 0.3556(6) 0.2418(7) 0.2565(4)
C9 C 0.2745(5) 0.1315(7) 0.2510(4)
H7 H 0.2393 0.1704 0.2456
C10 C 0.3740(8) 0.0796(10) 0.2622(5)
H8 H 0.4171 0.0760 0.2657
C11 C 0.3303(7) 0.0120(8) 0.2602(5)
H9 H 0.3409 -0.0468 0.2632
C12 C 0.2144(6) 0.0016(6) 0.2511(4)
H10 H 0.2131 -0.0586 0.2424
H11 H 0.1651 0.0266 0.2240
C13 C 0.2303(7) 0.0064(6) 0.3011(5)
C14 C 0.2996(7) -0.0246(6) 0.3481(5)
H12 H 0.3357 -0.0488 0.3476
C15 C 0.3141(7) -0.0195(6) 0.3937(4)
H13 H 0.3600 -0.0387 0.4241
C16 C 0.2598(8) 0.0144(7) 0.3935(6)
C17 C 0.1906(7) 0.0418(6) 0.3489(6)
H14 H 0.1536 0.0627 0.3495
C18 C 0.1783(8) 0.0373(7) 0.3041(5)
H15 H 0.1320 0.0564 0.2739
C19 C 0.2790(8) 0.0156(7) 0.4470(5)
H16 H 0.2992 -0.0407 0.4630
H17 H 0.3190 0.0576 0.4689
C20 C 0.2126(7) 0.1072(8) 0.4665(5)
H18 H 0.2483 0.1514 0.4835
C21 C 0.1553(7) -0.0160(8) 0.4256(5)
H19 H 0.1466 -0.0706 0.4113
C22 C 0.1069(7) 0.0286(7) 0.4299(5)
H20 H 0.0590 0.0116 0.4172
C23 C 0.1214(6) 0.1644(8) 0.4736(5)
C24 C 0.0706(7) 0.1448(7) 0.4780(5)
H21 H 0.0499 0.0898 0.4714
C25 C 0.0493(7) 0.2170(9) 0.4940(5)
H22 H 0.0140 0.2081 0.4983
C26 C 0.0808(7) 0.2983(9) 0.5030(5)
H23 H 0.0672 0.3444 0.5131
C27 C 0.1336(6) 0.3080(7) 0.4964(4)
C28 C 0.2215(5) 0.3978(7) 0.4993(4)
H24 H 0.2435 0.3543 0.4940
C29 C 0.1526(7) 0.4702(7) 0.5130(5)
H25 H 0.1194 0.4826 0.5188
C30 C 0.1936(6) 0.5221(8) 0.5126(4)
H26 H 0.1936 0.5814 0.5172
C31 C 0.2900(6) 0.5195(7) 0.4977(5)
H27 H 0.2997 0.5799 0.5078
H28 H 0.3380 0.4890 0.5202
C32 C 0.2604(7) 0.5127(6) 0.4459(5)
C33 C 0.3045(8) 0.4808(7) 0.4335(6)
H29 H 0.3537 0.4621 0.4599
C34 C 0.2763(7) 0.4769(7) 0.3838(6)
H30 H 0.3076 0.4558 0.3780
C35 C 0.2018(6) 0.5033(7) 0.3403(6)
C36 C 0.1594(7) 0.5363(8) 0.3541(6)
H31 H 0.1109 0.5567 0.3274
C37 C 0.1832(7) 0.5402(7) 0.4014(5)
H32 H 0.1509 0.5606 0.4065
C38 C 0.1691(6) 0.4975(7) 0.2868(5)
H33 H 0.1372 0.5477 0.2683
H34 H 0.1372 0.4465 0.2714
Eu1 Eu 0.45499(3) 0.25785(3) 0.58695(2)
Eu2 Eu 1.02036(3) 0.26500(4) 0.64573(2)
O1 O 0.4127(4) 0.2668(4) 0.5005(3)
O2 O 0.5520(4) 0.2532(5) 0.6812(3)
O3 O 0.3228(4) 0.2629(4) 0.5049(3)
O4 O 1.0195(4) 0.1078(5) 0.6552(4)
O5 O 0.4485(4) 0.1125(4) 0.5692(3)
O6 O 0.9292(4) 0.2332(4) 0.5526(3)
O7 O 0.4871(5) -0.0193(5) 0.6017(3)
O8 O 0.4852(4) 0.4019(4) 0.5903(3)
O9 O 0.5043(5) 0.5405(4) 0.6092(3)
O10 O 0.5699(4) 0.2353(5) 0.6037(3)
O11 O 0.6697(5) 0.2320(6) 0.6871(4)
O12 O 0.9032(4) 0.2479(6) 0.6258(3)
O13 O 0.8025(4) 0.2549(6) 0.5412(4)
O14 O 0.3826(4) 0.3349(4) 0.6080(3)
O15 O 0.3807(4) 0.1960(4) 0.6080(3)
O16 O 0.1148(4) 0.3395(4) 0.6434(3)
O17 O 0.0964(4) 0.2033(4) 0.6257(3)
O18 O 0.0520(4) 0.2579(5) 0.2319(3)
O19 O 0.1472(3) 0.2501(4) 0.2319(3)
O20 O 1.0283(4) 0.4029(5) 0.6830(3)
O21 O 0.9671(4) 0.4098(5) 0.6004(3)
O22 O 1.0643(8) 0.8525(6) 0.7001(6)
O23 O 1.1069(9) 0.8381(7) 0.6605(6)
C39 C 0.3430(5) 0.2656(5) 0.4777(4)
C40 C 0.2865(6) 0.2627(6) 0.4223(4)
C41 C 0.2077(6) 0.2688(6) 0.3959(5)
H35 H 0.1909 0.2738 0.4142
C42 C 0.3098(6) 0.2521(5) 0.3937(5)
H36 H 0.3611 0.2465 0.4106
C43 C 0.4756(6) 0.0377(7) 0.5732(6)
C44 C 0.4861(7) 0.0178(7) 0.5339(5)
C45 C 0.4968(7) -0.0635(7) 0.5253(5)
H37 H 0.4952 -0.1087 0.5427
C46 C 0.4901(7) 0.0830(7) 0.5075(5)
H38 H 0.4839 0.1404 0.5122
C47 C 0.4986(6) 0.4773(7) 0.5846(5)
C48 C 0.5004(5) 0.4906(5) 0.5413(4)
C49 C 0.4867(5) 0.5704(7) 0.5192(4)
H39 H 0.4793 0.6177 0.5324
C50 C 0.5163(5) 0.4186(6) 0.5223(4)
H40 H 0.5286 0.3648 0.5382
C51 C 0.6401(6) 0.2342(7) 0.6400(5)
C52 C 0.6904(6) 0.2369(7) 0.6262(5)
C53 C 0.7695(5) 0.2370(8) 0.6651(5)
H41 H 0.7913 0.2360 0.6996
C54 C 0.8147(6) 0.2384(8) 0.6524(5)
H42 H 0.8670 0.2358 0.6784
C55 C 0.7836(6) 0.2437(7) 0.6018(5)
C56 C 0.7024(5) 0.2446(6) 0.5621(5)
H43 H 0.6809 0.2470 0.5276
C57 C 0.6570(6) 0.2419(6) 0.5739(5)
H44 H 0.6046 0.2433 0.5480
C58 C 0.8344(7) 0.2492(8) 0.5898(6)
C59 C 0.3604(6) 0.2673(7) 0.6130(4)
C60 C 0.3025(5) 0.2708(6) 0.6190(4)
C61 C 0.2796(5) 0.3460(6) 0.6275(4)
H45 H 0.3012 0.3984 0.6296
C62 C 0.2280(6) 0.3455(6) 0.6329(4)
H46 H 0.2148 0.3981 0.6385
C63 C 0.1927(5) 0.2718(6) 0.6308(4)
C64 C 0.2139(5) 0.1944(6) 0.6227(4)
H47 H 0.1912 0.1431 0.6206
C65 C 0.2687(6) 0.1929(6) 0.6177(4)
H48 H 0.2836 0.1402 0.6136
C66 C 0.1300(5) 0.2739(7) 0.6334(4)
C67 C 0.1219(6) 0.2550(6) 0.2550(4)
C68 C 0.1795(6) 0.2593(6) 0.3139(5)
C69 C 0.1555(6) 0.2673(6) 0.3414(5)
H49 H 0.1040 0.2717 0.3238
C70 C 0.2560(6) 0.2498(6) 0.3391(5)
H50 H 0.2718 0.2420 0.3203
C71 C 0.9991(7) 0.4423(8) 0.6433(6)
C72 C 1.0113(6) 0.5402(7) 0.6466(5)
C73 C 1.0215(9) 0.5831(10) 0.6874(6)
H51 H 1.0174 0.5532 0.7092
C74 C 1.0379(8) 0.6714(9) 0.6942(6)
H52 H 1.0403 0.7002 0.7192
C75 C 1.0507(7) 0.7183(8) 0.6662(5)
C76 C 1.0386(7) 0.6710(10) 0.6276(5)
H53 H 1.0427 0.7004 0.6056
C77 C 1.0207(8) 0.5828(9) 0.6175(5)
H54 H 1.0157 0.5552 0.5912
C78 C 1.0715(8) 0.8070(10) 0.6747(7)
Eu1B Eu 0.54501(3) -0.25785(3) 0.41305(2)
Eu1B_2 Eu 0.54501(3) 0.74215(3) 0.41305(2)
Eu1_2 Eu 1.45499(3) 0.25785(3) 0.58695(2)
Eu1C Eu 1.45499(3) 0.24215(3) 1.08695(2)
Eu2_2 Eu 0.02036(3) 0.26500(4) 0.64573(2)
Eu2C Eu 0.02036(3) 0.23500(4) 0.14573(2)
Eu2B Eu -0.02036(3) -0.26500(4) 0.35427(2)
O1C O 1.4127(4) 0.2332(4) 1.0005(3)
O1B O 0.5873(4) -0.2668(4) 0.4995(3)
O2B O 0.4480(4) -0.2532(5) 0.3188(3)
O3C O 1.3228(4) 0.2371(4) 1.0049(3)
O3B O 0.6772(4) -0.2629(4) 0.4951(3)
O4_2 O 0.0195(4) 0.1078(5) 0.6552(4)
O5B O 0.5515(4) -0.1125(4) 0.4308(3)
O6_2 O -0.0708(4) 0.2332(4) 0.5526(3)
O7B O 0.5129(5) 0.0193(5) 0.3983(3)
O8B O 0.5148(4) 0.5981(4) 0.4097(3)
O8B_2 O 0.5148(4) -0.4019(4) 0.4097(3)
O9B O 0.4957(5) 0.4595(4) 0.3908(3)
O10B O 0.4301(4) -0.2353(5) 0.3963(3)
O11B O 0.3303(5) -0.2320(6) 0.3129(4)
O12B O 0.0968(4) -0.2479(6) 0.3742(3)
O12_2 O -0.0968(4) 0.2479(6) 0.6258(3)
O13B O 0.1975(4) -0.2549(6) 0.4588(4)
O14_2 O 1.3826(4) 0.3349(4) 0.6080(3)
O14B O 0.6174(4) -0.3349(4) 0.3920(3)
O15_2 O 1.3807(4) 0.1960(4) 0.6080(3)
O15B O 0.6193(4) -0.1960(4) 0.3920(3)
O16_2 O 1.1148(4) 0.3395(4) 0.6434(3)
O17_2 O 1.0964(4) 0.2033(4) 0.6257(3)
O18C O 1.0520(4) 0.2421(5) 0.7319(3)
O18C_2 O 0.0520(4) 0.2421(5) 0.7319(3)
O19C O 1.1472(3) 0.2499(4) 0.7319(3)
O19C_2 O 0.1472(3) 0.2499(4) 0.7319(3)
O20_2 O 0.0283(4) 0.4029(5) 0.6830(3)
O21_2 O -0.0329(4) 0.4098(5) 0.6004(3)
O22_2 O 0.0643(8) 0.8525(6) 0.7001(6)
O23_2 O 0.1069(9) 0.8381(7) 0.6605(6)
C39C C 1.3430(5) 0.2344(5) 0.9777(4)
C40C C 1.2865(6) 0.2373(6) 0.9223(4)
C41C C 1.2077(6) 0.2312(6) 0.8959(5)
H35C H 1.1909 0.2262 0.9142
C42C C 1.3098(6) 0.2479(5) 0.8937(5)
H36C H 1.3611 0.2535 0.9106
C43B C 0.5244(6) -0.0377(7) 0.4268(6)
C44B C 0.5139(7) -0.0178(7) 0.4661(5)
C45B C 0.5032(7) 0.0635(7) 0.4747(5)
H37B H 0.5048 0.1087 0.4573
C46B C 0.5099(7) -0.0830(7) 0.4925(5)
H38B H 0.5161 -0.1404 0.4878
C47B C 0.5014(6) 0.5227(7) 0.4154(5)
C48B C 0.4996(5) 0.5094(5) 0.4587(4)
C49B C 0.5133(5) 0.4296(7) 0.4808(4)
H39B H 0.5207 0.3823 0.4676
C50B C 0.4837(5) 0.5814(6) 0.4777(4)
H40B H 0.4714 0.6352 0.4618
C51B C 0.3599(6) -0.2342(7) 0.3600(5)
C52B C 0.3096(6) -0.2369(7) 0.3738(5)
C53B C 0.2305(5) -0.2370(8) 0.3349(5)
H41B H 0.2087 -0.2360 0.3004
C54B C 0.1853(6) -0.2384(8) 0.3476(5)
H42B H 0.1330 -0.2358 0.3216
C55B C 0.2164(6) -0.2437(7) 0.3982(5)
C56B C 0.2976(5) -0.2446(6) 0.4379(5)
H43B H 0.3191 -0.2470 0.4724
C57B C 0.3430(6) -0.2419(6) 0.4261(5)
H44B H 0.3954 -0.2433 0.4520
C58B C 0.1656(7) -0.2492(8) 0.4102(6)
C59_2 C 1.3604(6) 0.2673(7) 0.6130(4)
C60_2 C 1.3025(5) 0.2708(6) 0.6190(4)
C61_2 C 1.2796(5) 0.3460(6) 0.6275(4)
H45_2 H 1.3012 0.3984 0.6296
C62_2 C 1.2280(6) 0.3455(6) 0.6329(4)
H46_2 H 1.2148 0.3981 0.6385
C63_2 C 1.1927(5) 0.2718(6) 0.6308(4)
C64_2 C 1.2139(5) 0.1944(6) 0.6227(4)
H47_2 H 1.1912 0.1431 0.6206
C65_2 C 1.2687(6) 0.1929(6) 0.6177(4)
H48_2 H 1.2836 0.1402 0.6136
C66_2 C 1.1300(5) 0.2739(7) 0.6334(4)
C67C C 1.1219(6) 0.2450(6) 0.7550(4)
C68C C 1.1795(6) 0.2407(6) 0.8139(5)
C69C C 1.1555(6) 0.2327(6) 0.8414(5)
H49C H 1.1040 0.2283 0.8238
C70C C 1.2560(6) 0.2502(6) 0.8391(5)
H50C H 1.2718 0.2580 0.8203
C71_2 C -0.0009(7) 0.4423(8) 0.6433(6)
C72_2 C 0.0113(6) 0.5402(7) 0.6466(5)
C73_2 C 0.0215(9) 0.5831(10) 0.6874(6)
H51_2 H 0.0174 0.5532 0.7092
C74_2 C 0.0379(8) 0.6714(9) 0.6942(6)
H52_2 H 0.0403 0.7002 0.7192
C75_2 C 0.0507(7) 0.7183(8) 0.6662(5)
C76_2 C 0.0386(7) 0.6710(10) 0.6276(5)
H53_2 H 0.0427 0.7004 0.6056
C77_2 C 0.0207(8) 0.5828(9) 0.6175(5)
H54_2 H 0.0157 0.5552 0.5912
C78_2 C 0.0715(8) 0.8070(10) 0.6747(7)
loop_
_geom_bond_atom_site_label_1
_geom_bond_atom_site_label_2
_geom_bond_site_symmetry_1
_geom_bond_site_symmetry_2
Eu1 O1 1_555 1_555
Eu2 O4 1_555 1_555
O1 C39 1_555 1_555
O2 Eu1 1_555 1_555
O3 Eu1 1_555 1_555
O5 Eu1 1_555 1_555
O6 Eu2 1_555 1_555
O7 C43 1_555 1_555
O8 Eu1 1_555 1_555
O9 C47 1_555 1_555
O10 Eu1 1_555 1_555
O11 C51 1_555 1_555
O12 Eu2 1_555 1_555
O13 C58 1_555 1_555
O14 Eu1 1_555 1_555
O15 Eu1 1_555 1_555
O16 C66 1_555 1_555
O17 C66 1_555 1_555
O18 C67 1_555 1_555
O19 C67 1_555 1_555
O20 Eu2 1_555 1_555
O21 Eu2 1_555 1_555
O22 C78 1_555 1_555
O23 C78 1_555 1_555
N1 C1 1_555 1_555
N2 C1 1_555 1_555
N3 C4 1_555 1_555
N4 C8 1_555 1_555
N5 C9 1_555 1_555
N6 C19 1_555 1_555
N7 C20 1_555 1_555
N8 C23 1_555 1_555
N9 C27 1_555 1_555
N10 C28 1_555 1_555
C1 H1 1_555 1_555
C2 N1 1_555 1_555
H2 C2 1_555 1_555
C3 N2 1_555 1_555
H3 C3 1_555 1_555
C4 N2 1_555 1_555
C5 C4 1_555 1_555
H4 C5 1_555 1_555
C6 C5 1_555 1_555
H5 C6 1_555 1_555
C7 C6 1_555 1_555
H6 C7 1_555 1_555
C8 N3 1_555 1_555
C9 N4 1_555 1_555
H7 C9 1_555 1_555
C10 N4 1_555 1_555
H8 C10 1_555 1_555
C11 N5 1_555 1_555
H9 C11 1_555 1_555
C12 N5 1_555 1_555
H10 C12 1_555 1_555
H11 C12 1_555 1_555
C13 C12 1_555 1_555
C14 C13 1_555 1_555
H12 C14 1_555 1_555
C15 C14 1_555 1_555
H13 C15 1_555 1_555
C16 C15 1_555 1_555
C17 C16 1_555 1_555
H14 C17 1_555 1_555
C18 C13 1_555 1_555
H15 C18 1_555 1_555
C19 C16 1_555 1_555
H16 C19 1_555 1_555
H17 C19 1_555 1_555
C20 N6 1_555 1_555
H18 C20 1_555 1_555
C21 N6 1_555 1_555
H19 C21 1_555 1_555
C22 N7 1_555 1_555
H20 C22 1_555 1_555
C23 N7 1_555 1_555
C24 C23 1_555 1_555
H21 C24 1_555 1_555
C25 C24 1_555 1_555
H22 C25 1_555 1_555
C26 C25 1_555 1_555
H23 C26 1_555 1_555
C27 N8 1_555 1_555
C28 N9 1_555 1_555
H24 C28 1_555 1_555
C29 N9 1_555 1_555
H25 C29 1_555 1_555
C30 N10 1_555 1_555
H26 C30 1_555 1_555
C31 N10 1_555 1_555
H27 C31 1_555 1_555
H28 C31 1_555 1_555
C32 C31 1_555 1_555
C33 C32 1_555 1_555
H29 C33 1_555 1_555
C34 C33 1_555 1_555
H30 C34 1_555 1_555
C35 C34 1_555 1_555
C36 C35 1_555 1_555
H31 C36 1_555 1_555
C37 C32 1_555 1_555
H32 C37 1_555 1_555
C38 N1 1_555 1_555
H33 C38 1_555 1_555
H34 C38 1_555 1_555
C39 O3 1_555 1_555
C40 C39 1_555 1_555
C41 C40 1_555 1_555
H35 C41 1_555 1_555
C42 C40 1_555 1_555
H36 C42 1_555 1_555
C43 O5 1_555 1_555
C44 C43 1_555 1_555
C45 C44 1_555 1_555
H37 C45 1_555 1_555
C46 C44 1_555 1_555
H38 C46 1_555 1_555
C47 O8 1_555 1_555
C48 C47 1_555 1_555
C49 C48 1_555 1_555
H39 C49 1_555 1_555
C50 C48 1_555 1_555
H40 C50 1_555 1_555
C51 O10 1_555 1_555
C52 C51 1_555 1_555
C53 C52 1_555 1_555
H41 C53 1_555 1_555
C54 C53 1_555 1_555
H42 C54 1_555 1_555
C55 C54 1_555 1_555
C56 C55 1_555 1_555
H43 C56 1_555 1_555
C57 C52 1_555 1_555
H44 C57 1_555 1_555
C58 O12 1_555 1_555
C59 O14 1_555 1_555
C60 C59 1_555 1_555
C61 C60 1_555 1_555
H45 C61 1_555 1_555
C62 C61 1_555 1_555
H46 C62 1_555 1_555
C63 C62 1_555 1_555
C64 C63 1_555 1_555
H47 C64 1_555 1_555
C65 C60 1_555 1_555
H48 C65 1_555 1_555
C66 C63 1_555 1_555
C67 C68 1_555 1_555
C68 C69 1_555 1_555
C69 C41 1_555 1_555
H49 C69 1_555 1_555
C70 C42 1_555 1_555
H50 C70 1_555 1_555
C71 O20 1_555 1_555
C72 C71 1_555 1_555
C73 C72 1_555 1_555
H51 C73 1_555 1_555
C74 C73 1_555 1_555
H52 C74 1_555 1_555
C75 C74 1_555 1_555
C76 C75 1_555 1_555
H53 C76 1_555 1_555
C77 C72 1_555 1_555
H54 C77 1_555 1_555
C78 C75 1_555 1_555
Eu1B O1B 1_555 1_555
Eu1B_2 O8B 1_555 1_555
Eu1_2 O14_2 1_555 1_555
Eu1C O1C 1_555 1_555
Eu2_2 O16 1_555 1_555
Eu2C O18 1_555 1_555
Eu2B O12B 1_555 1_555
O1C C39C 1_555 1_555
O2B Eu1B 1_555 1_555
O3C Eu1C 1_555 1_555
O3B Eu1B 1_555 1_555
O4_2 Eu2_2 1_555 1_555
O5B Eu1B 1_555 1_555
O6_2 Eu2_2 1_555 1_555
O7B C43B 1_555 1_555
O8B C47B 1_555 1_555
O8B_2 Eu1B 1_555 1_555
O9B C47B 1_555 1_555
O10B Eu1B 1_555 1_555
O11B C51B 1_555 1_555
O12B C58B 1_555 1_555
O12_2 Eu2_2 1_555 1_555
O13B C58B 1_555 1_555
O14_2 C59_2 1_555 1_555
O14B Eu1B 1_555 1_555
O15_2 Eu1_2 1_555 1_555
O15B Eu1B 1_555 1_555
O16_2 Eu2 1_555 1_555
O17_2 Eu2 1_555 1_555
O18C Eu2 1_555 1_555
O18C_2 Eu2_2 1_555 1_555
O19C Eu2 1_555 1_555
O19C_2 Eu2_2 1_555 1_555
O20_2 Eu2_2 1_555 1_555
O21_2 Eu2_2 1_555 1_555
O22_2 C78_2 1_555 1_555
O23_2 C78_2 1_555 1_555
C39C O3C 1_555 1_555
C40C C39C 1_555 1_555
C41C C40C 1_555 1_555
H35C C41C 1_555 1_555
C42C C40C 1_555 1_555
H36C C42C 1_555 1_555
C43B O5B 1_555 1_555
C44B C43B 1_555 1_555
C45B C46 1_555 1_555
H37B C45B 1_555 1_555
C46B C45 1_555 1_555
H38B C46B 1_555 1_555
C47B C48B 1_555 1_555
C48B C49B 1_555 1_555
C49B C50 1_555 1_555
H39B C49B 1_555 1_555
C50B C49 1_555 1_555
H40B C50B 1_555 1_555
C51B O10B 1_555 1_555
C52B C51B 1_555 1_555
C53B C52B 1_555 1_555
H41B C53B 1_555 1_555
C54B C53B 1_555 1_555
H42B C54B 1_555 1_555
C55B C54B 1_555 1_555
C56B C55B 1_555 1_555
H43B C56B 1_555 1_555
C57B C52B 1_555 1_555
H44B C57B 1_555 1_555
C58B C55B 1_555 1_555
C59_2 O15_2 1_555 1_555
C60_2 C59_2 1_555 1_555
C61_2 C60_2 1_555 1_555
H45_2 C61_2 1_555 1_555
C62_2 C61_2 1_555 1_555
H46_2 C62_2 1_555 1_555
C63_2 C62_2 1_555 1_555
C64_2 C63_2 1_555 1_555
H47_2 C64_2 1_555 1_555
C65_2 C60_2 1_555 1_555
H48_2 C65_2 1_555 1_555
C66_2 O16_2 1_555 1_555
C67C O18C 1_555 1_555
C68C C67C 1_555 1_555
C69C C41C 1_555 1_555
H49C C69C 1_555 1_555
C70C C42C 1_555 1_555
H50C C70C 1_555 1_555
C71_2 O20_2 1_555 1_555
C72_2 C71_2 1_555 1_555
C73_2 C72_2 1_555 1_555
H51_2 C73_2 1_555 1_555
C74_2 C73_2 1_555 1_555
H52_2 C74_2 1_555 1_555
C75_2 C74_2 1_555 1_555
C76_2 C75_2 1_555 1_555
H53_2 C76_2 1_555 1_555
C77_2 C72_2 1_555 1_555
H54_2 C77_2 1_555 1_555
C78_2 C75_2 1_555 1_555
O15 C59 1_555 1_555
O17 Eu2_2 1_555 1_555
O19 Eu2C 1_555 1_555
O21 C71 1_555 1_555
C2 C3 1_555 1_555
C7 C8 1_555 1_555
C10 C11 1_555 1_555
C17 C18 1_555 1_555
C21 C22 1_555 1_555
C26 C27 1_555 1_555
C29 C30 1_555 1_555
C35 C38 1_555 1_555
C36 C37 1_555 1_555
C55 C58 1_555 1_555
C56 C57 1_555 1_555
C64 C65 1_555 1_555
C68 C70 1_555 1_555
C76 C77 1_555 1_555
O17_2 C66_2 1_555 1_555
O19C C67C 1_555 1_555
O21_2 C71_2 1_555 1_555
C44B C45B 1_555 1_555
C44B C46B 1_555 1_555
C48B C50B 1_555 1_555
C56B C57B 1_555 1_555
C63_2 C66_2 1_555 1_555
C64_2 C65_2 1_555 1_555
C68C C69C 1_555 1_555
C68C C70C 1_555 1_555
C76_2 C77_2 1_555 1_555

#END
