
#######################################################################
#
#                 Cambridge Crystallographic Data Centre
#                                CCDC 
#
#######################################################################
#
# If this CIF has been generated from an entry in the Cambridge 
# Structural Database, then it will include bibliographic, chemical, 
# crystal, experimental, refinement or atomic coordinate data resulting 
# from the CCDC's data processing and validation procedures.
#
#######################################################################

data_ZEDYEO
_symmetry_cell_setting           orthorhombic
_symmetry_space_group_name_H-M   'C m c m'
_symmetry_Int_Tables_number      63
_space_group_name_Hall           '-C 2n 2'
loop_
_symmetry_equiv_pos_site_id
_symmetry_equiv_pos_as_xyz
1 x,y,z
2 -x,-y,1/2+z
3 x,-y,-z
4 -x,y,1/2-z
5 1/2+x,1/2+y,z
6 1/2-x,1/2-y,1/2+z
7 1/2+x,1/2-y,-z
8 1/2-x,1/2+y,1/2-z
9 -x,-y,-z
10 x,y,1/2-z
11 -x,y,z
12 x,-y,1/2+z
13 1/2-x,1/2-y,-z
14 1/2+x,1/2+y,1/2-z
15 1/2-x,1/2+y,z
16 1/2+x,1/2-y,1/2+z
_cell_length_a                   31.337(13)
_cell_length_b                   38.203(16)
_cell_length_c                   7.079(3)
_cell_angle_alpha                90
_cell_angle_beta                 90
_cell_angle_gamma                90
_cell_volume                     8474.75
loop_
_atom_site_label
_atom_site_type_symbol
_atom_site_fract_x
_atom_site_fract_y
_atom_site_fract_z
Cu1 Cu 0.0000 0.23816(3) 0.00033(13)
S1 S 0.0000 0.31880(16) -0.2500
S2 S 0.0000 0.15793(13) 0.2500
O1 O 0.0000 0.2818(4) -0.2500
O2 O 0.0000 0.1965(3) 0.2500
N1 N 0.2407(3) 0.38296(18) 0.2500
N2 N 0.07694(18) 0.28138(13) 0.0922(7)
N3 N 0.04445(17) 0.26216(13) 0.1570(6)
N4 N 0.1922(5) 0.5488(3) 0.2500
N5 N 0.2043(5) 0.5836(3) 0.2500
N6 N 0.2484(5) 0.5870(3) 0.2500
N7 N 0.2638(4) 0.5531(3) 0.2500
C1 C 0.2367(4) 0.4196(2) 0.2500
C2 C 0.1977(4) 0.4358(2) 0.2500
H1 H 0.1727 0.4226 0.2500
C3 C 0.1961(5) 0.4720(3) 0.2500
H2 H 0.1695 0.4827 0.2500
C4 C 0.2317(4) 0.4930(2) 0.2500
C5 C 0.2702(5) 0.4772(3) 0.2500
H3 H 0.2950 0.4906 0.2500
C6 C 0.2732(5) 0.4400(3) 0.2500
H4 H 0.2999 0.4294 0.2500
C7 C 0.2298(5) 0.5296(3) 0.2500
C8 C 0.2042(3) 0.3612(2) 0.2500
C9 C 0.1855(3) 0.3503(2) 0.0807(12)
H5 H 0.1961 0.3584 -0.0341
C10 C 0.1517(3) 0.3279(2) 0.0841(10)
H6 H 0.1400 0.3203 -0.0294
C11 C 0.1347(3) 0.3164(2) 0.2500
C12 C 0.0957(3) 0.2930(2) 0.2500
C13 C 0.2814(3) 0.3660(2) 0.2500
C14 C 0.0477(6) 0.1404(4) 0.2500
C15 C 0.0000 0.3399(4) -0.045(4)
N8 N 0.45478(16) 0.28519(13) 0.3435(6)
N9 N 0.42046(17) 0.30078(13) 0.4052(7)
C16 C 0.3010(3) 0.3575(2) 0.4165(12)
H7 H 0.2886 0.3638 0.5309
C17 C 0.3392(3) 0.3395(3) 0.4137(11)
H8 H 0.3517 0.3333 0.5280
C18 C 0.3593(3) 0.3306(2) 0.2500
C19 C 0.3992(3) 0.3113(2) 0.2500
Cu1C Cu 0.0000 0.23816(3) -0.50033(13)
Cu1C_2 Cu 0.0000 0.23816(3) 0.49967(13)
Cu1E Cu 0.5000 0.26184(3) 0.50033(13)
Cu1F Cu 0.5000 0.26184(3) -0.00033(13)
Cu1E_2 Cu -0.5000 0.26184(3) 0.50033(13)
Cu1F_2 Cu -0.5000 0.26184(3) -0.00033(13)
O2_2 O 0.0000 0.1965(3) -0.7500
N1C N -0.2407(3) 0.38296(18) 0.2500
N2I N 0.07694(18) 0.28138(13) 0.4078(7)
N2J N -0.07694(18) 0.28138(13) 0.0922(7)
N2C N -0.07694(18) 0.28138(13) 0.4078(7)
N3I N 0.04445(17) 0.26216(13) 0.3430(6)
N3J N -0.04445(17) 0.26216(13) 0.1570(6)
N3C N -0.04445(17) 0.26216(13) 0.3430(6)
N3C_2 N -0.04445(17) 0.26216(13) -0.6570(6)
N3I_2 N 0.04445(17) 0.26216(13) -0.6570(6)
N4C N -0.1922(5) 0.5488(3) 0.2500
N5C N -0.2043(5) 0.5836(3) 0.2500
N6C N -0.2484(5) 0.5870(3) 0.2500
N7C N -0.2638(4) 0.5531(3) 0.2500
C1C C -0.2367(4) 0.4196(2) 0.2500
C2C C -0.1977(4) 0.4358(2) 0.2500
H1C H -0.1727 0.4226 0.2500
C3C C -0.1961(5) 0.4720(3) 0.2500
H2C H -0.1695 0.4827 0.2500
C4C C -0.2317(4) 0.4930(2) 0.2500
C5C C -0.2702(5) 0.4772(3) 0.2500
H3C H -0.2950 0.4906 0.2500
C6C C -0.2732(5) 0.4400(3) 0.2500
H4C H -0.2999 0.4294 0.2500
C7C C -0.2298(5) 0.5296(3) 0.2500
C8C C -0.2042(3) 0.3612(2) 0.2500
C9I C 0.1855(3) 0.3503(2) 0.4193(12)
C9J C -0.1855(3) 0.3503(2) 0.0807(12)
C9C C -0.1855(3) 0.3503(2) 0.4193(12)
H5I H 0.1961 0.3584 0.5341
H5J H -0.1961 0.3584 -0.0341
H5C H -0.1961 0.3584 0.5341
C10I C 0.1517(3) 0.3279(2) 0.4159(10)
C10J C -0.1517(3) 0.3279(2) 0.0841(10)
C10C C -0.1517(3) 0.3279(2) 0.4159(10)
H6I H 0.1400 0.3203 0.5294
H6J H -0.1400 0.3203 -0.0294
H6C H -0.1400 0.3203 0.5294
C11C C -0.1347(3) 0.3164(2) 0.2500
C12C C -0.0957(3) 0.2930(2) 0.2500
C13C C -0.2814(3) 0.3660(2) 0.2500
C14C C -0.0477(6) 0.1404(4) 0.2500
C15C C 0.0000 0.3399(4) -0.455(4)
N8I N 0.45478(16) 0.28519(13) 0.1565(6)
N8J N -0.45478(16) 0.28519(13) 0.3435(6)
N8C N -0.45478(16) 0.28519(13) 0.1565(6)
N8E N 0.04522(16) 0.21481(13) -0.1565(6)
N8O N -0.04522(16) 0.21481(13) -0.1565(6)
N8F N -0.04522(16) 0.21481(13) -0.3435(6)
N8L N 0.04522(16) 0.21481(13) -0.3435(6)
N9I N 0.42046(17) 0.30078(13) 0.0948(7)
N9J N -0.42046(17) 0.30078(13) 0.4052(7)
N9C N -0.42046(17) 0.30078(13) 0.0948(7)
C16I C 0.3010(3) 0.3575(2) 0.0835(12)
C16J C -0.3010(3) 0.3575(2) 0.4165(12)
C16C C -0.3010(3) 0.3575(2) 0.0835(12)
H7I H 0.2886 0.3638 -0.0309
H7J H -0.2886 0.3638 0.5309
H7C H -0.2886 0.3638 -0.0309
C17I C 0.3392(3) 0.3395(3) 0.0863(11)
C17J C -0.3392(3) 0.3395(3) 0.4137(11)
C17C C -0.3392(3) 0.3395(3) 0.0863(11)
H8I H 0.3517 0.3333 -0.0280
H8J H -0.3517 0.3333 0.5280
H8C H -0.3517 0.3333 -0.0280
C18C C -0.3593(3) 0.3306(2) 0.2500
C19C C -0.3992(3) 0.3113(2) 0.2500
loop_
_geom_bond_atom_site_label_1
_geom_bond_atom_site_label_2
_geom_bond_site_symmetry_1
_geom_bond_site_symmetry_2
Cu1 O1 1_555 1_555
S1 O1 1_555 1_555
S2 O2 1_555 1_555
O1 Cu1C 1_555 1_555
O2 Cu1 1_555 1_555
N1 C1 1_555 1_555
N2 N3 1_555 1_555
N3 Cu1 1_555 1_555
N4 N5 1_555 1_555
N5 N6 1_555 1_555
N6 N7 1_555 1_555
N7 C7 1_555 1_555
C1 C2 1_555 1_555
C2 H1 1_555 1_555
C3 C2 1_555 1_555
H2 C3 1_555 1_555
C4 C3 1_555 1_555
C5 C4 1_555 1_555
H3 C5 1_555 1_555
C6 C1 1_555 1_555
H4 C6 1_555 1_555
C7 N4 1_555 1_555
C8 N1 1_555 1_555
C9 C8 1_555 1_555
H5 C9 1_555 1_555
C10 C9 1_555 1_555
H6 C10 1_555 1_555
C11 C10 1_555 1_555
C12 N2 1_555 1_555
C13 N1 1_555 1_555
C14 S2 1_555 1_555
C15 S1 1_555 1_555
N8 N9 1_555 1_555
N9 C19 1_555 1_555
C16 C13 1_555 1_555
H7 C16 1_555 1_555
C17 C16 1_555 1_555
H8 C17 1_555 1_555
C18 C17 1_555 1_555
C19 C18 1_555 1_555
Cu1C O2_2 1_555 1_555
Cu1C_2 O2 1_555 1_555
Cu1E N8 1_555 1_555
Cu1F N8I 1_555 1_555
Cu1E_2 N8J 1_555 1_555
Cu1F_2 N8C 1_555 1_555
N1C C1C 1_555 1_555
N2I C12 1_555 1_555
N2J N3J 1_555 1_555
N2C N3C 1_555 1_555
N3I N3 1_555 1_555
N3J Cu1 1_555 1_555
N3C Cu1C_2 1_555 1_555
N3C_2 Cu1C 1_555 1_555
N3I_2 Cu1C 1_555 1_555
N4C N5C 1_555 1_555
N5C N6C 1_555 1_555
N6C N7C 1_555 1_555
N7C C7C 1_555 1_555
C1C C2C 1_555 1_555
C2C H1C 1_555 1_555
C3C C2C 1_555 1_555
H2C C3C 1_555 1_555
C4C C3C 1_555 1_555
C5C C4C 1_555 1_555
H3C C5C 1_555 1_555
C6C C1C 1_555 1_555
H4C C6C 1_555 1_555
C7C N4C 1_555 1_555
C8C N1C 1_555 1_555
C9I C8 1_555 1_555
C9J C8C 1_555 1_555
C9C C8C 1_555 1_555
H5I C9I 1_555 1_555
H5J C9J 1_555 1_555
H5C C9C 1_555 1_555
C10I C11 1_555 1_555
C10J C9J 1_555 1_555
C10C C9C 1_555 1_555
H6I C10I 1_555 1_555
H6J C10J 1_555 1_555
H6C C10C 1_555 1_555
C11C C10J 1_555 1_555
C12C N2J 1_555 1_555
C13C N1C 1_555 1_555
C14C S2 1_555 1_555
C15C S1 1_555 1_555
N8I N8 1_555 1_555
N8J N8C 1_555 1_555
N8C N9C 1_555 1_555
N8E Cu1 1_555 1_555
N8O Cu1 1_555 1_555
N8F Cu1C 1_555 1_555
N8L Cu1C 1_555 1_555
N9I C19 1_555 1_555
N9J N8J 1_555 1_555
N9C C19C 1_555 1_555
C16I C13 1_555 1_555
C16J C13C 1_555 1_555
C16C C13C 1_555 1_555
H7I C16I 1_555 1_555
H7J C16J 1_555 1_555
H7C C16C 1_555 1_555
C17I C18 1_555 1_555
C17J C16J 1_555 1_555
C17C C16C 1_555 1_555
H8I C17I 1_555 1_555
H8J C17J 1_555 1_555
H8C C17C 1_555 1_555
C18C C17J 1_555 1_555
C19C N9J 1_555 1_555
C4 C7 1_555 1_555
C5 C6 1_555 1_555
C11 C12 1_555 1_555
Cu1C_2 N3I 1_555 1_555
N2I N3I 1_555 1_555
N2C C12C 1_555 1_555
N3J N3C 1_555 1_555
C4C C7C 1_555 1_555
C5C C6C 1_555 1_555
C9I C10I 1_555 1_555
C10C C11C 1_555 1_555
C11C C12C 1_555 1_555
N8I N9I 1_555 1_555
N8E N8L 1_555 1_555
N8O N8F 1_555 1_555
C16I C17I 1_555 1_555
C17C C18C 1_555 1_555
C18C C19C 1_555 1_555

#END
