
#######################################################################
#
#                 Cambridge Crystallographic Data Centre
#                                CCDC 
#
#######################################################################
#
# If this CIF has been generated from an entry in the Cambridge 
# Structural Database, then it will include bibliographic, chemical, 
# crystal, experimental, refinement or atomic coordinate data resulting 
# from the CCDC's data processing and validation procedures.
#
#######################################################################

data_ZEDZIT
_symmetry_cell_setting           triclinic
_symmetry_space_group_name_H-M   'P -1'
_symmetry_Int_Tables_number      2
_space_group_name_Hall           '-P 1'
loop_
_symmetry_equiv_pos_site_id
_symmetry_equiv_pos_as_xyz
1 x,y,z
2 -x,-y,-z
_cell_length_a                   10.849(3)
_cell_length_b                   14.172(5)
_cell_length_c                   20.208(7)
_cell_angle_alpha                86.734(7)
_cell_angle_beta                 83.852(9)
_cell_angle_gamma                79.093(7)
_cell_volume                     3031.2
loop_
_atom_site_label
_atom_site_type_symbol
_atom_site_fract_x
_atom_site_fract_y
_atom_site_fract_z
Eu1 Eu 0.91444(3) 0.23152(2) 0.198240(16)
Eu2 Eu 0.95526(3) -0.01258(2) 0.352541(17)
Eu3 Eu 1.27052(3) 0.69292(2) 0.308760(16)
Eu4 Eu 1.28967(3) -0.55458(2) 0.174336(16)
O1 O 1.0726(4) 0.4656(3) 0.2028(2)
O2 O 1.2759(5) 0.2798(3) 0.2097(2)
O3 O 1.0539(5) 0.7697(3) 0.3234(2)
O4 O 1.2109(4) -0.3396(3) 0.2046(2)
O5 O 1.1298(4) 0.1762(3) 0.1620(2)
H1 H 1.1351 0.1444 0.1288
O6 O 0.7669(4) 0.0980(3) 0.3462(2)
O7 O 1.4615(4) 0.6368(3) 0.2487(2)
O8 O 1.0682(4) -0.0894(3) 0.4435(2)
H2 H 1.1232 -0.1337 0.4295
O9 O 1.4599(4) 0.5200(3) 0.1788(2)
O10 O 0.7401(4) 0.2179(3) 0.2696(2)
O11 O 1.4706(4) 0.3022(3) 0.1933(2)
O12 O 0.9738(5) 0.3184(4) 0.0937(2)
H3 H 0.9566 0.3764 0.0991
O13 O 0.9104(5) 0.0853(3) 0.1487(2)
O14 O 1.2056(5) -0.4078(3) 0.1104(2)
O15 O 0.7281(4) 0.2934(3) 0.1434(2)
H4 H 0.6654 0.2875 0.1687
O16 O 0.9243(5) 0.3787(3) 0.2335(2)
O17 O 1.2690(5) 0.4618(4) 0.2893(3)
O18 O 0.8601(5) 0.8512(3) 0.3460(3)
O19 O 1.1993(5) 0.5651(3) 0.3684(3)
O20 O 0.8134(5) -0.0184(4) 0.4579(3)
O21 O 0.9566(5) -0.0061(4) 0.2388(2)
C1 C 1.3923(7) 0.2468(5) 0.2096(3)
C2 C 1.4975(6) 0.5929(5) 0.1940(3)
C3 C 0.9708(7) 0.4542(4) 0.2339(3)
C4 C 0.9930(6) -0.0806(4) 0.1345(3)
C5 C 0.7251(6) 0.1834(5) 0.3285(3)
C6 C 1.1052(6) -0.2447(4) 0.1194(3)
C7 C 1.4331(6) 0.1417(4) 0.2251(3)
C8 C 1.0617(6) -0.1648(4) 0.1601(3)
H5 H 1.0794 -0.1687 0.2043
C9 C 0.5653(7) 0.3288(5) 0.3615(3)
H6 H 0.5499 0.3394 0.3171
C10 C 0.6530(6) 0.2506(4) 0.3795(3)
C11 C 0.9512(6) 0.0045(5) 0.1774(4)
C12 C 1.6029(6) 0.6071(4) 0.0790(3)
H7 H 1.5546 0.5648 0.0662
C13 C 0.8954(6) 0.5326(4) 0.2759(3)
C14 C 1.5923(6) 0.6304(4) 0.1451(3)
C15 C 1.0762(6) -0.2366(4) 0.0533(3)
H8 H 1.1029 -0.2890 0.0262
C16 C 1.1785(6) -0.3365(5) 0.1459(3)
C17 C 1.6657(7) 0.6934(5) 0.1644(4)
H9 H 1.6604 0.7094 0.2088
C18 C 1.3433(6) 0.0890(4) 0.2522(3)
H10 H 1.2614 0.1203 0.2645
C19 C 1.1136(6) 0.3354(4) 0.3574(3)
H11 H 1.1349 0.3256 0.3121
C20 C 1.6822(7) 0.6442(5) 0.0320(3)
C21 C 0.8783(6) 0.6889(4) 0.3223(3)
C22 C 0.6798(6) 0.2373(5) 0.4455(3)
H12 H 0.7399 0.1853 0.4580
C23 C 1.1472(6) 0.4127(4) 0.3864(3)
C24 C 0.9462(6) 0.6146(4) 0.2839(3)
H13 H 1.0259 0.6193 0.2633
C25 C 0.9356(8) 0.7750(5) 0.3310(4)
C26 C 1.1227(7) 0.4228(5) 0.4537(3)
H14 H 1.1497 0.4719 0.4737
C27 C 1.0487(6) 0.2734(4) 0.3957(3)
C28 C 1.0095(7) -0.1536(5) 0.0276(3)
H15 H 0.9925 -0.1495 -0.0167
C29 C 1.2105(7) 0.4839(5) 0.3444(4)
C30 C 0.7780(7) 0.5259(5) 0.3078(4)
H16 H 0.7451 0.4706 0.3041
C31 C 0.9667(6) -0.0747(5) 0.0679(3)
H17 H 0.9209 -0.0184 0.0504
C32 C 0.4995(7) 0.3920(5) 0.4085(4)
H18 H 0.4388 0.4436 0.3959
C33 C 1.0204(7) 0.2874(5) 0.4638(3)
H19 H 0.9757 0.2466 0.4899
C34 C 1.5570(7) 0.0954(5) 0.2118(4)
H20 H 1.6184 0.1308 0.1954
C35 C 0.7594(7) 0.6813(5) 0.3522(4)
H21 H 0.7130 0.7316 0.3771
C36 C 1.7549(7) 0.7079(6) 0.0510(4)
H22 H 1.8090 0.7340 0.0194
C37 C 1.0581(8) 0.3607(5) 0.4923(4)
H23 H 1.0402 0.3691 0.5379
C38 C 1.7460(7) 0.7319(5) 0.1172(4)
H24 H 1.7944 0.7741 0.1299
C39 C 1.5901(7) -0.0025(5) 0.2226(4)
H25 H 1.6736 -0.0330 0.2141
N1 N 0.6740(7) -0.0789(6) 0.5295(5)
C40 C 0.7082(7) 0.6006(5) 0.3457(4)
H26 H 0.6285 0.5962 0.3662
C41 C 0.7674(10) -0.0817(8) 0.4887(5)
C42 C 0.6276(11) -0.1534(9) 0.5683(6)
H27 H 0.6619 -0.2140 0.5486
H28 H 0.5373 -0.1421 0.5700
H29 H 0.6523 -0.1545 0.6126
C43 C 0.6186(12) 0.0182(9) 0.5602(6)
H30 H 0.6507 0.0684 0.5339
H31 H 0.6420 0.0175 0.6047
H32 H 0.5283 0.0295 0.5613
C44 C 1.0133(6) 0.1888(5) 0.3660(4)
O22 O 0.9937(5) 0.1202(3) 0.4076(2)
O23 O 1.0043(4) 0.1859(3) 0.3044(2)
C45 C 1.6916(7) 0.6167(5) -0.0397(3)
O24 O 1.6058(4) 0.5785(3) -0.0591(2)
O25 O 1.7845(5) 0.6296(4) -0.0793(2)
C46 C 1.3749(7) -0.0103(5) 0.2612(3)
C47 C 1.2734(7) -0.0669(5) 0.2855(3)
C48 C 1.4981(7) -0.0555(5) 0.2464(4)
H33 H 1.5199 -0.1219 0.2523
O26 O 1.1721(5) -0.0250(3) 0.3128(3)
O27 O 1.3002(5) -0.1558(3) 0.2759(3)
C49 C 0.5249(7) 0.3777(5) 0.4734(4)
H34 H 0.4798 0.4196 0.5050
C50 C 0.6160(6) 0.3026(5) 0.4935(3)
C51 C 0.6490(7) 0.2949(5) 0.5640(3)
O28 O 0.5842(5) 0.3483(4) 0.6067(2)
O29 O 0.7454(5) 0.2366(3) 0.5806(2)
Eu2_2 Eu 0.95526(3) 0.98742(2) 0.352541(17)
Eu3_2 Eu 1.27052(3) -0.30708(2) 0.308760(16)
Eu3A Eu 0.72948(3) 0.30708(2) 0.691240(16)
Eu4_2 Eu 1.28967(3) 0.44542(2) 0.174336(16)
Eu4A Eu 1.71033(3) 0.55458(2) -0.174336(16)
O1_2 O 1.0726(4) -0.5344(3) 0.2028(2)
O2_2 O 1.2759(5) -0.7202(3) 0.2097(2)
O4_2 O 1.2109(4) 0.6604(3) 0.2046(2)
O9_2 O 1.4599(4) -0.4800(3) 0.1788(2)
O11_2 O 1.4706(4) -0.6978(3) 0.1933(2)
O17_2 O 1.2690(5) -0.5382(4) 0.2893(3)
O18_2 O 0.8601(5) -0.1488(3) 0.3460(3)
O24A O 1.3942(4) -0.5785(3) 0.0591(2)
O25A O 1.2155(5) -0.6296(4) 0.0793(2)
O27_2 O 1.3002(5) 0.8442(3) 0.2759(3)
O28A O 1.4158(5) 0.6517(4) 0.3933(2)
O29A O 1.2546(5) 0.7634(3) 0.4194(2)
O30 O 1.2434(7) 0.0703(6) 0.0605(4)
N2 N 1.3545(8) -0.0771(6) 0.0397(5)
C52 C 1.2882(10) -0.0066(8) 0.0811(7)
H35 H 1.2788 -0.0203 0.1267
C53 C 1.4093(11) -0.1695(9) 0.0723(7)
H36 H 1.3917 -0.1655 0.1197
H37 H 1.4989 -0.1827 0.0608
H38 H 1.3729 -0.2202 0.0573
C54 C 1.3688(12) -0.0667(12) -0.0299(7)
H39 H 1.3294 -0.0031 -0.0433
H40 H 1.3300 -0.1131 -0.0487
H41 H 1.4570 -0.0769 -0.0453
O31 O 0.6554(5) 0.3659(4) 0.0239(3)
H42 H 0.6315 0.4301 0.0192
O32 O 0.9515(10) 0.5092(7) 0.0643(5)
H43 H 0.9353 0.5670 0.0830
loop_
_geom_bond_atom_site_label_1
_geom_bond_atom_site_label_2
_geom_bond_site_symmetry_1
_geom_bond_site_symmetry_2
Eu1 O5 1_555 1_555
Eu2 O6 1_555 1_555
Eu3 O3 1_555 1_555
Eu4 O14 1_555 1_555
O1 C3 1_555 1_555
O2 C1 1_555 1_555
O3 C25 1_555 1_555
O4 C16 1_555 1_555
O5 H1 1_555 1_555
O6 C5 1_555 1_555
O7 Eu3 1_555 1_555
O8 Eu2 1_555 1_555
H2 O8 1_555 1_555
O9 C2 1_555 1_555
O10 Eu1 1_555 1_555
O11 C1 1_555 1_555
O12 Eu1 1_555 1_555
H3 O12 1_555 1_555
O13 Eu1 1_555 1_555
O14 C16 1_555 1_555
O15 Eu1 1_555 1_555
H4 O15 1_555 1_555
O16 Eu1 1_555 1_555
O17 C29 1_555 1_555
O18 C25 1_555 1_555
O19 Eu3 1_555 1_555
O20 Eu2 1_555 1_555
O21 Eu2 1_555 1_555
C1 C7 1_555 1_555
C2 O7 1_555 1_555
C3 O16 1_555 1_555
C4 C8 1_555 1_555
C5 O10 1_555 1_555
C6 C8 1_555 1_555
C7 C18 1_555 1_555
C8 H5 1_555 1_555
C9 H6 1_555 1_555
C10 C5 1_555 1_555
C11 O13 1_555 1_555
C12 H7 1_555 1_555
C13 C3 1_555 1_555
C14 C2 1_555 1_555
C15 C6 1_555 1_555
H8 C15 1_555 1_555
C16 C6 1_555 1_555
C17 C14 1_555 1_555
H9 C17 1_555 1_555
C18 H10 1_555 1_555
C19 H11 1_555 1_555
C20 C12 1_555 1_555
C21 C24 1_555 1_555
C22 C10 1_555 1_555
H12 C22 1_555 1_555
C23 C19 1_555 1_555
C24 C13 1_555 1_555
H13 C24 1_555 1_555
C25 C21 1_555 1_555
C26 C23 1_555 1_555
H14 C26 1_555 1_555
C27 C19 1_555 1_555
C28 C15 1_555 1_555
H15 C28 1_555 1_555
C29 O19 1_555 1_555
C30 C13 1_555 1_555
H16 C30 1_555 1_555
C31 C4 1_555 1_555
H17 C31 1_555 1_555
C32 C9 1_555 1_555
H18 C32 1_555 1_555
C33 C27 1_555 1_555
H19 C33 1_555 1_555
C34 C7 1_555 1_555
H20 C34 1_555 1_555
C35 C21 1_555 1_555
H21 C35 1_555 1_555
C36 C20 1_555 1_555
H22 C36 1_555 1_555
C37 C26 1_555 1_555
H23 C37 1_555 1_555
C38 C17 1_555 1_555
H24 C38 1_555 1_555
C39 C34 1_555 1_555
H25 C39 1_555 1_555
N1 C41 1_555 1_555
C40 C30 1_555 1_555
H26 C40 1_555 1_555
C41 O20 1_555 1_555
C42 N1 1_555 1_555
H27 C42 1_555 1_555
H28 C42 1_555 1_555
H29 C42 1_555 1_555
C43 N1 1_555 1_555
H30 C43 1_555 1_555
H31 C43 1_555 1_555
H32 C43 1_555 1_555
C44 C27 1_555 1_555
O22 Eu2 1_555 1_555
O23 Eu1 1_555 1_555
C45 C20 1_555 1_555
O24 C45 1_555 1_555
O25 C45 1_555 1_555
C46 C18 1_555 1_555
C47 C46 1_555 1_555
C48 C39 1_555 1_555
H33 C48 1_555 1_555
O26 Eu2 1_555 1_555
O27 C47 1_555 1_555
C49 C32 1_555 1_555
H34 C49 1_555 1_555
C50 C22 1_555 1_555
C51 C50 1_555 1_555
O28 C51 1_555 1_555
O29 C51 1_555 1_555
O30 C52 1_555 1_555
N2 C52 1_555 1_555
C52 H35 1_555 1_555
C53 N2 1_555 1_555
H36 C53 1_555 1_555
H37 C53 1_555 1_555
H38 C53 1_555 1_555
C54 N2 1_555 1_555
H39 C54 1_555 1_555
H40 C54 1_555 1_555
H41 C54 1_555 1_555
O31 H42 1_555 1_555
O32 H43 1_555 1_555
Eu2_2 O18 1_555 1_555
Eu3_2 O4 1_555 1_555
Eu3A O28 1_555 1_555
Eu4_2 O1 1_555 1_555
Eu4A O24 1_555 1_555
O1_2 Eu4 1_555 1_555
O2_2 Eu4 1_555 1_555
O4_2 Eu3 1_555 1_555
O9_2 Eu4 1_555 1_555
O11_2 Eu4 1_555 1_555
O17_2 Eu4 1_555 1_555
O18_2 Eu2 1_555 1_555
O24A Eu4 1_555 1_555
O25A Eu4 1_555 1_555
O27_2 Eu3 1_555 1_555
O28A Eu3 1_555 1_555
O29A Eu3 1_555 1_555
O2 Eu4_2 1_555 1_555
O9 Eu4_2 1_555 1_555
O11 Eu4_2 1_555 1_555
O17 Eu4_2 1_555 1_555
O21 C11 1_555 1_555
C4 C11 1_555 1_555
C9 C10 1_555 1_555
C12 C14 1_555 1_555
C23 C29 1_555 1_555
C28 C31 1_555 1_555
C33 C37 1_555 1_555
C35 C40 1_555 1_555
C36 C38 1_555 1_555
C44 O22 1_555 1_555
C44 O23 1_555 1_555
O25 Eu4A 1_555 1_555
C46 C48 1_555 1_555
C47 O26 1_555 1_555
O27 Eu3_2 1_555 1_555
C49 C50 1_555 1_555
O29 Eu3A 1_555 1_555

#END
