
#######################################################################
#
#                 Cambridge Crystallographic Data Centre
#                                CCDC 
#
#######################################################################
#
# If this CIF has been generated from an entry in the Cambridge 
# Structural Database, then it will include bibliographic, chemical, 
# crystal, experimental, refinement or atomic coordinate data resulting 
# from the CCDC's data processing and validation procedures.
#
#######################################################################

data_ZEDZOZ
_symmetry_cell_setting           triclinic
_symmetry_space_group_name_H-M   'P -1'
_symmetry_Int_Tables_number      2
_space_group_name_Hall           '-P 1'
loop_
_symmetry_equiv_pos_site_id
_symmetry_equiv_pos_as_xyz
1 x,y,z
2 -x,-y,-z
_cell_length_a                   10.836(3)
_cell_length_b                   14.156(4)
_cell_length_c                   20.139(5)
_cell_angle_alpha                86.706(7)
_cell_angle_beta                 83.875(7)
_cell_angle_gamma                78.990(4)
_cell_volume                     3012.86
loop_
_atom_site_label
_atom_site_type_symbol
_atom_site_fract_x
_atom_site_fract_y
_atom_site_fract_z
O2 O 0.4484(10) 1.0100(7) 0.0663(6)
H8 H 0.5214 1.0173 0.0678
O3 O 0.1578(4) 0.8667(4) 0.0237(2)
H9 H 0.0866 0.8754 0.0433
Gd1 Gd 0.41401(2) 0.732321(18) 0.198168(13)
Gd2 Gd 0.77070(2) 0.193064(18) 0.308852(13)
Gd3 Gd 0.78944(2) -0.054940(18) 0.174120(13)
Gd4 Gd 0.45489(3) 0.487688(19) 0.352538(14)
O4 O 0.6708(4) 0.4742(3) 0.3121(2)
O5 O 0.8002(4) 0.3438(3) 0.2762(2)
O6 O 0.9706(4) 0.8022(3) 0.1931(2)
O7 O 0.7756(4) 0.7801(3) 0.2090(2)
O8 O 0.9609(4) 0.1359(3) 0.24815(19)
O9 O 0.9587(3) 0.0197(3) 0.17864(19)
O10 O 1.1058(4) 0.0789(3) -0.05936(19)
O11 O 1.2848(4) 0.1293(3) -0.0802(2)
O12 O 0.4557(5) 0.4928(4) 0.2387(2)
O13 O 0.4110(4) 0.5856(3) 0.1494(2)
O14 O 0.7068(4) 0.0916(3) 0.1112(2)
O15 O 0.7111(4) 0.1611(3) 0.20569(19)
O16 O 0.0831(4) 0.8481(4) 0.6067(2)
O17 O 0.2469(4) 0.7376(3) 0.5806(2)
O18 O 0.2403(4) 0.7185(3) 0.26981(19)
O19 O 0.2670(3) 0.5980(3) 0.34621(19)
O20 O 0.3623(4) 1.3512(3) 0.3476(3)
O21 O 0.5543(4) 1.2691(3) 0.3235(2)
O22 O 0.5727(3) 0.9655(3) 0.2032(2)
O23 O 0.4237(4) 0.8787(3) 0.2331(2)
O24 O 0.4940(4) 0.6196(3) 0.4060(2)
O25 O 0.7010(5) 1.0650(3) 0.3672(2)
O26 O 0.5035(4) 0.6862(3) 0.3043(2)
O27 O 0.7709(4) 0.9608(4) 0.2887(2)
O28 O 0.3137(4) 0.4830(3) 0.4579(2)
O29 O 0.2276(4) 0.7932(3) 0.1445(2)
O30 O 0.4707(4) 0.8206(3) 0.0934(2)
O31 O 0.5696(4) 0.4097(3) 0.4428(2)
O32 O 0.6281(4) 0.6764(3) 0.1615(2)
N2 N 0.1729(6) 0.4229(5) 0.5312(4)
C4 C 0.8740(5) 0.4902(4) 0.2618(3)
C5 C 0.9985(6) 0.4437(5) 0.2473(4)
H10 H 1.0203 0.3772 0.2532
C6 C 1.0898(6) 0.4975(5) 0.2239(4)
H11 H 1.1738 0.4671 0.2161
C7 C 1.0567(6) 0.5956(4) 0.2121(3)
H12 H 1.1182 0.6307 0.1951
C8 C 0.9334(5) 0.6421(4) 0.2254(3)
C9 C 0.8435(5) 0.5884(4) 0.2517(3)
H13 H 0.7608 0.6196 0.2626
C10 C 0.7737(5) 0.4324(4) 0.2857(3)
C11 C 0.8929(5) 0.7472(4) 0.2087(3)
C12 C 1.0923(5) 0.1307(4) 0.1462(3)
C13 C 1.1662(6) 0.1933(5) 0.1642(3)
H14 H 1.1612 0.2101 0.2085
C14 C 1.2471(7) 0.2308(5) 0.1166(3)
H15 H 1.2961 0.2728 0.1290
C15 C 1.2556(6) 0.2065(5) 0.0513(3)
H16 H 1.3104 0.2321 0.0197
C16 C 1.1824(5) 0.1435(4) 0.0318(3)
C17 C 1.1013(5) 0.1062(4) 0.0798(3)
H17 H 1.0522 0.0642 0.0674
C18 C 0.9973(5) 0.0921(4) 0.1949(3)
C19 C 1.1915(5) 0.1157(4) -0.0393(3)
C20 C 0.4933(5) 0.4190(4) 0.1342(3)
C21 C 0.4673(5) 0.4252(4) 0.0680(3)
H18 H 0.4223 0.4821 0.0505
C22 C 0.5082(6) 0.3472(4) 0.0282(3)
H19 H 0.4901 0.3511 -0.0161
C23 C 0.5762(5) 0.2629(4) 0.0541(3)
H20 H 0.6033 0.2104 0.0271
C24 C 0.6044(5) 0.2560(4) 0.1197(3)
C25 C 0.5620(5) 0.3347(4) 0.1599(3)
H21 H 0.5798 0.3307 0.2042
C26 C 0.6789(5) 0.1641(4) 0.1471(3)
C27 C 0.4501(5) 0.5047(4) 0.1774(3)
C28 C 0.1165(5) 0.8024(4) 0.4932(3)
C29 C 0.0233(6) 0.8774(5) 0.4745(3)
H22 H -0.0230 0.9184 0.5064
C30 C -0.0010(6) 0.8913(5) 0.4086(3)
H23 H -0.0616 0.9433 0.3961
C31 C 0.0632(6) 0.8294(4) 0.3610(3)
H24 H 0.0471 0.8398 0.3164
C32 C 0.1529(5) 0.7505(4) 0.3802(3)
C33 C 0.1784(5) 0.7374(4) 0.4463(3)
H25 H 0.2373 0.6846 0.4593
C34 C 0.1488(5) 0.7941(4) 0.5638(3)
C35 C 0.2253(5) 0.6831(4) 0.3287(3)
C36 C 0.3803(5) 1.1878(4) 0.3223(3)
C37 C 0.2585(6) 1.1818(5) 0.3526(3)
H26 H 0.2113 1.2328 0.3768
C38 C 0.2092(6) 1.0995(5) 0.3462(4)
H27 H 0.1300 1.0943 0.3673
C39 C 0.2780(6) 1.0254(4) 0.3086(3)
H28 H 0.2452 0.9700 0.3049
C40 C 0.3966(5) 1.0328(4) 0.2759(3)
C41 C 0.4466(5) 1.1144(4) 0.2842(3)
H29 H 0.5262 1.1193 0.2635
C42 C 0.4363(5) 1.2746(4) 0.3317(3)
C43 C 0.4697(5) 0.9532(4) 0.2342(3)
C44 C 0.5481(5) 0.7732(4) 0.3951(3)
C45 C 0.5192(6) 0.7880(4) 0.4631(3)
H30 H 0.4744 0.7471 0.4892
C46 C 0.5561(7) 0.8625(5) 0.4925(3)
H31 H 0.5374 0.8710 0.5381
C47 C 0.6207(6) 0.9245(4) 0.4540(3)
H32 H 0.6456 0.9748 0.4737
C48 C 0.6484(5) 0.9116(4) 0.3860(3)
C49 C 0.6144(5) 0.8357(4) 0.3565(3)
H33 H 0.6356 0.8264 0.3111
C50 C 0.5126(5) 0.6889(4) 0.3655(3)
C51 C 0.7120(6) 0.9827(4) 0.3442(3)
C52 C 0.1173(9) 0.5202(8) 0.5606(5)
H34 H 0.1502 0.5699 0.5339
H35 H 0.1395 0.5205 0.6055
H36 H 0.0270 0.5318 0.5610
C53 C 0.1274(9) 0.3463(8) 0.5685(5)
H37 H 0.1648 0.2864 0.5484
H38 H 0.0372 0.3561 0.5688
H39 H 0.1494 0.3448 0.6135
C54 C 0.2656(7) 0.4216(6) 0.4885(4)
H40 H 0.3065 0.3596 0.4780
Gd2A Gd 0.22930(2) 0.806936(18) 0.691148(13)
Gd2_2 Gd 0.77070(2) 1.193064(18) 0.308852(13)
Gd3_2 Gd 0.78944(2) 0.945060(18) 0.174120(13)
Gd3A Gd 1.21056(2) 0.054940(18) -0.174120(13)
Gd4_2 Gd 0.45489(3) 1.487688(19) 0.352538(14)
O6_2 O 0.9706(4) -0.1978(3) 0.1931(2)
O7_2 O 0.7756(4) -0.2199(3) 0.2090(2)
O10A O 0.8942(4) -0.0789(3) 0.05936(19)
O11A O 0.7152(4) -0.1293(3) 0.0802(2)
O16A O 0.9169(4) 0.1519(4) 0.3933(2)
O17A O 0.7531(4) 0.2624(3) 0.4194(2)
O20_2 O 0.3623(4) 0.3512(3) 0.3476(3)
O21_2 O 0.5543(4) 0.2691(3) 0.3235(2)
O22_2 O 0.5727(3) -0.0345(3) 0.2032(2)
O25_2 O 0.7010(5) 0.0650(3) 0.3672(2)
O27_2 O 0.7709(4) -0.0392(4) 0.2887(2)
O1 O 0.7407(6) 0.5697(5) 0.0615(3)
N1 N 0.8547(7) 0.4234(6) 0.0393(5)
C1 C 0.8667(12) 0.4347(12) -0.0291(7)
H1 H 0.8271 0.4987 -0.0419
H2 H 0.8267 0.3889 -0.0479
H3 H 0.9546 0.4243 -0.0453
C2 C 0.9082(11) 0.3304(9) 0.0736(7)
H4 H 0.8910 0.3362 0.1211
H5 H 0.9978 0.3155 0.0621
H6 H 0.8701 0.2799 0.0598
C3 C 0.7871(8) 0.4935(8) 0.0810(6)
H7 H 0.7783 0.4792 0.1267
loop_
_geom_bond_atom_site_label_1
_geom_bond_atom_site_label_2
_geom_bond_site_symmetry_1
_geom_bond_site_symmetry_2
O1 C3 1_555 1_555
N1 C1 1_555 1_555
C1 H1 1_555 1_555
H2 C1 1_555 1_555
H3 C1 1_555 1_555
C2 N1 1_555 1_555
H4 C2 1_555 1_555
H5 C2 1_555 1_555
H6 C2 1_555 1_555
C3 N1 1_555 1_555
H7 C3 1_555 1_555
O2 H8 1_555 1_555
O3 H9 1_555 1_555
Gd1 O13 1_555 1_555
Gd2 O5 1_555 1_555
Gd3 O9 1_555 1_555
Gd4 O4 1_555 1_555
O4 C10 1_555 1_555
O5 C10 1_555 1_555
O6 C11 1_555 1_555
O7 C11 1_555 1_555
O8 Gd2 1_555 1_555
O9 C18 1_555 1_555
O10 C19 1_555 1_555
O11 C19 1_555 1_555
O12 Gd4 1_555 1_555
O13 C27 1_555 1_555
O14 Gd3 1_555 1_555
O15 Gd2 1_555 1_555
O16 C34 1_555 1_555
O17 C34 1_555 1_555
O18 Gd1 1_555 1_555
O19 Gd4 1_555 1_555
O20 C42 1_555 1_555
O21 C42 1_555 1_555
O22 C43 1_555 1_555
O23 Gd1 1_555 1_555
O24 Gd4 1_555 1_555
O25 C51 1_555 1_555
O26 Gd1 1_555 1_555
O27 C51 1_555 1_555
O28 Gd4 1_555 1_555
O29 Gd1 1_555 1_555
O30 Gd1 1_555 1_555
O31 Gd4 1_555 1_555
O32 Gd1 1_555 1_555
N2 C52 1_555 1_555
C4 C5 1_555 1_555
C5 H10 1_555 1_555
C6 C5 1_555 1_555
H11 C6 1_555 1_555
C7 C6 1_555 1_555
H12 C7 1_555 1_555
C8 C7 1_555 1_555
C9 C4 1_555 1_555
H13 C9 1_555 1_555
C10 C4 1_555 1_555
C11 C8 1_555 1_555
C12 C13 1_555 1_555
C13 H14 1_555 1_555
C14 C13 1_555 1_555
H15 C14 1_555 1_555
C15 C14 1_555 1_555
H16 C15 1_555 1_555
C16 C15 1_555 1_555
C17 C12 1_555 1_555
H17 C17 1_555 1_555
C18 O8 1_555 1_555
C19 C16 1_555 1_555
C20 C21 1_555 1_555
C21 H18 1_555 1_555
C22 C21 1_555 1_555
H19 C22 1_555 1_555
C23 C22 1_555 1_555
H20 C23 1_555 1_555
C24 C23 1_555 1_555
C25 C20 1_555 1_555
H21 C25 1_555 1_555
C26 O14 1_555 1_555
C27 O12 1_555 1_555
C28 C29 1_555 1_555
C29 H22 1_555 1_555
C30 C29 1_555 1_555
H23 C30 1_555 1_555
C31 C30 1_555 1_555
H24 C31 1_555 1_555
C32 C31 1_555 1_555
C33 C28 1_555 1_555
H25 C33 1_555 1_555
C34 C28 1_555 1_555
C35 O18 1_555 1_555
C36 C37 1_555 1_555
C37 H26 1_555 1_555
C38 C37 1_555 1_555
H27 C38 1_555 1_555
C39 C38 1_555 1_555
H28 C39 1_555 1_555
C40 C39 1_555 1_555
C41 C36 1_555 1_555
H29 C41 1_555 1_555
C42 C36 1_555 1_555
C43 O23 1_555 1_555
C44 C45 1_555 1_555
C45 H30 1_555 1_555
C46 C45 1_555 1_555
H31 C46 1_555 1_555
C47 C46 1_555 1_555
H32 C47 1_555 1_555
C48 C47 1_555 1_555
C49 C44 1_555 1_555
H33 C49 1_555 1_555
C50 O24 1_555 1_555
C51 C48 1_555 1_555
C52 H34 1_555 1_555
H35 C52 1_555 1_555
H36 C52 1_555 1_555
C53 N2 1_555 1_555
H37 C53 1_555 1_555
H38 C53 1_555 1_555
H39 C53 1_555 1_555
C54 O28 1_555 1_555
H40 C54 1_555 1_555
Gd2A O16 1_555 1_555
Gd2_2 O21 1_555 1_555
Gd3_2 O6 1_555 1_555
Gd3A O10 1_555 1_555
Gd4_2 O20 1_555 1_555
O6_2 Gd3 1_555 1_555
O7_2 Gd3 1_555 1_555
O10A Gd3 1_555 1_555
O11A Gd3 1_555 1_555
O16A Gd2 1_555 1_555
O17A Gd2 1_555 1_555
O20_2 Gd4 1_555 1_555
O21_2 Gd2 1_555 1_555
O22_2 Gd3 1_555 1_555
O25_2 Gd2 1_555 1_555
O27_2 Gd3 1_555 1_555
O7 Gd3_2 1_555 1_555
O11 Gd3A 1_555 1_555
O15 C26 1_555 1_555
O17 Gd2A 1_555 1_555
O19 C35 1_555 1_555
O22 Gd3_2 1_555 1_555
O25 Gd2_2 1_555 1_555
O26 C50 1_555 1_555
O27 Gd3_2 1_555 1_555
N2 C54 1_555 1_555
C8 C9 1_555 1_555
C12 C18 1_555 1_555
C16 C17 1_555 1_555
C20 C27 1_555 1_555
C24 C25 1_555 1_555
C24 C26 1_555 1_555
C32 C33 1_555 1_555
C32 C35 1_555 1_555
C40 C41 1_555 1_555
C40 C43 1_555 1_555
C44 C50 1_555 1_555
C48 C49 1_555 1_555

#END
