
#######################################################################
#
#                 Cambridge Crystallographic Data Centre
#                                CCDC 
#
#######################################################################
#
# If this CIF has been generated from an entry in the Cambridge 
# Structural Database, then it will include bibliographic, chemical, 
# crystal, experimental, refinement or atomic coordinate data resulting 
# from the CCDC's data processing and validation procedures.
#
#######################################################################

data_ZEFFOF
_symmetry_cell_setting           monoclinic
_symmetry_space_group_name_H-M   'P 21/n'
_symmetry_Int_Tables_number      14
_space_group_name_Hall           '-P 2yn'
loop_
_symmetry_equiv_pos_site_id
_symmetry_equiv_pos_as_xyz
1 x,y,z
2 1/2-x,1/2+y,1/2-z
3 -x,-y,-z
4 1/2+x,1/2-y,1/2+z
_cell_length_a                   8.931(4)
_cell_length_b                   10.489(2)
_cell_length_c                   10.770(5)
_cell_angle_alpha                90
_cell_angle_beta                 100.75(4)
_cell_angle_gamma                90
_cell_volume                     991.198
loop_
_atom_site_label
_atom_site_type_symbol
_atom_site_fract_x
_atom_site_fract_y
_atom_site_fract_z
Zn1 Zn 0.03910(6) 0.29334(4) 0.25900(5)
N1 N 0.1587(4) 0.4038(3) 0.3939(5)
N2 N -0.0898(5) 0.1749(4) 0.3463(4)
H1 H -0.1594(32) 0.2203(6) 0.3762(36)
H2 H -0.0301(8) 0.1349(31) 0.4098(26)
H3 H -0.1361(39) 0.1178(26) 0.2910(11)
N3 N -0.1251(5) 0.4167(4) 0.1681(4)
H4 H -0.1628(36) 0.4619(30) 0.2251(4)
H5 H -0.1997(24) 0.3724(4) 0.1209(33)
H6 H -0.0838(12) 0.4692(27) 0.1189(32)
N4 N 0.3846(5) 0.6933(4) 0.3714(5)
C1 C 0.4230(7) 0.7212(5) 0.4930(7)
H7 H 0.4842(7) 0.7924(5) 0.5150(7)
N5 N 0.3806(5) 0.6547(4) 0.5871(4)
C2 C 0.2962(5) 0.5552(5) 0.5377(4)
C3 C 0.2442(8) 0.5108(6) 0.4105(7)
C4 C 0.2873(8) 0.5844(7) 0.3153(7)
S1 S 0.2264(2) 0.54849(13) 0.15729(10)
C5 C 0.1575(6) 0.3845(5) 0.5193(6)
H8 H 0.1046(6) 0.3163(5) 0.5458(6)
N6 N 0.2342(5) 0.4661(4) 0.6025(4)
N4A N 0.1154(5) 0.1933(4) 0.1286(5)
Zn1A Zn 0.46090(6) 0.79334(4) 0.24100(5)
O1 O 0.0063(5) 0.1463(5) 0.6458(4)
C6? C 0.1898(11) 0.0923(10) 0.0924(12)
C7? C 0.2692(12) 0.0129(11) 0.1787(13)
loop_
_geom_bond_atom_site_label_1
_geom_bond_atom_site_label_2
_geom_bond_site_symmetry_1
_geom_bond_site_symmetry_2
Zn1 N1 1_555 1_555
N1 C3 1_555 1_555
N2 Zn1 1_555 1_555
H1 N2 1_555 1_555
H2 N2 1_555 1_555
H3 N2 1_555 1_555
N3 Zn1 1_555 1_555
H4 N3 1_555 1_555
H5 N3 1_555 1_555
H6 N3 1_555 1_555
N4 C1 1_555 1_555
C1 H7 1_555 1_555
N5 C1 1_555 1_555
C2 N5 1_555 1_555
C3 C2 1_555 1_555
C4 N4 1_555 1_555
S1 C4 1_555 1_555
C5 N1 1_555 1_555
H8 C5 1_555 1_555
N6 C2 1_555 1_555
N4A Zn1 1_555 1_555
Zn1A N4 1_555 1_555
C3 C4 1_555 1_555
C5 N6 1_555 1_555

#END
