
#######################################################################
#
#                 Cambridge Crystallographic Data Centre
#                                CCDC 
#
#######################################################################
#
# If this CIF has been generated from an entry in the Cambridge 
# Structural Database, then it will include bibliographic, chemical, 
# crystal, experimental, refinement or atomic coordinate data resulting 
# from the CCDC's data processing and validation procedures.
#
#######################################################################

data_ZEFHOJ
_symmetry_cell_setting           monoclinic
_symmetry_space_group_name_H-M   'P 21'
_symmetry_Int_Tables_number      4
_space_group_name_Hall           'P 2yb'
loop_
_symmetry_equiv_pos_site_id
_symmetry_equiv_pos_as_xyz
1 x,y,z
2 -x,1/2+y,-z
_cell_length_a                   11.6416(11)
_cell_length_b                   32.870(3)
_cell_length_c                   12.0455(10)
_cell_angle_alpha                90
_cell_angle_beta                 90.578(6)
_cell_angle_gamma                90
_cell_volume                     4609.09
loop_
_atom_site_label
_atom_site_type_symbol
_atom_site_fract_x
_atom_site_fract_y
_atom_site_fract_z
U1 U 0.46208(4) 0.427060(17) 0.55794(4)
S1 S 0.2137(3) 0.41435(12) 0.6490(3)
S2 S 0.3827(3) 0.43053(14) 1.2704(3)
S3 S -0.2479(3) 0.42607(14) 1.4440(3)
S4 S -0.4132(5) 0.40302(18) 0.8330(4)
O1 O 0.4476(10) 0.4764(4) 0.6084(10)
O2 O 0.4703(9) 0.3780(4) 0.5084(10)
O3 O 0.3248(9) 0.4024(4) 0.7010(9)
O4 O 0.2476(8) 0.4293(4) 0.5370(8)
O5 O 0.1256(9) 0.3837(3) 0.6485(10)
O6 O 0.0408(9) 0.5571(3) 0.8857(9)
H1 H 0.0460 0.5557 0.9578
O7 O 0.4224(9) 0.4484(3) 1.3737(9)
O8 O 0.4750(8) 0.4236(4) 1.1946(8)
O9 O 0.3158(10) 0.3944(3) 1.2896(9)
O10 O 0.1039(9) 0.5652(3) 1.0999(9)
H2 H 0.0338 0.5673 1.1256
O11 O -0.3520(8) 0.4429(4) 1.4985(10)
O12 O -0.1559(8) 0.4202(4) 1.5225(9)
O13 O -0.2768(10) 0.3901(4) 1.3783(10)
O14 O -0.1153(9) 0.5610(3) 1.1539(9)
H3 H -0.1371 0.5614 1.0838
O15 O -0.4315(9) 0.4057(4) 0.7086(9)
O16 O -0.3466(16) 0.3689(5) 0.8623(15)
O17 O -0.5261(14) 0.4075(5) 0.8936(14)
O18 O -0.1782(9) 0.5560(3) 0.9412(8)
H4 H -0.1118 0.5521 0.9017
C1 C 0.0078(13) 0.5024(5) 0.7599(13)
C2 C 0.0513(12) 0.4688(4) 0.7050(12)
H9 H 0.0051 0.4548 0.6544
C3 C 0.1601(13) 0.4562(5) 0.7241(12)
C4 C 0.2333(11) 0.4751(5) 0.8020(11)
H10 H 0.3078 0.4656 0.8138
C5 C 0.1909(12) 0.5088(5) 0.8617(12)
C6 C 0.0778(12) 0.5219(4) 0.8378(11)
C7 C 0.2623(12) 0.5290(5) 0.9473(13)
H11 H 0.2463 0.5580 0.9454
H12 H 0.3425 0.5253 0.9288
C8 C 0.2439(12) 0.5139(5) 1.0630(13)
C9 C 0.3115(13) 0.4824(5) 1.1076(12)
H13 H 0.3696 0.4711 1.0651
C10 C 0.2929(11) 0.4681(5) 1.2133(12)
C11 C 0.2091(11) 0.4851(4) 1.2804(12)
H14 H 0.1974 0.4752 1.3517
C12 C 0.1429(13) 0.5172(5) 1.2396(11)
C13 C 0.1614(12) 0.5315(5) 1.1353(11)
C14 C 0.0509(11) 0.5346(4) 1.3139(11)
H15 H 0.0428 0.5634 1.2984
H16 H 0.0756 0.5317 1.3907
C15 C -0.0653(12) 0.5142(5) 1.2993(14)
C16 C -0.0966(12) 0.4827(5) 1.3649(12)
H17 H -0.0453 0.4727 1.4179
C17 C -0.2050(12) 0.4652(4) 1.3537(12)
C18 C -0.2807(13) 0.4768(4) 1.2686(12)
H18 H -0.3506 0.4635 1.2592
C19 C -0.2504(13) 0.5089(5) 1.1972(14)
C20 C -0.1428(12) 0.5282(5) 1.2159(12)
C21 C -0.3305(13) 0.5221(5) 1.1065(13)
H19 H -0.3261 0.5514 1.0988
H20 H -0.4085 0.5152 1.1271
C22 C -0.3037(13) 0.5021(6) 0.9930(13)
C23 C -0.3604(12) 0.4657(5) 0.9670(14)
H21 H -0.4122 0.4541 1.0160
C24 C -0.3369(13) 0.4475(6) 0.8661(13)
C25 C -0.2574(13) 0.4639(5) 0.7906(13)
H22 H -0.2441 0.4510 0.7232
C26 C -0.2005(12) 0.4986(5) 0.8176(12)
C27 C -0.2278(13) 0.5188(5) 0.9199(14)
C28 C -0.1161(13) 0.5159(5) 0.7368(13)
H23 H -0.1198 0.5454 0.7399
H24 H -0.1381 0.5076 0.6623
U1_2 U 0.46208(4) 0.427060(17) 1.55794(4)
U1_3 U -0.53792(4) 0.427060(17) 1.55794(4)
U1_4 U -0.53792(4) 0.427060(17) 0.55794(4)
O7_2 O 0.4224(9) 0.4484(3) 0.3737(9)
O11_2 O 0.6480(8) 0.4429(4) 0.4985(10)
O15_2 O 0.5685(9) 0.4057(4) 0.7086(9)
Ce1 Ce 0.54023(7) 0.28190(3) 0.17099(7)
Ce2 Ce 1.07202(7) 0.24272(3) 0.78229(7)
S5 S 0.7095(3) 0.19956(12) 0.0219(3)
S6 S 0.8173(3) 0.22631(13) 0.5819(3)
S7 S 0.2932(3) 0.16433(12) 0.8819(3)
S8 S 0.1254(3) 0.19065(12) 0.2872(3)
O19 O 0.6131(8) 0.2279(3) 0.0408(9)
O20 O 0.7077(9) 0.1852(3) -0.0906(8)
O21 O 0.8181(8) 0.2165(3) 0.0568(9)
O22 O 0.6108(9) 0.0574(4) 0.3026(9)
H5 H 0.6583 0.0529 0.3594
O23 O 0.9345(8) 0.2299(3) 0.6194(9)
O24 O 0.7369(8) 0.2409(4) 0.6643(9)
O25 O 0.8028(10) 0.2447(4) 0.4727(9)
O26 O 0.7168(9) 0.0523(3) 0.5049(9)
H6 H 0.6460 0.0472 0.5345
O27 O 0.1903(9) 0.1814(3) 0.8340(8)
O28 O 0.2652(10) 0.1369(4) 0.9743(9)
O29 O 0.3768(9) 0.1946(4) 0.9089(8)
O30 O 0.4946(9) 0.0476(3) 0.5716(9)
H7 H 0.4588 0.0457 0.5075
O31 O 0.2051(9) 0.2218(3) 0.2485(9)
O32 O 0.0729(9) 0.2016(4) 0.3913(9)
O33 O 0.0424(10) 0.1797(4) 0.2036(10)
O34 O 0.3964(10) 0.0413(3) 0.3682(10)
H8 H 0.4592 0.0409 0.3314
O35 O 0.3808(8) 0.2363(4) 0.1041(9)
O36 O 0.5287(11) 0.3012(4) -0.0332(10)
O37 O 0.7552(9) 0.2876(4) 0.1628(11)
O38 O 0.6276(9) 0.2285(4) 0.3000(9)
O39 O 0.3993(10) 0.2639(3) 0.3266(9)
O40 O 0.3600(8) 0.3275(3) 0.1495(8)
O41 O 0.5962(9) 0.3546(4) 0.1394(11)
O42 O 0.5829(10) 0.3191(4) 0.3481(10)
O43 O 1.2799(9) 0.2641(4) 0.7980(10)
O44 O 1.0933(9) 0.3124(4) 0.8722(10)
O45 O 1.0728(11) 0.2375(5) 0.9919(10)
O46 O 0.9479(9) 0.1817(4) 0.8346(9)
O47 O 1.1668(10) 0.2131(4) 0.6096(9)
O48 O 1.0840(13) 0.3000(4) 0.6387(10)
O49 O 0.8813(9) 0.2708(4) 0.8404(12)
C29 C 0.5480(13) 0.1047(5) 0.1672(12)
C30 C 0.5760(13) 0.1385(5) 0.0999(12)
H25 H 0.5219 0.1487 0.0499
C31 C 0.6833(13) 0.1563(5) 0.1078(13)
C32 C 0.7644(11) 0.1426(5) 0.1807(11)
H26 H 0.8354 0.1556 0.1855
C33 C 0.7418(11) 0.1099(5) 0.2471(12)
C34 C 0.6364(13) 0.0912(5) 0.2393(14)
C35 C 0.8342(13) 0.0971(5) 0.3373(13)
H27 H 0.8382 0.0677 0.3420
H28 H 0.9092 0.1072 0.3164
C36 C 0.8018(11) 0.1142(5) 0.4470(12)
C37 C 0.8276(13) 0.1544(6) 0.4630(15)
H29 H 0.8683 0.1692 0.4105
C38 C 0.7889(12) 0.1732(5) 0.5650(12)
C39 C 0.7338(12) 0.1522(5) 0.6469(12)
H30 H 0.7138 0.1651 0.7127
C40 C 0.7083(11) 0.1112(5) 0.6299(12)
C41 C 0.7413(12) 0.0931(5) 0.5263(11)
C42 C 0.6497(13) 0.0868(5) 0.7200(12)
H31 H 0.6804 0.0944 0.7922
H32 H 0.6638 0.0580 0.7089
C43 C 0.5186(13) 0.0955(5) 0.7148(11)
C44 C 0.4721(13) 0.1248(5) 0.7870(11)
H33 H 0.5191 0.1382 0.8381
C45 C 0.3549(13) 0.1336(5) 0.7811(13)
C46 C 0.2824(12) 0.1145(5) 0.7015(12)
H34 H 0.2046 0.1209 0.6977
C47 C 0.3286(12) 0.0864(5) 0.6299(12)
C48 C 0.4472(11) 0.0774(5) 0.6375(11)
C49 C 0.2516(11) 0.0681(5) 0.5408(11)
H35 H 0.1725 0.0693 0.5649
H36 H 0.2717 0.0397 0.5308
C50 C 0.2623(13) 0.0905(5) 0.4290(13)
C51 C 0.1960(14) 0.1256(5) 0.4124(13)
H37 H 0.1444 0.1345 0.4656
C52 C 0.2104(11) 0.1469(5) 0.3125(13)
C53 C 0.2864(13) 0.1341(5) 0.2353(12)
H38 H 0.2958 0.1492 0.1707
C54 C 0.3504(11) 0.0990(5) 0.2510(11)
C55 C 0.3380(13) 0.0771(5) 0.3473(14)
C56 C 0.4351(13) 0.0849(5) 0.1594(11)
H39 H 0.4454 0.0556 0.1650
H40 H 0.4014 0.0906 0.0871
Ce2_2 Ce 0.07202(7) 0.24272(3) 0.78229(7)
O27_2 O 1.1903(9) 0.1814(3) 0.8340(8)
O50 O 0.0549(11) 0.3911(5) 0.3969(12)
O51 O 0.380(2) 0.3011(8) 0.625(2)
O52 O 0.622(2) 0.3101(8) 0.588(2)
O53 O 0.2744(11) 0.3251(4) 0.4344(11)
O54 O 0.2818(11) 0.3616(4) 0.9357(11)
O55 O -0.0312(10) 0.6325(3) 0.9956(9)
O56 O -0.176(2) 0.3532(8) 1.679(2)
O57 O -0.1442(11) 0.3167(5) 1.3617(14)
O58 O -0.075(2) 0.3698(8) 0.874(2)
O59 O -0.193(2) 0.3829(9) 1.088(2)
O60 O 0.5379(9) 0.2398(4) 0.7910(9)
O61 O 0.1396(10) 0.2984(4) 0.1511(10)
O62 O 0.0620(11) 0.2884(4) 0.4118(11)
O63 O 0.5062(12) 0.1696(5) 0.4115(12)
O64 O 0.4047(10) 0.2139(4) 0.5861(11)
O65 O 0.0213(12) 0.3703(5) 0.1766(10)
O66 O 0.1064(16) 0.4142(5) -0.0014(14)
loop_
_geom_bond_atom_site_label_1
_geom_bond_atom_site_label_2
_geom_bond_site_symmetry_1
_geom_bond_site_symmetry_2
U1 O1 1_555 1_555
Ce1 O19 1_555 1_555
Ce2 O23 1_555 1_555
S1 O3 1_555 1_555
S2 O7 1_555 1_555
S3 O11 1_555 1_555
S4 O15 1_555 1_555
S5 O19 1_555 1_555
S6 O23 1_555 1_555
S7 O27 1_555 1_555
S8 O31 1_555 1_555
O2 U1 1_555 1_555
O3 U1 1_555 1_555
O4 U1 1_555 1_555
O5 S1 1_555 1_555
O6 H1 1_555 1_555
O7 U1_2 1_555 1_555
O8 S2 1_555 1_555
O9 S2 1_555 1_555
O10 H2 1_555 1_555
O11 U1_3 1_555 1_555
O12 S3 1_555 1_555
O13 S3 1_555 1_555
O14 H3 1_555 1_555
O15 U1_4 1_555 1_555
O16 S4 1_555 1_555
O17 S4 1_555 1_555
O18 H4 1_555 1_555
O20 S5 1_555 1_555
O21 S5 1_555 1_555
O22 H5 1_555 1_555
O24 S6 1_555 1_555
O25 S6 1_555 1_555
O26 H6 1_555 1_555
O27 Ce2_2 1_555 1_555
O28 S7 1_555 1_555
O29 S7 1_555 1_555
O30 H7 1_555 1_555
O32 S8 1_555 1_555
O33 S8 1_555 1_555
O34 H8 1_555 1_555
O35 Ce1 1_555 1_555
O36 Ce1 1_555 1_555
O37 Ce1 1_555 1_555
O38 Ce1 1_555 1_555
O39 Ce1 1_555 1_555
O40 Ce1 1_555 1_555
O41 Ce1 1_555 1_555
O42 Ce1 1_555 1_555
O43 Ce2 1_555 1_555
O44 Ce2 1_555 1_555
O45 Ce2 1_555 1_555
O46 Ce2 1_555 1_555
O47 Ce2 1_555 1_555
O48 Ce2 1_555 1_555
O49 Ce2 1_555 1_555
C1 C2 1_555 1_555
C2 H9 1_555 1_555
C3 S1 1_555 1_555
C4 C3 1_555 1_555
H10 C4 1_555 1_555
C5 C4 1_555 1_555
C6 O6 1_555 1_555
C7 C5 1_555 1_555
H11 C7 1_555 1_555
H12 C7 1_555 1_555
C8 C7 1_555 1_555
C9 C8 1_555 1_555
H13 C9 1_555 1_555
C10 S2 1_555 1_555
C11 C10 1_555 1_555
H14 C11 1_555 1_555
C12 C11 1_555 1_555
C13 O10 1_555 1_555
C14 C12 1_555 1_555
H15 C14 1_555 1_555
H16 C14 1_555 1_555
C15 C14 1_555 1_555
C16 C15 1_555 1_555
H17 C16 1_555 1_555
C17 S3 1_555 1_555
C18 C17 1_555 1_555
H18 C18 1_555 1_555
C19 C18 1_555 1_555
C20 O14 1_555 1_555
C21 C19 1_555 1_555
H19 C21 1_555 1_555
H20 C21 1_555 1_555
C22 C21 1_555 1_555
C23 C22 1_555 1_555
H21 C23 1_555 1_555
C24 S4 1_555 1_555
C25 C24 1_555 1_555
H22 C25 1_555 1_555
C26 C25 1_555 1_555
C27 O18 1_555 1_555
C28 C1 1_555 1_555
H23 C28 1_555 1_555
H24 C28 1_555 1_555
C29 C30 1_555 1_555
C30 H25 1_555 1_555
C31 S5 1_555 1_555
C32 C31 1_555 1_555
H26 C32 1_555 1_555
C33 C32 1_555 1_555
C34 O22 1_555 1_555
C35 C33 1_555 1_555
H27 C35 1_555 1_555
H28 C35 1_555 1_555
C36 C35 1_555 1_555
C37 C36 1_555 1_555
H29 C37 1_555 1_555
C38 S6 1_555 1_555
C39 C38 1_555 1_555
H30 C39 1_555 1_555
C40 C39 1_555 1_555
C41 O26 1_555 1_555
C42 C40 1_555 1_555
H31 C42 1_555 1_555
H32 C42 1_555 1_555
C43 C42 1_555 1_555
C44 C43 1_555 1_555
H33 C44 1_555 1_555
C45 S7 1_555 1_555
C46 C45 1_555 1_555
H34 C46 1_555 1_555
C47 C46 1_555 1_555
C48 O30 1_555 1_555
C49 C47 1_555 1_555
H35 C49 1_555 1_555
H36 C49 1_555 1_555
C50 C49 1_555 1_555
C51 C50 1_555 1_555
H37 C51 1_555 1_555
C52 S8 1_555 1_555
C53 C52 1_555 1_555
H38 C53 1_555 1_555
C54 C53 1_555 1_555
C55 O34 1_555 1_555
C56 C29 1_555 1_555
H39 C56 1_555 1_555
H40 C56 1_555 1_555
O7_2 U1 1_555 1_555
O11_2 U1 1_555 1_555
O15_2 U1 1_555 1_555
O27_2 Ce2 1_555 1_555
S1 O4 1_555 1_555
C1 C6 1_555 1_555
C2 C3 1_555 1_555
C5 C6 1_555 1_555
C8 C13 1_555 1_555
C9 C10 1_555 1_555
C12 C13 1_555 1_555
C15 C20 1_555 1_555
C16 C17 1_555 1_555
C19 C20 1_555 1_555
C22 C27 1_555 1_555
C23 C24 1_555 1_555
C26 C27 1_555 1_555
C26 C28 1_555 1_555
C29 C34 1_555 1_555
C30 C31 1_555 1_555
C33 C34 1_555 1_555
C36 C41 1_555 1_555
C37 C38 1_555 1_555
C40 C41 1_555 1_555
C43 C48 1_555 1_555
C44 C45 1_555 1_555
C47 C48 1_555 1_555
C50 C55 1_555 1_555
C51 C52 1_555 1_555
C54 C55 1_555 1_555
C54 C56 1_555 1_555

#END
