
#######################################################################
#
#                 Cambridge Crystallographic Data Centre
#                                CCDC 
#
#######################################################################
#
# If this CIF has been generated from an entry in the Cambridge 
# Structural Database, then it will include bibliographic, chemical, 
# crystal, experimental, refinement or atomic coordinate data resulting 
# from the CCDC's data processing and validation procedures.
#
#######################################################################

data_ZEFHID
_symmetry_cell_setting           triclinic
_symmetry_space_group_name_H-M   'P -1'
_symmetry_Int_Tables_number      2
_space_group_name_Hall           '-P 1'
loop_
_symmetry_equiv_pos_site_id
_symmetry_equiv_pos_as_xyz
1 x,y,z
2 -x,-y,-z
_cell_length_a                   11.7485(10)
_cell_length_b                   11.7636(12)
_cell_length_c                   16.8054(18)
_cell_angle_alpha                73.176(5)
_cell_angle_beta                 89.985(7)
_cell_angle_gamma                89.854(7)
_cell_volume                     2223.17
loop_
_atom_site_label
_atom_site_type_symbol
_atom_site_fract_x
_atom_site_fract_y
_atom_site_fract_z
U1 U 0.24916(5) 0.15778(4) 0.26547(3)
S1 S -0.0139(3) 0.2290(3) 0.2830(3)
S2 S -0.6512(3) 0.4265(5) 0.2959(2)
S3 S -0.4629(4) 1.0439(4) 0.2725(4)
S4 S 0.1713(2) 0.8673(2) 0.25581(19)
O1 O 0.2265(13) 0.2503(10) 0.1638(8)
O2 O 0.2412(8) 0.0760(9) 0.3691(6)
O3 O 0.0298(12) 0.1353(11) 0.2568(9)
O4 O 0.0878(12) 0.2745(10) 0.3200(8)
O5 O -0.0993(11) 0.1957(13) 0.3526(9)
O6 O -0.1897(8) 0.5996(8) -0.0083(6)
H1 H -0.1429 0.6650 -0.0054
O7 O -0.6558(12) 0.3083(12) 0.3060(8)
O8 O -0.7698(13) 0.4916(14) 0.2771(9)
O9 O -0.6129(11) 0.4564(9) 0.3657(6)
O10 O -0.4018(8) 0.6685(8) -0.0066(6)
H2 H -0.3393 0.6176 -0.0049
O11 O -0.5745(10) 1.1182(12) 0.2355(9)
O12 O -0.4900(15) 0.9526(14) 0.3341(9)
O13 O -0.3810(8) 1.1284(10) 0.2820(7)
O14 O -0.3322(8) 0.8882(8) -0.0149(6)
H3 H -0.3522 0.8084 -0.0066
O15 O 0.2149(7) 0.9909(7) 0.2218(6)
O16 O 0.1054(8) 0.8567(9) 0.3292(6)
O17 O 0.2600(7) 0.7830(8) 0.2651(6)
O18 O -0.1186(8) 0.8188(8) -0.0187(5)
H4 H -0.1822 0.8447 -0.0024
C1 C -0.0409(10) 0.5291(11) 0.0924(9)
C2 C -0.0029(11) 0.4412(11) 0.1611(9)
H5 H 0.0703 0.4447 0.1813
C3 C -0.0739(11) 0.3478(10) 0.1999(10)
C4 C -0.1836(11) 0.3388(11) 0.1718(10)
H6 H -0.2299 0.2754 0.1987
C5 C -0.2227(10) 0.4261(11) 0.1032(9)
C6 C -0.1522(10) 0.5190(11) 0.0635(8)
C7 C -0.3423(10) 0.4197(11) 0.0712(9)
H7 H -0.3653 0.3371 0.0855
H8 H -0.3419 0.4504 0.0111
C8 C -0.4305(9) 0.4891(10) 0.1059(7)
C9 C -0.4894(10) 0.4281(11) 0.1770(8)
H9 H -0.4767 0.3477 0.2026
C10 C -0.5679(10) 0.4922(11) 0.2080(8)
C11 C -0.5878(10) 0.6146(11) 0.1715(9)
H10 H -0.6400 0.6549 0.1951
C12 C -0.5293(10) 0.6738(10) 0.1010(8)
C13 C -0.4533(9) 0.6088(10) 0.0675(8)
C14 C -0.5499(11) 0.8071(10) 0.0611(10)
H11 H -0.5425 0.8251 0.0013
H12 H -0.6270 0.8266 0.0732
C15 C -0.4668(10) 0.8837(10) 0.0925(10)
C16 C -0.4951(11) 0.9209(11) 0.1602(11)
H13 H -0.5647 0.8983 0.1862
C17 C -0.4221(11) 0.9917(12) 0.1910(11)
C18 C -0.3153(10) 1.0203(10) 0.1544(9)
H14 H -0.2644 1.0639 0.1761
C19 C -0.2854(10) 0.9844(10) 0.0870(8)
C20 C -0.3620(10) 0.9176(10) 0.0563(8)
C21 C -0.1674(10) 1.0169(10) 0.0473(8)
H15 H -0.1737 1.0294 -0.0121
H16 H -0.1433 1.0912 0.0560
C22 C -0.0776(9) 0.9242(10) 0.0814(7)
C23 C -0.0064(10) 0.9356(10) 0.1457(8)
H17 H -0.0153 0.9993 0.1676
C24 C 0.0772(9) 0.8509(10) 0.1764(7)
C25 C 0.0915(10) 0.7528(10) 0.1473(8)
H18 H 0.1470 0.6962 0.1702
C26 C 0.0222(10) 0.7400(10) 0.0837(8)
C27 C -0.0584(10) 0.8279(10) 0.0506(7)
C28 C 0.0386(11) 0.6316(11) 0.0509(8)
H19 H 0.0252 0.6555 -0.0086
H20 H 0.1168 0.6044 0.0603
U1_2 U -0.75084(5) 0.15778(4) 0.26547(3)
U1_3 U -0.75084(5) 1.15778(4) 0.26547(3)
U1_4 U 0.24916(5) 1.15778(4) 0.26547(3)
O7_2 O 0.3442(12) 0.3083(12) 0.3060(8)
O11_2 O 0.4255(10) 0.1182(12) 0.2355(9)
O15_2 O 0.2149(7) -0.0091(7) 0.2218(6)
O19 O -0.875(3) 0.565(3) 0.3860(19)
N1 N 0.650(2) 0.2735(16) 0.4709(13)
C29 C 0.748(4) 0.191(3) 0.501(3)
H21 H 0.8113 0.2349 0.5126
H22 H 0.7686 0.1541 0.4592
H23 H 0.7261 0.1312 0.5510
C30 C 0.6726(16) 0.354(2) 0.3890(17)
H24 H 0.7486 0.3845 0.3874
H25 H 0.6192 0.4186 0.3774
H26 H 0.6650 0.3121 0.3481
C31 C 0.606(6) 0.334(3) 0.528(2)
H27 H 0.6079 0.2816 0.5838
H28 H 0.5285 0.3575 0.5132
H29 H 0.6504 0.4036 0.5256
C32 C 0.555(2) 0.196(2) 0.4587(18)
H30 H 0.5830 0.1413 0.4307
H31 H 0.4962 0.2446 0.4258
H32 H 0.5243 0.1529 0.5118
N2 N -0.1661(19) -0.183(3) 0.4320(12)
C33 C -0.081(5) -0.287(3) 0.472(2)
H33 H -0.0166 -0.2814 0.4361
H34 H -0.1190 -0.3615 0.4784
H35 H -0.0571 -0.2817 0.5251
C34 C -0.104(3) -0.096(3) 0.451(3)
H36 H -0.0257 -0.1032 0.4379
H37 H -0.1116 -0.1036 0.5093
H38 H -0.1324 -0.0193 0.4194
C35 C -0.176(2) -0.175(6) 0.3449(16)
H39 H -0.2550 -0.1821 0.3314
H40 H -0.1337 -0.2387 0.3336
H41 H -0.1472 -0.1005 0.3117
C36 C -0.267(3) -0.219(6) 0.481(2)
H42 H -0.2480 -0.2371 0.5393
H43 H -0.2987 -0.2878 0.4703
H44 H -0.3220 -0.1554 0.4675
loop_
_geom_bond_atom_site_label_1
_geom_bond_atom_site_label_2
_geom_bond_site_symmetry_1
_geom_bond_site_symmetry_2
U1 O1 1_555 1_555
S1 O3 1_555 1_555
S2 O7 1_555 1_555
S3 O11 1_555 1_555
S4 O15 1_555 1_555
O2 U1 1_555 1_555
O3 U1 1_555 1_555
O4 U1 1_555 1_555
O5 S1 1_555 1_555
O6 H1 1_555 1_555
O7 U1_2 1_555 1_555
O8 S2 1_555 1_555
O9 S2 1_555 1_555
O10 H2 1_555 1_555
O11 U1_3 1_555 1_555
O12 S3 1_555 1_555
O13 S3 1_555 1_555
O14 H3 1_555 1_555
O15 U1_4 1_555 1_555
O16 S4 1_555 1_555
O17 S4 1_555 1_555
O18 H4 1_555 1_555
N1 C29 1_555 1_555
N2 C33 1_555 1_555
C1 C2 1_555 1_555
C2 H5 1_555 1_555
C3 S1 1_555 1_555
C4 C3 1_555 1_555
H6 C4 1_555 1_555
C5 C4 1_555 1_555
C6 O6 1_555 1_555
C7 C5 1_555 1_555
H7 C7 1_555 1_555
H8 C7 1_555 1_555
C8 C7 1_555 1_555
C9 C8 1_555 1_555
H9 C9 1_555 1_555
C10 S2 1_555 1_555
C11 C10 1_555 1_555
H10 C11 1_555 1_555
C12 C11 1_555 1_555
C13 O10 1_555 1_555
C14 C12 1_555 1_555
H11 C14 1_555 1_555
H12 C14 1_555 1_555
C15 C14 1_555 1_555
C16 C15 1_555 1_555
H13 C16 1_555 1_555
C17 S3 1_555 1_555
C18 C17 1_555 1_555
H14 C18 1_555 1_555
C19 C18 1_555 1_555
C20 O14 1_555 1_555
C21 C19 1_555 1_555
H15 C21 1_555 1_555
H16 C21 1_555 1_555
C22 C21 1_555 1_555
C23 C22 1_555 1_555
H17 C23 1_555 1_555
C24 S4 1_555 1_555
C25 C24 1_555 1_555
H18 C25 1_555 1_555
C26 C25 1_555 1_555
C27 O18 1_555 1_555
C28 C1 1_555 1_555
H19 C28 1_555 1_555
H20 C28 1_555 1_555
C29 H21 1_555 1_555
H22 C29 1_555 1_555
H23 C29 1_555 1_555
C30 N1 1_555 1_555
H24 C30 1_555 1_555
H25 C30 1_555 1_555
H26 C30 1_555 1_555
C31 N1 1_555 1_555
H27 C31 1_555 1_555
H28 C31 1_555 1_555
H29 C31 1_555 1_555
C32 N1 1_555 1_555
H30 C32 1_555 1_555
H31 C32 1_555 1_555
H32 C32 1_555 1_555
C33 H33 1_555 1_555
H34 C33 1_555 1_555
H35 C33 1_555 1_555
C34 N2 1_555 1_555
H36 C34 1_555 1_555
H37 C34 1_555 1_555
H38 C34 1_555 1_555
C35 N2 1_555 1_555
H39 C35 1_555 1_555
H40 C35 1_555 1_555
H41 C35 1_555 1_555
C36 N2 1_555 1_555
H42 C36 1_555 1_555
H43 C36 1_555 1_555
H44 C36 1_555 1_555
O7_2 U1 1_555 1_555
O11_2 U1 1_555 1_555
O15_2 U1 1_555 1_555
S1 O4 1_555 1_555
C1 C6 1_555 1_555
C2 C3 1_555 1_555
C5 C6 1_555 1_555
C8 C13 1_555 1_555
C9 C10 1_555 1_555
C12 C13 1_555 1_555
C15 C20 1_555 1_555
C16 C17 1_555 1_555
C19 C20 1_555 1_555
C22 C27 1_555 1_555
C23 C24 1_555 1_555
C26 C27 1_555 1_555
C26 C28 1_555 1_555

#END
