
#######################################################################
#
#                 Cambridge Crystallographic Data Centre
#                                CCDC 
#
#######################################################################
#
# If this CIF has been generated from an entry in the Cambridge 
# Structural Database, then it will include bibliographic, chemical, 
# crystal, experimental, refinement or atomic coordinate data resulting 
# from the CCDC's data processing and validation procedures.
#
#######################################################################

data_ZEFLED
_symmetry_cell_setting           monoclinic
_symmetry_space_group_name_H-M   'P 21/c'
_symmetry_Int_Tables_number      14
_space_group_name_Hall           '-P 2ybc'
loop_
_symmetry_equiv_pos_site_id
_symmetry_equiv_pos_as_xyz
1 x,y,z
2 -x,1/2+y,1/2-z
3 -x,-y,-z
4 x,1/2-y,1/2+z
_cell_length_a                   7.778(2)
_cell_length_b                   22.865(7)
_cell_length_c                   16.384(5)
_cell_angle_alpha                90
_cell_angle_beta                 99.471(5)
_cell_angle_gamma                90
_cell_volume                     2874.08
loop_
_atom_site_label
_atom_site_type_symbol
_atom_site_fract_x
_atom_site_fract_y
_atom_site_fract_z
Zn1 Zn 0.31477(3) 0.537552(12) 0.116330(15)
O1 O 0.1455(3) 0.62190(12) 0.02493(12)
N1 N 0.8257(3) 0.87756(9) 0.60769(12)
C1 C 0.1643(3) 0.66089(11) -0.27103(14)
Zn2 Zn 0.92141(4) 0.944070(13) 0.686820(16)
O2 O 0.3172(3) 0.55114(9) -0.00245(10)
N2 N 0.4084(3) 0.60215(10) 0.19875(12)
C2 C 0.0854(4) 0.68857(12) -0.21235(15)
H1 H 0.0185 0.7230 -0.2261
O3 O 0.5476(2) 0.53693(7) -0.14121(11)
C3 C 0.1043(3) 0.66591(12) -0.13376(15)
H2 H 0.0498 0.6850 -0.0933
O4 O 0.3095(2) 0.48405(7) -0.16020(11)
C4 C 0.2017(3) 0.61547(11) -0.11222(13)
O5 O -0.0742(4) 0.53885(16) -0.67451(18)
C5 C 0.2791(3) 0.58742(10) -0.17229(13)
O6 O 0.0439(4) 0.61425(14) -0.72284(13)
C6 C 0.2616(3) 0.61035(11) -0.25218(13)
H3 H 0.3155 0.5916 -0.2931
O7 O 0.1528(3) 0.68957(8) -0.34653(10)
C7 C 0.2206(3) 0.59492(12) -0.02381(14)
O8 O 0.0946(2) 0.50989(8) 0.14445(11)
C8 C 0.3838(3) 0.53215(10) -0.15516(12)
C9 C 0.1151(3) 0.66061(12) -0.42144(14)
C10 C 0.0385(4) 0.60627(13) -0.43144(15)
H4 H 0.0125 0.5851 -0.3851
C11 C 0.0000(4) 0.58295(14) -0.51057(17)
H5 H -0.0552 0.5458 -0.5182
C12 C 0.0404(4) 0.61267(14) -0.57856(15)
C13 C 0.1156(4) 0.66790(15) -0.56659(16)
H6 H 0.1422 0.6891 -0.6128
C14 C 0.1520(4) 0.69230(14) -0.48885(16)
H7 H 0.2018 0.7303 -0.4814
C15 C 0.0004(5) 0.5863(2) -0.66385(19)
C16 C 0.7187(4) 0.78957(13) 0.49305(18)
C17 C 0.6822(4) 0.84756(15) 0.47452(18)
H8 H 0.6206 0.8582 0.4216
C18 C 0.7354(4) 0.89040(13) 0.53326(16)
H9 H 0.7069 0.9301 0.5201
C19 C 0.8616(4) 0.82155(12) 0.62500(17)
H10 H 0.9260 0.8121 0.6778
C20 C 0.8111(4) 0.77717(13) 0.57122(19)
H11 H 0.8387 0.7379 0.5869
C21 C 0.6690(4) 0.73914(16) 0.4365(2)
H12 H 0.7027 0.7012 0.4567
C22 C 0.5866(5) 0.74290(16) 0.3645(2)
H13 H 0.5568 0.7810 0.3436
C23 C 0.5306(4) 0.69207(15) 0.3082(2)
C24 C 0.4355(5) 0.70384(16) 0.2327(2)
H14 H 0.4095 0.7431 0.2164
C25 C 0.3774(5) 0.65863(14) 0.1805(2)
H15 H 0.3111 0.6680 0.1281
C26 C 0.5040(4) 0.58975(14) 0.27167(16)
H16 H 0.5302 0.5501 0.2857
C27 C 0.5673(4) 0.63403(17) 0.32863(18)
H17 H 0.6344 0.6242 0.3806
H23 H 0.0588 0.4768 0.1167
Zn1B Zn 0.68523(3) 0.462448(12) -0.116330(15)
Zn1C Zn 1.31477(3) 0.962448(12) 0.616330(15)
O1B O 0.8545(3) 0.37810(12) -0.02493(12)
N1B N 0.1743(3) 0.12244(9) -0.60769(12)
N1A N 0.1743(3) 0.37756(9) -0.10769(12)
C1B C 0.8357(3) 0.33911(11) 0.27103(14)
Zn2A Zn 0.07859(4) 0.444070(13) -0.186820(16)
Zn2C Zn -0.07859(4) 0.555930(13) -0.813180(16)
Zn2C_2 Zn -0.07859(4) 0.555930(13) 0.186820(16)
Zn2C_3 Zn 0.92141(4) 0.555930(13) 0.186820(16)
Zn2A_2 Zn 1.07859(4) 0.444070(13) 0.813180(16)
Zn2B Zn 0.07859(4) 0.055930(13) -0.686820(16)
O2B O 0.6828(3) 0.44886(9) 0.00245(10)
N2B N 0.5916(3) 0.39785(10) -0.19875(12)
C2B C 0.9146(4) 0.31143(12) 0.21235(15)
H1B H 0.9815 0.2770 0.2261
O3B O 0.4524(2) 0.46307(7) 0.14121(11)
C3B C 0.8957(3) 0.33409(12) 0.13376(15)
H2B H 0.9502 0.3150 0.0933
O4B O 0.6905(2) 0.51595(7) 0.16020(11)
O4A O 0.6905(2) 0.98405(7) 0.66020(11)
C4B C 0.7983(3) 0.38453(11) 0.11222(13)
O5B O 1.0742(4) 0.46115(16) 0.67451(18)
O5C O 0.9258(4) 0.96115(16) 0.82549(18)
O5B_2 O 0.0742(4) 0.46115(16) -0.32549(18)
C5B C 0.7209(3) 0.41258(10) 0.17229(13)
O6B O 0.9561(4) 0.38575(14) 0.72284(13)
O6C O 1.0439(4) 0.88575(14) 0.77716(13)
O6B_2 O -0.0439(4) 0.38575(14) -0.27716(13)
C6B C 0.7384(3) 0.38965(11) 0.25218(13)
H3B H 0.6845 0.4084 0.2931
O7B O 0.8472(3) 0.31043(8) 0.34653(10)
C7B C 0.7794(3) 0.40508(12) 0.02381(14)
O8C O 1.0946(2) 0.99011(8) 0.64445(11)
O8B O 0.9054(2) 0.49011(8) -0.14445(11)
O8B_2 O -0.0946(2) 0.49011(8) -0.14445(11)
C8B C 0.6162(3) 0.46785(10) 0.15516(12)
C9B C 0.8849(3) 0.33939(12) 0.42144(14)
C10B C 0.9615(4) 0.39373(13) 0.43144(15)
H4B H 0.9875 0.4149 0.3851
C11B C 1.0000(4) 0.41705(14) 0.51057(17)
H5B H 1.0552 0.4542 0.5182
C12B C 0.9596(4) 0.38733(14) 0.57856(15)
C13B C 0.8844(4) 0.33210(15) 0.56659(16)
H6B H 0.8578 0.3109 0.6128
C14B C 0.8480(4) 0.30770(14) 0.48885(16)
H7B H 0.7982 0.2697 0.4814
C15B C 0.9996(5) 0.4137(2) 0.66385(19)
C16B C 0.2813(4) 0.21043(13) -0.49305(18)
C17B C 0.3178(4) 0.15244(15) -0.47452(18)
H8B H 0.3794 0.1418 -0.4216
C18B C 0.2646(4) 0.10960(13) -0.53326(16)
H9B H 0.2931 0.0699 -0.5201
C19B C 0.1384(4) 0.17845(12) -0.62500(17)
H10B H 0.0740 0.1879 -0.6778
C20B C 0.1889(4) 0.22283(13) -0.57122(19)
H11B H 0.1613 0.2621 -0.5869
C21B C 0.3310(4) 0.26086(16) -0.4365(2)
H12B H 0.2973 0.2988 -0.4567
C22B C 0.4134(5) 0.25710(16) -0.3645(2)
H13B H 0.4432 0.2190 -0.3436
C23B C 0.4694(4) 0.30793(15) -0.3082(2)
C24B C 0.5645(5) 0.29616(16) -0.2327(2)
H14B H 0.5905 0.2569 -0.2164
C25B C 0.6226(5) 0.34137(14) -0.1805(2)
H15B H 0.6889 0.3320 -0.1281
C26B C 0.4960(4) 0.41025(14) -0.27167(16)
H16B H 0.4698 0.4499 -0.2857
C27B C 0.4327(4) 0.36597(17) -0.32863(18)
H17B H 0.3656 0.3758 -0.3806
H23C H 1.0588 1.0232 0.6167
H23B H 0.9412 0.5232 -0.1167
H23B_2 H -0.0588 0.5232 -0.1167
N3 N 0.3384(4) 0.34747(15) 0.30883(18)
C28 C 0.4444(4) 0.49796(16) 0.46457(19)
H18 H 0.3800 0.5322 0.4463
C29 C 0.4114(4) 0.44625(14) 0.41212(19)
C30 C 0.3073(4) 0.44968(16) 0.3340(2)
H19 H 0.2587 0.4862 0.3144
C31 C 0.2751(4) 0.40076(17) 0.2858(2)
H20 H 0.2041 0.4047 0.2331
C32 C 0.4370(4) 0.34444(16) 0.3836(2)
H21 H 0.4836 0.3074 0.4016
C33 C 0.4761(4) 0.39126(15) 0.43640(19)
H22 H 0.5468 0.3859 0.4890
N3B N 0.6616(4) 0.65253(15) 0.69117(18)
C28B C 0.5556(4) 0.50204(16) 0.53543(19)
H18B H 0.6200 0.4678 0.5537
C29B C 0.5886(4) 0.55375(14) 0.58788(19)
C30B C 0.6927(4) 0.55032(16) 0.6660(2)
H19B H 0.7413 0.5138 0.6856
C31B C 0.7249(4) 0.59924(17) 0.7142(2)
H20B H 0.7959 0.5953 0.7669
C32B C 0.5630(4) 0.65556(16) 0.6164(2)
H21B H 0.5164 0.6926 0.5984
C33B C 0.5239(4) 0.60874(15) 0.56360(19)
H22B H 0.4532 0.6141 0.5110
loop_
_geom_bond_atom_site_label_1
_geom_bond_atom_site_label_2
_geom_bond_site_symmetry_1
_geom_bond_site_symmetry_2
Zn1 O2 1_555 1_555
O1 C7 1_555 1_555
N1 Zn2 1_555 1_555
C1 C2 1_555 1_555
Zn2 O4A 1_555 1_555
O2 C7 1_555 1_555
N2 Zn1 1_555 1_555
C2 H1 1_555 1_555
O3 C8 1_555 1_555
N3 C31 1_555 1_555
C3 C2 1_555 1_555
H2 C3 1_555 1_555
O4 C8 1_555 1_555
C4 C3 1_555 1_555
O5 C15 1_555 1_555
C5 C4 1_555 1_555
O6 C15 1_555 1_555
C6 C1 1_555 1_555
H3 C6 1_555 1_555
O7 C1 1_555 1_555
C7 C4 1_555 1_555
O8 Zn1 1_555 1_555
C8 C5 1_555 1_555
C9 O7 1_555 1_555
C10 C9 1_555 1_555
H4 C10 1_555 1_555
C11 C10 1_555 1_555
H5 C11 1_555 1_555
C12 C11 1_555 1_555
C13 C12 1_555 1_555
H6 C13 1_555 1_555
C14 C9 1_555 1_555
H7 C14 1_555 1_555
C15 C12 1_555 1_555
C16 C17 1_555 1_555
C17 H8 1_555 1_555
C18 N1 1_555 1_555
H9 C18 1_555 1_555
C19 N1 1_555 1_555
H10 C19 1_555 1_555
C20 C16 1_555 1_555
H11 C20 1_555 1_555
C21 C16 1_555 1_555
H12 C21 1_555 1_555
C22 C21 1_555 1_555
H13 C22 1_555 1_555
C23 C22 1_555 1_555
C24 C23 1_555 1_555
H14 C24 1_555 1_555
C25 N2 1_555 1_555
H15 C25 1_555 1_555
C26 N2 1_555 1_555
H16 C26 1_555 1_555
C27 C23 1_555 1_555
H17 C27 1_555 1_555
C28 H18 1_555 1_555
C29 C28 1_555 1_555
C30 C29 1_555 1_555
H19 C30 1_555 1_555
C31 C30 1_555 1_555
H20 C31 1_555 1_555
C32 N3 1_555 1_555
H21 C32 1_555 1_555
C33 C29 1_555 1_555
H22 C33 1_555 1_555
H23 O8 1_555 1_555
Zn1B O3 1_555 1_555
Zn1C O8C 1_555 1_555
O1B C7B 1_555 1_555
N1B Zn2B 1_555 1_555
N1A Zn2A 1_555 1_555
C1B C2B 1_555 1_555
Zn2A O4 1_555 1_555
Zn2C O5 1_555 1_555
Zn2C_2 O8 1_555 1_555
Zn2C_3 O4B 1_555 1_555
Zn2A_2 O5B 1_555 1_555
O2B Zn1B 1_555 1_555
N2B Zn1B 1_555 1_555
C2B H1B 1_555 1_555
O3B Zn1 1_555 1_555
N3B C31B 1_555 1_555
C3B C2B 1_555 1_555
H2B C3B 1_555 1_555
O4B C8B 1_555 1_555
C4B C3B 1_555 1_555
O5B C15B 1_555 1_555
O5C Zn2 1_555 1_555
O5B_2 Zn2A 1_555 1_555
C5B C4B 1_555 1_555
O6B Zn2A_2 1_555 1_555
O6C Zn2 1_555 1_555
O6B_2 Zn2A 1_555 1_555
C6B C1B 1_555 1_555
H3B C6B 1_555 1_555
O7B C1B 1_555 1_555
C7B O2B 1_555 1_555
O8C Zn2 1_555 1_555
O8B Zn1B 1_555 1_555
O8B_2 Zn2A 1_555 1_555
C8B O3B 1_555 1_555
C9B O7B 1_555 1_555
C10B C9B 1_555 1_555
H4B C10B 1_555 1_555
C11B C10B 1_555 1_555
H5B C11B 1_555 1_555
C12B C11B 1_555 1_555
C13B C12B 1_555 1_555
H6B C13B 1_555 1_555
C14B C9B 1_555 1_555
H7B C14B 1_555 1_555
C15B O6B 1_555 1_555
C16B C17B 1_555 1_555
C17B H8B 1_555 1_555
C18B N1B 1_555 1_555
H9B C18B 1_555 1_555
C19B N1B 1_555 1_555
H10B C19B 1_555 1_555
C20B C16B 1_555 1_555
H11B C20B 1_555 1_555
C21B C16B 1_555 1_555
H12B C21B 1_555 1_555
C22B C21B 1_555 1_555
H13B C22B 1_555 1_555
C23B C22B 1_555 1_555
C24B C23B 1_555 1_555
H14B C24B 1_555 1_555
C25B N2B 1_555 1_555
H15B C25B 1_555 1_555
C26B N2B 1_555 1_555
H16B C26B 1_555 1_555
C27B C23B 1_555 1_555
H17B C27B 1_555 1_555
C28B C28 1_555 1_555
H18B C28B 1_555 1_555
C29B C28B 1_555 1_555
C30B C29B 1_555 1_555
H19B C30B 1_555 1_555
C31B C30B 1_555 1_555
H20B C31B 1_555 1_555
C32B N3B 1_555 1_555
H21B C32B 1_555 1_555
C33B C29B 1_555 1_555
H22B C33B 1_555 1_555
H23C O8C 1_555 1_555
H23B O8B 1_555 1_555
H23B_2 O8B_2 1_555 1_555
C5 C6 1_555 1_555
O6 Zn2C 1_555 1_555
C13 C14 1_555 1_555
C17 C18 1_555 1_555
C19 C20 1_555 1_555
C24 C25 1_555 1_555
C26 C27 1_555 1_555
C32 C33 1_555 1_555
C4B C7B 1_555 1_555
C5B C6B 1_555 1_555
C5B C8B 1_555 1_555
C12B C15B 1_555 1_555
C13B C14B 1_555 1_555
C17B C18B 1_555 1_555
C19B C20B 1_555 1_555
C24B C25B 1_555 1_555
C26B C27B 1_555 1_555
C32B C33B 1_555 1_555

#END
