
#######################################################################
#
#                 Cambridge Crystallographic Data Centre
#                                CCDC 
#
#######################################################################
#
# If this CIF has been generated from an entry in the Cambridge 
# Structural Database, then it will include bibliographic, chemical, 
# crystal, experimental, refinement or atomic coordinate data resulting 
# from the CCDC's data processing and validation procedures.
#
#######################################################################

data_ZEFLIH
_symmetry_cell_setting           triclinic
_symmetry_space_group_name_H-M   'P -1'
_symmetry_Int_Tables_number      2
_space_group_name_Hall           '-P 1'
loop_
_symmetry_equiv_pos_site_id
_symmetry_equiv_pos_as_xyz
1 x,y,z
2 -x,-y,-z
_cell_length_a                   11.697(2)
_cell_length_b                   14.521(3)
_cell_length_c                   14.760(3)
_cell_angle_alpha                73.646(4)
_cell_angle_beta                 73.937(5)
_cell_angle_gamma                87.731(7)
_cell_volume                     2309.67
loop_
_atom_site_label
_atom_site_type_symbol
_atom_site_fract_x
_atom_site_fract_y
_atom_site_fract_z
Zn1 Zn -0.19362(3) -0.00218(3) 0.42710(3)
Zn2 Zn -0.32803(3) 0.05351(3) 0.60333(3)
O1 O -0.15627(18) 0.10441(15) 0.48367(15)
O2 O 0.10867(18) 0.08963(15) 0.47354(15)
O3 O -0.41187(18) 0.12780(16) 0.50509(15)
O4 O -0.30209(19) 0.09949(16) 0.36404(16)
O5 O 0.22859(19) 0.05120(16) 0.34183(15)
O6 O -0.65316(19) 0.06915(17) 0.48370(17)
O7 O -0.3764(2) 0.40371(17) 0.12039(17)
O8 O -0.2874(2) 0.1663(2) 0.64912(19)
O9 O -0.0991(2) 0.23891(17) 0.50354(18)
O10 O 0.1191(2) 0.38033(19) -0.17271(19)
O11 O 0.6963(2) 0.3908(2) -0.1820(2)
O12 O 0.1590(2) 0.3007(2) 0.05006(17)
O13 O 0.6825(2) 0.2425(2) -0.1948(2)
O14 O -0.7194(2) 0.1917(2) 0.54253(19)
O15 O 0.0660(2) 0.2239(2) -0.1284(2)
N1 N -0.0796(2) -0.00525(19) 0.29885(18)
N2 N 0.5255(3) 0.0125(2) -0.2748(2)
C1 C 0.2639(4) -0.0296(3) 0.0031(3)
H1 H 0.2846 -0.0711 0.0563
C2 C 0.5416(4) -0.0393(3) -0.1893(3)
H2 H 0.6152 -0.0665 -0.1905
C3 C 0.4202(3) 0.0498(3) -0.2726(3)
H3 H 0.4052 0.0845 -0.3312
C4 C 0.4596(4) -0.0552(4) -0.1013(3)
H4 H 0.4768 -0.0931 -0.0448
C5 C 0.3514(4) -0.0155(3) -0.0959(3)
C6 C 0.3308(3) 0.0383(3) -0.1844(3)
H5 H 0.2579 0.0663 -0.1845
C7 C -0.4516(3) 0.2112(2) 0.3551(2)
C8 C 0.1471(3) 0.0983(2) 0.3827(2)
C9 C -0.6536(3) 0.1585(3) 0.4800(2)
C10 C 0.0927(3) 0.1724(2) 0.3153(2)
C11 C 0.1554(3) 0.2043(2) 0.2160(2)
H6 H 0.2293 0.1801 0.1936
C12 C -0.0939(3) 0.1818(2) 0.4542(2)
C13 C -0.3845(3) 0.1390(2) 0.4132(2)
C14 C -0.0839(3) 0.0590(3) 0.2152(2)
H7 H -0.1436 0.1032 0.2179
C15 C -0.3859(3) 0.2699(2) 0.2650(2)
H8 H -0.3046 0.2619 0.2428
C16 C -0.0055(3) 0.0637(3) 0.1257(2)
H9 H -0.0123 0.1099 0.0694
C17 C -0.6255(3) 0.2956(2) 0.3304(2)
H10 H -0.7064 0.3051 0.3526
C18 C -0.5596(3) 0.3538(2) 0.2407(3)
H11 H -0.5959 0.4017 0.2028
C19 C -0.5733(3) 0.2237(2) 0.3875(2)
C20 C -0.0616(3) 0.2789(2) 0.2820(2)
H12 H -0.1345 0.3049 0.3039
C21 C 0.6410(3) 0.3101(3) -0.1645(3)
C22 C -0.1592(3) 0.2641(3) -0.0128(3)
H13 H -0.1516 0.2031 -0.0219
C23 C -0.0669(3) 0.3316(3) -0.0607(2)
C24 C -0.2733(3) 0.3749(2) 0.0643(2)
C25 C -0.0169(3) 0.2111(2) 0.3487(2)
C26 C 0.0458(3) 0.3057(3) -0.1245(3)
C27 C 0.0841(3) -0.0015(3) 0.1203(3)
C28 C -0.4404(3) 0.3400(2) 0.2084(2)
C29 C -0.1818(3) 0.4437(3) 0.0168(3)
H14 H -0.1891 0.5043 0.0270
C30 C -0.2628(3) 0.2855(3) 0.0485(3)
H15 H -0.3252 0.2397 0.0789
C31 C -0.0798(3) 0.4222(3) -0.0457(3)
H16 H -0.0188 0.4689 -0.0782
C32 C 0.5166(3) 0.3029(3) -0.0989(2)
C33 C 0.1081(3) 0.2713(3) 0.1513(2)
C34 C 0.1680(4) 0.0081(3) 0.0210(3)
H17 H 0.1451 0.0465 -0.0326
C35 C 0.2812(3) 0.2954(3) 0.0091(2)
C36 C 0.3611(3) 0.3569(3) 0.0180(3)
H18 H 0.3369 0.3946 0.0609
C37 C -0.0005(3) 0.3087(2) 0.1837(3)
H19 H -0.0324 0.3538 0.1397
C38 C 0.0067(3) -0.0678(3) 0.2944(3)
H20 H 0.0118 -0.1127 0.3520
C39 C 0.0891(3) -0.0680(3) 0.2068(3)
H21 H 0.1480 -0.1129 0.2061
C40 C 0.4786(3) 0.3618(3) -0.0382(3)
H22 H 0.5325 0.4053 -0.0350
C41 C 0.4355(3) 0.2387(3) -0.1025(3)
H23 H 0.4605 0.1965 -0.1405
C42 C 0.3175(3) 0.2364(3) -0.0501(3)
H24 H 0.2627 0.1947 -0.0550
H35 H 0.1890 0.3580 -0.2036
H36 H -0.3255 0.1949 0.6955
H37 H 0.7689 0.3957 -0.2268
H38 H -0.2122 0.1952 0.6150
Zn1A Zn 0.19362(3) 0.00218(3) 0.57290(3)
Zn1A_2 Zn -0.80638(3) 0.00218(3) 0.57290(3)
Zn2A Zn 0.32803(3) -0.05351(3) 0.39667(3)
Zn2_2 Zn 0.67197(3) 0.05351(3) -0.39667(3)
O2A O -0.10867(18) -0.08963(15) 0.52646(15)
O5A O -0.22859(19) -0.05120(16) 0.65817(15)
O6A O -0.34684(19) -0.06915(17) 0.51630(17)
N2_2 N -0.4745(3) 0.0125(2) 0.7252(2)
N3 N 0.6710(3) 0.6260(2) 0.2891(2)
N4 N -0.0960(3) 0.4149(2) 0.6957(2)
C43 C -0.0323(3) 0.3493(3) 0.6595(3)
H25 H -0.0649 0.2871 0.6785
C44 C 0.1304(3) 0.4615(3) 0.5643(3)
C45 C 0.5028(3) 0.6634(3) 0.4050(3)
H26 H 0.4694 0.7047 0.4424
C46 C 0.4362(3) 0.5854(3) 0.4092(3)
C47 C 0.4914(4) 0.5285(3) 0.3503(3)
H27 H 0.4507 0.4750 0.3497
C48 C 0.3142(3) 0.5641(3) 0.4742(3)
H28 H 0.2782 0.6122 0.5013
C49 C -0.0489(3) 0.5041(3) 0.6658(3)
H29 H -0.0929 0.5509 0.6902
C50 C 0.6070(4) 0.5511(3) 0.2925(3)
H30 H 0.6420 0.5115 0.2537
C51 C 0.2513(3) 0.4837(3) 0.4978(3)
H31 H 0.2867 0.4362 0.4695
C52 C 0.0616(3) 0.5300(3) 0.6005(3)
H32 H 0.0903 0.5934 0.5807
C53 C 0.6187(3) 0.6809(3) 0.3459(3)
H33 H 0.6620 0.7333 0.3459
C54 C 0.0806(3) 0.3692(3) 0.5946(3)
H34 H 0.1227 0.3208 0.5717
loop_
_geom_bond_atom_site_label_1
_geom_bond_atom_site_label_2
_geom_bond_site_symmetry_1
_geom_bond_site_symmetry_2
Zn1 O1 1_555 1_555
Zn2 O1 1_555 1_555
O1 C12 1_555 1_555
O2 C8 1_555 1_555
O3 Zn2 1_555 1_555
O4 Zn1 1_555 1_555
O5 C8 1_555 1_555
O6 C9 1_555 1_555
O7 C24 1_555 1_555
O8 Zn2 1_555 1_555
O9 C12 1_555 1_555
O10 C26 1_555 1_555
O11 C21 1_555 1_555
O12 C33 1_555 1_555
O13 C21 1_555 1_555
O14 C9 1_555 1_555
O15 C26 1_555 1_555
N1 Zn1 1_555 1_555
N2 C2 1_555 1_555
C1 H1 1_555 1_555
C2 H2 1_555 1_555
C3 N2 1_555 1_555
H3 C3 1_555 1_555
C4 C2 1_555 1_555
H4 C4 1_555 1_555
C5 C1 1_555 1_555
C6 C3 1_555 1_555
H5 C6 1_555 1_555
C7 C13 1_555 1_555
C8 C10 1_555 1_555
C9 C19 1_555 1_555
C10 C11 1_555 1_555
C11 H6 1_555 1_555
C12 C25 1_555 1_555
C13 O3 1_555 1_555
C14 N1 1_555 1_555
H7 C14 1_555 1_555
C15 C7 1_555 1_555
H8 C15 1_555 1_555
C16 C14 1_555 1_555
H9 C16 1_555 1_555
C17 H10 1_555 1_555
C18 C17 1_555 1_555
H11 C18 1_555 1_555
C19 C7 1_555 1_555
C20 H12 1_555 1_555
C21 C32 1_555 1_555
C22 H13 1_555 1_555
C23 C22 1_555 1_555
C24 C29 1_555 1_555
C25 C10 1_555 1_555
C26 C23 1_555 1_555
C27 C16 1_555 1_555
C28 O7 1_555 1_555
C29 H14 1_555 1_555
C30 C22 1_555 1_555
H15 C30 1_555 1_555
C31 C23 1_555 1_555
H16 C31 1_555 1_555
C32 C40 1_555 1_555
C33 C11 1_555 1_555
C34 C1 1_555 1_555
H17 C34 1_555 1_555
C35 O12 1_555 1_555
C36 C35 1_555 1_555
H18 C36 1_555 1_555
C37 C20 1_555 1_555
H19 C37 1_555 1_555
C38 N1 1_555 1_555
H20 C38 1_555 1_555
C39 C27 1_555 1_555
H21 C39 1_555 1_555
C40 C36 1_555 1_555
H22 C40 1_555 1_555
C41 C32 1_555 1_555
H23 C41 1_555 1_555
C42 C35 1_555 1_555
H24 C42 1_555 1_555
N3 C50 1_555 1_555
N4 C43 1_555 1_555
C43 H25 1_555 1_555
C44 C51 1_555 1_555
C45 H26 1_555 1_555
C46 C45 1_555 1_555
C47 C46 1_555 1_555
H27 C47 1_555 1_555
C48 C46 1_555 1_555
H28 C48 1_555 1_555
C49 N4 1_555 1_555
H29 C49 1_555 1_555
C50 C47 1_555 1_555
H30 C50 1_555 1_555
C51 C48 1_555 1_555
H31 C51 1_555 1_555
C52 C44 1_555 1_555
H32 C52 1_555 1_555
C53 N3 1_555 1_555
H33 C53 1_555 1_555
C54 C43 1_555 1_555
H34 C54 1_555 1_555
H35 O10 1_555 1_555
H36 O8 1_555 1_555
H37 O11 1_555 1_555
H38 O8 1_555 1_555
Zn1A O2 1_555 1_555
Zn1A_2 O6 1_555 1_555
Zn2A O5 1_555 1_555
Zn2_2 N2 1_555 1_555
O2A Zn1 1_555 1_555
O5A Zn2 1_555 1_555
O6A Zn1 1_555 1_555
N2_2 Zn2 1_555 1_555
O4 C13 1_555 1_555
C4 C5 1_555 1_555
C5 C6 1_555 1_555
C15 C28 1_555 1_555
C17 C19 1_555 1_555
C18 C28 1_555 1_555
C20 C25 1_555 1_555
C24 C30 1_555 1_555
C27 C34 1_555 1_555
C29 C31 1_555 1_555
C33 C37 1_555 1_555
C38 C39 1_555 1_555
C41 C42 1_555 1_555
C44 C54 1_555 1_555
C45 C53 1_555 1_555
C49 C52 1_555 1_555

#END
