
#######################################################################
#
#                 Cambridge Crystallographic Data Centre
#                                CCDC 
#
#######################################################################
#
# If this CIF has been generated from an entry in the Cambridge 
# Structural Database, then it will include bibliographic, chemical, 
# crystal, experimental, refinement or atomic coordinate data resulting 
# from the CCDC's data processing and validation procedures.
#
#######################################################################

data_ZEFLAZ
_symmetry_cell_setting           monoclinic
_symmetry_space_group_name_H-M   'C 2/c'
_symmetry_Int_Tables_number      15
_space_group_name_Hall           '-C 2yn'
loop_
_symmetry_equiv_pos_site_id
_symmetry_equiv_pos_as_xyz
1 x,y,z
2 -x,y,1/2-z
3 1/2+x,1/2+y,z
4 1/2-x,1/2+y,1/2-z
5 -x,-y,-z
6 x,-y,1/2+z
7 1/2-x,1/2-y,-z
8 1/2+x,1/2-y,1/2+z
_cell_length_a                   15.0926(18)
_cell_length_b                   16.9747(18)
_cell_length_c                   14.4400(16)
_cell_angle_alpha                90
_cell_angle_beta                 120.52(4)
_cell_angle_gamma                90
_cell_volume                     3186.87
loop_
_atom_site_label
_atom_site_type_symbol
_atom_site_fract_x
_atom_site_fract_y
_atom_site_fract_z
Co1 Co 0.40962(11) 0.12337(9) 0.29240(11)
Br1 Br 0.07480(10) 0.09838(10) -0.31628(10)
Br2 Br 0.67375(14) 0.15231(12) 0.89262(12)
O1 O 0.3322(5) 0.0812(5) 0.1332(6)
O2 O 0.4906(5) 0.1759(4) 0.4508(6)
O3 O 0.5909(6) 0.2632(5) 0.4278(6)
O4 O 0.4750(6) 0.0393(5) 0.1388(6)
N1 N 0.3247(6) -0.0459(5) -0.1642(7)
N2 N 0.7876(7) 0.2922(5) 0.7461(7)
C1 C 0.3651(9) -0.0275(7) -0.0602(8)
H1 H 0.4247 -0.0532 -0.0098
C2 C 0.7208(9) 0.2798(7) 0.6414(8)
H2 H 0.7327 0.3040 0.5909
C3 C 0.3222(8) 0.0286(6) -0.0235(8)
C4 C 0.6346(9) 0.2322(6) 0.6052(8)
C5 C 0.2282(8) 0.0631(7) -0.1001(9)
H3 H 0.1929 0.0968 -0.0793
C6 C 0.6178(10) 0.1926(8) 0.6790(10)
H4 H 0.5621 0.1589 0.6573
C7 C 0.1904(8) 0.0452(7) -0.2068(8)
C8 C 0.6888(10) 0.2060(8) 0.7875(9)
C9 C 0.2385(9) -0.0100(7) -0.2357(9)
H5 H 0.2097 -0.0227 -0.3080
C10 C 0.7709(10) 0.2546(7) 0.8177(10)
H6 H 0.8170 0.2621 0.8906
C11 C 0.3812(9) 0.0514(6) 0.0928(9)
C12 C 0.5657(9) 0.2230(7) 0.4853(9)
O5 O 0.5000 0.1930(6) 0.2500
H7 H 0.4552 0.2266 0.1899
Co1A Co 0.59038(11) 0.12337(9) 0.20760(11)
Co1E Co 0.40962(11) -0.12337(9) -0.20760(11)
Co1G Co 0.90962(11) 0.37663(9) 0.79240(11)
Co1D Co 0.59038(11) -0.12337(9) 0.70760(11)
Co1G_2 Co -0.09038(11) 0.37663(9) -0.20760(11)
Br1A Br 0.92520(10) 0.09838(10) 0.81628(10)
Br2G Br 0.17375(14) 0.34769(12) 0.39262(12)
O1A O 0.6678(5) 0.0812(5) 0.3668(6)
O2G O -0.0094(5) 0.3241(4) -0.0492(6)
O2A O 0.5094(5) 0.1759(4) 0.0492(6)
O3G O 0.0909(6) 0.2368(5) -0.0722(6)
O4A O 0.5250(6) 0.0393(5) 0.3612(6)
N1A N 0.6753(6) -0.0459(5) 0.6642(7)
N1E N 0.3247(6) 0.0459(5) 0.3358(7)
N1D N 0.6753(6) 0.0459(5) 0.1642(7)
N2G N 0.2876(7) 0.2078(5) 0.2461(7)
N2F N 0.7124(7) 0.2078(5) 0.2539(7)
C1A C 0.6349(9) -0.0275(7) 0.5602(8)
H1A H 0.5753 -0.0532 0.5098
C2G C 0.2208(9) 0.2202(7) 0.1414(8)
H2G H 0.2327 0.1960 0.0909
C3A C 0.6778(8) 0.0286(6) 0.5235(8)
C4G C 0.1346(9) 0.2678(6) 0.1052(8)
C5A C 0.7718(8) 0.0631(7) 0.6001(9)
H3A H 0.8071 0.0968 0.5793
C6G C 0.1178(10) 0.3074(8) 0.1790(10)
H4G H 0.0621 0.3411 0.1573
C7A C 0.8096(8) 0.0452(7) 0.7068(8)
C8G C 0.1888(10) 0.2940(8) 0.2875(9)
C9A C 0.7615(9) -0.0100(7) 0.7357(9)
H5A H 0.7903 -0.0227 0.8080
C10G C 0.2709(10) 0.2454(7) 0.3177(10)
H6G H 0.3170 0.2379 0.3906
C11A C 0.6188(9) 0.0514(6) 0.4072(9)
C12G C 0.0657(9) 0.2770(7) -0.0147(9)
H7A H 0.5448 0.2266 0.3101
loop_
_geom_bond_atom_site_label_1
_geom_bond_atom_site_label_2
_geom_bond_site_symmetry_1
_geom_bond_site_symmetry_2
Co1 O1 1_555 1_555
Br1 C7 1_555 1_555
Br2 C8 1_555 1_555
O1 C11 1_555 1_555
O2 Co1 1_555 1_555
O3 C12 1_555 1_555
O4 C11 1_555 1_555
N1 C1 1_555 1_555
N2 C2 1_555 1_555
C1 H1 1_555 1_555
C2 H2 1_555 1_555
C3 C1 1_555 1_555
C4 C2 1_555 1_555
C5 C3 1_555 1_555
H3 C5 1_555 1_555
C6 C4 1_555 1_555
H4 C6 1_555 1_555
C7 C5 1_555 1_555
C8 C6 1_555 1_555
C9 N1 1_555 1_555
H5 C9 1_555 1_555
C10 N2 1_555 1_555
H6 C10 1_555 1_555
C11 C3 1_555 1_555
C12 O2 1_555 1_555
O5 Co1 1_555 1_555
H7 O5 1_555 1_555
Co1A O4 1_555 1_555
Co1E N1 1_555 1_555
Co1G N2 1_555 1_555
Co1D N1A 1_555 1_555
Co1G_2 O2G 1_555 1_555
Br1A C7A 1_555 1_555
Br2G C8G 1_555 1_555
O1A Co1A 1_555 1_555
O2G C12G 1_555 1_555
O2A Co1A 1_555 1_555
O3G C12G 1_555 1_555
O4A Co1 1_555 1_555
N1A C1A 1_555 1_555
N1E Co1 1_555 1_555
N1D Co1A 1_555 1_555
N2G Co1 1_555 1_555
N2F Co1A 1_555 1_555
C1A H1A 1_555 1_555
C2G N2G 1_555 1_555
H2G C2G 1_555 1_555
C3A C1A 1_555 1_555
C4G C2G 1_555 1_555
C5A C3A 1_555 1_555
H3A C5A 1_555 1_555
C6G C4G 1_555 1_555
H4G C6G 1_555 1_555
C7A C5A 1_555 1_555
C8G C6G 1_555 1_555
C9A N1A 1_555 1_555
H5A C9A 1_555 1_555
C10G N2G 1_555 1_555
H6G C10G 1_555 1_555
C11A O1A 1_555 1_555
C12G C4G 1_555 1_555
H7A O5 1_555 1_555
C4 C12 1_555 1_555
C7 C9 1_555 1_555
C8 C10 1_555 1_555
O5 Co1A 1_555 1_555
O4A C11A 1_555 1_555
C3A C11A 1_555 1_555
C7A C9A 1_555 1_555
C8G C10G 1_555 1_555

#END
