
#######################################################################
#
#                 Cambridge Crystallographic Data Centre
#                                CCDC 
#
#######################################################################
#
# If this CIF has been generated from an entry in the Cambridge 
# Structural Database, then it will include bibliographic, chemical, 
# crystal, experimental, refinement or atomic coordinate data resulting 
# from the CCDC's data processing and validation procedures.
#
#######################################################################

data_ZEFNIH01
_symmetry_cell_setting           monoclinic
_symmetry_space_group_name_H-M   'C 2/c'
_symmetry_Int_Tables_number      15
_space_group_name_Hall           '-C 2yn'
loop_
_symmetry_equiv_pos_site_id
_symmetry_equiv_pos_as_xyz
1 x,y,z
2 1/2+x,1/2+y,z
3 x,-y,1/2+z
4 1/2+x,1/2-y,1/2+z
5 -x,-y,-z
6 1/2-x,1/2-y,-z
7 -x,y,1/2-z
8 1/2-x,1/2+y,1/2-z
_cell_length_a                   18.825(4)
_cell_length_b                   3.7700(8)
_cell_length_c                   11.179(2)
_cell_angle_alpha                90
_cell_angle_beta                 94.56(3)
_cell_angle_gamma                90
_cell_volume                     790.865
loop_
_atom_site_label
_atom_site_type_symbol
_atom_site_fract_x
_atom_site_fract_y
_atom_site_fract_z
K1 K 0.0000 0.3441(4) 0.2500
O1 O 0.08687(11) 0.8212(8) 0.1571(2)
O2 O 0.06011(13) 0.9587(9) -0.0342(2)
C1 C 0.10416(17) 0.8609(11) 0.0544(4)
C2 C 0.17938(16) 0.8014(10) 0.0236(3)
C3 C 0.20168(19) 0.8936(11) -0.0875(4)
H1 H 0.1735(17) 0.987(9) -0.151(3)
C4 C 0.22783(18) 0.6576(12) 0.1104(4)
H2 H 0.2123(17) 0.597(9) 0.183(3)
H3 H 0.0168(17) 0.92(2) -0.023(7)
C4E C 0.27217(18) 0.8424(12) -0.1104(4)
C2E C 0.32062(16) 0.6986(10) -0.0236(3)
C1E C 0.39584(17) 0.6391(11) -0.0544(4)
O1E O 0.41313(11) 0.6788(8) -0.1571(2)
K1E K 0.5000 1.1559(4) -0.2500
O1C O 0.58687(11) 0.6788(8) -0.3429(2)
C1C C 0.60416(17) 0.6391(11) -0.4456(4)
O2C O 0.56011(13) 0.5413(9) -0.5342(2)
H3C H 0.5168(17) 0.58(2) -0.523(7)
C2C C 0.67938(16) 0.6986(10) -0.4764(3)
C3C C 0.70168(19) 0.6064(11) -0.5875(4)
H1C H 0.6735(17) 0.513(9) -0.651(3)
C4F C 0.77217(18) 0.6576(12) -0.6104(4)
C2F C 0.82062(16) 0.8014(10) -0.5236(3)
C1F C 0.89584(17) 0.8609(11) -0.5544(4)
O1F O 0.91313(11) 0.8212(8) -0.6571(2)
K1F K 1.0000 0.3441(4) -0.7500
O1_2 O 1.08687(11) 0.8212(8) -0.8429(2)
O2F O 0.93989(13) 0.9587(9) -0.4658(2)
H3F H 0.9832(17) 0.92(2) -0.477(7)
C3F C 0.79832(19) 0.8936(11) -0.4125(4)
H1F H 0.8265(17) 0.987(9) -0.349(3)
C4C C 0.72783(18) 0.8424(12) -0.3896(4)
H2C H 0.7123(17) 0.903(9) -0.317(3)
H2F H 0.7877(17) 0.597(9) -0.683(3)
O2E O 0.43989(13) 0.5413(9) 0.0342(2)
H3E H 0.4832(17) 0.58(2) 0.023(7)
C3E C 0.29832(19) 0.6064(11) 0.0875(4)
H1E H 0.3265(17) 0.513(9) 0.151(3)
H2E H 0.2877(17) 0.903(9) -0.183(3)
O1F_2 O -0.08687(11) 0.8212(8) 0.3429(2)
C1_2 C 1.10416(17) 0.8609(11) -0.9456(4)
C1F_2 C -0.10416(17) 0.8609(11) 0.4456(4)
O2_2 O 1.06011(13) 0.9587(9) -1.0342(2)
C2_2 C 1.17938(16) 0.8014(10) -0.9764(3)
O2F_2 O -0.06011(13) 0.9587(9) 0.5342(2)
C2F_2 C -0.17938(16) 0.8014(10) 0.4764(3)
loop_
_geom_bond_atom_site_label_1
_geom_bond_atom_site_label_2
_geom_bond_site_symmetry_1
_geom_bond_site_symmetry_2
K1 O1 1_555 1_555
O1 C1 1_555 1_555
O2 C1 1_555 1_555
C1 C2 1_555 1_555
C2 C3 1_555 1_555
C3 H1 1_555 1_555
C4 C2 1_555 1_555
H2 C4 1_555 1_555
H3 O2 1_555 1_555
C4E C3 1_555 1_555
C2E C4E 1_555 1_555
C1E C2E 1_555 1_555
O1E C1E 1_555 1_555
K1E O1E 1_555 1_555
O1C K1E 1_555 1_555
C1C O1C 1_555 1_555
O2C C1C 1_555 1_555
H3C O2C 1_555 1_555
C2C C1C 1_555 1_555
C3C C2C 1_555 1_555
H1C C3C 1_555 1_555
C4F C3C 1_555 1_555
C2F C4F 1_555 1_555
C1F C2F 1_555 1_555
O1F C1F 1_555 1_555
K1F O1F 1_555 1_555
O1_2 K1F 1_555 1_555
O2F C1F 1_555 1_555
H3F O2F 1_555 1_555
C3F C2F 1_555 1_555
H1F C3F 1_555 1_555
C4C C2C 1_555 1_555
H2C C4C 1_555 1_555
H2F C4F 1_555 1_555
O2E C1E 1_555 1_555
H3E O2E 1_555 1_555
C3E C4 1_555 1_555
H1E C3E 1_555 1_555
H2E C4E 1_555 1_555
O1F_2 K1 1_555 1_555
C1_2 O1_2 1_555 1_555
C1F_2 O1F_2 1_555 1_555
O2_2 C1_2 1_555 1_555
C2_2 C1_2 1_555 1_555
O2F_2 C1F_2 1_555 1_555
C2F_2 C1F_2 1_555 1_555
C2E C3E 1_555 1_555
C3F C4C 1_555 1_555

#END
