
#######################################################################
#
#                 Cambridge Crystallographic Data Centre
#                                CCDC 
#
#######################################################################
#
# If this CIF has been generated from an entry in the Cambridge 
# Structural Database, then it will include bibliographic, chemical, 
# crystal, experimental, refinement or atomic coordinate data resulting 
# from the CCDC's data processing and validation procedures.
#
#######################################################################

data_ZEFQUY
_symmetry_cell_setting           monoclinic
_symmetry_space_group_name_H-M   'P 21/c'
_symmetry_Int_Tables_number      14
_space_group_name_Hall           '-P 2ybc'
loop_
_symmetry_equiv_pos_site_id
_symmetry_equiv_pos_as_xyz
1 x,y,z
2 -x,1/2+y,1/2-z
3 -x,-y,-z
4 x,1/2-y,1/2+z
_cell_length_a                   11.582(2)
_cell_length_b                   15.457(3)
_cell_length_c                   14.730(3)
_cell_angle_alpha                90
_cell_angle_beta                 92.69(3)
_cell_angle_gamma                90
_cell_volume                     2634.1
loop_
_atom_site_label
_atom_site_type_symbol
_atom_site_fract_x
_atom_site_fract_y
_atom_site_fract_z
Hg1 Hg -0.14719(3) 0.14777(3) -0.22323(3)
Hg2 Hg 0.68714(3) 0.64785(3) -0.33383(3)
Cl1 Cl -0.1469(4) 0.1491(3) -0.3822(2)
Cl2 Cl -0.2549(2) 0.1392(2) -0.09117(18)
Cl3 Cl 0.8006(2) 0.6413(2) -0.46241(18)
Cl4 Cl 0.6894(3) 0.6521(2) -0.17239(19)
N1 N 0.5657(6) 0.5254(5) -0.3560(5)
N2 N 0.3230(7) 0.4222(6) -0.2501(6)
N3 N -0.0112(6) 0.2599(6) -0.1756(6)
N4 N -0.0166(6) 0.0272(5) -0.1918(5)
N5 N 0.2988(7) -0.1439(7) -0.2873(6)
N6 N 0.5558(6) -0.2388(6) -0.3769(6)
C1 C 0.4774(8) 0.5076(7) -0.3028(7)
H1 H 0.4596 0.5470 -0.2578
C2 C 0.5941(7) 0.4667(6) -0.4183(6)
H2 H 0.6549 0.4787 -0.4554
C3 C 0.5359(8) 0.3893(7) -0.4291(7)
H3 H 0.5579 0.3489 -0.4718
C4 C 0.4432(8) 0.3733(6) -0.3744(6)
H4 H 0.4022 0.3217 -0.3803
C5 C 0.4128(8) 0.4339(6) -0.3121(7)
C6 C 0.2417(8) 0.3708(6) -0.2701(7)
H5 H 0.2385 0.3450 -0.3273
C7 C 0.1513(7) 0.3497(8) -0.2063(7)
C8 C 0.1445(10) 0.3895(8) -0.1232(8)
H6 H 0.1967 0.4326 -0.1051
C9 C 0.0580(10) 0.3638(8) -0.0671(8)
H7 H 0.0506 0.3900 -0.0109
C10 C -0.0158(10) 0.2999(8) -0.0953(8)
H8 H -0.0728 0.2830 -0.0565
C11 C 0.0726(8) 0.2866(7) -0.2306(7)
H9 H 0.0767 0.2609 -0.2875
C12 C 0.0694(8) 0.0087(7) -0.2457(7)
H10 H 0.0786 0.0431 -0.2966
C13 C -0.0281(8) -0.0212(7) -0.1178(6)
H11 H -0.0879 -0.0087 -0.0799
C14 C 0.0445(8) -0.0886(7) -0.0954(7)
H12 H 0.0347 -0.1203 -0.0426
C15 C 0.1333(8) -0.1094(7) -0.1523(7)
H13 H 0.1829 -0.1554 -0.1389
C16 C 0.1457(7) -0.0593(7) -0.2295(7)
C17 C 0.2355(8) -0.0771(7) -0.2930(7)
H14 H 0.2469 -0.0379 -0.3395
C18 C 0.3877(8) -0.1572(8) -0.3487(7)
C19 C 0.3997(11) -0.1141(10) -0.4299(9)
H15 H 0.3458 -0.0723 -0.4481
C20 C 0.4906(12) -0.1321(11) -0.4845(10)
H16 H 0.4994 -0.1038 -0.5395
C21 C 0.5688(8) -0.1953(7) -0.4523(7)
H17 H 0.6329 -0.2071 -0.4858
C22 C 0.4666(8) -0.2202(6) -0.3264(7)
H18 H 0.4577 -0.2518 -0.2734
Hg2_2 Hg 0.68714(3) -0.35215(3) -0.33383(3)
N6_2 N 0.5558(6) 0.7612(6) -0.3769(6)
loop_
_geom_bond_atom_site_label_1
_geom_bond_atom_site_label_2
_geom_bond_site_symmetry_1
_geom_bond_site_symmetry_2
Hg1 Cl1 1_555 1_555
Hg2 Cl3 1_555 1_555
Cl2 Hg1 1_555 1_555
Cl4 Hg2 1_555 1_555
N1 Hg2 1_555 1_555
N2 C5 1_555 1_555
N3 Hg1 1_555 1_555
N4 Hg1 1_555 1_555
N5 C17 1_555 1_555
N6 C21 1_555 1_555
C1 N1 1_555 1_555
H1 C1 1_555 1_555
C2 N1 1_555 1_555
H2 C2 1_555 1_555
C3 C2 1_555 1_555
H3 C3 1_555 1_555
C4 C3 1_555 1_555
H4 C4 1_555 1_555
C5 C1 1_555 1_555
C6 N2 1_555 1_555
H5 C6 1_555 1_555
C7 C6 1_555 1_555
C8 C7 1_555 1_555
H6 C8 1_555 1_555
C9 C8 1_555 1_555
H7 C9 1_555 1_555
C10 N3 1_555 1_555
H8 C10 1_555 1_555
C11 N3 1_555 1_555
H9 C11 1_555 1_555
C12 N4 1_555 1_555
H10 C12 1_555 1_555
C13 N4 1_555 1_555
H11 C13 1_555 1_555
C14 C13 1_555 1_555
H12 C14 1_555 1_555
C15 C14 1_555 1_555
H13 C15 1_555 1_555
C16 C12 1_555 1_555
C17 C16 1_555 1_555
H14 C17 1_555 1_555
C18 N5 1_555 1_555
C19 C18 1_555 1_555
H15 C19 1_555 1_555
C20 C19 1_555 1_555
H16 C20 1_555 1_555
C21 C20 1_555 1_555
H17 C21 1_555 1_555
C22 N6 1_555 1_555
H18 C22 1_555 1_555
Hg2_2 N6 1_555 1_555
N6_2 Hg2 1_555 1_555
C4 C5 1_555 1_555
C7 C11 1_555 1_555
C9 C10 1_555 1_555
C15 C16 1_555 1_555
C18 C22 1_555 1_555

#END
