
#######################################################################
#
#                 Cambridge Crystallographic Data Centre
#                                CCDC 
#
#######################################################################
#
# If this CIF has been generated from an entry in the Cambridge 
# Structural Database, then it will include bibliographic, chemical, 
# crystal, experimental, refinement or atomic coordinate data resulting 
# from the CCDC's data processing and validation procedures.
#
#######################################################################

data_ZEFREJ
_symmetry_cell_setting           monoclinic
_symmetry_space_group_name_H-M   'P 21/n'
_symmetry_Int_Tables_number      14
_space_group_name_Hall           '-P 2yn'
loop_
_symmetry_equiv_pos_site_id
_symmetry_equiv_pos_as_xyz
1 x,y,z
2 1/2-x,1/2+y,1/2-z
3 -x,-y,-z
4 1/2+x,1/2-y,1/2+z
_cell_length_a                   8.6931(17)
_cell_length_b                   12.727(3)
_cell_length_c                   13.158(3)
_cell_angle_alpha                90
_cell_angle_beta                 93.54(3)
_cell_angle_gamma                90
_cell_volume                     1452.99
loop_
_atom_site_label
_atom_site_type_symbol
_atom_site_fract_x
_atom_site_fract_y
_atom_site_fract_z
Hg1 Hg 0.25316(6) 0.72732(4) 0.35889(4)
I1 I 0.46750(12) 0.74362(9) 0.22483(8)
I2 I -0.02179(13) 0.64119(10) 0.36906(12)
N1 N 0.3998(13) 0.6561(9) 0.5073(8)
C1 C 0.3369(17) 0.6307(12) 0.5931(11)
H1 H 0.2318 0.6433 0.5955
C2 C 0.5528(15) 0.6342(10) 0.5054(9)
H2 H 0.6017 0.6485 0.4461
N2 N 0.3908(14) 0.5298(11) 0.8479(9)
C3 C 0.4083(15) 0.5886(10) 0.6771(10)
C4 C 0.3268(18) 0.5677(13) 0.7700(10)
H3 H 0.2224 0.5837 0.7698
C5 C 0.6375(15) 0.5925(12) 0.5854(12)
H4 H 0.7423 0.5798 0.5813
C6 C 0.5664(15) 0.5696(11) 0.6711(11)
H5 H 0.6229 0.5411 0.7268
C7 C 0.3131(16) 0.4184(11) 0.9830(10)
H6 H 0.3716 0.3649 0.9565
C8 C 0.3067(14) 0.5160(11) 0.9341(10)
C9 C 0.2249(19) 0.5982(11) 0.9752(11)
H7 H 0.2178 0.6638 0.9443
N3 N 0.2382(11) 0.3998(8) 1.0662(8)
C10 C 0.1581(15) 0.4767(11) 1.1077(11)
H8 H 0.1048 0.4629 1.1654
C11 C 0.1533(19) 0.5765(13) 1.0661(12)
H9 H 0.1022 0.6300 1.0985
Hg1A Hg 0.24684(6) 0.22732(4) 1.14111(4)
N3A N 0.2618(11) 0.8998(8) 0.4338(8)
loop_
_geom_bond_atom_site_label_1
_geom_bond_atom_site_label_2
_geom_bond_site_symmetry_1
_geom_bond_site_symmetry_2
Hg1 I1 1_555 1_555
I2 Hg1 1_555 1_555
N1 Hg1 1_555 1_555
C1 N1 1_555 1_555
H1 C1 1_555 1_555
C2 N1 1_555 1_555
H2 C2 1_555 1_555
N2 C4 1_555 1_555
C3 C1 1_555 1_555
C4 C3 1_555 1_555
H3 C4 1_555 1_555
C5 C2 1_555 1_555
H4 C5 1_555 1_555
C6 C3 1_555 1_555
H5 C6 1_555 1_555
C7 H6 1_555 1_555
C8 N2 1_555 1_555
C9 C8 1_555 1_555
H7 C9 1_555 1_555
N3 C7 1_555 1_555
C10 N3 1_555 1_555
H8 C10 1_555 1_555
C11 C9 1_555 1_555
H9 C11 1_555 1_555
Hg1A N3 1_555 1_555
N3A Hg1 1_555 1_555
C5 C6 1_555 1_555
C7 C8 1_555 1_555
C10 C11 1_555 1_555

#END
