
#######################################################################
#
#                 Cambridge Crystallographic Data Centre
#                                CCDC 
#
#######################################################################
#
# If this CIF has been generated from an entry in the Cambridge 
# Structural Database, then it will include bibliographic, chemical, 
# crystal, experimental, refinement or atomic coordinate data resulting 
# from the CCDC's data processing and validation procedures.
#
#######################################################################

data_ZEFROT
_symmetry_cell_setting           monoclinic
_symmetry_space_group_name_H-M   'C c'
_symmetry_Int_Tables_number      9
_space_group_name_Hall           'C -2yc'
loop_
_symmetry_equiv_pos_site_id
_symmetry_equiv_pos_as_xyz
1 x,y,z
2 x,-y,1/2+z
3 1/2+x,1/2+y,z
4 1/2+x,1/2-y,1/2+z
_cell_length_a                   29.1055(12)
_cell_length_b                   5.7959(2)
_cell_length_c                   7.6970(3)
_cell_angle_alpha                90
_cell_angle_beta                 92.448(2)
_cell_angle_gamma                90
_cell_volume                     1297.24
loop_
_atom_site_label
_atom_site_type_symbol
_atom_site_fract_x
_atom_site_fract_y
_atom_site_fract_z
Na1 Na -0.30473(2) 0.34167(13) -0.31840(9)
Na2 Na -0.24549(3) 0.11340(13) -0.65897(9)
O1 O -0.31906(4) 0.3135(3) -0.64608(18)
O2 O -0.27934(5) 0.2160(2) -0.03470(17)
H1 H -0.2997 0.1620 0.0312
H2 H -0.2631 0.2957 0.0154
O3 O -0.34170(5) 0.0176(2) -0.81136(18)
O4 O -0.72581(4) 0.3062(3) -0.86800(17)
O5 O -0.71945(5) -0.0631(2) -0.79561(18)
O6 O -0.52934(5) 0.3285(3) -0.4825(2)
C1 C -0.34974(6) 0.1784(3) -0.7085(2)
C2 C -0.39839(6) 0.2176(3) -0.6565(2)
C3 C -0.40908(6) 0.4111(3) -0.5599(2)
H3 H -0.3861 0.5171 -0.5296
C4 C -0.45354(7) 0.4485(4) -0.5079(3)
H4 H -0.4605 0.5788 -0.4436
C5 C -0.48741(6) 0.2888(3) -0.5530(2)
C6 C -0.47784(6) 0.0967(4) -0.6528(3)
H5 H -0.5009 -0.0077 -0.6850
C7 C -0.43311(6) 0.0631(3) -0.7039(2)
H6 H -0.4263 -0.0650 -0.7709
C8 C -0.57016(6) 0.2695(4) -0.5744(2)
C9 C -0.59086(7) 0.4340(4) -0.6809(3)
H7 H -0.5757 0.5715 -0.7034
C10 C -0.63455(7) 0.3925(3) -0.7543(3)
H8 H -0.6491 0.5038 -0.8242
C11 C -0.65649(6) 0.1846(3) -0.7233(2)
C12 C -0.63416(6) 0.0194(3) -0.6197(2)
H9 H -0.6483 -0.1221 -0.6018
C13 C -0.59104(7) 0.0630(4) -0.5427(3)
H10 H -0.5766 -0.0463 -0.4708
C14 C -0.70388(6) 0.1379(3) -0.8021(2)
Na1A Na -0.30473(2) -0.34167(13) -0.81840(9)
Na1A_2 Na -0.30473(2) 0.65833(13) -0.81840(9)
Na1C Na -0.80473(2) 0.15833(13) -0.81840(9)
Na2A Na -0.24549(3) -0.11340(13) -0.15897(9)
Na2B Na -0.74549(3) 0.61340(13) -0.65897(9)
Na2C Na -0.74549(3) 0.38660(13) -1.15897(9)
Na2B_2 Na -0.74549(3) -0.38660(13) -0.65897(9)
O1A O -0.31906(4) 0.6865(3) -0.14608(18)
O2A O -0.27934(5) -0.2160(2) -0.53470(17)
H1A H -0.2997 -0.1620 -0.4688
H2A H -0.2631 -0.2957 -0.4846
O3A O -0.34170(5) -0.0176(2) -0.31136(18)
O4C O -0.22581(4) 0.1938(3) -0.36800(17)
O4B O -0.22581(4) -0.1938(3) -0.86800(17)
O5C O -0.21945(5) 0.5631(2) -0.29561(18)
O5B O -0.21945(5) 0.4369(2) -0.79561(18)
loop_
_geom_bond_atom_site_label_1
_geom_bond_atom_site_label_2
_geom_bond_site_symmetry_1
_geom_bond_site_symmetry_2
Na1 O1 1_555 1_555
Na2 O1 1_555 1_555
O1 C1 1_555 1_555
O2 Na1 1_555 1_555
H1 O2 1_555 1_555
H2 O2 1_555 1_555
O3 C1 1_555 1_555
O4 C14 1_555 1_555
O5 C14 1_555 1_555
O6 C5 1_555 1_555
C1 C2 1_555 1_555
C2 C3 1_555 1_555
C3 H3 1_555 1_555
C4 C3 1_555 1_555
H4 C4 1_555 1_555
C5 C4 1_555 1_555
C6 C5 1_555 1_555
H5 C6 1_555 1_555
C7 C2 1_555 1_555
H6 C7 1_555 1_555
C8 O6 1_555 1_555
C9 C8 1_555 1_555
H7 C9 1_555 1_555
C10 C9 1_555 1_555
H8 C10 1_555 1_555
C11 C10 1_555 1_555
C12 C11 1_555 1_555
H9 C12 1_555 1_555
C13 C8 1_555 1_555
H10 C13 1_555 1_555
C14 C11 1_555 1_555
Na1A O3 1_555 1_555
Na1A_2 O1 1_555 1_555
Na1C O4 1_555 1_555
Na2A O2 1_555 1_555
Na2B O4 1_555 1_555
Na2C O4 1_555 1_555
Na2B_2 O5 1_555 1_555
O1A Na1 1_555 1_555
O2A Na2 1_555 1_555
H1A O2A 1_555 1_555
H2A O2A 1_555 1_555
O3A Na1 1_555 1_555
O4C Na1 1_555 1_555
O4B Na2 1_555 1_555
O5C Na1 1_555 1_555
O5B Na2 1_555 1_555
Na2 O4C 1_555 1_555
O5 Na1C 1_555 1_555
C6 C7 1_555 1_555
C12 C13 1_555 1_555
Na1A O2A 1_555 1_555
Na1A O4B 1_555 1_555
Na1A_2 O5B 1_555 1_555
Na2A O4C 1_555 1_555

#END
