
#######################################################################
#
#                 Cambridge Crystallographic Data Centre
#                                CCDC 
#
#######################################################################
#
# If this CIF has been generated from an entry in the Cambridge 
# Structural Database, then it will include bibliographic, chemical, 
# crystal, experimental, refinement or atomic coordinate data resulting 
# from the CCDC's data processing and validation procedures.
#
#######################################################################

data_ZEFRIN
_symmetry_cell_setting           orthorhombic
_symmetry_space_group_name_H-M   'P b c n'
_symmetry_Int_Tables_number      60
_space_group_name_Hall           '-P 2n 2ab'
loop_
_symmetry_equiv_pos_site_id
_symmetry_equiv_pos_as_xyz
1 x,y,z
2 1/2-x,1/2-y,1/2+z
3 1/2+x,1/2-y,-z
4 -x,y,1/2-z
5 -x,-y,-z
6 1/2+x,1/2+y,1/2-z
7 1/2-x,1/2+y,z
8 x,-y,1/2+z
_cell_length_a                   8.4363(4)
_cell_length_b                   5.3754(2)
_cell_length_c                   25.8792(12)
_cell_angle_alpha                90
_cell_angle_beta                 90
_cell_angle_gamma                90
_cell_volume                     1173.58
loop_
_atom_site_label
_atom_site_type_symbol
_atom_site_fract_x
_atom_site_fract_y
_atom_site_fract_z
O1 O -0.12791(11) -0.17153(18) -0.02941(4)
O2 O 0.12258(12) -0.28772(18) -0.04181(4)
O3 O 0.0000 0.3025(3) -0.2500
C1 C -0.00212(16) -0.1777(3) -0.05584(5)
C2 C -0.00015(15) -0.0498(3) -0.10721(5)
C3 C -0.09182(17) 0.1599(3) -0.11643(5)
H1 H -0.1546 0.2248 -0.0901
C4 C -0.09057(18) 0.2734(3) -0.16461(6)
H2 H -0.1498 0.4167 -0.1703
C5 C -0.00128(17) 0.1728(3) -0.20381(5)
C6 C 0.09070(18) -0.0364(3) -0.19563(6)
H3 H 0.1505 -0.1040 -0.2224
C7 C 0.09227(17) -0.1435(3) -0.14693(6)
H4 H 0.1566 -0.2809 -0.1408
Li1 Li -0.2770(3) 0.0564(5) 0.00765(10)
O1C O 0.12791(11) -0.17153(18) -0.47059(4)
O1F O -0.37209(11) 0.32847(18) -0.02941(4)
O1E O 0.37209(11) 0.32847(18) -0.47059(4)
O2C O -0.12258(12) -0.28772(18) -0.45819(4)
O2B O -0.37742(12) -0.21228(18) 0.04181(4)
O2D O -0.12258(12) 0.28772(18) 0.04181(4)
O2A O 0.37742(12) -0.21228(18) -0.54181(4)
O2G O 0.12258(12) 0.28772(18) -0.54181(4)
C1C C 0.00212(16) -0.1777(3) -0.44416(5)
C2C C 0.00015(15) -0.0498(3) -0.39279(5)
C3C C 0.09182(17) 0.1599(3) -0.38357(5)
H1C H 0.1546 0.2248 -0.4099
C4C C 0.09057(18) 0.2734(3) -0.33539(6)
H2C H 0.1498 0.4167 -0.3297
C5C C 0.00128(17) 0.1728(3) -0.29619(5)
C6C C -0.09070(18) -0.0364(3) -0.30437(6)
H3C H -0.1505 -0.1040 -0.2776
C7C C -0.09227(17) -0.1435(3) -0.35307(6)
H4C H -0.1566 -0.2809 -0.3592
Li1C Li 0.2770(3) 0.0564(5) -0.50765(10)
Li1F Li -0.2230(3) -0.4436(5) 0.00765(10)
Li1B Li 0.2230(3) -0.5564(5) -0.00765(10)
Li1D Li 0.2770(3) -0.0564(5) -0.00765(10)
Li1E Li 0.2230(3) -0.4436(5) -0.50765(10)
Li1A Li -0.2230(3) -0.5564(5) -0.49235(10)
Li1G Li -0.2770(3) -0.0564(5) -0.49235(10)
loop_
_geom_bond_atom_site_label_1
_geom_bond_atom_site_label_2
_geom_bond_site_symmetry_1
_geom_bond_site_symmetry_2
O1 C1 1_555 1_555
O2 C1 1_555 1_555
O3 C5 1_555 1_555
C1 C2 1_555 1_555
C2 C3 1_555 1_555
C3 H1 1_555 1_555
C4 C3 1_555 1_555
H2 C4 1_555 1_555
C5 C4 1_555 1_555
C6 C5 1_555 1_555
H3 C6 1_555 1_555
C7 C2 1_555 1_555
H4 C7 1_555 1_555
Li1 O1 1_555 1_555
O1C C1C 1_555 1_555
O1F Li1 1_555 1_555
O1E Li1C 1_555 1_555
O2C C1C 1_555 1_555
O2B Li1 1_555 1_555
O2D Li1 1_555 1_555
O2A Li1C 1_555 1_555
O2G Li1C 1_555 1_555
C1C C2C 1_555 1_555
C2C C3C 1_555 1_555
C3C H1C 1_555 1_555
C4C C3C 1_555 1_555
H2C C4C 1_555 1_555
C5C O3 1_555 1_555
C6C C5C 1_555 1_555
H3C C6C 1_555 1_555
C7C C2C 1_555 1_555
H4C C7C 1_555 1_555
Li1C O1C 1_555 1_555
Li1F O1 1_555 1_555
Li1B O2 1_555 1_555
Li1D O2 1_555 1_555
Li1E O1C 1_555 1_555
Li1A O2C 1_555 1_555
Li1G O2C 1_555 1_555
C6 C7 1_555 1_555
O2B Li1F 1_555 1_555
O2A Li1E 1_555 1_555
C4C C5C 1_555 1_555
C6C C7C 1_555 1_555

#END
