
#######################################################################
#
#                 Cambridge Crystallographic Data Centre
#                                CCDC 
#
#######################################################################
#
# If this CIF has been generated from an entry in the Cambridge 
# Structural Database, then it will include bibliographic, chemical, 
# crystal, experimental, refinement or atomic coordinate data resulting 
# from the CCDC's data processing and validation procedures.
#
#######################################################################

data_ZEFSOU
_symmetry_cell_setting           monoclinic
_symmetry_space_group_name_H-M   'P 21/n'
_symmetry_Int_Tables_number      14
_space_group_name_Hall           '-P 2yn'
loop_
_symmetry_equiv_pos_site_id
_symmetry_equiv_pos_as_xyz
1 x,y,z
2 1/2-x,1/2+y,1/2-z
3 -x,-y,-z
4 1/2+x,1/2-y,1/2+z
_cell_length_a                   5.63300(10)
_cell_length_b                   28.9079(5)
_cell_length_c                   7.85160(10)
_cell_angle_alpha                90
_cell_angle_beta                 95.5170(10)
_cell_angle_gamma                90
_cell_volume                     1272.62
loop_
_atom_site_label
_atom_site_type_symbol
_atom_site_fract_x
_atom_site_fract_y
_atom_site_fract_z
Ca1 Ca 0.11757(4) 0.013677(8) 0.29837(3)
O1 O -0.02142(16) 0.06404(3) 0.07716(11)
O2 O 0.30727(14) 0.46451(3) -0.04014(11)
O3 O 0.13088(15) 0.04572(3) -0.16559(12)
O4 O -0.06325(16) 0.43995(3) -0.11132(15)
O5 O 0.51488(17) 0.25073(3) -0.06897(16)
C1 C 0.09625(19) 0.07375(4) -0.04728(15)
C2 C 0.2002(2) 0.12136(4) -0.05437(15)
C3 C 0.1030(2) 0.15790(4) 0.03078(16)
H1 H -0.0260 0.1525 0.0937
C4 C 0.1957(2) 0.20224(4) 0.02331(18)
H2 H 0.1267 0.2267 0.0773
C5 C 0.3934(2) 0.20935(4) -0.06626(17)
C6 C 0.4953(2) 0.17332(4) -0.14949(17)
H3 H 0.6296 0.1784 -0.2071
C7 C 0.3957(2) 0.12969(4) -0.14632(17)
H4 H 0.4596 0.1057 -0.2060
C8 C 0.4035(2) 0.29328(4) -0.06319(17)
C9 C 0.5451(2) 0.32775(4) 0.01335(18)
H5 H 0.6950 0.3206 0.0670
C10 C 0.4642(2) 0.37291(4) 0.01032(17)
H6 H 0.5611 0.3962 0.0604
C11 C 0.23860(19) 0.38366(4) -0.06721(15)
C12 C 0.0969(2) 0.34824(4) -0.14141(18)
H7 H -0.0551 0.3551 -0.1922
C13 C 0.1777(2) 0.30292(4) -0.14114(19)
H8 H 0.0825 0.2795 -0.1922
C14 C 0.1516(2) 0.43263(4) -0.07389(15)
O6 O 0.38535(17) -0.02350(4) 0.14353(15)
H9 H 0.5204 -0.0273 0.1500
H10 H 0.3221 -0.0371 0.0555
Ca1C Ca 0.61757(4) 0.486323(8) -0.20163(3)
Ca1A Ca 0.38243(4) 0.513677(8) 0.20163(3)
Ca1B Ca -0.11757(4) -0.013677(8) -0.29837(3)
Ca1C_2 Ca -0.38243(4) 0.486323(8) -0.20163(3)
O2C O -0.19273(14) 0.03549(3) 0.45986(11)
O2A O 0.19273(14) -0.03549(3) 0.54014(11)
O3B O -0.13088(15) -0.04572(3) 0.16559(12)
O4C O 0.43675(16) 0.06005(3) 0.38868(15)
loop_
_geom_bond_atom_site_label_1
_geom_bond_atom_site_label_2
_geom_bond_site_symmetry_1
_geom_bond_site_symmetry_2
Ca1 O1 1_555 1_555
O1 C1 1_555 1_555
O2 C14 1_555 1_555
O3 C1 1_555 1_555
O4 C14 1_555 1_555
O5 C5 1_555 1_555
C1 C2 1_555 1_555
C2 C3 1_555 1_555
C3 H1 1_555 1_555
C4 C3 1_555 1_555
H2 C4 1_555 1_555
C5 C4 1_555 1_555
C6 C5 1_555 1_555
H3 C6 1_555 1_555
C7 C2 1_555 1_555
H4 C7 1_555 1_555
C8 O5 1_555 1_555
C9 C8 1_555 1_555
H5 C9 1_555 1_555
C10 C9 1_555 1_555
H6 C10 1_555 1_555
C11 C10 1_555 1_555
C12 C11 1_555 1_555
H7 C12 1_555 1_555
C13 C8 1_555 1_555
H8 C13 1_555 1_555
C14 C11 1_555 1_555
O6 Ca1 1_555 1_555
H9 O6 1_555 1_555
H10 O6 1_555 1_555
Ca1C O2 1_555 1_555
Ca1A O2 1_555 1_555
Ca1B O3 1_555 1_555
Ca1C_2 O4 1_555 1_555
O2C Ca1 1_555 1_555
O2A Ca1 1_555 1_555
O3B Ca1 1_555 1_555
O4C Ca1 1_555 1_555
C6 C7 1_555 1_555
C12 C13 1_555 1_555

#END
