
#######################################################################
#
#                 Cambridge Crystallographic Data Centre
#                                CCDC 
#
#######################################################################
#
# If this CIF has been generated from an entry in the Cambridge 
# Structural Database, then it will include bibliographic, chemical, 
# crystal, experimental, refinement or atomic coordinate data resulting 
# from the CCDC's data processing and validation procedures.
#
#######################################################################

data_ZEFSIO
_symmetry_cell_setting           monoclinic
_symmetry_space_group_name_H-M   'P 21/c'
_symmetry_Int_Tables_number      14
_space_group_name_Hall           '-P 2ybc'
loop_
_symmetry_equiv_pos_site_id
_symmetry_equiv_pos_as_xyz
1 x,y,z
2 -x,1/2+y,1/2-z
3 -x,-y,-z
4 x,1/2-y,1/2+z
_cell_length_a                   14.0657(8)
_cell_length_b                   10.0353(6)
_cell_length_c                   10.2031(6)
_cell_angle_alpha                90
_cell_angle_beta                 105.474(3)
_cell_angle_gamma                90
_cell_volume                     1388
loop_
_atom_site_label
_atom_site_type_symbol
_atom_site_fract_x
_atom_site_fract_y
_atom_site_fract_z
Mg1 Mg 0.52016(9) 0.18579(11) 0.17187(13)
O1 O 0.38157(19) 0.1515(3) 0.0202(3)
O2 O 0.5893(2) 0.0108(3) 0.1760(3)
H1 H 0.5631 -0.0471 0.2162
H2 H 0.5850 -0.0144 0.0951
O3 O 0.41498(19) 0.3408(3) 0.1249(3)
O4 O 0.4529(2) 0.1028(3) 0.3161(3)
H3 H 0.4581 0.0184 0.3157
H4 H 0.4815 0.1329 0.3946
O5 O 0.0038(2) 0.5021(3) -0.2671(4)
O6 O -0.41974(19) 0.2416(3) -0.4776(3)
O7 O -0.3859(2) 0.2846(3) -0.6746(3)
C1 C 0.3553(3) 0.2680(4) 0.0400(4)
C2 C 0.2589(3) 0.3235(4) -0.0382(4)
C3 C 0.2266(3) 0.4449(4) -0.0023(5)
H5 H 0.2647 0.4901 0.0731
C4 C 0.1389(3) 0.5001(4) -0.0763(5)
H6 H 0.1173 0.5810 -0.0503
C5 C 0.0834(3) 0.4333(4) -0.1899(5)
C6 C 0.1127(3) 0.3107(4) -0.2271(5)
H7 H 0.0743 0.2655 -0.3024
C7 C 0.2006(3) 0.2566(4) -0.1500(5)
H8 H 0.2208 0.1739 -0.1737
C8 C -0.0820(3) 0.4370(4) -0.3370(5)
C9 C -0.1284(3) 0.3479(5) -0.2712(5)
H9 H -0.0984 0.3206 -0.1827
C10 C -0.2197(3) 0.3005(4) -0.3392(5)
H10 H -0.2528 0.2432 -0.2947
C11 C -0.2637(3) 0.3364(4) -0.4729(4)
C12 C -0.2141(3) 0.4234(4) -0.5379(4)
H11 H -0.2420 0.4473 -0.6280
C13 C -0.1233(3) 0.4744(4) -0.4683(5)
H12 H -0.0906 0.5339 -0.5109
C14 C -0.3638(3) 0.2844(4) -0.5467(4)
Mg1_2 Mg -0.47984(9) 0.18579(11) -0.82813(13)
Mg1C Mg -0.47984(9) 0.31421(11) -0.32813(13)
O6C O 0.58026(19) 0.2584(3) 0.0224(3)
O7_2 O 0.6141(2) 0.2846(3) 0.3254(3)
loop_
_geom_bond_atom_site_label_1
_geom_bond_atom_site_label_2
_geom_bond_site_symmetry_1
_geom_bond_site_symmetry_2
Mg1 O1 1_555 1_555
O1 C1 1_555 1_555
O2 Mg1 1_555 1_555
H1 O2 1_555 1_555
H2 O2 1_555 1_555
O3 Mg1 1_555 1_555
O4 Mg1 1_555 1_555
H3 O4 1_555 1_555
H4 O4 1_555 1_555
O5 C5 1_555 1_555
O6 C14 1_555 1_555
O7 C14 1_555 1_555
C1 O3 1_555 1_555
C2 C1 1_555 1_555
C3 C2 1_555 1_555
H5 C3 1_555 1_555
C4 C3 1_555 1_555
H6 C4 1_555 1_555
C5 C4 1_555 1_555
C6 C5 1_555 1_555
H7 C6 1_555 1_555
C7 C2 1_555 1_555
H8 C7 1_555 1_555
C8 O5 1_555 1_555
C9 C8 1_555 1_555
H9 C9 1_555 1_555
C10 C9 1_555 1_555
H10 C10 1_555 1_555
C11 C10 1_555 1_555
C12 C11 1_555 1_555
H11 C12 1_555 1_555
C13 C8 1_555 1_555
H12 C13 1_555 1_555
C14 C11 1_555 1_555
Mg1_2 O7 1_555 1_555
Mg1C O6 1_555 1_555
O6C Mg1 1_555 1_555
O7_2 Mg1 1_555 1_555
C6 C7 1_555 1_555
C12 C13 1_555 1_555

#END
