
#######################################################################
#
#                 Cambridge Crystallographic Data Centre
#                                CCDC 
#
#######################################################################
#
# If this CIF has been generated from an entry in the Cambridge 
# Structural Database, then it will include bibliographic, chemical, 
# crystal, experimental, refinement or atomic coordinate data resulting 
# from the CCDC's data processing and validation procedures.
#
#######################################################################

data_ZEFSOU01
_symmetry_cell_setting           monoclinic
_symmetry_space_group_name_H-M   'P 21/n'
_symmetry_Int_Tables_number      14
_space_group_name_Hall           '-P 2yn'
loop_
_symmetry_equiv_pos_site_id
_symmetry_equiv_pos_as_xyz
1 x,y,z
2 1/2-x,1/2+y,1/2-z
3 -x,-y,-z
4 1/2+x,1/2-y,1/2+z
_cell_length_a                   5.6421(2)
_cell_length_b                   28.9519(13)
_cell_length_c                   7.8627(3)
_cell_angle_alpha                90
_cell_angle_beta                 95.521(2)
_cell_angle_gamma                90
_cell_volume                     1278.41
loop_
_atom_site_label
_atom_site_type_symbol
_atom_site_fract_x
_atom_site_fract_y
_atom_site_fract_z
Ca1 Ca 0.61755(5) 0.01366(2) 0.29834(4)
O1 O 0.5140(2) 0.24919(4) 0.4313(2)
O2 O 0.3070(2) 0.03548(4) 0.45980(14)
O3 O 0.1308(2) 0.45426(4) 0.33443(16)
O4 O -0.0635(2) 0.06003(4) 0.3885(2)
O5 O -0.0214(2) 0.43601(4) 0.57730(15)
O6 O 0.8857(2) -0.02328(5) 0.14239(19)
H1 H 0.8158 -0.0451 0.0836
H2 H 0.9984 -0.0347 0.2102
C1 C 0.1954(3) 0.29779(6) 0.5234(2)
H3 H 0.1264 0.2734 0.5775
C2 C 0.3930(3) 0.29060(6) 0.4338(2)
C3 C 0.4034(3) 0.20665(6) 0.4366(2)
C4 C 0.5445(3) 0.17222(6) 0.5134(2)
H4 H 0.6940 0.1793 0.5673
C5 C 0.4636(3) 0.12709(6) 0.5102(2)
H5 H 0.5606 0.1038 0.5601
C6 C 0.2385(3) 0.11624(5) 0.4330(2)
C7 C 0.1514(3) 0.06737(5) 0.42586(19)
C8 C 0.0962(3) 0.42613(5) 0.4525(2)
C9 C 0.1998(3) 0.37860(5) 0.44551(19)
C10 C 0.3953(3) 0.37023(6) 0.3535(2)
H6 H 0.4593 0.3942 0.2939
C11 C 0.4946(3) 0.32661(6) 0.3505(2)
H7 H 0.6286 0.3215 0.2929
C12 C 0.1031(3) 0.34204(6) 0.5307(2)
H8 H -0.0256 0.3474 0.5936
C13 C 0.1778(3) 0.19696(6) 0.3590(2)
H9 H 0.0824 0.2203 0.3083
C14 C 0.0971(3) 0.15171(6) 0.3585(2)
H10 H -0.0544 0.1449 0.3075
Ca1_2 Ca -0.38245(5) 0.01366(2) 0.29834(4)
Ca1A Ca -0.11755(5) 0.51366(2) 0.20166(4)
Ca1B Ca 0.38245(5) -0.01366(2) 0.70166(4)
Ca1C Ca 0.11755(5) 0.48634(2) 0.79834(4)
O2B O 0.6930(2) -0.03548(4) 0.54020(14)
O3A O 0.3692(2) -0.04574(4) 0.16557(16)
O4_2 O 0.9365(2) 0.06003(4) 0.3885(2)
O5C O 0.4786(2) 0.06399(4) 0.07730(15)
loop_
_geom_bond_atom_site_label_1
_geom_bond_atom_site_label_2
_geom_bond_site_symmetry_1
_geom_bond_site_symmetry_2
Ca1 O2 1_555 1_555
O1 C2 1_555 1_555
O2 C7 1_555 1_555
O3 C8 1_555 1_555
O4 C7 1_555 1_555
O5 C8 1_555 1_555
O6 Ca1 1_555 1_555
H1 O6 1_555 1_555
H2 O6 1_555 1_555
C1 H3 1_555 1_555
C2 C1 1_555 1_555
C3 O1 1_555 1_555
C4 C3 1_555 1_555
H4 C4 1_555 1_555
C5 C4 1_555 1_555
H5 C5 1_555 1_555
C6 C5 1_555 1_555
C7 C6 1_555 1_555
C8 C9 1_555 1_555
C9 C10 1_555 1_555
C10 H6 1_555 1_555
C11 C2 1_555 1_555
H7 C11 1_555 1_555
C12 C1 1_555 1_555
H8 C12 1_555 1_555
C13 C3 1_555 1_555
H9 C13 1_555 1_555
C14 C6 1_555 1_555
H10 C14 1_555 1_555
Ca1_2 O4 1_555 1_555
Ca1A O3 1_555 1_555
Ca1B O2 1_555 1_555
Ca1C O5 1_555 1_555
O2B Ca1 1_555 1_555
O3A Ca1 1_555 1_555
O4_2 Ca1 1_555 1_555
O5C Ca1 1_555 1_555
C9 C12 1_555 1_555
C10 C11 1_555 1_555
C13 C14 1_555 1_555
Ca1B O2B 1_555 1_555

#END
