
#######################################################################
#
#                 Cambridge Crystallographic Data Centre
#                                CCDC 
#
#######################################################################
#
# If this CIF has been generated from an entry in the Cambridge 
# Structural Database, then it will include bibliographic, chemical, 
# crystal, experimental, refinement or atomic coordinate data resulting 
# from the CCDC's data processing and validation procedures.
#
#######################################################################

data_ZEFSUA01
_symmetry_cell_setting           orthorhombic
_symmetry_space_group_name_H-M   'P n a 21'
_symmetry_Int_Tables_number      33
_space_group_name_Hall           'P 2c -2n'
loop_
_symmetry_equiv_pos_site_id
_symmetry_equiv_pos_as_xyz
1 x,y,z
2 -x,-y,1/2+z
3 1/2-x,1/2+y,1/2+z
4 1/2+x,1/2-y,z
_cell_length_a                   29.3416(18)
_cell_length_b                   6.3038(4)
_cell_length_c                   7.0814(4)
_cell_angle_alpha                90
_cell_angle_beta                 90
_cell_angle_gamma                90
_cell_volume                     1309.8
loop_
_atom_site_label
_atom_site_type_symbol
_atom_site_fract_x
_atom_site_fract_y
_atom_site_fract_z
Sr1 Sr 0.97346(2) 0.39013(7) 0.50848(19)
O1 O 0.9545(2) 0.4108(10) 0.1594(9)
O2 O 0.9511(2) 0.4643(10) -0.1484(8)
O3 O 0.75762(12) 0.0380(6) 0.0075(12)
O4 O 0.57500(17) 0.5754(8) 0.0777(8)
O5 O 1.02000(19) 0.0617(10) 0.4307(11)
H1 H 1.0318 0.0177 0.5330
H2 H 1.0375 0.0322 0.3388
O6 O 0.54868(14) 0.2710(7) -0.0319(8)
C1 C 0.93371(17) 0.4001(8) -0.002(2)
C2 C 0.88608(17) 0.3109(9) 0.0034(17)
C3 C 0.8777(2) 0.1229(11) 0.0982(12)
H3 H 0.9012 0.0530 0.1602
C4 C 0.8341(2) 0.0393(12) 0.1002(11)
H4 H 0.8281 -0.0868 0.1639
C5 C 0.79907(18) 0.1451(9) 0.006(2)
C6 C 0.71606(17) 0.1422(8) 0.002(2)
C7 C 0.8070(2) 0.3319(11) -0.0862(11)
H5 H 0.7833 0.4032 -0.1460
C8 C 0.8511(2) 0.4138(11) -0.0899(11)
H6 H 0.8570 0.5385 -0.1555
C9 C 0.58097(19) 0.3897(9) 0.016(2)
C10 C 0.62808(18) 0.3033(8) 0.0078(17)
C11 C 0.6375(2) 0.1110(10) -0.0781(11)
H7 H 0.6139 0.0356 -0.1345
C12 C 0.6811(2) 0.0281(11) -0.0825(11)
H8 H 0.6869 -0.1013 -0.1408
C13 C 0.7080(2) 0.3342(12) 0.0905(11)
H9 H 0.7318 0.4087 0.1468
C14 C 0.6638(3) 0.4145(12) 0.0937(12)
H10 H 0.6579 0.5429 0.1536
Sr1_2 Sr 0.97346(2) 0.39013(7) -0.49152(19)
Sr1A Sr 1.02654(2) 0.60987(7) 0.00848(19)
Sr1B Sr 0.52654(2) -0.10987(7) 0.00848(19)
Sr1B_2 Sr 0.52654(2) 0.89013(7) 0.00848(19)
O1A O 1.0455(2) 0.5892(10) 0.6594(9)
O2_2 O 0.9511(2) 0.4643(10) 0.8516(8)
O2A O 1.0489(2) 0.5357(10) 0.3516(8)
O4B O 0.92500(17) 0.0754(8) 0.5777(8)
O6B O 0.95132(14) 0.7710(7) 0.4681(8)
loop_
_geom_bond_atom_site_label_1
_geom_bond_atom_site_label_2
_geom_bond_site_symmetry_1
_geom_bond_site_symmetry_2
Sr1 O1 1_555 1_555
O1 C1 1_555 1_555
O2 C1 1_555 1_555
O3 C5 1_555 1_555
O4 C9 1_555 1_555
O5 Sr1 1_555 1_555
H1 O5 1_555 1_555
H2 O5 1_555 1_555
O6 C9 1_555 1_555
C1 C2 1_555 1_555
C2 C3 1_555 1_555
C3 H3 1_555 1_555
C4 C3 1_555 1_555
H4 C4 1_555 1_555
C5 C4 1_555 1_555
C6 O3 1_555 1_555
C7 C5 1_555 1_555
H5 C7 1_555 1_555
C8 C2 1_555 1_555
H6 C8 1_555 1_555
C9 C10 1_555 1_555
C10 C11 1_555 1_555
C11 H7 1_555 1_555
C12 C6 1_555 1_555
H8 C12 1_555 1_555
C13 C6 1_555 1_555
H9 C13 1_555 1_555
C14 C10 1_555 1_555
H10 C14 1_555 1_555
Sr1_2 O2 1_555 1_555
Sr1A O1 1_555 1_555
Sr1B O6 1_555 1_555
Sr1B_2 O4 1_555 1_555
O1A Sr1 1_555 1_555
O2_2 Sr1 1_555 1_555
O2A Sr1 1_555 1_555
O4B Sr1 1_555 1_555
O6B Sr1 1_555 1_555
O2 Sr1A 1_555 1_555
C7 C8 1_555 1_555
C11 C12 1_555 1_555
C13 C14 1_555 1_555
Sr1A O2A 1_555 1_555

#END
