
#######################################################################
#
#                 Cambridge Crystallographic Data Centre
#                                CCDC 
#
#######################################################################
#
# If this CIF has been generated from an entry in the Cambridge 
# Structural Database, then it will include bibliographic, chemical, 
# crystal, experimental, refinement or atomic coordinate data resulting 
# from the CCDC's data processing and validation procedures.
#
#######################################################################

data_ZEFWUE
_symmetry_cell_setting           monoclinic
_symmetry_space_group_name_H-M   'C 2/c'
_symmetry_Int_Tables_number      15
_space_group_name_Hall           '-C 2yn'
loop_
_symmetry_equiv_pos_site_id
_symmetry_equiv_pos_as_xyz
1 x,y,z
2 -x,y,1/2-z
3 1/2+x,1/2+y,z
4 1/2-x,1/2+y,1/2-z
5 -x,-y,-z
6 x,-y,1/2+z
7 1/2-x,1/2-y,-z
8 1/2+x,1/2-y,1/2+z
_cell_length_a                   22.1231(10)
_cell_length_b                   12.5698(4)
_cell_length_c                   18.1222(7)
_cell_angle_alpha                90
_cell_angle_beta                 109.511(5)
_cell_angle_gamma                90
_cell_volume                     4750.09
loop_
_atom_site_label
_atom_site_type_symbol
_atom_site_fract_x
_atom_site_fract_y
_atom_site_fract_z
Zn1 Zn 0.278769(14) 0.18367(2) 0.220891(16)
C1 C 0.35798(14) 0.3881(2) 0.23541(16)
H1 H 0.3655 0.3908 0.2890
C2 C 0.32239(12) 0.33711(19) 0.11835(14)
H2 H 0.3013 0.3005 0.0723
C3 C 0.37192(12) 0.4782(2) 0.06095(15)
H3 H 0.3516 0.5477 0.0536
H4 H 0.3540 0.4385 0.0126
C4 C 0.48786(12) 0.42195(19) 0.08143(14)
C5 C 0.47961(13) 0.3070(2) 0.06816(15)
C6 C 0.53208(16) 0.2416(2) 0.08397(18)
H5 H 0.5734 0.2696 0.1003
C7 C 0.5222(2) 0.1336(3) 0.0751(2)
H6 H 0.5568 0.0872 0.0855
C8 C 0.4608(2) 0.0954(3) 0.0508(2)
H7 H 0.4529 0.0226 0.0457
C9 C 0.41174(18) 0.1656(2) 0.0345(2)
H8 H 0.3701 0.1389 0.0168
C10 C 0.52738(12) 0.57520(19) 0.11191(14)
C11 C 0.57376(13) 0.66215(19) 0.13706(14)
C12 C 0.55420(14) 0.7662(2) 0.14150(16)
H9 H 0.5109 0.7823 0.1284
C13 C 0.59919(15) 0.8446(2) 0.16529(18)
H10 H 0.5867 0.9146 0.1683
C14 C 0.66341(14) 0.8195(2) 0.18484(15)
H11 H 0.6937 0.8737 0.2002
C15 C 0.63874(13) 0.64377(19) 0.15863(14)
H12 H 0.6525 0.5743 0.1566
C16 C 0.29202(13) 0.1345(2) 0.36525(15)
C17 C 0.28534(13) -0.0535(2) 0.60447(15)
C18 C 0.30345(13) 0.04298(19) 0.56760(14)
C19 C 0.33434(16) 0.1287(2) 0.61297(16)
H13 H 0.3436 0.1271 0.6669
C20 C 0.35124(19) 0.2157(2) 0.57849(18)
H14 H 0.3721 0.2726 0.6094
C21 C 0.33763(16) 0.2198(2) 0.49886(16)
H15 H 0.3488 0.2796 0.4760
C22 C 0.30714(13) 0.1346(2) 0.45242(14)
C23 C 0.29075(12) 0.04713(19) 0.48771(14)
H16 H 0.2707 -0.0104 0.4569
N1 N 0.32098(10) 0.31143(15) 0.18827(11)
N2 N 0.38198(11) 0.45727(18) 0.19936(13)
N3 N 0.35831(10) 0.42290(15) 0.12357(11)
N4 N 0.44050(10) 0.49110(16) 0.07803(12)
N5 N 0.46554(10) 0.59006(16) 0.09818(12)
N6 N 0.54367(10) 0.47282(15) 0.10211(12)
N7 N 0.41938(12) 0.27074(18) 0.04222(14)
N8 N 0.68327(10) 0.72015(15) 0.18230(11)
O1 O 0.31158(10) 0.21275(15) 0.33504(10)
O2 O 0.26129(11) 0.06088(16) 0.32554(11)
O3 O 0.25422(9) -0.12554(14) 0.56279(10)
O4 O 0.30325(10) -0.05461(14) 0.67916(10)
Zn1B Zn 0.778769(14) 0.68367(2) 0.220891(16)
Zn1E Zn 0.278769(14) -0.18367(2) 0.720891(16)
N8B N 0.18327(10) 0.22015(15) 0.18230(11)
O4E O 0.30325(10) 0.05461(14) 0.17916(10)
loop_
_geom_bond_atom_site_label_1
_geom_bond_atom_site_label_2
_geom_bond_site_symmetry_1
_geom_bond_site_symmetry_2
Zn1 N1 1_555 1_555
C1 H1 1_555 1_555
C2 H2 1_555 1_555
C3 H3 1_555 1_555
H4 C3 1_555 1_555
C4 C5 1_555 1_555
C5 C6 1_555 1_555
C6 H5 1_555 1_555
C7 C6 1_555 1_555
H6 C7 1_555 1_555
C8 C7 1_555 1_555
H7 C8 1_555 1_555
C9 C8 1_555 1_555
H8 C9 1_555 1_555
C10 C11 1_555 1_555
C11 C12 1_555 1_555
C12 H9 1_555 1_555
C13 C12 1_555 1_555
H10 C13 1_555 1_555
C14 C13 1_555 1_555
H11 C14 1_555 1_555
C15 C11 1_555 1_555
H12 C15 1_555 1_555
C16 C22 1_555 1_555
C17 C18 1_555 1_555
C18 C19 1_555 1_555
C19 H13 1_555 1_555
C20 C19 1_555 1_555
H14 C20 1_555 1_555
C21 C20 1_555 1_555
H15 C21 1_555 1_555
C22 C21 1_555 1_555
C23 C18 1_555 1_555
H16 C23 1_555 1_555
N1 C1 1_555 1_555
N2 C1 1_555 1_555
N3 C2 1_555 1_555
N4 C3 1_555 1_555
N5 C10 1_555 1_555
N6 C4 1_555 1_555
N7 C5 1_555 1_555
N8 C14 1_555 1_555
O1 Zn1 1_555 1_555
O2 C16 1_555 1_555
O3 C17 1_555 1_555
O4 C17 1_555 1_555
Zn1B N8 1_555 1_555
Zn1E O4 1_555 1_555
N8B Zn1 1_555 1_555
O4E Zn1 1_555 1_555
C2 N1 1_555 1_555
C3 N3 1_555 1_555
C4 N4 1_555 1_555
C9 N7 1_555 1_555
C10 N6 1_555 1_555
C15 N8 1_555 1_555
C16 O1 1_555 1_555
C22 C23 1_555 1_555
N2 N3 1_555 1_555
N4 N5 1_555 1_555

#END
