
#######################################################################
#
#                 Cambridge Crystallographic Data Centre
#                                CCDC 
#
#######################################################################
#
# If this CIF has been generated from an entry in the Cambridge 
# Structural Database, then it will include bibliographic, chemical, 
# crystal, experimental, refinement or atomic coordinate data resulting 
# from the CCDC's data processing and validation procedures.
#
#######################################################################

data_ZEFWIS
_symmetry_cell_setting           monoclinic
_symmetry_space_group_name_H-M   'C 2/c'
_symmetry_Int_Tables_number      15
_space_group_name_Hall           '-C 2yn'
loop_
_symmetry_equiv_pos_site_id
_symmetry_equiv_pos_as_xyz
1 x,y,z
2 -x,y,1/2-z
3 1/2+x,1/2+y,z
4 1/2-x,1/2+y,1/2-z
5 -x,-y,-z
6 x,-y,1/2+z
7 1/2-x,1/2-y,-z
8 1/2+x,1/2-y,1/2+z
_cell_length_a                   28.258(5)
_cell_length_b                   9.612(5)
_cell_length_c                   14.579(5)
_cell_angle_alpha                90
_cell_angle_beta                 110.191(5)
_cell_angle_gamma                90
_cell_volume                     3716.54
loop_
_atom_site_label
_atom_site_type_symbol
_atom_site_fract_x
_atom_site_fract_y
_atom_site_fract_z
N1 N -0.14537(13) -0.2951(4) -0.5747(2)
N2 N 0.20044(13) -0.2141(4) -0.2302(2)
C1 C 0.18141(17) -0.1982(4) -0.3278(3)
H1 H 0.2038 -0.1918 -0.3616
C2 C -0.12339(18) -0.4076(5) -0.5240(3)
H2 H -0.1429 -0.4869 -0.5281
C3 C -0.11707(19) -0.1839(5) -0.5680(4)
H3 H -0.1316 -0.1050 -0.6035
C4 C -0.0668(2) -0.1802(6) -0.5104(5)
H4 H -0.0485 -0.0983 -0.5048
C5 C -0.0433(2) -0.2999(6) -0.4601(4)
C6 C -0.0733(2) -0.4118(5) -0.4660(4)
H5 H -0.0600 -0.4919 -0.4307
C7 C 0.16735(17) -0.2250(5) -0.1833(3)
H6 H 0.1796 -0.2394 -0.1161
C8 C 0.11607(19) -0.2159(7) -0.2300(4)
H7 H 0.0945 -0.2233 -0.1943
C9 C 0.0963(2) -0.1957(6) -0.3309(4)
C10 C 0.13076(19) -0.1910(5) -0.3803(4)
H8 H 0.1195 -0.1832 -0.4480
C11 C 0.0136(3) -0.3063(8) -0.4019(6)
H9 H 0.0181 -0.3497 -0.3394
H10 H 0.0291 -0.3667 -0.4367
C12 C 0.0401(2) -0.1787(8) -0.3840(6)
H11 H 0.0263 -0.1195 -0.3454
H12 H 0.0347 -0.1323 -0.4459
O1 O -0.11964(11) -0.2340(3) -0.7965(2)
O2 O -0.22553(11) -0.0967(3) -0.5965(2)
O3 O -0.21590(12) -0.4823(3) -0.7109(2)
O4 O -0.19611(12) 0.1082(3) -0.4505(2)
O5 O -0.23447(11) -0.3957(3) -0.54626(19)
O6 O -0.29798(13) 0.1002(3) -0.5991(2)
O7 O -0.20902(11) -0.1909(3) -0.77191(19)
V1 V -0.18039(3) -0.23012(7) -0.85170(5)
V2 V -0.24593(3) -0.00203(7) -0.52314(5)
Ni1 Ni -0.22168(2) -0.28785(5) -0.65477(4)
H13 H -0.2077(18) -0.491(5) -0.763(3)
H14 H -0.2425(17) -0.532(5) -0.718(4)
N2G N -0.29956(13) -0.2859(4) -0.7302(2)
O4E O -0.19611(12) -0.1082(3) -0.9505(2)
O5F O -0.26553(11) -0.1043(3) -0.45374(19)
O6C O -0.20202(13) -0.3998(3) -0.9009(2)
V1C V -0.31961(3) 0.26988(7) -0.64830(5)
V1E V -0.18039(3) 0.23012(7) -0.35170(5)
V2F V -0.25407(3) -0.49797(7) -0.47686(5)
Ni1G Ni 0.27832(2) -0.21215(5) -0.15477(4)
O8 O -0.0367(2) 0.1085(8) -0.3474(6)
O9 O 0.0212(2) -0.6478(7) -0.3231(5)
loop_
_geom_bond_atom_site_label_1
_geom_bond_atom_site_label_2
_geom_bond_site_symmetry_1
_geom_bond_site_symmetry_2
N1 C2 1_555 1_555
N2 C1 1_555 1_555
C1 H1 1_555 1_555
C2 H2 1_555 1_555
C3 N1 1_555 1_555
H3 C3 1_555 1_555
C4 C3 1_555 1_555
H4 C4 1_555 1_555
C5 C4 1_555 1_555
C6 C2 1_555 1_555
H5 C6 1_555 1_555
C7 N2 1_555 1_555
H6 C7 1_555 1_555
C8 C7 1_555 1_555
H7 C8 1_555 1_555
C9 C8 1_555 1_555
C10 C1 1_555 1_555
H8 C10 1_555 1_555
C11 C5 1_555 1_555
H9 C11 1_555 1_555
H10 C11 1_555 1_555
C12 C9 1_555 1_555
H11 C12 1_555 1_555
H12 C12 1_555 1_555
O1 V1 1_555 1_555
O2 V2 1_555 1_555
O3 Ni1 1_555 1_555
O4 V2 1_555 1_555
O5 Ni1 1_555 1_555
O6 V2 1_555 1_555
O7 V1 1_555 1_555
V1 O4E 1_555 1_555
V2 O5F 1_555 1_555
Ni1 N1 1_555 1_555
H13 O3 1_555 1_555
H14 O3 1_555 1_555
N2G Ni1 1_555 1_555
O6C V1 1_555 1_555
V1C O6 1_555 1_555
V1E O4 1_555 1_555
V2F O5 1_555 1_555
Ni1G N2 1_555 1_555
C5 C6 1_555 1_555
C9 C10 1_555 1_555
C11 C12 1_555 1_555
O2 Ni1 1_555 1_555
O7 Ni1 1_555 1_555

#END
