
#######################################################################
#
#                 Cambridge Crystallographic Data Centre
#                                CCDC 
#
#######################################################################
#
# If this CIF has been generated from an entry in the Cambridge 
# Structural Database, then it will include bibliographic, chemical, 
# crystal, experimental, refinement or atomic coordinate data resulting 
# from the CCDC's data processing and validation procedures.
#
#######################################################################

data_ZEFXOZ
_symmetry_cell_setting           triclinic
_symmetry_space_group_name_H-M   'P -1'
_symmetry_Int_Tables_number      2
_space_group_name_Hall           '-P 1'
loop_
_symmetry_equiv_pos_site_id
_symmetry_equiv_pos_as_xyz
1 x,y,z
2 -x,-y,-z
_cell_length_a                   9.7186(5)
_cell_length_b                   11.4928(6)
_cell_length_c                   11.6881(6)
_cell_angle_alpha                63.618(5)
_cell_angle_beta                 80.197(5)
_cell_angle_gamma                81.893(4)
_cell_volume                     1149.28
loop_
_atom_site_label
_atom_site_type_symbol
_atom_site_fract_x
_atom_site_fract_y
_atom_site_fract_z
Zn1 Zn 0.59917(5) 0.23428(4) -0.13121(5)
C1 C 0.4202(4) 0.4851(4) -0.2243(4)
H1 H 0.3660 0.4441 -0.1457
C2 C 0.3836(4) 0.6125(4) -0.3031(5)
H2 H 0.3052 0.6561 -0.2779
C3 C 0.4629(4) 0.6755(4) -0.4194(4)
H3 H 0.4399 0.7620 -0.4734
C4 C 0.5787(4) 0.6066(4) -0.4544(4)
C5 C 0.6081(4) 0.4792(4) -0.3695(4)
H4 H 0.6861 0.4335 -0.3923
C6 C 0.6697(4) 0.6692(4) -0.5756(4)
C7 C 0.7730(4) 0.9325(4) -0.8615(4)
H5 H 0.8353 0.9210 -0.9305
H6 H 0.6817 0.9654 -0.8909
C8 C 0.7569(5) 1.1031(5) -0.7808(5)
H7 H 0.6610 1.1049 -0.7548
C9 C 0.9668(5) 1.1373(5) -0.8195(5)
H8 H 1.0495 1.1725 -0.8249
C10 C 0.8364(4) 0.6929(4) -0.7223(4)
C11 C 0.9657(4) 0.6706(4) -0.7994(4)
C12 C 0.9774(4) 0.5733(5) -0.8403(5)
H9 H 0.9025 0.5235 -0.8234
C13 C 1.1017(5) 0.5514(5) -0.9062(5)
H10 H 1.1103 0.4894 -0.9382
C14 C 1.2125(4) 0.6212(4) -0.9244(4)
H11 H 1.2959 0.6057 -0.9696
C15 C 1.0826(4) 0.7370(4) -0.8209(4)
H12 H 1.0753 0.8023 -0.7932
C16 C 0.3902(4) 0.1866(4) 0.0692(4)
C17 C 0.3237(4) -0.0906(4) 0.2534(4)
C18 C 0.2918(4) 0.0197(4) 0.2909(4)
C19 C 0.2199(4) -0.0032(5) 0.4123(4)
H13 H 0.1974 -0.0873 0.4695
C20 C 0.1817(5) 0.0966(5) 0.4486(5)
H14 H 0.1316 0.0803 0.5288
C21 C 0.2180(5) 0.2205(5) 0.3659(5)
H15 H 0.1919 0.2881 0.3902
C22 C 0.2924(4) 0.2450(4) 0.2475(4)
H16 H 0.3199 0.3284 0.1937
C23 C 0.3271(4) 0.1455(4) 0.2074(4)
N1 N 0.5319(3) 0.4173(3) -0.2568(3)
N2 N 0.7811(3) 0.6021(3) -0.6133(3)
N3 N 0.6522(3) 0.7928(3) -0.6558(3)
N4 N 0.7608(3) 0.8071(3) -0.7495(3)
N5 N 0.8259(3) 1.0259(3) -0.8326(3)
N6 N 0.9645(4) 1.0466(3) -0.8582(4)
N7 N 0.8429(4) 1.1766(4) -0.7714(4)
N8 N 1.2060(3) 0.7114(3) -0.8798(3)
O1 O 0.3139(3) 0.2184(3) -0.0148(3)
O2 O 0.5233(3) 0.1988(3) 0.0463(3)
O3 O 0.3941(3) -0.0696(3) 0.1447(3)
O4 O 0.2801(3) -0.1989(3) 0.3269(3)
Zn1A Zn 1.40083(5) 0.76572(4) -0.86879(5)
Zn1A_2 Zn 0.40083(5) -0.23428(4) 0.13121(5)
N8A N 0.7940(3) 0.2886(3) -0.1202(3)
O3A O 0.6059(3) 0.0696(3) -0.1447(3)
O5 O 0.0528(4) -0.3411(4) 0.5011(5)
H17 H 0.0973 -0.3052 0.4263
H18 H 0.0976 -0.4131 0.5424
loop_
_geom_bond_atom_site_label_1
_geom_bond_atom_site_label_2
_geom_bond_site_symmetry_1
_geom_bond_site_symmetry_2
Zn1 N1 1_555 1_555
C1 H1 1_555 1_555
C2 C1 1_555 1_555
H2 C2 1_555 1_555
C3 C2 1_555 1_555
H3 C3 1_555 1_555
C4 C3 1_555 1_555
C5 C4 1_555 1_555
H4 C5 1_555 1_555
C6 C4 1_555 1_555
C7 H5 1_555 1_555
H6 C7 1_555 1_555
C8 H7 1_555 1_555
C9 H8 1_555 1_555
C10 C11 1_555 1_555
C11 C12 1_555 1_555
C12 H9 1_555 1_555
C13 C12 1_555 1_555
H10 C13 1_555 1_555
C14 C13 1_555 1_555
H11 C14 1_555 1_555
C15 C11 1_555 1_555
H12 C15 1_555 1_555
C16 C23 1_555 1_555
C17 C18 1_555 1_555
C18 C19 1_555 1_555
C19 H13 1_555 1_555
C20 C19 1_555 1_555
H14 C20 1_555 1_555
C21 C20 1_555 1_555
H15 C21 1_555 1_555
C22 C21 1_555 1_555
H16 C22 1_555 1_555
C23 C18 1_555 1_555
N1 C1 1_555 1_555
N2 C6 1_555 1_555
N3 C6 1_555 1_555
N4 C7 1_555 1_555
N5 C7 1_555 1_555
N6 C9 1_555 1_555
N7 C8 1_555 1_555
N8 C14 1_555 1_555
O1 C16 1_555 1_555
O2 Zn1 1_555 1_555
O3 C17 1_555 1_555
O4 C17 1_555 1_555
O5 H17 1_555 1_555
H18 O5 1_555 1_555
Zn1A N8 1_555 1_555
Zn1A_2 O3 1_555 1_555
N8A Zn1 1_555 1_555
O3A Zn1 1_555 1_555
C5 N1 1_555 1_555
C8 N5 1_555 1_555
C9 N7 1_555 1_555
C10 N2 1_555 1_555
C10 N4 1_555 1_555
C15 N8 1_555 1_555
C16 O2 1_555 1_555
C22 C23 1_555 1_555
N3 N4 1_555 1_555
N5 N6 1_555 1_555

#END
