
#######################################################################
#
#                 Cambridge Crystallographic Data Centre
#                                CCDC 
#
#######################################################################
#
# If this CIF has been generated from an entry in the Cambridge 
# Structural Database, then it will include bibliographic, chemical, 
# crystal, experimental, refinement or atomic coordinate data resulting 
# from the CCDC's data processing and validation procedures.
#
#######################################################################

data_ZEFXIT
_symmetry_cell_setting           monoclinic
_symmetry_space_group_name_H-M   'P 21/c'
_symmetry_Int_Tables_number      14
_space_group_name_Hall           '-P 2ybc'
loop_
_symmetry_equiv_pos_site_id
_symmetry_equiv_pos_as_xyz
1 x,y,z
2 -x,1/2+y,1/2-z
3 -x,-y,-z
4 x,1/2-y,1/2+z
_cell_length_a                   11.8534(5)
_cell_length_b                   15.0975(5)
_cell_length_c                   12.5650(5)
_cell_angle_alpha                90
_cell_angle_beta                 111.268(5)
_cell_angle_gamma                90
_cell_volume                     2095.45
loop_
_atom_site_label
_atom_site_type_symbol
_atom_site_fract_x
_atom_site_fract_y
_atom_site_fract_z
Zn1 Zn 0.86530(3) 0.16955(2) -0.17793(3)
C1 C 0.8828(3) 0.0891(2) 0.0541(3)
H1 H 0.9048 0.1427 0.0926
C2 C 0.8421(3) -0.0065(2) -0.0774(3)
H2 H 0.8294 -0.0360 -0.1458
C3 C 0.7905(3) -0.1310(2) 0.0272(3)
H3 H 0.8508 -0.1586 0.0931
H4 H 0.7841 -0.1657 -0.0397
C4 C 0.5601(3) -0.1114(2) -0.0303(3)
C5 C 0.5200(3) -0.0880(2) -0.1519(3)
C6 C 0.5642(4) -0.0701(3) -0.3123(3)
H5 H 0.6206 -0.0703 -0.3479
C7 C 0.4468(4) -0.0504(3) -0.3772(3)
H6 H 0.4241 -0.0384 -0.4548
C8 C 0.3634(4) -0.0486(3) -0.3253(3)
H7 H 0.2831 -0.0344 -0.3671
C9 C 0.3991(3) -0.0680(3) -0.2107(3)
H8 H 0.3438 -0.0677 -0.1738
C10 C 0.5552(3) -0.1475(2) 0.1303(3)
C11 C 0.5031(3) -0.1664(2) 0.2169(3)
C12 C 0.3786(3) -0.1736(2) 0.1804(3)
H9 H 0.3341 -0.1712 0.1024
C13 C 0.3834(3) -0.1893(2) 0.3642(3)
H10 H 0.3429 -0.1957 0.4149
C14 C 0.5078(3) -0.1856(2) 0.4064(3)
H11 H 0.5507 -0.1914 0.4844
C15 C 0.5684(3) -0.1733(2) 0.3327(3)
H12 H 0.6525 -0.1696 0.3605
C16 C 0.9058(3) 0.3212(2) -0.0483(3)
C17 C 0.9030(3) 0.4244(2) 0.1612(3)
C18 C 0.9540(3) 0.4594(2) 0.0757(3)
C19 C 0.9560(3) 0.4130(2) -0.0197(3)
C20 C 1.0021(3) 0.4547(2) -0.0932(3)
H13 H 1.0038 0.4238 -0.1567
N1 N 0.8767(2) 0.07712(18) -0.0560(2)
N2 N 0.8550(3) 0.0191(2) 0.1000(2)
N3 N 0.8286(2) -0.04178(18) 0.0140(2)
N4 N 0.6739(2) -0.13053(19) 0.0420(2)
N5 N 0.6712(2) -0.15416(19) 0.1461(2)
N6 N 0.4836(2) -0.12110(19) 0.0237(2)
N7 N 0.6034(3) -0.0891(2) -0.2003(3)
N8 N 0.3188(2) -0.18399(18) 0.2518(2)
O1 O 0.9490(2) 0.27754(16) -0.1124(2)
O2 O 0.8280(2) 0.29332(16) -0.0139(2)
O3 O 0.9522(2) 0.35688(16) 0.21960(19)
O4 O 0.8190(3) 0.46510(18) 0.1745(2)
Zn1B Zn 0.13470(3) -0.16955(2) 0.17793(3)
Zn1A Zn 1.13470(3) 0.66955(2) -0.32207(3)
Zn1B_2 Zn 1.13470(3) 0.83045(2) 0.17793(3)
Zn1C Zn 0.86530(3) 0.33045(2) 0.32207(3)
C1B C 0.1172(3) -0.0891(2) -0.0541(3)
H1B H 0.0952 -0.1427 -0.0926
C2B C 0.1579(3) 0.0065(2) 0.0774(3)
H2B H 0.1706 0.0360 0.1458
C3B C 0.2095(3) 0.1310(2) -0.0272(3)
H3B H 0.1492 0.1586 -0.0931
H4B H 0.2159 0.1657 0.0397
C4B C 0.4399(3) 0.1114(2) 0.0303(3)
C5B C 0.4800(3) 0.0880(2) 0.1519(3)
C6B C 0.4358(4) 0.0701(3) 0.3123(3)
H5B H 0.3794 0.0703 0.3479
C7B C 0.5532(4) 0.0504(3) 0.3772(3)
H6B H 0.5759 0.0384 0.4548
C8B C 0.6366(4) 0.0486(3) 0.3253(3)
H7B H 0.7169 0.0344 0.3671
C9B C 0.6009(3) 0.0680(3) 0.2107(3)
H8B H 0.6562 0.0677 0.1738
C10B C 0.4448(3) 0.1475(2) -0.1303(3)
C11B C 0.4969(3) 0.1664(2) -0.2169(3)
C12B C 0.6214(3) 0.1736(2) -0.1804(3)
H9B H 0.6659 0.1712 -0.1024
C13B C 0.6166(3) 0.1893(2) -0.3642(3)
H10B H 0.6571 0.1957 -0.4149
C14B C 0.4922(3) 0.1856(2) -0.4064(3)
H11B H 0.4493 0.1914 -0.4844
C15B C 0.4316(3) 0.1733(2) -0.3327(3)
H12B H 0.3475 0.1696 -0.3605
C16B C 1.0942(3) 0.6788(2) 0.0483(3)
C17B C 1.0970(3) 0.5756(2) -0.1612(3)
C18B C 1.0460(3) 0.5406(2) -0.0757(3)
C19B C 1.0440(3) 0.5870(2) 0.0197(3)
C20B C 0.9979(3) 0.5453(2) 0.0932(3)
H13B H 0.9962 0.5762 0.1567
N1B N 0.1233(2) -0.07712(18) 0.0560(2)
N2B N 0.1450(3) -0.0191(2) -0.1000(2)
N3B N 0.1714(2) 0.04178(18) -0.0140(2)
N4B N 0.3261(2) 0.13053(19) -0.0420(2)
N5B N 0.3288(2) 0.15416(19) -0.1461(2)
N6B N 0.5164(2) 0.12110(19) -0.0237(2)
N7B N 0.3966(3) 0.0891(2) 0.2003(3)
N8B N 0.6812(2) 0.18399(18) -0.2518(2)
O1B O 1.0510(2) 0.72246(16) 0.1124(2)
O1B_2 O 0.0510(2) -0.27754(16) 0.1124(2)
O2B O 1.1720(2) 0.70668(16) 0.0139(2)
O3B O 1.0478(2) 0.64312(16) -0.21960(19)
O3A O 0.0478(2) -0.14312(16) 0.28040(19)
O3C O 0.9522(2) 0.14312(16) -0.28040(19)
O4B O 1.1810(3) 0.53490(18) -0.1745(2)
O5 O 1.1251(3) 0.2298(3) 0.1759(3)
H14 H 1.1527 0.2821 0.1936
H15 H 1.1430 0.1942 0.2329
O6 O 1.2158(6) 0.3427(4) -0.0832(6)
H16 H 1.1449 0.3247 -0.0923
H17 H 1.2149 0.3989 -0.0824
loop_
_geom_bond_atom_site_label_1
_geom_bond_atom_site_label_2
_geom_bond_site_symmetry_1
_geom_bond_site_symmetry_2
Zn1 N1 1_555 1_555
C1 H1 1_555 1_555
C2 H2 1_555 1_555
C3 H3 1_555 1_555
H4 C3 1_555 1_555
C4 C5 1_555 1_555
C5 C9 1_555 1_555
C6 H5 1_555 1_555
C7 C6 1_555 1_555
H6 C7 1_555 1_555
C8 C7 1_555 1_555
H7 C8 1_555 1_555
C9 C8 1_555 1_555
H8 C9 1_555 1_555
C10 C11 1_555 1_555
C11 C12 1_555 1_555
C12 H9 1_555 1_555
C13 H10 1_555 1_555
C14 C13 1_555 1_555
H11 C14 1_555 1_555
C15 C11 1_555 1_555
H12 C15 1_555 1_555
C16 C19 1_555 1_555
C17 C18 1_555 1_555
C18 C19 1_555 1_555
C19 C20 1_555 1_555
C20 H13 1_555 1_555
N1 C1 1_555 1_555
N2 C1 1_555 1_555
N3 C2 1_555 1_555
N4 C3 1_555 1_555
N5 C10 1_555 1_555
N6 C4 1_555 1_555
N7 C5 1_555 1_555
N8 C12 1_555 1_555
O1 Zn1 1_555 1_555
O2 C16 1_555 1_555
O3 C17 1_555 1_555
O4 C17 1_555 1_555
O5 H14 1_555 1_555
H15 O5 1_555 1_555
O6 H16 1_555 1_555
H17 O6 1_555 1_555
Zn1B N8 1_555 1_555
Zn1A O3B 1_555 1_555
Zn1B_2 O1B 1_555 1_555
Zn1C O3 1_555 1_555
C1B H1B 1_555 1_555
C2B H2B 1_555 1_555
C3B H3B 1_555 1_555
H4B C3B 1_555 1_555
C4B C5B 1_555 1_555
C5B C9B 1_555 1_555
C6B H5B 1_555 1_555
C7B C6B 1_555 1_555
H6B C7B 1_555 1_555
C8B C7B 1_555 1_555
H7B C8B 1_555 1_555
C9B C8B 1_555 1_555
H8B C9B 1_555 1_555
C10B C11B 1_555 1_555
C11B C12B 1_555 1_555
C12B H9B 1_555 1_555
C13B H10B 1_555 1_555
C14B C13B 1_555 1_555
H11B C14B 1_555 1_555
C15B C11B 1_555 1_555
H12B C15B 1_555 1_555
C16B C19B 1_555 1_555
C17B C18B 1_555 1_555
C18B C20 1_555 1_555
C19B C18B 1_555 1_555
C20B C18 1_555 1_555
H13B C20B 1_555 1_555
N1B Zn1B 1_555 1_555
N2B C1B 1_555 1_555
N3B C2B 1_555 1_555
N4B C3B 1_555 1_555
N5B C10B 1_555 1_555
N6B C4B 1_555 1_555
N7B C5B 1_555 1_555
N8B Zn1 1_555 1_555
O1B C16B 1_555 1_555
O1B_2 Zn1B 1_555 1_555
O2B C16B 1_555 1_555
O3B C17B 1_555 1_555
O3A Zn1B 1_555 1_555
O3C Zn1 1_555 1_555
O4B C17B 1_555 1_555
C2 N1 1_555 1_555
C3 N3 1_555 1_555
C4 N4 1_555 1_555
C6 N7 1_555 1_555
C10 N6 1_555 1_555
C13 N8 1_555 1_555
C14 C15 1_555 1_555
C16 O1 1_555 1_555
N2 N3 1_555 1_555
N4 N5 1_555 1_555
C1B N1B 1_555 1_555
C2B N1B 1_555 1_555
C3B N3B 1_555 1_555
C4B N4B 1_555 1_555
C6B N7B 1_555 1_555
C10B N6B 1_555 1_555
C12B N8B 1_555 1_555
C13B N8B 1_555 1_555
C14B C15B 1_555 1_555
C19B C20B 1_555 1_555
N2B N3B 1_555 1_555
N4B N5B 1_555 1_555

#END
