
#######################################################################
#
#                 Cambridge Crystallographic Data Centre
#                                CCDC 
#
#######################################################################
#
# If this CIF has been generated from an entry in the Cambridge 
# Structural Database, then it will include bibliographic, chemical, 
# crystal, experimental, refinement or atomic coordinate data resulting 
# from the CCDC's data processing and validation procedures.
#
#######################################################################

data_ZEFXUF
_symmetry_cell_setting           monoclinic
_symmetry_space_group_name_H-M   'P 21/n'
_symmetry_Int_Tables_number      14
_space_group_name_Hall           '-P 2yn'
loop_
_symmetry_equiv_pos_site_id
_symmetry_equiv_pos_as_xyz
1 x,y,z
2 1/2-x,1/2+y,1/2-z
3 -x,-y,-z
4 1/2+x,1/2-y,1/2+z
_cell_length_a                   9.8552(3)
_cell_length_b                   23.1468(8)
_cell_length_c                   10.2245(4)
_cell_angle_alpha                90
_cell_angle_beta                 98.033(3)
_cell_angle_gamma                90
_cell_volume                     2309.49
loop_
_atom_site_label
_atom_site_type_symbol
_atom_site_fract_x
_atom_site_fract_y
_atom_site_fract_z
Zn1 Zn -0.15598(4) 0.072748(16) 0.79158(4)
C1 C 0.1524(3) 0.07943(13) 0.7504(3)
H1 H 0.1320 0.0650 0.6651
C2 C 0.1413(3) 0.10799(16) 0.9417(4)
H2 H 0.1055 0.1168 1.0188
C3 C 0.4031(3) 0.09900(13) 0.7494(3)
H3 H 0.4030 0.0695 0.6821
H4 H 0.4793 0.0913 0.8181
C4 C 0.4585(3) 0.20834(14) 0.7429(4)
C5 C 0.5055(3) 0.22473(14) 0.8804(4)
C6 C 0.5114(4) 0.28347(16) 0.9098(5)
H5 H 0.4798 0.3093 0.8427
C7 C 0.6030(4) 0.26778(18) 1.1246(5)
H6 H 0.6357 0.2821 1.2081
C8 C 0.6013(3) 0.20907(16) 1.1053(4)
H7 H 0.6327 0.1843 1.1745
C9 C 0.5525(3) 0.18732(15) 0.9825(4)
H8 H 0.5512 0.1476 0.9680
C10 C 0.3996(3) 0.21573(15) 0.5364(4)
C11 C 0.3639(3) 0.24293(15) 0.4059(4)
C12 C 0.3634(3) 0.30271(15) 0.3978(4)
H9 H 0.3909 0.3237 0.4745
C13 C 0.2848(3) 0.30084(16) 0.1774(4)
H10 H 0.2567 0.3204 0.0989
C14 C 0.2824(4) 0.24130(16) 0.1761(4)
H11 H 0.2540 0.2214 0.0981
C15 C 0.3224(4) 0.21179(16) 0.2913(4)
H12 H 0.3218 0.1716 0.2927
C16 C -0.2277(4) 0.06477(13) 0.5307(3)
C17 C -0.2256(3) 0.06389(13) 0.0407(3)
C18 C -0.3038(3) 0.05872(12) 0.1568(3)
C19 C -0.2352(3) 0.06288(12) 0.2841(3)
H13 H -0.1406 0.0675 0.2972
C20 C -0.3058(3) 0.06031(12) 0.3930(3)
C21 C -0.4472(3) 0.05358(13) 0.3718(3)
H14 H -0.4959 0.0525 0.4434
C22 C -0.5160(3) 0.04853(14) 0.2453(3)
H15 H -0.6105 0.0432 0.2321
C23 C -0.4453(3) 0.05133(13) 0.1388(3)
H16 H -0.4925 0.0483 0.0537
N1 N 0.0624(2) 0.08607(11) 0.8329(3)
N2 N 0.2695(3) 0.11572(14) 0.9306(3)
N3 N 0.2758(3) 0.09609(11) 0.8052(3)
N4 N 0.4217(3) 0.15545(11) 0.6915(3)
N5 N 0.3828(3) 0.16006(11) 0.5586(3)
N6 N 0.4458(3) 0.24710(12) 0.6464(3)
N7 N 0.5598(3) 0.30515(14) 1.0286(4)
N8 N 0.3256(3) 0.33180(11) 0.2861(3)
O1 O -0.1019(3) 0.06800(12) 0.5462(3)
O2 O -0.2967(3) 0.06541(10) 0.6258(2)
O3 O -0.0985(2) 0.06637(12) 0.0610(2)
O4 O -0.2918(2) 0.06760(9) -0.0733(2)
O5 O -0.1242(2) -0.01621(9) 0.7963(2)
H17 H -0.1485 -0.0335 0.7253
H18 H -0.0522 -0.0273 0.8442
Zn1_2 Zn -0.15598(4) 0.072748(16) -0.20842(4)
Zn1C Zn 0.34402(4) 0.427252(16) 0.29158(4)
N8C N -0.1744(3) 0.16820(11) 0.7861(3)
O4_2 O -0.2918(2) 0.06760(9) 0.9267(2)
O6 O 0.1372(3) 0.07602(11) 0.4308(3)
H19 H 0.2205 0.0811 0.4635
H20 H 0.0881 0.0967 0.4744
loop_
_geom_bond_atom_site_label_1
_geom_bond_atom_site_label_2
_geom_bond_site_symmetry_1
_geom_bond_site_symmetry_2
Zn1 N1 1_555 1_555
C1 H1 1_555 1_555
C2 H2 1_555 1_555
C3 H3 1_555 1_555
H4 C3 1_555 1_555
C4 C5 1_555 1_555
C5 C6 1_555 1_555
C6 H5 1_555 1_555
C7 H6 1_555 1_555
C8 C7 1_555 1_555
H7 C8 1_555 1_555
C9 C5 1_555 1_555
H8 C9 1_555 1_555
C10 C11 1_555 1_555
C11 C12 1_555 1_555
C12 H9 1_555 1_555
C13 H10 1_555 1_555
C14 C13 1_555 1_555
H11 C14 1_555 1_555
C15 C11 1_555 1_555
H12 C15 1_555 1_555
C16 C20 1_555 1_555
C17 C18 1_555 1_555
C18 C19 1_555 1_555
C19 H13 1_555 1_555
C20 C19 1_555 1_555
C21 C20 1_555 1_555
H14 C21 1_555 1_555
C22 C21 1_555 1_555
H15 C22 1_555 1_555
C23 C18 1_555 1_555
H16 C23 1_555 1_555
N1 C1 1_555 1_555
N2 C2 1_555 1_555
N3 C1 1_555 1_555
N4 C3 1_555 1_555
N5 C10 1_555 1_555
N6 C4 1_555 1_555
N7 C6 1_555 1_555
N8 C12 1_555 1_555
O1 C16 1_555 1_555
O2 Zn1 1_555 1_555
O3 C17 1_555 1_555
O4 C17 1_555 1_555
O5 Zn1 1_555 1_555
H17 O5 1_555 1_555
H18 O5 1_555 1_555
O6 H19 1_555 1_555
H20 O6 1_555 1_555
Zn1_2 O4 1_555 1_555
Zn1C N8 1_555 1_555
N8C Zn1 1_555 1_555
O4_2 Zn1 1_555 1_555
C2 N1 1_555 1_555
C3 N3 1_555 1_555
C4 N4 1_555 1_555
C7 N7 1_555 1_555
C8 C9 1_555 1_555
C10 N6 1_555 1_555
C13 N8 1_555 1_555
C14 C15 1_555 1_555
C16 O2 1_555 1_555
C22 C23 1_555 1_555
N2 N3 1_555 1_555
N4 N5 1_555 1_555

#END
