
#######################################################################
#
#                 Cambridge Crystallographic Data Centre
#                                CCDC 
#
#######################################################################
#
# If this CIF has been generated from an entry in the Cambridge 
# Structural Database, then it will include bibliographic, chemical, 
# crystal, experimental, refinement or atomic coordinate data resulting 
# from the CCDC's data processing and validation procedures.
#
#######################################################################

data_ZEFXEP
_symmetry_cell_setting           monoclinic
_symmetry_space_group_name_H-M   'C 2/c'
_symmetry_Int_Tables_number      15
_space_group_name_Hall           '-C 2yn'
loop_
_symmetry_equiv_pos_site_id
_symmetry_equiv_pos_as_xyz
1 x,y,z
2 -x,y,1/2-z
3 1/2+x,1/2+y,z
4 1/2-x,1/2+y,1/2-z
5 -x,-y,-z
6 x,-y,1/2+z
7 1/2-x,1/2-y,-z
8 1/2+x,1/2-y,1/2+z
_cell_length_a                   25.9785(7)
_cell_length_b                   10.1939(2)
_cell_length_c                   19.4052(5)
_cell_angle_alpha                90
_cell_angle_beta                 101.070(3)
_cell_angle_gamma                90
_cell_volume                     5043.31
loop_
_atom_site_label
_atom_site_type_symbol
_atom_site_fract_x
_atom_site_fract_y
_atom_site_fract_z
Zn1 Zn -0.051680(16) 0.09109(4) 0.11429(2)
Zn2 Zn -0.09807(2) 0.28527(5) -0.01793(2)
C1 C 0.06699(17) 0.1068(4) 0.1697(2)
H1 H 0.0643 0.0693 0.2125
C2 C 0.04603(14) 0.1760(4) 0.0667(2)
H2 H 0.0275 0.1990 0.0225
C3 C 0.13230(14) 0.2685(4) 0.0546(2)
H3 H 0.1156 0.2868 0.0064
H4 H 0.1400 0.3517 0.0786
C4 C 0.23051(15) 0.0631(4) 0.0198(2)
C5 C 0.24999(15) -0.0402(4) -0.0213(2)
C6 C 0.30247(16) -0.0729(4) -0.0065(2)
H5 H 0.3244 -0.0292 0.0298
C7 C 0.2914(2) -0.2270(4) -0.0943(2)
H6 H 0.3055 -0.2907 -0.1196
C8 C 0.2392(2) -0.2003(5) -0.1117(3)
H7 H 0.2182 -0.2455 -0.1482
C9 C 0.21758(19) -0.1068(4) -0.0753(2)
H8 H 0.1819 -0.0882 -0.0865
C10 C 0.22952(14) 0.2143(4) 0.0937(2)
C11 C 0.24615(15) 0.3085(4) 0.1510(2)
C12 C 0.29824(17) 0.3173(5) 0.1812(2)
H9 H 0.3229 0.2644 0.1657
C13 C 0.3134(2) 0.4061(5) 0.2350(3)
H10 H 0.3485 0.4159 0.2556
C14 C 0.2754(2) 0.4798(5) 0.2573(3)
H11 H 0.2843 0.5394 0.2940
C15 C 0.2248(2) 0.4640(5) 0.2249(3)
H12 H 0.1995 0.5146 0.2405
C16 C -0.07581(17) 0.5958(4) 0.3631(2)
C17 C -0.05971(14) 0.8492(3) 0.14686(19)
C18 C -0.07301(16) 0.3643(4) 0.1328(2)
C19 C -0.07150(14) 0.4858(3) 0.1770(2)
C20 C -0.07395(15) 0.4825(3) 0.2482(2)
H13 H -0.0764 0.4024 0.2703
C21 C -0.07272(14) 0.5980(3) 0.2862(2)
C22 C -0.06818(13) 0.7169(3) 0.25374(19)
H14 H -0.0670 0.7942 0.2795
C23 C -0.06529(13) 0.7223(3) 0.18278(19)
C24 C -0.06688(14) 0.6058(3) 0.1453(2)
H15 H -0.0648 0.6084 0.0981
N1 N 0.02539(12) 0.1210(3) 0.11642(16)
N2 N 0.11135(14) 0.1502(4) 0.15590(19)
N3 N 0.09657(11) 0.1936(3) 0.08864(15)
N4 N 0.18065(11) 0.1982(3) 0.05512(16)
N5 N 0.18075(12) 0.0995(3) 0.00776(17)
N6 N 0.26188(12) 0.1305(3) 0.07185(17)
N7 N 0.32332(14) -0.1646(3) -0.04209(17)
N8 N 0.20885(14) 0.3802(4) 0.1719(2)
O1 O -0.08125(14) 0.7084(3) 0.38975(16)
O2 O -0.07328(17) 0.4922(3) 0.39514(18)
O3 O -0.06361(11) 0.9551(2) 0.18079(13)
O4 O -0.05193(13) 0.8501(3) 0.08618(14)
O5 O -0.07545(17) 0.3829(3) 0.06766(18)
O6 O -0.06939(13) 0.2554(3) 0.16272(17)
O7 O -0.09098(13) 0.1109(3) 0.02012(15)
Zn1_2 Zn -0.051680(16) 1.09109(4) 0.11429(2)
Zn2B Zn 0.40193(2) -0.21473(5) -0.01793(2)
Zn2E Zn -0.09807(2) 0.71473(5) 0.48207(2)
N7B N -0.17668(14) 0.3354(3) -0.04209(17)
O1E O -0.08125(14) 0.2916(3) -0.11025(16)
O3_2 O -0.06361(11) -0.0449(2) 0.18079(13)
O8 O -0.0118(7) 0.4146(15) 0.0004(8)
H16 H -0.0444 0.3983 -0.0126
H17 H -0.0017 0.3815 0.0406
loop_
_geom_bond_atom_site_label_1
_geom_bond_atom_site_label_2
_geom_bond_site_symmetry_1
_geom_bond_site_symmetry_2
Zn1 N1 1_555 1_555
Zn2 O5 1_555 1_555
C1 H1 1_555 1_555
C2 H2 1_555 1_555
C3 H3 1_555 1_555
H4 C3 1_555 1_555
C4 C5 1_555 1_555
C5 C6 1_555 1_555
C6 H5 1_555 1_555
C7 H6 1_555 1_555
C8 C7 1_555 1_555
H7 C8 1_555 1_555
C9 C5 1_555 1_555
H8 C9 1_555 1_555
C10 C11 1_555 1_555
C11 C12 1_555 1_555
C12 H9 1_555 1_555
C13 C12 1_555 1_555
H10 C13 1_555 1_555
C14 C13 1_555 1_555
H11 C14 1_555 1_555
C15 C14 1_555 1_555
H12 C15 1_555 1_555
C16 C21 1_555 1_555
C17 C23 1_555 1_555
C18 C19 1_555 1_555
C19 C20 1_555 1_555
C20 H13 1_555 1_555
C21 C20 1_555 1_555
C22 C21 1_555 1_555
H14 C22 1_555 1_555
C23 C22 1_555 1_555
C24 C19 1_555 1_555
H15 C24 1_555 1_555
N1 C1 1_555 1_555
N2 C1 1_555 1_555
N3 C2 1_555 1_555
N4 C3 1_555 1_555
N5 C4 1_555 1_555
N6 C4 1_555 1_555
N7 C6 1_555 1_555
N8 C11 1_555 1_555
O1 C16 1_555 1_555
O2 C16 1_555 1_555
O3 C17 1_555 1_555
O4 C17 1_555 1_555
O5 C18 1_555 1_555
O6 Zn1 1_555 1_555
O7 Zn1 1_555 1_555
O8 H16 1_555 1_555
H17 O8 1_555 1_555
Zn1_2 O3 1_555 1_555
Zn2B N7 1_555 1_555
Zn2E O1 1_555 1_555
N7B Zn2 1_555 1_555
O1E Zn2 1_555 1_555
O3_2 Zn1 1_555 1_555
Zn2 O7 1_555 1_555
C2 N1 1_555 1_555
C3 N3 1_555 1_555
C7 N7 1_555 1_555
C8 C9 1_555 1_555
C10 N4 1_555 1_555
C10 N6 1_555 1_555
C15 N8 1_555 1_555
C18 O6 1_555 1_555
C23 C24 1_555 1_555
N2 N3 1_555 1_555
N4 N5 1_555 1_555

#END
