
#######################################################################
#
#                 Cambridge Crystallographic Data Centre
#                                CCDC 
#
#######################################################################
#
# If this CIF has been generated from an entry in the Cambridge 
# Structural Database, then it will include bibliographic, chemical, 
# crystal, experimental, refinement or atomic coordinate data resulting 
# from the CCDC's data processing and validation procedures.
#
#######################################################################

data_ZEFYEQ
_symmetry_cell_setting           hexagonal
_symmetry_space_group_name_H-M   'P 65 2 2'
_symmetry_Int_Tables_number      179
_space_group_name_Hall           "P 65 2' (0,0,1)"
loop_
_symmetry_equiv_pos_site_id
_symmetry_equiv_pos_as_xyz
1 x,y,z
2 x-y,x,5/6+z
3 -y,x-y,2/3+z
4 -x,-y,1/2+z
5 -x+y,-x,1/3+z
6 y,-x+y,1/6+z
7 x-y,-y,-z
8 -x,-x+y,1/3-z
9 y,x,2/3-z
10 -y,-x,1/6-z
11 -x+y,y,1/2-z
12 x,x-y,5/6-z
_cell_length_a                   23.9581(9)
_cell_length_b                   23.9581(9)
_cell_length_c                   29.2285(14)
_cell_angle_alpha                90
_cell_angle_beta                 90
_cell_angle_gamma                120
_cell_volume                     14529.2
loop_
_atom_site_label
_atom_site_type_symbol
_atom_site_fract_x
_atom_site_fract_y
_atom_site_fract_z
Zn1 Zn 0.44131(8) 0.56441(8) 0.13889(3)
O1 O 0.4782(2) 0.5138(2) 0.12407(16)
O2 O 0.4694(2) -0.3568(3) 0.11533(19)
O3 O 0.4852(2) -0.3472(2) 0.03718(14)
O4 O 0.4553(3) 0.5688(2) 0.20387(10)
C1 C 0.4983(4) 0.5017(4) 0.0833
C2 C 0.5310(3) 0.4690(3) 0.0833
C3 C 0.5465(3) 0.4489(4) 0.1289(2)
C4 C 0.5804(3) 0.4145(3) 0.12905(19)
C5 C 0.5959(3) 0.4041(3) 0.0833
C6 C 0.6318(5) 0.3682(5) 0.0833
C7 C 0.6167(4) 0.3144(5) 0.1115(3)
C8 C 0.6543(4) 0.2820(4) 0.1134(2)
C9 C 0.7041(3) 0.2959(3) 0.0833
C10 C 0.7433(5) 0.2567(5) 0.0833
C11 C 0.7063(4) 0.1885(4) 0.0856(2)
C12 C 0.7438(3) 0.1567(4) 0.08706(18)
C13 C 0.8121(2) 0.1879(2) 0.0833
C14 C 0.6959(5) 0.0867(3) 0.0891(3)
C15 C 0.6414(5) 0.0572(5) 0.1192(3)
C16 C 0.6148(5) -0.0072(7) 0.1163(3)
C17 C 0.6361(5) -0.0358(4) 0.0827(4)
C18 C 0.6939(4) -0.0121(5) 0.05865(19)
C19 C 0.7290(4) 0.0582(5) 0.0643(3)
C20 C 0.6020(5) -0.1033(8) 0.0815(4)
C21 C 0.5746(3) -0.1439(5) 0.1216(3)
C22 C 0.5400(3) -0.2115(5) 0.1241(2)
C23 C 0.5330(3) -0.2405(4) 0.0799(5)
C24 C 0.5582(5) -0.2064(8) 0.0359(5)
C25 C 0.5910(3) -0.1386(4) 0.0400(3)
C26 C 0.4945(5) -0.3103(6) 0.0752(4)
Zn1I Zn 0.43559(8) 0.55869(8) 0.02778(3)
Zn1_2 Zn 0.44131(8) -0.43559(8) 0.13889(3)
Zn1I_2 Zn 0.43559(8) -0.44131(8) 0.02778(3)
Zn1I_3 Zn 1.43559(8) 0.55869(8) 0.02778(3)
Zn1_3 Zn 1.44131(8) 0.56441(8) 0.13889(3)
O1I O 0.4862(2) 0.5218(2) 0.04260(16)
O2I O 1.3568(3) 0.5306(2) 0.05134(19)
O2_2 O 0.4694(2) 0.6432(3) 0.11533(19)
O2I_2 O 0.3568(3) 0.5306(2) 0.05134(19)
O3I O 1.3472(2) 0.5148(2) 0.12949(14)
O3I_2 O 0.3472(2) 0.5148(2) 0.12949(14)
O3_2 O 0.4852(2) 0.6528(2) 0.03718(14)
O4I O 0.4312(2) 0.5447(3) -0.03720(10)
C3I C 0.5511(4) 0.4535(3) 0.0378(2)
C4I C 0.5855(3) 0.4196(3) 0.03762(19)
C7I C 0.6856(5) 0.3833(4) 0.0552(3)
C8I C 0.7180(4) 0.3457(4) 0.0533(2)
C11I C 0.8115(4) 0.2937(4) 0.0811(2)
C12I C 0.8433(4) 0.2562(3) 0.07961(18)
C14I C 0.9133(3) 0.3041(5) 0.0776(3)
C15I C 0.9428(5) 0.3586(5) 0.0475(3)
C16I C 1.0072(7) 0.3852(5) 0.0504(3)
C17I C 1.0358(4) 0.3639(5) 0.0840(4)
C18I C 1.0121(5) 0.3061(4) 0.10802(19)
C19I C 0.9418(5) 0.2710(4) 0.1024(3)
C20I C 1.1033(8) 0.3980(5) 0.0852(4)
C21I C 1.1439(5) 0.4254(3) 0.0451(3)
C22I C 1.2115(5) 0.4600(3) 0.0426(2)
C23I C 1.2405(4) 0.4670(3) 0.0868(5)
C24I C 1.2064(8) 0.4418(5) 0.1308(5)
C25I C 1.1386(4) 0.4090(3) 0.1267(3)
C26I C 1.3103(6) 0.5055(5) 0.0915(4)
loop_
_geom_bond_atom_site_label_1
_geom_bond_atom_site_label_2
_geom_bond_site_symmetry_1
_geom_bond_site_symmetry_2
Zn1 O1 1_555 1_555
O1 C1 1_555 1_555
O2 C26 1_555 1_555
O3 C26 1_555 1_555
O4 Zn1 1_555 1_555
C1 C2 1_555 1_555
C2 C3 1_555 1_555
C3 C4 1_555 1_555
C4 C5 1_555 1_555
C5 C6 1_555 1_555
C6 C7 1_555 1_555
C7 C8 1_555 1_555
C8 C9 1_555 1_555
C9 C10 1_555 1_555
C10 C11 1_555 1_555
C11 C12 1_555 1_555
C12 C13 1_555 1_555
C13 C12I 1_555 1_555
C14 C12 1_555 1_555
C15 C14 1_555 1_555
C16 C15 1_555 1_555
C17 C16 1_555 1_555
C18 C17 1_555 1_555
C19 C14 1_555 1_555
C20 C17 1_555 1_555
C21 C20 1_555 1_555
C22 C21 1_555 1_555
C23 C22 1_555 1_555
C24 C23 1_555 1_555
C25 C20 1_555 1_555
C26 C23 1_555 1_555
Zn1I O1I 1_555 1_555
Zn1_2 O2 1_555 1_555
Zn1I_2 O3 1_555 1_555
Zn1I_3 O2I 1_555 1_555
Zn1_3 O3I 1_555 1_555
O1I C1 1_555 1_555
O2I C26I 1_555 1_555
O2_2 Zn1 1_555 1_555
O2I_2 Zn1I 1_555 1_555
O3I C26I 1_555 1_555
O3I_2 Zn1 1_555 1_555
O3_2 Zn1I 1_555 1_555
O4I Zn1I 1_555 1_555
C3I C2 1_555 1_555
C4I C5 1_555 1_555
C7I C6 1_555 1_555
C8I C9 1_555 1_555
C11I C10 1_555 1_555
C12I C11I 1_555 1_555
C14I C12I 1_555 1_555
C15I C14I 1_555 1_555
C16I C15I 1_555 1_555
C17I C16I 1_555 1_555
C18I C17I 1_555 1_555
C19I C14I 1_555 1_555
C20I C17I 1_555 1_555
C21I C20I 1_555 1_555
C22I C21I 1_555 1_555
C23I C22I 1_555 1_555
C24I C23I 1_555 1_555
C25I C20I 1_555 1_555
C26I C23I 1_555 1_555
C18 C19 1_555 1_555
C24 C25 1_555 1_555
C3I C4I 1_555 1_555
C7I C8I 1_555 1_555
C18I C19I 1_555 1_555
C24I C25I 1_555 1_555

#END
