
#######################################################################
#
#                 Cambridge Crystallographic Data Centre
#                                CCDC 
#
#######################################################################
#
# If this CIF has been generated from an entry in the Cambridge 
# Structural Database, then it will include bibliographic, chemical, 
# crystal, experimental, refinement or atomic coordinate data resulting 
# from the CCDC's data processing and validation procedures.
#
#######################################################################

data_ZEFYOA
_symmetry_cell_setting           orthorhombic
_symmetry_space_group_name_H-M   'F d d 2'
_symmetry_Int_Tables_number      43
_space_group_name_Hall           'F 2 -2d'
loop_
_symmetry_equiv_pos_site_id
_symmetry_equiv_pos_as_xyz
1 x,y,z
2 -x,-y,z
3 1/4+x,1/4-y,1/4+z
4 1/4-x,1/4+y,1/4+z
5 x,1/2+y,1/2+z
6 -x,1/2-y,1/2+z
7 1/4+x,3/4-y,3/4+z
8 1/4-x,3/4+y,3/4+z
9 1/2+x,y,1/2+z
10 1/2-x,-y,1/2+z
11 3/4+x,1/4-y,3/4+z
12 3/4-x,1/4+y,3/4+z
13 1/2+x,1/2+y,z
14 1/2-x,1/2-y,z
15 3/4+x,3/4-y,1/4+z
16 3/4-x,3/4+y,1/4+z
_cell_length_a                   36.256(4)
_cell_length_b                   54.989(5)
_cell_length_c                   16.0501(14)
_cell_angle_alpha                90
_cell_angle_beta                 90
_cell_angle_gamma                90
_cell_volume                     31998.8
loop_
_atom_site_label
_atom_site_type_symbol
_atom_site_fract_x
_atom_site_fract_y
_atom_site_fract_z
La1 La 0.134326(7) 0.091190(4) 0.272054(19)
Cl1 Cl 0.12653(12) 0.12451(7) 0.1655(3)
Cl2 Cl 0.18211(11) 0.06895(7) 0.3508(3)
O1 O 0.14656(11) 0.06873(8) 0.1375(4)
O2 O 0.10973(12) 0.08026(9) 0.4160(4)
O3 O 0.11218(14) 0.04653(8) 0.2849(4)
C1 C 0.03989(13) 0.08451(8) 0.1794(4)
C2 C -0.01773(15) 0.07808(9) 0.1132(5)
C3 C -0.02373(15) 0.08200(9) 0.2070(4)
C4 C -0.05777(12) 0.11079(8) 0.1281(3)
C5 C 0.02232(18) 0.08837(10) 0.3267(4)
H1 H 0.0030 0.0800 0.3585
H2 H 0.0457 0.0801 0.3386
C6 C -0.06066(13) 0.11685(10) 0.2822(4)
H3 H -0.0831 0.1260 0.2687
H4 H -0.0670 0.1044 0.3236
C7 C 0.05533(14) 0.12720(9) 0.3491(3)
C8 C -0.00640(15) 0.12726(10) 0.3826(3)
C9 C 0.01074(14) 0.15201(10) 0.4078(3)
C10 C -0.03715(15) 0.15783(9) 0.3109(3)
C11 C 0.07722(15) 0.16773(12) 0.3830(4)
H5 H 0.1010 0.1593 0.3803
H6 H 0.0755 0.1758 0.4373
C12 C -0.00884(14) 0.19544(11) 0.3645(3)
H7 H -0.0334 0.2025 0.3564
H8 H -0.0009 0.1998 0.4208
C13 C 0.09944(14) 0.18442(8) 0.2523(3)
C14 C 0.05607(13) 0.20925(9) 0.3173(4)
C15 C 0.06865(14) 0.22171(8) 0.2344(4)
C16 C 0.00411(15) 0.21598(8) 0.2330(4)
C17 C 0.11864(14) 0.20857(9) 0.1301(4)
H9 H 0.1422 0.2002 0.1385
H10 H 0.1239 0.2259 0.1231
C18 C 0.03050(17) 0.23285(10) 0.1071(5)
H11 H 0.0458 0.2475 0.1030
H12 H 0.0047 0.2379 0.1006
C19 C 0.11090(13) 0.17822(10) 0.0225(4)
C20 C 0.07694(15) 0.21425(9) -0.0035(4)
C21 C 0.06878(17) 0.19490(13) -0.0747(4)
C22 C 0.01340(14) 0.20427(9) -0.0037(4)
C23 C 0.09661(17) 0.15251(13) -0.1025(4)
H13 H 0.0966 0.1568 -0.1617
H14 H 0.1208 0.1456 -0.0892
C24 C 0.00714(15) 0.17573(10) -0.1192(3)
H15 H 0.0165 0.1770 -0.1763
H16 H -0.0180 0.1824 -0.1188
C25 C 0.07462(15) 0.11565(10) -0.0314(3)
C26 C 0.03319(15) 0.13199(9) -0.1300(3)
C27 C 0.01643(14) 0.10785(9) -0.0899(3)
C28 C -0.02409(14) 0.13939(8) -0.0592(3)
C29 C 0.04373(16) 0.08016(11) 0.0300(4)
H17 H 0.0345 0.0662 -0.0017
H18 H 0.0691 0.0765 0.0467
C30 C -0.04556(16) 0.09898(10) -0.0163(4)
H19 H -0.0703 0.1055 -0.0267
H20 H -0.0441 0.0831 -0.0436
C31 C -0.02734(17) 0.05177(10) 0.0835(5)
H21 H -0.0232 0.0503 0.0233
H22 H -0.0115 0.0399 0.1119
C32 C -0.06749(17) 0.04671(11) 0.1035(5)
H23 H -0.0832 0.0561 0.0654
H24 H -0.0726 0.0294 0.0944
C33 C -0.0768(2) 0.05310(13) 0.1900(5)
H25 H -0.0891 0.0391 0.2155
H26 H -0.0947 0.0664 0.1886
C34 C -0.04498(16) 0.06066(10) 0.2465(5)
H27 H -0.0283 0.0469 0.2547
H28 H -0.0546 0.0656 0.3010
C35 C -0.02602(17) 0.11450(14) 0.4595(4)
H29 H -0.0394 0.1002 0.4395
H30 H -0.0071 0.1089 0.4986
C36 C -0.0504(2) 0.12951(15) 0.5015(5)
H31 H -0.0627 0.1203 0.5459
H32 H -0.0693 0.1355 0.4629
C37 C -0.0289(2) 0.15168(15) 0.5403(5)
H33 H -0.0433 0.1666 0.5318
H34 H -0.0263 0.1492 0.6005
C38 C 0.0096(2) 0.15504(17) 0.5020(5)
H35 H 0.0186 0.1713 0.5161
H36 H 0.0264 0.1432 0.5272
C39 C 0.06552(18) 0.22377(11) 0.3981(4)
H37 H 0.0547 0.2155 0.4463
H38 H 0.0923 0.2241 0.4056
C40 C 0.0510(2) 0.24974(11) 0.3946(5)
H39 H 0.0631 0.2594 0.4380
H40 H 0.0245 0.2497 0.4061
C41 C 0.0581(2) 0.26194(12) 0.3073(6)
H41 H 0.0346 0.2637 0.2777
H42 H 0.0684 0.2782 0.3155
C42 C 0.08344(18) 0.24745(11) 0.2566(5)
H43 H 0.1068 0.2457 0.2868
H44 H 0.0886 0.2563 0.2049
C43 C 0.09387(17) 0.23713(12) -0.0277(5)
H45 H 0.1187 0.2342 -0.0498
H46 H 0.0959 0.2479 0.0208
C44 C 0.0693(2) 0.24917(13) -0.0954(5)
H47 H 0.0822 0.2633 -0.1186
H48 H 0.0463 0.2549 -0.0700
C45 C 0.0598(3) 0.22991(17) -0.1704(6)
H49 H 0.0331 0.2274 -0.1729
H50 H 0.0677 0.2369 -0.2238
C46 C 0.0769(2) 0.20780(14) -0.1594(5)
H51 H 0.1036 0.2102 -0.1642
H52 H 0.0693 0.1970 -0.2047
C47 C 0.0346(2) 0.13125(14) -0.2219(5)
H53 H 0.0460 0.1462 -0.2426
H54 H 0.0095 0.1304 -0.2441
C48 C 0.0567(3) 0.1093(2) -0.2529(7)
H55 H 0.0831 0.1127 -0.2461
H56 H 0.0520 0.1071 -0.3125
C49 C 0.0465(2) 0.08426(17) -0.2035(5)
H57 H 0.0424 0.0711 -0.2437
H58 H 0.0670 0.0796 -0.1673
C50 C 0.01245(17) 0.08784(11) -0.1522(4)
H59 H -0.0083 0.0916 -0.1892
H60 H 0.0067 0.0727 -0.1228
N1 N 0.02238(13) 0.08257(8) 0.1019(4)
N2 N 0.01423(13) 0.08591(8) 0.2380(3)
N3 N -0.04079(13) 0.09567(7) 0.0732(3)
N4 N -0.04618(12) 0.10496(8) 0.2057(3)
N5 N 0.02479(13) 0.11311(10) 0.3553(4)
N6 N 0.04793(13) 0.15016(8) 0.3755(3)
N7 N -0.03250(12) 0.13353(9) 0.3169(3)
N8 N -0.01260(13) 0.16936(10) 0.3618(3)
N9 N 0.07551(12) 0.18613(7) 0.3167(3)
N10 N 0.09572(12) 0.20527(8) 0.2039(3)
N11 N 0.01526(13) 0.20687(7) 0.3079(3)
N12 N 0.03492(12) 0.22297(8) 0.1873(4)
N13 N 0.10133(14) 0.19937(8) 0.0545(3)
N14 N 0.09125(13) 0.17450(11) -0.0537(3)
N15 N 0.04002(12) 0.21668(7) 0.0375(3)
N16 N 0.02951(13) 0.19005(10) -0.0663(3)
N17 N 0.06890(13) 0.13431(10) -0.0879(3)
N18 N 0.04431(12) 0.10140(9) -0.0250(3)
N19 N 0.00564(12) 0.15046(10) -0.0961(3)
N20 N -0.01840(12) 0.11514(8) -0.0539(3)
O4 O 0.07298(10) 0.08543(6) 0.1896(3)
O5 O 0.08650(9) 0.12014(6) 0.3239(2)
O6 O 0.12188(10) 0.16816(6) 0.2377(3)
O7 O 0.13410(11) 0.16422(7) 0.0495(3)
O8 O 0.10369(10) 0.11227(7) 0.0059(2)
O9 O -0.08073(10) 0.12722(6) 0.1128(2)
O10 O -0.05936(10) 0.16771(7) 0.2648(3)
O11 O -0.02775(10) 0.21645(6) 0.2107(3)
O12 O -0.02015(10) 0.20504(6) 0.0103(3)
O13 O -0.05137(11) 0.15111(6) -0.0376(3)
La1J La -0.115674(7) 0.158810(4) 0.022054(19)
O9B O 0.16927(10) 0.12278(6) 0.3628(2)
O13B O 0.19863(11) 0.09889(6) 0.2124(3)
loop_
_geom_bond_atom_site_label_1
_geom_bond_atom_site_label_2
_geom_bond_site_symmetry_1
_geom_bond_site_symmetry_2
La1 Cl1 1_555 1_555
Cl2 La1 1_555 1_555
O1 La1 1_555 1_555
O2 La1 1_555 1_555
O3 La1 1_555 1_555
C1 N1 1_555 1_555
C2 C3 1_555 1_555
C3 C34 1_555 1_555
C4 N3 1_555 1_555
C5 H1 1_555 1_555
H2 C5 1_555 1_555
C6 H3 1_555 1_555
H4 C6 1_555 1_555
C7 N5 1_555 1_555
C8 C9 1_555 1_555
C9 C38 1_555 1_555
C10 N7 1_555 1_555
C11 H5 1_555 1_555
H6 C11 1_555 1_555
C12 H7 1_555 1_555
H8 C12 1_555 1_555
C13 N9 1_555 1_555
C14 C15 1_555 1_555
C15 C42 1_555 1_555
C16 N11 1_555 1_555
C17 H9 1_555 1_555
H10 C17 1_555 1_555
C18 H11 1_555 1_555
H12 C18 1_555 1_555
C19 N13 1_555 1_555
C20 C21 1_555 1_555
C21 C46 1_555 1_555
C22 N15 1_555 1_555
C23 H13 1_555 1_555
H14 C23 1_555 1_555
C24 H15 1_555 1_555
H16 C24 1_555 1_555
C25 N17 1_555 1_555
C26 C27 1_555 1_555
C27 C50 1_555 1_555
C28 N19 1_555 1_555
C29 H17 1_555 1_555
H18 C29 1_555 1_555
C30 H19 1_555 1_555
H20 C30 1_555 1_555
C31 C2 1_555 1_555
H21 C31 1_555 1_555
H22 C31 1_555 1_555
C32 C31 1_555 1_555
H23 C32 1_555 1_555
H24 C32 1_555 1_555
C33 C32 1_555 1_555
H25 C33 1_555 1_555
H26 C33 1_555 1_555
C34 C33 1_555 1_555
H27 C34 1_555 1_555
H28 C34 1_555 1_555
C35 C8 1_555 1_555
H29 C35 1_555 1_555
H30 C35 1_555 1_555
C36 C35 1_555 1_555
H31 C36 1_555 1_555
H32 C36 1_555 1_555
C37 C36 1_555 1_555
H33 C37 1_555 1_555
H34 C37 1_555 1_555
C38 C37 1_555 1_555
H35 C38 1_555 1_555
H36 C38 1_555 1_555
C39 C14 1_555 1_555
H37 C39 1_555 1_555
H38 C39 1_555 1_555
C40 C39 1_555 1_555
H39 C40 1_555 1_555
H40 C40 1_555 1_555
C41 C40 1_555 1_555
H41 C41 1_555 1_555
H42 C41 1_555 1_555
C42 C41 1_555 1_555
H43 C42 1_555 1_555
H44 C42 1_555 1_555
C43 C20 1_555 1_555
H45 C43 1_555 1_555
H46 C43 1_555 1_555
C44 C43 1_555 1_555
H47 C44 1_555 1_555
H48 C44 1_555 1_555
C45 C44 1_555 1_555
H49 C45 1_555 1_555
H50 C45 1_555 1_555
C46 C45 1_555 1_555
H51 C46 1_555 1_555
H52 C46 1_555 1_555
C47 C26 1_555 1_555
H53 C47 1_555 1_555
H54 C47 1_555 1_555
C48 C47 1_555 1_555
H55 C48 1_555 1_555
H56 C48 1_555 1_555
C49 C48 1_555 1_555
H57 C49 1_555 1_555
H58 C49 1_555 1_555
C50 C49 1_555 1_555
H59 C50 1_555 1_555
H60 C50 1_555 1_555
N1 C2 1_555 1_555
N2 C1 1_555 1_555
N3 C2 1_555 1_555
N4 C3 1_555 1_555
N5 C5 1_555 1_555
N6 C7 1_555 1_555
N7 C6 1_555 1_555
N8 C9 1_555 1_555
N9 C11 1_555 1_555
N10 C13 1_555 1_555
N11 C12 1_555 1_555
N12 C15 1_555 1_555
N13 C17 1_555 1_555
N14 C19 1_555 1_555
N15 C18 1_555 1_555
N16 C21 1_555 1_555
N17 C23 1_555 1_555
N18 C25 1_555 1_555
N19 C24 1_555 1_555
N20 C27 1_555 1_555
O4 La1 1_555 1_555
O5 La1 1_555 1_555
O6 C13 1_555 1_555
O7 C19 1_555 1_555
O8 C25 1_555 1_555
O9 C4 1_555 1_555
O10 C10 1_555 1_555
O11 C16 1_555 1_555
O12 C22 1_555 1_555
O13 C28 1_555 1_555
La1J O9 1_555 1_555
O9B La1 1_555 1_555
O13B La1 1_555 1_555
C1 O4 1_555 1_555
C3 N2 1_555 1_555
C4 N4 1_555 1_555
C5 N2 1_555 1_555
C6 N4 1_555 1_555
C7 O5 1_555 1_555
C8 N5 1_555 1_555
C8 N7 1_555 1_555
C9 N6 1_555 1_555
C10 N8 1_555 1_555
C11 N6 1_555 1_555
C12 N8 1_555 1_555
C14 N9 1_555 1_555
C14 N11 1_555 1_555
C15 N10 1_555 1_555
C16 N12 1_555 1_555
C17 N10 1_555 1_555
C18 N12 1_555 1_555
C20 N13 1_555 1_555
C20 N15 1_555 1_555
C21 N14 1_555 1_555
C22 N16 1_555 1_555
C23 N14 1_555 1_555
C24 N16 1_555 1_555
C26 N17 1_555 1_555
C26 N19 1_555 1_555
C27 N18 1_555 1_555
C28 N20 1_555 1_555
C29 N1 1_555 1_555
C29 N18 1_555 1_555
C30 N3 1_555 1_555
C30 N20 1_555 1_555
O13 La1J 1_555 1_555

#END
