
#######################################################################
#
#                 Cambridge Crystallographic Data Centre
#                                CCDC 
#
#######################################################################
#
# If this CIF has been generated from an entry in the Cambridge 
# Structural Database, then it will include bibliographic, chemical, 
# crystal, experimental, refinement or atomic coordinate data resulting 
# from the CCDC's data processing and validation procedures.
#
#######################################################################

data_ZEFZUH
_symmetry_cell_setting           monoclinic
_symmetry_space_group_name_H-M   'C 2/c'
_symmetry_Int_Tables_number      15
_space_group_name_Hall           '-C 2yn'
loop_
_symmetry_equiv_pos_site_id
_symmetry_equiv_pos_as_xyz
1 x,y,z
2 -x,y,1/2-z
3 1/2+x,1/2+y,z
4 1/2-x,1/2+y,1/2-z
5 -x,-y,-z
6 x,-y,1/2+z
7 1/2-x,1/2-y,-z
8 1/2+x,1/2-y,1/2+z
_cell_length_a                   27.1046(13)
_cell_length_b                   18.3417(9)
_cell_length_c                   30.4416(15)
_cell_angle_alpha                90
_cell_angle_beta                 114.564(2)
_cell_angle_gamma                90
_cell_volume                     13764.2
loop_
_atom_site_label
_atom_site_type_symbol
_atom_site_fract_x
_atom_site_fract_y
_atom_site_fract_z
Sm1 Sm 0.309561(9) 0.390303(12) 0.245671(8)
Cl1 Cl 0.32881(13) 0.4180(2) 0.32815(11)
Cl2 Cl 0.24310(14) 0.3624(2) 0.16694(11)
O1 O 0.40800(13) 0.39832(18) 0.29339(13)
O2 O 0.35313(17) 0.38452(19) 0.18951(14)
O3 O 0.41844(14) 0.52590(17) 0.34222(11)
O4 O 0.37190(14) 0.48351(19) 0.41724(11)
O5 O 0.25112(12) 0.43616(17) 0.35819(11)
O6 O 0.32958(12) 0.51252(16) 0.23341(11)
O7 O 0.23267(12) 0.46385(16) 0.24305(10)
O8 O 0.19050(13) 0.75437(17) 0.35604(11)
O9 O 0.36102(13) 0.84278(17) 0.35408(11)
O10 O 0.31191(14) 0.79963(18) 0.42472(11)
O11 O 0.15780(12) 0.76976(16) 0.24295(11)
O12 O 0.25787(11) 0.81587(16) 0.24143(10)
N1 N 0.32802(13) 0.75252(18) 0.23534(11)
N2 N 0.30830(15) 0.6858(2) 0.45528(13)
N3 N 0.40794(15) 0.5950(2) 0.44798(13)
N4 N 0.38582(15) 0.7220(2) 0.45376(13)
N5 N 0.23954(14) 0.5259(2) 0.40615(12)
N6 N 0.33358(15) 0.5588(2) 0.45527(12)
N7 N 0.35767(14) 0.62883(19) 0.22989(12)
N8 N 0.44460(15) 0.6271(2) 0.39052(13)
N9 N 0.42566(14) 0.63964(19) 0.31269(12)
N10 N 0.24317(13) 0.72394(19) 0.18554(12)
N11 N 0.19056(13) 0.55691(18) 0.18979(11)
N12 N 0.39827(13) 0.76467(19) 0.31725(11)
N13 N 0.21481(15) 0.65373(19) 0.40503(12)
N14 N 0.15094(15) 0.64193(19) 0.33036(12)
N15 N 0.17863(14) 0.51575(19) 0.33022(12)
N16 N 0.12987(14) 0.65271(18) 0.24497(12)
N17 N 0.42346(15) 0.7545(2) 0.39639(12)
N18 N 0.16013(14) 0.52747(18) 0.24505(12)
N19 N 0.16121(14) 0.68163(18) 0.19040(12)
N20 N 0.27263(14) 0.59911(17) 0.18384(12)
C1 C 0.3983(2) 0.5721(3) 0.56255(19)
H1 H 0.3876 0.5218 0.5541
H2 H 0.4058 0.5785 0.5964
C2 C 0.1484(2) 0.4859(3) 0.43188(19)
H3 H 0.1307 0.4793 0.4535
H4 H 0.1761 0.4486 0.4394
C3 C 0.4509(2) 0.5869(3) 0.5559(2)
H5 H 0.4811 0.5909 0.5873
H6 H 0.4579 0.5461 0.5391
C4 C 0.51868(19) 0.7193(3) 0.41756(17)
H7 H 0.5407 0.6824 0.4115
H8 H 0.5259 0.7171 0.4515
C5 C 0.1754(2) 0.5606(3) 0.44087(16)
H9 H 0.1491 0.5975 0.4394
H10 H 0.2047 0.5618 0.4730
C6 C 0.4470(2) 0.6564(3) 0.52747(16)
H11 H 0.4805 0.6635 0.5236
H12 H 0.4421 0.6978 0.5451
C7 C 0.28833(18) 0.5099(3) 0.44877(15)
H13 H 0.2993 0.4601 0.4467
H14 H 0.2804 0.5132 0.4769
C8 C 0.5349(2) 0.7951(3) 0.40600(18)
H15 H 0.5193 0.8323 0.4190
H16 H 0.5740 0.8000 0.4217
C9 C 0.0569(2) 0.4991(3) 0.15780(17)
H17 H 0.0187 0.4870 0.1415
H18 H 0.0759 0.4560 0.1750
C10 C 0.42264(18) 0.7694(3) 0.44284(15)
H19 H 0.4119 0.8197 0.4434
H20 H 0.4590 0.7636 0.4679
C11 C 0.45309(18) 0.5898(3) 0.43498(15)
H21 H 0.4603 0.5387 0.4317
H22 H 0.4850 0.6100 0.4609
C12 C 0.45882(17) 0.7028(2) 0.38715(15)
C13 C 0.39962(18) 0.6519(2) 0.47800(15)
C14 C 0.11192(17) 0.6645(2) 0.28337(15)
H23 H 0.1043 0.7160 0.2846
H24 H 0.0784 0.6380 0.2757
C15 C 0.1067(2) 0.4757(3) 0.37982(18)
H25 H 0.0720 0.4631 0.3801
H26 H 0.1178 0.4352 0.3655
C16 C 0.3523(2) 0.6203(3) 0.53307(16)
H27 H 0.3581 0.6683 0.5477
H28 H 0.3191 0.6008 0.5332
C17 C 0.19770(18) 0.5777(2) 0.40377(14)
C18 C 0.34563(18) 0.6274(2) 0.48088(15)
C19 C 0.25195(19) 0.6915(3) 0.44777(15)
H29 H 0.2482 0.6717 0.4758
H30 H 0.2420 0.7426 0.4452
C20 C 0.36627(17) 0.7260(2) 0.17602(15)
H31 H 0.3733 0.6865 0.1582
H32 H 0.4009 0.7455 0.1984
C21 C 0.37072(17) 0.7969(2) 0.26992(14)
H33 H 0.3973 0.8071 0.2571
H34 H 0.3552 0.8431 0.2733
C22 C 0.06398(17) 0.5596(2) 0.19433(16)
H35 H 0.0406 0.6003 0.1783
H36 H 0.0535 0.5418 0.2192
C23 C 0.33421(19) 0.7855(3) 0.14100(16)
H37 H 0.3536 0.8003 0.1220
H38 H 0.3316 0.8276 0.1592
C24 C 0.18562(18) 0.6896(3) 0.36275(16)
C25 C 0.33321(19) 0.7416(3) 0.44261(15)
C26 C 0.0779(2) 0.5193(3) 0.11980(17)
H39 H 0.1053 0.4843 0.1211
H40 H 0.0483 0.5164 0.0879
C27 C 0.39089(17) 0.7923(2) 0.35558(15)
C28 C 0.12273(16) 0.5849(2) 0.21725(14)
C29 C 0.09928(17) 0.5434(3) 0.34831(16)
H41 H 0.0751 0.5321 0.3152
H42 H 0.0829 0.5821 0.3595
C30 C 0.49026(17) 0.7399(2) 0.32131(16)
H43 H 0.4775 0.7516 0.2873
H44 H 0.5174 0.7019 0.3288
C31 C 0.22620(17) 0.4875(2) 0.36411(14)
C32 C 0.15064(16) 0.7070(2) 0.22753(14)
C33 C 0.22436(17) 0.5542(2) 0.16351(14)
H45 H 0.2030 0.5696 0.1305
H46 H 0.2352 0.5040 0.1625
C34 C 0.37087(19) 0.5403(3) 0.43768(15)
C35 C 0.10201(18) 0.5952(2) 0.12730(15)
H47 H 0.0734 0.6309 0.1206
H48 H 0.1184 0.6034 0.1048
C36 C 0.26308(18) 0.6839(2) 0.11734(14)
H49 H 0.2249 0.6741 0.0982
H50 H 0.2840 0.6488 0.1083
C37 C 0.51581(19) 0.8078(3) 0.35156(16)
H51 H 0.4895 0.8471 0.3415
H52 H 0.5466 0.8229 0.3453
C38 C 0.41430(16) 0.6164(2) 0.26384(14)
H53 H 0.4224 0.5648 0.2642
H54 H 0.4380 0.6426 0.2526
C39 C 0.32042(16) 0.5744(2) 0.21735(14)
C40 C 0.27484(17) 0.7683(2) 0.22287(14)
C41 C 0.42864(17) 0.5906(3) 0.34781(15)
C42 C 0.19801(16) 0.5122(2) 0.22762(14)
C43 C 0.33544(16) 0.6969(2) 0.20401(14)
C44 C 0.15395(18) 0.4838(2) 0.28240(14)
H55 H 0.1156 0.4767 0.2738
H56 H 0.1700 0.4362 0.2833
C45 C 0.2766(2) 0.7609(3) 0.10674(16)
H57 H 0.2505 0.7947 0.1095
H58 H 0.2732 0.7629 0.0737
C46 C 0.44294(16) 0.7123(2) 0.33156(14)
C47 C 0.15384(17) 0.5691(2) 0.35038(14)
C48 C 0.18447(16) 0.7273(2) 0.16478(14)
H59 H 0.1704 0.7118 0.1313
H60 H 0.1733 0.7774 0.1654
C49 C 0.27567(16) 0.6751(2) 0.17048(14)
C50 C 0.14448(16) 0.6056(2) 0.17853(14)
Sm1C Sm 0.190439(9) 0.890303(12) 0.254329(8)
O11C O 0.34220(12) 0.26976(16) 0.25705(11)
O12C O 0.24213(11) 0.31587(16) 0.25857(10)
loop_
_geom_bond_atom_site_label_1
_geom_bond_atom_site_label_2
_geom_bond_site_symmetry_1
_geom_bond_site_symmetry_2
Sm1 Cl1 1_555 1_555
Cl2 Sm1 1_555 1_555
O1 Sm1 1_555 1_555
O2 Sm1 1_555 1_555
O3 C41 1_555 1_555
O4 C34 1_555 1_555
O5 C31 1_555 1_555
O6 Sm1 1_555 1_555
O7 Sm1 1_555 1_555
O8 C24 1_555 1_555
O9 C27 1_555 1_555
O10 C25 1_555 1_555
O11 C32 1_555 1_555
O12 C40 1_555 1_555
N1 C21 1_555 1_555
N2 C18 1_555 1_555
N3 C11 1_555 1_555
N4 C10 1_555 1_555
N5 C7 1_555 1_555
N6 C7 1_555 1_555
N7 C38 1_555 1_555
N8 C11 1_555 1_555
N9 C38 1_555 1_555
N10 C40 1_555 1_555
N11 C33 1_555 1_555
N12 C21 1_555 1_555
N13 C17 1_555 1_555
N14 C14 1_555 1_555
N15 C31 1_555 1_555
N16 C14 1_555 1_555
N17 C10 1_555 1_555
N18 C28 1_555 1_555
N19 C32 1_555 1_555
N20 C33 1_555 1_555
C1 H1 1_555 1_555
H2 C1 1_555 1_555
C2 H3 1_555 1_555
H4 C2 1_555 1_555
C3 C1 1_555 1_555
H5 C3 1_555 1_555
H6 C3 1_555 1_555
C4 H7 1_555 1_555
H8 C4 1_555 1_555
C5 C2 1_555 1_555
H9 C5 1_555 1_555
H10 C5 1_555 1_555
C6 C3 1_555 1_555
H11 C6 1_555 1_555
H12 C6 1_555 1_555
C7 H13 1_555 1_555
H14 C7 1_555 1_555
C8 C4 1_555 1_555
H15 C8 1_555 1_555
H16 C8 1_555 1_555
C9 H17 1_555 1_555
H18 C9 1_555 1_555
C10 H19 1_555 1_555
H20 C10 1_555 1_555
C11 H21 1_555 1_555
H22 C11 1_555 1_555
C12 N8 1_555 1_555
C13 N3 1_555 1_555
C14 H23 1_555 1_555
H24 C14 1_555 1_555
C15 C2 1_555 1_555
H25 C15 1_555 1_555
H26 C15 1_555 1_555
C16 C1 1_555 1_555
H27 C16 1_555 1_555
H28 C16 1_555 1_555
C17 N5 1_555 1_555
C18 N6 1_555 1_555
C19 N2 1_555 1_555
H29 C19 1_555 1_555
H30 C19 1_555 1_555
C20 H31 1_555 1_555
H32 C20 1_555 1_555
C21 H33 1_555 1_555
H34 C21 1_555 1_555
C22 C9 1_555 1_555
H35 C22 1_555 1_555
H36 C22 1_555 1_555
C23 C20 1_555 1_555
H37 C23 1_555 1_555
H38 C23 1_555 1_555
C24 N13 1_555 1_555
C25 N2 1_555 1_555
C26 C9 1_555 1_555
H39 C26 1_555 1_555
H40 C26 1_555 1_555
C27 N12 1_555 1_555
C28 N16 1_555 1_555
C29 C15 1_555 1_555
H41 C29 1_555 1_555
H42 C29 1_555 1_555
C30 H43 1_555 1_555
H44 C30 1_555 1_555
C31 N5 1_555 1_555
C32 N16 1_555 1_555
C33 H45 1_555 1_555
H46 C33 1_555 1_555
C34 N3 1_555 1_555
C35 C26 1_555 1_555
H47 C35 1_555 1_555
H48 C35 1_555 1_555
C36 H49 1_555 1_555
H50 C36 1_555 1_555
C37 C8 1_555 1_555
H51 C37 1_555 1_555
H52 C37 1_555 1_555
C38 H53 1_555 1_555
H54 C38 1_555 1_555
C39 O6 1_555 1_555
C40 N1 1_555 1_555
C41 N8 1_555 1_555
C42 O7 1_555 1_555
C43 N1 1_555 1_555
C44 N15 1_555 1_555
H55 C44 1_555 1_555
H56 C44 1_555 1_555
C45 C23 1_555 1_555
H57 C45 1_555 1_555
H58 C45 1_555 1_555
C46 N9 1_555 1_555
C47 N14 1_555 1_555
C48 N10 1_555 1_555
H59 C48 1_555 1_555
H60 C48 1_555 1_555
C49 N10 1_555 1_555
C50 N11 1_555 1_555
Sm1C O11 1_555 1_555
O11C Sm1 1_555 1_555
O12C Sm1 1_555 1_555
O12 Sm1C 1_555 1_555
N4 C13 1_555 1_555
N4 C25 1_555 1_555
N6 C34 1_555 1_555
N7 C39 1_555 1_555
N7 C43 1_555 1_555
N9 C41 1_555 1_555
N11 C42 1_555 1_555
N12 C46 1_555 1_555
N13 C19 1_555 1_555
N14 C24 1_555 1_555
N15 C47 1_555 1_555
N17 C12 1_555 1_555
N17 C27 1_555 1_555
N18 C42 1_555 1_555
N18 C44 1_555 1_555
N19 C48 1_555 1_555
N19 C50 1_555 1_555
N20 C39 1_555 1_555
N20 C49 1_555 1_555
C4 C12 1_555 1_555
C5 C17 1_555 1_555
C6 C13 1_555 1_555
C12 C46 1_555 1_555
C13 C18 1_555 1_555
C16 C18 1_555 1_555
C17 C47 1_555 1_555
C20 C43 1_555 1_555
C22 C28 1_555 1_555
C28 C50 1_555 1_555
C29 C47 1_555 1_555
C30 C37 1_555 1_555
C30 C46 1_555 1_555
C35 C50 1_555 1_555
C36 C45 1_555 1_555
C36 C49 1_555 1_555
C43 C49 1_555 1_555

#END
