
#######################################################################
#
#                 Cambridge Crystallographic Data Centre
#                                CCDC 
#
#######################################################################
#
# If this CIF has been generated from an entry in the Cambridge 
# Structural Database, then it will include bibliographic, chemical, 
# crystal, experimental, refinement or atomic coordinate data resulting 
# from the CCDC's data processing and validation procedures.
#
#######################################################################

data_ZEFZIV
_symmetry_cell_setting           monoclinic
_symmetry_space_group_name_H-M   'C 2/c'
_symmetry_Int_Tables_number      15
_space_group_name_Hall           '-C 2yn'
loop_
_symmetry_equiv_pos_site_id
_symmetry_equiv_pos_as_xyz
1 x,y,z
2 -x,y,1/2-z
3 1/2+x,1/2+y,z
4 1/2-x,1/2+y,1/2-z
5 -x,-y,-z
6 x,-y,1/2+z
7 1/2-x,1/2-y,-z
8 1/2+x,1/2-y,1/2+z
_cell_length_a                   26.971(4)
_cell_length_b                   18.358(3)
_cell_length_c                   30.331(7)
_cell_angle_alpha                90
_cell_angle_beta                 114.565(2)
_cell_angle_gamma                90
_cell_volume                     13658.6
loop_
_atom_site_label
_atom_site_type_symbol
_atom_site_fract_x
_atom_site_fract_y
_atom_site_fract_z
Nd1 Nd 0.688753(10) 0.609021(14) 0.753150(10)
Cl1 Cl 0.66917(11) 0.58488(17) 0.66940(10)
Cl2 Cl 0.75441(11) 0.63377(17) 0.83370(9)
O1 O 0.58788(13) 0.60020(18) 0.70365(12)
O2 O 0.64124(15) 0.61578(18) 0.80803(13)
O3 O 0.57932(13) 0.47256(16) 0.65593(11)
O4 O 0.62774(12) 0.51398(17) 0.58056(11)
O5 O 0.74807(11) 0.56153(15) 0.63941(10)
O6 O 0.66877(10) 0.48717(14) 0.76524(10)
O7 O 0.76603(10) 0.53564(14) 0.75434(9)
O8 O 0.68827(12) 0.19796(16) 0.57426(11)
O9 O 0.81108(12) 0.24435(16) 0.64339(11)
O10 O 0.64021(11) 0.15689(15) 0.64534(10)
O11 O 0.84469(10) 0.22952(15) 0.75745(10)
O12 O 0.74245(10) 0.18420(14) 0.75791(9)
N1 N 0.66659(13) 0.43860(19) 0.54302(12)
N2 N 0.69260(13) 0.3115(2) 0.54453(12)
N3 N 0.57349(12) 0.35826(18) 0.68577(11)
N4 N 0.64101(11) 0.37024(17) 0.76916(10)
N5 N 0.76116(13) 0.47127(18) 0.59214(12)
N6 N 0.55455(13) 0.37055(19) 0.60816(12)
N7 N 0.84978(13) 0.35751(18) 0.66871(11)
N8 N 0.57717(13) 0.24378(19) 0.60327(12)
N9 N 0.75643(12) 0.27666(17) 0.81335(10)
N10 N 0.78648(13) 0.34468(18) 0.59447(12)
N11 N 0.87099(12) 0.34779(16) 0.75482(11)
N12 N 0.80847(11) 0.44238(17) 0.80822(10)
N13 N 0.82068(12) 0.48248(18) 0.66802(11)
N14 N 0.83945(12) 0.31885(17) 0.80916(11)
N15 N 0.60159(12) 0.23413(17) 0.68184(11)
N16 N 0.83965(12) 0.47144(17) 0.75359(11)
N17 N 0.59215(14) 0.4009(2) 0.55101(12)
N18 N 0.67180(12) 0.24729(17) 0.76373(11)
N19 N 0.72641(12) 0.40042(16) 0.81475(11)
N20 N 0.61443(13) 0.2746(2) 0.54463(12)
C1 C 0.48093(17) 0.2772(3) 0.58138(15)
H1 H 0.4584 0.3135 0.5875
H2 H 0.4734 0.2793 0.5472
C2 C 0.94201(18) 0.5018(3) 0.84099(16)
H3 H 0.9803 0.5147 0.8576
H4 H 0.9226 0.5444 0.8232
C3 C 0.57821(16) 0.2273(2) 0.55633(13)
H5 H 0.5897 0.1772 0.5566
H6 H 0.5415 0.2318 0.5311
C4 C 0.66713(16) 0.2550(2) 0.55647(13)
C5 C 0.64829(18) 0.3764(3) 0.46565(15)
H7 H 0.6815 0.3963 0.4655
H8 H 0.6427 0.3285 0.4509
C6 C 0.93610(15) 0.4407(2) 0.80482(14)
H9 H 0.9468 0.4584 0.7799
H10 H 0.9599 0.4005 0.8214
C7 C 0.55297(19) 0.3417(3) 0.47118(15)
H11 H 0.5574 0.3000 0.4535
H12 H 0.5193 0.3355 0.4750
C8 C 0.81580(15) 0.3084(2) 0.63693(13)
C9 C 0.73627(16) 0.3164(2) 0.88173(13)
H13 H 0.7145 0.3508 0.8903
H14 H 0.7744 0.3272 0.9012
C10 C 0.62917(17) 0.4566(2) 0.56051(14)
C11 C 0.54615(17) 0.4080(2) 0.56357(14)
H15 H 0.5139 0.3884 0.5374
H16 H 0.5397 0.4592 0.5669
C12 C 0.67852(14) 0.4241(2) 0.78185(13)
C13 C 0.77366(14) 0.5103(2) 0.63432(13)
C14 C 0.87748(14) 0.4145(2) 0.78164(13)
C15 C 0.72495(14) 0.2315(2) 0.77632(12)
C16 C 0.92082(18) 0.4825(2) 0.87817(16)
H17 H 0.8926 0.5169 0.8760
H18 H 0.9502 0.4868 0.9103
C17 C 0.85064(14) 0.2931(2) 0.77231(13)
C18 C 0.60077(15) 0.3452(2) 0.52109(13)
C19 C 0.66640(16) 0.2146(2) 0.85917(14)
H19 H 0.6473 0.2000 0.8787
H20 H 0.6689 0.1724 0.8410
C20 C 0.71113(16) 0.4877(2) 0.54904(14)
H21 H 0.7000 0.5372 0.5514
H22 H 0.7188 0.4848 0.5205
C21 C 0.90086(15) 0.4559(2) 0.65064(14)
H23 H 0.9175 0.4172 0.6397
H24 H 0.9252 0.4677 0.6838
C22 C 0.88905(14) 0.3347(2) 0.71636(13)
H25 H 0.9230 0.3606 0.7241
H26 H 0.8963 0.2831 0.7154
C23 C 0.50906(14) 0.2582(2) 0.67733(13)
H27 H 0.4816 0.2961 0.6694
H28 H 0.5217 0.2471 0.7115
C24 C 0.66386(13) 0.30214(19) 0.79484(12)
C25 C 0.84576(14) 0.5161(2) 0.71643(12)
H29 H 0.8842 0.5239 0.7251
H30 H 0.8291 0.5633 0.7154
C26 C 0.80242(15) 0.4206(2) 0.59472(14)
C27 C 0.61008(14) 0.2071(2) 0.64344(13)
C28 C 0.89755(15) 0.4052(2) 0.87148(14)
H31 H 0.9268 0.3701 0.8785
H32 H 0.8810 0.3969 0.8940
C29 C 0.57034(16) 0.4064(2) 0.65064(14)
C30 C 0.63317(15) 0.2735(2) 0.82355(14)
H33 H 0.5984 0.2535 0.8014
H34 H 0.6261 0.3133 0.8412
C31 C 0.80108(14) 0.4869(2) 0.77055(12)
C32 C 0.65506(16) 0.3691(2) 0.51811(13)
C33 C 0.54107(14) 0.2949(2) 0.61164(14)
C34 C 0.58464(14) 0.3811(2) 0.73484(13)
H35 H 0.5610 0.3542 0.7460
H36 H 0.5757 0.4324 0.7344
C35 C 0.62853(15) 0.2019(2) 0.72937(13)
H37 H 0.6439 0.1554 0.7263
H38 H 0.6017 0.1926 0.7422
C36 C 0.72418(13) 0.3246(2) 0.82882(12)
C37 C 0.77424(14) 0.4467(2) 0.83491(13)
H39 H 0.7957 0.4327 0.8683
H40 H 0.7627 0.4968 0.8348
C38 C 0.72365(17) 0.2389(2) 0.89267(15)
H41 H 0.7498 0.2055 0.8894
H42 H 0.7277 0.2365 0.9260
C39 C 0.81528(14) 0.2739(2) 0.83410(13)
H43 H 0.8292 0.2894 0.8677
H44 H 0.8266 0.2239 0.8337
C40 C 0.84684(15) 0.4296(2) 0.64900(13)
C41 C 0.55660(14) 0.2858(2) 0.66733(13)
C42 C 0.85542(14) 0.39451(19) 0.82030(13)
C43 C 0.5496(2) 0.4096(3) 0.44280(18)
H45 H 0.5422 0.4506 0.4594
H46 H 0.5193 0.4053 0.4113
C44 C 0.8515(2) 0.5111(3) 0.56640(17)
H47 H 0.8229 0.5473 0.5584
H48 H 0.8691 0.5179 0.5446
C45 C 0.4661(2) 0.2021(3) 0.59325(17)
H49 H 0.4832 0.1655 0.5811
H50 H 0.4269 0.1957 0.5767
C46 C 0.6008(2) 0.4251(3) 0.43582(17)
H51 H 0.6112 0.4755 0.4444
H52 H 0.5930 0.4191 0.4018
C47 C 0.82598(18) 0.4359(3) 0.55832(15)
H53 H 0.7974 0.4328 0.5258
H54 H 0.8534 0.3996 0.5615
C48 C 0.89329(18) 0.5235(3) 0.61846(16)
H55 H 0.8816 0.5641 0.6323
H56 H 0.9280 0.5364 0.6182
C49 C 0.48377(17) 0.1902(2) 0.64758(15)
H57 H 0.4523 0.1758 0.6533
H58 H 0.5100 0.1508 0.6584
C50 C 0.74903(15) 0.3065(2) 0.55190(14)
H59 H 0.7525 0.3261 0.5236
H60 H 0.7594 0.2555 0.5546
Nd1C Nd 0.811247(10) 0.109021(14) 0.746850(10)
O11C O 0.65531(10) 0.72952(15) 0.74255(10)
O12C O 0.75755(10) 0.68420(14) 0.74209(9)
loop_
_geom_bond_atom_site_label_1
_geom_bond_atom_site_label_2
_geom_bond_site_symmetry_1
_geom_bond_site_symmetry_2
Nd1 Cl1 1_555 1_555
Cl2 Nd1 1_555 1_555
O1 Nd1 1_555 1_555
O2 Nd1 1_555 1_555
O3 C29 1_555 1_555
O4 C10 1_555 1_555
O5 C13 1_555 1_555
O6 Nd1 1_555 1_555
O7 Nd1 1_555 1_555
O8 C4 1_555 1_555
O9 C8 1_555 1_555
O10 C27 1_555 1_555
O11 C17 1_555 1_555
O12 C15 1_555 1_555
N1 C10 1_555 1_555
N2 C4 1_555 1_555
N3 C29 1_555 1_555
N4 C12 1_555 1_555
N5 C13 1_555 1_555
N6 C11 1_555 1_555
N7 C8 1_555 1_555
N8 C3 1_555 1_555
N9 C15 1_555 1_555
N10 C8 1_555 1_555
N11 C14 1_555 1_555
N12 C31 1_555 1_555
N13 C13 1_555 1_555
N14 C17 1_555 1_555
N15 C27 1_555 1_555
N16 C14 1_555 1_555
N17 C10 1_555 1_555
N18 C15 1_555 1_555
N19 C12 1_555 1_555
N20 C3 1_555 1_555
C1 H1 1_555 1_555
H2 C1 1_555 1_555
C2 H3 1_555 1_555
H4 C2 1_555 1_555
C3 H5 1_555 1_555
H6 C3 1_555 1_555
C4 N20 1_555 1_555
C5 H7 1_555 1_555
H8 C5 1_555 1_555
C6 C2 1_555 1_555
H9 C6 1_555 1_555
H10 C6 1_555 1_555
C7 H11 1_555 1_555
H12 C7 1_555 1_555
C9 H13 1_555 1_555
H14 C9 1_555 1_555
C11 N17 1_555 1_555
H15 C11 1_555 1_555
H16 C11 1_555 1_555
C12 O6 1_555 1_555
C14 C6 1_555 1_555
C16 C2 1_555 1_555
H17 C16 1_555 1_555
H18 C16 1_555 1_555
C17 N11 1_555 1_555
C18 N17 1_555 1_555
C19 H19 1_555 1_555
H20 C19 1_555 1_555
C20 N1 1_555 1_555
H21 C20 1_555 1_555
H22 C20 1_555 1_555
C21 H23 1_555 1_555
H24 C21 1_555 1_555
C22 N7 1_555 1_555
H25 C22 1_555 1_555
H26 C22 1_555 1_555
C23 H27 1_555 1_555
H28 C23 1_555 1_555
C24 N4 1_555 1_555
C25 N13 1_555 1_555
H29 C25 1_555 1_555
H30 C25 1_555 1_555
C26 N5 1_555 1_555
C27 N8 1_555 1_555
C28 C16 1_555 1_555
H31 C28 1_555 1_555
H32 C28 1_555 1_555
C29 N6 1_555 1_555
C30 C19 1_555 1_555
H33 C30 1_555 1_555
H34 C30 1_555 1_555
C31 O7 1_555 1_555
C32 N1 1_555 1_555
C33 N6 1_555 1_555
C34 N3 1_555 1_555
H35 C34 1_555 1_555
H36 C34 1_555 1_555
C35 N15 1_555 1_555
H37 C35 1_555 1_555
H38 C35 1_555 1_555
C36 N9 1_555 1_555
C37 N12 1_555 1_555
H39 C37 1_555 1_555
H40 C37 1_555 1_555
C38 C9 1_555 1_555
H41 C38 1_555 1_555
H42 C38 1_555 1_555
C39 N9 1_555 1_555
H43 C39 1_555 1_555
H44 C39 1_555 1_555
C40 N7 1_555 1_555
C41 N3 1_555 1_555
C42 N12 1_555 1_555
C43 C7 1_555 1_555
H45 C43 1_555 1_555
H46 C43 1_555 1_555
C44 H47 1_555 1_555
H48 C44 1_555 1_555
C45 C1 1_555 1_555
H49 C45 1_555 1_555
H50 C45 1_555 1_555
C46 C5 1_555 1_555
H51 C46 1_555 1_555
H52 C46 1_555 1_555
C47 C26 1_555 1_555
H53 C47 1_555 1_555
H54 C47 1_555 1_555
C48 C21 1_555 1_555
H55 C48 1_555 1_555
H56 C48 1_555 1_555
C49 C23 1_555 1_555
H57 C49 1_555 1_555
H58 C49 1_555 1_555
C50 N2 1_555 1_555
H59 C50 1_555 1_555
H60 C50 1_555 1_555
Nd1C O11 1_555 1_555
O11C Nd1 1_555 1_555
O12C Nd1 1_555 1_555
O12 Nd1C 1_555 1_555
N2 C32 1_555 1_555
N4 C34 1_555 1_555
N5 C20 1_555 1_555
N8 C33 1_555 1_555
N10 C26 1_555 1_555
N10 C50 1_555 1_555
N11 C22 1_555 1_555
N13 C40 1_555 1_555
N14 C39 1_555 1_555
N14 C42 1_555 1_555
N15 C41 1_555 1_555
N16 C25 1_555 1_555
N16 C31 1_555 1_555
N18 C24 1_555 1_555
N18 C35 1_555 1_555
N19 C36 1_555 1_555
N19 C37 1_555 1_555
N20 C18 1_555 1_555
C1 C33 1_555 1_555
C5 C32 1_555 1_555
C7 C18 1_555 1_555
C9 C36 1_555 1_555
C14 C42 1_555 1_555
C18 C32 1_555 1_555
C19 C38 1_555 1_555
C21 C40 1_555 1_555
C23 C41 1_555 1_555
C24 C30 1_555 1_555
C24 C36 1_555 1_555
C26 C40 1_555 1_555
C28 C42 1_555 1_555
C33 C41 1_555 1_555
C43 C46 1_555 1_555
C44 C47 1_555 1_555
C44 C48 1_555 1_555
C45 C49 1_555 1_555

#END
