
#######################################################################
#
#                 Cambridge Crystallographic Data Centre
#                                CCDC 
#
#######################################################################
#
# If this CIF has been generated from an entry in the Cambridge 
# Structural Database, then it will include bibliographic, chemical, 
# crystal, experimental, refinement or atomic coordinate data resulting 
# from the CCDC's data processing and validation procedures.
#
#######################################################################

data_ZEGLII
_symmetry_cell_setting           monoclinic
_symmetry_space_group_name_H-M   'P 21/m'
_symmetry_Int_Tables_number      11
_space_group_name_Hall           '-P 2yb'
loop_
_symmetry_equiv_pos_site_id
_symmetry_equiv_pos_as_xyz
1 x,y,z
2 -x,1/2+y,-z
3 -x,-y,-z
4 x,1/2-y,z
_cell_length_a                   8.010(2)
_cell_length_b                   6.8872(18)
_cell_length_c                   8.569(2)
_cell_angle_alpha                90
_cell_angle_beta                 108.232(5)
_cell_angle_gamma                90
_cell_volume                     448.99
loop_
_atom_site_label
_atom_site_type_symbol
_atom_site_fract_x
_atom_site_fract_y
_atom_site_fract_z
Fe1 Fe 0.5000 0.5000 0.5000
O1 O 0.6174(4) 0.7500 0.5634(4)
H1 H 0.666(8) 0.7500 0.640(7)
O2 O 0.7092(3) 0.4113(3) 0.4358(3)
O3 O 0.6171(3) 0.4115(3) -0.2671(2)
C1 C 0.7652(5) 0.2500 0.4066(4)
C2 C 0.9188(5) 0.2500 0.3373(5)
H2 H 1.0277 0.2500 0.4323
C3 C 0.9236(4) 0.4335(4) 0.2371(3)
H3 H 0.9101 0.5481 0.2999
H4 H 1.0381 0.4424 0.2187
C4 C 0.7783(4) 0.4327(5) 0.0715(3)
H5 H 0.6635 0.4390 0.0895
H6 H 0.7902 0.5474 0.0082
C5 C 0.7881(6) 0.2500 -0.0253(5)
H7 H 0.9071 0.2500 -0.0373
C6 C 0.6603(5) 0.2500 -0.1995(5)
Fe1A Fe 0.5000 1.0000 0.5000
Fe1_2 Fe 0.5000 0.5000 -0.5000
Fe1A_2 Fe 0.5000 0.0000 0.5000
Fe1A_3 Fe 0.5000 0.0000 -0.5000
O1A O 0.3826(4) 0.2500 0.4366(4)
H1A H 0.334(8) 0.2500 0.360(7)
O2C O 0.7092(3) 0.0887(3) 0.4358(3)
O2B O 0.2908(3) 0.5887(3) 0.5642(3)
O3C O 0.6171(3) 0.0885(3) -0.2671(2)
O3_2 O 0.6171(3) 0.4115(3) 0.7329(2)
O3B O 0.3829(3) 0.5885(3) 0.2671(2)
C3C C 0.9236(4) 0.0665(4) 0.2371(3)
H3C H 0.9101 -0.0481 0.2999
H4C H 1.0381 0.0576 0.2187
C4C C 0.7783(4) 0.0673(5) 0.0715(3)
H5C H 0.6635 0.0610 0.0895
H6C H 0.7902 -0.0474 0.0082
loop_
_geom_bond_atom_site_label_1
_geom_bond_atom_site_label_2
_geom_bond_site_symmetry_1
_geom_bond_site_symmetry_2
Fe1 O1 1_555 1_555
O1 H1 1_555 1_555
O2 Fe1 1_555 1_555
O3 C6 1_555 1_555
C1 O2 1_555 1_555
C2 C1 1_555 1_555
H2 C2 1_555 1_555
C3 C2 1_555 1_555
H3 C3 1_555 1_555
H4 C3 1_555 1_555
C4 C3 1_555 1_555
H5 C4 1_555 1_555
H6 C4 1_555 1_555
C5 C4 1_555 1_555
H7 C5 1_555 1_555
C6 C5 1_555 1_555
Fe1A O1 1_555 1_555
Fe1_2 O3 1_555 1_555
Fe1A_2 O1A 1_555 1_555
Fe1A_3 O3C 1_555 1_555
O1A Fe1 1_555 1_555
H1A O1A 1_555 1_555
O2C C1 1_555 1_555
O2B Fe1 1_555 1_555
O3C C6 1_555 1_555
O3_2 Fe1 1_555 1_555
O3B Fe1 1_555 1_555
C3C C2 1_555 1_555
H3C C3C 1_555 1_555
H4C C3C 1_555 1_555
C4C C5 1_555 1_555
H5C C4C 1_555 1_555
H6C C4C 1_555 1_555
Fe1A_2 O2C 1_555 1_555
C3C C4C 1_555 1_555

#END
