
#######################################################################
#
#                 Cambridge Crystallographic Data Centre
#                                CCDC 
#
#######################################################################
#
# If this CIF has been generated from an entry in the Cambridge 
# Structural Database, then it will include bibliographic, chemical, 
# crystal, experimental, refinement or atomic coordinate data resulting 
# from the CCDC's data processing and validation procedures.
#
#######################################################################

data_ZEGPEG
_symmetry_cell_setting           orthorhombic
_symmetry_space_group_name_H-M   'P b c a'
_symmetry_Int_Tables_number      61
_space_group_name_Hall           '-P 2ac 2ab'
loop_
_symmetry_equiv_pos_site_id
_symmetry_equiv_pos_as_xyz
1 x,y,z
2 1/2-x,-y,1/2+z
3 1/2+x,1/2-y,-z
4 -x,1/2+y,1/2-z
5 -x,-y,-z
6 1/2+x,y,1/2-z
7 1/2-x,1/2+y,z
8 x,1/2-y,1/2+z
_cell_length_a                   10.356(2)
_cell_length_b                   9.086(2)
_cell_length_c                   25.673(8)
_cell_angle_alpha                90
_cell_angle_beta                 90
_cell_angle_gamma                90
_cell_volume                     2415.69
loop_
_atom_site_label
_atom_site_type_symbol
_atom_site_fract_x
_atom_site_fract_y
_atom_site_fract_z
Mn1 Mn 0.54270 0.10170 0.31528
O1 O 0.59550 0.18320 0.23830
O2 O 0.63920 -0.10590 0.28330
O3 O 0.44780 0.30770 0.33340
O4 O 0.35500 0.04870 0.27760
C1 C 0.89340 -0.12500 0.47560
C2 C 0.97790 -0.24480 0.48080
C3 C 0.97870 -0.32020 0.52750
C4 C 0.89560 -0.28440 0.56730
C5 C 0.81340 -0.16400 0.56160
C6 C 0.80970 -0.08410 0.51540
O5 O 0.89740 -0.05560 0.42750
C7 C 0.79800 0.04640 0.41530
C8 C 0.81660 0.09670 0.36000
O6 O 0.91190 0.06040 0.33430
O7 O 0.72660 0.17920 0.34240
C9 C 0.89610 -0.37520 0.61590
O8 O 0.80800 -0.35450 0.64960
O9 O 0.48220 -0.02670 0.37930
H1 H 0.54100 0.17600 0.21500
H2 H 0.66100 0.17500 0.21700
H3 H 0.61200 -0.14600 0.24900
H4 H 0.65800 -0.18000 0.30700
H5 H 0.38600 0.30300 0.34700
H6 H 0.48200 0.39500 0.35000
H7 H 0.35600 0.03500 0.23900
H8 H 0.32500 0.13000 0.26900
H9 H 1.05800 -0.23300 0.45300
H10 H 1.05400 -0.40700 0.53100
H11 H 0.77400 -0.11400 0.59700
H12 H 0.72700 0.00900 0.51500
H13 H 0.79900 0.12900 0.43100
H14 H 0.70300 0.01900 0.41900
O9B O 0.98220 -0.47330 0.62070
C9B C 0.39610 -0.12480 0.38410
Mn1B Mn 1.04270 -0.60170 0.68472
C4B C 0.39560 -0.21560 0.43270
O8B O 0.30800 -0.14550 0.35040
O1B O 1.09550 -0.68320 0.76170
O2B O 1.13920 -0.39410 0.71670
O3B O 0.94780 -0.80770 0.66660
O4B O 0.85500 -0.54870 0.72240
O7B O 1.22660 -0.67920 0.65760
C3B C 0.47870 -0.17980 0.47250
C5B C 0.31340 -0.33600 0.43840
H1B H 1.04100 -0.67600 0.78500
H2B H 1.16100 -0.67500 0.78300
H3B H 1.11200 -0.35400 0.75100
H4B H 1.15800 -0.32000 0.69300
H5B H 0.88600 -0.80300 0.65300
H6B H 0.98200 -0.89500 0.65000
H7B H 0.85600 -0.53500 0.76100
H8B H 0.82500 -0.63000 0.73100
C2B C 0.47790 -0.25520 0.51920
H10B H 0.55400 -0.09300 0.46900
C6B C 0.30970 -0.41590 0.48460
H11B H 0.27400 -0.38600 0.40300
C1B C 0.39340 -0.37500 0.52440
H9B H 0.55800 -0.26700 0.54700
H12B H 0.22700 -0.50900 0.48500
O5B O 0.39740 -0.44440 0.57250
C7B C 0.29800 -0.54640 0.58470
C8B C 0.31660 -0.59670 0.64000
H13B H 0.29900 -0.62900 0.56900
H14B H 0.20300 -0.51900 0.58100
O6B O 0.41190 -0.56040 0.66570
O7B_2 O 0.22660 -0.67920 0.65760
Mn1B_2 Mn 0.04270 -0.60170 0.68472
loop_
_geom_bond_atom_site_label_1
_geom_bond_atom_site_label_2
_geom_bond_site_symmetry_1
_geom_bond_site_symmetry_2
Mn1 O1 1_555 1_555
O1 H1 1_555 1_555
O2 Mn1 1_555 1_555
O3 Mn1 1_555 1_555
O4 Mn1 1_555 1_555
C1 C2 1_555 1_555
C2 C3 1_555 1_555
C3 C4 1_555 1_555
C4 C5 1_555 1_555
C5 C6 1_555 1_555
C6 C1 1_555 1_555
O5 C1 1_555 1_555
C7 O5 1_555 1_555
C8 C7 1_555 1_555
O6 C8 1_555 1_555
O7 Mn1 1_555 1_555
C9 C4 1_555 1_555
O8 C9 1_555 1_555
O9 Mn1 1_555 1_555
H2 O1 1_555 1_555
H3 O2 1_555 1_555
H4 O2 1_555 1_555
H5 O3 1_555 1_555
H6 O3 1_555 1_555
H7 O4 1_555 1_555
H8 O4 1_555 1_555
H9 C2 1_555 1_555
H10 C3 1_555 1_555
H11 C5 1_555 1_555
H12 C6 1_555 1_555
H13 C7 1_555 1_555
H14 C7 1_555 1_555
O9B C9 1_555 1_555
C9B O9 1_555 1_555
Mn1B O9B 1_555 1_555
C4B C9B 1_555 1_555
O8B C9B 1_555 1_555
O1B Mn1B 1_555 1_555
O2B Mn1B 1_555 1_555
O3B Mn1B 1_555 1_555
O4B Mn1B 1_555 1_555
O7B Mn1B 1_555 1_555
C3B C4B 1_555 1_555
C5B C4B 1_555 1_555
H1B O1B 1_555 1_555
H2B O1B 1_555 1_555
H3B O2B 1_555 1_555
H4B O2B 1_555 1_555
H5B O3B 1_555 1_555
H6B O3B 1_555 1_555
H7B O4B 1_555 1_555
H8B O4B 1_555 1_555
C2B C3B 1_555 1_555
H10B C3B 1_555 1_555
C6B C5B 1_555 1_555
H11B C5B 1_555 1_555
C1B C2B 1_555 1_555
H9B C2B 1_555 1_555
H12B C6B 1_555 1_555
O5B C1B 1_555 1_555
C7B O5B 1_555 1_555
C8B C7B 1_555 1_555
H13B C7B 1_555 1_555
H14B C7B 1_555 1_555
O6B C8B 1_555 1_555
O7B_2 C8B 1_555 1_555
Mn1B_2 O7B_2 1_555 1_555
C8 O7 1_555 1_555
C6B C1B 1_555 1_555

#END
