
#######################################################################
#
#                 Cambridge Crystallographic Data Centre
#                                CCDC 
#
#######################################################################
#
# If this CIF has been generated from an entry in the Cambridge 
# Structural Database, then it will include bibliographic, chemical, 
# crystal, experimental, refinement or atomic coordinate data resulting 
# from the CCDC's data processing and validation procedures.
#
#######################################################################

data_ZEGYOB
_symmetry_cell_setting           monoclinic
_symmetry_space_group_name_H-M   'P 21/n'
_symmetry_Int_Tables_number      14
_space_group_name_Hall           '-P 2yn'
loop_
_symmetry_equiv_pos_site_id
_symmetry_equiv_pos_as_xyz
1 x,y,z
2 1/2-x,1/2+y,1/2-z
3 -x,-y,-z
4 1/2+x,1/2-y,1/2+z
_cell_length_a                   13.702(8)
_cell_length_b                   11.056(6)
_cell_length_c                   27.727(16)
_cell_angle_alpha                90
_cell_angle_beta                 95.026(8)
_cell_angle_gamma                90
_cell_volume                     4184.19
loop_
_atom_site_label
_atom_site_type_symbol
_atom_site_fract_x
_atom_site_fract_y
_atom_site_fract_z
Cu1 Cu 0.29212(3) 0.51990(4) 0.026791(17)
Cu2 Cu 0.07396(3) 0.66356(4) 0.020172(16)
Cu3 Cu 0.50933(3) 0.38132(4) 0.029111(16)
C1 C 0.2357(3) 0.7132(3) 0.09407(14)
C2 C 0.2681(3) 0.7697(3) 0.14134(13)
C3 C 0.2047(3) 0.8370(3) 0.16681(14)
H1 H 0.1414 0.8524 0.1533
C4 C 0.2351(3) 0.8811(3) 0.21206(14)
C5 C 0.3300(3) 0.8621(4) 0.23321(14)
C6 C 0.3927(3) 0.7983(4) 0.20657(16)
H2 H 0.4570 0.7864 0.2193
C7 C 0.3633(3) 0.7515(4) 0.16153(16)
H3 H 0.4072 0.7076 0.1447
C8 C 0.3685(3) 0.8955(4) 0.28376(14)
C9 C 0.4044(3) 1.0074(3) 0.29912(14)
C10 C 0.4504(3) 1.0255(4) 0.34492(14)
H4 H 0.4725 1.1022 0.3544
C11 C 0.4634(3) 0.9290(3) 0.37678(13)
C12 C 0.4290(3) 0.8160(4) 0.36181(15)
H5 H 0.4375 0.7502 0.3827
C13 C 0.3824(3) 0.8006(4) 0.31623(16)
H6 H 0.3594 0.7241 0.3069
C14 C 0.5149(2) 0.9468(4) 0.42653(13)
C15 C 0.3346(2) 0.3300(3) -0.04318(14)
C16 C 0.2961(3) 0.2680(3) -0.08962(13)
C17 C 0.3472(3) 0.1764(3) -0.10954(14)
H7 H 0.4058 0.1491 -0.0938
C18 C 0.3117(3) 0.1247(3) -0.15289(14)
C19 C 0.2228(3) 0.1583(3) -0.17740(14)
C20 C 0.1723(3) 0.2478(4) -0.15576(16)
H8 H 0.1123 0.2729 -0.1707
C21 C 0.2071(3) 0.3018(4) -0.11282(15)
H9 H 0.1702 0.3617 -0.0994
C22 C 0.1795(3) 0.1161(4) -0.22633(14)
C23 C 0.1378(3) 0.0042(4) -0.23876(14)
C24 C 0.0962(3) -0.0216(4) -0.28501(14)
H10 H 0.0699 -0.0978 -0.2918
C25 C 0.0936(3) 0.0643(4) -0.32079(14)
C26 C 0.1314(3) 0.1774(4) -0.30936(15)
H11 H 0.1277 0.2380 -0.3327
C27 C 0.1751(3) 0.2013(4) -0.26307(15)
H12 H 0.2023 0.2773 -0.2566
C28 C 0.0475(3) 0.0360(4) -0.37121(13)
C29 C -0.3067(3) 1.2590(4) 0.05154(16)
H13 H -0.2945 1.3290 0.0696
C30 C -0.2340(3) 1.1741(3) 0.05163(16)
H14 H -0.1744 1.1874 0.0696
C31 C -0.2484(3) 1.0696(3) 0.02535(15)
C32 C -0.3400(3) 1.0562(4) -0.0002(2)
H15 H -0.3549 0.9863 -0.0180
C33 C -0.4085(3) 1.1471(4) 0.0011(2)
H16 H -0.4683 1.1379 -0.0172
C34 C -0.1712(3) 0.9759(3) 0.02395(14)
C35 C -0.0829(3) 0.9850(4) 0.05287(16)
H17 H -0.0709 1.0511 0.0733
C36 C -0.0137(3) 0.8952(3) 0.05094(15)
H18 H 0.0441 0.9023 0.0709
C37 C -0.1109(3) 0.7894(3) -0.00497(15)
H19 H -0.1219 0.7212 -0.0243
C38 C -0.1828(3) 0.8744(4) -0.00551(16)
H20 H -0.2401 0.8644 -0.0257
N1 N -0.3937(2) 1.2467(3) 0.02700(12)
N2 N -0.0247(2) 0.7988(3) 0.02212(11)
N3 N 0.1636(3) 0.9480(3) 0.23828(14)
N4 N 0.3967(3) 1.1128(3) 0.26640(13)
N5 N 0.1326(3) -0.0925(4) -0.20228(13)
N6 N 0.3720(3) 0.0309(4) -0.17239(17)
O1 O 0.14906(17) 0.7333(2) 0.07720(9)
O2 O 0.29712(18) 0.6498(3) 0.07491(11)
O3 O 0.53776(16) 1.0514(2) 0.43980(9)
O4 O 0.53072(18) 0.8507(2) 0.45080(9)
O5 O 0.28841(18) 0.4245(3) -0.03298(10)
O6 O 0.40681(17) 0.2861(2) -0.01904(9)
O7 O 0.0381(2) 0.1256(3) -0.39994(10)
O8 O 0.02315(19) -0.0692(2) -0.38057(10)
O9 O 0.15508(17) 0.5248(2) 0.01996(10)
H21 H 0.141(3) 0.487(3) -0.0050(10)
O10 O 0.43274(17) 0.5279(2) 0.03039(9)
H22 H 0.443(4) 0.569(5) 0.0550(14)
O11 O 0.0952(2) 0.9958(3) 0.21378(12)
O12 O 0.1741(2) 0.9520(4) 0.28213(13)
O13 O 0.3332(3) 1.1117(3) 0.23268(13)
O14 O 0.4514(2) 1.1972(3) 0.27506(12)
O15 O 0.3652(6) 0.0131(11) -0.2157(3)
O16 O 0.4248(11) -0.0299(11) -0.1426(4)
O17 O 0.1009(3) -0.1884(3) -0.21436(13)
O18 O 0.1601(4) -0.0701(4) -0.16134(14)
O19 O 0.2908(4) 0.3674(5) 0.08946(18)
H23 H 0.316(5) 0.300(3) 0.101(3)
H24 H 0.308(6) 0.421(5) 0.112(2)
Cu2A Cu 0.42604(3) 1.16356(4) 0.479828(16)
Cu2C Cu 0.57396(3) 0.83644(4) 0.520172(16)
Cu3_2 Cu -0.49067(3) 1.38132(4) 0.029111(16)
Cu3C Cu 0.00933(3) 0.11868(4) -0.470889(16)
Cu3B Cu 0.49067(3) 0.61868(4) -0.029111(16)
N1_2 N 0.6063(2) 0.2467(3) 0.02700(12)
O3A O -0.03776(16) 0.5514(2) 0.06020(9)
O4C O 0.03072(18) 0.6493(2) -0.04920(9)
O7C O 0.5381(2) 0.3744(3) 0.10006(10)
O10B O 0.56726(17) 0.4721(2) -0.03039(9)
H22B H 0.557(4) 0.431(5) -0.0550(14)
O20 O 0.3950(6) 0.1646(7) 0.1124(3)
O21? O 0.344(3) -0.017(3) -0.2104(10)
O22? O 0.4548(12) 0.026(3) -0.1566(9)
loop_
_geom_bond_atom_site_label_1
_geom_bond_atom_site_label_2
_geom_bond_site_symmetry_1
_geom_bond_site_symmetry_2
Cu1 O2 1_555 1_555
Cu2 N2 1_555 1_555
Cu3 O6 1_555 1_555
C1 C2 1_555 1_555
C2 C3 1_555 1_555
C3 H1 1_555 1_555
C4 C3 1_555 1_555
C5 C4 1_555 1_555
C6 C5 1_555 1_555
H2 C6 1_555 1_555
C7 C2 1_555 1_555
H3 C7 1_555 1_555
C8 C5 1_555 1_555
C9 C8 1_555 1_555
C10 C9 1_555 1_555
H4 C10 1_555 1_555
C11 C10 1_555 1_555
C12 C11 1_555 1_555
H5 C12 1_555 1_555
C13 C8 1_555 1_555
H6 C13 1_555 1_555
C14 C11 1_555 1_555
C15 C16 1_555 1_555
C16 C17 1_555 1_555
C17 H7 1_555 1_555
C18 C17 1_555 1_555
C19 C18 1_555 1_555
C20 C19 1_555 1_555
H8 C20 1_555 1_555
C21 C16 1_555 1_555
H9 C21 1_555 1_555
C22 C19 1_555 1_555
C23 C22 1_555 1_555
C24 C23 1_555 1_555
H10 C24 1_555 1_555
C25 C24 1_555 1_555
C26 C25 1_555 1_555
H11 C26 1_555 1_555
C27 C22 1_555 1_555
H12 C27 1_555 1_555
C28 C25 1_555 1_555
C29 H13 1_555 1_555
C30 C29 1_555 1_555
H14 C30 1_555 1_555
C31 C30 1_555 1_555
C32 C31 1_555 1_555
H15 C32 1_555 1_555
C33 C32 1_555 1_555
H16 C33 1_555 1_555
C34 C31 1_555 1_555
C35 C34 1_555 1_555
H17 C35 1_555 1_555
C36 C35 1_555 1_555
H18 C36 1_555 1_555
C37 H19 1_555 1_555
C38 C34 1_555 1_555
H20 C38 1_555 1_555
N1 C29 1_555 1_555
N2 C36 1_555 1_555
N3 C4 1_555 1_555
N4 C9 1_555 1_555
N5 C23 1_555 1_555
N6 C18 1_555 1_555
O1 Cu2 1_555 1_555
O2 C1 1_555 1_555
O3 C14 1_555 1_555
O4 C14 1_555 1_555
O5 Cu1 1_555 1_555
O6 C15 1_555 1_555
O7 C28 1_555 1_555
O8 C28 1_555 1_555
O9 Cu1 1_555 1_555
H21 O9 1_555 1_555
O10 Cu1 1_555 1_555
H22 O10 1_555 1_555
O11 N3 1_555 1_555
O12 N3 1_555 1_555
O13 N4 1_555 1_555
O14 N4 1_555 1_555
O15 N6 1_555 1_555
O16 N6 1_555 1_555
O17 N5 1_555 1_555
O18 N5 1_555 1_555
O19 Cu1 1_555 1_555
H23 O19 1_555 1_555
H24 O19 1_555 1_555
Cu2A O3 1_555 1_555
Cu2C O4 1_555 1_555
Cu3_2 N1 1_555 1_555
Cu3C O7 1_555 1_555
Cu3B O10 1_555 1_555
N1_2 Cu3 1_555 1_555
O3A Cu2 1_555 1_555
O4C Cu2 1_555 1_555
O7C Cu3 1_555 1_555
O10B Cu3 1_555 1_555
H22B O10B 1_555 1_555
Cu2 O9 1_555 1_555
Cu3 O10 1_555 1_555
C1 O1 1_555 1_555
C6 C7 1_555 1_555
C12 C13 1_555 1_555
C15 O5 1_555 1_555
C20 C21 1_555 1_555
C26 C27 1_555 1_555
C33 N1 1_555 1_555
C37 C38 1_555 1_555
C37 N2 1_555 1_555
Cu3B O10B 1_555 1_555

#END
