
#######################################################################
#
#                 Cambridge Crystallographic Data Centre
#                                CCDC 
#
#######################################################################
#
# If this CIF has been generated from an entry in the Cambridge 
# Structural Database, then it will include bibliographic, chemical, 
# crystal, experimental, refinement or atomic coordinate data resulting 
# from the CCDC's data processing and validation procedures.
#
#######################################################################

data_ZEGYIV
_symmetry_cell_setting           triclinic
_symmetry_space_group_name_H-M   'P -1'
_symmetry_Int_Tables_number      2
_space_group_name_Hall           '-P 1'
loop_
_symmetry_equiv_pos_site_id
_symmetry_equiv_pos_as_xyz
1 x,y,z
2 -x,-y,-z
_cell_length_a                   7.788(3)
_cell_length_b                   9.551(4)
_cell_length_c                   14.389(5)
_cell_angle_alpha                101.446(5)
_cell_angle_beta                 105.298(5)
_cell_angle_gamma                98.651(5)
_cell_volume                     988.295
loop_
_atom_site_label
_atom_site_type_symbol
_atom_site_fract_x
_atom_site_fract_y
_atom_site_fract_z
Cu1 Cu -0.00884(6) -0.16055(5) 0.02884(3)
O1 O -0.1685(4) -0.0188(3) 0.0279(2)
N1 N 0.1711(4) -0.2867(3) 0.0204(2)
O2 O 0.1187(4) -0.0516(3) 0.1624(2)
C1 C 0.4312(5) -0.4547(4) 0.0053(3)
C2 C 0.2624(7) 0.2659(5) 0.4225(3)
H1 H 0.2838 0.3638 0.4211
N2 N 0.2968(6) 0.0337(4) 0.6029(3)
C3 C 0.3785(6) 0.3505(4) 0.6065(3)
N3 N 0.0868(5) 0.4259(4) 0.6121(3)
C4 C 0.2955(6) 0.2303(4) 0.5147(3)
C5 C 0.1331(6) -0.4100(4) -0.0505(3)
H2 H 0.0160 -0.4402 -0.0950
O3 O 0.0292(6) -0.2249(4) 0.2322(3)
C6 C 0.0986(6) -0.0999(5) 0.2354(3)
O4 O 0.3269(9) -0.0857(4) 0.6022(3)
O5 O 0.0017(5) 0.3294(4) 0.5408(3)
C7 C 0.2645(6) 0.0817(4) 0.5102(3)
C8 C 0.4700(6) -0.3272(4) 0.0785(3)
H3 H 0.5855 -0.2948 0.1247
C9 C 0.2576(6) -0.4954(4) -0.0616(3)
H4 H 0.2253 -0.5793 -0.1135
C10 C 0.1999(6) 0.1614(5) 0.3352(3)
H5 H 0.1768 0.1897 0.2756
C11 C 0.2862(5) 0.4461(4) 0.6502(3)
C12 C 0.2018(6) -0.0245(4) 0.4235(3)
H6 H 0.1803 -0.1224 0.4248
C13 C 0.1695(6) 0.0134(4) 0.3327(3)
C14 C 0.3387(6) -0.2484(4) 0.0833(3)
H7 H 0.3686 -0.1628 0.1335
O6 O 0.0154(5) 0.5084(5) 0.6571(3)
C15 C 0.5665(6) 0.3772(4) 0.6501(3)
H8 H 0.6333 0.3167 0.6229
O7 O 0.2910(7) 0.1133(4) 0.6756(3)
C16 C 0.6560(6) 0.4916(4) 0.7327(3)
H9 H 0.7809 0.5049 0.7618
C17 C 0.5612(5) 0.5861(4) 0.7722(3)
C18 C 0.3757(5) 0.5617(4) 0.7295(3)
H10 H 0.3105 0.6253 0.7550
C19 C 0.6575(5) 0.7124(4) 0.8606(3)
O8 O 0.8213(4) 0.7143(3) 0.90398(19)
O9 O 0.5703(4) 0.8045(3) 0.8863(2)
H11 H -0.184(5) 0.011(4) 0.0845(16)
H12 H -0.273(4) -0.048(5) -0.013(2)
Cu1A Cu 0.00884(6) 0.16055(5) -0.02884(3)
Cu1_2 Cu 0.99116(6) 0.83945(5) 1.02884(3)
Cu1A_2 Cu 1.00884(6) -0.83945(5) -0.02884(3)
Cu1_3 Cu -1.00884(6) -1.16055(5) -0.97116(3)
O1A O 0.1685(4) 0.0188(3) -0.0279(2)
N1A N 0.8289(4) -0.7133(3) -0.0204(2)
N1A_2 N -0.1711(4) 0.2867(3) -0.0204(2)
O2_2 O -0.8813(4) -1.0516(3) -0.8376(2)
O2A O -0.1187(4) 0.0516(3) -0.1624(2)
C1A C 0.5688(5) -0.5453(4) -0.0053(3)
C2_2 C -0.7376(7) -0.7341(5) -0.5775(3)
H1_2 H -0.7162 -0.6362 -0.5789
N2_2 N -0.7032(6) -0.9663(4) -0.3971(3)
C3_2 C -0.6215(6) -0.6495(4) -0.3935(3)
N3_2 N -0.9132(5) -0.5741(4) -0.3879(3)
C4_2 C -0.7045(6) -0.7697(4) -0.4853(3)
C5A C 0.8669(6) -0.5900(4) 0.0505(3)
H2A H 0.9840 -0.5598 0.0950
O3_2 O -0.9708(6) -1.2249(4) -0.7678(3)
C6_2 C -0.9014(6) -1.0999(5) -0.7646(3)
O4_2 O -0.6731(9) -1.0857(4) -0.3978(3)
O5_2 O -0.9983(5) -0.6706(4) -0.4592(3)
C7_2 C -0.7355(6) -0.9183(4) -0.4898(3)
C8A C 0.5300(6) -0.6728(4) -0.0785(3)
H3A H 0.4145 -0.7052 -0.1247
C9A C 0.7424(6) -0.5046(4) 0.0616(3)
H4A H 0.7747 -0.4207 0.1135
C10_2 C -0.8001(6) -0.8386(5) -0.6648(3)
H5_2 H -0.8232 -0.8103 -0.7244
C11_2 C -0.7138(5) -0.5539(4) -0.3498(3)
C12_2 C -0.7982(6) -1.0245(4) -0.5765(3)
H6_2 H -0.8197 -1.1224 -0.5752
C13_2 C -0.8305(6) -0.9866(4) -0.6673(3)
C14A C 0.6613(6) -0.7516(4) -0.0833(3)
H7A H 0.6314 -0.8372 -0.1335
O6_2 O -0.9846(5) -0.4916(5) -0.3429(3)
C15_2 C -0.4335(6) -0.6228(4) -0.3499(3)
H8_2 H -0.3667 -0.6833 -0.3771
O7_2 O -0.7090(7) -0.8867(4) -0.3244(3)
C16_2 C -0.3440(6) -0.5084(4) -0.2673(3)
H9_2 H -0.2191 -0.4951 -0.2382
C17_2 C -0.4388(5) -0.4139(4) -0.2278(3)
C18_2 C -0.6243(5) -0.4383(4) -0.2705(3)
H10_2 H -0.6895 -0.3747 -0.2450
C19_2 C -0.3425(5) -0.2876(4) -0.1394(3)
O8_2 O -0.1787(4) -0.2857(3) -0.09602(19)
O8A O 0.1787(4) 0.2857(3) 0.09602(19)
O9_2 O -0.4297(4) -0.1955(3) -0.1137(2)
H11A H 0.184(5) -0.011(4) -0.0845(16)
H12A H 0.273(4) 0.048(5) 0.013(2)
O10 O -0.2637(5) 0.0902(5) 0.1842(2)
H13 H -0.354(4) 0.130(4) 0.173(3)
H14 H -0.282(8) 0.027(6) 0.216(5)
loop_
_geom_bond_atom_site_label_1
_geom_bond_atom_site_label_2
_geom_bond_site_symmetry_1
_geom_bond_site_symmetry_2
Cu1 O1 1_555 1_555
O1 H11 1_555 1_555
N1 Cu1 1_555 1_555
O2 Cu1 1_555 1_555
C1 C8 1_555 1_555
C2 H1 1_555 1_555
N2 O4 1_555 1_555
C3 C4 1_555 1_555
N3 O5 1_555 1_555
C4 C2 1_555 1_555
C5 N1 1_555 1_555
H2 C5 1_555 1_555
O3 C6 1_555 1_555
C6 O2 1_555 1_555
C7 N2 1_555 1_555
C8 H3 1_555 1_555
C9 C1 1_555 1_555
H4 C9 1_555 1_555
C10 C2 1_555 1_555
H5 C10 1_555 1_555
C11 C3 1_555 1_555
C12 C7 1_555 1_555
H6 C12 1_555 1_555
C13 C6 1_555 1_555
C14 N1 1_555 1_555
H7 C14 1_555 1_555
O6 N3 1_555 1_555
C15 C3 1_555 1_555
H8 C15 1_555 1_555
O7 N2 1_555 1_555
C16 C15 1_555 1_555
H9 C16 1_555 1_555
C17 C16 1_555 1_555
C18 C11 1_555 1_555
H10 C18 1_555 1_555
C19 C17 1_555 1_555
O8 C19 1_555 1_555
O9 C19 1_555 1_555
O10 H13 1_555 1_555
H12 O1 1_555 1_555
H14 O10 1_555 1_555
Cu1A O1 1_555 1_555
Cu1_2 O8 1_555 1_555
Cu1A_2 N1A 1_555 1_555
Cu1_3 O2_2 1_555 1_555
O1A Cu1 1_555 1_555
N1A C5A 1_555 1_555
N1A_2 Cu1A 1_555 1_555
O2_2 C6_2 1_555 1_555
O2A Cu1A 1_555 1_555
C1A C1 1_555 1_555
C2_2 H1_2 1_555 1_555
N2_2 O4_2 1_555 1_555
C3_2 C4_2 1_555 1_555
N3_2 O5_2 1_555 1_555
C4_2 C2_2 1_555 1_555
C5A H2A 1_555 1_555
O3_2 C6_2 1_555 1_555
C6_2 C13_2 1_555 1_555
C7_2 N2_2 1_555 1_555
C8A C1A 1_555 1_555
H3A C8A 1_555 1_555
C9A C1A 1_555 1_555
H4A C9A 1_555 1_555
C10_2 C2_2 1_555 1_555
H5_2 C10_2 1_555 1_555
C11_2 C3_2 1_555 1_555
C12_2 C7_2 1_555 1_555
H6_2 C12_2 1_555 1_555
C13_2 C10_2 1_555 1_555
C14A N1A 1_555 1_555
H7A C14A 1_555 1_555
O6_2 N3_2 1_555 1_555
C15_2 C3_2 1_555 1_555
H8_2 C15_2 1_555 1_555
O7_2 N2_2 1_555 1_555
C16_2 C15_2 1_555 1_555
H9_2 C16_2 1_555 1_555
C17_2 C16_2 1_555 1_555
C18_2 C11_2 1_555 1_555
H10_2 C18_2 1_555 1_555
C19_2 C17_2 1_555 1_555
O8_2 Cu1 1_555 1_555
O8A Cu1A 1_555 1_555
O9_2 C19_2 1_555 1_555
H11A O1A 1_555 1_555
H12A O1A 1_555 1_555
N3 C11 1_555 1_555
C4 C7 1_555 1_555
C5 C9 1_555 1_555
C8 C14 1_555 1_555
C10 C13 1_555 1_555
C12 C13 1_555 1_555
C17 C18 1_555 1_555
Cu1A O1A 1_555 1_555
N3_2 C11_2 1_555 1_555
C4_2 C7_2 1_555 1_555
C5A C9A 1_555 1_555
C8A C14A 1_555 1_555
C12_2 C13_2 1_555 1_555
C17_2 C18_2 1_555 1_555
C19_2 O8_2 1_555 1_555

#END
