
#######################################################################
#
#                 Cambridge Crystallographic Data Centre
#                                CCDC 
#
#######################################################################
#
# If this CIF has been generated from an entry in the Cambridge 
# Structural Database, then it will include bibliographic, chemical, 
# crystal, experimental, refinement or atomic coordinate data resulting 
# from the CCDC's data processing and validation procedures.
#
#######################################################################

data_ZEGYER
_symmetry_cell_setting           triclinic
_symmetry_space_group_name_H-M   'P -1'
_symmetry_Int_Tables_number      2
_space_group_name_Hall           '-P 1'
loop_
_symmetry_equiv_pos_site_id
_symmetry_equiv_pos_as_xyz
1 x,y,z
2 -x,-y,-z
_cell_length_a                   7.7438(15)
_cell_length_b                   10.058(2)
_cell_length_c                   13.769(3)
_cell_angle_alpha                101.96(3)
_cell_angle_beta                 105.94(3)
_cell_angle_gamma                104.09(3)
_cell_volume                     956.001
loop_
_atom_site_label
_atom_site_type_symbol
_atom_site_fract_x
_atom_site_fract_y
_atom_site_fract_z
Cu1 Cu 0.0000 0.0000 -0.5000
C1 C 0.0318(4) 0.1138(3) -0.28330(19)
C2 C 0.1449(4) 0.1461(3) -0.16787(19)
C3 C 0.3227(5) 0.1351(4) -0.1360(2)
H1 H 0.3760 0.1068 -0.1864
C4 C 0.4255(5) 0.1657(4) -0.0294(2)
H2 H 0.5467 0.1579 -0.0095
C5 C 0.3495(4) 0.2076(3) 0.0476(2)
C6 C 0.1691(5) 0.2164(4) 0.0127(2)
C7 C 0.0656(4) 0.1866(3) -0.0929(2)
H3 H -0.0559 0.1937 -0.1131
C8 C 0.4571(4) 0.2256(3) 0.1600(2)
C9 C 0.6159(4) 0.3419(3) 0.2252(2)
C10 C 0.7161(4) 0.3497(3) 0.3270(2)
H4 H 0.8201 0.4298 0.3687
C11 C 0.6598(4) 0.2366(3) 0.36670(19)
C12 C 0.5041(4) 0.1198(3) 0.3035(2)
H5 H 0.4657 0.0439 0.3297
C13 C 0.4050(4) 0.1139(3) 0.2023(2)
H6 H 0.3008 0.0337 0.1612
C14 C 0.7675(4) 0.2484(3) 0.4785(2)
C15 C 0.1438(4) 0.2365(3) -0.5814(2)
H7 H 0.0299 0.1914 -0.6375
C16 C 0.2620(4) 0.3627(3) -0.5813(2)
H8 H 0.2259 0.4020 -0.6361
C17 C 0.4335(3) 0.4318(2) -0.50085(19)
C18 C 0.4779(4) 0.3673(3) -0.4211(2)
H9 H 0.5924 0.4091 -0.3652
C19 C 0.3519(4) 0.2416(3) -0.4256(2)
H10 H 0.3837 0.2005 -0.3714
N1 N 0.1859(3) 0.1758(2) -0.50400(16)
N2 N 0.6785(5) 0.4657(3) 0.1873(2)
N3 N 0.0761(5) 0.2542(5) 0.0890(2)
O1 O 0.1074(3) 0.06427(19) -0.34681(14)
O2 O -0.1225(3) 0.1340(2) -0.30749(15)
O3 O 0.8801(3) 0.3584(2) 0.54004(15)
O4 O 0.7243(3) 0.1246(2) 0.49970(16)
H11 H 0.759(5) 0.133(4) 0.559(3)
O5 O 0.8531(9) 0.5254(7) 0.2156(5)
O6 O 0.5577(11) 0.4987(7) 0.1278(5)
O7 O -0.0932(5) 0.1978(6) 0.0630(3)
O8 O 0.1750(6) 0.3442(6) 0.1730(2)
Cu1_2 Cu 1.0000 0.0000 0.5000
Cu1_3 Cu 1.0000 1.0000 -0.5000
Cu1_4 Cu -1.0000 0.0000 -1.5000
C1A C -0.0318(4) -0.1138(3) -0.71670(19)
C2A C -0.1449(4) -0.1461(3) -0.83213(19)
C3A C -0.3227(5) -0.1351(4) -0.8640(2)
H1A H -0.3760 -0.1068 -0.8136
C4A C -0.4255(5) -0.1657(4) -0.9706(2)
H2A H -0.5467 -0.1579 -0.9905
C5A C -0.3495(4) -0.2076(3) -1.0476(2)
C6A C -0.1691(5) -0.2164(4) -1.0127(2)
C7A C -0.0656(4) -0.1866(3) -0.9071(2)
H3A H 0.0559 -0.1937 -0.8869
C8A C -0.4571(4) -0.2256(3) -1.1600(2)
C9A C -0.6159(4) -0.3419(3) -1.2252(2)
C10A C -0.7161(4) -0.3497(3) -1.3270(2)
H4A H -0.8201 -0.4298 -1.3687
C11A C -0.6598(4) -0.2366(3) -1.36670(19)
C12A C -0.5041(4) -0.1198(3) -1.3035(2)
H5A H -0.4657 -0.0439 -1.3297
C13A C -0.4050(4) -0.1139(3) -1.2023(2)
H6A H -0.3008 -0.0337 -1.1612
C14A C -0.7675(4) -0.2484(3) -1.4785(2)
C15A C 0.8562(4) 0.7635(3) -0.4186(2)
H7A H 0.9701 0.8086 -0.3625
C16A C 0.7380(4) 0.6373(3) -0.4187(2)
H8A H 0.7741 0.5980 -0.3639
C17A C 0.5665(3) 0.5682(2) -0.49915(19)
C18A C 0.5221(4) 0.6327(3) -0.5789(2)
H9A H 0.4076 0.5909 -0.6348
C19A C 0.6481(4) 0.7584(3) -0.5744(2)
H10A H 0.6163 0.7995 -0.6286
N1A N 0.8141(3) 0.8242(2) -0.49600(16)
N1A_2 N -0.1859(3) -0.1758(2) -0.49600(16)
N2A N -0.6785(5) -0.4657(3) -1.1873(2)
N3A N -0.0761(5) -0.2542(5) -1.0890(2)
O1A O -0.1074(3) -0.06427(19) -0.65319(14)
O2A O 0.1225(3) -0.1340(2) -0.69251(15)
O3A O -0.8801(3) -0.3584(2) -1.54004(15)
O4_2 O -0.2757(3) 0.1246(2) -0.50030(16)
O4A O 0.2757(3) -0.1246(2) -0.49970(16)
O4A_2 O -0.7243(3) -0.1246(2) -1.49970(16)
H11_2 H -0.241(5) 0.133(4) -0.441(3)
H11A H 0.241(5) -0.133(4) -0.559(3)
H11A_2 H -0.759(5) -0.133(4) -1.559(3)
O5A O -0.8531(9) -0.5254(7) -1.2156(5)
O6A O -0.5577(11) -0.4987(7) -1.1278(5)
O7A O 0.0932(5) -0.1978(6) -1.0630(3)
O8A O -0.1750(6) -0.3442(6) -1.1730(2)
O9 O -0.2995(13) 0.2967(10) -0.1981(7)
O10 O 0.0000 0.5000 0.0000
O11? O 0.7589(19) 0.5786(12) 0.2541(9)
O12? O 0.630(2) 0.4553(13) 0.0981(9)
loop_
_geom_bond_atom_site_label_1
_geom_bond_atom_site_label_2
_geom_bond_site_symmetry_1
_geom_bond_site_symmetry_2
Cu1 N1 1_555 1_555
C1 C2 1_555 1_555
C2 C3 1_555 1_555
C3 H1 1_555 1_555
C4 C3 1_555 1_555
H2 C4 1_555 1_555
C5 C4 1_555 1_555
C6 C5 1_555 1_555
C7 C2 1_555 1_555
H3 C7 1_555 1_555
C8 C5 1_555 1_555
C9 C8 1_555 1_555
C10 C9 1_555 1_555
H4 C10 1_555 1_555
C11 C10 1_555 1_555
C12 C11 1_555 1_555
H5 C12 1_555 1_555
C13 C8 1_555 1_555
H6 C13 1_555 1_555
C14 C11 1_555 1_555
C15 H7 1_555 1_555
C16 C15 1_555 1_555
H8 C16 1_555 1_555
C17 C16 1_555 1_555
C18 C17 1_555 1_555
H9 C18 1_555 1_555
C19 C18 1_555 1_555
H10 C19 1_555 1_555
N1 C15 1_555 1_555
N2 C9 1_555 1_555
N3 C6 1_555 1_555
O1 Cu1 1_555 1_555
O2 C1 1_555 1_555
O3 C14 1_555 1_555
O4 C14 1_555 1_555
H11 O4 1_555 1_555
O5 N2 1_555 1_555
O6 N2 1_555 1_555
O7 N3 1_555 1_555
O8 N3 1_555 1_555
Cu1_2 O4 1_555 1_555
Cu1_3 N1A 1_555 1_555
Cu1_4 O4A_2 1_555 1_555
C1A C2A 1_555 1_555
C2A C3A 1_555 1_555
C3A H1A 1_555 1_555
C4A C3A 1_555 1_555
H2A C4A 1_555 1_555
C5A C4A 1_555 1_555
C6A C5A 1_555 1_555
C7A C2A 1_555 1_555
H3A C7A 1_555 1_555
C8A C5A 1_555 1_555
C9A C8A 1_555 1_555
C10A C9A 1_555 1_555
H4A C10A 1_555 1_555
C11A C10A 1_555 1_555
C12A C11A 1_555 1_555
H5A C12A 1_555 1_555
C13A C8A 1_555 1_555
H6A C13A 1_555 1_555
C14A C11A 1_555 1_555
C15A H7A 1_555 1_555
C16A C15A 1_555 1_555
H8A C16A 1_555 1_555
C17A C17 1_555 1_555
C18A C17A 1_555 1_555
H9A C18A 1_555 1_555
C19A C18A 1_555 1_555
H10A C19A 1_555 1_555
N1A C15A 1_555 1_555
N1A_2 Cu1 1_555 1_555
N2A C9A 1_555 1_555
N3A C6A 1_555 1_555
O1A Cu1 1_555 1_555
O2A C1A 1_555 1_555
O3A C14A 1_555 1_555
O4_2 Cu1 1_555 1_555
O4A Cu1 1_555 1_555
O4A_2 C14A 1_555 1_555
H11_2 O4_2 1_555 1_555
H11A O4A 1_555 1_555
H11A_2 O4A_2 1_555 1_555
O5A N2A 1_555 1_555
O6A N2A 1_555 1_555
O7A N3A 1_555 1_555
O8A N3A 1_555 1_555
C1 O1 1_555 1_555
C6 C7 1_555 1_555
C12 C13 1_555 1_555
C19 N1 1_555 1_555
C1A O1A 1_555 1_555
C6A C7A 1_555 1_555
C12A C13A 1_555 1_555
C16A C17A 1_555 1_555
C19A N1A 1_555 1_555

#END
