
#######################################################################
#
#                 Cambridge Crystallographic Data Centre
#                                CCDC 
#
#######################################################################
#
# If this CIF has been generated from an entry in the Cambridge 
# Structural Database, then it will include bibliographic, chemical, 
# crystal, experimental, refinement or atomic coordinate data resulting 
# from the CCDC's data processing and validation procedures.
#
#######################################################################

data_ZEHJUT
_symmetry_cell_setting           monoclinic
_symmetry_space_group_name_H-M   'C c'
_symmetry_Int_Tables_number      9
_space_group_name_Hall           'C -2yc'
loop_
_symmetry_equiv_pos_site_id
_symmetry_equiv_pos_as_xyz
1 x,y,z
2 x,-y,1/2+z
3 1/2+x,1/2+y,z
4 1/2+x,1/2-y,1/2+z
_cell_length_a                   11.6913(12)
_cell_length_b                   14.5413(13)
_cell_length_c                   19.066(2)
_cell_angle_alpha                90
_cell_angle_beta                 100.655(9)
_cell_angle_gamma                90
_cell_volume                     3185.46
loop_
_atom_site_label
_atom_site_type_symbol
_atom_site_fract_x
_atom_site_fract_y
_atom_site_fract_z
Cu1 Cu -0.07718(18) 0.31332(16) 0.38197(12)
Cu2 Cu -0.30780(18) 0.43156(15) 0.38924(12)
Cl1 Cl -0.1694(5) 0.4609(3) 0.3241(3)
Cl2 Cl -0.2207(4) 0.2855(3) 0.4479(2)
N1 N 0.2854(12) 0.3187(7) 0.4593(7)
N2 N 0.0172(14) -0.0540(8) 0.3414(8)
N3 N -0.1688(15) -0.0771(9) 0.3027(8)
N4 N 0.0981(11) 0.3011(9) 0.4332(7)
C1 C -0.1590(14) 0.0008(10) 0.3475(7)
N5 N 0.1750(12) 0.0020(9) 0.4817(7)
N6 N -0.0514(13) 0.2364(9) 0.2889(8)
C2 C 0.2681(17) 0.2420(14) 0.4262(10)
C3 C 0.0163(13) 0.0940(9) 0.4094(9)
H1 H -0.0462 0.1340 0.4194
C4 C -0.0389(16) 0.0126(9) 0.3689(9)
C5 C 0.1717(18) 0.3531(13) 0.4673(9)
C6 C 0.0882(17) 0.0640(13) 0.4808(8)
C7 C -0.0639(13) -0.1124(10) 0.3039(9)
C8 C -0.3562(17) 0.0135(13) 0.3297(10)
H2 H -0.4239 0.0457 0.3324
C9 C 0.1557(12) 0.2262(9) 0.4034(9)
C10 C 0.4940(15) 0.3074(12) 0.4746(12)
H3 H 0.5694 0.3260 0.4938
C11 C 0.4753(17) 0.2292(14) 0.4324(11)
H4 H 0.5379 0.2018 0.4166
C12 C 0.0733(14) -0.2329(12) 0.2720(10)
H5 H 0.1301 -0.2189 0.3115
C13 C 0.1513(19) 0.4399(11) 0.5071(10)
C14 C 0.0458(18) 0.4709(12) 0.5039(9)
H6 H -0.0179 0.4433 0.4752
C15 C 0.0331(19) 0.5473(13) 0.5456(10)
H7 H -0.0399 0.5724 0.5462
C16 C -0.2640(14) 0.0440(11) 0.3595(9)
H8 H -0.2611 0.0945 0.3897
C17 C -0.364(2) -0.0671(14) 0.2920(10)
H9 H -0.4370 -0.0929 0.2763
C18 C 0.0230(15) 0.1756(10) 0.2933(9)
C19 C 0.3674(15) 0.1916(11) 0.4136(9)
H10 H 0.3583 0.1336 0.3928
C20 C -0.1119(16) 0.2680(11) 0.2232(10)
H11 H -0.1673 0.3144 0.2211
C21 C -0.2765(15) -0.1073(12) 0.2778(10)
H12 H -0.2868 -0.1595 0.2492
C22 C -0.0376(17) -0.1855(10) 0.2604(11)
C23 C 0.3978(17) 0.3590(11) 0.4885(8)
H13 H 0.4059 0.4138 0.5141
C24 C 0.243(2) -0.0156(16) 0.5413(11)
H14 H 0.3059 -0.0551 0.5420
C25 C 0.045(2) 0.1309(14) 0.2312(12)
H15 H 0.0936 0.0798 0.2346
C26 C 0.0939(19) -0.2992(12) 0.2237(14)
H16 H 0.1675 -0.3252 0.2280
C27 C 0.009(2) -0.3258(16) 0.1711(16)
H17 H 0.0147 -0.3794 0.1454
N7 N 0.2513(18) 0.4793(14) 0.5437(12)
C28 C 0.135(2) 0.0754(16) 0.6096(10)
H18 H 0.1173 0.0957 0.6526
C29 C -0.093(2) -0.2665(14) 0.1561(13)
H19 H -0.1418 -0.2695 0.1118
C30 C -0.0891(19) 0.2310(14) 0.1643(11)
H20 H -0.1287 0.2496 0.1197
C31 C -0.003(2) 0.1624(17) 0.1708(14)
H21 H 0.0193 0.1394 0.1299
C32 C 0.0661(17) 0.0985(12) 0.5442(9)
H22 H 0.0035 0.1382 0.5435
N8 N -0.1157(15) -0.2090(10) 0.2045(8)
C33 C 0.130(3) 0.5839(18) 0.5853(17)
H23 H 0.1230 0.6357 0.6128
C34 C 0.223(2) 0.0255(17) 0.6078(12)
H24 H 0.2767 0.0149 0.6497
C35 C 0.231(2) 0.5505(15) 0.5867(15)
H25 H 0.2938 0.5755 0.6181
C36 C 0.0898(18) 0.1497(9) 0.3661(7)
H26 H 0.1493 0.1065 0.3565
Cu2B Cu 0.19220(18) -0.06844(15) 0.38924(12)
N2B N -0.4828(14) 0.4460(8) 0.3414(8)
N5B N -0.3250(12) 0.5020(9) 0.4817(7)
loop_
_geom_bond_atom_site_label_1
_geom_bond_atom_site_label_2
_geom_bond_site_symmetry_1
_geom_bond_site_symmetry_2
Cu1 Cl1 1_555 1_555
Cu2 Cl1 1_555 1_555
Cl2 Cu1 1_555 1_555
N1 C2 1_555 1_555
N2 C4 1_555 1_555
N3 C1 1_555 1_555
N4 Cu1 1_555 1_555
C1 C4 1_555 1_555
N5 C6 1_555 1_555
N6 Cu1 1_555 1_555
C2 C9 1_555 1_555
C3 H1 1_555 1_555
C4 C3 1_555 1_555
C5 N1 1_555 1_555
C6 C3 1_555 1_555
C7 N2 1_555 1_555
C8 H2 1_555 1_555
C9 N4 1_555 1_555
C10 H3 1_555 1_555
C11 C10 1_555 1_555
H4 C11 1_555 1_555
C12 H5 1_555 1_555
C13 C5 1_555 1_555
C14 C13 1_555 1_555
H6 C14 1_555 1_555
C15 C14 1_555 1_555
H7 C15 1_555 1_555
C16 C1 1_555 1_555
H8 C16 1_555 1_555
C17 C8 1_555 1_555
H9 C17 1_555 1_555
C18 N6 1_555 1_555
C19 C2 1_555 1_555
H10 C19 1_555 1_555
C20 N6 1_555 1_555
H11 C20 1_555 1_555
C21 N3 1_555 1_555
H12 C21 1_555 1_555
C22 C7 1_555 1_555
C23 N1 1_555 1_555
H13 C23 1_555 1_555
C24 N5 1_555 1_555
H14 C24 1_555 1_555
C25 C18 1_555 1_555
H15 C25 1_555 1_555
C26 C12 1_555 1_555
H16 C26 1_555 1_555
C27 C26 1_555 1_555
H17 C27 1_555 1_555
N7 C13 1_555 1_555
C28 H18 1_555 1_555
C29 C27 1_555 1_555
H19 C29 1_555 1_555
C30 C20 1_555 1_555
H20 C30 1_555 1_555
C31 C25 1_555 1_555
H21 C31 1_555 1_555
C32 C6 1_555 1_555
H22 C32 1_555 1_555
N8 C22 1_555 1_555
C33 C15 1_555 1_555
H23 C33 1_555 1_555
C34 C24 1_555 1_555
H24 C34 1_555 1_555
C35 N7 1_555 1_555
H25 C35 1_555 1_555
C36 C3 1_555 1_555
H26 C36 1_555 1_555
Cu2B N2 1_555 1_555
N2B Cu2 1_555 1_555
N5B Cu2 1_555 1_555
Cu2 Cl2 1_555 1_555
N3 C7 1_555 1_555
N4 C5 1_555 1_555
N5 Cu2B 1_555 1_555
C8 C16 1_555 1_555
C9 C36 1_555 1_555
C10 C23 1_555 1_555
C11 C19 1_555 1_555
C12 C22 1_555 1_555
C17 C21 1_555 1_555
C18 C36 1_555 1_555
C28 C32 1_555 1_555
C28 C34 1_555 1_555
C29 N8 1_555 1_555
C30 C31 1_555 1_555
C33 C35 1_555 1_555

#END
