
#######################################################################
#
#                 Cambridge Crystallographic Data Centre
#                                CCDC 
#
#######################################################################
#
# If this CIF has been generated from an entry in the Cambridge 
# Structural Database, then it will include bibliographic, chemical, 
# crystal, experimental, refinement or atomic coordinate data resulting 
# from the CCDC's data processing and validation procedures.
#
#######################################################################

data_ZEHMUW
_symmetry_cell_setting           triclinic
_symmetry_space_group_name_H-M   'P -1'
_symmetry_Int_Tables_number      2
_space_group_name_Hall           '-P 1'
loop_
_symmetry_equiv_pos_site_id
_symmetry_equiv_pos_as_xyz
1 x,y,z
2 -x,-y,-z
_cell_length_a                   5.27077(30)
_cell_length_b                   6.76852(36)
_cell_length_c                   7.21407(29)
_cell_angle_alpha                94.8177(61)
_cell_angle_beta                 82.4034(51)
_cell_angle_gamma                111.9935(27)
_cell_volume                     236.374
loop_
_atom_site_label
_atom_site_type_symbol
_atom_site_fract_x
_atom_site_fract_y
_atom_site_fract_z
N3 N 0.00000 0.00000 0.50000
O1 O 0.048261 -0.121713 0.376325
O2 O -0.236096 -0.039945 0.575681
O3 O 0.187835 0.161658 0.547994
O1A O -0.048261 0.121713 0.623675
O2A O 0.236096 0.039945 0.424319
O3A O -0.187835 -0.161658 0.452006
Ag1 Ag 0.00000 0.00000 0.00000
C1 C -0.438100 0.430400 0.033140
C2 C -0.440520 0.388730 0.214670
H1 H -0.522520 0.444480 0.320910
N1 N -0.304950 0.253250 0.217430
H2 H -0.275620 0.197740 0.325920
N2 N -0.218740 0.211180 0.037590
C3 C -0.301030 0.320660 -0.076300
H3 H -0.268480 0.320510 -0.209010
Ag1_2 Ag -1.00000 1.00000 0.00000
C1A C -0.561900 0.569600 -0.033140
C2A C -0.559480 0.611270 -0.214670
H1A H -0.477480 0.555520 -0.320910
N1A N -0.695050 0.746750 -0.217430
H2A H -0.724380 0.802260 -0.325920
N2A N -0.781260 0.788820 -0.037590
N2A_2 N 0.218740 -0.211180 -0.037590
C3A C -0.698970 0.679340 0.076300
H3A H -0.731520 0.679490 0.209010
loop_
_geom_bond_atom_site_label_1
_geom_bond_atom_site_label_2
_geom_bond_site_symmetry_1
_geom_bond_site_symmetry_2
Ag1 N2 1_555 1_555
C1 C2 1_555 1_555
C2 H1 1_555 1_555
N1 C2 1_555 1_555
H2 N1 1_555 1_555
N2 N1 1_555 1_555
C3 C1 1_555 1_555
H3 C3 1_555 1_555
N3 O1 1_555 1_555
O1 O2A 1_555 1_555
O2 N3 1_555 1_555
O3 N3 1_555 1_555
Ag1_2 N2A 1_555 1_555
C1A C1 1_555 1_555
C2A C1A 1_555 1_555
H1A C2A 1_555 1_555
N1A C2A 1_555 1_555
H2A N1A 1_555 1_555
N2A N1A 1_555 1_555
N2A_2 Ag1 1_555 1_555
C3A C1A 1_555 1_555
H3A C3A 1_555 1_555
O1A N3 1_555 1_555
O2A N3 1_555 1_555
O3A N3 1_555 1_555
N2 C3 1_555 1_555
O1 O3A 1_555 1_555
O2 O1A 1_555 1_555
O2 O3A 1_555 1_555
O3 O1A 1_555 1_555
O3 O2A 1_555 1_555
N2A C3A 1_555 1_555

#END
