
#######################################################################
#
#                 Cambridge Crystallographic Data Centre
#                                CCDC 
#
#######################################################################
#
# If this CIF has been generated from an entry in the Cambridge 
# Structural Database, then it will include bibliographic, chemical, 
# crystal, experimental, refinement or atomic coordinate data resulting 
# from the CCDC's data processing and validation procedures.
#
#######################################################################

data_ZEHMOQ
_symmetry_cell_setting           monoclinic
_symmetry_space_group_name_H-M   'P 21/c'
_symmetry_Int_Tables_number      14
_space_group_name_Hall           '-P 2ybc'
loop_
_symmetry_equiv_pos_site_id
_symmetry_equiv_pos_as_xyz
1 x,y,z
2 -x,1/2+y,1/2-z
3 -x,-y,-z
4 x,1/2-y,1/2+z
_cell_length_a                   9.12096(66)
_cell_length_b                   6.14552(54)
_cell_length_c                   6.62943(52)
_cell_angle_alpha                90
_cell_angle_beta                 95.2296(91)
_cell_angle_gamma                90
_cell_volume                     370.053
loop_
_atom_site_label
_atom_site_type_symbol
_atom_site_fract_x
_atom_site_fract_y
_atom_site_fract_z
Ag1 Ag 0.49001(27) 0.21598(37) -0.67700(31)
C1 C 0.921720 0.489210 -0.536080
C2 C 0.838210 0.641270 -0.642060
H1 H 0.870820 0.780090 -0.682470
N1 N 0.69984 0.559720 -0.680050
N2 N 0.697830 0.357250 -0.597540
C3 C 0.834960 0.313670 -0.508560
H2 H 0.864890 0.183470 -0.439330
Ag1A Ag 0.50999(27) 0.71598(37) -0.82300(31)
Ag1C Ag 1.49001(27) 0.28402(37) -0.17700(31)
Ag1B Ag 1.50999(27) 0.78402(37) -0.32300(31)
C1B C 1.078280 0.510790 -0.463920
C2B C 1.161790 0.358730 -0.357940
H1B H 1.129180 0.219910 -0.317530
N1A N 0.30016 0.059720 -0.819950
N1B N 1.30016 0.440280 -0.319950
N2B N 1.302170 0.642750 -0.402460
N2A N 0.302170 0.857250 -0.902460
C3B C 1.165040 0.686330 -0.491440
H2B H 1.135110 0.816530 -0.560670
loop_
_geom_bond_atom_site_label_1
_geom_bond_atom_site_label_2
_geom_bond_site_symmetry_1
_geom_bond_site_symmetry_2
Ag1 N2 1_555 1_555
C1 C2 1_555 1_555
C2 H1 1_555 1_555
N1 C2 1_555 1_555
N2 N1 1_555 1_555
C3 C1 1_555 1_555
H2 C3 1_555 1_555
Ag1A N1 1_555 1_555
Ag1C N1B 1_555 1_555
Ag1B N2B 1_555 1_555
C1B C1 1_555 1_555
C2B C1B 1_555 1_555
H1B C2B 1_555 1_555
N1A Ag1 1_555 1_555
N1B C2B 1_555 1_555
N2B N1B 1_555 1_555
N2A Ag1A 1_555 1_555
C3B C1B 1_555 1_555
H2B C3B 1_555 1_555
N2 C3 1_555 1_555
N2B C3B 1_555 1_555

#END
