
#######################################################################
#
#                 Cambridge Crystallographic Data Centre
#                                CCDC 
#
#######################################################################
#
# If this CIF has been generated from an entry in the Cambridge 
# Structural Database, then it will include bibliographic, chemical, 
# crystal, experimental, refinement or atomic coordinate data resulting 
# from the CCDC's data processing and validation procedures.
#
#######################################################################

data_ZEHNOR
_symmetry_cell_setting           triclinic
_symmetry_space_group_name_H-M   'P -1'
_symmetry_Int_Tables_number      2
_space_group_name_Hall           '-P 1'
loop_
_symmetry_equiv_pos_site_id
_symmetry_equiv_pos_as_xyz
1 x,y,z
2 -x,-y,-z
_cell_length_a                   5.28837(21)
_cell_length_b                   9.70268(39)
_cell_length_c                   11.65566(46)
_cell_angle_alpha                101.7940(19)
_cell_angle_beta                 102.0196(31)
_cell_angle_gamma                105.0594(24)
_cell_volume                     543.298
loop_
_atom_site_label
_atom_site_type_symbol
_atom_site_fract_x
_atom_site_fract_y
_atom_site_fract_z
Ag1 Ag 0.4930(16) 0.74233(82) 0.25268(78)
C1 C 0.064100 0.978360 0.451980
C2 C 0.196780 0.875490 0.445210
H1 H 0.222890 0.818990 0.501710
N1 N 0.285530 0.867720 0.343340
N2 N 0.207700 0.965780 0.287150
H2 H 0.242770 0.983420 0.213870
C3 C 0.070850 1.034160 0.354300
H3 H -0.006460 1.107960 0.336150
C4 C 0.938550 0.518620 0.049720
C5 C 0.804500 0.620450 0.062860
H4 H 0.773840 0.680010 0.009380
N3 N 0.722050 0.622060 0.165990
N4 N 0.805140 0.521220 0.216600
H5 H 0.775010 0.499290 0.289360
C6 C 0.938950 0.457290 0.144740
H6 H 1.018700 0.382870 0.158490
Ag1A Ag -0.4930(16) 1.25767(82) 0.74732(78)
Ag1A_2 Ag 1.5070(16) 0.25767(82) -0.25268(78)
C1A C -0.064100 1.021640 0.548020
C2A C -0.196780 1.124510 0.554790
H1A H -0.222890 1.181010 0.498290
N1A N -0.285530 1.132280 0.656660
N2A N -0.207700 1.034220 0.712850
H2A H -0.242770 1.016580 0.786130
C3A C -0.070850 0.965840 0.645700
H3A H 0.006460 0.892040 0.663850
C4A C 1.061450 0.481380 -0.049720
C5A C 1.195500 0.379550 -0.062860
H4A H 1.226160 0.319990 -0.009380
N3A N 1.277950 0.377940 -0.165990
N3A_2 N -0.722050 1.377940 0.834010
N4A N 1.194860 0.478780 -0.216600
H5A H 1.224990 0.500710 -0.289360
C6A C 1.061050 0.542710 -0.144740
H6A H 0.981300 0.617130 -0.158490
P1 P 0.50000 0.50000 0.50000
F1 F 0.400433 0.381764 0.568443
F2 F 0.790130 0.556099 0.593481
F3 F 0.590836 0.385 0.415865
F1A F 0.599567 0.618236 0.431557
F2A F 0.209870 0.443901 0.406519
F3A F 0.409164 0.615 0.584135
P2 P -0.5 0.00000 0.00000
F4 F -0.756182 -0.109318 0.017865
F5 F -0.309477 -0.067154 0.077838
F6 F -0.520289 -0.117863 -0.118845
F4A F -0.243818 0.109318 -0.017865
F5A F -0.690523 0.067154 -0.077838
F6A F -0.479711 0.117863 0.118845
loop_
_geom_bond_atom_site_label_1
_geom_bond_atom_site_label_2
_geom_bond_site_symmetry_1
_geom_bond_site_symmetry_2
Ag1 N1 1_555 1_555
C1 C2 1_555 1_555
C2 H1 1_555 1_555
N1 C2 1_555 1_555
N2 N1 1_555 1_555
H2 N2 1_555 1_555
C3 C1 1_555 1_555
H3 C3 1_555 1_555
C4 C5 1_555 1_555
C5 H4 1_555 1_555
N3 Ag1 1_555 1_555
N4 N3 1_555 1_555
H5 N4 1_555 1_555
C6 C4 1_555 1_555
H6 C6 1_555 1_555
P1 F1 1_555 1_555
F2 P1 1_555 1_555
F3 P1 1_555 1_555
P2 F4 1_555 1_555
F5 P2 1_555 1_555
F6 P2 1_555 1_555
Ag1A N1A 1_555 1_555
Ag1A_2 N3A 1_555 1_555
C1A C1 1_555 1_555
C2A C1A 1_555 1_555
H1A C2A 1_555 1_555
N1A C2A 1_555 1_555
N2A N1A 1_555 1_555
H2A N2A 1_555 1_555
C3A C1A 1_555 1_555
H3A C3A 1_555 1_555
C4A C4 1_555 1_555
C5A C4A 1_555 1_555
H4A C5A 1_555 1_555
N3A C5A 1_555 1_555
N3A_2 Ag1A 1_555 1_555
N4A N3A 1_555 1_555
H5A N4A 1_555 1_555
C6A C4A 1_555 1_555
H6A C6A 1_555 1_555
F1A P1 1_555 1_555
F2A P1 1_555 1_555
F3A P1 1_555 1_555
F4A P2 1_555 1_555
F5A P2 1_555 1_555
F6A P2 1_555 1_555
N2 C3 1_555 1_555
C5 N3 1_555 1_555
N4 C6 1_555 1_555
N2A C3A 1_555 1_555
N4A C6A 1_555 1_555

#END
