
#######################################################################
#
#                 Cambridge Crystallographic Data Centre
#                                CCDC 
#
#######################################################################
#
# If this CIF has been generated from an entry in the Cambridge 
# Structural Database, then it will include bibliographic, chemical, 
# crystal, experimental, refinement or atomic coordinate data resulting 
# from the CCDC's data processing and validation procedures.
#
#######################################################################

data_ZEHNIL
_symmetry_cell_setting           monoclinic
_symmetry_space_group_name_H-M   'P c'
_symmetry_Int_Tables_number      7
_space_group_name_Hall           'P -2yc'
loop_
_symmetry_equiv_pos_site_id
_symmetry_equiv_pos_as_xyz
1 x,y,z
2 x,-y,1/2+z
_cell_length_a                   5.27982(14)
_cell_length_b                   7.80594(21)
_cell_length_c                   13.16341(42)
_cell_angle_alpha                90
_cell_angle_beta                 112.8648(16)
_cell_angle_gamma                90
_cell_volume                     499.888
loop_
_atom_site_label
_atom_site_type_symbol
_atom_site_fract_x
_atom_site_fract_y
_atom_site_fract_z
Ag1 Ag 0.00000 0.40519(26) 0.25000
C1 C -0.435170 0.454960 0.46732
C2 C -0.423820 0.282260 0.456110
C3 C -0.305510 0.529700 0.407440
C4 C -0.562180 0.543200 0.531350
C5 C -0.676500 0.468530 0.596770
C6 C -0.588880 0.715840 0.537010
N1 N -0.287140 0.250260 0.389310
N2 N -0.214020 0.403190 0.359230
N3 N -0.773850 0.595010 0.642860
N4 N -0.719690 0.747860 0.605930
H1 H -0.470350 0.198770 0.499240
H2 H -0.249380 0.140380 0.367480
H3 H -0.28282 0.649280 0.400510
H4 H -0.686580 0.349000 0.608250
H5 H -0.765250 0.857710 0.624940
H6 H -0.527010 0.799390 0.499420
Ag1A Ag -1.00000 0.59481(26) 0.75000
N3A N 0.226150 0.404990 0.142860
B1 B -0.011890 0.080810 0.747400
F1 F -0.286403 0.072604 0.718799
F2 F 0.050701 0.022988 0.663309
F3 F 0.115572 -0.017045 0.837490
F4 F 0.072483 0.244774 0.770122
loop_
_geom_bond_atom_site_label_1
_geom_bond_atom_site_label_2
_geom_bond_site_symmetry_1
_geom_bond_site_symmetry_2
Ag1 N2 1_555 1_555
C1 C2 1_555 1_555
C2 N1 1_555 1_555
C3 C1 1_555 1_555
C4 C1 1_555 1_555
C5 C4 1_555 1_555
C6 C4 1_555 1_555
N1 N2 1_555 1_555
N2 C3 1_555 1_555
N3 C5 1_555 1_555
N4 C6 1_555 1_555
H1 C2 1_555 1_555
H2 N1 1_555 1_555
H3 C3 1_555 1_555
H4 C5 1_555 1_555
H5 N4 1_555 1_555
H6 C6 1_555 1_555
B1 F1 1_555 1_555
F2 B1 1_555 1_555
F3 B1 1_555 1_555
F4 B1 1_555 1_555
Ag1A N3 1_555 1_555
N3A Ag1 1_555 1_555
N3 N4 1_555 1_555

#END
