
#######################################################################
#
#                 Cambridge Crystallographic Data Centre
#                                CCDC 
#
#######################################################################
#
# If this CIF has been generated from an entry in the Cambridge 
# Structural Database, then it will include bibliographic, chemical, 
# crystal, experimental, refinement or atomic coordinate data resulting 
# from the CCDC's data processing and validation procedures.
#
#######################################################################

data_ZEHNEH
_symmetry_cell_setting           triclinic
_symmetry_space_group_name_H-M   'P -1'
_symmetry_Int_Tables_number      2
_space_group_name_Hall           '-P 1'
loop_
_symmetry_equiv_pos_site_id
_symmetry_equiv_pos_as_xyz
1 x,y,z
2 -x,-y,-z
_cell_length_a                   6.81989(14)
_cell_length_b                   7.79667(17)
_cell_length_c                   10.01358(21)
_cell_angle_alpha                97.1234(20)
_cell_angle_beta                 104.3408(16)
_cell_angle_gamma                80.5017(17)
_cell_volume                     506.854
loop_
_atom_site_label
_atom_site_type_symbol
_atom_site_fract_x
_atom_site_fract_y
_atom_site_fract_z
Ag1 Ag -0.25793(51) 0.53313(33) -0.24907(40)
C1 C -0.240800 0.495840 -0.682580
C2 C -0.240720 0.325740 -0.664690
H1 H -0.235990 0.230270 -0.733230
N1 N -0.248600 0.31631 -0.531450
H2 H -0.250340 0.213090 -0.490580
N2 N -0.253550 0.480580 -0.467000
C3 C -0.248730 0.591540 -0.560400
H3 H -0.250570 0.714330 -0.543300
C4 C -0.233580 0.564260 -0.811380
C5 C -0.248430 0.472290 -0.937250
H4 H -0.265280 0.352570 -0.957380
N3 N -0.234910 0.581830 -1.029240
N4 N -0.211710 0.741480 -0.960230
H5 H -0.198410 0.842800 -0.999230
C6 C -0.210890 0.730620 -0.82558
H6 H -0.196920 0.823030 -0.754010
Ag1_2 Ag -0.25793(51) 0.53313(33) -1.24907(40)
N3_2 N -0.234910 0.581830 -0.029240
Cl1 Cl -0.7562 -0.01484 -0.73416
O1 O -0.720976 -0.192463 -0.778007
O2 O -0.807436 0.004178 -0.605590
O3 O -0.917034 0.068379 -0.831083
O4 O -0.579282 0.060520 -0.722142
loop_
_geom_bond_atom_site_label_1
_geom_bond_atom_site_label_2
_geom_bond_site_symmetry_1
_geom_bond_site_symmetry_2
Ag1 N2 1_555 1_555
C1 C2 1_555 1_555
C2 H1 1_555 1_555
N1 C2 1_555 1_555
H2 N1 1_555 1_555
N2 N1 1_555 1_555
C3 C1 1_555 1_555
H3 C3 1_555 1_555
C4 C1 1_555 1_555
C5 C4 1_555 1_555
H4 C5 1_555 1_555
N3 C5 1_555 1_555
N4 N3 1_555 1_555
H5 N4 1_555 1_555
C6 C4 1_555 1_555
H6 C6 1_555 1_555
Cl1 O1 1_555 1_555
O2 Cl1 1_555 1_555
O3 Cl1 1_555 1_555
O4 Cl1 1_555 1_555
Ag1_2 N3 1_555 1_555
N3_2 Ag1 1_555 1_555
N2 C3 1_555 1_555
N4 C6 1_555 1_555

#END
