
#######################################################################
#
#                 Cambridge Crystallographic Data Centre
#                                CCDC 
#
#######################################################################
#
# If this CIF has been generated from an entry in the Cambridge 
# Structural Database, then it will include bibliographic, chemical, 
# crystal, experimental, refinement or atomic coordinate data resulting 
# from the CCDC's data processing and validation procedures.
#
#######################################################################

data_ZEHNAD
_symmetry_cell_setting           triclinic
_symmetry_space_group_name_H-M   'P -1'
_symmetry_Int_Tables_number      2
_space_group_name_Hall           '-P 1'
loop_
_symmetry_equiv_pos_site_id
_symmetry_equiv_pos_as_xyz
1 x,y,z
2 -x,-y,-z
_cell_length_a                   5.54196(20)
_cell_length_b                   8.40976(28)
_cell_length_c                   11.32370(39)
_cell_angle_alpha                74.0854(22)
_cell_angle_beta                 83.0807(27)
_cell_angle_gamma                85.3833(28)
_cell_volume                     503.211
loop_
_atom_site_label
_atom_site_type_symbol
_atom_site_fract_x
_atom_site_fract_y
_atom_site_fract_z
Ag1 Ag 0.75219(88) 0.25053(67) 0.25456(40)
C1 C 0.092480 0.060540 0.470750
C2 C 0.084590 0.220450 0.476210
H1 H -0.041430 0.273510 0.518490
N1 N 0.288770 0.291060 0.410510
H2 H 0.330420 0.402100 0.398840
N2 N 0.422850 0.174790 0.364450
C3 C 0.301540 0.032320 0.401680
H3 H 0.353680 -0.069100 0.382760
C4 C 1.408570 0.43922 0.030560
C5 C 1.417890 0.278270 0.027560
H4 H 1.543710 0.224660 -0.014420
N3 N 1.215450 0.207540 0.095190
H5 H 1.175040 0.095840 0.108750
N4 N 1.08102 0.324780 0.140000
C6 C 1.200380 0.467960 0.100060
H6 H 1.147590 0.570130 0.117620
Ag1A Ag -0.75219(88) -0.25053(67) 0.74544(40)
Ag1A_2 Ag 2.24781(88) 0.74947(67) -0.25456(40)
C1A C -0.092480 -0.060540 0.529250
C2A C -0.084590 -0.220450 0.523790
H1A H 0.041430 -0.273510 0.481510
N1A N -0.288770 -0.291060 0.589490
H2A H -0.330420 -0.402100 0.601160
N2A N -0.422850 -0.174790 0.635550
C3A C -0.301540 -0.032320 0.598320
H3A H -0.353680 0.069100 0.617240
C4A C 1.591430 0.56078 -0.030560
C5A C 1.582110 0.721730 -0.027560
H4A H 1.456290 0.775340 0.014420
N3A N 1.784550 0.792460 -0.095190
H5A H 1.824960 0.904160 -0.108750
N4A N 1.91898 0.675220 -0.140000
N4A_2 N -1.08102 -0.324780 0.860000
C6A C 1.799620 0.532040 -0.100060
H6A H 1.852410 0.429870 -0.117620
O1 O 0.1363(28) -0.1326(26) 0.1587(20)
N5 N 0.40249 -0.65788 0.70251
O2 O 0.231857 -0.553722 0.693659
O3 O 0.607751 -0.616827 0.655531
O4 O 0.367862 -0.803090 0.758340
loop_
_geom_bond_atom_site_label_1
_geom_bond_atom_site_label_2
_geom_bond_site_symmetry_1
_geom_bond_site_symmetry_2
Ag1 N2 1_555 1_555
C1 C2 1_555 1_555
C2 H1 1_555 1_555
N1 C2 1_555 1_555
H2 N1 1_555 1_555
N2 N1 1_555 1_555
C3 C1 1_555 1_555
H3 C3 1_555 1_555
C4 C5 1_555 1_555
C5 H4 1_555 1_555
N3 C5 1_555 1_555
H5 N3 1_555 1_555
N4 Ag1 1_555 1_555
C6 C4 1_555 1_555
H6 C6 1_555 1_555
N5 O2 1_555 1_555
O3 N5 1_555 1_555
O4 N5 1_555 1_555
Ag1A N2A 1_555 1_555
Ag1A_2 N4A 1_555 1_555
C1A C1 1_555 1_555
C2A C1A 1_555 1_555
H1A C2A 1_555 1_555
N1A C2A 1_555 1_555
H2A N1A 1_555 1_555
N2A N1A 1_555 1_555
C3A C1A 1_555 1_555
H3A C3A 1_555 1_555
C4A C4 1_555 1_555
C5A C4A 1_555 1_555
H4A C5A 1_555 1_555
N3A C5A 1_555 1_555
H5A N3A 1_555 1_555
N4A N3A 1_555 1_555
N4A_2 Ag1A 1_555 1_555
C6A C4A 1_555 1_555
H6A C6A 1_555 1_555
N2 C3 1_555 1_555
N3 N4 1_555 1_555
N4 C6 1_555 1_555
N2A C3A 1_555 1_555
N4A C6A 1_555 1_555

#END
