
#######################################################################
#
#                 Cambridge Crystallographic Data Centre
#                                CCDC 
#
#######################################################################
#
# If this CIF has been generated from an entry in the Cambridge 
# Structural Database, then it will include bibliographic, chemical, 
# crystal, experimental, refinement or atomic coordinate data resulting 
# from the CCDC's data processing and validation procedures.
#
#######################################################################

data_ZEHQUA
_symmetry_cell_setting           orthorhombic
_symmetry_space_group_name_H-M   'P b c a'
_symmetry_Int_Tables_number      61
_space_group_name_Hall           '-P 2ac 2ab'
loop_
_symmetry_equiv_pos_site_id
_symmetry_equiv_pos_as_xyz
1 x,y,z
2 1/2-x,-y,1/2+z
3 1/2+x,1/2-y,-z
4 -x,1/2+y,1/2-z
5 -x,-y,-z
6 1/2+x,y,1/2-z
7 1/2-x,1/2+y,z
8 x,1/2-y,1/2+z
_cell_length_a                   13.261(3)
_cell_length_b                   14.189(3)
_cell_length_c                   17.697(4)
_cell_angle_alpha                90
_cell_angle_beta                 90
_cell_angle_gamma                90
_cell_volume                     3329.87
loop_
_atom_site_label
_atom_site_type_symbol
_atom_site_fract_x
_atom_site_fract_y
_atom_site_fract_z
C1 C -0.0096(6) 0.3124(6) 0.1709(5)
C2 C -0.0026(6) 0.2358(7) 0.2208(5)
H1 H 0.0553 0.2283 0.2519
C3 C -0.0798(8) 0.1717(7) 0.2242(5)
H2 H -0.0735 0.1186 0.2565
C4 C -0.1680(7) 0.1826(7) 0.1814(5)
H3 H -0.2206 0.1372 0.1837
C5 C -0.1763(7) 0.2621(8) 0.1351(6)
H4 H -0.2373 0.273 0.1083
C6 C -0.0967(7) 0.3257(7) 0.1277(5)
H5 H -0.1017 0.3774 0.0938
C7 C 0.2007(6) 0.3143(6) 0.1562(5)
H6 H 0.2629 0.3521 0.1505
H7 H 0.2057 0.2796 0.2046
C8 C 0.1955(6) 0.2434(6) 0.0921(5)
H8 H 0.2016 0.2768 0.0432
H9 H 0.1294 0.2111 0.0931
C9 C 0.2802(6) 0.1704(6) 0.0989(5)
H10 H 0.2787 0.1436 0.1505
H11 H 0.3456 0.2029 0.0925
C10 C 0.1680(6) 0.0071(6) 0.0621(5)
C11 C 0.1349(7) -0.0618(7) 0.0088(6)
H12 H 0.1662 -0.0663 -0.0394
C12 C 0.0575(8) -0.1214(7) 0.0277(8)
H13 H 0.0364 -0.1679 -0.0076
C13 C 0.0090(8) -0.1156(8) 0.0972(9)
H14 H -0.0442 -0.1577 0.1097
C14 C 0.0394(9) -0.0482(8) 0.1470(8)
H15 H 0.0052 -0.0429 0.194
C15 C 0.1208(8) 0.0150(7) 0.1312(6)
H16 H 0.1415 0.0608 0.1672
Cu1 Cu 0.08002(8) 0.48397(7) 0.05114(6)
I1 I -0.06535(4) 0.60785(4) 0.07817(3)
S1 S 0.09289(15) 0.39442(15) 0.16117(12)
S2 S 0.27353(16) 0.07577(15) 0.03241(12)
Cu1D Cu -0.08002(8) 0.51603(7) -0.05114(6)
Cu1F Cu 0.41998(8) -0.01603(7) 0.05114(6)
I1D I 0.06535(4) 0.39215(4) -0.07817(3)
S2F S 0.22647(16) 0.57577(15) 0.03241(12)
loop_
_geom_bond_atom_site_label_1
_geom_bond_atom_site_label_2
_geom_bond_site_symmetry_1
_geom_bond_site_symmetry_2
C1 C2 1_555 1_555
C2 H1 1_555 1_555
C3 C2 1_555 1_555
H2 C3 1_555 1_555
C4 C3 1_555 1_555
H3 C4 1_555 1_555
C5 C4 1_555 1_555
H4 C5 1_555 1_555
C6 C1 1_555 1_555
H5 C6 1_555 1_555
C7 H6 1_555 1_555
H7 C7 1_555 1_555
C8 C7 1_555 1_555
H8 C8 1_555 1_555
H9 C8 1_555 1_555
C9 C8 1_555 1_555
H10 C9 1_555 1_555
H11 C9 1_555 1_555
C10 C11 1_555 1_555
C11 H12 1_555 1_555
C12 C11 1_555 1_555
H13 C12 1_555 1_555
C13 C12 1_555 1_555
H14 C13 1_555 1_555
C14 C13 1_555 1_555
H15 C14 1_555 1_555
C15 C10 1_555 1_555
H16 C15 1_555 1_555
Cu1 I1 1_555 1_555
I1 Cu1D 1_555 1_555
S1 C1 1_555 1_555
S2 C9 1_555 1_555
Cu1D I1D 1_555 1_555
Cu1F S2 1_555 1_555
I1D Cu1 1_555 1_555
S2F Cu1 1_555 1_555
C5 C6 1_555 1_555
C7 S1 1_555 1_555
C10 S2 1_555 1_555
C14 C15 1_555 1_555
Cu1 S1 1_555 1_555

#END
