
#######################################################################
#
#                 Cambridge Crystallographic Data Centre
#                                CCDC 
#
#######################################################################
#
# If this CIF has been generated from an entry in the Cambridge 
# Structural Database, then it will include bibliographic, chemical, 
# crystal, experimental, refinement or atomic coordinate data resulting 
# from the CCDC's data processing and validation procedures.
#
#######################################################################

data_ZEHRUB
_symmetry_cell_setting           monoclinic
_symmetry_space_group_name_H-M   'C 2/c'
_symmetry_Int_Tables_number      15
_space_group_name_Hall           '-C 2yn'
loop_
_symmetry_equiv_pos_site_id
_symmetry_equiv_pos_as_xyz
1 x,y,z
2 -x,y,1/2-z
3 1/2+x,1/2+y,z
4 1/2-x,1/2+y,1/2-z
5 -x,-y,-z
6 x,-y,1/2+z
7 1/2-x,1/2-y,-z
8 1/2+x,1/2-y,1/2+z
_cell_length_a                   17.5702(13)
_cell_length_b                   13.6802(10)
_cell_length_c                   14.8649(11)
_cell_angle_alpha                90
_cell_angle_beta                 108.909(2)
_cell_angle_gamma                90
_cell_volume                     3380.17
loop_
_atom_site_label
_atom_site_type_symbol
_atom_site_fract_x
_atom_site_fract_y
_atom_site_fract_z
C1 C -0.02909(5) 0.44196(6) 0.87139(5)
C2 C 0.13514(5) 0.41762(6) 0.89371(6)
H1 H 0.1285 0.4514 0.8327
H2 H 0.146 0.4673 0.9447
C3 C 0.20447(5) 0.34506(6) 0.91511(7)
H3 H 0.1915 0.2947 0.8645
H4 H 0.2097 0.3117 0.9759
C4 C 0.28534(5) 0.39212(7) 0.92196(6)
H5 H 0.2777 0.4344 0.8656
H6 H 0.3236 0.3398 0.9198
C5 C 0.32279(5) 0.45344(6) 1.01180(6)
H7 H 0.287 0.509 1.0129
H8 H 0.3292 0.4129 1.069
C6 C 0.40439(5) 0.49166(6) 1.01289(5)
H9 H 0.396 0.535 0.9572
H10 H 0.437 0.4354 1.0047
C7 C 0.39527(5) 0.65315(5) 1.12510(6)
C8 C 0.35405(5) 0.64924(6) 1.19092(6)
H11 H 0.3617 0.5955 1.2334
C9 C 0.30163(5) 0.72455(6) 1.19409(6)
H12 H 0.2732 0.7219 1.2386
C10 C 0.29070(5) 0.80365(6) 1.13232(6)
H13 H 0.255 0.8549 1.1347
C11 C 0.33218(5) 0.80742(6) 1.06719(6)
H14 H 0.3245 0.8613 1.0249
C12 C 0.38485(5) 0.73278(6) 1.06345(6)
H15 H 0.4135 0.7359 1.0192
C13 C -0.01343(5) 0.54105(6) 0.86444(6)
H16 H 0.0386 0.5619 0.8662
C14 C -0.07440(5) 0.60951(7) 0.85487(7)
H17 H -0.0635 0.6771 0.8506
C15 C -0.15089(5) 0.57980(7) 0.85156(6)
H18 H -0.1922 0.6267 0.8452
C16 C -0.16642(5) 0.48086(7) 0.85766(6)
H19 H -0.2187 0.4602 0.855
C17 C -0.10602(5) 0.41178(6) 0.86768(6)
H20 H -0.1171 0.3443 0.872
S1 S 0.044777(12) 0.349444(14) 0.886582(14)
S2 S 0.462621(11) 0.558544(14) 1.118905(13)
Cu1 Cu 0.00000 0.253569(10) 0.75000
Cu2 Cu 0.00000 0.040194(10) 0.75000
Br1 Br -0.103669(5) 0.14708(5) 0.780818(6)
C1A C 0.02909(5) 0.44196(6) 0.62861(5)
C2A C -0.13514(5) 0.41762(6) 0.60629(6)
H1A H -0.1285 0.4514 0.6673
H2A H -0.146 0.4673 0.5553
C3A C -0.20447(5) 0.34506(6) 0.58489(7)
H3A H -0.1915 0.2947 0.6355
H4A H -0.2097 0.3117 0.5241
C4A C -0.28534(5) 0.39212(7) 0.57804(6)
H5A H -0.2777 0.4344 0.6344
H6A H -0.3236 0.3398 0.5802
C5A C -0.32279(5) 0.45344(6) 0.48820(6)
H7A H -0.287 0.509 0.4871
H8A H -0.3292 0.4129 0.431
C6A C -0.40439(5) 0.49166(6) 0.48711(5)
H9A H -0.396 0.535 0.5428
H10A H -0.437 0.4354 0.4953
C7A C -0.39527(5) 0.65315(5) 0.37490(6)
C8A C -0.35405(5) 0.64924(6) 0.30908(6)
H11A H -0.3617 0.5955 0.2666
C9A C -0.30163(5) 0.72455(6) 0.30591(6)
H12A H -0.2732 0.7219 0.2614
C10A C -0.29070(5) 0.80365(6) 0.36768(6)
H13A H -0.255 0.8549 0.3653
C11A C -0.33218(5) 0.80742(6) 0.43281(6)
H14A H -0.3245 0.8613 0.4751
C12A C -0.38485(5) 0.73278(6) 0.43655(6)
H15A H -0.4135 0.7359 0.4808
C13A C 0.01343(5) 0.54105(6) 0.63556(6)
H16A H -0.0386 0.5619 0.6338
C14A C 0.07440(5) 0.60951(7) 0.64513(7)
H17A H 0.0635 0.6771 0.6494
C15A C 0.15089(5) 0.57980(7) 0.64844(6)
H18A H 0.1922 0.6267 0.6548
C16A C 0.16642(5) 0.48086(7) 0.64234(6)
H19A H 0.2187 0.4602 0.645
C17A C 0.10602(5) 0.41178(6) 0.63232(6)
H20A H 0.1171 0.3443 0.628
S1A S -0.044777(12) 0.349444(14) 0.613418(14)
S2A S -0.462621(11) 0.558544(14) 0.381095(13)
S2F S 0.037379(11) -0.058544(14) 0.881095(13)
S2G S -0.037379(11) -0.058544(14) 0.618905(13)
Cu2F Cu 0.50000 0.459806(10) 1.25000
Cu2F_2 Cu -0.50000 0.459806(10) 0.25000
Br1A Br 0.103669(5) 0.14708(5) 0.719182(6)
loop_
_geom_bond_atom_site_label_1
_geom_bond_atom_site_label_2
_geom_bond_site_symmetry_1
_geom_bond_site_symmetry_2
C1 C13 1_555 1_555
C2 H1 1_555 1_555
H2 C2 1_555 1_555
C3 C2 1_555 1_555
H3 C3 1_555 1_555
H4 C3 1_555 1_555
C4 C3 1_555 1_555
H5 C4 1_555 1_555
H6 C4 1_555 1_555
C5 C4 1_555 1_555
H7 C5 1_555 1_555
H8 C5 1_555 1_555
C6 C5 1_555 1_555
H9 C6 1_555 1_555
H10 C6 1_555 1_555
C7 C8 1_555 1_555
C8 H11 1_555 1_555
C9 C8 1_555 1_555
H12 C9 1_555 1_555
C10 C9 1_555 1_555
H13 C10 1_555 1_555
C11 C10 1_555 1_555
H14 C11 1_555 1_555
C12 C7 1_555 1_555
H15 C12 1_555 1_555
C13 H16 1_555 1_555
C14 C13 1_555 1_555
H17 C14 1_555 1_555
C15 C14 1_555 1_555
H18 C15 1_555 1_555
C16 C15 1_555 1_555
H19 C16 1_555 1_555
C17 C1 1_555 1_555
H20 C17 1_555 1_555
S1 C1 1_555 1_555
S2 C6 1_555 1_555
Cu1 S1 1_555 1_555
Cu2 Br1 1_555 1_555
Br1 Cu1 1_555 1_555
C1A C13A 1_555 1_555
C2A H1A 1_555 1_555
H2A C2A 1_555 1_555
C3A C2A 1_555 1_555
H3A C3A 1_555 1_555
H4A C3A 1_555 1_555
C4A C3A 1_555 1_555
H5A C4A 1_555 1_555
H6A C4A 1_555 1_555
C5A C4A 1_555 1_555
H7A C5A 1_555 1_555
H8A C5A 1_555 1_555
C6A C5A 1_555 1_555
H9A C6A 1_555 1_555
H10A C6A 1_555 1_555
C7A C8A 1_555 1_555
C8A H11A 1_555 1_555
C9A C8A 1_555 1_555
H12A C9A 1_555 1_555
C10A C9A 1_555 1_555
H13A C10A 1_555 1_555
C11A C10A 1_555 1_555
H14A C11A 1_555 1_555
C12A C7A 1_555 1_555
H15A C12A 1_555 1_555
C13A H16A 1_555 1_555
C14A C13A 1_555 1_555
H17A C14A 1_555 1_555
C15A C14A 1_555 1_555
H18A C15A 1_555 1_555
C16A C15A 1_555 1_555
H19A C16A 1_555 1_555
C17A C1A 1_555 1_555
H20A C17A 1_555 1_555
S1A Cu1 1_555 1_555
S2A C6A 1_555 1_555
S2F Cu2 1_555 1_555
S2G Cu2 1_555 1_555
Cu2F S2 1_555 1_555
Cu2F_2 S2A 1_555 1_555
Br1A Cu1 1_555 1_555
C2 S1 1_555 1_555
C7 S2 1_555 1_555
C11 C12 1_555 1_555
C16 C17 1_555 1_555
Cu2 Br1A 1_555 1_555
C1A S1A 1_555 1_555
C2A S1A 1_555 1_555
C7A S2A 1_555 1_555
C11A C12A 1_555 1_555
C16A C17A 1_555 1_555

#END
