
#######################################################################
#
#                 Cambridge Crystallographic Data Centre
#                                CCDC 
#
#######################################################################
#
# If this CIF has been generated from an entry in the Cambridge 
# Structural Database, then it will include bibliographic, chemical, 
# crystal, experimental, refinement or atomic coordinate data resulting 
# from the CCDC's data processing and validation procedures.
#
#######################################################################

data_ZEHROV
_symmetry_cell_setting           monoclinic
_symmetry_space_group_name_H-M   'C 2/c'
_symmetry_Int_Tables_number      15
_space_group_name_Hall           '-C 2yn'
loop_
_symmetry_equiv_pos_site_id
_symmetry_equiv_pos_as_xyz
1 x,y,z
2 -x,y,1/2-z
3 1/2+x,1/2+y,z
4 1/2-x,1/2+y,1/2-z
5 -x,-y,-z
6 x,-y,1/2+z
7 1/2-x,1/2-y,-z
8 1/2+x,1/2-y,1/2+z
_cell_length_a                   17.755(7)
_cell_length_b                   13.950(6)
_cell_length_c                   15.212(7)
_cell_angle_alpha                90
_cell_angle_beta                 109.898(10)
_cell_angle_gamma                90
_cell_volume                     3542.81
loop_
_atom_site_label
_atom_site_type_symbol
_atom_site_fract_x
_atom_site_fract_y
_atom_site_fract_z
C1 C 1.10343(16) 0.65015(18) 1.3752(2)
C2 C 1.11256(17) 0.7281(2) 1.4350(2)
H1 H 1.0843 0.7305 1.4779
C3 C 1.16322(18) 0.8020(2) 1.4313(2)
H2 H 1.1696 0.8557 1.4717
C4 C 1.20454(19) 0.7984(2) 1.3692(2)
H3 H 1.2394 0.8494 1.3673
C5 C 1.19550(18) 0.7210(2) 1.3098(2)
H4 H 1.2241 0.7188 1.2673
C6 C 1.14466(17) 0.64678(19) 1.3125(2)
H5 H 1.138 0.5936 1.2715
C7 C 1.09442(16) 0.4900(2) 1.48436(19)
H6 H 1.0627 0.4334 1.4901
H7 H 1.1011 0.5313 1.5394
C8 C 1.17641(16) 0.4557(2) 1.4884(2)
H8 H 1.2114 0.5115 1.4904
H9 H 1.1716 0.4179 1.4317
C9 C 1.21363(17) 0.3936(2) 1.5754(2)
H10 H 1.1754 0.3421 1.5759
H11 H 1.2217 0.4337 1.6317
C10 C 1.29375(18) 0.3480(2) 1.5818(3)
H12 H 1.3065 0.2967 1.6296
H13 H 1.2882 0.3179 1.521
C11 C 1.36290(16) 0.4187(2) 1.6067(2)
H14 H 1.3693 0.4499 1.6673
H15 H 1.3524 0.4691 1.5581
C12 C 1.52564(16) 0.4447(2) 1.62823(18)
C13 C 1.60066(18) 0.4168(2) 1.6264(2)
H16 H 1.611 0.3513 1.6179
C14 C 1.65977(18) 0.4847(2) 1.6370(2)
H17 H 1.711 0.4653 1.6368
C15 C 1.64515(19) 0.5805(2) 1.6478(2)
H18 H 1.6861 0.6267 1.6548
C16 C 1.5711(2) 0.6086(2) 1.6484(2)
H19 H 1.5606 0.6745 1.6548
C17 C 1.51146(18) 0.5404(2) 1.6397(2)
H20 H 1.4608 0.56 1.6417
Cu1 Cu 1.00000 0.45789(3) 1.25000
Cu2 Cu 1.00000 0.24220(4) 1.25000
I1 I 1.109590(11) 0.350420(12) 1.217410(13)
S1 S 1.03648(4) 0.55638(5) 1.37955(5)
S2 S 1.45295(5) 0.35297(5) 1.61409(5)
C1A C 0.89657(16) 0.65015(18) 1.1248(2)
C2A C 0.88744(17) 0.7281(2) 1.0650(2)
H1A H 0.9157 0.7305 1.0221
C3A C 0.83678(18) 0.8020(2) 1.0687(2)
H2A H 0.8304 0.8557 1.0283
C4A C 0.79546(19) 0.7984(2) 1.1308(2)
H3A H 0.7606 0.8494 1.1327
C5A C 0.80450(18) 0.7210(2) 1.1902(2)
H4A H 0.7759 0.7188 1.2327
C6A C 0.85534(17) 0.64678(19) 1.1875(2)
H5A H 0.862 0.5936 1.2285
C7A C 0.90558(16) 0.4900(2) 1.01564(19)
H6A H 0.9373 0.4334 1.0099
H7A H 0.8989 0.5313 0.9606
C8A C 0.82359(16) 0.4557(2) 1.0116(2)
H8A H 0.7886 0.5115 1.0096
H9A H 0.8284 0.4179 1.0683
C9A C 0.78637(17) 0.3936(2) 0.9246(2)
H10A H 0.8246 0.3421 0.9241
H11A H 0.7783 0.4337 0.8683
C10A C 0.70625(18) 0.3480(2) 0.9182(3)
H12A H 0.6935 0.2967 0.8704
H13A H 0.7118 0.3179 0.979
C11A C 0.63710(16) 0.4187(2) 0.8933(2)
H14A H 0.6307 0.4499 0.8327
H15A H 0.6476 0.4691 0.9419
C12A C 0.47436(16) 0.4447(2) 0.87177(18)
C13A C 0.39934(18) 0.4168(2) 0.8736(2)
H16A H 0.389 0.3513 0.8821
C14A C 0.34023(18) 0.4847(2) 0.8630(2)
H17A H 0.289 0.4653 0.8632
C15A C 0.35485(19) 0.5805(2) 0.8522(2)
H18A H 0.3139 0.6267 0.8452
C16A C 0.4289(2) 0.6086(2) 0.8516(2)
H19A H 0.4394 0.6745 0.8452
C17A C 0.48854(18) 0.5404(2) 0.8603(2)
H20A H 0.5392 0.56 0.8583
Cu2F Cu 1.50000 0.25780(4) 1.75000
Cu2F_2 Cu 0.50000 0.25780(4) 0.75000
I1A I 0.890410(11) 0.350420(12) 1.282590(13)
S1A S 0.96352(4) 0.55638(5) 1.12045(5)
S2A S 0.54705(5) 0.35297(5) 0.88591(5)
S2G S 0.95295(5) 0.14703(5) 1.11409(5)
S2F S 1.04705(5) 0.14703(5) 1.38591(5)
loop_
_geom_bond_atom_site_label_1
_geom_bond_atom_site_label_2
_geom_bond_site_symmetry_1
_geom_bond_site_symmetry_2
C1 C2 1_555 1_555
C2 H1 1_555 1_555
C3 C2 1_555 1_555
H2 C3 1_555 1_555
C4 C3 1_555 1_555
H3 C4 1_555 1_555
C5 C4 1_555 1_555
H4 C5 1_555 1_555
C6 C1 1_555 1_555
H5 C6 1_555 1_555
C7 H6 1_555 1_555
H7 C7 1_555 1_555
C8 C7 1_555 1_555
H8 C8 1_555 1_555
H9 C8 1_555 1_555
C9 C8 1_555 1_555
H10 C9 1_555 1_555
H11 C9 1_555 1_555
C10 C9 1_555 1_555
H12 C10 1_555 1_555
H13 C10 1_555 1_555
C11 C10 1_555 1_555
H14 C11 1_555 1_555
H15 C11 1_555 1_555
C12 C13 1_555 1_555
C13 H16 1_555 1_555
C14 C13 1_555 1_555
H17 C14 1_555 1_555
C15 C14 1_555 1_555
H18 C15 1_555 1_555
C16 C15 1_555 1_555
H19 C16 1_555 1_555
C17 C12 1_555 1_555
H20 C17 1_555 1_555
Cu1 I1 1_555 1_555
Cu2 I1 1_555 1_555
S1 C1 1_555 1_555
S2 C11 1_555 1_555
C1A C2A 1_555 1_555
C2A H1A 1_555 1_555
C3A C2A 1_555 1_555
H2A C3A 1_555 1_555
C4A C3A 1_555 1_555
H3A C4A 1_555 1_555
C5A C4A 1_555 1_555
H4A C5A 1_555 1_555
C6A C1A 1_555 1_555
H5A C6A 1_555 1_555
C7A H6A 1_555 1_555
H7A C7A 1_555 1_555
C8A C7A 1_555 1_555
H8A C8A 1_555 1_555
H9A C8A 1_555 1_555
C9A C8A 1_555 1_555
H10A C9A 1_555 1_555
H11A C9A 1_555 1_555
C10A C9A 1_555 1_555
H12A C10A 1_555 1_555
H13A C10A 1_555 1_555
C11A C10A 1_555 1_555
H14A C11A 1_555 1_555
H15A C11A 1_555 1_555
C12A C13A 1_555 1_555
C13A H16A 1_555 1_555
C14A C13A 1_555 1_555
H17A C14A 1_555 1_555
C15A C14A 1_555 1_555
H18A C15A 1_555 1_555
C16A C15A 1_555 1_555
H19A C16A 1_555 1_555
C17A C12A 1_555 1_555
H20A C17A 1_555 1_555
Cu2F S2 1_555 1_555
Cu2F_2 S2A 1_555 1_555
I1A Cu1 1_555 1_555
S1A Cu1 1_555 1_555
S2A C11A 1_555 1_555
S2G Cu2 1_555 1_555
S2F Cu2 1_555 1_555
C5 C6 1_555 1_555
C7 S1 1_555 1_555
C12 S2 1_555 1_555
C16 C17 1_555 1_555
Cu1 S1 1_555 1_555
Cu2 I1A 1_555 1_555
C1A S1A 1_555 1_555
C5A C6A 1_555 1_555
C7A S1A 1_555 1_555
C12A S2A 1_555 1_555
C16A C17A 1_555 1_555

#END
