
#######################################################################
#
#                 Cambridge Crystallographic Data Centre
#                                CCDC 
#
#######################################################################
#
# If this CIF has been generated from an entry in the Cambridge 
# Structural Database, then it will include bibliographic, chemical, 
# crystal, experimental, refinement or atomic coordinate data resulting 
# from the CCDC's data processing and validation procedures.
#
#######################################################################

data_ZEHRAH
_symmetry_cell_setting           monoclinic
_symmetry_space_group_name_H-M   'P 21/c'
_symmetry_Int_Tables_number      14
_space_group_name_Hall           '-P 2ybc'
loop_
_symmetry_equiv_pos_site_id
_symmetry_equiv_pos_as_xyz
1 x,y,z
2 -x,1/2+y,1/2-z
3 -x,-y,-z
4 x,1/2-y,1/2+z
_cell_length_a                   12.595(2)
_cell_length_b                   13.694(5)
_cell_length_c                   22.386(4)
_cell_angle_alpha                90
_cell_angle_beta                 94.63(2)
_cell_angle_gamma                90
_cell_volume                     3848.45
loop_
_atom_site_label
_atom_site_type_symbol
_atom_site_fract_x
_atom_site_fract_y
_atom_site_fract_z
C1 C 0.0536(5) 0.2704(5) -0.4360(3)
C2 C -0.0188(7) 0.2394(7) -0.4811(4)
H1 H -0.0891 0.2605 -0.482
C3 C 0.0118(8) 0.1771(7) -0.5251(4)
H2 H -0.0362 0.1594 -0.557
C4 C 0.1139(9) 0.1416(8) -0.5211(5)
H3 H 0.134 0.097 -0.5494
C5 C 0.1853(9) 0.1701(8) -0.4769(6)
H4 H 0.2546 0.1464 -0.4755
C6 C 0.1569(6) 0.2346(6) -0.4332(4)
H5 H 0.2065 0.2536 -0.4024
C7 C -0.0072(5) 0.4633(5) -0.4219(3)
H6 H 0.0568 0.4835 -0.4399
H7 H -0.0615 0.4496 -0.4541
C8 C -0.0448(5) 0.5460(5) -0.3839(3)
H8 H -0.0587 0.6022 -0.4097
H9 H -0.112 0.5268 -0.3691
C9 C 0.0292(5) 0.5774(5) -0.3311(3)
H10 H 0.0489 0.5203 -0.3071
H11 H -0.0091 0.6213 -0.3065
C10 C -0.3141(5) 0.6235(4) -0.2880(3)
C11 C -0.3344(6) 0.6651(6) -0.3435(4)
H12 H -0.3893 0.641 -0.3697
C12 C -0.2736(8) 0.7427(7) -0.3607(5)
H13 H -0.2856 0.7694 -0.3988
C13 C -0.1950(7) 0.7799(6) -0.3207(5)
H14 H -0.1557 0.8338 -0.3312
C14 C -0.1747(7) 0.7378(6) -0.2654(5)
H15 H -0.1198 0.7616 -0.2391
C15 C -0.2352(6) 0.6606(5) -0.2486(3)
H16 H -0.2227 0.6335 -0.2106
C16 C -0.4107(5) 0.5378(5) -0.1912(3)
H17 H -0.3528 0.5047 -0.1682
H18 H -0.4084 0.6064 -0.1805
C17 C -0.5175(5) 0.4935(4) -0.1774(3)
H19 H -0.5737 0.5233 -0.2035
H20 H -0.5168 0.4242 -0.1864
C18 C -0.5429(5) 0.5072(4) -0.1124(3)
H21 H -0.4901 0.4734 -0.0861
H22 H -0.612 0.4791 -0.1068
C19 C -0.5971(5) 0.6380(4) -0.0216(2)
C20 C -0.5553(6) 0.7054(5) 0.0195(3)
H23 H -0.4965 0.7425 0.0111
C21 C -0.6007(7) 0.7182(5) 0.0733(3)
H24 H -0.5733 0.7648 0.1006
C22 C -0.6847(6) 0.6629(6) 0.0863(3)
H25 H -0.7146 0.6717 0.1225
C23 C -0.7265(6) 0.5937(6) 0.0463(3)
H26 H -0.7835 0.5553 0.056
C24 C -0.6834(6) 0.5810(5) -0.0088(3)
H27 H -0.712 0.5354 -0.0364
C25 C 0.2413(5) 0.5410(4) -0.3612(3)
C26 C 0.2684(5) 0.4734(5) -0.3169(3)
H28 H 0.2372 0.4767 -0.2807
C27 C 0.3413(6) 0.4010(6) -0.3260(4)
H29 H 0.3581 0.3547 -0.2963
C28 C 0.3893(6) 0.3975(7) -0.3793(5)
H30 H 0.4391 0.3491 -0.3854
C29 C 0.3633(7) 0.4656(8) -0.4232(5)
H31 H 0.3965 0.4634 -0.4588
C30 C 0.2882(6) 0.5374(6) -0.4151(4)
H32 H 0.2696 0.5823 -0.4453
Cu1 Cu -0.13498(6) 0.30503(6) -0.33968(4)
Cu2 Cu -0.29949(6) 0.38442(5) -0.28610(3)
Cu3 Cu -0.32582(6) 0.21354(6) -0.34599(3)
Cu4 Cu -0.20567(6) 0.21648(6) -0.23907(4)
I1 I -0.30019(3) 0.38066(3) -0.406890(16)
I2 I -0.10829(3) 0.39078(3) -0.226840(17)
I3 I -0.14483(4) 0.11107(3) -0.332780(18)
I4 I -0.41558(3) 0.24063(3) -0.243260(15)
S1 S 0.02038(12) 0.35276(12) -0.37858(7)
S2 S -0.39665(11) 0.52354(10) -0.27115(6)
S3 S -0.54341(12) 0.63631(10) -0.09276(6)
S4 S 0.15048(12) 0.63810(10) -0.35046(7)
Cu3A Cu -0.67418(6) 0.71354(6) -0.15401(3)
Cu4A Cu 0.20567(6) 0.71648(6) -0.26093(4)
S3A S -0.45659(12) 0.13631(10) -0.40724(6)
S4A S -0.15048(12) 0.13810(10) -0.14954(7)
loop_
_geom_bond_atom_site_label_1
_geom_bond_atom_site_label_2
_geom_bond_site_symmetry_1
_geom_bond_site_symmetry_2
C1 C2 1_555 1_555
C2 H1 1_555 1_555
C3 C2 1_555 1_555
H2 C3 1_555 1_555
C4 C3 1_555 1_555
H3 C4 1_555 1_555
C5 C4 1_555 1_555
H4 C5 1_555 1_555
C6 C1 1_555 1_555
H5 C6 1_555 1_555
C7 H6 1_555 1_555
H7 C7 1_555 1_555
C8 C7 1_555 1_555
H8 C8 1_555 1_555
H9 C8 1_555 1_555
C9 C8 1_555 1_555
H10 C9 1_555 1_555
H11 C9 1_555 1_555
C10 C11 1_555 1_555
C11 H12 1_555 1_555
C12 C11 1_555 1_555
H13 C12 1_555 1_555
C13 C12 1_555 1_555
H14 C13 1_555 1_555
C14 C13 1_555 1_555
H15 C14 1_555 1_555
C15 C10 1_555 1_555
H16 C15 1_555 1_555
C16 H17 1_555 1_555
H18 C16 1_555 1_555
C17 C16 1_555 1_555
H19 C17 1_555 1_555
H20 C17 1_555 1_555
C18 C17 1_555 1_555
H21 C18 1_555 1_555
H22 C18 1_555 1_555
C19 C20 1_555 1_555
C20 H23 1_555 1_555
C21 C20 1_555 1_555
H24 C21 1_555 1_555
C22 C21 1_555 1_555
H25 C22 1_555 1_555
C23 C22 1_555 1_555
H26 C23 1_555 1_555
C24 C19 1_555 1_555
H27 C24 1_555 1_555
C25 C26 1_555 1_555
C26 H28 1_555 1_555
C27 C26 1_555 1_555
H29 C27 1_555 1_555
C28 C27 1_555 1_555
H30 C28 1_555 1_555
C29 C28 1_555 1_555
H31 C29 1_555 1_555
C30 C25 1_555 1_555
H32 C30 1_555 1_555
Cu1 Cu2 1_555 1_555
Cu2 Cu3 1_555 1_555
Cu3 Cu1 1_555 1_555
Cu4 Cu1 1_555 1_555
I1 Cu1 1_555 1_555
I2 Cu1 1_555 1_555
I3 Cu1 1_555 1_555
I4 Cu2 1_555 1_555
S1 C1 1_555 1_555
S2 C10 1_555 1_555
S3 C18 1_555 1_555
S4 C9 1_555 1_555
Cu3A S3 1_555 1_555
Cu4A S4 1_555 1_555
S3A Cu3 1_555 1_555
S4A Cu4 1_555 1_555
C5 C6 1_555 1_555
C7 S1 1_555 1_555
C14 C15 1_555 1_555
C16 S2 1_555 1_555
C19 S3 1_555 1_555
C23 C24 1_555 1_555
C25 S4 1_555 1_555
C29 C30 1_555 1_555
Cu1 S1 1_555 1_555
Cu2 Cu4 1_555 1_555
Cu2 I1 1_555 1_555
Cu2 I2 1_555 1_555
Cu2 S2 1_555 1_555
Cu3 Cu4 1_555 1_555
Cu3 I1 1_555 1_555
Cu3 I3 1_555 1_555
Cu3 I4 1_555 1_555
Cu4 I2 1_555 1_555
Cu4 I3 1_555 1_555
Cu4 I4 1_555 1_555

#END
