
#######################################################################
#
#                 Cambridge Crystallographic Data Centre
#                                CCDC 
#
#######################################################################
#
# If this CIF has been generated from an entry in the Cambridge 
# Structural Database, then it will include bibliographic, chemical, 
# crystal, experimental, refinement or atomic coordinate data resulting 
# from the CCDC's data processing and validation procedures.
#
#######################################################################

data_ZEHRIP
_symmetry_cell_setting           monoclinic
_symmetry_space_group_name_H-M   'C 2/c'
_symmetry_Int_Tables_number      15
_space_group_name_Hall           '-C 2yn'
loop_
_symmetry_equiv_pos_site_id
_symmetry_equiv_pos_as_xyz
1 x,y,z
2 -x,y,1/2-z
3 1/2+x,1/2+y,z
4 1/2-x,1/2+y,1/2-z
5 -x,-y,-z
6 x,-y,1/2+z
7 1/2-x,1/2-y,-z
8 1/2+x,1/2-y,1/2+z
_cell_length_a                   29.557(6)
_cell_length_b                   11.658(2)
_cell_length_c                   19.257(4)
_cell_angle_alpha                90
_cell_angle_beta                 119.67(3)
_cell_angle_gamma                90
_cell_volume                     5765.52
loop_
_atom_site_label
_atom_site_type_symbol
_atom_site_fract_x
_atom_site_fract_y
_atom_site_fract_z
C18 C 0.2578(9) 0.4075(15) 0.8325(10)
C19 C 0.2050(8) 0.4100(16) 0.7767(13)
H21 H 0.1823 0.4589 0.7848
C20 C 0.1854(6) 0.3408(18) 0.7092(11)
H22 H 0.1493 0.3425 0.671
C21 C 0.2186(7) 0.2692(14) 0.6974(9)
H23 H 0.2052 0.2219 0.6512
C22 C 0.2714(7) 0.2668(18) 0.7531(13)
H24 H 0.2941 0.2178 0.7451
C23 C 0.2910(6) 0.336(2) 0.8207(12)
H25 H 0.3272 0.3343 0.8588
C24 C 0.2756(12) 0.570(3) 0.9385(18)
H26 H 0.2984 0.5809 0.9968
H27 H 0.2852 0.6324 0.9131
C25 C 0.2224(18) 0.604(4) 0.924(3)
H28 H 0.2073 0.5401 0.9396
H29 H 0.1992 0.6182 0.8658
C26 C 0.2265(14) 0.735(4) 0.982(3)
H30 H 0.2472 0.7865 0.9668
H31 H 0.2514 0.7102 1.0366
C27 C 0.3141(13) 0.655(3) 0.998(2)
H32 H 0.3387 0.6147 1.0485
H33 H 0.3342 0.6929 0.9765
S1 S 0.2961(2) 0.4618(6) 0.9197(3)
C18F C 0.2422(9) 1.0925(15) 1.1675(10)
C19F C 0.2950(8) 1.0900(16) 1.2233(13)
H21F H 0.3177 1.0411 1.2152
C20F C 0.3146(6) 1.1592(18) 1.2908(11)
H22F H 0.3507 1.1575 1.329
C21F C 0.2814(7) 1.2308(14) 1.3026(9)
H23F H 0.2948 1.2781 1.3488
C22F C 0.2286(7) 1.2332(18) 1.2469(13)
H24F H 0.2059 1.2822 1.2549
C23F C 0.2090(6) 1.164(2) 1.1793(12)
H25F H 0.1728 1.1657 1.1412
C24F C 0.2244(12) 0.930(3) 1.0615(18)
H26F H 0.2016 0.9191 1.0032
H27F H 0.2148 0.8676 1.0869
C25F C 0.2776(18) 0.896(4) 1.076(3)
H28F H 0.2927 0.9599 1.0604
H29F H 0.3008 0.8818 1.1342
C26F C 0.2735(14) 0.765(4) 1.018(3)
C27F C 0.1859(13) 0.845(3) 1.002(2)
H32F H 0.1613 0.8853 0.9515
H33F H 0.1658 0.8071 1.0235
S1F S 0.2039(2) 1.0382(6) 1.0803(3)
C1 C 0.5662(4) 1.0597(11) 0.9615(7)
C2 C 0.5584(6) 1.1311(12) 0.8985(8)
H1 H 0.5569 1.0987 0.8521
C3 C 0.5529(6) 1.2458(13) 0.9024(9)
H2 H 0.5499 1.2929 0.86
C4 C 0.5515(9) 1.2957(14) 0.9655(12)
H3 H 0.5465 1.376 0.9669
C5 C 0.5577(10) 1.2235(14) 1.0286(12)
H4 H 0.5566 1.2552 1.0732
C6 C 0.5654(7) 1.1059(12) 1.0257(9)
H5 H 0.57 1.0581 1.0687
C7 C 0.6409(6) 0.8970(13) 0.9756(8)
H6 H 0.6483 0.8154 0.9707
H7 H 0.6431 0.9402 0.933
C8 C 0.6829(4) 0.9420(13) 1.0571(8)
H8 H 0.6775 0.9105 1.1002
H9 H 0.6814 1.0268 1.0586
C9 C 0.7361(6) 0.9033(15) 1.0688(8)
H10 H 0.7367 0.8186 1.0656
H11 H 0.741 0.9352 1.0252
C10 C 0.7811(4) 0.9427(12) 1.1494(7)
H12 H 0.7759 0.9132 1.1932
H13 H 0.7818 1.0275 1.152
C11 C 0.8328(6) 0.8983(12) 1.1597(9)
H14 H 0.8419 0.9438 1.125
H15 H 0.828 0.8177 1.1412
C12 C 0.8971(5) 1.0551(10) 1.2863(7)
C13 C 0.8900(5) 1.1381(11) 1.2318(8)
H16 H 0.8785 1.1184 1.1777
C14 C 0.8996(7) 1.2510(14) 1.2563(11)
H17 H 0.8951 1.3088 1.2186
C15 C 0.9156(10) 1.2818(17) 1.3339(12)
H18 H 0.9221 1.3598 1.3502
C16 C 0.9220(11) 1.1967(16) 1.3871(13)
H19 H 0.9331 1.2155 1.4412
C17 C 0.9122(9) 1.0836(14) 1.3622(10)
H20 H 0.9162 1.0253 1.3994
Cu1 Cu 0.52730(5) 0.83343(12) 0.83237(8)
Cu2 Cu 0.45683(5) 0.66863(13) 0.75554(9)
I1 I 0.57090(3) 0.89640(6) 0.74400(4)
I2 I 0.54665(3) 0.60777(6) 0.88005(4)
S2 S 0.88724(11) 0.9049(2) 1.26268(18)
S3 S 0.57432(11) 0.9087(2) 0.95923(17)
C1G C 0.0662(4) 0.4403(11) 0.4615(7)
C2G C 0.0584(6) 0.3689(12) 0.3985(8)
H1G H 0.0569 0.4013 0.3521
C3G C 0.0529(6) 0.2542(13) 0.4024(9)
H2G H 0.0499 0.2071 0.36
C4G C 0.0515(9) 0.2043(14) 0.4655(12)
H3G H 0.0465 0.124 0.4669
C5G C 0.0577(10) 0.2765(14) 0.5286(12)
H4G H 0.0566 0.2448 0.5732
C6G C 0.0654(7) 0.3941(12) 0.5257(9)
H5G H 0.07 0.4419 0.5687
C7G C 0.1409(6) 0.6030(13) 0.4756(8)
H6G H 0.1483 0.6846 0.4707
H7G H 0.1431 0.5598 0.433
C8G C 0.1829(4) 0.5580(13) 0.5571(8)
H8G H 0.1775 0.5895 0.6002
H9G H 0.1814 0.4732 0.5586
C9G C 0.2361(6) 0.5967(15) 0.5688(8)
H10G H 0.2367 0.6814 0.5656
H11G H 0.241 0.5648 0.5252
C10G C 0.2811(4) 0.5573(12) 0.6494(7)
H12G H 0.2759 0.5868 0.6932
H13G H 0.2818 0.4725 0.652
C11G C 0.3328(6) 0.6017(12) 0.6597(9)
H14G H 0.3419 0.5562 0.625
H15G H 0.328 0.6823 0.6412
C12G C 0.3971(5) 0.4449(10) 0.7863(7)
C13G C 0.3900(5) 0.3619(11) 0.7318(8)
H16G H 0.3785 0.3816 0.6777
C14G C 0.3996(7) 0.2490(14) 0.7563(11)
H17G H 0.3951 0.1912 0.7186
C15G C 0.4156(10) 0.2182(17) 0.8339(12)
H18G H 0.4221 0.1402 0.8502
C16G C 0.4220(11) 0.3033(16) 0.8871(13)
H19G H 0.4331 0.2845 0.9412
C17G C 0.4122(9) 0.4164(14) 0.8622(10)
H20G H 0.4162 0.4747 0.8994
Cu1A Cu 0.47270(5) 0.83343(12) 0.66763(8)
Cu1G Cu 0.02730(5) 0.66657(12) 0.33237(8)
Cu2G Cu 0.95683(5) 0.83137(13) 1.25554(9)
Cu2A Cu 0.54317(5) 0.66863(13) 0.74446(9)
I1A I 0.42910(3) 0.89640(6) 0.75600(4)
I2A I 0.45335(3) 0.60777(6) 0.61995(4)
S2G S 0.38724(11) 0.5951(2) 0.76268(18)
S2F S 0.61276(11) 0.5951(2) 0.73732(18)
S3G S 0.07432(11) 0.5913(2) 0.45923(17)
S3A S 0.42568(11) 0.9087(2) 0.54077(17)
loop_
_geom_bond_atom_site_label_1
_geom_bond_atom_site_label_2
_geom_bond_site_symmetry_1
_geom_bond_site_symmetry_2
C1 C2 1_555 1_555
C2 H1 1_555 1_555
C3 C2 1_555 1_555
H2 C3 1_555 1_555
C4 C3 1_555 1_555
H3 C4 1_555 1_555
C5 C4 1_555 1_555
H4 C5 1_555 1_555
C6 C1 1_555 1_555
H5 C6 1_555 1_555
C7 H6 1_555 1_555
H7 C7 1_555 1_555
C8 C7 1_555 1_555
H8 C8 1_555 1_555
H9 C8 1_555 1_555
C9 C8 1_555 1_555
H10 C9 1_555 1_555
H11 C9 1_555 1_555
C10 C9 1_555 1_555
H12 C10 1_555 1_555
H13 C10 1_555 1_555
C11 C10 1_555 1_555
H14 C11 1_555 1_555
H15 C11 1_555 1_555
C12 C13 1_555 1_555
C13 H16 1_555 1_555
C14 C13 1_555 1_555
H17 C14 1_555 1_555
C15 C14 1_555 1_555
H18 C15 1_555 1_555
C16 C15 1_555 1_555
H19 C16 1_555 1_555
C17 C12 1_555 1_555
H20 C17 1_555 1_555
C18 C19 1_555 1_555
C19 H21 1_555 1_555
C20 C19 1_555 1_555
H22 C20 1_555 1_555
C21 C20 1_555 1_555
H23 C21 1_555 1_555
C22 C21 1_555 1_555
H24 C22 1_555 1_555
C23 C18 1_555 1_555
H25 C23 1_555 1_555
C24 H26 1_555 1_555
H26 C27 1_555 1_555
H27 C24 1_555 1_555
C25 C24 1_555 1_555
H28 C25 1_555 1_555
H29 C25 1_555 1_555
C26 C25 1_555 1_555
H30 C26 1_555 1_555
H31 C26 1_555 1_555
C27 C24 1_555 1_555
H32 C27 1_555 1_555
H33 C27 1_555 1_555
Cu1 Cu2 1_555 1_555
Cu2 I2 1_555 1_555
I1 Cu1 1_555 1_555
I2 Cu1 1_555 1_555
S1 C18 1_555 1_555
S2 C11 1_555 1_555
S3 C1 1_555 1_555
C1G C2G 1_555 1_555
C2G H1G 1_555 1_555
C3G C2G 1_555 1_555
H2G C3G 1_555 1_555
C4G C3G 1_555 1_555
H3G C4G 1_555 1_555
C5G C4G 1_555 1_555
H4G C5G 1_555 1_555
C6G C1G 1_555 1_555
H5G C6G 1_555 1_555
C7G H6G 1_555 1_555
H7G C7G 1_555 1_555
C8G C7G 1_555 1_555
H8G C8G 1_555 1_555
H9G C8G 1_555 1_555
C9G C8G 1_555 1_555
H10G C9G 1_555 1_555
H11G C9G 1_555 1_555
C10G C9G 1_555 1_555
H12G C10G 1_555 1_555
H13G C10G 1_555 1_555
C11G C10G 1_555 1_555
H14G C11G 1_555 1_555
H15G C11G 1_555 1_555
C12G C13G 1_555 1_555
C13G H16G 1_555 1_555
C14G C13G 1_555 1_555
H17G C14G 1_555 1_555
C15G C14G 1_555 1_555
H18G C15G 1_555 1_555
C16G C15G 1_555 1_555
H19G C16G 1_555 1_555
C17G C12G 1_555 1_555
H20G C17G 1_555 1_555
C18F C19F 1_555 1_555
C19F H21F 1_555 1_555
C20F C19F 1_555 1_555
H22F C20F 1_555 1_555
C21F C20F 1_555 1_555
H23F C21F 1_555 1_555
C22F C21F 1_555 1_555
H24F C22F 1_555 1_555
C23F C18F 1_555 1_555
H25F C23F 1_555 1_555
C24F H26F 1_555 1_555
H26F C27F 1_555 1_555
H27F C24F 1_555 1_555
C25F C24F 1_555 1_555
H28F C25F 1_555 1_555
H29F C25F 1_555 1_555
C26F C26 1_555 1_555
C27F C26 1_555 1_555
H32F C27F 1_555 1_555
H33F C27F 1_555 1_555
Cu1A Cu1 1_555 1_555
Cu1G S3G 1_555 1_555
Cu2G S2 1_555 1_555
Cu2A Cu1 1_555 1_555
I1A Cu1 1_555 1_555
I2A Cu2 1_555 1_555
S1F C18F 1_555 1_555
S2G Cu2 1_555 1_555
S2F Cu2A 1_555 1_555
S3G C1G 1_555 1_555
S3A Cu1A 1_555 1_555
C5 C6 1_555 1_555
C7 S3 1_555 1_555
C12 S2 1_555 1_555
C16 C17 1_555 1_555
C22 C23 1_555 1_555
C24 S1 1_555 1_555
H30 C26F 1_555 1_555
H31 C26F 1_555 1_555
C27 C26F 1_555 1_555
Cu1 S3 1_555 1_555
Cu2 Cu1A 1_555 1_555
Cu2 Cu2A 1_555 1_555
Cu2 I1A 1_555 1_555
I1 Cu1A 1_555 1_555
I1 Cu2A 1_555 1_555
I2 Cu2A 1_555 1_555
C5G C6G 1_555 1_555
C7G S3G 1_555 1_555
C11G S2G 1_555 1_555
C12G S2G 1_555 1_555
C16G C17G 1_555 1_555
C22F C23F 1_555 1_555
C24F C27F 1_555 1_555
C24F S1F 1_555 1_555
C25F C26F 1_555 1_555
Cu1A Cu2A 1_555 1_555
Cu1A I1A 1_555 1_555
Cu1A I2A 1_555 1_555
Cu2A I2A 1_555 1_555

#END
