
#######################################################################
#
#                 Cambridge Crystallographic Data Centre
#                                CCDC 
#
#######################################################################
#
# If this CIF has been generated from an entry in the Cambridge 
# Structural Database, then it will include bibliographic, chemical, 
# crystal, experimental, refinement or atomic coordinate data resulting 
# from the CCDC's data processing and validation procedures.
#
#######################################################################

data_ZEHSEM
_symmetry_cell_setting           triclinic
_symmetry_space_group_name_H-M   'P -1'
_symmetry_Int_Tables_number      2
_space_group_name_Hall           '-P 1'
loop_
_symmetry_equiv_pos_site_id
_symmetry_equiv_pos_as_xyz
1 x,y,z
2 -x,-y,-z
_cell_length_a                   9.467(1)
_cell_length_b                   9.609(1)
_cell_length_c                   12.326(2)
_cell_angle_alpha                76.22(2)
_cell_angle_beta                 67.90(2)
_cell_angle_gamma                85.26(2)
_cell_volume                     1008.96
loop_
_atom_site_label
_atom_site_type_symbol
_atom_site_fract_x
_atom_site_fract_y
_atom_site_fract_z
C1 C 0.4684(4) 0.4474(3) 0.8130(3)
C2 C 0.6149(5) 0.4859(4) 0.7945(4)
H1 H 0.6531 0.4577 0.8557
C3 C 0.7036(5) 0.5670(4) 0.6838(4)
H2 H 0.8026 0.5912 0.6711
C4 C 0.6504(5) 0.6129(4) 0.5920(4)
C5 C 0.5026(5) 0.5766(4) 0.6139(3)
H3 H 0.4628 0.6082 0.5538
C6 C 0.4129(4) 0.4944(3) 0.7229(3)
H4 H 0.3138 0.4706 0.7354
C7 C 0.7483(6) 0.6993(5) 0.4707(4)
H5 H 0.7759 0.6409 0.4127
H6 H 0.8389 0.731 0.4755
H7 H 0.6924 0.781 0.4468
C8 C 0.4063(4) 0.1608(3) 0.9325(3)
H8 H 0.5164 0.1523 0.9047
H9 H 0.3645 0.0933 1.0093
C9 C 0.3526(5) 0.1165(4) 0.8439(4)
H10 H 0.2439 0.133 0.8666
H11 H 0.4033 0.176 0.7645
C10 C 0.3838(5) -0.0364(4) 0.8391(4)
H12 H 0.3323 -0.095 0.9188
H13 H 0.4924 -0.0523 0.8183
C11 C 0.3345(5) -0.0876(4) 0.7505(4)
H14 H 0.2937 -0.0069 0.7075
H15 H 0.4237 -0.1209 0.6921
C12 C 0.2161(4) -0.2067(3) 0.8083(3)
H16 H 0.2548 -0.2855 0.8547
H17 H 0.2016 -0.2414 0.7454
C13 C -0.0441(4) -0.0516(3) 0.8002(3)
C14 C -0.0663(4) 0.0939(3) 0.7935(3)
H18 H -0.0368 0.1382 0.8411
C15 C -0.1316(5) 0.1723(4) 0.7166(4)
H19 H -0.1457 0.27 0.7131
C16 C -0.1768(5) 0.1124(4) 0.6450(4)
C17 C -0.1538(6) -0.0343(4) 0.6526(4)
H20 H -0.1823 -0.0782 0.6043
C18 C -0.0903(5) -0.1147(4) 0.7299(4)
H21 H -0.0782 -0.2128 0.7349
C19 C -0.2457(7) 0.1996(5) 0.5576(5)
H22 H -0.3166 0.2671 0.5951
H23 H -0.2979 0.1368 0.5349
H24 H -0.1663 0.2503 0.4874
S1 S 0.35633(11) 0.34114(9) 0.95663(8)
S2 S 0.03348(11) -0.15381(8) 0.90539(8)
Cu1 Cu 0.10074(5) 0.36884(4) 1.00168(4)
Br1 Br -0.01833(4) 0.46700(3) 0.85223(3)
S2A S -0.03348(11) 0.15381(8) 1.09461(8)
Cu1A Cu -0.10074(5) -0.36884(4) 0.99832(4)
Cu1A_2 Cu -0.10074(5) 0.63116(4) 0.99832(4)
Br1A Br 0.01833(4) 0.53300(3) 1.14777(3)
loop_
_geom_bond_atom_site_label_1
_geom_bond_atom_site_label_2
_geom_bond_site_symmetry_1
_geom_bond_site_symmetry_2
C1 C2 1_555 1_555
C2 H1 1_555 1_555
C3 C2 1_555 1_555
H2 C3 1_555 1_555
C4 C3 1_555 1_555
C5 C4 1_555 1_555
H3 C5 1_555 1_555
C6 C1 1_555 1_555
H4 C6 1_555 1_555
C7 C4 1_555 1_555
H5 C7 1_555 1_555
H6 C7 1_555 1_555
H7 C7 1_555 1_555
C8 H8 1_555 1_555
H9 C8 1_555 1_555
C9 C8 1_555 1_555
H10 C9 1_555 1_555
H11 C9 1_555 1_555
C10 C9 1_555 1_555
H12 C10 1_555 1_555
H13 C10 1_555 1_555
C11 C10 1_555 1_555
H14 C11 1_555 1_555
H15 C11 1_555 1_555
C12 C11 1_555 1_555
H16 C12 1_555 1_555
H17 C12 1_555 1_555
C13 C14 1_555 1_555
C14 H18 1_555 1_555
C15 C14 1_555 1_555
H19 C15 1_555 1_555
C16 C15 1_555 1_555
C17 C16 1_555 1_555
H20 C17 1_555 1_555
C18 C13 1_555 1_555
H21 C18 1_555 1_555
C19 C16 1_555 1_555
H22 C19 1_555 1_555
H23 C19 1_555 1_555
H24 C19 1_555 1_555
S1 C1 1_555 1_555
S2 C12 1_555 1_555
Cu1 S1 1_555 1_555
Br1 Cu1 1_555 1_555
S2A Cu1 1_555 1_555
Cu1A S2 1_555 1_555
Cu1A_2 Br1 1_555 1_555
Br1A Cu1 1_555 1_555
C5 C6 1_555 1_555
C8 S1 1_555 1_555
C13 S2 1_555 1_555
C17 C18 1_555 1_555
Cu1A_2 Br1A 1_555 1_555

#END
