
#######################################################################
#
#                 Cambridge Crystallographic Data Centre
#                                CCDC 
#
#######################################################################
#
# If this CIF has been generated from an entry in the Cambridge 
# Structural Database, then it will include bibliographic, chemical, 
# crystal, experimental, refinement or atomic coordinate data resulting 
# from the CCDC's data processing and validation procedures.
#
#######################################################################

data_ZEHSAI
_symmetry_cell_setting           monoclinic
_symmetry_space_group_name_H-M   'P 21/c'
_symmetry_Int_Tables_number      14
_space_group_name_Hall           '-P 2ybc'
loop_
_symmetry_equiv_pos_site_id
_symmetry_equiv_pos_as_xyz
1 x,y,z
2 -x,1/2+y,1/2-z
3 -x,-y,-z
4 x,1/2-y,1/2+z
_cell_length_a                   10.8493(9)
_cell_length_b                   9.2519(7)
_cell_length_c                   20.288(2)
_cell_angle_alpha                90
_cell_angle_beta                 97.23(1)
_cell_angle_gamma                90
_cell_volume                     2020.25
loop_
_atom_site_label
_atom_site_type_symbol
_atom_site_fract_x
_atom_site_fract_y
_atom_site_fract_z
C1 C 0.2492(4) 0.0583(4) 0.33870(17)
C2 C 0.2699(5) -0.0371(6) 0.2888(2)
H1 H 0.2041 -0.089 0.2664
C3 C 0.3880(6) -0.0551(7) 0.2726(2)
H2 H 0.4008 -0.12 0.2391
C4 C 0.4885(5) 0.0200(6) 0.3043(2)
C5 C 0.4667(5) 0.1147(6) 0.3543(3)
H3 H 0.5328 0.166 0.3768
C6 C 0.3485(5) 0.1343(5) 0.3715(2)
H4 H 0.3356 0.1986 0.4053
C7 C 0.6176(5) -0.0031(10) 0.2874(3)
H5 H 0.6649 -0.0571 0.3223
H6 H 0.6567 0.0888 0.2826
H7 H 0.6141 -0.0559 0.2464
C8 C 0.0556(4) 0.2617(5) 0.32660(18)
H8 H -0.034 0.2732 0.3225
H9 H 0.0918 0.3314 0.3592
C9 C 0.0987(4) 0.2973(5) 0.26008(17)
H10 H 0.1886 0.2907 0.2649
H11 H 0.0765 0.3967 0.249
C10 C 0.0459(4) 0.2009(5) 0.20182(17)
H12 H 0.0576 0.1001 0.2142
H13 H -0.0425 0.2184 0.1913
C11 C 0.1108(4) 0.2325(5) 0.14091(17)
H14 H 0.0921 0.3308 0.1264
H15 H 0.1999 0.2255 0.1532
C12 C 0.0725(4) 0.1306(5) 0.08382(18)
H16 H -0.0168 0.136 0.0721
H17 H 0.0931 0.0325 0.098
C13 C 0.3085(4) 0.1575(4) 0.04310(17)
C14 C 0.3572(4) 0.0235(5) 0.0634(2)
H18 H 0.3062 -0.0575 0.0615
C15 C 0.4818(5) 0.0117(5) 0.0864(2)
H19 H 0.5132 -0.0773 0.1019
C16 C 0.5612(4) 0.1280(5) 0.0871(2)
C17 C 0.5118(4) 0.2600(5) 0.0665(2)
H20 H 0.5639 0.34 0.067
C18 C 0.3871(4) 0.2762(5) 0.0450(2)
H21 H 0.3555 0.3666 0.0319
C19 C 0.6990(5) 0.1104(6) 0.1099(3)
H22 H 0.7308 0.197 0.1318
H23 H 0.7419 0.0926 0.072
H24 H 0.7117 0.0304 0.1401
S1 S 0.09486(10) 0.08018(11) 0.35787(4)
S2 S 0.14791(9) 0.17179(11) 0.01071(4)
Cu1 Cu 0.08112(5) 0.09890(6) 0.47284(2)
I1 I 0.16485(2) -0.13393(3) 0.534189(14)
S2C S 0.14791(9) 0.32821(11) 0.51071(4)
Cu1C Cu 0.08112(5) 0.40110(6) -0.02716(2)
Cu1B Cu -0.08112(5) -0.09890(6) 0.52716(2)
I1B I -0.16485(2) 0.13393(3) 0.465811(14)
loop_
_geom_bond_atom_site_label_1
_geom_bond_atom_site_label_2
_geom_bond_site_symmetry_1
_geom_bond_site_symmetry_2
C1 C2 1_555 1_555
C2 H1 1_555 1_555
C3 C2 1_555 1_555
H2 C3 1_555 1_555
C4 C3 1_555 1_555
C5 C4 1_555 1_555
H3 C5 1_555 1_555
C6 C1 1_555 1_555
H4 C6 1_555 1_555
C7 C4 1_555 1_555
H5 C7 1_555 1_555
H6 C7 1_555 1_555
H7 C7 1_555 1_555
C8 H8 1_555 1_555
H9 C8 1_555 1_555
C9 C8 1_555 1_555
H10 C9 1_555 1_555
H11 C9 1_555 1_555
C10 C9 1_555 1_555
H12 C10 1_555 1_555
H13 C10 1_555 1_555
C11 C10 1_555 1_555
H14 C11 1_555 1_555
H15 C11 1_555 1_555
C12 C11 1_555 1_555
H16 C12 1_555 1_555
H17 C12 1_555 1_555
C13 C14 1_555 1_555
C14 H18 1_555 1_555
C15 C14 1_555 1_555
H19 C15 1_555 1_555
C16 C15 1_555 1_555
C17 C16 1_555 1_555
H20 C17 1_555 1_555
C18 C13 1_555 1_555
H21 C18 1_555 1_555
C19 C16 1_555 1_555
H22 C19 1_555 1_555
H23 C19 1_555 1_555
H24 C19 1_555 1_555
S1 C1 1_555 1_555
S2 C12 1_555 1_555
Cu1 S1 1_555 1_555
I1 Cu1 1_555 1_555
S2C Cu1 1_555 1_555
Cu1C S2 1_555 1_555
Cu1B I1 1_555 1_555
I1B Cu1 1_555 1_555
C5 C6 1_555 1_555
C8 S1 1_555 1_555
C13 S2 1_555 1_555
C17 C18 1_555 1_555
Cu1B I1B 1_555 1_555

#END
