
#######################################################################
#
#                 Cambridge Crystallographic Data Centre
#                                CCDC 
#
#######################################################################
#
# If this CIF has been generated from an entry in the Cambridge 
# Structural Database, then it will include bibliographic, chemical, 
# crystal, experimental, refinement or atomic coordinate data resulting 
# from the CCDC's data processing and validation procedures.
#
#######################################################################

data_ZEJBUN
_symmetry_cell_setting           monoclinic
_symmetry_space_group_name_H-M   'P 21/n'
_symmetry_Int_Tables_number      14
_space_group_name_Hall           '-P 2yn'
loop_
_symmetry_equiv_pos_site_id
_symmetry_equiv_pos_as_xyz
1 x,y,z
2 1/2-x,1/2+y,1/2-z
3 -x,-y,-z
4 1/2+x,1/2-y,1/2+z
_cell_length_a                   10.9315(7)
_cell_length_b                   13.7732(8)
_cell_length_c                   11.0552(6)
_cell_angle_alpha                90
_cell_angle_beta                 95.750(3)
_cell_angle_gamma                90
_cell_volume                     1656.12
loop_
_atom_site_label
_atom_site_type_symbol
_atom_site_fract_x
_atom_site_fract_y
_atom_site_fract_z
Cu1 Cu 0.09214(3) 0.05494(2) 0.61880(3)
Cl1 Cl -0.09431(7) 0.10161(5) 0.51999(7)
Cl2 Cl 0.27038(9) 0.03152(8) 0.73783(9)
O1 O 0.1737(2) 0.36128(14) 0.3612(2)
O2 O 0.3281(2) 0.44812(15) 0.4793(2)
N1 N 0.1765(2) 0.14234(17) 0.5063(2)
N2 N 0.1371(3) 0.23150(17) 0.4887(2)
N3 N 0.2037(2) 0.27028(16) 0.4060(2)
N4 N 0.3815(2) 0.49612(18) 0.3884(2)
N5 N 0.4345(3) 0.44372(16) 0.3076(2)
N6 N 0.4997(2) 0.50430(17) 0.2494(2)
C1 C 0.2854(3) 0.2076(2) 0.3647(3)
C2 C 0.2681(3) 0.1236(2) 0.4320(3)
C3 C 0.3399(3) 0.0411(2) 0.4186(3)
H1 H 0.3299 -0.0153 0.4627
C4 C 0.4259(4) 0.0479(2) 0.3369(4)
H2 H 0.4773 -0.0047 0.3271
C5 C 0.4385(4) 0.1325(3) 0.2671(3)
H3 H 0.4968 0.1329 0.2114
C6 C 0.3693(3) 0.2135(2) 0.2778(3)
H4 H 0.3773 0.2687 0.2308
C7 C 0.4143(3) 0.5914(2) 0.3898(3)
C8 C 0.4914(3) 0.5960(2) 0.2976(3)
C9 C 0.3878(3) 0.6706(2) 0.4602(3)
H5 H 0.3350 0.6663 0.5209
C10 C 0.4443(4) 0.7553(2) 0.4343(3)
H6 H 0.4293 0.8107 0.4785
C11 C 0.5244(4) 0.7617(2) 0.3433(3)
H7 H 0.5617 0.8210 0.3304
C12 C 0.5500(3) 0.6840(2) 0.2724(3)
H8 H 0.6027 0.6889 0.2116
C13 C 0.2000(3) 0.4349(2) 0.4508(3)
H9 H 0.1633 0.4956 0.4211
H10 H 0.1632 0.4172 0.5240
Cu1B Cu -0.09214(3) -0.05494(2) 0.38120(3)
Cu1C Cu 0.59214(3) 0.44506(2) 0.11880(3)
Cl1B Cl 0.09431(7) -0.10161(5) 0.48001(7)
N6C N -0.0003(2) -0.00430(17) 0.7494(2)
O3 O 0.0902(6) 0.6317(4) 0.5276(5)
H11 H 0.027(3) 0.643(4) 0.571(5)
H12 H 0.135(7) 0.593(5) 0.580(2)
loop_
_geom_bond_atom_site_label_1
_geom_bond_atom_site_label_2
_geom_bond_site_symmetry_1
_geom_bond_site_symmetry_2
Cu1 Cl1 1_555 1_555
Cl1 Cu1B 1_555 1_555
Cl2 Cu1 1_555 1_555
O1 N3 1_555 1_555
O2 N4 1_555 1_555
N1 Cu1 1_555 1_555
N2 N1 1_555 1_555
N3 N2 1_555 1_555
N4 N5 1_555 1_555
N5 N6 1_555 1_555
N6 C8 1_555 1_555
C1 N3 1_555 1_555
C2 N1 1_555 1_555
C3 C2 1_555 1_555
H1 C3 1_555 1_555
C4 C3 1_555 1_555
H2 C4 1_555 1_555
C5 C4 1_555 1_555
H3 C5 1_555 1_555
C6 C1 1_555 1_555
H4 C6 1_555 1_555
C7 N4 1_555 1_555
C8 C7 1_555 1_555
C9 C7 1_555 1_555
H5 C9 1_555 1_555
C10 C9 1_555 1_555
H6 C10 1_555 1_555
C11 C10 1_555 1_555
H7 C11 1_555 1_555
C12 C8 1_555 1_555
H8 C12 1_555 1_555
C13 O1 1_555 1_555
H9 C13 1_555 1_555
H10 C13 1_555 1_555
O3 H11 1_555 1_555
H12 O3 1_555 1_555
Cu1B Cl1B 1_555 1_555
Cu1C N6 1_555 1_555
Cl1B Cu1 1_555 1_555
N6C Cu1 1_555 1_555
O2 C13 1_555 1_555
C1 C2 1_555 1_555
C5 C6 1_555 1_555
C11 C12 1_555 1_555

#END
