
#######################################################################
#
#                 Cambridge Crystallographic Data Centre
#                                CCDC 
#
#######################################################################
#
# If this CIF has been generated from an entry in the Cambridge 
# Structural Database, then it will include bibliographic, chemical, 
# crystal, experimental, refinement or atomic coordinate data resulting 
# from the CCDC's data processing and validation procedures.
#
#######################################################################

data_ZEJDAV
_symmetry_cell_setting           orthorhombic
_symmetry_space_group_name_H-M   'P n a m'
_symmetry_Int_Tables_number      62
_space_group_name_Hall           '-P 2c 2n'
loop_
_symmetry_equiv_pos_site_id
_symmetry_equiv_pos_as_xyz
1 x,y,z
2 -x,-y,1/2+z
3 1/2-x,1/2+y,-z
4 1/2+x,1/2-y,1/2-z
5 -x,-y,-z
6 x,y,1/2-z
7 1/2+x,1/2-y,z
8 1/2-x,1/2+y,1/2+z
_cell_length_a                   7.5359(3)
_cell_length_b                   7.5524(3)
_cell_length_c                   18.3050(9)
_cell_angle_alpha                90
_cell_angle_beta                 90
_cell_angle_gamma                90
_cell_volume                     1041.81
loop_
_atom_site_label
_atom_site_type_symbol
_atom_site_fract_x
_atom_site_fract_y
_atom_site_fract_z
Mn1 Mn 0.56452(4) 0.30821(4) -0.015445(16)
P1 P 0.34738(8) 0.04637(7) 0.08699(3)
S1 S 0.41723(13) 0.138375 0.25000
O1 O 0.4263(3) 0.2278(2) 0.07010(11)
O2 O 0.6733(3) 0.4229(2) -0.10287(11)
H1 H 0.667315 0.546503 -0.095641
H2 H 0.792415 0.4326 -0.118798
O3 O 0.4852(2) -0.1004(2) 0.07310(10)
O4 O 0.1753(2) 0.0066(2) 0.04499(9)
C1 C 0.1652(3) -0.0690(3) 0.21112(13)
H3 H 0.07862 -0.158631 0.221533
C2 C 0.2950(3) 0.0383(3) 0.18197(12)
Mn1E Mn 0.56452(4) 0.30821(4) 0.515445(16)
Mn1D Mn 0.43548(4) -0.30821(4) 0.015445(16)
Mn1B Mn -0.06452(4) -0.19179(4) 0.015445(16)
Mn1F Mn 0.06452(4) 0.19179(4) -0.015445(16)
Mn1A Mn 0.43548(4) -0.30821(4) 0.484555(16)
Mn1G Mn -0.06452(4) -0.19179(4) 0.484555(16)
Mn1C Mn 0.06452(4) 0.19179(4) 0.515445(16)
P1E P 0.34738(8) 0.04637(7) 0.41301(3)
O1E O 0.4263(3) 0.2278(2) 0.42990(11)
O2E O 0.6733(3) 0.4229(2) 0.60287(11)
H1E H 0.667315 0.546503 0.595641
H2E H 0.792415 0.4326 0.618798
O3E O 0.4852(2) -0.1004(2) 0.42690(10)
O3D O 0.5148(2) 0.1004(2) -0.07310(10)
O3A O 0.5148(2) 0.1004(2) 0.57310(10)
O4E O 0.1753(2) 0.0066(2) 0.45501(9)
O4B O 0.3247(2) 0.5066(2) -0.04499(9)
O4F O 0.6753(2) 0.4934(2) 0.04499(9)
O4G O 0.3247(2) 0.5066(2) 0.54499(9)
O4C O 0.6753(2) 0.4934(2) 0.45501(9)
C1E C 0.1652(3) -0.0690(3) 0.28888(13)
H3E H 0.07862 -0.158631 0.278467
C2E C 0.2950(3) 0.0383(3) 0.31803(12)
loop_
_geom_bond_atom_site_label_1
_geom_bond_atom_site_label_2
_geom_bond_site_symmetry_1
_geom_bond_site_symmetry_2
Mn1 O1 1_555 1_555
P1 O1 1_555 1_555
S1 C2 1_555 1_555
O2 Mn1 1_555 1_555
H1 O2 1_555 1_555
H2 O2 1_555 1_555
O3 P1 1_555 1_555
O4 P1 1_555 1_555
C1 H3 1_555 1_555
C2 P1 1_555 1_555
Mn1E O1E 1_555 1_555
Mn1D O3 1_555 1_555
Mn1B O4 1_555 1_555
Mn1F O4 1_555 1_555
Mn1A O3E 1_555 1_555
Mn1G O4E 1_555 1_555
Mn1C O4E 1_555 1_555
P1E O1E 1_555 1_555
O2E Mn1E 1_555 1_555
H1E O2E 1_555 1_555
H2E O2E 1_555 1_555
O3E P1E 1_555 1_555
O3D Mn1 1_555 1_555
O3A Mn1E 1_555 1_555
O4E P1E 1_555 1_555
O4B Mn1 1_555 1_555
O4F Mn1 1_555 1_555
O4G Mn1E 1_555 1_555
O4C Mn1E 1_555 1_555
C1E C1 1_555 1_555
H3E C1E 1_555 1_555
C2E S1 1_555 1_555
C1 C2 1_555 1_555
P1E C2E 1_555 1_555
C1E C2E 1_555 1_555

#END
