
#######################################################################
#
#                 Cambridge Crystallographic Data Centre
#                                CCDC 
#
#######################################################################
#
# If this CIF has been generated from an entry in the Cambridge 
# Structural Database, then it will include bibliographic, chemical, 
# crystal, experimental, refinement or atomic coordinate data resulting 
# from the CCDC's data processing and validation procedures.
#
#######################################################################

data_ZEJNEJ
_symmetry_cell_setting           monoclinic
_symmetry_space_group_name_H-M   'P 21/n'
_symmetry_Int_Tables_number      14
_space_group_name_Hall           '-P 2yn'
loop_
_symmetry_equiv_pos_site_id
_symmetry_equiv_pos_as_xyz
1 x,y,z
2 1/2-x,1/2+y,1/2-z
3 -x,-y,-z
4 1/2+x,1/2-y,1/2+z
_cell_length_a                   5.9820(2)
_cell_length_b                   7.6731(3)
_cell_length_c                   35.2705(15)
_cell_angle_alpha                90
_cell_angle_beta                 90.562(2)
_cell_angle_gamma                90
_cell_volume                     1618.86
loop_
_atom_site_label
_atom_site_type_symbol
_atom_site_fract_x
_atom_site_fract_y
_atom_site_fract_z
Ag1 Ag 0.9620(2) 0.17987(18) 0.11676(4)
Ag2 Ag 0.4600(2) 0.05359(19) 0.16464(5)
Cl1 Cl 0.7330(5) 0.2878(4) 0.17701(9)
Cl2 Cl 0.6893(6) -0.0566(4) 0.10381(9)
N1 N 1.0733(17) 0.9516(14) 0.2176(3)
N2 N 1.0738(16) 0.7800(14) 0.1709(3)
C1 C 1.2404(19) 0.3117(15) 0.0953(3)
N3 N 1.3523(16) 0.4515(14) 0.1091(3)
C2 C 1.1851(19) 0.9180(16) 0.1853(3)
C3 C 1.536(2) 0.3770(18) 0.0584(4)
H1 H 1.6397 0.3712 0.0389
N4 N 1.3551(17) 0.2694(13) 0.0641(3)
C4 C 0.900(2) 0.840(2) 0.2228(4)
H2 H 0.8023 0.8390 0.2432
C5 C 1.139(2) 0.6942(18) 0.1353(3)
H3 H 1.2174 0.7763 0.1193
H4 H 1.0061 0.6552 0.1217
O1 O 1.003(2) 0.2571(16) 0.0030(3)
C6 C 1.299(2) 0.1250(18) 0.0390(4)
H5 H 1.1837 0.0553 0.0509
H6 H 1.4297 0.0519 0.0363
C7 C 1.288(2) 0.5397(18) 0.1442(3)
H7 H 1.4212 0.5793 0.1576
H8 H 1.2098 0.4587 0.1604
C8 C 0.897(2) 0.7323(18) 0.1932(4)
H9 H 0.7962 0.6426 0.1885
C9 C 1.532(2) 0.4934(18) 0.0874(4)
H10 H 1.6320 0.5841 0.0917
C10 C 1.218(3) 0.178(2) 0.0004(4)
H11 H 1.3224 0.2595 -0.0107
H12 H 1.2086 0.0764 -0.0159
C11 C 0.931(3) 0.3227(19) -0.0321(3)
H13 H 1.0171 0.4237 -0.0385
H14 H 0.7757 0.3540 -0.0306
H15 H 0.9494 0.2352 -0.0512
C12 C 1.127(3) 1.094(2) 0.2438(5)
H16 H 1.0363 1.1938 0.2377
H17 H 1.2820 1.1246 0.2415
H18 H 1.0980 1.0580 0.2694
Ag2_2 Ag 1.4600(2) 1.05359(19) 0.16464(5)
C2_2 C 0.1851(19) -0.0820(16) 0.1853(3)
loop_
_geom_bond_atom_site_label_1
_geom_bond_atom_site_label_2
_geom_bond_site_symmetry_1
_geom_bond_site_symmetry_2
Ag1 Cl1 1_555 1_555
Ag2 Cl1 1_555 1_555
Cl2 Ag1 1_555 1_555
N1 C2 1_555 1_555
N2 C2 1_555 1_555
C1 Ag1 1_555 1_555
N3 C1 1_555 1_555
C2 Ag2_2 1_555 1_555
C3 H1 1_555 1_555
N4 C1 1_555 1_555
C4 N1 1_555 1_555
H2 C4 1_555 1_555
C5 N2 1_555 1_555
H3 C5 1_555 1_555
H4 C5 1_555 1_555
O1 C10 1_555 1_555
C6 N4 1_555 1_555
H5 C6 1_555 1_555
H6 C6 1_555 1_555
C7 N3 1_555 1_555
H7 C7 1_555 1_555
H8 C7 1_555 1_555
C8 N2 1_555 1_555
H9 C8 1_555 1_555
C9 N3 1_555 1_555
H10 C9 1_555 1_555
C10 C6 1_555 1_555
H11 C10 1_555 1_555
H12 C10 1_555 1_555
C11 O1 1_555 1_555
H13 C11 1_555 1_555
H14 C11 1_555 1_555
H15 C11 1_555 1_555
C12 N1 1_555 1_555
H16 C12 1_555 1_555
H17 C12 1_555 1_555
H18 C12 1_555 1_555
C2_2 Ag2 1_555 1_555
Ag2 Cl2 1_555 1_555
C3 N4 1_555 1_555
C3 C9 1_555 1_555
C4 C8 1_555 1_555
C5 C7 1_555 1_555

#END
