
#######################################################################
#
#                 Cambridge Crystallographic Data Centre
#                                CCDC 
#
#######################################################################
#
# If this CIF has been generated from an entry in the Cambridge 
# Structural Database, then it will include bibliographic, chemical, 
# crystal, experimental, refinement or atomic coordinate data resulting 
# from the CCDC's data processing and validation procedures.
#
#######################################################################

data_ZEKBUO
_symmetry_cell_setting           triclinic
_symmetry_space_group_name_H-M   'P -1'
_symmetry_Int_Tables_number      2
_space_group_name_Hall           '-P 1'
loop_
_symmetry_equiv_pos_site_id
_symmetry_equiv_pos_as_xyz
1 x,y,z
2 -x,-y,-z
_cell_length_a                   13.80520(10)
_cell_length_b                   14.34640(10)
_cell_length_c                   20.6098(2)
_cell_angle_alpha                90.5980(10)
_cell_angle_beta                 94.8700(10)
_cell_angle_gamma                95.8140(10)
_cell_volume                     4045.47
loop_
_atom_site_label
_atom_site_type_symbol
_atom_site_fract_x
_atom_site_fract_y
_atom_site_fract_z
O1 O 0.7683(3) 0.4827(3) 0.1844(2)
C81 C 0.8150(4) 0.4208(5) 0.1449(3)
H107 H 0.7930 0.3546 0.1534
H108 H 0.8869 0.4309 0.1540
C82 C 0.7858(4) 0.4442(4) 0.0768(3)
H109 H 0.7837 0.3888 0.0475
H110 H 0.8312 0.4953 0.0612
C83 C 0.6828(5) 0.4758(4) 0.0810(3)
H111 H 0.6658 0.5181 0.0451
H112 H 0.6324 0.4214 0.0802
C84 C 0.6939(5) 0.5259(4) 0.1453(3)
H113 H 0.7142 0.5934 0.1401
H114 H 0.6315 0.5193 0.1660
K1 K 0.19437(4) 0.83387(4) 0.22501(3)
K2 K 0.5000 0.5000 0.5000
K3 K 0.5000 1.0000 0.0000
N1 N 0.22846(15) 0.49707(14) 0.39330(10)
N2 N 0.10212(16) 0.62234(15) 0.34948(10)
N3 N 0.02597(16) 0.62486(15) 0.25558(10)
N4 N 0.33288(15) 0.61222(14) 0.45443(10)
C1 C 0.29889(18) 0.43367(16) 0.40519(12)
C2 C 0.40306(19) 0.77614(17) 0.45644(12)
C3 C 0.37512(19) 0.42963(17) 0.36391(12)
C4 C 0.10126(19) 0.67345(18) 0.29352(12)
C5 C 0.43954(19) 0.36139(18) 0.37431(13)
H1 H 0.4894 0.3570 0.3457
C6 C 0.35873(19) 0.30488(18) 0.46610(13)
H2 H 0.3545 0.2628 0.5013
C7 C 0.25031(18) 0.58150(17) 0.41908(11)
C8 C 0.34345(17) 0.70246(17) 0.48351(12)
C9 C 0.23842(19) 0.64125(18) 0.57310(12)
H3 H 0.2047 0.6005 0.5366
C10 C 0.29015(19) 0.36989(17) 0.45712(12)
C11 C 0.30267(18) 0.71881(17) 0.54285(12)
C12 C 0.3833(2) 0.87666(19) 0.54835(14)
H4 H 0.3976 0.9353 0.5707
C13 C 0.43257(19) 0.29993(18) 0.42528(13)
H5 H 0.4780 0.2548 0.4322
C14 C 0.2049(2) 0.37138(19) 0.49875(14)
H6 H 0.1947 0.4385 0.5064
C15 C -0.0128(2) 0.65817(19) 0.19398(13)
C16 C 0.3246(2) 0.80573(18) 0.57476(13)
H7 H 0.2988 0.8162 0.6152
C17 C 0.0306(2) 0.5489(2) 0.34696(14)
H8 H 0.0186 0.5053 0.3805
C18 C 0.17037(18) 0.64736(17) 0.40662(12)
H9 H 0.1329 0.6482 0.4455
H10 H 0.2019 0.7116 0.4013
C19 C 0.4211(2) 0.86257(19) 0.48974(14)
H11 H 0.4602 0.9124 0.4716
C20 C 0.0216(2) 0.6257(2) 0.13665(14)
C21 C -0.0196(2) 0.5498(2) 0.28803(14)
H12 H -0.0745 0.5082 0.2719
C22 C -0.0187(2) 0.6576(2) 0.07805(14)
H13 H 0.0034 0.6371 0.0384
C23 C -0.1215(2) 0.7518(2) 0.13338(15)
H14 H -0.1690 0.7954 0.1318
C24 C 0.5367(2) 0.8278(2) 0.38173(16)
H15 H 0.5162 0.8902 0.3731
H16 H 0.5681 0.8060 0.3443
H17 H 0.5831 0.8309 0.4206
C25 C -0.0837(2) 0.7214(2) 0.19385(14)
C26 C 0.1034(2) 0.5619(2) 0.13761(16)
H18 H 0.1111 0.5346 0.1819
C27 C -0.0908(2) 0.7193(2) 0.07609(15)
H19 H -0.1187 0.7389 0.0354
C28 C -0.1181(2) 0.7587(2) 0.25666(15)
H20 H -0.0877 0.7239 0.2935
C29 C 0.0832(3) 0.4819(2) 0.08819(18)
H21 H 0.0202 0.4468 0.0946
H22 H 0.1351 0.4402 0.0939
H23 H 0.0813 0.5071 0.0441
C30 C 0.1999(3) 0.6189(3) 0.1253(3)
H24 H 0.1909 0.6541 0.0851
H25 H 0.2503 0.5764 0.1210
H26 H 0.2200 0.6627 0.1619
N5 N 0.34805(15) 0.90212(15) 0.15231(10)
N6 N 0.44744(15) 1.04111(15) 0.13214(10)
C31 C 0.40140(17) 0.98165(17) 0.17089(12)
C32 C 0.63522(19) 1.0235(2) 0.20949(13)
H27 H 0.5809 0.9724 0.1998
C33 C 0.40792(18) 0.99661(18) 0.24512(12)
H28 H 0.3997 0.9345 0.2656
H29 H 0.4744 1.0259 0.2597
C34 C 0.50288(19) 1.12219(18) 0.16044(12)
C35 C 0.6776(2) 1.0121(2) 0.27972(14)
H30 H 0.7356 1.0570 0.2891
H31 H 0.6956 0.9482 0.2854
H32 H 0.6285 1.0239 0.3097
C36 C 0.59288(19) 1.11684(19) 0.19823(12)
C37 C 0.5256(2) 1.2914(2) 0.17471(13)
H33 H 0.5037 1.3512 0.1665
C38 C 0.3763(2) 1.2197(2) 0.10472(13)
H34 H 0.3741 1.1734 0.0679
C39 C 0.2845(2) 1.1955(2) 0.14087(14)
H35 H 0.2843 1.1316 0.1573
H36 H 0.2261 1.1997 0.1109
H37 H 0.2845 1.2396 0.1775
C40 C 0.6452(2) 1.1990(2) 0.22396(13)
H38 H 0.7053 1.1956 0.2495
C41 C 0.4701(2) 1.21125(19) 0.14770(12)
C42 C 0.7131(2) 1.0107(2) 0.16239(15)
H39 H 0.6842 1.0134 0.1175
H40 H 0.7382 0.9498 0.1694
H41 H 0.7669 1.0607 0.1702
N7 N 0.33677(15) 1.05449(14) 0.26937(10)
N8 N 0.20716(15) 1.09576(15) 0.30386(10)
C43 C 0.24121(18) 1.02213(18) 0.27342(12)
C44 C 0.36128(19) 1.14306(18) 0.29708(12)
H42 H 0.4237 1.1782 0.2997
C45 C 0.6115(2) 1.2853(2) 0.21304(14)
H43 H 0.6474 1.3404 0.2319
C46 C 0.27922(19) 1.16951(18) 0.31948(12)
H44 H 0.2720 1.2266 0.3414
C47 C 0.03937(19) 1.13860(19) 0.29138(13)
C48 C 0.09252(19) 1.04077(18) 0.38209(13)
C49 C -0.0525(2) 1.1346(2) 0.31507(14)
H45 H -0.1021 1.1664 0.2929
C50 C 0.11051(18) 1.09158(17) 0.32573(12)
C51 C 0.0604(2) 1.1943(2) 0.23111(15)
H46 H 0.1291 1.1864 0.2219
C52 C -0.0008(2) 1.0387(2) 0.40298(13)
H47 H -0.0156 1.0045 0.4407
C53 C 0.3831(2) 0.4963(2) 0.30761(13)
H48 H 0.3547 0.5547 0.3201
C54 C 0.2121(2) 1.0527(2) 0.48048(15)
H49 H 0.2402 1.1139 0.4664
H50 H 0.2629 1.0213 0.5051
H51 H 0.1594 1.0615 0.5082
C55 C -0.07264(19) 1.0850(2) 0.37043(13)
H52 H -0.1357 1.0828 0.3859
C56 C 0.2992(2) 0.5798(2) 0.61653(14)
H53 H 0.3465 0.5527 0.5910
H54 H 0.2561 0.5294 0.6339
H55 H 0.3340 0.6179 0.6526
C57 C 0.1354(2) 0.8938(2) 0.44030(15)
H56 H 0.0841 0.8966 0.4701
H57 H 0.1900 0.8641 0.4620
H58 H 0.1090 0.8570 0.4013
C58 C 0.1713(2) 0.9928(2) 0.42094(13)
H59 H 0.2259 0.9878 0.3925
C59 C 0.3696(2) 1.3166(2) 0.07489(15)
H60 H 0.3613 1.3622 0.1092
H61 H 0.3135 1.3137 0.0421
H62 H 0.4297 1.3358 0.0543
C60 C 0.1112(2) 0.3241(2) 0.46181(17)
H63 H 0.1009 0.3533 0.4194
H64 H 0.0554 0.3314 0.4871
H65 H 0.1175 0.2572 0.4554
C61 C 0.1591(2) 0.6768(2) 0.61136(17)
H66 H 0.1894 0.7099 0.6510
H67 H 0.1142 0.6237 0.6232
H68 H 0.1229 0.7198 0.5844
C62 C 0.26804(19) 0.89592(18) 0.04080(13)
C63 C 0.34470(18) 0.87440(18) 0.08592(12)
C64 C 0.2217(3) 0.3272(2) 0.56568(15)
H69 H 0.2233 0.2595 0.5602
H70 H 0.1685 0.3392 0.5922
H71 H 0.2840 0.3548 0.5874
C65 C 0.4878(3) 0.5245(3) 0.29193(19)
H72 H 0.5272 0.5479 0.3317
H73 H 0.4884 0.5738 0.2594
H74 H 0.5152 0.4699 0.2747
C66 C 0.3216(3) 0.4538(3) 0.24788(16)
H75 H 0.3451 0.3942 0.2361
H76 H 0.3270 0.4970 0.2115
H77 H 0.2531 0.4428 0.2575
C67 C -0.2277(3) 0.7417(3) 0.25837(18)
H78 H -0.2461 0.7632 0.3005
H79 H -0.2484 0.6745 0.2524
H80 H -0.2598 0.7763 0.2234
C68 C -0.0821(3) 0.8623(3) 0.2672(2)
H81 H -0.1060 0.8978 0.2299
H82 H -0.0104 0.8700 0.2717
H83 H -0.1066 0.8855 0.3069
C69 C -0.0048(4) 1.1593(4) 0.17219(19)
H84 H 0.0036 1.0935 0.1636
H85 H 0.0125 1.1967 0.1345
H86 H -0.0730 1.1651 0.1799
C70 C 0.0547(4) 1.2997(3) 0.2444(2)
H87 H 0.0771 1.3357 0.2074
H88 H 0.0965 1.3197 0.2839
H89 H -0.0130 1.3105 0.2503
C71 C 0.41482(19) 0.81666(18) 0.06638(12)
C72 C 0.4057(2) 0.78126(19) 0.00251(13)
H90 H 0.4528 0.7429 -0.0109
C73 C 0.2612(2) 0.8567(2) -0.02213(13)
H91 H 0.2081 0.8689 -0.0522
C74 C 0.3295(2) 0.8009(2) -0.04160(13)
H92 H 0.3242 0.7762 -0.0848
C75 C 0.19178(19) 0.9575(2) 0.06003(14)
H93 H 0.2147 0.9863 0.1037
C76 C 0.1775(2) 1.0373(2) 0.01225(16)
H94 H 0.2403 1.0747 0.0089
H95 H 0.1306 1.0771 0.0281
H96 H 0.1526 1.0108 -0.0307
C77 C 0.0938(2) 0.8992(2) 0.06620(17)
H97 H 0.0662 0.8756 0.0230
H98 H 0.0485 0.9385 0.0847
H99 H 0.1039 0.8463 0.0948
C78 C 0.4970(2) 0.7915(2) 0.11470(13)
H100 H 0.5076 0.8423 0.1489
C79 C 0.5937(2) 0.7871(3) 0.08542(17)
H101 H 0.6448 0.7781 0.1201
H102 H 0.6108 0.8458 0.0632
H103 H 0.5879 0.7346 0.0541
C80 C 0.4686(3) 0.7017(3) 0.1484(2)
H104 H 0.4071 0.7064 0.1682
H105 H 0.5200 0.6906 0.1824
H106 H 0.4600 0.6496 0.1167
C85 C 0.4474(2) 0.75971(19) 0.39294(13)
H115 H 0.4688 0.6951 0.3939
C86 C 0.3710(2) 0.7633(2) 0.33424(14)
H116 H 0.3192 0.7118 0.3367
H117 H 0.4025 0.7571 0.2938
H118 H 0.3428 0.8233 0.3350
K1A K 0.80563(4) 0.16613(4) 0.77499(3)
K3_2 K 0.5000 0.0000 1.0000
N1A N 0.77154(15) 0.50293(14) 0.60670(10)
N2A N 0.89788(16) 0.37766(15) 0.65052(10)
N3A N 0.97403(16) 0.37514(15) 0.74442(10)
N4A N 0.66712(15) 0.38778(14) 0.54557(10)
C1A C 0.70111(18) 0.56633(16) 0.59481(12)
C2A C 0.59694(19) 0.22386(17) 0.54356(12)
C3A C 0.62488(19) 0.57037(17) 0.63609(12)
C4A C 0.89874(19) 0.32655(18) 0.70648(12)
C5A C 0.56046(19) 0.63861(18) 0.62569(13)
H1A H 0.5106 0.6430 0.6543
C6A C 0.64127(19) 0.69512(18) 0.53390(13)
H2A H 0.6455 0.7372 0.4987
C7A C 0.74969(18) 0.41850(17) 0.58092(11)
C8A C 0.65655(17) 0.29754(17) 0.51649(12)
C9A C 0.76158(19) 0.35875(18) 0.42690(12)
H3A H 0.7953 0.3995 0.4634
C10A C 0.70985(19) 0.63011(17) 0.54288(12)
C11A C 0.69733(18) 0.28119(17) 0.45715(12)
C12A C 0.6167(2) 0.12334(19) 0.45165(14)
H4A H 0.6024 0.0647 0.4293
C13A C 0.56743(19) 0.70007(18) 0.57472(13)
H5A H 0.5220 0.7452 0.5678
C14A C 0.7951(2) 0.62862(19) 0.50125(14)
H6A H 0.8053 0.5615 0.4936
C15A C 1.0128(2) 0.34183(19) 0.80602(13)
C16A C 0.6754(2) 0.19427(18) 0.42524(13)
H7A H 0.7012 0.1838 0.3848
C17A C 0.9694(2) 0.4511(2) 0.65304(14)
H8A H 0.9814 0.4947 0.6195
C18A C 0.82963(18) 0.35264(17) 0.59338(12)
H9A H 0.8671 0.3518 0.5545
H10A H 0.7981 0.2884 0.5987
C19A C 0.5789(2) 0.13743(19) 0.51026(14)
H11A H 0.5398 0.0876 0.5284
C20A C 0.9784(2) 0.3743(2) 0.86335(14)
C21A C 1.0196(2) 0.4502(2) 0.71197(14)
H12A H 1.0745 0.4918 0.7281
C22A C 1.0187(2) 0.3424(2) 0.92195(14)
H13A H 0.9966 0.3629 0.9616
C23A C 1.1215(2) 0.2482(2) 0.86662(15)
H14A H 1.1690 0.2046 0.8682
C24A C 0.4633(2) 0.1722(2) 0.61827(16)
H15A H 0.4838 0.1098 0.6269
H16A H 0.4319 0.1940 0.6557
H17A H 0.4169 0.1691 0.5794
C25A C 1.0837(2) 0.2786(2) 0.80615(14)
C26A C 0.8966(2) 0.4381(2) 0.86239(16)
H18A H 0.8889 0.4654 0.8181
C27A C 1.0908(2) 0.2807(2) 0.92391(15)
H19A H 1.1187 0.2611 0.9646
C28A C 1.1181(2) 0.2413(2) 0.74334(15)
H20A H 1.0877 0.2761 0.7065
C29A C 0.9168(3) 0.5181(2) 0.91181(18)
H21A H 0.9798 0.5532 0.9054
H22A H 0.8649 0.5598 0.9061
H23A H 0.9187 0.4929 0.9559
C30A C 0.8001(3) 0.3811(3) 0.8747(3)
H24A H 0.8091 0.3459 0.9149
H25A H 0.7497 0.4236 0.8790
H26A H 0.7800 0.3373 0.8381
N5A N 0.65195(15) 0.09788(15) 0.84769(10)
N6A N 0.55256(15) -0.04111(15) 0.86786(10)
N6A_2 N 0.55256(15) 0.95889(15) -0.13214(10)
C31A C 0.59860(17) 0.01835(17) 0.82911(12)
C32A C 0.36478(19) -0.0235(2) 0.79051(13)
H27A H 0.4191 0.0276 0.8002
C33A C 0.59208(18) 0.00339(18) 0.75488(12)
H28A H 0.6003 0.0655 0.7344
H29A H 0.5256 -0.0259 0.7403
C34A C 0.49712(19) -0.12219(18) 0.83956(12)
C35A C 0.3224(2) -0.0121(2) 0.72028(14)
H30A H 0.2644 -0.0570 0.7109
H31A H 0.3044 0.0518 0.7146
H32A H 0.3715 -0.0239 0.6903
C36A C 0.40712(19) -0.11684(19) 0.80177(12)
C37A C 0.4744(2) -0.2914(2) 0.82529(13)
H33A H 0.4963 -0.3512 0.8335
C38A C 0.6237(2) -0.2197(2) 0.89528(13)
H34A H 0.6259 -0.1734 0.9321
C39A C 0.7155(2) -0.1955(2) 0.85913(14)
H35A H 0.7157 -0.1316 0.8427
H36A H 0.7739 -0.1997 0.8891
H37A H 0.7155 -0.2396 0.8225
C40A C 0.3548(2) -0.1990(2) 0.77604(13)
H38A H 0.2947 -0.1956 0.7505
C41A C 0.5299(2) -0.21125(19) 0.85230(12)
C42A C 0.2869(2) -0.0107(2) 0.83761(15)
H39A H 0.3158 -0.0134 0.8825
H40A H 0.2618 0.0502 0.8306
H41A H 0.2331 -0.0607 0.8298
N7A N 0.66323(15) -0.05449(14) 0.73063(10)
N8A N 0.79284(15) -0.09576(15) 0.69614(10)
C43A C 0.75879(18) -0.02213(18) 0.72658(12)
C44A C 0.63872(19) -0.14306(18) 0.70292(12)
H42A H 0.5763 -0.1782 0.7003
C45A C 0.3885(2) -0.2853(2) 0.78696(14)
H43A H 0.3526 -0.3404 0.7681
C46A C 0.72078(19) -0.16951(18) 0.68052(12)
H44A H 0.7280 -0.2266 0.6586
C47A C 0.96063(19) -0.13860(19) 0.70862(13)
C48A C 0.90748(19) -0.04077(18) 0.61791(13)
C49A C 1.0525(2) -0.1346(2) 0.68493(14)
H45A H 1.1021 -0.1664 0.7071
C50A C 0.88949(18) -0.09158(17) 0.67427(12)
C51A C 0.9396(2) -0.1943(2) 0.76889(15)
H46A H 0.8709 -0.1864 0.7781
C52A C 1.0008(2) -0.0387(2) 0.59702(13)
H47A H 1.0156 -0.0045 0.5593
C53A C 0.6169(2) 0.5037(2) 0.69239(13)
H48A H 0.6453 0.4453 0.6799
C54A C 0.7879(2) -0.0527(2) 0.51952(15)
H49A H 0.7598 -0.1139 0.5336
H50A H 0.7371 -0.0213 0.4949
H51A H 0.8406 -0.0615 0.4918
C55A C 1.07264(19) -0.0850(2) 0.62957(13)
H52A H 1.1357 -0.0828 0.6141
C56A C 0.7008(2) 0.4202(2) 0.38347(14)
H53A H 0.6535 0.4473 0.4090
H54A H 0.7439 0.4706 0.3661
H55A H 0.6660 0.3821 0.3474
C57A C 0.8646(2) 0.1062(2) 0.55970(15)
H56A H 0.9159 0.1034 0.5299
H57A H 0.8100 0.1359 0.5380
H58A H 0.8910 0.1430 0.5987
C58A C 0.8287(2) 0.0072(2) 0.57906(13)
H59A H 0.7741 0.0122 0.6075
C59A C 0.6304(2) -0.3166(2) 0.92511(15)
H60A H 0.6387 -0.3622 0.8908
H61A H 0.6865 -0.3137 0.9579
H62A H 0.5703 -0.3358 0.9457
C60A C 0.8888(2) 0.6759(2) 0.53819(17)
H63A H 0.8991 0.6467 0.5806
H64A H 0.9446 0.6686 0.5129
H65A H 0.8825 0.7428 0.5446
C61A C 0.8409(2) 0.3232(2) 0.38864(17)
H66A H 0.8106 0.2901 0.3490
H67A H 0.8858 0.3763 0.3768
H68A H 0.8771 0.2802 0.4156
C62A C 0.73196(19) 0.10408(18) 0.95920(13)
C63A C 0.65530(18) 0.12560(18) 0.91408(12)
C63A_2 C 0.65530(18) 1.12560(18) -0.08592(12)
C64A C 0.7783(3) 0.6728(2) 0.43432(15)
H69A H 0.7767 0.7405 0.4398
H70A H 0.8315 0.6608 0.4078
H71A H 0.7160 0.6452 0.4126
C65A C 0.5122(3) 0.4755(3) 0.70807(19)
H72A H 0.4728 0.4521 0.6683
H73A H 0.5116 0.4262 0.7406
H74A H 0.4848 0.5301 0.7253
C66A C 0.6784(3) 0.5462(3) 0.75212(16)
H75A H 0.6549 0.6058 0.7639
H76A H 0.6730 0.5030 0.7885
H77A H 0.7469 0.5572 0.7425
C67A C 1.2277(3) 0.2583(3) 0.74163(18)
H78A H 1.2461 0.2368 0.6995
H79A H 1.2484 0.3255 0.7476
H80A H 1.2598 0.2237 0.7766
C68A C 1.0821(3) 0.1377(3) 0.7328(2)
H81A H 1.1060 0.1022 0.7701
H82A H 1.0104 0.1300 0.7283
H83A H 1.1066 0.1145 0.6931
C69A C 1.0048(4) -0.1593(4) 0.82781(19)
H84A H 0.9964 -0.0935 0.8364
H85A H 0.9875 -0.1967 0.8655
H86A H 1.0730 -0.1651 0.8201
C70A C 0.9453(4) -0.2997(3) 0.7556(2)
H87A H 0.9229 -0.3357 0.7926
H88A H 0.9035 -0.3197 0.7161
H89A H 1.0130 -0.3105 0.7497
C71A C 0.58518(19) 0.18334(18) 0.93362(12)
C71A_2 C 0.58518(19) 1.18334(18) -0.06638(12)
C72A C 0.5943(2) 0.21874(19) 0.99749(13)
C72A_2 C 0.5943(2) 1.21874(19) -0.00251(13)
H90A H 0.5472 0.2571 1.0109
H90A_2 H 0.5472 1.2571 0.0109
C73A C 0.7388(2) 0.1433(2) 1.02213(13)
H91A H 0.7919 0.1311 1.0522
C74A C 0.6705(2) 0.1991(2) 1.04160(13)
H92A H 0.6758 0.2238 1.0848
C75A C 0.80822(19) 0.0425(2) 0.93997(14)
H93A H 0.7853 0.0137 0.8963
C76A C 0.8225(2) -0.0373(2) 0.98775(16)
H94A H 0.7597 -0.0747 0.9911
H95A H 0.8694 -0.0771 0.9719
H96A H 0.8474 -0.0108 1.0307
C77A C 0.9062(2) 0.1008(2) 0.93380(17)
H97A H 0.9338 0.1244 0.9770
H98A H 0.9515 0.0615 0.9153
H99A H 0.8961 0.1537 0.9052
C78A C 0.5030(2) 0.2085(2) 0.88530(13)
H100A H 0.4924 0.1577 0.8511
C79A C 0.4063(2) 0.2129(3) 0.91458(17)
H101A H 0.3552 0.2219 0.8799
H102A H 0.3892 0.1542 0.9368
H103A H 0.4121 0.2654 0.9459
C80A C 0.5314(3) 0.2983(3) 0.8516(2)
H104A H 0.5929 0.2936 0.8318
H105A H 0.4800 0.3094 0.8176
H106A H 0.5400 0.3504 0.8833
C85A C 0.5526(2) 0.24029(19) 0.60706(13)
H115A H 0.5312 0.3049 0.6061
C86A C 0.6290(2) 0.2367(2) 0.66576(14)
H116A H 0.6808 0.2882 0.6633
H117A H 0.5975 0.2429 0.7062
H118A H 0.6572 0.1767 0.6650
loop_
_geom_bond_atom_site_label_1
_geom_bond_atom_site_label_2
_geom_bond_site_symmetry_1
_geom_bond_site_symmetry_2
K1 C4 1_555 1_555
K2 N4 1_555 1_555
K3 N6 1_555 1_555
N1 C1 1_555 1_555
N2 C4 1_555 1_555
N3 C4 1_555 1_555
N4 C7 1_555 1_555
C1 K2 1_555 1_555
C2 C8 1_555 1_555
C3 K2 1_555 1_555
C5 K2 1_555 1_555
H1 C5 1_555 1_555
C6 K2 1_555 1_555
H2 C6 1_555 1_555
C7 N1 1_555 1_555
C8 N4 1_555 1_555
C9 H3 1_555 1_555
C10 K2 1_555 1_555
C11 C8 1_555 1_555
C12 H4 1_555 1_555
C13 K2 1_555 1_555
H5 C13 1_555 1_555
C14 C10 1_555 1_555
H6 C14 1_555 1_555
C15 N3 1_555 1_555
C16 C11 1_555 1_555
H7 C16 1_555 1_555
C17 N2 1_555 1_555
H8 C17 1_555 1_555
C18 N2 1_555 1_555
H9 C18 1_555 1_555
H10 C18 1_555 1_555
C19 C2 1_555 1_555
H11 C19 1_555 1_555
C20 C15 1_555 1_555
C21 N3 1_555 1_555
H12 C21 1_555 1_555
C22 C20 1_555 1_555
H13 C22 1_555 1_555
C23 H14 1_555 1_555
C24 H15 1_555 1_555
H16 C24 1_555 1_555
H17 C24 1_555 1_555
C25 C15 1_555 1_555
C26 C20 1_555 1_555
H18 C26 1_555 1_555
C27 C22 1_555 1_555
H19 C27 1_555 1_555
C28 C25 1_555 1_555
H20 C28 1_555 1_555
C29 C26 1_555 1_555
H21 C29 1_555 1_555
H22 C29 1_555 1_555
H23 C29 1_555 1_555
C30 C26 1_555 1_555
H24 C30 1_555 1_555
H25 C30 1_555 1_555
H26 C30 1_555 1_555
N5 K1 1_555 1_555
N6 C31 1_555 1_555
C31 N5 1_555 1_555
C32 H27 1_555 1_555
C33 C31 1_555 1_555
H28 C33 1_555 1_555
H29 C33 1_555 1_555
C34 N6 1_555 1_555
C35 C32 1_555 1_555
H30 C35 1_555 1_555
H31 C35 1_555 1_555
H32 C35 1_555 1_555
C36 C32 1_555 1_555
C37 H33 1_555 1_555
C38 H34 1_555 1_555
C39 C38 1_555 1_555
H35 C39 1_555 1_555
H36 C39 1_555 1_555
H37 C39 1_555 1_555
C40 C36 1_555 1_555
H38 C40 1_555 1_555
C41 C34 1_555 1_555
C42 C32 1_555 1_555
H39 C42 1_555 1_555
H40 C42 1_555 1_555
H41 C42 1_555 1_555
N7 C33 1_555 1_555
N8 C43 1_555 1_555
C43 K1 1_555 1_555
C44 N7 1_555 1_555
H42 C44 1_555 1_555
C45 C37 1_555 1_555
H43 C45 1_555 1_555
C46 N8 1_555 1_555
H44 C46 1_555 1_555
C47 C49 1_555 1_555
C48 C50 1_555 1_555
C49 H45 1_555 1_555
C50 N8 1_555 1_555
C51 C47 1_555 1_555
H46 C51 1_555 1_555
C52 C48 1_555 1_555
H47 C52 1_555 1_555
C53 C3 1_555 1_555
H48 C53 1_555 1_555
C54 H49 1_555 1_555
H50 C54 1_555 1_555
H51 C54 1_555 1_555
C55 C49 1_555 1_555
H52 C55 1_555 1_555
C56 C9 1_555 1_555
H53 C56 1_555 1_555
H54 C56 1_555 1_555
H55 C56 1_555 1_555
C57 H56 1_555 1_555
H57 C57 1_555 1_555
H58 C57 1_555 1_555
C58 C48 1_555 1_555
H59 C58 1_555 1_555
C59 C38 1_555 1_555
H60 C59 1_555 1_555
H61 C59 1_555 1_555
H62 C59 1_555 1_555
C60 C14 1_555 1_555
H63 C60 1_555 1_555
H64 C60 1_555 1_555
H65 C60 1_555 1_555
C61 C9 1_555 1_555
H66 C61 1_555 1_555
H67 C61 1_555 1_555
H68 C61 1_555 1_555
C62 C63 1_555 1_555
C63 K3 1_555 1_555
C64 C14 1_555 1_555
H69 C64 1_555 1_555
H70 C64 1_555 1_555
H71 C64 1_555 1_555
C65 C53 1_555 1_555
H72 C65 1_555 1_555
H73 C65 1_555 1_555
H74 C65 1_555 1_555
C66 C53 1_555 1_555
H75 C66 1_555 1_555
H76 C66 1_555 1_555
H77 C66 1_555 1_555
C67 C28 1_555 1_555
H78 C67 1_555 1_555
H79 C67 1_555 1_555
H80 C67 1_555 1_555
C68 C28 1_555 1_555
H81 C68 1_555 1_555
H82 C68 1_555 1_555
H83 C68 1_555 1_555
C69 C51 1_555 1_555
H84 C69 1_555 1_555
H85 C69 1_555 1_555
H86 C69 1_555 1_555
C70 C51 1_555 1_555
H87 C70 1_555 1_555
H88 C70 1_555 1_555
H89 C70 1_555 1_555
C71 K3 1_555 1_555
C72 K3 1_555 1_555
H90 C72 1_555 1_555
C73 C62 1_555 1_555
H91 C73 1_555 1_555
C74 C72 1_555 1_555
H92 C74 1_555 1_555
C75 C62 1_555 1_555
H93 C75 1_555 1_555
C76 C75 1_555 1_555
H94 C76 1_555 1_555
H95 C76 1_555 1_555
H96 C76 1_555 1_555
C77 C75 1_555 1_555
H97 C77 1_555 1_555
H98 C77 1_555 1_555
H99 C77 1_555 1_555
C78 C71 1_555 1_555
H100 C78 1_555 1_555
C79 C78 1_555 1_555
H101 C79 1_555 1_555
H102 C79 1_555 1_555
H103 C79 1_555 1_555
C80 C78 1_555 1_555
H104 C80 1_555 1_555
H105 C80 1_555 1_555
H106 C80 1_555 1_555
O1 C81 1_555 1_555
C81 H107 1_555 1_555
H108 C81 1_555 1_555
C82 C81 1_555 1_555
H109 C82 1_555 1_555
H110 C82 1_555 1_555
C83 C82 1_555 1_555
H111 C83 1_555 1_555
H112 C83 1_555 1_555
C84 O1 1_555 1_555
H113 C84 1_555 1_555
H114 C84 1_555 1_555
C85 C2 1_555 1_555
H115 C85 1_555 1_555
C86 C85 1_555 1_555
H116 C86 1_555 1_555
H117 C86 1_555 1_555
H118 C86 1_555 1_555
K1A C4A 1_555 1_555
K3_2 N6A 1_555 1_555
N1A C1A 1_555 1_555
N2A C4A 1_555 1_555
N3A C4A 1_555 1_555
N4A K2 1_555 1_555
C1A K2 1_555 1_555
C2A C8A 1_555 1_555
C3A K2 1_555 1_555
C5A K2 1_555 1_555
H1A C5A 1_555 1_555
C6A K2 1_555 1_555
H2A C6A 1_555 1_555
C7A N1A 1_555 1_555
C8A N4A 1_555 1_555
C9A H3A 1_555 1_555
C10A K2 1_555 1_555
C11A C8A 1_555 1_555
C12A H4A 1_555 1_555
C13A K2 1_555 1_555
H5A C13A 1_555 1_555
C14A C10A 1_555 1_555
H6A C14A 1_555 1_555
C15A N3A 1_555 1_555
C16A C11A 1_555 1_555
H7A C16A 1_555 1_555
C17A N2A 1_555 1_555
H8A C17A 1_555 1_555
C18A N2A 1_555 1_555
H9A C18A 1_555 1_555
H10A C18A 1_555 1_555
C19A C2A 1_555 1_555
H11A C19A 1_555 1_555
C20A C15A 1_555 1_555
C21A N3A 1_555 1_555
H12A C21A 1_555 1_555
C22A C20A 1_555 1_555
H13A C22A 1_555 1_555
C23A H14A 1_555 1_555
C24A H15A 1_555 1_555
H16A C24A 1_555 1_555
H17A C24A 1_555 1_555
C25A C15A 1_555 1_555
C26A C20A 1_555 1_555
H18A C26A 1_555 1_555
C27A C22A 1_555 1_555
H19A C27A 1_555 1_555
C28A C25A 1_555 1_555
H20A C28A 1_555 1_555
C29A C26A 1_555 1_555
H21A C29A 1_555 1_555
H22A C29A 1_555 1_555
H23A C29A 1_555 1_555
C30A C26A 1_555 1_555
H24A C30A 1_555 1_555
H25A C30A 1_555 1_555
H26A C30A 1_555 1_555
N5A K1A 1_555 1_555
N6A C31A 1_555 1_555
N6A_2 K3 1_555 1_555
C31A N5A 1_555 1_555
C32A H27A 1_555 1_555
C33A C31A 1_555 1_555
H28A C33A 1_555 1_555
H29A C33A 1_555 1_555
C34A N6A 1_555 1_555
C35A C32A 1_555 1_555
H30A C35A 1_555 1_555
H31A C35A 1_555 1_555
H32A C35A 1_555 1_555
C36A C32A 1_555 1_555
C37A H33A 1_555 1_555
C38A H34A 1_555 1_555
C39A C38A 1_555 1_555
H35A C39A 1_555 1_555
H36A C39A 1_555 1_555
H37A C39A 1_555 1_555
C40A C36A 1_555 1_555
H38A C40A 1_555 1_555
C41A C34A 1_555 1_555
C42A C32A 1_555 1_555
H39A C42A 1_555 1_555
H40A C42A 1_555 1_555
H41A C42A 1_555 1_555
N7A C33A 1_555 1_555
N8A C43A 1_555 1_555
C43A K1A 1_555 1_555
C44A N7A 1_555 1_555
H42A C44A 1_555 1_555
C45A C37A 1_555 1_555
H43A C45A 1_555 1_555
C46A N8A 1_555 1_555
H44A C46A 1_555 1_555
C47A C49A 1_555 1_555
C48A C50A 1_555 1_555
C49A H45A 1_555 1_555
C50A N8A 1_555 1_555
C51A C47A 1_555 1_555
H46A C51A 1_555 1_555
C52A C48A 1_555 1_555
H47A C52A 1_555 1_555
C53A C3A 1_555 1_555
H48A C53A 1_555 1_555
C54A H49A 1_555 1_555
H50A C54A 1_555 1_555
H51A C54A 1_555 1_555
C55A C49A 1_555 1_555
H52A C55A 1_555 1_555
C56A C9A 1_555 1_555
H53A C56A 1_555 1_555
H54A C56A 1_555 1_555
H55A C56A 1_555 1_555
C57A H56A 1_555 1_555
H57A C57A 1_555 1_555
H58A C57A 1_555 1_555
C58A C48A 1_555 1_555
H59A C58A 1_555 1_555
C59A C38A 1_555 1_555
H60A C59A 1_555 1_555
H61A C59A 1_555 1_555
H62A C59A 1_555 1_555
C60A C14A 1_555 1_555
H63A C60A 1_555 1_555
H64A C60A 1_555 1_555
H65A C60A 1_555 1_555
C61A C9A 1_555 1_555
H66A C61A 1_555 1_555
H67A C61A 1_555 1_555
H68A C61A 1_555 1_555
C62A C63A 1_555 1_555
C63A K3_2 1_555 1_555
C63A_2 K3 1_555 1_555
C64A C14A 1_555 1_555
H69A C64A 1_555 1_555
H70A C64A 1_555 1_555
H71A C64A 1_555 1_555
C65A C53A 1_555 1_555
H72A C65A 1_555 1_555
H73A C65A 1_555 1_555
H74A C65A 1_555 1_555
C66A C53A 1_555 1_555
H75A C66A 1_555 1_555
H76A C66A 1_555 1_555
H77A C66A 1_555 1_555
C67A C28A 1_555 1_555
H78A C67A 1_555 1_555
H79A C67A 1_555 1_555
H80A C67A 1_555 1_555
C68A C28A 1_555 1_555
H81A C68A 1_555 1_555
H82A C68A 1_555 1_555
H83A C68A 1_555 1_555
C69A C51A 1_555 1_555
H84A C69A 1_555 1_555
H85A C69A 1_555 1_555
H86A C69A 1_555 1_555
C70A C51A 1_555 1_555
H87A C70A 1_555 1_555
H88A C70A 1_555 1_555
H89A C70A 1_555 1_555
C71A K3_2 1_555 1_555
C71A_2 K3 1_555 1_555
C72A K3_2 1_555 1_555
C72A_2 K3 1_555 1_555
H90A C72A 1_555 1_555
H90A_2 C72A_2 1_555 1_555
C73A C62A 1_555 1_555
H91A C73A 1_555 1_555
C74A C72A 1_555 1_555
H92A C74A 1_555 1_555
C75A C62A 1_555 1_555
H93A C75A 1_555 1_555
C76A C75A 1_555 1_555
H94A C76A 1_555 1_555
H95A C76A 1_555 1_555
H96A C76A 1_555 1_555
C77A C75A 1_555 1_555
H97A C77A 1_555 1_555
H98A C77A 1_555 1_555
H99A C77A 1_555 1_555
C78A C71A 1_555 1_555
H100A C78A 1_555 1_555
C79A C78A 1_555 1_555
H101A C79A 1_555 1_555
H102A C79A 1_555 1_555
H103A C79A 1_555 1_555
C80A C78A 1_555 1_555
H104A C80A 1_555 1_555
H105A C80A 1_555 1_555
H106A C80A 1_555 1_555
C85A C2A 1_555 1_555
H115A C85A 1_555 1_555
C86A C85A 1_555 1_555
H116A C86A 1_555 1_555
H117A C86A 1_555 1_555
H118A C86A 1_555 1_555
C1 C3 1_555 1_555
C1 C10 1_555 1_555
C3 C5 1_555 1_555
C5 C13 1_555 1_555
C6 C10 1_555 1_555
C6 C13 1_555 1_555
C7 C18 1_555 1_555
C9 C11 1_555 1_555
C12 C16 1_555 1_555
C12 C19 1_555 1_555
C17 C21 1_555 1_555
C23 C25 1_555 1_555
C23 C27 1_555 1_555
C24 C85 1_555 1_555
N5 C63 1_555 1_555
C34 C36 1_555 1_555
C37 C41 1_555 1_555
C38 C41 1_555 1_555
C40 C45 1_555 1_555
N7 C43 1_555 1_555
C44 C46 1_555 1_555
C47 C50 1_555 1_555
C52 C55 1_555 1_555
C54 C58 1_555 1_555
C57 C58 1_555 1_555
C63 C71 1_555 1_555
C71 C72 1_555 1_555
C73 C74 1_555 1_555
C83 C84 1_555 1_555
N4A C7A 1_555 1_555
C1A C3A 1_555 1_555
C1A C10A 1_555 1_555
C3A C5A 1_555 1_555
C5A C13A 1_555 1_555
C6A C10A 1_555 1_555
C6A C13A 1_555 1_555
C7A C18A 1_555 1_555
C9A C11A 1_555 1_555
C12A C16A 1_555 1_555
C12A C19A 1_555 1_555
C17A C21A 1_555 1_555
C23A C25A 1_555 1_555
C23A C27A 1_555 1_555
C24A C85A 1_555 1_555
N5A C63A 1_555 1_555
C34A C36A 1_555 1_555
C37A C41A 1_555 1_555
C38A C41A 1_555 1_555
C40A C45A 1_555 1_555
N7A C43A 1_555 1_555
C44A C46A 1_555 1_555
C47A C50A 1_555 1_555
C52A C55A 1_555 1_555
C54A C58A 1_555 1_555
C57A C58A 1_555 1_555
C63A C71A 1_555 1_555
C63A_2 C71A_2 1_555 1_555
C71A C72A 1_555 1_555
C71A_2 C72A_2 1_555 1_555
C73A C74A 1_555 1_555

#END
