
#######################################################################
#
#                 Cambridge Crystallographic Data Centre
#                                CCDC 
#
#######################################################################
#
# If this CIF has been generated from an entry in the Cambridge 
# Structural Database, then it will include bibliographic, chemical, 
# crystal, experimental, refinement or atomic coordinate data resulting 
# from the CCDC's data processing and validation procedures.
#
#######################################################################

data_ZEKKUX
_symmetry_cell_setting           orthorhombic
_symmetry_space_group_name_H-M   'P m n 21'
_symmetry_Int_Tables_number      31
_space_group_name_Hall           'P 2ac -2'
loop_
_symmetry_equiv_pos_site_id
_symmetry_equiv_pos_as_xyz
1 x,y,z
2 1/2-x,-y,1/2+z
3 1/2+x,-y,1/2+z
4 -x,y,z
_cell_length_a                   6.2590(17)
_cell_length_b                   8.266(2)
_cell_length_c                   7.411(2)
_cell_angle_alpha                90
_cell_angle_beta                 90
_cell_angle_gamma                90
_cell_volume                     383.422
loop_
_atom_site_label
_atom_site_type_symbol
_atom_site_fract_x
_atom_site_fract_y
_atom_site_fract_z
Ba1 Ba 0.0000 0.94589(4) 0.46292(8)
S1 S 0.0000 0.8328(2) 0.0126(2)
S2 S 0.0000 0.3167(2) 0.1141(3)
O1 O 0.1906(6) 0.8696(4) 0.1213(6)
O2 O 0.0000 0.9113(8) -0.1629(9)
O3 O 0.1943(7) 0.2841(5) 0.0120(6)
O4 O 0.0000 0.2432(7) 0.2927(8)
C1 C 0.0000 0.6214(8) -0.0266(15)
H1 H -0.1280 0.5914 -0.0976
C2 C 0.0000 0.5284(10) 0.1519(12)
H2 H -0.1280 0.5586 0.2228
Ba1A Ba 0.5000 1.05411(4) -0.03708(8)
Ba1_2 Ba 0.0000 0.94589(4) -0.53708(8)
Ba1A_2 Ba 0.5000 0.05411(4) -0.03708(8)
Ba1_3 Ba 0.0000 -0.05411(4) 0.46292(8)
Ba1A_3 Ba -0.5000 1.05411(4) -0.03708(8)
Ba1A_4 Ba -0.5000 0.05411(4) -0.03708(8)
O1C O -0.1906(6) 0.8696(4) 0.1213(6)
O1A O 0.3094(6) 1.1304(4) 0.6213(6)
O1B O -0.3094(6) 1.1304(4) 0.6213(6)
O2_2 O 0.0000 0.9113(8) 0.8371(9)
O3C O -0.1943(7) 0.2841(5) 0.0120(6)
O3A O 0.3057(7) 0.7159(5) 0.5120(6)
O3B O -0.3057(7) 0.7159(5) 0.5120(6)
O4_2 O 0.0000 1.2432(7) 0.2927(8)
H1C H 0.1280 0.5914 -0.0976
H2C H 0.1280 0.5586 0.2228
loop_
_geom_bond_atom_site_label_1
_geom_bond_atom_site_label_2
_geom_bond_site_symmetry_1
_geom_bond_site_symmetry_2
Ba1 O1 1_555 1_555
S1 O1 1_555 1_555
S2 O3 1_555 1_555
O1 Ba1A 1_555 1_555
O2 S1 1_555 1_555
O3 Ba1A_2 1_555 1_555
O4 S2 1_555 1_555
C1 S1 1_555 1_555
H1 C1 1_555 1_555
C2 S2 1_555 1_555
H2 C2 1_555 1_555
Ba1_2 O2 1_555 1_555
Ba1_3 O4 1_555 1_555
Ba1A_3 O1C 1_555 1_555
Ba1A_4 O3C 1_555 1_555
O1C Ba1 1_555 1_555
O1A Ba1 1_555 1_555
O1B Ba1 1_555 1_555
O2_2 Ba1 1_555 1_555
O3C S2 1_555 1_555
O3A Ba1 1_555 1_555
O3B Ba1 1_555 1_555
O4_2 Ba1 1_555 1_555
H1C C1 1_555 1_555
H2C C2 1_555 1_555
S1 O1C 1_555 1_555
C1 C2 1_555 1_555

#END
