
#######################################################################
#
#                 Cambridge Crystallographic Data Centre
#                                CCDC 
#
#######################################################################
#
# If this CIF has been generated from an entry in the Cambridge 
# Structural Database, then it will include bibliographic, chemical, 
# crystal, experimental, refinement or atomic coordinate data resulting 
# from the CCDC's data processing and validation procedures.
#
#######################################################################

data_ZEKSAL
_symmetry_cell_setting           orthorhombic
_symmetry_space_group_name_H-M   'P n c 2'
_symmetry_Int_Tables_number      30
_space_group_name_Hall           'P 2 -2bc'
loop_
_symmetry_equiv_pos_site_id
_symmetry_equiv_pos_as_xyz
1 x,y,z
2 -x,-y,z
3 x,1/2-y,1/2+z
4 -x,1/2+y,1/2+z
_cell_length_a                   14.6913(3)
_cell_length_b                   27.1030(5)
_cell_length_c                   8.2799(1)
_cell_angle_alpha                90
_cell_angle_beta                 90
_cell_angle_gamma                90
_cell_volume                     3296.88
loop_
_atom_site_label
_atom_site_type_symbol
_atom_site_fract_x
_atom_site_fract_y
_atom_site_fract_z
C2 C 0.8355(8) 0.9748(4) 0.0720(13)
C3 C 0.8229(10) 0.9255(6) 0.1122(19)
H1 H 0.8680 0.9017 0.0861
C4 C 0.7593(13) 0.9141(6) 0.175(3)
H2 H 0.7472 0.8797 0.1810
C5 C 0.6931(12) 0.9468(7) 0.250(2)
H3 H 0.6481 0.9338 0.3208
C6 C 0.6959(10) 0.9940(4) 0.2199(18)
H4 H 0.6512 1.0158 0.2619
C7 C 0.7638(12) 1.0103(4) 0.1277(19)
H5 H 0.7668 1.0441 0.0976
O1 O 0.9624(8) 0.9582(3) -0.0809(14)
O2 O 0.9171(9) 1.0354(3) -0.0628(13)
N1 N 0.9148(12) 0.9913(4) -0.0321(14)
O3 O 0.5471(9) 0.8984(8) 0.906(5)
Co1 Co 0.79159(3) 1.131493(12) 0.53671(8)
C1 C 0.6018(2) 0.72939(11) 0.8726(5)
C8 C 0.5973(4) 0.67838(15) 0.8726(8)
H6 H 0.6423 0.6595 0.8180
C9 C 0.5271(4) 0.65513(15) 0.9523(8)
H7 H 0.5248 0.6201 0.9509
C10 C 0.5363(2) 0.75476(12) 0.9605(5)
H8 H 0.5389 0.7897 0.9688
C11 C 0.4676(2) 0.72883(11) 1.0358(6)
H9 H 0.4222 0.7467 1.0930
C12 C 0.6770(2) 0.75568(12) 0.7857(5)
C13 C 1.0040(2) 0.72098(11) 0.3936(4)
C14 C 1.0803(3) 0.74243(12) 0.3235(5)
H10 H 1.0913 0.7768 0.3361
C15 C 1.1400(2) 0.71391(11) 0.2358(5)
H11 H 1.1921 0.7293 0.1901
C16 C 0.9930(2) 0.67000(11) 0.3714(4)
H12 H 0.9425 0.6536 0.4186
C17 C 1.0544(2) 0.64405(11) 0.2825(5)
H13 H 1.0456 0.6096 0.2692
C18 C 0.9348(2) 0.75050(11) 0.4824(4)
N2 N 0.8079(2) 1.05627(10) 0.5869(4)
C19 C 0.8109(2) 0.95343(11) 0.6105(5)
C20 C 0.7333(14) 1.0304(7) 0.619(2)
H14 H 0.6780 1.0482 0.6313
C21 C 0.7293(8) 0.9786(4) 0.636(2)
H15 H 0.6745 0.9620 0.6638
C22 C 0.8848(7) 0.9781(4) 0.5745(16)
H16 H 0.9398 0.9608 0.5540
C23 C 0.8834(6) 1.0292(3) 0.5661(12)
H17 H 0.9389 1.0460 0.5444
C24 C 0.8101(2) 0.89855(10) 0.6202(5)
C25 C 0.7385(2) 0.82871(11) 0.7074(4)
C26 C 0.8052(2) 0.75000(10) 0.6352(4)
C27 C 0.8066(2) 0.80147(10) 0.6289(4)
C28 C 0.87697(19) 0.82614(9) 0.5469(5)
C29 C 0.9229(5) 1.1281(3) 0.2225(7)
H18 H 0.9874 1.1310 0.1933
H19 H 0.9001 1.0956 0.1901
H20 H 0.8881 1.1539 0.1670
C30 C 0.6698(3) 1.1479(2) 0.8413(6)
H21 H 0.6057 1.1485 0.8734
H22 H 0.7018 1.1222 0.9023
H23 H 0.6976 1.1800 0.8639
N3 N 0.4620(2) 0.67961(10) 1.0316(5)
N4 N 1.12788(19) 0.66554(9) 0.2121(4)
N5 N 0.6718(2) 0.80517(9) 0.7873(4)
N6 N 0.73881(19) 0.72627(9) 0.7164(4)
N7 N 0.87095(18) 0.72368(8) 0.5573(4)
N8 N 0.94389(19) 0.80008(9) 0.4733(4)
N9 N 0.87896(17) 0.87583(8) 0.5429(5)
N10 N 0.7399(2) 0.87854(10) 0.7017(4)
N11 N 0.7057(3) 1.16847(16) 0.3004(5)
O4 O 0.7453(2) 1.19526(9) 0.4032(4)
O5 O 0.6642(3) 1.18559(16) 0.1864(4)
O6 O 0.7107(2) 1.12196(12) 0.3254(4)
O7 O 0.91281(19) 1.13394(8) 0.3966(4)
O8 O 0.67632(17) 1.13767(9) 0.6742(3)
Co1C Co 1.20841(3) 0.631493(12) 0.03671(8)
N4C N 0.87212(19) 1.16554(9) 0.7121(4)
C31? C 0.7542(8) 0.9827(4) 0.7032(16)
C32? C 0.7514(15) 1.0317(6) 0.6849(18)
C33? C 0.8709(9) 0.9789(5) 0.5053(12)
C34? C 0.8676(7) 1.0292(4) 0.4939(13)
H24? H 0.7163 0.9676 0.7820
H25? H 0.7072 1.0498 0.7440
H26? H 0.9137 0.9609 0.4425
H27? H 0.9070 1.0457 0.4208
loop_
_geom_bond_atom_site_label_1
_geom_bond_atom_site_label_2
_geom_bond_site_symmetry_1
_geom_bond_site_symmetry_2
Co1 N2 1_555 1_555
C1 C8 1_555 1_555
C2 C3 1_555 1_555
C3 H1 1_555 1_555
C4 C3 1_555 1_555
H2 C4 1_555 1_555
C5 C4 1_555 1_555
H3 C5 1_555 1_555
C6 C5 1_555 1_555
H4 C6 1_555 1_555
C7 C2 1_555 1_555
H5 C7 1_555 1_555
O1 N1 1_555 1_555
O2 N1 1_555 1_555
N1 C2 1_555 1_555
C8 H6 1_555 1_555
C9 C8 1_555 1_555
H7 C9 1_555 1_555
C10 C1 1_555 1_555
H8 C10 1_555 1_555
C11 C10 1_555 1_555
H9 C11 1_555 1_555
C12 C1 1_555 1_555
C13 C14 1_555 1_555
C14 H10 1_555 1_555
C15 C14 1_555 1_555
H11 C15 1_555 1_555
C16 C13 1_555 1_555
H12 C16 1_555 1_555
C17 C16 1_555 1_555
H13 C17 1_555 1_555
C18 C13 1_555 1_555
N2 C20 1_555 1_555
C19 C21 1_555 1_555
C20 H14 1_555 1_555
C21 C20 1_555 1_555
H15 C21 1_555 1_555
C22 C19 1_555 1_555
H16 C22 1_555 1_555
C23 N2 1_555 1_555
H17 C23 1_555 1_555
C24 C19 1_555 1_555
C25 C27 1_555 1_555
C26 C27 1_555 1_555
C27 C28 1_555 1_555
C28 N8 1_555 1_555
C29 H18 1_555 1_555
H19 C29 1_555 1_555
H20 C29 1_555 1_555
C30 H21 1_555 1_555
H22 C30 1_555 1_555
H23 C30 1_555 1_555
N3 C9 1_555 1_555
N4 C15 1_555 1_555
N5 C12 1_555 1_555
N6 C12 1_555 1_555
N7 C18 1_555 1_555
N8 C18 1_555 1_555
N9 C24 1_555 1_555
N10 C24 1_555 1_555
N11 O4 1_555 1_555
O4 Co1 1_555 1_555
O5 N11 1_555 1_555
O6 Co1 1_555 1_555
O7 Co1 1_555 1_555
O8 Co1 1_555 1_555
Co1C N4 1_555 1_555
N4C Co1 1_555 1_555
C6 C7 1_555 1_555
C11 N3 1_555 1_555
C17 N4 1_555 1_555
C22 C23 1_555 1_555
C25 N5 1_555 1_555
C25 N10 1_555 1_555
C26 N6 1_555 1_555
C26 N7 1_555 1_555
C28 N9 1_555 1_555
C29 O7 1_555 1_555
C30 O8 1_555 1_555
N11 O6 1_555 1_555

#END
