
#######################################################################
#
#                 Cambridge Crystallographic Data Centre
#                                CCDC 
#
#######################################################################
#
# If this CIF has been generated from an entry in the Cambridge 
# Structural Database, then it will include bibliographic, chemical, 
# crystal, experimental, refinement or atomic coordinate data resulting 
# from the CCDC's data processing and validation procedures.
#
#######################################################################

data_ZELBEX
_symmetry_cell_setting           orthorhombic
_symmetry_space_group_name_H-M   'P b c n'
_symmetry_Int_Tables_number      60
_space_group_name_Hall           '-P 2n 2ab'
loop_
_symmetry_equiv_pos_site_id
_symmetry_equiv_pos_as_xyz
1 x,y,z
2 1/2-x,1/2-y,1/2+z
3 1/2+x,1/2-y,-z
4 -x,y,1/2-z
5 -x,-y,-z
6 1/2+x,1/2+y,1/2-z
7 1/2-x,1/2+y,z
8 x,-y,1/2+z
_cell_length_a                   9.707(2)
_cell_length_b                   19.301(5)
_cell_length_c                   33.032(7)
_cell_angle_alpha                90
_cell_angle_beta                 90
_cell_angle_gamma                90
_cell_volume                     6188.7
loop_
_atom_site_label
_atom_site_type_symbol
_atom_site_fract_x
_atom_site_fract_y
_atom_site_fract_z
Au1 Au 0.1322(1) 0.1329(1) 0.1574(1)
Au2 Au -0.3366(1) 0.5071(1) 0.4014(1)
I1 I 0.3681(2) 0.1025(1) 0.1886(1)
I2 I -0.2308(2) 0.5881(1) 0.4543(1)
P1 P -0.0683(8) 0.1749(3) 0.1324(2)
P2 P -0.4233(8) 0.4221(4) 0.3622(2)
C1 C -0.1637(25) 0.1203(12) 0.0970(7)
C2 C -0.2754(29) 0.0836(14) 0.1131(9)
C3 C -0.3551(33) 0.0431(15) 0.0835(9)
C4 C -0.3135(32) 0.0371(16) 0.0450(10)
C5 C -0.2040(34) 0.0754(17) 0.0298(11)
C6 C -0.1243(37) 0.1172(17) 0.0574(11)
C7 C -0.0316(30) 0.2526(14) 0.1034(9)
C8 C 0.1010(28) 0.2644(13) 0.0910(8)
C9 C 0.1298(38) 0.3244(17) 0.0666(10)
C10 C 0.0321(29) 0.3648(14) 0.0521(9)
C11 C -0.1069(32) 0.3532(15) 0.0640(9)
C12 C -0.1304(34) 0.2959(15) 0.0888(9)
C13 C -0.2000(31) 0.2024(16) 0.1701(9)
C14 C -0.1439(32) 0.2477(16) 0.2032(9)
C15 C -0.2688(33) 0.2726(17) 0.2299(10)
C16 C -0.2192(32) 0.3153(16) 0.2666(9)
C17 C -0.3371(32) 0.3501(16) 0.2891(10)
C18 C -0.2976(33) 0.3896(16) 0.3269(10)
C19 C -0.4703(27) 0.3474(13) 0.3934(8)
C20 C -0.5184(30) 0.3613(15) 0.4338(9)
C21 C -0.5472(36) 0.3088(17) 0.4577(11)
C22 C -0.5394(32) 0.2415(15) 0.4469(9)
C23 C -0.4917(31) 0.2282(15) 0.4066(9)
C24 C -0.4640(29) 0.2815(14) 0.3800(9)
C25 C -0.5730(27) 0.4474(14) 0.3334(8)
C26 C -0.6971(31) 0.4178(16) 0.3420(10)
C27 C -0.8234(37) 0.4431(18) 0.3206(10)
C28 C -0.8047(35) 0.4895(17) 0.2890(11)
C29 C -0.6777(31) 0.5163(16) 0.2826(10)
C30 C -0.5592(33) 0.4949(16) 0.3045(9)
H1 H -0.2989 0.0821 0.1413
H2 H -0.4379 0.0192 0.0911
H3 H -0.3623 0.0073 0.0267
H4 H -0.1801 0.0736 0.0016
H5 H -0.0487 0.1446 0.0477
H6 H 0.1709 0.2317 0.0985
H7 H 0.2250 0.3355 0.0622
H8 H 0.0564 0.4009 0.0334
H9 H -0.1816 0.3813 0.0544
H10 H -0.2227 0.2846 0.0968
H11 H -0.2439 0.1623 0.1816
H12 H -0.2695 0.2287 0.1563
H13 H -0.0943 0.2866 0.1925
H14 H -0.0823 0.2208 0.2196
H15 H -0.3212 0.2334 0.2390
H16 H -0.3277 0.3012 0.2136
H17 H -0.1546 0.3498 0.2578
H18 H -0.1723 0.2846 0.2849
H19 H -0.4020 0.3148 0.2965
H20 H -0.3818 0.3806 0.2702
H21 H -0.2478 0.4294 0.3174
H22 H -0.2323 0.3616 0.3413
H23 H -0.5216 0.4082 0.4434
H24 H -0.5871 0.3194 0.4835
H25 H -0.5548 0.2038 0.4654
H26 H -0.4742 0.1813 0.3985
H27 H -0.4390 0.2716 0.3524
H28 H -0.7007 0.3824 0.3623
H29 H -0.9141 0.4270 0.3273
H30 H -0.8776 0.5090 0.2730
H31 H -0.6611 0.5465 0.2600
H32 H -0.4694 0.5142 0.2999
Au2E Au 0.1634(1) 0.0071(1) 0.0986(1)
Au1E Au -0.3678(1) 0.6329(1) 0.3426(1)
loop_
_geom_bond_atom_site_label_1
_geom_bond_atom_site_label_2
_geom_bond_site_symmetry_1
_geom_bond_site_symmetry_2
Au1 I1 1_555 1_555
Au2 I2 1_555 1_555
P1 Au1 1_555 1_555
P2 Au2 1_555 1_555
C1 P1 1_555 1_555
C2 C1 1_555 1_555
C3 C2 1_555 1_555
C4 C3 1_555 1_555
C5 C4 1_555 1_555
C6 C1 1_555 1_555
C7 P1 1_555 1_555
C8 C7 1_555 1_555
C9 C8 1_555 1_555
C10 C9 1_555 1_555
C11 C10 1_555 1_555
C12 C7 1_555 1_555
C13 P1 1_555 1_555
C14 C13 1_555 1_555
C15 C14 1_555 1_555
C16 C15 1_555 1_555
C17 C16 1_555 1_555
C18 P2 1_555 1_555
C19 P2 1_555 1_555
C20 C19 1_555 1_555
C21 C20 1_555 1_555
C22 C21 1_555 1_555
C23 C22 1_555 1_555
C24 C19 1_555 1_555
C25 P2 1_555 1_555
C26 C25 1_555 1_555
C27 C26 1_555 1_555
C28 C27 1_555 1_555
C29 C28 1_555 1_555
C30 C25 1_555 1_555
H1 C2 1_555 1_555
H2 C3 1_555 1_555
H3 C4 1_555 1_555
H4 C5 1_555 1_555
H5 C6 1_555 1_555
H6 C8 1_555 1_555
H7 C9 1_555 1_555
H8 C10 1_555 1_555
H9 C11 1_555 1_555
H10 C12 1_555 1_555
H11 C13 1_555 1_555
H12 C13 1_555 1_555
H13 C14 1_555 1_555
H14 C14 1_555 1_555
H15 C15 1_555 1_555
H16 C15 1_555 1_555
H17 C16 1_555 1_555
H18 C16 1_555 1_555
H19 C17 1_555 1_555
H20 C17 1_555 1_555
H21 C18 1_555 1_555
H22 C18 1_555 1_555
H23 C20 1_555 1_555
H24 C21 1_555 1_555
H25 C22 1_555 1_555
H26 C23 1_555 1_555
H27 C24 1_555 1_555
H28 C26 1_555 1_555
H29 C27 1_555 1_555
H30 C28 1_555 1_555
H31 C29 1_555 1_555
H32 C30 1_555 1_555
Au2E Au1 1_555 1_555
Au1E Au2 1_555 1_555
C5 C6 1_555 1_555
C11 C12 1_555 1_555
C17 C18 1_555 1_555
C23 C24 1_555 1_555
C29 C30 1_555 1_555

#END
