
#######################################################################
#
#                 Cambridge Crystallographic Data Centre
#                                CCDC 
#
#######################################################################
#
# If this CIF has been generated from an entry in the Cambridge 
# Structural Database, then it will include bibliographic, chemical, 
# crystal, experimental, refinement or atomic coordinate data resulting 
# from the CCDC's data processing and validation procedures.
#
#######################################################################

data_ZELBEX01
_symmetry_cell_setting           orthorhombic
_symmetry_space_group_name_H-M   'P b c n'
_symmetry_Int_Tables_number      60
_space_group_name_Hall           '-P 2n 2ab'
loop_
_symmetry_equiv_pos_site_id
_symmetry_equiv_pos_as_xyz
1 x,y,z
2 1/2-x,1/2-y,1/2+z
3 1/2+x,1/2-y,-z
4 -x,y,1/2-z
5 -x,-y,-z
6 1/2+x,1/2+y,1/2-z
7 1/2-x,1/2+y,z
8 x,-y,1/2+z
_cell_length_a                   9.707(2)
_cell_length_b                   19.301(5)
_cell_length_c                   33.032(7)
_cell_angle_alpha                90
_cell_angle_beta                 90
_cell_angle_gamma                90
_cell_volume                     6188.7
loop_
_atom_site_label
_atom_site_type_symbol
_atom_site_fract_x
_atom_site_fract_y
_atom_site_fract_z
Au1 Au 0.1322(1) 0.1329(1) 0.1574(1)
Au2 Au 0.1634(1) 0.0071(1) 0.0986(1)
I1 I 0.8681(2) -0.3975(1) 0.3114(1)
I2 I 0.2692(2) 0.0881(1) 0.0457(1)
P1 P 0.4317(8) -0.3251(3) 0.3676(2)
P2 P 0.0767(8) -0.0779(4) 0.1378(2)
C1 C 0.3363(25) -0.3797(12) 0.4030(7)
C2 C 0.2246(29) -0.4164(14) 0.3869(9)
C3 C 0.1449(33) -0.4569(15) 0.4165(9)
C4 C 0.1865(32) -0.4629(16) 0.4550(10)
C5 C 0.2960(34) -0.4246(17) 0.4702(11)
C6 C 0.3757(37) -0.3828(17) 0.4426(11)
C7 C 0.4684(30) -0.2474(14) 0.3966(9)
C8 C 0.6010(28) -0.2356(13) 0.4090(8)
C9 C 0.6298(38) -0.1756(17) 0.4334(10)
C10 C 0.5321(29) -0.1352(14) 0.4479(9)
C11 C 0.3931(32) -0.1468(15) 0.4360(9)
C12 C 0.3696(34) -0.2041(15) 0.4112(9)
C13 C 0.3000(31) -0.2976(16) 0.3299(9)
C14 C 0.3561(32) -0.2523(16) 0.2968(9)
C15 C 0.2312(33) -0.2274(17) 0.2701(10)
C16 C 0.2808(32) -0.1847(16) 0.2334(9)
C17 C 0.1629(32) -0.1499(16) 0.2109(10)
C18 C 0.2024(33) -0.1104(16) 0.1731(10)
C19 C 0.0297(27) -0.1526(13) 0.1066(8)
C20 C -0.0184(30) -0.1387(15) 0.0662(9)
C21 C -0.0472(36) -0.1912(17) 0.0423(11)
C22 C -0.0394(32) -0.2585(15) 0.0531(9)
C23 C 0.0083(31) -0.2718(15) 0.0934(9)
C24 C 0.0360(29) -0.2185(14) 0.1200(9)
C25 C -0.0730(27) -0.0526(14) 0.1660(8)
C26 C -0.1971(31) -0.0822(16) 0.1580(10)
C27 C -0.3234(37) -0.0569(18) 0.1794(10)
C28 C -0.3047(35) -0.0105(17) 0.2110(11)
C29 C -0.1777(31) 0.0163(16) 0.2174(10)
C30 C -0.0592(33) -0.0051(16) 0.1955(9)
H1 H 0.2011 -0.4179 0.3587
H2 H 0.0621 -0.4808 0.4089
H3 H 0.1377 -0.4927 0.4733
H4 H 0.3199 -0.4264 0.4984
H5 H 0.4513 -0.3554 0.4523
H6 H 0.6709 -0.2683 0.4015
H7 H 0.7250 -0.1645 0.4378
H8 H 0.5564 -0.0991 0.4666
H9 H 0.3184 -0.1187 0.4456
H10 H 0.2773 -0.2154 0.4032
H11 H 0.2561 -0.3377 0.3184
H12 H 0.2305 -0.2713 0.3437
H13 H 0.4057 -0.2134 0.3075
H14 H 0.4177 -0.2792 0.2804
H15 H 0.1788 -0.2666 0.2610
H16 H 0.1723 -0.1988 0.2864
H17 H 0.3454 -0.1502 0.2422
H18 H 0.3277 -0.2154 0.2151
H19 H 0.0980 -0.1852 0.2035
H20 H 0.1182 -0.1194 0.2298
H21 H 0.2522 -0.0706 0.1826
H22 H 0.2677 -0.1384 0.1587
H23 H -0.0216 -0.0918 0.0566
H24 H -0.0871 -0.1806 0.0165
H25 H -0.0548 -0.2962 0.0346
H26 H 0.0258 -0.3187 0.1015
H27 H 0.0610 -0.2284 0.1476
H28 H -0.2007 -0.1176 0.1377
H29 H -0.4141 -0.0730 0.1727
H30 H -0.3776 0.0090 0.2270
H31 H -0.1611 0.0465 0.2400
H32 H 0.0306 0.0142 0.2001
Au1E Au 0.6322(1) -0.3671(1) 0.3426(1)
Au2E Au 0.6634(1) -0.4929(1) 0.4014(1)
loop_
_geom_bond_atom_site_label_1
_geom_bond_atom_site_label_2
_geom_bond_site_symmetry_1
_geom_bond_site_symmetry_2
Au1 Au2 1_555 1_555
Au2 I2 1_555 1_555
I1 Au1E 1_555 1_555
P1 C1 1_555 1_555
P2 Au2 1_555 1_555
C1 C2 1_555 1_555
C2 C3 1_555 1_555
C3 C4 1_555 1_555
C4 C5 1_555 1_555
C5 C6 1_555 1_555
C6 C1 1_555 1_555
C7 P1 1_555 1_555
C8 C7 1_555 1_555
C9 C8 1_555 1_555
C10 C9 1_555 1_555
C11 C10 1_555 1_555
C12 C7 1_555 1_555
C13 P1 1_555 1_555
C14 C13 1_555 1_555
C15 C14 1_555 1_555
C16 C15 1_555 1_555
C17 C16 1_555 1_555
C18 P2 1_555 1_555
C19 P2 1_555 1_555
C20 C19 1_555 1_555
C21 C20 1_555 1_555
C22 C21 1_555 1_555
C23 C22 1_555 1_555
C24 C19 1_555 1_555
C25 P2 1_555 1_555
C26 C25 1_555 1_555
C27 C26 1_555 1_555
C28 C27 1_555 1_555
C29 C28 1_555 1_555
C30 C25 1_555 1_555
H1 C2 1_555 1_555
H2 C3 1_555 1_555
H3 C4 1_555 1_555
H4 C5 1_555 1_555
H5 C6 1_555 1_555
H6 C8 1_555 1_555
H7 C9 1_555 1_555
H8 C10 1_555 1_555
H9 C11 1_555 1_555
H10 C12 1_555 1_555
H11 C13 1_555 1_555
H12 C13 1_555 1_555
H13 C14 1_555 1_555
H14 C14 1_555 1_555
H15 C15 1_555 1_555
H16 C15 1_555 1_555
H17 C16 1_555 1_555
H18 C16 1_555 1_555
H19 C17 1_555 1_555
H20 C17 1_555 1_555
H21 C18 1_555 1_555
H22 C18 1_555 1_555
H23 C20 1_555 1_555
H24 C21 1_555 1_555
H25 C22 1_555 1_555
H26 C23 1_555 1_555
H27 C24 1_555 1_555
H28 C26 1_555 1_555
H29 C27 1_555 1_555
H30 C28 1_555 1_555
H31 C29 1_555 1_555
H32 C30 1_555 1_555
Au1E P1 1_555 1_555
Au2E Au1E 1_555 1_555
C11 C12 1_555 1_555
C17 C18 1_555 1_555
C23 C24 1_555 1_555
C29 C30 1_555 1_555

#END
