
#######################################################################
#
#                 Cambridge Crystallographic Data Centre
#                                CCDC 
#
#######################################################################
#
# If this CIF has been generated from an entry in the Cambridge 
# Structural Database, then it will include bibliographic, chemical, 
# crystal, experimental, refinement or atomic coordinate data resulting 
# from the CCDC's data processing and validation procedures.
#
#######################################################################

data_ZELPEN
_symmetry_cell_setting           triclinic
_symmetry_space_group_name_H-M   'P -1'
_symmetry_Int_Tables_number      2
_space_group_name_Hall           '-P 1'
loop_
_symmetry_equiv_pos_site_id
_symmetry_equiv_pos_as_xyz
1 x,y,z
2 -x,-y,-z
_cell_length_a                   9.5723(17)
_cell_length_b                   11.724(2)
_cell_length_c                   11.838(2)
_cell_angle_alpha                62.772(14)
_cell_angle_beta                 76.188(16)
_cell_angle_gamma                87.759(15)
_cell_volume                     1143.37
loop_
_atom_site_label
_atom_site_type_symbol
_atom_site_fract_x
_atom_site_fract_y
_atom_site_fract_z
C1 C 1.3824(13) 0.9976(11) 0.2661(11)
H1 H 1.3968 0.9094 0.2866
H2 H 1.4159 1.0179 0.3255
H3 H 1.4353 1.0526 0.1777
C2 C 0.7259(12) 1.2642(13) 0.3297(12)
H4 H 0.6779 1.2744 0.4052
H5 H 0.7279 1.3433 0.2517
H6 H 0.6748 1.1966 0.3276
C3 C 0.6421(13) 0.8681(12) 0.4634(13)
H7 H 0.6260 0.8786 0.3823
H8 H 0.6114 0.9413 0.4761
H9 H 0.5880 0.7915 0.5346
C4 C 1.1313(13) 1.2932(9) 0.0529(9)
C5 C 1.0178(14) 0.8604(10) 0.1878(10)
C6 C 1.0975(14) 1.4341(9) 0.3625(10)
O1 O 0.9391(9) 1.0460(6) 0.3242(6)
O2 O 1.0817(9) 0.8520(7) 0.4566(7)
O3 O 1.1454(9) 1.1601(6) 0.3582(7)
O4 O 1.1341(9) 0.9268(7) 0.1737(7)
O5 O 1.1938(9) 1.1863(7) 0.0947(7)
O6 O 1.0087(9) 1.3960(6) 0.3175(7)
O7 O 1.0227(9) 1.3141(7) 0.1314(7)
O8 O 0.9091(10) 0.8273(7) 0.2873(7)
O9 O 1.1576(10) 1.3512(7) 0.4516(8)
O10 O 1.0133(11) 0.8265(9) 0.1035(8)
O11 O 1.1238(11) 1.5513(7) 0.3183(9)
O12 O 1.570(3) 1.1177(19) -0.059(2)
O13 O 1.4415(12) 1.3236(10) -0.3119(11)
O14 O 1.2115(10) 0.8934(8) -0.1199(8)
O15 O 1.1733(9) 1.3782(7) -0.0636(7)
O16 O 0.7421(10) 0.3456(8) 0.5706(9)
O18 O 0.5997(12) 1.2925(9) 0.0463(10)
Sn1 Sn 1.16082(8) 1.02550(6) 0.28450(6)
Sn2 Sn 0.94010(8) 1.21669(6) 0.33982(6)
Sn3 Sn 0.86260(8) 0.85296(6) 0.45705(6)
K1 K 1.2790(4) 1.1078(3) -0.0941(3)
K2 K 0.8663(3) 1.4307(2) -0.0597(3)
K3 K 0.8227(3) 0.5828(2) 0.3378(3)
O2A O 0.9183(9) 1.1480(7) 0.5434(7)
O3A O 0.8546(9) 0.8399(6) 0.6418(7)
O6A O 0.9913(9) 1.6040(6) -0.3175(7)
O6_2 O 1.0087(9) 0.3960(6) 0.3175(7)
O7A O 0.9773(9) 1.6859(7) -0.1314(7)
O8A O 1.0909(10) 1.1727(7) -0.2873(7)
O9A O 0.8424(10) 0.6488(7) 0.5484(8)
O10A O 0.9867(11) 1.1735(9) -0.1035(8)
O11A O 0.8762(11) 1.4487(7) -0.3183(9)
O11_2 O 1.1238(11) 0.5513(7) 0.3183(9)
O12A O 1.430(3) 0.8823(19) 0.059(2)
O13A O 0.5585(12) 0.6764(10) 0.3119(11)
O15A O 0.8267(9) 0.6218(7) 0.0636(7)
Sn2A Sn 1.05990(8) 0.78331(6) 0.66018(6)
Sn3A Sn 1.13740(8) 1.14704(6) 0.54295(6)
K1A K 0.7210(4) 0.8922(3) 0.0941(3)
K1A_2 K 1.7210(4) 0.8922(3) 0.0941(3)
K2A K 1.1337(3) 1.5693(2) 0.0597(3)
K3_2 K 0.8227(3) 1.5828(2) 0.3378(3)
K3A K 1.1773(3) 1.4172(2) 0.6622(3)
K3A_2 K 1.1773(3) 1.4172(2) -0.3378(3)
O17 O 0.6427(12) 1.6323(9) -0.1693(9)
O19 O 0.5335(13) 0.5625(10) 0.1618(11)
loop_
_geom_bond_atom_site_label_1
_geom_bond_atom_site_label_2
_geom_bond_site_symmetry_1
_geom_bond_site_symmetry_2
C1 H1 1_555 1_555
H2 C1 1_555 1_555
H3 C1 1_555 1_555
C2 H4 1_555 1_555
H5 C2 1_555 1_555
H6 C2 1_555 1_555
C3 H7 1_555 1_555
H8 C3 1_555 1_555
H9 C3 1_555 1_555
C4 O5 1_555 1_555
C5 O4 1_555 1_555
C6 O6 1_555 1_555
O1 Sn1 1_555 1_555
O2 Sn1 1_555 1_555
O3 Sn1 1_555 1_555
O4 Sn1 1_555 1_555
O5 Sn1 1_555 1_555
O6 Sn2 1_555 1_555
O7 C4 1_555 1_555
O8 C5 1_555 1_555
O9 C6 1_555 1_555
O10 C5 1_555 1_555
O11 C6 1_555 1_555
O12 K1 1_555 1_555
O13 K1 1_555 1_555
O14 K1 1_555 1_555
O15 C4 1_555 1_555
O16 K3 1_555 1_555
O18 K2 1_555 1_555
Sn1 C1 1_555 1_555
Sn2 C2 1_555 1_555
Sn3 C3 1_555 1_555
K1 O4 1_555 1_555
K2 O7 1_555 1_555
K3 O8 1_555 1_555
O2A Sn2 1_555 1_555
O3A Sn3 1_555 1_555
O6A K2 1_555 1_555
O6_2 K3 1_555 1_555
O7A K2 1_555 1_555
O8A K1 1_555 1_555
O9A Sn3 1_555 1_555
O10A K1 1_555 1_555
O11A K2 1_555 1_555
O11_2 K3 1_555 1_555
O12A K1 1_555 1_555
O13A K3 1_555 1_555
O15A K3 1_555 1_555
Sn2A O2 1_555 1_555
Sn3A O3 1_555 1_555
K1A O8 1_555 1_555
K1A_2 O12 1_555 1_555
K2A O6 1_555 1_555
K3_2 O6 1_555 1_555
K3A O9 1_555 1_555
K3A_2 O13 1_555 1_555
O1 Sn2 1_555 1_555
O1 Sn3 1_555 1_555
O2 Sn3 1_555 1_555
O3 Sn2 1_555 1_555
O5 K1 1_555 1_555
O7 Sn2 1_555 1_555
O7 K2A 1_555 1_555
O8 Sn3 1_555 1_555
O9 Sn3A 1_555 1_555
O10 K1A 1_555 1_555
O11 K2A 1_555 1_555
O11 K3_2 1_555 1_555
O15 K2 1_555 1_555
O15 K3A_2 1_555 1_555
K3 O9A 1_555 1_555
O2A Sn3A 1_555 1_555
O3A Sn2A 1_555 1_555
O6A K3A_2 1_555 1_555
O7A K2A 1_555 1_555
O8A K3A_2 1_555 1_555
O11A K3A_2 1_555 1_555
O12A K1A_2 1_555 1_555
O13A K1A 1_555 1_555

#END
