
#######################################################################
#
#                 Cambridge Crystallographic Data Centre
#                                CCDC 
#
#######################################################################
#
# If this CIF has been generated from an entry in the Cambridge 
# Structural Database, then it will include bibliographic, chemical, 
# crystal, experimental, refinement or atomic coordinate data resulting 
# from the CCDC's data processing and validation procedures.
#
#######################################################################

data_ZELRAL
_symmetry_cell_setting           monoclinic
_symmetry_space_group_name_H-M   'C 2/m'
_symmetry_Int_Tables_number      12
_space_group_name_Hall           '-C 2y'
loop_
_symmetry_equiv_pos_site_id
_symmetry_equiv_pos_as_xyz
1 x,y,z
2 -x,y,-z
3 1/2+x,1/2+y,z
4 1/2-x,1/2+y,-z
5 -x,-y,-z
6 x,-y,z
7 1/2-x,1/2-y,-z
8 1/2+x,1/2-y,z
_cell_length_a                   14.5401(4)
_cell_length_b                   30.0895(11)
_cell_length_c                   19.4195(5)
_cell_angle_alpha                90
_cell_angle_beta                 97.7360(10)
_cell_angle_gamma                90
_cell_volume                     8418.79
loop_
_atom_site_label
_atom_site_type_symbol
_atom_site_fract_x
_atom_site_fract_y
_atom_site_fract_z
C37 C 1.0656(5) 0.8928(2) 1.1668(4)
H27 H 1.1255 0.8974 1.1565
C38 C 0.8998(7) 0.8933(4) 1.1243(6)
H28 H 0.8762 0.8664 1.1019
H29 H 0.8660 0.9182 1.1029
H30 H 0.8925 0.8921 1.1727
C39 C 1.0154(9) 0.9062(4) 1.0453(6)
H31 H 1.0758 0.9190 1.0451
H32 H 0.9690 0.9262 1.0236
H33 H 1.0119 0.8786 1.0203
N9 N 0.9996(6) 0.8980(3) 1.1171(4)
O1 O 1.0579(3) 0.88228(17) 1.2271(3)
C37A C 0.9344(5) 0.8928(2) 0.8332(4)
H27A H 0.8745 0.8974 0.8435
C38A C 1.1002(7) 0.8933(4) 0.8757(6)
H28A H 1.1238 0.8664 0.8981
H29A H 1.1340 0.9182 0.8971
H30A H 1.1075 0.8921 0.8273
C39A C 0.9846(9) 0.9062(4) 0.9547(6)
H31A H 0.9242 0.9190 0.9549
H32A H 1.0310 0.9262 0.9764
H33A H 0.9881 0.8786 0.9797
N9A N 1.0004(6) 0.8980(3) 0.8829(4)
O1A O 0.9421(3) 0.88228(17) 0.7729(3)
C1 C 0.9276(2) -0.22940(12) -0.16171(18)
H1 H 0.9670 -0.2421 -0.1902
C2 C 0.9546(3) -0.21719(13) -0.09272(19)
H2 H 1.0131 -0.2206 -0.0673
C3 C 0.8770(3) -0.19907(12) -0.06959(18)
H3 H 0.8737 -0.1875 -0.0256
C4 C 0.8039(2) -0.20141(10) -0.12489(16)
C5 C 0.7121(2) -0.18589(9) -0.12596(16)
C6 C 0.6433(2) -0.18841(10) -0.18203(16)
C7 C 0.5535(2) -0.16815(11) -0.19095(19)
H4 H 0.5280 -0.1515 -0.1579
C8 C 0.5121(2) -0.17758(12) -0.2563(2)
H5 H 0.4541 -0.1680 -0.2770
C9 C 0.5751(2) -0.20482(11) -0.28653(18)
H6 H 0.5635 -0.2169 -0.3310
C10 C 0.6886(2) -0.16434(10) -0.06099(17)
C11 C 0.6750(3) -0.11921(11) -0.05774(18)
H7 H 0.6775 -0.1020 -0.0972
C12 C 0.6576(3) -0.09895(11) 0.00343(18)
H8 H 0.6509 -0.0683 0.0055
C13 C 0.6505(2) -0.12466(10) 0.06097(16)
C14 C 0.6593(3) -0.17033(11) 0.05775(17)
H9 H 0.6519 -0.1878 0.0961
C15 C 0.6794(3) -0.18985(10) -0.00308(18)
H10 H 0.6868 -0.2205 -0.0050
C16 C 0.5780(2) -0.06885(10) 0.13065(16)
H11 H 0.5416 -0.0552 0.0936
C17 C 0.6423(3) -0.08484(11) 0.23335(17)
H12 H 0.6588 -0.0838 0.2813
C18 C 0.6749(3) -0.11474(11) 0.18990(17)
H13 H 0.7164 -0.1378 0.2022
C19 C 0.1389(2) 0.18169(11) 0.71952(18)
H14 H 0.1084 0.1913 0.7560
C20 C 0.1212(3) 0.14109(12) 0.6846(2)
H15 H 0.0791 0.1194 0.6939
C21 C 0.1789(3) 0.14001(12) 0.63403(19)
H16 H 0.1825 0.1174 0.6019
C22 C 0.2320(2) 0.17987(11) 0.63975(16)
C23 C 0.2997(2) 0.19370(11) 0.59969(16)
C24 C 0.3549(2) 0.23158(11) 0.61160(16)
C25 C 0.4201(2) 0.24858(14) 0.57014(18)
H17 H 0.4345 0.2363 0.5290
C26 C 0.4576(3) 0.28599(15) 0.60135(19)
H18 H 0.5022 0.3042 0.5858
C27 C 0.4151(2) 0.29176(12) 0.66241(18)
H19 H 0.4283 0.3149 0.6939
C28 C 0.3111(2) 0.16676(11) 0.53690(17)
C29 C 0.3415(4) 0.12044(19) 0.5434(3)
H20 H 0.3534 0.1072 0.5870
C30 C 0.3526(4) 0.09599(18) 0.4833(3)
H21 H 0.3709 0.0664 0.4854
C31 C 0.2971(5) 0.1593(2) 0.4140(3)
H22 H 0.2778 0.1719 0.3707
C32 C 0.2859(5) 0.1833(2) 0.4735(3)
H23 H 0.2601 0.2116 0.4689
C33 C 0.3334(2) 0.12018(13) 0.41687(18)
C34 C 0.4140(3) 0.06830(12) 0.34541(18)
H24 H 0.4630 0.0610 0.3794
C35 C 0.3223(3) 0.07126(13) 0.24890(18)
H25 H 0.2969 0.0658 0.2031
C36 C 0.2855(3) 0.09856(14) 0.2928(2)
H26 H 0.2316 0.1154 0.2833
N1 N 0.83771(19) -0.22052(9) -0.18167(14)
N2 N 0.65309(18) -0.21105(9) -0.24314(14)
N3 N 0.63418(19) -0.10397(8) 0.12450(13)
N4 N 0.58145(19) -0.05648(8) 0.19557(13)
N5 N 0.20500(19) 0.20491(9) 0.69394(14)
N6 N 0.35412(19) 0.25965(9) 0.66868(13)
N7 N 0.3441(2) 0.09650(11) 0.35450(15)
N8 N 0.4024(2) 0.05268(9) 0.28142(14)
Cl1 Cl 0.60992(10) 0.0000 0.35650(6)
Cl2 Cl 0.38841(9) 0.0000 0.11266(6)
Cu1 Cu 0.26357(3) 0.258572(12) 0.734244(19)
Cd1 Cd 0.49534(2) 0.0000 0.237711(15)
C1E C 0.9276(2) 0.22940(12) -0.16171(18)
H1E H 0.9670 0.2421 -0.1902
C2E C 0.9546(3) 0.21719(13) -0.09272(19)
H2E H 1.0131 0.2206 -0.0673
C3E C 0.8770(3) 0.19907(12) -0.06959(18)
H3E H 0.8737 0.1875 -0.0256
C4E C 0.8039(2) 0.20141(10) -0.12489(16)
C5E C 0.7121(2) 0.18589(9) -0.12596(16)
C6E C 0.6433(2) 0.18841(10) -0.18203(16)
C7E C 0.5535(2) 0.16815(11) -0.19095(19)
H4E H 0.5280 0.1515 -0.1579
C8E C 0.5121(2) 0.17758(12) -0.2563(2)
H5E H 0.4541 0.1680 -0.2770
C9E C 0.5751(2) 0.20482(11) -0.28653(18)
H6E H 0.5635 0.2169 -0.3310
C10E C 0.6886(2) 0.16434(10) -0.06099(17)
C11E C 0.6750(3) 0.11921(11) -0.05774(18)
H7E H 0.6775 0.1020 -0.0972
C12E C 0.6576(3) 0.09895(11) 0.00343(18)
H8E H 0.6509 0.0683 0.0055
C13E C 0.6505(2) 0.12466(10) 0.06097(16)
C14E C 0.6593(3) 0.17033(11) 0.05775(17)
H9E H 0.6519 0.1878 0.0961
C15E C 0.6794(3) 0.18985(10) -0.00308(18)
H10E H 0.6868 0.2205 -0.0050
C16E C 0.5780(2) 0.06885(10) 0.13065(16)
H11E H 0.5416 0.0552 0.0936
C17E C 0.6423(3) 0.08484(11) 0.23335(17)
H12E H 0.6588 0.0838 0.2813
C18E C 0.6749(3) 0.11474(11) 0.18990(17)
H13E H 0.7164 0.1378 0.2022
C19E C 0.1389(2) -0.18169(11) 0.71952(18)
H14E H 0.1084 -0.1913 0.7560
C20E C 0.1212(3) -0.14109(12) 0.6846(2)
H15E H 0.0791 -0.1194 0.6939
C21E C 0.1789(3) -0.14001(12) 0.63403(19)
H16E H 0.1825 -0.1174 0.6019
C22E C 0.2320(2) -0.17987(11) 0.63975(16)
C23E C 0.2997(2) -0.19370(11) 0.59969(16)
C24E C 0.3549(2) -0.23158(11) 0.61160(16)
C25E C 0.4201(2) -0.24858(14) 0.57014(18)
H17E H 0.4345 -0.2363 0.5290
C26E C 0.4576(3) -0.28599(15) 0.60135(19)
H18E H 0.5022 -0.3042 0.5858
C27E C 0.4151(2) -0.29176(12) 0.66241(18)
H19E H 0.4283 -0.3149 0.6939
C28E C 0.3111(2) -0.16676(11) 0.53690(17)
C29E C 0.3415(4) -0.12044(19) 0.5434(3)
H20E H 0.3534 -0.1072 0.5870
C30E C 0.3526(4) -0.09599(18) 0.4833(3)
H21E H 0.3709 -0.0664 0.4854
C31E C 0.2971(5) -0.1593(2) 0.4140(3)
H22E H 0.2778 -0.1719 0.3707
C32E C 0.2859(5) -0.1833(2) 0.4735(3)
H23E H 0.2601 -0.2116 0.4689
C33E C 0.3334(2) -0.12018(13) 0.41687(18)
C34E C 0.4140(3) -0.06830(12) 0.34541(18)
H24E H 0.4630 -0.0610 0.3794
C35E C 0.3223(3) -0.07126(13) 0.24890(18)
H25E H 0.2969 -0.0658 0.2031
C36E C 0.2855(3) -0.09856(14) 0.2928(2)
H26E H 0.2316 -0.1154 0.2833
N1E N 0.83771(19) 0.22052(9) -0.18167(14)
N1B N 0.33771(19) 0.27948(9) 0.81833(14)
N1G N 0.33771(19) -0.27948(9) 0.81833(14)
N2E N 0.65309(18) 0.21105(9) -0.24314(14)
N2B N 0.15309(18) 0.28895(9) 0.75686(14)
N2G N 0.15309(18) -0.28895(9) 0.75686(14)
N3E N 0.63418(19) 0.10397(8) 0.12450(13)
N4E N 0.58145(19) 0.05648(8) 0.19557(13)
N5E N 0.20500(19) -0.20491(9) 0.69394(14)
N6E N 0.35412(19) -0.25965(9) 0.66868(13)
N7E N 0.3441(2) -0.09650(11) 0.35450(15)
N8E N 0.4024(2) -0.05268(9) 0.28142(14)
Cu1E Cu 0.26357(3) -0.258572(12) 0.734244(19)
Cu1B Cu 0.76357(3) -0.241428(12) -0.265756(19)
Cu1G Cu 0.76357(3) 0.241428(12) -0.265756(19)
C40? C 0.4017(6) -0.1539(3) 0.5238(5)
C41? C 0.4122(6) -0.1318(3) 0.4617(5)
C42? C 0.2494(7) -0.1414(3) 0.4237(5)
C43? C 0.2406(6) -0.1636(3) 0.4837(4)
H34? H 0.4532 -0.1601 0.5562
H35? H 0.4710 -0.1252 0.4507
H36? H 0.2002 -0.1403 0.3878
H37? H 0.1842 -0.1772 0.4883
loop_
_geom_bond_atom_site_label_1
_geom_bond_atom_site_label_2
_geom_bond_site_symmetry_1
_geom_bond_site_symmetry_2
C1 H1 1_555 1_555
C2 C1 1_555 1_555
H2 C2 1_555 1_555
C3 C2 1_555 1_555
H3 C3 1_555 1_555
C4 C3 1_555 1_555
C5 C4 1_555 1_555
C6 C5 1_555 1_555
C7 C6 1_555 1_555
H4 C7 1_555 1_555
C8 C7 1_555 1_555
H5 C8 1_555 1_555
C9 C8 1_555 1_555
H6 C9 1_555 1_555
C10 C5 1_555 1_555
C11 C10 1_555 1_555
H7 C11 1_555 1_555
C12 C11 1_555 1_555
H8 C12 1_555 1_555
C13 C12 1_555 1_555
C14 C13 1_555 1_555
H9 C14 1_555 1_555
C15 C10 1_555 1_555
H10 C15 1_555 1_555
C16 H11 1_555 1_555
C17 H12 1_555 1_555
C18 C17 1_555 1_555
H13 C18 1_555 1_555
C19 H14 1_555 1_555
C20 C19 1_555 1_555
H15 C20 1_555 1_555
C21 C20 1_555 1_555
H16 C21 1_555 1_555
C22 C21 1_555 1_555
C23 C22 1_555 1_555
C24 C23 1_555 1_555
C25 C24 1_555 1_555
H17 C25 1_555 1_555
C26 C25 1_555 1_555
H18 C26 1_555 1_555
C27 C26 1_555 1_555
H19 C27 1_555 1_555
C28 C23 1_555 1_555
C29 C28 1_555 1_555
H20 C29 1_555 1_555
C30 C29 1_555 1_555
H21 C30 1_555 1_555
C31 H22 1_555 1_555
C32 C28 1_555 1_555
H23 C32 1_555 1_555
C33 C30 1_555 1_555
C34 H24 1_555 1_555
C35 H25 1_555 1_555
C36 C35 1_555 1_555
H26 C36 1_555 1_555
N1 C1 1_555 1_555
N2 C6 1_555 1_555
N3 C13 1_555 1_555
N4 C16 1_555 1_555
N5 C19 1_555 1_555
N6 C24 1_555 1_555
N7 C33 1_555 1_555
N8 C34 1_555 1_555
Cl1 Cd1 1_555 1_555
Cl2 Cd1 1_555 1_555
Cu1 N5 1_555 1_555
Cd1 N4 1_555 1_555
C37 H27 1_555 1_555
C38 H28 1_555 1_555
H29 C38 1_555 1_555
H30 C38 1_555 1_555
C39 H31 1_555 1_555
H32 C39 1_555 1_555
H33 C39 1_555 1_555
N9 C37 1_555 1_555
O1 C37 1_555 1_555
C1E H1E 1_555 1_555
C2E C1E 1_555 1_555
H2E C2E 1_555 1_555
C3E C2E 1_555 1_555
H3E C3E 1_555 1_555
C4E C3E 1_555 1_555
C5E C4E 1_555 1_555
C6E C5E 1_555 1_555
C7E C6E 1_555 1_555
H4E C7E 1_555 1_555
C8E C7E 1_555 1_555
H5E C8E 1_555 1_555
C9E C8E 1_555 1_555
H6E C9E 1_555 1_555
C10E C5E 1_555 1_555
C11E C10E 1_555 1_555
H7E C11E 1_555 1_555
C12E C11E 1_555 1_555
H8E C12E 1_555 1_555
C13E C12E 1_555 1_555
C14E C13E 1_555 1_555
H9E C14E 1_555 1_555
C15E C10E 1_555 1_555
H10E C15E 1_555 1_555
C16E H11E 1_555 1_555
C17E H12E 1_555 1_555
C18E C17E 1_555 1_555
H13E C18E 1_555 1_555
C19E H14E 1_555 1_555
C20E C19E 1_555 1_555
H15E C20E 1_555 1_555
C21E C20E 1_555 1_555
H16E C21E 1_555 1_555
C22E C21E 1_555 1_555
C23E C22E 1_555 1_555
C24E C23E 1_555 1_555
C25E C24E 1_555 1_555
H17E C25E 1_555 1_555
C26E C25E 1_555 1_555
H18E C26E 1_555 1_555
C27E C26E 1_555 1_555
H19E C27E 1_555 1_555
C28E C23E 1_555 1_555
C29E C28E 1_555 1_555
H20E C29E 1_555 1_555
C30E C29E 1_555 1_555
H21E C30E 1_555 1_555
C31E H22E 1_555 1_555
C32E C28E 1_555 1_555
H23E C32E 1_555 1_555
C33E C30E 1_555 1_555
C34E H24E 1_555 1_555
C35E H25E 1_555 1_555
C36E C35E 1_555 1_555
H26E C36E 1_555 1_555
N1E C1E 1_555 1_555
N1B Cu1 1_555 1_555
N1G Cu1E 1_555 1_555
N2E C6E 1_555 1_555
N2B Cu1 1_555 1_555
N2G Cu1E 1_555 1_555
N3E C13E 1_555 1_555
N4E Cd1 1_555 1_555
N5E C19E 1_555 1_555
N6E C24E 1_555 1_555
N7E C33E 1_555 1_555
N8E Cd1 1_555 1_555
Cu1E N5E 1_555 1_555
Cu1B N1 1_555 1_555
Cu1G N1E 1_555 1_555
C37A H27A 1_555 1_555
C38A H28A 1_555 1_555
H29A C38A 1_555 1_555
H30A C38A 1_555 1_555
C39A C39 1_555 1_555
H31A C39A 1_555 1_555
H32A C39A 1_555 1_555
H33A C39A 1_555 1_555
N9A C37A 1_555 1_555
O1A C37A 1_555 1_555
C4 N1 1_555 1_555
C9 N2 1_555 1_555
C14 C15 1_555 1_555
C16 N3 1_555 1_555
C17 N4 1_555 1_555
C18 N3 1_555 1_555
C22 N5 1_555 1_555
C27 N6 1_555 1_555
C31 C32 1_555 1_555
C31 C33 1_555 1_555
C34 N7 1_555 1_555
C35 N8 1_555 1_555
C36 N7 1_555 1_555
N2 Cu1B 1_555 1_555
N6 Cu1 1_555 1_555
N8 Cd1 1_555 1_555
C38 N9 1_555 1_555
C39 N9 1_555 1_555
C4E N1E 1_555 1_555
C9E N2E 1_555 1_555
C14E C15E 1_555 1_555
C16E N3E 1_555 1_555
C16E N4E 1_555 1_555
C17E N4E 1_555 1_555
C18E N3E 1_555 1_555
C22E N5E 1_555 1_555
C27E N6E 1_555 1_555
C31E C32E 1_555 1_555
C31E C33E 1_555 1_555
C34E N7E 1_555 1_555
C34E N8E 1_555 1_555
C35E N8E 1_555 1_555
C36E N7E 1_555 1_555
N2E Cu1G 1_555 1_555
N6E Cu1E 1_555 1_555
C38A N9A 1_555 1_555
C39A N9A 1_555 1_555

#END
