
#######################################################################
#
#                 Cambridge Crystallographic Data Centre
#                                CCDC 
#
#######################################################################
#
# If this CIF has been generated from an entry in the Cambridge 
# Structural Database, then it will include bibliographic, chemical, 
# crystal, experimental, refinement or atomic coordinate data resulting 
# from the CCDC's data processing and validation procedures.
#
#######################################################################

data_ZEMCOJ
_symmetry_cell_setting           triclinic
_symmetry_space_group_name_H-M   'P -1'
_symmetry_Int_Tables_number      2
_space_group_name_Hall           '-P 1'
loop_
_symmetry_equiv_pos_site_id
_symmetry_equiv_pos_as_xyz
1 x,y,z
2 -x,-y,-z
_cell_length_a                   10.460(5)
_cell_length_b                   10.861(7)
_cell_length_c                   17.330(12)
_cell_angle_alpha                71.76(5)
_cell_angle_beta                 88.57(5)
_cell_angle_gamma                87.22(5)
_cell_volume                     1867.57
loop_
_atom_site_label
_atom_site_type_symbol
_atom_site_fract_x
_atom_site_fract_y
_atom_site_fract_z
Ag1 Ag 0.0000 0.0000 0.0000
Ag2 Ag 0.0200(1) -0.0022(1) -0.2508(1)
Ag3 Ag 0.0000 0.0000 -0.5000
P1 P -0.1085(4) 0.0041(4) -0.1211(2)
P2 P -0.1104(4) -0.0049(5) -0.3755(2)
P3 P 0.1406(5) 0.1994(5) -0.3289(3)
P4 P 0.1580(5) -0.1997(5) -0.1786(5)
C1 C -0.2269(15) 0.1346(16) -0.1275(9)
C2 C -0.1868(16) 0.2656(19) -0.1495(12)
C3 C -0.2723(23) 0.3660(19) -0.1525(13)
C4 C -0.4006(21) 0.3398(22) -0.1337(15)
C5 C -0.4448(19) 0.2236(24) -0.1185(17)
C6 C -0.3592(17) 0.1109(22) -0.1121(14)
C7 C -0.2120(16) -0.1411(17) -0.0960(9)
C8 C -0.2245(25) -0.2269(18) -0.0170(10)
C9 C -0.2971(25) -0.3321(24) -0.0011(15)
C10 C -0.3578(23) -0.3653(20) -0.0598(13)
C11 C -0.3495(20) -0.2781(19) -0.1375(13)
C12 C -0.2766(16) -0.1691(18) -0.1560(11)
C13 C -0.2177(15) -0.1394(16) -0.3659(9)
C14 C -0.1654(18) -0.2683(17) -0.3504(13)
C15 C -0.2411(21) -0.3698(22) -0.3466(13)
C16 C -0.3770(23) -0.3471(21) -0.3534(12)
C17 C -0.4300(19) -0.2296(19) -0.3661(13)
C18 C -0.3535(16) -0.1232(17) -0.3704(11)
C19 C -0.2229(19) 0.1343(18) -0.3981(9)
C20 C -0.2785(18) 0.1784(17) -0.3366(10)
C21 C -0.3618(21) 0.2823(20) -0.3484(12)
C22 C -0.3945(26) 0.3492(22) -0.4298(14)
C23 C -0.3438(25) 0.3061(21) -0.4899(15)
C24 C -0.2624(24) 0.2065(20) -0.4787(12)
C25 C 0.0294(22) 0.3466(20) -0.3708(14)
C26 C 0.0874(28) 0.4747(23) -0.4097(18)
C27 C 0.2603(21) 0.2640(19) -0.2776(12)
C28 C 0.2031(17) 0.2889(31) -0.2018(16)
C29 C 0.2267(24) 0.1923(22) -0.4199(11)
C30 C 0.3254(30) 0.0792(25) -0.4040(15)
C31 C 0.2745(39) -0.2922(47) -0.2196(26)
C32 C 0.2245(26) -0.2920(32) -0.2821(27)
C33 C 0.0882(29) -0.3290(22) -0.1044(16)
C34 C -0.0024(27) -0.4044(29) -0.1355(20)
C35 C 0.2620(47) -0.1724(56) -0.0869(21)
C36 C 0.3331(58) -0.0679(35) -0.1123(34)
H1 H -0.0992(16) 0.2828(19) -0.1621(12)
H2 H -0.2449(23) 0.4525(19) -0.1673(13)
H3 H -0.4583(21) 0.4091(22) -0.1318(15)
H4 H -0.5343(19) 0.2126(24) -0.1115(17)
H5 H -0.3902(17) 0.0259(22) -0.0983(14)
H6 H -0.1812(25) -0.2110(18) 0.0263(10)
H7 H -0.3061(25) -0.3853(24) 0.0537(15)
H8 H -0.4028(23) -0.4430(20) -0.0483(13)
H9 H -0.3956(20) -0.2937(19) -0.1799(13)
H10 H -0.2714(16) -0.1136(18) -0.2105(11)
H11 H -0.0759(18) -0.2844(17) -0.3425(13)
H12 H -0.2039(21) -0.4541(22) -0.3395(13)
H13 H -0.4300(23) -0.4178(21) -0.3487(12)
H14 H -0.5200(19) -0.2162(91) -0.3724(13)
H15 H -0.3933(16) -0.0403(17) -0.3764(11)
H16 H -0.2559(18) 0.1318(17) -0.2822(10)
H17 H -0.3961(21) 0.3084(20) -0.3044(12)
H18 H -0.4514(26) 0.4235(22) -0.4423(14)
H19 H -0.3690(25) 0.3513(21) -0.5441(15)
H20 H -0.2299(24) 0.1824(20) -0.5238(12)
H21 H -0.0261(22) 0.3292(20) -0.4114(14)
H22 H -0.0369(22) 0.3549(2) -0.3258(14)
H23 H 0.055(16) 0.5368(62) -0.3825(85)
H24 H 0.064(17) 0.507(10) -0.4675(34)
H25 H 0.1807(30) 0.4644(46) -0.405(12)
H26 H 0.3342(21) 0.2012(19) -0.2622(12)
H27 H 0.2914(21) 0.3460(19) -0.3154(12)
H28 H 0.154(12) 0.372(11) -0.2175(20)
H29 H 0.2721(28) 0.292(22) -0.1655(64)
H30 H 0.147(17) 0.219(11) -0.1738(74)
H31 H 0.1643(24) 0.1846(22) -0.4601(11)
H32 H 0.2706(24) 0.2746(22) -0.4440(11)
H33 H 0.378(13) 0.089(11) -0.4530(43)
H34 H 0.2814(30) -0.0027(28) -0.390(12)
H35 H 0.380(12) 0.079(12) -0.3589(81)
H36 H 0.3576(39) -0.2497(47) -0.2307(26)
H37 H 0.2880(39) -0.3816(47) -0.1822(26)
H38 H 0.263(17) -0.363(16) -0.2999(88)
H39 H 0.238(21) -0.209(10) -0.3242(52)
H40 H 0.1325(48) -0.304(25) -0.2725(48)
H41 H 0.1575(29) -0.3894(22) -0.0749(16)
H42 H 0.0417(29) -0.2942(22) -0.0647(16)
H43 H -0.054(15) -0.457(17) -0.0903(28)
H44 H 0.0462(18) -0.462(16) -0.161(12)
H45 H -0.059(14) -0.3443(31) -0.1760(99)
H46 H 0.2027(47) -0.1628(56) -0.0435(21)
H47 H 0.3188(47) -0.2501(56) -0.0633(21)
H48 H 0.394(30) -0.0781(20) -0.154(21)
H49 H 0.380(35) -0.059(26) -0.0663(65)
H50 H 0.2774(69) 0.0095(66) -0.135(26)
P2A P 0.1104(4) 0.0049(5) -0.6245(2)
Ag2A Ag -0.0200(1) 0.0022(1) -0.7492(1)
P1A P 0.1085(4) -0.0041(4) -0.8789(2)
Ag1A Ag 0.0000 0.0000 -1.0000
C1A C 0.2269(15) -0.1346(16) -0.8725(9)
C2A C 0.1868(16) -0.2656(19) -0.8505(12)
C3A C 0.2723(23) -0.3660(19) -0.8475(13)
C4A C 0.4006(21) -0.3398(22) -0.8663(15)
C5A C 0.4448(19) -0.2236(24) -0.8815(17)
C6A C 0.3592(17) -0.1109(22) -0.8879(14)
H5A H 0.3902(17) -0.0259(22) -0.9017(14)
H4A H 0.5343(19) -0.2126(24) -0.8885(17)
H3A H 0.4583(21) -0.4091(22) -0.8682(15)
H2A H 0.2449(23) -0.4525(19) -0.8327(13)
H1A H 0.0992(16) -0.2828(19) -0.8379(12)
C7A C 0.2120(16) 0.1411(17) -0.9040(9)
C8A C 0.2245(25) 0.2269(18) -0.9830(10)
C9A C 0.2971(25) 0.3321(24) -0.9989(15)
C10A C 0.3578(23) 0.3653(20) -0.9402(13)
C11A C 0.3495(20) 0.2781(19) -0.8625(13)
C12A C 0.2766(16) 0.1691(18) -0.8440(11)
H10A H 0.2714(16) 0.1136(18) -0.7895(11)
H9A H 0.3956(20) 0.2937(19) -0.8201(13)
H8A H 0.4028(23) 0.4430(20) -0.9517(13)
H7A H 0.3061(25) 0.3853(24) -1.0537(15)
H6A H 0.1812(25) 0.2110(18) -1.0263(10)
P3A P -0.1406(5) -0.1994(5) -0.6711(3)
C25A C -0.0294(22) -0.3466(20) -0.6292(14)
C26A C -0.0874(28) -0.4747(23) -0.5903(18)
H23A H -0.055(16) -0.5368(62) -0.6175(85)
H24A H -0.064(17) -0.507(10) -0.5325(34)
H25A H -0.1807(30) -0.4644(46) -0.595(12)
H21A H 0.0261(22) -0.3292(20) -0.5886(14)
H22A H 0.0369(22) -0.3549(2) -0.6742(14)
C27A C -0.2603(21) -0.2640(19) -0.7224(12)
C28A C -0.2031(17) -0.2889(31) -0.7982(16)
H28A H -0.154(12) -0.372(11) -0.7825(20)
H29A H -0.2721(28) -0.292(22) -0.8345(64)
H30A H -0.147(17) -0.219(11) -0.8262(74)
H26A H -0.3342(21) -0.2012(19) -0.7378(12)
H27A H -0.2914(21) -0.3460(19) -0.6846(12)
C29A C -0.2267(24) -0.1923(22) -0.5801(11)
C30A C -0.3254(30) -0.0792(25) -0.5960(15)
H33A H -0.378(13) -0.089(11) -0.5470(43)
H34A H -0.2814(30) 0.0027(28) -0.610(12)
H35A H -0.380(12) -0.079(12) -0.6411(81)
H31A H -0.1643(24) -0.1846(22) -0.5399(11)
H32A H -0.2706(24) -0.2746(22) -0.5560(11)
P4A P -0.1580(5) 0.1997(5) -0.8214(5)
C31A C -0.2745(39) 0.2922(47) -0.7804(26)
C32A C -0.2245(26) 0.2920(32) -0.7179(27)
H38A H -0.263(17) 0.363(16) -0.7001(88)
H39A H -0.238(21) 0.209(10) -0.6758(52)
H40A H -0.1325(48) 0.304(25) -0.7275(48)
H36A H -0.3576(39) 0.2497(47) -0.7693(26)
H37A H -0.2880(39) 0.3816(47) -0.8178(26)
C33A C -0.0882(29) 0.3290(22) -0.8956(16)
C34A C 0.0024(27) 0.4044(29) -0.8645(20)
H43A H 0.054(15) 0.457(17) -0.9097(28)
H44A H -0.0462(18) 0.462(16) -0.839(12)
H45A H 0.059(14) 0.3443(31) -0.8240(99)
H41A H -0.1575(29) 0.3894(22) -0.9251(16)
H42A H -0.0417(29) 0.2942(22) -0.9353(16)
C35A C -0.2620(47) 0.1724(56) -0.9131(21)
C36A C -0.3331(58) 0.0679(35) -0.8877(34)
H48A H -0.394(30) 0.0781(20) -0.846(21)
H49A H -0.380(35) 0.059(26) -0.9337(65)
H50A H -0.2774(69) -0.0095(66) -0.865(26)
H46A H -0.2027(47) 0.1628(56) -0.9565(21)
H47A H -0.3188(47) 0.2501(56) -0.9367(21)
C13A C 0.2177(15) 0.1394(16) -0.6341(9)
C14A C 0.1654(18) 0.2683(17) -0.6496(13)
C15A C 0.2411(21) 0.3698(22) -0.6534(13)
C16A C 0.3770(23) 0.3471(21) -0.6466(12)
C17A C 0.4300(19) 0.2296(19) -0.6339(13)
C18A C 0.3535(16) 0.1232(17) -0.6296(11)
H15A H 0.3933(16) 0.0403(17) -0.6236(11)
H14A H 0.5200(19) 0.2162(91) -0.6276(13)
H13A H 0.4300(23) 0.4178(21) -0.6513(12)
H12A H 0.2039(21) 0.4541(22) -0.6605(13)
H11A H 0.0759(18) 0.2844(17) -0.6575(13)
C19A C 0.2229(19) -0.1343(18) -0.6019(9)
C20A C 0.2785(18) -0.1784(17) -0.6634(10)
C21A C 0.3618(21) -0.2823(20) -0.6516(12)
C22A C 0.3945(26) -0.3492(22) -0.5702(14)
C23A C 0.3438(25) -0.3061(21) -0.5101(15)
C24A C 0.2624(24) -0.2065(20) -0.5213(12)
H20A H 0.2299(24) -0.1824(20) -0.4762(12)
H19A H 0.3690(25) -0.3513(21) -0.4559(15)
H18A H 0.4514(26) -0.4235(22) -0.5577(14)
H17A H 0.3961(21) -0.3084(20) -0.6956(12)
H16A H 0.2559(18) -0.1318(17) -0.7178(10)
P1A_2 P 0.1085(4) -0.0041(4) 0.1211(2)
loop_
_geom_bond_atom_site_label_1
_geom_bond_atom_site_label_2
_geom_bond_site_symmetry_1
_geom_bond_site_symmetry_2
Ag1 P1 1_555 1_555
Ag2 P1 1_555 1_555
Ag3 P2 1_555 1_555
P1 C1 1_555 1_555
P2 Ag2 1_555 1_555
P3 Ag2 1_555 1_555
P4 Ag2 1_555 1_555
C1 C2 1_555 1_555
C2 C3 1_555 1_555
C3 C4 1_555 1_555
C4 C5 1_555 1_555
C5 C6 1_555 1_555
C6 C1 1_555 1_555
C7 P1 1_555 1_555
C8 C7 1_555 1_555
C9 C8 1_555 1_555
C10 C9 1_555 1_555
C11 C10 1_555 1_555
C12 C7 1_555 1_555
C13 P2 1_555 1_555
C14 C13 1_555 1_555
C15 C14 1_555 1_555
C16 C15 1_555 1_555
C17 C16 1_555 1_555
C18 C13 1_555 1_555
C19 P2 1_555 1_555
C20 C19 1_555 1_555
C21 C20 1_555 1_555
C22 C21 1_555 1_555
C23 C22 1_555 1_555
C24 C19 1_555 1_555
C25 P3 1_555 1_555
C26 C25 1_555 1_555
C27 P3 1_555 1_555
C28 C27 1_555 1_555
C29 P3 1_555 1_555
C30 C29 1_555 1_555
C31 P4 1_555 1_555
C32 C31 1_555 1_555
C33 P4 1_555 1_555
C34 C33 1_555 1_555
C35 P4 1_555 1_555
C36 C35 1_555 1_555
H1 C2 1_555 1_555
H2 C3 1_555 1_555
H3 C4 1_555 1_555
H4 C5 1_555 1_555
H5 C6 1_555 1_555
H6 C8 1_555 1_555
H7 C9 1_555 1_555
H8 C10 1_555 1_555
H9 C11 1_555 1_555
H10 C12 1_555 1_555
H11 C14 1_555 1_555
H12 C15 1_555 1_555
H13 C16 1_555 1_555
H14 C17 1_555 1_555
H15 C18 1_555 1_555
H16 C20 1_555 1_555
H17 C21 1_555 1_555
H18 C22 1_555 1_555
H19 C23 1_555 1_555
H20 C24 1_555 1_555
H21 C25 1_555 1_555
H22 C25 1_555 1_555
H23 C26 1_555 1_555
H24 C26 1_555 1_555
H25 C26 1_555 1_555
H26 C27 1_555 1_555
H27 C27 1_555 1_555
H28 C28 1_555 1_555
H29 C28 1_555 1_555
H30 C28 1_555 1_555
H31 C29 1_555 1_555
H32 C29 1_555 1_555
H33 C30 1_555 1_555
H34 C30 1_555 1_555
H35 C30 1_555 1_555
H36 C31 1_555 1_555
H37 C31 1_555 1_555
H38 C32 1_555 1_555
H39 C32 1_555 1_555
H40 C32 1_555 1_555
H41 C33 1_555 1_555
H42 C33 1_555 1_555
H43 C34 1_555 1_555
H44 C34 1_555 1_555
H45 C34 1_555 1_555
H46 C35 1_555 1_555
H47 C35 1_555 1_555
H48 C36 1_555 1_555
H49 C36 1_555 1_555
H50 C36 1_555 1_555
P2A Ag3 1_555 1_555
Ag2A P2A 1_555 1_555
P1A Ag2A 1_555 1_555
Ag1A P1A 1_555 1_555
C1A P1A 1_555 1_555
C2A C1A 1_555 1_555
C3A C2A 1_555 1_555
C4A C3A 1_555 1_555
C5A C4A 1_555 1_555
C6A C1A 1_555 1_555
H5A C6A 1_555 1_555
H4A C5A 1_555 1_555
H3A C4A 1_555 1_555
H2A C3A 1_555 1_555
H1A C2A 1_555 1_555
C7A P1A 1_555 1_555
C8A C7A 1_555 1_555
C9A C8A 1_555 1_555
C10A C9A 1_555 1_555
C11A C10A 1_555 1_555
C12A C7A 1_555 1_555
H10A C12A 1_555 1_555
H9A C11A 1_555 1_555
H8A C10A 1_555 1_555
H7A C9A 1_555 1_555
H6A C8A 1_555 1_555
P3A Ag2A 1_555 1_555
C25A P3A 1_555 1_555
C26A C25A 1_555 1_555
H23A C26A 1_555 1_555
H24A C26A 1_555 1_555
H25A C26A 1_555 1_555
H21A C25A 1_555 1_555
H22A C25A 1_555 1_555
C27A P3A 1_555 1_555
C28A C27A 1_555 1_555
H28A C28A 1_555 1_555
H29A C28A 1_555 1_555
H30A C28A 1_555 1_555
H26A C27A 1_555 1_555
H27A C27A 1_555 1_555
C29A P3A 1_555 1_555
C30A C29A 1_555 1_555
H33A C30A 1_555 1_555
H34A C30A 1_555 1_555
H35A C30A 1_555 1_555
H31A C29A 1_555 1_555
H32A C29A 1_555 1_555
P4A Ag2A 1_555 1_555
C31A P4A 1_555 1_555
C32A C31A 1_555 1_555
H38A C32A 1_555 1_555
H39A C32A 1_555 1_555
H40A C32A 1_555 1_555
H36A C31A 1_555 1_555
H37A C31A 1_555 1_555
C33A P4A 1_555 1_555
C34A C33A 1_555 1_555
H43A C34A 1_555 1_555
H44A C34A 1_555 1_555
H45A C34A 1_555 1_555
H41A C33A 1_555 1_555
H42A C33A 1_555 1_555
C35A P4A 1_555 1_555
C36A C35A 1_555 1_555
H48A C36A 1_555 1_555
H49A C36A 1_555 1_555
H50A C36A 1_555 1_555
H46A C35A 1_555 1_555
H47A C35A 1_555 1_555
C13A P2A 1_555 1_555
C14A C13A 1_555 1_555
C15A C14A 1_555 1_555
C16A C15A 1_555 1_555
C17A C16A 1_555 1_555
C18A C13A 1_555 1_555
H15A C18A 1_555 1_555
H14A C17A 1_555 1_555
H13A C16A 1_555 1_555
H12A C15A 1_555 1_555
H11A C14A 1_555 1_555
C19A P2A 1_555 1_555
C20A C19A 1_555 1_555
C21A C20A 1_555 1_555
C22A C21A 1_555 1_555
C23A C22A 1_555 1_555
C24A C19A 1_555 1_555
H20A C24A 1_555 1_555
H19A C23A 1_555 1_555
H18A C22A 1_555 1_555
H17A C21A 1_555 1_555
H16A C20A 1_555 1_555
P1A_2 Ag1 1_555 1_555
C11 C12 1_555 1_555
C17 C18 1_555 1_555
C23 C24 1_555 1_555
C5A C6A 1_555 1_555
C11A C12A 1_555 1_555
C17A C18A 1_555 1_555
C23A C24A 1_555 1_555

#END
