
#######################################################################
#
#                 Cambridge Crystallographic Data Centre
#                                CCDC 
#
#######################################################################
#
# If this CIF has been generated from an entry in the Cambridge 
# Structural Database, then it will include bibliographic, chemical, 
# crystal, experimental, refinement or atomic coordinate data resulting 
# from the CCDC's data processing and validation procedures.
#
#######################################################################

data_ZENBAV
_symmetry_cell_setting           orthorhombic
_symmetry_space_group_name_H-M   'P 21 21 21'
_symmetry_Int_Tables_number      19
_space_group_name_Hall           'P 2ac 2ab'
loop_
_symmetry_equiv_pos_site_id
_symmetry_equiv_pos_as_xyz
1 x,y,z
2 1/2-x,-y,1/2+z
3 1/2+x,1/2-y,-z
4 -x,1/2+y,1/2-z
_cell_length_a                   6.724(1)
_cell_length_b                   8.721(1)
_cell_length_c                   18.692(3)
_cell_angle_alpha                90
_cell_angle_beta                 90
_cell_angle_gamma                90
_cell_volume                     1096.1
loop_
_atom_site_label
_atom_site_type_symbol
_atom_site_fract_x
_atom_site_fract_y
_atom_site_fract_z
Cu1 Cu 0.0751(1) 0.3680(1) 0.9141(1)
O1 O 0.1805(5) 0.1551(4) 0.9200(2)
O2 O -0.0833(5) 0.5547(4) 0.9046(2)
O3 O -0.0871(6) 0.3092(4) 0.9975(2)
O4 O -0.2227(7) 0.7644(4) 0.9445(2)
O5 O 0.3333(6) 0.4894(4) 0.9660(2)
N1 N 0.1750(6) 0.3930(5) 0.8153(2)
N2 N 0.1946(7) 0.3514(6) 0.6993(2)
C1 C 0.1558(7) 0.2925(6) 0.7631(3)
C2 C 0.2433(8) 0.5033(7) 0.7080(3)
C3 C 0.2947(7) 0.6189(8) 0.6599(3)
C4 C 0.3367(9) 0.7617(7) 0.6877(3)
C5 C 0.3275(9) 0.7885(7) 0.7629(3)
C6 C 0.2766(8) 0.6739(6) 0.8094(3)
C7 C 0.2313(7) 0.5292(6) 0.7818(2)
C8 C -0.1952(7) 0.3931(5) 1.0353(2)
C9 C -0.1768(8) 0.5674(5) 1.0299(2)
C10 C -0.1600(6) 0.6310(5) 0.9539(2)
H1 H 0.119 0.190 0.770
H2 H 0.190 0.303 0.659
H3 H 0.301 0.600 0.611
H4 H 0.371 0.841 0.657
H5 H 0.357 0.886 0.781
H6 H 0.272 0.692 0.858
H7 H -0.060 0.599 1.057
H8 H -0.292 0.613 1.053
H9 H 0.319 0.562 1.002
H10 H 0.445 0.427 0.979
O1B O -0.3195(5) 0.3449(4) 1.0800(2)
Cu1B Cu -0.4249(1) 0.1320(1) 1.0859(1)
loop_
_geom_bond_atom_site_label_1
_geom_bond_atom_site_label_2
_geom_bond_site_symmetry_1
_geom_bond_site_symmetry_2
Cu1 O1 1_555 1_555
O2 Cu1 1_555 1_555
O3 Cu1 1_555 1_555
O4 C10 1_555 1_555
O5 Cu1 1_555 1_555
N1 Cu1 1_555 1_555
N2 C1 1_555 1_555
C1 N1 1_555 1_555
C2 N2 1_555 1_555
C3 C2 1_555 1_555
C4 C3 1_555 1_555
C5 C4 1_555 1_555
C6 C5 1_555 1_555
C7 N1 1_555 1_555
C8 O3 1_555 1_555
C9 C8 1_555 1_555
C10 O2 1_555 1_555
H1 C1 1_555 1_555
H2 N2 1_555 1_555
H3 C3 1_555 1_555
H4 C4 1_555 1_555
H5 C5 1_555 1_555
H6 C6 1_555 1_555
H7 C9 1_555 1_555
H8 C9 1_555 1_555
H9 O5 1_555 1_555
H10 O5 1_555 1_555
O1B C8 1_555 1_555
Cu1B O1B 1_555 1_555
C2 C7 1_555 1_555
C6 C7 1_555 1_555
C9 C10 1_555 1_555

#END
