
#######################################################################
#
#                 Cambridge Crystallographic Data Centre
#                                CCDC 
#
#######################################################################
#
# If this CIF has been generated from an entry in the Cambridge 
# Structural Database, then it will include bibliographic, chemical, 
# crystal, experimental, refinement or atomic coordinate data resulting 
# from the CCDC's data processing and validation procedures.
#
#######################################################################

data_ZEPWUO
_symmetry_cell_setting           triclinic
_symmetry_space_group_name_H-M   'P -1'
_symmetry_Int_Tables_number      2
_space_group_name_Hall           '-P 1'
loop_
_symmetry_equiv_pos_site_id
_symmetry_equiv_pos_as_xyz
1 x,y,z
2 -x,-y,-z
_cell_length_a                   6.2587(10)
_cell_length_b                   15.6631(10)
_cell_length_c                   20.6525(10)
_cell_angle_alpha                71.130(10)
_cell_angle_beta                 81.663(10)
_cell_angle_gamma                82.453(10)
_cell_volume                     1887.8
loop_
_atom_site_label
_atom_site_type_symbol
_atom_site_fract_x
_atom_site_fract_y
_atom_site_fract_z
Ag1 Ag 0.39801(12) 0.49450(4) 0.12249(3)
N1 N 0.4727(10) 0.6324(4) 0.1148(3)
H1 H 0.6089 0.6287 0.1254
H2 H 0.4695 0.6676 0.0708
N2 N 0.4373(10) 1.3569(4) 0.1127(3)
H3 H 0.3378 1.3536 0.0865
H4 H 0.5689 1.3489 0.0902
N3 N -0.0048(9) 0.5200(4) 0.1555(3)
H5 H -0.0335 0.5804 0.1449
H6 H -0.0689 0.5034 0.1257
C1 C -0.1224(10) 0.4843(4) 0.2196(3)
C2 C -0.2644(11) 0.4186(5) 0.2310(3)
H7 H -0.2847 0.3983 0.1948
C3 C -0.3742(11) 0.3835(4) 0.2939(4)
H8 H -0.4646 0.3383 0.2998
C4 C -0.3574(11) 0.4124(4) 0.3506(3)
C5 C -0.2129(11) 0.4781(4) 0.3380(4)
H9 H -0.1935 0.4997 0.3736
C6 C -0.0982(12) 0.5119(5) 0.2744(4)
H10 H -0.0014 0.5547 0.2685
C7 C -0.4721(12) 0.3701(4) 0.4212(3)
C8 C -0.3511(15) 0.2802(5) 0.4542(4)
H11 H -0.3460 0.2417 0.4259
H12 H -0.4241 0.2521 0.4989
H13 H -0.2062 0.2895 0.4588
C9 C -0.7066(14) 0.3515(6) 0.4157(4)
H14 H -0.7881 0.4078 0.3949
H15 H -0.7758 0.3230 0.4608
H16 H -0.7001 0.3124 0.3879
C10 C -0.4894(11) 0.4365(4) 0.4642(3)
C11 C -0.6207(14) 0.5140(5) 0.4471(4)
H17 H -0.7076 0.5251 0.4118
C12 C -0.3719(14) 0.4217(5) 0.5182(4)
H18 H -0.2847 0.3676 0.5324
C13 C 0.1486(14) 0.7281(5) 0.1381(4)
H19 H 0.1187 0.7404 0.0930
C14 C 0.3850(11) 0.6629(5) 0.2241(4)
H20 H 0.5122 0.6289 0.2389
C15 C 0.2412(12) 0.7024(5) 0.2677(4)
H21 H 0.2765 0.6941 0.3116
C16 C 0.0496(11) 0.7528(4) 0.2480(4)
C17 C 0.0026(12) 0.7642(5) 0.1815(4)
H22 H -0.1265 0.7960 0.1664
C18 C 0.3315(13) 0.6763(4) 0.1576(4)
C19 C -0.1016(11) 0.7919(5) 0.2990(4)
C20 C -0.1695(15) 0.7125(5) 0.3622(4)
H23 H -0.2475 0.6735 0.3485
H24 H -0.2609 0.7354 0.3955
H25 H -0.0427 0.6789 0.3822
C21 C -0.3047(14) 0.8460(6) 0.2682(5)
H26 H -0.2631 0.8958 0.2287
H27 H -0.3943 0.8687 0.3020
H28 H -0.3842 0.8074 0.2546
C22 C 0.0188(11) 0.8590(5) 0.3175(4)
C23 C 0.0413(13) 0.8526(5) 0.3844(4)
H29 H -0.0122 0.8044 0.4203
C24 C 0.1440(13) 0.9181(5) 0.3994(4)
H30 H 0.1561 0.9122 0.4451
C25 C 0.3399(11) 1.0611(4) 0.3645(4)
C26 C 0.2037(12) 0.9940(5) 0.2812(4)
H31 H 0.2586 1.0414 0.2448
C27 C 0.1027(13) 0.9299(5) 0.2673(4)
H32 H 0.0917 0.9354 0.2216
C28 C 0.5566(14) 1.0147(5) 0.3923(4)
H33 H 0.6474 0.9943 0.3576
H34 H 0.5282 0.9638 0.4325
H35 H 0.6286 1.0571 0.4042
C29 C 0.1959(14) 1.0905(6) 0.4240(4)
H36 H 0.0601 1.1201 0.4084
H37 H 0.2698 1.1314 0.4371
H38 H 0.1700 1.0379 0.4630
C30 C 0.3700(11) 1.1420(4) 0.3014(4)
C31 C 0.2012(12) 1.2046(5) 0.2762(4)
H39 H 0.0651 1.1994 0.3013
C32 C 0.2253(12) 1.2731(5) 0.2164(4)
H40 H 0.1062 1.3140 0.2027
C33 C 0.4174(11) 1.2844(5) 0.1754(3)
C34 C 0.5971(11) 1.2242(5) 0.1991(4)
H41 H 0.7329 1.2313 0.1738
C35 C 0.5709(11) 1.1549(5) 0.2596(4)
H42 H 0.6903 1.1145 0.2739
C36 C 0.2258(11) 0.9898(4) 0.3483(3)
Ag1_2 Ag 0.39801(12) -0.50550(4) 0.12249(3)
Ag1_3 Ag 0.39801(12) 1.49450(4) 0.12249(3)
Ag1A Ag -1.39801(12) 0.50550(4) 0.87751(3)
N1_2 N 0.4727(10) -0.3676(4) 0.1148(3)
H1_2 H 0.6089 -0.3713 0.1254
H2_2 H 0.4695 -0.3324 0.0708
N2_2 N 0.4373(10) 0.3569(4) 0.1127(3)
N2_3 N 0.4373(10) -0.6431(4) 0.1127(3)
H3_2 H 0.3378 0.3536 0.0865
H3_3 H 0.3378 -0.6464 0.0865
H4_2 H 0.5689 0.3489 0.0902
H4_3 H 0.5689 -0.6511 0.0902
N3A N -0.9952(9) 0.4800(4) 0.8445(3)
N3_2 N -0.0048(9) -0.4800(4) 0.1555(3)
H5A H -0.9665 0.4196 0.8551
H5_2 H -0.0335 -0.4196 0.1449
H6A H -0.9311 0.4966 0.8743
H6_2 H -0.0689 -0.4966 0.1257
C1A C -0.8776(10) 0.5157(4) 0.7804(3)
C2A C -0.7356(11) 0.5814(5) 0.7690(3)
H7A H -0.7153 0.6017 0.8052
C3A C -0.6258(11) 0.6165(4) 0.7061(4)
H8A H -0.5354 0.6617 0.7002
C4A C -0.6426(11) 0.5876(4) 0.6494(3)
C5A C -0.7871(11) 0.5219(4) 0.6620(4)
H9A H -0.8065 0.5003 0.6264
C6A C -0.9018(12) 0.4881(5) 0.7256(4)
H10A H -0.9986 0.4453 0.7315
C7A C -0.5279(12) 0.6299(4) 0.5788(3)
C8A C -0.6489(15) 0.7198(5) 0.5458(4)
H11A H -0.6540 0.7583 0.5741
H12A H -0.5759 0.7479 0.5011
H13A H -0.7938 0.7105 0.5412
C9A C -0.2934(14) 0.6485(6) 0.5843(4)
H14A H -0.2119 0.5922 0.6051
H15A H -0.2242 0.6770 0.5392
H16A H -0.2999 0.6876 0.6121
C10A C -0.5106(11) 0.5635(4) 0.5358(3)
C11A C -0.3793(14) 0.4860(5) 0.5529(4)
H17A H -0.2924 0.4749 0.5882
C12A C -0.6281(14) 0.5783(5) 0.4818(4)
H18A H -0.7153 0.6324 0.4676
C13_2 C 0.1486(14) -0.2719(5) 0.1381(4)
H19_2 H 0.1187 -0.2596 0.0930
C14_2 C 0.3850(11) -0.3371(5) 0.2241(4)
H20_2 H 0.5122 -0.3711 0.2389
C15_2 C 0.2412(12) -0.2976(5) 0.2677(4)
H21_2 H 0.2765 -0.3059 0.3116
C16_2 C 0.0496(11) -0.2472(4) 0.2480(4)
C17_2 C 0.0026(12) -0.2358(5) 0.1815(4)
H22_2 H -0.1265 -0.2040 0.1664
C18_2 C 0.3315(13) -0.3237(4) 0.1576(4)
C19_2 C -0.1016(11) -0.2081(5) 0.2990(4)
C20_2 C -0.1695(15) -0.2875(5) 0.3622(4)
H23_2 H -0.2475 -0.3265 0.3485
H24_2 H -0.2609 -0.2646 0.3955
H25_2 H -0.0427 -0.3211 0.3822
C21_2 C -0.3047(14) -0.1540(6) 0.2682(5)
H26_2 H -0.2631 -0.1042 0.2287
H27_2 H -0.3943 -0.1313 0.3020
H28_2 H -0.3842 -0.1926 0.2546
C22_2 C 0.0188(11) -0.1410(5) 0.3175(4)
C23_2 C 0.0413(13) -0.1474(5) 0.3844(4)
H29_2 H -0.0122 -0.1956 0.4203
C24_2 C 0.1440(13) -0.0819(5) 0.3994(4)
H30_2 H 0.1561 -0.0878 0.4451
C25_2 C 0.3399(11) 0.0611(4) 0.3645(4)
C26_2 C 0.2037(12) -0.0060(5) 0.2812(4)
H31_2 H 0.2586 0.0414 0.2448
C27_2 C 0.1027(13) -0.0701(5) 0.2673(4)
H32_2 H 0.0917 -0.0646 0.2216
C28_2 C 0.5566(14) 0.0147(5) 0.3923(4)
H33_2 H 0.6474 -0.0057 0.3576
H34_2 H 0.5282 -0.0362 0.4325
H35_2 H 0.6286 0.0571 0.4042
C29_2 C 0.1959(14) 0.0905(6) 0.4240(4)
H36_2 H 0.0601 0.1201 0.4084
H37_2 H 0.2698 0.1314 0.4371
H38_2 H 0.1700 0.0379 0.4630
C30_2 C 0.3700(11) 0.1420(4) 0.3014(4)
C31_2 C 0.2012(12) 0.2046(5) 0.2762(4)
H39_2 H 0.0651 0.1994 0.3013
C32_2 C 0.2253(12) 0.2731(5) 0.2164(4)
H40_2 H 0.1062 0.3140 0.2027
C33_2 C 0.4174(11) 0.2844(5) 0.1754(3)
C34_2 C 0.5971(11) 0.2242(5) 0.1991(4)
H41_2 H 0.7329 0.2313 0.1738
C35_2 C 0.5709(11) 0.1549(5) 0.2596(4)
H42_2 H 0.6903 0.1145 0.2739
C36_2 C 0.2258(11) -0.0102(4) 0.3483(3)
N4 N 0.0268(14) 0.6242(5) -0.0203(4)
O1 O 0.1834(12) 0.6304(5) 0.0073(3)
O2 O 0.0469(11) 0.6284(6) -0.0805(3)
O3 O -0.1541(13) 0.6090(7) 0.0123(4)
loop_
_geom_bond_atom_site_label_1
_geom_bond_atom_site_label_2
_geom_bond_site_symmetry_1
_geom_bond_site_symmetry_2
Ag1 N1 1_555 1_555
N1 H1 1_555 1_555
H2 N1 1_555 1_555
N2 H3 1_555 1_555
H4 N2 1_555 1_555
N3 Ag1 1_555 1_555
H5 N3 1_555 1_555
H6 N3 1_555 1_555
N4 O1 1_555 1_555
O2 N4 1_555 1_555
O3 N4 1_555 1_555
C1 N3 1_555 1_555
C2 C1 1_555 1_555
H7 C2 1_555 1_555
C3 C2 1_555 1_555
H8 C3 1_555 1_555
C4 C3 1_555 1_555
C5 C4 1_555 1_555
H9 C5 1_555 1_555
C6 C1 1_555 1_555
H10 C6 1_555 1_555
C7 C4 1_555 1_555
C8 C7 1_555 1_555
H11 C8 1_555 1_555
H12 C8 1_555 1_555
H13 C8 1_555 1_555
C9 C7 1_555 1_555
H14 C9 1_555 1_555
H15 C9 1_555 1_555
H16 C9 1_555 1_555
C10 C7 1_555 1_555
C11 C10 1_555 1_555
H17 C11 1_555 1_555
C12 C10 1_555 1_555
H18 C12 1_555 1_555
C13 H19 1_555 1_555
C14 H20 1_555 1_555
C15 C14 1_555 1_555
H21 C15 1_555 1_555
C16 C15 1_555 1_555
C17 C13 1_555 1_555
H22 C17 1_555 1_555
C18 N1 1_555 1_555
C19 C16 1_555 1_555
C20 C19 1_555 1_555
H23 C20 1_555 1_555
H24 C20 1_555 1_555
H25 C20 1_555 1_555
C21 C19 1_555 1_555
H26 C21 1_555 1_555
H27 C21 1_555 1_555
H28 C21 1_555 1_555
C22 C19 1_555 1_555
C23 C22 1_555 1_555
H29 C23 1_555 1_555
C24 C23 1_555 1_555
H30 C24 1_555 1_555
C25 C28 1_555 1_555
C26 H31 1_555 1_555
C27 C22 1_555 1_555
H32 C27 1_555 1_555
C28 H33 1_555 1_555
H34 C28 1_555 1_555
H35 C28 1_555 1_555
C29 C25 1_555 1_555
H36 C29 1_555 1_555
H37 C29 1_555 1_555
H38 C29 1_555 1_555
C30 C25 1_555 1_555
C31 C30 1_555 1_555
H39 C31 1_555 1_555
C32 C31 1_555 1_555
H40 C32 1_555 1_555
C33 N2 1_555 1_555
C34 C33 1_555 1_555
H41 C34 1_555 1_555
C35 C30 1_555 1_555
H42 C35 1_555 1_555
C36 C24 1_555 1_555
Ag1_2 N1_2 1_555 1_555
Ag1_3 N2 1_555 1_555
Ag1A N3A 1_555 1_555
N1_2 H1_2 1_555 1_555
H2_2 N1_2 1_555 1_555
N2_2 Ag1 1_555 1_555
N2_3 Ag1_2 1_555 1_555
H3_2 N2_2 1_555 1_555
H3_3 N2_3 1_555 1_555
H4_2 N2_2 1_555 1_555
H4_3 N2_3 1_555 1_555
N3A H5A 1_555 1_555
N3_2 Ag1_2 1_555 1_555
H5_2 N3_2 1_555 1_555
H6A N3A 1_555 1_555
H6_2 N3_2 1_555 1_555
C1A N3A 1_555 1_555
C2A C1A 1_555 1_555
H7A C2A 1_555 1_555
C3A C2A 1_555 1_555
H8A C3A 1_555 1_555
C4A C3A 1_555 1_555
C5A C4A 1_555 1_555
H9A C5A 1_555 1_555
C6A C1A 1_555 1_555
H10A C6A 1_555 1_555
C7A C4A 1_555 1_555
C8A C7A 1_555 1_555
H11A C8A 1_555 1_555
H12A C8A 1_555 1_555
H13A C8A 1_555 1_555
C9A C7A 1_555 1_555
H14A C9A 1_555 1_555
H15A C9A 1_555 1_555
H16A C9A 1_555 1_555
C10A C7A 1_555 1_555
C11A C12 1_555 1_555
H17A C11A 1_555 1_555
C12A C11 1_555 1_555
H18A C12A 1_555 1_555
C13_2 H19_2 1_555 1_555
C14_2 H20_2 1_555 1_555
C15_2 C14_2 1_555 1_555
H21_2 C15_2 1_555 1_555
C16_2 C15_2 1_555 1_555
C17_2 C13_2 1_555 1_555
H22_2 C17_2 1_555 1_555
C18_2 N1_2 1_555 1_555
C19_2 C16_2 1_555 1_555
C20_2 C19_2 1_555 1_555
H23_2 C20_2 1_555 1_555
H24_2 C20_2 1_555 1_555
H25_2 C20_2 1_555 1_555
C21_2 C19_2 1_555 1_555
H26_2 C21_2 1_555 1_555
H27_2 C21_2 1_555 1_555
H28_2 C21_2 1_555 1_555
C22_2 C19_2 1_555 1_555
C23_2 C22_2 1_555 1_555
H29_2 C23_2 1_555 1_555
C24_2 C23_2 1_555 1_555
H30_2 C24_2 1_555 1_555
C25_2 C28_2 1_555 1_555
C26_2 H31_2 1_555 1_555
C27_2 C22_2 1_555 1_555
H32_2 C27_2 1_555 1_555
C28_2 H33_2 1_555 1_555
H34_2 C28_2 1_555 1_555
H35_2 C28_2 1_555 1_555
C29_2 C25_2 1_555 1_555
H36_2 C29_2 1_555 1_555
H37_2 C29_2 1_555 1_555
H38_2 C29_2 1_555 1_555
C30_2 C25_2 1_555 1_555
C31_2 C30_2 1_555 1_555
H39_2 C31_2 1_555 1_555
C32_2 C31_2 1_555 1_555
H40_2 C32_2 1_555 1_555
C33_2 N2_2 1_555 1_555
C34_2 C33_2 1_555 1_555
H41_2 C34_2 1_555 1_555
C35_2 C30_2 1_555 1_555
H42_2 C35_2 1_555 1_555
C36_2 C24_2 1_555 1_555
C5 C6 1_555 1_555
C13 C18 1_555 1_555
C14 C18 1_555 1_555
C16 C17 1_555 1_555
C25 C36 1_555 1_555
C26 C27 1_555 1_555
C26 C36 1_555 1_555
C32 C33 1_555 1_555
C34 C35 1_555 1_555
C5A C6A 1_555 1_555
C10A C11A 1_555 1_555
C10A C12A 1_555 1_555
C13_2 C18_2 1_555 1_555
C14_2 C18_2 1_555 1_555
C16_2 C17_2 1_555 1_555
C25_2 C36_2 1_555 1_555
C26_2 C27_2 1_555 1_555
C26_2 C36_2 1_555 1_555
C32_2 C33_2 1_555 1_555
C34_2 C35_2 1_555 1_555

#END
