
#######################################################################
#
#                 Cambridge Crystallographic Data Centre
#                                CCDC 
#
#######################################################################
#
# If this CIF has been generated from an entry in the Cambridge 
# Structural Database, then it will include bibliographic, chemical, 
# crystal, experimental, refinement or atomic coordinate data resulting 
# from the CCDC's data processing and validation procedures.
#
#######################################################################

data_ZEQDUW
_symmetry_cell_setting           monoclinic
_symmetry_space_group_name_H-M   'C 2/c'
_symmetry_Int_Tables_number      15
_space_group_name_Hall           '-C 2yn'
loop_
_symmetry_equiv_pos_site_id
_symmetry_equiv_pos_as_xyz
1 x,y,z
2 -x,y,1/2-z
3 1/2+x,1/2+y,z
4 1/2-x,1/2+y,1/2-z
5 -x,-y,-z
6 x,-y,1/2+z
7 1/2-x,1/2-y,-z
8 1/2+x,1/2-y,1/2+z
_cell_length_a                   39.447(2)
_cell_length_b                   9.8541(4)
_cell_length_c                   18.4277(8)
_cell_angle_alpha                90
_cell_angle_beta                 96.583(5)
_cell_angle_gamma                90
_cell_volume                     7115.89
loop_
_atom_site_label
_atom_site_type_symbol
_atom_site_fract_x
_atom_site_fract_y
_atom_site_fract_z
Ni1 Ni 0.123010(14) 0.18178(5) 0.03970(2)
O1 O 0.08596(8) -0.0247(3) 0.15076(15)
O2 O 0.16259(8) 0.4644(3) -0.00252(16)
O4 O 0.09162(8) 0.1948(3) 0.12486(14)
O5 O 0.15274(8) 0.3379(3) 0.09265(14)
N1 N 0.09319(10) 0.3345(4) -0.01761(19)
N2 N 0.15595(10) 0.1734(4) -0.04474(17)
N3 N 0.15346(11) -0.0364(4) -0.39698(18)
N4 N 0.09031(10) 1.0223(3) -0.0069(2)
C1 C 0.08461(11) 0.6656(4) -0.0117(2)
H3 H 0.1050 0.6590 0.0187
C2 C 0.16901(12) 0.1676(4) -0.1755(2)
C3 C 0.07741(11) 0.7842(4) -0.0499(2)
C4 C 0.06244(11) 0.5555(4) -0.0170(2)
C5 C 0.03175(13) 0.5661(4) -0.0618(2)
H4 H 0.0166 0.4935 -0.0663
C6 C 0.16184(11) 0.0627(4) -0.2261(2)
H5 H 0.1415 0.0151 -0.2266
C7 C 0.14355(11) 0.2021(5) -0.12181(19)
H6 H 0.1228 0.1508 -0.1351
H7 H 0.1379 0.2977 -0.1265
C8 C 0.18423(12) 0.0279(5) -0.2755(2)
C9 C 0.04675(13) 0.7925(4) -0.0936(2)
H8 H 0.0413 0.8719 -0.1196
C10 C 0.10247(12) 0.9014(4) -0.0421(2)
H9 H 0.1234 0.8707 -0.0140
H10 H 0.1080 0.9263 -0.0903
C11 C 0.08098(11) 0.0990(5) 0.1617(2)
C12 C 0.07208(11) 0.4260(4) 0.0230(2)
H11 H 0.0846 0.4478 0.0699
H12 H 0.0514 0.3786 0.0321
C13 C 0.02385(13) 0.6850(5) -0.0996(2)
H13 H 0.0032 0.6931 -0.1291
C14 C 0.16401(12) 0.4415(5) 0.0649(3)
C15 C 0.06141(15) 0.1372(5) 0.2232(3)
H14 H 0.0597 0.2343 0.2256
H15 H 0.0730 0.1036 0.2682
H16 H 0.0390 0.0985 0.2153
C16 C 0.19908(13) 0.2371(6) -0.1757(2)
H17 H 0.2042 0.3087 -0.1434
C17 C 0.17476(13) -0.0838(5) -0.3303(2)
H18 H 0.1625 -0.1539 -0.3072
H19 H 0.1955 -0.1240 -0.3442
C18 C 0.21430(14) 0.0971(6) -0.2734(3)
H20 H 0.2299 0.0740 -0.3057
C19 C 0.18047(16) 0.5488(6) 0.1163(3)
H21 H 0.1879 0.6232 0.0885
H22 H 0.1997 0.5104 0.1459
H23 H 0.1642 0.5809 0.1473
C23 C 0.22181(15) 0.2008(6) -0.2240(3)
H32 H 0.2424 0.2469 -0.2231
H43 H 0.0815(8) 0.298(3) -0.0578(15)
H44 H 0.1671(9) 0.099(3) -0.041(2)
H45 H 0.0793(10) 1.006(5) 0.0296(19)
H46 H 0.1712(9) 0.234(4) -0.0249(19)
H47 H 0.0757(8) 1.049(4) -0.0400(16)
H48 H 0.1663(9) 0.009(4) -0.4251(19)
H49 H 0.1356(9) 0.016(4) -0.390(2)
H50 H 0.1072(9) 0.380(4) -0.040(2)
Ni1E Ni 0.123010(14) -0.18178(5) -0.46030(2)
Ni1_2 Ni 0.123010(14) 1.18178(5) 0.03970(2)
N3E N 0.15346(11) 0.0364(4) 0.10302(18)
N4_2 N 0.09031(10) 0.0223(3) -0.0069(2)
H45_2 H 0.0793(10) 0.006(5) 0.0296(19)
H47_2 H 0.0757(8) 0.049(4) -0.0400(16)
H48E H 0.1663(9) -0.009(4) 0.0749(19)
H49E H 0.1356(9) -0.016(4) 0.110(2)
O3 O -0.04707(8) -0.1687(3) 0.13435(15)
H1 H -0.0545 -0.1835 0.1733
C22 C -0.01135(13) -0.1804(6) 0.1438(3)
H30 H -0.0051 -0.2711 0.1608
H31 H -0.0019 -0.1164 0.1807
C24 C 0.00329(14) -0.1538(6) 0.0750(3)
H33 H 0.0277 -0.1631 0.0831
H34 H -0.0025 -0.0633 0.0587
H35 H -0.0058 -0.2177 0.0385
O6 O 0.07149(10) -0.2223(3) 0.23916(17)
H2 H 0.0737 -0.1592 0.2111
C20 C 0.0677(2) -0.4604(9) 0.2394(5)
H24 H 0.0759 -0.5428 0.2198
H25 H 0.0434 -0.4553 0.2280
H26 H 0.0734 -0.4597 0.2915
C25 C 0.0832(2) -0.3468(7) 0.2083(3)
H36 H 0.0772 -0.3465 0.1557
H37 H 0.1078 -0.3532 0.2183
O7 O 0.19833(11) -0.0831(4) -0.0065(2)
C26 C 0.23270(17) -0.0605(7) -0.0187(5)
H38 H 0.2465 -0.1362 0.0011
H39 H 0.2340 -0.0574 -0.0709
C27 C 0.24617(18) 0.0593(8) 0.0128(4)
H40 H 0.2693 0.0698 0.0024
H41 H 0.2456 0.0558 0.0647
H42 H 0.2328 0.1350 -0.0070
H52 H 0.1902(13) -0.147(4) -0.027(3)
O8 O 0.17769(14) -0.3147(4) -0.0721(3)
C21 C 0.1672(2) -0.3384(8) -0.1550(4)
H27 H 0.1569 -0.2575 -0.1765
H28 H 0.1512 -0.4120 -0.1614
H29 H 0.1871 -0.3604 -0.1782
H51 H 0.1732(16) -0.381(4) -0.048(3)
loop_
_geom_bond_atom_site_label_1
_geom_bond_atom_site_label_2
_geom_bond_site_symmetry_1
_geom_bond_site_symmetry_2
Ni1 O4 1_555 1_555
O1 C11 1_555 1_555
O2 C14 1_555 1_555
O3 H1 1_555 1_555
O4 C11 1_555 1_555
O5 Ni1 1_555 1_555
O6 H2 1_555 1_555
N1 Ni1 1_555 1_555
N2 Ni1 1_555 1_555
O7 C26 1_555 1_555
N3 C17 1_555 1_555
N4 C10 1_555 1_555
C1 H3 1_555 1_555
C2 C6 1_555 1_555
C3 C1 1_555 1_555
C4 C1 1_555 1_555
C5 C4 1_555 1_555
H4 C5 1_555 1_555
C6 H5 1_555 1_555
O8 C21 1_555 1_555
C7 N2 1_555 1_555
H6 C7 1_555 1_555
H7 C7 1_555 1_555
C8 C6 1_555 1_555
C9 C3 1_555 1_555
H8 C9 1_555 1_555
C10 C3 1_555 1_555
H9 C10 1_555 1_555
H10 C10 1_555 1_555
C11 C15 1_555 1_555
C12 N1 1_555 1_555
H11 C12 1_555 1_555
H12 C12 1_555 1_555
C13 C5 1_555 1_555
H13 C13 1_555 1_555
C14 O5 1_555 1_555
C15 H14 1_555 1_555
H15 C15 1_555 1_555
H16 C15 1_555 1_555
C16 C2 1_555 1_555
H17 C16 1_555 1_555
C17 C8 1_555 1_555
H18 C17 1_555 1_555
H19 C17 1_555 1_555
C18 C8 1_555 1_555
H20 C18 1_555 1_555
C19 C14 1_555 1_555
H21 C19 1_555 1_555
H22 C19 1_555 1_555
H23 C19 1_555 1_555
C20 H24 1_555 1_555
H25 C20 1_555 1_555
H26 C20 1_555 1_555
C21 H27 1_555 1_555
H28 C21 1_555 1_555
H29 C21 1_555 1_555
C22 O3 1_555 1_555
H30 C22 1_555 1_555
H31 C22 1_555 1_555
C23 C16 1_555 1_555
H32 C23 1_555 1_555
C24 C22 1_555 1_555
H33 C24 1_555 1_555
H34 C24 1_555 1_555
H35 C24 1_555 1_555
C25 O6 1_555 1_555
H36 C25 1_555 1_555
H37 C25 1_555 1_555
C26 H38 1_555 1_555
H39 C26 1_555 1_555
C27 C26 1_555 1_555
H40 C27 1_555 1_555
H41 C27 1_555 1_555
H42 C27 1_555 1_555
H43 N1 1_555 1_555
H44 N2 1_555 1_555
H45 N4 1_555 1_555
H46 N2 1_555 1_555
H47 N4 1_555 1_555
H48 N3 1_555 1_555
H49 N3 1_555 1_555
H50 N1 1_555 1_555
H51 O8 1_555 1_555
H52 O7 1_555 1_555
Ni1E N3 1_555 1_555
Ni1_2 N4 1_555 1_555
N3E Ni1 1_555 1_555
N4_2 Ni1 1_555 1_555
H45_2 N4_2 1_555 1_555
H47_2 N4_2 1_555 1_555
H48E N3E 1_555 1_555
H49E N3E 1_555 1_555
C2 C7 1_555 1_555
C4 C12 1_555 1_555
C9 C13 1_555 1_555
C18 C23 1_555 1_555
C20 C25 1_555 1_555

#END
