
#######################################################################
#
#                 Cambridge Crystallographic Data Centre
#                                CCDC 
#
#######################################################################
#
# If this CIF has been generated from an entry in the Cambridge 
# Structural Database, then it will include bibliographic, chemical, 
# crystal, experimental, refinement or atomic coordinate data resulting 
# from the CCDC's data processing and validation procedures.
#
#######################################################################

data_ZEQMAL
_symmetry_cell_setting           monoclinic
_symmetry_space_group_name_H-M   'P 21/c'
_symmetry_Int_Tables_number      14
_space_group_name_Hall           '-P 2ybc'
loop_
_symmetry_equiv_pos_site_id
_symmetry_equiv_pos_as_xyz
1 x,y,z
2 -x,1/2+y,1/2-z
3 -x,-y,-z
4 x,1/2-y,1/2+z
_cell_length_a                   10.108(2)
_cell_length_b                   15.600(4)
_cell_length_c                   9.768(2)
_cell_angle_alpha                90
_cell_angle_beta                 105.289(3)
_cell_angle_gamma                90
_cell_volume                     1485.75
loop_
_atom_site_label
_atom_site_type_symbol
_atom_site_fract_x
_atom_site_fract_y
_atom_site_fract_z
Zn1 Zn -0.01912(2) 0.675640(13) 0.97714(2)
O1 O 0.10100(13) 0.68028(8) 0.83137(13)
O2 O 0.09125(12) 0.73387(8) 0.61766(12)
O3 O -0.14123(13) 0.75436(9) 0.82405(13)
O4 O -0.14371(13) 0.81470(8) 0.61629(13)
O5 O 0.10933(13) 0.57850(8) 1.09459(13)
O6 O 0.12046(13) 0.43624(8) 1.11663(12)
C1 C 0.04545(16) 0.72346(11) 0.72317(17)
C2 C -0.09280(17) 0.76846(11) 0.72129(17)
C3 C 0.06666(18) 0.50511(11) 1.06110(18)
Zn1C Zn -0.01912(2) 0.824360(13) 1.47714(2)
Zn1C_2 Zn -0.01912(2) 0.824360(13) 0.47714(2)
Zn1B Zn 0.01912(2) 0.324360(13) 1.02286(2)
O1C O 0.10100(13) 0.81972(8) 1.33137(13)
O2C O 0.09125(12) 0.76613(8) 1.11766(12)
O2_2 O 0.09125(12) 0.73387(8) 1.61766(12)
O3C O -0.14123(13) 0.74564(9) 1.32405(13)
O4C O -0.14371(13) 0.68530(8) 1.11629(13)
O4_2 O -0.14371(13) 0.81470(8) 1.61629(13)
O5B O -0.10933(13) 0.42150(8) 0.90541(13)
O5C O 0.10933(13) 0.92150(8) 1.59459(13)
O6B O -0.12046(13) 0.56376(8) 0.88337(12)
O6A O -0.12046(13) 0.93624(8) 1.38337(12)
C1C C 0.04545(16) 0.77654(11) 1.22317(17)
C2C C -0.09280(17) 0.73154(11) 1.22129(17)
C3B C -0.06666(18) 0.49489(11) 0.93890(18)
N1 N 0.71440(15) 0.94001(10) 1.11225(15)
H1 H 0.7574 0.9363 1.2006
N2 N 0.65552(15) 0.98298(11) 0.89423(16)
H2 H 0.6543 1.0116 0.8187
C4 C 0.99478(19) 1.02115(14) 1.0676(2)
H3 H 1.0642 1.0655 1.0933
H4 H 1.0134 0.9789 1.1432
C5 C 0.85246(18) 1.06128(12) 1.0549(2)
H5 H 0.8527 1.0894 1.1435
H6 H 0.8346 1.1045 0.9808
C6 C 0.74135(17) 0.99641(11) 1.02141(19)
C7 C 0.60580(17) 0.88773(12) 1.04232(18)
C8 C 0.5383(2) 0.82090(13) 1.0896(2)
H7 H 0.5641 0.8021 1.1832
C9 C 0.4314(2) 0.78430(15) 0.9902(2)
H8 H 0.3826 0.7399 1.0176
C10 C 0.3936(2) 0.81185(14) 0.8484(2)
H9 H 0.3214 0.7846 0.7841
C11 C 0.46040(19) 0.87803(14) 0.8021(2)
H10 H 0.4347 0.8968 0.7084
C12 C 0.56812(17) 0.91539(12) 0.90242(18)
N1B N 1.28560(15) 1.05999(10) 0.88775(15)
H1B H 1.2426 1.0637 0.7994
N2B N 1.34448(15) 1.01702(11) 1.10577(16)
H2B H 1.3457 0.9884 1.1813
C4B C 1.00522(19) 0.97885(14) 0.9324(2)
H3B H 0.9358 0.9345 0.9067
H4B H 0.9866 1.0211 0.8568
C5B C 1.14754(18) 0.93872(12) 0.9451(2)
H5B H 1.1473 0.9106 0.8565
H6B H 1.1654 0.8955 1.0192
C6B C 1.25865(17) 1.00359(11) 0.97859(19)
C7B C 1.39420(17) 1.11227(12) 0.95768(18)
C8B C 1.4617(2) 1.17910(13) 0.9104(2)
H7B H 1.4359 1.1979 0.8168
C9B C 1.5686(2) 1.21570(15) 1.0098(2)
H8B H 1.6174 1.2601 0.9824
C10B C 1.6064(2) 1.18815(14) 1.1516(2)
H9B H 1.6786 1.2154 1.2159
C11B C 1.53960(19) 1.12197(14) 1.1979(2)
H10B H 1.5653 1.1032 1.2916
C12B C 1.43188(17) 1.08461(12) 1.09758(18)
O7 O 0.33254(15) 0.92988(11) 0.34931(17)
H11 H 0.268(2) 0.8962(16) 0.351(3)
H13 H 0.406(2) 0.9105(18) 0.382(3)
O8 O 0.6051(2) 0.58902(17) 1.0025(3)
H12 H 0.669(2) 0.6214(16) 1.043(3)
H14 H 0.625(3) 0.565(2) 0.940(3)
loop_
_geom_bond_atom_site_label_1
_geom_bond_atom_site_label_2
_geom_bond_site_symmetry_1
_geom_bond_site_symmetry_2
Zn1 O1 1_555 1_555
N1 H1 1_555 1_555
N2 H2 1_555 1_555
O1 C1 1_555 1_555
O2 C1 1_555 1_555
O3 Zn1 1_555 1_555
O4 C2 1_555 1_555
O5 Zn1 1_555 1_555
O6 C3 1_555 1_555
O7 H11 1_555 1_555
O8 H12 1_555 1_555
C1 C2 1_555 1_555
C2 O3 1_555 1_555
C3 O5 1_555 1_555
C4 H3 1_555 1_555
H4 C4 1_555 1_555
C5 C4 1_555 1_555
H5 C5 1_555 1_555
H6 C5 1_555 1_555
C6 N1 1_555 1_555
C7 N1 1_555 1_555
C8 C7 1_555 1_555
H7 C8 1_555 1_555
C9 C8 1_555 1_555
H8 C9 1_555 1_555
C10 C9 1_555 1_555
H9 C10 1_555 1_555
C11 C10 1_555 1_555
H10 C11 1_555 1_555
C12 N2 1_555 1_555
H13 O7 1_555 1_555
H14 O8 1_555 1_555
Zn1C O1C 1_555 1_555
Zn1C_2 O2 1_555 1_555
Zn1B O6 1_555 1_555
N1B H1B 1_555 1_555
N2B H2B 1_555 1_555
O1C C1C 1_555 1_555
O2C Zn1 1_555 1_555
O2_2 Zn1C 1_555 1_555
O3C Zn1C 1_555 1_555
O4C Zn1 1_555 1_555
O4_2 Zn1C 1_555 1_555
O5B Zn1B 1_555 1_555
O5C Zn1C 1_555 1_555
O6B Zn1 1_555 1_555
O6A Zn1C 1_555 1_555
C1C O2C 1_555 1_555
C2C O3C 1_555 1_555
C3B C3 1_555 1_555
C4B C4 1_555 1_555
H3B C4B 1_555 1_555
H4B C4B 1_555 1_555
C5B C4B 1_555 1_555
H5B C5B 1_555 1_555
H6B C5B 1_555 1_555
C6B N1B 1_555 1_555
C7B N1B 1_555 1_555
C8B C7B 1_555 1_555
H7B C8B 1_555 1_555
C9B C8B 1_555 1_555
H8B C9B 1_555 1_555
C10B C9B 1_555 1_555
H9B C10B 1_555 1_555
C11B C10B 1_555 1_555
H10B C11B 1_555 1_555
C12B N2B 1_555 1_555
N2 C6 1_555 1_555
O4 Zn1C_2 1_555 1_555
C5 C6 1_555 1_555
C7 C12 1_555 1_555
C11 C12 1_555 1_555
N2B C6B 1_555 1_555
O4C C2C 1_555 1_555
O5B C3B 1_555 1_555
O6B C3B 1_555 1_555
C1C C2C 1_555 1_555
C5B C6B 1_555 1_555
C7B C12B 1_555 1_555
C11B C12B 1_555 1_555

#END
