
#######################################################################
#
#                 Cambridge Crystallographic Data Centre
#                                CCDC 
#
#######################################################################
#
# If this CIF has been generated from an entry in the Cambridge 
# Structural Database, then it will include bibliographic, chemical, 
# crystal, experimental, refinement or atomic coordinate data resulting 
# from the CCDC's data processing and validation procedures.
#
#######################################################################

data_ZEQPIW
_symmetry_cell_setting           orthorhombic
_symmetry_space_group_name_H-M   'P n a 21'
_symmetry_Int_Tables_number      33
_space_group_name_Hall           'P 2c -2n'
loop_
_symmetry_equiv_pos_site_id
_symmetry_equiv_pos_as_xyz
1 x,y,z
2 -x,-y,1/2+z
3 1/2+x,1/2-y,z
4 1/2-x,1/2+y,1/2+z
_cell_length_a                   20.9870(17)
_cell_length_b                   18.2926(14)
_cell_length_c                   9.6030(7)
_cell_angle_alpha                90
_cell_angle_beta                 90
_cell_angle_gamma                90
_cell_volume                     3686.66
loop_
_atom_site_label
_atom_site_type_symbol
_atom_site_fract_x
_atom_site_fract_y
_atom_site_fract_z
Co1 Co 0.15361(3) 0.62709(4) 0.58093(8)
Co2 Co 0.25553(3) 0.49188(3) 0.42606(9)
Br1 Br 0.00218(3) 0.21080(3) 0.91350(10)
Br2 Br 0.46105(3) 0.54987(5) 1.18786(8)
O1 O 0.1197(2) 0.5262(2) 0.6321(5)
O2 O 0.20210(18) 0.4512(2) 0.5913(5)
O3 O -0.0879(2) 0.4067(3) 0.7664(5)
O4 O -0.06868(19) 0.3559(2) 0.9712(4)
O5 O 0.30830(18) 0.5544(2) 0.5630(4)
O6 O 0.23699(18) 0.6167(2) 0.6913(4)
O7 O 0.31023(19) 0.5219(2) 1.2555(4)
O8 O 0.2803(2) 0.6378(2) 1.2213(4)
O9 O 0.19506(16) 0.58488(19) 0.3909(4)
H1 H 0.1649 0.5812 0.3348
H2 H 0.2258 0.6060 0.3532
N1 N 0.1008(2) 0.6796(3) 0.7432(5)
N2 N 0.1734(2) 0.7397(2) 0.5465(5)
N3 N 0.2051(2) 0.4125(3) 0.3047(6)
N4 N 0.3072(2) 0.3938(3) 0.4650(5)
C1 C 0.1461(3) 0.4648(3) 0.6340(6)
C2 C 0.1098(2) 0.4019(3) 0.6969(7)
C3 C 0.1369(3) 0.3331(3) 0.7054(7)
H3 H 0.1773 0.3249 0.6687
C4 C 0.1042(3) 0.2763(3) 0.7681(7)
H4 H 0.1224 0.2301 0.7754
C5 C 0.0435(3) 0.2896(3) 0.8200(7)
C6 C 0.0144(3) 0.3569(3) 0.8062(7)
C7 C 0.0489(3) 0.4128(3) 0.7425(6)
H5 H 0.0301 0.4585 0.7309
C8 C -0.0529(3) 0.3750(3) 0.8505(7)
C9 C 0.2890(2) 0.5844(3) 0.6724(6)
C10 C 0.3319(2) 0.5808(3) 0.7986(6)
C11 C 0.3067(2) 0.5888(2) 0.9299(6)
H6 H 0.2638 0.6005 0.9385
C12 C 0.3429(3) 0.5800(3) 1.0511(6)
C13 C 0.4077(3) 0.5644(3) 1.0327(6)
C14 C 0.4342(3) 0.5593(3) 0.9009(7)
H7 H 0.4777 0.5515 0.8911
C15 C 0.3969(3) 0.5656(3) 0.7861(6)
H8 H 0.4148 0.5597 0.6982
C16 C 0.3089(2) 0.5806(3) 1.1895(6)
C17 C 0.0634(3) 0.6448(4) 0.8319(8)
H9 H 0.0674 0.5945 0.8427
C18 C 0.0175(4) 0.6830(5) 0.9101(11)
H10 H -0.0076 0.6582 0.9745
C19 C 0.0100(4) 0.7554(5) 0.8918(10)
H11 H -0.0205 0.7811 0.9422
C20 C 0.0482(3) 0.7906(4) 0.7973(8)
H12 H 0.0431 0.8404 0.7815
C21 C 0.0942(3) 0.7519(3) 0.7256(6)
C22 C 0.1378(3) 0.7868(3) 0.6235(6)
C23 C 0.1442(3) 0.8612(3) 0.6079(7)
H13 H 0.1208 0.8929 0.6636
C24 C 0.1859(4) 0.8884(4) 0.5085(9)
H14 H 0.1904 0.9386 0.4962
C25 C 0.2196(4) 0.8417(3) 0.4305(10)
H15 H 0.2476 0.8589 0.3631
C26 C 0.2121(3) 0.7680(3) 0.4515(7)
H16 H 0.2355 0.7361 0.3960
C27 C 0.1573(3) 0.4242(4) 0.2189(9)
H17 H 0.1451 0.4722 0.2019
C28 C 0.1239(4) 0.3680(5) 0.1518(10)
H18 H 0.0892 0.3781 0.0946
C29 C 0.1440(5) 0.2977(5) 0.1736(11)
H19 H 0.1243 0.2589 0.1282
C30 C 0.1928(4) 0.2855(4) 0.2615(10)
H20 H 0.2064 0.2379 0.2782
C31 C 0.2228(3) 0.3432(3) 0.3269(7)
C32 C 0.2756(3) 0.3332(3) 0.4290(7)
C33 C 0.2921(4) 0.2661(4) 0.4829(9)
H21 H 0.2702 0.2244 0.4552
C34 C 0.3411(4) 0.2607(4) 0.5780(11)
H22 H 0.3518 0.2157 0.6164
C35 C 0.3741(5) 0.3231(5) 0.6156(9)
H23 H 0.4081 0.3211 0.6776
C36 C 0.3543(3) 0.3895(4) 0.5564(8)
H24 H 0.3752 0.4322 0.5824
Co1A Co -0.15361(3) 0.37291(4) 1.08093(8)
Co2_2 Co 0.25553(3) 0.49188(3) 1.42606(9)
O4A O 0.06868(19) 0.6441(2) 0.4712(4)
O7_2 O 0.31023(19) 0.5219(2) 0.2555(4)
loop_
_geom_bond_atom_site_label_1
_geom_bond_atom_site_label_2
_geom_bond_site_symmetry_1
_geom_bond_site_symmetry_2
Co1 O1 1_555 1_555
Co2 O2 1_555 1_555
Br1 C5 1_555 1_555
Br2 C13 1_555 1_555
O1 C1 1_555 1_555
O2 C1 1_555 1_555
O3 C8 1_555 1_555
O4 C8 1_555 1_555
O5 Co2 1_555 1_555
O6 Co1 1_555 1_555
O7 C16 1_555 1_555
O8 C16 1_555 1_555
O9 Co1 1_555 1_555
H1 O9 1_555 1_555
H2 O9 1_555 1_555
N1 Co1 1_555 1_555
N2 Co1 1_555 1_555
N3 Co2 1_555 1_555
N4 Co2 1_555 1_555
C1 C2 1_555 1_555
C2 C3 1_555 1_555
C3 H3 1_555 1_555
C4 C3 1_555 1_555
H4 C4 1_555 1_555
C5 C4 1_555 1_555
C6 C5 1_555 1_555
C7 C2 1_555 1_555
H5 C7 1_555 1_555
C8 C6 1_555 1_555
C9 O5 1_555 1_555
C10 C9 1_555 1_555
C11 C10 1_555 1_555
H6 C11 1_555 1_555
C12 C11 1_555 1_555
C13 C12 1_555 1_555
C14 C13 1_555 1_555
H7 C14 1_555 1_555
C15 C10 1_555 1_555
H8 C15 1_555 1_555
C16 C12 1_555 1_555
C17 N1 1_555 1_555
H9 C17 1_555 1_555
C18 C17 1_555 1_555
H10 C18 1_555 1_555
C19 C18 1_555 1_555
H11 C19 1_555 1_555
C20 C19 1_555 1_555
H12 C20 1_555 1_555
C21 N1 1_555 1_555
C22 N2 1_555 1_555
C23 C22 1_555 1_555
H13 C23 1_555 1_555
C24 C23 1_555 1_555
H14 C24 1_555 1_555
C25 C24 1_555 1_555
H15 C25 1_555 1_555
C26 N2 1_555 1_555
H16 C26 1_555 1_555
C27 N3 1_555 1_555
H17 C27 1_555 1_555
C28 C27 1_555 1_555
H18 C28 1_555 1_555
C29 C28 1_555 1_555
H19 C29 1_555 1_555
C30 C29 1_555 1_555
H20 C30 1_555 1_555
C31 N3 1_555 1_555
C32 N4 1_555 1_555
C33 C32 1_555 1_555
H21 C33 1_555 1_555
C34 C33 1_555 1_555
H22 C34 1_555 1_555
C35 C34 1_555 1_555
H23 C35 1_555 1_555
C36 N4 1_555 1_555
H24 C36 1_555 1_555
Co1A O4 1_555 1_555
Co2_2 O7 1_555 1_555
O4A Co1 1_555 1_555
O7_2 Co2 1_555 1_555
Co2 O9 1_555 1_555
O6 C9 1_555 1_555
C6 C7 1_555 1_555
C14 C15 1_555 1_555
C20 C21 1_555 1_555
C21 C22 1_555 1_555
C25 C26 1_555 1_555
C30 C31 1_555 1_555
C31 C32 1_555 1_555
C35 C36 1_555 1_555

#END
