
#######################################################################
#
#                 Cambridge Crystallographic Data Centre
#                                CCDC 
#
#######################################################################
#
# If this CIF has been generated from an entry in the Cambridge 
# Structural Database, then it will include bibliographic, chemical, 
# crystal, experimental, refinement or atomic coordinate data resulting 
# from the CCDC's data processing and validation procedures.
#
#######################################################################

data_ZEQROE
_symmetry_cell_setting           triclinic
_symmetry_space_group_name_H-M   'P -1'
_symmetry_Int_Tables_number      2
_space_group_name_Hall           '-P 1'
loop_
_symmetry_equiv_pos_site_id
_symmetry_equiv_pos_as_xyz
1 x,y,z
2 -x,-y,-z
_cell_length_a                   12.4685(4)
_cell_length_b                   13.2840(4)
_cell_length_c                   20.1074(5)
_cell_angle_alpha                93.466(1)
_cell_angle_beta                 91.916(1)
_cell_angle_gamma                110.925(1)
_cell_volume                     3099.67
loop_
_atom_site_label
_atom_site_type_symbol
_atom_site_fract_x
_atom_site_fract_y
_atom_site_fract_z
Cr1 Cr 0.5000 0.0000 0.5000
C1 C 0.4126(7) -0.0065(6) 0.6440(4)
C2 C 0.5810(5) 0.2527(6) 0.5022(3)
C3 C 0.7557(6) 0.0470(5) 0.5522(4)
N1 N 0.4527(5) -0.0004(5) 0.5933(3)
N2 N 0.5410(4) 0.1605(5) 0.5036(3)
N3 N 0.6635(5) 0.0253(4) 0.5319(3)
S1 S 0.3514(2) -0.0175(2) 0.71533(13)
S2 S 0.63692(17) 0.38368(15) 0.50138(11)
S3 S 0.88727(16) 0.08155(16) 0.58693(12)
Cd1 Cd 1.0000 0.0000 0.5000
O1 O 0.9309(4) -0.1672(3) 0.5382(3)
O2 O 1.1493(4) 0.0463(4) 0.5791(3)
N4 N 1.0947(5) -0.1894(4) 0.5727(3)
H1 H 1.1223 -0.1212 0.5883
N5 N 1.3186(5) 0.1812(5) 0.5943(3)
H2 H 1.3455 0.1448 0.5656
C4 C 0.9871(6) -0.2274(5) 0.5497(4)
C5 C 0.9287(7) -0.3472(5) 0.5372(4)
H3 H 0.9640 -0.3715 0.4991
H4 H 0.8471 -0.3626 0.5234
C6 C 0.9319(6) -0.4156(5) 0.5949(4)
H5 H 0.8687 -0.4867 0.5868
H6 H 0.9175 -0.3799 0.6365
C7 C 1.0450(7) -0.4342(5) 0.6053(4)
H7 H 1.0360 -0.4860 0.6400
H8 H 1.0605 -0.4680 0.5633
C8 C 1.1481(6) -0.3331(5) 0.6259(4)
H9 H 1.2161 -0.3537 0.6335
H10 H 1.1339 -0.3005 0.6687
C9 C 1.1752(6) -0.2488(6) 0.5752(4)
H11 H 1.2541 -0.1961 0.5857
H12 H 1.1738 -0.2848 0.5304
C10 C 1.2135(6) 0.1355(5) 0.6078(4)
C11 C 1.1697(7) 0.1935(6) 0.6630(4)
H13 H 1.2240 0.2114 0.7028
H14 H 1.0942 0.1441 0.6759
C12 C 1.1570(7) 0.2979(6) 0.6411(4)
H15 H 1.1216 0.2841 0.5951
H16 H 1.1042 0.3174 0.6706
C13 C 1.2706(7) 0.3931(6) 0.6431(5)
H17 H 1.2549 0.4570 0.6294
H18 H 1.3028 0.4096 0.6899
C14 C 1.3590(7) 0.3774(6) 0.6008(4)
H19 H 1.4261 0.4459 0.6028
H20 H 1.3273 0.3606 0.5539
C15 C 1.3994(6) 0.2874(6) 0.6211(4)
H21 H 1.4764 0.2992 0.6042
H22 H 1.4063 0.2893 0.6704
C1A C 0.5874(7) 0.0065(6) 0.3560(4)
C2A C 0.4190(5) -0.2527(6) 0.4978(3)
C3A C 0.2443(6) -0.0470(5) 0.4478(4)
N1A N 0.5473(5) 0.0004(5) 0.4067(3)
N2A N 0.4590(4) -0.1605(5) 0.4964(3)
N3A N 0.3365(5) -0.0253(4) 0.4681(3)
S1A S 0.6486(2) 0.0175(2) 0.28467(13)
S2A S 0.36308(17) -0.38368(15) 0.49862(11)
S3A S 0.11273(16) -0.08155(16) 0.41307(12)
S3A_2 S 1.11273(16) -0.08155(16) 0.41307(12)
Cd1_2 Cd 0.0000 0.0000 0.5000
O1A O 1.0691(4) 0.1672(3) 0.4618(3)
O2A O 0.8507(4) -0.0463(4) 0.4209(3)
N4A N 0.9053(5) 0.1894(4) 0.4273(3)
H1A H 0.8777 0.1212 0.4117
N5A N 0.6814(5) -0.1812(5) 0.4057(3)
H2A H 0.6545 -0.1448 0.4344
C4A C 1.0129(6) 0.2274(5) 0.4503(4)
C5A C 1.0713(7) 0.3472(5) 0.4628(4)
H3A H 1.0360 0.3715 0.5009
H4A H 1.1529 0.3626 0.4766
C6A C 1.0681(6) 0.4156(5) 0.4051(4)
H5A H 1.1313 0.4867 0.4132
H6A H 1.0825 0.3799 0.3635
C7A C 0.9550(7) 0.4342(5) 0.3947(4)
H7A H 0.9640 0.4860 0.3600
H8A H 0.9395 0.4680 0.4367
C8A C 0.8519(6) 0.3331(5) 0.3741(4)
H9A H 0.7839 0.3537 0.3665
H10A H 0.8661 0.3005 0.3313
C9A C 0.8248(6) 0.2488(6) 0.4248(4)
H11A H 0.7459 0.1961 0.4143
H12A H 0.8262 0.2848 0.4696
C10A C 0.7865(6) -0.1355(5) 0.3922(4)
C11A C 0.8303(7) -0.1935(6) 0.3370(4)
H13A H 0.7760 -0.2114 0.2972
H14A H 0.9058 -0.1441 0.3241
C12A C 0.8430(7) -0.2979(6) 0.3589(4)
H15A H 0.8784 -0.2841 0.4049
H16A H 0.8958 -0.3174 0.3294
C13A C 0.7294(7) -0.3931(6) 0.3569(5)
H17A H 0.7451 -0.4570 0.3706
H18A H 0.6972 -0.4096 0.3101
C14A C 0.6410(7) -0.3774(6) 0.3992(4)
H19A H 0.5739 -0.4459 0.3972
H20A H 0.6727 -0.3606 0.4461
C15A C 0.6006(6) -0.2874(6) 0.3789(4)
H21A H 0.5236 -0.2992 0.3958
H22A H 0.5937 -0.2893 0.3296
Cr2 Cr 1.0000 0.5000 1.0000
C16 C 1.0693(7) 0.5028(6) 0.8516(5)
C17 C 0.9149(6) 0.2454(6) 0.9857(4)
C18 C 0.7440(7) 0.4792(6) 0.9660(4)
N6 N 1.0392(5) 0.5047(5) 0.9047(4)
N7 N 0.9465(5) 0.3391(5) 0.9908(3)
N8 N 0.8399(5) 0.4907(5) 0.9742(3)
S4 S 1.1163(3) 0.5008(2) 0.77721(12)
S5 S 0.8747(2) 0.11512(15) 0.97998(13)
S6 S 0.60516(16) 0.46147(16) 0.95802(10)
Cd2 Cd 0.59772(5) 0.51959(4) 0.83741(3)
O3 O 0.4540(6) 0.3599(5) 0.8093(3)
O4 O 0.5913(8) 0.5343(6) 0.7267(3)
O5 O 0.4565(4) 0.5949(4) 0.8618(3)
O6 O 0.7212(5) 0.6971(4) 0.8536(3)
N9 N 0.3068(6) 0.3670(5) 0.8677(4)
H23 H 0.3361 0.4379 0.8677
N10 N 0.4912(6) 0.6401(6) 0.7169(3)
H24 H 0.4474 0.6076 0.7484
N11 N 0.5475(5) 0.7664(5) 0.8999(4)
H25 H 0.6117 0.7570 0.8901
N12 N 0.8905(5) 0.6956(5) 0.8266(3)
H26 H 0.8570 0.6256 0.8165
C19 C 0.3612(9) 0.3104(7) 0.8372(4)
C20 C 0.3185(11) 0.1904(7) 0.8368(5)
H27 H 0.3671 0.1624 0.8089
H28 H 0.2389 0.1601 0.8166
C21 C 0.3200(11) 0.1535(7) 0.9055(5)
H29 H 0.3223 0.0797 0.9017
H30 H 0.3921 0.2013 0.9302
C22 C 0.2216(8) 0.1518(6) 0.9460(5)
H31 H 0.2284 0.1198 0.9885
H32 H 0.1493 0.1041 0.9216
C23 C 0.2130(8) 0.2617(6) 0.9621(4)
H33 H 0.1463 0.2525 0.9896
H34 H 0.2830 0.3081 0.9891
C24 C 0.1999(8) 0.3183(8) 0.9016(5)
H35 H 0.1420 0.2658 0.8695
H36 H 0.1701 0.3758 0.9152
C25 C 0.5663(8) 0.6007(7) 0.6955(4)
C26 C 0.6276(8) 0.6430(8) 0.6340(4)
H37 H 0.5705 0.6415 0.5981
H38 H 0.6690 0.5958 0.6181
C27 C 0.7121(8) 0.7574(10) 0.6486(5)
H39 H 0.7542 0.7617 0.6920
H40 H 0.7691 0.7731 0.6139
C28 C 0.6606(13) 0.8424(11) 0.6513(7)
H41 H 0.7239 0.9137 0.6566
H42 H 0.6188 0.8379 0.6078
C29 C 0.5830(13) 0.8386(11) 0.7031(8)
H43 H 0.5625 0.9041 0.7041
H44 H 0.6213 0.8377 0.7469
C30 C 0.4741(9) 0.7382(12) 0.6912(5)
H45 H 0.4104 0.7510 0.7140
H46 H 0.4522 0.7244 0.6428
C31 C 0.4516(7) 0.6817(5) 0.8905(4)
C32 C 0.3446(7) 0.6910(7) 0.9110(5)
H47 H 0.3536 0.7127 0.9594
H48 H 0.2836 0.6184 0.9044
C33 C 0.3046(8) 0.7666(9) 0.8769(7)
H49 H 0.2221 0.7482 0.8849
H50 H 0.3102 0.7537 0.8284
C34 C 0.3641(9) 0.8838(8) 0.8953(6)
H51 H 0.3483 0.8989 0.9420
H52 H 0.3295 0.9237 0.8668
C35 C 0.4934(8) 0.9293(7) 0.8893(6)
H53 H 0.5093 0.9256 0.8415
H54 H 0.5227 1.0065 0.9060
C36 C 0.5566(7) 0.8748(7) 0.9251(5)
H55 H 0.5319 0.8705 0.9715
H56 H 0.6390 0.9215 0.9274
C37 C 0.8280(6) 0.7488(5) 0.8491(4)
C38 C 0.8808(6) 0.8673(5) 0.8685(4)
H57 H 0.9445 0.8801 0.9025
H58 H 0.8224 0.8915 0.8893
C39 C 0.9272(8) 0.9355(6) 0.8103(5)
H59 H 0.8700 0.9093 0.7719
H60 H 0.9360 1.0112 0.8232
C40 C 1.0419(8) 0.9334(6) 0.7883(5)
H61 H 1.0668 0.9820 0.7518
H62 H 1.0999 0.9626 0.8262
C41 C 1.0404(7) 0.8235(7) 0.7645(5)
H63 H 0.9832 0.7943 0.7263
H64 H 1.1169 0.8308 0.7484
C42 C 1.0120(7) 0.7451(7) 0.8172(5)
H65 H 1.0425 0.6874 0.8055
H66 H 1.0515 0.7831 0.8601
O7 O 0.7494(6) 0.4689(4) 0.8119(4)
C43 C 0.7664(14) 0.3897(12) 0.7894(8)
C44 C 0.8079(13) 0.3083(12) 0.8199(7)
H67 H 0.8744 0.3037 0.7961
H68 H 0.8340 0.3327 0.8672
C45 C 0.7176(18) 0.2019(17) 0.8165(10)
H69 H 0.6461 0.2109 0.8308
H70 H 0.7392 0.1587 0.8493
C46 C 0.6904(16) 0.1360(14) 0.7481(8)
H71 H 0.7581 0.1177 0.7363
H72 H 0.6255 0.0673 0.7522
C47 C 0.6597(15) 0.1936(14) 0.6919(9)
H73 H 0.6425 0.1443 0.6508
H74 H 0.5878 0.2054 0.7024
C48 C 0.7431(12) 0.2959(11) 0.6770(7)
H75 H 0.7257 0.3124 0.6314
H76 H 0.8208 0.2918 0.6787
N13 N 0.7407(11) 0.3807(10) 0.7246(7)
H77 H 0.7200 0.4318 0.7088
C16A C 0.9307(7) 0.4972(6) 1.1484(5)
C17A C 1.0851(6) 0.7546(6) 1.0143(4)
C18A C 1.2560(7) 0.5208(6) 1.0340(4)
N6A N 0.9608(5) 0.4953(5) 1.0953(4)
N7A N 1.0535(5) 0.6609(5) 1.0092(3)
N8A N 1.1601(5) 0.5093(5) 1.0258(3)
S4A S 0.8837(3) 0.4992(2) 1.22279(12)
S5A S 1.1253(2) 0.88488(15) 1.02002(13)
S6A S 1.39484(16) 0.53853(16) 1.04198(10)
Cd2A Cd 1.40228(5) 0.48041(4) 1.16259(3)
O3A O 1.5460(6) 0.6401(5) 1.1907(3)
O4A O 1.4087(8) 0.4657(6) 1.2733(3)
O5A O 1.5435(4) 0.4051(4) 1.1382(3)
O6A O 1.2788(5) 0.3029(4) 1.1464(3)
N9A N 1.6932(6) 0.6330(5) 1.1323(4)
H23A H 1.6639 0.5621 1.1323
N10A N 1.5088(6) 0.3599(6) 1.2831(3)
H24A H 1.5526 0.3924 1.2516
N11A N 1.4525(5) 0.2336(5) 1.1001(4)
H25A H 1.3883 0.2430 1.1099
N12A N 1.1095(5) 0.3044(5) 1.1734(3)
H26A H 1.1430 0.3744 1.1835
C19A C 1.6388(9) 0.6896(7) 1.1628(4)
C20A C 1.6815(11) 0.8096(7) 1.1632(5)
H27A H 1.6329 0.8376 1.1911
H28A H 1.7611 0.8399 1.1834
C21A C 1.6800(11) 0.8465(7) 1.0945(5)
H29A H 1.6777 0.9203 1.0983
H30A H 1.6079 0.7987 1.0698
C22A C 1.7784(8) 0.8482(6) 1.0540(5)
H31A H 1.7716 0.8802 1.0115
H32A H 1.8507 0.8959 1.0784
C23A C 1.7870(8) 0.7383(6) 1.0379(4)
H33A H 1.8537 0.7475 1.0104
H34A H 1.7170 0.6919 1.0109
C24A C 1.8001(8) 0.6817(8) 1.0984(5)
H35A H 1.8580 0.7342 1.1305
H36A H 1.8299 0.6242 1.0848
C25A C 1.4337(8) 0.3993(7) 1.3045(4)
C26A C 1.3724(8) 0.3570(8) 1.3660(4)
H37A H 1.4295 0.3585 1.4019
H38A H 1.3310 0.4042 1.3819
C27A C 1.2879(8) 0.2426(10) 1.3514(5)
H39A H 1.2458 0.2383 1.3080
H40A H 1.2309 0.2269 1.3861
C28A C 1.3394(13) 0.1576(11) 1.3487(7)
H41A H 1.2761 0.0863 1.3434
H42A H 1.3812 0.1621 1.3922
C29A C 1.4170(13) 0.1614(11) 1.2969(8)
H43A H 1.4375 0.0959 1.2959
H44A H 1.3787 0.1623 1.2531
C30A C 1.5259(9) 0.2618(12) 1.3088(5)
H45A H 1.5896 0.2490 1.2860
H46A H 1.5478 0.2756 1.3572
C31A C 1.5484(7) 0.3183(5) 1.1095(4)
C32A C 1.6554(7) 0.3090(7) 1.0890(5)
H47A H 1.6464 0.2873 1.0406
H48A H 1.7164 0.3816 1.0956
C33A C 1.6954(8) 0.2334(9) 1.1231(7)
H49A H 1.7779 0.2518 1.1151
H50A H 1.6898 0.2463 1.1716
C34A C 1.6359(9) 0.1162(8) 1.1047(6)
H51A H 1.6517 0.1011 1.0580
H52A H 1.6705 0.0763 1.1332
C35A C 1.5066(8) 0.0707(7) 1.1107(6)
H53A H 1.4907 0.0744 1.1585
H54A H 1.4773 -0.0065 1.0940
C36A C 1.4434(7) 0.1252(7) 1.0749(5)
H55A H 1.4681 0.1295 1.0285
H56A H 1.3610 0.0785 1.0726
C37A C 1.1720(6) 0.2512(5) 1.1509(4)
C38A C 1.1192(6) 0.1327(5) 1.1315(4)
H57A H 1.0555 0.1199 1.0975
H58A H 1.1776 0.1085 1.1107
C39A C 1.0728(8) 0.0645(6) 1.1897(5)
H59A H 1.1300 0.0907 1.2281
H60A H 1.0640 -0.0112 1.1768
C40A C 0.9581(8) 0.0666(6) 1.2117(5)
H61A H 0.9332 0.0180 1.2482
H62A H 0.9001 0.0374 1.1738
C41A C 0.9596(7) 0.1765(7) 1.2355(5)
H63A H 1.0168 0.2057 1.2737
H64A H 0.8831 0.1692 1.2516
C42A C 0.9880(7) 0.2549(7) 1.1828(5)
H65A H 0.9575 0.3126 1.1945
H66A H 0.9485 0.2169 1.1399
O7A O 1.2506(6) 0.5311(4) 1.1881(4)
C43A C 1.2336(14) 0.6103(12) 1.2106(8)
C44A C 1.1921(13) 0.6917(12) 1.1801(7)
H67A H 1.1256 0.6963 1.2039
H68A H 1.1660 0.6673 1.1328
C45A C 1.2824(18) 0.7981(17) 1.1835(10)
H69A H 1.3539 0.7891 1.1692
H70A H 1.2608 0.8413 1.1507
C46A C 1.3096(16) 0.8640(14) 1.2519(8)
H71A H 1.2419 0.8823 1.2637
H72A H 1.3745 0.9327 1.2478
C47A C 1.3403(15) 0.8064(14) 1.3081(9)
H73A H 1.3575 0.8557 1.3492
H74A H 1.4122 0.7946 1.2976
C48A C 1.2569(12) 0.7041(11) 1.3230(7)
H75A H 1.2743 0.6876 1.3686
H76A H 1.1792 0.7082 1.3213
N13A N 1.2593(11) 0.6193(10) 1.2754(7)
H77A H 1.2800 0.5682 1.2912
C49? C 0.7314(18) 0.3794(15) 0.7676(12)
C50? C 0.841(3) 0.270(2) 0.7119(15)
C51? C 0.837(2) 0.198(2) 0.7638(12)
C52? C 0.746(3) 0.146(3) 0.7864(19)
C53? C 0.665(3) 0.204(3) 0.8184(18)
C54? C 0.637(2) 0.291(2) 0.7660(13)
H78? H 0.8935 0.4331 0.7412
H79? H 0.7761 0.2342 0.6784
H80? H 0.9135 0.2856 0.6891
H81? H 0.8718 0.1461 0.7467
H82? H 0.8881 0.2423 0.8018
H83? H 0.7632 0.1030 0.8210
H84? H 0.6991 0.0934 0.7499
H85? H 0.7033 0.2455 0.8607
H86? H 0.5917 0.1486 0.8290
H87? H 0.6177 0.2559 0.7200
H88? H 0.5711 0.3090 0.7811
N14? N 0.8326(15) 0.3734(14) 0.7408(8)
loop_
_geom_bond_atom_site_label_1
_geom_bond_atom_site_label_2
_geom_bond_site_symmetry_1
_geom_bond_site_symmetry_2
Cr1 N1 1_555 1_555
C1 N1 1_555 1_555
C2 N2 1_555 1_555
C3 N3 1_555 1_555
N2 Cr1 1_555 1_555
N3 Cr1 1_555 1_555
S1 C1 1_555 1_555
S2 C2 1_555 1_555
S3 C3 1_555 1_555
Cd1 S3 1_555 1_555
O1 Cd1 1_555 1_555
O2 Cd1 1_555 1_555
N4 H1 1_555 1_555
N5 H2 1_555 1_555
C4 O1 1_555 1_555
C5 C4 1_555 1_555
H3 C5 1_555 1_555
H4 C5 1_555 1_555
C6 C5 1_555 1_555
H5 C6 1_555 1_555
H6 C6 1_555 1_555
C7 C6 1_555 1_555
H7 C7 1_555 1_555
H8 C7 1_555 1_555
C8 C7 1_555 1_555
H9 C8 1_555 1_555
H10 C8 1_555 1_555
C9 N4 1_555 1_555
H11 C9 1_555 1_555
H12 C9 1_555 1_555
C10 O2 1_555 1_555
C11 C10 1_555 1_555
H13 C11 1_555 1_555
H14 C11 1_555 1_555
C12 C11 1_555 1_555
H15 C12 1_555 1_555
H16 C12 1_555 1_555
C13 C12 1_555 1_555
H17 C13 1_555 1_555
H18 C13 1_555 1_555
C14 C13 1_555 1_555
H19 C14 1_555 1_555
H20 C14 1_555 1_555
C15 N5 1_555 1_555
H21 C15 1_555 1_555
H22 C15 1_555 1_555
Cr2 N6 1_555 1_555
C16 N6 1_555 1_555
C17 N7 1_555 1_555
C18 N8 1_555 1_555
N7 Cr2 1_555 1_555
N8 Cr2 1_555 1_555
S4 C16 1_555 1_555
S5 C17 1_555 1_555
S6 C18 1_555 1_555
Cd2 S6 1_555 1_555
O3 Cd2 1_555 1_555
O4 Cd2 1_555 1_555
O5 Cd2 1_555 1_555
O6 Cd2 1_555 1_555
N9 H23 1_555 1_555
N10 H24 1_555 1_555
N11 H25 1_555 1_555
N12 H26 1_555 1_555
C19 O3 1_555 1_555
C20 C19 1_555 1_555
H27 C20 1_555 1_555
H28 C20 1_555 1_555
C21 C20 1_555 1_555
H29 C21 1_555 1_555
H30 C21 1_555 1_555
C22 C21 1_555 1_555
H31 C22 1_555 1_555
H32 C22 1_555 1_555
C23 C22 1_555 1_555
H33 C23 1_555 1_555
H34 C23 1_555 1_555
C24 N9 1_555 1_555
H35 C24 1_555 1_555
H36 C24 1_555 1_555
C25 O4 1_555 1_555
C26 C25 1_555 1_555
H37 C26 1_555 1_555
H38 C26 1_555 1_555
C27 C26 1_555 1_555
H39 C27 1_555 1_555
H40 C27 1_555 1_555
C28 C27 1_555 1_555
H41 C28 1_555 1_555
H42 C28 1_555 1_555
C29 C28 1_555 1_555
H43 C29 1_555 1_555
H44 C29 1_555 1_555
C30 N10 1_555 1_555
H45 C30 1_555 1_555
H46 C30 1_555 1_555
C31 O5 1_555 1_555
C32 C31 1_555 1_555
H47 C32 1_555 1_555
H48 C32 1_555 1_555
C33 C32 1_555 1_555
H49 C33 1_555 1_555
H50 C33 1_555 1_555
C34 C33 1_555 1_555
H51 C34 1_555 1_555
H52 C34 1_555 1_555
C35 C34 1_555 1_555
H53 C35 1_555 1_555
H54 C35 1_555 1_555
C36 N11 1_555 1_555
H55 C36 1_555 1_555
H56 C36 1_555 1_555
C37 O6 1_555 1_555
C38 C37 1_555 1_555
H57 C38 1_555 1_555
H58 C38 1_555 1_555
C39 C38 1_555 1_555
H59 C39 1_555 1_555
H60 C39 1_555 1_555
C40 C39 1_555 1_555
H61 C40 1_555 1_555
H62 C40 1_555 1_555
C41 C40 1_555 1_555
H63 C41 1_555 1_555
H64 C41 1_555 1_555
C42 N12 1_555 1_555
H65 C42 1_555 1_555
H66 C42 1_555 1_555
O7 Cd2 1_555 1_555
C43 O7 1_555 1_555
C44 C43 1_555 1_555
H67 C44 1_555 1_555
H68 C44 1_555 1_555
C45 C44 1_555 1_555
H69 C45 1_555 1_555
H70 C45 1_555 1_555
C46 C45 1_555 1_555
H71 C46 1_555 1_555
H72 C46 1_555 1_555
C47 C46 1_555 1_555
H73 C47 1_555 1_555
H74 C47 1_555 1_555
C48 C47 1_555 1_555
H75 C48 1_555 1_555
H76 C48 1_555 1_555
N13 C43 1_555 1_555
H77 N13 1_555 1_555
C1A N1A 1_555 1_555
C2A N2A 1_555 1_555
C3A N3A 1_555 1_555
N1A Cr1 1_555 1_555
N2A Cr1 1_555 1_555
N3A Cr1 1_555 1_555
S1A C1A 1_555 1_555
S2A C2A 1_555 1_555
S3A C3A 1_555 1_555
S3A_2 Cd1 1_555 1_555
Cd1_2 S3A 1_555 1_555
O1A Cd1 1_555 1_555
O2A Cd1 1_555 1_555
N4A H1A 1_555 1_555
N5A H2A 1_555 1_555
C4A O1A 1_555 1_555
C5A C4A 1_555 1_555
H3A C5A 1_555 1_555
H4A C5A 1_555 1_555
C6A C5A 1_555 1_555
H5A C6A 1_555 1_555
H6A C6A 1_555 1_555
C7A C6A 1_555 1_555
H7A C7A 1_555 1_555
H8A C7A 1_555 1_555
C8A C7A 1_555 1_555
H9A C8A 1_555 1_555
H10A C8A 1_555 1_555
C9A N4A 1_555 1_555
H11A C9A 1_555 1_555
H12A C9A 1_555 1_555
C10A O2A 1_555 1_555
C11A C10A 1_555 1_555
H13A C11A 1_555 1_555
H14A C11A 1_555 1_555
C12A C11A 1_555 1_555
H15A C12A 1_555 1_555
H16A C12A 1_555 1_555
C13A C12A 1_555 1_555
H17A C13A 1_555 1_555
H18A C13A 1_555 1_555
C14A C13A 1_555 1_555
H19A C14A 1_555 1_555
H20A C14A 1_555 1_555
C15A N5A 1_555 1_555
H21A C15A 1_555 1_555
H22A C15A 1_555 1_555
C16A N6A 1_555 1_555
C17A N7A 1_555 1_555
C18A N8A 1_555 1_555
N6A Cr2 1_555 1_555
N7A Cr2 1_555 1_555
N8A Cr2 1_555 1_555
S4A C16A 1_555 1_555
S5A C17A 1_555 1_555
S6A C18A 1_555 1_555
Cd2A S6A 1_555 1_555
O3A Cd2A 1_555 1_555
O4A Cd2A 1_555 1_555
O5A Cd2A 1_555 1_555
O6A Cd2A 1_555 1_555
N9A H23A 1_555 1_555
N10A H24A 1_555 1_555
N11A H25A 1_555 1_555
N12A H26A 1_555 1_555
C19A O3A 1_555 1_555
C20A C19A 1_555 1_555
H27A C20A 1_555 1_555
H28A C20A 1_555 1_555
C21A C20A 1_555 1_555
H29A C21A 1_555 1_555
H30A C21A 1_555 1_555
C22A C21A 1_555 1_555
H31A C22A 1_555 1_555
H32A C22A 1_555 1_555
C23A C22A 1_555 1_555
H33A C23A 1_555 1_555
H34A C23A 1_555 1_555
C24A N9A 1_555 1_555
H35A C24A 1_555 1_555
H36A C24A 1_555 1_555
C25A O4A 1_555 1_555
C26A C25A 1_555 1_555
H37A C26A 1_555 1_555
H38A C26A 1_555 1_555
C27A C26A 1_555 1_555
H39A C27A 1_555 1_555
H40A C27A 1_555 1_555
C28A C27A 1_555 1_555
H41A C28A 1_555 1_555
H42A C28A 1_555 1_555
C29A C28A 1_555 1_555
H43A C29A 1_555 1_555
H44A C29A 1_555 1_555
C30A N10A 1_555 1_555
H45A C30A 1_555 1_555
H46A C30A 1_555 1_555
C31A O5A 1_555 1_555
C32A C31A 1_555 1_555
H47A C32A 1_555 1_555
H48A C32A 1_555 1_555
C33A C32A 1_555 1_555
H49A C33A 1_555 1_555
H50A C33A 1_555 1_555
C34A C33A 1_555 1_555
H51A C34A 1_555 1_555
H52A C34A 1_555 1_555
C35A C34A 1_555 1_555
H53A C35A 1_555 1_555
H54A C35A 1_555 1_555
C36A N11A 1_555 1_555
H55A C36A 1_555 1_555
H56A C36A 1_555 1_555
C37A O6A 1_555 1_555
C38A C37A 1_555 1_555
H57A C38A 1_555 1_555
H58A C38A 1_555 1_555
C39A C38A 1_555 1_555
H59A C39A 1_555 1_555
H60A C39A 1_555 1_555
C40A C39A 1_555 1_555
H61A C40A 1_555 1_555
H62A C40A 1_555 1_555
C41A C40A 1_555 1_555
H63A C41A 1_555 1_555
H64A C41A 1_555 1_555
C42A N12A 1_555 1_555
H65A C42A 1_555 1_555
H66A C42A 1_555 1_555
O7A Cd2A 1_555 1_555
C43A O7A 1_555 1_555
C44A C43A 1_555 1_555
H67A C44A 1_555 1_555
H68A C44A 1_555 1_555
C45A C44A 1_555 1_555
H69A C45A 1_555 1_555
H70A C45A 1_555 1_555
C46A C45A 1_555 1_555
H71A C46A 1_555 1_555
H72A C46A 1_555 1_555
C47A C46A 1_555 1_555
H73A C47A 1_555 1_555
H74A C47A 1_555 1_555
C48A C47A 1_555 1_555
H75A C48A 1_555 1_555
H76A C48A 1_555 1_555
N13A C43A 1_555 1_555
H77A N13A 1_555 1_555
N4 C4 1_555 1_555
N5 C10 1_555 1_555
C8 C9 1_555 1_555
C14 C15 1_555 1_555
N9 C19 1_555 1_555
N10 C25 1_555 1_555
N11 C31 1_555 1_555
N12 C37 1_555 1_555
C23 C24 1_555 1_555
C29 C30 1_555 1_555
C35 C36 1_555 1_555
C41 C42 1_555 1_555
C48 N13 1_555 1_555
N4A C4A 1_555 1_555
N5A C10A 1_555 1_555
C8A C9A 1_555 1_555
C14A C15A 1_555 1_555
N9A C19A 1_555 1_555
N10A C25A 1_555 1_555
N11A C31A 1_555 1_555
N12A C37A 1_555 1_555
C23A C24A 1_555 1_555
C29A C30A 1_555 1_555
C35A C36A 1_555 1_555
C41A C42A 1_555 1_555
C48A N13A 1_555 1_555

#END
