
#######################################################################
#
#                 Cambridge Crystallographic Data Centre
#                                CCDC 
#
#######################################################################
#
# If this CIF has been generated from an entry in the Cambridge 
# Structural Database, then it will include bibliographic, chemical, 
# crystal, experimental, refinement or atomic coordinate data resulting 
# from the CCDC's data processing and validation procedures.
#
#######################################################################

data_ZERJAJ
_symmetry_cell_setting           orthorhombic
_symmetry_space_group_name_H-M   'P c a 21'
_symmetry_Int_Tables_number      29
_space_group_name_Hall           'P 2c -2ac'
loop_
_symmetry_equiv_pos_site_id
_symmetry_equiv_pos_as_xyz
1 x,y,z
2 -x,-y,1/2+z
3 1/2+x,-y,z
4 1/2-x,y,1/2+z
_cell_length_a                   20.360(2)
_cell_length_b                   9.374(2)
_cell_length_c                   11.329(2)
_cell_angle_alpha                90
_cell_angle_beta                 90
_cell_angle_gamma                90
_cell_volume                     2162.19
loop_
_atom_site_label
_atom_site_type_symbol
_atom_site_fract_x
_atom_site_fract_y
_atom_site_fract_z
Zn1 Zn 0.731073(10) 0.33089(2) 0.01584(3)
N1 N 0.66376(8) 0.41702(17) -0.10205(16)
C1 C 0.62745(12) 0.5330(2) -0.0816(2)
H1 H 0.6325 0.5797 -0.0098
C2 C 0.58277(12) 0.5872(2) -0.1616(2)
H2 H 0.5587 0.6689 -0.1443
C3 C 0.57463(10) 0.5177(2) -0.26716(19)
C4 C 0.61051(12) 0.3950(3) -0.2882(2)
H3 H 0.6050 0.3440 -0.3580
C5 C 0.65436(11) 0.3500(2) -0.2041(2)
H4 H 0.6788 0.2683 -0.2193
S1 S 0.51887(3) 0.56704(8) -0.37972(6)
S2 S 0.48615(3) 0.76277(7) -0.33094(6)
C6 C 0.42202(10) 0.7276(2) -0.23004(18)
C7 C 0.38457(11) 0.8436(2) -0.1958(2)
H5 H 0.3949 0.9348 -0.2223
C8 C 0.33212(11) 0.8222(2) -0.1224(2)
H6 H 0.3064 0.9003 -0.1020
N2 N 0.31604(8) 0.69444(17) -0.07868(15)
C9 C 0.35443(10) 0.5839(2) -0.10766(19)
H7 H 0.3448 0.4949 -0.0757
C10 C 0.40746(11) 0.5954(2) -0.1823(2)
H8 H 0.4330 0.5160 -0.2003
O1 O 0.71993(7) 0.45627(14) 0.14975(13)
O2 O 0.77502(8) 0.61988(16) 0.05049(14)
C11 C 0.74201(10) 0.5830(2) 0.13619(19)
C12 C 0.72290(11) 0.6867(2) 0.2322(2)
H9 H 0.7423 0.6548 0.3058
H10 H 0.6756 0.6835 0.2417
C13 C 0.74309(12) 0.8408(2) 0.2114(2)
H11 H 0.7897 0.8439 0.1941
H12 H 0.7357 0.8948 0.2833
C14 C 0.70561(10) 0.9117(2) 0.11050(19)
H13 H 0.7143 0.8592 0.0384
H14 H 0.6589 0.9045 0.1265
C15 C 0.72255(10) 1.0661(2) 0.09061(18)
O3 O 0.77007(7) 1.12339(15) 0.13970(15)
O4 O 0.68687(7) 1.13710(12) 0.01820(18)
Zn1B Zn 0.231073(10) 0.66911(2) 0.01584(3)
Zn1_2 Zn 0.731073(10) 1.33089(2) 0.01584(3)
N2B N 0.81604(8) 0.30556(17) -0.07868(15)
O4_2 O 0.68687(7) 0.13710(12) 0.01820(18)
O5 O 0.46203(12) 0.2108(3) -0.2006(2)
H15 H 0.4363 0.2160 -0.1411
H16 H 0.4917 0.1651 -0.1870
O6 O 0.51168(11) 0.8372(2) 0.05241(19)
H17 H 0.5322 0.8481 0.1066
H18 H 0.4770 0.8858 0.0714
O7 O 0.86382(10) 0.82834(19) -0.03250(17)
H19 H 0.8767 0.8846 0.0071
H20 H 0.8374 0.7622 -0.0157
O8 O 0.57337(9) 1.0301(2) -0.10569(16)
H21 H 0.6069 1.0566 -0.0660
H22 H 0.5599 0.9754 -0.0586
O9 O 0.89771(8) 1.02482(18) 0.14891(16)
H23 H 0.8590 1.0530 0.1473
H24 H 0.9054 1.0081 0.2132
loop_
_geom_bond_atom_site_label_1
_geom_bond_atom_site_label_2
_geom_bond_site_symmetry_1
_geom_bond_site_symmetry_2
Zn1 N1 1_555 1_555
N1 C1 1_555 1_555
C1 H1 1_555 1_555
C2 C1 1_555 1_555
H2 C2 1_555 1_555
C3 C2 1_555 1_555
C4 C3 1_555 1_555
H3 C4 1_555 1_555
C5 N1 1_555 1_555
H4 C5 1_555 1_555
S1 C3 1_555 1_555
S2 S1 1_555 1_555
C6 S2 1_555 1_555
C7 C6 1_555 1_555
H5 C7 1_555 1_555
C8 C7 1_555 1_555
H6 C8 1_555 1_555
N2 C8 1_555 1_555
C9 N2 1_555 1_555
H7 C9 1_555 1_555
C10 C6 1_555 1_555
H8 C10 1_555 1_555
O1 Zn1 1_555 1_555
O2 C11 1_555 1_555
C11 O1 1_555 1_555
C12 C11 1_555 1_555
H9 C12 1_555 1_555
H10 C12 1_555 1_555
C13 C12 1_555 1_555
H11 C13 1_555 1_555
H12 C13 1_555 1_555
C14 C13 1_555 1_555
H13 C14 1_555 1_555
H14 C14 1_555 1_555
C15 C14 1_555 1_555
O3 C15 1_555 1_555
O4 C15 1_555 1_555
O5 H15 1_555 1_555
H16 O5 1_555 1_555
O6 H17 1_555 1_555
H18 O6 1_555 1_555
O7 H19 1_555 1_555
H20 O7 1_555 1_555
O8 H21 1_555 1_555
H22 O8 1_555 1_555
O9 H23 1_555 1_555
H24 O9 1_555 1_555
Zn1B N2 1_555 1_555
Zn1_2 O4 1_555 1_555
N2B Zn1 1_555 1_555
O4_2 Zn1 1_555 1_555
C4 C5 1_555 1_555
C9 C10 1_555 1_555

#END
