
#######################################################################
#
#                 Cambridge Crystallographic Data Centre
#                                CCDC 
#
#######################################################################
#
# If this CIF has been generated from an entry in the Cambridge 
# Structural Database, then it will include bibliographic, chemical, 
# crystal, experimental, refinement or atomic coordinate data resulting 
# from the CCDC's data processing and validation procedures.
#
#######################################################################

data_ZERLAL
_symmetry_cell_setting           triclinic
_symmetry_space_group_name_H-M   'P 1'
_symmetry_Int_Tables_number      1
_space_group_name_Hall           'P 1'
loop_
_symmetry_equiv_pos_site_id
_symmetry_equiv_pos_as_xyz
1 x,y,z
_cell_length_a                   6.934(1)
_cell_length_b                   7.566(1)
_cell_length_c                   15.409(2)
_cell_angle_alpha                94.720(6)
_cell_angle_beta                 96.281(6)
_cell_angle_gamma                111.765(5)
_cell_volume                     739.624
loop_
_atom_site_label
_atom_site_type_symbol
_atom_site_fract_x
_atom_site_fract_y
_atom_site_fract_z
U1 U 0.18550 0.44180 0.32590
U2 U 0.55500 0.33800 0.97439
Na1 Na 0.68100 0.95300 0.33000
Na2 Na 1.05600 -0.15400 0.97100
Na3 Na 0.79200 -0.19800 0.71900
Na4 Na 0.59400 0.05500 0.58190
C1 C -0.02700 0.75100 0.37900
C2 C -0.06200 0.71900 0.27600
C3 C 0.42700 0.18700 0.41500
C4 C 0.38100 0.29600 0.49600
C5 C 0.62500 0.10200 0.80800
C6 C 0.73700 0.03400 0.88500
C7 C 0.31500 0.61300 0.91900
C8 C 0.35900 0.63900 1.02400
O1 O 0.42500 0.62800 0.31400
O2 O -0.05500 0.25500 0.32000
O3 O -0.06700 0.86900 0.42200
O4 O 0.83200 -0.06200 0.87500
O5 O 0.49100 0.06800 0.42800
O6 O 0.79900 0.53100 0.96200
O7 O 0.31600 0.14500 0.97000
O8 O 0.49300 1.04100 0.20900
O9 O 0.28800 0.42200 0.47400
O11 O 0.43800 0.27800 0.56900
O12 O 0.00600 0.59900 0.24100
O13 O 0.35000 0.21500 0.34100
O14 O 0.07000 0.65100 0.41400
O15 O 0.21400 0.34500 0.17800
O16 O 0.69300 -0.21400 0.56500
O18 O 0.71800 0.11100 0.96200
O19 O 0.54000 0.21600 0.82900
O20 O 0.38600 0.49600 0.88500
O21 O 0.43700 0.54300 1.06200
O22 O 0.68300 0.32600 1.12400
O23 O 0.26400 -0.20100 0.59200
O24 O 0.64800 0.04700 0.73200
O25 O 0.94700 -0.43000 0.73000
O26 O 0.43600 -0.43700 0.70400
O27 O -0.15100 0.81400 0.24000
O28 O 0.29500 0.76000 1.06600
O29 O 0.20800 0.69300 0.88100
O30 O 0.95200 0.26700 0.59600
D1 D 0.393(3) 0.940(3) 0.1725(13)
D2 D 0.416(4) 1.081(5) 0.2399(18)
D5 D 0.274(4) 0.412(4) 0.1396(15)
D6 D 0.128(3) 0.233(3) 0.1466(12)
D7 D 0.785(3) -0.186(3) 0.5337(14)
D8 D 0.585(4) -0.286(4) 0.5304(18)
D11 D 0.632(4) 0.217(3) 1.1418(19)
D12 D 0.798(3) 0.406(3) 1.1550(15)
D13 D 0.342(6) -0.241(5) 0.627(2)
D14 D 0.182(4) -0.262(4) 0.5477(16)
D15 D 1.021(4) -0.355(5) 0.7772(18)
D16 D 0.468(5) -0.526(4) 0.675(2)
D17 D 0.399(5) -0.465(5) 0.7544(15)
D18 D 1.019(4) 0.185(4) 0.6130(17)
D19 D 1.035(4) 0.362(4) 0.576(2)
D20 D 1.089(3) -0.417(6) 0.696(3)
Na1_2 Na -0.31900 -0.04700 0.33000
Na1_3 Na -0.31900 0.95300 0.33000
Na1_4 Na 0.68100 -0.04700 0.33000
Na2_2 Na 1.05600 0.84600 0.97100
Na2_3 Na 0.05600 -0.15400 0.97100
Na2_4 Na 0.05600 0.84600 0.97100
O2_2 O 0.94500 1.25500 0.32000
O3_2 O 0.93300 0.86900 0.42200
O5_2 O 0.49100 1.06800 0.42800
O6_2 O 0.79900 -0.46900 0.96200
O7_2 O 1.31600 0.14500 0.97000
O27_2 O 0.84900 0.81400 0.24000
O28_2 O 1.29500 -0.24000 1.06600
O29_2 O 1.20800 -0.30700 0.88100
O10 O -0.06600 1.00100 1.09100
D3 D -0.124(4) 0.922(4) 1.1276(15)
D4 D -0.173(4) 1.004(4) 1.0576(15)
O17 O 1.13000 0.04700 0.70100
D9 D 1.160(3) -0.014(3) 0.6575(13)
D10 D 1.235(3) 0.093(3) 0.7472(14)
loop_
_geom_bond_atom_site_label_1
_geom_bond_atom_site_label_2
_geom_bond_site_symmetry_1
_geom_bond_site_symmetry_2
U1 O1 1_555 1_555
U2 O6 1_555 1_555
Na1 O1 1_555 1_555
Na2 O4 1_555 1_555
Na3 O16 1_555 1_555
Na4 O5 1_555 1_555
C1 C2 1_555 1_555
C2 O12 1_555 1_555
C3 C4 1_555 1_555
C4 O9 1_555 1_555
C5 C6 1_555 1_555
C6 O4 1_555 1_555
C7 C8 1_555 1_555
C8 O21 1_555 1_555
O2 U1 1_555 1_555
O3 C1 1_555 1_555
O5 C3 1_555 1_555
O6 Na2_2 1_555 1_555
O7 U2 1_555 1_555
O8 Na1 1_555 1_555
O9 U1 1_555 1_555
O10 D3 1_555 1_555
O11 Na4 1_555 1_555
O12 U1 1_555 1_555
O13 U1 1_555 1_555
O14 U1 1_555 1_555
O15 U1 1_555 1_555
O16 Na4 1_555 1_555
O17 D9 1_555 1_555
O18 U2 1_555 1_555
O19 U2 1_555 1_555
O20 U2 1_555 1_555
O21 U2 1_555 1_555
O22 U2 1_555 1_555
O23 Na4 1_555 1_555
O24 Na3 1_555 1_555
O25 Na3 1_555 1_555
O26 Na3 1_555 1_555
O27 C2 1_555 1_555
O28 C8 1_555 1_555
O29 C7 1_555 1_555
O30 Na4 1_555 1_555
D1 O8 1_555 1_555
D2 O8 1_555 1_555
D4 O10 1_555 1_555
D5 O15 1_555 1_555
D6 O15 1_555 1_555
D7 O16 1_555 1_555
D8 O16 1_555 1_555
D10 O17 1_555 1_555
D11 O22 1_555 1_555
D12 O22 1_555 1_555
D13 O23 1_555 1_555
D14 O23 1_555 1_555
D15 O25 1_555 1_555
D16 O26 1_555 1_555
D17 O26 1_555 1_555
D18 O30 1_555 1_555
D19 O30 1_555 1_555
D20 O25 1_555 1_555
Na1_2 O2 1_555 1_555
Na1_3 O3 1_555 1_555
Na1_4 O5 1_555 1_555
Na2_3 O7 1_555 1_555
Na2_4 O28 1_555 1_555
O2_2 Na1 1_555 1_555
O3_2 Na1 1_555 1_555
O5_2 Na1 1_555 1_555
O6_2 Na2 1_555 1_555
O7_2 Na2 1_555 1_555
O27_2 Na1 1_555 1_555
O28_2 Na2 1_555 1_555
O29_2 Na2 1_555 1_555
Na4 O24 1_555 1_555
C1 O14 1_555 1_555
C3 O13 1_555 1_555
C4 O11 1_555 1_555
C5 O19 1_555 1_555
C5 O24 1_555 1_555
C6 O18 1_555 1_555
C7 O20 1_555 1_555
O27 Na1_3 1_555 1_555
O29 Na2_4 1_555 1_555

#END
