
#######################################################################
#
#                 Cambridge Crystallographic Data Centre
#                                CCDC 
#
#######################################################################
#
# If this CIF has been generated from an entry in the Cambridge 
# Structural Database, then it will include bibliographic, chemical, 
# crystal, experimental, refinement or atomic coordinate data resulting 
# from the CCDC's data processing and validation procedures.
#
#######################################################################

data_ZERMOA
_symmetry_cell_setting           monoclinic
_symmetry_space_group_name_H-M   'P 21/n'
_symmetry_Int_Tables_number      14
_space_group_name_Hall           '-P 2yn'
loop_
_symmetry_equiv_pos_site_id
_symmetry_equiv_pos_as_xyz
1 x,y,z
2 1/2-x,1/2+y,1/2-z
3 -x,-y,-z
4 1/2+x,1/2-y,1/2+z
_cell_length_a                   12.366(8)
_cell_length_b                   10.426(7)
_cell_length_c                   17.438(12)
_cell_angle_alpha                90
_cell_angle_beta                 93.717(7)
_cell_angle_gamma                90
_cell_volume                     2243.52
loop_
_atom_site_label
_atom_site_type_symbol
_atom_site_fract_x
_atom_site_fract_y
_atom_site_fract_z
Tm1 Tm 0.34878(3) 0.63300(3) 0.03919(2)
O1 O 0.3633(6) 0.8148(5) -0.0351(3)
O2 O 0.3678(5) 0.6328(5) -0.0934(3)
O3 O 0.4726(5) 1.3595(5) -0.0534(3)
O4 O 0.3419(5) 1.4228(5) 0.0187(3)
O5 O 0.1697(6) 0.6499(8) -0.0236(4)
O6 O 0.1774(6) 0.6336(7) 0.0951(4)
O7 O 0.0224(6) 0.6526(8) 0.0365(5)
N1 N 0.3665(5) 0.8084(6) 0.1348(4)
N2 N 0.3733(5) 0.5548(6) 0.1746(4)
N3 N 0.1709(6) 1.0879(7) -0.0237(4)
N4 N 0.1183(8) 0.6471(10) 0.0370(5)
C1 C 0.3591(7) 0.9310(7) 0.1162(5)
H1 H 0.3415 0.9527 0.0652
C2 C 0.3764(8) 1.0292(8) 0.1698(5)
H2 H 0.3701 1.1145 0.1546
C3 C 0.4024(7) 0.9991(8) 0.2444(5)
H3 H 0.4149 1.0640 0.2805
C4 C 0.4106(7) 0.8697(8) 0.2674(5)
C5 C 0.3916(6) 0.7783(7) 0.2094(5)
C6 C 0.4402(8) 0.8308(9) 0.3431(5)
H4 H 0.4583 0.8925 0.3802
C7 C 0.4428(7) 0.7070(9) 0.3628(5)
H5 H 0.4616 0.6844 0.4135
C8 C 0.4174(6) 0.6096(8) 0.3081(5)
C9 C 0.3944(6) 0.6443(7) 0.2307(5)
C10 C 0.4132(7) 0.4810(9) 0.3262(5)
H6 H 0.4295 0.4545 0.3766
C11 C 0.3856(8) 0.3936(9) 0.2714(5)
H7 H 0.3771 0.3076 0.2838
C12 C 0.3702(7) 0.4356(9) 0.1963(5)
H8 H 0.3566 0.3739 0.1584
C13 C 0.3607(7) 0.7502(8) -0.0968(4)
C14 C 0.3522(6) 0.8168(7) -0.1735(4)
C15 C 0.3779(6) 0.7456(7) -0.2356(4)
H9 H 0.3978 0.6601 -0.2286
C16 C 0.3750(7) 0.7971(8) -0.3076(5)
H10 H 0.3918 0.7472 -0.3494
C17 C 0.3471(7) 0.9236(9) -0.3174(5)
H11 H 0.3464 0.9601 -0.3661
C18 C 0.3200(7) 0.9970(8) -0.2559(5)
H12 H 0.2994 1.0820 -0.2636
C19 C 0.3233(6) 0.9455(7) -0.1835(5)
C20 C 0.2928(6) 1.0337(7) -0.1201(5)
C21 C 0.3529(6) 1.1423(7) -0.1021(4)
H13 H 0.4145 1.1602 -0.1281
C22 C 0.3221(6) 1.2240(7) -0.0459(4)
C23 C 0.3842(7) 1.3428(7) -0.0255(5)
C24 C 0.2293(6) 1.1953(8) -0.0083(5)
H14 H 0.2067 1.2520 0.0286
C25 C 0.2048(7) 1.0108(7) -0.0780(5)
H15 H 0.1659 0.9357 -0.0882
Tm1_2 Tm 0.34878(3) 1.63300(3) 0.03919(2)
Tm1B Tm 0.65122(3) 1.36700(3) -0.03919(2)
O3B O 0.5274(5) 0.6405(5) 0.0534(3)
O4_2 O 0.3419(5) 0.4228(5) 0.0187(3)
loop_
_geom_bond_atom_site_label_1
_geom_bond_atom_site_label_2
_geom_bond_site_symmetry_1
_geom_bond_site_symmetry_2
Tm1 O1 1_555 1_555
O1 C13 1_555 1_555
O2 Tm1 1_555 1_555
O3 C23 1_555 1_555
O4 C23 1_555 1_555
O5 Tm1 1_555 1_555
O6 Tm1 1_555 1_555
O7 N4 1_555 1_555
N1 Tm1 1_555 1_555
N2 Tm1 1_555 1_555
N3 C24 1_555 1_555
N4 O5 1_555 1_555
C1 N1 1_555 1_555
H1 C1 1_555 1_555
C2 C1 1_555 1_555
H2 C2 1_555 1_555
C3 C2 1_555 1_555
H3 C3 1_555 1_555
C4 C3 1_555 1_555
C5 N1 1_555 1_555
C6 C4 1_555 1_555
H4 C6 1_555 1_555
C7 C6 1_555 1_555
H5 C7 1_555 1_555
C8 C7 1_555 1_555
C9 N2 1_555 1_555
C10 C8 1_555 1_555
H6 C10 1_555 1_555
C11 C10 1_555 1_555
H7 C11 1_555 1_555
C12 N2 1_555 1_555
H8 C12 1_555 1_555
C13 O2 1_555 1_555
C14 C13 1_555 1_555
C15 C14 1_555 1_555
H9 C15 1_555 1_555
C16 C15 1_555 1_555
H10 C16 1_555 1_555
C17 C16 1_555 1_555
H11 C17 1_555 1_555
C18 C17 1_555 1_555
H12 C18 1_555 1_555
C19 C14 1_555 1_555
C20 C19 1_555 1_555
C21 C20 1_555 1_555
H13 C21 1_555 1_555
C22 C21 1_555 1_555
C23 C22 1_555 1_555
C24 C22 1_555 1_555
H14 C24 1_555 1_555
C25 N3 1_555 1_555
H15 C25 1_555 1_555
Tm1_2 O4 1_555 1_555
Tm1B O3 1_555 1_555
O3B Tm1 1_555 1_555
O4_2 Tm1 1_555 1_555
O6 N4 1_555 1_555
C4 C5 1_555 1_555
C5 C9 1_555 1_555
C8 C9 1_555 1_555
C11 C12 1_555 1_555
C18 C19 1_555 1_555
C20 C25 1_555 1_555

#END
