
#######################################################################
#
#                 Cambridge Crystallographic Data Centre
#                                CCDC 
#
#######################################################################
#
# If this CIF has been generated from an entry in the Cambridge 
# Structural Database, then it will include bibliographic, chemical, 
# crystal, experimental, refinement or atomic coordinate data resulting 
# from the CCDC's data processing and validation procedures.
#
#######################################################################

data_ZERMIU
_symmetry_cell_setting           rhombohedral
_symmetry_space_group_name_H-M   'R -3'
_symmetry_Int_Tables_number      148
_space_group_name_Hall           '-R 3'
loop_
_symmetry_equiv_pos_site_id
_symmetry_equiv_pos_as_xyz
1 x,y,z
2 -y,x-y,z
3 -x+y,-x,z
4 2/3+x,1/3+y,1/3+z
5 2/3-y,1/3+x-y,1/3+z
6 2/3-x+y,1/3-x,1/3+z
7 1/3+x,2/3+y,2/3+z
8 1/3-y,2/3+x-y,2/3+z
9 1/3-x+y,2/3-x,2/3+z
10 -x,-y,-z
11 y,-x+y,-z
12 x-y,x,-z
13 1/3-x,2/3-y,2/3-z
14 1/3+y,2/3-x+y,2/3-z
15 1/3+x-y,2/3+x,2/3-z
16 2/3-x,1/3-y,1/3-z
17 2/3+y,1/3-x+y,1/3-z
18 2/3+x-y,1/3+x,1/3-z
_cell_length_a                   31.18(3)
_cell_length_b                   31.18(3)
_cell_length_c                   18.229(19)
_cell_angle_alpha                90
_cell_angle_beta                 90
_cell_angle_gamma                120
_cell_volume                     15347.8
loop_
_atom_site_label
_atom_site_type_symbol
_atom_site_fract_x
_atom_site_fract_y
_atom_site_fract_z
Sm1 Sm 0.631082(14) 0.841559(15) 0.41971(2)
O1 O 0.5958(2) 0.7885(2) 0.5311(3)
O2 O 0.5464(2) 0.7684(2) 0.4344(3)
O3 O 0.3922(3) 0.6035(2) 0.2146(4)
H1 H 0.3706 0.5761 0.2006
O4 O 0.4053(3) 0.5654(3) 0.3093(4)
O5 O 0.6803(2) 0.93485(18) 0.3857(3)
O6 O 0.69879(19) 0.88723(18) 0.3194(3)
O7 O 0.82552(19) 1.08234(19) 0.6388(3)
O8 O 0.8369(2) 1.13414(19) 0.5441(3)
N1 N 0.4267(3) 0.7278(3) 0.3425(5)
N2 N 0.8247(3) 0.9795(2) 0.4884(4)
N3 N 0.5753(2) 0.8754(2) 0.4709(3)
N4 N 0.6644(2) 0.8997(2) 0.5356(3)
C1 C 0.5540(3) 0.7614(3) 0.5005(5)
C2 C 0.5126(3) 0.7206(3) 0.5460(5)
C3 C 0.5243(4) 0.7116(4) 0.6175(5)
H2 H 0.5565 0.7307 0.6347
C4 C 0.4895(4) 0.6754(4) 0.6623(6)
H3 H 0.4980 0.6700 0.7089
C5 C 0.4412(4) 0.6469(4) 0.6362(6)
H4 H 0.4171 0.6227 0.6661
C6 C 0.4290(4) 0.6542(4) 0.5674(6)
H5 H 0.3966 0.6346 0.5513
C7 C 0.4639(3) 0.6903(3) 0.5202(5)
C8 C 0.4476(3) 0.6899(3) 0.4433(5)
C9 C 0.4422(4) 0.7281(4) 0.4112(6)
H6 H 0.4500 0.7557 0.4400
C10 C 0.4155(4) 0.6871(4) 0.3011(6)
H7 H 0.4061 0.6867 0.2526
C11 C 0.4175(3) 0.6460(3) 0.3270(5)
C12 C 0.4344(3) 0.6487(3) 0.3989(5)
H8 H 0.4369 0.6223 0.4176
C13 C 0.4043(3) 0.6004(4) 0.2844(5)
C14 C 0.7046(3) 0.9298(3) 0.3347(4)
C15 C 0.7388(3) 0.9735(3) 0.2875(4)
C16 C 0.7278(3) 0.9740(3) 0.2142(5)
H9 H 0.7008 0.9463 0.1939
C17 C 0.7563(4) 1.0153(3) 0.1695(5)
H10 H 0.7482 1.0151 0.1204
C18 C 0.7963(4) 1.0560(3) 0.1993(5)
H11 H 0.8153 1.0836 0.1701
C19 C 0.8091(3) 1.0565(3) 0.2729(5)
H12 H 0.8365 1.0843 0.2922
C20 C 0.7804(3) 1.0149(3) 0.3179(4)
C21 C 0.7962(3) 1.0154(3) 0.3957(4)
C22 C 0.8067(3) 0.9795(3) 0.4209(5)
H13 H 0.8009 0.9537 0.3893
C23 C 0.8308(3) 1.0157(3) 0.5356(4)
H14 H 0.8417 1.0153 0.5829
C24 C 0.8213(3) 1.0535(3) 0.5162(4)
C25 C 0.8048(3) 1.0538(3) 0.4446(4)
H15 H 0.7995 1.0793 0.4296
C26 C 0.8289(3) 1.0936(3) 0.5716(4)
C27 C 0.5309(3) 0.8622(3) 0.4406(4)
H16 H 0.5199 0.8401 0.4014
C28 C 0.5005(3) 0.8810(3) 0.4665(5)
H17 H 0.4700 0.8712 0.4448
C29 C 0.5167(3) 0.9135(4) 0.5235(5)
H18 H 0.4972 0.9264 0.5403
C30 C 0.5627(3) 0.9281(3) 0.5576(4)
C31 C 0.5907(3) 0.9073(3) 0.5291(4)
C32 C 0.5815(4) 0.9615(3) 0.6188(5)
H19 H 0.5629 0.9749 0.6370
C33 C 0.6252(3) 0.9739(3) 0.6506(5)
H20 H 0.6365 0.9958 0.6901
C34 C 0.6544(3) 0.9535(3) 0.6234(4)
C35 C 0.6373(3) 0.9203(3) 0.5631(4)
C36 C 0.7012(3) 0.9651(3) 0.6560(5)
H21 H 0.7139 0.9868 0.6954
C37 C 0.7267(3) 0.9435(3) 0.6277(5)
H22 H 0.7569 0.9505 0.6480
C38 C 0.7073(3) 0.9115(3) 0.5690(5)
H23 H 0.7251 0.8970 0.5515
Sm1D Sm 0.825108(15) 1.122856(21) 0.75304(2)
Sm1J Sm 0.841559(15) 1.210477(21) 0.58029(2)
Sm1L Sm 0.702251(14) 0.825108(15) 0.24696(2)
O6L O 0.63454(19) 0.77944(18) 0.3473(3)
O7H O 0.59015(27) 0.84115(19) 0.3055(3)
O8K O 0.70276(28) 0.8369(2) 0.4559(3)
O9 O 0.6185(7) 0.8260(4) 0.6843(6)
H24 H 0.6119 0.8151 0.6406
H25 H 0.6298 0.8443 0.6459
loop_
_geom_bond_atom_site_label_1
_geom_bond_atom_site_label_2
_geom_bond_site_symmetry_1
_geom_bond_site_symmetry_2
Sm1 O1 1_555 1_555
O1 C1 1_555 1_555
O2 Sm1 1_555 1_555
O3 H1 1_555 1_555
O4 C13 1_555 1_555
O5 Sm1 1_555 1_555
O6 Sm1 1_555 1_555
O7 C26 1_555 1_555
O8 C26 1_555 1_555
N1 C9 1_555 1_555
N2 C22 1_555 1_555
N3 Sm1 1_555 1_555
N4 Sm1 1_555 1_555
C1 O2 1_555 1_555
C2 C1 1_555 1_555
C3 C2 1_555 1_555
H2 C3 1_555 1_555
C4 C3 1_555 1_555
H3 C4 1_555 1_555
C5 C4 1_555 1_555
H4 C5 1_555 1_555
C6 C5 1_555 1_555
H5 C6 1_555 1_555
C7 C2 1_555 1_555
C8 C7 1_555 1_555
C9 C8 1_555 1_555
H6 C9 1_555 1_555
C10 N1 1_555 1_555
H7 C10 1_555 1_555
C11 C10 1_555 1_555
C12 C8 1_555 1_555
H8 C12 1_555 1_555
C13 O3 1_555 1_555
C14 O5 1_555 1_555
C15 C14 1_555 1_555
C16 C15 1_555 1_555
H9 C16 1_555 1_555
C17 C16 1_555 1_555
H10 C17 1_555 1_555
C18 C17 1_555 1_555
H11 C18 1_555 1_555
C19 C18 1_555 1_555
H12 C19 1_555 1_555
C20 C15 1_555 1_555
C21 C20 1_555 1_555
C22 C21 1_555 1_555
H13 C22 1_555 1_555
C23 N2 1_555 1_555
H14 C23 1_555 1_555
C24 C23 1_555 1_555
C25 C21 1_555 1_555
H15 C25 1_555 1_555
C26 C24 1_555 1_555
C27 N3 1_555 1_555
H16 C27 1_555 1_555
C28 C27 1_555 1_555
H17 C28 1_555 1_555
C29 C28 1_555 1_555
H18 C29 1_555 1_555
C30 C29 1_555 1_555
C31 N3 1_555 1_555
C32 C30 1_555 1_555
H19 C32 1_555 1_555
C33 C32 1_555 1_555
H20 C33 1_555 1_555
C34 C33 1_555 1_555
C35 N4 1_555 1_555
C36 C34 1_555 1_555
H21 C36 1_555 1_555
C37 C36 1_555 1_555
H22 C37 1_555 1_555
C38 N4 1_555 1_555
H23 C38 1_555 1_555
O9 H24 1_555 1_555
H25 O9 1_555 1_555
Sm1D O7 1_555 1_555
Sm1J O8 1_555 1_555
Sm1L O6 1_555 1_555
O6L Sm1 1_555 1_555
O7H Sm1 1_555 1_555
O8K Sm1 1_555 1_555
O6 C14 1_555 1_555
C6 C7 1_555 1_555
C11 C12 1_555 1_555
C11 C13 1_555 1_555
C19 C20 1_555 1_555
C24 C25 1_555 1_555
C30 C31 1_555 1_555
C31 C35 1_555 1_555
C34 C35 1_555 1_555
C37 C38 1_555 1_555
Sm1L O6L 1_555 1_555

#END
