
#######################################################################
#
#                 Cambridge Crystallographic Data Centre
#                                CCDC 
#
#######################################################################
#
# If this CIF has been generated from an entry in the Cambridge 
# Structural Database, then it will include bibliographic, chemical, 
# crystal, experimental, refinement or atomic coordinate data resulting 
# from the CCDC's data processing and validation procedures.
#
#######################################################################

data_ZERNOZ
_symmetry_cell_setting           triclinic
_symmetry_space_group_name_H-M   'P -1'
_symmetry_Int_Tables_number      2
_space_group_name_Hall           '-P 1'
loop_
_symmetry_equiv_pos_site_id
_symmetry_equiv_pos_as_xyz
1 x,y,z
2 -x,-y,-z
_cell_length_a                   7.150(1)
_cell_length_b                   7.809(2)
_cell_length_c                   9.996(2)
_cell_angle_alpha                76.55(2)
_cell_angle_beta                 70.17(2)
_cell_angle_gamma                88.91(2)
_cell_volume                     509.531
loop_
_atom_site_label
_atom_site_type_symbol
_atom_site_fract_x
_atom_site_fract_y
_atom_site_fract_z
O9 O 0.1257(25) 0.2914(22) 0.2425(18)
H1 H 0.1861 0.2903 0.1411
H2 H -0.0092 0.2421 0.2786
H3 H 0.1995 0.2226 0.2978
O10 O 0.1275(30) 0.6102(26) 0.2699(23)
H4 H 0.1883 0.6885 0.1752
H5 H 0.2017 0.6209 0.3319
H6 H -0.0069 0.6404 0.3127
O11 O -0.0429(80) 0.3685(68) 0.5453(62)
V1 V 0.0000 0.0000 0.0000
V2 V 0.5000 0.0000 0.0000
V3 V 0.4436(5) -0.0032(6) -0.4940(5)
P1 P 0.3310(4) -0.2439(3) -0.1561(3)
P2 P 0.3708(4) -0.7620(3) -0.2681(3)
O1 O 0.1173(11) -0.2007(9) -0.0853(8)
O2 O 0.4674(11) -0.2063(10) -0.0776(9)
O3 O 0.4132(18) -0.1502(10) -0.3177(9)
O4 O 0.1553(10) -0.8303(9) -0.1828(8)
O5 O 0.5089(11) -0.8353(10) -0.1854(9)
O6 O 0.4387(14) -0.7929(10) -0.4205(8)
O7 O 0.2302(26) -0.0113(23) -0.4950(17)
O8 O 0.2159(10) 0.0086(9) 0.0726(8)
C1 C 0.3268(19) -0.4800(13) -0.1386(11)
C2 C 0.3804(20) -0.5256(14) -0.2926(12)
H8 H 0.1963 -0.4901 -0.1444
H9 H 0.2651 -0.4577 -0.2809
H10 H 0.4859 -0.4594 -0.2842
P1A P -0.3310(4) 0.2439(3) 0.1561(3)
P2A P -0.3708(4) 0.7620(3) 0.2681(3)
O1A O -0.1173(11) 0.2007(9) 0.0853(8)
O2A O -0.4674(11) 0.2063(10) 0.0776(9)
O3A O -0.4132(18) 0.1502(10) 0.3177(9)
O4A O -0.1553(10) 0.8303(9) 0.1828(8)
O5A O -0.5089(11) 0.8353(10) 0.1854(9)
O6A O -0.4387(14) 0.7929(10) 0.4205(8)
C1A C -0.3268(19) 0.4800(13) 0.1386(11)
C2A C -0.3804(20) 0.5256(14) 0.2926(12)
H8A H -0.1963 0.4901 0.1444
H9A H -0.2651 0.4577 0.2809
H10A H -0.4859 0.4594 0.2842
O8A O -0.2159(10) -0.0086(9) -0.0726(8)
V3A V -0.4436(5) 0.0032(6) 0.4940(5)
O7A O 0.7698(26) 0.0113(23) -0.5050(17)
O4_2 O 0.1553(10) 0.1697(9) -0.1828(8)
O4A_2 O -0.1553(10) -0.1697(9) 0.1828(8)
O2A_2 O 0.5326(11) 0.2063(10) 0.0776(9)
O5_2 O 0.5089(11) 0.1647(10) -0.1854(9)
O5A_2 O 0.4911(11) -0.1647(10) 0.1854(9)
O8A_2 O 0.7841(10) -0.0086(9) -0.0726(8)
V3A_2 V 0.5564(5) 0.0032(6) -0.5060(5)
O3A_2 O 0.5868(18) 0.1502(10) -0.6823(9)
O6_2 O 0.4387(14) 0.2071(10) -0.4205(8)
O6A_2 O 0.5613(14) -0.2071(10) -0.5795(8)
V1_2 V 0.0000 -1.0000 0.0000
V2_2 V 0.5000 -1.0000 0.0000
V3_2 V 0.4436(5) -1.0032(6) -0.4940(5)
V3A_3 V 0.5564(5) -0.9968(6) -0.5060(5)
V2_3 V -0.5000 0.0000 0.0000
V3_3 V -0.5564(5) -0.0032(6) 0.5060(5)
V1_3 V 0.0000 1.0000 0.0000
V2_4 V -0.5000 1.0000 0.0000
V3_4 V -0.5564(5) 0.9968(6) 0.5060(5)
V3A_4 V -0.4436(5) 1.0032(6) 0.4940(5)
O3_2 O -0.5868(18) -0.1502(10) 0.6823(9)
O6_3 O -0.5613(14) 0.2071(10) 0.5795(8)
O6A_3 O -0.4387(14) -0.2071(10) 0.4205(8)
O7_2 O -0.7698(26) -0.0113(23) 0.5050(17)
O7A_2 O -0.2302(26) 0.0113(23) 0.4950(17)
H7? H 0.5918 0.5646 1.1832
loop_
_geom_bond_atom_site_label_1
_geom_bond_atom_site_label_2
_geom_bond_site_symmetry_1
_geom_bond_site_symmetry_2
V1 O1 1_555 1_555
V2 O2 1_555 1_555
V3 O3 1_555 1_555
P1 O1 1_555 1_555
P2 O4 1_555 1_555
O2 P1 1_555 1_555
O3 P1 1_555 1_555
O4 V1_2 1_555 1_555
O5 P2 1_555 1_555
O6 P2 1_555 1_555
O7 V3 1_555 1_555
O8 V1 1_555 1_555
O9 H1 1_555 1_555
O10 H4 1_555 1_555
C1 P1 1_555 1_555
C2 P2 1_555 1_555
H2 O9 1_555 1_555
H3 O9 1_555 1_555
H5 O10 1_555 1_555
H6 O10 1_555 1_555
H8 C1 1_555 1_555
H9 C2 1_555 1_555
H10 C2 1_555 1_555
P1A O1A 1_555 1_555
P2A O4A 1_555 1_555
O1A V1 1_555 1_555
O2A P1A 1_555 1_555
O3A P1A 1_555 1_555
O4A V1_3 1_555 1_555
O5A P2A 1_555 1_555
O6A P2A 1_555 1_555
C1A P1A 1_555 1_555
C2A P2A 1_555 1_555
H8A C1A 1_555 1_555
H9A C2A 1_555 1_555
H10A C2A 1_555 1_555
O8A V1 1_555 1_555
V3A O3A 1_555 1_555
O7A V3 1_555 1_555
O4_2 V1 1_555 1_555
O4A_2 V1 1_555 1_555
O2A_2 V2 1_555 1_555
O5_2 V2 1_555 1_555
O5A_2 V2 1_555 1_555
O8A_2 V2 1_555 1_555
V3A_2 V3 1_555 1_555
O3A_2 V3 1_555 1_555
O6_2 V3 1_555 1_555
O6A_2 V3 1_555 1_555
V2_2 O5 1_555 1_555
V3_2 O6 1_555 1_555
V3A_3 O6 1_555 1_555
V2_3 O2A 1_555 1_555
V3_3 O3A 1_555 1_555
V2_4 O5A 1_555 1_555
V3_4 O6A 1_555 1_555
V3A_4 O6A 1_555 1_555
O3_2 V3A 1_555 1_555
O6_3 V3A 1_555 1_555
O6A_3 V3A 1_555 1_555
O7_2 V3A 1_555 1_555
O7A_2 V3A 1_555 1_555
V2 O8 1_555 1_555
O3 V3A_2 1_555 1_555
O7 V3A_2 1_555 1_555
C1 C2 1_555 1_555
C1A C2A 1_555 1_555
O8A V2_3 1_555 1_555
V3A V3_3 1_555 1_555
O7A V3A_2 1_555 1_555
V3A_2 O3A_2 1_555 1_555
V3A_2 O6_2 1_555 1_555
V3A_2 O6A_2 1_555 1_555
V3_2 V3A_3 1_555 1_555
V3_3 O3_2 1_555 1_555
V3_3 O6_3 1_555 1_555
V3_3 O6A_3 1_555 1_555
V3_3 O7_2 1_555 1_555
V3_3 O7A_2 1_555 1_555
V3_4 V3A_4 1_555 1_555

#END
