
#######################################################################
#
#                 Cambridge Crystallographic Data Centre
#                                CCDC 
#
#######################################################################
#
# If this CIF has been generated from an entry in the Cambridge 
# Structural Database, then it will include bibliographic, chemical, 
# crystal, experimental, refinement or atomic coordinate data resulting 
# from the CCDC's data processing and validation procedures.
#
#######################################################################

data_ZERNER
_symmetry_cell_setting           triclinic
_symmetry_space_group_name_H-M   'P -1'
_symmetry_Int_Tables_number      2
_space_group_name_Hall           '-P 1'
loop_
_symmetry_equiv_pos_site_id
_symmetry_equiv_pos_as_xyz
1 x,y,z
2 -x,-y,-z
_cell_length_a                   8.371(7)
_cell_length_b                   13.459(11)
_cell_length_c                   24.53(2)
_cell_angle_alpha                75.911(8)
_cell_angle_beta                 86.628(8)
_cell_angle_gamma                79.871(8)
_cell_volume                     2638.4
loop_
_atom_site_label
_atom_site_type_symbol
_atom_site_fract_x
_atom_site_fract_y
_atom_site_fract_z
Y1 Y -0.06470(7) 0.86099(4) 0.48549(2)
Y2 Y 0.04356(6) 0.60507(4) 0.03627(2)
O1 O -0.4059(5) 0.8662(3) 0.38775(16)
O2 O -0.1378(5) 0.8377(3) 0.40066(15)
O3 O -0.1761(5) 0.6023(4) 0.20130(18)
O4 O -0.0283(5) 0.6016(3) 0.12329(16)
O5 O -0.0850(4) 1.0276(3) 0.57025(15)
O6 O -0.1793(4) 0.8823(3) 0.57259(15)
O7 O -0.7530(5) 0.9874(3) 0.54054(16)
O8 O -0.8452(5) 0.8416(3) 0.54344(16)
O9 O 0.1414(4) 0.6938(3) -0.05112(15)
O10 O 0.0747(4) 0.5455(3) -0.05546(14)
O11 O 0.8034(4) 0.6580(3) -0.01203(16)
O12 O 0.7457(4) 0.5336(3) -0.05079(16)
O13 O -0.3363(5) 0.8131(3) 0.49751(17)
H1 H -0.3584 0.8299 0.4627
H2 H -0.2877 0.8345 0.5208
N1 N 0.1614(6) 0.7324(4) 0.4533(2)
N2 N -0.0284(6) 0.6766(4) 0.5453(2)
N3 N -0.3180(7) 0.8743(4) 0.2159(2)
N4 N -0.5109(6) 0.6710(4) 0.6617(2)
N5 N 0.2771(6) 0.6832(4) 0.05950(18)
N6 N -0.0290(6) 0.7940(4) 0.04265(18)
N7 N 0.4903(7) 0.8839(4) -0.1160(2)
C1 C 0.2557(7) 0.7597(5) 0.4085(3)
H3 H 0.2434 0.8294 0.3895
C2 C 0.3733(8) 0.6880(6) 0.3884(3)
H4 H 0.4390 0.7099 0.3575
C3 C 0.3882(8) 0.5857(6) 0.4154(3)
H5 H 0.4609 0.5364 0.4018
C4 C 0.2951(8) 0.5547(5) 0.4635(3)
C5 C 0.1825(7) 0.6304(5) 0.4812(3)
C6 C 0.3119(9) 0.4496(6) 0.4954(4)
H6 H 0.3840 0.3982 0.4833
C7 C 0.2249(9) 0.4245(6) 0.5427(4)
H7 H 0.2400 0.3557 0.5631
C8 C 0.1107(9) 0.4987(5) 0.5626(3)
C9 C 0.0848(7) 0.6026(5) 0.5309(3)
C10 C 0.0190(10) 0.4768(6) 0.6112(3)
H8 H 0.0340 0.4097 0.6340
C11 C -0.0928(10) 0.5517(6) 0.6264(3)
H9 H -0.1543 0.5366 0.6592
C12 C -0.1136(9) 0.6508(5) 0.5920(3)
H10 H -0.1915 0.7017 0.6022
C13 C -0.2643(8) 0.8509(4) 0.3706(2)
C14 C -0.2292(7) 0.8417(4) 0.3109(2)
C15 C -0.3433(8) 0.8823(5) 0.2692(3)
H11 H -0.4432 0.9170 0.2787
C16 C -0.1765(8) 0.8190(5) 0.2048(3)
H12 H -0.1571 0.8126 0.1680
C17 C -0.0565(7) 0.7706(4) 0.2432(2)
C18 C -0.0826(7) 0.7884(4) 0.2970(2)
H13 H -0.0011 0.7643 0.3235
C19 C 0.0946(8) 0.7048(5) 0.2302(2)
C20 C 0.2391(9) 0.7152(6) 0.2503(3)
H14 H 0.2398 0.7689 0.2680
C21 C 0.3829(9) 0.6500(6) 0.2455(3)
H15 H 0.4778 0.6592 0.2601
C22 C 0.3845(8) 0.5708(6) 0.2187(3)
H16 H 0.4789 0.5237 0.2166
C23 C 0.2436(8) 0.5632(5) 0.1952(3)
H17 H 0.2462 0.5130 0.1748
C24 C 0.0977(7) 0.6273(5) 0.2008(2)
C25 C -0.0504(8) 0.6098(5) 0.1745(3)
C26 C -0.1509(6) 0.9514(5) 0.5952(2)
C27 C -0.1888(6) 0.9396(4) 0.6572(2)
C28 C -0.0993(7) 0.9885(5) 0.6855(2)
H18 H -0.0261 1.0291 0.6656
C29 C -0.1176(8) 0.9775(5) 0.7432(3)
H19 H -0.0567 1.0104 0.7616
C30 C -0.2252(8) 0.9182(5) 0.7729(2)
H20 H -0.2378 0.9104 0.8116
C31 C -0.3154(7) 0.8696(5) 0.7447(2)
H21 H -0.3888 0.8296 0.7649
C32 C -0.2986(6) 0.8793(4) 0.6872(2)
C33 C -0.4082(7) 0.8272(5) 0.6612(2)
C34 C -0.4143(7) 0.7225(5) 0.6810(2)
H22 H -0.3453 0.6853 0.7101
C35 C -0.6135(7) 0.7270(5) 0.6212(2)
H23 H -0.6812 0.6925 0.6065
C36 C -0.6244(7) 0.8327(4) 0.6001(2)
C37 C -0.5176(6) 0.8833(4) 0.6205(2)
H24 H -0.5201 0.9543 0.6067
C38 C -0.7492(7) 0.8915(5) 0.5575(2)
C39 C 0.4258(8) 0.6318(5) 0.0671(2)
H25 H 0.4522 0.5708 0.0548
C40 C 0.5475(8) 0.6636(6) 0.0929(3)
H26 H 0.6510 0.6243 0.0975
C41 C 0.5109(9) 0.7521(7) 0.1109(3)
H27 H 0.5879 0.7728 0.1296
C42 C 0.3565(9) 0.8128(6) 0.1012(3)
C43 C 0.2410(8) 0.7753(5) 0.0751(2)
C44 C 0.3133(11) 0.9117(6) 0.1152(3)
H28 H 0.3890 0.9370 0.1321
C45 C 0.1659(11) 0.9675(6) 0.1044(3)
H29 H 0.1410 1.0318 0.1133
C46 C 0.0454(9) 0.9308(5) 0.0794(2)
C47 C 0.0819(8) 0.8346(5) 0.0654(2)
C48 C -0.1092(10) 0.9870(5) 0.0684(3)
H30 H -0.1360 1.0524 0.0760
C49 C -0.2209(9) 0.9475(5) 0.0468(3)
H31 H -0.3258 0.9839 0.0400
C50 C -0.1741(8) 0.8494(5) 0.0348(2)
H32 H -0.2520 0.8219 0.0203
C51 C 0.1170(6) 0.6326(5) -0.0803(2)
C52 C 0.1285(6) 0.6634(4) -0.1423(2)
C53 C 0.0164(7) 0.6355(4) -0.1730(2)
H33 H -0.0583 0.5947 -0.1544
C54 C 0.0153(8) 0.6679(5) -0.2311(3)
H34 H -0.0581 0.6471 -0.2513
C55 C 0.1206(8) 0.7299(5) -0.2588(3)
H35 H 0.1175 0.7530 -0.2978
C56 C 0.2323(7) 0.7583(5) -0.2287(2)
H36 H 0.3042 0.8007 -0.2479
C57 C 0.2397(6) 0.7252(4) -0.1708(2)
C58 C 0.3684(6) 0.7519(4) -0.1400(2)
C59 C 0.3796(7) 0.8538(5) -0.1431(2)
H37 H 0.3057 0.9051 -0.1654
C60 C 0.5942(7) 0.8091(5) -0.0848(3)
H38 H 0.6702 0.8287 -0.0651
C61 C 0.5986(7) 0.7034(5) -0.0793(2)
C62 C 0.4837(7) 0.6761(4) -0.1084(2)
H39 H 0.4833 0.6064 -0.1068
C63 C 0.7246(7) 0.6260(5) -0.0452(2)
Y1_2 Y -1.06470(7) 0.86099(4) 0.48549(2)
Y1A Y -0.93530(7) 1.13901(4) 0.51451(2)
Y1A_2 Y 0.06470(7) 1.13901(4) 0.51451(2)
Y2_2 Y 1.04356(6) 0.60507(4) 0.03627(2)
Y2A Y -0.04356(6) 0.39493(4) -0.03627(2)
Y2A_2 Y 0.95644(6) 0.39493(4) -0.03627(2)
O5A O 0.0850(4) 0.9724(3) 0.42975(15)
O7A O -0.2470(5) 1.0126(3) 0.45946(16)
O8_2 O 0.1548(5) 0.8416(3) 0.54344(16)
O10A O -0.0747(4) 0.4545(3) 0.05546(14)
O11_2 O -0.1966(4) 0.6580(3) -0.01203(16)
O12A O 0.2543(4) 0.4664(3) 0.05079(16)
O14 O 0.7008(9) 0.5126(6) 0.3140(3)
H40 H 0.7361 0.5386 0.2814
H41 H 0.6018 0.5018 0.3243
loop_
_geom_bond_atom_site_label_1
_geom_bond_atom_site_label_2
_geom_bond_site_symmetry_1
_geom_bond_site_symmetry_2
Y1 O2 1_555 1_555
Y2 O4 1_555 1_555
O1 C13 1_555 1_555
O2 C13 1_555 1_555
O3 C25 1_555 1_555
O4 C25 1_555 1_555
O5 C26 1_555 1_555
O6 Y1 1_555 1_555
O7 C38 1_555 1_555
O8 C38 1_555 1_555
O9 Y2 1_555 1_555
O10 Y2 1_555 1_555
O11 C63 1_555 1_555
O12 C63 1_555 1_555
O13 Y1 1_555 1_555
H1 O13 1_555 1_555
H2 O13 1_555 1_555
N1 Y1 1_555 1_555
N2 Y1 1_555 1_555
N3 C15 1_555 1_555
N4 C34 1_555 1_555
N5 Y2 1_555 1_555
N6 Y2 1_555 1_555
N7 C59 1_555 1_555
C1 N1 1_555 1_555
H3 C1 1_555 1_555
C2 C1 1_555 1_555
H4 C2 1_555 1_555
C3 C2 1_555 1_555
H5 C3 1_555 1_555
C4 C3 1_555 1_555
C5 N1 1_555 1_555
C6 C4 1_555 1_555
H6 C6 1_555 1_555
C7 C6 1_555 1_555
H7 C7 1_555 1_555
C8 C7 1_555 1_555
C9 N2 1_555 1_555
C10 C8 1_555 1_555
H8 C10 1_555 1_555
C11 C10 1_555 1_555
H9 C11 1_555 1_555
C12 N2 1_555 1_555
H10 C12 1_555 1_555
C13 C14 1_555 1_555
C14 C15 1_555 1_555
C15 H11 1_555 1_555
C16 N3 1_555 1_555
H12 C16 1_555 1_555
C17 C16 1_555 1_555
C18 C14 1_555 1_555
H13 C18 1_555 1_555
C19 C17 1_555 1_555
C20 C19 1_555 1_555
H14 C20 1_555 1_555
C21 C20 1_555 1_555
H15 C21 1_555 1_555
C22 C21 1_555 1_555
H16 C22 1_555 1_555
C23 C22 1_555 1_555
H17 C23 1_555 1_555
C24 C19 1_555 1_555
C25 C24 1_555 1_555
C26 O6 1_555 1_555
C27 C26 1_555 1_555
C28 C27 1_555 1_555
H18 C28 1_555 1_555
C29 C28 1_555 1_555
H19 C29 1_555 1_555
C30 C29 1_555 1_555
H20 C30 1_555 1_555
C31 C30 1_555 1_555
H21 C31 1_555 1_555
C32 C27 1_555 1_555
C33 C32 1_555 1_555
C34 C33 1_555 1_555
H22 C34 1_555 1_555
C35 N4 1_555 1_555
H23 C35 1_555 1_555
C36 C35 1_555 1_555
C37 C33 1_555 1_555
H24 C37 1_555 1_555
C38 C36 1_555 1_555
C39 N5 1_555 1_555
H25 C39 1_555 1_555
C40 C39 1_555 1_555
H26 C40 1_555 1_555
C41 C40 1_555 1_555
H27 C41 1_555 1_555
C42 C41 1_555 1_555
C43 N5 1_555 1_555
C44 C42 1_555 1_555
H28 C44 1_555 1_555
C45 C44 1_555 1_555
H29 C45 1_555 1_555
C46 C45 1_555 1_555
C47 N6 1_555 1_555
C48 C46 1_555 1_555
H30 C48 1_555 1_555
C49 C48 1_555 1_555
H31 C49 1_555 1_555
C50 N6 1_555 1_555
H32 C50 1_555 1_555
C51 O9 1_555 1_555
C52 C51 1_555 1_555
C53 C52 1_555 1_555
H33 C53 1_555 1_555
C54 C53 1_555 1_555
H34 C54 1_555 1_555
C55 C54 1_555 1_555
H35 C55 1_555 1_555
C56 C55 1_555 1_555
H36 C56 1_555 1_555
C57 C52 1_555 1_555
C58 C57 1_555 1_555
C59 C58 1_555 1_555
H37 C59 1_555 1_555
C60 N7 1_555 1_555
H38 C60 1_555 1_555
C61 C60 1_555 1_555
C62 C58 1_555 1_555
H39 C62 1_555 1_555
C63 C61 1_555 1_555
O14 H40 1_555 1_555
H41 O14 1_555 1_555
Y1_2 O8 1_555 1_555
Y1A O7 1_555 1_555
Y1A_2 O5 1_555 1_555
Y2_2 O11 1_555 1_555
Y2A O10 1_555 1_555
Y2A_2 O12 1_555 1_555
O5A Y1 1_555 1_555
O7A Y1 1_555 1_555
O8_2 Y1 1_555 1_555
O10A Y2 1_555 1_555
O11_2 Y2 1_555 1_555
O12A Y2 1_555 1_555
O10 C51 1_555 1_555
C4 C5 1_555 1_555
C5 C9 1_555 1_555
C8 C9 1_555 1_555
C11 C12 1_555 1_555
C17 C18 1_555 1_555
C23 C24 1_555 1_555
C31 C32 1_555 1_555
C36 C37 1_555 1_555
C42 C43 1_555 1_555
C43 C47 1_555 1_555
C46 C47 1_555 1_555
C49 C50 1_555 1_555
C56 C57 1_555 1_555
C61 C62 1_555 1_555
Y2A O10A 1_555 1_555

#END
