
#######################################################################
#
#                 Cambridge Crystallographic Data Centre
#                                CCDC 
#
#######################################################################
#
# If this CIF has been generated from an entry in the Cambridge 
# Structural Database, then it will include bibliographic, chemical, 
# crystal, experimental, refinement or atomic coordinate data resulting 
# from the CCDC's data processing and validation procedures.
#
#######################################################################

data_ZERPAP
_symmetry_cell_setting           rhombohedral
_symmetry_space_group_name_H-M   'R -3'
_symmetry_Int_Tables_number      148
_space_group_name_Hall           '-R 3'
loop_
_symmetry_equiv_pos_site_id
_symmetry_equiv_pos_as_xyz
1 x,y,z
2 -y,x-y,z
3 -x+y,-x,z
4 2/3+x,1/3+y,1/3+z
5 2/3-y,1/3+x-y,1/3+z
6 2/3-x+y,1/3-x,1/3+z
7 1/3+x,2/3+y,2/3+z
8 1/3-y,2/3+x-y,2/3+z
9 1/3-x+y,2/3-x,2/3+z
10 -x,-y,-z
11 y,-x+y,-z
12 x-y,x,-z
13 1/3-x,2/3-y,2/3-z
14 1/3+y,2/3-x+y,2/3-z
15 1/3+x-y,2/3+x,2/3-z
16 2/3-x,1/3-y,1/3-z
17 2/3+y,1/3-x+y,1/3-z
18 2/3+x-y,1/3+x,1/3-z
_cell_length_a                   30.7627(5)
_cell_length_b                   30.7627(5)
_cell_length_c                   17.9693(3)
_cell_angle_alpha                90
_cell_angle_beta                 90
_cell_angle_gamma                120
_cell_volume                     14726.9
loop_
_atom_site_label
_atom_site_type_symbol
_atom_site_fract_x
_atom_site_fract_y
_atom_site_fract_z
Ho1 Ho 0.507898(6) 0.543257(6) 0.415166(9)
O1 O 0.45624(8) 0.52533(8) 0.30560(11)
O2 O 0.43591(7) 0.55474(8) 0.40214(10)
O3 O 0.27025(8) 0.54587(10) 0.61994(12)
H1 H 0.2441 0.5268 0.6418
O4 O 0.23316(9) 0.49333(9) 0.52640(14)
O5 O 0.59979(7) 0.58822(7) 0.44784(10)
O6 O 0.55281(6) 0.52043(6) 0.51178(10)
O7 O 0.74953(6) 0.59165(6) 0.19314(9)
O8 O 0.80135(7) 0.63303(7) 0.28812(10)
N1 N 0.39503(11) 0.63516(11) 0.49127(17)
N2 N 0.64723(8) 0.48865(8) 0.34437(12)
N3 N 0.56479(8) 0.56621(8) 0.30119(11)
N4 N 0.54063(8) 0.63121(8) 0.36674(11)
C1 C 0.42885(10) 0.54037(10) 0.33532(15)
C2 C 0.38857(10) 0.54101(11) 0.28822(15)
C3 C 0.38051(13) 0.52063(14) 0.21656(18)
H2 H 0.4003 0.5076 0.1996
C4 C 0.34399(15) 0.51927(17) 0.1702(2)
H3 H 0.3390 0.5051 0.1230
C5 C 0.31533(15) 0.53890(18) 0.1944(2)
H4 H 0.2915 0.5392 0.1630
C6 C 0.32170(14) 0.55815(17) 0.2651(2)
H5 H 0.3013 0.5706 0.2812
C7 C 0.35801(11) 0.55957(12) 0.31343(16)
C8 C 0.35739(11) 0.57597(12) 0.39054(17)
C9 C 0.39546(12) 0.62035(12) 0.42186(19)
H6 H 0.4229 0.6409 0.3922
C10 C 0.35459(12) 0.60645(12) 0.53273(18)
H7 H 0.3537 0.6165 0.5813
C11 C 0.31402(11) 0.56257(11) 0.50699(16)
C12 C 0.31602(11) 0.54757(11) 0.43459(17)
H8 H 0.2892 0.5182 0.4158
C13 C 0.26785(11) 0.53024(12) 0.55102(17)
C14 C 0.59536(8) 0.55864(9) 0.49840(12)
C15 C 0.63958(9) 0.56829(9) 0.54569(12)
C16 C 0.63947(10) 0.58004(11) 0.62042(14)
H9 H 0.6114 0.5794 0.6409
C17 C 0.68103(12) 0.59261(13) 0.66438(15)
H10 H 0.6808 0.6005 0.7143
C18 C 0.72276(11) 0.59349(13) 0.63467(16)
H11 H 0.7506 0.6020 0.6644
C19 C 0.72310(10) 0.58162(11) 0.56046(15)
H12 H 0.7514 0.5823 0.5406
C20 C 0.68160(9) 0.56862(9) 0.51526(13)
C21 C 0.68257(8) 0.55344(9) 0.43715(12)
C22 C 0.64620(9) 0.50616(9) 0.41214(13)
H13 H 0.6200 0.4858 0.4440
C23 C 0.68363(10) 0.51882(9) 0.29735(13)
H14 H 0.6840 0.5070 0.2498
C24 C 0.72085(9) 0.56688(9) 0.31631(12)
C25 C 0.72075(9) 0.58367(9) 0.38808(12)
H15 H 0.7462 0.6151 0.4032
C26 C 0.76060(9) 0.59980(9) 0.26100(12)
C27 C 0.57648(11) 0.53495(11) 0.26830(15)
H16 H 0.5620 0.5023 0.2864
C28 C 0.60938(13) 0.54822(12) 0.20785(17)
H17 H 0.6166 0.5249 0.1869
C29 C 0.63072(11) 0.59581(12) 0.18008(16)
H18 H 0.6527 0.6054 0.1400
C30 C 0.61904(10) 0.63009(10) 0.21284(14)
C31 C 0.58582(9) 0.61374(9) 0.27396(13)
C32 C 0.63952(10) 0.68047(11) 0.18607(15)
H19 H 0.6616 0.6912 0.1460
C33 C 0.62748(11) 0.71222(11) 0.21757(16)
H20 H 0.6412 0.7447 0.1990
C34 C 0.59350(10) 0.69717(10) 0.28000(15)
C35 C 0.57306(9) 0.64799(9) 0.30827(13)
C36 C 0.57925(13) 0.72905(11) 0.31390(17)
H21 H 0.5924 0.7619 0.2972
C37 C 0.54579(13) 0.71177(11) 0.37177(16)
H22 H 0.5354 0.7323 0.3940
C38 C 0.52749(10) 0.66239(10) 0.39683(14)
H23 H 0.5051 0.6510 0.4365
Ho1G Ho 0.790076(6) 0.631308(8) 0.081833(9)
Ho1I Ho 0.492102(6) 0.456743(6) 0.584834(9)
Ho1M Ho 0.876590(6) 0.702026(8) 0.251501(9)
O6I O 0.44719(6) 0.47957(6) 0.48822(10)
O7E O 0.50879(8) 0.58380(6) 0.52647(9)
O8N O 0.50165(10) 0.46802(7) 0.37855(10)
O9 O 0.4923(2) 0.5364(4) 0.1495(3)
H24 H 0.4819 0.5334 0.1941
H25 H 0.5108 0.5442 0.1880
loop_
_geom_bond_atom_site_label_1
_geom_bond_atom_site_label_2
_geom_bond_site_symmetry_1
_geom_bond_site_symmetry_2
Ho1 O1 1_555 1_555
O1 C1 1_555 1_555
O2 Ho1 1_555 1_555
O3 H1 1_555 1_555
O4 C13 1_555 1_555
O5 Ho1 1_555 1_555
O6 Ho1 1_555 1_555
O7 C26 1_555 1_555
O8 C26 1_555 1_555
N1 C9 1_555 1_555
N2 C22 1_555 1_555
N3 Ho1 1_555 1_555
N4 Ho1 1_555 1_555
C1 O2 1_555 1_555
C2 C1 1_555 1_555
C3 C2 1_555 1_555
H2 C3 1_555 1_555
C4 C3 1_555 1_555
H3 C4 1_555 1_555
C5 C4 1_555 1_555
H4 C5 1_555 1_555
C6 C5 1_555 1_555
H5 C6 1_555 1_555
C7 C2 1_555 1_555
C8 C7 1_555 1_555
C9 C8 1_555 1_555
H6 C9 1_555 1_555
C10 N1 1_555 1_555
H7 C10 1_555 1_555
C11 C10 1_555 1_555
C12 C8 1_555 1_555
H8 C12 1_555 1_555
C13 O3 1_555 1_555
C14 O5 1_555 1_555
C15 C14 1_555 1_555
C16 C15 1_555 1_555
H9 C16 1_555 1_555
C17 C16 1_555 1_555
H10 C17 1_555 1_555
C18 C17 1_555 1_555
H11 C18 1_555 1_555
C19 C18 1_555 1_555
H12 C19 1_555 1_555
C20 C15 1_555 1_555
C21 C20 1_555 1_555
C22 C21 1_555 1_555
H13 C22 1_555 1_555
C23 N2 1_555 1_555
H14 C23 1_555 1_555
C24 C23 1_555 1_555
C25 C21 1_555 1_555
H15 C25 1_555 1_555
C26 C24 1_555 1_555
C27 N3 1_555 1_555
H16 C27 1_555 1_555
C28 C27 1_555 1_555
H17 C28 1_555 1_555
C29 C28 1_555 1_555
H18 C29 1_555 1_555
C30 C29 1_555 1_555
C31 N3 1_555 1_555
C32 C30 1_555 1_555
H19 C32 1_555 1_555
C33 C32 1_555 1_555
H20 C33 1_555 1_555
C34 C33 1_555 1_555
C35 N4 1_555 1_555
C36 C34 1_555 1_555
H21 C36 1_555 1_555
C37 C36 1_555 1_555
H22 C37 1_555 1_555
C38 N4 1_555 1_555
H23 C38 1_555 1_555
O9 H24 1_555 1_555
H25 O9 1_555 1_555
Ho1G O7 1_555 1_555
Ho1I O6 1_555 1_555
Ho1M O8 1_555 1_555
O6I Ho1 1_555 1_555
O7E Ho1 1_555 1_555
O8N Ho1 1_555 1_555
O6 C14 1_555 1_555
C6 C7 1_555 1_555
C11 C12 1_555 1_555
C11 C13 1_555 1_555
C19 C20 1_555 1_555
C24 C25 1_555 1_555
C30 C31 1_555 1_555
C31 C35 1_555 1_555
C34 C35 1_555 1_555
C37 C38 1_555 1_555
Ho1I O6I 1_555 1_555

#END
