
#######################################################################
#
#                 Cambridge Crystallographic Data Centre
#                                CCDC 
#
#######################################################################
#
# If this CIF has been generated from an entry in the Cambridge 
# Structural Database, then it will include bibliographic, chemical, 
# crystal, experimental, refinement or atomic coordinate data resulting 
# from the CCDC's data processing and validation procedures.
#
#######################################################################

data_ZERQUK
_symmetry_cell_setting           monoclinic
_symmetry_space_group_name_H-M   'P 21/n'
_symmetry_Int_Tables_number      14
_space_group_name_Hall           '-P 2yn'
loop_
_symmetry_equiv_pos_site_id
_symmetry_equiv_pos_as_xyz
1 x,y,z
2 1/2-x,1/2+y,1/2-z
3 -x,-y,-z
4 1/2+x,1/2-y,1/2+z
_cell_length_a                   16.8977(13)
_cell_length_b                   16.0300(8)
_cell_length_c                   18.7421(12)
_cell_angle_alpha                90
_cell_angle_beta                 116.454(9)
_cell_angle_gamma                90
_cell_volume                     4545.11
loop_
_atom_site_label
_atom_site_type_symbol
_atom_site_fract_x
_atom_site_fract_y
_atom_site_fract_z
C27 C 0.1310(3) 0.2459(3) 0.1648(3)
C28 C 0.1357(3) 0.2494(3) 0.0843(3)
C29 C 0.2189(4) -0.0254(3) 0.2514(3)
C30 C 0.2943(4) 0.0140(3) 0.2367(3)
C31 C 0.0365(3) 0.5268(3) -0.0026(3)
C32 C 0.0331(3) -0.0223(3) -0.0118(3)
O5 O 0.1214(2) 0.3135(2) 0.19270(18)
O6 O 0.1368(2) 0.1745(2) 0.19410(17)
O7 O 0.1318(2) 0.3207(2) 0.05473(18)
O8 O 0.1386(2) 0.1812(2) 0.05295(18)
O9 O 0.1404(3) -0.0082(2) 0.2019(2)
O10 O 0.2413(3) -0.0715(2) 0.3113(2)
O11 O 0.2704(3) 0.0603(2) 0.1766(2)
O12 O 0.3713(3) -0.0043(2) 0.2848(3)
O13 O 0.1135(2) 0.5133(2) 0.0494(2)
O14 O 0.0128(2) 0.5790(2) -0.0584(2)
O15 O 0.1133(2) -0.0056(2) 0.0285(2)
O16 O 0.0013(2) -0.0723(2) -0.0685(2)
Mn1 Mn 0.12336(5) 0.41612(5) 0.12615(4)
Cr1 Cr 0.12336(5) 0.41612(5) 0.12615(4)
Mn2 Mn 0.13640(6) 0.07924(5) 0.11943(4)
Cr2 Cr 0.13640(6) 0.07924(5) 0.11943(4)
C31B C -0.0365(3) 0.4732(3) 0.0026(3)
O13B O -0.1135(2) 0.4867(2) -0.0494(2)
O14B O -0.0128(2) 0.4210(2) 0.0584(2)
C32B C -0.0331(3) 0.0223(3) 0.0118(3)
O15B O -0.1133(2) 0.0056(2) -0.0285(2)
O16B O -0.0013(2) 0.0723(2) 0.0685(2)
C27B C -0.1310(3) -0.2459(3) -0.1648(3)
C28B C -0.1357(3) -0.2494(3) -0.0843(3)
C29B C -0.2189(4) 0.0254(3) -0.2514(3)
C30B C -0.2943(4) -0.0140(3) -0.2367(3)
O5B O -0.1214(2) -0.3135(2) -0.19270(18)
O6B O -0.1368(2) -0.1745(2) -0.19410(17)
O7B O -0.1318(2) -0.3207(2) -0.05473(18)
O8B O -0.1386(2) -0.1812(2) -0.05295(18)
O9B O -0.1404(3) 0.0082(2) -0.2019(2)
O10B O -0.2413(3) 0.0715(2) -0.3113(2)
O11B O -0.2704(3) -0.0603(2) -0.1766(2)
O12B O -0.3713(3) 0.0043(2) -0.2848(3)
Mn1B Mn -0.12336(5) -0.41612(5) -0.12615(4)
Cr1B Cr -0.12336(5) -0.41612(5) -0.12615(4)
Mn2B Mn -0.13640(6) -0.07924(5) -0.11943(4)
Cr2B Cr -0.13640(6) -0.07924(5) -0.11943(4)
O10A O 0.2587(3) 0.4285(2) 0.1887(2)
O10C O -0.2587(3) -0.4285(2) -0.1887(2)
O12A O 0.1287(3) 0.4957(2) 0.2152(3)
O12C O -0.1287(3) -0.4957(2) -0.2152(3)
O13B_2 O -0.1135(2) -0.5133(2) -0.0494(2)
O14_2 O 0.0128(2) -0.4210(2) -0.0584(2)
Mn1A Mn 0.37664(5) -0.08388(5) 0.37385(4)
Mn1B_2 Mn -0.12336(5) 0.58388(5) -0.12615(4)
Mn1C Mn -0.37664(5) 0.08388(5) -0.37385(4)
Cr1A Cr 0.37664(5) -0.08388(5) 0.37385(4)
Cr1B_2 Cr -0.12336(5) 0.58388(5) -0.12615(4)
Cr1C Cr -0.37664(5) 0.08388(5) -0.37385(4)
Cl1 Cl 0.6663(4) 0.1697(5) 0.9106(3)
Cl2 Cl 0.8108(6) 0.2883(5) 0.9474(4)
C33 C 0.7700(14) 0.1907(11) 0.8957(13)
H32 H 0.8141 0.1456 0.9194
H33 H 0.7549 0.1959 0.8384
O17 O 0.7542(6) 0.1785(4) 0.2809(4)
C34 C 0.6766(9) 0.1613(8) 0.2934(8)
O18 O 0.0531(5) 0.1961(5) 0.5650(4)
C35 C 0.1286(7) 0.2245(6) 0.5975(5)
O19 O 0.9717(10) 0.335(2) 0.4506(13)
O20 O 0.8133(6) 0.3274(4) 0.3326(4)
O21 O 0.9693(8) 0.4593(7) 0.5851(12)
C1 C 0.7918(4) 0.9813(3) 0.3527(3)
C2 C 0.7135(4) 0.9525(4) 0.3557(3)
C3 C 0.6994(5) 0.9678(5) 0.4221(4)
H1 H 0.6468 0.9487 0.4233
C4 C 0.7628(5) 1.0112(6) 0.4874(4)
H2 H 0.7540 1.0204 0.5334
C5 C 0.8379(4) 1.0406(5) 0.4847(3)
H3 H 0.8798 1.0716 0.5284
C6 C 0.8536(3) 1.0253(3) 0.4181(3)
C7 C 0.9304(3) 1.0620(3) 0.4195(3)
H4 H 0.9678 1.0911 0.4667
C8 C 1.0332(4) 1.1081(4) 0.3761(3)
H5 H 1.0799 1.0993 0.4311
H6 H 1.0186 1.1683 0.3692
C9 C 1.0664(4) 1.0806(4) 0.3168(3)
H7 H 1.1068 1.1231 0.3128
H8 H 1.0989 1.0271 0.3338
C10 C 0.9428(4) 1.1504(4) 0.2026(4)
H9 H 0.9396 1.1866 0.2440
H10 H 0.9766 1.1801 0.1788
C11 C 0.8522(4) 1.1315(4) 0.1401(4)
H11 H 0.8199 1.1840 0.1172
H12 H 0.8553 1.0987 0.0966
C12 C 0.7303(4) 1.0366(4) 0.1181(3)
H13 H 0.6905 1.0743 0.0754
H14 H 0.6965 1.0115 0.1444
C13 C 0.7649(4) 0.9677(4) 0.0824(3)
H15 H 0.7195 0.9238 0.0580
H16 H 0.7791 0.9912 0.0407
C14 C 0.8835(4) 0.8738(3) 0.1305(3)
H17 H 0.8607 0.8587 0.0759
C15 C 0.9592(5) 0.8271(4) 0.1855(3)
C16 C 1.0088(9) 0.7727(7) 0.1564(7)
H18 H 0.9917 0.7699 0.1008
C17 C 1.0777(9) 0.7270(8) 0.2068(7)
H19 H 1.1045 0.6888 0.1854
C18 C 1.1112(9) 0.7338(6) 0.2893(6)
H20 H 1.1584 0.6990 0.3233
C19 C 1.0722(11) 0.7963(10) 0.3243(10)
C20 C 0.9976(4) 0.8418(3) 0.2665(3)
C21 C 0.5740(4) 0.8843(5) 0.2880(4)
H21 H 0.5381 0.8556 0.2377
H22 H 0.5418 0.9330 0.2930
H23 H 0.5865 0.8462 0.3327
C22 C 1.1646(5) 0.7502(4) 0.4507(4)
H24 H 1.1790 0.7679 0.5052
H25 H 1.2174 0.7546 0.4418
H26 H 1.1442 0.6922 0.4432
N1 N 0.9549(3) 1.0603(3) 0.3638(2)
N2 N 0.9875(3) 1.0704(3) 0.2387(2)
H27 H 1.0041 1.0435 0.2035
N3 N 0.8062(3) 1.0838(3) 0.1767(3)
H28 H 0.7867 1.1200 0.2043
N4 N 0.8441(3) 0.9325(3) 0.1467(2)
O1 O 0.8026(2) 0.9636(2) 0.2886(2)
O2 O 0.6554(3) 0.9108(3) 0.2891(2)
O3 O 1.0970(3) 0.8020(3) 0.3957(2)
O4 O 0.9709(2) 0.8990(2) 0.2991(2)
Fe1 Fe 0.89314(5) 0.99238(5) 0.25814(4)
C23? C 0.9669(12) 0.7478(10) 0.1543(9)
H29? H 0.9291 0.7338 0.1005
C24? C 1.0272(14) 0.6940(12) 0.2010(11)
H30? H 1.0412 0.6446 0.1810
C25? C 1.0676(16) 0.7142(13) 0.2797(12)
H31? H 1.1039 0.6723 0.3150
C26? C 1.0624(11) 0.7811(11) 0.3104(10)
Cl3? Cl 0.8655(10) 0.2563(8) 0.9699(8)
loop_
_geom_bond_atom_site_label_1
_geom_bond_atom_site_label_2
_geom_bond_site_symmetry_1
_geom_bond_site_symmetry_2
C1 C2 1_555 1_555
C2 C3 1_555 1_555
C3 H1 1_555 1_555
C4 C3 1_555 1_555
H2 C4 1_555 1_555
C5 C4 1_555 1_555
H3 C5 1_555 1_555
C6 C1 1_555 1_555
C7 C6 1_555 1_555
H4 C7 1_555 1_555
C8 H5 1_555 1_555
H6 C8 1_555 1_555
C9 C8 1_555 1_555
H7 C9 1_555 1_555
H8 C9 1_555 1_555
C10 H9 1_555 1_555
H10 C10 1_555 1_555
C11 C10 1_555 1_555
H11 C11 1_555 1_555
H12 C11 1_555 1_555
C12 H13 1_555 1_555
H14 C12 1_555 1_555
C13 C12 1_555 1_555
H15 C13 1_555 1_555
H16 C13 1_555 1_555
C14 H17 1_555 1_555
C15 C14 1_555 1_555
C16 C15 1_555 1_555
H18 C16 1_555 1_555
C17 C16 1_555 1_555
H19 C17 1_555 1_555
C18 C17 1_555 1_555
H20 C18 1_555 1_555
C19 C18 1_555 1_555
C20 C15 1_555 1_555
C21 H21 1_555 1_555
H22 C21 1_555 1_555
H23 C21 1_555 1_555
C22 H24 1_555 1_555
H25 C22 1_555 1_555
H26 C22 1_555 1_555
N1 C7 1_555 1_555
N2 C9 1_555 1_555
H27 N2 1_555 1_555
N3 C11 1_555 1_555
H28 N3 1_555 1_555
N4 C13 1_555 1_555
O1 C1 1_555 1_555
O2 C2 1_555 1_555
O3 C19 1_555 1_555
O4 C20 1_555 1_555
Fe1 N1 1_555 1_555
C27 C28 1_555 1_555
C28 O7 1_555 1_555
C29 C30 1_555 1_555
C30 O11 1_555 1_555
C31 O13 1_555 1_555
C32 O15 1_555 1_555
O5 C27 1_555 1_555
O6 C27 1_555 1_555
O7 Mn1 1_555 1_555
O8 C28 1_555 1_555
O9 C29 1_555 1_555
O10 C29 1_555 1_555
O11 Mn2 1_555 1_555
O12 C30 1_555 1_555
O13 Mn1 1_555 1_555
O14 C31 1_555 1_555
O15 Mn2 1_555 1_555
O16 C32 1_555 1_555
Mn1 O5 1_555 1_555
Cr1 O5 1_555 1_555
Mn2 O6 1_555 1_555
Cr2 O6 1_555 1_555
Cl1 C33 1_555 1_555
Cl2 C33 1_555 1_555
C33 H32 1_555 1_555
H33 C33 1_555 1_555
O17 C34 1_555 1_555
O18 C35 1_555 1_555
C31B C31 1_555 1_555
O13B C31B 1_555 1_555
O14B Mn1 1_555 1_555
C32B C32 1_555 1_555
O15B C32B 1_555 1_555
O16B Mn2 1_555 1_555
C27B C28B 1_555 1_555
C28B O7B 1_555 1_555
C29B C30B 1_555 1_555
C30B O11B 1_555 1_555
O5B C27B 1_555 1_555
O6B C27B 1_555 1_555
O7B Mn1B 1_555 1_555
O8B C28B 1_555 1_555
O9B C29B 1_555 1_555
O10B C29B 1_555 1_555
O11B Mn2B 1_555 1_555
O12B C30B 1_555 1_555
Mn1B O5B 1_555 1_555
Cr1B O5B 1_555 1_555
Mn2B O16 1_555 1_555
Cr2B O16 1_555 1_555
O10A Mn1 1_555 1_555
O10C Mn1B 1_555 1_555
O12A Mn1 1_555 1_555
O12C Mn1B 1_555 1_555
O13B_2 Mn1B 1_555 1_555
O14_2 Mn1B 1_555 1_555
Mn1A O10 1_555 1_555
Mn1B_2 O14 1_555 1_555
Mn1C O10B 1_555 1_555
Cr1A O10 1_555 1_555
Cr1B_2 O14 1_555 1_555
Cr1C O10B 1_555 1_555
C5 C6 1_555 1_555
C8 N1 1_555 1_555
C10 N2 1_555 1_555
C12 N3 1_555 1_555
C14 N4 1_555 1_555
C19 C20 1_555 1_555
C21 O2 1_555 1_555
C22 O3 1_555 1_555
N2 Fe1 1_555 1_555
N3 Fe1 1_555 1_555
N4 Fe1 1_555 1_555
O1 Fe1 1_555 1_555
O4 Fe1 1_555 1_555
O7 Cr1 1_555 1_555
O8 Mn2 1_555 1_555
O8 Cr2 1_555 1_555
O9 Mn2 1_555 1_555
O9 Cr2 1_555 1_555
O11 Cr2 1_555 1_555
O12 Mn1A 1_555 1_555
O12 Cr1A 1_555 1_555
O13 Cr1 1_555 1_555
O15 Cr2 1_555 1_555
Cr1 O14B 1_555 1_555
Cr1 O10A 1_555 1_555
Cr1 O12A 1_555 1_555
Cr2 O16B 1_555 1_555
C31B O14B 1_555 1_555
O13B Mn1B_2 1_555 1_555
O13B Cr1B_2 1_555 1_555
C32B O16B 1_555 1_555
O15B Mn2B 1_555 1_555
O15B Cr2B 1_555 1_555
O6B Mn2B 1_555 1_555
O6B Cr2B 1_555 1_555
O7B Cr1B 1_555 1_555
O8B Mn2B 1_555 1_555
O8B Cr2B 1_555 1_555
O9B Mn2B 1_555 1_555
O9B Cr2B 1_555 1_555
O11B Cr2B 1_555 1_555
O12B Mn1C 1_555 1_555
O12B Cr1C 1_555 1_555
Cr1B O10C 1_555 1_555
Cr1B O12C 1_555 1_555
Cr1B O13B_2 1_555 1_555
Cr1B O14_2 1_555 1_555

#END
