
#######################################################################
#
#                 Cambridge Crystallographic Data Centre
#                                CCDC 
#
#######################################################################
#
# If this CIF has been generated from an entry in the Cambridge 
# Structural Database, then it will include bibliographic, chemical, 
# crystal, experimental, refinement or atomic coordinate data resulting 
# from the CCDC's data processing and validation procedures.
#
#######################################################################

data_ZERRIZ
_symmetry_cell_setting           trigonal
_symmetry_space_group_name_H-M   'P -3'
_symmetry_Int_Tables_number      147
_space_group_name_Hall           '-P 3'
loop_
_symmetry_equiv_pos_site_id
_symmetry_equiv_pos_as_xyz
1 x,y,z
2 -y,x-y,z
3 -x+y,-x,z
4 -x,-y,-z
5 y,-x+y,-z
6 x-y,x,-z
_cell_length_a                   18.7107(5)
_cell_length_b                   18.7107(5)
_cell_length_c                   18.5675(7)
_cell_angle_alpha                90
_cell_angle_beta                 90
_cell_angle_gamma                120
_cell_volume                     5629.43
loop_
_atom_site_label
_atom_site_type_symbol
_atom_site_fract_x
_atom_site_fract_y
_atom_site_fract_z
C21 C 0.4989(3) 0.2293(2) 0.9625(2)
C22 C 0.5010(3) 0.2775(2) 1.0313(2)
C23 C 0.2743(2) 0.0059(3) 1.0361(2)
C24 C 0.2311(2) 0.0054(3) 0.9650(2)
O3 O 0.42920(17) 0.17913(16) 0.93805(15)
O4 O 0.43217(16) 0.25987(15) 1.05794(14)
O5 O 0.56755(17) 0.24610(15) 0.93663(14)
O6 O 0.57045(16) 0.32759(15) 1.05584(14)
O7 O 0.32278(16) 0.07666(17) 1.06168(15)
O8 O 0.24701(16) 0.07352(17) 0.93921(16)
O9 O 0.18339(16) -0.06457(23) 0.93812(15)
O10 O 0.25878(16) -0.06178(23) 1.06126(15)
Mn1 Mn 0.6667 0.3333 0.99462(6)
Cr1 Cr 0.33303(4) 0.17226(4) 0.99867(4)
C21A C 0.7707(2) 0.2696(4) 0.9625(2)
C22A C 0.7225(2) 0.2235(4) 1.0313(2)
C23A C 0.9941(3) 0.2684(4) 1.0361(2)
C24A C 0.9946(3) 0.2257(4) 0.9650(2)
O3A O 0.82087(16) 0.25007(23) 0.93805(15)
O4A O 0.74013(15) 0.17230(22) 1.05794(14)
O5A O 0.75390(15) 0.32145(23) 0.93663(14)
O6A O 0.67241(15) 0.24286(22) 1.05584(14)
O7A O 0.92334(17) 0.24612(23) 1.06168(15)
O8A O 0.92648(17) 0.17349(23) 0.93921(16)
O9A O 1.06457(23) 0.24796(28) 0.93812(15)
O10A O 1.06178(23) 0.32056(28) 1.06126(15)
Cr1A Cr 0.82774(4) 0.16077(6) 0.99867(4)
C21B C 0.7304(4) 0.5011(3) 0.9625(2)
C22B C 0.7765(4) 0.4990(3) 1.0313(2)
C23B C 0.7316(4) 0.7257(2) 1.0361(2)
C24B C 0.7743(4) 0.7689(2) 0.9650(2)
O3B O 0.74993(23) 0.57080(17) 0.93805(15)
O4B O 0.82770(22) 0.56783(16) 1.05794(14)
O5B O 0.67855(23) 0.43245(17) 0.93663(14)
O6B O 0.75714(22) 0.42955(16) 1.05584(14)
O7B O 0.75388(23) 0.67722(16) 1.06168(15)
O8B O 0.82651(23) 0.75299(16) 0.93921(16)
O9B O 0.75204(28) 0.81661(16) 0.93812(15)
O10B O 0.67944(28) 0.74122(16) 1.06126(15)
Cr1B Cr 0.83923(6) 0.66697(4) 0.99867(4)
O9C O 0.81661(16) 0.06457(23) 1.06188(15)
O9D O 0.93543(23) 0.75204(28) 1.06188(15)
O9E O 0.24796(28) 0.18339(16) 1.06188(15)
O10C O 0.74122(16) 0.06178(23) 0.93874(15)
O10D O 0.93822(23) 0.67944(28) 0.93874(15)
O10E O 0.32056(28) 0.25878(16) 0.93874(15)
Cr1C Cr 0.66697(4) 0.82774(4) 1.00133(4)
Cr1D Cr 0.17226(4) -0.16077(6) 1.00133(4)
Cr1E Cr 1.16077(6) 0.33303(4) 1.00133(4)
Cl1 Cl 0.6667 0.3333 0.35244(9)
O11 O 0.7733(3) -0.2021(3) 0.2378(3)
C25 C 0.7355(4) -0.1563(4) 0.2411(3)
H23 H 0.6961 -0.1756 0.2811
H24 H 0.7062 -0.1619 0.1958
H25 H 0.7770 -0.0982 0.2487
C1 C 0.5728(2) 0.0678(2) 0.3660(2)
C2 C 0.6236(2) 0.0323(2) 0.3622(2)
H1 H 0.6337 0.0153 0.3169
C3 C 0.6588(2) 0.0220(2) 0.4233(2)
C4 C 0.6494(2) 0.0476(2) 0.4902(2)
H2 H 0.6760 0.0412 0.5313
C5 C 0.6002(3) 0.0827(2) 0.4958(2)
H3 H 0.5923 0.1003 0.5416
C6 C 0.5613(2) 0.0930(2) 0.4349(2)
C7 C 0.5081(2) 0.1278(2) 0.4459(2)
H4 H 0.5085 0.1497 0.4921
C8 C 0.4117(2) 0.1702(2) 0.4146(2)
H5 H 0.4419 0.2292 0.4010
H6 H 0.3990 0.1658 0.4667
C9 C 0.3331(2) 0.1237(2) 0.3710(2)
H7 H 0.2962 0.0699 0.3940
H8 H 0.3040 0.1557 0.3697
C10 C 0.3696(2) 0.1766(2) 0.2440(2)
H9 H 0.3346 0.2011 0.2551
H10 H 0.3562 0.1535 0.1947
C11 C 0.4604(2) 0.2431(2) 0.2481(2)
H11 H 0.4769 0.2756 0.2029
H12 H 0.4689 0.2810 0.2885
C12 C 0.5520(2) 0.1957(2) 0.1923(2)
H13 H 0.5980 0.1859 0.2043
H14 H 0.5745 0.2472 0.1638
C13 C 0.4873(2) 0.1242(2) 0.1493(2)
H15 H 0.4493 0.1395 0.1259
H16 H 0.5135 0.1075 0.1115
C14 C 0.4118(2) -0.0189(2) 0.1786(2)
H17 H 0.4200 -0.0273 0.1296
C15 C 0.3660(2) -0.0908(2) 0.2239(2)
C16 C 0.3363(2) -0.1685(2) 0.1899(2)
H18 H 0.3512 -0.1707 0.1414
C17 C 0.2860(2) -0.2410(2) 0.2263(2)
H19 H 0.2678 -0.2931 0.2041
C18 C 0.2631(2) -0.2356(2) 0.2956(2)
C19 C 0.2920(2) -0.1618(2) 0.3323(2)
H20 H 0.2757 -0.1612 0.3807
C20 C 0.3469(2) -0.0863(2) 0.2962(2)
N1 N 0.46074(18) 0.13095(18) 0.39769(18)
N2 N 0.35236(19) 0.11011(18) 0.29611(18)
H21 H 0.3070 0.0621 0.2791
N3 N 0.51317(18) 0.20351(18) 0.25922(17)
H22 H 0.5549 0.2357 0.2916
N4 N 0.44200(17) 0.05606(19) 0.20118(17)
O1 O 0.54174(15) 0.07779(15) 0.30594(14)
O2 O 0.37272(15) -0.01773(15) 0.33338(14)
Fe1 Fe 0.44747(3) 0.08972(3) 0.30038(3)
Br1 Br 0.72335(3) -0.03053(3) 0.41509(3)
Br2 Br 0.18837(3) -0.33438(3) 0.34428(3)
Cr2? Cr 0.6667 0.3333 0.99462(6)
Mn2? Mn 0.33303(4) 0.17226(4) 0.99867(4)
loop_
_geom_bond_atom_site_label_1
_geom_bond_atom_site_label_2
_geom_bond_site_symmetry_1
_geom_bond_site_symmetry_2
C1 C2 1_555 1_555
C2 H1 1_555 1_555
C3 C2 1_555 1_555
C4 C3 1_555 1_555
H2 C4 1_555 1_555
C5 C4 1_555 1_555
H3 C5 1_555 1_555
C6 C1 1_555 1_555
C7 C6 1_555 1_555
H4 C7 1_555 1_555
C8 H5 1_555 1_555
H6 C8 1_555 1_555
C9 C8 1_555 1_555
H7 C9 1_555 1_555
H8 C9 1_555 1_555
C10 H9 1_555 1_555
H10 C10 1_555 1_555
C11 C10 1_555 1_555
H11 C11 1_555 1_555
H12 C11 1_555 1_555
C12 H13 1_555 1_555
H14 C12 1_555 1_555
C13 C12 1_555 1_555
H15 C13 1_555 1_555
H16 C13 1_555 1_555
C14 H17 1_555 1_555
C15 C14 1_555 1_555
C16 C15 1_555 1_555
H18 C16 1_555 1_555
C17 C16 1_555 1_555
H19 C17 1_555 1_555
C18 C17 1_555 1_555
C19 C18 1_555 1_555
H20 C19 1_555 1_555
C20 C15 1_555 1_555
N1 C7 1_555 1_555
N2 C9 1_555 1_555
H21 N2 1_555 1_555
N3 C11 1_555 1_555
H22 N3 1_555 1_555
N4 C13 1_555 1_555
O1 C1 1_555 1_555
O2 C20 1_555 1_555
Fe1 N1 1_555 1_555
Br1 C3 1_555 1_555
Br2 C18 1_555 1_555
C21 C22 1_555 1_555
C22 O4 1_555 1_555
C23 C24 1_555 1_555
C24 O8 1_555 1_555
O3 C21 1_555 1_555
O4 Cr1 1_555 1_555
O5 C21 1_555 1_555
O6 C22 1_555 1_555
O7 C23 1_555 1_555
O8 Cr1 1_555 1_555
O9 C24 1_555 1_555
O10 C23 1_555 1_555
Mn1 O5 1_555 1_555
Cr1 O3 1_555 1_555
O11 C25 1_555 1_555
C25 H23 1_555 1_555
H24 C25 1_555 1_555
H25 C25 1_555 1_555
C21A C22A 1_555 1_555
C22A O4A 1_555 1_555
C23A C24A 1_555 1_555
C24A O8A 1_555 1_555
O3A C21A 1_555 1_555
O4A Cr1A 1_555 1_555
O5A Mn1 1_555 1_555
O6A Mn1 1_555 1_555
O7A C23A 1_555 1_555
O8A Cr1A 1_555 1_555
O9A C24A 1_555 1_555
O10A C23A 1_555 1_555
Cr1A O3A 1_555 1_555
C21B C22B 1_555 1_555
C22B O4B 1_555 1_555
C23B C24B 1_555 1_555
C24B O8B 1_555 1_555
O3B C21B 1_555 1_555
O4B Cr1B 1_555 1_555
O5B Mn1 1_555 1_555
O6B Mn1 1_555 1_555
O7B C23B 1_555 1_555
O8B Cr1B 1_555 1_555
O9B C24B 1_555 1_555
O10B C23B 1_555 1_555
Cr1B O3B 1_555 1_555
O9C Cr1A 1_555 1_555
O9D Cr1B 1_555 1_555
O9E Cr1 1_555 1_555
O10C Cr1A 1_555 1_555
O10D Cr1B 1_555 1_555
O10E Cr1 1_555 1_555
Cr1C O9B 1_555 1_555
Cr1D O9 1_555 1_555
Cr1E O9A 1_555 1_555
C5 C6 1_555 1_555
C8 N1 1_555 1_555
C10 N2 1_555 1_555
C12 N3 1_555 1_555
C14 N4 1_555 1_555
C19 C20 1_555 1_555
N2 Fe1 1_555 1_555
N3 Fe1 1_555 1_555
N4 Fe1 1_555 1_555
O1 Fe1 1_555 1_555
O2 Fe1 1_555 1_555
O6 Mn1 1_555 1_555
O7 Cr1 1_555 1_555
O10 Cr1D 1_555 1_555
C21A O5A 1_555 1_555
C22A O6A 1_555 1_555
O7A Cr1A 1_555 1_555
O10A Cr1E 1_555 1_555
C21B O5B 1_555 1_555
C22B O6B 1_555 1_555
O7B Cr1B 1_555 1_555
O10B Cr1C 1_555 1_555

#END
