
#######################################################################
#
#                 Cambridge Crystallographic Data Centre
#                                CCDC 
#
#######################################################################
#
# If this CIF has been generated from an entry in the Cambridge 
# Structural Database, then it will include bibliographic, chemical, 
# crystal, experimental, refinement or atomic coordinate data resulting 
# from the CCDC's data processing and validation procedures.
#
#######################################################################

data_ZERREV
_symmetry_cell_setting           triclinic
_symmetry_space_group_name_H-M   'P -1'
_symmetry_Int_Tables_number      2
_space_group_name_Hall           '-P 1'
loop_
_symmetry_equiv_pos_site_id
_symmetry_equiv_pos_as_xyz
1 x,y,z
2 -x,-y,-z
_cell_length_a                   9.4310(6)
_cell_length_b                   12.8070(8)
_cell_length_c                   16.0680(10)
_cell_angle_alpha                101.392(5)
_cell_angle_beta                 96.264(5)
_cell_angle_gamma                97.548(5)
_cell_volume                     1867.72
loop_
_atom_site_label
_atom_site_type_symbol
_atom_site_fract_x
_atom_site_fract_y
_atom_site_fract_z
C21 C 0.4647(4) 0.4492(2) 0.46575(19)
C22 C 0.0322(3) 0.5530(2) 0.48743(17)
C23 C 0.2081(3) 0.5367(2) 0.75208(18)
C24 C 0.2794(3) 0.4332(2) 0.74238(19)
C25 C 0.4722(3) 0.4512(2) 1.01839(17)
C26 C -0.0359(3) 0.4448(2) 0.97134(18)
O3 O 0.3427(2) 0.40411(17) 0.47711(13)
O4 O 0.5346(2) 0.41952(17) 0.40605(13)
O5 O 0.3162(2) 0.39905(17) 0.67055(14)
O6 O 0.2910(2) 0.39239(16) 0.80696(14)
O7 O 0.1980(2) 0.57937(16) 0.68784(13)
O8 O 0.1669(2) 0.57032(16) 0.82217(13)
O9 O -0.1587(2) 0.40834(16) 0.98688(13)
O10 O 0.0337(2) 0.40064(16) 0.91603(13)
O11 O 0.3409(2) 0.41359(16) 0.99868(12)
O12 O 0.5627(2) 0.41708(15) 1.06513(13)
O13 O 0.1657(2) 0.58206(16) 0.50688(12)
O14 O -0.0552(2) 0.59915(16) 0.44917(13)
Mn1 Mn 0.26236(5) 0.48800(4) 0.58093(3)
Cr1 Cr 0.26236(5) 0.48800(4) 0.58093(3)
Mn2 Mn 0.23259(5) 0.49001(3) 0.91560(3)
Cr2 Cr 0.23259(5) 0.49001(3) 0.91560(3)
C21A C 0.5353(4) 0.5508(2) 0.53425(19)
O3A O 0.6573(2) 0.59589(17) 0.52289(13)
O4A O 0.4654(2) 0.58048(17) 0.59395(13)
C22A C -0.0322(3) 0.4470(2) 0.51257(17)
O13A O -0.1657(2) 0.41794(16) 0.49312(12)
O14A O 0.0552(2) 0.40085(16) 0.55083(13)
C25A C 0.5278(3) 0.5488(2) 0.98161(17)
O11A O 0.6591(2) 0.58641(16) 1.00132(12)
O12A O 0.4373(2) 0.58292(15) 0.93487(13)
C26A C 0.0359(3) 0.5552(2) 1.02866(18)
O10A O -0.0337(2) 0.59936(16) 1.08397(13)
O9A O 0.1587(2) 0.59166(16) 1.01312(13)
C23A C -0.2081(3) 0.4633(2) 0.24792(18)
C24A C -0.2794(3) 0.5668(2) 0.25762(19)
O5A O -0.3162(2) 0.60095(17) 0.32945(14)
O6A O -0.2910(2) 0.60761(16) 0.19304(14)
O7A O -0.1980(2) 0.42063(16) 0.31216(13)
O8A O -0.1669(2) 0.42968(16) 0.17783(13)
Mn1A Mn -0.26236(5) 0.51200(4) 0.41907(3)
Cr1A Cr -0.26236(5) 0.51200(4) 0.41907(3)
Mn2A Mn -0.23259(5) 0.50999(3) 0.08440(3)
Cr2A Cr -0.23259(5) 0.50999(3) 0.08440(3)
O3A_2 O -0.3427(2) 0.59589(17) 0.52289(13)
O4_2 O -0.4654(2) 0.41952(17) 0.40605(13)
O9_2 O -0.1587(2) 0.40834(16) -0.01312(13)
O10A_2 O -0.0337(2) 0.59936(16) 0.08397(13)
O11A_2 O -0.3409(2) 0.58641(16) 0.00132(12)
O12_2 O -0.4373(2) 0.41708(15) 0.06513(13)
Mn1A_2 Mn 0.73764(5) 0.51200(4) 0.41907(3)
Cr1A_2 Cr 0.73764(5) 0.51200(4) 0.41907(3)
Mn2A_2 Mn -0.23259(5) 0.50999(3) 1.08440(3)
Mn2A_3 Mn 0.76741(5) 0.50999(3) 1.08440(3)
Cr2A_2 Cr -0.23259(5) 0.50999(3) 1.08440(3)
Cr2A_3 Cr 0.76741(5) 0.50999(3) 1.08440(3)
N5 N 0.7141(7) 0.4863(4) 0.7805(5)
C27 C 0.7758(6) 0.5558(4) 0.7572(3)
C28 C 0.8476(4) 0.6423(3) 0.7274(2)
H23 H 0.8632 0.7080 0.7727
H24 H 0.7883 0.6536 0.6769
H25 H 0.9409 0.6253 0.7120
N6 N 0.4643(10) 0.0780(5) 0.5787(4)
C29 C 0.5018(10) 0.1556(7) 0.5748(5)
C30 C 0.5970(8) 0.2718(7) 0.5789(4)
H26 H 0.6981 0.2633 0.5759
H27 H 0.5899 0.3211 0.6329
H28 H 0.5604 0.3015 0.5306
C1 C 0.8487(3) 0.0514(2) 0.70876(18)
C2 C 0.9326(3) 0.0035(2) 0.64869(19)
C3 C 1.0279(3) 0.0643(3) 0.61051(19)
H1 H 1.0830 0.0295 0.5705
C4 C 1.0430(3) 0.1756(3) 0.6306(2)
H2 H 1.1102 0.2175 0.6056
C5 C 0.9600(3) 0.2255(3) 0.6870(2)
H3 H 0.9699 0.3019 0.7001
C6 C 0.8615(3) 0.1654(2) 0.72518(19)
C7 C 0.7673(3) 0.2235(2) 0.77562(19)
H4 H 0.7864 0.3001 0.7867
C8 C 0.5675(3) 0.2547(2) 0.84722(19)
H5 H 0.5089 0.2802 0.8026
H6 H 0.6283 0.3182 0.8861
C9 C 0.4686(3) 0.1956(2) 0.89770(19)
H7 H 0.5210 0.1958 0.9546
H8 H 0.3837 0.2324 0.9065
C10 C 0.3193(3) 0.0717(3) 0.76914(19)
H9 H 0.3565 0.1228 0.7348
H10 H 0.2235 0.0873 0.7831
C11 C 0.3070(3) -0.0437(3) 0.7192(2)
H11 H 0.2658 -0.0947 0.7525
H12 H 0.2431 -0.0544 0.6641
C12 C 0.4696(4) -0.1781(3) 0.68036(19)
H13 H 0.5585 -0.1856 0.6537
H14 H 0.3860 -0.2183 0.6384
C13 C 0.4773(3) -0.2240(2) 0.76050(19)
H15 H 0.3809 -0.2330 0.7796
H16 H 0.5095 -0.2954 0.7487
C14 C 0.6564(3) -0.1856(2) 0.88283(18)
H17 H 0.6461 -0.2617 0.8756
C15 C 0.7546(3) -0.1216(2) 0.95468(18)
C16 C 0.8420(3) -0.1746(2) 1.00429(19)
H18 H 0.8384 -0.2504 0.9874
C17 C 0.9319(3) -0.1183(2) 1.07645(19)
H19 H 0.9932 -0.1545 1.1079
C18 C 0.9333(3) -0.0076(2) 1.10363(19)
H20 H 0.9942 0.0311 1.1543
C19 C 0.8475(3) 0.0457(2) 1.05772(18)
C20 C 0.7610(3) -0.0077(2) 0.97968(18)
N1 N 0.6603(2) 0.18050(19) 0.80674(14)
N2 N 0.4205(2) 0.0828(2) 0.84893(15)
H21 H 0.3764 0.0431 0.8843
N3 N 0.4541(3) -0.0625(2) 0.70363(16)
H22 H 0.4766 -0.0313 0.6582
N4 N 0.5812(3) -0.14780(19) 0.82744(15)
O1 O 0.7639(2) -0.00834(15) 0.74659(12)
O2 O 0.6887(2) 0.04717(15) 0.93390(12)
Fe1 Fe 0.61158(4) 0.01603(3) 0.81482(3)
Br1 Br 0.90877(4) -0.14843(3) 0.61686(2)
Br2 Br 0.84242(3) 0.19428(2) 1.097501(19)
loop_
_geom_bond_atom_site_label_1
_geom_bond_atom_site_label_2
_geom_bond_site_symmetry_1
_geom_bond_site_symmetry_2
C1 C2 1_555 1_555
C2 C3 1_555 1_555
C3 H1 1_555 1_555
C4 C3 1_555 1_555
H2 C4 1_555 1_555
C5 C4 1_555 1_555
H3 C5 1_555 1_555
C6 C1 1_555 1_555
C7 C6 1_555 1_555
H4 C7 1_555 1_555
C8 H5 1_555 1_555
H6 C8 1_555 1_555
C9 C8 1_555 1_555
H7 C9 1_555 1_555
H8 C9 1_555 1_555
C10 H9 1_555 1_555
H10 C10 1_555 1_555
C11 C10 1_555 1_555
H11 C11 1_555 1_555
H12 C11 1_555 1_555
C12 H13 1_555 1_555
H14 C12 1_555 1_555
C13 C12 1_555 1_555
H15 C13 1_555 1_555
H16 C13 1_555 1_555
C14 H17 1_555 1_555
C15 C14 1_555 1_555
C16 C15 1_555 1_555
H18 C16 1_555 1_555
C17 C16 1_555 1_555
H19 C17 1_555 1_555
C18 C17 1_555 1_555
H20 C18 1_555 1_555
C19 C18 1_555 1_555
C20 C15 1_555 1_555
N1 C7 1_555 1_555
N2 C9 1_555 1_555
H21 N2 1_555 1_555
N3 C11 1_555 1_555
H22 N3 1_555 1_555
N4 C13 1_555 1_555
O1 C1 1_555 1_555
O2 C20 1_555 1_555
Fe1 N1 1_555 1_555
Br1 C2 1_555 1_555
Br2 C19 1_555 1_555
C21 O3 1_555 1_555
C22 O13 1_555 1_555
C23 C24 1_555 1_555
C24 O5 1_555 1_555
C25 O11 1_555 1_555
C26 O9 1_555 1_555
O3 Mn1 1_555 1_555
O4 C21 1_555 1_555
O5 Mn1 1_555 1_555
O6 C24 1_555 1_555
O7 C23 1_555 1_555
O8 C23 1_555 1_555
O9 Mn2A_2 1_555 1_555
O10 C26 1_555 1_555
O11 Mn2 1_555 1_555
O12 C25 1_555 1_555
O13 Mn1 1_555 1_555
O14 C22 1_555 1_555
Mn1 O7 1_555 1_555
Cr1 O3 1_555 1_555
Mn2 O6 1_555 1_555
Cr2 O6 1_555 1_555
N5 C27 1_555 1_555
C27 C28 1_555 1_555
C28 H23 1_555 1_555
H24 C28 1_555 1_555
H25 C28 1_555 1_555
N6 C29 1_555 1_555
C29 C30 1_555 1_555
C30 H26 1_555 1_555
H27 C30 1_555 1_555
H28 C30 1_555 1_555
C21A C21 1_555 1_555
O3A C21A 1_555 1_555
O4A Mn1 1_555 1_555
C22A C22 1_555 1_555
O13A C22A 1_555 1_555
O14A Mn1 1_555 1_555
C25A C25 1_555 1_555
O11A C25A 1_555 1_555
O12A Mn2 1_555 1_555
C26A C26 1_555 1_555
O10A C26A 1_555 1_555
O9A Mn2 1_555 1_555
C23A C24A 1_555 1_555
C24A O5A 1_555 1_555
O5A Mn1A 1_555 1_555
O6A C24A 1_555 1_555
O7A C23A 1_555 1_555
O8A C23A 1_555 1_555
Mn1A O14 1_555 1_555
Cr1A O14 1_555 1_555
Mn2A O6A 1_555 1_555
Cr2A O6A 1_555 1_555
O3A_2 Mn1A 1_555 1_555
O4_2 Mn1A 1_555 1_555
O9_2 Mn2A 1_555 1_555
O10A_2 Mn2A 1_555 1_555
O11A_2 Mn2A 1_555 1_555
O12_2 Mn2A 1_555 1_555
Mn1A_2 O4 1_555 1_555
Cr1A_2 O4 1_555 1_555
Mn2A_2 O10A 1_555 1_555
Mn2A_3 O12 1_555 1_555
Cr2A_2 O9 1_555 1_555
Cr2A_3 O12 1_555 1_555
C5 C6 1_555 1_555
C8 N1 1_555 1_555
C10 N2 1_555 1_555
C12 N3 1_555 1_555
C14 N4 1_555 1_555
C19 C20 1_555 1_555
N2 Fe1 1_555 1_555
N3 Fe1 1_555 1_555
N4 Fe1 1_555 1_555
O1 Fe1 1_555 1_555
O2 Fe1 1_555 1_555
O5 Cr1 1_555 1_555
O7 Cr1 1_555 1_555
O8 Mn2 1_555 1_555
O8 Cr2 1_555 1_555
O10 Mn2 1_555 1_555
O10 Cr2 1_555 1_555
O11 Cr2 1_555 1_555
O13 Cr1 1_555 1_555
Cr1 O4A 1_555 1_555
Cr1 O14A 1_555 1_555
Cr2 O12A 1_555 1_555
Cr2 O9A 1_555 1_555
C21A O4A 1_555 1_555
O3A Mn1A_2 1_555 1_555
O3A Cr1A_2 1_555 1_555
C22A O14A 1_555 1_555
O13A Mn1A 1_555 1_555
O13A Cr1A 1_555 1_555
C25A O12A 1_555 1_555
O11A Mn2A_3 1_555 1_555
O11A Cr2A_3 1_555 1_555
C26A O9A 1_555 1_555
O10A Cr2A_2 1_555 1_555
O5A Cr1A 1_555 1_555
O7A Mn1A 1_555 1_555
O7A Cr1A 1_555 1_555
O8A Mn2A 1_555 1_555
O8A Cr2A 1_555 1_555
Cr1A O3A_2 1_555 1_555
Cr1A O4_2 1_555 1_555
Cr2A O9_2 1_555 1_555
Cr2A O10A_2 1_555 1_555
Cr2A O11A_2 1_555 1_555
Cr2A O12_2 1_555 1_555

#END
