
#######################################################################
#
#                 Cambridge Crystallographic Data Centre
#                                CCDC 
#
#######################################################################
#
# If this CIF has been generated from an entry in the Cambridge 
# Structural Database, then it will include bibliographic, chemical, 
# crystal, experimental, refinement or atomic coordinate data resulting 
# from the CCDC's data processing and validation procedures.
#
#######################################################################

data_ZERVOJ
_symmetry_cell_setting           triclinic
_symmetry_space_group_name_H-M   'P -1'
_symmetry_Int_Tables_number      2
_space_group_name_Hall           '-P 1'
loop_
_symmetry_equiv_pos_site_id
_symmetry_equiv_pos_as_xyz
1 x,y,z
2 -x,-y,-z
_cell_length_a                   7.7685(11)
_cell_length_b                   10.1201(15)
_cell_length_c                   11.460(2)
_cell_angle_alpha                107.115(13)
_cell_angle_beta                 100.066(14)
_cell_angle_gamma                105.049(12)
_cell_volume                     800.143
loop_
_atom_site_label
_atom_site_type_symbol
_atom_site_fract_x
_atom_site_fract_y
_atom_site_fract_z
Zn1 Zn 0.69218(8) 0.59801(6) 0.71628(5)
N1 N 0.9541(5) 0.6256(4) 0.8405(3)
N2 N 0.9282(5) 0.8081(4) 1.0157(3)
H1 H 0.9946 0.8842 1.0812
O1 O 0.6375(4) 0.6934(3) 0.8791(3)
O2 O 0.7802(5) 0.7177(3) 0.6156(3)
O3 O 0.8690(5) 0.9304(3) 0.7767(3)
O4 O 0.6715(5) 0.3999(4) 0.5953(3)
O5 O 0.5237(7) 0.3469(4) 0.7317(4)
C1 C 1.0499(7) 0.5373(6) 0.7957(5)
H2 H 1.0105 0.4808 0.7097
C2 C 1.2005(7) 0.5252(6) 0.8679(5)
H3 H 1.2604 0.4616 0.8322
C3 C 1.2612(7) 0.6101(6) 0.9954(5)
H4 H 1.3634 0.6046 1.0474
C4 C 1.1692(7) 0.7025(6) 1.0446(5)
H5 H 1.2078 0.7603 1.1304
C5 C 1.0168(7) 0.7086(5) 0.9641(4)
C6 C 0.7493(7) 0.7959(5) 0.9726(4)
C7 C 0.6848(7) 0.9139(5) 1.0463(5)
H6 H 0.7899 1.0032 1.0896
H7 H 0.6351 0.8847 1.1103
C8 C 0.5371(7) 0.9443(5) 0.9618(5)
H8 H 0.5894 0.9805 0.9018
H9 H 0.4357 0.8536 0.9139
C9 C 0.8557(6) 0.8574(5) 0.6652(4)
C10 C 0.9306(6) 0.9314(5) 0.5803(4)
C11 C 0.9393(7) 0.8498(5) 0.4619(5)
H10 H 0.8993 0.7481 0.4357
C12 C 0.9938(7) 1.0830(5) 0.6178(5)
H11 H 0.9912 1.1400 0.6972
C13 C 0.5779(8) 0.3075(6) 0.6368(5)
C14 C 0.5393(7) 0.1479(5) 0.5646(4)
C15 C 0.5818(5) 0.1015(4) 0.4483(3)
H12 H 0.6362 0.1697 0.4146
C16 C 0.4581(5) 0.0469(4) 0.6159(3)
H13 H 0.4313 0.0789 0.6933
O6 O 0.4060(5) 0.5605(5) 0.6292(4)
H14 H 0.3425 0.4723 0.6146
H15 H 0.3974 0.5767 0.5601
N1A N 0.0459(5) 1.3744(4) 1.1595(3)
N2A N 0.0718(5) 1.1919(4) 0.9843(3)
H1A H 0.0054 1.1158 0.9188
O1A O 0.3625(4) 1.3066(3) 1.1209(3)
C1A C -0.0499(7) 1.4627(6) 1.2043(5)
H2A H -0.0105 1.5192 1.2903
C2A C -0.2005(7) 1.4748(6) 1.1321(5)
H3A H -0.2604 1.5384 1.1678
C3A C -0.2612(7) 1.3899(6) 1.0046(5)
H4A H -0.3634 1.3954 0.9526
C4A C -0.1692(7) 1.2975(6) 0.9554(5)
H5A H -0.2078 1.2397 0.8696
C5A C -0.0168(7) 1.2914(5) 1.0359(4)
C6A C 0.2507(7) 1.2041(5) 1.0274(4)
C7A C 0.3152(7) 1.0861(5) 0.9537(5)
H6A H 0.2101 0.9968 0.9104
H7A H 0.3649 1.1153 0.8897
C8A C 0.4629(7) 1.0557(5) 1.0382(5)
H8A H 0.4106 1.0195 1.0982
H9A H 0.5643 1.1464 1.0861
O2A O 1.2198(5) 1.2823(3) 0.3844(3)
O3A O 1.1310(5) 1.0696(3) 0.2233(3)
C9A C 1.1443(6) 1.1426(5) 0.3348(4)
C10A C 1.0694(6) 1.0686(5) 0.4197(4)
C11A C 1.0607(7) 1.1502(5) 0.5381(5)
H10A H 1.1007 1.2519 0.5643
C12A C 1.0062(7) 0.9170(5) 0.3822(5)
H11A H 1.0088 0.8600 0.3028
O4A O 0.3285(5) -0.3999(4) 0.4047(3)
O5A O 0.4763(7) -0.3469(4) 0.2683(4)
C13A C 0.4221(8) -0.3075(6) 0.3632(5)
C14A C 0.4607(7) -0.1479(5) 0.4354(4)
C15A C 0.4182(5) -0.1015(4) 0.5517(3)
H12A H 0.3638 -0.1697 0.5854
C16A C 0.5419(5) -0.0469(4) 0.3841(3)
H13A H 0.5687 -0.0789 0.3067
Zn1A Zn 0.30782(8) -0.59801(6) 0.28372(5)
O6A O 0.5940(5) -0.5605(5) 0.3708(4)
H14A H 0.6575 -0.4723 0.3854
H15A H 0.6026 -0.5767 0.4399
Zn1A_2 Zn 0.30782(8) 1.40199(6) 1.28372(5)
Zn1A_3 Zn 1.30782(8) 1.40199(6) 0.28372(5)
N1A_2 N 0.0459(5) -0.6256(4) 0.1595(3)
O1A_2 O 0.3625(4) -0.6934(3) 0.1209(3)
O2A_2 O 0.2198(5) -0.7177(3) 0.3844(3)
loop_
_geom_bond_atom_site_label_1
_geom_bond_atom_site_label_2
_geom_bond_site_symmetry_1
_geom_bond_site_symmetry_2
Zn1 N1 1_555 1_555
N1 C1 1_555 1_555
N2 H1 1_555 1_555
O1 Zn1 1_555 1_555
O2 Zn1 1_555 1_555
O3 C9 1_555 1_555
O4 Zn1 1_555 1_555
O5 C13 1_555 1_555
C1 H2 1_555 1_555
C2 C1 1_555 1_555
H3 C2 1_555 1_555
C3 C2 1_555 1_555
H4 C3 1_555 1_555
C4 C3 1_555 1_555
H5 C4 1_555 1_555
C5 N1 1_555 1_555
C6 N2 1_555 1_555
C7 C6 1_555 1_555
H6 C7 1_555 1_555
H7 C7 1_555 1_555
C8 C7 1_555 1_555
H8 C8 1_555 1_555
H9 C8 1_555 1_555
C9 O2 1_555 1_555
C10 C9 1_555 1_555
C11 C10 1_555 1_555
H10 C11 1_555 1_555
C12 C10 1_555 1_555
H11 C12 1_555 1_555
C13 O4 1_555 1_555
C14 C13 1_555 1_555
C15 C14 1_555 1_555
H12 C15 1_555 1_555
C16 C14 1_555 1_555
H13 C16 1_555 1_555
O6 Zn1 1_555 1_555
H14 O6 1_555 1_555
H15 O6 1_555 1_555
N1A C1A 1_555 1_555
N2A H1A 1_555 1_555
O1A C6A 1_555 1_555
C1A H2A 1_555 1_555
C2A C1A 1_555 1_555
H3A C2A 1_555 1_555
C3A C2A 1_555 1_555
H4A C3A 1_555 1_555
C4A C3A 1_555 1_555
H5A C4A 1_555 1_555
C5A N1A 1_555 1_555
C6A N2A 1_555 1_555
C7A C6A 1_555 1_555
H6A C7A 1_555 1_555
H7A C7A 1_555 1_555
C8A C8 1_555 1_555
H8A C8A 1_555 1_555
H9A C8A 1_555 1_555
O2A C9A 1_555 1_555
O3A C9A 1_555 1_555
C9A C10A 1_555 1_555
C10A C11A 1_555 1_555
C11A C12 1_555 1_555
H10A C11A 1_555 1_555
C12A C11 1_555 1_555
H11A C12A 1_555 1_555
O4A C13A 1_555 1_555
O5A C13A 1_555 1_555
C13A C14A 1_555 1_555
C14A C15A 1_555 1_555
C15A C16 1_555 1_555
H12A C15A 1_555 1_555
C16A C15 1_555 1_555
H13A C16A 1_555 1_555
Zn1A O4A 1_555 1_555
O6A Zn1A 1_555 1_555
H14A O6A 1_555 1_555
H15A O6A 1_555 1_555
Zn1A_2 N1A 1_555 1_555
Zn1A_3 O2A 1_555 1_555
N1A_2 Zn1A 1_555 1_555
O1A_2 Zn1A 1_555 1_555
O2A_2 Zn1A 1_555 1_555
N2 C5 1_555 1_555
O1 C6 1_555 1_555
C4 C5 1_555 1_555
N2A C5A 1_555 1_555
O1A Zn1A_2 1_555 1_555
C4A C5A 1_555 1_555
C7A C8A 1_555 1_555
C10A C12A 1_555 1_555
C14A C16A 1_555 1_555

#END
