
#######################################################################
#
#                 Cambridge Crystallographic Data Centre
#                                CCDC 
#
#######################################################################
#
# If this CIF has been generated from an entry in the Cambridge 
# Structural Database, then it will include bibliographic, chemical, 
# crystal, experimental, refinement or atomic coordinate data resulting 
# from the CCDC's data processing and validation procedures.
#
#######################################################################

data_ZERVUP
_symmetry_cell_setting           monoclinic
_symmetry_space_group_name_H-M   'P 21/n'
_symmetry_Int_Tables_number      14
_space_group_name_Hall           '-P 2yn'
loop_
_symmetry_equiv_pos_site_id
_symmetry_equiv_pos_as_xyz
1 x,y,z
2 1/2-x,1/2+y,1/2-z
3 -x,-y,-z
4 1/2+x,1/2-y,1/2+z
_cell_length_a                   12.6631(13)
_cell_length_b                   9.8425(11)
_cell_length_c                   13.623(3)
_cell_angle_alpha                90
_cell_angle_beta                 97.364(14)
_cell_angle_gamma                90
_cell_volume                     1683.92
loop_
_atom_site_label
_atom_site_type_symbol
_atom_site_fract_x
_atom_site_fract_y
_atom_site_fract_z
Zn1 Zn 0.80718(4) 0.53575(6) 0.87581(4)
O1 O 1.1566(3) 0.2539(4) 0.5577(3)
O2 O 0.6716(3) 0.5119(3) 0.7977(2)
O3 O 0.7016(3) 0.6797(4) 0.6975(3)
O4 O 0.3736(3) 0.8392(4) 0.4735(2)
O5 O 0.2276(3) 0.7160(4) 0.4596(3)
O6 O 0.8050(3) 0.3558(4) 0.9490(2)
N1 N 0.9349(3) 0.5041(4) 0.8010(3)
N2 N 0.9904(3) 0.3253(5) 0.5793(3)
H1 H 0.9251 0.3247 0.5524
C1 C 1.0325(4) 0.5400(6) 0.8425(4)
H2 H 1.0400 0.5874 0.9020
C2 C 1.1225(4) 0.5085(6) 0.7992(4)
H3 H 1.1893 0.5354 0.8291
C3 C 1.1126(4) 0.4374(6) 0.7118(4)
H4 H 1.1723 0.4159 0.6817
C4 C 1.0115(4) 0.3980(6) 0.6692(4)
C5 C 0.9254(4) 0.4351(5) 0.7157(4)
H5 H 0.8576 0.4111 0.6864
C6 C 1.0594(4) 0.2571(6) 0.5305(4)
C7 C 1.0095(5) 0.1797(7) 0.4408(4)
H6 H 1.0630 0.1626 0.3973
H7 H 0.9538 0.2346 0.4049
C8 C 0.9620(5) 0.0437(7) 0.4692(5)
H8 H 0.9019 0.0620 0.5048
H9 H 0.9355 -0.0050 0.4092
C9 C 0.6449(4) 0.5873(5) 0.7225(3)
C10 C 0.5365(3) 0.5578(5) 0.6673(3)
C11 C 0.4892(4) 0.4323(5) 0.6766(4)
H10 H 0.5249 0.3665 0.7171
C12 C 0.3906(4) 0.4036(6) 0.6269(4)
H11 H 0.3602 0.3186 0.6333
C13 C 0.3364(4) 0.5016(5) 0.5671(4)
H12 H 0.2695 0.4821 0.5334
C14 C 0.3813(3) 0.6286(5) 0.5572(3)
C15 C 0.4824(4) 0.6555(5) 0.6065(3)
H13 H 0.5139 0.7395 0.5986
C16 C 0.3217(4) 0.7337(5) 0.4923(3)
H14 H 0.802(4) 0.304(6) 0.909(4)
H15 H 0.753(4) 0.344(5) 0.985(4)
O1B O 0.8434(3) -0.2539(4) 0.4423(3)
N1B N 1.0651(3) -0.5041(4) 0.1990(3)
N2B N 1.0096(3) -0.3253(5) 0.4207(3)
H1B H 1.0749 -0.3247 0.4476
C1B C 0.9675(4) -0.5400(6) 0.1575(4)
H2B H 0.9600 -0.5874 0.0980
C2B C 0.8775(4) -0.5085(6) 0.2008(4)
H3B H 0.8107 -0.5354 0.1709
C3B C 0.8874(4) -0.4374(6) 0.2882(4)
H4B H 0.8277 -0.4159 0.3183
C4B C 0.9885(4) -0.3980(6) 0.3308(4)
C5B C 1.0746(4) -0.4351(5) 0.2843(4)
H5B H 1.1424 -0.4111 0.3136
C6B C 0.9406(4) -0.2571(6) 0.4695(4)
C7B C 0.9905(5) -0.1797(7) 0.5592(4)
H6B H 0.9370 -0.1626 0.6027
H7B H 1.0462 -0.2346 0.5951
C8B C 1.0380(5) -0.0437(7) 0.5308(5)
H8B H 1.0981 -0.0620 0.4952
H9B H 1.0645 0.0050 0.5908
Zn1B Zn 1.19282(4) -0.53575(6) 0.12419(4)
O2B O 1.3284(3) -0.5119(3) 0.2023(2)
O3B O 1.2984(3) -0.6797(4) 0.3025(3)
O4B O 1.6264(3) -0.8392(4) 0.5265(2)
O5B O 1.7724(3) -0.7160(4) 0.5404(3)
O6B O 1.1950(3) -0.3558(4) 0.0510(2)
C9B C 1.3551(4) -0.5873(5) 0.2775(3)
C10B C 1.4635(3) -0.5578(5) 0.3327(3)
C11B C 1.5108(4) -0.4323(5) 0.3234(4)
H10B H 1.4751 -0.3665 0.2829
C12B C 1.6094(4) -0.4036(6) 0.3731(4)
H11B H 1.6398 -0.3186 0.3667
C13B C 1.6636(4) -0.5016(5) 0.4329(4)
H12B H 1.7305 -0.4821 0.4666
C14B C 1.6187(3) -0.6286(5) 0.4428(3)
C15B C 1.5176(4) -0.6555(5) 0.3935(3)
H13B H 1.4861 -0.7395 0.4014
C16B C 1.6783(4) -0.7337(5) 0.5077(3)
H14B H 1.198(4) -0.304(6) 0.091(4)
H15B H 1.247(4) -0.344(5) 0.015(4)
Zn1A Zn 1.69282(4) -0.96425(6) 0.62419(4)
Zn1C Zn 0.30718(4) 0.96425(6) 0.37581(4)
O4A O 1.1264(3) -0.6608(4) 0.0265(2)
O4C O 0.8736(3) 0.6608(4) 0.9735(2)
loop_
_geom_bond_atom_site_label_1
_geom_bond_atom_site_label_2
_geom_bond_site_symmetry_1
_geom_bond_site_symmetry_2
Zn1 O2 1_555 1_555
O1 C6 1_555 1_555
O2 C9 1_555 1_555
O3 C9 1_555 1_555
O4 C16 1_555 1_555
O5 C16 1_555 1_555
O6 Zn1 1_555 1_555
N1 Zn1 1_555 1_555
N2 H1 1_555 1_555
C1 N1 1_555 1_555
H2 C1 1_555 1_555
C2 C1 1_555 1_555
H3 C2 1_555 1_555
C3 C2 1_555 1_555
H4 C3 1_555 1_555
C4 N2 1_555 1_555
C5 N1 1_555 1_555
H5 C5 1_555 1_555
C6 N2 1_555 1_555
C7 C6 1_555 1_555
H6 C7 1_555 1_555
H7 C7 1_555 1_555
C8 C7 1_555 1_555
H8 C8 1_555 1_555
H9 C8 1_555 1_555
C9 C10 1_555 1_555
C10 C11 1_555 1_555
C11 H10 1_555 1_555
C12 C11 1_555 1_555
H11 C12 1_555 1_555
C13 C12 1_555 1_555
H12 C13 1_555 1_555
C14 C13 1_555 1_555
C15 C10 1_555 1_555
H13 C15 1_555 1_555
C16 C14 1_555 1_555
H14 O6 1_555 1_555
H15 O6 1_555 1_555
O1B C6B 1_555 1_555
N1B C1B 1_555 1_555
N2B H1B 1_555 1_555
C1B H2B 1_555 1_555
C2B C1B 1_555 1_555
H3B C2B 1_555 1_555
C3B C2B 1_555 1_555
H4B C3B 1_555 1_555
C4B N2B 1_555 1_555
C5B N1B 1_555 1_555
H5B C5B 1_555 1_555
C6B N2B 1_555 1_555
C7B C6B 1_555 1_555
H6B C7B 1_555 1_555
H7B C7B 1_555 1_555
C8B C8 1_555 1_555
H8B C8B 1_555 1_555
H9B C8B 1_555 1_555
Zn1B N1B 1_555 1_555
O2B Zn1B 1_555 1_555
O3B C9B 1_555 1_555
O4B C16B 1_555 1_555
O5B C16B 1_555 1_555
O6B Zn1B 1_555 1_555
C9B O2B 1_555 1_555
C10B C9B 1_555 1_555
C11B C10B 1_555 1_555
H10B C11B 1_555 1_555
C12B C11B 1_555 1_555
H11B C12B 1_555 1_555
C13B C12B 1_555 1_555
H12B C13B 1_555 1_555
C14B C13B 1_555 1_555
C15B C10B 1_555 1_555
H13B C15B 1_555 1_555
C16B C14B 1_555 1_555
H14B O6B 1_555 1_555
H15B O6B 1_555 1_555
Zn1A O4B 1_555 1_555
Zn1C O4 1_555 1_555
O4A Zn1B 1_555 1_555
O4C Zn1 1_555 1_555
C3 C4 1_555 1_555
C4 C5 1_555 1_555
C14 C15 1_555 1_555
C3B C4B 1_555 1_555
C4B C5B 1_555 1_555
C7B C8B 1_555 1_555
C14B C15B 1_555 1_555

#END
