
#######################################################################
#
#                 Cambridge Crystallographic Data Centre
#                                CCDC 
#
#######################################################################
#
# If this CIF has been generated from an entry in the Cambridge 
# Structural Database, then it will include bibliographic, chemical, 
# crystal, experimental, refinement or atomic coordinate data resulting 
# from the CCDC's data processing and validation procedures.
#
#######################################################################

data_ZERVID
_symmetry_cell_setting           triclinic
_symmetry_space_group_name_H-M   'P -1'
_symmetry_Int_Tables_number      2
_space_group_name_Hall           '-P 1'
loop_
_symmetry_equiv_pos_site_id
_symmetry_equiv_pos_as_xyz
1 x,y,z
2 -x,-y,-z
_cell_length_a                   8.4041(13)
_cell_length_b                   9.4413(14)
_cell_length_c                   11.4431(17)
_cell_angle_alpha                83.167(3)
_cell_angle_beta                 87.931(3)
_cell_angle_gamma                74.264(3)
_cell_volume                     867.717
loop_
_atom_site_label
_atom_site_type_symbol
_atom_site_fract_x
_atom_site_fract_y
_atom_site_fract_z
Zn1 Zn 0.39551(7) 1.25110(6) 1.08591(5)
O1 O -0.1874(4) 1.6696(4) 1.4532(3)
O2 O 0.3907(4) 1.0718(3) 1.1864(3)
O3 O 0.1719(4) 1.0491(4) 1.0955(3)
O4 O 0.5000(4) 0.8059(3) 1.0610(3)
O5 O 0.5916(4) 0.5717(3) 1.1278(3)
O6 O 0.5805(4) 1.2901(4) 1.1726(4)
N1 N 0.2055(4) 1.4140(4) 1.1324(3)
N2 N -0.1511(4) 1.7611(4) 1.2649(3)
H1 H -0.1868 1.8373 1.2143
C1 C 0.1403(6) 1.3955(5) 1.2406(4)
H2 H 0.1777 1.3039 1.2851
C2 C 0.0224(6) 1.5034(5) 1.2887(4)
H3 H -0.0183 1.4848 1.3640
C3 C -0.0360(5) 1.6414(5) 1.2237(4)
C4 C 0.0291(5) 1.6582(5) 1.1123(4)
H4 H -0.0083 1.7478 1.0650
C5 C 0.1475(5) 1.5457(5) 1.0700(4)
H5 H 0.1894 1.5616 0.9947
C6 C -0.2144(5) 1.7718(5) 1.3769(4)
C7 C -0.3228(5) 1.9228(5) 1.3928(4)
H6 H -0.3867 1.9627 1.3217
H7 H -0.2537 1.9874 1.4037
C8 C -0.4400(5) 1.9237(4) 1.4963(4)
H8 H -0.3765 1.8931 1.5684
H9 H -0.5026 1.8525 1.4893
C9 C 0.2838(5) 1.0046(5) 1.1705(4)
C10 C 0.2892(5) 0.8684(5) 1.2557(4)
C11 C 0.1853(5) 0.8876(5) 1.3526(4)
H10 H 0.1126 0.9801 1.3595
C12 C 0.1877(6) 0.7733(6) 1.4381(5)
H11 H 0.1167 0.7883 1.5025
C13 C 0.2959(6) 0.6346(6) 1.4294(5)
H12 H 0.2990 0.5566 1.4878
C14 C 0.3971(6) 0.6150(5) 1.3340(4)
H13 H 0.4686 0.5219 1.3276
C15 C 0.3973(5) 0.7288(4) 1.2460(4)
C16 C 0.5034(6) 0.6977(5) 1.1386(5)
H14 H 0.579(5) 1.398(5) 1.160(4)
H15 H 0.660(5) 1.237(5) 1.164(5)
O1A O -0.8126(4) 2.3304(4) 1.5468(3)
N1A N -1.2055(4) 2.5860(4) 1.8676(3)
N2A N -0.8489(4) 2.2389(4) 1.7351(3)
H1A H -0.8132 2.1627 1.7857
C1A C -1.1403(6) 2.6045(5) 1.7594(4)
H2A H -1.1777 2.6961 1.7149
C2A C -1.0224(6) 2.4966(5) 1.7113(4)
H3A H -0.9817 2.5152 1.6360
C3A C -0.9640(5) 2.3586(5) 1.7763(4)
C4A C -1.0291(5) 2.3418(5) 1.8877(4)
H4A H -0.9917 2.2522 1.9350
C5A C -1.1475(5) 2.4543(5) 1.9300(4)
H5A H -1.1894 2.4384 2.0053
C6A C -0.7856(5) 2.2282(5) 1.6231(4)
C7A C -0.6772(5) 2.0772(5) 1.6072(4)
H6A H -0.6133 2.0373 1.6783
H7A H -0.7463 2.0126 1.5963
C8A C -0.5600(5) 2.0763(4) 1.5037(4)
H8A H -0.6235 2.1069 1.4316
H9A H -0.4974 2.1475 1.5107
Zn1A Zn -1.39551(7) 2.74890(6) 1.91409(5)
O2A O -1.3907(4) 2.9282(3) 1.8136(3)
O3A O -1.1719(4) 2.9509(4) 1.9045(3)
O4A O -1.5000(4) 3.1941(3) 1.9390(3)
O5A O -1.5916(4) 3.4283(3) 1.8722(3)
O6A O -1.5805(4) 2.7099(4) 1.8274(4)
C9A C -1.2838(5) 2.9954(5) 1.8295(4)
C10A C -1.2892(5) 3.1316(5) 1.7443(4)
C11A C -1.1853(5) 3.1124(5) 1.6474(4)
H10A H -1.1126 3.0199 1.6405
C12A C -1.1877(6) 3.2267(6) 1.5619(5)
H11A H -1.1167 3.2117 1.4975
C13A C -1.2959(6) 3.3654(6) 1.5706(5)
H12A H -1.2990 3.4434 1.5122
C14A C -1.3971(6) 3.3850(5) 1.6660(4)
H13A H -1.4686 3.4781 1.6724
C15A C -1.3973(5) 3.2712(4) 1.7540(4)
C16A C -1.5034(6) 3.3023(5) 1.8614(5)
H14A H -1.579(5) 2.602(5) 1.840(4)
H15A H -1.660(5) 2.763(5) 1.836(5)
Zn1_2 Zn -1.60449(7) 3.25110(6) 2.08591(5)
Zn1A_2 Zn 0.60449(7) 0.74890(6) 0.91409(5)
O4_2 O -1.5000(4) 2.8059(3) 2.0610(3)
O4A_2 O 0.5000(4) 1.1941(3) 0.9390(3)
O7 O 0.8371(4) 1.0587(4) 1.1225(3)
H16 H 0.826(6) 1.029(5) 1.058(4)
H17 H 0.941(5) 1.065(5) 1.117(4)
loop_
_geom_bond_atom_site_label_1
_geom_bond_atom_site_label_2
_geom_bond_site_symmetry_1
_geom_bond_site_symmetry_2
Zn1 O2 1_555 1_555
O1 C6 1_555 1_555
O2 C9 1_555 1_555
O3 C9 1_555 1_555
O4 C16 1_555 1_555
O5 C16 1_555 1_555
O6 Zn1 1_555 1_555
N1 Zn1 1_555 1_555
N2 H1 1_555 1_555
C1 N1 1_555 1_555
H2 C1 1_555 1_555
C2 C1 1_555 1_555
H3 C2 1_555 1_555
C3 N2 1_555 1_555
C4 C3 1_555 1_555
H4 C4 1_555 1_555
C5 N1 1_555 1_555
H5 C5 1_555 1_555
C6 N2 1_555 1_555
C7 C6 1_555 1_555
H6 C7 1_555 1_555
H7 C7 1_555 1_555
C8 C7 1_555 1_555
H8 C8 1_555 1_555
H9 C8 1_555 1_555
C9 C10 1_555 1_555
C10 C11 1_555 1_555
C11 H10 1_555 1_555
C12 C11 1_555 1_555
H11 C12 1_555 1_555
C13 C12 1_555 1_555
H12 C13 1_555 1_555
C14 C13 1_555 1_555
H13 C14 1_555 1_555
C15 C10 1_555 1_555
C16 C15 1_555 1_555
H14 O6 1_555 1_555
H15 O6 1_555 1_555
O7 H16 1_555 1_555
H17 O7 1_555 1_555
O1A C6A 1_555 1_555
N1A C1A 1_555 1_555
N2A H1A 1_555 1_555
C1A H2A 1_555 1_555
C2A C1A 1_555 1_555
H3A C2A 1_555 1_555
C3A N2A 1_555 1_555
C4A C3A 1_555 1_555
H4A C4A 1_555 1_555
C5A N1A 1_555 1_555
H5A C5A 1_555 1_555
C6A N2A 1_555 1_555
C7A C6A 1_555 1_555
H6A C7A 1_555 1_555
H7A C7A 1_555 1_555
C8A C8 1_555 1_555
H8A C8A 1_555 1_555
H9A C8A 1_555 1_555
Zn1A N1A 1_555 1_555
O2A Zn1A 1_555 1_555
O3A C9A 1_555 1_555
O4A C16A 1_555 1_555
O5A C16A 1_555 1_555
O6A Zn1A 1_555 1_555
C9A O2A 1_555 1_555
C10A C9A 1_555 1_555
C11A C10A 1_555 1_555
H10A C11A 1_555 1_555
C12A C11A 1_555 1_555
H11A C12A 1_555 1_555
C13A C12A 1_555 1_555
H12A C13A 1_555 1_555
C14A C13A 1_555 1_555
H13A C14A 1_555 1_555
C15A C10A 1_555 1_555
C16A C15A 1_555 1_555
H14A O6A 1_555 1_555
H15A O6A 1_555 1_555
Zn1_2 O4A 1_555 1_555
Zn1A_2 O4 1_555 1_555
O4_2 Zn1A 1_555 1_555
O4A_2 Zn1 1_555 1_555
C2 C3 1_555 1_555
C4 C5 1_555 1_555
C14 C15 1_555 1_555
C2A C3A 1_555 1_555
C4A C5A 1_555 1_555
C7A C8A 1_555 1_555
C14A C15A 1_555 1_555

#END
