
#######################################################################
#
#                 Cambridge Crystallographic Data Centre
#                                CCDC 
#
#######################################################################
#
# If this CIF has been generated from an entry in the Cambridge 
# Structural Database, then it will include bibliographic, chemical, 
# crystal, experimental, refinement or atomic coordinate data resulting 
# from the CCDC's data processing and validation procedures.
#
#######################################################################

data_ZERVAV
_symmetry_cell_setting           monoclinic
_symmetry_space_group_name_H-M   'P 21/c'
_symmetry_Int_Tables_number      14
_space_group_name_Hall           '-P 2ybc'
loop_
_symmetry_equiv_pos_site_id
_symmetry_equiv_pos_as_xyz
1 x,y,z
2 -x,1/2+y,1/2-z
3 -x,-y,-z
4 x,1/2-y,1/2+z
_cell_length_a                   10.2984(1)
_cell_length_b                   22.2132(2)
_cell_length_c                   7.4487(1)
_cell_angle_alpha                90
_cell_angle_beta                 103.2672(5)
_cell_angle_gamma                90
_cell_volume                     1658.49
loop_
_atom_site_label
_atom_site_type_symbol
_atom_site_fract_x
_atom_site_fract_y
_atom_site_fract_z
Cd1 Cd 0.144390(11) 0.338750(5) 0.807130(18)
O1 O 0.35052(18) 0.44138(6) 0.3422(2)
O2 O -0.02308(11) 0.27927(6) 0.8209(2)
O3 O -0.14491(13) 0.36173(6) 0.7655(2)
O4 O -0.71336(12) 0.25125(6) 0.8233(2)
O5 O -0.62840(13) 0.34108(6) 0.8008(2)
N1 N 0.14645(13) 0.43979(6) 0.7479(2)
N2 N 0.27089(14) 0.53133(6) 0.4092(2)
H1 H 0.2682 0.5690 0.3825
C1 C 0.21617(16) 0.45624(7) 0.6240(2)
H2 H 0.2731 0.4285 0.5886
C2 C 0.20570(15) 0.51365(7) 0.5472(2)
C3 C 0.12499(16) 0.55548(7) 0.6083(2)
H3 H 0.1165 0.5943 0.5605
C4 C 0.05785(18) 0.53875(8) 0.7403(3)
H4 H 0.0056 0.5665 0.7854
C5 C 0.06896(17) 0.48028(8) 0.8050(2)
H5 H 0.0210 0.4688 0.8910
C6 C 0.33757(17) 0.49528(8) 0.3135(2)
C7 C 0.39447(19) 0.52691(8) 0.1693(3)
H6 H 0.4538 0.5588 0.2275
H7 H 0.3224 0.5452 0.0789
C8 C 0.47082(17) 0.48405(8) 0.0720(2)
H8 H 0.5424 0.4655 0.1626
H9 H 0.4113 0.4524 0.0129
C9 C -0.13493(16) 0.30651(8) 0.7895(2)
C10 C -0.25546(15) 0.26778(7) 0.7841(2)
C11 C -0.37663(15) 0.29325(8) 0.7944(2)
H10 H -0.3850 0.3349 0.7973
C12 C -0.48580(15) 0.25683(7) 0.8005(2)
C13 C -0.47302(16) 0.19505(8) 0.7950(3)
H11 H -0.5446 0.1705 0.8031
C14 C -0.35414(17) 0.16954(8) 0.7775(3)
H12 H -0.3469 0.1279 0.7696
C15 C -0.24600(16) 0.20568(8) 0.7716(3)
H13 H -0.1664 0.1883 0.7593
C16 C -0.61647(16) 0.28503(8) 0.8094(3)
O6 O 0.09172(16) 0.32312(7) 0.4861(2)
H14 H 0.0446 0.2916 0.4588
H15 H 0.1641 0.3199 0.4502
O7 O 0.18959(17) 0.35135(8) 1.1256(2)
H16 H 0.214(3) 0.3236(12) 1.181(4)
H17 H 0.231(3) 0.3782(12) 1.167(4)
O1B O 0.64948(18) 0.55862(6) -0.3422(2)
N1B N 0.85355(13) 0.56021(6) -0.7479(2)
N2B N 0.72911(14) 0.46867(6) -0.4092(2)
H1B H 0.7318 0.4310 -0.3825
C1B C 0.78383(16) 0.54376(7) -0.6240(2)
H2B H 0.7269 0.5715 -0.5886
C2B C 0.79430(15) 0.48635(7) -0.5472(2)
C3B C 0.87501(16) 0.44452(7) -0.6083(2)
H3B H 0.8835 0.4057 -0.5605
C4B C 0.94215(18) 0.46125(8) -0.7403(3)
H4B H 0.9944 0.4335 -0.7854
C5B C 0.93104(17) 0.51972(8) -0.8050(2)
H5B H 0.9790 0.5312 -0.8910
C6B C 0.66243(17) 0.50472(8) -0.3135(2)
C7B C 0.60553(19) 0.47309(8) -0.1693(3)
H6B H 0.5462 0.4412 -0.2275
H7B H 0.6776 0.4548 -0.0789
C8B C 0.52918(17) 0.51595(8) -0.0720(2)
H8B H 0.4576 0.5345 -0.1626
H9B H 0.5887 0.5476 -0.0129
Cd1B Cd 0.855610(11) 0.661250(5) -0.807130(18)
O2B O 1.02308(11) 0.72073(6) -0.8209(2)
O3B O 1.14491(13) 0.63827(6) -0.7655(2)
O4B O 1.71336(12) 0.74875(6) -0.8233(2)
O5B O 1.62840(13) 0.65892(6) -0.8008(2)
C9B C 1.13493(16) 0.69349(8) -0.7895(2)
C10B C 1.25546(15) 0.73222(7) -0.7841(2)
C11B C 1.37663(15) 0.70675(8) -0.7944(2)
H10B H 1.3850 0.6651 -0.7973
C12B C 1.48580(15) 0.74317(7) -0.8005(2)
C13B C 1.47302(16) 0.80495(8) -0.7950(3)
H11B H 1.5446 0.8295 -0.8031
C14B C 1.35414(17) 0.83046(8) -0.7775(3)
H12B H 1.3469 0.8721 -0.7696
C15B C 1.24600(16) 0.79432(8) -0.7716(3)
H13B H 1.1664 0.8117 -0.7593
C16B C 1.61647(16) 0.71497(8) -0.8094(3)
O6B O 0.90828(16) 0.67688(7) -0.4861(2)
H14B H 0.9554 0.7084 -0.4588
H15B H 0.8359 0.6801 -0.4502
O7B O 0.81041(17) 0.64865(8) -1.1256(2)
H16B H 0.786(3) 0.6764(12) -1.181(4)
H17B H 0.769(3) 0.6218(12) -1.167(4)
Cd1_2 Cd -0.855610(11) 0.338750(5) 0.807130(18)
Cd1B_2 Cd 1.855610(11) 0.661250(5) -0.807130(18)
O4_2 O 0.28664(12) 0.25125(6) 0.8233(2)
O4B_2 O 0.71336(12) 0.74875(6) -0.8233(2)
O5_2 O 0.37160(13) 0.34108(6) 0.8008(2)
O5B_2 O 0.62840(13) 0.65892(6) -0.8008(2)
loop_
_geom_bond_atom_site_label_1
_geom_bond_atom_site_label_2
_geom_bond_site_symmetry_1
_geom_bond_site_symmetry_2
Cd1 O2 1_555 1_555
O1 C6 1_555 1_555
O2 C9 1_555 1_555
O3 C9 1_555 1_555
O4 C16 1_555 1_555
O5 C16 1_555 1_555
N1 Cd1 1_555 1_555
N2 H1 1_555 1_555
C1 N1 1_555 1_555
H2 C1 1_555 1_555
C2 N2 1_555 1_555
C3 C2 1_555 1_555
H3 C3 1_555 1_555
C4 C3 1_555 1_555
H4 C4 1_555 1_555
C5 N1 1_555 1_555
H5 C5 1_555 1_555
C6 N2 1_555 1_555
C7 C6 1_555 1_555
H6 C7 1_555 1_555
H7 C7 1_555 1_555
C8 C7 1_555 1_555
H8 C8 1_555 1_555
H9 C8 1_555 1_555
C9 C10 1_555 1_555
C10 C11 1_555 1_555
C11 H10 1_555 1_555
C12 C11 1_555 1_555
C13 C12 1_555 1_555
H11 C13 1_555 1_555
C14 C13 1_555 1_555
H12 C14 1_555 1_555
C15 C10 1_555 1_555
H13 C15 1_555 1_555
C16 C12 1_555 1_555
O6 Cd1 1_555 1_555
H14 O6 1_555 1_555
H15 O6 1_555 1_555
O7 Cd1 1_555 1_555
H16 O7 1_555 1_555
H17 O7 1_555 1_555
O1B C6B 1_555 1_555
N1B C1B 1_555 1_555
N2B H1B 1_555 1_555
C1B H2B 1_555 1_555
C2B N2B 1_555 1_555
C3B C2B 1_555 1_555
H3B C3B 1_555 1_555
C4B C3B 1_555 1_555
H4B C4B 1_555 1_555
C5B N1B 1_555 1_555
H5B C5B 1_555 1_555
C6B N2B 1_555 1_555
C7B C6B 1_555 1_555
H6B C7B 1_555 1_555
H7B C7B 1_555 1_555
C8B C8 1_555 1_555
H8B C8B 1_555 1_555
H9B C8B 1_555 1_555
Cd1B N1B 1_555 1_555
O2B Cd1B 1_555 1_555
O3B C9B 1_555 1_555
O4B C16B 1_555 1_555
O5B C16B 1_555 1_555
C9B O2B 1_555 1_555
C10B C9B 1_555 1_555
C11B C10B 1_555 1_555
H10B C11B 1_555 1_555
C12B C11B 1_555 1_555
C13B C12B 1_555 1_555
H11B C13B 1_555 1_555
C14B C13B 1_555 1_555
H12B C14B 1_555 1_555
C15B C10B 1_555 1_555
H13B C15B 1_555 1_555
C16B C12B 1_555 1_555
O6B Cd1B 1_555 1_555
H14B O6B 1_555 1_555
H15B O6B 1_555 1_555
O7B Cd1B 1_555 1_555
H16B O7B 1_555 1_555
H17B O7B 1_555 1_555
Cd1_2 O4 1_555 1_555
Cd1B_2 O4B 1_555 1_555
O4_2 Cd1 1_555 1_555
O4B_2 Cd1B 1_555 1_555
O5_2 Cd1 1_555 1_555
O5B_2 Cd1B 1_555 1_555
O5 Cd1_2 1_555 1_555
C1 C2 1_555 1_555
C4 C5 1_555 1_555
C14 C15 1_555 1_555
C1B C2B 1_555 1_555
C4B C5B 1_555 1_555
C7B C8B 1_555 1_555
O5B Cd1B_2 1_555 1_555
C14B C15B 1_555 1_555

#END
