
#######################################################################
#
#                 Cambridge Crystallographic Data Centre
#                                CCDC 
#
#######################################################################
#
# If this CIF has been generated from an entry in the Cambridge 
# Structural Database, then it will include bibliographic, chemical, 
# crystal, experimental, refinement or atomic coordinate data resulting 
# from the CCDC's data processing and validation procedures.
#
#######################################################################

data_ZERZUT
_symmetry_cell_setting           monoclinic
_symmetry_space_group_name_H-M   'P 21/c'
_symmetry_Int_Tables_number      14
_space_group_name_Hall           '-P 2ybc'
loop_
_symmetry_equiv_pos_site_id
_symmetry_equiv_pos_as_xyz
1 x,y,z
2 -x,1/2+y,1/2-z
3 -x,-y,-z
4 x,1/2-y,1/2+z
_cell_length_a                   11.0768(7)
_cell_length_b                   20.9925(13)
_cell_length_c                   14.2263(7)
_cell_angle_alpha                90
_cell_angle_beta                 120.803(3)
_cell_angle_gamma                90
_cell_volume                     2841.38
loop_
_atom_site_label
_atom_site_type_symbol
_atom_site_fract_x
_atom_site_fract_y
_atom_site_fract_z
Zn1 Zn 0.20173(3) 0.878558(13) 0.57971(2)
O1 O 0.04724(16) 0.82280(8) 0.48108(14)
O2 O -0.09976(18) 0.90447(8) 0.41030(16)
O3 O -0.65334(17) 0.68786(8) 0.14061(14)
O4 O -0.50781(19) 0.60760(8) 0.22551(17)
N1 N 0.1667(2) 0.90972(9) 0.69669(16)
N2 N 0.0951(2) 0.96854(10) 0.78899(18)
N3 N 0.2397(2) 0.94567(9) 0.49729(16)
N4 N 0.3145(2) 1.03424(10) 0.45755(17)
C1 C 0.1896(2) 0.87595(12) 0.78917(19)
C2 C 0.1442(3) 0.91206(12) 0.8464(2)
C3 C 0.1499(3) 0.89001(15) 0.9412(2)
H1 H 0.1165 0.9142 0.9779
C4 C 0.2074(3) 0.83073(16) 0.9774(2)
H2 H 0.2123 0.8140 1.0398
C5 C 0.2584(3) 0.79513(14) 0.9230(2)
H3 H 0.3003 0.7559 0.9519
C6 C 0.2491(3) 0.81598(12) 0.8276(2)
H4 H 0.2811 0.7912 0.7905
C7 C 0.1120(2) 0.96464(12) 0.7020(2)
H5 H 0.0877 0.9971 0.6510
C8 C 0.0586(3) 1.02684(14) 0.8269(3)
H6 H -0.0125 1.0168 0.8450
H7 H 0.0191 1.0578 0.7681
C9 C 0.1843(4) 1.05570(15) 0.9257(3)
H8 H 0.2179 1.0263 0.9867
H9 H 0.1556 1.0946 0.9457
C10 C 0.3030(4) 1.0707(2) 0.9062(3)
H10 H 0.3346 1.0312 0.8904
H11 H 0.2667 1.0974 0.8417
C11 C 0.4242(5) 1.1025(2) 0.9965(4)
H12 H 0.3963 1.1435 1.0088
H13 H 0.4962 1.1078 0.9785
H14 H 0.4598 1.0771 1.0615
C12 C 0.2623(2) 0.93299(12) 0.4114(2)
C13 C 0.3097(2) 0.98793(12) 0.3859(2)
C14 C 0.3430(3) 0.98908(15) 0.3038(2)
H15 H 0.3753 1.0258 0.2873
C15 C 0.3256(3) 0.93308(16) 0.2490(3)
H16 H 0.3483 0.9317 0.1945
C16 C 0.2751(3) 0.87813(15) 0.2720(3)
H17 H 0.2631 0.8414 0.2315
C17 C 0.2426(3) 0.87685(13) 0.3534(2)
H18 H 0.2090 0.8401 0.3688
C18 C 0.2723(2) 1.00643(12) 0.5205(2)
H19 H 0.2665 1.0278 0.5754
C19 C 0.3457(3) 1.10241(12) 0.4585(2)
H20 H 0.4072 1.1081 0.4294
H21 H 0.3949 1.1177 0.5335
C20 C 0.2139(3) 1.14144(12) 0.3918(2)
H22 H 0.1473 1.1312 0.4147
H23 H 0.1714 1.1297 0.3154
C21 C 0.2407(3) 1.21313(12) 0.4031(2)
H24 H 0.2888 1.2246 0.4799
H25 H 0.3016 1.2241 0.3751
C22 C 0.1052(3) 1.25116(14) 0.3416(3)
H26 H 0.0575 1.2401 0.2654
H27 H 0.1267 1.2958 0.3498
H28 H 0.0460 1.2416 0.3707
C23 C -0.0749(2) 0.84677(12) 0.42156(19)
C24 C -0.1934(2) 0.79958(11) 0.36527(19)
C25 C -0.3299(2) 0.82061(12) 0.29590(19)
H29 H -0.3481 0.8640 0.2834
C26 C -0.4391(2) 0.77725(11) 0.2452(2)
H30 H -0.5301 0.7918 0.1985
C27 C -0.4146(2) 0.71266(11) 0.26327(19)
C28 C -0.2772(2) 0.69164(11) 0.33329(19)
H31 H -0.2591 0.6483 0.3465
C29 C -0.1685(2) 0.73461(11) 0.38285(19)
H32 H -0.0773 0.7200 0.4287
C30 C -0.5318(2) 0.66488(12) 0.2066(2)
Zn1C Zn -0.79827(3) 0.621442(13) 0.07971(2)
O3C O 0.34666(17) 0.81214(8) 0.64061(14)
loop_
_geom_bond_atom_site_label_1
_geom_bond_atom_site_label_2
_geom_bond_site_symmetry_1
_geom_bond_site_symmetry_2
Zn1 O1 1_555 1_555
O1 C23 1_555 1_555
O2 C23 1_555 1_555
O3 C30 1_555 1_555
O4 C30 1_555 1_555
N1 Zn1 1_555 1_555
N2 C2 1_555 1_555
N3 Zn1 1_555 1_555
N4 C13 1_555 1_555
C1 N1 1_555 1_555
C2 C1 1_555 1_555
C3 C2 1_555 1_555
H1 C3 1_555 1_555
C4 C3 1_555 1_555
H2 C4 1_555 1_555
C5 C4 1_555 1_555
H3 C5 1_555 1_555
C6 C1 1_555 1_555
H4 C6 1_555 1_555
C7 N1 1_555 1_555
H5 C7 1_555 1_555
C8 N2 1_555 1_555
H6 C8 1_555 1_555
H7 C8 1_555 1_555
C9 C8 1_555 1_555
H8 C9 1_555 1_555
H9 C9 1_555 1_555
C10 C9 1_555 1_555
H10 C10 1_555 1_555
H11 C10 1_555 1_555
C11 C10 1_555 1_555
H12 C11 1_555 1_555
H13 C11 1_555 1_555
H14 C11 1_555 1_555
C12 N3 1_555 1_555
C13 C12 1_555 1_555
C14 C13 1_555 1_555
H15 C14 1_555 1_555
C15 C14 1_555 1_555
H16 C15 1_555 1_555
C16 C15 1_555 1_555
H17 C16 1_555 1_555
C17 C12 1_555 1_555
H18 C17 1_555 1_555
C18 N3 1_555 1_555
H19 C18 1_555 1_555
C19 N4 1_555 1_555
H20 C19 1_555 1_555
H21 C19 1_555 1_555
C20 C19 1_555 1_555
H22 C20 1_555 1_555
H23 C20 1_555 1_555
C21 C20 1_555 1_555
H24 C21 1_555 1_555
H25 C21 1_555 1_555
C22 C21 1_555 1_555
H26 C22 1_555 1_555
H27 C22 1_555 1_555
H28 C22 1_555 1_555
C23 C24 1_555 1_555
C24 C25 1_555 1_555
C25 H29 1_555 1_555
C26 C25 1_555 1_555
H30 C26 1_555 1_555
C27 C26 1_555 1_555
C28 C27 1_555 1_555
H31 C28 1_555 1_555
C29 C24 1_555 1_555
H32 C29 1_555 1_555
C30 C27 1_555 1_555
Zn1C O3 1_555 1_555
O3C Zn1 1_555 1_555
N2 C7 1_555 1_555
N4 C18 1_555 1_555
C5 C6 1_555 1_555
C16 C17 1_555 1_555
C28 C29 1_555 1_555

#END
