
#######################################################################
#
#                 Cambridge Crystallographic Data Centre
#                                CCDC 
#
#######################################################################
#
# If this CIF has been generated from an entry in the Cambridge 
# Structural Database, then it will include bibliographic, chemical, 
# crystal, experimental, refinement or atomic coordinate data resulting 
# from the CCDC's data processing and validation procedures.
#
#######################################################################

data_ZERZON
_symmetry_cell_setting           monoclinic
_symmetry_space_group_name_H-M   'P 21/n'
_symmetry_Int_Tables_number      14
_space_group_name_Hall           '-P 2yn'
loop_
_symmetry_equiv_pos_site_id
_symmetry_equiv_pos_as_xyz
1 x,y,z
2 1/2-x,1/2+y,1/2-z
3 -x,-y,-z
4 1/2+x,1/2-y,1/2+z
_cell_length_a                   9.674(2)
_cell_length_b                   21.403(5)
_cell_length_c                   15.575(4)
_cell_angle_alpha                90
_cell_angle_beta                 95.351(4)
_cell_angle_gamma                90
_cell_volume                     3210.79
loop_
_atom_site_label
_atom_site_type_symbol
_atom_site_fract_x
_atom_site_fract_y
_atom_site_fract_z
Cu1 Cu 0.22026(4) 0.178009(16) 0.78740(2)
O1 O 0.1760(2) 0.26717(10) 0.76467(15)
O2 O 0.0365(3) 0.26204(10) 0.64226(16)
O3 O 0.0981(3) 0.58378(11) 0.59095(18)
O4 O 0.2435(2) 0.58729(10) 0.71057(14)
O5 O 0.3109(3) 0.20460(12) 0.92763(15)
H1 H 0.3484 0.1687 0.9284
H2 H 0.3612 0.2348 0.9475
N1 N 0.0325(3) 0.15908(12) 0.81987(18)
N2 N -0.1614(3) 0.10407(13) 0.82116(19)
N3 N 0.3978(3) 0.19370(13) 0.73636(18)
N4 N 0.5889(3) 0.24453(16) 0.7100(2)
C1 C -0.0355(3) 0.10847(16) 0.7936(2)
H3 H 0.0009 0.0784 0.7590
C2 C -0.0559(3) 0.19106(15) 0.8698(2)
C3 C -0.0390(4) 0.24615(17) 0.9164(2)
H4 H 0.0414 0.2700 0.9161
C4 C -0.1464(5) 0.26403(19) 0.9630(3)
H5 H -0.1377 0.3005 0.9954
C5 C -0.2677(5) 0.2291(2) 0.9632(3)
H6 H -0.3380 0.2433 0.9951
C6 C -0.2867(4) 0.1748(2) 0.9179(3)
H7 H -0.3678 0.1514 0.9182
C7 C -0.1781(4) 0.15637(17) 0.8716(2)
C8 C -0.2633(4) 0.05344(19) 0.8038(3)
H8 H -0.3544 0.0714 0.7890
H9 H -0.2674 0.0286 0.8555
C9 C -0.2261(5) 0.0116(2) 0.7308(3)
H10 H -0.1380 -0.0087 0.7476
H11 H -0.2146 0.0371 0.6804
C10 C -0.3361(5) -0.0382(2) 0.7072(4)
H12 H -0.3443 -0.0649 0.7567
H13 H -0.4250 -0.0180 0.6931
C11 C -0.3027(6) -0.0771(3) 0.6330(4)
H14 H -0.2843 -0.0505 0.5857
H15 H -0.3800 -0.1038 0.6157
H16 H -0.2223 -0.1021 0.6496
C12 C 0.4769(4) 0.24256(17) 0.7550(2)
H17 H 0.4575 0.2727 0.7952
C13 C 0.4628(4) 0.16033(17) 0.6740(2)
C14 C 0.4266(4) 0.10615(18) 0.6302(2)
H18 H 0.3470 0.0841 0.6404
C15 C 0.5124(5) 0.0861(2) 0.5711(3)
H19 H 0.4905 0.0497 0.5403
C16 C 0.6326(5) 0.1192(3) 0.5559(3)
H20 H 0.6887 0.1038 0.5154
C17 C 0.6699(5) 0.1725(2) 0.5978(3)
H21 H 0.7496 0.1944 0.5872
C18 C 0.5828(4) 0.19274(19) 0.6576(2)
C19 C 0.6935(5) 0.2943(3) 0.7128(3)
H22 H 0.7853 0.2761 0.7126
H23 H 0.6908 0.3183 0.7654
C20 C 0.6639(7) 0.3377(3) 0.6332(4)
H24 H 0.7370 0.3688 0.6338
H25 H 0.6667 0.3130 0.5812
C21 C 0.5240(8) 0.3712(3) 0.6301(5)
H26 H 0.5130 0.3902 0.6856
H27 H 0.4493 0.3413 0.6177
C22 C 0.5170(10) 0.4226(3) 0.5585(5)
H28 H 0.5678 0.4089 0.5118
H29 H 0.5570 0.4606 0.5821
H30 H 0.4219 0.4299 0.5374
C23 C 0.1204(3) 0.36054(14) 0.6898(2)
C24 C 0.0600(4) 0.38961(15) 0.6172(2)
H31 H 0.0095 0.3661 0.5750
C25 C 0.0729(4) 0.45341(16) 0.6058(2)
H32 H 0.0302 0.4722 0.5564
C26 C 0.1486(3) 0.48952(14) 0.6670(2)
C27 C 0.2069(4) 0.45990(16) 0.7402(2)
H33 H 0.2567 0.4832 0.7830
C28 C 0.1926(4) 0.39620(16) 0.7511(2)
H34 H 0.2330 0.3774 0.8011
C29 C 0.1095(3) 0.29079(14) 0.6997(2)
C30 C 0.1631(3) 0.55915(15) 0.6538(2)
Cu1A Cu 0.27974(4) 0.678009(16) 0.71260(2)
O4A O 0.2565(2) 0.08729(10) 0.78943(14)
O6 O 0.5540(3) 0.35113(11) 0.10670(16)
H35 H 0.5443 0.3135 0.1139
O7 O 0.4504(3) 0.33043(10) -0.02408(16)
C31 C 0.4996(3) 0.36657(14) 0.0297(2)
C32 C 0.5014(3) 0.43600(14) 0.0149(2)
C33 C 0.5583(4) 0.47635(15) 0.0774(2)
H36 H 0.5975 0.4606 0.1298
C34 C 0.5574(4) 0.54021(15) 0.0627(2)
H37 H 0.5964 0.5672 0.1051
O6B O 0.4460(3) 0.64887(11) -0.10670(16)
H35B H 0.4557 0.6865 -0.1139
O7B O 0.5496(3) 0.66957(10) 0.02408(16)
C31B C 0.5004(3) 0.63343(14) -0.0297(2)
C32B C 0.4986(3) 0.56400(14) -0.0149(2)
C33B C 0.4417(4) 0.52365(15) -0.0774(2)
H36B H 0.4025 0.5394 -0.1298
C34B C 0.4426(4) 0.45979(15) -0.0627(2)
H37B H 0.4036 0.4328 -0.1051
loop_
_geom_bond_atom_site_label_1
_geom_bond_atom_site_label_2
_geom_bond_site_symmetry_1
_geom_bond_site_symmetry_2
Cu1 O1 1_555 1_555
O1 C29 1_555 1_555
O2 C29 1_555 1_555
O3 C30 1_555 1_555
O4 C30 1_555 1_555
O5 Cu1 1_555 1_555
H1 O5 1_555 1_555
H2 O5 1_555 1_555
N1 Cu1 1_555 1_555
N2 C1 1_555 1_555
N3 Cu1 1_555 1_555
N4 C12 1_555 1_555
C1 N1 1_555 1_555
H3 C1 1_555 1_555
C2 N1 1_555 1_555
C3 C2 1_555 1_555
H4 C3 1_555 1_555
C4 C3 1_555 1_555
H5 C4 1_555 1_555
C5 C4 1_555 1_555
H6 C5 1_555 1_555
C6 C5 1_555 1_555
H7 C6 1_555 1_555
C7 N2 1_555 1_555
C8 N2 1_555 1_555
H8 C8 1_555 1_555
H9 C8 1_555 1_555
C9 C8 1_555 1_555
H10 C9 1_555 1_555
H11 C9 1_555 1_555
C10 C9 1_555 1_555
H12 C10 1_555 1_555
H13 C10 1_555 1_555
C11 C10 1_555 1_555
H14 C11 1_555 1_555
H15 C11 1_555 1_555
H16 C11 1_555 1_555
C12 N3 1_555 1_555
H17 C12 1_555 1_555
C13 N3 1_555 1_555
C14 C13 1_555 1_555
H18 C14 1_555 1_555
C15 C14 1_555 1_555
H19 C15 1_555 1_555
C16 C15 1_555 1_555
H20 C16 1_555 1_555
C17 C16 1_555 1_555
H21 C17 1_555 1_555
C18 N4 1_555 1_555
C19 N4 1_555 1_555
H22 C19 1_555 1_555
H23 C19 1_555 1_555
C20 C19 1_555 1_555
H24 C20 1_555 1_555
H25 C20 1_555 1_555
C21 C20 1_555 1_555
H26 C21 1_555 1_555
H27 C21 1_555 1_555
C22 C21 1_555 1_555
H28 C22 1_555 1_555
H29 C22 1_555 1_555
H30 C22 1_555 1_555
C23 C24 1_555 1_555
C24 H31 1_555 1_555
C25 C24 1_555 1_555
H32 C25 1_555 1_555
C26 C25 1_555 1_555
C27 C26 1_555 1_555
H33 C27 1_555 1_555
C28 C23 1_555 1_555
H34 C28 1_555 1_555
C29 C23 1_555 1_555
C30 C26 1_555 1_555
O6 H35 1_555 1_555
O7 C31 1_555 1_555
C31 O6 1_555 1_555
C32 C31 1_555 1_555
C33 C32 1_555 1_555
H36 C33 1_555 1_555
C34 C33 1_555 1_555
H37 C34 1_555 1_555
Cu1A O4 1_555 1_555
O4A Cu1 1_555 1_555
O6B H35B 1_555 1_555
O7B C31B 1_555 1_555
C31B O6B 1_555 1_555
C32B C34 1_555 1_555
C33B C32B 1_555 1_555
H36B C33B 1_555 1_555
C34B C32 1_555 1_555
H37B C34B 1_555 1_555
C2 C7 1_555 1_555
C6 C7 1_555 1_555
C13 C18 1_555 1_555
C17 C18 1_555 1_555
C27 C28 1_555 1_555
C31B C32B 1_555 1_555
C33B C34B 1_555 1_555

#END
