
#######################################################################
#
#                 Cambridge Crystallographic Data Centre
#                                CCDC 
#
#######################################################################
#
# If this CIF has been generated from an entry in the Cambridge 
# Structural Database, then it will include bibliographic, chemical, 
# crystal, experimental, refinement or atomic coordinate data resulting 
# from the CCDC's data processing and validation procedures.
#
#######################################################################

data_ZESCAD
_symmetry_cell_setting           monoclinic
_symmetry_space_group_name_H-M   'P 21/c'
_symmetry_Int_Tables_number      14
_space_group_name_Hall           '-P 2ybc'
loop_
_symmetry_equiv_pos_site_id
_symmetry_equiv_pos_as_xyz
1 x,y,z
2 -x,1/2+y,1/2-z
3 -x,-y,-z
4 x,1/2-y,1/2+z
_cell_length_a                   9.5129(19)
_cell_length_b                   21.587(4)
_cell_length_c                   13.479(3)
_cell_angle_alpha                90
_cell_angle_beta                 91.71(3)
_cell_angle_gamma                90
_cell_volume                     2766.75
loop_
_atom_site_label
_atom_site_type_symbol
_atom_site_fract_x
_atom_site_fract_y
_atom_site_fract_z
C1 C 0.5552(2) 0.46507(10) 0.70573(14)
C2 C 0.7232(2) 0.56421(9) 0.79872(15)
C3 C 0.6525(2) 0.57244(9) 0.58857(15)
C4 C 0.47699(19) 0.15662(10) 0.77858(14)
C5 C 0.3176(2) 0.56009(9) 0.54640(15)
H1 H 0.3948 0.5558 0.5039
C6 C 0.1838(2) 0.56521(9) 0.50454(16)
H2 H 0.1694 0.5647 0.4345
C7 C 0.0711(2) 0.57108(10) 0.56635(16)
H3 H -0.0219 0.5749 0.5393
C8 C 0.0953(2) 0.57138(9) 0.66846(16)
H4 H 0.0190 0.5749 0.7120
C9 C 0.2321(2) 0.56642(8) 0.70610(15)
C10 C 0.2708(2) 0.56786(8) 0.81348(15)
C11 C 0.1759(2) 0.57777(9) 0.88791(15)
H5 H 0.0784 0.5819 0.8722
C12 C 0.2251(2) 0.58159(10) 0.98581(16)
H6 H 0.1616 0.5891 1.0375
C13 C 0.3670(2) 0.57432(9) 1.00737(16)
H7 H 0.4029 0.5771 1.0738
C14 C 0.4554(2) 0.56291(9) 0.93012(15)
H8 H 0.5526 0.5566 0.9449
C15 C 0.8248(2) 0.27960(9) 0.80058(15)
C16 C 0.9310(2) 0.27786(9) 0.87572(16)
H9 H 0.9163 0.2988 0.9366
C17 C 1.0552(2) 0.24666(10) 0.86319(17)
H10 H 1.1236 0.2458 0.9160
C18 C 1.0827(2) 0.21628(10) 0.77454(19)
H11 H 1.1678 0.1939 0.7671
C19 C 0.9841(2) 0.21943(10) 0.69826(18)
H12 H 1.0033 0.2000 0.6369
C20 C 0.8548(2) 0.25077(9) 0.70846(16)
C21 C 0.7617(2) 0.25482(9) 0.62338(16)
H13 H 0.7933 0.2371 0.5635
C22 C 0.5563(2) 0.28337(10) 0.52631(15)
H14 H 0.5901 0.2521 0.4789
H15 H 0.5652 0.3249 0.4960
C23 C 0.4047(2) 0.27071(10) 0.55058(14)
H16 H 0.3412 0.2844 0.4954
H17 H 0.3901 0.2258 0.5614
C24 C 0.2585(2) 0.33381(9) 0.65109(15)
H18 H 0.1929 0.3326 0.5965
C25 C 0.2185(2) 0.36703(9) 0.73799(15)
C26 C 0.0917(2) 0.40059(10) 0.73274(16)
H19 H 0.0398 0.4024 0.6715
C27 C 0.0411(2) 0.43085(9) 0.81388(17)
H20 H -0.0430 0.4545 0.8085
C28 C 0.1155(2) 0.42617(9) 0.90419(17)
H21 H 0.0805 0.4462 0.9611
C29 C 0.2392(2) 0.39284(9) 0.91232(16)
H22 H 0.2863 0.3893 0.9752
C30 C 0.2966(2) 0.36411(9) 0.82936(15)
Cr1 Cr 0.53925(3) 0.561080(13) 0.71437(2)
Mn1 Mn 0.53722(3) 0.309540(13) 0.73894(2)
N1 N 0.56622(18) 0.41217(8) 0.70085(12)
N2 N 0.82579(19) 0.56680(8) 0.84585(14)
N3 N 0.71971(19) 0.58151(9) 0.52083(14)
N4 N 0.49569(18) 0.20878(8) 0.77362(12)
N5 N 0.34248(17) 0.56093(7) 0.64504(12)
N6 N 0.40995(17) 0.56029(7) 0.83490(12)
N7 N 0.63931(17) 0.28018(7) 0.62050(12)
N8 N 0.37591(18) 0.30561(7) 0.64143(12)
O1 O 0.70623(14) 0.30880(6) 0.81806(10)
O2 O 0.41771(14) 0.33407(6) 0.84106(9)
C4A C 0.52301(19) 0.65662(10) 0.72142(14)
Cr1A Cr 0.46075(3) 0.061080(13) 0.78563(2)
loop_
_geom_bond_atom_site_label_1
_geom_bond_atom_site_label_2
_geom_bond_site_symmetry_1
_geom_bond_site_symmetry_2
C1 Cr1 1_555 1_555
C2 Cr1 1_555 1_555
C3 Cr1 1_555 1_555
C4 N4 1_555 1_555
C5 H1 1_555 1_555
C6 C5 1_555 1_555
H2 C6 1_555 1_555
C7 C6 1_555 1_555
H3 C7 1_555 1_555
C8 C7 1_555 1_555
H4 C8 1_555 1_555
C9 C8 1_555 1_555
C10 C9 1_555 1_555
C11 C10 1_555 1_555
H5 C11 1_555 1_555
C12 C11 1_555 1_555
H6 C12 1_555 1_555
C13 C12 1_555 1_555
H7 C13 1_555 1_555
C14 C13 1_555 1_555
H8 C14 1_555 1_555
C15 C16 1_555 1_555
C16 H9 1_555 1_555
C17 C16 1_555 1_555
H10 C17 1_555 1_555
C18 C17 1_555 1_555
H11 C18 1_555 1_555
C19 C18 1_555 1_555
H12 C19 1_555 1_555
C20 C15 1_555 1_555
C21 C20 1_555 1_555
H13 C21 1_555 1_555
C22 H14 1_555 1_555
H15 C22 1_555 1_555
C23 C22 1_555 1_555
H16 C23 1_555 1_555
H17 C23 1_555 1_555
C24 H18 1_555 1_555
C25 C24 1_555 1_555
C26 C25 1_555 1_555
H19 C26 1_555 1_555
C27 C26 1_555 1_555
H20 C27 1_555 1_555
C28 C27 1_555 1_555
H21 C28 1_555 1_555
C29 C28 1_555 1_555
H22 C29 1_555 1_555
C30 C25 1_555 1_555
Cr1 N5 1_555 1_555
Mn1 N1 1_555 1_555
N1 C1 1_555 1_555
N2 C2 1_555 1_555
N3 C3 1_555 1_555
N4 Mn1 1_555 1_555
N5 C5 1_555 1_555
N6 C10 1_555 1_555
N7 C21 1_555 1_555
N8 C23 1_555 1_555
O1 C15 1_555 1_555
O2 C30 1_555 1_555
C4A Cr1 1_555 1_555
Cr1A C4 1_555 1_555
C9 N5 1_555 1_555
C14 N6 1_555 1_555
C19 C20 1_555 1_555
C22 N7 1_555 1_555
C24 N8 1_555 1_555
C29 C30 1_555 1_555
Cr1 N6 1_555 1_555
Mn1 N7 1_555 1_555
Mn1 N8 1_555 1_555
Mn1 O1 1_555 1_555
Mn1 O2 1_555 1_555

#END
