
#######################################################################
#
#                 Cambridge Crystallographic Data Centre
#                                CCDC 
#
#######################################################################
#
# If this CIF has been generated from an entry in the Cambridge 
# Structural Database, then it will include bibliographic, chemical, 
# crystal, experimental, refinement or atomic coordinate data resulting 
# from the CCDC's data processing and validation procedures.
#
#######################################################################

data_ZESFEK
_symmetry_cell_setting           monoclinic
_symmetry_space_group_name_H-M   'P 2/c'
_symmetry_Int_Tables_number      13
_space_group_name_Hall           '-P 2yc'
loop_
_symmetry_equiv_pos_site_id
_symmetry_equiv_pos_as_xyz
1 x,y,z
2 -x,y,1/2-z
3 -x,-y,-z
4 x,-y,1/2+z
_cell_length_a                   20.722(5)
_cell_length_b                   16.844(5)
_cell_length_c                   23.235(4)
_cell_angle_alpha                90
_cell_angle_beta                 120.391(15)
_cell_angle_gamma                90
_cell_volume                     6995.61
loop_
_atom_site_label
_atom_site_type_symbol
_atom_site_fract_x
_atom_site_fract_y
_atom_site_fract_z
C1 C 0.692(4) -0.508(5) 0.212(3)
H1 H 0.7435 -0.5139 0.2305
C2 C 0.654(2) -0.446(3) 0.181(2)
H2 H 0.6723 -0.3984 0.1751
C3 C 0.390(4) -0.602(3) 0.148(2)
H3 H 0.3399 -0.5980 0.1352
C4 C 0.576(3) -0.529(3) 0.180(2)
C5 C 0.511(3) -0.573(2) 0.1702(17)
C6 C 0.3528(19) -0.499(2) -0.0172(17)
C7 C 0.401(2) -0.621(2) -0.007(2)
H4 H 0.4349 -0.6618 0.0014
C8 C 0.326(2) -0.631(2) -0.025(2)
H5 H 0.2990 -0.6777 -0.0356
C9 C 0.2931(18) -0.303(2) -0.0264(16)
H6 H 0.2573 -0.2625 -0.0427
C10 C 0.3634(17) -0.2968(19) 0.0240(15)
H7 H 0.3854 -0.2502 0.0471
C11 C 0.3461(17) -0.4186(19) -0.0093(15)
C12 C 0.435(4) -0.666(5) 0.157(4)
H8 H 0.4184 -0.7171 0.1567
C13 C 0.373(4) -0.239(4) 0.236(3)
H9 H 0.3387 -0.2101 0.2424
C14 C 0.464(2) -0.277(2) 0.2431(19)
C15 C 0.352(3) -0.307(4) 0.206(2)
H10 H 0.3045 -0.3285 0.1840
N1 N 0.645(3) -0.567(5) 0.215(3)
H11 H 0.6553 -0.6134 0.2322
N2 N 0.414(2) -0.340(2) 0.2130(19)
N3 N 0.449(2) -0.5403(18) 0.1664(17)
N4 N 0.5774(17) -0.463(2) 0.1587(15)
N5 N 0.3018(16) -0.5574(18) -0.0250(14)
H12 H 0.2590 -0.5474 -0.0291
N6 N 0.4140(16) -0.5420(19) -0.0052(18)
N7 N 0.2843(13) -0.3754(17) -0.0483(12)
H13 H 0.2447 -0.3933 -0.0827
N8 N 0.3997(13) -0.3706(15) 0.0376(14)
N9 N 0.501(4) -0.655(3) 0.165(2)
H14 H 0.5319 -0.6898 0.1662
N10 N 0.431(3) -0.215(3) 0.254(2)
H15 H 0.4487 -0.1687 0.2713
Cu1 Cu 0.4315(3) -0.4351(3) 0.1816(3)
Cu2 Cu 0.4939(2) -0.4004(3) 0.1005(2)
Cu3 Cu 0.5000 -0.5000 0.0000
C13A C 0.627(4) -0.239(4) 0.264(3)
H9A H 0.6613 -0.2101 0.2576
C14A C 0.536(2) -0.277(2) 0.2569(19)
C15A C 0.648(3) -0.307(4) 0.294(2)
H10A H 0.6955 -0.3285 0.3160
N2A N 0.586(2) -0.340(2) 0.2870(19)
N10A N 0.569(3) -0.215(3) 0.246(2)
H15A H 0.5513 -0.1687 0.2287
C1A C 0.308(4) -0.508(5) 0.288(3)
H1A H 0.2565 -0.5139 0.2695
C2A C 0.346(2) -0.446(3) 0.319(2)
H2A H 0.3277 -0.3984 0.3249
C3A C 0.610(4) -0.602(3) 0.352(2)
H3A H 0.6601 -0.5980 0.3648
C4A C 0.424(3) -0.529(3) 0.320(2)
C5A C 0.489(3) -0.573(2) 0.3298(17)
C6A C 0.6472(19) -0.499(2) 0.5172(17)
C7A C 0.599(2) -0.621(2) 0.507(2)
H4A H 0.5651 -0.6618 0.4986
C8A C 0.674(2) -0.631(2) 0.525(2)
H5A H 0.7010 -0.6777 0.5356
C9A C 0.7069(18) -0.303(2) 0.5264(16)
H6A H 0.7427 -0.2625 0.5427
C10A C 0.6366(17) -0.2968(19) 0.4760(15)
H7A H 0.6146 -0.2502 0.4529
C11A C 0.6539(17) -0.4186(19) 0.5093(15)
C12A C 0.565(4) -0.666(5) 0.343(4)
H8A H 0.5816 -0.7171 0.3433
N1A N 0.355(3) -0.567(5) 0.285(3)
H11A H 0.3447 -0.6134 0.2678
N3A N 0.551(2) -0.5403(18) 0.3336(17)
N4A N 0.4226(17) -0.463(2) 0.3413(15)
N5A N 0.6982(16) -0.5574(18) 0.5250(14)
H12A H 0.7410 -0.5474 0.5291
N6A N 0.5860(16) -0.5420(19) 0.5052(18)
N7A N 0.7157(13) -0.3754(17) 0.5483(12)
H13A H 0.7553 -0.3933 0.5827
N8A N 0.6003(13) -0.3706(15) 0.4624(14)
N9A N 0.499(4) -0.655(3) 0.335(2)
H14A H 0.4681 -0.6898 0.3338
Cu1A Cu 0.5685(3) -0.4351(3) 0.3184(3)
Cu2A Cu 0.5061(2) -0.4004(3) 0.3995(2)
N6B N 0.5860(16) -0.4580(19) 0.0052(18)
Cu3A Cu 0.5000 -0.5000 0.5000
Cu4 Cu 1.0000 0.0000 0.0000
C16 C 0.846(4) -0.161(3) -0.029(3)
H16 H 0.8264 -0.2125 -0.0347
C17 C 1.174(3) 0.083(3) 0.207(2)
H17 H 1.2234 0.1002 0.2309
C18 C 0.918(4) -0.143(3) -0.005(3)
H18 H 0.9592 -0.1768 0.0110
C19 C 0.849(2) -0.031(2) -0.035(2)
C20 C 0.752(2) 0.150(3) -0.083(2)
H19 H 0.7105 0.1820 -0.1102
C21 C 0.959(3) -0.158(2) 0.155(2)
H20 H 0.9463 -0.2115 0.1475
C22 C 0.917(2) -0.099(2) 0.1569(19)
H21 H 0.8709 -0.1053 0.1535
C23 C 0.8243(19) 0.051(2) -0.0399(19)
C24 C 1.116(2) 0.121(2) 0.1636(19)
H22 H 1.1189 0.1704 0.1467
C25 C 0.8148(19) 0.174(2) -0.0281(17)
H23 H 0.8249 0.2247 -0.0105
C26 C 0.851(2) 0.280(2) 0.2124(19)
H24 H 0.8138 0.3135 0.2087
C27 C 1.015(2) -0.0461(19) 0.1683(17)
C28 C 1.0714(18) 0.0154(18) 0.1737(15)
C29 C 0.842(2) 0.203(2) 0.1898(17)
H25 H 0.7966 0.1761 0.1677
C30 C 0.9610(19) 0.228(2) 0.2387(18)
N11 N 0.808(3) -0.097(3) -0.041(2)
H26 H 0.7615 -0.0957 -0.0518
N12 N 0.758(2) 0.073(2) -0.0924(18)
H27 H 0.7269 0.0442 -0.1250
N13 N 0.915(2) -0.061(2) -0.0121(19)
N14 N 0.8602(13) 0.1114(15) -0.0031(13)
N15 N 1.1467(14) 0.008(2) 0.2111(16)
H28 H 1.1719 -0.0333 0.2323
N16 N 1.0247(19) -0.124(2) 0.1668(16)
H29 H 1.0640 -0.1476 0.1720
N17 N 1.0491(14) 0.0843(16) 0.1444(13)
N18 N 0.9536(15) -0.0270(18) 0.1647(13)
N19 N 0.9253(17) 0.2971(19) 0.2414(15)
H30 H 0.9461 0.3419 0.2582
N20 N 0.9117(13) 0.1739(15) 0.2058(12)
Cu5 Cu 0.9555(2) 0.1082(3) 0.0756(2)
Cu6 Cu 0.9260(2) 0.0735(2) 0.1787(2)
C26A C 1.149(2) 0.280(2) 0.2876(19)
H24A H 1.1862 0.3135 0.2913
C29A C 1.158(2) 0.203(2) 0.3102(17)
H25A H 1.2034 0.1761 0.3323
C30A C 1.0390(19) 0.228(2) 0.2613(18)
N19A N 1.0747(17) 0.2971(19) 0.2586(15)
H30A H 1.0539 0.3419 0.2418
N20A N 1.0883(13) 0.1739(15) 0.2942(12)
C16A C 1.154(4) -0.161(3) 0.529(3)
H16A H 1.1736 -0.2125 0.5347
C17A C 0.826(3) 0.083(3) 0.293(2)
H17A H 0.7766 0.1002 0.2691
C18A C 1.082(4) -0.143(3) 0.505(3)
H18A H 1.0408 -0.1768 0.4890
C19A C 1.151(2) -0.031(2) 0.535(2)
C20A C 1.248(2) 0.150(3) 0.583(2)
H19A H 1.2895 0.1820 0.6102
C21A C 1.041(3) -0.158(2) 0.345(2)
H20A H 1.0537 -0.2115 0.3525
C22A C 1.083(2) -0.099(2) 0.3431(19)
H21A H 1.1291 -0.1053 0.3465
C23A C 1.1757(19) 0.051(2) 0.5399(19)
C24A C 0.884(2) 0.121(2) 0.3364(19)
H22A H 0.8811 0.1704 0.3533
C25A C 1.1852(19) 0.174(2) 0.5281(17)
H23A H 1.1751 0.2247 0.5105
C27A C 0.985(2) -0.0461(19) 0.3317(17)
C28A C 0.9286(18) 0.0154(18) 0.3263(15)
N11A N 1.192(3) -0.097(3) 0.541(2)
H26A H 1.2385 -0.0957 0.5518
N12A N 1.242(2) 0.073(2) 0.5924(18)
H27A H 1.2731 0.0442 0.6250
N13A N 1.085(2) -0.061(2) 0.5121(19)
N14A N 1.1398(13) 0.1114(15) 0.5031(13)
N15A N 0.8533(14) 0.008(2) 0.2889(16)
H28A H 0.8281 -0.0333 0.2677
N16A N 0.9753(19) -0.124(2) 0.3332(16)
H29A H 0.9360 -0.1476 0.3280
N17A N 0.9509(14) 0.0843(16) 0.3556(13)
N18A N 1.0464(15) -0.0270(18) 0.3353(13)
Cu5A Cu 1.0445(2) 0.1082(3) 0.4244(2)
Cu6A Cu 1.0740(2) 0.0735(2) 0.3213(2)
Cu4A Cu 1.0000 0.0000 0.5000
N13B N 1.085(2) 0.061(2) 0.0121(19)
P2 P 1.0000 0.5000 0.0000
W7 W 1.15362(7) 0.38505(8) 0.12112(6)
W8 W 1.04780(7) 0.50498(8) 0.16870(6)
W9 W 1.10564(7) 0.38127(8) -0.04871(7)
W10 W 0.81375(7) 0.44420(10) -0.05033(6)
W11 W 0.91973(7) 0.32440(8) -0.09782(7)
W12 W 0.96754(7) 0.33107(9) 0.07155(7)
O23 O 1.200(2) 0.4779(19) 0.1109(13)
O24 O 1.1683(19) 0.4734(18) -0.0140(13)
O25 O 1.0688(15) 0.508(3) 0.2481(11)
O26 O 1.0483(18) 0.5744(18) 0.010(2)
O27 O 1.0036(17) 0.5448(19) 0.0573(15)
O28 O 1.1448(19) 0.3477(18) 0.0401(11)
O29 O 0.8330(15) 0.370(3) -0.1016(11)
O30 O 0.9499(14) 0.291(2) -0.0105(12)
O31 O 0.8695(17) 0.378(2) 0.0246(15)
O32 O 1.0917(15) 0.5992(16) 0.1625(13)
O33 O 1.2268(13) 0.3326(16) 0.1797(13)
O34 O 0.9521(14) 0.2489(15) 0.1043(12)
O35 O 0.8828(12) 0.2421(13) -0.1434(12)
O36 O 1.1563(13) 0.3266(13) -0.0726(12)
O37 O 0.9527(14) 0.5595(16) 0.1241(12)
O38 O 1.0230(12) 0.3162(14) -0.0739(14)
O39 O 1.1267(14) 0.4543(14) 0.1699(14)
O40 O 0.9921(12) 0.4092(13) 0.1390(13)
O41 O 1.0700(13) 0.3166(14) 0.0995(11)
O42 O 0.7249(11) 0.4208(12) -0.0763(9)
O43 O 1.082(2) 0.465(2) 0.0214(19)
O44 O 1.029(2) 0.457(2) 0.0631(17)
O26B O 0.9517(18) 0.4256(18) -0.010(2)
O27B O 0.9964(17) 0.4552(19) -0.0573(15)
O43B O 0.918(2) 0.535(2) -0.0214(19)
O44B O 0.971(2) 0.543(2) -0.0631(17)
W7B W 0.84638(7) 0.61495(8) -0.12112(6)
W8B W 0.95220(7) 0.49502(8) -0.16870(6)
W9B W 0.89436(7) 0.61873(8) 0.04871(7)
W10B W 1.18625(7) 0.55580(10) 0.05033(6)
W11B W 1.08027(7) 0.67560(8) 0.09782(7)
W12B W 1.03246(7) 0.66893(9) -0.07155(7)
O23B O 0.800(2) 0.5221(19) -0.1109(13)
O24B O 0.8317(19) 0.5266(18) 0.0140(13)
O25B O 0.9312(15) 0.492(3) -0.2481(11)
O28B O 0.8552(19) 0.6523(18) -0.0401(11)
O29B O 1.1670(15) 0.630(3) 0.1016(11)
O30B O 1.0501(14) 0.709(2) 0.0105(12)
O31B O 1.1305(17) 0.622(2) -0.0246(15)
O32B O 0.9083(15) 0.4008(16) -0.1625(13)
O33B O 0.7732(13) 0.6674(16) -0.1797(13)
O34B O 1.0479(14) 0.7511(15) -0.1043(12)
O35B O 1.1172(12) 0.7579(13) 0.1434(12)
O36B O 0.8437(13) 0.6734(13) 0.0726(12)
O37B O 1.0473(14) 0.4405(16) -0.1241(12)
O38B O 0.9770(12) 0.6838(14) 0.0739(14)
O39B O 0.8733(14) 0.5457(14) -0.1699(14)
O40B O 1.0079(12) 0.5908(13) -0.1390(13)
O41B O 0.9300(13) 0.6834(14) -0.0995(11)
O42B O 1.2751(11) 0.5792(12) 0.0763(9)
O45 O -0.2039(14) -0.860(2) -0.2819(18)
O46 O -0.161(3) -0.698(3) -0.295(2)
O47 O 0.1548(18) -0.448(2) -0.1308(15)
O48 O 0.379(5) -0.258(6) -0.269(4)
O49 O 0.333(3) -0.081(5) -0.340(4)
W1 W 0.54552(8) -0.19054(8) 0.07534(8)
P1 P 0.5000 0.0000 0.0000
O1 O 0.5617(12) -0.2793(14) 0.1097(10)
W2 W 0.61045(8) -0.13348(8) -0.03310(7)
O2 O 0.6204(17) 0.2526(14) 0.1449(14)
W3 W 0.62685(7) -0.01822(8) 0.17434(6)
O3 O 0.6926(12) -0.0042(14) 0.1404(11)
W4 W 0.56557(8) 0.05762(8) -0.10832(7)
O4 O 0.6867(13) -0.0266(17) 0.2567(12)
W5 W 0.69360(6) 0.03873(8) 0.06545(6)
O5 O 0.6633(12) -0.1947(13) -0.0485(11)
W6 W 0.58305(7) 0.17264(7) 0.09828(6)
O6 O 0.567(2) -0.002(2) -0.0132(18)
O7 O 0.6603(13) 0.1332(15) 0.0868(14)
O8 O 0.653(2) 0.0750(15) -0.0212(13)
O9 O 0.6164(14) -0.1268(16) 0.1424(12)
O10 O 0.522(2) -0.044(2) 0.0648(18)
O11 O 0.5931(13) 0.0840(16) -0.1618(11)
O12 O 0.4663(13) -0.212(2) -0.0116(13)
O13 O 0.5137(13) -0.169(2) -0.0885(13)
O14 O 0.4693(15) -0.1588(13) 0.0889(19)
O15 O 0.6081(13) -0.186(2) 0.0383(14)
O16 O 0.567(2) 0.038(2) 0.0583(18)
O17 O 0.7853(12) 0.0561(14) 0.0974(14)
O18 O 0.5067(18) -0.086(2) -0.0146(16)
O19 O 0.592(2) -0.0527(16) -0.0956(15)
O20 O 0.685(2) -0.0622(15) 0.0304(12)
O21 O 0.6132(15) 0.0920(13) 0.1649(14)
O22 O 0.5329(13) -0.0155(17) 0.1664(14)
O6B O 0.433(2) 0.002(2) 0.0132(18)
O10B O 0.478(2) 0.044(2) -0.0648(18)
O16B O 0.433(2) -0.038(2) -0.0583(18)
O18B O 0.4933(18) 0.086(2) 0.0146(16)
W1B W 0.45448(8) 0.19054(8) -0.07534(8)
O1B O 0.4383(12) 0.2793(14) -0.1097(10)
W2B W 0.38955(8) 0.13348(8) 0.03310(7)
O2B O 0.3796(17) -0.2526(14) -0.1449(14)
W3B W 0.37315(7) 0.01822(8) -0.17434(6)
O3B O 0.3074(12) 0.0042(14) -0.1404(11)
W4B W 0.43443(8) -0.05762(8) 0.10832(7)
O4B O 0.3133(13) 0.0266(17) -0.2567(12)
W5B W 0.30640(6) -0.03873(8) -0.06545(6)
O5B O 0.3367(12) 0.1947(13) 0.0485(11)
W6B W 0.41695(7) -0.17264(7) -0.09828(6)
O7B O 0.3397(13) -0.1332(15) -0.0868(14)
O8B O 0.347(2) -0.0750(15) 0.0212(13)
O9B O 0.3836(14) 0.1268(16) -0.1424(12)
O11B O 0.4069(13) -0.0840(16) 0.1618(11)
O12B O 0.5337(13) 0.212(2) 0.0116(13)
O13B O 0.4863(13) 0.169(2) 0.0885(13)
O14B O 0.5307(15) 0.1588(13) -0.0889(19)
O15B O 0.3919(13) 0.186(2) -0.0383(14)
O17B O 0.2147(12) -0.0561(14) -0.0974(14)
O19B O 0.408(2) 0.0527(16) 0.0956(15)
O20B O 0.315(2) 0.0622(15) -0.0304(12)
O21B O 0.3868(15) -0.0920(13) -0.1649(14)
O22B O 0.4671(13) 0.0155(17) -0.1664(14)
O50? O 0.472(4) -0.127(5) -0.260(5)
loop_
_geom_bond_atom_site_label_1
_geom_bond_atom_site_label_2
_geom_bond_site_symmetry_1
_geom_bond_site_symmetry_2
W1 O1 1_555 1_555
P1 O6 1_555 1_555
W2 O5 1_555 1_555
O2 W6 1_555 1_555
W3 O3 1_555 1_555
O3 W5 1_555 1_555
W4 O6 1_555 1_555
O4 W3 1_555 1_555
W5 O6 1_555 1_555
W6 O7 1_555 1_555
O6 O16 1_555 1_555
O7 W5 1_555 1_555
O8 W4 1_555 1_555
O9 W1 1_555 1_555
O10 P1 1_555 1_555
O11 W4 1_555 1_555
O12 W1 1_555 1_555
O13 W2 1_555 1_555
O14 W1 1_555 1_555
O15 W1 1_555 1_555
O16 P1 1_555 1_555
O17 W5 1_555 1_555
O18 P1 1_555 1_555
O19 W2 1_555 1_555
O20 W2 1_555 1_555
O21 W3 1_555 1_555
O22 W3 1_555 1_555
C1 H1 1_555 1_555
C2 C1 1_555 1_555
H2 C2 1_555 1_555
C3 H3 1_555 1_555
C4 C5 1_555 1_555
C5 N3 1_555 1_555
C6 C11 1_555 1_555
C7 H4 1_555 1_555
C8 C7 1_555 1_555
H5 C8 1_555 1_555
C9 H6 1_555 1_555
C10 C9 1_555 1_555
H7 C10 1_555 1_555
C11 N7 1_555 1_555
C12 C3 1_555 1_555
H8 C12 1_555 1_555
C13 H9 1_555 1_555
C14 N2 1_555 1_555
C15 C13 1_555 1_555
H10 C15 1_555 1_555
N1 C1 1_555 1_555
H11 N1 1_555 1_555
N2 C15 1_555 1_555
N3 C3 1_555 1_555
N4 C2 1_555 1_555
N5 C6 1_555 1_555
H12 N5 1_555 1_555
N6 C6 1_555 1_555
N7 C9 1_555 1_555
H13 N7 1_555 1_555
N8 C10 1_555 1_555
N9 C5 1_555 1_555
H14 N9 1_555 1_555
N10 C13 1_555 1_555
H15 N10 1_555 1_555
Cu1 N2 1_555 1_555
Cu2 N4 1_555 1_555
Cu3 N6 1_555 1_555
Cu4 N13 1_555 1_555
C16 H16 1_555 1_555
C17 H17 1_555 1_555
C18 C16 1_555 1_555
H18 C18 1_555 1_555
C19 C23 1_555 1_555
C20 H19 1_555 1_555
C21 H20 1_555 1_555
C22 C21 1_555 1_555
H21 C22 1_555 1_555
C23 N12 1_555 1_555
C24 C17 1_555 1_555
H22 C24 1_555 1_555
C25 C20 1_555 1_555
H23 C25 1_555 1_555
C26 H24 1_555 1_555
C27 C28 1_555 1_555
C28 N15 1_555 1_555
C29 C26 1_555 1_555
H25 C29 1_555 1_555
C30 N19 1_555 1_555
N11 C16 1_555 1_555
H26 N11 1_555 1_555
N12 C20 1_555 1_555
H27 N12 1_555 1_555
N13 C18 1_555 1_555
N14 C23 1_555 1_555
N15 C17 1_555 1_555
H28 N15 1_555 1_555
N16 C21 1_555 1_555
H29 N16 1_555 1_555
N17 C24 1_555 1_555
N18 C22 1_555 1_555
N19 C26 1_555 1_555
H30 N19 1_555 1_555
N20 C29 1_555 1_555
Cu5 N14 1_555 1_555
Cu6 N18 1_555 1_555
P2 O26 1_555 1_555
W7 O23 1_555 1_555
W8 O25 1_555 1_555
W9 O24 1_555 1_555
W10 O29 1_555 1_555
W11 O29 1_555 1_555
W12 O30 1_555 1_555
O23 W10B 1_555 1_555
O24 W10B 1_555 1_555
O26 O44B 1_555 1_555
O27 P2 1_555 1_555
O28 W7 1_555 1_555
O30 W11 1_555 1_555
O31 W10 1_555 1_555
O32 W8 1_555 1_555
O33 W7 1_555 1_555
O34 W12 1_555 1_555
O35 W11 1_555 1_555
O36 W9 1_555 1_555
O37 W8 1_555 1_555
O38 W9 1_555 1_555
O39 W7 1_555 1_555
O40 W8 1_555 1_555
O41 W7 1_555 1_555
O42 W10 1_555 1_555
O43 P2 1_555 1_555
O44 P2 1_555 1_555
O6B P1 1_555 1_555
O10B P1 1_555 1_555
O16B P1 1_555 1_555
O18B P1 1_555 1_555
W1B O1B 1_555 1_555
W2B O5B 1_555 1_555
O2B W6B 1_555 1_555
W3B O10B 1_555 1_555
O3B W3B 1_555 1_555
W4B O10 1_555 1_555
O4B W3B 1_555 1_555
W5B O6B 1_555 1_555
W6B O12 1_555 1_555
O7B W5B 1_555 1_555
O8B W4B 1_555 1_555
O9B W1B 1_555 1_555
O11B W4B 1_555 1_555
O12B W6 1_555 1_555
O13B W6 1_555 1_555
O14B W4 1_555 1_555
O15B W1B 1_555 1_555
O17B W5B 1_555 1_555
O19B W2B 1_555 1_555
O20B W2B 1_555 1_555
O21B W3B 1_555 1_555
O22B W4 1_555 1_555
C13A H9A 1_555 1_555
C14A C14 1_555 1_555
C15A C13A 1_555 1_555
H10A C15A 1_555 1_555
N2A C14A 1_555 1_555
N10A C13A 1_555 1_555
H15A N10A 1_555 1_555
C1A H1A 1_555 1_555
C2A C1A 1_555 1_555
H2A C2A 1_555 1_555
C3A H3A 1_555 1_555
C4A C5A 1_555 1_555
C5A N3A 1_555 1_555
C6A C11A 1_555 1_555
C7A H4A 1_555 1_555
C8A C7A 1_555 1_555
H5A C8A 1_555 1_555
C9A H6A 1_555 1_555
C10A C9A 1_555 1_555
H7A C10A 1_555 1_555
C11A N7A 1_555 1_555
C12A C3A 1_555 1_555
H8A C12A 1_555 1_555
N1A C1A 1_555 1_555
H11A N1A 1_555 1_555
N3A C3A 1_555 1_555
N4A C2A 1_555 1_555
N5A C6A 1_555 1_555
H12A N5A 1_555 1_555
N6A C6A 1_555 1_555
N7A C9A 1_555 1_555
H13A N7A 1_555 1_555
N8A C10A 1_555 1_555
N9A C5A 1_555 1_555
H14A N9A 1_555 1_555
Cu1A N2A 1_555 1_555
Cu2A N4A 1_555 1_555
N6B Cu3 1_555 1_555
Cu3A N6A 1_555 1_555
C26A H24A 1_555 1_555
C29A C26A 1_555 1_555
H25A C29A 1_555 1_555
C30A C30 1_555 1_555
N19A C26A 1_555 1_555
H30A N19A 1_555 1_555
N20A C29A 1_555 1_555
C16A H16A 1_555 1_555
C17A H17A 1_555 1_555
C18A C16A 1_555 1_555
H18A C18A 1_555 1_555
C19A C23A 1_555 1_555
C20A H19A 1_555 1_555
C21A H20A 1_555 1_555
C22A C21A 1_555 1_555
H21A C22A 1_555 1_555
C23A N12A 1_555 1_555
C24A C17A 1_555 1_555
H22A C24A 1_555 1_555
C25A C20A 1_555 1_555
H23A C25A 1_555 1_555
C27A C28A 1_555 1_555
C28A N15A 1_555 1_555
N11A C16A 1_555 1_555
H26A N11A 1_555 1_555
N12A C20A 1_555 1_555
H27A N12A 1_555 1_555
N13A C18A 1_555 1_555
N14A C23A 1_555 1_555
N15A C17A 1_555 1_555
H28A N15A 1_555 1_555
N16A C21A 1_555 1_555
H29A N16A 1_555 1_555
N17A C24A 1_555 1_555
N18A C22A 1_555 1_555
Cu5A N14A 1_555 1_555
Cu6A N20A 1_555 1_555
Cu4A N13A 1_555 1_555
N13B Cu4 1_555 1_555
O26B P2 1_555 1_555
O27B P2 1_555 1_555
O43B P2 1_555 1_555
O44B P2 1_555 1_555
W7B O43B 1_555 1_555
W8B O27B 1_555 1_555
W9B O37 1_555 1_555
W10B O43 1_555 1_555
W11B O26 1_555 1_555
W12B O26 1_555 1_555
O23B W10 1_555 1_555
O24B W10 1_555 1_555
O25B W8B 1_555 1_555
O28B W7B 1_555 1_555
O29B W10B 1_555 1_555
O30B W11B 1_555 1_555
O31B W10B 1_555 1_555
O32B W11 1_555 1_555
O33B W7B 1_555 1_555
O34B W12B 1_555 1_555
O35B W11B 1_555 1_555
O36B W9B 1_555 1_555
O37B W9 1_555 1_555
O38B W9B 1_555 1_555
O39B W7B 1_555 1_555
O40B W8B 1_555 1_555
O41B W7B 1_555 1_555
O42B W10B 1_555 1_555
W2 O15 1_555 1_555
W3 O9 1_555 1_555
W3 O10 1_555 1_555
W4 O19 1_555 1_555
W4 O10B 1_555 1_555
W5 O8 1_555 1_555
W5 O20 1_555 1_555
W6 O16 1_555 1_555
W6 O21 1_555 1_555
W6 O18B 1_555 1_555
O6 O10B 1_555 1_555
O10 O16 1_555 1_555
O10 O6B 1_555 1_555
O13 W6B 1_555 1_555
O14 W4B 1_555 1_555
O16 O18B 1_555 1_555
O18 O16B 1_555 1_555
O18 W6B 1_555 1_555
O22 W4B 1_555 1_555
C4 N1 1_555 1_555
C4 N4 1_555 1_555
C7 N6 1_555 1_555
C8 N5 1_555 1_555
C11 N8 1_555 1_555
C12 N9 1_555 1_555
C14 N10 1_555 1_555
N3 Cu1 1_555 1_555
N8 Cu2 1_555 1_555
C19 N11 1_555 1_555
C19 N13 1_555 1_555
C25 N14 1_555 1_555
C27 N16 1_555 1_555
C27 N18 1_555 1_555
C28 N17 1_555 1_555
C30 N20 1_555 1_555
N17 Cu5 1_555 1_555
N20 Cu6 1_555 1_555
W7 O43 1_555 1_555
W8 O27 1_555 1_555
W8 O39 1_555 1_555
W8 O44 1_555 1_555
W9 O28 1_555 1_555
W9 O43 1_555 1_555
W10 O43B 1_555 1_555
W11 O38 1_555 1_555
W11 O26B 1_555 1_555
W12 O31 1_555 1_555
W12 O40 1_555 1_555
W12 O41 1_555 1_555
W12 O26B 1_555 1_555
O27 O44 1_555 1_555
O27 O43B 1_555 1_555
O32 W11B 1_555 1_555
O43 O44 1_555 1_555
O43 O27B 1_555 1_555
O44 O26B 1_555 1_555
O6B O16B 1_555 1_555
O6B W4B 1_555 1_555
O10B O16B 1_555 1_555
O16B W6B 1_555 1_555
W1B O12B 1_555 1_555
W1B O14B 1_555 1_555
W2B O13B 1_555 1_555
W2B O15B 1_555 1_555
W3B O9B 1_555 1_555
W3B O22B 1_555 1_555
O3B W5B 1_555 1_555
W4B O19B 1_555 1_555
W5B O8B 1_555 1_555
W5B O20B 1_555 1_555
W6B O7B 1_555 1_555
W6B O21B 1_555 1_555
C14A N10A 1_555 1_555
C15A N2A 1_555 1_555
C4A N1A 1_555 1_555
C4A N4A 1_555 1_555
C7A N6A 1_555 1_555
C8A N5A 1_555 1_555
C11A N8A 1_555 1_555
C12A N9A 1_555 1_555
N3A Cu1A 1_555 1_555
N8A Cu2A 1_555 1_555
C30A N19A 1_555 1_555
C30A N20A 1_555 1_555
C19A N11A 1_555 1_555
C19A N13A 1_555 1_555
C25A N14A 1_555 1_555
C27A N16A 1_555 1_555
C27A N18A 1_555 1_555
C28A N17A 1_555 1_555
N17A Cu5A 1_555 1_555
N18A Cu6A 1_555 1_555
O27B O44B 1_555 1_555
O43B O44B 1_555 1_555
O43B W9B 1_555 1_555
O44B W8B 1_555 1_555
W7B O23B 1_555 1_555
W8B O32B 1_555 1_555
W8B O37B 1_555 1_555
W8B O39B 1_555 1_555
W9B O24B 1_555 1_555
W9B O28B 1_555 1_555
W11B O29B 1_555 1_555
W11B O38B 1_555 1_555
W12B O30B 1_555 1_555
W12B O31B 1_555 1_555
W12B O40B 1_555 1_555
W12B O41B 1_555 1_555

#END
