
#######################################################################
#
#                 Cambridge Crystallographic Data Centre
#                                CCDC 
#
#######################################################################
#
# If this CIF has been generated from an entry in the Cambridge 
# Structural Database, then it will include bibliographic, chemical, 
# crystal, experimental, refinement or atomic coordinate data resulting 
# from the CCDC's data processing and validation procedures.
#
#######################################################################

data_ZESKAL
_symmetry_cell_setting           triclinic
_symmetry_space_group_name_H-M   'P -1'
_symmetry_Int_Tables_number      2
_space_group_name_Hall           '-P 1'
loop_
_symmetry_equiv_pos_site_id
_symmetry_equiv_pos_as_xyz
1 x,y,z
2 -x,-y,-z
_cell_length_a                   7.473(4)
_cell_length_b                   9.417(5)
_cell_length_c                   9.653(5)
_cell_angle_alpha                118.059(6)
_cell_angle_beta                 93.201(6)
_cell_angle_gamma                99.099(7)
_cell_volume                     585.278
loop_
_atom_site_label
_atom_site_type_symbol
_atom_site_fract_x
_atom_site_fract_y
_atom_site_fract_z
Eu1 Eu 0.1226 0.3400 0.3173
O1 O -0.0397 0.4693 0.7749
O2 O 0.6243 0.4188 0.5694
O3 O 0.3472 0.2677 0.4380
O4 O 0.1158 0.0395 0.1808
O5 O 0.0734 -0.1822 -0.0599
O6 O -0.1514(19) 0.2007(17) 0.3794(17)
H1 H -0.0612 0.1728 0.3294
H2 H -0.2380 0.1832 0.3092
N1 N 0.3225(16) 0.2772(15) 1.0996(15)
N2 N 0.5823(18) 0.2279(17) 0.9994(16)
H3 H 0.6865 0.1993 0.9870
C1 C 0.1006(19) 0.4479(19) 0.7135(18)
C2 C 0.236(2) 0.376(2) 0.7715(19)
C3 C 0.407(2) 0.3465(19) 0.7105(18)
C4 C 0.3253(19) 0.3015(18) 0.9688(18)
C5 C 0.4884(19) 0.2727(18) 0.9073(18)
C6 C 0.460(2) 0.3513(19) 0.5654(19)
C7 C 0.055(2) -0.0421(19) 0.0351(19)
C8 C 0.5342(17) 0.2979(15) 0.7821(15)
H4 H 0.6465 0.2829 0.7468
C9 C 0.4823(19) 0.2362(18) 1.1143(19)
H5 H 0.5209 0.2156 1.1951
O7 O 0.1344(13) 0.4940(12) 0.6105(13)
C10 C 0.1958(19) 0.3547(19) 0.9012(18)
H6 H 0.0871 0.3747 0.9419
O4A O -0.1158 -0.0395 -0.1808
C7A C -0.055(2) 0.0421(19) -0.0351(19)
O5A O -0.0734 0.1822 0.0599
Eu1A Eu -0.1226 -0.3400 -0.3173
O1A O 0.0397 -0.4693 -0.7749
O2A O -0.6243 -0.4188 -0.5694
O3A O -0.3472 -0.2677 -0.4380
O6A O 0.1514(19) -0.2007(17) -0.3794(17)
H1A H 0.0612 -0.1728 -0.3294
H2A H 0.2380 -0.1832 -0.3092
N1A N -0.3225(16) -0.2772(15) -1.0996(15)
N2A N -0.5823(18) -0.2279(17) -0.9994(16)
H3A H -0.6865 -0.1993 -0.9870
C1A C -0.1006(19) -0.4479(19) -0.7135(18)
C2A C -0.236(2) -0.376(2) -0.7715(19)
C3A C -0.407(2) -0.3465(19) -0.7105(18)
C4A C -0.3253(19) -0.3015(18) -0.9688(18)
C5A C -0.4884(19) -0.2727(18) -0.9073(18)
C6A C -0.460(2) -0.3513(19) -0.5654(19)
C8A C -0.5342(17) -0.2979(15) -0.7821(15)
H4A H -0.6465 -0.2829 -0.7468
C9A C -0.4823(19) -0.2362(18) -1.1143(19)
H5A H -0.5209 -0.2156 -1.1951
O7A O -0.1344(13) -0.4940(12) -0.6105(13)
C10A C -0.1958(19) -0.3547(19) -0.9012(18)
H6A H -0.0871 -0.3747 -0.9419
Eu1_2 Eu -0.8774 -0.6600 -0.6827
Eu1_3 Eu 0.1226 -0.6600 -0.6827
Eu1_4 Eu 0.1226 0.3400 1.3173
Eu1A_2 Eu -0.1226 -0.3400 -1.3173
Eu1A_3 Eu -0.1226 0.6600 0.6827
Eu1A_4 Eu 0.8774 0.6600 0.6827
O1_2 O -0.0397 -0.5307 -0.2251
O1A_2 O 0.0397 0.5307 0.2251
O2_2 O -0.3757 -0.5812 -0.4306
O2A_2 O 0.3757 0.5812 0.4306
N1_2 N 0.3225(16) 0.2772(15) 0.0996(15)
N1A_2 N -0.3225(16) -0.2772(15) -0.0996(15)
O7_2 O 0.1344(13) -0.5060(12) -0.3895(13)
O7A_2 O -0.1344(13) 0.5060(12) 0.3895(13)
O8 O 0.8226(17) 0.0397(15) 0.5569(15)
H7 H 0.7099 -0.0009 0.5178
H8 H 0.8678 0.0712 0.4930
loop_
_geom_bond_atom_site_label_1
_geom_bond_atom_site_label_2
_geom_bond_site_symmetry_1
_geom_bond_site_symmetry_2
Eu1 O3 1_555 1_555
O1 C1 1_555 1_555
O2 C6 1_555 1_555
O3 C6 1_555 1_555
O4 Eu1 1_555 1_555
O5 C7 1_555 1_555
O6 Eu1 1_555 1_555
H1 O6 1_555 1_555
H2 O6 1_555 1_555
N1 C4 1_555 1_555
N2 H3 1_555 1_555
C1 C2 1_555 1_555
C2 C3 1_555 1_555
C3 C6 1_555 1_555
C4 C5 1_555 1_555
C5 N2 1_555 1_555
C7 O4 1_555 1_555
C8 C3 1_555 1_555
H4 C8 1_555 1_555
C9 N1 1_555 1_555
H5 C9 1_555 1_555
O7 Eu1 1_555 1_555
C10 C2 1_555 1_555
H6 C10 1_555 1_555
O8 H7 1_555 1_555
H8 O8 1_555 1_555
O4A C7A 1_555 1_555
C7A C7 1_555 1_555
O5A Eu1 1_555 1_555
Eu1A O5 1_555 1_555
O1A C1A 1_555 1_555
O2A C6A 1_555 1_555
O3A Eu1A 1_555 1_555
O6A Eu1A 1_555 1_555
H1A O6A 1_555 1_555
H2A O6A 1_555 1_555
N1A C4A 1_555 1_555
N2A H3A 1_555 1_555
C1A C2A 1_555 1_555
C2A C3A 1_555 1_555
C3A C6A 1_555 1_555
C4A C5A 1_555 1_555
C5A N2A 1_555 1_555
C6A O3A 1_555 1_555
C8A C3A 1_555 1_555
H4A C8A 1_555 1_555
C9A N1A 1_555 1_555
H5A C9A 1_555 1_555
O7A Eu1A 1_555 1_555
C10A C2A 1_555 1_555
H6A C10A 1_555 1_555
Eu1_2 O2A 1_555 1_555
Eu1_3 O1A 1_555 1_555
Eu1_4 N1 1_555 1_555
Eu1A_2 N1A 1_555 1_555
Eu1A_3 O1 1_555 1_555
Eu1A_4 O2 1_555 1_555
O1_2 Eu1A 1_555 1_555
O1A_2 Eu1 1_555 1_555
O2_2 Eu1A 1_555 1_555
O2A_2 Eu1 1_555 1_555
N1_2 Eu1 1_555 1_555
N1A_2 Eu1A 1_555 1_555
O7_2 Eu1A 1_555 1_555
O7A_2 Eu1 1_555 1_555
N2 C9 1_555 1_555
C1 O7 1_555 1_555
C4 C10 1_555 1_555
C5 C8 1_555 1_555
O7 Eu1A_3 1_555 1_555
O4A Eu1A 1_555 1_555
C7A O5A 1_555 1_555
N2A C9A 1_555 1_555
C1A O7A 1_555 1_555
C4A C10A 1_555 1_555
C5A C8A 1_555 1_555
O7A Eu1_3 1_555 1_555
Eu1_3 O7_2 1_555 1_555
Eu1A_3 O7A_2 1_555 1_555

#END
