
#######################################################################
#
#                 Cambridge Crystallographic Data Centre
#                                CCDC 
#
#######################################################################
#
# If this CIF has been generated from an entry in the Cambridge 
# Structural Database, then it will include bibliographic, chemical, 
# crystal, experimental, refinement or atomic coordinate data resulting 
# from the CCDC's data processing and validation procedures.
#
#######################################################################

data_ZESLOA
_symmetry_cell_setting           triclinic
_symmetry_space_group_name_H-M   'P -1'
_symmetry_Int_Tables_number      2
_space_group_name_Hall           '-P 1'
loop_
_symmetry_equiv_pos_site_id
_symmetry_equiv_pos_as_xyz
1 x,y,z
2 -x,-y,-z
_cell_length_a                   8.148(2)
_cell_length_b                   9.370(3)
_cell_length_c                   10.179(3)
_cell_angle_alpha                66.618(3)
_cell_angle_beta                 73.234(3)
_cell_angle_gamma                83.832(3)
_cell_volume                     682.971
loop_
_atom_site_label
_atom_site_type_symbol
_atom_site_fract_x
_atom_site_fract_y
_atom_site_fract_z
Sm1 Sm 1.119140(13) 0.947614(12) 0.701498(11)
N1 N 0.5383(3) 0.2773(3) 0.9758(2)
N2 N 0.4484(3) 0.1879(3) 0.9513(2)
N3 N 0.4815(3) 0.2281(2) 0.8033(2)
H1 H 0.4366 0.1836 0.7624
O1 O 0.9998(2) 0.7221(2) 0.7105(2)
O2 O 0.9403(2) 0.8365(2) 0.4930(2)
O3 O 1.0036(2) 0.82836(18) 0.96983(17)
O4 O 1.32428(19) 0.9289(2) 0.47738(17)
O5 O 1.3275(2) 0.7402(2) 0.7869(2)
H2 H 1.3861 0.7448 0.8420
H3 H 1.2921 0.6473 0.8182
O6 O 0.8942(2) 0.87322(19) 1.17804(18)
O7 O 1.6016(2) 0.9353(2) 0.35749(19)
O8 O 0.8077(2) 0.9955(2) 0.7687(2)
H4 H 0.7645 1.0383 0.6955
H5 H 0.7270 0.9512 0.8457
C1 C 0.6316(3) 0.3798(3) 0.8397(3)
C2 C 0.5953(3) 0.3483(3) 0.7276(3)
C3 C 0.6704(3) 0.4341(3) 0.5758(3)
H6 H 0.6498 0.4098 0.5019
C4 C 0.7756(3) 0.5555(3) 0.5428(3)
H7 H 0.8242 0.6175 0.4437
C5 C 0.8126(3) 0.5892(3) 0.6566(3)
C6 C 0.7429(3) 0.5010(3) 0.8056(3)
H8 H 0.7688 0.5214 0.8797
C7 C 0.9249(3) 0.7246(3) 0.6163(3)
C8 C 1.4785(3) 0.9604(3) 0.4525(2)
C9 C 0.9709(3) 0.9134(3) 1.0432(2)
O3A O 0.9964(2) 1.17164(18) 1.03017(17)
C9A C 1.0291(3) 1.0866(3) 0.9568(2)
O6A O 1.1058(2) 1.12678(19) 0.82196(18)
O4A O 1.67572(19) 1.0711(2) 0.52262(17)
C8A C 1.5215(3) 1.0396(3) 0.5475(2)
O7A O 1.3984(2) 1.0647(2) 0.64251(19)
Sm1A Sm 0.880860(13) 1.052386(12) 0.298502(11)
N1A N 1.4617(3) 1.7227(3) 0.0242(2)
N2A N 1.5516(3) 1.8121(3) 0.0487(2)
N3A N 1.5185(3) 1.7719(2) 0.1967(2)
H1A H 1.5634 1.8164 0.2376
O1A O 1.0002(2) 1.2779(2) 0.2895(2)
O2A O 1.0597(2) 1.1635(2) 0.5070(2)
O5A O 0.6725(2) 1.2598(2) 0.2131(2)
H2A H 0.6139 1.2552 0.1580
H3A H 0.7079 1.3527 0.1818
O8A O 1.1923(2) 1.0045(2) 0.2313(2)
H4A H 1.2355 0.9617 0.3045
H5A H 1.2730 1.0488 0.1543
C1A C 1.3684(3) 1.6202(3) 0.1603(3)
C2A C 1.4047(3) 1.6517(3) 0.2724(3)
C3A C 1.3296(3) 1.5659(3) 0.4242(3)
H6A H 1.3502 1.5902 0.4981
C4A C 1.2244(3) 1.4445(3) 0.4572(3)
H7A H 1.1758 1.3825 0.5563
C5A C 1.1874(3) 1.4108(3) 0.3434(3)
C6A C 1.2571(3) 1.4990(3) 0.1944(3)
H8A H 1.2312 1.4786 0.1203
C7A C 1.0751(3) 1.2754(3) 0.3837(3)
Sm1A_2 Sm 0.880860(13) 1.052386(12) 1.298502(11)
Sm1A_3 Sm 1.880860(13) 1.052386(12) 0.298502(11)
O3A_2 O 0.9964(2) 1.17164(18) 0.03017(17)
O4A_2 O 0.67572(19) 1.0711(2) 0.52262(17)
O6_2 O 0.8942(2) 0.87322(19) 0.17804(18)
O7_2 O 0.6016(2) 0.9353(2) 0.35749(19)
O9 O 0.1801(4) 0.4654(3) 0.8552(4)
H9 H 0.1303 0.3816 0.9207
H10 H 0.0820 0.5054 0.8748
loop_
_geom_bond_atom_site_label_1
_geom_bond_atom_site_label_2
_geom_bond_site_symmetry_1
_geom_bond_site_symmetry_2
Sm1 O1 1_555 1_555
N1 N2 1_555 1_555
N2 N3 1_555 1_555
N3 H1 1_555 1_555
O1 C7 1_555 1_555
O2 C7 1_555 1_555
O3 Sm1 1_555 1_555
O4 Sm1 1_555 1_555
O5 Sm1 1_555 1_555
H2 O5 1_555 1_555
H3 O5 1_555 1_555
O6 C9 1_555 1_555
O7 C8 1_555 1_555
O8 Sm1 1_555 1_555
H4 O8 1_555 1_555
H5 O8 1_555 1_555
C1 N1 1_555 1_555
C2 N3 1_555 1_555
C3 C2 1_555 1_555
H6 C3 1_555 1_555
C4 C3 1_555 1_555
H7 C4 1_555 1_555
C5 C4 1_555 1_555
C6 C1 1_555 1_555
H8 C6 1_555 1_555
C7 C5 1_555 1_555
C8 O4 1_555 1_555
C9 O3 1_555 1_555
O9 H9 1_555 1_555
H10 O9 1_555 1_555
O3A C9A 1_555 1_555
C9A C9 1_555 1_555
O6A Sm1 1_555 1_555
O4A C8A 1_555 1_555
C8A C8 1_555 1_555
O7A Sm1 1_555 1_555
Sm1A O2 1_555 1_555
N1A N2A 1_555 1_555
N2A N3A 1_555 1_555
N3A H1A 1_555 1_555
O1A Sm1A 1_555 1_555
O2A Sm1 1_555 1_555
O5A Sm1A 1_555 1_555
H2A O5A 1_555 1_555
H3A O5A 1_555 1_555
O8A Sm1A 1_555 1_555
H4A O8A 1_555 1_555
H5A O8A 1_555 1_555
C1A N1A 1_555 1_555
C2A N3A 1_555 1_555
C3A C2A 1_555 1_555
H6A C3A 1_555 1_555
C4A C3A 1_555 1_555
H7A C4A 1_555 1_555
C5A C4A 1_555 1_555
C6A C1A 1_555 1_555
H8A C6A 1_555 1_555
C7A O1A 1_555 1_555
Sm1A_2 O6 1_555 1_555
Sm1A_3 O7 1_555 1_555
O3A_2 Sm1A 1_555 1_555
O4A_2 Sm1A 1_555 1_555
O6_2 Sm1A 1_555 1_555
O7_2 Sm1A 1_555 1_555
C1 C2 1_555 1_555
C5 C6 1_555 1_555
O3A Sm1A_2 1_555 1_555
C9A O6A 1_555 1_555
O4A Sm1A_3 1_555 1_555
C8A O7A 1_555 1_555
O2A C7A 1_555 1_555
C1A C2A 1_555 1_555
C5A C6A 1_555 1_555
C5A C7A 1_555 1_555

#END
