
#######################################################################
#
#                 Cambridge Crystallographic Data Centre
#                                CCDC 
#
#######################################################################
#
# If this CIF has been generated from an entry in the Cambridge 
# Structural Database, then it will include bibliographic, chemical, 
# crystal, experimental, refinement or atomic coordinate data resulting 
# from the CCDC's data processing and validation procedures.
#
#######################################################################

data_ZESLIU
_symmetry_cell_setting           triclinic
_symmetry_space_group_name_H-M   'P -1'
_symmetry_Int_Tables_number      2
_space_group_name_Hall           '-P 1'
loop_
_symmetry_equiv_pos_site_id
_symmetry_equiv_pos_as_xyz
1 x,y,z
2 -x,-y,-z
_cell_length_a                   9.4048(8)
_cell_length_b                   11.2241(10)
_cell_length_c                   12.0369(11)
_cell_angle_alpha                105.345(4)
_cell_angle_beta                 91.043(5)
_cell_angle_gamma                112.750(4)
_cell_volume                     1119.57
loop_
_atom_site_label
_atom_site_type_symbol
_atom_site_fract_x
_atom_site_fract_y
_atom_site_fract_z
Co1 Co 0.0000 -0.5000 0.5000
Co2 Co 0.19877(2) 0.35279(2) 0.106039(19)
O1 O 0.20871(15) -0.49178(14) 0.43741(12)
H1 H 0.284(2) -0.4379(19) 0.4879(14)
H2 H 0.240(2) -0.497(2) 0.3748(13)
O2 O 0.97811(13) 0.36079(12) 0.89297(12)
O3 O 0.99037(14) 0.22511(12) 0.99442(11)
O4 O 0.32231(15) 0.24935(14) 0.00942(12)
H3 H 0.365(2) 0.283(2) -0.0392(16)
H4 H 0.383(2) 0.229(2) 0.0419(17)
O5 O 0.38187(14) -0.32048(15) 0.63606(12)
O6 O 0.07995(15) 0.46369(14) 0.19295(12)
H5 H 0.066(2) 0.5193(18) 0.1671(18)
H6 H 0.009(2) 0.433(2) 0.2286(17)
O7 O 0.13261(13) -0.38428(11) 0.66545(10)
O8 O 0.26206(14) 0.49010(12) 0.00344(11)
H7 H 0.1782(17) 0.457(2) -0.0395(16)
H8 H 0.3242(19) 0.478(2) -0.0435(16)
O9 O 0.61407(14) 0.50628(12) 0.76335(11)
O10 O 0.42665(15) 0.38496(14) 0.84978(12)
O11 O 0.48026(13) -0.17368(11) 0.86847(11)
O12 O 0.41704(14) 0.14781(12) 0.70185(12)
N1 N 0.02244(17) -0.31817(14) 0.45708(13)
N2 N 0.14438(16) 0.21735(14) 0.21076(12)
C1 C 0.91964(18) 0.25716(16) 0.92550(14)
C2 C 0.75162(18) 0.16298(16) 0.87862(14)
C3 C 0.66423(19) 0.20496(16) 0.81485(15)
H9 H 0.7078 0.2899 0.8034
C4 C 0.51216(18) 0.11836(16) 0.76917(15)
C5 C 0.44425(18) -0.00881(16) 0.78632(15)
H10 H 0.3412 -0.0658 0.7561
C6 C 0.53319(19) -0.04879(16) 0.84939(14)
C7 C 0.68710(18) 0.03727(16) 0.89634(14)
H11 H 0.7457 0.0102 0.9392
C8 C 0.32011(19) -0.26259(17) 0.83038(15)
H12 H 0.2568 -0.2126 0.8567
H13 H 0.2933 -0.3344 0.8669
C9 C 0.27937(18) -0.32595(15) 0.69901(14)
C10 C 0.4884(2) 0.27123(16) 0.67338(15)
H14 H 0.4249 0.2678 0.6072
H15 H 0.5890 0.2790 0.6501
C11 C 0.51140(18) 0.39765(16) 0.77238(14)
C12 C 0.1557(2) -0.20765(18) 0.48489(17)
H16 H 0.2366 -0.2060 0.5317
C13 C 0.1798(2) -0.09560(18) 0.44790(17)
H17 H 0.2747 -0.0209 0.4706
C14 C 0.06253(19) -0.09435(16) 0.37685(15)
C15 C 0.08790(19) 0.01779(16) 0.32519(14)
C16 C 0.2271(2) 0.13152(17) 0.34967(15)
H18 H 0.3052 0.1431 0.4052
C17 C 0.2508(2) 0.22764(17) 0.29230(15)
H19 H 0.3450 0.3031 0.3112
C18 C -0.0241(2) 0.00906(19) 0.24247(18)
H20 H -0.1208 -0.0636 0.2242
C19 C 0.0089(2) 0.10836(19) 0.18779(18)
H21 H -0.0670 0.0993 0.1318
C20 C -0.0772(2) -0.20809(18) 0.35092(18)
H22 H -0.1608 -0.2121 0.3054
C21 C -0.0923(2) -0.31499(18) 0.39244(18)
H23 H -0.1878 -0.3891 0.3745
Co2A Co -0.19877(2) -1.35279(2) 0.893961(19)
O1A O -0.20871(15) -0.50822(14) 0.56259(12)
H1A H -0.284(2) -0.5621(19) 0.5121(14)
H2A H -0.240(2) -0.503(2) 0.6252(13)
O2A O -0.97811(13) -1.36079(12) 0.10703(12)
O3A O -0.99037(14) -1.22511(12) 0.00558(11)
O4A O -0.32231(15) -1.24935(14) 0.99058(12)
H3A H -0.365(2) -1.283(2) 1.0392(16)
H4A H -0.383(2) -1.229(2) 0.9581(17)
O5A O -0.38187(14) -0.67952(15) 0.36394(12)
O6A O -0.07995(15) -1.46369(14) 0.80705(12)
H5A H -0.066(2) -1.5193(18) 0.8329(18)
H6A H -0.009(2) -1.433(2) 0.7714(17)
O7A O -0.13261(13) -0.61572(11) 0.33455(10)
O8A O -0.26206(14) -1.49010(12) 0.99656(11)
H7A H -0.1782(17) -1.457(2) 1.0395(16)
H8A H -0.3242(19) -1.478(2) 1.0435(16)
O9A O -0.61407(14) -1.50628(12) 0.23665(11)
O10A O -0.42665(15) -1.38496(14) 0.15022(12)
O11A O -0.48026(13) -0.82632(11) 0.13153(11)
O12A O -0.41704(14) -1.14781(12) 0.29815(12)
N1A N -0.02244(17) -0.68183(14) 0.54292(13)
N2A N -0.14438(16) -1.21735(14) 0.78924(12)
C1A C -0.91964(18) -1.25716(16) 0.07450(14)
C2A C -0.75162(18) -1.16298(16) 0.12138(14)
C3A C -0.66423(19) -1.20496(16) 0.18515(15)
H9A H -0.7078 -1.2899 0.1966
C4A C -0.51216(18) -1.11836(16) 0.23083(15)
C5A C -0.44425(18) -0.99119(16) 0.21368(15)
H10A H -0.3412 -0.9342 0.2439
C6A C -0.53319(19) -0.95121(16) 0.15061(14)
C7A C -0.68710(18) -1.03727(16) 0.10366(14)
H11A H -0.7457 -1.0102 0.0608
C8A C -0.32011(19) -0.73741(17) 0.16962(15)
H12A H -0.2568 -0.7874 0.1433
H13A H -0.2933 -0.6656 0.1331
C9A C -0.27937(18) -0.67405(15) 0.30099(14)
C10A C -0.4884(2) -1.27123(16) 0.32662(15)
H14A H -0.4249 -1.2678 0.3928
H15A H -0.5890 -1.2790 0.3499
C11A C -0.51140(18) -1.39765(16) 0.22762(14)
C12A C -0.1557(2) -0.79235(18) 0.51511(17)
H16A H -0.2366 -0.7940 0.4683
C13A C -0.1798(2) -0.90440(18) 0.55210(17)
H17A H -0.2747 -0.9791 0.5294
C14A C -0.06253(19) -0.90565(16) 0.62315(15)
C15A C -0.08790(19) -1.01779(16) 0.67481(14)
C16A C -0.2271(2) -1.13152(17) 0.65033(15)
H18A H -0.3052 -1.1431 0.5948
C17A C -0.2508(2) -1.22764(17) 0.70770(15)
H19A H -0.3450 -1.3031 0.6888
C18A C 0.0241(2) -1.00906(19) 0.75753(18)
H20A H 0.1208 -0.9364 0.7758
C19A C -0.0089(2) -1.10836(19) 0.81221(18)
H21A H 0.0670 -1.0993 0.8682
C20A C 0.0772(2) -0.79191(18) 0.64908(18)
H22A H 0.1608 -0.7879 0.6946
C21A C 0.0923(2) -0.68501(18) 0.60756(18)
H23A H 0.1878 -0.6109 0.6255
Co2_2 Co -0.80123(2) -1.64721(2) 0.106039(19)
Co2_3 Co 1.19877(2) 0.35279(2) 1.106039(19)
Co2A_2 Co -1.19877(2) -1.35279(2) -0.106039(19)
Co2A_3 Co 0.80123(2) 0.64721(2) 0.893961(19)
O3_2 O -0.00963(14) 0.22511(12) -0.00558(11)
O3A_2 O 0.00963(14) -1.22511(12) 1.00558(11)
O9_2 O -0.38593(14) -1.49372(12) 0.76335(11)
O9A_2 O 0.38593(14) 0.49372(12) 0.23665(11)
loop_
_geom_bond_atom_site_label_1
_geom_bond_atom_site_label_2
_geom_bond_site_symmetry_1
_geom_bond_site_symmetry_2
Co1 O1 1_555 1_555
Co2 O4 1_555 1_555
O1 H1 1_555 1_555
H2 O1 1_555 1_555
O2 C1 1_555 1_555
O3 C1 1_555 1_555
O4 H3 1_555 1_555
H4 O4 1_555 1_555
O5 C9 1_555 1_555
O6 Co2 1_555 1_555
H5 O6 1_555 1_555
H6 O6 1_555 1_555
O7 Co1 1_555 1_555
O8 Co2 1_555 1_555
H7 O8 1_555 1_555
H8 O8 1_555 1_555
O9 C11 1_555 1_555
O10 C11 1_555 1_555
O11 C6 1_555 1_555
O12 C4 1_555 1_555
N1 Co1 1_555 1_555
N2 Co2 1_555 1_555
C1 C2 1_555 1_555
C2 C3 1_555 1_555
C3 H9 1_555 1_555
C4 C3 1_555 1_555
C5 C4 1_555 1_555
H10 C5 1_555 1_555
C6 C5 1_555 1_555
C7 C2 1_555 1_555
H11 C7 1_555 1_555
C8 O11 1_555 1_555
H12 C8 1_555 1_555
H13 C8 1_555 1_555
C9 O7 1_555 1_555
C10 O12 1_555 1_555
H14 C10 1_555 1_555
H15 C10 1_555 1_555
C11 C10 1_555 1_555
C12 N1 1_555 1_555
H16 C12 1_555 1_555
C13 C12 1_555 1_555
H17 C13 1_555 1_555
C14 C13 1_555 1_555
C15 C14 1_555 1_555
C16 C15 1_555 1_555
H18 C16 1_555 1_555
C17 N2 1_555 1_555
H19 C17 1_555 1_555
C18 C15 1_555 1_555
H20 C18 1_555 1_555
C19 N2 1_555 1_555
H21 C19 1_555 1_555
C20 C14 1_555 1_555
H22 C20 1_555 1_555
C21 N1 1_555 1_555
H23 C21 1_555 1_555
Co2A O4A 1_555 1_555
O1A Co1 1_555 1_555
H1A O1A 1_555 1_555
H2A O1A 1_555 1_555
O2A C1A 1_555 1_555
O3A C1A 1_555 1_555
O4A H3A 1_555 1_555
H4A O4A 1_555 1_555
O5A C9A 1_555 1_555
O6A Co2A 1_555 1_555
H5A O6A 1_555 1_555
H6A O6A 1_555 1_555
O7A Co1 1_555 1_555
O8A Co2A 1_555 1_555
H7A O8A 1_555 1_555
H8A O8A 1_555 1_555
O9A C11A 1_555 1_555
O10A C11A 1_555 1_555
O11A C6A 1_555 1_555
O12A C4A 1_555 1_555
N1A Co1 1_555 1_555
N2A Co2A 1_555 1_555
C1A C2A 1_555 1_555
C2A C3A 1_555 1_555
C3A H9A 1_555 1_555
C4A C3A 1_555 1_555
C5A C4A 1_555 1_555
H10A C5A 1_555 1_555
C6A C5A 1_555 1_555
C7A C2A 1_555 1_555
H11A C7A 1_555 1_555
C8A O11A 1_555 1_555
H12A C8A 1_555 1_555
H13A C8A 1_555 1_555
C9A O7A 1_555 1_555
C10A O12A 1_555 1_555
H14A C10A 1_555 1_555
H15A C10A 1_555 1_555
C11A C10A 1_555 1_555
C12A N1A 1_555 1_555
H16A C12A 1_555 1_555
C13A C12A 1_555 1_555
H17A C13A 1_555 1_555
C14A C13A 1_555 1_555
C15A C14A 1_555 1_555
C16A C15A 1_555 1_555
H18A C16A 1_555 1_555
C17A N2A 1_555 1_555
H19A C17A 1_555 1_555
C18A C15A 1_555 1_555
H20A C18A 1_555 1_555
C19A N2A 1_555 1_555
H21A C19A 1_555 1_555
C20A C14A 1_555 1_555
H22A C20A 1_555 1_555
C21A N1A 1_555 1_555
H23A C21A 1_555 1_555
Co2_2 O9A 1_555 1_555
Co2_3 O3 1_555 1_555
Co2A_2 O3A 1_555 1_555
Co2A_3 O9 1_555 1_555
O3_2 Co2 1_555 1_555
O3A_2 Co2A 1_555 1_555
O9_2 Co2A 1_555 1_555
O9A_2 Co2 1_555 1_555
C6 C7 1_555 1_555
C8 C9 1_555 1_555
C16 C17 1_555 1_555
C18 C19 1_555 1_555
C20 C21 1_555 1_555
C6A C7A 1_555 1_555
C8A C9A 1_555 1_555
C16A C17A 1_555 1_555
C18A C19A 1_555 1_555
C20A C21A 1_555 1_555

#END
