
#######################################################################
#
#                 Cambridge Crystallographic Data Centre
#                                CCDC 
#
#######################################################################
#
# If this CIF has been generated from an entry in the Cambridge 
# Structural Database, then it will include bibliographic, chemical, 
# crystal, experimental, refinement or atomic coordinate data resulting 
# from the CCDC's data processing and validation procedures.
#
#######################################################################

data_ZESMOB
_symmetry_cell_setting           rhombohedral
_symmetry_space_group_name_H-M   'R -3'
_symmetry_Int_Tables_number      148
_space_group_name_Hall           '-R 3'
loop_
_symmetry_equiv_pos_site_id
_symmetry_equiv_pos_as_xyz
1 x,y,z
2 -y,x-y,z
3 -x+y,-x,z
4 2/3+x,1/3+y,1/3+z
5 2/3-y,1/3+x-y,1/3+z
6 2/3-x+y,1/3-x,1/3+z
7 1/3+x,2/3+y,2/3+z
8 1/3-y,2/3+x-y,2/3+z
9 1/3-x+y,2/3-x,2/3+z
10 -x,-y,-z
11 y,-x+y,-z
12 x-y,x,-z
13 1/3-x,2/3-y,2/3-z
14 1/3+y,2/3-x+y,2/3-z
15 1/3+x-y,2/3+x,2/3-z
16 2/3-x,1/3-y,1/3-z
17 2/3+y,1/3-x+y,1/3-z
18 2/3+x-y,1/3+x,1/3-z
_cell_length_a                   13.6884(10)
_cell_length_b                   13.6884(10)
_cell_length_c                   39.877(3)
_cell_angle_alpha                90
_cell_angle_beta                 90
_cell_angle_gamma                120
_cell_volume                     6470.81
loop_
_atom_site_label
_atom_site_type_symbol
_atom_site_fract_x
_atom_site_fract_y
_atom_site_fract_z
Zn1 Zn 0.29051(3) 0.26756(3) 0.006763(7)
H1 H 0.435(3) 0.370(2) -0.0242(7)
Zn2 Zn 0.42855(3) 0.60798(3) -0.008981(8)
Zn3 Zn 0.3333 0.6667 0.054348(12)
O1 O 0.24806(15) 0.09486(15) 0.01705(4)
O2 O 0.1862(2) -0.03013(17) 0.05869(5)
O3 O 0.33587(16) 0.45289(15) 0.02700(4)
O4 O 0.32515(18) 0.53235(16) 0.07505(4)
O5 O 0.16298(16) 0.23139(16) 0.28705(4)
O6 O 0.16637(19) 0.07140(18) 0.28112(5)
O7 O 0.43259(17) 0.33476(18) -0.01473(5)
O8 O 0.3333 0.6667 0.00632(7)
N1 N 0.26319(17) 0.25602(17) 0.05679(5)
C1 C 0.2176(2) 0.0638(2) 0.04794(6)
C2 C 0.2270(2) 0.1551(2) 0.07084(6)
C3 C 0.2061(2) 0.1374(2) 0.10488(6)
H2 H 0.1792 0.0657 0.1138
C4 C 0.2252(2) 0.2268(2) 0.12569(6)
C5 C 0.2603(2) 0.3304(2) 0.11034(6)
H3 H 0.2722 0.3922 0.1232
C6 C 0.2774(2) 0.3417(2) 0.07601(6)
C7 C 0.3158(2) 0.4508(2) 0.05753(6)
C8 C 0.2129(2) 0.2118(2) 0.16295(6)
C9 C 0.2265(3) 0.2981(3) 0.18419(7)
H4 H 0.2425 0.3671 0.1751
C10 C 0.2167(3) 0.2837(3) 0.21855(7)
H5 H 0.2250 0.3425 0.2322
C11 C 0.1948(2) 0.1827(2) 0.23278(6)
C12 C 0.1833(3) 0.0977(3) 0.21200(7)
H6 H 0.1699 0.0296 0.2212
C13 C 0.1916(3) 0.1118(2) 0.17762(7)
H7 H 0.1826 0.0525 0.1641
C14 C 0.1748(2) 0.1598(2) 0.26979(6)
Zn1A Zn 0.73244(3) 1.02295(4) 0.006763(7)
H1A H 0.630(2) 1.065(4) -0.0242(7)
Zn2A Zn 0.39202(3) 0.82057(4) -0.008981(8)
O1A O 0.90514(15) 1.15320(21) 0.01705(4)
O2A O 1.03013(17) 1.21633(26) 0.05869(5)
O3A O 0.54711(15) 0.88298(22) 0.02700(4)
O4A O 0.46765(16) 0.79280(24) 0.07505(4)
O5A O 0.76861(16) 0.93159(23) 0.28705(4)
O6A O 0.92860(18) 1.09497(26) 0.28112(5)
O7A O 0.66524(18) 1.09783(25) -0.01473(5)
N1A N 0.74398(17) 1.00717(24) 0.05679(5)
C1A C 0.9362(2) 1.1538(3) 0.04794(6)
C2A C 0.8449(2) 1.0719(3) 0.07084(6)
C3A C 0.8626(2) 1.0687(3) 0.10488(6)
H2A H 0.9343 1.1135 0.1138
C4A C 0.7732(2) 0.9984(3) 0.12569(6)
C5A C 0.6696(2) 0.9299(3) 0.11034(6)
H3A H 0.6078 0.8800 0.1232
C6A C 0.6583(2) 0.9357(3) 0.07601(6)
C7A C 0.5492(2) 0.8650(3) 0.05753(6)
C8A C 0.7882(2) 1.0011(3) 0.16295(6)
C9A C 0.7019(3) 0.9284(4) 0.18419(7)
H4A H 0.6329 0.8754 0.1751
C10A C 0.7163(3) 0.9330(4) 0.21855(7)
H5A H 0.6575 0.8825 0.2322
C11A C 0.8173(2) 1.0121(3) 0.23278(6)
C12A C 0.9023(3) 1.0856(4) 0.21200(7)
H6A H 0.9704 1.1403 0.2212
C13A C 0.8882(2) 1.0798(4) 0.17762(7)
H7A H 0.9475 1.1301 0.1641
C14A C 0.8402(2) 1.0150(3) 0.26979(6)
Zn1B Zn -0.02295(4) 0.70949(3) 0.006763(7)
H1B H -0.065(4) 0.565(3) -0.0242(7)
Zn2B Zn 0.17943(4) 0.57145(3) -0.008981(8)
O1B O -0.15320(21) 0.75194(15) 0.01705(4)
O2B O -0.21633(26) 0.8138(2) 0.05869(5)
O3B O 0.11702(22) 0.66413(16) 0.02700(4)
O4B O 0.20720(24) 0.67485(18) 0.07505(4)
O5B O 0.06841(23) 0.83702(16) 0.28705(4)
O6B O -0.09497(26) 0.83363(19) 0.28112(5)
O7B O -0.09783(25) 0.56741(17) -0.01473(5)
N1B N -0.00717(24) 0.73681(17) 0.05679(5)
C1B C -0.1538(3) 0.7824(2) 0.04794(6)
C2B C -0.0719(3) 0.7730(2) 0.07084(6)
C3B C -0.0687(3) 0.7939(2) 0.10488(6)
H2B H -0.1135 0.8208 0.1138
C4B C 0.0016(3) 0.7748(2) 0.12569(6)
C5B C 0.0701(3) 0.7397(2) 0.11034(6)
H3B H 0.1200 0.7278 0.1232
C6B C 0.0643(3) 0.7226(2) 0.07601(6)
C7B C 0.1350(3) 0.6842(2) 0.05753(6)
C8B C -0.0011(3) 0.7871(2) 0.16295(6)
C9B C 0.0716(4) 0.7735(3) 0.18419(7)
H4B H 0.1246 0.7575 0.1751
C10B C 0.0670(4) 0.7833(3) 0.21855(7)
H5B H 0.1175 0.7750 0.2322
C11B C -0.0121(3) 0.8052(2) 0.23278(6)
C12B C -0.0856(4) 0.8167(3) 0.21200(7)
H6B H -0.1403 0.8301 0.2212
C13B C -0.0798(4) 0.8084(3) 0.17762(7)
H7B H -0.1301 0.8174 0.1641
C14B C -0.0150(3) 0.8252(2) 0.26979(6)
Zn1I Zn -0.29051(3) 0.73244(3) -0.006763(7)
Zn1J Zn 0.26756(3) -0.02295(4) -0.006763(7)
Zn1K Zn 1.02295(4) 1.29051(3) -0.006763(7)
Zn2C Zn 0.09522(3) -0.05869(3) 0.324352(8)
Zn2C_2 Zn 0.09522(3) 0.94131(3) 0.324352(8)
Zn2D Zn 0.05869(3) 0.15390(4) 0.324352(8)
Zn2D_2 Zn 1.05869(3) 1.15390(4) 0.324352(8)
Zn2E Zn -0.15390(4) 0.90478(3) 0.324352(8)
Zn2E_2 Zn 0.84610(4) 0.90478(3) 0.324352(8)
Zn2I Zn 0.57145(3) 0.39202(3) 0.008981(8)
Zn2J Zn 0.60798(3) 1.17943(4) 0.008981(8)
Zn2K Zn -0.17943(4) 0.42855(3) 0.008981(8)
O1I O 0.75194(15) 0.90514(15) -0.01705(4)
O1J O 0.09486(15) 0.84680(21) -0.01705(4)
O1K O 0.15320(21) 0.24806(15) -0.01705(4)
O5F O 0.49631(16) 0.89806(16) -0.04628(4)
O5G O 0.10194(16) 0.59826(23) -0.04628(4)
O5H O 0.40174(23) 0.50369(16) -0.04628(4)
O6F O 0.49970(19) 0.73807(18) -0.05221(5)
O6G O 0.26193(18) 0.76164(26) -0.05221(5)
O6H O 0.23836(26) 0.50030(19) -0.05221(5)
O7I O 0.56741(17) 0.66524(18) 0.01473(5)
O7J O 0.33476(18) 0.90217(25) 0.01473(5)
O7K O 0.09783(25) 0.43259(17) 0.01473(5)
loop_
_geom_bond_atom_site_label_1
_geom_bond_atom_site_label_2
_geom_bond_site_symmetry_1
_geom_bond_site_symmetry_2
Zn1 O1 1_555 1_555
H1 O7 1_555 1_555
Zn2 O3 1_555 1_555
Zn3 O4 1_555 1_555
O1 C1 1_555 1_555
O2 C1 1_555 1_555
O3 Zn1 1_555 1_555
O4 C7 1_555 1_555
O5 C14 1_555 1_555
O6 C14 1_555 1_555
O7 Zn1 1_555 1_555
O8 Zn2 1_555 1_555
N1 Zn1 1_555 1_555
C1 C2 1_555 1_555
C2 N1 1_555 1_555
C3 C2 1_555 1_555
H2 C3 1_555 1_555
C4 C3 1_555 1_555
C5 C4 1_555 1_555
H3 C5 1_555 1_555
C6 N1 1_555 1_555
C7 O3 1_555 1_555
C8 C4 1_555 1_555
C9 C8 1_555 1_555
H4 C9 1_555 1_555
C10 C9 1_555 1_555
H5 C10 1_555 1_555
C11 C10 1_555 1_555
C12 C11 1_555 1_555
H6 C12 1_555 1_555
C13 C8 1_555 1_555
H7 C13 1_555 1_555
C14 C11 1_555 1_555
Zn1A O1A 1_555 1_555
H1A O7A 1_555 1_555
Zn2A O8 1_555 1_555
O1A C1A 1_555 1_555
O2A C1A 1_555 1_555
O3A Zn1A 1_555 1_555
O4A Zn3 1_555 1_555
O5A C14A 1_555 1_555
O6A C14A 1_555 1_555
O7A Zn1A 1_555 1_555
N1A Zn1A 1_555 1_555
C1A C2A 1_555 1_555
C2A N1A 1_555 1_555
C3A C2A 1_555 1_555
H2A C3A 1_555 1_555
C4A C3A 1_555 1_555
C5A C4A 1_555 1_555
H3A C5A 1_555 1_555
C6A N1A 1_555 1_555
C7A O3A 1_555 1_555
C8A C4A 1_555 1_555
C9A C8A 1_555 1_555
H4A C9A 1_555 1_555
C10A C9A 1_555 1_555
H5A C10A 1_555 1_555
C11A C10A 1_555 1_555
C12A C11A 1_555 1_555
H6A C12A 1_555 1_555
C13A C8A 1_555 1_555
H7A C13A 1_555 1_555
C14A C11A 1_555 1_555
Zn1B O1B 1_555 1_555
H1B O7B 1_555 1_555
Zn2B O8 1_555 1_555
O1B C1B 1_555 1_555
O2B C1B 1_555 1_555
O3B Zn1B 1_555 1_555
O4B Zn3 1_555 1_555
O5B C14B 1_555 1_555
O6B C14B 1_555 1_555
O7B Zn1B 1_555 1_555
N1B Zn1B 1_555 1_555
C1B C2B 1_555 1_555
C2B N1B 1_555 1_555
C3B C2B 1_555 1_555
H2B C3B 1_555 1_555
C4B C3B 1_555 1_555
C5B C4B 1_555 1_555
H3B C5B 1_555 1_555
C6B N1B 1_555 1_555
C7B O3B 1_555 1_555
C8B C4B 1_555 1_555
C9B C8B 1_555 1_555
H4B C9B 1_555 1_555
C10B C9B 1_555 1_555
H5B C10B 1_555 1_555
C11B C10B 1_555 1_555
C12B C11B 1_555 1_555
H6B C12B 1_555 1_555
C13B C8B 1_555 1_555
H7B C13B 1_555 1_555
C14B C11B 1_555 1_555
Zn1I O1B 1_555 1_555
Zn1J O1 1_555 1_555
Zn1K O1A 1_555 1_555
Zn2C O6 1_555 1_555
Zn2C_2 O5B 1_555 1_555
Zn2D O5 1_555 1_555
Zn2D_2 O6A 1_555 1_555
Zn2E O6B 1_555 1_555
Zn2E_2 O5A 1_555 1_555
Zn2I O7 1_555 1_555
Zn2J O7A 1_555 1_555
Zn2K O7B 1_555 1_555
O1I Zn1A 1_555 1_555
O1J Zn1B 1_555 1_555
O1K Zn1 1_555 1_555
O5F Zn2A 1_555 1_555
O5G Zn2B 1_555 1_555
O5H Zn2 1_555 1_555
O6F Zn2 1_555 1_555
O6G Zn2A 1_555 1_555
O6H Zn2B 1_555 1_555
O7I Zn2 1_555 1_555
O7J Zn2A 1_555 1_555
O7K Zn2B 1_555 1_555
Zn3 O8 1_555 1_555
C5 C6 1_555 1_555
C6 C7 1_555 1_555
C12 C13 1_555 1_555
Zn2A O3A 1_555 1_555
O4A C7A 1_555 1_555
C5A C6A 1_555 1_555
C6A C7A 1_555 1_555
C12A C13A 1_555 1_555
Zn2B O3B 1_555 1_555
O4B C7B 1_555 1_555
C5B C6B 1_555 1_555
C6B C7B 1_555 1_555
C12B C13B 1_555 1_555

#END
