
#######################################################################
#
#                 Cambridge Crystallographic Data Centre
#                                CCDC 
#
#######################################################################
#
# If this CIF has been generated from an entry in the Cambridge 
# Structural Database, then it will include bibliographic, chemical, 
# crystal, experimental, refinement or atomic coordinate data resulting 
# from the CCDC's data processing and validation procedures.
#
#######################################################################

data_ZESTIC01
_symmetry_cell_setting           monoclinic
_symmetry_space_group_name_H-M   'C c'
_symmetry_Int_Tables_number      9
_space_group_name_Hall           'C -2yc'
loop_
_symmetry_equiv_pos_site_id
_symmetry_equiv_pos_as_xyz
1 x,y,z
2 x,-y,1/2+z
3 1/2+x,1/2+y,z
4 1/2+x,1/2-y,1/2+z
_cell_length_a                   24.7115(5)
_cell_length_b                   9.6638(2)
_cell_length_c                   18.3643(4)
_cell_angle_alpha                90
_cell_angle_beta                 107.8560(10)
_cell_angle_gamma                90
_cell_volume                     4174.27
loop_
_atom_site_label
_atom_site_type_symbol
_atom_site_fract_x
_atom_site_fract_y
_atom_site_fract_z
C1 C -0.54183(14) -0.1221(3) -0.27942(16)
H1 H -0.5063 -0.0955 -0.2818
C2 C -0.58959(16) -0.0319(3) -0.2954(2)
H2 H -0.5910 0.0608 -0.3094
C3 C -0.63414(14) -0.1124(3) -0.28577(17)
H3 H -0.6713 -0.0842 -0.2921
C4 C -0.61039(12) -0.2480(3) -0.26401(15)
C5 C -0.64140(11) -0.3625(2) -0.25296(12)
C6 C -0.62177(11) -0.5010(3) -0.23797(13)
C7 C -0.65485(12) -0.6127(3) -0.22220(14)
H4 H -0.6925 -0.6085 -0.2226
C8 C -0.62001(14) -0.7272(3) -0.20640(17)
H5 H -0.6293 -0.8155 -0.1939
C9 C -0.56678(13) -0.6823(3) -0.21310(14)
H6 H -0.5352 -0.7395 -0.2053
C10 C -0.70257(11) -0.3391(3) -0.26280(13)
C11 C -0.71902(13) -0.2630(3) -0.20859(14)
H7 H -0.6916 -0.2291 -0.1654
C12 C -0.77622(12) -0.2379(3) -0.21886(15)
H8 H -0.7871 -0.1891 -0.1819
C13 C -0.81764(11) -0.2857(3) -0.28468(13)
C14 C -0.80144(12) -0.3615(3) -0.33919(14)
H9 H -0.8286 -0.3934 -0.3832
C15 C -0.74380(13) -0.3887(3) -0.32661(15)
H10 H -0.7329 -0.4416 -0.3621
C16 C -0.89629(15) -0.1382(3) -0.27602(18)
H11 H -0.8735 -0.0648 -0.2517
C17 C -0.96837(13) -0.2646(3) -0.32742(17)
H12 H -1.0058 -0.2949 -0.3460
C18 C -0.92212(13) -0.3406(3) -0.32926(18)
H13 H -0.9217 -0.4294 -0.3485
C19 C -0.42295(14) -0.2780(3) -0.35868(15)
H14 H -0.4544 -0.2844 -0.4021
C20 C -0.36777(15) -0.2328(4) -0.35893(16)
H15 H -0.3572 -0.2049 -0.4011
C21 C -0.33442(15) -0.2389(4) -0.28558(16)
H16 H -0.2962 -0.2149 -0.2680
C22 C -0.36782(13) -0.2890(3) -0.23872(15)
C23 C -0.34895(11) -0.3077(3) -0.15989(13)
C24 C -0.38009(13) -0.3659(3) -0.11494(16)
C25 C -0.36229(17) -0.3687(4) -0.03373(19)
H17 H -0.3276 -0.3366 -0.0020
C26 C -0.4038(2) -0.4254(4) -0.0099(2)
H18 H -0.4038 -0.4402 0.0401
C27 C -0.44763(15) -0.4575(3) -0.07870(17)
H19 H -0.4819 -0.4988 -0.0800
C28 C -0.29054(12) -0.2588(3) -0.11923(13)
C29 C -0.24858(13) -0.3482(3) -0.07816(16)
H20 H -0.2567 -0.4419 -0.0763
C30 C -0.19505(12) -0.3005(3) -0.04005(14)
H21 H -0.1676 -0.3620 -0.0119
C31 C -0.18161(11) -0.1644(3) -0.04291(12)
C32 C -0.22226(14) -0.0723(3) -0.08396(14)
H22 H -0.2135 0.0211 -0.0850
C33 C -0.27602(12) -0.1195(3) -0.12341(14)
H23 H -0.3029 -0.0583 -0.1531
C34 C -0.09920(13) -0.1411(3) 0.07362(14)
H24 H -0.1125 -0.2018 0.1035
C35 C -0.04717(14) 0.0028(3) 0.03689(17)
H25 H -0.0171 0.0611 0.0374
C36 C -0.09268(16) -0.0221(4) -0.02568(18)
H26 H -0.0997 0.0155 -0.0743
N1 N -0.55383(10) -0.2483(2) -0.26071(11)
N2 N -0.56747(11) -0.5478(2) -0.23206(12)
N3 N -0.87670(11) -0.2570(3) -0.29654(15)
N4 N -0.95245(10) -0.1399(2) -0.29510(12)
N5 N -0.42331(10) -0.3101(2) -0.28748(12)
N6 N -0.43403(16) -0.4216(3) -0.14148(19)
N7 N -0.12642(11) -0.1151(3) -0.00193(12)
N8 N -0.05144(15) -0.0691(2) 0.09896(17)
Cd1 Cd -0.496499(9) -0.433510(14) -0.264310(9)
N4B N -0.45245(10) -0.6399(2) -0.29510(12)
N8C N -0.55144(15) -0.4309(2) -0.40104(17)
Cd1B Cd -0.996499(9) 0.066490(14) -0.264310(9)
Cd1C Cd 0.003501(9) -0.066490(14) 0.235690(9)
loop_
_geom_bond_atom_site_label_1
_geom_bond_atom_site_label_2
_geom_bond_site_symmetry_1
_geom_bond_site_symmetry_2
C1 H1 1_555 1_555
C2 C1 1_555 1_555
H2 C2 1_555 1_555
C3 C2 1_555 1_555
H3 C3 1_555 1_555
C4 C3 1_555 1_555
C5 C4 1_555 1_555
C6 C5 1_555 1_555
C7 C6 1_555 1_555
H4 C7 1_555 1_555
C8 C7 1_555 1_555
H5 C8 1_555 1_555
C9 C8 1_555 1_555
H6 C9 1_555 1_555
C10 C5 1_555 1_555
C11 C10 1_555 1_555
H7 C11 1_555 1_555
C12 C11 1_555 1_555
H8 C12 1_555 1_555
C13 C12 1_555 1_555
C14 C13 1_555 1_555
H9 C14 1_555 1_555
C15 C10 1_555 1_555
H10 C15 1_555 1_555
C16 H11 1_555 1_555
C17 H12 1_555 1_555
C18 C17 1_555 1_555
H13 C18 1_555 1_555
C19 H14 1_555 1_555
C20 C19 1_555 1_555
H15 C20 1_555 1_555
C21 C20 1_555 1_555
H16 C21 1_555 1_555
C22 C21 1_555 1_555
C23 C22 1_555 1_555
C24 C23 1_555 1_555
C25 C24 1_555 1_555
H17 C25 1_555 1_555
C26 C25 1_555 1_555
H18 C26 1_555 1_555
C27 C26 1_555 1_555
H19 C27 1_555 1_555
C28 C23 1_555 1_555
C29 C28 1_555 1_555
H20 C29 1_555 1_555
C30 C29 1_555 1_555
H21 C30 1_555 1_555
C31 C30 1_555 1_555
C32 C31 1_555 1_555
H22 C32 1_555 1_555
C33 C28 1_555 1_555
H23 C33 1_555 1_555
C34 H24 1_555 1_555
C35 H25 1_555 1_555
C36 C35 1_555 1_555
H26 C36 1_555 1_555
N1 C1 1_555 1_555
N2 C6 1_555 1_555
N3 C13 1_555 1_555
N4 C16 1_555 1_555
N5 C19 1_555 1_555
N6 C24 1_555 1_555
N7 C31 1_555 1_555
N8 C34 1_555 1_555
Cd1 N1 1_555 1_555
N4B Cd1 1_555 1_555
N8C Cd1 1_555 1_555
Cd1B N4 1_555 1_555
Cd1C N8 1_555 1_555
C4 N1 1_555 1_555
C9 N2 1_555 1_555
C14 C15 1_555 1_555
C16 N3 1_555 1_555
C17 N4 1_555 1_555
C18 N3 1_555 1_555
C22 N5 1_555 1_555
C27 N6 1_555 1_555
C32 C33 1_555 1_555
C34 N7 1_555 1_555
C35 N8 1_555 1_555
C36 N7 1_555 1_555
N2 Cd1 1_555 1_555
N5 Cd1 1_555 1_555
N6 Cd1 1_555 1_555

#END
