
#######################################################################
#
#                 Cambridge Crystallographic Data Centre
#                                CCDC 
#
#######################################################################
#
# If this CIF has been generated from an entry in the Cambridge 
# Structural Database, then it will include bibliographic, chemical, 
# crystal, experimental, refinement or atomic coordinate data resulting 
# from the CCDC's data processing and validation procedures.
#
#######################################################################

data_ZESTUM
_symmetry_cell_setting           monoclinic
_symmetry_space_group_name_H-M   'P 21/n'
_symmetry_Int_Tables_number      14
_space_group_name_Hall           '-P 2yn'
loop_
_symmetry_equiv_pos_site_id
_symmetry_equiv_pos_as_xyz
1 x,y,z
2 1/2-x,1/2+y,1/2-z
3 -x,-y,-z
4 1/2+x,1/2-y,1/2+z
_cell_length_a                   10.312(2)
_cell_length_b                   11.825(2)
_cell_length_c                   22.299(4)
_cell_angle_alpha                90
_cell_angle_beta                 102.48(3)
_cell_angle_gamma                90
_cell_volume                     2654.88
loop_
_atom_site_label
_atom_site_type_symbol
_atom_site_fract_x
_atom_site_fract_y
_atom_site_fract_z
Sn1 Sn 0.19554(6) 0.11173(6) 0.25205(3)
P1 P 0.1621(3) -0.1442(2) 0.16105(12)
O1 O 0.1361(7) -0.0447(6) 0.1981(3)
O2 O 0.2580(7) -0.2298(6) 0.1923(3)
C1 C 0.0033(15) 0.1840(13) 0.2069(7)
H1 H -0.0625(15) 0.1247(13) 0.1959(7)
H2 H -0.0273(15) 0.2369(13) 0.2341(7)
C2 C 0.0253(18) 0.2444(16) 0.1497(7)
H3 H 0.0565(18) 0.1925(16) 0.1222(7)
H4 H 0.0886(18) 0.3057(16) 0.1602(7)
C3 C -0.1160(20) 0.2898(21) 0.1206(8)
H5 H -0.1817(20) 0.2301(21) 0.1112(8)
H6 H -0.1455(20) 0.3476(21) 0.1454(8)
C4 C -0.0774(12) 0.3377(16) 0.0635(7)
H7 H -0.1389(23) 0.3961(30) 0.0462(13)
H8 H -0.0796(23) 0.2785(20) 0.0338(5)
H9 H 0.0106(19) 0.3687(12) 0.0744(6)
C5 C 0.2092(12) 0.0235(12) 0.3360(6)
H10 H 0.2648(12) -0.0427(11) 0.3362(6)
H11 H 0.2514(12) 0.0719(12) 0.3697(5)
C6 C 0.0752(14) -0.0129(14) 0.3458(8)
H12 H 0.0325(14) -0.0644(14) 0.3137(8)
H13 H 0.0178(14) 0.0519(14) 0.3464(8)
C7 C 0.1067(16) -0.0731(20) 0.4094(9)
H14 H 0.1667(16) -0.1362(20) 0.4093(9)
H15 H 0.1466(16) -0.0209(20) 0.4417(9)
C8 C -0.0269(12) -0.1137(21) 0.4184(7)
H16 H -0.0321(13) -0.1944(19) 0.4138(17)
H17 H -0.0962(12) -0.0791(9) 0.3883(8)
H18 H -0.0373(20) -0.0934(42) 0.4588(6)
C9 C 0.3707(11) 0.1385(10) 0.2127(6)
H19 H 0.3481(11) 0.1277(10) 0.1685(6)
H20 H 0.4048(11) 0.2145(10) 0.2213(7)
C10 C 0.4720(13) 0.0532(11) 0.2421(6)
H21 H 0.4369(13) -0.0230(11) 0.2353(6)
H22 H 0.4989(13) 0.0663(11) 0.2860(6)
C11 C 0.5916(19) 0.0707(17) 0.2103(9)
H23 H 0.5662(19) 0.0459(17) 0.1679(9)
H24 H 0.6127(19) 0.1507(17) 0.2102(9)
C12 C 0.7149(33) 0.0057(36) 0.2425(12)
H25 H 0.7421(98) -0.045(10) 0.2138(22)
H26 H 0.6948(59) -0.037(12) 0.2760(48)
H27 H 0.7854(63) 0.0580(36) 0.2580(67)
C13 C 0.3292(9) -0.1510(6) 0.0808(5)
C14 C 0.3769(8) -0.1152(10) 0.0302(6)
C15 C 0.3157(12) -0.0258(11) -0.0055(4)
C16 C 0.2069(11) 0.0278(7) 0.0094(4)
C17 C 0.1592(7) -0.0080(7) 0.0600(4)
C18 C 0.2204(9) -0.0974(7) 0.0956(3)
H28 H 0.3717(14) -0.2131(8) 0.1056(8)
H29 H 0.4524(11) -0.1524(14) 0.0199(9)
H30 H 0.3488(18) -0.0009(15) -0.0406(5)
H31 H 0.1644(16) 0.0898(9) -0.0154(6)
H32 H 0.0836(9) 0.0292(11) 0.0703(7)
C19 C -0.1054(12) -0.1770(7) 0.1545(3)
C20 C -0.2269(9) -0.2300(11) 0.1332(5)
C21 C -0.2387(9) -0.3143(10) 0.0889(5)
C22 C -0.1291(13) -0.3455(6) 0.0658(4)
C23 C -0.0075(10) -0.2924(8) 0.0871(4)
C24 C 0.0043(8) -0.2082(7) 0.1314(4)
H33 H -0.0972(19) -0.1185(9) 0.1852(4)
H34 H -0.3031(13) -0.2084(16) 0.1493(8)
H35 H -0.3231(11) -0.3511(14) 0.0742(8)
H36 H -0.1372(20) -0.4040(8) 0.0351(5)
H37 H 0.0686(13) -0.3141(13) 0.0710(6)
O2A O 0.2420(7) 0.2702(6) 0.3077(3)
Sn1A Sn 0.30446(6) -0.38827(6) 0.24795(3)
loop_
_geom_bond_atom_site_label_1
_geom_bond_atom_site_label_2
_geom_bond_site_symmetry_1
_geom_bond_site_symmetry_2
Sn1 O1 1_555 1_555
P1 O1 1_555 1_555
O2 P1 1_555 1_555
C1 Sn1 1_555 1_555
H1 C1 1_555 1_555
H2 C1 1_555 1_555
C2 C1 1_555 1_555
H3 C2 1_555 1_555
H4 C2 1_555 1_555
C3 C2 1_555 1_555
H5 C3 1_555 1_555
H6 C3 1_555 1_555
C4 C3 1_555 1_555
H7 C4 1_555 1_555
H8 C4 1_555 1_555
H9 C4 1_555 1_555
C5 Sn1 1_555 1_555
H10 C5 1_555 1_555
H11 C5 1_555 1_555
C6 C5 1_555 1_555
H12 C6 1_555 1_555
H13 C6 1_555 1_555
C7 C6 1_555 1_555
H14 C7 1_555 1_555
H15 C7 1_555 1_555
C8 C7 1_555 1_555
H16 C8 1_555 1_555
H17 C8 1_555 1_555
H18 C8 1_555 1_555
C9 Sn1 1_555 1_555
H19 C9 1_555 1_555
H20 C9 1_555 1_555
C10 C9 1_555 1_555
H21 C10 1_555 1_555
H22 C10 1_555 1_555
C11 C10 1_555 1_555
H23 C11 1_555 1_555
H24 C11 1_555 1_555
C12 C11 1_555 1_555
H25 C12 1_555 1_555
H26 C12 1_555 1_555
H27 C12 1_555 1_555
C13 C14 1_555 1_555
C14 C15 1_555 1_555
C15 C16 1_555 1_555
C16 C17 1_555 1_555
C17 C18 1_555 1_555
C18 P1 1_555 1_555
H28 C13 1_555 1_555
H29 C14 1_555 1_555
H30 C15 1_555 1_555
H31 C16 1_555 1_555
H32 C17 1_555 1_555
C19 C20 1_555 1_555
C20 C21 1_555 1_555
C21 C22 1_555 1_555
C22 C23 1_555 1_555
C23 C24 1_555 1_555
C24 P1 1_555 1_555
H33 C19 1_555 1_555
H34 C20 1_555 1_555
H35 C21 1_555 1_555
H36 C22 1_555 1_555
H37 C23 1_555 1_555
O2A Sn1 1_555 1_555
Sn1A O2 1_555 1_555
C13 C18 1_555 1_555
C19 C24 1_555 1_555

#END
