
#######################################################################
#
#                 Cambridge Crystallographic Data Centre
#                                CCDC 
#
#######################################################################
#
# If this CIF has been generated from an entry in the Cambridge 
# Structural Database, then it will include bibliographic, chemical, 
# crystal, experimental, refinement or atomic coordinate data resulting 
# from the CCDC's data processing and validation procedures.
#
#######################################################################

data_ZESTIC
_symmetry_cell_setting           monoclinic
_symmetry_space_group_name_H-M   'C c'
_symmetry_Int_Tables_number      9
_space_group_name_Hall           'C -2yc'
loop_
_symmetry_equiv_pos_site_id
_symmetry_equiv_pos_as_xyz
1 x,y,z
2 x,-y,1/2+z
3 1/2+x,1/2+y,z
4 1/2+x,1/2-y,1/2+z
_cell_length_a                   24.6972(5)
_cell_length_b                   9.6072(2)
_cell_length_c                   18.2223(4)
_cell_angle_alpha                90
_cell_angle_beta                 107.7100(10)
_cell_angle_gamma                90
_cell_volume                     4118.72
loop_
_atom_site_label
_atom_site_type_symbol
_atom_site_fract_x
_atom_site_fract_y
_atom_site_fract_z
C1 C 0.53183(12) 0.4619(4) 0.25220(17)
H1 H 0.4978 0.5047 0.2509
C2 C 0.57528(18) 0.4300(4) 0.3207(2)
H2 H 0.5751 0.4471 0.3709
C3 C 0.61720(13) 0.3693(4) 0.29858(18)
H3 H 0.6515 0.3359 0.3309
C4 C 0.59894(10) 0.3661(3) 0.21604(15)
C5 C 0.62907(8) 0.3055(2) 0.17002(13)
C6 C 0.61000(10) 0.2849(2) 0.09032(14)
C7 C 0.64295(11) 0.2322(3) 0.04354(15)
H4 H 0.6810 0.2063 0.0610
C8 C 0.60962(12) 0.2268(4) -0.02904(15)
H5 H 0.6198 0.1962 -0.0715
C9 C 0.55506(10) 0.2771(3) -0.02913(14)
H6 H 0.5237 0.2856 -0.0728
C10 C 0.68811(9) 0.2546(3) 0.21118(13)
C11 C 0.70235(10) 0.1161(3) 0.20785(14)
H7 H 0.6754 0.0548 0.1781
C12 C 0.75531(11) 0.0673(3) 0.24749(15)
H8 H 0.7633 -0.0273 0.2479
C13 C 0.79638(9) 0.1598(3) 0.28660(12)
C14 C 0.78431(10) 0.2989(3) 0.28788(14)
H9 H 0.8124 0.3613 0.3137
C15 C 0.73005(9) 0.3455(3) 0.25055(15)
H10 H 0.7217 0.4397 0.2520
C16 C 0.87967(10) 0.1400(3) 0.40339(13)
H11 H 0.8666 0.2020 0.4333
C17 C 0.93114(11) -0.0065(3) 0.36650(15)
H12 H 0.9609 -0.0662 0.3671
C18 C 0.88557(13) 0.0189(4) 0.30396(17)
H13 H 0.8783 -0.0187 0.2549
C19 C 0.41212(9) 0.6823(2) 0.11894(13)
H14 H 0.4439 0.7392 0.1278
C20 C 0.35891(10) 0.7282(2) 0.12534(15)
H15 H 0.3496 0.8169 0.1381
C21 C 0.32401(9) 0.6125(2) 0.10858(12)
H16 H 0.2863 0.6080 0.1080
C22 C 0.35687(8) 0.5012(2) 0.09235(11)
C23 C 0.33789(8) 0.3623(2) 0.07682(11)
C24 C 0.36887(9) 0.2465(2) 0.06659(13)
C25 C 0.34592(10) 0.1103(2) 0.04517(14)
H17 H 0.3089 0.0812 0.0392
C26 C 0.38997(11) 0.0302(3) 0.03508(18)
H18 H 0.3886 -0.0628 0.0205
C27 C 0.43773(10) 0.1212(2) 0.05190(15)
H19 H 0.4734 0.0943 0.0498
C28 C 0.27632(8) 0.3382(2) 0.06654(12)
C29 C 0.25965(9) 0.2640(2) 0.12161(12)
H20 H 0.2870 0.2310 0.1654
C30 C 0.20219(9) 0.2390(2) 0.11158(13)
H21 H 0.1912 0.1905 0.1489
C31 C 0.16138(8) 0.2869(2) 0.04547(12)
C32 C 0.17761(8) 0.3620(2) -0.00973(12)
H22 H 0.1505 0.3943 -0.0539
C33 C 0.23530(9) 0.3882(2) 0.00245(13)
H23 H 0.2463 0.4405 -0.0335
C34 C 0.08238(9) 0.1401(2) 0.05464(15)
H24 H 0.1049 0.0654 0.0784
C35 C 0.01041(9) 0.2687(3) 0.00283(16)
H25 H -0.0269 0.3003 -0.0155
C36 C 0.05721(9) 0.3431(3) 0.00008(16)
H26 H 0.0578 0.4312 -0.0208
N1 N 0.54527(13) 0.4236(2) 0.18956(18)
N2 N 0.55553(7) 0.3101(2) 0.04205(11)
N3 N 0.85235(9) 0.1122(3) 0.32841(11)
N4 N 0.92701(12) 0.0684(2) 0.42853(16)
N5 N 0.41128(7) 0.54926(18) 0.09895(11)
N6 N 0.42599(7) 0.24817(19) 0.07082(10)
N7 N 0.10288(8) 0.2595(2) 0.03490(13)
N8 N 0.02621(7) 0.1424(2) 0.03602(11)
Cd1 Cd 0.482541(6) 0.435010(12) 0.066286(7)
N4C N 0.42701(12) 0.4316(2) -0.07147(16)
N8B N 0.52621(7) 0.6424(2) 0.03602(11)
Cd1B Cd -0.017459(6) -0.064990(12) 0.066286(7)
Cd1C Cd 0.982541(6) 0.064990(12) 0.566286(7)
loop_
_geom_bond_atom_site_label_1
_geom_bond_atom_site_label_2
_geom_bond_site_symmetry_1
_geom_bond_site_symmetry_2
C1 H1 1_555 1_555
C2 C1 1_555 1_555
H2 C2 1_555 1_555
C3 C2 1_555 1_555
H3 C3 1_555 1_555
C4 C3 1_555 1_555
C5 C4 1_555 1_555
C6 C5 1_555 1_555
C7 C6 1_555 1_555
H4 C7 1_555 1_555
C8 C7 1_555 1_555
H5 C8 1_555 1_555
C9 C8 1_555 1_555
H6 C9 1_555 1_555
C10 C5 1_555 1_555
C11 C10 1_555 1_555
H7 C11 1_555 1_555
C12 C11 1_555 1_555
H8 C12 1_555 1_555
C13 C12 1_555 1_555
C14 C13 1_555 1_555
H9 C14 1_555 1_555
C15 C10 1_555 1_555
H10 C15 1_555 1_555
C16 H11 1_555 1_555
C17 H12 1_555 1_555
C18 C17 1_555 1_555
H13 C18 1_555 1_555
C19 H14 1_555 1_555
C20 C19 1_555 1_555
H15 C20 1_555 1_555
C21 C20 1_555 1_555
H16 C21 1_555 1_555
C22 C21 1_555 1_555
C23 C22 1_555 1_555
C24 C23 1_555 1_555
C25 C24 1_555 1_555
H17 C25 1_555 1_555
C26 C25 1_555 1_555
H18 C26 1_555 1_555
C27 C26 1_555 1_555
H19 C27 1_555 1_555
C28 C23 1_555 1_555
C29 C28 1_555 1_555
H20 C29 1_555 1_555
C30 C29 1_555 1_555
H21 C30 1_555 1_555
C31 C30 1_555 1_555
C32 C31 1_555 1_555
H22 C32 1_555 1_555
C33 C28 1_555 1_555
H23 C33 1_555 1_555
C34 H24 1_555 1_555
C35 H25 1_555 1_555
C36 C35 1_555 1_555
H26 C36 1_555 1_555
N1 C1 1_555 1_555
N2 C6 1_555 1_555
N3 C13 1_555 1_555
N4 C16 1_555 1_555
N5 C19 1_555 1_555
N6 C24 1_555 1_555
N7 C31 1_555 1_555
N8 C34 1_555 1_555
Cd1 N1 1_555 1_555
N4C Cd1 1_555 1_555
N8B Cd1 1_555 1_555
Cd1B N8 1_555 1_555
Cd1C N4 1_555 1_555
C4 N1 1_555 1_555
C9 N2 1_555 1_555
C14 C15 1_555 1_555
C16 N3 1_555 1_555
C17 N4 1_555 1_555
C18 N3 1_555 1_555
C22 N5 1_555 1_555
C27 N6 1_555 1_555
C32 C33 1_555 1_555
C34 N7 1_555 1_555
C35 N8 1_555 1_555
C36 N7 1_555 1_555
N2 Cd1 1_555 1_555
N5 Cd1 1_555 1_555
N6 Cd1 1_555 1_555

#END
