
#######################################################################
#
#                 Cambridge Crystallographic Data Centre
#                                CCDC 
#
#######################################################################
#
# If this CIF has been generated from an entry in the Cambridge 
# Structural Database, then it will include bibliographic, chemical, 
# crystal, experimental, refinement or atomic coordinate data resulting 
# from the CCDC's data processing and validation procedures.
#
#######################################################################

data_ZESVAW
_symmetry_cell_setting           orthorhombic
_symmetry_space_group_name_H-M   'F d d 2'
_symmetry_Int_Tables_number      43
_space_group_name_Hall           'F 2 -2d'
loop_
_symmetry_equiv_pos_site_id
_symmetry_equiv_pos_as_xyz
1 x,y,z
2 -x,-y,z
3 1/4+x,1/4-y,1/4+z
4 1/4-x,1/4+y,1/4+z
5 x,1/2+y,1/2+z
6 -x,1/2-y,1/2+z
7 1/4+x,3/4-y,3/4+z
8 1/4-x,3/4+y,3/4+z
9 1/2+x,y,1/2+z
10 1/2-x,-y,1/2+z
11 3/4+x,1/4-y,3/4+z
12 3/4-x,1/4+y,3/4+z
13 1/2+x,1/2+y,z
14 1/2-x,1/2-y,z
15 3/4+x,3/4-y,1/4+z
16 3/4-x,3/4+y,1/4+z
_cell_length_a                   19.7582(9)
_cell_length_b                   55.481(3)
_cell_length_c                   9.2647(4)
_cell_angle_alpha                90
_cell_angle_beta                 90
_cell_angle_gamma                90
_cell_volume                     10156
loop_
_atom_site_label
_atom_site_type_symbol
_atom_site_fract_x
_atom_site_fract_y
_atom_site_fract_z
C1 C 0.1022(4) 0.10248(12) 0.3615(7)
H1 H 0.1085 0.0971 0.2674
C2 C 0.0540(4) 0.11989(12) 0.4025(7)
H2 H 0.0234 0.1277 0.3423
C3 C 0.0609(3) 0.12308(12) 0.5471(7)
H3 H 0.0368 0.1338 0.6047
C4 C 0.1124(3) 0.10679(11) 0.5935(6)
C5 C 0.1309(3) 0.10308(9) 0.7394(6)
C6 C 0.1794(3) 0.08698(10) 0.7935(6)
C7 C 0.1912(3) 0.08224(11) 0.9437(6)
H4 H 0.1693 0.0894 1.0216
C8 C 0.2420(3) 0.06480(11) 0.9499(10)
H5 H 0.2608 0.0579 1.0320
C9 C 0.2587(3) 0.05996(11) 0.8046(7)
H6 H 0.2917 0.0489 0.7770
C10 C 0.0962(3) 0.11860(10) 0.8480(6)
C11 C 0.0920(3) 0.15491(11) 0.9880(7)
H7 H 0.1114 0.1696 1.0121
C12 C 0.0063(3) 0.12728(11) 1.0148(7)
H8 H -0.0340 0.1225 1.0579
C13 C 0.0367(3) 0.11215(11) 0.9127(7)
H9 H 0.0162 0.0976 0.8887
C14 C 0.1244(3) 0.14033(11) 0.8866(7)
H10 H 0.1649 0.1453 0.8451
C15 C 0.3899(4) 0.06387(12) 0.5535(7)
H11 H 0.3881 0.0769 0.6165
C16 C 0.4499(4) 0.05125(13) 0.5204(8)
H12 H 0.4930 0.0542 0.5568
C17 C 0.4316(3) 0.03384(11) 0.4240(7)
H13 H 0.4601 0.0225 0.3815
C18 C 0.3607(3) 0.03618(9) 0.4006(6)
C19 C 0.3204(3) 0.02200(10) 0.3077(6)
C20 C 0.2519(3) 0.02356(11) 0.2755(7)
C21 C 0.2147(4) 0.00749(12) 0.1854(8)
H14 H 0.2315 -0.0061 0.1384
C22 C 0.1500(4) 0.01582(14) 0.1815(9)
H15 H 0.1141 0.0091 0.1306
C23 C 0.1478(4) 0.03640(13) 0.2687(8)
H16 H 0.1090 0.0454 0.2857
C24 C 0.3588(3) 0.00258(10) 0.2344(9)
C25 C 0.3853(5) 0.00650(16) 0.0953(10)
H17 H 0.3772 0.0208 0.0463
C26 C 0.4241(6) -0.01175(19) 0.0331(11)
H18 H 0.4412 -0.0091 -0.0591
C27 C 0.4109(4) -0.03592(11) 0.2257(14)
H19 H 0.4191 -0.0505 0.2723
C28 C 0.3713(4) -0.01912(13) 0.2948(10)
H20 H 0.3529 -0.0228 0.3845
Cd1 Cd 0.23271(2) 0.072390(7) 0.46794(5)
N1 N 0.1378(2) 0.09459(8) 0.4750(6)
N2 N 0.2223(2) 0.07282(7) 0.7110(5)
N3 N 0.3366(2) 0.05524(8) 0.4855(6)
N4 N 0.2084(3) 0.04143(9) 0.3244(6)
N5 N 0.0336(3) 0.14845(8) 1.0522(5)
N6 N 0.4380(4) -0.03253(12) 0.0965(10)
Cd1J Cd -0.01729(2) 0.177610(7) 1.21794(5)
N5B N 0.2836(3) 0.10155(8) 0.3022(5)
O1 O 0.2033(5) 0.18689(16) 0.7986(9)
H21 H 0.2234 0.1992 0.8214
C29 C 0.1960(6) 0.18614(19) 0.6527(12)
H22 H 0.2037 0.2019 0.6133
H23 H 0.1509 0.1810 0.6292
H24 H 0.2281 0.1750 0.6127
loop_
_geom_bond_atom_site_label_1
_geom_bond_atom_site_label_2
_geom_bond_site_symmetry_1
_geom_bond_site_symmetry_2
C1 H1 1_555 1_555
C2 C1 1_555 1_555
H2 C2 1_555 1_555
C3 C2 1_555 1_555
H3 C3 1_555 1_555
C4 C3 1_555 1_555
C5 C4 1_555 1_555
C6 C5 1_555 1_555
C7 C6 1_555 1_555
H4 C7 1_555 1_555
C8 C7 1_555 1_555
H5 C8 1_555 1_555
C9 C8 1_555 1_555
H6 C9 1_555 1_555
C10 C5 1_555 1_555
C11 H7 1_555 1_555
C12 H8 1_555 1_555
C13 C10 1_555 1_555
H9 C13 1_555 1_555
C14 C10 1_555 1_555
H10 C14 1_555 1_555
C15 H11 1_555 1_555
C16 C15 1_555 1_555
H12 C16 1_555 1_555
C17 C16 1_555 1_555
H13 C17 1_555 1_555
C18 C17 1_555 1_555
C19 C18 1_555 1_555
C20 C19 1_555 1_555
C21 C20 1_555 1_555
H14 C21 1_555 1_555
C22 C21 1_555 1_555
H15 C22 1_555 1_555
C23 C22 1_555 1_555
H16 C23 1_555 1_555
C24 C19 1_555 1_555
C25 C24 1_555 1_555
H17 C25 1_555 1_555
C26 C25 1_555 1_555
H18 C26 1_555 1_555
C27 H19 1_555 1_555
C28 C24 1_555 1_555
H20 C28 1_555 1_555
Cd1 N1 1_555 1_555
N1 C1 1_555 1_555
N2 C6 1_555 1_555
N3 C15 1_555 1_555
N4 C20 1_555 1_555
N5 C11 1_555 1_555
N6 C26 1_555 1_555
O1 H21 1_555 1_555
C29 O1 1_555 1_555
H22 C29 1_555 1_555
H23 C29 1_555 1_555
H24 C29 1_555 1_555
Cd1J N5 1_555 1_555
N5B Cd1 1_555 1_555
C4 N1 1_555 1_555
C9 N2 1_555 1_555
C11 C14 1_555 1_555
C12 C13 1_555 1_555
C12 N5 1_555 1_555
C18 N3 1_555 1_555
C23 N4 1_555 1_555
C27 C28 1_555 1_555
C27 N6 1_555 1_555
Cd1 N2 1_555 1_555
Cd1 N3 1_555 1_555
Cd1 N4 1_555 1_555

#END
