
#######################################################################
#
#                 Cambridge Crystallographic Data Centre
#                                CCDC 
#
#######################################################################
#
# If this CIF has been generated from an entry in the Cambridge 
# Structural Database, then it will include bibliographic, chemical, 
# crystal, experimental, refinement or atomic coordinate data resulting 
# from the CCDC's data processing and validation procedures.
#
#######################################################################

data_ZESXEA
_symmetry_cell_setting           monoclinic
_symmetry_space_group_name_H-M   'P 21/c'
_symmetry_Int_Tables_number      14
_space_group_name_Hall           '-P 2ybc'
loop_
_symmetry_equiv_pos_site_id
_symmetry_equiv_pos_as_xyz
1 x,y,z
2 -x,1/2+y,1/2-z
3 -x,-y,-z
4 x,1/2-y,1/2+z
_cell_length_a                   21.212(4)
_cell_length_b                   5.033(1)
_cell_length_c                   14.246(2)
_cell_angle_alpha                90
_cell_angle_beta                 100.72(1)
_cell_angle_gamma                90
_cell_volume                     1494.36
loop_
_atom_site_label
_atom_site_type_symbol
_atom_site_fract_x
_atom_site_fract_y
_atom_site_fract_z
Cu1 Cu 0.25559(2) 0.15939(9) 0.54240(3)
Mn1 Mn 0.00000 0.00000 0.50000
Mn2 Mn 0.50000 0.00000 0.50000
O1 O 0.0682(1) 0.2747(5) 0.4586(2)
O2 O 0.0912(1) -0.1229(5) 0.5883(2)
O3 O 0.1961(1) -0.0567(5) 0.6035(2)
O4 O 0.3289(1) -0.0669(5) 0.5967(2)
O5 O 0.4177(1) 0.2433(6) 0.4425(2)
O6 O 0.4294(1) -0.1389(6) 0.5794(2)
O7 O 0.2142(1) 0.1817(6) 0.3015(2)
O8 O 0.0165(1) -0.2572(6) 0.3814(2)
O9 O 0.4681(1) -0.2898(7) 0.3842(2)
O10 O 0.2875(2) 0.4470(6) 0.6702(2)
N1 N 0.1780(1) 0.3196(6) 0.4739(2)
N2 N 0.3125(1) 0.2932(6) 0.4613(2)
C1 C 0.1386(1) -0.0034(7) 0.5687(2)
C2 C 0.1261(1) 0.2190(7) 0.4936(2)
C3 C 0.1759(2) 0.5121(8) 0.3975(3)
C4 C 0.2248(2) 0.4476(8) 0.3349(2)
C5 C 0.2947(2) 0.4789(8) 0.3825(3)
C6 C 0.3693(2) 0.1928(8) 0.4808(2)
C7 C 0.3771(2) -0.0205(8) 0.5590(3)
H1 H 0.187(2) 0.683(8) 0.429(3)
H2 H 0.132(2) 0.520(8) 0.358(3)
H3 H 0.218(2) 0.572(7) 0.278(2)
H4 H 0.323(2) 0.445(8) 0.334(3)
H5 H 0.302(1) 0.646(7) 0.403(2)
H6 H 0.1796 0.0839 0.2695
H7 H 0.0410 -0.4570 0.3945
H8 H 0.0410 -0.2070 0.3320
H9 H 0.4433 -0.4570 0.4160
H10 H 0.4433 -0.2070 0.3320
H11 H 0.2773 0.4570 0.7070
H12 H 0.2636 0.5820 0.6445
O1B O -0.0682(1) -0.2747(5) 0.5414(2)
O2B O -0.0912(1) 0.1229(5) 0.4117(2)
O3B O -0.1961(1) 0.0567(5) 0.3965(2)
O4B O -0.3289(1) 0.0669(5) 0.4033(2)
O5B O -0.4177(1) -0.2433(6) 0.5575(2)
O6B O -0.4294(1) 0.1389(6) 0.4206(2)
O7B O -0.2142(1) -0.1817(6) 0.6985(2)
N1B N -0.1780(1) -0.3196(6) 0.5261(2)
N2B N -0.3125(1) -0.2932(6) 0.5387(2)
C1B C -0.1386(1) 0.0034(7) 0.4313(2)
C2B C -0.1261(1) -0.2190(7) 0.5064(2)
C3B C -0.1759(2) -0.5121(8) 0.6025(3)
C4B C -0.2248(2) -0.4476(8) 0.6651(2)
C5B C -0.2947(2) -0.4789(8) 0.6175(3)
C6B C -0.3693(2) -0.1928(8) 0.5192(2)
C7B C -0.3771(2) 0.0205(8) 0.4410(3)
H1B H -0.187(2) -0.683(8) 0.571(3)
H2B H -0.132(2) -0.520(8) 0.642(3)
H3B H -0.218(2) -0.572(7) 0.722(2)
H4B H -0.323(2) -0.445(8) 0.666(3)
H5B H -0.302(1) -0.646(7) 0.597(2)
H6B H -0.1796 -0.0839 0.7305
O8B O -0.0165(1) 0.2572(6) 0.6186(2)
H7B H -0.0410 0.4570 0.6055
H8B H -0.0410 0.2070 0.6680
Cu1B Cu -0.25559(2) -0.15939(9) 0.45760(3)
O9B O 0.5319(1) 0.2898(7) 0.6158(2)
H9B H 0.5567 0.4570 0.5840
H10B H 0.5567 0.2070 0.6680
O10B O -0.2875(2) -0.4470(6) 0.3298(2)
H11B H -0.2773 -0.4570 0.2930
H12B H -0.2636 -0.5820 0.3555
O5B_2 O 0.5823(1) -0.2433(6) 0.5575(2)
O6B_2 O 0.5706(1) 0.1389(6) 0.4206(2)
Mn2_2 Mn -0.50000 0.00000 0.50000
O11 O 0.0902(2) -0.4894(8) 0.7370(3)
O12 O 0.4241(2) -0.536(1) 0.7182(3)
loop_
_geom_bond_atom_site_label_1
_geom_bond_atom_site_label_2
_geom_bond_site_symmetry_1
_geom_bond_site_symmetry_2
Cu1 O3 1_555 1_555
Mn1 O1 1_555 1_555
Mn2 O5 1_555 1_555
O1 C2 1_555 1_555
O2 Mn1 1_555 1_555
O3 C1 1_555 1_555
O4 Cu1 1_555 1_555
O5 C6 1_555 1_555
O6 Mn2 1_555 1_555
O7 C4 1_555 1_555
O8 Mn1 1_555 1_555
O9 Mn2 1_555 1_555
O10 Cu1 1_555 1_555
N1 Cu1 1_555 1_555
N2 Cu1 1_555 1_555
C1 O2 1_555 1_555
C2 N1 1_555 1_555
C3 N1 1_555 1_555
C4 C3 1_555 1_555
C5 N2 1_555 1_555
C6 N2 1_555 1_555
C7 O4 1_555 1_555
H1 C3 1_555 1_555
H2 C3 1_555 1_555
H3 C4 1_555 1_555
H4 C5 1_555 1_555
H5 C5 1_555 1_555
H6 O7 1_555 1_555
H7 O8 1_555 1_555
H8 O8 1_555 1_555
H9 O9 1_555 1_555
H10 O9 1_555 1_555
H11 O10 1_555 1_555
H12 O10 1_555 1_555
O1B Mn1 1_555 1_555
O2B Mn1 1_555 1_555
O3B C1B 1_555 1_555
O4B C7B 1_555 1_555
O5B C6B 1_555 1_555
O6B C7B 1_555 1_555
O7B C4B 1_555 1_555
N1B C2B 1_555 1_555
N2B C5B 1_555 1_555
C1B O2B 1_555 1_555
C2B O1B 1_555 1_555
C3B N1B 1_555 1_555
C4B C3B 1_555 1_555
C5B C4B 1_555 1_555
C6B N2B 1_555 1_555
C7B C6B 1_555 1_555
H1B C3B 1_555 1_555
H2B C3B 1_555 1_555
H3B C4B 1_555 1_555
H4B C5B 1_555 1_555
H5B C5B 1_555 1_555
H6B O7B 1_555 1_555
O8B Mn1 1_555 1_555
H7B O8B 1_555 1_555
H8B O8B 1_555 1_555
Cu1B O3B 1_555 1_555
O9B Mn2 1_555 1_555
H9B O9B 1_555 1_555
H10B O9B 1_555 1_555
O10B Cu1B 1_555 1_555
H11B O10B 1_555 1_555
H12B O10B 1_555 1_555
O5B_2 Mn2 1_555 1_555
O6B_2 Mn2 1_555 1_555
Mn2_2 O5B 1_555 1_555
O6 C7 1_555 1_555
C1 C2 1_555 1_555
C4 C5 1_555 1_555
C6 C7 1_555 1_555
O4B Cu1B 1_555 1_555
O6B Mn2_2 1_555 1_555
N1B Cu1B 1_555 1_555
N2B Cu1B 1_555 1_555
C1B C2B 1_555 1_555

#END
