
#######################################################################
#
#                 Cambridge Crystallographic Data Centre
#                                CCDC 
#
#######################################################################
#
# If this CIF has been generated from an entry in the Cambridge 
# Structural Database, then it will include bibliographic, chemical, 
# crystal, experimental, refinement or atomic coordinate data resulting 
# from the CCDC's data processing and validation procedures.
#
#######################################################################

data_ZETKOA
_symmetry_cell_setting           monoclinic
_symmetry_space_group_name_H-M   'P 21/c'
_symmetry_Int_Tables_number      14
_space_group_name_Hall           '-P 2ybc'
loop_
_symmetry_equiv_pos_site_id
_symmetry_equiv_pos_as_xyz
1 x,y,z
2 -x,1/2+y,1/2-z
3 -x,-y,-z
4 x,1/2-y,1/2+z
_cell_length_a                   13.8543(12)
_cell_length_b                   24.785(2)
_cell_length_c                   16.1825(15)
_cell_angle_alpha                90
_cell_angle_beta                 114.661(5)
_cell_angle_gamma                90
_cell_volume                     5049.91
loop_
_atom_site_label
_atom_site_type_symbol
_atom_site_fract_x
_atom_site_fract_y
_atom_site_fract_z
Zn1 Zn 0.31170(8) 0.33967(3) 0.29081(7)
Zn2 Zn 0.39761(7) 0.33562(3) 0.51458(6)
O1 O 0.4314(5) 0.3361(2) 0.2273(4)
O2 O 0.3669(4) 0.4096(2) 0.2595(4)
O3 O 0.6936(4) 0.51221(19) 0.1238(4)
O4 O 0.6384(4) 0.75837(19) 0.0191(4)
O5 O 0.6738(4) 0.7650(2) 0.1652(4)
O6 O 0.2176(4) 0.3774(2) 0.3387(4)
O7 O 0.2597(4) 0.3683(2) 0.4851(4)
O8 O -0.1813(4) 0.4866(2) 0.3630(4)
O9 O -0.5143(5) 0.4187(2) 0.5187(5)
O10 O -0.5170(5) 0.3465(2) 0.4426(4)
N1 N 0.1886(5) 0.3157(3) 0.1688(4)
C1 C 0.2214(5) 0.2760(3) 0.1253(5)
H1 H 0.2930 0.2640 0.1512
C2 C 0.1493(7) 0.2540(3) 0.0440(5)
H2 H 0.1717 0.2269 0.0143
C3 C 0.0445(6) 0.2715(4) 0.0061(5)
C4 C 0.0117(5) 0.3112(4) 0.0495(6)
H3 H -0.0599 0.3232 0.0236
C5 C 0.0838(6) 0.3333(3) 0.1309(6)
H4 H 0.0614 0.3604 0.1605
C6 C -0.0206(10) 0.2484(7) -0.0829(7)
H5 H 0.0116 0.2211 -0.1041
C7 C -0.1194(11) 0.2613(7) -0.1370(8)
H6 H -0.1587 0.2824 -0.1128
C8 C -0.1714(14) 0.2449(7) -0.2322(7)
C9 C -0.1521(13) 0.1991(6) -0.2678(8)
H7 H -0.0995 0.1745 -0.2303
C10 C -0.2113(9) 0.1879(6) -0.3624(7)
H8 H -0.2002 0.1561 -0.3899
C11 C -0.2880(9) 0.2274(6) -0.4129(6)
C12 C -0.3023(13) 0.2708(8) -0.3690(9)
H9 H -0.3564 0.2956 -0.4034
C13 C -0.2508(12) 0.2806(9) -0.2882(9)
H10 H -0.2646 0.3128 -0.2630
C14 C -0.3524(8) 0.2206(6) -0.5102(6)
H11 H -0.3991 0.2496 -0.5393
C15 C -0.3547(9) 0.1811(5) -0.5615(5)
H12 H -0.3145 0.1500 -0.5331
C16 C -0.4788(7) 0.1276(4) -0.7950(6)
H13 H -0.4847 0.0931 -0.8222
C17 C -0.4224(7) 0.1315(4) -0.7039(7)
H14 H -0.3883 0.1005 -0.6699
C18 C -0.4139(7) 0.1797(5) -0.6601(5)
C19 C -0.4674(8) 0.2235(4) -0.7146(6)
H15 H -0.4678 0.2574 -0.6872
C20 C -0.5187(7) 0.2179(4) -0.8065(6)
H16 H -0.5498 0.2490 -0.8421
N2 N -0.5275(5) 0.1698(2) -0.8498(5)
C21 C 0.4271(6) 0.3861(4) 0.2302(5)
C22 C 0.4940(6) 0.4196(3) 0.1969(5)
C23 C 0.4843(7) 0.4750(3) 0.1953(6)
H17 H 0.4336 0.4912 0.2129
C24 C 0.5472(6) 0.5071(3) 0.1686(6)
H18 H 0.5376 0.5451 0.1646
C25 C 0.6231(6) 0.4838(3) 0.1480(5)
C26 C 0.6334(6) 0.4279(3) 0.1499(5)
H19 H 0.6860 0.4118 0.1346
C27 C 0.5694(6) 0.3967(3) 0.1732(5)
H20 H 0.5762 0.3586 0.1734
C28 C 0.6604(6) 0.7389(3) 0.0948(6)
C29 C 0.6721(5) 0.6787(3) 0.1045(5)
C30 C 0.6471(8) 0.6475(3) 0.0293(6)
H21 H 0.6268 0.6639 -0.0286
C31 C 0.6514(8) 0.5909(3) 0.0372(7)
H22 H 0.6300 0.5690 -0.0157
C32 C 0.6856(6) 0.5680(3) 0.1193(6)
C33 C 0.7137(7) 0.5986(3) 0.1957(6)
H23 H 0.7392 0.5821 0.2539
C34 C 0.7046(7) 0.6534(3) 0.1876(6)
H24 H 0.7212 0.6747 0.2406
C35 C 0.2001(6) 0.3831(3) 0.4065(7)
C36 C 0.0987(6) 0.4111(3) 0.3953(5)
C37 C 0.0337(6) 0.4348(3) 0.3148(6)
H25 H 0.0534 0.4343 0.2651
C38 C -0.0607(7) 0.4597(4) 0.3047(6)
H26 H -0.1052 0.4764 0.2489
C39 C -0.0875(6) 0.4597(3) 0.3754(6)
C40 C -0.0246(6) 0.4365(3) 0.4568(5)
H27 H -0.0450 0.4375 0.5061
C41 C 0.0681(5) 0.4117(3) 0.4666(5)
H28 H 0.1116 0.3949 0.5226
C42 C -0.4808(6) 0.3929(3) 0.4693(5)
C43 C -0.3997(6) 0.4175(3) 0.4428(5)
C44 C -0.3811(5) 0.4728(3) 0.4503(5)
H29 H -0.4191 0.4954 0.4738
C45 C -0.3082(6) 0.4946(3) 0.4237(5)
H30 H -0.2979 0.5326 0.4263
C46 C -0.2498(5) 0.4623(3) 0.3935(5)
C47 C -0.2658(6) 0.4065(3) 0.3883(6)
H31 H -0.2244 0.3838 0.3685
C48 C -0.3409(6) 0.3849(3) 0.4118(5)
H32 H -0.3531 0.3470 0.4069
Zn1A Zn 0.68830(8) 0.83967(3) 0.20919(7)
Zn2_2 Zn -0.60239(7) 0.33562(3) 0.51458(6)
Zn2A Zn 0.60239(7) 0.83562(3) -0.01458(6)
Zn2C Zn -0.60239(7) 0.16438(3) -0.98542(6)
O4A O 0.3616(4) 0.25837(19) 0.4809(4)
O5A O 0.3262(4) 0.2650(2) 0.3348(4)
O9_2 O 0.4857(5) 0.4187(2) 0.5187(5)
O10_2 O 0.4830(5) 0.3465(2) 0.4426(4)
N2C N 0.4725(5) 0.3302(2) 0.6502(5)
N3 N 0.0435(17) 0.6260(11) 0.3032(16)
O11 O -0.0296(18) 0.5817(16) 0.1746(18)
C49 C -0.022(4) 0.625(2) 0.214(4)
H33 H -0.0594 0.6564 0.1827
C50 C 0.132(2) 0.5853(11) 0.3413(18)
H34 H 0.1722 0.5915 0.4067
H35 H 0.1801 0.5893 0.3109
H36 H 0.1026 0.5488 0.3312
C51 C 0.024(3) 0.6688(14) 0.346(2)
H37 H -0.0447 0.6849 0.3072
H38 H 0.0802 0.6957 0.3598
H39 H 0.0219 0.6566 0.4033
N4 N 0.1513(13) 0.5065(11) 0.041(2)
O12 O 0.1619(19) 0.5798(7) -0.037(2)
C52 C 0.164(2) 0.5363(13) -0.0198(18)
H40 H 0.1781 0.5148 -0.0619
C53 C 0.154(2) 0.4535(12) 0.0594(18)
H41 H 0.1491 0.4325 0.0066
H42 H 0.0933 0.4445 0.0736
H43 H 0.2201 0.4449 0.1118
C54 C 0.170(4) 0.553(2) 0.140(3)
H44 H 0.1761 0.5901 0.1230
H45 H 0.2343 0.5424 0.1927
H46 H 0.1083 0.5495 0.1546
O13 O 0.3264(14) 0.5166(6) 0.3168(10)
loop_
_geom_bond_atom_site_label_1
_geom_bond_atom_site_label_2
_geom_bond_site_symmetry_1
_geom_bond_site_symmetry_2
Zn1 O1 1_555 1_555
Zn2 O7 1_555 1_555
O1 C21 1_555 1_555
O2 Zn1 1_555 1_555
O3 C25 1_555 1_555
O4 C28 1_555 1_555
O5 C28 1_555 1_555
O6 Zn1 1_555 1_555
O7 C35 1_555 1_555
O8 C39 1_555 1_555
O9 C42 1_555 1_555
O10 C42 1_555 1_555
N1 Zn1 1_555 1_555
C1 N1 1_555 1_555
H1 C1 1_555 1_555
C2 C1 1_555 1_555
H2 C2 1_555 1_555
C3 C2 1_555 1_555
C4 C3 1_555 1_555
H3 C4 1_555 1_555
C5 N1 1_555 1_555
H4 C5 1_555 1_555
C6 C3 1_555 1_555
H5 C6 1_555 1_555
C7 C6 1_555 1_555
H6 C7 1_555 1_555
C8 C7 1_555 1_555
C9 C8 1_555 1_555
H7 C9 1_555 1_555
C10 C9 1_555 1_555
H8 C10 1_555 1_555
C11 C10 1_555 1_555
C12 C11 1_555 1_555
H9 C12 1_555 1_555
C13 C8 1_555 1_555
H10 C13 1_555 1_555
C14 C11 1_555 1_555
H11 C14 1_555 1_555
C15 C14 1_555 1_555
H12 C15 1_555 1_555
C16 H13 1_555 1_555
C17 C16 1_555 1_555
H14 C17 1_555 1_555
C18 C15 1_555 1_555
C19 C18 1_555 1_555
H15 C19 1_555 1_555
C20 C19 1_555 1_555
H16 C20 1_555 1_555
N2 C16 1_555 1_555
C21 O2 1_555 1_555
C22 C21 1_555 1_555
C23 C22 1_555 1_555
H17 C23 1_555 1_555
C24 C23 1_555 1_555
H18 C24 1_555 1_555
C25 C24 1_555 1_555
C26 C25 1_555 1_555
H19 C26 1_555 1_555
C27 C22 1_555 1_555
H20 C27 1_555 1_555
C28 C29 1_555 1_555
C29 C30 1_555 1_555
C30 H21 1_555 1_555
C31 C30 1_555 1_555
H22 C31 1_555 1_555
C32 O3 1_555 1_555
C33 C32 1_555 1_555
H23 C33 1_555 1_555
C34 C29 1_555 1_555
H24 C34 1_555 1_555
C35 O6 1_555 1_555
C36 C35 1_555 1_555
C37 C36 1_555 1_555
H25 C37 1_555 1_555
C38 C37 1_555 1_555
H26 C38 1_555 1_555
C39 C38 1_555 1_555
C40 C39 1_555 1_555
H27 C40 1_555 1_555
C41 C36 1_555 1_555
H28 C41 1_555 1_555
C42 C43 1_555 1_555
C43 C44 1_555 1_555
C44 H29 1_555 1_555
C45 C44 1_555 1_555
H30 C45 1_555 1_555
C46 O8 1_555 1_555
C47 C46 1_555 1_555
H31 C47 1_555 1_555
C48 C43 1_555 1_555
H32 C48 1_555 1_555
N3 C49 1_555 1_555
O11 C49 1_555 1_555
C49 H33 1_555 1_555
C50 N3 1_555 1_555
H34 C50 1_555 1_555
H35 C50 1_555 1_555
H36 C50 1_555 1_555
C51 N3 1_555 1_555
H37 C51 1_555 1_555
H38 C51 1_555 1_555
H39 C51 1_555 1_555
N4 C52 1_555 1_555
O12 C52 1_555 1_555
C52 H40 1_555 1_555
C53 N4 1_555 1_555
H41 C53 1_555 1_555
H42 C53 1_555 1_555
H43 C53 1_555 1_555
C54 N4 1_555 1_555
H44 C54 1_555 1_555
H45 C54 1_555 1_555
H46 C54 1_555 1_555
Zn1A O5 1_555 1_555
Zn2_2 O9 1_555 1_555
Zn2A O4 1_555 1_555
Zn2C N2 1_555 1_555
O4A Zn2 1_555 1_555
O5A Zn1 1_555 1_555
O9_2 Zn2 1_555 1_555
O10_2 Zn2 1_555 1_555
N2C Zn2 1_555 1_555
O10 Zn2_2 1_555 1_555
C4 C5 1_555 1_555
C12 C13 1_555 1_555
C17 C18 1_555 1_555
C20 N2 1_555 1_555
C26 C27 1_555 1_555
C31 C32 1_555 1_555
C33 C34 1_555 1_555
C40 C41 1_555 1_555
C45 C46 1_555 1_555
C47 C48 1_555 1_555

#END
