
#######################################################################
#
#                 Cambridge Crystallographic Data Centre
#                                CCDC 
#
#######################################################################
#
# If this CIF has been generated from an entry in the Cambridge 
# Structural Database, then it will include bibliographic, chemical, 
# crystal, experimental, refinement or atomic coordinate data resulting 
# from the CCDC's data processing and validation procedures.
#
#######################################################################

data_ZETKUG
_symmetry_cell_setting           monoclinic
_symmetry_space_group_name_H-M   'P 21/c'
_symmetry_Int_Tables_number      14
_space_group_name_Hall           '-P 2ybc'
loop_
_symmetry_equiv_pos_site_id
_symmetry_equiv_pos_as_xyz
1 x,y,z
2 -x,1/2+y,1/2-z
3 -x,-y,-z
4 x,1/2-y,1/2+z
_cell_length_a                   14.1813(5)
_cell_length_b                   23.7512(9)
_cell_length_c                   14.7554(5)
_cell_angle_alpha                90
_cell_angle_beta                 106.884(2)
_cell_angle_gamma                90
_cell_volume                     4755.73
loop_
_atom_site_label
_atom_site_type_symbol
_atom_site_fract_x
_atom_site_fract_y
_atom_site_fract_z
Zn1 Zn 0.37136(4) 0.33684(2) 0.52114(4)
Zn2 Zn 0.29709(5) 0.34182(2) 0.28543(4)
O1 O 0.2401(2) 0.37065(14) 0.5068(2)
O2 O 0.2212(3) 0.38384(15) 0.3535(3)
O3 O -0.1812(3) 0.48338(17) 0.3728(3)
O4 O 0.3304(3) 0.25822(13) 0.4899(2)
O5 O 0.3004(3) 0.26374(13) 0.3341(2)
O6 O 0.2787(3) 0.00089(13) 0.3846(3)
O7 O 0.5765(3) -0.15906(14) 0.2593(3)
O8 O 0.6530(4) -0.08038(16) 0.2671(3)
N1 N 0.4516(3) 0.33580(15) 0.6584(3)
C1 C 0.4559(4) 0.2896(2) 0.7120(3)
H1 H 0.4121 0.2595 0.6868
C2 C 0.5198(4) 0.2834(2) 0.8006(4)
H2 H 0.5185 0.2504 0.8365
C3 C 0.5873(4) 0.3266(2) 0.8376(4)
C4 C 0.5818(4) 0.3738(2) 0.7802(4)
H3 H 0.6261 0.4042 0.8023
C5 C 0.5152(4) 0.3775(2) 0.6943(4)
H4 H 0.5133 0.4106 0.6578
C6 C 0.6607(5) 0.3237(3) 0.9301(5)
H5 H 0.7122 0.3508 0.9434
C7 C 0.6616(5) 0.2871(3) 0.9959(5)
H6 H 0.6074 0.2619 0.9830
C8 C 0.7371(5) 0.2801(3) 1.0885(4)
C9 C 0.7205(5) 0.2416(4) 1.1504(5)
H7 H 0.6609 0.2207 1.1341
C10 C 0.7897(6) 0.2327(4) 1.2367(5)
H8 H 0.7772 0.2054 1.2789
C11 C 0.8783(5) 0.2632(3) 1.2633(4)
C12 C 0.8920(5) 0.3033(3) 1.2017(4)
H9 H 0.9502 0.3255 1.2185
C13 C 0.8223(5) 0.3119(3) 1.1151(4)
H10 H 0.8333 0.3400 1.0734
C14 C 0.9539(5) 0.2528(3) 1.3533(5)
H11 H 1.0010 0.2819 1.3756
C15 C 0.9636(5) 0.2070(3) 1.4067(4)
H12 H 0.9154 0.1784 1.3857
C16 C 1.0398(5) 0.1967(3) 1.4933(4)
C17 C 1.0537(5) 0.1440(3) 1.5337(4)
H13 H 1.0119 0.1139 1.5038
C18 C 1.1267(5) 0.1340(3) 1.6161(4)
H14 H 1.1343 0.0970 1.6414
C19 C 1.1766(4) 0.2259(2) 1.6232(4)
H15 H 1.2202 0.2550 1.6541
C20 C 1.1057(5) 0.2382(3) 1.5413(4)
H16 H 1.1008 0.2754 1.5165
N2 N 1.1874(3) 0.17404(18) 1.6623(3)
C21 C 0.1929(4) 0.38799(19) 0.4268(4)
C22 C 0.0943(3) 0.41350(19) 0.4144(3)
C23 C 0.0519(4) 0.4125(2) 0.4875(4)
H17 H 0.0867 0.3965 0.5469
C24 C -0.0409(4) 0.4348(2) 0.4744(4)
H18 H -0.0712 0.4340 0.5240
C25 C -0.0882(4) 0.4578(2) 0.3887(4)
C26 C -0.0481(4) 0.4595(2) 0.3145(4)
H19 H -0.0829 0.4755 0.2553
C27 C 0.0441(4) 0.4372(2) 0.3294(4)
H20 H 0.0740 0.4381 0.2796
O9 O -0.4824(7) 0.3130(5) 0.4797(6)
O10 O -0.5684(7) 0.3857(8) 0.4513(7)
C28 C -0.4905(12) 0.3620(8) 0.4564(14)
C29 C -0.4099(4) 0.3942(4) 0.4367(5)
C30 C -0.3275(6) 0.3644(3) 0.4309(6)
H21 H -0.3252 0.3246 0.4385
C31 C -0.2485(5) 0.3926(3) 0.4140(7)
H22 H -0.1922 0.3722 0.4101
C32 C -0.2518(5) 0.4508(3) 0.4029(6)
C33 C -0.3341(6) 0.4807(3) 0.4087(6)
H23 H -0.3364 0.5204 0.4011
C34 C -0.4132(5) 0.4524(4) 0.4255(6)
H24 H -0.4695 0.4728 0.4295
C35 C 0.3082(3) 0.2366(2) 0.4085(3)
C36 C 0.2936(4) 0.17518(19) 0.4006(3)
C37 C 0.2684(5) 0.1484(2) 0.3146(4)
H25 H 0.2557 0.1703 0.2584
C38 C 0.2609(5) 0.0905(2) 0.3072(4)
H26 H 0.2432 0.0725 0.2471
C39 C 0.2799(4) 0.05934(19) 0.3896(4)
C40 C 0.3006(5) 0.0842(2) 0.4742(4)
H27 H 0.3107 0.0621 0.5299
C41 C 0.3074(5) 0.1423(2) 0.4808(4)
H28 H 0.3216 0.1598 0.5412
C42 C 0.5818(5) -0.1079(2) 0.2779(3)
C43 C 0.5044(4) -0.0802(2) 0.3112(3)
C44 C 0.5113(5) -0.0225(2) 0.3293(4)
H29 H 0.5668 -0.0022 0.3230
C45 C 0.4380(5) 0.0058(2) 0.3565(4)
H30 H 0.4435 0.0449 0.3705
C46 C 0.3571(4) -0.0245(2) 0.3624(3)
C47 C 0.3509(5) -0.0810(2) 0.3460(4)
H31 H 0.2950 -0.1016 0.3504
C48 C 0.4265(4) -0.1077(2) 0.3229(4)
H32 H 0.4233 -0.1474 0.3148
Zn1_2 Zn -0.62864(4) 0.33684(2) 0.52114(4)
Zn2A Zn 0.70291(5) -0.15818(2) 0.21457(4)
Zn2C Zn 1.29709(5) 0.15818(2) 1.78543(4)
O7A O 0.4235(3) 0.34094(14) 0.2407(3)
O8A O 0.3470(4) 0.41962(16) 0.2329(3)
N2C N 0.1874(3) 0.32596(18) 0.1623(3)
O9_2 O 0.5176(7) 0.3130(5) 0.4797(6)
O10_2 O 0.4316(7) 0.3857(8) 0.4513(7)
O11 O 0.3367(6) 0.5139(3) 0.3418(6)
O12 O 0.0605(13) 0.5130(8) 0.1127(12)
O13 O 0.169(3) 0.5746(14) 0.261(3)
O14 O -0.1012(19) 0.4637(10) 0.0580(17)
O15? O -0.5186(11) 0.3430(7) 0.4562(15)
O16? O -0.5509(7) 0.4239(4) 0.5023(9)
C49? C -0.5006(12) 0.3936(6) 0.4677(11)
C50? C -0.4143(5) 0.4187(4) 0.4409(5)
C51? C -0.3533(7) 0.3822(4) 0.4103(7)
H33? H -0.3665 0.3429 0.4065
C52? C -0.2728(7) 0.4031(4) 0.3852(8)
H34? H -0.2311 0.3782 0.3643
C53? C -0.2533(6) 0.4606(4) 0.3907(7)
C54? C -0.3144(7) 0.4971(3) 0.4212(7)
H35? H -0.3011 0.5364 0.4250
C55? C -0.3948(6) 0.4762(4) 0.4463(6)
H36? H -0.4366 0.5011 0.4672
O17? O -0.1368(19) 0.4545(9) 0.0246(17)
O18? O 0.283(2) 0.5183(11) 0.2885(19)
O19? O 0.091(3) 0.5433(17) 0.155(3)
O20? O 0.186(2) 0.5811(13) 0.321(2)
O21? O -0.071(3) 0.4812(18) 0.078(3)
O22? O -0.183(3) 0.4387(14) -0.004(2)
loop_
_geom_bond_atom_site_label_1
_geom_bond_atom_site_label_2
_geom_bond_site_symmetry_1
_geom_bond_site_symmetry_2
Zn1 O1 1_555 1_555
Zn2 O2 1_555 1_555
O1 C21 1_555 1_555
O2 C21 1_555 1_555
O3 C25 1_555 1_555
O4 Zn1 1_555 1_555
O5 Zn2 1_555 1_555
O6 C39 1_555 1_555
O7 C42 1_555 1_555
O8 C42 1_555 1_555
N1 Zn1 1_555 1_555
C1 N1 1_555 1_555
H1 C1 1_555 1_555
C2 C1 1_555 1_555
H2 C2 1_555 1_555
C3 C2 1_555 1_555
C4 C3 1_555 1_555
H3 C4 1_555 1_555
C5 N1 1_555 1_555
H4 C5 1_555 1_555
C6 C3 1_555 1_555
H5 C6 1_555 1_555
C7 C6 1_555 1_555
H6 C7 1_555 1_555
C8 C7 1_555 1_555
C9 C8 1_555 1_555
H7 C9 1_555 1_555
C10 C9 1_555 1_555
H8 C10 1_555 1_555
C11 C10 1_555 1_555
C12 C11 1_555 1_555
H9 C12 1_555 1_555
C13 C8 1_555 1_555
H10 C13 1_555 1_555
C14 C11 1_555 1_555
H11 C14 1_555 1_555
C15 C14 1_555 1_555
H12 C15 1_555 1_555
C16 C15 1_555 1_555
C17 C16 1_555 1_555
H13 C17 1_555 1_555
C18 C17 1_555 1_555
H14 C18 1_555 1_555
C19 H15 1_555 1_555
C20 C16 1_555 1_555
H16 C20 1_555 1_555
N2 C18 1_555 1_555
C21 C22 1_555 1_555
C22 C23 1_555 1_555
C23 H17 1_555 1_555
C24 C23 1_555 1_555
H18 C24 1_555 1_555
C25 C24 1_555 1_555
C26 C25 1_555 1_555
H19 C26 1_555 1_555
C27 C22 1_555 1_555
H20 C27 1_555 1_555
O9 C28 1_555 1_555
O10 C28 1_555 1_555
C28 C29 1_555 1_555
C29 C30 1_555 1_555
C30 H21 1_555 1_555
C31 C30 1_555 1_555
H22 C31 1_555 1_555
C32 O3 1_555 1_555
C33 C32 1_555 1_555
H23 C33 1_555 1_555
C34 C29 1_555 1_555
H24 C34 1_555 1_555
C35 O4 1_555 1_555
C36 C35 1_555 1_555
C37 C36 1_555 1_555
H25 C37 1_555 1_555
C38 C37 1_555 1_555
H26 C38 1_555 1_555
C39 C38 1_555 1_555
C40 C39 1_555 1_555
H27 C40 1_555 1_555
C41 C36 1_555 1_555
H28 C41 1_555 1_555
C42 C43 1_555 1_555
C43 C44 1_555 1_555
C44 H29 1_555 1_555
C45 C44 1_555 1_555
H30 C45 1_555 1_555
C46 O6 1_555 1_555
C47 C46 1_555 1_555
H31 C47 1_555 1_555
C48 C43 1_555 1_555
H32 C48 1_555 1_555
Zn1_2 O9 1_555 1_555
Zn2A O7 1_555 1_555
Zn2C N2 1_555 1_555
O7A Zn2 1_555 1_555
O8A Zn2 1_555 1_555
N2C Zn2 1_555 1_555
O9_2 Zn1 1_555 1_555
O10_2 Zn1 1_555 1_555
O5 C35 1_555 1_555
O8 Zn2A 1_555 1_555
C4 C5 1_555 1_555
C12 C13 1_555 1_555
C19 C20 1_555 1_555
C19 N2 1_555 1_555
C26 C27 1_555 1_555
O10 Zn1_2 1_555 1_555
C31 C32 1_555 1_555
C33 C34 1_555 1_555
C40 C41 1_555 1_555
C45 C46 1_555 1_555
C47 C48 1_555 1_555

#END
