
#######################################################################
#
#                 Cambridge Crystallographic Data Centre
#                                CCDC 
#
#######################################################################
#
# If this CIF has been generated from an entry in the Cambridge 
# Structural Database, then it will include bibliographic, chemical, 
# crystal, experimental, refinement or atomic coordinate data resulting 
# from the CCDC's data processing and validation procedures.
#
#######################################################################

data_ZETLAN
_symmetry_cell_setting           monoclinic
_symmetry_space_group_name_H-M   'P 21/c'
_symmetry_Int_Tables_number      14
_space_group_name_Hall           '-P 2ybc'
loop_
_symmetry_equiv_pos_site_id
_symmetry_equiv_pos_as_xyz
1 x,y,z
2 -x,1/2+y,1/2-z
3 -x,-y,-z
4 x,1/2-y,1/2+z
_cell_length_a                   13.878(3)
_cell_length_b                   24.509(5)
_cell_length_c                   16.593(3)
_cell_angle_alpha                90
_cell_angle_beta                 116.13(3)
_cell_angle_gamma                90
_cell_volume                     5067.05
loop_
_atom_site_label
_atom_site_type_symbol
_atom_site_fract_x
_atom_site_fract_y
_atom_site_fract_z
Zn1 Zn 0.31659(4) 0.338201(18) 0.29473(3)
Zn2 Zn 0.40778(4) 0.336635(18) 0.51676(3)
O1 O 0.4375(2) 0.33249(11) 0.2336(2)
O2 O 0.3722(2) 0.40683(11) 0.26347(19)
O3 O 0.6867(2) 0.50914(11) 0.1186(2)
O4 O 0.6286(2) 0.75820(11) 0.01321(19)
O5 O 0.6630(2) 0.76369(11) 0.15741(19)
O6 O 0.2202(2) 0.37641(12) 0.3378(2)
O7 O 0.2681(2) 0.37009(11) 0.4843(2)
O8 O -0.1798(2) 0.48598(12) 0.3579(2)
O9 O -0.5003(3) 0.42293(12) 0.5215(2)
O10 O -0.5077(2) 0.34793(11) 0.4479(2)
N1 N 0.1935(3) 0.31197(15) 0.1732(2)
C1 C 0.2172(5) 0.2737(2) 0.1279(4)
H1 H 0.2885 0.2600 0.1548
C2 C 0.1514(5) 0.2526(3) 0.0490(4)
H2 H 0.1748 0.2248 0.0219
C3 C 0.0479(7) 0.2724(4) 0.0076(4)
C4 C 0.0182(5) 0.3104(3) 0.0517(4)
H3 H -0.0533 0.3239 0.0256
C5 C 0.0935(4) 0.3302(2) 0.1369(4)
H4 H 0.0719 0.3565 0.1678
C6 C -0.0169(5) 0.2439(3) -0.0830(5)
H5 H 0.0068 0.2111 -0.0991
C7 C -0.1073(6) 0.2681(4) -0.1368(5)
H6 H -0.1354 0.2977 -0.1169
C8 C -0.1655(6) 0.2462(3) -0.2335(4)
C9 C -0.1484(5) 0.2003(3) -0.2712(3)
H7 H -0.0952 0.1751 -0.2344
C10 C -0.2068(4) 0.1891(2) -0.3627(3)
H8 H -0.1925 0.1572 -0.3881
C11 C -0.2863(4) 0.2256(2) -0.4158(3)
C12 C -0.3035(4) 0.2712(3) -0.3749(3)
H9 H -0.3589 0.2958 -0.4105
C13 C -0.2459(5) 0.2825(3) -0.2874(4)
H10 H -0.2596 0.3148 -0.2624
C14 C -0.3502(4) 0.21925(18) -0.5126(3)
H11 H -0.3983 0.2481 -0.5428
C15 C -0.3481(4) 0.17780(18) -0.5625(3)
H12 H -0.3037 0.1476 -0.5325
C16 C -0.4699(4) 0.12324(17) -0.7961(3)
H13 H -0.4744 0.0891 -0.8245
C17 C -0.4158(3) 0.12605(16) -0.7047(3)
H14 H -0.3828 0.0942 -0.6713
C18 C -0.4087(3) 0.17434(17) -0.6608(3)
C19 C -0.4586(4) 0.21934(17) -0.7134(3)
H15 H -0.4572 0.2536 -0.6861
C20 C -0.5096(3) 0.21413(17) -0.8046(3)
H16 H -0.5415 0.2457 -0.8395
N2 N -0.5170(3) 0.16678(13) -0.8474(2)
C21 C 0.4327(3) 0.38314(16) 0.2347(3)
C22 C 0.4965(3) 0.41690(15) 0.2017(3)
C23 C 0.4826(3) 0.47291(16) 0.1939(3)
H17 H 0.4306 0.4895 0.2086
C24 C 0.5430(4) 0.50511(16) 0.1649(3)
H18 H 0.5316 0.5434 0.1585
C25 C 0.6201(3) 0.48080(16) 0.1455(3)
C26 C 0.6340(3) 0.42477(16) 0.1509(3)
H19 H 0.6858 0.4082 0.1358
C27 C 0.5719(3) 0.39332(16) 0.1785(3)
H20 H 0.5808 0.3548 0.1818
C28 C 0.6505(3) 0.73768(16) 0.0885(3)
C29 C 0.6635(3) 0.67748(16) 0.0979(3)
C30 C 0.6398(4) 0.64534(17) 0.0229(3)
H21 H 0.6183 0.6618 -0.0343
C31 C 0.6478(4) 0.58877(17) 0.0317(3)
H22 H 0.6314 0.5664 -0.0195
C32 C 0.6791(3) 0.56591(16) 0.1137(3)
C33 C 0.7066(4) 0.59713(17) 0.1896(3)
H23 H 0.7315 0.5804 0.2469
C34 C 0.6975(4) 0.65296(17) 0.1813(3)
H24 H 0.7147 0.6749 0.2331
C35 C 0.2049(3) 0.38364(16) 0.4054(3)
C36 C 0.1030(3) 0.41091(15) 0.3931(3)
C37 C 0.0363(4) 0.43469(19) 0.3124(3)
H25 H 0.0558 0.4344 0.2643
C38 C -0.0595(4) 0.45924(19) 0.3008(3)
H26 H -0.1054 0.4757 0.2452
C39 C -0.0863(3) 0.45921(17) 0.3706(3)
C40 C -0.0197(3) 0.43633(18) 0.4528(3)
H27 H -0.0388 0.4373 0.5011
C41 C 0.0747(3) 0.41217(17) 0.4634(3)
H28 H 0.1209 0.3962 0.5195
C42 C -0.4712(3) 0.39603(17) 0.4732(3)
C43 C -0.3919(3) 0.41843(16) 0.4442(3)
C44 C -0.3753(3) 0.47449(16) 0.4472(3)
H29 H -0.4138 0.4980 0.4682
C45 C -0.3026(3) 0.49604(17) 0.4195(3)
H30 H -0.2917 0.5344 0.4206
C46 C -0.2462(3) 0.46146(17) 0.3902(3)
C47 C -0.2607(3) 0.40568(17) 0.3885(3)
H31 H -0.2202 0.3822 0.3695
C48 C -0.3341(3) 0.38448(16) 0.4145(3)
H32 H -0.3454 0.3462 0.4122
Zn1A Zn 0.68341(4) 0.838201(18) 0.20527(3)
Zn2_2 Zn -0.59222(4) 0.336635(18) 0.51676(3)
Zn2A Zn 0.59222(4) 0.836635(18) -0.01676(3)
Zn2C Zn -0.59222(4) 0.163365(18) -0.98324(3)
O4A O 0.3714(2) 0.25820(11) 0.48679(19)
O5A O 0.3370(2) 0.26369(11) 0.34259(19)
O9_2 O 0.4997(3) 0.42293(12) 0.5215(2)
O10_2 O 0.4923(2) 0.34793(11) 0.4479(2)
N2C N 0.4830(3) 0.33322(13) 0.6526(2)
O11 O -0.0356(6) 0.5829(4) 0.1668(6)
C49 C -0.0342(10) 0.6242(7) 0.2113(11)
H33 H -0.0796 0.6543 0.1829
N3 N 0.0306(8) 0.6257(4) 0.2979(7)
C50 C 0.1241(8) 0.5897(4) 0.3401(6)
H34 H 0.1229 0.5625 0.2963
H35 H 0.1219 0.5712 0.3916
H36 H 0.1900 0.6114 0.3604
C51 C 0.0189(11) 0.6749(5) 0.3433(10)
H37 H -0.0443 0.6954 0.3023
H38 H 0.0830 0.6977 0.3613
H39 H 0.0101 0.6643 0.3967
O12 O 0.1434(5) 0.5798(2) -0.0511(5)
C52 C 0.1469(6) 0.5320(4) -0.0301(6)
H40 H 0.1475 0.5066 -0.0732
N4 N 0.1498(4) 0.5110(3) 0.0411(4)
C53 C 0.1501(6) 0.4535(4) 0.0571(6)
H41 H 0.1482 0.4334 0.0053
H42 H 0.0870 0.4439 0.0662
H43 H 0.2154 0.4438 0.1109
C54 C 0.1489(8) 0.5490(6) 0.1129(7)
H44 H 0.1450 0.5869 0.0929
H45 H 0.2147 0.5437 0.1686
H46 H 0.0865 0.5409 0.1237
O13 O 0.3344(4) 0.51359(18) 0.3184(3)
H47 H 0.371(5) 0.5230(17) 0.3765(10)
H48 H 0.347(5) 0.4775(5) 0.326(3)
loop_
_geom_bond_atom_site_label_1
_geom_bond_atom_site_label_2
_geom_bond_site_symmetry_1
_geom_bond_site_symmetry_2
Zn1 O1 1_555 1_555
Zn2 O7 1_555 1_555
O1 C21 1_555 1_555
O2 Zn1 1_555 1_555
O3 C25 1_555 1_555
O4 C28 1_555 1_555
O5 C28 1_555 1_555
O6 Zn1 1_555 1_555
O7 C35 1_555 1_555
O8 C39 1_555 1_555
O9 C42 1_555 1_555
O10 C42 1_555 1_555
N1 Zn1 1_555 1_555
C1 N1 1_555 1_555
H1 C1 1_555 1_555
C2 C1 1_555 1_555
H2 C2 1_555 1_555
C3 C2 1_555 1_555
C4 C3 1_555 1_555
H3 C4 1_555 1_555
C5 N1 1_555 1_555
H4 C5 1_555 1_555
C6 C3 1_555 1_555
H5 C6 1_555 1_555
C7 C6 1_555 1_555
H6 C7 1_555 1_555
C8 C7 1_555 1_555
C9 C8 1_555 1_555
H7 C9 1_555 1_555
C10 C9 1_555 1_555
H8 C10 1_555 1_555
C11 C10 1_555 1_555
C12 C11 1_555 1_555
H9 C12 1_555 1_555
C13 C8 1_555 1_555
H10 C13 1_555 1_555
C14 C11 1_555 1_555
H11 C14 1_555 1_555
C15 C14 1_555 1_555
H12 C15 1_555 1_555
C16 H13 1_555 1_555
C17 C16 1_555 1_555
H14 C17 1_555 1_555
C18 C15 1_555 1_555
C19 C18 1_555 1_555
H15 C19 1_555 1_555
C20 C19 1_555 1_555
H16 C20 1_555 1_555
N2 C16 1_555 1_555
C21 O2 1_555 1_555
C22 C21 1_555 1_555
C23 C22 1_555 1_555
H17 C23 1_555 1_555
C24 C23 1_555 1_555
H18 C24 1_555 1_555
C25 C24 1_555 1_555
C26 C25 1_555 1_555
H19 C26 1_555 1_555
C27 C22 1_555 1_555
H20 C27 1_555 1_555
C28 C29 1_555 1_555
C29 C30 1_555 1_555
C30 H21 1_555 1_555
C31 C30 1_555 1_555
H22 C31 1_555 1_555
C32 O3 1_555 1_555
C33 C32 1_555 1_555
H23 C33 1_555 1_555
C34 C29 1_555 1_555
H24 C34 1_555 1_555
C35 O6 1_555 1_555
C36 C35 1_555 1_555
C37 C36 1_555 1_555
H25 C37 1_555 1_555
C38 C37 1_555 1_555
H26 C38 1_555 1_555
C39 C38 1_555 1_555
C40 C39 1_555 1_555
H27 C40 1_555 1_555
C41 C36 1_555 1_555
H28 C41 1_555 1_555
C42 C43 1_555 1_555
C43 C44 1_555 1_555
C44 H29 1_555 1_555
C45 C44 1_555 1_555
H30 C45 1_555 1_555
C46 O8 1_555 1_555
C47 C46 1_555 1_555
H31 C47 1_555 1_555
C48 C43 1_555 1_555
H32 C48 1_555 1_555
O11 C49 1_555 1_555
C49 H33 1_555 1_555
N3 C49 1_555 1_555
C50 N3 1_555 1_555
H34 C50 1_555 1_555
H35 C50 1_555 1_555
H36 C50 1_555 1_555
C51 N3 1_555 1_555
H37 C51 1_555 1_555
H38 C51 1_555 1_555
H39 C51 1_555 1_555
O12 C52 1_555 1_555
C52 H40 1_555 1_555
N4 C52 1_555 1_555
C53 N4 1_555 1_555
H41 C53 1_555 1_555
H42 C53 1_555 1_555
H43 C53 1_555 1_555
C54 N4 1_555 1_555
H44 C54 1_555 1_555
H45 C54 1_555 1_555
H46 C54 1_555 1_555
O13 H47 1_555 1_555
H48 O13 1_555 1_555
Zn1A O5 1_555 1_555
Zn2_2 O9 1_555 1_555
Zn2A O4 1_555 1_555
Zn2C N2 1_555 1_555
O4A Zn2 1_555 1_555
O5A Zn1 1_555 1_555
O9_2 Zn2 1_555 1_555
O10_2 Zn2 1_555 1_555
N2C Zn2 1_555 1_555
O10 Zn2_2 1_555 1_555
C4 C5 1_555 1_555
C12 C13 1_555 1_555
C17 C18 1_555 1_555
C20 N2 1_555 1_555
C26 C27 1_555 1_555
C31 C32 1_555 1_555
C33 C34 1_555 1_555
C40 C41 1_555 1_555
C45 C46 1_555 1_555
C47 C48 1_555 1_555

#END
