
#######################################################################
#
#                 Cambridge Crystallographic Data Centre
#                                CCDC 
#
#######################################################################
#
# If this CIF has been generated from an entry in the Cambridge 
# Structural Database, then it will include bibliographic, chemical, 
# crystal, experimental, refinement or atomic coordinate data resulting 
# from the CCDC's data processing and validation procedures.
#
#######################################################################

data_ZETLER
_symmetry_cell_setting           monoclinic
_symmetry_space_group_name_H-M   'C 2/c'
_symmetry_Int_Tables_number      15
_space_group_name_Hall           '-C 2yn'
loop_
_symmetry_equiv_pos_site_id
_symmetry_equiv_pos_as_xyz
1 x,y,z
2 -x,y,1/2-z
3 1/2+x,1/2+y,z
4 1/2-x,1/2+y,1/2-z
5 -x,-y,-z
6 x,-y,1/2+z
7 1/2-x,1/2-y,-z
8 1/2+x,1/2-y,1/2+z
_cell_length_a                   15.1869(8)
_cell_length_b                   24.1587(12)
_cell_length_c                   15.8511(8)
_cell_angle_alpha                90
_cell_angle_beta                 111.141(3)
_cell_angle_gamma                90
_cell_volume                     5424.28
loop_
_atom_site_label
_atom_site_type_symbol
_atom_site_fract_x
_atom_site_fract_y
_atom_site_fract_z
Zn1 Zn 0.57358(5) 0.48734(3) 0.36179(4)
O1 O 0.6714(3) 0.56556(16) 0.3570(3)
O2 O 0.5274(3) 0.56422(15) 0.3577(2)
O3 O 0.5934(3) 0.82411(16) 0.3651(3)
O4 O 0.8700(3) 0.94646(17) 0.2115(3)
O5 O 0.9595(3) 0.94544(16) 0.3574(3)
N1 N 0.6580(3) 0.46782(19) 0.4888(3)
C1 C 0.6240(4) 0.4495(2) 0.5512(4)
H1 H 0.5588 0.4405 0.5318
C2 C 0.6772(4) 0.4428(2) 0.6409(4)
H2 H 0.6496 0.4288 0.6816
C3 C 0.7728(4) 0.4567(2) 0.6717(4)
C4 C 0.8089(5) 0.4736(3) 0.6073(4)
H3 H 0.8742 0.4819 0.6248
C5 C 0.7508(5) 0.4786(2) 0.5182(5)
H4 H 0.7776 0.4903 0.4754
C6 C 0.8273(4) 0.4566(3) 0.7688(4)
H5 H 0.8088 0.4316 0.8056
C7 C 0.9010(4) 0.4892(3) 0.8089(4)
H6 H 0.9227 0.5114 0.7710
C8 C 0.9516(4) 0.4938(2) 0.9065(4)
C9 C 1.0064(4) 0.5405(3) 0.9409(4)
H7 H 1.0113 0.5685 0.9007
C10 C 0.9463(4) 0.4535(3) 0.9671(4)
H8 H 0.9095 0.4212 0.9448
C11 C 0.5995(4) 0.5905(2) 0.3570(4)
C12 C 0.5980(4) 0.6519(2) 0.3574(4)
C13 C 0.6717(4) 0.6807(2) 0.3470(4)
H9 H 0.7225 0.6613 0.3393
C14 C 0.6718(4) 0.7381(3) 0.3479(4)
H10 H 0.7217 0.7580 0.3391
C15 C 0.5993(4) 0.7660(3) 0.3616(4)
C16 C 0.5249(4) 0.7375(2) 0.3727(4)
H11 H 0.4749 0.7569 0.3820
C17 C 0.5247(4) 0.6806(2) 0.3698(4)
H12 H 0.4736 0.6607 0.3765
C18 C 0.8843(4) 0.9352(2) 0.2925(4)
C19 C 0.8064(4) 0.9073(2) 0.3112(4)
C20 C 0.7262(4) 0.8916(2) 0.2423(4)
H13 H 0.7196 0.8995 0.1817
C21 C 0.6543(4) 0.8641(2) 0.2594(4)
H14 H 0.5988 0.8531 0.2111
C22 C 0.6650(4) 0.8531(2) 0.3474(5)
C23 C 0.7420(4) 0.8696(3) 0.4171(4)
H15 H 0.7469 0.8627 0.4777
C24 C 0.8133(4) 0.8965(3) 0.3995(4)
H16 H 0.8681 0.9078 0.4484
N1D N 1.3420(3) 0.53218(19) 1.5112(3)
C1D C 1.3760(4) 0.5505(2) 1.4488(4)
H1D H 1.4412 0.5595 1.4682
C2D C 1.3228(4) 0.5572(2) 1.3591(4)
H2D H 1.3504 0.5712 1.3184
C3D C 1.2272(4) 0.5433(2) 1.3283(4)
C4D C 1.1911(5) 0.5264(3) 1.3927(4)
H3D H 1.1258 0.5181 1.3752
C5D C 1.2492(5) 0.5214(2) 1.4818(5)
H4D H 1.2224 0.5097 1.5246
C6D C 1.1727(4) 0.5434(3) 1.2312(4)
H5D H 1.1912 0.5684 1.1944
C7D C 1.0990(4) 0.5108(3) 1.1911(4)
H6D H 1.0773 0.4886 1.2290
C8D C 1.0484(4) 0.5062(2) 1.0935(4)
C9D C 0.9936(4) 0.4595(3) 1.0591(4)
H7D H 0.9887 0.4315 1.0993
C10D C 1.0537(4) 0.5465(3) 1.0329(4)
H8D H 1.0905 0.5788 1.0552
Zn1D Zn 1.42642(5) 0.51266(3) 1.63821(4)
O1D O 1.3286(3) 0.43444(16) 1.6430(3)
O2D O 1.4726(3) 0.43578(15) 1.6423(2)
O3D O 1.4066(3) 0.17589(16) 1.6349(3)
O4D O 1.1300(3) 0.05354(17) 1.7885(3)
O5D O 1.0405(3) 0.05456(16) 1.6426(3)
C11D C 1.4005(4) 0.4095(2) 1.6430(4)
C12D C 1.4020(4) 0.3481(2) 1.6426(4)
C13D C 1.3283(4) 0.3193(2) 1.6530(4)
H9D H 1.2775 0.3387 1.6607
C14D C 1.3282(4) 0.2619(3) 1.6521(4)
H10D H 1.2783 0.2420 1.6609
C15D C 1.4007(4) 0.2340(3) 1.6384(4)
C16D C 1.4751(4) 0.2625(2) 1.6273(4)
H11D H 1.5251 0.2431 1.6180
C17D C 1.4753(4) 0.3194(2) 1.6302(4)
H12D H 1.5264 0.3393 1.6235
C18D C 1.1157(4) 0.0648(2) 1.7075(4)
C19D C 1.1936(4) 0.0927(2) 1.6888(4)
C20D C 1.2738(4) 0.1084(2) 1.7577(4)
H13D H 1.2804 0.1005 1.8183
C21D C 1.3457(4) 0.1359(2) 1.7406(4)
H14D H 1.4012 0.1469 1.7889
C22D C 1.3350(4) 0.1469(2) 1.6526(5)
C23D C 1.2580(4) 0.1304(3) 1.5829(4)
H15D H 1.2531 0.1373 1.5223
C24D C 1.1867(4) 0.1035(3) 1.6005(4)
H16D H 1.1319 0.0922 1.5516
Zn1B Zn 1.07358(5) 0.98734(3) 0.36179(4)
Zn1C Zn 0.92642(5) 0.98734(3) 0.13821(4)
Zn1F Zn 0.92642(5) 0.01266(3) 1.63821(4)
Zn1G Zn 1.07358(5) 0.01266(3) 1.86179(4)
O4C O 0.6300(3) 0.44646(17) 0.2885(3)
O4G O 1.3700(3) 0.55354(17) 1.7115(3)
O5B O 0.4595(3) 0.44544(16) 0.3574(3)
O5F O 1.5405(3) 0.55456(16) 1.6426(3)
O6 O 0.350(4) 0.789(2) 0.484(4)
O7 O 0.972(4) 0.247(3) 0.887(4)
O8 O 0.835(3) 0.2573(17) 0.723(3)
O9 O 0.994(4) 0.328(2) 0.848(3)
O10 O 1.065(5) 0.194(3) 0.837(4)
O11? O 0.286(4) 0.711(2) 0.424(3)
O12? O 0.293(3) 0.7743(15) 0.422(2)
O13? O 0.229(5) 0.756(3) 0.470(4)
O14? O 0.933(4) 0.302(2) 0.910(4)
O15? O 0.909(4) 0.306(3) 0.786(4)
O16? O 0.971(5) 0.206(2) 0.793(4)
O17? O 0.921(4) 0.240(2) 0.815(4)
loop_
_geom_bond_atom_site_label_1
_geom_bond_atom_site_label_2
_geom_bond_site_symmetry_1
_geom_bond_site_symmetry_2
Zn1 O1 1_555 1_555
O1 C11 1_555 1_555
O2 Zn1 1_555 1_555
O3 C15 1_555 1_555
O4 C18 1_555 1_555
O5 C18 1_555 1_555
N1 Zn1 1_555 1_555
C1 N1 1_555 1_555
H1 C1 1_555 1_555
C2 C1 1_555 1_555
H2 C2 1_555 1_555
C3 C2 1_555 1_555
C4 C3 1_555 1_555
H3 C4 1_555 1_555
C5 N1 1_555 1_555
H4 C5 1_555 1_555
C6 C3 1_555 1_555
H5 C6 1_555 1_555
C7 C6 1_555 1_555
H6 C7 1_555 1_555
C8 C7 1_555 1_555
C9 C8 1_555 1_555
H7 C9 1_555 1_555
C10 C8 1_555 1_555
H8 C10 1_555 1_555
C11 O2 1_555 1_555
C12 C11 1_555 1_555
C13 C12 1_555 1_555
H9 C13 1_555 1_555
C14 C13 1_555 1_555
H10 C14 1_555 1_555
C15 C14 1_555 1_555
C16 C15 1_555 1_555
H11 C16 1_555 1_555
C17 C12 1_555 1_555
H12 C17 1_555 1_555
C18 C19 1_555 1_555
C19 C20 1_555 1_555
C20 H13 1_555 1_555
C21 C20 1_555 1_555
H14 C21 1_555 1_555
C22 O3 1_555 1_555
C23 C22 1_555 1_555
H15 C23 1_555 1_555
C24 C19 1_555 1_555
H16 C24 1_555 1_555
N1D C1D 1_555 1_555
C1D H1D 1_555 1_555
C2D C1D 1_555 1_555
H2D C2D 1_555 1_555
C3D C2D 1_555 1_555
C4D C3D 1_555 1_555
H3D C4D 1_555 1_555
C5D N1D 1_555 1_555
H4D C5D 1_555 1_555
C6D C3D 1_555 1_555
H5D C6D 1_555 1_555
C7D C6D 1_555 1_555
H6D C7D 1_555 1_555
C8D C7D 1_555 1_555
C9D C10 1_555 1_555
H7D C9D 1_555 1_555
C10D C9 1_555 1_555
H8D C10D 1_555 1_555
Zn1D N1D 1_555 1_555
O1D Zn1D 1_555 1_555
O2D Zn1D 1_555 1_555
O3D C15D 1_555 1_555
O4D C18D 1_555 1_555
O5D C18D 1_555 1_555
C11D O1D 1_555 1_555
C12D C11D 1_555 1_555
C13D C12D 1_555 1_555
H9D C13D 1_555 1_555
C14D C13D 1_555 1_555
H10D C14D 1_555 1_555
C15D C14D 1_555 1_555
C16D C15D 1_555 1_555
H11D C16D 1_555 1_555
C17D C12D 1_555 1_555
H12D C17D 1_555 1_555
C18D C19D 1_555 1_555
C19D C20D 1_555 1_555
C20D H13D 1_555 1_555
C21D C20D 1_555 1_555
H14D C21D 1_555 1_555
C22D O3D 1_555 1_555
C23D C22D 1_555 1_555
H15D C23D 1_555 1_555
C24D C19D 1_555 1_555
H16D C24D 1_555 1_555
Zn1B O5 1_555 1_555
Zn1C O4 1_555 1_555
Zn1F O5D 1_555 1_555
Zn1G O4D 1_555 1_555
O4C Zn1 1_555 1_555
O4G Zn1D 1_555 1_555
O5B Zn1 1_555 1_555
O5F Zn1D 1_555 1_555
C4 C5 1_555 1_555
C16 C17 1_555 1_555
C21 C22 1_555 1_555
C23 C24 1_555 1_555
C4D C5D 1_555 1_555
C8D C9D 1_555 1_555
C8D C10D 1_555 1_555
O2D C11D 1_555 1_555
C16D C17D 1_555 1_555
C21D C22D 1_555 1_555
C23D C24D 1_555 1_555

#END
