
#######################################################################
#
#                 Cambridge Crystallographic Data Centre
#                                CCDC 
#
#######################################################################
#
# If this CIF has been generated from an entry in the Cambridge 
# Structural Database, then it will include bibliographic, chemical, 
# crystal, experimental, refinement or atomic coordinate data resulting 
# from the CCDC's data processing and validation procedures.
#
#######################################################################

data_ZETQUM
_symmetry_cell_setting           monoclinic
_symmetry_space_group_name_H-M   'P 2/n'
_symmetry_Int_Tables_number      13
_space_group_name_Hall           '-P 2yac'
loop_
_symmetry_equiv_pos_site_id
_symmetry_equiv_pos_as_xyz
1 x,y,z
2 1/2-x,y,1/2-z
3 -x,-y,-z
4 1/2+x,-y,1/2+z
_cell_length_a                   8.030(3)
_cell_length_b                   7.597(3)
_cell_length_c                   13.544(5)
_cell_angle_alpha                90
_cell_angle_beta                 94.453(6)
_cell_angle_gamma                90
_cell_volume                     823.743
loop_
_atom_site_label
_atom_site_type_symbol
_atom_site_fract_x
_atom_site_fract_y
_atom_site_fract_z
Mn1 Mn -0.2500 0.48535(7) 0.2500
K1 K 0.08850(6) 0.00800(7) 0.35668(4)
O1 O 0.0814(2) 0.0925(2) 0.14906(14)
O2 O -0.4530(2) 0.7921(2) 0.00969(14)
O3 O -0.3948(2) 0.6844(2) 0.16196(14)
O4 O -0.0478(2) 0.2796(2) 0.24607(14)
N1 N -0.2058(2) 0.4372(3) 0.09682(16)
C1 C -0.0166(3) 0.2158(3) 0.1633(2)
C2 C -0.2849(3) 0.5358(3) 0.0273(2)
C3 C -0.3864(3) 0.6834(3) 0.0688(2)
C4 C -0.1059(3) 0.3049(3) 0.0731(2)
C5 C -0.0845(3) 0.2650(3) -0.0245(2)
H1 H -0.0151 0.1699 -0.0410
C6 C -0.1669(3) 0.3672(3) -0.0985(2)
H2 H -0.1536 0.3427 -0.1662
C7 C -0.2692(3) 0.5057(4) -0.07267(19)
H3 H -0.3262 0.5771 -0.1220
K1A K -0.58850(6) 0.00800(7) 0.14332(4)
O1A O -0.5814(2) 0.0925(2) 0.35094(14)
O2A O -0.0470(2) 0.7921(2) 0.49031(14)
O3A O -0.1052(2) 0.6844(2) 0.33804(14)
O4A O -0.4522(2) 0.2796(2) 0.25393(14)
N1A N -0.2942(2) 0.4372(3) 0.40318(16)
C1A C -0.4834(3) 0.2158(3) 0.3367(2)
C2A C -0.2151(3) 0.5358(3) 0.4727(2)
C3A C -0.1136(3) 0.6834(3) 0.4312(2)
C4A C -0.3941(3) 0.3049(3) 0.4269(2)
C5A C -0.4155(3) 0.2650(3) 0.5245(2)
H1A H -0.4849 0.1699 0.5410
C6A C -0.3331(3) 0.3672(3) 0.5985(2)
H2A H -0.3464 0.3427 0.6662
C7A C -0.2308(3) 0.5057(4) 0.57267(19)
H3A H -0.1738 0.5771 0.6220
K1_2 K -0.91150(6) 0.00800(7) 0.35668(4)
K1_3 K 0.08850(6) 1.00800(7) 0.35668(4)
K1A_2 K -0.58850(6) 1.00800(7) 0.14332(4)
K1A_3 K 0.41150(6) 0.00800(7) 0.14332(4)
K1B K -0.08850(6) 0.99200(7) 0.64332(4)
K1C K -0.41150(6) 0.99200(7) -0.14332(4)
O1_2 O -0.9186(2) 0.0925(2) 0.14906(14)
O1A_2 O 0.4186(2) 0.0925(2) 0.35094(14)
O2_2 O -0.4530(2) -0.2079(2) 0.00969(14)
O2A_2 O -0.0470(2) -0.2079(2) 0.49031(14)
O2B O -0.5470(2) 0.2079(2) -0.00969(14)
O2C O 0.0470(2) 0.2079(2) 0.50969(14)
O3_2 O -0.3948(2) -0.3156(2) 0.16196(14)
O3A_2 O -0.1052(2) -0.3156(2) 0.33804(14)
loop_
_geom_bond_atom_site_label_1
_geom_bond_atom_site_label_2
_geom_bond_site_symmetry_1
_geom_bond_site_symmetry_2
Mn1 O3 1_555 1_555
K1 O1 1_555 1_555
O1 C1 1_555 1_555
O2 C3 1_555 1_555
O3 C3 1_555 1_555
O4 Mn1 1_555 1_555
N1 Mn1 1_555 1_555
C1 O4 1_555 1_555
C2 N1 1_555 1_555
C3 C2 1_555 1_555
C4 N1 1_555 1_555
C5 C4 1_555 1_555
H1 C5 1_555 1_555
C6 C5 1_555 1_555
H2 C6 1_555 1_555
C7 C2 1_555 1_555
H3 C7 1_555 1_555
K1A O1A 1_555 1_555
O1A C1A 1_555 1_555
O2A C3A 1_555 1_555
O3A Mn1 1_555 1_555
O4A Mn1 1_555 1_555
N1A Mn1 1_555 1_555
C1A O4A 1_555 1_555
C2A N1A 1_555 1_555
C3A O3A 1_555 1_555
C4A N1A 1_555 1_555
C5A C4A 1_555 1_555
H1A C5A 1_555 1_555
C6A C5A 1_555 1_555
H2A C6A 1_555 1_555
C7A C2A 1_555 1_555
H3A C7A 1_555 1_555
K1_2 O1A 1_555 1_555
K1_3 O2A 1_555 1_555
K1A_2 O2 1_555 1_555
K1A_3 O1 1_555 1_555
K1B O2A 1_555 1_555
K1C O2 1_555 1_555
O1_2 K1A 1_555 1_555
O1A_2 K1 1_555 1_555
O2_2 K1A 1_555 1_555
O2A_2 K1 1_555 1_555
O2B K1A 1_555 1_555
O2C K1 1_555 1_555
O3_2 K1A 1_555 1_555
O3A_2 K1 1_555 1_555
K1 O4 1_555 1_555
O3 K1A_2 1_555 1_555
C1 C4 1_555 1_555
C6 C7 1_555 1_555
K1A O4A 1_555 1_555
O3A K1_3 1_555 1_555
C1A C4A 1_555 1_555
C2A C3A 1_555 1_555
C6A C7A 1_555 1_555
K1_2 O1_2 1_555 1_555
K1A_3 O1A_2 1_555 1_555

#END
