
#######################################################################
#
#                 Cambridge Crystallographic Data Centre
#                                CCDC 
#
#######################################################################
#
# If this CIF has been generated from an entry in the Cambridge 
# Structural Database, then it will include bibliographic, chemical, 
# crystal, experimental, refinement or atomic coordinate data resulting 
# from the CCDC's data processing and validation procedures.
#
#######################################################################

data_ZETQEW
_symmetry_cell_setting           tetragonal
_symmetry_space_group_name_H-M   'I 41/a'
_symmetry_Int_Tables_number      88
_space_group_name_Hall           '-I 4ad'
loop_
_symmetry_equiv_pos_site_id
_symmetry_equiv_pos_as_xyz
1 x,y,z
2 1/2-x,-y,1/2+z
3 3/4-y,1/4+x,1/4+z
4 3/4+y,3/4-x,3/4+z
5 1/2+x,1/2+y,1/2+z
6 -x,1/2-y,z
7 1/4-y,3/4+x,3/4+z
8 1/4+y,1/4-x,1/4+z
9 -x,-y,-z
10 1/2+x,y,1/2-z
11 1/4+y,3/4-x,3/4-z
12 1/4-y,1/4+x,1/4-z
13 1/2-x,1/2-y,1/2-z
14 x,1/2+y,-z
15 3/4+y,1/4-x,1/4-z
16 3/4-y,3/4+x,3/4-z
_cell_length_a                   26.019(3)
_cell_length_b                   26.019(3)
_cell_length_c                   12.0188(12)
_cell_angle_alpha                90
_cell_angle_beta                 90
_cell_angle_gamma                90
_cell_volume                     8136.59
loop_
_atom_site_label
_atom_site_type_symbol
_atom_site_fract_x
_atom_site_fract_y
_atom_site_fract_z
C1 C 0.1812(2) 0.7032(2) 0.0957(5)
C2 C 0.1503(2) 0.6832(2) -0.0019(5)
H1 H 0.1157 0.6753 0.0226
H2 H 0.1481 0.7097 -0.0584
C3 C 0.2101(3) 0.6484(3) -0.1417(6)
H3 H 0.2296 0.6789 -0.1230
H4 H 0.1910 0.6553 -0.2094
C4 C 0.2465(2) 0.6038(3) -0.1610(6)
C5 C 0.3452(2) 0.6322(2) 0.0326(6)
C6 C 0.3902(3) 0.6639(3) 0.0703(7)
H5 H 0.4165 0.6407 0.0976
H6 H 0.4042 0.6814 0.0059
C7 C 0.4198(3) 0.7040(4) 0.2435(8)
H7 H 0.4221 0.7384 0.2741
H8 H 0.4529 0.6954 0.2111
C8 C 0.4073(4) 0.6666(4) 0.3348(9)
C9 C 0.2492(3) 0.5770(3) 0.3691(5)
C10 C 0.2764(3) 0.6003(2) 0.4672(6)
H9 H 0.2592 0.5899 0.5353
H10 H 0.3114 0.5876 0.4700
C11 C 0.2317(3) 0.6798(3) 0.5112(6)
H11 H 0.2395 0.6876 0.5883
H12 H 0.2039 0.6549 0.5105
C12 C 0.2137(3) 0.7285(3) 0.4538(6)
Eu1 Eu 0.217899(12) 0.580691(12) 0.09717(3)
Eu2 Eu 0.292192(12) 0.686679(12) 0.25634(3)
N1 N 0.17377(19) 0.63670(19) -0.0507(4)
H13 H 0.1478 0.6177 -0.0805
N2 N 0.3800(2) 0.7026(2) 0.1573(5)
H14 H 0.3788 0.7340 0.1242
N3 N 0.2767(2) 0.65695(19) 0.4596(5)
H15 H 0.3043 0.6678 0.4997
O1 O 0.21629(16) 0.67430(15) 0.1337(4)
O2 O 0.16951(16) 0.74675(16) 0.1325(4)
O3 O 0.24945(16) 0.56988(15) -0.0846(3)
O4 O 0.27367(17) 0.60196(18) -0.2447(4)
O5 O 0.30584(16) 0.62972(16) 0.0967(4)
O6 O 0.35023(17) 0.60980(17) -0.0575(4)
O7 O 0.3658(2) 0.6429(2) 0.3301(5)
O8 O 0.4396(3) 0.6647(4) 0.4132(8)
O9 O 0.24857(17) 0.60396(17) 0.2799(4)
O10 O 0.23091(17) 0.53351(16) 0.3763(4)
O11 O 0.22249(16) 0.73233(16) 0.3486(4)
O12 O 0.19163(16) 0.76108(14) 0.5086(3)
Eu1B Eu 0.169309(12) 0.467899(12) 0.34717(3)
Eu1C Eu 0.330691(12) 0.532101(12) -0.15283(3)
Eu2L Eu 0.207808(12) 0.813321(12) 0.24366(3)
O2L O 0.33049(16) 0.75325(16) 0.3675(4)
O3B O 0.18012(15) 0.49945(16) 0.1654(3)
O4B O 0.14804(18) 0.52367(17) 0.0053(4)
O6B O 0.14020(17) 0.60023(17) 0.1925(4)
O10C O 0.28351(16) 0.51909(17) 0.1263(4)
O11L O 0.27751(16) 0.76767(16) 0.1514(4)
O13 O 0.36496(16) 0.67792(14) 0.5999(3)
H16 H 0.3827 0.6942 0.5558
H17 H 0.3582 0.6955 0.6548
O14 O 0.34365(16) 0.74119(14) 0.7726(3)
H18 H 0.3648 0.7639 0.7851
H19 H 0.3282 0.7354 0.8308
loop_
_geom_bond_atom_site_label_1
_geom_bond_atom_site_label_2
_geom_bond_site_symmetry_1
_geom_bond_site_symmetry_2
C1 C2 1_555 1_555
C2 H1 1_555 1_555
H2 C2 1_555 1_555
C3 H3 1_555 1_555
H4 C3 1_555 1_555
C4 C3 1_555 1_555
C5 C6 1_555 1_555
C6 H5 1_555 1_555
H6 C6 1_555 1_555
C7 H7 1_555 1_555
H8 C7 1_555 1_555
C8 C7 1_555 1_555
C9 C10 1_555 1_555
C10 H9 1_555 1_555
H10 C10 1_555 1_555
C11 H11 1_555 1_555
H12 C11 1_555 1_555
C12 C11 1_555 1_555
Eu1 N1 1_555 1_555
Eu2 N2 1_555 1_555
N1 C2 1_555 1_555
H13 N1 1_555 1_555
N2 C6 1_555 1_555
H14 N2 1_555 1_555
N3 C10 1_555 1_555
H15 N3 1_555 1_555
O1 C1 1_555 1_555
O2 C1 1_555 1_555
O3 C4 1_555 1_555
O4 C4 1_555 1_555
O5 C5 1_555 1_555
O6 C5 1_555 1_555
O7 C8 1_555 1_555
O8 C8 1_555 1_555
O9 C9 1_555 1_555
O10 C9 1_555 1_555
O11 C12 1_555 1_555
O12 C12 1_555 1_555
O13 H16 1_555 1_555
H17 O13 1_555 1_555
O14 H18 1_555 1_555
H19 O14 1_555 1_555
Eu1B O10 1_555 1_555
Eu1C O3 1_555 1_555
Eu2L O2 1_555 1_555
O2L Eu2 1_555 1_555
O3B Eu1 1_555 1_555
O4B Eu1 1_555 1_555
O6B Eu1 1_555 1_555
O10C Eu1 1_555 1_555
O11L Eu2 1_555 1_555
C3 N1 1_555 1_555
C7 N2 1_555 1_555
C11 N3 1_555 1_555
Eu1 O1 1_555 1_555
Eu1 O3 1_555 1_555
Eu1 O5 1_555 1_555
Eu1 O9 1_555 1_555
Eu2 N3 1_555 1_555
Eu2 O1 1_555 1_555
Eu2 O5 1_555 1_555
Eu2 O7 1_555 1_555
Eu2 O9 1_555 1_555
Eu2 O11 1_555 1_555
O4 Eu1C 1_555 1_555
O6 Eu1C 1_555 1_555
O11 Eu2L 1_555 1_555
Eu1B O3B 1_555 1_555
Eu2L O11L 1_555 1_555

#END
