
#######################################################################
#
#                 Cambridge Crystallographic Data Centre
#                                CCDC 
#
#######################################################################
#
# If this CIF has been generated from an entry in the Cambridge 
# Structural Database, then it will include bibliographic, chemical, 
# crystal, experimental, refinement or atomic coordinate data resulting 
# from the CCDC's data processing and validation procedures.
#
#######################################################################

data_ZETSIA
_symmetry_cell_setting           monoclinic
_symmetry_space_group_name_H-M   'P 21/c'
_symmetry_Int_Tables_number      14
_space_group_name_Hall           '-P 2ybc'
loop_
_symmetry_equiv_pos_site_id
_symmetry_equiv_pos_as_xyz
1 x,y,z
2 -x,1/2+y,1/2-z
3 -x,-y,-z
4 x,1/2-y,1/2+z
_cell_length_a                   5.833(7)
_cell_length_b                   8.330(5)
_cell_length_c                   20.963(6)
_cell_angle_alpha                90
_cell_angle_beta                 94.53(6)
_cell_angle_gamma                90
_cell_volume                     1015.39
loop_
_atom_site_label
_atom_site_type_symbol
_atom_site_fract_x
_atom_site_fract_y
_atom_site_fract_z
Ag1 Ag 0.29060(9) -0.07458(7) 0.51086(3)
O1 O 0.1173(8) 0.1550(6) 0.4742(2)
O2 O 0.4532(8) 0.2596(6) 0.4510(2)
N1 N 0.0257(9) 0.3864(7) 0.3538(2)
C1 C 0.2405(11) 0.2615(8) 0.4519(3)
C2 C 0.1218(11) 0.4148(8) 0.4238(3)
C3 C -0.0558(12) 0.4833(10) 0.4666(3)
C4 C 0.2201(12) 0.3576(12) 0.3126(4)
C5 C -0.1316(13) 0.2446(10) 0.3470(3)
C6 C -0.1009(15) 0.5326(11) 0.3286(3)
H1 H 0.2397 0.4948 0.4223
H2 H -0.1773 0.4065 0.4694
H3 H -0.1208 0.5807 0.4486
H4 H 0.1602 0.3385 0.2693
H5 H 0.3192 0.4498 0.3140
H6 H 0.3058 0.2655 0.3284
H7 H -0.1877 0.2312 0.3030
H8 H -0.0478 0.1505 0.3614
H9 H -0.2591 0.2605 0.3726
H10 H -0.1618 0.5132 0.2854
H11 H -0.2247 0.5553 0.3548
H12 H 0.0022 0.6226 0.3295
Ag1B Ag 0.70940(9) 0.07458(7) 0.48914(3)
O1B O -0.1173(8) -0.1550(6) 0.5258(2)
Ag1B_2 Ag -0.29060(9) 0.07458(7) 0.48914(3)
O2B O 0.5468(8) -0.2596(6) 0.5490(2)
C3B C 0.0558(12) 0.5167(10) 0.5334(3)
O1B_2 O 0.8827(8) -0.1550(6) 0.5258(2)
C2B C -0.1218(11) 0.5852(8) 0.5762(3)
H2B H 0.1773 0.5935 0.5306
H3B H 0.1208 0.4193 0.5514
N1B N -0.0257(9) 0.6136(7) 0.6462(2)
C1B C -0.2405(11) 0.7385(8) 0.5481(3)
H1B H -0.2397 0.5052 0.5777
C4B C -0.2201(12) 0.6424(12) 0.6874(4)
C5B C 0.1316(13) 0.7554(10) 0.6530(3)
C6B C 0.1009(15) 0.4674(11) 0.6714(3)
O1B_3 O -0.1173(8) 0.8450(6) 0.5258(2)
O2B_2 O -0.4532(8) 0.7404(6) 0.5490(2)
H4B H -0.1602 0.6615 0.7307
H5B H -0.3192 0.5502 0.6860
H6B H -0.3058 0.7345 0.6716
H7B H 0.1877 0.7688 0.6970
H8B H 0.0478 0.8495 0.6386
H9B H 0.2591 0.7395 0.6274
H10B H 0.1618 0.4868 0.7146
H11B H 0.2247 0.4447 0.6452
H12B H -0.0022 0.3774 0.6705
Ag1_2 Ag 0.29060(9) 0.92542(7) 0.51086(3)
Ag1B_3 Ag -0.29060(9) 1.07458(7) 0.48914(3)
Ag1_3 Ag -0.70940(9) 0.92542(7) 0.51086(3)
O1_2 O 1.1173(8) 0.1550(6) 0.4742(2)
Cl1 Cl 0.5706(3) 0.1484(2) 0.6525(1)
O3 O 0.5238(26) 0.2420(16) 0.7075(5)
O4 O 0.5786(21) 0.2467(13) 0.5980(4)
O5 O 0.4065(26) 0.0256(18) 0.6452(9)
O6 O 0.7927(18) 0.0764(18) 0.6643(8)
O7? O 0.5711(25) 0.2706(14) 0.6994(5)
O8? O 0.7111(32) 0.1941(23) 0.6032(8)
O9? O 0.3429(18) 0.1216(24) 0.6232(8)
O10? O 0.6436(36) -0.0016(15) 0.6775(9)
loop_
_geom_bond_atom_site_label_1
_geom_bond_atom_site_label_2
_geom_bond_site_symmetry_1
_geom_bond_site_symmetry_2
Ag1 O1 1_555 1_555
O1 C1 1_555 1_555
O2 C1 1_555 1_555
N1 C2 1_555 1_555
C1 C2 1_555 1_555
C2 C3 1_555 1_555
C3 H2 1_555 1_555
C4 N1 1_555 1_555
C5 N1 1_555 1_555
C6 N1 1_555 1_555
Cl1 O3 1_555 1_555
O4 Cl1 1_555 1_555
O5 Cl1 1_555 1_555
O6 Cl1 1_555 1_555
H1 C2 1_555 1_555
H3 C3 1_555 1_555
H4 C4 1_555 1_555
H5 C4 1_555 1_555
H6 C4 1_555 1_555
H7 C5 1_555 1_555
H8 C5 1_555 1_555
H9 C5 1_555 1_555
H10 C6 1_555 1_555
H11 C6 1_555 1_555
H12 C6 1_555 1_555
Ag1B Ag1 1_555 1_555
O1B Ag1 1_555 1_555
Ag1B_2 O1 1_555 1_555
O2B Ag1 1_555 1_555
C3B C3 1_555 1_555
O1B_2 Ag1B 1_555 1_555
C2B C3B 1_555 1_555
H2B C3B 1_555 1_555
H3B C3B 1_555 1_555
N1B C2B 1_555 1_555
C1B C2B 1_555 1_555
H1B C2B 1_555 1_555
C4B N1B 1_555 1_555
C5B N1B 1_555 1_555
C6B N1B 1_555 1_555
O1B_3 C1B 1_555 1_555
O2B_2 C1B 1_555 1_555
H4B C4B 1_555 1_555
H5B C4B 1_555 1_555
H6B C4B 1_555 1_555
H7B C5B 1_555 1_555
H8B C5B 1_555 1_555
H9B C5B 1_555 1_555
H10B C6B 1_555 1_555
H11B C6B 1_555 1_555
H12B C6B 1_555 1_555
Ag1_2 O1B_3 1_555 1_555
Ag1B_3 O1B_3 1_555 1_555
Ag1_3 O2B_2 1_555 1_555
O1_2 Ag1B 1_555 1_555
O2 Ag1B 1_555 1_555
O1B Ag1B_2 1_555 1_555
Ag1B_3 Ag1_3 1_555 1_555

#END
