
#######################################################################
#
#                 Cambridge Crystallographic Data Centre
#                                CCDC 
#
#######################################################################
#
# If this CIF has been generated from an entry in the Cambridge 
# Structural Database, then it will include bibliographic, chemical, 
# crystal, experimental, refinement or atomic coordinate data resulting 
# from the CCDC's data processing and validation procedures.
#
#######################################################################

data_ZETSOG
_symmetry_cell_setting           triclinic
_symmetry_space_group_name_H-M   'P -1'
_symmetry_Int_Tables_number      2
_space_group_name_Hall           '-P 1'
loop_
_symmetry_equiv_pos_site_id
_symmetry_equiv_pos_as_xyz
1 x,y,z
2 -x,-y,-z
_cell_length_a                   5.460(3)
_cell_length_b                   13.835(2)
_cell_length_c                   15.824(4)
_cell_angle_alpha                84.28(4)
_cell_angle_beta                 81.79(4)
_cell_angle_gamma                86.92(4)
_cell_volume                     1176.24
loop_
_atom_site_label
_atom_site_type_symbol
_atom_site_fract_x
_atom_site_fract_y
_atom_site_fract_z
Ag1 Ag -0.69539(10) 0.15725(6) -0.31196(3)
Ag2 Ag -0.31171(9) 0.14454(5) -0.21148(3)
O1 O -0.8942(8) 0.1504(3) -0.1787(3)
O2 O -0.5976(8) 0.1494(4) -0.0960(3)
N1 N -1.0025(9) 0.2249(3) 0.0200(3)
C1 C -0.8149(10) 0.1472(4) -0.1082(3)
C2 C -1.0124(11) 0.1388(4) -0.0282(3)
C3 C -0.9749(11) 0.0416(4) 0.0248(4)
C4 C -1.1615(14) 0.3010(5) 0.0048(5)
C5 C -1.1550(17) 0.3825(5) 0.0450(5)
C6 C -0.9820(16) 0.3915(5) 0.0977(5)
C7 C -0.8235(15) 0.3151(5) 0.1133(5)
C8 C -0.8333(12) 0.2319(5) 0.0724(4)
O3 O -0.1156(8) 0.1406(4) -0.3457(3)
O4 O -0.4104(8) 0.1674(4) -0.4285(3)
N2 N -0.0100(9) 0.2254(3) -0.5572(3)
C9 C -0.1930(10) 0.1511(4) -0.4151(3)
C10 C 0.0027(11) 0.1376(4) -0.4947(3)
C11 C -0.0303(12) 0.0437(4) -0.5313(4)
C12 C -0.1764(12) 0.2352(5) -0.6123(4)
C13 C -0.1895(15) 0.3169(5) -0.6669(5)
C14 C -0.0326(16) 0.3905(5) -0.6657(5)
C15 C 0.1403(17) 0.3791(6) -0.6088(5)
C16 C 0.1487(14) 0.2945(5) -0.5553(5)
H1 H -1.1723 0.1397 -0.0469
H2 H -1.0854 0.0397 0.0778
H3 H -0.8080 0.0351 0.0378
H4 H -1.2793 0.2963 -0.0341
H5 H -1.2724 0.4353 0.0356
H6 H -0.9721 0.4512 0.1228
H7 H -0.7077 0.3185 0.1531
H8 H -0.7180 0.1783 0.0814
H9 H 0.1635 0.1339 -0.4765
H10 H 0.0768 0.0408 -0.5847
H11 H -0.1983 0.0412 -0.5421
H12 H -0.2869 0.1838 -0.6134
H13 H -0.3076 0.3231 -0.7068
H14 H -0.0436 0.4491 -0.7031
H15 H 0.2535 0.4295 -0.6072
H16 H 0.2696 0.2852 -0.5164
Ag2_2 Ag -1.31171(9) 0.14454(5) -0.21148(3)
O1_2 O 0.1058(8) 0.1504(3) -0.1787(3)
O3_2 O -1.1156(8) 0.1406(4) -0.3457(3)
Ag1_2 Ag 0.30461(10) 0.15725(6) -0.31196(3)
C3A C -1.0251(11) -0.0416(4) -0.0248(4)
C2A C -0.9876(11) -0.1388(4) 0.0282(3)
H2A H -0.9146 -0.0397 -0.0778
H3A H -1.1920 -0.0351 -0.0378
N1A N -0.9975(9) -0.2249(3) -0.0200(3)
C1A C -1.1851(10) -0.1472(4) 0.1082(3)
H1A H -0.8277 -0.1397 0.0469
C4A C -0.8385(14) -0.3010(5) -0.0048(5)
C8A C -1.1667(12) -0.2319(5) -0.0724(4)
O1A O -1.1058(8) -0.1504(3) 0.1787(3)
O2A O -1.4024(8) -0.1494(4) 0.0960(3)
C11A C 0.0303(12) -0.0437(4) -0.4687(4)
C5A C -0.8450(17) -0.3825(5) -0.0450(5)
H4A H -0.7207 -0.2963 0.0341
C7A C -1.1765(15) -0.3151(5) -0.1133(5)
H8A H -1.2820 -0.1783 -0.0814
Ag1A Ag -1.30461(10) -0.15725(6) 0.31196(3)
Ag2A Ag -0.68829(9) -0.14454(5) 0.21148(3)
Ag2A_2 Ag -1.68829(9) -0.14454(5) 0.21148(3)
C10A C -0.0027(11) -0.1376(4) -0.5053(3)
H10A H -0.0768 -0.0408 -0.4153
H11A H 0.1983 -0.0412 -0.4579
Ag1A_2 Ag -0.30461(10) -0.15725(6) -0.68804(3)
C6A C -1.0180(16) -0.3915(5) -0.0977(5)
H5A H -0.7276 -0.4353 -0.0356
H7A H -1.2923 -0.3185 -0.1531
N2A N 0.0100(9) -0.2254(3) -0.4428(3)
C9A C 0.1930(10) -0.1511(4) -0.5849(3)
H9A H -0.1635 -0.1339 -0.5235
H6A H -1.0279 -0.4512 -0.1228
C12A C 0.1764(12) -0.2352(5) -0.3877(4)
C16A C -0.1487(14) -0.2945(5) -0.4447(5)
O3A O 0.1156(8) -0.1406(4) -0.6543(3)
O4A O 0.4104(8) -0.1674(4) -0.5715(3)
C13A C 0.1895(15) -0.3169(5) -0.3331(5)
H12A H 0.2869 -0.1838 -0.3866
C15A C -0.1403(17) -0.3791(6) -0.3912(5)
H16A H -0.2696 -0.2852 -0.4836
Ag2A_3 Ag 0.31171(9) -0.14454(5) -0.78852(3)
Ag1A_3 Ag 0.69539(10) -0.15725(6) -0.68804(3)
C14A C 0.0326(16) -0.3905(5) -0.3343(5)
H13A H 0.3076 -0.3231 -0.2932
H15A H -0.2535 -0.4295 -0.3928
H14A H 0.0436 -0.4491 -0.2969
O1A_2 O -0.1058(8) -0.1504(3) -0.8213(3)
O2A_2 O 0.5976(8) -0.1494(4) -0.9040(3)
O1A_3 O 0.8942(8) -0.1504(3) -0.8213(3)
O3A_2 O 1.1156(8) -0.1406(4) -0.6543(3)
Cl1 Cl -0.5074(4) 0.4173(1) -0.1890(1)
O5 O -0.3663(34) 0.3469(11) -0.2321(12)
O6 O -0.7700(23) 0.4017(12) -0.1898(12)
O7 O -0.4956(30) 0.5124(8) -0.2276(10)
O8 O -0.5160(32) 0.4150(12) -0.0964(8)
Cl2 Cl -0.5035(3) -0.1019(1) -0.2443(1)
O13 O -0.3258(26) -0.0480(10) -0.2121(9)
O14 O -0.6919(25) -0.0416(9) -0.2793(9)
O15 O -0.3751(30) -0.1506(12) -0.3121(9)
O16 O -0.6243(29) -0.1717(10) -0.1826(9)
O21 O 0.0477(22) 0.3548(9) -0.3598(9)
O22 O 0.5181(25) 0.4154(9) -0.4457(9)
O9? O -0.2816(23) 0.3571(10) -0.1915(10)
O10? O -0.6182(45) 0.3835(17) -0.2543(13)
O11? O -0.4328(37) 0.5134(10) -0.2023(13)
O12? O -0.6426(25) 0.3914(10) -0.1073(8)
O17? O -0.4241(23) -0.0459(8) -0.1841(7)
O18? O -0.5775(23) -0.0407(8) -0.3139(7)
O19? O -0.3348(23) -0.1744(9) -0.2798(9)
O20? O -0.7014(32) -0.1523(14) -0.1947(13)
loop_
_geom_bond_atom_site_label_1
_geom_bond_atom_site_label_2
_geom_bond_site_symmetry_1
_geom_bond_site_symmetry_2
Ag1 Ag2 1_555 1_555
Ag2 O2 1_555 1_555
O1 Ag1 1_555 1_555
O2 C1 1_555 1_555
N1 C2 1_555 1_555
C1 O1 1_555 1_555
C2 C1 1_555 1_555
C3 C2 1_555 1_555
C4 N1 1_555 1_555
C5 C4 1_555 1_555
C6 C5 1_555 1_555
C7 C6 1_555 1_555
C8 N1 1_555 1_555
O3 Ag2 1_555 1_555
O4 Ag1 1_555 1_555
N2 C10 1_555 1_555
C9 O3 1_555 1_555
C10 C9 1_555 1_555
C11 C10 1_555 1_555
C12 N2 1_555 1_555
C13 C12 1_555 1_555
C14 C13 1_555 1_555
C15 C14 1_555 1_555
C16 N2 1_555 1_555
Cl1 O5 1_555 1_555
O6 Cl1 1_555 1_555
O7 Cl1 1_555 1_555
O8 Cl1 1_555 1_555
Cl2 O13 1_555 1_555
O14 Cl2 1_555 1_555
O15 Cl2 1_555 1_555
O16 Cl2 1_555 1_555
H1 C2 1_555 1_555
H2 C3 1_555 1_555
H3 C3 1_555 1_555
H4 C4 1_555 1_555
H5 C5 1_555 1_555
H6 C6 1_555 1_555
H7 C7 1_555 1_555
H8 C8 1_555 1_555
H9 C10 1_555 1_555
H10 C11 1_555 1_555
H11 C11 1_555 1_555
H12 C12 1_555 1_555
H13 C13 1_555 1_555
H14 C14 1_555 1_555
H15 C15 1_555 1_555
H16 C16 1_555 1_555
Ag2_2 O1 1_555 1_555
O1_2 Ag2 1_555 1_555
O3_2 Ag1 1_555 1_555
Ag1_2 O3 1_555 1_555
C3A C3 1_555 1_555
C2A C3A 1_555 1_555
H2A C3A 1_555 1_555
H3A C3A 1_555 1_555
N1A C2A 1_555 1_555
C1A C2A 1_555 1_555
H1A C2A 1_555 1_555
C4A N1A 1_555 1_555
C8A N1A 1_555 1_555
O1A C1A 1_555 1_555
O2A C1A 1_555 1_555
C11A C11 1_555 1_555
C5A C4A 1_555 1_555
H4A C4A 1_555 1_555
C7A C8A 1_555 1_555
H8A C8A 1_555 1_555
Ag1A O1A 1_555 1_555
Ag2A O1A 1_555 1_555
Ag2A_2 O2A 1_555 1_555
C10A C11A 1_555 1_555
H10A C11A 1_555 1_555
H11A C11A 1_555 1_555
Ag1A_2 O3A 1_555 1_555
C6A C5A 1_555 1_555
H5A C5A 1_555 1_555
H7A C7A 1_555 1_555
N2A C10A 1_555 1_555
C9A C10A 1_555 1_555
H9A C10A 1_555 1_555
H6A C6A 1_555 1_555
C12A N2A 1_555 1_555
C16A N2A 1_555 1_555
O3A C9A 1_555 1_555
O4A C9A 1_555 1_555
C13A C12A 1_555 1_555
H12A C12A 1_555 1_555
C15A C16A 1_555 1_555
H16A C16A 1_555 1_555
Ag2A_3 O3A 1_555 1_555
Ag1A_3 O4A 1_555 1_555
C14A C13A 1_555 1_555
H13A C13A 1_555 1_555
H15A C15A 1_555 1_555
H14A C14A 1_555 1_555
O1A_2 Ag1A_2 1_555 1_555
O2A_2 Ag2A_3 1_555 1_555
O1A_3 Ag1A_3 1_555 1_555
O3A_2 Ag1A_3 1_555 1_555
C7 C8 1_555 1_555
O4 C9 1_555 1_555
C15 C16 1_555 1_555
Ag2_2 O3_2 1_555 1_555
O1_2 Ag1_2 1_555 1_555
C7A C6A 1_555 1_555
Ag1A Ag2A_2 1_555 1_555
C15A C14A 1_555 1_555
Ag2A_3 Ag1A_3 1_555 1_555
Ag2A_3 O1A_2 1_555 1_555

#END
