
#######################################################################
#
#                 Cambridge Crystallographic Data Centre
#                                CCDC 
#
#######################################################################
#
# If this CIF has been generated from an entry in the Cambridge 
# Structural Database, then it will include bibliographic, chemical, 
# crystal, experimental, refinement or atomic coordinate data resulting 
# from the CCDC's data processing and validation procedures.
#
#######################################################################

data_ZETSAU
_symmetry_cell_setting           triclinic
_symmetry_space_group_name_H-M   'P -1'
_symmetry_Int_Tables_number      2
_space_group_name_Hall           '-P 1'
loop_
_symmetry_equiv_pos_site_id
_symmetry_equiv_pos_as_xyz
1 x,y,z
2 -x,-y,-z
_cell_length_a                   5.6991(7)
_cell_length_b                   9.5878(12)
_cell_length_c                   14.1723(18)
_cell_angle_alpha                74.2130(10)
_cell_angle_beta                 89.7140(10)
_cell_angle_gamma                84.8810(10)
_cell_volume                     742.067
loop_
_atom_site_label
_atom_site_type_symbol
_atom_site_fract_x
_atom_site_fract_y
_atom_site_fract_z
Cd1 Cd 0.0000 0.0000 0.0000
O1 O 0.6461(2) -0.54906(15) 0.41473(10)
O2 O -0.0317(2) 0.24847(16) 0.13604(10)
O3 O 0.2326(2) 0.15720(14) 0.04800(9)
O4 O 0.3048(2) -0.06169(16) -0.09248(11)
H1 H 0.236(3) -0.125(2) -0.1104(15)
H2 H 0.437(3) -0.099(2) -0.0713(14)
N1 N 0.1073(3) -0.18842(18) 0.13692(11)
N2 N 0.2614(3) -0.55821(19) 0.37166(12)
H3 H 0.160(3) -0.620(2) 0.3747(15)
N3 N 0.6324(3) -0.96856(19) 0.60562(12)
C1 C 0.6319(4) -0.8460(2) 0.53224(14)
H4 H 0.7708 -0.8286 0.4952
C2 C 0.4344(4) -0.9888(2) 0.65653(15)
H5 H 0.4315 -1.0749 0.7090
C3 C 0.2349(4) -0.8934(2) 0.63804(15)
H6 H 0.0990 -0.9130 0.6768
C4 C 0.3097(3) -0.2065(2) 0.18792(14)
H7 H 0.4164 -0.1336 0.1688
C5 C 0.4400(3) -0.7439(2) 0.50774(13)
C6 C 0.0060(3) -0.4124(2) 0.24391(13)
H8 H -0.1062 -0.4820 0.2623
C7 C 0.4632(4) -0.6078(2) 0.42709(13)
C8 C 0.2365(4) -0.7682(2) 0.56174(14)
H9 H 0.1012 -0.7002 0.5465
C9 C 0.2198(3) -0.4326(2) 0.29520(13)
C10 C 0.3727(4) -0.3245(2) 0.26646(14)
H10 H 0.5184 -0.3318 0.3005
C11 C -0.0406(3) -0.2916(2) 0.16704(14)
H11 H -0.1870 -0.2801 0.1328
C12 C 0.1605(3) 0.2496(2) 0.09317(14)
C13 C 0.3194(4) 0.3672(2) 0.09522(15)
H12 H 0.4502 0.3241 0.1428
H13 H 0.2282 0.4429 0.1194
C14 C 0.4239(3) 0.4401(2) -0.00308(14)
H14 H 0.5204 0.3657 -0.0267
H15 H 0.2943 0.4820 -0.0515
O2A O 1.0317(2) 0.75153(16) -0.13604(10)
O3A O 0.7674(2) 0.84280(14) -0.04800(9)
C12A C 0.8395(3) 0.7504(2) -0.09317(14)
C13A C 0.6806(4) 0.6328(2) -0.09522(15)
H12A H 0.5498 0.6759 -0.1428
H13A H 0.7718 0.5571 -0.1194
C14A C 0.5761(3) 0.5599(2) 0.00308(14)
H14A H 0.4796 0.6343 0.0267
H15A H 0.7057 0.5180 0.0515
O1A O -0.6461(2) 0.54906(15) -0.41473(10)
O4A O -0.3048(2) 0.06169(16) 0.09248(11)
H1A H -0.236(3) 0.125(2) 0.1104(15)
H2A H -0.437(3) 0.099(2) 0.0713(14)
N1A N -0.1073(3) 0.18842(18) -0.13692(11)
N2A N -0.2614(3) 0.55821(19) -0.37166(12)
H3A H -0.160(3) 0.620(2) -0.3747(15)
N3A N -0.6324(3) 0.96856(19) -0.60562(12)
C1A C -0.6319(4) 0.8460(2) -0.53224(14)
H4A H -0.7708 0.8286 -0.4952
C2A C -0.4344(4) 0.9888(2) -0.65653(15)
H5A H -0.4315 1.0749 -0.7090
C3A C -0.2349(4) 0.8934(2) -0.63804(15)
H6A H -0.0990 0.9130 -0.6768
C4A C -0.3097(3) 0.2065(2) -0.18792(14)
H7A H -0.4164 0.1336 -0.1688
C5A C -0.4400(3) 0.7439(2) -0.50774(13)
C6A C -0.0060(3) 0.4124(2) -0.24391(13)
H8A H 0.1062 0.4820 -0.2623
C7A C -0.4632(4) 0.6078(2) -0.42709(13)
C8A C -0.2365(4) 0.7682(2) -0.56174(14)
H9A H -0.1012 0.7002 -0.5465
C9A C -0.2198(3) 0.4326(2) -0.29520(13)
C10A C -0.3727(4) 0.3245(2) -0.26646(14)
H10A H -0.5184 0.3318 -0.3005
C11A C 0.0406(3) 0.2916(2) -0.16704(14)
H11A H 0.1870 0.2801 -0.1328
Cd1_2 Cd 1.0000 1.0000 0.0000
O3A_2 O -0.2326(2) -0.15720(14) -0.04800(9)
O5 O 0.0164(3) 0.21118(17) 0.34297(11)
H16 H -0.012(4) 0.229(2) 0.2833(11)
H17 H 0.108(3) 0.136(2) 0.3612(15)
loop_
_geom_bond_atom_site_label_1
_geom_bond_atom_site_label_2
_geom_bond_site_symmetry_1
_geom_bond_site_symmetry_2
Cd1 O3 1_555 1_555
O1 C7 1_555 1_555
O2 C12 1_555 1_555
O3 C12 1_555 1_555
O4 Cd1 1_555 1_555
H1 O4 1_555 1_555
H2 O4 1_555 1_555
N1 Cd1 1_555 1_555
N2 H3 1_555 1_555
N3 C1 1_555 1_555
C1 H4 1_555 1_555
C2 N3 1_555 1_555
H5 C2 1_555 1_555
C3 C2 1_555 1_555
H6 C3 1_555 1_555
C4 N1 1_555 1_555
H7 C4 1_555 1_555
C5 C1 1_555 1_555
C6 H8 1_555 1_555
C7 N2 1_555 1_555
C8 C3 1_555 1_555
H9 C8 1_555 1_555
C9 N2 1_555 1_555
C10 C4 1_555 1_555
H10 C10 1_555 1_555
C11 N1 1_555 1_555
H11 C11 1_555 1_555
C12 C13 1_555 1_555
C13 H12 1_555 1_555
H13 C13 1_555 1_555
C14 C13 1_555 1_555
H14 C14 1_555 1_555
H15 C14 1_555 1_555
O5 H16 1_555 1_555
H17 O5 1_555 1_555
O2A C12A 1_555 1_555
O3A C12A 1_555 1_555
C12A C13A 1_555 1_555
C13A H12A 1_555 1_555
H13A C13A 1_555 1_555
C14A C14 1_555 1_555
H14A C14A 1_555 1_555
H15A C14A 1_555 1_555
O1A C7A 1_555 1_555
O4A Cd1 1_555 1_555
H1A O4A 1_555 1_555
H2A O4A 1_555 1_555
N1A Cd1 1_555 1_555
N2A H3A 1_555 1_555
N3A C1A 1_555 1_555
C1A H4A 1_555 1_555
C2A N3A 1_555 1_555
H5A C2A 1_555 1_555
C3A C2A 1_555 1_555
H6A C3A 1_555 1_555
C4A N1A 1_555 1_555
H7A C4A 1_555 1_555
C5A C1A 1_555 1_555
C6A H8A 1_555 1_555
C7A N2A 1_555 1_555
C8A C3A 1_555 1_555
H9A C8A 1_555 1_555
C9A N2A 1_555 1_555
C10A C4A 1_555 1_555
H10A C10A 1_555 1_555
C11A N1A 1_555 1_555
H11A C11A 1_555 1_555
Cd1_2 O3A 1_555 1_555
O3A_2 Cd1 1_555 1_555
C5 C7 1_555 1_555
C5 C8 1_555 1_555
C6 C9 1_555 1_555
C6 C11 1_555 1_555
C9 C10 1_555 1_555
C13A C14A 1_555 1_555
C5A C7A 1_555 1_555
C5A C8A 1_555 1_555
C6A C9A 1_555 1_555
C6A C11A 1_555 1_555
C9A C10A 1_555 1_555

#END
