
#######################################################################
#
#                 Cambridge Crystallographic Data Centre
#                                CCDC 
#
#######################################################################
#
# If this CIF has been generated from an entry in the Cambridge 
# Structural Database, then it will include bibliographic, chemical, 
# crystal, experimental, refinement or atomic coordinate data resulting 
# from the CCDC's data processing and validation procedures.
#
#######################################################################

data_ZEVJOZ
_symmetry_cell_setting           monoclinic
_symmetry_space_group_name_H-M   'C 2/c'
_symmetry_Int_Tables_number      15
_space_group_name_Hall           '-C 2yn'
loop_
_symmetry_equiv_pos_site_id
_symmetry_equiv_pos_as_xyz
1 x,y,z
2 -x,y,1/2-z
3 1/2+x,1/2+y,z
4 1/2-x,1/2+y,1/2-z
5 -x,-y,-z
6 x,-y,1/2+z
7 1/2-x,1/2-y,-z
8 1/2+x,1/2-y,1/2+z
_cell_length_a                   24.906(6)
_cell_length_b                   6.819(1)
_cell_length_c                   23.213(6)
_cell_angle_alpha                90
_cell_angle_beta                 141.26(1)
_cell_angle_gamma                90
_cell_volume                     2467.08
loop_
_atom_site_label
_atom_site_type_symbol
_atom_site_fract_x
_atom_site_fract_y
_atom_site_fract_z
U1 U 0.0000 0.0000 0.0000
O1 O -0.0392(5) -0.2233(12) 0.4930(5)
C1 C -0.0170(6) -0.1276(15) 0.1883(6)
C2 C -0.0159(7) 0.0738(18) 0.1862(8)
C3 C 0.0000 0.1729(21) 0.2500
N1 N 0.0000 -0.2327(15) 0.2500
P1 P -0.0422(2) -0.2736(4) 0.1050(2)
O2 O -0.0382(5) -0.1528(13) 0.0559(4)
O3 O 0.0148(6) -0.4555(11) 0.1511(6)
C4 C 0.1014(12) -0.4510(24) 0.2037(14)
C5 C 0.1594(13) -0.5060(31) 0.2945(17)
O4 O -0.1325(5) -0.3515(14) 0.0437(5)
C6 C -0.1838(9) -0.4612(20) -0.0395(9)
C7 C -0.2612(14) -0.5110(29) -0.0744(16)
N2 N -0.1735(6) 0.0908(17) 0.3078(6)
O5 O -0.1134(5) 0.0147(12) 0.3279(5)
O6 O -0.1525(4) 0.1249(14) 0.3772(4)
O7 O 0.2437(5) -0.1244(16) 0.7700(5)
H1 H -0.0257 0.1419 0.1424
H2 H 0.0000 0.3137 0.2500
H3 H 0.1147 -0.3200 0.2025
H4 H 0.1068 -0.5391 0.1762
H5 H 0.2165 -0.5008 0.3270
H6 H 0.1470 -0.6373 0.2965
H7 H 0.1549 -0.4181 0.3229
H8 H -0.1541 -0.5778 -0.0264
H9 H -0.1966 -0.3827 -0.0834
H10 H -0.2979 -0.5848 -0.1302
H11 H -0.2900 -0.3933 -0.0866
H12 H -0.2475 -0.5885 -0.0296
C2A C 0.0159(7) 0.0738(18) 0.3138(8)
C1A C 0.0170(6) -0.1276(15) 0.3117(6)
P1A P 0.0422(2) -0.2736(4) 0.3950(2)
O2A O 0.0382(5) -0.1528(13) 0.4441(4)
U1A U 0.0000 0.0000 0.5000
O1D O 0.0392(5) 0.2233(12) 0.5070(5)
O2E O -0.0382(5) 0.1528(13) 0.5559(4)
O5D O 0.1134(5) -0.0147(12) 0.6721(5)
N2D N 0.1735(6) -0.0908(17) 0.6922(6)
O6D O 0.1525(4) -0.1249(14) 0.6228(4)
O7D O -0.2437(5) 0.1244(16) 0.2300(5)
O3A O -0.0148(6) -0.4555(11) 0.3489(6)
C4A C -0.1014(12) -0.4510(24) 0.2963(14)
C5A C -0.1594(13) -0.5060(31) 0.2055(17)
H5A H -0.2165 -0.5008 0.1730
H6A H -0.1470 -0.6373 0.2035
H7A H -0.1549 -0.4181 0.1771
H3A H -0.1147 -0.3200 0.2975
H4A H -0.1068 -0.5391 0.3238
O4A O 0.1325(5) -0.3515(14) 0.4563(5)
C6A C 0.1838(9) -0.4612(20) 0.5395(9)
C7A C 0.2612(14) -0.5110(29) 0.5744(16)
H10A H 0.2979 -0.5848 0.6302
H11A H 0.2900 -0.3933 0.5866
H12A H 0.2475 -0.5885 0.5296
H8A H 0.1541 -0.5778 0.5264
H9A H 0.1966 -0.3827 0.5834
H1A H 0.0257 0.1419 0.3576
loop_
_geom_bond_atom_site_label_1
_geom_bond_atom_site_label_2
_geom_bond_site_symmetry_1
_geom_bond_site_symmetry_2
U1 O2 1_555 1_555
O1 U1A 1_555 1_555
C1 C2 1_555 1_555
C2 C3 1_555 1_555
C3 H2 1_555 1_555
N1 C1 1_555 1_555
P1 C1 1_555 1_555
O2 P1 1_555 1_555
O3 P1 1_555 1_555
C4 O3 1_555 1_555
C5 C4 1_555 1_555
O4 P1 1_555 1_555
C6 O4 1_555 1_555
C7 C6 1_555 1_555
N2 O5 1_555 1_555
O5 U1A 1_555 1_555
O6 N2 1_555 1_555
O7 N2D 1_555 1_555
H1 C2 1_555 1_555
H3 C4 1_555 1_555
H4 C4 1_555 1_555
H5 C5 1_555 1_555
H6 C5 1_555 1_555
H7 C5 1_555 1_555
H8 C6 1_555 1_555
H9 C6 1_555 1_555
H10 C7 1_555 1_555
H11 C7 1_555 1_555
H12 C7 1_555 1_555
C2A C3 1_555 1_555
C1A N1 1_555 1_555
P1A C1A 1_555 1_555
O2A P1A 1_555 1_555
U1A O6 1_555 1_555
O1D U1A 1_555 1_555
O2E U1A 1_555 1_555
O5D U1A 1_555 1_555
N2D O5D 1_555 1_555
O6D U1A 1_555 1_555
O7D N2 1_555 1_555
O3A P1A 1_555 1_555
C4A O3A 1_555 1_555
C5A C4A 1_555 1_555
H5A C5A 1_555 1_555
H6A C5A 1_555 1_555
H7A C5A 1_555 1_555
H3A C4A 1_555 1_555
H4A C4A 1_555 1_555
O4A P1A 1_555 1_555
C6A O4A 1_555 1_555
C7A C6A 1_555 1_555
H10A C7A 1_555 1_555
H11A C7A 1_555 1_555
H12A C7A 1_555 1_555
H8A C6A 1_555 1_555
H9A C6A 1_555 1_555
H1A C2A 1_555 1_555
C2A C1A 1_555 1_555
O2A U1A 1_555 1_555
N2D O6D 1_555 1_555

#END
