
#######################################################################
#
#                 Cambridge Crystallographic Data Centre
#                                CCDC 
#
#######################################################################
#
# If this CIF has been generated from an entry in the Cambridge 
# Structural Database, then it will include bibliographic, chemical, 
# crystal, experimental, refinement or atomic coordinate data resulting 
# from the CCDC's data processing and validation procedures.
#
#######################################################################

data_ZEVQOI
_symmetry_cell_setting           orthorhombic
_symmetry_space_group_name_H-M   'P b c a'
_symmetry_Int_Tables_number      61
_space_group_name_Hall           '-P 2ac 2ab'
loop_
_symmetry_equiv_pos_site_id
_symmetry_equiv_pos_as_xyz
1 x,y,z
2 1/2-x,-y,1/2+z
3 -x,1/2+y,1/2-z
4 1/2+x,1/2-y,-z
5 -x,-y,-z
6 1/2+x,y,1/2-z
7 x,1/2-y,1/2+z
8 1/2-x,1/2+y,z
_cell_length_a                   7.2192(17)
_cell_length_b                   9.845(2)
_cell_length_c                   27.205(7)
_cell_angle_alpha                90
_cell_angle_beta                 90
_cell_angle_gamma                90
_cell_volume                     1933.54
loop_
_atom_site_label
_atom_site_type_symbol
_atom_site_fract_x
_atom_site_fract_y
_atom_site_fract_z
Pb1 Pb -0.22979(7) 0.50902(5) 0.11620(2)
Pb2 Pb 0.20099(7) 0.39566(5) 0.02793(2)
O1 O 0.1285(12) 0.5608(8) -0.0358(3)
H1 H 0.1937 0.6451 -0.0276
O2 O 0.1031(13) 0.4168(8) 0.1227(4)
O3 O -0.1096(11) 0.2813(9) 0.1582(4)
Cl1 Cl -0.0495(4) 0.7354(3) 0.07383(16)
Cl2 Cl 0.4575(4) 0.6175(3) 0.05146(14)
N1 N 0.1486(14) 0.1475(10) 0.2114(5)
N2 N 0.0665(16) 0.0267(12) 0.2075(5)
N3 N 0.0331(16) -0.0165(12) 0.2508(5)
N4 N 0.0970(17) 0.0737(12) 0.2839(5)
C1 C 0.0525(18) 0.3133(13) 0.1492(6)
C2 C 0.2078(16) 0.2237(14) 0.1687(6)
H2 H 0.2469 0.1612 0.1432
H3 H 0.3131 0.2800 0.1774
C3 C 0.1645(18) 0.1732(13) 0.2576(6)
H4 H 0.2168 0.2518 0.2705
Pb1_2 Pb 0.77021(7) 0.50902(5) 0.11620(2)
Pb1D Pb 0.22979(7) 0.49098(5) -0.11620(2)
Pb2D Pb -0.20099(7) 0.60434(5) -0.02793(2)
Pb2G Pb 0.29901(7) 0.89566(5) 0.02793(2)
O1D O -0.1285(12) 0.4392(8) 0.0358(3)
Cl1G Cl 0.5495(4) 0.2354(3) 0.07383(16)
Cl2_2 Cl -0.5425(4) 0.6175(3) 0.05146(14)
Cl2G Cl 0.0425(4) 0.1175(3) 0.05146(14)
loop_
_geom_bond_atom_site_label_1
_geom_bond_atom_site_label_2
_geom_bond_site_symmetry_1
_geom_bond_site_symmetry_2
Pb1 O2 1_555 1_555
Pb2 O1 1_555 1_555
O1 H1 1_555 1_555
O2 Pb2 1_555 1_555
O3 Pb1 1_555 1_555
Cl1 Pb1 1_555 1_555
Cl2 Pb2 1_555 1_555
N1 N2 1_555 1_555
N2 N3 1_555 1_555
N3 N4 1_555 1_555
N4 C3 1_555 1_555
C1 O2 1_555 1_555
C2 N1 1_555 1_555
H2 C2 1_555 1_555
H3 C2 1_555 1_555
C3 N1 1_555 1_555
H4 C3 1_555 1_555
Pb1_2 Cl2 1_555 1_555
Pb1D O1 1_555 1_555
Pb2D O1 1_555 1_555
Pb2G Cl1 1_555 1_555
O1D Pb1 1_555 1_555
Cl1G Pb2 1_555 1_555
Cl2_2 Pb1 1_555 1_555
Cl2G Pb2 1_555 1_555
Pb2 O1D 1_555 1_555
O3 C1 1_555 1_555
Cl2 Pb2G 1_555 1_555
C1 C2 1_555 1_555
Pb2D O1D 1_555 1_555

#END
