
#######################################################################
#
#                 Cambridge Crystallographic Data Centre
#                                CCDC 
#
#######################################################################
#
# If this CIF has been generated from an entry in the Cambridge 
# Structural Database, then it will include bibliographic, chemical, 
# crystal, experimental, refinement or atomic coordinate data resulting 
# from the CCDC's data processing and validation procedures.
#
#######################################################################

data_ZEVWUU
_symmetry_cell_setting           orthorhombic
_symmetry_space_group_name_H-M   'P b c a'
_symmetry_Int_Tables_number      61
_space_group_name_Hall           '-P 2ac 2ab'
loop_
_symmetry_equiv_pos_site_id
_symmetry_equiv_pos_as_xyz
1 x,y,z
2 1/2-x,-y,1/2+z
3 1/2+x,1/2-y,-z
4 -x,1/2+y,1/2-z
5 -x,-y,-z
6 1/2+x,y,1/2-z
7 1/2-x,1/2+y,z
8 x,1/2-y,1/2+z
_cell_length_a                   23.653(5)
_cell_length_b                   23.737(4)
_cell_length_c                   51.930(10)
_cell_angle_alpha                90
_cell_angle_beta                 90
_cell_angle_gamma                90
_cell_volume                     29156.2
loop_
_atom_site_label
_atom_site_type_symbol
_atom_site_fract_x
_atom_site_fract_y
_atom_site_fract_z
Cu1 Cu 0.97449(3) 0.57303(3) 0.136801(13)
C1 C 1.1782(3) 0.2860(3) 0.22305(11)
Cu2 Cu 1.03582(4) 0.24477(4) -0.106508(15)
C2 C 1.2228(3) 0.2387(3) 0.22524(12)
C3 C 1.2259(3) 0.2787(3) 0.20617(13)
C4 C 1.1365(3) 0.3127(3) 0.23291(11)
C5 C 1.2442(2) 0.1971(3) 0.23803(11)
C6 C 1.2503(3) 0.2995(3) 0.18352(10)
C7 C 1.10554(7) 0.35416(8) 0.21633(3)
C8 C 1.08173(8) 0.40323(8) 0.22611(3)
H1 H 1.0831 0.4106 0.2441
C9 C 1.05593(8) 0.44149(7) 0.20961(3)
H2 H 1.0397 0.4750 0.2163
C10 C 1.05394(7) 0.43068(7) 0.18332(3)
C11 C 1.07775(6) 0.38161(7) 0.17353(3)
H3 H 1.0764 0.3742 0.1556
C12 C 1.10355(6) 0.34335(7) 0.19004(3)
H4 H 1.1198 0.3098 0.1834
C13 C 1.02687(7) 0.46882(7) 0.16697(3)
N1 N 0.99958(8) 0.50317(7) 0.15187(3)
C14 C 1.11795(8) 0.30218(9) 0.26009(3)
C15 C 1.06102(8) 0.30386(9) 0.26668(3)
H5 H 1.0337 0.3124 0.2539
C16 C 1.0436(3) 0.2932(3) 0.29169(12)
H6 H 1.0050 0.2971 0.2965
C17 C 1.0859(3) 0.2759(3) 0.31030(11)
C18 C 1.1422(3) 0.2795(3) 0.30399(11)
H7 H 1.1700 0.2757 0.3171
C19 C 1.1590(2) 0.2888(3) 0.27863(11)
H8 H 1.1977 0.2860 0.2739
C20 C 1.0683(3) 0.2669(3) 0.33597(14)
N2 N 1.0538(2) 0.2559(3) 0.35754(11)
C21 C 1.2099(3) 0.1728(3) 0.25969(14)
C22 C 1.1517(3) 0.1708(3) 0.25802(13)
H9 H 1.1326 0.1863 0.2436
C23 C 1.1207(3) 0.1447(3) 0.27878(12)
H10 H 1.0816 0.1367 0.2770
C24 C 1.1502(3) 0.1311(3) 0.30227(12)
C25 C 1.2041(3) 0.1341(3) 0.30189(13)
H11 H 1.2227 0.1222 0.3171
C26 C 1.2378(3) 0.1520(3) 0.28286(11)
H12 H 1.2778 0.1511 0.2844
C27 C 1.1173(3) 0.1138(3) 0.32279(13)
N3 N 1.08673(12) 0.09719(12) 0.34053(5)
C28 C 1.29894(10) 0.17121(13) 0.23158(4)
C29 C 1.30553(13) 0.11303(13) 0.23174(4)
H13 H 1.2743 0.0896 0.2359
C30 C 1.3562(3) 0.0896(3) 0.22595(12)
H14 H 1.3601 0.0498 0.2255
C31 C 1.4022(3) 0.1234(3) 0.22077(13)
C32 C 1.3986(3) 0.1834(3) 0.21906(15)
H15 H 1.4297 0.2062 0.2140
C33 C 1.3455(3) 0.2065(3) 0.22546(11)
H16 H 1.3408 0.2462 0.2257
C34 C 1.4567(3) 0.1037(3) 0.21348(13)
N4 N 1.5002(3) 0.0787(3) 0.20841(13)
C35 C 1.2973(3) 0.2629(3) 0.17127(13)
C36 C 1.2885(3) 0.2067(3) 0.16972(11)
H17 H 1.2533 0.1928 0.1757
C37 C 1.3255(4) 0.1693(4) 0.16045(16)
H18 H 1.3179 0.1305 0.1575
C38 C 1.3862(3) 0.2009(3) 0.15494(11)
C39 C 1.3922(3) 0.2542(3) 0.15561(12)
H19 H 1.4279 0.2700 0.1513
C40 C 1.3469(3) 0.2913(3) 0.16259(12)
H20 H 1.3497 0.3311 0.1615
C41 C 1.4315(3) 0.1664(3) 0.14679(11)
N5 N 1.4633(2) 0.1284(2) 0.14177(9)
C42 C 1.2361(2) 0.3602(3) 0.17156(10)
C43 C 1.2345(3) 0.3634(3) 0.14640(12)
H21 H 1.2465 0.3326 0.1361
C44 C 1.2142(3) 0.4150(3) 0.13459(10)
H22 H 1.2132 0.4197 0.1164
C45 C 1.1960(3) 0.4578(3) 0.15163(12)
C46 C 1.2004(3) 0.4504(3) 0.17734(12)
H23 H 1.1893 0.4798 0.1887
C47 C 1.2217(3) 0.3987(3) 0.18772(12)
H24 H 1.2250 0.3931 0.2058
C48 C 1.1721(3) 0.5088(3) 0.14231(12)
N6 N 1.14615(9) 0.54182(10) 0.13318(4)
C49 C 0.80305(10) 0.52763(10) -0.02709(3)
C50 C 0.75795(11) 0.53319(11) -0.04586(4)
C51 C 0.76091(10) 0.57139(11) -0.02470(4)
C52 C 0.84773(10) 0.50052(10) -0.01708(3)
C53 C 0.72367(12) 0.50482(12) -0.06357(4)
C54 C 0.74565(10) 0.61586(11) -0.01335(4)
C55 C 0.87068(7) 0.51721(8) 0.00716(3)
C56 C 0.83329(7) 0.52234(8) 0.02768(3)
H25 H 0.7940 0.5159 0.0251
C57 C 0.85332(8) 0.53683(8) 0.05195(3)
H26 H 0.8278 0.5403 0.0660
C58 C 0.91073(8) 0.54619(8) 0.05571(3)
C59 C 0.94813(7) 0.54106(9) 0.03520(4)
H27 H 0.9874 0.5475 0.0378
C60 C 0.92810(7) 0.52657(9) 0.01092(3)
H28 H 0.9537 0.5231 -0.0031
C61 C 0.93061(9) 0.55528(9) 0.08144(3)
N7 N 0.94863(10) 0.56369(11) 0.10113(4)
C62 C 0.87793(9) 0.45521(10) -0.03390(4)
C63 C 0.90533(10) 0.41065(10) -0.02182(4)
H29 H 0.9054 0.4092 -0.0035
C64 C 0.9329(2) 0.3678(3) -0.03552(11)
H30 H 0.9531 0.3387 -0.0270
C65 C 0.9288(3) 0.3706(3) -0.06382(11)
C66 C 0.8978(3) 0.4138(3) -0.07487(13)
H31 H 0.8903 0.4111 -0.0928
C67 C 0.8764(3) 0.4615(3) -0.06179(12)
H32 H 0.8625 0.4941 -0.0703
C68 C 0.9560(3) 0.3285(3) -0.07723(14)
N8 N 0.9796(2) 0.2966(3) -0.09012(11)
C69 C 0.7356(3) 0.4484(3) -0.07216(12)
C70 C 0.7544(3) 0.4092(3) -0.05418(11)
H33 H 0.7608 0.4205 -0.0369
C71 C 0.7640(3) 0.3518(4) -0.06162(15)
H34 H 0.7746 0.3242 -0.0493
C72 C 0.7578(3) 0.3386(3) -0.08636(13)
C73 C 0.7377(3) 0.3740(3) -0.10475(13)
H35 H 0.7312 0.3603 -0.1217
C74 C 0.7259(3) 0.4338(3) -0.09864(12)
H36 H 0.7130 0.4602 -0.1111
C75 C 0.7659(3) 0.2843(3) -0.09470(12)
N9 N 0.7749(2) 0.23037(14) -0.09786(8)
C76 C 0.67429(13) 0.53949(15) -0.07437(5)
C77 C 0.62140(13) 0.51488(17) -0.07742(6)
H37 H 0.6171 0.4755 -0.0747
C78 C 0.5747(3) 0.5470(3) -0.08440(12)
H38 H 0.5378 0.5312 -0.0845
C79 C 0.5844(3) 0.6073(3) -0.09183(11)
C80 C 0.6383(3) 0.6335(3) -0.08835(15)
H39 H 0.6448 0.6724 -0.0916
C81 C 0.6813(3) 0.5965(3) -0.07969(13)
H40 H 0.7180 0.6119 -0.0773
C82 C 0.5421(3) 0.6375(3) -0.09774(12)
N10 N 0.4985(3) 0.6693(3) -0.10047(12)
C83 C 0.6852(3) 0.6416(4) -0.01532(14)
C84 C 0.6421(3) 0.6035(3) -0.01984(13)
H41 H 0.6474 0.5638 -0.0198
C85 C 0.5871(3) 0.6307(3) -0.02480(12)
H42 H 0.5543 0.6076 -0.0256
C86 C 0.5813(3) 0.6829(4) -0.02800(15)
C87 C 0.6265(4) 0.7321(4) -0.02442(17)
H43 H 0.6189 0.7713 -0.0231
C88 C 0.6840(4) 0.7041(4) -0.02346(17)
H44 H 0.7176 0.7240 -0.0277
C89 C 0.5199(5) 0.7096(4) -0.02956(17)
N11 N 0.4801(3) 0.7288(4) -0.03144(13)
C90 C 0.7765(3) 0.6452(3) 0.00740(12)
C91 C 0.7459(5) 0.6643(5) 0.0309(2)
H45 H 0.7066 0.6584 0.0335
C92 C 0.7817(3) 0.6924(3) 0.04919(13)
H46 H 0.7642 0.7091 0.0638
C93 C 0.8436(3) 0.6972(3) 0.04687(14)
C94 C 0.8716(3) 0.6736(3) 0.02419(11)
H47 H 0.9116 0.6735 0.0230
C95 C 0.8387(3) 0.6512(3) 0.00416(15)
H48 H 0.8562 0.6398 -0.0115
C96 C 0.8747(3) 0.7199(4) 0.06719(16)
N12 N 0.89808(14) 0.73592(10) 0.08263(6)
Cu1C Cu 1.02551(3) 0.07303(3) 0.363199(13)
Cu1F Cu 1.52551(3) 0.07303(3) 0.136801(13)
Cu2D Cu 0.96418(4) 0.75523(4) 0.106508(15)
Cu2F Cu 0.46418(4) 0.74477(4) -0.106508(15)
Cu2G Cu 1.03582(4) 0.25523(4) 0.393492(15)
N2G N 1.0538(2) 0.2441(3) -0.14246(11)
N3C N 0.91327(12) 0.59719(12) 0.15947(5)
N5F N 1.0367(2) 0.6284(2) 0.14177(9)
N10F N 1.0015(3) 0.1693(3) -0.10047(12)
N12D N 1.10192(14) 0.26408(10) -0.08263(6)
loop_
_geom_bond_atom_site_label_1
_geom_bond_atom_site_label_2
_geom_bond_site_symmetry_1
_geom_bond_site_symmetry_2
Cu1 N1 1_555 1_555
C1 C2 1_555 1_555
Cu2 N8 1_555 1_555
C2 C3 1_555 1_555
C3 C1 1_555 1_555
C4 C1 1_555 1_555
C5 C2 1_555 1_555
C6 C3 1_555 1_555
C7 C4 1_555 1_555
C8 C7 1_555 1_555
H1 C8 1_555 1_555
C9 C8 1_555 1_555
H2 C9 1_555 1_555
C10 C9 1_555 1_555
C11 C10 1_555 1_555
H3 C11 1_555 1_555
C12 C7 1_555 1_555
H4 C12 1_555 1_555
C13 C10 1_555 1_555
N1 C13 1_555 1_555
C14 C4 1_555 1_555
C15 C14 1_555 1_555
H5 C15 1_555 1_555
C16 C15 1_555 1_555
H6 C16 1_555 1_555
C17 C16 1_555 1_555
C18 C17 1_555 1_555
H7 C18 1_555 1_555
C19 C14 1_555 1_555
H8 C19 1_555 1_555
C20 C17 1_555 1_555
N2 C20 1_555 1_555
C21 C5 1_555 1_555
C22 C21 1_555 1_555
H9 C22 1_555 1_555
C23 C22 1_555 1_555
H10 C23 1_555 1_555
C24 C23 1_555 1_555
C25 C24 1_555 1_555
H11 C25 1_555 1_555
C26 C21 1_555 1_555
H12 C26 1_555 1_555
C27 C24 1_555 1_555
N3 C27 1_555 1_555
C28 C5 1_555 1_555
C29 C28 1_555 1_555
H13 C29 1_555 1_555
C30 C29 1_555 1_555
H14 C30 1_555 1_555
C31 C30 1_555 1_555
C32 C31 1_555 1_555
H15 C32 1_555 1_555
C33 C28 1_555 1_555
H16 C33 1_555 1_555
C34 C31 1_555 1_555
N4 C34 1_555 1_555
C35 C6 1_555 1_555
C36 C35 1_555 1_555
H17 C36 1_555 1_555
C37 C36 1_555 1_555
H18 C37 1_555 1_555
C38 C37 1_555 1_555
C39 C38 1_555 1_555
H19 C39 1_555 1_555
C40 C35 1_555 1_555
H20 C40 1_555 1_555
C41 C38 1_555 1_555
N5 C41 1_555 1_555
C42 C6 1_555 1_555
C43 C42 1_555 1_555
H21 C43 1_555 1_555
C44 C43 1_555 1_555
H22 C44 1_555 1_555
C45 C44 1_555 1_555
C46 C45 1_555 1_555
H23 C46 1_555 1_555
C47 C42 1_555 1_555
H24 C47 1_555 1_555
C48 C45 1_555 1_555
N6 C48 1_555 1_555
C49 C50 1_555 1_555
C50 C51 1_555 1_555
C51 C49 1_555 1_555
C52 C49 1_555 1_555
C53 C50 1_555 1_555
C54 C51 1_555 1_555
C55 C52 1_555 1_555
C56 C55 1_555 1_555
H25 C56 1_555 1_555
C57 C56 1_555 1_555
H26 C57 1_555 1_555
C58 C57 1_555 1_555
C59 C58 1_555 1_555
H27 C59 1_555 1_555
C60 C55 1_555 1_555
H28 C60 1_555 1_555
C61 C58 1_555 1_555
N7 Cu1 1_555 1_555
C62 C52 1_555 1_555
C63 C62 1_555 1_555
H29 C63 1_555 1_555
C64 C63 1_555 1_555
H30 C64 1_555 1_555
C65 C64 1_555 1_555
C66 C65 1_555 1_555
H31 C66 1_555 1_555
C67 C62 1_555 1_555
H32 C67 1_555 1_555
C68 C65 1_555 1_555
N8 C68 1_555 1_555
C69 C53 1_555 1_555
C70 C69 1_555 1_555
H33 C70 1_555 1_555
C71 C70 1_555 1_555
H34 C71 1_555 1_555
C72 C71 1_555 1_555
C73 C72 1_555 1_555
H35 C73 1_555 1_555
C74 C69 1_555 1_555
H36 C74 1_555 1_555
C75 C72 1_555 1_555
N9 C75 1_555 1_555
C76 C53 1_555 1_555
C77 C76 1_555 1_555
H37 C77 1_555 1_555
C78 C77 1_555 1_555
H38 C78 1_555 1_555
C79 C78 1_555 1_555
C80 C79 1_555 1_555
H39 C80 1_555 1_555
C81 C76 1_555 1_555
H40 C81 1_555 1_555
C82 C79 1_555 1_555
N10 C82 1_555 1_555
C83 C54 1_555 1_555
C84 C83 1_555 1_555
H41 C84 1_555 1_555
C85 C84 1_555 1_555
H42 C85 1_555 1_555
C86 C85 1_555 1_555
C87 C86 1_555 1_555
H43 C87 1_555 1_555
C88 C83 1_555 1_555
H44 C88 1_555 1_555
C89 C86 1_555 1_555
N11 C89 1_555 1_555
C90 C54 1_555 1_555
C91 C90 1_555 1_555
H45 C91 1_555 1_555
C92 C91 1_555 1_555
H46 C92 1_555 1_555
C93 C92 1_555 1_555
C94 C93 1_555 1_555
H47 C94 1_555 1_555
C95 C90 1_555 1_555
H48 C95 1_555 1_555
C96 C93 1_555 1_555
N12 C96 1_555 1_555
Cu1C N3 1_555 1_555
Cu1F N5 1_555 1_555
Cu2D N12 1_555 1_555
Cu2F N10 1_555 1_555
Cu2G N2 1_555 1_555
N2G Cu2 1_555 1_555
N3C Cu1 1_555 1_555
N5F Cu1 1_555 1_555
N10F Cu2 1_555 1_555
N12D Cu2 1_555 1_555
C11 C12 1_555 1_555
C18 C19 1_555 1_555
C25 C26 1_555 1_555
C32 C33 1_555 1_555
C39 C40 1_555 1_555
C46 C47 1_555 1_555
C59 C60 1_555 1_555
C61 N7 1_555 1_555
C66 C67 1_555 1_555
C73 C74 1_555 1_555
C80 C81 1_555 1_555
C87 C88 1_555 1_555
C94 C95 1_555 1_555

#END
