
#######################################################################
#
#                 Cambridge Crystallographic Data Centre
#                                CCDC 
#
#######################################################################
#
# If this CIF has been generated from an entry in the Cambridge 
# Structural Database, then it will include bibliographic, chemical, 
# crystal, experimental, refinement or atomic coordinate data resulting 
# from the CCDC's data processing and validation procedures.
#
#######################################################################

data_ZEVXEF
_symmetry_cell_setting           orthorhombic
_symmetry_space_group_name_H-M   'P n n a'
_symmetry_Int_Tables_number      52
_space_group_name_Hall           '-P 2a 2bc'
loop_
_symmetry_equiv_pos_site_id
_symmetry_equiv_pos_as_xyz
1 x,y,z
2 1/2-x,-y,z
3 x,1/2-y,1/2-z
4 1/2-x,1/2+y,1/2-z
5 -x,-y,-z
6 1/2+x,y,-z
7 -x,1/2+y,1/2+z
8 1/2+x,1/2-y,1/2+z
_cell_length_a                   28.799(6)
_cell_length_b                   30.905(6)
_cell_length_c                   15.631(3)
_cell_angle_alpha                90
_cell_angle_beta                 90
_cell_angle_gamma                90
_cell_volume                     13912.1
loop_
_atom_site_label
_atom_site_type_symbol
_atom_site_fract_x
_atom_site_fract_y
_atom_site_fract_z
Ag1 Ag -0.14261(5) 0.2500 0.2500
C1 C -0.0840(2) -0.05673(15) 0.2726(4)
Ag2 Ag 0.00762(5) 0.2500 0.2500
C2 C -0.04034(19) -0.05631(16) 0.2273(4)
Ag3 Ag -0.33052(4) -0.19597(3) 0.57499(7)
C3 C -0.06323(17) -0.09695(18) 0.2467(4)
Ag4 Ag -0.30829(4) -0.28784(4) 0.42822(7)
C4 C -0.12004(18) -0.03437(15) 0.3098(4)
C5 C -0.00517(18) -0.03589(15) 0.1894(4)
C6 C -0.06335(16) -0.13987(17) 0.2507(4)
C7 C -0.12420(18) 0.01302(16) 0.2988(5)
C8 C -0.1328(2) 0.03991(19) 0.3651(5)
H1 H -0.1360 0.0284 0.4211
C9 C -0.1371(2) 0.08357(19) 0.3527(5)
H2 H -0.1424 0.1023 0.3998
C10 C -0.1335(3) 0.09984(19) 0.2715(7)
C11 C -0.1235(3) 0.0753(2) 0.2061(6)
H3 H -0.1198 0.0879 0.1511
C12 C -0.1181(3) 0.0311(2) 0.2161(6)
H4 H -0.1105 0.0132 0.1686
C13 C -0.1427(3) 0.1472(2) 0.2581(6)
N1 N -0.1487(3) 0.1804(2) 0.2481(6)
C14 C -0.1546(2) -0.05718(17) 0.3571(5)
C15 C -0.1419(2) -0.09237(18) 0.4106(4)
H5 H -0.1100 -0.0998 0.4171
C16 C -0.1757(2) -0.11605(19) 0.4535(5)
H6 H -0.1672 -0.1387 0.4915
C17 C -0.2215(3) -0.1062(2) 0.4403(6)
C18 C -0.2349(3) -0.0709(2) 0.3888(6)
H7 H -0.2668 -0.0640 0.3820
C19 C -0.2017(2) -0.0466(2) 0.3489(6)
H8 H -0.2106 -0.0224 0.3153
C20 C -0.2566(3) -0.1318(2) 0.4814(8)
N2 N -0.2818(3) -0.1539(3) 0.5100(7)
C21 C -0.10638(18) -0.16381(15) 0.2735(4)
C22 C -0.1047(2) -0.19920(16) 0.3292(4)
H9 H -0.0757 -0.2089 0.3509
C23 C -0.1447(2) -0.21971(16) 0.3524(4)
H10 H -0.1437 -0.2440 0.3897
C24 C -0.1857(2) -0.20528(18) 0.3219(5)
C25 C -0.1889(2) -0.1708(2) 0.2660(4)
H11 H -0.2183 -0.1619 0.2448
C26 C -0.14974(19) -0.14962(19) 0.2416(5)
H12 H -0.1514 -0.1257 0.2036
C27 C -0.2280(2) -0.2280(2) 0.3483(6)
N3 N -0.2620(3) -0.2453(2) 0.3673(5)
C28 C -0.02181(19) -0.16563(16) 0.2234(4)
C29 C 0.02156(18) -0.15203(17) 0.2499(4)
H13 H 0.0246 -0.1268 0.2842
C30 C 0.06103(19) -0.1755(2) 0.2259(4)
H14 H 0.0910 -0.1668 0.2446
C31 C 0.0556(2) -0.21064(16) 0.1758(4)
C32 C 0.0126(2) -0.22363(18) 0.1484(4)
H15 H 0.0099 -0.2480 0.1117
C33 C -0.0267(2) -0.20165(14) 0.1736(4)
H16 H -0.0566 -0.2114 0.1566
C34 C 0.0956(3) -0.2356(2) 0.1491(5)
N4 N 0.1264(2) -0.2559(2) 0.1289(5)
C35 C 0.0284(2) -0.06178(17) 0.1371(5)
C36 C 0.0749(3) -0.0548(2) 0.1410(6)
H17 H 0.0867 -0.0320 0.1756
C37 C 0.1047(3) -0.0803(3) 0.0957(8)
H18 H 0.1371 -0.0749 0.0983
C38 C 0.0886(3) -0.1129(3) 0.0475(6)
C39 C 0.0430(3) -0.1209(2) 0.0384(4)
H19 H 0.0328 -0.1437 0.0024
C40 C 0.0096(3) -0.09435(19) 0.0840(4)
H20 H -0.0229 -0.0986 0.0785
C41 C 0.1181(4) -0.1442(3) 0.0039(7)
N5 N 0.1409(4) -0.1700(3) -0.0297(6)
C42 C 0.0009(2) 0.01162(17) 0.1990(4)
C43 C -0.0135(2) 0.03119(18) 0.2742(4)
H21 H -0.0260 0.0144 0.3195
C44 C -0.0092(2) 0.0768(2) 0.2824(5)
H22 H -0.0175 0.0906 0.3346
C45 C 0.0066(2) 0.10087(19) 0.2155(6)
C46 C 0.0221(2) 0.0810(2) 0.1401(5)
H23 H 0.0347 0.0980 0.0951
C47 C 0.0190(2) 0.03668(17) 0.1311(5)
H24 H 0.0289 0.0231 0.0797
C48 C 0.0105(3) 0.1457(2) 0.2214(6)
N6 N 0.0128(3) 0.1831(2) 0.2332(6)
C1B C -0.0840(2) 0.55673(15) 0.2274(4)
C2B C -0.04034(19) 0.55631(16) 0.2727(4)
Ag3B Ag -0.33052(4) 0.69597(3) -0.07499(7)
C3B C -0.06323(17) 0.59695(18) 0.2533(4)
Ag4B Ag -0.30829(4) 0.78784(4) 0.07178(7)
C4B C -0.12004(18) 0.53437(15) 0.1902(4)
C5B C -0.00517(18) 0.53589(15) 0.3106(4)
C6B C -0.06335(16) 0.63987(17) 0.2493(4)
C7B C -0.12420(18) 0.48698(16) 0.2012(5)
C8B C -0.1328(2) 0.46009(19) 0.1349(5)
H1B H -0.1360 0.4716 0.0789
C9B C -0.1371(2) 0.41643(19) 0.1473(5)
H2B H -0.1424 0.3977 0.1002
C10B C -0.1335(3) 0.40016(19) 0.2285(7)
C11B C -0.1235(3) 0.4247(2) 0.2939(6)
H3B H -0.1198 0.4121 0.3489
C12B C -0.1181(3) 0.4689(2) 0.2839(6)
H4B H -0.1105 0.4868 0.3314
C13B C -0.1427(3) 0.3528(2) 0.2419(6)
N1B N -0.1487(3) 0.3196(2) 0.2519(6)
C14B C -0.1546(2) 0.55718(17) 0.1429(5)
C15B C -0.1419(2) 0.59237(18) 0.0894(4)
H5B H -0.1100 0.5998 0.0829
C16B C -0.1757(2) 0.61605(19) 0.0465(5)
H6B H -0.1672 0.6387 0.0085
C17B C -0.2215(3) 0.6062(2) 0.0597(6)
C18B C -0.2349(3) 0.5709(2) 0.1112(6)
H7B H -0.2668 0.5640 0.1180
C19B C -0.2017(2) 0.5466(2) 0.1511(6)
H8B H -0.2106 0.5224 0.1847
C20B C -0.2566(3) 0.6318(2) 0.0186(8)
N2B N -0.2818(3) 0.6539(3) -0.0100(7)
C21B C -0.10638(18) 0.66381(15) 0.2265(4)
C22B C -0.1047(2) 0.69920(16) 0.1708(4)
H9B H -0.0757 0.7089 0.1491
C23B C -0.1447(2) 0.71971(16) 0.1476(4)
H10B H -0.1437 0.7440 0.1103
C24B C -0.1857(2) 0.70528(18) 0.1781(5)
C25B C -0.1889(2) 0.6708(2) 0.2340(4)
H11B H -0.2183 0.6619 0.2552
C26B C -0.14974(19) 0.64962(19) 0.2584(5)
H12B H -0.1514 0.6257 0.2964
C27B C -0.2280(2) 0.7280(2) 0.1517(6)
N3B N -0.2620(3) 0.7453(2) 0.1327(5)
C28B C -0.02181(19) 0.66563(16) 0.2766(4)
C29B C 0.02156(18) 0.65203(17) 0.2501(4)
H13B H 0.0246 0.6268 0.2158
C30B C 0.06103(19) 0.6755(2) 0.2741(4)
H14B H 0.0910 0.6668 0.2554
C31B C 0.0556(2) 0.71064(16) 0.3242(4)
C32B C 0.0126(2) 0.72363(18) 0.3516(4)
H15B H 0.0099 0.7480 0.3883
C33B C -0.0267(2) 0.70165(14) 0.3264(4)
H16B H -0.0566 0.7114 0.3434
C34B C 0.0956(3) 0.7356(2) 0.3509(5)
N4B N 0.1264(2) 0.7559(2) 0.3711(5)
C35B C 0.0284(2) 0.56178(17) 0.3629(5)
C36B C 0.0749(3) 0.5548(2) 0.3590(6)
H17B H 0.0867 0.5320 0.3244
C37B C 0.1047(3) 0.5803(3) 0.4043(8)
H18B H 0.1371 0.5749 0.4017
C38B C 0.0886(3) 0.6129(3) 0.4525(6)
C39B C 0.0430(3) 0.6209(2) 0.4616(4)
H19B H 0.0328 0.6437 0.4976
C40B C 0.0096(3) 0.59435(19) 0.4160(4)
H20B H -0.0229 0.5986 0.4215
C41B C 0.1181(4) 0.6442(3) 0.4961(7)
N5B N 0.1409(4) 0.6700(3) 0.5297(6)
C42B C 0.0009(2) 0.48838(17) 0.3010(4)
C43B C -0.0135(2) 0.46881(18) 0.2258(4)
H21B H -0.0260 0.4856 0.1805
C44B C -0.0092(2) 0.4232(2) 0.2176(5)
H22B H -0.0175 0.4094 0.1654
C45B C 0.0066(2) 0.39913(19) 0.2845(6)
C46B C 0.0221(2) 0.4190(2) 0.3599(5)
H23B H 0.0347 0.4020 0.4049
C47B C 0.0190(2) 0.46332(17) 0.3689(5)
H24B H 0.0289 0.4769 0.4203
C48B C 0.0105(3) 0.3543(2) 0.2786(6)
N6B N 0.0128(3) 0.3169(2) 0.2668(6)
Ag3E Ag 0.16948(4) 0.80403(3) 0.42501(7)
Ag3G Ag 0.16948(4) -0.30403(3) 0.07499(7)
Ag4E Ag 0.19171(4) 0.71216(4) 0.57178(7)
Ag4G Ag 0.19171(4) -0.21216(4) -0.07178(7)
N4E N -0.3736(2) 0.7441(2) -0.1289(5)
N4G N -0.3736(2) -0.2441(2) 0.6289(5)
N5E N -0.3591(4) 0.8300(3) 0.0297(6)
N5G N -0.3591(4) -0.3300(3) 0.4703(6)
loop_
_geom_bond_atom_site_label_1
_geom_bond_atom_site_label_2
_geom_bond_site_symmetry_1
_geom_bond_site_symmetry_2
Ag1 N1 1_555 1_555
C1 C2 1_555 1_555
Ag2 N6 1_555 1_555
C2 C3 1_555 1_555
Ag3 N2 1_555 1_555
C3 C1 1_555 1_555
Ag4 N3 1_555 1_555
C4 C1 1_555 1_555
C5 C2 1_555 1_555
C6 C3 1_555 1_555
C7 C4 1_555 1_555
C8 C7 1_555 1_555
H1 C8 1_555 1_555
C9 C8 1_555 1_555
H2 C9 1_555 1_555
C10 C9 1_555 1_555
C11 C10 1_555 1_555
H3 C11 1_555 1_555
C12 C7 1_555 1_555
H4 C12 1_555 1_555
C13 C10 1_555 1_555
N1 C13 1_555 1_555
C14 C4 1_555 1_555
C15 C14 1_555 1_555
H5 C15 1_555 1_555
C16 C15 1_555 1_555
H6 C16 1_555 1_555
C17 C16 1_555 1_555
C18 C17 1_555 1_555
H7 C18 1_555 1_555
C19 C14 1_555 1_555
H8 C19 1_555 1_555
C20 C17 1_555 1_555
N2 C20 1_555 1_555
C21 C6 1_555 1_555
C22 C21 1_555 1_555
H9 C22 1_555 1_555
C23 C22 1_555 1_555
H10 C23 1_555 1_555
C24 C23 1_555 1_555
C25 C24 1_555 1_555
H11 C25 1_555 1_555
C26 C21 1_555 1_555
H12 C26 1_555 1_555
C27 C24 1_555 1_555
N3 C27 1_555 1_555
C28 C6 1_555 1_555
C29 C28 1_555 1_555
H13 C29 1_555 1_555
C30 C29 1_555 1_555
H14 C30 1_555 1_555
C31 C30 1_555 1_555
C32 C31 1_555 1_555
H15 C32 1_555 1_555
C33 C28 1_555 1_555
H16 C33 1_555 1_555
C34 C31 1_555 1_555
N4 C34 1_555 1_555
C35 C5 1_555 1_555
C36 C35 1_555 1_555
H17 C36 1_555 1_555
C37 C36 1_555 1_555
H18 C37 1_555 1_555
C38 C37 1_555 1_555
C39 C38 1_555 1_555
H19 C39 1_555 1_555
C40 C35 1_555 1_555
H20 C40 1_555 1_555
C41 C38 1_555 1_555
N5 C41 1_555 1_555
C42 C5 1_555 1_555
C43 C42 1_555 1_555
H21 C43 1_555 1_555
C44 C43 1_555 1_555
H22 C44 1_555 1_555
C45 C44 1_555 1_555
C46 C45 1_555 1_555
H23 C46 1_555 1_555
C47 C42 1_555 1_555
H24 C47 1_555 1_555
C48 C45 1_555 1_555
N6 C48 1_555 1_555
C1B C2B 1_555 1_555
C2B C3B 1_555 1_555
Ag3B N2B 1_555 1_555
C3B C1B 1_555 1_555
Ag4B N3B 1_555 1_555
C4B C1B 1_555 1_555
C5B C2B 1_555 1_555
C6B C3B 1_555 1_555
C7B C4B 1_555 1_555
C8B C7B 1_555 1_555
H1B C8B 1_555 1_555
C9B C8B 1_555 1_555
H2B C9B 1_555 1_555
C10B C9B 1_555 1_555
C11B C10B 1_555 1_555
H3B C11B 1_555 1_555
C12B C7B 1_555 1_555
H4B C12B 1_555 1_555
C13B C10B 1_555 1_555
N1B Ag1 1_555 1_555
C14B C4B 1_555 1_555
C15B C14B 1_555 1_555
H5B C15B 1_555 1_555
C16B C15B 1_555 1_555
H6B C16B 1_555 1_555
C17B C16B 1_555 1_555
C18B C17B 1_555 1_555
H7B C18B 1_555 1_555
C19B C14B 1_555 1_555
H8B C19B 1_555 1_555
C20B C17B 1_555 1_555
N2B C20B 1_555 1_555
C21B C6B 1_555 1_555
C22B C21B 1_555 1_555
H9B C22B 1_555 1_555
C23B C22B 1_555 1_555
H10B C23B 1_555 1_555
C24B C23B 1_555 1_555
C25B C24B 1_555 1_555
H11B C25B 1_555 1_555
C26B C21B 1_555 1_555
H12B C26B 1_555 1_555
C27B C24B 1_555 1_555
N3B C27B 1_555 1_555
C28B C6B 1_555 1_555
C29B C28B 1_555 1_555
H13B C29B 1_555 1_555
C30B C29B 1_555 1_555
H14B C30B 1_555 1_555
C31B C30B 1_555 1_555
C32B C31B 1_555 1_555
H15B C32B 1_555 1_555
C33B C28B 1_555 1_555
H16B C33B 1_555 1_555
C34B C31B 1_555 1_555
N4B C34B 1_555 1_555
C35B C5B 1_555 1_555
C36B C35B 1_555 1_555
H17B C36B 1_555 1_555
C37B C36B 1_555 1_555
H18B C37B 1_555 1_555
C38B C37B 1_555 1_555
C39B C38B 1_555 1_555
H19B C39B 1_555 1_555
C40B C35B 1_555 1_555
H20B C40B 1_555 1_555
C41B C38B 1_555 1_555
N5B C41B 1_555 1_555
C42B C5B 1_555 1_555
C43B C42B 1_555 1_555
H21B C43B 1_555 1_555
C44B C43B 1_555 1_555
H22B C44B 1_555 1_555
C45B C44B 1_555 1_555
C46B C45B 1_555 1_555
H23B C46B 1_555 1_555
C47B C42B 1_555 1_555
H24B C47B 1_555 1_555
C48B C45B 1_555 1_555
N6B Ag2 1_555 1_555
Ag3E N4B 1_555 1_555
Ag3G N4 1_555 1_555
Ag4E N5B 1_555 1_555
Ag4G N5 1_555 1_555
N4E Ag3B 1_555 1_555
N4G Ag3 1_555 1_555
N5E Ag4B 1_555 1_555
N5G Ag4 1_555 1_555
C11 C12 1_555 1_555
C18 C19 1_555 1_555
C25 C26 1_555 1_555
C32 C33 1_555 1_555
C39 C40 1_555 1_555
C46 C47 1_555 1_555
C11B C12B 1_555 1_555
C13B N1B 1_555 1_555
C18B C19B 1_555 1_555
C25B C26B 1_555 1_555
C32B C33B 1_555 1_555
C39B C40B 1_555 1_555
C46B C47B 1_555 1_555
C48B N6B 1_555 1_555

#END
