
#######################################################################
#
#                 Cambridge Crystallographic Data Centre
#                                CCDC 
#
#######################################################################
#
# If this CIF has been generated from an entry in the Cambridge 
# Structural Database, then it will include bibliographic, chemical, 
# crystal, experimental, refinement or atomic coordinate data resulting 
# from the CCDC's data processing and validation procedures.
#
#######################################################################

data_ZEVXAB
_symmetry_cell_setting           orthorhombic
_symmetry_space_group_name_H-M   'P b c a'
_symmetry_Int_Tables_number      61
_space_group_name_Hall           '-P 2ac 2ab'
loop_
_symmetry_equiv_pos_site_id
_symmetry_equiv_pos_as_xyz
1 x,y,z
2 1/2-x,-y,1/2+z
3 1/2+x,1/2-y,-z
4 -x,1/2+y,1/2-z
5 -x,-y,-z
6 1/2+x,y,1/2-z
7 1/2-x,1/2+y,z
8 x,1/2-y,1/2+z
_cell_length_a                   23.470(5)
_cell_length_b                   22.051(4)
_cell_length_c                   52.645(10)
_cell_angle_alpha                90
_cell_angle_beta                 90
_cell_angle_gamma                90
_cell_volume                     27245.7
loop_
_atom_site_label
_atom_site_type_symbol
_atom_site_fract_x
_atom_site_fract_y
_atom_site_fract_z
B1 B 0.5250(2) 0.1570(3) 0.03363(9)
F1 F 0.5132(4) 0.1948(2) 0.01446(9)
F2 F 0.49612(14) 0.10274(15) 0.03035(6)
F3 F 0.58373(16) 0.1407(3) 0.03563(9)
F4 F 0.51194(13) 0.18227(14) 0.05717(5)
B2 B 0.3819(4) 0.3668(3) 0.16342(16)
F5 F 0.3859(3) 0.4016(5) 0.18422(16)
F6 F 0.3802(3) 0.3076(3) 0.17086(14)
F7 F 0.3302(2) 0.3807(4) 0.15026(12)
F8 F 0.4289(2) 0.3731(3) 0.14622(12)
B3 B 0.5185(4) 0.5485(3) 0.16210(16)
F9 F 0.5098(8) 0.6043(6) 0.1622(3)
F10 F 0.4677(9) 0.5304(14) 0.1510(3)
F11 F 0.5281(8) 0.5180(8) 0.1841(2)
F12 F 0.5636(6) 0.5401(11) 0.1466(2)
Cu1 Cu 0.464162(16) -0.075157(19) 0.136440(7)
C1 C 0.29264(12) -0.00669(13) -0.02442(5)
Cu2 Cu 0.447588(16) -0.273922(18) 0.103418(7)
C2 C 0.24750(13) -0.05062(14) -0.02063(6)
C3 C 0.24403(12) -0.00738(13) -0.04075(6)
C4 C 0.34357(12) 0.01577(13) -0.01664(5)
C5 C 0.22599(13) -0.09795(14) -0.00769(6)
C6 C 0.21457(12) 0.01816(14) -0.06029(6)
C7 C 0.44274(12) 0.14267(13) -0.03456(6)
H1 H 0.4677 0.1707 -0.0266
C8 C 0.37615(11) 0.05928(12) -0.03180(5)
C9 C 0.37165(13) 0.05914(13) -0.05847(5)
H2 H 0.3483 0.0298 -0.0666
C10 C 0.40110(13) 0.10149(15) -0.07299(6)
H3 H 0.3968 0.1021 -0.0909
C11 C 0.43675(12) 0.14269(13) -0.06117(5)
C12 C 0.46719(13) 0.18589(15) -0.07633(6)
N1 N 0.49238(12) 0.21941(13) -0.08830(5)
C13 C 0.41241(12) 0.10217(13) -0.02025(5)
H4 H 0.4158 0.1029 -0.0023
C14 C 0.36506(12) -0.00351(12) 0.00871(5)
C15 C 0.42198(12) -0.02018(13) 0.01241(5)
H5 H 0.4474 -0.0203 -0.0016
C16 C 0.44173(13) -0.03657(14) 0.03625(6)
H6 H 0.4805 -0.0474 0.0386
C17 C 0.40422(12) -0.03690(13) 0.05652(6)
C18 C 0.42395(13) -0.05208(14) 0.08120(6)
N2 N 0.44053(12) -0.06361(13) 0.10127(5)
C19 C 0.34628(12) -0.02032(14) 0.05322(6)
H7 H 0.3207 -0.0206 0.0672
C20 C 0.32776(12) -0.00377(14) 0.02938(6)
H8 H 0.2891 0.0076 0.0270
C21 C 0.25898(13) -0.12984(14) 0.01168(6)
C22 C 0.31803(12) -0.14008(13) 0.00778(6)
H9 H 0.3359 -0.1260 -0.0073
C23 C 0.34987(13) -0.17080(13) 0.02602(6)
H10 H 0.3893 -0.1781 0.0234
C24 C 0.32331(13) -0.19076(14) 0.04811(6)
C25 C 0.35675(15) -0.22361(15) 0.06699(6)
N3 N 0.38328(12) -0.24782(13) 0.08169(5)
C26 C 0.26491(15) -0.18280(17) 0.05163(7)
H11 H 0.2467 -0.1990 0.0662
C27 C 0.23425(14) -0.15163(16) 0.03402(6)
H12 H 0.1949 -0.1445 0.0370
C28 C 0.16725(13) -0.11827(14) -0.01295(6)
C29 C 0.15420(15) -0.18074(16) -0.01376(8)
H13 H 0.1834 -0.2097 -0.0108
C30 C 0.09890(16) -0.20034(18) -0.01880(9)
H14 H 0.0906 -0.2425 -0.0196
C31 C 0.05560(15) -0.1575(2) -0.02264(8)
C32 C -0.00136(17) -0.1802(2) -0.02675(8)
N4 N -0.04665(16) -0.1970(2) -0.03049(8)
C33 C 0.06825(15) -0.09646(18) -0.02131(7)
H15 H 0.0387 -0.0677 -0.0238
C34 C 0.12249(14) -0.07640(16) -0.01651(7)
H16 H 0.1300 -0.0341 -0.0156
C35 C 0.16367(13) -0.01345(14) -0.07036(6)
C36 C 0.16493(14) -0.07557(15) -0.07350(6)
H17 H 0.1994 -0.0969 -0.0704
C37 C 0.11700(15) -0.10749(15) -0.08107(7)
H18 H 0.1184 -0.1503 -0.0830
C38 C 0.06617(14) -0.07548(15) -0.08591(6)
C39 C 0.01690(15) -0.11003(15) -0.09174(7)
N5 N -0.02010(13) -0.14350(14) -0.09577(6)
C40 C 0.06473(15) -0.01196(16) -0.08338(7)
H19 H 0.0305 0.0096 -0.0867
C41 C 0.11352(14) 0.01917(15) -0.07606(7)
H20 H 0.1131 0.0622 -0.0749
C42 C 0.23280(13) 0.07678(14) -0.07056(6)
C43 C 0.23088(15) 0.08954(15) -0.09692(6)
H21 H 0.2159 0.0602 -0.1083
C44 C 0.25039(16) 0.14387(16) -0.10608(6)
H22 H 0.2498 0.1516 -0.1238
C45 C 0.27115(14) 0.18774(15) -0.08945(6)
C46 C 0.29061(17) 0.24462(18) -0.09891(7)
N6 N 0.30602(17) 0.29120(16) -0.10644(7)
C47 C 0.27221(13) 0.17683(14) -0.06334(6)
H23 H 0.2858 0.2071 -0.0520
C48 C 0.25336(13) 0.12170(14) -0.05413(6)
H24 H 0.2543 0.1141 -0.0364
C49 C 0.69690(13) 0.19829(15) 0.22908(5)
C50 C 0.74135(14) 0.20172(14) 0.21057(6)
C51 C 0.74226(14) 0.24051(16) 0.23245(6)
C52 C 0.64615(13) 0.17359(15) 0.23708(6)
C53 C 0.76541(13) 0.18213(14) 0.18881(6)
C54 C 0.76461(14) 0.28726(15) 0.24565(6)
C55 C 0.62805(13) 0.18304(14) 0.26336(6)
C56 C 0.66903(14) 0.18767(16) 0.28264(6)
H25 H 0.7081 0.1828 0.2785
C57 C 0.65393(14) 0.19924(18) 0.30764(6)
H26 H 0.6824 0.2028 0.3204
C58 C 0.59689(14) 0.20554(16) 0.31390(6)
C59 C 0.57954(14) 0.21739(15) 0.33950(6)
N7 N 0.56733(12) 0.22588(13) 0.36023(5)
C60 C 0.55428(13) 0.19889(17) 0.29506(6)
H27 H 0.5151 0.2018 0.2995
C61 C 0.57036(13) 0.18803(15) 0.27014(6)
H28 H 0.5419 0.1839 0.2574
C62 C 0.61136(13) 0.13897(15) 0.21915(6)
C63 C 0.58183(15) 0.08675(15) 0.22663(6)
H29 H 0.5830 0.0743 0.2439
C64 C 0.55102(15) 0.05316(16) 0.20934(6)
H30 H 0.5309 0.0181 0.2148
C65 C 0.54949(14) 0.07079(15) 0.18376(6)
C66 C 0.51981(14) 0.03306(17) 0.16593(6)
N8 N 0.49766(12) -0.00064(13) 0.15248(5)
C67 C 0.57677(14) 0.12384(16) 0.17614(6)
H31 H 0.5740 0.1371 0.1590
C68 C 0.60787(14) 0.15718(16) 0.19351(6)
H32 H 0.6271 0.1928 0.1881
C69 C 0.74295(13) 0.12767(15) 0.17609(6)
C70 C 0.72050(15) 0.07923(14) 0.19032(6)
H33 H 0.7231 0.0801 0.2083
C71 C 0.69494(14) 0.03080(15) 0.17854(6)
H34 H 0.6796 -0.0016 0.1883
C72 C 0.69167(14) 0.02957(15) 0.15220(6)
C73 C 0.66221(15) -0.01937(17) 0.13963(6)
N9 N 0.63745(16) -0.05738(16) 0.12952(6)
C74 C 0.71616(17) 0.07634(18) 0.13756(6)
H35 H 0.7146 0.0747 0.1195
C75 C 0.74208(16) 0.12389(17) 0.14930(6)
H36 H 0.7597 0.1547 0.1394
C76 C 0.81209(14) 0.21786(14) 0.17731(6)
C77 C 0.86074(15) 0.19108(16) 0.16746(6)
H37 H 0.8640 0.1481 0.1673
C78 C 0.90485(15) 0.22637(15) 0.15787(6)
H38 H 0.9389 0.2080 0.1518
C79 C 0.89832(14) 0.28955(16) 0.15726(6)
C80 C 0.94403(14) 0.32746(16) 0.14860(6)
N10 N 0.97872(12) 0.36053(14) 0.14212(5)
C81 C 0.84829(15) 0.31668(16) 0.16632(6)
H39 H 0.8434 0.3594 0.1654
C82 C 0.80635(16) 0.28071(15) 0.17662(6)
H40 H 0.7730 0.2990 0.1834
C83 C 0.82023(14) 0.31441(16) 0.23878(6)
C84 C 0.86591(15) 0.27664(16) 0.23157(6)
H41 H 0.8611 0.2339 0.2313
C85 C 0.91789(14) 0.30182(17) 0.22483(7)
H42 H 0.9488 0.2765 0.2200
C86 C 0.92429(15) 0.36378(18) 0.22525(7)
C87 C 0.97717(18) 0.3918(2) 0.21844(10)
N11 N 1.01930(17) 0.41701(19) 0.21240(10)
C88 C 0.87948(17) 0.40235(19) 0.23234(8)
H43 H 0.8843 0.4451 0.2322
C89 C 0.82776(16) 0.37668(17) 0.23962(7)
H44 H 0.7975 0.4020 0.2452
C90 C 0.73118(14) 0.31538(16) 0.26645(6)
C91 C 0.75721(14) 0.33350(16) 0.28884(6)
H45 H 0.7974 0.3298 0.2906
C92 C 0.72530(15) 0.35691(17) 0.30874(7)
H46 H 0.7434 0.3691 0.3241
C93 C 0.66628(15) 0.36229(16) 0.30598(7)
C94 C 0.63103(16) 0.38414(16) 0.32638(7)
N12 N 0.60146(13) 0.40126(14) 0.34196(6)
C95 C 0.63896(16) 0.34484(18) 0.28324(8)
H47 H 0.5989 0.3490 0.2813
C96 C 0.67205(15) 0.32143(18) 0.26381(7)
H48 H 0.6543 0.3093 0.2484
Cu1C Cu 0.535838(16) 0.424843(19) 0.363560(7)
Cu1F Cu 1.035838(16) 0.424843(19) 0.136440(7)
Cu2B Cu -0.052412(16) -0.226078(18) -0.103418(7)
Cu2C Cu 0.552412(16) 0.226078(18) 0.396582(7)
Cu2D Cu 0.552412(16) 0.273922(18) -0.103418(7)
N1D N 0.50762(12) -0.21941(13) 0.08830(5)
N5B N 0.47990(13) -0.35650(14) 0.09577(6)
N7C N 0.43267(12) -0.27412(13) 0.13977(5)
N10F N 0.52128(12) -0.13947(14) 0.14212(5)
N12C N 0.39854(13) -0.09874(14) 0.15804(6)
loop_
_geom_bond_atom_site_label_1
_geom_bond_atom_site_label_2
_geom_bond_site_symmetry_1
_geom_bond_site_symmetry_2
Cu1 N2 1_555 1_555
C1 C2 1_555 1_555
Cu2 N3 1_555 1_555
C2 C3 1_555 1_555
C3 C1 1_555 1_555
C4 C1 1_555 1_555
C5 C2 1_555 1_555
C6 C3 1_555 1_555
C7 H1 1_555 1_555
C8 C4 1_555 1_555
C9 C8 1_555 1_555
H2 C9 1_555 1_555
C10 C9 1_555 1_555
H3 C10 1_555 1_555
C11 C7 1_555 1_555
C12 C11 1_555 1_555
N1 C12 1_555 1_555
C13 C7 1_555 1_555
H4 C13 1_555 1_555
C14 C4 1_555 1_555
C15 C14 1_555 1_555
H5 C15 1_555 1_555
C16 C15 1_555 1_555
H6 C16 1_555 1_555
C17 C16 1_555 1_555
C18 C17 1_555 1_555
N2 C18 1_555 1_555
C19 C17 1_555 1_555
H7 C19 1_555 1_555
C20 C14 1_555 1_555
H8 C20 1_555 1_555
C21 C5 1_555 1_555
C22 C21 1_555 1_555
H9 C22 1_555 1_555
C23 C22 1_555 1_555
H10 C23 1_555 1_555
C24 C23 1_555 1_555
C25 C24 1_555 1_555
N3 C25 1_555 1_555
C26 C24 1_555 1_555
H11 C26 1_555 1_555
C27 C21 1_555 1_555
H12 C27 1_555 1_555
C28 C5 1_555 1_555
C29 C28 1_555 1_555
H13 C29 1_555 1_555
C30 C29 1_555 1_555
H14 C30 1_555 1_555
C31 C30 1_555 1_555
C32 C31 1_555 1_555
N4 C32 1_555 1_555
C33 C31 1_555 1_555
H15 C33 1_555 1_555
C34 C28 1_555 1_555
H16 C34 1_555 1_555
C35 C6 1_555 1_555
C36 C35 1_555 1_555
H17 C36 1_555 1_555
C37 C36 1_555 1_555
H18 C37 1_555 1_555
C38 C37 1_555 1_555
C39 C38 1_555 1_555
N5 C39 1_555 1_555
C40 C38 1_555 1_555
H19 C40 1_555 1_555
C41 C35 1_555 1_555
H20 C41 1_555 1_555
C42 C6 1_555 1_555
C43 C42 1_555 1_555
H21 C43 1_555 1_555
C44 C43 1_555 1_555
H22 C44 1_555 1_555
C45 C44 1_555 1_555
C46 C45 1_555 1_555
N6 C46 1_555 1_555
C47 C45 1_555 1_555
H23 C47 1_555 1_555
C48 C42 1_555 1_555
H24 C48 1_555 1_555
C49 C50 1_555 1_555
C50 C51 1_555 1_555
C51 C49 1_555 1_555
C52 C49 1_555 1_555
C53 C50 1_555 1_555
C54 C51 1_555 1_555
C55 C52 1_555 1_555
C56 C55 1_555 1_555
H25 C56 1_555 1_555
C57 C56 1_555 1_555
H26 C57 1_555 1_555
C58 C57 1_555 1_555
C59 C58 1_555 1_555
N7 C59 1_555 1_555
C60 C58 1_555 1_555
H27 C60 1_555 1_555
C61 C55 1_555 1_555
H28 C61 1_555 1_555
C62 C52 1_555 1_555
C63 C62 1_555 1_555
H29 C63 1_555 1_555
C64 C63 1_555 1_555
H30 C64 1_555 1_555
C65 C64 1_555 1_555
C66 C65 1_555 1_555
N8 Cu1 1_555 1_555
C67 C65 1_555 1_555
H31 C67 1_555 1_555
C68 C62 1_555 1_555
H32 C68 1_555 1_555
C69 C53 1_555 1_555
C70 C69 1_555 1_555
H33 C70 1_555 1_555
C71 C70 1_555 1_555
H34 C71 1_555 1_555
C72 C71 1_555 1_555
C73 C72 1_555 1_555
N9 C73 1_555 1_555
C74 C72 1_555 1_555
H35 C74 1_555 1_555
C75 C69 1_555 1_555
H36 C75 1_555 1_555
C76 C53 1_555 1_555
C77 C76 1_555 1_555
H37 C77 1_555 1_555
C78 C77 1_555 1_555
H38 C78 1_555 1_555
C79 C78 1_555 1_555
C80 C79 1_555 1_555
N10 C80 1_555 1_555
C81 C79 1_555 1_555
H39 C81 1_555 1_555
C82 C76 1_555 1_555
H40 C82 1_555 1_555
C83 C54 1_555 1_555
C84 C83 1_555 1_555
H41 C84 1_555 1_555
C85 C84 1_555 1_555
H42 C85 1_555 1_555
C86 C85 1_555 1_555
C87 C86 1_555 1_555
N11 C87 1_555 1_555
C88 C86 1_555 1_555
H43 C88 1_555 1_555
C89 C83 1_555 1_555
H44 C89 1_555 1_555
C90 C54 1_555 1_555
C91 C90 1_555 1_555
H45 C91 1_555 1_555
C92 C91 1_555 1_555
H46 C92 1_555 1_555
C93 C92 1_555 1_555
C94 C93 1_555 1_555
N12 C94 1_555 1_555
C95 C93 1_555 1_555
H47 C95 1_555 1_555
C96 C90 1_555 1_555
H48 C96 1_555 1_555
B1 F1 1_555 1_555
F2 B1 1_555 1_555
F3 B1 1_555 1_555
F4 B1 1_555 1_555
B2 F5 1_555 1_555
F6 B2 1_555 1_555
F7 B2 1_555 1_555
F8 B2 1_555 1_555
B3 F9 1_555 1_555
F10 B3 1_555 1_555
F11 B3 1_555 1_555
F12 B3 1_555 1_555
Cu1C N12 1_555 1_555
Cu1F N10 1_555 1_555
Cu2B N5 1_555 1_555
Cu2C N7 1_555 1_555
Cu2D N1 1_555 1_555
N1D Cu2 1_555 1_555
N5B Cu2 1_555 1_555
N7C Cu2 1_555 1_555
N10F Cu1 1_555 1_555
N12C Cu1 1_555 1_555
C8 C13 1_555 1_555
C10 C11 1_555 1_555
C19 C20 1_555 1_555
C26 C27 1_555 1_555
C33 C34 1_555 1_555
C40 C41 1_555 1_555
C47 C48 1_555 1_555
C60 C61 1_555 1_555
C66 N8 1_555 1_555
C67 C68 1_555 1_555
C74 C75 1_555 1_555
C81 C82 1_555 1_555
C88 C89 1_555 1_555
C95 C96 1_555 1_555

#END
