
#######################################################################
#
#                 Cambridge Crystallographic Data Centre
#                                CCDC 
#
#######################################################################
#
# If this CIF has been generated from an entry in the Cambridge 
# Structural Database, then it will include bibliographic, chemical, 
# crystal, experimental, refinement or atomic coordinate data resulting 
# from the CCDC's data processing and validation procedures.
#
#######################################################################

data_ZEWMUL
_symmetry_cell_setting           monoclinic
_symmetry_space_group_name_H-M   'C 2/c'
_symmetry_Int_Tables_number      15
_space_group_name_Hall           '-C 2yn'
loop_
_symmetry_equiv_pos_site_id
_symmetry_equiv_pos_as_xyz
1 x,y,z
2 -x,y,1/2-z
3 1/2+x,1/2+y,z
4 1/2-x,1/2+y,1/2-z
5 -x,-y,-z
6 x,-y,1/2+z
7 1/2-x,1/2-y,-z
8 1/2+x,1/2-y,1/2+z
_cell_length_a                   6.6928(8)
_cell_length_b                   19.748(2)
_cell_length_c                   12.0134(14)
_cell_angle_alpha                90
_cell_angle_beta                 92.9750(10)
_cell_angle_gamma                90
_cell_volume                     1585.66
loop_
_atom_site_label
_atom_site_type_symbol
_atom_site_fract_x
_atom_site_fract_y
_atom_site_fract_z
Pd1 Pd 0.0000 0.0000 0.0000
Mn1 Mn 0.5000 0.12630(2) 0.2500
N1 N 0.2810(3) 0.11631(9) 0.09643(15)
C1 C 0.1809(3) 0.07507(11) 0.05656(16)
N2 N -0.3158(3) 0.05802(9) 0.15823(15)
C2 C -0.2063(3) 0.03518(10) 0.09858(16)
N3 N 0.3289(2) 0.21824(9) 0.30696(13)
C3 C 0.1607(3) 0.21822(12) 0.36161(17)
H1 H 0.1036 0.1768 0.3784
C4 C 0.0653(3) 0.27750(13) 0.39506(18)
H2 H -0.0509 0.2752 0.4341
C5 C 0.1455(4) 0.33852(13) 0.36937(19)
H3 H 0.0847 0.3784 0.3912
C6 C 0.3220(4) 0.34117(11) 0.30935(18)
C7 C 0.4095(3) 0.27911(10) 0.28060(16)
C8 C 0.4151(4) 0.40330(12) 0.2776(2)
H4 H 0.3569 0.4444 0.2957
N3A N 0.6711(2) 0.21824(9) 0.19304(13)
C3A C 0.8393(3) 0.21822(12) 0.13839(17)
H1A H 0.8964 0.1768 0.1216
C4A C 0.9347(3) 0.27750(13) 0.10494(18)
H2A H 1.0509 0.2752 0.0659
C5A C 0.8545(4) 0.33852(13) 0.13063(19)
H3A H 0.9153 0.3784 0.1088
C6A C 0.6780(4) 0.34117(11) 0.19065(18)
C7A C 0.5905(3) 0.27911(10) 0.21940(16)
C8A C 0.5849(4) 0.40330(12) 0.2224(2)
H4A H 0.6431 0.4444 0.2043
N2A N 0.3158(3) 0.05802(9) 0.34177(15)
C2A C 0.2063(3) 0.03518(10) 0.40142(16)
N1D N -0.2810(3) -0.11631(9) -0.09643(15)
C1D C -0.1809(3) -0.07507(11) -0.05656(16)
Pd1A Pd 0.0000 0.0000 0.5000
Mn1_2 Mn -0.5000 0.12630(2) 0.2500
Mn1D Mn -0.5000 -0.12630(2) -0.2500
N1A N 0.7190(3) 0.11631(9) 0.40357(15)
N2_2 N 0.6842(3) 0.05802(9) 0.15823(15)
C2D C 0.2063(3) -0.03518(10) -0.09858(16)
loop_
_geom_bond_atom_site_label_1
_geom_bond_atom_site_label_2
_geom_bond_site_symmetry_1
_geom_bond_site_symmetry_2
Pd1 C1 1_555 1_555
Mn1 N1 1_555 1_555
N1 C1 1_555 1_555
N2 C2 1_555 1_555
C2 Pd1 1_555 1_555
N3 Mn1 1_555 1_555
C3 N3 1_555 1_555
H1 C3 1_555 1_555
C4 C3 1_555 1_555
H2 C4 1_555 1_555
C5 C4 1_555 1_555
H3 C5 1_555 1_555
C6 C5 1_555 1_555
C7 N3 1_555 1_555
C8 C6 1_555 1_555
H4 C8 1_555 1_555
N3A Mn1 1_555 1_555
C3A N3A 1_555 1_555
H1A C3A 1_555 1_555
C4A C3A 1_555 1_555
H2A C4A 1_555 1_555
C5A C4A 1_555 1_555
H3A C5A 1_555 1_555
C6A C5A 1_555 1_555
C7A C7 1_555 1_555
C8A C8 1_555 1_555
H4A C8A 1_555 1_555
N2A Mn1 1_555 1_555
C2A N2A 1_555 1_555
N1D C1D 1_555 1_555
C1D Pd1 1_555 1_555
Pd1A C2A 1_555 1_555
Mn1_2 N2 1_555 1_555
Mn1D N1D 1_555 1_555
N1A Mn1 1_555 1_555
N2_2 Mn1 1_555 1_555
C2D Pd1 1_555 1_555
C6 C7 1_555 1_555
N3A C7A 1_555 1_555
C6A C7A 1_555 1_555
C6A C8A 1_555 1_555

#END
