
#######################################################################
#
#                 Cambridge Crystallographic Data Centre
#                                CCDC 
#
#######################################################################
#
# If this CIF has been generated from an entry in the Cambridge 
# Structural Database, then it will include bibliographic, chemical, 
# crystal, experimental, refinement or atomic coordinate data resulting 
# from the CCDC's data processing and validation procedures.
#
#######################################################################

data_ZEWMOF
_symmetry_cell_setting           monoclinic
_symmetry_space_group_name_H-M   'C 2/c'
_symmetry_Int_Tables_number      15
_space_group_name_Hall           '-C 2yn'
loop_
_symmetry_equiv_pos_site_id
_symmetry_equiv_pos_as_xyz
1 x,y,z
2 -x,y,1/2-z
3 1/2+x,1/2+y,z
4 1/2-x,1/2+y,1/2-z
5 -x,-y,-z
6 x,-y,1/2+z
7 1/2-x,1/2-y,-z
8 1/2+x,1/2-y,1/2+z
_cell_length_a                   6.6503(9)
_cell_length_b                   19.904(3)
_cell_length_c                   12.0716(17)
_cell_angle_alpha                90
_cell_angle_beta                 93.229(2)
_cell_angle_gamma                90
_cell_volume                     1595.35
loop_
_atom_site_label
_atom_site_type_symbol
_atom_site_fract_x
_atom_site_fract_y
_atom_site_fract_z
Pt1 Pt 0.0000 0.0000 0.0000
Mn1 Mn 0.5000 -0.12385(2) 0.2500
N1 N 0.2848(3) -0.11516(10) 0.09462(17)
C1 C 0.1828(3) -0.07363(12) 0.05591(19)
N2 N 0.3121(3) 0.05567(10) -0.16194(17)
C2 C 0.2026(3) 0.03347(12) -0.1013(2)
N3 N 0.6722(3) -0.21490(9) 0.19323(16)
C3 C 0.8398(4) -0.21500(13) 0.1384(2)
H1 H 0.8972 -0.1739 0.1216
C4 C 0.9349(4) -0.27384(15) 0.1044(2)
H2 H 1.0507 -0.2716 0.0648
C5 C 0.8541(5) -0.33454(14) 0.1306(2)
H3 H 0.9152 -0.3741 0.1091
C6 C 0.6776(4) -0.33703(12) 0.1903(2)
C7 C 0.5902(4) -0.27537(11) 0.21984(19)
C8 C 0.5847(5) -0.39834(12) 0.2225(2)
H4 H 0.6433 -0.4391 0.2047
N3A N 0.3278(3) -0.21490(9) 0.30677(16)
C3A C 0.1602(4) -0.21500(13) 0.3616(2)
H1A H 0.1028 -0.1739 0.3784
C4A C 0.0651(4) -0.27384(15) 0.3956(2)
H2A H -0.0507 -0.2716 0.4352
C5A C 0.1459(5) -0.33454(14) 0.3694(2)
H3A H 0.0848 -0.3741 0.3909
C6A C 0.3224(4) -0.33703(12) 0.3097(2)
C7A C 0.4098(4) -0.27537(11) 0.28016(19)
C8A C 0.4153(5) -0.39834(12) 0.2775(2)
H4A H 0.3567 -0.4391 0.2953
N1A N 0.7152(3) -0.11516(10) 0.40538(17)
C1A C 0.8172(3) -0.07363(12) 0.44409(19)
N2D N -0.3121(3) -0.05567(10) 0.16194(17)
C2D C -0.2026(3) -0.03347(12) 0.1013(2)
Pt1A Pt 1.0000 0.0000 0.5000
Mn1_2 Mn -0.5000 -0.12385(2) 0.2500
Mn1D Mn 0.5000 0.12385(2) -0.2500
C1D C -0.1828(3) 0.07363(12) -0.05591(19)
N2D_2 N 0.6879(3) -0.05567(10) 0.16194(17)
N2E N 0.3121(3) -0.05567(10) 0.33806(17)
loop_
_geom_bond_atom_site_label_1
_geom_bond_atom_site_label_2
_geom_bond_site_symmetry_1
_geom_bond_site_symmetry_2
Pt1 C1 1_555 1_555
Mn1 N1 1_555 1_555
N1 C1 1_555 1_555
N2 C2 1_555 1_555
C2 Pt1 1_555 1_555
N3 Mn1 1_555 1_555
C3 N3 1_555 1_555
H1 C3 1_555 1_555
C4 C3 1_555 1_555
H2 C4 1_555 1_555
C5 C4 1_555 1_555
H3 C5 1_555 1_555
C6 C5 1_555 1_555
C7 N3 1_555 1_555
C8 C6 1_555 1_555
H4 C8 1_555 1_555
N3A Mn1 1_555 1_555
C3A N3A 1_555 1_555
H1A C3A 1_555 1_555
C4A C3A 1_555 1_555
H2A C4A 1_555 1_555
C5A C4A 1_555 1_555
H3A C5A 1_555 1_555
C6A C5A 1_555 1_555
C7A C7 1_555 1_555
C8A C8 1_555 1_555
H4A C8A 1_555 1_555
N1A Mn1 1_555 1_555
C1A N1A 1_555 1_555
N2D C2D 1_555 1_555
C2D Pt1 1_555 1_555
Pt1A C1A 1_555 1_555
Mn1_2 N2D 1_555 1_555
Mn1D N2 1_555 1_555
C1D Pt1 1_555 1_555
N2D_2 Mn1 1_555 1_555
N2E Mn1 1_555 1_555
C6 C7 1_555 1_555
N3A C7A 1_555 1_555
C6A C7A 1_555 1_555
C6A C8A 1_555 1_555

#END
