
#######################################################################
#
#                 Cambridge Crystallographic Data Centre
#                                CCDC 
#
#######################################################################
#
# If this CIF has been generated from an entry in the Cambridge 
# Structural Database, then it will include bibliographic, chemical, 
# crystal, experimental, refinement or atomic coordinate data resulting 
# from the CCDC's data processing and validation procedures.
#
#######################################################################

data_ZEWPEY
_symmetry_cell_setting           monoclinic
_symmetry_space_group_name_H-M   'C 2/c'
_symmetry_Int_Tables_number      15
_space_group_name_Hall           '-C 2yn'
loop_
_symmetry_equiv_pos_site_id
_symmetry_equiv_pos_as_xyz
1 x,y,z
2 -x,y,1/2-z
3 1/2+x,1/2+y,z
4 1/2-x,1/2+y,1/2-z
5 -x,-y,-z
6 x,-y,1/2+z
7 1/2-x,1/2-y,-z
8 1/2+x,1/2-y,1/2+z
_cell_length_a                   6.6180(4)
_cell_length_b                   19.5275(12)
_cell_length_c                   11.7969(7)
_cell_angle_alpha                90
_cell_angle_beta                 91.4790(10)
_cell_angle_gamma                90
_cell_volume                     1524.04
loop_
_atom_site_label
_atom_site_type_symbol
_atom_site_fract_x
_atom_site_fract_y
_atom_site_fract_z
Pd1 Pd 0.5000 0.5000 1.0000
Zn1 Zn 0.0000 0.373194(12) 0.7500
N1 N 0.2138(2) 0.38327(7) 0.90541(12)
C1 C 0.3161(2) 0.42483(8) 0.94450(13)
N2 N 0.8218(2) 0.44087(7) 0.83682(11)
C2 C 0.7094(2) 0.46450(8) 0.89749(13)
N3 N 0.17320(19) 0.28672(6) 0.69228(10)
C3 C 0.3448(2) 0.28739(9) 0.63644(13)
H1 H 0.4023 0.3295 0.6193
C4 C 0.4433(3) 0.22768(9) 0.60215(14)
H2 H 0.5624 0.2304 0.5623
C5 C 0.3622(3) 0.16536(9) 0.62793(14)
H3 H 0.4253 0.1252 0.6053
C6 C 0.1823(3) 0.16243(8) 0.68908(13)
C7 C 0.0925(2) 0.22512(8) 0.71908(12)
C8 C 0.0870(3) 0.09981(9) 0.72180(14)
H4 H 0.1468 0.0583 0.7036
N3A N -0.17320(19) 0.28672(6) 0.80772(10)
C3A C -0.3448(2) 0.28739(9) 0.86356(13)
H1A H -0.4023 0.3295 0.8807
C4A C -0.4433(3) 0.22768(9) 0.89785(14)
H2A H -0.5624 0.2304 0.9377
C5A C -0.3622(3) 0.16536(9) 0.87207(14)
H3A H -0.4253 0.1252 0.8947
C6A C -0.1823(3) 0.16243(8) 0.81092(13)
C7A C -0.0925(2) 0.22512(8) 0.78092(12)
C8A C -0.0870(3) 0.09981(9) 0.77820(14)
H4A H -0.1468 0.0583 0.7964
N1A N -0.2138(2) 0.38327(7) 0.59459(12)
C1A C -0.3161(2) 0.42483(8) 0.55550(13)
N2D N 0.1782(2) 0.55913(7) 1.16318(11)
C2D C 0.2906(2) 0.53550(8) 1.10251(13)
Pd1A Pd -0.5000 0.5000 0.5000
Zn1_2 Zn 1.0000 0.373194(12) 0.7500
Zn1D Zn 0.0000 0.626806(12) 1.2500
C1D C 0.6839(2) 0.57517(8) 1.05550(13)
N2_2 N -0.1782(2) 0.44087(7) 0.83682(11)
N2A N 0.1782(2) 0.44087(7) 0.66318(11)
loop_
_geom_bond_atom_site_label_1
_geom_bond_atom_site_label_2
_geom_bond_site_symmetry_1
_geom_bond_site_symmetry_2
Pd1 C1 1_555 1_555
Zn1 N1 1_555 1_555
N1 C1 1_555 1_555
N2 C2 1_555 1_555
C2 Pd1 1_555 1_555
N3 Zn1 1_555 1_555
C3 N3 1_555 1_555
H1 C3 1_555 1_555
C4 C3 1_555 1_555
H2 C4 1_555 1_555
C5 C4 1_555 1_555
H3 C5 1_555 1_555
C6 C5 1_555 1_555
C7 N3 1_555 1_555
C8 C6 1_555 1_555
H4 C8 1_555 1_555
N3A Zn1 1_555 1_555
C3A N3A 1_555 1_555
H1A C3A 1_555 1_555
C4A C3A 1_555 1_555
H2A C4A 1_555 1_555
C5A C4A 1_555 1_555
H3A C5A 1_555 1_555
C6A C5A 1_555 1_555
C7A C7 1_555 1_555
C8A C8 1_555 1_555
H4A C8A 1_555 1_555
N1A Zn1 1_555 1_555
C1A N1A 1_555 1_555
N2D C2D 1_555 1_555
C2D Pd1 1_555 1_555
Pd1A C1A 1_555 1_555
Zn1_2 N2 1_555 1_555
Zn1D N2D 1_555 1_555
C1D Pd1 1_555 1_555
N2_2 Zn1 1_555 1_555
N2A Zn1 1_555 1_555
C6 C7 1_555 1_555
N3A C7A 1_555 1_555
C6A C7A 1_555 1_555
C6A C8A 1_555 1_555

#END
