
#######################################################################
#
#                 Cambridge Crystallographic Data Centre
#                                CCDC 
#
#######################################################################
#
# If this CIF has been generated from an entry in the Cambridge 
# Structural Database, then it will include bibliographic, chemical, 
# crystal, experimental, refinement or atomic coordinate data resulting 
# from the CCDC's data processing and validation procedures.
#
#######################################################################

data_ZEWPAU
_symmetry_cell_setting           monoclinic
_symmetry_space_group_name_H-M   'C 2/c'
_symmetry_Int_Tables_number      15
_space_group_name_Hall           '-C 2yn'
loop_
_symmetry_equiv_pos_site_id
_symmetry_equiv_pos_as_xyz
1 x,y,z
2 -x,y,1/2-z
3 1/2+x,1/2+y,z
4 1/2-x,1/2+y,1/2-z
5 -x,-y,-z
6 x,-y,1/2+z
7 1/2-x,1/2-y,-z
8 1/2+x,1/2-y,1/2+z
_cell_length_a                   6.6152(5)
_cell_length_b                   19.6642(14)
_cell_length_c                   11.9098(8)
_cell_angle_alpha                90
_cell_angle_beta                 91.2020(10)
_cell_angle_gamma                90
_cell_volume                     1548.92
loop_
_atom_site_label
_atom_site_type_symbol
_atom_site_fract_x
_atom_site_fract_y
_atom_site_fract_z
Pt1 Pt 0.0000 0.5000 0.0000
Zn1 Zn 0.5000 0.376463(18) -0.2500
N1 N 0.3201(3) 0.44381(11) -0.16507(19)
C1 C 0.2071(4) 0.46628(12) -0.1041(2)
C2 C -0.1853(4) 0.42676(12) -0.0557(2)
N2 N 0.3269(3) 0.29029(10) -0.19233(16)
C3 C 0.1557(4) 0.29091(14) -0.1368(2)
H1 H 0.0977 0.3327 -0.1198
C4 C 0.0581(4) 0.23167(16) -0.1024(2)
H2 H -0.0608 0.2343 -0.0622
C5 C 0.1386(5) 0.17018(16) -0.1282(2)
H3 H 0.0754 0.1303 -0.1056
C6 C 0.3175(4) 0.16725(13) -0.1891(2)
C7 C 0.4075(4) 0.22924(11) -0.21919(19)
C8 C 0.4149(3) 0.10527(9) -0.22211(16)
H4 H 0.3562 0.0639 -0.2036
N3 N -0.2884(3) 0.38554(9) -0.09410(16)
N2A N 0.6731(3) 0.29029(10) -0.30767(16)
C3A C 0.8443(4) 0.29091(14) -0.3632(2)
H1A H 0.9023 0.3327 -0.3802
C4A C 0.9419(4) 0.23167(16) -0.3976(2)
H2A H 1.0608 0.2343 -0.4378
C5A C 0.8614(5) 0.17018(16) -0.3718(2)
H3A H 0.9246 0.1303 -0.3944
C6A C 0.6825(4) 0.16725(13) -0.3109(2)
C7A C 0.5925(4) 0.22924(11) -0.28081(19)
C8A C 0.5851(3) 0.10527(9) -0.27789(16)
H4A H 0.6438 0.0639 -0.2964
C2A C 0.1853(4) 0.42676(12) -0.4443(2)
N3A N 0.2884(3) 0.38554(9) -0.40590(16)
N1D N -0.3201(3) 0.55619(11) 0.16507(19)
C1D C -0.2071(4) 0.53372(12) 0.1041(2)
Pt1A Pt 0.0000 0.5000 -0.5000
Zn1_2 Zn -0.5000 0.376463(18) -0.2500
Zn1D Zn -0.5000 0.623537(18) 0.2500
N1A N 0.6799(3) 0.44381(11) -0.33493(19)
C2D C 0.1853(4) 0.57324(12) 0.0557(2)
N3_2 N 0.7116(3) 0.38554(9) -0.09410(16)
loop_
_geom_bond_atom_site_label_1
_geom_bond_atom_site_label_2
_geom_bond_site_symmetry_1
_geom_bond_site_symmetry_2
Pt1 C1 1_555 1_555
Zn1 N1 1_555 1_555
N1 C1 1_555 1_555
C2 Pt1 1_555 1_555
N2 Zn1 1_555 1_555
C3 N2 1_555 1_555
H1 C3 1_555 1_555
C4 C3 1_555 1_555
H2 C4 1_555 1_555
C5 C4 1_555 1_555
H3 C5 1_555 1_555
C6 C5 1_555 1_555
C7 N2 1_555 1_555
C8 C6 1_555 1_555
H4 C8 1_555 1_555
N3 C2 1_555 1_555
N2A Zn1 1_555 1_555
C3A N2A 1_555 1_555
H1A C3A 1_555 1_555
C4A C3A 1_555 1_555
H2A C4A 1_555 1_555
C5A C4A 1_555 1_555
H3A C5A 1_555 1_555
C6A C5A 1_555 1_555
C7A C7 1_555 1_555
C8A C8 1_555 1_555
H4A C8A 1_555 1_555
C2A N3A 1_555 1_555
N3A Zn1 1_555 1_555
N1D C1D 1_555 1_555
C1D Pt1 1_555 1_555
Pt1A C2A 1_555 1_555
Zn1_2 N3 1_555 1_555
Zn1D N1D 1_555 1_555
N1A Zn1 1_555 1_555
C2D Pt1 1_555 1_555
N3_2 Zn1 1_555 1_555
C6 C7 1_555 1_555
N2A C7A 1_555 1_555
C6A C7A 1_555 1_555
C6A C8A 1_555 1_555

#END
