
#######################################################################
#
#                 Cambridge Crystallographic Data Centre
#                                CCDC 
#
#######################################################################
#
# If this CIF has been generated from an entry in the Cambridge 
# Structural Database, then it will include bibliographic, chemical, 
# crystal, experimental, refinement or atomic coordinate data resulting 
# from the CCDC's data processing and validation procedures.
#
#######################################################################

data_ZEWPIC
_symmetry_cell_setting           monoclinic
_symmetry_space_group_name_H-M   'C 2/c'
_symmetry_Int_Tables_number      15
_space_group_name_Hall           '-C 2yn'
loop_
_symmetry_equiv_pos_site_id
_symmetry_equiv_pos_as_xyz
1 x,y,z
2 -x,y,1/2-z
3 1/2+x,1/2+y,z
4 1/2-x,1/2+y,1/2-z
5 -x,-y,-z
6 x,-y,1/2+z
7 1/2-x,1/2-y,-z
8 1/2+x,1/2-y,1/2+z
_cell_length_a                   6.5685(19)
_cell_length_b                   19.240(6)
_cell_length_c                   11.502(3)
_cell_angle_alpha                90
_cell_angle_beta                 90.696(3)
_cell_angle_gamma                90
_cell_volume                     1453.49
loop_
_atom_site_label
_atom_site_type_symbol
_atom_site_fract_x
_atom_site_fract_y
_atom_site_fract_z
Zn1 Zn 0.0000 0.374695(13) 0.2500
Ni1 Ni 0.5000 0.5000 0.5000
N1 N 0.2194(2) 0.38773(8) 0.40555(14)
C1 C 0.3248(3) 0.42959(9) 0.44589(16)
N2 N 0.1800(2) 0.55809(7) 0.65717(14)
C2 C 0.2976(3) 0.53477(9) 0.59570(16)
N3 N 0.1758(2) 0.28625(7) 0.19152(13)
C3 C 0.3507(3) 0.28693(9) 0.13488(16)
H1 H 0.4096 0.3296 0.1179
C4 C 0.4510(3) 0.22624(10) 0.09946(17)
H2 H 0.5724 0.2290 0.0590
C5 C 0.3681(3) 0.16289(10) 0.12515(17)
H3 H 0.4320 0.1222 0.1017
C6 C 0.1850(3) 0.15993(9) 0.18751(16)
C7 C 0.0934(3) 0.22358(9) 0.21849(15)
C8 C 0.0886(3) 0.09632(9) 0.22061(17)
H4 H 0.1489 0.0542 0.2013
N3A N -0.1758(2) 0.28625(7) 0.30848(13)
C3A C -0.3507(3) 0.28693(9) 0.36512(16)
H1A H -0.4096 0.3296 0.3821
C4A C -0.4510(3) 0.22624(10) 0.40054(17)
H2A H -0.5724 0.2290 0.4410
C5A C -0.3681(3) 0.16289(10) 0.37485(17)
H3A H -0.4320 0.1222 0.3983
C6A C -0.1850(3) 0.15993(9) 0.31249(16)
C7A C -0.0934(3) 0.22358(9) 0.28151(15)
C8A C -0.0886(3) 0.09632(9) 0.27939(17)
H4A H -0.1489 0.0542 0.2987
N1A N -0.2194(2) 0.38773(8) 0.09445(14)
C1A C -0.3248(3) 0.42959(9) 0.05411(16)
N2E N 0.1800(2) 0.44191(7) 0.15717(14)
C2E C 0.2976(3) 0.46523(9) 0.09570(16)
Zn1D Zn 0.0000 0.625305(13) 0.7500
Ni1A Ni -0.5000 0.5000 0.0000
Ni1A_2 Ni 0.5000 0.5000 0.0000
C1D C 0.6752(3) 0.57041(9) 0.55411(16)
N2D N -0.1800(2) 0.44191(7) 0.34283(14)
C2D C 0.7024(3) 0.46523(9) 0.40430(16)
loop_
_geom_bond_atom_site_label_1
_geom_bond_atom_site_label_2
_geom_bond_site_symmetry_1
_geom_bond_site_symmetry_2
Zn1 N1 1_555 1_555
Ni1 C1 1_555 1_555
N1 C1 1_555 1_555
N2 C2 1_555 1_555
C2 Ni1 1_555 1_555
N3 Zn1 1_555 1_555
C3 N3 1_555 1_555
H1 C3 1_555 1_555
C4 C3 1_555 1_555
H2 C4 1_555 1_555
C5 C4 1_555 1_555
H3 C5 1_555 1_555
C6 C5 1_555 1_555
C7 N3 1_555 1_555
C8 C6 1_555 1_555
H4 C8 1_555 1_555
N3A Zn1 1_555 1_555
C3A N3A 1_555 1_555
H1A C3A 1_555 1_555
C4A C3A 1_555 1_555
H2A C4A 1_555 1_555
C5A C4A 1_555 1_555
H3A C5A 1_555 1_555
C6A C5A 1_555 1_555
C7A C7 1_555 1_555
C8A C8 1_555 1_555
H4A C8A 1_555 1_555
N1A Zn1 1_555 1_555
C1A N1A 1_555 1_555
N2E Zn1 1_555 1_555
C2E N2E 1_555 1_555
Zn1D N2 1_555 1_555
Ni1A C1A 1_555 1_555
Ni1A_2 C2E 1_555 1_555
C1D Ni1 1_555 1_555
N2D Zn1 1_555 1_555
C2D Ni1 1_555 1_555
C6 C7 1_555 1_555
N3A C7A 1_555 1_555
C6A C7A 1_555 1_555
C6A C8A 1_555 1_555

#END
