
#######################################################################
#
#                 Cambridge Crystallographic Data Centre
#                                CCDC 
#
#######################################################################
#
# If this CIF has been generated from an entry in the Cambridge 
# Structural Database, then it will include bibliographic, chemical, 
# crystal, experimental, refinement or atomic coordinate data resulting 
# from the CCDC's data processing and validation procedures.
#
#######################################################################

data_ZEXCIQ
_symmetry_cell_setting           triclinic
_symmetry_space_group_name_H-M   'P -1'
_symmetry_Int_Tables_number      2
_space_group_name_Hall           '-P 1'
loop_
_symmetry_equiv_pos_site_id
_symmetry_equiv_pos_as_xyz
1 x,y,z
2 -x,-y,-z
_cell_length_a                   9.022(3)
_cell_length_b                   10.445(2)
_cell_length_c                   12.295(3)
_cell_angle_alpha                71.225(19)
_cell_angle_beta                 75.08(2)
_cell_angle_gamma                70.25(2)
_cell_volume                     1017.96
loop_
_atom_site_label
_atom_site_type_symbol
_atom_site_fract_x
_atom_site_fract_y
_atom_site_fract_z
Cu1 Cu 0.30222(7) 0.56670(6) 0.08071(5)
Cu2 Cu -0.02905(7) 0.90149(6) 0.41367(5)
Cu3 Cu 0.36442(7) 0.76565(6) 0.25352(5)
N1 N 0.6463(4) 0.7554(4) 0.0656(3)
N2 N -0.4831(4) 0.6814(3) 0.3821(3)
N3 N 0.6212(4) 0.6260(3) -0.0332(3)
N4 N 0.8092(5) 1.0057(7) 0.2904(4)
N5 N 0.0272(4) 0.5725(4) 0.2717(3)
N6 N 1.1386(5) 0.6664(7) -0.0372(4)
N7 N 0.3094(5) 1.0899(4) 0.3963(4)
N8 N 0.0475(5) 0.7146(4) 0.3627(3)
N9 N 0.5046(4) 0.7305(3) 0.0958(3)
N10 N 0.2958(4) 0.9446(4) 0.3032(3)
N11 N 0.1675(4) 1.0672(4) 0.4331(3)
N12 N 0.1796(6) 0.6028(4) 0.2378(4)
N13 N 0.1830(4) 0.6816(4) 0.2957(4)
N14 N 0.4892(5) 0.6477(3) 0.0413(3)
N15 N 0.1528(4) 0.9872(5) 0.3742(3)
C1 C 1.1967(5) 0.6624(6) -0.1540(4)
H1 H 1.3055 0.6486 -0.1817
C2 C -0.5309(6) 0.6773(5) 0.4936(5)
H2 H -0.6387 0.6934 0.5258
C3 C 0.8542(6) 0.9964(5) 0.1818(4)
H3 H 0.9636 0.9794 0.1553
C4 C 0.5481(5) 1.0293(5) 0.2509(4)
C5 C 0.6049(9) 1.0248(6) 0.1389(5)
H4 H 0.5362 1.0331 0.0906
C6 C 0.6498(7) 1.0035(5) 0.3353(5)
H5 H 0.6110 0.9864 0.4148
C7 C 0.7112(4) 0.6815(3) -0.0104(2)
C8 C -0.0439(5) 0.6408(4) 0.3528(4)
C9 C 0.8758(6) 0.6916(5) -0.0770(5)
C10 C 0.3778(6) 1.0186(6) 0.3134(5)
C11 C -0.2242(5) 0.6542(5) 0.4058(4)
C12 C 0.7626(7) 1.0083(5) 0.0975(4)
H6 H 0.8077 1.0049 0.0210
C13 C -0.3164(6) 0.6712(5) 0.3411(5)
H7 H -0.2767 0.6777 0.2624
C14 C 1.1013(6) 0.6775(5) -0.2259(4)
H8 H 1.1462 0.6808 -0.3035
C15 C -0.4198(6) 0.6491(6) 0.5599(6)
H9 H -0.4542 0.6339 0.6399
C16 C 0.9389(5) 0.6889(5) -0.1934(4)
H10 H 0.8765 0.6945 -0.2452
C17 C 0.9884(4) 0.6757(4) -0.0070(3)
H11 H 0.9475 0.6717 0.0713
C18 C -0.2661(5) 0.6411(5) 0.5217(4)
H12 H -0.1948 0.6279 0.5697
Cu1_2 Cu 1.30222(7) 0.56670(6) 0.08071(5)
Cu1A Cu 0.69778(7) 0.43330(6) -0.08071(5)
Cu2_2 Cu 0.97095(7) 0.90149(6) 0.41367(5)
Cu2A Cu 0.02905(7) 1.09851(6) 0.58633(5)
Cu3_2 Cu -0.63558(7) 0.76565(6) 0.25352(5)
N2_2 N 0.5169(4) 0.6814(3) 0.3821(3)
N3A N 0.3788(4) 0.3740(3) 0.0332(3)
N4_2 N -0.1908(5) 1.0057(7) 0.2904(4)
N6_2 N 0.1386(5) 0.6664(7) -0.0372(4)
N11A N -0.1675(4) 0.9328(4) 0.5669(3)
loop_
_geom_bond_atom_site_label_1
_geom_bond_atom_site_label_2
_geom_bond_site_symmetry_1
_geom_bond_site_symmetry_2
Cu1 N12 1_555 1_555
Cu2 N8 1_555 1_555
Cu3 N9 1_555 1_555
N1 N9 1_555 1_555
N2 C2 1_555 1_555
N3 N14 1_555 1_555
N4 C3 1_555 1_555
N5 N12 1_555 1_555
N6 C1 1_555 1_555
N7 N11 1_555 1_555
N8 N13 1_555 1_555
N9 N14 1_555 1_555
N10 Cu3 1_555 1_555
N11 N15 1_555 1_555
N12 N13 1_555 1_555
N13 Cu3 1_555 1_555
N14 Cu1 1_555 1_555
N15 Cu2 1_555 1_555
C1 H1 1_555 1_555
C2 H2 1_555 1_555
C3 H3 1_555 1_555
C4 C5 1_555 1_555
C5 H4 1_555 1_555
C6 N4 1_555 1_555
H5 C6 1_555 1_555
C7 N1 1_555 1_555
C8 N5 1_555 1_555
C9 C7 1_555 1_555
C10 N7 1_555 1_555
C11 C8 1_555 1_555
C12 C3 1_555 1_555
H6 C12 1_555 1_555
C13 N2 1_555 1_555
H7 C13 1_555 1_555
C14 C1 1_555 1_555
H8 C14 1_555 1_555
C15 C2 1_555 1_555
H9 C15 1_555 1_555
C16 C9 1_555 1_555
H10 C16 1_555 1_555
C17 N6 1_555 1_555
H11 C17 1_555 1_555
C18 C11 1_555 1_555
H12 C18 1_555 1_555
Cu1_2 N6 1_555 1_555
Cu1A N3 1_555 1_555
Cu2_2 N4 1_555 1_555
Cu2A N11 1_555 1_555
Cu3_2 N2 1_555 1_555
N2_2 Cu3 1_555 1_555
N3A Cu1 1_555 1_555
N4_2 Cu2 1_555 1_555
N6_2 Cu1 1_555 1_555
N11A Cu2 1_555 1_555
N3 C7 1_555 1_555
N8 C8 1_555 1_555
N10 N15 1_555 1_555
N10 C10 1_555 1_555
C4 C6 1_555 1_555
C4 C10 1_555 1_555
C5 C12 1_555 1_555
C9 C17 1_555 1_555
C11 C13 1_555 1_555
C14 C16 1_555 1_555
C15 C18 1_555 1_555

#END
