
#######################################################################
#
#                 Cambridge Crystallographic Data Centre
#                                CCDC 
#
#######################################################################
#
# If this CIF has been generated from an entry in the Cambridge 
# Structural Database, then it will include bibliographic, chemical, 
# crystal, experimental, refinement or atomic coordinate data resulting 
# from the CCDC's data processing and validation procedures.
#
#######################################################################

data_ZEXCIQ01
_symmetry_cell_setting           triclinic
_symmetry_space_group_name_H-M   'P -1'
_symmetry_Int_Tables_number      2
_space_group_name_Hall           '-P 1'
loop_
_symmetry_equiv_pos_site_id
_symmetry_equiv_pos_as_xyz
1 x,y,z
2 -x,-y,-z
_cell_length_a                   5.8132(4)
_cell_length_b                   7.9619(12)
_cell_length_c                   8.2074(9)
_cell_angle_alpha                67.801(12)
_cell_angle_beta                 74.775(7)
_cell_angle_gamma                83.256(8)
_cell_volume                     339.3
loop_
_atom_site_label
_atom_site_type_symbol
_atom_site_fract_x
_atom_site_fract_y
_atom_site_fract_z
Cu1 Cu 0.22718(14) 0.86952(12) 0.11684(12)
N1 N -0.0749(11) 0.1991(8) 0.6001(8)
N2 N -0.3877(10) 0.6002(8) 0.2052(8)
N3 N -0.4342(9) 0.7704(8) 0.0999(8)
N4 N -0.2341(9) 0.8637(7) 0.0294(7)
N5 N -0.0541(10) 0.7550(8) 0.0883(7)
C1 C -0.1631(12) 0.3407(9) 0.4819(9)
H1 H -0.3175 0.3808 0.5199
C2 C -0.0391(11) 0.4318(9) 0.3060(9)
C3 C 0.1860(13) 0.3737(10) 0.2476(10)
H2 H 0.2741 0.4325 0.1303
C4 C 0.2811(14) 0.2247(11) 0.3670(11)
H3 H 0.4335 0.1806 0.3306
C5 C 0.1461(14) 0.1433(10) 0.5401(11)
H4 H 0.2120 0.0444 0.6196
C6 C -0.1547(11) 0.5947(9) 0.1952(9)
Cu1_2 Cu -0.77282(14) 0.86952(12) 0.11684(12)
Cu1A Cu -0.22718(14) 0.13048(12) 0.88316(12)
Cu1A_2 Cu -0.22718(14) 1.13048(12) -0.11684(12)
N1A N 0.0749(11) 0.8009(8) 0.3999(8)
N3_2 N 0.5658(9) 0.7704(8) 0.0999(8)
N4A N 0.2341(9) 1.1363(7) -0.0294(7)
loop_
_geom_bond_atom_site_label_1
_geom_bond_atom_site_label_2
_geom_bond_site_symmetry_1
_geom_bond_site_symmetry_2
Cu1 N5 1_555 1_555
N1 C1 1_555 1_555
N2 N3 1_555 1_555
N3 N4 1_555 1_555
N4 N5 1_555 1_555
N5 C6 1_555 1_555
C1 H1 1_555 1_555
C2 C1 1_555 1_555
C3 C2 1_555 1_555
H2 C3 1_555 1_555
C4 C3 1_555 1_555
H3 C4 1_555 1_555
C5 N1 1_555 1_555
H4 C5 1_555 1_555
C6 N2 1_555 1_555
Cu1_2 N3 1_555 1_555
Cu1A N1 1_555 1_555
Cu1A_2 N4 1_555 1_555
N1A Cu1 1_555 1_555
N3_2 Cu1 1_555 1_555
N4A Cu1 1_555 1_555
C2 C6 1_555 1_555
C4 C5 1_555 1_555

#END
