
#######################################################################
#
#                 Cambridge Crystallographic Data Centre
#                                CCDC 
#
#######################################################################
#
# If this CIF has been generated from an entry in the Cambridge 
# Structural Database, then it will include bibliographic, chemical, 
# crystal, experimental, refinement or atomic coordinate data resulting 
# from the CCDC's data processing and validation procedures.
#
#######################################################################

data_ZEXJER
_symmetry_cell_setting           orthorhombic
_symmetry_space_group_name_H-M   'P n m a'
_symmetry_Int_Tables_number      62
_space_group_name_Hall           '-P 2ac 2n'
loop_
_symmetry_equiv_pos_site_id
_symmetry_equiv_pos_as_xyz
1 x,y,z
2 1/2-x,-y,1/2+z
3 1/2+x,1/2-y,1/2-z
4 -x,1/2+y,-z
5 -x,-y,-z
6 1/2+x,y,1/2-z
7 1/2-x,1/2+y,1/2+z
8 x,1/2-y,z
_cell_length_a                   12.416(1)
_cell_length_b                   6.391(1)
_cell_length_c                   15.552(2)
_cell_angle_alpha                90
_cell_angle_beta                 90
_cell_angle_gamma                90
_cell_volume                     1234.06
loop_
_atom_site_label
_atom_site_type_symbol
_atom_site_fract_x
_atom_site_fract_y
_atom_site_fract_z
Hg1 Hg 0.74589(6) 0.2500 0.21052(5)
I1 I 0.8707(1) 0.2500 0.0743(1)
I2 I 0.7276(1) 0.2500 0.37955(8)
N1 N 0.6251(7) 0.559(1) 0.1789(6)
N2 N 0.461(1) 0.7500 0.212(1)
N3 N 0.534(1) 0.7500 0.0651(9)
C1 C 0.5240(9) 0.562(2) 0.2331(8)
C2 C 0.434(1) 0.7500 0.121(1)
C3 C 0.5977(9) 0.564(2) 0.0858(7)
C4 C 0.691(1) 0.7500 0.202(1)
N1G N 0.6251(7) -0.059(1) 0.1789(6)
C1G C 0.5240(9) 0.938(2) 0.2331(8)
C3G C 0.5977(9) 0.936(2) 0.0858(7)
N1G_2 N 0.6251(7) 0.941(1) 0.1789(6)
Hg1_2 Hg 0.74589(6) 1.2500 0.21052(5)
loop_
_geom_bond_atom_site_label_1
_geom_bond_atom_site_label_2
_geom_bond_site_symmetry_1
_geom_bond_site_symmetry_2
Hg1 I1 1_555 1_555
I2 Hg1 1_555 1_555
N1 Hg1 1_555 1_555
N2 C1 1_555 1_555
N3 C2 1_555 1_555
C1 N1 1_555 1_555
C2 N2 1_555 1_555
C3 N1 1_555 1_555
C4 N1 1_555 1_555
N1G Hg1 1_555 1_555
C1G N2 1_555 1_555
C3G N3 1_555 1_555
N1G_2 C4 1_555 1_555
Hg1_2 N1G_2 1_555 1_555
N3 C3 1_555 1_555
C1G N1G_2 1_555 1_555
C3G N1G_2 1_555 1_555

#END
