
#######################################################################
#
#                 Cambridge Crystallographic Data Centre
#                                CCDC 
#
#######################################################################
#
# If this CIF has been generated from an entry in the Cambridge 
# Structural Database, then it will include bibliographic, chemical, 
# crystal, experimental, refinement or atomic coordinate data resulting 
# from the CCDC's data processing and validation procedures.
#
#######################################################################

data_ZEXKOE
_symmetry_cell_setting           monoclinic
_symmetry_space_group_name_H-M   'P 21/c'
_symmetry_Int_Tables_number      14
_space_group_name_Hall           '-P 2ybc'
loop_
_symmetry_equiv_pos_site_id
_symmetry_equiv_pos_as_xyz
1 x,y,z
2 -x,1/2+y,1/2-z
3 -x,-y,-z
4 x,1/2-y,1/2+z
_cell_length_a                   13.321(2)
_cell_length_b                   13.809(2)
_cell_length_c                   19.818(3)
_cell_angle_alpha                90
_cell_angle_beta                 101.154(3)
_cell_angle_gamma                90
_cell_volume                     3576.65
loop_
_atom_site_label
_atom_site_type_symbol
_atom_site_fract_x
_atom_site_fract_y
_atom_site_fract_z
Mn1 Mn 0.66542(3) -0.02214(2) 0.044929(19)
Mn2 Mn 0.86341(3) -0.04840(2) -0.03918(2)
O1 O 0.47321(14) 0.07005(12) -0.06699(10)
O2 O 0.62057(13) 0.11440(11) -0.00273(9)
O3 O 0.66031(17) 0.89062(14) -0.04594(11)
O4 O 0.76868(14) 0.86691(12) 0.09686(9)
O5 O 0.82533(13) 0.05561(11) 0.03637(9)
O6 O 0.99131(15) 0.05493(13) 0.06172(12)
O7 O 0.87833(13) 0.83256(11) 0.02805(10)
O8 O 0.76933(17) 0.86152(14) -0.11417(11)
O9 O 0.4913(2) 0.49213(14) -0.18410(13)
O10 O 0.9071(2) 0.44876(13) 0.20662(10)
N1 N 0.68762(16) 0.04382(14) 0.15071(11)
N2 N 0.81950(17) 0.42498(15) 0.38819(11)
C1 C 0.63738(19) 0.74811(16) -0.11389(12)
C2 C 0.6561(2) 0.7022(2) -0.17154(15)
H1 H 0.7021 0.7295 -0.1959
C3 C 0.6080(3) 0.6162(2) -0.19420(16)
H2 H 0.6205 0.5865 -0.2339
C4 C 0.5430(3) 0.57582(19) -0.15822(16)
C5 C 0.5220(3) 0.6189(2) -0.10107(18)
H3 H 0.4762 0.5905 -0.0770
C6 C 0.5697(2) 0.7064(2) -0.07859(15)
H4 H 0.5555 0.7364 -0.0395
C7 C 0.6923(2) 0.84005(18) -0.08984(14)
C8 C 0.5078(2) 0.40730(19) -0.14596(15)
C9 C 0.5933(2) 0.3892(2) -0.09736(17)
H5 H 0.6435 0.4364 -0.0859
C10 C 0.6045(2) 0.29937(19) -0.06531(15)
H6 H 0.6630 0.2866 -0.0325
C11 C 0.53089(18) 0.22893(16) -0.08104(12)
C12 C 0.4457(2) 0.24966(19) -0.13018(15)
H7 H 0.3949 0.2030 -0.1416
C13 C 0.4341(2) 0.3384(2) -0.16286(17)
H8 H 0.3763 0.3511 -0.1963
C14 C 0.54262(18) 0.13084(16) -0.04702(12)
C15 C 0.85428(18) 0.71622(16) 0.11047(13)
C16 C 0.8939(2) 0.64164(18) 0.07734(15)
H9 H 0.9096 0.6522 0.0342
C17 C 0.9105(3) 0.55088(19) 0.10771(16)
H10 H 0.9359 0.5006 0.0847
C18 C 0.8892(2) 0.53595(17) 0.17177(14)
C19 C 0.8528(2) 0.60959(19) 0.20650(14)
H11 H 0.8404 0.5996 0.2506
C20 C 0.8346(2) 0.69930(18) 0.17510(14)
H12 H 0.8085 0.7491 0.1982
C21 C 0.83166(19) 0.81314(16) 0.07585(13)
C22 C 0.9071(3) 0.36396(18) 0.16821(14)
C23 C 0.8177(2) 0.32959(18) 0.12961(15)
H13 H 0.7575 0.3650 0.1260
C24 C 0.8177(2) 0.24122(17) 0.09573(14)
H14 H 0.7572 0.2171 0.0698
C25 C 0.90735(19) 0.18943(16) 0.10055(13)
C26 C 0.9966(2) 0.2265(2) 0.13898(16)
H15 H 1.0576 0.1926 0.1419
C27 C 0.9959(3) 0.3136(2) 0.17304(17)
H16 H 1.0561 0.3379 0.1993
C28 C 0.9078(2) 0.09457(16) 0.06425(13)
C29 C 0.6175(2) 0.10706(19) 0.16253(15)
H17 H 0.5526 0.1043 0.1350
C30 C 0.6362(2) 0.1761(2) 0.21332(15)
H18 H 0.5843 0.2181 0.2199
C31 C 0.73235(19) 0.18315(18) 0.25467(12)
C32 C 0.8031(2) 0.11274(18) 0.24528(13)
H19 H 0.8672 0.1111 0.2740
C33 C 0.7781(2) 0.04557(18) 0.19349(13)
H20 H 0.8266 -0.0008 0.1881
C34 C 0.76075(19) 0.26481(18) 0.30293(13)
C35 C 0.6989(2) 0.3440(2) 0.30278(17)
H21 H 0.6351 0.3454 0.2737
C36 C 0.8519(2) 0.2684(2) 0.34800(19)
H22 H 0.8968 0.2163 0.3511
C37 C 0.8781(2) 0.3483(2) 0.38889(19)
H23 H 0.9411 0.3481 0.4189
C38 C 0.7302(2) 0.4212(2) 0.34522(17)
H24 H 0.6862 0.4738 0.3437
Mn1_2 Mn 0.66542(3) 0.97786(2) 0.044929(19)
Mn1B Mn 0.33458(3) 0.02214(2) -0.044929(19)
Mn2_2 Mn 0.86341(3) 0.95160(2) -0.03918(2)
Mn2B Mn 1.13659(3) 0.04840(2) 0.03918(2)
Mn2C Mn 0.86341(3) 0.54840(2) 0.46082(2)
O1B O 0.52679(14) -0.07005(12) 0.06699(10)
O3_2 O 0.66031(17) -0.10938(14) -0.04594(11)
O4_2 O 0.76868(14) -0.13309(12) 0.09686(9)
O6B O 1.00869(15) -0.05493(13) -0.06172(12)
O7_2 O 0.87833(13) -0.16744(11) 0.02805(10)
O8_2 O 0.76933(17) -0.13848(14) -0.11417(11)
N2C N 0.81950(17) 0.07502(15) -0.11181(11)
loop_
_geom_bond_atom_site_label_1
_geom_bond_atom_site_label_2
_geom_bond_site_symmetry_1
_geom_bond_site_symmetry_2
Mn1 O2 1_555 1_555
Mn2 O5 1_555 1_555
O1 C14 1_555 1_555
O2 C14 1_555 1_555
O3 C7 1_555 1_555
O4 C21 1_555 1_555
O5 Mn1 1_555 1_555
O6 C28 1_555 1_555
O7 C21 1_555 1_555
O8 C7 1_555 1_555
O9 C4 1_555 1_555
O10 C18 1_555 1_555
N1 Mn1 1_555 1_555
N2 C37 1_555 1_555
C1 C2 1_555 1_555
C2 H1 1_555 1_555
C3 C2 1_555 1_555
H2 C3 1_555 1_555
C4 C3 1_555 1_555
C5 C4 1_555 1_555
H3 C5 1_555 1_555
C6 C1 1_555 1_555
H4 C6 1_555 1_555
C7 C1 1_555 1_555
C8 O9 1_555 1_555
C9 C8 1_555 1_555
H5 C9 1_555 1_555
C10 C9 1_555 1_555
H6 C10 1_555 1_555
C11 C10 1_555 1_555
C12 C11 1_555 1_555
H7 C12 1_555 1_555
C13 C8 1_555 1_555
H8 C13 1_555 1_555
C14 C11 1_555 1_555
C15 C16 1_555 1_555
C16 H9 1_555 1_555
C17 C16 1_555 1_555
H10 C17 1_555 1_555
C18 C17 1_555 1_555
C19 C18 1_555 1_555
H11 C19 1_555 1_555
C20 C15 1_555 1_555
H12 C20 1_555 1_555
C21 C15 1_555 1_555
C22 O10 1_555 1_555
C23 C22 1_555 1_555
H13 C23 1_555 1_555
C24 C23 1_555 1_555
H14 C24 1_555 1_555
C25 C24 1_555 1_555
C26 C25 1_555 1_555
H15 C26 1_555 1_555
C27 C22 1_555 1_555
H16 C27 1_555 1_555
C28 O5 1_555 1_555
C29 N1 1_555 1_555
H17 C29 1_555 1_555
C30 C29 1_555 1_555
H18 C30 1_555 1_555
C31 C30 1_555 1_555
C32 C31 1_555 1_555
H19 C32 1_555 1_555
C33 N1 1_555 1_555
H20 C33 1_555 1_555
C34 C31 1_555 1_555
C35 C34 1_555 1_555
H21 C35 1_555 1_555
C36 C34 1_555 1_555
H22 C36 1_555 1_555
C37 C36 1_555 1_555
H23 C37 1_555 1_555
C38 N2 1_555 1_555
H24 C38 1_555 1_555
Mn1_2 O3 1_555 1_555
Mn1B O1 1_555 1_555
Mn2_2 O7 1_555 1_555
Mn2B O6 1_555 1_555
Mn2C N2 1_555 1_555
O1B Mn1 1_555 1_555
O3_2 Mn1 1_555 1_555
O4_2 Mn1 1_555 1_555
O6B Mn2 1_555 1_555
O7_2 Mn2 1_555 1_555
O8_2 Mn2 1_555 1_555
N2C Mn2 1_555 1_555
O4 Mn1_2 1_555 1_555
O8 Mn2_2 1_555 1_555
C5 C6 1_555 1_555
C12 C13 1_555 1_555
C19 C20 1_555 1_555
C25 C28 1_555 1_555
C26 C27 1_555 1_555
C32 C33 1_555 1_555
C35 C38 1_555 1_555

#END
