
#######################################################################
#
#                 Cambridge Crystallographic Data Centre
#                                CCDC 
#
#######################################################################
#
# If this CIF has been generated from an entry in the Cambridge 
# Structural Database, then it will include bibliographic, chemical, 
# crystal, experimental, refinement or atomic coordinate data resulting 
# from the CCDC's data processing and validation procedures.
#
#######################################################################

data_ZEXLAR
_symmetry_cell_setting           monoclinic
_symmetry_space_group_name_H-M   'P 21/c'
_symmetry_Int_Tables_number      14
_space_group_name_Hall           '-P 2ybc'
loop_
_symmetry_equiv_pos_site_id
_symmetry_equiv_pos_as_xyz
1 x,y,z
2 -x,1/2+y,1/2-z
3 -x,-y,-z
4 x,1/2-y,1/2+z
_cell_length_a                   13.953(3)
_cell_length_b                   9.914(2)
_cell_length_c                   10.176(2)
_cell_angle_alpha                90
_cell_angle_beta                 104.151(4)
_cell_angle_gamma                90
_cell_volume                     1364.93
loop_
_atom_site_label
_atom_site_type_symbol
_atom_site_fract_x
_atom_site_fract_y
_atom_site_fract_z
H1 H 0.416(5) -0.050(5) 0.759(6)
H2 H 0.384(5) -0.038(6) 0.886(5)
H3 H 0.553(5) 0.0045(12) 0.695(7)
H4 H 0.517(4) 0.116(6) 0.601(2)
Co1 Co 0.48092(4) 0.18872(6) 0.83089(5)
O1 O 0.4043(2) 0.0154(3) 0.8212(3)
O2 O 1.3871(2) 0.2937(3) 1.6825(3)
O3 O 0.5899(2) 0.3431(3) 0.8762(3)
O4 O 1.4216(2) 0.2304(3) 1.4888(3)
O5 O 0.5551(2) 0.0996(4) 0.6902(3)
O6 O 0.6185(2) 0.1525(3) 0.9829(3)
O7 O 1.0009(2) 0.5001(4) 1.2655(4)
C1 C 0.6474(3) 0.2691(5) 0.9626(4)
C2 C 0.7450(3) 0.3229(5) 1.0388(4)
C3 C 0.7990(3) 0.2567(5) 1.1545(5)
H5 H 0.7756 0.1762 1.1818
C4 C 0.8871(3) 0.3105(5) 1.2287(5)
H6 H 0.9231 0.2663 1.3057
C5 C 0.9214(3) 0.4301(5) 1.1878(5)
C6 C 0.8703(3) 0.4939(5) 1.0718(5)
H7 H 0.8954 0.5725 1.0433
C7 C 0.7823(3) 0.4419(5) 0.9979(5)
H8 H 0.7475 0.4863 0.9204
C8 C 1.0846(3) 0.4325(5) 1.3382(5)
C9 C 1.1320(3) 0.3363(5) 1.2786(5)
H9 H 1.1029 0.3044 1.1921
C10 C 1.2230(3) 0.2878(5) 1.3488(4)
H10 H 1.2562 0.2246 1.3088
C11 C 1.2652(3) 0.3341(4) 1.4804(4)
C12 C 1.2147(3) 0.4269(5) 1.5398(4)
H11 H 1.2413 0.4551 1.6284
C13 C 1.1250(3) 0.4776(5) 1.4683(5)
H12 H 1.0920 0.5417 1.5075
C14 C 1.3646(3) 0.2828(4) 1.5544(4)
Co1_2 Co 1.48092(4) 0.18872(6) 1.83089(5)
Co1C Co 1.48092(4) 0.31128(6) 1.33089(5)
O2_2 O 0.3871(2) 0.2937(3) 0.6825(3)
O4C O 0.4216(2) 0.2696(3) 0.9888(3)
loop_
_geom_bond_atom_site_label_1
_geom_bond_atom_site_label_2
_geom_bond_site_symmetry_1
_geom_bond_site_symmetry_2
H1 O1 1_555 1_555
H2 O1 1_555 1_555
H3 O5 1_555 1_555
H4 O5 1_555 1_555
Co1 O1 1_555 1_555
O2 C14 1_555 1_555
O3 Co1 1_555 1_555
O4 C14 1_555 1_555
O5 Co1 1_555 1_555
O6 Co1 1_555 1_555
O7 C5 1_555 1_555
C1 O3 1_555 1_555
C2 C1 1_555 1_555
C3 C2 1_555 1_555
H5 C3 1_555 1_555
C4 C3 1_555 1_555
H6 C4 1_555 1_555
C5 C4 1_555 1_555
C6 C5 1_555 1_555
H7 C6 1_555 1_555
C7 C2 1_555 1_555
H8 C7 1_555 1_555
C8 O7 1_555 1_555
C9 C8 1_555 1_555
H9 C9 1_555 1_555
C10 C9 1_555 1_555
H10 C10 1_555 1_555
C11 C10 1_555 1_555
C12 C11 1_555 1_555
H11 C12 1_555 1_555
C13 C8 1_555 1_555
H12 C13 1_555 1_555
C14 C11 1_555 1_555
Co1_2 O2 1_555 1_555
Co1C O4 1_555 1_555
O2_2 Co1 1_555 1_555
O4C Co1 1_555 1_555
O6 C1 1_555 1_555
C6 C7 1_555 1_555
C12 C13 1_555 1_555

#END
