
#######################################################################
#
#                 Cambridge Crystallographic Data Centre
#                                CCDC 
#
#######################################################################
#
# If this CIF has been generated from an entry in the Cambridge 
# Structural Database, then it will include bibliographic, chemical, 
# crystal, experimental, refinement or atomic coordinate data resulting 
# from the CCDC's data processing and validation procedures.
#
#######################################################################

data_ZEXLAR01
_symmetry_cell_setting           monoclinic
_symmetry_space_group_name_H-M   'P 21/c'
_symmetry_Int_Tables_number      14
_space_group_name_Hall           '-P 2ybc'
loop_
_symmetry_equiv_pos_site_id
_symmetry_equiv_pos_as_xyz
1 x,y,z
2 -x,1/2+y,1/2-z
3 -x,-y,-z
4 x,1/2-y,1/2+z
_cell_length_a                   13.883(6)
_cell_length_b                   9.869(5)
_cell_length_c                   10.132(4)
_cell_angle_alpha                90
_cell_angle_beta                 104.198(10)
_cell_angle_gamma                90
_cell_volume                     1345.79
loop_
_atom_site_label
_atom_site_type_symbol
_atom_site_fract_x
_atom_site_fract_y
_atom_site_fract_z
Co1 Co -0.01911(7) 0.18831(9) -0.16975(10)
O1 O 0.1187(4) 0.1524(5) -0.0167(5)
O2 O 0.0901(4) 0.3443(5) -0.1239(5)
O3 O 0.5012(3) 0.5008(5) 0.2657(6)
O4 O 0.9221(4) 0.2301(5) 0.4876(5)
O5 O 0.8869(4) 0.2931(5) 0.6824(5)
O6 O 0.0555(4) 0.0995(6) -0.3085(6)
H1 H 0.015(4) 0.110(6) -0.386(3)
H2 H 0.059(5) 0.020(3) -0.338(7)
O7 O -0.0957(4) 0.0159(5) -0.1799(6)
H3 H -0.107(5) -0.010(8) -0.105(4)
H4 H -0.091(6) -0.039(6) -0.242(6)
C1 C 0.1473(5) 0.2686(8) -0.0376(8)
C2 C 0.2447(5) 0.3221(7) 0.0401(8)
C3 C 0.2821(5) 0.4406(8) -0.0034(8)
H5 H 0.2480 0.4831 -0.0831
C4 C 0.3694(5) 0.4940(8) 0.0718(8)
H6 H 0.3935 0.5745 0.0446
C5 C 0.4208(5) 0.4300(8) 0.1860(9)
C6 C 0.3859(6) 0.3112(8) 0.2279(9)
H7 H 0.4213 0.2675 0.3061
C7 C 0.2989(5) 0.2582(8) 0.1533(8)
H8 H 0.2760 0.1767 0.1803
C8 C 0.5853(5) 0.4321(8) 0.3377(9)
C9 C 0.6329(5) 0.3364(8) 0.2792(8)
H9 H 0.6039 0.3036 0.1925
C10 C 0.7241(6) 0.2893(8) 0.3502(8)
H10 H 0.7582 0.2271 0.3098
C11 C 0.7650(5) 0.3330(7) 0.4792(8)
C12 C 0.7147(5) 0.4282(7) 0.5393(8)
H11 H 0.7418 0.4583 0.6276
C13 C 0.6245(5) 0.4767(8) 0.4661(9)
H12 H 0.5903 0.5404 0.5048
C14 C 0.8644(5) 0.2817(7) 0.5557(8)
Co1_2 Co 0.98089(7) 0.18831(9) 0.83025(10)
Co1C Co 0.98089(7) 0.31169(9) 0.33025(10)
O4C O -0.0779(4) 0.2699(5) -0.0124(5)
O5_2 O -0.1131(4) 0.2931(5) -0.3176(5)
loop_
_geom_bond_atom_site_label_1
_geom_bond_atom_site_label_2
_geom_bond_site_symmetry_1
_geom_bond_site_symmetry_2
Co1 O1 1_555 1_555
O1 C1 1_555 1_555
O2 Co1 1_555 1_555
O3 C5 1_555 1_555
O4 C14 1_555 1_555
O5 C14 1_555 1_555
O6 Co1 1_555 1_555
H1 O6 1_555 1_555
H2 O6 1_555 1_555
O7 Co1 1_555 1_555
H3 O7 1_555 1_555
H4 O7 1_555 1_555
C1 O2 1_555 1_555
C2 C1 1_555 1_555
C3 C2 1_555 1_555
H5 C3 1_555 1_555
C4 C3 1_555 1_555
H6 C4 1_555 1_555
C5 C4 1_555 1_555
C6 C5 1_555 1_555
H7 C6 1_555 1_555
C7 C2 1_555 1_555
H8 C7 1_555 1_555
C8 O3 1_555 1_555
C9 C8 1_555 1_555
H9 C9 1_555 1_555
C10 C9 1_555 1_555
H10 C10 1_555 1_555
C11 C10 1_555 1_555
C12 C11 1_555 1_555
H11 C12 1_555 1_555
C13 C8 1_555 1_555
H12 C13 1_555 1_555
C14 C11 1_555 1_555
Co1_2 O5 1_555 1_555
Co1C O4 1_555 1_555
O4C Co1 1_555 1_555
O5_2 Co1 1_555 1_555
C6 C7 1_555 1_555
C12 C13 1_555 1_555

#END
