
#######################################################################
#
#                 Cambridge Crystallographic Data Centre
#                                CCDC 
#
#######################################################################
#
# If this CIF has been generated from an entry in the Cambridge 
# Structural Database, then it will include bibliographic, chemical, 
# crystal, experimental, refinement or atomic coordinate data resulting 
# from the CCDC's data processing and validation procedures.
#
#######################################################################

data_ZEYVUW
_symmetry_cell_setting           monoclinic
_symmetry_space_group_name_H-M   'P 21/n'
_symmetry_Int_Tables_number      14
_space_group_name_Hall           '-P 2yn'
loop_
_symmetry_equiv_pos_site_id
_symmetry_equiv_pos_as_xyz
1 x,y,z
2 1/2-x,1/2+y,1/2-z
3 -x,-y,-z
4 1/2+x,1/2-y,1/2+z
_cell_length_a                   9.3542(5)
_cell_length_b                   8.7838(3)
_cell_length_c                   31.2293(14)
_cell_angle_alpha                90
_cell_angle_beta                 97.324(4)
_cell_angle_gamma                90
_cell_volume                     2545.03
loop_
_atom_site_label
_atom_site_type_symbol
_atom_site_fract_x
_atom_site_fract_y
_atom_site_fract_z
C1 C 0.3545(2) 0.9424(2) 0.61018(7)
C2 C 0.2598(2) 1.0489(2) 0.62494(7)
C3 C 0.3127(2) 0.9549(2) 0.69427(7)
C4 C 0.4245(2) 0.8667(2) 0.68125(7)
C5 C 0.3719(3) 0.9054(2) 0.56462(7)
C6 C 0.2637(3) 0.9247(3) 0.53041(8)
H1 H 0.1762 0.9688 0.5347
C7 C 0.2880(3) 0.8772(3) 0.48973(8)
H2 H 0.2169 0.8887 0.4663
C8 C 0.4182(3) 0.8128(3) 0.48445(9)
H3 H 0.4371 0.7809 0.4573
C9 C 0.5198(3) 0.7963(3) 0.51982(8)
H4 H 0.6076 0.7516 0.5161
C10 C 0.5348(2) 0.7786(2) 0.70962(7)
C11 C 0.5171(3) 0.7220(2) 0.74982(7)
H5 H 0.4314 0.7387 0.7613
C12 C 0.6269(3) 0.6409(3) 0.77288(8)
H6 H 0.6155 0.6011 0.7998
C13 C 0.7525(3) 0.6195(3) 0.75577(8)
H7 H 0.8289 0.5674 0.7712
C14 C 0.7643(3) 0.6761(3) 0.71522(8)
H8 H 0.8496 0.6600 0.7035
C15 C 0.1916(3) 1.1771(3) 0.59882(7)
C16 C 0.0536(3) 1.2253(3) 0.60350(10)
H9 H -0.0030 1.1723 0.6209
C17 C 0.0027(4) 1.3549(5) 0.58150(12)
H10 H -0.0896 1.3904 0.5840
C18 C 0.0867(5) 1.4298(4) 0.55649(11)
H11 H 0.0537 1.5170 0.5415
C19 C 0.2226(5) 1.3737(4) 0.55375(10)
H12 H 0.2805 1.4259 0.5366
C20 C 0.2740(2) 0.9579(2) 0.73920(7)
C21 C 0.1488(3) 0.8910(3) 0.74807(8)
H13 H 0.0868 0.8449 0.7262
C22 C 0.1164(3) 0.8932(3) 0.78992(10)
H14 H 0.0334 0.8466 0.7970
C23 C 0.2089(4) 0.9655(3) 0.82064(9)
H15 H 0.1893 0.9698 0.8491
C24 C 0.3301(3) 1.0310(3) 0.80918(9)
H16 H 0.3914 1.0808 0.8305
C25 C 0.6390(3) 1.4323(3) 0.62386(9)
C26 C 0.6681(3) 1.1728(3) 0.63168(8)
N1 N 0.43834(19) 0.85957(19) 0.63908(5)
N2 N 0.2353(2) 1.0465(2) 0.66610(6)
N3 N 0.4987(2) 0.8414(2) 0.55938(6)
N4 N 0.6578(2) 0.7536(2) 0.69191(6)
N5 N 0.2763(3) 1.2489(3) 0.57427(8)
N6 N 0.3664(2) 1.0280(2) 0.76904(6)
N7 N 0.6353(3) 1.5512(2) 0.61050(8)
N8 N 0.6920(2) 1.0498(2) 0.62572(7)
N9 N 0.6316(5) 1.3055(3) 0.64418(10)
N10 N 0.9376(3) 0.7846(2) 0.60019(9)
O1 O 0.8354(2) 0.7975(2) 0.57032(7)
O2 O 0.9049(2) 0.7784(2) 0.63775(7)
O3 O 1.0636(2) 0.7770(3) 0.59352(9)
Mn1 Mn 0.66039(4) 0.79902(3) 0.618794(11)
N7_2 N 0.6353(3) 0.5512(2) 0.61050(8)
Mn1_2 Mn 0.66039(4) 1.79902(3) 0.618794(11)
loop_
_geom_bond_atom_site_label_1
_geom_bond_atom_site_label_2
_geom_bond_site_symmetry_1
_geom_bond_site_symmetry_2
C1 C2 1_555 1_555
C2 C15 1_555 1_555
C3 C4 1_555 1_555
C4 C10 1_555 1_555
C5 C1 1_555 1_555
C6 C5 1_555 1_555
H1 C6 1_555 1_555
C7 C6 1_555 1_555
H2 C7 1_555 1_555
C8 C7 1_555 1_555
H3 C8 1_555 1_555
C9 C8 1_555 1_555
H4 C9 1_555 1_555
C10 C11 1_555 1_555
C11 H5 1_555 1_555
C12 C11 1_555 1_555
H6 C12 1_555 1_555
C13 C12 1_555 1_555
H7 C13 1_555 1_555
C14 C13 1_555 1_555
H8 C14 1_555 1_555
C15 C16 1_555 1_555
C16 H9 1_555 1_555
C17 C16 1_555 1_555
H10 C17 1_555 1_555
C18 C17 1_555 1_555
H11 C18 1_555 1_555
C19 C18 1_555 1_555
H12 C19 1_555 1_555
C20 C3 1_555 1_555
C21 C20 1_555 1_555
H13 C21 1_555 1_555
C22 C21 1_555 1_555
H14 C22 1_555 1_555
C23 C22 1_555 1_555
H15 C23 1_555 1_555
C24 C23 1_555 1_555
H16 C24 1_555 1_555
C25 N7 1_555 1_555
C26 N8 1_555 1_555
N1 C1 1_555 1_555
N2 C2 1_555 1_555
N3 C5 1_555 1_555
N4 C10 1_555 1_555
N5 C15 1_555 1_555
N6 C20 1_555 1_555
N7 Mn1_2 1_555 1_555
N8 Mn1 1_555 1_555
N9 C25 1_555 1_555
N10 O1 1_555 1_555
O1 Mn1 1_555 1_555
O2 N10 1_555 1_555
O3 N10 1_555 1_555
Mn1 N1 1_555 1_555
N7_2 Mn1 1_555 1_555
C3 N2 1_555 1_555
C4 N1 1_555 1_555
C9 N3 1_555 1_555
C14 N4 1_555 1_555
C19 N5 1_555 1_555
C24 N6 1_555 1_555
C26 N9 1_555 1_555
N3 Mn1 1_555 1_555
N4 Mn1 1_555 1_555
O2 Mn1 1_555 1_555

#END
