
#######################################################################
#
#                 Cambridge Crystallographic Data Centre
#                                CCDC 
#
#######################################################################
#
# If this CIF has been generated from an entry in the Cambridge 
# Structural Database, then it will include bibliographic, chemical, 
# crystal, experimental, refinement or atomic coordinate data resulting 
# from the CCDC's data processing and validation procedures.
#
#######################################################################

data_ZEYWIJ
_symmetry_cell_setting           monoclinic
_symmetry_space_group_name_H-M   'I 2/m'
_symmetry_Int_Tables_number      12
_space_group_name_Hall           '-I 2y'
loop_
_symmetry_equiv_pos_site_id
_symmetry_equiv_pos_as_xyz
1 x,y,z
2 -x,y,-z
3 1/2+x,1/2+y,1/2+z
4 1/2-x,1/2+y,1/2-z
5 -x,-y,-z
6 x,-y,z
7 1/2-x,1/2-y,1/2-z
8 1/2+x,1/2-y,1/2+z
_cell_length_a                   8.877(1)
_cell_length_b                   7.112(1)
_cell_length_c                   14.876(1)
_cell_angle_alpha                90
_cell_angle_beta                 93.94(1)
_cell_angle_gamma                90
_cell_volume                     936.95
loop_
_atom_site_label
_atom_site_type_symbol
_atom_site_fract_x
_atom_site_fract_y
_atom_site_fract_z
Cu1 Cu 0.5000 0.0000 0.0000
Cu2 Cu 0.5000 -0.5000 0.0000
Cl1 Cl 0.6362(1) -0.2239(1) 0.0766(3)
N1 N 0.8633(2) -0.5000 -0.1488(2)
N2 N 0.7904(2) -0.5000 -0.0733(2)
N3 N 0.6448(2) -0.5000 -0.0960(1)
C1 C 0.4914(3) -0.5000 -0.2475(2)
C2 C 0.5125(4) -0.5000 -0.3379(2)
C3 C 0.6573(4) -0.5000 -0.3711(2)
C4 C 0.7850(4) -0.5000 -0.3149(2)
C5 C 0.6217(3) -0.5000 -0.1888(2)
C6 C 0.7644(3) -0.5000 -0.2228(2)
C7 C 1.0281(3) -0.5000 -0.1448(3)
H1 H 0.403(4) -0.500 -0.227(2)
H2 H 0.434(4) -0.500 -0.378(3)
H3 H 0.658(5) -0.500 -0.433(3)
H4 H 0.872(5) -0.500 -0.332(3)
H5 H 1.064(5) -0.500 -0.097(3)
H6 H 1.063(4) -0.599(5) -0.182(2)
Cl1A Cl 0.3638(1) -0.2239(1) -0.0766(3)
Cl1D Cl 0.3638(1) 0.2239(1) -0.0766(3)
Cu2D Cu 0.5000 0.5000 0.0000
Cl1E Cl 0.6362(1) 0.2239(1) 0.0766(3)
Cl1D_2 Cl 0.3638(1) -0.7761(1) -0.0766(3)
Cl1E_2 Cl 0.6362(1) -0.7761(1) 0.0766(3)
N3A N 0.3552(2) -0.5000 0.0960(1)
N2A N 0.2096(2) -0.5000 0.0733(2)
N1A N 0.1367(2) -0.5000 0.1488(2)
C6A C 0.2356(3) -0.5000 0.2228(2)
C4A C 0.2150(4) -0.5000 0.3149(2)
C3A C 0.3427(4) -0.5000 0.3711(2)
C2A C 0.4875(4) -0.5000 0.3379(2)
C1A C 0.5086(3) -0.5000 0.2475(2)
C5A C 0.3783(3) -0.5000 0.1888(2)
H1A H 0.597(4) -0.500 0.227(2)
H2A H 0.566(4) -0.500 0.378(3)
H3A H 0.342(5) -0.500 0.433(3)
H4A H 0.128(5) -0.500 0.332(3)
C7A C -0.0281(3) -0.5000 0.1448(3)
H6E H 1.063(4) -0.401(5) -0.182(2)
H5A H -0.064(5) -0.500 0.097(3)
H6A H -0.063(4) -0.599(5) 0.182(2)
H6D H -0.063(4) -0.401(5) 0.182(2)
loop_
_geom_bond_atom_site_label_1
_geom_bond_atom_site_label_2
_geom_bond_site_symmetry_1
_geom_bond_site_symmetry_2
Cu1 Cl1 1_555 1_555
Cu2 Cl1 1_555 1_555
N1 N2 1_555 1_555
N2 N3 1_555 1_555
N3 Cu2 1_555 1_555
C1 C2 1_555 1_555
C2 C3 1_555 1_555
C3 C4 1_555 1_555
C4 C6 1_555 1_555
C5 N3 1_555 1_555
C6 N1 1_555 1_555
C7 N1 1_555 1_555
H1 C1 1_555 1_555
H2 C2 1_555 1_555
H3 C3 1_555 1_555
H4 C4 1_555 1_555
H5 C7 1_555 1_555
H6 C7 1_555 1_555
Cl1A Cu1 1_555 1_555
Cl1D Cu1 1_555 1_555
Cu2D Cl1D 1_555 1_555
Cl1E Cu1 1_555 1_555
Cl1D_2 Cu2 1_555 1_555
Cl1E_2 Cu2 1_555 1_555
N3A Cu2 1_555 1_555
N2A N3A 1_555 1_555
N1A N2A 1_555 1_555
C6A N1A 1_555 1_555
C4A C6A 1_555 1_555
C3A C4A 1_555 1_555
C2A C3A 1_555 1_555
C1A C2A 1_555 1_555
C5A N3A 1_555 1_555
H1A C1A 1_555 1_555
H2A C2A 1_555 1_555
H3A C3A 1_555 1_555
H4A C4A 1_555 1_555
C7A N1A 1_555 1_555
H6E C7 1_555 1_555
H5A C7A 1_555 1_555
H6A C7A 1_555 1_555
H6D C7A 1_555 1_555
Cu2 Cl1A 1_555 1_555
C1 C5 1_555 1_555
C5 C6 1_555 1_555
Cu2D Cl1E 1_555 1_555
C6A C5A 1_555 1_555
C1A C5A 1_555 1_555

#END
