
#######################################################################
#
#                 Cambridge Crystallographic Data Centre
#                                CCDC 
#
#######################################################################
#
# If this CIF has been generated from an entry in the Cambridge 
# Structural Database, then it will include bibliographic, chemical, 
# crystal, experimental, refinement or atomic coordinate data resulting 
# from the CCDC's data processing and validation procedures.
#
#######################################################################

data_ZEYWIJ01
_symmetry_cell_setting           monoclinic
_symmetry_space_group_name_H-M   'I 2/m'
_symmetry_Int_Tables_number      12
_space_group_name_Hall           '-I 2y'
loop_
_symmetry_equiv_pos_site_id
_symmetry_equiv_pos_as_xyz
1 x,y,z
2 1/2+x,1/2+y,1/2+z
3 -x,y,-z
4 1/2-x,1/2+y,1/2-z
5 -x,-y,-z
6 1/2-x,1/2-y,1/2-z
7 x,-y,z
8 1/2+x,1/2-y,1/2+z
_cell_length_a                   8.877(1)
_cell_length_b                   7.113(1)
_cell_length_c                   14.876(1)
_cell_angle_alpha                90
_cell_angle_beta                 93.94(1)
_cell_angle_gamma                90
_cell_volume                     937.082
loop_
_atom_site_label
_atom_site_type_symbol
_atom_site_fract_x
_atom_site_fract_y
_atom_site_fract_z
Cu1 Cu 0.0000 0.5000 0.5000
Cu2 Cu 0.0000 0.0000 0.5000
Cl1 Cl 0.13623(5) 0.27586(7) 0.57661(4)
N1 N 0.3629(2) 0.0000 0.35126(15)
N2 N 0.2904(2) 0.0000 0.42653(14)
N3 N 0.1447(2) 0.0000 0.40392(13)
C1 C -0.0083(3) 0.0000 0.25248(18)
C2 C 0.0119(3) 0.0000 0.16207(19)
C3 C 0.1573(4) 0.0000 0.12880(19)
C4 C 0.2852(3) 0.0000 0.18489(19)
C5 C 0.1217(3) 0.0000 0.31116(16)
C6 C 0.2645(3) 0.0000 0.27741(18)
C7 C 0.5281(3) 0.0000 0.3554(3)
H1 H -0.099(3) 0.0000 0.2738(19)
H2 H -0.069(4) 0.0000 0.124(2)
H3 H 0.162(4) 0.0000 0.070(3)
H4 H 0.383(5) 0.0000 0.166(3)
H5 H 0.565(5) 0.0000 0.405(4)
H6 H 0.560(4) -0.095(5) 0.320(2)
Cu2_2 Cu 0.0000 1.0000 0.5000
Cl1F Cl 0.13623(5) 0.72414(7) 0.57661(4)
Cl1D Cl -0.13623(5) 0.72414(7) 0.42339(4)
Cl1B Cl -0.13623(5) 0.27586(7) 0.42339(4)
Cl1F_2 Cl 0.13623(5) -0.27586(7) 0.57661(4)
Cl1D_2 Cl -0.13623(5) -0.27586(7) 0.42339(4)
N1D N -0.3629(2) 0.0000 0.64874(15)
N2D N -0.2904(2) 0.0000 0.57347(14)
N3D N -0.1447(2) 0.0000 0.59608(13)
C1D C 0.0083(3) 0.0000 0.74752(18)
C2D C -0.0119(3) 0.0000 0.83793(19)
C3D C -0.1573(4) 0.0000 0.87120(19)
C4D C -0.2852(3) 0.0000 0.81511(19)
C5D C -0.1217(3) 0.0000 0.68884(16)
C6D C -0.2645(3) 0.0000 0.72259(18)
C7D C -0.5281(3) 0.0000 0.6446(3)
H1D H 0.099(3) 0.0000 0.7262(19)
H2D H 0.069(4) 0.0000 0.876(2)
H3D H -0.162(4) 0.0000 0.930(3)
H4D H -0.383(5) 0.0000 0.834(3)
H5D H -0.565(5) 0.0000 0.595(4)
H6F H 0.560(4) 0.095(5) 0.320(2)
H6D H -0.560(4) 0.095(5) 0.680(2)
H6B H -0.560(4) -0.095(5) 0.680(2)
loop_
_geom_bond_atom_site_label_1
_geom_bond_atom_site_label_2
_geom_bond_site_symmetry_1
_geom_bond_site_symmetry_2
Cu1 Cl1 1_555 1_555
Cu2 Cl1 1_555 1_555
N1 N2 1_555 1_555
N2 N3 1_555 1_555
N3 Cu2 1_555 1_555
C1 C2 1_555 1_555
C2 C3 1_555 1_555
C3 C4 1_555 1_555
C4 C6 1_555 1_555
C5 N3 1_555 1_555
C6 N1 1_555 1_555
C7 N1 1_555 1_555
H1 C1 1_555 1_555
H2 C2 1_555 1_555
H3 C3 1_555 1_555
H4 C4 1_555 1_555
H5 C7 1_555 1_555
H6 C7 1_555 1_555
Cu2_2 Cl1F 1_555 1_555
Cl1F Cu1 1_555 1_555
Cl1D Cu1 1_555 1_555
Cl1B Cu1 1_555 1_555
Cl1F_2 Cu2 1_555 1_555
Cl1D_2 Cu2 1_555 1_555
N1D N2D 1_555 1_555
N2D N3D 1_555 1_555
N3D Cu2 1_555 1_555
C1D C2D 1_555 1_555
C2D C3D 1_555 1_555
C3D C4D 1_555 1_555
C4D C6D 1_555 1_555
C5D N3D 1_555 1_555
C6D N1D 1_555 1_555
C7D N1D 1_555 1_555
H1D C1D 1_555 1_555
H2D C2D 1_555 1_555
H3D C3D 1_555 1_555
H4D C4D 1_555 1_555
H5D C7D 1_555 1_555
H6F C7 1_555 1_555
H6D C7D 1_555 1_555
H6B C7D 1_555 1_555
Cu2 Cl1B 1_555 1_555
C1 C5 1_555 1_555
C5 C6 1_555 1_555
Cu2_2 Cl1D 1_555 1_555
C1D C5D 1_555 1_555
C5D C6D 1_555 1_555

#END
