
#######################################################################
#
#                 Cambridge Crystallographic Data Centre
#                                CCDC 
#
#######################################################################
#
# If this CIF has been generated from an entry in the Cambridge 
# Structural Database, then it will include bibliographic, chemical, 
# crystal, experimental, refinement or atomic coordinate data resulting 
# from the CCDC's data processing and validation procedures.
#
#######################################################################

data_ZEZDAJ
_symmetry_cell_setting           monoclinic
_symmetry_space_group_name_H-M   'P 21/n'
_symmetry_Int_Tables_number      14
_space_group_name_Hall           '-P 2yn'
loop_
_symmetry_equiv_pos_site_id
_symmetry_equiv_pos_as_xyz
1 x,y,z
2 1/2-x,1/2+y,1/2-z
3 -x,-y,-z
4 1/2+x,1/2-y,1/2+z
_cell_length_a                   10.488(3)
_cell_length_b                   20.047(4)
_cell_length_c                   18.587(4)
_cell_angle_alpha                90
_cell_angle_beta                 96.17(2)
_cell_angle_gamma                90
_cell_volume                     3885.33
loop_
_atom_site_label
_atom_site_type_symbol
_atom_site_fract_x
_atom_site_fract_y
_atom_site_fract_z
Nd1 Nd 0.04323(6) 0.40741(3) -0.46034(4)
O1 O 0.1130(9) 0.1360(4) -0.3297(5)
O2 O -0.0708(9) 0.1118(4) -0.2919(7)
O3 O 0.0292(6) 0.3324(3) -0.3553(5)
O4 O -0.7477(8) 0.3643(4) 0.0156(5)
O5 O -0.6032(9) 0.4389(4) -0.0076(6)
O6 O -0.5094(6) 0.2075(4) -0.0043(4)
O7 O -0.9282(8) 0.2283(5) -0.1356(5)
O8 O -0.9993(8) 0.3301(5) -0.1432(6)
O9 O -0.5827(8) 0.2729(4) -0.2000(5)
O10 O 0.0212(8) 0.4090(5) -0.5879(5)
O11 O -0.0234(8) 0.5126(4) -0.6352(5)
O12 O 0.054(1) 0.4300(6) -0.7148(7)
O13 O -0.1395(6) 0.4907(3) -0.5014(4)
O14 O -0.1895(6) 0.4029(4) -0.4343(4)
O15 O -0.3426(10) 0.4955(6) -0.4460(8)
O16 O 0.2692(7) 0.4153(5) -0.3877(5)
O17 O 0.2567(7) 0.3562(4) -0.4843(6)
O18 O 0.4385(8) 0.3683(5) -0.4204(6)
N1 N -0.3717(8) 0.4262(4) -0.2009(5)
N2 N -0.1947(8) 0.3083(4) -0.3085(5)
N3 N -0.3823(8) 0.4032(5) -0.0424(5)
N4 N -0.6443(8) 0.3964(5) -0.2044(5)
N5 N 0.013(1) 0.4508(7) -0.6362(8)
N6 N -0.2154(10) 0.4590(6) -0.4594(7)
N7 N 0.325(1) 0.3786(5) -0.4321(7)
C1 C -0.2656(9) 0.4004(6) -0.2378(6)
C2 C -0.308(1) 0.3429(6) -0.2887(7)
C3 C -0.157(1) 0.2492(6) -0.2928(7)
C4 C -0.233(1) 0.2065(7) -0.2471(9)
C5 C -0.006(1) 0.1564(6) -0.3093(8)
C6 C -0.034(1) 0.2270(6) -0.3136(7)
C7 C 0.053(1) 0.2712(6) -0.3426(6)
C8 C 0.174(1) 0.2447(6) -0.3577(7)
C9 C 0.199(1) 0.1812(8) -0.3498(7)
C10 C 0.319(1) 0.1447(8) -0.3651(9)
C11 C -0.320(1) 0.4706(6) -0.1428(7)
C12 C -0.273(1) 0.4331(6) -0.0738(7)
C13 C -0.419(1) 0.3414(5) -0.0405(7)
C14 C -0.337(1) 0.2874(6) -0.0668(7)
C15 C -0.623(1) 0.3785(7) -0.0030(8)
C16 C -0.539(1) 0.3249(5) -0.0147(6)
C17 C -0.579(1) 0.2572(6) -0.0016(6)
C18 C -0.7052(10) 0.2490(5) 0.0159(6)
C19 C -0.784(1) 0.2993(7) 0.0239(7)
C20 C -0.918(1) 0.2941(8) 0.0428(9)
C21 C -0.470(1) 0.4577(5) -0.2517(7)
C22 C -0.597(1) 0.4638(6) -0.2191(7)
C23 C -0.758(1) 0.3810(6) -0.1871(7)
C24 C -0.850(1) 0.4377(6) -0.1811(8)
C25 C -0.908(1) 0.2944(7) -0.1506(8)
C26 C -0.783(1) 0.3129(6) -0.1723(6)
C27 C -0.688(1) 0.2622(6) -0.1804(7)
C28 C -0.726(1) 0.1959(6) -0.1618(7)
C29 C -0.837(2) 0.1799(7) -0.1409(8)
C30 C -0.879(1) 0.1139(7) -0.1184(8)
H1 H -0.1400 0.3341 -0.3378
H2 H -0.4362 0.4349 -0.0191
H3 H -0.5842 0.3593 -0.2078
H4 H -0.2321 0.4365 -0.2659
H5 H -0.1978 0.3845 -0.2014
H6 H -0.3575 0.3605 -0.3324
H7 H -0.3613 0.3119 -0.2643
H8 H -0.2366 0.2277 -0.1999
H9 H -0.3204 0.2012 -0.2711
H10 H -0.1924 0.1626 -0.2404
H11 H 0.2390 0.2747 -0.3740
H12 H 0.3551 0.1209 -0.3215
H13 H 0.2984 0.1126 -0.4045
H14 H 0.3824 0.1768 -0.3794
H15 H -0.2482 0.4957 -0.1591
H16 H -0.3875 0.5018 -0.1321
H17 H -0.2282 0.4642 -0.0390
H18 H -0.2134 0.3978 -0.0852
H19 H -0.3781 0.2441 -0.0613
H20 H -0.3268 0.2949 -0.1180
H21 H -0.2526 0.2879 -0.0385
H22 H -0.7363 0.2036 0.0227
H23 H -0.9254 0.3177 0.0884
H24 H -0.9768 0.3143 0.0042
H25 H -0.9406 0.2471 0.0481
H26 H -0.4405 0.5024 -0.2638
H27 H -0.4829 0.4307 -0.2958
H28 H -0.6596 0.4868 -0.2533
H29 H -0.5837 0.4892 -0.1739
H30 H -0.8136 0.4687 -0.1434
H31 H -0.8634 0.4612 -0.2275
H32 H -0.9316 0.4204 -0.1683
H33 H -0.6630 0.1600 -0.1652
H34 H -0.8987 0.1161 -0.0681
H35 H -0.9561 0.1005 -0.1496
H36 H -0.8109 0.0812 -0.1225
O13B O 0.1395(6) 0.5093(3) -0.4986(4)
Nd1B Nd -0.04323(6) 0.59259(3) -0.53966(4)
O11B O 0.0234(8) 0.4874(4) -0.3648(5)
O6C O -0.0094(6) 0.2925(4) -0.5043(4)
Nd1C Nd -0.45677(6) 0.09259(3) 0.03966(4)
loop_
_geom_bond_atom_site_label_1
_geom_bond_atom_site_label_2
_geom_bond_site_symmetry_1
_geom_bond_site_symmetry_2
Nd1 O3 1_555 1_555
O1 C5 1_555 1_555
O2 C5 1_555 1_555
O3 C7 1_555 1_555
O4 C15 1_555 1_555
O5 C15 1_555 1_555
O6 C17 1_555 1_555
O7 C25 1_555 1_555
O8 C25 1_555 1_555
O9 C27 1_555 1_555
O10 Nd1 1_555 1_555
O11 N5 1_555 1_555
O12 N5 1_555 1_555
O13 Nd1 1_555 1_555
O14 Nd1 1_555 1_555
O15 N6 1_555 1_555
O16 Nd1 1_555 1_555
O17 Nd1 1_555 1_555
O18 N7 1_555 1_555
N1 C1 1_555 1_555
N2 C2 1_555 1_555
N3 C12 1_555 1_555
N4 C22 1_555 1_555
N5 O10 1_555 1_555
N6 O13 1_555 1_555
N7 O16 1_555 1_555
C1 C2 1_555 1_555
C2 H6 1_555 1_555
C3 N2 1_555 1_555
C4 C3 1_555 1_555
C5 C6 1_555 1_555
C6 C3 1_555 1_555
C7 C6 1_555 1_555
C8 C7 1_555 1_555
C9 O1 1_555 1_555
C10 C9 1_555 1_555
C11 N1 1_555 1_555
C12 C11 1_555 1_555
C13 N3 1_555 1_555
C14 C13 1_555 1_555
C15 C16 1_555 1_555
C16 C13 1_555 1_555
C17 C16 1_555 1_555
C18 C17 1_555 1_555
C19 O4 1_555 1_555
C20 C19 1_555 1_555
C21 N1 1_555 1_555
C22 C21 1_555 1_555
C23 N4 1_555 1_555
C24 C23 1_555 1_555
C25 C26 1_555 1_555
C26 C23 1_555 1_555
C27 C26 1_555 1_555
C28 C27 1_555 1_555
C29 O7 1_555 1_555
C30 C29 1_555 1_555
H1 N2 1_555 1_555
H2 N3 1_555 1_555
H3 N4 1_555 1_555
H4 C1 1_555 1_555
H5 C1 1_555 1_555
H7 C2 1_555 1_555
H8 C4 1_555 1_555
H9 C4 1_555 1_555
H10 C4 1_555 1_555
H11 C8 1_555 1_555
H12 C10 1_555 1_555
H13 C10 1_555 1_555
H14 C10 1_555 1_555
H15 C11 1_555 1_555
H16 C11 1_555 1_555
H17 C12 1_555 1_555
H18 C12 1_555 1_555
H19 C14 1_555 1_555
H20 C14 1_555 1_555
H21 C14 1_555 1_555
H22 C18 1_555 1_555
H23 C20 1_555 1_555
H24 C20 1_555 1_555
H25 C20 1_555 1_555
H26 C21 1_555 1_555
H27 C21 1_555 1_555
H28 C22 1_555 1_555
H29 C22 1_555 1_555
H30 C24 1_555 1_555
H31 C24 1_555 1_555
H32 C24 1_555 1_555
H33 C28 1_555 1_555
H34 C30 1_555 1_555
H35 C30 1_555 1_555
H36 C30 1_555 1_555
O13B Nd1 1_555 1_555
Nd1B O11 1_555 1_555
O11B Nd1 1_555 1_555
O6C Nd1 1_555 1_555
Nd1C O6 1_555 1_555
O13 Nd1B 1_555 1_555
O14 N6 1_555 1_555
O17 N7 1_555 1_555
C8 C9 1_555 1_555
C18 C19 1_555 1_555
C28 C29 1_555 1_555
O13B Nd1B 1_555 1_555

#END
