
#######################################################################
#
#                 Cambridge Crystallographic Data Centre
#                                CCDC 
#
#######################################################################
#
# If this CIF has been generated from an entry in the Cambridge 
# Structural Database, then it will include bibliographic, chemical, 
# crystal, experimental, refinement or atomic coordinate data resulting 
# from the CCDC's data processing and validation procedures.
#
#######################################################################

data_ZEZFIV
_symmetry_cell_setting           tetragonal
_symmetry_space_group_name_H-M   'P 43 21 2'
_symmetry_Int_Tables_number      96
_space_group_name_Hall           'P 4nw 2abw'
loop_
_symmetry_equiv_pos_site_id
_symmetry_equiv_pos_as_xyz
1 x,y,z
2 -x,-y,1/2+z
3 1/2+x,1/2-y,1/4-z
4 1/2-x,1/2+y,3/4-z
5 -y,-x,1/2-z
6 y,x,-z
7 1/2+y,1/2-x,1/4+z
8 1/2-y,1/2+x,3/4+z
_cell_length_a                   22.839(5)
_cell_length_b                   22.839(5)
_cell_length_c                   33.078(5)
_cell_angle_alpha                90
_cell_angle_beta                 90
_cell_angle_gamma                90
_cell_volume                     17254.1
loop_
_atom_site_label
_atom_site_type_symbol
_atom_site_fract_x
_atom_site_fract_y
_atom_site_fract_z
Zn1 Zn 0.423609(19) 0.04100(2) 0.607355(12)
Na1 Na 0.46916(9) -0.06637(8) 0.55716(5)
Na2 Na 0.46039(9) -0.10882(9) 0.45720(5)
C1 C 0.8064(3) 0.2693(3) 0.34576(13)
C2 C 0.7740(3) 0.2720(3) 0.38337(13)
H1 H 0.7387 0.2524 0.3866
C3 C 0.7983(3) 0.3055(3) 0.41451(16)
C4 C 0.8515(2) 0.3338(3) 0.40965(14)
H2 H 0.8667 0.3562 0.4307
C5 C 0.8827(2) 0.3291(2) 0.37340(12)
C6 C 0.8589(2) 0.2987(3) 0.34205(14)
H3 H 0.8786 0.2978 0.3175
C7 C 0.51093(18) 0.08855(18) 0.50124(11)
C8 C 0.5529(2) 0.1309(2) 0.49456(12)
H4 H 0.5641 0.1558 0.5154
C9 C 0.5782(2) 0.1364(2) 0.45720(13)
C10 C 0.5609(2) 0.0965(2) 0.42599(12)
H5 H 0.5789 0.0984 0.4008
C11 C 0.51774(18) 0.05533(18) 0.43282(11)
C12 C 0.49352(16) 0.05167(17) 0.47017(11)
H6 H 0.4646 0.0239 0.4750
C13 C 0.50164(18) 0.01575(19) 0.39858(11)
C14 C 0.48526(18) 0.0851(2) 0.54400(12)
C15 C 0.93992(19) 0.3619(2) 0.36769(11)
C16 C 0.7790(4) 0.2365(4) 0.31096(16)
C17 C 0.7259(3) 0.2811(3) 0.46992(16)
C18 C 0.6556(3) 0.2133(2) 0.46964(14)
C19 C 0.6772(3) 0.2613(3) 0.52704(16)
C20 C 0.8303(2) 0.3905(2) 0.61522(15)
C21 C 0.7683(2) 0.3654(3) 0.61989(14)
C22 C 0.7328(3) 0.3825(3) 0.65429(17)
H7 H 0.7491 0.4053 0.6747
C23 C 0.6783(3) 0.3661(4) 0.6567(2)
C24 C 0.7434(2) 0.3315(3) 0.59094(15)
H8 H 0.7657 0.3228 0.5682
C25 C 0.6551(3) 0.3318(3) 0.6236(2)
H9 H 0.6150 0.3249 0.6233
C26 C 0.6873(3) 0.3088(3) 0.59284(15)
C27 C 0.6346(4) 0.3845(4) 0.6884(2)
N1 N 0.7729(2) 0.3102(3) 0.45320(12)
H10 H 0.7894 0.3352 0.4689
N2 N 0.7180(2) 0.2934(2) 0.50997(13)
N3 N 0.6984(2) 0.2404(2) 0.44836(11)
N4 N 0.6211(2) 0.1795(2) 0.44574(11)
H11 H 0.6255 0.1845 0.4202
N5 N 0.64059(18) 0.2236(2) 0.50750(12)
N6 N 0.6629(2) 0.2713(2) 0.56602(11)
H12 H 0.6341 0.2508 0.5751
O1 O 0.52638(14) 0.02240(14) 0.36580(8)
O2 O 0.53830(18) -0.08328(17) 0.50575(10)
O3 O 0.46519(11) -0.02442(10) 0.40521(7)
O4 O 0.4947(4) -0.1586(3) 0.5882(2)
H13 H 0.4883 -0.1854 0.5722
O5 O 0.49266(16) 0.12199(15) 0.56900(9)
O6 O 0.39180(16) -0.06608(17) 0.50197(9)
O7 O 0.45387(12) 0.03953(12) 0.55013(7)
O8 O 0.4403(3) -0.2015(5) 0.5060(3)
H14 H 0.4062 -0.2009 0.5136
O9 O 0.96894(15) 0.35395(16) 0.33573(9)
O10 O 0.95904(12) 0.38938(12) 0.39758(8)
O11 O 0.85295(14) 0.41121(14) 0.64639(10)
O12 O 0.85262(15) 0.39018(17) 0.58153(10)
O13 O 0.7370(3) 0.2086(3) 0.31607(12)
O14 O 0.8082(2) 0.2390(3) 0.28002(10)
O15 O 0.5875(3) 0.3614(4) 0.69406(18)
O16 O 0.6619(3) 0.4141(3) 0.7178(2)
Zn1B Zn 0.923609(19) 0.45900(2) 0.642645(12)
Zn1E Zn 1.04100(2) 0.423609(19) 0.392645(12)
Zn1G Zn 0.45900(2) -0.076391(19) 0.357355(12)
Na1E Na 0.93363(8) 0.46916(9) 0.44284(5)
Na1G Na 0.56637(8) -0.03084(9) 0.30716(5)
Na2C Na 1.03961(9) 0.39118(9) 0.29280(5)
Na2E Na 0.89118(9) 0.46039(9) 0.54280(5)
O1F O 0.52240(14) -0.02638(14) 0.61580(8)
O3F O 0.47558(10) 0.03481(11) 0.65521(7)
O9C O 0.53106(15) -0.14605(16) 0.41427(9)
O10E O 0.38938(12) -0.04096(12) 0.60242(8)
O11B O 0.35295(14) 0.08879(14) 0.60361(10)
O12E O 0.39018(17) -0.14738(15) 0.41847(10)
loop_
_geom_bond_atom_site_label_1
_geom_bond_atom_site_label_2
_geom_bond_site_symmetry_1
_geom_bond_site_symmetry_2
Zn1 O7 1_555 1_555
Na1 O2 1_555 1_555
Na2 O2 1_555 1_555
C1 C2 1_555 1_555
C2 H1 1_555 1_555
C3 C2 1_555 1_555
C4 C3 1_555 1_555
H2 C4 1_555 1_555
C5 C4 1_555 1_555
C6 C1 1_555 1_555
H3 C6 1_555 1_555
C7 C8 1_555 1_555
C8 H4 1_555 1_555
C9 C8 1_555 1_555
C10 C9 1_555 1_555
H5 C10 1_555 1_555
C11 C10 1_555 1_555
C12 C7 1_555 1_555
H6 C12 1_555 1_555
C13 C11 1_555 1_555
C14 C7 1_555 1_555
C15 C5 1_555 1_555
C16 C1 1_555 1_555
C17 N1 1_555 1_555
C18 N3 1_555 1_555
C19 N2 1_555 1_555
C20 C21 1_555 1_555
C21 C22 1_555 1_555
C22 H7 1_555 1_555
C23 C22 1_555 1_555
C24 C21 1_555 1_555
H8 C24 1_555 1_555
C25 C23 1_555 1_555
H9 C25 1_555 1_555
C26 C24 1_555 1_555
C27 C23 1_555 1_555
N1 C3 1_555 1_555
H10 N1 1_555 1_555
N2 C17 1_555 1_555
N3 C17 1_555 1_555
N4 C9 1_555 1_555
H11 N4 1_555 1_555
N5 C18 1_555 1_555
N6 C19 1_555 1_555
H12 N6 1_555 1_555
O1 C13 1_555 1_555
O3 Na2 1_555 1_555
O4 Na1 1_555 1_555
H13 O4 1_555 1_555
O5 C14 1_555 1_555
O6 Na1 1_555 1_555
O7 Na1 1_555 1_555
O8 Na2 1_555 1_555
H14 O8 1_555 1_555
O9 C15 1_555 1_555
O10 C15 1_555 1_555
O11 C20 1_555 1_555
O12 C20 1_555 1_555
O13 C16 1_555 1_555
O14 C16 1_555 1_555
O15 C27 1_555 1_555
O16 C27 1_555 1_555
Zn1B O11 1_555 1_555
Zn1E O10 1_555 1_555
Zn1G O3 1_555 1_555
Na1E O10 1_555 1_555
Na1G O1 1_555 1_555
Na2C O9 1_555 1_555
Na2E O12 1_555 1_555
O1F Na1 1_555 1_555
O3F Zn1 1_555 1_555
O9C Na2 1_555 1_555
O10E Zn1 1_555 1_555
O11B Zn1 1_555 1_555
O12E Na2 1_555 1_555
Na1 O10E 1_555 1_555
Na2 O6 1_555 1_555
C5 C6 1_555 1_555
C11 C12 1_555 1_555
C13 O3 1_555 1_555
C14 O7 1_555 1_555
C18 N4 1_555 1_555
C19 N5 1_555 1_555
C25 C26 1_555 1_555
C26 N6 1_555 1_555

#END
