
#######################################################################
#
#                 Cambridge Crystallographic Data Centre
#                                CCDC 
#
#######################################################################
#
# If this CIF has been generated from an entry in the Cambridge 
# Structural Database, then it will include bibliographic, chemical, 
# crystal, experimental, refinement or atomic coordinate data resulting 
# from the CCDC's data processing and validation procedures.
#
#######################################################################

data_ZEZGAO
_symmetry_cell_setting           triclinic
_symmetry_space_group_name_H-M   'P -1'
_symmetry_Int_Tables_number      2
_space_group_name_Hall           '-P 1'
loop_
_symmetry_equiv_pos_site_id
_symmetry_equiv_pos_as_xyz
1 x,y,z
2 -x,-y,-z
_cell_length_a                   6.4307(13)
_cell_length_b                   6.8381(14)
_cell_length_c                   15.023(3)
_cell_angle_alpha                81.520(3)
_cell_angle_beta                 82.013(4)
_cell_angle_gamma                62.680(3)
_cell_volume                     578.602
loop_
_atom_site_label
_atom_site_type_symbol
_atom_site_fract_x
_atom_site_fract_y
_atom_site_fract_z
Co1 Co 0.21854(19) 0.71741(18) 0.29409(7)
Co2 Co 0.0000 0.5000 0.5000
Co3 Co 0.0000 1.0000 0.5000
O1 O 0.1124(8) 0.7243(8) 0.4321(3)
O2 O 0.3353(12) 0.7193(12) 0.1630(4)
O3 O 0.7016(11) 0.6610(12) 0.1797(4)
O4 O -0.3075(9) 0.6893(9) 0.4466(4)
H1 H -0.2822 0.7596 0.3982
H2 H -0.3589 0.6047 0.4322
O5 O 0.5565(11) 0.5356(10) 0.3369(4)
H3 H 0.5748 0.4119 0.3648
H4 H 0.6566 0.5188 0.2917
O6 O -0.1376(10) 0.8751(10) 0.2786(4)
H5 H -0.2000 0.9129 0.2286
H6 H -0.2067 0.9791 0.3128
O7 O -0.3184(10) 1.1359(9) 0.4418(4)
H7 H -0.3538 1.0323 0.4377
H8 H -0.4236 1.2231 0.4774
N1 N 0.7945(12) 0.6169(11) -0.3011(4)
N2 N 0.8663(12) 0.6772(11) -0.3842(4)
N3 N 0.8660(12) 0.8692(11) -0.3849(4)
N4 N 0.7912(12) 0.9433(11) -0.3025(4)
C1 C 0.5366(16) 0.7040(14) 0.1321(6)
C2 C 0.5882(15) 0.7339(13) 0.0324(5)
C3 C 0.4280(16) 0.7513(13) -0.0273(6)
H9 H 0.2869 0.7496 -0.0043
C4 C 0.4785(15) 0.7708(14) -0.1193(6)
H10 H 0.3731 0.7798 -0.1581
C5 C 0.6871(15) 0.7771(14) -0.1539(5)
C6 C 0.8400(16) 0.7666(16) -0.0954(6)
H11 H 0.9774 0.7755 -0.1189
C7 C 0.7940(13) 0.7429(15) -0.0019(6)
H12 H 0.9004 0.7334 0.0366
C8 C 0.7563(13) 0.7813(14) -0.2525(5)
Co1A Co -0.21854(19) 0.28259(18) 0.70591(7)
O1A O -0.1124(8) 0.2757(8) 0.5679(3)
O2A O -0.3353(12) 0.2807(12) 0.8370(4)
O3A O -0.7016(11) 0.3390(12) 0.8203(4)
O4A O 0.3075(9) 0.3107(9) 0.5534(4)
H1A H 0.2822 0.2404 0.6018
H2A H 0.3589 0.3953 0.5678
O5A O -0.5565(11) 0.4644(10) 0.6631(4)
H3A H -0.5748 0.5881 0.6352
H4A H -0.6566 0.4812 0.7083
O6A O 0.1376(10) 0.1249(10) 0.7214(4)
H5A H 0.2000 0.0871 0.7714
H6A H 0.2067 0.0209 0.6872
N1A N -0.7945(12) 0.3831(11) 1.3011(4)
N2A N -0.8663(12) 0.3228(11) 1.3842(4)
N3A N -0.8660(12) 0.1308(11) 1.3849(4)
N4A N -0.7912(12) 0.0567(11) 1.3025(4)
C1A C -0.5366(16) 0.2960(14) 0.8679(6)
C2A C -0.5882(15) 0.2661(13) 0.9676(5)
C3A C -0.4280(16) 0.2487(13) 1.0273(6)
H9A H -0.2869 0.2504 1.0043
C4A C -0.4785(15) 0.2292(14) 1.1193(6)
H10A H -0.3731 0.2202 1.1581
C5A C -0.6871(15) 0.2229(14) 1.1539(5)
C6A C -0.8400(16) 0.2334(16) 1.0954(6)
H11A H -0.9774 0.2245 1.1189
C7A C -0.7940(13) 0.2571(15) 1.0019(6)
H12A H -0.9004 0.2666 0.9634
C8A C -0.7563(13) 0.2187(14) 1.2525(5)
O7A O 0.3184(10) 0.8641(9) 0.5582(4)
H7A H 0.3538 0.9677 0.5623
H8A H 0.4236 0.7769 0.5226
Co1_2 Co -0.78146(19) -0.28259(18) 1.29409(7)
Co1_3 Co -0.78146(19) 0.71741(18) 1.29409(7)
Co1A_2 Co 0.78146(19) 0.28259(18) -0.29409(7)
Co1A_3 Co 0.78146(19) 1.28259(18) -0.29409(7)
Co2_2 Co -1.0000 0.5000 1.5000
Co2_3 Co 1.0000 0.5000 -0.5000
Co3_2 Co -1.0000 0.0000 1.5000
Co3_3 Co 0.0000 0.0000 0.5000
Co3_4 Co 1.0000 1.0000 -0.5000
O1A_2 O -0.1124(8) 1.2757(8) 0.5679(3)
N1_2 N -0.2055(12) 0.6169(11) 0.6989(4)
N1A_2 N 0.2055(12) 0.3831(11) 0.3011(4)
N2_2 N -0.1337(12) 0.6772(11) 0.6158(4)
N2A_2 N 0.1337(12) 0.3228(11) 0.3842(4)
N3_2 N -0.1340(12) 0.8692(11) 0.6151(4)
N3A_2 N 0.1340(12) 1.1308(11) 0.3849(4)
N4_2 N -0.2088(12) -0.0567(11) 0.6975(4)
N4A_2 N 0.2088(12) 1.0567(11) 0.3025(4)
loop_
_geom_bond_atom_site_label_1
_geom_bond_atom_site_label_2
_geom_bond_site_symmetry_1
_geom_bond_site_symmetry_2
Co1 O1 1_555 1_555
Co2 O1 1_555 1_555
Co3 O1 1_555 1_555
O2 Co1 1_555 1_555
O3 C1 1_555 1_555
O4 Co2 1_555 1_555
H1 O4 1_555 1_555
H2 O4 1_555 1_555
O5 Co1 1_555 1_555
H3 O5 1_555 1_555
H4 O5 1_555 1_555
O6 Co1 1_555 1_555
H5 O6 1_555 1_555
H6 O6 1_555 1_555
O7 Co3 1_555 1_555
H7 O7 1_555 1_555
H8 O7 1_555 1_555
N1 N2 1_555 1_555
N2 N3 1_555 1_555
N3 N4 1_555 1_555
N4 C8 1_555 1_555
C1 O2 1_555 1_555
C2 C1 1_555 1_555
C3 C2 1_555 1_555
H9 C3 1_555 1_555
C4 C3 1_555 1_555
H10 C4 1_555 1_555
C5 C4 1_555 1_555
C6 C5 1_555 1_555
H11 C6 1_555 1_555
C7 C2 1_555 1_555
H12 C7 1_555 1_555
C8 N1 1_555 1_555
Co1A O1A 1_555 1_555
O1A Co2 1_555 1_555
O2A Co1A 1_555 1_555
O3A C1A 1_555 1_555
O4A Co2 1_555 1_555
H1A O4A 1_555 1_555
H2A O4A 1_555 1_555
O5A Co1A 1_555 1_555
H3A O5A 1_555 1_555
H4A O5A 1_555 1_555
O6A Co1A 1_555 1_555
H5A O6A 1_555 1_555
H6A O6A 1_555 1_555
N1A N2A 1_555 1_555
N2A N3A 1_555 1_555
N3A N4A 1_555 1_555
N4A C8A 1_555 1_555
C1A O2A 1_555 1_555
C2A C1A 1_555 1_555
C3A C2A 1_555 1_555
H9A C3A 1_555 1_555
C4A C3A 1_555 1_555
H10A C4A 1_555 1_555
C5A C4A 1_555 1_555
C6A C5A 1_555 1_555
H11A C6A 1_555 1_555
C7A C2A 1_555 1_555
H12A C7A 1_555 1_555
C8A N1A 1_555 1_555
O7A Co3 1_555 1_555
H7A O7A 1_555 1_555
H8A O7A 1_555 1_555
Co1_2 N4A 1_555 1_555
Co1_3 N1A 1_555 1_555
Co1A_2 N1 1_555 1_555
Co1A_3 N4 1_555 1_555
Co2_2 N2A 1_555 1_555
Co2_3 N2 1_555 1_555
Co3_2 N3A 1_555 1_555
Co3_3 O1A 1_555 1_555
Co3_4 N3 1_555 1_555
O1A_2 Co3 1_555 1_555
N1_2 Co1A 1_555 1_555
N1A_2 Co1 1_555 1_555
N2_2 Co2 1_555 1_555
N2A_2 Co2 1_555 1_555
N3_2 Co3 1_555 1_555
N3A_2 Co3 1_555 1_555
N4_2 Co1A 1_555 1_555
N4A_2 Co1 1_555 1_555
C5 C8 1_555 1_555
C6 C7 1_555 1_555
C5A C8A 1_555 1_555
C6A C7A 1_555 1_555
N1_2 N2_2 1_555 1_555
N1A_2 N2A_2 1_555 1_555
N2_2 N3_2 1_555 1_555
N3A_2 N4A_2 1_555 1_555

#END
