
#######################################################################
#
#                 Cambridge Crystallographic Data Centre
#                                CCDC 
#
#######################################################################
#
# If this CIF has been generated from an entry in the Cambridge 
# Structural Database, then it will include bibliographic, chemical, 
# crystal, experimental, refinement or atomic coordinate data resulting 
# from the CCDC's data processing and validation procedures.
#
#######################################################################

data_ZEZGOA
_symmetry_cell_setting           orthorhombic
_symmetry_space_group_name_H-M   'C c c m'
_symmetry_Int_Tables_number      66
_space_group_name_Hall           '-C 2 2n'
loop_
_symmetry_equiv_pos_site_id
_symmetry_equiv_pos_as_xyz
1 x,y,z
2 -x,-y,z
3 x,-y,1/2-z
4 -x,y,1/2-z
5 1/2+x,1/2+y,z
6 1/2-x,1/2-y,z
7 1/2+x,1/2-y,1/2-z
8 1/2-x,1/2+y,1/2-z
9 -x,-y,-z
10 x,y,-z
11 -x,y,1/2+z
12 x,-y,1/2+z
13 1/2-x,1/2-y,-z
14 1/2+x,1/2+y,-z
15 1/2-x,1/2+y,1/2+z
16 1/2+x,1/2-y,1/2+z
_cell_length_a                   9.268(4)
_cell_length_b                   13.408(4)
_cell_length_c                   13.433(4)
_cell_angle_alpha                90
_cell_angle_beta                 90
_cell_angle_gamma                90
_cell_volume                     1669.26
loop_
_atom_site_label
_atom_site_type_symbol
_atom_site_fract_x
_atom_site_fract_y
_atom_site_fract_z
Zn1 Zn -0.5000 0.5000 -0.2500
Zn2 Zn -0.2500 0.2500 -0.5000
N1 N -0.6765(4) 0.6474(3) -0.3872(3)
N2 N -0.0393(5) 0.3176(4) -0.5000
C1 C -0.6181(4) 0.5918(3) -0.3370(3)
C2 C 0.0286(6) 0.3384(4) -0.4163(4)
C3 C 0.1648(6) 0.3787(5) -0.4127(5)
C4 C 0.2310(10) 0.3960(7) -0.5000
Zn2A Zn -0.7500 0.7500 -0.5000
C1A C -0.3819(4) 0.4082(3) -0.3370(3)
N1A N -0.3235(4) 0.3526(3) -0.3872(3)
N1D N -0.1765(4) 0.1474(3) -0.3872(3)
N1H N -0.3235(4) 0.3526(3) -0.6128(3)
N1M N -0.1765(4) 0.1474(3) -0.6128(3)
C3I C 0.1648(6) 0.3787(5) -0.5873(5)
C2I C 0.0286(6) 0.3384(4) -0.5837(4)
N2E N -0.4607(5) 0.1824(4) -0.5000
C2E C -0.5286(6) 0.1616(4) -0.4163(4)
C3E C -0.6648(6) 0.1213(5) -0.4127(5)
C4E C -0.7310(10) 0.1040(7) -0.5000
C3L C -0.6648(6) 0.1213(5) -0.5873(5)
C2L C -0.5286(6) 0.1616(4) -0.5837(4)
C1B C -0.6181(4) 0.4082(3) -0.1630(3)
N1B N -0.6765(4) 0.3526(3) -0.1128(3)
Zn2C Zn -0.7500 0.2500 0.0000
C1C C -0.3819(4) 0.5918(3) -0.1630(3)
N1C N -0.3235(4) 0.6474(3) -0.1128(3)
Zn2B Zn -0.2500 0.7500 0.0000
loop_
_geom_bond_atom_site_label_1
_geom_bond_atom_site_label_2
_geom_bond_site_symmetry_1
_geom_bond_site_symmetry_2
Zn1 C1 1_555 1_555
Zn2 N2 1_555 1_555
N1 C1 1_555 1_555
N2 C2 1_555 1_555
C2 C3 1_555 1_555
C3 C4 1_555 1_555
C4 C3I 1_555 1_555
Zn2A N1 1_555 1_555
C1A Zn1 1_555 1_555
N1A Zn2 1_555 1_555
N1D Zn2 1_555 1_555
N1H Zn2 1_555 1_555
N1M Zn2 1_555 1_555
C3I C2I 1_555 1_555
C2I N2 1_555 1_555
N2E Zn2 1_555 1_555
C2E N2E 1_555 1_555
C3E C2E 1_555 1_555
C4E C3E 1_555 1_555
C3L C4E 1_555 1_555
C2L N2E 1_555 1_555
C1B Zn1 1_555 1_555
N1B C1B 1_555 1_555
Zn2C N1B 1_555 1_555
C1C Zn1 1_555 1_555
N1C C1C 1_555 1_555
Zn2B N1C 1_555 1_555
C1A N1A 1_555 1_555
C3L C2L 1_555 1_555

#END
