
#######################################################################
#
#                 Cambridge Crystallographic Data Centre
#                                CCDC 
#
#######################################################################
#
# If this CIF has been generated from an entry in the Cambridge 
# Structural Database, then it will include bibliographic, chemical, 
# crystal, experimental, refinement or atomic coordinate data resulting 
# from the CCDC's data processing and validation procedures.
#
#######################################################################

data_ZEZPOL
_symmetry_cell_setting           triclinic
_symmetry_space_group_name_H-M   'P -1'
_symmetry_Int_Tables_number      2
_space_group_name_Hall           '-P 1'
loop_
_symmetry_equiv_pos_site_id
_symmetry_equiv_pos_as_xyz
1 x,y,z
2 -x,-y,-z
_cell_length_a                   9.2236(12)
_cell_length_b                   10.3657(13)
_cell_length_c                   12.8839(18)
_cell_angle_alpha                75.576(11)
_cell_angle_beta                 69.469(13)
_cell_angle_gamma                86.168(10)
_cell_volume                     1116.93
loop_
_atom_site_label
_atom_site_type_symbol
_atom_site_fract_x
_atom_site_fract_y
_atom_site_fract_z
Eu1 Eu 1.04426(6) 0.24917(5) 0.00197(4)
C1 C 0.8631(13) 0.4453(10) 0.1849(9)
C2 C 0.5664(14) 0.4603(11) 0.4747(9)
C3 C 0.6493(12) 0.4939(10) 0.3569(8)
H1 H 0.6227 0.5677 0.3095
C4 C 0.7731(13) 0.4145(11) 0.3118(9)
C5 C 0.8111(16) 0.3085(14) 0.3848(11)
H2 H 0.8934 0.2546 0.3577
C6 C 0.723(2) 0.2841(15) 0.5000(11)
H3 H 0.7503 0.2125 0.5493
C7 C 1.0099(13) -0.0559(11) 0.1696(8)
C8 C 0.9688(12) -0.0398(10) 0.4704(8)
C9 C 1.0131(12) -0.0085(10) 0.3525(8)
H4 H 1.0776 0.0651 0.3088
C10 C 0.9605(14) -0.0880(11) 0.2998(9)
C11 C 0.8613(16) -0.1939(12) 0.3683(10)
H5 H 0.8224 -0.2484 0.3362
C12 C 0.8210(16) -0.2172(13) 0.4853(10)
H6 H 0.7531 -0.2881 0.5307
C13 C 0.6815(14) 0.1039(12) 0.1224(12)
H7 H 0.6791 0.1062 0.0504
C14 C 0.4245(17) 0.0091(17) 0.1950(18)
H8 H 0.4392 0.0273 0.1151
H9 H 0.3335 0.0527 0.2331
H10 H 0.4124 -0.0853 0.2272
C15 C 0.552(2) 0.052(2) 0.3235(15)
H11 H 0.6445 0.0916 0.3221
H12 H 0.5435 -0.0396 0.3651
H13 H 0.4637 0.0991 0.3601
C16 C 0.7639(14) 0.4420(11) -0.0891(11)
H14 H 0.7070 0.4774 -0.0276
C17 C 0.812(3) 0.427(2) -0.2787(15)
H15 H 0.8616 0.3467 -0.2542
H16 H 0.8879 0.4894 -0.3367
H17 H 0.7371 0.4066 -0.3090
C18 C 0.6133(17) 0.5796(15) -0.1957(12)
H18 H 0.5350 0.5369 -0.2095
H19 H 0.6575 0.6543 -0.2586
H20 H 0.5679 0.6097 -0.1268
N1 N 0.6027(14) 0.3564(12) 0.5454(8)
N2 N 0.8739(12) -0.1434(9) 0.5375(7)
N3 N 0.5611(12) 0.0594(11) 0.2096(10)
N4 N 0.7357(13) 0.4837(10) -0.1836(10)
N5 N 1.3764(14) 0.2395(11) -0.0475(11)
O1 O 0.8323(9) 0.5494(8) 0.1245(6)
O2 O 0.9630(9) 0.3625(7) 0.1490(6)
O3 O 1.0936(9) 0.0455(7) 0.1143(6)
O4 O 0.9633(12) -0.1356(8) 0.1302(7)
O5 O 0.8045(9) 0.1454(8) 0.1291(7)
O6 O 0.8599(14) 0.3595(9) -0.0757(10)
O7 O 1.2871(11) 0.2789(8) 0.0383(8)
O8 O 1.3197(10) 0.1973(8) -0.1069(8)
O9 O 1.5180(12) 0.2431(13) -0.0679(13)
C1A C 0.1369(13) 0.5547(10) 0.8151(9)
C2A C 0.4336(14) 0.5397(11) 0.5253(9)
C3A C 0.3507(12) 0.5061(10) 0.6431(8)
H1A H 0.3773 0.4323 0.6905
C4A C 0.2269(13) 0.5855(11) 0.6882(9)
C5A C 0.1889(16) 0.6915(14) 0.6152(11)
H2A H 0.1066 0.7454 0.6423
C6A C 0.277(2) 0.7159(15) 0.5000(11)
H3A H 0.2497 0.7875 0.4507
N1A N 0.3973(14) 0.6436(12) 0.4546(8)
O1A O 0.1677(9) 0.4506(8) 0.8755(6)
O2A O 0.0370(9) 0.6375(7) 0.8510(6)
C7A C 0.9901(13) 0.0559(11) 0.8304(8)
C8A C 1.0312(12) 0.0398(10) 0.5296(8)
C9A C 0.9869(12) 0.0085(10) 0.6475(8)
H4A H 0.9224 -0.0651 0.6912
C10A C 1.0395(14) 0.0880(11) 0.7002(9)
C11A C 1.1387(16) 0.1939(12) 0.6317(10)
H5A H 1.1776 0.2484 0.6638
C12A C 1.1790(16) 0.2172(13) 0.5147(10)
H6A H 1.2469 0.2881 0.4693
N2A N 1.1261(12) 0.1434(9) 0.4625(7)
O3A O 0.9064(9) -0.0455(7) 0.8857(6)
O4A O 1.0367(12) 0.1356(8) 0.8698(7)
Eu1A Eu -0.04426(6) 0.75083(5) 0.99803(4)
C13A C 0.3185(14) 0.8961(12) 0.8776(12)
H7A H 0.3209 0.8938 0.9496
C14A C 0.5755(17) 0.9909(17) 0.8050(18)
H8A H 0.5608 0.9727 0.8849
H9A H 0.6665 0.9473 0.7669
H10A H 0.5876 1.0853 0.7728
C15A C 0.448(2) 0.948(2) 0.6765(15)
H11A H 0.3555 0.9084 0.6779
H12A H 0.4565 1.0396 0.6349
H13A H 0.5363 0.9009 0.6399
C16A C 0.2361(14) 0.5580(11) 1.0891(11)
H14A H 0.2930 0.5226 1.0276
C17A C 0.188(3) 0.573(2) 1.2787(15)
H15A H 0.1384 0.6533 1.2542
H16A H 0.1121 0.5106 1.3367
H17A H 0.2629 0.5934 1.3090
C18A C 0.3867(17) 0.4204(15) 1.1957(12)
H18A H 0.4650 0.4631 1.2095
H19A H 0.3425 0.3457 1.2586
H20A H 0.4321 0.3903 1.1268
N3A N 0.4389(12) 0.9406(11) 0.7904(10)
N4A N 0.2643(13) 0.5163(10) 1.1836(10)
N5A N -0.3764(14) 0.7605(11) 1.0475(11)
O5A O 0.1955(9) 0.8546(8) 0.8709(7)
O6A O 0.1401(14) 0.6405(9) 1.0757(10)
O7A O -0.2871(11) 0.7211(8) 0.9617(8)
O8A O -0.3197(10) 0.8027(8) 1.1069(8)
O9A O -0.5180(12) 0.7569(13) 1.0679(13)
Eu1_2 Eu 0.04426(6) 0.24917(5) 1.00197(4)
Eu1_3 Eu 1.04426(6) 0.24917(5) 1.00197(4)
Eu1A_2 Eu 0.95574(6) -0.24917(5) -0.00197(4)
Eu1A_3 Eu 0.95574(6) -0.24917(5) 0.99803(4)
Eu1A_4 Eu 0.95574(6) 0.75083(5) -0.00197(4)
O1_2 O -0.1677(9) 0.5494(8) 1.1245(6)
O1A_2 O 1.1677(9) 0.4506(8) -0.1245(6)
O3A_2 O -0.0936(9) 0.9545(7) 0.8857(6)
O4_2 O -0.0367(12) 0.8644(8) 1.1302(7)
O4A_2 O 1.0367(12) 0.1356(8) -0.1302(7)
loop_
_geom_bond_atom_site_label_1
_geom_bond_atom_site_label_2
_geom_bond_site_symmetry_1
_geom_bond_site_symmetry_2
Eu1 O2 1_555 1_555
C1 C4 1_555 1_555
C2 C3 1_555 1_555
C3 H1 1_555 1_555
C4 C3 1_555 1_555
C5 C4 1_555 1_555
H2 C5 1_555 1_555
C6 C5 1_555 1_555
H3 C6 1_555 1_555
C7 C10 1_555 1_555
C8 C9 1_555 1_555
C9 H4 1_555 1_555
C10 C9 1_555 1_555
C11 C10 1_555 1_555
H5 C11 1_555 1_555
C12 C11 1_555 1_555
H6 C12 1_555 1_555
C13 H7 1_555 1_555
C14 H8 1_555 1_555
H9 C14 1_555 1_555
H10 C14 1_555 1_555
C15 H11 1_555 1_555
H12 C15 1_555 1_555
H13 C15 1_555 1_555
C16 H14 1_555 1_555
C17 H15 1_555 1_555
H16 C17 1_555 1_555
H17 C17 1_555 1_555
C18 H18 1_555 1_555
H19 C18 1_555 1_555
H20 C18 1_555 1_555
N1 C2 1_555 1_555
N2 C8 1_555 1_555
N3 C13 1_555 1_555
N4 C16 1_555 1_555
N5 O7 1_555 1_555
O1 C1 1_555 1_555
O2 C1 1_555 1_555
O3 Eu1 1_555 1_555
O4 C7 1_555 1_555
O5 Eu1 1_555 1_555
O6 Eu1 1_555 1_555
O7 Eu1 1_555 1_555
O8 Eu1 1_555 1_555
O9 N5 1_555 1_555
C1A C4A 1_555 1_555
C2A C2 1_555 1_555
C3A C2A 1_555 1_555
H1A C3A 1_555 1_555
C4A C3A 1_555 1_555
C5A C4A 1_555 1_555
H2A C5A 1_555 1_555
C6A C5A 1_555 1_555
H3A C6A 1_555 1_555
N1A C2A 1_555 1_555
O1A C1A 1_555 1_555
O2A C1A 1_555 1_555
C7A C10A 1_555 1_555
C8A C8 1_555 1_555
C9A C8A 1_555 1_555
H4A C9A 1_555 1_555
C10A C9A 1_555 1_555
C11A C10A 1_555 1_555
H5A C11A 1_555 1_555
C12A C11A 1_555 1_555
H6A C12A 1_555 1_555
N2A C8A 1_555 1_555
O3A C7A 1_555 1_555
O4A C7A 1_555 1_555
Eu1A O2A 1_555 1_555
C13A H7A 1_555 1_555
C14A H8A 1_555 1_555
H9A C14A 1_555 1_555
H10A C14A 1_555 1_555
C15A H11A 1_555 1_555
H12A C15A 1_555 1_555
H13A C15A 1_555 1_555
C16A H14A 1_555 1_555
C17A H15A 1_555 1_555
H16A C17A 1_555 1_555
H17A C17A 1_555 1_555
C18A H18A 1_555 1_555
H19A C18A 1_555 1_555
H20A C18A 1_555 1_555
N3A C13A 1_555 1_555
N4A C16A 1_555 1_555
N5A O7A 1_555 1_555
O5A Eu1A 1_555 1_555
O6A Eu1A 1_555 1_555
O7A Eu1A 1_555 1_555
O8A Eu1A 1_555 1_555
O9A N5A 1_555 1_555
Eu1_2 O1A 1_555 1_555
Eu1_3 O4A 1_555 1_555
Eu1A_2 O4 1_555 1_555
Eu1A_3 O3A 1_555 1_555
Eu1A_4 O1 1_555 1_555
O1_2 Eu1A 1_555 1_555
O1A_2 Eu1 1_555 1_555
O3A_2 Eu1A 1_555 1_555
O4_2 Eu1A 1_555 1_555
O4A_2 Eu1 1_555 1_555
C6 N1 1_555 1_555
C7 O3 1_555 1_555
C12 N2 1_555 1_555
C13 O5 1_555 1_555
C14 N3 1_555 1_555
C15 N3 1_555 1_555
C16 O6 1_555 1_555
C17 N4 1_555 1_555
C18 N4 1_555 1_555
N5 O8 1_555 1_555
C6A N1A 1_555 1_555
C12A N2A 1_555 1_555
C13A O5A 1_555 1_555
C14A N3A 1_555 1_555
C15A N3A 1_555 1_555
C16A O6A 1_555 1_555
C17A N4A 1_555 1_555
C18A N4A 1_555 1_555
N5A O8A 1_555 1_555

#END
