
#######################################################################
#
#                 Cambridge Crystallographic Data Centre
#                                CCDC 
#
#######################################################################
#
# If this CIF has been generated from an entry in the Cambridge 
# Structural Database, then it will include bibliographic, chemical, 
# crystal, experimental, refinement or atomic coordinate data resulting 
# from the CCDC's data processing and validation procedures.
#
#######################################################################

data_ZEZPUR
_symmetry_cell_setting           triclinic
_symmetry_space_group_name_H-M   'P -1'
_symmetry_Int_Tables_number      2
_space_group_name_Hall           '-P 1'
loop_
_symmetry_equiv_pos_site_id
_symmetry_equiv_pos_as_xyz
1 x,y,z
2 -x,-y,-z
_cell_length_a                   9.8856(16)
_cell_length_b                   11.6827(19)
_cell_length_c                   13.441(2)
_cell_angle_alpha                66.863(4)
_cell_angle_beta                 86.995(4)
_cell_angle_gamma                76.582(4)
_cell_volume                     1387.18
loop_
_atom_site_label
_atom_site_type_symbol
_atom_site_fract_x
_atom_site_fract_y
_atom_site_fract_z
Dy1 Dy 0.23669(6) 1.02614(5) 0.00426(4)
C1 C 0.2900(15) 0.7087(13) 0.1585(11)
C2 C 0.099(2) 0.6010(18) 0.4172(16)
H1 H 0.0128 0.6250 0.4432
C3 C 0.1210(15) 0.6695(14) 0.3121(12)
H2 H 0.0519 0.7369 0.2678
C4 C 0.2510(15) 0.6350(13) 0.2730(11)
C5 C 0.3495(15) 0.5341(14) 0.3425(12)
H3 H 0.4376 0.5099 0.3191
C6 C 0.3146(15) 0.4699(14) 0.4476(12)
C7 C 0.4197(14) 0.3579(14) 0.5267(11)
C8 C 0.3878(15) 0.2993(13) 0.6336(11)
H4 H 0.3012 0.3253 0.6582
C9 C 0.4885(14) 0.2011(13) 0.7022(11)
C10 C 0.6141(16) 0.1648(15) 0.6618(13)
H5 H 0.6837 0.0988 0.7068
C11 C 0.6359(18) 0.2280(17) 0.5527(14)
H6 H 0.7216 0.2040 0.5258
C12 C 0.4660(14) 0.1326(12) 0.8197(10)
C13 C 0.0146(14) 0.9942(13) -0.1734(10)
C14 C 0.229(2) 1.067(2) -0.4223(16)
H7 H 0.3122 1.0919 -0.4435
C15 C 0.1903(18) 1.0503(18) -0.3184(14)
H8 H 0.2445 1.0653 -0.2723
C16 C 0.0664(15) 1.0106(14) -0.2848(11)
C17 C -0.0101(15) 0.9925(14) -0.3586(11)
H9 H -0.0937 0.9675 -0.3398
C18 C 0.0392(15) 1.0120(15) -0.4600(11)
C19 C 0.273(2) 1.2083(19) 0.1366(17)
H10 H 0.2272 1.1529 0.1891
C20 C 0.373(4) 1.388(3) 0.081(3)
H11 H 0.4662 1.3762 0.1059
H12 H 0.3204 1.4722 0.0720
H13 H 0.3737 1.3783 0.0137
C21 C 0.290(4) 1.297(4) 0.268(3)
H14 H 0.2384 1.3806 0.2617
H15 H 0.3801 1.2798 0.3025
H16 H 0.2412 1.2342 0.3116
N1 N 0.1904(15) 0.5030(15) 0.4858(12)
N2 N 0.5373(14) 0.3228(13) 0.4845(10)
N3 N 0.1599(16) 1.0495(16) -0.4939(12)
N4 N 0.308(2) 1.2939(18) 0.1606(16)
O1 O 0.3963(12) 0.6638(11) 0.1235(9)
O2 O 0.2028(10) 0.8158(9) 0.1073(8)
O3 O 0.5692(10) 0.0585(10) 0.8788(8)
O4 O 0.3452(10) 0.1459(10) 0.8501(8)
O5 O -0.1040(10) 0.9730(10) -0.1556(8)
O6 O 0.0905(10) 1.0037(9) -0.1083(7)
O7 O 0.0534(11) 1.2154(10) -0.0626(8)
H17 H -0.0167 1.2314 -0.0268
H18 H 0.0241 1.2061 -0.1167
O8 O 0.3925(11) 0.8763(10) -0.0611(8)
H19 H 0.4795 0.8451 -0.0592
H20 H 0.3529 0.8143 -0.0327
O9 O 0.2929(11) 1.1919(10) 0.0521(9)
C13A C -0.0146(14) 1.0058(13) -0.8266(10)
C14A C -0.229(2) 0.933(2) -0.5777(16)
H7A H -0.3122 0.9081 -0.5565
C15A C -0.1903(18) 0.9497(18) -0.6816(14)
H8A H -0.2445 0.9347 -0.7277
C16A C -0.0664(15) 0.9894(14) -0.7152(11)
C17A C 0.0101(15) 1.0075(14) -0.6414(11)
H9A H 0.0937 1.0325 -0.6602
C18A C -0.0392(15) 0.9880(15) -0.5400(11)
N3A N -0.1599(16) 0.9505(16) -0.5061(12)
O5A O 0.1040(10) 1.0270(10) -0.8444(8)
O6A O -0.0905(10) 0.9963(9) -0.8917(7)
Dy1A Dy -0.23669(6) 0.97386(5) -1.00426(4)
C1A C -0.2900(15) 1.2913(13) -1.1585(11)
C2A C -0.099(2) 1.3990(18) -1.4172(16)
H1A H -0.0128 1.3750 -1.4432
C3A C -0.1210(15) 1.3305(14) -1.3121(12)
H2A H -0.0519 1.2631 -1.2678
C4A C -0.2510(15) 1.3650(13) -1.2730(11)
C5A C -0.3495(15) 1.4659(14) -1.3425(12)
H3A H -0.4376 1.4901 -1.3191
C6A C -0.3146(15) 1.5301(14) -1.4476(12)
C7A C -0.4197(14) 1.6421(14) -1.5267(11)
C8A C -0.3878(15) 1.7007(13) -1.6336(11)
H4A H -0.3012 1.6747 -1.6582
C9A C -0.4885(14) 1.7989(13) -1.7022(11)
C10A C -0.6141(16) 1.8352(15) -1.6618(13)
H5A H -0.6837 1.9012 -1.7068
C11A C -0.6359(18) 1.7720(17) -1.5527(14)
H6A H -0.7216 1.7960 -1.5258
C12A C -0.4660(14) 1.8674(12) -1.8197(10)
C19A C -0.273(2) 0.7917(19) -1.1366(17)
H10A H -0.2272 0.8471 -1.1891
C20A C -0.373(4) 0.612(3) -1.081(3)
H11A H -0.4662 0.6238 -1.1059
H12A H -0.3204 0.5278 -1.0720
H13A H -0.3737 0.6217 -1.0137
C21A C -0.290(4) 0.703(4) -1.268(3)
H14A H -0.2384 0.6194 -1.2617
H15A H -0.3801 0.7202 -1.3025
H16A H -0.2412 0.7658 -1.3116
N1A N -0.1904(15) 1.4970(15) -1.4858(12)
N2A N -0.5373(14) 1.6772(13) -1.4845(10)
N4A N -0.308(2) 0.7061(18) -1.1606(16)
O1A O -0.3963(12) 1.3362(11) -1.1235(9)
O2A O -0.2028(10) 1.1842(9) -1.1073(8)
O3A O -0.5692(10) 1.9415(10) -1.8788(8)
O4A O -0.3452(10) 1.8541(10) -1.8501(8)
O7A O -0.0534(11) 0.7846(10) -0.9374(8)
H17A H 0.0167 0.7686 -0.9732
H18A H -0.0241 0.7939 -0.8833
O8A O -0.3925(11) 1.1237(10) -0.9389(8)
H19A H -0.4795 1.1549 -0.9408
H20A H -0.3529 1.1857 -0.9673
O9A O -0.2929(11) 0.8081(10) -1.0521(9)
Dy1_2 Dy -0.76331(6) 2.02614(5) -1.99574(4)
Dy1_3 Dy 0.23669(6) 0.02614(5) 1.00426(4)
Dy1_4 Dy 0.23669(6) 1.02614(5) -0.99574(4)
Dy1A_2 Dy -0.23669(6) 0.97386(5) -0.00426(4)
Dy1A_3 Dy -0.23669(6) 1.97386(5) -2.00426(4)
Dy1A_4 Dy 0.76331(6) -0.02614(5) 0.99574(4)
O3_2 O -0.4308(10) 1.0585(10) -1.1212(8)
O3A_2 O 0.4308(10) 0.9415(10) 0.1212(8)
O4_2 O 0.3452(10) 1.1459(10) -0.1499(8)
O4A_2 O -0.3452(10) 0.8541(10) -0.8501(8)
O5_2 O -0.1040(10) 0.9730(10) -1.1556(8)
O5A_2 O 0.1040(10) 1.0270(10) 0.1556(8)
O10 O 0.171(3) 0.594(3) 0.809(2)
O11 O 0.947(3) 0.342(2) 0.077(2)
H21 H 0.9733 0.2933 0.1421
H22 H 0.8650 0.3853 0.0776
loop_
_geom_bond_atom_site_label_1
_geom_bond_atom_site_label_2
_geom_bond_site_symmetry_1
_geom_bond_site_symmetry_2
Dy1 O2 1_555 1_555
C1 C4 1_555 1_555
C2 H1 1_555 1_555
C3 C2 1_555 1_555
H2 C3 1_555 1_555
C4 C3 1_555 1_555
C5 C4 1_555 1_555
H3 C5 1_555 1_555
C6 C5 1_555 1_555
C7 C6 1_555 1_555
C8 C7 1_555 1_555
H4 C8 1_555 1_555
C9 C8 1_555 1_555
C10 C9 1_555 1_555
H5 C10 1_555 1_555
C11 C10 1_555 1_555
H6 C11 1_555 1_555
C12 C9 1_555 1_555
C13 C16 1_555 1_555
C14 H7 1_555 1_555
C15 C14 1_555 1_555
H8 C15 1_555 1_555
C16 C15 1_555 1_555
C17 C16 1_555 1_555
H9 C17 1_555 1_555
C18 C17 1_555 1_555
C19 H10 1_555 1_555
C20 H11 1_555 1_555
H12 C20 1_555 1_555
H13 C20 1_555 1_555
C21 H14 1_555 1_555
H15 C21 1_555 1_555
H16 C21 1_555 1_555
N1 C2 1_555 1_555
N2 C7 1_555 1_555
N3 C14 1_555 1_555
N4 C19 1_555 1_555
O1 C1 1_555 1_555
O2 C1 1_555 1_555
O3 C12 1_555 1_555
O4 C12 1_555 1_555
O5 C13 1_555 1_555
O6 Dy1 1_555 1_555
O7 Dy1 1_555 1_555
H17 O7 1_555 1_555
H18 O7 1_555 1_555
O8 Dy1 1_555 1_555
H19 O8 1_555 1_555
H20 O8 1_555 1_555
O9 Dy1 1_555 1_555
O11 H21 1_555 1_555
H22 O11 1_555 1_555
C13A C16A 1_555 1_555
C14A H7A 1_555 1_555
C15A C14A 1_555 1_555
H8A C15A 1_555 1_555
C16A C15A 1_555 1_555
C17A C16A 1_555 1_555
H9A C17A 1_555 1_555
C18A C18 1_555 1_555
N3A C14A 1_555 1_555
O5A C13A 1_555 1_555
O6A C13A 1_555 1_555
Dy1A O6A 1_555 1_555
C1A C4A 1_555 1_555
C2A H1A 1_555 1_555
C3A C2A 1_555 1_555
H2A C3A 1_555 1_555
C4A C3A 1_555 1_555
C5A C4A 1_555 1_555
H3A C5A 1_555 1_555
C6A C5A 1_555 1_555
C7A C6A 1_555 1_555
C8A C7A 1_555 1_555
H4A C8A 1_555 1_555
C9A C8A 1_555 1_555
C10A C9A 1_555 1_555
H5A C10A 1_555 1_555
C11A C10A 1_555 1_555
H6A C11A 1_555 1_555
C12A C9A 1_555 1_555
C19A H10A 1_555 1_555
C20A H11A 1_555 1_555
H12A C20A 1_555 1_555
H13A C20A 1_555 1_555
C21A H14A 1_555 1_555
H15A C21A 1_555 1_555
H16A C21A 1_555 1_555
N1A C2A 1_555 1_555
N2A C7A 1_555 1_555
N4A C19A 1_555 1_555
O1A C1A 1_555 1_555
O2A Dy1A 1_555 1_555
O3A C12A 1_555 1_555
O4A C12A 1_555 1_555
O7A Dy1A 1_555 1_555
H17A O7A 1_555 1_555
H18A O7A 1_555 1_555
O8A Dy1A 1_555 1_555
H19A O8A 1_555 1_555
H20A O8A 1_555 1_555
O9A Dy1A 1_555 1_555
Dy1_2 O3A 1_555 1_555
Dy1_3 O4 1_555 1_555
Dy1_4 O5A 1_555 1_555
Dy1A_2 O5 1_555 1_555
Dy1A_3 O4A 1_555 1_555
Dy1A_4 O3 1_555 1_555
O3_2 Dy1A 1_555 1_555
O3A_2 Dy1 1_555 1_555
O4_2 Dy1 1_555 1_555
O4A_2 Dy1A 1_555 1_555
O5_2 Dy1A 1_555 1_555
O5A_2 Dy1 1_555 1_555
C6 N1 1_555 1_555
C11 N2 1_555 1_555
C13 O6 1_555 1_555
C18 N3 1_555 1_555
C19 O9 1_555 1_555
C20 N4 1_555 1_555
C21 N4 1_555 1_555
C17A C18A 1_555 1_555
C18A N3A 1_555 1_555
C1A O2A 1_555 1_555
C6A N1A 1_555 1_555
C11A N2A 1_555 1_555
C19A O9A 1_555 1_555
C20A N4A 1_555 1_555
C21A N4A 1_555 1_555

#END
