
#######################################################################
#
#                 Cambridge Crystallographic Data Centre
#                                CCDC 
#
#######################################################################
#
# If this CIF has been generated from an entry in the Cambridge 
# Structural Database, then it will include bibliographic, chemical, 
# crystal, experimental, refinement or atomic coordinate data resulting 
# from the CCDC's data processing and validation procedures.
#
#######################################################################

data_ZEZQAY
_symmetry_cell_setting           triclinic
_symmetry_space_group_name_H-M   'P -1'
_symmetry_Int_Tables_number      2
_space_group_name_Hall           '-P 1'
loop_
_symmetry_equiv_pos_site_id
_symmetry_equiv_pos_as_xyz
1 x,y,z
2 -x,-y,-z
_cell_length_a                   9.964(19)
_cell_length_b                   11.57(3)
_cell_length_c                   13.32(2)
_cell_angle_alpha                67.70(8)
_cell_angle_beta                 87.18(4)
_cell_angle_gamma                76.68(7)
_cell_volume                     1381.26
loop_
_atom_site_label
_atom_site_type_symbol
_atom_site_fract_x
_atom_site_fract_y
_atom_site_fract_z
Tb1 Tb 0.23663(3) 0.52593(3) 0.00502(2)
C1 C 0.7119(8) -0.2096(7) 0.8411(6)
C2 C 0.9018(9) -0.1004(9) 0.5827(7)
H1 H 0.9878 -0.1244 0.5568
C3 C 0.8760(8) -0.1685(8) 0.6891(6)
H2 H 0.9439 -0.2354 0.7343
C4 C 0.7477(8) -0.1352(7) 0.7268(5)
C5 C 0.6504(8) -0.0332(7) 0.6566(5)
H3 H 0.5625 -0.0092 0.6797
C6 C 0.6857(8) 0.0315(7) 0.5531(5)
C7 C 0.5839(8) 0.1402(7) 0.4758(6)
C8 C 0.6105(7) 0.2002(7) 0.3669(5)
H4 H 0.6953 0.1737 0.3406
C9 C 0.5115(7) 0.2985(7) 0.2985(5)
C10 C 0.3851(8) 0.3359(8) 0.3391(6)
H5 H 0.3149 0.4004 0.2944
C11 C 0.3672(9) 0.2739(8) 0.4483(6)
H6 H 0.2844 0.3010 0.4770
C12 C 0.5343(7) 0.3683(6) 0.1799(5)
C13 C 0.2753(10) 0.7060(10) 0.1358(8)
H7 H 0.2350 0.6469 0.1893
C14 C 0.309(2) 0.7834(19) 0.2754(15)
H8 H 0.2164 0.8034 0.2969
H9 H 0.3591 0.8418 0.2829
H10 H 0.3538 0.6971 0.3206
C15 C 0.3652(18) 0.8906(12) 0.0809(12)
H11 H 0.4599 0.8793 0.1013
H12 H 0.3142 0.9741 0.0755
H13 H 0.3605 0.8830 0.0119
C16 C 0.0136(7) 0.4969(6) -0.1758(5)
C17 C 0.0392(8) 0.5101(8) -0.4593(5)
C18 C -0.0083(7) 0.4937(7) -0.3587(5)
H14 H -0.0911 0.4686 -0.3393
C19 C 0.0655(8) 0.5141(7) -0.2861(5)
C20 C 0.1855(9) 0.5542(9) -0.3192(6)
H15 H 0.2379 0.5707 -0.2725
C21 C 0.2273(10) 0.5696(11) -0.4239(7)
H16 H 0.3100 0.5944 -0.4448
N1 N 0.8088(7) -0.0016(7) 0.5150(5)
N2 N 0.4631(7) 0.1764(7) 0.5157(5)
N3 N 0.3081(10) 0.7957(9) 0.1601(8)
N4 N 0.1567(8) 0.5514(8) -0.4945(5)
O1 O 0.7958(5) -0.3146(5) 0.8934(4)
O2 O 0.6035(6) -0.1643(5) 0.8767(4)
O3 O 0.6560(5) 0.3523(5) 0.1495(4)
O4 O 0.4307(5) 0.4419(5) 0.1211(3)
O5 O -0.1048(5) 0.4743(5) -0.1570(3)
O6 O 0.0901(5) 0.5055(5) -0.1096(4)
O7 O 0.2922(5) 0.6938(5) 0.0527(4)
O8 O 0.0517(5) 0.7164(5) -0.0616(4)
H17 H -0.0040 0.7069 -0.1031
H18 H 0.0055 0.7265 -0.0089
O9 O 0.3933(5) 0.3749(5) -0.0603(4)
H19 H 0.4638 0.4016 -0.0593
H20 H 0.3903 0.3088 -0.0048
C16A C -0.0136(7) 0.5031(6) -0.8242(5)
C17A C -0.0392(8) 0.4899(8) -0.5407(5)
C18A C 0.0083(7) 0.5063(7) -0.6413(5)
H14A H 0.0911 0.5314 -0.6607
C19A C -0.0655(8) 0.4859(7) -0.7139(5)
C20A C -0.1855(9) 0.4458(9) -0.6808(6)
H15A H -0.2379 0.4293 -0.7275
C21A C -0.2273(10) 0.4304(11) -0.5761(7)
H16A H -0.3100 0.4056 -0.5552
N4A N -0.1567(8) 0.4486(8) -0.5055(5)
O5A O 0.1048(5) 0.5257(5) -0.8430(3)
O6A O -0.0901(5) 0.4945(5) -0.8904(4)
Tb1A Tb -0.23663(3) 0.47407(3) -1.00502(2)
C1A C -0.7119(8) 1.2096(7) -1.8411(6)
C2A C -0.9018(9) 1.1004(9) -1.5827(7)
H1A H -0.9878 1.1244 -1.5568
C3A C -0.8760(8) 1.1685(8) -1.6891(6)
H2A H -0.9439 1.2354 -1.7343
C4A C -0.7477(8) 1.1352(7) -1.7268(5)
C5A C -0.6504(8) 1.0332(7) -1.6566(5)
H3A H -0.5625 1.0092 -1.6797
C6A C -0.6857(8) 0.9685(7) -1.5531(5)
C7A C -0.5839(8) 0.8598(7) -1.4758(6)
C8A C -0.6105(7) 0.7998(7) -1.3669(5)
H4A H -0.6953 0.8263 -1.3406
C9A C -0.5115(7) 0.7015(7) -1.2985(5)
C10A C -0.3851(8) 0.6641(8) -1.3391(6)
H5A H -0.3149 0.5996 -1.2944
C11A C -0.3672(9) 0.7261(8) -1.4483(6)
H6A H -0.2844 0.6990 -1.4770
C12A C -0.5343(7) 0.6317(6) -1.1799(5)
C13A C -0.2753(10) 0.2940(10) -1.1358(8)
H7A H -0.2350 0.3531 -1.1893
C14A C -0.309(2) 0.2166(19) -1.2754(15)
H8A H -0.2164 0.1966 -1.2969
H9A H -0.3591 0.1582 -1.2829
H10A H -0.3538 0.3029 -1.3206
C15A C -0.3652(18) 0.1094(12) -1.0809(12)
H11A H -0.4599 0.1207 -1.1013
H12A H -0.3142 0.0259 -1.0755
H13A H -0.3605 0.1170 -1.0119
N1A N -0.8088(7) 1.0016(7) -1.5150(5)
N2A N -0.4631(7) 0.8236(7) -1.5157(5)
N3A N -0.3081(10) 0.2043(9) -1.1601(8)
O1A O -0.7958(5) 1.3146(5) -1.8934(4)
O2A O -0.6035(6) 1.1643(5) -1.8767(4)
O3A O -0.6560(5) 0.6477(5) -1.1495(4)
O4A O -0.4307(5) 0.5581(5) -1.1211(3)
O7A O -0.2922(5) 0.3062(5) -1.0527(4)
O8A O -0.0517(5) 0.2836(5) -0.9384(4)
H17A H 0.0040 0.2931 -0.8969
H18A H -0.0055 0.2735 -0.9911
O9A O -0.3933(5) 0.6251(5) -0.9397(4)
H19A H -0.4638 0.5984 -0.9407
H20A H -0.3903 0.6912 -0.9952
Tb1_2 Tb -0.76337(3) 0.52593(3) -0.99498(2)
Tb1_3 Tb -0.76337(3) 1.52593(3) -1.99498(2)
Tb1_4 Tb 0.23663(3) 0.52593(3) -0.99498(2)
Tb1A_2 Tb -0.23663(3) 0.47407(3) -0.00502(2)
Tb1A_3 Tb 0.76337(3) -0.52593(3) 0.99498(2)
Tb1A_4 Tb 0.76337(3) 0.47407(3) -0.00502(2)
O1_2 O -0.2042(5) 0.6854(5) -1.1066(4)
O1A_2 O 0.2042(5) 0.3146(5) 0.1066(4)
O3_2 O -0.3440(5) 0.3523(5) -0.8505(4)
O3A_2 O 0.3440(5) 0.6477(5) -0.1495(4)
O5_2 O -0.1048(5) 0.4743(5) -1.1570(3)
O5A_2 O 0.1048(5) 0.5257(5) 0.1570(3)
O10 O 0.1741(13) 0.0927(12) 0.8082(9)
O11 O 0.0589(13) 0.1598(10) 0.9195(10)
H21 H 0.0224 0.1232 0.8872
H22 H 0.1119 0.2011 0.8756
loop_
_geom_bond_atom_site_label_1
_geom_bond_atom_site_label_2
_geom_bond_site_symmetry_1
_geom_bond_site_symmetry_2
Tb1 O4 1_555 1_555
C1 C4 1_555 1_555
C2 H1 1_555 1_555
C3 C2 1_555 1_555
H2 C3 1_555 1_555
C4 C3 1_555 1_555
C5 C4 1_555 1_555
H3 C5 1_555 1_555
C6 C5 1_555 1_555
C7 C6 1_555 1_555
C8 C7 1_555 1_555
H4 C8 1_555 1_555
C9 C8 1_555 1_555
C10 C9 1_555 1_555
H5 C10 1_555 1_555
C11 C10 1_555 1_555
H6 C11 1_555 1_555
C12 C9 1_555 1_555
C13 H7 1_555 1_555
C14 H8 1_555 1_555
H9 C14 1_555 1_555
H10 C14 1_555 1_555
C15 H11 1_555 1_555
H12 C15 1_555 1_555
H13 C15 1_555 1_555
C16 C19 1_555 1_555
C17 C18 1_555 1_555
C18 H14 1_555 1_555
C19 C18 1_555 1_555
C20 C19 1_555 1_555
H15 C20 1_555 1_555
C21 C20 1_555 1_555
H16 C21 1_555 1_555
N1 C2 1_555 1_555
N2 C7 1_555 1_555
N3 C13 1_555 1_555
N4 C17 1_555 1_555
O1 C1 1_555 1_555
O2 C1 1_555 1_555
O3 C12 1_555 1_555
O4 C12 1_555 1_555
O5 C16 1_555 1_555
O6 Tb1 1_555 1_555
O7 Tb1 1_555 1_555
O8 Tb1 1_555 1_555
H17 O8 1_555 1_555
H18 O8 1_555 1_555
O9 Tb1 1_555 1_555
H19 O9 1_555 1_555
H20 O9 1_555 1_555
O11 H21 1_555 1_555
H22 O11 1_555 1_555
C16A C19A 1_555 1_555
C17A C17 1_555 1_555
C18A C17A 1_555 1_555
H14A C18A 1_555 1_555
C19A C18A 1_555 1_555
C20A C19A 1_555 1_555
H15A C20A 1_555 1_555
C21A C20A 1_555 1_555
H16A C21A 1_555 1_555
N4A C17A 1_555 1_555
O5A C16A 1_555 1_555
O6A C16A 1_555 1_555
Tb1A O6A 1_555 1_555
C1A C4A 1_555 1_555
C2A H1A 1_555 1_555
C3A C2A 1_555 1_555
H2A C3A 1_555 1_555
C4A C3A 1_555 1_555
C5A C4A 1_555 1_555
H3A C5A 1_555 1_555
C6A C5A 1_555 1_555
C7A C6A 1_555 1_555
C8A C7A 1_555 1_555
H4A C8A 1_555 1_555
C9A C8A 1_555 1_555
C10A C9A 1_555 1_555
H5A C10A 1_555 1_555
C11A C10A 1_555 1_555
H6A C11A 1_555 1_555
C12A C9A 1_555 1_555
C13A H7A 1_555 1_555
C14A H8A 1_555 1_555
H9A C14A 1_555 1_555
H10A C14A 1_555 1_555
C15A H11A 1_555 1_555
H12A C15A 1_555 1_555
H13A C15A 1_555 1_555
N1A C2A 1_555 1_555
N2A C7A 1_555 1_555
N3A C13A 1_555 1_555
O1A C1A 1_555 1_555
O2A C1A 1_555 1_555
O3A C12A 1_555 1_555
O4A Tb1A 1_555 1_555
O7A Tb1A 1_555 1_555
O8A Tb1A 1_555 1_555
H17A O8A 1_555 1_555
H18A O8A 1_555 1_555
O9A Tb1A 1_555 1_555
H19A O9A 1_555 1_555
H20A O9A 1_555 1_555
Tb1_2 O3A 1_555 1_555
Tb1_3 O1A 1_555 1_555
Tb1_4 O5A 1_555 1_555
Tb1A_2 O5 1_555 1_555
Tb1A_3 O1 1_555 1_555
Tb1A_4 O3 1_555 1_555
O1_2 Tb1A 1_555 1_555
O1A_2 Tb1 1_555 1_555
O3_2 Tb1A 1_555 1_555
O3A_2 Tb1 1_555 1_555
O5_2 Tb1A 1_555 1_555
O5A_2 Tb1 1_555 1_555
C6 N1 1_555 1_555
C11 N2 1_555 1_555
C13 O7 1_555 1_555
C14 N3 1_555 1_555
C15 N3 1_555 1_555
C16 O6 1_555 1_555
C21 N4 1_555 1_555
C21A N4A 1_555 1_555
C6A N1A 1_555 1_555
C11A N2A 1_555 1_555
C12A O4A 1_555 1_555
C13A O7A 1_555 1_555
C14A N3A 1_555 1_555
C15A N3A 1_555 1_555

#END
