
#######################################################################
#
#                 Cambridge Crystallographic Data Centre
#                                CCDC 
#
#######################################################################
#
# If this CIF has been generated from an entry in the Cambridge 
# Structural Database, then it will include bibliographic, chemical, 
# crystal, experimental, refinement or atomic coordinate data resulting 
# from the CCDC's data processing and validation procedures.
#
#######################################################################

data_ZEZQIG
_symmetry_cell_setting           triclinic
_symmetry_space_group_name_H-M   'P -1'
_symmetry_Int_Tables_number      2
_space_group_name_Hall           '-P 1'
loop_
_symmetry_equiv_pos_site_id
_symmetry_equiv_pos_as_xyz
1 x,y,z
2 -x,-y,-z
_cell_length_a                   9.9544(6)
_cell_length_b                   11.7155(7)
_cell_length_c                   13.5215(8)
_cell_angle_alpha                66.8970(10)
_cell_angle_beta                 87.033(2)
_cell_angle_gamma                76.402(2)
_cell_volume                     1408.32
loop_
_atom_site_label
_atom_site_type_symbol
_atom_site_fract_x
_atom_site_fract_y
_atom_site_fract_z
Eu1 Eu 0.26380(3) -0.02657(3) 0.99528(2)
C1 C -0.2110(6) 0.7090(6) 0.1588(5)
C2 C -0.4001(8) 0.5979(9) 0.4153(7)
H1 H -0.4870 0.6209 0.4402
C3 C -0.3761(7) 0.6674(7) 0.3090(6)
H2 H -0.4448 0.7336 0.2638
C4 C -0.2468(7) 0.6348(6) 0.2728(5)
C5 C -0.1493(6) 0.5330(6) 0.3430(5)
H3 H -0.0615 0.5083 0.3202
C6 C -0.1842(6) 0.4689(6) 0.4466(5)
C7 C -0.0820(7) 0.3595(6) 0.5243(5)
C8 C -0.1104(6) 0.2994(6) 0.6324(5)
H4 H -0.1960 0.3256 0.6576
C9 C -0.0110(6) 0.2016(6) 0.7011(5)
C10 C 0.1156(7) 0.1661(7) 0.6602(6)
H5 H 0.1866 0.1023 0.7048
C11 C 0.1336(8) 0.2274(8) 0.5523(6)
H6 H 0.2172 0.2004 0.5251
C12 C -0.0349(6) 0.1331(6) 0.8179(5)
C13 C 0.4882(6) 0.0034(6) 1.1764(5)
C14 C 0.2742(9) -0.0707(11) 1.4227(7)
H7 H 0.1915 -0.0955 1.4433
C15 C 0.3150(8) -0.0545(9) 1.3203(6)
H8 H 0.2624 -0.0700 1.2741
C16 C 0.4353(6) -0.0149(6) 1.2877(5)
C17 C 0.5101(7) 0.0070(7) 1.3591(5)
H9 H 0.5919 0.0336 1.3391
C18 C 0.4617(7) -0.0112(7) 1.4606(5)
C19 C 0.203(2) -0.2924(19) 0.7263(15)
H10 H 0.2859 -0.2662 0.6958
H11 H 0.1240 -0.2319 0.6839
H12 H 0.2060 -0.3751 0.7271
C20 C 0.1371(18) -0.3937(13) 0.9169(13)
H13 H 0.1446 -0.3909 0.9864
H14 H 0.1859 -0.4760 0.9194
H15 H 0.0413 -0.3792 0.8973
C21 C 0.2272(9) -0.2097(9) 0.8631(8)
H16 H 0.2693 -0.1524 0.8101
N1 N -0.3079(6) 0.5008(7) 0.4845(5)
N2 N 0.0401(6) 0.3219(6) 0.4849(5)
N3 N 0.3453(7) -0.0532(8) 1.4944(5)
N4 N 0.1949(10) -0.2983(9) 0.8399(7)
O1 O -0.2950(4) 0.8136(4) 0.1069(4)
O2 O -0.1018(5) 0.6640(5) 0.1234(4)
O3 O -0.1566(4) 0.1503(4) 0.8485(3)
O4 O 0.0680(4) 0.0587(4) 0.8784(3)
O5 O 0.2080(5) -0.1944(5) 0.9467(4)
O6 O 0.6043(4) 0.0273(4) 1.1585(3)
O7 O 0.4127(4) -0.0076(4) 1.1118(3)
O8 O 0.4520(4) -0.2179(4) 1.0605(4)
H17 H 0.5376 -0.2532 1.0743
H18 H 0.4133 -0.2696 1.0495
O9 O 0.1057(4) 0.1267(4) 1.0594(4)
H19 H 0.0188 0.1572 1.0504
H20 H 0.1446 0.1891 1.0382
C13A C 0.5118(6) -0.0034(6) 1.8236(5)
C14A C 0.7258(9) 0.0707(11) 1.5773(7)
H7A H 0.8085 0.0955 1.5567
C15A C 0.6850(8) 0.0545(9) 1.6797(6)
H8A H 0.7376 0.0700 1.7259
C16A C 0.5647(6) 0.0149(6) 1.7123(5)
C17A C 0.4899(7) -0.0070(7) 1.6409(5)
H9A H 0.4081 -0.0336 1.6609
C18A C 0.5383(7) 0.0112(7) 1.5394(5)
N3A N 0.6547(7) 0.0532(8) 1.5056(5)
O6A O 0.3957(4) -0.0273(4) 1.8415(3)
O7A O 0.5873(4) 0.0076(4) 1.8882(3)
Eu1A Eu -0.26380(3) 0.02657(3) 1.00472(2)
C1A C 0.2110(6) -0.7090(6) 1.8412(5)
C2A C 0.4001(8) -0.5979(9) 1.5847(7)
H1A H 0.4870 -0.6209 1.5598
C3A C 0.3761(7) -0.6674(7) 1.6910(6)
H2A H 0.4448 -0.7336 1.7362
C4A C 0.2468(7) -0.6348(6) 1.7272(5)
C5A C 0.1493(6) -0.5330(6) 1.6570(5)
H3A H 0.0615 -0.5083 1.6798
C6A C 0.1842(6) -0.4689(6) 1.5534(5)
C7A C 0.0820(7) -0.3595(6) 1.4757(5)
C8A C 0.1104(6) -0.2994(6) 1.3676(5)
H4A H 0.1960 -0.3256 1.3424
C9A C 0.0110(6) -0.2016(6) 1.2989(5)
C10A C -0.1156(7) -0.1661(7) 1.3398(6)
H5A H -0.1866 -0.1023 1.2952
C11A C -0.1336(8) -0.2274(8) 1.4477(6)
H6A H -0.2172 -0.2004 1.4749
C12A C 0.0349(6) -0.1331(6) 1.1821(5)
C19A C -0.203(2) 0.2924(19) 1.2737(15)
H10A H -0.2859 0.2662 1.3042
H11A H -0.1240 0.2319 1.3161
H12A H -0.2060 0.3751 1.2729
C20A C -0.1371(18) 0.3937(13) 1.0831(13)
H13A H -0.1446 0.3909 1.0136
H14A H -0.1859 0.4760 1.0806
H15A H -0.0413 0.3792 1.1027
C21A C -0.2272(9) 0.2097(9) 1.1369(8)
H16A H -0.2693 0.1524 1.1899
N1A N 0.3079(6) -0.5008(7) 1.5155(5)
N2A N -0.0401(6) -0.3219(6) 1.5151(5)
N4A N -0.1949(10) 0.2983(9) 1.1601(7)
O1A O 0.2950(4) -0.8136(4) 1.8931(4)
O2A O 0.1018(5) -0.6640(5) 1.8766(4)
O3A O 0.1566(4) -0.1503(4) 1.1515(3)
O4A O -0.0680(4) -0.0587(4) 1.1216(3)
O5A O -0.2080(5) 0.1944(5) 1.0533(4)
O8A O -0.4520(4) 0.2179(4) 0.9395(4)
H17A H -0.5376 0.2532 0.9257
H18A H -0.4133 0.2696 0.9505
O9A O -0.1057(4) -0.1267(4) 0.9406(4)
H19A H -0.0188 -0.1572 0.9496
H20A H -0.1446 -0.1891 0.9618
Eu1_2 Eu 0.26380(3) -1.02657(3) 1.99528(2)
Eu1_3 Eu 0.26380(3) -0.02657(3) 1.99528(2)
Eu1A_2 Eu -0.26380(3) 1.02657(3) 0.00472(2)
Eu1A_3 Eu 0.73620(3) 0.02657(3) 1.00472(2)
Eu1A_4 Eu 0.73620(3) 0.02657(3) 2.00472(2)
O1_2 O -0.2950(4) -0.1864(4) 1.1069(4)
O1A_2 O 0.2950(4) 0.1864(4) 0.8931(4)
O6_2 O -0.3957(4) 0.0273(4) 1.1585(3)
O6A_2 O 0.3957(4) -0.0273(4) 0.8415(3)
O7A_2 O -0.4127(4) 0.0076(4) 0.8882(3)
O10 O 0.3254(12) 0.4075(11) 0.1915(9)
O11 O 0.4374(13) 0.3425(11) 0.0820(10)
H21 H 0.4588 0.3697 0.0165
H22 H 0.4527 0.2617 0.1054
loop_
_geom_bond_atom_site_label_1
_geom_bond_atom_site_label_2
_geom_bond_site_symmetry_1
_geom_bond_site_symmetry_2
Eu1 O4 1_555 1_555
C1 C4 1_555 1_555
C2 H1 1_555 1_555
C3 C2 1_555 1_555
H2 C3 1_555 1_555
C4 C3 1_555 1_555
C5 C4 1_555 1_555
H3 C5 1_555 1_555
C6 C5 1_555 1_555
C7 C6 1_555 1_555
C8 C7 1_555 1_555
H4 C8 1_555 1_555
C9 C8 1_555 1_555
C10 C9 1_555 1_555
H5 C10 1_555 1_555
C11 C10 1_555 1_555
H6 C11 1_555 1_555
C12 C9 1_555 1_555
C13 C16 1_555 1_555
C14 H7 1_555 1_555
C15 C14 1_555 1_555
H8 C15 1_555 1_555
C16 C15 1_555 1_555
C17 C16 1_555 1_555
H9 C17 1_555 1_555
C18 C17 1_555 1_555
C19 H10 1_555 1_555
H11 C19 1_555 1_555
H12 C19 1_555 1_555
C20 H13 1_555 1_555
H14 C20 1_555 1_555
H15 C20 1_555 1_555
C21 H16 1_555 1_555
N1 C2 1_555 1_555
N2 C7 1_555 1_555
N3 C14 1_555 1_555
N4 C19 1_555 1_555
O1 C1 1_555 1_555
O2 C1 1_555 1_555
O3 C12 1_555 1_555
O4 C12 1_555 1_555
O5 Eu1 1_555 1_555
O6 C13 1_555 1_555
O7 Eu1 1_555 1_555
O8 Eu1 1_555 1_555
H17 O8 1_555 1_555
H18 O8 1_555 1_555
O9 Eu1 1_555 1_555
H19 O9 1_555 1_555
H20 O9 1_555 1_555
O11 H21 1_555 1_555
H22 O11 1_555 1_555
C13A C16A 1_555 1_555
C14A H7A 1_555 1_555
C15A C14A 1_555 1_555
H8A C15A 1_555 1_555
C16A C15A 1_555 1_555
C17A C16A 1_555 1_555
H9A C17A 1_555 1_555
C18A C18 1_555 1_555
N3A C14A 1_555 1_555
O6A C13A 1_555 1_555
O7A C13A 1_555 1_555
Eu1A O3 1_555 1_555
C1A C4A 1_555 1_555
C2A H1A 1_555 1_555
C3A C2A 1_555 1_555
H2A C3A 1_555 1_555
C4A C3A 1_555 1_555
C5A C4A 1_555 1_555
H3A C5A 1_555 1_555
C6A C5A 1_555 1_555
C7A C6A 1_555 1_555
C8A C7A 1_555 1_555
H4A C8A 1_555 1_555
C9A C8A 1_555 1_555
C10A C9A 1_555 1_555
H5A C10A 1_555 1_555
C11A C10A 1_555 1_555
H6A C11A 1_555 1_555
C12A C9A 1_555 1_555
C19A H10A 1_555 1_555
H11A C19A 1_555 1_555
H12A C19A 1_555 1_555
C20A H13A 1_555 1_555
H14A C20A 1_555 1_555
H15A C20A 1_555 1_555
C21A H16A 1_555 1_555
N1A C2A 1_555 1_555
N2A C7A 1_555 1_555
N4A C19A 1_555 1_555
O1A C1A 1_555 1_555
O2A C1A 1_555 1_555
O3A Eu1 1_555 1_555
O4A Eu1A 1_555 1_555
O5A Eu1A 1_555 1_555
O8A Eu1A 1_555 1_555
H17A O8A 1_555 1_555
H18A O8A 1_555 1_555
O9A Eu1A 1_555 1_555
H19A O9A 1_555 1_555
H20A O9A 1_555 1_555
Eu1_2 O1A 1_555 1_555
Eu1_3 O6A 1_555 1_555
Eu1A_2 O1 1_555 1_555
Eu1A_3 O6 1_555 1_555
Eu1A_4 O7A 1_555 1_555
O1_2 Eu1A 1_555 1_555
O1A_2 Eu1 1_555 1_555
O6_2 Eu1A 1_555 1_555
O6A_2 Eu1 1_555 1_555
O7A_2 Eu1A 1_555 1_555
C6 N1 1_555 1_555
C11 N2 1_555 1_555
C13 O7 1_555 1_555
C18 N3 1_555 1_555
C20 N4 1_555 1_555
C21 N4 1_555 1_555
C21 O5 1_555 1_555
C17A C18A 1_555 1_555
C18A N3A 1_555 1_555
C6A N1A 1_555 1_555
C11A N2A 1_555 1_555
C12A O3A 1_555 1_555
C12A O4A 1_555 1_555
C20A N4A 1_555 1_555
C21A N4A 1_555 1_555
C21A O5A 1_555 1_555

#END
