
#######################################################################
#
#                 Cambridge Crystallographic Data Centre
#                                CCDC 
#
#######################################################################
#
# If this CIF has been generated from an entry in the Cambridge 
# Structural Database, then it will include bibliographic, chemical, 
# crystal, experimental, refinement or atomic coordinate data resulting 
# from the CCDC's data processing and validation procedures.
#
#######################################################################

data_ZEZRON
_symmetry_cell_setting           monoclinic
_symmetry_space_group_name_H-M   'C 2/c'
_symmetry_Int_Tables_number      15
_space_group_name_Hall           '-C 2yn'
loop_
_symmetry_equiv_pos_site_id
_symmetry_equiv_pos_as_xyz
1 x,y,z
2 -x,y,1/2-z
3 1/2+x,1/2+y,z
4 1/2-x,1/2+y,1/2-z
5 -x,-y,-z
6 x,-y,1/2+z
7 1/2-x,1/2-y,-z
8 1/2+x,1/2-y,1/2+z
_cell_length_a                   25.662(3)
_cell_length_b                   15.9357(18)
_cell_length_c                   22.211(3)
_cell_angle_alpha                90
_cell_angle_beta                 114.353(2)
_cell_angle_gamma                90
_cell_volume                     8274.82
loop_
_atom_site_label
_atom_site_type_symbol
_atom_site_fract_x
_atom_site_fract_y
_atom_site_fract_z
O23 O 0.73003(19) 0.4849(5) 0.1048(2)
O24 O 0.0000 0.66658(16) 0.2500
Mo1 Mo 0.822498(11) 0.472883(16) 0.965799(14)
Mo2 Mo 0.865895(11) 0.595840(17) 0.869626(13)
Mo3 Mo 0.920076(12) 0.777967(17) 0.950857(14)
Mo4 Mo 0.925930(13) 0.763414(18) 1.105325(15)
Mo5 Mo 0.883592(14) 0.568616(18) 1.129644(15)
Cu1 Cu 0.726996(16) 0.30260(2) 0.923170(18)
Cu2 Cu 0.622155(16) 0.45006(2) 0.908777(18)
Cu3 Cu 0.5000 0.44719(3) 0.7500
Cu4 Cu 0.937153(18) 0.08254(3) 0.97101(2)
P1 P 0.95126(3) 0.58565(5) 1.03289(4)
P2 P 0.80995(3) 0.67639(5) 0.97656(4)
O1 O 0.75670(11) 0.42649(15) 0.94242(13)
O2 O 0.86807(10) 0.38966(14) 0.97756(12)
O3 O 0.81144(9) 0.51380(14) 0.87885(12)
O4 O 0.90311(11) 0.52517(15) 0.84539(13)
O5 O 0.81744(11) 0.63916(16) 0.79837(12)
O6 O 0.92498(10) 0.67919(14) 0.90492(11)
O7 O 0.88035(12) 0.84293(16) 0.88785(13)
O8 O 0.98839(11) 0.81793(15) 0.97676(13)
O9 O 0.89898(10) 0.81910(14) 1.01983(12)
O10 O 0.88427(12) 0.82128(16) 1.13305(12)
O11 O 0.99343(12) 0.80229(16) 1.14477(13)
O12 O 0.93546(11) 0.66493(16) 1.16259(12)
O13 O 0.91795(13) 0.50109(17) 1.19280(13)
O14 O 0.82856(11) 0.60642(16) 1.14865(12)
O15 O 0.84427(11) 0.49602(15) 1.05882(13)
O16 O 0.95186(10) 0.54310(15) 1.09409(12)
O17 O 0.89496(9) 0.55971(13) 0.97373(11)
O18 O 0.95706(10) 0.68145(14) 1.04075(11)
O19 O 0.77721(10) 0.59399(15) 0.95980(13)
O20 O 0.83613(10) 0.69827(14) 0.92725(12)
O21 O 0.85603(10) 0.67313(14) 1.04895(12)
O22 O 0.67366(10) 0.54548(15) 0.97096(12)
N1 N 0.65773(12) 0.32353(17) 0.84042(13)
N2 N 0.63409(11) 0.26566(17) 0.79423(13)
N3 N 0.57299(11) 0.37058(16) 0.77788(12)
N4 N 0.62130(11) 0.38684(16) 0.83177(12)
N5 N 0.46219(12) 0.13410(18) 0.62078(14)
H1 H 0.4367 0.0992 0.5937
N6 N 0.54387(11) 0.48825(16) 0.89446(13)
N7 N 0.49929(10) 0.50010(16) 0.83591(12)
N8 N 0.47331(11) 0.52804(16) 0.91754(13)
N9 N 0.52888(11) 0.50384(17) 0.94330(12)
N10 N 0.28852(11) 0.54089(18) 0.70964(14)
H2 H 0.2534 0.5395 0.6786
N11 N 0.79342(11) 0.22681(16) 0.94872(13)
N12 N 0.86981(11) 0.14897(17) 0.96730(13)
N13 N 0.85325(11) 0.13939(16) 1.01739(13)
N14 N 0.80829(11) 0.18664(16) 1.00633(13)
N15 N 0.83158(19) 0.3044(3) 0.75186(19)
H3 H 0.8312 0.3278 0.7158
C1 C 0.58219(14) 0.29506(19) 0.75657(15)
C2 C 0.53999(13) 0.2423(2) 0.70595(15)
C3 C 0.54637(14) 0.1562(2) 0.71593(16)
H4 H 0.5783 0.1345 0.7525
C4 C 0.50666(15) 0.1029(2) 0.67300(17)
H5 H 0.5105 0.0440 0.6801
C5 C 0.45522(14) 0.2175(2) 0.60841(17)
H6 H 0.4239 0.2373 0.5703
C6 C 0.49335(14) 0.2733(2) 0.65089(16)
H7 H 0.4883 0.3320 0.6432
C7 C 0.45687(13) 0.52453(18) 0.85198(15)
C8 C 0.39780(13) 0.53716(19) 0.80361(15)
C9 C 0.38690(14) 0.5689(2) 0.74158(16)
H8 H 0.4170 0.5903 0.7316
C10 C 0.33058(14) 0.5685(2) 0.69418(17)
H9 H 0.3221 0.5880 0.6507
C11 C 0.29769(14) 0.5152(2) 0.77038(17)
H10 H 0.2663 0.4986 0.7799
C12 C 0.35271(14) 0.5128(2) 0.81970(16)
H11 H 0.3596 0.4951 0.8632
C13 C 0.83212(13) 0.20310(19) 0.92597(15)
C14 C 0.83244(16) 0.2354(2) 0.86402(17)
C15 C 0.78041(17) 0.2456(2) 0.80910(18)
H12 H 0.7455 0.2289 0.8107
C16 C 0.7810(2) 0.2804(3) 0.7527(2)
H13 H 0.7463 0.2877 0.7145
C17 C 0.8822(2) 0.2941(4) 0.8038(3)
H14 H 0.9166 0.3114 0.8010
C18 C 0.88389(19) 0.2580(3) 0.8611(2)
H15 H 0.9193 0.2489 0.8979
C19 C 1.00642(13) 0.54554(19) 1.01170(16)
H16 H 1.0092 0.5803 0.9762
H17 H 1.0436 0.5484 1.0507
C20 C 0.75999(14) 0.7565(2) 0.97233(17)
H18 H 0.7782 0.8123 0.9770
H19 H 0.7268 0.7543 0.9289
P1D P 1.04874(3) 0.41435(5) 0.96711(4)
O16D O 1.04814(10) 0.45690(15) 0.90591(12)
O17D O 1.10504(9) 0.44029(13) 1.02627(11)
O18D O 1.04294(10) 0.31855(14) 0.95925(11)
C19D C 0.99358(13) 0.45446(19) 0.98830(16)
H16D H 0.9908 0.4197 1.0238
H17D H 0.9564 0.4516 0.9493
P2F P 0.69005(3) 0.82361(5) 1.02344(4)
O19F O 0.72279(10) 0.90601(15) 1.04020(13)
O20F O 0.66387(10) 0.80173(14) 1.07275(12)
O21F O 0.64397(10) 0.82687(14) 0.95105(12)
C20F C 0.74001(14) 0.7435(2) 1.02767(17)
H18F H 0.7218 0.6877 1.0230
H19F H 0.7732 0.7457 1.0711
Mo1A Mo 0.177502(11) 0.472883(16) 0.534201(14)
Mo2A Mo 0.134105(11) 0.595840(17) 0.630374(13)
Mo3A Mo 0.079924(12) 0.777967(17) 0.549143(14)
Mo4A Mo 0.074070(13) 0.763414(18) 0.394675(15)
Mo5A Mo 0.116408(14) 0.568616(18) 0.370356(15)
Cu1A Cu 0.273004(16) 0.30260(2) 0.576830(18)
Cu2A Cu 0.377845(16) 0.45006(2) 0.591223(18)
Cu4A Cu 0.062847(18) 0.08254(3) 0.52899(2)
O1A O 0.24330(11) 0.42649(15) 0.55758(13)
O2A O 0.13193(10) 0.38966(14) 0.52244(12)
O3A O 0.18856(9) 0.51380(14) 0.62115(12)
O4A O 0.09689(11) 0.52517(15) 0.65461(13)
O5A O 0.18256(11) 0.63916(16) 0.70163(12)
O6A O 0.07502(10) 0.67919(14) 0.59508(11)
O7A O 0.11965(12) 0.84293(16) 0.61215(13)
O8A O 0.01161(11) 0.81793(15) 0.52324(13)
O9A O 0.10102(10) 0.81910(14) 0.48017(12)
O10A O 0.11573(12) 0.82128(16) 0.36695(12)
O11A O 0.00657(12) 0.80229(16) 0.35523(13)
O12A O 0.06454(11) 0.66493(16) 0.33741(12)
O13A O 0.08205(13) 0.50109(17) 0.30720(13)
O14A O 0.17144(11) 0.60642(16) 0.35135(12)
O15A O 0.15573(11) 0.49602(15) 0.44118(13)
O22A O 0.32634(10) 0.54548(15) 0.52904(12)
N1A N 0.34227(12) 0.32353(17) 0.65958(13)
N2A N 0.36591(11) 0.26566(17) 0.70577(13)
N3A N 0.42701(11) 0.37058(16) 0.72212(12)
N4A N 0.37870(11) 0.38684(16) 0.66823(12)
N5A N 0.53781(12) 0.13410(18) 0.87922(14)
H1A H 0.5633 0.0992 0.9063
N6A N 0.45613(11) 0.48825(16) 0.60554(13)
N7A N 0.50071(10) 0.50010(16) 0.66409(12)
N8A N 0.52669(11) 0.52804(16) 0.58246(13)
N9A N 0.47112(11) 0.50384(17) 0.55670(12)
N10A N 0.71148(11) 0.54089(18) 0.79036(14)
H2A H 0.7466 0.5395 0.8214
N11A N 0.20658(11) 0.22681(16) 0.55128(13)
N12A N 0.13019(11) 0.14897(17) 0.53270(13)
N13A N 0.14675(11) 0.13939(16) 0.48261(13)
N14A N 0.19171(11) 0.18664(16) 0.49367(13)
N15A N 0.16842(19) 0.3044(3) 0.74814(19)
H3A H 0.1688 0.3278 0.7842
C1A C 0.41781(14) 0.29506(19) 0.74343(15)
C2A C 0.46001(13) 0.2423(2) 0.79405(15)
C3A C 0.45363(14) 0.1562(2) 0.78407(16)
H4A H 0.4217 0.1345 0.7475
C4A C 0.49334(15) 0.1029(2) 0.82700(17)
H5A H 0.4895 0.0440 0.8199
C5A C 0.54478(14) 0.2175(2) 0.89159(17)
H6A H 0.5761 0.2373 0.9297
C6A C 0.50665(14) 0.2733(2) 0.84911(16)
H7A H 0.5117 0.3320 0.8568
C7A C 0.54313(13) 0.52453(18) 0.64802(15)
C8A C 0.60220(13) 0.53716(19) 0.69639(15)
C9A C 0.61310(14) 0.5689(2) 0.75842(16)
H8A H 0.5830 0.5903 0.7684
C10A C 0.66942(14) 0.5685(2) 0.80582(17)
H9A H 0.6779 0.5880 0.8493
C11A C 0.70231(14) 0.5152(2) 0.72962(17)
H10A H 0.7337 0.4986 0.7201
C12A C 0.64729(14) 0.5128(2) 0.68030(16)
H11A H 0.6404 0.4951 0.6368
C13A C 0.16788(13) 0.20310(19) 0.57403(15)
C14A C 0.16756(16) 0.2354(2) 0.63598(17)
C15A C 0.21959(17) 0.2456(2) 0.69090(18)
H12A H 0.2545 0.2289 0.6893
C16A C 0.2190(2) 0.2804(3) 0.7473(2)
H13A H 0.2537 0.2877 0.7855
C17A C 0.1178(2) 0.2941(4) 0.6962(3)
H14A H 0.0834 0.3114 0.6990
C18A C 0.11611(19) 0.2580(3) 0.6389(2)
H15A H 0.0807 0.2489 0.6021
Mo1D Mo 1.177502(11) 0.527117(16) 1.034201(14)
Mo1F Mo 0.677502(11) 1.027117(16) 1.034201(14)
Mo2D Mo 1.134105(11) 0.404160(17) 1.130374(13)
Mo2F Mo 0.634105(11) 0.904160(17) 1.130374(13)
Mo3D Mo 1.079924(12) 0.222033(17) 1.049143(14)
Mo3F Mo 0.579924(12) 0.722033(17) 1.049143(14)
Mo4D Mo 1.074070(13) 0.236586(18) 0.894675(15)
Mo4F Mo 0.574070(13) 0.736586(18) 0.894675(15)
Mo5D Mo 1.116408(14) 0.431384(18) 0.870356(15)
Mo5F Mo 0.616408(14) 0.931384(18) 0.870356(15)
Cu1F Cu 0.773004(16) 0.19740(2) 1.076830(18)
Cu1G Cu 0.226996(16) 0.19740(2) 0.423170(18)
Cu2F Cu 0.877845(16) 0.04994(2) 1.091223(18)
Cu2G Cu 0.122155(16) 0.04994(2) 0.408777(18)
Cu4B Cu 0.437153(18) 0.58254(3) 0.97101(2)
Cu4C Cu 0.562847(18) 0.58254(3) 0.52899(2)
Cu4D Cu 1.062847(18) 0.91746(3) 1.02899(2)
Cu4E Cu -0.062847(18) 0.91746(3) 0.47101(2)
Cu4F Cu 0.562847(18) 0.41746(3) 1.02899(2)
Cu4G Cu 0.437153(18) 0.41746(3) 0.47101(2)
O8D O 1.01161(11) 0.18207(15) 1.02324(13)
O8E O -0.01161(11) 0.18207(15) 0.47676(13)
O16A O 0.04814(10) 0.54310(15) 0.40591(12)
O17A O 0.10504(9) 0.55971(13) 0.52627(11)
O18A O 0.04294(10) 0.68145(14) 0.45925(11)
O19A O 0.22279(10) 0.59399(15) 0.54020(13)
O20A O 0.16387(10) 0.69827(14) 0.57275(12)
O21A O 0.14397(10) 0.67313(14) 0.45105(12)
N8B N 0.97331(11) 0.02804(16) 0.91754(13)
N8C N 0.02669(11) 0.02804(16) 0.58246(13)
N9F N 0.97112(11) -0.00384(17) 1.05670(12)
N9G N 0.02888(11) -0.00384(17) 0.44330(12)
N13F N 0.64675(11) 0.36061(16) 0.98261(13)
N13G N 0.35325(11) 0.36061(16) 0.51739(13)
N14F N 0.69171(11) 0.31336(16) 0.99367(13)
N14G N 0.30829(11) 0.31336(16) 0.50633(13)
loop_
_geom_bond_atom_site_label_1
_geom_bond_atom_site_label_2
_geom_bond_site_symmetry_1
_geom_bond_site_symmetry_2
Mo1 O1 1_555 1_555
Mo2 O3 1_555 1_555
Mo3 O6 1_555 1_555
Mo4 O9 1_555 1_555
Mo5 O12 1_555 1_555
Cu1 O1 1_555 1_555
Cu2 O22 1_555 1_555
Cu3 N3 1_555 1_555
Cu4 N12 1_555 1_555
P1 O16 1_555 1_555
P2 O19 1_555 1_555
O2 Mo1 1_555 1_555
O3 Mo1 1_555 1_555
O4 Mo2 1_555 1_555
O5 Mo2 1_555 1_555
O6 Mo2 1_555 1_555
O7 Mo3 1_555 1_555
O8 Mo3 1_555 1_555
O9 Mo3 1_555 1_555
O10 Mo4 1_555 1_555
O11 Mo4 1_555 1_555
O12 Mo4 1_555 1_555
O13 Mo5 1_555 1_555
O14 Mo5 1_555 1_555
O15 Mo1 1_555 1_555
O16 Mo5 1_555 1_555
O17 Mo1 1_555 1_555
O18 Mo3 1_555 1_555
O19 Mo1 1_555 1_555
O20 Mo2 1_555 1_555
O21 Mo4 1_555 1_555
N1 Cu1 1_555 1_555
N2 N1 1_555 1_555
N3 N4 1_555 1_555
N4 Cu2 1_555 1_555
N5 H1 1_555 1_555
N6 Cu2 1_555 1_555
N7 Cu3 1_555 1_555
N8 N9 1_555 1_555
N9 N6 1_555 1_555
N10 H2 1_555 1_555
N11 Cu1 1_555 1_555
N12 N13 1_555 1_555
N13 N14 1_555 1_555
N14 N11 1_555 1_555
N15 H3 1_555 1_555
C1 N2 1_555 1_555
C2 C1 1_555 1_555
C3 C2 1_555 1_555
H4 C3 1_555 1_555
C4 N5 1_555 1_555
H5 C4 1_555 1_555
C5 N5 1_555 1_555
H6 C5 1_555 1_555
C6 C2 1_555 1_555
H7 C6 1_555 1_555
C7 N7 1_555 1_555
C8 C7 1_555 1_555
C9 C8 1_555 1_555
H8 C9 1_555 1_555
C10 N10 1_555 1_555
H9 C10 1_555 1_555
C11 N10 1_555 1_555
H10 C11 1_555 1_555
C12 C8 1_555 1_555
H11 C12 1_555 1_555
C13 N11 1_555 1_555
C14 C13 1_555 1_555
C15 C14 1_555 1_555
H12 C15 1_555 1_555
C16 N15 1_555 1_555
H13 C16 1_555 1_555
C17 N15 1_555 1_555
H14 C17 1_555 1_555
C18 C14 1_555 1_555
H15 C18 1_555 1_555
C19 P1 1_555 1_555
H16 C19 1_555 1_555
H17 C19 1_555 1_555
C20 P2 1_555 1_555
H18 C20 1_555 1_555
H19 C20 1_555 1_555
P1D O16D 1_555 1_555
O16D Mo5D 1_555 1_555
O17D P1D 1_555 1_555
O18D P1D 1_555 1_555
C19D C19 1_555 1_555
H16D C19D 1_555 1_555
H17D C19D 1_555 1_555
P2F O19F 1_555 1_555
O19F Mo1F 1_555 1_555
O20F P2F 1_555 1_555
O21F P2F 1_555 1_555
C20F C20 1_555 1_555
H18F C20F 1_555 1_555
H19F C20F 1_555 1_555
Mo1A O1A 1_555 1_555
Mo2A O3A 1_555 1_555
Mo3A O6A 1_555 1_555
Mo4A O9A 1_555 1_555
Mo5A O12A 1_555 1_555
Cu1A O1A 1_555 1_555
Cu2A O22A 1_555 1_555
Cu4A N12A 1_555 1_555
O2A Mo1A 1_555 1_555
O3A Mo1A 1_555 1_555
O4A Mo2A 1_555 1_555
O5A Mo2A 1_555 1_555
O6A Mo2A 1_555 1_555
O7A Mo3A 1_555 1_555
O8A Mo3A 1_555 1_555
O9A Mo3A 1_555 1_555
O10A Mo4A 1_555 1_555
O11A Mo4A 1_555 1_555
O12A Mo4A 1_555 1_555
O13A Mo5A 1_555 1_555
O14A Mo5A 1_555 1_555
O15A Mo1A 1_555 1_555
N1A Cu1A 1_555 1_555
N2A N1A 1_555 1_555
N3A Cu3 1_555 1_555
N4A Cu2A 1_555 1_555
N5A H1A 1_555 1_555
N6A Cu2A 1_555 1_555
N7A Cu3 1_555 1_555
N8A N9A 1_555 1_555
N9A N6A 1_555 1_555
N10A H2A 1_555 1_555
N11A Cu1A 1_555 1_555
N12A N13A 1_555 1_555
N13A N14A 1_555 1_555
N14A N11A 1_555 1_555
N15A H3A 1_555 1_555
C1A N2A 1_555 1_555
C2A C1A 1_555 1_555
C3A C2A 1_555 1_555
H4A C3A 1_555 1_555
C4A N5A 1_555 1_555
H5A C4A 1_555 1_555
C5A N5A 1_555 1_555
H6A C5A 1_555 1_555
C6A C2A 1_555 1_555
H7A C6A 1_555 1_555
C7A N7A 1_555 1_555
C8A C7A 1_555 1_555
C9A C8A 1_555 1_555
H8A C9A 1_555 1_555
C10A N10A 1_555 1_555
H9A C10A 1_555 1_555
C11A N10A 1_555 1_555
H10A C11A 1_555 1_555
C12A C8A 1_555 1_555
H11A C12A 1_555 1_555
C13A N11A 1_555 1_555
C14A C13A 1_555 1_555
C15A C14A 1_555 1_555
H12A C15A 1_555 1_555
C16A N15A 1_555 1_555
H13A C16A 1_555 1_555
C17A N15A 1_555 1_555
H14A C17A 1_555 1_555
C18A C14A 1_555 1_555
H15A C18A 1_555 1_555
Mo1D O17D 1_555 1_555
Mo2D O17D 1_555 1_555
Mo2F O20F 1_555 1_555
Mo3D O18D 1_555 1_555
Mo3F O20F 1_555 1_555
Mo4D O18D 1_555 1_555
Mo4F O21F 1_555 1_555
Mo5F O21F 1_555 1_555
Cu1F N14 1_555 1_555
Cu1G N14A 1_555 1_555
Cu2F N13 1_555 1_555
Cu2G N13A 1_555 1_555
Cu4B N8 1_555 1_555
Cu4C N8A 1_555 1_555
Cu4D O8 1_555 1_555
Cu4E O8A 1_555 1_555
Cu4F N9 1_555 1_555
Cu4G N9A 1_555 1_555
O8D Cu4 1_555 1_555
O8E Cu4A 1_555 1_555
O16A Mo5A 1_555 1_555
O17A Mo1A 1_555 1_555
O18A Mo3A 1_555 1_555
O19A Mo1A 1_555 1_555
O20A Mo2A 1_555 1_555
O21A Mo4A 1_555 1_555
N8B Cu4 1_555 1_555
N8C Cu4A 1_555 1_555
N9F Cu4 1_555 1_555
N9G Cu4A 1_555 1_555
N13F Cu2 1_555 1_555
N13G Cu2A 1_555 1_555
N14F Cu1 1_555 1_555
N14G Cu1A 1_555 1_555
Mo2 O17 1_555 1_555
Mo3 O20 1_555 1_555
Mo4 O18 1_555 1_555
Mo5 O15 1_555 1_555
Mo5 O21 1_555 1_555
P1 O17 1_555 1_555
P1 O18 1_555 1_555
P2 O20 1_555 1_555
P2 O21 1_555 1_555
N1 N4 1_555 1_555
N3 C1 1_555 1_555
N6 N7 1_555 1_555
N8 C7 1_555 1_555
N12 C13 1_555 1_555
C3 C4 1_555 1_555
C5 C6 1_555 1_555
C9 C10 1_555 1_555
C11 C12 1_555 1_555
C15 C16 1_555 1_555
C17 C18 1_555 1_555
P1D C19D 1_555 1_555
P2F C20F 1_555 1_555
Mo2A O17A 1_555 1_555
Mo3A O20A 1_555 1_555
Mo4A O18A 1_555 1_555
Mo5A O15A 1_555 1_555
Mo5A O21A 1_555 1_555
N1A N4A 1_555 1_555
N3A N4A 1_555 1_555
N3A C1A 1_555 1_555
N6A N7A 1_555 1_555
N8A C7A 1_555 1_555
N12A C13A 1_555 1_555
C3A C4A 1_555 1_555
C5A C6A 1_555 1_555
C9A C10A 1_555 1_555
C11A C12A 1_555 1_555
C15A C16A 1_555 1_555
C17A C18A 1_555 1_555
Mo3D O8D 1_555 1_555
N13F N14F 1_555 1_555
N13G N14G 1_555 1_555

#END
