
#######################################################################
#
#                 Cambridge Crystallographic Data Centre
#                                CCDC 
#
#######################################################################
#
# If this CIF has been generated from an entry in the Cambridge 
# Structural Database, then it will include bibliographic, chemical, 
# crystal, experimental, refinement or atomic coordinate data resulting 
# from the CCDC's data processing and validation procedures.
#
#######################################################################

data_ZEZRUT
_symmetry_cell_setting           triclinic
_symmetry_space_group_name_H-M   'P -1'
_symmetry_Int_Tables_number      2
_space_group_name_Hall           '-P 1'
loop_
_symmetry_equiv_pos_site_id
_symmetry_equiv_pos_as_xyz
1 x,y,z
2 -x,-y,-z
_cell_length_a                   13.3222(11)
_cell_length_b                   20.5941(17)
_cell_length_c                   22.4030(18)
_cell_angle_alpha                98.136(2)
_cell_angle_beta                 94.315(2)
_cell_angle_gamma                100.023(2)
_cell_volume                     5960.2
loop_
_atom_site_label
_atom_site_type_symbol
_atom_site_fract_x
_atom_site_fract_y
_atom_site_fract_z
Mo1 Mo 1.34693(5) 0.30860(3) 0.52696(3)
Mo2 Mo 1.15533(5) 0.39339(3) 0.50764(3)
Mo3 Mo 1.11878(5) 0.41005(3) 0.35977(3)
Mo4 Mo 1.34500(5) 0.36405(3) 0.29210(3)
Mo5 Mo 1.45445(5) 0.28333(3) 0.39481(4)
Mo6 Mo 0.47640(5) 0.74419(3) 0.13500(3)
Mo7 Mo 0.48016(5) 0.73805(3) -0.01659(3)
Mo8 Mo 0.72070(5) 0.68554(3) -0.05090(3)
Mo9 Mo 0.79691(5) 0.61829(3) 0.07150(3)
Mo10 Mo 0.65092(5) 0.65703(3) 0.18328(3)
Mo11 Mo 1.16931(6) 0.94428(4) 0.17945(3)
Mo12 Mo 1.16865(5) 0.92620(3) 0.32681(3)
Mo13 Mo 0.93011(5) 0.97163(3) 0.37538(3)
Mo14 Mo 0.84238(5) 1.04938(3) 0.26361(3)
Mo15 Mo 0.98176(6) 1.02804(3) 0.14504(3)
Ni1 Ni 1.49576(8) 0.13355(5) 0.29596(6)
Ni2 Ni 1.20059(7) 0.58626(5) 0.34642(4)
Ni3 Ni 1.07458(7) 0.74119(5) 0.31205(4)
Ni4 Ni 0.84666(7) 0.46869(4) -0.02656(4)
Ni5 Ni 0.57049(9) 0.92142(5) -0.00312(7)
Ni6 Ni 0.79660(7) 1.19927(5) 0.36489(5)
P1 P 0.53609(14) 0.60664(9) 0.03699(9)
P2 P 1.10529(15) 0.06538(9) 0.29176(9)
P3 P 0.93302(15) 0.90219(9) 0.22975(9)
P4 P 1.19250(14) 0.27131(9) 0.38851(9)
P5 P 1.37540(15) 0.43313(9) 0.43988(9)
P6 P 0.71587(15) 0.77091(10) 0.08918(9)
O1 O 0.4632(4) 0.6299(2) -0.0073(2)
O2 O 0.6466(4) 0.6213(2) 0.0186(2)
O3 O 0.4116(4) 0.7354(2) 0.0543(2)
O4 O 0.5292(4) 0.6394(2) 0.1026(2)
O5 O 0.5882(4) 0.7341(3) 0.1898(2)
O6 O 0.7401(4) 0.7090(2) 0.1147(2)
O7 O 0.5998(4) 0.7667(3) 0.0785(2)
O8 O 0.7058(4) 0.5901(2) 0.1306(2)
O9 O 0.9091(4) 0.6468(3) 0.1175(3)
O10 O 0.7614(4) 0.7785(3) 0.0297(2)
O11 O 0.8269(4) 0.6650(3) 0.0054(2)
O12 O 0.5942(4) 0.7130(2) -0.0550(2)
O13 O 0.6964(4) 0.6143(3) -0.1027(2)
O14 O 0.3798(4) 0.7172(3) -0.0713(3)
O15 O 0.8055(4) 0.5390(3) 0.0380(2)
O16 O 0.5718(4) 0.6015(3) 0.2168(2)
O17 O 0.7957(4) 0.7407(3) -0.0870(2)
O18 O 0.5201(4) 0.8221(3) -0.0149(3)
O19 O 0.8622(4) 0.9107(3) 0.4089(3)
O20 O 0.7258(5) 1.0231(3) 0.2213(3)
O21 O 1.1091(4) 0.0425(2) 0.2239(2)
O22 O 0.9963(4) 0.0458(2) 0.3109(2)
O23 O 1.1820(4) 0.0370(2) 0.3295(2)
O24 O 1.2373(4) 0.9406(3) 0.2575(3)
O25 O 1.2704(4) 0.9422(3) 0.3812(3)
O26 O 1.1328(4) 0.8409(2) 0.3185(2)
O27 O 1.0571(4) 0.9458(2) 0.3721(2)
O28 O 0.9509(5) 1.0393(3) 0.4309(3)
O29 O 0.8908(4) 0.8864(2) 0.2880(2)
O30 O 0.8185(4) 0.9944(3) 0.3250(3)
O31 O 0.8998(4) 0.9652(2) 0.2109(2)
O32 O 1.0551(5) 1.0899(3) 0.1152(3)
O33 O 0.9268(4) 1.0874(2) 0.2061(2)
O34 O 1.3867(4) 0.2480(3) 0.4614(3)
O35 O 1.2948(4) 0.2910(2) 0.3615(2)
O36 O 1.2787(4) 0.2476(3) 0.5605(3)
O37 O 1.1108(4) 0.2994(2) 0.3547(2)
O38 O 1.0096(4) 0.3925(2) 0.3110(2)
O39 O 1.0699(4) 0.3437(3) 0.5417(2)
O40 O 1.1541(5) 0.4724(3) 0.5417(2)
O41 O 1.2216(4) 0.3963(2) 0.3057(2)
O42 O 1.2833(4) 0.3830(3) 0.5477(2)
O43 O 1.2583(4) 0.4255(2) 0.4398(2)
O44 O 1.4119(4) 0.3694(2) 0.4552(2)
O45 O 1.2014(4) 0.2952(2) 0.4573(2)
O46 O 1.4046(4) 0.4483(2) 0.3780(2)
O47 O 1.4072(4) 0.4234(3) 0.2551(3)
O48 O 1.0672(4) 0.3930(2) 0.4344(2)
O49 O 1.1486(4) 0.4966(2) 0.3707(2)
O50 O 0.4732(5) 0.8256(3) 0.1592(3)
O51 O 0.7518(4) 0.6878(3) 0.2373(2)
O52 O 1.0509(5) 0.9551(3) 0.1303(3)
O53 O 0.8327(4) 1.1258(3) 0.3035(3)
O54 O 0.8790(5) 0.9993(3) 0.0930(3)
O55 O 1.2638(5) 0.9989(3) 0.1555(3)
O56 O 1.1799(6) 0.8676(3) 0.1431(3)
O57 O 1.3047(4) 0.2973(3) 0.2364(3)
O58 O 1.0507(4) 0.9111(2) 0.2386(2)
O59 O 1.4598(4) 0.3350(3) 0.5728(3)
O60 O 1.5774(4) 0.3073(3) 0.4262(3)
O61 O 1.4637(4) 0.3369(3) 0.3319(3)
O62 O 1.4522(5) 0.2047(3) 0.3545(3)
O63 O 0.3766(4) 0.7008(3) 0.1673(3)
O64 O 1.3829(6) 0.0633(4) 0.3171(6)
O65 O 1.3883(8) 0.1599(5) 0.2376(6)
O66 O 1.5357(7) 0.0661(4) 0.2288(4)
O67 O 1.3464(4) 0.5729(3) 0.3731(3)
O68 O 1.2067(4) 0.5281(3) 0.2610(2)
O69 O 1.1894(4) 0.6399(3) 0.4303(2)
O70 O 1.0428(4) 0.7297(3) 0.2188(3)
O71 O 1.1006(4) 0.7518(3) 0.4063(2)
O72 O 0.9308(4) 0.7661(3) 0.3211(3)
O73 O 0.7329(4) 0.4894(3) -0.0841(2)
O74 O 0.8845(5) 0.3987(3) -0.0920(3)
O75 O 0.7413(4) 0.3934(3) -0.0052(3)
O76 O 0.7201(5) 0.9027(3) -0.0021(4)
O77 O 0.5847(6) 0.9262(4) 0.0907(4)
O78 O 0.5705(7) 0.9172(4) -0.0961(4)
O79 O 0.9098(4) 1.2665(3) 0.3425(3)
O80 O 0.9075(4) 1.1722(3) 0.4234(3)
O81 O 0.7674(4) 1.2682(3) 0.4334(3)
C1 C 1.3841(6) 0.7554(4) 0.3116(3)
C2 C 1.4838(6) 0.7968(4) 0.3114(4)
C3 C 1.5726(6) 0.7762(4) 0.3297(4)
H1 H 1.5702 0.7341 0.3428
C4 C 1.6653(7) 0.8182(5) 0.3286(4)
H2 H 1.7272 0.8051 0.3416
C5 C 1.4895(7) 0.8595(4) 0.2939(4)
H3 H 1.4286 0.8748 0.2823
C6 C 1.5845(7) 0.8994(4) 0.2934(4)
H4 H 1.5897 0.9424 0.2817
C7 C 0.8902(6) 0.5641(4) 0.3181(3)
C8 C 0.7881(6) 0.5277(4) 0.3239(3)
C9 C 0.7780(6) 0.4633(4) 0.3408(3)
H5 H 0.8355 0.4421 0.3450
C10 C 0.6816(7) 0.4326(4) 0.3509(4)
H6 H 0.6721 0.3897 0.3629
C11 C 0.6092(6) 0.5234(5) 0.3269(4)
H7 H 0.5499 0.5426 0.3221
C12 C 0.7030(6) 0.5571(4) 0.3169(4)
H8 H 0.7095 0.6001 0.3052
C13 C 1.0115(6) 0.6182(4) -0.1011(3)
C14 C 1.0190(6) 0.6743(4) -0.1359(3)
C15 C 0.9337(6) 0.6857(4) -0.1694(3)
H9 H 0.8706 0.6549 -0.1736
C16 C 0.9416(6) 0.7423(4) -0.1966(3)
H10 H 0.8839 0.7503 -0.2201
C17 C 1.1121(6) 0.7188(4) -0.1328(3)
H11 H 1.1726 0.7108 -0.1121
C18 C 1.1140(6) 0.7744(4) -0.1603(3)
H12 H 1.1763 0.8055 -0.1580
C19 C 0.6273(7) 0.9815(4) 0.4540(4)
C20 C 0.7148(7) 0.9743(4) 0.4877(4)
H13 H 0.7754 1.0073 0.4916
C21 C 0.7130(8) 0.9185(5) 0.5155(4)
H14 H 0.7730 0.9130 0.5384
C22 C 0.5394(7) 0.9332(4) 0.4508(4)
H15 H 0.4780 0.9378 0.4288
C23 C 0.5414(8) 0.8795(4) 0.4793(4)
H16 H 0.4811 0.8466 0.4771
C24 C 0.2612(6) 0.8955(4) 0.0024(4)
C25 C 0.1637(6) 0.8524(4) 0.0057(4)
C26 C 0.1612(6) 0.7873(4) 0.0179(4)
H17 H 0.2227 0.7704 0.0231
C27 C 0.0685(7) 0.7488(4) 0.0222(4)
H18 H 0.0652 0.7049 0.0314
C28 C 0.0730(6) 0.8755(4) -0.0039(4)
H19 H 0.0738 0.9194 -0.0126
C29 C -0.0198(6) 0.8328(5) -0.0006(4)
H20 H -0.0834 0.8466 -0.0081
C30 C 0.6635(7) 1.2955(4) 0.2401(3)
C31 C 0.6671(7) 1.3528(4) 0.2073(4)
C32 C 0.7603(7) 1.3929(4) 0.2028(4)
H21 H 0.8224 1.3818 0.2183
C33 C 0.7622(7) 1.4494(4) 0.1755(4)
H22 H 0.8255 1.4768 0.1712
C34 C 0.5778(7) 1.3703(5) 0.1834(4)
H23 H 0.5134 1.3424 0.1846
C35 C 0.5824(8) 1.4269(5) 0.1584(4)
H24 H 0.5211 1.4395 0.1434
C36 C 1.1584(6) 0.1820(3) 0.3752(3)
H25 H 1.2143 0.1630 0.3936
H26 H 1.0959 0.1680 0.3949
C37 C 1.1391(6) 0.1546(3) 0.3075(3)
H27 H 1.2016 0.1692 0.2879
H28 H 1.0831 0.1738 0.2893
C38 C 1.4412(5) 0.4989(4) 0.4969(4)
H29 H 1.4275 0.5421 0.4868
H30 H 1.4145 0.4929 0.5362
C39 C 0.7694(6) 0.8400(4) 0.1474(4)
H31 H 0.7676 0.8824 0.1316
H32 H 0.7278 0.8391 0.1822
C40 C 0.8819(6) 0.8367(4) 0.1688(3)
H33 H 0.9243 0.8405 0.1346
H34 H 0.8841 0.7931 0.1821
C41 C 0.5002(6) 0.5182(3) 0.0322(3)
H35 H 0.5487 0.5023 0.0599
H36 H 0.4310 0.5074 0.0457
C42 C 0.6295(7) 1.0385(4) 0.4203(4)
N1 N 1.3683(5) 0.6924(3) 0.3240(3)
N2 N 1.2661(5) 0.6752(3) 0.3209(3)
N3 N 1.2225(4) 0.7254(3) 0.3068(3)
N4 N 1.2967(5) 0.7762(3) 0.3000(3)
N5 N 1.6685(6) 0.8765(4) 0.3097(3)
H37 H 1.7288 0.9011 0.3077
N6 N 0.9756(5) 0.5415(3) 0.3278(3)
N7 N 1.0502(4) 0.5921(3) 0.3233(3)
N8 N 1.0096(5) 0.6439(3) 0.3113(3)
N9 N 0.9080(5) 0.6276(3) 0.3082(3)
N10 N 0.6022(5) 0.4626(4) 0.3438(3)
H38 H 0.5416 0.4418 0.3504
N11 N 0.9531(5) 0.5405(3) -0.0549(3)
N12 N 0.9246(5) 0.5781(3) -0.0944(3)
N13 N 1.0535(5) 0.5574(3) -0.0388(3)
N14 N 1.0924(5) 0.6072(3) -0.0677(3)
N15 N 1.0295(5) 0.7854(3) -0.1901(3)
H39 H 1.0323 0.8223 -0.2059
N16 N 0.4183(5) 0.9284(3) -0.0013(4)
N17 N 0.3729(5) 0.9798(3) -0.0039(4)
N18 N 0.2718(5) 0.9596(4) -0.0029(4)
N19 N 0.3499(6) 0.8749(3) 0.0039(4)
N20 N -0.0166(5) 0.7723(4) 0.0135(3)
H40 H -0.0750 0.7465 0.0173
N21 N 0.6836(5) 1.1267(3) 0.3869(3)
N22 N 0.7115(5) 1.0876(3) 0.4253(3)
N23 N 0.5899(5) 1.1022(3) 0.3605(3)
N24 N 0.5538(5) 1.0458(4) 0.3813(4)
N25 N 0.6277(7) 0.8721(4) 0.5107(4)
H41 H 0.6281 0.8365 0.5282
N26 N 0.5785(6) 1.2490(4) 0.2382(3)
N27 N 0.6066(5) 1.2086(3) 0.2758(3)
N28 N 0.7027(5) 1.2303(3) 0.2988(3)
N29 N 0.7407(5) 1.2847(3) 0.2764(3)
N30 N 0.6727(6) 1.4648(3) 0.1549(3)
H42 H 0.6742 1.5013 0.1386
P1A P 0.46391(14) 0.39336(9) -0.03699(9)
O1A O 0.5368(4) 0.3701(2) 0.0073(2)
O2A O 0.3534(4) 0.3787(2) -0.0186(2)
O4A O 0.4708(4) 0.3606(2) -0.1026(2)
C41A C 0.4998(6) 0.4818(3) -0.0322(3)
H35A H 0.4513 0.4977 -0.0599
H36A H 0.5690 0.4926 -0.0457
P5A P 1.62460(15) 0.56687(9) 0.56012(9)
O43A O 1.7417(4) 0.5745(2) 0.5602(2)
O44A O 1.5881(4) 0.6306(2) 0.5448(2)
O46A O 1.5954(4) 0.5517(2) 0.6220(2)
C38A C 1.5588(5) 0.5011(4) 0.5031(4)
H29A H 1.5725 0.4579 0.5132
H30A H 1.5855 0.5071 0.4638
Mo1A Mo -0.34693(5) 0.69140(3) -0.52696(3)
Mo2A Mo -0.15533(5) 0.60661(3) -0.50764(3)
Mo3A Mo -0.11878(5) 0.58995(3) -0.35977(3)
Mo4A Mo -0.34500(5) 0.63595(3) -0.29210(3)
Mo5A Mo -0.45445(5) 0.71667(3) -0.39481(4)
Mo6A Mo 0.52360(5) 0.25581(3) -0.13500(3)
Mo7A Mo 0.51984(5) 0.26195(3) 0.01659(3)
Mo8A Mo 0.27930(5) 0.31446(3) 0.05090(3)
Mo9A Mo 0.20309(5) 0.38171(3) -0.07150(3)
Mo10A Mo 0.34908(5) 0.34297(3) -0.18328(3)
Mo11A Mo -0.16931(6) 0.05572(4) -0.17945(3)
Mo12A Mo -0.16865(5) 0.07380(3) -0.32681(3)
Mo13A Mo 0.06989(5) 0.02837(3) -0.37538(3)
Mo14A Mo 0.15762(5) -0.04938(3) -0.26361(3)
Mo15A Mo 0.01824(6) -0.02804(3) -0.14504(3)
Ni1A Ni -0.49576(8) 0.86645(5) -0.29596(6)
Ni2A Ni -0.20059(7) 0.41374(5) -0.34642(4)
Ni3A Ni -0.07458(7) 0.25881(5) -0.31205(4)
Ni4A Ni 0.15334(7) 0.53131(4) 0.02656(4)
Ni5A Ni 0.42951(9) 0.07858(5) 0.00312(7)
Ni6A Ni 0.20340(7) -0.19927(5) -0.36489(5)
P2A P -0.10529(15) 0.93462(9) -0.29176(9)
P3A P 0.06698(15) 0.09781(9) -0.22975(9)
P4A P -0.19250(14) 0.72869(9) -0.38851(9)
P6A P 0.28413(15) 0.22909(10) -0.08918(9)
O3A O 0.5884(4) 0.2646(2) -0.0543(2)
O5A O 0.4118(4) 0.2659(3) -0.1898(2)
O6A O 0.2599(4) 0.2910(2) -0.1147(2)
O7A O 0.4002(4) 0.2333(3) -0.0785(2)
O8A O 0.2942(4) 0.4099(2) -0.1306(2)
O9A O 0.0909(4) 0.3532(3) -0.1175(3)
O10A O 0.2386(4) 0.2215(3) -0.0297(2)
O11A O 0.1731(4) 0.3350(3) -0.0054(2)
O12A O 0.4058(4) 0.2870(2) 0.0550(2)
O13A O 0.3036(4) 0.3857(3) 0.1027(2)
O14A O 0.6202(4) 0.2828(3) 0.0713(3)
O15A O 0.1945(4) 0.4610(3) -0.0380(2)
O16A O 0.4282(4) 0.3985(3) -0.2168(2)
O17A O 0.2043(4) 0.2593(3) 0.0870(2)
O18A O 0.4799(4) 0.1779(3) 0.0149(3)
O19A O 0.1378(4) 0.0893(3) -0.4089(3)
O20A O 0.2742(5) -0.0231(3) -0.2213(3)
O21A O -0.1091(4) 0.9575(2) -0.2239(2)
O22A O 0.0037(4) 0.9542(2) -0.3109(2)
O23A O -0.1820(4) 0.9630(2) -0.3295(2)
O24A O -0.2373(4) 0.0594(3) -0.2575(3)
O25A O -0.2704(4) 0.0578(3) -0.3812(3)
O26A O -0.1328(4) 0.1591(2) -0.3185(2)
O27A O -0.0571(4) 0.0542(2) -0.3721(2)
O28A O 0.0491(5) -0.0393(3) -0.4309(3)
O29A O 0.1092(4) 0.1136(2) -0.2880(2)
O30A O 0.1815(4) 0.0056(3) -0.3250(3)
O31A O 0.1002(4) 0.0348(2) -0.2109(2)
O32A O -0.0551(5) -0.0899(3) -0.1152(3)
O33A O 0.0732(4) -0.0874(2) -0.2061(2)
O34A O -0.3867(4) 0.7520(3) -0.4614(3)
O35A O -0.2948(4) 0.7090(2) -0.3615(2)
O36A O -0.2787(4) 0.7524(3) -0.5605(3)
O37A O -0.1108(4) 0.7006(2) -0.3547(2)
O38A O -0.0096(4) 0.6075(2) -0.3110(2)
O39A O -0.0699(4) 0.6563(3) -0.5417(2)
O40A O -0.1541(5) 0.5276(3) -0.5417(2)
O41A O -0.2216(4) 0.6037(2) -0.3057(2)
O42A O -0.2833(4) 0.6170(3) -0.5477(2)
O45A O -0.2014(4) 0.7048(2) -0.4573(2)
O47A O -0.4072(4) 0.5766(3) -0.2551(3)
O48A O -0.0672(4) 0.6070(2) -0.4344(2)
O49A O -0.1486(4) 0.5034(2) -0.3707(2)
O50A O 0.5268(5) 0.1744(3) -0.1592(3)
O51A O 0.2482(4) 0.3122(3) -0.2373(2)
O52A O -0.0509(5) 0.0449(3) -0.1303(3)
O53A O 0.1673(4) -0.1258(3) -0.3035(3)
O54A O 0.1210(5) 0.0007(3) -0.0930(3)
O55A O -0.2638(5) 0.0011(3) -0.1555(3)
O56A O -0.1799(6) 0.1324(3) -0.1431(3)
O57A O -0.3047(4) 0.7027(3) -0.2364(3)
O58A O -0.0507(4) 0.0889(2) -0.2386(2)
O59A O -0.4598(4) 0.6650(3) -0.5728(3)
O60A O -0.5774(4) 0.6927(3) -0.4262(3)
O61A O -0.4637(4) 0.6631(3) -0.3319(3)
O62A O -0.4522(5) 0.7953(3) -0.3545(3)
O63A O 0.6234(4) 0.2992(3) -0.1673(3)
O64A O -0.3829(6) 0.9367(4) -0.3171(6)
O65A O -0.3883(8) 0.8401(5) -0.2376(6)
O66A O -0.5357(7) 0.9339(4) -0.2288(4)
O67A O -0.3464(4) 0.4271(3) -0.3731(3)
O68A O -0.2067(4) 0.4719(3) -0.2610(2)
O69A O -0.1894(4) 0.3601(3) -0.4303(2)
O70A O -0.0428(4) 0.2703(3) -0.2188(3)
O71A O -0.1006(4) 0.2482(3) -0.4063(2)
O72A O 0.0692(4) 0.2339(3) -0.3211(3)
O73A O 0.2671(4) 0.5106(3) 0.0841(2)
O74A O 0.1155(5) 0.6013(3) 0.0920(3)
O75A O 0.2587(4) 0.6066(3) 0.0052(3)
O76A O 0.2799(5) 0.0973(3) 0.0021(4)
O77A O 0.4153(6) 0.0738(4) -0.0907(4)
O78A O 0.4295(7) 0.0828(4) 0.0961(4)
O79A O 0.0902(4) -0.2665(3) -0.3425(3)
O80A O 0.0925(4) -0.1722(3) -0.4234(3)
O81A O 0.2326(4) -0.2682(3) -0.4334(3)
C1A C -0.3841(6) 0.2446(4) -0.3116(3)
C2A C -0.4838(6) 0.2032(4) -0.3114(4)
C3A C -0.5726(6) 0.2238(4) -0.3297(4)
H1A H -0.5702 0.2659 -0.3428
C4A C -0.6653(7) 0.1818(5) -0.3286(4)
H2A H -0.7272 0.1949 -0.3416
C5A C -0.4895(7) 0.1405(4) -0.2939(4)
H3A H -0.4286 0.1252 -0.2823
C6A C -0.5845(7) 0.1006(4) -0.2934(4)
H4A H -0.5897 0.0576 -0.2817
C7A C 0.1098(6) 0.4359(4) -0.3181(3)
C8A C 0.2119(6) 0.4723(4) -0.3239(3)
C9A C 0.2220(6) 0.5367(4) -0.3408(3)
H5A H 0.1645 0.5579 -0.3450
C10A C 0.3184(7) 0.5674(4) -0.3509(4)
H6A H 0.3279 0.6103 -0.3629
C11A C 0.3908(6) 0.4766(5) -0.3269(4)
H7A H 0.4501 0.4574 -0.3221
C12A C 0.2970(6) 0.4429(4) -0.3169(4)
H8A H 0.2905 0.3999 -0.3052
C13A C -0.0115(6) 0.3818(4) 0.1011(3)
C14A C -0.0190(6) 0.3257(4) 0.1359(3)
C15A C 0.0663(6) 0.3143(4) 0.1694(3)
H9A H 0.1294 0.3451 0.1736
C16A C 0.0584(6) 0.2577(4) 0.1966(3)
H10A H 0.1161 0.2497 0.2201
C17A C -0.1121(6) 0.2812(4) 0.1328(3)
H11A H -0.1726 0.2892 0.1121
C18A C -0.1140(6) 0.2256(4) 0.1603(3)
H12A H -0.1763 0.1945 0.1580
C19A C 0.3727(7) 0.0185(4) -0.4540(4)
C20A C 0.2852(7) 0.0257(4) -0.4877(4)
H13A H 0.2246 -0.0073 -0.4916
C21A C 0.2870(8) 0.0815(5) -0.5155(4)
H14A H 0.2270 0.0870 -0.5384
C22A C 0.4606(7) 0.0668(4) -0.4508(4)
H15A H 0.5220 0.0622 -0.4288
C23A C 0.4586(8) 0.1205(4) -0.4793(4)
H16A H 0.5189 0.1534 -0.4771
C24A C 0.7388(6) 0.1045(4) -0.0024(4)
C25A C 0.8363(6) 0.1476(4) -0.0057(4)
C26A C 0.8388(6) 0.2127(4) -0.0179(4)
H17A H 0.7773 0.2296 -0.0231
C27A C 0.9315(7) 0.2512(4) -0.0222(4)
H18A H 0.9348 0.2951 -0.0314
C28A C 0.9270(6) 0.1245(4) 0.0039(4)
H19A H 0.9262 0.0806 0.0126
C29A C 1.0198(6) 0.1672(5) 0.0006(4)
H20A H 1.0834 0.1534 0.0081
C30A C 0.3365(7) -0.2955(4) -0.2401(3)
C31A C 0.3329(7) -0.3528(4) -0.2073(4)
C32A C 0.2397(7) -0.3929(4) -0.2028(4)
H21A H 0.1776 -0.3818 -0.2183
C33A C 0.2378(7) -0.4494(4) -0.1755(4)
H22A H 0.1745 -0.4768 -0.1712
C34A C 0.4222(7) -0.3703(5) -0.1834(4)
H23A H 0.4866 -0.3424 -0.1846
C35A C 0.4176(8) -0.4269(5) -0.1584(4)
H24A H 0.4789 -0.4395 -0.1434
C36A C -0.1584(6) 0.8180(3) -0.3752(3)
H25A H -0.2143 0.8370 -0.3936
H26A H -0.0959 0.8320 -0.3949
C37A C -0.1391(6) 0.8454(3) -0.3075(3)
H27A H -0.2016 0.8308 -0.2879
H28A H -0.0831 0.8262 -0.2893
C39A C 0.2306(6) 0.1600(4) -0.1474(4)
H31A H 0.2324 0.1176 -0.1316
H32A H 0.2722 0.1609 -0.1822
C40A C 0.1181(6) 0.1633(4) -0.1688(3)
H33A H 0.0757 0.1595 -0.1346
H34A H 0.1159 0.2069 -0.1821
C42A C 0.3705(7) -0.0385(4) -0.4203(4)
N1A N -0.3683(5) 0.3076(3) -0.3240(3)
N2A N -0.2661(5) 0.3248(3) -0.3209(3)
N3A N -0.2225(4) 0.2746(3) -0.3068(3)
N4A N -0.2967(5) 0.2238(3) -0.3000(3)
N5A N -0.6685(6) 0.1235(4) -0.3097(3)
H37A H -0.7288 0.0989 -0.3077
N6A N 0.0244(5) 0.4585(3) -0.3278(3)
N7A N -0.0502(4) 0.4079(3) -0.3233(3)
N8A N -0.0096(5) 0.3561(3) -0.3113(3)
N9A N 0.0920(5) 0.3724(3) -0.3082(3)
N10A N 0.3978(5) 0.5374(4) -0.3438(3)
H38A H 0.4584 0.5582 -0.3504
N11A N 0.0469(5) 0.4595(3) 0.0549(3)
N12A N 0.0754(5) 0.4219(3) 0.0944(3)
N13A N -0.0535(5) 0.4426(3) 0.0388(3)
N14A N -0.0924(5) 0.3928(3) 0.0677(3)
N15A N -0.0295(5) 0.2146(3) 0.1901(3)
H39A H -0.0323 0.1777 0.2059
N16A N 0.5817(5) 0.0716(3) 0.0013(4)
N17A N 0.6271(5) 0.0202(3) 0.0039(4)
N18A N 0.7282(5) 0.0404(4) 0.0029(4)
N19A N 0.6501(6) 0.1251(3) -0.0039(4)
N20A N 1.0166(5) 0.2277(4) -0.0135(3)
H40A H 1.0750 0.2535 -0.0173
N21A N 0.3164(5) -0.1267(3) -0.3869(3)
N22A N 0.2885(5) -0.0876(3) -0.4253(3)
N23A N 0.4101(5) -0.1022(3) -0.3605(3)
N24A N 0.4462(5) -0.0458(4) -0.3813(4)
N25A N 0.3723(7) 0.1279(4) -0.5107(4)
H41A H 0.3719 0.1635 -0.5282
N26A N 0.4215(6) -0.2490(4) -0.2382(3)
N27A N 0.3934(5) -0.2086(3) -0.2758(3)
N28A N 0.2973(5) -0.2303(3) -0.2988(3)
N29A N 0.2593(5) -0.2847(3) -0.2764(3)
N30A N 0.3273(6) -0.4648(3) -0.1549(3)
H42A H 0.3258 -0.5013 -0.1386
Mo1A_2 Mo 1.65307(5) 0.69140(3) 0.47304(3)
Mo2A_2 Mo 1.84467(5) 0.60661(3) 0.49236(3)
Mo3A_2 Mo 1.88122(5) 0.58995(3) 0.64023(3)
Mo4A_2 Mo 1.65500(5) 0.63595(3) 0.70790(3)
Mo5A_2 Mo 1.54555(5) 0.71667(3) 0.60519(4)
Mo11_2 Mo 1.16931(6) -0.05572(4) 0.17945(3)
Mo11A_2 Mo -0.16931(6) 1.05572(4) -0.17945(3)
Mo12_2 Mo 1.16865(5) -0.07380(3) 0.32681(3)
Mo12A_2 Mo -0.16865(5) 1.07380(3) -0.32681(3)
Mo13_2 Mo 0.93011(5) -0.02837(3) 0.37538(3)
Mo13A_2 Mo 0.06989(5) 1.02837(3) -0.37538(3)
Mo14_2 Mo 0.84238(5) 0.04938(3) 0.26361(3)
Mo14A_2 Mo 0.15762(5) 0.95062(3) -0.26361(3)
Mo15_2 Mo 0.98176(6) 0.02804(3) 0.14504(3)
Mo15A_2 Mo 0.01824(6) 0.97196(3) -0.14504(3)
Ni1_2 Ni 0.49576(8) 1.13355(5) 0.29596(6)
Ni1A_2 Ni 0.50424(8) -0.13355(5) -0.29596(6)
Ni4_2 Ni -0.15334(7) 0.46869(4) -0.02656(4)
Ni4A_2 Ni 1.15334(7) 0.53131(4) 0.02656(4)
Ni5_2 Ni 0.57049(9) -0.07858(5) -0.00312(7)
Ni5A_2 Ni 0.42951(9) 1.07858(5) 0.00312(7)
O21_2 O 1.1091(4) 1.0425(2) 0.2239(2)
O21A_2 O -0.1091(4) -0.0425(2) -0.2239(2)
O22_2 O 0.9963(4) 1.0458(2) 0.3109(2)
O22A_2 O 0.0037(4) -0.0458(2) -0.3109(2)
O23_2 O 1.1820(4) 1.0370(2) 0.3295(2)
O23A_2 O -0.1820(4) -0.0370(2) -0.3295(2)
O43A_2 O -0.2583(4) 0.5745(2) -0.4398(2)
O44A_2 O -0.4119(4) 0.6306(2) -0.4552(2)
O46A_2 O -0.4046(4) 0.5517(2) -0.3780(2)
N13_2 N 0.0535(5) 0.5574(3) -0.0388(3)
N13A_2 N 0.9465(5) 0.4426(3) 0.0388(3)
N17_2 N 0.3729(5) -0.0202(3) -0.0039(4)
N17A_2 N 0.6271(5) 1.0202(3) 0.0039(4)
N23_2 N 1.5899(5) 0.1022(3) 0.3605(3)
N23A_2 N -0.5899(5) 0.8978(3) -0.3605(3)
N27_2 N 1.6066(5) 0.2086(3) 0.2758(3)
N27A_2 N -0.6066(5) 0.7914(3) -0.2758(3)
O82 O 0.8721(4) 0.3976(3) 0.4623(3)
O83 O 0.1922(4) 0.7365(3) 0.1474(3)
O84 O 0.3549(4) 0.5768(3) 0.1960(2)
O85 O 0.9525(5) 0.8050(3) 0.4697(3)
O86 O 0.9803(6) 0.4525(4) 0.8186(3)
O87 O 0.2773(6) 0.8392(3) 0.4489(3)
O88 O 0.2629(8) 0.1533(5) 0.1435(6)
O89 O 0.4419(10) 0.9559(6) 0.1668(11)
O90 O 0.3671(12) 0.8438(9) 0.8661(8)
loop_
_geom_bond_atom_site_label_1
_geom_bond_atom_site_label_2
_geom_bond_site_symmetry_1
_geom_bond_site_symmetry_2
Mo1 O34 1_555 1_555
Mo2 O39 1_555 1_555
Mo3 O37 1_555 1_555
Mo4 O35 1_555 1_555
Mo5 O34 1_555 1_555
Mo6 O3 1_555 1_555
Mo7 O1 1_555 1_555
Mo8 O2 1_555 1_555
Mo9 O2 1_555 1_555
Mo10 O4 1_555 1_555
Mo11 O24 1_555 1_555
Mo12 O24 1_555 1_555
Mo13 O19 1_555 1_555
Mo14 O20 1_555 1_555
Mo15 O31 1_555 1_555
Ni1 O62 1_555 1_555
Ni2 O49 1_555 1_555
Ni3 O26 1_555 1_555
Ni4 O15 1_555 1_555
Ni5 O18 1_555 1_555
Ni6 O53 1_555 1_555
P1 O1 1_555 1_555
P2 O21 1_555 1_555
P3 O29 1_555 1_555
P4 O35 1_555 1_555
P5 O43 1_555 1_555
P6 O6 1_555 1_555
O2 P1 1_555 1_555
O3 Mo7 1_555 1_555
O4 Mo6 1_555 1_555
O5 Mo6 1_555 1_555
O6 Mo9 1_555 1_555
O7 Mo6 1_555 1_555
O8 Mo9 1_555 1_555
O9 Mo9 1_555 1_555
O10 Mo8 1_555 1_555
O11 Mo8 1_555 1_555
O12 Mo7 1_555 1_555
O13 Mo8 1_555 1_555
O14 Mo7 1_555 1_555
O15 Mo9 1_555 1_555
O16 Mo10 1_555 1_555
O17 Mo8 1_555 1_555
O18 Mo7 1_555 1_555
O21 Mo11_2 1_555 1_555
O22 P2 1_555 1_555
O23 P2 1_555 1_555
O25 Mo12 1_555 1_555
O26 Mo12 1_555 1_555
O27 Mo12 1_555 1_555
O28 Mo13 1_555 1_555
O29 Mo13 1_555 1_555
O30 Mo13 1_555 1_555
O31 Mo14 1_555 1_555
O32 Mo15 1_555 1_555
O33 Mo14 1_555 1_555
O35 Mo5 1_555 1_555
O36 Mo1 1_555 1_555
O37 P4 1_555 1_555
O38 Mo3 1_555 1_555
O40 Mo2 1_555 1_555
O41 Mo3 1_555 1_555
O42 Mo1 1_555 1_555
O43 Mo2 1_555 1_555
O44 Mo1 1_555 1_555
O45 Mo1 1_555 1_555
O46 Mo4 1_555 1_555
O47 Mo4 1_555 1_555
O48 Mo2 1_555 1_555
O49 Mo3 1_555 1_555
O50 Mo6 1_555 1_555
O51 Mo10 1_555 1_555
O52 Mo11 1_555 1_555
O53 Mo14 1_555 1_555
O54 Mo15 1_555 1_555
O55 Mo11 1_555 1_555
O56 Mo11 1_555 1_555
O57 Mo4 1_555 1_555
O58 Mo11 1_555 1_555
O59 Mo1 1_555 1_555
O60 Mo5 1_555 1_555
O61 Mo4 1_555 1_555
O62 Mo5 1_555 1_555
O63 Mo6 1_555 1_555
O64 Ni1 1_555 1_555
O65 Ni1 1_555 1_555
O66 Ni1 1_555 1_555
O67 Ni2 1_555 1_555
O68 Ni2 1_555 1_555
O69 Ni2 1_555 1_555
O70 Ni3 1_555 1_555
O71 Ni3 1_555 1_555
O72 Ni3 1_555 1_555
O73 Ni4 1_555 1_555
O74 Ni4 1_555 1_555
O75 Ni4 1_555 1_555
O76 Ni5 1_555 1_555
O77 Ni5 1_555 1_555
O78 Ni5 1_555 1_555
O79 Ni6 1_555 1_555
O80 Ni6 1_555 1_555
O81 Ni6 1_555 1_555
C1 C2 1_555 1_555
C2 C3 1_555 1_555
C3 H1 1_555 1_555
C4 C3 1_555 1_555
H2 C4 1_555 1_555
C5 C2 1_555 1_555
H3 C5 1_555 1_555
C6 C5 1_555 1_555
H4 C6 1_555 1_555
C7 C8 1_555 1_555
C8 C9 1_555 1_555
C9 H5 1_555 1_555
C10 C9 1_555 1_555
H6 C10 1_555 1_555
C11 H7 1_555 1_555
C12 C8 1_555 1_555
H8 C12 1_555 1_555
C13 C14 1_555 1_555
C14 C15 1_555 1_555
C15 H9 1_555 1_555
C16 C15 1_555 1_555
H10 C16 1_555 1_555
C17 C14 1_555 1_555
H11 C17 1_555 1_555
C18 C17 1_555 1_555
H12 C18 1_555 1_555
C19 C20 1_555 1_555
C20 H13 1_555 1_555
C21 C20 1_555 1_555
H14 C21 1_555 1_555
C22 C19 1_555 1_555
H15 C22 1_555 1_555
C23 C22 1_555 1_555
H16 C23 1_555 1_555
C24 C25 1_555 1_555
C25 C26 1_555 1_555
C26 H17 1_555 1_555
C27 C26 1_555 1_555
H18 C27 1_555 1_555
C28 C25 1_555 1_555
H19 C28 1_555 1_555
C29 C28 1_555 1_555
H20 C29 1_555 1_555
C30 C31 1_555 1_555
C31 C32 1_555 1_555
C32 H21 1_555 1_555
C33 C32 1_555 1_555
H22 C33 1_555 1_555
C34 C31 1_555 1_555
H23 C34 1_555 1_555
C35 C34 1_555 1_555
H24 C35 1_555 1_555
C36 P4 1_555 1_555
H25 C36 1_555 1_555
H26 C36 1_555 1_555
C37 P2 1_555 1_555
H27 C37 1_555 1_555
H28 C37 1_555 1_555
C38 P5 1_555 1_555
H29 C38 1_555 1_555
H30 C38 1_555 1_555
C39 P6 1_555 1_555
H31 C39 1_555 1_555
H32 C39 1_555 1_555
C40 P3 1_555 1_555
H33 C40 1_555 1_555
H34 C40 1_555 1_555
C41 P1 1_555 1_555
H35 C41 1_555 1_555
H36 C41 1_555 1_555
C42 C19 1_555 1_555
N1 C1 1_555 1_555
N2 Ni2 1_555 1_555
N3 Ni3 1_555 1_555
N4 C1 1_555 1_555
N5 C4 1_555 1_555
H37 N5 1_555 1_555
N6 C7 1_555 1_555
N7 Ni2 1_555 1_555
N8 Ni3 1_555 1_555
N9 C7 1_555 1_555
N10 C10 1_555 1_555
H38 N10 1_555 1_555
N11 Ni4 1_555 1_555
N12 C13 1_555 1_555
N13 N11 1_555 1_555
N14 C13 1_555 1_555
N15 C16 1_555 1_555
H39 N15 1_555 1_555
N16 Ni5 1_555 1_555
N17 N16 1_555 1_555
N18 C24 1_555 1_555
N19 C24 1_555 1_555
N20 C27 1_555 1_555
H40 N20 1_555 1_555
N21 Ni6 1_555 1_555
N22 C42 1_555 1_555
N23 N21 1_555 1_555
N24 C42 1_555 1_555
N25 C21 1_555 1_555
H41 N25 1_555 1_555
N26 C30 1_555 1_555
N27 N26 1_555 1_555
N28 Ni6 1_555 1_555
N29 C30 1_555 1_555
N30 C33 1_555 1_555
H42 N30 1_555 1_555
P1A O1A 1_555 1_555
O1A Mo7A 1_555 1_555
O2A P1A 1_555 1_555
O4A P1A 1_555 1_555
C41A C41 1_555 1_555
H35A C41A 1_555 1_555
H36A C41A 1_555 1_555
P5A O43A 1_555 1_555
O43A Mo2A_2 1_555 1_555
O44A P5A 1_555 1_555
O46A P5A 1_555 1_555
C38A C38 1_555 1_555
H29A C38A 1_555 1_555
H30A C38A 1_555 1_555
Mo1A O34A 1_555 1_555
Mo2A O39A 1_555 1_555
Mo3A O37A 1_555 1_555
Mo4A O35A 1_555 1_555
Mo5A O34A 1_555 1_555
Mo6A O4A 1_555 1_555
Mo7A O3A 1_555 1_555
Mo8A O2A 1_555 1_555
Mo9A O2A 1_555 1_555
Mo10A O4A 1_555 1_555
Mo11A O24A 1_555 1_555
Mo12A O24A 1_555 1_555
Mo13A O19A 1_555 1_555
Mo14A O20A 1_555 1_555
Mo15A O31A 1_555 1_555
Ni1A O62A 1_555 1_555
Ni2A O49A 1_555 1_555
Ni3A O26A 1_555 1_555
Ni4A O15A 1_555 1_555
Ni5A O18A 1_555 1_555
Ni6A O53A 1_555 1_555
P2A O21A 1_555 1_555
P3A O29A 1_555 1_555
P4A O35A 1_555 1_555
P6A O6A 1_555 1_555
O3A Mo6A 1_555 1_555
O5A Mo6A 1_555 1_555
O6A Mo9A 1_555 1_555
O7A Mo6A 1_555 1_555
O8A Mo9A 1_555 1_555
O9A Mo9A 1_555 1_555
O10A Mo8A 1_555 1_555
O11A Mo8A 1_555 1_555
O12A Mo7A 1_555 1_555
O13A Mo8A 1_555 1_555
O14A Mo7A 1_555 1_555
O15A Mo9A 1_555 1_555
O16A Mo10A 1_555 1_555
O17A Mo8A 1_555 1_555
O18A Mo7A 1_555 1_555
O21A Mo11A_2 1_555 1_555
O22A P2A 1_555 1_555
O23A P2A 1_555 1_555
O25A Mo12A 1_555 1_555
O26A Mo12A 1_555 1_555
O27A Mo12A 1_555 1_555
O28A Mo13A 1_555 1_555
O29A Mo13A 1_555 1_555
O30A Mo13A 1_555 1_555
O31A Mo14A 1_555 1_555
O32A Mo15A 1_555 1_555
O33A Mo14A 1_555 1_555
O35A Mo5A 1_555 1_555
O36A Mo1A 1_555 1_555
O37A P4A 1_555 1_555
O38A Mo3A 1_555 1_555
O40A Mo2A 1_555 1_555
O41A Mo3A 1_555 1_555
O42A Mo1A 1_555 1_555
O45A Mo1A 1_555 1_555
O47A Mo4A 1_555 1_555
O48A Mo2A 1_555 1_555
O49A Mo3A 1_555 1_555
O50A Mo6A 1_555 1_555
O51A Mo10A 1_555 1_555
O52A Mo11A 1_555 1_555
O53A Mo14A 1_555 1_555
O54A Mo15A 1_555 1_555
O55A Mo11A 1_555 1_555
O56A Mo11A 1_555 1_555
O57A Mo4A 1_555 1_555
O58A Mo11A 1_555 1_555
O59A Mo1A 1_555 1_555
O60A Mo5A 1_555 1_555
O61A Mo4A 1_555 1_555
O62A Mo5A 1_555 1_555
O63A Mo6A 1_555 1_555
O64A Ni1A 1_555 1_555
O65A Ni1A 1_555 1_555
O66A Ni1A 1_555 1_555
O67A Ni2A 1_555 1_555
O68A Ni2A 1_555 1_555
O69A Ni2A 1_555 1_555
O70A Ni3A 1_555 1_555
O71A Ni3A 1_555 1_555
O72A Ni3A 1_555 1_555
O73A Ni4A 1_555 1_555
O74A Ni4A 1_555 1_555
O75A Ni4A 1_555 1_555
O76A Ni5A 1_555 1_555
O77A Ni5A 1_555 1_555
O78A Ni5A 1_555 1_555
O79A Ni6A 1_555 1_555
O80A Ni6A 1_555 1_555
O81A Ni6A 1_555 1_555
C1A C2A 1_555 1_555
C2A C3A 1_555 1_555
C3A H1A 1_555 1_555
C4A C3A 1_555 1_555
H2A C4A 1_555 1_555
C5A C2A 1_555 1_555
H3A C5A 1_555 1_555
C6A C5A 1_555 1_555
H4A C6A 1_555 1_555
C7A C8A 1_555 1_555
C8A C9A 1_555 1_555
C9A H5A 1_555 1_555
C10A C9A 1_555 1_555
H6A C10A 1_555 1_555
C11A H7A 1_555 1_555
C12A C8A 1_555 1_555
H8A C12A 1_555 1_555
C13A C14A 1_555 1_555
C14A C15A 1_555 1_555
C15A H9A 1_555 1_555
C16A C15A 1_555 1_555
H10A C16A 1_555 1_555
C17A C14A 1_555 1_555
H11A C17A 1_555 1_555
C18A C17A 1_555 1_555
H12A C18A 1_555 1_555
C19A C20A 1_555 1_555
C20A H13A 1_555 1_555
C21A C20A 1_555 1_555
H14A C21A 1_555 1_555
C22A C19A 1_555 1_555
H15A C22A 1_555 1_555
C23A C22A 1_555 1_555
H16A C23A 1_555 1_555
C24A C25A 1_555 1_555
C25A C26A 1_555 1_555
C26A H17A 1_555 1_555
C27A C26A 1_555 1_555
H18A C27A 1_555 1_555
C28A C25A 1_555 1_555
H19A C28A 1_555 1_555
C29A C28A 1_555 1_555
H20A C29A 1_555 1_555
C30A C31A 1_555 1_555
C31A C32A 1_555 1_555
C32A H21A 1_555 1_555
C33A C32A 1_555 1_555
H22A C33A 1_555 1_555
C34A C31A 1_555 1_555
H23A C34A 1_555 1_555
C35A C34A 1_555 1_555
H24A C35A 1_555 1_555
C36A P4A 1_555 1_555
H25A C36A 1_555 1_555
H26A C36A 1_555 1_555
C37A P2A 1_555 1_555
H27A C37A 1_555 1_555
H28A C37A 1_555 1_555
C39A P6A 1_555 1_555
H31A C39A 1_555 1_555
H32A C39A 1_555 1_555
C40A P3A 1_555 1_555
H33A C40A 1_555 1_555
H34A C40A 1_555 1_555
C42A C19A 1_555 1_555
N1A C1A 1_555 1_555
N2A Ni2A 1_555 1_555
N3A Ni3A 1_555 1_555
N4A C1A 1_555 1_555
N5A C4A 1_555 1_555
H37A N5A 1_555 1_555
N6A C7A 1_555 1_555
N7A Ni2A 1_555 1_555
N8A Ni3A 1_555 1_555
N9A C7A 1_555 1_555
N10A C10A 1_555 1_555
H38A N10A 1_555 1_555
N11A Ni4A 1_555 1_555
N12A C13A 1_555 1_555
N13A N11A 1_555 1_555
N14A C13A 1_555 1_555
N15A C16A 1_555 1_555
H39A N15A 1_555 1_555
N16A Ni5A 1_555 1_555
N17A N16A 1_555 1_555
N18A C24A 1_555 1_555
N19A C24A 1_555 1_555
N20A C27A 1_555 1_555
H40A N20A 1_555 1_555
N21A Ni6A 1_555 1_555
N22A C42A 1_555 1_555
N23A N21A 1_555 1_555
N24A C42A 1_555 1_555
N25A C21A 1_555 1_555
H41A N25A 1_555 1_555
N26A C30A 1_555 1_555
N27A N26A 1_555 1_555
N28A Ni6A 1_555 1_555
N29A C30A 1_555 1_555
N30A C33A 1_555 1_555
H42A N30A 1_555 1_555
Mo1A_2 O44A 1_555 1_555
Mo3A_2 O43A 1_555 1_555
Mo4A_2 O46A 1_555 1_555
Mo5A_2 O44A 1_555 1_555
Mo12_2 O23 1_555 1_555
Mo12A_2 O23A 1_555 1_555
Mo13_2 O22 1_555 1_555
Mo13A_2 O22A 1_555 1_555
Mo14_2 O22 1_555 1_555
Mo14A_2 O22A 1_555 1_555
Mo15_2 O21 1_555 1_555
Mo15A_2 O21A 1_555 1_555
Ni1_2 N23 1_555 1_555
Ni1A_2 N23A 1_555 1_555
Ni4_2 N13A 1_555 1_555
Ni4A_2 N13 1_555 1_555
Ni5_2 N17A 1_555 1_555
Ni5A_2 N17 1_555 1_555
O21_2 Mo11 1_555 1_555
O21A_2 Mo11A 1_555 1_555
O22_2 Mo13 1_555 1_555
O22A_2 Mo13A 1_555 1_555
O23_2 Mo12 1_555 1_555
O23A_2 Mo12A 1_555 1_555
O43A_2 Mo2A 1_555 1_555
O44A_2 Mo1A 1_555 1_555
O46A_2 Mo4A 1_555 1_555
N13_2 Ni4A 1_555 1_555
N13A_2 Ni4 1_555 1_555
N17_2 Ni5A 1_555 1_555
N17A_2 Ni5 1_555 1_555
N23_2 Ni1 1_555 1_555
N23A_2 Ni1A 1_555 1_555
N27_2 Ni1 1_555 1_555
N27A_2 Ni1A 1_555 1_555
Mo2 O42 1_555 1_555
Mo2 O45 1_555 1_555
Mo3 O43 1_555 1_555
Mo3 O48 1_555 1_555
Mo4 O41 1_555 1_555
Mo5 O44 1_555 1_555
Mo5 O61 1_555 1_555
Mo7 O7 1_555 1_555
Mo8 O12 1_555 1_555
Mo9 O11 1_555 1_555
Mo10 O5 1_555 1_555
Mo10 O6 1_555 1_555
Mo10 O8 1_555 1_555
Mo12 O58 1_555 1_555
Mo13 O27 1_555 1_555
Mo14 O30 1_555 1_555
Mo14 O22_2 1_555 1_555
Mo15 O33 1_555 1_555
Mo15 O52 1_555 1_555
Mo15 O21_2 1_555 1_555
P1 O4 1_555 1_555
P3 O31 1_555 1_555
P3 O58 1_555 1_555
P4 O45 1_555 1_555
P5 O44 1_555 1_555
P5 O46 1_555 1_555
P6 O7 1_555 1_555
P6 O10 1_555 1_555
C6 N5 1_555 1_555
C11 C12 1_555 1_555
C11 N10 1_555 1_555
C18 N15 1_555 1_555
C23 N25 1_555 1_555
C29 N20 1_555 1_555
C35 N30 1_555 1_555
C36 C37 1_555 1_555
C39 C40 1_555 1_555
N1 N2 1_555 1_555
N2 N3 1_555 1_555
N3 N4 1_555 1_555
N6 N7 1_555 1_555
N7 N8 1_555 1_555
N8 N9 1_555 1_555
N11 N12 1_555 1_555
N13 N14 1_555 1_555
N16 N19 1_555 1_555
N17 N18 1_555 1_555
N21 N22 1_555 1_555
N23 N24 1_555 1_555
N27 N28 1_555 1_555
N27 Ni1_2 1_555 1_555
N28 N29 1_555 1_555
P1A C41A 1_555 1_555
P5A C38A 1_555 1_555
Mo2A O42A 1_555 1_555
Mo2A O45A 1_555 1_555
Mo3A O48A 1_555 1_555
Mo3A O43A_2 1_555 1_555
Mo4A O41A 1_555 1_555
Mo5A O61A 1_555 1_555
Mo5A O44A_2 1_555 1_555
Mo7A O7A 1_555 1_555
Mo8A O12A 1_555 1_555
Mo9A O11A 1_555 1_555
Mo10A O5A 1_555 1_555
Mo10A O6A 1_555 1_555
Mo10A O8A 1_555 1_555
Mo12A O58A 1_555 1_555
Mo13A O27A 1_555 1_555
Mo14A O30A 1_555 1_555
Mo14A O22A_2 1_555 1_555
Mo15A O33A 1_555 1_555
Mo15A O52A 1_555 1_555
Mo15A O21A_2 1_555 1_555
P3A O31A 1_555 1_555
P3A O58A 1_555 1_555
P4A O45A 1_555 1_555
P6A O7A 1_555 1_555
P6A O10A 1_555 1_555
C6A N5A 1_555 1_555
C11A C12A 1_555 1_555
C11A N10A 1_555 1_555
C18A N15A 1_555 1_555
C23A N25A 1_555 1_555
C29A N20A 1_555 1_555
C35A N30A 1_555 1_555
C36A C37A 1_555 1_555
C39A C40A 1_555 1_555
N1A N2A 1_555 1_555
N2A N3A 1_555 1_555
N3A N4A 1_555 1_555
N6A N7A 1_555 1_555
N7A N8A 1_555 1_555
N8A N9A 1_555 1_555
N11A N12A 1_555 1_555
N13A N14A 1_555 1_555
N16A N19A 1_555 1_555
N17A N18A 1_555 1_555
N21A N22A 1_555 1_555
N23A N24A 1_555 1_555
N27A N28A 1_555 1_555
N27A Ni1A_2 1_555 1_555
N28A N29A 1_555 1_555

#END
