
#######################################################################
#
#                 Cambridge Crystallographic Data Centre
#                                CCDC 
#
#######################################################################
#
# If this CIF has been generated from an entry in the Cambridge 
# Structural Database, then it will include bibliographic, chemical, 
# crystal, experimental, refinement or atomic coordinate data resulting 
# from the CCDC's data processing and validation procedures.
#
#######################################################################

data_ZEZSAA
_symmetry_cell_setting           triclinic
_symmetry_space_group_name_H-M   'P -1'
_symmetry_Int_Tables_number      2
_space_group_name_Hall           '-P 1'
loop_
_symmetry_equiv_pos_site_id
_symmetry_equiv_pos_as_xyz
1 x,y,z
2 -x,-y,-z
_cell_length_a                   13.3722(9)
_cell_length_b                   20.7095(14)
_cell_length_c                   22.3043(16)
_cell_angle_alpha                98.1860(10)
_cell_angle_beta                 94.3680(10)
_cell_angle_gamma                100.2390(10)
_cell_volume                     5983.73
loop_
_atom_site_label
_atom_site_type_symbol
_atom_site_fract_x
_atom_site_fract_y
_atom_site_fract_z
Mo1 Mo 1.34599(4) 0.31141(3) 0.52792(3)
Mo2 Mo 1.15387(4) 0.39395(3) 0.50761(2)
Mo3 Mo 1.11737(4) 0.40908(3) 0.35870(2)
Mo4 Mo 1.34431(4) 0.36507(3) 0.29194(3)
Mo5 Mo 1.45504(5) 0.28712(4) 0.39636(4)
Mo6 Mo 0.47895(4) 0.74580(3) 0.13263(3)
Mo7 Mo 0.48326(4) 0.73657(3) -0.01949(3)
Mo8 Mo 0.72236(4) 0.68363(3) -0.05221(2)
Mo9 Mo 0.79636(4) 0.61825(3) 0.07180(2)
Mo10 Mo 0.65031(4) 0.65841(3) 0.18296(2)
Mo11 Mo 1.16592(5) 0.94645(3) 0.17706(3)
Mo12 Mo 1.16832(4) 0.92773(3) 0.32502(3)
Mo13 Mo 0.93100(5) 0.97058(3) 0.37582(3)
Mo14 Mo 0.84169(4) 1.04863(3) 0.26535(3)
Mo15 Mo 0.97767(5) 1.02953(3) 0.14509(3)
Co1 Co 1.48923(8) 0.13464(5) 0.29587(6)
Co2 Co 1.19970(6) 0.58644(4) 0.34620(4)
Co3 Co 1.07440(6) 0.74203(4) 0.30945(4)
Co4 Co 0.84555(6) 0.46810(4) -0.02636(4)
Co5 Co 0.57290(7) 0.92081(5) -0.00552(5)
Co6 Co 0.79532(6) 1.19876(5) 0.36708(4)
P1 P 0.53692(12) 0.60646(8) 0.03631(7)
P2 P 1.10284(12) 0.06613(9) 0.29166(7)
P3 P 0.93200(12) 0.90300(9) 0.22865(8)
P4 P 1.19296(12) 0.27201(8) 0.38851(7)
P5 P 1.37365(12) 0.43471(9) 0.44024(8)
P6 P 0.71719(12) 0.77002(9) 0.08731(8)
O1 O 0.4649(3) 0.6296(2) -0.00877(19)
O2 O 0.6471(3) 0.6211(2) 0.01818(19)
O3 O 0.4133(3) 0.7355(2) 0.0520(2)
O4 O 0.5292(3) 0.6402(2) 0.10170(19)
O5 O 0.5890(3) 0.7353(2) 0.1881(2)
O6 O 0.7414(3) 0.7093(2) 0.1146(2)
O7 O 0.6011(3) 0.7651(2) 0.0746(2)
O8 O 0.7046(3) 0.5909(2) 0.13069(19)
O9 O 0.9077(3) 0.6465(2) 0.1183(2)
O10 O 0.7643(3) 0.7759(2) 0.0281(2)
O11 O 0.8272(3) 0.6634(2) 0.00509(19)
O12 O 0.5972(3) 0.7110(2) -0.0575(2)
O13 O 0.6975(4) 0.6120(2) -0.1037(2)
O14 O 0.3832(3) 0.7147(2) -0.0743(2)
O15 O 0.8048(3) 0.5389(2) 0.0395(2)
O16 O 0.5701(3) 0.6047(2) 0.2165(2)
O17 O 0.7983(3) 0.7373(2) -0.0885(2)
O18 O 0.5220(3) 0.8204(2) -0.0200(2)
O19 O 0.8647(4) 0.9089(3) 0.4091(2)
O20 O 0.7251(4) 1.0218(3) 0.2238(3)
O21 O 1.1061(3) 0.0439(2) 0.2236(2)
O22 O 0.9949(3) 0.0453(2) 0.3115(2)
O23 O 1.1791(3) 0.0381(2) 0.3293(2)
O24 O 1.2362(3) 0.9435(2) 0.2556(2)
O25 O 1.2701(4) 0.9445(3) 0.3799(2)
O26 O 1.1347(3) 0.8425(2) 0.3157(2)
O27 O 1.0574(4) 0.9452(2) 0.3705(2)
O28 O 0.9533(4) 1.0376(3) 0.4320(2)
O29 O 0.8899(3) 0.8861(2) 0.2870(2)
O30 O 0.8195(4) 0.9934(2) 0.3262(2)
O31 O 0.8982(3) 0.9657(2) 0.2105(2)
O32 O 1.0483(4) 1.0920(3) 0.1152(2)
O33 O 0.9238(3) 1.0870(2) 0.2069(2)
O34 O 1.3878(4) 0.2513(2) 0.4626(2)
O35 O 1.2948(3) 0.2915(2) 0.3617(2)
O36 O 1.2789(4) 0.2510(2) 0.5617(2)
O37 O 1.1112(3) 0.2995(2) 0.35424(19)
O38 O 1.0087(3) 0.3910(2) 0.3099(2)
O39 O 1.0695(4) 0.3442(2) 0.5422(2)
O40 O 1.1500(4) 0.4721(2) 0.5414(2)
O41 O 1.2203(3) 0.3959(2) 0.3049(2)
O42 O 1.2825(4) 0.3843(2) 0.5485(2)
O43 O 1.2577(3) 0.4272(2) 0.44028(19)
O44 O 1.4098(3) 0.3715(2) 0.4556(2)
O45 O 1.2017(3) 0.2965(2) 0.4572(2)
O46 O 1.4023(3) 0.4496(2) 0.3782(2)
O47 O 1.4052(3) 0.4241(2) 0.2548(2)
O48 O 1.0663(3) 0.3918(2) 0.43339(19)
O49 O 1.1463(3) 0.4944(2) 0.3697(2)
O50 O 0.4791(4) 0.8281(2) 0.1551(2)
O51 O 0.7501(4) 0.6886(2) 0.2378(2)
O52 O 1.0477(4) 0.9581(3) 0.1286(2)
O53 O 0.8319(4) 1.1242(2) 0.3058(2)
O54 O 0.8746(5) 1.0005(3) 0.0921(2)
O55 O 1.2618(5) 1.0002(3) 0.1536(3)
O56 O 1.1759(5) 0.8702(3) 0.1408(2)
O57 O 1.3059(4) 0.2986(3) 0.2362(2)
O58 O 1.0491(3) 0.9127(2) 0.23699(19)
O59 O 1.4574(4) 0.3385(3) 0.5744(3)
O60 O 1.5767(4) 0.3139(3) 0.4293(3)
O61 O 1.4627(3) 0.3395(2) 0.3330(2)
O62 O 1.4556(5) 0.2095(3) 0.3565(3)
O63 O 0.3795(4) 0.7056(2) 0.1663(2)
O64 O 1.3778(5) 0.0708(4) 0.3278(7)
O65 O 1.3787(8) 0.1661(4) 0.2394(6)
O66 O 1.5057(13) 0.0609(5) 0.2308(5)
O67 O 1.3458(3) 0.5736(2) 0.3731(2)
O68 O 1.2079(4) 0.5274(2) 0.2596(2)
O69 O 1.1828(4) 0.6406(2) 0.4298(2)
O70 O 1.0447(4) 0.7283(3) 0.2150(2)
O71 O 1.0998(3) 0.7523(2) 0.4051(2)
O72 O 0.9285(3) 0.7657(2) 0.3175(2)
O73 O 0.7318(3) 0.4891(2) -0.0851(2)
O74 O 0.8835(4) 0.3969(2) -0.0920(2)
O75 O 0.7388(3) 0.3917(2) -0.0032(2)
O76 O 0.7245(4) 0.9044(3) 0.0011(3)
O77 O 0.5775(5) 0.9252(3) 0.0897(3)
O78 O 0.5852(5) 0.9186(3) -0.0989(3)
O79 O 0.9098(4) 1.2665(3) 0.3442(3)
O80 O 0.9043(4) 1.1698(3) 0.4288(2)
O81 O 0.7646(4) 1.2695(2) 0.4343(2)
C1 C 1.3857(5) 0.7565(3) 0.3113(3)
C2 C 1.4870(5) 0.7971(4) 0.3113(3)
C3 C 1.5741(5) 0.7749(4) 0.3295(3)
H1 H 1.5696 0.7328 0.3425
C4 C 1.6684(6) 0.8152(5) 0.3285(4)
H2 H 1.7293 0.8014 0.3418
C5 C 1.4948(6) 0.8573(4) 0.2926(3)
H3 H 1.4351 0.8734 0.2812
C6 C 1.5903(6) 0.8950(5) 0.2903(3)
H4 H 1.5970 0.9363 0.2757
C7 C 0.8862(5) 0.5642(3) 0.3174(3)
C8 C 0.7856(5) 0.5276(3) 0.3238(3)
C9 C 0.7747(5) 0.4656(3) 0.3407(3)
H5 H 0.8320 0.4447 0.3449
C10 C 0.6780(6) 0.4340(4) 0.3517(3)
H6 H 0.6682 0.3915 0.3641
C11 C 0.6063(5) 0.5239(4) 0.3260(3)
H7 H 0.5471 0.5425 0.3198
C12 C 0.7006(5) 0.5577(4) 0.3159(3)
H8 H 0.7078 0.6004 0.3040
C13 C 1.0125(5) 0.6183(3) -0.1043(3)
C14 C 1.0190(5) 0.6726(3) -0.1399(3)
C15 C 0.9325(5) 0.6843(4) -0.1728(3)
H9 H 0.8694 0.6538 -0.1772
C16 C 0.9413(5) 0.7416(4) -0.1990(3)
H10 H 0.8832 0.7506 -0.2213
C17 C 1.1123(5) 0.7181(3) -0.1366(3)
H11 H 1.1723 0.7100 -0.1157
C18 C 1.1159(5) 0.7737(3) -0.1637(3)
H12 H 1.1784 0.8045 -0.1616
C19 C 0.6206(6) 0.9775(4) 0.4518(3)
C20 C 0.7093(6) 0.9688(4) 0.4849(3)
H13 H 0.7705 1.0010 0.4887
C21 C 0.7065(7) 0.9130(5) 0.5118(4)
H14 H 0.7663 0.9062 0.5340
C22 C 0.5316(6) 0.9290(4) 0.4478(3)
H15 H 0.4709 0.9339 0.4252
C23 C 0.5320(7) 0.8748(4) 0.4760(4)
H16 H 0.4714 0.8424 0.4741
C24 C 0.2605(5) 0.8931(3) -0.0008(3)
C25 C 0.1636(5) 0.8490(3) 0.0030(3)
C26 C 0.1605(5) 0.7844(4) 0.0139(3)
H17 H 0.2215 0.7671 0.0179
C27 C 0.0672(5) 0.7457(4) 0.0189(3)
H18 H 0.0631 0.7015 0.0268
C28 C 0.0734(5) 0.8736(4) -0.0036(3)
H19 H 0.0749 0.9179 -0.0108
C29 C -0.0180(5) 0.8322(4) 0.0007(3)
H20 H -0.0806 0.8473 -0.0047
C30 C 0.6624(5) 1.2976(4) 0.2406(3)
C31 C 0.6659(6) 1.3549(4) 0.2092(3)
C32 C 0.7610(6) 1.3954(4) 0.2040(3)
H21 H 0.8231 1.3843 0.2191
C33 C 0.7620(6) 1.4515(4) 0.1767(3)
H22 H 0.8252 1.4786 0.1720
C34 C 0.5773(6) 1.3727(4) 0.1854(3)
H23 H 0.5127 1.3452 0.1864
C35 C 0.5829(6) 1.4294(4) 0.1608(3)
H24 H 0.5220 1.4423 0.1462
C36 C 1.1598(5) 0.1832(3) 0.3758(3)
H25 H 1.2174 0.1648 0.3927
H26 H 1.0997 0.1691 0.3975
C37 C 1.1350(5) 0.1551(3) 0.3076(3)
H27 H 1.1949 0.1703 0.2861
H28 H 1.0772 0.1735 0.2911
C38 C 1.4428(5) 0.5003(4) 0.4984(3)
H29 H 1.4305 0.5438 0.4890
H30 H 1.4179 0.4943 0.5383
C39 C 0.7707(5) 0.8399(4) 0.1451(3)
H31 H 0.7686 0.8816 0.1287
H32 H 0.7295 0.8394 0.1802
C40 C 0.8810(5) 0.8375(3) 0.1665(3)
H33 H 0.9233 0.8417 0.1322
H34 H 0.8837 0.7940 0.1795
C41 C 0.5005(5) 0.5184(3) 0.0327(3)
H35 H 0.5490 0.5029 0.0605
H36 H 0.4316 0.5079 0.0464
C42 C 0.6239(5) 1.0341(4) 0.4193(3)
N1 N 1.3690(4) 0.6942(3) 0.3249(3)
N2 N 1.2678(4) 0.6777(3) 0.3207(2)
N3 N 1.2268(4) 0.7275(3) 0.3052(2)
N4 N 1.2999(4) 0.7777(3) 0.2992(2)
N5 N 1.6731(5) 0.8724(5) 0.3090(3)
H37 H 1.7336 0.8971 0.3081
N6 N 0.9726(4) 0.5404(3) 0.3255(3)
N7 N 1.0469(4) 0.5912(3) 0.3209(2)
N8 N 1.0056(4) 0.6430(3) 0.3101(2)
N9 N 0.9041(4) 0.6273(3) 0.3071(2)
N10 N 0.5990(4) 0.4654(3) 0.3442(3)
H38 H 0.5385 0.4456 0.3519
N11 N 0.9529(4) 0.5411(3) -0.0574(2)
N12 N 0.9253(4) 0.5786(3) -0.0968(2)
N13 N 1.0537(4) 0.5582(3) -0.0416(2)
N14 N 1.0919(4) 0.6070(3) -0.0706(2)
N15 N 1.0299(4) 0.7844(3) -0.1935(2)
H39 H 1.0326 0.8208 -0.2098
N16 N 0.4166(4) 0.9258(3) -0.0067(3)
N17 N 0.3706(4) 0.9779(3) -0.0040(3)
N18 N 0.2717(4) 0.9573(3) 0.0004(3)
N19 N 0.3472(4) 0.8712(3) -0.0042(3)
N20 N -0.0178(4) 0.7711(3) 0.0123(3)
H40 H -0.0767 0.7459 0.0159
N21 N 0.6792(4) 1.1240(3) 0.3883(2)
N22 N 0.7048(4) 1.0831(3) 0.4259(3)
N23 N 0.5865(4) 1.0989(3) 0.3599(3)
N24 N 0.5506(4) 1.0421(3) 0.3790(3)
N25 N 0.6192(6) 0.8676(3) 0.5068(3)
H41 H 0.6191 0.8320 0.5243
N26 N 0.5779(5) 1.2509(3) 0.2379(3)
N27 N 0.6041(4) 1.2095(3) 0.2745(2)
N28 N 0.7006(4) 1.2307(3) 0.2982(3)
N29 N 0.7386(5) 1.2868(3) 0.2772(3)
N30 N 0.6741(5) 1.4674(3) 0.1569(3)
H42 H 0.6759 1.5040 0.1408
P1A P 0.46308(12) 0.39354(8) -0.03631(7)
O1A O 0.5351(3) 0.3704(2) 0.00877(19)
O2A O 0.3529(3) 0.3789(2) -0.01818(19)
O4A O 0.4708(3) 0.3598(2) -0.10170(19)
C41A C 0.4995(5) 0.4816(3) -0.0327(3)
H35A H 0.4510 0.4971 -0.0605
H36A H 0.5684 0.4921 -0.0464
P5A P 1.62635(12) 0.56529(9) 0.55976(8)
O43A O 1.7423(3) 0.5728(2) 0.55972(19)
O44A O 1.5902(3) 0.6285(2) 0.5444(2)
O46A O 1.5977(3) 0.5504(2) 0.6218(2)
C38A C 1.5572(5) 0.4997(4) 0.5016(3)
H29A H 1.5695 0.4562 0.5110
H30A H 1.5821 0.5057 0.4617
Mo1A Mo -0.34599(4) 0.68859(3) -0.52792(3)
Mo2A Mo -0.15387(4) 0.60605(3) -0.50761(2)
Mo3A Mo -0.11737(4) 0.59092(3) -0.35870(2)
Mo4A Mo -0.34431(4) 0.63493(3) -0.29194(3)
Mo5A Mo -0.45504(5) 0.71288(4) -0.39636(4)
Mo6A Mo 0.52105(4) 0.25420(3) -0.13263(3)
Mo7A Mo 0.51674(4) 0.26343(3) 0.01949(3)
Mo8A Mo 0.27764(4) 0.31637(3) 0.05221(2)
Mo9A Mo 0.20364(4) 0.38175(3) -0.07180(2)
Mo10A Mo 0.34969(4) 0.34159(3) -0.18296(2)
Mo11A Mo -0.16592(5) 0.05355(3) -0.17706(3)
Mo12A Mo -0.16832(4) 0.07227(3) -0.32502(3)
Mo13A Mo 0.06900(5) 0.02942(3) -0.37582(3)
Mo14A Mo 0.15831(4) -0.04863(3) -0.26535(3)
Mo15A Mo 0.02233(5) -0.02953(3) -0.14509(3)
Co1A Co -0.48923(8) 0.86536(5) -0.29587(6)
Co2A Co -0.19970(6) 0.41356(4) -0.34620(4)
Co3A Co -0.07440(6) 0.25797(4) -0.30945(4)
Co4A Co 0.15445(6) 0.53190(4) 0.02636(4)
Co5A Co 0.42710(7) 0.07919(5) 0.00552(5)
Co6A Co 0.20468(6) -0.19876(5) -0.36708(4)
P2A P -0.10284(12) 0.93387(9) -0.29166(7)
P3A P 0.06800(12) 0.09700(9) -0.22865(8)
P4A P -0.19296(12) 0.72799(8) -0.38851(7)
P6A P 0.28281(12) 0.22998(9) -0.08731(8)
O3A O 0.5867(3) 0.2645(2) -0.0520(2)
O5A O 0.4110(3) 0.2647(2) -0.1881(2)
O6A O 0.2586(3) 0.2907(2) -0.1146(2)
O7A O 0.3989(3) 0.2349(2) -0.0746(2)
O8A O 0.2954(3) 0.4091(2) -0.13069(19)
O9A O 0.0923(3) 0.3535(2) -0.1183(2)
O10A O 0.2357(3) 0.2241(2) -0.0281(2)
O11A O 0.1728(3) 0.3366(2) -0.00509(19)
O12A O 0.4028(3) 0.2890(2) 0.0575(2)
O13A O 0.3025(4) 0.3880(2) 0.1037(2)
O14A O 0.6168(3) 0.2853(2) 0.0743(2)
O15A O 0.1952(3) 0.4611(2) -0.0395(2)
O16A O 0.4299(3) 0.3953(2) -0.2165(2)
O17A O 0.2017(3) 0.2627(2) 0.0885(2)
O18A O 0.4780(3) 0.1796(2) 0.0200(2)
O19A O 0.1353(4) 0.0911(3) -0.4091(2)
O20A O 0.2749(4) -0.0218(3) -0.2238(3)
O21A O -0.1061(3) 0.9561(2) -0.2236(2)
O22A O 0.0051(3) 0.9547(2) -0.3115(2)
O23A O -0.1791(3) 0.9619(2) -0.3293(2)
O24A O -0.2362(3) 0.0565(2) -0.2556(2)
O25A O -0.2701(4) 0.0555(3) -0.3799(2)
O26A O -0.1347(3) 0.1575(2) -0.3157(2)
O27A O -0.0574(4) 0.0548(2) -0.3705(2)
O28A O 0.0467(4) -0.0376(3) -0.4320(2)
O29A O 0.1101(3) 0.1139(2) -0.2870(2)
O30A O 0.1805(4) 0.0066(2) -0.3262(2)
O31A O 0.1018(3) 0.0343(2) -0.2105(2)
O32A O -0.0483(4) -0.0920(3) -0.1152(2)
O33A O 0.0762(3) -0.0870(2) -0.2069(2)
O34A O -0.3878(4) 0.7487(2) -0.4626(2)
O35A O -0.2948(3) 0.7085(2) -0.3617(2)
O36A O -0.2789(4) 0.7490(2) -0.5617(2)
O37A O -0.1112(3) 0.7005(2) -0.35424(19)
O38A O -0.0087(3) 0.6090(2) -0.3099(2)
O39A O -0.0695(4) 0.6558(2) -0.5422(2)
O40A O -0.1500(4) 0.5279(2) -0.5414(2)
O41A O -0.2203(3) 0.6041(2) -0.3049(2)
O42A O -0.2825(4) 0.6157(2) -0.5485(2)
O45A O -0.2017(3) 0.7035(2) -0.4572(2)
O47A O -0.4052(3) 0.5759(2) -0.2548(2)
O48A O -0.0663(3) 0.6082(2) -0.43339(19)
O49A O -0.1463(3) 0.5056(2) -0.3697(2)
O50A O 0.5209(4) 0.1719(2) -0.1551(2)
O51A O 0.2499(4) 0.3114(2) -0.2378(2)
O52A O -0.0477(4) 0.0419(3) -0.1286(2)
O53A O 0.1681(4) -0.1242(2) -0.3058(2)
O54A O 0.1254(5) -0.0005(3) -0.0921(2)
O55A O -0.2618(5) -0.0002(3) -0.1536(3)
O56A O -0.1759(5) 0.1298(3) -0.1408(2)
O57A O -0.3059(4) 0.7014(3) -0.2362(2)
O58A O -0.0491(3) 0.0873(2) -0.23699(19)
O59A O -0.4574(4) 0.6615(3) -0.5744(3)
O60A O -0.5767(4) 0.6861(3) -0.4293(3)
O61A O -0.4627(3) 0.6605(2) -0.3330(2)
O62A O -0.4556(5) 0.7905(3) -0.3565(3)
O63A O 0.6205(4) 0.2944(2) -0.1663(2)
O64A O -0.3778(5) 0.9292(4) -0.3278(7)
O65A O -0.3787(8) 0.8339(4) -0.2394(6)
O66A O -0.5057(13) 0.9391(5) -0.2308(5)
O67A O -0.3458(3) 0.4264(2) -0.3731(2)
O68A O -0.2079(4) 0.4726(2) -0.2596(2)
O69A O -0.1828(4) 0.3594(2) -0.4298(2)
O70A O -0.0447(4) 0.2717(3) -0.2150(2)
O71A O -0.0998(3) 0.2477(2) -0.4051(2)
O72A O 0.0715(3) 0.2343(2) -0.3175(2)
O73A O 0.2682(3) 0.5109(2) 0.0851(2)
O74A O 0.1165(4) 0.6031(2) 0.0920(2)
O75A O 0.2612(3) 0.6083(2) 0.0032(2)
O76A O 0.2755(4) 0.0956(3) -0.0011(3)
O77A O 0.4225(5) 0.0748(3) -0.0897(3)
O78A O 0.4148(5) 0.0814(3) 0.0989(3)
O79A O 0.0902(4) -0.2665(3) -0.3442(3)
O80A O 0.0957(4) -0.1698(3) -0.4288(2)
O81A O 0.2354(4) -0.2695(2) -0.4343(2)
C1A C -0.3857(5) 0.2435(3) -0.3113(3)
C2A C -0.4870(5) 0.2029(4) -0.3113(3)
C3A C -0.5741(5) 0.2251(4) -0.3295(3)
H1A H -0.5696 0.2672 -0.3425
C4A C -0.6684(6) 0.1848(5) -0.3285(4)
H2A H -0.7293 0.1986 -0.3418
C5A C -0.4948(6) 0.1427(4) -0.2926(3)
H3A H -0.4351 0.1266 -0.2812
C6A C -0.5903(6) 0.1050(5) -0.2903(3)
H4A H -0.5970 0.0637 -0.2757
C7A C 0.1138(5) 0.4358(3) -0.3174(3)
C8A C 0.2144(5) 0.4724(3) -0.3238(3)
C9A C 0.2253(5) 0.5344(3) -0.3407(3)
H5A H 0.1680 0.5553 -0.3449
C10A C 0.3220(6) 0.5660(4) -0.3517(3)
H6A H 0.3318 0.6085 -0.3641
C11A C 0.3937(5) 0.4761(4) -0.3260(3)
H7A H 0.4529 0.4575 -0.3198
C12A C 0.2994(5) 0.4423(4) -0.3159(3)
H8A H 0.2922 0.3996 -0.3040
C13A C -0.0125(5) 0.3817(3) 0.1043(3)
C14A C -0.0190(5) 0.3274(3) 0.1399(3)
C15A C 0.0675(5) 0.3157(4) 0.1728(3)
H9A H 0.1306 0.3462 0.1772
C16A C 0.0587(5) 0.2584(4) 0.1990(3)
H10A H 0.1168 0.2494 0.2213
C17A C -0.1123(5) 0.2819(3) 0.1366(3)
H11A H -0.1723 0.2900 0.1157
C18A C -0.1159(5) 0.2263(3) 0.1637(3)
H12A H -0.1784 0.1955 0.1616
C19A C 0.3794(6) 0.0225(4) -0.4518(3)
C20A C 0.2907(6) 0.0312(4) -0.4849(3)
H13A H 0.2295 -0.0010 -0.4887
C21A C 0.2935(7) 0.0870(5) -0.5118(4)
H14A H 0.2337 0.0938 -0.5340
C22A C 0.4684(6) 0.0710(4) -0.4478(3)
H15A H 0.5291 0.0661 -0.4252
C23A C 0.4680(7) 0.1252(4) -0.4760(4)
H16A H 0.5286 0.1576 -0.4741
C24A C 0.7395(5) 0.1069(3) 0.0008(3)
C25A C 0.8364(5) 0.1510(3) -0.0030(3)
C26A C 0.8395(5) 0.2156(4) -0.0139(3)
H17A H 0.7785 0.2329 -0.0179
C27A C 0.9328(5) 0.2543(4) -0.0189(3)
H18A H 0.9369 0.2985 -0.0268
C28A C 0.9266(5) 0.1264(4) 0.0036(3)
H19A H 0.9251 0.0821 0.0108
C29A C 1.0180(5) 0.1678(4) -0.0007(3)
H20A H 1.0806 0.1527 0.0047
C30A C 0.3376(5) -0.2976(4) -0.2406(3)
C31A C 0.3341(6) -0.3549(4) -0.2092(3)
C32A C 0.2390(6) -0.3954(4) -0.2040(3)
H21A H 0.1769 -0.3843 -0.2191
C33A C 0.2380(6) -0.4515(4) -0.1767(3)
H22A H 0.1748 -0.4786 -0.1720
C34A C 0.4227(6) -0.3727(4) -0.1854(3)
H23A H 0.4873 -0.3452 -0.1864
C35A C 0.4171(6) -0.4294(4) -0.1608(3)
H24A H 0.4780 -0.4423 -0.1462
C36A C -0.1598(5) 0.8168(3) -0.3758(3)
H25A H -0.2174 0.8352 -0.3927
H26A H -0.0997 0.8309 -0.3975
C37A C -0.1350(5) 0.8449(3) -0.3076(3)
H27A H -0.1949 0.8297 -0.2861
H28A H -0.0772 0.8265 -0.2911
C39A C 0.2293(5) 0.1601(4) -0.1451(3)
H31A H 0.2314 0.1184 -0.1287
H32A H 0.2705 0.1606 -0.1802
C40A C 0.1190(5) 0.1625(3) -0.1665(3)
H33A H 0.0767 0.1583 -0.1322
H34A H 0.1163 0.2060 -0.1795
C42A C 0.3761(5) -0.0341(4) -0.4193(3)
N1A N -0.3690(4) 0.3058(3) -0.3249(3)
N2A N -0.2678(4) 0.3223(3) -0.3207(2)
N3A N -0.2268(4) 0.2725(3) -0.3052(2)
N4A N -0.2999(4) 0.2223(3) -0.2992(2)
N5A N -0.6731(5) 0.1276(5) -0.3090(3)
H37A H -0.7336 0.1029 -0.3081
N6A N 0.0274(4) 0.4596(3) -0.3255(3)
N7A N -0.0469(4) 0.4088(3) -0.3209(2)
N8A N -0.0056(4) 0.3570(3) -0.3101(2)
N9A N 0.0959(4) 0.3727(3) -0.3071(2)
N10A N 0.4010(4) 0.5346(3) -0.3442(3)
H38A H 0.4615 0.5544 -0.3519
N11A N 0.0471(4) 0.4589(3) 0.0574(2)
N12A N 0.0747(4) 0.4214(3) 0.0968(2)
N13A N -0.0537(4) 0.4418(3) 0.0416(2)
N14A N -0.0919(4) 0.3930(3) 0.0706(2)
N15A N -0.0299(4) 0.2156(3) 0.1935(2)
H39A H -0.0326 0.1792 0.2098
N16A N 0.5834(4) 0.0742(3) 0.0067(3)
N17A N 0.6294(4) 0.0221(3) 0.0040(3)
N18A N 0.7283(4) 0.0427(3) -0.0004(3)
N19A N 0.6528(4) 0.1288(3) 0.0042(3)
N20A N 1.0178(4) 0.2289(3) -0.0123(3)
H40A H 1.0767 0.2541 -0.0159
N21A N 0.3208(4) -0.1240(3) -0.3883(2)
N22A N 0.2952(4) -0.0831(3) -0.4259(3)
N23A N 0.4135(4) -0.0989(3) -0.3599(3)
N24A N 0.4494(4) -0.0421(3) -0.3790(3)
N25A N 0.3808(6) 0.1324(3) -0.5068(3)
H41A H 0.3809 0.1680 -0.5243
N26A N 0.4221(5) -0.2509(3) -0.2379(3)
N27A N 0.3959(4) -0.2095(3) -0.2745(2)
N28A N 0.2994(4) -0.2307(3) -0.2982(3)
N29A N 0.2614(5) -0.2868(3) -0.2772(3)
N30A N 0.3259(5) -0.4674(3) -0.1569(3)
H42A H 0.3241 -0.5040 -0.1408
Mo1A_2 Mo 1.65401(4) 0.68859(3) 0.47208(3)
Mo2A_2 Mo 1.84613(4) 0.60605(3) 0.49239(2)
Mo3A_2 Mo 1.88263(4) 0.59092(3) 0.64130(2)
Mo4A_2 Mo 1.65569(4) 0.63493(3) 0.70806(3)
Mo5A_2 Mo 1.54496(5) 0.71288(4) 0.60364(4)
Mo11_2 Mo 1.16592(5) -0.05355(3) 0.17706(3)
Mo11A_2 Mo -0.16592(5) 1.05355(3) -0.17706(3)
Mo12_2 Mo 1.16832(4) -0.07227(3) 0.32502(3)
Mo12A_2 Mo -0.16832(4) 1.07227(3) -0.32502(3)
Mo13_2 Mo 0.93100(5) -0.02942(3) 0.37582(3)
Mo13A_2 Mo 0.06900(5) 1.02942(3) -0.37582(3)
Mo14_2 Mo 0.84169(4) 0.04863(3) 0.26535(3)
Mo14A_2 Mo 0.15831(4) 0.95137(3) -0.26535(3)
Mo15_2 Mo 0.97767(5) 0.02953(3) 0.14509(3)
Mo15A_2 Mo 0.02233(5) 0.97047(3) -0.14509(3)
Co1_2 Co 0.48923(8) 1.13464(5) 0.29587(6)
Co1A_2 Co 0.51077(8) -0.13464(5) -0.29587(6)
Co4_2 Co -0.15445(6) 0.46810(4) -0.02636(4)
Co4A_2 Co 1.15445(6) 0.53190(4) 0.02636(4)
Co5_2 Co 0.57290(7) -0.07919(5) -0.00552(5)
Co5A_2 Co 0.42710(7) 1.07919(5) 0.00552(5)
O21_2 O 1.1061(3) 1.0439(2) 0.2236(2)
O21A_2 O -0.1061(3) -0.0439(2) -0.2236(2)
O22_2 O 0.9949(3) 1.0453(2) 0.3115(2)
O22A_2 O 0.0051(3) -0.0453(2) -0.3115(2)
O23_2 O 1.1791(3) 1.0381(2) 0.3293(2)
O23A_2 O -0.1791(3) -0.0381(2) -0.3293(2)
O43A_2 O -0.2577(3) 0.5728(2) -0.44028(19)
O44A_2 O -0.4098(3) 0.6285(2) -0.4556(2)
O46A_2 O -0.4023(3) 0.5504(2) -0.3782(2)
N13_2 N 0.0537(4) 0.5582(3) -0.0416(2)
N13A_2 N 0.9463(4) 0.4418(3) 0.0416(2)
N17_2 N 0.3706(4) -0.0221(3) -0.0040(3)
N17A_2 N 0.6294(4) 1.0221(3) 0.0040(3)
N23_2 N 1.5865(4) 0.0989(3) 0.3599(3)
N23A_2 N -0.5865(4) 0.9011(3) -0.3599(3)
N27_2 N 1.6041(4) 0.2095(3) 0.2745(2)
N27A_2 N -0.6041(4) 0.7905(3) -0.2745(2)
O82 O 0.9794(5) 0.4512(3) 0.8192(2)
O83 O 0.2538(6) 0.1570(4) 0.1441(4)
O84 O 0.8726(3) 0.3980(2) 0.4620(2)
O85 O 0.1937(3) 0.7396(2) 0.1443(2)
O86 O 0.3548(3) 0.5811(2) 0.1957(2)
O87 O 0.0506(4) 0.1972(3) 0.5312(2)
O88 O 0.3582(6) 0.8324(4) 0.8670(4)
O89 O 0.2659(4) 0.8436(3) 0.4503(2)
O90 O 0.5881(12) 0.0427(7) 0.1536(7)
O91 O 0.4301(12) 0.9492(8) 0.2126(10)
O92 O 0.3680(14) 0.7455(11) 0.4744(10)
loop_
_geom_bond_atom_site_label_1
_geom_bond_atom_site_label_2
_geom_bond_site_symmetry_1
_geom_bond_site_symmetry_2
Mo1 O34 1_555 1_555
Mo2 O39 1_555 1_555
Mo3 O37 1_555 1_555
Mo4 O35 1_555 1_555
Mo5 O34 1_555 1_555
Mo6 O3 1_555 1_555
Mo7 O1 1_555 1_555
Mo8 O2 1_555 1_555
Mo9 O2 1_555 1_555
Mo10 O4 1_555 1_555
Mo11 O24 1_555 1_555
Mo12 O24 1_555 1_555
Mo13 O19 1_555 1_555
Mo14 O20 1_555 1_555
Mo15 O31 1_555 1_555
Co1 O62 1_555 1_555
Co2 O49 1_555 1_555
Co3 O26 1_555 1_555
Co4 O15 1_555 1_555
Co5 O18 1_555 1_555
Co6 O53 1_555 1_555
P1 O1 1_555 1_555
P2 O21 1_555 1_555
P3 O29 1_555 1_555
P4 O35 1_555 1_555
P5 O43 1_555 1_555
P6 O6 1_555 1_555
O2 P1 1_555 1_555
O3 Mo7 1_555 1_555
O4 Mo6 1_555 1_555
O5 Mo6 1_555 1_555
O6 Mo9 1_555 1_555
O7 Mo6 1_555 1_555
O8 Mo9 1_555 1_555
O9 Mo9 1_555 1_555
O10 Mo8 1_555 1_555
O11 Mo8 1_555 1_555
O12 Mo7 1_555 1_555
O13 Mo8 1_555 1_555
O14 Mo7 1_555 1_555
O15 Mo9 1_555 1_555
O16 Mo10 1_555 1_555
O17 Mo8 1_555 1_555
O18 Mo7 1_555 1_555
O21 Mo11_2 1_555 1_555
O22 P2 1_555 1_555
O23 P2 1_555 1_555
O25 Mo12 1_555 1_555
O26 Mo12 1_555 1_555
O27 Mo12 1_555 1_555
O28 Mo13 1_555 1_555
O29 Mo13 1_555 1_555
O30 Mo13 1_555 1_555
O31 Mo14 1_555 1_555
O32 Mo15 1_555 1_555
O33 Mo14 1_555 1_555
O35 Mo5 1_555 1_555
O36 Mo1 1_555 1_555
O37 P4 1_555 1_555
O38 Mo3 1_555 1_555
O40 Mo2 1_555 1_555
O41 Mo3 1_555 1_555
O42 Mo1 1_555 1_555
O43 Mo2 1_555 1_555
O44 Mo1 1_555 1_555
O45 Mo1 1_555 1_555
O46 Mo4 1_555 1_555
O47 Mo4 1_555 1_555
O48 Mo2 1_555 1_555
O49 Mo3 1_555 1_555
O50 Mo6 1_555 1_555
O51 Mo10 1_555 1_555
O52 Mo11 1_555 1_555
O53 Mo14 1_555 1_555
O54 Mo15 1_555 1_555
O55 Mo11 1_555 1_555
O56 Mo11 1_555 1_555
O57 Mo4 1_555 1_555
O58 Mo11 1_555 1_555
O59 Mo1 1_555 1_555
O60 Mo5 1_555 1_555
O61 Mo4 1_555 1_555
O62 Mo5 1_555 1_555
O63 Mo6 1_555 1_555
O64 Co1 1_555 1_555
O65 Co1 1_555 1_555
O66 Co1 1_555 1_555
O67 Co2 1_555 1_555
O68 Co2 1_555 1_555
O69 Co2 1_555 1_555
O70 Co3 1_555 1_555
O71 Co3 1_555 1_555
O72 Co3 1_555 1_555
O73 Co4 1_555 1_555
O74 Co4 1_555 1_555
O75 Co4 1_555 1_555
O76 Co5 1_555 1_555
O77 Co5 1_555 1_555
O78 Co5 1_555 1_555
O79 Co6 1_555 1_555
O80 Co6 1_555 1_555
O81 Co6 1_555 1_555
C1 C2 1_555 1_555
C2 C3 1_555 1_555
C3 H1 1_555 1_555
C4 C3 1_555 1_555
H2 C4 1_555 1_555
C5 C2 1_555 1_555
H3 C5 1_555 1_555
C6 C5 1_555 1_555
H4 C6 1_555 1_555
C7 C8 1_555 1_555
C8 C9 1_555 1_555
C9 H5 1_555 1_555
C10 C9 1_555 1_555
H6 C10 1_555 1_555
C11 H7 1_555 1_555
C12 C8 1_555 1_555
H8 C12 1_555 1_555
C13 C14 1_555 1_555
C14 C15 1_555 1_555
C15 H9 1_555 1_555
C16 C15 1_555 1_555
H10 C16 1_555 1_555
C17 C14 1_555 1_555
H11 C17 1_555 1_555
C18 C17 1_555 1_555
H12 C18 1_555 1_555
C19 C20 1_555 1_555
C20 H13 1_555 1_555
C21 C20 1_555 1_555
H14 C21 1_555 1_555
C22 C19 1_555 1_555
H15 C22 1_555 1_555
C23 C22 1_555 1_555
H16 C23 1_555 1_555
C24 C25 1_555 1_555
C25 C26 1_555 1_555
C26 H17 1_555 1_555
C27 C26 1_555 1_555
H18 C27 1_555 1_555
C28 C25 1_555 1_555
H19 C28 1_555 1_555
C29 C28 1_555 1_555
H20 C29 1_555 1_555
C30 C31 1_555 1_555
C31 C32 1_555 1_555
C32 H21 1_555 1_555
C33 C32 1_555 1_555
H22 C33 1_555 1_555
C34 C31 1_555 1_555
H23 C34 1_555 1_555
C35 C34 1_555 1_555
H24 C35 1_555 1_555
C36 P4 1_555 1_555
H25 C36 1_555 1_555
H26 C36 1_555 1_555
C37 P2 1_555 1_555
H27 C37 1_555 1_555
H28 C37 1_555 1_555
C38 P5 1_555 1_555
H29 C38 1_555 1_555
H30 C38 1_555 1_555
C39 P6 1_555 1_555
H31 C39 1_555 1_555
H32 C39 1_555 1_555
C40 P3 1_555 1_555
H33 C40 1_555 1_555
H34 C40 1_555 1_555
C41 P1 1_555 1_555
H35 C41 1_555 1_555
H36 C41 1_555 1_555
C42 C19 1_555 1_555
N1 C1 1_555 1_555
N2 Co2 1_555 1_555
N3 Co3 1_555 1_555
N4 C1 1_555 1_555
N5 C4 1_555 1_555
H37 N5 1_555 1_555
N6 C7 1_555 1_555
N7 Co2 1_555 1_555
N8 Co3 1_555 1_555
N9 C7 1_555 1_555
N10 C10 1_555 1_555
H38 N10 1_555 1_555
N11 Co4 1_555 1_555
N12 C13 1_555 1_555
N13 N11 1_555 1_555
N14 C13 1_555 1_555
N15 C16 1_555 1_555
H39 N15 1_555 1_555
N16 Co5 1_555 1_555
N17 N16 1_555 1_555
N18 C24 1_555 1_555
N19 C24 1_555 1_555
N20 C27 1_555 1_555
H40 N20 1_555 1_555
N21 Co6 1_555 1_555
N22 C42 1_555 1_555
N23 N21 1_555 1_555
N24 C42 1_555 1_555
N25 C21 1_555 1_555
H41 N25 1_555 1_555
N26 C30 1_555 1_555
N27 N26 1_555 1_555
N28 Co6 1_555 1_555
N29 C30 1_555 1_555
N30 C33 1_555 1_555
H42 N30 1_555 1_555
P1A O1A 1_555 1_555
O1A Mo7A 1_555 1_555
O2A P1A 1_555 1_555
O4A P1A 1_555 1_555
C41A C41 1_555 1_555
H35A C41A 1_555 1_555
H36A C41A 1_555 1_555
P5A O43A 1_555 1_555
O43A Mo2A_2 1_555 1_555
O44A P5A 1_555 1_555
O46A P5A 1_555 1_555
C38A C38 1_555 1_555
H29A C38A 1_555 1_555
H30A C38A 1_555 1_555
Mo1A O34A 1_555 1_555
Mo2A O39A 1_555 1_555
Mo3A O37A 1_555 1_555
Mo4A O35A 1_555 1_555
Mo5A O34A 1_555 1_555
Mo6A O4A 1_555 1_555
Mo7A O3A 1_555 1_555
Mo8A O2A 1_555 1_555
Mo9A O2A 1_555 1_555
Mo10A O4A 1_555 1_555
Mo11A O24A 1_555 1_555
Mo12A O24A 1_555 1_555
Mo13A O19A 1_555 1_555
Mo14A O20A 1_555 1_555
Mo15A O31A 1_555 1_555
Co1A O62A 1_555 1_555
Co2A O49A 1_555 1_555
Co3A O26A 1_555 1_555
Co4A O15A 1_555 1_555
Co5A O18A 1_555 1_555
Co6A O53A 1_555 1_555
P2A O21A 1_555 1_555
P3A O29A 1_555 1_555
P4A O35A 1_555 1_555
P6A O6A 1_555 1_555
O3A Mo6A 1_555 1_555
O5A Mo6A 1_555 1_555
O6A Mo9A 1_555 1_555
O7A Mo6A 1_555 1_555
O8A Mo9A 1_555 1_555
O9A Mo9A 1_555 1_555
O10A Mo8A 1_555 1_555
O11A Mo8A 1_555 1_555
O12A Mo7A 1_555 1_555
O13A Mo8A 1_555 1_555
O14A Mo7A 1_555 1_555
O15A Mo9A 1_555 1_555
O16A Mo10A 1_555 1_555
O17A Mo8A 1_555 1_555
O18A Mo7A 1_555 1_555
O21A Mo11A_2 1_555 1_555
O22A P2A 1_555 1_555
O23A P2A 1_555 1_555
O25A Mo12A 1_555 1_555
O26A Mo12A 1_555 1_555
O27A Mo12A 1_555 1_555
O28A Mo13A 1_555 1_555
O29A Mo13A 1_555 1_555
O30A Mo13A 1_555 1_555
O31A Mo14A 1_555 1_555
O32A Mo15A 1_555 1_555
O33A Mo14A 1_555 1_555
O35A Mo5A 1_555 1_555
O36A Mo1A 1_555 1_555
O37A P4A 1_555 1_555
O38A Mo3A 1_555 1_555
O40A Mo2A 1_555 1_555
O41A Mo3A 1_555 1_555
O42A Mo1A 1_555 1_555
O45A Mo1A 1_555 1_555
O47A Mo4A 1_555 1_555
O48A Mo2A 1_555 1_555
O49A Mo3A 1_555 1_555
O50A Mo6A 1_555 1_555
O51A Mo10A 1_555 1_555
O52A Mo11A 1_555 1_555
O53A Mo14A 1_555 1_555
O54A Mo15A 1_555 1_555
O55A Mo11A 1_555 1_555
O56A Mo11A 1_555 1_555
O57A Mo4A 1_555 1_555
O58A Mo11A 1_555 1_555
O59A Mo1A 1_555 1_555
O60A Mo5A 1_555 1_555
O61A Mo4A 1_555 1_555
O62A Mo5A 1_555 1_555
O63A Mo6A 1_555 1_555
O64A Co1A 1_555 1_555
O65A Co1A 1_555 1_555
O66A Co1A 1_555 1_555
O67A Co2A 1_555 1_555
O68A Co2A 1_555 1_555
O69A Co2A 1_555 1_555
O70A Co3A 1_555 1_555
O71A Co3A 1_555 1_555
O72A Co3A 1_555 1_555
O73A Co4A 1_555 1_555
O74A Co4A 1_555 1_555
O75A Co4A 1_555 1_555
O76A Co5A 1_555 1_555
O77A Co5A 1_555 1_555
O78A Co5A 1_555 1_555
O79A Co6A 1_555 1_555
O80A Co6A 1_555 1_555
O81A Co6A 1_555 1_555
C1A C2A 1_555 1_555
C2A C3A 1_555 1_555
C3A H1A 1_555 1_555
C4A C3A 1_555 1_555
H2A C4A 1_555 1_555
C5A C2A 1_555 1_555
H3A C5A 1_555 1_555
C6A C5A 1_555 1_555
H4A C6A 1_555 1_555
C7A C8A 1_555 1_555
C8A C9A 1_555 1_555
C9A H5A 1_555 1_555
C10A C9A 1_555 1_555
H6A C10A 1_555 1_555
C11A H7A 1_555 1_555
C12A C8A 1_555 1_555
H8A C12A 1_555 1_555
C13A C14A 1_555 1_555
C14A C15A 1_555 1_555
C15A H9A 1_555 1_555
C16A C15A 1_555 1_555
H10A C16A 1_555 1_555
C17A C14A 1_555 1_555
H11A C17A 1_555 1_555
C18A C17A 1_555 1_555
H12A C18A 1_555 1_555
C19A C20A 1_555 1_555
C20A H13A 1_555 1_555
C21A C20A 1_555 1_555
H14A C21A 1_555 1_555
C22A C19A 1_555 1_555
H15A C22A 1_555 1_555
C23A C22A 1_555 1_555
H16A C23A 1_555 1_555
C24A C25A 1_555 1_555
C25A C26A 1_555 1_555
C26A H17A 1_555 1_555
C27A C26A 1_555 1_555
H18A C27A 1_555 1_555
C28A C25A 1_555 1_555
H19A C28A 1_555 1_555
C29A C28A 1_555 1_555
H20A C29A 1_555 1_555
C30A C31A 1_555 1_555
C31A C32A 1_555 1_555
C32A H21A 1_555 1_555
C33A C32A 1_555 1_555
H22A C33A 1_555 1_555
C34A C31A 1_555 1_555
H23A C34A 1_555 1_555
C35A C34A 1_555 1_555
H24A C35A 1_555 1_555
C36A P4A 1_555 1_555
H25A C36A 1_555 1_555
H26A C36A 1_555 1_555
C37A P2A 1_555 1_555
H27A C37A 1_555 1_555
H28A C37A 1_555 1_555
C39A P6A 1_555 1_555
H31A C39A 1_555 1_555
H32A C39A 1_555 1_555
C40A P3A 1_555 1_555
H33A C40A 1_555 1_555
H34A C40A 1_555 1_555
C42A C19A 1_555 1_555
N1A C1A 1_555 1_555
N2A Co2A 1_555 1_555
N3A Co3A 1_555 1_555
N4A C1A 1_555 1_555
N5A C4A 1_555 1_555
H37A N5A 1_555 1_555
N6A C7A 1_555 1_555
N7A Co2A 1_555 1_555
N8A Co3A 1_555 1_555
N9A C7A 1_555 1_555
N10A C10A 1_555 1_555
H38A N10A 1_555 1_555
N11A Co4A 1_555 1_555
N12A C13A 1_555 1_555
N13A N11A 1_555 1_555
N14A C13A 1_555 1_555
N15A C16A 1_555 1_555
H39A N15A 1_555 1_555
N16A Co5A 1_555 1_555
N17A N16A 1_555 1_555
N18A C24A 1_555 1_555
N19A C24A 1_555 1_555
N20A C27A 1_555 1_555
H40A N20A 1_555 1_555
N21A Co6A 1_555 1_555
N22A C42A 1_555 1_555
N23A N21A 1_555 1_555
N24A C42A 1_555 1_555
N25A C21A 1_555 1_555
H41A N25A 1_555 1_555
N26A C30A 1_555 1_555
N27A N26A 1_555 1_555
N28A Co6A 1_555 1_555
N29A C30A 1_555 1_555
N30A C33A 1_555 1_555
H42A N30A 1_555 1_555
Mo1A_2 O44A 1_555 1_555
Mo3A_2 O43A 1_555 1_555
Mo4A_2 O46A 1_555 1_555
Mo5A_2 O44A 1_555 1_555
Mo12_2 O23 1_555 1_555
Mo12A_2 O23A 1_555 1_555
Mo13_2 O22 1_555 1_555
Mo13A_2 O22A 1_555 1_555
Mo14_2 O22 1_555 1_555
Mo14A_2 O22A 1_555 1_555
Mo15_2 O21 1_555 1_555
Mo15A_2 O21A 1_555 1_555
Co1_2 N23 1_555 1_555
Co1A_2 N23A 1_555 1_555
Co4_2 N13A 1_555 1_555
Co4A_2 N13 1_555 1_555
Co5_2 N17A 1_555 1_555
Co5A_2 N17 1_555 1_555
O21_2 Mo11 1_555 1_555
O21A_2 Mo11A 1_555 1_555
O22_2 Mo13 1_555 1_555
O22A_2 Mo13A 1_555 1_555
O23_2 Mo12 1_555 1_555
O23A_2 Mo12A 1_555 1_555
O43A_2 Mo2A 1_555 1_555
O44A_2 Mo1A 1_555 1_555
O46A_2 Mo4A 1_555 1_555
N13_2 Co4A 1_555 1_555
N13A_2 Co4 1_555 1_555
N17_2 Co5A 1_555 1_555
N17A_2 Co5 1_555 1_555
N23_2 Co1 1_555 1_555
N23A_2 Co1A 1_555 1_555
N27_2 Co1 1_555 1_555
N27A_2 Co1A 1_555 1_555
Mo2 O42 1_555 1_555
Mo2 O45 1_555 1_555
Mo3 O43 1_555 1_555
Mo3 O48 1_555 1_555
Mo4 O41 1_555 1_555
Mo5 O44 1_555 1_555
Mo5 O61 1_555 1_555
Mo7 O7 1_555 1_555
Mo8 O12 1_555 1_555
Mo9 O11 1_555 1_555
Mo10 O5 1_555 1_555
Mo10 O6 1_555 1_555
Mo10 O8 1_555 1_555
Mo12 O58 1_555 1_555
Mo13 O27 1_555 1_555
Mo14 O30 1_555 1_555
Mo14 O22_2 1_555 1_555
Mo15 O33 1_555 1_555
Mo15 O52 1_555 1_555
Mo15 O21_2 1_555 1_555
P1 O4 1_555 1_555
P3 O31 1_555 1_555
P3 O58 1_555 1_555
P4 O45 1_555 1_555
P5 O44 1_555 1_555
P5 O46 1_555 1_555
P6 O7 1_555 1_555
P6 O10 1_555 1_555
C6 N5 1_555 1_555
C11 C12 1_555 1_555
C11 N10 1_555 1_555
C18 N15 1_555 1_555
C23 N25 1_555 1_555
C29 N20 1_555 1_555
C35 N30 1_555 1_555
C36 C37 1_555 1_555
C39 C40 1_555 1_555
N1 N2 1_555 1_555
N2 N3 1_555 1_555
N3 N4 1_555 1_555
N6 N7 1_555 1_555
N7 N8 1_555 1_555
N8 N9 1_555 1_555
N11 N12 1_555 1_555
N13 N14 1_555 1_555
N16 N19 1_555 1_555
N17 N18 1_555 1_555
N21 N22 1_555 1_555
N23 N24 1_555 1_555
N27 N28 1_555 1_555
N27 Co1_2 1_555 1_555
N28 N29 1_555 1_555
P1A C41A 1_555 1_555
P5A C38A 1_555 1_555
Mo2A O42A 1_555 1_555
Mo2A O45A 1_555 1_555
Mo3A O48A 1_555 1_555
Mo3A O43A_2 1_555 1_555
Mo4A O41A 1_555 1_555
Mo5A O61A 1_555 1_555
Mo5A O44A_2 1_555 1_555
Mo7A O7A 1_555 1_555
Mo8A O12A 1_555 1_555
Mo9A O11A 1_555 1_555
Mo10A O5A 1_555 1_555
Mo10A O6A 1_555 1_555
Mo10A O8A 1_555 1_555
Mo12A O58A 1_555 1_555
Mo13A O27A 1_555 1_555
Mo14A O30A 1_555 1_555
Mo14A O22A_2 1_555 1_555
Mo15A O33A 1_555 1_555
Mo15A O52A 1_555 1_555
Mo15A O21A_2 1_555 1_555
P3A O31A 1_555 1_555
P3A O58A 1_555 1_555
P4A O45A 1_555 1_555
P6A O7A 1_555 1_555
P6A O10A 1_555 1_555
C6A N5A 1_555 1_555
C11A C12A 1_555 1_555
C11A N10A 1_555 1_555
C18A N15A 1_555 1_555
C23A N25A 1_555 1_555
C29A N20A 1_555 1_555
C35A N30A 1_555 1_555
C36A C37A 1_555 1_555
C39A C40A 1_555 1_555
N1A N2A 1_555 1_555
N2A N3A 1_555 1_555
N3A N4A 1_555 1_555
N6A N7A 1_555 1_555
N7A N8A 1_555 1_555
N8A N9A 1_555 1_555
N11A N12A 1_555 1_555
N13A N14A 1_555 1_555
N16A N19A 1_555 1_555
N17A N18A 1_555 1_555
N21A N22A 1_555 1_555
N23A N24A 1_555 1_555
N27A N28A 1_555 1_555
N27A Co1A_2 1_555 1_555
N28A N29A 1_555 1_555

#END
