
#######################################################################
#
#                 Cambridge Crystallographic Data Centre
#                                CCDC 
#
#######################################################################
#
# If this CIF has been generated from an entry in the Cambridge 
# Structural Database, then it will include bibliographic, chemical, 
# crystal, experimental, refinement or atomic coordinate data resulting 
# from the CCDC's data processing and validation procedures.
#
#######################################################################

data_ZIBFOF
_symmetry_cell_setting           orthorhombic
_symmetry_space_group_name_H-M   'P n n a'
_symmetry_Int_Tables_number      52
_space_group_name_Hall           '-P 2a 2bc'
loop_
_symmetry_equiv_pos_site_id
_symmetry_equiv_pos_as_xyz
1 x,y,z
2 1/2-x,-y,z
3 x,1/2-y,1/2-z
4 1/2-x,1/2+y,1/2-z
5 -x,-y,-z
6 1/2+x,y,-z
7 -x,1/2+y,1/2+z
8 1/2+x,1/2-y,1/2+z
_cell_length_a                   9.621(4)
_cell_length_b                   38.925(6)
_cell_length_c                   19.953(4)
_cell_angle_alpha                90
_cell_angle_beta                 90
_cell_angle_gamma                90
_cell_volume                     7472.35
loop_
_atom_site_label
_atom_site_type_symbol
_atom_site_fract_x
_atom_site_fract_y
_atom_site_fract_z
Cd1 Cd 0.2500 0.00000 0.17224(4)
Cd2 Cd 0.22586(6) 0.17199(2) 0.34310(3)
Ni1 Ni -0.1341(2) 0.08524(4) 0.25260(8)
Ni2 Ni 0.6044(2) 0.2500 0.2500
N1 N 0.0983(9) 0.0476(2) 0.1843(4)
N2 N 0.0734(9) 0.1257(2) 0.3344(4)
N3 N -0.3675(10) 0.1171(3) 0.3326(5)
N4 N -0.3398(10) 0.0518(3) 0.1585(5)
N5 N 0.3801(9) 0.2199(2) 0.3347(4)
N6 N 0.8241(10) 0.2255(3) 0.3466(5)
N7 N 0.3904(8) 0.0227(2) 0.0866(4)
N8 N 0.5982(9) 0.2035(2) -0.2586(4)
N9 N 0.1112(10) -0.0337(3) 0.2485(5)
N10 N -0.1343(8) 0.1470(2) 0.5744(4)
N11 N 0.3608(8) 0.1423(2) 0.2624(4)
N12 N 0.0889(8) 0.1991(2) 0.4263(4)
C1 C 0.0088(9) 0.0625(2) 0.2097(5)
C2 C -0.0055(10) 0.1094(3) 0.3046(5)
C3 C -0.2816(10) 0.1054(3) 0.3010(5)
C4 C -0.2627(10) 0.0640(3) 0.1956(5)
C5 C 0.4664(9) 0.2330(3) 0.3049(4)
C6 C 0.7392(9) 0.2344(3) 0.3097(5)
C7 C 0.3502(10) 0.0575(2) 0.0596(5)
C8 C 0.4553(10) 0.0719(3) 0.0115(5)
C9 C 0.4009(10) 0.1039(3) -0.0258(5)
C10 C 0.5169(11) 0.1205(3) -0.0680(5)
C11 C 0.4545(10) 0.1485(3) -0.1156(5)
C12 C 0.5631(11) 0.1641(3) -0.1613(5)
C13 C 0.4942(11) 0.1882(3) -0.2113(5)
C14 C -0.0001(15) -0.0200(4) 0.2918(7)
C15 C 0.0585(14) 0.0016(3) 0.3451(6)
C16 C -0.0562(15) 0.0159(4) 0.3907(8)
C17 C -0.0007(14) 0.0440(3) 0.4378(6)
C18 C -0.1133(13) 0.0621(3) 0.4781(7)
C19 C -0.0639(11) 0.0956(3) 0.5088(6)
C20 C -0.1656(11) 0.1110(3) 0.5566(5)
C21 C 0.4378(11) 0.1640(3) 0.2123(5)
C22 C 0.4827(12) 0.1438(3) 0.1503(5)
C23 C 0.5770(13) 0.1659(3) 0.1053(7)
C24 C 0.5027(11) 0.1955(3) 0.0698(5)
C25 C 0.6023(11) 0.2157(3) 0.0245(5)
C26 C 0.5393(10) 0.2479(3) -0.0043(5)
C27 C 0.1378(10) 0.2339(3) 0.4471(5)
H1 H 0.38864 0.00615 0.04829
H2 H 0.48720 0.02455 0.10442
H3 H 0.33930 0.07534 0.10197
H4 H 0.24999 0.05508 0.03351
H5 H 0.54925 0.07907 0.03959
H6 H 0.48147 0.05205 -0.02566
H7 H 0.31517 0.09624 -0.05905
H8 H 0.36282 0.12266 0.01109
H9 H 0.59329 0.13259 -0.03435
H10 H 0.56853 0.10063 -0.09819
H11 H 0.40843 0.16899 -0.08487
H12 H 0.37324 0.13655 -0.14661
H13 H 0.63855 0.17864 -0.13103
H14 H 0.61730 0.14352 -0.18854
H15 H 0.44213 0.20903 -0.18376
H16 H 0.41671 0.17369 -0.24035
H17 H 0.54676 0.22183 -0.28353
H18 H 0.67051 0.21436 -0.22945
H19 H 0.17896 -0.04483 0.27972
H20 H 0.06573 -0.05170 0.22024
H21 H -0.05748 -0.04146 0.31444
H22 H -0.07154 -0.00442 0.26118
H23 H 0.13050 -0.01398 0.37535
H24 H 0.11535 0.02311 0.32229
H25 H -0.13917 0.02677 0.35936
H26 H -0.09863 -0.00523 0.42121
H27 H 0.05379 0.06333 0.40724
H28 H 0.07301 0.03217 0.47300
H29 H -0.14743 0.04495 0.51860
H30 H -0.20148 0.06765 0.44468
H31 H -0.04494 0.11415 0.46818
H32 H 0.03381 0.09073 0.53583
H33 H -0.16551 0.09557 0.60279
H34 H -0.26944 0.11008 0.53356
H35 H -0.03592 0.14789 0.59049
H36 H -0.14370 0.16112 0.53277
H37 H 0.29699 0.12676 0.23684
H38 H 0.43098 0.12812 0.28701
H39 H 0.36962 0.18520 0.19633
H40 H 0.53107 0.17465 0.23658
H41 H 0.53990 0.12075 0.16611
H42 H 0.38990 0.13617 0.12174
H43 H 0.62310 0.14912 0.06688
H44 H 0.66005 0.17682 0.13665
H45 H 0.41803 0.18493 0.03899
H46 H 0.45934 0.21295 0.10768
H47 H 0.63411 0.19892 -0.01720
H48 H 0.69423 0.22284 0.05413
H49 H 0.44343 0.24112 -0.03129
H50 H 0.51422 0.26559 0.03699
H51 H 0.14883 0.24992 0.40201
H52 H 0.23967 0.23115 0.47163
H53 H -0.00785 0.20147 0.40856
H54 H 0.08807 0.18405 0.46690
N1A N 0.4017(9) -0.0476(2) 0.1843(4)
N7A N 0.1096(8) -0.0227(2) 0.0866(4)
N9A N 0.3888(10) 0.0337(3) 0.2485(5)
C5B C 0.4664(9) 0.2670(3) 0.1951(4)
C6B C 0.7392(9) 0.2656(3) 0.1903(5)
C27G C 0.6378(10) 0.2661(3) -0.0529(5)
C26G C 0.0393(10) 0.2521(3) 0.4957(5)
N5B N 0.3801(9) 0.2801(2) 0.1653(4)
N6B N 0.8241(10) 0.2745(3) 0.1534(5)
Cd2B Cd 0.22586(6) 0.32801(2) 0.15690(3)
N10E N 0.3657(8) 0.1470(2) 0.4256(4)
Cd2E Cd -0.27414(6) 0.17199(2) 0.65690(3)
H35E H 0.46408 0.14789 0.40951
H36E H 0.35630 0.16112 0.46723
N8E N 0.0982(9) 0.2035(2) 0.2586(4)
Cd2E_2 Cd 0.72586(6) 0.17199(2) -0.34310(3)
H17E H 0.04676 0.22183 0.28353
H18E H 0.17051 0.21436 0.22945
N12G N 0.5889(8) 0.3009(2) -0.0737(4)
H51G H 0.64883 0.25008 -0.09799
H52G H 0.73967 0.26885 -0.02837
C25G C 0.1023(11) 0.2843(3) 0.5245(5)
H49G H -0.05657 0.25888 0.46871
H50G H 0.01422 0.23441 0.53699
Cd2G Cd 0.72586(6) 0.32801(2) -0.15690(3)
H53G H 0.49215 0.29853 -0.09144
H54G H 0.58807 0.31595 -0.03310
C24G C 0.0027(11) 0.3045(3) 0.5698(5)
H47G H 0.13411 0.30108 0.48280
H48G H 0.19423 0.27716 0.55413
C23G C 0.0770(13) 0.3341(3) 0.6053(7)
H45G H -0.08197 0.31507 0.53899
H46G H -0.04066 0.28705 0.60768
C22G C -0.0173(12) 0.3562(3) 0.6503(5)
H43G H 0.12310 0.35088 0.56688
H44G H 0.16005 0.32318 0.63665
C21G C -0.0622(11) 0.3360(3) 0.7123(5)
H41G H 0.03990 0.37925 0.66611
H42G H -0.11010 0.36383 0.62174
N11G N -0.1392(8) 0.3577(2) 0.7624(4)
H39G H -0.13038 0.31480 0.69633
H40G H 0.03107 0.32535 0.73658
Cd2G_2 Cd -0.27414(6) 0.32801(2) 0.84310(3)
H37G H -0.20301 0.37324 0.73684
H38G H -0.06902 0.37188 0.78701
H1A H 0.11136 -0.00615 0.04829
H2A H 0.01280 -0.02455 0.10442
H19A H 0.32104 0.04483 0.27972
H20A H 0.43427 0.05170 0.22024
O1 O 0.2500 0.00000 -0.0553(6)
O2 O 0.2179(11) 0.1695(2) 0.5617(5)
loop_
_geom_bond_atom_site_label_1
_geom_bond_atom_site_label_2
_geom_bond_site_symmetry_1
_geom_bond_site_symmetry_2
Cd1 N1 1_555 1_555
Cd2 N2 1_555 1_555
Ni1 C1 1_555 1_555
Ni2 C5 1_555 1_555
N1 C1 1_555 1_555
N2 C2 1_555 1_555
N3 C3 1_555 1_555
N4 C4 1_555 1_555
N5 Cd2 1_555 1_555
N6 C6 1_555 1_555
N7 Cd1 1_555 1_555
N8 C13 1_555 1_555
N9 Cd1 1_555 1_555
N10 C20 1_555 1_555
N11 Cd2 1_555 1_555
N12 Cd2 1_555 1_555
C2 Ni1 1_555 1_555
C3 Ni1 1_555 1_555
C4 Ni1 1_555 1_555
C5 N5 1_555 1_555
C6 Ni2 1_555 1_555
C7 N7 1_555 1_555
C8 C7 1_555 1_555
C9 C8 1_555 1_555
C10 C9 1_555 1_555
C11 C10 1_555 1_555
C12 C11 1_555 1_555
C13 C12 1_555 1_555
C14 N9 1_555 1_555
C15 C14 1_555 1_555
C16 C15 1_555 1_555
C17 C16 1_555 1_555
C18 C17 1_555 1_555
C19 C18 1_555 1_555
C20 C19 1_555 1_555
C21 N11 1_555 1_555
C22 C21 1_555 1_555
C23 C22 1_555 1_555
C24 C23 1_555 1_555
C25 C24 1_555 1_555
C26 C25 1_555 1_555
C27 N12 1_555 1_555
H1 N7 1_555 1_555
H2 N7 1_555 1_555
H3 C7 1_555 1_555
H4 C7 1_555 1_555
H5 C8 1_555 1_555
H6 C8 1_555 1_555
H7 C9 1_555 1_555
H8 C9 1_555 1_555
H9 C10 1_555 1_555
H10 C10 1_555 1_555
H11 C11 1_555 1_555
H12 C11 1_555 1_555
H13 C12 1_555 1_555
H14 C12 1_555 1_555
H15 C13 1_555 1_555
H16 C13 1_555 1_555
H17 N8 1_555 1_555
H18 N8 1_555 1_555
H19 N9 1_555 1_555
H20 N9 1_555 1_555
H21 C14 1_555 1_555
H22 C14 1_555 1_555
H23 C15 1_555 1_555
H24 C15 1_555 1_555
H25 C16 1_555 1_555
H26 C16 1_555 1_555
H27 C17 1_555 1_555
H28 C17 1_555 1_555
H29 C18 1_555 1_555
H30 C18 1_555 1_555
H31 C19 1_555 1_555
H32 C19 1_555 1_555
H33 C20 1_555 1_555
H34 C20 1_555 1_555
H35 N10 1_555 1_555
H36 N10 1_555 1_555
H37 N11 1_555 1_555
H38 N11 1_555 1_555
H39 C21 1_555 1_555
H40 C21 1_555 1_555
H41 C22 1_555 1_555
H42 C22 1_555 1_555
H43 C23 1_555 1_555
H44 C23 1_555 1_555
H45 C24 1_555 1_555
H46 C24 1_555 1_555
H47 C25 1_555 1_555
H48 C25 1_555 1_555
H49 C26 1_555 1_555
H50 C26 1_555 1_555
H51 C27 1_555 1_555
H52 C27 1_555 1_555
H53 N12 1_555 1_555
H54 N12 1_555 1_555
N1A Cd1 1_555 1_555
N7A Cd1 1_555 1_555
N9A Cd1 1_555 1_555
C5B Ni2 1_555 1_555
C6B Ni2 1_555 1_555
C27G C26 1_555 1_555
C26G C27 1_555 1_555
N5B C5B 1_555 1_555
N6B C6B 1_555 1_555
Cd2B N5B 1_555 1_555
N10E Cd2 1_555 1_555
Cd2E N10 1_555 1_555
H35E N10E 1_555 1_555
H36E N10E 1_555 1_555
N8E Cd2 1_555 1_555
Cd2E_2 N8 1_555 1_555
H17E N8E 1_555 1_555
H18E N8E 1_555 1_555
N12G C27G 1_555 1_555
H51G C27G 1_555 1_555
H52G C27G 1_555 1_555
C25G C26G 1_555 1_555
H49G C26G 1_555 1_555
H50G C26G 1_555 1_555
Cd2G N12G 1_555 1_555
H53G N12G 1_555 1_555
H54G N12G 1_555 1_555
C24G C25G 1_555 1_555
H47G C25G 1_555 1_555
H48G C25G 1_555 1_555
C23G C24G 1_555 1_555
H45G C24G 1_555 1_555
H46G C24G 1_555 1_555
C22G C23G 1_555 1_555
H43G C23G 1_555 1_555
H44G C23G 1_555 1_555
C21G C22G 1_555 1_555
H41G C22G 1_555 1_555
H42G C22G 1_555 1_555
N11G C21G 1_555 1_555
H39G C21G 1_555 1_555
H40G C21G 1_555 1_555
Cd2G_2 N11G 1_555 1_555
H37G N11G 1_555 1_555
H38G N11G 1_555 1_555
H1A N7A 1_555 1_555
H2A N7A 1_555 1_555
H19A N9A 1_555 1_555
H20A N9A 1_555 1_555

#END
