
#######################################################################
#
#                 Cambridge Crystallographic Data Centre
#                                CCDC 
#
#######################################################################
#
# If this CIF has been generated from an entry in the Cambridge 
# Structural Database, then it will include bibliographic, chemical, 
# crystal, experimental, refinement or atomic coordinate data resulting 
# from the CCDC's data processing and validation procedures.
#
#######################################################################

data_ZIBFUN
_symmetry_cell_setting           orthorhombic
_symmetry_space_group_name_H-M   'P b c a'
_symmetry_Int_Tables_number      61
_space_group_name_Hall           '-P 2ac 2ab'
loop_
_symmetry_equiv_pos_site_id
_symmetry_equiv_pos_as_xyz
1 x,y,z
2 1/2-x,-y,1/2+z
3 -x,1/2+y,1/2-z
4 1/2+x,1/2-y,-z
5 -x,-y,-z
6 1/2+x,y,1/2-z
7 x,1/2-y,1/2+z
8 1/2-x,1/2+y,z
_cell_length_a                   19.014(2)
_cell_length_b                   21.245(2)
_cell_length_c                   25.136(3)
_cell_angle_alpha                90
_cell_angle_beta                 90
_cell_angle_gamma                90
_cell_volume                     10153.7
loop_
_atom_site_label
_atom_site_type_symbol
_atom_site_fract_x
_atom_site_fract_y
_atom_site_fract_z
C1 C 0.4536(5) 0.6137(4) 0.3470(4)
C2 C 0.4860(3) 0.6761(4) 0.3368(3)
C3 C 0.5151(4) 0.7218(3) 0.3705(3)
C4 C 0.5272(4) 0.7216(4) 0.4279(3)
C5 C 0.5198(4) 0.7561(4) 0.2896(3)
C6 C 0.5348(4) 0.7958(4) 0.2450(3)
C7 C 0.5592(4) 0.7705(4) 0.1964(3)
H1 H 0.5647 0.7271 0.1935
C8 C 0.5749(5) 0.8075(5) 0.1534(4)
C9 C 0.5662(6) 0.8714(5) 0.1576(4)
H2 H 0.5773 0.8970 0.1288
C10 C 0.5419(6) 0.8977(5) 0.2029(5)
H3 H 0.5359 0.9411 0.2046
C11 C 0.5257(5) 0.8609(4) 0.2474(4)
H4 H 0.5088 0.8796 0.2783
C12 C 0.6113(8) 0.8110(7) 0.0644(4)
H5 H 0.6543 0.8340 0.0687
H6 H 0.5735 0.8399 0.0577
H7 H 0.6157 0.7826 0.0348
C13 C 0.7578(5) 0.8367(4) 0.3834(4)
C14 C 0.7430(5) 0.8472(4) 0.4381(5)
C15 C 0.6650(7) 0.8669(6) 0.5062(5)
H8 H 0.6185 0.8717 0.5170
C16 C 0.7161(9) 0.8710(7) 0.5441(5)
H9 H 0.7057 0.8805 0.5794
C17 C 0.7843(9) 0.8603(7) 0.5273(7)
H10 H 0.8203 0.8615 0.5523
C18 C 0.8007(6) 0.8480(5) 0.4755(6)
C19 C 0.8710(7) 0.8401(6) 0.4538(7)
H11 H 0.9097 0.8428 0.4764
C20 C 0.8810(6) 0.8293(6) 0.4029(7)
H12 H 0.9269 0.8232 0.3911
C21 C 0.8262(5) 0.8263(4) 0.3649(6)
C22 C 0.8369(6) 0.8194(5) 0.3115(6)
H13 H 0.8826 0.8166 0.2986
C23 C 0.7829(6) 0.8166(4) 0.2774(5)
H14 H 0.7905 0.8100 0.2413
C24 C 0.7147(5) 0.8239(4) 0.2975(5)
H15 H 0.6770 0.8226 0.2739
C25 C 0.5684(4) 0.5639(4) 0.1640(4)
C26 C 0.5073(4) 0.5199(4) 0.1618(3)
C27 C 0.4976(4) 0.4651(4) 0.1316(3)
C28 C 0.5450(5) 0.4288(5) 0.0974(4)
C29 C 0.4019(4) 0.4890(4) 0.1721(3)
C30 C 0.3261(4) 0.4872(4) 0.1890(4)
C31 C 0.3087(4) 0.4910(4) 0.2412(4)
H16 H 0.3443 0.4940 0.2664
C32 C 0.2366(4) 0.4907(4) 0.2588(4)
H17 H 0.2241 0.4922 0.2946
C33 C 0.1886(5) 0.4881(4) 0.2195(4)
H18 H 0.1414 0.4859 0.2290
C34 C 0.2044(4) 0.4885(4) 0.1677(4)
C35 C 0.2757(4) 0.4864(4) 0.1509(4)
H19 H 0.2873 0.4846 0.1150
C36 C 0.0885(4) 0.4966(4) 0.1298(4)
H20 H 0.0789 0.5396 0.1394
H21 H 0.0703 0.4691 0.1568
H22 H 0.0664 0.4872 0.0964
C37 C 0.3010(4) 0.6599(4) 0.1709(4)
C38 C 0.3494(5) 0.6661(4) 0.1273(4)
C39 C 0.4632(6) 0.6712(4) 0.0972(4)
H23 H 0.5111 0.6712 0.1048
C40 C 0.4435(8) 0.6757(5) 0.0446(4)
H24 H 0.4768 0.6798 0.0176
C41 C 0.3728(9) 0.6739(6) 0.0335(5)
H25 H 0.3571 0.6755 -0.0015
C42 C 0.3239(6) 0.6696(5) 0.0761(5)
C43 C 0.2490(8) 0.6690(7) 0.0690(7)
H26 H 0.2311 0.6712 0.0347
C44 C 0.2042(6) 0.6656(6) 0.1092(7)
H27 H 0.1561 0.6658 0.1025
C45 C 0.2284(5) 0.6617(4) 0.1618(6)
C46 C 0.1844(6) 0.6560(6) 0.2058(8)
H28 H 0.1362 0.6519 0.2006
C47 C 0.2102(7) 0.6561(5) 0.2559(7)
H29 H 0.1805 0.6596 0.2852
C48 C 0.2843(6) 0.6508(5) 0.2624(5)
H30 H 0.3028 0.6441 0.2962
N1 N 0.4891(3) 0.6986(3) 0.2856(2)
N2 N 0.5362(3) 0.7712(3) 0.3395(3)
N3 N 0.7015(4) 0.8329(3) 0.3498(3)
N4 N 0.6770(4) 0.8567(3) 0.4549(3)
N5 N 0.3282(4) 0.6554(3) 0.2204(3)
N6 N 0.4189(3) 0.6668(3) 0.1377(3)
N7 N 0.4465(3) 0.5335(3) 0.1869(3)
N8 N 0.4303(3) 0.4459(3) 0.1387(3)
O1 O 0.4317(3) 0.5824(3) 0.3100(3)
O2 O 0.4493(4) 0.5973(3) 0.3958(3)
O3 O 0.5041(3) 0.6744(3) 0.4554(2)
H31 H 0.4846 0.6492 0.4355
O4 O 0.5577(3) 0.7660(3) 0.4491(2)
O5 O 0.5972(4) 0.7771(4) 0.1101(3)
O6 O 0.5226(4) 0.3799(3) 0.0766(3)
O7 O 0.6074(3) 0.4512(4) 0.0892(4)
H32 H 0.6122 0.4841 0.1059
O8 O 0.6237(3) 0.5508(3) 0.1388(3)
O9 O 0.5633(3) 0.6112(3) 0.1934(3)
O10 O 0.1600(3) 0.4881(2) 0.1254(3)
Cd1 Cd 0.59070(3) 0.84771(3) 0.38939(2)
Cd2 Cd 0.44685(3) 0.63074(3) 0.22489(2)
N8B N 0.5697(3) 0.9459(3) 0.3613(3)
O6B O 0.4774(4) 0.8799(3) 0.4234(3)
Cd1B Cd 0.40930(3) 0.34771(3) 0.11061(2)
loop_
_geom_bond_atom_site_label_1
_geom_bond_atom_site_label_2
_geom_bond_site_symmetry_1
_geom_bond_site_symmetry_2
C1 C2 1_555 1_555
C2 C3 1_555 1_555
C3 C4 1_555 1_555
C4 O3 1_555 1_555
C5 C6 1_555 1_555
C6 C7 1_555 1_555
C7 H1 1_555 1_555
C8 C7 1_555 1_555
C9 C8 1_555 1_555
H2 C9 1_555 1_555
C10 C9 1_555 1_555
H3 C10 1_555 1_555
C11 C6 1_555 1_555
H4 C11 1_555 1_555
C12 H5 1_555 1_555
H6 C12 1_555 1_555
H7 C12 1_555 1_555
C13 C14 1_555 1_555
C14 C18 1_555 1_555
C15 H8 1_555 1_555
C16 C15 1_555 1_555
H9 C16 1_555 1_555
C17 C16 1_555 1_555
H10 C17 1_555 1_555
C18 C17 1_555 1_555
C19 C18 1_555 1_555
H11 C19 1_555 1_555
C20 C19 1_555 1_555
H12 C20 1_555 1_555
C21 C13 1_555 1_555
C22 C21 1_555 1_555
H13 C22 1_555 1_555
C23 C22 1_555 1_555
H14 C23 1_555 1_555
C24 C23 1_555 1_555
H15 C24 1_555 1_555
C25 C26 1_555 1_555
C26 C27 1_555 1_555
C27 C28 1_555 1_555
C28 O6 1_555 1_555
C29 C30 1_555 1_555
C30 C31 1_555 1_555
C31 H16 1_555 1_555
C32 C31 1_555 1_555
H17 C32 1_555 1_555
C33 C32 1_555 1_555
H18 C33 1_555 1_555
C34 C33 1_555 1_555
C35 C30 1_555 1_555
H19 C35 1_555 1_555
C36 H20 1_555 1_555
H21 C36 1_555 1_555
H22 C36 1_555 1_555
C37 C38 1_555 1_555
C38 C42 1_555 1_555
C39 H23 1_555 1_555
C40 C39 1_555 1_555
H24 C40 1_555 1_555
C41 C40 1_555 1_555
H25 C41 1_555 1_555
C42 C41 1_555 1_555
C43 C42 1_555 1_555
H26 C43 1_555 1_555
C44 C43 1_555 1_555
H27 C44 1_555 1_555
C45 C37 1_555 1_555
C46 C45 1_555 1_555
H28 C46 1_555 1_555
C47 C46 1_555 1_555
H29 C47 1_555 1_555
C48 C47 1_555 1_555
H30 C48 1_555 1_555
N1 C2 1_555 1_555
N2 C3 1_555 1_555
N3 C13 1_555 1_555
N4 C14 1_555 1_555
N5 C37 1_555 1_555
N6 C38 1_555 1_555
N7 C26 1_555 1_555
N8 C27 1_555 1_555
O1 C1 1_555 1_555
O2 C1 1_555 1_555
O3 H31 1_555 1_555
O4 C4 1_555 1_555
O5 C8 1_555 1_555
O6 Cd1B 1_555 1_555
O7 C28 1_555 1_555
H32 O7 1_555 1_555
O8 C25 1_555 1_555
O9 C25 1_555 1_555
O10 C34 1_555 1_555
Cd1 N2 1_555 1_555
Cd2 N1 1_555 1_555
N8B Cd1 1_555 1_555
O6B Cd1 1_555 1_555
Cd1B N8 1_555 1_555
C5 N1 1_555 1_555
C5 N2 1_555 1_555
C10 C11 1_555 1_555
C12 O5 1_555 1_555
C15 N4 1_555 1_555
C20 C21 1_555 1_555
C24 N3 1_555 1_555
C29 N7 1_555 1_555
C29 N8 1_555 1_555
C34 C35 1_555 1_555
C36 O10 1_555 1_555
C39 N6 1_555 1_555
C44 C45 1_555 1_555
C48 N5 1_555 1_555
N3 Cd1 1_555 1_555
N4 Cd1 1_555 1_555
N5 Cd2 1_555 1_555
N6 Cd2 1_555 1_555
N7 Cd2 1_555 1_555
O1 Cd2 1_555 1_555
O4 Cd1 1_555 1_555
O9 Cd2 1_555 1_555

#END
