
#######################################################################
#
#                 Cambridge Crystallographic Data Centre
#                                CCDC 
#
#######################################################################
#
# If this CIF has been generated from an entry in the Cambridge 
# Structural Database, then it will include bibliographic, chemical, 
# crystal, experimental, refinement or atomic coordinate data resulting 
# from the CCDC's data processing and validation procedures.
#
#######################################################################

data_ZIBFUL
_symmetry_cell_setting           monoclinic
_symmetry_space_group_name_H-M   'C 2/c'
_symmetry_Int_Tables_number      15
_space_group_name_Hall           '-C 2yn'
loop_
_symmetry_equiv_pos_site_id
_symmetry_equiv_pos_as_xyz
1 x,y,z
2 -x,y,1/2-z
3 1/2+x,1/2+y,z
4 1/2-x,1/2+y,1/2-z
5 -x,-y,-z
6 x,-y,1/2+z
7 1/2-x,1/2-y,-z
8 1/2+x,1/2-y,1/2+z
_cell_length_a                   20.839(6)
_cell_length_b                   9.141(4)
_cell_length_c                   15.206(4)
_cell_angle_alpha                90
_cell_angle_beta                 105.58(2)
_cell_angle_gamma                90
_cell_volume                     2790.15
loop_
_atom_site_label
_atom_site_type_symbol
_atom_site_fract_x
_atom_site_fract_y
_atom_site_fract_z
Cd1 Cd 0.5000 0.5000 0.5000
Ni1 Ni 0.5000 0.8586(2) 0.2500
N1 N 0.4604(4) 0.6238(10) 0.3602(5)
N2 N 0.4456(5) 1.0969(11) 0.3474(8)
N3 N 0.4021(4) 0.3512(9) 0.4497(5)
N4 N 0.4459(4) 0.6718(8) 0.5739(5)
C1 C 0.4722(5) 0.7112(10) 0.3159(5)
C2 C 0.4673(5) 1.0007(13) 0.3129(6)
C3 C 0.3749(5) 0.2552(10) 0.5124(7)
C4 C 0.3482(5) 0.3492(10) 0.5766(6)
C5 C 0.3147(5) 0.2579(10) 0.6363(7)
C6 C 0.2863(5) 0.3495(10) 0.6994(6)
C7 C 0.2531(6) 0.2602(11) 0.7599(7)
C8 C 0.2201(5) 0.3493(10) 0.8180(6)
C9 C 0.1813(5) 0.2603(11) 0.8705(7)
C10 C 0.1465(5) 0.3517(11) 0.9273(7)
C11 C 0.6115(5) 0.2440(12) 0.4864(7)
H1 H 0.41115 0.28433 0.40256
H2 H 0.36547 0.41981 0.42063
H3 H 0.33472 0.18690 0.47102
H4 H 0.41497 0.18492 0.55226
H5 H 0.38944 0.41073 0.62089
H6 H 0.31125 0.42556 0.53585
H7 H 0.35195 0.18296 0.67772
H8 H 0.27417 0.19428 0.59156
H9 H 0.32687 0.41361 0.74347
H10 H 0.24891 0.42383 0.65760
H11 H 0.29154 0.19216 0.80520
H12 H 0.21528 0.18995 0.71581
H13 H 0.25896 0.41060 0.86748
H14 H 0.18570 0.42581 0.77371
H15 H 0.14369 0.19627 0.82154
H16 H 0.21624 0.18601 0.91671
H17 H 0.18342 0.42226 0.97308
H18 H 0.10863 0.41981 0.88114
H19 H 0.09297 0.32760 1.03214
H20 H 0.14781 0.17859 1.02713
H21 H 0.44341 0.56665 0.58812
H22 H 0.49326 0.70211 0.58356
C1A C 0.5278(5) 0.7112(10) 0.1841(5)
N1A N 0.5396(4) 0.6238(10) 0.1398(5)
Cd1A Cd 0.5000 0.5000 0.0000
Cd1G Cd 1.0000 0.0000 0.0000
N3G N 0.9021(4) 0.1488(9) -0.0503(5)
C3G C 0.8749(5) 0.2448(10) 0.0124(7)
C4G C 0.8482(5) 0.1508(10) 0.0766(6)
C5G C 0.8147(5) 0.2421(10) 0.1363(7)
C6G C 0.7863(5) 0.1505(10) 0.1994(6)
C7G C 0.7531(6) 0.2398(11) 0.2599(7)
C8G C 0.7201(5) 0.1507(10) 0.3180(6)
C9G C 0.6813(5) 0.2397(11) 0.3705(7)
C10G C 0.6465(5) 0.1483(11) 0.4273(7)
N4D N 0.5541(4) 0.3282(8) 0.4261(5)
N1D N 0.5396(4) 0.3762(10) 0.6398(5)
C11G C 0.1115(5) 0.2560(12) 0.9864(7)
N4C N 0.0541(4) 0.1718(8) 0.9261(5)
Cd1C Cd 0.0000 0.0000 1.0000
H21C H 0.05659 0.06665 0.91188
H22C H 0.00674 0.20211 0.91644
N3D N 0.5979(4) 0.6488(9) 0.5503(5)
H1D H 0.58885 0.71567 0.59744
H2D H 0.63453 0.58019 0.57937
H21D H 0.55659 0.43335 0.41188
H22D H 0.50674 0.29789 0.41644
H19G H 0.59297 0.17240 0.53214
H20G H 0.64781 0.32141 0.52713
H17G H 0.68342 0.07774 0.47308
H18G H 0.60863 0.08019 0.38114
H15G H 0.64369 0.30373 0.32154
H16G H 0.71624 0.31399 0.41671
H13G H 0.75896 0.08940 0.36748
H14G H 0.68570 0.07419 0.27371
H11G H 0.79154 0.30784 0.30520
H12G H 0.71528 0.31005 0.21581
H9G H 0.82687 0.08639 0.24347
H10G H 0.74891 0.07617 0.15760
H7G H 0.85195 0.31704 0.17772
H8G H 0.77417 0.30572 0.09156
H5G H 0.88944 0.08927 0.12089
H6G H 0.81125 0.07444 0.03585
H3G H 0.83472 0.31310 -0.02898
H4G H 0.91497 0.31508 0.05226
H1G H 0.91115 0.21567 -0.09744
H2G H 0.86547 0.08019 -0.07937
C2A C 0.5327(5) 1.0007(13) 0.1871(6)
N2A N 0.5544(5) 1.0969(11) 0.1526(8)
loop_
_geom_bond_atom_site_label_1
_geom_bond_atom_site_label_2
_geom_bond_site_symmetry_1
_geom_bond_site_symmetry_2
Cd1 N1 1_555 1_555
Ni1 C1 1_555 1_555
N1 C1 1_555 1_555
N2 C2 1_555 1_555
N3 Cd1 1_555 1_555
N4 Cd1 1_555 1_555
C2 Ni1 1_555 1_555
C3 N3 1_555 1_555
C4 C3 1_555 1_555
C5 C4 1_555 1_555
C6 C5 1_555 1_555
C7 C6 1_555 1_555
C8 C7 1_555 1_555
C9 C8 1_555 1_555
C10 C9 1_555 1_555
C11 C10G 1_555 1_555
H1 N3 1_555 1_555
H2 N3 1_555 1_555
H3 C3 1_555 1_555
H4 C3 1_555 1_555
H5 C4 1_555 1_555
H6 C4 1_555 1_555
H7 C5 1_555 1_555
H8 C5 1_555 1_555
H9 C6 1_555 1_555
H10 C6 1_555 1_555
H11 C7 1_555 1_555
H12 C7 1_555 1_555
H13 C8 1_555 1_555
H14 C8 1_555 1_555
H15 C9 1_555 1_555
H16 C9 1_555 1_555
H17 C10 1_555 1_555
H18 C10 1_555 1_555
H19 C11G 1_555 1_555
H20 C11G 1_555 1_555
H21 N4 1_555 1_555
H22 N4 1_555 1_555
C1A Ni1 1_555 1_555
N1A C1A 1_555 1_555
Cd1A N1A 1_555 1_555
Cd1G N3G 1_555 1_555
N3G C3G 1_555 1_555
C3G C4G 1_555 1_555
C4G C5G 1_555 1_555
C5G C6G 1_555 1_555
C6G C7G 1_555 1_555
C7G C8G 1_555 1_555
C8G C9G 1_555 1_555
C9G C10G 1_555 1_555
C10G H17G 1_555 1_555
N4D Cd1 1_555 1_555
N1D Cd1 1_555 1_555
C11G C10 1_555 1_555
N4C C11G 1_555 1_555
Cd1C N4C 1_555 1_555
H21C N4C 1_555 1_555
H22C N4C 1_555 1_555
N3D Cd1 1_555 1_555
H1D N3D 1_555 1_555
H2D N3D 1_555 1_555
H21D N4D 1_555 1_555
H22D N4D 1_555 1_555
H19G C11 1_555 1_555
H20G C11 1_555 1_555
H18G C10G 1_555 1_555
H15G C9G 1_555 1_555
H16G C9G 1_555 1_555
H13G C8G 1_555 1_555
H14G C8G 1_555 1_555
H11G C7G 1_555 1_555
H12G C7G 1_555 1_555
H9G C6G 1_555 1_555
H10G C6G 1_555 1_555
H7G C5G 1_555 1_555
H8G C5G 1_555 1_555
H5G C4G 1_555 1_555
H6G C4G 1_555 1_555
H3G C3G 1_555 1_555
H4G C3G 1_555 1_555
H1G N3G 1_555 1_555
H2G N3G 1_555 1_555
C2A Ni1 1_555 1_555
N2A C2A 1_555 1_555
C11 N4D 1_555 1_555

#END
