
#######################################################################
#
#                 Cambridge Crystallographic Data Centre
#                                CCDC 
#
#######################################################################
#
# If this CIF has been generated from an entry in the Cambridge 
# Structural Database, then it will include bibliographic, chemical, 
# crystal, experimental, refinement or atomic coordinate data resulting 
# from the CCDC's data processing and validation procedures.
#
#######################################################################

data_ZIBFEV
_symmetry_cell_setting           orthorhombic
_symmetry_space_group_name_H-M   'C 2 2 21'
_symmetry_Int_Tables_number      20
_space_group_name_Hall           'C 2n 2'
loop_
_symmetry_equiv_pos_site_id
_symmetry_equiv_pos_as_xyz
1 x,y,z
2 -x,-y,1/2+z
3 x,-y,-z
4 -x,y,1/2-z
5 1/2+x,1/2+y,z
6 1/2-x,1/2-y,1/2+z
7 1/2+x,1/2-y,-z
8 1/2-x,1/2+y,1/2-z
_cell_length_a                   9.794(2)
_cell_length_b                   12.961(3)
_cell_length_c                   16.049(3)
_cell_angle_alpha                90
_cell_angle_beta                 90
_cell_angle_gamma                90
_cell_volume                     2037.26
loop_
_atom_site_label
_atom_site_type_symbol
_atom_site_fract_x
_atom_site_fract_y
_atom_site_fract_z
Cd1 Cd 0.5000 0.46305(3) 0.2500
Ni1 Ni 0.86131(8) 0.5000 0.5000
N1 N 0.6459(5) 0.4696(4) 0.3687(3)
N2 N 1.0741(5) 0.4737(5) 0.3666(3)
N3 N 0.3411(5) 0.3354(4) 0.2948(3)
N4 N 0.6426(5) 0.5913(3) 0.1935(2)
C1 C 0.7267(4) 0.4825(3) 0.4185(3)
C2 C 0.9927(6) 0.4838(3) 0.4181(3)
C3 C 0.3803(7) 0.2435(4) 0.3435(4)
C4 C 0.4031(6) 0.2667(4) 0.4358(3)
C5 C 0.2658(5) 0.2857(4) 0.4805(4)
C6 C 0.2807(6) 0.2959(4) 0.5757(3)
C7 C 0.6315(6) 0.6138(4) 0.1022(3)
H1 H 0.29661 0.30871 0.24306
H2 H 0.27192 0.37276 0.32938
H3 H 0.29857 0.18571 0.33799
H4 H 0.47543 0.21209 0.31738
H5 H 0.45495 0.20063 0.46496
H6 H 0.46741 0.33587 0.44169
H7 H 0.19719 0.22061 0.46705
H8 H 0.22084 0.35738 0.45614
H9 H 0.32709 0.22459 0.59989
H10 H 0.17843 0.30567 0.60291
H11 H 0.66388 0.54498 0.06728
H12 H 0.52437 0.63142 0.08746
H13 H 0.73900 0.56998 0.20459
H14 H 0.62252 0.65693 0.22382
C1B C 0.7267(4) 0.5175(3) 0.5815(3)
N1B N 0.6459(5) 0.5304(4) 0.6313(3)
Cd1B Cd 0.5000 0.53695(3) 0.7500
N4C N 0.3574(5) 0.5913(3) 0.3065(2)
N1C N 0.3541(5) 0.4696(4) 0.1313(3)
Cd1A Cd 0.5000 0.53695(3) -0.2500
N3A N 0.6589(5) 0.6646(4) -0.2052(3)
C3A C 0.6197(7) 0.7565(4) -0.1565(4)
C4A C 0.5969(6) 0.7333(4) -0.0642(3)
C5A C 0.7342(5) 0.7143(4) -0.0195(4)
C6A C 0.7193(6) 0.7041(4) 0.0757(3)
N3C N 0.6589(5) 0.3354(4) 0.2052(3)
H1C H 0.70339 0.30871 0.25694
H2C H 0.72808 0.37276 0.17062
H9A H 0.67291 0.77541 0.09989
H10A H 0.82157 0.69433 0.10291
H7A H 0.80281 0.77939 -0.03295
H8A H 0.77916 0.64262 -0.04386
H5A H 0.54505 0.79937 -0.03504
H6A H 0.53259 0.66413 -0.05831
H3A H 0.70143 0.81429 -0.16201
H4A H 0.52457 0.78791 -0.18262
H1A H 0.70339 0.69129 -0.25694
H2A H 0.72808 0.62724 -0.17062
H13C H 0.26100 0.56998 0.29541
H14C H 0.37748 0.65693 0.27618
N4A N 0.3574(5) 0.4087(3) 0.6935(2)
C7A C 0.3685(6) 0.3862(4) 0.6022(3)
H13A H 0.26100 0.43002 0.70459
H14A H 0.37748 0.34307 0.72382
C2B C 0.9927(6) 0.5162(3) 0.5819(3)
N2B N 1.0741(5) 0.5263(5) 0.6334(3)
H11A H 0.33612 0.45502 0.56728
H12A H 0.47563 0.36858 0.58746
O1 O 0.5000 0.8014(4) 0.2500
loop_
_geom_bond_atom_site_label_1
_geom_bond_atom_site_label_2
_geom_bond_site_symmetry_1
_geom_bond_site_symmetry_2
Cd1 N1 1_555 1_555
Ni1 C1 1_555 1_555
N1 C1 1_555 1_555
N2 C2 1_555 1_555
N3 Cd1 1_555 1_555
N4 Cd1 1_555 1_555
C2 Ni1 1_555 1_555
C3 N3 1_555 1_555
C4 C3 1_555 1_555
C5 C4 1_555 1_555
C6 C5 1_555 1_555
C7 N4 1_555 1_555
H1 N3 1_555 1_555
H2 N3 1_555 1_555
H3 C3 1_555 1_555
H4 C3 1_555 1_555
H5 C4 1_555 1_555
H6 C4 1_555 1_555
H7 C5 1_555 1_555
H8 C5 1_555 1_555
H9 C6 1_555 1_555
H10 C6 1_555 1_555
H11 C7 1_555 1_555
H12 C7 1_555 1_555
H13 N4 1_555 1_555
H14 N4 1_555 1_555
C1B Ni1 1_555 1_555
N1B C1B 1_555 1_555
Cd1B N1B 1_555 1_555
N4C Cd1 1_555 1_555
N1C Cd1 1_555 1_555
Cd1A N3A 1_555 1_555
N3A C3A 1_555 1_555
C3A C4A 1_555 1_555
C4A C5A 1_555 1_555
C5A C6A 1_555 1_555
C6A C7 1_555 1_555
N3C Cd1 1_555 1_555
H1C N3C 1_555 1_555
H2C N3C 1_555 1_555
H9A C6A 1_555 1_555
H10A C6A 1_555 1_555
H7A C5A 1_555 1_555
H8A C5A 1_555 1_555
H5A C4A 1_555 1_555
H6A C4A 1_555 1_555
H3A C3A 1_555 1_555
H4A C3A 1_555 1_555
H1A N3A 1_555 1_555
H2A N3A 1_555 1_555
H13C N4C 1_555 1_555
H14C N4C 1_555 1_555
N4A Cd1B 1_555 1_555
C7A C6 1_555 1_555
H13A N4A 1_555 1_555
H14A N4A 1_555 1_555
C2B Ni1 1_555 1_555
N2B C2B 1_555 1_555
H11A C7A 1_555 1_555
H12A C7A 1_555 1_555
N4A C7A 1_555 1_555

#END
