
#######################################################################
#
#                 Cambridge Crystallographic Data Centre
#                                CCDC 
#
#######################################################################
#
# If this CIF has been generated from an entry in the Cambridge 
# Structural Database, then it will include bibliographic, chemical, 
# crystal, experimental, refinement or atomic coordinate data resulting 
# from the CCDC's data processing and validation procedures.
#
#######################################################################

data_ZIBGOI
_symmetry_cell_setting           monoclinic
_symmetry_space_group_name_H-M   'P 21/c'
_symmetry_Int_Tables_number      14
_space_group_name_Hall           '-P 2ybc'
loop_
_symmetry_equiv_pos_site_id
_symmetry_equiv_pos_as_xyz
1 x,y,z
2 -x,1/2+y,1/2-z
3 -x,-y,-z
4 x,1/2-y,1/2+z
_cell_length_a                   16.085(3)
_cell_length_b                   6.6736(10)
_cell_length_c                   12.681(2)
_cell_angle_alpha                90
_cell_angle_beta                 111.524(2)
_cell_angle_gamma                90
_cell_volume                     1266.31
loop_
_atom_site_label
_atom_site_type_symbol
_atom_site_fract_x
_atom_site_fract_y
_atom_site_fract_z
Sr1 Sr 0.525800(17) 0.56429(3) 0.68184(2)
O1 O 0.71109(17) 0.5730(3) 0.7598(2)
H1 H 0.7281 0.6889 0.7602
C1 C 0.35629(18) 0.5603(4) 0.8996(2)
O2 O 0.39428(14) 0.2118(3) 1.13338(16)
N1 N 0.28801(16) 0.5315(4) 1.0259(2)
C2 C 0.34476(19) 0.4390(4) 0.9814(2)
O3 O 0.42179(15) 0.1314(3) 0.98119(17)
N2 N 0.30341(17) 0.7254(4) 0.8937(2)
C3 C 0.38929(18) 0.2470(4) 1.0341(2)
C4 C 0.1698(2) 1.0081(5) 0.9122(3)
H2 H 0.1800 1.0083 0.8446
C5 C 0.20643(19) 0.8579(5) 0.9916(2)
C6 C 0.1180(2) 1.1585(5) 0.9336(3)
C7 C 0.26473(19) 0.7051(4) 0.9712(2)
C8 C 0.1909(2) 0.8581(5) 1.0922(3)
H3 H 0.2150 0.7578 1.1456
C9 C 0.1395(3) 1.0078(6) 1.1125(3)
H4 H 0.1294 1.0076 1.1802
O4 O 0.47541(13) 0.4309(3) 0.85208(17)
O5 O 0.40965(14) 0.7131(3) 0.77082(16)
C10 C 0.1025(2) 1.1583(6) 1.0338(3)
H5 H 0.0677 1.2580 1.0484
C11 C 0.41739(18) 0.5649(4) 0.8360(2)
O6 O 0.08564(19) 1.2980(4) 0.8493(2)
C12 C 0.0332(3) 1.4559(6) 0.8668(4)
H6 H 0.0663 1.5241 0.9362
H7 H -0.0208 1.4020 0.8713
H8 H 0.0184 1.5486 0.8047
H9 H 0.720(3) 0.549(7) 0.818(4)
H10 H 0.304(2) 0.816(6) 0.860(3)
Sr1A Sr 0.474200(17) 0.06429(3) 0.81816(2)
Sr1A_2 Sr 0.474200(17) 1.06429(3) 0.81816(2)
Sr1B Sr 0.474200(17) 0.43571(3) 1.31816(2)
Sr1C Sr 0.525800(17) -0.06429(3) 1.18184(2)
O2B O 0.60572(14) 0.7882(3) 0.86662(16)
O2C O 0.39428(14) 0.2882(3) 0.63338(16)
O3A O 0.57821(15) 0.6314(3) 0.51881(17)
O3C O 0.42179(15) 0.3686(3) 0.48119(17)
O4A O 0.52459(13) 0.9309(3) 0.64792(17)
O5A O 0.59035(14) 0.2131(3) 0.72918(16)
loop_
_geom_bond_atom_site_label_1
_geom_bond_atom_site_label_2
_geom_bond_site_symmetry_1
_geom_bond_site_symmetry_2
Sr1 O1 1_555 1_555
O1 H1 1_555 1_555
C1 C2 1_555 1_555
O2 C3 1_555 1_555
N1 C2 1_555 1_555
C2 C3 1_555 1_555
O3 C3 1_555 1_555
N2 C1 1_555 1_555
C4 H2 1_555 1_555
C5 C4 1_555 1_555
C6 C4 1_555 1_555
C7 N1 1_555 1_555
C8 C5 1_555 1_555
H3 C8 1_555 1_555
C9 C8 1_555 1_555
H4 C9 1_555 1_555
O4 Sr1 1_555 1_555
O5 Sr1 1_555 1_555
C10 C6 1_555 1_555
H5 C10 1_555 1_555
C11 C1 1_555 1_555
O6 C6 1_555 1_555
C12 O6 1_555 1_555
H6 C12 1_555 1_555
H7 C12 1_555 1_555
H8 C12 1_555 1_555
H9 O1 1_555 1_555
H10 N2 1_555 1_555
Sr1A O3 1_555 1_555
Sr1A_2 O5 1_555 1_555
Sr1B O2 1_555 1_555
Sr1C O2 1_555 1_555
O2B Sr1 1_555 1_555
O2C Sr1 1_555 1_555
O3A Sr1 1_555 1_555
O3C Sr1 1_555 1_555
O4A Sr1 1_555 1_555
O5A Sr1 1_555 1_555
O3 Sr1C 1_555 1_555
N2 C7 1_555 1_555
C5 C7 1_555 1_555
C9 C10 1_555 1_555
O4 C11 1_555 1_555
O4 Sr1A 1_555 1_555
O5 C11 1_555 1_555
Sr1A O2C 1_555 1_555
Sr1A O5A 1_555 1_555
Sr1A_2 O2B 1_555 1_555
Sr1A_2 O4A 1_555 1_555

#END
