
#######################################################################
#
#                 Cambridge Crystallographic Data Centre
#                                CCDC 
#
#######################################################################
#
# If this CIF has been generated from an entry in the Cambridge 
# Structural Database, then it will include bibliographic, chemical, 
# crystal, experimental, refinement or atomic coordinate data resulting 
# from the CCDC's data processing and validation procedures.
#
#######################################################################

data_ZIBGAU
_symmetry_cell_setting           orthorhombic
_symmetry_space_group_name_H-M   'P b c n'
_symmetry_Int_Tables_number      60
_space_group_name_Hall           '-P 2n 2ab'
loop_
_symmetry_equiv_pos_site_id
_symmetry_equiv_pos_as_xyz
1 x,y,z
2 1/2-x,1/2-y,1/2+z
3 -x,y,1/2-z
4 1/2+x,1/2-y,-z
5 -x,-y,-z
6 1/2+x,1/2+y,1/2-z
7 x,-y,1/2+z
8 1/2-x,1/2+y,z
_cell_length_a                   16.9360(4)
_cell_length_b                   12.3483(8)
_cell_length_c                   20.2453(7)
_cell_angle_alpha                90
_cell_angle_beta                 90
_cell_angle_gamma                90
_cell_volume                     4233.92
loop_
_atom_site_label
_atom_site_type_symbol
_atom_site_fract_x
_atom_site_fract_y
_atom_site_fract_z
Cu1 Cu 0.250115(15) 1.03593(2) 0.285260(13)
N1 N 0.24541(10) 0.87474(17) 0.27200(9)
N2 N 0.17773(11) 1.04300(15) 0.36387(9)
O1 O 0.32646(11) 1.02865(13) 0.21023(8)
N3 N 0.33381(11) 0.99884(17) 0.37100(9)
O2 O -0.04211(10) 0.77658(17) 0.40178(9)
C1 C 0.22198(14) 0.78133(18) 0.29916(11)
C2 C 0.08699(14) 0.78152(19) 0.34885(12)
H1 H 0.0655 0.7952 0.3074
O3 O 0.39126(10) 0.91107(14) 0.14734(8)
C3 C 0.16832(14) 0.77219(18) 0.35659(11)
C4 C 0.10296(14) 1.0731(2) 0.36051(12)
H2 H 0.0814 1.0881 0.3193
C5 C 0.03851(14) 0.7702(2) 0.40331(12)
C6 C 0.20017(15) 0.75272(19) 0.41798(11)
H3 H 0.2545 0.7463 0.4231
C7 C 0.32298(14) 0.95731(19) 0.48732(12)
C8 C 0.15072(15) 0.7427(2) 0.47227(11)
H4 H 0.1721 0.7302 0.5139
C9 C 0.27461(16) 0.9577(2) 0.54510(12)
H5 H 0.2953 0.9334 0.5850
C10 C 0.16449(14) 1.02495(19) 0.48169(12)
C11 C 0.07104(15) 0.7510(2) 0.46487(11)
H6 H 0.0383 0.7437 0.5015
C12 C 0.20906(13) 1.01985(18) 0.42351(11)
C13 C 0.34187(14) 0.9339(2) 0.19155(11)
C14 C 0.40894(14) 0.9719(2) 0.37380(12)
H7 H 0.4392 0.9784 0.3357
C15 C 0.29933(13) 0.84613(19) 0.22517(10)
C16 C 0.05532(15) 1.0834(2) 0.41597(12)
H8 H 0.0031 1.1058 0.4119
C17 C 0.19949(15) 0.9928(2) 0.54268(11)
H9 H 0.1700 0.9962 0.5813
C18 C 0.08641(15) 1.0602(2) 0.47649(13)
H10 H 0.0556 1.0678 0.5142
C19 C 0.40225(14) 0.9271(2) 0.48780(12)
H11 H 0.4256 0.9024 0.5266
C20 C 0.29099(13) 0.99071(19) 0.42676(11)
C21 C 0.44546(15) 0.9339(2) 0.43112(12)
H12 H 0.4983 0.9137 0.4307
C22 C -0.07980(17) 0.7876(3) 0.33899(15)
H13 H -0.0637 0.8545 0.3189
H14 H -0.1361 0.7877 0.3449
H15 H -0.0649 0.7282 0.3111
N4 N 0.25763(11) 0.69502(17) 0.27221(10)
O4 O 0.40338(11) 0.70988(14) 0.14200(9)
H16 H 0.4006 0.7759 0.1455
C23 C 0.30695(14) 0.73589(19) 0.22513(10)
C24 C 0.35954(14) 0.6644(2) 0.18757(11)
O5 O 0.36168(11) 0.56727(15) 0.19814(8)
Cu1G Cu 0.249885(15) 0.53593(2) 0.285260(13)
N4G N 0.24237(11) 1.19502(17) 0.27221(10)
O5G O 0.13832(11) 1.06727(15) 0.19814(8)
loop_
_geom_bond_atom_site_label_1
_geom_bond_atom_site_label_2
_geom_bond_site_symmetry_1
_geom_bond_site_symmetry_2
Cu1 N1 1_555 1_555
N1 C1 1_555 1_555
N2 Cu1 1_555 1_555
O1 Cu1 1_555 1_555
N3 Cu1 1_555 1_555
O2 C5 1_555 1_555
C1 C3 1_555 1_555
C2 H1 1_555 1_555
O3 C13 1_555 1_555
C3 C2 1_555 1_555
C4 N2 1_555 1_555
H2 C4 1_555 1_555
C5 C2 1_555 1_555
C6 C3 1_555 1_555
H3 C6 1_555 1_555
C7 C9 1_555 1_555
C8 C6 1_555 1_555
H4 C8 1_555 1_555
C9 H5 1_555 1_555
C10 C12 1_555 1_555
C11 C5 1_555 1_555
H6 C11 1_555 1_555
C12 N2 1_555 1_555
C13 O1 1_555 1_555
C14 N3 1_555 1_555
H7 C14 1_555 1_555
C15 N1 1_555 1_555
C16 C4 1_555 1_555
H8 C16 1_555 1_555
C17 C9 1_555 1_555
H9 C17 1_555 1_555
C18 C10 1_555 1_555
H10 C18 1_555 1_555
C19 C7 1_555 1_555
H11 C19 1_555 1_555
C20 N3 1_555 1_555
C21 C14 1_555 1_555
H12 C21 1_555 1_555
C22 O2 1_555 1_555
H13 C22 1_555 1_555
H14 C22 1_555 1_555
H15 C22 1_555 1_555
N4 C1 1_555 1_555
O4 H16 1_555 1_555
C23 C15 1_555 1_555
C24 O4 1_555 1_555
O5 C24 1_555 1_555
Cu1G N4 1_555 1_555
N4G Cu1 1_555 1_555
O5G Cu1 1_555 1_555
C7 C20 1_555 1_555
C8 C11 1_555 1_555
C10 C17 1_555 1_555
C12 C20 1_555 1_555
C13 C15 1_555 1_555
C16 C18 1_555 1_555
C19 C21 1_555 1_555
N4 C23 1_555 1_555
C23 C24 1_555 1_555
O5 Cu1G 1_555 1_555

#END
