
#######################################################################
#
#                 Cambridge Crystallographic Data Centre
#                                CCDC 
#
#######################################################################
#
# If this CIF has been generated from an entry in the Cambridge 
# Structural Database, then it will include bibliographic, chemical, 
# crystal, experimental, refinement or atomic coordinate data resulting 
# from the CCDC's data processing and validation procedures.
#
#######################################################################

data_ZIBGEY
_symmetry_cell_setting           triclinic
_symmetry_space_group_name_H-M   'P -1'
_symmetry_Int_Tables_number      2
_space_group_name_Hall           '-P 1'
loop_
_symmetry_equiv_pos_site_id
_symmetry_equiv_pos_as_xyz
1 x,y,z
2 -x,-y,-z
_cell_length_a                   9.145(3)
_cell_length_b                   10.039(3)
_cell_length_c                   14.935(4)
_cell_angle_alpha                70.431(3)
_cell_angle_beta                 72.443(4)
_cell_angle_gamma                73.837(3)
_cell_volume                     1207.52
loop_
_atom_site_label
_atom_site_type_symbol
_atom_site_fract_x
_atom_site_fract_y
_atom_site_fract_z
C1 C 0.8076(8) 0.6635(7) 0.6556(5)
C2 C 0.7278(8) 0.6934(6) 0.7512(5)
C3 C 0.7293(9) 0.6108(7) 0.8448(5)
C4 C 0.8131(10) 0.4658(7) 0.8904(6)
C5 C 0.5739(8) 0.8197(7) 0.8457(5)
C6 C 0.4608(8) 0.9360(7) 0.8865(5)
C7 C 0.3210(8) 0.9079(8) 0.9512(5)
H1 H 0.2970 0.8169 0.9702
C8 C 0.2180(9) 1.0183(8) 0.9870(6)
H2 H 0.1225 1.0018 1.0291
C9 C 0.2540(9) 1.1502(9) 0.9618(6)
H3 H 0.1833 1.2228 0.9870
C10 C 0.3938(9) 1.1777(7) 0.8995(5)
C11 C 0.4981(8) 1.0698(7) 0.8605(5)
H4 H 0.5924 1.0878 0.8173
C12 C 0.5629(10) 1.3459(8) 0.8117(6)
H5 H 0.6528 1.2860 0.8356
H6 H 0.5655 1.4454 0.7997
H7 H 0.5639 1.3284 0.7521
C13 C 1.2785(8) 0.4717(7) 0.5859(5)
C14 C 1.2509(7) 0.6226(6) 0.5289(5)
C15 C 1.3118(7) 0.7377(6) 0.5217(5)
C16 C 1.4204(8) 0.7495(7) 0.5731(5)
C17 C 1.1549(7) 0.8097(6) 0.4250(5)
C18 C 1.0668(7) 0.9039(6) 0.3515(4)
C19 C 1.0284(8) 0.8474(7) 0.2914(5)
H8 H 1.0538 0.7484 0.2992
C20 C 0.9528(8) 0.9368(8) 0.2198(5)
H9 H 0.9275 0.8975 0.1796
C21 C 0.9139(8) 1.0835(7) 0.2065(5)
H10 H 0.8639 1.1430 0.1572
C22 C 0.9495(8) 1.1413(7) 0.2669(5)
C23 C 1.0253(7) 1.0504(7) 0.3403(5)
H11 H 1.0478 1.0890 0.3820
C24 C 0.8456(10) 1.3819(8) 0.1846(6)
H12 H 0.9148 1.3758 0.1227
H13 H 0.8250 1.4787 0.1894
H14 H 0.7491 1.3562 0.1899
N1 N 0.6298(6) 0.8257(5) 0.7525(4)
N2 N 0.6297(7) 0.6934(6) 0.9027(4)
H15 H 0.6067 0.6682 0.9655
N3 N 1.1502(6) 0.6694(5) 0.4673(4)
N4 N 1.2528(6) 0.8558(5) 0.4551(4)
O1 O 0.8885(6) 0.5357(4) 0.6570(3)
O2 O 0.7959(5) 0.7602(4) 0.5791(3)
O3 O 0.9144(7) 0.3937(5) 0.8309(4)
H16 H 0.9017 0.4323 0.7752
O4 O 0.7892(8) 0.4192(5) 0.9776(4)
O5 O 0.4241(7) 1.3128(5) 0.8828(4)
O6 O 1.2092(6) 0.3841(4) 0.5812(3)
O7 O 1.3790(6) 0.4296(5) 0.6401(4)
H17 H 1.4162 0.4981 0.6350
O8 O 1.4785(6) 0.6395(5) 0.6329(4)
O9 O 1.4476(5) 0.8749(4) 0.5547(3)
O10 O 0.9167(6) 1.2855(5) 0.2612(4)
O11 O 0.3834(6) 1.1064(5) 0.6606(4)
H18 H 0.3119 1.1505 0.6295
H19 H 0.3847 1.1577 0.6954
Cd1 Cd 1.0000 0.5000 0.5000
Cd2 Cd 0.61304(6) 0.96547(5) 0.59629(4)
C1A C 1.1924(8) 0.3365(7) 0.3444(5)
C2A C 1.2722(8) 0.3066(6) 0.2488(5)
C3A C 1.2707(9) 0.3892(7) 0.1552(5)
C4A C 1.1869(10) 0.5342(7) 0.1096(6)
C5A C 1.4261(8) 0.1803(7) 0.1543(5)
C6A C 1.5392(8) 0.0640(7) 0.1135(5)
C7A C 1.6790(8) 0.0921(8) 0.0488(5)
H1A H 1.7030 0.1831 0.0298
C8A C 1.7820(9) -0.0183(8) 0.0130(6)
H2A H 1.8775 -0.0018 -0.0291
C9A C 1.7460(9) -0.1502(9) 0.0382(6)
H3A H 1.8167 -0.2228 0.0130
C10A C 1.6062(9) -0.1777(7) 0.1005(5)
C11A C 1.5019(8) -0.0698(7) 0.1395(5)
H4A H 1.4076 -0.0878 0.1827
C12A C 1.4371(10) -0.3459(8) 0.1883(6)
H5A H 1.3472 -0.2860 0.1644
H6A H 1.4345 -0.4454 0.2003
H7A H 1.4361 -0.3284 0.2479
C13A C 0.7215(8) 0.5283(7) 0.4141(5)
C14A C 0.7491(7) 0.3774(6) 0.4711(5)
C15A C 0.6882(7) 0.2623(6) 0.4783(5)
C16A C 0.5796(8) 0.2505(7) 0.4269(5)
C17A C 0.8451(7) 0.1903(6) 0.5750(5)
C18A C 0.9332(7) 0.0961(6) 0.6485(4)
C19A C 0.9716(8) 0.1526(7) 0.7086(5)
H8A H 0.9462 0.2516 0.7008
C20A C 1.0472(8) 0.0632(8) 0.7802(5)
H9A H 1.0725 0.1025 0.8204
C21A C 1.0861(8) -0.0835(7) 0.7935(5)
H10A H 1.1361 -0.1430 0.8428
C22A C 1.0505(8) -0.1413(7) 0.7331(5)
C23A C 0.9747(7) -0.0504(7) 0.6597(5)
H11A H 0.9522 -0.0890 0.6180
C24A C 1.1544(10) -0.3819(8) 0.8154(6)
H12A H 1.0852 -0.3758 0.8773
H13A H 1.1750 -0.4787 0.8106
H14A H 1.2509 -0.3562 0.8101
N1A N 1.3702(6) 0.1743(5) 0.2475(4)
N2A N 1.3703(7) 0.3066(6) 0.0973(4)
H15A H 1.3933 0.3318 0.0345
N3A N 0.8498(6) 0.3306(5) 0.5327(4)
N4A N 0.7472(6) 0.1442(5) 0.5449(4)
O1A O 1.1115(6) 0.4643(4) 0.3430(3)
O2A O 1.2041(5) 0.2398(4) 0.4209(3)
O3A O 1.0856(7) 0.6063(5) 0.1691(4)
H16A H 1.0983 0.5677 0.2248
O4A O 1.2108(8) 0.5808(5) 0.0224(4)
O5A O 1.5759(7) -0.3128(5) 0.1172(4)
O6A O 0.7908(6) 0.6159(4) 0.4188(3)
O7A O 0.6210(6) 0.5704(5) 0.3599(4)
H17A H 0.5838 0.5019 0.3650
O8A O 0.5215(6) 0.3605(5) 0.3671(4)
O9A O 0.5524(5) 0.1251(4) 0.4453(3)
O10A O 1.0833(6) -0.2855(5) 0.7388(4)
O11A O 1.6166(6) -0.1064(5) 0.3394(4)
H18A H 1.6881 -0.1505 0.3705
H19A H 1.6153 -0.1577 0.3046
Cd2A Cd 1.38696(6) 0.03453(5) 0.40371(4)
N4_2 N 1.2528(6) -0.1442(5) 0.4551(4)
N4A_2 N 0.7472(6) 1.1442(5) 0.5449(4)
O9_2 O 0.4476(5) 0.8749(4) 0.5547(3)
O9_3 O 1.4476(5) -0.1251(4) 0.5547(3)
O9A_2 O 0.5524(5) 1.1251(4) 0.4453(3)
O9A_3 O 1.5524(5) 0.1251(4) 0.4453(3)
Cd2_2 Cd 0.61304(6) -0.03453(5) 0.59629(4)
Cd2_3 Cd 1.61304(6) 0.96547(5) 0.59629(4)
Cd2A_2 Cd 0.38696(6) 0.03453(5) 0.40371(4)
Cd2A_3 Cd 1.38696(6) 1.03453(5) 0.40371(4)
loop_
_geom_bond_atom_site_label_1
_geom_bond_atom_site_label_2
_geom_bond_site_symmetry_1
_geom_bond_site_symmetry_2
C1 C2 1_555 1_555
C2 C3 1_555 1_555
C3 C4 1_555 1_555
C4 O3 1_555 1_555
C5 C6 1_555 1_555
C6 C7 1_555 1_555
C7 H1 1_555 1_555
C8 C7 1_555 1_555
H2 C8 1_555 1_555
C9 C8 1_555 1_555
H3 C9 1_555 1_555
C10 C9 1_555 1_555
C11 C6 1_555 1_555
H4 C11 1_555 1_555
C12 H5 1_555 1_555
H6 C12 1_555 1_555
H7 C12 1_555 1_555
C13 C14 1_555 1_555
C14 C15 1_555 1_555
C15 C16 1_555 1_555
C16 O8 1_555 1_555
C17 C18 1_555 1_555
C18 C19 1_555 1_555
C19 H8 1_555 1_555
C20 C19 1_555 1_555
H9 C20 1_555 1_555
C21 C20 1_555 1_555
H10 C21 1_555 1_555
C22 C21 1_555 1_555
C23 C18 1_555 1_555
H11 C23 1_555 1_555
C24 H12 1_555 1_555
H13 C24 1_555 1_555
H14 C24 1_555 1_555
N1 C2 1_555 1_555
N2 C3 1_555 1_555
H15 N2 1_555 1_555
N3 C14 1_555 1_555
N4 C15 1_555 1_555
O1 C1 1_555 1_555
O2 C1 1_555 1_555
O3 H16 1_555 1_555
O4 C4 1_555 1_555
O5 C10 1_555 1_555
O6 C13 1_555 1_555
O7 C13 1_555 1_555
H17 O7 1_555 1_555
O9 C16 1_555 1_555
O10 C22 1_555 1_555
O11 H18 1_555 1_555
H19 O11 1_555 1_555
Cd1 N3 1_555 1_555
Cd2 N1 1_555 1_555
C1A C2A 1_555 1_555
C2A C3A 1_555 1_555
C3A C4A 1_555 1_555
C4A O3A 1_555 1_555
C5A C6A 1_555 1_555
C6A C7A 1_555 1_555
C7A H1A 1_555 1_555
C8A C7A 1_555 1_555
H2A C8A 1_555 1_555
C9A C8A 1_555 1_555
H3A C9A 1_555 1_555
C10A C9A 1_555 1_555
C11A C6A 1_555 1_555
H4A C11A 1_555 1_555
C12A H5A 1_555 1_555
H6A C12A 1_555 1_555
H7A C12A 1_555 1_555
C13A C14A 1_555 1_555
C14A C15A 1_555 1_555
C15A C16A 1_555 1_555
C16A O8A 1_555 1_555
C17A C18A 1_555 1_555
C18A C19A 1_555 1_555
C19A H8A 1_555 1_555
C20A C19A 1_555 1_555
H9A C20A 1_555 1_555
C21A C20A 1_555 1_555
H10A C21A 1_555 1_555
C22A C21A 1_555 1_555
C23A C18A 1_555 1_555
H11A C23A 1_555 1_555
C24A H12A 1_555 1_555
H13A C24A 1_555 1_555
H14A C24A 1_555 1_555
N1A C2A 1_555 1_555
N2A C3A 1_555 1_555
H15A N2A 1_555 1_555
N3A Cd1 1_555 1_555
N4A C15A 1_555 1_555
O1A Cd1 1_555 1_555
O2A C1A 1_555 1_555
O3A H16A 1_555 1_555
O4A C4A 1_555 1_555
O5A C10A 1_555 1_555
O6A Cd1 1_555 1_555
O7A C13A 1_555 1_555
H17A O7A 1_555 1_555
O9A C16A 1_555 1_555
O10A C22A 1_555 1_555
O11A H18A 1_555 1_555
H19A O11A 1_555 1_555
Cd2A N1A 1_555 1_555
N4_2 Cd2A 1_555 1_555
N4A_2 Cd2 1_555 1_555
O9_2 Cd2 1_555 1_555
O9_3 Cd2A 1_555 1_555
O9A_2 Cd2 1_555 1_555
O9A_3 Cd2A 1_555 1_555
Cd2_2 N4A 1_555 1_555
Cd2_3 O9 1_555 1_555
Cd2A_2 O9A 1_555 1_555
Cd2A_3 N4 1_555 1_555
C5 N1 1_555 1_555
C5 N2 1_555 1_555
C10 C11 1_555 1_555
C12 O5 1_555 1_555
C17 N3 1_555 1_555
C17 N4 1_555 1_555
C22 C23 1_555 1_555
C24 O10 1_555 1_555
O1 Cd1 1_555 1_555
O2 Cd2 1_555 1_555
O6 Cd1 1_555 1_555
O9 Cd2A_3 1_555 1_555
O11 Cd2 1_555 1_555
C1A O1A 1_555 1_555
C5A N1A 1_555 1_555
C5A N2A 1_555 1_555
C10A C11A 1_555 1_555
C12A O5A 1_555 1_555
C13A O6A 1_555 1_555
C14A N3A 1_555 1_555
C17A N3A 1_555 1_555
C17A N4A 1_555 1_555
C22A C23A 1_555 1_555
C24A O10A 1_555 1_555
O2A Cd2A 1_555 1_555
O9A Cd2_2 1_555 1_555
O11A Cd2A 1_555 1_555

#END
