
#######################################################################
#
#                 Cambridge Crystallographic Data Centre
#                                CCDC 
#
#######################################################################
#
# If this CIF has been generated from an entry in the Cambridge 
# Structural Database, then it will include bibliographic, chemical, 
# crystal, experimental, refinement or atomic coordinate data resulting 
# from the CCDC's data processing and validation procedures.
#
#######################################################################

data_ZIBJAX
_symmetry_cell_setting           orthorhombic
_symmetry_space_group_name_H-M   'A b a 2'
_symmetry_Int_Tables_number      41
_space_group_name_Hall           'A 2 -2ab'
loop_
_symmetry_equiv_pos_site_id
_symmetry_equiv_pos_as_xyz
1 x,y,z
2 -x,-y,z
3 1/2+x,1/2-y,z
4 1/2-x,1/2+y,z
5 x,1/2+y,1/2+z
6 -x,1/2-y,1/2+z
7 1/2+x,-y,1/2+z
8 1/2-x,y,1/2+z
_cell_length_a                   14.2446(19)
_cell_length_b                   17.708(2)
_cell_length_c                   7.3792(10)
_cell_angle_alpha                90
_cell_angle_beta                 90
_cell_angle_gamma                90
_cell_volume                     1861.35
loop_
_atom_site_label
_atom_site_type_symbol
_atom_site_fract_x
_atom_site_fract_y
_atom_site_fract_z
Zn1 Zn 0.0000 0.0000 -0.10344(11)
N1 N 0.12189(16) 0.00704(11) 0.0341(4)
N2 N 0.25809(16) 0.05285(11) 0.1262(4)
O1 O 0.03225(13) 0.41026(10) 0.2544(3)
O2 O -0.10602(12) 0.35148(10) 0.2251(4)
C1 C -0.01957(18) 0.35176(15) 0.2295(5)
C2 C -0.01872(19) 0.21090(15) 0.2148(5)
H1 H -0.0830 0.2121 0.2370
C3 C 0.02589(19) 0.14227(16) 0.1903(5)
H2 H -0.0080 0.0976 0.2013
C4 C 0.12076(18) 0.13971(14) 0.1494(4)
C5 C 0.1716(2) 0.20689(15) 0.1456(5)
H3 H 0.2358 0.2057 0.1230
C6 C 0.12784(19) 0.27477(14) 0.1750(4)
H4 H 0.1629 0.3191 0.1738
C7 C 0.16585(18) 0.06742(14) 0.1054(4)
C8 C 0.19037(19) -0.04762(16) 0.0146(4)
H5 H 0.1803 -0.0961 -0.0298
C9 C 0.2736(2) -0.02029(16) 0.0693(5)
H6 H 0.3306 -0.0458 0.0689
C10 C 0.03163(18) 0.27810(14) 0.2066(4)
N1A N -0.12189(16) -0.00704(11) 0.0341(4)
N2A N -0.25809(16) -0.05285(11) 0.1262(4)
O1A O -0.03225(13) -0.41026(10) 0.2544(3)
O2A O 0.10602(12) -0.35148(10) 0.2251(4)
C1A C 0.01957(18) -0.35176(15) 0.2295(5)
C2A C 0.01872(19) -0.21090(15) 0.2148(5)
H1A H 0.0830 -0.2121 0.2370
C3A C -0.02589(19) -0.14227(16) 0.1903(5)
H2A H 0.0080 -0.0976 0.2013
C4A C -0.12076(18) -0.13971(14) 0.1494(4)
C5A C -0.1716(2) -0.20689(15) 0.1456(5)
H3A H -0.2358 -0.2057 0.1230
C6A C -0.12784(19) -0.27477(14) 0.1750(4)
H4A H -0.1629 -0.3191 0.1738
C7A C -0.16585(18) -0.06742(14) 0.1054(4)
C8A C -0.19037(19) 0.04762(16) 0.0146(4)
H5A H -0.1803 0.0961 -0.0298
C9A C -0.2736(2) 0.02029(16) 0.0693(5)
H6A H -0.3306 0.0458 0.0689
C10A C -0.03163(18) -0.27810(14) 0.2066(4)
Zn1D Zn 0.0000 -0.5000 0.39656(11)
Zn1D_2 Zn 0.0000 0.5000 0.39656(11)
O1D O 0.03225(13) -0.08974(10) -0.2456(3)
O1E O -0.03225(13) 0.08974(10) -0.2456(3)
loop_
_geom_bond_atom_site_label_1
_geom_bond_atom_site_label_2
_geom_bond_site_symmetry_1
_geom_bond_site_symmetry_2
Zn1 N1 1_555 1_555
N1 C7 1_555 1_555
N2 C7 1_555 1_555
O1 C1 1_555 1_555
O2 C1 1_555 1_555
C1 C10 1_555 1_555
C2 H1 1_555 1_555
C3 C2 1_555 1_555
H2 C3 1_555 1_555
C4 C3 1_555 1_555
C5 C4 1_555 1_555
H3 C5 1_555 1_555
C6 C5 1_555 1_555
H4 C6 1_555 1_555
C7 C4 1_555 1_555
C8 N1 1_555 1_555
H5 C8 1_555 1_555
C9 N2 1_555 1_555
H6 C9 1_555 1_555
C10 C2 1_555 1_555
N1A Zn1 1_555 1_555
N2A C7A 1_555 1_555
O1A C1A 1_555 1_555
O2A C1A 1_555 1_555
C1A C10A 1_555 1_555
C2A H1A 1_555 1_555
C3A C2A 1_555 1_555
H2A C3A 1_555 1_555
C4A C3A 1_555 1_555
C5A C4A 1_555 1_555
H3A C5A 1_555 1_555
C6A C5A 1_555 1_555
H4A C6A 1_555 1_555
C7A N1A 1_555 1_555
C8A N1A 1_555 1_555
H5A C8A 1_555 1_555
C9A N2A 1_555 1_555
H6A C9A 1_555 1_555
C10A C2A 1_555 1_555
Zn1D O1A 1_555 1_555
Zn1D_2 O1 1_555 1_555
O1D Zn1 1_555 1_555
O1E Zn1 1_555 1_555
C6 C10 1_555 1_555
C8 C9 1_555 1_555
C4A C7A 1_555 1_555
C6A C10A 1_555 1_555
C8A C9A 1_555 1_555

#END
