
#######################################################################
#
#                 Cambridge Crystallographic Data Centre
#                                CCDC 
#
#######################################################################
#
# If this CIF has been generated from an entry in the Cambridge 
# Structural Database, then it will include bibliographic, chemical, 
# crystal, experimental, refinement or atomic coordinate data resulting 
# from the CCDC's data processing and validation procedures.
#
#######################################################################

data_ZIBZAN
_symmetry_cell_setting           monoclinic
_symmetry_space_group_name_H-M   'P 21/c'
_symmetry_Int_Tables_number      14
_space_group_name_Hall           '-P 2ybc'
loop_
_symmetry_equiv_pos_site_id
_symmetry_equiv_pos_as_xyz
1 x,y,z
2 -x,1/2+y,1/2-z
3 -x,-y,-z
4 x,1/2-y,1/2+z
_cell_length_a                   8.8881(4)
_cell_length_b                   12.5549(5)
_cell_length_c                   15.7188(6)
_cell_angle_alpha                90
_cell_angle_beta                 116.719(2)
_cell_angle_gamma                90
_cell_volume                     1566.76
loop_
_atom_site_label
_atom_site_type_symbol
_atom_site_fract_x
_atom_site_fract_y
_atom_site_fract_z
Cu1 Cu 0.99724(4) 0.26077(3) 0.24111(3)
Cu2 Cu 1.19455(5) 0.04927(3) 0.53658(3)
N1 N 1.0889(3) 0.1766(2) 0.35566(18)
C1 C 1.1329(3) 0.1253(2) 0.4226(2)
C2 C 1.0870(3) 0.3484(2) 0.1790(2)
N2 N 1.1396(4) 0.3940(2) 0.13546(19)
N3 N 0.7483(3) 0.22383(18) 0.18022(16)
N4 N 0.3215(3) -0.41301(18) 0.07926(16)
N5 N 0.5147(3) 0.13166(17) 0.13296(16)
N6 N 0.3661(3) -0.24314(17) 0.11453(16)
C3 C 0.6807(3) 0.1362(2) 0.19292(19)
H1 H 0.7396 0.0840 0.2375
C4 C 0.6194(4) 0.2782(2) 0.1089(2)
H2 H 0.6302 0.3438 0.0846
C5 C 0.4756(4) 0.2229(2) 0.0794(2)
H3 H 0.3703 0.2425 0.0320
C6 C 0.4003(3) 0.0491(2) 0.12830(19)
C7 C 0.4430(3) -0.0559(2) 0.1246(2)
H4 H 0.5445 -0.0737 0.1245
C8 C 0.2479(3) 0.0770(2) 0.1269(2)
H5 H 0.2209 0.1484 0.1280
C9 C 0.1365(4) -0.0016(2) 0.1239(2)
C10 C 0.1789(3) -0.1071(2) 0.1215(2)
H6 H 0.1056 -0.1606 0.1202
C11 C 0.3304(3) -0.1339(2) 0.12094(19)
C12 C 0.2500(3) -0.3202(2) 0.0714(2)
H7 H 0.1344 -0.3086 0.0401
C13 C 0.4919(4) -0.3953(2) 0.1289(2)
H8 H 0.5744 -0.4475 0.1452
C14 C 0.5216(3) -0.2915(2) 0.1505(2)
H9 H 0.6261 -0.2589 0.1832
C15 C -0.0260(4) 0.0258(3) 0.1267(3)
H10 H -0.0115 0.0192 0.1908
H11 H -0.1129 -0.0219 0.0860
H12 H -0.0572 0.0977 0.1052
Cu2C Cu 0.19455(5) -0.54927(3) 0.03658(3)
Cu2C_2 Cu 1.19455(5) 0.45073(3) 0.03658(3)
N2C N 1.1396(4) 0.1060(2) 0.63546(19)
N4C N 1.3215(3) -0.08699(18) 0.57926(16)
loop_
_geom_bond_atom_site_label_1
_geom_bond_atom_site_label_2
_geom_bond_site_symmetry_1
_geom_bond_site_symmetry_2
Cu1 N1 1_555 1_555
Cu2 C1 1_555 1_555
N1 C1 1_555 1_555
C2 Cu1 1_555 1_555
N2 C2 1_555 1_555
N3 Cu1 1_555 1_555
N4 C12 1_555 1_555
N5 C3 1_555 1_555
N6 C11 1_555 1_555
C3 N3 1_555 1_555
H1 C3 1_555 1_555
C4 N3 1_555 1_555
H2 C4 1_555 1_555
C5 N5 1_555 1_555
H3 C5 1_555 1_555
C6 N5 1_555 1_555
C7 C6 1_555 1_555
H4 C7 1_555 1_555
C8 C6 1_555 1_555
H5 C8 1_555 1_555
C9 C8 1_555 1_555
C10 C9 1_555 1_555
H6 C10 1_555 1_555
C11 C7 1_555 1_555
C12 N6 1_555 1_555
H7 C12 1_555 1_555
C13 N4 1_555 1_555
H8 C13 1_555 1_555
C14 N6 1_555 1_555
H9 C14 1_555 1_555
C15 C9 1_555 1_555
H10 C15 1_555 1_555
H11 C15 1_555 1_555
H12 C15 1_555 1_555
Cu2C N4 1_555 1_555
Cu2C_2 N2 1_555 1_555
N2C Cu2 1_555 1_555
N4C Cu2 1_555 1_555
C4 C5 1_555 1_555
C10 C11 1_555 1_555
C13 C14 1_555 1_555

#END
