
#######################################################################
#
#                 Cambridge Crystallographic Data Centre
#                                CCDC 
#
#######################################################################
#
# If this CIF has been generated from an entry in the Cambridge 
# Structural Database, then it will include bibliographic, chemical, 
# crystal, experimental, refinement or atomic coordinate data resulting 
# from the CCDC's data processing and validation procedures.
#
#######################################################################

data_ZIBZAN01
_symmetry_cell_setting           monoclinic
_symmetry_space_group_name_H-M   'P 21/c'
_symmetry_Int_Tables_number      14
_space_group_name_Hall           '-P 2ybc'
loop_
_symmetry_equiv_pos_site_id
_symmetry_equiv_pos_as_xyz
1 x,y,z
2 -x,1/2+y,1/2-z
3 -x,-y,-z
4 x,1/2-y,1/2+z
_cell_length_a                   8.89030(10)
_cell_length_b                   12.5738(2)
_cell_length_c                   15.6787(2)
_cell_angle_alpha                90
_cell_angle_beta                 116.6670(10)
_cell_angle_gamma                90
_cell_volume                     1566.21
loop_
_atom_site_label
_atom_site_type_symbol
_atom_site_fract_x
_atom_site_fract_y
_atom_site_fract_z
Cu1 Cu 1.49652(4) 0.26099(3) 0.74051(3)
Cu2 Cu 1.69485(5) 0.04917(3) 1.03620(3)
N1 N 1.5886(3) 0.1769(2) 0.85506(19)
N2 N 1.6392(3) 0.3941(2) 0.63484(19)
N3 N 1.2480(3) 0.22376(18) 0.68014(17)
N4 N 0.8216(3) -0.41311(18) 0.57896(16)
N5 N 1.0148(3) 0.13126(17) 0.63353(16)
N6 N 0.8661(3) -0.24308(17) 0.61490(16)
C1 C 1.5865(3) 0.3484(2) 0.6789(2)
C2 C 1.6333(4) 0.1251(2) 0.9227(2)
C3 C 1.1185(4) 0.2779(2) 0.6087(2)
H1 H 1.1290 0.3432 0.5840
C4 C 0.9746(4) 0.2228(2) 0.5796(2)
H2 H 0.8690 0.2424 0.5326
C5 C 1.1804(3) 0.1362(2) 0.69297(19)
H3 H 1.2396 0.0841 0.7376
C6 C 0.9000(3) 0.0486(2) 0.6286(2)
C7 C 0.7469(3) 0.0764(2) 0.6265(2)
H4 H 0.7192 0.1477 0.6269
C8 C 0.6363(4) -0.0019(2) 0.6239(2)
C9 C 0.6793(3) -0.1075(2) 0.6217(2)
H5 H 0.6063 -0.1610 0.6208
C10 C 0.9430(3) -0.0561(2) 0.6249(2)
H6 H 1.0447 -0.0737 0.6250
C11 C 0.8301(3) -0.1340(2) 0.62093(19)
C12 C 1.0214(4) -0.2913(2) 0.6507(2)
H7 H 1.1257 -0.2587 0.6835
C13 C 0.9921(4) -0.3949(2) 0.6286(2)
H8 H 1.0749 -0.4468 0.6446
C14 C 0.7508(4) -0.3202(2) 0.5715(2)
H9 H 0.6353 -0.3085 0.5401
C15 C 0.4728(4) 0.0252(3) 0.6266(3)
H10 H 0.4387 0.0958 0.6022
H11 H 0.4885 0.0217 0.6912
H12 H 0.3875 -0.0246 0.5881
Cu2C Cu 0.69485(5) -0.54917(3) 0.53620(3)
Cu2C_2 Cu 1.69485(5) 0.45083(3) 0.53620(3)
N2C N 1.6392(3) 0.1059(2) 1.13484(19)
N4C N 1.8216(3) -0.08689(18) 1.07896(16)
loop_
_geom_bond_atom_site_label_1
_geom_bond_atom_site_label_2
_geom_bond_site_symmetry_1
_geom_bond_site_symmetry_2
Cu1 N1 1_555 1_555
Cu2 C2 1_555 1_555
N1 C2 1_555 1_555
N2 C1 1_555 1_555
N3 Cu1 1_555 1_555
N4 C13 1_555 1_555
N5 C4 1_555 1_555
N6 C11 1_555 1_555
C1 Cu1 1_555 1_555
C3 N3 1_555 1_555
H1 C3 1_555 1_555
C4 C3 1_555 1_555
H2 C4 1_555 1_555
C5 N3 1_555 1_555
H3 C5 1_555 1_555
C6 N5 1_555 1_555
C7 C6 1_555 1_555
H4 C7 1_555 1_555
C8 C7 1_555 1_555
C9 C8 1_555 1_555
H5 C9 1_555 1_555
C10 C6 1_555 1_555
H6 C10 1_555 1_555
C11 C9 1_555 1_555
C12 N6 1_555 1_555
H7 C12 1_555 1_555
C13 C12 1_555 1_555
H8 C13 1_555 1_555
C14 N4 1_555 1_555
H9 C14 1_555 1_555
C15 C8 1_555 1_555
H10 C15 1_555 1_555
H11 C15 1_555 1_555
H12 C15 1_555 1_555
Cu2C N4 1_555 1_555
Cu2C_2 N2 1_555 1_555
N2C Cu2 1_555 1_555
N4C Cu2 1_555 1_555
N5 C5 1_555 1_555
N6 C14 1_555 1_555
C10 C11 1_555 1_555

#END
