
#######################################################################
#
#                 Cambridge Crystallographic Data Centre
#                                CCDC 
#
#######################################################################
#
# If this CIF has been generated from an entry in the Cambridge 
# Structural Database, then it will include bibliographic, chemical, 
# crystal, experimental, refinement or atomic coordinate data resulting 
# from the CCDC's data processing and validation procedures.
#
#######################################################################

data_ZIBZER
_symmetry_cell_setting           orthorhombic
_symmetry_space_group_name_H-M   'F d d 2'
_symmetry_Int_Tables_number      43
_space_group_name_Hall           'F 2 -2d'
loop_
_symmetry_equiv_pos_site_id
_symmetry_equiv_pos_as_xyz
1 x,y,z
2 -x,-y,z
3 1/4+x,1/4-y,1/4+z
4 1/4-x,1/4+y,1/4+z
5 x,1/2+y,1/2+z
6 -x,1/2-y,1/2+z
7 1/4+x,3/4-y,3/4+z
8 1/4-x,3/4+y,3/4+z
9 1/2+x,y,1/2+z
10 1/2-x,-y,1/2+z
11 3/4+x,1/4-y,3/4+z
12 3/4-x,1/4+y,3/4+z
13 1/2+x,1/2+y,z
14 1/2-x,1/2-y,z
15 3/4+x,3/4-y,1/4+z
16 3/4-x,3/4+y,1/4+z
_cell_length_a                   12.896(7)
_cell_length_b                   26.588(14)
_cell_length_c                   11.430(6)
_cell_angle_alpha                90
_cell_angle_beta                 90
_cell_angle_gamma                90
_cell_volume                     3919.11
loop_
_atom_site_label
_atom_site_type_symbol
_atom_site_fract_x
_atom_site_fract_y
_atom_site_fract_z
Cu1 Cu 1.07355(4) 0.168624(18) 0.51548(4)
N1 N 0.9876(3) 0.11994(14) 0.4273(4)
N2 N 1.0074(3) 0.23321(13) 0.4717(3)
N3 N 0.9705(3) 0.31356(12) 0.4514(3)
C1 C 0.9275(3) 0.10234(15) 0.3668(4)
C2 C 1.0347(3) 0.27941(14) 0.4982(5)
H1 H 1.0918 0.2875 0.5442
C3 C 0.9206(4) 0.23860(18) 0.4023(5)
H2 H 0.8836 0.2122 0.3690
C4 C 0.8973(4) 0.28751(16) 0.3896(5)
H3 H 0.8423 0.3010 0.3472
C5 C 0.9784(4) 0.36747(15) 0.4606(4)
C6 C 1.0726(4) 0.38907(18) 0.4787(5)
H4 H 1.1315 0.3692 0.4865
C7 C 1.0802(4) 0.44169(17) 0.4853(5)
H5 H 1.1446 0.4563 0.4985
C8 C 0.9954(4) 0.47194(15) 0.4729(4)
C9 C 0.9007(4) 0.44843(18) 0.4575(5)
H6 H 0.8413 0.4681 0.4507
C10 C 0.8915(4) 0.39657(16) 0.4518(5)
H7 H 0.8267 0.3817 0.4421
N2A N 0.9926(3) 0.76679(13) 0.4717(3)
N3A N 1.0295(3) 0.68644(12) 0.4514(3)
C2A C 0.9653(3) 0.72059(14) 0.4982(5)
H1A H 0.9082 0.7125 0.5442
C3A C 1.0794(4) 0.76140(18) 0.4023(5)
H2A H 1.1164 0.7878 0.3690
C4A C 1.1027(4) 0.71249(16) 0.3896(5)
H3A H 1.1577 0.6990 0.3472
C5A C 1.0216(4) 0.63253(15) 0.4606(4)
C6A C 0.9274(4) 0.61093(18) 0.4787(5)
H4A H 0.8685 0.6308 0.4865
C7A C 0.9198(4) 0.55831(17) 0.4853(5)
H5A H 0.8554 0.5437 0.4985
C8A C 1.0046(4) 0.52806(15) 0.4729(4)
C9A C 1.0993(4) 0.55157(18) 0.4575(5)
H6A H 1.1587 0.5319 0.4507
C10A C 1.1085(4) 0.60343(16) 0.4518(5)
H7A H 1.1733 0.6183 0.4421
Cu1A Cu 0.92645(4) 0.831376(18) 0.51548(4)
N1A N 1.0124(3) 0.88006(14) 0.4273(4)
C1A C 1.0725(3) 0.89766(15) 0.3668(4)
Cu1G Cu 1.17645(4) 0.918624(18) 0.26548(4)
Cu1J Cu 0.82355(4) 0.081376(18) 0.26548(4)
C1B C 1.1775(3) 0.14766(15) 0.6168(4)
C1O C 0.8225(3) 0.85234(15) 0.6168(4)
loop_
_geom_bond_atom_site_label_1
_geom_bond_atom_site_label_2
_geom_bond_site_symmetry_1
_geom_bond_site_symmetry_2
Cu1 N1 1_555 1_555
N1 C1 1_555 1_555
N2 Cu1 1_555 1_555
N3 C2 1_555 1_555
C1 Cu1J 1_555 1_555
C2 N2 1_555 1_555
H1 C2 1_555 1_555
C3 N2 1_555 1_555
H2 C3 1_555 1_555
C4 N3 1_555 1_555
H3 C4 1_555 1_555
C5 N3 1_555 1_555
C6 C5 1_555 1_555
H4 C6 1_555 1_555
C7 C6 1_555 1_555
H5 C7 1_555 1_555
C8 C7 1_555 1_555
C9 C8 1_555 1_555
H6 C9 1_555 1_555
C10 C5 1_555 1_555
H7 C10 1_555 1_555
N2A C2A 1_555 1_555
N3A C2A 1_555 1_555
C2A H1A 1_555 1_555
C3A N2A 1_555 1_555
H2A C3A 1_555 1_555
C4A N3A 1_555 1_555
H3A C4A 1_555 1_555
C5A N3A 1_555 1_555
C6A C5A 1_555 1_555
H4A C6A 1_555 1_555
C7A C6A 1_555 1_555
H5A C7A 1_555 1_555
C8A C8 1_555 1_555
C9A C8A 1_555 1_555
H6A C9A 1_555 1_555
C10A C5A 1_555 1_555
H7A C10A 1_555 1_555
Cu1A N2A 1_555 1_555
N1A Cu1A 1_555 1_555
C1A N1A 1_555 1_555
Cu1G C1A 1_555 1_555
C1B Cu1 1_555 1_555
C1O Cu1A 1_555 1_555
C3 C4 1_555 1_555
C9 C10 1_555 1_555
C3A C4A 1_555 1_555
C7A C8A 1_555 1_555
C9A C10A 1_555 1_555

#END
