
#######################################################################
#
#                 Cambridge Crystallographic Data Centre
#                                CCDC 
#
#######################################################################
#
# If this CIF has been generated from an entry in the Cambridge 
# Structural Database, then it will include bibliographic, chemical, 
# crystal, experimental, refinement or atomic coordinate data resulting 
# from the CCDC's data processing and validation procedures.
#
#######################################################################

data_ZICKUT
_symmetry_cell_setting           monoclinic
_symmetry_space_group_name_H-M   'P 21/c'
_symmetry_Int_Tables_number      14
_space_group_name_Hall           '-P 2ybc'
loop_
_symmetry_equiv_pos_site_id
_symmetry_equiv_pos_as_xyz
1 x,y,z
2 -x,1/2+y,1/2-z
3 -x,-y,-z
4 x,1/2-y,1/2+z
_cell_length_a                   12.480(4)
_cell_length_b                   7.627(3)
_cell_length_c                   9.241(3)
_cell_angle_alpha                90
_cell_angle_beta                 111.170(8)
_cell_angle_gamma                90
_cell_volume                     820.242
loop_
_atom_site_label
_atom_site_type_symbol
_atom_site_fract_x
_atom_site_fract_y
_atom_site_fract_z
Pb1 Pb 0.36592(2) 0.16494(4) 0.99026(3)
O1 O 0.3089(5) 0.3815(8) 1.1652(7)
O2 O 0.4718(5) 0.0696(8) 1.2545(7)
H1 H 0.5357 0.0433 1.2467
H2 H 0.4763 0.0071 1.3326
N1 N 0.2370(6) 0.9429(8) 1.0458(8)
O3 O 0.1608(6) 0.3587(8) 0.9407(8)
C1 C 0.2573(7) 0.7672(11) 1.0258(9)
O4 O 0.3586(5) 0.5791(8) 0.9188(7)
C2 C 0.1979(8) 0.6352(10) 1.0656(10)
O5 O 0.4104(5) 0.8624(7) 0.9494(7)
C3 C 0.1112(8) 0.6820(11) 1.1252(10)
H3 H 0.0675 0.5939 1.1513
C4 C 0.0916(8) 0.8560(10) 1.1442(10)
H4 H 0.0346 0.8903 1.1843
C5 C 0.1570(7) 0.9819(11) 1.1036(10)
H5 H 0.1434 1.1020 1.1182
C6 C 0.3490(7) 0.7319(12) 0.9596(9)
C7 C 0.2225(8) 0.4448(11) 1.0548(10)
Pb1_2 Pb 0.36592(2) 1.16494(4) 0.99026(3)
Pb1B Pb 0.63408(2) 0.83506(4) 1.00974(3)
Pb1C Pb 0.36592(2) 0.33506(4) 1.49026(3)
O1C O 0.3089(5) 0.1185(8) 0.6652(7)
N1_2 N 0.2370(6) -0.0571(8) 1.0458(8)
O5_2 O 0.4104(5) -0.1376(7) 0.9494(7)
O5B O 0.5896(5) 0.1376(7) 1.0506(7)
loop_
_geom_bond_atom_site_label_1
_geom_bond_atom_site_label_2
_geom_bond_site_symmetry_1
_geom_bond_site_symmetry_2
Pb1 O1 1_555 1_555
O1 C7 1_555 1_555
O2 Pb1 1_555 1_555
H1 O2 1_555 1_555
H2 O2 1_555 1_555
N1 C1 1_555 1_555
O3 Pb1 1_555 1_555
C1 C2 1_555 1_555
O4 C6 1_555 1_555
C2 C3 1_555 1_555
O5 C6 1_555 1_555
C3 H3 1_555 1_555
C4 C3 1_555 1_555
H4 C4 1_555 1_555
C5 N1 1_555 1_555
H5 C5 1_555 1_555
C6 C1 1_555 1_555
C7 O3 1_555 1_555
Pb1_2 N1 1_555 1_555
Pb1B O5 1_555 1_555
Pb1C O1 1_555 1_555
O1C Pb1 1_555 1_555
N1_2 Pb1 1_555 1_555
O5_2 Pb1 1_555 1_555
O5B Pb1 1_555 1_555
C2 C7 1_555 1_555
O5 Pb1_2 1_555 1_555
C4 C5 1_555 1_555

#END
