
#######################################################################
#
#                 Cambridge Crystallographic Data Centre
#                                CCDC 
#
#######################################################################
#
# If this CIF has been generated from an entry in the Cambridge 
# Structural Database, then it will include bibliographic, chemical, 
# crystal, experimental, refinement or atomic coordinate data resulting 
# from the CCDC's data processing and validation procedures.
#
#######################################################################

data_ZICTEM
_symmetry_cell_setting           triclinic
_symmetry_space_group_name_H-M   'P -1'
_symmetry_Int_Tables_number      2
_space_group_name_Hall           '-P 1'
loop_
_symmetry_equiv_pos_site_id
_symmetry_equiv_pos_as_xyz
1 x,y,z
2 -x,-y,-z
_cell_length_a                   11.8072(6)
_cell_length_b                   12.0211(6)
_cell_length_c                   13.1082(7)
_cell_angle_alpha                91.948(2)
_cell_angle_beta                 109.904(2)
_cell_angle_gamma                101.749(2)
_cell_volume                     1701.91
loop_
_atom_site_label
_atom_site_type_symbol
_atom_site_fract_x
_atom_site_fract_y
_atom_site_fract_z
Cu1 Cu 1.0000 0.0000 0.0000
C1 C 0.8689(3) 0.2073(3) 0.0918(2)
C2 C 0.8011(3) 0.3775(3) 0.0949(2)
C3 C 0.8422(3) 0.3398(3) 0.2127(2)
C4 C 0.6327(3) 0.3471(3) 0.1565(2)
C5 C 0.9402(3) 0.1729(3) 0.2855(2)
H1 H 0.9966 0.2280 0.3477
H2 H 0.9900 0.1296 0.2612
C6 C 0.7231(3) 0.3037(3) 0.3455(2)
H3 H 0.7990 0.3486 0.4014
H4 H 0.6536 0.3323 0.3521
C7 C 0.8311(3) -0.0216(3) 0.2970(2)
C8 C 0.8072(3) 0.1247(3) 0.4054(2)
C9 C 0.7399(3) 0.0051(3) 0.4269(2)
C10 C 0.5970(3) 0.1219(3) 0.3676(2)
C11 C 0.7299(3) -0.1989(3) 0.3493(2)
H5 H 0.7394 -0.2184 0.4234
H6 H 0.7899 -0.2293 0.3269
C12 C 0.5819(3) -0.3038(3) 0.1730(2)
C13 C 0.4952(3) -0.2656(2) 0.3034(2)
C14 C 0.3901(3) -0.3364(3) 0.1980(2)
C15 C 0.4889(3) 0.0723(3) -0.4018(2)
H7 H 0.4592 0.1099 -0.4678
H8 H 0.5538 0.0361 -0.4084
C16 C 0.6568(3) 0.1612(3) -0.2318(2)
C17 C 0.8178(3) 0.2946(3) -0.0814(2)
H9 H 0.8554 0.3733 -0.0883
H10 H 0.8687 0.2453 -0.0957
C18 C 0.5940(3) 0.4199(3) -0.0215(2)
H11 H 0.5215 0.4255 -0.0033
H12 H 0.6420 0.4894 -0.0302
C19 C 0.8829(3) 0.4974(3) 0.1038(3)
H13 H 0.9555 0.4931 0.0849
H14 H 0.8363 0.5460 0.0558
C20 C 0.9206(4) 0.5425(3) 0.2228(3)
H15 H 0.8539 0.5704 0.2360
H16 H 0.9949 0.6048 0.2448
C21 C 0.9460(3) 0.4402(3) 0.2844(3)
H17 H 0.9416 0.4507 0.3573
H18 H 1.0277 0.4277 0.2916
C22 C 0.9062(3) 0.1787(3) 0.5162(2)
H19 H 0.9862 0.1614 0.5241
H20 H 0.9163 0.2618 0.5249
C23 C 0.8540(3) 0.1223(3) 0.5984(2)
H21 H 0.7885 0.1569 0.6058
H22 H 0.9191 0.1290 0.6703
C24 C 0.8024(3) -0.0027(3) 0.5493(2)
H23 H 0.7424 -0.0417 0.5803
H24 H 0.8689 -0.0437 0.5621
C25 C 0.4950(3) -0.3389(3) 0.3963(2)
H25 H 0.4387 -0.3214 0.4316
H26 H 0.5782 -0.3277 0.4513
C26 C 0.4494(3) -0.4609(3) 0.3374(3)
H27 H 0.4217 -0.5155 0.3827
H28 H 0.5141 -0.4851 0.3174
C27 C 0.3406(3) -0.4497(3) 0.2355(3)
H29 H 0.3196 -0.5137 0.1789
H30 H 0.2672 -0.4468 0.2536
N1 N 0.8223(2) 0.2884(2) 0.02990(19)
N2 N 0.8809(2) 0.2349(2) 0.19786(19)
N3 N 0.6714(2) 0.3741(2) 0.07002(19)
N4 N 0.7298(2) 0.3223(2) 0.23847(19)
N5 N 0.8546(2) 0.0943(2) 0.32210(19)
N6 N 0.7588(2) -0.0753(2) 0.35183(19)
N7 N 0.7076(2) 0.1853(2) 0.3675(2)
N8 N 0.6124(2) 0.0161(2) 0.39778(19)
N9 N 0.6059(2) -0.2546(2) 0.27623(19)
N10 N 0.4567(2) -0.3461(2) 0.12427(19)
N11 N 0.5430(2) 0.1586(2) -0.30847(19)
N12 N 0.6956(2) 0.2617(2) -0.16452(19)
O1 O 0.8973(2) 0.1246(2) 0.05819(18)
O2 O 0.8719(2) -0.07063(19) 0.23884(18)
O3 O 0.6595(2) -0.3116(2) 0.13203(18)
O4 O 0.5304(2) 0.3473(2) 0.15896(18)
O5 O 0.5004(2) 0.15452(19) 0.34881(18)
O6 O 0.7140(2) 0.08652(19) -0.22788(17)
O7 O 0.8663(2) -0.0476(2) -0.14281(19)
H31 H 0.8230 -0.1180 -0.1730
H32 H 0.8184 0.0010 -0.1618
O8 O 1.0632(2) 0.12629(19) -0.07002(18)
H33 H 1.1233 0.1839 -0.0331
H34 H 1.0967 0.1152 -0.1185
C1A C 0.1311(3) -0.2073(3) -0.0918(2)
C2A C 0.1989(3) -0.3775(3) -0.0949(2)
C3A C 0.1578(3) -0.3398(3) -0.2127(2)
C4A C 0.3673(3) -0.3471(3) -0.1565(2)
C5A C 0.0598(3) -0.1729(3) -0.2855(2)
H1A H 0.0034 -0.2280 -0.3477
H2A H 0.0100 -0.1296 -0.2612
C6A C 0.2769(3) -0.3037(3) -0.3455(2)
H3A H 0.2010 -0.3486 -0.4014
H4A H 0.3464 -0.3323 -0.3521
C7A C 0.1689(3) 0.0216(3) -0.2970(2)
C8A C 0.1928(3) -0.1247(3) -0.4054(2)
C9A C 0.2601(3) -0.0051(3) -0.4269(2)
C10A C 0.4030(3) -0.1219(3) -0.3676(2)
C11A C 0.2701(3) 0.1989(3) -0.3493(2)
H5A H 0.2606 0.2184 -0.4234
H6A H 0.2101 0.2293 -0.3269
C12A C 0.4181(3) 0.3038(3) -0.1730(2)
C13A C 0.5048(3) 0.2656(2) -0.3034(2)
C14A C 0.6099(3) 0.3364(3) -0.1980(2)
C15A C 0.5111(3) -0.0723(3) 0.4018(2)
H7A H 0.5408 -0.1099 0.4678
H8A H 0.4462 -0.0361 0.4084
C16A C 0.3432(3) -0.1612(3) 0.2318(2)
C17A C 0.1822(3) -0.2946(3) 0.0814(2)
H9A H 0.1446 -0.3733 0.0883
H10A H 0.1313 -0.2453 0.0957
C18A C 0.4060(3) -0.4199(3) 0.0215(2)
H11A H 0.4785 -0.4255 0.0033
H12A H 0.3580 -0.4894 0.0302
C19A C 0.1171(3) -0.4974(3) -0.1038(3)
H13A H 0.0445 -0.4931 -0.0849
H14A H 0.1637 -0.5460 -0.0558
C20A C 0.0794(4) -0.5425(3) -0.2228(3)
H15A H 0.1461 -0.5704 -0.2360
H16A H 0.0051 -0.6048 -0.2448
C21A C 0.0540(3) -0.4402(3) -0.2844(3)
H17A H 0.0584 -0.4507 -0.3573
H18A H -0.0277 -0.4277 -0.2916
C22A C 0.0938(3) -0.1787(3) -0.5162(2)
H19A H 0.0138 -0.1614 -0.5241
H20A H 0.0837 -0.2618 -0.5249
C23A C 0.1460(3) -0.1223(3) -0.5984(2)
H21A H 0.2115 -0.1569 -0.6058
H22A H 0.0809 -0.1290 -0.6703
C24A C 0.1976(3) 0.0027(3) -0.5493(2)
H23A H 0.2576 0.0417 -0.5803
H24A H 0.1311 0.0437 -0.5621
C25A C 0.5050(3) 0.3389(3) -0.3963(2)
H25A H 0.5613 0.3214 -0.4316
H26A H 0.4218 0.3277 -0.4513
C26A C 0.5506(3) 0.4609(3) -0.3374(3)
H27A H 0.5783 0.5155 -0.3827
H28A H 0.4859 0.4851 -0.3174
C27A C 0.6594(3) 0.4497(3) -0.2355(3)
H29A H 0.6804 0.5137 -0.1789
H30A H 0.7328 0.4468 -0.2536
N1A N 0.1777(2) -0.2884(2) -0.02990(19)
N2A N 0.1191(2) -0.2349(2) -0.19786(19)
N3A N 0.3286(2) -0.3741(2) -0.07002(19)
N4A N 0.2702(2) -0.3223(2) -0.23847(19)
N5A N 0.1454(2) -0.0943(2) -0.32210(19)
N6A N 0.2412(2) 0.0753(2) -0.35183(19)
N7A N 0.2924(2) -0.1853(2) -0.3675(2)
N8A N 0.3876(2) -0.0161(2) -0.39778(19)
N9A N 0.3941(2) 0.2546(2) -0.27623(19)
N10A N 0.5433(2) 0.3461(2) -0.12427(19)
N11A N 0.4570(2) -0.1586(2) 0.30847(19)
N12A N 0.3044(2) -0.2617(2) 0.16452(19)
O1A O 0.1027(2) -0.1246(2) -0.05819(18)
O2A O 0.1281(2) 0.07063(19) -0.23884(18)
O3A O 0.3405(2) 0.3116(2) -0.13203(18)
O4A O 0.4696(2) -0.3473(2) -0.15896(18)
O5A O 0.4996(2) -0.15452(19) -0.34881(18)
O6A O 0.2860(2) -0.08652(19) 0.22788(17)
O7A O 1.1337(2) 0.0476(2) 0.14281(19)
H31A H 1.1770 0.1180 0.1730
H32A H 1.1816 -0.0010 0.1618
O8A O 0.9368(2) -0.12629(19) 0.07002(18)
H33A H 0.8767 -0.1839 0.0331
H34A H 0.9033 -0.1152 0.1185
Cu1_2 Cu 0.0000 0.0000 0.0000
O1A_2 O 1.1027(2) -0.1246(2) -0.05819(18)
C28 C 0.5598(9) -0.0450(7) -0.0450(11)
H35 H 0.5652 -0.1013 -0.0979
H36 H 0.6290 0.0207 -0.0338
C29 C 0.5586(13) 0.0033(14) 0.1030(7)
H37 H 0.6286 0.0681 0.1139
H38 H 0.5582 -0.0125 0.1758
O9 O 0.586(3) -0.0948(13) 0.0573(13)
C28A C 0.4402(9) 0.0450(7) 0.0450(11)
H35A H 0.4348 0.1013 0.0979
H36A H 0.3710 -0.0207 0.0338
C29A C 0.4414(13) -0.0033(14) -0.1030(7)
H37A H 0.3714 -0.0681 -0.1139
H38A H 0.4418 0.0125 -0.1758
O9A O 0.414(3) 0.0948(13) -0.0573(13)
N13 N 1.2091(3) 0.4273(3) 0.4726(2)
O10 O 1.2133(2) 0.3377(2) 0.4211(2)
O11 O 1.2417(3) 0.5227(3) 0.4462(2)
O12 O 1.1653(4) 0.4165(3) 0.5451(3)
O13 O 0.7462(2) -0.2958(2) -0.0422(2)
H39 H 0.6963 -0.2978 0.0006
H40 H 0.7003 -0.2956 -0.1265
O14 O 1.2910(2) 0.2462(2) 0.2590(2)
H41 H 1.2657 0.2758 0.3103
H42 H 1.3595 0.2285 0.2943
loop_
_geom_bond_atom_site_label_1
_geom_bond_atom_site_label_2
_geom_bond_site_symmetry_1
_geom_bond_site_symmetry_2
Cu1 O1 1_555 1_555
C1 N1 1_555 1_555
C2 C3 1_555 1_555
C3 C21 1_555 1_555
C4 N3 1_555 1_555
C5 H1 1_555 1_555
H2 C5 1_555 1_555
C6 H3 1_555 1_555
H4 C6 1_555 1_555
C7 N5 1_555 1_555
C8 C9 1_555 1_555
C9 C24 1_555 1_555
C10 N7 1_555 1_555
C11 H5 1_555 1_555
H6 C11 1_555 1_555
C12 N9 1_555 1_555
C13 C14 1_555 1_555
C14 C27 1_555 1_555
C15 H7 1_555 1_555
H8 C15 1_555 1_555
C16 N11 1_555 1_555
C17 H9 1_555 1_555
H10 C17 1_555 1_555
C18 H11 1_555 1_555
H12 C18 1_555 1_555
C19 C2 1_555 1_555
H13 C19 1_555 1_555
H14 C19 1_555 1_555
C20 C19 1_555 1_555
H15 C20 1_555 1_555
H16 C20 1_555 1_555
C21 C20 1_555 1_555
H17 C21 1_555 1_555
H18 C21 1_555 1_555
C22 C8 1_555 1_555
H19 C22 1_555 1_555
H20 C22 1_555 1_555
C23 C22 1_555 1_555
H21 C23 1_555 1_555
H22 C23 1_555 1_555
C24 C23 1_555 1_555
H23 C24 1_555 1_555
H24 C24 1_555 1_555
C25 C13 1_555 1_555
H25 C25 1_555 1_555
H26 C25 1_555 1_555
C26 C25 1_555 1_555
H27 C26 1_555 1_555
H28 C26 1_555 1_555
C27 C26 1_555 1_555
H29 C27 1_555 1_555
H30 C27 1_555 1_555
N1 C2 1_555 1_555
N2 C1 1_555 1_555
N3 C2 1_555 1_555
N4 C3 1_555 1_555
N5 C5 1_555 1_555
N6 C7 1_555 1_555
N7 C6 1_555 1_555
N8 C9 1_555 1_555
N9 C11 1_555 1_555
N10 C12 1_555 1_555
N11 C15 1_555 1_555
N12 C16 1_555 1_555
O1 C1 1_555 1_555
O2 C7 1_555 1_555
O3 C12 1_555 1_555
O4 C4 1_555 1_555
O5 C10 1_555 1_555
O6 C16 1_555 1_555
O7 Cu1 1_555 1_555
H31 O7 1_555 1_555
H32 O7 1_555 1_555
O8 Cu1 1_555 1_555
H33 O8 1_555 1_555
H34 O8 1_555 1_555
C28 H35 1_555 1_555
H36 C28 1_555 1_555
C29 H37 1_555 1_555
H38 C29 1_555 1_555
O9 C28 1_555 1_555
N13 O10 1_555 1_555
O11 N13 1_555 1_555
O12 N13 1_555 1_555
O13 H39 1_555 1_555
H40 O13 1_555 1_555
O14 H41 1_555 1_555
H42 O14 1_555 1_555
C1A N1A 1_555 1_555
C2A C3A 1_555 1_555
C3A C21A 1_555 1_555
C4A N3A 1_555 1_555
C5A H1A 1_555 1_555
H2A C5A 1_555 1_555
C6A H3A 1_555 1_555
H4A C6A 1_555 1_555
C7A N5A 1_555 1_555
C8A C9A 1_555 1_555
C9A C24A 1_555 1_555
C10A N7A 1_555 1_555
C11A H5A 1_555 1_555
H6A C11A 1_555 1_555
C12A N9A 1_555 1_555
C13A N11 1_555 1_555
C14A N12 1_555 1_555
C15A N8 1_555 1_555
H7A C15A 1_555 1_555
H8A C15A 1_555 1_555
C16A N11A 1_555 1_555
C17A H9A 1_555 1_555
H10A C17A 1_555 1_555
C18A N10 1_555 1_555
H11A C18A 1_555 1_555
H12A C18A 1_555 1_555
C19A C2A 1_555 1_555
H13A C19A 1_555 1_555
H14A C19A 1_555 1_555
C20A C19A 1_555 1_555
H15A C20A 1_555 1_555
H16A C20A 1_555 1_555
C21A C20A 1_555 1_555
H17A C21A 1_555 1_555
H18A C21A 1_555 1_555
C22A C8A 1_555 1_555
H19A C22A 1_555 1_555
H20A C22A 1_555 1_555
C23A C22A 1_555 1_555
H21A C23A 1_555 1_555
H22A C23A 1_555 1_555
C24A C23A 1_555 1_555
H23A C24A 1_555 1_555
H24A C24A 1_555 1_555
C25A C13A 1_555 1_555
H25A C25A 1_555 1_555
H26A C25A 1_555 1_555
C26A C25A 1_555 1_555
H27A C26A 1_555 1_555
H28A C26A 1_555 1_555
C27A C14A 1_555 1_555
H29A C27A 1_555 1_555
H30A C27A 1_555 1_555
N1A C2A 1_555 1_555
N2A C1A 1_555 1_555
N3A C2A 1_555 1_555
N4A C3A 1_555 1_555
N5A C5A 1_555 1_555
N6A C7A 1_555 1_555
N7A C6A 1_555 1_555
N8A C15 1_555 1_555
N9A C11A 1_555 1_555
N10A C18 1_555 1_555
N11A C13 1_555 1_555
N12A C14 1_555 1_555
O1A C1A 1_555 1_555
O2A C7A 1_555 1_555
O3A C12A 1_555 1_555
O4A C4A 1_555 1_555
O5A C10A 1_555 1_555
O6A C16A 1_555 1_555
O7A Cu1 1_555 1_555
H31A O7A 1_555 1_555
H32A O7A 1_555 1_555
O8A Cu1 1_555 1_555
H33A O8A 1_555 1_555
H34A O8A 1_555 1_555
Cu1_2 O1A 1_555 1_555
O1A_2 Cu1 1_555 1_555
C28A C29 1_555 1_555
H35A C28A 1_555 1_555
H36A C28A 1_555 1_555
C29A C28 1_555 1_555
H37A C29A 1_555 1_555
H38A C29A 1_555 1_555
O9A C28A 1_555 1_555
C3 N2 1_555 1_555
C4 N4 1_555 1_555
C5 N2 1_555 1_555
C6 N4 1_555 1_555
C8 N5 1_555 1_555
C8 N7 1_555 1_555
C9 N6 1_555 1_555
C10 N8 1_555 1_555
C11 N6 1_555 1_555
C13 N9 1_555 1_555
C14 N10 1_555 1_555
C17 N1 1_555 1_555
C17 N12 1_555 1_555
C18 N3 1_555 1_555
C29 O9 1_555 1_555
C3A N2A 1_555 1_555
C4A N4A 1_555 1_555
C5A N2A 1_555 1_555
C6A N4A 1_555 1_555
C8A N5A 1_555 1_555
C8A N7A 1_555 1_555
C9A N6A 1_555 1_555
C9A N8A 1_555 1_555
C10A N8A 1_555 1_555
C11A N6A 1_555 1_555
C12A N10A 1_555 1_555
C13A C14A 1_555 1_555
C13A N9A 1_555 1_555
C14A N10A 1_555 1_555
C15A N11A 1_555 1_555
C16A N12A 1_555 1_555
C17A N1A 1_555 1_555
C17A N12A 1_555 1_555
C18A N3A 1_555 1_555
C26A C27A 1_555 1_555
C29A O9A 1_555 1_555

#END
