
#######################################################################
#
#                 Cambridge Crystallographic Data Centre
#                                CCDC 
#
#######################################################################
#
# If this CIF has been generated from an entry in the Cambridge 
# Structural Database, then it will include bibliographic, chemical, 
# crystal, experimental, refinement or atomic coordinate data resulting 
# from the CCDC's data processing and validation procedures.
#
#######################################################################

data_ZIDBEV
_symmetry_cell_setting           monoclinic
_symmetry_space_group_name_H-M   'C 2/m'
_symmetry_Int_Tables_number      12
_space_group_name_Hall           '-C 2y'
loop_
_symmetry_equiv_pos_site_id
_symmetry_equiv_pos_as_xyz
1 x,y,z
2 -x,y,-z
3 1/2+x,1/2+y,z
4 1/2-x,1/2+y,-z
5 -x,-y,-z
6 x,-y,z
7 1/2-x,1/2-y,-z
8 1/2+x,1/2-y,z
_cell_length_a                   12.774(5)
_cell_length_b                   19.299(5)
_cell_length_c                   11.056(5)
_cell_angle_alpha                90
_cell_angle_beta                 98.752(5)
_cell_angle_gamma                90
_cell_volume                     2693.85
loop_
_atom_site_label
_atom_site_type_symbol
_atom_site_fract_x
_atom_site_fract_y
_atom_site_fract_z
C1 C 0.0000(12) 0.3630(9) 0.2520(13)
H1 H -0.0705 0.3768 0.2351
C2 C 0.1466(11) 0.3212(7) 0.2290(12)
H2 H 0.2025 0.3007 0.1974
C3 C 0.2407(13) 0.3457(8) 0.4442(13)
H3 H 0.2385 0.3882 0.4906
H4 H 0.3066 0.3450 0.4107
C4 C 0.2363(12) 0.2834(7) 0.5286(12)
H5 H 0.2851 0.2908 0.6036
H6 H 0.1655 0.2797 0.5498
N1 N 0.0510(9) 0.3324(7) 0.1676(10)
N2 N 0.0569(11) 0.3715(7) 0.3579(12)
N3 N 0.1504(10) 0.3439(6) 0.3435(10)
Cu1 Cu 0.0000 0.32289(16) 0.0000
Cu2 Cu 0.0000 0.4101(4) 0.5000
O13 O 0.0000 0.5000 0.5000
C1F C 0.5000(12) 0.1370(9) 0.7480(13)
H1F H 0.5705 0.1232 0.7649
C2F C 0.3534(11) 0.1788(7) 0.7710(12)
H2F H 0.2975 0.1993 0.8026
C3F C 0.2593(13) 0.1543(8) 0.5558(13)
H3F H 0.2615 0.1118 0.5094
H4F H 0.1934 0.1550 0.5893
C4F C 0.2637(12) 0.2166(7) 0.4714(12)
H5F H 0.2149 0.2092 0.3964
H6F H 0.3345 0.2203 0.4502
N1F N 0.4490(9) 0.1676(7) 0.8324(10)
N2F N 0.4431(11) 0.1285(7) 0.6421(12)
N3F N 0.3496(10) 0.1561(6) 0.6565(10)
C1A C 0.0000(12) 0.3630(9) -0.2520(13)
H1A H 0.0705 0.3768 -0.2351
C2A C -0.1466(11) 0.3212(7) -0.2290(12)
H2A H -0.2025 0.3007 -0.1974
C3A C -0.2407(13) 0.3457(8) -0.4442(13)
H3A H -0.2385 0.3882 -0.4906
H4A H -0.3066 0.3450 -0.4107
C4A C -0.2363(12) 0.2834(7) -0.5286(12)
H5A H -0.2851 0.2908 -0.6036
H6A H -0.1655 0.2797 -0.5498
N1A N -0.0510(9) 0.3324(7) -0.1676(10)
N2A N -0.0569(11) 0.3715(7) -0.3579(12)
N3A N -0.1504(10) 0.3439(6) -0.3435(10)
C1G C -0.5000(12) 0.1370(9) -0.7480(13)
H1G H -0.5705 0.1232 -0.7649
C2G C -0.3534(11) 0.1788(7) -0.7710(12)
H2G H -0.2975 0.1993 -0.8026
C3G C -0.2593(13) 0.1543(8) -0.5558(13)
H3G H -0.2615 0.1118 -0.5094
H4G H -0.1934 0.1550 -0.5893
C4G C -0.2637(12) 0.2166(7) -0.4714(12)
H5G H -0.2149 0.2092 -0.3964
H6G H -0.3345 0.2203 -0.4502
N1G N -0.4490(9) 0.1676(7) -0.8324(10)
N2G N -0.4431(11) 0.1285(7) -0.6421(12)
N3G N -0.3496(10) 0.1561(6) -0.6565(10)
Cu2D Cu 0.0000 0.5899(4) 0.5000
Cu1F Cu 0.5000 0.17711(16) 1.0000
N1G_2 N 0.5510(9) 0.1676(7) 1.1676(10)
N2A_2 N -0.0569(11) 0.3715(7) 0.6421(12)
N2D N -0.0569(11) 0.6285(7) 0.6421(12)
N2E N 0.0569(11) 0.6285(7) 0.3579(12)
Cu1F_2 Cu -0.5000 0.17711(16) -1.0000
Cu2_2 Cu 0.0000 0.4101(4) -0.5000
Cu2F Cu -0.5000 0.0899(4) -0.5000
Cu2F_2 Cu 0.5000 0.0899(4) 0.5000
O1 O 0.4336(11) 0.4515(7) -0.1008(13)
O2 O 0.4031(9) 0.3355(7) -0.1436(12)
O3 O 0.4124(10) 0.4311(7) -0.3112(13)
O4 O 0.2570(9) 0.4320(7) -0.1817(13)
O5 O 0.2279(12) 0.5000 -0.4056(14)
O6 O 0.6105(10) 0.3372(6) -0.0899(10)
O7 O 0.6216(10) 0.4310(6) -0.2570(11)
O8 O 0.8103(13) 0.5000 -0.2589(17)
O9 O 0.5188(10) 0.3066(5) -0.3281(10)
O10 O 0.4212(10) 0.5470(7) 0.0656(13)
O11 O 0.2435(10) 0.4331(6) 0.0560(11)
O12 O 0.2057(8) 0.3102(5) -0.0737(12)
P1 P 0.5000 0.5000 0.0000
W1 W 0.30107(4) 0.37075(2) -0.05061(5)
W2 W 0.51319(4) 0.36863(3) -0.22421(5)
W3 W 0.31572(6) 0.5000 -0.27614(7)
W4 W 0.71148(6) 0.5000 -0.17713(7)
O1A O 0.5664(11) 0.4515(7) 0.1008(13)
O10A O 0.5788(10) 0.5470(7) -0.0656(13)
O1D O 0.5664(11) 0.5485(7) 0.1008(13)
O10D O 0.5788(10) 0.4530(7) -0.0656(13)
O1E O 0.4336(11) 0.5485(7) -0.1008(13)
O10E O 0.4212(10) 0.4530(7) 0.0656(13)
O2A O 0.5969(9) 0.3355(7) 0.1436(12)
O3A O 0.5876(10) 0.4311(7) 0.3112(13)
O4A O 0.7430(9) 0.4320(7) 0.1817(13)
O5A O 0.7721(12) 0.5000 0.4056(14)
O6A O 0.3895(10) 0.3372(6) 0.0899(10)
O7A O 0.3784(10) 0.4310(6) 0.2570(11)
O8A O 0.1897(13) 0.5000 0.2589(17)
O9A O 0.4812(10) 0.3066(5) 0.3281(10)
O11A O 0.7565(10) 0.4331(6) -0.0560(11)
O12A O 0.7943(8) 0.3102(5) 0.0737(12)
W1A W 0.69893(4) 0.37075(2) 0.05061(5)
W2A W 0.48681(4) 0.36863(3) 0.22421(5)
W3A W 0.68428(6) 0.5000 0.27614(7)
W4A W 0.28852(6) 0.5000 0.17713(7)
O2D O 0.5969(9) 0.6645(7) 0.1436(12)
O3D O 0.5876(10) 0.5689(7) 0.3112(13)
O4D O 0.7430(9) 0.5680(7) 0.1817(13)
O6D O 0.3895(10) 0.6628(6) 0.0899(10)
O7D O 0.3784(10) 0.5690(6) 0.2570(11)
O9D O 0.4812(10) 0.6934(5) 0.3281(10)
O11D O 0.7565(10) 0.5669(6) -0.0560(11)
O12D O 0.7943(8) 0.6898(5) 0.0737(12)
W1D W 0.69893(4) 0.62925(2) 0.05061(5)
W2D W 0.48681(4) 0.63137(3) 0.22421(5)
O2E O 0.4031(9) 0.6645(7) -0.1436(12)
O3E O 0.4124(10) 0.5689(7) -0.3112(13)
O4E O 0.2570(9) 0.5680(7) -0.1817(13)
O6E O 0.6105(10) 0.6628(6) -0.0899(10)
O7E O 0.6216(10) 0.5690(6) -0.2570(11)
O9E O 0.5188(10) 0.6934(5) -0.3281(10)
O11E O 0.2435(10) 0.5669(6) 0.0560(11)
O12E O 0.2057(8) 0.6898(5) -0.0737(12)
W1E W 0.30107(4) 0.62925(2) -0.05061(5)
W2E W 0.51319(4) 0.63137(3) -0.22421(5)
loop_
_geom_bond_atom_site_label_1
_geom_bond_atom_site_label_2
_geom_bond_site_symmetry_1
_geom_bond_site_symmetry_2
O1 P1 1_555 1_555
O2 W1 1_555 1_555
O3 W2 1_555 1_555
O4 W1 1_555 1_555
O5 W3 1_555 1_555
O6 W2 1_555 1_555
O7 W2 1_555 1_555
O8 W4 1_555 1_555
O9 W2 1_555 1_555
O10 P1 1_555 1_555
O11 W1 1_555 1_555
O12 W1 1_555 1_555
P1 O1A 1_555 1_555
W1 O1 1_555 1_555
W2 O1 1_555 1_555
W3 O1 1_555 1_555
W4 O7 1_555 1_555
C1 H1 1_555 1_555
C2 H2 1_555 1_555
C3 H3 1_555 1_555
H4 C3 1_555 1_555
C4 C3 1_555 1_555
H5 C4 1_555 1_555
H6 C4 1_555 1_555
N1 C1 1_555 1_555
N2 C1 1_555 1_555
N3 C2 1_555 1_555
Cu1 N1 1_555 1_555
Cu2 N2 1_555 1_555
O13 Cu2 1_555 1_555
O1A W1A 1_555 1_555
O10A P1 1_555 1_555
O1D P1 1_555 1_555
O10D P1 1_555 1_555
O1E P1 1_555 1_555
O10E P1 1_555 1_555
O2A W1A 1_555 1_555
O3A W2A 1_555 1_555
O4A W1A 1_555 1_555
O5A W3A 1_555 1_555
O6A W1 1_555 1_555
O7A W2A 1_555 1_555
O8A W4A 1_555 1_555
O9A W2A 1_555 1_555
O11A W4 1_555 1_555
O12A W1A 1_555 1_555
W1A O6 1_555 1_555
W2A O1A 1_555 1_555
W3A O1A 1_555 1_555
W4A O10 1_555 1_555
O2D W1D 1_555 1_555
O3D W3A 1_555 1_555
O4D W3A 1_555 1_555
O6D W2D 1_555 1_555
O7D W4A 1_555 1_555
O9D W2D 1_555 1_555
O11D W4 1_555 1_555
O12D W1D 1_555 1_555
W1D O10A 1_555 1_555
W2D O10 1_555 1_555
O2E W1E 1_555 1_555
O3E W3 1_555 1_555
O4E W3 1_555 1_555
O6E W1D 1_555 1_555
O7E W4 1_555 1_555
O9E W2E 1_555 1_555
O11E W4A 1_555 1_555
O12E W1E 1_555 1_555
W1E O10 1_555 1_555
W2E O10A 1_555 1_555
C1F H1F 1_555 1_555
C2F H2F 1_555 1_555
C3F H3F 1_555 1_555
H4F C3F 1_555 1_555
C4F C4 1_555 1_555
H5F C4F 1_555 1_555
H6F C4F 1_555 1_555
N1F C1F 1_555 1_555
N2F C1F 1_555 1_555
N3F C2F 1_555 1_555
C1A H1A 1_555 1_555
C2A H2A 1_555 1_555
C3A H3A 1_555 1_555
H4A C3A 1_555 1_555
C4A C3A 1_555 1_555
H5A C4A 1_555 1_555
H6A C4A 1_555 1_555
N1A Cu1 1_555 1_555
N2A C1A 1_555 1_555
N3A C2A 1_555 1_555
C1G H1G 1_555 1_555
C2G H2G 1_555 1_555
C3G H3G 1_555 1_555
H4G C3G 1_555 1_555
C4G C4A 1_555 1_555
H5G C4G 1_555 1_555
H6G C4G 1_555 1_555
N1G C1G 1_555 1_555
N2G C1G 1_555 1_555
N3G C2G 1_555 1_555
Cu2D O13 1_555 1_555
Cu1F N1F 1_555 1_555
N1G_2 Cu1F 1_555 1_555
N2A_2 Cu2 1_555 1_555
N2D Cu2D 1_555 1_555
N2E Cu2D 1_555 1_555
Cu1F_2 N1G 1_555 1_555
Cu2_2 N2A 1_555 1_555
Cu2F N2G 1_555 1_555
Cu2F_2 N2F 1_555 1_555
O2 W2 1_555 1_555
O3 W3 1_555 1_555
O4 W3 1_555 1_555
O11 W4A 1_555 1_555
W1 O10E 1_555 1_555
W2 O10D 1_555 1_555
W3 O1E 1_555 1_555
W4 O10A 1_555 1_555
W4 O10D 1_555 1_555
C2 N1 1_555 1_555
C3 N3 1_555 1_555
N2 N3 1_555 1_555
O1D W3A 1_555 1_555
O1D W1D 1_555 1_555
O1D W2D 1_555 1_555
O10D W1A 1_555 1_555
O1E W1E 1_555 1_555
O1E W2E 1_555 1_555
O10E W2A 1_555 1_555
O10E W4A 1_555 1_555
O2A W2A 1_555 1_555
O3A W3A 1_555 1_555
O4A W3A 1_555 1_555
O6A W2A 1_555 1_555
O7A W4A 1_555 1_555
O11A W1A 1_555 1_555
O2D W2D 1_555 1_555
O3D W2D 1_555 1_555
O4D W1D 1_555 1_555
O6D W1E 1_555 1_555
O7D W2D 1_555 1_555
O11D W1D 1_555 1_555
O2E W2E 1_555 1_555
O3E W2E 1_555 1_555
O4E W1E 1_555 1_555
O6E W2E 1_555 1_555
O7E W2E 1_555 1_555
O11E W1E 1_555 1_555
C2F N1F 1_555 1_555
C3F C4F 1_555 1_555
C3F N3F 1_555 1_555
N2F N3F 1_555 1_555
C1A N1A 1_555 1_555
C2A N1A 1_555 1_555
C3A N3A 1_555 1_555
N2A N3A 1_555 1_555
C2G N1G 1_555 1_555
C3G C4G 1_555 1_555
C3G N3G 1_555 1_555
N2G N3G 1_555 1_555

#END
