
#######################################################################
#
#                 Cambridge Crystallographic Data Centre
#                                CCDC 
#
#######################################################################
#
# If this CIF has been generated from an entry in the Cambridge 
# Structural Database, then it will include bibliographic, chemical, 
# crystal, experimental, refinement or atomic coordinate data resulting 
# from the CCDC's data processing and validation procedures.
#
#######################################################################

data_ZIDDIB
_symmetry_cell_setting           orthorhombic
_symmetry_space_group_name_H-M   'P c c n'
_symmetry_Int_Tables_number      56
_space_group_name_Hall           '-P 2ab 2ac'
loop_
_symmetry_equiv_pos_site_id
_symmetry_equiv_pos_as_xyz
1 x,y,z
2 1/2-x,1/2-y,z
3 1/2+x,-y,1/2-z
4 -x,1/2+y,1/2-z
5 -x,-y,-z
6 1/2+x,1/2+y,-z
7 1/2-x,y,1/2+z
8 x,1/2-y,1/2+z
_cell_length_a                   16.0630(8)
_cell_length_b                   16.4850(9)
_cell_length_c                   19.0250(8)
_cell_angle_alpha                90
_cell_angle_beta                 90
_cell_angle_gamma                90
_cell_volume                     5037.79
loop_
_atom_site_label
_atom_site_type_symbol
_atom_site_fract_x
_atom_site_fract_y
_atom_site_fract_z
In1 In 0.45587(5) -0.25746(5) -0.01260(4)
In2 In 0.72039(5) 0.06948(5) 0.18424(4)
C1 C 0.8076(7) 0.1220(7) 0.0533(6)
C2 C 0.7512(7) 0.0534(7) 0.0264(7)
C3 C 0.7585(8) 0.0226(8) -0.0351(6)
H1 H 0.7974 0.0439 -0.0663
C4 C 0.7079(7) -0.0438(8) -0.0560(6)
H2 H 0.7140 -0.0673 -0.1001
C5 C 0.6502(8) -0.0723(7) -0.0097(6)
C6 C 0.6468(7) -0.0360(7) 0.0564(5)
H3 H 0.6077 -0.0547 0.0886
C7 C 0.5925(9) -0.1414(8) -0.0288(7)
C8 C 0.8477(8) 0.0619(8) 0.2977(6)
C9 C 0.8780(8) -0.0042(8) 0.2464(6)
C10 C 0.9486(8) -0.0473(8) 0.2609(6)
H4 H 0.9748 -0.0438 0.3044
C11 C 0.9791(9) -0.0957(8) 0.2085(7)
H5 H 1.0278 -0.1250 0.2158
C12 C 0.9384(8) -0.1016(7) 0.1449(5)
C13 C 0.8641(8) -0.0614(7) 0.1360(6)
H6 H 0.8346 -0.0682 0.0943
C14 C 0.9728(8) -0.1513(7) 0.0848(6)
C15 C 0.6287(9) -0.0443(8) 0.2790(7)
C16 C 0.5660(7) -0.1104(7) 0.2910(6)
C17 C 0.5461(8) -0.1306(7) 0.3632(6)
H7 H 0.5707 -0.1018 0.3997
C18 C 0.4547(7) -0.2288(6) 0.3239(6)
C19 C 0.4686(8) -0.2083(8) 0.2534(6)
H8 H 0.4395 -0.2340 0.2175
C20 C 0.5266(8) -0.1490(8) 0.2388(6)
H9 H 0.5385 -0.1358 0.1923
C21 C 0.3973(7) -0.2959(6) 0.3449(6)
N1 N 0.6975(6) 0.0246(5) 0.0757(5)
N2 N 0.8326(6) -0.0118(6) 0.1869(4)
N3 N 0.4929(6) -0.1901(5) 0.3775(5)
O1 O 0.8000(5) 0.1455(5) 0.1166(4)
O2 O 0.8565(5) 0.1515(5) 0.0097(4)
O3 O 0.6058(9) -0.1809(9) -0.0809(7)
O4 O 0.5347(5) -0.1581(5) 0.0133(4)
O5 O 0.7885(5) 0.1068(5) 0.2745(4)
O6 O 0.8859(6) 0.0710(5) 0.3524(5)
O7 O 1.0290(6) -0.2033(6) 0.1009(4)
O8 O 0.9480(6) -0.1453(6) 0.0240(4)
O9 O 0.6338(5) -0.0206(5) 0.2149(4)
O10 O 0.6678(10) -0.0152(9) 0.3248(7)
O11 O 0.3602(5) -0.3320(5) 0.2953(4)
O12 O 0.3929(5) -0.3160(5) 0.4069(4)
O13 O 0.3581(5) -0.1889(5) 0.0467(4)
In1A In 1.04413(5) -0.24254(5) -0.01260(4)
In1E In 0.95587(5) 0.24254(5) 0.01260(4)
In1G In 0.45587(5) -0.24254(5) 0.48740(4)
In2C In 0.27961(5) -0.43052(5) 0.31576(4)
N3G N 0.4929(6) -0.3099(5) -0.1225(5)
O2E O 0.3565(5) -0.3485(5) -0.0097(4)
O7A O 0.4710(6) -0.2967(6) 0.1009(4)
O8A O 0.5520(6) -0.3547(6) 0.0240(4)
O11C O 0.6398(5) 0.1680(5) 0.2047(4)
O12G O 0.3929(5) -0.1840(5) -0.0931(4)
O14 O 0.2500 -0.2500 0.1457(7)
I1 I 0.7500 -0.2500 0.08813(12)
I2 I 0.7500 -0.2500 0.22998(11)
loop_
_geom_bond_atom_site_label_1
_geom_bond_atom_site_label_2
_geom_bond_site_symmetry_1
_geom_bond_site_symmetry_2
In1 O4 1_555 1_555
In2 N1 1_555 1_555
C1 C2 1_555 1_555
C2 C3 1_555 1_555
C3 H1 1_555 1_555
C4 C3 1_555 1_555
H2 C4 1_555 1_555
C5 C4 1_555 1_555
C6 C5 1_555 1_555
H3 C6 1_555 1_555
C7 C5 1_555 1_555
C8 C9 1_555 1_555
C9 C10 1_555 1_555
C10 H4 1_555 1_555
C11 C10 1_555 1_555
H5 C11 1_555 1_555
C12 C11 1_555 1_555
C13 C12 1_555 1_555
H6 C13 1_555 1_555
C14 C12 1_555 1_555
C15 C16 1_555 1_555
C16 C17 1_555 1_555
C17 H7 1_555 1_555
C18 C19 1_555 1_555
C19 H8 1_555 1_555
C20 C16 1_555 1_555
H9 C20 1_555 1_555
C21 C18 1_555 1_555
N1 C2 1_555 1_555
N2 In2 1_555 1_555
N3 C17 1_555 1_555
O1 In2 1_555 1_555
O2 C1 1_555 1_555
O3 C7 1_555 1_555
O4 C7 1_555 1_555
O5 In2 1_555 1_555
O6 C8 1_555 1_555
O7 C14 1_555 1_555
O8 C14 1_555 1_555
O9 In2 1_555 1_555
O10 C15 1_555 1_555
O11 C21 1_555 1_555
O12 C21 1_555 1_555
O13 In1 1_555 1_555
I1 I2 1_555 1_555
In1A O7 1_555 1_555
In1E O2 1_555 1_555
In1G N3 1_555 1_555
In2C O11 1_555 1_555
N3G In1 1_555 1_555
O2E In1 1_555 1_555
O7A In1 1_555 1_555
O8A In1 1_555 1_555
O11C In2 1_555 1_555
O12G In1 1_555 1_555
C1 O1 1_555 1_555
C6 N1 1_555 1_555
C8 O5 1_555 1_555
C9 N2 1_555 1_555
C13 N2 1_555 1_555
C15 O9 1_555 1_555
C18 N3 1_555 1_555
C19 C20 1_555 1_555
O8 In1A 1_555 1_555
O12 In1G 1_555 1_555

#END
