
#######################################################################
#
#                 Cambridge Crystallographic Data Centre
#                                CCDC 
#
#######################################################################
#
# If this CIF has been generated from an entry in the Cambridge 
# Structural Database, then it will include bibliographic, chemical, 
# crystal, experimental, refinement or atomic coordinate data resulting 
# from the CCDC's data processing and validation procedures.
#
#######################################################################

data_ZIDHAX
_symmetry_cell_setting           triclinic
_symmetry_space_group_name_H-M   'P -1'
_symmetry_Int_Tables_number      2
_space_group_name_Hall           '-P 1'
loop_
_symmetry_equiv_pos_site_id
_symmetry_equiv_pos_as_xyz
1 x,y,z
2 -x,-y,-z
_cell_length_a                   12.7326(12)
_cell_length_b                   16.1047(13)
_cell_length_c                   19.7002(17)
_cell_angle_alpha                103.648(2)
_cell_angle_beta                 91.582(3)
_cell_angle_gamma                94.159(3)
_cell_volume                     3911.05
loop_
_atom_site_label
_atom_site_type_symbol
_atom_site_fract_x
_atom_site_fract_y
_atom_site_fract_z
Sm1 Sm 0.35522(2) 0.413374(16) 0.687637(14)
Cl1 Cl 0.30778(17) 0.43211(12) 0.55413(10)
O1 O 0.4239(3) 0.1284(3) 1.0907(2)
N1 N 0.3642(4) 0.3032(3) 0.8187(3)
C1 C 0.7173(4) -0.0251(4) 1.1613(3)
H1 H 0.7612 -0.0687 1.1346
H2 H 0.6585 -0.0558 1.1796
O2 O 0.5283(3) 0.1496(3) 0.9747(2)
N2 N 1.4419(4) 0.5011(3) 1.1962(3)
C2 C 0.6720(4) 0.0237(3) 1.1118(3)
O3 O 0.5382(4) 0.2822(3) 1.0462(2)
N3 N 0.5758(4) 0.3664(3) 1.5898(3)
C3 C 0.5716(4) 0.0547(4) 1.1254(3)
H3 H 0.5362 0.0446 1.1648
O4 O 0.3127(4) 0.3236(3) 0.7660(2)
N4 N 0.2075(4) 0.6492(3) 0.8193(3)
C4 C 0.5235(4) 0.0994(4) 1.0825(3)
O5 O 1.0676(4) 0.2565(3) 1.0122(3)
N5 N 0.0014(5) 0.3182(5) 0.6390(5)
C5 C 0.5773(4) 0.1143(4) 1.0255(3)
O6 O 1.1817(3) 0.2507(3) 1.1280(2)
N6 N 0.4048(5) 0.1568(3) 0.5287(3)
C6 C 0.6761(4) 0.0853(3) 1.0111(3)
H4 H 0.7113 0.0972 0.9722
O7 O 1.0752(3) 0.3566(3) 1.1677(3)
N7 N 0.5507(7) 0.6765(5) 0.6939(4)
C7 C 0.7246(4) 0.0390(3) 1.0532(3)
O8 O 1.5277(3) 0.5543(3) 1.2084(2)
C8 C 0.8297(4) 0.0043(4) 1.0302(3)
H5 H 0.8295 -0.0106 0.9785
H6 H 0.8374 -0.0489 1.0462
C9 C 0.9252(4) 0.0691(4) 1.0594(3)
O9 O 0.7306(4) 0.1673(3) 1.3969(2)
C10 C 0.9512(4) 0.1316(4) 1.0222(3)
H7 H 0.9109 0.1319 0.9809
O10 O 0.7587(4) 0.2932(3) 1.3649(3)
C11 C 1.0356(5) 0.1936(4) 1.0450(3)
O11 O 0.5314(3) 0.4051(3) 1.6479(2)
C12 C 1.0919(4) 0.1905(4) 1.1062(3)
O12 O 0.2551(4) 0.5191(3) 0.7622(3)
C13 C 1.0692(4) 0.1299(4) 1.1425(3)
H8 H 1.1106 0.1300 1.1834
O13 O 0.1716(4) 0.3611(3) 0.6699(3)
C14 C 0.9843(4) 0.0665(4) 1.1199(3)
O14 O 0.3643(4) 0.2661(3) 0.6186(2)
C15 C 0.9613(5) 0.0030(4) 1.1641(3)
H9 H 1.0285 -0.0129 1.1821
H10 H 0.9232 -0.0497 1.1349
O15 O 0.4364(4) 0.5621(3) 0.6951(3)
C16 C 0.8942(5) 0.0414(4) 1.2258(3)
C17 C 0.9481(5) 0.0926(5) 1.2860(4)
H11 H 1.0230 0.0982 1.2879
C18 C 0.8954(6) 0.1352(6) 1.3426(4)
C19 C 0.7863(5) 0.1254(4) 1.3382(3)
C20 C 0.7317(5) 0.0748(4) 1.2812(3)
H12 H 0.6569 0.0687 1.2805
C21 C 0.7846(4) 0.0313(4) 1.2234(3)
C22 C 0.3588(5) 0.0931(4) 1.1371(3)
H13 H 0.3569 0.0304 1.1238
H14 H 0.2872 0.1109 1.1340
H15 H 0.3879 0.1140 1.1852
C23 C 0.5132(5) 0.2329(4) 0.9908(3)
C24 C 0.4612(5) 0.2571(4) 0.9293(3)
C25 C 0.3968(8) 0.3251(5) 0.9400(4)
H16 H 0.3872 0.3571 0.9862
C26 C 0.3475(7) 0.3459(6) 0.8846(4)
H17 H 0.3014 0.3907 0.8925
C27 C 0.4284(5) 0.2412(4) 0.8066(3)
H18 H 0.4413 0.2137 0.7597
C28 C 0.4773(5) 0.2154(4) 0.8609(3)
H19 H 0.5217 0.1695 0.8514
C29 C 1.1625(5) 0.3330(4) 1.1555(3)
C30 C 1.2614(5) 0.3899(4) 1.1691(3)
C31 C 1.2573(5) 0.4747(4) 1.2056(4)
H20 H 1.1919 0.4947 1.2217
C32 C 1.3479(5) 0.5304(4) 1.2187(3)
H21 H 1.3446 0.5885 1.2432
C33 C 1.4478(5) 0.4191(4) 1.1594(3)
H22 H 1.5136 0.4004 1.1431
C34 C 1.3580(4) 0.3623(4) 1.1454(3)
H23 H 1.3625 0.3049 1.1197
C35 C 0.7251(5) 0.2526(4) 1.4050(3)
C36 C 0.6727(4) 0.2910(4) 1.4709(3)
C37 C 0.6322(6) 0.3706(4) 1.4767(3)
H24 H 0.6391 0.3991 1.4399
C38 C 0.5829(6) 0.4071(4) 1.5357(4)
H25 H 0.5534 0.4604 1.5395
C39 C 0.6139(5) 0.2916(4) 1.5853(3)
H26 H 0.6081 0.2650 1.6234
C40 C 0.6629(5) 0.2506(4) 1.5251(3)
H27 H 0.6889 0.1961 1.5217
C41 C 0.2391(5) 0.5946(4) 0.7647(4)
H28 H 0.2507 0.6147 0.7237
C42 C 0.1887(8) 0.6261(6) 0.8847(4)
H29 H 0.2072 0.5673 0.8813
H30 H 0.1141 0.6300 0.8949
H31 H 0.2321 0.6654 0.9224
C43 C 0.1906(7) 0.7384(4) 0.8182(4)
H32 H 0.2086 0.7485 0.7726
H33 H 0.2354 0.7777 0.8551
H34 H 0.1165 0.7485 0.8263
C44 C 0.1034(7) 0.3333(6) 0.6288(6)
H35 H 0.1228 0.3193 0.5815
C45 C -0.0348(10) 0.3375(7) 0.7077(8)
H36 H -0.0608 0.2843 0.7199
H37 H -0.0919 0.3755 0.7104
H38 H 0.0234 0.3659 0.7405
C46 C -0.0725(9) 0.2782(8) 0.5822(8)
H39 H -0.0998 0.3221 0.5611
H40 H -0.1309 0.2475 0.5998
H41 H -0.0370 0.2376 0.5469
C47 C 0.3717(6) 0.2338(5) 0.5537(4)
H42 H 0.3525 0.2663 0.5215
C48 C 0.4204(8) 0.1257(6) 0.4514(4)
H43 H 0.4100 0.1721 0.4281
H44 H 0.3693 0.0769 0.4316
H45 H 0.4921 0.1078 0.4444
C49 C 0.4366(7) 0.1013(5) 0.5704(4)
H46 H 0.4292 0.1285 0.6199
H47 H 0.5104 0.0899 0.5625
H48 H 0.3922 0.0472 0.5577
C50 C 0.5228(8) 0.5930(5) 0.6810(4)
H49 H 0.5721 0.5545 0.6597
C51 C 0.6649(11) 0.7052(8) 0.6822(8)
H50 H 0.7072 0.7145 0.7260
H51 H 0.6664 0.7588 0.6666
H52 H 0.6939 0.6608 0.6464
C52 C 0.4833(10) 0.7397(6) 0.7272(9)
H53 H 0.4109 0.7235 0.7079
H54 H 0.5075 0.7955 0.7190
H55 H 0.4852 0.7433 0.7776
O16 O 0.9472(10) 0.2060(9) 1.3976(6)
C53 C 1.0120(12) 0.2586(8) 0.9539(7)
H56 H 1.0205 0.2064 0.9177
H57 H 1.0376 0.3089 0.9373
H58 H 0.9373 0.2620 0.9640
C54 C 1.0628(11) 0.2261(13) 1.3960(9)
H59 H 1.0906 0.1863 1.3563
H60 H 1.0971 0.2204 1.4396
H61 H 1.0768 0.2850 1.3910
Sm1_2 Sm 0.35522(2) 0.413374(16) 1.687637(14)
Sm1A Sm 1.64478(2) 0.586626(16) 1.312363(14)
O8A O 0.4723(3) 0.4457(3) 0.7916(2)
O11_2 O 0.5314(3) 0.4051(3) 0.6479(2)
Sm2 Sm 0.73750(2) 0.083148(18) 0.717584(15)
Cl2 Cl 0.69437(17) 0.24823(11) 0.73647(10)
Cl3 Cl 0.78720(16) 0.12184(13) 0.85463(9)
Cl4 Cl 0.53031(12) 0.03693(12) 0.71892(9)
Cl5 Cl 0.77000(13) -0.08303(10) 0.70349(9)
Cl6 Cl 0.74904(14) 0.06857(11) 0.57721(8)
O17 O 0.9241(4) 0.1121(4) 0.7092(3)
N8 N 1.0855(14) 0.0909(11) 0.6489(8)
C55 C 0.9843(15) 0.0757(13) 0.6555(11)
H62 H 0.9482 0.0341 0.6182
C56 C 1.1417(18) 0.0473(18) 0.5891(12)
H63 H 1.1868 0.0070 0.6034
H64 H 1.1854 0.0896 0.5715
H65 H 1.0908 0.0158 0.5520
C57 C 1.1425(18) 0.1484(13) 0.7092(14)
H66 H 1.0997 0.1536 0.7504
H67 H 1.1570 0.2050 0.6996
H68 H 1.2092 0.1252 0.7182
N9 N 0.9509(9) 0.5509(9) 0.6017(6)
O18 O 0.8025(9) 0.4869(7) 0.6316(6)
C58 C 0.8433(9) 0.5206(7) 0.5966(6)
H69 H 0.8020 0.5307 0.5589
C59 C 1.0089(9) 0.5630(7) 0.6672(6)
H70 H 1.0813 0.5854 0.6627
H71 H 1.0097 0.5080 0.6803
H72 H 0.9752 0.6039 0.7033
C60 C 1.0208(18) 0.5483(15) 0.5397(10)
H73 H 1.0920 0.5729 0.5567
H74 H 0.9914 0.5816 0.5090
N10 N 0.8108(9) 0.4261(7) 0.9305(6)
O19 O 0.7987(13) 0.5416(10) 1.0085(9)
C61 C 0.8550(14) 0.5041(11) 0.9679(9)
H75 H 0.9245 0.5259 0.9616
C62 C 0.8880(16) 0.3869(13) 0.8765(11)
H76 H 0.8576 0.3823 0.8294
H77 H 0.9016 0.3297 0.8821
H78 H 0.9542 0.4234 0.8834
C63 C 0.7090(14) 0.3924(11) 0.9352(9)
H79 H 0.7101 0.3482 0.9618
H80 H 0.6781 0.3669 0.8881
H81 H 0.6666 0.4381 0.9588
O20? O 0.9381(11) 0.1659(9) 1.4103(7)
C64? C 1.088(3) 0.239(2) 0.9372(18)
H82? H 1.1524 0.2098 0.9284
H83? H 1.0962 0.2938 0.9230
H84? H 1.0283 0.2034 0.9102
C65? C 1.041(2) 0.1397(17) 1.4262(11)
H85? H 1.0410 0.0774 1.4094
H86? H 1.0556 0.1560 1.4769
H87? H 1.0947 0.1680 1.4030
N11? N 1.0893(13) 0.1348(14) 0.6900(15)
C66? C 0.994(3) 0.1101(14) 0.6758(18)
H88? H 0.9774 0.0850 0.6276
C67? C 1.1708(18) 0.111(2) 0.643(2)
H89? H 1.2027 0.0613 0.6522
H90? H 1.2249 0.1592 0.6486
H91? H 1.1410 0.0968 0.5945
C68? C 1.1175(18) 0.1875(15) 0.7656(14)
H92? H 1.0547 0.1890 0.7933
H93? H 1.1432 0.2460 0.7647
H94? H 1.1726 0.1607 0.7866
H95? H 1.0237 0.4888 0.5135
loop_
_geom_bond_atom_site_label_1
_geom_bond_atom_site_label_2
_geom_bond_site_symmetry_1
_geom_bond_site_symmetry_2
Sm1 Cl1 1_555 1_555
O1 C4 1_555 1_555
N1 O4 1_555 1_555
C1 H1 1_555 1_555
H2 C1 1_555 1_555
O2 C5 1_555 1_555
N2 O8 1_555 1_555
C2 C1 1_555 1_555
O3 C23 1_555 1_555
N3 O11 1_555 1_555
C3 C2 1_555 1_555
H3 C3 1_555 1_555
O4 Sm1 1_555 1_555
N4 C41 1_555 1_555
C4 C3 1_555 1_555
O5 C11 1_555 1_555
N5 C44 1_555 1_555
C5 C4 1_555 1_555
O6 C12 1_555 1_555
N6 C47 1_555 1_555
C6 C5 1_555 1_555
H4 C6 1_555 1_555
O7 C29 1_555 1_555
N7 C50 1_555 1_555
C7 C2 1_555 1_555
O8 Sm1A 1_555 1_555
C8 C7 1_555 1_555
H5 C8 1_555 1_555
H6 C8 1_555 1_555
C9 C8 1_555 1_555
O9 C19 1_555 1_555
C10 C9 1_555 1_555
H7 C10 1_555 1_555
O10 C35 1_555 1_555
C11 C10 1_555 1_555
O11 Sm1_2 1_555 1_555
C12 C11 1_555 1_555
O12 Sm1 1_555 1_555
C13 C12 1_555 1_555
H8 C13 1_555 1_555
O13 Sm1 1_555 1_555
C14 C9 1_555 1_555
O14 Sm1 1_555 1_555
C15 C14 1_555 1_555
H9 C15 1_555 1_555
H10 C15 1_555 1_555
O15 Sm1 1_555 1_555
C16 C15 1_555 1_555
C17 C16 1_555 1_555
H11 C17 1_555 1_555
C18 C17 1_555 1_555
C19 C18 1_555 1_555
C20 C19 1_555 1_555
H12 C20 1_555 1_555
C21 C1 1_555 1_555
C22 O1 1_555 1_555
H13 C22 1_555 1_555
H14 C22 1_555 1_555
H15 C22 1_555 1_555
C23 O2 1_555 1_555
C24 C23 1_555 1_555
C25 C24 1_555 1_555
H16 C25 1_555 1_555
C26 N1 1_555 1_555
H17 C26 1_555 1_555
C27 N1 1_555 1_555
H18 C27 1_555 1_555
C28 C24 1_555 1_555
H19 C28 1_555 1_555
C29 O6 1_555 1_555
C30 C29 1_555 1_555
C31 C30 1_555 1_555
H20 C31 1_555 1_555
C32 N2 1_555 1_555
H21 C32 1_555 1_555
C33 N2 1_555 1_555
H22 C33 1_555 1_555
C34 C30 1_555 1_555
H23 C34 1_555 1_555
C35 O9 1_555 1_555
C36 C35 1_555 1_555
C37 C36 1_555 1_555
H24 C37 1_555 1_555
C38 N3 1_555 1_555
H25 C38 1_555 1_555
C39 N3 1_555 1_555
H26 C39 1_555 1_555
C40 C36 1_555 1_555
H27 C40 1_555 1_555
C41 O12 1_555 1_555
H28 C41 1_555 1_555
C42 N4 1_555 1_555
H29 C42 1_555 1_555
H30 C42 1_555 1_555
H31 C42 1_555 1_555
C43 N4 1_555 1_555
H32 C43 1_555 1_555
H33 C43 1_555 1_555
H34 C43 1_555 1_555
C44 O13 1_555 1_555
H35 C44 1_555 1_555
C45 N5 1_555 1_555
H36 C45 1_555 1_555
H37 C45 1_555 1_555
H38 C45 1_555 1_555
C46 N5 1_555 1_555
H39 C46 1_555 1_555
H40 C46 1_555 1_555
H41 C46 1_555 1_555
C47 O14 1_555 1_555
H42 C47 1_555 1_555
C48 N6 1_555 1_555
H43 C48 1_555 1_555
H44 C48 1_555 1_555
H45 C48 1_555 1_555
C49 N6 1_555 1_555
H46 C49 1_555 1_555
H47 C49 1_555 1_555
H48 C49 1_555 1_555
C50 O15 1_555 1_555
H49 C50 1_555 1_555
C51 N7 1_555 1_555
H50 C51 1_555 1_555
H51 C51 1_555 1_555
H52 C51 1_555 1_555
C52 N7 1_555 1_555
H53 C52 1_555 1_555
H54 C52 1_555 1_555
H55 C52 1_555 1_555
O16 C18 1_555 1_555
C53 O5 1_555 1_555
H56 C53 1_555 1_555
H57 C53 1_555 1_555
H58 C53 1_555 1_555
C54 O16 1_555 1_555
H59 C54 1_555 1_555
H60 C54 1_555 1_555
H61 C54 1_555 1_555
Sm2 Cl2 1_555 1_555
Cl3 Sm2 1_555 1_555
Cl4 Sm2 1_555 1_555
Cl5 Sm2 1_555 1_555
Cl6 Sm2 1_555 1_555
O17 Sm2 1_555 1_555
N8 C55 1_555 1_555
C55 O17 1_555 1_555
H62 C55 1_555 1_555
C56 N8 1_555 1_555
H63 C56 1_555 1_555
H64 C56 1_555 1_555
H65 C56 1_555 1_555
C57 N8 1_555 1_555
H66 C57 1_555 1_555
H67 C57 1_555 1_555
H68 C57 1_555 1_555
N9 C58 1_555 1_555
O18 C58 1_555 1_555
C58 H69 1_555 1_555
C59 N9 1_555 1_555
H70 C59 1_555 1_555
H71 C59 1_555 1_555
H72 C59 1_555 1_555
C60 N9 1_555 1_555
H73 C60 1_555 1_555
H74 C60 1_555 1_555
N10 C61 1_555 1_555
O19 C61 1_555 1_555
C61 H75 1_555 1_555
C62 N10 1_555 1_555
H76 C62 1_555 1_555
H77 C62 1_555 1_555
H78 C62 1_555 1_555
C63 N10 1_555 1_555
H79 C63 1_555 1_555
H80 C63 1_555 1_555
H81 C63 1_555 1_555
O8A Sm1 1_555 1_555
O11_2 Sm1 1_555 1_555
C6 C7 1_555 1_555
C13 C14 1_555 1_555
C16 C21 1_555 1_555
C20 C21 1_555 1_555
C25 C26 1_555 1_555
C27 C28 1_555 1_555
C31 C32 1_555 1_555
C33 C34 1_555 1_555
C37 C38 1_555 1_555
C39 C40 1_555 1_555

#END
