
#######################################################################
#
#                 Cambridge Crystallographic Data Centre
#                                CCDC 
#
#######################################################################
#
# If this CIF has been generated from an entry in the Cambridge 
# Structural Database, then it will include bibliographic, chemical, 
# crystal, experimental, refinement or atomic coordinate data resulting 
# from the CCDC's data processing and validation procedures.
#
#######################################################################

data_ZIDHIF
_symmetry_cell_setting           tetragonal
_symmetry_space_group_name_H-M   'I 41 2 2'
_symmetry_Int_Tables_number      98
_space_group_name_Hall           'I 4bw 2bw'
loop_
_symmetry_equiv_pos_site_id
_symmetry_equiv_pos_as_xyz
1 x,y,z
2 -y,1/2+x,1/4+z
3 1/2-x,1/2-y,1/2+z
4 1/2+y,-x,3/4+z
5 1/2-x,y,3/4-z
6 1/2+y,1/2+x,1/2-z
7 x,1/2-y,1/4-z
8 -y,-x,-z
9 1/2+x,1/2+y,1/2+z
10 1/2-y,x,3/4+z
11 -x,-y,z
12 y,1/2-x,1/4+z
13 -x,1/2+y,1/4-z
14 y,x,-z
15 1/2+x,-y,3/4-z
16 1/2-y,1/2-x,1/2-z
_cell_length_a                   15.3773(17)
_cell_length_b                   15.3773(17)
_cell_length_c                   16.395(3)
_cell_angle_alpha                90
_cell_angle_beta                 90
_cell_angle_gamma                90
_cell_volume                     3876.78
loop_
_atom_site_label
_atom_site_type_symbol
_atom_site_fract_x
_atom_site_fract_y
_atom_site_fract_z
Ag1 Ag 0.0000 0.0000 0.0000
S1 S -0.00161(16) 0.15428(8) 0.07480(8)
C1 C 0.1058(5) 0.1657(4) 0.1159(4)
C2 C 0.1580(5) 0.0925(5) 0.1195(5)
C3 C 0.2488(5) 0.0959(4) 0.1282(5)
C4 C 0.2875(4) 0.1732(5) 0.1265(5)
C5 C 0.2367(6) 0.2500 0.1250
C6 C 0.1443(5) 0.2500 0.1250
C7 C 0.3832(5) 0.1997(5) 0.1269(6)
C8 C -0.0766(4) 0.1358(4) 0.1564(4)
C9 C -0.1644(4) 0.1423(4) 0.1348(4)
C10 C -0.2280(5) 0.1238(4) 0.1923(5)
C11 C -0.2050(5) 0.0973(5) 0.2680(5)
C12 C -0.1161(5) 0.0897(4) 0.2897(5)
C13 C -0.0523(5) 0.1074(5) 0.2324(4)
H1 H 0.1310 0.0371 0.1158
H2 H 0.2818 0.0442 0.1351
H3 H 0.4139 0.1750 0.0791
H4 H 0.4122 0.1791 0.1772
H5 H -0.1804 0.1592 0.0812
H6 H -0.2877 0.1297 0.1785
H7 H -0.2488 0.0837 0.3068
H8 H -0.1003 0.0725 0.3434
H9 H 0.0074 0.0999 0.2455
S1F S -0.00161(16) 0.34572(8) 0.17520(8)
C1F C 0.1058(5) 0.3343(4) 0.1341(4)
C2F C 0.1580(5) 0.4075(5) 0.1305(5)
C3F C 0.2488(5) 0.4041(4) 0.1218(5)
C4F C 0.2875(4) 0.3268(5) 0.1235(5)
C7F C 0.3832(5) 0.3003(5) 0.1231(6)
C8F C -0.0766(4) 0.3642(4) 0.0936(4)
C9F C -0.1644(4) 0.3577(4) 0.1152(4)
C10F C -0.2280(5) 0.3762(4) 0.0577(5)
C11F C -0.2050(5) 0.4027(5) -0.0180(5)
C12F C -0.1161(5) 0.4103(4) -0.0397(5)
C13F C -0.0523(5) 0.3926(5) 0.0176(4)
H1F H 0.1310 0.4629 0.1342
H2F H 0.2818 0.4558 0.1149
H3F H 0.4139 0.3250 0.1709
H4F H 0.4122 0.3209 0.0728
H5F H -0.1804 0.3408 0.1688
H6F H -0.2877 0.3703 0.0715
H7F H -0.2488 0.4163 -0.0568
H8F H -0.1003 0.4275 -0.0934
H9F H 0.0074 0.4001 0.0045
S1G S -0.15428(8) 0.00161(16) -0.07480(8)
C1G C -0.1657(4) -0.1058(5) -0.1159(4)
C2G C -0.0925(5) -0.1580(5) -0.1195(5)
C3G C -0.0959(4) -0.2488(5) -0.1282(5)
C4G C -0.1732(5) -0.2875(4) -0.1265(5)
C5C C -0.2500 -0.2367(6) -0.1250
C6C C -0.2500 -0.1443(5) -0.1250
C7G C -0.1997(5) -0.3832(5) -0.1269(6)
C8G C -0.1358(4) 0.0766(4) -0.1564(4)
C9G C -0.1423(4) 0.1644(4) -0.1348(4)
C10G C -0.1238(4) 0.2280(5) -0.1923(5)
C11G C -0.0973(5) 0.2050(5) -0.2680(5)
C12G C -0.0897(4) 0.1161(5) -0.2897(5)
C13G C -0.1074(5) 0.0523(5) -0.2324(4)
H1G H -0.0371 -0.1310 -0.1158
H2G H -0.0442 -0.2818 -0.1351
H3G H -0.1750 -0.4139 -0.0791
H4G H -0.1791 -0.4122 -0.1772
H5G H -0.1592 0.1804 -0.0812
H6G H -0.1297 0.2877 -0.1785
H7G H -0.0837 0.2488 -0.3068
H8G H -0.0725 0.1003 -0.3434
H9G H -0.0999 -0.0074 -0.2455
S1C S -0.34572(8) 0.00161(16) -0.17520(8)
C1C C -0.3343(4) -0.1058(5) -0.1341(4)
C2C C -0.4075(5) -0.1580(5) -0.1305(5)
C3C C -0.4041(4) -0.2488(5) -0.1218(5)
C4C C -0.3268(5) -0.2875(4) -0.1235(5)
C7C C -0.3003(5) -0.3832(5) -0.1231(6)
C8C C -0.3642(4) 0.0766(4) -0.0936(4)
C9C C -0.3577(4) 0.1644(4) -0.1152(4)
C10C C -0.3762(4) 0.2280(5) -0.0577(5)
C11C C -0.4027(5) 0.2050(5) 0.0180(5)
C12C C -0.4103(4) 0.1161(5) 0.0397(5)
C13C C -0.3926(5) 0.0523(5) -0.0176(4)
H1C H -0.4629 -0.1310 -0.1342
H2C H -0.4558 -0.2818 -0.1149
H3C H -0.3250 -0.4139 -0.1709
H4C H -0.3209 -0.4122 -0.0728
H5C H -0.3408 0.1804 -0.1688
H6C H -0.3703 0.2877 -0.0715
H7C H -0.4163 0.2488 0.0568
H8C H -0.4275 0.1003 0.0934
H9C H -0.4001 -0.0074 -0.0045
Ag1A Ag 0.0000 0.5000 0.2500
Ag1C Ag -0.5000 0.0000 -0.2500
S1J S 0.00161(16) -0.15428(8) 0.07480(8)
S1M S 0.15428(8) -0.00161(16) -0.07480(8)
F1 F 0.4277(4) 0.4975(6) 0.0425(5)
B1 B 0.5000 0.5000 0.0000
F1G F 0.5025(6) 0.5723(4) -0.0425(5)
F1J F 0.5723(4) 0.5025(6) 0.0425(5)
F1M F 0.4975(6) 0.4277(4) -0.0425(5)
loop_
_geom_bond_atom_site_label_1
_geom_bond_atom_site_label_2
_geom_bond_site_symmetry_1
_geom_bond_site_symmetry_2
Ag1 S1 1_555 1_555
S1 C1 1_555 1_555
C1 C2 1_555 1_555
C2 C3 1_555 1_555
C3 C4 1_555 1_555
C4 C5 1_555 1_555
C5 C6 1_555 1_555
C6 C1 1_555 1_555
C7 C4 1_555 1_555
C8 S1 1_555 1_555
C9 C8 1_555 1_555
C10 C9 1_555 1_555
C11 C10 1_555 1_555
C12 C11 1_555 1_555
C13 C8 1_555 1_555
H1 C2 1_555 1_555
H2 C3 1_555 1_555
H3 C7 1_555 1_555
H4 C7 1_555 1_555
H5 C9 1_555 1_555
H6 C10 1_555 1_555
H7 C11 1_555 1_555
H8 C12 1_555 1_555
H9 C13 1_555 1_555
F1 B1 1_555 1_555
B1 F1G 1_555 1_555
S1F C1F 1_555 1_555
C1F C6 1_555 1_555
C2F C1F 1_555 1_555
C3F C2F 1_555 1_555
C4F C5 1_555 1_555
C7F C7 1_555 1_555
C8F S1F 1_555 1_555
C9F C8F 1_555 1_555
C10F C9F 1_555 1_555
C11F C10F 1_555 1_555
C12F C11F 1_555 1_555
C13F C8F 1_555 1_555
H1F C2F 1_555 1_555
H2F C3F 1_555 1_555
H3F C7F 1_555 1_555
H4F C7F 1_555 1_555
H5F C9F 1_555 1_555
H6F C10F 1_555 1_555
H7F C11F 1_555 1_555
H8F C12F 1_555 1_555
H9F C13F 1_555 1_555
S1G Ag1 1_555 1_555
C1G S1G 1_555 1_555
C2G C1G 1_555 1_555
C3G C2G 1_555 1_555
C4G C3G 1_555 1_555
C5C C4G 1_555 1_555
C6C C1G 1_555 1_555
C7G C4G 1_555 1_555
C8G S1G 1_555 1_555
C9G C8G 1_555 1_555
C10G C9G 1_555 1_555
C11G C10G 1_555 1_555
C12G C11G 1_555 1_555
C13G C8G 1_555 1_555
H1G C2G 1_555 1_555
H2G C3G 1_555 1_555
H3G C7G 1_555 1_555
H4G C7G 1_555 1_555
H5G C9G 1_555 1_555
H6G C10G 1_555 1_555
H7G C11G 1_555 1_555
H8G C12G 1_555 1_555
H9G C13G 1_555 1_555
S1C C1C 1_555 1_555
C1C C6C 1_555 1_555
C2C C1C 1_555 1_555
C3C C2C 1_555 1_555
C4C C5C 1_555 1_555
C7C C7G 1_555 1_555
C8C S1C 1_555 1_555
C9C C8C 1_555 1_555
C10C C9C 1_555 1_555
C11C C10C 1_555 1_555
C12C C11C 1_555 1_555
C13C C8C 1_555 1_555
H1C C2C 1_555 1_555
H2C C3C 1_555 1_555
H3C C7C 1_555 1_555
H4C C7C 1_555 1_555
H5C C9C 1_555 1_555
H6C C10C 1_555 1_555
H7C C11C 1_555 1_555
H8C C12C 1_555 1_555
H9C C13C 1_555 1_555
Ag1A S1F 1_555 1_555
Ag1C S1C 1_555 1_555
S1J Ag1 1_555 1_555
S1M Ag1 1_555 1_555
F1J B1 1_555 1_555
F1M B1 1_555 1_555
C12 C13 1_555 1_555
C3F C4F 1_555 1_555
C4F C7F 1_555 1_555
C12F C13F 1_555 1_555
C5C C6C 1_555 1_555
C12G C13G 1_555 1_555
C3C C4C 1_555 1_555
C4C C7C 1_555 1_555
C12C C13C 1_555 1_555

#END
