
#######################################################################
#
#                 Cambridge Crystallographic Data Centre
#                                CCDC 
#
#######################################################################
#
# If this CIF has been generated from an entry in the Cambridge 
# Structural Database, then it will include bibliographic, chemical, 
# crystal, experimental, refinement or atomic coordinate data resulting 
# from the CCDC's data processing and validation procedures.
#
#######################################################################

data_ZIDKOO
_symmetry_cell_setting           monoclinic
_symmetry_space_group_name_H-M   'P 21/c'
_symmetry_Int_Tables_number      14
_space_group_name_Hall           '-P 2ybc'
loop_
_symmetry_equiv_pos_site_id
_symmetry_equiv_pos_as_xyz
1 x,y,z
2 -x,1/2+y,1/2-z
3 -x,-y,-z
4 x,1/2-y,1/2+z
_cell_length_a                   11.8981(6)
_cell_length_b                   8.1956(5)
_cell_length_c                   10.0764(5)
_cell_angle_alpha                90
_cell_angle_beta                 96.396(3)
_cell_angle_gamma                90
_cell_volume                     976.455
loop_
_atom_site_label
_atom_site_type_symbol
_atom_site_fract_x
_atom_site_fract_y
_atom_site_fract_z
Gd1 Gd 0.254946(17) 0.50400(3) 0.11831(2)
O1 O 0.3903(4) 0.2988(6) 0.1530(5)
O2 O 0.4319(4) 0.6031(8) 0.0527(4)
O3 O 0.3113(10) 0.7289(16) 0.2589(13)
O4 O 0.2451(4) 0.0914(8) -0.1548(4)
O5 O 0.0791(4) 0.5885(7) 0.1742(5)
O6 O 0.1428(3) 0.2624(5) 0.0980(4)
O7 O 0.2056(4) -0.2672(7) -0.0251(5)
O8 O 0.2452(4) 0.4231(6) -0.1135(4)
H1 H 0.2410 0.5046 -0.1610
O9 O 0.0736(11) -0.0897(18) 0.2137(14)
C1 C 0.1769(8) -0.1103(16) -0.0065(9)
C2 C 0.1212(11) -0.0437(13) 0.1018(13)
C3 C 0.1483(6) 0.1254(12) 0.0501(7)
C4 C 0.2001(6) 0.0341(9) -0.0592(6)
Gd1_2 Gd 0.254946(17) -0.49600(3) 0.11831(2)
Gd1C Gd 0.254946(17) -0.00400(3) -0.38169(2)
O4C O 0.2451(4) 0.4086(8) 0.3452(4)
O7_2 O 0.2056(4) 0.7328(7) -0.0251(5)
loop_
_geom_bond_atom_site_label_1
_geom_bond_atom_site_label_2
_geom_bond_site_symmetry_1
_geom_bond_site_symmetry_2
Gd1 O1 1_555 1_555
O2 Gd1 1_555 1_555
O3 Gd1 1_555 1_555
O4 C4 1_555 1_555
O5 Gd1 1_555 1_555
O6 Gd1 1_555 1_555
O7 C1 1_555 1_555
O8 Gd1 1_555 1_555
H1 O8 1_555 1_555
O9 C2 1_555 1_555
C1 C2 1_555 1_555
C2 C3 1_555 1_555
C3 O6 1_555 1_555
C4 C1 1_555 1_555
Gd1_2 O7 1_555 1_555
Gd1C O4 1_555 1_555
O4C Gd1 1_555 1_555
O7_2 Gd1 1_555 1_555
C3 C4 1_555 1_555

#END
