
#######################################################################
#
#                 Cambridge Crystallographic Data Centre
#                                CCDC 
#
#######################################################################
#
# If this CIF has been generated from an entry in the Cambridge 
# Structural Database, then it will include bibliographic, chemical, 
# crystal, experimental, refinement or atomic coordinate data resulting 
# from the CCDC's data processing and validation procedures.
#
#######################################################################

data_ZIDPEJ
_symmetry_cell_setting           orthorhombic
_symmetry_space_group_name_H-M   'P b c a'
_symmetry_Int_Tables_number      61
_space_group_name_Hall           '-P 2ac 2ab'
loop_
_symmetry_equiv_pos_site_id
_symmetry_equiv_pos_as_xyz
1 x,y,z
2 1/2-x,-y,1/2+z
3 1/2+x,1/2-y,-z
4 -x,1/2+y,1/2-z
5 -x,-y,-z
6 1/2+x,y,1/2-z
7 1/2-x,1/2+y,z
8 x,1/2-y,1/2+z
_cell_length_a                   16.4742(3)
_cell_length_b                   15.1911(3)
_cell_length_c                   25.1389(5)
_cell_angle_alpha                90
_cell_angle_beta                 90
_cell_angle_gamma                90
_cell_volume                     6291.29
loop_
_atom_site_label
_atom_site_type_symbol
_atom_site_fract_x
_atom_site_fract_y
_atom_site_fract_z
Co1 Co 0.09014(2) 0.07163(2) 0.102805(15)
Co2 Co -0.08548(2) -0.03763(2) 0.075205(15)
O1 O 0.00883(11) -0.11526(12) 0.04574(8)
O2 O 0.05740(12) 0.43647(13) 0.34877(8)
O3 O -0.03682(12) 0.53441(12) 0.32386(8)
O4 O 0.11163(11) -0.06016(12) 0.09233(8)
N1 N -0.19135(14) 0.03808(15) 0.10181(10)
O5 O 0.36416(12) -0.41555(13) 0.02083(8)
O6 O 0.33065(12) -0.36766(13) -0.05878(8)
O7 O 0.06803(11) 0.20268(12) 0.12418(8)
N2 N -0.79138(14) 0.08014(15) 0.13489(10)
C1 C 0.08025(16) -0.11870(16) 0.06416(10)
C2 C 0.13443(16) -0.19458(16) 0.04951(10)
O8 O -0.06575(12) 0.20370(14) 0.11324(9)
C3 C -0.07778(15) 0.38069(17) 0.24941(11)
C4 C 0.21454(17) -0.18744(18) 0.06475(12)
H1 H 0.2295 -0.1417 0.0873
C5 C 0.11000(16) -0.26906(17) 0.01835(11)
C6 C -0.08274(16) 0.32616(17) 0.20290(11)
C7 C 0.27413(17) -0.24659(18) 0.04745(12)
H2 H 0.3272 -0.2412 0.0596
C8 C -0.00211(16) 0.41538(17) 0.26593(11)
C9 C 0.02796(17) -0.29109(18) 0.00757(13)
H3 H -0.0132 -0.2551 0.0206
C10 C -0.16091(17) 0.2972(2) 0.18659(14)
H4 H -0.1661 0.2643 0.1556
C11 C 0.00549(16) 0.46740(18) 0.31681(11)
C12 C 0.17165(16) -0.32685(16) -0.00138(11)
C13 C -0.72803(18) 0.0494(2) 0.10777(13)
H5 H -0.7373 0.0155 0.0775
C14 C -0.14918(17) 0.39582(19) 0.27959(12)
H6 H -0.1460 0.4279 0.3110
C15 C -0.00816(16) 0.30249(17) 0.17684(11)
C16 C -0.6487(2) 0.0661(2) 0.12310(15)
H7 H -0.6056 0.0443 0.1031
C17 C -0.00154(17) 0.23201(17) 0.13489(11)
C18 C 0.25388(16) -0.31227(17) 0.01267(11)
C19 C 0.14840(19) -0.40004(19) -0.03301(14)
H8 H 0.1882 -0.4361 -0.0476
C20 C -0.32838(18) 0.1221(2) 0.14492(14)
C21 C 0.06581(18) 0.3971(2) 0.23743(13)
H9 H 0.1150 0.4226 0.2472
C22 C 0.32065(16) -0.36876(17) -0.00925(12)
C23 C 0.06275(18) 0.3404(2) 0.19351(13)
H10 H 0.1104 0.3281 0.1751
C24 C -0.22191(18) 0.3642(2) 0.26327(14)
H11 H -0.2679 0.3741 0.2838
C25 C 0.0686(2) -0.4182(2) -0.04229(17)
H12 H 0.0545 -0.4671 -0.0626
C26 C -0.22847(18) 0.3167(2) 0.21568(15)
H13 H -0.2792 0.2984 0.2038
C27 C 0.0079(2) -0.3638(2) -0.02153(16)
H14 H -0.0464 -0.3773 -0.0276
C28 C -0.2912(2) 0.1517(2) 0.09927(15)
H15 H -0.3114 0.2009 0.0817
C29 C -0.22421(18) 0.1088(2) 0.07951(14)
H16 H -0.2005 0.1306 0.0486
C30 C -0.7759(2) 0.1239(2) 0.17968(14)
H17 H -0.8196 0.1434 0.2000
C31 C -0.2952(2) 0.0479(3) 0.16767(16)
H18 H -0.3184 0.0241 0.1982
C32 C -0.4808(2) 0.1159(3) 0.15419(16)
H19 H -0.4919 0.1235 0.1166
H20 H -0.4734 0.0535 0.1609
C33 C -0.2280(2) 0.0090(3) 0.14559(15)
H21 H -0.2068 -0.0407 0.1622
C34 C -0.6339(2) 0.1156(3) 0.16855(15)
C35 C -0.6991(2) 0.1416(3) 0.19736(15)
H22 H -0.6916 0.1716 0.2292
C36 C -0.5501(2) 0.1480(4) 0.1851(2)
H23 H -0.5501 0.2118 0.1834
H24 H -0.5415 0.1318 0.2220
C37 C -0.40131(19) 0.1660(3) 0.16888(18)
H25 H -0.4047 0.2261 0.1561
H26 H -0.3955 0.1677 0.2073
O9 O -0.02455(10) 0.07509(11) 0.06148(7)
H27 H -0.0116 0.0858 0.0294
H28 H -0.0412 0.1201 0.0784
Co1_2 Co -0.90986(2) 0.07163(2) 0.102805(15)
Co1C Co -0.09014(2) 0.57163(2) 0.397195(15)
Co1F Co 0.40986(2) -0.42837(2) 0.102805(15)
Co2B Co 0.41452(2) -0.46237(2) -0.075205(15)
Co2C Co 0.08548(2) 0.46237(2) 0.424795(15)
O2C O -0.05740(12) -0.06353(13) 0.15123(8)
O3C O 0.03682(12) 0.03441(12) 0.17614(8)
O5F O 0.13584(12) 0.08445(13) 0.02083(8)
O6B O -0.16935(12) -0.13234(13) 0.05878(8)
N2_2 N 0.20862(14) 0.08014(15) 0.13489(10)
loop_
_geom_bond_atom_site_label_1
_geom_bond_atom_site_label_2
_geom_bond_site_symmetry_1
_geom_bond_site_symmetry_2
Co1 O4 1_555 1_555
Co2 O1 1_555 1_555
O1 C1 1_555 1_555
O2 C11 1_555 1_555
O3 C11 1_555 1_555
O4 C1 1_555 1_555
N1 Co2 1_555 1_555
O5 C22 1_555 1_555
O6 C22 1_555 1_555
O7 Co1 1_555 1_555
N2 C13 1_555 1_555
C1 C2 1_555 1_555
C2 C4 1_555 1_555
O8 C17 1_555 1_555
C3 C6 1_555 1_555
C4 H1 1_555 1_555
C5 C2 1_555 1_555
C6 C10 1_555 1_555
C7 C4 1_555 1_555
H2 C7 1_555 1_555
C8 C3 1_555 1_555
C9 C5 1_555 1_555
H3 C9 1_555 1_555
C10 H4 1_555 1_555
C11 C8 1_555 1_555
C12 C5 1_555 1_555
C13 H5 1_555 1_555
C14 C3 1_555 1_555
H6 C14 1_555 1_555
C15 C6 1_555 1_555
C16 C13 1_555 1_555
H7 C16 1_555 1_555
C17 O7 1_555 1_555
C18 C7 1_555 1_555
C19 C12 1_555 1_555
H8 C19 1_555 1_555
C20 C28 1_555 1_555
C21 C8 1_555 1_555
H9 C21 1_555 1_555
C22 C18 1_555 1_555
C23 C15 1_555 1_555
H10 C23 1_555 1_555
C24 C14 1_555 1_555
H11 C24 1_555 1_555
C25 C19 1_555 1_555
H12 C25 1_555 1_555
C26 C10 1_555 1_555
H13 C26 1_555 1_555
C27 C9 1_555 1_555
H14 C27 1_555 1_555
C28 H15 1_555 1_555
C29 N1 1_555 1_555
H16 C29 1_555 1_555
C30 N2 1_555 1_555
H17 C30 1_555 1_555
C31 C20 1_555 1_555
H18 C31 1_555 1_555
C32 H19 1_555 1_555
H20 C32 1_555 1_555
C33 N1 1_555 1_555
H21 C33 1_555 1_555
C34 C16 1_555 1_555
C35 C30 1_555 1_555
H22 C35 1_555 1_555
C36 C32 1_555 1_555
H23 C36 1_555 1_555
H24 C36 1_555 1_555
C37 C20 1_555 1_555
H25 C37 1_555 1_555
H26 C37 1_555 1_555
O9 Co1 1_555 1_555
H27 O9 1_555 1_555
H28 O9 1_555 1_555
Co1_2 N2 1_555 1_555
Co1C O3 1_555 1_555
Co1F O5 1_555 1_555
Co2B O6 1_555 1_555
Co2C O2 1_555 1_555
O2C Co2 1_555 1_555
O3C Co1 1_555 1_555
O5F Co1 1_555 1_555
O6B Co2 1_555 1_555
N2_2 Co1 1_555 1_555
Co2 O9 1_555 1_555
C12 C18 1_555 1_555
C15 C17 1_555 1_555
C21 C23 1_555 1_555
C24 C26 1_555 1_555
C25 C27 1_555 1_555
C28 C29 1_555 1_555
C31 C33 1_555 1_555
C32 C37 1_555 1_555
C34 C35 1_555 1_555
C34 C36 1_555 1_555

#END
