
#######################################################################
#
#                 Cambridge Crystallographic Data Centre
#                                CCDC 
#
#######################################################################
#
# If this CIF has been generated from an entry in the Cambridge 
# Structural Database, then it will include bibliographic, chemical, 
# crystal, experimental, refinement or atomic coordinate data resulting 
# from the CCDC's data processing and validation procedures.
#
#######################################################################

data_ZIDPEJ01
_symmetry_cell_setting           orthorhombic
_symmetry_space_group_name_H-M   'P b c a'
_symmetry_Int_Tables_number      61
_space_group_name_Hall           '-P 2ac 2ab'
loop_
_symmetry_equiv_pos_site_id
_symmetry_equiv_pos_as_xyz
1 x,y,z
2 1/2-x,-y,1/2+z
3 -x,1/2+y,1/2-z
4 1/2+x,1/2-y,-z
5 -x,-y,-z
6 1/2+x,y,1/2-z
7 x,1/2-y,1/2+z
8 1/2-x,1/2+y,z
_cell_length_a                   16.466(3)
_cell_length_b                   15.188(3)
_cell_length_c                   25.146(5)
_cell_angle_alpha                90
_cell_angle_beta                 90
_cell_angle_gamma                90
_cell_volume                     6288.65
loop_
_atom_site_label
_atom_site_type_symbol
_atom_site_fract_x
_atom_site_fract_y
_atom_site_fract_z
Co1 Co -0.085461(17) 0.46241(2) 0.075121(13)
Co2 Co 0.090080(17) 0.57163(2) 0.102908(12)
N1 N -0.19137(12) 0.53804(14) 0.10185(9)
N2 N -0.79137(12) 0.58014(13) 0.13489(8)
O1 O 0.00887(10) 0.38489(11) 0.04561(7)
O2 O 0.11157(10) 0.43988(10) 0.09247(7)
O3 O 0.33084(10) 0.13235(12) -0.05874(7)
O4 O 0.36417(10) 0.08449(11) 0.02084(7)
O5 O 0.03676(10) 0.53445(11) 0.17616(6)
O6 O -0.05746(10) 0.43653(12) 0.15124(7)
O7 O 0.06545(10) 0.20383(12) 0.38655(8)
O8 O -0.06829(9) 0.20302(10) 0.37570(7)
O9 O -0.02440(9) 0.57529(10) 0.06158(6)
H1 H -0.0141 0.5865 0.0292
H2 H -0.0421 0.6207 0.0776
C1 C 0.13466(13) 0.30538(15) 0.04940(9)
C2 C 0.21467(14) 0.31292(16) 0.06459(10)
H3 H 0.2296 0.3588 0.0870
C3 C 0.27413(14) 0.25386(17) 0.04737(10)
H4 H 0.3273 0.2595 0.0594
C4 C 0.25426(14) 0.18782(15) 0.01294(9)
C5 C 0.17163(14) 0.17327(15) -0.00139(9)
C6 C 0.10997(14) 0.23069(15) 0.01841(9)
C7 C 0.02774(15) 0.20890(17) 0.00764(11)
H5 H -0.0135 0.2450 0.0205
C8 C 0.00826(17) 0.13596(19) -0.02121(13)
H6 H -0.0461 0.1222 -0.0271
C9 C 0.06880(18) 0.08147(19) -0.04210(14)
H7 H 0.0547 0.0327 -0.0625
C10 C 0.14846(16) 0.09971(18) -0.03261(12)
H8 H 0.1883 0.0633 -0.0469
C11 C 0.08028(13) 0.38150(15) 0.06414(9)
C12 C 0.32097(13) 0.13107(15) -0.00917(10)
C13 C 0.00187(14) 0.41546(15) 0.23414(9)
C14 C -0.06629(15) 0.39706(19) 0.26256(11)
H9 H -0.1155 0.4224 0.2527
C15 C -0.06339(15) 0.34045(19) 0.30654(11)
H10 H -0.1111 0.3281 0.3249
C16 C 0.00786(14) 0.30270(15) 0.32326(10)
C17 C 0.08217(14) 0.32607(15) 0.29697(10)
C18 C 0.07763(13) 0.38081(15) 0.25071(9)
C19 C 0.14907(14) 0.39600(18) 0.22048(10)
H11 H 0.1459 0.4281 0.1891
C20 C 0.22194(15) 0.3643(2) 0.23676(12)
H12 H 0.2681 0.3741 0.2163
C21 C 0.22796(16) 0.3169(2) 0.28433(13)
H13 H 0.2787 0.2984 0.2962
C22 C 0.16066(15) 0.29741(18) 0.31347(11)
H14 H 0.1660 0.2649 0.3446
C23 C -0.00600(13) 0.46758(15) 0.18317(9)
C24 C 0.00122(14) 0.23232(15) 0.36510(9)
C25 C -0.22798(17) 0.5085(2) 0.14538(13)
H15 H -0.2069 0.4586 0.1618
C26 C -0.29556(18) 0.5476(2) 0.16757(13)
H16 H -0.3191 0.5236 0.1979
C27 C -0.32823(15) 0.62195(19) 0.14493(12)
C28 C -0.29100(17) 0.6520(2) 0.09967(13)
H17 H -0.3111 0.7016 0.0824
C29 C -0.22392(16) 0.60895(19) 0.07966(11)
H18 H -0.2001 0.6309 0.0488
C30 C -0.40133(16) 0.6659(3) 0.16882(15)
H19 H -0.4047 0.7261 0.1561
H20 H -0.3956 0.6676 0.2072
C31 C -0.48069(17) 0.6161(3) 0.15407(14)
H21 H -0.4916 0.6236 0.1164
H22 H -0.4735 0.5537 0.1608
C32 C -0.55017(19) 0.6484(3) 0.18485(16)
H23 H -0.5504 0.7122 0.1829
H24 H -0.5417 0.6325 0.2218
C33 C -0.63362(18) 0.6156(2) 0.16833(12)
C34 C -0.69907(19) 0.6418(2) 0.19727(13)
H25 H -0.6915 0.6719 0.2291
C35 C -0.77597(17) 0.6239(2) 0.17974(11)
H26 H -0.8196 0.6433 0.2001
C36 C -0.72795(15) 0.54982(18) 0.10785(11)
H27 H -0.7373 0.5163 0.0775
C37 C -0.64856(16) 0.5661(2) 0.12293(12)
H28 H -0.6056 0.5442 0.1029
Co1C Co 0.414539(17) 0.03759(2) -0.075121(13)
Co2_2 Co -0.909920(17) 0.57163(2) 0.102908(12)
Co2B Co -0.090080(17) 0.07163(2) 0.397092(12)
Co2G Co 0.409920(17) 0.07163(2) 0.102908(12)
N2_2 N 0.20863(12) 0.58014(13) 0.13489(8)
O3C O -0.16916(10) 0.36765(12) 0.05874(7)
O4G O 0.13583(10) 0.58449(11) 0.02084(7)
O8B O 0.06829(9) 0.70302(10) 0.12430(7)
loop_
_geom_bond_atom_site_label_1
_geom_bond_atom_site_label_2
_geom_bond_site_symmetry_1
_geom_bond_site_symmetry_2
Co1 N1 1_555 1_555
Co2 O2 1_555 1_555
N1 C25 1_555 1_555
N2 C35 1_555 1_555
O1 Co1 1_555 1_555
O2 C11 1_555 1_555
O3 C12 1_555 1_555
O4 C12 1_555 1_555
O5 Co2 1_555 1_555
O6 Co1 1_555 1_555
O7 C24 1_555 1_555
O8 C24 1_555 1_555
O9 Co1 1_555 1_555
H1 O9 1_555 1_555
H2 O9 1_555 1_555
C1 C2 1_555 1_555
C2 H3 1_555 1_555
C3 C2 1_555 1_555
H4 C3 1_555 1_555
C4 C3 1_555 1_555
C5 C4 1_555 1_555
C6 C1 1_555 1_555
C7 C6 1_555 1_555
H5 C7 1_555 1_555
C8 C7 1_555 1_555
H6 C8 1_555 1_555
C9 C8 1_555 1_555
H7 C9 1_555 1_555
C10 C5 1_555 1_555
H8 C10 1_555 1_555
C11 O1 1_555 1_555
C12 C4 1_555 1_555
C13 C14 1_555 1_555
C14 H9 1_555 1_555
C15 C14 1_555 1_555
H10 C15 1_555 1_555
C16 C15 1_555 1_555
C17 C16 1_555 1_555
C18 C13 1_555 1_555
C19 C18 1_555 1_555
H11 C19 1_555 1_555
C20 C19 1_555 1_555
H12 C20 1_555 1_555
C21 C20 1_555 1_555
H13 C21 1_555 1_555
C22 C17 1_555 1_555
H14 C22 1_555 1_555
C23 O5 1_555 1_555
C24 C16 1_555 1_555
C25 H15 1_555 1_555
C26 C25 1_555 1_555
H16 C26 1_555 1_555
C27 C26 1_555 1_555
C28 C27 1_555 1_555
H17 C28 1_555 1_555
C29 N1 1_555 1_555
H18 C29 1_555 1_555
C30 C27 1_555 1_555
H19 C30 1_555 1_555
H20 C30 1_555 1_555
C31 C30 1_555 1_555
H21 C31 1_555 1_555
H22 C31 1_555 1_555
C32 C31 1_555 1_555
H23 C32 1_555 1_555
H24 C32 1_555 1_555
C33 C32 1_555 1_555
C34 C33 1_555 1_555
H25 C34 1_555 1_555
C35 C34 1_555 1_555
H26 C35 1_555 1_555
C36 N2 1_555 1_555
H27 C36 1_555 1_555
C37 C33 1_555 1_555
H28 C37 1_555 1_555
Co1C O3 1_555 1_555
Co2_2 N2 1_555 1_555
Co2B O8 1_555 1_555
Co2G O4 1_555 1_555
N2_2 Co2 1_555 1_555
O3C Co1 1_555 1_555
O4G Co2 1_555 1_555
O8B Co2 1_555 1_555
Co2 O9 1_555 1_555
O6 C23 1_555 1_555
C1 C11 1_555 1_555
C5 C6 1_555 1_555
C9 C10 1_555 1_555
C13 C23 1_555 1_555
C17 C18 1_555 1_555
C21 C22 1_555 1_555
C28 C29 1_555 1_555
C36 C37 1_555 1_555

#END
