
#######################################################################
#
#                 Cambridge Crystallographic Data Centre
#                                CCDC 
#
#######################################################################
#
# If this CIF has been generated from an entry in the Cambridge 
# Structural Database, then it will include bibliographic, chemical, 
# crystal, experimental, refinement or atomic coordinate data resulting 
# from the CCDC's data processing and validation procedures.
#
#######################################################################

data_ZIDRUB
_symmetry_cell_setting           monoclinic
_symmetry_space_group_name_H-M   'P 21/n'
_symmetry_Int_Tables_number      14
_space_group_name_Hall           '-P 2yn'
loop_
_symmetry_equiv_pos_site_id
_symmetry_equiv_pos_as_xyz
1 x,y,z
2 1/2-x,1/2+y,1/2-z
3 -x,-y,-z
4 1/2+x,1/2-y,1/2+z
_cell_length_a                   11.780(4)
_cell_length_b                   19.336(6)
_cell_length_c                   12.735(4)
_cell_angle_alpha                90
_cell_angle_beta                 91.107(3)
_cell_angle_gamma                90
_cell_volume                     2900.21
loop_
_atom_site_label
_atom_site_type_symbol
_atom_site_fract_x
_atom_site_fract_y
_atom_site_fract_z
Co1 Co 0.83715(3) 0.098549(19) 0.88919(3)
Co2 Co 1.02989(3) 0.066459(18) 1.07058(3)
O1 O 0.7725(2) 0.14821(14) 1.01950(18)
O2 O 0.93336(18) 0.15237(12) 1.11525(17)
O3 O 0.4542(2) 0.32955(15) 1.3552(2)
O4 O 0.5997(2) 0.38346(12) 1.43489(17)
O5 O 0.88962(16) 0.02223(10) 0.98228(14)
H1 H 0.8628 -0.0184 0.9866
O6 O 0.8782(3) 0.04913(17) 0.74932(18)
O7 O 1.0254(2) -0.01939(12) 0.78859(16)
N1 N 0.6837(3) 0.12037(19) 0.8183(3)
N2 N 0.5615(4) 0.1487(2) 0.6933(4)
N3 N 0.3464(3) 0.1340(2) 0.2020(3)
N4 N 0.1702(2) 0.10947(15) 0.1547(2)
C1 C 0.8311(3) 0.16719(15) 1.0978(2)
C2 C 0.7693(3) 0.21277(15) 1.1750(2)
C3 C 0.6854(3) 0.25494(18) 1.1341(2)
H2 H 0.6722 0.2558 1.0619
C4 C 0.6192(3) 0.29688(17) 1.1994(3)
H3 H 0.5618 0.3241 1.1700
C5 C 0.6385(3) 0.29802(16) 1.3062(2)
C6 C 0.7286(3) 0.25796(16) 1.3518(2)
C7 C 0.5585(3) 0.34061(16) 1.3713(2)
C8 C 0.7555(4) 0.2604(2) 1.4609(3)
H4 H 0.7153 0.2900 1.5041
C9 C 0.8398(4) 0.2196(2) 1.5034(3)
H5 H 0.8587 0.2232 1.5744
C10 C 0.8976(4) 0.1722(2) 1.4399(3)
H6 H 0.9523 0.1433 1.4699
C11 C 0.8744(3) 0.16833(18) 1.3344(3)
H7 H 0.9131 0.1365 1.2937
C12 C 0.7919(3) 0.21236(15) 1.2861(2)
C13 C 0.9610(3) 0.01195(16) 0.7253(2)
C14 C 0.9821(3) 0.00517(15) 0.6091(2)
C15 C 0.8903(3) -0.00732(17) 0.5397(2)
C16 C 0.9084(3) -0.01233(17) 0.4298(2)
C17 C 0.8173(6) -0.0253(4) 0.3614(5)
H8 H 0.8311 -0.0299 0.2901
C18 C 0.7087(7) -0.0315(6) 0.3951(7)
H9 H 0.6480 -0.0369 0.3481
C19 C 0.6920(7) -0.0294(6) 0.5069(6)
H10 H 0.6200 -0.0357 0.5341
C20 C 0.7849(6) -0.0177(4) 0.5734(5)
H11 H 0.7731 -0.0171 0.6454
C21 C 0.6646(4) 0.1255(3) 0.7149(3)
H12 H 0.7174 0.1142 0.6644
C22 C 0.5104(4) 0.1595(4) 0.7853(6)
H13 H 0.4368 0.1756 0.7941
C23 C 0.5856(4) 0.1426(4) 0.8627(4)
H14 H 0.5727 0.1457 0.9344
C24 C 0.5121(6) 0.1665(4) 0.5901(5)
H15 H 0.5283 0.2147 0.5760
H16 H 0.4303 0.1616 0.5935
C25 C 0.5539(7) 0.1232(4) 0.4972(6)
H17 H 0.5443 0.0744 0.5127
H18 H 0.6342 0.1317 0.4876
C26 C 0.4878(7) 0.1411(4) 0.3948(6)
H19 H 0.4072 0.1358 0.4070
H20 H 0.5013 0.1894 0.3781
C27 C 0.5177(6) 0.0992(4) 0.3049(6)
H21 H 0.4893 0.0526 0.3143
H22 H 0.5997 0.0968 0.3002
C28 C 0.4704(5) 0.1280(4) 0.2089(7)
H23 H 0.5026 0.1737 0.1994
H24 H 0.4951 0.0996 0.1508
C29 C 0.2768(3) 0.0890(2) 0.1496(3)
H25 H 0.3010 0.0494 0.1151
C30 C 0.1719(4) 0.1694(2) 0.2135(3)
H26 H 0.1083 0.1954 0.2301
C31 C 0.2794(4) 0.1845(2) 0.2433(3)
H27 H 0.3033 0.2218 0.2840
O6B O 1.1218(3) -0.04913(17) 0.25068(18)
O7B O 0.9746(2) 0.01939(12) 0.21141(16)
C13B C 1.0390(3) -0.01195(16) 0.2747(2)
C14B C 1.0179(3) -0.00517(15) 0.3909(2)
C15B C 1.1097(3) 0.00732(17) 0.4603(2)
C16B C 1.0916(3) 0.01233(17) 0.5702(2)
C17B C 1.1827(6) 0.0253(4) 0.6386(5)
H8B H 1.1689 0.0299 0.7099
C18B C 1.2913(7) 0.0315(6) 0.6049(7)
H9B H 1.3520 0.0369 0.6519
C19B C 1.3080(7) 0.0294(6) 0.4931(6)
H10B H 1.3800 0.0357 0.4659
C20B C 1.2151(6) 0.0177(4) 0.4266(5)
H11B H 1.2269 0.0171 0.3546
Co1B Co 1.16285(3) -0.098549(19) 0.11081(3)
Co2B Co 0.97011(3) -0.066459(18) -0.07058(3)
O1B O 1.2275(2) -0.14821(14) -0.01950(18)
O2B O 1.06664(18) -0.15237(12) -0.11525(17)
O3B O 1.5458(2) -0.32955(15) -0.3552(2)
O4B O 1.4003(2) -0.38346(12) -0.43489(17)
O5B O 1.11038(16) -0.02223(10) 0.01772(14)
H1B H 1.1372 0.0184 0.0134
N1B N 1.3163(3) -0.12037(19) 0.1817(3)
N2B N 1.4385(4) -0.1487(2) 0.3067(4)
N3B N 1.6536(3) -0.1340(2) 0.7980(3)
N4B N 1.8298(2) -0.10947(15) 0.8453(2)
C1B C 1.1689(3) -0.16719(15) -0.0978(2)
C2B C 1.2307(3) -0.21277(15) -0.1750(2)
C3B C 1.3146(3) -0.25494(18) -0.1341(2)
H2B H 1.3278 -0.2558 -0.0619
C4B C 1.3808(3) -0.29688(17) -0.1994(3)
H3B H 1.4382 -0.3241 -0.1700
C5B C 1.3615(3) -0.29802(16) -0.3062(2)
C6B C 1.2714(3) -0.25796(16) -0.3518(2)
C7B C 1.4415(3) -0.34061(16) -0.3713(2)
C8B C 1.2445(4) -0.2604(2) -0.4609(3)
H4B H 1.2847 -0.2900 -0.5041
C9B C 1.1602(4) -0.2196(2) -0.5034(3)
H5B H 1.1413 -0.2232 -0.5744
C10B C 1.1024(4) -0.1722(2) -0.4399(3)
H6B H 1.0477 -0.1433 -0.4699
C11B C 1.1256(3) -0.16833(18) -0.3344(3)
H7B H 1.0869 -0.1365 -0.2937
C12B C 1.2081(3) -0.21236(15) -0.2861(2)
C21B C 1.3354(4) -0.1255(3) 0.2851(3)
H12B H 1.2826 -0.1142 0.3356
C22B C 1.4896(4) -0.1595(4) 0.2147(6)
H13B H 1.5632 -0.1756 0.2059
C23B C 1.4144(4) -0.1426(4) 0.1373(4)
H14B H 1.4273 -0.1457 0.0656
C24B C 1.4879(6) -0.1665(4) 0.4099(5)
H15B H 1.4717 -0.2147 0.4240
H16B H 1.5697 -0.1616 0.4065
C25B C 1.4461(7) -0.1232(4) 0.5028(6)
H17B H 1.4557 -0.0744 0.4873
H18B H 1.3658 -0.1317 0.5124
C26B C 1.5122(7) -0.1411(4) 0.6052(6)
H19B H 1.5928 -0.1358 0.5930
H20B H 1.4987 -0.1894 0.6219
C27B C 1.4823(6) -0.0992(4) 0.6951(6)
H21B H 1.5107 -0.0526 0.6857
H22B H 1.4003 -0.0968 0.6998
C28B C 1.5296(5) -0.1280(4) 0.7911(7)
H23B H 1.4974 -0.1737 0.8006
H24B H 1.5049 -0.0996 0.8492
C29B C 1.7232(3) -0.0890(2) 0.8504(3)
H25B H 1.6990 -0.0494 0.8849
C30B C 1.8281(4) -0.1694(2) 0.7865(3)
H26B H 1.8917 -0.1954 0.7699
C31B C 1.7206(4) -0.1845(2) 0.7567(3)
H27B H 1.6967 -0.2218 0.7160
Co1A Co 1.66285(3) -0.401451(19) -0.38919(3)
Co1C Co 0.33715(3) 0.401451(19) 1.38919(3)
Co2_2 Co 0.02989(3) 0.066459(18) 0.07058(3)
Co2_3 Co 1.02989(3) 0.066459(18) 0.07058(3)
Co2A Co 1.47011(3) -0.433541(18) -0.57058(3)
Co2B_2 Co 0.97011(3) -0.066459(18) 0.92942(3)
Co2B_3 Co 1.97011(3) -0.066459(18) 0.92942(3)
Co2C Co 0.52989(3) 0.433541(18) 1.57058(3)
O3A O 1.0458(2) -0.17045(15) 0.1448(2)
O3C O 0.9542(2) 0.17045(15) 0.8552(2)
O4A O 0.9003(2) -0.11654(12) 0.06511(17)
O4C O 1.0997(2) 0.11654(12) 0.93489(17)
O5_2 O 0.88962(16) 0.02223(10) -0.01772(14)
O5B_2 O 1.11038(16) -0.02223(10) 1.01772(14)
O7_2 O 1.0254(2) -0.01939(12) -0.21141(16)
O7B_2 O 0.9746(2) 0.01939(12) 1.21141(16)
N4_2 N 1.1702(2) 0.10947(15) 1.1547(2)
N4B_2 N 0.8298(2) -0.10947(15) -0.1547(2)
O8 O 0.7261(8) -0.0322(6) 0.1464(9)
loop_
_geom_bond_atom_site_label_1
_geom_bond_atom_site_label_2
_geom_bond_site_symmetry_1
_geom_bond_site_symmetry_2
Co1 O1 1_555 1_555
Co2 O2 1_555 1_555
O1 C1 1_555 1_555
O2 C1 1_555 1_555
O3 C7 1_555 1_555
O4 C7 1_555 1_555
O5 Co1 1_555 1_555
H1 O5 1_555 1_555
O6 Co1 1_555 1_555
O7 C13 1_555 1_555
N1 Co1 1_555 1_555
N2 C21 1_555 1_555
N3 C28 1_555 1_555
N4 C29 1_555 1_555
C1 C2 1_555 1_555
C2 C3 1_555 1_555
C3 H2 1_555 1_555
C4 C3 1_555 1_555
H3 C4 1_555 1_555
C5 C4 1_555 1_555
C6 C5 1_555 1_555
C7 C5 1_555 1_555
C8 C6 1_555 1_555
H4 C8 1_555 1_555
C9 C8 1_555 1_555
H5 C9 1_555 1_555
C10 C9 1_555 1_555
H6 C10 1_555 1_555
C11 C10 1_555 1_555
H7 C11 1_555 1_555
C12 C2 1_555 1_555
C13 O6 1_555 1_555
C14 C13 1_555 1_555
C15 C14 1_555 1_555
C16 C15 1_555 1_555
C17 C16 1_555 1_555
H8 C17 1_555 1_555
C18 C17 1_555 1_555
H9 C18 1_555 1_555
C19 C18 1_555 1_555
H10 C19 1_555 1_555
C20 C15 1_555 1_555
H11 C20 1_555 1_555
C21 N1 1_555 1_555
H12 C21 1_555 1_555
C22 N2 1_555 1_555
H13 C22 1_555 1_555
C23 N1 1_555 1_555
H14 C23 1_555 1_555
C24 N2 1_555 1_555
H15 C24 1_555 1_555
H16 C24 1_555 1_555
C25 C24 1_555 1_555
H17 C25 1_555 1_555
H18 C25 1_555 1_555
C26 C25 1_555 1_555
H19 C26 1_555 1_555
H20 C26 1_555 1_555
C27 C26 1_555 1_555
H21 C27 1_555 1_555
H22 C27 1_555 1_555
C28 C27 1_555 1_555
H23 C28 1_555 1_555
H24 C28 1_555 1_555
C29 N3 1_555 1_555
H25 C29 1_555 1_555
C30 N4 1_555 1_555
H26 C30 1_555 1_555
C31 N3 1_555 1_555
H27 C31 1_555 1_555
O6B C13B 1_555 1_555
O7B C13B 1_555 1_555
C13B C14B 1_555 1_555
C14B C16 1_555 1_555
C15B C14B 1_555 1_555
C16B C14 1_555 1_555
C17B C16B 1_555 1_555
H8B C17B 1_555 1_555
C18B C17B 1_555 1_555
H9B C18B 1_555 1_555
C19B C18B 1_555 1_555
H10B C19B 1_555 1_555
C20B C15B 1_555 1_555
H11B C20B 1_555 1_555
Co1B O6B 1_555 1_555
Co2B O2B 1_555 1_555
O1B Co1B 1_555 1_555
O2B C1B 1_555 1_555
O3B C7B 1_555 1_555
O4B C7B 1_555 1_555
O5B Co1B 1_555 1_555
H1B O5B 1_555 1_555
N1B Co1B 1_555 1_555
N2B C21B 1_555 1_555
N3B C28B 1_555 1_555
N4B C29B 1_555 1_555
C1B O1B 1_555 1_555
C2B C1B 1_555 1_555
C3B C2B 1_555 1_555
H2B C3B 1_555 1_555
C4B C3B 1_555 1_555
H3B C4B 1_555 1_555
C5B C4B 1_555 1_555
C6B C5B 1_555 1_555
C7B C5B 1_555 1_555
C8B C6B 1_555 1_555
H4B C8B 1_555 1_555
C9B C8B 1_555 1_555
H5B C9B 1_555 1_555
C10B C9B 1_555 1_555
H6B C10B 1_555 1_555
C11B C10B 1_555 1_555
H7B C11B 1_555 1_555
C12B C2B 1_555 1_555
C21B N1B 1_555 1_555
H12B C21B 1_555 1_555
C22B N2B 1_555 1_555
H13B C22B 1_555 1_555
C23B N1B 1_555 1_555
H14B C23B 1_555 1_555
C24B N2B 1_555 1_555
H15B C24B 1_555 1_555
H16B C24B 1_555 1_555
C25B C24B 1_555 1_555
H17B C25B 1_555 1_555
H18B C25B 1_555 1_555
C26B C25B 1_555 1_555
H19B C26B 1_555 1_555
H20B C26B 1_555 1_555
C27B C26B 1_555 1_555
H21B C27B 1_555 1_555
H22B C27B 1_555 1_555
C28B C27B 1_555 1_555
H23B C28B 1_555 1_555
H24B C28B 1_555 1_555
C29B N3B 1_555 1_555
H25B C29B 1_555 1_555
C30B N4B 1_555 1_555
H26B C30B 1_555 1_555
C31B N3B 1_555 1_555
H27B C31B 1_555 1_555
Co1A O3B 1_555 1_555
Co1C O3 1_555 1_555
Co2_2 N4 1_555 1_555
Co2_3 O7B 1_555 1_555
Co2A O4B 1_555 1_555
Co2B_2 O5 1_555 1_555
Co2B_3 N4B 1_555 1_555
Co2C O4 1_555 1_555
O3A Co1B 1_555 1_555
O3C Co1 1_555 1_555
O4A Co2B 1_555 1_555
O4C Co2 1_555 1_555
O5_2 Co2B 1_555 1_555
O5B_2 Co2 1_555 1_555
O7_2 Co2B 1_555 1_555
O7B_2 Co2 1_555 1_555
N4_2 Co2 1_555 1_555
N4B_2 Co2B 1_555 1_555
Co2 O5 1_555 1_555
O7 Co2B_2 1_555 1_555
C6 C12 1_555 1_555
C11 C12 1_555 1_555
C19 C20 1_555 1_555
C22 C23 1_555 1_555
C30 C31 1_555 1_555
C15B C16B 1_555 1_555
C19B C20B 1_555 1_555
Co2B O5B 1_555 1_555
O5B Co2_3 1_555 1_555
C6B C12B 1_555 1_555
C11B C12B 1_555 1_555
C22B C23B 1_555 1_555
C30B C31B 1_555 1_555
Co2_3 O5_2 1_555 1_555
Co2B_2 O5B_2 1_555 1_555

#END
