
#######################################################################
#
#                 Cambridge Crystallographic Data Centre
#                                CCDC 
#
#######################################################################
#
# If this CIF has been generated from an entry in the Cambridge 
# Structural Database, then it will include bibliographic, chemical, 
# crystal, experimental, refinement or atomic coordinate data resulting 
# from the CCDC's data processing and validation procedures.
#
#######################################################################

data_ZIDRIP
_symmetry_cell_setting           orthorhombic
_symmetry_space_group_name_H-M   'P n a 21'
_symmetry_Int_Tables_number      33
_space_group_name_Hall           'P 2c -2n'
loop_
_symmetry_equiv_pos_site_id
_symmetry_equiv_pos_as_xyz
1 x,y,z
2 -x,-y,1/2+z
3 1/2+x,1/2-y,z
4 1/2-x,1/2+y,1/2+z
_cell_length_a                   23.308(3)
_cell_length_b                   17.621(3)
_cell_length_c                   18.768(3)
_cell_angle_alpha                90
_cell_angle_beta                 90
_cell_angle_gamma                90
_cell_volume                     7708.21
loop_
_atom_site_label
_atom_site_type_symbol
_atom_site_fract_x
_atom_site_fract_y
_atom_site_fract_z
Mn1 Mn 0.78156(7) 0.01004(9) 0.36369(10)
Mn2 Mn 0.75333(6) 0.02919(6) 0.55564(11)
Mn3 Mn 0.71994(6) -0.00702(8) 0.73915(9)
C1 C 0.6644(4) 0.1224(5) 0.6491(7)
C2 C 0.6184(4) 0.1833(5) 0.6480(6)
C3 C 0.6188(4) 0.2387(5) 0.5962(6)
H1 H 0.6476 0.2388 0.5619
C4 C 0.5738(5) 0.1804(5) 0.6964(7)
H2 H 0.5725 0.1421 0.7304
C5 C 0.5758(4) 0.2955(6) 0.5945(6)
H3 H 0.5777 0.3349 0.5616
C6 C 0.5318(4) 0.2913(5) 0.6414(6)
C7 C 0.5309(4) 0.2349(5) 0.6938(6)
C8 C 0.4782(4) 0.2443(6) 0.7385(7)
C9 C 0.4478(4) 0.3096(6) 0.7056(6)
C10 C 0.4788(4) 0.3392(5) 0.6511(6)
C11 C 0.4583(4) 0.3989(5) 0.6114(6)
H4 H 0.4784 0.4170 0.5722
C12 C 0.3957(4) 0.3412(5) 0.7251(6)
H5 H 0.3746 0.3208 0.7625
C13 C 0.4062(4) 0.4316(5) 0.6319(6)
H6 H 0.3922 0.4731 0.6067
C14 C 0.3754(4) 0.4039(5) 0.6878(5)
C15 C 0.3180(4) 0.4367(6) 0.7087(7)
C16 C 0.6886(4) 0.0738(6) 0.4099(7)
C17 C 0.6328(4) 0.1067(6) 0.4312(6)
C18 C 0.6004(4) 0.0743(6) 0.4824(6)
H7 H 0.6144 0.0315 0.5056
C19 C 0.6130(4) 0.1715(6) 0.3939(6)
H8 H 0.6346 0.1931 0.3575
C20 C 0.5453(4) 0.1031(5) 0.5025(6)
H9 H 0.5227 0.0793 0.5367
C21 C 0.5275(4) 0.1694(6) 0.4678(6)
C22 C 0.5605(5) 0.2014(7) 0.4137(6)
C23 C 0.5304(5) 0.2698(7) 0.3893(7)
C24 C 0.4755(5) 0.2732(6) 0.4312(6)
C25 C 0.4741(4) 0.2129(5) 0.4782(6)
C26 C 0.4295(4) 0.2078(5) 0.5256(6)
H10 H 0.4283 0.1695 0.5596
C27 C 0.4329(4) 0.3252(6) 0.4249(6)
H11 H 0.4337 0.3626 0.3900
C28 C 0.3863(4) 0.2609(6) 0.5213(6)
H12 H 0.3551 0.2569 0.5519
C29 C 0.3879(4) 0.3194(5) 0.4735(5)
C30 C 0.3397(4) 0.3768(6) 0.4697(7)
C31 C 0.8374(5) -0.0895(6) 0.4743(9)
C32 C 0.8884(4) -0.1411(6) 0.4824(7)
C33 C 0.9099(4) -0.1585(6) 0.5468(8)
H13 H 0.8935 -0.1382 0.5877
C34 C 0.9126(5) -0.1755(7) 0.4221(7)
H14 H 0.8965 -0.1669 0.3774
C35 C 0.9603(6) -0.2222(7) 0.4285(6)
H15 H 0.9769 -0.2436 0.3881
C36 C 0.9824(5) -0.2365(7) 0.4938(7)
C37 C 0.9575(4) -0.2078(6) 0.5523(8)
C38 C 0.9872(7) -0.2365(8) 0.6150(7)
C39 C 1.0345(5) -0.2836(7) 0.5886(7)
C40 C 1.0303(5) -0.2818(6) 0.5147(8)
C41 C 1.0697(5) -0.3238(6) 0.4764(6)
H16 H 1.0668 -0.3266 0.4270
C42 C 1.1141(4) -0.3625(6) 0.5119(7)
H17 H 1.1423 -0.3877 0.4859
C43 C 1.0767(4) -0.3219(6) 0.6259(7)
H18 H 1.0787 -0.3201 0.6754
C44 C 1.1157(5) -0.3630(6) 0.5859(7)
C45 C 1.1627(5) -0.4103(6) 0.6271(9)
C46 C 0.8716(9) 0.0605(10) 0.2486(11)
C47 C 0.9779(8) 0.0596(10) 0.2179(13)
H19 H 0.9786 0.1141 0.2186
H20 H 0.9813 0.0420 0.1697
H21 H 1.0093 0.0403 0.2456
C48 C 0.9197(10) -0.0520(10) 0.2598(14)
H22 H 0.8837 -0.0653 0.2812
H23 H 0.9506 -0.0675 0.2904
H24 H 0.9233 -0.0770 0.2146
C49 C 0.8807(9) 0.1473(10) 0.2389(14)
H25 H 0.8442 0.1723 0.2374
H26 H 0.9009 0.1565 0.1951
H27 H 0.9027 0.1667 0.2781
C50 C 0.7345(7) -0.1337(10) 0.2897(10)
C51 C 0.7648(9) -0.1126(10) 0.1705(13)
H28 H 0.7639 -0.0610 0.1870
H29 H 0.7417 -0.1172 0.1284
H30 H 0.8036 -0.1267 0.1598
C52 C 0.7451(9) -0.2431(9) 0.2052(15)
H31 H 0.7299 -0.2755 0.2418
H32 H 0.7845 -0.2560 0.1966
H33 H 0.7234 -0.2498 0.1622
C53 C 0.7168(10) -0.1901(12) 0.3483(13)
H34 H 0.7122 -0.1634 0.3926
H35 H 0.7461 -0.2280 0.3535
H36 H 0.6813 -0.2139 0.3355
C54 C 0.7757(7) -0.1183(9) 0.8450(9)
C55 C 0.7628(8) -0.2028(11) 0.9530(8)
H37 H 0.7931 -0.1763 0.9772
H38 H 0.7720 -0.2558 0.9505
H39 H 0.7275 -0.1961 0.9786
C56 C 0.7083(11) -0.2099(13) 0.8384(12)
H40 H 0.7056 -0.1869 0.7921
H41 H 0.6727 -0.2033 0.8633
H42 H 0.7163 -0.2630 0.8333
C57 C 0.8191(12) -0.0805(14) 0.8953(14)
H43 H 0.8358 -0.0372 0.8722
H44 H 0.8488 -0.1161 0.9073
H45 H 0.7999 -0.0645 0.9380
C58 C 0.6572(9) 0.0494(9) 0.8747(12)
C59 C 0.5760(8) 0.0831(9) 0.9565(13)
H46 H 0.5877 0.1346 0.9485
H47 H 0.5801 0.0710 1.0061
H48 H 0.5366 0.0771 0.9427
C60 C 0.5986(10) -0.0503(8) 0.9166(13)
H49 H 0.6234 -0.0779 0.8851
H50 H 0.5594 -0.0578 0.9024
H51 H 0.6037 -0.0683 0.9645
C61 C 0.6669(8) 0.1330(9) 0.8724(11)
H52 H 0.7001 0.1437 0.8438
H53 H 0.6730 0.1516 0.9199
H54 H 0.6340 0.1575 0.8520
O1 O 0.6659(3) 0.0824(4) 0.7029(5)
O2 O 0.6957(3) 0.1171(4) 0.5961(4)
O3 O 0.2933(2) 0.4797(4) 0.6626(4)
O4 O 0.2965(3) 0.4221(4) 0.7662(5)
O5 O 0.4643(3) 0.2067(5) 0.7875(4)
O6 O 0.7112(3) 0.0221(4) 0.4474(4)
O7 O 0.7116(3) 0.0957(5) 0.3521(5)
O8 O 0.3385(3) 0.4167(5) 0.4144(4)
O9 O 0.3052(3) 0.3784(4) 0.5215(4)
O10 O 0.5478(4) 0.3144(6) 0.3442(5)
O11 O 0.8216(4) -0.0818(5) 0.4107(6)
O12 O 0.8182(3) -0.0545(4) 0.5260(4)
O13 O 1.1950(3) -0.4434(4) 0.5844(5)
O14 O 1.1649(4) -0.4106(5) 0.6914(6)
O15 O 0.9734(4) -0.2282(7) 0.6791(6)
O16 O 0.8299(5) 0.0285(8) 0.2707(7)
O17 O 0.7321(4) -0.0665(5) 0.2979(6)
O18 O 0.7641(4) -0.0997(5) 0.7863(5)
O19 O 0.6795(4) 0.0007(6) 0.8399(6)
N1 N 0.9223(7) 0.0320(10) 0.2491(9)
N2 N 0.7414(7) -0.1645(9) 0.2281(11)
N3 N 0.7565(5) -0.1722(7) 0.8805(7)
N4 N 0.6126(7) 0.0312(8) 0.9134(10)
Mn1B Mn 0.28156(7) 0.48996(9) 0.36369(10)
Mn2B Mn 0.25333(6) 0.47081(6) 0.55564(11)
Mn2B_2 Mn 1.25333(6) -0.52919(6) 0.55564(11)
Mn3B Mn 0.21994(6) 0.50702(8) 0.73915(9)
Mn3B_2 Mn 1.21994(6) -0.49298(8) 0.73915(9)
O3B O 0.7933(2) 0.0203(4) 0.6626(4)
O4B O 0.7965(3) 0.0779(4) 0.7662(5)
O8B O 0.8385(3) 0.0833(5) 0.4144(4)
O9B O 0.8052(3) 0.1216(4) 0.5215(4)
O13B O 0.6950(3) -0.0566(4) 0.5844(5)
O14B O 0.6649(4) -0.0894(5) 0.6914(6)
C62 C 0.9316(13) 0.4549(19) 0.6703(16)
C63 C 0.9455(14) 0.4921(19) 0.8027(16)
H55 H 0.9105 0.4654 0.8121
H56 H 0.9405 0.5450 0.8132
H57 H 0.9756 0.4718 0.8319
C64 C 1.0163(14) 0.5217(15) 0.707(2)
H58 H 1.0151 0.5356 0.6574
H59 H 1.0478 0.4876 0.7147
H60 H 1.0214 0.5664 0.7354
C65 C 0.8796(10) 0.4211(16) 0.6997(17)
H61 H 0.8575 0.3989 0.6620
H62 H 0.8573 0.4595 0.7231
H63 H 0.8899 0.3825 0.7335
O20 O 0.9468(9) 0.4648(16) 0.6114(14)
N5 N 0.9609(13) 0.4831(14) 0.7271(17)
C66 C 0.6145(14) -0.4078(18) 0.4765(16)
C67 C 0.5430(15) -0.4835(18) 0.4066(16)
H64 H 0.5493 -0.4468 0.3696
H65 H 0.5032 -0.4838 0.4194
H66 H 0.5539 -0.5329 0.3898
C68 C 0.5779(8) -0.5164(10) 0.5263(13)
H67 H 0.6103 -0.5058 0.5563
H68 H 0.5809 -0.5672 0.5082
H69 H 0.5432 -0.5114 0.5533
C69 C 0.6607(9) -0.4054(15) 0.5314(18)
H70 H 0.6857 -0.3633 0.5220
H71 H 0.6823 -0.4518 0.5297
H72 H 0.6438 -0.3998 0.5777
O21 O 0.6308(17) -0.3753(17) 0.4216(16)
N6 N 0.5771(12) -0.4640(14) 0.4680(14)
C70 C 0.7137(13) 0.2001(16) 1.0912(17)
C71 C 0.683(2) 0.2598(19) 1.211(2)
H73 H 0.7073 0.3016 1.1980
H74 H 0.6962 0.2384 1.2551
H75 H 0.6443 0.2773 1.2166
C72 C 0.6495(16) 0.1319(16) 1.175(2)
H76 H 0.6742 0.0932 1.1935
H77 H 0.6302 0.1130 1.1331
H78 H 0.6216 0.1458 1.2101
C73 C 0.7026(9) 0.1279(17) 1.0504(14)
H79 H 0.7231 0.1293 1.0060
H80 H 0.6623 0.1232 1.0411
H81 H 0.7154 0.0852 1.0779
O22 O 0.7384(11) 0.2567(13) 1.066(2)
N7 N 0.6852(13) 0.2015(15) 1.1548(14)
loop_
_geom_bond_atom_site_label_1
_geom_bond_atom_site_label_2
_geom_bond_site_symmetry_1
_geom_bond_site_symmetry_2
Mn1 O6 1_555 1_555
Mn2 O2 1_555 1_555
Mn3 O1 1_555 1_555
C1 C2 1_555 1_555
C2 C3 1_555 1_555
C3 H1 1_555 1_555
C4 C2 1_555 1_555
H2 C4 1_555 1_555
C5 C3 1_555 1_555
H3 C5 1_555 1_555
C6 C5 1_555 1_555
C7 C4 1_555 1_555
C8 C7 1_555 1_555
C9 C8 1_555 1_555
C10 C6 1_555 1_555
C11 C10 1_555 1_555
H4 C11 1_555 1_555
C12 C9 1_555 1_555
H5 C12 1_555 1_555
C13 C11 1_555 1_555
H6 C13 1_555 1_555
C14 C12 1_555 1_555
C15 C14 1_555 1_555
C16 C17 1_555 1_555
C17 C18 1_555 1_555
C18 H7 1_555 1_555
C19 C17 1_555 1_555
H8 C19 1_555 1_555
C20 C18 1_555 1_555
H9 C20 1_555 1_555
C21 C20 1_555 1_555
C22 C19 1_555 1_555
C23 C22 1_555 1_555
C24 C23 1_555 1_555
C25 C21 1_555 1_555
C26 C25 1_555 1_555
H10 C26 1_555 1_555
C27 C24 1_555 1_555
H11 C27 1_555 1_555
C28 C26 1_555 1_555
H12 C28 1_555 1_555
C29 C27 1_555 1_555
C30 C29 1_555 1_555
C31 C32 1_555 1_555
C32 C33 1_555 1_555
C33 H13 1_555 1_555
C34 C32 1_555 1_555
H14 C34 1_555 1_555
C35 C34 1_555 1_555
H15 C35 1_555 1_555
C36 C35 1_555 1_555
C37 C33 1_555 1_555
C38 C37 1_555 1_555
C39 C38 1_555 1_555
C40 C36 1_555 1_555
C41 C40 1_555 1_555
H16 C41 1_555 1_555
C42 C41 1_555 1_555
H17 C42 1_555 1_555
C43 C39 1_555 1_555
H18 C43 1_555 1_555
C44 C42 1_555 1_555
C45 C44 1_555 1_555
C46 C49 1_555 1_555
C47 H19 1_555 1_555
H20 C47 1_555 1_555
H21 C47 1_555 1_555
C48 H22 1_555 1_555
H23 C48 1_555 1_555
H24 C48 1_555 1_555
C49 H25 1_555 1_555
H26 C49 1_555 1_555
H27 C49 1_555 1_555
C50 C53 1_555 1_555
C51 H28 1_555 1_555
H29 C51 1_555 1_555
H30 C51 1_555 1_555
C52 H31 1_555 1_555
H32 C52 1_555 1_555
H33 C52 1_555 1_555
C53 H34 1_555 1_555
H35 C53 1_555 1_555
H36 C53 1_555 1_555
C54 C57 1_555 1_555
C55 H37 1_555 1_555
H38 C55 1_555 1_555
H39 C55 1_555 1_555
C56 H40 1_555 1_555
H41 C56 1_555 1_555
H42 C56 1_555 1_555
C57 H43 1_555 1_555
H44 C57 1_555 1_555
H45 C57 1_555 1_555
C58 C61 1_555 1_555
C59 H46 1_555 1_555
H47 C59 1_555 1_555
H48 C59 1_555 1_555
C60 H49 1_555 1_555
H50 C60 1_555 1_555
H51 C60 1_555 1_555
C61 H52 1_555 1_555
H53 C61 1_555 1_555
H54 C61 1_555 1_555
O1 C1 1_555 1_555
O2 C1 1_555 1_555
O3 C15 1_555 1_555
O4 C15 1_555 1_555
O5 C8 1_555 1_555
O6 Mn2 1_555 1_555
O7 Mn1 1_555 1_555
O8 C30 1_555 1_555
O9 C30 1_555 1_555
O10 C23 1_555 1_555
O11 Mn1 1_555 1_555
O12 Mn2 1_555 1_555
O13 C45 1_555 1_555
O14 C45 1_555 1_555
O15 C38 1_555 1_555
O16 Mn1 1_555 1_555
O17 Mn1 1_555 1_555
O18 Mn3 1_555 1_555
O19 Mn3 1_555 1_555
N1 C46 1_555 1_555
N2 C50 1_555 1_555
N3 C54 1_555 1_555
N4 C58 1_555 1_555
C62 C65 1_555 1_555
C63 H55 1_555 1_555
H56 C63 1_555 1_555
H57 C63 1_555 1_555
C64 H58 1_555 1_555
H59 C64 1_555 1_555
H60 C64 1_555 1_555
C65 H61 1_555 1_555
H62 C65 1_555 1_555
H63 C65 1_555 1_555
O20 C62 1_555 1_555
N5 C62 1_555 1_555
C66 C69 1_555 1_555
C67 H64 1_555 1_555
H65 C67 1_555 1_555
H66 C67 1_555 1_555
C68 H67 1_555 1_555
H68 C68 1_555 1_555
H69 C68 1_555 1_555
C69 H70 1_555 1_555
H71 C69 1_555 1_555
H72 C69 1_555 1_555
O21 C66 1_555 1_555
N6 C66 1_555 1_555
C70 C73 1_555 1_555
C71 H73 1_555 1_555
H74 C71 1_555 1_555
H75 C71 1_555 1_555
C72 H76 1_555 1_555
H77 C72 1_555 1_555
H78 C72 1_555 1_555
C73 H79 1_555 1_555
H80 C73 1_555 1_555
H81 C73 1_555 1_555
O22 C70 1_555 1_555
N7 C70 1_555 1_555
Mn1B O8 1_555 1_555
Mn2B O3 1_555 1_555
Mn2B_2 O13 1_555 1_555
Mn3B O3 1_555 1_555
Mn3B_2 O14 1_555 1_555
O3B Mn2 1_555 1_555
O4B Mn3 1_555 1_555
O8B Mn1 1_555 1_555
O9B Mn2 1_555 1_555
O13B Mn2 1_555 1_555
O14B Mn3 1_555 1_555
Mn3 O3B 1_555 1_555
C6 C7 1_555 1_555
C9 C10 1_555 1_555
C13 C14 1_555 1_555
C16 O6 1_555 1_555
C16 O7 1_555 1_555
C21 C22 1_555 1_555
C24 C25 1_555 1_555
C28 C29 1_555 1_555
C31 O11 1_555 1_555
C31 O12 1_555 1_555
C36 C37 1_555 1_555
C39 C40 1_555 1_555
C43 C44 1_555 1_555
C46 O16 1_555 1_555
C47 N1 1_555 1_555
C48 N1 1_555 1_555
C50 O17 1_555 1_555
C51 N2 1_555 1_555
C52 N2 1_555 1_555
C54 O18 1_555 1_555
C55 N3 1_555 1_555
C56 N3 1_555 1_555
C58 O19 1_555 1_555
C59 N4 1_555 1_555
C60 N4 1_555 1_555
O4 Mn3B 1_555 1_555
O9 Mn2B 1_555 1_555
C63 N5 1_555 1_555
C64 N5 1_555 1_555
C67 N6 1_555 1_555
C68 N6 1_555 1_555
C71 N7 1_555 1_555
C72 N7 1_555 1_555

#END
