
#######################################################################
#
#                 Cambridge Crystallographic Data Centre
#                                CCDC 
#
#######################################################################
#
# If this CIF has been generated from an entry in the Cambridge 
# Structural Database, then it will include bibliographic, chemical, 
# crystal, experimental, refinement or atomic coordinate data resulting 
# from the CCDC's data processing and validation procedures.
#
#######################################################################

data_ZIDREL
_symmetry_cell_setting           orthorhombic
_symmetry_space_group_name_H-M   'F d d 2'
_symmetry_Int_Tables_number      43
_space_group_name_Hall           'F 2 -2d'
loop_
_symmetry_equiv_pos_site_id
_symmetry_equiv_pos_as_xyz
1 x,y,z
2 -x,-y,z
3 1/4+x,1/4-y,1/4+z
4 1/4-x,1/4+y,1/4+z
5 x,1/2+y,1/2+z
6 -x,1/2-y,1/2+z
7 1/4+x,3/4-y,3/4+z
8 1/4-x,3/4+y,3/4+z
9 1/2+x,y,1/2+z
10 1/2-x,-y,1/2+z
11 3/4+x,1/4-y,3/4+z
12 3/4-x,1/4+y,3/4+z
13 1/2+x,1/2+y,z
14 1/2-x,1/2-y,z
15 3/4+x,3/4-y,1/4+z
16 3/4-x,3/4+y,1/4+z
_cell_length_a                   31.314(5)
_cell_length_b                   44.687(6)
_cell_length_c                   5.6160(8)
_cell_angle_alpha                90
_cell_angle_beta                 90
_cell_angle_gamma                90
_cell_volume                     7858.63
loop_
_atom_site_label
_atom_site_type_symbol
_atom_site_fract_x
_atom_site_fract_y
_atom_site_fract_z
Zn1 Zn 0.0000 0.0000 0.92985(17)
N1 N -0.00737(12) 0.03695(8) 0.7242(8)
N2 N -0.04880(12) 0.11202(8) 0.1068(7)
N3 N -0.15083(14) 0.12125(11) -0.5707(11)
O1 O 0.20198(10) 0.26131(7) 0.3828(7)
O2 O 0.16009(13) 0.25714(11) 0.0671(9)
O3 O 0.08936(10) 0.27274(6) 0.3123(7)
C1 C 0.01324(16) 0.06216(10) 0.7746(10)
H1 H 0.0301 0.0628 0.9110
C2 C 0.01087(15) 0.08726(11) 0.6350(10)
H2 H 0.0259 0.1044 0.6780
C3 C -0.01392(13) 0.08728(10) 0.4292(12)
C4 C -0.03547(16) 0.06109(10) 0.3822(11)
H3 H -0.0529 0.0598 0.2486
C5 C -0.03141(18) 0.03665(12) 0.5315(11)
H4 H -0.0463 0.0193 0.4944
C6 C -0.01852(16) 0.11392(10) 0.2750(10)
C7 C 0.00693(15) 0.13914(10) 0.3026(10)
H5 H 0.0286 0.1392 0.4161
C8 C 0.00024(14) 0.16408(10) 0.1621(10)
C9 C -0.03166(14) 0.16190(10) -0.0110(10)
H6 H -0.0371 0.1781 -0.1108
C10 C -0.05521(14) 0.13592(10) -0.0354(10)
C11 C -0.12950(18) 0.14671(13) -0.5575(13)
H7 H -0.1360 0.1614 -0.6693
C12 C -0.09805(16) 0.15339(12) -0.3893(10)
H8 H -0.0839 0.1717 -0.3899
C13 C -0.08878(16) 0.13168(11) -0.2217(10)
C14 C -0.11065(19) 0.10499(13) -0.2358(12)
H9 H -0.1049 0.0897 -0.1282
C15 C -0.1410(2) 0.10103(15) -0.4091(14)
H10 H -0.1555 0.0829 -0.4128
C16 C 0.02536(15) 0.19201(10) 0.1943(11)
C17 C 0.0567(2) 0.19442(13) 0.3582(15)
H11 H 0.0632 0.1776 0.4485
C18 C 0.0798(2) 0.22038(13) 0.4009(16)
H12 H 0.1011 0.2206 0.5161
C19 C 0.07125(15) 0.24513(11) 0.2753(10)
C20 C 0.0408(2) 0.24312(11) 0.1049(11)
H13 H 0.0349 0.2598 0.0114
C21 C 0.01838(19) 0.21712(12) 0.0666(12)
H14 H -0.0024 0.2168 -0.0519
C22 C 0.12959(14) 0.27381(11) 0.4328(13)
H15 H 0.1279 0.2617 0.5757
H16 H 0.1353 0.2943 0.4812
C23 C 0.1672(2) 0.26255(13) 0.2777(13)
N1A N 0.00737(12) -0.03695(8) 0.7242(8)
N2A N 0.04880(12) -0.11202(8) 0.1068(7)
N3A N 0.15083(14) -0.12125(11) -0.5707(11)
O1A O -0.20198(10) -0.26131(7) 0.3828(7)
O2A O -0.16009(13) -0.25714(11) 0.0671(9)
O3A O -0.08936(10) -0.27274(6) 0.3123(7)
C1A C -0.01324(16) -0.06216(10) 0.7746(10)
H1A H -0.0301 -0.0628 0.9110
C2A C -0.01087(15) -0.08726(11) 0.6350(10)
H2A H -0.0259 -0.1044 0.6780
C3A C 0.01392(13) -0.08728(10) 0.4292(12)
C4A C 0.03547(16) -0.06109(10) 0.3822(11)
H3A H 0.0529 -0.0598 0.2486
C5A C 0.03141(18) -0.03665(12) 0.5315(11)
H4A H 0.0463 -0.0193 0.4944
C6A C 0.01852(16) -0.11392(10) 0.2750(10)
C7A C -0.00693(15) -0.13914(10) 0.3026(10)
H5A H -0.0286 -0.1392 0.4161
C8A C -0.00024(14) -0.16408(10) 0.1621(10)
C9A C 0.03166(14) -0.16190(10) -0.0110(10)
H6A H 0.0371 -0.1781 -0.1108
C10A C 0.05521(14) -0.13592(10) -0.0354(10)
C11A C 0.12950(18) -0.14671(13) -0.5575(13)
H7A H 0.1360 -0.1614 -0.6693
C12A C 0.09805(16) -0.15339(12) -0.3893(10)
H8A H 0.0839 -0.1717 -0.3899
C13A C 0.08878(16) -0.13168(11) -0.2217(10)
C14A C 0.11065(19) -0.10499(13) -0.2358(12)
H9A H 0.1049 -0.0897 -0.1282
C15A C 0.1410(2) -0.10103(15) -0.4091(14)
H10A H 0.1555 -0.0829 -0.4128
C16A C -0.02536(15) -0.19201(10) 0.1943(11)
C17A C -0.0567(2) -0.19442(13) 0.3582(15)
H11A H -0.0632 -0.1776 0.4485
C18A C -0.0798(2) -0.22038(13) 0.4009(16)
H12A H -0.1011 -0.2206 0.5161
C19A C -0.07125(15) -0.24513(11) 0.2753(10)
C20A C -0.0408(2) -0.24312(11) 0.1049(11)
H13A H -0.0349 -0.2598 0.0114
C21A C -0.01838(19) -0.21712(12) 0.0666(12)
H14A H 0.0024 -0.2168 -0.0519
C22A C -0.12959(14) -0.27381(11) 0.4328(13)
H15A H -0.1279 -0.2617 0.5757
H16A H -0.1353 -0.2943 0.4812
C23A C -0.1672(2) -0.26255(13) 0.2777(13)
Zn1B Zn 0.2500 0.2500 0.17985(17)
Zn1N Zn -0.2500 -0.2500 0.17985(17)
O1G O 0.04802(10) 0.01131(7) 1.1328(7)
O1J O -0.04802(10) -0.01131(7) 1.1328(7)
loop_
_geom_bond_atom_site_label_1
_geom_bond_atom_site_label_2
_geom_bond_site_symmetry_1
_geom_bond_site_symmetry_2
Zn1 N1 1_555 1_555
N1 C1 1_555 1_555
N2 C6 1_555 1_555
N3 C11 1_555 1_555
O1 C23 1_555 1_555
O2 C23 1_555 1_555
O3 C19 1_555 1_555
C1 H1 1_555 1_555
C2 C1 1_555 1_555
H2 C2 1_555 1_555
C3 C2 1_555 1_555
C4 C3 1_555 1_555
H3 C4 1_555 1_555
C5 N1 1_555 1_555
H4 C5 1_555 1_555
C6 C3 1_555 1_555
C7 C6 1_555 1_555
H5 C7 1_555 1_555
C8 C7 1_555 1_555
C9 C8 1_555 1_555
H6 C9 1_555 1_555
C10 N2 1_555 1_555
C11 H7 1_555 1_555
C12 C11 1_555 1_555
H8 C12 1_555 1_555
C13 C10 1_555 1_555
C14 C13 1_555 1_555
H9 C14 1_555 1_555
C15 N3 1_555 1_555
H10 C15 1_555 1_555
C16 C8 1_555 1_555
C17 C16 1_555 1_555
H11 C17 1_555 1_555
C18 C17 1_555 1_555
H12 C18 1_555 1_555
C19 C18 1_555 1_555
C20 C19 1_555 1_555
H13 C20 1_555 1_555
C21 C16 1_555 1_555
H14 C21 1_555 1_555
C22 O3 1_555 1_555
H15 C22 1_555 1_555
H16 C22 1_555 1_555
C23 C22 1_555 1_555
N1A Zn1 1_555 1_555
N2A C6A 1_555 1_555
N3A C11A 1_555 1_555
O1A C23A 1_555 1_555
O2A C23A 1_555 1_555
O3A C19A 1_555 1_555
C1A N1A 1_555 1_555
H1A C1A 1_555 1_555
C2A C1A 1_555 1_555
H2A C2A 1_555 1_555
C3A C2A 1_555 1_555
C4A C3A 1_555 1_555
H3A C4A 1_555 1_555
C5A N1A 1_555 1_555
H4A C5A 1_555 1_555
C6A C3A 1_555 1_555
C7A C6A 1_555 1_555
H5A C7A 1_555 1_555
C8A C7A 1_555 1_555
C9A C8A 1_555 1_555
H6A C9A 1_555 1_555
C10A N2A 1_555 1_555
C11A H7A 1_555 1_555
C12A C11A 1_555 1_555
H8A C12A 1_555 1_555
C13A C10A 1_555 1_555
C14A C13A 1_555 1_555
H9A C14A 1_555 1_555
C15A N3A 1_555 1_555
H10A C15A 1_555 1_555
C16A C8A 1_555 1_555
C17A C16A 1_555 1_555
H11A C17A 1_555 1_555
C18A C17A 1_555 1_555
H12A C18A 1_555 1_555
C19A C18A 1_555 1_555
C20A C19A 1_555 1_555
H13A C20A 1_555 1_555
C21A C16A 1_555 1_555
H14A C21A 1_555 1_555
C22A O3A 1_555 1_555
H15A C22A 1_555 1_555
H16A C22A 1_555 1_555
C23A C22A 1_555 1_555
Zn1B O1 1_555 1_555
Zn1N O1A 1_555 1_555
O1G Zn1 1_555 1_555
O1J Zn1 1_555 1_555
C4 C5 1_555 1_555
C9 C10 1_555 1_555
C12 C13 1_555 1_555
C14 C15 1_555 1_555
C20 C21 1_555 1_555
C4A C5A 1_555 1_555
C9A C10A 1_555 1_555
C12A C13A 1_555 1_555
C14A C15A 1_555 1_555
C20A C21A 1_555 1_555

#END
