
#######################################################################
#
#                 Cambridge Crystallographic Data Centre
#                                CCDC 
#
#######################################################################
#
# If this CIF has been generated from an entry in the Cambridge 
# Structural Database, then it will include bibliographic, chemical, 
# crystal, experimental, refinement or atomic coordinate data resulting 
# from the CCDC's data processing and validation procedures.
#
#######################################################################

data_ZIDROV
_symmetry_cell_setting           monoclinic
_symmetry_space_group_name_H-M   'C 2/c'
_symmetry_Int_Tables_number      15
_space_group_name_Hall           '-C 2yn'
loop_
_symmetry_equiv_pos_site_id
_symmetry_equiv_pos_as_xyz
1 x,y,z
2 -x,y,1/2-z
3 1/2+x,1/2+y,z
4 1/2-x,1/2+y,1/2-z
5 -x,-y,-z
6 x,-y,1/2+z
7 1/2-x,1/2-y,-z
8 1/2+x,1/2-y,1/2+z
_cell_length_a                   45.118(16)
_cell_length_b                   16.866(6)
_cell_length_c                   24.124(9)
_cell_angle_alpha                90
_cell_angle_beta                 119.215(7)
_cell_angle_gamma                90
_cell_volume                     16022.2
loop_
_atom_site_label
_atom_site_type_symbol
_atom_site_fract_x
_atom_site_fract_y
_atom_site_fract_z
W1 W 0.210273(18) -0.01808(4) 1.11791(3)
W2 W 0.187620(17) -0.11024(4) 0.96069(3)
W3 W 0.279370(17) -0.09281(4) 1.08856(3)
W4 W 0.317137(16) 0.08881(4) 1.12753(3)
W5 W 0.247718(17) 0.16308(4) 1.15711(3)
W6 W 0.166583(17) 0.14654(4) 1.04065(3)
W7 W 0.144920(17) 0.05751(4) 0.88422(3)
W8 W 0.207218(17) -0.00723(4) 0.85990(3)
W9 W 0.297512(17) 0.01052(4) 0.98664(3)
Ge1 Ge 0.23029(4) 0.08535(9) 1.00621(8)
Fe1 Fe 0.21988(6) 0.28142(13) 1.01318(11)
Fe2 Fe 0.20116(6) 0.20615(14) 0.87596(11)
O1 O 0.2039(3) -0.0870(7) 1.1634(6)
O2 O 0.2527(3) -0.0545(7) 1.1260(5)
O3 O 0.1714(3) 0.0479(6) 1.0891(5)
O4 O 0.2176(3) 0.0908(6) 1.0638(5)
O5 O 0.2375(3) 0.0587(7) 1.1797(5)
O6 O 0.1904(3) -0.0691(6) 1.0372(5)
O7 O 0.1751(3) -0.2068(7) 0.9614(6)
O8 O 0.1462(3) -0.0577(7) 0.9117(6)
O9 O 0.1979(3) -0.1119(6) 0.8932(5)
O10 O 0.2010(2) 0.0226(6) 0.9466(5)
O11 O 0.2369(3) -0.1250(6) 1.0174(5)
O12 O 0.2940(3) -0.1822(7) 1.1274(6)
O13 O 0.2987(3) -0.0911(6) 1.0338(5)
O14 O 0.2696(3) 0.0357(6) 1.0421(5)
O15 O 0.3150(3) -0.0262(7) 1.1474(6)
O16 O 0.3566(2) 0.1081(7) 1.1916(5)
O17 O 0.3054(3) 0.1837(6) 1.0830(5)
O18 O 0.3316(3) 0.0464(6) 1.0694(5)
O19 O 0.2873(3) 0.1116(7) 1.1621(6)
O20 O 0.2661(3) 0.2071(7) 1.2319(5)
O21 O 0.2517(3) 0.2407(6) 1.1076(5)
O22 O 0.1999(3) 0.1877(6) 1.1256(5)
O23 O 0.1292(3) 0.1796(7) 1.0380(6)
O24 O 0.1778(3) 0.2270(7) 1.0053(5)
O25 O 0.1482(3) 0.0839(6) 0.9657(5)
O26 O 0.1012(3) 0.0615(7) 0.8349(5)
O27 O 0.1593(3) 0.1535(6) 0.8770(5)
O28 O 0.1582(3) 0.0076(7) 0.8276(5)
O29 O 0.2066(3) -0.0474(7) 0.7920(5)
O30 O 0.2135(3) 0.0948(7) 0.8527(5)
O31 O 0.2537(3) -0.0274(6) 0.9218(5)
O32 O 0.3229(3) -0.0249(7) 0.9565(6)
O33 O 0.2887(3) 0.1105(7) 0.9586(5)
O34 O 0.2330(3) 0.1778(6) 0.9776(5)
N1 N 0.1691(4) 0.2396(9) 0.7775(6)
H1 H 0.1478 0.2458 0.7713
H2 H 0.1761 0.2875 0.7720
N2 N 0.1348(7) 0.0839(19) 0.6535(15)
H3 H 0.1469 0.0949 0.6357
H4 H 0.1197 0.0472 0.6379
C1 C 0.1671(6) 0.1863(15) 0.7264(12)
H5 H 0.1624 0.2173 0.6892
H6 H 0.1886 0.1595 0.7409
C2 C 0.1401(6) 0.1278(15) 0.7102(13)
H7 H 0.1192 0.1543 0.7019
H8 H 0.1464 0.0914 0.7454
W1F W 0.289727(18) 0.51808(4) 0.88209(3)
W2F W 0.312380(17) 0.61024(4) 1.03931(3)
W3F W 0.220630(17) 0.59281(4) 0.91144(3)
W4F W 0.182863(16) 0.41119(4) 0.87247(3)
W5F W 0.252282(17) 0.33692(4) 0.84289(3)
W6F W 0.333417(17) 0.35346(4) 0.95935(3)
W7F W 0.355080(17) 0.44249(4) 1.11578(3)
W8F W 0.292782(17) 0.50723(4) 1.14010(3)
W9F W 0.202488(17) 0.48948(4) 1.01336(3)
Ge1F Ge 0.26971(4) 0.41465(9) 0.99379(8)
Fe1F Fe 0.28012(6) 0.21858(13) 0.98682(11)
Fe2F Fe 0.29884(6) 0.29385(14) 1.12404(11)
O1F O 0.2961(3) 0.5870(7) 0.8366(6)
O2F O 0.2473(3) 0.5545(7) 0.8740(5)
O3F O 0.3286(3) 0.4521(6) 0.9109(5)
O4F O 0.2824(3) 0.4092(6) 0.9362(5)
O5F O 0.2625(3) 0.4413(7) 0.8203(5)
O6F O 0.3096(3) 0.5691(6) 0.9628(5)
O7F O 0.3249(3) 0.7068(7) 1.0386(6)
O8F O 0.3538(3) 0.5577(7) 1.0883(6)
O9F O 0.3021(3) 0.6119(6) 1.1068(5)
O10F O 0.2990(2) 0.4774(6) 1.0534(5)
O11F O 0.2631(3) 0.6250(6) 0.9826(5)
O12F O 0.2060(3) 0.6822(7) 0.8726(6)
O13F O 0.2013(3) 0.5911(6) 0.9662(5)
O14F O 0.2304(3) 0.4643(6) 0.9579(5)
O15F O 0.1850(3) 0.5262(7) 0.8526(6)
O16F O 0.1434(2) 0.3919(7) 0.8084(5)
O17F O 0.1946(3) 0.3163(6) 0.9170(5)
O18F O 0.1684(3) 0.4536(6) 0.9306(5)
O19F O 0.2127(3) 0.3884(7) 0.8379(6)
O20F O 0.2339(3) 0.2929(7) 0.7681(5)
O21F O 0.2483(3) 0.2593(6) 0.8924(5)
O22F O 0.3001(3) 0.3123(6) 0.8744(5)
O23F O 0.3708(3) 0.3204(7) 0.9620(6)
O24F O 0.3222(3) 0.2730(7) 0.9947(5)
O25F O 0.3518(3) 0.4161(6) 1.0343(5)
O26F O 0.3988(3) 0.4385(7) 1.1651(5)
O27F O 0.3407(3) 0.3465(6) 1.1230(5)
O28F O 0.3418(3) 0.4924(7) 1.1724(5)
O29F O 0.2934(3) 0.5474(7) 1.2080(5)
O30F O 0.2865(3) 0.4052(7) 1.1473(5)
O31F O 0.2463(3) 0.5274(6) 1.0782(5)
O32F O 0.1771(3) 0.5249(7) 1.0435(6)
O33F O 0.2113(3) 0.3895(7) 1.0414(5)
O34F O 0.2670(3) 0.3222(6) 1.0224(5)
N1F N 0.3309(4) 0.2604(9) 1.2225(6)
H1F H 0.3522 0.2542 1.2287
H2F H 0.3239 0.2125 1.2280
N2F N 0.3652(7) 0.4161(19) 1.3465(15)
H3F H 0.3531 0.4051 1.3643
H4F H 0.3803 0.4528 1.3621
C1F C 0.3329(6) 0.3137(15) 1.2736(12)
H5F H 0.3376 0.2827 1.3108
H6F H 0.3114 0.3405 1.2591
C2F C 0.3599(6) 0.3722(15) 1.2898(13)
H7F H 0.3808 0.3457 1.2981
H8F H 0.3536 0.4086 1.2546
W10 W 0.033195(19) 0.87460(4) 1.07064(4)
W11 W 0.084786(18) 0.78001(4) 1.00512(4)
W12 W -0.00611(2) 0.83152(5) 0.89631(4)
W13 W -0.067095(17) 0.72093(5) 0.90388(3)
W14 W -0.019876(18) 0.63940(4) 0.84642(3)
W15 W 0.071492(17) 0.58809(4) 0.95769(3)
W16 W 0.105160(17) 0.62897(4) 1.11277(3)
W17 W 0.053305(18) 0.72122(4) 1.17616(3)
W18 W -0.028043(17) 0.76517(4) 1.07808(3)
Ge2 Ge 0.01754(4) 0.66871(10) 1.01283(8)
Fe3 Fe -0.00554(6) 0.55661(15) 1.10386(11)
Fe4 Fe 0.04002(6) 0.47879(14) 1.04833(11)
O35 O 0.0444(3) 0.9737(7) 1.0836(7)
O36 O 0.0186(2) 0.7374(6) 1.0682(5)
O37 O 0.0066(3) 0.8690(7) 0.9795(5)
O38 O 0.0578(3) 0.8349(7) 1.1526(5)
O39 O -0.0077(3) 0.8730(7) 1.0745(5)
O40 O 0.0687(3) 0.8350(6) 1.0554(5)
O41 O 0.1111(3) 0.8496(8) 1.0003(7)
O42 O 0.0575(2) 0.6674(6) 1.0192(5)
O43 O 0.1178(3) 0.7252(6) 1.0817(5)
O44 O 0.0888(3) 0.6962(7) 0.9556(6)
O45 O 0.0426(3) 0.8064(7) 0.9332(6)
O46 O -0.0082(4) 0.9154(8) 0.8531(7)
O47 O -0.0123(3) 0.7534(7) 0.8348(5)
O48 O -0.0105(3) 0.7060(6) 0.9363(5)
O49 O -0.0520(3) 0.8198(7) 0.8774(6)
O50 O -0.1098(3) 0.7433(8) 0.8655(6)
O51 O -0.0514(3) 0.7692(7) 0.9854(5)
O52 O -0.0656(3) 0.6225(7) 0.9348(6)
O53 O -0.0632(3) 0.6748(7) 0.8326(5)
O54 O -0.0314(3) 0.6075(8) 0.7695(5)
O55 O -0.0241(2) 0.5481(7) 0.8844(5)
O56 O 0.0286(3) 0.6259(7) 0.8885(5)
O57 O 0.0869(2) 0.5394(7) 0.9139(5)
O58 O 0.0476(3) 0.5089(7) 0.9723(5)
O59 O 0.1088(3) 0.5785(7) 1.0409(5)
O60 O 0.1448(3) 0.6061(7) 1.1723(6)
O61 O 0.0796(3) 0.5452(7) 1.1100(5)
O62 O 0.0885(3) 0.6956(7) 1.1548(5)
O63 O 0.0773(3) 0.7320(8) 1.2586(5)
O64 O 0.0376(3) 0.6218(7) 1.1639(5)
O65 O 0.0099(3) 0.7629(7) 1.1646(5)
O66 O -0.0596(3) 0.8033(7) 1.0915(6)
O67 O -0.0345(2) 0.6615(7) 1.0772(5)
O68 O 0.0050(2) 0.5739(6) 1.0239(5)
N3 N -0.0202(3) 0.5370(8) 1.1768(6)
H9 H -0.0422 0.5221 1.1566
H10 H -0.0082 0.4951 1.2001
C3 C -0.0169(5) 0.5990(11) 1.2211(9)
H11 H -0.0342 0.5921 1.2333
H12 H -0.0206 0.6500 1.2002
N3A N 0.0202(3) 0.5370(8) 1.3232(6)
H9A H 0.0422 0.5221 1.3434
H10A H 0.0082 0.4951 1.2999
C3A C 0.0169(5) 0.5990(11) 1.2789(9)
H11A H 0.0342 0.5921 1.2667
H12A H 0.0206 0.6500 1.2998
W10A W -0.033195(19) 0.87460(4) 1.42936(4)
W11A W -0.084786(18) 0.78001(4) 1.49488(4)
W12A W 0.00611(2) 0.83152(5) 1.60369(4)
W13A W 0.067095(17) 0.72093(5) 1.59612(3)
W14A W 0.019876(18) 0.63940(4) 1.65358(3)
W15A W -0.071492(17) 0.58809(4) 1.54231(3)
W16A W -0.105160(17) 0.62897(4) 1.38723(3)
W17A W -0.053305(18) 0.72122(4) 1.32384(3)
W18A W 0.028043(17) 0.76517(4) 1.42192(3)
Ge2A Ge -0.01754(4) 0.66871(10) 1.48717(8)
Fe3A Fe 0.00554(6) 0.55661(15) 1.39614(11)
Fe4A Fe -0.04002(6) 0.47879(14) 1.45167(11)
O35A O -0.0444(3) 0.9737(7) 1.4164(7)
O36A O -0.0186(2) 0.7374(6) 1.4318(5)
O37A O -0.0066(3) 0.8690(7) 1.5205(5)
O38A O -0.0578(3) 0.8349(7) 1.3474(5)
O39A O 0.0077(3) 0.8730(7) 1.4255(5)
O40A O -0.0687(3) 0.8350(6) 1.4446(5)
O41A O -0.1111(3) 0.8496(8) 1.4997(7)
O42A O -0.0575(2) 0.6674(6) 1.4808(5)
O43A O -0.1178(3) 0.7252(6) 1.4183(5)
O44A O -0.0888(3) 0.6962(7) 1.5444(6)
O45A O -0.0426(3) 0.8064(7) 1.5668(6)
O46A O 0.0082(4) 0.9154(8) 1.6469(7)
O47A O 0.0123(3) 0.7534(7) 1.6652(5)
O48A O 0.0105(3) 0.7060(6) 1.5637(5)
O49A O 0.0520(3) 0.8198(7) 1.6226(6)
O50A O 0.1098(3) 0.7433(8) 1.6345(6)
O51A O 0.0514(3) 0.7692(7) 1.5146(5)
O52A O 0.0656(3) 0.6225(7) 1.5652(6)
O53A O 0.0632(3) 0.6748(7) 1.6674(5)
O54A O 0.0314(3) 0.6075(8) 1.7305(5)
O55A O 0.0241(2) 0.5481(7) 1.6156(5)
O56A O -0.0286(3) 0.6259(7) 1.6115(5)
O57A O -0.0869(2) 0.5394(7) 1.5861(5)
O58A O -0.0476(3) 0.5089(7) 1.5277(5)
O59A O -0.1088(3) 0.5785(7) 1.4591(5)
O60A O -0.1448(3) 0.6061(7) 1.3277(6)
O61A O -0.0796(3) 0.5452(7) 1.3900(5)
O62A O -0.0885(3) 0.6956(7) 1.3452(5)
O63A O -0.0773(3) 0.7320(8) 1.2414(5)
O64A O -0.0376(3) 0.6218(7) 1.3361(5)
O65A O -0.0099(3) 0.7629(7) 1.3354(5)
O66A O 0.0596(3) 0.8033(7) 1.4085(6)
O67A O 0.0345(2) 0.6615(7) 1.4228(5)
O68A O -0.0050(2) 0.5739(6) 1.4761(5)
Fe3D Fe 0.00554(6) 0.44339(15) 0.89614(11)
Fe3E Fe -0.00554(6) 0.44339(15) 1.60386(11)
Fe4D Fe -0.04002(6) 0.52121(14) 0.95167(11)
Fe4E Fe 0.04002(6) 0.52121(14) 1.54833(11)
O52D O 0.0656(3) 0.3775(7) 1.0652(6)
O52E O -0.0656(3) 0.3775(7) 1.4348(6)
O55D O 0.0241(2) 0.4519(7) 1.1156(5)
O55E O -0.0241(2) 0.4519(7) 1.3844(5)
O58D O -0.0476(3) 0.4911(7) 1.0277(5)
O58E O 0.0476(3) 0.4911(7) 1.4723(5)
O68D O -0.0050(2) 0.4261(6) 0.9761(5)
O68E O 0.0050(2) 0.4261(6) 1.5239(5)
O69 O 0.0929(3) 0.4967(7) 1.2328(6)
O70 O 0.3290(5) 0.6557(12) 1.2982(10)
O71 O 0.1439(5) 0.4305(13) 1.1121(10)
O72 O 0.1174(4) 0.0692(10) 1.1532(8)
O73 O 0.0437(12) 0.761(3) 0.806(2)
O74 O 0.0590(12) 0.736(3) 0.827(2)
O75 O 0.1183(7) 0.5940(18) 0.8445(14)
O76 O 0.0851(12) 0.060(3) 1.222(2)
O77 O 0.1431(10) 0.406(2) 1.232(2)
O78 O 0.3524(10) 0.712(2) 1.2153(19)
N4 N 0.0330(5) 0.9349(10) 1.2244(9)
H13 H 0.0192 0.9441 1.1849
H14 H 0.0545 0.9362 1.2386
C4 C 0.0198(5) 0.9172(14) 1.2667(10)
H15 H 0.0285 0.9561 1.3007
H16 H 0.0281 0.8656 1.2857
N4A N -0.0330(5) 0.9349(10) 1.2756(9)
H13A H -0.0192 0.9441 1.3151
H14A H -0.0545 0.9362 1.2614
C4A C -0.0198(5) 0.9172(14) 1.2333(10)
H15A H -0.0285 0.9561 1.1993
H16A H -0.0281 0.8656 1.2143
N5 N -0.1079(5) 0.6595(10) 0.9956(9)
H17 H -0.1199 0.6417 0.9559
H18 H -0.0864 0.6440 1.0118
H19 H -0.1088 0.7122 0.9956
N6 N -0.1121(4) 0.7336(9) 1.1103(7)
H20 H -0.1009 0.7455 1.1515
H21 H -0.1343 0.7372 1.0961
H22 H -0.1062 0.7674 1.0890
C5 C -0.1215(5) 0.6288(14) 1.0324(11)
H23 H -0.1211 0.5714 1.0305
H24 H -0.1451 0.6451 1.0134
C6 C -0.1037(5) 0.6535(12) 1.1010(11)
H25 H -0.1099 0.6171 1.1249
H26 H -0.0794 0.6496 1.1176
N7 N 0.1691(4) 0.6880(9) 1.0501(9)
H27 H 0.1492 0.7092 1.0413
H28 H 0.1695 0.6371 1.0601
H29 H 0.1721 0.6921 1.0163
N8 N 0.2392(3) 0.7020(8) 1.0660(6)
H30 H 0.2598 0.6821 1.0782
H31 H 0.2386 0.7524 1.0544
H32 H 0.2238 0.6742 1.0333
C7 C 0.1960(5) 0.7295(14) 1.1028(11)
H33 H 0.1927 0.7247 1.1395
H34 H 0.1948 0.7854 1.0923
C8 C 0.2317(5) 0.6977(12) 1.1203(9)
H35 H 0.2487 0.7281 1.1557
H36 H 0.2335 0.6429 1.1339
N9 N -0.0707(4) 0.9292(9) 0.9739(9)
H37 H -0.0737 0.9437 0.9361
H38 H -0.0840 0.8878 0.9693
H39 H -0.0491 0.9161 0.9991
N10 N -0.0759(5) 1.0547(10) 1.0992(8)
H40 H -0.0733 1.0385 1.1364
H41 H -0.0954 1.0809 1.0781
H42 H -0.0587 1.0865 1.1058
C9 C -0.0800(6) 0.9970(14) 1.0030(11)
H43 H -0.0664 1.0425 1.0049
H44 H -0.1036 1.0106 0.9746
C10 C -0.0761(6) 0.9852(11) 1.0616(10)
H45 H -0.0550 0.9569 1.0864
H46 H -0.0943 0.9503 1.0572
N11 N 0.1973(4) 0.5127(11) 0.7387(8)
H47 H 0.1903 0.4627 0.7350
H48 H 0.1794 0.5450 0.7239
H49 H 0.2113 0.5237 0.7794
N12 N 0.1986(4) 0.6463(11) 0.6527(8)
H50 H 0.2041 0.6935 0.6437
H51 H 0.1873 0.6529 0.6740
H52 H 0.1856 0.6203 0.6167
C11 C 0.2156(6) 0.5245(15) 0.7010(11)
H53 H 0.2341 0.4864 0.7182
H54 H 0.1999 0.5065 0.6584
C12 C 0.2306(4) 0.5993(12) 0.6927(10)
H55 H 0.2434 0.5902 0.6707
H56 H 0.2450 0.6251 0.7331
loop_
_geom_bond_atom_site_label_1
_geom_bond_atom_site_label_2
_geom_bond_site_symmetry_1
_geom_bond_site_symmetry_2
W1 O1 1_555 1_555
W2 O6 1_555 1_555
W3 O2 1_555 1_555
W4 O14 1_555 1_555
W5 O4 1_555 1_555
W6 O3 1_555 1_555
W7 O8 1_555 1_555
W8 O9 1_555 1_555
W9 O13 1_555 1_555
Ge1 O4 1_555 1_555
Fe1 O21 1_555 1_555
Fe2 O27 1_555 1_555
O2 W1 1_555 1_555
O3 W1 1_555 1_555
O4 W1 1_555 1_555
O5 W1 1_555 1_555
O6 W1 1_555 1_555
O7 W2 1_555 1_555
O8 W2 1_555 1_555
O9 W2 1_555 1_555
O10 W2 1_555 1_555
O11 W2 1_555 1_555
O12 W3 1_555 1_555
O13 W3 1_555 1_555
O14 W3 1_555 1_555
O15 W3 1_555 1_555
O16 W4 1_555 1_555
O17 W4 1_555 1_555
O18 W4 1_555 1_555
O19 W4 1_555 1_555
O20 W5 1_555 1_555
O21 W5 1_555 1_555
O22 W5 1_555 1_555
O23 W6 1_555 1_555
O24 W6 1_555 1_555
O25 W6 1_555 1_555
O26 W7 1_555 1_555
O27 W7 1_555 1_555
O28 W7 1_555 1_555
O29 W8 1_555 1_555
O30 W8 1_555 1_555
O31 W8 1_555 1_555
O32 W9 1_555 1_555
O33 W9 1_555 1_555
O34 Ge1 1_555 1_555
N1 Fe2 1_555 1_555
H1 N1 1_555 1_555
H2 N1 1_555 1_555
N2 H3 1_555 1_555
H4 N2 1_555 1_555
C1 N1 1_555 1_555
H5 C1 1_555 1_555
H6 C1 1_555 1_555
C2 N2 1_555 1_555
H7 C2 1_555 1_555
H8 C2 1_555 1_555
W10 O35 1_555 1_555
W11 O40 1_555 1_555
W12 O37 1_555 1_555
W13 O48 1_555 1_555
W14 O47 1_555 1_555
W15 O42 1_555 1_555
W16 O42 1_555 1_555
W17 O36 1_555 1_555
W18 O36 1_555 1_555
Ge2 O36 1_555 1_555
Fe3 O64 1_555 1_555
Fe4 O58 1_555 1_555
O36 W10 1_555 1_555
O37 W10 1_555 1_555
O38 W10 1_555 1_555
O39 W10 1_555 1_555
O40 W10 1_555 1_555
O41 W11 1_555 1_555
O42 W11 1_555 1_555
O43 W11 1_555 1_555
O44 W11 1_555 1_555
O45 W11 1_555 1_555
O46 W12 1_555 1_555
O47 W12 1_555 1_555
O48 W12 1_555 1_555
O49 W12 1_555 1_555
O50 W13 1_555 1_555
O51 W13 1_555 1_555
O52 W13 1_555 1_555
O53 W13 1_555 1_555
O54 W14 1_555 1_555
O55 W14 1_555 1_555
O56 W14 1_555 1_555
O57 W15 1_555 1_555
O58 W15 1_555 1_555
O59 W15 1_555 1_555
O60 W16 1_555 1_555
O61 W16 1_555 1_555
O62 W16 1_555 1_555
O63 W17 1_555 1_555
O64 W17 1_555 1_555
O65 W17 1_555 1_555
O66 W18 1_555 1_555
O67 W18 1_555 1_555
O68 Ge2 1_555 1_555
N3 Fe3 1_555 1_555
H9 N3 1_555 1_555
H10 N3 1_555 1_555
C3 N3 1_555 1_555
H11 C3 1_555 1_555
H12 C3 1_555 1_555
N4 H13 1_555 1_555
H14 N4 1_555 1_555
C4 N4 1_555 1_555
H15 C4 1_555 1_555
H16 C4 1_555 1_555
N5 H17 1_555 1_555
H18 N5 1_555 1_555
H19 N5 1_555 1_555
N6 H20 1_555 1_555
H21 N6 1_555 1_555
H22 N6 1_555 1_555
C5 N5 1_555 1_555
H23 C5 1_555 1_555
H24 C5 1_555 1_555
C6 N6 1_555 1_555
H25 C6 1_555 1_555
H26 C6 1_555 1_555
N7 H27 1_555 1_555
H28 N7 1_555 1_555
H29 N7 1_555 1_555
N8 H30 1_555 1_555
H31 N8 1_555 1_555
H32 N8 1_555 1_555
C7 N7 1_555 1_555
H33 C7 1_555 1_555
H34 C7 1_555 1_555
C8 N8 1_555 1_555
H35 C8 1_555 1_555
H36 C8 1_555 1_555
N9 H37 1_555 1_555
H38 N9 1_555 1_555
H39 N9 1_555 1_555
N10 H40 1_555 1_555
H41 N10 1_555 1_555
H42 N10 1_555 1_555
C9 N9 1_555 1_555
H43 C9 1_555 1_555
H44 C9 1_555 1_555
C10 N10 1_555 1_555
H45 C10 1_555 1_555
H46 C10 1_555 1_555
N11 H47 1_555 1_555
H48 N11 1_555 1_555
H49 N11 1_555 1_555
N12 H50 1_555 1_555
H51 N12 1_555 1_555
H52 N12 1_555 1_555
C11 N11 1_555 1_555
H53 C11 1_555 1_555
H54 C11 1_555 1_555
C12 N12 1_555 1_555
H55 C12 1_555 1_555
H56 C12 1_555 1_555
W1F O1F 1_555 1_555
W2F O6F 1_555 1_555
W3F O2F 1_555 1_555
W4F O14F 1_555 1_555
W5F O4F 1_555 1_555
W6F O3F 1_555 1_555
W7F O8F 1_555 1_555
W8F O9F 1_555 1_555
W9F O13F 1_555 1_555
Ge1F O4F 1_555 1_555
Fe1F O17 1_555 1_555
Fe2F O17 1_555 1_555
O2F W1F 1_555 1_555
O3F W1F 1_555 1_555
O4F W1F 1_555 1_555
O5F W1F 1_555 1_555
O6F W1F 1_555 1_555
O7F W2F 1_555 1_555
O8F W2F 1_555 1_555
O9F W2F 1_555 1_555
O10F W2F 1_555 1_555
O11F W2F 1_555 1_555
O12F W3F 1_555 1_555
O13F W3F 1_555 1_555
O14F W3F 1_555 1_555
O15F W3F 1_555 1_555
O16F W4F 1_555 1_555
O17F Fe1 1_555 1_555
O18F W4F 1_555 1_555
O19F W4F 1_555 1_555
O20F W5F 1_555 1_555
O21F Fe2 1_555 1_555
O22F W5F 1_555 1_555
O23F W6F 1_555 1_555
O24F W6F 1_555 1_555
O25F W6F 1_555 1_555
O26F W7F 1_555 1_555
O27F W7F 1_555 1_555
O28F W7F 1_555 1_555
O29F W8F 1_555 1_555
O30F W8F 1_555 1_555
O31F W8F 1_555 1_555
O32F W9F 1_555 1_555
O33F Fe1 1_555 1_555
O34F Fe1 1_555 1_555
N1F Fe2F 1_555 1_555
H1F N1F 1_555 1_555
H2F N1F 1_555 1_555
N2F H3F 1_555 1_555
H4F N2F 1_555 1_555
C1F N1F 1_555 1_555
H5F C1F 1_555 1_555
H6F C1F 1_555 1_555
C2F N2F 1_555 1_555
H7F C2F 1_555 1_555
H8F C2F 1_555 1_555
N3A H9A 1_555 1_555
H10A N3A 1_555 1_555
C3A C3 1_555 1_555
H11A C3A 1_555 1_555
H12A C3A 1_555 1_555
W10A O35A 1_555 1_555
W11A O40A 1_555 1_555
W12A O37A 1_555 1_555
W13A O48A 1_555 1_555
W14A O47A 1_555 1_555
W15A O42A 1_555 1_555
W16A O42A 1_555 1_555
W17A O36A 1_555 1_555
W18A O36A 1_555 1_555
Ge2A O36A 1_555 1_555
Fe3A N3A 1_555 1_555
Fe4A O58A 1_555 1_555
O36A W10A 1_555 1_555
O37A W10A 1_555 1_555
O38A W10A 1_555 1_555
O39A W10A 1_555 1_555
O40A W10A 1_555 1_555
O41A W11A 1_555 1_555
O42A W11A 1_555 1_555
O43A W11A 1_555 1_555
O44A W11A 1_555 1_555
O45A W11A 1_555 1_555
O46A W12A 1_555 1_555
O47A W12A 1_555 1_555
O48A W12A 1_555 1_555
O49A W12A 1_555 1_555
O50A W13A 1_555 1_555
O51A W13A 1_555 1_555
O52A W13A 1_555 1_555
O53A W13A 1_555 1_555
O54A W14A 1_555 1_555
O55A W14A 1_555 1_555
O56A W14A 1_555 1_555
O57A W15A 1_555 1_555
O58A W15A 1_555 1_555
O59A W15A 1_555 1_555
O60A W16A 1_555 1_555
O61A W16A 1_555 1_555
O62A W16A 1_555 1_555
O63A W17A 1_555 1_555
O64A W17A 1_555 1_555
O65A W17A 1_555 1_555
O66A W18A 1_555 1_555
O67A W18A 1_555 1_555
O68A Ge2A 1_555 1_555
Fe3D O55 1_555 1_555
Fe3E O55A 1_555 1_555
Fe4D O52 1_555 1_555
Fe4E O52A 1_555 1_555
O52D Fe4 1_555 1_555
O52E Fe4A 1_555 1_555
O55D Fe3 1_555 1_555
O55E Fe3A 1_555 1_555
O58D Fe3 1_555 1_555
O58E Fe3A 1_555 1_555
O68D Fe4 1_555 1_555
O68E Fe4A 1_555 1_555
N4A H13A 1_555 1_555
H14A N4A 1_555 1_555
C4A C4 1_555 1_555
H15A C4A 1_555 1_555
H16A C4A 1_555 1_555
W3 O11 1_555 1_555
W4 O15 1_555 1_555
W5 O5 1_555 1_555
W5 O19 1_555 1_555
W6 O4 1_555 1_555
W6 O22 1_555 1_555
W7 O10 1_555 1_555
W7 O25 1_555 1_555
W8 O10 1_555 1_555
W8 O28 1_555 1_555
W9 O14 1_555 1_555
W9 O18 1_555 1_555
W9 O31 1_555 1_555
Ge1 O10 1_555 1_555
Ge1 O14 1_555 1_555
Fe1 O24 1_555 1_555
Fe1 O34 1_555 1_555
Fe2 O30 1_555 1_555
Fe2 O34 1_555 1_555
Fe2 O17F 1_555 1_555
O21 Fe2F 1_555 1_555
O33 Fe1F 1_555 1_555
O34 Fe1F 1_555 1_555
C1 C2 1_555 1_555
W12 O45 1_555 1_555
W13 O49 1_555 1_555
W14 O48 1_555 1_555
W14 O53 1_555 1_555
W15 O44 1_555 1_555
W15 O56 1_555 1_555
W16 O43 1_555 1_555
W16 O59 1_555 1_555
W17 O38 1_555 1_555
W17 O62 1_555 1_555
W18 O39 1_555 1_555
W18 O51 1_555 1_555
W18 O65 1_555 1_555
Ge2 O42 1_555 1_555
Ge2 O48 1_555 1_555
Fe3 O67 1_555 1_555
Fe3 O68 1_555 1_555
Fe4 O61 1_555 1_555
Fe4 O68 1_555 1_555
Fe4 O55D 1_555 1_555
O55 Fe4D 1_555 1_555
O58 Fe3D 1_555 1_555
O68 Fe4D 1_555 1_555
C5 C6 1_555 1_555
C7 C8 1_555 1_555
C9 C10 1_555 1_555
C11 C12 1_555 1_555
W3F O11F 1_555 1_555
W4F O15F 1_555 1_555
W4F O17F 1_555 1_555
W5F O5F 1_555 1_555
W5F O19F 1_555 1_555
W5F O21F 1_555 1_555
W6F O4F 1_555 1_555
W6F O22F 1_555 1_555
W7F O10F 1_555 1_555
W7F O25F 1_555 1_555
W8F O10F 1_555 1_555
W8F O28F 1_555 1_555
W9F O14F 1_555 1_555
W9F O18F 1_555 1_555
W9F O31F 1_555 1_555
W9F O33F 1_555 1_555
Ge1F O10F 1_555 1_555
Ge1F O14F 1_555 1_555
Ge1F O34F 1_555 1_555
Fe1F O21F 1_555 1_555
Fe1F O24F 1_555 1_555
Fe1F O34F 1_555 1_555
Fe2F O27F 1_555 1_555
Fe2F O30F 1_555 1_555
Fe2F O34F 1_555 1_555
C1F C2F 1_555 1_555
N3A C3A 1_555 1_555
W12A O45A 1_555 1_555
W13A O49A 1_555 1_555
W14A O48A 1_555 1_555
W14A O53A 1_555 1_555
W15A O44A 1_555 1_555
W15A O56A 1_555 1_555
W16A O43A 1_555 1_555
W16A O59A 1_555 1_555
W17A O38A 1_555 1_555
W17A O62A 1_555 1_555
W18A O39A 1_555 1_555
W18A O51A 1_555 1_555
W18A O65A 1_555 1_555
Ge2A O42A 1_555 1_555
Ge2A O48A 1_555 1_555
Fe3A O64A 1_555 1_555
Fe3A O67A 1_555 1_555
Fe3A O68A 1_555 1_555
Fe4A O61A 1_555 1_555
Fe4A O68A 1_555 1_555
Fe4A O55E 1_555 1_555
O55A Fe4E 1_555 1_555
O58A Fe3E 1_555 1_555
O68A Fe4E 1_555 1_555
Fe3D O68D 1_555 1_555
Fe3E O68E 1_555 1_555
Fe4D O58D 1_555 1_555
Fe4D O68D 1_555 1_555
Fe4E O58E 1_555 1_555
Fe4E O68E 1_555 1_555
N4A C4A 1_555 1_555

#END
