
#######################################################################
#
#                 Cambridge Crystallographic Data Centre
#                                CCDC 
#
#######################################################################
#
# If this CIF has been generated from an entry in the Cambridge 
# Structural Database, then it will include bibliographic, chemical, 
# crystal, experimental, refinement or atomic coordinate data resulting 
# from the CCDC's data processing and validation procedures.
#
#######################################################################

data_ZIDTOX
_symmetry_cell_setting           triclinic
_symmetry_space_group_name_H-M   'P -1'
_symmetry_Int_Tables_number      2
_space_group_name_Hall           '-P 1'
loop_
_symmetry_equiv_pos_site_id
_symmetry_equiv_pos_as_xyz
1 x,y,z
2 -x,-y,-z
_cell_length_a                   9.0148(15)
_cell_length_b                   10.4259(18)
_cell_length_c                   13.458(2)
_cell_angle_alpha                100.259(2)
_cell_angle_beta                 102.113(2)
_cell_angle_gamma                103.114(2)
_cell_volume                     1170.14
loop_
_atom_site_label
_atom_site_type_symbol
_atom_site_fract_x
_atom_site_fract_y
_atom_site_fract_z
Pr1 Pr 1.02504(2) 0.212997(19) 0.022838(15)
Pr2 Pr 0.64092(2) 0.394558(19) -0.077956(14)
S1 S 0.95676(17) 0.62976(15) 0.42247(9)
S2 S 0.7747(3) -0.02253(19) -0.48550(10)
S3 S 0.6410(2) 0.17694(17) 0.35419(11)
O1 O 1.1332(3) 0.4709(3) 0.1390(2)
O2 O 0.8783(3) 0.3960(3) 0.0678(2)
O3 O 0.8013(3) 0.6344(3) 0.05167(19)
O4 O 0.6500(3) 0.7165(3) 0.1449(2)
O5 O 0.8904(4) -0.2017(3) -0.2120(2)
O6 O 0.9498(3) -0.0003(3) -0.1063(2)
O7 O 0.8349(3) 0.2323(3) -0.1285(2)
O8 O 0.6213(3) 0.2304(3) -0.2438(2)
O9 O 0.7754(3) 0.1098(3) 0.0537(2)
O10 O 0.5747(3) 0.1846(3) -0.0170(2)
O11 O 0.5358(3) 0.4275(3) 0.07655(19)
O12 O 0.4487(3) 0.4803(3) 0.2137(2)
O13 O 1.2747(3) 0.1548(3) 0.0279(2)
H1 H 1.3524 0.1916 0.0080
H2 H 1.2836 0.0759 0.0257
C1 C 1.0326(5) 0.5492(5) 0.3309(3)
H3 H 1.1108 0.5056 0.3466
C2 C 0.9646(4) 0.5567(4) 0.2327(3)
C3 C 0.8510(4) 0.6323(4) 0.2317(3)
C4 C 0.8358(5) 0.6784(5) 0.3296(3)
H4 H 0.7678 0.7300 0.3439
C5 C 0.9943(4) 0.4742(4) 0.1403(3)
C6 C 0.7596(4) 0.6640(4) 0.1377(3)
C7 C 0.8510(8) -0.0896(6) -0.3860(4)
H5 H 0.8938 -0.1626 -0.3956
C8 C 0.8424(5) -0.0243(4) -0.2910(3)
C9 C 0.7700(5) 0.0845(4) -0.3001(3)
C10 C 0.7247(6) 0.0929(5) -0.4020(3)
H6 H 0.6725 0.1548 -0.4231
C11 C 0.8969(4) -0.0784(4) -0.1984(3)
C12 C 0.7397(4) 0.1865(4) -0.2185(3)
C13 C 0.6786(6) 0.1234(5) 0.2367(4)
H7 H 0.7205 0.0508 0.2215
C14 C 0.6398(5) 0.1993(4) 0.1680(3)
C15 C 0.5771(5) 0.3053(4) 0.2128(3)
C16 C 0.5749(6) 0.3039(5) 0.3133(3)
H8 H 0.5407 0.3659 0.3553
C17 C 0.6626(4) 0.1636(4) 0.0606(3)
C18 C 0.5177(4) 0.4092(4) 0.1652(3)
Pr1A Pr 0.97496(2) -0.212997(19) -0.022838(15)
Pr1A_2 Pr 0.97496(2) 0.787003(19) -0.022838(15)
Pr2A Pr 0.35908(2) 0.605442(19) 0.077956(14)
Pr2A_2 Pr 1.35908(2) 0.605442(19) 0.077956(14)
O1A O 0.8668(3) 0.5291(3) -0.1390(2)
O3A O 1.1987(3) 0.3656(3) -0.05167(19)
O4A O 0.3500(3) 0.2835(3) -0.1449(2)
O5A O 1.1096(4) 0.2017(3) 0.2120(2)
O6A O 1.0502(3) 0.0003(3) 0.1063(2)
O11A O 0.4642(3) 0.5725(3) -0.07655(19)
O12A O 0.5513(3) 0.5197(3) -0.2137(2)
O14 O 0.5325(8) 0.3500(8) 0.5653(4)
H9 H 0.5260 0.3152 0.6168
H10 H 0.5791 0.4312 0.5703
O15 O 0.7033(8) 0.6005(8) 0.5865(6)
H11 H 0.7462 0.6642 0.6411
H12 H 0.6450 0.6264 0.5405
loop_
_geom_bond_atom_site_label_1
_geom_bond_atom_site_label_2
_geom_bond_site_symmetry_1
_geom_bond_site_symmetry_2
Pr1 O1 1_555 1_555
Pr2 O2 1_555 1_555
S1 C1 1_555 1_555
S2 C7 1_555 1_555
S3 C13 1_555 1_555
O1 C5 1_555 1_555
O2 Pr1 1_555 1_555
O3 Pr2 1_555 1_555
O4 C6 1_555 1_555
O5 C11 1_555 1_555
O6 Pr1 1_555 1_555
O7 Pr1 1_555 1_555
O8 Pr2 1_555 1_555
O9 Pr1 1_555 1_555
O10 Pr2 1_555 1_555
O11 Pr2 1_555 1_555
O12 C18 1_555 1_555
O13 Pr1 1_555 1_555
H1 O13 1_555 1_555
H2 O13 1_555 1_555
C1 H3 1_555 1_555
C2 C1 1_555 1_555
C3 C2 1_555 1_555
C4 S1 1_555 1_555
H4 C4 1_555 1_555
C5 O2 1_555 1_555
C6 O3 1_555 1_555
C7 H5 1_555 1_555
C8 C7 1_555 1_555
C9 C8 1_555 1_555
C10 S2 1_555 1_555
H6 C10 1_555 1_555
C11 O6 1_555 1_555
C12 O7 1_555 1_555
C13 H7 1_555 1_555
C14 C13 1_555 1_555
C15 C14 1_555 1_555
C16 S3 1_555 1_555
H8 C16 1_555 1_555
C17 O9 1_555 1_555
C18 O11 1_555 1_555
O14 H9 1_555 1_555
H10 O14 1_555 1_555
O15 H11 1_555 1_555
H12 O15 1_555 1_555
Pr1A O5 1_555 1_555
Pr1A_2 O3 1_555 1_555
Pr2A O4 1_555 1_555
Pr2A_2 O1 1_555 1_555
O1A Pr2 1_555 1_555
O3A Pr1 1_555 1_555
O4A Pr2 1_555 1_555
O5A Pr1 1_555 1_555
O6A Pr1 1_555 1_555
O11A Pr2 1_555 1_555
O12A Pr2 1_555 1_555
Pr2 O7 1_555 1_555
O6 Pr1A 1_555 1_555
O8 C12 1_555 1_555
O10 C17 1_555 1_555
O11 Pr2A 1_555 1_555
O12 Pr2A 1_555 1_555
C2 C5 1_555 1_555
C3 C4 1_555 1_555
C3 C6 1_555 1_555
C8 C11 1_555 1_555
C9 C10 1_555 1_555
C9 C12 1_555 1_555
C14 C17 1_555 1_555
C15 C16 1_555 1_555
C15 C18 1_555 1_555
Pr1A O6A 1_555 1_555
Pr1A_2 O1A 1_555 1_555
Pr2A O11A 1_555 1_555
Pr2A_2 O3A 1_555 1_555

#END
