
#######################################################################
#
#                 Cambridge Crystallographic Data Centre
#                                CCDC 
#
#######################################################################
#
# If this CIF has been generated from an entry in the Cambridge 
# Structural Database, then it will include bibliographic, chemical, 
# crystal, experimental, refinement or atomic coordinate data resulting 
# from the CCDC's data processing and validation procedures.
#
#######################################################################

data_ZIDTOV
_symmetry_cell_setting           orthorhombic
_symmetry_space_group_name_H-M   'P b c a'
_symmetry_Int_Tables_number      61
_space_group_name_Hall           '-P 2ac 2ab'
loop_
_symmetry_equiv_pos_site_id
_symmetry_equiv_pos_as_xyz
1 x,y,z
2 1/2-x,-y,1/2+z
3 1/2+x,1/2-y,-z
4 -x,1/2+y,1/2-z
5 -x,-y,-z
6 1/2+x,y,1/2-z
7 1/2-x,1/2+y,z
8 x,1/2-y,1/2+z
_cell_length_a                   9.522(2)
_cell_length_b                   10.509(2)
_cell_length_c                   13.222(3)
_cell_angle_alpha                90
_cell_angle_beta                 90
_cell_angle_gamma                90
_cell_volume                     1323.08
loop_
_atom_site_label
_atom_site_type_symbol
_atom_site_fract_x
_atom_site_fract_y
_atom_site_fract_z
Cu1 Cu 0.0243(1) 0.2568(1) 0.0073(1)
Cl1 Cl 0.2632(1) 0.2558(1) 0.0957(1)
C1 C 0.0387(3) 0.5008(2) -0.0526(2)
O1 O 0.0548(2) 0.6069(2) -0.0933(2)
O2 O -0.0756(2) 0.6047(2) 0.0866(2)
N1 N 0.0463(3) 0.8874(2) -0.0947(2)
C2 C 0.0342(3) 0.9997(2) -0.0507(2)
N2 N -0.0722(3) 0.8885(2) 0.0876(2)
C3 C -0.1303(3) 0.8895(3) 0.1792(2)
C4 C -0.1502(4) 1.0018(3) 0.2320(2)
C5 C -0.1044(4) 1.1134(3) 0.1870(2)
H1 H -0.162(3) 0.813(3) 0.209(2)
H2 H -0.200(4) 1.003(3) 0.292(2)
H3 H -0.117(3) 1.189(3) 0.219(2)
Cl1B Cl -0.2368(1) 0.2442(1) -0.0957(1)
Cu1F Cu -0.5243(1) 0.7568(1) 0.0073(1)
Cl1D Cl -0.2632(1) 0.7442(1) -0.0957(1)
Cu1D Cu -0.0243(1) 0.7432(1) -0.0073(1)
Cl1F Cl 0.2368(1) 0.7558(1) 0.0957(1)
Cu1F_2 Cu 0.4757(1) 0.7568(1) 0.0073(1)
C1D C -0.0387(3) 0.4992(2) 0.0526(2)
O1D O -0.0548(2) 0.3931(2) 0.0933(2)
C2D C -0.0342(3) 1.0003(2) 0.0507(2)
N1D N -0.0463(3) 1.1126(2) 0.0947(2)
Cu1_2 Cu 0.0243(1) 1.2568(1) 0.0073(1)
N2D N 0.0722(3) 1.1115(2) -0.0876(2)
C5D C 0.1044(4) 0.8866(3) -0.1870(2)
C4D C 0.1502(4) 0.9982(3) -0.2320(2)
C3D C 0.1303(3) 1.1105(3) -0.1792(2)
H1D H 0.162(3) 1.187(3) -0.209(2)
H2D H 0.200(4) 0.997(3) -0.292(2)
H3D H 0.117(3) 0.811(3) -0.219(2)
O2D O 0.0756(2) 0.3953(2) -0.0866(2)
N1D_2 N -0.0463(3) 0.1126(2) 0.0947(2)
N2D_2 N 0.0722(3) 0.1115(2) -0.0876(2)
loop_
_geom_bond_atom_site_label_1
_geom_bond_atom_site_label_2
_geom_bond_site_symmetry_1
_geom_bond_site_symmetry_2
Cu1 Cl1 1_555 1_555
C1 O1 1_555 1_555
O1 Cu1D 1_555 1_555
O2 Cu1D 1_555 1_555
N1 C2 1_555 1_555
C2 C2D 1_555 1_555
N2 C3 1_555 1_555
C3 C4 1_555 1_555
C4 C5 1_555 1_555
C5 H3 1_555 1_555
H1 C3 1_555 1_555
H2 C4 1_555 1_555
Cl1B Cu1 1_555 1_555
Cu1F Cl1D 1_555 1_555
Cl1D Cu1D 1_555 1_555
Cu1D N1 1_555 1_555
Cl1F Cu1D 1_555 1_555
Cu1F_2 Cl1F 1_555 1_555
C1D C1 1_555 1_555
O1D Cu1 1_555 1_555
C2D N2 1_555 1_555
N1D C5 1_555 1_555
Cu1_2 N1D 1_555 1_555
N2D C2 1_555 1_555
C5D N1 1_555 1_555
C4D C5D 1_555 1_555
C3D N2D 1_555 1_555
H1D C3D 1_555 1_555
H2D C4D 1_555 1_555
H3D C5D 1_555 1_555
O2D Cu1 1_555 1_555
N1D_2 Cu1 1_555 1_555
N2D_2 Cu1 1_555 1_555
C1 O2D 1_555 1_555
O2 C1D 1_555 1_555
N2 Cu1D 1_555 1_555
C1D O1D 1_555 1_555
C2D N1D 1_555 1_555
Cu1_2 N2D 1_555 1_555
C4D C3D 1_555 1_555

#END
