
#######################################################################
#
#                 Cambridge Crystallographic Data Centre
#                                CCDC 
#
#######################################################################
#
# If this CIF has been generated from an entry in the Cambridge 
# Structural Database, then it will include bibliographic, chemical, 
# crystal, experimental, refinement or atomic coordinate data resulting 
# from the CCDC's data processing and validation procedures.
#
#######################################################################

data_ZIDTIR
_symmetry_cell_setting           triclinic
_symmetry_space_group_name_H-M   'P -1'
_symmetry_Int_Tables_number      2
_space_group_name_Hall           '-P 1'
loop_
_symmetry_equiv_pos_site_id
_symmetry_equiv_pos_as_xyz
1 x,y,z
2 -x,-y,-z
_cell_length_a                   9.0536(11)
_cell_length_b                   10.4806(12)
_cell_length_c                   13.4765(16)
_cell_angle_alpha                100.3860(10)
_cell_angle_beta                 102.3950(10)
_cell_angle_gamma                103.0420(10)
_cell_volume                     1181.05
loop_
_atom_site_label
_atom_site_type_symbol
_atom_site_fract_x
_atom_site_fract_y
_atom_site_fract_z
Ce1 Ce 1.02561(2) 0.213176(18) 0.023145(14)
Ce2 Ce 0.64075(2) 0.394193(18) -0.078584(14)
S1 S 0.95730(16) 0.62986(15) 0.42296(8)
S2 S 0.7759(2) -0.02173(17) -0.48627(9)
S3 S 0.6413(2) 0.17788(16) 0.35413(10)
O1 O 1.1330(3) 0.4719(2) 0.14002(19)
O2 O 0.8789(3) 0.3968(2) 0.06792(19)
O3 O 0.8006(3) 0.6341(2) 0.05222(18)
O4 O 0.6511(3) 0.7164(2) 0.14566(19)
O5 O 0.8878(3) -0.2017(3) -0.2136(2)
O6 O 0.9474(3) -0.0008(2) -0.10735(19)
O7 O 0.8340(3) 0.2315(2) -0.12910(19)
O8 O 0.6210(3) 0.2292(3) -0.2455(2)
O9 O 0.7752(3) 0.1109(2) 0.0541(2)
O10 O 0.5747(3) 0.1843(2) -0.01661(19)
O11 O 0.5372(3) 0.4275(2) 0.07732(18)
O12 O 0.4482(3) 0.4785(3) 0.2137(2)
O13 O 1.2755(3) 0.1536(3) 0.0263(2)
H1 H 1.3531 0.1903 0.0064
H2 H 1.2844 0.0747 0.0241
C1 C 1.0336(5) 0.5498(4) 0.3319(3)
H3 H 1.1119 0.5069 0.3478
C2 C 0.9653(4) 0.5568(4) 0.2335(3)
C3 C 0.8513(4) 0.6327(4) 0.2321(3)
C4 C 0.8369(5) 0.6775(4) 0.3300(3)
H4 H 0.7688 0.7284 0.3445
C5 C 0.9944(4) 0.4746(3) 0.1406(3)
C6 C 0.7603(4) 0.6638(3) 0.1381(3)
C7 C 0.8501(8) -0.0890(5) -0.3868(3)
H5 H 0.8921 -0.1621 -0.3963
C8 C 0.8413(5) -0.0244(4) -0.2919(3)
C9 C 0.7691(5) 0.0837(4) -0.3014(3)
C10 C 0.7256(6) 0.0930(5) -0.4023(3)
H6 H 0.6742 0.1550 -0.4232
C11 C 0.8941(4) -0.0788(4) -0.1995(3)
C12 C 0.7388(4) 0.1858(3) -0.2198(3)
C13 C 0.6796(6) 0.1256(5) 0.2373(4)
H7 H 0.7228 0.0541 0.2225
C14 C 0.6399(4) 0.1998(4) 0.1682(3)
C15 C 0.5776(4) 0.3054(4) 0.2125(3)
C16 C 0.5752(6) 0.3046(5) 0.3133(3)
H8 H 0.5411 0.3663 0.3551
C17 C 0.6626(4) 0.1640(3) 0.0609(3)
C18 C 0.5179(4) 0.4088(3) 0.1653(3)
Ce1A Ce 0.97439(2) -0.213176(18) -0.023145(14)
Ce1A_2 Ce 0.97439(2) 0.786824(18) -0.023145(14)
Ce2A Ce 0.35925(2) 0.605807(18) 0.078584(14)
Ce2A_2 Ce 1.35925(2) 0.605807(18) 0.078584(14)
O1A O 0.8670(3) 0.5281(2) -0.14002(19)
O3A O 1.1994(3) 0.3659(2) -0.05222(18)
O4A O 0.3489(3) 0.2836(2) -0.14566(19)
O5A O 1.1122(3) 0.2017(3) 0.2136(2)
O6A O 1.0526(3) 0.0008(2) 0.10735(19)
O11A O 0.4628(3) 0.5725(2) -0.07732(18)
O12A O 0.5518(3) 0.5215(3) -0.2137(2)
O14 O 0.5317(7) 0.3494(7) 0.5649(4)
H9 H 0.5252 0.3146 0.6164
H10 H 0.5783 0.4306 0.5699
O15 O 0.7022(7) 0.5999(7) 0.5860(5)
H11 H 0.7452 0.6636 0.6405
H12 H 0.6440 0.6257 0.5399
loop_
_geom_bond_atom_site_label_1
_geom_bond_atom_site_label_2
_geom_bond_site_symmetry_1
_geom_bond_site_symmetry_2
Ce1 O1 1_555 1_555
Ce2 O2 1_555 1_555
S1 C1 1_555 1_555
S2 C7 1_555 1_555
S3 C13 1_555 1_555
O1 C5 1_555 1_555
O2 Ce1 1_555 1_555
O3 Ce2 1_555 1_555
O4 C6 1_555 1_555
O5 C11 1_555 1_555
O6 Ce1 1_555 1_555
O7 Ce1 1_555 1_555
O8 Ce2 1_555 1_555
O9 Ce1 1_555 1_555
O10 Ce2 1_555 1_555
O11 Ce2 1_555 1_555
O12 C18 1_555 1_555
O13 Ce1 1_555 1_555
H1 O13 1_555 1_555
H2 O13 1_555 1_555
C1 H3 1_555 1_555
C2 C1 1_555 1_555
C3 C2 1_555 1_555
C4 S1 1_555 1_555
H4 C4 1_555 1_555
C5 O2 1_555 1_555
C6 O3 1_555 1_555
C7 H5 1_555 1_555
C8 C7 1_555 1_555
C9 C8 1_555 1_555
C10 S2 1_555 1_555
H6 C10 1_555 1_555
C11 O6 1_555 1_555
C12 O7 1_555 1_555
C13 H7 1_555 1_555
C14 C13 1_555 1_555
C15 C14 1_555 1_555
C16 S3 1_555 1_555
H8 C16 1_555 1_555
C17 O9 1_555 1_555
C18 O11 1_555 1_555
O14 H9 1_555 1_555
H10 O14 1_555 1_555
O15 H11 1_555 1_555
H12 O15 1_555 1_555
Ce1A O5 1_555 1_555
Ce1A_2 O3 1_555 1_555
Ce2A O4 1_555 1_555
Ce2A_2 O1 1_555 1_555
O1A Ce2 1_555 1_555
O3A Ce1 1_555 1_555
O4A Ce2 1_555 1_555
O5A Ce1 1_555 1_555
O6A Ce1 1_555 1_555
O11A Ce2 1_555 1_555
O12A Ce2 1_555 1_555
Ce2 O7 1_555 1_555
O6 Ce1A 1_555 1_555
O8 C12 1_555 1_555
O10 C17 1_555 1_555
O11 Ce2A 1_555 1_555
O12 Ce2A 1_555 1_555
C2 C5 1_555 1_555
C3 C4 1_555 1_555
C3 C6 1_555 1_555
C8 C11 1_555 1_555
C9 C10 1_555 1_555
C9 C12 1_555 1_555
C14 C17 1_555 1_555
C15 C16 1_555 1_555
C15 C18 1_555 1_555
Ce1A O6A 1_555 1_555
Ce1A_2 O1A 1_555 1_555
Ce2A O11A 1_555 1_555
Ce2A_2 O3A 1_555 1_555

#END
