
#######################################################################
#
#                 Cambridge Crystallographic Data Centre
#                                CCDC 
#
#######################################################################
#
# If this CIF has been generated from an entry in the Cambridge 
# Structural Database, then it will include bibliographic, chemical, 
# crystal, experimental, refinement or atomic coordinate data resulting 
# from the CCDC's data processing and validation procedures.
#
#######################################################################

data_ZIDVIT
_symmetry_cell_setting           monoclinic
_symmetry_space_group_name_H-M   'P 21/c'
_symmetry_Int_Tables_number      14
_space_group_name_Hall           '-P 2ybc'
loop_
_symmetry_equiv_pos_site_id
_symmetry_equiv_pos_as_xyz
1 x,y,z
2 -x,1/2+y,1/2-z
3 -x,-y,-z
4 x,1/2-y,1/2+z
_cell_length_a                   7.2476(3)
_cell_length_b                   20.6138(11)
_cell_length_c                   17.0317(7)
_cell_angle_alpha                90
_cell_angle_beta                 94.787(4)
_cell_angle_gamma                90
_cell_volume                     2535.67
loop_
_atom_site_label
_atom_site_type_symbol
_atom_site_fract_x
_atom_site_fract_y
_atom_site_fract_z
Zn1 Zn 0.19480(7) 0.34477(3) 0.07946(3)
N1 N 0.3517(5) 0.5386(2) 0.0706(2)
N2 N 0.1519(6) 0.3057(2) -0.1568(2)
O1 O 0.4640(4) 0.32384(17) 0.09314(18)
O2 O 0.3129(4) 0.23183(16) 0.09380(17)
O3 O 0.5364(5) 0.19609(18) -0.0612(2)
O4 O 0.6639(5) 0.12342(18) 0.18839(19)
O5 O -0.0162(4) 0.34014(15) 0.14062(16)
O6 O 0.1588(4) 0.40041(17) 0.22561(16)
O7 O -0.0214(5) 0.3237(2) 0.3775(2)
O8 O -0.2019(5) 0.5139(2) 0.26260(18)
O9 O 0.2256(4) 0.43985(17) 0.05152(18)
O10 O 0.0959(4) 0.32402(16) -0.03075(16)
C1 C 0.4590(7) 0.2620(3) 0.0931(2)
C2 C 0.6415(6) 0.2267(2) 0.0873(3)
H1 H 0.7142 0.2492 0.0488
H2 H 0.7140 0.2276 0.1392
N3 N 0.6107(5) 0.1589(2) 0.0623(2)
C3 C 0.5498(6) 0.1501(3) -0.0176(3)
C4 C 0.5017(6) 0.0831(2) -0.0424(2)
C5 C 0.5211(5) 0.0316(2) 0.0121(2)
C6 C 0.5854(5) 0.0434(2) 0.0924(2)
C7 C 0.6228(6) 0.1106(3) 0.1194(3)
C8 C 0.4365(5) 0.0713(2) -0.1192(3)
H3 H 0.4209 0.1061 -0.1557
C9 C 0.6067(6) -0.0079(3) 0.1436(2)
H4 H 0.6517 -0.0003 0.1968
C10 C 0.0116(6) 0.3754(2) 0.2024(3)
C11 C -0.1608(6) 0.3841(3) 0.2469(3)
H5 H -0.2551 0.4085 0.2135
H6 H -0.2132 0.3409 0.2577
N4 N -0.1207(5) 0.4184(2) 0.3211(2)
C12 C -0.0453(6) 0.3814(3) 0.3849(3)
C13 C -0.0015(5) 0.4161(3) 0.4602(2)
C14 C -0.0231(5) 0.4838(2) 0.4638(2)
C15 C -0.0912(6) 0.5195(3) 0.3971(2)
C16 C -0.1422(6) 0.4850(3) 0.3216(3)
C17 C 0.0643(6) 0.3821(2) 0.5260(3)
H7 H 0.0789 0.3364 0.5234
C18 C -0.1102(6) 0.5851(3) 0.4026(3)
H8 H -0.1553 0.6091 0.3574
C19 C 0.3283(7) 0.4783(3) 0.0906(3)
H9 H 0.3933 0.4630 0.1377
C20 C 0.4819(8) 0.5804(3) 0.1166(3)
H10 H 0.5275 0.5580 0.1652
H11 H 0.4194 0.6206 0.1298
H12 H 0.5863 0.5906 0.0857
C21 C 0.2530(7) 0.5661(3) 0.0012(3)
H13 H 0.2154 0.5314 -0.0360
H14 H 0.3339 0.5967 -0.0237
H15 H 0.1429 0.5891 0.0163
C22 C 0.1877(7) 0.2997(2) -0.0811(2)
H16 H 0.2927 0.2745 -0.0631
C23 C 0.2648(8) 0.2755(3) -0.2126(3)
H17 H 0.3734 0.2554 -0.1842
H18 H 0.3053 0.3084 -0.2490
H19 H 0.1922 0.2422 -0.2424
C24 C -0.0114(9) 0.3391(4) -0.1872(3)
H20 H -0.1194 0.3206 -0.1643
H21 H -0.0263 0.3343 -0.2447
H22 H -0.0006 0.3852 -0.1736
O1B O 0.5360(4) -0.32384(17) -0.09314(18)
O2B O 0.6871(4) -0.23183(16) -0.09380(17)
O3B O 0.4636(5) -0.19609(18) 0.0612(2)
O4B O 0.3361(5) -0.12342(18) -0.18839(19)
C1B C 0.5410(7) -0.2620(3) -0.0931(2)
C2B C 0.3585(6) -0.2267(2) -0.0873(3)
H1B H 0.2858 -0.2492 -0.0488
H2B H 0.2860 -0.2276 -0.1392
N3B N 0.3893(5) -0.1589(2) -0.0623(2)
C3B C 0.4502(6) -0.1501(3) 0.0176(3)
C4B C 0.4983(6) -0.0831(2) 0.0424(2)
C5B C 0.4789(5) -0.0316(2) -0.0121(2)
C6B C 0.4146(5) -0.0434(2) -0.0924(2)
C7B C 0.3772(6) -0.1106(3) -0.1194(3)
C8B C 0.5635(5) -0.0713(2) 0.1192(3)
H3B H 0.5791 -0.1061 0.1557
C9B C 0.3933(6) 0.0079(3) -0.1436(2)
H4B H 0.3483 0.0003 -0.1968
O5B O 0.0162(4) 0.65986(15) 0.85938(16)
O6B O -0.1588(4) 0.59959(17) 0.77439(16)
O7B O 0.0214(5) 0.6763(2) 0.6225(2)
O8B O 0.2019(5) 0.4861(2) 0.73740(18)
C10B C -0.0116(6) 0.6246(2) 0.7976(3)
C11B C 0.1608(6) 0.6159(3) 0.7531(3)
H5B H 0.2551 0.5915 0.7865
H6B H 0.2132 0.6591 0.7423
N4B N 0.1207(5) 0.5816(2) 0.6789(2)
C12B C 0.0453(6) 0.6186(3) 0.6151(3)
C13B C 0.0015(5) 0.5839(3) 0.5398(2)
C14B C 0.0231(5) 0.5162(2) 0.5362(2)
C15B C 0.0912(6) 0.4805(3) 0.6029(2)
C16B C 0.1422(6) 0.5150(3) 0.6784(3)
C17B C -0.0643(6) 0.6179(2) 0.4740(3)
H7B H -0.0789 0.6636 0.4766
C18B C 0.1102(6) 0.4149(3) 0.5974(3)
H8B H 0.1553 0.3909 0.6426
Zn1B Zn -0.19480(7) 0.65523(3) 0.92054(3)
N1B N -0.3517(5) 0.4614(2) 0.9294(2)
N2B N -0.1519(6) 0.6943(2) 1.1568(2)
O9B O -0.2256(4) 0.56015(17) 0.94848(18)
O10B O -0.0959(4) 0.67598(16) 1.03075(16)
C19B C -0.3283(7) 0.5217(3) 0.9094(3)
H9B H -0.3933 0.5370 0.8623
C20B C -0.4819(8) 0.4196(3) 0.8834(3)
H10B H -0.5275 0.4420 0.8348
H11B H -0.4194 0.3794 0.8702
H12B H -0.5863 0.4094 0.9143
C21B C -0.2530(7) 0.4339(3) 0.9988(3)
H13B H -0.2154 0.4686 1.0360
H14B H -0.3339 0.4033 1.0237
H15B H -0.1429 0.4109 0.9837
C22B C -0.1877(7) 0.7003(2) 1.0811(2)
H16B H -0.2927 0.7255 1.0631
C23B C -0.2648(8) 0.7245(3) 1.2126(3)
H17B H -0.3734 0.7446 1.1842
H18B H -0.3053 0.6916 1.2490
H19B H -0.1922 0.7578 1.2424
C24B C 0.0114(9) 0.6609(4) 1.1872(3)
H20B H 0.1194 0.6794 1.1643
H21B H 0.0263 0.6657 1.2447
H22B H 0.0006 0.6148 1.1736
Zn1B_2 Zn 0.80520(7) -0.34477(3) -0.07946(3)
O1B_2 O -0.4640(4) 0.67616(17) 0.90686(18)
O2B_2 O -0.3129(4) 0.76817(16) 0.90620(17)
loop_
_geom_bond_atom_site_label_1
_geom_bond_atom_site_label_2
_geom_bond_site_symmetry_1
_geom_bond_site_symmetry_2
Zn1 O1 1_555 1_555
N1 C19 1_555 1_555
N2 C22 1_555 1_555
O1 C1 1_555 1_555
O2 Zn1 1_555 1_555
O3 C3 1_555 1_555
O4 C7 1_555 1_555
O5 Zn1 1_555 1_555
O6 C10 1_555 1_555
O7 C12 1_555 1_555
O8 C16 1_555 1_555
O9 Zn1 1_555 1_555
O10 Zn1 1_555 1_555
C1 O2 1_555 1_555
C2 C1 1_555 1_555
H1 C2 1_555 1_555
H2 C2 1_555 1_555
N3 C2 1_555 1_555
C3 N3 1_555 1_555
C4 C3 1_555 1_555
C5 C4 1_555 1_555
C6 C5 1_555 1_555
C7 N3 1_555 1_555
C8 C4 1_555 1_555
H3 C8 1_555 1_555
C9 C6 1_555 1_555
H4 C9 1_555 1_555
C10 O5 1_555 1_555
C11 C10 1_555 1_555
H5 C11 1_555 1_555
H6 C11 1_555 1_555
N4 C11 1_555 1_555
C12 N4 1_555 1_555
C13 C12 1_555 1_555
C14 C13 1_555 1_555
C15 C14 1_555 1_555
C16 N4 1_555 1_555
C17 C13 1_555 1_555
H7 C17 1_555 1_555
C18 C15 1_555 1_555
H8 C18 1_555 1_555
C19 O9 1_555 1_555
H9 C19 1_555 1_555
C20 N1 1_555 1_555
H10 C20 1_555 1_555
H11 C20 1_555 1_555
H12 C20 1_555 1_555
C21 N1 1_555 1_555
H13 C21 1_555 1_555
H14 C21 1_555 1_555
H15 C21 1_555 1_555
C22 O10 1_555 1_555
H16 C22 1_555 1_555
C23 N2 1_555 1_555
H17 C23 1_555 1_555
H18 C23 1_555 1_555
H19 C23 1_555 1_555
C24 N2 1_555 1_555
H20 C24 1_555 1_555
H21 C24 1_555 1_555
H22 C24 1_555 1_555
O1B C1B 1_555 1_555
O2B C1B 1_555 1_555
O3B C3B 1_555 1_555
O4B C7B 1_555 1_555
C1B C2B 1_555 1_555
C2B H1B 1_555 1_555
H2B C2B 1_555 1_555
N3B C2B 1_555 1_555
C3B N3B 1_555 1_555
C4B C3B 1_555 1_555
C5B C5 1_555 1_555
C6B C5B 1_555 1_555
C7B N3B 1_555 1_555
C8B C9 1_555 1_555
H3B C8B 1_555 1_555
C9B C8 1_555 1_555
H4B C9B 1_555 1_555
O5B C10B 1_555 1_555
O6B C10B 1_555 1_555
O7B C12B 1_555 1_555
O8B C16B 1_555 1_555
C10B C11B 1_555 1_555
C11B H5B 1_555 1_555
H6B C11B 1_555 1_555
N4B C11B 1_555 1_555
C12B N4B 1_555 1_555
C13B C12B 1_555 1_555
C14B C14 1_555 1_555
C15B C14B 1_555 1_555
C16B N4B 1_555 1_555
C17B C18 1_555 1_555
H7B C17B 1_555 1_555
C18B C17 1_555 1_555
H8B C18B 1_555 1_555
Zn1B O5B 1_555 1_555
N1B C19B 1_555 1_555
N2B C22B 1_555 1_555
O9B Zn1B 1_555 1_555
O10B Zn1B 1_555 1_555
C19B O9B 1_555 1_555
H9B C19B 1_555 1_555
C20B N1B 1_555 1_555
H10B C20B 1_555 1_555
H11B C20B 1_555 1_555
H12B C20B 1_555 1_555
C21B N1B 1_555 1_555
H13B C21B 1_555 1_555
H14B C21B 1_555 1_555
H15B C21B 1_555 1_555
C22B O10B 1_555 1_555
H16B C22B 1_555 1_555
C23B N2B 1_555 1_555
H17B C23B 1_555 1_555
H18B C23B 1_555 1_555
H19B C23B 1_555 1_555
C24B N2B 1_555 1_555
H20B C24B 1_555 1_555
H21B C24B 1_555 1_555
H22B C24B 1_555 1_555
Zn1B_2 O1B 1_555 1_555
O1B_2 Zn1B 1_555 1_555
O2B_2 Zn1B 1_555 1_555
C6 C7 1_555 1_555
C15 C16 1_555 1_555
O2B Zn1B_2 1_555 1_555
C4B C5B 1_555 1_555
C4B C8B 1_555 1_555
C6B C7B 1_555 1_555
C6B C9B 1_555 1_555
C13B C14B 1_555 1_555
C13B C17B 1_555 1_555
C15B C16B 1_555 1_555
C15B C18B 1_555 1_555

#END
