
#######################################################################
#
#                 Cambridge Crystallographic Data Centre
#                                CCDC 
#
#######################################################################
#
# If this CIF has been generated from an entry in the Cambridge 
# Structural Database, then it will include bibliographic, chemical, 
# crystal, experimental, refinement or atomic coordinate data resulting 
# from the CCDC's data processing and validation procedures.
#
#######################################################################

data_ZIDVAL
_symmetry_cell_setting           monoclinic
_symmetry_space_group_name_H-M   'P 21/c'
_symmetry_Int_Tables_number      14
_space_group_name_Hall           '-P 2ybc'
loop_
_symmetry_equiv_pos_site_id
_symmetry_equiv_pos_as_xyz
1 x,y,z
2 -x,1/2+y,1/2-z
3 -x,-y,-z
4 x,1/2-y,1/2+z
_cell_length_a                   14.169(2)
_cell_length_b                   21.586(4)
_cell_length_c                   12.781(2)
_cell_angle_alpha                90
_cell_angle_beta                 114.173(2)
_cell_angle_gamma                90
_cell_volume                     3566.32
loop_
_atom_site_label
_atom_site_type_symbol
_atom_site_fract_x
_atom_site_fract_y
_atom_site_fract_z
C1 C 0.1732(2) 0.58320(13) 0.4860(2)
H1 H 0.1141 0.5627 0.4820
C2 C 0.2983(3) 0.65045(17) 0.5333(3)
H2 H 0.3421 0.6838 0.5660
C3 C 0.3076(3) 0.60817(17) 0.4601(3)
H3 H 0.3596 0.6078 0.4335
C4 C 0.1672(2) 0.66685(13) 0.6164(2)
C5 C 0.1049(2) 0.63419(13) 0.6571(2)
H4 H 0.0967 0.5916 0.6456
C6 C 0.0552(2) 0.66490(13) 0.7149(2)
H5 H 0.0112 0.6429 0.7388
C7 C 0.0694(2) 0.72804(13) 0.7381(2)
C8 C 0.1366(3) 0.75937(14) 0.7007(3)
H6 H 0.1496 0.8012 0.7176
C9 C 0.1840(2) 0.72952(14) 0.6391(3)
H7 H 0.2268 0.7514 0.6133
C10 C 0.0138(2) 0.75926(13) 0.8001(2)
C11 C -0.0198(3) 0.72568(14) 0.8716(3)
H8 H -0.0046 0.6836 0.8828
C12 C -0.0749(3) 0.75324(14) 0.9260(3)
H9 H -0.0963 0.7300 0.9737
C13 C -0.0985(2) 0.81607(13) 0.9094(2)
C14 C -0.0644(2) 0.85063(13) 0.8410(2)
H10 H -0.0790 0.8928 0.8309
C15 C -0.0085(2) 0.82235(13) 0.7873(2)
H11 H 0.0147 0.8460 0.7417
C16 C -0.2246(3) 0.81623(16) 0.9994(3)
H12 H -0.2504 0.7762 0.9803
C17 C -0.2493(3) 0.85708(16) 1.0639(3)
H13 H -0.2954 0.8497 1.0975
C18 C -0.1400(2) 0.90218(12) 1.0141(2)
H14 H -0.0956 0.9316 1.0056
C19 C 0.2122(2) 0.57269(13) 0.1082(2)
C20 C 0.28513(19) 0.61472(12) 0.0823(2)
C21 C 0.3765(2) 0.63451(14) 0.1699(2)
H15 H 0.3930 0.6216 0.2448
C22 C 0.4436(2) 0.67334(14) 0.1466(2)
H16 H 0.5046 0.6868 0.2054
C23 C 0.4183(2) 0.69161(12) 0.0349(2)
C24 C 0.3282(2) 0.67218(16) -0.0533(3)
H17 H 0.3123 0.6846 -0.1283
C25 C 0.2616(2) 0.63356(15) -0.0280(2)
H18 H 0.2003 0.6204 -0.0868
C26 C 0.5912(2) 0.69685(12) -0.0214(2)
C27 C 0.6787(2) 0.67573(15) 0.0694(2)
H19 H 0.6890 0.6843 0.1447
C28 C 0.7510(2) 0.64149(15) 0.0461(2)
H20 H 0.8095 0.6264 0.1064
C29 C 0.7369(2) 0.62964(12) -0.0657(2)
C30 C 0.6493(2) 0.65174(15) -0.1552(2)
H21 H 0.6395 0.6441 -0.2306
C31 C 0.5756(2) 0.68529(14) -0.1331(2)
H22 H 0.5164 0.6998 -0.1933
C32 C 0.8164(2) 0.59336(12) -0.0913(2)
Mn1 Mn 0.20022(3) 0.486868(19) 0.30518(3)
Mn2 Mn 0.0000 0.5000 0.0000
N1 N 0.2283(2) 0.56578(11) 0.4309(2)
N2 N 0.21191(18) 0.63469(11) 0.5499(2)
N3 N -0.15430(18) 0.84488(11) 0.9672(2)
N4 N -0.19561(18) 0.91147(11) 1.0726(2)
N5 N -0.0338(2) 0.50096(12) 0.2266(3)
O1 O 0.24551(18) 0.54988(13) 0.20529(19)
O2 O 0.12462(16) 0.56447(11) 0.02890(18)
O3 O 0.55583(19) 0.77817(11) 0.1078(2)
O4 O 0.44023(18) 0.77571(10) -0.0995(2)
O5 O 0.89319(17) 0.57397(11) -0.00838(18)
O6 O 0.79875(19) 0.58769(11) -0.19419(18)
O7 O 0.03623(15) 0.49770(9) 0.19045(17)
O8 O -0.02205(19) 0.50255(9) 0.32735(19)
O9 O 0.37403(17) 0.46842(13) 0.3932(2)
H23 H 0.4067 0.5003 0.3874
H24 H 0.3904 0.4604 0.4636
S1 S 0.50060(5) 0.74384(3) 0.00489(6)
C1B C -0.1732(2) 0.41680(13) -0.4860(2)
H1B H -0.1141 0.4373 -0.4820
C2B C -0.2983(3) 0.34955(17) -0.5333(3)
H2B H -0.3421 0.3162 -0.5660
C3B C -0.3076(3) 0.39183(17) -0.4601(3)
H3B H -0.3596 0.3922 -0.4335
C4B C -0.1672(2) 0.33315(13) -0.6164(2)
C5B C -0.1049(2) 0.36581(13) -0.6571(2)
H4B H -0.0967 0.4084 -0.6456
C6B C -0.0552(2) 0.33510(13) -0.7149(2)
H5B H -0.0112 0.3571 -0.7388
C7B C -0.0694(2) 0.27196(13) -0.7381(2)
C8B C -0.1366(3) 0.24063(14) -0.7007(3)
H6B H -0.1496 0.1988 -0.7176
C9B C -0.1840(2) 0.27048(14) -0.6391(3)
H7B H -0.2268 0.2486 -0.6133
C10B C -0.0138(2) 0.24074(13) -0.8001(2)
C11B C 0.0198(3) 0.27432(14) -0.8716(3)
H8B H 0.0046 0.3164 -0.8828
C12B C 0.0749(3) 0.24676(14) -0.9260(3)
H9B H 0.0963 0.2700 -0.9737
C13B C 0.0985(2) 0.18393(13) -0.9094(2)
C14B C 0.0644(2) 0.14937(13) -0.8410(2)
H10B H 0.0790 0.1072 -0.8309
C15B C 0.0085(2) 0.17765(13) -0.7873(2)
H11B H -0.0147 0.1540 -0.7417
C16B C 0.2246(3) 0.18377(16) -0.9994(3)
H12B H 0.2504 0.2238 -0.9803
C17B C 0.2493(3) 0.14292(16) -1.0639(3)
H13B H 0.2954 0.1503 -1.0975
C18B C 0.1400(2) 0.09782(12) -1.0141(2)
H14B H 0.0956 0.0684 -1.0056
C19B C -0.2122(2) 0.42731(13) -0.1082(2)
C20B C -0.28513(19) 0.38528(12) -0.0823(2)
C21B C -0.3765(2) 0.36549(14) -0.1699(2)
H15B H -0.3930 0.3784 -0.2448
C22B C -0.4436(2) 0.32666(14) -0.1466(2)
H16B H -0.5046 0.3132 -0.2054
C23B C -0.4183(2) 0.30839(12) -0.0349(2)
C24B C -0.3282(2) 0.32782(16) 0.0533(3)
H17B H -0.3123 0.3154 0.1283
C25B C -0.2616(2) 0.36644(15) 0.0280(2)
H18B H -0.2003 0.3796 0.0868
C26B C -0.5912(2) 0.30315(12) 0.0214(2)
C27B C -0.6787(2) 0.32427(15) -0.0694(2)
H19B H -0.6890 0.3157 -0.1447
C28B C -0.7510(2) 0.35851(15) -0.0461(2)
H20B H -0.8095 0.3736 -0.1064
C29B C -0.7369(2) 0.37036(12) 0.0657(2)
C30B C -0.6493(2) 0.34826(15) 0.1552(2)
H21B H -0.6395 0.3559 0.2306
C31B C -0.5756(2) 0.31471(14) 0.1331(2)
H22B H -0.5164 0.3002 0.1933
C32B C -0.8164(2) 0.40664(12) 0.0913(2)
Mn1B Mn -0.20022(3) 0.513132(19) -0.30518(3)
N1B N -0.2283(2) 0.43422(11) -0.4309(2)
N2B N -0.21191(18) 0.36531(11) -0.5499(2)
N3B N 0.15430(18) 0.15512(11) -0.9672(2)
N4B N 0.19561(18) 0.08853(11) -1.0726(2)
N5B N 0.0338(2) 0.49904(12) -0.2266(3)
O1B O -0.24551(18) 0.45012(13) -0.20529(19)
O2B O -0.12462(16) 0.43553(11) -0.02890(18)
O3B O -0.55583(19) 0.22183(11) -0.1078(2)
O4B O -0.44023(18) 0.22429(10) 0.0995(2)
O5B O -0.89319(17) 0.42603(11) 0.00838(18)
O6B O -0.79875(19) 0.41231(11) 0.19419(18)
O7B O -0.03623(15) 0.50230(9) -0.19045(17)
O8B O 0.02205(19) 0.49745(9) -0.32735(19)
O9B O -0.37403(17) 0.53158(13) -0.3932(2)
H23B H -0.4067 0.4997 -0.3874
H24B H -0.3904 0.5396 -0.4636
S1B S -0.50060(5) 0.25616(3) -0.00489(6)
Mn1_2 Mn -0.79978(3) 0.486868(19) 0.30518(3)
Mn1A Mn -0.20022(3) 0.986868(19) 1.19482(3)
Mn1B_2 Mn 0.79978(3) 0.513132(19) -0.30518(3)
Mn1C Mn 0.20022(3) 0.013132(19) -1.19482(3)
Mn2_2 Mn -1.0000 0.5000 0.0000
Mn2_3 Mn 1.0000 0.5000 0.0000
N4A N 0.19561(18) 0.41147(11) 0.4274(2)
N4C N -0.19561(18) 0.58853(11) -0.4274(2)
O5_2 O -0.10681(17) 0.57397(11) -0.00838(18)
O5B_2 O 0.10681(17) 0.42603(11) 0.00838(18)
O6_2 O -0.20125(19) 0.58769(11) -0.19419(18)
O6B_2 O 0.20125(19) 0.41231(11) 0.19419(18)
C33 C 0.5063(11) 0.4759(6) 0.1659(13)
H25 H 0.4635 0.4722 0.2075
H26 H 0.5202 0.4354 0.1445
H27 H 0.4712 0.5002 0.0981
C34 C 0.6832(8) 0.5076(4) 0.2022(9)
H28 H 0.7367 0.5335 0.2549
H29 H 0.6598 0.5246 0.1264
H30 H 0.7101 0.4667 0.2029
C35 C 0.6037(4) 0.5299(4) 0.3305(5)
H31 H 0.6646 0.5506 0.3751
N6 N 0.5997(4) 0.5047(2) 0.2353(4)
O10 O 0.5375(2) 0.5293(2) 0.3667(3)
loop_
_geom_bond_atom_site_label_1
_geom_bond_atom_site_label_2
_geom_bond_site_symmetry_1
_geom_bond_site_symmetry_2
C1 H1 1_555 1_555
C2 H2 1_555 1_555
C3 C2 1_555 1_555
H3 C3 1_555 1_555
C4 C5 1_555 1_555
C5 H4 1_555 1_555
C6 C5 1_555 1_555
H5 C6 1_555 1_555
C7 C6 1_555 1_555
C8 C7 1_555 1_555
H6 C8 1_555 1_555
C9 C4 1_555 1_555
H7 C9 1_555 1_555
C10 C7 1_555 1_555
C11 C10 1_555 1_555
H8 C11 1_555 1_555
C12 C11 1_555 1_555
H9 C12 1_555 1_555
C13 C12 1_555 1_555
C14 C13 1_555 1_555
H10 C14 1_555 1_555
C15 C10 1_555 1_555
H11 C15 1_555 1_555
C16 H12 1_555 1_555
C17 C16 1_555 1_555
H13 C17 1_555 1_555
C18 H14 1_555 1_555
C19 C20 1_555 1_555
C20 C21 1_555 1_555
C21 H15 1_555 1_555
C22 C21 1_555 1_555
H16 C22 1_555 1_555
C23 C22 1_555 1_555
C24 C23 1_555 1_555
H17 C24 1_555 1_555
C25 C20 1_555 1_555
H18 C25 1_555 1_555
C26 C27 1_555 1_555
C27 H19 1_555 1_555
C28 C27 1_555 1_555
H20 C28 1_555 1_555
C29 C28 1_555 1_555
C30 C29 1_555 1_555
H21 C30 1_555 1_555
C31 C26 1_555 1_555
H22 C31 1_555 1_555
C32 C29 1_555 1_555
Mn1 N1 1_555 1_555
Mn2 O2 1_555 1_555
N1 C1 1_555 1_555
N2 C1 1_555 1_555
N3 C13 1_555 1_555
N4 C17 1_555 1_555
N5 O7 1_555 1_555
O1 C19 1_555 1_555
O2 C19 1_555 1_555
O3 S1 1_555 1_555
O4 S1 1_555 1_555
O5 C32 1_555 1_555
O6 C32 1_555 1_555
O7 Mn1 1_555 1_555
O8 N5 1_555 1_555
O9 Mn1 1_555 1_555
H23 O9 1_555 1_555
H24 O9 1_555 1_555
S1 C23 1_555 1_555
C33 H25 1_555 1_555
H26 C33 1_555 1_555
H27 C33 1_555 1_555
C34 H28 1_555 1_555
H29 C34 1_555 1_555
H30 C34 1_555 1_555
C35 H31 1_555 1_555
N6 C33 1_555 1_555
O10 C35 1_555 1_555
C1B H1B 1_555 1_555
C2B H2B 1_555 1_555
C3B C2B 1_555 1_555
H3B C3B 1_555 1_555
C4B C5B 1_555 1_555
C5B H4B 1_555 1_555
C6B C5B 1_555 1_555
H5B C6B 1_555 1_555
C7B C6B 1_555 1_555
C8B C7B 1_555 1_555
H6B C8B 1_555 1_555
C9B C4B 1_555 1_555
H7B C9B 1_555 1_555
C10B C7B 1_555 1_555
C11B C10B 1_555 1_555
H8B C11B 1_555 1_555
C12B C11B 1_555 1_555
H9B C12B 1_555 1_555
C13B C12B 1_555 1_555
C14B C13B 1_555 1_555
H10B C14B 1_555 1_555
C15B C10B 1_555 1_555
H11B C15B 1_555 1_555
C16B H12B 1_555 1_555
C17B C16B 1_555 1_555
H13B C17B 1_555 1_555
C18B H14B 1_555 1_555
C19B C20B 1_555 1_555
C20B C21B 1_555 1_555
C21B H15B 1_555 1_555
C22B C21B 1_555 1_555
H16B C22B 1_555 1_555
C23B C22B 1_555 1_555
C24B C23B 1_555 1_555
H17B C24B 1_555 1_555
C25B C20B 1_555 1_555
H18B C25B 1_555 1_555
C26B C27B 1_555 1_555
C27B H19B 1_555 1_555
C28B C27B 1_555 1_555
H20B C28B 1_555 1_555
C29B C28B 1_555 1_555
C30B C29B 1_555 1_555
H21B C30B 1_555 1_555
C31B C26B 1_555 1_555
H22B C31B 1_555 1_555
C32B C29B 1_555 1_555
Mn1B N1B 1_555 1_555
N1B C1B 1_555 1_555
N2B C1B 1_555 1_555
N3B C13B 1_555 1_555
N4B C17B 1_555 1_555
N5B O7B 1_555 1_555
O1B C19B 1_555 1_555
O2B Mn2 1_555 1_555
O3B S1B 1_555 1_555
O4B S1B 1_555 1_555
O5B C32B 1_555 1_555
O6B C32B 1_555 1_555
O7B Mn2 1_555 1_555
O8B N5B 1_555 1_555
O9B Mn1B 1_555 1_555
H23B O9B 1_555 1_555
H24B O9B 1_555 1_555
S1B C23B 1_555 1_555
Mn1_2 O6B 1_555 1_555
Mn1A N4 1_555 1_555
Mn1B_2 O6 1_555 1_555
Mn1C N4B 1_555 1_555
Mn2_2 O5B 1_555 1_555
Mn2_3 O5 1_555 1_555
N4A Mn1 1_555 1_555
N4C Mn1B 1_555 1_555
O5_2 Mn2 1_555 1_555
O5B_2 Mn2 1_555 1_555
O6_2 Mn1B 1_555 1_555
O6B_2 Mn1 1_555 1_555
C2 N2 1_555 1_555
C3 N1 1_555 1_555
C4 N2 1_555 1_555
C8 C9 1_555 1_555
C14 C15 1_555 1_555
C16 N3 1_555 1_555
C18 N3 1_555 1_555
C18 N4 1_555 1_555
C24 C25 1_555 1_555
C26 S1 1_555 1_555
C30 C31 1_555 1_555
Mn1 O1 1_555 1_555
Mn2 O7 1_555 1_555
C34 N6 1_555 1_555
C35 N6 1_555 1_555
C2B N2B 1_555 1_555
C3B N1B 1_555 1_555
C4B N2B 1_555 1_555
C8B C9B 1_555 1_555
C14B C15B 1_555 1_555
C16B N3B 1_555 1_555
C18B N3B 1_555 1_555
C18B N4B 1_555 1_555
C19B O2B 1_555 1_555
C24B C25B 1_555 1_555
C26B S1B 1_555 1_555
C30B C31B 1_555 1_555
Mn1B O1B 1_555 1_555
Mn1B O7B 1_555 1_555

#END
