
#######################################################################
#
#                 Cambridge Crystallographic Data Centre
#                                CCDC 
#
#######################################################################
#
# If this CIF has been generated from an entry in the Cambridge 
# Structural Database, then it will include bibliographic, chemical, 
# crystal, experimental, refinement or atomic coordinate data resulting 
# from the CCDC's data processing and validation procedures.
#
#######################################################################

data_ZIDVEP
_symmetry_cell_setting           monoclinic
_symmetry_space_group_name_H-M   'P 21/c'
_symmetry_Int_Tables_number      14
_space_group_name_Hall           '-P 2ybc'
loop_
_symmetry_equiv_pos_site_id
_symmetry_equiv_pos_as_xyz
1 x,y,z
2 -x,1/2+y,1/2-z
3 -x,-y,-z
4 x,1/2-y,1/2+z
_cell_length_a                   6.1474(7)
_cell_length_b                   14.6635(16)
_cell_length_c                   15.0208(17)
_cell_angle_alpha                90
_cell_angle_beta                 99.627(2)
_cell_angle_gamma                90
_cell_volume                     1334.94
loop_
_atom_site_label
_atom_site_type_symbol
_atom_site_fract_x
_atom_site_fract_y
_atom_site_fract_z
C1 C -0.0017(11) 0.1877(5) 0.1559(5)
C2 C 0.0424(14) 0.3467(5) 0.3182(5)
C3 C 0.1765(10) 0.2103(4) 0.2320(4)
C4 C 0.1956(11) 0.2752(4) 0.2990(4)
C5 C 0.4948(10) 0.1912(4) 0.3202(4)
C6 C 0.7087(10) 0.1524(4) 0.3596(5)
C7 C 0.7914(11) 0.0781(4) 0.3164(5)
H1 H 0.7086 0.0542 0.2641
C8 C 0.9947(13) 0.0401(5) 0.3506(6)
H2 H 1.0513 -0.0079 0.3212
C9 C 1.1090(11) 0.0750(5) 0.4284(6)
C10 C 1.0283(12) 0.1472(5) 0.4706(5)
C11 C 0.8302(11) 0.1869(5) 0.4384(5)
H3 H 0.7782 0.2356 0.4685
C12 C 1.3550(13) 0.1086(6) 0.5470(6)
H4 H 1.4891 0.1423 0.5435
H5 H 1.3774 0.0742 0.6030
N1 N 0.3646(8) 0.1582(3) 0.2458(4)
N2 N 0.3957(9) 0.2612(3) 0.3541(3)
O1 O 0.0240(9) 0.1270(4) 0.1036(4)
O2 O -0.1441(8) 0.3530(3) 0.2668(3)
H6 H -0.1537 0.3133 0.2279
O3 O 0.0948(13) 0.3978(5) 0.3814(5)
O4 O 1.3084(9) 0.0488(4) 0.4734(5)
O5 O 1.1774(9) 0.1697(4) 0.5458(4)
O6 O -0.1819(8) 0.2346(3) 0.1491(3)
H7 H 0.4304 0.2990 0.3988
O7 O -0.4994(12) 0.1291(7) 0.0174(5)
H8 H -0.4978 0.1740 0.0463
H9 H -0.5160 0.0812 0.0453
O8 O -0.4053(12) 0.0198(4) -0.1663(6)
H10 H -0.3894 -0.0237 -0.1989
H11 H -0.3378 0.0507 -0.1982
Sr1 Sr -0.13089(19) 0.00302(7) -0.01172(7)
O1B O -0.0240(9) -0.1270(4) -0.1036(4)
O3A O -0.0948(13) -0.1022(5) 0.1186(5)
O3C O 0.0948(13) 0.1022(5) -0.1186(5)
O7B O -0.5006(12) -0.1291(7) -0.0174(5)
Sr1A Sr 0.13089(19) 0.50302(7) 0.51172(7)
Sr1B Sr -0.86911(19) -0.00302(7) 0.01172(7)
Sr1B_2 Sr 0.13089(19) -0.00302(7) 0.01172(7)
Sr1C Sr -0.13089(19) 0.49698(7) 0.48828(7)
loop_
_geom_bond_atom_site_label_1
_geom_bond_atom_site_label_2
_geom_bond_site_symmetry_1
_geom_bond_site_symmetry_2
C1 C3 1_555 1_555
C2 C4 1_555 1_555
C3 C4 1_555 1_555
C4 N2 1_555 1_555
C5 C6 1_555 1_555
C6 C7 1_555 1_555
C7 H1 1_555 1_555
C8 C7 1_555 1_555
H2 C8 1_555 1_555
C9 C8 1_555 1_555
C10 C9 1_555 1_555
C11 C6 1_555 1_555
H3 C11 1_555 1_555
C12 H4 1_555 1_555
H5 C12 1_555 1_555
N1 C3 1_555 1_555
N2 C5 1_555 1_555
O1 C1 1_555 1_555
O2 C2 1_555 1_555
H6 O2 1_555 1_555
O3 C2 1_555 1_555
O4 C9 1_555 1_555
O5 C10 1_555 1_555
O6 C1 1_555 1_555
H7 N2 1_555 1_555
O7 H8 1_555 1_555
H9 O7 1_555 1_555
O8 H10 1_555 1_555
H11 O8 1_555 1_555
Sr1 O1 1_555 1_555
O1B Sr1 1_555 1_555
O3A Sr1 1_555 1_555
O3C Sr1 1_555 1_555
O7B Sr1 1_555 1_555
Sr1A O3 1_555 1_555
Sr1B O7 1_555 1_555
Sr1B_2 O1 1_555 1_555
Sr1C O3 1_555 1_555
C5 N1 1_555 1_555
C10 C11 1_555 1_555
C12 O4 1_555 1_555
C12 O5 1_555 1_555
O7 Sr1 1_555 1_555
O8 Sr1 1_555 1_555
Sr1 Sr1B_2 1_555 1_555
O1B Sr1B_2 1_555 1_555
O3A Sr1B_2 1_555 1_555
O3C Sr1B_2 1_555 1_555
O7B Sr1B 1_555 1_555
Sr1A Sr1C 1_555 1_555

#END
