
#######################################################################
#
#                 Cambridge Crystallographic Data Centre
#                                CCDC 
#
#######################################################################
#
# If this CIF has been generated from an entry in the Cambridge 
# Structural Database, then it will include bibliographic, chemical, 
# crystal, experimental, refinement or atomic coordinate data resulting 
# from the CCDC's data processing and validation procedures.
#
#######################################################################

data_ZIDWAM
_symmetry_cell_setting           monoclinic
_symmetry_space_group_name_H-M   'C 2/c'
_symmetry_Int_Tables_number      15
_space_group_name_Hall           '-C 2yn'
loop_
_symmetry_equiv_pos_site_id
_symmetry_equiv_pos_as_xyz
1 x,y,z
2 -x,y,1/2-z
3 1/2+x,1/2+y,z
4 1/2-x,1/2+y,1/2-z
5 -x,-y,-z
6 x,-y,1/2+z
7 1/2-x,1/2-y,-z
8 1/2+x,1/2-y,1/2+z
_cell_length_a                   44.860(4)
_cell_length_b                   15.1635(14)
_cell_length_c                   15.6748(14)
_cell_angle_alpha                90
_cell_angle_beta                 97.550(4)
_cell_angle_gamma                90
_cell_volume                     10570.1
loop_
_atom_site_label
_atom_site_type_symbol
_atom_site_fract_x
_atom_site_fract_y
_atom_site_fract_z
Gd1 Gd 0.099611(10) 0.16107(3) 0.06720(2)
O1 O 0.27941(14) 0.4050(4) 0.0901(4)
N1 N 0.15022(19) 0.2929(5) -0.0324(5)
C1 C 0.2841(2) 0.2673(6) 0.2925(5)
O2 O 0.22938(14) 0.3088(4) 0.0543(4)
N2 N 0.38566(18) -0.2924(5) 0.2244(4)
C2 C 0.2910(2) 0.3324(5) 0.2321(6)
H1 H 0.3079 0.3695 0.2470
O3 O 0.26672(14) -0.1074(4) 0.1150(4)
N3 N 0.44531(18) 0.4998(5) 0.3617(4)
C3 C 0.2736(2) 0.3435(6) 0.1521(6)
O4 O 0.31631(15) -0.1662(4) 0.2065(4)
C4 C 0.2478(2) 0.2900(6) 0.1309(5)
O5 O 0.42219(16) 0.1125(4) 0.4053(5)
N4 N 0.15359(19) 0.0485(5) 0.1127(5)
C5 C 0.2415(2) 0.2238(5) 0.1891(5)
H2 H 0.2246 0.1867 0.1740
O6 O 0.41409(15) 0.2801(4) 0.3681(4)
N5 N 0.07709(18) 0.0889(6) -0.1045(5)
C6 C 0.2595(2) 0.2105(6) 0.2689(5)
O7 O 0.14095(16) 0.2447(5) 0.0322(4)
N6 N 0.0500(2) 0.2889(6) 0.0336(5)
C7 C 0.2522(2) 0.1313(6) 0.3243(6)
H3 H 0.2304 0.1184 0.3136
H4 H 0.2574 0.1459 0.3860
O8 O 0.39923(14) -0.2624(4) 0.3014(3)
C8 C 0.2703(2) 0.0487(6) 0.3022(5)
O9 O 0.42000(14) 0.5487(4) 0.3488(3)
C9 C 0.2596(2) 0.0059(5) 0.2227(5)
H5 H 0.2414 0.0257 0.1901
C10 C 0.2754(2) -0.0652(6) 0.1919(5)
O10 O 0.14616(14) 0.1081(4) 0.1647(4)
C11 C 0.3018(2) -0.0944(6) 0.2426(5)
O11 O 0.17631(18) 0.0017(5) 0.1296(5)
C12 C 0.3124(2) -0.0536(5) 0.3207(5)
H6 H 0.3301 -0.0751 0.3539
O12 O 0.13599(15) 0.0385(4) 0.0418(4)
C13 C 0.2971(2) 0.0184(6) 0.3506(5)
O13 O 0.07186(14) 0.0492(4) -0.0346(4)
C14 C 0.3127(2) 0.0657(6) 0.4318(5)
H7 H 0.2976 0.1012 0.4576
H8 H 0.3209 0.0211 0.4747
O14 O 0.06837(16) 0.0553(5) -0.1757(4)
C15 C 0.3383(2) 0.1264(6) 0.4110(5)
O15 O 0.09136(18) 0.1618(5) -0.0944(4)
C16 C 0.3676(2) 0.0904(6) 0.4179(5)
H9 H 0.3705 0.0304 0.4342
O16 O 0.07803(17) 0.3117(4) 0.0307(4)
C17 C 0.3925(2) 0.1414(6) 0.4012(6)
O17 O 0.0291(2) 0.3438(5) 0.0239(7)
C18 C 0.3882(2) 0.2320(6) 0.3799(6)
O18 O 0.04558(14) 0.2077(4) 0.0477(4)
C19 C 0.3589(2) 0.2667(6) 0.3705(5)
H10 H 0.3558 0.3261 0.3522
C20 C 0.3340(2) 0.2162(6) 0.3874(5)
C21 C 0.3034(2) 0.2654(6) 0.3810(5)
H11 H 0.2914 0.2381 0.4225
H12 H 0.3075 0.3271 0.3996
C22 C 0.3074(2) 0.4537(7) 0.1074(7)
H13 H 0.3071 0.4895 0.1594
H14 H 0.3096 0.4924 0.0586
H15 H 0.3243 0.4123 0.1160
C23 C 0.2006(2) 0.2633(6) 0.0439(6)
H16 H 0.1910 0.2687 0.0970
H17 H 0.2036 0.1999 0.0324
C24 C 0.1809(2) 0.3050(6) -0.0310(5)
C25 C 0.1911(2) 0.3563(5) -0.0967(6)
H18 H 0.2119 0.3674 -0.0963
C26 C 0.1703(2) 0.3905(6) -0.1617(6)
H19 H 0.1772 0.4225 -0.2074
C27 C 0.1396(3) 0.3784(7) -0.1610(6)
H20 H 0.1255 0.4030 -0.2050
C28 C 0.1300(3) 0.3297(7) -0.0943(7)
H21 H 0.1091 0.3221 -0.0922
C29 C 0.2433(2) -0.0622(7) 0.0556(6)
H22 H 0.2247 -0.0590 0.0819
H23 H 0.2396 -0.0951 0.0015
H24 H 0.2500 -0.0024 0.0441
C30 C 0.3459(2) -0.1878(6) 0.2470(6)
H25 H 0.3452 -0.2096 0.3063
H26 H 0.3591 -0.1353 0.2498
C31 C 0.3574(2) -0.2586(6) 0.1922(5)
C32 C 0.3427(2) -0.2902(6) 0.1139(6)
H27 H 0.3235 -0.2678 0.0914
C33 C 0.3564(2) -0.3548(6) 0.0694(6)
H28 H 0.3465 -0.3769 0.0163
C34 C 0.3847(2) -0.3872(6) 0.1030(6)
H29 H 0.3941 -0.4311 0.0725
C35 C 0.3992(2) -0.3552(6) 0.1811(6)
H30 H 0.4184 -0.3774 0.2039
C36 C 0.4273(3) 0.0191(7) 0.4217(8)
H31 H 0.4221 0.0043 0.4787
H32 H 0.4486 0.0054 0.4195
H33 H 0.4148 -0.0154 0.3778
C37 C 0.4112(2) 0.3750(6) 0.3605(6)
H34 H 0.4003 0.3989 0.4064
H35 H 0.4001 0.3913 0.3039
C38 C 0.4429(2) 0.4104(6) 0.3692(5)
C39 C 0.4688(2) 0.3607(7) 0.3809(7)
H36 H 0.4675 0.2986 0.3871
C40 C 0.4970(3) 0.4002(7) 0.3838(8)
H37 H 0.5148 0.3654 0.3921
C41 C 0.4989(2) 0.4900(7) 0.3745(7)
H38 H 0.5180 0.5177 0.3767
C42 C 0.4732(2) 0.5397(6) 0.3622(5)
H39 H 0.4745 0.6015 0.3539
Gd1C Gd 0.400389(10) -0.33893(3) 0.43280(2)
Gd1C_2 Gd 0.400389(10) 0.66107(3) 0.43280(2)
O8C O 0.10077(14) 0.2376(4) 0.1986(3)
O9C O 0.08000(14) 0.0487(4) 0.1512(3)
N7 N 0.4535(2) -0.1936(6) 0.1506(5)
C43 C 0.4684(6) -0.2419(16) 0.2268(17)
H40 H 0.4657 -0.2174 0.2810
C44 C 0.4227(6) -0.1235(17) 0.1425(16)
H41 H 0.4169 -0.1262 0.0820
O19 O 0.4837(4) -0.3082(12) 0.2298(10)
C45 C 0.4578(5) -0.2288(16) 0.0922(15)
H42 H 0.4785 -0.2173 0.0814
H43 H 0.4438 -0.2081 0.0431
H44 H 0.4551 -0.2922 0.1000
H45 H 0.4295 -0.0638 0.1594
H46 H 0.4085 -0.1442 0.1805
N8? N 0.4436(2) -0.1631(6) 0.1630(5)
C46? C 0.4578(5) -0.2288(16) 0.0922(15)
H47? H 0.4418 -0.2654 0.0623
H48? H 0.4734 -0.2667 0.1228
H49? H 0.4667 -0.1925 0.0502
C47? C 0.4623(8) -0.141(2) 0.240(2)
H50? H 0.4512 -0.1033 0.2756
H51? H 0.4801 -0.1092 0.2258
H52? H 0.4687 -0.1949 0.2716
C48? C 0.4227(6) -0.1235(17) 0.1425(16)
H53? H 0.4128 -0.1229 0.0829
O20? O 0.4046(5) -0.0750(15) 0.1803(14)
loop_
_geom_bond_atom_site_label_1
_geom_bond_atom_site_label_2
_geom_bond_site_symmetry_1
_geom_bond_site_symmetry_2
Gd1 O7 1_555 1_555
O1 C3 1_555 1_555
N1 O7 1_555 1_555
C1 C2 1_555 1_555
O2 C4 1_555 1_555
N2 O8 1_555 1_555
C2 H1 1_555 1_555
O3 C10 1_555 1_555
N3 O9 1_555 1_555
C3 C2 1_555 1_555
O4 C11 1_555 1_555
C4 C3 1_555 1_555
O5 C17 1_555 1_555
N4 O10 1_555 1_555
C5 C4 1_555 1_555
H2 C5 1_555 1_555
O6 C18 1_555 1_555
N5 O13 1_555 1_555
C6 C1 1_555 1_555
N6 O16 1_555 1_555
C7 C6 1_555 1_555
H3 C7 1_555 1_555
H4 C7 1_555 1_555
O8 Gd1C 1_555 1_555
C8 C7 1_555 1_555
O9 Gd1C_2 1_555 1_555
C9 C8 1_555 1_555
H5 C9 1_555 1_555
C10 C9 1_555 1_555
O10 Gd1 1_555 1_555
C11 C10 1_555 1_555
O11 N4 1_555 1_555
C12 C11 1_555 1_555
H6 C12 1_555 1_555
O12 Gd1 1_555 1_555
C13 C8 1_555 1_555
O13 Gd1 1_555 1_555
C14 C13 1_555 1_555
H7 C14 1_555 1_555
H8 C14 1_555 1_555
O14 N5 1_555 1_555
C15 C14 1_555 1_555
O15 Gd1 1_555 1_555
C16 C15 1_555 1_555
H9 C16 1_555 1_555
O16 Gd1 1_555 1_555
C17 C16 1_555 1_555
O17 N6 1_555 1_555
C18 C17 1_555 1_555
O18 Gd1 1_555 1_555
C19 C18 1_555 1_555
H10 C19 1_555 1_555
C20 C15 1_555 1_555
C21 C1 1_555 1_555
H11 C21 1_555 1_555
H12 C21 1_555 1_555
C22 O1 1_555 1_555
H13 C22 1_555 1_555
H14 C22 1_555 1_555
H15 C22 1_555 1_555
C23 O2 1_555 1_555
H16 C23 1_555 1_555
H17 C23 1_555 1_555
C24 N1 1_555 1_555
C25 C24 1_555 1_555
H18 C25 1_555 1_555
C26 C25 1_555 1_555
H19 C26 1_555 1_555
C27 C26 1_555 1_555
H20 C27 1_555 1_555
C28 N1 1_555 1_555
H21 C28 1_555 1_555
C29 O3 1_555 1_555
H22 C29 1_555 1_555
H23 C29 1_555 1_555
H24 C29 1_555 1_555
C30 O4 1_555 1_555
H25 C30 1_555 1_555
H26 C30 1_555 1_555
C31 N2 1_555 1_555
C32 C31 1_555 1_555
H27 C32 1_555 1_555
C33 C32 1_555 1_555
H28 C33 1_555 1_555
C34 C33 1_555 1_555
H29 C34 1_555 1_555
C35 N2 1_555 1_555
H30 C35 1_555 1_555
C36 O5 1_555 1_555
H31 C36 1_555 1_555
H32 C36 1_555 1_555
H33 C36 1_555 1_555
C37 O6 1_555 1_555
H34 C37 1_555 1_555
H35 C37 1_555 1_555
C38 N3 1_555 1_555
C39 C38 1_555 1_555
H36 C39 1_555 1_555
C40 C39 1_555 1_555
H37 C40 1_555 1_555
C41 C40 1_555 1_555
H38 C41 1_555 1_555
C42 N3 1_555 1_555
H39 C42 1_555 1_555
N7 C43 1_555 1_555
C43 H40 1_555 1_555
C44 N7 1_555 1_555
H41 C44 1_555 1_555
O19 C43 1_555 1_555
C45 N7 1_555 1_555
H42 C45 1_555 1_555
H43 C45 1_555 1_555
H44 C45 1_555 1_555
H45 C44 1_555 1_555
H46 C44 1_555 1_555
O8C Gd1 1_555 1_555
O9C Gd1 1_555 1_555
N4 O12 1_555 1_555
C5 C6 1_555 1_555
N5 O15 1_555 1_555
N6 O18 1_555 1_555
C12 C13 1_555 1_555
C19 C20 1_555 1_555
C20 C21 1_555 1_555
C23 C24 1_555 1_555
C27 C28 1_555 1_555
C30 C31 1_555 1_555
C34 C35 1_555 1_555
C37 C38 1_555 1_555
C41 C42 1_555 1_555

#END
