
#######################################################################
#
#                 Cambridge Crystallographic Data Centre
#                                CCDC 
#
#######################################################################
#
# If this CIF has been generated from an entry in the Cambridge 
# Structural Database, then it will include bibliographic, chemical, 
# crystal, experimental, refinement or atomic coordinate data resulting 
# from the CCDC's data processing and validation procedures.
#
#######################################################################

data_ZIDXAN
_symmetry_cell_setting           monoclinic
_symmetry_space_group_name_H-M   'P 21/c'
_symmetry_Int_Tables_number      14
_space_group_name_Hall           '-P 2ybc'
loop_
_symmetry_equiv_pos_site_id
_symmetry_equiv_pos_as_xyz
1 x,y,z
2 -x,1/2+y,1/2-z
3 -x,-y,-z
4 x,1/2-y,1/2+z
_cell_length_a                   10.3065(10)
_cell_length_b                   12.5605(12)
_cell_length_c                   15.3345(14)
_cell_angle_alpha                90
_cell_angle_beta                 103.4630(10)
_cell_angle_gamma                90
_cell_volume                     1930.57
loop_
_atom_site_label
_atom_site_type_symbol
_atom_site_fract_x
_atom_site_fract_y
_atom_site_fract_z
O1 O 0.0857(3) 0.0539(3) 0.6600(2)
C1 C 0.1908(3) 0.0859(3) 0.6419(3)
O2 O 0.2098(3) 0.0925(3) 0.56507(18)
Ag1 Ag 0.06980(3) 0.46234(3) 0.938111(19)
Ag2 Ag 0.34191(3) 0.56619(2) 0.98319(2)
O3 O 0.4196(2) 0.4253(2) 0.92659(19)
O4 O 0.2133(3) 0.4006(3) 0.84816(19)
N1 N 0.0319(3) 0.7922(2) 0.9896(2)
N2 N 0.2030(3) 0.6834(2) 1.0098(2)
C2 C 0.1256(4) 0.7497(3) 0.9527(3)
C3 C 0.3738(3) 0.2675(3) 0.8366(2)
C4 C -0.0752(4) 0.8665(3) 0.9484(3)
H1 H -0.1609 0.8342 0.9481
H2 H -0.0715 0.8793 0.8867
C5 C 0.0503(4) 0.7519(3) 1.0745(3)
H3 H 0.0000 0.7675 1.1160
C6 C 0.2642(3) 0.2271(3) 0.7575(2)
H4 H 0.1821 0.2169 0.7771
H5 H 0.2477 0.2801 0.7102
C7 C 0.3047(3) 0.1215(3) 0.7205(2)
C8 C 0.5018(3) 0.2818(3) 0.8039(3)
H6 H 0.5722 0.3083 0.8525
H7 H 0.4872 0.3334 0.7556
C9 C 0.3962(4) 0.1838(3) 0.9106(2)
H8 H 0.3148 0.1738 0.9310
H9 H 0.4654 0.2076 0.9611
C10 C 0.3253(4) 0.0400(3) 0.7965(3)
H10 H 0.3489 -0.0284 0.7752
H11 H 0.2433 0.0314 0.8165
C11 C 0.5439(4) 0.1752(4) 0.7708(3)
H12 H 0.6271 0.1851 0.7512
C12 C 0.4349(4) 0.1377(4) 0.6910(3)
H13 H 0.4220 0.1904 0.6435
H14 H 0.4617 0.0714 0.6679
C13 C 0.4377(5) 0.0784(3) 0.8752(3)
H15 H 0.4520 0.0252 0.9232
C14 C 0.5662(5) 0.0937(4) 0.8447(4)
H16 H 0.6363 0.1176 0.8946
H17 H 0.5936 0.0267 0.8232
C15 C 0.1546(4) 0.6859(3) 1.0862(3)
H18 H 0.1894 0.6474 1.1382
C16 C -0.0645(4) 0.9716(3) 0.9977(3)
H19 H -0.1374 1.0172 0.9681
H20 H -0.0743 0.9589 1.0583
C17 C 0.1408(5) 0.7714(4) 0.8605(3)
H21 H 0.2282 0.7996 0.8632
H22 H 0.0747 0.8222 0.8321
H23 H 0.1292 0.7065 0.8266
C18 C 0.3316(3) 0.3721(3) 0.8727(2)
N1B N -0.0319(3) 1.2078(2) 1.0104(2)
N2B N -0.2030(3) 1.3166(2) 0.9902(2)
C2B C -0.1256(4) 1.2503(3) 1.0473(3)
C4B C 0.0752(4) 1.1335(3) 1.0516(3)
H1B H 0.1609 1.1658 1.0519
H2B H 0.0715 1.1207 1.1133
C5B C -0.0503(4) 1.2481(3) 0.9255(3)
H3B H 0.0000 1.2325 0.8840
C15B C -0.1546(4) 1.3141(3) 0.9138(3)
H18B H -0.1894 1.3526 0.8618
C16B C 0.0645(4) 1.0284(3) 1.0023(3)
H19B H 0.1374 0.9828 1.0319
H20B H 0.0743 1.0411 0.9417
C17B C -0.1408(5) 1.2286(4) 1.1395(3)
H21B H -0.2282 1.2004 1.1368
H22B H -0.0747 1.1778 1.1679
H23B H -0.1292 1.2935 1.1734
O1B O -0.0857(3) 0.9461(3) 1.3400(2)
C1B C -0.1908(3) 0.9141(3) 1.3581(3)
O2B O -0.2098(3) 0.9075(3) 1.43493(18)
Ag1B Ag -0.06980(3) 0.53766(3) 1.061889(19)
Ag2B Ag -0.34191(3) 0.43381(2) 1.01681(2)
O3B O -0.4196(2) 0.5747(2) 1.07341(19)
O4B O -0.2133(3) 0.5994(3) 1.15184(19)
C3B C -0.3738(3) 0.7325(3) 1.1634(2)
C6B C -0.2642(3) 0.7729(3) 1.2425(2)
H4B H -0.1821 0.7831 1.2229
H5B H -0.2477 0.7199 1.2898
C7B C -0.3047(3) 0.8785(3) 1.2795(2)
C8B C -0.5018(3) 0.7182(3) 1.1961(3)
H6B H -0.5722 0.6917 1.1475
H7B H -0.4872 0.6666 1.2444
C9B C -0.3962(4) 0.8162(3) 1.0894(2)
H8B H -0.3148 0.8262 1.0690
H9B H -0.4654 0.7924 1.0389
C10B C -0.3253(4) 0.9600(3) 1.2035(3)
H10B H -0.3489 1.0284 1.2248
H11B H -0.2433 0.9686 1.1835
C11B C -0.5439(4) 0.8248(4) 1.2292(3)
H12B H -0.6271 0.8149 1.2488
C12B C -0.4349(4) 0.8623(4) 1.3090(3)
H13B H -0.4220 0.8096 1.3565
H14B H -0.4617 0.9286 1.3321
C13B C -0.4377(5) 0.9216(3) 1.1248(3)
H15B H -0.4520 0.9748 1.0768
C14B C -0.5662(5) 0.9063(4) 1.1553(4)
H16B H -0.6363 0.8824 1.1054
H17B H -0.5936 0.9733 1.1768
C18B C -0.3316(3) 0.6279(3) 1.1273(2)
O1A O -0.0857(3) 0.5539(3) 0.8400(2)
O1C O 0.0857(3) 0.4461(3) 1.1600(2)
O2A O -0.2098(3) 0.5925(3) 0.93493(18)
O2C O 0.2098(3) 0.4075(3) 1.06507(18)
Ag1A Ag -0.06980(3) -0.03766(3) 0.561889(19)
Ag1A_2 Ag -0.06980(3) 0.96234(3) 1.561889(19)
Ag1C Ag 0.06980(3) 0.03766(3) 0.438111(19)
Ag1C_2 Ag 0.06980(3) 1.03766(3) 1.438111(19)
Ag2_2 Ag -0.65809(3) 0.56619(2) 0.98319(2)
Ag2B_2 Ag -0.34191(3) 1.43381(2) 1.01681(2)
Ag2B_3 Ag 0.65809(3) 0.43381(2) 1.01681(2)
O3_2 O -0.5804(2) 0.4253(2) 0.92659(19)
O3B_2 O 0.5804(2) 0.5747(2) 1.07341(19)
N2B_2 N -0.2030(3) 0.3166(2) 0.9902(2)
O5 O 0.9307(5) 0.0414(4) 0.7832(3)
H24 H 0.872(3) 0.006(3) 0.748(2)
H25 H 0.996(3) 0.053(3) 0.761(2)
loop_
_geom_bond_atom_site_label_1
_geom_bond_atom_site_label_2
_geom_bond_site_symmetry_1
_geom_bond_site_symmetry_2
O1 C1 1_555 1_555
C1 O2 1_555 1_555
O2 Ag1C 1_555 1_555
Ag1 Ag2 1_555 1_555
Ag2 O3 1_555 1_555
O3 C18 1_555 1_555
O4 Ag1 1_555 1_555
N1 C2 1_555 1_555
N2 Ag2 1_555 1_555
C2 N2 1_555 1_555
C3 C6 1_555 1_555
C4 N1 1_555 1_555
H1 C4 1_555 1_555
H2 C4 1_555 1_555
C5 N1 1_555 1_555
H3 C5 1_555 1_555
C6 H4 1_555 1_555
H5 C6 1_555 1_555
C7 C1 1_555 1_555
C8 C3 1_555 1_555
H6 C8 1_555 1_555
H7 C8 1_555 1_555
C9 C3 1_555 1_555
H8 C9 1_555 1_555
H9 C9 1_555 1_555
C10 C7 1_555 1_555
H10 C10 1_555 1_555
H11 C10 1_555 1_555
C11 C8 1_555 1_555
H12 C11 1_555 1_555
C12 C7 1_555 1_555
H13 C12 1_555 1_555
H14 C12 1_555 1_555
C13 C9 1_555 1_555
H15 C13 1_555 1_555
C14 C11 1_555 1_555
H16 C14 1_555 1_555
H17 C14 1_555 1_555
C15 N2 1_555 1_555
H18 C15 1_555 1_555
C16 C4 1_555 1_555
H19 C16 1_555 1_555
H20 C16 1_555 1_555
C17 C2 1_555 1_555
H21 C17 1_555 1_555
H22 C17 1_555 1_555
H23 C17 1_555 1_555
C18 O4 1_555 1_555
O5 H24 1_555 1_555
H25 O5 1_555 1_555
N1B C2B 1_555 1_555
N2B C2B 1_555 1_555
C2B C17B 1_555 1_555
C4B N1B 1_555 1_555
H1B C4B 1_555 1_555
H2B C4B 1_555 1_555
C5B N1B 1_555 1_555
H3B C5B 1_555 1_555
C15B N2B 1_555 1_555
H18B C15B 1_555 1_555
C16B C16 1_555 1_555
H19B C16B 1_555 1_555
H20B C16B 1_555 1_555
C17B H21B 1_555 1_555
H22B C17B 1_555 1_555
H23B C17B 1_555 1_555
O1B C1B 1_555 1_555
C1B O2B 1_555 1_555
O2B Ag1A_2 1_555 1_555
Ag1B Ag1 1_555 1_555
Ag2B Ag1B 1_555 1_555
O3B Ag2B 1_555 1_555
O4B Ag1B 1_555 1_555
C3B C6B 1_555 1_555
C6B H4B 1_555 1_555
H5B C6B 1_555 1_555
C7B C1B 1_555 1_555
C8B C3B 1_555 1_555
H6B C8B 1_555 1_555
H7B C8B 1_555 1_555
C9B C3B 1_555 1_555
H8B C9B 1_555 1_555
H9B C9B 1_555 1_555
C10B C7B 1_555 1_555
H10B C10B 1_555 1_555
H11B C10B 1_555 1_555
C11B C8B 1_555 1_555
H12B C11B 1_555 1_555
C12B C7B 1_555 1_555
H13B C12B 1_555 1_555
H14B C12B 1_555 1_555
C13B C9B 1_555 1_555
H15B C13B 1_555 1_555
C14B C11B 1_555 1_555
H16B C14B 1_555 1_555
H17B C14B 1_555 1_555
C18B O3B 1_555 1_555
O1A Ag1 1_555 1_555
O1C Ag1B 1_555 1_555
O2A Ag1B 1_555 1_555
O2C Ag1 1_555 1_555
Ag1A O1 1_555 1_555
Ag1A_2 Ag1C_2 1_555 1_555
Ag1C Ag1A 1_555 1_555
Ag1C_2 O1B 1_555 1_555
Ag2_2 O3B 1_555 1_555
Ag2B_2 N2B 1_555 1_555
Ag2B_3 O3 1_555 1_555
O3_2 Ag2B 1_555 1_555
O3B_2 Ag2 1_555 1_555
N2B_2 Ag2B 1_555 1_555
C3 C18 1_555 1_555
C5 C15 1_555 1_555
C6 C7 1_555 1_555
C10 C13 1_555 1_555
C11 C12 1_555 1_555
C13 C14 1_555 1_555
C4B C16B 1_555 1_555
C5B C15B 1_555 1_555
O4B C18B 1_555 1_555
C3B C18B 1_555 1_555
C6B C7B 1_555 1_555
C10B C13B 1_555 1_555
C11B C12B 1_555 1_555
C13B C14B 1_555 1_555
Ag2_2 O3_2 1_555 1_555
Ag2B_3 O3B_2 1_555 1_555

#END
