
#######################################################################
#
#                 Cambridge Crystallographic Data Centre
#                                CCDC 
#
#######################################################################
#
# If this CIF has been generated from an entry in the Cambridge 
# Structural Database, then it will include bibliographic, chemical, 
# crystal, experimental, refinement or atomic coordinate data resulting 
# from the CCDC's data processing and validation procedures.
#
#######################################################################

data_ZIDYOC
_symmetry_cell_setting           monoclinic
_symmetry_space_group_name_H-M   'P 21/c'
_symmetry_Int_Tables_number      14
_space_group_name_Hall           '-P 2ybc'
loop_
_symmetry_equiv_pos_site_id
_symmetry_equiv_pos_as_xyz
1 x,y,z
2 -x,1/2+y,1/2-z
3 -x,-y,-z
4 x,1/2-y,1/2+z
_cell_length_a                   15.787(2)
_cell_length_b                   26.747(3)
_cell_length_c                   9.4444(12)
_cell_angle_alpha                90
_cell_angle_beta                 106.120(2)
_cell_angle_gamma                90
_cell_volume                     3831.15
loop_
_atom_site_label
_atom_site_type_symbol
_atom_site_fract_x
_atom_site_fract_y
_atom_site_fract_z
U1 U 0.01341(3) 0.480946(13) -0.20705(4)
U2 U 0.16818(3) 0.330543(13) 0.32220(4)
P1 P 0.1541(2) 0.44562(10) 0.0832(3)
P2 P 0.2062(2) 0.19749(10) 0.4501(3)
P3 P 0.1275(2) 0.44818(10) 0.5175(3)
O1 O 0.0771(5) 0.5355(2) -0.2070(9)
O2 O -0.0472(5) 0.4252(3) -0.2060(9)
O3 O 0.0749(5) 0.4783(3) 0.0705(8)
O4 O 0.0930(6) 0.4865(3) 0.3949(8)
O5 O 0.1469(5) 0.4346(3) -0.0807(8)
O6 O 0.0625(5) 0.4437(3) 0.6102(8)
O7 O 0.2841(6) 0.3403(3) 0.3802(9)
O8 O 0.0535(6) 0.3190(3) 0.2636(9)
O9 O 0.1759(6) 0.2018(3) 0.5882(9)
O10 O 0.1555(5) 0.3986(3) 0.1690(8)
O11 O 0.1442(6) 0.3977(3) 0.4611(9)
O12 O 0.1757(8) 0.3056(3) 0.5777(10)
O13 O 0.1921(7) 0.2441(3) 0.3592(9)
O14 O 0.1554(7) 0.1549(3) 0.3467(8)
H1 H 0.1435 0.1324 0.3969
C1 C 0.2542(8) 0.4808(5) 0.1645(14)
C2 C 0.2794(10) 0.5177(5) 0.0838(17)
H2 H 0.2461 0.5244 -0.0121
C3 C 0.3539(10) 0.5444(5) 0.1466(18)
H3 H 0.3714 0.5691 0.0913
C4 C 0.4037(13) 0.5362(7) 0.2876(18)
H4 H 0.4540 0.5551 0.3286
C5 C 0.3763(11) 0.4971(6) 0.3724(17)
H5 H 0.4080 0.4906 0.4694
C6 C 0.3034(10) 0.4705(6) 0.3065(14)
H6 H 0.2860 0.4447 0.3579
C7 C 0.3211(7) 0.1828(4) 0.5011(14)
C8 C 0.3505(8) 0.1365(4) 0.5620(15)
H7 H 0.3103 0.1128 0.5754
C9 C 0.4401(9) 0.1256(5) 0.6031(19)
H8 H 0.4598 0.0946 0.6439
C10 C 0.5003(6) 0.1609(8) 0.583(3)
H9 H 0.5603 0.1536 0.6107
C11 C 0.4709(10) 0.2072(7) 0.522(3)
H10 H 0.5112 0.2309 0.5089
C12 C 0.3813(11) 0.2181(4) 0.481(2)
H11 H 0.3616 0.2491 0.4403
C13 C 0.2287(10) 0.4724(5) 0.6301(14)
C14 C 0.2480(10) 0.5226(5) 0.6424(19)
H12 H 0.2054 0.5454 0.5933
C15 C 0.3313(16) 0.5407(8) 0.728(2)
H13 H 0.3433 0.5748 0.7364
C16 C 0.3951(13) 0.5054(9) 0.800(2)
H14 H 0.4504 0.5163 0.8553
C17 C 0.3769(12) 0.4561(8) 0.789(2)
H15 H 0.4195 0.4332 0.8376
C18 C 0.2921(10) 0.4389(7) 0.7040(17)
H16 H 0.2797 0.4048 0.6983
U1_2 U 0.01341(3) 0.480946(13) 0.79295(4)
U1B U -0.01341(3) 0.519054(13) 0.20705(4)
U2C U 0.16818(3) 0.169457(13) 0.82220(4)
O3B O -0.0749(5) 0.5217(3) -0.0705(8)
O4B O -0.0930(6) 0.5135(3) -0.3949(8)
O6_2 O 0.0625(5) 0.4437(3) -0.3898(8)
O9C O 0.1759(6) 0.2982(3) 0.0882(9)
C19 C 0.9751(11) 0.3485(5) 1.5503(18)
H17 H 1.0109 0.3693 1.6208
C20 C 0.9319(11) 0.3631(6) 1.417(2)
H18 H 0.9320 0.3946 1.3759
C21 C 0.9066(12) 0.2836(8) 1.4498(18)
H19 H 0.8850 0.2511 1.4329
C22 C 0.8309(11) 0.3208(6) 1.203(2)
C23 C 0.7600(11) 0.2928(6) 1.167(2)
H20 H 0.7422 0.2735 1.2355
C24 C 0.7120(16) 0.2943(8) 1.014(2)
H21 H 0.6646 0.2725 0.9823
C25 C 0.729(2) 0.3235(8) 0.917(3)
C26 C 0.8001(19) 0.3543(7) 0.956(2)
H22 H 0.8124 0.3762 0.8875
C27 C 0.8560(14) 0.3527(6) 1.106(3)
H23 H 0.9066 0.3722 1.1363
N1 N 0.8872(9) 0.3218(4) 1.3537(16)
N2 N 0.9618(13) 0.3004(9) 1.573(2)
H24 H 0.9847 0.2835 1.6516
C28 C 0.584(2) 0.3251(8) 0.751(3)
H25 H 0.5690 0.3189 0.8385
C29 C 0.6719(18) 0.3301(8) 0.754(3)
C30 C 0.6941(15) 0.3394(10) 0.624(4)
H26 H 0.7530 0.3427 0.6253
C31 C 0.628(2) 0.3436(9) 0.491(3)
H27 H 0.6433 0.3497 0.4044
C32 C 0.540(2) 0.3385(8) 0.489(3)
H28 H 0.4964 0.3413 0.4006
C33 C 0.5181(14) 0.3293(10) 0.619(4)
H29 H 0.4592 0.3259 0.6176
loop_
_geom_bond_atom_site_label_1
_geom_bond_atom_site_label_2
_geom_bond_site_symmetry_1
_geom_bond_site_symmetry_2
U1 O1 1_555 1_555
U2 O7 1_555 1_555
P1 O3 1_555 1_555
P2 O9 1_555 1_555
P3 O4 1_555 1_555
O2 U1 1_555 1_555
O3 U1 1_555 1_555
O4 U1B 1_555 1_555
O5 U1 1_555 1_555
O6 P3 1_555 1_555
O8 U2 1_555 1_555
O9 U2C 1_555 1_555
O10 U2 1_555 1_555
O11 U2 1_555 1_555
O12 U2 1_555 1_555
O13 U2 1_555 1_555
O14 P2 1_555 1_555
H1 O14 1_555 1_555
C1 P1 1_555 1_555
C2 C1 1_555 1_555
H2 C2 1_555 1_555
C3 C2 1_555 1_555
H3 C3 1_555 1_555
C4 C3 1_555 1_555
H4 C4 1_555 1_555
C5 C4 1_555 1_555
H5 C5 1_555 1_555
C6 C1 1_555 1_555
H6 C6 1_555 1_555
C7 P2 1_555 1_555
C8 C7 1_555 1_555
H7 C8 1_555 1_555
C9 C8 1_555 1_555
H8 C9 1_555 1_555
C10 C9 1_555 1_555
H9 C10 1_555 1_555
C11 C10 1_555 1_555
H10 C11 1_555 1_555
C12 C7 1_555 1_555
H11 C12 1_555 1_555
C13 P3 1_555 1_555
C14 C13 1_555 1_555
H12 C14 1_555 1_555
C15 C14 1_555 1_555
H13 C15 1_555 1_555
C16 C15 1_555 1_555
H14 C16 1_555 1_555
C17 C16 1_555 1_555
H15 C17 1_555 1_555
C18 C13 1_555 1_555
H16 C18 1_555 1_555
C19 H17 1_555 1_555
C20 C19 1_555 1_555
H18 C20 1_555 1_555
C21 H19 1_555 1_555
C22 C23 1_555 1_555
C23 H20 1_555 1_555
C24 C23 1_555 1_555
H21 C24 1_555 1_555
C25 C24 1_555 1_555
C26 C25 1_555 1_555
H22 C26 1_555 1_555
C27 C22 1_555 1_555
H23 C27 1_555 1_555
N1 C20 1_555 1_555
N2 C19 1_555 1_555
H24 N2 1_555 1_555
C28 H25 1_555 1_555
C29 C25 1_555 1_555
C30 C29 1_555 1_555
H26 C30 1_555 1_555
C31 C30 1_555 1_555
H27 C31 1_555 1_555
C32 C31 1_555 1_555
H28 C32 1_555 1_555
C33 C28 1_555 1_555
H29 C33 1_555 1_555
U1_2 O6 1_555 1_555
U1B O3 1_555 1_555
O3B U1 1_555 1_555
O4B U1 1_555 1_555
O6_2 U1 1_555 1_555
O9C U2 1_555 1_555
P1 O5 1_555 1_555
P1 O10 1_555 1_555
P2 O13 1_555 1_555
P3 O11 1_555 1_555
C5 C6 1_555 1_555
C11 C12 1_555 1_555
C17 C18 1_555 1_555
C21 N1 1_555 1_555
C21 N2 1_555 1_555
C22 N1 1_555 1_555
C26 C27 1_555 1_555
C28 C29 1_555 1_555
C32 C33 1_555 1_555
U1B O3B 1_555 1_555

#END
