
#######################################################################
#
#                 Cambridge Crystallographic Data Centre
#                                CCDC 
#
#######################################################################
#
# If this CIF has been generated from an entry in the Cambridge 
# Structural Database, then it will include bibliographic, chemical, 
# crystal, experimental, refinement or atomic coordinate data resulting 
# from the CCDC's data processing and validation procedures.
#
#######################################################################

data_ZIFBAR
_symmetry_cell_setting           monoclinic
_symmetry_space_group_name_H-M   'P 21/c'
_symmetry_Int_Tables_number      14
_space_group_name_Hall           '-P 2ybc'
loop_
_symmetry_equiv_pos_site_id
_symmetry_equiv_pos_as_xyz
1 x,y,z
2 -x,1/2+y,1/2-z
3 -x,-y,-z
4 x,1/2-y,1/2+z
_cell_length_a                   12.011(2)
_cell_length_b                   22.552(5)
_cell_length_c                   20.670(4)
_cell_angle_alpha                90
_cell_angle_beta                 104.55(3)
_cell_angle_gamma                90
_cell_volume                     5419.36
loop_
_atom_site_label
_atom_site_type_symbol
_atom_site_fract_x
_atom_site_fract_y
_atom_site_fract_z
B2 B -0.1977(12) 0.4406(6) 0.3411(7)
F5 F -0.1688(9) 0.3929(4) 0.3809(4)
F6 F -0.2436(11) 0.4253(5) 0.2765(6)
F7 F -0.2821(12) 0.4731(4) 0.3575(6)
F8 F -0.1070(9) 0.4757(5) 0.3446(7)
O1 O 0.5585(8) 0.3755(4) 0.4921(4)
C1 C 0.4529(14) 0.3846(8) 0.5135(7)
O2 O 0.734(2) 0.4450(9) 0.5599(10)
C2 C 0.847(2) 0.4793(11) 0.5354(12)
Zn1 Zn 0.14910(12) 0.27738(7) 0.02881(6)
Zn2 Zn 0.25102(12) 0.27359(7) -0.09640(6)
O3 O 0.1276(5) 0.2395(3) -0.0619(3)
O4 O 0.2577(5) 0.3249(3) -0.0095(3)
N1 N 0.1378(9) 0.3418(4) 0.0963(4)
C3 C 0.0460(12) 0.3600(6) 0.1180(6)
N2 N 0.0723(10) 0.4124(5) 0.1530(5)
C4 C 0.1881(12) 0.4258(6) 0.1553(6)
C5 C 0.2265(12) 0.3830(6) 0.1205(6)
C6 C 0.0035(11) 0.4467(5) 0.1896(6)
C7 C -0.0667(11) 0.3256(6) 0.1111(7)
C8 C -0.0887(13) 0.2778(7) 0.0576(7)
N3 N -0.0213(8) 0.2634(4) 0.0195(4)
C9 C -0.0774(12) 0.2168(6) -0.0198(6)
C10 C -0.1818(12) 0.2056(6) -0.0036(6)
N4 N -0.1850(9) 0.2449(5) 0.0457(5)
C11 C -0.2811(10) 0.2473(6) 0.0774(6)
O5 O -0.1571(7) 0.3670(3) 0.0971(4)
C12 C -0.0570(11) 0.2971(5) 0.1803(5)
C13 C 0.0160(10) 0.2491(5) 0.1986(5)
C14 C 0.0249(10) 0.2217(5) 0.2575(6)
C15 C -0.0407(11) 0.2422(5) 0.3018(6)
C16 C -0.1125(11) 0.2890(6) 0.2829(6)
C17 C -0.1238(10) 0.3157(5) 0.2231(6)
C18 C 0.1007(11) 0.1707(6) 0.2758(6)
N5 N 0.1867(9) 0.1656(4) 0.3319(4)
C19 C 0.2323(11) 0.1097(6) 0.3296(6)
C20 C 0.1767(13) 0.0801(6) 0.2754(7)
N6 N 0.0931(9) 0.1203(5) 0.2408(5)
C21 C 0.0030(10) 0.1060(5) 0.1779(5)
N7 N 0.4225(8) 0.2833(5) -0.0808(5)
C22 C 0.4905(12) 0.2598(7) -0.1158(7)
N8 N 0.5854(10) 0.2923(5) -0.1117(5)
C23 C 0.5788(12) 0.3390(6) -0.0710(7)
C24 C 0.4833(13) 0.3347(7) -0.0505(6)
C25 C 0.6800(10) 0.2845(6) -0.1454(6)
C26 C 0.4728(11) 0.2004(6) -0.1537(6)
C27 C 0.3594(11) 0.1715(6) -0.1517(5)
N9 N 0.2670(10) 0.1944(4) -0.1402(5)
C28 C 0.1893(12) 0.1487(7) -0.1495(6)
C29 C 0.2324(12) 0.0993(7) -0.1656(6)
N10 N 0.3454(9) 0.1127(5) -0.1677(4)
C30 C 0.4230(12) 0.0667(6) -0.1843(6)
O6 O 0.5719(7) 0.1660(4) -0.1247(4)
C31 C 0.4718(10) 0.2107(5) -0.2277(6)
C32 C 0.3951(10) 0.2525(5) -0.2641(5)
C33 C 0.3872(10) 0.2612(5) -0.3319(6)
C34 C 0.4562(11) 0.2269(6) -0.3629(6)
C35 C 0.5320(12) 0.1854(6) -0.3273(7)
C36 C 0.5405(10) 0.1792(6) -0.2609(7)
C37 C 0.3137(12) 0.3065(7) -0.3681(6)
N11 N 0.2267(9) 0.2952(4) -0.4248(5)
C38 C 0.1817(12) 0.3507(6) -0.4472(6)
C39 C 0.2366(12) 0.3934(6) -0.4077(6)
N12 N 0.3199(9) 0.3642(5) -0.3576(5)
C40 C 0.4131(11) 0.3918(6) -0.3042(6)
H1 H 0.2323 0.4588 0.1773
H2 H 0.3020 0.3804 0.1129
H3 H -0.0721 0.4298 0.1809
H4 H 0.0384 0.4459 0.2367
H5 H -0.0018 0.4870 0.1740
H6 H -0.0488 0.1966 -0.0532
H7 H -0.2368 0.1751 -0.0214
H8 H -0.2661 0.2793 0.1090
H9 H -0.3526 0.2543 0.0450
H10 H -0.2858 0.2108 0.1005
H11 H 0.0592 0.2357 0.1681
H12 H -0.0354 0.2231 0.3440
H13 H -0.1559 0.3033 0.3129
H14 H -0.1769 0.3478 0.2088
H15 H 0.2962 0.0942 0.3630
H16 H 0.1901 0.0403 0.2627
H17 H -0.0453 0.1397 0.1631
H18 H 0.0423 0.0954 0.1444
H19 H -0.0433 0.0732 0.1853
H20 H 0.6366 0.3693 -0.0595
H21 H 0.4588 0.3631 -0.0223
H22 H 0.7340 0.3159 -0.1299
H23 H 0.6501 0.2876 -0.1929
H24 H 0.7179 0.2469 -0.1348
H25 H 0.1115 0.1528 -0.1461
H26 H 0.1961 0.0611 -0.1722
H27 H 0.4968 0.0826 -0.1851
H28 H 0.3866 0.0506 -0.2274
H29 H 0.4327 0.0359 -0.1512
H30 H 0.3505 0.2765 -0.2416
H31 H 0.4510 0.2334 -0.4095
H32 H 0.5771 0.1605 -0.3486
H33 H 0.5973 0.1536 -0.2338
H34 H 0.1191 0.3577 -0.4857
H35 H 0.2246 0.4356 -0.4097
H36 H 0.4584 0.3612 -0.2778
H37 H 0.3809 0.4168 -0.2760
H38 H 0.4608 0.4151 -0.3254
N5C N 0.1867(9) 0.3344(4) -0.1681(4)
N11C N 0.2267(9) 0.2048(4) 0.0752(5)
Zn2C Zn 0.25102(12) 0.22641(7) 0.40360(6)
Zn1C Zn 0.14910(12) 0.22262(7) -0.47119(6)
B1 B -0.254(2) 0.091(2) 0.2446(13)
F1 F -0.3256(8) 0.0699(4) 0.2823(5)
F2 F -0.1526(10) 0.1059(5) 0.2892(5)
F3 F -0.2232(8) 0.0397(4) 0.2147(6)
F4 F -0.2924(11) 0.1314(5) 0.2055(6)
C41? C -0.185(2) 0.4498(9) 0.0048(9)
C42? C -0.154(3) 0.4232(13) -0.024(2)
C43? C -0.078(3) 0.4253(13) -0.082(2)
C44? C 0.042(3) 0.4118(14) -0.064(2)
C45? C -0.7020(14) 0.4502(7) -0.0063(8)
C46? C -0.520(3) 0.4619(14) 0.046(2)
C47? C -0.376(2) 0.4556(12) 0.1073(14)
C48? C -0.450(4) 0.488(2) 0.148(2)
C49? C -0.5369(13) 0.5092(6) 0.1452(7)
loop_
_geom_bond_atom_site_label_1
_geom_bond_atom_site_label_2
_geom_bond_site_symmetry_1
_geom_bond_site_symmetry_2
B1 F1 1_555 1_555
F2 B1 1_555 1_555
F3 B1 1_555 1_555
F4 B1 1_555 1_555
B2 F5 1_555 1_555
F6 B2 1_555 1_555
F7 B2 1_555 1_555
F8 B2 1_555 1_555
O1 C1 1_555 1_555
O2 C2 1_555 1_555
Zn1 O3 1_555 1_555
Zn2 O3 1_555 1_555
O4 Zn1 1_555 1_555
N1 Zn1 1_555 1_555
C3 N1 1_555 1_555
N2 C3 1_555 1_555
C4 N2 1_555 1_555
C5 N1 1_555 1_555
C6 N2 1_555 1_555
C7 C3 1_555 1_555
C8 C7 1_555 1_555
N3 Zn1 1_555 1_555
C9 N3 1_555 1_555
C10 C9 1_555 1_555
N4 C8 1_555 1_555
C11 N4 1_555 1_555
O5 C7 1_555 1_555
C12 C7 1_555 1_555
C13 C12 1_555 1_555
C14 C13 1_555 1_555
C15 C14 1_555 1_555
C16 C15 1_555 1_555
C17 C12 1_555 1_555
C18 C14 1_555 1_555
N5 C18 1_555 1_555
C19 N5 1_555 1_555
C20 C19 1_555 1_555
N6 C18 1_555 1_555
C21 N6 1_555 1_555
N7 Zn2 1_555 1_555
C22 N7 1_555 1_555
N8 C22 1_555 1_555
C23 N8 1_555 1_555
C24 N7 1_555 1_555
C25 N8 1_555 1_555
C26 C22 1_555 1_555
C27 C26 1_555 1_555
N9 Zn2 1_555 1_555
C28 N9 1_555 1_555
C29 C28 1_555 1_555
N10 C27 1_555 1_555
C30 N10 1_555 1_555
O6 C26 1_555 1_555
C31 C26 1_555 1_555
C32 C31 1_555 1_555
C33 C32 1_555 1_555
C34 C33 1_555 1_555
C35 C34 1_555 1_555
C36 C31 1_555 1_555
C37 C33 1_555 1_555
N11 C37 1_555 1_555
C38 N11 1_555 1_555
C39 C38 1_555 1_555
N12 C37 1_555 1_555
C40 N12 1_555 1_555
H1 C4 1_555 1_555
H2 C5 1_555 1_555
H3 C6 1_555 1_555
H4 C6 1_555 1_555
H5 C6 1_555 1_555
H6 C9 1_555 1_555
H7 C10 1_555 1_555
H8 C11 1_555 1_555
H9 C11 1_555 1_555
H10 C11 1_555 1_555
H11 C13 1_555 1_555
H12 C15 1_555 1_555
H13 C16 1_555 1_555
H14 C17 1_555 1_555
H15 C19 1_555 1_555
H16 C20 1_555 1_555
H17 C21 1_555 1_555
H18 C21 1_555 1_555
H19 C21 1_555 1_555
H20 C23 1_555 1_555
H21 C24 1_555 1_555
H22 C25 1_555 1_555
H23 C25 1_555 1_555
H24 C25 1_555 1_555
H25 C28 1_555 1_555
H26 C29 1_555 1_555
H27 C30 1_555 1_555
H28 C30 1_555 1_555
H29 C30 1_555 1_555
H30 C32 1_555 1_555
H31 C34 1_555 1_555
H32 C35 1_555 1_555
H33 C36 1_555 1_555
H34 C38 1_555 1_555
H35 C39 1_555 1_555
H36 C40 1_555 1_555
H37 C40 1_555 1_555
H38 C40 1_555 1_555
N5C Zn2 1_555 1_555
N11C Zn1 1_555 1_555
Zn2C N5 1_555 1_555
Zn1C N11 1_555 1_555
Zn2 O4 1_555 1_555
C4 C5 1_555 1_555
C8 N3 1_555 1_555
C10 N4 1_555 1_555
C16 C17 1_555 1_555
C20 N6 1_555 1_555
C23 C24 1_555 1_555
C27 N9 1_555 1_555
C29 N10 1_555 1_555
C35 C36 1_555 1_555
C39 N12 1_555 1_555

#END
