
#######################################################################
#
#                 Cambridge Crystallographic Data Centre
#                                CCDC 
#
#######################################################################
#
# If this CIF has been generated from an entry in the Cambridge 
# Structural Database, then it will include bibliographic, chemical, 
# crystal, experimental, refinement or atomic coordinate data resulting 
# from the CCDC's data processing and validation procedures.
#
#######################################################################

data_ZIFGOM
_symmetry_cell_setting           monoclinic
_symmetry_space_group_name_H-M   'P 21/n'
_symmetry_Int_Tables_number      14
_space_group_name_Hall           '-P 2yn'
loop_
_symmetry_equiv_pos_site_id
_symmetry_equiv_pos_as_xyz
1 x,y,z
2 1/2-x,1/2+y,1/2-z
3 -x,-y,-z
4 1/2+x,1/2-y,1/2+z
_cell_length_a                   11.0612(16)
_cell_length_b                   15.0262(17)
_cell_length_c                   16.7833(16)
_cell_angle_alpha                90
_cell_angle_beta                 95.4910(10)
_cell_angle_gamma                90
_cell_volume                     2776.72
loop_
_atom_site_label
_atom_site_type_symbol
_atom_site_fract_x
_atom_site_fract_y
_atom_site_fract_z
N1 N 0.4514(2) -0.03049(14) 0.30477(13)
C1 C 0.5682(3) -0.0234(2) 0.2931(2)
H1 H 0.6227 -0.0644 0.3176
O1 O 1.25950(18) 0.50863(12) -0.03383(11)
C2 C 1.2265(2) 0.43932(17) -0.00174(16)
Zn1 Zn 0.72073(3) 0.383712(19) -0.034358(18)
Zn2 Zn 1.11418(3) 0.36344(2) 0.135395(19)
O2 O 0.91430(17) -0.09370(13) -0.38389(12)
O3 O 0.98251(19) 0.38272(15) 0.03914(12)
N2 N 0.6583(2) 0.29433(14) 0.04353(14)
O4 O 1.2022(2) 0.14052(13) -0.27782(13)
O5 O 1.2274(2) 0.43080(14) 0.07266(12)
O6 O 1.25938(19) 0.33253(14) 0.22874(13)
H2 H 1.2468 0.2837 0.2481
O7 O 0.87289(17) 0.33856(13) -0.06936(12)
C3 C 0.9728(2) 0.34954(17) -0.02838(16)
C4 C 0.8992(2) -0.12048(17) -0.31349(18)
C5 C 0.5341(3) 0.10421(17) 0.20813(16)
C6 C 1.0838(2) 0.31859(16) -0.06684(15)
C7 C 1.1959(2) 0.36192(16) -0.05696(16)
C8 C 1.1650(3) 0.21564(17) -0.15979(16)
C9 C 1.0821(3) 0.05844(17) -0.19671(17)
O8 O 0.8256(2) -0.17788(14) -0.29804(13)
C10 C 0.5770(3) 0.17162(17) 0.15218(17)
C11 C 0.6950(3) 0.1711(2) 0.1315(2)
H3 H 0.7499 0.1290 0.1537
C12 C 1.2737(3) 0.26286(18) -0.15297(18)
H4 H 1.3364 0.2458 -0.1828
O9 O 0.9875(2) -0.26172(14) -0.17523(17)
C13 C 0.9776(3) -0.10524(17) -0.16745(18)
C14 C 1.2886(2) 0.33490(18) -0.10198(17)
H5 H 1.3618 0.3659 -0.0976
C15 C 1.0697(2) 0.24521(17) -0.11820(16)
H6 H 0.9955 0.2157 -0.1246
C16 C 1.0801(3) 0.02823(18) -0.11917(17)
H7 H 1.1114 0.0635 -0.0766
C17 C 0.3774(3) 0.0321(2) 0.2715(2)
H8 H 0.2960 0.0302 0.2812
C18 C 0.9728(3) -0.07305(17) -0.24573(17)
C19 C 1.0267(3) 0.00717(18) -0.26000(17)
H9 H 1.0264 0.0277 -0.3123
C20 C 1.1520(3) 0.13944(17) -0.21654(17)
C21 C 0.5012(3) 0.2366(2) 0.11712(19)
H10 H 0.4211 0.2404 0.1293
C22 C 0.4144(3) 0.0992(2) 0.2238(2)
H11 H 0.3587 0.1411 0.2022
C23 C 0.6116(3) 0.0421(2) 0.24633(19)
H12 H 0.6943 0.0448 0.2403
C24 C 1.0319(3) -0.05407(19) -0.10471(18)
H13 H 1.0356 -0.0756 -0.0526
C25 C 0.7315(3) 0.2330(2) 0.0782(2)
H14 H 0.8117 0.2316 0.0659
C26 C 0.5445(3) 0.2958(2) 0.06408(19)
H15 H 0.4919 0.3391 0.0414
C27 C 0.9312(3) -0.1963(2) -0.1477(2)
O10 O 0.8477(3) -0.20431(18) -0.10569(16)
N1A N 1.0486(2) 0.46951(14) 0.19523(13)
O1B O 0.74050(18) 0.49137(12) 0.03383(11)
Zn1A Zn 0.77927(3) -0.116288(19) -0.465642(18)
Zn1B Zn 1.27927(3) 0.616288(19) 0.034358(18)
Zn2A Zn 0.38582(3) -0.13656(2) 0.364605(19)
Zn2B Zn 0.88582(3) -0.36344(2) -0.135395(19)
O2A O 0.58570(17) 0.40630(13) -0.11611(12)
O9B O 1.0125(2) 0.26172(14) 0.17523(17)
O10B O 1.1523(3) 0.20431(18) 0.10569(16)
loop_
_geom_bond_atom_site_label_1
_geom_bond_atom_site_label_2
_geom_bond_site_symmetry_1
_geom_bond_site_symmetry_2
N1 C1 1_555 1_555
C1 H1 1_555 1_555
O1 C2 1_555 1_555
C2 O5 1_555 1_555
Zn1 N2 1_555 1_555
Zn2 O3 1_555 1_555
O2 C4 1_555 1_555
O3 C3 1_555 1_555
N2 C25 1_555 1_555
O4 C20 1_555 1_555
O5 Zn2 1_555 1_555
O6 Zn2 1_555 1_555
H2 O6 1_555 1_555
O7 Zn1 1_555 1_555
C3 O7 1_555 1_555
C4 O8 1_555 1_555
C5 C10 1_555 1_555
C6 C3 1_555 1_555
C7 C2 1_555 1_555
C8 C12 1_555 1_555
C9 C16 1_555 1_555
C10 C11 1_555 1_555
C11 H3 1_555 1_555
C12 H4 1_555 1_555
O9 C27 1_555 1_555
C13 C18 1_555 1_555
C14 C7 1_555 1_555
H5 C14 1_555 1_555
C15 C6 1_555 1_555
H6 C15 1_555 1_555
C16 H7 1_555 1_555
C17 N1 1_555 1_555
H8 C17 1_555 1_555
C18 C4 1_555 1_555
C19 C9 1_555 1_555
H9 C19 1_555 1_555
C20 C8 1_555 1_555
C21 C10 1_555 1_555
H10 C21 1_555 1_555
C22 C5 1_555 1_555
H11 C22 1_555 1_555
C23 C1 1_555 1_555
H12 C23 1_555 1_555
C24 C13 1_555 1_555
H13 C24 1_555 1_555
C25 C11 1_555 1_555
H14 C25 1_555 1_555
C26 N2 1_555 1_555
H15 C26 1_555 1_555
C27 C13 1_555 1_555
O10 C27 1_555 1_555
N1A Zn2 1_555 1_555
O1B Zn1 1_555 1_555
Zn1A O2 1_555 1_555
Zn1B O1 1_555 1_555
Zn2A N1 1_555 1_555
Zn2B O9 1_555 1_555
O2A Zn1 1_555 1_555
O9B Zn2 1_555 1_555
O10B Zn2 1_555 1_555
C5 C23 1_555 1_555
C6 C7 1_555 1_555
C8 C15 1_555 1_555
C9 C20 1_555 1_555
C12 C14 1_555 1_555
C16 C24 1_555 1_555
C17 C22 1_555 1_555
C18 C19 1_555 1_555
C21 C26 1_555 1_555
O10 Zn2B 1_555 1_555

#END
