
#######################################################################
#
#                 Cambridge Crystallographic Data Centre
#                                CCDC 
#
#######################################################################
#
# If this CIF has been generated from an entry in the Cambridge 
# Structural Database, then it will include bibliographic, chemical, 
# crystal, experimental, refinement or atomic coordinate data resulting 
# from the CCDC's data processing and validation procedures.
#
#######################################################################

data_ZIFHAZ
_symmetry_cell_setting           monoclinic
_symmetry_space_group_name_H-M   'C 2/c'
_symmetry_Int_Tables_number      15
_space_group_name_Hall           '-C 2yn'
loop_
_symmetry_equiv_pos_site_id
_symmetry_equiv_pos_as_xyz
1 x,y,z
2 -x,y,1/2-z
3 1/2+x,1/2+y,z
4 1/2-x,1/2+y,1/2-z
5 -x,-y,-z
6 x,-y,1/2+z
7 1/2-x,1/2-y,-z
8 1/2+x,1/2-y,1/2+z
_cell_length_a                   24.460(4)
_cell_length_b                   9.9842(14)
_cell_length_c                   23.479(3)
_cell_angle_alpha                90
_cell_angle_beta                 110.705(3)
_cell_angle_gamma                90
_cell_volume                     5363.56
loop_
_atom_site_label
_atom_site_type_symbol
_atom_site_fract_x
_atom_site_fract_y
_atom_site_fract_z
Mn1 Mn 0.172205(18) 0.27736(4) 0.552097(19)
N1 N 0.18095(10) 0.1262(2) 0.62838(10)
N2 N 0.15751(10) 0.3902(2) 0.63243(11)
N3 N 0.06459(11) 0.2636(2) 0.51597(12)
N4 N 0.13870(10) 0.1054(2) 0.48275(10)
O1 O 0.5000 0.4370(4) 0.7500
O2 O 0.28060(10) 0.3478(2) 0.63757(11)
O3 O 0.25801(8) 0.2029(2) 0.56253(9)
O4 O 0.33089(9) 0.0478(2) 0.49907(8)
O5 O 0.31043(10) -0.0857(2) 0.56468(10)
C1 C 0.19754(13) 0.0006(3) 0.62809(14)
H1 H 0.2042 -0.0310 0.5939
C2 C 0.20550(13) -0.0870(3) 0.67632(15)
H2 H 0.2168 -0.1751 0.6738
C3 C 0.19661(14) -0.0433(3) 0.72745(15)
H3 H 0.2019 -0.1007 0.7601
C4 C 0.17937(13) 0.0904(3) 0.72969(14)
C5 C 0.17045(16) 0.1462(4) 0.78164(15)
H4 H 0.1741 0.0917 0.8149
C6 C 0.15677(16) 0.2764(4) 0.78328(16)
H5 H 0.1510 0.3101 0.8176
C7 C 0.15096(14) 0.3643(3) 0.73294(14)
C8 C 0.14023(16) 0.5018(4) 0.73346(17)
H6 H 0.1335 0.5399 0.7665
C9 C 0.13966(16) 0.5789(3) 0.68643(18)
H7 H 0.1330 0.6705 0.6870
C10 C 0.14927(14) 0.5202(3) 0.63625(16)
H8 H 0.1498 0.5752 0.6045
C11 C 0.15927(12) 0.3135(3) 0.68108(13)
C12 C 0.17288(12) 0.1724(3) 0.67913(13)
C13 C 0.02792(14) 0.3384(3) 0.53194(16)
H9 H 0.0436 0.4049 0.5609
C14 C -0.03294(15) 0.3244(4) 0.50826(18)
H10 H -0.0567 0.3802 0.5212
C15 C -0.05656(14) 0.2274(3) 0.46590(17)
H11 H -0.0969 0.2156 0.4497
C16 C -0.01996(13) 0.1454(3) 0.44681(14)
C17 C -0.04098(14) 0.0435(4) 0.40217(16)
H12 H -0.0811 0.0307 0.3839
C18 C -0.00490(14) -0.0343(4) 0.38569(16)
H13 H -0.0202 -0.1003 0.3564
C19 C 0.05738(13) -0.0176(3) 0.41270(14)
C20 C 0.09693(14) -0.1004(3) 0.39830(15)
H14 H 0.0832 -0.1688 0.3699
C21 C 0.15519(14) -0.0804(3) 0.42590(14)
H15 H 0.1819 -0.1356 0.4173
C22 C 0.17439(13) 0.0247(3) 0.46761(13)
H16 H 0.2144 0.0387 0.4857
C23 C 0.08014(12) 0.0835(3) 0.45587(12)
C24 C 0.04109(12) 0.1672(3) 0.47347(13)
C25 C 0.5000 0.3159(5) 0.7500
C26 C 0.45574(13) 0.2373(3) 0.70022(14)
C27 C 0.47200(14) 0.1229(4) 0.67729(16)
H17 H 0.5102 0.0915 0.6939
C28 C 0.43141(14) 0.0548(4) 0.62956(15)
H18 H 0.4430 -0.0208 0.6136
C29 C 0.37364(12) 0.0975(3) 0.60504(12)
C30 C 0.35649(12) 0.2102(3) 0.63017(12)
C31 C 0.39845(12) 0.2792(3) 0.67662(13)
H19 H 0.3875 0.3561 0.6923
C32 C 0.29354(12) 0.2580(3) 0.60874(13)
C33 C 0.33347(12) 0.0145(3) 0.55243(13)
O2A O 0.71940(10) 0.3478(2) 0.86243(11)
O3A O 0.74199(8) 0.2029(2) 0.93747(9)
C26A C 0.54426(13) 0.2373(3) 0.79978(14)
C27A C 0.52800(14) 0.1229(4) 0.82271(16)
H17A H 0.4898 0.0915 0.8061
C28A C 0.56859(14) 0.0548(4) 0.87044(15)
H18A H 0.5570 -0.0208 0.8864
C29A C 0.62636(12) 0.0975(3) 0.89496(12)
C30A C 0.64351(12) 0.2102(3) 0.86983(12)
C31A C 0.60155(12) 0.2792(3) 0.82338(13)
H19A H 0.6125 0.3561 0.8077
C32A C 0.70646(12) 0.2580(3) 0.89126(13)
O4A O 0.66911(9) 0.0478(2) 1.00093(8)
O5A O 0.68957(10) -0.0857(2) 0.93532(10)
C33A C 0.66653(12) 0.0145(3) 0.94757(13)
Mn1A Mn 0.827795(18) 0.27736(4) 0.947903(19)
N1A N 0.81905(10) 0.1262(2) 0.87162(10)
N2A N 0.84249(10) 0.3902(2) 0.86757(11)
N3A N 0.93541(11) 0.2636(2) 0.98403(12)
N4A N 0.86130(10) 0.1054(2) 1.01725(10)
C1A C 0.80246(13) 0.0006(3) 0.87191(14)
H1A H 0.7958 -0.0310 0.9061
C2A C 0.79450(13) -0.0870(3) 0.82368(15)
H2A H 0.7832 -0.1751 0.8262
C3A C 0.80339(14) -0.0433(3) 0.77255(15)
H3A H 0.7981 -0.1007 0.7399
C4A C 0.82063(13) 0.0904(3) 0.77031(14)
C5A C 0.82955(16) 0.1462(4) 0.71836(15)
H4A H 0.8259 0.0917 0.6851
C6A C 0.84323(16) 0.2764(4) 0.71672(16)
H5A H 0.8490 0.3101 0.6824
C7A C 0.84904(14) 0.3643(3) 0.76706(14)
C8A C 0.85977(16) 0.5018(4) 0.76654(17)
H6A H 0.8665 0.5399 0.7335
C9A C 0.86034(16) 0.5789(3) 0.81357(18)
H7A H 0.8670 0.6705 0.8130
C10A C 0.85073(14) 0.5202(3) 0.86375(16)
H8A H 0.8502 0.5752 0.8955
C11A C 0.84073(12) 0.3135(3) 0.81892(13)
C12A C 0.82712(12) 0.1724(3) 0.82087(13)
C13A C 0.97208(14) 0.3384(3) 0.96806(16)
H9A H 0.9564 0.4049 0.9391
C14A C 1.03294(15) 0.3244(4) 0.99174(18)
H10A H 1.0567 0.3802 0.9788
C15A C 1.05656(14) 0.2274(3) 1.03410(17)
H11A H 1.0969 0.2156 1.0503
C16A C 1.01996(13) 0.1454(3) 1.05319(14)
C17A C 1.04098(14) 0.0435(4) 1.09783(16)
H12A H 1.0811 0.0307 1.1161
C18A C 1.00490(14) -0.0343(4) 1.11431(16)
H13A H 1.0202 -0.1003 1.1436
C19A C 0.94262(13) -0.0176(3) 1.08730(14)
C20A C 0.90307(14) -0.1004(3) 1.10170(15)
H14A H 0.9168 -0.1688 1.1301
C21A C 0.84481(14) -0.0804(3) 1.07410(14)
H15A H 0.8181 -0.1356 1.0827
C22A C 0.82561(13) 0.0247(3) 1.03239(13)
H16A H 0.7856 0.0387 1.0143
C23A C 0.91986(12) 0.0835(3) 1.04413(12)
C24A C 0.95891(12) 0.1672(3) 1.02653(13)
Mn1F Mn 0.327795(18) 0.22264(4) 0.447903(19)
Mn1G Mn 0.672205(18) 0.22264(4) 1.052097(19)
O4F O 0.16911(9) 0.4522(2) 0.50093(8)
O4G O 0.83089(9) 0.4522(2) 0.99907(8)
O6 O 0.28970(12) 0.7692(2) 0.44153(12)
H20 H 0.2613 0.7240 0.4445
H21 H 0.2991 0.8223 0.4717
loop_
_geom_bond_atom_site_label_1
_geom_bond_atom_site_label_2
_geom_bond_site_symmetry_1
_geom_bond_site_symmetry_2
Mn1 N1 1_555 1_555
N1 C1 1_555 1_555
N2 Mn1 1_555 1_555
N3 Mn1 1_555 1_555
N4 Mn1 1_555 1_555
O1 C25 1_555 1_555
O2 C32 1_555 1_555
O3 Mn1 1_555 1_555
O4 C33 1_555 1_555
O5 C33 1_555 1_555
C1 H1 1_555 1_555
C2 C1 1_555 1_555
H2 C2 1_555 1_555
C3 C2 1_555 1_555
H3 C3 1_555 1_555
C4 C3 1_555 1_555
C5 C4 1_555 1_555
H4 C5 1_555 1_555
C6 C5 1_555 1_555
H5 C6 1_555 1_555
C7 C6 1_555 1_555
C8 C7 1_555 1_555
H6 C8 1_555 1_555
C9 C8 1_555 1_555
H7 C9 1_555 1_555
C10 N2 1_555 1_555
H8 C10 1_555 1_555
C11 N2 1_555 1_555
C12 N1 1_555 1_555
C13 N3 1_555 1_555
H9 C13 1_555 1_555
C14 C13 1_555 1_555
H10 C14 1_555 1_555
C15 C14 1_555 1_555
H11 C15 1_555 1_555
C16 C15 1_555 1_555
C17 C16 1_555 1_555
H12 C17 1_555 1_555
C18 C17 1_555 1_555
H13 C18 1_555 1_555
C19 C18 1_555 1_555
C20 C19 1_555 1_555
H14 C20 1_555 1_555
C21 C20 1_555 1_555
H15 C21 1_555 1_555
C22 N4 1_555 1_555
H16 C22 1_555 1_555
C23 N4 1_555 1_555
C24 N3 1_555 1_555
C25 C26 1_555 1_555
C26 C27 1_555 1_555
C27 H17 1_555 1_555
C28 C27 1_555 1_555
H18 C28 1_555 1_555
C29 C28 1_555 1_555
C30 C29 1_555 1_555
C31 C26 1_555 1_555
H19 C31 1_555 1_555
C32 O3 1_555 1_555
C33 C29 1_555 1_555
O6 H20 1_555 1_555
H21 O6 1_555 1_555
O2A C32A 1_555 1_555
O3A C32A 1_555 1_555
C26A C25 1_555 1_555
C27A C26A 1_555 1_555
H17A C27A 1_555 1_555
C28A C27A 1_555 1_555
H18A C28A 1_555 1_555
C29A C28A 1_555 1_555
C30A C29A 1_555 1_555
C31A C26A 1_555 1_555
H19A C31A 1_555 1_555
C32A C30A 1_555 1_555
O4A C33A 1_555 1_555
O5A C33A 1_555 1_555
C33A C29A 1_555 1_555
Mn1A O3A 1_555 1_555
N1A Mn1A 1_555 1_555
N2A Mn1A 1_555 1_555
N3A Mn1A 1_555 1_555
N4A Mn1A 1_555 1_555
C1A N1A 1_555 1_555
H1A C1A 1_555 1_555
C2A C1A 1_555 1_555
H2A C2A 1_555 1_555
C3A C2A 1_555 1_555
H3A C3A 1_555 1_555
C4A C3A 1_555 1_555
C5A C4A 1_555 1_555
H4A C5A 1_555 1_555
C6A C5A 1_555 1_555
H5A C6A 1_555 1_555
C7A C6A 1_555 1_555
C8A C7A 1_555 1_555
H6A C8A 1_555 1_555
C9A C8A 1_555 1_555
H7A C9A 1_555 1_555
C10A N2A 1_555 1_555
H8A C10A 1_555 1_555
C11A N2A 1_555 1_555
C12A N1A 1_555 1_555
C13A N3A 1_555 1_555
H9A C13A 1_555 1_555
C14A C13A 1_555 1_555
H10A C14A 1_555 1_555
C15A C14A 1_555 1_555
H11A C15A 1_555 1_555
C16A C15A 1_555 1_555
C17A C16A 1_555 1_555
H12A C17A 1_555 1_555
C18A C17A 1_555 1_555
H13A C18A 1_555 1_555
C19A C18A 1_555 1_555
C20A C19A 1_555 1_555
H14A C20A 1_555 1_555
C21A C20A 1_555 1_555
H15A C21A 1_555 1_555
C22A N4A 1_555 1_555
H16A C22A 1_555 1_555
C23A N4A 1_555 1_555
C24A N3A 1_555 1_555
Mn1F O4 1_555 1_555
Mn1G O4A 1_555 1_555
O4F Mn1 1_555 1_555
O4G Mn1A 1_555 1_555
C4 C12 1_555 1_555
C7 C11 1_555 1_555
C9 C10 1_555 1_555
C11 C12 1_555 1_555
C16 C24 1_555 1_555
C19 C23 1_555 1_555
C21 C22 1_555 1_555
C23 C24 1_555 1_555
C30 C31 1_555 1_555
C30 C32 1_555 1_555
C30A C31A 1_555 1_555
C4A C12A 1_555 1_555
C7A C11A 1_555 1_555
C9A C10A 1_555 1_555
C11A C12A 1_555 1_555
C16A C24A 1_555 1_555
C19A C23A 1_555 1_555
C21A C22A 1_555 1_555
C23A C24A 1_555 1_555

#END
