
#######################################################################
#
#                 Cambridge Crystallographic Data Centre
#                                CCDC 
#
#######################################################################
#
# If this CIF has been generated from an entry in the Cambridge 
# Structural Database, then it will include bibliographic, chemical, 
# crystal, experimental, refinement or atomic coordinate data resulting 
# from the CCDC's data processing and validation procedures.
#
#######################################################################

data_ZIFZOF
_symmetry_cell_setting           monoclinic
_symmetry_space_group_name_H-M   'P 21/c'
_symmetry_Int_Tables_number      14
_space_group_name_Hall           '-P 2ybc'
loop_
_symmetry_equiv_pos_site_id
_symmetry_equiv_pos_as_xyz
1 x,y,z
2 -x,1/2+y,1/2-z
3 -x,-y,-z
4 x,1/2-y,1/2+z
_cell_length_a                   16.1863(11)
_cell_length_b                   15.3953(10)
_cell_length_c                   11.4987(8)
_cell_angle_alpha                90
_cell_angle_beta                 96.2990(10)
_cell_angle_gamma                90
_cell_volume                     2848.1
loop_
_atom_site_label
_atom_site_type_symbol
_atom_site_fract_x
_atom_site_fract_y
_atom_site_fract_z
C1 C 0.5569(3) -0.0864(3) 0.2962(4)
H1 H 0.5697 -0.0677 0.3730
C2 C 0.6049(3) -0.1505(3) 0.2549(5)
H2 H 0.6486 -0.1750 0.3031
C3 C 0.5874(3) -0.1777(3) 0.1414(4)
H3 H 0.6196 -0.2201 0.1105
C4 C 0.5203(3) -0.1403(3) 0.0734(4)
H4 H 0.5071 -0.1575 -0.0040
C5 C 0.4735(2) -0.0774(3) 0.1217(4)
C6 C 0.3981(3) -0.0381(3) 0.0586(4)
C7 C 0.3687(3) -0.0584(3) -0.0551(4)
H5 H 0.3968 -0.0983 -0.0970
C8 C 0.2978(3) -0.0194(3) -0.1059(4)
H6 H 0.2770 -0.0327 -0.1824
C9 C 0.2580(3) 0.0397(3) -0.0421(4)
H7 H 0.2097 0.0669 -0.0748
C10 C 0.2901(3) 0.0580(3) 0.0689(4)
H8 H 0.2630 0.0987 0.1110
C11 C 0.2718(3) 0.1285(3) 0.4011(4)
C12 C 0.2033(3) 0.1945(3) 0.3954(4)
C13 C 0.1838(3) 0.2470(3) 0.2999(4)
H9 H 0.2157 0.2442 0.2375
C14 C 0.1179(3) 0.3039(3) 0.2948(4)
H10 H 0.1061 0.3391 0.2294
C15 C 0.0686(2) 0.3092(3) 0.3866(4)
C16 C 0.0895(3) 0.2579(4) 0.4833(4)
H11 H 0.0585 0.2619 0.5465
C17 C 0.1552(3) 0.2009(4) 0.4887(4)
H12 H 0.1676 0.1665 0.5548
C18 C -0.0076(2) 0.3658(3) 0.3790(4)
H13 H -0.0063 0.4067 0.3150
H14 H -0.0080 0.3986 0.4509
C19 C -0.0865(3) 0.3106(3) 0.3591(4)
H15 H -0.0854 0.2674 0.4218
C20 C -0.0891(3) 0.2631(3) 0.2423(5)
C21 C -0.0915(5) 0.1676(4) 0.2457(7)
H16 H -0.0931 0.1451 0.1677
H17 H -0.1402 0.1491 0.2796
H18 H -0.0428 0.1464 0.2922
C22 C -0.1650(2) 0.3672(3) 0.3614(4)
H19 H -0.1610 0.3997 0.4341
H20 H -0.1678 0.4087 0.2975
C23 C -0.2433(2) 0.3140(3) 0.3506(4)
C24 C -0.2609(3) 0.2579(3) 0.4400(4)
H21 H -0.2241 0.2545 0.5079
C25 C -0.3311(3) 0.2078(3) 0.4297(4)
H22 H -0.3419 0.1716 0.4910
C26 C -0.3866(2) 0.2105(3) 0.3284(3)
C27 C -0.3700(3) 0.2661(3) 0.2391(4)
H23 H -0.4069 0.2692 0.1712
C28 C -0.2995(3) 0.3169(3) 0.2500(4)
H24 H -0.2892 0.3536 0.1890
C29 C -0.4626(2) 0.1549(3) 0.3163(4)
N1 N 0.4929(2) -0.0498(2) 0.2322(3)
N2 N 0.3589(2) 0.0202(2) 0.1209(3)
O1 O 0.31952(17) 0.13197(19) 0.3211(3)
O2 O 0.3859(2) -0.0307(2) 0.4190(3)
H25 H 0.4178 -0.0722 0.4248
O3 O -0.48067(17) 0.10959(19) 0.4020(2)
O4 O -0.50777(17) 0.15201(19) 0.2206(2)
O5 O -0.0876(2) 0.3025(3) 0.1518(3)
O6 O 0.2783(2) 0.0756(3) 0.4826(3)
Co1 Co 0.41645(3) 0.05054(4) 0.28867(5)
H26 H 0.347(5) 0.004(5) 0.447(7)
O3_2 O 0.51933(17) 0.10959(19) 0.4020(2)
O4_2 O 0.49223(17) 0.15201(19) 0.2206(2)
Co1_2 Co -0.58355(3) 0.05054(4) 0.28867(5)
C30 C 0.1727(6) 0.0046(6) 0.6273(9)
H27 H 0.2314 -0.0041 0.6263
H28 H 0.1542 -0.0267 0.6918
H29 H 0.1616 0.0654 0.6358
C31 C 0.1222(8) -0.0316(8) 0.5021(11)
H30 H 0.1413 -0.0912 0.4983
H31 H 0.1492 -0.0008 0.4430
O7 O 0.0231(11) -0.0375(12) 0.443(2)
H32 H 0.0035 0.0116 0.4357
loop_
_geom_bond_atom_site_label_1
_geom_bond_atom_site_label_2
_geom_bond_site_symmetry_1
_geom_bond_site_symmetry_2
C1 H1 1_555 1_555
C2 C1 1_555 1_555
H2 C2 1_555 1_555
C3 C2 1_555 1_555
H3 C3 1_555 1_555
C4 C3 1_555 1_555
H4 C4 1_555 1_555
C5 C4 1_555 1_555
C6 C5 1_555 1_555
C7 C6 1_555 1_555
H5 C7 1_555 1_555
C8 C7 1_555 1_555
H6 C8 1_555 1_555
C9 C8 1_555 1_555
H7 C9 1_555 1_555
C10 C9 1_555 1_555
H8 C10 1_555 1_555
C11 C12 1_555 1_555
C12 C13 1_555 1_555
C13 H9 1_555 1_555
C14 C13 1_555 1_555
H10 C14 1_555 1_555
C15 C14 1_555 1_555
C16 C15 1_555 1_555
H11 C16 1_555 1_555
C17 C12 1_555 1_555
H12 C17 1_555 1_555
C18 C15 1_555 1_555
H13 C18 1_555 1_555
H14 C18 1_555 1_555
C19 C18 1_555 1_555
H15 C19 1_555 1_555
C20 C19 1_555 1_555
C21 C20 1_555 1_555
H16 C21 1_555 1_555
H17 C21 1_555 1_555
H18 C21 1_555 1_555
C22 C19 1_555 1_555
H19 C22 1_555 1_555
H20 C22 1_555 1_555
C23 C22 1_555 1_555
C24 C23 1_555 1_555
H21 C24 1_555 1_555
C25 C24 1_555 1_555
H22 C25 1_555 1_555
C26 C25 1_555 1_555
C27 C26 1_555 1_555
H23 C27 1_555 1_555
C28 C23 1_555 1_555
H24 C28 1_555 1_555
C29 C26 1_555 1_555
N1 C1 1_555 1_555
N2 C6 1_555 1_555
O1 C11 1_555 1_555
O2 H25 1_555 1_555
O3 C29 1_555 1_555
O4 C29 1_555 1_555
O5 C20 1_555 1_555
O6 C11 1_555 1_555
Co1 N1 1_555 1_555
H26 O2 1_555 1_555
C30 H27 1_555 1_555
H28 C30 1_555 1_555
H29 C30 1_555 1_555
C31 C30 1_555 1_555
H30 C31 1_555 1_555
H31 C31 1_555 1_555
O7 C31 1_555 1_555
H32 O7 1_555 1_555
O3_2 Co1 1_555 1_555
O4_2 Co1 1_555 1_555
Co1_2 O3 1_555 1_555
C5 N1 1_555 1_555
C10 N2 1_555 1_555
C16 C17 1_555 1_555
C27 C28 1_555 1_555
N2 Co1 1_555 1_555
O1 Co1 1_555 1_555
O2 Co1 1_555 1_555
O4 Co1_2 1_555 1_555

#END
