
#######################################################################
#
#                 Cambridge Crystallographic Data Centre
#                                CCDC 
#
#######################################################################
#
# If this CIF has been generated from an entry in the Cambridge 
# Structural Database, then it will include bibliographic, chemical, 
# crystal, experimental, refinement or atomic coordinate data resulting 
# from the CCDC's data processing and validation procedures.
#
#######################################################################

data_ZIGJEE
_symmetry_cell_setting           monoclinic
_symmetry_space_group_name_H-M   'P 21/m'
_symmetry_Int_Tables_number      11
_space_group_name_Hall           '-P 2yb'
loop_
_symmetry_equiv_pos_site_id
_symmetry_equiv_pos_as_xyz
1 x,y,z
2 -x,1/2+y,-z
3 -x,-y,-z
4 x,1/2-y,z
_cell_length_a                   9.843(2)
_cell_length_b                   12.946(2)
_cell_length_c                   10.079(1)
_cell_angle_alpha                90
_cell_angle_beta                 99.91(1)
_cell_angle_gamma                90
_cell_volume                     1265.18
loop_
_atom_site_label
_atom_site_type_symbol
_atom_site_fract_x
_atom_site_fract_y
_atom_site_fract_z
I1 I 0.11293(6) 0.2500 -0.62362(6)
I2 I -0.23951(7) 0.2500 -0.95956(6)
Cu1 Cu -0.1500(1) 0.2500 -0.6981(1)
Cu2 Cu -0.9703(1) 0.2500 0.1201(1)
S1 S -0.2787(1) 0.1206(1) -0.6083(1)
S2 S -0.4979(2) 0.1361(1) -0.4370(2)
S3 S -0.7115(2) 0.1360(1) -0.2250(2)
S4 S -0.8801(2) 0.1202(1) -0.0055(1)
C1 C -0.1022(7) 0.3991(6) -0.3585(7)
C2 C -0.1850(6) 0.4579(5) -0.4714(6)
C3 C -0.3791(5) 0.1985(4) -0.5203(5)
C4 C -0.5531(8) 0.2500 -0.3685(8)
C5 C -0.6451(8) 0.2500 -0.2818(8)
C6 C -0.7937(6) 0.1982(4) -0.1070(5)
C7 C -0.7410(9) 0.0414(6) 0.0831(8)
C8 C -0.619(1) 0.0988(8) 0.1533(9)
H1 H -0.0571 0.4462 -0.2930
H2 H -0.0353 0.3584 -0.3920
H3 H -0.1614 0.3555 -0.3185
H4 H -0.2504 0.4984 -0.4354
H5 H -0.1241 0.5020 -0.5085
H6 H -0.7768 0.0018 0.1486
H7 H -0.7110 -0.0034 0.0196
H8 H -0.5525 0.0509 0.1966
H9 H -0.5802 0.1379 0.0895
H10 H -0.6462 0.1435 0.2183
S3C S -0.7115(2) 0.3640(1) -0.2250(2)
C6C C -0.7937(6) 0.3018(4) -0.1070(5)
S4C S -0.8801(2) 0.3798(1) -0.0055(1)
C7C C -0.7410(9) 0.4586(6) 0.0831(8)
C8C C -0.619(1) 0.4012(8) 0.1533(9)
H8C H -0.5525 0.4491 0.1966
H9C H -0.5802 0.3621 0.0895
H10C H -0.6462 0.3565 0.2183
H6C H -0.7768 0.4982 0.1486
H7C H -0.7110 0.5034 0.0196
I1_2 I -0.88707(6) 0.2500 0.37638(6)
I2_2 I -1.23951(7) 0.2500 0.04044(6)
S1C S -0.2787(1) 0.3794(1) -0.6083(1)
C3C C -0.3791(5) 0.3015(4) -0.5203(5)
S2C S -0.4979(2) 0.3639(1) -0.4370(2)
C2C C -0.1850(6) 0.0421(5) -0.4714(6)
C1C C -0.1022(7) 0.1009(6) -0.3585(7)
H1C H -0.0571 0.0538 -0.2930
H2C H -0.0353 0.1416 -0.3920
H3C H -0.1614 0.1445 -0.3185
H4C H -0.2504 0.0016 -0.4354
H5C H -0.1241 -0.0020 -0.5085
Cu2_2 Cu 0.0297(1) 0.2500 -0.8799(1)
loop_
_geom_bond_atom_site_label_1
_geom_bond_atom_site_label_2
_geom_bond_site_symmetry_1
_geom_bond_site_symmetry_2
I1 Cu1 1_555 1_555
I2 Cu1 1_555 1_555
Cu1 S1 1_555 1_555
Cu2 S4 1_555 1_555
S1 C3 1_555 1_555
S2 C3 1_555 1_555
S3 C5 1_555 1_555
S4 C6 1_555 1_555
C1 C2 1_555 1_555
C2 H4 1_555 1_555
C3 C3C 1_555 1_555
C4 S2 1_555 1_555
C5 C4 1_555 1_555
C6 S3 1_555 1_555
C7 S4 1_555 1_555
C8 C7 1_555 1_555
H1 C1 1_555 1_555
H2 C1 1_555 1_555
H3 C1 1_555 1_555
H5 C2 1_555 1_555
H6 C7 1_555 1_555
H7 C7 1_555 1_555
H8 C8 1_555 1_555
H9 C8 1_555 1_555
H10 C8 1_555 1_555
S3C C5 1_555 1_555
C6C C6 1_555 1_555
S4C Cu2 1_555 1_555
C7C S4C 1_555 1_555
C8C C7C 1_555 1_555
H8C C8C 1_555 1_555
H9C C8C 1_555 1_555
H10C C8C 1_555 1_555
H6C C7C 1_555 1_555
H7C C7C 1_555 1_555
I1_2 Cu2 1_555 1_555
I2_2 Cu2 1_555 1_555
S1C Cu1 1_555 1_555
C3C S1C 1_555 1_555
S2C C4 1_555 1_555
C2C S1 1_555 1_555
C1C C2C 1_555 1_555
H1C C1C 1_555 1_555
H2C C1C 1_555 1_555
H3C C1C 1_555 1_555
H4C C2C 1_555 1_555
H5C C2C 1_555 1_555
Cu2_2 I1 1_555 1_555
I2 Cu2_2 1_555 1_555
C2 S1C 1_555 1_555
S3C C6C 1_555 1_555
C6C S4C 1_555 1_555
C3C S2C 1_555 1_555

#END
