
#######################################################################
#
#                 Cambridge Crystallographic Data Centre
#                                CCDC 
#
#######################################################################
#
# If this CIF has been generated from an entry in the Cambridge 
# Structural Database, then it will include bibliographic, chemical, 
# crystal, experimental, refinement or atomic coordinate data resulting 
# from the CCDC's data processing and validation procedures.
#
#######################################################################

data_ZIGMIN
_symmetry_cell_setting           monoclinic
_symmetry_space_group_name_H-M   'P 21/c'
_symmetry_Int_Tables_number      14
_space_group_name_Hall           '-P 2ybc'
loop_
_symmetry_equiv_pos_site_id
_symmetry_equiv_pos_as_xyz
1 x,y,z
2 -x,1/2+y,1/2-z
3 -x,-y,-z
4 x,1/2-y,1/2+z
_cell_length_a                   9.8249(2)
_cell_length_b                   8.2487(2)
_cell_length_c                   10.1911(3)
_cell_angle_alpha                90
_cell_angle_beta                 99.0930(10)
_cell_angle_gamma                90
_cell_volume                     815.535
loop_
_atom_site_label
_atom_site_type_symbol
_atom_site_fract_x
_atom_site_fract_y
_atom_site_fract_z
Nd1 Nd 0.315546(11) 0.403452(15) 0.064191(12)
O1 O 0.44264(16) 0.0233(2) 0.37489(17)
O2 O 0.49581(18) 0.1849(2) 0.07062(18)
O3 O 0.31349(17) 0.1925(2) 0.23797(19)
O4 O 0.62232(19) 0.0049(3) 0.20163(18)
O5 O 0.09951(18) 0.4348(3) 0.14765(19)
O6 O -0.12161(18) 0.5082(3) 0.10687(19)
O7 O 0.3074(2) 0.7048(3) 0.0692(2)
O8 O 0.1944(2) 0.1483(3) -0.0410(2)
C1 C 0.4157(2) 0.1048(3) 0.2686(2)
C2 C 0.5218(2) 0.0968(3) 0.1716(2)
C3 C -0.0060(2) 0.4834(3) 0.0738(2)
H1 H 0.246(3) 0.766(4) 0.089(4)
H2 H 0.353(3) 0.753(4) 0.020(3)
H3 H 0.245(3) 0.100(4) -0.085(3)
H4 H 0.1188(19) 0.139(5) -0.087(3)
O5B O -0.09951(18) 0.5652(3) -0.14765(19)
O6B O 0.12161(18) 0.4918(3) -0.10687(19)
C3B C 0.0060(2) 0.5166(3) -0.0738(2)
Nd1B Nd -0.315546(11) 0.596548(15) -0.064191(12)
O1B O -0.44264(16) 0.9767(2) -0.37489(17)
O2B O -0.49581(18) 0.8151(2) -0.07062(18)
O3B O -0.31349(17) 0.8075(2) -0.23797(19)
O4B O -0.62232(19) 0.9951(3) -0.20163(18)
O7B O -0.3074(2) 0.2952(3) -0.0692(2)
O8B O -0.1944(2) 0.8517(3) 0.0410(2)
C1B C -0.4157(2) 0.8952(3) -0.2686(2)
C2B C -0.5218(2) 0.9032(3) -0.1716(2)
H1B H -0.246(3) 0.234(4) -0.089(4)
H2B H -0.353(3) 0.247(4) -0.020(3)
H3B H -0.245(3) 0.900(4) 0.085(3)
H4B H -0.1188(19) 0.861(5) 0.087(3)
Nd1A Nd -0.315546(11) 0.903452(15) -0.564191(12)
Nd1A_2 Nd 0.684454(11) -0.096548(15) 0.435809(12)
Nd1C Nd -0.684454(11) 1.096548(15) -0.435809(12)
Nd1C_2 Nd 0.315546(11) 0.096548(15) 0.564191(12)
O1A O -0.44264(16) 0.5233(2) 0.12511(17)
O1A_2 O 0.55736(16) 0.5233(2) 0.12511(17)
O1C O -0.55736(16) 0.4767(2) -0.12511(17)
O1C_2 O 0.44264(16) 0.4767(2) -0.12511(17)
O4A O 0.37768(19) 0.5049(3) 0.29837(18)
O4C O -0.37768(19) 0.4951(3) -0.29837(18)
O9 O 0.1035(3) -0.0973(3) 0.1281(2)
H5 H 0.121(4) -0.019(3) 0.086(3)
H6 H 0.106(5) -0.075(4) 0.2065(14)
loop_
_geom_bond_atom_site_label_1
_geom_bond_atom_site_label_2
_geom_bond_site_symmetry_1
_geom_bond_site_symmetry_2
Nd1 O2 1_555 1_555
O1 C1 1_555 1_555
O2 C2 1_555 1_555
O3 Nd1 1_555 1_555
O4 C2 1_555 1_555
O5 Nd1 1_555 1_555
O6 C3 1_555 1_555
O7 Nd1 1_555 1_555
O8 Nd1 1_555 1_555
C1 O3 1_555 1_555
C2 C1 1_555 1_555
C3 O5 1_555 1_555
H1 O7 1_555 1_555
H2 O7 1_555 1_555
H3 O8 1_555 1_555
H4 O8 1_555 1_555
O9 H5 1_555 1_555
H6 O9 1_555 1_555
O5B C3B 1_555 1_555
O6B Nd1 1_555 1_555
C3B C3 1_555 1_555
Nd1B O6 1_555 1_555
O1B C1B 1_555 1_555
O2B Nd1B 1_555 1_555
O3B Nd1B 1_555 1_555
O4B C2B 1_555 1_555
O7B Nd1B 1_555 1_555
O8B Nd1B 1_555 1_555
C1B O3B 1_555 1_555
C2B O2B 1_555 1_555
H1B O7B 1_555 1_555
H2B O7B 1_555 1_555
H3B O8B 1_555 1_555
H4B O8B 1_555 1_555
Nd1A O1B 1_555 1_555
Nd1A_2 O1 1_555 1_555
Nd1C O1B 1_555 1_555
Nd1C_2 O1 1_555 1_555
O1A Nd1B 1_555 1_555
O1A_2 Nd1 1_555 1_555
O1C Nd1B 1_555 1_555
O1C_2 Nd1 1_555 1_555
O4A Nd1 1_555 1_555
O4C Nd1B 1_555 1_555
O4 Nd1A_2 1_555 1_555
O5B Nd1B 1_555 1_555
O6B C3B 1_555 1_555
O4B Nd1C 1_555 1_555
C1B C2B 1_555 1_555

#END
