
#######################################################################
#
#                 Cambridge Crystallographic Data Centre
#                                CCDC 
#
#######################################################################
#
# If this CIF has been generated from an entry in the Cambridge 
# Structural Database, then it will include bibliographic, chemical, 
# crystal, experimental, refinement or atomic coordinate data resulting 
# from the CCDC's data processing and validation procedures.
#
#######################################################################

data_ZIGMEJ
_symmetry_cell_setting           monoclinic
_symmetry_space_group_name_H-M   'P 21/c'
_symmetry_Int_Tables_number      14
_space_group_name_Hall           '-P 2ybc'
loop_
_symmetry_equiv_pos_site_id
_symmetry_equiv_pos_as_xyz
1 x,y,z
2 -x,1/2+y,1/2-z
3 -x,-y,-z
4 x,1/2-y,1/2+z
_cell_length_a                   17.438(2)
_cell_length_b                   8.1717(5)
_cell_length_c                   12.9929(7)
_cell_angle_alpha                90
_cell_angle_beta                 94.661(2)
_cell_angle_gamma                90
_cell_volume                     1845.34
loop_
_atom_site_label
_atom_site_type_symbol
_atom_site_fract_x
_atom_site_fract_y
_atom_site_fract_z
Nd1 Nd 0.135129(14) 0.26010(3) 0.470231(17)
Nd2 Nd 0.313153(14) 0.52998(3) 0.386657(17)
Nd3 Nd 0.484239(13) 0.25989(3) 0.492990(16)
O1 O 0.0869(2) 0.3743(5) 0.6310(2)
O2 O -0.0051(2) 0.2068(4) 0.4667(3)
O3 O -0.0993(2) 0.0218(5) 0.4743(3)
O4 O 0.0908(2) 0.3697(5) 0.8028(2)
O5 O 0.2097(2) 0.1731(5) 0.6390(2)
O6 O 0.23614(19) 0.0620(4) 0.4338(3)
O7 O 0.2275(2) 0.4769(4) 0.5089(3)
O8 O 0.20566(19) 0.1499(4) 0.8097(2)
O9 O 0.0693(2) 0.5067(5) 0.3937(4)
O10 O 0.3369(2) 0.2332(4) 0.4535(3)
O11 O 0.42260(18) 0.5162(4) 0.5211(2)
O12 O 0.42132(19) 0.3516(4) 0.3180(2)
O13 O 0.55721(19) 0.1807(4) 0.1667(2)
O14 O 0.3348(2) -0.1927(4) 0.4591(3)
O15 O 0.3013(2) 0.5868(5) 0.1994(3)
O16 O 0.1969(3) 0.7276(5) 0.3438(3)
O17 O 0.55406(20) 0.1871(4) 0.3386(2)
O18 O 0.43235(18) -0.0186(4) 0.4501(3)
O19 O 0.4179(2) 0.3241(4) 0.1467(2)
C1 C 0.3060(3) 0.0939(5) 0.4445(3)
C2 C 0.3607(3) -0.0530(5) 0.4509(3)
C3 C -0.0297(3) 0.0665(6) 0.4838(4)
C4 C 0.1817(3) 0.2061(5) 0.7234(3)
C5 C 0.1132(3) 0.3293(6) 0.7198(3)
C6 C 0.5265(3) 0.2165(5) 0.2484(3)
C7 C 0.4480(3) 0.3058(5) 0.2359(3)
H1 H 0.339(2) 0.609(7) 0.169(4)
H2 H 0.275(3) 0.519(6) 0.166(4)
H3 H 0.202(4) 0.816(4) 0.373(4)
H4 H 0.201(3) 0.551(5) 0.530(4)
H5 H 0.403(3) 0.532(6) 0.575(2)
H6 H 0.0231(10) 0.528(7) 0.396(5)
H7 H 0.090(3) 0.595(4) 0.409(5)
H8 H 0.185(4) 0.765(7) 0.287(2)
O2B O 0.0051(2) -0.2068(4) 0.5333(3)
O3B O 0.0993(2) -0.0218(5) 0.5257(3)
C3B C 0.0297(3) -0.0665(6) 0.5162(4)
Nd1B Nd -0.135129(14) -0.26010(3) 0.529769(17)
Nd2B Nd -0.313153(14) -0.52998(3) 0.613343(17)
Nd3B Nd -0.484239(13) -0.25989(3) 0.507010(16)
O1B O -0.0869(2) -0.3743(5) 0.3690(2)
O4B O -0.0908(2) -0.3697(5) 0.1972(2)
O5B O -0.2097(2) -0.1731(5) 0.3610(2)
O6B O -0.23614(19) -0.0620(4) 0.5662(3)
O7B O -0.2275(2) -0.4769(4) 0.4911(3)
O8B O -0.20566(19) -0.1499(4) 0.1903(2)
O9B O -0.0693(2) -0.5067(5) 0.6063(4)
O10B O -0.3369(2) -0.2332(4) 0.5465(3)
O11B O -0.42260(18) -0.5162(4) 0.4789(2)
O12B O -0.42132(19) -0.3516(4) 0.6820(2)
O13B O -0.55721(19) -0.1807(4) 0.8333(2)
O14B O -0.3348(2) 0.1927(4) 0.5409(3)
O15B O -0.3013(2) -0.5868(5) 0.8006(3)
O16B O -0.1969(3) -0.7276(5) 0.6562(3)
O17B O -0.55406(20) -0.1871(4) 0.6614(2)
O18B O -0.43235(18) 0.0186(4) 0.5499(3)
O19B O -0.4179(2) -0.3241(4) 0.8533(2)
C1B C -0.3060(3) -0.0939(5) 0.5555(3)
C2B C -0.3607(3) 0.0530(5) 0.5491(3)
C4B C -0.1817(3) -0.2061(5) 0.2766(3)
C5B C -0.1132(3) -0.3293(6) 0.2802(3)
C6B C -0.5265(3) -0.2165(5) 0.7516(3)
C7B C -0.4480(3) -0.3058(5) 0.7641(3)
H1B H -0.339(2) -0.609(7) 0.831(4)
H2B H -0.275(3) -0.519(6) 0.834(4)
H3B H -0.202(4) -0.816(4) 0.627(4)
H4B H -0.201(3) -0.551(5) 0.470(4)
H5B H -0.403(3) -0.532(6) 0.425(2)
H6B H -0.0231(10) -0.528(7) 0.604(5)
H7B H -0.090(3) -0.595(4) 0.591(5)
H8B H -0.185(4) -0.765(7) 0.713(2)
Nd1A Nd -0.135129(14) -0.23990(3) 0.029769(17)
Nd1C Nd 0.135129(14) 0.23990(3) 0.970231(17)
Nd2_2 Nd 0.313153(14) -0.47002(3) 0.386657(17)
Nd2A Nd -0.313153(14) 0.02998(3) 0.113343(17)
Nd2A_2 Nd 0.686847(14) 0.02998(3) 0.113343(17)
Nd2B_2 Nd -0.313153(14) 0.47002(3) 0.613343(17)
Nd2C Nd -0.686847(14) -0.02998(3) 0.886657(17)
Nd2C_2 Nd 0.313153(14) -0.02998(3) 0.886657(17)
Nd3_2 Nd -0.515761(13) -0.74011(3) 0.492990(16)
Nd3_3 Nd -0.515761(13) 0.25989(3) 0.492990(16)
Nd3A Nd -0.484239(13) -0.24011(3) 1.007010(16)
Nd3B_2 Nd 0.515761(13) -0.25989(3) 0.507010(16)
Nd3B_3 Nd 0.515761(13) 0.74011(3) 0.507010(16)
Nd3C Nd 0.484239(13) 0.24011(3) -0.007010(16)
O4A O -0.0908(2) -0.1303(5) 0.6972(2)
O4C O 0.0908(2) 0.1303(5) 0.3028(2)
O8A O -0.20566(19) -0.3501(4) 0.6903(2)
O8C O 0.20566(19) 0.3501(4) 0.3097(2)
O11_2 O -0.57740(18) -0.4838(4) 0.5211(2)
O11B_2 O 0.57740(18) 0.4838(4) 0.4789(2)
O13A O -0.55721(19) -0.3193(4) 0.3333(2)
O13A_2 O 0.44279(19) 0.6807(4) 0.3333(2)
O13C O -0.44279(19) -0.6807(4) 0.6667(2)
O13C_2 O 0.55721(19) 0.3193(4) 0.6667(2)
O14_2 O 0.3348(2) 0.8073(4) 0.4591(3)
O14B_2 O -0.3348(2) -0.8073(4) 0.5409(3)
O18_2 O -0.56765(18) -0.0186(4) 0.4501(3)
O18B_2 O 0.56765(18) 0.0186(4) 0.5499(3)
O19A O -0.4179(2) -0.1759(4) 0.3533(2)
O19C O 0.4179(2) 0.1759(4) 0.6467(2)
O20 O 0.1550(3) 0.7911(6) 0.1408(3)
H9 H 0.2013(11) 0.789(10) 0.133(6)
H10 H 0.141(4) 0.746(9) 0.086(3)
O21 O 0.3286(3) 0.5104(7) 0.7009(4)
H11 H 0.287(2) 0.474(9) 0.676(5)
H12 H 0.314(4) 0.541(9) 0.756(3)
loop_
_geom_bond_atom_site_label_1
_geom_bond_atom_site_label_2
_geom_bond_site_symmetry_1
_geom_bond_site_symmetry_2
Nd1 O1 1_555 1_555
Nd2 O7 1_555 1_555
Nd3 O10 1_555 1_555
O1 C5 1_555 1_555
O2 Nd1 1_555 1_555
O3 C3 1_555 1_555
O4 C5 1_555 1_555
O5 Nd1 1_555 1_555
O6 Nd1 1_555 1_555
O7 Nd1 1_555 1_555
O8 C4 1_555 1_555
O9 Nd1 1_555 1_555
O10 Nd2 1_555 1_555
O11 Nd2 1_555 1_555
O12 Nd2 1_555 1_555
O13 C6 1_555 1_555
O14 C2 1_555 1_555
O15 Nd2 1_555 1_555
O16 Nd2 1_555 1_555
O17 Nd3 1_555 1_555
O18 Nd3 1_555 1_555
O19 C7 1_555 1_555
C1 O6 1_555 1_555
C2 O18 1_555 1_555
C3 O2 1_555 1_555
C4 O5 1_555 1_555
C5 C4 1_555 1_555
C6 O17 1_555 1_555
C7 O12 1_555 1_555
H1 O15 1_555 1_555
H2 O15 1_555 1_555
H3 O16 1_555 1_555
H4 O7 1_555 1_555
H5 O11 1_555 1_555
H6 O9 1_555 1_555
H7 O9 1_555 1_555
H8 O16 1_555 1_555
O20 H9 1_555 1_555
H10 O20 1_555 1_555
O21 H11 1_555 1_555
H12 O21 1_555 1_555
O2B C3B 1_555 1_555
O3B Nd1 1_555 1_555
C3B C3 1_555 1_555
Nd1B O3 1_555 1_555
Nd2B O7B 1_555 1_555
Nd3B O10B 1_555 1_555
O1B Nd1B 1_555 1_555
O4B C5B 1_555 1_555
O5B Nd1B 1_555 1_555
O6B Nd1B 1_555 1_555
O7B Nd1B 1_555 1_555
O8B C4B 1_555 1_555
O9B Nd1B 1_555 1_555
O10B Nd2B 1_555 1_555
O11B Nd2B 1_555 1_555
O12B Nd2B 1_555 1_555
O13B C6B 1_555 1_555
O14B C2B 1_555 1_555
O15B Nd2B 1_555 1_555
O16B Nd2B 1_555 1_555
O17B Nd3B 1_555 1_555
O18B Nd3B 1_555 1_555
O19B C7B 1_555 1_555
C1B O6B 1_555 1_555
C2B O18B 1_555 1_555
C4B O5B 1_555 1_555
C5B O1B 1_555 1_555
C6B O17B 1_555 1_555
C7B O12B 1_555 1_555
H1B O15B 1_555 1_555
H2B O15B 1_555 1_555
H3B O16B 1_555 1_555
H4B O7B 1_555 1_555
H5B O11B 1_555 1_555
H6B O9B 1_555 1_555
H7B O9B 1_555 1_555
H8B O16B 1_555 1_555
Nd1A O4B 1_555 1_555
Nd1C O4 1_555 1_555
Nd2_2 O14 1_555 1_555
Nd2A O8B 1_555 1_555
Nd2A_2 O13 1_555 1_555
Nd2B_2 O14B 1_555 1_555
Nd2C O13B 1_555 1_555
Nd2C_2 O8 1_555 1_555
Nd3_2 O11B 1_555 1_555
Nd3_3 O18B 1_555 1_555
Nd3A O13B 1_555 1_555
Nd3B_2 O18 1_555 1_555
Nd3B_3 O11 1_555 1_555
Nd3C O13 1_555 1_555
O4A Nd1B 1_555 1_555
O4C Nd1 1_555 1_555
O8A Nd1B 1_555 1_555
O8C Nd1 1_555 1_555
O11_2 Nd3B 1_555 1_555
O11B_2 Nd3 1_555 1_555
O13A Nd3B 1_555 1_555
O13A_2 Nd2 1_555 1_555
O13C Nd2B 1_555 1_555
O13C_2 Nd3 1_555 1_555
O14_2 Nd2 1_555 1_555
O14B_2 Nd2B 1_555 1_555
O18_2 Nd3B 1_555 1_555
O18B_2 Nd3 1_555 1_555
O19A Nd3B 1_555 1_555
O19C Nd3 1_555 1_555
Nd2 O8C 1_555 1_555
Nd3 O11 1_555 1_555
Nd3 O12 1_555 1_555
O8 Nd1C 1_555 1_555
O10 C1 1_555 1_555
O19 Nd3C 1_555 1_555
C1 C2 1_555 1_555
C6 C7 1_555 1_555
O2B Nd1B 1_555 1_555
O3B C3B 1_555 1_555
Nd2B O8A 1_555 1_555
Nd3B O11B 1_555 1_555
Nd3B O12B 1_555 1_555
O8B Nd1A 1_555 1_555
O10B C1B 1_555 1_555
O19B Nd3A 1_555 1_555
C1B C2B 1_555 1_555
C4B C5B 1_555 1_555
C6B C7B 1_555 1_555
Nd3_2 O11_2 1_555 1_555
Nd3_2 O13C 1_555 1_555
Nd3_3 O18_2 1_555 1_555
Nd3B_2 O18B_2 1_555 1_555
Nd3B_3 O11B_2 1_555 1_555
Nd3B_3 O13A_2 1_555 1_555

#END
