
#######################################################################
#
#                 Cambridge Crystallographic Data Centre
#                                CCDC 
#
#######################################################################
#
# If this CIF has been generated from an entry in the Cambridge 
# Structural Database, then it will include bibliographic, chemical, 
# crystal, experimental, refinement or atomic coordinate data resulting 
# from the CCDC's data processing and validation procedures.
#
#######################################################################

data_ZIGWUJ
_symmetry_cell_setting           monoclinic
_symmetry_space_group_name_H-M   'P 21/c'
_symmetry_Int_Tables_number      14
_space_group_name_Hall           '-P 2ybc'
loop_
_symmetry_equiv_pos_site_id
_symmetry_equiv_pos_as_xyz
1 x,y,z
2 -x,1/2+y,1/2-z
3 -x,-y,-z
4 x,1/2-y,1/2+z
_cell_length_a                   16.4733(12)
_cell_length_b                   10.6596(6)
_cell_length_c                   21.7791(13)
_cell_angle_alpha                90
_cell_angle_beta                 92.688(5)
_cell_angle_gamma                90
_cell_volume                     3820.18
loop_
_atom_site_label
_atom_site_type_symbol
_atom_site_fract_x
_atom_site_fract_y
_atom_site_fract_z
Mn1 Mn 0.26134(4) 0.30605(6) -0.13458(3)
Mn2 Mn 0.24741(4) 0.26517(6) 0.02553(3)
Mn3 Mn 0.22672(4) 0.07881(6) 0.18757(3)
S1 S 0.49356(8) 0.44511(13) 0.14572(5)
S2 S -0.00783(7) 0.36916(13) 0.19653(5)
S3 S 0.22711(8) 0.71832(11) 0.04261(5)
O1 O 0.3419(2) 0.3265(4) 0.09011(17)
O2 O 0.3145(3) 0.2144(5) 0.1730(2)
O3 O 0.2203(3) 0.4544(3) 0.00691(17)
O4 O 0.2727(2) 1.0756(3) 0.03906(17)
O5 O 0.2895(2) 0.1240(4) -0.17248(17)
O6 O 0.6394(2) 0.6057(3) 0.17596(16)
O7 O -0.1630(2) 0.6485(4) 0.19722(15)
O8 O 0.2231(2) 0.9556(3) 0.11307(15)
O9 O -0.1357(2) 0.4893(4) 0.26131(15)
O10 O 0.1361(2) 0.2194(4) 0.16943(16)
O11 O 0.1323(2) 0.2539(3) 0.06795(15)
O12 O 0.2434(2) 0.4822(3) -0.09259(16)
O13 O 0.6865(2) 0.4860(4) 0.25482(18)
O14 O 0.34023(19) 0.2589(3) -0.05025(14)
O15 O 0.17933(19) 0.2083(3) -0.06757(14)
C1 C 0.4652(4) 0.1959(10) -0.0940(3)
H1 H 0.4622 0.2552 -0.1278
H2 H 0.4471 0.1148 -0.1096
N1 N 0.2168(3) 0.0655(5) -0.2592(2)
H3 H 0.1846 0.1291 -0.2607
N2 N 0.0520(3) 0.1600(6) -0.0393(2)
H4 H 0.0575 0.1881 -0.0024
C2 C 0.5453(8) 0.2208(14) -0.0042(6)
H5 H 0.5813 0.2906 0.0058
H6 H 0.5605 0.1502 0.0220
C3 C 0.5482(7) 0.1866(12) -0.0696(5)
H7 H 0.5831 0.2438 -0.0909
H8 H 0.5686 0.1019 -0.0741
C4 C 0.0046(6) 0.0297(10) -0.1203(5)
H9 H 0.0141 -0.0570 -0.1086
H10 H -0.0348 0.0322 -0.1548
C5 C 0.2701(6) -0.1283(11) -0.2788(5)
H11 H 0.3074 -0.1530 -0.3098
H12 H 0.2410 -0.2023 -0.2661
N3 N 0.4594(6) 0.2564(9) 0.0031(5)
H13 H 0.4415 0.2868 0.0365
C6 C 0.0829(4) 0.0929(8) -0.1363(3)
H14 H 0.0734 0.1520 -0.1698
H15 H 0.1226 0.0315 -0.1483
C7 C 0.4133(3) 0.2365(7) -0.0469(2)
C8 C -0.0249(4) 0.1071(10) -0.0657(4)
H16 H -0.0623 0.1727 -0.0795
H17 H -0.0511 0.0541 -0.0362
C9 C 0.3160(5) -0.0718(6) -0.2248(3)
H18 H 0.3726 -0.0591 -0.2336
H19 H 0.3132 -0.1252 -0.1889
C10 C 0.4658(4) 0.2887(6) 0.2298(3)
H20 H 0.4413 0.2277 0.2532
C11 C 0.2120(6) -0.0335(8) -0.3045(3)
H21 H 0.2281 -0.0036 -0.3442
H22 H 0.1574 -0.0676 -0.3088
C12 C -0.0458(4) 0.5284(6) 0.1129(2)
H23 H -0.0702 0.5951 0.0915
C13 C 0.2509(3) 0.8706(5) -0.0457(2)
H24 H 0.2597 0.9435 -0.0679
C14 C 0.4333(3) 0.3306(5) 0.1755(2)
C15 C 0.5402(4) 0.3458(6) 0.2477(3)
H25 H 0.5702 0.3261 0.2836
C16 C 0.0144(3) 0.4522(6) 0.0887(2)
H26 H 0.0331 0.4616 0.0493
C17 C 0.1115(3) 0.1599(5) -0.0783(2)
C18 C 0.3571(3) 0.2879(5) 0.1437(2)
C19 C 0.0422(3) 0.3632(5) 0.1289(2)
C20 C 0.2744(4) 0.0513(5) -0.2149(2)
C21 C 0.2461(4) 0.7491(5) -0.0724(2)
H27 H 0.2507 0.7335 -0.1141
C22 C 0.2454(3) 0.9752(4) 0.0592(2)
C23 C 0.6360(3) 0.5152(5) 0.2124(2)
C24 C 0.5629(3) 0.4328(5) 0.2065(2)
C25 C 0.2341(3) 0.6581(4) -0.0299(2)
C26 C -0.1257(3) 0.5472(5) 0.2122(2)
C27 C 0.1086(3) 0.2714(4) 0.12172(19)
C28 C 0.2410(3) 0.8681(4) 0.0166(2)
C29 C 0.2319(3) 0.5196(4) -0.0392(2)
C30 C -0.0650(3) 0.4946(5) 0.1711(2)
Mn1B Mn -0.26134(4) 0.69395(6) 0.13458(3)
Mn1B_2 Mn 0.73866(4) 0.69395(6) 0.13458(3)
Mn2_2 Mn 0.24741(4) 1.26517(6) 0.02553(3)
Mn3_2 Mn 0.22672(4) 1.07881(6) 0.18757(3)
Mn3A Mn -0.22672(4) 0.57881(6) 0.31243(3)
Mn3A_2 Mn 0.77328(4) 0.57881(6) 0.31243(3)
O4_2 O 0.2727(2) 0.0756(3) 0.03906(17)
O6B O 0.3606(2) 0.3943(3) -0.17596(16)
O7B O 0.1630(2) 0.3515(4) -0.19722(15)
O8_2 O 0.2231(2) -0.0444(3) 0.11307(15)
O9A O 0.1357(2) -0.0107(4) 0.23869(15)
O13A O 0.3135(2) -0.0140(4) 0.24518(18)
loop_
_geom_bond_atom_site_label_1
_geom_bond_atom_site_label_2
_geom_bond_site_symmetry_1
_geom_bond_site_symmetry_2
Mn1 O5 1_555 1_555
Mn2 O1 1_555 1_555
Mn3 O2 1_555 1_555
S1 C14 1_555 1_555
S2 C19 1_555 1_555
S3 C25 1_555 1_555
O1 C18 1_555 1_555
O2 C18 1_555 1_555
O3 Mn2 1_555 1_555
O4 C22 1_555 1_555
O5 C20 1_555 1_555
O6 C23 1_555 1_555
O7 C26 1_555 1_555
O8 C22 1_555 1_555
O9 C26 1_555 1_555
O10 Mn3 1_555 1_555
O11 Mn2 1_555 1_555
O12 Mn1 1_555 1_555
O13 C23 1_555 1_555
O14 Mn1 1_555 1_555
O15 Mn1 1_555 1_555
C1 H1 1_555 1_555
H2 C1 1_555 1_555
N1 H3 1_555 1_555
N2 H4 1_555 1_555
C2 H5 1_555 1_555
H6 C2 1_555 1_555
C3 C1 1_555 1_555
H7 C3 1_555 1_555
H8 C3 1_555 1_555
C4 H9 1_555 1_555
H10 C4 1_555 1_555
C5 H11 1_555 1_555
H12 C5 1_555 1_555
N3 C2 1_555 1_555
H13 N3 1_555 1_555
C6 C4 1_555 1_555
H14 C6 1_555 1_555
H15 C6 1_555 1_555
C7 O14 1_555 1_555
C8 N2 1_555 1_555
H16 C8 1_555 1_555
H17 C8 1_555 1_555
C9 C5 1_555 1_555
H18 C9 1_555 1_555
H19 C9 1_555 1_555
C10 H20 1_555 1_555
C11 N1 1_555 1_555
H21 C11 1_555 1_555
H22 C11 1_555 1_555
C12 H23 1_555 1_555
C13 H24 1_555 1_555
C14 C10 1_555 1_555
C15 C10 1_555 1_555
H25 C15 1_555 1_555
C16 C12 1_555 1_555
H26 C16 1_555 1_555
C17 O15 1_555 1_555
C18 C14 1_555 1_555
C19 C16 1_555 1_555
C20 N1 1_555 1_555
C21 C13 1_555 1_555
H27 C21 1_555 1_555
C22 C28 1_555 1_555
C23 C24 1_555 1_555
C24 S1 1_555 1_555
C25 C21 1_555 1_555
C26 C30 1_555 1_555
C27 O10 1_555 1_555
C28 S3 1_555 1_555
C29 O3 1_555 1_555
C30 S2 1_555 1_555
Mn1B O7 1_555 1_555
Mn1B_2 O6 1_555 1_555
Mn2_2 O4 1_555 1_555
Mn3_2 O8 1_555 1_555
Mn3A O9 1_555 1_555
Mn3A_2 O13 1_555 1_555
O4_2 Mn2 1_555 1_555
O6B Mn1 1_555 1_555
O7B Mn1 1_555 1_555
O8_2 Mn3 1_555 1_555
O9A Mn3 1_555 1_555
O13A Mn3 1_555 1_555
Mn2 O14 1_555 1_555
Mn2 O15 1_555 1_555
O11 C27 1_555 1_555
O12 C29 1_555 1_555
C1 C7 1_555 1_555
N2 C17 1_555 1_555
C2 C3 1_555 1_555
C4 C8 1_555 1_555
C5 C11 1_555 1_555
N3 C7 1_555 1_555
C6 C17 1_555 1_555
C9 C20 1_555 1_555
C12 C30 1_555 1_555
C13 C28 1_555 1_555
C15 C24 1_555 1_555
C19 C27 1_555 1_555
C25 C29 1_555 1_555

#END
