
#######################################################################
#
#                 Cambridge Crystallographic Data Centre
#                                CCDC 
#
#######################################################################
#
# If this CIF has been generated from an entry in the Cambridge 
# Structural Database, then it will include bibliographic, chemical, 
# crystal, experimental, refinement or atomic coordinate data resulting 
# from the CCDC's data processing and validation procedures.
#
#######################################################################

data_ZIGWOD
_symmetry_cell_setting           triclinic
_symmetry_space_group_name_H-M   'P -1'
_symmetry_Int_Tables_number      2
_space_group_name_Hall           '-P 1'
loop_
_symmetry_equiv_pos_site_id
_symmetry_equiv_pos_as_xyz
1 x,y,z
2 -x,-y,-z
_cell_length_a                   9.4155(6)
_cell_length_b                   9.9399(4)
_cell_length_c                   15.3997(8)
_cell_angle_alpha                82.238(7)
_cell_angle_beta                 86.946(7)
_cell_angle_gamma                88.633(8)
_cell_volume                     1425.81
loop_
_atom_site_label
_atom_site_type_symbol
_atom_site_fract_x
_atom_site_fract_y
_atom_site_fract_z
Mn1 Mn 0.46329(7) 0.28618(7) 0.26264(5)
Mn2 Mn 0.06270(7) 0.30354(7) 0.24542(5)
S1 S -0.32074(13) 0.54346(15) 0.45425(9)
S2 S 0.15332(12) 0.79948(12) 0.22760(9)
O1 O 0.0394(4) 0.3131(4) 0.1032(2)
O2 O 0.5567(4) 0.2595(4) 0.1326(2)
O3 O -0.3514(3) 0.6839(4) 0.6140(2)
O4 O 0.2860(3) 1.1693(3) 0.2264(2)
O5 O 0.5821(4) 0.1073(4) 0.3270(3)
O6 O 0.1432(4) 0.5048(3) 0.2212(2)
O7 O -0.1545(3) 0.3451(4) 0.2700(2)
O8 O 0.3783(4) 0.4714(3) 0.1953(2)
O9 O 0.0711(3) 1.0821(3) 0.2473(2)
O10 O -0.1192(3) 0.7222(4) 0.6209(2)
O11 O -0.3770(3) 0.4061(4) 0.3023(2)
C1 C 0.6713(10) 0.1434(10) 0.0192(7)
H1 H 0.5829 0.1131 -0.0007
H2 H 0.7021 0.2226 -0.0207
C2 C 0.0808(6) 0.3421(6) -0.0559(4)
H3 H 0.0043 0.4076 -0.0686
H4 H 0.0509 0.2538 -0.0674
N1 N 0.6003(5) 0.1728(6) 0.4625(3)
H5 H 0.5308 0.2305 0.4570
C3 C 0.7988(10) 0.0545(9) 0.5139(6)
H6 H 0.8891 0.1007 0.5088
H7 H 0.8053 -0.0242 0.5583
C4 C 0.7669(8) 0.0098(7) 0.4260(5)
H8 H 0.8466 0.0262 0.3836
H9 H 0.7429 -0.0855 0.4326
C5 C 0.8442(7) 0.0271(7) 0.1087(5)
H10 H 0.8484 -0.0658 0.1375
H11 H 0.9384 0.0657 0.1041
C6 C 0.6788(7) 0.1507(9) 0.5408(5)
H12 H 0.6208 0.1084 0.5905
H13 H 0.7162 0.2349 0.5548
C7 C 0.7774(9) 0.0374(8) 0.0187(5)
H14 H 0.8487 0.0600 -0.0284
H15 H 0.7345 -0.0478 0.0113
C8 C 0.2151(9) 0.3850(10) -0.1098(5)
H16 H 0.2403 0.3200 -0.1500
H17 H 0.2007 0.4733 -0.1439
C9 C 0.6401(6) 0.1002(6) 0.3999(4)
C10 C 0.3288(7) 0.3912(8) -0.0495(4)
H18 H 0.4018 0.3228 -0.0573
H19 H 0.3719 0.4800 -0.0585
C11 C 0.1226(6) 0.3367(5) 0.0381(4)
N2 N 0.7393(5) 0.1104(6) 0.1529(4)
H20 H 0.7401 0.1121 0.2086
N3 N 0.2576(5) 0.3652(6) 0.0372(3)
H21 H 0.3012 0.3684 0.0846
C12 C 0.6482(6) 0.1793(6) 0.1078(4)
C13 C -0.1988(4) 0.5050(5) 0.3719(3)
C14 C 0.4035(5) 0.8910(5) 0.2249(4)
H22 H 0.4792 0.9492 0.2258
C15 C -0.1949(5) 0.6314(5) 0.4992(3)
C16 C 0.2962(5) 0.6889(5) 0.2186(3)
C17 C -0.2444(5) 0.4100(5) 0.3112(3)
C18 C 0.2632(5) 0.9319(5) 0.2291(3)
C19 C -0.2233(5) 0.6839(5) 0.5846(3)
C20 C -0.0724(5) 0.6367(5) 0.4493(3)
H23 H 0.0061 0.6848 0.4614
C21 C 0.4197(5) 0.7554(5) 0.2191(4)
H24 H 0.5083 0.7125 0.2159
C22 C 0.2700(5) 0.5422(5) 0.2126(3)
C23 C 0.2046(6) 1.0700(5) 0.2352(3)
C24 C -0.0737(5) 0.5636(5) 0.3777(3)
H25 H 0.0039 0.5566 0.3385
Mn1_2 Mn -0.53671(7) 0.28618(7) 0.26264(5)
Mn1_3 Mn 0.46329(7) 1.28618(7) 0.26264(5)
Mn1A Mn -0.46329(7) 0.71382(7) 0.73736(5)
Mn2_2 Mn 0.06270(7) 1.30354(7) 0.24542(5)
Mn2A Mn -0.06270(7) 0.69646(7) 0.75458(5)
O3A O 0.3514(3) 0.3161(4) 0.3860(2)
O4_2 O 0.2860(3) 0.1693(3) 0.2264(2)
O9_2 O 0.0711(3) 0.0821(3) 0.2473(2)
O10A O 0.1192(3) 0.2778(4) 0.3791(2)
O11_2 O 0.6230(3) 0.4061(4) 0.3023(2)
loop_
_geom_bond_atom_site_label_1
_geom_bond_atom_site_label_2
_geom_bond_site_symmetry_1
_geom_bond_site_symmetry_2
Mn1 O2 1_555 1_555
Mn2 O1 1_555 1_555
S1 C13 1_555 1_555
S2 C16 1_555 1_555
O1 C11 1_555 1_555
O2 C12 1_555 1_555
O3 C19 1_555 1_555
O4 C23 1_555 1_555
O5 Mn1 1_555 1_555
O6 Mn2 1_555 1_555
O7 Mn2 1_555 1_555
O8 Mn1 1_555 1_555
O9 C23 1_555 1_555
O10 C19 1_555 1_555
O11 C17 1_555 1_555
C1 H1 1_555 1_555
H2 C1 1_555 1_555
C2 H3 1_555 1_555
H4 C2 1_555 1_555
N1 H5 1_555 1_555
C3 H6 1_555 1_555
H7 C3 1_555 1_555
C4 C3 1_555 1_555
H8 C4 1_555 1_555
H9 C4 1_555 1_555
C5 H10 1_555 1_555
H11 C5 1_555 1_555
C6 N1 1_555 1_555
H12 C6 1_555 1_555
H13 C6 1_555 1_555
C7 C1 1_555 1_555
H14 C7 1_555 1_555
H15 C7 1_555 1_555
C8 C2 1_555 1_555
H16 C8 1_555 1_555
H17 C8 1_555 1_555
C9 O5 1_555 1_555
C10 C8 1_555 1_555
H18 C10 1_555 1_555
H19 C10 1_555 1_555
C11 C2 1_555 1_555
N2 C5 1_555 1_555
H20 N2 1_555 1_555
N3 C10 1_555 1_555
H21 N3 1_555 1_555
C12 C1 1_555 1_555
C13 C17 1_555 1_555
C14 H22 1_555 1_555
C15 S1 1_555 1_555
C16 C21 1_555 1_555
C17 O7 1_555 1_555
C18 S2 1_555 1_555
C19 C15 1_555 1_555
C20 C15 1_555 1_555
H23 C20 1_555 1_555
C21 C14 1_555 1_555
H24 C21 1_555 1_555
C22 O6 1_555 1_555
C23 C18 1_555 1_555
C24 C13 1_555 1_555
H25 C24 1_555 1_555
Mn1_2 O11 1_555 1_555
Mn1_3 O4 1_555 1_555
Mn1A O3 1_555 1_555
Mn2_2 O9 1_555 1_555
Mn2A O10 1_555 1_555
O3A Mn1 1_555 1_555
O4_2 Mn1 1_555 1_555
O9_2 Mn2 1_555 1_555
O10A Mn2 1_555 1_555
O11_2 Mn1 1_555 1_555
O8 C22 1_555 1_555
N1 C9 1_555 1_555
C3 C6 1_555 1_555
C4 C9 1_555 1_555
C5 C7 1_555 1_555
C11 N3 1_555 1_555
N2 C12 1_555 1_555
C14 C18 1_555 1_555
C16 C22 1_555 1_555
C20 C24 1_555 1_555

#END
