
#######################################################################
#
#                 Cambridge Crystallographic Data Centre
#                                CCDC 
#
#######################################################################
#
# If this CIF has been generated from an entry in the Cambridge 
# Structural Database, then it will include bibliographic, chemical, 
# crystal, experimental, refinement or atomic coordinate data resulting 
# from the CCDC's data processing and validation procedures.
#
#######################################################################

data_ZIGXAQ
_symmetry_cell_setting           monoclinic
_symmetry_space_group_name_H-M   'C 2/c'
_symmetry_Int_Tables_number      15
_space_group_name_Hall           '-C 2yn'
loop_
_symmetry_equiv_pos_site_id
_symmetry_equiv_pos_as_xyz
1 x,y,z
2 -x,y,1/2-z
3 1/2+x,1/2+y,z
4 1/2-x,1/2+y,1/2-z
5 -x,-y,-z
6 x,-y,1/2+z
7 1/2-x,1/2-y,-z
8 1/2+x,1/2-y,1/2+z
_cell_length_a                   11.857(9)
_cell_length_b                   18.273(13)
_cell_length_c                   11.496(11)
_cell_angle_alpha                90
_cell_angle_beta                 99.20(2)
_cell_angle_gamma                90
_cell_volume                     2458.72
loop_
_atom_site_label
_atom_site_type_symbol
_atom_site_fract_x
_atom_site_fract_y
_atom_site_fract_z
Mn1 Mn 0.5000 0.23040(7) 0.2500
Mn2 Mn 0.2500 0.2500 0.0000
S1 S 0.26796(14) 0.00343(9) 0.31886(14)
O1 O 0.2192(3) 0.1872(2) 0.1473(3)
O2 O 0.2262(4) -0.1497(2) 0.3988(4)
O3 O 0.3725(3) 0.1495(2) 0.2718(4)
O4 O 0.1137(3) -0.1817(2) 0.2328(4)
O5 O 0.5600(3) 0.2237(2) 0.4479(3)
C1 C 0.2755(5) 0.1406(3) 0.2099(5)
C2 C 0.1715(4) -0.1376(3) 0.2989(5)
C3 C 0.1406(6) 0.0388(4) 0.1297(7)
H1 H 0.1049 0.0650 0.0647
C4 C 0.2232(5) 0.0668(3) 0.2113(5)
C5 C 0.1753(4) -0.0616(3) 0.2513(5)
C6 C 0.1140(6) -0.0343(4) 0.1527(6)
H2 H 0.0590 -0.0613 0.1039
C7 C 0.5002(6) 0.1890(5) 0.5119(6)
C8 C 0.5070(7) 0.1053(5) 0.5139(7)
H3 H 0.4323 0.0853 0.5150
H4 H 0.5577 0.0897 0.5831
H5 H 0.5353 0.0884 0.4450
C9 C 0.4311(7) 0.3009(6) 0.5701(8)
H6 H 0.4594 0.3181 0.5013
H7 H 0.4776 0.3202 0.6393
H8 H 0.3536 0.3170 0.5676
N1 N 0.4351(5) 0.2207(6) 0.5734(6)
C10 C 0.3626(9) 0.1826(7) 0.6457(9)
H9 H 0.4087 0.1505 0.6997
H10 H 0.3058 0.1546 0.5957
H11 H 0.3257 0.2178 0.6890
S1A S 0.73204(14) 0.00343(9) 0.18114(14)
O1A O 0.7808(3) 0.1872(2) 0.3527(3)
O2A O 0.7738(4) -0.1497(2) 0.1012(4)
O3A O 0.6275(3) 0.1495(2) 0.2282(4)
O4A O 0.8863(3) -0.1817(2) 0.2672(4)
O5A O 0.4400(3) 0.2237(2) 0.0521(3)
C1A C 0.7245(5) 0.1406(3) 0.2901(5)
C2A C 0.8285(4) -0.1376(3) 0.2011(5)
C3A C 0.8594(6) 0.0388(4) 0.3703(7)
H1A H 0.8951 0.0650 0.4353
C4A C 0.7768(5) 0.0668(3) 0.2887(5)
C5A C 0.8247(4) -0.0616(3) 0.2487(5)
C6A C 0.8860(6) -0.0343(4) 0.3473(6)
H2A H 0.9410 -0.0613 0.3961
C7A C 0.4998(6) 0.1890(5) -0.0119(6)
C8A C 0.4930(7) 0.1053(5) -0.0139(7)
H3A H 0.5677 0.0853 -0.0150
H4A H 0.4423 0.0897 -0.0831
H5A H 0.4647 0.0884 0.0550
C9A C 0.5689(7) 0.3009(6) -0.0701(8)
H6A H 0.5406 0.3181 -0.0013
H7A H 0.5224 0.3202 -0.1393
H8A H 0.6464 0.3170 -0.0676
N1A N 0.5649(5) 0.2207(6) -0.0734(6)
C10A C 0.6374(9) 0.1826(7) -0.1457(9)
H9A H 0.5913 0.1505 -0.1997
H10A H 0.6942 0.1546 -0.0957
H11A H 0.6743 0.2178 -0.1890
Mn1B Mn 0.0000 -0.26960(7) 0.2500
Mn1B_2 Mn 1.0000 -0.26960(7) 0.2500
Mn2A Mn 0.7500 0.2500 0.5000
Mn2B Mn 0.7500 -0.2500 0.0000
Mn2C Mn 0.2500 -0.2500 0.5000
O1F O 0.2808(3) 0.3128(2) -0.1473(3)
O2C O 0.2738(4) 0.3503(2) 0.1012(4)
O2E O 0.2262(4) 0.1497(2) -0.1012(4)
O4B O 0.6137(3) 0.3183(2) 0.2328(4)
O4C O 0.3863(3) 0.3183(2) 0.2672(4)
O5G O 0.0600(3) 0.2763(2) -0.0521(3)
loop_
_geom_bond_atom_site_label_1
_geom_bond_atom_site_label_2
_geom_bond_site_symmetry_1
_geom_bond_site_symmetry_2
Mn1 O3 1_555 1_555
Mn2 O1 1_555 1_555
S1 C4 1_555 1_555
O1 C1 1_555 1_555
O2 C2 1_555 1_555
O3 C1 1_555 1_555
O4 C2 1_555 1_555
O5 Mn1 1_555 1_555
C1 C4 1_555 1_555
C2 C5 1_555 1_555
C3 H1 1_555 1_555
C4 C3 1_555 1_555
C5 S1 1_555 1_555
C6 C3 1_555 1_555
H2 C6 1_555 1_555
C7 O5 1_555 1_555
C8 C7 1_555 1_555
H3 C8 1_555 1_555
H4 C8 1_555 1_555
H5 C8 1_555 1_555
C9 H6 1_555 1_555
H7 C9 1_555 1_555
H8 C9 1_555 1_555
N1 C7 1_555 1_555
C10 N1 1_555 1_555
H9 C10 1_555 1_555
H10 C10 1_555 1_555
H11 C10 1_555 1_555
S1A C4A 1_555 1_555
O1A C1A 1_555 1_555
O2A C2A 1_555 1_555
O3A Mn1 1_555 1_555
O4A C2A 1_555 1_555
O5A Mn1 1_555 1_555
C1A O3A 1_555 1_555
C2A C5A 1_555 1_555
C3A H1A 1_555 1_555
C4A C1A 1_555 1_555
C5A S1A 1_555 1_555
C6A C3A 1_555 1_555
H2A C6A 1_555 1_555
C7A O5A 1_555 1_555
C8A C7A 1_555 1_555
H3A C8A 1_555 1_555
H4A C8A 1_555 1_555
H5A C8A 1_555 1_555
C9A H6A 1_555 1_555
H7A C9A 1_555 1_555
H8A C9A 1_555 1_555
N1A C7A 1_555 1_555
C10A N1A 1_555 1_555
H9A C10A 1_555 1_555
H10A C10A 1_555 1_555
H11A C10A 1_555 1_555
Mn1B O4 1_555 1_555
Mn1B_2 O4A 1_555 1_555
Mn2A O5 1_555 1_555
Mn2B O2A 1_555 1_555
Mn2C O2 1_555 1_555
O1F Mn2 1_555 1_555
O2C Mn2 1_555 1_555
O2E Mn2 1_555 1_555
O4B Mn1 1_555 1_555
O4C Mn1 1_555 1_555
O5G Mn2 1_555 1_555
Mn2 O5A 1_555 1_555
C5 C6 1_555 1_555
C9 N1 1_555 1_555
O1A Mn2A 1_555 1_555
C3A C4A 1_555 1_555
C5A C6A 1_555 1_555
C9A N1A 1_555 1_555

#END
