
#######################################################################
#
#                 Cambridge Crystallographic Data Centre
#                                CCDC 
#
#######################################################################
#
# If this CIF has been generated from an entry in the Cambridge 
# Structural Database, then it will include bibliographic, chemical, 
# crystal, experimental, refinement or atomic coordinate data resulting 
# from the CCDC's data processing and validation procedures.
#
#######################################################################

data_ZIHFIF
_symmetry_cell_setting           tetragonal
_symmetry_space_group_name_H-M   'I 41/a'
_symmetry_Int_Tables_number      88
_space_group_name_Hall           '-I 4ad'
loop_
_symmetry_equiv_pos_site_id
_symmetry_equiv_pos_as_xyz
1 x,y,z
2 3/4-y,1/4+x,1/4+z
3 1/2-x,-y,1/2+z
4 3/4+y,3/4-x,3/4+z
5 1/2+x,1/2+y,1/2+z
6 1/4-y,3/4+x,3/4+z
7 -x,1/2-y,z
8 1/4+y,1/4-x,1/4+z
9 -x,-y,-z
10 1/4+y,3/4-x,3/4-z
11 1/2+x,y,1/2-z
12 1/4-y,1/4+x,1/4-z
13 1/2-x,1/2-y,1/2-z
14 3/4+y,1/4-x,1/4-z
15 x,1/2+y,-z
16 3/4-y,3/4+x,3/4-z
_cell_length_a                   13.876(8)
_cell_length_b                   13.876(8)
_cell_length_c                   16.173(1)
_cell_angle_alpha                90
_cell_angle_beta                 90
_cell_angle_gamma                90
_cell_volume                     3114
loop_
_atom_site_label
_atom_site_type_symbol
_atom_site_fract_x
_atom_site_fract_y
_atom_site_fract_z
N1 N 0.0797(2) 0.1691(2) 0.4980(2)
C1 C 0.1757(3) 0.1846(3) 0.4947(2)
C2 C 0.2403(3) 0.1321(3) 0.5428(2)
C3 C 0.2024(3) 0.0603(3) 0.5938(3)
C4 C 0.1055(3) 0.0443(3) 0.5971(3)
C5 C 0.0452(3) 0.1010(3) 0.5487(3)
C6 C 0.2050(3) 0.2601(3) 0.4322(2)
C7 C 0.3491(3) 0.1451(3) 0.5427(3)
H1 H 0.2456 0.0200 0.6259
H2 H 0.0789 -0.0062 0.6329
H3 H -0.0250 0.0918 0.5522
Zn1 Zn 0.0000 0.2500 0.40655(5)
O1 O 0.1371(2) 0.3104(2) 0.4013(2)
O2 O 0.2914(2) 0.2678(2) 0.4154(2)
O3 O 0.3837(2) 0.2224(2) 0.5724(2)
O4 O 0.3950(2) 0.0763(2) 0.5178(2)
N1F N -0.0797(2) 0.3309(2) 0.4980(2)
C1F C -0.1757(3) 0.3154(3) 0.4947(2)
C2F C -0.2403(3) 0.3679(3) 0.5428(2)
C3F C -0.2024(3) 0.4397(3) 0.5938(3)
C4F C -0.1055(3) 0.4557(3) 0.5971(3)
C5F C -0.0452(3) 0.3990(3) 0.5487(3)
H3F H 0.0250 0.4082 0.5522
H2F H -0.0789 0.5062 0.6329
H1F H -0.2456 0.4800 0.6259
C7F C -0.3491(3) 0.3549(3) 0.5427(3)
O3F O -0.3837(2) 0.2776(2) 0.5724(2)
Zn1G Zn -0.5000 0.2500 0.65655(5)
Zn1A Zn 0.5000 0.2500 0.65655(5)
O4F O -0.3950(2) 0.4237(2) 0.5178(2)
C6F C -0.2050(3) 0.2399(3) 0.4322(2)
O1F O -0.1371(2) 0.1896(2) 0.4013(2)
O2F O -0.2914(2) 0.2322(2) 0.4154(2)
O3C O -0.0276(2) 0.3663(2) 0.3224(2)
O3E O 0.0276(2) 0.1337(2) 0.3224(2)
K1 K 0.42099(7) -0.11115(7) 0.52133(7)
loop_
_geom_bond_atom_site_label_1
_geom_bond_atom_site_label_2
_geom_bond_site_symmetry_1
_geom_bond_site_symmetry_2
N1 C1 1_555 1_555
C1 C2 1_555 1_555
C2 C3 1_555 1_555
C3 C4 1_555 1_555
C4 C5 1_555 1_555
C5 N1 1_555 1_555
C6 C1 1_555 1_555
C7 C2 1_555 1_555
H1 C3 1_555 1_555
H2 C4 1_555 1_555
H3 C5 1_555 1_555
Zn1 N1 1_555 1_555
O1 C6 1_555 1_555
O2 C6 1_555 1_555
O3 C7 1_555 1_555
O4 C7 1_555 1_555
N1F Zn1 1_555 1_555
C1F N1F 1_555 1_555
C2F C1F 1_555 1_555
C3F C2F 1_555 1_555
C4F C3F 1_555 1_555
C5F N1F 1_555 1_555
H3F C5F 1_555 1_555
H2F C4F 1_555 1_555
H1F C3F 1_555 1_555
C7F C2F 1_555 1_555
O3F C7F 1_555 1_555
Zn1G O3F 1_555 1_555
Zn1A O3 1_555 1_555
O4F C7F 1_555 1_555
C6F C1F 1_555 1_555
O1F Zn1 1_555 1_555
O2F C6F 1_555 1_555
O3C Zn1 1_555 1_555
O3E Zn1 1_555 1_555
Zn1 O1 1_555 1_555
C4F C5F 1_555 1_555
C6F O1F 1_555 1_555

#END
