
#######################################################################
#
#                 Cambridge Crystallographic Data Centre
#                                CCDC 
#
#######################################################################
#
# If this CIF has been generated from an entry in the Cambridge 
# Structural Database, then it will include bibliographic, chemical, 
# crystal, experimental, refinement or atomic coordinate data resulting 
# from the CCDC's data processing and validation procedures.
#
#######################################################################

data_ZIHFEB
_symmetry_cell_setting           tetragonal
_symmetry_space_group_name_H-M   'I 41/a'
_symmetry_Int_Tables_number      88
_space_group_name_Hall           '-I 4ad'
loop_
_symmetry_equiv_pos_site_id
_symmetry_equiv_pos_as_xyz
1 x,y,z
2 3/4-y,1/4+x,1/4+z
3 1/2-x,-y,1/2+z
4 3/4+y,3/4-x,3/4+z
5 1/2+x,1/2+y,1/2+z
6 1/4-y,3/4+x,3/4+z
7 -x,1/2-y,z
8 1/4+y,1/4-x,1/4+z
9 -x,-y,-z
10 1/4+y,3/4-x,3/4-z
11 1/2+x,y,1/2-z
12 1/4-y,1/4+x,1/4-z
13 1/2-x,1/2-y,1/2-z
14 3/4+y,1/4-x,1/4-z
15 x,1/2+y,-z
16 3/4-y,3/4+x,3/4-z
_cell_length_a                   14.049(7)
_cell_length_b                   14.049(7)
_cell_length_c                   16.284(2)
_cell_angle_alpha                90
_cell_angle_beta                 90
_cell_angle_gamma                90
_cell_volume                     3214.04
loop_
_atom_site_label
_atom_site_type_symbol
_atom_site_fract_x
_atom_site_fract_y
_atom_site_fract_z
C1 C 0.4343(4) 0.4291(4) -0.7521(4)
C2 C 0.3822(4) 0.4931(4) -0.7048(4)
C3 C 0.6892(4) 0.0430(4) -0.6550(4)
C4 C 0.7058(5) 0.1398(5) -0.6506(4)
C5 C 0.6489(4) 0.1988(5) -0.6982(4)
C6 C 0.5094(5) 0.4588(5) -0.8155(4)
C7 C 0.3972(4) 0.5995(4) -0.7068(4)
H1 H 0.2718 0.4964 -0.6190
H2 H 0.2323 0.3288 -0.6204
H3 H 0.6578 0.2768 -0.7034
Mn1 Mn 0.5000 0.7500 -0.59467(9)
O1 O 0.5597(3) 0.3917(3) -0.8452(3)
O2 O 0.4852(3) -0.0436(3) -0.8334(3)
O3 O 0.4727(3) 0.6325(3) -0.6772(3)
O4 O 0.6715(3) -0.1473(3) -0.7316(3)
N1 N 0.5814(3) 0.1659(3) -0.7483(3)
Mn1C Mn 0.5000 0.2500 -0.84467(9)
O1F O 0.4403(3) 0.1083(3) -0.8452(3)
C6F C 0.4906(5) 0.0412(5) -0.8155(4)
C1F C 0.5657(4) 0.0709(4) -0.7521(4)
C2F C 0.6178(4) 0.0069(4) -0.7048(4)
O3C O 0.3825(3) 0.2773(3) -0.9272(3)
O3E O 0.6175(3) 0.2227(3) -0.9272(3)
N1F N 0.4186(3) 0.3341(3) -0.7483(3)
C5F C 0.3511(4) 0.3012(5) -0.6982(4)
C4F C 0.2942(5) 0.3602(5) -0.6506(4)
C3F C 0.3108(4) 0.4570(4) -0.6550(4)
H3F H 0.3422 0.2232 -0.7034
H2F H 0.7677 0.1712 -0.6204
H1F H 0.7282 0.0036 -0.6190
C7F C 0.6028(4) -0.0995(4) -0.7068(4)
O3F O 0.5273(3) -0.1325(3) -0.6772(3)
Mn1_2 Mn 0.5000 -0.2500 -0.59467(9)
O2F O 0.5148(3) 0.5436(3) -0.8334(3)
O4F O 0.3285(3) 0.6473(3) -0.7316(3)
K1 K 0.4192(1) 0.6087(1) 0.0204(1)
loop_
_geom_bond_atom_site_label_1
_geom_bond_atom_site_label_2
_geom_bond_site_symmetry_1
_geom_bond_site_symmetry_2
C1 C2 1_555 1_555
C2 C7 1_555 1_555
C3 C4 1_555 1_555
C4 C5 1_555 1_555
C5 H3 1_555 1_555
C6 C1 1_555 1_555
C7 O3 1_555 1_555
H1 C3F 1_555 1_555
H2 C4F 1_555 1_555
Mn1 O3 1_555 1_555
O1 C6 1_555 1_555
O2 C6F 1_555 1_555
O4 C7F 1_555 1_555
N1 C5 1_555 1_555
Mn1C O1 1_555 1_555
O1F Mn1C 1_555 1_555
C6F O1F 1_555 1_555
C1F N1 1_555 1_555
C2F C3 1_555 1_555
O3C Mn1C 1_555 1_555
O3E Mn1C 1_555 1_555
N1F C1 1_555 1_555
C5F N1F 1_555 1_555
C4F C5F 1_555 1_555
C3F C2 1_555 1_555
H3F C5F 1_555 1_555
H2F C4 1_555 1_555
H1F C3 1_555 1_555
C7F C2F 1_555 1_555
O3F C7F 1_555 1_555
Mn1_2 O3F 1_555 1_555
O2F C6 1_555 1_555
O4F C7 1_555 1_555
N1 Mn1C 1_555 1_555
Mn1C N1F 1_555 1_555
C6F C1F 1_555 1_555
C1F C2F 1_555 1_555
C4F C3F 1_555 1_555

#END
