
#######################################################################
#
#                 Cambridge Crystallographic Data Centre
#                                CCDC 
#
#######################################################################
#
# If this CIF has been generated from an entry in the Cambridge 
# Structural Database, then it will include bibliographic, chemical, 
# crystal, experimental, refinement or atomic coordinate data resulting 
# from the CCDC's data processing and validation procedures.
#
#######################################################################

data_ZIHFUR
_symmetry_cell_setting           tetragonal
_symmetry_space_group_name_H-M   'I -4 2 d'
_symmetry_Int_Tables_number      122
_space_group_name_Hall           'I -4 2bw'
loop_
_symmetry_equiv_pos_site_id
_symmetry_equiv_pos_as_xyz
1 x,y,z
2 y,-x,-z
3 x,1/2-y,1/4-z
4 -x,-y,z
5 1/2-y,-x,3/4+z
6 -y,x,-z
7 -x,1/2+y,1/4-z
8 1/2+y,x,3/4+z
9 1/2+x,1/2+y,1/2+z
10 1/2+y,1/2-x,1/2-z
11 1/2+x,-y,3/4-z
12 1/2-x,1/2-y,1/2+z
13 -y,1/2-x,1/4+z
14 1/2-y,1/2+x,1/2-z
15 1/2-x,y,3/4-z
16 y,1/2+x,1/4+z
_cell_length_a                   24.552(3)
_cell_length_b                   24.552(3)
_cell_length_c                   4.845(1)
_cell_angle_alpha                90
_cell_angle_beta                 90
_cell_angle_gamma                90
_cell_volume                     2920.57
loop_
_atom_site_label
_atom_site_type_symbol
_atom_site_fract_x
_atom_site_fract_y
_atom_site_fract_z
Ag1 Ag 0.0000 0.5000 0.7500
N1 N -0.0318(5) 0.5692(5) 0.4826(27)
C1 C -0.0376(7) 0.6421(7) 0.1184(29)
C2 C -0.0853(7) 0.6629(8) 0.0184(43)
C3 C -0.0863(7) 0.7033(7) -0.1751(35)
C4 C -0.0388(6) 0.7280(6) -0.2753(30)
C5 C 0.0111(6) 0.7078(7) -0.1754(32)
C6 C 0.0097(8) 0.6643(7) 0.0269(40)
C7 C -0.0344(6) 0.6023(6) 0.3179(26)
H1 H -0.1181(7) 0.6491(8) 0.0842(43)
H2 H -0.1198(7) 0.7148(7) -0.2430(35)
H3 H 0.0441(6) 0.7220(7) -0.2374(32)
H4 H 0.0425(8) 0.6511(7) 0.0966(40)
C4B C -0.0388(6) 0.7720(6) -0.4747(30)
C3B C -0.0863(7) 0.7967(7) -0.5749(35)
C2B C -0.0853(7) 0.8371(8) -0.7684(43)
C1B C -0.0376(7) 0.8579(7) -0.8684(29)
C6B C 0.0097(8) 0.8357(7) -0.7769(40)
C5B C 0.0111(6) 0.7922(7) -0.5746(32)
H3B H 0.0441(6) 0.7780(7) -0.5126(32)
H4B H 0.0425(8) 0.8489(7) -0.8466(40)
C7B C -0.0344(6) 0.8977(6) -1.0679(26)
N1B N -0.0318(5) 0.9308(5) -1.2326(27)
Ag1B Ag 0.0000 1.0000 -1.5000
Ag1L Ag -0.5000 0.5000 3.0000
N1O N -0.4308(5) 0.4682(5) 2.7326(27)
C7O C -0.3977(6) 0.4656(6) 2.5679(26)
C1O C -0.3579(7) 0.4624(7) 2.3684(29)
C2O C -0.3371(8) 0.4147(7) 2.2684(43)
C3O C -0.2967(7) 0.4137(7) 2.0749(35)
C4O C -0.2720(6) 0.4612(6) 1.9747(30)
C4M C -0.2280(6) 0.4612(6) 1.7753(30)
C3M C -0.2033(7) 0.4137(7) 1.6751(35)
C2M C -0.1629(8) 0.4147(7) 1.4816(43)
C1M C -0.1421(7) 0.4624(7) 1.3816(29)
C6M C -0.1643(7) 0.5097(8) 1.4731(40)
C5M C -0.2078(7) 0.5111(6) 1.6754(32)
H3M H -0.2220(7) 0.5441(6) 1.7374(32)
H4M H -0.1511(7) 0.5425(8) 1.4034(40)
C7M C -0.1023(6) 0.4656(6) 1.1821(26)
N1M N -0.0692(5) 0.4682(5) 1.0174(27)
N1C N 0.0318(5) 0.4308(5) 0.4826(27)
N1I N 0.0692(5) 0.5318(5) 1.0174(27)
H1M H -0.1491(8) 0.3819(7) 1.4158(43)
H2M H -0.2148(7) 0.3802(7) 1.7430(35)
C5O C -0.2922(7) 0.5111(6) 2.0746(32)
C6O C -0.3357(7) 0.5097(8) 2.2769(40)
H4O H -0.3489(7) 0.5425(8) 2.3466(40)
H3O H -0.2780(7) 0.5441(6) 2.0126(32)
H2O H -0.2852(7) 0.3802(7) 2.0070(35)
H1O H -0.3509(8) 0.3819(7) 2.3342(43)
H1B H -0.1181(7) 0.8509(8) -0.8342(43)
H2B H -0.1198(7) 0.7852(7) -0.5070(35)
P1 P 0.1639(5) 0.7500 0.1250
F1 F 0.1207(6) 0.7142(6) 0.2489(42)
F2 F 0.2060(6) 0.7867(6) 0.0044(44)
F3 F 0.1624(9) 0.7840(7) 0.3811(35)
F1B F 0.1207(6) 0.7858(6) 0.0011(42)
F2B F 0.2060(6) 0.7133(6) 0.2456(44)
F3B F 0.1624(9) 0.7160(7) -0.1311(35)
loop_
_geom_bond_atom_site_label_1
_geom_bond_atom_site_label_2
_geom_bond_site_symmetry_1
_geom_bond_site_symmetry_2
Ag1 N1 1_555 1_555
P1 F1 1_555 1_555
F2 P1 1_555 1_555
F3 P1 1_555 1_555
N1 C7 1_555 1_555
C1 C2 1_555 1_555
C2 C3 1_555 1_555
C3 C4 1_555 1_555
C4 C5 1_555 1_555
C5 C6 1_555 1_555
C6 C1 1_555 1_555
C7 C1 1_555 1_555
H1 C2 1_555 1_555
H2 C3 1_555 1_555
H3 C5 1_555 1_555
H4 C6 1_555 1_555
C4B C4 1_555 1_555
C3B C4B 1_555 1_555
C2B C3B 1_555 1_555
C1B C2B 1_555 1_555
C6B C1B 1_555 1_555
C5B C4B 1_555 1_555
H3B C5B 1_555 1_555
H4B C6B 1_555 1_555
C7B C1B 1_555 1_555
N1B C7B 1_555 1_555
Ag1B N1B 1_555 1_555
Ag1L N1O 1_555 1_555
N1O C7O 1_555 1_555
C7O C1O 1_555 1_555
C1O C2O 1_555 1_555
C2O C3O 1_555 1_555
C3O C4O 1_555 1_555
C4O C4M 1_555 1_555
C4M C3M 1_555 1_555
C3M C2M 1_555 1_555
C2M C1M 1_555 1_555
C1M C6M 1_555 1_555
C6M C5M 1_555 1_555
C5M C4M 1_555 1_555
H3M C5M 1_555 1_555
H4M C6M 1_555 1_555
C7M C1M 1_555 1_555
N1M Ag1 1_555 1_555
N1C Ag1 1_555 1_555
N1I Ag1 1_555 1_555
H1M C2M 1_555 1_555
H2M C3M 1_555 1_555
C5O C4O 1_555 1_555
C6O C1O 1_555 1_555
H4O C6O 1_555 1_555
H3O C5O 1_555 1_555
H2O C3O 1_555 1_555
H1O C2O 1_555 1_555
H1B C2B 1_555 1_555
H2B C3B 1_555 1_555
F1B P1 1_555 1_555
F2B P1 1_555 1_555
F3B P1 1_555 1_555
C6B C5B 1_555 1_555
C7M N1M 1_555 1_555
C5O C6O 1_555 1_555

#END
