
#######################################################################
#
#                 Cambridge Crystallographic Data Centre
#                                CCDC 
#
#######################################################################
#
# If this CIF has been generated from an entry in the Cambridge 
# Structural Database, then it will include bibliographic, chemical, 
# crystal, experimental, refinement or atomic coordinate data resulting 
# from the CCDC's data processing and validation procedures.
#
#######################################################################

data_ZIHZUL
_symmetry_cell_setting           monoclinic
_symmetry_space_group_name_H-M   'P 21/c'
_symmetry_Int_Tables_number      14
_space_group_name_Hall           '-P 2ybc'
loop_
_symmetry_equiv_pos_site_id
_symmetry_equiv_pos_as_xyz
1 x,y,z
2 -x,1/2+y,1/2-z
3 -x,-y,-z
4 x,1/2-y,1/2+z
_cell_length_a                   13.978(3)
_cell_length_b                   8.791(2)
_cell_length_c                   9.691(2)
_cell_angle_alpha                90
_cell_angle_beta                 102.08(1)
_cell_angle_gamma                90
_cell_volume                     1164.47
loop_
_atom_site_label
_atom_site_type_symbol
_atom_site_fract_x
_atom_site_fract_y
_atom_site_fract_z
Zn1 Zn -0.0064(2) 0.1692(3) 0.1490(2)
P1 P -0.1158(3) 0.1264(5) -0.1728(5)
O1 O -0.0990(6) 0.0945(8) -0.0122(6)
O2 O -0.0702(5) 0.2205(8) 0.2991(7)
O3 O 0.0661(7) 0.0071(8) 0.2469(7)
C1 C -0.2491(5) 0.120(2) -0.248(1)
C2 C -0.2889(6) 0.191(2) -0.373(1)
C3 C -0.3885(7) 0.181(2) -0.432(1)
C4 C -0.4494(5) 0.112(2) -0.354(1)
C5 C -0.4102(7) 0.047(2) -0.222(1)
C6 C -0.3118(7) 0.055(2) -0.167(1)
N1 N 0.0687(8) 0.348(1) 0.090(1)
C7 C 0.1810(7) 0.366(1) 0.117(1)
C8 C 0.2188(8) 0.354(1) 0.273(1)
C9 C 0.3216(8) 0.361(1) 0.317(1)
O2C O -0.0702(5) 0.2795(8) -0.2009(7)
Zn1C Zn -0.0064(2) 0.3308(3) -0.3510(2)
Zn1B Zn 0.0064(2) -0.1692(3) -0.1490(2)
O3B O -0.0661(7) -0.0071(8) -0.2469(7)
loop_
_geom_bond_atom_site_label_1
_geom_bond_atom_site_label_2
_geom_bond_site_symmetry_1
_geom_bond_site_symmetry_2
Zn1 O1 1_555 1_555
P1 O1 1_555 1_555
O2 Zn1 1_555 1_555
O3 Zn1 1_555 1_555
C1 P1 1_555 1_555
C2 C1 1_555 1_555
C3 C2 1_555 1_555
C4 C3 1_555 1_555
C5 C4 1_555 1_555
C6 C1 1_555 1_555
N1 Zn1 1_555 1_555
C7 N1 1_555 1_555
C8 C7 1_555 1_555
C9 C8 1_555 1_555
O2C P1 1_555 1_555
Zn1C O2C 1_555 1_555
Zn1B O3B 1_555 1_555
O3B P1 1_555 1_555
C5 C6 1_555 1_555

#END
