
#######################################################################
#
#                 Cambridge Crystallographic Data Centre
#                                CCDC 
#
#######################################################################
#
# If this CIF has been generated from an entry in the Cambridge 
# Structural Database, then it will include bibliographic, chemical, 
# crystal, experimental, refinement or atomic coordinate data resulting 
# from the CCDC's data processing and validation procedures.
#
#######################################################################

data_ZIJBAV
_symmetry_cell_setting           monoclinic
_symmetry_space_group_name_H-M   'P 21/c'
_symmetry_Int_Tables_number      14
_space_group_name_Hall           '-P 2ybc'
loop_
_symmetry_equiv_pos_site_id
_symmetry_equiv_pos_as_xyz
1 x,y,z
2 -x,1/2+y,1/2-z
3 -x,-y,-z
4 x,1/2-y,1/2+z
_cell_length_a                   14.698(4)
_cell_length_b                   8.957(3)
_cell_length_c                   9.712(3)
_cell_angle_alpha                90
_cell_angle_beta                 102.465(3)
_cell_angle_gamma                90
_cell_volume                     1248.45
loop_
_atom_site_label
_atom_site_type_symbol
_atom_site_fract_x
_atom_site_fract_y
_atom_site_fract_z
Zn1 Zn -0.0077(2) 0.1677(4) 0.1468(4)
P1 P -0.1095(4) 0.1230(7) -0.1731(7)
O1 O -0.0992(6) 0.0995(11) -0.0142(7)
O2 O -0.0656(6) 0.2304(11) 0.2946(9)
O3 O 0.0681(8) 0.0132(10) 0.2458(9)
C1 C -0.2311(5) 0.119(2) -0.254(1)
C2 C -0.2654(6) 0.201(2) -0.374(1)
C3 C -0.3602(7) 0.204(2) -0.431(2)
C4 C -0.4173(5) 0.112(2) -0.372(2)
C5 C -0.3853(7) 0.057(3) -0.236(2)
C6 C -0.2903(7) 0.044(2) -0.185(2)
N1 N 0.0618(7) 0.334(1) 0.080(1)
C7 C 0.1603(8) 0.362(2) 0.095(2)
C8 C 0.2183(7) 0.356(2) 0.230(2)
C9 C 0.3237(7) 0.368(2) 0.231(2)
C10 C 0.3725(7) 0.368(2) 0.387(2)
O2C O -0.0656(6) 0.2696(11) -0.2054(9)
Zn1C Zn -0.0077(2) 0.3323(4) -0.3532(4)
Zn1B Zn 0.0077(2) -0.1677(4) -0.1468(4)
O3B O -0.0681(8) -0.0132(10) -0.2458(9)
loop_
_geom_bond_atom_site_label_1
_geom_bond_atom_site_label_2
_geom_bond_site_symmetry_1
_geom_bond_site_symmetry_2
Zn1 O1 1_555 1_555
P1 O1 1_555 1_555
O2 Zn1 1_555 1_555
O3 Zn1 1_555 1_555
C1 P1 1_555 1_555
C2 C1 1_555 1_555
C3 C2 1_555 1_555
C4 C3 1_555 1_555
C5 C4 1_555 1_555
C6 C1 1_555 1_555
N1 Zn1 1_555 1_555
C7 N1 1_555 1_555
C8 C7 1_555 1_555
C9 C8 1_555 1_555
C10 C9 1_555 1_555
O2C P1 1_555 1_555
Zn1C O2C 1_555 1_555
Zn1B O3B 1_555 1_555
O3B P1 1_555 1_555
C5 C6 1_555 1_555

#END
