
#######################################################################
#
#                 Cambridge Crystallographic Data Centre
#                                CCDC 
#
#######################################################################
#
# If this CIF has been generated from an entry in the Cambridge 
# Structural Database, then it will include bibliographic, chemical, 
# crystal, experimental, refinement or atomic coordinate data resulting 
# from the CCDC's data processing and validation procedures.
#
#######################################################################

data_ZIJBEZ
_symmetry_cell_setting           monoclinic
_symmetry_space_group_name_H-M   'P 21/c'
_symmetry_Int_Tables_number      14
_space_group_name_Hall           '-P 2ybc'
loop_
_symmetry_equiv_pos_site_id
_symmetry_equiv_pos_as_xyz
1 x,y,z
2 -x,1/2+y,1/2-z
3 -x,-y,-z
4 x,1/2-y,1/2+z
_cell_length_a                   16.267(3)
_cell_length_b                   8.935(2)
_cell_length_c                   9.695(2)
_cell_angle_alpha                90
_cell_angle_beta                 102.32(1)
_cell_angle_gamma                90
_cell_volume                     1376.68
loop_
_atom_site_label
_atom_site_type_symbol
_atom_site_fract_x
_atom_site_fract_y
_atom_site_fract_z
Zn1 Zn -0.0083(2) 0.1652(3) 0.1471(3)
P1 P -0.0962(3) 0.1269(6) -0.1757(6)
O1 O -0.0859(6) 0.0964(9) -0.0161(8)
O2 O -0.0583(6) 0.2149(9) 0.3021(9)
O3 O 0.0570(7) 0.0048(10) 0.2470(9)
C1 C -0.2107(5) 0.124(2) -0.244(1)
C2 C -0.2434(6) 0.174(2) -0.380(1)
C3 C -0.3300(7) 0.184(2) -0.429(1)
C4 C -0.3790(6) 0.100(2) -0.358(2)
C5 C -0.3466(8) 0.039(2) -0.225(2)
C6 C -0.2621(7) 0.041(2) -0.173(1)
N1 N 0.0463(6) 0.342(1) 0.077(1)
C7 C 0.1338(8) 0.375(2) 0.081(2)
C8 C 0.1893(8) 0.353(2) 0.223(1)
C9 C 0.2807(8) 0.379(2) 0.213(2)
C10 C 0.3322(8) 0.373(2) 0.357(2)
C11 C 0.4224(7) 0.402(2) 0.344(2)
O2C O -0.0583(6) 0.2851(9) -0.1979(9)
Zn1C Zn -0.0083(2) 0.3348(3) -0.3529(3)
Zn1B Zn 0.0083(2) -0.1652(3) -0.1471(3)
O3B O -0.0570(7) -0.0048(10) -0.2470(9)
loop_
_geom_bond_atom_site_label_1
_geom_bond_atom_site_label_2
_geom_bond_site_symmetry_1
_geom_bond_site_symmetry_2
Zn1 O1 1_555 1_555
P1 O1 1_555 1_555
O2 Zn1 1_555 1_555
O3 Zn1 1_555 1_555
C1 P1 1_555 1_555
C2 C1 1_555 1_555
C3 C2 1_555 1_555
C4 C3 1_555 1_555
C5 C4 1_555 1_555
C6 C1 1_555 1_555
N1 Zn1 1_555 1_555
C7 N1 1_555 1_555
C8 C7 1_555 1_555
C9 C8 1_555 1_555
C10 C9 1_555 1_555
C11 C10 1_555 1_555
O2C P1 1_555 1_555
Zn1C O2C 1_555 1_555
Zn1B O3B 1_555 1_555
O3B P1 1_555 1_555
C5 C6 1_555 1_555

#END
