
#######################################################################
#
#                 Cambridge Crystallographic Data Centre
#                                CCDC 
#
#######################################################################
#
# If this CIF has been generated from an entry in the Cambridge 
# Structural Database, then it will include bibliographic, chemical, 
# crystal, experimental, refinement or atomic coordinate data resulting 
# from the CCDC's data processing and validation procedures.
#
#######################################################################

data_ZIJGAA01
_symmetry_cell_setting           monoclinic
_symmetry_space_group_name_H-M   'P 21/c'
_symmetry_Int_Tables_number      14
_space_group_name_Hall           '-P 2ybc'
loop_
_symmetry_equiv_pos_site_id
_symmetry_equiv_pos_as_xyz
1 x,y,z
2 -x,1/2+y,1/2-z
3 -x,-y,-z
4 x,1/2-y,1/2+z
_cell_length_a                   12.299(5)
_cell_length_b                   14.3075(15)
_cell_length_c                   12.604(3)
_cell_angle_alpha                90
_cell_angle_beta                 106.72(2)
_cell_angle_gamma                90
_cell_volume                     2124.13
loop_
_atom_site_label
_atom_site_type_symbol
_atom_site_fract_x
_atom_site_fract_y
_atom_site_fract_z
Ni1 Ni 0.01513(3) 0.04504(2) 0.38811(3)
Ni2 Ni 0.42303(3) 0.00442(2) 0.37203(3)
N1 N 0.1259(2) -0.0689(2) 0.3827(2)
N2 N 0.1957(2) -0.0630(2) 0.3353(2)
N3 N 0.2638(2) -0.0585(2) 0.2885(2)
N4 N 0.1373(3) 0.1418(2) 0.3631(3)
N5 N 0.2361(2) 0.1307(2) 0.3907(2)
N6 N 0.3366(2) 0.1212(2) 0.4177(2)
N7 N 0.0950(2) 0.0481(2) 0.5636(2)
N8 N 0.1246(3) 0.1220(2) 0.6051(2)
N9 N 0.1532(5) 0.1943(3) 0.6435(4)
N10 N 0.4226(2) -0.0581(2) 0.5259(2)
N11 N 0.3883(2) -0.1348(2) 0.5372(2)
N12 N 0.3512(3) -0.2066(2) 0.5491(4)
N13 N -0.0860(2) 0.1580(2) 0.4040(2)
H1 H -0.1258(2) 0.1409(2) 0.4506(2)
H2 H -0.0396(2) 0.2048(2) 0.4369(2)
N14 N -0.0653(2) 0.0337(2) 0.2171(2)
N15 N 0.5059(2) -0.1135(2) 0.3400(2)
H3 H 0.5656(2) -0.1239(2) 0.3998(2)
H4 H 0.4583(2) -0.1622(2) 0.3345(2)
N16 N 0.4379(2) 0.0704(2) 0.2283(2)
C1 C -0.1670(4) 0.1960(3) 0.3030(3)
C2 C -0.1155(4) 0.2001(3) 0.2082(3)
C3 C -0.1127(3) 0.1073(2) 0.1537(3)
C4 C -0.0675(3) -0.0496(3) 0.1694(3)
C5 C -0.1137(4) -0.0634(3) 0.0574(4)
C6 C -0.1605(4) 0.0116(4) -0.0096(3)
H5 H -0.1915(4) 0.0044(4) -0.0857(3)
C7 C -0.1598(4) 0.0967(3) 0.0398(3)
C8 C 0.5476(3) -0.1149(2) 0.2427(3)
H6 H 0.4844(3) -0.1247(2) 0.1769(3)
H7 H 0.6001(3) -0.1666(2) 0.2488(3)
C9 C 0.6075(3) -0.0236(3) 0.2312(3)
H8 H 0.6557(3) -0.0046(3) 0.3033(3)
H9 H 0.6554(3) -0.0334(3) 0.1830(3)
C10 C 0.5221(3) 0.0533(2) 0.1837(3)
C11 C 0.3583(3) 0.1343(2) 0.1802(3)
C12 C 0.3628(3) 0.1834(2) 0.0855(3)
C13 C 0.4485(4) 0.1672(2) 0.0410(3)
C14 C 0.5324(4) 0.1016(3) 0.0904(3)
H10 H -0.1953(38) 0.2518(36) 0.3243(39)
H11 H -0.2399(40) 0.1555(34) 0.2847(38)
H12 H -0.0392(41) 0.2232(32) 0.2272(39)
H13 H -0.1948(35) 0.2496(34) 0.1639(36)
H14 H -0.0252(39) -0.0944(33) 0.2240(39)
H15 H -0.1104(39) -0.1149(36) 0.0329(39)
H16 H -0.2104(37) 0.1516(32) -0.0099(38)
H17 H 0.3030(38) 0.1495(33) 0.2116(39)
H18 H 0.2935(38) 0.2219(31) 0.0539(38)
H19 H 0.4809(37) 0.2026(31) -0.0351(38)
H20 H 0.5956(39) 0.0847(32) 0.0638(38)
N7B N -0.0950(2) -0.0481(2) 0.4364(2)
N10B N 0.5774(2) 0.0581(2) 0.4741(2)
Ni1B Ni -0.01513(3) -0.04504(2) 0.61189(3)
Ni2B Ni 0.57697(3) -0.00442(2) 0.62797(3)
loop_
_geom_bond_atom_site_label_1
_geom_bond_atom_site_label_2
_geom_bond_site_symmetry_1
_geom_bond_site_symmetry_2
Ni1 N1 1_555 1_555
Ni2 N3 1_555 1_555
N1 N2 1_555 1_555
N2 N3 1_555 1_555
N4 Ni1 1_555 1_555
N5 N4 1_555 1_555
N6 Ni2 1_555 1_555
N7 Ni1 1_555 1_555
N8 N7 1_555 1_555
N9 N8 1_555 1_555
N10 Ni2 1_555 1_555
N11 N10 1_555 1_555
N12 N11 1_555 1_555
N13 Ni1 1_555 1_555
H1 N13 1_555 1_555
H2 N13 1_555 1_555
N14 Ni1 1_555 1_555
N15 Ni2 1_555 1_555
H3 N15 1_555 1_555
H4 N15 1_555 1_555
N16 Ni2 1_555 1_555
C1 N13 1_555 1_555
C2 C1 1_555 1_555
C3 N14 1_555 1_555
C4 N14 1_555 1_555
C5 C4 1_555 1_555
C6 C5 1_555 1_555
H5 C6 1_555 1_555
C7 C3 1_555 1_555
C8 N15 1_555 1_555
H6 C8 1_555 1_555
H7 C8 1_555 1_555
C9 C8 1_555 1_555
H8 C9 1_555 1_555
H9 C9 1_555 1_555
C10 N16 1_555 1_555
C11 N16 1_555 1_555
C12 C11 1_555 1_555
C13 C12 1_555 1_555
C14 C10 1_555 1_555
H10 C1 1_555 1_555
H11 C1 1_555 1_555
H12 C2 1_555 1_555
H13 C2 1_555 1_555
H14 C4 1_555 1_555
H15 C5 1_555 1_555
H16 C7 1_555 1_555
H17 C11 1_555 1_555
H18 C12 1_555 1_555
H19 C13 1_555 1_555
H20 C14 1_555 1_555
N7B Ni1 1_555 1_555
N10B Ni2 1_555 1_555
Ni1B N7 1_555 1_555
Ni2B N10 1_555 1_555
N5 N6 1_555 1_555
C2 C3 1_555 1_555
C6 C7 1_555 1_555
C9 C10 1_555 1_555
C13 C14 1_555 1_555
N7B Ni1B 1_555 1_555
N10B Ni2B 1_555 1_555

#END
