
#######################################################################
#
#                 Cambridge Crystallographic Data Centre
#                                CCDC 
#
#######################################################################
#
# If this CIF has been generated from an entry in the Cambridge 
# Structural Database, then it will include bibliographic, chemical, 
# crystal, experimental, refinement or atomic coordinate data resulting 
# from the CCDC's data processing and validation procedures.
#
#######################################################################

data_ZIJGUU
_symmetry_cell_setting           orthorhombic
_symmetry_space_group_name_H-M   'F d d d'
_symmetry_Int_Tables_number      70
_space_group_name_Hall           '-F 2uv 2vw'
loop_
_symmetry_equiv_pos_site_id
_symmetry_equiv_pos_as_xyz
1 x,y,z
2 1/4-x,1/4-y,z
3 x,1/4-y,1/4-z
4 1/4-x,y,1/4-z
5 x,1/2+y,1/2+z
6 1/4-x,3/4-y,1/2+z
7 x,3/4-y,3/4-z
8 1/4-x,1/2+y,3/4-z
9 1/2+x,y,1/2+z
10 3/4-x,1/4-y,1/2+z
11 1/2+x,1/4-y,3/4-z
12 3/4-x,y,3/4-z
13 1/2+x,1/2+y,z
14 3/4-x,3/4-y,z
15 1/2+x,3/4-y,1/4-z
16 3/4-x,1/2+y,1/4-z
17 -x,-y,-z
18 3/4+x,3/4+y,-z
19 -x,3/4+y,3/4+z
20 3/4+x,-y,3/4+z
21 -x,1/2-y,1/2-z
22 3/4+x,1/4+y,1/2-z
23 -x,1/4+y,1/4+z
24 3/4+x,1/2-y,1/4+z
25 1/2-x,-y,1/2-z
26 1/4+x,3/4+y,1/2-z
27 1/2-x,3/4+y,1/4+z
28 1/4+x,-y,1/4+z
29 1/2-x,1/2-y,-z
30 1/4+x,1/4+y,-z
31 1/2-x,1/4+y,3/4+z
32 1/4+x,1/2-y,3/4+z
_cell_length_a                   9.9122(10)
_cell_length_b                   12.9515(15)
_cell_length_c                   34.482(4)
_cell_angle_alpha                90
_cell_angle_beta                 90
_cell_angle_gamma                90
_cell_volume                     4426.73
loop_
_atom_site_label
_atom_site_type_symbol
_atom_site_fract_x
_atom_site_fract_y
_atom_site_fract_z
Ag1 Ag 0.625 0.23964(8) 0.125
N2 N 0.4842(7) 0.2305(5) 0.07719(19)
C1 C 0.3493(9) 0.2349(7) 0.08397(21)
C2 C 0.2560(8) 0.2415(8) 0.05447(22)
C3 C 0.2990(7) 0.2443(7) 0.01620(19)
C4 C 0.4374(8) 0.2391(8) 0.00945(21)
C5 C 0.5254(8) 0.2336(7) 0.04005(24)
H1 H 0.318 0.235 0.112
H2 H 0.155 0.242 0.060
H3 H 0.472 0.238 -0.018
H4 H 0.627 0.232 0.035
Ag1A Ag 0.625 0.01036(8) 0.125
N2C N 0.7658(7) 0.2305(5) 0.17281(19)
C3BA C 0.2010(7) 0.2557(7) -0.01620(19)
C2BA C 0.2440(8) 0.2585(8) -0.05447(22)
C4BA C 0.0626(8) 0.2609(8) -0.00945(21)
C1BA C 0.1507(9) 0.2651(7) -0.08397(21)
H2BA H 0.345 0.258 -0.060
C5BA C -0.0254(8) 0.2664(7) -0.04005(24)
H3BA H 0.028 0.262 0.018
N2BA N 0.0158(7) 0.2695(5) -0.07719(19)
H1BA H 0.182 0.265 -0.112
H4BA H -0.127 0.268 -0.035
Ag1BA Ag -0.125 0.26036(8) -0.125
N1 N 0.375 0.375 0.1748(4)
O1 O 0.458(4) 0.331(3) 0.1845(8)
O2 O 0.4911(21) 0.3993(15) 0.1633(4)
O3 O 0.375(3) 0.4761(16) 0.1788(5)
O1M O 0.292(4) 0.419(3) 0.1845(8)
O2M O 0.2589(21) 0.3507(15) 0.1633(4)
O3M O 0.375(3) 0.2739(16) 0.1788(5)
loop_
_geom_bond_atom_site_label_1
_geom_bond_atom_site_label_2
_geom_bond_site_symmetry_1
_geom_bond_site_symmetry_2
N1 O1 1_555 1_555
O1 O2 1_555 1_555
O2 N1 1_555 1_555
O3 N1 1_555 1_555
Ag1 N2 1_555 1_555
N2 C1 1_555 1_555
C1 C2 1_555 1_555
C2 C3 1_555 1_555
C3 C4 1_555 1_555
C4 C5 1_555 1_555
C5 N2 1_555 1_555
H1 C1 1_555 1_555
H2 C2 1_555 1_555
H3 C4 1_555 1_555
H4 C5 1_555 1_555
O1M N1 1_555 1_555
O2M N1 1_555 1_555
O3M N1 1_555 1_555
Ag1A Ag1 1_555 1_555
N2C Ag1 1_555 1_555
C3BA C3 1_555 1_555
C2BA C3BA 1_555 1_555
C4BA C3BA 1_555 1_555
C1BA C2BA 1_555 1_555
H2BA C2BA 1_555 1_555
C5BA C4BA 1_555 1_555
H3BA C4BA 1_555 1_555
N2BA C1BA 1_555 1_555
H1BA C1BA 1_555 1_555
H4BA C5BA 1_555 1_555
Ag1BA N2BA 1_555 1_555
O1 O3M 1_555 1_555
O2 O3 1_555 1_555
O3 O1M 1_555 1_555
O1M O2M 1_555 1_555
O2M O3M 1_555 1_555
C5BA N2BA 1_555 1_555

#END
