
#######################################################################
#
#                 Cambridge Crystallographic Data Centre
#                                CCDC 
#
#######################################################################
#
# If this CIF has been generated from an entry in the Cambridge 
# Structural Database, then it will include bibliographic, chemical, 
# crystal, experimental, refinement or atomic coordinate data resulting 
# from the CCDC's data processing and validation procedures.
#
#######################################################################

data_ZIJQUG
_symmetry_cell_setting           orthorhombic
_symmetry_space_group_name_H-M   'P 21 21 21'
_symmetry_Int_Tables_number      19
_space_group_name_Hall           'P 2ac 2ab'
loop_
_symmetry_equiv_pos_site_id
_symmetry_equiv_pos_as_xyz
1 x,y,z
2 1/2-x,-y,1/2+z
3 -x,1/2+y,1/2-z
4 1/2+x,1/2-y,-z
_cell_length_a                   8.5377(11)
_cell_length_b                   13.1086(17)
_cell_length_c                   14.4617(18)
_cell_angle_alpha                90
_cell_angle_beta                 90
_cell_angle_gamma                90
_cell_volume                     1618.51
loop_
_atom_site_label
_atom_site_type_symbol
_atom_site_fract_x
_atom_site_fract_y
_atom_site_fract_z
Se1 Se 0.06068(2) 0.888802(14) 0.751766(17)
Ni1 Ni -0.00659(3) 1.137631(17) 0.75848(2)
Cl1 Cl -0.18364(7) 1.19458(4) 0.64008(4)
Cl2 Cl 0.16125(7) 1.08157(4) 0.88001(4)
O1 O -0.1877(2) 1.17111(10) 0.85035(10)
O2 O 0.1643(2) 1.09919(10) 0.66368(10)
N1 N -0.0867(2) 0.98535(11) 0.74409(13)
N2 N -0.0790(2) 0.78896(12) 0.73565(12)
C1 C -0.2258(3) 0.94066(14) 0.73439(14)
C2 C -0.2217(3) 0.83007(14) 0.72934(13)
C3 C -0.3721(3) 0.99296(14) 0.73259(15)
H1 H -0.3760 1.0638 0.7357
C4 C -0.5013(3) 0.82765(16) 0.72031(15)
H2 H -0.5951 0.7919 0.7156
C5 C -0.3647(3) 0.77529(15) 0.72141(15)
H3 H -0.3644 0.7045 0.7170
C6 C -0.5051(3) 0.93753(15) 0.72626(15)
H4 H -0.6012 0.9709 0.7257
S1 S 0.19998(7) 1.16781(4) 0.58038(4)
S2 S -0.19215(8) 1.14589(4) 0.95362(4)
C7 C 0.1028(3) 1.11140(17) 0.48441(16)
H5 H 0.1322 1.0409 0.4798
H6 H 0.1323 1.1464 0.4288
H7 H -0.0084 1.1165 0.4929
C8 C 0.3955(3) 1.13455(16) 0.55055(16)
H8 H 0.4656 1.1585 0.5977
H9 H 0.4224 1.1655 0.4925
H10 H 0.4039 1.0617 0.5454
C9 C -0.3859(3) 1.18114(18) 0.98528(18)
H11 H -0.3944 1.2542 0.9861
H12 H -0.4092 1.1547 1.0456
H13 H -0.4586 1.1537 0.9412
C10 C -0.2151(3) 1.01133(15) 0.96207(17)
H14 H -0.3018 0.9901 0.9244
H15 H -0.2346 0.9930 1.0253
H16 H -0.1213 0.9783 0.9410
Ni1B Ni 0.00659(3) 0.637631(17) 0.74152(2)
N2B N 0.0790(2) 1.28896(12) 0.76435(12)
loop_
_geom_bond_atom_site_label_1
_geom_bond_atom_site_label_2
_geom_bond_site_symmetry_1
_geom_bond_site_symmetry_2
Se1 N1 1_555 1_555
Ni1 Cl1 1_555 1_555
Cl2 Ni1 1_555 1_555
O1 Ni1 1_555 1_555
O2 Ni1 1_555 1_555
N1 Ni1 1_555 1_555
N2 Se1 1_555 1_555
C1 N1 1_555 1_555
C2 N2 1_555 1_555
C3 C1 1_555 1_555
H1 C3 1_555 1_555
C4 H2 1_555 1_555
C5 C2 1_555 1_555
H3 C5 1_555 1_555
C6 C3 1_555 1_555
H4 C6 1_555 1_555
S1 O2 1_555 1_555
S2 O1 1_555 1_555
C7 S1 1_555 1_555
H5 C7 1_555 1_555
H6 C7 1_555 1_555
H7 C7 1_555 1_555
C8 S1 1_555 1_555
H8 C8 1_555 1_555
H9 C8 1_555 1_555
H10 C8 1_555 1_555
C9 S2 1_555 1_555
H11 C9 1_555 1_555
H12 C9 1_555 1_555
H13 C9 1_555 1_555
C10 S2 1_555 1_555
H14 C10 1_555 1_555
H15 C10 1_555 1_555
H16 C10 1_555 1_555
Ni1B N2 1_555 1_555
N2B Ni1 1_555 1_555
C1 C2 1_555 1_555
C4 C5 1_555 1_555
C4 C6 1_555 1_555

#END
