
#######################################################################
#
#                 Cambridge Crystallographic Data Centre
#                                CCDC 
#
#######################################################################
#
# If this CIF has been generated from an entry in the Cambridge 
# Structural Database, then it will include bibliographic, chemical, 
# crystal, experimental, refinement or atomic coordinate data resulting 
# from the CCDC's data processing and validation procedures.
#
#######################################################################

data_ZIJRAN
_symmetry_cell_setting           orthorhombic
_symmetry_space_group_name_H-M   'P 21 21 21'
_symmetry_Int_Tables_number      19
_space_group_name_Hall           'P 2ac 2ab'
loop_
_symmetry_equiv_pos_site_id
_symmetry_equiv_pos_as_xyz
1 x,y,z
2 1/2-x,-y,1/2+z
3 -x,1/2+y,1/2-z
4 1/2+x,1/2-y,-z
_cell_length_a                   8.5078(8)
_cell_length_b                   13.3811(12)
_cell_length_c                   14.3894(13)
_cell_angle_alpha                90
_cell_angle_beta                 90
_cell_angle_gamma                90
_cell_volume                     1638.14
loop_
_atom_site_label
_atom_site_type_symbol
_atom_site_fract_x
_atom_site_fract_y
_atom_site_fract_z
Co1 Co 0.49292(2) 1.137559(13) 0.760099(16)
Se1 Se 0.558168(18) 0.888543(10) 0.758390(12)
Cl1 Cl 0.66543(5) 1.08242(3) 0.88317(3)
Cl2 Cl 0.30956(5) 1.19448(3) 0.64129(3)
S1 S 0.69831(5) 1.16793(3) 0.57910(3)
S2 S 0.30365(5) 1.14522(3) 0.95883(3)
O1 O 0.66126(14) 1.09933(7) 0.66195(8)
O2 O 0.31435(15) 1.17254(7) 0.85590(8)
N1 N 0.41116(14) 0.98375(8) 0.74857(10)
N2 N 0.41885(14) 0.79080(8) 0.73874(10)
C1 C 0.27174(17) 0.94001(9) 0.73573(11)
C2 C 0.27578(17) 0.83145(10) 0.73024(11)
C3 C 0.12499(19) 0.99100(10) 0.73230(12)
H1 H 0.122(2) 1.0654(11) 0.7369(12)
C4 C 0.1321(2) 0.77745(11) 0.71956(12)
H2 H 0.136(2) 0.7062(13) 0.7121(13)
C5 C -0.0090(2) 0.93624(11) 0.72298(12)
H3 H -0.1070(19) 0.9697(11) 0.7193(12)
C6 C -0.0048(2) 0.82905(11) 0.71646(12)
H4 H -0.106(2) 0.7940(13) 0.7097(14)
C7 C 0.8948(2) 1.13444(12) 0.54866(13)
H5 H 0.918(2) 1.1663(13) 0.4925(13)
H6 H 0.897(2) 1.0605(14) 0.5434(14)
H7 H 0.961(3) 1.1546(14) 0.5950(16)
C8 C 0.6000(2) 1.11388(13) 0.48183(12)
H8 H 0.633(2) 1.0404(12) 0.4798(12)
H9 H 0.492(2) 1.1242(13) 0.4929(15)
H10 H 0.631(2) 1.1519(13) 0.4276(14)
C9 C 0.2813(2) 1.01234(13) 0.96449(14)
H11 H 0.192(2) 0.9919(12) 0.9270(14)
H12 H 0.381(3) 0.9852(14) 0.9483(16)
H13 H 0.265(3) 0.9952(14) 1.0299(15)
C10 C 0.1063(2) 1.17815(15) 0.98831(15)
H14 H 0.103(2) 1.2490(16) 0.9904(16)
H15 H 0.085(3) 1.1503(14) 1.0534(16)
H16 H 0.035(3) 1.1459(13) 0.9401(15)
Co1B Co 0.50708(2) 0.637559(13) 0.739901(16)
N2B N 0.58115(14) 1.29080(8) 0.76126(10)
loop_
_geom_bond_atom_site_label_1
_geom_bond_atom_site_label_2
_geom_bond_site_symmetry_1
_geom_bond_site_symmetry_2
Co1 Cl1 1_555 1_555
Se1 N1 1_555 1_555
Cl2 Co1 1_555 1_555
S1 O1 1_555 1_555
S2 O2 1_555 1_555
O1 Co1 1_555 1_555
O2 Co1 1_555 1_555
N1 Co1 1_555 1_555
N2 Se1 1_555 1_555
C1 N1 1_555 1_555
C2 N2 1_555 1_555
C3 C1 1_555 1_555
H1 C3 1_555 1_555
C4 C2 1_555 1_555
H2 C4 1_555 1_555
C5 C3 1_555 1_555
H3 C5 1_555 1_555
C6 C4 1_555 1_555
H4 C6 1_555 1_555
C7 S1 1_555 1_555
H5 C7 1_555 1_555
H6 C7 1_555 1_555
H7 C7 1_555 1_555
C8 S1 1_555 1_555
H8 C8 1_555 1_555
H9 C8 1_555 1_555
H10 C8 1_555 1_555
C9 S2 1_555 1_555
H11 C9 1_555 1_555
H12 C9 1_555 1_555
H13 C9 1_555 1_555
C10 S2 1_555 1_555
H14 C10 1_555 1_555
H15 C10 1_555 1_555
H16 C10 1_555 1_555
Co1B N2 1_555 1_555
N2B Co1 1_555 1_555
C1 C2 1_555 1_555
C5 C6 1_555 1_555

#END
