
#######################################################################
#
#                 Cambridge Crystallographic Data Centre
#                                CCDC 
#
#######################################################################
#
# If this CIF has been generated from an entry in the Cambridge 
# Structural Database, then it will include bibliographic, chemical, 
# crystal, experimental, refinement or atomic coordinate data resulting 
# from the CCDC's data processing and validation procedures.
#
#######################################################################

data_ZIJRIV
_symmetry_cell_setting           triclinic
_symmetry_space_group_name_H-M   'P -1'
_symmetry_Int_Tables_number      2
_space_group_name_Hall           '-P 1'
loop_
_symmetry_equiv_pos_site_id
_symmetry_equiv_pos_as_xyz
1 x,y,z
2 -x,-y,-z
_cell_length_a                   3.7767(17)
_cell_length_b                   9.284(4)
_cell_length_c                   10.824(5)
_cell_angle_alpha                78.814(7)
_cell_angle_beta                 82.416(8)
_cell_angle_gamma                82.514(7)
_cell_volume                     366.909
loop_
_atom_site_label
_atom_site_type_symbol
_atom_site_fract_x
_atom_site_fract_y
_atom_site_fract_z
N1 N 0.142(2) 0.8933(11) 0.3109(8)
Cl1 Cl -0.5118(8) 1.1736(3) 0.3915(3)
Se1 Se 0.3394(3) 1.01051(14) 0.17169(10)
N2 N 0.351(3) 0.8742(12) 0.0773(8)
C1 C 0.055(3) 0.5102(14) 0.1852(10)
H1 H 0.042(4) 0.427(12) 0.159(4)
C2 C 0.096(3) 0.7688(14) 0.2788(11)
C3 C -0.054(3) 0.6462(14) 0.3607(11)
H2 H -0.151(10) 0.6515(15) 0.465(11)
C4 C 0.219(3) 0.7558(13) 0.1464(11)
C5 C 0.200(3) 0.6240(14) 0.1037(11)
H3 H 0.272(12) 0.6159(19) 0.033(11)
C6 C -0.079(3) 0.5259(15) 0.3143(11)
H4 H -0.180(16) 0.454(11) 0.363(7)
Cd1 Cd 0.0000 1.0000 0.5000
Cl1A Cl -0.4882(8) 0.8264(3) 0.6085(3)
N1A N -0.142(2) 1.1067(11) 0.6891(8)
Se1A Se -0.3394(3) 0.98949(14) 0.82831(10)
N2A N -0.351(3) 1.1258(12) 0.9227(8)
C1A C -0.055(3) 1.4898(14) 0.8148(10)
H1A H -0.042(4) 1.573(12) 0.841(4)
C2A C -0.096(3) 1.2312(14) 0.7212(11)
C3A C 0.054(3) 1.3538(14) 0.6393(11)
H2A H 0.151(10) 1.3485(15) 0.535(11)
C4A C -0.219(3) 1.2442(13) 0.8536(11)
C5A C -0.200(3) 1.3760(14) 0.8963(11)
H3A H -0.272(12) 1.3841(19) 0.967(11)
C6A C 0.079(3) 1.4741(15) 0.6857(11)
H4A H 0.180(16) 1.546(11) 0.637(7)
Cl1_2 Cl 0.4882(8) 1.1736(3) 0.3915(3)
Cl1A_2 Cl 0.5118(8) 0.8264(3) 0.6085(3)
Cd1_2 Cd -1.0000 1.0000 0.5000
loop_
_geom_bond_atom_site_label_1
_geom_bond_atom_site_label_2
_geom_bond_site_symmetry_1
_geom_bond_site_symmetry_2
N1 Se1 1_555 1_555
Cl1 Cd1 1_555 1_555
Se1 N2 1_555 1_555
N2 C4 1_555 1_555
C1 H1 1_555 1_555
C2 N1 1_555 1_555
C3 C2 1_555 1_555
H2 C3 1_555 1_555
C4 C2 1_555 1_555
C5 C1 1_555 1_555
H3 C5 1_555 1_555
C6 C1 1_555 1_555
H4 C6 1_555 1_555
Cd1 N1 1_555 1_555
Cl1A Cd1 1_555 1_555
N1A Cd1 1_555 1_555
Se1A N1A 1_555 1_555
N2A Se1A 1_555 1_555
C1A H1A 1_555 1_555
C2A N1A 1_555 1_555
C3A C2A 1_555 1_555
H2A C3A 1_555 1_555
C4A N2A 1_555 1_555
C5A C1A 1_555 1_555
H3A C5A 1_555 1_555
C6A C1A 1_555 1_555
H4A C6A 1_555 1_555
Cl1_2 Cd1 1_555 1_555
Cl1A_2 Cd1 1_555 1_555
Cd1_2 Cl1 1_555 1_555
C3 C6 1_555 1_555
C4 C5 1_555 1_555
Cl1A Cd1_2 1_555 1_555
C2A C4A 1_555 1_555
C3A C6A 1_555 1_555
C4A C5A 1_555 1_555

#END
