
#######################################################################
#
#                 Cambridge Crystallographic Data Centre
#                                CCDC 
#
#######################################################################
#
# If this CIF has been generated from an entry in the Cambridge 
# Structural Database, then it will include bibliographic, chemical, 
# crystal, experimental, refinement or atomic coordinate data resulting 
# from the CCDC's data processing and validation procedures.
#
#######################################################################

data_ZIJTUJ
_symmetry_cell_setting           monoclinic
_symmetry_space_group_name_H-M   'P 2/c'
_symmetry_Int_Tables_number      13
_space_group_name_Hall           '-P 2yc'
loop_
_symmetry_equiv_pos_site_id
_symmetry_equiv_pos_as_xyz
1 x,y,z
2 -x,y,1/2-z
3 -x,-y,-z
4 x,-y,1/2+z
_cell_length_a                   15.9990(15)
_cell_length_b                   10.6917(14)
_cell_length_c                   14.4959(19)
_cell_angle_alpha                90
_cell_angle_beta                 116.938(8)
_cell_angle_gamma                90
_cell_volume                     2210.57
loop_
_atom_site_label
_atom_site_type_symbol
_atom_site_fract_x
_atom_site_fract_y
_atom_site_fract_z
Co1 Co 0.41832(4) 0.53916(5) 0.30551(4)
O1 O 0.48326(19) 0.6378(3) 0.4426(2)
H1 H 0.5110 0.7170 0.4509
H2 H 0.4795 0.6272 0.5011
O2 O 0.5000 0.6531(3) 0.2500
H3 H 0.4588 0.6962 0.1978
O3 O 0.36397(17) 0.4495(3) 0.1637(2)
O4 O 0.48286(17) 0.3906(2) 0.1324(2)
O5 O 0.0672(2) 0.2101(3) -0.0013(3)
O6 O 0.08199(19) 0.0042(3) 0.0107(2)
H4 H 0.0263 0.0071 -0.0034
O7 O 0.3944(2) -0.1858(3) 0.0966(3)
O8 O 0.4871(2) -0.0821(3) 0.0515(3)
N1 N 0.2460(2) 0.2675(3) 0.3442(3)
N2 N 0.3352(2) 0.4263(3) 0.3497(3)
N3 N 0.2180(2) -0.1682(3) 0.2298(3)
N4 N 0.3122(2) -0.3258(3) 0.2455(3)
C1 C 0.0492(3) 0.0418(4) 0.2590(3)
C2 C 0.1021(3) 0.1496(4) 0.2944(3)
H5 H 0.0757 0.2207 0.3075
C3 C 0.1942(3) 0.1522(4) 0.3103(3)
C4 C 0.2349(3) 0.0475(4) 0.2903(3)
H6 H 0.2967 0.0490 0.3007
C5 C 0.1805(3) -0.0589(4) 0.2543(3)
C6 C 0.0889(3) -0.0630(4) 0.2401(3)
H7 H 0.0543 -0.1364 0.2177
C7 C 0.3558(3) 0.2513(4) 0.0911(3)
C8 C 0.2606(3) 0.2397(4) 0.0644(3)
H8 H 0.2263 0.3105 0.0629
C9 C 0.2158(3) 0.1221(4) 0.0398(3)
C10 C 0.2686(3) 0.0188(4) 0.0439(3)
H9 H 0.2408 -0.0599 0.0318
C11 C 0.3627(3) 0.0289(4) 0.0656(3)
C12 C 0.4055(3) 0.1461(4) 0.0883(3)
H10 H 0.4679 0.1539 0.1017
C13 C 0.4046(3) 0.3728(4) 0.1314(3)
C14 C 0.1131(3) 0.1154(5) 0.0144(4)
C15 C 0.4169(3) -0.0876(4) 0.0717(4)
C16 C 0.3116(3) 0.3112(4) 0.3188(3)
H11 H 0.3370 0.2649 0.2833
C17 C 0.2829(3) 0.4590(4) 0.3990(4)
H12 H 0.2855 0.5360 0.4301
C18 C 0.2267(3) 0.3625(4) 0.3959(4)
H13 H 0.1840 0.3607 0.4230
C19 C 0.3038(3) -0.2192(4) 0.2857(3)
H14 H 0.3509 -0.1833 0.3449
C20 C 0.1691(3) -0.2481(4) 0.1482(4)
H15 H 0.1081 -0.2380 0.0962
C21 C 0.2276(3) -0.3435(4) 0.1593(3)
H16 H 0.2130 -0.4119 0.1150
H3A H 0.5412 0.6962 0.3022
N1A N -0.2460(2) 0.2675(3) 0.1558(3)
N2A N -0.3352(2) 0.4263(3) 0.1503(3)
N3A N -0.2180(2) -0.1682(3) 0.2702(3)
N4A N -0.3122(2) -0.3258(3) 0.2545(3)
C1A C -0.0492(3) 0.0418(4) 0.2410(3)
C2A C -0.1021(3) 0.1496(4) 0.2056(3)
H5A H -0.0757 0.2207 0.1925
C3A C -0.1942(3) 0.1522(4) 0.1897(3)
C4A C -0.2349(3) 0.0475(4) 0.2097(3)
H6A H -0.2967 0.0490 0.1993
C5A C -0.1805(3) -0.0589(4) 0.2457(3)
C6A C -0.0889(3) -0.0630(4) 0.2599(3)
H7A H -0.0543 -0.1364 0.2823
C16A C -0.3116(3) 0.3112(4) 0.1812(3)
H11A H -0.3370 0.2649 0.2167
C17A C -0.2829(3) 0.4590(4) 0.1010(4)
H12A H -0.2855 0.5360 0.0699
C18A C -0.2267(3) 0.3625(4) 0.1041(4)
H13A H -0.1840 0.3607 0.0770
C19A C -0.3038(3) -0.2192(4) 0.2143(3)
H14A H -0.3509 -0.1833 0.1551
C20A C -0.1691(3) -0.2481(4) 0.3518(4)
H15A H -0.1081 -0.2380 0.4038
C21A C -0.2276(3) -0.3435(4) 0.3407(3)
H16A H -0.2130 -0.4119 0.3850
Co1A Co -0.41832(4) 0.53916(5) 0.19449(4)
O1A O -0.48326(19) 0.6378(3) 0.0574(2)
H1A H -0.5110 0.7170 0.0491
H2A H -0.4795 0.6272 -0.0011
O3A O -0.36397(17) 0.4495(3) 0.3363(2)
O4A O -0.48286(17) 0.3906(2) 0.3676(2)
O5A O -0.0672(2) 0.2101(3) 0.5013(3)
O6A O -0.08199(19) 0.0042(3) 0.4893(2)
H4A H -0.0263 0.0071 0.5034
O7A O -0.3944(2) -0.1858(3) 0.4034(3)
O8A O -0.4871(2) -0.0821(3) 0.4485(3)
C7A C -0.3558(3) 0.2513(4) 0.4089(3)
C8A C -0.2606(3) 0.2397(4) 0.4356(3)
H8A H -0.2263 0.3105 0.4371
C9A C -0.2158(3) 0.1221(4) 0.4602(3)
C10A C -0.2686(3) 0.0188(4) 0.4561(3)
H9A H -0.2408 -0.0599 0.4682
C11A C -0.3627(3) 0.0289(4) 0.4344(3)
C12A C -0.4055(3) 0.1461(4) 0.4117(3)
H10A H -0.4679 0.1539 0.3983
C13A C -0.4046(3) 0.3728(4) 0.3686(3)
C14A C -0.1131(3) 0.1154(5) 0.4856(4)
C15A C -0.4169(3) -0.0876(4) 0.4283(4)
Co1_2 Co -0.58168(4) 0.53916(5) 0.30551(4)
Co1_3 Co 0.41832(4) -0.46084(5) 0.30551(4)
Co1A_2 Co -0.41832(4) -0.46084(5) 0.19449(4)
Co1A_3 Co 0.58168(4) 0.53916(5) 0.19449(4)
O2_2 O -0.5000 0.6531(3) 0.2500
O4_2 O -0.51714(17) 0.3906(2) 0.1324(2)
O4A_2 O 0.51714(17) 0.3906(2) 0.3676(2)
N4_2 N 0.3122(2) 0.6742(3) 0.2455(3)
N4A_2 N -0.3122(2) 0.6742(3) 0.2545(3)
O10 O 0.0429(11) 0.5948(17) 0.3350(15)
O11 O 0.9978(8) 0.4010(9) 0.4170(8)
O10A O -0.0429(11) 0.5948(17) 0.1650(15)
H17? H 0.4645 -0.0693 -0.0215
O9? O 0.0000 0.479(2) 0.2500
loop_
_geom_bond_atom_site_label_1
_geom_bond_atom_site_label_2
_geom_bond_site_symmetry_1
_geom_bond_site_symmetry_2
Co1 O1 1_555 1_555
O1 H1 1_555 1_555
H2 O1 1_555 1_555
O2 Co1 1_555 1_555
H3 O2 1_555 1_555
O3 Co1 1_555 1_555
O4 C13 1_555 1_555
O5 C14 1_555 1_555
O6 H4 1_555 1_555
O7 C15 1_555 1_555
O8 C15 1_555 1_555
N1 C3 1_555 1_555
N2 Co1 1_555 1_555
N3 C5 1_555 1_555
N4 C19 1_555 1_555
C1 C2 1_555 1_555
C2 H5 1_555 1_555
C3 C2 1_555 1_555
C4 C3 1_555 1_555
H6 C4 1_555 1_555
C5 C4 1_555 1_555
C6 C1 1_555 1_555
H7 C6 1_555 1_555
C7 C8 1_555 1_555
C8 H8 1_555 1_555
C9 C8 1_555 1_555
C10 C9 1_555 1_555
H9 C10 1_555 1_555
C11 C10 1_555 1_555
C12 C7 1_555 1_555
H10 C12 1_555 1_555
C13 O3 1_555 1_555
C14 O6 1_555 1_555
C15 C11 1_555 1_555
C16 N1 1_555 1_555
H11 C16 1_555 1_555
C17 N2 1_555 1_555
H12 C17 1_555 1_555
C18 N1 1_555 1_555
H13 C18 1_555 1_555
C19 N3 1_555 1_555
H14 C19 1_555 1_555
C20 N3 1_555 1_555
H15 C20 1_555 1_555
C21 N4 1_555 1_555
H16 C21 1_555 1_555
H3A O2 1_555 1_555
N1A C3A 1_555 1_555
N2A C16A 1_555 1_555
N3A C5A 1_555 1_555
N4A C19A 1_555 1_555
C1A C1 1_555 1_555
C2A C1A 1_555 1_555
H5A C2A 1_555 1_555
C3A C2A 1_555 1_555
C4A C3A 1_555 1_555
H6A C4A 1_555 1_555
C5A C4A 1_555 1_555
C6A C1A 1_555 1_555
H7A C6A 1_555 1_555
C16A N1A 1_555 1_555
H11A C16A 1_555 1_555
C17A N2A 1_555 1_555
H12A C17A 1_555 1_555
C18A N1A 1_555 1_555
H13A C18A 1_555 1_555
C19A N3A 1_555 1_555
H14A C19A 1_555 1_555
C20A N3A 1_555 1_555
H15A C20A 1_555 1_555
C21A N4A 1_555 1_555
H16A C21A 1_555 1_555
Co1A N2A 1_555 1_555
O1A Co1A 1_555 1_555
H1A O1A 1_555 1_555
H2A O1A 1_555 1_555
O3A Co1A 1_555 1_555
O4A C13A 1_555 1_555
O5A C14A 1_555 1_555
O6A H4A 1_555 1_555
O7A C15A 1_555 1_555
O8A C15A 1_555 1_555
C7A C8A 1_555 1_555
C8A H8A 1_555 1_555
C9A C8A 1_555 1_555
C10A C9A 1_555 1_555
H9A C10A 1_555 1_555
C11A C10A 1_555 1_555
C12A C7A 1_555 1_555
H10A C12A 1_555 1_555
C13A O3A 1_555 1_555
C14A O6A 1_555 1_555
C15A C11A 1_555 1_555
Co1_2 O4A 1_555 1_555
Co1_3 N4 1_555 1_555
Co1A_2 N4A 1_555 1_555
Co1A_3 O2 1_555 1_555
O2_2 Co1A 1_555 1_555
O4_2 Co1A 1_555 1_555
O4A_2 Co1 1_555 1_555
N4_2 Co1 1_555 1_555
N4A_2 Co1A 1_555 1_555
O4 Co1A_3 1_555 1_555
N2 C16 1_555 1_555
C5 C6 1_555 1_555
C7 C13 1_555 1_555
C9 C14 1_555 1_555
C11 C12 1_555 1_555
C17 C18 1_555 1_555
C20 C21 1_555 1_555
C5A C6A 1_555 1_555
C17A C18A 1_555 1_555
C20A C21A 1_555 1_555
C7A C13A 1_555 1_555
C9A C14A 1_555 1_555
C11A C12A 1_555 1_555
Co1_2 O2_2 1_555 1_555

#END
