
#######################################################################
#
#                 Cambridge Crystallographic Data Centre
#                                CCDC 
#
#######################################################################
#
# If this CIF has been generated from an entry in the Cambridge 
# Structural Database, then it will include bibliographic, chemical, 
# crystal, experimental, refinement or atomic coordinate data resulting 
# from the CCDC's data processing and validation procedures.
#
#######################################################################

data_ZIJVIZ
_symmetry_cell_setting           orthorhombic
_symmetry_space_group_name_H-M   'F d d 2'
_symmetry_Int_Tables_number      43
_space_group_name_Hall           'F 2 -2d'
loop_
_symmetry_equiv_pos_site_id
_symmetry_equiv_pos_as_xyz
1 x,y,z
2 -x,-y,z
3 1/4+x,1/4-y,1/4+z
4 1/4-x,1/4+y,1/4+z
5 x,1/2+y,1/2+z
6 -x,1/2-y,1/2+z
7 1/4+x,3/4-y,3/4+z
8 1/4-x,3/4+y,3/4+z
9 1/2+x,y,1/2+z
10 1/2-x,-y,1/2+z
11 3/4+x,1/4-y,3/4+z
12 3/4-x,1/4+y,3/4+z
13 1/2+x,1/2+y,z
14 1/2-x,1/2-y,z
15 3/4+x,3/4-y,1/4+z
16 3/4-x,3/4+y,1/4+z
_cell_length_a                   22.638(2)
_cell_length_b                   23.917(2)
_cell_length_c                   5.1656(4)
_cell_angle_alpha                90
_cell_angle_beta                 90
_cell_angle_gamma                90
_cell_volume                     2796.83
loop_
_atom_site_label
_atom_site_type_symbol
_atom_site_fract_x
_atom_site_fract_y
_atom_site_fract_z
Cu1 Cu 0.0000 0.0000 0.70032(12)
C1 C 0.11964(14) 0.18893(13) 1.2022(7)
H1 H 0.1477 0.2117 1.3010
H2 H 0.1023 0.1605 1.3159
H3 H 0.0883 0.2129 1.1331
C2 C 0.15146(13) 0.16070(12) 0.9819(6)
C3 C 0.18110(13) 0.10292(11) 0.6663(6)
C4 C 0.19172(15) 0.05911(12) 0.4655(8)
H4 H 0.2178 0.0741 0.3310
H5 H 0.1540 0.0481 0.3877
H6 H 0.2103 0.0264 0.5461
C5 C 0.13596(13) 0.11167(12) 0.8452(6)
C6 C 0.08196(13) 0.07694(12) 0.8778(6)
O1 O 0.07172(9) 0.04315(8) 0.6913(5)
O2 O 0.05145(13) 0.08072(13) 1.0737(5)
N1 N 0.20230(11) 0.18068(10) 0.8927(6)
N2 N 0.22017(11) 0.14455(10) 0.7016(6)
H7 H 0.2498(19) 0.156(2) 0.632(11)
C1A C -0.11964(14) -0.18893(13) 1.2022(7)
H1A H -0.1477 -0.2117 1.3010
H2A H -0.1023 -0.1605 1.3159
H3A H -0.0883 -0.2129 1.1331
C2A C -0.15146(13) -0.16070(12) 0.9819(6)
C3A C -0.18110(13) -0.10292(11) 0.6663(6)
C4A C -0.19172(15) -0.05911(12) 0.4655(8)
H4A H -0.2178 -0.0741 0.3310
H5A H -0.1540 -0.0481 0.3877
H6A H -0.2103 -0.0264 0.5461
C5A C -0.13596(13) -0.11167(12) 0.8452(6)
C6A C -0.08196(13) -0.07694(12) 0.8778(6)
O1A O -0.07172(9) -0.04315(8) 0.6913(5)
O2A O -0.05145(13) -0.08072(13) 1.0737(5)
N1A N -0.20230(11) -0.18068(10) 0.8927(6)
N2A N -0.22017(11) -0.14455(10) 0.7016(6)
H7A H -0.2498(19) -0.156(2) 0.632(11)
Cu1B Cu 0.2500 0.2500 0.95032(12)
Cu1N Cu -0.2500 -0.2500 0.95032(12)
N1G N 0.04770(11) -0.06932(10) 0.6427(6)
N1J N -0.04770(11) 0.06932(10) 0.6427(6)
loop_
_geom_bond_atom_site_label_1
_geom_bond_atom_site_label_2
_geom_bond_site_symmetry_1
_geom_bond_site_symmetry_2
Cu1 O1 1_555 1_555
C1 H1 1_555 1_555
H2 C1 1_555 1_555
H3 C1 1_555 1_555
C2 C1 1_555 1_555
C3 C4 1_555 1_555
C4 H4 1_555 1_555
H5 C4 1_555 1_555
H6 C4 1_555 1_555
C5 C2 1_555 1_555
C6 C5 1_555 1_555
O1 C6 1_555 1_555
O2 C6 1_555 1_555
N1 C2 1_555 1_555
N2 C3 1_555 1_555
H7 N2 1_555 1_555
C1A H1A 1_555 1_555
H2A C1A 1_555 1_555
H3A C1A 1_555 1_555
C2A C1A 1_555 1_555
C3A C4A 1_555 1_555
C4A H4A 1_555 1_555
H5A C4A 1_555 1_555
H6A C4A 1_555 1_555
C5A C2A 1_555 1_555
C6A C5A 1_555 1_555
O1A Cu1 1_555 1_555
O2A C6A 1_555 1_555
N1A C2A 1_555 1_555
N2A C3A 1_555 1_555
H7A N2A 1_555 1_555
Cu1B N1 1_555 1_555
Cu1N N1A 1_555 1_555
N1G Cu1 1_555 1_555
N1J Cu1 1_555 1_555
C3 C5 1_555 1_555
N1 N2 1_555 1_555
C3A C5A 1_555 1_555
C6A O1A 1_555 1_555
N1A N2A 1_555 1_555

#END
