
#######################################################################
#
#                 Cambridge Crystallographic Data Centre
#                                CCDC 
#
#######################################################################
#
# If this CIF has been generated from an entry in the Cambridge 
# Structural Database, then it will include bibliographic, chemical, 
# crystal, experimental, refinement or atomic coordinate data resulting 
# from the CCDC's data processing and validation procedures.
#
#######################################################################

data_ZIJYUO
_symmetry_cell_setting           monoclinic
_symmetry_space_group_name_H-M   'C 2/c'
_symmetry_Int_Tables_number      15
_space_group_name_Hall           '-C 2yn'
loop_
_symmetry_equiv_pos_site_id
_symmetry_equiv_pos_as_xyz
1 x,y,z
2 -x,y,1/2-z
3 1/2+x,1/2+y,z
4 1/2-x,1/2+y,1/2-z
5 -x,-y,-z
6 x,-y,1/2+z
7 1/2-x,1/2-y,-z
8 1/2+x,1/2-y,1/2+z
_cell_length_a                   24.585(5)
_cell_length_b                   13.726(2)
_cell_length_c                   23.486(4)
_cell_angle_alpha                90
_cell_angle_beta                 95.409(7)
_cell_angle_gamma                90
_cell_volume                     7890.15
loop_
_atom_site_label
_atom_site_type_symbol
_atom_site_fract_x
_atom_site_fract_y
_atom_site_fract_z
N1 N 0.16903(13) 0.2242(3) 0.22006(13)
H1 H 0.1442 0.1950 0.2371
N2 N 0.50158(13) 0.1507(2) 0.18029(13)
N3 N 0.50581(13) 0.3696(2) 0.31593(13)
N4 N 0.32615(12) 0.4276(2) 0.51653(13)
N5 N 0.33000(13) 1.1127(2) 0.52757(13)
Co1 Co 0.331505(19) 0.27059(3) 0.521708(19)
Co2 Co 0.5000 0.25828(5) 0.2500
O1 O -0.10973(11) 0.2135(2) 0.10479(13)
O2 O -0.08236(11) 0.2379(2) 0.02029(13)
O3 O 0.23055(10) 0.2254(2) 0.42868(11)
O4 O 0.31843(10) 0.26369(18) 0.43537(10)
O5 O 0.36807(12) 0.2062(3) 0.17752(12)
O6 O 0.41544(10) 0.26125(19) 0.25585(11)
O7 O 0.18662(12) 0.2950(3) 0.13672(13)
C1 C -0.01381(16) 0.2338(3) 0.09892(17)
C2 C -0.00035(18) 0.2240(4) 0.1572(2)
H2 H -0.0277 0.2129 0.1812
C3 C 0.05354(18) 0.2305(4) 0.18022(19)
H3 H 0.0620 0.2235 0.2194
C4 C 0.09469(16) 0.2474(3) 0.14561(16)
C5 C 0.08078(17) 0.2590(3) 0.08744(17)
H4 H 0.1079 0.2725 0.0635
C6 C 0.02724(17) 0.2507(3) 0.06460(17)
H5 H 0.0189 0.2567 0.0253
C7 C 0.22137(14) 0.2320(3) 0.25084(15)
C8 C 0.22301(14) 0.2342(3) 0.31016(15)
H6 H 0.1908 0.2302 0.3278
C9 C 0.27292(14) 0.2423(2) 0.34321(14)
C10 C 0.32094(15) 0.2470(3) 0.31667(15)
H7 H 0.3542 0.2539 0.3387
C11 C 0.31977(15) 0.2414(3) 0.25696(15)
C12 C 0.26971(15) 0.2337(3) 0.22465(15)
H8 H 0.2685 0.2295 0.1850
C13 C -0.07220(16) 0.2274(3) 0.07322(18)
C14 C 0.27373(14) 0.2445(2) 0.40719(14)
C15 C 0.37195(15) 0.2367(3) 0.22726(15)
C16 C 0.15413(16) 0.2578(3) 0.16679(16)
C17 C 0.47130(17) 0.0709(3) 0.17332(17)
H9 H 0.4513 0.0512 0.2030
C18 C 0.46801(18) 0.0155(3) 0.12394(17)
H10 H 0.4471 -0.0410 0.1218
C19 C 0.49550(17) 0.0430(3) 0.07750(16)
C20 C 0.52867(17) 0.1249(3) 0.08570(17)
H11 H 0.5494 0.1458 0.0569
C21 C 0.53070(16) 0.1749(3) 0.13655(16)
H12 H 0.5536 0.2289 0.1411
C22 C 0.48819(17) -0.0104(3) 0.02363(16)
H13 H 0.4649 -0.0640 0.0222
C23 C 0.54275(17) 0.3599(3) 0.36105(18)
H14 H 0.5734 0.3219 0.3570
C24 C 0.53795(17) 0.4029(3) 0.41292(18)
H15 H 0.5649 0.3931 0.4429
C25 C 0.49323(17) 0.4609(3) 0.42090(17)
C26 C 0.45640(19) 0.4753(3) 0.37342(17)
H16 H 0.4265 0.5162 0.3757
C27 C 0.46402(19) 0.4291(3) 0.32276(17)
H17 H 0.4386 0.4400 0.2915
C28 C 0.48345(18) 0.5035(3) 0.47613(17)
H18 H 0.4513 0.5385 0.4779
C29 C 0.32155(17) 0.4818(3) 0.56281(17)
H19 H 0.3209 0.4503 0.5978
C30 C 0.31768(17) 0.5823(3) 0.56188(18)
H20 H 0.3152 0.6166 0.5957
C31 C 0.31744(16) 0.6319(3) 0.51037(17)
C32 C 0.32070(19) 0.5756(3) 0.46212(18)
H21 H 0.3196 0.6050 0.4264
C33 C 0.32563(18) 0.4757(3) 0.46686(17)
H22 H 0.3288 0.4398 0.4338
C34 C 0.31500(17) 0.7387(3) 0.50429(18)
H23 H 0.3038 0.7636 0.4682
C35 C 0.32740(18) 0.8021(3) 0.54590(18)
H24 H 0.3364 0.7782 0.5826
C36 C 0.32774(16) 0.9084(3) 0.53749(17)
C37 C 0.3287(2) 0.9688(3) 0.58452(18)
H25 H 0.3289 0.9421 0.6210
C38 C 0.32921(19) 1.0680(3) 0.57767(18)
H26 H 0.3290 1.1065 0.6102
C39 C 0.33021(18) 1.0545(3) 0.48221(17)
H27 H 0.3315 1.0832 0.4465
C40 C 0.32858(18) 0.9539(3) 0.48522(18)
H28 H 0.3280 0.9170 0.4520
N2D N 0.49842(13) -0.1507(2) -0.18029(13)
C17D C 0.52870(17) -0.0709(3) -0.17332(17)
H9D H 0.5487 -0.0512 -0.2030
C18D C 0.53199(18) -0.0155(3) -0.12394(17)
H10D H 0.5529 0.0410 -0.1218
C19D C 0.50450(17) -0.0430(3) -0.07750(16)
C20D C 0.47133(17) -0.1249(3) -0.08570(17)
H11D H 0.4506 -0.1458 -0.0569
C21D C 0.46930(16) -0.1749(3) -0.13655(16)
H12D H 0.4464 -0.2289 -0.1411
C22D C 0.51181(17) 0.0104(3) -0.02363(16)
H13D H 0.5351 0.0640 -0.0222
N3D N 0.49419(13) 0.6304(2) 0.68407(13)
C23D C 0.45725(17) 0.6401(3) 0.63895(18)
H14D H 0.4266 0.6781 0.6430
C24D C 0.46205(17) 0.5971(3) 0.58708(18)
H15D H 0.4351 0.6069 0.5571
C25D C 0.50677(17) 0.5391(3) 0.57910(17)
C26D C 0.54360(19) 0.5247(3) 0.62658(17)
H16D H 0.5735 0.4838 0.6243
C27D C 0.53598(19) 0.5709(3) 0.67724(17)
H17D H 0.5614 0.5600 0.7085
C28D C 0.51655(18) 0.4965(3) 0.52387(17)
H18D H 0.5487 0.4615 0.5221
N1A N 0.83097(13) 0.2242(3) 0.27994(13)
H1A H 0.8558 0.1950 0.2629
N4A N 0.67385(12) 0.4276(2) -0.01653(13)
N5A N 0.67000(13) 1.1127(2) -0.02757(13)
Co1A Co 0.668495(19) 0.27059(3) -0.021708(19)
O1A O 1.10973(11) 0.2135(2) 0.39521(13)
O2A O 1.08236(11) 0.2379(2) 0.47971(13)
O3A O 0.76945(10) 0.2254(2) 0.07132(11)
O4A O 0.68157(10) 0.26369(18) 0.06463(10)
O5A O 0.63193(12) 0.2062(3) 0.32248(12)
O6A O 0.58456(10) 0.26125(19) 0.24415(11)
O7A O 0.81338(12) 0.2950(3) 0.36328(13)
C1A C 1.01381(16) 0.2338(3) 0.40108(17)
C2A C 1.00035(18) 0.2240(4) 0.3428(2)
H2A H 1.0277 0.2129 0.3188
C3A C 0.94646(18) 0.2305(4) 0.31978(19)
H3A H 0.9380 0.2235 0.2806
C4A C 0.90531(16) 0.2474(3) 0.35439(16)
C5A C 0.91922(17) 0.2590(3) 0.41256(17)
H4A H 0.8921 0.2725 0.4365
C6A C 0.97276(17) 0.2507(3) 0.43540(17)
H5A H 0.9811 0.2567 0.4747
C7A C 0.77863(14) 0.2320(3) 0.24916(15)
C8A C 0.77699(14) 0.2342(3) 0.18984(15)
H6A H 0.8092 0.2302 0.1722
C9A C 0.72708(14) 0.2423(2) 0.15679(14)
C10A C 0.67906(15) 0.2470(3) 0.18333(15)
H7A H 0.6458 0.2539 0.1613
C11A C 0.68023(15) 0.2414(3) 0.24304(15)
C12A C 0.73029(15) 0.2337(3) 0.27535(15)
H8A H 0.7315 0.2295 0.3150
C13A C 1.07220(16) 0.2274(3) 0.42678(18)
C14A C 0.72627(14) 0.2445(2) 0.09281(14)
C15A C 0.62805(15) 0.2367(3) 0.27274(15)
C16A C 0.84587(16) 0.2578(3) 0.33321(16)
C29A C 0.67845(17) 0.4818(3) -0.06281(17)
H19A H 0.6791 0.4503 -0.0978
C30A C 0.68232(17) 0.5823(3) -0.06188(18)
H20A H 0.6848 0.6166 -0.0957
C31A C 0.68256(16) 0.6319(3) -0.01037(17)
C32A C 0.67930(19) 0.5756(3) 0.03788(18)
H21A H 0.6804 0.6050 0.0736
C33A C 0.67437(18) 0.4757(3) 0.03314(17)
H22A H 0.6712 0.4398 0.0662
C34A C 0.68500(17) 0.7387(3) -0.00429(18)
H23A H 0.6962 0.7636 0.0318
C35A C 0.67260(18) 0.8021(3) -0.04590(18)
H24A H 0.6636 0.7782 -0.0826
C36A C 0.67226(16) 0.9084(3) -0.03749(17)
C37A C 0.6713(2) 0.9688(3) -0.08452(18)
H25A H 0.6711 0.9421 -0.1210
C38A C 0.67079(19) 1.0680(3) -0.07767(18)
H26A H 0.6710 1.1065 -0.1102
C39A C 0.66979(18) 1.0545(3) 0.01779(17)
H27A H 0.6685 1.0832 0.0535
C40A C 0.67142(18) 0.9539(3) 0.01478(18)
H28A H 0.6720 0.9170 0.0480
N2A N 0.49842(13) 0.1507(2) 0.31971(13)
N3A N 0.49419(13) 0.3696(2) 0.18407(13)
N5_2 N 0.33000(13) 0.1127(2) 0.52757(13)
N5A_2 N 0.67000(13) 0.1127(2) -0.02757(13)
Co1_2 Co 0.331505(19) 1.27059(3) 0.521708(19)
Co1A_2 Co 0.668495(19) 1.27059(3) -0.021708(19)
Co1F Co 0.168495(19) 0.22941(3) 0.478292(19)
Co1F_2 Co 1.168495(19) 0.22941(3) 0.478292(19)
Co1G Co -0.168495(19) 0.22941(3) 0.021708(19)
Co1G_2 Co 0.831505(19) 0.22941(3) 0.021708(19)
Co2D Co 0.5000 -0.25828(5) -0.2500
Co2D_2 Co 0.5000 0.74172(5) 0.7500
O1F O 0.60973(11) 0.2865(2) -0.10479(13)
O1G O 0.39027(11) 0.2865(2) 0.60479(13)
O2F O 0.58236(11) 0.2621(2) -0.02029(13)
O2G O 0.41764(11) 0.2621(2) 0.52029(13)
O3F O 0.26945(10) 0.2746(2) 0.57132(11)
O3G O 0.73055(10) 0.2746(2) -0.07132(11)
O8 O 0.39288(15) 0.6009(3) 0.20805(15)
H29 H 0.3982 0.6213 0.1655
H30 H 0.3645 0.5552 0.2136
O9 O 0.3026(9) 0.4906(12) 0.2029(8)
N6 N 0.2126(9) 0.4856(15) 0.2328(7)
C41 C 0.2547(9) 0.476(4) 0.1917(8)
C42 C 0.2358(11) 0.4847(14) 0.2948(6)
C43 C 0.1552(9) 0.4875(13) 0.2038(9)
O10? O 0.3018(10) 0.4620(11) 0.1915(8)
N7? N 0.2357(8) 0.4866(16) 0.2541(7)
C44? C 0.2546(9) 0.483(3) 0.1979(7)
C45? C 0.2774(10) 0.5017(13) 0.3043(6)
C46? C 0.1758(9) 0.4739(13) 0.2588(9)
loop_
_geom_bond_atom_site_label_1
_geom_bond_atom_site_label_2
_geom_bond_site_symmetry_1
_geom_bond_site_symmetry_2
N1 H1 1_555 1_555
N2 Co2 1_555 1_555
N3 Co2 1_555 1_555
N4 Co1 1_555 1_555
N5 C38 1_555 1_555
Co1 O4 1_555 1_555
Co2 O6 1_555 1_555
O1 C13 1_555 1_555
O2 C13 1_555 1_555
O3 C14 1_555 1_555
O4 C14 1_555 1_555
O5 C15 1_555 1_555
O6 C15 1_555 1_555
O7 C16 1_555 1_555
C1 C2 1_555 1_555
C2 H2 1_555 1_555
C3 C2 1_555 1_555
H3 C3 1_555 1_555
C4 C3 1_555 1_555
C5 C4 1_555 1_555
H4 C5 1_555 1_555
C6 C1 1_555 1_555
H5 C6 1_555 1_555
C7 N1 1_555 1_555
C8 C7 1_555 1_555
H6 C8 1_555 1_555
C9 C8 1_555 1_555
C10 C9 1_555 1_555
H7 C10 1_555 1_555
C11 C10 1_555 1_555
C12 C7 1_555 1_555
H8 C12 1_555 1_555
C13 C1 1_555 1_555
C14 C9 1_555 1_555
C15 C11 1_555 1_555
C16 N1 1_555 1_555
C17 N2 1_555 1_555
H9 C17 1_555 1_555
C18 C17 1_555 1_555
H10 C18 1_555 1_555
C19 C18 1_555 1_555
C20 C19 1_555 1_555
H11 C20 1_555 1_555
C21 N2 1_555 1_555
H12 C21 1_555 1_555
C22 C19 1_555 1_555
H13 C22 1_555 1_555
C23 N3 1_555 1_555
H14 C23 1_555 1_555
C24 C23 1_555 1_555
H15 C24 1_555 1_555
C25 C24 1_555 1_555
C26 C25 1_555 1_555
H16 C26 1_555 1_555
C27 N3 1_555 1_555
H17 C27 1_555 1_555
C28 C25 1_555 1_555
H18 C28 1_555 1_555
C29 N4 1_555 1_555
H19 C29 1_555 1_555
C30 C29 1_555 1_555
H20 C30 1_555 1_555
C31 C30 1_555 1_555
C32 C31 1_555 1_555
H21 C32 1_555 1_555
C33 N4 1_555 1_555
H22 C33 1_555 1_555
C34 C31 1_555 1_555
H23 C34 1_555 1_555
C35 C34 1_555 1_555
H24 C35 1_555 1_555
C36 C35 1_555 1_555
C37 C36 1_555 1_555
H25 C37 1_555 1_555
C38 C37 1_555 1_555
H26 C38 1_555 1_555
C39 N5 1_555 1_555
H27 C39 1_555 1_555
C40 C36 1_555 1_555
H28 C40 1_555 1_555
O8 H29 1_555 1_555
H30 O8 1_555 1_555
O9 C41 1_555 1_555
N6 C41 1_555 1_555
C42 N6 1_555 1_555
C43 N6 1_555 1_555
N2D C17D 1_555 1_555
C17D H9D 1_555 1_555
C18D C17D 1_555 1_555
H10D C18D 1_555 1_555
C19D C18D 1_555 1_555
C20D C19D 1_555 1_555
H11D C20D 1_555 1_555
C21D N2D 1_555 1_555
H12D C21D 1_555 1_555
C22D C22 1_555 1_555
H13D C22D 1_555 1_555
N3D C23D 1_555 1_555
C23D H14D 1_555 1_555
C24D C23D 1_555 1_555
H15D C24D 1_555 1_555
C25D C24D 1_555 1_555
C26D C25D 1_555 1_555
H16D C26D 1_555 1_555
C27D N3D 1_555 1_555
H17D C27D 1_555 1_555
C28D C28 1_555 1_555
H18D C28D 1_555 1_555
N1A H1A 1_555 1_555
N4A Co1A 1_555 1_555
N5A C38A 1_555 1_555
Co1A O4A 1_555 1_555
O1A C13A 1_555 1_555
O2A C13A 1_555 1_555
O3A C14A 1_555 1_555
O4A C14A 1_555 1_555
O5A C15A 1_555 1_555
O6A Co2 1_555 1_555
O7A C16A 1_555 1_555
C1A C2A 1_555 1_555
C2A H2A 1_555 1_555
C3A C2A 1_555 1_555
H3A C3A 1_555 1_555
C4A C3A 1_555 1_555
C5A C4A 1_555 1_555
H4A C5A 1_555 1_555
C6A C1A 1_555 1_555
H5A C6A 1_555 1_555
C7A N1A 1_555 1_555
C8A C7A 1_555 1_555
H6A C8A 1_555 1_555
C9A C8A 1_555 1_555
C10A C9A 1_555 1_555
H7A C10A 1_555 1_555
C11A C10A 1_555 1_555
C12A C7A 1_555 1_555
H8A C12A 1_555 1_555
C13A C1A 1_555 1_555
C14A C9A 1_555 1_555
C15A O6A 1_555 1_555
C16A N1A 1_555 1_555
C29A N4A 1_555 1_555
H19A C29A 1_555 1_555
C30A C29A 1_555 1_555
H20A C30A 1_555 1_555
C31A C30A 1_555 1_555
C32A C31A 1_555 1_555
H21A C32A 1_555 1_555
C33A N4A 1_555 1_555
H22A C33A 1_555 1_555
C34A C31A 1_555 1_555
H23A C34A 1_555 1_555
C35A C34A 1_555 1_555
H24A C35A 1_555 1_555
C36A C35A 1_555 1_555
C37A C36A 1_555 1_555
H25A C37A 1_555 1_555
C38A C37A 1_555 1_555
H26A C38A 1_555 1_555
C39A N5A 1_555 1_555
H27A C39A 1_555 1_555
C40A C36A 1_555 1_555
H28A C40A 1_555 1_555
N2A Co2 1_555 1_555
N3A Co2 1_555 1_555
N5_2 Co1 1_555 1_555
N5A_2 Co1A 1_555 1_555
Co1_2 N5 1_555 1_555
Co1A_2 N5A 1_555 1_555
Co1F O3 1_555 1_555
Co1F_2 O1A 1_555 1_555
Co1G O1 1_555 1_555
Co1G_2 O3A 1_555 1_555
Co2D N2D 1_555 1_555
Co2D_2 N3D 1_555 1_555
O1F Co1A 1_555 1_555
O1G Co1 1_555 1_555
O2F Co1A 1_555 1_555
O2G Co1 1_555 1_555
O3F Co1 1_555 1_555
O3G Co1A 1_555 1_555
O2 Co1G 1_555 1_555
C4 C16 1_555 1_555
C5 C6 1_555 1_555
C11 C12 1_555 1_555
C20 C21 1_555 1_555
C26 C27 1_555 1_555
C32 C33 1_555 1_555
C39 C40 1_555 1_555
C19D C22D 1_555 1_555
C20D C21D 1_555 1_555
C25D C28D 1_555 1_555
C26D C27D 1_555 1_555
O2A Co1F_2 1_555 1_555
C4A C16A 1_555 1_555
C5A C6A 1_555 1_555
C11A C12A 1_555 1_555
C11A C15A 1_555 1_555
C32A C33A 1_555 1_555
C39A C40A 1_555 1_555

#END
