
#######################################################################
#
#                 Cambridge Crystallographic Data Centre
#                                CCDC 
#
#######################################################################
#
# If this CIF has been generated from an entry in the Cambridge 
# Structural Database, then it will include bibliographic, chemical, 
# crystal, experimental, refinement or atomic coordinate data resulting 
# from the CCDC's data processing and validation procedures.
#
#######################################################################

data_ZIJYOI
_symmetry_cell_setting           triclinic
_symmetry_space_group_name_H-M   'P -1'
_symmetry_Int_Tables_number      2
_space_group_name_Hall           '-P 1'
loop_
_symmetry_equiv_pos_site_id
_symmetry_equiv_pos_as_xyz
1 x,y,z
2 -x,-y,-z
_cell_length_a                   18.733(6)
_cell_length_b                   21.701(7)
_cell_length_c                   22.301(7)
_cell_angle_alpha                118.963(4)
_cell_angle_beta                 90.299(5)
_cell_angle_gamma                104.709(5)
_cell_volume                     7583.6
loop_
_atom_site_label
_atom_site_type_symbol
_atom_site_fract_x
_atom_site_fract_y
_atom_site_fract_z
Cl1 Cl -0.55384(12) -0.10603(18) -0.12679(14)
Cl2 Cl 0.5175(4) 1.0550(5) 0.6869(4)
Cl3 Cl 0.3560(4) 0.2837(5) 0.3862(4)
Cl4 Cl -0.4342(4) -0.2173(5) -0.2965(4)
Cl5 Cl 0.5363(4) 0.6588(6) 0.4725(5)
Cl6 Cl 0.2343(8) 0.4568(4) 0.1097(5)
Cl7 Cl 0.4473(6) 0.4285(4) 0.2811(6)
O1 O 0.0917(7) 0.8813(6) 0.7211(6)
O2 O 0.2092(8) 0.8901(9) 0.7631(6)
O3 O 0.2026(3) 0.2267(2) 0.3705(2)
O4 O 0.1202(4) 0.4362(3) 0.5203(3)
O5 O 0.1089(3) 0.4128(3) 0.3796(3)
O6 O -0.0193(4) 0.3122(7) 0.4364(6)
O7 O 0.3265(3) 0.8398(2) 0.7330(2)
O8 O 0.3566(4) 1.0067(4) 0.7887(4)
O9 O 0.3821(4) 0.9201(4) 0.6238(4)
O10 O 0.1600(4) 0.7814(4) 0.6656(3)
O11 O 0.1607(6) 0.8894(4) 0.5950(6)
Sr1 Sr 0.11415(4) 0.31090(4) 0.40564(3)
Sr2 Sr 0.26483(4) 0.89711(4) 0.67424(4)
C1 C 0.2889(3) 0.1663(3) 0.1960(3)
C2 C 0.3745(3) 0.1689(3) 0.1218(3)
H1 H 0.4278 0.1836 0.1390
C3 C 0.3447(3) 0.2351(3) 0.1467(3)
H2 H 0.3852 0.2815 0.1691
C4 C 0.3199(3) 0.1651(3) 0.0251(3)
C5 C 0.2667(3) 0.2883(3) 0.2427(3)
H3 H 0.3059 0.3346 0.2608
H4 H 0.2543 0.2810 0.2814
C6 C 0.2842(4) 0.2798(4) 0.0771(3)
H5 H 0.3219 0.3268 0.1053
H6 H 0.2815 0.2690 0.0294
C7 C 0.1346(3) 0.2829(3) 0.2336(3)
C8 C 0.2070(3) 0.3310(3) 0.1735(3)
H7 H 0.2462 0.3784 0.1959
C9 C 0.1282(3) 0.3408(3) 0.1701(3)
H8 H 0.1303 0.3929 0.1942
C10 C 0.1547(4) 0.2771(3) 0.0570(3)
C11 C 0.0190(3) 0.3161(3) 0.2289(3)
H9 H 0.0247 0.3685 0.2512
H10 H 0.0102 0.3015 0.2637
C12 C 0.0449(3) 0.3237(3) 0.0696(3)
H11 H 0.0516 0.3762 0.0972
H12 H 0.0502 0.3121 0.0223
C13 C -0.1057(3) 0.2322(4) 0.1789(3)
C14 C -0.0638(3) 0.3058(3) 0.1329(3)
H13 H -0.0545 0.3593 0.1601
C15 C -0.1480(3) 0.2653(3) 0.1044(3)
H14 H -0.1783 0.2994 0.1174
C16 C -0.0815(4) 0.2392(3) 0.0113(3)
C17 C -0.2416(4) 0.1803(4) 0.1365(3)
H15 H -0.2413 0.1698 0.1741
H16 H -0.2730 0.2123 0.1455
C18 C -0.2180(4) 0.1910(3) -0.0201(3)
H17 H -0.2493 0.2236 -0.0035
H18 H -0.2052 0.1860 -0.0640
C19 C -0.2986(3) 0.0479(4) 0.0716(3)
C20 C -0.3111(3) 0.1089(4) 0.0120(3)
H19 H -0.3437 0.1409 0.0249
C21 C -0.3548(3) 0.0270(3) -0.0312(3)
H20 H -0.4078 0.0206 -0.0423
C22 C -0.2649(4) 0.0576(3) -0.0928(3)
C23 C -0.3880(4) -0.0737(3) -0.0005(3)
H21 H -0.4390 -0.0833 -0.0191
H22 H -0.3887 -0.0725 0.0436
C24 C -0.3485(4) -0.0691(3) -0.1548(3)
H23 H -0.3285 -0.0656 -0.1934
H24 H -0.4025 -0.0817 -0.1640
C25 C -0.1652(3) 0.4723(3) 0.2659(3)
C26 C -0.2275(3) 0.5600(3) 0.3228(3)
H25 H -0.2710 0.5592 0.2975
C27 C -0.1548(3) 0.5960(3) 0.3077(3)
H26 H -0.1626 0.6188 0.2805
C28 C -0.1570(4) 0.6572(3) 0.4277(3)
C29 C -0.0642(3) 0.5386(3) 0.2293(3)
H27 H -0.0735 0.5636 0.2053
H28 H -0.0663 0.4886 0.1947
C30 C -0.0487(3) 0.7114(3) 0.3882(3)
H29 H -0.0425 0.7523 0.4350
H30 H -0.0582 0.7279 0.3563
C31 C 0.0646(3) 0.5412(3) 0.2612(3)
C32 C 0.0410(3) 0.6541(3) 0.3077(3)
H31 H 0.0305 0.6762 0.2806
C33 C 0.1249(3) 0.6676(3) 0.3235(3)
H32 H 0.1537 0.6927 0.3009
C34 C 0.0804(4) 0.7253(3) 0.4278(4)
C35 C 0.2006(3) 0.5764(3) 0.2858(3)
H33 H 0.1916 0.5256 0.2493
H34 H 0.2321 0.6075 0.2704
C36 C 0.2190(3) 0.7510(3) 0.4339(3)
H35 H 0.2486 0.7672 0.4058
H36 H 0.2184 0.7945 0.4770
C37 C 0.2491(3) 0.5295(3) 0.3530(3)
C38 C 0.2904(3) 0.6571(3) 0.3980(3)
H37 H 0.3240 0.6807 0.3766
C39 C 0.3341(3) 0.6365(3) 0.4422(3)
H38 H 0.3878 0.6489 0.4404
C40 C 0.2743(3) 0.7225(3) 0.5146(3)
C41 C 0.3345(3) 0.5119(3) 0.4227(3)
H39 H 0.3880 0.5287 0.4242
H40 H 0.3161 0.4620 0.3838
C42 C 0.3614(3) 0.6922(3) 0.5732(3)
H41 H 0.4133 0.6998 0.5665
H42 H 0.3577 0.7369 0.6134
C43 C 0.2869(3) 0.4472(3) 0.4859(3)
C44 C 0.3638(3) 0.5689(3) 0.5536(3)
H43 H 0.4173 0.5813 0.5510
C45 C 0.3445(3) 0.5329(3) 0.5994(3)
H44 H 0.3896 0.5342 0.6230
C46 C 0.3041(3) 0.6370(3) 0.6432(3)
C47 C 0.2860(3) 0.3987(3) 0.5650(3)
H45 H 0.3304 0.4046 0.5922
H46 H 0.2764 0.3524 0.5217
C48 C 0.2878(4) 0.5732(4) 0.7093(3)
H47 H 0.2809 0.6196 0.7440
H48 H 0.3312 0.5674 0.7275
C49 C 0.2910(4) 0.9789(4) 0.4806(4)
C50 C 0.3332(3) 1.0468(3) 0.4240(3)
H49 H 0.3755 1.0399 0.3984
C51 C 0.3590(4) 1.0951(3) 0.5008(3)
H50 H 0.4133 1.1166 0.5121
C52 C 0.2851(3) 1.1459(3) 0.4628(3)
C53 C 0.3592(4) 1.0627(4) 0.5961(3)
H51 H 0.4126 1.0859 0.6055
H52 H 0.3508 1.0161 0.5948
C54 C 0.3397(4) 1.2207(3) 0.5867(3)
H53 H 0.3936 1.2395 0.5984
H54 H 0.3219 1.2570 0.5827
C55 C 0.2852(4) 1.0858(4) 0.6910(3)
C56 C 0.3431(3) 1.1880(3) 0.6809(3)
H55 H 0.3971 1.2118 0.6926
C57 C 0.3047(3) 1.2108(4) 0.7482(3)
H56 H 0.3416 1.2427 0.7904
C58 C 0.2621(3) 1.2523(3) 0.6779(3)
C59 C 0.2366(4) 1.1389(4) 0.8009(4)
H57 H 0.2685 1.1776 0.8439
H58 H 0.2355 1.0920 0.7967
C60 C 0.2226(3) 1.2969(3) 0.7943(3)
H59 H 0.2563 1.3227 0.8378
H60 H 0.2132 1.3336 0.7849
C61 C 0.0978(4) 1.0880(4) 0.7871(4)
C62 C 0.1458(3) 1.2172(3) 0.8403(3)
H61 H 0.1758 1.2488 0.8865
C63 C 0.0619(3) 1.1959(3) 0.8445(3)
H62 H 0.0528 1.2165 0.8927
C64 C 0.0868(3) 1.2651(3) 0.7880(3)
C65 C -0.0298(3) 1.0730(3) 0.8134(3)
H63 H -0.0242 1.0255 0.8022
H64 H -0.0388 1.0969 0.8611
C66 C -0.0412(3) 1.2371(3) 0.8127(3)
H65 H -0.0515 1.2544 0.8598
H66 H -0.0431 1.2743 0.8009
C67 C -0.1388(3) 0.9915(3) 0.7244(3)
C68 C -0.1328(3) 1.1164(3) 0.7864(3)
H67 H -0.1401 1.1397 0.8352
C69 C -0.2070(3) 1.0728(3) 0.7376(3)
H68 H -0.2501 1.0784 0.7624
C70 C -0.1413(3) 1.1617(3) 0.7118(3)
C71 C 0.2696(3) 1.0664(3) 0.3348(3)
H69 H 0.3111 1.0561 0.3096
H70 H 0.2608 1.1090 0.3358
C72 C -0.2680(3) 1.0911(3) 0.6477(3)
H71 H -0.3100 1.0928 0.6731
H72 H -0.2592 1.1311 0.6378
N1 N 0.3287(3) 0.1272(3) 0.1501(2)
N2 N 0.2950(3) 0.2300(3) 0.1953(2)
N3 N 0.3597(3) 0.1329(3) 0.0474(2)
N4 N 0.3066(3) 0.2226(3) 0.0821(2)
N5 N 0.2020(3) 0.2941(2) 0.2132(2)
N6 N 0.0872(3) 0.3031(3) 0.2038(2)
N7 N 0.2125(3) 0.2860(3) 0.0997(2)
N8 N 0.1034(3) 0.3057(3) 0.0964(2)
N9 N -0.0451(3) 0.2769(3) 0.1753(2)
N10 N -0.1639(3) 0.2206(3) 0.1368(3)
N11 N -0.0290(3) 0.2847(3) 0.0705(2)
N12 N -0.1482(3) 0.2251(3) 0.0307(2)
N13 N -0.2739(3) 0.1127(3) 0.0731(2)
N14 N -0.3446(3) -0.0033(3) 0.0111(2)
N15 N -0.2589(3) 0.1212(3) -0.0309(2)
N16 N -0.3209(3) 0.0015(3) -0.0924(2)
N17 N -0.2235(3) 0.4857(2) 0.3008(2)
N18 N -0.1205(3) 0.5366(2) 0.2709(2)
N19 N -0.2228(3) 0.6053(2) 0.3972(2)
N20 N -0.1121(3) 0.6513(2) 0.3781(2)
N21 N 0.0104(3) 0.5764(2) 0.2703(2)
N22 N 0.1307(3) 0.5929(2) 0.2955(2)
N23 N 0.0198(3) 0.6900(2) 0.3769(2)
N24 N 0.1427(3) 0.7111(3) 0.3973(3)
N25 N 0.2397(3) 0.5869(2) 0.3464(2)
N26 N 0.3001(3) 0.5587(2) 0.4113(2)
N27 N 0.2531(3) 0.7076(3) 0.4486(2)
N28 N 0.3168(3) 0.6804(2) 0.5120(2)
N29 N 0.3201(2) 0.5111(2) 0.4865(2)
N30 N 0.3004(3) 0.4575(2) 0.5501(2)
N31 N 0.3391(3) 0.6327(2) 0.5870(2)
N32 N 0.3026(3) 0.5772(3) 0.6484(2)
N33 N 0.2870(3) 0.9772(3) 0.4164(2)
N34 N 0.3314(3) 1.0487(3) 0.5301(2)
N35 N 0.2902(3) 1.0842(2) 0.4055(2)
N36 N 0.3195(3) 1.1517(2) 0.5197(2)
N37 N 0.3259(3) 1.1090(3) 0.6522(2)
N38 N 0.2680(3) 1.1432(3) 0.7437(3)
N39 N 0.3087(3) 1.2109(3) 0.6417(2)
N40 N 0.2581(3) 1.2504(3) 0.7389(2)
N41 N 0.1605(3) 1.1462(3) 0.8041(3)
N42 N 0.0386(3) 1.1165(3) 0.8081(3)
N43 N 0.1527(3) 1.2548(3) 0.8013(2)
N44 N 0.0330(3) 1.2296(3) 0.8101(2)
N45 N -0.0933(3) 1.0612(3) 0.7698(3)
N46 N -0.2034(3) 0.9965(2) 0.7022(2)
N47 N -0.0988(3) 1.1702(3) 0.7670(2)
N48 N -0.2030(3) 1.1025(3) 0.6907(2)
O12 O 0.2516(2) 0.1494(2) 0.2338(2)
O13 O 0.1183(2) 0.2594(2) 0.2740(2)
O14 O -0.1058(3) 0.1987(3) 0.2133(2)
O15 O -0.2809(3) 0.0375(3) 0.1195(2)
O16 O 0.3008(3) 0.1461(3) -0.0353(2)
O17 O 0.1495(3) 0.2475(3) -0.0062(2)
O18 O -0.0659(2) 0.2179(2) -0.0485(2)
O19 O -0.2284(2) 0.0522(2) -0.1396(2)
O20 O -0.1513(2) 0.4122(2) 0.2365(2)
O21 O 0.0532(2) 0.4741(2) 0.2262(2)
O22 O 0.2167(2) 0.4661(2) 0.3151(2)
O23 O 0.2521(2) 0.3894(2) 0.4347(2)
O24 O -0.1387(2) 0.7039(2) 0.49002(19)
O25 O 0.0799(2) 0.7629(2) 0.4896(2)
O26 O 0.2587(2) 0.7696(2) 0.5676(2)
O27 O 0.2804(2) 0.6879(2) 0.6822(2)
O28 O 0.2641(3) 0.9253(3) 0.4869(2)
O29 O 0.2674(3) 1.0223(3) 0.6791(3)
O30 O 0.0944(2) 1.0230(2) 0.7597(3)
O31 O -0.1235(2) 0.9337(2) 0.7061(2)
O32 O 0.2543(2) 1.1894(2) 0.4634(2)
O33 O 0.2303(3) 1.2827(2) 0.6588(2)
O34 O 0.0779(2) 1.3007(2) 0.7614(2)
O35 O -0.1269(2) 1.2004(2) 0.6850(2)
O36 O 0.0221(5) 0.1744(5) 0.3507(5)
C1A C -0.2889(3) -0.1663(3) -0.1960(3)
C2A C -0.3745(3) -0.1689(3) -0.1218(3)
H1A H -0.4278 -0.1836 -0.1390
C3A C -0.3447(3) -0.2351(3) -0.1467(3)
H2A H -0.3852 -0.2815 -0.1691
C4A C -0.3199(3) -0.1651(3) -0.0251(3)
C5A C -0.2667(3) -0.2883(3) -0.2427(3)
H3A H -0.3059 -0.3346 -0.2608
H4A H -0.2543 -0.2810 -0.2814
C6A C -0.2842(4) -0.2798(4) -0.0771(3)
H5A H -0.3219 -0.3268 -0.1053
H6A H -0.2815 -0.2690 -0.0294
C7A C -0.1346(3) -0.2829(3) -0.2336(3)
C8A C -0.2070(3) -0.3310(3) -0.1735(3)
H7A H -0.2462 -0.3784 -0.1959
C9A C -0.1282(3) -0.3408(3) -0.1701(3)
H8A H -0.1303 -0.3929 -0.1942
C10A C -0.1547(4) -0.2771(3) -0.0570(3)
C11A C -0.0190(3) -0.3161(3) -0.2289(3)
H9A H -0.0247 -0.3685 -0.2512
H10A H -0.0102 -0.3015 -0.2637
C12A C -0.0449(3) -0.3237(3) -0.0696(3)
H11A H -0.0516 -0.3762 -0.0972
H12A H -0.0502 -0.3121 -0.0223
C13A C 0.1057(3) -0.2322(4) -0.1789(3)
C14A C 0.0638(3) -0.3058(3) -0.1329(3)
H13A H 0.0545 -0.3593 -0.1601
C15A C 0.1480(3) -0.2653(3) -0.1044(3)
H14A H 0.1783 -0.2994 -0.1174
C16A C 0.0815(4) -0.2392(3) -0.0113(3)
C17A C 0.2416(4) -0.1803(4) -0.1365(3)
H15A H 0.2413 -0.1698 -0.1741
H16A H 0.2730 -0.2123 -0.1455
C18A C 0.2180(4) -0.1910(3) 0.0201(3)
H17A H 0.2493 -0.2236 0.0035
H18A H 0.2052 -0.1860 0.0640
C19A C 0.2986(3) -0.0479(4) -0.0716(3)
C20A C 0.3111(3) -0.1089(4) -0.0120(3)
H19A H 0.3437 -0.1409 -0.0249
C21A C 0.3548(3) -0.0270(3) 0.0312(3)
H20A H 0.4078 -0.0206 0.0423
C22A C 0.2649(4) -0.0576(3) 0.0928(3)
C23A C 0.3880(4) 0.0737(3) 0.0005(3)
H21A H 0.4390 0.0833 0.0191
H22A H 0.3887 0.0725 -0.0436
C24A C 0.3485(4) 0.0691(3) 0.1548(3)
H23A H 0.3285 0.0656 0.1934
H24A H 0.4025 0.0817 0.1640
N1A N -0.3287(3) -0.1272(3) -0.1501(2)
N2A N -0.2950(3) -0.2300(3) -0.1953(2)
N3A N -0.3597(3) -0.1329(3) -0.0474(2)
N4A N -0.3066(3) -0.2226(3) -0.0821(2)
N5A N -0.2020(3) -0.2941(2) -0.2132(2)
N6A N -0.0872(3) -0.3031(3) -0.2038(2)
N7A N -0.2125(3) -0.2860(3) -0.0997(2)
N8A N -0.1034(3) -0.3057(3) -0.0964(2)
N9A N 0.0451(3) -0.2769(3) -0.1753(2)
N10A N 0.1639(3) -0.2206(3) -0.1368(3)
N11A N 0.0290(3) -0.2847(3) -0.0705(2)
N12A N 0.1482(3) -0.2251(3) -0.0307(2)
N13A N 0.2739(3) -0.1127(3) -0.0731(2)
N14A N 0.3446(3) 0.0033(3) -0.0111(2)
N15A N 0.2589(3) -0.1212(3) 0.0309(2)
N16A N 0.3209(3) -0.0015(3) 0.0924(2)
O12A O -0.2516(2) -0.1494(2) -0.2338(2)
O13A O -0.1183(2) -0.2594(2) -0.2740(2)
O14A O 0.1058(3) -0.1987(3) -0.2133(2)
O15A O 0.2809(3) -0.0375(3) -0.1195(2)
O16A O -0.3008(3) -0.1461(3) 0.0353(2)
O17A O -0.1495(3) -0.2475(3) 0.0062(2)
O18A O 0.0659(2) -0.2179(2) 0.0485(2)
O19A O 0.2284(2) -0.0522(2) 0.1396(2)
C25A C 0.1652(3) 0.5277(3) 0.7341(3)
C26A C 0.2275(3) 0.4400(3) 0.6772(3)
H25A H 0.2710 0.4408 0.7025
C27A C 0.1548(3) 0.4040(3) 0.6923(3)
H26A H 0.1626 0.3812 0.7195
C28A C 0.1570(4) 0.3428(3) 0.5723(3)
C29A C 0.0642(3) 0.4614(3) 0.7707(3)
H27A H 0.0735 0.4364 0.7947
H28A H 0.0663 0.5114 0.8053
C30A C 0.0487(3) 0.2886(3) 0.6118(3)
H29A H 0.0425 0.2477 0.5650
H30A H 0.0582 0.2721 0.6437
C31A C -0.0646(3) 0.4588(3) 0.7388(3)
C32A C -0.0410(3) 0.3459(3) 0.6923(3)
H31A H -0.0305 0.3238 0.7194
C33A C -0.1249(3) 0.3324(3) 0.6765(3)
H32A H -0.1537 0.3073 0.6991
C34A C -0.0804(4) 0.2747(3) 0.5722(4)
C35A C -0.2006(3) 0.4236(3) 0.7142(3)
H33A H -0.1916 0.4744 0.7507
H34A H -0.2321 0.3925 0.7296
C36A C -0.2190(3) 0.2490(3) 0.5661(3)
H35A H -0.2486 0.2328 0.5942
H36A H -0.2184 0.2055 0.5230
C37A C -0.2491(3) 0.4705(3) 0.6470(3)
C38A C -0.2904(3) 0.3429(3) 0.6020(3)
H37A H -0.3240 0.3193 0.6234
C39A C -0.3341(3) 0.3635(3) 0.5578(3)
H38A H -0.3878 0.3511 0.5596
C40A C -0.2743(3) 0.2775(3) 0.4854(3)
C41A C -0.3345(3) 0.4881(3) 0.5773(3)
H39A H -0.3880 0.4713 0.5758
H40A H -0.3161 0.5380 0.6162
C42A C -0.3614(3) 0.3078(3) 0.4268(3)
H41A H -0.4133 0.3002 0.4335
H42A H -0.3577 0.2631 0.3866
C43A C -0.2869(3) 0.5528(3) 0.5141(3)
C44A C -0.3638(3) 0.4311(3) 0.4464(3)
H43A H -0.4173 0.4187 0.4490
C45A C -0.3445(3) 0.4671(3) 0.4006(3)
H44A H -0.3896 0.4658 0.3770
C46A C -0.3041(3) 0.3630(3) 0.3568(3)
C47A C -0.2860(3) 0.6013(3) 0.4350(3)
H45A H -0.3304 0.5954 0.4078
H46A H -0.2764 0.6476 0.4783
C48A C -0.2878(4) 0.4268(4) 0.2907(3)
H47A H -0.2809 0.3804 0.2560
H48A H -0.3312 0.4326 0.2725
N17A N 0.2235(3) 0.5143(2) 0.6992(2)
N18A N 0.1205(3) 0.4634(2) 0.7291(2)
N19A N 0.2228(3) 0.3947(2) 0.6028(2)
N20A N 0.1121(3) 0.3487(2) 0.6219(2)
N21A N -0.0104(3) 0.4236(2) 0.7297(2)
N22A N -0.1307(3) 0.4071(2) 0.7045(2)
N23A N -0.0198(3) 0.3100(2) 0.6231(2)
N24A N -0.1427(3) 0.2889(3) 0.6027(3)
N25A N -0.2397(3) 0.4131(2) 0.6536(2)
N26A N -0.3001(3) 0.4413(2) 0.5887(2)
N27A N -0.2531(3) 0.2924(3) 0.5514(2)
N28A N -0.3168(3) 0.3196(2) 0.4880(2)
N29A N -0.3201(2) 0.4889(2) 0.5135(2)
N30A N -0.3004(3) 0.5425(2) 0.4499(2)
N31A N -0.3391(3) 0.3673(2) 0.4130(2)
N32A N -0.3026(3) 0.4228(3) 0.3516(2)
O20A O 0.1513(2) 0.5878(2) 0.7635(2)
O21A O -0.0532(2) 0.5259(2) 0.7738(2)
O22A O -0.2167(2) 0.5339(2) 0.6849(2)
O23A O -0.2521(2) 0.6106(2) 0.5653(2)
O24A O 0.1387(2) 0.2961(2) 0.50998(19)
O25A O -0.0799(2) 0.2371(2) 0.5104(2)
O26A O -0.2587(2) 0.2304(2) 0.4324(2)
O27A O -0.2804(2) 0.3121(2) 0.3178(2)
C49A C -0.2910(4) 1.0211(4) 0.5194(4)
C50A C -0.3332(3) 0.9532(3) 0.5760(3)
H49A H -0.3755 0.9601 0.6016
C51A C -0.3590(4) 0.9049(3) 0.4992(3)
H50A H -0.4133 0.8834 0.4879
C52A C -0.2851(3) 0.8541(3) 0.5372(3)
C53A C -0.3592(4) 0.9373(4) 0.4039(3)
H51A H -0.4126 0.9141 0.3945
H52A H -0.3508 0.9839 0.4052
C54A C -0.3397(4) 0.7793(3) 0.4133(3)
H53A H -0.3936 0.7605 0.4016
H54A H -0.3219 0.7430 0.4173
C55A C -0.2852(4) 0.9142(4) 0.3090(3)
C56A C -0.3431(3) 0.8120(3) 0.3191(3)
H55A H -0.3971 0.7882 0.3074
C57A C -0.3047(3) 0.7892(4) 0.2518(3)
H56A H -0.3416 0.7573 0.2096
C58A C -0.2621(3) 0.7477(3) 0.3221(3)
C59A C -0.2366(4) 0.8611(4) 0.1991(4)
H57A H -0.2685 0.8224 0.1561
H58A H -0.2355 0.9080 0.2033
C60A C -0.2226(3) 0.7031(3) 0.2057(3)
H59A H -0.2563 0.6773 0.1622
H60A H -0.2132 0.6664 0.2151
C61A C -0.0978(4) 0.9120(4) 0.2129(4)
C62A C -0.1458(3) 0.7828(3) 0.1597(3)
H61A H -0.1758 0.7512 0.1135
C63A C -0.0619(3) 0.8041(3) 0.1555(3)
H62A H -0.0528 0.7835 0.1073
C64A C -0.0868(3) 0.7349(3) 0.2120(3)
C65A C 0.0298(3) 0.9270(3) 0.1866(3)
H63A H 0.0242 0.9745 0.1978
H64A H 0.0388 0.9031 0.1389
C66A C 0.0412(3) 0.7629(3) 0.1873(3)
H65A H 0.0515 0.7456 0.1402
H66A H 0.0431 0.7257 0.1991
C67A C 0.1388(3) 1.0085(3) 0.2756(3)
C68A C 0.1328(3) 0.8836(3) 0.2136(3)
H67A H 0.1401 0.8603 0.1648
C69A C 0.2070(3) 0.9272(3) 0.2624(3)
H68A H 0.2501 0.9216 0.2376
C70A C 0.1413(3) 0.8383(3) 0.2882(3)
C71A C -0.2696(3) 0.9336(3) 0.6652(3)
H69A H -0.3111 0.9439 0.6904
H70A H -0.2608 0.8910 0.6642
C72A C 0.2680(3) 0.9089(3) 0.3523(3)
H71A H 0.3100 0.9072 0.3269
H72A H 0.2592 0.8689 0.3622
N33A N -0.2870(3) 1.0228(3) 0.5836(2)
N34A N -0.3314(3) 0.9513(3) 0.4699(2)
N35A N -0.2902(3) 0.9158(2) 0.5945(2)
N36A N -0.3195(3) 0.8483(2) 0.4803(2)
N37A N -0.3259(3) 0.8910(3) 0.3478(2)
N38A N -0.2680(3) 0.8568(3) 0.2563(3)
N39A N -0.3087(3) 0.7891(3) 0.3583(2)
N40A N -0.2581(3) 0.7496(3) 0.2611(2)
N41A N -0.1605(3) 0.8538(3) 0.1959(3)
N42A N -0.0386(3) 0.8835(3) 0.1919(3)
N43A N -0.1527(3) 0.7452(3) 0.1987(2)
N44A N -0.0330(3) 0.7704(3) 0.1899(2)
N45A N 0.0933(3) 0.9388(3) 0.2302(3)
N46A N 0.2034(3) 1.0035(2) 0.2978(2)
N47A N 0.0988(3) 0.8298(3) 0.2330(2)
N48A N 0.2030(3) 0.8975(3) 0.3093(2)
O28A O -0.2641(3) 1.0747(3) 0.5131(2)
O29A O -0.2674(3) 0.9777(3) 0.3209(3)
O30A O -0.0944(2) 0.9770(2) 0.2403(3)
O31A O 0.1235(2) 1.0663(2) 0.2939(2)
O32A O -0.2543(2) 0.8106(2) 0.5366(2)
O33A O -0.2303(3) 0.7173(2) 0.3412(2)
O34A O -0.0779(2) 0.6993(2) 0.2386(2)
O35A O 0.1269(2) 0.7996(2) 0.3150(2)
O3A O -0.2026(3) -0.2267(2) -0.3705(2)
O4A O -0.1202(4) -0.4362(3) -0.5203(3)
O5A O -0.1089(3) -0.4128(3) -0.3796(3)
O6A O 0.0193(4) -0.3122(7) -0.4364(6)
Sr1A Sr -0.11415(4) -0.31090(4) -0.40564(3)
O36A O -0.0221(5) -0.1744(5) -0.3507(5)
O2A O -0.2092(8) 0.1099(9) 0.2369(6)
O7A O -0.3265(3) 0.1602(2) 0.2670(2)
O8A O -0.3566(4) -0.0067(4) 0.2113(4)
O9A O -0.3821(4) 0.0799(4) 0.3762(4)
O10A O -0.1600(4) 0.2186(4) 0.3344(3)
O11A O -0.1607(6) 0.1106(4) 0.4050(6)
Sr2A Sr -0.26483(4) 0.10289(4) 0.32576(4)
Sr1A_2 Sr -0.11415(4) 0.68910(4) 0.59436(3)
Sr2A_2 Sr -0.26483(4) 1.10289(4) 0.32576(4)
O23A_2 O -0.2521(2) -0.3894(2) -0.4347(2)
O24_2 O -0.1387(2) -0.2961(2) -0.50998(19)
O29A_2 O -0.2674(3) -0.0223(3) 0.3209(3)
loop_
_geom_bond_atom_site_label_1
_geom_bond_atom_site_label_2
_geom_bond_site_symmetry_1
_geom_bond_site_symmetry_2
O2 Sr2 1_555 1_555
O3 Sr1 1_555 1_555
O4 Sr1 1_555 1_555
O5 Sr1 1_555 1_555
O6 Sr1 1_555 1_555
O7 Sr2 1_555 1_555
O8 Sr2 1_555 1_555
O9 Sr2 1_555 1_555
O10 Sr2 1_555 1_555
O11 Sr2 1_555 1_555
Sr1 O13 1_555 1_555
Sr2 O26 1_555 1_555
C1 N1 1_555 1_555
C2 H1 1_555 1_555
C3 C2 1_555 1_555
H2 C3 1_555 1_555
C4 N3 1_555 1_555
C5 H3 1_555 1_555
H4 C5 1_555 1_555
C6 H5 1_555 1_555
H6 C6 1_555 1_555
C7 N5 1_555 1_555
C8 H7 1_555 1_555
C9 C8 1_555 1_555
H8 C9 1_555 1_555
C10 N7 1_555 1_555
C11 H9 1_555 1_555
H10 C11 1_555 1_555
C12 H11 1_555 1_555
H12 C12 1_555 1_555
C13 N9 1_555 1_555
C14 H13 1_555 1_555
C15 C14 1_555 1_555
H14 C15 1_555 1_555
C16 N11 1_555 1_555
C17 H15 1_555 1_555
H16 C17 1_555 1_555
C18 H17 1_555 1_555
H18 C18 1_555 1_555
C19 N13 1_555 1_555
C20 H19 1_555 1_555
C21 C20 1_555 1_555
H20 C21 1_555 1_555
C22 N15 1_555 1_555
C23 H21 1_555 1_555
H22 C23 1_555 1_555
C24 H23 1_555 1_555
H24 C24 1_555 1_555
C25 N17 1_555 1_555
C26 H25 1_555 1_555
C27 C26 1_555 1_555
H26 C27 1_555 1_555
C28 N19 1_555 1_555
C29 H27 1_555 1_555
H28 C29 1_555 1_555
C30 H29 1_555 1_555
H30 C30 1_555 1_555
C31 N21 1_555 1_555
C32 H31 1_555 1_555
C33 C32 1_555 1_555
H32 C33 1_555 1_555
C34 N23 1_555 1_555
C35 H33 1_555 1_555
H34 C35 1_555 1_555
C36 H35 1_555 1_555
H36 C36 1_555 1_555
C37 N25 1_555 1_555
C38 H37 1_555 1_555
C39 C38 1_555 1_555
H38 C39 1_555 1_555
C40 N27 1_555 1_555
C41 H39 1_555 1_555
H40 C41 1_555 1_555
C42 H41 1_555 1_555
H42 C42 1_555 1_555
C43 N29 1_555 1_555
C44 H43 1_555 1_555
C45 C44 1_555 1_555
H44 C45 1_555 1_555
C46 N31 1_555 1_555
C47 H45 1_555 1_555
H46 C47 1_555 1_555
C48 H47 1_555 1_555
H48 C48 1_555 1_555
C49 N33 1_555 1_555
C50 H49 1_555 1_555
C51 C50 1_555 1_555
H50 C51 1_555 1_555
C52 N35 1_555 1_555
C53 H51 1_555 1_555
H52 C53 1_555 1_555
C54 H53 1_555 1_555
H54 C54 1_555 1_555
C55 N37 1_555 1_555
C56 H55 1_555 1_555
C57 C56 1_555 1_555
H56 C57 1_555 1_555
C58 N39 1_555 1_555
C59 H57 1_555 1_555
H58 C59 1_555 1_555
C60 H59 1_555 1_555
H60 C60 1_555 1_555
C61 N41 1_555 1_555
C62 H61 1_555 1_555
C63 C62 1_555 1_555
H62 C63 1_555 1_555
C64 N43 1_555 1_555
C65 H63 1_555 1_555
H64 C65 1_555 1_555
C66 H65 1_555 1_555
H66 C66 1_555 1_555
C67 N45 1_555 1_555
C68 H67 1_555 1_555
C69 C68 1_555 1_555
H68 C69 1_555 1_555
C70 N47 1_555 1_555
C71 H69 1_555 1_555
H70 C71 1_555 1_555
C72 H71 1_555 1_555
H72 C72 1_555 1_555
N1 C2 1_555 1_555
N2 C1 1_555 1_555
N3 C2 1_555 1_555
N4 C3 1_555 1_555
N5 C5 1_555 1_555
N6 C7 1_555 1_555
N7 C6 1_555 1_555
N8 C9 1_555 1_555
N9 C11 1_555 1_555
N10 C13 1_555 1_555
N11 C12 1_555 1_555
N12 C15 1_555 1_555
N13 C17 1_555 1_555
N14 C19 1_555 1_555
N15 C18 1_555 1_555
N16 C21 1_555 1_555
N17 C26 1_555 1_555
N18 C25 1_555 1_555
N19 C26 1_555 1_555
N20 C27 1_555 1_555
N21 C29 1_555 1_555
N22 C31 1_555 1_555
N23 C30 1_555 1_555
N24 C33 1_555 1_555
N25 C35 1_555 1_555
N26 C37 1_555 1_555
N27 C36 1_555 1_555
N28 C39 1_555 1_555
N29 C41 1_555 1_555
N30 C43 1_555 1_555
N31 C42 1_555 1_555
N32 C45 1_555 1_555
N33 C50 1_555 1_555
N34 C49 1_555 1_555
N35 C50 1_555 1_555
N36 C51 1_555 1_555
N37 C53 1_555 1_555
N38 C55 1_555 1_555
N39 C54 1_555 1_555
N40 C57 1_555 1_555
N41 C59 1_555 1_555
N42 C61 1_555 1_555
N43 C60 1_555 1_555
N44 C63 1_555 1_555
N45 C65 1_555 1_555
N46 C67 1_555 1_555
N47 C66 1_555 1_555
N48 C69 1_555 1_555
O12 C1 1_555 1_555
O13 C7 1_555 1_555
O14 C13 1_555 1_555
O15 C19 1_555 1_555
O16 C4 1_555 1_555
O17 C10 1_555 1_555
O18 C16 1_555 1_555
O19 C22 1_555 1_555
O20 C25 1_555 1_555
O21 C31 1_555 1_555
O22 C37 1_555 1_555
O23 Sr1 1_555 1_555
O24 C28 1_555 1_555
O25 C34 1_555 1_555
O26 C40 1_555 1_555
O27 C46 1_555 1_555
O28 C49 1_555 1_555
O29 Sr2 1_555 1_555
O30 C61 1_555 1_555
O31 C67 1_555 1_555
O32 C52 1_555 1_555
O33 C58 1_555 1_555
O34 C64 1_555 1_555
O35 C70 1_555 1_555
O36 Sr1 1_555 1_555
C1A N1A 1_555 1_555
C2A H1A 1_555 1_555
C3A C2A 1_555 1_555
H2A C3A 1_555 1_555
C4A N3A 1_555 1_555
C5A H3A 1_555 1_555
H4A C5A 1_555 1_555
C6A H5A 1_555 1_555
H6A C6A 1_555 1_555
C7A N5A 1_555 1_555
C8A H7A 1_555 1_555
C9A C8A 1_555 1_555
H8A C9A 1_555 1_555
C10A N7A 1_555 1_555
C11A H9A 1_555 1_555
H10A C11A 1_555 1_555
C12A H11A 1_555 1_555
H12A C12A 1_555 1_555
C13A N9A 1_555 1_555
C14A H13A 1_555 1_555
C15A C14A 1_555 1_555
H14A C15A 1_555 1_555
C16A N11A 1_555 1_555
C17A H15A 1_555 1_555
H16A C17A 1_555 1_555
C18A H17A 1_555 1_555
H18A C18A 1_555 1_555
C19A N13A 1_555 1_555
C20A H19A 1_555 1_555
C21A C20A 1_555 1_555
H20A C21A 1_555 1_555
C22A N15A 1_555 1_555
C23A N3 1_555 1_555
H21A C23A 1_555 1_555
H22A C23A 1_555 1_555
C24A N1 1_555 1_555
H23A C24A 1_555 1_555
H24A C24A 1_555 1_555
N1A C24 1_555 1_555
N2A C1A 1_555 1_555
N3A C23 1_555 1_555
N4A C3A 1_555 1_555
N5A C5A 1_555 1_555
N6A C7A 1_555 1_555
N7A C6A 1_555 1_555
N8A C9A 1_555 1_555
N9A C11A 1_555 1_555
N10A C13A 1_555 1_555
N11A C12A 1_555 1_555
N12A C15A 1_555 1_555
N13A C17A 1_555 1_555
N14A C19A 1_555 1_555
N15A C18A 1_555 1_555
N16A C21A 1_555 1_555
O12A C1A 1_555 1_555
O13A C7A 1_555 1_555
O14A C13A 1_555 1_555
O15A C19A 1_555 1_555
O16A C4A 1_555 1_555
O17A C10A 1_555 1_555
O18A C16A 1_555 1_555
O19A C22A 1_555 1_555
C25A N17A 1_555 1_555
C26A H25A 1_555 1_555
C27A C26A 1_555 1_555
H26A C27A 1_555 1_555
C28A N19A 1_555 1_555
C29A H27A 1_555 1_555
H28A C29A 1_555 1_555
C30A H29A 1_555 1_555
H30A C30A 1_555 1_555
C31A N21A 1_555 1_555
C32A H31A 1_555 1_555
C33A C32A 1_555 1_555
H32A C33A 1_555 1_555
C34A N23A 1_555 1_555
C35A H33A 1_555 1_555
H34A C35A 1_555 1_555
C36A H35A 1_555 1_555
H36A C36A 1_555 1_555
C37A N25A 1_555 1_555
C38A H37A 1_555 1_555
C39A C38A 1_555 1_555
H38A C39A 1_555 1_555
C40A N27A 1_555 1_555
C41A H39A 1_555 1_555
H40A C41A 1_555 1_555
C42A H41A 1_555 1_555
H42A C42A 1_555 1_555
C43A N29A 1_555 1_555
C44A H43A 1_555 1_555
C45A C44A 1_555 1_555
H44A C45A 1_555 1_555
C46A N31A 1_555 1_555
C47A N19 1_555 1_555
H45A C47A 1_555 1_555
H46A C47A 1_555 1_555
C48A N17 1_555 1_555
H47A C48A 1_555 1_555
H48A C48A 1_555 1_555
N17A C48 1_555 1_555
N18A C25A 1_555 1_555
N19A C47 1_555 1_555
N20A C27A 1_555 1_555
N21A C29A 1_555 1_555
N22A C31A 1_555 1_555
N23A C30A 1_555 1_555
N24A C33A 1_555 1_555
N25A C35A 1_555 1_555
N26A C37A 1_555 1_555
N27A C36A 1_555 1_555
N28A C39A 1_555 1_555
N29A C41A 1_555 1_555
N30A C43A 1_555 1_555
N31A C42A 1_555 1_555
N32A C45A 1_555 1_555
O20A C25A 1_555 1_555
O21A C31A 1_555 1_555
O22A C37A 1_555 1_555
O23A C43A 1_555 1_555
O24A Sr1 1_555 1_555
O25A C34A 1_555 1_555
O26A C40A 1_555 1_555
O27A C46A 1_555 1_555
C49A N33A 1_555 1_555
C50A H49A 1_555 1_555
C51A C50A 1_555 1_555
H50A C51A 1_555 1_555
C52A N35A 1_555 1_555
C53A H51A 1_555 1_555
H52A C53A 1_555 1_555
C54A H53A 1_555 1_555
H54A C54A 1_555 1_555
C55A N37A 1_555 1_555
C56A H55A 1_555 1_555
C57A C56A 1_555 1_555
H56A C57A 1_555 1_555
C58A N39A 1_555 1_555
C59A H57A 1_555 1_555
H58A C59A 1_555 1_555
C60A H59A 1_555 1_555
H60A C60A 1_555 1_555
C61A N41A 1_555 1_555
C62A H61A 1_555 1_555
C63A C62A 1_555 1_555
H62A C63A 1_555 1_555
C64A N43A 1_555 1_555
C65A H63A 1_555 1_555
H64A C65A 1_555 1_555
C66A H65A 1_555 1_555
H66A C66A 1_555 1_555
C67A N45A 1_555 1_555
C68A H67A 1_555 1_555
C69A C68A 1_555 1_555
H68A C69A 1_555 1_555
C70A N47A 1_555 1_555
C71A N46 1_555 1_555
H69A C71A 1_555 1_555
H70A C71A 1_555 1_555
C72A N33 1_555 1_555
H71A C72A 1_555 1_555
H72A C72A 1_555 1_555
N33A C72 1_555 1_555
N34A C49A 1_555 1_555
N35A C50A 1_555 1_555
N36A C51A 1_555 1_555
N37A C53A 1_555 1_555
N38A C55A 1_555 1_555
N39A C54A 1_555 1_555
N40A C57A 1_555 1_555
N41A C59A 1_555 1_555
N42A C61A 1_555 1_555
N43A C60A 1_555 1_555
N44A C63A 1_555 1_555
N45A C65A 1_555 1_555
N46A C71 1_555 1_555
N47A C66A 1_555 1_555
N48A C69A 1_555 1_555
O28A C49A 1_555 1_555
O29A C55A 1_555 1_555
O30A C61A 1_555 1_555
O31A C67A 1_555 1_555
O32A C52A 1_555 1_555
O33A C58A 1_555 1_555
O34A C64A 1_555 1_555
O35A C70A 1_555 1_555
O3A Sr1A 1_555 1_555
O4A Sr1A 1_555 1_555
O5A Sr1A 1_555 1_555
O6A Sr1A 1_555 1_555
Sr1A O13A 1_555 1_555
O36A Sr1A 1_555 1_555
O2A Sr2A 1_555 1_555
O7A Sr2A 1_555 1_555
O8A Sr2A 1_555 1_555
O9A Sr2A 1_555 1_555
O10A Sr2A 1_555 1_555
O11A Sr2A 1_555 1_555
Sr2A O26A 1_555 1_555
Sr1A_2 O24 1_555 1_555
Sr2A_2 O29A 1_555 1_555
O23A_2 Sr1A 1_555 1_555
O24_2 Sr1A 1_555 1_555
O29A_2 Sr2A 1_555 1_555
C3 N2 1_555 1_555
C4 N4 1_555 1_555
C5 N2 1_555 1_555
C6 N4 1_555 1_555
C8 N5 1_555 1_555
C8 N7 1_555 1_555
C9 N6 1_555 1_555
C10 N8 1_555 1_555
C11 N6 1_555 1_555
C12 N8 1_555 1_555
C14 N9 1_555 1_555
C14 N11 1_555 1_555
C15 N10 1_555 1_555
C16 N12 1_555 1_555
C17 N10 1_555 1_555
C18 N12 1_555 1_555
C20 N13 1_555 1_555
C20 N15 1_555 1_555
C21 N14 1_555 1_555
C22 N16 1_555 1_555
C23 N14 1_555 1_555
C24 N16 1_555 1_555
C27 N18 1_555 1_555
C28 N20 1_555 1_555
C29 N18 1_555 1_555
C30 N20 1_555 1_555
C32 N21 1_555 1_555
C32 N23 1_555 1_555
C33 N22 1_555 1_555
C34 N24 1_555 1_555
C35 N22 1_555 1_555
C36 N24 1_555 1_555
C38 N25 1_555 1_555
C38 N27 1_555 1_555
C39 N26 1_555 1_555
C40 N28 1_555 1_555
C41 N26 1_555 1_555
C42 N28 1_555 1_555
C43 O23 1_555 1_555
C44 N29 1_555 1_555
C44 N31 1_555 1_555
C45 N30 1_555 1_555
C46 N32 1_555 1_555
C47 N30 1_555 1_555
C48 N32 1_555 1_555
C51 N34 1_555 1_555
C52 N36 1_555 1_555
C53 N34 1_555 1_555
C54 N36 1_555 1_555
C55 O29 1_555 1_555
C56 N37 1_555 1_555
C56 N39 1_555 1_555
C57 N38 1_555 1_555
C58 N40 1_555 1_555
C59 N38 1_555 1_555
C60 N40 1_555 1_555
C62 N41 1_555 1_555
C62 N43 1_555 1_555
C63 N42 1_555 1_555
C64 N44 1_555 1_555
C65 N42 1_555 1_555
C66 N44 1_555 1_555
C68 N45 1_555 1_555
C68 N47 1_555 1_555
C69 N46 1_555 1_555
C70 N48 1_555 1_555
C71 N35 1_555 1_555
C72 N48 1_555 1_555
C2A N1A 1_555 1_555
C2A N3A 1_555 1_555
C3A N2A 1_555 1_555
C4A N4A 1_555 1_555
C5A N2A 1_555 1_555
C6A N4A 1_555 1_555
C8A N5A 1_555 1_555
C8A N7A 1_555 1_555
C9A N6A 1_555 1_555
C10A N8A 1_555 1_555
C11A N6A 1_555 1_555
C12A N8A 1_555 1_555
C14A N9A 1_555 1_555
C14A N11A 1_555 1_555
C15A N10A 1_555 1_555
C16A N12A 1_555 1_555
C17A N10A 1_555 1_555
C18A N12A 1_555 1_555
C20A N13A 1_555 1_555
C20A N15A 1_555 1_555
C21A N14A 1_555 1_555
C22A N16A 1_555 1_555
C23A N14A 1_555 1_555
C24A N16A 1_555 1_555
C26A N17A 1_555 1_555
C26A N19A 1_555 1_555
C27A N18A 1_555 1_555
C28A N20A 1_555 1_555
C28A O24A 1_555 1_555
C29A N18A 1_555 1_555
C30A N20A 1_555 1_555
C32A N21A 1_555 1_555
C32A N23A 1_555 1_555
C33A N22A 1_555 1_555
C34A N24A 1_555 1_555
C35A N22A 1_555 1_555
C36A N24A 1_555 1_555
C38A N25A 1_555 1_555
C38A N27A 1_555 1_555
C39A N26A 1_555 1_555
C40A N28A 1_555 1_555
C41A N26A 1_555 1_555
C42A N28A 1_555 1_555
C44A N29A 1_555 1_555
C44A N31A 1_555 1_555
C45A N30A 1_555 1_555
C46A N32A 1_555 1_555
C47A N30A 1_555 1_555
C48A N32A 1_555 1_555
O23A Sr1A_2 1_555 1_555
C50A N33A 1_555 1_555
C51A N34A 1_555 1_555
C52A N36A 1_555 1_555
C53A N34A 1_555 1_555
C54A N36A 1_555 1_555
C56A N37A 1_555 1_555
C56A N39A 1_555 1_555
C57A N38A 1_555 1_555
C58A N40A 1_555 1_555
C59A N38A 1_555 1_555
C60A N40A 1_555 1_555
C62A N41A 1_555 1_555
C62A N43A 1_555 1_555
C63A N42A 1_555 1_555
C64A N44A 1_555 1_555
C65A N42A 1_555 1_555
C66A N44A 1_555 1_555
C67A N46A 1_555 1_555
C68A N45A 1_555 1_555
C68A N47A 1_555 1_555
C69A N46A 1_555 1_555
C70A N48A 1_555 1_555
C71A N35A 1_555 1_555
C72A N48A 1_555 1_555

#END
