
#######################################################################
#
#                 Cambridge Crystallographic Data Centre
#                                CCDC 
#
#######################################################################
#
# If this CIF has been generated from an entry in the Cambridge 
# Structural Database, then it will include bibliographic, chemical, 
# crystal, experimental, refinement or atomic coordinate data resulting 
# from the CCDC's data processing and validation procedures.
#
#######################################################################

data_ZIKCON
_symmetry_cell_setting           orthorhombic
_symmetry_space_group_name_H-M   'P 21 21 21'
_symmetry_Int_Tables_number      19
_space_group_name_Hall           'P 2ac 2ab'
loop_
_symmetry_equiv_pos_site_id
_symmetry_equiv_pos_as_xyz
1 x,y,z
2 1/2-x,-y,1/2+z
3 -x,1/2+y,1/2-z
4 1/2+x,1/2-y,-z
_cell_length_a                   4.8485(12)
_cell_length_b                   14.079(4)
_cell_length_c                   17.186(4)
_cell_angle_alpha                90
_cell_angle_beta                 90
_cell_angle_gamma                90
_cell_volume                     1173.15
loop_
_atom_site_label
_atom_site_type_symbol
_atom_site_fract_x
_atom_site_fract_y
_atom_site_fract_z
Sr1 Sr 0.2212(2) 0.34953(6) 0.60804(5)
O1 O 0.7329(18) 0.0856(5) 0.6808(4)
H1 H 0.6747 0.0427 0.7085
N1 N 0.0509(19) 0.1270(6) 0.8356(5)
O2 O 0.5941(17) 0.2253(5) 0.6395(5)
C1 C 0.564(2) 0.1562(8) 0.6828(6)
C2 C 0.257(2) 0.0867(6) 0.7937(5)
C3 C -0.375(2) 0.2625(7) 0.8983(6)
H2 H -0.4353 0.1998 0.9002
C4 C 0.3375(19) 0.1549(7) 0.7402(5)
C5 C 0.013(2) 0.2169(7) 0.8093(6)
N2 N 0.1819(19) 0.2356(6) 0.7494(5)
C6 C -0.503(2) 0.3315(8) 0.9440(6)
H3 H -0.6455 0.3142 0.9773
C7 C -0.159(2) 0.2879(7) 0.8500(6)
O3 O 0.2362(18) -0.0641(5) 0.8555(4)
O4 O 0.6014(17) -0.0316(5) 0.7827(5)
C8 C -0.548(2) 0.4988(8) 0.9931(6)
C9 C -0.208(3) 0.4507(7) 0.8901(7)
H4 H -0.1516 0.5137 0.8868
C10 C -0.083(2) 0.3829(8) 0.8452(7)
H5 H 0.0559 0.4007 0.8108
C11 C 0.367(2) -0.0102(7) 0.8113(6)
C12 C -0.420(2) 0.4254(7) 0.9405(6)
O5 O -0.7176(18) 0.4730(5) 1.0454(4)
O6 O -0.4802(18) 0.5848(5) 0.9841(5)
O7 O 0.0243(18) 0.1949(6) 0.5298(5)
H6 H -0.1058 0.1705 0.5562
H7 H 0.0885 0.1418 0.5147
H8 H -0.06(3) 0.098(9) 0.869(7)
Sr1A Sr -0.7212(2) 0.65047(6) 1.10804(5)
Sr1B Sr -0.2212(2) -0.15047(6) 0.89196(5)
Sr1B_2 Sr 0.7788(2) -0.15047(6) 0.89196(5)
Sr1C Sr -0.2788(2) 0.15047(6) 0.39196(5)
O3B O -0.2362(18) 0.4359(5) 0.6445(4)
O3B_2 O 0.7638(18) 0.4359(5) 0.6445(4)
O4B O 0.3986(17) 0.4684(5) 0.7173(5)
O5A O 0.2176(18) 0.5270(5) 0.5454(4)
O6A O -0.0198(18) 0.4152(5) 0.4841(5)
O7C O 0.5243(18) 0.3051(6) 0.4702(5)
loop_
_geom_bond_atom_site_label_1
_geom_bond_atom_site_label_2
_geom_bond_site_symmetry_1
_geom_bond_site_symmetry_2
Sr1 O2 1_555 1_555
O1 H1 1_555 1_555
N1 C2 1_555 1_555
O2 C1 1_555 1_555
C1 O1 1_555 1_555
C2 C4 1_555 1_555
C3 H2 1_555 1_555
C4 C1 1_555 1_555
C5 N1 1_555 1_555
N2 Sr1 1_555 1_555
C6 C3 1_555 1_555
H3 C6 1_555 1_555
C7 C3 1_555 1_555
O3 C11 1_555 1_555
O4 C11 1_555 1_555
C8 C12 1_555 1_555
C9 H4 1_555 1_555
C10 C7 1_555 1_555
H5 C10 1_555 1_555
C11 C2 1_555 1_555
C12 C6 1_555 1_555
O5 C8 1_555 1_555
O6 C8 1_555 1_555
O7 Sr1 1_555 1_555
H6 O7 1_555 1_555
H7 O7 1_555 1_555
H8 N1 1_555 1_555
Sr1A O5 1_555 1_555
Sr1B O3 1_555 1_555
Sr1B_2 O3 1_555 1_555
Sr1C O7 1_555 1_555
O3B Sr1 1_555 1_555
O3B_2 Sr1 1_555 1_555
O4B Sr1 1_555 1_555
O5A Sr1 1_555 1_555
O6A Sr1 1_555 1_555
O7C Sr1 1_555 1_555
C4 N2 1_555 1_555
C5 N2 1_555 1_555
C5 C7 1_555 1_555
O4 Sr1B_2 1_555 1_555
C9 C10 1_555 1_555
C9 C12 1_555 1_555
O6 Sr1A 1_555 1_555

#END
