
#######################################################################
#
#                 Cambridge Crystallographic Data Centre
#                                CCDC 
#
#######################################################################
#
# If this CIF has been generated from an entry in the Cambridge 
# Structural Database, then it will include bibliographic, chemical, 
# crystal, experimental, refinement or atomic coordinate data resulting 
# from the CCDC's data processing and validation procedures.
#
#######################################################################

data_ZIKCIH
_symmetry_cell_setting           triclinic
_symmetry_space_group_name_H-M   'P -1'
_symmetry_Int_Tables_number      2
_space_group_name_Hall           '-P 1'
loop_
_symmetry_equiv_pos_site_id
_symmetry_equiv_pos_as_xyz
1 x,y,z
2 -x,-y,-z
_cell_length_a                   10.1907(4)
_cell_length_b                   10.2746(4)
_cell_length_c                   13.2039(6)
_cell_angle_alpha                80.3210(10)
_cell_angle_beta                 81.0010(10)
_cell_angle_gamma                66.2780(10)
_cell_volume                     1241.64
loop_
_atom_site_label
_atom_site_type_symbol
_atom_site_fract_x
_atom_site_fract_y
_atom_site_fract_z
Ni1 Ni 0.95135(3) 0.26422(4) 0.56604(2)
O1 O 0.6345(2) 0.3368(2) 0.49879(16)
O2 O 0.80793(19) 0.1711(2) 0.58814(14)
O3 O 0.1475(2) 0.0882(2) 0.58476(16)
O4 O 0.1450(2) 0.3047(2) 0.54877(14)
O5 O 0.5863(3) -0.6598(3) 1.2298(2)
O6 O 0.6154(4) -0.5109(3) 1.31945(19)
H1 H 0.6199 -0.5744 1.3672
O7 O 0.6846(3) -0.0647(3) 0.87996(18)
N1 N 0.5796(3) -0.1628(3) 0.7904(2)
N2 N 0.9775(2) 0.2568(3) 0.40699(17)
N3 N 0.9345(3) 0.2569(3) -0.26857(18)
N4 N 0.9367(3) 0.1962(3) 0.0551(2)
N5 N 0.9885(3) 0.2701(3) 0.08669(19)
C1 C 0.5902(3) 0.1389(3) 0.5935(2)
C2 C 0.6363(3) 0.0199(3) 0.6667(2)
H2 H 0.7282 -0.0133 0.6878
C3 C 0.5439(3) -0.0490(3) 0.7080(2)
C4 C 0.4099(3) -0.0039(3) 0.6719(2)
H3 H 0.3505 -0.0535 0.6966
C5 C 0.3647(3) 0.1151(3) 0.5993(2)
C6 C 0.4535(3) 0.1882(3) 0.5610(2)
H4 H 0.4218 0.2698 0.5139
C7 C 0.6331(3) -0.2632(3) 0.9661(2)
C8 C 0.6144(4) -0.2219(4) 1.0629(3)
H5 H 0.6081 -0.1307 1.0693
C9 C 0.6046(4) -0.3133(4) 1.1512(3)
H6 H 0.5905 -0.2835 1.2162
C10 C 0.6164(3) -0.4503(3) 1.1412(2)
C11 C 0.6386(4) -0.4939(4) 1.0441(3)
H7 H 0.6480 -0.5861 1.0377
C12 C 0.6468(4) -0.4015(4) 0.9567(2)
H8 H 0.6615 -0.4314 0.8917
C13 C 0.6845(3) 0.2217(3) 0.55580(19)
C14 C 0.2128(3) 0.1705(3) 0.5738(2)
C15 C 0.6037(4) -0.5522(4) 1.2339(3)
C16 C 0.6371(3) -0.1547(3) 0.8755(2)
C17 C 0.9457(3) 0.1608(3) 0.3691(2)
H9 H 0.9215 0.0933 0.4154
C18 C 0.9470(3) 0.1569(3) 0.2655(2)
H10 H 0.9224 0.0898 0.2424
C19 C 0.9858(3) 0.2553(3) 0.1965(2)
C20 C 1.0251(4) 0.3509(4) 0.2341(2)
H11 H 1.0557 0.4153 0.1891
C21 C 1.0181(4) 0.3490(4) 0.3390(2)
H12 H 1.0428 0.4148 0.3639
C22 C 0.9403(4) 0.2168(4) -0.0556(2)
C23 C 0.8483(3) 0.1809(3) -0.09912(17)
H13 H 0.7871 0.1420 -0.0580
C24 C 0.8476(3) 0.2034(3) -0.20542(17)
H14 H 0.7833 0.1804 -0.2344
C25 C 1.0239(4) 0.2905(4) -0.2239(2)
H15 H 1.0854 0.3278 -0.2662
C26 C 1.0302(4) 0.2731(4) -0.1190(3)
H16 H 1.0938 0.2987 -0.0915
O8 O 0.7927(2) 0.4683(2) 0.55295(16)
Ni1_2 Ni -0.04865(3) 0.26422(4) 0.56604(2)
Ni1_3 Ni 0.95135(3) 0.26422(4) -0.43396(2)
O3_2 O 1.1475(2) 0.0882(2) 0.58476(16)
O4_2 O 1.1450(2) 0.3047(2) 0.54877(14)
N3_2 N 0.9345(3) 0.2569(3) 0.73143(18)
loop_
_geom_bond_atom_site_label_1
_geom_bond_atom_site_label_2
_geom_bond_site_symmetry_1
_geom_bond_site_symmetry_2
Ni1 O2 1_555 1_555
O1 C13 1_555 1_555
O2 C13 1_555 1_555
O3 C14 1_555 1_555
O4 C14 1_555 1_555
O5 C15 1_555 1_555
O6 H1 1_555 1_555
O7 C16 1_555 1_555
N1 C3 1_555 1_555
N2 Ni1 1_555 1_555
N3 C24 1_555 1_555
N4 N5 1_555 1_555
N5 C19 1_555 1_555
C1 C2 1_555 1_555
C2 H2 1_555 1_555
C3 C2 1_555 1_555
C4 C3 1_555 1_555
H3 C4 1_555 1_555
C5 C4 1_555 1_555
C6 C1 1_555 1_555
H4 C6 1_555 1_555
C7 C8 1_555 1_555
C8 H5 1_555 1_555
C9 C8 1_555 1_555
H6 C9 1_555 1_555
C10 C9 1_555 1_555
C11 C10 1_555 1_555
H7 C11 1_555 1_555
C12 C7 1_555 1_555
H8 C12 1_555 1_555
C13 C1 1_555 1_555
C14 C5 1_555 1_555
C15 O6 1_555 1_555
C16 N1 1_555 1_555
C17 N2 1_555 1_555
H9 C17 1_555 1_555
C18 C17 1_555 1_555
H10 C18 1_555 1_555
C19 C18 1_555 1_555
C20 C19 1_555 1_555
H11 C20 1_555 1_555
C21 N2 1_555 1_555
H12 C21 1_555 1_555
C22 N4 1_555 1_555
C23 C22 1_555 1_555
H13 C23 1_555 1_555
C24 C23 1_555 1_555
H14 C24 1_555 1_555
C25 N3 1_555 1_555
H15 C25 1_555 1_555
C26 C22 1_555 1_555
H16 C26 1_555 1_555
O8 Ni1 1_555 1_555
Ni1_2 O3 1_555 1_555
Ni1_3 N3 1_555 1_555
O3_2 Ni1 1_555 1_555
O4_2 Ni1 1_555 1_555
N3_2 Ni1 1_555 1_555
O4 Ni1_2 1_555 1_555
C5 C6 1_555 1_555
C7 C16 1_555 1_555
C10 C15 1_555 1_555
C11 C12 1_555 1_555
C20 C21 1_555 1_555
C25 C26 1_555 1_555

#END
