
#######################################################################
#
#                 Cambridge Crystallographic Data Centre
#                                CCDC 
#
#######################################################################
#
# If this CIF has been generated from an entry in the Cambridge 
# Structural Database, then it will include bibliographic, chemical, 
# crystal, experimental, refinement or atomic coordinate data resulting 
# from the CCDC's data processing and validation procedures.
#
#######################################################################

data_ZIKCUT
_symmetry_cell_setting           monoclinic
_symmetry_space_group_name_H-M   'P 21/n'
_symmetry_Int_Tables_number      14
_space_group_name_Hall           '-P 2yn'
loop_
_symmetry_equiv_pos_site_id
_symmetry_equiv_pos_as_xyz
1 x,y,z
2 1/2-x,1/2+y,1/2-z
3 -x,-y,-z
4 1/2+x,1/2-y,1/2+z
_cell_length_a                   4.3052(4)
_cell_length_b                   19.6847(19)
_cell_length_c                   13.8025(13)
_cell_angle_alpha                90
_cell_angle_beta                 91.6560(10)
_cell_angle_gamma                90
_cell_volume                     1169.23
loop_
_atom_site_label
_atom_site_type_symbol
_atom_site_fract_x
_atom_site_fract_y
_atom_site_fract_z
Sr1 Sr 1.07415(6) 0.608800(13) 1.022806(18)
N1 N 0.9549(5) 0.67543(11) 0.83860(15)
N2 N 0.9053(6) 0.72218(12) 0.69298(17)
C1 C 0.6264(7) 0.61316(14) 0.7134(2)
C2 C 1.1242(6) 0.73470(14) 0.8356(2)
C3 C 0.5653(6) 0.55522(14) 0.76798(19)
C4 C 0.6701(7) 0.54586(14) 0.87246(19)
C5 C 1.0939(7) 0.76411(14) 0.7450(2)
C6 C 0.8260(7) 0.66867(14) 0.74989(19)
C7 C 0.3941(8) 0.50257(17) 0.7266(2)
C8 C 0.5020(8) 0.61681(18) 0.6188(2)
C9 C 0.2752(9) 0.50706(19) 0.6327(2)
C10 C 0.3274(9) 0.5649(2) 0.5799(2)
O1 O 0.5454(5) 0.58120(11) 0.93661(14)
O2 O 1.2236(6) 0.73542(11) 1.00315(15)
O3 O 0.8794(5) 0.50344(10) 0.89177(14)
O4 O 1.4606(6) 0.81348(12) 0.91794(18)
H1 H 1.4602 0.8268 0.8616
O5 O 1.1162(6) 0.84784(12) 0.62275(16)
O6 O 1.4533(5) 0.85386(12) 0.7472(2)
C11 C 1.2767(8) 0.76163(15) 0.9245(2)
C12 C 1.2283(7) 0.82621(15) 0.7018(2)
H2 H 0.859(7) 0.7293(16) 0.633(2)
H3 H 0.157(9) 0.4704(19) 0.607(3)
H4 H 0.348(8) 0.465(2) 0.766(3)
H5 H 0.566(9) 0.6598(19) 0.583(3)
H6 H 0.261(10) 0.570(2) 0.521(3)
Sr1_2 Sr 0.07415(6) 0.608800(13) 1.022806(18)
Sr1B Sr 0.92585(6) 0.391200(13) 0.977194(18)
Sr1C Sr 0.57415(6) 0.891200(13) 0.522806(18)
Sr1C_2 Sr 1.57415(6) 0.891200(13) 0.522806(18)
O1_2 O 1.5454(5) 0.58120(11) 0.93661(14)
O3B O 1.1206(5) 0.49656(10) 1.10823(14)
O5C O 0.6162(6) 0.65216(12) 1.12275(16)
O5C_2 O 1.6162(6) 0.65216(12) 1.12275(16)
loop_
_geom_bond_atom_site_label_1
_geom_bond_atom_site_label_2
_geom_bond_site_symmetry_1
_geom_bond_site_symmetry_2
Sr1 N1 1_555 1_555
N1 C2 1_555 1_555
N2 C5 1_555 1_555
C1 C3 1_555 1_555
C2 C5 1_555 1_555
C3 C4 1_555 1_555
C4 O1 1_555 1_555
C5 C12 1_555 1_555
C6 N1 1_555 1_555
C7 C3 1_555 1_555
C8 C1 1_555 1_555
C9 C7 1_555 1_555
C10 C8 1_555 1_555
O1 Sr1 1_555 1_555
O2 Sr1 1_555 1_555
O3 Sr1 1_555 1_555
O4 H1 1_555 1_555
O5 C12 1_555 1_555
O6 C12 1_555 1_555
C11 C2 1_555 1_555
H2 N2 1_555 1_555
H3 C9 1_555 1_555
H4 C7 1_555 1_555
H5 C8 1_555 1_555
H6 C10 1_555 1_555
Sr1_2 O1 1_555 1_555
Sr1B O3 1_555 1_555
Sr1C O5 1_555 1_555
Sr1C_2 O5 1_555 1_555
O1_2 Sr1 1_555 1_555
O3B Sr1 1_555 1_555
O5C Sr1 1_555 1_555
O5C_2 Sr1 1_555 1_555
N2 C6 1_555 1_555
C1 C6 1_555 1_555
C4 O3 1_555 1_555
C9 C10 1_555 1_555
O2 C11 1_555 1_555
O4 C11 1_555 1_555
Sr1_2 O5C 1_555 1_555
Sr1B O3B 1_555 1_555

#END
