
#######################################################################
#
#                 Cambridge Crystallographic Data Centre
#                                CCDC 
#
#######################################################################
#
# If this CIF has been generated from an entry in the Cambridge 
# Structural Database, then it will include bibliographic, chemical, 
# crystal, experimental, refinement or atomic coordinate data resulting 
# from the CCDC's data processing and validation procedures.
#
#######################################################################

data_ZIKDII
_symmetry_cell_setting           orthorhombic
_symmetry_space_group_name_H-M   'P 21 21 2'
_symmetry_Int_Tables_number      18
_space_group_name_Hall           'P 2 2ab'
loop_
_symmetry_equiv_pos_site_id
_symmetry_equiv_pos_as_xyz
1 x,y,z
2 -x,-y,z
3 1/2-x,1/2+y,-z
4 1/2+x,1/2-y,-z
_cell_length_a                   14.6401(8)
_cell_length_b                   9.7411(5)
_cell_length_c                   11.2213(6)
_cell_angle_alpha                90
_cell_angle_beta                 90
_cell_angle_gamma                90
_cell_volume                     1600.28
loop_
_atom_site_label
_atom_site_type_symbol
_atom_site_fract_x
_atom_site_fract_y
_atom_site_fract_z
C1 C 0.8322(3) -0.0284(5) 0.9463(4)
C2 C 0.8014(3) -0.0152(5) 0.8301(4)
C3 C 0.9131(3) 0.1261(5) 0.8565(4)
C4 C 1.1368(3) 0.3496(5) 0.5856(4)
C5 C 1.0964(3) 0.3352(5) 0.7096(4)
C6 C 1.1318(3) 0.4054(5) 0.8054(4)
H1 H 1.1823 0.4622 0.7954
C7 C 1.0919(4) 0.3911(5) 0.9174(5)
H2 H 1.1140 0.4412 0.9818
C8 C 1.0196(3) 0.3024(5) 0.9325(4)
H3 H 0.9931 0.2926 1.0074
C9 C 0.9859(3) 0.2277(5) 0.8371(4)
C10 C 1.0235(3) 0.2450(5) 0.7259(4)
H4 H 1.0002 0.1965 0.6614
C11 C 0.7283(3) -0.0885(5) 0.7659(5)
C12 C 0.8072(3) -0.1208(5) 1.0435(4)
Cd1 Cd 1.0000 0.0000 1.11114(4)
Cd2 Cd 0.80065(2) 0.13219(3) 0.58737(3)
N1 N 0.8529(2) 0.0821(4) 0.7735(3)
N2 N 0.9031(3) 0.0607(4) 0.9617(3)
O1 O 0.8547(2) -0.1217(4) 1.1356(3)
O2 O 0.7365(3) -0.1985(4) 1.0318(3)
O3 O 1.2163(2) 0.4014(4) 0.5797(3)
O4 O 0.7150(3) -0.0607(4) 0.6581(3)
O5 O 0.6817(3) -0.1773(4) 0.8241(3)
O6 O 1.0889(3) 0.3129(4) 0.4996(3)
O7 O 0.9470(2) 0.1428(4) 1.2540(3)
O8 O 0.9053(2) -0.0082(4) 0.4817(3)
O9 O 0.8928(3) 0.2971(4) 0.4983(4)
O10 O 0.7333(2) 0.3302(3) 0.6521(3)
H5 H 0.9472 0.1442 1.3290
H6 H 0.9845 0.2103 1.2465
H7 H 0.8878 -0.0931 0.4795
H8 H 0.9513 -0.0253 0.5258
H9 H 0.8729 0.3344 0.4342
H10 H 0.9492 0.3129 0.4817
H11 H 0.7023 0.3411 0.7161
H12 H 0.7454 0.4148 0.6418
C1A C 1.1678(3) 0.0284(5) 0.9463(4)
C2A C 1.1986(3) 0.0152(5) 0.8301(4)
C3A C 1.0869(3) -0.1261(5) 0.8565(4)
C4A C 0.8632(3) -0.3496(5) 0.5856(4)
C5A C 0.9036(3) -0.3352(5) 0.7096(4)
C6A C 0.8682(3) -0.4054(5) 0.8054(4)
H1A H 0.8177 -0.4622 0.7954
C7A C 0.9081(4) -0.3911(5) 0.9174(5)
H2A H 0.8860 -0.4412 0.9818
C8A C 0.9804(3) -0.3024(5) 0.9325(4)
H3A H 1.0069 -0.2926 1.0074
C9A C 1.0141(3) -0.2277(5) 0.8371(4)
C10A C 0.9765(3) -0.2450(5) 0.7259(4)
H4A H 0.9998 -0.1965 0.6614
C11A C 1.2717(3) 0.0885(5) 0.7659(5)
C12A C 1.1928(3) 0.1208(5) 1.0435(4)
Cd2A Cd 1.19935(2) -0.13219(3) 0.58737(3)
N1A N 1.1471(2) -0.0821(4) 0.7735(3)
N2A N 1.0969(3) -0.0607(4) 0.9617(3)
O1A O 1.1453(2) 0.1217(4) 1.1356(3)
O2A O 1.2635(3) 0.1985(4) 1.0318(3)
O3A O 0.7837(2) -0.4014(4) 0.5797(3)
O4A O 1.2850(3) 0.0607(4) 0.6581(3)
O5A O 1.3183(3) 0.1773(4) 0.8241(3)
O6A O 0.9111(3) -0.3129(4) 0.4996(3)
O7A O 1.0530(2) -0.1428(4) 1.2540(3)
O8A O 1.0947(2) 0.0082(4) 0.4817(3)
O9A O 1.1072(3) -0.2971(4) 0.4983(4)
O10A O 1.2667(2) -0.3302(3) 0.6521(3)
H5A H 1.0528 -0.1442 1.3290
H6A H 1.0155 -0.2103 1.2465
H7A H 1.1122 0.0931 0.4795
H8A H 1.0487 0.0253 0.5258
H9A H 1.1271 -0.3344 0.4342
H10A H 1.0508 -0.3129 0.4817
H11A H 1.2977 -0.3411 0.7161
H12A H 1.2546 -0.4148 0.6418
Cd2B Cd 0.69935(2) -0.36781(3) 0.41263(3)
Cd2C Cd 1.30065(2) 0.36781(3) 0.41263(3)
O3B O 1.2837(2) -0.0986(4) 0.4203(3)
O3C O 0.7163(2) 0.0986(4) 0.4203(3)
O11 O 0.4446(3) 0.8768(4) 0.7399(3)
H13 H 0.4768 0.9123 0.7936
H14 H 0.4487 0.9418 0.6910
loop_
_geom_bond_atom_site_label_1
_geom_bond_atom_site_label_2
_geom_bond_site_symmetry_1
_geom_bond_site_symmetry_2
C1 C2 1_555 1_555
C2 C11 1_555 1_555
C3 C9 1_555 1_555
C4 C5 1_555 1_555
C5 C6 1_555 1_555
C6 H1 1_555 1_555
C7 C6 1_555 1_555
H2 C7 1_555 1_555
C8 C7 1_555 1_555
H3 C8 1_555 1_555
C9 C8 1_555 1_555
C10 C5 1_555 1_555
H4 C10 1_555 1_555
C11 O4 1_555 1_555
C12 C1 1_555 1_555
Cd1 N2 1_555 1_555
Cd2 N1 1_555 1_555
N1 C2 1_555 1_555
N2 C1 1_555 1_555
O1 C12 1_555 1_555
O2 C12 1_555 1_555
O3 C4 1_555 1_555
O4 Cd2 1_555 1_555
O5 C11 1_555 1_555
O6 C4 1_555 1_555
O7 Cd1 1_555 1_555
O8 Cd2 1_555 1_555
O9 Cd2 1_555 1_555
O10 Cd2 1_555 1_555
H5 O7 1_555 1_555
H6 O7 1_555 1_555
H7 O8 1_555 1_555
H8 O8 1_555 1_555
H9 O9 1_555 1_555
H10 O9 1_555 1_555
H11 O10 1_555 1_555
H12 O10 1_555 1_555
O11 H13 1_555 1_555
H14 O11 1_555 1_555
C1A C2A 1_555 1_555
C2A C11A 1_555 1_555
C3A C9A 1_555 1_555
C4A C5A 1_555 1_555
C5A C6A 1_555 1_555
C6A H1A 1_555 1_555
C7A C6A 1_555 1_555
H2A C7A 1_555 1_555
C8A C7A 1_555 1_555
H3A C8A 1_555 1_555
C9A C8A 1_555 1_555
C10A C5A 1_555 1_555
H4A C10A 1_555 1_555
C11A O4A 1_555 1_555
C12A C1A 1_555 1_555
Cd2A N1A 1_555 1_555
N1A C2A 1_555 1_555
N2A Cd1 1_555 1_555
O1A Cd1 1_555 1_555
O2A C12A 1_555 1_555
O3A C4A 1_555 1_555
O4A Cd2A 1_555 1_555
O5A C11A 1_555 1_555
O6A C4A 1_555 1_555
O7A Cd1 1_555 1_555
O8A Cd2A 1_555 1_555
O9A Cd2A 1_555 1_555
O10A Cd2A 1_555 1_555
H5A O7A 1_555 1_555
H6A O7A 1_555 1_555
H7A O8A 1_555 1_555
H8A O8A 1_555 1_555
H9A O9A 1_555 1_555
H10A O9A 1_555 1_555
H11A O10A 1_555 1_555
H12A O10A 1_555 1_555
Cd2B O3A 1_555 1_555
Cd2C O3 1_555 1_555
O3B Cd2A 1_555 1_555
O3C Cd2 1_555 1_555
C3 N1 1_555 1_555
C3 N2 1_555 1_555
C9 C10 1_555 1_555
Cd1 O1 1_555 1_555
C1A N2A 1_555 1_555
C3A N1A 1_555 1_555
C3A N2A 1_555 1_555
C9A C10A 1_555 1_555
C12A O1A 1_555 1_555

#END
