
#######################################################################
#
#                 Cambridge Crystallographic Data Centre
#                                CCDC 
#
#######################################################################
#
# If this CIF has been generated from an entry in the Cambridge 
# Structural Database, then it will include bibliographic, chemical, 
# crystal, experimental, refinement or atomic coordinate data resulting 
# from the CCDC's data processing and validation procedures.
#
#######################################################################

data_ZIKDEE
_symmetry_cell_setting           monoclinic
_symmetry_space_group_name_H-M   'C 2/c'
_symmetry_Int_Tables_number      15
_space_group_name_Hall           '-C 2yn'
loop_
_symmetry_equiv_pos_site_id
_symmetry_equiv_pos_as_xyz
1 x,y,z
2 -x,y,1/2-z
3 1/2+x,1/2+y,z
4 1/2-x,1/2+y,1/2-z
5 -x,-y,-z
6 x,-y,1/2+z
7 1/2-x,1/2-y,-z
8 1/2+x,1/2-y,1/2+z
_cell_length_a                   14.9826(15)
_cell_length_b                   9.5917(10)
_cell_length_c                   19.639(2)
_cell_angle_alpha                90
_cell_angle_beta                 101.4060(10)
_cell_angle_gamma                90
_cell_volume                     2766.55
loop_
_atom_site_label
_atom_site_type_symbol
_atom_site_fract_x
_atom_site_fract_y
_atom_site_fract_z
Cd1 Cd 0.088051(15) 1.07556(2) 0.077324(11)
N1 N 0.29367(18) 0.7360(3) 0.14558(14)
O1 O 0.18419(17) 0.4845(2) 0.01998(13)
O2 O 0.38270(16) 0.7676(2) 0.36172(11)
C1 C 0.2443(2) 0.5307(3) 0.07136(16)
C2 C 0.26980(19) 0.8689(3) 0.15259(14)
N2 N 0.19720(16) 0.9020(2) 0.10408(13)
C3 C 0.32048(19) 0.9660(3) 0.20424(15)
O3 O 0.30816(15) 0.4602(2) 0.10184(12)
C4 C 0.37201(19) 0.9261(3) 0.26959(15)
C5 C 0.38495(19) 0.7786(3) 0.29824(16)
C6 C 0.23504(19) 0.6774(3) 0.09179(15)
C7 C 0.4161(2) 1.0282(3) 0.31334(16)
H1 H 0.4496 1.0023 0.3565
C8 C 0.3619(2) 1.2072(3) 0.23172(18)
H2 H 0.3585 1.3007 0.2189
C9 C 0.4121(2) 1.1681(4) 0.29498(18)
H3 H 0.4432 1.2345 0.3252
C10 C 0.3163(2) 1.1080(3) 0.18691(17)
H4 H 0.2821 1.1360 0.1443
O4 O 0.1367(3) 1.2070(3) -0.0044(2)
O5 O 0.05373(15) 0.8907(2) -0.00630(12)
O6 O 0.07739(16) 0.6683(2) -0.02731(12)
C11 C 0.0965(2) 0.7807(3) 0.00719(15)
O7 O 0.0017(2) 0.9864(3) 0.15272(15)
C12 C 0.17567(18) 0.7817(3) 0.06591(14)
O8 O 0.40063(17) 0.6783(2) 0.26079(11)
H5 H 0.163(3) 1.163(5) -0.031(2)
H6 H 0.180(3) 1.188(5) 0.023(2)
H7 H -0.051(4) 0.986(5) 0.144(3)
H8 H 0.017(3) 1.042(5) 0.177(2)
H9 H 0.325(2) 0.706(4) 0.1738(17)
H10 H 0.150(4) 0.547(6) 0.006(3)
Cd1C Cd 0.411949(15) 0.57556(2) 0.422676(11)
Cd1D Cd -0.088051(15) 0.92444(2) -0.077324(11)
O2C O 0.11730(16) 1.2676(2) 0.13828(11)
O5D O -0.05373(15) 1.1093(2) 0.00630(12)
loop_
_geom_bond_atom_site_label_1
_geom_bond_atom_site_label_2
_geom_bond_site_symmetry_1
_geom_bond_site_symmetry_2
Cd1 N2 1_555 1_555
N1 C2 1_555 1_555
O1 C1 1_555 1_555
O2 C5 1_555 1_555
C1 O3 1_555 1_555
C2 N2 1_555 1_555
N2 C12 1_555 1_555
C3 C2 1_555 1_555
C4 C3 1_555 1_555
C5 C4 1_555 1_555
C6 N1 1_555 1_555
C7 C4 1_555 1_555
H1 C7 1_555 1_555
C8 H2 1_555 1_555
C9 C7 1_555 1_555
H3 C9 1_555 1_555
C10 C3 1_555 1_555
H4 C10 1_555 1_555
O4 Cd1 1_555 1_555
O5 Cd1 1_555 1_555
O6 C11 1_555 1_555
C11 O5 1_555 1_555
O7 Cd1 1_555 1_555
C12 C6 1_555 1_555
O8 C5 1_555 1_555
H5 O4 1_555 1_555
H6 O4 1_555 1_555
H7 O7 1_555 1_555
H8 O7 1_555 1_555
H9 N1 1_555 1_555
H10 O1 1_555 1_555
Cd1C O2 1_555 1_555
Cd1D O5 1_555 1_555
O2C Cd1 1_555 1_555
O5D Cd1 1_555 1_555
C1 C6 1_555 1_555
C8 C9 1_555 1_555
C8 C10 1_555 1_555
C11 C12 1_555 1_555
Cd1D O5D 1_555 1_555

#END
