
#######################################################################
#
#                 Cambridge Crystallographic Data Centre
#                                CCDC 
#
#######################################################################
#
# If this CIF has been generated from an entry in the Cambridge 
# Structural Database, then it will include bibliographic, chemical, 
# crystal, experimental, refinement or atomic coordinate data resulting 
# from the CCDC's data processing and validation procedures.
#
#######################################################################

data_ZILBIH
_symmetry_cell_setting           tetragonal
_symmetry_space_group_name_H-M   'P 4 21 2'
_symmetry_Int_Tables_number      90
_space_group_name_Hall           'P 4ab 2ab'
loop_
_symmetry_equiv_pos_site_id
_symmetry_equiv_pos_as_xyz
1 x,y,z
2 1/2-y,1/2+x,z
3 -x,-y,z
4 1/2+y,1/2-x,z
5 1/2+x,1/2-y,-z
6 1/2-x,1/2+y,-z
7 y,x,-z
8 -y,-x,-z
_cell_length_a                   22.6591(11)
_cell_length_b                   22.6591(11)
_cell_length_c                   12.7035(12)
_cell_angle_alpha                90
_cell_angle_beta                 90
_cell_angle_gamma                90
_cell_volume                     6522.42
loop_
_atom_site_label
_atom_site_type_symbol
_atom_site_fract_x
_atom_site_fract_y
_atom_site_fract_z
Co1 Co 0.25688(2) 0.26245(2) 0.24712(4)
O1 O 0.28321(16) 0.31553(14) 0.1260(2)
O2 O 0.20525(14) 0.24737(17) 0.3771(2)
O3 O 0.16078(14) 0.29198(16) 0.2454(3)
C1 C 0.1598(2) 0.2719(2) 0.3371(3)
N1 N -0.16428(16) 0.26085(19) 0.6832(3)
O4 O 0.27737(18) 0.36030(15) 0.2789(3)
C2 C 0.1044(2) 0.2762(2) 0.4024(3)
N2 N 0.26044(18) 0.68707(17) -0.1604(3)
C3 C 0.2889(2) 0.4200(2) 0.1246(3)
C4 C 0.0002(2) 0.2768(2) 0.5182(3)
C5 C 0.1016(2) 0.2464(2) 0.4986(4)
H1 H 0.1351 0.2259 0.5246
C6 C 0.2839(2) 0.3624(2) 0.1793(3)
C7 C 0.2862(3) 0.5279(2) 0.0162(4)
C8 C 0.2788(2) 0.5843(2) -0.0429(3)
C9 C -0.0568(2) 0.2741(2) 0.5762(4)
C10 C -0.1100(2) 0.2737(2) 0.5228(3)
H2 H -0.1107 0.2780 0.4484
C11 C 0.2429(2) 0.6291(2) -0.0055(4)
H3 H 0.2242 0.6255 0.0611
C12 C 0.0496(2) 0.2471(3) 0.5556(4)
H4 H 0.0476 0.2271 0.6212
C13 C 0.2976(3) 0.4744(2) -0.0361(4)
H5 H 0.3046 0.4748 -0.1098
C14 C 0.2959(2) 0.6443(2) -0.1952(3)
H6 H 0.3144 0.6492 -0.2617
C15 C -0.1623(2) 0.2670(2) 0.5785(4)
H7 H -0.1984 0.2668 0.5405
C16 C 0.0562(2) 0.3071(2) 0.3666(4)
H8 H 0.0584 0.3281 0.3020
C17 C 0.2348(2) 0.6789(2) -0.0654(4)
H9 H 0.2098 0.7091 -0.0388
C18 C -0.1127(2) 0.2638(3) 0.7354(4)
H10 H -0.1134 0.2616 0.8100
C19 C -0.0590(2) 0.2698(3) 0.6859(4)
H11 H -0.0237 0.2710 0.7261
C20 C 0.0045(2) 0.3077(3) 0.4245(4)
H12 H -0.0285 0.3295 0.3997
C21 C 0.2803(3) 0.4730(2) 0.1787(4)
H13 H 0.2754 0.4725 0.2530
C22 C 0.2787(3) 0.5262(2) 0.1255(4)
H14 H 0.2725 0.5619 0.1633
C23 C 0.2987(2) 0.4218(2) 0.0167(4)
H15 H 0.3062 0.3862 -0.0207
C24 C 0.3069(3) 0.5934(2) -0.1397(4)
H16 H 0.3334 0.5646 -0.1668
Co1D Co -0.24312(2) 0.23755(2) 0.75288(4)
Co1E Co 0.24312(2) 0.76245(2) -0.24712(4)
N1D N 0.33572(16) 0.23915(19) 0.3168(3)
N2E N 0.23956(18) 0.18707(17) 0.1604(3)
O5 O 0.3801(3) 0.3941(4) 0.3917(5)
O6 O 0.1014(4) 0.0875(4) 0.3863(6)
C25 C 0.0529(6) 0.1145(6) 0.3460(10)
O7 O 0.8874(4) 0.0169(4) 0.2774(7)
C26 C 0.9205(5) 0.0501(5) 0.2040(9)
O8 O 0.121(2) 0.409(2) 0.159(3)
O9 O 0.1176(7) 0.5597(7) -0.1960(12)
C27 C 0.1104(10) 0.5544(10) -0.0695(18)
O10 O 1.0000 0.0000 0.1608(15)
loop_
_geom_bond_atom_site_label_1
_geom_bond_atom_site_label_2
_geom_bond_site_symmetry_1
_geom_bond_site_symmetry_2
Co1 O1 1_555 1_555
O1 C6 1_555 1_555
O2 Co1 1_555 1_555
O3 Co1 1_555 1_555
C1 O2 1_555 1_555
N1 C15 1_555 1_555
O4 Co1 1_555 1_555
C2 C1 1_555 1_555
N2 C14 1_555 1_555
C3 C6 1_555 1_555
C4 C9 1_555 1_555
C5 C2 1_555 1_555
H1 C5 1_555 1_555
C6 O4 1_555 1_555
C7 C8 1_555 1_555
C8 C11 1_555 1_555
C9 C10 1_555 1_555
C10 H2 1_555 1_555
C11 H3 1_555 1_555
C12 C4 1_555 1_555
H4 C12 1_555 1_555
C13 C7 1_555 1_555
H5 C13 1_555 1_555
C14 H6 1_555 1_555
C15 C10 1_555 1_555
H7 C15 1_555 1_555
C16 C2 1_555 1_555
H8 C16 1_555 1_555
C17 N2 1_555 1_555
H9 C17 1_555 1_555
C18 N1 1_555 1_555
H10 C18 1_555 1_555
C19 C9 1_555 1_555
H11 C19 1_555 1_555
C20 C4 1_555 1_555
H12 C20 1_555 1_555
C21 C3 1_555 1_555
H13 C21 1_555 1_555
C22 C7 1_555 1_555
H14 C22 1_555 1_555
C23 C3 1_555 1_555
H15 C23 1_555 1_555
C24 C8 1_555 1_555
H16 C24 1_555 1_555
O6 C25 1_555 1_555
O7 C26 1_555 1_555
O9 C27 1_555 1_555
Co1D N1 1_555 1_555
Co1E N2 1_555 1_555
N1D Co1 1_555 1_555
N2E Co1 1_555 1_555
O3 C1 1_555 1_555
C5 C12 1_555 1_555
C11 C17 1_555 1_555
C13 C23 1_555 1_555
C14 C24 1_555 1_555
C16 C20 1_555 1_555
C18 C19 1_555 1_555
C21 C22 1_555 1_555

#END
