
#######################################################################
#
#                 Cambridge Crystallographic Data Centre
#                                CCDC 
#
#######################################################################
#
# If this CIF has been generated from an entry in the Cambridge 
# Structural Database, then it will include bibliographic, chemical, 
# crystal, experimental, refinement or atomic coordinate data resulting 
# from the CCDC's data processing and validation procedures.
#
#######################################################################

data_ZILCUU
_symmetry_cell_setting           triclinic
_symmetry_space_group_name_H-M   'P -1'
_symmetry_Int_Tables_number      2
_space_group_name_Hall           '-P 1'
loop_
_symmetry_equiv_pos_site_id
_symmetry_equiv_pos_as_xyz
1 x,y,z
2 -x,-y,-z
_cell_length_a                   10.7604(7)
_cell_length_b                   12.3625(7)
_cell_length_c                   14.2689(11)
_cell_angle_alpha                88.347(6)
_cell_angle_beta                 71.117(7)
_cell_angle_gamma                82.687(5)
_cell_volume                     1781.21
loop_
_atom_site_label
_atom_site_type_symbol
_atom_site_fract_x
_atom_site_fract_y
_atom_site_fract_z
Mn1 Mn 0.30677(4) 0.79499(3) 0.13025(2)
O1 O 0.20904(17) 0.68205(12) 0.07803(11)
N1 N -0.3710(2) 1.13590(16) 0.02087(14)
Mn2 Mn -0.01875(4) 0.71962(3) 0.09270(2)
O2 O 0.13565(19) 0.57965(12) -0.00657(12)
N2 N -0.1882(2) 0.85943(17) 0.14109(14)
C1 C 0.0343(2) 0.85991(18) -0.10976(17)
N3 N 0.0421(2) 0.81307(15) -0.04153(14)
O3 O -0.1557(2) 0.63327(17) 0.05446(14)
O4 O 0.5019(2) 0.71583(16) 0.12395(17)
N4 N -0.1025(2) 1.11059(18) -0.15871(15)
N5 N -0.2880(2) 0.73636(18) 0.92478(16)
N6 N -0.3575(3) 1.05656(18) 0.81166(16)
N7 N -0.3528(2) 1.04059(15) 0.34354(14)
N8 N -0.3942(2) 1.09091(17) 0.43045(14)
N9 N -0.4913(2) 1.24422(16) 0.36326(15)
N10 N -0.4485(2) 1.19606(16) 0.27529(14)
C2 C 0.0207(2) 0.91866(17) -0.19129(16)
N11 N -0.1395(2) 0.66569(15) 0.57254(14)
N12 N -0.1807(2) 0.70667(16) 0.66339(14)
N13 N -0.2507(2) 0.87741(15) 0.60222(14)
N14 N -0.2080(2) 0.83537(16) 0.51244(14)
C3 C -0.4614(3) 1.1891(2) 0.43644(17)
N15 N 0.0375(2) 0.93386(15) -0.36070(14)
N16 N 0.0772(2) 0.88962(17) -0.44959(14)
N17 N 0.1736(2) 0.72899(15) -0.39128(14)
C4 C 0.2326(2) 0.63623(19) -0.58213(17)
H1 H 0.2422 0.5796 -0.5397
N18 N 0.1342(2) 0.77221(16) -0.30141(14)
C5 C -0.1567(3) 0.73117(19) 0.50208(17)
N19 N -0.0696(2) 0.67119(14) 0.24600(13)
N20 N 0.2364(2) 0.73190(15) -0.71676(13)
N21 N -0.1140(2) 0.68574(14) 0.40667(13)
C6 C 0.2638(2) 0.62918(18) -0.68069(17)
N22 N -0.5046(2) 1.24406(17) 0.52821(14)
N23 N -0.5404(2) 1.27896(18) 0.68598(15)
N24 N 0.1834(2) 0.74373(15) -0.55536(13)
C7 C -0.2832(3) 0.85388(19) 0.77424(16)
C8 C -0.3336(2) 1.04304(17) 0.17224(16)
C9 C -0.0430(2) 0.56902(17) 0.28256(17)
C10 C -0.0461(3) 1.0236(2) -0.17408(16)
C11 C 0.0664(2) 0.87235(19) -0.28775(16)
C12 C -0.0690(2) 0.57750(18) 0.38043(17)
H2 H -0.0588 0.5211 0.4229
C13 C 0.1420(2) 0.7902(2) -0.45991(16)
C14 C -0.2550(3) 0.9418(2) 0.15645(16)
C15 C -0.3801(2) 1.09525(18) 0.26711(17)
C16 C -0.5823(3) 1.3717(2) 0.64265(18)
C17 C 0.0031(3) 0.47021(17) 0.21746(17)
H3 H 0.0159 0.4077 0.2563
H4 H 0.0852 0.4796 0.1670
H5 H -0.0621 0.4596 0.1870
C18 C 0.1879(3) 0.79744(19) -0.64017(17)
H6 H 0.1600 0.8714 -0.6434
C19 C -0.2369(3) 0.81055(19) 0.67717(17)
C20 C -0.2852(3) 0.7877(2) 0.85685(18)
C21 C -0.3256(3) 0.9654(2) 0.79358(17)
C22 C -0.5609(3) 1.3514(2) 0.54634(19)
H7 H -0.5803 1.4001 0.5007
C23 C -0.1134(2) 0.73870(19) 0.32198(17)
H8 H -0.1403 0.8128 0.3183
C24 C 0.3172(3) 0.53182(18) -0.74655(18)
H9 H 0.3299 0.4692 -0.7077
H10 H 0.4005 0.5436 -0.7944
H11 H 0.2559 0.5196 -0.7801
C25 C -0.3551(2) 1.09499(18) 0.08965(17)
C26 C 0.2314(3) 0.61338(18) 0.00950(17)
C27 C -0.4951(3) 1.2045(2) 0.61647(18)
H12 H -0.4606 1.1336 0.6256
C28 C -0.6396(3) 1.4761(2) 0.69917(19)
H13 H -0.6623 1.5303 0.6560
H14 H -0.5757 1.5005 0.7249
H15 H -0.7176 1.4645 0.7530
C29 C 0.3694(3) 0.5773(2) -0.0524(2)
H16 H 0.3697 0.5250 -0.1010
H17 H 0.4184 0.5443 -0.0112
H18 H 0.4097 0.6390 -0.0851
H19 H -0.185(3) 0.6673(19) 0.0134(18)
H20 H -0.150(3) 0.563(3) 0.043(2)
H21 H 0.521(3) 0.722(2) 0.180(2)
H22 H 0.556(3) 0.732(2) 0.083(2)
Mn1_2 Mn 0.30677(4) 0.79499(3) -0.86975(2)
Mn1A Mn -0.30677(4) 1.20501(3) -0.13025(2)
Mn1A_2 Mn -0.30677(4) 1.20501(3) 0.86975(2)
N1A N 0.3710(2) 0.86410(16) -0.02087(14)
N4A N 0.1025(2) 0.88941(18) 0.15871(15)
N6A N 0.3575(3) 0.94344(18) 0.18834(16)
N20_2 N 0.2364(2) 0.73190(15) 0.28324(13)
loop_
_geom_bond_atom_site_label_1
_geom_bond_atom_site_label_2
_geom_bond_site_symmetry_1
_geom_bond_site_symmetry_2
Mn1 O1 1_555 1_555
O1 Mn2 1_555 1_555
N1 C25 1_555 1_555
Mn2 O2 1_555 1_555
O2 C26 1_555 1_555
N2 Mn2 1_555 1_555
C1 N3 1_555 1_555
N3 Mn2 1_555 1_555
O3 Mn2 1_555 1_555
O4 Mn1 1_555 1_555
N4 C10 1_555 1_555
N5 C20 1_555 1_555
N6 C21 1_555 1_555
N7 N8 1_555 1_555
N8 C3 1_555 1_555
N9 N10 1_555 1_555
N10 C15 1_555 1_555
C2 C1 1_555 1_555
N11 N12 1_555 1_555
N12 C19 1_555 1_555
N13 N14 1_555 1_555
N14 C5 1_555 1_555
C3 N9 1_555 1_555
N15 N16 1_555 1_555
N16 C13 1_555 1_555
N17 N18 1_555 1_555
C4 H1 1_555 1_555
N18 C11 1_555 1_555
C5 N11 1_555 1_555
N19 Mn2 1_555 1_555
N20 C6 1_555 1_555
N21 C5 1_555 1_555
C6 C4 1_555 1_555
N22 C3 1_555 1_555
N23 C16 1_555 1_555
N24 C4 1_555 1_555
C7 C19 1_555 1_555
C8 C14 1_555 1_555
C9 N19 1_555 1_555
C10 C2 1_555 1_555
C11 C2 1_555 1_555
C12 N21 1_555 1_555
H2 C12 1_555 1_555
C13 N17 1_555 1_555
C14 N2 1_555 1_555
C15 N7 1_555 1_555
C16 C22 1_555 1_555
C17 C9 1_555 1_555
H3 C17 1_555 1_555
H4 C17 1_555 1_555
H5 C17 1_555 1_555
C18 N20 1_555 1_555
H6 C18 1_555 1_555
C19 N13 1_555 1_555
C20 C7 1_555 1_555
C21 C7 1_555 1_555
C22 N22 1_555 1_555
H7 C22 1_555 1_555
C23 N19 1_555 1_555
H8 C23 1_555 1_555
C24 C6 1_555 1_555
H9 C24 1_555 1_555
H10 C24 1_555 1_555
H11 C24 1_555 1_555
C25 C8 1_555 1_555
C26 O1 1_555 1_555
C27 N22 1_555 1_555
H12 C27 1_555 1_555
C28 C16 1_555 1_555
H13 C28 1_555 1_555
H14 C28 1_555 1_555
H15 C28 1_555 1_555
C29 C26 1_555 1_555
H16 C29 1_555 1_555
H17 C29 1_555 1_555
H18 C29 1_555 1_555
H19 O3 1_555 1_555
H20 O3 1_555 1_555
H21 O4 1_555 1_555
H22 O4 1_555 1_555
Mn1_2 N20 1_555 1_555
Mn1A N1 1_555 1_555
Mn1A_2 N6 1_555 1_555
N1A Mn1 1_555 1_555
N4A Mn1 1_555 1_555
N6A Mn1 1_555 1_555
N20_2 Mn1 1_555 1_555
N4 Mn1A 1_555 1_555
N15 C11 1_555 1_555
N21 C23 1_555 1_555
N23 C27 1_555 1_555
N24 C13 1_555 1_555
N24 C18 1_555 1_555
C8 C15 1_555 1_555
C9 C12 1_555 1_555

#END
