
#######################################################################
#
#                 Cambridge Crystallographic Data Centre
#                                CCDC 
#
#######################################################################
#
# If this CIF has been generated from an entry in the Cambridge 
# Structural Database, then it will include bibliographic, chemical, 
# crystal, experimental, refinement or atomic coordinate data resulting 
# from the CCDC's data processing and validation procedures.
#
#######################################################################

data_ZILPOB
_symmetry_cell_setting           triclinic
_symmetry_space_group_name_H-M   'P -1'
_symmetry_Int_Tables_number      2
_space_group_name_Hall           '-P 1'
loop_
_symmetry_equiv_pos_site_id
_symmetry_equiv_pos_as_xyz
1 x,y,z
2 -x,-y,-z
_cell_length_a                   8.2902(7)
_cell_length_b                   12.1185(10)
_cell_length_c                   24.661(2)
_cell_angle_alpha                98.7240(10)
_cell_angle_beta                 91.4080(10)
_cell_angle_gamma                106.4740(10)
_cell_volume                     2342.39
loop_
_atom_site_label
_atom_site_type_symbol
_atom_site_fract_x
_atom_site_fract_y
_atom_site_fract_z
Pb1 Pb 0.22633(3) 0.95970(2) 0.033256(11)
C1 C -0.0808(9) 0.8156(6) 0.1180(3)
H1 H -0.1338 0.8666 0.1059
C2 C -0.1514(10) 0.7541(7) 0.1589(3)
H2 H -0.2507 0.7626 0.1732
C3 C -0.0719(9) 0.6801(6) 0.1781(3)
H3 H -0.1157 0.6386 0.2058
C4 C 0.0751(9) 0.6691(6) 0.1549(3)
C5 C 0.1622(9) 0.5906(6) 0.1729(3)
C6 C 0.1921(12) 0.4651(8) 0.2300(4)
H4 H 0.1572 0.4256 0.2592
C7 C 0.3293(12) 0.4486(8) 0.2034(4)
H5 H 0.3848 0.3987 0.2150
C8 C 0.3015(9) 0.5738(6) 0.1461(3)
C9 C 0.3578(8) 0.6329(6) 0.1002(3)
C10 C 0.4883(9) 0.6131(7) 0.0685(3)
H6 H 0.5419 0.5591 0.0764
C11 C 0.5362(10) 0.6720(7) 0.0265(3)
H7 H 0.6209 0.6573 0.0051
C12 C 0.4590(9) 0.7542(6) 0.0156(3)
H8 H 0.4958 0.7959 -0.0127
C13 C 0.2813(8) 0.7141(5) 0.0854(3)
C14 C 0.1352(8) 0.7310(6) 0.1130(3)
C15 C 0.5188(8) 1.0377(6) 0.1086(3)
C16 C 0.6545(8) 1.0522(6) 0.1529(3)
C17 C 0.6192(10) 0.9838(6) 0.1935(3)
H9 H 0.5119 0.9322 0.1931
C18 C 0.7376(11) 0.9897(7) 0.2342(3)
H10 H 0.7114 0.9430 0.2613
C19 C 0.8948(11) 1.0651(8) 0.2345(3)
H11 H 0.9767 1.0682 0.2616
C20 C 0.9355(9) 1.1372(7) 0.1954(3)
H12 H 1.0431 1.1889 0.1966
C21 C 0.8146(8) 1.1319(6) 0.1542(3)
C22 C 0.8518(8) 1.2241(6) 0.1180(3)
C23 C 0.7600(9) 1.3044(6) 0.1237(3)
H13 H 0.6728 1.2956 0.1472
C24 C 0.7963(10) 1.3976(6) 0.0951(3)
H14 H 0.7317 1.4494 0.0986
C25 C 0.9246(10) 1.4130(6) 0.0624(3)
H15 H 0.9508 1.4769 0.0441
C26 C 1.0182(9) 1.3350(6) 0.0555(3)
H16 H 1.1052 1.3461 0.0319
C27 C 0.9853(8) 1.2406(6) 0.0829(3)
C28 C 1.0837(9) 1.1535(6) 0.0706(3)
N1 N 0.0581(7) 0.8053(5) 0.0952(2)
N2 N 0.3337(6) 0.7762(5) 0.0442(2)
N3 N 0.1083(9) 0.5351(6) 0.2157(3)
H17 H 0.0231 0.5452 0.2328
N4 N 0.3837(8) 0.5017(6) 0.1618(3)
H18 H 0.4692 0.4907 0.1452
O1 O 0.3678(6) 1.0073(4) 0.12196(19)
O2 O 0.5534(6) 1.0483(4) 0.06063(19)
O3 O 1.0129(6) 1.0495(4) 0.0757(2)
O4 O 1.2253(7) 1.1848(5) 0.0532(3)
Pb1_2 Pb 1.22633(3) 0.95970(2) 0.033256(11)
O3_2 O 0.0129(6) 1.0495(4) 0.0757(2)
O4_2 O 0.2253(7) 1.1848(5) 0.0532(3)
Pb2 Pb 0.19969(3) 0.58058(2) 0.461607(11)
C29 C 0.5497(9) 0.7600(7) 0.5399(3)
H19 H 0.5131 0.7009 0.5607
C30 C 0.6902(10) 0.8518(7) 0.5591(3)
H20 H 0.7482 0.8529 0.5920
C31 C 0.7446(9) 0.9409(6) 0.5301(3)
H21 H 0.8366 1.0046 0.5436
C32 C 0.6594(8) 0.9349(6) 0.4795(3)
C33 C 0.7128(8) 1.0259(6) 0.4463(3)
C34 C 0.8963(10) 1.1990(7) 0.4315(4)
H22 H 0.9897 1.2632 0.4429
C35 C 0.8074(10) 1.1892(6) 0.3820(3)
H23 H 0.8434 1.2470 0.3605
C36 C 0.6271(9) 1.0179(6) 0.3960(3)
C37 C 0.4805(8) 0.9174(6) 0.3770(3)
C38 C 0.3908(9) 0.9036(7) 0.3264(3)
H24 H 0.4217 0.9603 0.3040
C39 C 0.2574(10) 0.8063(7) 0.3102(3)
H25 H 0.1960 0.7960 0.2768
C40 C 0.2150(9) 0.7225(7) 0.3449(3)
H26 H 0.1253 0.6558 0.3336
C41 C 0.4299(8) 0.8297(6) 0.4091(3)
C42 C 0.5191(8) 0.8397(6) 0.4621(3)
C43 C 0.7659(8) 0.5426(6) 0.4485(3)
C44 C 0.7704(8) 0.6169(6) 0.4041(3)
C45 C 0.8579(8) 0.7362(6) 0.4178(3)
C46 C 0.3324(9) 0.4517(6) 0.3775(3)
C47 C 0.4318(9) 0.3932(6) 0.3391(3)
C48 C 0.3514(11) 0.2809(7) 0.3120(3)
H27 H 0.2388 0.2471 0.3175
C49 C 0.4320(13) 0.2187(7) 0.2774(3)
H28 H 0.3754 0.1437 0.2596
C50 C 0.5992(13) 0.2694(8) 0.2692(3)
H29 H 0.6574 0.2280 0.2464
C51 C 0.6785(11) 0.3802(7) 0.2949(3)
H30 H 0.7900 0.4143 0.2882
C52 C 0.5978(9) 0.4440(6) 0.3308(3)
C53 C 0.6921(8) 0.5702(6) 0.3515(3)
C54 C 0.7054(10) 0.6453(7) 0.3128(3)
H31 H 0.6563 0.6169 0.2772
C55 C 0.7939(10) 0.7643(7) 0.3282(4)
H32 H 0.7999 0.8135 0.3024
C56 C 0.8714(10) 0.8107(7) 0.3795(3)
N5 N 0.4647(7) 0.7531(5) 0.4924(2)
N6 N 0.2966(7) 0.7340(5) 0.3929(2)
N7 N 0.8492(7) 1.1176(5) 0.4628(3)
H33 H 0.9052 1.1233 0.4935
N8 N 0.6739(8) 1.1009(5) 0.3645(2)
H34 H 0.6185 1.0965 0.3339
O5 O 0.7947(7) 0.5939(4) 0.4971(2)
O6 O 0.7454(7) 0.4371(4) 0.4354(2)
O7 O 0.1766(6) 0.4270(5) 0.3690(2)
O8 O 0.4122(5) 0.5255(4) 0.4184(2)
Pb2A Pb 0.80031(3) 0.41942(2) 0.538393(11)
C29A C 0.4503(9) 0.2400(7) 0.4601(3)
H19A H 0.4869 0.2991 0.4393
C30A C 0.3098(10) 0.1482(7) 0.4409(3)
H20A H 0.2518 0.1471 0.4080
C31A C 0.2554(9) 0.0591(6) 0.4699(3)
H21A H 0.1634 -0.0046 0.4564
C32A C 0.3406(8) 0.0651(6) 0.5205(3)
C33A C 0.2872(8) -0.0259(6) 0.5537(3)
C34A C 0.1037(10) -0.1990(7) 0.5685(4)
H22A H 0.0103 -0.2632 0.5571
C35A C 0.1926(10) -0.1892(6) 0.6180(3)
H23A H 0.1566 -0.2470 0.6395
C36A C 0.3729(9) -0.0179(6) 0.6040(3)
C37A C 0.5195(8) 0.0826(6) 0.6230(3)
C38A C 0.6092(9) 0.0964(7) 0.6736(3)
H24A H 0.5783 0.0397 0.6960
C39A C 0.7426(10) 0.1937(7) 0.6898(3)
H25A H 0.8040 0.2040 0.7232
C40A C 0.7850(9) 0.2775(7) 0.6551(3)
H26A H 0.8747 0.3442 0.6664
C41A C 0.5701(8) 0.1703(6) 0.5909(3)
C42A C 0.4809(8) 0.1603(6) 0.5379(3)
C43A C 0.2341(8) 0.4574(6) 0.5515(3)
C44A C 0.2296(8) 0.3831(6) 0.5959(3)
C45A C 0.1421(8) 0.2638(6) 0.5822(3)
C46A C 0.6676(9) 0.5483(6) 0.6225(3)
C47A C 0.5682(9) 0.6068(6) 0.6609(3)
C48A C 0.6486(11) 0.7191(7) 0.6880(3)
H27A H 0.7612 0.7529 0.6825
C49A C 0.5680(13) 0.7813(7) 0.7226(3)
H28A H 0.6246 0.8563 0.7404
C50A C 0.4008(13) 0.7306(8) 0.7308(3)
H29A H 0.3426 0.7720 0.7536
C51A C 0.3215(11) 0.6198(7) 0.7051(3)
H30A H 0.2100 0.5857 0.7118
C52A C 0.4022(9) 0.5560(6) 0.6692(3)
C53A C 0.3079(8) 0.4298(6) 0.6485(3)
C54A C 0.2946(10) 0.3547(7) 0.6872(3)
H31A H 0.3437 0.3831 0.7228
C55A C 0.2061(10) 0.2357(7) 0.6718(4)
H32A H 0.2001 0.1865 0.6976
C56A C 0.1286(10) 0.1893(7) 0.6205(3)
N5A N 0.5353(7) 0.2469(5) 0.5076(2)
N6A N 0.7034(7) 0.2660(5) 0.6071(2)
N7A N 0.1508(7) -0.1176(5) 0.5372(3)
H33A H 0.0948 -0.1233 0.5065
N8A N 0.3261(8) -0.1009(5) 0.6355(2)
H34A H 0.3815 -0.0965 0.6661
O5A O 0.2053(7) 0.4061(4) 0.5029(2)
O6A O 0.2546(7) 0.5629(4) 0.5646(2)
O7A O 0.8234(6) 0.5730(5) 0.6310(2)
O8A O 0.5878(5) 0.4745(4) 0.5816(2)
loop_
_geom_bond_atom_site_label_1
_geom_bond_atom_site_label_2
_geom_bond_site_symmetry_1
_geom_bond_site_symmetry_2
Pb1 N1 1_555 1_555
C1 H1 1_555 1_555
C2 C1 1_555 1_555
H2 C2 1_555 1_555
C3 C2 1_555 1_555
H3 C3 1_555 1_555
C4 C3 1_555 1_555
C5 C4 1_555 1_555
C6 H4 1_555 1_555
C7 C6 1_555 1_555
H5 C7 1_555 1_555
C8 C5 1_555 1_555
C9 C8 1_555 1_555
C10 C9 1_555 1_555
H6 C10 1_555 1_555
C11 C10 1_555 1_555
H7 C11 1_555 1_555
C12 C11 1_555 1_555
H8 C12 1_555 1_555
C13 C9 1_555 1_555
C14 C4 1_555 1_555
C15 C16 1_555 1_555
C16 C17 1_555 1_555
C17 H9 1_555 1_555
C18 C17 1_555 1_555
H10 C18 1_555 1_555
C19 C18 1_555 1_555
H11 C19 1_555 1_555
C20 C19 1_555 1_555
H12 C20 1_555 1_555
C21 C16 1_555 1_555
C22 C21 1_555 1_555
C23 C22 1_555 1_555
H13 C23 1_555 1_555
C24 C23 1_555 1_555
H14 C24 1_555 1_555
C25 C24 1_555 1_555
H15 C25 1_555 1_555
C26 C25 1_555 1_555
H16 C26 1_555 1_555
C27 C22 1_555 1_555
C28 C27 1_555 1_555
N1 C1 1_555 1_555
N2 Pb1 1_555 1_555
N3 C5 1_555 1_555
H17 N3 1_555 1_555
N4 C7 1_555 1_555
H18 N4 1_555 1_555
O1 Pb1 1_555 1_555
O2 Pb1 1_555 1_555
O3 C28 1_555 1_555
O4 C28 1_555 1_555
Pb2 N5 1_555 1_555
C29 H19 1_555 1_555
C30 C29 1_555 1_555
H20 C30 1_555 1_555
C31 C30 1_555 1_555
H21 C31 1_555 1_555
C32 C31 1_555 1_555
C33 C32 1_555 1_555
C34 H22 1_555 1_555
C35 C34 1_555 1_555
H23 C35 1_555 1_555
C36 C33 1_555 1_555
C37 C36 1_555 1_555
C38 C37 1_555 1_555
H24 C38 1_555 1_555
C39 C38 1_555 1_555
H25 C39 1_555 1_555
C40 C39 1_555 1_555
H26 C40 1_555 1_555
C41 C37 1_555 1_555
C42 C32 1_555 1_555
C43 C44 1_555 1_555
C44 C45 1_555 1_555
C45 C56 1_555 1_555
C46 C47 1_555 1_555
C47 C48 1_555 1_555
C48 H27 1_555 1_555
C49 C48 1_555 1_555
H28 C49 1_555 1_555
C50 C49 1_555 1_555
H29 C50 1_555 1_555
C51 C50 1_555 1_555
H30 C51 1_555 1_555
C52 C47 1_555 1_555
C53 C44 1_555 1_555
C54 C53 1_555 1_555
H31 C54 1_555 1_555
C55 C54 1_555 1_555
H32 C55 1_555 1_555
C56 C55 1_555 1_555
N5 C29 1_555 1_555
N6 Pb2 1_555 1_555
N7 C33 1_555 1_555
H33 N7 1_555 1_555
N8 C35 1_555 1_555
H34 N8 1_555 1_555
O5 C43 1_555 1_555
O6 C43 1_555 1_555
O7 Pb2 1_555 1_555
O8 Pb2 1_555 1_555
Pb1_2 O3 1_555 1_555
O3_2 Pb1 1_555 1_555
O4_2 Pb1 1_555 1_555
Pb2A O5 1_555 1_555
C29A H19A 1_555 1_555
C30A C29A 1_555 1_555
H20A C30A 1_555 1_555
C31A C30A 1_555 1_555
H21A C31A 1_555 1_555
C32A C31A 1_555 1_555
C33A C32A 1_555 1_555
C34A H22A 1_555 1_555
C35A C34A 1_555 1_555
H23A C35A 1_555 1_555
C36A C33A 1_555 1_555
C37A C36A 1_555 1_555
C38A C37A 1_555 1_555
H24A C38A 1_555 1_555
C39A C38A 1_555 1_555
H25A C39A 1_555 1_555
C40A C39A 1_555 1_555
H26A C40A 1_555 1_555
C41A C37A 1_555 1_555
C42A C32A 1_555 1_555
C43A C44A 1_555 1_555
C44A C45A 1_555 1_555
C45A C56A 1_555 1_555
C46A C47A 1_555 1_555
C47A C48A 1_555 1_555
C48A H27A 1_555 1_555
C49A C48A 1_555 1_555
H28A C49A 1_555 1_555
C50A C49A 1_555 1_555
H29A C50A 1_555 1_555
C51A C50A 1_555 1_555
H30A C51A 1_555 1_555
C52A C47A 1_555 1_555
C53A C44A 1_555 1_555
C54A C53A 1_555 1_555
H31A C54A 1_555 1_555
C55A C54A 1_555 1_555
H32A C55A 1_555 1_555
C56A C55A 1_555 1_555
N5A Pb2A 1_555 1_555
N6A Pb2A 1_555 1_555
N7A C33A 1_555 1_555
H33A N7A 1_555 1_555
N8A C35A 1_555 1_555
H34A N8A 1_555 1_555
O5A Pb2 1_555 1_555
O6A Pb2 1_555 1_555
O7A Pb2A 1_555 1_555
O8A Pb2A 1_555 1_555
C6 N3 1_555 1_555
C8 N4 1_555 1_555
C12 N2 1_555 1_555
C13 C14 1_555 1_555
C13 N2 1_555 1_555
C14 N1 1_555 1_555
C15 O1 1_555 1_555
C15 O2 1_555 1_555
C20 C21 1_555 1_555
C26 C27 1_555 1_555
O4 Pb1_2 1_555 1_555
C34 N7 1_555 1_555
C36 N8 1_555 1_555
C40 N6 1_555 1_555
C41 C42 1_555 1_555
C41 N6 1_555 1_555
C42 N5 1_555 1_555
C46 O7 1_555 1_555
C46 O8 1_555 1_555
C51 C52 1_555 1_555
C52 C53 1_555 1_555
O6 Pb2A 1_555 1_555
C29A N5A 1_555 1_555
C34A N7A 1_555 1_555
C36A N8A 1_555 1_555
C40A N6A 1_555 1_555
C41A C42A 1_555 1_555
C41A N6A 1_555 1_555
C42A N5A 1_555 1_555
C43A O5A 1_555 1_555
C43A O6A 1_555 1_555
C46A O7A 1_555 1_555
C46A O8A 1_555 1_555
C51A C52A 1_555 1_555
C52A C53A 1_555 1_555

#END
