
#######################################################################
#
#                 Cambridge Crystallographic Data Centre
#                                CCDC 
#
#######################################################################
#
# If this CIF has been generated from an entry in the Cambridge 
# Structural Database, then it will include bibliographic, chemical, 
# crystal, experimental, refinement or atomic coordinate data resulting 
# from the CCDC's data processing and validation procedures.
#
#######################################################################

data_ZILSES
_symmetry_cell_setting           orthorhombic
_symmetry_space_group_name_H-M   'P 21 21 21'
_symmetry_Int_Tables_number      19
_space_group_name_Hall           'P 2ac 2ab'
loop_
_symmetry_equiv_pos_site_id
_symmetry_equiv_pos_as_xyz
1 x,y,z
2 1/2-x,-y,1/2+z
3 1/2+x,1/2-y,-z
4 -x,1/2+y,1/2-z
_cell_length_a                   6.501(1)
_cell_length_b                   10.839(2)
_cell_length_c                   14.506(3)
_cell_angle_alpha                90
_cell_angle_beta                 90
_cell_angle_gamma                90
_cell_volume                     1022.16
loop_
_atom_site_label
_atom_site_type_symbol
_atom_site_fract_x
_atom_site_fract_y
_atom_site_fract_z
O1 O 0.5692(2) 0.3131(1) 0.20007(9)
O2 O 0.2397(2) 0.2908(1) 0.1594(1)
C1 C 0.3908(3) 0.3522(2) 0.1869(1)
C2 C 0.3503(3) 0.4906(2) 0.1999(1)
N1 N 0.5100(3) 0.5483(2) 0.2598(1)
C3 C 0.3534(3) 0.5507(2) 0.1044(1)
N2 N 0.3151(2) 0.6828(1) 0.1078(1)
C4 C 0.1258(3) 0.7261(2) 0.1151(1)
C5 C 0.0436(3) 0.8491(2) 0.1127(1)
C6 C -0.1676(3) 0.7984(2) 0.1171(1)
C7 C -0.0772(3) 0.6726(2) 0.1257(1)
O3 O 0.1207(2) 0.9544(1) 0.1084(1)
O4 O -0.3432(2) 0.8425(1) 0.11325(9)
O5 O -0.1456(2) 0.5657(1) 0.1381(1)
Na1 Na 0.8942(1) 0.33868(7) 0.12796(5)
O6 O -0.0965(2) 0.3844(2) -0.0303(1)
O7 O -0.1702(3) 0.1370(2) 0.0984(1)
H1 H 0.4054(37) 0.7289(21) 0.1065(16)
H2 H 0.4931(34) 0.5388(19) 0.0733(15)
H3 H 0.2535(37) 0.5107(20) 0.0664(14)
H4 H 0.2219(36) 0.5037(19) 0.2267(15)
H5 H 0.6332(36) 0.5481(20) 0.2347(14)
H6 H 0.4818(35) 0.6272(21) 0.2710(15)
H7 H 0.5289(42) 0.4989(23) 0.3106(20)
H8 H -0.1605(54) 0.3283(30) -0.0595(22)
H9 H -0.1842(51) 0.4471(28) -0.0383(21)
H10 H -0.0965(36) 0.0835(22) 0.0964(17)
H11 H -0.1702(50) 0.1204(29) 0.0651(21)
Na1_2 Na -0.1058(1) 0.33868(7) 0.12796(5)
O1_2 O -0.4308(2) 0.3131(1) 0.20007(9)
loop_
_geom_bond_atom_site_label_1
_geom_bond_atom_site_label_2
_geom_bond_site_symmetry_1
_geom_bond_site_symmetry_2
O1 C1 1_555 1_555
O2 C1 1_555 1_555
C1 C2 1_555 1_555
C2 N1 1_555 1_555
N1 H5 1_555 1_555
C3 C2 1_555 1_555
N2 C3 1_555 1_555
C4 N2 1_555 1_555
C5 C4 1_555 1_555
C6 C5 1_555 1_555
C7 C4 1_555 1_555
O3 C5 1_555 1_555
O4 C6 1_555 1_555
O5 C7 1_555 1_555
Na1 O1 1_555 1_555
O6 H8 1_555 1_555
O7 H10 1_555 1_555
H1 N2 1_555 1_555
H2 C3 1_555 1_555
H3 C3 1_555 1_555
H4 C2 1_555 1_555
H6 N1 1_555 1_555
H7 N1 1_555 1_555
H9 O6 1_555 1_555
H11 O7 1_555 1_555
Na1_2 O2 1_555 1_555
O1_2 Na1_2 1_555 1_555
C6 C7 1_555 1_555
O5 Na1_2 1_555 1_555
O6 Na1_2 1_555 1_555
O7 Na1_2 1_555 1_555

#END
