
#######################################################################
#
#                 Cambridge Crystallographic Data Centre
#                                CCDC 
#
#######################################################################
#
# If this CIF has been generated from an entry in the Cambridge 
# Structural Database, then it will include bibliographic, chemical, 
# crystal, experimental, refinement or atomic coordinate data resulting 
# from the CCDC's data processing and validation procedures.
#
#######################################################################

data_ZILTAR
_symmetry_cell_setting           triclinic
_symmetry_space_group_name_H-M   'P -1'
_symmetry_Int_Tables_number      2
_space_group_name_Hall           '-P 1'
loop_
_symmetry_equiv_pos_site_id
_symmetry_equiv_pos_as_xyz
1 x,y,z
2 -x,-y,-z
_cell_length_a                   9.5748(9)
_cell_length_b                   13.1573(12)
_cell_length_c                   25.374(2)
_cell_angle_alpha                99.9610(10)
_cell_angle_beta                 96.9820(10)
_cell_angle_gamma                100.0270(10)
_cell_volume                     3062.16
loop_
_atom_site_label
_atom_site_type_symbol
_atom_site_fract_x
_atom_site_fract_y
_atom_site_fract_z
Pr1 Pr 0.23573(2) 0.472293(19) 0.489456(9)
O1 O 0.6456(4) 0.4946(4) 0.58447(15)
O2 O 0.4127(5) 0.4530(4) 0.55868(15)
O3 O 0.2036(3) 0.6043(3) 0.56983(13)
O4 O 0.3824(4) 0.6625(3) 0.52990(14)
O5 O 0.0794(4) 0.5734(3) 0.45315(15)
O6 O -0.1009(5) 0.6509(4) 0.4659(2)
O7 O 0.3255(4) 0.3044(3) 0.45803(17)
H1 H 0.2596 0.2563 0.4383
H2 H 0.3420 0.2876 0.4884
O8 O 0.0570(4) 0.3545(3) 0.41266(16)
H3 H 0.0116 0.4032 0.4164
H4 H 0.0714 0.2918 0.4068
N1 N 0.5776(4) 0.7100(3) 0.85072(15)
H5 H 0.6617 0.7329 0.8437
N2 N 0.3495(4) 0.6281(3) 0.83779(15)
N3 N 0.2690(4) 0.9104(3) 0.26952(15)
H6 H 0.3267 0.8672 0.2705
N4 N 0.0909(4) 0.9911(3) 0.28783(15)
N5 N 0.4612(4) 1.1573(3) 0.72278(17)
N6 N 0.2422(4) 1.0929(3) 0.73484(15)
H7 H 0.1621 1.0493 0.7317
C1 C 0.5205(6) 0.4916(4) 0.59363(18)
C2 C 0.5022(5) 0.5345(4) 0.65069(17)
C3 C 0.6158(5) 0.6000(4) 0.68500(19)
H8 H 0.7024 0.6185 0.6726
C4 C 0.6028(5) 0.6387(4) 0.73776(19)
H9 H 0.6814 0.6827 0.7607
C5 C 0.4750(5) 0.6135(4) 0.75753(18)
C6 C 0.3585(5) 0.5498(4) 0.72179(18)
H10 H 0.2711 0.5328 0.7338
C7 C 0.3706(5) 0.5115(4) 0.66878(18)
H11 H 0.2911 0.4704 0.6451
C8 C 0.4642(5) 0.6492(4) 0.81449(18)
C9 C 0.5327(5) 0.7279(4) 0.90051(18)
C10 C 0.3917(6) 0.6773(4) 0.89202(18)
C11 C 0.2898(6) 0.6754(5) 0.9302(2)
C12 C 0.1807(9) 0.5896(6) 0.9249(3)
H12 H 0.1768 0.5307 0.8982
C13 C 0.0761(10) 0.5880(8) 0.9584(4)
H13 H 0.0000 0.5308 0.9526
C14 C 0.0870(11) 0.6728(9) 1.0002(3)
H14 H 0.0209 0.6712 1.0242
C15 C 0.1924(10) 0.7573(8) 1.0064(3)
H15 H 0.1991 0.8145 1.0344
C16 C 0.2911(8) 0.7597(6) 0.9712(3)
H16 H 0.3611 0.8203 0.9751
C17 C 0.6332(6) 0.7878(4) 0.94906(19)
C18 C 0.6576(7) 0.7409(6) 0.9926(2)
H17 H 0.6108 0.6721 0.9913
C19 C 0.7527(9) 0.7963(7) 1.0391(3)
H18 H 0.7676 0.7649 1.0690
C20 C 0.8230(8) 0.8958(7) 1.0405(3)
H19 H 0.8880 0.9321 1.0709
C21 C 0.7992(8) 0.9422(6) 0.9981(3)
H20 H 0.8474 1.0106 0.9996
C22 C 0.7031(7) 0.8891(5) 0.9521(3)
H21 H 0.6863 0.9226 0.9232
C23 C 0.3060(5) 0.6763(4) 0.56619(18)
C24 C 0.3295(5) 0.7795(4) 0.60510(18)
C25 C 0.2614(5) 0.7870(4) 0.65034(18)
H22 H 0.2084 0.7266 0.6581
C26 C 0.2714(5) 0.8828(4) 0.68403(19)
H23 H 0.2247 0.8866 0.7142
C27 C 0.3508(5) 0.9743(4) 0.67335(19)
C28 C 0.4247(6) 0.9657(4) 0.6295(2)
H24 H 0.4813 1.0254 0.6225
C29 C 0.4144(6) 0.8699(4) 0.5964(2)
H25 H 0.4656 0.8653 0.5675
C30 C 0.3537(5) 1.0753(4) 0.70921(19)
C31 C 0.2779(5) 1.1917(4) 0.76667(19)
C32 C 0.4158(5) 1.2301(4) 0.7603(2)
C33 C 0.1719(5) 1.2356(4) 0.79582(19)
C34 C 0.0874(5) 1.1733(4) 0.82336(19)
H26 H 0.1017 1.1057 0.8250
C35 C -0.0181(6) 1.2121(5) 0.8484(2)
H27 H -0.0734 1.1708 0.8675
C36 C -0.0425(7) 1.3114(5) 0.8454(3)
H28 H -0.1155 1.3365 0.8614
C37 C 0.0416(8) 1.3712(5) 0.8190(3)
H29 H 0.0269 1.4387 0.8175
C38 C 0.1498(6) 1.3350(4) 0.7937(3)
H30 H 0.2065 1.3778 0.7757
C39 C 0.5175(5) 1.3270(4) 0.7905(3)
C40 C 0.5150(7) 1.3638(5) 0.8437(3)
H31 H 0.4452 1.3295 0.8605
C41 C 0.6121(9) 1.4498(6) 0.8734(4)
H32 H 0.6055 1.4742 0.9095
C42 C 0.7162(9) 1.4985(6) 0.8505(5)
H33 H 0.7845 1.5550 0.8710
C43 C 0.7218(7) 1.4649(6) 0.7972(5)
H34 H 0.7929 1.4999 0.7812
C44 C 0.6228(6) 1.3792(5) 0.7664(3)
H35 H 0.6271 1.3571 0.7299
C45 C 0.0075(5) 0.6405(4) 0.44502(19)
C46 C 0.0498(5) 0.7133(4) 0.4076(2)
C47 C -0.0303(5) 0.7854(4) 0.3968(2)
H36 H -0.1120 0.7892 0.4128
C48 C 0.0070(5) 0.8525(4) 0.3626(2)
H37 H -0.0484 0.9021 0.3566
C49 C 0.1254(5) 0.8473(4) 0.33724(19)
C50 C 0.2061(7) 0.7749(5) 0.3481(3)
H38 H 0.2871 0.7706 0.3317
C51 C 0.1702(7) 0.7089(5) 0.3825(3)
H39 H 0.2270 0.6606 0.3892
C52 C 0.1613(5) 0.9162(4) 0.29914(19)
C53 C 0.1589(5) 1.0340(4) 0.24900(19)
C54 C 0.2710(5) 0.9844(4) 0.23777(19)
C55 C 0.3817(5) 0.9969(4) 0.20205(19)
C56 C 0.4748(5) 1.0928(4) 0.2075(2)
H40 H 0.4644 1.1507 0.2325
C57 C 0.5829(6) 1.1030(5) 0.1763(3)
H41 H 0.6458 1.1673 0.1806
C58 C 0.5978(7) 1.0171(6) 0.1385(3)
H42 H 0.6695 1.0242 0.1170
C59 C 0.5071(7) 0.9226(6) 0.1331(3)
H43 H 0.5176 0.8649 0.1081
C60 C 0.3997(6) 0.9121(5) 0.1646(2)
H44 H 0.3384 0.8472 0.1607
C61 C 0.1032(5) 1.1145(4) 0.2240(2)
C62 C 0.0455(6) 1.1907(4) 0.2547(3)
H45 H 0.0455 1.1920 0.2915
C63 C -0.0118(6) 1.2642(5) 0.2309(3)
H46 H -0.0497 1.3149 0.2518
C64 C -0.0133(7) 1.2631(6) 0.1758(4)
H47 H -0.0526 1.3125 0.1600
C65 C 0.0440(7) 1.1882(5) 0.1449(3)
H48 H 0.0436 1.1874 0.1081
C66 C 0.1028(6) 1.1137(4) 0.1689(2)
H49 H 0.1417 1.0636 0.1480
Pr1A Pr -0.23573(2) 0.527707(19) 0.510544(9)
Pr1A_2 Pr 0.76427(2) 0.527707(19) 0.510544(9)
O1A O 0.3544(4) 0.5054(4) 0.41553(15)
O6A O 0.1009(5) 0.3491(4) 0.5341(2)
O9 O 0.1079(6) 0.1441(4) 0.3931(3)
H50 H 0.0416 0.1462 0.3685
H51 H 0.1428 0.0908 0.3847
O10 O 0.972(2) 0.0918(14) 0.4693(5)
H52 H 0.9180 0.0344 0.4690
H53 H 0.9368 0.1266 0.4496
O11 O 0.4057(18) 0.2134(13) 0.5689(9)
H54 H 0.4026 0.2775 0.5686
H55 H 0.4848 0.2008 0.5640
loop_
_geom_bond_atom_site_label_1
_geom_bond_atom_site_label_2
_geom_bond_site_symmetry_1
_geom_bond_site_symmetry_2
Pr1 O2 1_555 1_555
O1 C1 1_555 1_555
O2 C1 1_555 1_555
O3 Pr1 1_555 1_555
O4 Pr1 1_555 1_555
O5 Pr1 1_555 1_555
O6 C45 1_555 1_555
O7 Pr1 1_555 1_555
H1 O7 1_555 1_555
H2 O7 1_555 1_555
O8 Pr1 1_555 1_555
H3 O8 1_555 1_555
H4 O8 1_555 1_555
N1 H5 1_555 1_555
N2 C8 1_555 1_555
N3 H6 1_555 1_555
N4 C52 1_555 1_555
N5 C30 1_555 1_555
N6 H7 1_555 1_555
C1 C2 1_555 1_555
C2 C3 1_555 1_555
C3 H8 1_555 1_555
C4 C3 1_555 1_555
H9 C4 1_555 1_555
C5 C4 1_555 1_555
C6 C5 1_555 1_555
H10 C6 1_555 1_555
C7 C2 1_555 1_555
H11 C7 1_555 1_555
C8 N1 1_555 1_555
C9 N1 1_555 1_555
C10 N2 1_555 1_555
C11 C10 1_555 1_555
C12 C11 1_555 1_555
H12 C12 1_555 1_555
C13 C12 1_555 1_555
H13 C13 1_555 1_555
C14 C13 1_555 1_555
H14 C14 1_555 1_555
C15 C14 1_555 1_555
H15 C15 1_555 1_555
C16 C11 1_555 1_555
H16 C16 1_555 1_555
C17 C9 1_555 1_555
C18 C17 1_555 1_555
H17 C18 1_555 1_555
C19 C18 1_555 1_555
H18 C19 1_555 1_555
C20 C19 1_555 1_555
H19 C20 1_555 1_555
C21 C20 1_555 1_555
H20 C21 1_555 1_555
C22 C17 1_555 1_555
H21 C22 1_555 1_555
C23 O3 1_555 1_555
C24 C23 1_555 1_555
C25 C24 1_555 1_555
H22 C25 1_555 1_555
C26 C25 1_555 1_555
H23 C26 1_555 1_555
C27 C26 1_555 1_555
C28 C27 1_555 1_555
H24 C28 1_555 1_555
C29 C24 1_555 1_555
H25 C29 1_555 1_555
C30 N6 1_555 1_555
C31 N6 1_555 1_555
C32 N5 1_555 1_555
C33 C31 1_555 1_555
C34 C33 1_555 1_555
H26 C34 1_555 1_555
C35 C34 1_555 1_555
H27 C35 1_555 1_555
C36 C35 1_555 1_555
H28 C36 1_555 1_555
C37 C36 1_555 1_555
H29 C37 1_555 1_555
C38 C33 1_555 1_555
H30 C38 1_555 1_555
C39 C32 1_555 1_555
C40 C39 1_555 1_555
H31 C40 1_555 1_555
C41 C40 1_555 1_555
H32 C41 1_555 1_555
C42 C41 1_555 1_555
H33 C42 1_555 1_555
C43 C42 1_555 1_555
H34 C43 1_555 1_555
C44 C39 1_555 1_555
H35 C44 1_555 1_555
C45 O5 1_555 1_555
C46 C45 1_555 1_555
C47 C46 1_555 1_555
H36 C47 1_555 1_555
C48 C47 1_555 1_555
H37 C48 1_555 1_555
C49 C48 1_555 1_555
C50 C49 1_555 1_555
H38 C50 1_555 1_555
C51 C46 1_555 1_555
H39 C51 1_555 1_555
C52 N3 1_555 1_555
C53 N4 1_555 1_555
C54 N3 1_555 1_555
C55 C54 1_555 1_555
C56 C55 1_555 1_555
H40 C56 1_555 1_555
C57 C56 1_555 1_555
H41 C57 1_555 1_555
C58 C57 1_555 1_555
H42 C58 1_555 1_555
C59 C58 1_555 1_555
H43 C59 1_555 1_555
C60 C55 1_555 1_555
H44 C60 1_555 1_555
C61 C53 1_555 1_555
C62 C61 1_555 1_555
H45 C62 1_555 1_555
C63 C62 1_555 1_555
H46 C63 1_555 1_555
C64 C63 1_555 1_555
H47 C64 1_555 1_555
C65 C64 1_555 1_555
H48 C65 1_555 1_555
C66 C61 1_555 1_555
H49 C66 1_555 1_555
O9 H50 1_555 1_555
H51 O9 1_555 1_555
O10 H52 1_555 1_555
H53 O10 1_555 1_555
O11 H54 1_555 1_555
H55 O11 1_555 1_555
Pr1A O6 1_555 1_555
Pr1A_2 O1 1_555 1_555
O1A Pr1 1_555 1_555
O6A Pr1 1_555 1_555
O4 C23 1_555 1_555
C5 C8 1_555 1_555
C6 C7 1_555 1_555
C9 C10 1_555 1_555
C15 C16 1_555 1_555
C21 C22 1_555 1_555
C27 C30 1_555 1_555
C28 C29 1_555 1_555
C31 C32 1_555 1_555
C37 C38 1_555 1_555
C43 C44 1_555 1_555
C49 C52 1_555 1_555
C50 C51 1_555 1_555
C53 C54 1_555 1_555
C59 C60 1_555 1_555
C65 C66 1_555 1_555

#END
