
#######################################################################
#
#                 Cambridge Crystallographic Data Centre
#                                CCDC 
#
#######################################################################
#
# If this CIF has been generated from an entry in the Cambridge 
# Structural Database, then it will include bibliographic, chemical, 
# crystal, experimental, refinement or atomic coordinate data resulting 
# from the CCDC's data processing and validation procedures.
#
#######################################################################

data_ZILTEV
_symmetry_cell_setting           monoclinic
_symmetry_space_group_name_H-M   'P 21/c'
_symmetry_Int_Tables_number      14
_space_group_name_Hall           '-P 2ybc'
loop_
_symmetry_equiv_pos_site_id
_symmetry_equiv_pos_as_xyz
1 x,y,z
2 -x,1/2+y,1/2-z
3 -x,-y,-z
4 x,1/2-y,1/2+z
_cell_length_a                   9.8105(17)
_cell_length_b                   9.7959(17)
_cell_length_c                   14.503(3)
_cell_angle_alpha                90
_cell_angle_beta                 95.226(2)
_cell_angle_gamma                90
_cell_volume                     1387.98
loop_
_atom_site_label
_atom_site_type_symbol
_atom_site_fract_x
_atom_site_fract_y
_atom_site_fract_z
C1 C 0.2221(3) -0.0278(4) 0.1577(2)
H1 H 0.1895 -0.1149 0.1686
C2 C 0.3375(3) 0.0179(4) 0.2101(2)
H2 H 0.3811 -0.0386 0.2551
C3 C 0.3890(3) 0.1470(4) 0.1962(2)
H3 H 0.4689 0.1776 0.2292
C4 C 0.3167(3) 0.2286(3) 0.1313(2)
C5 C 0.3371(4) 0.3706(4) 0.0962(2)
C6 C 0.2264(3) 0.3913(3) 0.0186(2)
C7 C 0.1950(4) 0.4945(4) -0.0438(3)
H4 H 0.2432 0.5763 -0.0408
C8 C 0.0882(4) 0.4713(4) -0.1113(3)
H5 H 0.0631 0.5387 -0.1547
C9 C 0.0193(4) 0.3489(4) -0.1143(2)
H6 H -0.0515 0.3366 -0.1607
C10 C 0.1490(3) 0.2722(3) 0.0103(2)
C11 C 0.2026(3) 0.1750(3) 0.0807(2)
C12 C -0.3735(3) -0.1518(3) 0.1193(2)
H7 H -0.3134 -0.1900 0.1656
C13 C -0.3545(3) -0.0204(3) 0.0923(2)
C14 C -0.4444(3) 0.0399(3) 0.0207(2)
C15 C -0.4294(3) 0.1751(3) -0.0110(2)
H8 H -0.3570 0.2278 0.0149
C16 C -0.5180(3) 0.2298(4) -0.0784(2)
H9 H -0.5064 0.3195 -0.0973
Cu1 Cu 0.0000 0.0000 0.0000
N1 N 0.1544(2) 0.0501(3) 0.09070(17)
N2 N 0.0477(3) 0.2462(3) -0.05469(18)
O1 O 0.4247(3) 0.4513(3) 0.1243(2)
O2 O -0.1275(2) 0.1072(2) 0.07207(15)
O3 O -0.2653(2) 0.1930(2) 0.18753(16)
O4 O -0.1432(2) -0.0222(3) 0.21331(16)
S1 S -0.21190(8) 0.07114(10) 0.14812(6)
C12B C -0.6265(3) 0.1518(3) -0.1193(2)
H7B H -0.6866 0.1900 -0.1656
C13B C -0.6455(3) 0.0204(3) -0.0923(2)
C14B C -0.5556(3) -0.0399(3) -0.0207(2)
C15B C -0.5706(3) -0.1751(3) 0.0110(2)
H8B H -0.6430 -0.2278 -0.0149
C16B C -0.4820(3) -0.2298(4) 0.0784(2)
H9B H -0.4936 -0.3195 0.0973
O2B O -0.8725(2) -0.1072(2) -0.07207(15)
O3B O -0.7347(2) -0.1930(2) -0.18753(16)
O4B O -0.8568(2) 0.0222(3) -0.21331(16)
S1B S -0.78810(8) -0.07114(10) -0.14812(6)
C1B C -0.2221(3) 0.0278(4) -0.1577(2)
H1B H -0.1895 0.1149 -0.1686
C2B C -0.3375(3) -0.0179(4) -0.2101(2)
H2B H -0.3811 0.0386 -0.2551
C3B C -0.3890(3) -0.1470(4) -0.1962(2)
H3B H -0.4689 -0.1776 -0.2292
C4B C -0.3167(3) -0.2286(3) -0.1313(2)
C5B C -0.3371(4) -0.3706(4) -0.0962(2)
C6B C -0.2264(3) -0.3913(3) -0.0186(2)
C7B C -0.1950(4) -0.4945(4) 0.0438(3)
H4B H -0.2432 -0.5763 0.0408
C8B C -0.0882(4) -0.4713(4) 0.1113(3)
H5B H -0.0631 -0.5387 0.1547
C9B C -0.0193(4) -0.3489(4) 0.1143(2)
H6B H 0.0515 -0.3366 0.1607
C10B C -0.1490(3) -0.2722(3) -0.0103(2)
C11B C -0.2026(3) -0.1750(3) -0.0807(2)
N1B N -0.1544(2) -0.0501(3) -0.09070(17)
N2B N -0.0477(3) -0.2462(3) 0.05469(18)
O1B O -0.4247(3) -0.4513(3) -0.1243(2)
Cu1_2 Cu -1.0000 0.0000 0.0000
O2B_2 O 0.1275(2) -0.1072(2) -0.07207(15)
loop_
_geom_bond_atom_site_label_1
_geom_bond_atom_site_label_2
_geom_bond_site_symmetry_1
_geom_bond_site_symmetry_2
C1 H1 1_555 1_555
C2 C1 1_555 1_555
H2 C2 1_555 1_555
C3 C2 1_555 1_555
H3 C3 1_555 1_555
C4 C3 1_555 1_555
C5 C4 1_555 1_555
C6 C5 1_555 1_555
C7 C6 1_555 1_555
H4 C7 1_555 1_555
C8 C7 1_555 1_555
H5 C8 1_555 1_555
C9 C8 1_555 1_555
H6 C9 1_555 1_555
C10 C6 1_555 1_555
C11 C4 1_555 1_555
C12 H7 1_555 1_555
C13 C12 1_555 1_555
C14 C13 1_555 1_555
C15 C14 1_555 1_555
H8 C15 1_555 1_555
C16 C15 1_555 1_555
H9 C16 1_555 1_555
Cu1 N1 1_555 1_555
N1 C1 1_555 1_555
N2 C9 1_555 1_555
O1 C5 1_555 1_555
O2 Cu1 1_555 1_555
O3 S1 1_555 1_555
O4 S1 1_555 1_555
S1 C13 1_555 1_555
C12B C16 1_555 1_555
H7B C12B 1_555 1_555
C13B C12B 1_555 1_555
C14B C14 1_555 1_555
C15B C14B 1_555 1_555
H8B C15B 1_555 1_555
C16B C12 1_555 1_555
H9B C16B 1_555 1_555
O2B S1B 1_555 1_555
O3B S1B 1_555 1_555
O4B S1B 1_555 1_555
S1B C13B 1_555 1_555
C1B H1B 1_555 1_555
C2B C1B 1_555 1_555
H2B C2B 1_555 1_555
C3B C2B 1_555 1_555
H3B C3B 1_555 1_555
C4B C3B 1_555 1_555
C5B C4B 1_555 1_555
C6B C5B 1_555 1_555
C7B C6B 1_555 1_555
H4B C7B 1_555 1_555
C8B C7B 1_555 1_555
H5B C8B 1_555 1_555
C9B C8B 1_555 1_555
H6B C9B 1_555 1_555
C10B C6B 1_555 1_555
C11B C4B 1_555 1_555
N1B Cu1 1_555 1_555
N2B Cu1 1_555 1_555
O1B C5B 1_555 1_555
Cu1_2 O2B 1_555 1_555
O2B_2 Cu1 1_555 1_555
C10 C11 1_555 1_555
C10 N2 1_555 1_555
C11 N1 1_555 1_555
Cu1 N2 1_555 1_555
O2 S1 1_555 1_555
C13B C14B 1_555 1_555
C15B C16B 1_555 1_555
C1B N1B 1_555 1_555
C9B N2B 1_555 1_555
C10B C11B 1_555 1_555
C10B N2B 1_555 1_555
C11B N1B 1_555 1_555

#END
