
#######################################################################
#
#                 Cambridge Crystallographic Data Centre
#                                CCDC 
#
#######################################################################
#
# If this CIF has been generated from an entry in the Cambridge 
# Structural Database, then it will include bibliographic, chemical, 
# crystal, experimental, refinement or atomic coordinate data resulting 
# from the CCDC's data processing and validation procedures.
#
#######################################################################

data_ZILTIZ
_symmetry_cell_setting           monoclinic
_symmetry_space_group_name_H-M   'P 21/c'
_symmetry_Int_Tables_number      14
_space_group_name_Hall           '-P 2ybc'
loop_
_symmetry_equiv_pos_site_id
_symmetry_equiv_pos_as_xyz
1 x,y,z
2 -x,1/2+y,1/2-z
3 -x,-y,-z
4 x,1/2-y,1/2+z
_cell_length_a                   10.339(2)
_cell_length_b                   9.684(2)
_cell_length_c                   14.569(3)
_cell_angle_alpha                90
_cell_angle_beta                 96.381(3)
_cell_angle_gamma                90
_cell_volume                     1449.65
loop_
_atom_site_label
_atom_site_type_symbol
_atom_site_fract_x
_atom_site_fract_y
_atom_site_fract_z
C1 C -0.0131(4) 0.3244(4) 1.1124(3)
H1 H 0.0570 0.3029 1.1557
C2 C -0.0721(5) 0.4526(5) 1.1175(3)
H2 H -0.0398 0.5147 1.1630
C3 C -0.1772(5) 0.4892(4) 1.0565(3)
H3 H -0.2180 0.5743 1.0600
C4 C -0.2194(4) 0.3928(4) 0.9894(3)
C5 C -0.3328(4) 0.3880(4) 0.9148(3)
C6 C -0.3269(3) 0.2467(4) 0.8721(2)
C7 C -0.4053(3) 0.1760(4) 0.8054(2)
H4 H -0.4817 0.2146 0.7767
C8 C -0.3660(4) 0.0457(4) 0.7829(3)
H5 H -0.4157 -0.0046 0.7374
C9 C -0.2537(4) -0.0108(4) 0.8270(3)
H6 H -0.2295 -0.0988 0.8100
C10 C -0.2171(3) 0.1809(4) 0.9145(2)
C11 C -0.1536(3) 0.2691(4) 0.9881(2)
C12 C 0.3572(4) -0.0075(3) 0.9090(3)
C13 C 0.4486(4) 0.0442(4) 0.9806(2)
C14 C 0.3652(4) -0.1411(4) 0.8794(3)
H7 H 0.3036 -0.1749 0.8335
C15 C 0.4660(4) -0.2273(4) 0.9180(3)
H8 H 0.4709 -0.3176 0.8970
C16 C 0.4437(4) 0.1808(4) 1.0147(3)
H9 H 0.3775 0.2396 0.9904
Cd1 Cd 0.0000 0.0000 1.0000
N1 N -0.0531(3) 0.2296(3) 1.0474(2)
N2 N -0.1770(3) 0.0562(3) 0.8941(2)
O1 O -0.4128(4) 0.4755(3) 0.8952(3)
O2 O 0.1555(4) 0.0063(3) 0.7862(2)
O3 O 0.1465(2) 0.1308(3) 0.92860(19)
O4 O 0.2810(3) 0.2152(3) 0.8173(2)
S1 S 0.22501(9) 0.09474(10) 0.85429(7)
C12B C 0.6428(4) 0.0075(3) 1.0910(3)
C13B C 0.5514(4) -0.0442(4) 1.0194(2)
C14B C 0.6348(4) 0.1411(4) 1.1206(3)
H7B H 0.6964 0.1749 1.1665
C15B C 0.5340(4) 0.2273(4) 1.0820(3)
H8B H 0.5291 0.3176 1.1030
C16B C 0.5563(4) -0.1808(4) 0.9853(3)
H9B H 0.6225 -0.2396 1.0096
O2B O 0.8445(4) -0.0063(3) 1.2138(2)
O3B O 0.8535(2) -0.1308(3) 1.07140(19)
O4B O 0.7190(3) -0.2152(3) 1.1827(2)
S1B S 0.77499(9) -0.09474(10) 1.14571(7)
C1B C 0.0131(4) -0.3244(4) 0.8876(3)
H1B H -0.0570 -0.3029 0.8443
C2B C 0.0721(5) -0.4526(5) 0.8825(3)
H2B H 0.0398 -0.5147 0.8370
C3B C 0.1772(5) -0.4892(4) 0.9435(3)
H3B H 0.2180 -0.5743 0.9400
C4B C 0.2194(4) -0.3928(4) 1.0106(3)
C5B C 0.3328(4) -0.3880(4) 1.0852(3)
C6B C 0.3269(3) -0.2467(4) 1.1279(2)
C7B C 0.4053(3) -0.1760(4) 1.1946(2)
H4B H 0.4817 -0.2146 1.2233
C8B C 0.3660(4) -0.0457(4) 1.2171(3)
H5B H 0.4157 0.0046 1.2626
C9B C 0.2537(4) 0.0108(4) 1.1730(3)
H6B H 0.2295 0.0988 1.1900
C10B C 0.2171(3) -0.1809(4) 1.0855(2)
C11B C 0.1536(3) -0.2691(4) 1.0119(2)
N1B N 0.0531(3) -0.2296(3) 0.9526(2)
N2B N 0.1770(3) -0.0562(3) 1.1059(2)
O1B O 0.4128(4) -0.4755(3) 1.1048(3)
Cd1_2 Cd 1.0000 0.0000 1.0000
O3B_2 O -0.1465(2) -0.1308(3) 1.07140(19)
loop_
_geom_bond_atom_site_label_1
_geom_bond_atom_site_label_2
_geom_bond_site_symmetry_1
_geom_bond_site_symmetry_2
C1 H1 1_555 1_555
C2 C1 1_555 1_555
H2 C2 1_555 1_555
C3 C2 1_555 1_555
H3 C3 1_555 1_555
C4 C3 1_555 1_555
C5 C4 1_555 1_555
C6 C5 1_555 1_555
C7 C6 1_555 1_555
H4 C7 1_555 1_555
C8 C7 1_555 1_555
H5 C8 1_555 1_555
C9 C8 1_555 1_555
H6 C9 1_555 1_555
C10 C6 1_555 1_555
C11 C4 1_555 1_555
C12 C13 1_555 1_555
C13 C16 1_555 1_555
C14 C12 1_555 1_555
H7 C14 1_555 1_555
C15 C14 1_555 1_555
H8 C15 1_555 1_555
C16 H9 1_555 1_555
Cd1 N1 1_555 1_555
N1 C1 1_555 1_555
N2 C9 1_555 1_555
O1 C5 1_555 1_555
O2 S1 1_555 1_555
O3 Cd1 1_555 1_555
O4 S1 1_555 1_555
S1 C12 1_555 1_555
C12B C13B 1_555 1_555
C13B C13 1_555 1_555
C14B C12B 1_555 1_555
H7B C14B 1_555 1_555
C15B C16 1_555 1_555
H8B C15B 1_555 1_555
C16B C15 1_555 1_555
H9B C16B 1_555 1_555
O2B S1B 1_555 1_555
O3B S1B 1_555 1_555
O4B S1B 1_555 1_555
S1B C12B 1_555 1_555
C1B H1B 1_555 1_555
C2B C1B 1_555 1_555
H2B C2B 1_555 1_555
C3B C2B 1_555 1_555
H3B C3B 1_555 1_555
C4B C3B 1_555 1_555
C5B C4B 1_555 1_555
C6B C5B 1_555 1_555
C7B C6B 1_555 1_555
H4B C7B 1_555 1_555
C8B C7B 1_555 1_555
H5B C8B 1_555 1_555
C9B C8B 1_555 1_555
H6B C9B 1_555 1_555
C10B C6B 1_555 1_555
C11B C4B 1_555 1_555
N1B Cd1 1_555 1_555
N2B Cd1 1_555 1_555
O1B C5B 1_555 1_555
Cd1_2 O3B 1_555 1_555
O3B_2 Cd1 1_555 1_555
C10 C11 1_555 1_555
C10 N2 1_555 1_555
C11 N1 1_555 1_555
Cd1 N2 1_555 1_555
O3 S1 1_555 1_555
C13B C16B 1_555 1_555
C14B C15B 1_555 1_555
C1B N1B 1_555 1_555
C9B N2B 1_555 1_555
C10B C11B 1_555 1_555
C10B N2B 1_555 1_555
C11B N1B 1_555 1_555

#END
