
#######################################################################
#
#                 Cambridge Crystallographic Data Centre
#                                CCDC 
#
#######################################################################
#
# If this CIF has been generated from an entry in the Cambridge 
# Structural Database, then it will include bibliographic, chemical, 
# crystal, experimental, refinement or atomic coordinate data resulting 
# from the CCDC's data processing and validation procedures.
#
#######################################################################

data_ZILVIB
_symmetry_cell_setting           monoclinic
_symmetry_space_group_name_H-M   'P 21/n'
_symmetry_Int_Tables_number      14
_space_group_name_Hall           '-P 2yn'
loop_
_symmetry_equiv_pos_site_id
_symmetry_equiv_pos_as_xyz
1 x,y,z
2 1/2-x,1/2+y,1/2-z
3 -x,-y,-z
4 1/2+x,1/2-y,1/2+z
_cell_length_a                   11.2516(6)
_cell_length_b                   11.8134(7)
_cell_length_c                   12.4371(6)
_cell_angle_alpha                90
_cell_angle_beta                 116.2210(10)
_cell_angle_gamma                90
_cell_volume                     1483.02
loop_
_atom_site_label
_atom_site_type_symbol
_atom_site_fract_x
_atom_site_fract_y
_atom_site_fract_z
Mo1 Mo 1.07668(4) 0.62565(3) 0.25538(3)
N1 N 0.9118(4) 0.5827(3) 0.0767(3)
N2 N 0.8283(4) 0.4954(3) 0.0763(3)
N3 N 0.6109(4) 0.2246(3) 0.2362(3)
O1 O 1.0793(3) 0.7602(3) 0.1695(3)
O2 O 0.9711(3) 0.4978(3) 0.2790(3)
O3 O 0.9565(4) 0.8637(3) -0.3000(3)
O4 O 1.1533(3) 0.6652(3) 0.4008(3)
O5 O 1.1867(3) 0.5439(3) 0.2330(3)
C1 C 0.9589(4) 0.7196(4) -0.0415(4)
C2 C 1.0517(4) 0.7826(4) 0.0545(4)
C3 C 1.1104(5) 0.8755(4) 0.0301(4)
H1 H 1.1701 0.9192 0.0929
C4 C 1.0818(5) 0.9042(4) -0.0864(5)
H2 H 1.1233 0.9663 -0.1010
C5 C 0.9919(5) 0.8416(4) -0.1817(4)
C6 C 0.9313(5) 0.7504(4) -0.1585(4)
H3 H 0.8705 0.7082 -0.2222
C7 C 1.0032(9) 0.9642(7) -0.3287(6)
H4 H 0.9832 1.0272 -0.2907
H5 H 0.9610 0.9749 -0.4140
H6 H 1.0974 0.9592 -0.3011
C8 C 0.8867(4) 0.6261(4) -0.0254(4)
H7 H 0.8178 0.5953 -0.0930
C9 C 0.8685(4) 0.4585(4) 0.1850(4)
C10 C 0.7879(4) 0.3696(4) 0.2042(4)
C11 C 0.7914(5) 0.3557(4) 0.3161(4)
H8 H 0.8536 0.3940 0.3825
C12 C 0.7006(5) 0.2839(4) 0.3271(4)
H9 H 0.7020 0.2764 0.4021
C13 C 0.6142(5) 0.2339(4) 0.1305(4)
H10 H 0.5556 0.1902 0.0670
C14 C 0.6993(5) 0.3046(4) 0.1103(4)
H11 H 0.6974 0.3088 0.0349
Mo1A Mo 0.42332(4) 0.12565(3) 0.24462(3)
N3A N 0.8891(4) 0.7246(3) 0.2638(3)
loop_
_geom_bond_atom_site_label_1
_geom_bond_atom_site_label_2
_geom_bond_site_symmetry_1
_geom_bond_site_symmetry_2
Mo1 N1 1_555 1_555
N1 N2 1_555 1_555
N2 C9 1_555 1_555
N3 C12 1_555 1_555
O1 Mo1 1_555 1_555
O2 Mo1 1_555 1_555
O3 C5 1_555 1_555
O4 Mo1 1_555 1_555
O5 Mo1 1_555 1_555
C1 C2 1_555 1_555
C2 O1 1_555 1_555
C3 C2 1_555 1_555
H1 C3 1_555 1_555
C4 C3 1_555 1_555
H2 C4 1_555 1_555
C5 C4 1_555 1_555
C6 C1 1_555 1_555
H3 C6 1_555 1_555
C7 O3 1_555 1_555
H4 C7 1_555 1_555
H5 C7 1_555 1_555
H6 C7 1_555 1_555
C8 N1 1_555 1_555
H7 C8 1_555 1_555
C9 O2 1_555 1_555
C10 C9 1_555 1_555
C11 C10 1_555 1_555
H8 C11 1_555 1_555
C12 C11 1_555 1_555
H9 C12 1_555 1_555
C13 N3 1_555 1_555
H10 C13 1_555 1_555
C14 C10 1_555 1_555
H11 C14 1_555 1_555
Mo1A N3 1_555 1_555
N3A Mo1 1_555 1_555
C1 C8 1_555 1_555
C5 C6 1_555 1_555
C13 C14 1_555 1_555

#END
