
#######################################################################
#
#                 Cambridge Crystallographic Data Centre
#                                CCDC 
#
#######################################################################
#
# If this CIF has been generated from an entry in the Cambridge 
# Structural Database, then it will include bibliographic, chemical, 
# crystal, experimental, refinement or atomic coordinate data resulting 
# from the CCDC's data processing and validation procedures.
#
#######################################################################

data_ZILWOI
_symmetry_cell_setting           monoclinic
_symmetry_space_group_name_H-M   'C 2/c'
_symmetry_Int_Tables_number      15
_space_group_name_Hall           '-C 2yn'
loop_
_symmetry_equiv_pos_site_id
_symmetry_equiv_pos_as_xyz
1 x,y,z
2 -x,y,1/2-z
3 1/2+x,1/2+y,z
4 1/2-x,1/2+y,1/2-z
5 -x,-y,-z
6 x,-y,1/2+z
7 1/2-x,1/2-y,-z
8 1/2+x,1/2-y,1/2+z
_cell_length_a                   20.876(5)
_cell_length_b                   14.164(5)
_cell_length_c                   17.660(5)
_cell_angle_alpha                90
_cell_angle_beta                 118.091(5)
_cell_angle_gamma                90
_cell_volume                     4606.72
loop_
_atom_site_label
_atom_site_type_symbol
_atom_site_fract_x
_atom_site_fract_y
_atom_site_fract_z
Cd1 Cd 0.801107(6) 0.157415(9) 0.614525(7)
O1 O 0.41313(8) 0.32640(10) 0.23612(9)
N1 N 0.79376(9) -0.01114(11) 0.18337(10)
O2 O 0.66996(7) 0.20286(9) 0.43870(9)
N2 N 0.83633(8) 0.04623(10) 0.40522(9)
N3 N 0.83490(8) 0.08148(11) 0.52700(9)
O3 O 0.32245(7) 0.24475(11) 0.23342(9)
C1 C 0.44123(9) 0.21513(13) 0.34808(11)
C2 C 0.41457(11) 0.16015(14) 0.39220(14)
H1 H 0.3648 0.1517 0.3702
O4 O 0.68335(8) 0.17205(11) 0.56893(9)
N4 N 0.78903(10) 0.24723(12) 0.16134(11)
C3 C 0.56398(9) 0.17952(12) 0.45499(12)
C4 C 0.81936(9) 0.05782(12) 0.31750(11)
C5 C 0.78819(10) 0.07549(14) 0.15093(12)
H2 H 0.7786 0.0819 0.0942
C6 C 0.88766(10) 0.01240(13) 0.54401(11)
C7 C 0.79622(11) 0.15648(12) 0.19918(13)
C8 C 0.80643(10) 0.09888(13) 0.44455(11)
H3 H 0.7696 0.1427 0.4161
C9 C 0.88821(10) -0.01215(12) 0.46756(11)
C10 C 0.80848(10) -0.01975(13) 0.26563(11)
H4 H 0.8114 -0.0798 0.2884
C11 C 0.93449(11) -0.08082(14) 0.46448(13)
H5 H 0.9350 -0.0965 0.4136
C12 C 0.81254(11) 0.14801(12) 0.28464(12)
H6 H 0.8187 0.2010 0.3185
C13 C 0.84557(18) 0.47608(19) 0.1379(2)
H7 H 0.8297 0.5199 0.0935
C14 C 0.64473(10) 0.18608(12) 0.48891(12)
C15 C 0.80959(14) 0.39021(17) 0.12768(17)
C16 C 0.83627(14) 0.32327(15) 0.19331(15)
C17 C 0.51564(9) 0.22379(12) 0.37852(11)
H8 H 0.5333 0.2591 0.3479
C18 C 0.38876(10) 0.26496(13) 0.26709(11)
C19 C 0.53669(10) 0.12762(15) 0.50074(13)
H9 H 0.5685 0.0995 0.5526
C20 C 0.97972(12) -0.12446(16) 0.54126(16)
H10 H 1.0105 -0.1721 0.5418
N5 N 0.74700(14) 0.35728(17) 0.05793(17)
C21 C 0.46237(11) 0.11783(16) 0.46923(14)
H11 H 0.4445 0.0828 0.4998
C22 C 0.98061(13) -0.09922(18) 0.61808(15)
H12 H 1.0126 -0.1297 0.6685
C23 C 0.93524(11) -0.03011(16) 0.62112(13)
H13 H 0.9365 -0.0127 0.6726
C24 C 0.73713(13) 0.27344(19) 0.08076(16)
H14 H 0.6984 0.2348 0.0457
C25 C 0.8973(2) 0.3395(2) 0.27049(19)
H15 H 0.9150 0.2944 0.3139
C26 C 0.9040(2) 0.4935(2) 0.2139(2)
H16 H 0.9272 0.5516 0.2230
C27 C 0.9307(2) 0.4259(3) 0.2802(2)
H17 H 0.9718 0.4398 0.3316
Cd1E Cd 0.801107(6) -0.157415(9) 0.114525(7)
Cd1F Cd 0.698893(6) 0.342585(9) 0.385475(7)
Cd1G Cd 0.301107(6) 0.342585(9) 0.114525(7)
O1G O 0.91313(8) 0.17360(10) 0.73612(9)
N1E N 0.79376(9) 0.01114(11) 0.68337(10)
O2F O 0.83004(7) 0.29714(9) 0.56130(9)
O3G O 0.82245(7) 0.25525(11) 0.73342(9)
loop_
_geom_bond_atom_site_label_1
_geom_bond_atom_site_label_2
_geom_bond_site_symmetry_1
_geom_bond_site_symmetry_2
Cd1 N3 1_555 1_555
O1 C18 1_555 1_555
N1 C5 1_555 1_555
O2 C14 1_555 1_555
N2 C4 1_555 1_555
N3 C6 1_555 1_555
O3 C18 1_555 1_555
C1 C2 1_555 1_555
C2 H1 1_555 1_555
O4 Cd1 1_555 1_555
N4 C7 1_555 1_555
C3 C14 1_555 1_555
C4 C10 1_555 1_555
C5 H2 1_555 1_555
C6 C9 1_555 1_555
C7 C5 1_555 1_555
C8 N2 1_555 1_555
H3 C8 1_555 1_555
C9 N2 1_555 1_555
C10 N1 1_555 1_555
H4 C10 1_555 1_555
C11 C9 1_555 1_555
H5 C11 1_555 1_555
C12 C4 1_555 1_555
H6 C12 1_555 1_555
C13 H7 1_555 1_555
C14 O4 1_555 1_555
C15 C13 1_555 1_555
C16 N4 1_555 1_555
C17 C1 1_555 1_555
H8 C17 1_555 1_555
C18 C1 1_555 1_555
C19 C3 1_555 1_555
H9 C19 1_555 1_555
C20 C11 1_555 1_555
H10 C20 1_555 1_555
N5 C15 1_555 1_555
C21 C2 1_555 1_555
H11 C21 1_555 1_555
C22 C20 1_555 1_555
H12 C22 1_555 1_555
C23 C6 1_555 1_555
H13 C23 1_555 1_555
C24 N4 1_555 1_555
H14 C24 1_555 1_555
C25 C16 1_555 1_555
H15 C25 1_555 1_555
C26 C13 1_555 1_555
H16 C26 1_555 1_555
C27 C25 1_555 1_555
H17 C27 1_555 1_555
Cd1E N1 1_555 1_555
Cd1F O2 1_555 1_555
Cd1G O1 1_555 1_555
O1G Cd1 1_555 1_555
N1E Cd1 1_555 1_555
O2F Cd1 1_555 1_555
O3G Cd1 1_555 1_555
N3 C8 1_555 1_555
O3 Cd1G 1_555 1_555
C3 C17 1_555 1_555
C7 C12 1_555 1_555
C15 C16 1_555 1_555
C19 C21 1_555 1_555
N5 C24 1_555 1_555
C22 C23 1_555 1_555
C26 C27 1_555 1_555

#END
