
#######################################################################
#
#                 Cambridge Crystallographic Data Centre
#                                CCDC 
#
#######################################################################
#
# If this CIF has been generated from an entry in the Cambridge 
# Structural Database, then it will include bibliographic, chemical, 
# crystal, experimental, refinement or atomic coordinate data resulting 
# from the CCDC's data processing and validation procedures.
#
#######################################################################

data_ZILWUO
_symmetry_cell_setting           monoclinic
_symmetry_space_group_name_H-M   'C 2/c'
_symmetry_Int_Tables_number      15
_space_group_name_Hall           '-C 2yn'
loop_
_symmetry_equiv_pos_site_id
_symmetry_equiv_pos_as_xyz
1 x,y,z
2 -x,y,1/2-z
3 1/2+x,1/2+y,z
4 1/2-x,1/2+y,1/2-z
5 -x,-y,-z
6 x,-y,1/2+z
7 1/2-x,1/2-y,-z
8 1/2+x,1/2-y,1/2+z
_cell_length_a                   34.966(2)
_cell_length_b                   20.6430(10)
_cell_length_c                   26.328(2)
_cell_angle_alpha                90
_cell_angle_beta                 126.4080(10)
_cell_angle_gamma                90
_cell_volume                     15294.3
loop_
_atom_site_label
_atom_site_type_symbol
_atom_site_fract_x
_atom_site_fract_y
_atom_site_fract_z
Cd1 Cd 0.647775(12) 0.808190(16) 0.621487(16)
Cd2 Cd 0.395665(12) 1.058336(17) 0.612016(16)
Cd3 Cd 0.659743(12) 0.702671(16) 1.115687(16)
Cd4 Cd 0.912335(12) 1.048268(17) 1.625417(16)
C1 C 0.84816(18) 0.6668(3) 0.6060(2)
C2 C 0.81924(17) 0.7259(2) 0.5947(2)
C3 C 0.82359(19) 0.7818(3) 0.5696(3)
H1 H 0.8451 0.7833 0.5597
C4 C 0.7963(2) 0.8353(3) 0.5592(3)
H2 H 0.7997 0.8729 0.5428
C5 C 0.76372(19) 0.8339(3) 0.5729(3)
H3 H 0.7454 0.8702 0.5657
C6 C 0.75869(16) 0.7778(2) 0.5975(2)
C7 C 0.78651(17) 0.7246(2) 0.6078(2)
H4 H 0.7830 0.6870 0.6241
C8 C 0.72268(16) 0.7748(2) 0.6112(2)
C9 C 0.56996(17) 0.7734(2) 0.4676(2)
H5 H 0.5884 0.7903 0.4560
C10 C 0.54514(17) 0.7443(3) 0.5213(2)
H6 H 0.5441 0.7377 0.5554
C11 C 0.51026(18) 0.7278(2) 0.4615(2)
H7 H 0.4815 0.7080 0.4466
C12 C 0.49860(17) 0.7428(2) 0.3602(2)
C13 C 0.4901(2) 0.7978(2) 0.3250(2)
H8 H 0.5045 0.8365 0.3459
C14 C 0.47774(18) 0.6853(2) 0.3292(2)
H9 H 0.4836 0.6472 0.3516
C15 C 0.44785(17) 0.6856(2) 0.2640(2)
C16 C 0.44069(19) 0.7424(3) 0.2320(2)
H10 H 0.4203 0.7424 0.1882
C17 C 0.43252(19) 0.5915(2) 0.1958(2)
H11 H 0.4546 0.6021 0.1882
C18 C 0.3895(2) 0.5957(3) 0.2307(3)
H12 H 0.3763 0.6085 0.2511
C19 C 0.3788(2) 0.5424(3) 0.1955(3)
H13 H 0.3562 0.5119 0.1870
C20 C 0.60024(17) 0.9191(2) 0.6080(2)
C21 C 0.57061(16) 0.9787(2) 0.5937(2)
C22 C 0.57761(19) 1.0347(3) 0.5716(3)
H14 H 0.6013 1.0362 0.5657
C23 C 0.53538(17) 0.9778(2) 0.6024(2)
H15 H 0.5306 0.9402 0.6175
C24 C 0.50697(16) 1.0310(2) 0.5892(2)
C25 C 0.51422(19) 1.0862(3) 0.5665(3)
H16 H 0.4950 1.1223 0.5566
C26 C 0.46918(17) 1.0286(2) 0.5996(2)
C27 C 0.5496(2) 1.0885(3) 0.5582(3)
H17 H 0.5546 1.1263 0.5437
C28 C 0.31592(17) 1.0213(2) 0.4603(2)
H18 H 0.3340 1.0372 0.4478
C29 C 0.29194(18) 0.9958(3) 0.5155(2)
H19 H 0.2912 0.9911 0.5500
C30 C 0.25701(18) 0.9771(2) 0.4567(2)
H20 H 0.2285 0.9572 0.4430
C31 C 0.22175(18) 0.9293(2) 0.3255(2)
H21 H 0.2262 0.8930 0.3493
C32 C 0.24469(16) 0.9874(2) 0.3541(2)
C33 C 0.23892(19) 1.0390(3) 0.3172(2)
H22 H 0.2552 1.0773 0.3368
C34 C 0.19198(17) 0.9277(2) 0.2602(2)
C35 C 0.18737(19) 0.9814(3) 0.2264(2)
H23 H 0.1673 0.9795 0.1825
C36 C 0.17018(19) 0.8334(3) 0.1897(2)
H24 H 0.1897 0.8437 0.1778
C37 C 0.1340(2) 0.8393(3) 0.2342(3)
H25 H 0.1236 0.8530 0.2577
C38 C 0.1205(2) 0.7854(3) 0.1983(3)
H26 H 0.0989 0.7551 0.1932
C39 C 0.4245(2) 0.9226(3) 0.6890(3)
H27 H 0.4445 0.9129 0.6777
C40 C 0.3727(2) 0.9676(3) 0.6946(3)
H28 H 0.3495 0.9964 0.6874
C41 C 0.3881(2) 0.9170(3) 0.7330(3)
H29 H 0.3780 0.9041 0.7572
C42 C 0.44947(17) 0.8314(2) 0.7642(2)
C43 C 0.43756(19) 0.7716(3) 0.7358(2)
H30 H 0.4116 0.7681 0.6937
C44 C 0.48804(17) 0.8372(2) 0.8269(2)
H31 H 0.4967 0.8773 0.8470
C45 C 0.51327(16) 0.7820(2) 0.8588(2)
C46 C 0.49946(19) 0.7232(2) 0.8274(2)
H32 H 0.5165 0.6860 0.8489
C47 C 0.57900(18) 0.8403(2) 0.9550(2)
H33 H 0.5736 0.8820 0.9387
C48 C 0.61368(17) 0.8210(2) 1.0145(2)
H34 H 0.6369 0.8480 1.0464
C49 C 0.57392(17) 0.7360(2) 0.9660(2)
H35 H 0.5637 0.6932 0.9569
C50 C 0.7359(2) 0.7212(3) 1.1078(3)
C51 C 0.77127(16) 0.7244(2) 1.0929(2)
C52 C 0.78028(19) 0.6713(3) 1.0698(3)
H36 H 0.7645 0.6324 1.0636
C53 C 0.79539(17) 0.7811(2) 1.1019(2)
H37 H 0.7897 0.8172 1.1176
C54 C 0.8123(2) 0.6752(3) 1.0559(3)
H38 H 0.8181 0.6391 1.0401
C55 C 0.83598(18) 0.7321(3) 1.0649(2)
H39 H 0.8576 0.7342 1.0554
C56 C 0.82788(16) 0.7859(2) 1.0881(2)
C57 C 0.85436(17) 0.8478(2) 1.0998(2)
C58 C 0.68577(19) 0.8379(3) 1.1954(2)
H40 H 0.7089 0.8476 1.1895
C59 C 0.6296(2) 0.7923(3) 1.1904(3)
H41 H 0.6055 0.7634 1.1796
C60 C 0.6427(2) 0.8425(3) 1.2295(3)
H42 H 0.6299 0.8547 1.2506
C61 C 0.70536(17) 0.9276(2) 1.2696(2)
C62 C 0.69173(19) 0.9891(3) 1.2440(2)
H43 H 0.6659 0.9939 1.2019
C63 C 0.74361(16) 0.9197(2) 1.3321(2)
H44 H 0.7531 0.8788 1.3503
C64 C 0.76733(16) 0.9748(2) 1.3668(2)
C65 C 0.75168(18) 1.0350(2) 1.3380(2)
H45 H 0.7678 1.0717 1.3616
C66 C 0.83284(18) 0.9133(2) 1.4613(2)
H46 H 0.8270 0.8721 1.4439
C67 C 0.86736(18) 0.9306(2) 1.5205(2)
H47 H 0.8900 0.9024 1.5515
C68 C 0.82927(17) 1.0177(2) 1.4752(2)
H48 H 0.8196 1.0608 1.4672
C69 C 0.9908(2) 1.0227(3) 1.6223(3)
C70 C 1.02304(17) 1.0216(3) 1.6020(2)
C71 C 1.04698(17) 0.9650(2) 1.6085(2)
H49 H 1.0434 0.9288 1.6264
C72 C 1.0292(2) 1.0745(3) 1.5761(3)
H50 H 1.0138 1.1131 1.5719
C73 C 1.0577(2) 1.0719(3) 1.5560(3)
H51 H 1.0613 1.1083 1.5384
C74 C 1.08077(19) 1.0151(3) 1.5621(3)
H52 H 1.0997 1.0129 1.5481
C75 C 1.07581(16) 0.9610(2) 1.5892(2)
C76 C 1.10217(17) 0.8994(3) 1.5979(2)
N1 N 0.58257(13) 0.77219(19) 0.52528(18)
N2 N 0.52640(14) 0.74653(19) 0.42705(17)
N3 N 0.42408(15) 0.6276(2) 0.23035(18)
N4 N 0.40581(15) 0.5392(2) 0.17380(18)
N5 N 0.46222(18) 0.7975(2) 0.2622(2)
N6 N 0.32904(13) 1.02264(18) 0.51831(17)
N7 N 0.27230(13) 0.99362(18) 0.42064(17)
N8 N 0.16636(15) 0.8697(2) 0.22867(19)
N9 N 0.14337(15) 0.7820(2) 0.17039(19)
N10 N 0.21077(18) 1.0363(2) 0.2544(2)
N11 N 0.39548(17) 0.9718(2) 0.6671(2)
N12 N 0.42192(15) 0.8873(2) 0.73001(19)
N13 N 0.46218(16) 0.7188(2) 0.7668(2)
N14 N 0.55318(13) 0.78531(18) 0.92325(17)
N15 N 0.60971(14) 0.75611(18) 1.02103(17)
N16 N 0.65645(15) 0.7892(2) 1.16854(19)
N17 N 0.67880(14) 0.87217(19) 1.23214(18)
N18 N 0.71492(16) 1.0421(2) 1.2785(2)
N19 N 0.80750(13) 0.96922(18) 1.43116(17)
N20 N 0.86499(14) 0.99594(19) 1.52935(18)
O1 O 0.87870(12) 0.67020(17) 0.59521(17)
O2 O 0.84137(13) 0.61614(17) 0.62552(18)
O3 O 0.71221(14) 0.72275(18) 0.6227(2)
O4 O 0.70323(13) 0.82796(17) 0.60846(19)
O5 O 0.63337(12) 0.92143(17) 0.60222(18)
O6 O 0.59145(13) 0.86896(16) 0.62633(17)
O7 O 0.44585(12) 1.07912(17) 0.58954(18)
O8 O 0.46128(14) 0.97771(17) 0.6168(2)
O9 O 0.71081(13) 0.67181(18) 1.0925(2)
O10 O 0.73154(15) 0.7685(2) 1.1330(2)
O11 O 0.84170(13) 0.89847(17) 1.11236(19)
O12 O 0.88938(13) 0.84605(17) 1.09804(18)
O13 O 0.98238(16) 0.9722(3) 1.6387(2)
O14 O 0.97074(14) 1.0750(2) 1.6166(2)
O15 O 1.09210(14) 0.84876(18) 1.6132(2)
O16 O 1.13430(14) 0.90206(18) 1.59036(19)
O17 O 0.70085(17) 0.8320(2) 0.73403(19)
H53 H 0.6959 0.8039 0.7531
H54 H 0.6930 0.8686 0.7400
O18 O 0.4570(2) 1.0795(3) 0.7217(2)
H55 H 0.4543 1.1166 0.7304
H56 H 0.4545 1.0526 0.7439
O19 O 0.70455(18) 0.6654(2) 1.22114(19)
H57 H 0.7312 0.6661 1.2261
H58 H 0.7001 0.6251 1.2228
O20 O 0.94967(17) 1.0880(2) 1.72948(18)
H59 H 0.9732 1.0714 1.7715
H60 H 0.9512 1.1320 1.7413
Cd1G Cd 0.147775(12) 0.691810(16) 0.121487(16)
Cd2B Cd 0.895665(12) 0.558336(17) 0.612016(16)
Cd3G Cd 1.159743(12) 0.797329(16) 1.615687(16)
Cd4E Cd 0.912335(12) 0.951732(17) 1.125417(16)
Cd4G Cd 0.412335(12) 0.451732(17) 0.125417(16)
N4G N 0.90581(15) 0.9608(2) 1.67380(18)
N9G N 0.64337(15) 0.7180(2) 0.67039(19)
O1B O 0.37870(12) 1.17020(17) 0.59521(17)
O2B O 0.34137(13) 1.11614(17) 0.62552(18)
O11E O 0.84170(13) 1.10153(17) 1.61236(19)
O12E O 0.88938(13) 1.15395(17) 1.59804(18)
O15G O 0.59210(14) 0.65124(18) 1.1132(2)
O16G O 0.63430(14) 0.59794(18) 1.09036(19)
loop_
_geom_bond_atom_site_label_1
_geom_bond_atom_site_label_2
_geom_bond_site_symmetry_1
_geom_bond_site_symmetry_2
Cd1 N1 1_555 1_555
Cd2 N6 1_555 1_555
Cd3 N15 1_555 1_555
Cd4 N20 1_555 1_555
C1 C2 1_555 1_555
C2 C3 1_555 1_555
C3 H1 1_555 1_555
C4 C3 1_555 1_555
H2 C4 1_555 1_555
C5 C4 1_555 1_555
H3 C5 1_555 1_555
C6 C5 1_555 1_555
C7 C2 1_555 1_555
H4 C7 1_555 1_555
C8 C6 1_555 1_555
C9 H5 1_555 1_555
C10 H6 1_555 1_555
C11 C10 1_555 1_555
H7 C11 1_555 1_555
C12 C13 1_555 1_555
C13 H8 1_555 1_555
C14 C12 1_555 1_555
H9 C14 1_555 1_555
C15 C14 1_555 1_555
C16 C15 1_555 1_555
H10 C16 1_555 1_555
C17 H11 1_555 1_555
C18 H12 1_555 1_555
C19 C18 1_555 1_555
H13 C19 1_555 1_555
C20 C21 1_555 1_555
C21 C22 1_555 1_555
C22 H14 1_555 1_555
C23 C21 1_555 1_555
H15 C23 1_555 1_555
C24 C23 1_555 1_555
C25 C24 1_555 1_555
H16 C25 1_555 1_555
C26 C24 1_555 1_555
C27 C22 1_555 1_555
H17 C27 1_555 1_555
C28 H18 1_555 1_555
C29 H19 1_555 1_555
C30 C29 1_555 1_555
H20 C30 1_555 1_555
C31 H21 1_555 1_555
C32 C31 1_555 1_555
C33 C32 1_555 1_555
H22 C33 1_555 1_555
C34 C31 1_555 1_555
C35 C34 1_555 1_555
H23 C35 1_555 1_555
C36 H24 1_555 1_555
C37 H25 1_555 1_555
C38 C37 1_555 1_555
H26 C38 1_555 1_555
C39 H27 1_555 1_555
C40 H28 1_555 1_555
C41 C40 1_555 1_555
H29 C41 1_555 1_555
C42 C43 1_555 1_555
C43 H30 1_555 1_555
C44 C42 1_555 1_555
H31 C44 1_555 1_555
C45 C44 1_555 1_555
C46 C45 1_555 1_555
H32 C46 1_555 1_555
C47 H33 1_555 1_555
C48 C47 1_555 1_555
H34 C48 1_555 1_555
C49 H35 1_555 1_555
C50 C51 1_555 1_555
C51 C52 1_555 1_555
C52 H36 1_555 1_555
C53 C51 1_555 1_555
H37 C53 1_555 1_555
C54 C52 1_555 1_555
H38 C54 1_555 1_555
C55 C54 1_555 1_555
H39 C55 1_555 1_555
C56 C53 1_555 1_555
C57 C56 1_555 1_555
C58 H40 1_555 1_555
C59 H41 1_555 1_555
C60 C59 1_555 1_555
H42 C60 1_555 1_555
C61 C62 1_555 1_555
C62 H43 1_555 1_555
C63 C61 1_555 1_555
H44 C63 1_555 1_555
C64 C63 1_555 1_555
C65 C64 1_555 1_555
H45 C65 1_555 1_555
C66 H46 1_555 1_555
C67 C66 1_555 1_555
H47 C67 1_555 1_555
C68 H48 1_555 1_555
C69 C70 1_555 1_555
C70 C71 1_555 1_555
C71 H49 1_555 1_555
C72 C70 1_555 1_555
H50 C72 1_555 1_555
C73 C72 1_555 1_555
H51 C73 1_555 1_555
C74 C73 1_555 1_555
H52 C74 1_555 1_555
C75 C71 1_555 1_555
C76 C75 1_555 1_555
N1 C9 1_555 1_555
N2 C9 1_555 1_555
N3 C15 1_555 1_555
N4 C17 1_555 1_555
N5 C13 1_555 1_555
N6 C28 1_555 1_555
N7 C28 1_555 1_555
N8 C34 1_555 1_555
N9 C36 1_555 1_555
N10 C33 1_555 1_555
N11 Cd2 1_555 1_555
N12 C39 1_555 1_555
N13 C43 1_555 1_555
N14 C45 1_555 1_555
N15 C48 1_555 1_555
N16 Cd3 1_555 1_555
N17 C58 1_555 1_555
N18 C62 1_555 1_555
N19 C64 1_555 1_555
N20 C67 1_555 1_555
O1 C1 1_555 1_555
O2 C1 1_555 1_555
O3 C8 1_555 1_555
O4 Cd1 1_555 1_555
O5 Cd1 1_555 1_555
O6 Cd1 1_555 1_555
O7 Cd2 1_555 1_555
O8 Cd2 1_555 1_555
O9 Cd3 1_555 1_555
O10 Cd3 1_555 1_555
O11 C57 1_555 1_555
O12 C57 1_555 1_555
O13 Cd4 1_555 1_555
O14 Cd4 1_555 1_555
O15 C76 1_555 1_555
O16 C76 1_555 1_555
O17 Cd1 1_555 1_555
H53 O17 1_555 1_555
H54 O17 1_555 1_555
O18 Cd2 1_555 1_555
H55 O18 1_555 1_555
H56 O18 1_555 1_555
O19 Cd3 1_555 1_555
H57 O19 1_555 1_555
H58 O19 1_555 1_555
O20 Cd4 1_555 1_555
H59 O20 1_555 1_555
H60 O20 1_555 1_555
Cd1G N9 1_555 1_555
Cd2B O1 1_555 1_555
Cd3G O15 1_555 1_555
Cd4E O11 1_555 1_555
Cd4G N4 1_555 1_555
N4G Cd4 1_555 1_555
N9G Cd1 1_555 1_555
O1B Cd2 1_555 1_555
O2B Cd2 1_555 1_555
O11E Cd4 1_555 1_555
O12E Cd4 1_555 1_555
O15G Cd3 1_555 1_555
O16G Cd3 1_555 1_555
C6 C7 1_555 1_555
C8 O4 1_555 1_555
C10 N1 1_555 1_555
C11 N2 1_555 1_555
C12 N2 1_555 1_555
C16 N5 1_555 1_555
C17 N3 1_555 1_555
C18 N3 1_555 1_555
C19 N4 1_555 1_555
C20 O5 1_555 1_555
C20 O6 1_555 1_555
C25 C27 1_555 1_555
C26 O7 1_555 1_555
C26 O8 1_555 1_555
C29 N6 1_555 1_555
C30 N7 1_555 1_555
C32 N7 1_555 1_555
C35 N10 1_555 1_555
C36 N8 1_555 1_555
C37 N8 1_555 1_555
C38 N9 1_555 1_555
C39 N11 1_555 1_555
C40 N11 1_555 1_555
C41 N12 1_555 1_555
C42 N12 1_555 1_555
C46 N13 1_555 1_555
C47 N14 1_555 1_555
C49 N14 1_555 1_555
C49 N15 1_555 1_555
C50 O9 1_555 1_555
C50 O10 1_555 1_555
C55 C56 1_555 1_555
C58 N16 1_555 1_555
C59 N16 1_555 1_555
C60 N17 1_555 1_555
C61 N17 1_555 1_555
C65 N18 1_555 1_555
C66 N19 1_555 1_555
C68 N19 1_555 1_555
C68 N20 1_555 1_555
C69 O13 1_555 1_555
C69 O14 1_555 1_555
C74 C75 1_555 1_555
O2 Cd2B 1_555 1_555
O12 Cd4E 1_555 1_555
O16 Cd3G 1_555 1_555

#END
