
#######################################################################
#
#                 Cambridge Crystallographic Data Centre
#                                CCDC 
#
#######################################################################
#
# If this CIF has been generated from an entry in the Cambridge 
# Structural Database, then it will include bibliographic, chemical, 
# crystal, experimental, refinement or atomic coordinate data resulting 
# from the CCDC's data processing and validation procedures.
#
#######################################################################

data_ZILZAX
_symmetry_cell_setting           triclinic
_symmetry_space_group_name_H-M   'P -1'
_symmetry_Int_Tables_number      2
_space_group_name_Hall           '-P 1'
loop_
_symmetry_equiv_pos_site_id
_symmetry_equiv_pos_as_xyz
1 x,y,z
2 -x,-y,-z
_cell_length_a                   9.941(6)
_cell_length_b                   12.433(7)
_cell_length_c                   21.299(12)
_cell_angle_alpha                105.511(7)
_cell_angle_beta                 90.826(7)
_cell_angle_gamma                98.693(6)
_cell_volume                     2503.31
loop_
_atom_site_label
_atom_site_type_symbol
_atom_site_fract_x
_atom_site_fract_y
_atom_site_fract_z
Tm1 Tm 0.51775(6) 0.67986(5) 0.19718(3)
Tm2 Tm 0.42385(6) 0.33267(5) 0.30475(3)
O1 O 0.4390(11) 0.5125(8) 0.3434(5)
O2 O 0.4882(11) 0.6407(9) 0.2908(5)
O3 O 0.4498(11) 0.3717(9) 0.2115(5)
O4 O 0.5013(10) 0.4976(8) 0.1570(5)
O5 O 0.1898(9) 0.3425(8) 0.3003(5)
O6 O 0.2552(10) 0.1888(9) 0.2415(5)
O7 O 0.6853(9) 0.8207(9) 0.2619(5)
O8 O 0.7559(11) 0.6720(9) 0.2030(5)
O9 O 1.0998(11) 1.0831(9) 0.3675(6)
H1 H 1.1795 1.1128 0.3682
O10 O 0.6535(11) 0.7882(10) 0.6278(5)
O11 O 0.5109(11) 0.6376(9) 0.5861(5)
O12 O 0.6468(14) 1.0031(9) 0.4595(6)
H2 H 0.6318 1.0097 0.4229
O13 O 0.3387(15) 0.0006(9) 0.0439(6)
H3 H 0.3391 -0.0033 0.0818
O14 O -0.1584(11) -0.0738(9) 0.1429(6)
H4 H -0.2400 -0.0978 0.1350
C1 C 0.1596(14) 0.2437(12) 0.2628(7)
C2 C -0.0082(14) 0.0855(13) 0.2004(7)
H5 H 0.0632 0.0500 0.1818
C3 C 0.0182(15) 0.1890(12) 0.2423(7)
C4 C -0.0876(14) 0.2450(13) 0.2674(7)
H6 H -0.0695 0.3179 0.2952
C5 C -0.1411(15) 0.0315(12) 0.1847(7)
C6 C 0.7816(14) 0.7681(12) 0.2409(7)
C7 C 0.9260(13) 0.8200(12) 0.2625(7)
C8 C 1.0339(14) 0.7660(12) 0.2381(7)
H7 H 1.0177 0.6937 0.2095
C9 C 0.9490(13) 0.9262(11) 0.3059(7)
H8 H 0.8763 0.9621 0.3223
C10 C 0.4784(14) 0.6125(13) 0.3425(6)
C11 C 0.5215(13) 0.7020(11) 0.4046(6)
C12 C 0.5261(13) 0.6718(11) 0.4610(6)
H9 H 0.5003 0.5971 0.4618
C13 C 0.5603(15) 0.8112(13) 0.4028(7)
H10 H 0.5573 0.8294 0.3632
C14 C 0.6045(16) 0.8954(12) 0.4602(7)
C15 C 0.4661(13) 0.3976(12) 0.1600(6)
C16 C 0.4468(14) 0.3041(12) 0.0976(6)
C17 C 0.4044(14) 0.1965(12) 0.1006(7)
H11 H 0.3902 0.1820 0.1408
C18 C 1.0809(15) 0.9781(13) 0.3246(8)
C19 C 1.1877(15) 0.9255(13) 0.3006(7)
H12 H 1.2766 0.9611 0.3141
C20 C 1.1646(14) 0.8200(13) 0.2565(7)
C21 C 0.6103(14) 0.8677(12) 0.5172(7)
H13 H 0.6407 0.9232 0.5557
C22 C 0.5712(13) 0.7573(12) 0.5183(7)
C23 C 0.5792(15) 0.7261(12) 0.5806(7)
C24 C 0.4641(13) 0.3283(13) 0.0393(6)
H14 H 0.4910 0.4024 0.0377
C25 C 0.4615(14) 0.2637(13) -0.0813(6)
C26 C 0.4002(14) 0.1317(12) -0.0154(7)
H15 H 0.3849 0.0737 -0.0540
C27 C 0.3820(17) 0.1073(12) 0.0432(7)
C28 C -0.2195(13) 0.1916(12) 0.2509(7)
C29 C -0.2471(14) 0.0848(12) 0.2091(7)
H16 H -0.3366 0.0492 0.1976
C30 C -0.3352(14) 0.2461(15) 0.2754(7)
O15 O -0.3245(10) 0.3552(9) 0.2987(5)
O16 O -0.4525(9) 0.1931(10) 0.2720(5)
O17 O 1.2698(10) 0.6643(9) 0.2031(5)
C31 C 1.2855(15) 0.7646(11) 0.2300(7)
C32 C 0.4408(13) 0.2406(12) -0.0177(6)
O18 O 0.4067(11) 0.1944(8) -0.1327(5)
O19 O 0.5328(12) 0.3518(9) -0.0858(5)
O20 O 1.3965(10) 0.8282(8) 0.2365(5)
Tm1_2 Tm 1.51775(6) 0.67986(5) 0.19718(3)
Tm1A Tm 0.48225(6) 0.32014(5) -0.19718(3)
Tm2_2 Tm -0.57615(6) 0.33267(5) 0.30475(3)
Tm2A Tm 0.57615(6) 0.66733(5) 0.69525(3)
O10A O 0.3465(11) 0.2118(10) 0.3722(5)
O11A O 0.4891(11) 0.3624(9) 0.4139(5)
O15_2 O 0.6755(10) 0.3552(9) 0.2987(5)
O16_2 O 0.5475(9) 0.1931(10) 0.2720(5)
O17_2 O 0.2698(10) 0.6643(9) 0.2031(5)
O18A O 0.5933(11) 0.8056(8) 0.1327(5)
O19A O 0.4672(12) 0.6482(9) 0.0858(5)
O20_2 O 0.3965(10) 0.8282(8) 0.2365(5)
C33 C 0.1341(17) 0.3472(15) 0.4962(10)
H17 H 0.1208 0.3305 0.4511
C34 C 0.1761(15) 0.5502(17) 0.4433(9)
H18 H 0.1642 0.4803 0.4123
C35 C 0.140(2) 0.2856(17) 0.5912(10)
H19 H 0.1274 0.2279 0.6118
C36 C 0.1191(16) 0.2626(18) 0.5251(10)
H20 H 0.0945 0.1881 0.5000
C37 C 0.1691(15) 0.4591(16) 0.5326(8)
N1 N 0.1919(13) 0.4761(13) 0.5959(7)
H21 H 0.2164 0.5446 0.6193
C38 C 0.1798(19) 0.3951(16) 0.6262(10)
H22 H 0.1983 0.4130 0.6710
C39 C 0.1828(15) 0.5591(16) 0.5086(8)
N2 N 0.1984(14) 0.6564(13) 0.5547(8)
C40 C 0.2089(18) 0.7506(17) 0.5366(10)
H23 H 0.2167 0.8195 0.5683
C41 C 0.2085(17) 0.7490(18) 0.4718(12)
H24 H 0.2225 0.8162 0.4597
C42 C 0.1876(18) 0.6482(18) 0.4259(11)
H25 H 0.1811 0.6461 0.3819
N3 N 0.8150(14) 0.4843(14) 0.1032(8)
H26 H 0.8267 0.5557 0.1220
N4 N 0.8667(16) 0.6454(14) 0.0457(8)
C43 C 0.8388(16) 0.5430(15) 0.0059(8)
C44 C 0.890(2) 0.7310(19) 0.0195(12)
H27 H 0.9097 0.8039 0.0471
C45 C 0.8133(15) 0.4512(14) 0.0379(8)
C46 C 0.7811(18) 0.2635(18) 0.0447(11)
H28 H 0.7715 0.1864 0.0243
C47 C 0.7948(16) 0.3411(17) 0.0084(9)
H29 H 0.7911 0.3161 -0.0369
C48 C 0.886(2) 0.717(2) -0.0454(13)
H30 H 0.9010 0.7791 -0.0625
C49 C 0.858(2) 0.609(2) -0.0853(12)
H31 H 0.8591 0.5972 -0.1302
C50 C 0.8286(17) 0.5195(17) -0.0605(9)
H32 H 0.8030 0.4463 -0.0871
C51 C 0.782(2) 0.302(2) 0.1104(11)
H33 H 0.7702 0.2508 0.1354
C52 C 0.7999(19) 0.414(2) 0.1402(10)
H34 H 0.8014 0.4412 0.1855
O21 O 0.5899(16) 0.0254(11) 0.3408(6)
H35 H 0.6152 -0.0319 0.3150
H36 H 0.5711 0.0688 0.3182
O22 O 0.0753(15) 0.5162(14) 0.2585(10)
H37 H 0.101(14) 0.458(9) 0.265(9)
H38 H 0.142(15) 0.549(15) 0.242(13)
O23 O 0.3433(16) 0.9841(11) 0.1662(6)
H39 H 0.3122 1.0285 0.1983
H40 H 0.4052 0.9560 0.1813
loop_
_geom_bond_atom_site_label_1
_geom_bond_atom_site_label_2
_geom_bond_site_symmetry_1
_geom_bond_site_symmetry_2
Tm1 O2 1_555 1_555
Tm2 O1 1_555 1_555
O1 C10 1_555 1_555
O2 C10 1_555 1_555
O3 Tm2 1_555 1_555
O4 Tm1 1_555 1_555
O5 Tm2 1_555 1_555
O6 Tm2 1_555 1_555
O7 Tm1 1_555 1_555
O8 Tm1 1_555 1_555
O9 H1 1_555 1_555
O10 C23 1_555 1_555
O11 C23 1_555 1_555
O12 H2 1_555 1_555
O13 H3 1_555 1_555
O14 H4 1_555 1_555
C1 O5 1_555 1_555
C2 H5 1_555 1_555
C3 C1 1_555 1_555
C4 C3 1_555 1_555
H6 C4 1_555 1_555
C5 O14 1_555 1_555
C6 O7 1_555 1_555
C7 C6 1_555 1_555
C8 C7 1_555 1_555
H7 C8 1_555 1_555
C9 C7 1_555 1_555
H8 C9 1_555 1_555
C10 C11 1_555 1_555
C11 C12 1_555 1_555
C12 H9 1_555 1_555
C13 C11 1_555 1_555
H10 C13 1_555 1_555
C14 O12 1_555 1_555
C15 O3 1_555 1_555
C16 C15 1_555 1_555
C17 C16 1_555 1_555
H11 C17 1_555 1_555
C18 O9 1_555 1_555
C19 C18 1_555 1_555
H12 C19 1_555 1_555
C20 C8 1_555 1_555
C21 C14 1_555 1_555
H13 C21 1_555 1_555
C22 C12 1_555 1_555
C23 C22 1_555 1_555
C24 C16 1_555 1_555
H14 C24 1_555 1_555
C25 C32 1_555 1_555
C26 H15 1_555 1_555
C27 O13 1_555 1_555
C28 C4 1_555 1_555
C29 C5 1_555 1_555
H16 C29 1_555 1_555
C30 C28 1_555 1_555
O15 C30 1_555 1_555
O16 C30 1_555 1_555
O17 C31 1_555 1_555
C31 C20 1_555 1_555
C32 C24 1_555 1_555
O18 C25 1_555 1_555
O19 C25 1_555 1_555
O20 C31 1_555 1_555
C33 H17 1_555 1_555
C34 H18 1_555 1_555
C35 H19 1_555 1_555
C36 C33 1_555 1_555
H20 C36 1_555 1_555
C37 C33 1_555 1_555
N1 C37 1_555 1_555
H21 N1 1_555 1_555
C38 C35 1_555 1_555
H22 C38 1_555 1_555
C39 C34 1_555 1_555
N2 C39 1_555 1_555
C40 N2 1_555 1_555
H23 C40 1_555 1_555
C41 C40 1_555 1_555
H24 C41 1_555 1_555
C42 C34 1_555 1_555
H25 C42 1_555 1_555
N3 H26 1_555 1_555
N4 C43 1_555 1_555
C43 C45 1_555 1_555
C44 N4 1_555 1_555
H27 C44 1_555 1_555
C45 N3 1_555 1_555
C46 H28 1_555 1_555
C47 C45 1_555 1_555
H29 C47 1_555 1_555
C48 C44 1_555 1_555
H30 C48 1_555 1_555
C49 C48 1_555 1_555
H31 C49 1_555 1_555
C50 C43 1_555 1_555
H32 C50 1_555 1_555
C51 C46 1_555 1_555
H33 C51 1_555 1_555
C52 N3 1_555 1_555
H34 C52 1_555 1_555
O21 H35 1_555 1_555
H36 O21 1_555 1_555
O22 H37 1_555 1_555
H38 O22 1_555 1_555
O23 H39 1_555 1_555
H40 O23 1_555 1_555
Tm1_2 O17 1_555 1_555
Tm1A O18 1_555 1_555
Tm2_2 O15 1_555 1_555
Tm2A O10 1_555 1_555
O10A Tm2 1_555 1_555
O11A Tm2 1_555 1_555
O15_2 Tm2 1_555 1_555
O16_2 Tm2 1_555 1_555
O17_2 Tm1 1_555 1_555
O18A Tm1 1_555 1_555
O19A Tm1 1_555 1_555
O20_2 Tm1 1_555 1_555
O4 C15 1_555 1_555
O6 C1 1_555 1_555
O8 C6 1_555 1_555
O11 Tm2A 1_555 1_555
C2 C3 1_555 1_555
C2 C5 1_555 1_555
C9 C18 1_555 1_555
C13 C14 1_555 1_555
C17 C27 1_555 1_555
C19 C20 1_555 1_555
C21 C22 1_555 1_555
C26 C27 1_555 1_555
C26 C32 1_555 1_555
C28 C29 1_555 1_555
O16 Tm2_2 1_555 1_555
O19 Tm1A 1_555 1_555
O20 Tm1_2 1_555 1_555
C35 C36 1_555 1_555
C37 C39 1_555 1_555
N1 C38 1_555 1_555
C41 C42 1_555 1_555
C46 C47 1_555 1_555
C49 C50 1_555 1_555
C51 C52 1_555 1_555

#END
