
#######################################################################
#
#                 Cambridge Crystallographic Data Centre
#                                CCDC 
#
#######################################################################
#
# If this CIF has been generated from an entry in the Cambridge 
# Structural Database, then it will include bibliographic, chemical, 
# crystal, experimental, refinement or atomic coordinate data resulting 
# from the CCDC's data processing and validation procedures.
#
#######################################################################

data_ZILZEB
_symmetry_cell_setting           triclinic
_symmetry_space_group_name_H-M   'P -1'
_symmetry_Int_Tables_number      2
_space_group_name_Hall           '-P 1'
loop_
_symmetry_equiv_pos_site_id
_symmetry_equiv_pos_as_xyz
1 x,y,z
2 -x,-y,-z
_cell_length_a                   9.987(3)
_cell_length_b                   15.401(4)
_cell_length_c                   18.105(4)
_cell_angle_alpha                97.158(3)
_cell_angle_beta                 99.337(3)
_cell_angle_gamma                107.691(3)
_cell_volume                     2572.7
loop_
_atom_site_label
_atom_site_type_symbol
_atom_site_fract_x
_atom_site_fract_y
_atom_site_fract_z
Er1 Er 0.74884(3) 0.009194(18) 1.010777(15)
C1 C 0.9486(7) 0.1367(4) 0.6440(3)
C2 C 0.8355(6) 0.1384(4) 0.6882(3)
C3 C 0.8312(6) 0.0956(4) 0.7509(3)
H1 H 0.8964 0.0651 0.7642
C4 C 0.7287(6) 0.0985(4) 0.7942(3)
C5 C 0.7265(7) 0.0548(4) 0.8638(3)
C6 C 0.6347(6) 0.1470(4) 0.7757(3)
H2 H 0.5681 0.1505 0.8054
C7 C 0.6407(7) 0.1902(5) 0.7126(4)
C8 C 0.7400(6) 0.1842(4) 0.6690(3)
H3 H 0.7423 0.2115 0.6260
C9 C 1.2763(7) 0.2952(4) 0.7788(4)
C10 C 1.1676(6) 0.2832(4) 0.8279(3)
C11 C 1.1623(6) 0.2196(4) 0.8763(3)
H4 H 1.2234 0.1845 0.8769
C12 C 1.0649(6) 0.2090(4) 0.9237(3)
C13 C 1.0562(6) 0.1403(4) 0.9759(3)
C14 C 0.9774(6) 0.2635(4) 0.9248(3)
H5 H 0.9143 0.2574 0.9579
C15 C 0.9840(6) 0.3271(4) 0.8765(4)
C16 C 1.0779(6) 0.3357(4) 0.8276(4)
H6 H 1.0806 0.3772 0.7942
C17 C 0.5739(7) 0.1447(4) 1.0885(3)
C18 C 0.6304(6) 0.2302(4) 1.1492(3)
C19 C 0.5400(6) 0.2502(4) 1.1942(3)
H7 H 0.4455 0.2110 1.1865
C20 C 0.5912(6) 0.3289(4) 1.2507(3)
C21 C 0.4991(7) 0.3521(5) 1.3026(4)
C22 C 0.7291(7) 0.3878(4) 1.2603(4)
H8 H 0.7620 0.4413 1.2974
C23 C 0.8205(7) 0.3686(5) 1.2153(4)
C24 C 0.7709(7) 0.2887(4) 1.1613(3)
H9 H 0.8326 0.2738 1.1326
O1 O 0.9280(5) 0.1624(4) 0.5784(3)
H10 H 0.9926 0.1590 0.5566
O2 O 0.6200(5) -0.0728(3) 1.0958(3)
H11 H 0.5369 -0.0678 1.0968
H12 H 0.6486 -0.0879 1.1376
O3 O 1.0498(5) 0.1123(4) 0.6664(3)
O4 O 0.9019(7) 0.0577(4) 1.1359(3)
H13 H 0.9122 0.0264 1.1696
H14 H 0.9741 0.1096 1.1487
O5 O 0.7953(5) 0.0014(3) 0.8757(2)
O6 O 0.6573(4) 0.0792(3) 0.9114(2)
O7 O 0.5527(6) 0.2385(4) 0.6919(3)
H15 H 0.5069 0.2438 0.7249
O8 O 1.2652(6) 0.3519(4) 0.7307(3)
H16 H 1.3369 0.3652 0.7122
O9 O 1.3659(5) 0.2576(3) 0.7829(3)
O10 O 1.1504(5) 0.1018(3) 0.9831(3)
O11 O 0.9538(4) 0.1237(3) 1.0100(2)
O12 O 0.9002(5) 0.3818(3) 0.8752(3)
H17 H 0.8525 0.3728 0.9080
O13 O 0.6618(5) 0.1134(3) 1.0634(3)
O14 O 0.4417(5) 0.1101(3) 1.0658(3)
O15 O 0.5438(6) 0.4204(3) 1.3530(3)
O16 O 0.3701(5) 0.2924(4) 1.2908(3)
H18 H 0.3238 0.3117 1.3183
O17 O 0.9530(5) 0.4313(4) 1.2280(3)
H19 H 1.0047 0.4088 1.2069
Er1A Er 0.25116(3) -0.009194(18) 0.989223(15)
Er1A_2 Er 1.25116(3) -0.009194(18) 0.989223(15)
O10A O 0.8496(5) -0.1018(3) 1.0169(3)
O14A O 0.5583(5) -0.1101(3) 0.9342(3)
C25 C 0.5132(7) 0.3892(4) 0.0561(4)
C26 C 0.6477(7) 0.4578(5) 0.0736(4)
H20 H 0.6665 0.5095 0.1111
C27 C 0.7539(8) 0.4494(5) 0.0352(5)
H21 H 0.8423 0.4968 0.0475
C28 C 0.6087(8) 0.3112(5) -0.0336(4)
H22 H 0.5945 0.2599 -0.0707
C29 C 0.4972(7) 0.3132(5) 0.0011(4)
H23 H 0.4111 0.2639 -0.0122
C30 C 0.3966(7) 0.3947(4) 0.0949(3)
C31 C 0.2859(7) 0.3150(5) 0.0973(4)
H24 H 0.2874 0.2569 0.0770
C32 C 0.1731(7) 0.3232(5) 0.1304(4)
H25 H 0.0991 0.2691 0.1303
C33 C 0.2722(8) 0.4784(5) 0.1616(4)
H26 H 0.2697 0.5351 0.1847
C34 C 0.3877(7) 0.4782(5) 0.1291(4)
H27 H 0.4595 0.5337 0.1301
N1 N 0.7356(6) 0.3778(4) -0.0175(3)
N2 N 0.1646(6) 0.4029(5) 0.1619(3)
C35 C 0.0906(7) 0.6306(4) 0.4886(4)
C36 C 0.0568(8) 0.6044(5) 0.4103(5)
H28 H -0.0355 0.5957 0.3837
C37 C 0.1559(10) 0.5913(6) 0.3720(5)
H29 H 0.1281 0.5722 0.3194
C38 C 0.3274(10) 0.6305(7) 0.4802(6)
H30 H 0.4216 0.6414 0.5052
C39 C 0.2297(9) 0.6425(7) 0.5228(5)
H31 H 0.2584 0.6588 0.5756
C40 C -0.0145(7) 0.6437(5) 0.5342(4)
C41 C 0.0302(9) 0.6933(7) 0.6080(5)
H32 H 0.1280 0.7199 0.6292
C42 C -0.0670(10) 0.7037(7) 0.6498(5)
H33 H -0.0337 0.7367 0.6995
C43 C -0.2522(9) 0.6216(6) 0.5521(6)
H34 H -0.3506 0.5954 0.5324
C44 C -0.1600(8) 0.6098(6) 0.5064(5)
H35 H -0.1965 0.5786 0.4563
N3 N 0.2931(8) 0.6041(4) 0.4053(5)
N4 N -0.2085(7) 0.6681(5) 0.6223(4)
C45 C 0.4746(7) 0.1080(5) 0.4102(4)
C46 C 0.4756(8) 0.1074(5) 0.3329(4)
H36 H 0.4033 0.1201 0.3015
C47 C 0.5836(8) 0.0878(5) 0.3036(4)
H37 H 0.5824 0.0884 0.2522
C48 C 0.6876(9) 0.0685(6) 0.4190(5)
H38 H 0.7599 0.0542 0.4490
C49 C 0.5867(8) 0.0886(6) 0.4520(4)
H39 H 0.5926 0.0893 0.5039
C50 C 0.3572(8) 0.1237(5) 0.4428(4)
C51 C 0.3760(8) 0.1595(6) 0.5195(4)
H40 H 0.4666 0.1774 0.5512
C52 C 0.2620(9) 0.1686(6) 0.5485(5)
H41 H 0.2775 0.1915 0.6003
C53 C 0.1093(8) 0.1126(6) 0.4326(4)
H42 H 0.0175 0.0959 0.4023
C54 C 0.2186(8) 0.1016(5) 0.3994(4)
H43 H 0.2000 0.0792 0.3474
N5 N 0.6899(7) 0.0681(4) 0.3445(4)
N6 N 0.1296(7) 0.1462(4) 0.5064(3)
O18 O 0.4517(6) 0.4001(4) 0.6482(3)
H44 H 0.5325 0.3945 0.6443
H45 H 0.4603 0.4570 0.6508
O19 O 0.7911(6) 0.9696(4) 0.2426(3)
H46 H 0.8438 0.9545 0.2768
H47 H 0.7416 0.9968 0.2643
O20 O 0.1593(10) 0.1323(8) 0.2108(6)
H48 H 0.1874 0.0873 0.1968
H49 H 0.2283 0.1724 0.2434
loop_
_geom_bond_atom_site_label_1
_geom_bond_atom_site_label_2
_geom_bond_site_symmetry_1
_geom_bond_site_symmetry_2
Er1 O2 1_555 1_555
C1 C2 1_555 1_555
C2 C3 1_555 1_555
C3 H1 1_555 1_555
C4 C3 1_555 1_555
C5 C4 1_555 1_555
C6 C4 1_555 1_555
H2 C6 1_555 1_555
C7 C6 1_555 1_555
C8 C2 1_555 1_555
H3 C8 1_555 1_555
C9 C10 1_555 1_555
C10 C11 1_555 1_555
C11 H4 1_555 1_555
C12 C11 1_555 1_555
C13 C12 1_555 1_555
C14 C12 1_555 1_555
H5 C14 1_555 1_555
C15 C14 1_555 1_555
C16 C10 1_555 1_555
H6 C16 1_555 1_555
C17 C18 1_555 1_555
C18 C19 1_555 1_555
C19 H7 1_555 1_555
C20 C19 1_555 1_555
C21 C20 1_555 1_555
C22 C20 1_555 1_555
H8 C22 1_555 1_555
C23 C22 1_555 1_555
C24 C18 1_555 1_555
H9 C24 1_555 1_555
O1 C1 1_555 1_555
H10 O1 1_555 1_555
O2 H11 1_555 1_555
H12 O2 1_555 1_555
O3 C1 1_555 1_555
O4 Er1 1_555 1_555
H13 O4 1_555 1_555
H14 O4 1_555 1_555
O5 Er1 1_555 1_555
O6 Er1 1_555 1_555
O7 C7 1_555 1_555
H15 O7 1_555 1_555
O8 C9 1_555 1_555
H16 O8 1_555 1_555
O9 C9 1_555 1_555
O10 C13 1_555 1_555
O11 Er1 1_555 1_555
O12 C15 1_555 1_555
H17 O12 1_555 1_555
O13 Er1 1_555 1_555
O14 C17 1_555 1_555
O15 C21 1_555 1_555
O16 C21 1_555 1_555
H18 O16 1_555 1_555
O17 C23 1_555 1_555
H19 O17 1_555 1_555
C25 C26 1_555 1_555
C26 H20 1_555 1_555
C27 C26 1_555 1_555
H21 C27 1_555 1_555
C28 H22 1_555 1_555
C29 C25 1_555 1_555
H23 C29 1_555 1_555
C30 C25 1_555 1_555
C31 C30 1_555 1_555
H24 C31 1_555 1_555
C32 C31 1_555 1_555
H25 C32 1_555 1_555
C33 H26 1_555 1_555
C34 C30 1_555 1_555
H27 C34 1_555 1_555
N1 C27 1_555 1_555
N2 C32 1_555 1_555
C35 C36 1_555 1_555
C36 H28 1_555 1_555
C37 C36 1_555 1_555
H29 C37 1_555 1_555
C38 H30 1_555 1_555
C39 C35 1_555 1_555
H31 C39 1_555 1_555
C40 C35 1_555 1_555
C41 C40 1_555 1_555
H32 C41 1_555 1_555
C42 C41 1_555 1_555
H33 C42 1_555 1_555
C43 H34 1_555 1_555
C44 C40 1_555 1_555
H35 C44 1_555 1_555
N3 C37 1_555 1_555
N4 C42 1_555 1_555
C45 C46 1_555 1_555
C46 H36 1_555 1_555
C47 C46 1_555 1_555
H37 C47 1_555 1_555
C48 H38 1_555 1_555
C49 C45 1_555 1_555
H39 C49 1_555 1_555
C50 C45 1_555 1_555
C51 C50 1_555 1_555
H40 C51 1_555 1_555
C52 C51 1_555 1_555
H41 C52 1_555 1_555
C53 H42 1_555 1_555
C54 C50 1_555 1_555
H43 C54 1_555 1_555
N5 C47 1_555 1_555
N6 C52 1_555 1_555
O18 H44 1_555 1_555
H45 O18 1_555 1_555
O19 H46 1_555 1_555
H47 O19 1_555 1_555
O20 H48 1_555 1_555
H49 O20 1_555 1_555
Er1A O14 1_555 1_555
Er1A_2 O10 1_555 1_555
O10A Er1 1_555 1_555
O14A Er1 1_555 1_555
C5 O5 1_555 1_555
C5 O6 1_555 1_555
C7 C8 1_555 1_555
C13 O11 1_555 1_555
C15 C16 1_555 1_555
C17 O13 1_555 1_555
C23 C24 1_555 1_555
C28 C29 1_555 1_555
C28 N1 1_555 1_555
C33 C34 1_555 1_555
C33 N2 1_555 1_555
C38 C39 1_555 1_555
C38 N3 1_555 1_555
C43 C44 1_555 1_555
C43 N4 1_555 1_555
C48 C49 1_555 1_555
C48 N5 1_555 1_555
C53 C54 1_555 1_555
C53 N6 1_555 1_555

#END
