
#######################################################################
#
#                 Cambridge Crystallographic Data Centre
#                                CCDC 
#
#######################################################################
#
# If this CIF has been generated from an entry in the Cambridge 
# Structural Database, then it will include bibliographic, chemical, 
# crystal, experimental, refinement or atomic coordinate data resulting 
# from the CCDC's data processing and validation procedures.
#
#######################################################################

data_ZILZUR
_symmetry_cell_setting           monoclinic
_symmetry_space_group_name_H-M   'P 21/c'
_symmetry_Int_Tables_number      14
_space_group_name_Hall           '-P 2ybc'
loop_
_symmetry_equiv_pos_site_id
_symmetry_equiv_pos_as_xyz
1 x,y,z
2 -x,1/2+y,1/2-z
3 -x,-y,-z
4 x,1/2-y,1/2+z
_cell_length_a                   8.6434(4)
_cell_length_b                   22.8471(11)
_cell_length_c                   9.5089(4)
_cell_angle_alpha                90
_cell_angle_beta                 109.8900(10)
_cell_angle_gamma                90
_cell_volume                     1765.77
loop_
_atom_site_label
_atom_site_type_symbol
_atom_site_fract_x
_atom_site_fract_y
_atom_site_fract_z
Yb1 Yb 0.459453(18) 0.116677(6) -0.339890(17)
Yb2 Yb 0.147516(18) 0.107548(6) -0.013027(17)
S1 S 0.75333(11) 0.20528(4) 0.55851(10)
O1 O 0.4163(4) 0.11634(13) 0.0055(4)
O2 O 0.6172(3) 0.12037(12) -0.0886(3)
O3 O 0.7926(3) -0.01299(11) 0.0907(3)
O4 O 0.9476(4) 0.05353(12) 0.0302(4)
O5 O 0.9911(3) 0.10103(12) 0.7338(3)
O6 O 1.1921(3) 0.11097(12) 0.6410(4)
O7 O 0.6789(3) 0.17554(11) 0.6538(3)
O8 O 0.9155(3) 0.22805(12) 0.6406(3)
O9 O 0.6463(4) 0.24978(12) 0.4672(3)
O10 O 0.3676(4) 0.05634(12) 0.4494(3)
O11 O 0.2832(4) 0.05521(13) 0.2022(3)
O12 O 0.3444(4) 0.17249(12) 0.4449(3)
O13 O 0.2301(4) 0.17009(12) 0.1953(3)
O14 O 0.4004(3) 0.20992(12) -0.2663(3)
H1 H 0.3380 0.2394 -0.2978
H2 H 0.4715 0.2276 -0.1943
O15 O 0.6724(4) 0.06101(13) -0.3531(4)
H3 H 0.7720 0.0688 -0.3018
H4 H 0.6836 0.0277 -0.3890
O16 O 0.4277(4) 0.02400(12) -0.2450(3)
H5 H 0.5131 0.0027 -0.2110
H6 H 0.3579 0.0154 -0.2033
O17 O 0.1818(4) 0.20144(13) -0.1055(3)
H7 H 0.0943 0.2135 -0.1720
H8 H 0.2443 0.2295 -0.0614
O18 O -0.0690(3) 0.16954(12) -0.0267(4)
H9 H -0.1714 0.1625 -0.0646
H10 H -0.0457 0.1994 0.0297
C1 C 0.6914(4) 0.11622(15) 0.1759(4)
C2 C 0.8280(4) 0.07891(15) 0.2124(4)
C3 C 0.9385(4) 0.07808(16) 0.3594(4)
H11 H 1.0279 0.0527 0.3840
C4 C 0.9182(4) 0.11427(14) 0.4701(4)
C5 C 0.7831(4) 0.15240(15) 0.4316(4)
C6 C 0.6712(4) 0.15271(15) 0.2856(4)
H12 H 0.5813 0.1778 0.2611
C7 C 0.5638(4) 0.11837(16) 0.0193(4)
C8 C 0.8587(4) 0.03692(15) 0.0998(4)
C9 C 1.0438(4) 0.10888(14) 0.6255(4)
C10 C 0.3172(5) 0.08011(17) 0.3247(4)
C11 C 0.2944(4) 0.14735(16) 0.3218(4)
Yb1_2 Yb 0.459453(18) 0.116677(6) 0.660110(17)
Yb1_3 Yb 1.459453(18) 0.116677(6) 0.660110(17)
Yb2_2 Yb 1.147516(18) 0.107548(6) -0.013027(17)
Yb2_3 Yb 1.147516(18) 0.107548(6) 0.986973(17)
Yb2B Yb 0.852484(18) -0.107548(6) 0.013027(17)
O3B O 0.2074(3) 0.01299(11) -0.0907(3)
O4_2 O -0.0524(4) 0.05353(12) 0.0302(4)
O5_2 O -0.0089(3) 0.10103(12) -0.2662(3)
O6_2 O 0.1921(3) 0.11097(12) -0.3590(4)
O7_2 O 0.6789(3) 0.17554(11) -0.3462(3)
O10_2 O 0.3676(4) 0.05634(12) -0.5506(3)
O12_2 O 0.3444(4) 0.17249(12) -0.5551(3)
loop_
_geom_bond_atom_site_label_1
_geom_bond_atom_site_label_2
_geom_bond_site_symmetry_1
_geom_bond_site_symmetry_2
Yb1 O2 1_555 1_555
Yb2 O1 1_555 1_555
S1 O7 1_555 1_555
O1 C7 1_555 1_555
O2 C7 1_555 1_555
O3 C8 1_555 1_555
O4 C8 1_555 1_555
O5 C9 1_555 1_555
O6 C9 1_555 1_555
O7 Yb1_2 1_555 1_555
O8 S1 1_555 1_555
O9 S1 1_555 1_555
O10 C10 1_555 1_555
O11 Yb2 1_555 1_555
O12 C11 1_555 1_555
O13 Yb2 1_555 1_555
O14 Yb1 1_555 1_555
H1 O14 1_555 1_555
H2 O14 1_555 1_555
O15 Yb1 1_555 1_555
H3 O15 1_555 1_555
H4 O15 1_555 1_555
O16 Yb1 1_555 1_555
H5 O16 1_555 1_555
H6 O16 1_555 1_555
O17 Yb2 1_555 1_555
H7 O17 1_555 1_555
H8 O17 1_555 1_555
O18 Yb2 1_555 1_555
H9 O18 1_555 1_555
H10 O18 1_555 1_555
C1 C2 1_555 1_555
C2 C3 1_555 1_555
C3 H11 1_555 1_555
C4 C3 1_555 1_555
C5 S1 1_555 1_555
C6 C1 1_555 1_555
H12 C6 1_555 1_555
C7 C1 1_555 1_555
C8 C2 1_555 1_555
C9 C4 1_555 1_555
C10 O11 1_555 1_555
C11 O13 1_555 1_555
Yb1_2 O10 1_555 1_555
Yb1_3 O6 1_555 1_555
Yb2_2 O4 1_555 1_555
Yb2_3 O5 1_555 1_555
Yb2B O3 1_555 1_555
O3B Yb2 1_555 1_555
O4_2 Yb2 1_555 1_555
O5_2 Yb2 1_555 1_555
O6_2 Yb1 1_555 1_555
O7_2 Yb1 1_555 1_555
O10_2 Yb1 1_555 1_555
O12_2 Yb1 1_555 1_555
O12 Yb1_2 1_555 1_555
C4 C5 1_555 1_555
C5 C6 1_555 1_555
C10 C11 1_555 1_555

#END
