
#######################################################################
#
#                 Cambridge Crystallographic Data Centre
#                                CCDC 
#
#######################################################################
#
# If this CIF has been generated from an entry in the Cambridge 
# Structural Database, then it will include bibliographic, chemical, 
# crystal, experimental, refinement or atomic coordinate data resulting 
# from the CCDC's data processing and validation procedures.
#
#######################################################################

data_ZIMDAB01
_symmetry_cell_setting           monoclinic
_symmetry_space_group_name_H-M   'P 21/c'
_symmetry_Int_Tables_number      14
_space_group_name_Hall           '-P 2ybc'
loop_
_symmetry_equiv_pos_site_id
_symmetry_equiv_pos_as_xyz
1 x,y,z
2 -x,1/2+y,1/2-z
3 -x,-y,-z
4 x,1/2-y,1/2+z
_cell_length_a                   7.4200(6)
_cell_length_b                   14.537(2)
_cell_length_c                   12.345(1)
_cell_angle_alpha                90
_cell_angle_beta                 100.911(7)
_cell_angle_gamma                90
_cell_volume                     1307.52
loop_
_atom_site_label
_atom_site_type_symbol
_atom_site_fract_x
_atom_site_fract_y
_atom_site_fract_z
Br1 Br 0.43936(5) -0.61235(3) 0.41746(3)
Cu1 Cu 0.29356(6) -0.48281(3) 0.49338(4)
S1 S -0.1907(1) -0.46818(7) 0.34427(7)
S2 S 0.0033(1) -0.29089(7) 0.47283(8)
S3 S 0.0981(1) -0.3607(1) 0.22928(8)
P1 P 0.0710(1) -0.40428(7) 0.38664(8)
C1 C -0.1315(6) -0.5724(3) 0.2743(3)
C2 C -0.2307(9) -0.5793(4) 0.1642(5)
C3 C -0.1846(6) -0.2343(3) 0.3808(4)
C4 C -0.2262(8) -0.1453(4) 0.4319(5)
C5 C 0.3454(6) -0.3539(5) 0.2454(4)
C6 C 0.4089(6) -0.3630(4) 0.1418(4)
H1 H -0.178(5) -0.633(3) 0.317(3)
H2 H -0.002(6) -0.578(3) 0.290(3)
H3 H -0.191(5) -0.637(3) 0.120(3)
H4 H -0.3639 -0.5904 0.1680
H5 H -0.2280 -0.5249 0.1251
H6 H -0.154(5) -0.216(3) 0.311(3)
H7 H -0.279(5) -0.267(3) 0.369(3)
H8 H -0.104(5) -0.099(3) 0.437(3)
H9 H -0.314(5) -0.125(3) 0.382(4)
H10 H -0.272(5) -0.157(3) 0.489(3)
H11 H 0.392(5) -0.297(3) 0.290(3)
H12 H 0.394(5) -0.388(3) 0.289(3)
H13 H 0.536(5) -0.372(3) 0.146(4)
H14 H 0.338(5) -0.332(3) 0.081(3)
H15 H 0.361(5) -0.424(3) 0.140(3)
Cu1B Cu 0.70644(6) -0.51719(3) 0.50662(4)
Br1B Br 0.56064(5) -0.38765(3) 0.58254(3)
S1B S 0.1907(1) -0.53182(7) 0.65573(7)
Cu1B_2 Cu -0.29356(6) -0.51719(3) 0.50662(4)
loop_
_geom_bond_atom_site_label_1
_geom_bond_atom_site_label_2
_geom_bond_site_symmetry_1
_geom_bond_site_symmetry_2
Br1 Cu1 1_555 1_555
Cu1 P1 1_555 1_555
S1 P1 1_555 1_555
S2 P1 1_555 1_555
S3 P1 1_555 1_555
C1 S1 1_555 1_555
C2 C1 1_555 1_555
C3 S2 1_555 1_555
C4 C3 1_555 1_555
C5 S3 1_555 1_555
C6 C5 1_555 1_555
H1 C1 1_555 1_555
H2 C1 1_555 1_555
H3 C2 1_555 1_555
H4 C2 1_555 1_555
H5 C2 1_555 1_555
H6 C3 1_555 1_555
H7 C3 1_555 1_555
H8 C4 1_555 1_555
H9 C4 1_555 1_555
H10 C4 1_555 1_555
H11 C5 1_555 1_555
H12 C5 1_555 1_555
H13 C6 1_555 1_555
H14 C6 1_555 1_555
H15 C6 1_555 1_555
Cu1B Br1 1_555 1_555
Br1B Cu1 1_555 1_555
S1B Cu1 1_555 1_555
Cu1B_2 S1 1_555 1_555
Cu1B Br1B 1_555 1_555

#END
