
#######################################################################
#
#                 Cambridge Crystallographic Data Centre
#                                CCDC 
#
#######################################################################
#
# If this CIF has been generated from an entry in the Cambridge 
# Structural Database, then it will include bibliographic, chemical, 
# crystal, experimental, refinement or atomic coordinate data resulting 
# from the CCDC's data processing and validation procedures.
#
#######################################################################

data_ZIMGEJ
_symmetry_cell_setting           monoclinic
_symmetry_space_group_name_H-M   'P 21/n'
_symmetry_Int_Tables_number      14
_space_group_name_Hall           '-P 2yn'
loop_
_symmetry_equiv_pos_site_id
_symmetry_equiv_pos_as_xyz
1 x,y,z
2 1/2-x,1/2+y,1/2-z
3 -x,-y,-z
4 1/2+x,1/2-y,1/2+z
_cell_length_a                   9.8110(8)
_cell_length_b                   13.5050(11)
_cell_length_c                   11.1750(9)
_cell_angle_alpha                90
_cell_angle_beta                 96.6020(11)
_cell_angle_gamma                90
_cell_volume                     1470.84
loop_
_atom_site_label
_atom_site_type_symbol
_atom_site_fract_x
_atom_site_fract_y
_atom_site_fract_z
Cu1 Cu 0.90496(2) 1.050207(15) 0.553499(18)
O1 O 1.46131(14) 0.65906(10) 0.91485(13)
O2 O 1.15594(15) 0.89004(11) 0.60598(12)
O3 O 1.00070(15) 0.97797(11) 0.69165(12)
N1 N 0.59223(18) 1.05927(13) 0.78282(16)
O4 O 1.30587(15) 0.57383(11) 1.00368(14)
C1 C 0.7241(2) 1.07067(16) 0.76178(18)
H1 H 0.7988 1.0650 0.8206
C2 C 1.12440(19) 0.85811(14) 0.81049(16)
C3 C 1.22931(19) 0.78843(14) 0.82782(16)
H2 H 1.2891 0.7796 0.7699
C4 C 1.09283(19) 0.91349(14) 0.69380(16)
N2 N 0.73401(17) 1.09061(13) 0.64859(15)
C5 C 1.24380(19) 0.73195(14) 0.93300(16)
C6 C 0.5458(2) 1.02809(16) 0.89479(19)
C7 C 1.0384(2) 0.87273(15) 0.90000(17)
H3 H 0.9703 0.9209 0.8888
C8 C 1.34606(19) 0.64905(14) 0.95178(16)
C9 C 1.1548(2) 0.74649(15) 1.01961(17)
H4 H 1.1645 0.7078 1.0889
C10 C 1.0516(2) 0.81740(15) 1.00504(17)
C11 C 0.4790(2) 1.09614(17) 0.9601(2)
H5 H 0.4655 1.1604 0.9314
C12 C 0.6020(2) 1.0910(2) 0.5934(2)
H6 H 0.5768 1.1032 0.5120
C13 C 0.3651(3) 1.14419(18) 1.1424(2)
H7 H 0.2696 1.1284 1.1418
H8 H 0.3740 1.2090 1.1088
H9 H 0.4089 1.1431 1.2237
C14 C 0.4320(2) 1.06918(16) 1.06843(19)
C15 C 0.9517(2) 0.82936(18) 1.0971(2)
H10 H 0.9122 0.8944 1.0905
H11 H 0.9991 0.8205 1.1765
H12 H 0.8803 0.7807 1.0830
C16 C 0.5135(2) 1.0710(2) 0.6744(2)
H13 H 0.4185 1.0661 0.6595
N1B N 0.40777(18) 0.94073(13) 1.21718(16)
C1B C 0.2759(2) 0.92933(16) 1.23822(18)
H1B H 0.2012 0.9350 1.1794
N2B N 0.26599(17) 0.90939(13) 1.35141(15)
C6B C 0.4542(2) 0.97191(16) 1.10521(19)
C11B C 0.5210(2) 0.90386(17) 1.0399(2)
H5B H 0.5345 0.8396 1.0686
C12B C 0.3980(2) 0.9090(2) 1.4066(2)
H6B H 0.4232 0.8968 1.4880
C13B C 0.6349(3) 0.85581(18) 0.8576(2)
H7B H 0.7304 0.8716 0.8582
H8B H 0.6260 0.7910 0.8912
H9B H 0.5911 0.8569 0.7763
C14B C 0.5680(2) 0.93082(16) 0.93157(19)
C16B C 0.4865(2) 0.9290(2) 1.3256(2)
H13B H 0.5815 0.9339 1.3405
Cu1B Cu 0.09504(2) 0.949793(15) 1.446501(18)
O1B O -0.46131(14) 1.34094(10) 1.08515(13)
O2B O -0.15594(15) 1.10996(11) 1.39402(12)
O3B O -0.00070(15) 1.02203(11) 1.30835(12)
O4B O -0.30587(15) 1.42617(11) 0.99632(14)
C2B C -0.12440(19) 1.14189(14) 1.18951(16)
C3B C -0.22931(19) 1.21157(14) 1.17218(16)
H2B H -0.2891 1.2204 1.2301
C4B C -0.09283(19) 1.08651(14) 1.30620(16)
C5B C -0.24380(19) 1.26805(14) 1.06700(16)
C7B C -0.0384(2) 1.12727(15) 1.10000(17)
H3B H 0.0297 1.0791 1.1112
C8B C -0.34606(19) 1.35095(14) 1.04822(16)
C9B C -0.1548(2) 1.25351(15) 0.98039(17)
H4B H -0.1645 1.2922 0.9111
C10B C -0.0516(2) 1.18260(15) 0.99496(17)
C15B C 0.0483(2) 1.17064(18) 0.9029(2)
H10B H 0.0878 1.1056 0.9095
H11B H 0.0009 1.1795 0.8235
H12B H 0.1197 1.2193 0.9170
Cu1_2 Cu -0.09504(2) 1.050207(15) 1.553499(18)
Cu1A Cu -0.40496(2) 1.550207(15) 0.946501(18)
Cu1A_2 Cu 1.59504(2) 0.550207(15) 0.946501(18)
Cu1B_2 Cu 1.09504(2) 0.949793(15) 0.446501(18)
Cu1C Cu -0.59504(2) 1.449793(15) 1.053499(18)
Cu1C_2 Cu 1.40496(2) 0.449793(15) 1.053499(18)
O1A O 1.03869(14) 1.15906(10) 0.58515(13)
O1C O -0.03869(14) 0.84094(10) 1.41485(13)
O2_2 O 0.15594(15) 0.89004(11) 1.60598(12)
O2B_2 O 0.84406(15) 1.10996(11) 0.39402(12)
O4A O 0.19413(15) 1.07383(11) 1.49632(14)
O4C O 0.80587(15) 0.92617(11) 0.50368(14)
loop_
_geom_bond_atom_site_label_1
_geom_bond_atom_site_label_2
_geom_bond_site_symmetry_1
_geom_bond_site_symmetry_2
Cu1 O3 1_555 1_555
O1 C8 1_555 1_555
O2 C4 1_555 1_555
O3 C4 1_555 1_555
N1 C1 1_555 1_555
O4 C8 1_555 1_555
C1 H1 1_555 1_555
C2 C3 1_555 1_555
C3 H2 1_555 1_555
C4 C2 1_555 1_555
N2 Cu1 1_555 1_555
C5 C3 1_555 1_555
C6 N1 1_555 1_555
C7 C2 1_555 1_555
H3 C7 1_555 1_555
C8 C5 1_555 1_555
C9 C5 1_555 1_555
H4 C9 1_555 1_555
C10 C7 1_555 1_555
C11 C6 1_555 1_555
H5 C11 1_555 1_555
C12 N2 1_555 1_555
H6 C12 1_555 1_555
C13 H7 1_555 1_555
H8 C13 1_555 1_555
H9 C13 1_555 1_555
C14 C11 1_555 1_555
C15 C10 1_555 1_555
H10 C15 1_555 1_555
H11 C15 1_555 1_555
H12 C15 1_555 1_555
C16 N1 1_555 1_555
H13 C16 1_555 1_555
N1B C1B 1_555 1_555
C1B H1B 1_555 1_555
N2B C1B 1_555 1_555
C6B C14 1_555 1_555
C11B C6B 1_555 1_555
H5B C11B 1_555 1_555
C12B N2B 1_555 1_555
H6B C12B 1_555 1_555
C13B H7B 1_555 1_555
H8B C13B 1_555 1_555
H9B C13B 1_555 1_555
C14B C6 1_555 1_555
C16B N1B 1_555 1_555
H13B C16B 1_555 1_555
Cu1B N2B 1_555 1_555
O1B C8B 1_555 1_555
O2B C4B 1_555 1_555
O3B Cu1B 1_555 1_555
O4B C8B 1_555 1_555
C2B C3B 1_555 1_555
C3B H2B 1_555 1_555
C4B O3B 1_555 1_555
C5B C3B 1_555 1_555
C7B C2B 1_555 1_555
H3B C7B 1_555 1_555
C8B C5B 1_555 1_555
C9B C5B 1_555 1_555
H4B C9B 1_555 1_555
C10B C7B 1_555 1_555
C15B C10B 1_555 1_555
H10B C15B 1_555 1_555
H11B C15B 1_555 1_555
H12B C15B 1_555 1_555
Cu1_2 Cu1B 1_555 1_555
Cu1A O4B 1_555 1_555
Cu1A_2 O1 1_555 1_555
Cu1B_2 Cu1 1_555 1_555
Cu1C O1B 1_555 1_555
Cu1C_2 O4 1_555 1_555
O1A Cu1 1_555 1_555
O1C Cu1B 1_555 1_555
O2_2 Cu1B 1_555 1_555
O2B_2 Cu1 1_555 1_555
O4A Cu1B 1_555 1_555
O4C Cu1 1_555 1_555
O2 Cu1B_2 1_555 1_555
C1 N2 1_555 1_555
C9 C10 1_555 1_555
C12 C16 1_555 1_555
C13 C14 1_555 1_555
N1B C6B 1_555 1_555
C11B C14B 1_555 1_555
C12B C16B 1_555 1_555
C13B C14B 1_555 1_555
O2B Cu1_2 1_555 1_555
C2B C4B 1_555 1_555
C9B C10B 1_555 1_555
Cu1A Cu1C 1_555 1_555
Cu1A_2 Cu1C_2 1_555 1_555

#END
