
#######################################################################
#
#                 Cambridge Crystallographic Data Centre
#                                CCDC 
#
#######################################################################
#
# If this CIF has been generated from an entry in the Cambridge 
# Structural Database, then it will include bibliographic, chemical, 
# crystal, experimental, refinement or atomic coordinate data resulting 
# from the CCDC's data processing and validation procedures.
#
#######################################################################

data_ZIMGOR
_symmetry_cell_setting           orthorhombic
_symmetry_space_group_name_H-M   'P c a b'
_symmetry_Int_Tables_number      61
_space_group_name_Hall           '-P 2bc 2ac'
loop_
_symmetry_equiv_pos_site_id
_symmetry_equiv_pos_as_xyz
1 x,y,z
2 -x,1/2-y,1/2+z
3 1/2+x,-y,1/2-z
4 1/2-x,1/2+y,-z
5 -x,-y,-z
6 x,1/2+y,1/2-z
7 1/2-x,y,1/2+z
8 1/2+x,1/2-y,z
_cell_length_a                   8.070(2)
_cell_length_b                   11.895(3)
_cell_length_c                   34.29(1)
_cell_angle_alpha                90
_cell_angle_beta                 90
_cell_angle_gamma                90
_cell_volume                     3291.59
loop_
_atom_site_label
_atom_site_type_symbol
_atom_site_fract_x
_atom_site_fract_y
_atom_site_fract_z
Mn1 Mn 0.12503(5) -0.06439(3) -0.34991(1)
O1 O 0.0992(3) -0.1485(2) -0.40284(5)
O2 O -0.1042(2) -0.1407(2) -0.32762(5)
O3 O -0.2450(3) -0.2995(2) -0.32263(5)
O4 O 0.3699(3) 0.0046(2) -0.37386(7)
O5 O -0.3649(4) 0.0004(3) -0.53810(7)
O6 O -0.3024(4) -0.1673(3) -0.55631(7)
N1 N 0.0010(3) 0.0776(2) -0.38067(6)
N2 N 0.2238(3) 0.1116(2) -0.24224(7)
N3 N 0.1431(3) 0.0413(2) -0.29820(6)
N4 N -0.2947(4) -0.0890(3) -0.53269(8)
C1 C 0.0043(4) -0.1322(2) -0.43186(7)
C2 C -0.0171(4) -0.2191(3) -0.46014(9)
C3 C -0.1135(4) -0.2058(3) -0.49221(9)
C4 C -0.1952(4) -0.1044(3) -0.49833(8)
C5 C -0.1803(4) -0.0179(3) -0.47201(8)
C6 C -0.0830(3) -0.0286(2) -0.43856(7)
C7 C -0.0724(4) 0.0694(2) -0.41402(8)
C8 C -0.0010(4) 0.1896(2) -0.36250(8)
C9 C -0.0642(4) 0.1846(3) -0.32044(8)
C10 C 0.0575(4) 0.1402(2) -0.29161(8)
C11 C 0.1074(4) 0.1840(3) -0.25703(8)
C12 C 0.2419(4) 0.0280(3) -0.26774(8)
C13 C -0.1577(4) -0.2322(3) -0.34063(8)
C14 C 0.5342(4) -0.0103(4) -0.3642(1)
H1 H 0.2817(3) 0.1197(2) -0.21793(7)
H2 H 0.0388(4) -0.2894(3) -0.45632(9)
H3 H -0.1253(4) -0.2662(3) -0.51059(9)
H4 H -0.2381(4) 0.0513(3) -0.47670(8)
H5 H -0.1259(4) 0.1361(2) -0.42352(8)
H6 H 0.1094(4) 0.2195(2) -0.36253(8)
H7 H -0.0722(4) 0.2380(2) -0.37739(8)
H8 H -0.1604(4) 0.1372(3) -0.31988(8)
H9 H -0.0944(4) 0.2594(3) -0.31265(8)
H10 H 0.0688(4) 0.2523(3) -0.24523(8)
H11 H 0.3170(4) -0.0339(3) -0.26445(8)
H12 H -0.1280(4) -0.2516(3) -0.36689(8)
H13 H 0.6022(4) 0.0339(4) -0.3813(1)
H14 H 0.5627(4) -0.0882(4) -0.3668(1)
H15 H 0.5521(4) 0.0131(4) -0.3377(1)
O3G O 0.2550(3) -0.2005(2) -0.32263(5)
Mn1G Mn -0.37497(5) -0.43561(3) -0.34991(1)
loop_
_geom_bond_atom_site_label_1
_geom_bond_atom_site_label_2
_geom_bond_site_symmetry_1
_geom_bond_site_symmetry_2
Mn1 O1 1_555 1_555
O1 C1 1_555 1_555
O2 Mn1 1_555 1_555
O3 C13 1_555 1_555
O4 Mn1 1_555 1_555
O5 N4 1_555 1_555
O6 N4 1_555 1_555
N1 Mn1 1_555 1_555
N2 C11 1_555 1_555
N3 Mn1 1_555 1_555
N4 C4 1_555 1_555
C1 C2 1_555 1_555
C2 C3 1_555 1_555
C3 C4 1_555 1_555
C4 C5 1_555 1_555
C5 C6 1_555 1_555
C6 C1 1_555 1_555
C7 N1 1_555 1_555
C8 N1 1_555 1_555
C9 C8 1_555 1_555
C10 N3 1_555 1_555
C11 C10 1_555 1_555
C12 N2 1_555 1_555
C13 O2 1_555 1_555
C14 O4 1_555 1_555
H1 N2 1_555 1_555
H2 C2 1_555 1_555
H3 C3 1_555 1_555
H4 C5 1_555 1_555
H5 C7 1_555 1_555
H6 C8 1_555 1_555
H7 C8 1_555 1_555
H8 C9 1_555 1_555
H9 C9 1_555 1_555
H10 C11 1_555 1_555
H11 C12 1_555 1_555
H12 C13 1_555 1_555
H13 C14 1_555 1_555
H14 C14 1_555 1_555
H15 C14 1_555 1_555
O3G Mn1 1_555 1_555
Mn1G O3 1_555 1_555
N3 C12 1_555 1_555
C6 C7 1_555 1_555
C9 C10 1_555 1_555

#END
