
#######################################################################
#
#                 Cambridge Crystallographic Data Centre
#                                CCDC 
#
#######################################################################
#
# If this CIF has been generated from an entry in the Cambridge 
# Structural Database, then it will include bibliographic, chemical, 
# crystal, experimental, refinement or atomic coordinate data resulting 
# from the CCDC's data processing and validation procedures.
#
#######################################################################

data_ZIMGIN
_symmetry_cell_setting           monoclinic
_symmetry_space_group_name_H-M   'P 21/n'
_symmetry_Int_Tables_number      14
_space_group_name_Hall           '-P 2yn'
loop_
_symmetry_equiv_pos_site_id
_symmetry_equiv_pos_as_xyz
1 x,y,z
2 1/2-x,1/2+y,1/2-z
3 -x,-y,-z
4 1/2+x,1/2-y,1/2+z
_cell_length_a                   11.678(2)
_cell_length_b                   14.596(3)
_cell_length_c                   18.893(3)
_cell_angle_alpha                90
_cell_angle_beta                 104.110(2)
_cell_angle_gamma                90
_cell_volume                     3123.19
loop_
_atom_site_label
_atom_site_type_symbol
_atom_site_fract_x
_atom_site_fract_y
_atom_site_fract_z
Cu1 Cu 0.38162(3) 0.51473(2) 0.992793(18)
Cu2 Cu 0.54216(3) 0.57475(2) 0.540093(17)
C1 C 0.7032(3) 0.43026(19) 0.53030(16)
C2 C 0.8249(3) 0.3902(2) 0.54803(17)
N1 N 0.0053(2) 0.57103(17) 0.92832(14)
O1 O 0.4270(2) 0.37206(14) 0.54857(11)
O2 O 1.07365(19) 0.13690(14) 0.53636(13)
O3 O 0.88108(19) 0.11231(14) 0.52658(13)
C3 C 0.8415(2) 0.29833(18) 0.53484(16)
H1 H 0.7769 0.2612 0.5151
N2 N 0.1972(2) 0.55054(16) 0.97063(14)
O4 O 0.62243(18) 0.38306(15) 0.49193(12)
N3 N -0.3041(2) 0.75130(17) 0.71743(14)
O5 O 0.4978(2) 0.49549(14) 0.61411(11)
O6 O 0.69206(19) 0.50816(13) 0.55525(13)
O7 O 0.5696(2) 0.44155(16) 0.90423(12)
C4 C 0.4267(2) 0.37553(19) 0.67349(15)
C5 C 0.9547(3) 0.26176(19) 0.55119(16)
N4 N -0.4063(2) 0.68025(16) 0.62069(13)
C6 C 0.4307(3) 0.3854(2) 0.80073(15)
O8 O 0.3780(2) 0.46367(17) 0.89572(12)
C7 C 0.4594(3) 0.42168(19) 0.73983(15)
H2 H 0.5004 0.4767 0.7431
C8 C 0.3396(3) 0.2543(2) 0.73027(17)
C9 C -0.1467(3) 0.6224(2) 0.81976(18)
H3 H -0.0817 0.6232 0.7962
H4 H -0.2154 0.5984 0.7850
C10 C -0.3005(3) 0.70919(19) 0.65471(16)
C11 C 0.1009(3) 0.5203(2) 0.92410(17)
C12 C 0.9714(3) 0.16175(19) 0.53732(15)
C13 C -0.1723(3) 0.7195(2) 0.83882(18)
H5 H -0.1037 0.7433 0.8738
H6 H -0.2374 0.7187 0.8623
C14 C 1.0502(3) 0.3182(2) 0.5783(2)
H7 H 1.1260 0.2940 0.5871
C15 C 0.3701(3) 0.29135(19) 0.66989(16)
H8 H 0.3525 0.2592 0.6261
C16 C 0.9222(3) 0.4450(2) 0.5773(2)
H9 H 0.9107 0.5064 0.5868
C17 C 0.4530(2) 0.41750(19) 0.60699(15)
C18 C 0.0435(3) 0.6366(2) 0.98050(17)
H10 H -0.0022 0.6814 0.9953
C19 C -0.4183(3) 0.7470(2) 0.72412(19)
H11 H -0.4470 0.7695 0.7625
C20 C -0.1159(3) 0.5586(2) 0.8846(2)
H12 H -0.1703 0.5690 0.9153
H13 H -0.1259 0.4958 0.8674
C21 C 1.0359(3) 0.4101(2) 0.5927(2)
C22 C 0.4630(3) 0.43474(19) 0.87305(16)
C23 C 0.3704(3) 0.3028(2) 0.79552(16)
H14 H 0.3502 0.2793 0.8366
C24 C -0.1925(3) 0.6976(2) 0.6281(2)
H15 H -0.2135 0.6769 0.5784
H16 H -0.1419 0.6533 0.6578
H17 H -0.1519 0.7552 0.6308
C25 C -0.2029(4) 0.7841(2) 0.77419(19)
H18 H -0.2211 0.8441 0.7907
H19 H -0.1350 0.7905 0.7535
C26 C 0.0965(3) 0.4413(2) 0.8739(2)
H20 H 0.1750 0.4183 0.8782
H21 H 0.0637 0.4607 0.8246
H22 H 0.0482 0.3938 0.8864
C27 C -0.4803(3) 0.7040(2) 0.66445(18)
H23 H -0.5609 0.6921 0.6541
C28 C 0.1604(3) 0.6236(2) 1.00609(18)
H24 H 0.2093 0.6586 1.0423
C29 C 0.2747(4) 0.1634(2) 0.7250(2)
H25 H 0.2148 0.1669 0.7518
H26 H 0.3296 0.1157 0.7451
H27 H 0.2388 0.1500 0.6747
C30 C 1.1416(3) 0.4720(3) 0.6220(3)
H28 H 1.1724 0.4604 0.6731
H29 H 1.1175 0.5350 0.6150
H30 H 1.2016 0.4598 0.5964
Cu1A Cu 1.11838(3) 0.01473(2) 0.507207(18)
Cu1B Cu 0.61838(3) 0.48527(2) 1.007207(18)
Cu1C Cu 0.88162(3) -0.01473(2) 0.492793(18)
Cu2_2 Cu -0.45784(3) 0.57475(2) 0.540093(17)
Cu2B Cu 0.45784(3) 0.42525(2) 0.459907(17)
O1B O 0.5730(2) 0.62794(14) 0.45143(11)
O2A O 0.42635(19) 0.63690(14) 0.96364(13)
O3C O 0.38108(19) 0.38769(14) 1.02658(13)
O4B O 0.37757(18) 0.61694(15) 0.50807(12)
O7B O 0.4304(2) 0.55845(16) 1.09577(12)
N4_2 N 0.5937(2) 0.68025(16) 0.62069(13)
loop_
_geom_bond_atom_site_label_1
_geom_bond_atom_site_label_2
_geom_bond_site_symmetry_1
_geom_bond_site_symmetry_2
Cu1 N2 1_555 1_555
Cu2 O5 1_555 1_555
C1 C2 1_555 1_555
C2 C3 1_555 1_555
N1 C11 1_555 1_555
O1 C17 1_555 1_555
O2 C12 1_555 1_555
O3 C12 1_555 1_555
C3 H1 1_555 1_555
N2 C11 1_555 1_555
O4 C1 1_555 1_555
N3 C10 1_555 1_555
O5 C17 1_555 1_555
O6 Cu2 1_555 1_555
O7 C22 1_555 1_555
C4 C7 1_555 1_555
C5 C3 1_555 1_555
N4 C10 1_555 1_555
C6 C7 1_555 1_555
O8 Cu1 1_555 1_555
C7 H2 1_555 1_555
C8 C15 1_555 1_555
C9 H3 1_555 1_555
H4 C9 1_555 1_555
C10 C24 1_555 1_555
C11 C26 1_555 1_555
C12 C5 1_555 1_555
C13 C9 1_555 1_555
H5 C13 1_555 1_555
H6 C13 1_555 1_555
C14 C5 1_555 1_555
H7 C14 1_555 1_555
C15 C4 1_555 1_555
H8 C15 1_555 1_555
C16 C2 1_555 1_555
H9 C16 1_555 1_555
C17 C4 1_555 1_555
C18 N1 1_555 1_555
H10 C18 1_555 1_555
C19 N3 1_555 1_555
H11 C19 1_555 1_555
C20 N1 1_555 1_555
H12 C20 1_555 1_555
H13 C20 1_555 1_555
C21 C14 1_555 1_555
C22 C6 1_555 1_555
C23 C6 1_555 1_555
H14 C23 1_555 1_555
C24 H15 1_555 1_555
H16 C24 1_555 1_555
H17 C24 1_555 1_555
C25 N3 1_555 1_555
H18 C25 1_555 1_555
H19 C25 1_555 1_555
C26 H20 1_555 1_555
H21 C26 1_555 1_555
H22 C26 1_555 1_555
C27 N4 1_555 1_555
H23 C27 1_555 1_555
C28 N2 1_555 1_555
H24 C28 1_555 1_555
C29 C8 1_555 1_555
H25 C29 1_555 1_555
H26 C29 1_555 1_555
H27 C29 1_555 1_555
C30 C21 1_555 1_555
H28 C30 1_555 1_555
H29 C30 1_555 1_555
H30 C30 1_555 1_555
Cu1A O2 1_555 1_555
Cu1B Cu1 1_555 1_555
Cu1C O3 1_555 1_555
Cu2_2 N4 1_555 1_555
Cu2B Cu2 1_555 1_555
O1B Cu2 1_555 1_555
O2A Cu1 1_555 1_555
O3C Cu1 1_555 1_555
O4B Cu2 1_555 1_555
O7B Cu1 1_555 1_555
N4_2 Cu2 1_555 1_555
C1 O6 1_555 1_555
O1 Cu2B 1_555 1_555
O4 Cu2B 1_555 1_555
O7 Cu1B 1_555 1_555
O8 C22 1_555 1_555
C8 C23 1_555 1_555
C9 C20 1_555 1_555
C13 C25 1_555 1_555
C16 C21 1_555 1_555
C18 C28 1_555 1_555
C19 C27 1_555 1_555
Cu1A Cu1C 1_555 1_555

#END
