
#######################################################################
#
#                 Cambridge Crystallographic Data Centre
#                                CCDC 
#
#######################################################################
#
# If this CIF has been generated from an entry in the Cambridge 
# Structural Database, then it will include bibliographic, chemical, 
# crystal, experimental, refinement or atomic coordinate data resulting 
# from the CCDC's data processing and validation procedures.
#
#######################################################################

data_ZIMGOT
_symmetry_cell_setting           monoclinic
_symmetry_space_group_name_H-M   'P 21/c'
_symmetry_Int_Tables_number      14
_space_group_name_Hall           '-P 2ybc'
loop_
_symmetry_equiv_pos_site_id
_symmetry_equiv_pos_as_xyz
1 x,y,z
2 -x,1/2+y,1/2-z
3 -x,-y,-z
4 x,1/2-y,1/2+z
_cell_length_a                   10.737(2)
_cell_length_b                   18.368(4)
_cell_length_c                   9.4217(19)
_cell_angle_alpha                90
_cell_angle_beta                 101.15(3)
_cell_angle_gamma                90
_cell_volume                     1823.05
loop_
_atom_site_label
_atom_site_type_symbol
_atom_site_fract_x
_atom_site_fract_y
_atom_site_fract_z
Cd1 Cd 0.70727(3) 0.23627(2) 0.68533(4)
N1 N 0.6328(4) 0.1544(2) 1.0661(5)
N2 N 0.5079(4) 0.1322(3) 1.0671(5)
N3 N 0.5688(3) 0.0845(2) 0.8762(4)
N4 N 0.0998(5) 0.0135(3) 0.7997(7)
N5 N 0.5236(4) 0.2510(2) 0.2783(5)
N6 N 0.3987(4) 0.2702(2) 0.2244(5)
N7 N 0.4024(4) 0.1787(2) 0.3777(4)
N8 N 0.3651(5) 0.1272(3) 0.4682(6)
H1 H 0.2861 0.1221 0.4712
H2 H 0.4210 0.1004 0.5216
N9 N -0.0767(4) 0.2408(3) 0.2031(5)
S1 S 0.80381(12) 0.13880(9) 0.88818(15)
S2 S 0.65955(13) 0.15253(9) 0.46088(16)
C1 C 0.6664(5) 0.1263(3) 0.9499(5)
C2 C 0.4733(5) 0.0918(3) 0.9537(6)
C3 C 0.3475(5) 0.0612(3) 0.9032(6)
C4 C 0.3171(6) 0.0233(3) 0.7735(7)
H3 H 0.3788 0.0125 0.7198
C5 C 0.1916(7) 0.0021(4) 0.7265(8)
H4 H 0.1707 -0.0217 0.6379
C6 C 0.1320(6) 0.0481(4) 0.9267(8)
H5 H 0.0695 0.0556 0.9810
C7 C 0.2522(5) 0.0732(3) 0.9811(7)
H6 H 0.2695 0.0979 1.0689
C8 C 0.5263(4) 0.1965(3) 0.3712(5)
C9 C 0.3280(5) 0.2261(3) 0.2856(5)
C10 C 0.1880(4) 0.2291(3) 0.2578(5)
C11 C 0.1277(5) 0.2906(4) 0.1931(7)
H7 H 0.1749 0.3291 0.1673
C12 C -0.0029(5) 0.2942(4) 0.1674(8)
H8 H -0.0420 0.3357 0.1230
C13 C -0.0185(5) 0.1810(4) 0.2583(8)
H9 H -0.0681 0.1422 0.2783
C14 C 0.1124(5) 0.1727(3) 0.2883(8)
H10 H 0.1488 0.1296 0.3284
Cd1C Cd -0.29273(3) 0.26373(2) 0.18533(4)
Cd1C_2 Cd 0.70727(3) 0.26373(2) 0.18533(4)
Cd1C_3 Cd 0.70727(3) 0.26373(2) 1.18533(4)
N1C N 0.6328(4) 0.3456(2) 0.5661(5)
N5C N 0.5236(4) 0.2490(2) 0.7783(5)
N9C N 0.9233(4) 0.2592(3) 0.7031(5)
O1 O 0.1599(8) 0.9942(4) 0.3494(8)
loop_
_geom_bond_atom_site_label_1
_geom_bond_atom_site_label_2
_geom_bond_site_symmetry_1
_geom_bond_site_symmetry_2
Cd1 S1 1_555 1_555
N1 N2 1_555 1_555
N2 C2 1_555 1_555
N3 C1 1_555 1_555
N4 C5 1_555 1_555
N5 N6 1_555 1_555
N6 C9 1_555 1_555
N7 N8 1_555 1_555
N8 H1 1_555 1_555
H2 N8 1_555 1_555
N9 C12 1_555 1_555
S1 C1 1_555 1_555
S2 Cd1 1_555 1_555
C1 N1 1_555 1_555
C2 N3 1_555 1_555
C3 C2 1_555 1_555
C4 C3 1_555 1_555
H3 C4 1_555 1_555
C5 C4 1_555 1_555
H4 C5 1_555 1_555
C6 N4 1_555 1_555
H5 C6 1_555 1_555
C7 C3 1_555 1_555
H6 C7 1_555 1_555
C8 N5 1_555 1_555
C9 N7 1_555 1_555
C10 C9 1_555 1_555
C11 C10 1_555 1_555
H7 C11 1_555 1_555
C12 C11 1_555 1_555
H8 C12 1_555 1_555
C13 N9 1_555 1_555
H9 C13 1_555 1_555
C14 C10 1_555 1_555
H10 C14 1_555 1_555
Cd1C N9 1_555 1_555
Cd1C_2 N5 1_555 1_555
Cd1C_3 N1 1_555 1_555
N1C Cd1 1_555 1_555
N5C Cd1 1_555 1_555
N9C Cd1 1_555 1_555
N7 C8 1_555 1_555
S2 C8 1_555 1_555
C6 C7 1_555 1_555
C13 C14 1_555 1_555

#END
