
#######################################################################
#
#                 Cambridge Crystallographic Data Centre
#                                CCDC 
#
#######################################################################
#
# If this CIF has been generated from an entry in the Cambridge 
# Structural Database, then it will include bibliographic, chemical, 
# crystal, experimental, refinement or atomic coordinate data resulting 
# from the CCDC's data processing and validation procedures.
#
#######################################################################

data_ZIMHUA
_symmetry_cell_setting           monoclinic
_symmetry_space_group_name_H-M   'C 2/c'
_symmetry_Int_Tables_number      15
_space_group_name_Hall           '-C 2yn'
loop_
_symmetry_equiv_pos_site_id
_symmetry_equiv_pos_as_xyz
1 x,y,z
2 -x,y,1/2-z
3 1/2+x,1/2+y,z
4 1/2-x,1/2+y,1/2-z
5 -x,-y,-z
6 x,-y,1/2+z
7 1/2-x,1/2-y,-z
8 1/2+x,1/2-y,1/2+z
_cell_length_a                   26.712(10)
_cell_length_b                   12.445(5)
_cell_length_c                   17.903(6)
_cell_angle_alpha                90
_cell_angle_beta                 101.851(11)
_cell_angle_gamma                90
_cell_volume                     5824.65
loop_
_atom_site_label
_atom_site_type_symbol
_atom_site_fract_x
_atom_site_fract_y
_atom_site_fract_z
Zn1 Zn 0.74854(3) 0.22701(7) 0.10581(5)
O1 O 0.70427(16) 0.1259(4) 0.1728(2)
O2 O 0.75859(16) 0.2303(3) 0.2502(2)
O3 O 0.31952(15) 0.1742(4) 0.6296(2)
O4 O 0.29352(16) 0.1763(4) 0.5045(2)
N1 N 0.54782(18) 0.1292(4) 0.4505(3)
N2 N 0.57549(18) 0.1353(4) 0.5781(3)
N3 N 0.61632(18) 0.1338(4) 0.5434(3)
N4 N 0.69704(19) 0.3648(4) 0.1111(3)
N5 N 0.63308(18) 0.4799(4) 0.0875(3)
N6 N 0.36488(19) 0.4779(4) 0.1489(3)
N7 N 0.30135(19) 0.5895(4) 0.1053(3)
C1 C 0.7199(2) 0.1709(5) 0.2373(3)
C2 C 0.6903(2) 0.1512(5) 0.2986(3)
C3 C 0.7121(2) 0.1650(5) 0.3752(3)
H1 H 0.7467 0.1822 0.3893
C4 C 0.6836(2) 0.1537(5) 0.4316(4)
H2 H 0.6990 0.1602 0.4829
C5 C 0.6314(2) 0.1323(4) 0.4098(3)
C6 C 0.6100(2) 0.1154(5) 0.3332(3)
H3 H 0.5754 0.0986 0.3189
C7 C 0.6388(2) 0.1229(5) 0.2783(3)
H4 H 0.6240 0.1090 0.2276
C8 C 0.5989(2) 0.1296(4) 0.4665(3)
C9 C 0.5357(2) 0.1325(4) 0.5216(3)
C10 C 0.4832(2) 0.1334(4) 0.5324(3)
C11 C 0.4725(2) 0.1433(5) 0.6053(3)
H5 H 0.4993 0.1456 0.6475
C12 C 0.4225(2) 0.1497(4) 0.6159(3)
H6 H 0.4162 0.1566 0.6649
C13 C 0.3816(2) 0.1457(4) 0.5531(3)
C14 C 0.3915(2) 0.1307(5) 0.4794(3)
H7 H 0.3647 0.1248 0.4374
C15 C 0.4420(2) 0.1247(4) 0.4703(3)
H8 H 0.4485 0.1147 0.4217
C16 C 0.3286(2) 0.1648(5) 0.5629(3)
C17 C 0.6520(2) 0.3878(5) 0.0683(3)
H9 H 0.6353 0.3440 0.0289
C18 C 0.6684(3) 0.5215(6) 0.1463(4)
H10 H 0.6661 0.5859 0.1718
C19 C 0.7073(3) 0.4507(6) 0.1603(4)
H11 H 0.7368 0.4586 0.1978
C20 C 0.5837(2) 0.5293(6) 0.0517(4)
H12 H 0.5742 0.5049 -0.0008
H13 H 0.5879 0.6067 0.0509
C21 C 0.5411(2) 0.5028(5) 0.0923(4)
C22 C 0.5250(2) 0.3982(5) 0.0998(4)
H14 H 0.5416 0.3420 0.0809
C23 C 0.4848(3) 0.3760(5) 0.1347(4)
H15 H 0.4757 0.3049 0.1410
C24 C 0.4575(2) 0.4585(5) 0.1610(3)
C25 C 0.4740(3) 0.5639(5) 0.1529(4)
H16 H 0.4567 0.6205 0.1703
C26 C 0.5151(3) 0.5859(5) 0.1199(4)
H17 H 0.5255 0.6566 0.1160
C27 C 0.4129(2) 0.4370(5) 0.1961(4)
H18 H 0.4098 0.3602 0.2031
H19 H 0.4184 0.4706 0.2460
C28 C 0.3422(2) 0.5721(5) 0.1579(3)
H20 H 0.3544 0.6199 0.1975
C29 C 0.2972(2) 0.4999(5) 0.0583(4)
H21 H 0.2716 0.4886 0.0152
C30 C 0.3350(3) 0.4335(6) 0.0840(4)
H22 H 0.3408 0.3680 0.0622
Zn1A Zn 0.25146(3) 0.22701(7) 0.39419(5)
Zn1B Zn 0.24854(3) 0.72701(7) 0.10581(5)
Zn1G Zn 0.24854(3) 0.27299(7) 0.60581(5)
O3G O 0.81952(15) 0.3258(4) 0.1296(2)
O4A O 0.70648(16) 0.1763(4) -0.0045(2)
N7B N 0.80135(19) 0.0895(4) 0.1053(3)
O5 O 0.70632(19) 0.8918(4) 0.1413(3)
O6 O 0.8861(2) 0.2566(4) 0.2778(3)
H23 H 0.8546(10) 0.272(6) 0.260(5)
H24 H 0.899(3) 0.300(5) 0.313(3)
loop_
_geom_bond_atom_site_label_1
_geom_bond_atom_site_label_2
_geom_bond_site_symmetry_1
_geom_bond_site_symmetry_2
Zn1 O1 1_555 1_555
O1 C1 1_555 1_555
O2 Zn1 1_555 1_555
O3 C16 1_555 1_555
O4 C16 1_555 1_555
N1 C8 1_555 1_555
N2 N3 1_555 1_555
N3 C8 1_555 1_555
N4 Zn1 1_555 1_555
N5 C17 1_555 1_555
N6 C27 1_555 1_555
N7 C28 1_555 1_555
C1 O2 1_555 1_555
C2 C1 1_555 1_555
C3 C2 1_555 1_555
H1 C3 1_555 1_555
C4 C3 1_555 1_555
H2 C4 1_555 1_555
C5 C4 1_555 1_555
C6 C5 1_555 1_555
H3 C6 1_555 1_555
C7 C2 1_555 1_555
H4 C7 1_555 1_555
C8 C5 1_555 1_555
C9 N1 1_555 1_555
C10 C9 1_555 1_555
C11 C10 1_555 1_555
H5 C11 1_555 1_555
C12 C11 1_555 1_555
H6 C12 1_555 1_555
C13 C12 1_555 1_555
C14 C13 1_555 1_555
H7 C14 1_555 1_555
C15 C10 1_555 1_555
H8 C15 1_555 1_555
C16 C13 1_555 1_555
C17 N4 1_555 1_555
H9 C17 1_555 1_555
C18 N5 1_555 1_555
H10 C18 1_555 1_555
C19 N4 1_555 1_555
H11 C19 1_555 1_555
C20 N5 1_555 1_555
H12 C20 1_555 1_555
H13 C20 1_555 1_555
C21 C20 1_555 1_555
C22 C21 1_555 1_555
H14 C22 1_555 1_555
C23 C22 1_555 1_555
H15 C23 1_555 1_555
C24 C23 1_555 1_555
C25 C24 1_555 1_555
H16 C25 1_555 1_555
C26 C21 1_555 1_555
H17 C26 1_555 1_555
C27 C24 1_555 1_555
H18 C27 1_555 1_555
H19 C27 1_555 1_555
C28 N6 1_555 1_555
H20 C28 1_555 1_555
C29 N7 1_555 1_555
H21 C29 1_555 1_555
C30 N6 1_555 1_555
H22 C30 1_555 1_555
O6 H23 1_555 1_555
H24 O6 1_555 1_555
Zn1A O4 1_555 1_555
Zn1B N7 1_555 1_555
Zn1G O3 1_555 1_555
O3G Zn1 1_555 1_555
O4A Zn1 1_555 1_555
N7B Zn1 1_555 1_555
N2 C9 1_555 1_555
C6 C7 1_555 1_555
C14 C15 1_555 1_555
C18 C19 1_555 1_555
C25 C26 1_555 1_555
C29 C30 1_555 1_555

#END
