
#######################################################################
#
#                 Cambridge Crystallographic Data Centre
#                                CCDC 
#
#######################################################################
#
# If this CIF has been generated from an entry in the Cambridge 
# Structural Database, then it will include bibliographic, chemical, 
# crystal, experimental, refinement or atomic coordinate data resulting 
# from the CCDC's data processing and validation procedures.
#
#######################################################################

data_ZIMJAI
_symmetry_cell_setting           triclinic
_symmetry_space_group_name_H-M   'P -1'
_symmetry_Int_Tables_number      2
_space_group_name_Hall           '-P 1'
loop_
_symmetry_equiv_pos_site_id
_symmetry_equiv_pos_as_xyz
1 x,y,z
2 -x,-y,-z
_cell_length_a                   9.1911(14)
_cell_length_b                   10.0208(16)
_cell_length_c                   10.2252(16)
_cell_angle_alpha                74.732(2)
_cell_angle_beta                 88.994(3)
_cell_angle_gamma                64.725(2)
_cell_volume                     816.676
loop_
_atom_site_label
_atom_site_type_symbol
_atom_site_fract_x
_atom_site_fract_y
_atom_site_fract_z
Cd1 Cd 1.31481(7) -0.90305(6) 0.86859(5)
O1 O 1.0650(9) -0.6947(7) 0.9039(7)
O2 O 1.2328(9) -1.0251(8) 0.7518(7)
O3 O 1.1829(8) -0.6622(7) 0.7214(7)
N1 N 1.4949(8) -0.8990(6) 0.6649(6)
O4 O 1.5041(7) -1.1509(6) 1.0211(5)
O5 O 1.2457(7) -1.0540(6) 1.0552(6)
C1 C 1.0726(9) -0.6090(9) 0.7958(8)
H1 H 1.3153 -1.0957 0.7327
H2 H 1.1769 -1.0642 0.8001
C2 C 0.9566(9) -0.4441(8) 0.7488(8)
C3 C 0.8265(10) -0.3809(8) 0.8189(8)
C4 C 0.9762(11) -0.3486(10) 0.6311(9)
H3 H 0.8123 -0.4426 0.8988
C5 C 0.7177(10) -0.2284(9) 0.7727(8)
C6 C 0.8686(11) -0.1925(9) 0.5841(9)
H4 H 1.0629 -0.3895 0.5824
H5 H 0.6296 -0.1888 0.8204
C7 C 0.7380(9) -0.1335(8) 0.6562(7)
H6 H 0.8843 -0.1295 0.5061
C8 C 0.6236(8) 0.0346(7) 0.6026(6)
N2 N 0.6373(8) 0.1263(7) 0.4858(6)
C9 C 0.5118(9) 0.2624(8) 0.4758(7)
N3 N 0.4289(7) 0.2475(6) 0.5814(6)
C10 C 0.4801(9) 0.4071(7) 0.3699(7)
H7 H 0.3438 0.3214 0.5956
C11 C 0.3308(9) 0.5403(9) 0.3623(7)
C12 C 0.5856(10) 0.4168(9) 0.2785(9)
H8 H 0.2552 0.5339 0.4223
C13 C 0.2993(10) 0.6758(9) 0.2678(8)
C14 C 0.5555(10) 0.5536(9) 0.1833(8)
H9 H 0.6801 0.3295 0.2801
H10 H 0.2024 0.7620 0.2634
C15 C 0.4122(9) 0.6859(9) 0.1774(8)
H11 H 0.6307 0.5585 0.1224
C16 C 0.3837(11) 0.8341(10) 0.0811(8)
O4A O 1.4959(7) -0.8491(6) 0.9789(5)
N1_2 N 0.4949(8) 0.1010(6) 0.6649(6)
Cd1_2 Cd 0.31481(7) 0.09695(6) 0.86859(5)
O4_2 O 0.5041(7) 0.8491(6) 0.0211(5)
O5_2 O 0.2457(7) 0.9460(6) 0.0552(6)
Cd1_3 Cd 0.31481(7) 1.09695(6) -0.13141(5)
Cd1A Cd 0.68519(7) 0.90305(6) 0.13141(5)
O6 O 0.9386(14) 0.1722(14) 0.1312(9)
H12 H 0.9450 0.2413 0.0655
H13 H 1.0189 0.0873 0.1334
loop_
_geom_bond_atom_site_label_1
_geom_bond_atom_site_label_2
_geom_bond_site_symmetry_1
_geom_bond_site_symmetry_2
Cd1 O1 1_555 1_555
O1 C1 1_555 1_555
O2 Cd1 1_555 1_555
O3 Cd1 1_555 1_555
N1 Cd1 1_555 1_555
O4 Cd1 1_555 1_555
O5 Cd1 1_555 1_555
C1 O3 1_555 1_555
H1 O2 1_555 1_555
H2 O2 1_555 1_555
C2 C1 1_555 1_555
C3 C2 1_555 1_555
C4 C2 1_555 1_555
H3 C3 1_555 1_555
C5 C3 1_555 1_555
C6 C4 1_555 1_555
H4 C4 1_555 1_555
H5 C5 1_555 1_555
C7 C5 1_555 1_555
H6 C6 1_555 1_555
C8 C7 1_555 1_555
N2 C8 1_555 1_555
C9 N2 1_555 1_555
N3 C9 1_555 1_555
C10 C9 1_555 1_555
H7 N3 1_555 1_555
C11 C10 1_555 1_555
C12 C10 1_555 1_555
H8 C11 1_555 1_555
C13 C11 1_555 1_555
C14 C12 1_555 1_555
H9 C12 1_555 1_555
H10 C13 1_555 1_555
C15 C13 1_555 1_555
H11 C14 1_555 1_555
C16 C15 1_555 1_555
O6 H12 1_555 1_555
H13 O6 1_555 1_555
O4A Cd1 1_555 1_555
N1_2 C8 1_555 1_555
Cd1_2 N1_2 1_555 1_555
O4_2 C16 1_555 1_555
O5_2 C16 1_555 1_555
Cd1_3 O4_2 1_555 1_555
Cd1A O4_2 1_555 1_555
C6 C7 1_555 1_555
N3 N1_2 1_555 1_555
C14 C15 1_555 1_555
O5_2 Cd1_3 1_555 1_555

#END
