
#######################################################################
#
#                 Cambridge Crystallographic Data Centre
#                                CCDC 
#
#######################################################################
#
# If this CIF has been generated from an entry in the Cambridge 
# Structural Database, then it will include bibliographic, chemical, 
# crystal, experimental, refinement or atomic coordinate data resulting 
# from the CCDC's data processing and validation procedures.
#
#######################################################################

data_ZIMJEM
_symmetry_cell_setting           orthorhombic
_symmetry_space_group_name_H-M   'P b c a'
_symmetry_Int_Tables_number      61
_space_group_name_Hall           '-P 2ac 2ab'
loop_
_symmetry_equiv_pos_site_id
_symmetry_equiv_pos_as_xyz
1 x,y,z
2 1/2-x,-y,1/2+z
3 -x,1/2+y,1/2-z
4 1/2+x,1/2-y,-z
5 -x,-y,-z
6 1/2+x,y,1/2-z
7 x,1/2-y,1/2+z
8 1/2-x,1/2+y,z
_cell_length_a                   14.8901(12)
_cell_length_b                   9.8668(7)
_cell_length_c                   28.694(3)
_cell_angle_alpha                90
_cell_angle_beta                 90
_cell_angle_gamma                90
_cell_volume                     4215.65
loop_
_atom_site_label
_atom_site_type_symbol
_atom_site_fract_x
_atom_site_fract_y
_atom_site_fract_z
Dy1 Dy 0.505590(14) 0.33836(2) 0.385745(8)
N1 N 0.6355(3) 0.1958(4) 0.34765(16)
N2 N 0.3721(3) 0.4845(5) 0.35755(15)
O1 O 0.6488(2) 0.3778(4) 0.41623(13)
O2 O 0.7984(2) 0.3663(4) 0.41526(15)
O3 O 0.9347(2) -0.0285(4) 0.32628(13)
O4 O 0.8635(2) -0.0742(4) 0.25979(14)
O5 O 0.3688(2) 0.3022(4) 0.42509(13)
O6 O 0.2216(2) 0.3287(4) 0.43633(14)
O7 O 0.0656(2) 0.6917(4) 0.33499(13)
O8 O 0.1419(2) 0.7485(4) 0.27116(15)
O9 O 0.5301(3) 0.1612(4) 0.43872(14)
H1 H 0.5826 0.1429 0.4485
H2 H 0.4993 0.1909 0.4615
O10 O 0.4957(2) 0.5147(4) 0.44013(15)
H3 H 0.5308 0.5764 0.4499
H4 H 0.4437 0.5298 0.4512
C1 C 0.7224(3) 0.3286(5) 0.4017(2)
C2 C 0.8679(3) -0.0233(5) 0.2999(2)
C3 C 0.7170(3) 0.2193(5) 0.36530(19)
C4 C 0.7937(3) 0.1493(5) 0.35133(19)
H5 H 0.8490 0.1665 0.3652
C5 C 0.7855(3) 0.0533(5) 0.3162(2)
C6 C 0.7015(3) 0.0291(6) 0.29720(19)
H6 H 0.6938 -0.0344 0.2736
C7 C 0.6294(4) 0.1020(6) 0.3142(2)
H7 H 0.5730 0.0846 0.3016
C8 C 0.2932(3) 0.3548(5) 0.41614(19)
C9 C 0.1344(3) 0.6930(6) 0.3105(2)
C10 C 0.2918(3) 0.4600(5) 0.37727(18)
C11 C 0.2141(3) 0.5254(5) 0.36390(19)
H8 H 0.1600 0.5059 0.3786
C12 C 0.2175(3) 0.6211(5) 0.32812(19)
C13 C 0.3013(3) 0.6498(6) 0.3090(2)
H9 H 0.3072 0.7161 0.2862
C14 C 0.3753(3) 0.5792(6) 0.3242(2)
H10 H 0.4305 0.5983 0.3106
Dy1G Dy -0.005590(14) 0.83836(2) 0.385745(8)
Dy1G_2 Dy 0.994410(14) -0.16164(2) 0.385745(8)
O3G O 0.5653(2) 0.4715(4) 0.32628(13)
O7G O 0.4344(2) 0.1917(4) 0.33499(13)
N3 N 0.4551(3) 0.9085(4) 0.44464(16)
H11 H 0.4973 0.8506 0.4549
H12 H 0.4796 0.9918 0.4429
H13 H 0.4081 0.9093 0.4644
H14 H 0.4354 0.8824 0.4164
O11 O 0.5896(2) 0.7263(4) 0.47725(14)
H15 H 0.6277 0.7706 0.4613
H16 H 0.6076 0.7235 0.5054
O12 O 0.6970(3) 0.1019(4) 0.46570(15)
H17 H 0.7013 0.0208 0.4559
H18 H 0.7064 0.1027 0.4949
O13 O 0.5322(4) 0.8526(6) 0.36047(18)
H19 H 0.5856 0.8542 0.3709
H20 H 0.5339 0.8411 0.3311
O14 O 0.4976(2) 0.3201(5) 0.22806(16)
H21 H 0.5404 0.3557 0.2434
H22 H 0.4551 0.3013 0.2468
O15 O 0.3379(2) 0.5890(4) 0.48103(14)
H23 H 0.3411 0.6012 0.5103
H24 H 0.3200 0.6622 0.4685
loop_
_geom_bond_atom_site_label_1
_geom_bond_atom_site_label_2
_geom_bond_site_symmetry_1
_geom_bond_site_symmetry_2
Dy1 N1 1_555 1_555
N1 C3 1_555 1_555
N2 Dy1 1_555 1_555
O1 Dy1 1_555 1_555
O2 C1 1_555 1_555
O3 C2 1_555 1_555
O4 C2 1_555 1_555
O5 Dy1 1_555 1_555
O6 C8 1_555 1_555
O7 C9 1_555 1_555
O8 C9 1_555 1_555
O9 Dy1 1_555 1_555
H1 O9 1_555 1_555
H2 O9 1_555 1_555
O10 Dy1 1_555 1_555
H3 O10 1_555 1_555
H4 O10 1_555 1_555
C1 O1 1_555 1_555
C2 C5 1_555 1_555
C3 C1 1_555 1_555
C4 C3 1_555 1_555
H5 C4 1_555 1_555
C5 C4 1_555 1_555
C6 C5 1_555 1_555
H6 C6 1_555 1_555
C7 N1 1_555 1_555
H7 C7 1_555 1_555
C8 O5 1_555 1_555
C9 C12 1_555 1_555
C10 N2 1_555 1_555
C11 C10 1_555 1_555
H8 C11 1_555 1_555
C12 C11 1_555 1_555
C13 C12 1_555 1_555
H9 C13 1_555 1_555
C14 N2 1_555 1_555
H10 C14 1_555 1_555
N3 H11 1_555 1_555
H12 N3 1_555 1_555
H13 N3 1_555 1_555
H14 N3 1_555 1_555
O11 H15 1_555 1_555
H16 O11 1_555 1_555
O12 H17 1_555 1_555
H18 O12 1_555 1_555
O13 H19 1_555 1_555
H20 O13 1_555 1_555
O14 H21 1_555 1_555
H22 O14 1_555 1_555
O15 H23 1_555 1_555
H24 O15 1_555 1_555
Dy1G O7 1_555 1_555
Dy1G_2 O3 1_555 1_555
O3G Dy1 1_555 1_555
O7G Dy1 1_555 1_555
C6 C7 1_555 1_555
C8 C10 1_555 1_555
C13 C14 1_555 1_555

#END
