
#######################################################################
#
#                 Cambridge Crystallographic Data Centre
#                                CCDC 
#
#######################################################################
#
# If this CIF has been generated from an entry in the Cambridge 
# Structural Database, then it will include bibliographic, chemical, 
# crystal, experimental, refinement or atomic coordinate data resulting 
# from the CCDC's data processing and validation procedures.
#
#######################################################################

data_ZIMJUC
_symmetry_cell_setting           triclinic
_symmetry_space_group_name_H-M   'P -1'
_symmetry_Int_Tables_number      2
_space_group_name_Hall           '-P 1'
loop_
_symmetry_equiv_pos_site_id
_symmetry_equiv_pos_as_xyz
1 x,y,z
2 -x,-y,-z
_cell_length_a                   11.9209(10)
_cell_length_b                   14.5195(12)
_cell_length_c                   17.7198(14)
_cell_angle_alpha                102.145(4)
_cell_angle_beta                 100.577(5)
_cell_angle_gamma                91.647(4)
_cell_volume                     2940.2
loop_
_atom_site_label
_atom_site_type_symbol
_atom_site_fract_x
_atom_site_fract_y
_atom_site_fract_z
C1 C 0.3496(6) 0.8462(6) 0.0149(4)
C2 C 0.4560(6) 0.8538(6) -0.0052(5)
H1 H 0.4703 0.8186 -0.0523
C3 C 0.5407(6) 0.9153(6) 0.0468(5)
C4 C 0.5162(6) 0.9651(6) 0.1164(5)
H2 H 0.5710 1.0079 0.1516
C5 C 0.4091(6) 0.9505(5) 0.1334(4)
C6 C 0.2485(7) 0.7873(6) -0.0394(4)
C7 C 0.6575(7) 0.9361(6) 0.0297(5)
C8 C 0.3747(6) 1.0000(5) 0.2091(5)
C9 C -0.1302(6) 0.9138(5) 0.1982(4)
C10 C -0.2348(6) 0.9026(5) 0.2203(5)
H3 H -0.2624 0.9522 0.2528
C11 C -0.2973(6) 0.8163(5) 0.1932(4)
C12 C -0.2522(7) 0.7430(6) 0.1468(5)
H4 H -0.2930 0.6847 0.1270
C13 C -0.1449(6) 0.7591(5) 0.1309(4)
C14 C -0.0595(7) 1.0072(5) 0.2204(5)
C15 C -0.4093(6) 0.8038(6) 0.2173(5)
C16 C -0.0853(7) 0.6818(6) 0.0859(4)
C17 C 0.2033(6) 0.7774(5) 0.2843(4)
C18 C 0.2848(6) 0.7394(5) 0.2290(4)
C19 C 0.6425(6) 0.6568(5) 0.3369(4)
C20 C 0.7529(6) 0.6848(6) 0.3330(5)
H5 H 0.7955 0.6452 0.3027
C21 C 0.7982(7) 0.7737(6) 0.3756(5)
C22 C 0.7318(7) 0.8311(6) 0.4185(5)
H6 H 0.7615 0.8901 0.4488
C23 C 0.6210(7) 0.8001(5) 0.4160(4)
C24 C 0.5830(6) 0.5613(5) 0.2931(4)
C25 C 0.9156(8) 0.8097(8) 0.3722(6)
C26 C 0.5352(7) 0.8597(6) 0.4502(5)
C27 C 0.1401(6) 0.6544(5) 0.4924(4)
C28 C 0.0331(6) 0.6420(5) 0.5103(4)
H7 H 0.0177 0.6713 0.5589
C29 C -0.0501(6) 0.5851(5) 0.4541(4)
C30 C -0.0247(6) 0.5421(5) 0.3819(4)
H8 H -0.0792 0.5031 0.3433
C31 C 0.0849(6) 0.5594(5) 0.3694(4)
C32 C 0.2398(6) 0.7096(5) 0.5511(4)
C33 C -0.1657(7) 0.5607(6) 0.4705(5)
C34 C 0.1228(6) 0.5157(5) 0.2940(4)
C35 C 0.5505(6) 0.5377(5) 0.5167(4)
C36 C -0.0520(6) 0.9629(5) -0.0134(4)
N1 N 0.3266(5) 0.8927(4) 0.0827(3)
N2 N -0.0853(5) 0.8432(4) 0.1552(3)
N3 N 0.5786(5) 0.7122(4) 0.3784(4)
N4 N 0.1666(5) 0.6137(4) 0.4242(3)
O1 O 0.1588(5) 0.7804(4) -0.0128(3)
O2 O 0.2597(5) 0.7475(5) -0.1073(3)
O3 O 0.6730(5) 0.8874(5) -0.0395(4)
H9 H 0.7373 0.9012 -0.0458
O4 O 0.7258(5) 0.9940(5) 0.0732(4)
O5 O 0.4435(5) 1.0607(4) 0.2558(4)
O6 O 0.2770(4) 0.9756(4) 0.2187(3)
O7 O 0.0353(5) 1.0077(4) 0.1984(4)
O8 O -0.1009(5) 1.0773(4) 0.2563(4)
O9 O -0.4436(5) 0.8621(4) 0.2657(4)
O10 O -0.4643(5) 0.7206(5) 0.1829(4)
H10 H -0.5252 0.7171 0.1977
O11 O -0.1331(5) 0.6018(4) 0.0633(4)
O12 O 0.0124(4) 0.7061(4) 0.0733(3)
O13 O 0.2646(5) 0.7524(4) 0.1612(3)
O14 O 0.3655(4) 0.6935(4) 0.2565(3)
O15 O 0.1276(5) 0.8261(4) 0.2579(3)
O16 O 0.2189(5) 0.7576(4) 0.3493(3)
O17 O 0.4900(4) 0.5388(4) 0.3112(3)
O18 O 0.6291(5) 0.5119(4) 0.2425(4)
O19 O 0.9568(6) 0.7607(6) 0.3156(5)
H11 H 1.0213 0.7828 0.3167
O20 O 0.9622(8) 0.8796(8) 0.4140(7)
O21 O 0.5697(5) 0.9469(4) 0.4786(4)
O22 O 0.4377(5) 0.8242(4) 0.4453(4)
O23 O 0.3330(4) 0.7166(4) 0.5281(3)
O24 O 0.2265(5) 0.7438(4) 0.6198(3)
O25 O -0.1797(5) 0.6020(4) 0.5415(3)
H12 H -0.2437 0.5864 0.5474
O26 O -0.2362(5) 0.5066(4) 0.4231(3)
O27 O 0.0547(5) 0.4615(5) 0.2415(4)
O28 O 0.2234(4) 0.5392(4) 0.2896(3)
O29 O 0.5420(4) 0.6148(3) 0.4966(3)
O30 O 0.6343(4) 0.5143(4) 0.5621(3)
O31 O -0.0439(4) 0.8898(4) 0.0118(3)
O32 O -0.1356(4) 0.9822(4) -0.0605(3)
Ce1 Ce 0.12037(3) 0.86958(3) 0.12026(2)
Ce2 Ce 0.37188(3) 0.64702(3) 0.39213(2)
Ce3 Ce 0.43051(13) 0.80408(11) 0.68032(9)
Ce4 Ce 0.08677(13) 0.64692(12) -0.16210(9)
O33 O 0.1988(6) 0.6302(5) -0.2660(4)
H13 H 0.252(6) 0.601(6) -0.279(6)
H14 H 0.186(8) 0.667(6) -0.296(5)
O34 O 0.2053(8) 0.5141(6) -0.1530(6)
H15 H 0.254(9) 0.501(9) -0.181(7)
H16 H 0.196(12) 0.465(5) -0.138(8)
O35 O -0.0861(6) 0.7181(6) -0.1140(4)
H17 H -0.139(7) 0.705(8) -0.093(7)
H18 H -0.111(9) 0.759(7) -0.137(7)
O36 O 0.0539(9) 0.5781(5) -0.0552(4)
H19 H 0.040(12) 0.604(8) -0.012(4)
H20 H 0.074(12) 0.526(4) -0.049(7)
O37 O 0.0170(7) 0.7462(6) -0.2525(6)
H21 H -0.054(2) 0.741(10) -0.266(7)
H22 H 0.027(10) 0.782(9) -0.208(4)
O38 O 0.3525(6) 0.9364(5) 0.6330(4)
H23 H 0.316(9) 0.937(7) 0.588(3)
H24 H 0.393(8) 0.987(5) 0.645(6)
O39 O 0.5479(7) 0.7667(6) 0.7973(5)
H25 H 0.584(10) 0.806(6) 0.836(5)
H26 H 0.576(10) 0.717(4) 0.805(7)
O40 O 0.5971(6) 0.7805(5) 0.6198(4)
H27 H 0.638(8) 0.827(4) 0.617(6)
H28 H 0.608(9) 0.740(5) 0.582(4)
O41 O 0.3168(5) 0.8466(5) 0.7786(4)
H29 H 0.256(5) 0.873(7) 0.769(6)
H30 H 0.304(7) 0.817(6) 0.812(5)
O42 O 0.4290(6) 0.6342(4) 0.6602(4)
H31 H 0.474(7) 0.608(6) 0.689(5)
H32 H 0.390(8) 0.590(4) 0.628(5)
C35A C 0.4495(6) 0.4623(5) 0.4833(4)
O29A O 0.4580(4) 0.3852(3) 0.5034(3)
O30A O 0.3657(4) 0.4857(4) 0.4379(3)
C36A C 0.0520(6) 1.0371(5) 0.0134(4)
O31A O 0.0439(4) 1.1102(4) -0.0118(3)
O32A O 0.1356(4) 1.0178(4) 0.0605(3)
C1A C -0.3496(6) 0.1538(6) -0.0149(4)
C2A C -0.4560(6) 0.1462(6) 0.0052(5)
H1A H -0.4703 0.1814 0.0523
C3A C -0.5407(6) 0.0847(6) -0.0468(5)
C4A C -0.5162(6) 0.0349(6) -0.1164(5)
H2A H -0.5710 -0.0079 -0.1516
C5A C -0.4091(6) 0.0495(5) -0.1334(4)
C6A C -0.2485(7) 0.2127(6) 0.0394(4)
C7A C -0.6575(7) 0.0639(6) -0.0297(5)
C8A C -0.3747(6) 0.0000(5) -0.2091(5)
C9A C 0.1302(6) 0.0862(5) -0.1982(4)
C10A C 0.2348(6) 0.0974(5) -0.2203(5)
H3A H 0.2624 0.0478 -0.2528
C11A C 0.2973(6) 0.1837(5) -0.1932(4)
C12A C 0.2522(7) 0.2570(6) -0.1468(5)
H4A H 0.2930 0.3153 -0.1270
C13A C 0.1449(6) 0.2409(5) -0.1309(4)
C14A C 0.0595(7) -0.0072(5) -0.2204(5)
C15A C 0.4093(6) 0.1962(6) -0.2173(5)
C16A C 0.0853(7) 0.3182(6) -0.0859(4)
C17A C -0.2033(6) 0.2226(5) -0.2843(4)
C18A C -0.2848(6) 0.2606(5) -0.2290(4)
C19A C -0.6425(6) 0.3432(5) -0.3369(4)
C20A C -0.7529(6) 0.3152(6) -0.3330(5)
H5A H -0.7955 0.3548 -0.3027
C21A C -0.7982(7) 0.2263(6) -0.3756(5)
C22A C -0.7318(7) 0.1689(6) -0.4185(5)
H6A H -0.7615 0.1099 -0.4488
C23A C -0.6210(7) 0.1999(5) -0.4160(4)
C24A C -0.5830(6) 0.4387(5) -0.2931(4)
C25A C -0.9156(8) 0.1903(8) -0.3722(6)
C26A C -0.5352(7) 0.1403(6) -0.4502(5)
C27A C -0.1401(6) 0.3456(5) -0.4924(4)
C28A C -0.0331(6) 0.3580(5) -0.5103(4)
H7A H -0.0177 0.3287 -0.5589
C29A C 0.0501(6) 0.4149(5) -0.4541(4)
C30A C 0.0247(6) 0.4579(5) -0.3819(4)
H8A H 0.0792 0.4969 -0.3433
C31A C -0.0849(6) 0.4406(5) -0.3694(4)
C32A C -0.2398(6) 0.2904(5) -0.5511(4)
C33A C 0.1657(7) 0.4393(6) -0.4705(5)
C34A C -0.1228(6) 0.4843(5) -0.2940(4)
N1A N -0.3266(5) 0.1073(4) -0.0827(3)
N2A N 0.0853(5) 0.1568(4) -0.1552(3)
N3A N -0.5786(5) 0.2878(4) -0.3784(4)
N4A N -0.1666(5) 0.3863(4) -0.4242(3)
O1A O -0.1588(5) 0.2196(4) 0.0128(3)
O2A O -0.2597(5) 0.2525(5) 0.1073(3)
O3A O -0.6730(5) 0.1126(5) 0.0395(4)
H9A H -0.7373 0.0988 0.0458
O4A O -0.7258(5) 0.0060(5) -0.0732(4)
O5A O -0.4435(5) -0.0607(4) -0.2558(4)
O6A O -0.2770(4) 0.0244(4) -0.2187(3)
O7A O -0.0353(5) -0.0077(4) -0.1984(4)
O8A O 0.1009(5) -0.0773(4) -0.2563(4)
O9A O 0.4436(5) 0.1379(4) -0.2657(4)
O10A O 0.4643(5) 0.2794(5) -0.1829(4)
H10A H 0.5252 0.2829 -0.1977
O11A O 0.1331(5) 0.3982(4) -0.0633(4)
O12A O -0.0124(4) 0.2939(4) -0.0733(3)
O13A O -0.2646(5) 0.2476(4) -0.1612(3)
O14A O -0.3655(4) 0.3065(4) -0.2565(3)
O15A O -0.1276(5) 0.1739(4) -0.2579(3)
O16A O -0.2189(5) 0.2424(4) -0.3493(3)
O17A O -0.4900(4) 0.4612(4) -0.3112(3)
O18A O -0.6291(5) 0.4881(4) -0.2425(4)
O19A O -0.9568(6) 0.2393(6) -0.3156(5)
H11A H -1.0213 0.2172 -0.3167
O20A O -0.9622(8) 0.1204(8) -0.4140(7)
O21A O -0.5697(5) 0.0531(4) -0.4786(4)
O22A O -0.4377(5) 0.1758(4) -0.4453(4)
O23A O -0.3330(4) 0.2834(4) -0.5281(3)
O24A O -0.2265(5) 0.2562(4) -0.6198(3)
O25A O 0.1797(5) 0.3980(4) -0.5415(3)
H12A H 0.2437 0.4136 -0.5474
O26A O 0.2362(5) 0.4934(4) -0.4231(3)
O27A O -0.0547(5) 0.5385(5) -0.2415(4)
O28A O -0.2234(4) 0.4608(4) -0.2896(3)
Ce1A Ce -0.12037(3) 0.13042(3) -0.12026(2)
Ce2A Ce -0.37188(3) 0.35298(3) -0.39213(2)
Ce3A Ce -0.43051(13) 0.19592(11) -0.68032(9)
Ce4A Ce -0.08677(13) 0.35308(12) 0.16210(9)
O33A O -0.1988(6) 0.3698(5) 0.2660(4)
H13A H -0.252(6) 0.399(6) 0.279(6)
H14A H -0.186(8) 0.333(6) 0.296(5)
O34A O -0.2053(8) 0.4859(6) 0.1530(6)
H15A H -0.254(9) 0.499(9) 0.181(7)
H16A H -0.196(12) 0.535(5) 0.138(8)
O35A O 0.0861(6) 0.2819(6) 0.1140(4)
H17A H 0.139(7) 0.295(8) 0.093(7)
H18A H 0.111(9) 0.241(7) 0.137(7)
O36A O -0.0539(9) 0.4219(5) 0.0552(4)
H19A H -0.040(12) 0.396(8) 0.012(4)
H20A H -0.074(12) 0.474(4) 0.049(7)
O37A O -0.0170(7) 0.2538(6) 0.2525(6)
H21A H 0.054(2) 0.259(10) 0.266(7)
H22A H -0.027(10) 0.218(9) 0.208(4)
O38A O -0.3525(6) 0.0636(5) -0.6330(4)
H23A H -0.316(9) 0.063(7) -0.588(3)
H24A H -0.393(8) 0.013(5) -0.645(6)
O39A O -0.5479(7) 0.2333(6) -0.7973(5)
H25A H -0.584(10) 0.194(6) -0.836(5)
H26A H -0.576(10) 0.283(4) -0.805(7)
O40A O -0.5971(6) 0.2195(5) -0.6198(4)
H27A H -0.638(8) 0.173(4) -0.617(6)
H28A H -0.608(9) 0.260(5) -0.582(4)
O41A O -0.3168(5) 0.1534(5) -0.7786(4)
H29A H -0.256(5) 0.127(7) -0.769(6)
H30A H -0.304(7) 0.183(6) -0.812(5)
O42A O -0.4290(6) 0.3658(4) -0.6602(4)
H31A H -0.474(7) 0.392(6) -0.689(5)
H32A H -0.390(8) 0.410(4) -0.628(5)
O5_2 O -0.5565(5) 0.0607(4) -0.7442(4)
O5A_2 O 0.5565(5) 0.9393(4) 0.7442(4)
O29A_2 O -0.5420(4) 0.3852(3) -0.4966(3)
O30_2 O -0.3657(4) 0.5143(4) -0.4379(3)
O31A_2 O 0.0439(4) 0.1102(4) -0.0118(3)
O32_2 O -0.1356(4) -0.0178(4) -0.0605(3)
Ce1A_2 Ce -0.12037(3) 1.13042(3) -0.12026(2)
Ce2A_2 Ce 0.62812(3) 0.35298(3) 0.60787(2)
Ce3_2 Ce -0.56949(13) -0.19592(11) -0.31968(9)
Ce3A_2 Ce 0.56949(13) 1.19592(11) 0.31968(9)
O43 O 0.2498(9) 1.0594(7) 0.3727(5)
H33 H 0.244(14) 1.038(9) 0.325(2)
H34 H 0.232(14) 1.012(6) 0.389(7)
O44 O 0.2955(11) 0.5950(7) 0.0486(6)
H35 H 0.252(13) 0.598(10) 0.006(5)
H36 H 0.310(14) 0.652(3) 0.070(8)
O45 O 0.2166(8) 0.9221(6) 0.4788(5)
H37 H 0.256(10) 0.875(6) 0.478(8)
H38 H 0.161(4) 0.901(8) 0.443(2)
O46 O 0.7575(9) 0.5493(6) 0.8671(5)
H39 H 0.749(13) 0.523(8) 0.820(2)
H40 H 0.760(13) 0.504(6) 0.889(6)
O47 O -0.2010(9) 0.8176(7) -0.2257(6)
H41 H -0.224(13) 0.764(5) -0.253(7)
H42 H -0.160(13) 0.838(10) -0.252(8)
O48 O 0.5335(8) 0.6144(6) 0.8652(5)
H43 H 0.499(10) 0.629(10) 0.902(5)
H44 H 0.488(9) 0.573(8) 0.833(6)
O49 O 0.5011(15) 0.5960(11) 1.0080(13)
H45 H 0.557(5) 0.565(3) 1.018(18)
H46 H 0.440(7) 0.565(6) 0.985(17)
C37 C 0.0780(13) 0.9090(9) 0.5828(7)
H47 H 0.0877 0.9763 0.5895
H48 H 0.0903 0.8790 0.5316
H49 H 0.1322 0.8891 0.6223
O50 O -0.0423(17) 0.8818(15) 0.5907(11)
H50 H -0.0643 0.8304 0.5613
loop_
_geom_bond_atom_site_label_1
_geom_bond_atom_site_label_2
_geom_bond_site_symmetry_1
_geom_bond_site_symmetry_2
C1 C2 1_555 1_555
C2 H1 1_555 1_555
C3 C2 1_555 1_555
C4 C3 1_555 1_555
H2 C4 1_555 1_555
C5 C4 1_555 1_555
C6 C1 1_555 1_555
C7 C3 1_555 1_555
C8 C5 1_555 1_555
C9 C10 1_555 1_555
C10 H3 1_555 1_555
C11 C10 1_555 1_555
C12 C11 1_555 1_555
H4 C12 1_555 1_555
C13 C12 1_555 1_555
C14 C9 1_555 1_555
C15 C11 1_555 1_555
C16 C13 1_555 1_555
C17 C18 1_555 1_555
C18 O13 1_555 1_555
C19 C20 1_555 1_555
C20 H5 1_555 1_555
C21 C20 1_555 1_555
C22 C21 1_555 1_555
H6 C22 1_555 1_555
C23 C22 1_555 1_555
C24 C19 1_555 1_555
C25 C21 1_555 1_555
C26 C23 1_555 1_555
C27 C28 1_555 1_555
C28 H7 1_555 1_555
C29 C28 1_555 1_555
C30 C29 1_555 1_555
H8 C30 1_555 1_555
C31 C30 1_555 1_555
C32 C27 1_555 1_555
C33 C29 1_555 1_555
C34 C31 1_555 1_555
C35 O29 1_555 1_555
C36 O31 1_555 1_555
N1 C1 1_555 1_555
N2 C9 1_555 1_555
N3 C19 1_555 1_555
N4 C27 1_555 1_555
O1 C6 1_555 1_555
O2 C6 1_555 1_555
O3 C7 1_555 1_555
H9 O3 1_555 1_555
O4 C7 1_555 1_555
O5 C8 1_555 1_555
O6 C8 1_555 1_555
O7 C14 1_555 1_555
O8 C14 1_555 1_555
O9 C15 1_555 1_555
O10 C15 1_555 1_555
H10 O10 1_555 1_555
O11 C16 1_555 1_555
O12 C16 1_555 1_555
O13 Ce1 1_555 1_555
O14 C18 1_555 1_555
O15 C17 1_555 1_555
O16 C17 1_555 1_555
O17 C24 1_555 1_555
O18 C24 1_555 1_555
O19 C25 1_555 1_555
H11 O19 1_555 1_555
O20 C25 1_555 1_555
O21 C26 1_555 1_555
O22 C26 1_555 1_555
O23 C32 1_555 1_555
O24 C32 1_555 1_555
O25 C33 1_555 1_555
H12 O25 1_555 1_555
O26 C33 1_555 1_555
O27 C34 1_555 1_555
O28 C34 1_555 1_555
O29 Ce2 1_555 1_555
O30 C35 1_555 1_555
O31 Ce1 1_555 1_555
O32 C36 1_555 1_555
Ce1 N1 1_555 1_555
Ce2 N3 1_555 1_555
Ce3 O23 1_555 1_555
Ce4 O1 1_555 1_555
O33 Ce4 1_555 1_555
H13 O33 1_555 1_555
H14 O33 1_555 1_555
O34 Ce4 1_555 1_555
H15 O34 1_555 1_555
H16 O34 1_555 1_555
O35 Ce4 1_555 1_555
H17 O35 1_555 1_555
H18 O35 1_555 1_555
O36 Ce4 1_555 1_555
H19 O36 1_555 1_555
H20 O36 1_555 1_555
O37 Ce4 1_555 1_555
H21 O37 1_555 1_555
H22 O37 1_555 1_555
O38 Ce3 1_555 1_555
H23 O38 1_555 1_555
H24 O38 1_555 1_555
O39 Ce3 1_555 1_555
H25 O39 1_555 1_555
H26 O39 1_555 1_555
O40 Ce3 1_555 1_555
H27 O40 1_555 1_555
H28 O40 1_555 1_555
O41 Ce3 1_555 1_555
H29 O41 1_555 1_555
H30 O41 1_555 1_555
O42 Ce3 1_555 1_555
H31 O42 1_555 1_555
H32 O42 1_555 1_555
O43 H33 1_555 1_555
H34 O43 1_555 1_555
O44 H35 1_555 1_555
H36 O44 1_555 1_555
O45 H37 1_555 1_555
H38 O45 1_555 1_555
O46 H39 1_555 1_555
H40 O46 1_555 1_555
O47 H41 1_555 1_555
H42 O47 1_555 1_555
O48 H43 1_555 1_555
H44 O48 1_555 1_555
O49 H45 1_555 1_555
H46 O49 1_555 1_555
C37 H47 1_555 1_555
H48 C37 1_555 1_555
H49 C37 1_555 1_555
O50 C37 1_555 1_555
H50 O50 1_555 1_555
C35A C35 1_555 1_555
O29A C35A 1_555 1_555
O30A Ce2 1_555 1_555
C36A C36 1_555 1_555
O31A C36A 1_555 1_555
O32A Ce1 1_555 1_555
C1A C2A 1_555 1_555
C2A H1A 1_555 1_555
C3A C2A 1_555 1_555
C4A C3A 1_555 1_555
H2A C4A 1_555 1_555
C5A C4A 1_555 1_555
C6A C1A 1_555 1_555
C7A C3A 1_555 1_555
C8A C5A 1_555 1_555
C9A C10A 1_555 1_555
C10A H3A 1_555 1_555
C11A C10A 1_555 1_555
C12A C11A 1_555 1_555
H4A C12A 1_555 1_555
C13A C12A 1_555 1_555
C14A C9A 1_555 1_555
C15A C11A 1_555 1_555
C16A C13A 1_555 1_555
C17A C18A 1_555 1_555
C18A O13A 1_555 1_555
C19A C20A 1_555 1_555
C20A H5A 1_555 1_555
C21A C20A 1_555 1_555
C22A C21A 1_555 1_555
H6A C22A 1_555 1_555
C23A C22A 1_555 1_555
C24A C19A 1_555 1_555
C25A C21A 1_555 1_555
C26A C23A 1_555 1_555
C27A C28A 1_555 1_555
C28A H7A 1_555 1_555
C29A C28A 1_555 1_555
C30A C29A 1_555 1_555
H8A C30A 1_555 1_555
C31A C30A 1_555 1_555
C32A C27A 1_555 1_555
C33A C29A 1_555 1_555
C34A C31A 1_555 1_555
N1A C1A 1_555 1_555
N2A C9A 1_555 1_555
N3A C19A 1_555 1_555
N4A C27A 1_555 1_555
O1A C6A 1_555 1_555
O2A C6A 1_555 1_555
O3A C7A 1_555 1_555
H9A O3A 1_555 1_555
O4A C7A 1_555 1_555
O5A C8A 1_555 1_555
O6A C8A 1_555 1_555
O7A C14A 1_555 1_555
O8A C14A 1_555 1_555
O9A C15A 1_555 1_555
O10A C15A 1_555 1_555
H10A O10A 1_555 1_555
O11A C16A 1_555 1_555
O12A C16A 1_555 1_555
O13A Ce1A 1_555 1_555
O14A C18A 1_555 1_555
O15A C17A 1_555 1_555
O16A C17A 1_555 1_555
O17A C24A 1_555 1_555
O18A C24A 1_555 1_555
O19A C25A 1_555 1_555
H11A O19A 1_555 1_555
O20A C25A 1_555 1_555
O21A C26A 1_555 1_555
O22A C26A 1_555 1_555
O23A C32A 1_555 1_555
O24A C32A 1_555 1_555
O25A C33A 1_555 1_555
H12A O25A 1_555 1_555
O26A C33A 1_555 1_555
O27A Ce4 1_555 1_555
O28A C34A 1_555 1_555
Ce1A N1A 1_555 1_555
Ce2A N3A 1_555 1_555
Ce3A O23A 1_555 1_555
Ce4A O27 1_555 1_555
O33A Ce4A 1_555 1_555
H13A O33A 1_555 1_555
H14A O33A 1_555 1_555
O34A Ce4A 1_555 1_555
H15A O34A 1_555 1_555
H16A O34A 1_555 1_555
O35A Ce4A 1_555 1_555
H17A O35A 1_555 1_555
H18A O35A 1_555 1_555
O36A Ce4A 1_555 1_555
H19A O36A 1_555 1_555
H20A O36A 1_555 1_555
O37A Ce4A 1_555 1_555
H21A O37A 1_555 1_555
H22A O37A 1_555 1_555
O38A Ce3A 1_555 1_555
H23A O38A 1_555 1_555
H24A O38A 1_555 1_555
O39A Ce3A 1_555 1_555
H25A O39A 1_555 1_555
H26A O39A 1_555 1_555
O40A Ce3A 1_555 1_555
H27A O40A 1_555 1_555
H28A O40A 1_555 1_555
O41A Ce3A 1_555 1_555
H29A O41A 1_555 1_555
H30A O41A 1_555 1_555
O42A Ce3A 1_555 1_555
H31A O42A 1_555 1_555
H32A O42A 1_555 1_555
O5_2 Ce3A 1_555 1_555
O5A_2 Ce3 1_555 1_555
O29A_2 Ce2A 1_555 1_555
O30_2 Ce2A 1_555 1_555
O31A_2 Ce1A 1_555 1_555
O32_2 Ce1A 1_555 1_555
Ce1A_2 O32 1_555 1_555
Ce2A_2 O30 1_555 1_555
Ce3_2 O5A 1_555 1_555
Ce3A_2 O5 1_555 1_555
C5 N1 1_555 1_555
C13 N2 1_555 1_555
C23 N3 1_555 1_555
C31 N4 1_555 1_555
N2 Ce1 1_555 1_555
N4 Ce2 1_555 1_555
O1 Ce1 1_555 1_555
O2 Ce4 1_555 1_555
O6 Ce1 1_555 1_555
O7 Ce1 1_555 1_555
O12 Ce1 1_555 1_555
O14 Ce2 1_555 1_555
O15 Ce1 1_555 1_555
O16 Ce2 1_555 1_555
O17 Ce2 1_555 1_555
O22 Ce2 1_555 1_555
O23 Ce2 1_555 1_555
O24 Ce3 1_555 1_555
O28 Ce2 1_555 1_555
C35A O30A 1_555 1_555
O29A Ce2A_2 1_555 1_555
C36A O32A 1_555 1_555
O31A Ce1A_2 1_555 1_555
C5A N1A 1_555 1_555
C13A N2A 1_555 1_555
C23A N3A 1_555 1_555
C31A N4A 1_555 1_555
C34A O27A 1_555 1_555
N2A Ce1A 1_555 1_555
N4A Ce2A 1_555 1_555
O1A Ce1A 1_555 1_555
O1A Ce4A 1_555 1_555
O2A Ce4A 1_555 1_555
O6A Ce1A 1_555 1_555
O7A Ce1A 1_555 1_555
O12A Ce1A 1_555 1_555
O14A Ce2A 1_555 1_555
O15A Ce1A 1_555 1_555
O16A Ce2A 1_555 1_555
O17A Ce2A 1_555 1_555
O22A Ce2A 1_555 1_555
O23A Ce2A 1_555 1_555
O24A Ce3A 1_555 1_555
O28A Ce2A 1_555 1_555

#END
