
#######################################################################
#
#                 Cambridge Crystallographic Data Centre
#                                CCDC 
#
#######################################################################
#
# If this CIF has been generated from an entry in the Cambridge 
# Structural Database, then it will include bibliographic, chemical, 
# crystal, experimental, refinement or atomic coordinate data resulting 
# from the CCDC's data processing and validation procedures.
#
#######################################################################

data_ZIMKEN
_symmetry_cell_setting           triclinic
_symmetry_space_group_name_H-M   'P -1'
_symmetry_Int_Tables_number      2
_space_group_name_Hall           '-P 1'
loop_
_symmetry_equiv_pos_site_id
_symmetry_equiv_pos_as_xyz
1 x,y,z
2 -x,-y,-z
_cell_length_a                   7.1381(6)
_cell_length_b                   9.1179(8)
_cell_length_c                   10.5125(9)
_cell_angle_alpha                77.2580(10)
_cell_angle_beta                 70.6720(10)
_cell_angle_gamma                89.5240(10)
_cell_volume                     628.181
loop_
_atom_site_label
_atom_site_type_symbol
_atom_site_fract_x
_atom_site_fract_y
_atom_site_fract_z
Cu1 Cu 0.5000 0.0000 0.5000
C1 C 0.1864(3) -0.2187(2) 0.5149(2)
H1 H 0.1193 -0.1448 0.4747
C2 C 0.3907(3) -0.3344(2) 0.6007(2)
H2 H 0.4992 -0.3523 0.6310
C3 C -0.0368(3) -0.4431(2) 0.5443(2)
H3 H -0.1133 -0.3711 0.5032
H4 H -0.1223 -0.4943 0.6363
C4 C 0.1478(3) 0.1466(2) 0.83501(19)
C5 C -0.0233(3) 0.2257(2) 0.8504(2)
H5 H -0.0855 0.2364 0.7841
C6 C -0.1015(3) 0.2889(2) 0.9645(2)
C7 C -0.0103(3) 0.2726(2) 1.0652(2)
H6 H -0.0612 0.3163 1.1406
C8 C 0.1573(3) 0.1905(2) 1.0516(2)
C9 C 0.2363(3) 0.1290(2) 0.9365(2)
H7 H 0.3497 0.0756 0.9274
C10 C 0.2378(3) 0.0881(2) 0.70627(19)
C11 C -0.2797(3) 0.3779(2) 0.9803(2)
C12 C 0.2540(3) 0.1716(2) 1.1599(2)
N1 N 0.3504(2) -0.19437(18) 0.54341(16)
N2 N 0.1344(2) -0.36501(18) 0.55306(17)
N3 N 0.2631(3) -0.4421(2) 0.60959(19)
O1 O 0.1666(2) 0.11485(16) 0.61175(14)
O2 O 0.39513(19) 0.01310(15) 0.69713(13)
O3 O -0.3588(2) 0.38810(18) 0.88416(15)
H8 H -0.4522 0.4423 0.8985
O4 O -0.3438(2) 0.43768(18) 1.08018(15)
O5 O 0.2176(2) 0.23976(19) 1.24979(16)
O6 O 0.3874(3) 0.0691(2) 1.14429(19)
H9 H 0.4403 0.0623 1.2035
C1A C -0.1864(3) -0.7813(2) 0.4851(2)
H1A H -0.1193 -0.8552 0.5253
C2A C -0.3907(3) -0.6656(2) 0.3993(2)
H2A H -0.4992 -0.6477 0.3690
C3A C 0.0368(3) -0.5569(2) 0.4557(2)
H3A H 0.1133 -0.6289 0.4968
H4A H 0.1223 -0.5057 0.3637
N1A N -0.3504(2) -0.80563(18) 0.45659(16)
N2A N -0.1344(2) -0.63499(18) 0.44694(17)
N3A N -0.2631(3) -0.5579(2) 0.39041(19)
C4A C 0.8522(3) -0.1466(2) 0.16499(19)
C5A C 1.0233(3) -0.2257(2) 0.1496(2)
H5A H 1.0855 -0.2364 0.2159
C6A C 1.1015(3) -0.2889(2) 0.0355(2)
C7A C 1.0103(3) -0.2726(2) -0.0652(2)
H6A H 1.0612 -0.3163 -0.1406
C8A C 0.8427(3) -0.1905(2) -0.0516(2)
C9A C 0.7637(3) -0.1290(2) 0.0635(2)
H7A H 0.6503 -0.0756 0.0726
C10A C 0.7622(3) -0.0881(2) 0.29373(19)
C11A C 1.2797(3) -0.3779(2) 0.0197(2)
C12A C 0.7460(3) -0.1716(2) -0.1599(2)
O1A O 0.8334(2) -0.11485(16) 0.38825(14)
O2A O 0.60487(19) -0.01310(15) 0.30287(13)
O3A O 1.3588(2) -0.38810(18) 0.11584(15)
H8A H 1.4522 -0.4423 0.1015
O4A O 1.3438(2) -0.43768(18) -0.08018(15)
O5A O 0.7824(2) -0.23976(19) -0.24979(16)
O6A O 0.6126(3) -0.0691(2) -0.14429(19)
H9A H 0.5597 -0.0623 -0.2035
Cu1_2 Cu -0.5000 -1.0000 0.5000
N1A_2 N 0.6496(2) 0.19437(18) 0.45659(16)
loop_
_geom_bond_atom_site_label_1
_geom_bond_atom_site_label_2
_geom_bond_site_symmetry_1
_geom_bond_site_symmetry_2
Cu1 N1 1_555 1_555
C1 H1 1_555 1_555
C2 H2 1_555 1_555
C3 H3 1_555 1_555
H4 C3 1_555 1_555
C4 C5 1_555 1_555
C5 H5 1_555 1_555
C6 C5 1_555 1_555
C7 C6 1_555 1_555
H6 C7 1_555 1_555
C8 C7 1_555 1_555
C9 C4 1_555 1_555
H7 C9 1_555 1_555
C10 C4 1_555 1_555
C11 C6 1_555 1_555
C12 C8 1_555 1_555
N1 C1 1_555 1_555
N2 C1 1_555 1_555
N3 C2 1_555 1_555
O1 Cu1 1_555 1_555
O2 Cu1 1_555 1_555
O3 C11 1_555 1_555
H8 O3 1_555 1_555
O4 C11 1_555 1_555
O5 C12 1_555 1_555
O6 C12 1_555 1_555
H9 O6 1_555 1_555
C1A H1A 1_555 1_555
C2A H2A 1_555 1_555
C3A C3 1_555 1_555
H3A C3A 1_555 1_555
H4A C3A 1_555 1_555
N1A C1A 1_555 1_555
N2A C1A 1_555 1_555
N3A C2A 1_555 1_555
C4A C5A 1_555 1_555
C5A H5A 1_555 1_555
C6A C5A 1_555 1_555
C7A C6A 1_555 1_555
H6A C7A 1_555 1_555
C8A C7A 1_555 1_555
C9A C4A 1_555 1_555
H7A C9A 1_555 1_555
C10A C4A 1_555 1_555
C11A C6A 1_555 1_555
C12A C8A 1_555 1_555
O1A Cu1 1_555 1_555
O2A Cu1 1_555 1_555
O3A C11A 1_555 1_555
H8A O3A 1_555 1_555
O4A C11A 1_555 1_555
O5A C12A 1_555 1_555
O6A C12A 1_555 1_555
H9A O6A 1_555 1_555
Cu1_2 N1A 1_555 1_555
N1A_2 Cu1 1_555 1_555
C2 N1 1_555 1_555
C3 N2 1_555 1_555
C8 C9 1_555 1_555
C10 O1 1_555 1_555
C10 O2 1_555 1_555
N2 N3 1_555 1_555
C2A N1A 1_555 1_555
C3A N2A 1_555 1_555
N2A N3A 1_555 1_555
C8A C9A 1_555 1_555
C10A O1A 1_555 1_555
C10A O2A 1_555 1_555

#END
