
#######################################################################
#
#                 Cambridge Crystallographic Data Centre
#                                CCDC 
#
#######################################################################
#
# If this CIF has been generated from an entry in the Cambridge 
# Structural Database, then it will include bibliographic, chemical, 
# crystal, experimental, refinement or atomic coordinate data resulting 
# from the CCDC's data processing and validation procedures.
#
#######################################################################

data_ZIMKAJ
_symmetry_cell_setting           monoclinic
_symmetry_space_group_name_H-M   'C 2/c'
_symmetry_Int_Tables_number      15
_space_group_name_Hall           '-C 2yn'
loop_
_symmetry_equiv_pos_site_id
_symmetry_equiv_pos_as_xyz
1 x,y,z
2 -x,y,1/2-z
3 1/2+x,1/2+y,z
4 1/2-x,1/2+y,1/2-z
5 -x,-y,-z
6 x,-y,1/2+z
7 1/2-x,1/2-y,-z
8 1/2+x,1/2-y,1/2+z
_cell_length_a                   6.6211(9)
_cell_length_b                   24.283(3)
_cell_length_c                   16.819(2)
_cell_angle_alpha                90
_cell_angle_beta                 97.681(14)
_cell_angle_gamma                90
_cell_volume                     2679.9
loop_
_atom_site_label
_atom_site_type_symbol
_atom_site_fract_x
_atom_site_fract_y
_atom_site_fract_z
Cu1 Cu 0.7500 0.2500 0.0000
C1 C 1.0364(4) 0.21481(11) 0.14719(15)
H1 H 0.9449 0.1888 0.1617
C2 C 1.1630(3) 0.27787(10) 0.08355(14)
H2 H 1.1849 0.3050 0.0466
C3 C 1.4971(3) 0.28688(11) 0.17323(14)
H3 H 1.5367 0.3103 0.1312
H4 H 1.5961 0.2574 0.1825
C4 C 1.5000 0.32058(15) 0.2500
H5 H 1.3863 0.3459 0.2441
C5 C 0.6334(3) 0.09055(9) 0.06981(13)
C6 C 0.7301(3) 0.04039(10) 0.06159(13)
H6 H 0.8429 0.0390 0.0341
C7 C 0.6613(3) -0.00760(10) 0.09358(14)
C8 C 0.4929(3) -0.00605(10) 0.13376(14)
H7 H 0.4440 -0.0383 0.1542
C9 C 0.3970(3) 0.04381(10) 0.14360(13)
C10 C 0.4676(3) 0.09216(10) 0.11254(14)
H8 H 0.4041 0.1255 0.1204
C11 C 0.7092(3) 0.14173(9) 0.03299(13)
C12 C 0.7665(4) -0.06144(10) 0.08629(14)
C13 C 0.2187(3) 0.04440(10) 0.18853(14)
N1 N 0.9940(3) 0.24778(7) 0.08149(12)
N2 N 1.2167(3) 0.22279(9) 0.18829(13)
N3 N 1.2954(3) 0.26327(8) 0.14635(12)
O1 O 0.6307(2) 0.18730(6) 0.05131(9)
O2 O 0.8423(2) 0.13915(7) -0.01269(10)
O3 O 0.9210(3) -0.05712(8) 0.04475(12)
H9 H 0.9880 -0.0871 0.0409
O4 O 0.7154(3) -0.10399(7) 0.11405(12)
O5 O 0.1431(3) 0.09061(7) 0.20354(12)
H10 H 0.0279 0.0823 0.2159
O6 O 0.1519(2) -0.00136(7) 0.20961(11)
C1A C 1.9636(4) 0.21481(11) 0.35281(15)
H1A H 2.0551 0.1888 0.3383
C2A C 1.8370(3) 0.27787(10) 0.41645(14)
H2A H 1.8151 0.3050 0.4534
C3A C 1.5029(3) 0.28688(11) 0.32677(14)
H3A H 1.4633 0.3103 0.3688
H4A H 1.4039 0.2574 0.3175
H5A H 1.6137 0.3459 0.2559
N1A N 2.0060(3) 0.24778(7) 0.41851(12)
N2A N 1.7833(3) 0.22279(9) 0.31171(13)
N3A N 1.7046(3) 0.26327(8) 0.35365(12)
C5F C 0.8666(3) 0.40945(9) -0.06981(13)
C6F C 0.7699(3) 0.45961(10) -0.06159(13)
H6F H 0.6571 0.4610 -0.0341
C7F C 0.8387(3) 0.50760(10) -0.09358(14)
C8F C 1.0071(3) 0.50605(10) -0.13376(14)
H7F H 1.0560 0.5383 -0.1542
C9F C 1.1030(3) 0.45619(10) -0.14360(13)
C10F C 1.0324(3) 0.40784(10) -0.11254(14)
H8F H 1.0959 0.3745 -0.1204
C11F C 0.7908(3) 0.35827(9) -0.03299(13)
C12F C 0.7335(4) 0.56144(10) -0.08629(14)
C13F C 1.2813(3) 0.45560(10) -0.18853(14)
O1F O 0.8693(2) 0.31270(6) -0.05131(9)
O2F O 0.6577(2) 0.36085(7) 0.01269(10)
O3F O 0.5790(3) 0.55712(8) -0.04475(12)
H9F H 0.5120 0.5871 -0.0409
O4F O 0.7846(3) 0.60399(7) -0.11405(12)
O5F O 1.3569(3) 0.40939(7) -0.20354(12)
H10F H 1.4721 0.4177 -0.2159
O6F O 1.3481(2) 0.50136(7) -0.20961(11)
Cu1A Cu 2.2500 0.2500 0.5000
N1F N 0.5060(3) 0.25222(7) -0.08149(12)
O7 O 0.0000 0.3469(6) 0.2500
loop_
_geom_bond_atom_site_label_1
_geom_bond_atom_site_label_2
_geom_bond_site_symmetry_1
_geom_bond_site_symmetry_2
Cu1 N1 1_555 1_555
C1 H1 1_555 1_555
C2 H2 1_555 1_555
C3 H3 1_555 1_555
H4 C3 1_555 1_555
C4 C3 1_555 1_555
H5 C4 1_555 1_555
C5 C6 1_555 1_555
C6 H6 1_555 1_555
C7 C6 1_555 1_555
C8 C7 1_555 1_555
H7 C8 1_555 1_555
C9 C8 1_555 1_555
C10 C5 1_555 1_555
H8 C10 1_555 1_555
C11 C5 1_555 1_555
C12 C7 1_555 1_555
C13 C9 1_555 1_555
N1 C1 1_555 1_555
N2 C1 1_555 1_555
N3 C2 1_555 1_555
O1 Cu1 1_555 1_555
O2 Cu1 1_555 1_555
O3 C12 1_555 1_555
H9 O3 1_555 1_555
O4 C12 1_555 1_555
O5 C13 1_555 1_555
H10 O5 1_555 1_555
O6 C13 1_555 1_555
C1A H1A 1_555 1_555
C2A H2A 1_555 1_555
C3A C4 1_555 1_555
H3A C3A 1_555 1_555
H4A C3A 1_555 1_555
H5A C4 1_555 1_555
N1A C1A 1_555 1_555
N2A C1A 1_555 1_555
N3A C2A 1_555 1_555
C5F C6F 1_555 1_555
C6F H6F 1_555 1_555
C7F C6F 1_555 1_555
C8F C7F 1_555 1_555
H7F C8F 1_555 1_555
C9F C8F 1_555 1_555
C10F C5F 1_555 1_555
H8F C10F 1_555 1_555
C11F C5F 1_555 1_555
C12F C7F 1_555 1_555
C13F C9F 1_555 1_555
O1F Cu1 1_555 1_555
O2F Cu1 1_555 1_555
O3F C12F 1_555 1_555
H9F O3F 1_555 1_555
O4F C12F 1_555 1_555
O5F C13F 1_555 1_555
H10F O5F 1_555 1_555
O6F C13F 1_555 1_555
Cu1A N1A 1_555 1_555
N1F Cu1 1_555 1_555
C2 N1 1_555 1_555
C3 N3 1_555 1_555
C9 C10 1_555 1_555
C11 O1 1_555 1_555
C11 O2 1_555 1_555
N2 N3 1_555 1_555
C2A N1A 1_555 1_555
C3A N3A 1_555 1_555
N2A N3A 1_555 1_555
C9F C10F 1_555 1_555
C11F O1F 1_555 1_555
C11F O2F 1_555 1_555

#END
