
#######################################################################
#
#                 Cambridge Crystallographic Data Centre
#                                CCDC 
#
#######################################################################
#
# If this CIF has been generated from an entry in the Cambridge 
# Structural Database, then it will include bibliographic, chemical, 
# crystal, experimental, refinement or atomic coordinate data resulting 
# from the CCDC's data processing and validation procedures.
#
#######################################################################

data_ZIMLIS
_symmetry_cell_setting           tetragonal
_symmetry_space_group_name_H-M   'I 41/a'
_symmetry_Int_Tables_number      88
_space_group_name_Hall           '-I 4ad'
loop_
_symmetry_equiv_pos_site_id
_symmetry_equiv_pos_as_xyz
1 x,y,z
2 1/2-x,-y,1/2+z
3 3/4-y,1/4+x,1/4+z
4 3/4+y,3/4-x,3/4+z
5 1/2+x,1/2+y,1/2+z
6 -x,1/2-y,z
7 1/4-y,3/4+x,3/4+z
8 1/4+y,1/4-x,1/4+z
9 -x,-y,-z
10 1/2+x,y,1/2-z
11 1/4+y,3/4-x,3/4-z
12 1/4-y,1/4+x,1/4-z
13 1/2-x,1/2-y,1/2-z
14 x,1/2+y,-z
15 3/4+y,1/4-x,1/4-z
16 3/4-y,3/4+x,3/4-z
_cell_length_a                   21.8788(13)
_cell_length_b                   21.8788(13)
_cell_length_c                   16.1443(19)
_cell_angle_alpha                90
_cell_angle_beta                 90
_cell_angle_gamma                90
_cell_volume                     7727.98
loop_
_atom_site_label
_atom_site_type_symbol
_atom_site_fract_x
_atom_site_fract_y
_atom_site_fract_z
W1 W 0.46626(2) 0.14413(2) 1.02738(3)
W2 W 0.56551(2) 0.10603(2) 0.88309(3)
W3 W 0.60544(2) 0.20451(2) 1.02817(3)
O1 O 0.5406(4) 0.1634(4) 1.0856(5)
O2 O 0.5105(4) 0.0823(4) 0.9692(5)
O3 O 0.4346(4) 0.2212(4) 1.0572(5)
O4 O 0.4049(4) 0.1424(4) 0.9437(5)
O5 O 0.5970(5) 0.0360(4) 0.8607(6)
O6 O 0.6207(4) 0.1316(4) 0.9690(5)
O7 O 0.5003(4) 0.1055(4) 0.8059(5)
O8 O 0.6602(4) 0.2007(4) 1.1032(5)
O9 O 0.5240(4) 0.1979(4) 0.9296(5)
O10 O 0.4329(4) 0.0989(4) 1.1008(6)
B1 B 0.5000 0.2500 0.8750
O9E O 0.4760(4) 0.3021(4) 0.9296(5)
O9J O 0.4479(4) 0.2260(4) 0.8204(5)
O9O O 0.5521(4) 0.2740(4) 0.8204(5)
W1E W 0.53374(2) 0.35587(2) 1.02738(3)
W2E W 0.43449(2) 0.39397(2) 0.88309(3)
W3E W 0.39456(2) 0.29549(2) 1.02817(3)
O1E O 0.4594(4) 0.3366(4) 1.0856(5)
O2E O 0.4895(4) 0.4177(4) 0.9692(5)
O3E O 0.5654(4) 0.2788(4) 1.0572(5)
O4E O 0.5951(4) 0.3576(4) 0.9437(5)
O5E O 0.4030(5) 0.4640(4) 0.8607(6)
O6E O 0.3793(4) 0.3684(4) 0.9690(5)
O7E O 0.4997(4) 0.3945(4) 0.8059(5)
O8E O 0.3398(4) 0.2993(4) 1.1032(5)
O10E O 0.5671(4) 0.4011(4) 1.1008(6)
W1J W 0.39413(2) 0.28374(2) 0.72262(3)
W2J W 0.35603(2) 0.18449(2) 0.86691(3)
W3J W 0.45451(2) 0.14456(2) 0.72183(3)
O1J O 0.4134(4) 0.2094(4) 0.6644(5)
O2J O 0.3323(4) 0.2395(4) 0.7808(5)
O3J O 0.4712(4) 0.3154(4) 0.6928(5)
O4J O 0.3924(4) 0.3451(4) 0.8063(5)
O5J O 0.2860(4) 0.1530(5) 0.8893(6)
O6J O 0.3816(4) 0.1293(4) 0.7810(5)
O7J O 0.3555(4) 0.2497(4) 0.9441(5)
O8J O 0.4507(4) 0.0898(4) 0.6468(5)
O10J O 0.3489(4) 0.3171(4) 0.6492(6)
W1O W 0.60587(2) 0.21626(2) 0.72262(3)
W2O W 0.64397(2) 0.31551(2) 0.86691(3)
W3O W 0.54549(2) 0.35544(2) 0.72183(3)
O1O O 0.5866(4) 0.2906(4) 0.6644(5)
O2O O 0.6677(4) 0.2605(4) 0.7808(5)
O3O O 0.5288(4) 0.1846(4) 0.6928(5)
O4O O 0.6076(4) 0.1549(4) 0.8063(5)
O5O O 0.7140(4) 0.3470(5) 0.8893(6)
O6O O 0.6184(4) 0.3707(4) 0.7810(5)
O7O O 0.6445(4) 0.2503(4) 0.9441(5)
O8O O 0.5493(4) 0.4102(4) 0.6468(5)
O10O O 0.6511(4) 0.1829(4) 0.6492(6)
Tb1 Tb 0.66699(3) 0.13417(3) 0.37323(3)
N1 N 0.6319(5) 0.0824(4) 0.2461(6)
C1 C 0.5730(5) 0.0685(5) 0.2379(8)
C2 C 0.5519(6) 0.0330(6) 0.1714(8)
H1 H 0.5108 0.0226 0.1674
C3 C 0.5921(7) 0.0142(7) 0.1132(9)
H2 H 0.5790 -0.0090 0.0684
C4 C 0.6537(6) 0.0301(6) 0.1210(8)
H3 H 0.6821 0.0177 0.0815
C5 C 0.6713(6) 0.0641(6) 0.1873(7)
C6 C 0.5329(5) 0.0942(6) 0.3034(8)
C7 C 0.7370(6) 0.0833(6) 0.2037(8)
O11 O 0.7768(4) 0.0732(4) 0.1511(5)
O12 O 0.7451(4) 0.1117(4) 0.2720(5)
O13 O 0.5594(4) 0.1258(5) 0.3600(6)
O14 O 0.4760(4) 0.0847(5) 0.3022(6)
K1 K 0.5000 0.2500 0.3750
O15 O 0.7621(5) 0.1389(5) 0.4409(6)
O16 O 0.6566(6) 0.2164(4) 0.2739(6)
O17 O 0.5000 0.2500 0.5298(12)
O18 O 0.6257(5) 0.1167(4) 0.5097(6)
Tb1E Tb 0.33301(3) 0.36583(3) 0.37323(3)
N1E N 0.3681(5) 0.4176(4) 0.2461(6)
C1E C 0.4270(5) 0.4315(5) 0.2379(8)
C2E C 0.4481(6) 0.4670(6) 0.1714(8)
H1E H 0.4892 0.4774 0.1674
C3E C 0.4079(7) 0.4858(7) 0.1132(9)
H2E H 0.4210 0.5090 0.0684
C4E C 0.3463(6) 0.4699(6) 0.1210(8)
H3E H 0.3179 0.4823 0.0815
C5E C 0.3287(6) 0.4359(6) 0.1873(7)
C6E C 0.4671(5) 0.4058(6) 0.3034(8)
C7E C 0.2630(6) 0.4167(6) 0.2037(8)
O11E O 0.2232(4) 0.4268(4) 0.1511(5)
O12E O 0.2549(4) 0.3883(4) 0.2720(5)
O13E O 0.4406(4) 0.3742(5) 0.3600(6)
O14E O 0.5240(4) 0.4153(5) 0.3022(6)
O15E O 0.2379(5) 0.3611(5) 0.4409(6)
O16E O 0.3434(6) 0.2836(4) 0.2739(6)
O18E O 0.3743(5) 0.3833(4) 0.5097(6)
Tb1J Tb 0.38417(3) 0.08301(3) 0.37677(3)
N1J N 0.3324(4) 0.1181(5) 0.5039(6)
C1J C 0.3185(5) 0.1770(5) 0.5121(8)
C2J C 0.2830(6) 0.1981(6) 0.5786(8)
H1J H 0.2726 0.2392 0.5826
C3J C 0.2642(7) 0.1579(7) 0.6368(9)
H2J H 0.2410 0.1710 0.6816
C4J C 0.2801(6) 0.0963(6) 0.6290(8)
H3J H 0.2677 0.0679 0.6685
C5J C 0.3141(6) 0.0787(6) 0.5627(7)
C6J C 0.3442(6) 0.2171(5) 0.4466(8)
C7J C 0.3333(6) 0.0130(6) 0.5463(8)
O11J O 0.3232(4) -0.0268(4) 0.5989(5)
O12J O 0.3617(4) 0.0049(4) 0.4780(5)
O13J O 0.3758(5) 0.1906(4) 0.3900(6)
O14J O 0.3347(5) 0.2740(4) 0.4478(6)
O15J O 0.3889(5) -0.0121(5) 0.3091(6)
O16J O 0.4664(4) 0.0934(6) 0.4761(6)
O17J O 0.5000 0.2500 0.2202(12)
O18J O 0.3667(4) 0.1243(5) 0.2403(6)
Tb1O Tb 0.61583(3) 0.41699(3) 0.37677(3)
N1O N 0.6676(4) 0.3819(5) 0.5039(6)
C1O C 0.6815(5) 0.3230(5) 0.5121(8)
C2O C 0.7170(6) 0.3019(6) 0.5786(8)
H1O H 0.7274 0.2608 0.5826
C3O C 0.7358(7) 0.3421(7) 0.6368(9)
H2O H 0.7590 0.3290 0.6816
C4O C 0.7199(6) 0.4037(6) 0.6290(8)
H3O H 0.7323 0.4321 0.6685
C5O C 0.6859(6) 0.4213(6) 0.5627(7)
C6O C 0.6558(6) 0.2829(5) 0.4466(8)
C7O C 0.6667(6) 0.4870(6) 0.5463(8)
O11O O 0.6768(4) 0.5268(4) 0.5989(5)
O12O O 0.6383(4) 0.4951(4) 0.4780(5)
O13O O 0.6242(5) 0.3094(4) 0.3900(6)
O14O O 0.6653(5) 0.2260(4) 0.4478(6)
O15O O 0.6111(5) 0.5121(5) 0.3091(6)
O16O O 0.5336(4) 0.4066(6) 0.4761(6)
O18O O 0.6333(4) 0.3757(5) 0.2403(6)
Tb1C Tb 0.88417(3) 0.08301(3) 0.12323(3)
Tb1F Tb 0.11583(3) 0.41699(3) 0.12323(3)
Tb1H Tb 0.33301(3) -0.13417(3) 0.62677(3)
Tb1M Tb 0.66699(3) 0.63417(3) 0.62677(3)
O11B O 0.6768(4) 0.0268(4) 0.4011(5)
O11G O 0.3232(4) 0.4732(4) 0.4011(5)
O11I O 0.2768(4) 0.0732(4) 0.3489(5)
O11L O 0.7232(4) 0.4268(4) 0.3489(5)
O19 O 0.8163(6) 0.0326(6) 0.4375(8)
loop_
_geom_bond_atom_site_label_1
_geom_bond_atom_site_label_2
_geom_bond_site_symmetry_1
_geom_bond_site_symmetry_2
W1 O1 1_555 1_555
W2 O2 1_555 1_555
W3 O1 1_555 1_555
O2 W1 1_555 1_555
O3 W1 1_555 1_555
O4 W1 1_555 1_555
O5 W2 1_555 1_555
O6 W2 1_555 1_555
O7 W2 1_555 1_555
O8 W3 1_555 1_555
O9 W1 1_555 1_555
O10 W1 1_555 1_555
B1 O9 1_555 1_555
Tb1 N1 1_555 1_555
N1 C1 1_555 1_555
C1 C2 1_555 1_555
C2 H1 1_555 1_555
C3 C2 1_555 1_555
H2 C3 1_555 1_555
C4 C3 1_555 1_555
H3 C4 1_555 1_555
C5 N1 1_555 1_555
C6 C1 1_555 1_555
C7 C5 1_555 1_555
O11 C7 1_555 1_555
O12 Tb1 1_555 1_555
O13 Tb1 1_555 1_555
O14 C6 1_555 1_555
K1 O13 1_555 1_555
O15 Tb1 1_555 1_555
O16 Tb1 1_555 1_555
O17 K1 1_555 1_555
O18 Tb1 1_555 1_555
O9E B1 1_555 1_555
O9J B1 1_555 1_555
O9O B1 1_555 1_555
W1E O9E 1_555 1_555
W2E O9E 1_555 1_555
W3E O3 1_555 1_555
O1E W1E 1_555 1_555
O2E W1E 1_555 1_555
O3E W3 1_555 1_555
O4E W1E 1_555 1_555
O5E W2E 1_555 1_555
O6E W2E 1_555 1_555
O7E W2E 1_555 1_555
O8E W3E 1_555 1_555
O10E W1E 1_555 1_555
W1J O9J 1_555 1_555
W2J O4 1_555 1_555
W3J O7 1_555 1_555
O1J W1J 1_555 1_555
O2J W1J 1_555 1_555
O3J W1J 1_555 1_555
O4J W2E 1_555 1_555
O5J W2J 1_555 1_555
O6J W2J 1_555 1_555
O7J W3E 1_555 1_555
O8J W3J 1_555 1_555
O10J W1J 1_555 1_555
W1O O9O 1_555 1_555
W2O O9O 1_555 1_555
W3O O9O 1_555 1_555
O1O W1O 1_555 1_555
O2O W1O 1_555 1_555
O3O W3J 1_555 1_555
O4O W2 1_555 1_555
O5O W2O 1_555 1_555
O6O W2O 1_555 1_555
O7O W3 1_555 1_555
O8O W3O 1_555 1_555
O10O W1O 1_555 1_555
Tb1E N1E 1_555 1_555
N1E C1E 1_555 1_555
C1E C2E 1_555 1_555
C2E H1E 1_555 1_555
C3E C2E 1_555 1_555
H2E C3E 1_555 1_555
C4E C3E 1_555 1_555
H3E C4E 1_555 1_555
C5E N1E 1_555 1_555
C6E C1E 1_555 1_555
C7E C5E 1_555 1_555
O11E C7E 1_555 1_555
O12E Tb1E 1_555 1_555
O13E K1 1_555 1_555
O14E C6E 1_555 1_555
O15E Tb1E 1_555 1_555
O16E Tb1E 1_555 1_555
O18E Tb1E 1_555 1_555
Tb1J O14 1_555 1_555
N1J Tb1J 1_555 1_555
C1J N1J 1_555 1_555
C2J C1J 1_555 1_555
H1J C2J 1_555 1_555
C3J C2J 1_555 1_555
H2J C3J 1_555 1_555
C4J C3J 1_555 1_555
H3J C4J 1_555 1_555
C5J N1J 1_555 1_555
C6J C1J 1_555 1_555
C7J C5J 1_555 1_555
O11J C7J 1_555 1_555
O12J Tb1J 1_555 1_555
O13J K1 1_555 1_555
O14J Tb1E 1_555 1_555
O15J Tb1J 1_555 1_555
O16J Tb1J 1_555 1_555
O17J K1 1_555 1_555
O18J Tb1J 1_555 1_555
Tb1O O14E 1_555 1_555
N1O Tb1O 1_555 1_555
C1O N1O 1_555 1_555
C2O C1O 1_555 1_555
H1O C2O 1_555 1_555
C3O C2O 1_555 1_555
H2O C3O 1_555 1_555
C4O C3O 1_555 1_555
H3O C4O 1_555 1_555
C5O N1O 1_555 1_555
C6O C1O 1_555 1_555
C7O C5O 1_555 1_555
O11O C7O 1_555 1_555
O12O Tb1O 1_555 1_555
O13O K1 1_555 1_555
O14O Tb1 1_555 1_555
O15O Tb1O 1_555 1_555
O16O Tb1O 1_555 1_555
O18O Tb1O 1_555 1_555
Tb1C O11 1_555 1_555
Tb1F O11E 1_555 1_555
Tb1H O11J 1_555 1_555
Tb1M O11O 1_555 1_555
O11B Tb1 1_555 1_555
O11G Tb1E 1_555 1_555
O11I Tb1J 1_555 1_555
O11L Tb1O 1_555 1_555
W2 O9 1_555 1_555
W3 O6 1_555 1_555
W3 O9 1_555 1_555
C4 C5 1_555 1_555
C6 O13 1_555 1_555
C7 O12 1_555 1_555
O9E W3E 1_555 1_555
O9J W2J 1_555 1_555
O9J W3J 1_555 1_555
W1E O3E 1_555 1_555
W2E O2E 1_555 1_555
W3E O1E 1_555 1_555
W3E O6E 1_555 1_555
O4E W2O 1_555 1_555
O7E W3O 1_555 1_555
W1J O4J 1_555 1_555
W2J O2J 1_555 1_555
W2J O7J 1_555 1_555
W3J O1J 1_555 1_555
W3J O6J 1_555 1_555
O3J W3O 1_555 1_555
W1O O3O 1_555 1_555
W1O O4O 1_555 1_555
W2O O2O 1_555 1_555
W2O O7O 1_555 1_555
W3O O1O 1_555 1_555
W3O O6O 1_555 1_555
Tb1E O13E 1_555 1_555
C4E C5E 1_555 1_555
C6E O13E 1_555 1_555
C7E O12E 1_555 1_555
Tb1J O13J 1_555 1_555
C4J C5J 1_555 1_555
C6J O13J 1_555 1_555
C6J O14J 1_555 1_555
C7J O12J 1_555 1_555
Tb1O O13O 1_555 1_555
C4O C5O 1_555 1_555
C6O O13O 1_555 1_555
C6O O14O 1_555 1_555
C7O O12O 1_555 1_555

#END
