
#######################################################################
#
#                 Cambridge Crystallographic Data Centre
#                                CCDC 
#
#######################################################################
#
# If this CIF has been generated from an entry in the Cambridge 
# Structural Database, then it will include bibliographic, chemical, 
# crystal, experimental, refinement or atomic coordinate data resulting 
# from the CCDC's data processing and validation procedures.
#
#######################################################################

data_ZIMLUE
_symmetry_cell_setting           monoclinic
_symmetry_space_group_name_H-M   'C 2/c'
_symmetry_Int_Tables_number      15
_space_group_name_Hall           '-C 2yn'
loop_
_symmetry_equiv_pos_site_id
_symmetry_equiv_pos_as_xyz
1 x,y,z
2 -x,y,1/2-z
3 1/2+x,1/2+y,z
4 1/2-x,1/2+y,1/2-z
5 -x,-y,-z
6 x,-y,1/2+z
7 1/2-x,1/2-y,-z
8 1/2+x,1/2-y,1/2+z
_cell_length_a                   30.778(7)
_cell_length_b                   15.587(3)
_cell_length_c                   22.103(5)
_cell_angle_alpha                90
_cell_angle_beta                 132.995(5)
_cell_angle_gamma                90
_cell_volume                     7755.63
loop_
_atom_site_label
_atom_site_type_symbol
_atom_site_fract_x
_atom_site_fract_y
_atom_site_fract_z
O40 O -0.2598(14) -0.1496(18) -0.158(2)
O1 O -0.0563(10) 0.1510(15) 0.0785(15)
O2 O -0.1376(9) 0.2468(14) 0.1012(13)
O3 O -0.1647(11) -0.2127(16) -0.1304(16)
O4 O -0.1361(12) -0.2880(18) -0.240(2)
O5 O -0.1350(12) -0.0308(16) -0.1178(17)
O6 O -0.1114(11) -0.1138(15) -0.2837(15)
O7 O -0.0263(11) -0.0194(18) -0.1166(16)
O8 O -0.0286(14) -0.1415(19) -0.0048(18)
O9 O -0.2770(11) 0.3451(16) -0.2048(15)
O10 O 0.0207(10) 0.2224(16) 0.1167(15)
O11 O -0.1763(10) 0.0950(15) -0.1290(14)
O12 O -0.2449(9) 0.2340(16) -0.1246(15)
O13 O -0.2495(13) 0.1601(19) -0.0082(19)
O14 O -0.2529(17) 0.022(2) -0.108(2)
O15 O -0.1467(14) -0.0480(19) -0.3974(18)
N1 N -0.1588(11) -0.0032(16) -0.2544(16)
N2 N -0.1332(10) 0.2705(16) -0.0353(15)
La1 La -0.16907(8) 0.12717(13) -0.01305(11)
La2 La -0.11000(8) -0.14305(13) -0.17036(12)
C1 C -0.1837(19) 0.052(2) -0.239(2)
C2 C -0.2251(13) 0.1152(19) -0.2945(18)
H1 H -0.2441 0.1504 -0.2846
C3 C -0.235(2) 0.120(3) -0.367(3)
H2 H -0.2625 0.1613 -0.4058
C4 C -0.2124(16) 0.077(2) -0.384(2)
H3 H -0.2206 0.0868 -0.4320
C5 C -0.1709(15) 0.008(2) -0.326(2)
C6 C -0.1603(14) 0.036(2) -0.1512(19)
C7 C -0.1406(13) -0.052(2) -0.3364(19)
C8 C -0.0763(15) 0.285(2) 0.012(2)
C9 C -0.0572(14) 0.356(2) 0.000(2)
H4 H -0.0167 0.3639 0.0320
C10 C -0.0958(14) 0.414(2) -0.0579(19)
H5 H -0.0828 0.4633 -0.0649
C11 C -0.156(2) 0.398(3) -0.107(3)
H6 H -0.1843 0.4377 -0.1464
C12 C -0.1745(16) 0.324(2) -0.098(2)
C13 C -0.0328(16) 0.214(2) 0.077(2)
C14 C -0.2391(15) 0.300(2) -0.148(2)
O16 O -0.1185(13) -0.019(2) 0.0190(18)
K1 K 0.0000 0.1364(8) 0.2500
W1 W 0.05289(6) 0.63581(10) 0.44889(8)
W2 W 0.0000 0.41112(13) 0.2500
W3 W -0.07554(7) 0.52400(13) 0.29000(10)
W4 W 0.12765(7) 0.52431(14) 0.40849(11)
W5 W -0.07634(7) 0.74750(10) 0.29010(10)
W6 W 0.12993(7) 0.74712(10) 0.40853(9)
W7 W 0.0000 0.85826(16) 0.2500
B1 B 0.0000 0.632(3) 0.2500
O17 O 0.0771(14) 0.6356(18) 0.5428(16)
O18 O -0.0313(13) 0.437(2) 0.2962(19)
O19 O 0.1024(12) 0.7189(19) 0.4589(19)
O20 O 0.0737(17) 0.434(3) 0.355(3)
O21 O -0.1327(18) 0.510(3) 0.171(3)
O22 O 0.1024(17) 0.556(3) 0.462(3)
O23 O 0.1903(17) 0.799(3) 0.484(2)
O24 O -0.1044(13) 0.640(2) 0.2781(19)
O25 O -0.0057(12) 0.722(2) 0.398(2)
O26 O -0.0053(13) 0.5523(19) 0.4012(19)
O27 O -0.038(2) 0.711(3) 0.234(3)
O28 O 0.0000 0.301(4) 0.2500
O29 O -0.1142(10) 0.4673(16) 0.3067(15)
O30 O 0.1600(13) 0.640(2) 0.4302(19)
O31 O 0.1890(13) 0.4724(18) 0.4836(17)
O32 O 0.0000 0.960(2) 0.2500
O33 O -0.034(2) 0.842(3) 0.294(3)
O34 O -0.1087(19) 0.798(3) 0.315(3)
O35 O 0.077(2) 0.840(3) 0.361(3)
O36 O -0.1347(18) 0.756(3) 0.172(2)
O37 O -0.051(2) 0.640(4) 0.161(3)
O38 O 0.0394(19) 0.553(3) 0.272(3)
O39 O -0.0159(18) 0.635(3) 0.299(3)
O27A O 0.038(2) 0.711(3) 0.266(3)
O37A O 0.051(2) 0.640(4) 0.339(3)
O38A O -0.0394(19) 0.553(3) 0.228(3)
O39A O 0.0159(18) 0.635(3) 0.201(3)
O1A O 0.0563(10) 0.1510(15) 0.4215(15)
O2A O 0.1376(9) 0.2468(14) 0.3988(13)
O3A O 0.1647(11) -0.2127(16) 0.6304(16)
O4A O 0.1361(12) -0.2880(18) 0.740(2)
O5A O 0.1350(12) -0.0308(16) 0.6178(17)
O6A O 0.1114(11) -0.1138(15) 0.7837(15)
O7A O 0.0263(11) -0.0194(18) 0.6166(16)
O8A O 0.0286(14) -0.1415(19) 0.5048(18)
O9A O 0.2770(11) 0.3451(16) 0.7048(15)
O10A O -0.0207(10) 0.2224(16) 0.3833(15)
O11A O 0.1763(10) 0.0950(15) 0.6290(14)
O12A O 0.2449(9) 0.2340(16) 0.6246(15)
O13A O 0.2495(13) 0.1601(19) 0.5082(19)
O14A O 0.2529(17) 0.022(2) 0.608(2)
O15A O 0.1467(14) -0.0480(19) 0.8974(18)
N1A N 0.1588(11) -0.0032(16) 0.7544(16)
N2A N 0.1332(10) 0.2705(16) 0.5353(15)
La1A La 0.16907(8) 0.12717(13) 0.51305(11)
La2A La 0.11000(8) -0.14305(13) 0.67036(12)
C1A C 0.1837(19) 0.052(2) 0.739(2)
C2A C 0.2251(13) 0.1152(19) 0.7945(18)
H1A H 0.2441 0.1504 0.7846
C3A C 0.235(2) 0.120(3) 0.867(3)
H2A H 0.2625 0.1613 0.9058
C4A C 0.2124(16) 0.077(2) 0.884(2)
H3A H 0.2206 0.0868 0.9320
C5A C 0.1709(15) 0.008(2) 0.826(2)
C6A C 0.1603(14) 0.036(2) 0.6512(19)
C7A C 0.1406(13) -0.052(2) 0.8364(19)
C8A C 0.0763(15) 0.285(2) 0.488(2)
C9A C 0.0572(14) 0.356(2) 0.500(2)
H4A H 0.0167 0.3639 0.4680
C10A C 0.0958(14) 0.414(2) 0.5579(19)
H5A H 0.0828 0.4633 0.5649
C11A C 0.156(2) 0.398(3) 0.607(3)
H6A H 0.1843 0.4377 0.6464
C12A C 0.1745(16) 0.324(2) 0.598(2)
C13A C 0.0328(16) 0.214(2) 0.423(2)
C14A C 0.2391(15) 0.300(2) 0.648(2)
O16A O 0.1185(13) -0.019(2) 0.4810(18)
W1A W -0.05289(6) 0.63581(10) 0.05111(8)
W3A W 0.07554(7) 0.52400(13) 0.21000(10)
W4A W -0.12765(7) 0.52431(14) 0.09151(11)
W5A W 0.07634(7) 0.74750(10) 0.20990(10)
W6A W -0.12993(7) 0.74712(10) 0.09147(9)
O17A O -0.0771(14) 0.6356(18) -0.0428(16)
O18A O 0.0313(13) 0.437(2) 0.2038(19)
O19A O -0.1024(12) 0.7189(19) 0.0411(19)
O20A O -0.0737(17) 0.434(3) 0.145(3)
O21A O 0.1327(18) 0.510(3) 0.329(3)
O22A O -0.1024(17) 0.556(3) 0.038(3)
O23A O -0.1903(17) 0.799(3) 0.016(2)
O24A O 0.1044(13) 0.640(2) 0.2219(19)
O25A O 0.0057(12) 0.722(2) 0.102(2)
O26A O 0.0053(13) 0.5523(19) 0.0988(19)
O29A O 0.1142(10) 0.4673(16) 0.1933(15)
O30A O -0.1600(13) 0.640(2) 0.0698(19)
O31A O -0.1890(13) 0.4724(18) 0.0164(17)
O33A O 0.034(2) 0.842(3) 0.206(3)
O34A O 0.1087(19) 0.798(3) 0.185(3)
O35A O -0.077(2) 0.840(3) 0.139(3)
O36A O 0.1347(18) 0.756(3) 0.328(2)
O6D O 0.1114(11) 0.1138(15) 0.2837(15)
O6E O -0.1114(11) 0.1138(15) 0.2163(15)
O9B O 0.2230(11) -0.1549(16) 0.7952(15)
O9C O -0.2230(11) -0.1549(16) -0.2952(15)
O10D O -0.0207(10) -0.2224(16) -0.1167(15)
O10E O 0.0207(10) -0.2224(16) 0.6167(15)
O15D O 0.1467(14) 0.0480(19) 0.3974(18)
O15E O -0.1467(14) 0.0480(19) 0.1026(18)
La1D La 0.16907(8) -0.12717(13) 1.01305(11)
La1E La -0.16907(8) -0.12717(13) -0.51305(11)
La2B La 0.39000(8) 0.35695(13) 0.82964(12)
La2C La -0.39000(8) 0.35695(13) -0.32964(12)
La2D La 0.11000(8) 0.14305(13) 0.17036(12)
La2E La -0.11000(8) 0.14305(13) 0.32964(12)
K1_2 K 0.0000 1.1364(8) 0.2500
K1D K 0.0000 -0.1364(8) -0.2500
K1D_2 K 0.0000 -0.1364(8) 0.7500
O32_2 O 0.0000 -0.040(2) 0.2500
loop_
_geom_bond_atom_site_label_1
_geom_bond_atom_site_label_2
_geom_bond_site_symmetry_1
_geom_bond_site_symmetry_2
O1 La1 1_555 1_555
O2 La1 1_555 1_555
O3 La2 1_555 1_555
O4 La2 1_555 1_555
O5 La2 1_555 1_555
O6 La2 1_555 1_555
O7 La2 1_555 1_555
O8 La2 1_555 1_555
O9 C14 1_555 1_555
O10 C13 1_555 1_555
O11 La1 1_555 1_555
O12 La1 1_555 1_555
O13 La1 1_555 1_555
O14 La1 1_555 1_555
O15 C7 1_555 1_555
N1 La2 1_555 1_555
N2 La1 1_555 1_555
La1 O16 1_555 1_555
La2 O9C 1_555 1_555
C1 N1 1_555 1_555
C2 C1 1_555 1_555
H1 C2 1_555 1_555
C3 C2 1_555 1_555
H2 C3 1_555 1_555
C4 C3 1_555 1_555
H3 C4 1_555 1_555
C5 N1 1_555 1_555
C6 O5 1_555 1_555
C7 O6 1_555 1_555
C8 N2 1_555 1_555
C9 C8 1_555 1_555
H4 C9 1_555 1_555
C10 C9 1_555 1_555
H5 C10 1_555 1_555
C11 C10 1_555 1_555
H6 C11 1_555 1_555
C12 N2 1_555 1_555
C13 O1 1_555 1_555
C14 O12 1_555 1_555
K1 O1 1_555 1_555
W1 O17 1_555 1_555
W2 O18 1_555 1_555
W3 O18 1_555 1_555
W4 O20 1_555 1_555
W5 O24 1_555 1_555
W6 O19 1_555 1_555
W7 O27 1_555 1_555
B1 O27 1_555 1_555
O19 W1 1_555 1_555
O20 W2 1_555 1_555
O21 W3 1_555 1_555
O22 W1 1_555 1_555
O23 W6 1_555 1_555
O24 W3 1_555 1_555
O25 W1 1_555 1_555
O26 W1 1_555 1_555
O27 W5 1_555 1_555
O28 K1 1_555 1_555
O29 W3 1_555 1_555
O30 W4 1_555 1_555
O31 W4 1_555 1_555
O32 W7 1_555 1_555
O33 W5 1_555 1_555
O34 W5 1_555 1_555
O35 W6 1_555 1_555
O36 W5 1_555 1_555
O37 B1 1_555 1_555
O38 W2 1_555 1_555
O39 W1 1_555 1_555
O27A W6 1_555 1_555
O37A W1 1_555 1_555
O38A W2 1_555 1_555
O39A B1 1_555 1_555
O1A K1 1_555 1_555
O2A La1A 1_555 1_555
O3A La2A 1_555 1_555
O4A La2A 1_555 1_555
O5A La2A 1_555 1_555
O6A La2A 1_555 1_555
O7A La2A 1_555 1_555
O8A La2A 1_555 1_555
O9A C14A 1_555 1_555
O10A C13A 1_555 1_555
O11A La1A 1_555 1_555
O12A La1A 1_555 1_555
O13A La1A 1_555 1_555
O14A La1A 1_555 1_555
O15A C7A 1_555 1_555
N1A La2A 1_555 1_555
N2A La1A 1_555 1_555
La1A O1A 1_555 1_555
La2A O9B 1_555 1_555
C1A N1A 1_555 1_555
C2A C1A 1_555 1_555
H1A C2A 1_555 1_555
C3A C2A 1_555 1_555
H2A C3A 1_555 1_555
C4A C3A 1_555 1_555
H3A C4A 1_555 1_555
C5A N1A 1_555 1_555
C6A O5A 1_555 1_555
C7A O6A 1_555 1_555
C8A N2A 1_555 1_555
C9A C8A 1_555 1_555
H4A C9A 1_555 1_555
C10A C9A 1_555 1_555
H5A C10A 1_555 1_555
C11A C10A 1_555 1_555
H6A C11A 1_555 1_555
C12A N2A 1_555 1_555
C13A O1A 1_555 1_555
C14A O12A 1_555 1_555
O16A La1A 1_555 1_555
W1A O37 1_555 1_555
W3A O38 1_555 1_555
W4A O21 1_555 1_555
W5A O27A 1_555 1_555
W6A O27 1_555 1_555
O17A W1A 1_555 1_555
O18A W2 1_555 1_555
O19A W1A 1_555 1_555
O20A W2 1_555 1_555
O21A W4 1_555 1_555
O22A W1A 1_555 1_555
O23A W6A 1_555 1_555
O24A W3A 1_555 1_555
O25A W1A 1_555 1_555
O26A W1A 1_555 1_555
O29A W3A 1_555 1_555
O30A W4A 1_555 1_555
O31A W4A 1_555 1_555
O33A W7 1_555 1_555
O34A W5A 1_555 1_555
O35A W7 1_555 1_555
O36A W6 1_555 1_555
O6D K1 1_555 1_555
O6E K1 1_555 1_555
O10D La2 1_555 1_555
O10E La2A 1_555 1_555
O15D La1A 1_555 1_555
O15E La1 1_555 1_555
La1D O15A 1_555 1_555
La1E O15 1_555 1_555
La2B O9A 1_555 1_555
La2C O9 1_555 1_555
La2D O10 1_555 1_555
La2E O10A 1_555 1_555
K1_2 O32 1_555 1_555
K1D O6 1_555 1_555
K1D_2 O6A 1_555 1_555
O32_2 K1 1_555 1_555
O11 C6 1_555 1_555
C1 C6 1_555 1_555
C4 C5 1_555 1_555
C5 C7 1_555 1_555
C8 C13 1_555 1_555
C11 C12 1_555 1_555
C12 C14 1_555 1_555
W2 O28 1_555 1_555
W3 O26 1_555 1_555
W3 O39 1_555 1_555
W3 O38A 1_555 1_555
W4 O22 1_555 1_555
W4 O38 1_555 1_555
W4 O37A 1_555 1_555
W5 O25 1_555 1_555
W5 O39 1_555 1_555
W6 O30 1_555 1_555
W6 O37A 1_555 1_555
W7 O33 1_555 1_555
W7 O35 1_555 1_555
W7 O27A 1_555 1_555
B1 O38 1_555 1_555
B1 O39 1_555 1_555
B1 O27A 1_555 1_555
B1 O37A 1_555 1_555
B1 O38A 1_555 1_555
O27 O37 1_555 1_555
O27 O39 1_555 1_555
O36 W6A 1_555 1_555
O37 O39A 1_555 1_555
O37 W4A 1_555 1_555
O37 W6A 1_555 1_555
O38 O39A 1_555 1_555
O39 O37A 1_555 1_555
O39 O38A 1_555 1_555
O27A O37A 1_555 1_555
O27A O39A 1_555 1_555
O38A W4A 1_555 1_555
O39A W1A 1_555 1_555
O39A W3A 1_555 1_555
O39A W5A 1_555 1_555
O11A C6A 1_555 1_555
C1A C6A 1_555 1_555
C4A C5A 1_555 1_555
C5A C7A 1_555 1_555
C8A C13A 1_555 1_555
C11A C12A 1_555 1_555
C12A C14A 1_555 1_555
W3A O18A 1_555 1_555
W3A O21A 1_555 1_555
W3A O26A 1_555 1_555
W4A O20A 1_555 1_555
W4A O22A 1_555 1_555
W5A O24A 1_555 1_555
W5A O25A 1_555 1_555
W5A O33A 1_555 1_555
W5A O36A 1_555 1_555
W6A O19A 1_555 1_555
W6A O30A 1_555 1_555
W6A O35A 1_555 1_555
O6D La2D 1_555 1_555
O6E La2E 1_555 1_555

#END
