
#######################################################################
#
#                 Cambridge Crystallographic Data Centre
#                                CCDC 
#
#######################################################################
#
# If this CIF has been generated from an entry in the Cambridge 
# Structural Database, then it will include bibliographic, chemical, 
# crystal, experimental, refinement or atomic coordinate data resulting 
# from the CCDC's data processing and validation procedures.
#
#######################################################################

data_ZIMLEO
_symmetry_cell_setting           tetragonal
_symmetry_space_group_name_H-M   'I 41/a'
_symmetry_Int_Tables_number      88
_space_group_name_Hall           '-I 4ad'
loop_
_symmetry_equiv_pos_site_id
_symmetry_equiv_pos_as_xyz
1 x,y,z
2 1/2-x,-y,1/2+z
3 3/4-y,1/4+x,1/4+z
4 3/4+y,3/4-x,3/4+z
5 1/2+x,1/2+y,1/2+z
6 -x,1/2-y,z
7 1/4-y,3/4+x,3/4+z
8 1/4+y,1/4-x,1/4+z
9 -x,-y,-z
10 1/2+x,y,1/2-z
11 1/4+y,3/4-x,3/4-z
12 1/4-y,1/4+x,1/4-z
13 1/2-x,1/2-y,1/2-z
14 x,1/2+y,-z
15 3/4+y,1/4-x,1/4-z
16 3/4-y,3/4+x,3/4-z
_cell_length_a                   21.8108(8)
_cell_length_b                   21.8108(8)
_cell_length_c                   16.0953(12)
_cell_angle_alpha                90
_cell_angle_beta                 90
_cell_angle_gamma                90
_cell_volume                     7656.71
loop_
_atom_site_label
_atom_site_type_symbol
_atom_site_fract_x
_atom_site_fract_y
_atom_site_fract_z
W1 W 0.144040(12) 0.184213(13) 0.633099(17)
W2 W 0.033673(12) 0.144066(12) 0.472505(18)
W3 W -0.105685(12) 0.204574(12) 0.471650(18)
O1 O 0.1185(2) 0.1287(2) 0.7191(3)
O2 O -0.0407(2) 0.1634(2) 0.4143(3)
O3 O 0.0664(2) 0.2208(2) 0.4423(3)
O4 O 0.1446(2) 0.2494(2) 0.5555(3)
O5 O 0.0943(2) 0.1416(2) 0.5562(3)
O6 O 0.1677(2) 0.2395(2) 0.7187(3)
O7 O 0.2143(2) 0.1536(2) 0.6104(3)
O8 O -0.1613(2) 0.2002(2) 0.3967(3)
O9 O -0.02395(19) 0.1983(2) 0.5704(3)
O10 O 0.0669(2) 0.0979(2) 0.3989(3)
B1 B 0.0000 0.2500 0.6250
O9E O 0.02395(19) 0.3017(2) 0.5704(3)
O9K O 0.0517(2) 0.22605(19) 0.6796(3)
O9N O -0.0517(2) 0.27395(19) 0.6796(3)
W1E W -0.144040(12) 0.315787(13) 0.633099(17)
W2E W -0.033673(12) 0.355934(12) 0.472505(18)
W3E W 0.105685(12) 0.295426(12) 0.471650(18)
O1E O -0.1185(2) 0.3713(2) 0.7191(3)
O2E O 0.0407(2) 0.3366(2) 0.4143(3)
O3E O -0.0664(2) 0.2792(2) 0.4423(3)
O4E O -0.1446(2) 0.2506(2) 0.5555(3)
O5E O -0.0943(2) 0.3584(2) 0.5562(3)
O6E O -0.1677(2) 0.2605(2) 0.7187(3)
O7E O -0.2143(2) 0.3464(2) 0.6104(3)
O8E O 0.1613(2) 0.2998(2) 0.3967(3)
O10E O -0.0669(2) 0.4021(2) 0.3989(3)
W1K W 0.065787(13) 0.394040(12) 0.616901(17)
W2K W 0.105934(12) 0.283673(12) 0.777495(18)
W3K W 0.045426(12) 0.144315(12) 0.778350(18)
O1K O 0.1213(2) 0.3685(2) 0.5309(3)
O2K O 0.0866(2) 0.2093(2) 0.8357(3)
O3K O 0.0292(2) 0.3164(2) 0.8077(3)
O4K O 0.0006(2) 0.3946(2) 0.6945(3)
O5K O 0.1084(2) 0.3443(2) 0.6938(3)
O6K O 0.0105(2) 0.4177(2) 0.5313(3)
O7K O 0.0964(2) 0.4643(2) 0.6396(3)
O8K O 0.0498(2) 0.0887(2) 0.8533(3)
O10K O 0.1521(2) 0.3169(2) 0.8511(3)
W1N W -0.065787(13) 0.105960(12) 0.616901(17)
W2N W -0.105934(12) 0.216327(12) 0.777495(18)
W3N W -0.045426(12) 0.355685(12) 0.778350(18)
O1N O -0.1213(2) 0.1315(2) 0.5309(3)
O2N O -0.0866(2) 0.2907(2) 0.8357(3)
O3N O -0.0292(2) 0.1836(2) 0.8077(3)
O4N O -0.0006(2) 0.1054(2) 0.6945(3)
O5N O -0.1084(2) 0.1557(2) 0.6938(3)
O6N O -0.0105(2) 0.0823(2) 0.5313(3)
O7N O -0.0964(2) 0.0357(2) 0.6396(3)
O8N O -0.0498(2) 0.4113(2) 0.8533(3)
O10N O -0.1521(2) 0.1831(2) 0.8511(3)
Dy1 Dy 0.883838(14) 0.416594(14) 0.123520(19)
O11 O 0.9653(2) 0.4062(3) 0.0251(3)
O12 O 0.8891(3) 0.5108(3) 0.1912(4)
K1 K 1.0000 0.2500 0.1250
O13 O 1.0000 0.2500 -0.0294(8)
O14 O 0.8666(2) 0.3749(3) 0.2591(3)
O15 O 0.8609(2) 0.4954(2) 0.0233(3)
O16 O 0.8229(2) 0.5269(2) -0.0980(3)
O17 O 0.8762(3) 0.3089(2) 0.1101(3)
O18 O 0.8355(3) 0.2260(2) 0.0524(3)
N1 N 0.8322(2) 0.3818(2) -0.0040(3)
C1 C 0.8178(3) 0.3229(3) -0.0119(4)
C2 C 0.7831(3) 0.3014(3) -0.0778(5)
H1 H 0.7733 0.2601 -0.0823
C3 C 0.7635(3) 0.3429(3) -0.1362(5)
H2 H 0.7392 0.3298 -0.1803
C4 C 0.7797(3) 0.4037(3) -0.1296(5)
H3 H 0.7678 0.4319 -0.1697
C5 C 0.8142(3) 0.4216(3) -0.0616(4)
C6 C 0.8340(3) 0.4861(3) -0.0457(4)
C7 C 0.8450(3) 0.2823(3) 0.0548(5)
Dy1E Dy 1.116162(14) 0.083406(14) 0.123520(19)
O11E O 1.0347(2) 0.0938(3) 0.0251(3)
O12E O 1.1109(3) -0.0108(3) 0.1912(4)
O14E O 1.1334(2) 0.1251(3) 0.2591(3)
O15E O 1.1391(2) 0.0046(2) 0.0233(3)
O16E O 1.1771(2) -0.0269(2) -0.0980(3)
O17E O 1.1238(3) 0.1911(2) 0.1101(3)
O18E O 1.1645(3) 0.2740(2) 0.0524(3)
N1E N 1.1678(2) 0.1182(2) -0.0040(3)
C1E C 1.1822(3) 0.1771(3) -0.0119(4)
C2E C 1.2169(3) 0.1986(3) -0.0778(5)
H1E H 1.2267 0.2399 -0.0823
C3E C 1.2365(3) 0.1571(3) -0.1362(5)
H2E H 1.2608 0.1702 -0.1803
C4E C 1.2203(3) 0.0963(3) -0.1296(5)
H3E H 1.2322 0.0681 -0.1697
C5E C 1.1858(3) 0.0784(3) -0.0616(4)
C6E C 1.1660(3) 0.0139(3) -0.0457(4)
C7E C 1.1550(3) 0.2177(3) 0.0548(5)
Dy1K Dy 0.833406(14) 0.133838(14) 0.126480(19)
O11K O 0.8438(3) 0.2153(2) 0.2249(3)
O12K O 0.7392(3) 0.1391(3) 0.0588(4)
O13K O 1.0000 0.2500 0.2794(8)
O14K O 0.8751(3) 0.1166(2) -0.0091(3)
O15K O 0.7546(2) 0.1109(2) 0.2267(3)
O16K O 0.7231(2) 0.0729(2) 0.3480(3)
O17K O 0.9411(2) 0.1262(3) 0.1399(3)
O18K O 1.0240(2) 0.0855(3) 0.1976(3)
N1K N 0.8682(2) 0.0822(2) 0.2540(3)
C1K C 0.9271(3) 0.0678(3) 0.2619(4)
C2K C 0.9486(3) 0.0331(3) 0.3278(5)
H1K H 0.9899 0.0233 0.3323
C3K C 0.9071(3) 0.0135(3) 0.3862(5)
H2K H 0.9202 -0.0108 0.4303
C4K C 0.8463(3) 0.0297(3) 0.3796(5)
H3K H 0.8181 0.0178 0.4197
C5K C 0.8284(3) 0.0642(3) 0.3116(4)
C6K C 0.7639(3) 0.0840(3) 0.2957(4)
C7K C 0.9677(3) 0.0950(3) 0.1952(5)
Dy1N Dy 1.166594(14) 0.366162(14) 0.126480(19)
O11N O 1.1562(3) 0.2847(2) 0.2249(3)
O12N O 1.2608(3) 0.3609(3) 0.0588(4)
O14N O 1.1249(3) 0.3834(2) -0.0091(3)
O15N O 1.2454(2) 0.3891(2) 0.2267(3)
O16N O 1.2769(2) 0.4271(2) 0.3480(3)
O17N O 1.0589(2) 0.3738(3) 0.1399(3)
O18N O 0.9760(2) 0.4145(3) 0.1976(3)
N1N N 1.1318(2) 0.4178(2) 0.2540(3)
C1N C 1.0729(3) 0.4322(3) 0.2619(4)
C2N C 1.0514(3) 0.4669(3) 0.3278(5)
H1N H 1.0101 0.4767 0.3323
C3N C 1.0929(3) 0.4865(3) 0.3862(5)
H2N H 1.0798 0.5108 0.4303
C4N C 1.1537(3) 0.4703(3) 0.3796(5)
H3N H 1.1819 0.4822 0.4197
C5N C 1.1716(3) 0.4358(3) 0.3116(4)
C6N C 1.2361(3) 0.4160(3) 0.2957(4)
C7N C 1.0323(3) 0.4050(3) 0.1952(5)
Dy1C Dy 1.166594(14) -0.133838(14) -0.126480(19)
Dy1F Dy 0.833406(14) 0.633838(14) -0.126480(19)
Dy1I Dy 1.383838(14) 0.416594(14) 0.376480(19)
Dy1L Dy 0.616162(14) 0.083406(14) 0.376480(19)
O16B O 1.2231(2) 0.0729(2) 0.1520(3)
O16G O 0.7769(2) 0.4271(2) 0.1520(3)
O16H O 1.1771(2) 0.4731(2) 0.0980(3)
O16M O 0.8229(2) 0.0269(2) 0.0980(3)
O19 O 0.7837(3) 0.5661(3) 0.1879(4)
loop_
_geom_bond_atom_site_label_1
_geom_bond_atom_site_label_2
_geom_bond_site_symmetry_1
_geom_bond_site_symmetry_2
W1 O1 1_555 1_555
W2 O2 1_555 1_555
W3 O2 1_555 1_555
O1 W3K 1_555 1_555
O3 W2 1_555 1_555
O4 W1 1_555 1_555
O5 W1 1_555 1_555
O6 W1 1_555 1_555
O7 W1 1_555 1_555
O8 W3 1_555 1_555
O9 W2 1_555 1_555
O10 W2 1_555 1_555
B1 O9 1_555 1_555
Dy1 O11 1_555 1_555
O12 Dy1 1_555 1_555
K1 O13 1_555 1_555
O14 Dy1 1_555 1_555
O15 Dy1 1_555 1_555
O16 C6 1_555 1_555
O17 Dy1 1_555 1_555
O18 C7 1_555 1_555
N1 Dy1 1_555 1_555
C1 N1 1_555 1_555
C2 C1 1_555 1_555
H1 C2 1_555 1_555
C3 C2 1_555 1_555
H2 C3 1_555 1_555
C4 C3 1_555 1_555
H3 C4 1_555 1_555
C5 N1 1_555 1_555
C6 O15 1_555 1_555
C7 O17 1_555 1_555
O9E B1 1_555 1_555
O9K W1 1_555 1_555
O9N B1 1_555 1_555
W1E O9N 1_555 1_555
W2E O9E 1_555 1_555
W3E O3 1_555 1_555
O1E W1E 1_555 1_555
O2E W2E 1_555 1_555
O3E W3 1_555 1_555
O4E W3 1_555 1_555
O5E W1E 1_555 1_555
O6E W1E 1_555 1_555
O7E W1E 1_555 1_555
O8E W3E 1_555 1_555
O10E W2E 1_555 1_555
W1K O9E 1_555 1_555
W2K O6 1_555 1_555
W3K O9K 1_555 1_555
O1K W3E 1_555 1_555
O2K W2K 1_555 1_555
O3K W2K 1_555 1_555
O4K W1K 1_555 1_555
O5K W1K 1_555 1_555
O6K W2E 1_555 1_555
O7K W1K 1_555 1_555
O8K W3K 1_555 1_555
O10K W2K 1_555 1_555
W1N O9 1_555 1_555
W2N O9N 1_555 1_555
W3N O9N 1_555 1_555
O1N W3 1_555 1_555
O2N W2N 1_555 1_555
O3N W3K 1_555 1_555
O4N W3K 1_555 1_555
O5N W1N 1_555 1_555
O6N W2 1_555 1_555
O7N W1N 1_555 1_555
O8N W3N 1_555 1_555
O10N W2N 1_555 1_555
Dy1E O11E 1_555 1_555
O12E Dy1E 1_555 1_555
O14E Dy1E 1_555 1_555
O15E Dy1E 1_555 1_555
O16E C6E 1_555 1_555
O17E K1 1_555 1_555
O18E C7E 1_555 1_555
N1E Dy1E 1_555 1_555
C1E N1E 1_555 1_555
C2E C1E 1_555 1_555
H1E C2E 1_555 1_555
C3E C2E 1_555 1_555
H2E C3E 1_555 1_555
C4E C3E 1_555 1_555
H3E C4E 1_555 1_555
C5E N1E 1_555 1_555
C6E O15E 1_555 1_555
C7E O17E 1_555 1_555
Dy1K O18 1_555 1_555
O11K Dy1K 1_555 1_555
O12K Dy1K 1_555 1_555
O13K K1 1_555 1_555
O14K Dy1K 1_555 1_555
O15K Dy1K 1_555 1_555
O16K C6K 1_555 1_555
O17K K1 1_555 1_555
O18K Dy1E 1_555 1_555
N1K Dy1K 1_555 1_555
C1K N1K 1_555 1_555
C2K C1K 1_555 1_555
H1K C2K 1_555 1_555
C3K C2K 1_555 1_555
H2K C3K 1_555 1_555
C4K C3K 1_555 1_555
H3K C4K 1_555 1_555
C5K N1K 1_555 1_555
C6K O15K 1_555 1_555
C7K O17K 1_555 1_555
Dy1N O18E 1_555 1_555
O11N Dy1N 1_555 1_555
O12N Dy1N 1_555 1_555
O14N Dy1N 1_555 1_555
O15N Dy1N 1_555 1_555
O16N C6N 1_555 1_555
O17N K1 1_555 1_555
O18N Dy1 1_555 1_555
N1N Dy1N 1_555 1_555
C1N N1N 1_555 1_555
C2N C1N 1_555 1_555
H1N C2N 1_555 1_555
C3N C2N 1_555 1_555
H2N C3N 1_555 1_555
C4N C3N 1_555 1_555
H3N C4N 1_555 1_555
C5N N1N 1_555 1_555
C6N O15N 1_555 1_555
C7N O17N 1_555 1_555
Dy1C O16E 1_555 1_555
Dy1F O16 1_555 1_555
Dy1I O16N 1_555 1_555
Dy1L O16K 1_555 1_555
O16B Dy1E 1_555 1_555
O16G Dy1 1_555 1_555
O16H Dy1N 1_555 1_555
O16M Dy1K 1_555 1_555
W2 O5 1_555 1_555
W3 O9 1_555 1_555
O4 W3E 1_555 1_555
B1 O9K 1_555 1_555
K1 O17 1_555 1_555
C1 C7 1_555 1_555
C4 C5 1_555 1_555
C5 C6 1_555 1_555
O9E W3E 1_555 1_555
O9K W2K 1_555 1_555
W1E O4E 1_555 1_555
W2E O3E 1_555 1_555
W2E O5E 1_555 1_555
W3E O2E 1_555 1_555
O1E W3N 1_555 1_555
O6E W2N 1_555 1_555
W1K O1K 1_555 1_555
W1K O6K 1_555 1_555
W2K O5K 1_555 1_555
W3K O2K 1_555 1_555
O3K W3N 1_555 1_555
O4K W3N 1_555 1_555
W1N O1N 1_555 1_555
W1N O4N 1_555 1_555
W1N O6N 1_555 1_555
W2N O3N 1_555 1_555
W2N O5N 1_555 1_555
W3N O2N 1_555 1_555
Dy1E O17E 1_555 1_555
C1E C7E 1_555 1_555
C4E C5E 1_555 1_555
C5E C6E 1_555 1_555
Dy1K O17K 1_555 1_555
O18K C7K 1_555 1_555
C1K C7K 1_555 1_555
C4K C5K 1_555 1_555
C5K C6K 1_555 1_555
Dy1N O17N 1_555 1_555
O18N C7N 1_555 1_555
C1N C7N 1_555 1_555
C4N C5N 1_555 1_555
C5N C6N 1_555 1_555

#END
