
#######################################################################
#
#                 Cambridge Crystallographic Data Centre
#                                CCDC 
#
#######################################################################
#
# If this CIF has been generated from an entry in the Cambridge 
# Structural Database, then it will include bibliographic, chemical, 
# crystal, experimental, refinement or atomic coordinate data resulting 
# from the CCDC's data processing and validation procedures.
#
#######################################################################

data_ZIMLAK
_symmetry_cell_setting           tetragonal
_symmetry_space_group_name_H-M   'I 41/a'
_symmetry_Int_Tables_number      88
_space_group_name_Hall           '-I 4ad'
loop_
_symmetry_equiv_pos_site_id
_symmetry_equiv_pos_as_xyz
1 x,y,z
2 1/2-x,-y,1/2+z
3 3/4-y,1/4+x,1/4+z
4 3/4+y,3/4-x,3/4+z
5 1/2+x,1/2+y,1/2+z
6 -x,1/2-y,z
7 1/4-y,3/4+x,3/4+z
8 1/4+y,1/4-x,1/4+z
9 -x,-y,-z
10 1/2+x,y,1/2-z
11 1/4+y,3/4-x,3/4-z
12 1/4-y,1/4+x,1/4-z
13 1/2-x,1/2-y,1/2-z
14 x,1/2+y,-z
15 3/4+y,1/4-x,1/4-z
16 3/4-y,3/4+x,3/4-z
_cell_length_a                   21.781(2)
_cell_length_b                   21.781(2)
_cell_length_c                   16.101(3)
_cell_angle_alpha                90
_cell_angle_beta                 90
_cell_angle_gamma                90
_cell_volume                     7638.51
loop_
_atom_site_label
_atom_site_type_symbol
_atom_site_fract_x
_atom_site_fract_y
_atom_site_fract_z
W1 W 0.355747(18) 0.316597(19) -0.13308(2)
W2 W 0.466750(18) 0.356336(18) 0.02773(3)
W3 W 0.606295(18) 0.295174(18) 0.02864(3)
O1 O 0.4338(3) 0.2801(3) 0.0585(4)
O2 O 0.5408(3) 0.3367(3) 0.0859(4)
O3 O 0.5110(3) 0.4184(3) -0.0306(4)
O4 O 0.4061(3) 0.3593(3) -0.0560(4)
O5 O 0.3822(3) 0.3724(3) -0.2192(4)
O6 O 0.2851(3) 0.3481(3) -0.1112(4)
O7 O 0.3545(3) 0.2513(3) -0.0552(4)
O8 O 0.6612(3) 0.2988(3) 0.1037(4)
O9 O 0.5234(3) 0.3023(3) -0.0704(4)
O10 O 0.4338(3) 0.4017(3) 0.1019(4)
B1 B 0.5000 0.2500 -0.1250
O9E O 0.4766(3) 0.1977(3) -0.0704(4)
O9J O 0.5523(3) 0.2266(3) -0.1796(4)
O9O O 0.4477(3) 0.2734(3) -0.1796(4)
W1E W 0.644253(18) 0.183403(19) -0.13308(2)
W2E W 0.533250(18) 0.143664(18) 0.02773(3)
W3E W 0.393705(18) 0.204826(18) 0.02864(3)
O1E O 0.5662(3) 0.2199(3) 0.0585(4)
O2E O 0.4592(3) 0.1633(3) 0.0859(4)
O3E O 0.4890(3) 0.0816(3) -0.0306(4)
O4E O 0.5939(3) 0.1407(3) -0.0560(4)
O5E O 0.6178(3) 0.1276(3) -0.2192(4)
O6E O 0.7149(3) 0.1519(3) -0.1112(4)
O7E O 0.6455(3) 0.2487(3) -0.0552(4)
O8E O 0.3388(3) 0.2012(3) 0.1037(4)
O10E O 0.5662(3) 0.0983(3) 0.1019(4)
W1J W 0.566597(19) 0.394253(18) -0.11692(2)
W2J W 0.606336(18) 0.283250(18) -0.27773(3)
W3J W 0.545174(18) 0.143705(18) -0.27864(3)
O1J O 0.5301(3) 0.3162(3) -0.3085(4)
O2J O 0.5867(3) 0.2092(3) -0.3359(4)
O3J O 0.6684(3) 0.2390(3) -0.2194(4)
O4J O 0.6093(3) 0.3439(3) -0.1940(4)
O5J O 0.6224(3) 0.3678(3) -0.0308(4)
O6J O 0.5981(3) 0.4649(3) -0.1388(4)
O7J O 0.5013(3) 0.3955(3) -0.1948(4)
O8J O 0.5488(3) 0.0888(3) -0.3537(4)
O10J O 0.6517(3) 0.3162(3) -0.3519(4)
W1O W 0.433403(19) 0.105747(18) -0.11692(2)
W2O W 0.393664(18) 0.216750(18) -0.27773(3)
W3O W 0.454826(18) 0.356295(18) -0.27864(3)
O1O O 0.4699(3) 0.1838(3) -0.3085(4)
O2O O 0.4133(3) 0.2908(3) -0.3359(4)
O3O O 0.3316(3) 0.2610(3) -0.2194(4)
O4O O 0.3907(3) 0.1561(3) -0.1940(4)
O5O O 0.3776(3) 0.1322(3) -0.0308(4)
O6O O 0.4019(3) 0.0351(3) -0.1388(4)
O7O O 0.4987(3) 0.1045(3) -0.1948(4)
O8O O 0.4512(3) 0.4112(3) -0.3537(4)
O10O O 0.3483(3) 0.1838(3) -0.3519(4)
Er1 Er 0.883354(19) 0.41620(2) 0.12396(3)
O11 O 0.8674(3) 0.3760(4) 0.2593(4)
O12 O 0.9639(3) 0.4067(4) 0.0257(5)
O13 O 0.8892(4) 0.5095(4) 0.1908(5)
O14 O 0.7770(3) 0.4268(3) 0.1527(4)
O15 O 0.7451(3) 0.3891(3) 0.2745(4)
O16 O 0.4757(3) 0.4140(4) 0.3026(4)
O17 O 0.5593(3) 0.3738(4) 0.3616(4)
N1 N 0.6315(3) 0.4185(3) 0.2478(5)
C1 C 0.6716(4) 0.4367(4) 0.1901(6)
C2 C 0.6539(5) 0.4700(4) 0.1220(6)
H1 H 0.6824 0.4812 0.0818
C3 C 0.5925(5) 0.4869(5) 0.1141(7)
H2 H 0.5795 0.5108 0.0696
C4 C 0.5515(5) 0.4674(4) 0.1737(6)
H3 H 0.5102 0.4778 0.1698
C5 C 0.5724(4) 0.4319(4) 0.2396(6)
C6 C 0.7371(4) 0.4162(5) 0.2057(6)
C7 C 0.5322(5) 0.4052(5) 0.3058(7)
K1 K 0.5000 0.2500 0.3750
O18 O 0.5000 0.2500 0.2210(10)
Er1E Er 0.116646(19) 0.08380(2) 0.12396(3)
O11E O 0.1326(3) 0.1240(4) 0.2593(4)
O12E O 0.0361(3) 0.0933(4) 0.0257(5)
O13E O 0.1108(4) -0.0095(4) 0.1908(5)
O14E O 0.2230(3) 0.0732(3) 0.1527(4)
O15E O 0.2549(3) 0.1109(3) 0.2745(4)
O16E O 0.5243(3) 0.0860(4) 0.3026(4)
O17E O 0.4407(3) 0.1262(4) 0.3616(4)
N1E N 0.3685(3) 0.0815(3) 0.2478(5)
C1E C 0.3284(4) 0.0633(4) 0.1901(6)
C2E C 0.3461(5) 0.0300(4) 0.1220(6)
H1E H 0.3176 0.0188 0.0818
C3E C 0.4075(5) 0.0131(5) 0.1141(7)
H2E H 0.4205 -0.0108 0.0696
C4E C 0.4485(5) 0.0326(4) 0.1737(6)
H3E H 0.4898 0.0222 0.1698
C5E C 0.4276(4) 0.0681(4) 0.2396(6)
C6E C 0.2629(4) 0.0838(5) 0.2057(6)
C7E C 0.4678(5) 0.0948(5) 0.3058(7)
Er1J Er 0.66620(2) -0.133354(19) 0.62604(3)
O11J O 0.6260(4) -0.1174(3) 0.4907(4)
O12J O 0.6567(4) -0.2139(3) 0.7243(5)
O13J O 0.7595(4) -0.1392(4) 0.5592(5)
O14J O 0.6768(3) -0.0270(3) 0.5973(4)
O15J O 0.6391(3) 0.0049(3) 0.4755(4)
O16J O 0.6640(4) 0.2743(3) 0.4474(4)
O17J O 0.6238(4) 0.1907(3) 0.3884(4)
N1J N 0.6685(3) 0.1185(3) 0.5022(5)
C1J C 0.6867(4) 0.0784(4) 0.5599(6)
C2J C 0.7200(4) 0.0961(5) 0.6280(6)
H1J H 0.7312 0.0676 0.6682
C3J C 0.7369(5) 0.1575(5) 0.6359(7)
H2J H 0.7608 0.1705 0.6804
C4J C 0.7174(4) 0.1985(5) 0.5763(6)
H3J H 0.7278 0.2398 0.5802
C5J C 0.6819(4) 0.1776(4) 0.5104(6)
C6J C 0.6662(5) 0.0129(4) 0.5443(6)
C7J C 0.6552(5) 0.2178(5) 0.4442(7)
O18J O 0.5000 0.2500 0.5290(10)
Er1O Er 0.33380(2) 0.633354(19) 0.62604(3)
O11O O 0.3740(4) 0.6174(3) 0.4907(4)
O12O O 0.3433(4) 0.7139(3) 0.7243(5)
O13O O 0.2405(4) 0.6392(4) 0.5592(5)
O14O O 0.3232(3) 0.5270(3) 0.5973(4)
O15O O 0.3609(3) 0.4951(3) 0.4755(4)
O16O O 0.3360(4) 0.2257(3) 0.4474(4)
O17O O 0.3762(4) 0.3093(3) 0.3884(4)
N1O N 0.3315(3) 0.3815(3) 0.5022(5)
C1O C 0.3133(4) 0.4216(4) 0.5599(6)
C2O C 0.2800(4) 0.4039(5) 0.6280(6)
H1O H 0.2688 0.4324 0.6682
C3O C 0.2631(5) 0.3425(5) 0.6359(7)
H2O H 0.2392 0.3295 0.6804
C4O C 0.2826(4) 0.3015(5) 0.5763(6)
H3O H 0.2722 0.2602 0.5802
C5O C 0.3181(4) 0.3224(4) 0.5104(6)
C6O C 0.3338(5) 0.4871(4) 0.5443(6)
C7O C 0.3448(5) 0.2822(5) 0.4442(7)
Er1B Er 0.33380(2) 0.133354(19) 0.37396(3)
Er1G Er 0.66620(2) 0.366646(19) 0.37396(3)
Er1I Er 0.383354(19) 0.41620(2) 0.37604(3)
Er1L Er 0.616646(19) 0.08380(2) 0.37604(3)
O15C O 0.1391(3) 0.0049(3) 0.0245(4)
O15F O 0.8609(3) 0.4951(3) 0.0245(4)
O15H O 0.2549(3) 0.6109(3) 0.7255(4)
O15M O 0.7451(3) -0.1109(3) 0.7255(4)
O16B O 0.3360(4) 0.7257(3) 0.5526(4)
O16G O 0.6640(4) -0.2257(3) 0.5526(4)
O16I O 0.9757(3) 0.4140(4) 0.1974(4)
O16L O 0.0243(3) 0.0860(4) 0.1974(4)
O17C O 0.1238(4) 0.1907(3) 0.1116(4)
O17F O 0.8762(4) 0.3093(3) 0.1116(4)
O17H O 0.4407(3) 0.6262(4) 0.6384(4)
O17M O 0.5593(3) -0.1262(4) 0.6384(4)
N1C N 0.1685(3) 0.1185(3) -0.0022(5)
N1F N 0.8315(3) 0.3815(3) -0.0022(5)
N1H N 0.3685(3) 0.5815(3) 0.7522(5)
N1M N 0.6315(3) -0.0815(3) 0.7522(5)
O19 O 0.3166(5) 0.4654(5) 0.0594(7)
loop_
_geom_bond_atom_site_label_1
_geom_bond_atom_site_label_2
_geom_bond_site_symmetry_1
_geom_bond_site_symmetry_2
W1 O4 1_555 1_555
W2 O1 1_555 1_555
W3 O2 1_555 1_555
O1 W3E 1_555 1_555
O2 W2 1_555 1_555
O3 W2 1_555 1_555
O4 W2 1_555 1_555
O5 W1 1_555 1_555
O6 W1 1_555 1_555
O7 W1 1_555 1_555
O8 W3 1_555 1_555
O9 W2 1_555 1_555
O10 W2 1_555 1_555
B1 O9 1_555 1_555
Er1 O11 1_555 1_555
O12 Er1 1_555 1_555
O13 Er1 1_555 1_555
O14 Er1 1_555 1_555
O15 C6 1_555 1_555
O16 C7 1_555 1_555
O17 C7 1_555 1_555
N1 C1 1_555 1_555
C1 C2 1_555 1_555
C2 H1 1_555 1_555
C3 C2 1_555 1_555
H2 C3 1_555 1_555
C4 C3 1_555 1_555
H3 C4 1_555 1_555
C5 N1 1_555 1_555
C6 O14 1_555 1_555
C7 C5 1_555 1_555
K1 O17 1_555 1_555
O18 K1 1_555 1_555
O9E B1 1_555 1_555
O9J B1 1_555 1_555
O9O W1 1_555 1_555
W1E O9J 1_555 1_555
W2E O9E 1_555 1_555
W3E O7 1_555 1_555
O1E W3 1_555 1_555
O2E W2E 1_555 1_555
O3E W2E 1_555 1_555
O4E W1E 1_555 1_555
O5E W1E 1_555 1_555
O6E W1E 1_555 1_555
O7E W3 1_555 1_555
O8E W3E 1_555 1_555
O10E W2E 1_555 1_555
W1J O3 1_555 1_555
W2J O9J 1_555 1_555
W3J O9J 1_555 1_555
O1J W2J 1_555 1_555
O2J W2J 1_555 1_555
O3J W1E 1_555 1_555
O4J W1J 1_555 1_555
O5J W3 1_555 1_555
O6J W1J 1_555 1_555
O7J W1J 1_555 1_555
O8J W3J 1_555 1_555
O10J W2J 1_555 1_555
W1O O9E 1_555 1_555
W2O O9O 1_555 1_555
W3O O5 1_555 1_555
O1O W3J 1_555 1_555
O2O W2O 1_555 1_555
O3O W1 1_555 1_555
O4O W1O 1_555 1_555
O5O W3E 1_555 1_555
O6O W1O 1_555 1_555
O7O W3J 1_555 1_555
O8O W3O 1_555 1_555
O10O W2O 1_555 1_555
Er1E O11E 1_555 1_555
O12E Er1E 1_555 1_555
O13E Er1E 1_555 1_555
O14E Er1E 1_555 1_555
O15E C6E 1_555 1_555
O16E C7E 1_555 1_555
O17E K1 1_555 1_555
N1E C1E 1_555 1_555
C1E C2E 1_555 1_555
C2E H1E 1_555 1_555
C3E C2E 1_555 1_555
H2E C3E 1_555 1_555
C4E C3E 1_555 1_555
H3E C4E 1_555 1_555
C5E N1E 1_555 1_555
C6E O14E 1_555 1_555
C7E O17E 1_555 1_555
Er1J O11J 1_555 1_555
O12J Er1J 1_555 1_555
O13J Er1J 1_555 1_555
O14J Er1J 1_555 1_555
O15J C6J 1_555 1_555
O16J C7J 1_555 1_555
O17J K1 1_555 1_555
N1J C1J 1_555 1_555
C1J C2J 1_555 1_555
C2J H1J 1_555 1_555
C3J C2J 1_555 1_555
H2J C3J 1_555 1_555
C4J C3J 1_555 1_555
H3J C4J 1_555 1_555
C5J N1J 1_555 1_555
C6J O14J 1_555 1_555
C7J O17J 1_555 1_555
O18J K1 1_555 1_555
Er1O O11O 1_555 1_555
O12O Er1O 1_555 1_555
O13O Er1O 1_555 1_555
O14O Er1O 1_555 1_555
O15O C6O 1_555 1_555
O16O C7O 1_555 1_555
O17O K1 1_555 1_555
N1O C1O 1_555 1_555
C1O C2O 1_555 1_555
C2O H1O 1_555 1_555
C3O C2O 1_555 1_555
H2O C3O 1_555 1_555
C4O C3O 1_555 1_555
H3O C4O 1_555 1_555
C5O N1O 1_555 1_555
C6O O14O 1_555 1_555
C7O O17O 1_555 1_555
Er1B O15E 1_555 1_555
Er1G O15 1_555 1_555
Er1I O16 1_555 1_555
Er1L O16E 1_555 1_555
O15C Er1E 1_555 1_555
O15F Er1 1_555 1_555
O15H Er1O 1_555 1_555
O15M Er1J 1_555 1_555
O16B Er1O 1_555 1_555
O16G Er1J 1_555 1_555
O16I Er1 1_555 1_555
O16L Er1E 1_555 1_555
O17C Er1E 1_555 1_555
O17F Er1 1_555 1_555
O17H Er1O 1_555 1_555
O17M Er1J 1_555 1_555
N1C Er1E 1_555 1_555
N1F Er1 1_555 1_555
N1H Er1O 1_555 1_555
N1M Er1J 1_555 1_555
W3 O9 1_555 1_555
O9 W1J 1_555 1_555
B1 O9O 1_555 1_555
O17 Er1G 1_555 1_555
N1 Er1G 1_555 1_555
C1 C6 1_555 1_555
C4 C5 1_555 1_555
O9E W3E 1_555 1_555
O9O W3O 1_555 1_555
W1E O7E 1_555 1_555
W2E O1E 1_555 1_555
W2E O4E 1_555 1_555
W3E O2E 1_555 1_555
O3E W1O 1_555 1_555
O5E W3J 1_555 1_555
W1J O5J 1_555 1_555
W2J O3J 1_555 1_555
W2J O4J 1_555 1_555
W3J O2J 1_555 1_555
O1J W3O 1_555 1_555
O7J W3O 1_555 1_555
W1O O5O 1_555 1_555
W1O O7O 1_555 1_555
W2O O1O 1_555 1_555
W2O O3O 1_555 1_555
W2O O4O 1_555 1_555
W3O O2O 1_555 1_555
O17E Er1B 1_555 1_555
N1E Er1B 1_555 1_555
C1E C6E 1_555 1_555
C4E C5E 1_555 1_555
C5E C7E 1_555 1_555
O15J Er1L 1_555 1_555
O16J Er1G 1_555 1_555
O17J Er1L 1_555 1_555
N1J Er1L 1_555 1_555
C1J C6J 1_555 1_555
C4J C5J 1_555 1_555
C5J C7J 1_555 1_555
O15O Er1I 1_555 1_555
O16O Er1B 1_555 1_555
O17O Er1I 1_555 1_555
N1O Er1I 1_555 1_555
C1O C6O 1_555 1_555
C4O C5O 1_555 1_555
C5O C7O 1_555 1_555

#END
