
#######################################################################
#
#                 Cambridge Crystallographic Data Centre
#                                CCDC 
#
#######################################################################
#
# If this CIF has been generated from an entry in the Cambridge 
# Structural Database, then it will include bibliographic, chemical, 
# crystal, experimental, refinement or atomic coordinate data resulting 
# from the CCDC's data processing and validation procedures.
#
#######################################################################

data_ZIMPIW
_symmetry_cell_setting           monoclinic
_symmetry_space_group_name_H-M   'P 21/n'
_symmetry_Int_Tables_number      14
_space_group_name_Hall           '-P 2yn'
loop_
_symmetry_equiv_pos_site_id
_symmetry_equiv_pos_as_xyz
1 x,y,z
2 1/2-x,1/2+y,1/2-z
3 -x,-y,-z
4 1/2+x,1/2-y,1/2+z
_cell_length_a                   9.4290(5)
_cell_length_b                   19.3164(11)
_cell_length_c                   11.1628(6)
_cell_angle_alpha                90
_cell_angle_beta                 91.3000(10)
_cell_angle_gamma                90
_cell_volume                     2032.61
loop_
_atom_site_label
_atom_site_type_symbol
_atom_site_fract_x
_atom_site_fract_y
_atom_site_fract_z
Pb1 Pb 0.319050(11) 0.531050(5) 0.356997(10)
S1 S 0.05112(8) 0.85070(4) 0.00912(7)
O1 O 0.2358(2) 0.61804(12) 0.2049(2)
O2 O 0.0653(3) 0.57408(12) 0.3131(2)
O3 O 0.0294(2) 0.91915(11) 0.0617(2)
O4 O 0.2001(2) 0.83322(12) -0.0012(2)
O5 O -0.0291(3) 0.84349(12) -0.1036(2)
O6 O 0.1313(4) 0.45276(16) 0.4957(3)
N1 N 0.5108(3) 0.50562(14) 0.2071(2)
N2 N 0.2603(3) 0.43852(15) 0.2086(2)
C1 C 0.6293(4) 0.54297(18) 0.2030(4)
H1 H 0.6352 0.5839 0.2468
C2 C 0.7445(5) 0.5231(2) 0.1357(4)
H2 H 0.8267 0.5497 0.1354
C3 C 0.7346(4) 0.4637(2) 0.0700(4)
H3 H 0.8096 0.4498 0.0230
C4 C 0.6120(4) 0.42429(19) 0.0738(3)
H4 H 0.6043 0.3834 0.0302
C5 C 0.5014(3) 0.44634(16) 0.1429(3)
C6 C 0.3655(3) 0.40799(16) 0.1502(3)
C7 C 0.3466(4) 0.34249(19) 0.0975(3)
H5 H 0.4206 0.3212 0.0578
C8 C 0.2172(5) 0.3103(2) 0.1056(4)
H6 H 0.2035 0.2663 0.0738
C9 C 0.1073(5) 0.3442(2) 0.1615(4)
H7 H 0.0177 0.3242 0.1645
C10 C 0.1331(4) 0.4072(2) 0.2117(3)
H8 H 0.0595 0.4296 0.2500
C11 C -0.0194(3) 0.78914(14) 0.1095(3)
C12 C 0.0645(3) 0.73182(15) 0.1365(3)
H9 H 0.1528 0.7274 0.1019
C13 C 0.0182(3) 0.68118(15) 0.2144(3)
C14 C -0.1136(3) 0.68803(16) 0.2640(3)
H10 H -0.1454 0.6547 0.3172
C15 C -0.1989(4) 0.74413(18) 0.2350(3)
H11 H -0.2881 0.7473 0.2684
C16 C -0.1556(3) 0.79588(15) 0.1573(3)
C17 C 0.1121(3) 0.62031(16) 0.2454(3)
C18 C -0.2557(3) 0.85394(17) 0.1261(3)
H12 H -0.3460 0.8453 0.1611
H13 H -0.2674 0.8569 0.0406
H14 H -0.2178 0.8967 0.1565
H15 H 0.1653 0.4119 0.4965
H16 H 0.0627 0.4546 0.5446
Pb1A Pb 0.180950(11) 1.031050(5) 0.143003(10)
Pb1C Pb -0.180950(11) 0.968950(5) -0.143003(10)
O3A O 0.4706(2) 0.41915(11) 0.4383(2)
O5C O 0.4709(3) 0.65651(12) 0.3964(2)
O7 O 0.4430(4) 0.7278(2) 0.1067(4)
H17 H 0.3762 0.7263 0.0520
H18 H 0.4027 0.7268 0.1750
loop_
_geom_bond_atom_site_label_1
_geom_bond_atom_site_label_2
_geom_bond_site_symmetry_1
_geom_bond_site_symmetry_2
Pb1 O1 1_555 1_555
S1 O3 1_555 1_555
O1 C17 1_555 1_555
O2 Pb1 1_555 1_555
O3 Pb1A 1_555 1_555
O4 S1 1_555 1_555
O5 S1 1_555 1_555
O6 Pb1 1_555 1_555
N1 Pb1 1_555 1_555
N2 Pb1 1_555 1_555
C1 N1 1_555 1_555
H1 C1 1_555 1_555
C2 C1 1_555 1_555
H2 C2 1_555 1_555
C3 C2 1_555 1_555
H3 C3 1_555 1_555
C4 C3 1_555 1_555
H4 C4 1_555 1_555
C5 N1 1_555 1_555
C6 N2 1_555 1_555
C7 C6 1_555 1_555
H5 C7 1_555 1_555
C8 C7 1_555 1_555
H6 C8 1_555 1_555
C9 C8 1_555 1_555
H7 C9 1_555 1_555
C10 N2 1_555 1_555
H8 C10 1_555 1_555
C11 S1 1_555 1_555
C12 C11 1_555 1_555
H9 C12 1_555 1_555
C13 C12 1_555 1_555
C14 C13 1_555 1_555
H10 C14 1_555 1_555
C15 C14 1_555 1_555
H11 C15 1_555 1_555
C16 C11 1_555 1_555
C17 O2 1_555 1_555
C18 C16 1_555 1_555
H12 C18 1_555 1_555
H13 C18 1_555 1_555
H14 C18 1_555 1_555
H15 O6 1_555 1_555
H16 O6 1_555 1_555
O7 H17 1_555 1_555
H18 O7 1_555 1_555
Pb1C O5 1_555 1_555
O3A Pb1 1_555 1_555
O5C Pb1 1_555 1_555
C4 C5 1_555 1_555
C5 C6 1_555 1_555
C9 C10 1_555 1_555
C13 C17 1_555 1_555
C15 C16 1_555 1_555

#END
