
#######################################################################
#
#                 Cambridge Crystallographic Data Centre
#                                CCDC 
#
#######################################################################
#
# If this CIF has been generated from an entry in the Cambridge 
# Structural Database, then it will include bibliographic, chemical, 
# crystal, experimental, refinement or atomic coordinate data resulting 
# from the CCDC's data processing and validation procedures.
#
#######################################################################

data_ZINKAK
_symmetry_cell_setting           orthorhombic
_symmetry_space_group_name_H-M   'P b a n'
_symmetry_Int_Tables_number      50
_space_group_name_Hall           '-P 2ab 2b'
loop_
_symmetry_equiv_pos_site_id
_symmetry_equiv_pos_as_xyz
1 x,y,z
2 1/2-x,1/2-y,z
3 1/2-x,y,-z
4 x,1/2-y,-z
5 -x,-y,-z
6 1/2+x,1/2+y,-z
7 1/2+x,-y,z
8 -x,1/2+y,z
_cell_length_a                   34.882(4)
_cell_length_b                   12.059(2)
_cell_length_c                   15.391(3)
_cell_angle_alpha                90
_cell_angle_beta                 90
_cell_angle_gamma                90
_cell_volume                     6474.1
loop_
_atom_site_label
_atom_site_type_symbol
_atom_site_fract_x
_atom_site_fract_y
_atom_site_fract_z
Eu1 Eu 0.018927(15) 0.17364(5) 0.28539(4)
P1 P 0.2500 0.7500 0.3306(3)
P2 P 0.23884(8) 0.6411(3) 0.1743(2)
O1 O -0.0058(2) 0.0144(6) 0.2068(5)
O2 O 0.04405(19) 0.6283(6) 0.3440(5)
O3 O 0.0391(2) 0.0182(6) 0.3726(5)
O4 O 0.09348(19) 0.2485(6) 0.3303(5)
O5 O 0.0220(2) 0.2413(6) 0.4347(5)
C1 C 0.0857(3) 0.3297(10) 0.2828(8)
O6 O 0.03899(19) 0.8062(6) 0.3130(6)
O7 O 0.0502(2) 0.3466(6) 0.2570(5)
O8 O 0.26028(18) 0.5375(6) 0.1344(5)
N1 N 0.2427(2) 0.6400(7) 0.2771(6)
O9 O 0.21783(18) 0.7703(7) 0.4020(5)
O10 O 0.19698(18) 0.6137(6) 0.1420(5)
C2 C 0.0590(3) 0.7266(10) 0.3380(8)
O11 O 0.4336(2) 0.3934(6) 0.1890(6)
C3 C 0.1062(3) 0.5009(9) 0.2023(8)
H1 H 0.0806 0.5194 0.1952
O12 O -0.0103(3) 0.2395(8) 0.1510(5)
C4 C 0.1710(3) 0.5404(9) 0.1800(8)
O13 O 0.4434(2) 0.5550(7) 0.1222(6)
C5 C 0.1330(3) 0.5701(10) 0.1683(8)
H2 H 0.1261 0.6343 0.1386
C6 C 0.1617(3) 0.6590(10) 0.4028(8)
H3 H 0.1760 0.6008 0.4254
C7 C 0.1590(3) 0.8482(8) 0.3537(9)
H4 H 0.1718 0.9149 0.3448
C8 C 0.1811(3) 0.4474(9) 0.2255(7)
H5 H 0.2069 0.4302 0.2336
N2 N 0.2500 0.7500 0.1253(9)
C9 C 0.3151(3) 0.4421(9) 0.1905(8)
H6 H 0.2990 0.3961 0.2225
C10 C 0.1782(3) 0.7577(9) 0.3819(7)
C11 C 0.1193(3) 0.8400(10) 0.3379(9)
H7 H 0.1055 0.8997 0.3159
C12 C 0.1533(3) 0.3796(9) 0.2590(8)
H8 H 0.1603 0.3166 0.2901
C13 C 0.1148(3) 0.4042(9) 0.2469(7)
C14 C 0.3006(3) 0.5255(10) 0.1395(9)
C15 C 0.1219(3) 0.6488(9) 0.3888(9)
H9 H 0.1095 0.5823 0.4011
C16 C 0.1012(3) 0.7384(10) 0.3565(8)
C17 C 0.3241(3) 0.5915(11) 0.0911(8)
H10 H 0.3137 0.6450 0.0545
C18 C 0.3635(3) 0.5785(11) 0.0967(9)
H11 H 0.3797 0.6257 0.0662
C19 C 0.3548(3) 0.4289(9) 0.1925(8)
H12 H 0.3653 0.3721 0.2259
C20 C 0.3784(3) 0.4959(10) 0.1475(8)
C21 C 0.4219(3) 0.4785(11) 0.1526(8)
P2A P 0.26116(8) 0.8589(3) 0.1743(2)
O2A O 0.45595(19) 0.8717(6) 0.3440(5)
O4A O 0.40652(19) 1.2515(6) 0.3303(5)
C1A C 0.4143(3) 1.1703(10) 0.2828(8)
O6A O 0.46101(19) 0.6938(6) 0.3130(6)
O7A O 0.4498(2) 1.1534(6) 0.2570(5)
O8A O 0.23972(18) 0.9625(6) 0.1344(5)
N1A N 0.2573(2) 0.8600(7) 0.2771(6)
O9A O 0.28217(18) 0.7297(7) 0.4020(5)
O10A O 0.30302(18) 0.8863(6) 0.1420(5)
C2A C 0.4410(3) 0.7734(10) 0.3380(8)
O11A O 0.0664(2) 1.1066(6) 0.1890(6)
C3A C 0.3938(3) 0.9991(9) 0.2023(8)
H1A H 0.4194 0.9806 0.1952
C4A C 0.3290(3) 0.9596(9) 0.1800(8)
O13A O 0.0566(2) 0.9450(7) 0.1222(6)
C5A C 0.3670(3) 0.9299(10) 0.1683(8)
H2A H 0.3739 0.8657 0.1386
C6A C 0.3383(3) 0.8410(10) 0.4028(8)
H3A H 0.3240 0.8992 0.4254
C7A C 0.3410(3) 0.6518(8) 0.3537(9)
H4A H 0.3282 0.5851 0.3448
C8A C 0.3189(3) 1.0526(9) 0.2255(7)
H5A H 0.2931 1.0698 0.2336
C9A C 0.1849(3) 1.0579(9) 0.1905(8)
H6A H 0.2010 1.1039 0.2225
C10A C 0.3218(3) 0.7423(9) 0.3819(7)
C11A C 0.3807(3) 0.6600(10) 0.3379(9)
H7A H 0.3945 0.6003 0.3159
C12A C 0.3467(3) 1.1204(9) 0.2590(8)
H8A H 0.3397 1.1834 0.2901
C13A C 0.3852(3) 1.0958(9) 0.2469(7)
C14A C 0.1994(3) 0.9745(10) 0.1395(9)
C15A C 0.3781(3) 0.8512(9) 0.3888(9)
H9A H 0.3905 0.9177 0.4011
C16A C 0.3988(3) 0.7616(10) 0.3565(8)
C17A C 0.1759(3) 0.9085(11) 0.0911(8)
H10A H 0.1863 0.8550 0.0545
C18A C 0.1365(3) 0.9215(11) 0.0967(9)
H11A H 0.1203 0.8743 0.0662
C19A C 0.1452(3) 1.0711(9) 0.1925(8)
H12A H 0.1347 1.1279 0.2259
C20A C 0.1216(3) 1.0041(10) 0.1475(8)
C21A C 0.0781(3) 1.0215(11) 0.1526(8)
Eu1A Eu 0.481073(15) 0.32636(5) 0.28539(4)
O1A O 0.5058(2) 0.4856(6) 0.2068(5)
O3A O 0.4609(2) 0.4818(6) 0.3726(5)
O5A O 0.4780(2) 0.2587(6) 0.4347(5)
O12A O 0.5103(3) 0.2605(8) 0.1510(5)
Eu1_2 Eu 0.018927(15) 1.17364(5) 0.28539(4)
Eu1A_2 Eu 0.481073(15) 1.32636(5) 0.28539(4)
Eu1F Eu 0.518927(15) 0.82636(5) 0.28539(4)
Eu1G Eu -0.018927(15) 0.67364(5) 0.28539(4)
O2F O 0.54405(19) 0.3717(6) 0.3440(5)
O2G O -0.04405(19) 0.1283(6) 0.3440(5)
O4A_2 O 0.40652(19) 0.2515(6) 0.3303(5)
O6F O 0.53899(19) 0.1938(6) 0.3130(6)
O6G O -0.03899(19) 0.3062(6) 0.3130(6)
O7A_2 O 0.4498(2) 0.1534(6) 0.2570(5)
O11A_2 O 0.0664(2) 0.1066(6) 0.1890(6)
O14 O 0.0565(2) 0.0402(6) 0.5425(5)
N3 N 0.1216(4) 0.2500 0.5000
H13 H 0.0969 0.2500 0.5000
C22 C 0.1447(4) 0.1513(11) 0.4873(11)
H14 H 0.1283 0.0885 0.4785
H15 H 0.1604 0.1392 0.5376
H16 H 0.1608 0.1611 0.4372
C22C C 0.1447(4) 0.3487(11) 0.5127(11)
H14C H 0.1283 0.4115 0.5215
H15C H 0.1604 0.3608 0.4624
H16C H 0.1608 0.3389 0.5628
loop_
_geom_bond_atom_site_label_1
_geom_bond_atom_site_label_2
_geom_bond_site_symmetry_1
_geom_bond_site_symmetry_2
Eu1 O1 1_555 1_555
P1 N1 1_555 1_555
P2 O8 1_555 1_555
O2 C2 1_555 1_555
O3 Eu1 1_555 1_555
O4 Eu1 1_555 1_555
O5 Eu1 1_555 1_555
C1 O4 1_555 1_555
O6 C2 1_555 1_555
O7 Eu1 1_555 1_555
O8 C14 1_555 1_555
N1 P2 1_555 1_555
O9 P1 1_555 1_555
O10 P2 1_555 1_555
C2 C16 1_555 1_555
O11 C21 1_555 1_555
C3 H1 1_555 1_555
O12 Eu1 1_555 1_555
C4 O10 1_555 1_555
O13 C21 1_555 1_555
C5 C3 1_555 1_555
H2 C5 1_555 1_555
C6 H3 1_555 1_555
C7 H4 1_555 1_555
C8 C4 1_555 1_555
H5 C8 1_555 1_555
N2 P2 1_555 1_555
C9 H6 1_555 1_555
C10 O9 1_555 1_555
C11 C7 1_555 1_555
H7 C11 1_555 1_555
C12 C8 1_555 1_555
H8 C12 1_555 1_555
C13 C1 1_555 1_555
C14 C9 1_555 1_555
C15 C6 1_555 1_555
H9 C15 1_555 1_555
C16 C11 1_555 1_555
C17 C14 1_555 1_555
H10 C17 1_555 1_555
C18 C17 1_555 1_555
H11 C18 1_555 1_555
C19 C9 1_555 1_555
H12 C19 1_555 1_555
C20 C18 1_555 1_555
C21 C20 1_555 1_555
N3 H13 1_555 1_555
C22 N3 1_555 1_555
H14 C22 1_555 1_555
H15 C22 1_555 1_555
H16 C22 1_555 1_555
P2A N2 1_555 1_555
O2A C2A 1_555 1_555
O4A C1A 1_555 1_555
C1A O7A 1_555 1_555
O6A C2A 1_555 1_555
O7A Eu1A_2 1_555 1_555
O8A P2A 1_555 1_555
N1A P1 1_555 1_555
O9A P1 1_555 1_555
O10A P2A 1_555 1_555
C2A C16A 1_555 1_555
O11A C21A 1_555 1_555
C3A H1A 1_555 1_555
C4A O10A 1_555 1_555
O13A C21A 1_555 1_555
C5A C3A 1_555 1_555
H2A C5A 1_555 1_555
C6A H3A 1_555 1_555
C7A H4A 1_555 1_555
C8A C4A 1_555 1_555
H5A C8A 1_555 1_555
C9A H6A 1_555 1_555
C10A O9A 1_555 1_555
C11A C7A 1_555 1_555
H7A C11A 1_555 1_555
C12A C8A 1_555 1_555
H8A C12A 1_555 1_555
C13A C1A 1_555 1_555
C14A O8A 1_555 1_555
C15A C6A 1_555 1_555
H9A C15A 1_555 1_555
C16A C11A 1_555 1_555
C17A C14A 1_555 1_555
H10A C17A 1_555 1_555
C18A C17A 1_555 1_555
H11A C18A 1_555 1_555
C19A C9A 1_555 1_555
H12A C19A 1_555 1_555
C20A C18A 1_555 1_555
C21A C20A 1_555 1_555
Eu1A O11 1_555 1_555
O1A Eu1A 1_555 1_555
O3A Eu1A 1_555 1_555
O5A Eu1A 1_555 1_555
O12A Eu1A 1_555 1_555
Eu1_2 O11A 1_555 1_555
Eu1A_2 O4A 1_555 1_555
Eu1F O2A 1_555 1_555
Eu1G O2 1_555 1_555
O2F Eu1A 1_555 1_555
O2G Eu1 1_555 1_555
O4A_2 Eu1A 1_555 1_555
O6F Eu1A 1_555 1_555
O6G Eu1 1_555 1_555
O7A_2 Eu1A 1_555 1_555
O11A_2 Eu1 1_555 1_555
C22C N3 1_555 1_555
H14C C22C 1_555 1_555
H15C C22C 1_555 1_555
H16C C22C 1_555 1_555
C1 O7 1_555 1_555
O6 Eu1G 1_555 1_555
C3 C13 1_555 1_555
C4 C5 1_555 1_555
C6 C10 1_555 1_555
C7 C10 1_555 1_555
C12 C13 1_555 1_555
C15 C16 1_555 1_555
C19 C20 1_555 1_555
P2A N1A 1_555 1_555
O6A Eu1F 1_555 1_555
C3A C13A 1_555 1_555
C4A C5A 1_555 1_555
C6A C10A 1_555 1_555
C7A C10A 1_555 1_555
C9A C14A 1_555 1_555
C12A C13A 1_555 1_555
C15A C16A 1_555 1_555
C19A C20A 1_555 1_555

#END
