
#######################################################################
#
#                 Cambridge Crystallographic Data Centre
#                                CCDC 
#
#######################################################################
#
# If this CIF has been generated from an entry in the Cambridge 
# Structural Database, then it will include bibliographic, chemical, 
# crystal, experimental, refinement or atomic coordinate data resulting 
# from the CCDC's data processing and validation procedures.
#
#######################################################################

data_ZINLIT
_symmetry_cell_setting           monoclinic
_symmetry_space_group_name_H-M   'C c'
_symmetry_Int_Tables_number      9
_space_group_name_Hall           'C -2yc'
loop_
_symmetry_equiv_pos_site_id
_symmetry_equiv_pos_as_xyz
1 x,y,z
2 x,-y,1/2+z
3 1/2+x,1/2+y,z
4 1/2+x,1/2-y,1/2+z
_cell_length_a                   10.658(5)
_cell_length_b                   25.615(12)
_cell_length_c                   7.541(4)
_cell_angle_alpha                90
_cell_angle_beta                 121.702(6)
_cell_angle_gamma                90
_cell_volume                     1751.55
loop_
_atom_site_label
_atom_site_type_symbol
_atom_site_fract_x
_atom_site_fract_y
_atom_site_fract_z
Cu1 Cu 0.41549(9) 0.99297(4) 0.16522(13)
Br1 Br 0.59780(11) 0.99670(4) 0.58090(16)
N1 N 0.3442(9) 1.0699(3) 0.1372(14)
N2 N 0.2229(8) 0.9818(3) 0.1290(13)
N3 N 0.2644(10) 0.8958(3) 0.1281(14)
N4 N 0.3923(10) 0.9127(3) 0.1421(15)
C1 C 0.4105(12) 1.1142(3) 0.1411(18)
H1 H 0.5027 1.1131 0.1558
C2 C 0.3430(14) 1.1627(4) 0.1234(17)
H2 H 0.3929 1.1935 0.1338
C3 C 0.2080(14) 1.1647(5) 0.092(2)
H3 H 0.1623 1.1969 0.0721
C4 C 0.1339(12) 1.1196(4) 0.0874(18)
C5 C 0.2094(11) 1.0730(4) 0.1141(17)
C6 C -0.0080(12) 1.1162(4) 0.0673(17)
H4 H -0.0575 1.1469 0.0587
C7 C -0.0713(12) 1.0701(4) 0.0605(19)
H5 H -0.1647 1.0696 0.0423
C8 C 0.0042(13) 1.0214(5) 0.0812(17)
C9 C 0.1430(11) 1.0243(4) 0.1105(17)
C10 C -0.0521(12) 0.9704(4) 0.0716(18)
H6 H -0.1438 0.9663 0.0567
C11 C 0.0299(12) 0.9267(4) 0.0846(18)
H7 H -0.0071 0.8931 0.0722
C12 C 0.1685(12) 0.9351(4) 0.1167(18)
C13 C 0.4643(12) 0.8709(4) 0.1530(19)
H8 H 0.5546 0.8705 0.1618
C14 C 0.3843(15) 0.8247(4) 0.150(2)
C15 C 0.2607(13) 0.8435(4) 0.1284(19)
H9 H 0.1837 0.8234 0.1158
C16 C 0.4324(18) 0.7685(4) 0.159(3)
H10 H 0.4150 0.7492 0.2529
H11 H 0.5355 0.7676 0.2072
H12 H 0.3769 0.7533 0.0223
Cu1A Cu 0.41549(9) 1.00703(4) 0.66522(13)
Br1A Br 0.59780(11) 1.00330(4) 0.08090(16)
Cl1 Cl 0.7746(4) 0.81427(12) 0.9919(10)
O1 O 0.9187(8) 0.8047(3) 1.0834(17)
O2 O 0.7234(16) 0.7868(5) 1.091(3)
O3 O 0.7051(15) 0.7994(8) 0.7965(16)
O4 O 0.7482(11) 0.8641(3) 1.005(2)
loop_
_geom_bond_atom_site_label_1
_geom_bond_atom_site_label_2
_geom_bond_site_symmetry_1
_geom_bond_site_symmetry_2
Cu1 Br1 1_555 1_555
Br1 Cu1A 1_555 1_555
N1 Cu1 1_555 1_555
N2 Cu1 1_555 1_555
N3 N4 1_555 1_555
N4 Cu1 1_555 1_555
C1 N1 1_555 1_555
H1 C1 1_555 1_555
C2 C1 1_555 1_555
H2 C2 1_555 1_555
C3 C2 1_555 1_555
H3 C3 1_555 1_555
C4 C3 1_555 1_555
C5 N1 1_555 1_555
C6 C4 1_555 1_555
H4 C6 1_555 1_555
C7 C6 1_555 1_555
H5 C7 1_555 1_555
C8 C7 1_555 1_555
C9 N2 1_555 1_555
C10 C8 1_555 1_555
H6 C10 1_555 1_555
C11 C10 1_555 1_555
H7 C11 1_555 1_555
C12 N2 1_555 1_555
C13 N4 1_555 1_555
H8 C13 1_555 1_555
C14 C13 1_555 1_555
C15 N3 1_555 1_555
H9 C15 1_555 1_555
C16 C14 1_555 1_555
H10 C16 1_555 1_555
H11 C16 1_555 1_555
H12 C16 1_555 1_555
Cl1 O1 1_555 1_555
O2 Cl1 1_555 1_555
O3 Cl1 1_555 1_555
O4 Cl1 1_555 1_555
Br1A Cu1 1_555 1_555
N3 C12 1_555 1_555
C4 C5 1_555 1_555
C5 C9 1_555 1_555
C8 C9 1_555 1_555
C11 C12 1_555 1_555
C14 C15 1_555 1_555

#END
