
#######################################################################
#
#                 Cambridge Crystallographic Data Centre
#                                CCDC 
#
#######################################################################
#
# If this CIF has been generated from an entry in the Cambridge 
# Structural Database, then it will include bibliographic, chemical, 
# crystal, experimental, refinement or atomic coordinate data resulting 
# from the CCDC's data processing and validation procedures.
#
#######################################################################

data_ZINMOA
_symmetry_cell_setting           triclinic
_symmetry_space_group_name_H-M   'P -1'
_symmetry_Int_Tables_number      2
_space_group_name_Hall           '-P 1'
loop_
_symmetry_equiv_pos_site_id
_symmetry_equiv_pos_as_xyz
1 x,y,z
2 -x,-y,-z
_cell_length_a                   10.2306(11)
_cell_length_b                   10.3931(11)
_cell_length_c                   14.593(2)
_cell_angle_alpha                106.914(2)
_cell_angle_beta                 95.523(2)
_cell_angle_gamma                114.188(2)
_cell_volume                     1312.27
loop_
_atom_site_label
_atom_site_type_symbol
_atom_site_fract_x
_atom_site_fract_y
_atom_site_fract_z
Cd1 Cd 0.29614(2) 0.23358(2) 0.169050(14)
N1 N 0.2697(3) 0.2868(3) 0.0211(2)
N2 N 0.4211(3) 0.4887(3) 0.2076(2)
N3 N 0.4826(3) 0.6899(3) 0.1646(2)
H1 H 0.4870 0.7437 0.1288
N4 N 0.8761(3) 0.3152(3) 0.54453(17)
H2 H 0.9646 0.3355 0.5759
O1 O 0.4809(2) 0.2613(2) 0.28279(16)
O2 O 0.5368(3) 0.1924(3) 0.14107(16)
O3 O 1.0440(2) 0.2090(3) 0.15414(14)
O4 O 1.1664(2) 0.2311(3) 0.29370(17)
O5 O 0.8140(2) 0.0232(2) 0.92691(15)
O6 O 0.9259(3) 0.2687(2) 1.01800(15)
H3 H 0.9375 0.2366 1.0616
C1 C 0.8564(3) 0.2960(3) 0.4450(2)
C2 C 0.7315(3) 0.2869(3) 0.3911(2)
H4 H 0.6621 0.3030 0.4231
C3 C 0.7088(3) 0.2538(3) 0.2892(2)
C4 C 0.8123(3) 0.2325(3) 0.24012(19)
H5 H 0.7968 0.2100 0.1723
C5 C 0.9402(3) 0.2453(3) 0.29440(19)
C6 C 0.9615(3) 0.2763(3) 0.3957(2)
H6 H 1.0467 0.2840 0.4311
C7 C 0.5659(3) 0.2350(3) 0.2329(2)
C8 C 1.0571(3) 0.2271(3) 0.2452(2)
C9 C 0.7683(4) 0.3289(4) 0.5990(2)
H7 H 0.6693 0.2630 0.5567
H8 H 0.7826 0.4323 0.6201
C10 C 0.7856(3) 0.2855(4) 0.6883(2)
C11 C 0.8619(3) 0.3944(3) 0.7812(2)
H9 H 0.9014 0.4965 0.7900
C12 C 0.8799(3) 0.3516(3) 0.8617(2)
H10 H 0.9294 0.4253 0.9243
C13 C 0.8250(3) 0.2007(3) 0.84918(19)
C14 C 0.7476(4) 0.0920(4) 0.7565(2)
H11 H 0.7084 -0.0102 0.7474
C15 C 0.7286(4) 0.1351(4) 0.6770(2)
H12 H 0.6763 0.0612 0.6147
C16 C 0.8524(3) 0.1543(3) 0.9337(2)
C17 C 0.1911(4) 0.1829(4) -0.0709(2)
H13 H 0.1542 0.0809 -0.0800
C18 C 0.1631(4) 0.2198(5) -0.1512(3)
H14 H 0.1085 0.1451 -0.2129
C19 C 0.2194(4) 0.3728(5) -0.1370(3)
H15 H 0.2041 0.4032 -0.1893
C20 C 0.2982(4) 0.4782(4) -0.0437(3)
H16 H 0.3362 0.5810 -0.0326
C21 C 0.3208(3) 0.4321(4) 0.0331(2)
C22 C 0.4050(3) 0.5368(3) 0.1334(2)
C23 C 0.5527(4) 0.7444(4) 0.2628(2)
C24 C 0.5123(4) 0.6140(4) 0.2887(2)
C25 C 0.5671(5) 0.6277(4) 0.3838(3)
H17 H 0.5401 0.5438 0.4024
C26 C 0.6633(5) 0.7717(5) 0.4493(3)
H18 H 0.7018 0.7847 0.5136
C27 C 0.7052(5) 0.8992(5) 0.4224(3)
H19 H 0.7721 0.9940 0.4685
C28 C 0.6498(5) 0.8866(4) 0.3298(3)
H20 H 0.6767 0.9715 0.3124
Cd1_2 Cd 1.29614(2) 0.23358(2) 0.169050(14)
Cd1A Cd 0.70386(2) -0.23358(2) 0.830950(14)
O3_2 O 0.0440(2) 0.2090(3) 0.15414(14)
O4_2 O 0.1664(2) 0.2311(3) 0.29370(17)
O5A O 0.1860(2) -0.0232(2) 0.07309(15)
O7 O 0.5014(3) 0.1196(3) 0.9386(2)
H21 H 0.4875 0.0302 0.9125
H22 H 0.4955 0.1385 0.9977
loop_
_geom_bond_atom_site_label_1
_geom_bond_atom_site_label_2
_geom_bond_site_symmetry_1
_geom_bond_site_symmetry_2
Cd1 N1 1_555 1_555
N1 C17 1_555 1_555
N2 Cd1 1_555 1_555
N3 H1 1_555 1_555
N4 H2 1_555 1_555
O1 Cd1 1_555 1_555
O2 Cd1 1_555 1_555
O3 C8 1_555 1_555
O4 C8 1_555 1_555
O5 C16 1_555 1_555
O6 H3 1_555 1_555
C1 N4 1_555 1_555
C2 C1 1_555 1_555
H4 C2 1_555 1_555
C3 C2 1_555 1_555
C4 C3 1_555 1_555
H5 C4 1_555 1_555
C5 C4 1_555 1_555
C6 C1 1_555 1_555
H6 C6 1_555 1_555
C7 O1 1_555 1_555
C8 C5 1_555 1_555
C9 N4 1_555 1_555
H7 C9 1_555 1_555
H8 C9 1_555 1_555
C10 C9 1_555 1_555
C11 C10 1_555 1_555
H9 C11 1_555 1_555
C12 C11 1_555 1_555
H10 C12 1_555 1_555
C13 C12 1_555 1_555
C14 C13 1_555 1_555
H11 C14 1_555 1_555
C15 C10 1_555 1_555
H12 C15 1_555 1_555
C16 O6 1_555 1_555
C17 H13 1_555 1_555
C18 C17 1_555 1_555
H14 C18 1_555 1_555
C19 C18 1_555 1_555
H15 C19 1_555 1_555
C20 C19 1_555 1_555
H16 C20 1_555 1_555
C21 N1 1_555 1_555
C22 N2 1_555 1_555
C23 N3 1_555 1_555
C24 N2 1_555 1_555
C25 C24 1_555 1_555
H17 C25 1_555 1_555
C26 C25 1_555 1_555
H18 C26 1_555 1_555
C27 C26 1_555 1_555
H19 C27 1_555 1_555
C28 C23 1_555 1_555
H20 C28 1_555 1_555
O7 H21 1_555 1_555
H22 O7 1_555 1_555
Cd1_2 O3 1_555 1_555
Cd1A O5 1_555 1_555
O3_2 Cd1 1_555 1_555
O4_2 Cd1 1_555 1_555
O5A Cd1 1_555 1_555
N3 C22 1_555 1_555
O2 C7 1_555 1_555
O4 Cd1_2 1_555 1_555
C3 C7 1_555 1_555
C5 C6 1_555 1_555
C13 C16 1_555 1_555
C14 C15 1_555 1_555
C20 C21 1_555 1_555
C21 C22 1_555 1_555
C23 C24 1_555 1_555
C27 C28 1_555 1_555

#END
