
#######################################################################
#
#                 Cambridge Crystallographic Data Centre
#                                CCDC 
#
#######################################################################
#
# If this CIF has been generated from an entry in the Cambridge 
# Structural Database, then it will include bibliographic, chemical, 
# crystal, experimental, refinement or atomic coordinate data resulting 
# from the CCDC's data processing and validation procedures.
#
#######################################################################

data_ZINROF
_symmetry_cell_setting           monoclinic
_symmetry_space_group_name_H-M   'C 2/c'
_symmetry_Int_Tables_number      15
_space_group_name_Hall           '-C 2yn'
loop_
_symmetry_equiv_pos_site_id
_symmetry_equiv_pos_as_xyz
1 x,y,z
2 -x,y,1/2-z
3 1/2+x,1/2+y,z
4 1/2-x,1/2+y,1/2-z
5 -x,-y,-z
6 x,-y,1/2+z
7 1/2-x,1/2-y,-z
8 1/2+x,1/2-y,1/2+z
_cell_length_a                   13.8805(4)
_cell_length_b                   10.6446(3)
_cell_length_c                   21.1552(7)
_cell_angle_alpha                90
_cell_angle_beta                 106.4640(10)
_cell_angle_gamma                90
_cell_volume                     2997.57
loop_
_atom_site_label
_atom_site_type_symbol
_atom_site_fract_x
_atom_site_fract_y
_atom_site_fract_z
U1 U 0.274499(10) 0.524117(13) 0.630497(6)
O1 O 0.1639(2) 0.4472(3) 0.58370(13)
O2 O 0.3859(2) 0.6046(3) 0.67536(13)
O3 O 0.2967(2) 0.7777(3) 0.38679(12)
O4 O 0.4356(2) 0.7747(3) 0.47377(13)
O5 O 0.3019(2) 0.6052(3) 0.52671(12)
O6 O 0.3695(2) 0.4211(3) 0.56108(12)
O7 O 0.2190(2) 0.5345(3) 0.72473(12)
O8 O 0.1092(5) 0.3774(5) 0.7144(2)
O9 O 0.1611(3) 0.8396(3) 0.81775(16)
O10 O 0.0912(2) 0.7406(3) 0.72376(12)
N1 N 0.3962(2) 0.5625(3) 0.35478(13)
H1 H 0.3979 0.6257 0.3283
N2 N 0.1202(3) 0.4095(4) 0.84448(16)
H2 H 0.1271 0.3321 0.8317
C1 C 0.3717(3) 0.7268(4) 0.42841(16)
C2 C 0.3807(3) 0.5877(4) 0.41347(16)
C3 C 0.3742(3) 0.4889(4) 0.45518(16)
C4 C 0.3485(3) 0.5084(4) 0.51812(16)
C5 C 0.3868(3) 0.3669(4) 0.43461(17)
H3 H 0.3838 0.2982 0.4626
C6 C 0.4036(3) 0.3442(4) 0.37433(18)
H4 H 0.4112 0.2609 0.3603
C7 C 0.4090(3) 0.4462(4) 0.33476(17)
H5 H 0.4218 0.4335 0.2934
C8 C 0.1541(4) 0.4690(4) 0.7420(2)
C9 C 0.1306(3) 0.5079(4) 0.80454(17)
C10 C 0.1202(3) 0.6284(4) 0.82458(16)
C11 C 0.1245(3) 0.7447(4) 0.78381(18)
C12 C 0.1000(3) 0.6461(4) 0.88409(16)
H6 H 0.0939 0.7294 0.8987
C13 C 0.0883(3) 0.5476(5) 0.92277(18)
H7 H 0.0724 0.5621 0.9630
C14 C 0.0998(3) 0.4280(5) 0.90275(19)
H8 H 0.0936 0.3584 0.9294
U1C U 0.225501(10) 1.024117(13) 0.869503(6)
U1F U 0.225501(10) 0.975883(13) 0.369503(6)
O3F O 0.2033(2) 0.7223(3) 0.61321(12)
O9C O 0.3389(3) 0.3396(3) 0.68225(16)
loop_
_geom_bond_atom_site_label_1
_geom_bond_atom_site_label_2
_geom_bond_site_symmetry_1
_geom_bond_site_symmetry_2
U1 O1 1_555 1_555
O2 U1 1_555 1_555
O3 C1 1_555 1_555
O4 C1 1_555 1_555
O5 U1 1_555 1_555
O6 U1 1_555 1_555
O7 U1 1_555 1_555
O8 C8 1_555 1_555
O9 C11 1_555 1_555
O10 C11 1_555 1_555
N1 H1 1_555 1_555
N2 H2 1_555 1_555
C1 C2 1_555 1_555
C2 N1 1_555 1_555
C3 C2 1_555 1_555
C4 O5 1_555 1_555
C5 C3 1_555 1_555
H3 C5 1_555 1_555
C6 C5 1_555 1_555
H4 C6 1_555 1_555
C7 N1 1_555 1_555
H5 C7 1_555 1_555
C8 O7 1_555 1_555
C9 N2 1_555 1_555
C10 C9 1_555 1_555
C11 C10 1_555 1_555
C12 C10 1_555 1_555
H6 C12 1_555 1_555
C13 C12 1_555 1_555
H7 C13 1_555 1_555
C14 N2 1_555 1_555
H8 C14 1_555 1_555
U1C O9 1_555 1_555
U1F O3 1_555 1_555
O3F U1 1_555 1_555
O9C U1 1_555 1_555
O6 C4 1_555 1_555
C3 C4 1_555 1_555
C6 C7 1_555 1_555
C8 C9 1_555 1_555
C13 C14 1_555 1_555

#END
