
#######################################################################
#
#                 Cambridge Crystallographic Data Centre
#                                CCDC 
#
#######################################################################
#
# If this CIF has been generated from an entry in the Cambridge 
# Structural Database, then it will include bibliographic, chemical, 
# crystal, experimental, refinement or atomic coordinate data resulting 
# from the CCDC's data processing and validation procedures.
#
#######################################################################

data_ZINVOJ
_symmetry_cell_setting           triclinic
_symmetry_space_group_name_H-M   'P -1'
_symmetry_Int_Tables_number      2
_space_group_name_Hall           '-P 1'
loop_
_symmetry_equiv_pos_site_id
_symmetry_equiv_pos_as_xyz
1 x,y,z
2 -x,-y,-z
_cell_length_a                   12.012(6)
_cell_length_b                   13.225(7)
_cell_length_c                   14.402(7)
_cell_angle_alpha                99.751(7)
_cell_angle_beta                 110.223(7)
_cell_angle_gamma                106.204(7)
_cell_volume                     1969.81
loop_
_atom_site_label
_atom_site_type_symbol
_atom_site_fract_x
_atom_site_fract_y
_atom_site_fract_z
C1 C -0.0619(4) 0.8208(3) 0.5264(3)
H1 H -0.1321 0.8435 0.5006
C2 C 0.0543(3) 0.8995(3) 0.5924(3)
H2 H 0.0637 0.9748 0.6117
C3 C 0.1581(4) 0.8685(3) 0.6309(3)
C4 C 0.1382(4) 0.7578(3) 0.6001(3)
H3 H 0.2073 0.7334 0.6240
C5 C 0.0192(4) 0.6837(3) 0.5354(3)
H4 H 0.0071 0.6077 0.5173
C6 C 0.2885(3) 0.9528(3) 0.6967(3)
H5 H 0.3465 0.9153 0.7272
H6 H 0.2851 1.0029 0.7543
C7 C 0.3412(4) 1.0197(3) 0.6357(3)
H7 H 0.2853 1.0598 0.6076
H8 H 0.4269 1.0749 0.6824
C8 C 0.2748(4) 0.9180(3) 0.4494(3)
C9 C 0.4194(3) 0.8435(3) 0.4827(3)
C10 C 0.4932(4) 0.7797(3) 0.4606(3)
C11 C 0.5859(4) 0.7660(3) 0.5390(3)
H9 H 0.6000 0.7946 0.6089
C12 C 0.6587(4) 0.7105(3) 0.5161(3)
H10 H 0.7215 0.6997 0.5710
C13 C 0.5512(4) 0.6838(3) 0.3425(3)
H11 H 0.5398 0.6559 0.2732
C14 C 0.4717(3) 0.7346(3) 0.3589(3)
H12 H 0.4043 0.7389 0.3026
C15 C -0.0529(4) 0.6454(3) 0.2922(3)
H13 H -0.0437 0.7196 0.3185
C16 C 0.0197(4) 0.6249(3) 0.2411(3)
H14 H 0.0786 0.6836 0.2326
C17 C 0.0051(4) 0.5169(3) 0.2023(3)
C18 C -0.0793(4) 0.4334(3) 0.2170(3)
H15 H -0.0902 0.3586 0.1913
C19 C -0.1469(4) 0.4611(3) 0.2697(3)
H16 H -0.2044 0.4036 0.2807
C20 C 0.0759(4) 0.4912(3) 0.1428(3)
C21 C 0.2109(4) 0.5254(3) 0.0722(3)
C22 C 0.1588(4) 0.3268(3) -0.0158(3)
H17 H 0.2079 0.3565 -0.0543
H18 H 0.0734 0.2749 -0.0671
C23 C 0.2255(4) 0.2653(3) 0.0486(3)
H19 H 0.1746 0.2334 0.0850
H20 H 0.2302 0.2037 0.0023
C24 C 0.3571(4) 0.3367(3) 0.1266(3)
C25 C 0.3878(4) 0.3593(3) 0.2320(3)
H21 H 0.3262 0.3263 0.2559
C26 C 0.5074(4) 0.4294(3) 0.3013(3)
H22 H 0.5273 0.4424 0.3732
C27 C 0.5681(4) 0.4582(3) 0.1711(3)
H23 H 0.6309 0.4929 0.1490
C28 C 0.4509(3) 0.3871(3) 0.0973(3)
H24 H 0.4345 0.3726 0.0260
Cu1 Cu -0.24221(4) 0.59940(3) 0.38295(3)
N1 N -0.0818(3) 0.7133(2) 0.4962(2)
N2 N 0.3501(3) 0.9495(2) 0.5504(2)
N3 N 0.4424(3) 0.9028(2) 0.5728(2)
N4 N 0.6438(3) 0.6712(2) 0.4186(2)
N5 N -0.1367(3) 0.5649(2) 0.3067(2)
N6 N 0.0599(3) 0.3944(3) 0.0915(2)
N7 N 0.1449(3) 0.4170(2) 0.0471(2)
N8 N 0.5982(3) 0.4809(2) 0.2729(2)
N9 N -0.2433(3) 0.4513(3) 0.5325(3)
O1 O 0.3215(2) 0.84979(19) 0.40484(19)
O2 O 0.1647(3) 0.5744(2) 0.1352(2)
O3 O -0.2129(3) 0.4670(2) 0.4586(2)
O4 O -0.2311(3) 0.3730(2) 0.5648(2)
O5 O -0.2904(5) 0.5104(3) 0.5668(3)
S1 S 0.15509(10) 0.94974(8) 0.38462(8)
S2 S 0.32176(11) 0.59376(9) 0.04184(9)
Cu1_2 Cu 0.75779(4) 0.59940(3) 0.38295(3)
N4_2 N -0.3562(3) 0.6712(2) 0.4186(2)
N8_2 N -0.4018(3) 0.4809(2) 0.2729(2)
C29 C 0.4048(5) 0.8284(4) -0.0570(4)
C30 C 0.5098(5) 0.8611(4) 0.0424(4)
H25 H 0.5553 0.9410 0.0639
H26 H 0.5680 0.8233 0.0377
H27 H 0.4777 0.8414 0.0934
N10 N 0.3232(5) 0.8035(4) -0.1342(4)
C31 C 0.2757(5) 0.9767(4) 0.1943(4)
H28 H 0.3188 0.9932 0.2704
H29 H 0.1931 0.9869 0.1777
Cl1 Cl 0.24799(17) 0.83986(10) 0.13530(11)
Cl2 Cl 0.36992(14) 1.06891(10) 0.15306(11)
C32 C 0.933(2) 0.0860(13) 0.1436(17)
H30 H 0.8608 0.1059 0.1052
H31 H 0.9044 0.0345 0.1802
Cl3 Cl 1.0581(3) 0.2049(3) 0.2343(2)
Cl4 Cl 0.9810(3) 0.0205(2) 0.0557(2)
N11 N 0.7546(3) 0.7875(2) 0.2167(2)
O6 O 0.7940(3) 0.8094(2) 0.3124(2)
O7 O 0.6784(3) 0.6944(2) 0.1613(2)
O8 O 0.7936(4) 0.8580(2) 0.1786(2)
C33? C 0.887(2) 0.085(2) 0.127(2)
H32? H 0.8502 0.0116 0.1338
H33? H 0.8706 0.0786 0.0546
H34? H 0.8485 0.1339 0.1512
C34? C 1.0259(13) 0.1299(8) 0.1908(8)
N12? N 1.1293(9) 0.1598(7) 0.2420(6)
loop_
_geom_bond_atom_site_label_1
_geom_bond_atom_site_label_2
_geom_bond_site_symmetry_1
_geom_bond_site_symmetry_2
C1 H1 1_555 1_555
C2 C1 1_555 1_555
H2 C2 1_555 1_555
C3 C2 1_555 1_555
C4 C3 1_555 1_555
H3 C4 1_555 1_555
C5 C4 1_555 1_555
H4 C5 1_555 1_555
C6 C3 1_555 1_555
H5 C6 1_555 1_555
H6 C6 1_555 1_555
C7 C6 1_555 1_555
H7 C7 1_555 1_555
H8 C7 1_555 1_555
C8 N2 1_555 1_555
C9 C10 1_555 1_555
C10 C11 1_555 1_555
C11 H9 1_555 1_555
C12 C11 1_555 1_555
H10 C12 1_555 1_555
C13 H11 1_555 1_555
C14 C10 1_555 1_555
H12 C14 1_555 1_555
C15 H13 1_555 1_555
C16 C15 1_555 1_555
H14 C16 1_555 1_555
C17 C16 1_555 1_555
C18 C17 1_555 1_555
H15 C18 1_555 1_555
C19 C18 1_555 1_555
H16 C19 1_555 1_555
C20 C17 1_555 1_555
C21 N7 1_555 1_555
C22 H17 1_555 1_555
H18 C22 1_555 1_555
C23 C22 1_555 1_555
H19 C23 1_555 1_555
H20 C23 1_555 1_555
C24 C23 1_555 1_555
C25 C24 1_555 1_555
H21 C25 1_555 1_555
C26 C25 1_555 1_555
H22 C26 1_555 1_555
C27 H23 1_555 1_555
C28 C24 1_555 1_555
H24 C28 1_555 1_555
Cu1 N1 1_555 1_555
N1 C1 1_555 1_555
N2 C7 1_555 1_555
N3 C9 1_555 1_555
N4 C12 1_555 1_555
N5 C15 1_555 1_555
N6 C20 1_555 1_555
N7 C22 1_555 1_555
N8 C26 1_555 1_555
N9 O3 1_555 1_555
O1 C8 1_555 1_555
O2 C20 1_555 1_555
O3 Cu1 1_555 1_555
O4 N9 1_555 1_555
O5 N9 1_555 1_555
S1 C8 1_555 1_555
S2 C21 1_555 1_555
C29 C30 1_555 1_555
C30 H25 1_555 1_555
H26 C30 1_555 1_555
H27 C30 1_555 1_555
N10 C29 1_555 1_555
C31 H28 1_555 1_555
H29 C31 1_555 1_555
Cl1 C31 1_555 1_555
Cl2 C31 1_555 1_555
C32 H30 1_555 1_555
H31 C32 1_555 1_555
Cl3 C32 1_555 1_555
Cl4 C32 1_555 1_555
N11 O6 1_555 1_555
O7 N11 1_555 1_555
O8 N11 1_555 1_555
Cu1_2 N4 1_555 1_555
N4_2 Cu1 1_555 1_555
N8_2 Cu1 1_555 1_555
C5 N1 1_555 1_555
C9 O1 1_555 1_555
C13 C14 1_555 1_555
C13 N4 1_555 1_555
C19 N5 1_555 1_555
C21 O2 1_555 1_555
C27 C28 1_555 1_555
C27 N8 1_555 1_555
Cu1 N5 1_555 1_555
N2 N3 1_555 1_555
N6 N7 1_555 1_555
N8 Cu1_2 1_555 1_555

#END
