
#######################################################################
#
#                 Cambridge Crystallographic Data Centre
#                                CCDC 
#
#######################################################################
#
# If this CIF has been generated from an entry in the Cambridge 
# Structural Database, then it will include bibliographic, chemical, 
# crystal, experimental, refinement or atomic coordinate data resulting 
# from the CCDC's data processing and validation procedures.
#
#######################################################################

data_ZINXOL
_symmetry_cell_setting           monoclinic
_symmetry_space_group_name_H-M   'P 21/c'
_symmetry_Int_Tables_number      14
_space_group_name_Hall           '-P 2ybc'
loop_
_symmetry_equiv_pos_site_id
_symmetry_equiv_pos_as_xyz
1 x,y,z
2 -x,1/2+y,1/2-z
3 -x,-y,-z
4 x,1/2-y,1/2+z
_cell_length_a                   9.4006(9)
_cell_length_b                   27.461(3)
_cell_length_c                   9.5349(9)
_cell_angle_alpha                90
_cell_angle_beta                 105.9870(10)
_cell_angle_gamma                90
_cell_volume                     2366.24
loop_
_atom_site_label
_atom_site_type_symbol
_atom_site_fract_x
_atom_site_fract_y
_atom_site_fract_z
C1 C 0.6613(3) 0.12837(11) 0.4701(3)
C2 C 0.6926(3) 0.17228(11) 0.4059(3)
C3 C 0.8314(3) 0.19522(11) 0.4725(3)
C4 C 0.8992(3) 0.13549(10) 0.6497(3)
C5 C 0.7634(3) 0.11086(11) 0.5910(3)
H1 H 0.7430 0.0818 0.6362
C6 C 0.5151(3) 0.10155(12) 0.4104(3)
C7 C 0.5962(3) 0.19405(12) 0.2805(3)
H2 H 0.5060 0.1783 0.2324
C8 C 0.6315(4) 0.23733(12) 0.2281(4)
H3 H 0.5655 0.2517 0.1447
C9 C 0.7653(4) 0.26060(13) 0.2976(4)
H4 H 0.7881 0.2911 0.2619
C10 C 0.8631(4) 0.24003(12) 0.4154(4)
H5 H 0.9538 0.2561 0.4598
C11 C 1.0075(3) 0.11691(12) 0.7843(3)
C12 C 1.0138(3) 0.06776(13) 0.8220(4)
H6 H 0.9505 0.0451 0.7594
C13 C 1.1123(4) 0.05178(14) 0.9506(4)
H7 H 1.1158 0.0182 0.9750
C14 C 1.2051(4) 0.08406(15) 1.0435(4)
H8 H 1.2720 0.0729 1.1315
C15 C 1.1996(3) 0.13277(15) 1.0068(3)
H9 H 1.2634 0.1552 1.0701
C16 C 1.1028(3) 0.14938(13) 0.8796(3)
H10 H 1.1005 0.1830 0.8561
C17 C -0.0046(3) 0.13603(12) 0.2579(3)
H11 H 0.0636 0.1623 0.2743
C18 C -0.1241(3) 0.13736(12) 0.1351(3)
H12 H -0.1374 0.1643 0.0702
C19 C -0.2250(3) 0.09890(12) 0.1071(3)
C20 C -0.1989(3) 0.06115(12) 0.2080(3)
H13 H -0.2645 0.0342 0.1942
C21 C -0.0781(4) 0.06300(12) 0.3276(3)
H14 H -0.0628 0.0368 0.3952
C22 C -0.5273(4) 0.05631(12) -0.2163(3)
H15 H -0.5607 0.0265 -0.2646
C23 C -0.4070(3) 0.05535(12) -0.0952(3)
H16 H -0.3603 0.0253 -0.0607
C24 C -0.3538(3) 0.09850(12) -0.0234(3)
C25 C -0.4279(3) 0.14116(12) -0.0803(3)
H17 H -0.3950 0.1717 -0.0363
C26 C -0.5487(3) 0.13882(13) -0.2002(3)
H18 H -0.5986 0.1683 -0.2358
N1 N 0.0200(3) 0.09981(9) 0.3546(3)
N2 N -0.6000(3) 0.09750(10) -0.2698(3)
N3 N 0.9327(3) 0.17626(9) 0.5915(3)
O1 O 0.3988(2) 0.12609(8) 0.3870(2)
O2 O 0.5224(2) 0.05672(8) 0.3900(3)
O3 O 0.2746(2) 0.00869(9) 0.4363(3)
H19 H 0.3308 0.0250 0.3982
H20 H 0.3277 -0.0112 0.4968
Ag1 Ag 0.21896(2) 0.096573(10) 0.53296(3)
N2_2 N 0.4000(3) 0.09750(10) 0.7302(3)
Ag1_2 Ag -0.78104(2) 0.096573(10) -0.46704(3)
O4 O 1.2085(3) 0.23329(9) 0.6600(2)
H21 H 1.1397 0.2129 0.6506
H22 H 1.2376 0.2340 0.5843
O5 O 0.3189(3) 0.22196(10) 0.4276(3)
H23 H 0.2826 0.2330 0.3420
H24 H 0.3271 0.1912 0.4218
loop_
_geom_bond_atom_site_label_1
_geom_bond_atom_site_label_2
_geom_bond_site_symmetry_1
_geom_bond_site_symmetry_2
C1 C2 1_555 1_555
C2 C3 1_555 1_555
C3 C10 1_555 1_555
C4 C5 1_555 1_555
C5 C1 1_555 1_555
H1 C5 1_555 1_555
C6 C1 1_555 1_555
C7 C2 1_555 1_555
H2 C7 1_555 1_555
C8 C7 1_555 1_555
H3 C8 1_555 1_555
C9 C8 1_555 1_555
H4 C9 1_555 1_555
C10 C9 1_555 1_555
H5 C10 1_555 1_555
C11 C4 1_555 1_555
C12 C11 1_555 1_555
H6 C12 1_555 1_555
C13 C12 1_555 1_555
H7 C13 1_555 1_555
C14 C13 1_555 1_555
H8 C14 1_555 1_555
C15 C14 1_555 1_555
H9 C15 1_555 1_555
C16 C11 1_555 1_555
H10 C16 1_555 1_555
C17 H11 1_555 1_555
C18 C17 1_555 1_555
H12 C18 1_555 1_555
C19 C18 1_555 1_555
C20 C19 1_555 1_555
H13 C20 1_555 1_555
C21 C20 1_555 1_555
H14 C21 1_555 1_555
C22 H15 1_555 1_555
C23 C22 1_555 1_555
H16 C23 1_555 1_555
C24 C19 1_555 1_555
C25 C24 1_555 1_555
H17 C25 1_555 1_555
C26 C25 1_555 1_555
H18 C26 1_555 1_555
N1 C17 1_555 1_555
N2 C22 1_555 1_555
N3 C3 1_555 1_555
O1 C6 1_555 1_555
O2 C6 1_555 1_555
O3 H19 1_555 1_555
H20 O3 1_555 1_555
Ag1 N1 1_555 1_555
O4 H21 1_555 1_555
H22 O4 1_555 1_555
O5 H23 1_555 1_555
H24 O5 1_555 1_555
N2_2 Ag1 1_555 1_555
Ag1_2 N2 1_555 1_555
C4 N3 1_555 1_555
C15 C16 1_555 1_555
C21 N1 1_555 1_555
C23 C24 1_555 1_555
C26 N2 1_555 1_555
O1 Ag1 1_555 1_555
O3 Ag1 1_555 1_555

#END
