
#######################################################################
#
#                 Cambridge Crystallographic Data Centre
#                                CCDC 
#
#######################################################################
#
# If this CIF has been generated from an entry in the Cambridge 
# Structural Database, then it will include bibliographic, chemical, 
# crystal, experimental, refinement or atomic coordinate data resulting 
# from the CCDC's data processing and validation procedures.
#
#######################################################################

data_ZINYIG
_symmetry_cell_setting           monoclinic
_symmetry_space_group_name_H-M   'P 21/c'
_symmetry_Int_Tables_number      14
_space_group_name_Hall           '-P 2ybc'
loop_
_symmetry_equiv_pos_site_id
_symmetry_equiv_pos_as_xyz
1 x,y,z
2 -x,1/2+y,1/2-z
3 -x,-y,-z
4 x,1/2-y,1/2+z
_cell_length_a                   11.066(3)
_cell_length_b                   9.708(2)
_cell_length_c                   21.717(6)
_cell_angle_alpha                90
_cell_angle_beta                 104.42(3)
_cell_angle_gamma                90
_cell_volume                     2259.53
loop_
_atom_site_label
_atom_site_type_symbol
_atom_site_fract_x
_atom_site_fract_y
_atom_site_fract_z
Zn1 Zn 0.29752(5) 0.36481(6) 0.09893(3)
N1 N 0.1661(4) 0.5253(4) 0.10675(19)
N2 N 0.0326(3) 0.6874(4) 0.0577(2)
H1 H -0.0071 0.7417 0.0283
N3 N 0.2613(3) 0.4742(4) 0.00976(19)
N4 N 0.4268(3) 0.2768(4) 0.04703(19)
N5 N 0.4988(4) 0.2791(4) -0.0402(2)
H2 H 0.5063 0.3014 -0.0774
N6 N 0.3019(4) 0.2062(4) 0.1672(2)
O1 O 0.1419(3) 0.2274(4) 0.05410(17)
O2 O 0.0347(4) 0.0458(4) 0.0752(2)
O3 O 0.5511(3) -0.0518(4) 0.33622(17)
O4 O 0.5515(4) 0.1742(4) 0.34483(18)
C1 C 0.1008(4) 0.5760(5) 0.1489(2)
C2 C 0.1104(5) 0.5416(6) 0.2121(3)
H3 H 0.1680 0.4765 0.2328
C3 C 0.0319(6) 0.6069(6) 0.2431(3)
H4 H 0.0358 0.5848 0.2852
C4 C -0.0532(6) 0.7057(6) 0.2121(3)
H5 H -0.1056 0.7470 0.2342
C5 C -0.0624(5) 0.7440(6) 0.1505(3)
H6 H -0.1184 0.8113 0.1306
C6 C 0.0173(5) 0.6766(5) 0.1189(3)
C7 C 0.1223(4) 0.5957(5) 0.0533(2)
C8 C 0.1732(4) 0.5710(5) -0.0025(2)
C9 C 0.1413(5) 0.6396(5) -0.0601(3)
H7 H 0.0806 0.7081 -0.0678
C10 C 0.2028(5) 0.6027(5) -0.1060(3)
H8 H 0.1830 0.6460 -0.1454
C11 C 0.2938(5) 0.5013(5) -0.0931(3)
H9 H 0.3355 0.4764 -0.1237
C12 C 0.3219(4) 0.4377(5) -0.0343(2)
C13 C 0.4145(4) 0.3308(5) -0.0102(2)
C14 C 0.5701(5) 0.1834(5) 0.0006(3)
C15 C 0.6698(5) 0.1015(5) -0.0056(3)
H10 H 0.6992 0.1023 -0.0421
C16 C 0.7222(5) 0.0191(6) 0.0459(3)
H11 H 0.7888 -0.0378 0.0440
C17 C 0.6785(5) 0.0187(6) 0.1002(3)
H12 H 0.7176 -0.0375 0.1340
C18 C 0.5787(5) 0.0990(6) 0.1062(3)
H13 H 0.5494 0.0967 0.1428
C19 C 0.5245(4) 0.1829(5) 0.0552(3)
C20 C 0.2266(5) 0.0999(5) 0.1469(3)
C21 C 0.2401(5) -0.0256(6) 0.1796(3)
H14 H 0.1859 -0.0982 0.1647
C22 C 0.3348(5) -0.0406(5) 0.2343(3)
H15 H 0.3472 -0.1246 0.2555
C23 C 0.4117(5) 0.0714(5) 0.2573(2)
C24 C 0.3902(5) 0.1929(5) 0.2225(2)
H16 H 0.4392 0.2692 0.2380
C25 C 0.1267(5) 0.1253(6) 0.0867(3)
C26 C 0.5188(5) 0.0612(6) 0.3191(2)
Zn1A Zn 0.70248(5) -0.13519(6) 0.40107(3)
O3A O 0.4489(3) 0.4482(4) 0.16378(17)
loop_
_geom_bond_atom_site_label_1
_geom_bond_atom_site_label_2
_geom_bond_site_symmetry_1
_geom_bond_site_symmetry_2
Zn1 N1 1_555 1_555
N1 C1 1_555 1_555
N2 H1 1_555 1_555
N3 Zn1 1_555 1_555
N4 Zn1 1_555 1_555
N5 H2 1_555 1_555
N6 Zn1 1_555 1_555
O1 Zn1 1_555 1_555
O2 C25 1_555 1_555
O3 C26 1_555 1_555
O4 C26 1_555 1_555
C1 C2 1_555 1_555
C2 H3 1_555 1_555
C3 C2 1_555 1_555
H4 C3 1_555 1_555
C4 C3 1_555 1_555
H5 C4 1_555 1_555
C5 C4 1_555 1_555
H6 C5 1_555 1_555
C6 N2 1_555 1_555
C7 N1 1_555 1_555
C8 N3 1_555 1_555
C9 C8 1_555 1_555
H7 C9 1_555 1_555
C10 C9 1_555 1_555
H8 C10 1_555 1_555
C11 C10 1_555 1_555
H9 C11 1_555 1_555
C12 N3 1_555 1_555
C13 N4 1_555 1_555
C14 N5 1_555 1_555
C15 C14 1_555 1_555
H10 C15 1_555 1_555
C16 C15 1_555 1_555
H11 C16 1_555 1_555
C17 C16 1_555 1_555
H12 C17 1_555 1_555
C18 C17 1_555 1_555
H13 C18 1_555 1_555
C19 N4 1_555 1_555
C20 N6 1_555 1_555
C21 C20 1_555 1_555
H14 C21 1_555 1_555
C22 C21 1_555 1_555
H15 C22 1_555 1_555
C23 C22 1_555 1_555
C24 N6 1_555 1_555
H16 C24 1_555 1_555
C25 O1 1_555 1_555
C26 C23 1_555 1_555
Zn1A O3 1_555 1_555
O3A Zn1 1_555 1_555
N2 C7 1_555 1_555
N5 C13 1_555 1_555
C1 C6 1_555 1_555
C5 C6 1_555 1_555
C7 C8 1_555 1_555
C11 C12 1_555 1_555
C12 C13 1_555 1_555
C14 C19 1_555 1_555
C18 C19 1_555 1_555
C20 C25 1_555 1_555
C23 C24 1_555 1_555

#END
