
#######################################################################
#
#                 Cambridge Crystallographic Data Centre
#                                CCDC 
#
#######################################################################
#
# If this CIF has been generated from an entry in the Cambridge 
# Structural Database, then it will include bibliographic, chemical, 
# crystal, experimental, refinement or atomic coordinate data resulting 
# from the CCDC's data processing and validation procedures.
#
#######################################################################

data_ZINYEC
_symmetry_cell_setting           monoclinic
_symmetry_space_group_name_H-M   'C c'
_symmetry_Int_Tables_number      9
_space_group_name_Hall           'C -2yc'
loop_
_symmetry_equiv_pos_site_id
_symmetry_equiv_pos_as_xyz
1 x,y,z
2 x,-y,1/2+z
3 1/2+x,1/2+y,z
4 1/2+x,1/2-y,1/2+z
_cell_length_a                   8.3782(6)
_cell_length_b                   18.1569(19)
_cell_length_c                   14.7588(15)
_cell_angle_alpha                90
_cell_angle_beta                 101.309(8)
_cell_angle_gamma                90
_cell_volume                     2201.55
loop_
_atom_site_label
_atom_site_type_symbol
_atom_site_fract_x
_atom_site_fract_y
_atom_site_fract_z
Zn1 Zn 0.60568(5) 0.29903(3) 0.72505(4)
N1 N 0.4548(4) 0.3858(2) 0.7702(3)
N2 N 0.4439(4) 0.4842(2) 0.8584(3)
H1 H 0.4740 0.5173 0.9000
N3 N 0.7651(4) 0.3591(2) 0.8306(3)
N4 N 0.8305(4) 0.2421(2) 0.7415(3)
N5 N 1.0853(4) 0.2286(2) 0.8186(3)
H2 H 1.1753 0.2376 0.8563
N6 N 0.4329(4) 0.2641(2) 0.6107(3)
O1 O 0.6534(3) 0.37063(19) 0.6201(2)
O2 O 0.5524(4) 0.4078(2) 0.4771(3)
O3 O 0.0153(3) 0.27838(18) 0.3166(2)
O4 O -0.1218(3) 0.2410(2) 0.4235(2)
C1 C 0.2988(5) 0.4152(3) 0.7488(3)
C2 C 0.1635(5) 0.3925(3) 0.6842(4)
H3 H 0.1674 0.3506 0.6485
C3 C 0.0250(6) 0.4338(3) 0.6748(4)
H4 H -0.0675 0.4195 0.6328
C4 C 0.0207(6) 0.4972(3) 0.7274(4)
H5 H -0.0742 0.5251 0.7177
C5 C 0.1512(5) 0.5203(3) 0.7932(4)
H6 H 0.1462 0.5622 0.8287
C6 C 0.2916(5) 0.4770(3) 0.8032(3)
C7 C 0.5356(5) 0.4300(3) 0.8347(3)
C8 C 0.7095(5) 0.4165(2) 0.8708(3)
C9 C 0.8119(5) 0.4569(3) 0.9397(3)
H7 H 0.7735 0.4968 0.9685
C10 C 0.9725(5) 0.4346(3) 0.9629(4)
H8 H 1.0443 0.4611 1.0072
C11 C 1.0288(5) 0.3743(3) 0.9222(3)
H9 H 1.1366 0.3591 0.9391
C12 C 0.9192(5) 0.3370(3) 0.8551(3)
C13 C 0.9475(5) 0.2711(2) 0.8047(3)
C14 C 1.0517(5) 0.1684(3) 0.7601(3)
C15 C 1.1439(5) 0.1073(3) 0.7470(4)
H10 H 1.2483 0.1003 0.7814
C16 C 1.0740(6) 0.0576(3) 0.6807(4)
H11 H 1.1328 0.0163 0.6693
C17 C 0.9168(5) 0.0679(3) 0.6306(4)
H12 H 0.8736 0.0337 0.5855
C18 C 0.8231(6) 0.1273(3) 0.6456(3)
H13 H 0.7170 0.1329 0.6130
C19 C 0.8935(5) 0.1785(2) 0.7115(3)
C20 C 0.4189(5) 0.3103(2) 0.5385(3)
C21 C 0.2852(5) 0.3078(3) 0.4668(3)
H14 H 0.2799 0.3389 0.4162
C22 C 0.1590(5) 0.2592(3) 0.4699(3)
C23 C 0.1773(5) 0.2114(3) 0.5445(3)
H15 H 0.0964 0.1774 0.5492
C24 C 0.3173(5) 0.2151(3) 0.6117(3)
H16 H 0.3307 0.1814 0.6600
C25 C 0.5538(5) 0.3679(3) 0.5454(4)
C26 C 0.0043(5) 0.2595(3) 0.3963(3)
Zn1C Zn 0.10568(5) 0.20097(3) 0.22505(4)
O3C O 0.5153(3) 0.22162(18) 0.8166(2)
loop_
_geom_bond_atom_site_label_1
_geom_bond_atom_site_label_2
_geom_bond_site_symmetry_1
_geom_bond_site_symmetry_2
Zn1 N1 1_555 1_555
N1 C1 1_555 1_555
N2 H1 1_555 1_555
N3 Zn1 1_555 1_555
N4 Zn1 1_555 1_555
N5 H2 1_555 1_555
N6 Zn1 1_555 1_555
O1 Zn1 1_555 1_555
O2 C25 1_555 1_555
O3 C26 1_555 1_555
O4 C26 1_555 1_555
C1 C2 1_555 1_555
C2 H3 1_555 1_555
C3 C2 1_555 1_555
H4 C3 1_555 1_555
C4 C3 1_555 1_555
H5 C4 1_555 1_555
C5 C4 1_555 1_555
H6 C5 1_555 1_555
C6 N2 1_555 1_555
C7 N1 1_555 1_555
C8 N3 1_555 1_555
C9 C8 1_555 1_555
H7 C9 1_555 1_555
C10 C9 1_555 1_555
H8 C10 1_555 1_555
C11 C10 1_555 1_555
H9 C11 1_555 1_555
C12 N3 1_555 1_555
C13 N4 1_555 1_555
C14 N5 1_555 1_555
C15 C14 1_555 1_555
H10 C15 1_555 1_555
C16 C15 1_555 1_555
H11 C16 1_555 1_555
C17 C16 1_555 1_555
H12 C17 1_555 1_555
C18 C17 1_555 1_555
H13 C18 1_555 1_555
C19 N4 1_555 1_555
C20 N6 1_555 1_555
C21 C20 1_555 1_555
H14 C21 1_555 1_555
C22 C21 1_555 1_555
C23 C22 1_555 1_555
H15 C23 1_555 1_555
C24 N6 1_555 1_555
H16 C24 1_555 1_555
C25 O1 1_555 1_555
C26 C22 1_555 1_555
Zn1C O3 1_555 1_555
O3C Zn1 1_555 1_555
N2 C7 1_555 1_555
N5 C13 1_555 1_555
C1 C6 1_555 1_555
C5 C6 1_555 1_555
C7 C8 1_555 1_555
C11 C12 1_555 1_555
C12 C13 1_555 1_555
C14 C19 1_555 1_555
C18 C19 1_555 1_555
C20 C25 1_555 1_555
C23 C24 1_555 1_555

#END
