
#######################################################################
#
#                 Cambridge Crystallographic Data Centre
#                                CCDC 
#
#######################################################################
#
# If this CIF has been generated from an entry in the Cambridge 
# Structural Database, then it will include bibliographic, chemical, 
# crystal, experimental, refinement or atomic coordinate data resulting 
# from the CCDC's data processing and validation procedures.
#
#######################################################################

data_ZIPMUI
_symmetry_cell_setting           monoclinic
_symmetry_space_group_name_H-M   'C 2/c'
_symmetry_Int_Tables_number      15
_space_group_name_Hall           '-C 2yn'
loop_
_symmetry_equiv_pos_site_id
_symmetry_equiv_pos_as_xyz
1 x,y,z
2 -x,y,1/2-z
3 1/2+x,1/2+y,z
4 1/2-x,1/2+y,1/2-z
5 -x,-y,-z
6 x,-y,1/2+z
7 1/2-x,1/2-y,-z
8 1/2+x,1/2-y,1/2+z
_cell_length_a                   24.937(5)
_cell_length_b                   13.211(3)
_cell_length_c                   8.8480(19)
_cell_angle_alpha                90
_cell_angle_beta                 94.189(3)
_cell_angle_gamma                90
_cell_volume                     2907.12
loop_
_atom_site_label
_atom_site_type_symbol
_atom_site_fract_x
_atom_site_fract_y
_atom_site_fract_z
Rh1 Rh 0.288236(18) 0.71762(3) 0.07489(5)
N1 N 0.35758(17) 0.6541(3) 0.2225(4)
O1 O 0.25416(15) 0.5788(3) 0.0533(4)
O2 O 0.18223(15) 0.6394(3) -0.0864(4)
O3 O 0.32410(14) 0.6951(3) -0.1219(4)
O4 O 0.25205(16) 0.7548(2) -0.2611(4)
C1 C 0.2091(2) 0.5698(4) -0.0223(6)
C2 C 0.1869(3) 0.4636(4) -0.0342(7)
H1 H 0.1517 0.4650 -0.0856
H2 H 0.1848 0.4360 0.0656
H3 H 0.2102 0.4223 -0.0902
C3 C 0.2983(2) 0.7167(4) -0.2466(6)
C4 C 0.3255(3) 0.6939(4) -0.3885(6)
H4 H 0.3023 0.7129 -0.4752
H5 H 0.3332 0.6228 -0.3928
H6 H 0.3585 0.7315 -0.3881
C5 C 0.3541(2) 0.5631(4) 0.2810(6)
H7 H 0.3240 0.5241 0.2521
C6 C 0.3925(2) 0.5228(4) 0.3825(6)
H8 H 0.3880 0.4583 0.4215
C7 C 0.4374(2) 0.5776(4) 0.4261(5)
C8 C 0.4415(2) 0.6722(4) 0.3649(6)
H9 H 0.4712 0.7125 0.3919
C9 C 0.4012(2) 0.7077(4) 0.2627(6)
H10 H 0.4048 0.7717 0.2207
C10 C 0.4813(2) 0.5352(4) 0.5365(6)
H11 H 0.5018 0.5909 0.5826
H12 H 0.4647 0.4992 0.6165
N1D N 0.64242(17) 0.3459(3) 0.7775(4)
C5D C 0.6459(2) 0.4369(4) 0.7190(6)
H7D H 0.6760 0.4759 0.7479
C6D C 0.6075(2) 0.4772(4) 0.6175(6)
H8D H 0.6120 0.5417 0.5785
C7D C 0.5626(2) 0.4224(4) 0.5739(5)
C8D C 0.5585(2) 0.3278(4) 0.6351(6)
H9D H 0.5288 0.2875 0.6081
C9D C 0.5988(2) 0.2923(4) 0.7373(6)
H10D H 0.5952 0.2283 0.7793
C10D C 0.5187(2) 0.4648(4) 0.4635(6)
H11D H 0.4982 0.4091 0.4174
H12D H 0.5353 0.5008 0.3835
Rh1D Rh 0.711764(18) 0.28238(3) 0.92511(5)
O1D O 0.74584(15) 0.4212(3) 0.9467(4)
O2D O 0.81777(15) 0.3606(3) 1.0864(4)
O3D O 0.67590(14) 0.3049(3) 1.1219(4)
O4D O 0.74795(16) 0.2452(2) 1.2611(4)
C1D C 0.7909(2) 0.4302(4) 1.0223(6)
C2D C 0.8131(3) 0.5364(4) 1.0342(7)
H1D H 0.8483 0.5350 1.0856
H2D H 0.8152 0.5640 0.9344
H3D H 0.7898 0.5777 1.0902
C3D C 0.7017(2) 0.2833(4) 1.2466(6)
C4D C 0.6745(3) 0.3061(4) 1.3885(6)
H4D H 0.6977 0.2871 1.4752
H5D H 0.6668 0.3772 1.3928
H6D H 0.6415 0.2685 1.3881
Rh1B Rh 0.788236(18) 0.21762(3) 1.07489(5)
Rh1F Rh 0.211764(18) 0.78238(3) -0.07489(5)
O2B O 0.68223(15) 0.1394(3) 0.9136(4)
O2F O 0.31777(15) 0.8606(3) 0.0864(4)
O4B O 0.75205(16) 0.2548(2) 0.7389(4)
O4F O 0.24795(16) 0.7452(2) 0.2611(4)
O5 O 0.5605(10) 0.788(3) 0.608(3)
O6? O 0.543(3) 0.905(5) 0.554(9)
O7? O 0.534(2) 0.826(4) 0.707(6)
O8? O 0.513(3) 0.949(6) 0.688(7)
loop_
_geom_bond_atom_site_label_1
_geom_bond_atom_site_label_2
_geom_bond_site_symmetry_1
_geom_bond_site_symmetry_2
Rh1 N1 1_555 1_555
N1 C5 1_555 1_555
O1 Rh1 1_555 1_555
O2 C1 1_555 1_555
O3 Rh1 1_555 1_555
O4 C3 1_555 1_555
C1 O1 1_555 1_555
C2 C1 1_555 1_555
H1 C2 1_555 1_555
H2 C2 1_555 1_555
H3 C2 1_555 1_555
C3 O3 1_555 1_555
C4 C3 1_555 1_555
H4 C4 1_555 1_555
H5 C4 1_555 1_555
H6 C4 1_555 1_555
C5 H7 1_555 1_555
C6 C5 1_555 1_555
H8 C6 1_555 1_555
C7 C6 1_555 1_555
C8 C7 1_555 1_555
H9 C8 1_555 1_555
C9 N1 1_555 1_555
H10 C9 1_555 1_555
C10 C7 1_555 1_555
H11 C10 1_555 1_555
H12 C10 1_555 1_555
N1D C5D 1_555 1_555
C5D H7D 1_555 1_555
C6D C5D 1_555 1_555
H8D C6D 1_555 1_555
C7D C6D 1_555 1_555
C8D C7D 1_555 1_555
H9D C8D 1_555 1_555
C9D N1D 1_555 1_555
H10D C9D 1_555 1_555
C10D C10 1_555 1_555
H11D C10D 1_555 1_555
H12D C10D 1_555 1_555
Rh1D N1D 1_555 1_555
O1D Rh1D 1_555 1_555
O2D C1D 1_555 1_555
O3D Rh1D 1_555 1_555
O4D C3D 1_555 1_555
C1D O1D 1_555 1_555
C2D C1D 1_555 1_555
H1D C2D 1_555 1_555
H2D C2D 1_555 1_555
H3D C2D 1_555 1_555
C3D O3D 1_555 1_555
C4D C3D 1_555 1_555
H4D C4D 1_555 1_555
H5D C4D 1_555 1_555
H6D C4D 1_555 1_555
Rh1B Rh1D 1_555 1_555
Rh1F Rh1 1_555 1_555
O2B Rh1D 1_555 1_555
O2F Rh1 1_555 1_555
O4B Rh1D 1_555 1_555
O4F Rh1 1_555 1_555
O2 Rh1F 1_555 1_555
O4 Rh1F 1_555 1_555
C8 C9 1_555 1_555
C7D C10D 1_555 1_555
C8D C9D 1_555 1_555
O2D Rh1B 1_555 1_555
O4D Rh1B 1_555 1_555

#END
