
#######################################################################
#
#                 Cambridge Crystallographic Data Centre
#                                CCDC 
#
#######################################################################
#
# If this CIF has been generated from an entry in the Cambridge 
# Structural Database, then it will include bibliographic, chemical, 
# crystal, experimental, refinement or atomic coordinate data resulting 
# from the CCDC's data processing and validation procedures.
#
#######################################################################

data_ZIPPEV
_symmetry_cell_setting           triclinic
_symmetry_space_group_name_H-M   'P -1'
_symmetry_Int_Tables_number      2
_space_group_name_Hall           '-P 1'
loop_
_symmetry_equiv_pos_site_id
_symmetry_equiv_pos_as_xyz
1 x,y,z
2 -x,-y,-z
_cell_length_a                   7.8313(12)
_cell_length_b                   8.5393(13)
_cell_length_c                   9.9498(14)
_cell_angle_alpha                73.412(3)
_cell_angle_beta                 68.894(2)
_cell_angle_gamma                73.198(3)
_cell_volume                     581.858
loop_
_atom_site_label
_atom_site_type_symbol
_atom_site_fract_x
_atom_site_fract_y
_atom_site_fract_z
Mo1 Mo -0.11819(3) 0.07476(3) 0.06024(3)
O1 O -0.0024(3) 0.0254(3) 0.2343(2)
O2 O 0.0003(3) 0.2891(3) -0.0321(2)
N1 N -0.4315(4) 0.2313(3) 0.2179(3)
O3 O -0.2471(3) 0.1330(3) -0.1068(2)
O4 O -0.2509(3) -0.1327(3) 0.1612(2)
C1 C 0.1602(4) -0.0648(4) 0.2179(3)
C2 C 0.1646(5) 0.2701(4) -0.1215(3)
C3 C -0.5683(5) 0.3209(5) 0.1643(4)
C4 C -0.4732(5) 0.2049(5) 0.3633(4)
C5 C 0.2565(5) -0.0918(5) 0.3298(4)
C6 C 0.2593(5) 0.4152(5) -0.1835(4)
H1 H -0.5450 0.3422 0.0630
C7 C -0.7441(6) 0.3854(6) 0.2485(5)
C8 C -0.6447(5) 0.2621(5) 0.4536(4)
H2 H -0.3796 0.1437 0.4059
H3 H 0.1761 -0.0334 0.4068
H4 H 0.3701 -0.0504 0.2841
H5 H 0.2855 -0.2091 0.3707
H6 H 0.1781 0.5101 -0.1438
H7 H 0.2877 0.4415 -0.2887
H8 H 0.3731 0.3872 -0.1579
H9 H -0.8340 0.4513 0.2037
C9 C -0.7857(5) 0.3524(5) 0.3973(4)
H10 H -0.6652 0.2389 0.5547
C10 C -0.9820(6) 0.4115(5) 0.4990(5)
H11 H -1.0751 0.3925 0.4657
H12 H -0.9936 0.3464 0.5981
Mo1A Mo 0.11819(3) -0.07476(3) -0.06024(3)
O3A O 0.2471(3) -0.1330(3) 0.1068(2)
O4A O 0.2509(3) 0.1327(3) -0.1612(2)
O2A O -0.0003(3) -0.2891(3) 0.0321(2)
N1A N 0.4315(4) -0.2313(3) -0.2179(3)
O1A O 0.0024(3) -0.0254(3) -0.2343(2)
C1A C -0.1602(4) 0.0648(4) -0.2179(3)
C2A C -0.1646(5) -0.2701(4) 0.1215(3)
C5A C -0.2565(5) 0.0918(5) -0.3298(4)
C6A C -0.2593(5) -0.4152(5) 0.1835(4)
H3A H -0.1761 0.0334 -0.4068
H4A H -0.3701 0.0504 -0.2841
H5A H -0.2855 0.2091 -0.3707
H8A H -0.3731 -0.3872 0.1579
H6A H -0.1781 -0.5101 0.1438
H7A H -0.2877 -0.4415 0.2887
C10A C -1.0180(6) 0.5885(5) 0.5010(5)
C9A C -1.2143(5) 0.6476(5) 0.6027(4)
H11A H -0.9249 0.6075 0.5343
H12A H -1.0064 0.6536 0.4019
C7A C -1.2559(6) 0.6146(6) 0.7515(5)
C8A C -1.3553(5) 0.7379(5) 0.5464(4)
C3A C -1.4317(5) 0.6791(5) 0.8357(4)
H9A H -1.1660 0.5487 0.7963
H10A H -1.3348 0.7611 0.4453
C4A C -1.5268(5) 0.7951(5) 0.6367(4)
N1A_2 N -1.5685(4) 0.7687(3) 0.7821(3)
H1A H -1.4550 0.6578 0.9370
H2A H -1.6204 0.8563 0.5941
Mo1A_2 Mo -1.88181(3) 0.92524(3) 0.93976(3)
loop_
_geom_bond_atom_site_label_1
_geom_bond_atom_site_label_2
_geom_bond_site_symmetry_1
_geom_bond_site_symmetry_2
Mo1 O1 1_555 1_555
O1 C1 1_555 1_555
O2 Mo1 1_555 1_555
N1 Mo1 1_555 1_555
O3 Mo1 1_555 1_555
O4 Mo1 1_555 1_555
C1 C5 1_555 1_555
C2 O2 1_555 1_555
C3 N1 1_555 1_555
C4 N1 1_555 1_555
C5 H3 1_555 1_555
C6 C2 1_555 1_555
H1 C3 1_555 1_555
C7 C3 1_555 1_555
C8 C4 1_555 1_555
H2 C4 1_555 1_555
H4 C5 1_555 1_555
H5 C5 1_555 1_555
H6 C6 1_555 1_555
H7 C6 1_555 1_555
H8 C6 1_555 1_555
H9 C7 1_555 1_555
C9 C7 1_555 1_555
H10 C8 1_555 1_555
C10 C9 1_555 1_555
H11 C10 1_555 1_555
H12 C10 1_555 1_555
Mo1A Mo1 1_555 1_555
O3A C1 1_555 1_555
O4A C2 1_555 1_555
O2A Mo1A 1_555 1_555
N1A Mo1A 1_555 1_555
O1A Mo1A 1_555 1_555
C1A O3 1_555 1_555
C2A O4 1_555 1_555
C5A C1A 1_555 1_555
C6A C2A 1_555 1_555
H3A C5A 1_555 1_555
H4A C5A 1_555 1_555
H5A C5A 1_555 1_555
H8A C6A 1_555 1_555
H6A C6A 1_555 1_555
H7A C6A 1_555 1_555
C10A C10 1_555 1_555
C9A C10A 1_555 1_555
H11A C10A 1_555 1_555
H12A C10A 1_555 1_555
C7A C9A 1_555 1_555
C8A C9A 1_555 1_555
C3A C7A 1_555 1_555
H9A C7A 1_555 1_555
H10A C8A 1_555 1_555
C4A C8A 1_555 1_555
N1A_2 C3A 1_555 1_555
H1A C3A 1_555 1_555
H2A C4A 1_555 1_555
Mo1A_2 N1A_2 1_555 1_555
C8 C9 1_555 1_555
Mo1A O3A 1_555 1_555
Mo1A O4A 1_555 1_555
O2A C2A 1_555 1_555
O1A C1A 1_555 1_555
C4A N1A_2 1_555 1_555

#END
