
#######################################################################
#
#                 Cambridge Crystallographic Data Centre
#                                CCDC 
#
#######################################################################
#
# If this CIF has been generated from an entry in the Cambridge 
# Structural Database, then it will include bibliographic, chemical, 
# crystal, experimental, refinement or atomic coordinate data resulting 
# from the CCDC's data processing and validation procedures.
#
#######################################################################

data_ZIPYOO
_symmetry_cell_setting           monoclinic
_symmetry_space_group_name_H-M   'C 2/c'
_symmetry_Int_Tables_number      15
_space_group_name_Hall           '-C 2yn'
loop_
_symmetry_equiv_pos_site_id
_symmetry_equiv_pos_as_xyz
1 x,y,z
2 -x,y,1/2-z
3 1/2+x,1/2+y,z
4 1/2-x,1/2+y,1/2-z
5 -x,-y,-z
6 x,-y,1/2+z
7 1/2-x,1/2-y,-z
8 1/2+x,1/2-y,1/2+z
_cell_length_a                   14.545(2)
_cell_length_b                   18.749(3)
_cell_length_c                   17.359(3)
_cell_angle_alpha                90
_cell_angle_beta                 105.480(2)
_cell_angle_gamma                90
_cell_volume                     4562.14
loop_
_atom_site_label
_atom_site_type_symbol
_atom_site_fract_x
_atom_site_fract_y
_atom_site_fract_z
Cd1 Cd 0.373811(18) 0.421953(13) 0.546107(13)
O1 O 0.3732(2) 0.43880(14) 0.41368(14)
O2 O 0.3781(2) 0.32595(14) 0.45102(14)
O3 O 0.3826(2) 0.49695(17) 0.13943(16)
O4 O 0.3692(2) 0.41412(17) 0.04809(16)
O5 O 0.3702(3) 0.18576(17) 0.1989(2)
O6 O 0.54026(18) 0.42951(13) 0.57556(15)
H1 H 0.5630 0.4699 0.5901
H2 H 0.5524 0.4190 0.5323
N1 N 0.3679(2) 0.33463(17) 0.63882(16)
N2 N 0.7048(2) 0.07002(17) 0.9970(2)
C1 C 0.3765(2) 0.3725(2) 0.3990(2)
C2 C 0.3766(2) 0.34981(19) 0.31607(19)
C3 C 0.3778(2) 0.39945(19) 0.25808(18)
H3 H 0.3796 0.4477 0.2707
C4 C 0.3762(2) 0.37877(19) 0.18122(19)
C5 C 0.3740(3) 0.3068(2) 0.1632(2)
H4 H 0.3726 0.2920 0.1117
C6 C 0.3740(3) 0.2568(2) 0.2219(2)
C7 C 0.3750(3) 0.2774(2) 0.2979(2)
H5 H 0.3745 0.2434 0.3368
C8 C 0.3760(3) 0.4328(2) 0.1172(2)
C9 C 0.3740(6) 0.1313(3) 0.2589(4)
H6 H 0.3218 0.1377 0.2824
H7 H 0.4332 0.1351 0.2997
H8 H 0.3696 0.0850 0.2345
C10 C 0.3811(3) 0.3523(2) 0.7152(2)
H9 H 0.3883 0.4002 0.7295
C11 C 0.3846(3) 0.3021(2) 0.7744(2)
H10 H 0.3931 0.3168 0.8270
C12 C 0.3756(2) 0.2309(2) 0.7561(2)
C13 C 0.3614(3) 0.2122(2) 0.6766(2)
H11 H 0.3539 0.1645 0.6612
C14 C 0.3587(3) 0.2650(2) 0.6203(2)
H12 H 0.3500 0.2517 0.5672
C15 C 0.3841(3) 0.1781(3) 0.8230(3)
H13 H 0.4433 0.1879 0.8631
H14 H 0.3326 0.1876 0.8474
C16 C 0.3820(3) 0.1002(3) 0.8038(3)
H15 H 0.4286 0.0901 0.7744
H16 H 0.3195 0.0875 0.7703
C17 C 0.4045(3) 0.0549(3) 0.8811(3)
H17 H 0.3676 0.0725 0.9161
H18 H 0.3859 0.0058 0.8676
C18 C 0.5101(3) 0.0576(3) 0.9246(3)
C19 C 0.5433(3) 0.1062(3) 0.9831(3)
H19 H 0.5011 0.1361 0.9995
C20 C 0.6437(3) 0.1115(3) 1.0196(2)
H20 H 0.6661 0.1447 1.0601
C21 C 0.6688(3) 0.0229(2) 0.9400(3)
H21 H 0.7115 -0.0069 0.9240
C22 C 0.5728(3) 0.0144(3) 0.9024(3)
H22 H 0.5521 -0.0200 0.8630
Cd1E Cd 0.373811(18) 0.578047(13) 0.046107(13)
Cd1G Cd 0.873811(18) 0.078047(13) 1.046107(13)
O3E O 0.3826(2) 0.50305(17) 0.63943(16)
N2G N 0.2048(2) 0.42998(17) 0.4970(2)
O7 O 0.2990(14) 0.1670(7) 0.0381(10)
H23 H 0.2528 0.1420 0.0111
H24 H 0.3253 0.1609 0.0869
loop_
_geom_bond_atom_site_label_1
_geom_bond_atom_site_label_2
_geom_bond_site_symmetry_1
_geom_bond_site_symmetry_2
Cd1 O1 1_555 1_555
O1 C1 1_555 1_555
O2 Cd1 1_555 1_555
O3 C8 1_555 1_555
O4 C8 1_555 1_555
O5 C6 1_555 1_555
O6 Cd1 1_555 1_555
H1 O6 1_555 1_555
H2 O6 1_555 1_555
N1 Cd1 1_555 1_555
N2 C20 1_555 1_555
C1 O2 1_555 1_555
C2 C1 1_555 1_555
C3 C2 1_555 1_555
H3 C3 1_555 1_555
C4 C3 1_555 1_555
C5 C4 1_555 1_555
H4 C5 1_555 1_555
C6 C5 1_555 1_555
C7 C2 1_555 1_555
H5 C7 1_555 1_555
C8 C4 1_555 1_555
C9 O5 1_555 1_555
H6 C9 1_555 1_555
H7 C9 1_555 1_555
H8 C9 1_555 1_555
C10 N1 1_555 1_555
H9 C10 1_555 1_555
C11 C10 1_555 1_555
H10 C11 1_555 1_555
C12 C11 1_555 1_555
C13 C12 1_555 1_555
H11 C13 1_555 1_555
C14 N1 1_555 1_555
H12 C14 1_555 1_555
C15 C12 1_555 1_555
H13 C15 1_555 1_555
H14 C15 1_555 1_555
C16 C15 1_555 1_555
H15 C16 1_555 1_555
H16 C16 1_555 1_555
C17 C16 1_555 1_555
H17 C17 1_555 1_555
H18 C17 1_555 1_555
C18 C17 1_555 1_555
C19 C18 1_555 1_555
H19 C19 1_555 1_555
C20 C19 1_555 1_555
H20 C20 1_555 1_555
C21 N2 1_555 1_555
H21 C21 1_555 1_555
C22 C18 1_555 1_555
H22 C22 1_555 1_555
O7 H23 1_555 1_555
H24 O7 1_555 1_555
Cd1E O3 1_555 1_555
Cd1G N2 1_555 1_555
O3E Cd1 1_555 1_555
N2G Cd1 1_555 1_555
C6 C7 1_555 1_555
C13 C14 1_555 1_555
C21 C22 1_555 1_555

#END
