
#######################################################################
#
#                 Cambridge Crystallographic Data Centre
#                                CCDC 
#
#######################################################################
#
# If this CIF has been generated from an entry in the Cambridge 
# Structural Database, then it will include bibliographic, chemical, 
# crystal, experimental, refinement or atomic coordinate data resulting 
# from the CCDC's data processing and validation procedures.
#
#######################################################################

data_ZIQCOT
_symmetry_cell_setting           triclinic
_symmetry_space_group_name_H-M   'P -1'
_symmetry_Int_Tables_number      2
_space_group_name_Hall           '-P 1'
loop_
_symmetry_equiv_pos_site_id
_symmetry_equiv_pos_as_xyz
1 x,y,z
2 -x,-y,-z
_cell_length_a                   7.3209(12)
_cell_length_b                   10.4579(17)
_cell_length_c                   11.632(2)
_cell_angle_alpha                100.170(2)
_cell_angle_beta                 100.846(2)
_cell_angle_gamma                96.142(2)
_cell_volume                     851.805
loop_
_atom_site_label
_atom_site_type_symbol
_atom_site_fract_x
_atom_site_fract_y
_atom_site_fract_z
Ag1 Ag 0.71068(10) -0.25391(7) -0.20931(6)
Nd1 Nd 0.74332(5) 0.02789(4) 0.43187(3)
N1 N 0.9601(8) -0.1791(6) -0.0669(5)
N2 N 0.5099(9) 0.5726(6) 0.6936(6)
O1 O 0.9048(7) -0.0283(5) 0.2718(5)
O2 O 1.1931(7) -0.0630(5) 0.3503(4)
O3 O 1.5101(7) 0.0751(5) 0.2478(5)
O4 O 1.5324(7) -0.1330(5) 0.2568(5)
O5 O 0.7158(6) 0.2650(5) 0.5065(5)
O6 O 0.4605(6) 0.1285(5) 0.4962(4)
O7 O 0.0741(6) 0.1434(5) 0.5157(5)
O8 O 0.0574(8) 0.2626(6) 0.3740(5)
C1 C 1.0615(9) -0.0594(7) 0.2644(6)
C2 C 1.0971(9) -0.0988(7) 0.1408(6)
C3 C 0.9457(10) -0.1433(7) 0.0460(7)
H1 H 0.8259 -0.1487 0.0624
C4 C 1.1351(10) -0.1695(8) -0.0884(7)
H2 H 1.1487 -0.1922 -0.1670
C5 C 1.2921(11) -0.1287(8) -0.0015(7)
H3 H 1.4099 -0.1263 -0.0207
C6 C 1.2769(10) -0.0902(7) 0.1165(6)
C7 C 1.4509(10) -0.0459(8) 0.2147(6)
C8 C 0.5525(10) 0.2436(7) 0.5230(7)
C9 C 0.4604(10) 0.3549(7) 0.5747(7)
C10 C 0.5749(10) 0.4684(7) 0.6421(7)
H4 H 0.7044 0.4714 0.6515
C11 C 0.3214(11) 0.5677(8) 0.6758(8)
H5 H 0.2731 0.6406 0.7096
C12 C 0.1975(11) 0.4599(7) 0.6100(7)
H6 H 0.0686 0.4600 0.6011
C13 C 0.2663(10) 0.3518(7) 0.5573(7)
C14 C 0.1219(9) 0.2430(7) 0.4725(7)
Ag1_2 Ag 0.71068(10) 0.74609(7) 0.79069(6)
Ag1A Ag 1.28932(10) 0.25391(7) 0.20931(6)
Nd1_2 Nd -0.25668(5) 0.02789(4) 0.43187(3)
Nd1_3 Nd 1.74332(5) 0.02789(4) 0.43187(3)
Nd1A Nd 0.25668(5) -0.02789(4) 0.56813(3)
Nd1A_2 Nd 1.25668(5) -0.02789(4) 0.56813(3)
N2_2 N 0.5099(9) -0.4274(6) -0.3064(6)
O2A O 0.8069(7) 0.0630(5) 0.6497(4)
O3_2 O 0.5101(7) 0.0751(5) 0.2478(5)
O3A O 0.4899(7) -0.0751(5) -0.2478(5)
O4_2 O 0.5324(7) -0.1330(5) 0.2568(5)
O6A O 0.5395(6) -0.1285(5) 0.5038(4)
O7_2 O 1.0741(6) 0.1434(5) 0.5157(5)
O7A O 0.9259(6) -0.1434(5) 0.4843(5)
O9 O 0.429(3) 0.3668(17) 0.9089(15)
O10 O 0.973(6) 0.425(4) 0.854(6)
O11 O 0.211(5) 0.507(2) 0.994(3)
loop_
_geom_bond_atom_site_label_1
_geom_bond_atom_site_label_2
_geom_bond_site_symmetry_1
_geom_bond_site_symmetry_2
Ag1 N1 1_555 1_555
Nd1 O1 1_555 1_555
N1 C3 1_555 1_555
N2 C10 1_555 1_555
O1 C1 1_555 1_555
O2 C1 1_555 1_555
O3 C7 1_555 1_555
O4 C7 1_555 1_555
O5 Nd1 1_555 1_555
O6 Nd1 1_555 1_555
O7 C14 1_555 1_555
O8 C14 1_555 1_555
C1 C2 1_555 1_555
C2 C3 1_555 1_555
C3 H1 1_555 1_555
C4 N1 1_555 1_555
H2 C4 1_555 1_555
C5 C4 1_555 1_555
H3 C5 1_555 1_555
C6 C2 1_555 1_555
C7 C6 1_555 1_555
C8 O5 1_555 1_555
C9 C8 1_555 1_555
C10 C9 1_555 1_555
H4 C10 1_555 1_555
C11 N2 1_555 1_555
H5 C11 1_555 1_555
C12 C11 1_555 1_555
H6 C12 1_555 1_555
C13 C9 1_555 1_555
C14 C13 1_555 1_555
Ag1_2 N2 1_555 1_555
Ag1A O3 1_555 1_555
Nd1_2 O7 1_555 1_555
Nd1_3 O3 1_555 1_555
Nd1A O6 1_555 1_555
Nd1A_2 O2 1_555 1_555
N2_2 Ag1 1_555 1_555
O2A Nd1 1_555 1_555
O3_2 Nd1 1_555 1_555
O3A Ag1 1_555 1_555
O4_2 Nd1 1_555 1_555
O6A Nd1 1_555 1_555
O7_2 Nd1 1_555 1_555
O7A Nd1 1_555 1_555
O4 Nd1_3 1_555 1_555
O6 C8 1_555 1_555
O7 Nd1A 1_555 1_555
C5 C6 1_555 1_555
C12 C13 1_555 1_555
Nd1A O6A 1_555 1_555
Nd1A_2 O7_2 1_555 1_555
Nd1A_2 O7A 1_555 1_555

#END
