
#######################################################################
#
#                 Cambridge Crystallographic Data Centre
#                                CCDC 
#
#######################################################################
#
# If this CIF has been generated from an entry in the Cambridge 
# Structural Database, then it will include bibliographic, chemical, 
# crystal, experimental, refinement or atomic coordinate data resulting 
# from the CCDC's data processing and validation procedures.
#
#######################################################################

data_ZIQFIQ
_symmetry_cell_setting           monoclinic
_symmetry_space_group_name_H-M   'P 21/c'
_symmetry_Int_Tables_number      14
_space_group_name_Hall           '-P 2ybc'
loop_
_symmetry_equiv_pos_site_id
_symmetry_equiv_pos_as_xyz
1 x,y,z
2 -x,1/2+y,1/2-z
3 -x,-y,-z
4 x,1/2-y,1/2+z
_cell_length_a                   16.365(4)
_cell_length_b                   11.123(3)
_cell_length_c                   16.421(4)
_cell_angle_alpha                90
_cell_angle_beta                 119.828(3)
_cell_angle_gamma                90
_cell_volume                     2593.09
loop_
_atom_site_label
_atom_site_type_symbol
_atom_site_fract_x
_atom_site_fract_y
_atom_site_fract_z
Eu1 Eu 0.143650(17) -0.000007(19) 0.058865(17)
S1 S 0.64562(10) 0.17170(15) -0.22958(11)
O1 O 0.5915(4) 0.1601(6) -0.3297(3)
O2 O 0.6836(4) 0.2904(4) -0.1995(5)
O3 O 0.7174(3) 0.0768(4) -0.1868(3)
O4 O 0.0737(3) 0.1685(3) -0.0462(3)
O5 O -0.0830(3) 0.1667(3) -0.1052(3)
O6 O 0.1433(3) 0.4159(4) -0.2970(3)
O7 O 0.0036(3) 0.4367(3) -0.4213(2)
N1 N 0.2495(3) 0.1989(4) 0.1104(3)
N2 N 0.2583(3) 0.0314(4) -0.0068(3)
N3 N 0.1761(3) -0.1823(4) -0.0207(3)
C1 C 0.2420(4) 0.2830(5) 0.1650(4)
H1 H 0.2192 0.2589 0.2055
C2 C 0.2652(4) 0.4018(6) 0.1656(4)
H2 H 0.2583 0.4578 0.2054
C3 C 0.2987(5) 0.4379(6) 0.1075(5)
H3 H 0.3156 0.5194 0.1064
C4 C 0.3070(5) 0.3531(6) 0.0512(5)
H4 H 0.3283 0.3763 0.0092
C5 C 0.2848(4) 0.2352(5) 0.0553(4)
C6 C 0.3000(4) 0.1392(5) 0.0007(4)
C7 C 0.3602(4) 0.1607(5) -0.0343(4)
H5 H 0.3883 0.2377 -0.0264
C8 C 0.3797(4) 0.0712(5) -0.0805(4)
C9 C 0.3389(4) -0.0397(6) -0.0870(4)
H6 H 0.3516 -0.1047 -0.1165
C10 C 0.2790(4) -0.0564(5) -0.0502(4)
C11 C 0.2320(4) -0.1740(5) -0.0594(4)
C12 C 0.2422(5) -0.2707(6) -0.1075(5)
H7 H 0.2829 -0.2639 -0.1330
C13 C 0.1939(6) -0.3759(6) -0.1182(6)
H8 H 0.1989 -0.4411 -0.1528
C14 C 0.1375(4) -0.3851(5) -0.0772(4)
H9 H 0.1041 -0.4570 -0.0818
C15 C 0.1318(4) -0.2871(5) -0.0300(4)
H10 H 0.0935 -0.2937 -0.0018
C16 C 0.4452(4) 0.0943(5) -0.1174(4)
C17 C 0.4768(5) 0.2103(6) -0.1186(5)
H11 H 0.4560 0.2747 -0.0954
C18 C 0.5370(5) 0.2343(6) -0.1521(5)
H12 H 0.5577 0.3142 -0.1517
C19 C 0.5673(4) 0.1413(6) -0.1867(4)
C20 C 0.5372(5) 0.0260(6) -0.1867(5)
H13 H 0.5581 -0.0379 -0.2103
C21 C 0.4766(5) 0.0024(5) -0.1526(5)
H14 H 0.4562 -0.0777 -0.1532
C22 C -0.0200(4) 0.3134(5) -0.1607(3)
C23 C 0.0326(3) 0.3243(5) -0.2057(3)
H15 H 0.0840 0.2716 -0.1902
C24 C 0.0092(4) 0.4134(5) -0.2740(4)
C25 C -0.0580(5) 0.4986(4) -0.2878(5)
H16 H -0.0723 0.5606 -0.3327
C26 C -0.1049(5) 0.4947(5) -0.2366(5)
H17 H -0.1473 0.5570 -0.2428
C27 C -0.0889(4) 0.3988(5) -0.1764(4)
H18 H -0.1250 0.3911 -0.1458
C28 C 0.0551(4) 0.4211(5) -0.3333(4)
C29 C -0.0083(4) 0.2074(5) -0.0987(3)
Eu1A Eu -0.143650(17) 0.499993(19) -0.558865(17)
Eu1B Eu -0.143650(17) 0.000007(19) -0.058865(17)
Eu1B_2 Eu 0.856350(17) 0.000007(19) -0.058865(17)
Eu1C Eu 0.143650(17) 0.500007(19) -0.441135(17)
O3B O 0.2826(3) -0.0768(4) 0.1868(3)
O5B O 0.0830(3) -0.1667(3) 0.1052(3)
O6C O 0.1433(3) 0.0841(4) 0.2030(3)
O7A O -0.0036(3) -0.0633(3) -0.0787(2)
O7C O 0.0036(3) 0.0633(3) 0.0787(2)
loop_
_geom_bond_atom_site_label_1
_geom_bond_atom_site_label_2
_geom_bond_site_symmetry_1
_geom_bond_site_symmetry_2
Eu1 O4 1_555 1_555
S1 O1 1_555 1_555
O2 S1 1_555 1_555
O3 S1 1_555 1_555
O4 C29 1_555 1_555
O5 C29 1_555 1_555
O6 C28 1_555 1_555
O7 C28 1_555 1_555
N1 Eu1 1_555 1_555
N2 Eu1 1_555 1_555
N3 Eu1 1_555 1_555
C1 N1 1_555 1_555
H1 C1 1_555 1_555
C2 C1 1_555 1_555
H2 C2 1_555 1_555
C3 C2 1_555 1_555
H3 C3 1_555 1_555
C4 C3 1_555 1_555
H4 C4 1_555 1_555
C5 N1 1_555 1_555
C6 N2 1_555 1_555
C7 C6 1_555 1_555
H5 C7 1_555 1_555
C8 C7 1_555 1_555
C9 C8 1_555 1_555
H6 C9 1_555 1_555
C10 N2 1_555 1_555
C11 N3 1_555 1_555
C12 C11 1_555 1_555
H7 C12 1_555 1_555
C13 C12 1_555 1_555
H8 C13 1_555 1_555
C14 C13 1_555 1_555
H9 C14 1_555 1_555
C15 N3 1_555 1_555
H10 C15 1_555 1_555
C16 C8 1_555 1_555
C17 C16 1_555 1_555
H11 C17 1_555 1_555
C18 C17 1_555 1_555
H12 C18 1_555 1_555
C19 S1 1_555 1_555
C20 C19 1_555 1_555
H13 C20 1_555 1_555
C21 C16 1_555 1_555
H14 C21 1_555 1_555
C22 C23 1_555 1_555
C23 H15 1_555 1_555
C24 C23 1_555 1_555
C25 C24 1_555 1_555
H16 C25 1_555 1_555
C26 C25 1_555 1_555
H17 C26 1_555 1_555
C27 C22 1_555 1_555
H18 C27 1_555 1_555
C28 C24 1_555 1_555
C29 C22 1_555 1_555
Eu1A O7 1_555 1_555
Eu1B O5 1_555 1_555
Eu1B_2 O3 1_555 1_555
Eu1C O6 1_555 1_555
O3B Eu1 1_555 1_555
O5B Eu1 1_555 1_555
O6C Eu1 1_555 1_555
O7A Eu1 1_555 1_555
O7C Eu1 1_555 1_555
O7 Eu1C 1_555 1_555
C4 C5 1_555 1_555
C5 C6 1_555 1_555
C9 C10 1_555 1_555
C10 C11 1_555 1_555
C14 C15 1_555 1_555
C18 C19 1_555 1_555
C20 C21 1_555 1_555
C26 C27 1_555 1_555
Eu1B O7A 1_555 1_555
Eu1B O7C 1_555 1_555

#END
