
#######################################################################
#
#                 Cambridge Crystallographic Data Centre
#                                CCDC 
#
#######################################################################
#
# If this CIF has been generated from an entry in the Cambridge 
# Structural Database, then it will include bibliographic, chemical, 
# crystal, experimental, refinement or atomic coordinate data resulting 
# from the CCDC's data processing and validation procedures.
#
#######################################################################

data_ZIQFOW
_symmetry_cell_setting           monoclinic
_symmetry_space_group_name_H-M   'P 21/c'
_symmetry_Int_Tables_number      14
_space_group_name_Hall           '-P 2ybc'
loop_
_symmetry_equiv_pos_site_id
_symmetry_equiv_pos_as_xyz
1 x,y,z
2 -x,1/2+y,1/2-z
3 -x,-y,-z
4 x,1/2-y,1/2+z
_cell_length_a                   16.490(5)
_cell_length_b                   11.144(3)
_cell_length_c                   16.625(4)
_cell_angle_alpha                90
_cell_angle_beta                 120.16(2)
_cell_angle_gamma                90
_cell_volume                     2641.51
loop_
_atom_site_label
_atom_site_type_symbol
_atom_site_fract_x
_atom_site_fract_y
_atom_site_fract_z
La1 La 0.85260(2) 0.00001(3) -0.06160(2)
S1 S 0.63985(11) -0.17779(17) -0.23627(12)
O1 O 0.6797(4) -0.2962(5) -0.2065(5)
O2 O 0.5830(4) -0.1681(7) -0.3347(4)
O3 O 0.7117(3) -0.0831(4) -0.1957(3)
O4 O 0.8590(3) 0.0893(4) -0.2048(3)
O5 O 0.9973(3) 0.0605(4) -0.0829(3)
O6 O 0.9247(3) 0.3240(4) -0.4555(3)
O7 O 1.0799(3) 0.3245(4) -0.3994(3)
N1 N 0.2590(3) -0.1997(5) 0.1133(4)
N2 N 0.2661(3) -0.0362(5) -0.0056(4)
N3 N 0.1863(4) 0.1821(5) -0.0199(4)
C1 C 0.2502(5) -0.2844(6) 0.1660(4)
H1 H 0.2284 -0.2608 0.2055
C2 C 0.2709(5) -0.4024(6) 0.1653(5)
H2 H 0.2629 -0.4571 0.2030
C3 C 0.3032(5) -0.4392(6) 0.1090(5)
H3 H 0.3186 -0.5193 0.1079
C4 C 0.3132(5) -0.3550(7) 0.0525(5)
H4 H 0.3337 -0.3782 0.0119
C5 C 0.2923(4) -0.2377(6) 0.0579(4)
C6 C 0.3081(4) -0.1430(6) 0.0032(4)
C7 C 0.3675(5) -0.1660(6) -0.0314(5)
H5 H 0.3957 -0.2409 -0.0222
C8 C 0.3851(4) -0.0782(6) -0.0796(4)
C9 C 0.3428(5) 0.0315(7) -0.0887(5)
H6 H 0.3535 0.0934 -0.1197
C10 C 0.2836(4) 0.0515(6) -0.0517(4)
C11 C 0.2373(4) 0.1709(6) -0.0621(4)
C12 C 0.1971(6) 0.3673(8) -0.1243(7)
H7 H 0.1995 0.4283 -0.1612
C13 C 0.2429(6) 0.2631(8) -0.1135(6)
H8 H 0.2791 0.2535 -0.1416
C14 C 0.1462(5) 0.3816(6) -0.0788(5)
H9 H 0.1161 0.4536 -0.0822
C15 C 0.1418(5) 0.2872(6) -0.0293(5)
H10 H 0.1063 0.2956 -0.0004
C16 C 0.4488(4) -0.1027(6) -0.1168(4)
C17 C 0.4788(5) -0.0074(5) -0.1528(5)
H11 H 0.4590 0.0707 -0.1526
C18 C 0.5374(5) -0.0309(7) -0.1879(5)
H12 H 0.5579 0.0316 -0.2104
C19 C 0.5654(4) -0.1459(7) -0.1897(4)
C20 C 0.5360(5) -0.2413(6) -0.1547(6)
H13 H 0.5560 -0.3193 -0.1550
C21 C 0.4781(5) -0.2180(6) -0.1204(6)
H14 H 0.4576 -0.2814 -0.0987
C22 C 0.9450(4) 0.0782(5) -0.1698(4)
C23 C 0.9909(4) 0.0834(6) -0.2279(4)
C24 C 1.0589(5) -0.0022(5) -0.2129(5)
H15 H 1.0746 -0.0609 -0.1677
C25 C 1.1032(6) -0.0001(5) -0.2649(5)
H16 H 1.1437 -0.0618 -0.2592
C26 C 1.0867(5) 0.0949(6) -0.3258(4)
H17 H 1.1214 0.1018 -0.3556
C27 C 1.0193(4) 0.1776(6) -0.3416(4)
C28 C 0.9680(4) 0.1704(6) -0.2960(4)
H18 H 0.9188 0.2234 -0.3110
C29 C 1.0063(4) 0.2830(5) -0.4045(4)
La1A La 1.14740(2) 0.50001(3) -0.43840(2)
La1B La 0.14740(2) -0.00001(3) 0.06160(2)
La1B_2 La 1.14740(2) -0.00001(3) 0.06160(2)
La1C La 0.85260(2) 0.49999(3) -0.56160(2)
O5B O 1.0027(3) -0.0605(4) 0.0829(3)
O6C O 0.9247(3) 0.1760(4) 0.0445(3)
O7A O 0.9201(3) -0.1755(4) -0.1006(3)
N1B N 0.7410(3) 0.1997(5) -0.1133(4)
N2B N 0.7339(3) 0.0362(5) 0.0056(4)
N3B N 0.8137(4) -0.1821(5) 0.0199(4)
loop_
_geom_bond_atom_site_label_1
_geom_bond_atom_site_label_2
_geom_bond_site_symmetry_1
_geom_bond_site_symmetry_2
La1 O3 1_555 1_555
S1 O1 1_555 1_555
O2 S1 1_555 1_555
O3 S1 1_555 1_555
O4 La1 1_555 1_555
O5 La1 1_555 1_555
O6 C29 1_555 1_555
O7 C29 1_555 1_555
N1 C1 1_555 1_555
N2 C6 1_555 1_555
N3 C11 1_555 1_555
C1 H1 1_555 1_555
C2 C1 1_555 1_555
H2 C2 1_555 1_555
C3 C2 1_555 1_555
H3 C3 1_555 1_555
C4 C3 1_555 1_555
H4 C4 1_555 1_555
C5 N1 1_555 1_555
C6 C5 1_555 1_555
C7 C6 1_555 1_555
H5 C7 1_555 1_555
C8 C7 1_555 1_555
C9 C8 1_555 1_555
H6 C9 1_555 1_555
C10 N2 1_555 1_555
C11 C10 1_555 1_555
C12 H7 1_555 1_555
C13 C11 1_555 1_555
H8 C13 1_555 1_555
C14 C12 1_555 1_555
H9 C14 1_555 1_555
C15 N3 1_555 1_555
H10 C15 1_555 1_555
C16 C8 1_555 1_555
C17 C16 1_555 1_555
H11 C17 1_555 1_555
C18 C17 1_555 1_555
H12 C18 1_555 1_555
C19 S1 1_555 1_555
C20 C19 1_555 1_555
H13 C20 1_555 1_555
C21 C16 1_555 1_555
H14 C21 1_555 1_555
C22 O4 1_555 1_555
C23 C22 1_555 1_555
C24 C23 1_555 1_555
H15 C24 1_555 1_555
C25 C24 1_555 1_555
H16 C25 1_555 1_555
C26 C25 1_555 1_555
H17 C26 1_555 1_555
C27 C26 1_555 1_555
C28 C23 1_555 1_555
H18 C28 1_555 1_555
C29 C27 1_555 1_555
La1A O7 1_555 1_555
La1B N1 1_555 1_555
La1B_2 O5 1_555 1_555
La1C O6 1_555 1_555
O5B La1 1_555 1_555
O6C La1 1_555 1_555
O7A La1 1_555 1_555
N1B La1 1_555 1_555
N2B La1 1_555 1_555
N3B La1 1_555 1_555
O5 C22 1_555 1_555
N2 La1B 1_555 1_555
N3 La1B 1_555 1_555
C4 C5 1_555 1_555
C9 C10 1_555 1_555
C12 C13 1_555 1_555
C14 C15 1_555 1_555
C18 C19 1_555 1_555
C20 C21 1_555 1_555
C27 C28 1_555 1_555
La1B_2 O5B 1_555 1_555

#END
