
#######################################################################
#
#                 Cambridge Crystallographic Data Centre
#                                CCDC 
#
#######################################################################
#
# If this CIF has been generated from an entry in the Cambridge 
# Structural Database, then it will include bibliographic, chemical, 
# crystal, experimental, refinement or atomic coordinate data resulting 
# from the CCDC's data processing and validation procedures.
#
#######################################################################

data_ZIQGIR
_symmetry_cell_setting           hexagonal
_symmetry_space_group_name_H-M   'P 6/m c c'
_symmetry_Int_Tables_number      192
_space_group_name_Hall           "-P 6 2'c"
loop_
_symmetry_equiv_pos_site_id
_symmetry_equiv_pos_as_xyz
1 x,y,z
2 x-y,x,z
3 -y,x-y,z
4 -x,-y,z
5 -x+y,-x,z
6 y,-x+y,z
7 x-y,-y,1/2-z
8 -x,-x+y,1/2-z
9 y,x,1/2-z
10 -y,-x,1/2-z
11 -x+y,y,1/2-z
12 x,x-y,1/2-z
13 -x,-y,-z
14 -x+y,-x,-z
15 y,-x+y,-z
16 x,y,-z
17 x-y,x,-z
18 -y,x-y,-z
19 -x+y,y,1/2+z
20 x,x-y,1/2+z
21 -y,-x,1/2+z
22 y,x,1/2+z
23 x-y,-y,1/2+z
24 -x,-x+y,1/2+z
_cell_length_a                   15.7818(13)
_cell_length_b                   15.7818(13)
_cell_length_c                   15.0060(8)
_cell_angle_alpha                90
_cell_angle_beta                 90
_cell_angle_gamma                120
_cell_volume                     3236.75
loop_
_atom_site_label
_atom_site_type_symbol
_atom_site_fract_x
_atom_site_fract_y
_atom_site_fract_z
Co2 Co 1.0000 1.0000 0.5000
O5 O 0.894(3) 0.860(3) 0.470(3)
O5O O 0.894(3) 0.860(3) 0.530(3)
O5A O 1.034(4) 0.894(3) 0.470(3)
O5P O 1.034(4) 0.894(3) 0.530(3)
O5B O 1.140(3) 1.034(4) 0.470(3)
O5Q O 1.140(3) 1.034(4) 0.530(3)
O5C O 1.106(3) 1.140(3) 0.470(3)
O5L O 1.106(3) 1.140(3) 0.530(3)
O5D O 0.966(4) 1.106(3) 0.470(3)
O5M O 0.966(4) 1.106(3) 0.530(3)
O5E O 0.860(3) 0.966(4) 0.470(3)
O5N O 0.860(3) 0.966(4) 0.530(3)
O6 O 0.957(2) 0.721(2) 0.5000
Gd1 Gd 0.6667 0.3333 0.2500
O1 O 0.6111(5) 0.4121(5) 0.3584(4)
N1 N 0.7578(4) 0.5156(7) 0.2500
C1 C 0.6428(7) 0.5046(7) 0.3596(5)
C2 C 0.7304(7) 0.5673(7) 0.3017(6)
O2 O 0.6086(5) 0.5460(5) 0.4045(4)
C3 C 0.7776(7) 0.6658(7) 0.3034(7)
Co1 Co 0.5000 0.5000 0.5000
H1 H 0.7560 0.6987 0.3400
C4 C 0.8584(6) 0.7168(12) 0.2500
O3 O 0.4853(7) 0.3556(7) 0.5000
O4 O 0.9159(12) 0.8163(10) 0.2802(8)
H2 H 0.504(6) 0.330(4) 0.5399(7)
O1J O 0.8010(7) 0.4121(5) 0.1416(4)
C1J C 0.8618(10) 0.5046(7) 0.1404(5)
C2J C 0.8369(10) 0.5673(7) 0.1983(6)
O2J O 0.9374(7) 0.5460(5) 0.0955(4)
C3J C 0.8882(10) 0.6658(7) 0.1966(7)
H1J H 0.9427 0.6987 0.1600
O4J O 0.9004(16) 0.8163(10) 0.2198(8)
H2O H 0.504(6) 0.330(4) 0.4601(7)
O1B O 0.5879(5) 0.1990(7) 0.3584(4)
N1B N 0.4844(7) 0.2422(8) 0.2500
C1B C 0.4954(7) 0.1382(10) 0.3596(5)
C2B C 0.4327(7) 0.1631(10) 0.3017(6)
O2B O 0.4540(5) 0.0626(7) 0.4045(4)
C3B C 0.3342(7) 0.1118(10) 0.3034(7)
Co1B Co 0.5000 0.0000 0.5000
H1B H 0.3013 0.0573 0.3400
C4B C 0.2832(12) 0.1416(13) 0.2500
O3B O 0.6444(7) 0.1297(10) 0.5000
O4B O 0.1837(10) 0.0996(16) 0.2802(8)
H2B H 0.670(4) 0.174(7) 0.5399(7)
O1I O 0.5879(5) 0.3889(5) 0.1416(4)
C1I C 0.4954(7) 0.3572(7) 0.1404(5)
C2I C 0.4327(7) 0.2696(7) 0.1983(6)
O2I O 0.4540(5) 0.3914(5) 0.0955(4)
C3I C 0.3342(7) 0.2224(7) 0.1966(7)
H1I H 0.3013 0.2440 0.1600
O4I O 0.1837(10) 0.0841(12) 0.2198(8)
H2Q H 0.670(4) 0.174(7) 0.4601(7)
Gd1A Gd 0.3334 0.6667 0.2500
O1C O 0.3889(5) 0.5879(5) 0.3584(4)
N1C N 0.2422(4) 0.4844(7) 0.2500
C1C C 0.3572(7) 0.4954(7) 0.3596(5)
C2C C 0.2696(7) 0.4327(7) 0.3017(6)
O2C O 0.3914(5) 0.4540(5) 0.4045(4)
C3C C 0.2224(7) 0.3342(7) 0.3034(7)
H1C H 0.2440 0.3013 0.3400
C4C C 0.1416(6) 0.2832(12) 0.2500
O3C O 0.5147(7) 0.6444(7) 0.5000
O4C O 0.0841(12) 0.1837(10) 0.2802(8)
H2C H 0.496(6) 0.670(4) 0.5399(7)
O1F O 0.1990(7) 0.5879(5) 0.1416(4)
C1F C 0.1382(10) 0.4954(7) 0.1404(5)
C2F C 0.1631(10) 0.4327(7) 0.1983(6)
O2F O 0.0626(7) 0.4540(5) 0.0955(4)
C3F C 0.1118(10) 0.3342(7) 0.1966(7)
H1F H 0.0573 0.3013 0.1600
O4F O 0.0996(16) 0.1837(10) 0.2198(8)
H2L H 0.496(6) 0.670(4) 0.4601(7)
O1D O 0.8010(7) 0.3889(5) 0.3584(4)
N1D N 0.7578(8) 0.2422(4) 0.2500
C1D C 0.8618(10) 0.3572(7) 0.3596(5)
C2D C 0.8369(10) 0.2696(7) 0.3017(6)
O2D O 0.9374(7) 0.3914(5) 0.4045(4)
C3D C 0.8882(10) 0.2224(7) 0.3034(7)
Co1A Co 1.0000 0.5000 0.5000
H1D H 0.9427 0.2440 0.3400
C4D C 0.8584(13) 0.1416(6) 0.2500
O3D O 0.8703(10) 0.5147(7) 0.5000
O4D O 0.9004(16) 0.0841(12) 0.2802(8)
H2D H 0.826(7) 0.496(6) 0.5399(7)
O1K O 0.6111(5) 0.1990(7) 0.1416(4)
C1K C 0.6428(7) 0.1382(10) 0.1404(5)
C2K C 0.7304(7) 0.1631(10) 0.1983(6)
O2K O 0.6086(5) 0.0626(7) 0.0955(4)
C3K C 0.7776(7) 0.1118(10) 0.1966(7)
H1K H 0.7560 0.0573 0.1600
O4K O 0.9159(12) 0.0996(16) 0.2198(8)
H2M H 0.826(7) 0.496(6) 0.4601(7)
O1E O 0.4121(5) 0.8010(7) 0.3584(4)
N1E N 0.5156(7) 0.7578(8) 0.2500
C1E C 0.5046(7) 0.8618(10) 0.3596(5)
C2E C 0.5673(7) 0.8369(10) 0.3017(6)
O2E O 0.5460(5) 0.9374(7) 0.4045(4)
C3E C 0.6658(7) 0.8882(10) 0.3034(7)
H1E H 0.6987 0.9427 0.3400
C4E C 0.7168(12) 0.8584(13) 0.2500
O4E O 0.8163(10) 0.9004(16) 0.2802(8)
O1H O 0.4121(5) 0.6111(5) 0.1416(4)
C1H C 0.5046(7) 0.6428(7) 0.1404(5)
C2H C 0.5673(7) 0.7304(7) 0.1983(6)
O2H O 0.5460(5) 0.6086(5) 0.0955(4)
C3H C 0.6658(7) 0.7776(7) 0.1966(7)
H1H H 0.6987 0.7560 0.1600
O4H O 0.8163(10) 0.9159(12) 0.2198(8)
O1L O 0.3889(5) 0.5879(5) 0.6416(4)
N1L N 0.2422(4) 0.4844(7) 0.7500
C1L C 0.3572(7) 0.4954(7) 0.6404(5)
C2L C 0.2696(7) 0.4327(7) 0.6983(6)
O2L O 0.3914(5) 0.4540(5) 0.5955(4)
C3L C 0.2224(7) 0.3342(7) 0.6966(7)
H1L H 0.2440 0.3013 0.6600
C4L C 0.1416(6) 0.2832(12) 0.7500
O4L O 0.0841(12) 0.1837(10) 0.7198(8)
O1V O 0.1990(7) 0.5879(5) 0.8584(4)
C1V C 0.1382(10) 0.4954(7) 0.8596(5)
C2V C 0.1631(10) 0.4327(7) 0.8017(6)
O2V O 0.0626(7) 0.4540(5) 0.9045(4)
C3V C 0.1118(10) 0.3342(7) 0.8034(7)
H1V H 0.0573 0.3013 0.8400
O4V O 0.0996(16) 0.1837(10) 0.7802(8)
O3E O 0.3556(7) -0.1297(10) 0.5000
H2E H 0.330(4) -0.174(7) 0.5399(7)
H2N H 0.330(4) -0.174(7) 0.4601(7)
O3A O 1.1297(10) 0.4853(7) 0.5000
H2P H 1.174(7) 0.504(6) 0.4601(7)
H2A H 1.174(7) 0.504(6) 0.5399(7)
Gd1L Gd 0.3333 0.6667 0.7500
O1A O 0.1990(7) 0.6111(5) 0.3584(4)
O1G O 0.3889(5) 0.8010(7) 0.1416(4)
N1A N 0.2422(8) 0.7578(4) 0.2500
O2A O 1.0626(7) 0.6086(5) 0.4045(4)
O2E_2 O 0.5460(5) -0.0626(7) 0.4045(4)
O2M O 0.9374(7) 0.3914(5) 0.5955(4)
O2N O 0.5460(5) -0.0626(7) 0.5955(4)
O2O O 0.6086(5) 0.5460(5) 0.5955(4)
O2P O 1.0626(7) 0.6086(5) 0.5955(4)
O2Q O 0.4540(5) 0.0626(7) 0.5955(4)
Co1B_2 Co 0.5000 1.0000 0.5000
Co1F Co 0.0000 0.5000 0.0000
Co1F_2 Co 0.0000 0.5000 1.0000
Co1F_3 Co 1.0000 0.5000 0.0000
Co1G Co 0.5000 0.0000 0.0000
Co1H Co 0.5000 0.5000 0.0000
O7? O 0.901(4) 0.702(3) 0.5000
O8? O 0.887(3) 0.929(3) 0.403(3)
loop_
_geom_bond_atom_site_label_1
_geom_bond_atom_site_label_2
_geom_bond_site_symmetry_1
_geom_bond_site_symmetry_2
Gd1 O1 1_555 1_555
O1 C1 1_555 1_555
N1 Gd1 1_555 1_555
C1 C2 1_555 1_555
C2 N1 1_555 1_555
O2 C1 1_555 1_555
C3 C2 1_555 1_555
Co1 O2 1_555 1_555
H1 C3 1_555 1_555
C4 C3 1_555 1_555
O3 Co1 1_555 1_555
O4 C4 1_555 1_555
H2 O3 1_555 1_555
Co2 O5 1_555 1_555
O5 O5O 1_555 1_555
O1J Gd1 1_555 1_555
C1J O1J 1_555 1_555
C2J N1 1_555 1_555
O2J C1J 1_555 1_555
C3J C4 1_555 1_555
H1J C3J 1_555 1_555
O4J C4 1_555 1_555
H2O O3 1_555 1_555
O1B Gd1 1_555 1_555
N1B Gd1 1_555 1_555
C1B O1B 1_555 1_555
C2B N1B 1_555 1_555
O2B C1B 1_555 1_555
C3B C2B 1_555 1_555
Co1B O2B 1_555 1_555
H1B C3B 1_555 1_555
C4B C3B 1_555 1_555
O3B Co1B 1_555 1_555
O4B C4B 1_555 1_555
H2B O3B 1_555 1_555
O1I Gd1 1_555 1_555
C1I O1I 1_555 1_555
C2I N1B 1_555 1_555
O2I C1I 1_555 1_555
C3I C4B 1_555 1_555
H1I C3I 1_555 1_555
O4I C4B 1_555 1_555
H2Q O3B 1_555 1_555
Gd1A O1C 1_555 1_555
O1C C1C 1_555 1_555
N1C Gd1A 1_555 1_555
C1C C2C 1_555 1_555
C2C N1C 1_555 1_555
O2C Co1 1_555 1_555
C3C C2C 1_555 1_555
H1C C3C 1_555 1_555
C4C C3C 1_555 1_555
O3C Co1 1_555 1_555
O4C C4C 1_555 1_555
H2C O3C 1_555 1_555
O1F Gd1A 1_555 1_555
C1F O1F 1_555 1_555
C2F N1C 1_555 1_555
O2F C1F 1_555 1_555
C3F C4C 1_555 1_555
H1F C3F 1_555 1_555
O4F C4C 1_555 1_555
H2L O3C 1_555 1_555
O1D Gd1 1_555 1_555
N1D Gd1 1_555 1_555
C1D O1D 1_555 1_555
C2D N1D 1_555 1_555
O2D C1D 1_555 1_555
C3D C2D 1_555 1_555
Co1A O2D 1_555 1_555
H1D C3D 1_555 1_555
C4D C3D 1_555 1_555
O3D Co1A 1_555 1_555
O4D C4D 1_555 1_555
H2D O3D 1_555 1_555
O1K Gd1 1_555 1_555
C1K O1K 1_555 1_555
C2K N1D 1_555 1_555
O2K C1K 1_555 1_555
C3K C4D 1_555 1_555
H1K C3K 1_555 1_555
O4K C4D 1_555 1_555
H2M O3D 1_555 1_555
O1E Gd1A 1_555 1_555
N1E Gd1A 1_555 1_555
C1E O1E 1_555 1_555
C2E N1E 1_555 1_555
O2E C1E 1_555 1_555
C3E C2E 1_555 1_555
H1E C3E 1_555 1_555
C4E C3E 1_555 1_555
O4E C4E 1_555 1_555
O1H Gd1A 1_555 1_555
C1H O1H 1_555 1_555
C2H N1E 1_555 1_555
O2H C1H 1_555 1_555
C3H C4E 1_555 1_555
H1H C3H 1_555 1_555
O4H C4E 1_555 1_555
O1L C1L 1_555 1_555
N1L C2L 1_555 1_555
C1L C2L 1_555 1_555
C2L C3L 1_555 1_555
O2L Co1 1_555 1_555
C3L H1L 1_555 1_555
C4L C3L 1_555 1_555
O4L C4L 1_555 1_555
O1V C1V 1_555 1_555
C1V C2V 1_555 1_555
C2V N1L 1_555 1_555
O2V C1V 1_555 1_555
C3V C4L 1_555 1_555
H1V C3V 1_555 1_555
O4V C4L 1_555 1_555
O3E Co1B 1_555 1_555
H2E O3E 1_555 1_555
H2N O3E 1_555 1_555
O3A Co1A 1_555 1_555
H2P O3A 1_555 1_555
H2A O3A 1_555 1_555
Gd1L O1L 1_555 1_555
O1A Gd1A 1_555 1_555
O1G Gd1A 1_555 1_555
N1A Gd1A 1_555 1_555
O2A Co1A 1_555 1_555
O2E_2 Co1B 1_555 1_555
O2M Co1A 1_555 1_555
O2N Co1B 1_555 1_555
O2O Co1 1_555 1_555
O2P Co1A 1_555 1_555
O2Q Co1B 1_555 1_555
Co1B_2 O2E 1_555 1_555
Co1F O2F 1_555 1_555
Co1F_2 O2V 1_555 1_555
Co1F_3 O2J 1_555 1_555
Co1G O2K 1_555 1_555
Co1H O2I 1_555 1_555
O5O Co2 1_555 1_555
O5A Co2 1_555 1_555
O5P Co2 1_555 1_555
O5B Co2 1_555 1_555
O5Q Co2 1_555 1_555
O5C Co2 1_555 1_555
O5L Co2 1_555 1_555
O5D Co2 1_555 1_555
O5M Co2 1_555 1_555
O5E Co2 1_555 1_555
O5N Co2 1_555 1_555
O4 O4J 1_555 1_555
C1J C2J 1_555 1_555
C2J C3J 1_555 1_555
C1B C2B 1_555 1_555
O4B O4I 1_555 1_555
C1I C2I 1_555 1_555
C2I C3I 1_555 1_555
C1C O2C 1_555 1_555
O4C O4F 1_555 1_555
C1F C2F 1_555 1_555
C2F C3F 1_555 1_555
C1D C2D 1_555 1_555
O4D O4K 1_555 1_555
C1K C2K 1_555 1_555
C2K C3K 1_555 1_555
C1E C2E 1_555 1_555
O4E O4H 1_555 1_555
C1H C2H 1_555 1_555
C2H C3H 1_555 1_555
O2H Co1H 1_555 1_555
N1L Gd1L 1_555 1_555
C1L O2L 1_555 1_555
O4L O4V 1_555 1_555
O1V Gd1L 1_555 1_555
C2V C3V 1_555 1_555
O5A O5P 1_555 1_555
O5B O5Q 1_555 1_555
O5C O5L 1_555 1_555
O5D O5M 1_555 1_555
O5E O5N 1_555 1_555

#END
