
#######################################################################
#
#                 Cambridge Crystallographic Data Centre
#                                CCDC 
#
#######################################################################
#
# If this CIF has been generated from an entry in the Cambridge 
# Structural Database, then it will include bibliographic, chemical, 
# crystal, experimental, refinement or atomic coordinate data resulting 
# from the CCDC's data processing and validation procedures.
#
#######################################################################

data_ZIQGUD
_symmetry_cell_setting           monoclinic
_symmetry_space_group_name_H-M   'P 21/c'
_symmetry_Int_Tables_number      14
_space_group_name_Hall           '-P 2ybc'
loop_
_symmetry_equiv_pos_site_id
_symmetry_equiv_pos_as_xyz
1 x,y,z
2 -x,1/2+y,1/2-z
3 -x,-y,-z
4 x,1/2-y,1/2+z
_cell_length_a                   7.155(3)
_cell_length_b                   16.427(6)
_cell_length_c                   17.896(7)
_cell_angle_alpha                90
_cell_angle_beta                 108.595(15)
_cell_angle_gamma                90
_cell_volume                     1993.6
loop_
_atom_site_label
_atom_site_type_symbol
_atom_site_fract_x
_atom_site_fract_y
_atom_site_fract_z
Cd1 Cd 0.32863(7) 0.20059(3) 0.26980(3)
Cl1 Cl 0.4438(4) 0.2841(2) 0.3864(2)
S1 S 0.1690(2) -0.16655(10) -0.27005(9)
O1 O -0.0007(8) -0.2186(4) -0.2766(4)
O2 O 0.1389(11) -0.1113(4) -0.3349(3)
O3 O 0.3470(7) -0.2160(3) -0.2536(3)
N1 N 0.2291(10) 0.2842(4) 0.1596(4)
N2 N 0.2623(8) 0.1241(3) 0.1556(3)
N3 N 0.3401(10) 0.0617(4) 0.2995(4)
C1 C 0.1961(16) 0.3634(5) 0.1615(6)
H1 H 0.2064 0.3863 0.2102
C2 C 0.149(2) 0.4138(6) 0.0984(7)
H2 H 0.1359 0.4695 0.1046
C3 C 0.120(3) 0.3813(7) 0.0255(8)
H3 H 0.0793 0.4137 -0.0194
C4 C 0.153(3) 0.2985(7) 0.0203(6)
H4 H 0.1416 0.2753 -0.0283
C5 C 0.2010(16) 0.2511(5) 0.0867(5)
C6 C 0.2317(11) 0.1610(4) 0.0861(4)
C7 C 0.2241(11) 0.1183(4) 0.0189(4)
H5 H 0.2029 0.1456 -0.0286
C8 C 0.2485(9) 0.0335(4) 0.0223(3)
C9 C 0.2840(11) -0.0029(4) 0.0953(4)
H6 H 0.3048 -0.0588 0.1005
C10 C 0.2889(10) 0.0433(4) 0.1608(4)
C11 C 0.3063(15) -0.0751(5) 0.2524(5)
H7 H 0.2925 -0.1116 0.2113
C12 C 0.318(2) -0.1020(6) 0.3269(6)
H8 H 0.3093 -0.1574 0.3362
C13 C 0.3161(12) 0.0079(4) 0.2410(4)
C14 C 0.341(2) -0.0470(6) 0.3873(6)
H9 H 0.3503 -0.0647 0.4377
C15 C 0.3517(17) 0.0346(6) 0.3720(5)
H10 H 0.3670 0.0720 0.4126
C16 C 0.2355(9) -0.0150(4) -0.0495(4)
C17 C 0.1935(17) 0.0215(5) -0.1222(5)
H11 H 0.1767 0.0777 -0.1265
C18 C 0.1760(17) -0.0242(5) -0.1888(5)
H12 H 0.1474 0.0015 -0.2375
C19 C 0.2005(9) -0.1074(4) -0.1840(4)
C20 C 0.2441(14) -0.1433(5) -0.1126(4)
H13 H 0.2629 -0.1994 -0.1082
C21 C 0.2611(14) -0.0972(5) -0.0456(4)
H14 H 0.2907 -0.1231 0.0030
Cd1B Cd -0.32863(7) -0.20059(3) -0.26980(3)
Cd1B_2 Cd 0.67137(7) -0.20059(3) -0.26980(3)
O1B O 0.0007(8) 0.2186(4) 0.2766(4)
O3B O 0.6530(7) 0.2160(3) 0.2536(3)
loop_
_geom_bond_atom_site_label_1
_geom_bond_atom_site_label_2
_geom_bond_site_symmetry_1
_geom_bond_site_symmetry_2
Cd1 Cl1 1_555 1_555
S1 O1 1_555 1_555
O1 Cd1B 1_555 1_555
O2 S1 1_555 1_555
O3 S1 1_555 1_555
N1 Cd1 1_555 1_555
N2 Cd1 1_555 1_555
N3 Cd1 1_555 1_555
C1 N1 1_555 1_555
H1 C1 1_555 1_555
C2 C1 1_555 1_555
H2 C2 1_555 1_555
C3 C2 1_555 1_555
H3 C3 1_555 1_555
C4 C3 1_555 1_555
H4 C4 1_555 1_555
C5 N1 1_555 1_555
C6 N2 1_555 1_555
C7 C6 1_555 1_555
H5 C7 1_555 1_555
C8 C7 1_555 1_555
C9 C8 1_555 1_555
H6 C9 1_555 1_555
C10 N2 1_555 1_555
C11 H7 1_555 1_555
C12 C11 1_555 1_555
H8 C12 1_555 1_555
C13 N3 1_555 1_555
C14 C12 1_555 1_555
H9 C14 1_555 1_555
C15 N3 1_555 1_555
H10 C15 1_555 1_555
C16 C8 1_555 1_555
C17 C16 1_555 1_555
H11 C17 1_555 1_555
C18 C17 1_555 1_555
H12 C18 1_555 1_555
C19 S1 1_555 1_555
C20 C19 1_555 1_555
H13 C20 1_555 1_555
C21 C16 1_555 1_555
H14 C21 1_555 1_555
Cd1B_2 O3 1_555 1_555
O1B Cd1 1_555 1_555
O3B Cd1 1_555 1_555
C4 C5 1_555 1_555
C5 C6 1_555 1_555
C9 C10 1_555 1_555
C10 C13 1_555 1_555
C11 C13 1_555 1_555
C14 C15 1_555 1_555
C18 C19 1_555 1_555
C20 C21 1_555 1_555

#END
