
#######################################################################
#
#                 Cambridge Crystallographic Data Centre
#                                CCDC 
#
#######################################################################
#
# If this CIF has been generated from an entry in the Cambridge 
# Structural Database, then it will include bibliographic, chemical, 
# crystal, experimental, refinement or atomic coordinate data resulting 
# from the CCDC's data processing and validation procedures.
#
#######################################################################

data_ZIQGOX
_symmetry_cell_setting           hexagonal
_symmetry_space_group_name_H-M   'P 6/m c c'
_symmetry_Int_Tables_number      192
_space_group_name_Hall           "-P 6 2'c"
loop_
_symmetry_equiv_pos_site_id
_symmetry_equiv_pos_as_xyz
1 x,y,z
2 -y,x-y,z
3 -x+y,-x,z
4 -x,-y,z
5 y,-x+y,z
6 x-y,x,z
7 y,x,1/2-z
8 x-y,-y,1/2-z
9 -x,-x+y,1/2-z
10 -y,-x,1/2-z
11 -x+y,y,1/2-z
12 x,x-y,1/2-z
13 -x,-y,-z
14 y,-x+y,-z
15 x-y,x,-z
16 x,y,-z
17 -y,x-y,-z
18 -x+y,-x,-z
19 -y,-x,1/2+z
20 -x+y,y,1/2+z
21 x,x-y,1/2+z
22 y,x,1/2+z
23 x-y,-y,1/2+z
24 -x,-x+y,1/2+z
_cell_length_a                   15.3945(12)
_cell_length_b                   15.3945(12)
_cell_length_c                   14.6706(6)
_cell_angle_alpha                90
_cell_angle_beta                 90
_cell_angle_gamma                120
_cell_volume                     3010.99
loop_
_atom_site_label
_atom_site_type_symbol
_atom_site_fract_x
_atom_site_fract_y
_atom_site_fract_z
Gd1 Gd 0.6667 0.3333 0.2500
Co1 Co 0.5000 0.5000 0.0000
C1 C 0.4202(18) 0.2691(16) 0.1896(14)
C2 C 0.3181(19) 0.2159(18) 0.1904(17)
H1 H 0.2906 0.2314 0.1468
C3 C 0.493(3) 0.354(2) 0.1408(15)
N1 N 0.4790(17) 0.2395(9) 0.2500
C4 C 0.286(3) 0.1431(16) 0.2500
O1 O 0.3464(14) 0.4805(14) 0.0000
H2 H 0.3123 0.4133 0.0000
O2 O 0.5884(12) 0.3882(11) 0.1435(9)
O3 O 0.4499(10) 0.3915(12) 0.0966(8)
Co2 Co 0.0000 0.0000 0.2500
O4 O 0.1690(19) 0.0845(10) 0.2500
C1K C 0.4202(18) 0.1511(24) 0.3104(14)
C2K C 0.3181(19) 0.1022(26) 0.3096(17)
H1K H 0.2906 0.0592 0.3532
C3K C 0.493(3) 0.139(4) 0.3592(15)
O2K O 0.5884(12) 0.2002(16) 0.3565(9)
O3K O 0.4499(10) 0.0584(16) 0.4034(8)
Gd1_2 Gd -0.3333 0.3333 0.2500
Co1A Co -0.5000 0.0000 0.0000
C1A C -0.2691(16) 0.1511(24) 0.1896(14)
C2A C -0.2159(18) 0.1022(26) 0.1904(17)
H1A H -0.2314 0.0592 0.1468
C3A C -0.354(2) 0.139(4) 0.1408(15)
N1A N -0.2395(9) 0.2395(19) 0.2500
C4A C -0.1431(16) 0.1429(34) 0.2500
O1A O -0.4805(14) -0.1341(20) 0.0000
H2A H -0.4133 -0.1010 0.0000
O2A O -0.3882(11) 0.2002(16) 0.1435(9)
O3A O -0.3915(12) 0.0584(16) 0.0966(8)
O4A O -0.0845(10) 0.0845(21) 0.2500
C1J C -0.1511(24) 0.2691(16) 0.3104(14)
C2J C -0.1022(26) 0.2159(18) 0.3096(17)
H1J H -0.0592 0.2314 0.3532
C3J C -0.139(4) 0.354(2) 0.3592(15)
O2J O -0.2002(16) 0.3882(11) 0.3565(9)
O3J O -0.0584(16) 0.3915(12) 0.4034(8)
Co1B Co 0.0000 -0.5000 0.0000
C1B C -0.1511(24) -0.4202(18) 0.1896(14)
C2B C -0.1022(26) -0.3181(19) 0.1904(17)
H1B H -0.0592 -0.2906 0.1468
C3B C -0.139(4) -0.493(3) 0.1408(15)
N1B N -0.2395(19) -0.4790(17) 0.2500
C4B C -0.1429(34) -0.286(3) 0.2500
O1B O 0.1341(20) -0.3464(14) 0.0000
H2B H 0.1010 -0.3123 0.0000
O2B O -0.2002(16) -0.5884(12) 0.1435(9)
O3B O -0.0584(16) -0.4499(10) 0.0966(8)
O4B O -0.0845(21) -0.1690(19) 0.2500
C1I C -0.2691(16) -0.4202(18) 0.3104(14)
C2I C -0.2159(18) -0.3181(19) 0.3096(17)
H1I H -0.2314 -0.2906 0.3532
C3I C -0.354(2) -0.493(3) 0.3592(15)
O2I O -0.3882(11) -0.5884(12) 0.3565(9)
O3I O -0.3915(12) -0.4499(10) 0.4034(8)
C1C C -0.4202(18) -0.2691(16) 0.1896(14)
C2C C -0.3181(19) -0.2159(18) 0.1904(17)
H1C H -0.2906 -0.2314 0.1468
C3C C -0.493(3) -0.354(2) 0.1408(15)
N1C N -0.4790(17) -0.2395(9) 0.2500
C4C C -0.286(3) -0.1431(16) 0.2500
O2C O -0.5884(12) -0.3882(11) 0.1435(9)
O3C O -0.4499(10) -0.3915(12) 0.0966(8)
O4C O -0.1690(19) -0.0845(10) 0.2500
C1H C -0.4202(18) -0.1511(24) 0.3104(14)
C2H C -0.3181(19) -0.1022(26) 0.3096(17)
H1H H -0.2906 -0.0592 0.3532
C3H C -0.493(3) -0.139(4) 0.3592(15)
O2H O -0.5884(12) -0.2002(16) 0.3565(9)
O3H O -0.4499(10) -0.0584(16) 0.4034(8)
C1D C 0.2691(16) -0.1511(24) 0.1896(14)
C2D C 0.2159(18) -0.1022(26) 0.1904(17)
H1D H 0.2314 -0.0592 0.1468
C3D C 0.354(2) -0.139(4) 0.1408(15)
N1D N 0.2395(9) -0.2395(19) 0.2500
C4D C 0.1431(16) -0.1429(34) 0.2500
O2D O 0.3882(11) -0.2002(16) 0.1435(9)
O3D O 0.3915(12) -0.0584(16) 0.0966(8)
O4D O 0.0845(10) -0.0845(21) 0.2500
C1G C 0.1511(24) -0.2691(16) 0.3104(14)
C2G C 0.1022(26) -0.2159(18) 0.3096(17)
H1G H 0.0592 -0.2314 0.3532
C3G C 0.139(4) -0.354(2) 0.3592(15)
O2G O 0.2002(16) -0.3882(11) 0.3565(9)
O3G O 0.0584(16) -0.3915(12) 0.4034(8)
C1E C 0.1511(24) 0.4202(18) 0.1896(14)
C2E C 0.1022(26) 0.3181(19) 0.1904(17)
H1E H 0.0592 0.2906 0.1468
C3E C 0.139(4) 0.493(3) 0.1408(15)
N1E N 0.2395(19) 0.4790(17) 0.2500
C4E C 0.1429(34) 0.286(3) 0.2500
O2E O 0.2002(16) 0.5884(12) 0.1435(9)
O3E O 0.0584(16) 0.4499(10) 0.0966(8)
O4E O 0.0845(21) 0.1690(19) 0.2500
C1F C 0.2691(16) 0.4202(18) 0.3104(14)
C2F C 0.2159(18) 0.3181(19) 0.3096(17)
H1F H 0.2314 0.2906 0.3532
C3F C 0.354(2) 0.493(3) 0.3592(15)
O2F O 0.3882(11) 0.5884(12) 0.3565(9)
O3F O 0.3915(12) 0.4499(10) 0.4034(8)
O1C O 0.6536(14) 0.5195(14) 0.0000
H2C H 0.6877 0.5867 0.0000
O1D O -0.5195(14) 0.1341(20) 0.0000
H2D H -0.5867 0.1010 0.0000
O1E O -0.1341(20) -0.6536(14) 0.0000
H2E H -0.1010 -0.6877 0.0000
Gd1_3 Gd -0.3333 -0.6667 0.2500
Gd1C Gd -0.6667 -0.3333 0.2500
Gd1C_2 Gd 0.3333 -0.3333 0.2500
Gd1C_3 Gd 0.3333 0.6667 0.2500
Co1_2 Co -0.5000 -0.5000 0.0000
Co1A_2 Co 0.5000 0.0000 0.0000
Co1B_2 Co 0.0000 0.5000 0.0000
Co1F Co -0.5000 -0.5000 0.5000
Co1F_2 Co 0.5000 0.5000 0.5000
Co1G Co 0.0000 -0.5000 0.5000
Co1G_2 Co 0.0000 0.5000 0.5000
Co1H Co -0.5000 0.0000 0.5000
Co1H_2 Co 0.5000 0.0000 0.5000
N1_2 N -0.5210(17) 0.2395(9) 0.2500
N1A_2 N 0.7605(9) 0.2395(19) 0.2500
N1B_2 N -0.2395(19) 0.5210(17) 0.2500
N1B_3 N 0.7605(19) 0.5210(17) 0.2500
O2_2 O -0.4116(12) 0.3882(11) 0.1435(9)
O2A_2 O 0.6118(11) 0.2002(16) 0.1435(9)
O2B_2 O -0.2002(16) 0.4116(12) 0.1435(9)
O2B_3 O 0.7998(16) 0.4116(12) 0.1435(9)
O2I_2 O -0.3882(11) 0.4116(12) 0.3565(9)
O2I_3 O 0.6118(11) 0.4116(12) 0.3565(9)
O2J_2 O 0.7998(16) 0.3882(11) 0.3565(9)
O2K_2 O -0.4116(12) 0.2002(16) 0.3565(9)
O3C_2 O 0.5501(10) 0.6085(12) 0.0966(8)
O3D_2 O -0.6085(12) -0.0584(16) 0.0966(8)
O3E_2 O 0.0584(16) -0.5501(10) 0.0966(8)
O3L O 0.5501(10) 0.6085(12) -0.0966(8)
O3M O -0.6085(12) -0.0584(16) -0.0966(8)
O3N O 0.0584(16) -0.5501(10) -0.0966(8)
O3O O 0.4499(10) 0.3915(12) -0.0966(8)
O3P O -0.3915(12) 0.0584(16) -0.0966(8)
O3Q O -0.0584(16) -0.4499(10) -0.0966(8)
loop_
_geom_bond_atom_site_label_1
_geom_bond_atom_site_label_2
_geom_bond_site_symmetry_1
_geom_bond_site_symmetry_2
Gd1 N1 1_555 1_555
Co1 O1 1_555 1_555
C1 C2 1_555 1_555
C2 H1 1_555 1_555
C3 C1 1_555 1_555
N1 C1 1_555 1_555
C4 C2 1_555 1_555
O1 H2 1_555 1_555
O2 Gd1 1_555 1_555
O3 Co1 1_555 1_555
Co2 O4 1_555 1_555
O4 C4 1_555 1_555
C1K N1 1_555 1_555
C2K C4 1_555 1_555
H1K C2K 1_555 1_555
C3K C1K 1_555 1_555
O2K Gd1 1_555 1_555
O3K C3K 1_555 1_555
Gd1_2 N1A 1_555 1_555
Co1A O1A 1_555 1_555
C1A C2A 1_555 1_555
C2A H1A 1_555 1_555
C3A C1A 1_555 1_555
N1A C1A 1_555 1_555
C4A C2A 1_555 1_555
O1A H2A 1_555 1_555
O2A Gd1_2 1_555 1_555
O3A Co1A 1_555 1_555
O4A Co2 1_555 1_555
C1J N1A 1_555 1_555
C2J C4A 1_555 1_555
H1J C2J 1_555 1_555
C3J C1J 1_555 1_555
O2J Gd1_2 1_555 1_555
O3J C3J 1_555 1_555
Co1B O1B 1_555 1_555
C1B C2B 1_555 1_555
C2B H1B 1_555 1_555
C3B C1B 1_555 1_555
N1B C1B 1_555 1_555
C4B C2B 1_555 1_555
O1B H2B 1_555 1_555
O2B C3B 1_555 1_555
O3B Co1B 1_555 1_555
O4B Co2 1_555 1_555
C1I N1B 1_555 1_555
C2I C4B 1_555 1_555
H1I C2I 1_555 1_555
C3I C1I 1_555 1_555
O2I C3I 1_555 1_555
O3I C3I 1_555 1_555
C1C C2C 1_555 1_555
C2C H1C 1_555 1_555
C3C C1C 1_555 1_555
N1C C1C 1_555 1_555
C4C C2C 1_555 1_555
O2C C3C 1_555 1_555
O3C C3C 1_555 1_555
O4C Co2 1_555 1_555
C1H N1C 1_555 1_555
C2H C4C 1_555 1_555
H1H C2H 1_555 1_555
C3H C1H 1_555 1_555
O2H C3H 1_555 1_555
O3H C3H 1_555 1_555
C1D C2D 1_555 1_555
C2D H1D 1_555 1_555
C3D C1D 1_555 1_555
N1D C1D 1_555 1_555
C4D C2D 1_555 1_555
O2D C3D 1_555 1_555
O3D C3D 1_555 1_555
O4D Co2 1_555 1_555
C1G N1D 1_555 1_555
C2G C4D 1_555 1_555
H1G C2G 1_555 1_555
C3G C1G 1_555 1_555
O2G C3G 1_555 1_555
O3G C3G 1_555 1_555
C1E C2E 1_555 1_555
C2E H1E 1_555 1_555
C3E C1E 1_555 1_555
N1E C1E 1_555 1_555
C4E C2E 1_555 1_555
O2E C3E 1_555 1_555
O3E C3E 1_555 1_555
O4E Co2 1_555 1_555
C1F N1E 1_555 1_555
C2F C4E 1_555 1_555
H1F C2F 1_555 1_555
C3F C1F 1_555 1_555
O2F C3F 1_555 1_555
O3F C3F 1_555 1_555
O1C Co1 1_555 1_555
H2C O1C 1_555 1_555
O1D Co1A 1_555 1_555
H2D O1D 1_555 1_555
O1E Co1B 1_555 1_555
H2E O1E 1_555 1_555
Gd1_3 N1B 1_555 1_555
Gd1C N1C 1_555 1_555
Gd1C_2 N1D 1_555 1_555
Gd1C_3 N1E 1_555 1_555
Co1_2 O3C 1_555 1_555
Co1A_2 O3D 1_555 1_555
Co1B_2 O3E 1_555 1_555
Co1F O3I 1_555 1_555
Co1F_2 O3F 1_555 1_555
Co1G O3G 1_555 1_555
Co1G_2 O3J 1_555 1_555
Co1H O3H 1_555 1_555
Co1H_2 O3K 1_555 1_555
N1_2 Gd1_2 1_555 1_555
N1A_2 Gd1 1_555 1_555
N1B_2 Gd1_2 1_555 1_555
N1B_3 Gd1 1_555 1_555
O2_2 Gd1_2 1_555 1_555
O2A_2 Gd1 1_555 1_555
O2B_2 Gd1_2 1_555 1_555
O2B_3 Gd1 1_555 1_555
O2I_2 Gd1_2 1_555 1_555
O2I_3 Gd1 1_555 1_555
O2J_2 Gd1 1_555 1_555
O2K_2 Gd1_2 1_555 1_555
O3C_2 Co1 1_555 1_555
O3D_2 Co1A 1_555 1_555
O3E_2 Co1B 1_555 1_555
O3L Co1 1_555 1_555
O3M Co1A 1_555 1_555
O3N Co1B 1_555 1_555
O3O Co1 1_555 1_555
O3P Co1A 1_555 1_555
O3Q Co1B 1_555 1_555
C3 O2 1_555 1_555
C3 O3 1_555 1_555
C1K C2K 1_555 1_555
C3K O2K 1_555 1_555
C3A O2A 1_555 1_555
C3A O3A 1_555 1_555
C4A O4A 1_555 1_555
C1J C2J 1_555 1_555
C3J O2J 1_555 1_555
C3B O3B 1_555 1_555
C4B O4B 1_555 1_555
O2B Gd1_3 1_555 1_555
C1I C2I 1_555 1_555
O2I Gd1_3 1_555 1_555
C4C O4C 1_555 1_555
O2C Gd1C 1_555 1_555
C1H C2H 1_555 1_555
O2H Gd1C 1_555 1_555
C4D O4D 1_555 1_555
O2D Gd1C_2 1_555 1_555
C1G C2G 1_555 1_555
O2G Gd1C_2 1_555 1_555
C4E O4E 1_555 1_555
O2E Gd1C_3 1_555 1_555
C1F C2F 1_555 1_555
O2F Gd1C_3 1_555 1_555

#END
