
#######################################################################
#
#                 Cambridge Crystallographic Data Centre
#                                CCDC 
#
#######################################################################
#
# If this CIF has been generated from an entry in the Cambridge 
# Structural Database, then it will include bibliographic, chemical, 
# crystal, experimental, refinement or atomic coordinate data resulting 
# from the CCDC's data processing and validation procedures.
#
#######################################################################

data_ZIQJEQ
_symmetry_cell_setting           monoclinic
_symmetry_space_group_name_H-M   'C 2/c'
_symmetry_Int_Tables_number      15
_space_group_name_Hall           '-C 2yn'
loop_
_symmetry_equiv_pos_site_id
_symmetry_equiv_pos_as_xyz
1 x,y,z
2 -x,y,1/2-z
3 1/2+x,1/2+y,z
4 1/2-x,1/2+y,1/2-z
5 -x,-y,-z
6 x,-y,1/2+z
7 1/2-x,1/2-y,-z
8 1/2+x,1/2-y,1/2+z
_cell_length_a                   35.2563(16)
_cell_length_b                   15.4625(5)
_cell_length_c                   25.0510(12)
_cell_angle_alpha                90
_cell_angle_beta                 122.794(6)
_cell_angle_gamma                90
_cell_volume                     11480
loop_
_atom_site_label
_atom_site_type_symbol
_atom_site_fract_x
_atom_site_fract_y
_atom_site_fract_z
Cu1 Cu 0.0000 0.7706(2) -0.2500
N1 N 0.0065(5) 0.6721(10) -0.3010(6)
C1 C 0.0449(5) 0.6393(12) -0.2873(7)
H1 H 0.0734 0.6581 -0.2553
N2 N 0.0363(5) 0.5755(12) -0.3266(8)
N3 N -0.0075(5) 0.5688(11) -0.3645(7)
C2 C -0.0259(4) 0.6285(11) -0.3488(7)
H2 H -0.0567 0.6383 -0.3681
C3 C -0.0275(10) 0.5004(17) -0.4104(12)
H3 H -0.0601 0.5055 -0.4328
H4 H -0.0191 0.4455 -0.3881
C4 C -0.0147(8) 0.4994(17) -0.4569(11)
C5 C -0.0327(11) 0.555(2) -0.5071(14)
H5 H -0.0551 0.5930 -0.5134
C6 C 0.0181(9) 0.445(2) -0.4494(15)
H6 H 0.0312 0.4062 -0.4155
N4 N 0.0062(7) 0.8679(13) -0.2992(10)
C7 C 0.0351(7) 0.9325(15) -0.2728(10)
H7 H 0.0603 0.9339 -0.2315
N5 N 0.0218(8) 0.9949(14) -0.3153(12)
N6 N -0.0152(8) 0.9688(15) -0.3680(11)
C8 C -0.0249(7) 0.8903(15) -0.3581(10)
H8 H -0.0493 0.8566 -0.3874
C9 C -0.0351(16) 1.031(3) -0.4180(19)
H9 H -0.0297 1.0890 -0.3999
H10 H -0.0675 1.0224 -0.4441
C10 C -0.0165(18) 1.025(4) -0.457(2)
C11 C -0.0234(18) 0.956(3) -0.493(3)
H11 H -0.0420 0.9166 -0.4898
C12 C 0.0108(17) 1.079(4) -0.463(3)
H12 H 0.0206 1.1325 -0.4428
N1D N -0.0065(5) 0.3279(10) -0.6990(6)
C1D C -0.0449(5) 0.3607(12) -0.7127(7)
H1D H -0.0734 0.3419 -0.7447
N2D N -0.0363(5) 0.4245(12) -0.6734(8)
N3D N 0.0075(5) 0.4312(11) -0.6355(7)
C2D C 0.0259(4) 0.3715(11) -0.6512(7)
H2D H 0.0567 0.3617 -0.6319
C3D C 0.0275(10) 0.4996(17) -0.5896(12)
H3D H 0.0601 0.4945 -0.5672
H4D H 0.0191 0.5545 -0.6119
C4D C 0.0147(8) 0.5006(17) -0.5431(11)
C5D C 0.0327(11) 0.445(2) -0.4929(14)
H5D H 0.0551 0.4070 -0.4866
C6D C -0.0181(9) 0.555(2) -0.5506(15)
H6D H -0.0312 0.5938 -0.5845
N4D N -0.0062(7) 1.1321(13) -0.7008(10)
C7D C -0.0351(7) 1.0675(15) -0.7272(10)
H7D H -0.0603 1.0661 -0.7685
N5D N -0.0218(8) 1.0051(14) -0.6847(12)
N6D N 0.0152(8) 1.0312(15) -0.6320(11)
C8D C 0.0249(7) 1.1097(15) -0.6419(10)
H8D H 0.0493 1.1434 -0.6126
C9D C 0.0351(16) 0.969(3) -0.5820(19)
H9D H 0.0297 0.9110 -0.6001
H10D H 0.0675 0.9776 -0.5559
C10D C 0.0165(18) 0.975(4) -0.543(2)
C11D C 0.0234(18) 1.044(3) -0.507(3)
H11D H 0.0420 1.0834 -0.5102
C12D C -0.0108(17) 0.921(4) -0.537(3)
H12D H -0.0206 0.8675 -0.5572
Cu1D Cu 0.0000 0.2294(2) -0.7500
Cu1D_2 Cu 0.0000 1.2294(2) -0.7500
N1A N -0.0065(5) 0.6721(10) -0.1990(6)
N4A N -0.0062(7) 0.8679(13) -0.2008(10)
N7 N 0.3427(5) 0.9682(12) 0.3533(7)
C13 C 0.3342(6) 0.9417(12) 0.3967(9)
H13 H 0.3106 0.9605 0.4003
N8 N 0.3656(7) 0.8835(12) 0.4341(8)
N9 N 0.3935(5) 0.8740(10) 0.4138(8)
C14 C 0.3793(5) 0.9263(12) 0.3638(8)
H14 H 0.3926 0.9325 0.3406
C15 C 0.4284(7) 0.8108(14) 0.4348(13)
H15 H 0.4415 0.7988 0.4794
H16 H 0.4520 0.8335 0.4299
C16 C 0.4103(8) 0.7294(13) 0.3977(11)
C17 C 0.3996(13) 0.723(3) 0.3361(13)
H17 H 0.4009 0.7734 0.3166
C18 C 0.4060(10) 0.6541(16) 0.4233(13)
H18 H 0.4134 0.6542 0.4650
N10 N 0.2544(5) 0.4817(11) 0.2421(8)
C19 C 0.2682(6) 0.4042(11) 0.2659(9)
H19 H 0.2507 0.3612 0.2682
N11 N 0.3109(5) 0.3979(11) 0.2859(9)
N12 N 0.3236(5) 0.4715(11) 0.2745(8)
C20 C 0.2886(5) 0.5233(11) 0.2475(9)
H20 H 0.2882 0.5797 0.2343
C21 C 0.3683(5) 0.4915(14) 0.2910(11)
H21 H 0.3687 0.4978 0.2528
H22 H 0.3887 0.4450 0.3162
C22 C 0.3831(8) 0.5735(13) 0.3280(10)
C23 C 0.3873(12) 0.6491(17) 0.3025(16)
H23 H 0.3816 0.6490 0.2616
C24 C 0.3908(11) 0.578(2) 0.3882(11)
H24 H 0.3857 0.5294 0.4054
N13 N 0.2638(6) 1.1240(11) 0.2019(7)
C25 C 0.2654(7) 1.2082(12) 0.2079(8)
H25 H 0.2827 1.2389 0.2456
N14 N 0.2386(7) 1.2416(11) 0.1514(9)
N15 N 0.2204(6) 1.1781(11) 0.1107(7)
C26 C 0.2359(6) 1.1054(10) 0.1419(7)
H26 H 0.2285 1.0502 0.1244
C27 C 0.1940(8) 1.189(2) 0.0432(8)
H27 H 0.1698 1.2301 0.0321
H28 H 0.1804 1.1346 0.0231
C28 C 0.2207(9) 1.2214(13) 0.0185(12)
C29 C 0.2500(9) 1.1664(17) 0.0162(13)
H29 H 0.2506 1.1087 0.0272
C30 C 0.2203(10) 1.3057(12) 0.0025(12)
H30 H 0.2008 1.3449 0.0038
N16 N 0.3554(8) 1.0921(16) 0.2771(12)
C31 C 0.3812(9) 1.1609(17) 0.3121(12)
H31 H 0.3842 1.1819 0.3490
N17 N 0.4018(9) 1.1935(17) 0.2834(13)
N18 N 0.3888(9) 1.1449(19) 0.2308(13)
C32 C 0.3601(9) 1.0823(17) 0.2269(11)
H32 H 0.3462 1.0402 0.1955
C33 C 0.4039(9) 1.142(3) 0.1880(15)
H33 H 0.3865 1.1826 0.1539
H34 H 0.3979 1.0843 0.1694
C34 C 0.4519(10) 1.161(2) 0.218(2)
C35 C 0.4766(12) 1.087(3) 0.235(2)
H35 H 0.4618 1.0341 0.2281
C36 C 0.4765(13) 1.235(3) 0.234(3)
H36 H 0.4614 1.2879 0.2224
Cu2 Cu 0.30333(10) 1.0432(2) 0.27651(14)
N13F N 0.2362(6) 1.3760(11) -0.2019(7)
C25F C 0.2346(7) 1.2918(12) -0.2079(8)
H25F H 0.2173 1.2611 -0.2456
N14F N 0.2614(7) 1.2584(11) -0.1514(9)
N15F N 0.2796(6) 1.3219(11) -0.1107(7)
C26F C 0.2641(6) 1.3946(10) -0.1419(7)
H26F H 0.2715 1.4498 -0.1244
C27F C 0.3060(8) 1.311(2) -0.0432(8)
H27F H 0.3302 1.2699 -0.0321
H28F H 0.3196 1.3654 -0.0231
C28F C 0.2793(9) 1.2786(13) -0.0185(12)
C29F C 0.2500(9) 1.3336(17) -0.0162(13)
H29F H 0.2494 1.3913 -0.0272
C30F C 0.2797(10) 1.1943(12) -0.0025(12)
H30F H 0.2992 1.1551 -0.0038
N16A N 0.6446(8) 1.0921(16) 0.2229(12)
C31A C 0.6188(9) 1.1609(17) 0.1879(12)
H31A H 0.6158 1.1819 0.1510
N17A N 0.5982(9) 1.1935(17) 0.2166(13)
N18A N 0.6112(9) 1.1449(19) 0.2692(13)
C32A C 0.6399(9) 1.0823(17) 0.2731(11)
H32A H 0.6538 1.0402 0.3045
C33A C 0.5961(9) 1.142(3) 0.3120(15)
H33A H 0.6135 1.1826 0.3461
H34A H 0.6021 1.0843 0.3306
C34A C 0.5481(10) 1.161(2) 0.282(2)
C35A C 0.5234(12) 1.087(3) 0.265(2)
H35A H 0.5382 1.0341 0.2719
C36A C 0.5235(13) 1.235(3) 0.266(3)
H36A H 0.5386 1.2879 0.2776
N7A N 0.6573(5) 0.9682(12) 0.1467(7)
C13A C 0.6658(6) 0.9417(12) 0.1033(9)
H13A H 0.6894 0.9605 0.0997
N8A N 0.6344(7) 0.8835(12) 0.0659(8)
N9A N 0.6065(5) 0.8740(10) 0.0862(8)
C14A C 0.6207(5) 0.9263(12) 0.1362(8)
H14A H 0.6074 0.9325 0.1594
C15A C 0.5716(7) 0.8108(14) 0.0652(13)
H15A H 0.5585 0.7988 0.0206
H16A H 0.5480 0.8335 0.0701
C16A C 0.5897(8) 0.7294(13) 0.1023(11)
C17A C 0.6004(13) 0.723(3) 0.1639(13)
H17A H 0.5991 0.7734 0.1834
C18A C 0.5940(10) 0.6541(16) 0.0767(13)
H18A H 0.5866 0.6542 0.0350
N10A N 0.7456(5) 0.4817(11) 0.2579(8)
C19A C 0.7318(6) 0.4042(11) 0.2341(9)
H19A H 0.7493 0.3612 0.2318
N11A N 0.6891(5) 0.3979(11) 0.2141(9)
N12A N 0.6764(5) 0.4715(11) 0.2255(8)
C20A C 0.7114(5) 0.5233(11) 0.2525(9)
H20A H 0.7118 0.5797 0.2657
C21A C 0.6317(5) 0.4915(14) 0.2090(11)
H21A H 0.6313 0.4978 0.2472
H22A H 0.6113 0.4450 0.1838
C22A C 0.6169(8) 0.5735(13) 0.1720(10)
C23A C 0.6127(12) 0.6491(17) 0.1975(16)
H23A H 0.6184 0.6490 0.2384
C24A C 0.6092(11) 0.578(2) 0.1118(11)
H24A H 0.6143 0.5294 0.0946
Cu2A Cu 0.69667(10) 1.0432(2) 0.22349(14)
N10B N 0.7544(5) 0.9817(11) 0.2421(8)
N10C N 0.2456(5) 0.9817(11) 0.2579(8)
N13A N 0.7362(6) 1.1240(11) 0.2981(7)
Cu2B Cu 0.80333(10) 0.5432(2) 0.27651(14)
Cu2C Cu 0.19667(10) 0.5432(2) 0.22349(14)
Cu2F Cu 0.19667(10) 1.4568(2) -0.27651(14)
O23 O 0.0809(10) 0.729(2) -0.0197(15)
O24 O -0.106(2) 1.081(5) -0.378(3)
O25 O 0.411(3) 0.794(5) 0.567(4)
O26 O 0.3972(18) 1.297(4) 0.401(3)
W1 W 0.28480(3) 0.80668(7) -0.10430(4)
W2 W 0.13598(3) 0.77353(9) -0.12337(5)
W3 W 0.32628(4) 0.92421(8) 0.03914(5)
W4 W 0.29337(4) 0.86465(8) 0.14431(5)
W5 W 0.17906(4) 0.89155(9) 0.01903(6)
W6 W 0.21199(4) 0.94559(8) -0.08707(5)
O1 O 0.2387(8) 0.7783(17) 0.0520(12)
O2 O 0.2356(8) 0.6764(18) 0.0262(12)
O3 O 0.2076(8) 0.6966(17) -0.0565(11)
O4 O 0.3144(7) 0.9371(15) 0.1037(10)
O5 O 0.2639(5) 0.7727(11) 0.1527(9)
O6 O 0.1930(8) 0.9614(16) -0.0309(10)
O7 O 0.1363(7) 0.8338(15) -0.0564(10)
O8 O 0.2362(5) 0.9173(12) 0.0912(9)
O9 O 0.1946(7) 1.0340(12) -0.1287(8)
O10 O 0.3249(6) 0.8709(11) -0.0318(8)
O11 O 0.3123(6) 0.9226(12) 0.2106(8)
O12 O 0.1703(9) 0.8531(18) -0.1259(12)
O13 O 0.3005(6) 0.8370(13) -0.1547(8)
O14 O 0.3197(6) 0.7093(12) -0.0643(10)
O15 O 0.2385(6) 0.8882(12) -0.1250(8)
O16 O 0.3663(6) 0.8326(15) 0.0864(9)
O17 O 0.3628(6) 1.0037(12) 0.0584(9)
O18 O 0.2712(5) 0.9769(13) -0.0192(7)
O19 O 0.3406(7) 0.7870(13) 0.1653(9)
O20 O 0.1475(6) 0.9579(12) 0.0290(9)
O21 O 0.0817(4) 0.7818(10) -0.1807(6)
O22 O 0.2075(8) 0.8218(17) -0.0367(12)
As1 As 0.2500 0.7500 0.0000
O1F O 0.2613(8) 0.7217(17) -0.0520(12)
O2F O 0.2644(8) 0.8236(18) -0.0262(12)
O3F O 0.2924(8) 0.8034(17) 0.0565(11)
O22F O 0.2925(8) 0.6782(17) 0.0367(12)
W1F W 0.21520(3) 0.69332(7) 0.10430(4)
W2F W 0.36402(3) 0.72647(9) 0.12337(5)
W3F W 0.17372(4) 0.57579(8) -0.03914(5)
W4F W 0.20663(4) 0.63535(8) -0.14431(5)
W5F W 0.32094(4) 0.60845(9) -0.01903(6)
W6F W 0.28801(4) 0.55441(8) 0.08707(5)
O4F O 0.1856(7) 0.5629(15) -0.1037(10)
O5F O 0.2361(5) 0.7273(11) -0.1527(9)
O6F O 0.3070(8) 0.5386(16) 0.0309(10)
O7F O 0.3637(7) 0.6662(15) 0.0564(10)
O8F O 0.2638(5) 0.5827(12) -0.0912(9)
O9F O 0.3054(7) 0.4660(12) 0.1287(8)
O10F O 0.1751(6) 0.6291(11) 0.0318(8)
O11F O 0.1877(6) 0.5774(12) -0.2106(8)
O12F O 0.3297(9) 0.6469(18) 0.1259(12)
O13F O 0.1995(6) 0.6630(13) 0.1547(8)
O14F O 0.1803(6) 0.7907(12) 0.0643(10)
O15F O 0.2615(6) 0.6118(12) 0.1250(8)
O16F O 0.1337(6) 0.6674(15) -0.0864(9)
O17F O 0.1372(6) 0.4963(12) -0.0584(9)
O18F O 0.2288(5) 0.5231(13) 0.0192(7)
O19F O 0.1594(7) 0.7130(13) -0.1653(9)
O20F O 0.3525(6) 0.5421(12) -0.0290(9)
O21F O 0.4183(4) 0.7182(10) 0.1807(6)
O27? O 0.1518(9) 0.8906(18) -0.1432(12)
loop_
_geom_bond_atom_site_label_1
_geom_bond_atom_site_label_2
_geom_bond_site_symmetry_1
_geom_bond_site_symmetry_2
W1 O10 1_555 1_555
W2 O3 1_555 1_555
W3 O4 1_555 1_555
W4 O1 1_555 1_555
W5 O6 1_555 1_555
W6 O6 1_555 1_555
O1 O2 1_555 1_555
O2 O3 1_555 1_555
O3 As1 1_555 1_555
O4 W4 1_555 1_555
O5 W4 1_555 1_555
O7 W2 1_555 1_555
O8 W4 1_555 1_555
O9 W6 1_555 1_555
O10 W3 1_555 1_555
O11 W4 1_555 1_555
O12 W2 1_555 1_555
O13 W1 1_555 1_555
O14 W1 1_555 1_555
O15 W1 1_555 1_555
O16 W3 1_555 1_555
O17 W3 1_555 1_555
O18 W3 1_555 1_555
O19 W4 1_555 1_555
O20 W5 1_555 1_555
O21 W2 1_555 1_555
O22 W2 1_555 1_555
As1 O1 1_555 1_555
Cu1 N1 1_555 1_555
N1 C1 1_555 1_555
C1 H1 1_555 1_555
N2 C1 1_555 1_555
N3 N2 1_555 1_555
C2 N1 1_555 1_555
H2 C2 1_555 1_555
C3 N3 1_555 1_555
H3 C3 1_555 1_555
H4 C3 1_555 1_555
C4 C3 1_555 1_555
C5 C4 1_555 1_555
H5 C5 1_555 1_555
C6 C4 1_555 1_555
H6 C6 1_555 1_555
N4 Cu1 1_555 1_555
C7 N4 1_555 1_555
H7 C7 1_555 1_555
N5 C7 1_555 1_555
N6 N5 1_555 1_555
C8 N4 1_555 1_555
H8 C8 1_555 1_555
C9 N6 1_555 1_555
H9 C9 1_555 1_555
H10 C9 1_555 1_555
C10 C9 1_555 1_555
C11 C10 1_555 1_555
H11 C11 1_555 1_555
C12 C10 1_555 1_555
H12 C12 1_555 1_555
N7 C13 1_555 1_555
C13 H13 1_555 1_555
N8 C13 1_555 1_555
N9 N8 1_555 1_555
C14 N7 1_555 1_555
H14 C14 1_555 1_555
C15 N9 1_555 1_555
H15 C15 1_555 1_555
H16 C15 1_555 1_555
C16 C15 1_555 1_555
C17 C16 1_555 1_555
H17 C17 1_555 1_555
C18 C16 1_555 1_555
H18 C18 1_555 1_555
N10 C19 1_555 1_555
C19 H19 1_555 1_555
N11 C19 1_555 1_555
N12 N11 1_555 1_555
C20 N10 1_555 1_555
H20 C20 1_555 1_555
C21 N12 1_555 1_555
H21 C21 1_555 1_555
H22 C21 1_555 1_555
C22 C21 1_555 1_555
C23 C17 1_555 1_555
H23 C23 1_555 1_555
C24 C18 1_555 1_555
H24 C24 1_555 1_555
N13 C25 1_555 1_555
C25 H25 1_555 1_555
N14 C25 1_555 1_555
N15 N14 1_555 1_555
C26 N13 1_555 1_555
H26 C26 1_555 1_555
C27 N15 1_555 1_555
H27 C27 1_555 1_555
H28 C27 1_555 1_555
C28 C27 1_555 1_555
C29 C28 1_555 1_555
H29 C29 1_555 1_555
C30 C28 1_555 1_555
H30 C30 1_555 1_555
N16 C31 1_555 1_555
C31 H31 1_555 1_555
N17 C31 1_555 1_555
N18 N17 1_555 1_555
C32 N16 1_555 1_555
H32 C32 1_555 1_555
C33 N18 1_555 1_555
H33 C33 1_555 1_555
H34 C33 1_555 1_555
C34 C33 1_555 1_555
C35 C34 1_555 1_555
H35 C35 1_555 1_555
C36 C34 1_555 1_555
H36 C36 1_555 1_555
Cu2 N7 1_555 1_555
O1F W1 1_555 1_555
O2F W1 1_555 1_555
O3F W3 1_555 1_555
O22F As1 1_555 1_555
W1F O1 1_555 1_555
W2F O16 1_555 1_555
W3F O2 1_555 1_555
W4F O3 1_555 1_555
W5F O14 1_555 1_555
W6F O2 1_555 1_555
O4F W3F 1_555 1_555
O5F W1 1_555 1_555
O6F W5F 1_555 1_555
O7F W2F 1_555 1_555
O8F W4F 1_555 1_555
O9F W6F 1_555 1_555
O10F W1F 1_555 1_555
O11F W4F 1_555 1_555
O12F W2F 1_555 1_555
O13F W1F 1_555 1_555
O14F W5 1_555 1_555
O15F W1F 1_555 1_555
O16F W2 1_555 1_555
O17F W3F 1_555 1_555
O18F W3F 1_555 1_555
O19F W2 1_555 1_555
O20F W5F 1_555 1_555
O21F W2F 1_555 1_555
N1D C1D 1_555 1_555
C1D H1D 1_555 1_555
N2D C1D 1_555 1_555
N3D N2D 1_555 1_555
C2D N1D 1_555 1_555
H2D C2D 1_555 1_555
C3D N3D 1_555 1_555
H3D C3D 1_555 1_555
H4D C3D 1_555 1_555
C4D C3D 1_555 1_555
C5D C6 1_555 1_555
H5D C5D 1_555 1_555
C6D C5 1_555 1_555
H6D C6D 1_555 1_555
N4D C7D 1_555 1_555
C7D H7D 1_555 1_555
N5D C7D 1_555 1_555
N6D N5D 1_555 1_555
C8D N4D 1_555 1_555
H8D C8D 1_555 1_555
C9D N6D 1_555 1_555
H9D C9D 1_555 1_555
H10D C9D 1_555 1_555
C10D C9D 1_555 1_555
C11D C12 1_555 1_555
H11D C11D 1_555 1_555
C12D C11 1_555 1_555
H12D C12D 1_555 1_555
Cu1D N1D 1_555 1_555
Cu1D_2 N4D 1_555 1_555
N1A Cu1 1_555 1_555
N4A Cu1 1_555 1_555
N13F C25F 1_555 1_555
C25F H25F 1_555 1_555
N14F C25F 1_555 1_555
N15F N14F 1_555 1_555
C26F N13F 1_555 1_555
H26F C26F 1_555 1_555
C27F N15F 1_555 1_555
H27F C27F 1_555 1_555
H28F C27F 1_555 1_555
C28F C27F 1_555 1_555
C29F C30 1_555 1_555
H29F C29F 1_555 1_555
C30F C29 1_555 1_555
H30F C30F 1_555 1_555
N16A C31A 1_555 1_555
C31A H31A 1_555 1_555
N17A C31A 1_555 1_555
N18A N17A 1_555 1_555
C32A N16A 1_555 1_555
H32A C32A 1_555 1_555
C33A N18A 1_555 1_555
H33A C33A 1_555 1_555
H34A C33A 1_555 1_555
C34A C33A 1_555 1_555
C35A C35 1_555 1_555
H35A C35A 1_555 1_555
C36A C36 1_555 1_555
H36A C36A 1_555 1_555
N7A C13A 1_555 1_555
C13A H13A 1_555 1_555
N8A C13A 1_555 1_555
N9A N8A 1_555 1_555
C14A N7A 1_555 1_555
H14A C14A 1_555 1_555
C15A N9A 1_555 1_555
H15A C15A 1_555 1_555
H16A C15A 1_555 1_555
C16A C15A 1_555 1_555
C17A C16A 1_555 1_555
H17A C17A 1_555 1_555
C18A C16A 1_555 1_555
H18A C18A 1_555 1_555
N10A C19A 1_555 1_555
C19A H19A 1_555 1_555
N11A C19A 1_555 1_555
N12A N11A 1_555 1_555
C20A N10A 1_555 1_555
H20A C20A 1_555 1_555
C21A N12A 1_555 1_555
H21A C21A 1_555 1_555
H22A C21A 1_555 1_555
C22A C21A 1_555 1_555
C23A C17A 1_555 1_555
H23A C23A 1_555 1_555
C24A C18A 1_555 1_555
H24A C24A 1_555 1_555
Cu2A N16A 1_555 1_555
N10B Cu2A 1_555 1_555
N10C Cu2 1_555 1_555
N13A Cu2A 1_555 1_555
Cu2B N10A 1_555 1_555
Cu2C N10 1_555 1_555
Cu2F N13F 1_555 1_555
W3 O2F 1_555 1_555
W4 O3F 1_555 1_555
W5 O7 1_555 1_555
W5 O8 1_555 1_555
W5 O22 1_555 1_555
W6 O12 1_555 1_555
W6 O15 1_555 1_555
W6 O18 1_555 1_555
W6 O22 1_555 1_555
W6 O2F 1_555 1_555
O2 As1 1_555 1_555
O2 W1F 1_555 1_555
O3 W3F 1_555 1_555
O5 W1F 1_555 1_555
O19 W2F 1_555 1_555
O22 As1 1_555 1_555
As1 O1F 1_555 1_555
As1 O2F 1_555 1_555
As1 O3F 1_555 1_555
N3 C2 1_555 1_555
N6 C8 1_555 1_555
N9 C14 1_555 1_555
N12 C20 1_555 1_555
C22 C23 1_555 1_555
C22 C24 1_555 1_555
N13 Cu2 1_555 1_555
N15 C26 1_555 1_555
N16 Cu2 1_555 1_555
N18 C32 1_555 1_555
O1F O2F 1_555 1_555
O1F W4F 1_555 1_555
O2F O3F 1_555 1_555
O3F W2F 1_555 1_555
O22F W2F 1_555 1_555
O22F W5F 1_555 1_555
O22F W6F 1_555 1_555
W1F O14F 1_555 1_555
W3F O10F 1_555 1_555
W3F O16F 1_555 1_555
W4F O4F 1_555 1_555
W4F O5F 1_555 1_555
W4F O19F 1_555 1_555
W5F O7F 1_555 1_555
W5F O8F 1_555 1_555
W6F O6F 1_555 1_555
W6F O12F 1_555 1_555
W6F O15F 1_555 1_555
W6F O18F 1_555 1_555
N3D C2D 1_555 1_555
C4D C5D 1_555 1_555
C4D C6D 1_555 1_555
N6D C8D 1_555 1_555
C10D C11D 1_555 1_555
C10D C12D 1_555 1_555
N15F C26F 1_555 1_555
C28F C29F 1_555 1_555
C28F C30F 1_555 1_555
N18A C32A 1_555 1_555
C34A C35A 1_555 1_555
C34A C36A 1_555 1_555
N7A Cu2A 1_555 1_555
N9A C14A 1_555 1_555
N12A C20A 1_555 1_555
C22A C23A 1_555 1_555
C22A C24A 1_555 1_555

#END
