
#######################################################################
#
#                 Cambridge Crystallographic Data Centre
#                                CCDC 
#
#######################################################################
#
# If this CIF has been generated from an entry in the Cambridge 
# Structural Database, then it will include bibliographic, chemical, 
# crystal, experimental, refinement or atomic coordinate data resulting 
# from the CCDC's data processing and validation procedures.
#
#######################################################################

data_ZIQWAZ
_symmetry_cell_setting           triclinic
_symmetry_space_group_name_H-M   'P -1'
_symmetry_Int_Tables_number      2
_space_group_name_Hall           '-P 1'
loop_
_symmetry_equiv_pos_site_id
_symmetry_equiv_pos_as_xyz
1 x,y,z
2 -x,-y,-z
_cell_length_a                   12.0429(3)
_cell_length_b                   15.5365(4)
_cell_length_c                   21.1643(6)
_cell_angle_alpha                73.922(2)
_cell_angle_beta                 84.711(2)
_cell_angle_gamma                67.594(2)
_cell_volume                     3517.39
loop_
_atom_site_label
_atom_site_type_symbol
_atom_site_fract_x
_atom_site_fract_y
_atom_site_fract_z
Co1 Co 0.57543(6) 0.22013(5) 0.16047(4)
C1 C 0.7313(5) 0.3493(4) 0.1352(3)
H1 H 0.6626 0.4053 0.1273
C2 C 0.8424(5) 0.2035(4) 0.1552(3)
H2 H 0.8716 0.1365 0.1642
C3 C 1.0415(5) 0.2238(4) 0.1506(3)
H3 H 1.0736 0.1669 0.1870
H4 H 1.0625 0.2744 0.1584
C4 C 1.0990(4) 0.2009(4) 0.0873(3)
C5 C 1.2133(5) 0.1302(4) 0.0894(3)
H5 H 1.2538 0.0970 0.1294
C6 C 1.2672(5) 0.1091(4) 0.0315(3)
H6 H 1.3442 0.0626 0.0331
C7 C 1.2077(5) 0.1563(4) -0.0278(3)
C8 C 1.0941(5) 0.2271(5) -0.0299(3)
H7 H 1.0531 0.2596 -0.0699
C9 C 1.0415(5) 0.2494(5) 0.0274(3)
H8 H 0.9660 0.2981 0.0254
C10 C 1.2601(6) 0.1349(4) -0.0919(3)
H9 H 1.2041 0.1775 -0.1276
H10 H 1.3339 0.1474 -0.1000
C11 C 1.2287(4) -0.0200(4) -0.0521(3)
H11 H 1.1741 -0.0038 -0.0193
C12 C 1.3566(5) -0.0147(4) -0.1310(3)
H12 H 1.4053 0.0081 -0.1623
C13 C 0.3915(6) 0.1156(5) 0.2255(4)
H13 H 0.4393 0.0557 0.2190
C14 C 0.3192(5) 0.2645(4) 0.2160(3)
H14 H 0.3041 0.3302 0.2031
C15 C 0.1646(6) 0.2669(6) 0.3028(3)
H15 H 0.1145 0.2290 0.3175
H16 H 0.1135 0.3316 0.2796
C16 C 0.2220(5) 0.2711(5) 0.3617(3)
C17 C 0.1507(5) 0.3174(5) 0.4060(4)
H17 H 0.0680 0.3453 0.3990
C18 C 0.1988(5) 0.3235(5) 0.4606(3)
H18 H 0.1485 0.3552 0.4898
C19 C 0.3209(5) 0.2826(4) 0.4719(3)
C20 C 0.3929(6) 0.2368(6) 0.4282(4)
H19 H 0.4757 0.2095 0.4350
C21 C 0.3439(6) 0.2307(7) 0.3743(4)
H20 H 0.3945 0.1984 0.3455
C22 C 0.3838(5) 0.2911(5) 0.5270(3)
H21 H 0.4290 0.2268 0.5536
H22 H 0.4407 0.3213 0.5082
C23 C 0.2398(5) 0.3063(4) 0.6160(3)
H23 H 0.2361 0.2455 0.6245
C24 C 0.2883(5) 0.4331(4) 0.5726(3)
H24 H 0.3237 0.4735 0.5455
C25 C 0.6459(5) 0.1845(5) 0.3069(3)
H25 H 0.6403 0.2481 0.2980
C26 C 0.6510(5) 0.0562(5) 0.2927(3)
H26 H 0.6509 0.0083 0.2743
C27 C 0.6763(7) -0.0407(5) 0.4109(4)
H27 H 0.6905 -0.0957 0.3938
H28 H 0.6018 -0.0289 0.4350
C28 C 0.7778(6) -0.0634(4) 0.4569(3)
C29 C 0.7587(6) -0.0386(5) 0.5158(3)
H29 H 0.6806 -0.0081 0.5284
C30 C 0.8532(5) -0.0580(5) 0.5563(3)
H30 H 0.8384 -0.0420 0.5963
C31 C 0.9702(5) -0.1013(4) 0.5378(3)
C32 C 0.9885(6) -0.1232(5) 0.4784(3)
H31 H 1.0667 -0.1503 0.4645
C33 C 0.8941(7) -0.1062(5) 0.4385(3)
H32 H 0.9091 -0.1237 0.3991
C34 C 1.0757(5) -0.1240(4) 0.5812(3)
H33 H 1.1408 -0.1125 0.5542
H34 H 1.0524 -0.0820 0.6105
C35 C 1.1173(5) -0.2495(4) 0.6857(3)
H35 H 1.0983 -0.2088 0.7133
C36 C 1.1506(6) -0.3040(5) 0.5987(3)
H36 H 1.1580 -0.3044 0.5547
C37 C 0.4787(5) 0.3978(4) 0.0372(3)
H37 H 0.5324 0.4241 0.0447
C38 C 0.3908(5) 0.3022(4) 0.0469(3)
H38 H 0.3681 0.2491 0.0606
C39 C 0.2377(4) 0.4012(4) -0.0452(3)
H39 H 0.2381 0.3414 -0.0512
H40 H 0.2489 0.4401 -0.0881
C40 C 0.1162(5) 0.4540(4) -0.0203(3)
C41 C 0.0184(5) 0.4823(4) -0.0608(3)
H41 H 0.0300 0.4706 -0.1022
C42 C 0.0973(5) 0.4721(4) 0.0406(3)
H42 H 0.1623 0.4536 0.0685
N1 N 0.7272(4) 0.2602(3) 0.1471(2)
N2 N 0.8398(4) 0.3506(3) 0.1356(3)
N3 N 0.9097(4) 0.2549(3) 0.1487(2)
N4 N 1.2855(4) 0.0332(3) -0.0906(2)
N5 N 1.2663(5) -0.0998(5) -0.0705(3)
N6 N 1.3479(4) -0.0999(3) -0.1204(2)
N7 N 0.4093(4) 0.1983(3) 0.1944(2)
N8 N 0.3002(5) 0.1281(4) 0.2659(3)
N9 N 0.2539(4) 0.2243(4) 0.2581(3)
N10 N 0.3035(4) 0.3462(3) 0.5693(2)
N11 N 0.1855(5) 0.3725(5) 0.6461(3)
N12 N 0.2140(4) 0.4535(4) 0.6212(3)
N13 N 0.6371(4) 0.1444(3) 0.2591(2)
N14 N 0.6627(5) 0.1278(4) 0.3660(3)
N15 N 0.6652(4) 0.0443(4) 0.3560(3)
N16 N 1.1169(4) -0.2254(3) 0.6202(3)
N17 N 1.1505(6) -0.3438(5) 0.7024(4)
N18 N 1.1721(5) -0.3814(4) 0.6485(3)
N19 N 0.4783(4) 0.3122(3) 0.0739(2)
N20 N 0.3975(4) 0.4415(3) -0.0101(3)
N21 N 0.3403(4) 0.3784(3) -0.0025(2)
C37A C -0.4787(5) 0.6022(4) -0.0372(3)
H37A H -0.5324 0.5759 -0.0447
C38A C -0.3908(5) 0.6978(4) -0.0469(3)
H38A H -0.3681 0.7509 -0.0606
C39A C -0.2377(4) 0.5988(4) 0.0452(3)
H39A H -0.2381 0.6586 0.0512
H40A H -0.2489 0.5599 0.0881
C40A C -0.1162(5) 0.5460(4) 0.0203(3)
C41A C -0.0184(5) 0.5177(4) 0.0608(3)
H41A H -0.0300 0.5294 0.1022
C42A C -0.0973(5) 0.5279(4) -0.0406(3)
H42A H -0.1623 0.5464 -0.0685
N19A N -0.4783(4) 0.6878(3) -0.0739(2)
N20A N -0.3975(4) 0.5585(3) 0.0101(3)
N21A N -0.3403(4) 0.6216(3) 0.0025(2)
Co1A Co -0.57543(6) 0.77987(5) -0.16047(4)
C1A C -0.7313(5) 0.6507(4) -0.1352(3)
H1A H -0.6626 0.5947 -0.1273
C2A C -0.8424(5) 0.7965(4) -0.1552(3)
H2A H -0.8716 0.8635 -0.1642
C3A C -1.0415(5) 0.7762(4) -0.1506(3)
H3A H -1.0736 0.8331 -0.1870
H4A H -1.0625 0.7256 -0.1584
C4A C -1.0990(4) 0.7991(4) -0.0873(3)
C5A C -1.2133(5) 0.8698(4) -0.0894(3)
H5A H -1.2538 0.9030 -0.1294
C6A C -1.2672(5) 0.8909(4) -0.0315(3)
H6A H -1.3442 0.9374 -0.0331
C7A C -1.2077(5) 0.8437(4) 0.0278(3)
C8A C -1.0941(5) 0.7729(5) 0.0299(3)
H7A H -1.0531 0.7404 0.0699
C9A C -1.0415(5) 0.7506(5) -0.0274(3)
H8A H -0.9660 0.7019 -0.0254
C10A C -1.2601(6) 0.8651(4) 0.0919(3)
H9A H -1.2041 0.8225 0.1276
H10A H -1.3339 0.8526 0.1000
C11A C -1.2287(4) 1.0200(4) 0.0521(3)
H11A H -1.1741 1.0038 0.0193
C12A C -1.3566(5) 1.0147(4) 0.1310(3)
H12A H -1.4053 0.9919 0.1623
C13A C -0.3915(6) 0.8844(5) -0.2255(4)
H13A H -0.4393 0.9443 -0.2190
C14A C -0.3192(5) 0.7355(4) -0.2160(3)
H14A H -0.3041 0.6698 -0.2031
C15A C -0.1646(6) 0.7331(6) -0.3028(3)
H15A H -0.1145 0.7710 -0.3175
H16A H -0.1135 0.6684 -0.2796
C16A C -0.2220(5) 0.7289(5) -0.3617(3)
C17A C -0.1507(5) 0.6826(5) -0.4060(4)
H17A H -0.0680 0.6547 -0.3990
C18A C -0.1988(5) 0.6765(5) -0.4606(3)
H18A H -0.1485 0.6448 -0.4898
C19A C -0.3209(5) 0.7174(4) -0.4719(3)
C20A C -0.3929(6) 0.7632(6) -0.4282(4)
H19A H -0.4757 0.7905 -0.4350
C21A C -0.3439(6) 0.7693(7) -0.3743(4)
H20A H -0.3945 0.8016 -0.3455
C22A C -0.3838(5) 0.7089(5) -0.5270(3)
H21A H -0.4290 0.7732 -0.5536
H22A H -0.4407 0.6787 -0.5082
C23A C -0.2398(5) 0.6937(4) -0.6160(3)
H23A H -0.2361 0.7545 -0.6245
C24A C -0.2883(5) 0.5669(4) -0.5726(3)
H24A H -0.3237 0.5265 -0.5455
C25A C -0.6459(5) 0.8155(5) -0.3069(3)
H25A H -0.6403 0.7519 -0.2980
C26A C -0.6510(5) 0.9438(5) -0.2927(3)
H26A H -0.6509 0.9917 -0.2743
C27A C -0.6763(7) 1.0407(5) -0.4109(4)
H27A H -0.6905 1.0957 -0.3938
H28A H -0.6018 1.0289 -0.4350
C28A C -0.7778(6) 1.0634(4) -0.4569(3)
C29A C -0.7587(6) 1.0386(5) -0.5158(3)
H29A H -0.6806 1.0081 -0.5284
C30A C -0.8532(5) 1.0580(5) -0.5563(3)
H30A H -0.8384 1.0420 -0.5963
C31A C -0.9702(5) 1.1013(4) -0.5378(3)
C32A C -0.9885(6) 1.1232(5) -0.4784(3)
H31A H -1.0667 1.1503 -0.4645
C33A C -0.8941(7) 1.1062(5) -0.4385(3)
H32A H -0.9091 1.1237 -0.3991
C34A C -1.0757(5) 1.1240(4) -0.5812(3)
H33A H -1.1408 1.1125 -0.5542
H34A H -1.0524 1.0820 -0.6105
C35A C -1.1173(5) 1.2495(4) -0.6857(3)
H35A H -1.0983 1.2088 -0.7133
C36A C -1.1506(6) 1.3040(5) -0.5987(3)
H36A H -1.1580 1.3044 -0.5547
N1A N -0.7272(4) 0.7398(3) -0.1471(2)
N2A N -0.8398(4) 0.6494(3) -0.1356(3)
N3A N -0.9097(4) 0.7451(3) -0.1487(2)
N4A N -1.2855(4) 0.9668(3) 0.0906(2)
N5A N -1.2663(5) 1.0998(5) 0.0705(3)
N6A N -1.3479(4) 1.0999(3) 0.1204(2)
N7A N -0.4093(4) 0.8017(3) -0.1944(2)
N8A N -0.3002(5) 0.8719(4) -0.2659(3)
N9A N -0.2539(4) 0.7757(4) -0.2581(3)
N10A N -0.3035(4) 0.6538(3) -0.5693(2)
N11A N -0.1855(5) 0.6275(5) -0.6461(3)
N12A N -0.2140(4) 0.5465(4) -0.6212(3)
N13A N -0.6371(4) 0.8556(3) -0.2591(2)
N14A N -0.6627(5) 0.8722(4) -0.3660(3)
N15A N -0.6652(4) 0.9557(4) -0.3560(3)
N16A N -1.1169(4) 1.2254(3) -0.6202(3)
N17A N -1.1505(6) 1.3438(5) -0.7024(4)
N18A N -1.1721(5) 1.3814(4) -0.6485(3)
Co1_2 Co -1.42457(6) 1.22013(5) 0.16047(4)
Co1A_2 Co 1.42457(6) -0.22013(5) -0.16047(4)
N6_2 N -0.6521(4) 0.9001(3) -0.1204(2)
N6A_2 N 0.6521(4) 0.0999(3) 0.1204(2)
P1 P 0.28218(11) 0.70921(9) 0.24561(7)
Mo1 Mo 0.25297(5) 0.67485(4) 0.08927(2)
Mo2 Mo 0.31137(4) 0.73088(3) 0.40563(2)
Mo3 Mo 0.09724(4) 0.91317(3) 0.12430(2)
Mo4 Mo 0.10685(4) 0.58186(4) 0.22048(3)
Mo5 Mo -0.03571(4) 0.81899(3) 0.25908(3)
Mo6 Mo 0.47010(4) 0.83054(3) 0.26363(3)
Mo7 Mo 0.45402(4) 0.51295(4) 0.37289(2)
Mo8 Mo 0.14784(4) 0.60308(4) 0.38622(2)
Mo9 Mo 0.59771(4) 0.61668(3) 0.22432(3)
Mo10 Mo 0.13918(4) 0.94084(3) 0.27307(2)
Mo11 Mo 0.42683(4) 0.81680(4) 0.11006(2)
Mo12 Mo 0.41191(4) 0.47970(3) 0.21092(2)
O1 O 0.3719(3) 0.7266(3) 0.08679(19)
O2 O 0.2696(3) 0.6411(2) 0.20864(17)
O3 O 0.0611(3) 0.5601(3) 0.4421(2)
O4 O 0.1964(3) 0.6734(3) 0.43520(18)
O5 O 0.1704(3) 0.8031(2) 0.23145(17)
O6 O 0.4326(3) 0.6022(3) 0.42325(18)
O7 O 0.5535(3) 0.4123(3) 0.4199(2)
O8 O 0.2588(3) 0.4722(2) 0.22305(19)
O9 O 0.0064(3) 0.7061(3) 0.2245(2)
O10 O 0.2939(3) 0.6607(2) 0.31962(17)
O11 O 0.3935(3) 0.7331(2) 0.22180(17)
O12 O 0.6024(3) 0.7192(3) 0.25901(19)
O13 O 0.4731(3) 0.8725(2) 0.16771(18)
O14 O 0.2669(3) 0.8937(2) 0.11201(18)
O15 O 0.3244(4) 0.7666(3) 0.4713(2)
O16 O 0.3033(3) 0.5044(3) 0.40913(19)
O17 O 0.4948(3) 0.3671(2) 0.2030(2)
O18 O -0.1830(3) 0.8452(3) 0.2712(2)
O19 O 0.3671(3) 0.5469(3) 0.12064(19)
O20 O 0.0351(3) 0.7245(3) 0.33876(19)
O21 O 0.1378(3) 0.5575(3) 0.31415(19)
O22 O 0.0941(3) 1.0423(3) 0.2972(2)
O23 O 0.4264(3) 0.7698(3) 0.34604(18)
O24 O 0.7451(3) 0.5518(3) 0.2239(2)
O25 O 0.5524(3) 0.5635(3) 0.31303(18)
O26 O 0.3018(3) 0.9169(2) 0.25433(18)
O27 O 0.0932(3) 0.9908(2) 0.18356(18)
O28 O 0.1401(3) 0.7991(3) 0.09550(19)
O29 O 0.5731(3) 0.7035(3) 0.14046(18)
O30 O -0.0386(3) 0.8927(3) 0.16910(18)
O31 O 0.2399(4) 0.6803(3) 0.0101(2)
O32 O 0.1318(3) 0.6223(3) 0.12948(19)
O33 O 0.0111(3) 0.5260(3) 0.2235(2)
O34 O 0.5288(3) 0.5396(2) 0.19969(18)
O35 O -0.0101(3) 0.9148(3) 0.28600(18)
O36 O 0.5356(3) 0.8981(3) 0.2829(2)
O37 O 0.4253(3) 0.4668(3) 0.30112(19)
O38 O 0.1946(3) 0.8428(3) 0.35460(18)
O39 O 0.0333(3) 1.0037(3) 0.05820(19)
O40 O 0.4745(3) 0.8678(3) 0.0374(2)
loop_
_geom_bond_atom_site_label_1
_geom_bond_atom_site_label_2
_geom_bond_site_symmetry_1
_geom_bond_site_symmetry_2
Co1 N1 1_555 1_555
C1 H1 1_555 1_555
C2 H2 1_555 1_555
C3 H3 1_555 1_555
H4 C3 1_555 1_555
C4 C3 1_555 1_555
C5 C4 1_555 1_555
H5 C5 1_555 1_555
C6 C5 1_555 1_555
H6 C6 1_555 1_555
C7 C6 1_555 1_555
C8 C7 1_555 1_555
H7 C8 1_555 1_555
C9 C4 1_555 1_555
H8 C9 1_555 1_555
C10 C7 1_555 1_555
H9 C10 1_555 1_555
H10 C10 1_555 1_555
C11 H11 1_555 1_555
C12 H12 1_555 1_555
C13 H13 1_555 1_555
C14 H14 1_555 1_555
C15 H15 1_555 1_555
H16 C15 1_555 1_555
C16 C15 1_555 1_555
C17 C16 1_555 1_555
H17 C17 1_555 1_555
C18 C17 1_555 1_555
H18 C18 1_555 1_555
C19 C18 1_555 1_555
C20 C19 1_555 1_555
H19 C20 1_555 1_555
C21 C16 1_555 1_555
H20 C21 1_555 1_555
C22 C19 1_555 1_555
H21 C22 1_555 1_555
H22 C22 1_555 1_555
C23 H23 1_555 1_555
C24 H24 1_555 1_555
C25 H25 1_555 1_555
C26 H26 1_555 1_555
C27 H27 1_555 1_555
H28 C27 1_555 1_555
C28 C27 1_555 1_555
C29 C28 1_555 1_555
H29 C29 1_555 1_555
C30 C29 1_555 1_555
H30 C30 1_555 1_555
C31 C30 1_555 1_555
C32 C31 1_555 1_555
H31 C32 1_555 1_555
C33 C28 1_555 1_555
H32 C33 1_555 1_555
C34 C31 1_555 1_555
H33 C34 1_555 1_555
H34 C34 1_555 1_555
C35 H35 1_555 1_555
C36 H36 1_555 1_555
C37 H37 1_555 1_555
C38 H38 1_555 1_555
C39 H39 1_555 1_555
H40 C39 1_555 1_555
C40 C39 1_555 1_555
C41 C40 1_555 1_555
H41 C41 1_555 1_555
C42 C40 1_555 1_555
H42 C42 1_555 1_555
N1 C1 1_555 1_555
N2 C1 1_555 1_555
N3 C2 1_555 1_555
N4 C10 1_555 1_555
N5 C11 1_555 1_555
N6 C12 1_555 1_555
N7 Co1 1_555 1_555
N8 C13 1_555 1_555
N9 C14 1_555 1_555
N10 C22 1_555 1_555
N11 C23 1_555 1_555
N12 C24 1_555 1_555
N13 Co1 1_555 1_555
N14 C25 1_555 1_555
N15 C26 1_555 1_555
N16 C34 1_555 1_555
N17 C35 1_555 1_555
N18 C36 1_555 1_555
N19 Co1 1_555 1_555
N20 C37 1_555 1_555
N21 C38 1_555 1_555
P1 O2 1_555 1_555
Mo1 O1 1_555 1_555
Mo2 O4 1_555 1_555
Mo3 O5 1_555 1_555
Mo4 O2 1_555 1_555
Mo5 O5 1_555 1_555
Mo6 O11 1_555 1_555
Mo7 O6 1_555 1_555
Mo8 O3 1_555 1_555
Mo9 O11 1_555 1_555
Mo10 O5 1_555 1_555
Mo11 O1 1_555 1_555
Mo12 O2 1_555 1_555
O2 Mo1 1_555 1_555
O4 Mo8 1_555 1_555
O5 P1 1_555 1_555
O6 Mo2 1_555 1_555
O7 Mo7 1_555 1_555
O8 Mo4 1_555 1_555
O9 Mo4 1_555 1_555
O10 P1 1_555 1_555
O11 P1 1_555 1_555
O12 Mo6 1_555 1_555
O13 Mo6 1_555 1_555
O14 Mo3 1_555 1_555
O15 Mo2 1_555 1_555
O16 Mo7 1_555 1_555
O17 Mo12 1_555 1_555
O18 Mo5 1_555 1_555
O19 Mo1 1_555 1_555
O20 Mo5 1_555 1_555
O21 Mo4 1_555 1_555
O22 Mo10 1_555 1_555
O23 Mo2 1_555 1_555
O24 Mo9 1_555 1_555
O25 Mo7 1_555 1_555
O26 Mo6 1_555 1_555
O27 Mo3 1_555 1_555
O28 Mo1 1_555 1_555
O29 Mo9 1_555 1_555
O30 Mo3 1_555 1_555
O31 Mo1 1_555 1_555
O32 Mo1 1_555 1_555
O33 Mo4 1_555 1_555
O34 Mo9 1_555 1_555
O35 Mo5 1_555 1_555
O36 Mo6 1_555 1_555
O37 Mo7 1_555 1_555
O38 Mo2 1_555 1_555
O39 Mo3 1_555 1_555
O40 Mo11 1_555 1_555
C37A H37A 1_555 1_555
C38A H38A 1_555 1_555
C39A H39A 1_555 1_555
H40A C39A 1_555 1_555
C40A C39A 1_555 1_555
C41A C42 1_555 1_555
H41A C41A 1_555 1_555
C42A C41 1_555 1_555
H42A C42A 1_555 1_555
N19A C37A 1_555 1_555
N20A C37A 1_555 1_555
N21A C38A 1_555 1_555
Co1A N19A 1_555 1_555
C1A H1A 1_555 1_555
C2A H2A 1_555 1_555
C3A H3A 1_555 1_555
H4A C3A 1_555 1_555
C4A C3A 1_555 1_555
C5A C4A 1_555 1_555
H5A C5A 1_555 1_555
C6A C5A 1_555 1_555
H6A C6A 1_555 1_555
C7A C6A 1_555 1_555
C8A C7A 1_555 1_555
H7A C8A 1_555 1_555
C9A C4A 1_555 1_555
H8A C9A 1_555 1_555
C10A C7A 1_555 1_555
H9A C10A 1_555 1_555
H10A C10A 1_555 1_555
C11A H11A 1_555 1_555
C12A H12A 1_555 1_555
C13A H13A 1_555 1_555
C14A H14A 1_555 1_555
C15A H15A 1_555 1_555
H16A C15A 1_555 1_555
C16A C15A 1_555 1_555
C17A C16A 1_555 1_555
H17A C17A 1_555 1_555
C18A C17A 1_555 1_555
H18A C18A 1_555 1_555
C19A C18A 1_555 1_555
C20A C19A 1_555 1_555
H19A C20A 1_555 1_555
C21A C16A 1_555 1_555
H20A C21A 1_555 1_555
C22A C19A 1_555 1_555
H21A C22A 1_555 1_555
H22A C22A 1_555 1_555
C23A H23A 1_555 1_555
C24A H24A 1_555 1_555
C25A H25A 1_555 1_555
C26A H26A 1_555 1_555
C27A H27A 1_555 1_555
H28A C27A 1_555 1_555
C28A C27A 1_555 1_555
C29A C28A 1_555 1_555
H29A C29A 1_555 1_555
C30A C29A 1_555 1_555
H30A C30A 1_555 1_555
C31A C30A 1_555 1_555
C32A C31A 1_555 1_555
H31A C32A 1_555 1_555
C33A C28A 1_555 1_555
H32A C33A 1_555 1_555
C34A C31A 1_555 1_555
H33A C34A 1_555 1_555
H34A C34A 1_555 1_555
C35A H35A 1_555 1_555
C36A H36A 1_555 1_555
N1A Co1A 1_555 1_555
N2A C1A 1_555 1_555
N3A C2A 1_555 1_555
N4A C10A 1_555 1_555
N5A C11A 1_555 1_555
N6A C12A 1_555 1_555
N7A Co1A 1_555 1_555
N8A C13A 1_555 1_555
N9A C14A 1_555 1_555
N10A C22A 1_555 1_555
N11A C23A 1_555 1_555
N12A C24A 1_555 1_555
N13A Co1A 1_555 1_555
N14A C25A 1_555 1_555
N15A C26A 1_555 1_555
N16A C34A 1_555 1_555
N17A C35A 1_555 1_555
N18A C36A 1_555 1_555
Co1_2 N6A 1_555 1_555
Co1A_2 N6 1_555 1_555
N6_2 Co1A 1_555 1_555
N6A_2 Co1 1_555 1_555
C2 N1 1_555 1_555
C3 N3 1_555 1_555
C8 C9 1_555 1_555
C11 N4 1_555 1_555
C12 N4 1_555 1_555
C13 N7 1_555 1_555
C14 N7 1_555 1_555
C15 N9 1_555 1_555
C20 C21 1_555 1_555
C23 N10 1_555 1_555
C24 N10 1_555 1_555
C25 N13 1_555 1_555
C26 N13 1_555 1_555
C27 N15 1_555 1_555
C32 C33 1_555 1_555
C35 N16 1_555 1_555
C36 N16 1_555 1_555
C37 N19 1_555 1_555
C38 N19 1_555 1_555
C39 N21 1_555 1_555
N2 N3 1_555 1_555
N5 N6 1_555 1_555
N8 N9 1_555 1_555
N11 N12 1_555 1_555
N14 N15 1_555 1_555
N17 N18 1_555 1_555
N20 N21 1_555 1_555
Mo2 O10 1_555 1_555
Mo3 O28 1_555 1_555
Mo4 O32 1_555 1_555
Mo5 O9 1_555 1_555
Mo5 O30 1_555 1_555
Mo6 O23 1_555 1_555
Mo7 O10 1_555 1_555
Mo8 O10 1_555 1_555
Mo8 O16 1_555 1_555
Mo8 O20 1_555 1_555
Mo8 O21 1_555 1_555
Mo9 O12 1_555 1_555
Mo9 O25 1_555 1_555
Mo10 O26 1_555 1_555
Mo10 O27 1_555 1_555
Mo10 O35 1_555 1_555
Mo10 O38 1_555 1_555
Mo11 O11 1_555 1_555
Mo11 O13 1_555 1_555
Mo11 O14 1_555 1_555
Mo11 O29 1_555 1_555
Mo12 O8 1_555 1_555
Mo12 O19 1_555 1_555
Mo12 O34 1_555 1_555
Mo12 O37 1_555 1_555
C38A N19A 1_555 1_555
C39A N21A 1_555 1_555
C40A C41A 1_555 1_555
C40A C42A 1_555 1_555
N20A N21A 1_555 1_555
C1A N1A 1_555 1_555
C2A N1A 1_555 1_555
C3A N3A 1_555 1_555
C8A C9A 1_555 1_555
C11A N4A 1_555 1_555
C12A N4A 1_555 1_555
C13A N7A 1_555 1_555
C14A N7A 1_555 1_555
C15A N9A 1_555 1_555
C20A C21A 1_555 1_555
C23A N10A 1_555 1_555
C24A N10A 1_555 1_555
C25A N13A 1_555 1_555
C26A N13A 1_555 1_555
C27A N15A 1_555 1_555
C32A C33A 1_555 1_555
C35A N16A 1_555 1_555
C36A N16A 1_555 1_555
N2A N3A 1_555 1_555
N5A N6A 1_555 1_555
N8A N9A 1_555 1_555
N11A N12A 1_555 1_555
N14A N15A 1_555 1_555
N17A N18A 1_555 1_555

#END
