
#######################################################################
#
#                 Cambridge Crystallographic Data Centre
#                                CCDC 
#
#######################################################################
#
# If this CIF has been generated from an entry in the Cambridge 
# Structural Database, then it will include bibliographic, chemical, 
# crystal, experimental, refinement or atomic coordinate data resulting 
# from the CCDC's data processing and validation procedures.
#
#######################################################################

data_ZIRDUB
_symmetry_cell_setting           triclinic
_symmetry_space_group_name_H-M   'P -1'
_symmetry_Int_Tables_number      2
_space_group_name_Hall           '-P 1'
loop_
_symmetry_equiv_pos_site_id
_symmetry_equiv_pos_as_xyz
1 x,y,z
2 -x,-y,-z
_cell_length_a                   13.9823(5)
_cell_length_b                   14.0804(4)
_cell_length_c                   24.3023(9)
_cell_angle_alpha                86.869(2)
_cell_angle_beta                 79.209(3)
_cell_angle_gamma                85.437(2)
_cell_volume                     4681.19
loop_
_atom_site_label
_atom_site_type_symbol
_atom_site_fract_x
_atom_site_fract_y
_atom_site_fract_z
W1 W 0.25417(4) 0.52777(4) 0.11741(3)
W2 W -0.06424(4) 0.68696(4) 0.15940(3)
W3 W 0.23480(5) 0.86753(4) 0.26204(3)
W4 W 0.03653(4) 0.89482(4) 0.20254(3)
W5 W 0.36297(4) 0.70832(4) 0.15594(3)
W6 W 0.01670(5) 0.81326(4) 0.33505(3)
W7 W -0.10136(4) 0.61468(4) 0.29423(3)
W8 W 0.17517(5) 0.75300(4) 0.09047(3)
W9 W 0.01875(5) 0.46816(4) 0.19641(3)
W10 W 0.23231(5) 0.43815(4) 0.26235(3)
W11 W 0.10441(5) 0.56919(4) 0.36529(3)
W12 W 0.32418(5) 0.62883(4) 0.30290(3)
B1 B 0.1326(15) 0.6644(13) 0.2290(8)
O1 O 0.0357(7) 0.6256(6) 0.2221(4)
O2 O 0.1128(7) 0.7652(6) 0.2489(4)
O3 O 0.2016(7) 0.6639(6) 0.1727(4)
O4 O 0.1776(7) 0.6013(6) 0.2724(4)
O5 O 0.2703(9) 0.3200(7) 0.2690(5)
O6 O 0.2836(7) 0.7573(7) 0.3023(4)
O7 O -0.1510(7) 0.6662(7) 0.2311(4)
O8 O 0.2203(7) 0.6230(6) 0.0674(4)
O9 O 0.1578(7) 0.4492(6) 0.3396(4)
O10 O -0.0510(8) 0.8676(7) 0.3919(4)
O11 O -0.0239(7) 0.9022(7) 0.2783(4)
O12 O 0.0463(7) 0.7035(7) 0.1073(4)
O13 O 0.3066(8) 0.4439(7) 0.0700(4)
O14 O 0.2767(7) 0.4656(6) 0.1873(4)
O15 O 0.3114(8) 0.8210(7) 0.1972(4)
O16 O 0.1316(7) 0.8785(6) 0.3288(4)
O17 O -0.0838(8) 0.4911(6) 0.2589(4)
O18 O 0.3706(7) 0.5910(6) 0.1193(4)
O19 O -0.0570(8) 0.5537(7) 0.1518(4)
O20 O 0.4795(7) 0.7379(6) 0.1314(5)
O21 O 0.1504(7) 0.9444(6) 0.2237(4)
O22 O 0.3331(8) 0.4945(6) 0.2862(4)
O23 O -0.0497(7) 0.8102(6) 0.1873(4)
O24 O 0.2362(7) 0.6016(7) 0.3699(4)
O25 O 0.0710(7) 0.7043(6) 0.3679(4)
O26 O 0.1064(7) 0.4261(7) 0.2413(4)
O27 O 0.3063(8) 0.7683(7) 0.0965(4)
O28 O -0.2107(7) 0.5996(7) 0.3376(4)
O29 O -0.0102(8) 1.0014(6) 0.1778(4)
O30 O 0.1761(7) 0.8045(7) 0.0265(4)
O31 O -0.0773(7) 0.7338(6) 0.3167(4)
O32 O 0.3751(7) 0.6478(6) 0.2242(4)
O33 O 0.0689(8) 0.5389(7) 0.4352(4)
O34 O 0.3046(8) 0.9510(7) 0.2777(4)
O35 O 0.1247(7) 0.8535(6) 0.1367(4)
O36 O -0.1523(8) 0.7179(6) 0.1207(4)
O37 O 0.1266(7) 0.4881(6) 0.1377(4)
O38 O -0.0113(7) 0.5601(6) 0.3397(4)
O39 O -0.0170(8) 0.3636(7) 0.1792(5)
O40 O 0.4295(8) 0.6298(6) 0.3290(4)
Cu1 Cu -0.32610(17) 0.72660(13) 0.11657(10)
Cu2 Cu -0.34951(19) 0.67249(14) 0.25427(10)
Cu3 Cu 0.01604(18) 0.60850(19) 0.52698(12)
N1 N -0.3686(10) 0.4755(8) 0.0591(5)
N2 N -0.2748(11) 0.4558(8) 0.0626(5)
N3 N -0.3239(11) 0.6033(9) 0.0881(6)
N4 N -0.4099(11) -0.0119(8) 0.1741(5)
N5 N -0.3150(11) -0.0130(9) 0.1806(6)
N6 N -0.3445(11) -0.1479(8) 0.1435(6)
N7 N -0.3105(10) 1.4073(8) 0.2038(6)
N8 N -0.4085(10) 1.4185(10) 0.2044(7)
N9 N -0.3538(11) 1.5504(9) 0.2305(5)
N10 N -0.4259(12) 0.9330(9) 0.3177(6)
N11 N -0.3293(12) 0.9218(9) 0.3217(6)
N12 N -0.3597(13) 0.7938(9) 0.2824(6)
N13 N 0.2648(10) 0.5701(9) 0.5896(6)
N14 N 0.2958(10) 0.5233(10) 0.5423(6)
N15 N 0.1419(10) 0.5784(10) 0.5472(7)
N16 N 0.7694(12) 0.7372(12) 0.4822(8)
N17 N 0.7515(11) 0.7495(10) 0.5366(8)
N18 N 0.8949(10) 0.6736(10) 0.5193(7)
C1 C -0.3820(14) 0.2374(11) 0.0676(8)
H1 H -0.3313 0.2379 0.0355
C2 C -0.4422(11) 0.3173(9) 0.0791(6)
C3 C -0.5108(12) 0.3184(10) 0.1251(7)
H2 H -0.5519 0.3746 0.1338
C4 C -0.4275(12) 0.4044(10) 0.0383(7)
H3 H -0.3934 0.3833 0.0011
H4 H -0.4919 0.4354 0.0340
C5 C -0.2488(11) 0.5335(12) 0.0797(7)
H5 H -0.1847 0.5415 0.0857
C6 C -0.3972(11) 0.5625(11) 0.0740(7)
H6 H -0.4609 0.5919 0.0746
C7 C -0.3929(13) 0.1552(10) 0.1018(7)
H7 H -0.3520 0.0993 0.0918
C8 C -0.4628(12) 0.1539(10) 0.1503(6)
C9 C -0.5228(12) 0.2368(10) 0.1609(7)
H8 H -0.5731 0.2384 0.1932
C10 C -0.4784(12) 0.0688(9) 0.1898(7)
H9 H -0.4730 0.0871 0.2278
H10 H -0.5454 0.0494 0.1916
C11 C -0.2796(13) -0.0952(12) 0.1619(7)
H11 H -0.2134 -0.1174 0.1610
C12 C -0.4262(13) -0.0915(9) 0.1514(7)
H12 H -0.4866 -0.1057 0.1423
C13 C -0.4289(13) 1.5037(12) 0.2199(8)
H13 H -0.4933 1.5329 0.2239
C14 C -0.2786(13) 1.4852(11) 0.2177(7)
H14 H -0.2124 1.4945 0.2187
C15 C -0.2906(15) 0.8372(11) 0.3004(8)
H15 H -0.2249 0.8127 0.2987
C16 C -0.4390(15) 0.8545(11) 0.2950(7)
H16 H -0.5009 0.8410 0.2877
C17 C -0.3497(13) 1.2202(11) 0.2639(7)
H17 H -0.4069 1.2599 0.2611
C18 C -0.2607(11) 1.2402(10) 0.2306(6)
C19 C 0.5762(13) 0.7358(12) 0.5804(8)
C20 C 0.5846(15) 0.6460(13) 0.6058(8)
H18 H 0.6457 0.6194 0.6132
C21 C 0.5024(15) 0.5960(11) 0.6202(7)
H19 H 0.5083 0.5341 0.6373
C22 C 0.4134(13) 0.6310(12) 0.6111(7)
C23 C 0.4053(12) 0.7210(10) 0.5856(6)
H20 H 0.3437 0.7474 0.5787
C24 C 0.4859(14) 0.7714(11) 0.5705(7)
H21 H 0.4797 0.8327 0.5526
C25 C 0.3253(13) 0.5763(14) 0.6313(7)
H22 H 0.3468 0.5110 0.6433
H23 H 0.2857 0.6071 0.6645
C26 C 0.1740(15) 0.6005(13) 0.5910(9)
H24 H 0.1357 0.6352 0.6208
C27 C 0.2209(14) 0.5312(12) 0.5164(8)
H25 H 0.2218 0.5070 0.4806
C28 C 0.8259(16) 0.7110(15) 0.5584(9)
H26 H 0.8293 0.7102 0.5971
C29 C 0.8562(15) 0.6890(14) 0.4736(9)
H27 H 0.8876 0.6675 0.4378
C30 C 0.6621(14) 0.7997(13) 0.5661(11)
H28 H 0.6438 0.8550 0.5424
H29 H 0.6752 0.8242 0.6012
C31 C -0.1785(13) 1.1833(13) 0.2357(8)
H30 H -0.1171 1.1971 0.2139
C32 C -0.2539(13) 1.3180(11) 0.1865(7)
H31 H -0.1844 1.3314 0.1745
H32 H -0.2766 1.2954 0.1535
C33 C -0.1859(14) 1.1038(11) 0.2739(8)
H33 H -0.1290 1.0637 0.2767
C34 C -0.2723(14) 1.0830(11) 0.3067(8)
C35 C -0.3542(14) 1.1425(12) 0.3009(8)
H34 H -0.4153 1.1291 0.3233
C36 C -0.2796(17) 0.9938(11) 0.3439(8)
H35 H -0.2132 0.9676 0.3476
H36 H -0.3155 1.0099 0.3817
O20_2 O -0.5205(7) 0.7379(6) 0.1314(5)
O33A O -0.0689(8) 0.4611(7) 0.5648(4)
Cu1_2 Cu -0.32610(17) -0.27340(13) 0.11657(10)
Cu1_3 Cu 0.67390(17) 0.72660(13) 0.11657(10)
Cu2_2 Cu -0.34951(19) 1.67249(14) 0.25427(10)
Cu3_2 Cu 1.01604(18) 0.60850(19) 0.52698(12)
Cu3A Cu -0.01604(18) 0.39150(19) 0.47302(12)
N6_2 N -0.3445(11) 0.8521(8) 0.1435(6)
N9_2 N -0.3538(11) 0.5504(9) 0.2305(5)
N18_2 N -0.1051(10) 0.6736(10) 0.5193(7)
Cu4 Cu 0.0000 0.5000 0.0000
N19 N -0.0250(11) 0.2381(8) 0.0645(6)
N20 N 0.0697(13) 0.2443(10) 0.0668(7)
N21 N 0.0079(13) 0.3794(10) 0.0325(7)
C37 C 0.0257(13) 0.0914(11) -0.0149(7)
H37 H 0.0438 0.1546 -0.0249
C38 C -0.0313(12) 0.0717(10) 0.0369(7)
C39 C -0.0694(14) 0.1493(10) 0.0786(7)
H38 H -0.1408 0.1607 0.0808
H39 H -0.0579 0.1261 0.1161
C40 C -0.0598(13) 0.3190(10) 0.0426(7)
H40 H -0.1242 0.3310 0.0354
C41 C -0.0561(13) -0.0196(11) 0.0517(7)
H41 H -0.0943 -0.0334 0.0875
C42 C 0.0851(16) 0.3310(13) 0.0471(8)
H42 H 0.1466 0.3573 0.0436
N19A N 0.0250(11) -0.2381(8) -0.0645(6)
N20A N -0.0697(13) -0.2443(10) -0.0668(7)
N21A N -0.0079(13) -0.3794(10) -0.0325(7)
C37A C -0.0257(13) -0.0914(11) 0.0149(7)
H37A H -0.0438 -0.1546 0.0249
C38A C 0.0313(12) -0.0717(10) -0.0369(7)
C39A C 0.0694(14) -0.1493(10) -0.0786(7)
H38A H 0.1408 -0.1607 -0.0808
H39A H 0.0579 -0.1261 -0.1161
C40A C 0.0598(13) -0.3190(10) -0.0426(7)
H40A H 0.1242 -0.3310 -0.0354
C41A C 0.0561(13) 0.0196(11) -0.0517(7)
H41A H 0.0943 0.0334 -0.0875
C42A C -0.0851(16) -0.3310(13) -0.0471(8)
H42A H -0.1466 -0.3573 -0.0436
Cu4_2 Cu 0.0000 -0.5000 0.0000
N21A_2 N -0.0079(13) 0.6206(10) -0.0325(7)
Cu5 Cu 0.1318(2) 1.14727(18) 0.22183(9)
Cu6 Cu -0.5000 1.5000 0.5000
N22 N -0.4358(10) 1.2436(10) 0.5672(5)
N23 N -0.5322(11) 1.2368(9) 0.5757(6)
N24 N -0.4920(12) 1.3795(9) 0.5409(6)
N25 N 0.0154(10) 1.1330(8) 0.3843(5)
N26 N -0.0043(12) 1.2272(9) 0.3761(6)
N27 N 0.0667(11) 1.1602(9) 0.2955(6)
N28 N 0.2625(11) 1.1122(10) 0.0642(5)
N29 N 0.2915(11) 1.2008(9) 0.0695(7)
N30 N 0.2046(10) 1.1466(9) 0.1504(5)
C43 C -0.0955(11) 1.1090(10) 0.4753(6)
C44 C -0.1770(13) 1.0685(12) 0.4666(7)
H43 H -0.1713 1.0280 0.4360
C45 C -0.2683(12) 1.0844(12) 0.5010(8)
H44 H -0.3226 1.0530 0.4946
C46 C -0.2791(12) 1.1458(10) 0.5442(6)
C47 C -0.1963(13) 1.1902(11) 0.5520(6)
H45 H -0.2020 1.2335 0.5813
C48 C -0.1072(12) 1.1720(11) 0.5180(6)
H46 H -0.0526 1.2035 0.5239
C49 C -0.3717(12) 1.1621(12) 0.5851(7)
H47 H -0.3562 1.1751 0.6220
H48 H -0.4075 1.1035 0.5896
C50 C -0.4121(13) 1.3290(11) 0.5482(7)
H49 H -0.3481 1.3507 0.5410
C51 C -0.5635(13) 1.3218(12) 0.5584(7)
H50 H -0.6304 1.3402 0.5583
C52 C 0.0035(12) 1.0864(12) 0.4409(7)
H51 H 0.0536 1.1074 0.4606
H52 H 0.0145 1.0165 0.4374
C53 C 0.0268(14) 1.2413(11) 0.3232(8)
H53 H 0.0227 1.3023 0.3048
C54 C 0.0549(13) 1.0944(12) 0.3358(7)
H54 H 0.0722 1.0283 0.3312
C55 C 0.2540(13) 1.2173(13) 0.1201(8)
H55 H 0.2600 1.2762 0.1361
C56 C 0.2117(12) 1.0851(13) 0.1132(8)
H56 H 0.1831 1.0255 0.1199
C57 C 0.2932(12) 1.0612(13) 0.0131(7)
H57 H 0.2803 1.1028 -0.0192
H58 H 0.2551 1.0044 0.0148
C58 C 0.4009(13) 1.0303(11) 0.0052(7)
C59 C 0.4709(14) 1.0910(12) -0.0182(7)
H59 H 0.4517 1.1535 -0.0307
C60 C 0.4310(12) 0.9378(11) 0.0237(7)
H60 H 0.3834 0.8949 0.0401
N28A N 0.7375(11) 0.8878(10) -0.0642(5)
N29A N 0.7085(11) 0.7992(9) -0.0695(7)
N30A N 0.7954(10) 0.8534(9) -0.1504(5)
C55A C 0.7460(13) 0.7827(13) -0.1201(8)
H55A H 0.7400 0.7238 -0.1361
C56A C 0.7883(12) 0.9149(13) -0.1132(8)
H56A H 0.8169 0.9745 -0.1199
C57A C 0.7068(12) 0.9388(13) -0.0131(7)
H57A H 0.7197 0.8972 0.0192
H58A H 0.7449 0.9956 -0.0148
C58A C 0.5991(13) 0.9697(11) -0.0052(7)
C59A C 0.5291(14) 0.9090(12) 0.0182(7)
H59A H 0.5483 0.8465 0.0307
C60A C 0.5690(12) 1.0622(11) -0.0237(7)
H60A H 0.6166 1.1051 -0.0401
Cu5A Cu -1.1318(2) 1.85273(18) 0.77817(9)
N22A N -0.5642(10) 1.7564(10) 0.4328(5)
N23A N -0.4678(11) 1.7632(9) 0.4243(6)
N24A N -0.5080(12) 1.6205(9) 0.4591(6)
N25A N -1.0154(10) 1.8670(8) 0.6157(5)
N26A N -0.9957(12) 1.7728(9) 0.6239(6)
N27A N -1.0667(11) 1.8398(9) 0.7045(6)
C43A C -0.9045(11) 1.8910(10) 0.5247(6)
C44A C -0.8230(13) 1.9315(12) 0.5334(7)
H43A H -0.8287 1.9720 0.5640
C45A C -0.7317(12) 1.9156(12) 0.4990(8)
H44A H -0.6774 1.9470 0.5054
C46A C -0.7209(12) 1.8542(10) 0.4558(6)
C47A C -0.8037(13) 1.8098(11) 0.4480(6)
H45A H -0.7980 1.7665 0.4187
C48A C -0.8928(12) 1.8280(11) 0.4820(6)
H46A H -0.9474 1.7965 0.4761
C49A C -0.6283(12) 1.8379(12) 0.4149(7)
H47A H -0.6438 1.8249 0.3780
H48A H -0.5925 1.8965 0.4104
C50A C -0.5879(13) 1.6710(11) 0.4518(7)
H49A H -0.6519 1.6493 0.4590
C51A C -0.4365(13) 1.6782(12) 0.4416(7)
H50A H -0.3696 1.6598 0.4417
C52A C -1.0035(12) 1.9136(12) 0.5591(7)
H51A H -1.0536 1.8926 0.5394
H52A H -1.0145 1.9835 0.5626
C53A C -1.0268(14) 1.7587(11) 0.6768(8)
H53A H -1.0227 1.6977 0.6952
C54A C -1.0549(13) 1.9056(12) 0.6642(7)
H54A H -1.0722 1.9717 0.6688
Cu5A_2 Cu 0.8682(2) 0.85273(18) -0.22183(9)
N30A_2 N -1.2046(10) 1.8534(9) 0.8496(5)
O41 O 0.312(2) 0.1376(19) 0.3164(12)
O42 O -0.550(2) 1.037(2) 0.5378(13)
loop_
_geom_bond_atom_site_label_1
_geom_bond_atom_site_label_2
_geom_bond_site_symmetry_1
_geom_bond_site_symmetry_2
W1 O3 1_555 1_555
W2 O1 1_555 1_555
W3 O2 1_555 1_555
W4 O2 1_555 1_555
W5 O3 1_555 1_555
W6 O2 1_555 1_555
W7 O1 1_555 1_555
W8 O3 1_555 1_555
W9 O1 1_555 1_555
W10 O4 1_555 1_555
W11 O4 1_555 1_555
W12 O4 1_555 1_555
B1 O1 1_555 1_555
O2 B1 1_555 1_555
O3 B1 1_555 1_555
O4 B1 1_555 1_555
O5 W10 1_555 1_555
O6 W3 1_555 1_555
O7 W2 1_555 1_555
O8 W1 1_555 1_555
O9 W10 1_555 1_555
O10 W6 1_555 1_555
O11 W4 1_555 1_555
O12 W2 1_555 1_555
O13 W1 1_555 1_555
O14 W1 1_555 1_555
O15 W3 1_555 1_555
O16 W3 1_555 1_555
O17 W7 1_555 1_555
O18 W1 1_555 1_555
O19 W2 1_555 1_555
O20 W5 1_555 1_555
O21 W3 1_555 1_555
O22 W10 1_555 1_555
O23 W2 1_555 1_555
O24 W11 1_555 1_555
O25 W6 1_555 1_555
O26 W9 1_555 1_555
O27 W5 1_555 1_555
O28 W7 1_555 1_555
O29 W4 1_555 1_555
O30 W8 1_555 1_555
O31 W6 1_555 1_555
O32 W5 1_555 1_555
O33 W11 1_555 1_555
O34 W3 1_555 1_555
O35 W4 1_555 1_555
O36 W2 1_555 1_555
O37 W1 1_555 1_555
O38 W7 1_555 1_555
O39 W9 1_555 1_555
O40 W12 1_555 1_555
Cu1 O36 1_555 1_555
Cu2 O7 1_555 1_555
Cu3 O33 1_555 1_555
N1 N2 1_555 1_555
N2 C5 1_555 1_555
N3 Cu1 1_555 1_555
N4 N5 1_555 1_555
N5 C11 1_555 1_555
N6 C11 1_555 1_555
N7 N8 1_555 1_555
N8 C13 1_555 1_555
N9 C13 1_555 1_555
N10 N11 1_555 1_555
N11 C15 1_555 1_555
N12 Cu2 1_555 1_555
N13 N14 1_555 1_555
N14 C27 1_555 1_555
N15 Cu3 1_555 1_555
N16 N17 1_555 1_555
N17 C28 1_555 1_555
N18 C28 1_555 1_555
C1 H1 1_555 1_555
C2 C1 1_555 1_555
C3 C2 1_555 1_555
H2 C3 1_555 1_555
C4 N1 1_555 1_555
H3 C4 1_555 1_555
H4 C4 1_555 1_555
C5 N3 1_555 1_555
H5 C5 1_555 1_555
C6 N1 1_555 1_555
H6 C6 1_555 1_555
C7 C1 1_555 1_555
H7 C7 1_555 1_555
C8 C7 1_555 1_555
C9 C3 1_555 1_555
H8 C9 1_555 1_555
C10 N4 1_555 1_555
H9 C10 1_555 1_555
H10 C10 1_555 1_555
C11 H11 1_555 1_555
C12 N4 1_555 1_555
H12 C12 1_555 1_555
C13 H13 1_555 1_555
C14 N7 1_555 1_555
H14 C14 1_555 1_555
C15 N12 1_555 1_555
H15 C15 1_555 1_555
C16 N10 1_555 1_555
H16 C16 1_555 1_555
C17 H17 1_555 1_555
C18 C17 1_555 1_555
C19 C20 1_555 1_555
C20 H18 1_555 1_555
C21 C20 1_555 1_555
H19 C21 1_555 1_555
C22 C21 1_555 1_555
C23 C22 1_555 1_555
H20 C23 1_555 1_555
C24 C19 1_555 1_555
H21 C24 1_555 1_555
C25 N13 1_555 1_555
H22 C25 1_555 1_555
H23 C25 1_555 1_555
C26 N13 1_555 1_555
H24 C26 1_555 1_555
C27 N15 1_555 1_555
H25 C27 1_555 1_555
C28 H26 1_555 1_555
C29 N16 1_555 1_555
H27 C29 1_555 1_555
C30 N17 1_555 1_555
H28 C30 1_555 1_555
H29 C30 1_555 1_555
C31 C18 1_555 1_555
H30 C31 1_555 1_555
C32 N7 1_555 1_555
H31 C32 1_555 1_555
H32 C32 1_555 1_555
C33 C31 1_555 1_555
H33 C33 1_555 1_555
C34 C33 1_555 1_555
C35 C17 1_555 1_555
H34 C35 1_555 1_555
C36 N11 1_555 1_555
H35 C36 1_555 1_555
H36 C36 1_555 1_555
Cu4 N21 1_555 1_555
N19 N20 1_555 1_555
N20 C42 1_555 1_555
N21 C40 1_555 1_555
C37 H37 1_555 1_555
C38 C37 1_555 1_555
C39 N19 1_555 1_555
H38 C39 1_555 1_555
H39 C39 1_555 1_555
C40 N19 1_555 1_555
H40 C40 1_555 1_555
C41 C38 1_555 1_555
H41 C41 1_555 1_555
C42 N21 1_555 1_555
H42 C42 1_555 1_555
Cu5 N27 1_555 1_555
Cu6 N24 1_555 1_555
N22 N23 1_555 1_555
N23 C51 1_555 1_555
N24 C50 1_555 1_555
N25 N26 1_555 1_555
N26 C53 1_555 1_555
N27 C53 1_555 1_555
N28 N29 1_555 1_555
N29 C55 1_555 1_555
N30 Cu5 1_555 1_555
C43 C44 1_555 1_555
C44 H43 1_555 1_555
C45 C44 1_555 1_555
H44 C45 1_555 1_555
C46 C45 1_555 1_555
C47 C46 1_555 1_555
H45 C47 1_555 1_555
C48 C43 1_555 1_555
H46 C48 1_555 1_555
C49 N22 1_555 1_555
H47 C49 1_555 1_555
H48 C49 1_555 1_555
C50 N22 1_555 1_555
H49 C50 1_555 1_555
C51 N24 1_555 1_555
H50 C51 1_555 1_555
C52 N25 1_555 1_555
H51 C52 1_555 1_555
H52 C52 1_555 1_555
C53 H53 1_555 1_555
C54 N25 1_555 1_555
H54 C54 1_555 1_555
C55 N30 1_555 1_555
H55 C55 1_555 1_555
C56 N28 1_555 1_555
H56 C56 1_555 1_555
C57 N28 1_555 1_555
H57 C57 1_555 1_555
H58 C57 1_555 1_555
C58 C57 1_555 1_555
C59 C58 1_555 1_555
H59 C59 1_555 1_555
C60 C58 1_555 1_555
H60 C60 1_555 1_555
O20_2 Cu1 1_555 1_555
O33A Cu3 1_555 1_555
Cu1_2 N6 1_555 1_555
Cu1_3 O20 1_555 1_555
Cu2_2 N9 1_555 1_555
Cu3_2 N18 1_555 1_555
Cu3A O33 1_555 1_555
N6_2 Cu1 1_555 1_555
N9_2 Cu2 1_555 1_555
N18_2 Cu3 1_555 1_555
N19A N20A 1_555 1_555
N20A C42A 1_555 1_555
N21A C40A 1_555 1_555
C37A C41 1_555 1_555
H37A C37A 1_555 1_555
C38A C37A 1_555 1_555
C39A N19A 1_555 1_555
H38A C39A 1_555 1_555
H39A C39A 1_555 1_555
C40A N19A 1_555 1_555
H40A C40A 1_555 1_555
C41A C37 1_555 1_555
H41A C41A 1_555 1_555
C42A N21A 1_555 1_555
H42A C42A 1_555 1_555
Cu4_2 N21A 1_555 1_555
N21A_2 Cu4 1_555 1_555
N28A N29A 1_555 1_555
N29A C55A 1_555 1_555
N30A C55A 1_555 1_555
C55A H55A 1_555 1_555
C56A N28A 1_555 1_555
H56A C56A 1_555 1_555
C57A N28A 1_555 1_555
H57A C57A 1_555 1_555
H58A C57A 1_555 1_555
C58A C57A 1_555 1_555
C59A C60 1_555 1_555
H59A C59A 1_555 1_555
C60A C59 1_555 1_555
H60A C60A 1_555 1_555
Cu5A N27A 1_555 1_555
N22A N23A 1_555 1_555
N23A C51A 1_555 1_555
N24A Cu6 1_555 1_555
N25A N26A 1_555 1_555
N26A C53A 1_555 1_555
N27A C53A 1_555 1_555
C43A C44A 1_555 1_555
C44A H43A 1_555 1_555
C45A C44A 1_555 1_555
H44A C45A 1_555 1_555
C46A C45A 1_555 1_555
C47A C46A 1_555 1_555
H45A C47A 1_555 1_555
C48A C43A 1_555 1_555
H46A C48A 1_555 1_555
C49A N22A 1_555 1_555
H47A C49A 1_555 1_555
H48A C49A 1_555 1_555
C50A N22A 1_555 1_555
H49A C50A 1_555 1_555
C51A N24A 1_555 1_555
H50A C51A 1_555 1_555
C52A N25A 1_555 1_555
H51A C52A 1_555 1_555
H52A C52A 1_555 1_555
C53A H53A 1_555 1_555
C54A N25A 1_555 1_555
H54A C54A 1_555 1_555
Cu5A_2 N30A 1_555 1_555
N30A_2 Cu5A 1_555 1_555
W4 O21 1_555 1_555
W4 O23 1_555 1_555
W5 O15 1_555 1_555
W5 O18 1_555 1_555
W6 O11 1_555 1_555
W6 O16 1_555 1_555
W7 O7 1_555 1_555
W7 O31 1_555 1_555
W8 O8 1_555 1_555
W8 O12 1_555 1_555
W8 O27 1_555 1_555
W8 O35 1_555 1_555
W9 O17 1_555 1_555
W9 O19 1_555 1_555
W9 O37 1_555 1_555
W10 O14 1_555 1_555
W10 O26 1_555 1_555
W11 O9 1_555 1_555
W11 O25 1_555 1_555
W11 O38 1_555 1_555
W12 O6 1_555 1_555
W12 O22 1_555 1_555
W12 O24 1_555 1_555
W12 O32 1_555 1_555
N3 C6 1_555 1_555
N6 C12 1_555 1_555
N9 C14 1_555 1_555
N12 C16 1_555 1_555
N15 C26 1_555 1_555
N18 C29 1_555 1_555
C2 C4 1_555 1_555
C8 C9 1_555 1_555
C8 C10 1_555 1_555
C18 C32 1_555 1_555
C19 C30 1_555 1_555
C22 C25 1_555 1_555
C23 C24 1_555 1_555
C34 C35 1_555 1_555
C34 C36 1_555 1_555
C38 C39 1_555 1_555
N27 C54 1_555 1_555
N30 C56 1_555 1_555
C43 C52 1_555 1_555
C46 C49 1_555 1_555
C47 C48 1_555 1_555
O33A Cu3A 1_555 1_555
C38A C39A 1_555 1_555
C38A C41A 1_555 1_555
N30A C56A 1_555 1_555
C58A C59A 1_555 1_555
C58A C60A 1_555 1_555
N24A C50A 1_555 1_555
N27A C54A 1_555 1_555
C43A C52A 1_555 1_555
C46A C49A 1_555 1_555
C47A C48A 1_555 1_555

#END
