
#######################################################################
#
#                 Cambridge Crystallographic Data Centre
#                                CCDC 
#
#######################################################################
#
# If this CIF has been generated from an entry in the Cambridge 
# Structural Database, then it will include bibliographic, chemical, 
# crystal, experimental, refinement or atomic coordinate data resulting 
# from the CCDC's data processing and validation procedures.
#
#######################################################################

data_ZIRFUD
_symmetry_cell_setting           orthorhombic
_symmetry_space_group_name_H-M   'P 21 21 2'
_symmetry_Int_Tables_number      18
_space_group_name_Hall           'P 2 2ab'
loop_
_symmetry_equiv_pos_site_id
_symmetry_equiv_pos_as_xyz
1 x,y,z
2 -x,-y,z
3 1/2-x,1/2+y,-z
4 1/2+x,1/2-y,-z
_cell_length_a                   26.6373(7)
_cell_length_b                   10.2382(3)
_cell_length_c                   11.7017(3)
_cell_angle_alpha                90
_cell_angle_beta                 90
_cell_angle_gamma                90
_cell_volume                     3191.26
loop_
_atom_site_label
_atom_site_type_symbol
_atom_site_fract_x
_atom_site_fract_y
_atom_site_fract_z
Cd1 Cd 0.048842(15) 1.14322(4) 0.70036(3)
O1 O 0.10851(16) 0.9827(4) 0.7053(5)
O2 O 0.03747(14) 0.8784(4) 0.7035(5)
O3 O 0.04389(14) 0.3796(4) 0.7048(5)
O4 O 0.11805(15) 0.2894(4) 0.6865(5)
O5 O 0.28047(19) 0.7734(6) 0.7177(6)
N1 N 0.04196(17) 1.1453(6) 0.5033(3)
N2 N 0.0428(2) 1.1406(8) -0.1005(5)
C1 C 0.0844(2) 0.8801(6) 0.7091(6)
C2 C 0.0909(2) 0.3873(5) 0.7013(6)
C3 C 0.1125(2) 0.7534(6) 0.7203(5)
C4 C 0.08814(18) 0.6356(6) 0.7090(5)
H1 H 0.0536 0.6334 0.6977
C5 C 0.1157(2) 0.5182(6) 0.7148(5)
C6 C 0.1674(2) 0.5234(6) 0.7316(5)
H2 H 0.1859 0.4465 0.7333
C7 C 0.1914(2) 0.6425(7) 0.7459(5)
C8 C 0.1638(2) 0.7566(7) 0.7388(5)
H3 H 0.1800 0.8366 0.7466
C9 C 0.2842(2) 0.5063(9) 0.7036(9)
C10 C 0.3053(4) 0.4076(11) 0.7658(10)
H4 H 0.3050 0.4113 0.8452
C11 C 0.3273(4) 0.3004(11) 0.7101(11)
H5 H 0.3437 0.2353 0.7510
C12 C 0.3240(4) 0.2954(12) 0.5984(10)
H6 H 0.3371 0.2225 0.5615
C13 C 0.3027(4) 0.3897(12) 0.5337(11)
H7 H 0.3009 0.3816 0.4546
C14 C 0.2834(4) 0.4992(13) 0.5888(10)
H8 H 0.2700 0.5676 0.5463
C15 C 0.2693(3) 0.6456(9) 0.9192(6)
C16 C 0.3067(4) 0.7188(10) 0.9646(9)
H9 H 0.3247 0.7739 0.9165
C17 C 0.3191(5) 0.7153(13) 1.0768(10)
H10 H 0.3455 0.7652 1.1050
C18 C 0.2927(4) 0.6392(14) 1.1445(10)
H11 H 0.3009 0.6385 1.2218
C19 C 0.2532(4) 0.5593(13) 1.1082(10)
H12 H 0.2356 0.5057 1.1583
C20 C 0.2420(4) 0.5655(11) 0.9912(9)
H13 H 0.2160 0.5152 0.9617
C21 C 0.0825(3) 1.1180(11) 0.4429(5)
H14 H 0.1117 1.0966 0.4822
C22 C 0.0842(3) 1.1194(10) 0.3258(5)
H15 H 0.1137 1.0984 0.2877
C23 C 0.0416(2) 1.1520(8) 0.2652(5)
C24 C -0.0008(3) 1.1831(8) 0.3255(5)
H16 H -0.0300 1.2081 0.2880
C25 C 0.0008(3) 1.1766(7) 0.4448(5)
H17 H -0.0283 1.1951 0.4854
C26 C 0.0424(3) 1.1492(9) 0.1380(4)
C27 C 0.0701(3) 1.0636(9) 0.0811(6)
H18 H 0.0903 1.0060 0.1219
C28 C 0.0700(3) 1.0572(9) -0.0387(6)
H19 H 0.0891 0.9940 -0.0755
C29 C 0.0167(3) 1.2285(10) -0.0445(6)
H20 H -0.0020 1.2886 -0.0862
C30 C 0.0155(4) 1.2361(10) 0.0728(6)
H21 H -0.0036 1.3005 0.1082
P1 P 0.25860(6) 0.6529(2) 0.76823(16)
Cd1_2 Cd 0.048842(15) 0.14322(4) 0.70036(3)
Cd1_3 Cd 0.048842(15) 1.14322(4) -0.29964(3)
Cd1A Cd -0.048842(15) 0.85678(4) 0.70036(3)
O2A O -0.03747(14) 1.1216(4) 0.7035(5)
O3_2 O 0.04389(14) 1.3796(4) 0.7048(5)
O4_2 O 0.11805(15) 1.2894(4) 0.6865(5)
N2_2 N 0.0428(2) 1.1406(8) 0.8995(5)
O6 O 0.0000 0.5000 0.5015(10)
H22 H 0.0100 0.4410 0.5472
H22A H -0.0100 0.5590 0.5472
O7 O 0.3401(4) 0.9052(12) 0.5561(9)
H23 H 0.3467 0.8523 0.5081
H24 H 0.3330 0.8732 0.6163
O8 O 0.4191(5) 0.0362(14) 0.6598(19)
H25 H 0.4436 0.0244 0.6111
H26 H 0.3962 -0.0027 0.6315
loop_
_geom_bond_atom_site_label_1
_geom_bond_atom_site_label_2
_geom_bond_site_symmetry_1
_geom_bond_site_symmetry_2
Cd1 O1 1_555 1_555
O1 C1 1_555 1_555
O2 Cd1 1_555 1_555
O3 C2 1_555 1_555
O4 C2 1_555 1_555
O5 P1 1_555 1_555
N1 Cd1 1_555 1_555
N2 C28 1_555 1_555
C1 O2 1_555 1_555
C2 C5 1_555 1_555
C3 C1 1_555 1_555
C4 C3 1_555 1_555
H1 C4 1_555 1_555
C5 C4 1_555 1_555
C6 C5 1_555 1_555
H2 C6 1_555 1_555
C7 C6 1_555 1_555
C8 C3 1_555 1_555
H3 C8 1_555 1_555
C9 C10 1_555 1_555
C10 H4 1_555 1_555
C11 C10 1_555 1_555
H5 C11 1_555 1_555
C12 C11 1_555 1_555
H6 C12 1_555 1_555
C13 C12 1_555 1_555
H7 C13 1_555 1_555
C14 C9 1_555 1_555
H8 C14 1_555 1_555
C15 C16 1_555 1_555
C16 H9 1_555 1_555
C17 C16 1_555 1_555
H10 C17 1_555 1_555
C18 C17 1_555 1_555
H11 C18 1_555 1_555
C19 C18 1_555 1_555
H12 C19 1_555 1_555
C20 C15 1_555 1_555
H13 C20 1_555 1_555
C21 N1 1_555 1_555
H14 C21 1_555 1_555
C22 C21 1_555 1_555
H15 C22 1_555 1_555
C23 C22 1_555 1_555
C24 C23 1_555 1_555
H16 C24 1_555 1_555
C25 N1 1_555 1_555
H17 C25 1_555 1_555
C26 C23 1_555 1_555
C27 C26 1_555 1_555
H18 C27 1_555 1_555
C28 C27 1_555 1_555
H19 C28 1_555 1_555
C29 N2 1_555 1_555
H20 C29 1_555 1_555
C30 C26 1_555 1_555
H21 C30 1_555 1_555
P1 C7 1_555 1_555
O6 H22 1_555 1_555
O7 H23 1_555 1_555
H24 O7 1_555 1_555
O8 H25 1_555 1_555
H26 O8 1_555 1_555
Cd1_2 O3 1_555 1_555
Cd1_3 N2 1_555 1_555
Cd1A O2 1_555 1_555
O2A Cd1 1_555 1_555
O3_2 Cd1 1_555 1_555
O4_2 Cd1 1_555 1_555
N2_2 Cd1 1_555 1_555
H22A O6 1_555 1_555
O4 Cd1_2 1_555 1_555
C7 C8 1_555 1_555
C9 P1 1_555 1_555
C13 C14 1_555 1_555
C15 P1 1_555 1_555
C19 C20 1_555 1_555
C24 C25 1_555 1_555
C29 C30 1_555 1_555
Cd1A O2A 1_555 1_555

#END
