
#######################################################################
#
#                 Cambridge Crystallographic Data Centre
#                                CCDC 
#
#######################################################################
#
# If this CIF has been generated from an entry in the Cambridge 
# Structural Database, then it will include bibliographic, chemical, 
# crystal, experimental, refinement or atomic coordinate data resulting 
# from the CCDC's data processing and validation procedures.
#
#######################################################################

data_ZIRJUH
_symmetry_cell_setting           trigonal
_symmetry_space_group_name_H-M   'P 32 2 1'
_symmetry_Int_Tables_number      154
_space_group_name_Hall           'P 32 2"'
loop_
_symmetry_equiv_pos_site_id
_symmetry_equiv_pos_as_xyz
1 x,y,z
2 -y,x-y,2/3+z
3 -x+y,-x,1/3+z
4 x-y,-y,1/3-z
5 -x,-x+y,2/3-z
6 y,x,-z
_cell_length_a                   8.89960(10)
_cell_length_b                   8.89960(10)
_cell_length_c                   39.5773(11)
_cell_angle_alpha                90
_cell_angle_beta                 90
_cell_angle_gamma                120
_cell_volume                     2714.67
loop_
_atom_site_label
_atom_site_type_symbol
_atom_site_fract_x
_atom_site_fract_y
_atom_site_fract_z
C1 C 0.6697(4) 0.2309(4) 0.27020(7)
H1 H 0.588(5) 0.196(5) 0.2550(9)
C2 C 0.8155(4) 0.2185(4) 0.26491(7)
C3 C 0.9471(4) 0.2781(4) 0.29033(7)
C4 C 0.9294(4) 0.3485(4) 0.32045(7)
C5 C 0.7756(4) 0.3566(4) 0.32618(7)
C6 C 0.7450(4) 0.4225(4) 0.35674(8)
H2 H 0.834(6) 0.470(6) 0.3746(11)
C7 C 0.5951(5) 0.4234(5) 0.36172(8)
H3 H 0.592(7) 0.482(7) 0.3803(13)
C8 C 0.4632(4) 0.3618(5) 0.33663(9)
H4 H 0.354(6) 0.364(5) 0.3379(11)
C9 C 0.4897(4) 0.3023(4) 0.30653(8)
H5 H 0.401(5) 0.263(5) 0.2904(9)
C10 C 0.6442(4) 0.2977(4) 0.30066(7)
C11 C 0.8339(4) 0.1434(4) 0.23223(7)
C12 C 0.9673(5) 0.3638(5) 0.15992(8)
H6 H 1.0141 0.3334 0.1785
C13 C 1.0590(5) 0.5326(5) 0.14755(10)
H7 H 1.1682 0.6140 0.1569
C14 C 0.9885(5) 0.5795(5) 0.12144(9)
H8 H 1.0457 0.6951 0.1131
C15 C 0.8316(6) 0.4540(5) 0.10740(10)
H9 H 0.7816 0.4818 0.0889
C16 C 0.7501(5) 0.2884(5) 0.12083(9)
H10 H 0.6429 0.2034 0.1113
O1 O 1.0923(3) 0.2677(3) 0.28527(5)
H11 H 1.0839 0.2170 0.2669
O2 O 0.9673(3) 0.1317(3) 0.22695(5)
O3 O 0.7102(3) 0.0978(3) 0.21141(5)
O4 O 0.4117(5) 0.0000 0.1667
H12 H 0.374(5) 0.006(5) 0.1479(8)
N1 N 0.8165(4) 0.2426(3) 0.14691(6)
Cu1 Cu 0.67573(6) 0.0000 0.1667
C1D C 1.3303(4) 0.5612(6) 0.39647(7)
H1D H 1.412(5) 0.608(7) 0.4117(9)
C2D C 1.1845(4) 0.4030(6) 0.40176(7)
C3D C 1.0529(4) 0.3310(6) 0.37634(7)
C4D C 1.0706(4) 0.4191(6) 0.34622(7)
C5D C 1.2244(4) 0.5810(6) 0.34049(7)
C6D C 1.2550(4) 0.6775(6) 0.30993(8)
H2D H 1.166(6) 0.636(8) 0.2921(11)
C7D C 1.4049(5) 0.8283(7) 0.30495(8)
H3D H 1.408(7) 0.890(10) 0.2864(13)
C8D C 1.5368(4) 0.8986(6) 0.33004(9)
H4D H 1.646(6) 1.010(8) 0.3288(11)
C9D C 1.5103(4) 0.8126(6) 0.36014(8)
H5D H 1.599(5) 0.862(7) 0.3763(9)
C10D C 1.3558(4) 0.6535(6) 0.36601(7)
C11D C 1.1661(4) 0.3095(6) 0.43444(7)
O1D O 0.9077(3) 0.1754(4) 0.38140(5)
H11D H 0.9161 0.1331 0.3998
O2D O 1.0327(3) 0.1644(4) 0.43972(5)
O3D O 1.2898(3) 0.3876(4) 0.45526(5)
H12C H 0.368(7) -0.006(5) 0.1854(8)
C12C C 0.6035(7) -0.3638(5) 0.17341(8)
H6C H 0.6807 -0.3334 0.1548
C13C C 0.5264(7) -0.5326(5) 0.18578(10)
H7C H 0.5542 -0.6140 0.1764
C14C C 0.4090(7) -0.5795(5) 0.21189(9)
H8C H 0.3506 -0.6951 0.2202
C15C C 0.3776(8) -0.4540(5) 0.22593(10)
H9C H 0.2998 -0.4818 0.2444
C16C C 0.4617(7) -0.2884(5) 0.21250(9)
H10C H 0.4395 -0.2034 0.2220
N1C N 0.5739(5) -0.2426(3) 0.18642(6)
O3C O 0.6124(4) -0.0978(3) 0.12192(5)
Cu1B Cu 1.32427(6) 0.32427(6) 0.5000
C17 C 0.2152(6) 0.0675(6) 0.08081(12)
H13 H 0.1485 -0.0185 0.0645
C18 C 0.0876(9) 0.2391(10) 0.0598(2)
H14 H 0.0410 0.1588 0.0407
H15 H 0.1529 0.3585 0.0514
H16 H -0.0082 0.2260 0.0741
C19 C 0.3027(11) 0.3376(8) 0.1080(2)
H17 H 0.2544 0.4141 0.1115
H18 H 0.4250 0.4070 0.1015
H19 H 0.2931 0.2749 0.1290
O5 O 0.2952(4) 0.0274(5) 0.09839(9)
N2 N 0.1978(6) 0.2020(6) 0.07876(15)
O6 O 1.0527(8) 0.0000 0.1667
H20 H 0.9891 -0.0757 0.1522
H20C H 1.0648 0.0757 0.1811
loop_
_geom_bond_atom_site_label_1
_geom_bond_atom_site_label_2
_geom_bond_site_symmetry_1
_geom_bond_site_symmetry_2
C1 H1 1_555 1_555
C2 C1 1_555 1_555
C3 C2 1_555 1_555
C4 C3 1_555 1_555
C5 C4 1_555 1_555
C6 C5 1_555 1_555
H2 C6 1_555 1_555
C7 C6 1_555 1_555
H3 C7 1_555 1_555
C8 C7 1_555 1_555
H4 C8 1_555 1_555
C9 C8 1_555 1_555
H5 C9 1_555 1_555
C10 C1 1_555 1_555
C11 C2 1_555 1_555
C12 H6 1_555 1_555
C13 C12 1_555 1_555
H7 C13 1_555 1_555
C14 C13 1_555 1_555
H8 C14 1_555 1_555
C15 C14 1_555 1_555
H9 C15 1_555 1_555
C16 C15 1_555 1_555
H10 C16 1_555 1_555
O1 C3 1_555 1_555
H11 O1 1_555 1_555
O2 C11 1_555 1_555
O3 C11 1_555 1_555
O4 H12 1_555 1_555
N1 C12 1_555 1_555
Cu1 O3 1_555 1_555
C17 H13 1_555 1_555
C18 H14 1_555 1_555
H15 C18 1_555 1_555
H16 C18 1_555 1_555
C19 H17 1_555 1_555
H18 C19 1_555 1_555
H19 C19 1_555 1_555
O5 C17 1_555 1_555
N2 C17 1_555 1_555
O6 H20 1_555 1_555
C1D H1D 1_555 1_555
C2D C1D 1_555 1_555
C3D C2D 1_555 1_555
C4D C4 1_555 1_555
C5D C4D 1_555 1_555
C6D C5D 1_555 1_555
H2D C6D 1_555 1_555
C7D C6D 1_555 1_555
H3D C7D 1_555 1_555
C8D C7D 1_555 1_555
H4D C8D 1_555 1_555
C9D C8D 1_555 1_555
H5D C9D 1_555 1_555
C10D C1D 1_555 1_555
C11D C2D 1_555 1_555
O1D C3D 1_555 1_555
H11D O1D 1_555 1_555
O2D C11D 1_555 1_555
O3D C11D 1_555 1_555
H12C O4 1_555 1_555
C12C H6C 1_555 1_555
C13C C12C 1_555 1_555
H7C C13C 1_555 1_555
C14C C13C 1_555 1_555
H8C C14C 1_555 1_555
C15C C14C 1_555 1_555
H9C C15C 1_555 1_555
C16C C15C 1_555 1_555
H10C C16C 1_555 1_555
N1C Cu1 1_555 1_555
O3C Cu1 1_555 1_555
Cu1B O3D 1_555 1_555
H20C O6 1_555 1_555
C5 C10 1_555 1_555
C9 C10 1_555 1_555
C16 N1 1_555 1_555
O4 Cu1 1_555 1_555
N1 Cu1 1_555 1_555
C18 N2 1_555 1_555
C19 N2 1_555 1_555
C3D C4D 1_555 1_555
C5D C10D 1_555 1_555
C9D C10D 1_555 1_555
C12C N1C 1_555 1_555
C16C N1C 1_555 1_555

#END
