
#######################################################################
#
#                 Cambridge Crystallographic Data Centre
#                                CCDC 
#
#######################################################################
#
# If this CIF has been generated from an entry in the Cambridge 
# Structural Database, then it will include bibliographic, chemical, 
# crystal, experimental, refinement or atomic coordinate data resulting 
# from the CCDC's data processing and validation procedures.
#
#######################################################################

data_ZIRLUJ
_symmetry_cell_setting           monoclinic
_symmetry_space_group_name_H-M   'P 2/c'
_symmetry_Int_Tables_number      13
_space_group_name_Hall           '-P 2yc'
loop_
_symmetry_equiv_pos_site_id
_symmetry_equiv_pos_as_xyz
1 x,y,z
2 -x,y,1/2-z
3 -x,-y,-z
4 x,-y,1/2+z
_cell_length_a                   12.2835(4)
_cell_length_b                   8.3413(2)
_cell_length_c                   14.7943(5)
_cell_angle_alpha                90
_cell_angle_beta                 109.293(4)
_cell_angle_gamma                90
_cell_volume                     1430.7
loop_
_atom_site_label
_atom_site_type_symbol
_atom_site_fract_x
_atom_site_fract_y
_atom_site_fract_z
Ni1 Ni 0.5000 0.82079(5) 0.7500
O1 O 0.34574(12) 0.82384(19) 0.63831(11)
O2 O 0.37921(13) 1.0017(2) 0.53776(12)
O3 O 0.22675(13) 1.0620(2) 0.38012(11)
H1 H 0.2893 1.0638 0.4232
N1 N 0.56670(17) 0.6401(2) 0.68484(14)
C1 C 0.31448(18) 0.9052(3) 0.56293(15)
C2 C 0.19201(18) 0.8855(3) 0.49683(15)
C3 C 0.15214(18) 0.9653(3) 0.40628(15)
C4 C 0.04042(18) 0.9467(3) 0.34402(14)
C5 C -0.03746(18) 0.8516(3) 0.37452(15)
C6 C -0.15628(19) 0.8353(3) 0.32028(16)
H2 H -0.1847 0.8854 0.2609
C7 C -0.2298(2) 0.7482(3) 0.35279(18)
H3 H -0.3072 0.7408 0.3157
C8 C -0.1897(2) 0.6698(3) 0.44177(19)
H4 H -0.2402 0.6100 0.4633
C9 C -0.0768(2) 0.6817(3) 0.49616(18)
H5 H -0.0505 0.6292 0.5549
C10 C 0.00166(19) 0.7725(3) 0.46528(16)
C11 C 0.11732(19) 0.7909(3) 0.52364(16)
H6 H 0.1436 0.7372 0.5820
C12 C 0.0000 1.0404(4) 0.2500
C13 C 0.6779(2) 0.6324(3) 0.69248(19)
H7 H 0.7273 0.7142 0.7241
C14 C 0.7220(3) 0.5051(4) 0.6542(2)
H8 H 0.7995 0.5022 0.6594
C15 C 0.6485(4) 0.3843(4) 0.6089(2)
H9 H 0.6762 0.2974 0.5836
C16 C 0.5351(3) 0.3913(4) 0.6008(2)
H10 H 0.4845 0.3101 0.5702
C17 C 0.4976(2) 0.5204(3) 0.63872(18)
H11 H 0.4197 0.5259 0.6322
O4 O 0.43216(17) 1.0030(2) 0.81194(13)
H12 H 0.063(2) 1.111(3) 0.2494(18)
H13 H 0.481(3) 1.014(4) 0.862(2)
H14 H 0.369(3) 0.991(4) 0.816(3)
O1A O -0.34574(12) 0.82384(19) -0.13831(11)
O2A O -0.37921(13) 1.0017(2) -0.03776(12)
O3A O -0.22675(13) 1.0620(2) 0.11988(11)
H1A H -0.2893 1.0638 0.0768
C1A C -0.31448(18) 0.9052(3) -0.06293(15)
C2A C -0.19201(18) 0.8855(3) 0.00317(15)
C3A C -0.15214(18) 0.9653(3) 0.09372(15)
C4A C -0.04042(18) 0.9467(3) 0.15598(14)
C5A C 0.03746(18) 0.8516(3) 0.12548(15)
C6A C 0.15628(19) 0.8353(3) 0.17972(16)
H2A H 0.1847 0.8854 0.2391
C7A C 0.2298(2) 0.7482(3) 0.14721(18)
H3A H 0.3072 0.7408 0.1843
C8A C 0.1897(2) 0.6698(3) 0.05823(19)
H4A H 0.2402 0.6100 0.0367
C9A C 0.0768(2) 0.6817(3) 0.00384(18)
H5A H 0.0505 0.6292 -0.0549
C10A C -0.00166(19) 0.7725(3) 0.03472(16)
C11A C -0.11732(19) 0.7909(3) -0.02364(16)
H6A H -0.1436 0.7372 -0.0820
H12A H -0.063(2) 1.111(3) 0.2506(18)
N1A N 0.43330(17) 0.6401(2) 0.81516(14)
C13A C 0.3221(2) 0.6324(3) 0.80752(19)
H7A H 0.2727 0.7142 0.7759
C14A C 0.2780(3) 0.5051(4) 0.8458(2)
H8A H 0.2005 0.5022 0.8406
C15A C 0.3515(4) 0.3843(4) 0.8911(2)
H9A H 0.3238 0.2974 0.9164
C16A C 0.4649(3) 0.3913(4) 0.8992(2)
H10A H 0.5155 0.3101 0.9298
C17A C 0.5024(2) 0.5204(3) 0.86128(18)
H11A H 0.5803 0.5259 0.8678
O4A O 0.56784(17) 1.0030(2) 0.68806(13)
H13A H 0.519(3) 1.014(4) 0.638(2)
H14A H 0.631(3) 0.991(4) 0.684(3)
Ni1_2 Ni -0.5000 0.82079(5) -0.2500
O1A_2 O 0.65426(12) 0.82384(19) 0.86169(11)
loop_
_geom_bond_atom_site_label_1
_geom_bond_atom_site_label_2
_geom_bond_site_symmetry_1
_geom_bond_site_symmetry_2
Ni1 O1 1_555 1_555
O1 C1 1_555 1_555
O2 C1 1_555 1_555
O3 H1 1_555 1_555
N1 Ni1 1_555 1_555
C1 C2 1_555 1_555
C2 C3 1_555 1_555
C3 O3 1_555 1_555
C4 C3 1_555 1_555
C5 C4 1_555 1_555
C6 C5 1_555 1_555
H2 C6 1_555 1_555
C7 C6 1_555 1_555
H3 C7 1_555 1_555
C8 C7 1_555 1_555
H4 C8 1_555 1_555
C9 C8 1_555 1_555
H5 C9 1_555 1_555
C10 C5 1_555 1_555
C11 C2 1_555 1_555
H6 C11 1_555 1_555
C12 C4 1_555 1_555
C13 N1 1_555 1_555
H7 C13 1_555 1_555
C14 C13 1_555 1_555
H8 C14 1_555 1_555
C15 C14 1_555 1_555
H9 C15 1_555 1_555
C16 C15 1_555 1_555
H10 C16 1_555 1_555
C17 N1 1_555 1_555
H11 C17 1_555 1_555
O4 Ni1 1_555 1_555
H12 C12 1_555 1_555
H13 O4 1_555 1_555
H14 O4 1_555 1_555
O1A C1A 1_555 1_555
O2A C1A 1_555 1_555
O3A H1A 1_555 1_555
C1A C2A 1_555 1_555
C2A C3A 1_555 1_555
C3A O3A 1_555 1_555
C4A C12 1_555 1_555
C5A C4A 1_555 1_555
C6A C5A 1_555 1_555
H2A C6A 1_555 1_555
C7A C6A 1_555 1_555
H3A C7A 1_555 1_555
C8A C7A 1_555 1_555
H4A C8A 1_555 1_555
C9A C8A 1_555 1_555
H5A C9A 1_555 1_555
C10A C5A 1_555 1_555
C11A C2A 1_555 1_555
H6A C11A 1_555 1_555
H12A C12 1_555 1_555
N1A Ni1 1_555 1_555
C13A N1A 1_555 1_555
H7A C13A 1_555 1_555
C14A C13A 1_555 1_555
H8A C14A 1_555 1_555
C15A C14A 1_555 1_555
H9A C15A 1_555 1_555
C16A C15A 1_555 1_555
H10A C16A 1_555 1_555
C17A N1A 1_555 1_555
H11A C17A 1_555 1_555
O4A Ni1 1_555 1_555
H13A O4A 1_555 1_555
H14A O4A 1_555 1_555
Ni1_2 O1A 1_555 1_555
O1A_2 Ni1 1_555 1_555
C9 C10 1_555 1_555
C10 C11 1_555 1_555
C16 C17 1_555 1_555
C3A C4A 1_555 1_555
C9A C10A 1_555 1_555
C10A C11A 1_555 1_555
C16A C17A 1_555 1_555

#END
