
#######################################################################
#
#                 Cambridge Crystallographic Data Centre
#                                CCDC 
#
#######################################################################
#
# If this CIF has been generated from an entry in the Cambridge 
# Structural Database, then it will include bibliographic, chemical, 
# crystal, experimental, refinement or atomic coordinate data resulting 
# from the CCDC's data processing and validation procedures.
#
#######################################################################

data_ZIRLET
_symmetry_cell_setting           monoclinic
_symmetry_space_group_name_H-M   'C 2/c'
_symmetry_Int_Tables_number      15
_space_group_name_Hall           '-C 2yn'
loop_
_symmetry_equiv_pos_site_id
_symmetry_equiv_pos_as_xyz
1 x,y,z
2 -x,y,1/2-z
3 1/2+x,1/2+y,z
4 1/2-x,1/2+y,1/2-z
5 -x,-y,-z
6 x,-y,1/2+z
7 1/2-x,1/2-y,-z
8 1/2+x,1/2-y,1/2+z
_cell_length_a                   14.5110(18)
_cell_length_b                   16.046(2)
_cell_length_c                   29.703(4)
_cell_angle_alpha                90
_cell_angle_beta                 95.220(3)
_cell_angle_gamma                90
_cell_volume                     6887.47
loop_
_atom_site_label
_atom_site_type_symbol
_atom_site_fract_x
_atom_site_fract_y
_atom_site_fract_z
Mn1 Mn 0.38019(3) 0.46836(3) 0.264882(15)
C1 C 0.4482(3) 0.56070(19) 0.18317(10)
C2 C 0.4257(2) 0.6076(2) 0.13977(10)
C3 C 0.4883(2) 0.6140(2) 0.10818(11)
H1 H 0.5455 0.5879 0.1134
C4 C 0.4680(3) 0.6590(2) 0.06838(11)
H2 H 0.5107 0.6614 0.0469
C5 C 0.3857(3) 0.6993(2) 0.06102(11)
C6 C 0.3235(3) 0.6952(2) 0.09202(12)
H3 H 0.2676 0.7235 0.0871
C7 C 0.3424(3) 0.6489(2) 0.13116(12)
H4 H 0.2983 0.6455 0.1519
C8 C 0.3831(2) 0.7211(2) -0.01831(11)
C9 C 0.4231(3) 0.7774(2) -0.04570(12)
H5 H 0.4406 0.8301 -0.0350
C10 C 0.4366(2) 0.7536(2) -0.08978(12)
H6 H 0.4655 0.7904 -0.1082
C11 C 0.4084(2) 0.6769(2) -0.10682(10)
C12 C 0.3672(3) 0.6246(2) -0.07838(11)
H7 H 0.3474 0.5725 -0.0891
C13 C 0.3535(3) 0.6461(2) -0.03404(11)
H8 H 0.3244 0.6094 -0.0156
C14 C 0.4213(2) 0.6530(2) -0.15476(11)
C15 C 0.2581(2) 0.3661(2) 0.18808(11)
H9 H 0.2905 0.4005 0.1699
C16 C 0.1929(3) 0.3116(2) 0.16709(12)
C17 C 0.1446(3) 0.2616(3) 0.19401(14)
H10 H 0.0997 0.2255 0.1810
C18 C 0.1623(3) 0.2645(3) 0.23987(15)
H11 H 0.1309 0.2300 0.2585
C19 C 0.2290(3) 0.3210(3) 0.25808(13)
H12 H 0.2409 0.3234 0.2894
C20 C 0.1731(3) 0.3094(2) 0.11680(12)
H13 H 0.1704 0.2521 0.1064
H14 H 0.1138 0.3354 0.1081
C21 C 0.2373(3) 0.3593(2) 0.04978(13)
C22 C 0.3064(3) 0.4029(2) 0.03238(13)
H15 H 0.3543 0.4259 0.0514
C23 C 0.3041(3) 0.4124(2) -0.01384(13)
H16 H 0.3501 0.4431 -0.0261
C24 C 0.2343(3) 0.3770(2) -0.04208(13)
C25 C 0.1662(3) 0.3346(2) -0.02425(12)
H17 H 0.1186 0.3111 -0.0432
C26 C 0.1667(3) 0.3260(2) 0.02195(12)
H18 H 0.1190 0.2976 0.0342
C27 C 0.1644(2) 0.3579(2) -0.11711(11)
H19 H 0.1073 0.3834 -0.1094
H20 H 0.1592 0.2981 -0.1133
C28 C 0.1796(2) 0.3773(2) -0.16496(12)
C29 C 0.2452(2) 0.4328(2) -0.17721(11)
H21 H 0.2821 0.4594 -0.1543
C30 C 0.2054(3) 0.4129(3) -0.25217(12)
H22 H 0.2147 0.4240 -0.2822
C31 C 0.1373(3) 0.3582(3) -0.24362(15)
H23 H 0.0998 0.3343 -0.2672
C32 C 0.1252(3) 0.3392(3) -0.19954(14)
H24 H 0.0805 0.3006 -0.1930
N1 N 0.2768(2) 0.37199(17) 0.23297(9)
N2 N 0.25930(19) 0.45107(17) -0.22006(9)
O1 O 0.53150(16) 0.55499(14) 0.19698(7)
O2 O 0.38127(15) 0.53112(13) 0.20150(7)
O3 O 0.36540(18) 0.75072(14) 0.02416(7)
O4 O 0.47597(18) 0.69682(15) -0.17550(8)
O5 O 0.37532(16) 0.59333(14) -0.17128(7)
O6 O 0.24453(18) 0.35295(16) 0.09652(8)
O7 O 0.23990(17) 0.38881(16) -0.08827(8)
O8 O 0.5000 0.38497(16) 0.2500
H25 H 0.5078 0.3588 0.2257
H25A H 0.4922 0.3588 0.2743
Mn1A Mn 0.61981(3) 0.46836(3) 0.235118(15)
C1A C 0.5518(3) 0.56070(19) 0.31683(10)
C2A C 0.5743(2) 0.6076(2) 0.36023(10)
C3A C 0.5117(2) 0.6140(2) 0.39182(11)
H1A H 0.4545 0.5879 0.3866
C4A C 0.5320(3) 0.6590(2) 0.43162(11)
H2A H 0.4893 0.6614 0.4531
C5A C 0.6143(3) 0.6993(2) 0.43898(11)
C6A C 0.6765(3) 0.6952(2) 0.40798(12)
H3A H 0.7324 0.7235 0.4129
C7A C 0.6576(3) 0.6489(2) 0.36884(12)
H4A H 0.7017 0.6455 0.3481
C8A C 0.6169(2) 0.7211(2) 0.51831(11)
C9A C 0.5769(3) 0.7774(2) 0.54570(12)
H5A H 0.5594 0.8301 0.5350
C10A C 0.5634(2) 0.7536(2) 0.58978(12)
H6A H 0.5345 0.7904 0.6082
C11A C 0.5916(2) 0.6769(2) 0.60682(10)
C12A C 0.6328(3) 0.6246(2) 0.57838(11)
H7A H 0.6526 0.5725 0.5891
C13A C 0.6465(3) 0.6461(2) 0.53404(11)
H8A H 0.6756 0.6094 0.5156
C14A C 0.5787(2) 0.6530(2) 0.65476(11)
C15A C 0.7419(2) 0.3661(2) 0.31192(11)
H9A H 0.7095 0.4005 0.3301
C16A C 0.8071(3) 0.3116(2) 0.33291(12)
C17A C 0.8554(3) 0.2616(3) 0.30599(14)
H10A H 0.9003 0.2255 0.3190
C18A C 0.8377(3) 0.2645(3) 0.26013(15)
H11A H 0.8691 0.2300 0.2415
C19A C 0.7710(3) 0.3210(3) 0.24192(13)
H12A H 0.7591 0.3234 0.2106
C20A C 0.8269(3) 0.3094(2) 0.38320(12)
H13A H 0.8296 0.2521 0.3936
H14A H 0.8862 0.3354 0.3919
C21A C 0.7627(3) 0.3593(2) 0.45022(13)
C22A C 0.6936(3) 0.4029(2) 0.46762(13)
H15A H 0.6457 0.4259 0.4486
C23A C 0.6959(3) 0.4124(2) 0.51384(13)
H16A H 0.6499 0.4431 0.5261
C24A C 0.7657(3) 0.3770(2) 0.54208(13)
C25A C 0.8338(3) 0.3346(2) 0.52425(12)
H17A H 0.8814 0.3111 0.5432
C26A C 0.8333(3) 0.3260(2) 0.47805(12)
H18A H 0.8810 0.2976 0.4658
C27A C 0.8356(2) 0.3579(2) 0.61711(11)
H19A H 0.8927 0.3834 0.6094
H20A H 0.8408 0.2981 0.6133
C28A C 0.8204(2) 0.3773(2) 0.66496(12)
C29A C 0.7548(2) 0.4328(2) 0.67721(11)
H21A H 0.7179 0.4594 0.6543
C30A C 0.7946(3) 0.4129(3) 0.75217(12)
H22A H 0.7853 0.4240 0.7822
C31A C 0.8627(3) 0.3582(3) 0.74362(15)
H23A H 0.9002 0.3343 0.7672
C32A C 0.8748(3) 0.3392(3) 0.69954(14)
H24A H 0.9195 0.3006 0.6930
N1A N 0.7232(2) 0.37199(17) 0.26703(9)
N2A N 0.74070(19) 0.45107(17) 0.72006(9)
O1A O 0.46850(16) 0.55499(14) 0.30302(7)
O2A O 0.61873(15) 0.53112(13) 0.29850(7)
O3A O 0.63460(18) 0.75072(14) 0.47584(7)
O4A O 0.52403(18) 0.69682(15) 0.67550(8)
O5A O 0.62468(16) 0.59333(14) 0.67128(7)
O6A O 0.75547(18) 0.35295(16) 0.40348(8)
O7A O 0.76010(17) 0.38881(16) 0.58827(8)
Mn1D Mn 0.61981(3) 0.53164(3) 0.735118(15)
Mn1E Mn 0.38019(3) 0.53164(3) -0.235118(15)
N2D N 0.74070(19) 0.54893(17) 0.22006(9)
N2E N 0.25930(19) 0.54893(17) 0.27994(9)
O5D O 0.62468(16) 0.40667(14) 0.17128(7)
O5E O 0.37532(16) 0.40667(14) 0.32872(7)
loop_
_geom_bond_atom_site_label_1
_geom_bond_atom_site_label_2
_geom_bond_site_symmetry_1
_geom_bond_site_symmetry_2
Mn1 N1 1_555 1_555
C1 C2 1_555 1_555
C2 C3 1_555 1_555
C3 H1 1_555 1_555
C4 C3 1_555 1_555
H2 C4 1_555 1_555
C5 C4 1_555 1_555
C6 C5 1_555 1_555
H3 C6 1_555 1_555
C7 C2 1_555 1_555
H4 C7 1_555 1_555
C8 C9 1_555 1_555
C9 H5 1_555 1_555
C10 C9 1_555 1_555
H6 C10 1_555 1_555
C11 C10 1_555 1_555
C12 C11 1_555 1_555
H7 C12 1_555 1_555
C13 C8 1_555 1_555
H8 C13 1_555 1_555
C14 C11 1_555 1_555
C15 H9 1_555 1_555
C16 C15 1_555 1_555
C17 C16 1_555 1_555
H10 C17 1_555 1_555
C18 C17 1_555 1_555
H11 C18 1_555 1_555
C19 C18 1_555 1_555
H12 C19 1_555 1_555
C20 C16 1_555 1_555
H13 C20 1_555 1_555
H14 C20 1_555 1_555
C21 C22 1_555 1_555
C22 H15 1_555 1_555
C23 C22 1_555 1_555
H16 C23 1_555 1_555
C24 C23 1_555 1_555
C25 C24 1_555 1_555
H17 C25 1_555 1_555
C26 C21 1_555 1_555
H18 C26 1_555 1_555
C27 H19 1_555 1_555
H20 C27 1_555 1_555
C28 C27 1_555 1_555
C29 C28 1_555 1_555
H21 C29 1_555 1_555
C30 H22 1_555 1_555
C31 C30 1_555 1_555
H23 C31 1_555 1_555
C32 C28 1_555 1_555
H24 C32 1_555 1_555
N1 C15 1_555 1_555
N2 C29 1_555 1_555
O1 C1 1_555 1_555
O2 Mn1 1_555 1_555
O3 C5 1_555 1_555
O4 C14 1_555 1_555
O5 C14 1_555 1_555
O6 C20 1_555 1_555
O7 C24 1_555 1_555
O8 Mn1 1_555 1_555
H25 O8 1_555 1_555
H25A O8 1_555 1_555
Mn1A O1 1_555 1_555
C1A C2A 1_555 1_555
C2A C3A 1_555 1_555
C3A H1A 1_555 1_555
C4A C3A 1_555 1_555
H2A C4A 1_555 1_555
C5A C4A 1_555 1_555
C6A C5A 1_555 1_555
H3A C6A 1_555 1_555
C7A C2A 1_555 1_555
H4A C7A 1_555 1_555
C8A C9A 1_555 1_555
C9A H5A 1_555 1_555
C10A C9A 1_555 1_555
H6A C10A 1_555 1_555
C11A C10A 1_555 1_555
C12A C11A 1_555 1_555
H7A C12A 1_555 1_555
C13A C8A 1_555 1_555
H8A C13A 1_555 1_555
C14A C11A 1_555 1_555
C15A H9A 1_555 1_555
C16A C15A 1_555 1_555
C17A C16A 1_555 1_555
H10A C17A 1_555 1_555
C18A C17A 1_555 1_555
H11A C18A 1_555 1_555
C19A C18A 1_555 1_555
H12A C19A 1_555 1_555
C20A C16A 1_555 1_555
H13A C20A 1_555 1_555
H14A C20A 1_555 1_555
C21A C22A 1_555 1_555
C22A H15A 1_555 1_555
C23A C22A 1_555 1_555
H16A C23A 1_555 1_555
C24A C23A 1_555 1_555
C25A C24A 1_555 1_555
H17A C25A 1_555 1_555
C26A C21A 1_555 1_555
H18A C26A 1_555 1_555
C27A H19A 1_555 1_555
H20A C27A 1_555 1_555
C28A C27A 1_555 1_555
C29A C28A 1_555 1_555
H21A C29A 1_555 1_555
C30A H22A 1_555 1_555
C31A C30A 1_555 1_555
H23A C31A 1_555 1_555
C32A C28A 1_555 1_555
H24A C32A 1_555 1_555
N1A Mn1A 1_555 1_555
N2A C29A 1_555 1_555
O1A Mn1 1_555 1_555
O2A Mn1A 1_555 1_555
O3A C5A 1_555 1_555
O4A C14A 1_555 1_555
O5A C14A 1_555 1_555
O6A C20A 1_555 1_555
O7A C24A 1_555 1_555
Mn1D N2A 1_555 1_555
Mn1E N2 1_555 1_555
N2D Mn1A 1_555 1_555
N2E Mn1 1_555 1_555
O5D Mn1A 1_555 1_555
O5E Mn1 1_555 1_555
C1 O2 1_555 1_555
C6 C7 1_555 1_555
C8 O3 1_555 1_555
C12 C13 1_555 1_555
C19 N1 1_555 1_555
C21 O6 1_555 1_555
C25 C26 1_555 1_555
C27 O7 1_555 1_555
C30 N2 1_555 1_555
C31 C32 1_555 1_555
O5 Mn1E 1_555 1_555
O8 Mn1A 1_555 1_555
C1A O1A 1_555 1_555
C1A O2A 1_555 1_555
C6A C7A 1_555 1_555
C8A O3A 1_555 1_555
C12A C13A 1_555 1_555
C15A N1A 1_555 1_555
C19A N1A 1_555 1_555
C21A O6A 1_555 1_555
C25A C26A 1_555 1_555
C27A O7A 1_555 1_555
C30A N2A 1_555 1_555
C31A C32A 1_555 1_555
O5A Mn1D 1_555 1_555

#END
