
#######################################################################
#
#                 Cambridge Crystallographic Data Centre
#                                CCDC 
#
#######################################################################
#
# If this CIF has been generated from an entry in the Cambridge 
# Structural Database, then it will include bibliographic, chemical, 
# crystal, experimental, refinement or atomic coordinate data resulting 
# from the CCDC's data processing and validation procedures.
#
#######################################################################

data_ZIRLOD
_symmetry_cell_setting           monoclinic
_symmetry_space_group_name_H-M   'P 2/c'
_symmetry_Int_Tables_number      13
_space_group_name_Hall           '-P 2yc'
loop_
_symmetry_equiv_pos_site_id
_symmetry_equiv_pos_as_xyz
1 x,y,z
2 -x,y,1/2-z
3 -x,-y,-z
4 x,-y,1/2+z
_cell_length_a                   12.2680(4)
_cell_length_b                   8.4009(3)
_cell_length_c                   14.8244(4)
_cell_angle_alpha                90
_cell_angle_beta                 109.130(3)
_cell_angle_gamma                90
_cell_volume                     1443.46
loop_
_atom_site_label
_atom_site_type_symbol
_atom_site_fract_x
_atom_site_fract_y
_atom_site_fract_z
Co1 Co 0.0000 0.82129(6) 0.2500
O1 O 0.15476(12) 0.8260(2) 0.36331(10)
O2 O 0.12215(12) 1.0052(2) 0.46247(11)
O3 O 0.27398(13) 1.0644(2) 0.61949(11)
N1 N 0.07055(17) 0.6364(3) 0.18536(13)
C1 C 0.18643(18) 0.9083(3) 0.43801(14)
C2 C 0.30870(17) 0.8881(3) 0.50390(13)
C3 C 0.38294(19) 0.7936(3) 0.47778(15)
C4 C 0.49899(18) 0.7737(3) 0.53599(14)
C5 C 0.5771(2) 0.6826(3) 0.50575(17)
C6 C 0.6902(2) 0.6699(4) 0.56042(18)
C7 C 0.72972(19) 0.7495(4) 0.64854(16)
C8 C 0.65672(19) 0.8365(3) 0.68075(16)
C9 C 0.45983(17) 0.9483(3) 0.65631(13)
C10 C 0.34854(17) 0.9678(3) 0.59406(14)
C11 C 0.53768(17) 0.8538(3) 0.62614(14)
C12 C 0.5000 1.0424(4) 0.7500
C13 C 0.1813(3) 0.6289(4) 0.1932(2)
C14 C 0.2247(4) 0.5020(6) 0.1536(3)
C15 C 0.1509(5) 0.3847(5) 0.1081(3)
C16 C 0.0008(3) 0.5175(4) 0.13850(17)
O4 O 0.06906(14) 1.0041(2) 0.18618(11)
H1 H 0.3578(19) 0.742(3) 0.4202(16)
H2 H 0.815(2) 0.743(3) 0.6858(15)
H3 H 0.682(2) 0.888(3) 0.7382(18)
H4 H 0.217(3) 1.075(4) 0.572(2)
H5 H 0.547(2) 0.626(3) 0.4449(18)
H6 H 0.740(2) 0.611(3) 0.5376(18)
H7 H 0.228(2) 0.708(3) 0.2255(17)
H8 H -0.019(4) 0.294(6) 0.062(3)
H9 H 0.301(2) 0.523(4) 0.1730(19)
C17 C 0.0377(4) 0.3904(4) 0.0998(2)
H10 H 0.1322(12) 0.993(4) 0.1767(18)
H11 H 0.0203(16) 1.013(4) 0.1311(10)
H12 H 0.177(3) 0.298(5) 0.083(3)
H13 H -0.087(3) 0.528(4) 0.139(2)
H14 H 0.4373(19) 1.113(3) 0.7513(16)
O1A O 0.84524(12) 0.8260(2) 1.13669(10)
O2A O 0.87785(12) 1.0052(2) 1.03753(11)
O3A O 0.72602(13) 1.0644(2) 0.88051(11)
C1A C 0.81357(18) 0.9083(3) 1.06199(14)
C2A C 0.69130(17) 0.8881(3) 0.99610(13)
C3A C 0.61706(19) 0.7936(3) 1.02222(15)
C4A C 0.50101(18) 0.7737(3) 0.96401(14)
C5A C 0.4229(2) 0.6826(3) 0.99425(17)
C6A C 0.3098(2) 0.6699(4) 0.93958(18)
C7A C 0.27028(19) 0.7495(4) 0.85146(16)
C8A C 0.34328(19) 0.8365(3) 0.81925(16)
C9A C 0.54017(17) 0.9483(3) 0.84369(13)
C10A C 0.65146(17) 0.9678(3) 0.90594(14)
C11A C 0.46232(17) 0.8538(3) 0.87386(14)
H1A H 0.6422(19) 0.742(3) 1.0798(16)
H2A H 0.185(2) 0.743(3) 0.8142(15)
H3A H 0.318(2) 0.888(3) 0.7618(18)
H4A H 0.783(3) 1.075(4) 0.928(2)
H5A H 0.453(2) 0.626(3) 1.0551(18)
H6A H 0.260(2) 0.611(3) 0.9624(18)
H14A H 0.5627(19) 1.113(3) 0.7487(16)
N1A N -0.07055(17) 0.6364(3) 0.31464(13)
C13A C -0.1813(3) 0.6289(4) 0.3068(2)
C14A C -0.2247(4) 0.5020(6) 0.3464(3)
C15A C -0.1509(5) 0.3847(5) 0.3919(3)
C16A C -0.0008(3) 0.5175(4) 0.36150(17)
O4A O -0.06906(14) 1.0041(2) 0.31382(11)
H7A H -0.228(2) 0.708(3) 0.2745(17)
H8A H 0.019(4) 0.294(6) 0.438(3)
H9A H -0.301(2) 0.523(4) 0.3270(19)
C17A C -0.0377(4) 0.3904(4) 0.4002(2)
H10A H -0.1322(12) 0.993(4) 0.3233(18)
H11A H -0.0203(16) 1.013(4) 0.3689(10)
H12A H -0.177(3) 0.298(5) 0.417(3)
H13A H 0.087(3) 0.528(4) 0.361(2)
Co1_2 Co 1.0000 0.82129(6) 1.2500
O1A_2 O -0.15476(12) 0.8260(2) 0.13669(10)
loop_
_geom_bond_atom_site_label_1
_geom_bond_atom_site_label_2
_geom_bond_site_symmetry_1
_geom_bond_site_symmetry_2
Co1 O1 1_555 1_555
O1 C1 1_555 1_555
O2 C1 1_555 1_555
O3 C10 1_555 1_555
N1 Co1 1_555 1_555
C1 C2 1_555 1_555
C2 C3 1_555 1_555
C3 C4 1_555 1_555
C4 C5 1_555 1_555
C5 C6 1_555 1_555
C6 C7 1_555 1_555
C7 C8 1_555 1_555
C8 C11 1_555 1_555
C9 C10 1_555 1_555
C10 C2 1_555 1_555
C11 C4 1_555 1_555
C12 C9 1_555 1_555
C13 N1 1_555 1_555
C14 C13 1_555 1_555
C15 C14 1_555 1_555
C16 N1 1_555 1_555
O4 Co1 1_555 1_555
H1 C3 1_555 1_555
H2 C7 1_555 1_555
H3 C8 1_555 1_555
H4 O3 1_555 1_555
H5 C5 1_555 1_555
H6 C6 1_555 1_555
H7 C13 1_555 1_555
H8 C17 1_555 1_555
H9 C14 1_555 1_555
C17 C15 1_555 1_555
H10 O4 1_555 1_555
H11 O4 1_555 1_555
H12 C15 1_555 1_555
H13 C16 1_555 1_555
H14 C12 1_555 1_555
O1A C1A 1_555 1_555
O2A C1A 1_555 1_555
O3A C10A 1_555 1_555
C1A C2A 1_555 1_555
C2A C3A 1_555 1_555
C3A C4A 1_555 1_555
C4A C5A 1_555 1_555
C5A C6A 1_555 1_555
C6A C7A 1_555 1_555
C7A C8A 1_555 1_555
C8A C11A 1_555 1_555
C9A C12 1_555 1_555
C10A C2A 1_555 1_555
C11A C4A 1_555 1_555
H1A C3A 1_555 1_555
H2A C7A 1_555 1_555
H3A C8A 1_555 1_555
H4A O3A 1_555 1_555
H5A C5A 1_555 1_555
H6A C6A 1_555 1_555
H14A C12 1_555 1_555
N1A Co1 1_555 1_555
C13A N1A 1_555 1_555
C14A C13A 1_555 1_555
C15A C14A 1_555 1_555
C16A N1A 1_555 1_555
O4A Co1 1_555 1_555
H7A C13A 1_555 1_555
H8A C17A 1_555 1_555
H9A C14A 1_555 1_555
C17A C15A 1_555 1_555
H10A O4A 1_555 1_555
H11A O4A 1_555 1_555
H12A C15A 1_555 1_555
H13A C16A 1_555 1_555
Co1_2 O1A 1_555 1_555
O1A_2 Co1 1_555 1_555
C9 C11 1_555 1_555
C16 C17 1_555 1_555
C9A C10A 1_555 1_555
C9A C11A 1_555 1_555
C16A C17A 1_555 1_555

#END
