
#######################################################################
#
#                 Cambridge Crystallographic Data Centre
#                                CCDC 
#
#######################################################################
#
# If this CIF has been generated from an entry in the Cambridge 
# Structural Database, then it will include bibliographic, chemical, 
# crystal, experimental, refinement or atomic coordinate data resulting 
# from the CCDC's data processing and validation procedures.
#
#######################################################################

data_ZIRMAQ
_symmetry_cell_setting           monoclinic
_symmetry_space_group_name_H-M   'P 21/c'
_symmetry_Int_Tables_number      14
_space_group_name_Hall           '-P 2ybc'
loop_
_symmetry_equiv_pos_site_id
_symmetry_equiv_pos_as_xyz
1 x,y,z
2 -x,1/2+y,1/2-z
3 -x,-y,-z
4 x,1/2-y,1/2+z
_cell_length_a                   10.8946(4)
_cell_length_b                   11.1693(4)
_cell_length_c                   23.2114(10)
_cell_angle_alpha                90
_cell_angle_beta                 97.704(2)
_cell_angle_gamma                90
_cell_volume                     2798.99
loop_
_atom_site_label
_atom_site_type_symbol
_atom_site_fract_x
_atom_site_fract_y
_atom_site_fract_z
Zn1 Zn 0.52863(3) 0.14765(3) 0.333280(12)
O1 O 0.24047(18) 0.07486(18) 0.13869(8)
H1 H 0.2979 0.0541 0.1632
O2 O 0.36004(18) 0.05508(18) 0.24017(8)
O3 O 0.36192(17) 0.2063(2) 0.30190(8)
O4 O -0.41865(18) 0.2293(2) -0.10592(8)
O5 O -0.2588(2) 0.3492(2) -0.10485(9)
O6 O -0.06431(19) 0.31832(19) -0.03367(8)
H2 H -0.1130 0.3513 -0.0587
N1 N 0.6297(2) 0.1624(2) 0.26638(10)
N2 N 0.5083(2) -0.0081(2) 0.37578(9)
C1 C 0.3198(2) 0.1538(3) 0.25482(12)
C2 C 0.2225(2) 0.2173(2) 0.21475(10)
C3 C 0.1691(2) 0.3190(2) 0.23293(11)
H3 H 0.1903 0.3448 0.2711
C4 C 0.0829(2) 0.3847(2) 0.19520(11)
C5 C 0.0293(3) 0.4914(3) 0.21362(13)
H4 H 0.0473 0.5153 0.2522
C6 C -0.0467(3) 0.5585(3) 0.17623(14)
H5 H -0.0821 0.6276 0.1891
C7 C -0.0730(3) 0.5237(2) 0.11809(13)
H6 H -0.1240 0.5714 0.0922
C8 C -0.0247(2) 0.4214(2) 0.09881(11)
H7 H -0.0434 0.4004 0.0598
C9 C 0.0527(2) 0.3462(2) 0.13659(11)
C10 C 0.1041(2) 0.2374(2) 0.11796(10)
C11 C 0.1876(2) 0.1752(2) 0.15694(11)
C12 C 0.0772(2) 0.1946(3) 0.05524(10)
H8 H 0.1012 0.2579 0.0304
H9 H 0.1307 0.1266 0.0509
C13 C -0.0541(2) 0.1580(2) 0.03230(10)
C14 C -0.1197(2) 0.2220(2) -0.01277(10)
C15 C -0.2412(2) 0.1886(3) -0.03755(10)
C16 C -0.2946(2) 0.0891(3) -0.01675(11)
H10 H -0.3743 0.0673 -0.0328
C17 C -0.2315(2) 0.0193(2) 0.02824(10)
C18 C -0.2849(3) -0.0855(3) 0.04884(12)
H11 H -0.3655 -0.1065 0.0339
C19 C -0.2198(3) -0.1553(3) 0.09016(14)
H12 H -0.2563 -0.2232 0.1036
C20 C -0.0994(3) -0.1250(3) 0.11224(14)
H13 H -0.0525 -0.1744 0.1381
C21 C -0.0451(3) -0.0241(2) 0.09478(11)
H14 H 0.0353 -0.0051 0.1110
C22 C -0.1089(2) 0.0532(2) 0.05223(10)
C23 C 0.4081(3) -0.0221(4) 0.40072(18)
H15 H 0.3450 0.0342 0.3933
C24 C 0.3932(4) -0.1147(5) 0.4382(2)
H16 H 0.3220 -0.1197 0.4561
C25 C 0.4800(4) -0.1986(5) 0.4470(2)
H17 H 0.4708 -0.2627 0.4716
C26 C 0.5831(4) -0.1885(4) 0.4206(2)
H18 H 0.6447 -0.2467 0.4258
C27 C 0.5941(3) -0.0921(4) 0.38573(17)
H19 H 0.6661 -0.0844 0.3686
C28 C 0.6337(3) 0.0810(3) 0.22498(13)
H20 H 0.5893 0.0103 0.2268
C29 C 0.7013(4) 0.0969(4) 0.17975(17)
H21 H 0.7023 0.0380 0.1515
C30 C 0.7657(5) 0.1987(5) 0.1766(2)
H22 H 0.8115 0.2112 0.1460
C31 C 0.7632(5) 0.2814(5) 0.2179(2)
H23 H 0.8072 0.3524 0.2164
C32 C 0.6950(4) 0.2610(3) 0.26246(16)
H24 H 0.6942 0.3195 0.2909
C33 C -0.3088(3) 0.2602(3) -0.08556(11)
Zn1C Zn -0.47137(3) 0.35235(3) -0.166720(12)
O4C O 0.58135(18) 0.2707(2) 0.39408(8)
O5C O 0.7412(2) 0.1508(2) 0.39515(9)
loop_
_geom_bond_atom_site_label_1
_geom_bond_atom_site_label_2
_geom_bond_site_symmetry_1
_geom_bond_site_symmetry_2
Zn1 O3 1_555 1_555
O1 H1 1_555 1_555
O2 C1 1_555 1_555
O3 C1 1_555 1_555
O4 C33 1_555 1_555
O5 C33 1_555 1_555
O6 H2 1_555 1_555
N1 Zn1 1_555 1_555
N2 Zn1 1_555 1_555
C1 C2 1_555 1_555
C2 C3 1_555 1_555
C3 H3 1_555 1_555
C4 C3 1_555 1_555
C5 C4 1_555 1_555
H4 C5 1_555 1_555
C6 C5 1_555 1_555
H5 C6 1_555 1_555
C7 C6 1_555 1_555
H6 C7 1_555 1_555
C8 C7 1_555 1_555
H7 C8 1_555 1_555
C9 C4 1_555 1_555
C10 C9 1_555 1_555
C11 O1 1_555 1_555
C12 C10 1_555 1_555
H8 C12 1_555 1_555
H9 C12 1_555 1_555
C13 C12 1_555 1_555
C14 O6 1_555 1_555
C15 C14 1_555 1_555
C16 C15 1_555 1_555
H10 C16 1_555 1_555
C17 C16 1_555 1_555
C18 C17 1_555 1_555
H11 C18 1_555 1_555
C19 C18 1_555 1_555
H12 C19 1_555 1_555
C20 C19 1_555 1_555
H13 C20 1_555 1_555
C21 C20 1_555 1_555
H14 C21 1_555 1_555
C22 C13 1_555 1_555
C23 N2 1_555 1_555
H15 C23 1_555 1_555
C24 C23 1_555 1_555
H16 C24 1_555 1_555
C25 C24 1_555 1_555
H17 C25 1_555 1_555
C26 C25 1_555 1_555
H18 C26 1_555 1_555
C27 N2 1_555 1_555
H19 C27 1_555 1_555
C28 N1 1_555 1_555
H20 C28 1_555 1_555
C29 C28 1_555 1_555
H21 C29 1_555 1_555
C30 C29 1_555 1_555
H22 C30 1_555 1_555
C31 C30 1_555 1_555
H23 C31 1_555 1_555
C32 N1 1_555 1_555
H24 C32 1_555 1_555
C33 C15 1_555 1_555
Zn1C O4 1_555 1_555
O4C Zn1 1_555 1_555
O5C Zn1 1_555 1_555
O5 Zn1C 1_555 1_555
C2 C11 1_555 1_555
C8 C9 1_555 1_555
C10 C11 1_555 1_555
C13 C14 1_555 1_555
C17 C22 1_555 1_555
C21 C22 1_555 1_555
C26 C27 1_555 1_555
C31 C32 1_555 1_555

#END
