
#######################################################################
#
#                 Cambridge Crystallographic Data Centre
#                                CCDC 
#
#######################################################################
#
# If this CIF has been generated from an entry in the Cambridge 
# Structural Database, then it will include bibliographic, chemical, 
# crystal, experimental, refinement or atomic coordinate data resulting 
# from the CCDC's data processing and validation procedures.
#
#######################################################################

data_ZIRMEU
_symmetry_cell_setting           monoclinic
_symmetry_space_group_name_H-M   'P 21/c'
_symmetry_Int_Tables_number      14
_space_group_name_Hall           '-P 2ybc'
loop_
_symmetry_equiv_pos_site_id
_symmetry_equiv_pos_as_xyz
1 x,y,z
2 -x,1/2+y,1/2-z
3 -x,-y,-z
4 x,1/2-y,1/2+z
_cell_length_a                   10.3087(4)
_cell_length_b                   15.7171(6)
_cell_length_c                   17.6567(7)
_cell_angle_alpha                90
_cell_angle_beta                 94.869(4)
_cell_angle_gamma                90
_cell_volume                     2850.47
loop_
_atom_site_label
_atom_site_type_symbol
_atom_site_fract_x
_atom_site_fract_y
_atom_site_fract_z
Cd1 Cd 0.529173(19) 1.030742(12) 0.109918(11)
C1 C 0.7181(3) 0.48002(15) 0.00163(15)
C2 C 0.7935(2) 0.53089(14) -0.04528(14)
C3 C 0.8787(2) 0.67673(15) 0.11325(14)
C4 C 0.7702(3) 0.52365(15) -0.12354(14)
C5 C 0.8187(3) 0.74243(16) 0.15301(14)
C6 C 0.7140(2) 0.79641(14) 0.03432(14)
C7 C 0.7373(3) 0.80186(16) 0.11169(15)
H1 H 0.6988 0.8454 0.1376
C8 C 0.7686(2) 0.72683(15) -0.00461(14)
C9 C 0.6177(3) 0.42603(16) -0.03213(15)
C10 C 0.8463(2) 0.66594(14) 0.03369(14)
C11 C 0.7365(3) 0.47981(16) 0.08209(16)
H2 H 0.8038 0.5118 0.1062
C12 C 0.9712(3) 0.62445(17) 0.15654(16)
H3 H 1.0164 0.5829 0.1320
C13 C 0.9943(3) 0.63452(19) 0.23319(17)
H4 H 1.0558 0.6003 0.2600
C14 C 0.8420(3) 0.74861(18) 0.23295(16)
H5 H 0.7984 0.7897 0.2589
C15 C 0.5386(3) 0.37954(17) 0.01485(17)
H6 H 0.4721 0.3456 -0.0076
C16 C 0.5573(3) 0.38318(19) 0.09163(18)
H7 H 0.5041 0.3524 0.1217
C17 C 0.9268(3) 0.69577(19) 0.27220(17)
H8 H 0.9402 0.7000 0.3248
C18 C 0.6686(3) 0.46997(15) -0.15733(15)
C19 C 0.5957(3) 0.42308(16) -0.11178(15)
H9 H 0.5298 0.3884 -0.1339
C20 C 0.6314(2) 0.86231(15) -0.00756(16)
O1 O 0.58226(19) 0.92188(12) 0.02686(11)
C21 C 0.6329(3) 0.46937(18) -0.24093(16)
O2 O 0.84615(19) 0.56785(12) -0.16897(10)
H10 H 0.8164 0.5634 -0.2134
O3 O 0.5482(2) 0.41862(14) -0.26809(11)
O4 O 0.6870(2) 0.52236(13) -0.28278(11)
N1 N 0.7094(2) 1.10092(15) 0.07248(13)
C22 C 0.7076(4) 1.1837(2) 0.0653(3)
H11 H 0.6327 1.2127 0.0759
C23 C 0.8176(3) 1.0623(2) 0.0593(2)
H12 H 0.8226 1.0037 0.0663
C24 C 0.9238(4) 1.1036(3) 0.0357(3)
H13 H 0.9985 1.0737 0.0260
C25 C 0.9175(4) 1.1895(3) 0.0268(3)
H14 H 0.9871 1.2196 0.0098
C26 C 0.8096(4) 1.2295(3) 0.0429(4)
H15 H 0.8038 1.2884 0.0389
N2 N 0.3600(3) 0.94328(16) 0.14024(14)
C27 C 0.2501(3) 0.9766(2) 0.1603(2)
H16 H 0.2398 1.0353 0.1576
C28 C 0.3711(4) 0.8596(2) 0.1460(3)
H17 H 0.4474 0.8343 0.1325
C29 C 0.6576(3) 0.43382(19) 0.12494(17)
H18 H 0.6711 0.4363 0.1776
O5 O 0.6119(2) 0.85582(12) -0.07908(11)
C30 C 0.1500(4) 0.9286(3) 0.1851(2)
H19 H 0.0741 0.9545 0.1985
C31 C 0.1640(5) 0.8430(3) 0.1896(3)
H20 H 0.0976 0.8090 0.2055
C32 C 0.2759(5) 0.8083(3) 0.1708(3)
H21 H 0.2886 0.7498 0.1745
O6 O 0.74649(19) 0.71900(11) -0.08091(9)
H22 H 0.6997 0.7581 -0.0976
C33 C 0.8974(2) 0.59286(15) -0.01201(15)
H23 H 0.9609 0.5613 0.0206
H24 H 0.9422 0.6165 -0.0533
Cd1B Cd 0.470827(19) 0.969258(12) -0.109918(11)
Cd1C Cd 0.529173(19) 0.469258(12) -0.390082(11)
O1B O 0.41774(19) 1.07812(12) -0.02686(11)
O3C O 0.5482(2) 1.08138(14) 0.23191(11)
O4C O 0.6870(2) 0.97764(13) 0.21722(11)
O5B O 0.3881(2) 1.14418(12) 0.07908(11)
loop_
_geom_bond_atom_site_label_1
_geom_bond_atom_site_label_2
_geom_bond_site_symmetry_1
_geom_bond_site_symmetry_2
Cd1 O1 1_555 1_555
C1 C2 1_555 1_555
C2 C4 1_555 1_555
C3 C5 1_555 1_555
C4 C18 1_555 1_555
C5 C7 1_555 1_555
C6 C7 1_555 1_555
C7 H1 1_555 1_555
C8 C6 1_555 1_555
C9 C1 1_555 1_555
C10 C3 1_555 1_555
C11 C1 1_555 1_555
H2 C11 1_555 1_555
C12 C3 1_555 1_555
H3 C12 1_555 1_555
C13 C12 1_555 1_555
H4 C13 1_555 1_555
C14 C5 1_555 1_555
H5 C14 1_555 1_555
C15 C9 1_555 1_555
H6 C15 1_555 1_555
C16 C15 1_555 1_555
H7 C16 1_555 1_555
C17 C13 1_555 1_555
H8 C17 1_555 1_555
C18 C19 1_555 1_555
C19 C9 1_555 1_555
H9 C19 1_555 1_555
C20 C6 1_555 1_555
O1 C20 1_555 1_555
C21 C18 1_555 1_555
O2 C4 1_555 1_555
H10 O2 1_555 1_555
O3 C21 1_555 1_555
O4 C21 1_555 1_555
N1 Cd1 1_555 1_555
C22 N1 1_555 1_555
H11 C22 1_555 1_555
C23 N1 1_555 1_555
H12 C23 1_555 1_555
C24 C23 1_555 1_555
H13 C24 1_555 1_555
C25 C24 1_555 1_555
H14 C25 1_555 1_555
C26 C22 1_555 1_555
H15 C26 1_555 1_555
N2 Cd1 1_555 1_555
C27 N2 1_555 1_555
H16 C27 1_555 1_555
C28 N2 1_555 1_555
H17 C28 1_555 1_555
C29 C11 1_555 1_555
H18 C29 1_555 1_555
O5 C20 1_555 1_555
C30 C27 1_555 1_555
H19 C30 1_555 1_555
C31 C30 1_555 1_555
H20 C31 1_555 1_555
C32 C28 1_555 1_555
H21 C32 1_555 1_555
O6 C8 1_555 1_555
H22 O6 1_555 1_555
C33 C2 1_555 1_555
H23 C33 1_555 1_555
H24 C33 1_555 1_555
Cd1B O1 1_555 1_555
Cd1C O3 1_555 1_555
O1B Cd1 1_555 1_555
O3C Cd1 1_555 1_555
O4C Cd1 1_555 1_555
O5B Cd1 1_555 1_555
C8 C10 1_555 1_555
C10 C33 1_555 1_555
C14 C17 1_555 1_555
C16 C29 1_555 1_555
O4 Cd1C 1_555 1_555
C25 C26 1_555 1_555
O5 Cd1B 1_555 1_555
C31 C32 1_555 1_555
Cd1B O1B 1_555 1_555

#END
