
#######################################################################
#
#                 Cambridge Crystallographic Data Centre
#                                CCDC 
#
#######################################################################
#
# If this CIF has been generated from an entry in the Cambridge 
# Structural Database, then it will include bibliographic, chemical, 
# crystal, experimental, refinement or atomic coordinate data resulting 
# from the CCDC's data processing and validation procedures.
#
#######################################################################

data_ZIRNIX
_symmetry_cell_setting           tetragonal
_symmetry_space_group_name_H-M   'I 41/a'
_symmetry_Int_Tables_number      88
_space_group_name_Hall           '-I 4ad'
loop_
_symmetry_equiv_pos_site_id
_symmetry_equiv_pos_as_xyz
1 x,y,z
2 3/4-y,1/4+x,1/4+z
3 1/2-x,-y,1/2+z
4 3/4+y,3/4-x,3/4+z
5 1/2+x,1/2+y,1/2+z
6 1/4-y,3/4+x,3/4+z
7 -x,1/2-y,z
8 1/4+y,1/4-x,1/4+z
9 -x,-y,-z
10 1/4+y,3/4-x,3/4-z
11 1/2+x,y,1/2-z
12 1/4-y,1/4+x,1/4-z
13 1/2-x,1/2-y,1/2-z
14 3/4+y,1/4-x,1/4-z
15 x,1/2+y,-z
16 3/4-y,3/4+x,3/4-z
_cell_length_a                   23.706(2)
_cell_length_b                   23.706(2)
_cell_length_c                   12.934(2)
_cell_angle_alpha                90
_cell_angle_beta                 90
_cell_angle_gamma                90
_cell_volume                     7268.58
loop_
_atom_site_label
_atom_site_type_symbol
_atom_site_fract_x
_atom_site_fract_y
_atom_site_fract_z
Ag1 Ag 0.5244(1) 0.3133(1) 0.0282(1)
Ag2 Ag 0.4579(1) 0.2997(1) 0.2188(1)
S1 S 0.4355(1) 0.3089(2) -0.0595(3)
S2 S 0.3680(2) 0.3062(2) 0.1356(3)
S3 S 0.5413(2) 0.3292(2) 0.3094(3)
S4 S 0.6016(2) 0.3587(2) 0.1140(3)
C1 C 0.3769(5) 0.3077(5) 0.0084(10)
C2 C 0.3219(5) 0.3058(5) -0.0537(9)
C3 C 0.2900(6) 0.2576(6) -0.0488(12)
C4 C 0.2389(8) 0.2546(8) -0.1043(14)
C5 C 0.2225(8) 0.3023(7) -0.1579(14)
C6 C 0.2536(7) 0.3504(7) -0.1639(14)
C7 C 0.3062(5) 0.3534(5) -0.1101(11)
C8 C 0.3379(6) 0.4061(6) -0.1163(14)
C9 C 0.5929(5) 0.3578(5) 0.2408(10)
C10 C 0.6357(5) 0.3899(5) 0.3025(10)
C11 C 0.6262(7) 0.4469(7) 0.3233(12)
C12 C 0.6653(7) 0.4790(8) 0.3799(13)
C13 C 0.7132(7) 0.4525(7) 0.4139(12)
C14 C 0.7247(7) 0.3980(6) 0.3949(13)
C15 C 0.6844(6) 0.3651(6) 0.3396(11)
C16 C 0.6979(7) 0.3060(6) 0.3152(14)
H1 H 0.3036 0.2245 -0.0080
H2 H 0.2153 0.2196 -0.1056
H3 H 0.1848 0.3015 -0.1923
H4 H 0.2392 0.3829 -0.2054
H5 H 0.3706 0.4148 -0.0703
H6 H 0.3038 0.4268 -0.0913
H7 H 0.3469 0.4181 -0.1886
H8 H 0.5901 0.4645 0.2996
H9 H 0.6589 0.5201 0.3930
H10 H 0.7408 0.4749 0.4555
H11 H 0.7612 0.3809 0.4176
H12 H 0.7338 0.2988 0.3535
H13 H 0.7045 0.3012 0.2394
H14 H 0.6685 0.2786 0.3387
Ag1F Ag 0.4756(1) 0.1867(1) 0.0282(1)
Ag2F Ag 0.5421(1) 0.2003(1) 0.2188(1)
Ag1O Ag 0.4367(1) 0.2744(1) -0.2782(1)
Ag1I Ag 0.5633(1) 0.2256(1) -0.2782(1)
S1O S 0.4411(2) 0.1855(1) -0.1905(3)
S1F S 0.5645(1) 0.1911(2) -0.0595(3)
S1I S 0.5589(2) 0.3145(1) -0.1905(3)
S3O S 0.4208(2) 0.2913(2) 0.4406(3)
Ag2O Ag 0.4503(1) 0.2079(1) 0.5312(1)
Ag2I Ag 0.5497(1) 0.2921(1) 0.5312(1)
S3I S 0.5792(2) 0.2087(2) 0.4406(3)
S2F S 0.6320(2) 0.1938(2) 0.1356(3)
C1F C 0.6231(5) 0.1923(5) 0.0084(10)
C2F C 0.6781(5) 0.1942(5) -0.0537(9)
C3F C 0.7100(6) 0.2424(6) -0.0488(12)
C4F C 0.7611(8) 0.2454(8) -0.1043(14)
C5F C 0.7775(8) 0.1977(7) -0.1579(14)
C6F C 0.7464(7) 0.1496(7) -0.1639(14)
C7F C 0.6938(5) 0.1466(5) -0.1101(11)
C8F C 0.6621(6) 0.0939(6) -0.1163(14)
H5F H 0.6294 0.0852 -0.0703
H6F H 0.6962 0.0732 -0.0913
H7F H 0.6531 0.0819 -0.1886
H4F H 0.7608 0.1171 -0.2054
H3F H 0.8152 0.1985 -0.1923
H2F H 0.7847 0.2804 -0.1056
H1F H 0.6964 0.2755 -0.0080
S3F S 0.4587(2) 0.1708(2) 0.3094(3)
C9F C 0.4071(5) 0.1422(5) 0.2408(10)
S4F S 0.3984(2) 0.1413(2) 0.1140(3)
C10F C 0.3643(5) 0.1101(5) 0.3025(10)
C11F C 0.3738(7) 0.0531(7) 0.3233(12)
C12F C 0.3347(7) 0.0210(8) 0.3799(13)
C13F C 0.2868(7) 0.0475(7) 0.4139(12)
C14F C 0.2753(7) 0.1020(6) 0.3949(13)
C15F C 0.3156(6) 0.1349(6) 0.3396(11)
C16F C 0.3021(7) 0.1940(6) 0.3152(14)
H12F H 0.2662 0.2012 0.3535
H13F H 0.2955 0.1988 0.2394
H14F H 0.3315 0.2214 0.3387
H11F H 0.2388 0.1191 0.4176
H10F H 0.2592 0.0251 0.4555
H9F H 0.3411 -0.0201 0.3930
H8F H 0.4099 0.0355 0.2996
loop_
_geom_bond_atom_site_label_1
_geom_bond_atom_site_label_2
_geom_bond_site_symmetry_1
_geom_bond_site_symmetry_2
Ag1 Ag2 1_555 1_555
Ag2 S2 1_555 1_555
S1 Ag1 1_555 1_555
S2 C1 1_555 1_555
S3 Ag2 1_555 1_555
S4 Ag1 1_555 1_555
C1 S1 1_555 1_555
C2 C1 1_555 1_555
C3 C2 1_555 1_555
C4 C3 1_555 1_555
C5 C4 1_555 1_555
C6 C5 1_555 1_555
C7 C2 1_555 1_555
C8 C7 1_555 1_555
C9 S3 1_555 1_555
C10 C9 1_555 1_555
C11 C10 1_555 1_555
C12 C11 1_555 1_555
C13 C12 1_555 1_555
C14 C13 1_555 1_555
C15 C10 1_555 1_555
C16 C15 1_555 1_555
H1 C3 1_555 1_555
H2 C4 1_555 1_555
H3 C5 1_555 1_555
H4 C6 1_555 1_555
H5 C8 1_555 1_555
H6 C8 1_555 1_555
H7 C8 1_555 1_555
H8 C11 1_555 1_555
H9 C12 1_555 1_555
H10 C13 1_555 1_555
H11 C14 1_555 1_555
H12 C16 1_555 1_555
H13 C16 1_555 1_555
H14 C16 1_555 1_555
Ag1F Ag1 1_555 1_555
Ag2F Ag2 1_555 1_555
Ag1O S1 1_555 1_555
Ag1I Ag1O 1_555 1_555
S1O Ag1F 1_555 1_555
S1F Ag1F 1_555 1_555
S1I Ag1 1_555 1_555
S3O Ag2 1_555 1_555
Ag2O S3O 1_555 1_555
Ag2I S3 1_555 1_555
S3I Ag2F 1_555 1_555
S2F Ag2F 1_555 1_555
C1F S1F 1_555 1_555
C2F C1F 1_555 1_555
C3F C2F 1_555 1_555
C4F C3F 1_555 1_555
C5F C4F 1_555 1_555
C6F C5F 1_555 1_555
C7F C2F 1_555 1_555
C8F C7F 1_555 1_555
H5F C8F 1_555 1_555
H6F C8F 1_555 1_555
H7F C8F 1_555 1_555
H4F C6F 1_555 1_555
H3F C5F 1_555 1_555
H2F C4F 1_555 1_555
H1F C3F 1_555 1_555
S3F Ag2F 1_555 1_555
C9F S3F 1_555 1_555
S4F Ag1F 1_555 1_555
C10F C9F 1_555 1_555
C11F C10F 1_555 1_555
C12F C11F 1_555 1_555
C13F C12F 1_555 1_555
C14F C13F 1_555 1_555
C15F C10F 1_555 1_555
C16F C15F 1_555 1_555
H12F C16F 1_555 1_555
H13F C16F 1_555 1_555
H14F C16F 1_555 1_555
H11F C14F 1_555 1_555
H10F C13F 1_555 1_555
H9F C12F 1_555 1_555
H8F C11F 1_555 1_555
S4 C9 1_555 1_555
C6 C7 1_555 1_555
C14 C15 1_555 1_555
Ag1F Ag2F 1_555 1_555
Ag1O S1O 1_555 1_555
Ag1I S1I 1_555 1_555
Ag1I S1F 1_555 1_555
Ag2O Ag2I 1_555 1_555
Ag2O S3F 1_555 1_555
Ag2I S3I 1_555 1_555
S2F C1F 1_555 1_555
C6F C7F 1_555 1_555
C9F S4F 1_555 1_555
C14F C15F 1_555 1_555

#END
