
#######################################################################
#
#                 Cambridge Crystallographic Data Centre
#                                CCDC 
#
#######################################################################
#
# If this CIF has been generated from an entry in the Cambridge 
# Structural Database, then it will include bibliographic, chemical, 
# crystal, experimental, refinement or atomic coordinate data resulting 
# from the CCDC's data processing and validation procedures.
#
#######################################################################

data_ZIRNIZ
_symmetry_cell_setting           monoclinic
_symmetry_space_group_name_H-M   'C 2/c'
_symmetry_Int_Tables_number      15
_space_group_name_Hall           '-C 2yn'
loop_
_symmetry_equiv_pos_site_id
_symmetry_equiv_pos_as_xyz
1 x,y,z
2 -x,y,1/2-z
3 1/2+x,1/2+y,z
4 1/2-x,1/2+y,1/2-z
5 -x,-y,-z
6 x,-y,1/2+z
7 1/2-x,1/2-y,-z
8 1/2+x,1/2-y,1/2+z
_cell_length_a                   13.1789(10)
_cell_length_b                   11.9752(12)
_cell_length_c                   12.6135(10)
_cell_angle_alpha                90
_cell_angle_beta                 102.886(6)
_cell_angle_gamma                90
_cell_volume                     1940.53
loop_
_atom_site_label
_atom_site_type_symbol
_atom_site_fract_x
_atom_site_fract_y
_atom_site_fract_z
C1 C 0.6407(6) 0.4261(7) 0.1168(6)
C2 C 0.6936(7) 0.4194(8) 0.0332(7)
H1 H 0.7242 0.3529 0.0185
C3 C 0.6996(8) 0.5138(8) -0.0272(7)
H2 H 0.7357 0.5116 -0.0826
C4 C 0.6528(7) 0.6109(7) -0.0067(6)
H3 H 0.6585 0.6758 -0.0454
C5 C 0.5962(6) 0.6089(6) 0.0746(6)
C6 C 0.6932(6) 0.2434(7) 0.1999(6)
C7 C 0.6540(7) 0.1441(7) 0.2511(7)
H4 H 0.5887 0.1203 0.2066
H5 H 0.6445 0.1640 0.3220
H6 H 0.7036 0.0844 0.2576
C8 C 0.5249(7) 0.7986(8) 0.0471(8)
C9 C 0.4720(9) 0.8870(11) 0.0970(10)
H7 H 0.5129 0.9067 0.1656
H8 H 0.4213 0.8700 0.1296
H9 H 0.4595 0.9521 0.0516
Hg1 Hg 0.5000 0.34391(4) 0.2500
Hg2 Hg 0.5000 0.68376(4) 0.2500
N1 N 0.5910(5) 0.5192(6) 0.1359(5)
N2 N 0.6292(6) 0.3342(6) 0.1838(6)
N3 N 0.5420(6) 0.6999(5) 0.1034(6)
O1 O 0.7767(5) 0.2420(6) 0.1725(5)
O2 O 0.5501(6) 0.8170(6) -0.0400(6)
C1A C 0.3593(6) 0.4261(7) 0.3832(6)
C2A C 0.3064(7) 0.4194(8) 0.4668(7)
H1A H 0.2758 0.3529 0.4815
C3A C 0.3004(8) 0.5138(8) 0.5272(7)
H2A H 0.2643 0.5116 0.5826
C4A C 0.3472(7) 0.6109(7) 0.5067(6)
H3A H 0.3415 0.6758 0.5454
C5A C 0.4038(6) 0.6089(6) 0.4254(6)
C6A C 0.3068(6) 0.2434(7) 0.3001(6)
C7A C 0.3460(7) 0.1441(7) 0.2489(7)
H4A H 0.4113 0.1203 0.2934
H5A H 0.3555 0.1640 0.1780
H6A H 0.2964 0.0844 0.2424
C8A C 0.4751(7) 0.7986(8) 0.4529(8)
C9A C 0.5280(9) 0.8870(11) 0.4030(10)
H7A H 0.4871 0.9067 0.3344
H8A H 0.5787 0.8700 0.3704
H9A H 0.5405 0.9521 0.4484
N1A N 0.4090(5) 0.5192(6) 0.3641(5)
N2A N 0.3708(6) 0.3342(6) 0.3162(6)
N3A N 0.4580(6) 0.6999(5) 0.3966(6)
O1A O 0.2233(5) 0.2420(6) 0.3275(5)
O2A O 0.4499(6) 0.8170(6) 0.5400(6)
Hg2B Hg 0.0000 0.18376(4) 0.2500
Hg2B_2 Hg 1.0000 0.18376(4) 0.2500
O1B O 0.2767(5) 0.7420(6) 0.1725(5)
O1C O 0.7233(5) 0.7420(6) 0.3275(5)
loop_
_geom_bond_atom_site_label_1
_geom_bond_atom_site_label_2
_geom_bond_site_symmetry_1
_geom_bond_site_symmetry_2
C1 C2 1_555 1_555
C2 H1 1_555 1_555
C3 C2 1_555 1_555
H2 C3 1_555 1_555
C4 C3 1_555 1_555
H3 C4 1_555 1_555
C5 C4 1_555 1_555
C6 C7 1_555 1_555
C7 H4 1_555 1_555
H5 C7 1_555 1_555
H6 C7 1_555 1_555
C8 C9 1_555 1_555
C9 H7 1_555 1_555
H8 C9 1_555 1_555
H9 C9 1_555 1_555
Hg1 N2 1_555 1_555
Hg2 N3 1_555 1_555
N1 C1 1_555 1_555
N2 C1 1_555 1_555
N3 C5 1_555 1_555
O1 C6 1_555 1_555
O2 C8 1_555 1_555
C1A C2A 1_555 1_555
C2A H1A 1_555 1_555
C3A C2A 1_555 1_555
H2A C3A 1_555 1_555
C4A C3A 1_555 1_555
H3A C4A 1_555 1_555
C5A C4A 1_555 1_555
C6A C7A 1_555 1_555
C7A H4A 1_555 1_555
H5A C7A 1_555 1_555
H6A C7A 1_555 1_555
C8A C9A 1_555 1_555
C9A H7A 1_555 1_555
H8A C9A 1_555 1_555
H9A C9A 1_555 1_555
N1A C1A 1_555 1_555
N2A Hg1 1_555 1_555
N3A Hg2 1_555 1_555
O1A C6A 1_555 1_555
O2A C8A 1_555 1_555
Hg2B O1A 1_555 1_555
Hg2B_2 O1 1_555 1_555
O1B Hg2 1_555 1_555
O1C Hg2 1_555 1_555
C5 N1 1_555 1_555
C6 N2 1_555 1_555
C8 N3 1_555 1_555
C1A N2A 1_555 1_555
C5A N1A 1_555 1_555
C5A N3A 1_555 1_555
C6A N2A 1_555 1_555
C8A N3A 1_555 1_555

#END
