
#######################################################################
#
#                 Cambridge Crystallographic Data Centre
#                                CCDC 
#
#######################################################################
#
# If this CIF has been generated from an entry in the Cambridge 
# Structural Database, then it will include bibliographic, chemical, 
# crystal, experimental, refinement or atomic coordinate data resulting 
# from the CCDC's data processing and validation procedures.
#
#######################################################################

data_ZISFEO
_symmetry_cell_setting           orthorhombic
_symmetry_space_group_name_H-M   'P n a 21'
_symmetry_Int_Tables_number      33
_space_group_name_Hall           'P 2c -2n'
loop_
_symmetry_equiv_pos_site_id
_symmetry_equiv_pos_as_xyz
1 x,y,z
2 -x,-y,1/2+z
3 1/2+x,1/2-y,z
4 1/2-x,1/2+y,1/2+z
_cell_length_a                   7.491(3)
_cell_length_b                   15.386(6)
_cell_length_c                   11.226(4)
_cell_angle_alpha                90
_cell_angle_beta                 90
_cell_angle_gamma                90
_cell_volume                     1293.87
loop_
_atom_site_label
_atom_site_type_symbol
_atom_site_fract_x
_atom_site_fract_y
_atom_site_fract_z
Mn1 Mn 0.47669(4) 0.21766(2) 0.35745(6)
C1 C 0.6471(3) 0.39409(16) 0.2743(3)
C2 C 0.7612(4) 0.65513(18) 0.0114(3)
C3 C 0.5909(3) 0.48003(16) 0.2203(2)
C4 C 0.4274(4) 0.51596(19) 0.2554(3)
H1 H 0.3547 0.4853 0.3078
C5 C 0.3714(4) 0.5964(2) 0.2135(3)
C6 C 0.4831(4) 0.6411(2) 0.1355(3)
H2 H 0.4489 0.6956 0.1082
C7 C 0.6444(4) 0.60612(17) 0.0973(3)
C8 C 0.6988(4) 0.52525(16) 0.1407(3)
H3 H 0.8072 0.5017 0.1165
C9 C 0.1941(5) 0.6342(3) 0.2524(5)
H4 H 0.1361 0.5945 0.3058
H5 H 0.1200 0.6434 0.1838
H6 H 0.2139 0.6885 0.2922
C10 C 0.6505(4) 0.1304(2) 0.1444(3)
H7 H 0.5741 0.0858 0.1671
C11 C 0.7246(6) 0.0397(3) -0.0231(4)
H8 H 0.6314 0.0047 0.0107
H9 H 0.8350 0.0082 -0.0210
H10 H 0.6953 0.0537 -0.1041
C12 C 0.8771(8) 0.1819(4) 0.0093(5)
H11 H 0.8744 0.2310 0.0620
H12 H 0.8531 0.2008 -0.0706
H13 H 0.9928 0.1551 0.0125
O1 O 0.5252(3) 0.34916(14) 0.3194(2)
O2 O 0.8103(3) 0.37599(12) 0.2724(2)
O3 O 0.7144(3) 0.73122(12) -0.0203(2)
O4 O 0.9037(3) 0.62206(15) -0.0242(2)
O5 O 0.6574(3) 0.19475(15) 0.2087(2)
N1 N 0.7429(4) 0.1196(2) 0.0455(3)
Mn1A Mn 0.52331(4) 0.78234(2) -0.14255(6)
Mn1B Mn 0.97669(4) 0.28234(2) 0.35745(6)
Mn1C Mn 1.02331(4) 0.71766(2) -0.14255(6)
O2B O 0.3103(3) 0.12401(12) 0.2724(2)
O3A O 0.2856(3) 0.26878(12) 0.4797(2)
O4C O 0.5963(3) 0.12206(15) 0.4758(2)
loop_
_geom_bond_atom_site_label_1
_geom_bond_atom_site_label_2
_geom_bond_site_symmetry_1
_geom_bond_site_symmetry_2
Mn1 O1 1_555 1_555
C1 C3 1_555 1_555
C2 C7 1_555 1_555
C3 C4 1_555 1_555
C4 H1 1_555 1_555
C5 C4 1_555 1_555
C6 C5 1_555 1_555
H2 C6 1_555 1_555
C7 C6 1_555 1_555
C8 C3 1_555 1_555
H3 C8 1_555 1_555
C9 C5 1_555 1_555
H4 C9 1_555 1_555
H5 C9 1_555 1_555
H6 C9 1_555 1_555
C10 H7 1_555 1_555
C11 H8 1_555 1_555
H9 C11 1_555 1_555
H10 C11 1_555 1_555
C12 H11 1_555 1_555
H12 C12 1_555 1_555
H13 C12 1_555 1_555
O1 C1 1_555 1_555
O2 C1 1_555 1_555
O3 C2 1_555 1_555
O4 C2 1_555 1_555
O5 Mn1 1_555 1_555
N1 C10 1_555 1_555
Mn1A O3 1_555 1_555
Mn1B O2 1_555 1_555
Mn1C O4 1_555 1_555
O2B Mn1 1_555 1_555
O3A Mn1 1_555 1_555
O4C Mn1 1_555 1_555
C7 C8 1_555 1_555
C10 O5 1_555 1_555
C11 N1 1_555 1_555
C12 N1 1_555 1_555

#END
