
#######################################################################
#
#                 Cambridge Crystallographic Data Centre
#                                CCDC 
#
#######################################################################
#
# If this CIF has been generated from an entry in the Cambridge 
# Structural Database, then it will include bibliographic, chemical, 
# crystal, experimental, refinement or atomic coordinate data resulting 
# from the CCDC's data processing and validation procedures.
#
#######################################################################

data_ZISFEO01
_symmetry_cell_setting           orthorhombic
_symmetry_space_group_name_H-M   'P n a 21'
_symmetry_Int_Tables_number      33
_space_group_name_Hall           'P 2c -2n'
loop_
_symmetry_equiv_pos_site_id
_symmetry_equiv_pos_as_xyz
1 x,y,z
2 -x,-y,1/2+z
3 1/2+x,1/2-y,z
4 1/2-x,1/2+y,1/2+z
_cell_length_a                   7.281(5)
_cell_length_b                   15.148(11)
_cell_length_c                   10.903(8)
_cell_angle_alpha                90
_cell_angle_beta                 90
_cell_angle_gamma                90
_cell_volume                     1202.52
loop_
_atom_site_label
_atom_site_type_symbol
_atom_site_fract_x
_atom_site_fract_y
_atom_site_fract_z
Mn1 Mn 0.02668(3) 0.718473(13) 0.40075(4)
O1 O 0.21890(19) 0.76885(7) 0.27699(13)
O2 O 0.40794(19) 0.87833(8) 0.28213(14)
O3 O 0.30783(16) 1.12474(7) -0.01315(13)
O4 O 0.02059(16) 1.15017(8) -0.06146(13)
O5 O -0.15683(19) 0.69631(9) 0.55025(14)
N1 N -0.2451(2) 0.61847(11) 0.71232(16)
C1 C 0.1457(2) 0.89377(11) 0.16063(16)
C2 C 0.1976(2) 0.97512(10) 0.11805(18)
H1 H 0.3104 1.0003 0.1442
C3 C 0.0878(2) 1.02002(10) 0.03817(16)
C4 C -0.0754(2) 0.98383(11) 0.00205(17)
H2 H -0.1529 1.0157 -0.0523
C5 C -0.1290(3) 0.90257(12) 0.04273(18)
C6 C -0.0157(3) 0.85839(12) 0.12133(19)
H3 H -0.0505 0.8014 0.1494
C7 C 0.2643(2) 0.84485(11) 0.24625(17)
C8 C 0.1438(2) 1.10570(10) -0.01549(17)
C9 C -0.3076(3) 0.86426(15) 0.0039(3)
H4 H -0.2980 0.7997 0.0020
H5 H -0.3392 0.8861 -0.0780
H6 H -0.4034 0.8817 0.0623
C10 C -0.1507(3) 0.63087(12) 0.61313(19)
H7 H -0.0704 0.5849 0.5880
C11 C -0.2297(3) 0.53842(16) 0.7799(2)
H8 H -0.1283 0.5032 0.7469
H9 H -0.3446 0.5050 0.7731
H10 H -0.2057 0.5520 0.8664
C12 C -0.3792(4) 0.68114(17) 0.7505(3)
H11 H -0.3596 0.7369 0.7069
H12 H -0.3680 0.6911 0.8390
H13 H -0.5022 0.6586 0.7319
Mn1A Mn -0.02668(3) 1.281527(13) -0.09925(4)
Mn1B Mn 0.52668(3) 0.781527(13) 0.40075(4)
Mn1C Mn 0.47332(3) 1.218473(13) -0.09925(4)
O2B O -0.09206(19) 0.62167(8) 0.28213(14)
O3C O 0.19217(16) 0.62474(7) 0.48685(13)
O4A O -0.02059(16) 0.84983(8) 0.43854(13)
loop_
_geom_bond_atom_site_label_1
_geom_bond_atom_site_label_2
_geom_bond_site_symmetry_1
_geom_bond_site_symmetry_2
Mn1 O1 1_555 1_555
O1 C7 1_555 1_555
O2 C7 1_555 1_555
O3 C8 1_555 1_555
O4 C8 1_555 1_555
O5 Mn1 1_555 1_555
N1 C10 1_555 1_555
C1 C2 1_555 1_555
C2 H1 1_555 1_555
C3 C2 1_555 1_555
C4 C3 1_555 1_555
H2 C4 1_555 1_555
C5 C4 1_555 1_555
C6 C1 1_555 1_555
H3 C6 1_555 1_555
C7 C1 1_555 1_555
C8 C3 1_555 1_555
C9 C5 1_555 1_555
H4 C9 1_555 1_555
H5 C9 1_555 1_555
H6 C9 1_555 1_555
C10 O5 1_555 1_555
H7 C10 1_555 1_555
C11 N1 1_555 1_555
H8 C11 1_555 1_555
H9 C11 1_555 1_555
H10 C11 1_555 1_555
C12 N1 1_555 1_555
H11 C12 1_555 1_555
H12 C12 1_555 1_555
H13 C12 1_555 1_555
Mn1A O4 1_555 1_555
Mn1B O2 1_555 1_555
Mn1C O3 1_555 1_555
O2B Mn1 1_555 1_555
O3C Mn1 1_555 1_555
O4A Mn1 1_555 1_555
C5 C6 1_555 1_555

#END
