
#######################################################################
#
#                 Cambridge Crystallographic Data Centre
#                                CCDC 
#
#######################################################################
#
# If this CIF has been generated from an entry in the Cambridge 
# Structural Database, then it will include bibliographic, chemical, 
# crystal, experimental, refinement or atomic coordinate data resulting 
# from the CCDC's data processing and validation procedures.
#
#######################################################################

data_ZISHEO
_symmetry_cell_setting           orthorhombic
_symmetry_space_group_name_H-M   'P 21 21 21'
_symmetry_Int_Tables_number      19
_space_group_name_Hall           'P 2ac 2ab'
loop_
_symmetry_equiv_pos_site_id
_symmetry_equiv_pos_as_xyz
1 x,y,z
2 1/2-x,-y,1/2+z
3 1/2+x,1/2-y,-z
4 -x,1/2+y,1/2-z
_cell_length_a                   8.213(5)
_cell_length_b                   9.131(4)
_cell_length_c                   14.277(10)
_cell_angle_alpha                90
_cell_angle_beta                 90
_cell_angle_gamma                90
_cell_volume                     1070.67
loop_
_atom_site_label
_atom_site_type_symbol
_atom_site_fract_x
_atom_site_fract_y
_atom_site_fract_z
Ga1 Ga 0.8407(2) 0.1876(1) 0.2276(1)
C1 C 0.7780(15) 0.1759(12) 0.3598(9)
C2 C 0.6315(26) 0.2650(17) 0.3854(12)
C3 C 0.6665(18) 0.2148(13) 0.1280(11)
C4 C 0.6042(16) 0.3606(16) 0.1368(11)
C5 C 0.6626(20) 0.4432(16) 0.0660(10)
C6 C 0.7501(19) 0.3483(21) 0.0054(12)
C7 C 0.7506(23) 0.2123(20) 0.0389(12)
C8 C 0.9639(17) -0.0128(12) 0.1729(9)
C9 C 1.0428(15) -0.0380(10) 0.2601(9)
C10 C 1.0315(18) 0.3469(16) 0.1955(10)
C11 C 0.8314(17) -0.1932(13) 0.2508(11)
C12 C 0.8320(17) -0.1116(12) 0.1687(9)
H1 H 0.7585 0.0750 0.3751
H2 H 0.8696 0.2075 0.3963
H3 H 0.6139 0.2511 0.4513
H4 H 0.5373 0.2326 0.3514
H5 H 0.6500 0.3669 0.3730
H6 H 0.5818 0.1427 0.1320
H7 H 0.5311 0.3940 0.1847
H8 H 0.6485 0.5461 0.0547
H9 H 0.8006 0.3698 -0.0536
H10 H 0.8004 0.1263 0.0130
H11 H 1.0313 -0.0033 0.1183
H12 H 1.1339 0.0170 0.2833
H13 H 1.0525 0.3610 0.1300
H14 H 0.7495 -0.2631 0.2680
H15 H 0.7567 -0.1252 0.1181
C10C C 0.9685(18) -0.1531(16) 0.3045(10)
Ga1C Ga 1.1593(2) -0.3124(1) 0.2724(1)
H13C H 0.9475 -0.1390 0.3700
loop_
_geom_bond_atom_site_label_1
_geom_bond_atom_site_label_2
_geom_bond_site_symmetry_1
_geom_bond_site_symmetry_2
Ga1 C1 1_555 1_555
C1 C2 1_555 1_555
C2 H3 1_555 1_555
C3 Ga1 1_555 1_555
C4 C3 1_555 1_555
C5 C4 1_555 1_555
C6 C5 1_555 1_555
C7 C3 1_555 1_555
C8 Ga1 1_555 1_555
C9 C8 1_555 1_555
C10 Ga1 1_555 1_555
C11 C12 1_555 1_555
C12 C8 1_555 1_555
H1 C1 1_555 1_555
H2 C1 1_555 1_555
H4 C2 1_555 1_555
H5 C2 1_555 1_555
H6 C3 1_555 1_555
H7 C4 1_555 1_555
H8 C5 1_555 1_555
H9 C6 1_555 1_555
H10 C7 1_555 1_555
H11 C8 1_555 1_555
H12 C9 1_555 1_555
H13 C10 1_555 1_555
H14 C11 1_555 1_555
H15 C12 1_555 1_555
C10C C9 1_555 1_555
Ga1C C10C 1_555 1_555
H13C C10C 1_555 1_555
C6 C7 1_555 1_555
C11 C10C 1_555 1_555

#END
