
#######################################################################
#
#                 Cambridge Crystallographic Data Centre
#                                CCDC 
#
#######################################################################
#
# If this CIF has been generated from an entry in the Cambridge 
# Structural Database, then it will include bibliographic, chemical, 
# crystal, experimental, refinement or atomic coordinate data resulting 
# from the CCDC's data processing and validation procedures.
#
#######################################################################

data_ZISXOQ
_symmetry_cell_setting           monoclinic
_symmetry_space_group_name_H-M   'C 2/m'
_symmetry_Int_Tables_number      12
_space_group_name_Hall           '-C 2y'
loop_
_symmetry_equiv_pos_site_id
_symmetry_equiv_pos_as_xyz
1 x,y,z
2 -x,y,-z
3 1/2+x,1/2+y,z
4 1/2-x,1/2+y,-z
5 -x,-y,-z
6 x,-y,z
7 1/2-x,1/2-y,-z
8 1/2+x,1/2-y,z
_cell_length_a                   17.9831(6)
_cell_length_b                   28.2545(10)
_cell_length_c                   13.0479(5)
_cell_angle_alpha                90
_cell_angle_beta                 135.587(2)
_cell_angle_gamma                90
_cell_volume                     4639.62
loop_
_atom_site_label
_atom_site_type_symbol
_atom_site_fract_x
_atom_site_fract_y
_atom_site_fract_z
H17 H 0.0970 0.8603 -0.2164
H18 H 0.0129 0.9214 -0.2078
N1 N 0.1341(6) 0.9399(3) -0.0020(8)
C1 C 0.2075(17) 0.9131(8) 0.116(2)
H1 H 0.2234 0.9190 0.2015
C2 C 0.2618(17) 0.8770(9) 0.1196(19)
H2 H 0.3128 0.8586 0.2059
C3 C 0.2413(7) 0.8680(3) -0.0028(9)
C4 C 0.1681(17) 0.8970(7) -0.123(2)
H3 H 0.1520 0.8926 -0.2090
C5 C 0.1187(18) 0.9323(8) -0.116(2)
H4 H 0.0705 0.9524 -0.1991
C6 C 0.3027(7) 0.8334(3) -0.0042(9)
C7 C 0.4087(11) 0.8433(6) 0.082(2)
H5 H 0.4399 0.8710 0.1414
C8 C 0.4682(15) 0.8132(6) 0.0826(19)
H6 H 0.5412 0.8206 0.1448
C9 C 0.4289(6) 0.7723(3) -0.0026(9)
C10 C 0.3187(11) 0.7655(7) -0.1007(19)
H7 H 0.2858 0.7400 -0.1687
C11 C 0.2570(13) 0.7948(6) -0.1008(19)
H8 H 0.1831 0.7887 -0.1668
C12 C 0.5672(6) 0.7092(2) 0.1385(7)
C13 C 0.6184(6) 0.6693(2) 0.1512(7)
H9 H 0.6155 0.6618 0.0774
C14 C 0.6740(14) 0.6404(6) 0.2739(16)
H10 H 0.6959 0.6101 0.2723
C15 C 0.6986(8) 0.6531(3) 0.3951(10)
C16 C 0.6375(17) 0.6906(7) 0.376(2)
H11 H 0.6405 0.6968 0.4507
C17 C 0.5712(19) 0.7193(7) 0.247(2)
H12 H 0.5310 0.7446 0.2359
C18 C 0.7649(8) 0.6246(3) 0.5314(11)
C19 C 0.8363(15) 0.5914(6) 0.570(2)
H13 H 0.8431 0.5841 0.5062
C20 C 0.8954(15) 0.5697(7) 0.6958(17)
H14 H 0.9416 0.5463 0.7141
N2 N 0.9006(6) 0.5754(3) 0.8008(8)
C21 C 0.8185(14) 0.6023(7) 0.760(2)
H15 H 0.8111 0.6046 0.8246
C22 C 0.7445(10) 0.6268(4) 0.6230(13)
H16 H 0.6856 0.6436 0.5926
C23 C 0.5000 0.7410(4) 0.0000
Cu1 Cu 1.0000 0.54592(6) 1.0000
Cu2 Cu 0.07056(13) 1.0000 -0.0001(2)
I1 I 1.13968(7) 0.5000 1.01274(9)
I2 I -0.13331(7) 1.0000 -0.25570(10)
N1A N 0.8659(6) 0.9399(3) 0.0020(8)
C1A C 0.7925(17) 0.9131(8) -0.116(2)
H1A H 0.7766 0.9190 -0.2015
C2A C 0.7382(17) 0.8770(9) -0.1196(19)
H2A H 0.6872 0.8586 -0.2059
C3A C 0.7587(7) 0.8680(3) 0.0028(9)
C4A C 0.8319(17) 0.8970(7) 0.123(2)
H3A H 0.8480 0.8926 0.2090
C5A C 0.8813(18) 0.9323(8) 0.116(2)
H4A H 0.9295 0.9524 0.1991
C6A C 0.6973(7) 0.8334(3) 0.0042(9)
C7A C 0.5913(11) 0.8433(6) -0.082(2)
H5A H 0.5601 0.8710 -0.1414
C8A C 0.5318(15) 0.8132(6) -0.0826(19)
H6A H 0.4588 0.8206 -0.1448
C9A C 0.5711(6) 0.7723(3) 0.0026(9)
C10A C 0.6813(11) 0.7655(7) 0.1007(19)
H7A H 0.7142 0.7400 0.1687
C11A C 0.7430(13) 0.7948(6) 0.1008(19)
H8A H 0.8169 0.7887 0.1668
C12A C 0.4328(6) 0.7092(2) -0.1385(7)
C13A C 0.3816(6) 0.6693(2) -0.1512(7)
H9A H 0.3845 0.6618 -0.0774
C14A C 0.3260(14) 0.6404(6) -0.2739(16)
H10A H 0.3041 0.6101 -0.2723
C15A C 0.3014(8) 0.6531(3) -0.3951(10)
C16A C 0.3625(17) 0.6906(7) -0.376(2)
H11A H 0.3595 0.6968 -0.4507
C17A C 0.4288(19) 0.7193(7) -0.247(2)
H12A H 0.4690 0.7446 -0.2359
C18A C 0.2351(8) 0.6246(3) -0.5314(11)
C19A C 0.1637(15) 0.5914(6) -0.570(2)
H13A H 0.1569 0.5841 -0.5062
C20A C 0.1046(15) 0.5697(7) -0.6958(17)
H14A H 0.0584 0.5463 -0.7141
N2A N 0.0994(6) 0.5754(3) -0.8008(8)
C21A C 0.1815(14) 0.6023(7) -0.760(2)
H15A H 0.1889 0.6046 -0.8246
C22A C 0.2555(10) 0.6268(4) -0.6230(13)
H16A H 0.3144 0.6436 -0.5926
N1E N 0.1341(6) 1.0601(3) -0.0020(8)
N2A_2 N 1.0994(6) 0.5754(3) 1.1992(8)
Cu1_2 Cu 0.0000 0.54592(6) -1.0000
Cu1D Cu 1.0000 0.45408(6) 1.0000
Cu2A Cu -0.07056(13) 1.0000 0.0001(2)
Cu2A_2 Cu 0.92944(13) 1.0000 0.0001(2)
I1A I 0.86032(7) 0.5000 0.98726(9)
I2A I 0.13331(7) 1.0000 0.25570(10)
C24? C 0.2346(13) 0.9282(12) 0.117(3)
C25? C 0.2894(17) 0.8927(8) 0.122(2)
C26? C 0.1349(13) 0.8778(9) -0.1288(18)
C27? C 0.0852(16) 0.9145(8) -0.1221(19)
H19? H 0.2707 0.9457 0.2043
H20? H 0.3602 0.8854 0.2118
C28? C 0.3213(14) 0.8411(6) -0.088(2)
H21? H 0.2886 0.8678 -0.1517
C29? C 0.3838(14) 0.8128(5) -0.0871(18)
H22? H 0.3962 0.8211 -0.1444
C30? C 0.4171(14) 0.7640(6) 0.0918(18)
H23? H 0.4486 0.7371 0.1544
C31? C 0.3610(6) 0.7946(2) 0.0907(7)
H24? H 0.3599 0.7899 0.1617
C32? C 0.5376(10) 0.6667(4) 0.1447(13)
H25? H 0.4701 0.6547 0.0586
C33? C 0.6001(12) 0.6397(6) 0.2692(17)
H26? H 0.5731 0.6104 0.2668
C34? C 0.7468(14) 0.6891(7) 0.382(2)
H27? H 0.8217 0.6933 0.4549
C35? C 0.6776(12) 0.7191(7) 0.2514(19)
H28? H 0.7063 0.7450 0.2425
C36? C 0.7965(12) 0.5724(6) 0.6953(18)
H29? H 0.7654 0.5524 0.7148
C37? C 0.7299(15) 0.5931(6) 0.568(2)
H30? H 0.6562 0.5860 0.4996
C38? C 0.8804(13) 0.6237(7) 0.6286(19)
H31? H 0.9112 0.6397 0.6021
C39? C 0.9453(16) 0.5984(8) 0.763(2)
H32? H 1.0201 0.5974 0.8270
H33? H 0.1475 1.0008 -0.3778
S1? S -0.0298(11) 0.9842(5) -0.5605(14)
O1? O 0.000(5) 0.9348(9) -0.481(5)
C40? C 0.105(2) 0.9807(13) -0.465(4)
H34? H 0.1121 0.9915 -0.5287
H35? H 0.1289 0.9479 -0.4356
S2? S 0.4683(8) 0.7744(5) 0.4403(12)
O2? O 0.5282(11) 0.7275(4) 0.5493(14)
C41? C 0.572(3) 0.8120(12) 0.494(5)
H36? H 0.6413 0.7978 0.5779
H37? H 0.5673 0.8431 0.5223
H38? H 0.5643 0.8155 0.4123
S3? S 0.5287(11) 0.9806(6) 0.521(2)
O3? O 0.473(3) 0.9315(9) 0.487(6)
C42? C 0.504(6) 1.0209(17) 0.600(6)
H39? H 0.4765 1.0034 0.6321
H40? H 0.4516 1.0445 0.5267
H41? H 0.5703 1.0368 0.6842
loop_
_geom_bond_atom_site_label_1
_geom_bond_atom_site_label_2
_geom_bond_site_symmetry_1
_geom_bond_site_symmetry_2
N1 C1 1_555 1_555
C1 H1 1_555 1_555
C2 C1 1_555 1_555
H2 C2 1_555 1_555
C3 C2 1_555 1_555
C4 C3 1_555 1_555
H3 C4 1_555 1_555
C5 N1 1_555 1_555
H4 C5 1_555 1_555
C6 C3 1_555 1_555
C7 C6 1_555 1_555
H5 C7 1_555 1_555
C8 C7 1_555 1_555
H6 C8 1_555 1_555
C9 C8 1_555 1_555
C10 C9 1_555 1_555
H7 C10 1_555 1_555
C11 C6 1_555 1_555
H8 C11 1_555 1_555
C12 C13 1_555 1_555
C13 H9 1_555 1_555
C14 C13 1_555 1_555
H10 C14 1_555 1_555
C15 C14 1_555 1_555
C16 C15 1_555 1_555
H11 C16 1_555 1_555
C17 C12 1_555 1_555
H12 C17 1_555 1_555
C18 C15 1_555 1_555
C19 C18 1_555 1_555
H13 C19 1_555 1_555
C20 C19 1_555 1_555
H14 C20 1_555 1_555
N2 C20 1_555 1_555
C21 N2 1_555 1_555
H15 C21 1_555 1_555
C22 C18 1_555 1_555
H16 C22 1_555 1_555
C23 C9 1_555 1_555
Cu1 N2 1_555 1_555
Cu2 N1 1_555 1_555
I1 Cu1 1_555 1_555
I2 Cu2 1_555 1_555
N1A C1A 1_555 1_555
C1A H1A 1_555 1_555
C2A C1A 1_555 1_555
H2A C2A 1_555 1_555
C3A C2A 1_555 1_555
C4A C3A 1_555 1_555
H3A C4A 1_555 1_555
C5A N1A 1_555 1_555
H4A C5A 1_555 1_555
C6A C3A 1_555 1_555
C7A C6A 1_555 1_555
H5A C7A 1_555 1_555
C8A C7A 1_555 1_555
H6A C8A 1_555 1_555
C9A C23 1_555 1_555
C10A C9A 1_555 1_555
H7A C10A 1_555 1_555
C11A C6A 1_555 1_555
H8A C11A 1_555 1_555
C12A C23 1_555 1_555
C13A C12A 1_555 1_555
H9A C13A 1_555 1_555
C14A C13A 1_555 1_555
H10A C14A 1_555 1_555
C15A C14A 1_555 1_555
C16A C15A 1_555 1_555
H11A C16A 1_555 1_555
C17A C12A 1_555 1_555
H12A C17A 1_555 1_555
C18A C15A 1_555 1_555
C19A C18A 1_555 1_555
H13A C19A 1_555 1_555
C20A C19A 1_555 1_555
H14A C20A 1_555 1_555
N2A C20A 1_555 1_555
C21A N2A 1_555 1_555
H15A C21A 1_555 1_555
C22A C18A 1_555 1_555
H16A C22A 1_555 1_555
N1E Cu2 1_555 1_555
N2A_2 Cu1 1_555 1_555
Cu1_2 N2A 1_555 1_555
Cu1D Cu1 1_555 1_555
Cu2A Cu2 1_555 1_555
Cu2A_2 N1A 1_555 1_555
I1A Cu1 1_555 1_555
I2A Cu2 1_555 1_555
C4 C5 1_555 1_555
C10 C11 1_555 1_555
C12 C23 1_555 1_555
C16 C17 1_555 1_555
C21 C22 1_555 1_555
I1 Cu1D 1_555 1_555
I2 Cu2A 1_555 1_555
C4A C5A 1_555 1_555
C8A C9A 1_555 1_555
C10A C11A 1_555 1_555
C16A C17A 1_555 1_555
C21A C22A 1_555 1_555
Cu1D I1A 1_555 1_555
Cu2A I2A 1_555 1_555

#END
