
#######################################################################
#
#                 Cambridge Crystallographic Data Centre
#                                CCDC 
#
#######################################################################
#
# If this CIF has been generated from an entry in the Cambridge 
# Structural Database, then it will include bibliographic, chemical, 
# crystal, experimental, refinement or atomic coordinate data resulting 
# from the CCDC's data processing and validation procedures.
#
#######################################################################

data_ZITBIP
_symmetry_cell_setting           triclinic
_symmetry_space_group_name_H-M   'P -1'
_symmetry_Int_Tables_number      2
_space_group_name_Hall           '-P 1'
loop_
_symmetry_equiv_pos_site_id
_symmetry_equiv_pos_as_xyz
1 x,y,z
2 -x,-y,-z
_cell_length_a                   9.6727(5)
_cell_length_b                   10.6451(7)
_cell_length_c                   15.8332(15)
_cell_angle_alpha                81.783(2)
_cell_angle_beta                 78.7570(10)
_cell_angle_gamma                64.450(2)
_cell_volume                     1439.45
loop_
_atom_site_label
_atom_site_type_symbol
_atom_site_fract_x
_atom_site_fract_y
_atom_site_fract_z
Nd1 Nd 0.27159(2) 0.53966(2) -0.003786(14)
C1 C -0.1063(5) 0.7107(4) -0.0577(3)
C2 C -0.2361(5) 0.8515(4) -0.0725(3)
C3 C -0.3610(5) 0.8605(5) -0.1063(3)
H1 H -0.3655 0.7797 -0.1188
C4 C -0.4801(5) 0.9892(5) -0.1218(3)
C5 C -0.4798(5) 1.1102(4) -0.1003(3)
H2 H -0.5603 1.1964 -0.1106
C6 C -0.3566(5) 1.1009(4) -0.0628(3)
C7 C -0.2327(5) 0.9718(5) -0.0508(3)
H3 H -0.1483 0.9666 -0.0283
C8 C -0.6555(6) 1.0574(5) -0.2280(4)
C9 C -0.7755(5) 1.0245(5) -0.2581(3)
C10 C -0.8521(6) 0.9501(6) -0.2059(4)
H4 H -0.8385 0.9240 -0.1485
C11 C -0.9496(7) 0.9165(7) -0.2428(4)
H5 H -0.9994 0.8648 -0.2090
C12 C -0.9046(6) 1.0273(6) -0.3713(4)
H6 H -0.9235 1.0554 -0.4278
C13 C -0.8036(6) 1.0638(6) -0.3407(4)
H7 H -0.7551 1.1150 -0.3764
C14 C -0.3607(5) 1.2265(4) -0.0287(3)
C15 C 0.4896(5) 0.3998(4) 0.1777(3)
C16 C 0.4672(5) 0.3375(5) 0.2679(3)
C17 C 0.5611(5) 0.3291(5) 0.3263(3)
H8 H 0.6337 0.3671 0.3111
C18 C 0.5459(5) 0.2638(5) 0.4071(3)
C19 C 0.4487(6) 0.1949(5) 0.4266(3)
H9 H 0.4466 0.1430 0.4789
C20 C 0.3554(6) 0.2035(5) 0.3681(3)
C21 C 0.3600(5) 0.2800(5) 0.2902(3)
H10 H 0.2912 0.2929 0.2528
C22 C 0.6747(6) 0.3558(6) 0.4849(3)
C23 C 0.7330(6) 0.3396(6) 0.5680(3)
C24 C 0.8363(7) 0.3970(7) 0.5714(4)
H11 H 0.8718 0.4405 0.5224
C25 C 0.8847(8) 0.3878(7) 0.6490(4)
H12 H 0.9569 0.4232 0.6504
C26 C 0.7360(8) 0.2785(7) 0.7174(4)
H13 H 0.7016 0.2376 0.7681
C27 C 0.6807(7) 0.2797(7) 0.6435(4)
H14 H 0.6103 0.2414 0.6441
C28 C 0.2568(7) 0.1232(6) 0.3875(3)
N1 N -0.6078(4) 0.9900(4) -0.1551(3)
H15 H -0.6568 0.9434 -0.1257
N2 N -0.9753(5) 0.9538(5) -0.3232(3)
N3 N 0.6300(5) 0.2574(5) 0.4726(3)
H16 H 0.6545 0.1842 0.5076
N4 N 0.8357(6) 0.3325(6) 0.7206(3)
O1 O -0.1288(3) 0.6042(3) -0.0629(2)
O2 O 0.0157(3) 0.7087(3) -0.0422(2)
O3 O -0.2577(4) 1.2090(4) 0.0148(3)
O4 O -0.4670(4) 1.3445(3) -0.0414(2)
O5 O -0.6036(6) 1.1351(6) -0.2708(3)
O6 O 0.3849(4) 0.4299(4) 0.1333(2)
O7 O 0.6146(4) 0.4114(4) 0.1520(2)
O8 O 0.2787(5) 0.0270(5) 0.4411(3)
O9 O 0.1491(6) 0.1681(6) 0.3398(3)
H17 H 0.1050 0.1133 0.3430
O10 O 0.6664(6) 0.4559(5) 0.4346(3)
O11 O 0.2008(4) 0.4286(4) -0.1151(2)
H18 H 0.1914 0.4753 -0.1634
H19 H 0.1218 0.4113 -0.0963
O12 O 0.0832(5) 0.6695(4) 0.1254(2)
H20 H 0.0746 0.7479 0.0998
H21 H 0.1298 0.6792 0.1625
Nd1_2 Nd -0.72841(2) 1.53966(2) -0.003786(14)
Nd1A Nd -0.27159(2) 0.46034(2) 0.003786(14)
Nd1A_2 Nd -0.27159(2) 1.46034(2) 0.003786(14)
Nd1A_3 Nd 0.72841(2) 0.46034(2) 0.003786(14)
O1A O 0.1288(3) 0.3958(3) 0.0629(2)
O3A O 0.2577(4) 0.7910(4) -0.0148(3)
O4_2 O 0.5330(4) 0.3445(3) -0.0414(2)
O4A O 0.4670(4) 0.6555(3) 0.0414(2)
O7A O 0.3854(4) 0.5886(4) -0.1520(2)
O13 O 0.2118(10) 0.4257(8) 0.7106(4)
H22 H 0.2714 0.3390 0.7138
H23 H 0.2545 0.4700 0.6743
loop_
_geom_bond_atom_site_label_1
_geom_bond_atom_site_label_2
_geom_bond_site_symmetry_1
_geom_bond_site_symmetry_2
Nd1 O2 1_555 1_555
C1 C2 1_555 1_555
C2 C3 1_555 1_555
C3 H1 1_555 1_555
C4 C3 1_555 1_555
C5 C4 1_555 1_555
H2 C5 1_555 1_555
C6 C5 1_555 1_555
C7 C2 1_555 1_555
H3 C7 1_555 1_555
C8 C9 1_555 1_555
C9 C10 1_555 1_555
C10 H4 1_555 1_555
C11 C10 1_555 1_555
H5 C11 1_555 1_555
C12 H6 1_555 1_555
C13 C9 1_555 1_555
H7 C13 1_555 1_555
C14 C6 1_555 1_555
C15 C16 1_555 1_555
C16 C17 1_555 1_555
C17 H8 1_555 1_555
C18 C17 1_555 1_555
C19 C18 1_555 1_555
H9 C19 1_555 1_555
C20 C19 1_555 1_555
C21 C16 1_555 1_555
H10 C21 1_555 1_555
C22 C23 1_555 1_555
C23 C24 1_555 1_555
C24 H11 1_555 1_555
C25 C24 1_555 1_555
H12 C25 1_555 1_555
C26 H13 1_555 1_555
C27 C23 1_555 1_555
H14 C27 1_555 1_555
C28 C20 1_555 1_555
N1 C4 1_555 1_555
H15 N1 1_555 1_555
N2 C11 1_555 1_555
N3 C18 1_555 1_555
H16 N3 1_555 1_555
N4 C25 1_555 1_555
O1 C1 1_555 1_555
O2 C1 1_555 1_555
O3 C14 1_555 1_555
O4 C14 1_555 1_555
O5 C8 1_555 1_555
O6 Nd1 1_555 1_555
O7 C15 1_555 1_555
O8 C28 1_555 1_555
O9 C28 1_555 1_555
H17 O9 1_555 1_555
O10 C22 1_555 1_555
O11 Nd1 1_555 1_555
H18 O11 1_555 1_555
H19 O11 1_555 1_555
O12 Nd1 1_555 1_555
H20 O12 1_555 1_555
H21 O12 1_555 1_555
O13 H22 1_555 1_555
H23 O13 1_555 1_555
Nd1_2 O4 1_555 1_555
Nd1A O1 1_555 1_555
Nd1A_2 O3 1_555 1_555
Nd1A_3 O7 1_555 1_555
O1A Nd1 1_555 1_555
O3A Nd1 1_555 1_555
O4_2 Nd1 1_555 1_555
O4A Nd1 1_555 1_555
O7A Nd1 1_555 1_555
C6 C7 1_555 1_555
C8 N1 1_555 1_555
C12 C13 1_555 1_555
C12 N2 1_555 1_555
C15 O6 1_555 1_555
C20 C21 1_555 1_555
C22 N3 1_555 1_555
C26 C27 1_555 1_555
C26 N4 1_555 1_555
O4 Nd1A_2 1_555 1_555
Nd1A_3 O4_2 1_555 1_555
Nd1A_3 O4A 1_555 1_555

#END
