
#######################################################################
#
#                 Cambridge Crystallographic Data Centre
#                                CCDC 
#
#######################################################################
#
# If this CIF has been generated from an entry in the Cambridge 
# Structural Database, then it will include bibliographic, chemical, 
# crystal, experimental, refinement or atomic coordinate data resulting 
# from the CCDC's data processing and validation procedures.
#
#######################################################################

data_ZITJUH
_symmetry_cell_setting           triclinic
_symmetry_space_group_name_H-M   'P -1'
_symmetry_Int_Tables_number      2
_space_group_name_Hall           '-P 1'
loop_
_symmetry_equiv_pos_site_id
_symmetry_equiv_pos_as_xyz
1 x,y,z
2 -x,-y,-z
_cell_length_a                   8.914(3)
_cell_length_b                   9.163(3)
_cell_length_c                   10.513(3)
_cell_angle_alpha                103.78(2)
_cell_angle_beta                 100.28(3)
_cell_angle_gamma                117.69(2)
_cell_volume                     695.474
loop_
_atom_site_label
_atom_site_type_symbol
_atom_site_fract_x
_atom_site_fract_y
_atom_site_fract_z
Mn1 Mn 0.5000 0.5000 0.5000
O1 O 0.5929(3) 0.5377(3) 0.7200(2)
N1 N 1.0797(3) 0.8609(3) 0.5921(2)
N2 N 1.0280(3) 0.8063(3) 0.4497(2)
C1 C 0.8536(4) 0.6917(4) 0.4088(3)
N3 N 0.7885(3) 0.6666(3) 0.5133(2)
C2 C 0.9350(4) 0.7751(4) 0.6253(3)
N4 N 0.6081(3) 0.0784(3) 0.3552(2)
N5 N 0.4298(3) -0.0278(3) 0.3365(2)
C3 C 0.3803(4) 0.0833(3) 0.3818(3)
N6 N 0.5138(3) 0.2561(3) 0.4288(2)
C4 C 0.6531(4) 0.2451(4) 0.4104(3)
N7 N 1.2973(3) 1.0461(3) 0.8350(2)
N8 N 1.2651(4) 0.9252(4) 0.8986(3)
C5 C 1.2877(6) 1.0156(6) 1.0253(4)
N9 N 1.3379(5) 1.1862(5) 1.0503(3)
C6 C 1.3416(6) 1.1981(5) 0.9280(4)
B1 B 1.2786(4) 1.0011(4) 0.6808(3)
H1 H 0.7813(54) 0.6257(51) 0.3156(40)
H2 H 0.9385(54) 0.7896(51) 0.7152(40)
H3 H 0.2568(55) 0.0464(50) 0.3827(39)
H4 H 0.7729(56) 0.3367(51) 0.4363(40)
H5 H 1.2660(55) 0.9554(51) 1.0981(41)
H6 H 1.3721(55) 1.3016(52) 0.9035(40)
H7 H 1.3236(52) 1.1208(50) 0.6549(38)
H8 H 0.6229(56) 0.6336(55) 0.7876(42)
H9 H 0.6517(57) 0.4923(56) 0.7383(43)
O1A O 0.4071(3) 0.4623(3) 0.2800(2)
N3A N 0.2115(3) 0.3334(3) 0.4867(2)
N6A N 0.4862(3) 0.7439(3) 0.5712(2)
B1A B 0.7214(4) -0.0011(4) 0.3192(3)
N4A N 1.3919(3) 0.9216(3) 0.6448(2)
H8A H 0.3771(56) 0.3664(55) 0.2124(42)
H9A H 0.3483(57) 0.5077(56) 0.2617(43)
N1A N 0.9203(3) 0.1391(3) 0.4079(2)
N7A N 0.7027(3) -0.0461(3) 0.1650(2)
H7A H 0.6764(52) -0.1208(50) 0.3451(38)
N5A N 1.5702(3) 1.0278(3) 0.6635(2)
C4A C 1.3469(4) 0.7549(4) 0.5896(3)
N2A N 0.9720(3) 0.1937(3) 0.5503(2)
C2A C 1.0650(4) 0.2249(4) 0.3747(3)
N8A N 0.7349(4) 0.0748(4) 0.1014(3)
C6A C 0.6584(6) -0.1981(5) 0.0720(4)
C3A C 1.6197(4) 0.9167(3) 0.6182(3)
C5A C 0.7123(6) -0.0156(6) -0.0253(4)
N9A N 0.6621(5) -0.1862(5) -0.0503(3)
H6A H 0.6279(55) -0.3016(52) 0.0965(40)
H5A H 0.7340(55) 0.0446(51) -0.0981(41)
N6A_2 N 1.4862(3) 0.7439(3) 0.5712(2)
H4A H 1.2271(56) 0.6633(51) 0.5637(40)
C1A C 1.1464(4) 0.3083(4) 0.5912(3)
N3A_2 N 1.2115(3) 0.3334(3) 0.4867(2)
H2A H 1.0615(54) 0.2104(51) 0.2848(40)
H3A H 1.7432(55) 0.9536(50) 0.6173(39)
Mn1_2 Mn 1.5000 0.5000 0.5000
H1A H 1.2187(54) 0.3743(51) 0.6844(40)
O2 O 0.7802(4) 0.3991(3) 0.8236(3)
H10 H 0.7191(58) 0.2885(56) 0.7655(42)
H11 H 0.8982(61) 0.4490(56) 0.8408(44)
O3 O 0.8385(5) 0.4377(4) 1.1106(3)
H12 H 0.8067(61) 0.3400(57) 1.1273(44)
H13 H 0.8228(59) 0.4184(54) 1.0226(44)
loop_
_geom_bond_atom_site_label_1
_geom_bond_atom_site_label_2
_geom_bond_site_symmetry_1
_geom_bond_site_symmetry_2
Mn1 O1 1_555 1_555
O1 H8 1_555 1_555
N1 N2 1_555 1_555
N2 C1 1_555 1_555
C1 N3 1_555 1_555
N3 Mn1 1_555 1_555
C2 N1 1_555 1_555
N4 N5 1_555 1_555
N5 C3 1_555 1_555
C3 N6 1_555 1_555
N6 Mn1 1_555 1_555
C4 N4 1_555 1_555
N7 N8 1_555 1_555
N8 C5 1_555 1_555
C5 N9 1_555 1_555
N9 C6 1_555 1_555
C6 N7 1_555 1_555
B1 N1 1_555 1_555
H1 C1 1_555 1_555
H2 C2 1_555 1_555
H3 C3 1_555 1_555
H4 C4 1_555 1_555
H5 C5 1_555 1_555
H6 C6 1_555 1_555
H7 B1 1_555 1_555
H9 O1 1_555 1_555
O2 H10 1_555 1_555
H11 O2 1_555 1_555
O3 H12 1_555 1_555
H13 O3 1_555 1_555
O1A Mn1 1_555 1_555
N3A Mn1 1_555 1_555
N6A Mn1 1_555 1_555
B1A N4 1_555 1_555
N4A B1 1_555 1_555
H8A O1A 1_555 1_555
H9A O1A 1_555 1_555
N1A B1A 1_555 1_555
N7A B1A 1_555 1_555
H7A B1A 1_555 1_555
N5A N4A 1_555 1_555
C4A N4A 1_555 1_555
N2A N1A 1_555 1_555
C2A N1A 1_555 1_555
N8A N7A 1_555 1_555
C6A N7A 1_555 1_555
C3A N5A 1_555 1_555
C5A N8A 1_555 1_555
N9A C6A 1_555 1_555
H6A C6A 1_555 1_555
H5A C5A 1_555 1_555
N6A_2 C4A 1_555 1_555
H4A C4A 1_555 1_555
C1A N2A 1_555 1_555
N3A_2 C2A 1_555 1_555
H2A C2A 1_555 1_555
H3A C3A 1_555 1_555
Mn1_2 N6A_2 1_555 1_555
H1A C1A 1_555 1_555
N3 C2 1_555 1_555
N6 C4 1_555 1_555
N7 B1 1_555 1_555
C3A N6A_2 1_555 1_555
C5A N9A 1_555 1_555
C1A N3A_2 1_555 1_555
N3A_2 Mn1_2 1_555 1_555

#END
