
#######################################################################
#
#                 Cambridge Crystallographic Data Centre
#                                CCDC 
#
#######################################################################
#
# If this CIF has been generated from an entry in the Cambridge 
# Structural Database, then it will include bibliographic, chemical, 
# crystal, experimental, refinement or atomic coordinate data resulting 
# from the CCDC's data processing and validation procedures.
#
#######################################################################

data_ZITRAX
_symmetry_cell_setting           monoclinic
_symmetry_space_group_name_H-M   'P 2/c'
_symmetry_Int_Tables_number      13
_space_group_name_Hall           '-P 2yc'
loop_
_symmetry_equiv_pos_site_id
_symmetry_equiv_pos_as_xyz
1 x,y,z
2 -x,y,1/2-z
3 -x,-y,-z
4 x,-y,1/2+z
_cell_length_a                   12.5237(6)
_cell_length_b                   7.3310(3)
_cell_length_c                   16.8926(8)
_cell_angle_alpha                90
_cell_angle_beta                 92.569(4)
_cell_angle_gamma                90
_cell_volume                     1549.37
loop_
_atom_site_label
_atom_site_type_symbol
_atom_site_fract_x
_atom_site_fract_y
_atom_site_fract_z
Cu1 Cu 0.0000 0.62241(10) 0.2500
O1 O 0.02706(18) 0.6337(3) 0.36479(13)
O2 O 0.1213(2) 0.5641(4) 0.73822(14)
O3 O 0.0000 0.8837(6) 0.2500
H1 H -0.0116 0.9504 0.2095
N1 N 0.1116(2) 0.6944(4) 0.48095(17)
H2 H 0.0512 0.7342 0.4960
N2 N 0.2082(2) 0.6022(5) 0.37544(17)
H3 H 0.2079 0.5722 0.3262
N3 N 0.1612(2) 0.5957(4) 0.60943(16)
H4 H 0.1347 0.4888 0.6011
N4 N 0.2126(2) 0.8113(4) 0.70241(17)
H5 H 0.2072 0.8531 0.7496
C1 C 0.1153(3) 0.6415(5) 0.4051(2)
C2 C 0.3120(3) 0.6052(6) 0.4193(2)
C3 C 0.2894(3) 0.5764(5) 0.5069(2)
H6 H 0.3547 0.6013 0.5380
H7 H 0.2722 0.4487 0.5144
C4 C 0.1996(3) 0.6913(5) 0.5405(2)
C5 C 0.3768(3) 0.4433(7) 0.3916(2)
H8 H 0.3390 0.3323 0.4014
H9 H 0.4449 0.4411 0.4200
H10 H 0.3875 0.4546 0.3359
C6 C 0.3716(3) 0.7808(6) 0.4024(2)
H11 H 0.3933 0.7798 0.3486
H12 H 0.4337 0.7900 0.4377
H13 H 0.3256 0.8833 0.4102
C7 C 0.1627(3) 0.6563(6) 0.6846(2)
C8 C 0.2757(3) 0.9161(5) 0.6483(2)
C9 C 0.2258(3) 0.8872(5) 0.5646(2)
H14 H 0.1605 0.9580 0.5598
H15 H 0.2745 0.9366 0.5269
C10 C 0.2654(4) 1.1174(6) 0.6693(2)
H16 H 0.1918 1.1532 0.6637
H17 H 0.3069 1.1891 0.6344
H18 H 0.2912 1.1365 0.7230
C11 C 0.3926(3) 0.8572(7) 0.6582(3)
H19 H 0.4208 0.8928 0.7097
H20 H 0.4332 0.9146 0.6183
H21 H 0.3973 0.7271 0.6529
H1A H 0.0116 0.9504 0.2905
O1A O -0.02706(18) 0.6337(3) 0.13521(13)
O2A O -0.1213(2) 0.5641(4) -0.23822(14)
N1A N -0.1116(2) 0.6944(4) 0.01905(17)
H2A H -0.0512 0.7342 0.0040
N2A N -0.2082(2) 0.6022(5) 0.12456(17)
H3A H -0.2079 0.5722 0.1738
N3A N -0.1612(2) 0.5957(4) -0.10943(16)
H4A H -0.1347 0.4888 -0.1011
N4A N -0.2126(2) 0.8113(4) -0.20241(17)
H5A H -0.2072 0.8531 -0.2496
C1A C -0.1153(3) 0.6415(5) 0.0949(2)
C2A C -0.3120(3) 0.6052(6) 0.0807(2)
C3A C -0.2894(3) 0.5764(5) -0.0069(2)
H6A H -0.3547 0.6013 -0.0380
H7A H -0.2722 0.4487 -0.0144
C4A C -0.1996(3) 0.6913(5) -0.0405(2)
C5A C -0.3768(3) 0.4433(7) 0.1084(2)
H8A H -0.3390 0.3323 0.0986
H9A H -0.4449 0.4411 0.0800
H10A H -0.3875 0.4546 0.1641
C6A C -0.3716(3) 0.7808(6) 0.0976(2)
H11A H -0.3933 0.7798 0.1514
H12A H -0.4337 0.7900 0.0623
H13A H -0.3256 0.8833 0.0898
C7A C -0.1627(3) 0.6563(6) -0.1846(2)
C8A C -0.2757(3) 0.9161(5) -0.1483(2)
C9A C -0.2258(3) 0.8872(5) -0.0646(2)
H14A H -0.1605 0.9580 -0.0598
H15A H -0.2745 0.9366 -0.0269
C10A C -0.2654(4) 1.1174(6) -0.1693(2)
H16A H -0.1918 1.1532 -0.1637
H17A H -0.3069 1.1891 -0.1344
H18A H -0.2912 1.1365 -0.2230
C11A C -0.3926(3) 0.8572(7) -0.1582(3)
H19A H -0.4208 0.8928 -0.2097
H20A H -0.4332 0.9146 -0.1183
H21A H -0.3973 0.7271 -0.1529
Cu1B Cu 0.0000 0.37759(10) -0.2500
Cu1B_2 Cu 0.0000 0.37759(10) 0.7500
O2B O -0.1213(2) 0.4359(4) 0.26178(14)
O2C O 0.1213(2) 0.4359(4) 0.23822(14)
O4 O 0.1117(2) 0.2413(4) 0.46900(17)
O5 O 0.1916(2) 0.1053(4) 0.37485(17)
O6 O 0.0201(2) 0.0948(4) 0.38044(18)
N5 N 0.1079(3) 0.1466(5) 0.4073(2)
loop_
_geom_bond_atom_site_label_1
_geom_bond_atom_site_label_2
_geom_bond_site_symmetry_1
_geom_bond_site_symmetry_2
Cu1 O1 1_555 1_555
O1 C1 1_555 1_555
O2 C7 1_555 1_555
O3 Cu1 1_555 1_555
H1 O3 1_555 1_555
N1 H2 1_555 1_555
N2 H3 1_555 1_555
N3 H4 1_555 1_555
N4 H5 1_555 1_555
C1 N1 1_555 1_555
C2 N2 1_555 1_555
C3 C2 1_555 1_555
H6 C3 1_555 1_555
H7 C3 1_555 1_555
C4 N1 1_555 1_555
C5 C2 1_555 1_555
H8 C5 1_555 1_555
H9 C5 1_555 1_555
H10 C5 1_555 1_555
C6 C2 1_555 1_555
H11 C6 1_555 1_555
H12 C6 1_555 1_555
H13 C6 1_555 1_555
C7 N3 1_555 1_555
C8 N4 1_555 1_555
C9 C4 1_555 1_555
H14 C9 1_555 1_555
H15 C9 1_555 1_555
C10 C8 1_555 1_555
H16 C10 1_555 1_555
H17 C10 1_555 1_555
H18 C10 1_555 1_555
C11 C8 1_555 1_555
H19 C11 1_555 1_555
H20 C11 1_555 1_555
H21 C11 1_555 1_555
O4 N5 1_555 1_555
O5 N5 1_555 1_555
O6 N5 1_555 1_555
H1A O3 1_555 1_555
O1A Cu1 1_555 1_555
O2A C7A 1_555 1_555
N1A H2A 1_555 1_555
N2A H3A 1_555 1_555
N3A H4A 1_555 1_555
N4A H5A 1_555 1_555
C1A O1A 1_555 1_555
C2A N2A 1_555 1_555
C3A C2A 1_555 1_555
H6A C3A 1_555 1_555
H7A C3A 1_555 1_555
C4A N1A 1_555 1_555
C5A C2A 1_555 1_555
H8A C5A 1_555 1_555
H9A C5A 1_555 1_555
H10A C5A 1_555 1_555
C6A C2A 1_555 1_555
H11A C6A 1_555 1_555
H12A C6A 1_555 1_555
H13A C6A 1_555 1_555
C7A N3A 1_555 1_555
C8A N4A 1_555 1_555
C9A C4A 1_555 1_555
H14A C9A 1_555 1_555
H15A C9A 1_555 1_555
C10A C8A 1_555 1_555
H16A C10A 1_555 1_555
H17A C10A 1_555 1_555
H18A C10A 1_555 1_555
C11A C8A 1_555 1_555
H19A C11A 1_555 1_555
H20A C11A 1_555 1_555
H21A C11A 1_555 1_555
Cu1B O2A 1_555 1_555
Cu1B_2 O2 1_555 1_555
O2B Cu1 1_555 1_555
O2C Cu1 1_555 1_555
N2 C1 1_555 1_555
N3 C4 1_555 1_555
N4 C7 1_555 1_555
C3 C4 1_555 1_555
C8 C9 1_555 1_555
N1A C1A 1_555 1_555
N2A C1A 1_555 1_555
N3A C4A 1_555 1_555
N4A C7A 1_555 1_555
C3A C4A 1_555 1_555
C8A C9A 1_555 1_555

#END
