
#######################################################################
#
#                 Cambridge Crystallographic Data Centre
#                                CCDC 
#
#######################################################################
#
# If this CIF has been generated from an entry in the Cambridge 
# Structural Database, then it will include bibliographic, chemical, 
# crystal, experimental, refinement or atomic coordinate data resulting 
# from the CCDC's data processing and validation procedures.
#
#######################################################################

data_ZITXEF
_symmetry_cell_setting           monoclinic
_symmetry_space_group_name_H-M   'P 21/c'
_symmetry_Int_Tables_number      14
_space_group_name_Hall           '-P 2ybc'
loop_
_symmetry_equiv_pos_site_id
_symmetry_equiv_pos_as_xyz
1 x,y,z
2 -x,1/2+y,1/2-z
3 -x,-y,-z
4 x,1/2-y,1/2+z
_cell_length_a                   15.51(1)
_cell_length_b                   15.178(5)
_cell_length_c                   25.66(3)
_cell_angle_alpha                90
_cell_angle_beta                 106.9(1)
_cell_angle_gamma                90
_cell_volume                     5779.77
loop_
_atom_site_label
_atom_site_type_symbol
_atom_site_fract_x
_atom_site_fract_y
_atom_site_fract_z
Co1 Co -0.0684(1) -0.4483(1) 0.33260(6)
Co2 Co -0.2480(1) -0.4037(1) -0.00302(7)
Co3 Co 0.5812(1) -0.3645(1) 0.66784(7)
S1 S 0.2700(2) -0.2624(3) 0.5058(1)
S2 S -0.0315(2) -0.5436(2) 0.1573(1)
S3 S 0.5291(3) -0.4958(3) 0.8064(1)
N1 N 0.5307(6) -0.2931(6) 0.7221(4)
C1 C 0.5881(8) -0.2869(8) 0.7737(5)
C2 C 0.5623(8) -0.2463(8) 0.8144(5)
C3 C 0.4804(9) -0.2125(8) 0.8062(5)
C4 C 0.4196(8) -0.2168(8) 0.7537(6)
C5 C 0.4479(8) -0.2588(8) 0.7136(5)
C6 C 0.3861(8) -0.2631(8) 0.6599(6)
C7 C 0.3280(8) -0.2670(8) 0.6179(5)
C8 C 0.2548(8) -0.2781(8) 0.5690(5)
C9 C 0.1708(8) -0.3044(8) 0.5648(5)
C10 C 0.1181(9) -0.3148(8) 0.5099(6)
C11 C 0.1622(8) -0.2947(8) 0.4740(5)
C12 C 0.1299(8) -0.3044(8) 0.4154(6)
C13 C 0.1018(8) -0.3128(8) 0.3681(5)
C14 C 0.0657(8) -0.3153(8) 0.3095(5)
N2 N -0.0118(6) -0.3623(6) 0.2904(4)
C15 C -0.0526(7) -0.3576(8) 0.2351(5)
C16 C -0.0165(8) -0.3116(8) 0.2013(5)
C17 C 0.0627(8) -0.2694(8) 0.2210(5)
C18 C 0.1064(8) -0.2688(8) 0.2767(5)
N3 N 0.0370(6) -0.5207(6) 0.3823(4)
C19 C 0.0485(8) -0.5189(8) 0.4373(5)
C20 C 0.1165(8) -0.5663(8) 0.4738(5)
C21 C 0.1732(8) -0.6133(8) 0.4557(5)
C22 C 0.1652(7) -0.6158(8) 0.4014(5)
C23 C 0.0956(8) -0.5710(7) 0.3648(5)
C24 C 0.0826(8) -0.5744(8) 0.3078(5)
C25 C 0.0704(7) -0.5845(8) 0.2605(5)
C26 C 0.0517(7) -0.5988(8) 0.2029(5)
C27 C 0.0950(7) -0.6563(7) 0.1784(5)
C28 C 0.0600(7) -0.6540(7) 0.1199(5)
C29 C -0.0092(7) -0.5972(8) 0.1034(5)
C30 C -0.0598(8) -0.5766(8) 0.0488(5)
C31 C -0.1030(7) -0.5592(7) 0.0043(5)
C32 C -0.1506(8) -0.5399(8) -0.0529(5)
N4 N -0.2128(6) -0.4761(6) -0.0618(4)
C33 C -0.2560(8) -0.4556(8) -0.1154(5)
C34 C -0.2383(8) -0.4999(9) -0.1576(5)
C35 C -0.1775(8) -0.5646(8) -0.1476(5)
C36 C -0.1302(8) -0.5861(8) -0.0935(5)
N5 N 0.6993(6) -0.4956(6) 1.0392(4)
C37 C 0.7401(8) -0.5008(8) 1.0945(5)
C38 C 0.7120(9) -0.5648(9) 1.1245(5)
C39 C 0.645(1) -0.6179(9) 1.1024(6)
C40 C 0.6015(9) -0.6133(9) 1.0478(6)
C41 C 0.6313(8) -0.5518(9) 1.0165(5)
C42 C 0.5882(8) -0.5466(9) 0.9587(6)
C43 C 0.5471(8) -0.5452(8) 0.9121(6)
C44 C 0.4958(8) -0.5462(8) 0.8568(5)
C45 C 0.4146(9) -0.5846(8) 0.8364(5)
C46 C 0.3787(8) -0.5731(8) 0.7794(5)
C47 C 0.4326(8) -0.5257(8) 0.7565(5)
C48 C 0.4208(8) -0.5053(8) 0.7024(6)
C49 C 0.4169(8) -0.4875(8) 0.6576(5)
C50 C 0.4197(8) -0.4641(8) 0.6034(5)
N6 N 0.4840(6) -0.4060(6) 0.5993(4)
C51 C 0.4899(8) -0.3818(8) 0.5508(5)
C52 C 0.4300(9) -0.4173(9) 0.5021(5)
C53 C 0.3675(9) -0.4747(9) 0.5061(6)
C54 C 0.3584(9) -0.5004(9) 0.5560(6)
N7 N -0.1846(8) -0.3552(8) 0.3676(5)
O1 O -0.1080(5) -0.3945(5) 0.3940(3)
O2 O -0.1976(5) -0.3545(5) 0.3173(3)
O3 O -0.2314(7) -0.3252(7) 0.3928(4)
N8 N -0.1810(8) -0.5747(8) 0.2880(5)
O4 O -0.1423(5) -0.5163(6) 0.2661(3)
O5 O -0.1630(6) -0.5675(6) 0.3391(4)
O6 O -0.2373(6) -0.6244(6) 0.2620(4)
N9 N -0.3764(9) -0.2820(9) -0.0267(5)
O7 O -0.3529(6) -0.3372(6) -0.0562(4)
O8 O -0.3306(6) -0.2877(7) 0.0216(4)
O9 O -0.4342(7) -0.2292(7) -0.0453(4)
N10 N -0.1001(7) -0.3126(7) 0.0373(5)
O10 O -0.1400(5) -0.3693(5) 0.0593(3)
O11 O -0.1390(6) -0.3003(5) -0.0128(4)
O12 O -0.0343(6) -0.2734(6) 0.0627(3)
N11 N 0.7159(8) -0.2559(9) 0.6706(5)
O13 O 0.6414(6) -0.2769(5) 0.6316(3)
O14 O 0.7240(6) -0.2944(6) 0.7126(4)
O15 O 0.7607(7) -0.1996(7) 0.6568(4)
N12 N 0.6764(8) -0.5141(9) 0.6834(5)
O16 O 0.6367(5) -0.4679(6) 0.7129(3)
O17 O 0.6692(6) -0.4839(6) 0.6372(4)
O18 O 0.7171(7) -0.5791(8) 0.7006(4)
H1 H 0.64691 -0.31159 0.78147
H2 H 0.60467 -0.24223 0.84965
H3 H 0.46349 -0.18657 0.83541
H4 H 0.36123 -0.19149 0.74628
H5 H 0.14912 -0.31510 0.59522
H6 H 0.05720 -0.33345 0.49969
H7 H -0.10829 -0.38735 0.22047
H8 H -0.04718 -0.30990 0.16349
H9 H 0.08843 -0.23910 0.19656
H10 H 0.16159 -0.23844 0.29111
H11 H 0.00891 -0.48437 0.45088
H12 H 0.12240 -0.56476 0.51153
H13 H 0.22035 -0.64514 0.48054
H14 H 0.20724 -0.64878 0.38886
H15 H 0.14248 -0.69382 0.19760
H16 H 0.08267 -0.68858 0.09602
H17 H -0.29931 -0.40931 -0.12322
H18 H -0.26930 -0.48465 -0.19403
H19 H -0.16644 -0.59589 -0.17686
H20 H -0.08563 -0.63099 -0.08567
H21 H 0.78745 -0.46142 1.11156
H22 H 0.74209 -0.56974 1.16240
H23 H 0.62621 -0.66027 1.12411
H24 H 0.55213 -0.65100 1.03135
H25 H 0.38455 -0.61517 0.85845
H26 H 0.32224 -0.59725 0.75898
H27 H 0.53486 -0.34071 0.54701
H28 H 0.43666 -0.39829 0.46819
H29 H 0.32846 -0.49630 0.47017
H30 H 0.31255 -0.54024 0.56354
N5_2 N -0.3007(6) -0.4956(6) 0.0392(4)
Co2_2 Co 0.7520(1) -0.4037(1) 0.99698(7)
loop_
_geom_bond_atom_site_label_1
_geom_bond_atom_site_label_2
_geom_bond_site_symmetry_1
_geom_bond_site_symmetry_2
Co1 N2 1_555 1_555
Co2 N4 1_555 1_555
Co3 N1 1_555 1_555
S1 C8 1_555 1_555
S2 C26 1_555 1_555
S3 C44 1_555 1_555
N1 C1 1_555 1_555
C1 C2 1_555 1_555
C2 C3 1_555 1_555
C3 C4 1_555 1_555
C4 C5 1_555 1_555
C5 N1 1_555 1_555
C6 C5 1_555 1_555
C7 C6 1_555 1_555
C8 C7 1_555 1_555
C9 C8 1_555 1_555
C10 C9 1_555 1_555
C11 S1 1_555 1_555
C12 C11 1_555 1_555
C13 C12 1_555 1_555
C14 C13 1_555 1_555
N2 C14 1_555 1_555
C15 N2 1_555 1_555
C16 C15 1_555 1_555
C17 C16 1_555 1_555
C18 C14 1_555 1_555
N3 Co1 1_555 1_555
C19 N3 1_555 1_555
C20 C19 1_555 1_555
C21 C20 1_555 1_555
C22 C21 1_555 1_555
C23 N3 1_555 1_555
C24 C23 1_555 1_555
C25 C24 1_555 1_555
C26 C25 1_555 1_555
C27 C26 1_555 1_555
C28 C27 1_555 1_555
C29 S2 1_555 1_555
C30 C29 1_555 1_555
C31 C30 1_555 1_555
C32 C31 1_555 1_555
N4 C32 1_555 1_555
C33 N4 1_555 1_555
C34 C33 1_555 1_555
C35 C34 1_555 1_555
C36 C32 1_555 1_555
N5 C37 1_555 1_555
C37 C38 1_555 1_555
C38 C39 1_555 1_555
C39 C40 1_555 1_555
C40 C41 1_555 1_555
C41 N5 1_555 1_555
C42 C41 1_555 1_555
C43 C42 1_555 1_555
C44 C43 1_555 1_555
C45 C44 1_555 1_555
C46 C45 1_555 1_555
C47 S3 1_555 1_555
C48 C47 1_555 1_555
C49 C48 1_555 1_555
C50 C49 1_555 1_555
N6 Co3 1_555 1_555
C51 N6 1_555 1_555
C52 C51 1_555 1_555
C53 C52 1_555 1_555
C54 C50 1_555 1_555
N7 O1 1_555 1_555
O1 Co1 1_555 1_555
O2 Co1 1_555 1_555
O3 N7 1_555 1_555
N8 O4 1_555 1_555
O4 Co1 1_555 1_555
O5 Co1 1_555 1_555
O6 N8 1_555 1_555
N9 O7 1_555 1_555
O7 Co2 1_555 1_555
O8 Co2 1_555 1_555
O9 N9 1_555 1_555
N10 O10 1_555 1_555
O10 Co2 1_555 1_555
O11 Co2 1_555 1_555
O12 N10 1_555 1_555
N11 O13 1_555 1_555
O13 Co3 1_555 1_555
O14 Co3 1_555 1_555
O15 N11 1_555 1_555
N12 O16 1_555 1_555
O16 Co3 1_555 1_555
O17 Co3 1_555 1_555
O18 N12 1_555 1_555
H1 C1 1_555 1_555
H2 C2 1_555 1_555
H3 C3 1_555 1_555
H4 C4 1_555 1_555
H5 C9 1_555 1_555
H6 C10 1_555 1_555
H7 C15 1_555 1_555
H8 C16 1_555 1_555
H9 C17 1_555 1_555
H10 C18 1_555 1_555
H11 C19 1_555 1_555
H12 C20 1_555 1_555
H13 C21 1_555 1_555
H14 C22 1_555 1_555
H15 C27 1_555 1_555
H16 C28 1_555 1_555
H17 C33 1_555 1_555
H18 C34 1_555 1_555
H19 C35 1_555 1_555
H20 C36 1_555 1_555
H21 C37 1_555 1_555
H22 C38 1_555 1_555
H23 C39 1_555 1_555
H24 C40 1_555 1_555
H25 C45 1_555 1_555
H26 C46 1_555 1_555
H27 C51 1_555 1_555
H28 C52 1_555 1_555
H29 C53 1_555 1_555
H30 C54 1_555 1_555
N5_2 Co2 1_555 1_555
Co2_2 N5 1_555 1_555
C10 C11 1_555 1_555
C17 C18 1_555 1_555
C22 C23 1_555 1_555
C28 C29 1_555 1_555
C35 C36 1_555 1_555
C46 C47 1_555 1_555
C50 N6 1_555 1_555
C53 C54 1_555 1_555
N7 O2 1_555 1_555
N8 O5 1_555 1_555
N9 O8 1_555 1_555
N10 O11 1_555 1_555
N11 O14 1_555 1_555
N12 O17 1_555 1_555

#END
