
#######################################################################
#
#                 Cambridge Crystallographic Data Centre
#                                CCDC 
#
#######################################################################
#
# If this CIF has been generated from an entry in the Cambridge 
# Structural Database, then it will include bibliographic, chemical, 
# crystal, experimental, refinement or atomic coordinate data resulting 
# from the CCDC's data processing and validation procedures.
#
#######################################################################

data_ZITZOT
_symmetry_cell_setting           monoclinic
_symmetry_space_group_name_H-M   'P 21/n'
_symmetry_Int_Tables_number      14
_space_group_name_Hall           '-P 2yn'
loop_
_symmetry_equiv_pos_site_id
_symmetry_equiv_pos_as_xyz
1 x,y,z
2 1/2-x,1/2+y,1/2-z
3 -x,-y,-z
4 1/2+x,1/2-y,1/2+z
_cell_length_a                   11.417(2)
_cell_length_b                   15.127(3)
_cell_length_c                   13.953(3)
_cell_angle_alpha                90
_cell_angle_beta                 113.56(3)
_cell_angle_gamma                90
_cell_volume                     2208.88
loop_
_atom_site_label
_atom_site_type_symbol
_atom_site_fract_x
_atom_site_fract_y
_atom_site_fract_z
Cd1 Cd 0.85744(2) 0.57934(2) 0.46226(2)
C1 C 0.6081(2) 0.63127(17) 0.37153(16)
C2 C 0.47303(19) 0.65276(15) 0.29705(17)
C3 C 0.4481(2) 0.66125(17) 0.19126(18)
H1 H 0.5139 0.6529 0.1688
C4 C 0.3272(2) 0.68185(18) 0.11938(19)
H2 H 0.3117 0.6874 0.0489
C5 C 0.2291(2) 0.69416(18) 0.1525(2)
H3 H 0.1476 0.7084 0.1042
C6 C 0.2518(2) 0.68542(17) 0.2569(2)
H4 H 0.1853 0.6934 0.2785
C7 C 0.37338(19) 0.66482(15) 0.32993(17)
C8 C 0.3502(2) 0.66117(15) 0.57681(17)
C9 C 0.4762(2) 0.66090(18) 0.6494(2)
H5 H 0.5421 0.6536 0.6270
C10 C 0.5041(2) 0.67139(19) 0.7546(2)
H6 H 0.5883 0.6680 0.8031
C11 C 0.4072(3) 0.68693(19) 0.78789(19)
H7 H 0.4263 0.6976 0.8582
C12 C 0.2816(2) 0.68655(19) 0.71616(18)
H8 H 0.2165 0.6977 0.7387
C13 C 0.2509(2) 0.66967(15) 0.61075(17)
C14 C 0.11219(19) 0.65396(16) 0.54090(15)
C15 C 0.9595(2) 0.61844(18) 0.70803(17)
H9 H 1.0255 0.6439 0.6946
C16 C 0.9660(2) 0.62197(17) 0.80875(16)
H10 H 1.0345 0.6497 0.8613
C17 C 0.8691(2) 0.58364(15) 0.83072(16)
C18 C 0.7690(2) 0.54389(17) 0.74839(17)
H11 H 0.7023 0.5173 0.7599
C19 C 0.7694(2) 0.54426(16) 0.64984(16)
H12 H 0.7013 0.5182 0.5954
C20 C 0.8766(2) 0.58749(17) 0.93792(17)
H13 H 0.9460 0.6180 0.9859
C21 C 0.7968(2) 0.55290(17) 0.97436(17)
H14 H 0.7260 0.5229 0.9275
C22 C 0.8115(2) 0.55828(16) 1.08339(16)
C23 C 0.9183(2) 0.59518(17) 1.16178(17)
H15 H 0.9834 0.6189 1.1456
C24 C 0.9281(2) 0.59679(17) 1.26284(17)
H16 H 1.0012 0.6211 1.3140
C25 C 0.7350(2) 0.52888(18) 1.21695(17)
H17 H 0.6714 0.5060 1.2355
C26 C 0.7187(2) 0.52370(19) 1.11355(17)
H18 H 0.6460 0.4972 1.0644
N1 N 0.40723(17) 0.66223(13) 0.44004(15)
N2 N 0.31425(17) 0.65714(13) 0.46625(14)
N3 N 0.86399(17) 0.58059(13) 0.62892(13)
N4 N 0.83739(17) 0.56498(13) 1.29135(13)
O1 O 0.63330(15) 0.55260(12) 0.39939(13)
O2 O 0.68988(15) 0.69148(12) 0.39413(13)
O3 O 0.08109(15) 0.57455(11) 0.51322(12)
O4 O 0.03255(16) 0.71318(13) 0.52188(14)
Cd1_2 Cd -0.14256(2) 0.57934(2) 0.46226(2)
Cd1_3 Cd 0.85744(2) 0.57934(2) 1.46226(2)
Cd1B Cd 0.14256(2) 0.42066(2) 0.53774(2)
N4_2 N 0.83739(17) 0.56498(13) 0.29135(13)
O3_2 O 1.08109(15) 0.57455(11) 0.51322(12)
O3B O 0.91891(15) 0.42545(11) 0.48678(12)
O4_2 O 1.03255(16) 0.71318(13) 0.52188(14)
loop_
_geom_bond_atom_site_label_1
_geom_bond_atom_site_label_2
_geom_bond_site_symmetry_1
_geom_bond_site_symmetry_2
Cd1 N3 1_555 1_555
C1 C2 1_555 1_555
C2 C3 1_555 1_555
C3 H1 1_555 1_555
C4 C3 1_555 1_555
H2 C4 1_555 1_555
C5 C4 1_555 1_555
H3 C5 1_555 1_555
C6 C5 1_555 1_555
H4 C6 1_555 1_555
C7 C2 1_555 1_555
C8 C9 1_555 1_555
C9 H5 1_555 1_555
C10 C9 1_555 1_555
H6 C10 1_555 1_555
C11 C10 1_555 1_555
H7 C11 1_555 1_555
C12 C11 1_555 1_555
H8 C12 1_555 1_555
C13 C8 1_555 1_555
C14 C13 1_555 1_555
C15 H9 1_555 1_555
C16 C15 1_555 1_555
H10 C16 1_555 1_555
C17 C16 1_555 1_555
C18 C17 1_555 1_555
H11 C18 1_555 1_555
C19 C18 1_555 1_555
H12 C19 1_555 1_555
C20 C17 1_555 1_555
H13 C20 1_555 1_555
C21 C20 1_555 1_555
H14 C21 1_555 1_555
C22 C21 1_555 1_555
C23 C22 1_555 1_555
H15 C23 1_555 1_555
C24 C23 1_555 1_555
H16 C24 1_555 1_555
C25 H17 1_555 1_555
C26 C22 1_555 1_555
H18 C26 1_555 1_555
N1 C7 1_555 1_555
N2 C8 1_555 1_555
N3 C15 1_555 1_555
N4 C24 1_555 1_555
O1 Cd1 1_555 1_555
O2 Cd1 1_555 1_555
O3 C14 1_555 1_555
O4 C14 1_555 1_555
Cd1_2 O3 1_555 1_555
Cd1_3 N4 1_555 1_555
Cd1B O3 1_555 1_555
N4_2 Cd1 1_555 1_555
O3_2 Cd1 1_555 1_555
O3B Cd1 1_555 1_555
O4_2 Cd1 1_555 1_555
C1 O1 1_555 1_555
C1 O2 1_555 1_555
C6 C7 1_555 1_555
C12 C13 1_555 1_555
C19 N3 1_555 1_555
C25 C26 1_555 1_555
C25 N4 1_555 1_555
N1 N2 1_555 1_555
O4 Cd1_2 1_555 1_555

#END
