
#######################################################################
#
#                 Cambridge Crystallographic Data Centre
#                                CCDC 
#
#######################################################################
#
# If this CIF has been generated from an entry in the Cambridge 
# Structural Database, then it will include bibliographic, chemical, 
# crystal, experimental, refinement or atomic coordinate data resulting 
# from the CCDC's data processing and validation procedures.
#
#######################################################################

data_ZIVBOX
_symmetry_cell_setting           triclinic
_symmetry_space_group_name_H-M   'P -1'
_symmetry_Int_Tables_number      2
_space_group_name_Hall           '-P 1'
loop_
_symmetry_equiv_pos_site_id
_symmetry_equiv_pos_as_xyz
1 x,y,z
2 -x,-y,-z
_cell_length_a                   6.1241(12)
_cell_length_b                   8.4939(17)
_cell_length_c                   10.224(2)
_cell_angle_alpha                67.94(3)
_cell_angle_beta                 80.46(3)
_cell_angle_gamma                77.48(3)
_cell_volume                     479.077
loop_
_atom_site_label
_atom_site_type_symbol
_atom_site_fract_x
_atom_site_fract_y
_atom_site_fract_z
Cd1 Cd 0.06101(3) 0.72697(2) 0.36944(2)
S1 S 0.16890(14) 0.67263(11) 0.13487(8)
O1 O -0.0964(4) 0.8018(3) 0.5624(2)
O2 O -0.1294(4) 0.9938(3) 0.6672(2)
O3 O -0.2415(4) 0.9201(3) 0.2340(3)
N1 N 0.6216(4) 0.5468(3) 0.1247(3)
H1 H 0.6641 0.6415 0.0684
N2 N 0.6448(5) 0.2761(4) 0.2602(3)
N3 N 0.4260(4) 0.3591(3) 0.2547(3)
H2 H 0.3130 0.3096 0.2989
C1 C 0.4083(5) 0.5249(4) 0.1733(3)
C2 C 0.7569(6) 0.3954(5) 0.1792(4)
H3 H 0.9124 0.3785 0.1609
C3 C -0.0652(5) 0.9420(3) 0.5665(3)
O4 O 0.2238(3) 0.4587(3) 0.5331(2)
C4 C 0.4311(5) 0.4276(4) 0.5450(3)
O5 O 0.5387(4) 0.2902(3) 0.6223(3)
H4 H -0.257(7) 1.023(2) 0.229(6)
H5 H -0.364(4) 0.887(5) 0.273(6)
O1A O 0.0964(4) 1.1982(3) 0.4376(2)
O2A O 0.1294(4) 1.0062(3) 0.3328(2)
C3A C 0.0652(5) 1.0580(3) 0.4335(3)
O4A O 0.7762(3) 0.5413(3) 0.4669(2)
C4A C 0.5689(5) 0.5724(4) 0.4550(3)
O5A O 0.4613(4) 0.7098(3) 0.3777(3)
Cd1A Cd -0.06101(3) 0.27303(2) 0.63056(2)
S1A S -0.16890(14) 0.32737(11) 0.86513(8)
O3A O 0.2415(4) 0.0799(3) 0.7660(3)
N1A N -0.6216(4) 0.4532(3) 0.8753(3)
H1A H -0.6641 0.3585 0.9316
N2A N -0.6448(5) 0.7239(4) 0.7398(3)
N3A N -0.4260(4) 0.6409(3) 0.7453(3)
H2A H -0.3130 0.6904 0.7011
C1A C -0.4083(5) 0.4751(4) 0.8267(3)
C2A C -0.7569(6) 0.6046(5) 0.8208(4)
H3A H -0.9124 0.6215 0.8391
H4A H 0.257(7) -0.023(2) 0.771(6)
H5A H 0.364(4) 0.113(5) 0.727(6)
Cd1_2 Cd 1.06101(3) 0.72697(2) 0.36944(2)
Cd1A_2 Cd -0.06101(3) 1.27303(2) 0.63056(2)
Cd1A_3 Cd 0.93899(3) 0.27303(2) 0.63056(2)
O1A_2 O 0.0964(4) 0.1982(3) 0.4376(2)
O2_2 O -0.1294(4) -0.0062(3) 0.6672(2)
O4A_2 O -0.2238(3) 0.5413(3) 0.4669(2)
O5_2 O -0.4613(4) 0.2902(3) 0.6223(3)
O6 O 0.2909(6) 0.1351(4) 0.0417(3)
H6 H 0.237(8) 0.089(6) 0.1253(18)
H7 H 0.270(12) 0.076(7) -0.004(5)
loop_
_geom_bond_atom_site_label_1
_geom_bond_atom_site_label_2
_geom_bond_site_symmetry_1
_geom_bond_site_symmetry_2
Cd1 S1 1_555 1_555
S1 C1 1_555 1_555
O1 Cd1 1_555 1_555
O2 C3 1_555 1_555
O3 Cd1 1_555 1_555
N1 H1 1_555 1_555
N2 N3 1_555 1_555
N3 H2 1_555 1_555
C1 N1 1_555 1_555
C2 N1 1_555 1_555
H3 C2 1_555 1_555
C3 O1 1_555 1_555
O4 Cd1 1_555 1_555
C4 O4 1_555 1_555
O5 C4 1_555 1_555
H4 O3 1_555 1_555
H5 O3 1_555 1_555
O6 H6 1_555 1_555
H7 O6 1_555 1_555
O1A C3A 1_555 1_555
O2A Cd1 1_555 1_555
C3A C3 1_555 1_555
O4A C4A 1_555 1_555
C4A C4 1_555 1_555
O5A Cd1 1_555 1_555
Cd1A O4 1_555 1_555
S1A Cd1A 1_555 1_555
O3A Cd1A 1_555 1_555
N1A H1A 1_555 1_555
N2A N3A 1_555 1_555
N3A H2A 1_555 1_555
C1A S1A 1_555 1_555
C2A N1A 1_555 1_555
H3A C2A 1_555 1_555
H4A O3A 1_555 1_555
H5A O3A 1_555 1_555
Cd1_2 O4A 1_555 1_555
Cd1A_2 O2 1_555 1_555
Cd1A_3 O5 1_555 1_555
O1A_2 Cd1A 1_555 1_555
O2_2 Cd1A 1_555 1_555
O4A_2 Cd1 1_555 1_555
O5_2 Cd1A 1_555 1_555
N2 C2 1_555 1_555
N3 C1 1_555 1_555
O1A Cd1A_2 1_555 1_555
O2A C3A 1_555 1_555
O4A Cd1A_3 1_555 1_555
C4A O5A 1_555 1_555
Cd1A O4A_2 1_555 1_555
N1A C1A 1_555 1_555
N2A C2A 1_555 1_555
N3A C1A 1_555 1_555

#END
