
#######################################################################
#
#                 Cambridge Crystallographic Data Centre
#                                CCDC 
#
#######################################################################
#
# If this CIF has been generated from an entry in the Cambridge 
# Structural Database, then it will include bibliographic, chemical, 
# crystal, experimental, refinement or atomic coordinate data resulting 
# from the CCDC's data processing and validation procedures.
#
#######################################################################

data_ZIVBUD
_symmetry_cell_setting           triclinic
_symmetry_space_group_name_H-M   'P -1'
_symmetry_Int_Tables_number      2
_space_group_name_Hall           '-P 1'
loop_
_symmetry_equiv_pos_site_id
_symmetry_equiv_pos_as_xyz
1 x,y,z
2 -x,-y,-z
_cell_length_a                   5.5882(5)
_cell_length_b                   9.3484(8)
_cell_length_c                   11.4594(10)
_cell_angle_alpha                75.325(4)
_cell_angle_beta                 81.698(4)
_cell_angle_gamma                81.177(5)
_cell_volume                     568.768
loop_
_atom_site_label
_atom_site_type_symbol
_atom_site_fract_x
_atom_site_fract_y
_atom_site_fract_z
Tb1 Tb 1.1186(8) 0.1924(5) -0.0046(4)
O1 O 0.770(5) 0.232(3) 0.119(2)
O2 O 0.948(2) 0.3846(13) -0.1344(19)
O3 O 0.5243(14) 0.5107(17) -0.1543(18)
O4 O 0.815(3) 0.6210(18) -0.0709(19)
O5 O 1.1009(16) -0.0787(15) 0.1160(17)
O6 O 1.422(2) 0.0605(10) 0.1438(19)
O7 O 1.5309(19) -0.1991(14) 0.1213(20)
P1 P 0.7956(13) 0.5374(7) -0.1695(3)
P2 P 1.3329(13) -0.0959(8) 0.1762(2)
C1 C 0.881(7) 0.6607(10) -0.3166(9)
C2 C 0.96400 0.57640 -0.40960
C3 C 0.78500 0.59040 -0.48180
C4 C 0.81800 0.51550 -0.57180
C5 C 1.243(6) -0.1808(12) 0.3358(8)
C6 C 1.12100 -0.08500 0.41840
C7 C 1.23700 -0.06360 0.50880
C8 C 1.11900 0.01840 0.58910
O2A O 1.052(2) 0.6154(13) -0.8656(19)
O3A O 1.4757(14) 0.4893(17) -0.8457(18)
O4A O 1.185(3) 0.3790(18) -0.9291(19)
P1A P 1.2044(13) 0.4626(7) -0.8305(3)
C1A C 1.119(7) 0.3393(10) -0.6834(9)
C2A C 1.03600 0.42360 -0.59040
C3A C 1.21500 0.40960 -0.51820
C4A C 1.18200 0.48450 -0.42820
O5A O 0.8991(16) 0.0787(15) 0.8840(17)
O6A O 0.578(2) -0.0605(10) 0.8562(19)
O7A O 0.4691(19) 0.1991(14) 0.8787(20)
P2A P 0.6671(13) 0.0959(8) 0.8238(2)
C5A C 0.757(6) 0.1808(12) 0.6642(8)
C6A C 0.87900 0.08500 0.58160
C7A C 0.76300 0.06360 0.49120
C8A C 0.88100 -0.01840 0.41090
Tb1A Tb 0.8814(8) -0.1924(5) 0.0046(4)
O1A O 1.230(5) -0.232(3) -0.119(2)
Tb1_2 Tb 0.1186(8) 0.1924(5) 0.9954(4)
Tb1_3 Tb 1.1186(8) 0.1924(5) -1.0046(4)
Tb1_4 Tb 1.1186(8) 0.1924(5) 0.9954(4)
Tb1A_2 Tb 0.8814(8) -0.1924(5) 1.0046(4)
Tb1A_3 Tb 0.8814(8) 0.8076(5) -0.9954(4)
Tb1A_4 Tb 0.8814(8) 0.8076(5) 0.0046(4)
Tb1A_5 Tb 1.8814(8) -0.1924(5) 0.0046(4)
O2A_2 O 1.052(2) -0.3846(13) 0.1344(19)
O4_2 O 0.815(3) -0.3790(18) -0.0709(19)
O4A_2 O 1.185(3) 0.3790(18) 0.0709(19)
O5A_2 O 0.8991(16) 0.0787(15) -0.1160(17)
O6A_2 O 0.578(2) -0.0605(10) -0.1438(19)
O7_2 O 0.5309(19) -0.1991(14) 0.1213(20)
O7A_2 O 1.4691(19) 0.1991(14) -0.1213(20)
loop_
_geom_bond_atom_site_label_1
_geom_bond_atom_site_label_2
_geom_bond_site_symmetry_1
_geom_bond_site_symmetry_2
Tb1 O1 1_555 1_555
O2 Tb1 1_555 1_555
O3 P1 1_555 1_555
O4 P1 1_555 1_555
O5 Tb1 1_555 1_555
O6 Tb1 1_555 1_555
O7 P2 1_555 1_555
P1 O2 1_555 1_555
P2 O5 1_555 1_555
C1 P1 1_555 1_555
C2 C1 1_555 1_555
C3 C2 1_555 1_555
C4 C3 1_555 1_555
C5 P2 1_555 1_555
C6 C5 1_555 1_555
C7 C6 1_555 1_555
C8 C7 1_555 1_555
O2A P1A 1_555 1_555
O3A P1A 1_555 1_555
O4A P1A 1_555 1_555
P1A C1A 1_555 1_555
C1A C2A 1_555 1_555
C2A C4 1_555 1_555
C3A C2A 1_555 1_555
C4A C2 1_555 1_555
O5A P2A 1_555 1_555
O6A P2A 1_555 1_555
O7A P2A 1_555 1_555
P2A C5A 1_555 1_555
C5A C6A 1_555 1_555
C6A C8 1_555 1_555
C7A C6A 1_555 1_555
C8A C6 1_555 1_555
Tb1A O5 1_555 1_555
O1A Tb1A 1_555 1_555
Tb1_2 O7A 1_555 1_555
Tb1_3 O4A 1_555 1_555
Tb1_4 O5A 1_555 1_555
Tb1A_2 O5A 1_555 1_555
Tb1A_3 O2A 1_555 1_555
Tb1A_4 O4 1_555 1_555
Tb1A_5 O7 1_555 1_555
O2A_2 Tb1A 1_555 1_555
O4_2 Tb1A 1_555 1_555
O4A_2 Tb1 1_555 1_555
O5A_2 Tb1 1_555 1_555
O6A_2 Tb1A 1_555 1_555
O7_2 Tb1A 1_555 1_555
O7A_2 Tb1 1_555 1_555
O6 P2 1_555 1_555
C3A C4A 1_555 1_555
O6A Tb1A_2 1_555 1_555
C7A C8A 1_555 1_555
Tb1A O5A_2 1_555 1_555

#END
