
#######################################################################
#
#                 Cambridge Crystallographic Data Centre
#                                CCDC 
#
#######################################################################
#
# If this CIF has been generated from an entry in the Cambridge 
# Structural Database, then it will include bibliographic, chemical, 
# crystal, experimental, refinement or atomic coordinate data resulting 
# from the CCDC's data processing and validation procedures.
#
#######################################################################

data_ZIVBEN
_symmetry_cell_setting           monoclinic
_symmetry_space_group_name_H-M   'P 21/c'
_symmetry_Int_Tables_number      14
_space_group_name_Hall           '-P 2ybc'
loop_
_symmetry_equiv_pos_site_id
_symmetry_equiv_pos_as_xyz
1 x,y,z
2 -x,1/2+y,1/2-z
3 -x,-y,-z
4 x,1/2-y,1/2+z
_cell_length_a                   7.0696(8)
_cell_length_b                   17.2872(16)
_cell_length_c                   6.6046(7)
_cell_angle_alpha                90
_cell_angle_beta                 115.198(10)
_cell_angle_gamma                90
_cell_volume                     730.363
loop_
_atom_site_label
_atom_site_type_symbol
_atom_site_fract_x
_atom_site_fract_y
_atom_site_fract_z
Cu1 Cu 0.16852(4) 0.271681(12) 0.06728(3)
Cl1 Cl 0.36545(8) 0.30907(3) 0.42540(7)
N1 N -0.0301(2) 0.18754(8) 0.0991(2)
N2 N 0.0013(2) 0.16009(8) 0.3033(2)
C1 C -0.1505(3) 0.14859(10) -0.0833(3)
H1 H -0.1740 0.1704 -0.2224
C2 C -0.2459(3) 0.07678(9) -0.0845(3)
C3 C -0.2049(3) 0.04779(10) 0.1263(3)
H2 H -0.2576 -0.0006 0.1425
C4 C -0.0841(3) 0.09196(10) 0.3128(3)
H3 H -0.0610 0.0727 0.4545
C5 C -0.4882(3) 0.08052(9) -0.4929(3)
H4 H -0.4810 0.1348 -0.4886
C6 C -0.3763(3) 0.03783(9) -0.2977(3)
C7 C -0.3907(3) -0.04332(9) -0.3076(3)
H5 H -0.3174 -0.0727 -0.1777
N1B N -0.9699(2) -0.18754(8) -1.0991(2)
N2B N -1.0013(2) -0.16009(8) -1.3033(2)
C1B C -0.8495(3) -0.14859(10) -0.9167(3)
H1B H -0.8260 -0.1704 -0.7776
C2B C -0.7541(3) -0.07678(9) -0.9155(3)
C3B C -0.7951(3) -0.04779(10) -1.1263(3)
H2B H -0.7424 0.0006 -1.1425
C4B C -0.9159(3) -0.09196(10) -1.3128(3)
H3B H -0.9390 -0.0727 -1.4545
C5B C -0.5118(3) -0.08052(9) -0.5071(3)
H4B H -0.5190 -0.1348 -0.5114
C6B C -0.6237(3) -0.03783(9) -0.7023(3)
C7B C -0.6093(3) 0.04332(9) -0.6924(3)
H5B H -0.6826 0.0727 -0.8223
Cu1B Cu -1.16852(4) -0.271681(12) -1.06728(3)
Cl1B Cl -1.36545(8) -0.30907(3) -1.42540(7)
Cu1A Cu -1.16852(4) -0.228319(12) -1.56728(3)
Cu1C Cu 0.16852(4) 0.228319(12) 0.56728(3)
Cl1A Cl -1.36545(8) -0.19093(3) -0.92540(7)
Cl1C Cl 0.36545(8) 0.19093(3) -0.07460(7)
N2A N -1.0013(2) -0.33991(8) -0.8033(2)
N2C N 0.0013(2) 0.33991(8) -0.1967(2)
loop_
_geom_bond_atom_site_label_1
_geom_bond_atom_site_label_2
_geom_bond_site_symmetry_1
_geom_bond_site_symmetry_2
Cu1 Cl1 1_555 1_555
Cl1 Cu1C 1_555 1_555
N1 Cu1 1_555 1_555
N2 N1 1_555 1_555
C1 N1 1_555 1_555
H1 C1 1_555 1_555
C2 C1 1_555 1_555
C3 C2 1_555 1_555
H2 C3 1_555 1_555
C4 N2 1_555 1_555
H3 C4 1_555 1_555
C5 H4 1_555 1_555
C6 C2 1_555 1_555
C7 C6 1_555 1_555
H5 C7 1_555 1_555
N1B N2B 1_555 1_555
N2B C4B 1_555 1_555
C1B N1B 1_555 1_555
H1B C1B 1_555 1_555
C2B C1B 1_555 1_555
C3B C2B 1_555 1_555
H2B C3B 1_555 1_555
C4B C3B 1_555 1_555
H3B C4B 1_555 1_555
C5B C7 1_555 1_555
H4B C5B 1_555 1_555
C6B C2B 1_555 1_555
C7B C5 1_555 1_555
H5B C7B 1_555 1_555
Cu1B N1B 1_555 1_555
Cl1B Cu1B 1_555 1_555
Cu1A N2B 1_555 1_555
Cu1C N2 1_555 1_555
Cl1A Cu1B 1_555 1_555
Cl1C Cu1 1_555 1_555
N2A Cu1B 1_555 1_555
N2C Cu1 1_555 1_555
C3 C4 1_555 1_555
C5 C6 1_555 1_555
C5B C6B 1_555 1_555
C6B C7B 1_555 1_555
Cl1B Cu1A 1_555 1_555

#END
