
#######################################################################
#
#                 Cambridge Crystallographic Data Centre
#                                CCDC 
#
#######################################################################
#
# If this CIF has been generated from an entry in the Cambridge 
# Structural Database, then it will include bibliographic, chemical, 
# crystal, experimental, refinement or atomic coordinate data resulting 
# from the CCDC's data processing and validation procedures.
#
#######################################################################

data_ZIVCAK
_symmetry_cell_setting           triclinic
_symmetry_space_group_name_H-M   'P -1'
_symmetry_Int_Tables_number      2
_space_group_name_Hall           '-P 1'
loop_
_symmetry_equiv_pos_site_id
_symmetry_equiv_pos_as_xyz
1 x,y,z
2 -x,-y,-z
_cell_length_a                   5.6010(4)
_cell_length_b                   9.3849(7)
_cell_length_c                   11.4837(8)
_cell_angle_alpha                75.205(4)
_cell_angle_beta                 81.625(4)
_cell_angle_gamma                81.120(4)
_cell_volume                     573.053
loop_
_atom_site_label
_atom_site_type_symbol
_atom_site_fract_x
_atom_site_fract_y
_atom_site_fract_z
Gd1 Gd 1.1205(8) 0.1937(5) -0.0043(4)
O1 O 0.767(5) 0.231(3) 0.126(3)
O2 O 0.952(2) 0.3872(12) -0.1329(19)
O3 O 0.5295(14) 0.5104(16) -0.1607(18)
O4 O 0.811(3) 0.6315(17) -0.084(2)
O5 O 1.0931(15) -0.0816(15) 0.1245(17)
O6 O 1.418(2) 0.0578(10) 0.1420(19)
O7 O 1.5262(18) -0.2001(14) 0.1193(20)
P1 P 0.7986(13) 0.5361(7) -0.1730(4)
P2 P 1.3323(13) -0.0997(8) 0.1766(2)
C1 C 0.891(7) 0.6616(11) -0.3176(9)
C2 C 0.96400 0.57640 -0.40960
C3 C 0.78500 0.59040 -0.48180
C4 C 0.81800 0.51550 -0.57180
C5 C 1.239(6) -0.1815(12) 0.3362(8)
C6 C 1.12100 -0.08500 0.41840
C7 C 1.23700 -0.06360 0.50880
C8 C 1.11900 0.01840 0.58910
O2A O 1.048(2) 0.6128(12) -0.8671(19)
O3A O 1.4705(14) 0.4896(16) -0.8393(18)
O4A O 1.189(3) 0.3685(17) -0.916(2)
P1A P 1.2014(13) 0.4639(7) -0.8270(4)
C1A C 1.109(7) 0.3384(11) -0.6824(9)
C2A C 1.03600 0.42360 -0.59040
C3A C 1.21500 0.40960 -0.51820
C4A C 1.18200 0.48450 -0.42820
O5A O 0.9069(15) 0.0816(15) 0.8755(17)
O6A O 0.582(2) -0.0578(10) 0.8580(19)
O7A O 0.4738(18) 0.2001(14) 0.8807(20)
P2A P 0.6677(13) 0.0997(8) 0.8234(2)
C5A C 0.761(6) 0.1815(12) 0.6638(8)
C6A C 0.87900 0.08500 0.58160
C7A C 0.76300 0.06360 0.49120
C8A C 0.88100 -0.01840 0.41090
Gd1A Gd 0.8795(8) -0.1937(5) 0.0043(4)
O1A O 1.233(5) -0.231(3) -0.126(3)
Gd1_2 Gd 0.1205(8) 0.1937(5) 0.9957(4)
Gd1_3 Gd 1.1205(8) 0.1937(5) -1.0043(4)
Gd1_4 Gd 1.1205(8) 0.1937(5) 0.9957(4)
Gd1A_2 Gd 0.8795(8) -0.1937(5) 1.0043(4)
Gd1A_3 Gd 0.8795(8) 0.8063(5) -0.9957(4)
Gd1A_4 Gd 0.8795(8) 0.8063(5) 0.0043(4)
Gd1A_5 Gd 1.8795(8) -0.1937(5) 0.0043(4)
O2A_2 O 1.048(2) -0.3872(12) 0.1329(19)
O4_2 O 0.811(3) -0.3685(17) -0.084(2)
O4A_2 O 1.189(3) 0.3685(17) 0.084(2)
O5A_2 O 0.9069(15) 0.0816(15) -0.1245(17)
O6A_2 O 0.582(2) -0.0578(10) -0.1420(19)
O7_2 O 0.5262(18) -0.2001(14) 0.1193(20)
O7A_2 O 1.4738(18) 0.2001(14) -0.1193(20)
loop_
_geom_bond_atom_site_label_1
_geom_bond_atom_site_label_2
_geom_bond_site_symmetry_1
_geom_bond_site_symmetry_2
Gd1 O1 1_555 1_555
O2 Gd1 1_555 1_555
O3 P1 1_555 1_555
O4 P1 1_555 1_555
O5 Gd1 1_555 1_555
O6 Gd1 1_555 1_555
O7 P2 1_555 1_555
P1 O2 1_555 1_555
P2 O5 1_555 1_555
C1 P1 1_555 1_555
C2 C1 1_555 1_555
C3 C2 1_555 1_555
C4 C3 1_555 1_555
C5 P2 1_555 1_555
C6 C5 1_555 1_555
C7 C6 1_555 1_555
C8 C7 1_555 1_555
O2A P1A 1_555 1_555
O3A P1A 1_555 1_555
O4A P1A 1_555 1_555
P1A C1A 1_555 1_555
C1A C2A 1_555 1_555
C2A C4 1_555 1_555
C3A C2A 1_555 1_555
C4A C2 1_555 1_555
O5A P2A 1_555 1_555
O6A P2A 1_555 1_555
O7A P2A 1_555 1_555
P2A C5A 1_555 1_555
C5A C6A 1_555 1_555
C6A C8 1_555 1_555
C7A C6A 1_555 1_555
C8A C6 1_555 1_555
Gd1A O5 1_555 1_555
O1A Gd1A 1_555 1_555
Gd1_2 O7A 1_555 1_555
Gd1_3 O4A 1_555 1_555
Gd1_4 O5A 1_555 1_555
Gd1A_2 O5A 1_555 1_555
Gd1A_3 O2A 1_555 1_555
Gd1A_4 O4 1_555 1_555
Gd1A_5 O7 1_555 1_555
O2A_2 Gd1A 1_555 1_555
O4_2 Gd1A 1_555 1_555
O4A_2 Gd1 1_555 1_555
O5A_2 Gd1 1_555 1_555
O6A_2 Gd1A 1_555 1_555
O7_2 Gd1A 1_555 1_555
O7A_2 Gd1 1_555 1_555
O6 P2 1_555 1_555
C3A C4A 1_555 1_555
O6A Gd1A_2 1_555 1_555
C7A C8A 1_555 1_555
Gd1A O5A_2 1_555 1_555

#END
