
#######################################################################
#
#                 Cambridge Crystallographic Data Centre
#                                CCDC 
#
#######################################################################
#
# If this CIF has been generated from an entry in the Cambridge 
# Structural Database, then it will include bibliographic, chemical, 
# crystal, experimental, refinement or atomic coordinate data resulting 
# from the CCDC's data processing and validation procedures.
#
#######################################################################

data_ZIVCEO
_symmetry_cell_setting           triclinic
_symmetry_space_group_name_H-M   'P -1'
_symmetry_Int_Tables_number      2
_space_group_name_Hall           '-P 1'
loop_
_symmetry_equiv_pos_site_id
_symmetry_equiv_pos_as_xyz
1 x,y,z
2 -x,-y,-z
_cell_length_a                   5.6110(4)
_cell_length_b                   9.3974(6)
_cell_length_c                   11.4933(8)
_cell_angle_alpha                75.069(3)
_cell_angle_beta                 81.651(3)
_cell_angle_gamma                80.964(4)
_cell_volume                     574.806
loop_
_atom_site_label
_atom_site_type_symbol
_atom_site_fract_x
_atom_site_fract_y
_atom_site_fract_z
Eu1 Eu 1.1232(7) 0.1928(4) -0.0051(4)
O1 O 0.756(5) 0.229(3) 0.125(2)
O2 O 0.956(2) 0.3896(11) -0.1296(19)
O3 O 0.5332(14) 0.5143(15) -0.1583(17)
O4 O 0.822(3) 0.6421(16) -0.0950(20)
O5 O 1.0915(15) -0.0779(15) 0.1232(17)
O6 O 1.423(2) 0.0523(10) 0.1457(18)
O7 O 1.5190(19) -0.2052(14) 0.1210(19)
P1 P 0.8027(13) 0.5353(6) -0.1729(3)
P2 P 1.3292(13) -0.1020(8) 0.1758(2)
C1 C 0.893(6) 0.6613(10) -0.3175(9)
C2 C 0.96400 0.57640 -0.40960
C3 C 0.78500 0.59040 -0.48180
C4 C 0.81800 0.51550 -0.57180
C5 C 1.232(6) -0.1815(11) 0.3353(8)
C6 C 1.12100 -0.08500 0.41840
C7 C 1.23700 -0.06360 0.50880
C8 C 1.11900 0.01840 0.58910
O2A O 1.044(2) 0.6104(11) -0.8704(19)
O3A O 1.4668(14) 0.4857(15) -0.8417(17)
O4A O 1.178(3) 0.3579(16) -0.9050(20)
P1A P 1.1973(13) 0.4647(6) -0.8271(3)
C1A C 1.107(6) 0.3387(10) -0.6825(9)
C2A C 1.03600 0.42360 -0.59040
C3A C 1.21500 0.40960 -0.51820
C4A C 1.18200 0.48450 -0.42820
O5A O 0.9085(15) 0.0779(15) 0.8768(17)
O6A O 0.577(2) -0.0523(10) 0.8543(18)
O7A O 0.4810(19) 0.2052(14) 0.8790(19)
P2A P 0.6708(13) 0.1020(8) 0.8242(2)
C5A C 0.768(6) 0.1815(11) 0.6647(8)
C6A C 0.87900 0.08500 0.58160
C7A C 0.76300 0.06360 0.49120
C8A C 0.88100 -0.01840 0.41090
Eu1A Eu 0.8768(7) -0.1928(4) 0.0051(4)
O1A O 1.244(5) -0.229(3) -0.125(2)
Eu1_2 Eu 0.1232(7) 0.1928(4) 0.9949(4)
Eu1_3 Eu 1.1232(7) 0.1928(4) -1.0051(4)
Eu1_4 Eu 1.1232(7) 0.1928(4) 0.9949(4)
Eu1A_2 Eu 0.8768(7) -0.1928(4) 1.0051(4)
Eu1A_3 Eu 0.8768(7) 0.8072(4) -0.9949(4)
Eu1A_4 Eu 0.8768(7) 0.8072(4) 0.0051(4)
Eu1A_5 Eu 1.8768(7) -0.1928(4) 0.0051(4)
O2A_2 O 1.044(2) -0.3896(11) 0.1296(19)
O4_2 O 0.822(3) -0.3579(16) -0.0950(20)
O4A_2 O 1.178(3) 0.3579(16) 0.0950(20)
O5A_2 O 0.9085(15) 0.0779(15) -0.1232(17)
O6A_2 O 0.577(2) -0.0523(10) -0.1457(18)
O7_2 O 0.5190(19) -0.2052(14) 0.1210(19)
O7A_2 O 1.4810(19) 0.2052(14) -0.1210(19)
loop_
_geom_bond_atom_site_label_1
_geom_bond_atom_site_label_2
_geom_bond_site_symmetry_1
_geom_bond_site_symmetry_2
Eu1 O1 1_555 1_555
O2 Eu1 1_555 1_555
O3 P1 1_555 1_555
O4 P1 1_555 1_555
O5 Eu1 1_555 1_555
O6 Eu1 1_555 1_555
O7 P2 1_555 1_555
P1 O2 1_555 1_555
P2 O5 1_555 1_555
C1 P1 1_555 1_555
C2 C1 1_555 1_555
C3 C2 1_555 1_555
C4 C3 1_555 1_555
C5 P2 1_555 1_555
C6 C5 1_555 1_555
C7 C6 1_555 1_555
C8 C7 1_555 1_555
O2A P1A 1_555 1_555
O3A P1A 1_555 1_555
O4A P1A 1_555 1_555
P1A C1A 1_555 1_555
C1A C2A 1_555 1_555
C2A C4 1_555 1_555
C3A C2A 1_555 1_555
C4A C2 1_555 1_555
O5A P2A 1_555 1_555
O6A P2A 1_555 1_555
O7A P2A 1_555 1_555
P2A C5A 1_555 1_555
C5A C6A 1_555 1_555
C6A C8 1_555 1_555
C7A C6A 1_555 1_555
C8A C6 1_555 1_555
Eu1A O5 1_555 1_555
O1A Eu1A 1_555 1_555
Eu1_2 O7A 1_555 1_555
Eu1_3 O4A 1_555 1_555
Eu1_4 O5A 1_555 1_555
Eu1A_2 O5A 1_555 1_555
Eu1A_3 O2A 1_555 1_555
Eu1A_4 O4 1_555 1_555
Eu1A_5 O7 1_555 1_555
O2A_2 Eu1A 1_555 1_555
O4_2 Eu1A 1_555 1_555
O4A_2 Eu1 1_555 1_555
O5A_2 Eu1 1_555 1_555
O6A_2 Eu1A 1_555 1_555
O7_2 Eu1A 1_555 1_555
O7A_2 Eu1 1_555 1_555
O6 P2 1_555 1_555
C3A C4A 1_555 1_555
O6A Eu1A_2 1_555 1_555
C7A C8A 1_555 1_555
Eu1A O5A_2 1_555 1_555

#END
