
#######################################################################
#
#                 Cambridge Crystallographic Data Centre
#                                CCDC 
#
#######################################################################
#
# If this CIF has been generated from an entry in the Cambridge 
# Structural Database, then it will include bibliographic, chemical, 
# crystal, experimental, refinement or atomic coordinate data resulting 
# from the CCDC's data processing and validation procedures.
#
#######################################################################

data_ZIVDIT
_symmetry_cell_setting           monoclinic
_symmetry_space_group_name_H-M   'P 21/c'
_symmetry_Int_Tables_number      14
_space_group_name_Hall           '-P 2ybc'
loop_
_symmetry_equiv_pos_site_id
_symmetry_equiv_pos_as_xyz
1 x,y,z
2 -x,1/2+y,1/2-z
3 -x,-y,-z
4 x,1/2-y,1/2+z
_cell_length_a                   3.5974(3)
_cell_length_b                   17.2471(11)
_cell_length_c                   13.6263(8)
_cell_angle_alpha                90
_cell_angle_beta                 90.579(6)
_cell_angle_gamma                90
_cell_volume                     845.397
loop_
_atom_site_label
_atom_site_type_symbol
_atom_site_fract_x
_atom_site_fract_y
_atom_site_fract_z
C1 C 0.302(2) 0.3401(4) 0.3432(5)
C2 C 0.419(2) 0.2741(4) 0.2809(5)
C3 C 0.556(2) 0.2866(4) 0.1877(6)
H1 H 0.5801 0.3368 0.1636
C4 C 0.656(2) 0.2245(4) 0.1312(5)
H2 H 0.7338 0.2335 0.0673
C5 C 0.523(2) 0.1397(5) 0.2559(6)
H3 H 0.5153 0.0893 0.2798
C6 C 0.405(2) 0.1991(4) 0.3166(6)
H4 H 0.3203 0.1888 0.3795
Cu1 Cu 0.1684(3) 0.56410(5) 0.41556(7)
N1 N 0.199(2) 0.4532(4) 0.3938(4)
N2 N 0.334(2) 0.4146(4) 0.3176(4)
N3 N 0.152(2) 0.3301(4) 0.4310(5)
N4 N 0.0882(19) 0.4027(4) 0.4619(4)
N5 N 0.647(2) 0.1509(4) 0.1642(5)
Cu1A Cu 0.8316(3) 0.06410(5) 0.08444(7)
Cu1B Cu -0.1684(3) 0.43590(5) 0.58444(7)
N4B N -0.0882(19) 0.5973(4) 0.5381(4)
N5A N 0.353(2) 0.6509(4) 0.3358(5)
loop_
_geom_bond_atom_site_label_1
_geom_bond_atom_site_label_2
_geom_bond_site_symmetry_1
_geom_bond_site_symmetry_2
C1 C2 1_555 1_555
C2 C3 1_555 1_555
C3 H1 1_555 1_555
C4 C3 1_555 1_555
H2 C4 1_555 1_555
C5 H3 1_555 1_555
C6 C2 1_555 1_555
H4 C6 1_555 1_555
Cu1 N1 1_555 1_555
N1 N2 1_555 1_555
N2 C1 1_555 1_555
N3 C1 1_555 1_555
N4 N1 1_555 1_555
N5 C4 1_555 1_555
Cu1A N5 1_555 1_555
Cu1B N4 1_555 1_555
N4B Cu1 1_555 1_555
N5A Cu1 1_555 1_555
C5 C6 1_555 1_555
C5 N5 1_555 1_555
N3 N4 1_555 1_555

#END
