
#######################################################################
#
#                 Cambridge Crystallographic Data Centre
#                                CCDC 
#
#######################################################################
#
# If this CIF has been generated from an entry in the Cambridge 
# Structural Database, then it will include bibliographic, chemical, 
# crystal, experimental, refinement or atomic coordinate data resulting 
# from the CCDC's data processing and validation procedures.
#
#######################################################################

data_ZIVFIV
_symmetry_cell_setting           triclinic
_symmetry_space_group_name_H-M   'P -1'
_symmetry_Int_Tables_number      2
_space_group_name_Hall           '-P 1'
loop_
_symmetry_equiv_pos_site_id
_symmetry_equiv_pos_as_xyz
1 x,y,z
2 -x,-y,-z
_cell_length_a                   7.1544(6)
_cell_length_b                   15.3457(11)
_cell_length_c                   16.4009(13)
_cell_angle_alpha                93.540(6)
_cell_angle_beta                 102.074(7)
_cell_angle_gamma                95.765(6)
_cell_volume                     1745.55
loop_
_atom_site_label
_atom_site_type_symbol
_atom_site_fract_x
_atom_site_fract_y
_atom_site_fract_z
Cu1 Cu 0.58539(14) 0.64370(7) 0.20469(6)
Cu2 Cu 0.88804(14) 0.78522(7) 0.34585(6)
Cu3 Cu 0.75039(15) 1.13908(7) -0.15521(6)
Cu4 Cu 0.73888(14) 0.28624(7) 0.70349(5)
N1 N 0.6267(9) 0.7970(4) 0.1029(4)
N2 N -0.1061(9) 0.3147(5) -0.1837(4)
N3 N -0.1079(8) 0.2586(4) -0.1255(4)
N4 N 0.6678(8) 0.7614(4) 0.1768(4)
N5 N 1.5884(9) 1.1712(4) 0.6753(4)
N6 N 1.6043(8) 1.1097(4) 0.7294(4)
N7 N 0.7951(9) 0.8165(4) 0.2307(4)
N8 N 0.6807(9) 0.6104(4) 0.3173(4)
N9 N 0.7907(9) 0.6693(4) 0.3751(4)
N10 N 1.4998(9) 1.0334(4) 0.6940(4)
N11 N 0.6458(9) 0.5350(5) 0.3511(4)
N12 N 0.4205(8) 0.5584(4) 0.1173(4)
N13 N 1.0670(9) 0.8687(4) 0.4289(4)
C1 C 0.7370(11) 0.9340(5) 0.0517(5)
C2 C 0.7379(10) 0.4870(5) 0.4938(5)
C3 C 0.8318(12) 0.4498(6) 0.6347(5)
H1 H 0.8982 0.4658 0.6895
N14 N 0.0014(9) 0.2919(5) -0.0514(4)
N15 N 0.8418(9) 0.8899(4) 0.1948(4)
N16 N 1.4716(8) 1.1367(4) 0.6032(4)
C4 C 0.1940(10) 0.4360(5) -0.0056(5)
N17 N 0.7459(9) 1.0535(4) -0.0700(4)
C5 C 1.3003(10) 0.9906(5) 0.5525(5)
N18 N 0.0077(9) 0.3884(4) -0.1485(4)
C6 C 1.1314(10) 0.8446(5) 0.5080(4)
H2 H 1.0966 0.7877 0.5204
C7 C 0.3605(10) 0.5793(6) 0.0398(5)
H3 H 0.3962 0.6360 0.0272
N19 N 0.7383(8) 0.3681(4) 0.6162(4)
C8 C 0.8330(11) 1.0198(5) 0.0721(5)
H4 H 0.8945 1.0378 0.1272
C9 C 0.6476(11) 0.9127(5) -0.0300(5)
H5 H 0.5819 0.8569 -0.0465
C10 C 0.7320(10) 0.8740(5) 0.1159(4)
C11 C 0.8363(11) 1.0770(6) 0.0109(5)
H6 H 0.9019 1.1331 0.0253
C12 C 0.0680(10) 0.3737(5) -0.0685(5)
C13 C 0.7365(11) 0.5510(5) 0.4307(5)
C14 C 1.2505(10) 0.9049(6) 0.5712(5)
H7 H 1.2949 0.8876 0.6245
C15 C 0.2577(10) 0.4147(5) 0.0769(5)
H8 H 0.2243 0.3585 0.0914
C16 C 1.4231(9) 1.0543(5) 0.6159(4)
C17 C 0.6461(11) 0.3469(5) 0.5368(5)
H9 H 0.5804 0.2908 0.5226
C18 C 0.8342(11) 0.5106(6) 0.5769(5)
H10 H 0.8991 0.5667 0.5927
C19 C 1.2350(11) 1.0117(5) 0.4724(5)
H11 H 1.2676 1.0678 0.4575
C20 C 0.6537(10) 0.9735(6) -0.0887(5)
H12 H 0.5899 0.9572 -0.1438
C21 C 0.3681(11) 0.4756(6) 0.1359(5)
H13 H 0.4086 0.4602 0.1901
C22 C 0.2486(10) 0.5216(5) -0.0226(5)
H14 H 0.2091 0.5395 -0.0760
C23 C 0.6427(11) 0.4035(6) 0.4748(5)
H15 H 0.5765 0.3854 0.4203
C24 C 1.1202(11) 0.9493(5) 0.4136(5)
H16 H 1.0780 0.9656 0.3597
N20 N 0.8280(9) 0.6342(5) 0.4486(4)
Cu3_2 Cu -0.24961(15) 0.13908(7) -0.15521(6)
Cu3_3 Cu 1.75039(15) 1.13908(7) 0.84479(6)
Cu4_2 Cu -0.26112(14) 0.28624(7) -0.29651(5)
Cu4_3 Cu 1.73888(14) 1.28624(7) 0.70349(5)
N2_2 N 0.8939(9) 0.3147(5) 0.8163(4)
N3_2 N 0.8921(8) 1.2586(4) -0.1255(4)
N5_2 N 0.5884(9) 0.1712(4) 0.6753(4)
N6_2 N 0.6043(8) 1.1097(4) -0.2706(4)
loop_
_geom_bond_atom_site_label_1
_geom_bond_atom_site_label_2
_geom_bond_site_symmetry_1
_geom_bond_site_symmetry_2
Cu1 N4 1_555 1_555
Cu2 N7 1_555 1_555
Cu3 N17 1_555 1_555
Cu4 N19 1_555 1_555
N1 N4 1_555 1_555
N2 N3 1_555 1_555
N3 N14 1_555 1_555
N4 N7 1_555 1_555
N5 N6 1_555 1_555
N6 N10 1_555 1_555
N7 N15 1_555 1_555
N8 Cu1 1_555 1_555
N9 Cu2 1_555 1_555
N10 C16 1_555 1_555
N11 N8 1_555 1_555
N12 Cu1 1_555 1_555
N13 Cu2 1_555 1_555
C1 C8 1_555 1_555
C2 C13 1_555 1_555
C3 H1 1_555 1_555
N14 C12 1_555 1_555
N15 C10 1_555 1_555
N16 N5 1_555 1_555
C4 C12 1_555 1_555
N17 C11 1_555 1_555
C5 C14 1_555 1_555
N18 N2 1_555 1_555
C6 N13 1_555 1_555
H2 C6 1_555 1_555
C7 N12 1_555 1_555
H3 C7 1_555 1_555
N19 C3 1_555 1_555
C8 H4 1_555 1_555
C9 C1 1_555 1_555
H5 C9 1_555 1_555
C10 N1 1_555 1_555
C11 C8 1_555 1_555
H6 C11 1_555 1_555
C12 N18 1_555 1_555
C13 N11 1_555 1_555
C14 C6 1_555 1_555
H7 C14 1_555 1_555
C15 C4 1_555 1_555
H8 C15 1_555 1_555
C16 N16 1_555 1_555
C17 N19 1_555 1_555
H9 C17 1_555 1_555
C18 C2 1_555 1_555
H10 C18 1_555 1_555
C19 C5 1_555 1_555
H11 C19 1_555 1_555
C20 N17 1_555 1_555
H12 C20 1_555 1_555
C21 N12 1_555 1_555
H13 C21 1_555 1_555
C22 C4 1_555 1_555
H14 C22 1_555 1_555
C23 C2 1_555 1_555
H15 C23 1_555 1_555
C24 N13 1_555 1_555
H16 C24 1_555 1_555
N20 N9 1_555 1_555
Cu3_2 N3 1_555 1_555
Cu3_3 N6 1_555 1_555
Cu4_2 N2 1_555 1_555
Cu4_3 N5 1_555 1_555
N2_2 Cu4 1_555 1_555
N3_2 Cu3 1_555 1_555
N5_2 Cu4 1_555 1_555
N6_2 Cu3 1_555 1_555
N8 N9 1_555 1_555
C1 C10 1_555 1_555
C3 C18 1_555 1_555
C5 C16 1_555 1_555
C7 C22 1_555 1_555
C9 C20 1_555 1_555
C13 N20 1_555 1_555
C15 C21 1_555 1_555
C17 C23 1_555 1_555
C19 C24 1_555 1_555

#END
