
#######################################################################
#
#                 Cambridge Crystallographic Data Centre
#                                CCDC 
#
#######################################################################
#
# If this CIF has been generated from an entry in the Cambridge 
# Structural Database, then it will include bibliographic, chemical, 
# crystal, experimental, refinement or atomic coordinate data resulting 
# from the CCDC's data processing and validation procedures.
#
#######################################################################

data_ZIVJIZ
_symmetry_cell_setting           monoclinic
_symmetry_space_group_name_H-M   'P 21/n'
_symmetry_Int_Tables_number      14
_space_group_name_Hall           '-P 2yn'
loop_
_symmetry_equiv_pos_site_id
_symmetry_equiv_pos_as_xyz
1 x,y,z
2 1/2-x,1/2+y,1/2-z
3 -x,-y,-z
4 1/2+x,1/2-y,1/2+z
_cell_length_a                   9.1809(4)
_cell_length_b                   29.8038(13)
_cell_length_c                   12.7247(6)
_cell_angle_alpha                90
_cell_angle_beta                 90.2510(10)
_cell_angle_gamma                90
_cell_volume                     3481.77
loop_
_atom_site_label
_atom_site_type_symbol
_atom_site_fract_x
_atom_site_fract_y
_atom_site_fract_z
I1 I 0.26379(2) 0.140805(8) 0.998620(18)
I2 I 0.38265(3) 0.115291(8) 0.505759(19)
Cu1 Cu 0.58191(5) 0.134193(14) 1.00788(3)
Cu2 Cu 0.65924(5) 0.118585(14) 0.50501(3)
N1 N 0.6241(5) 0.24011(12) 1.2127(3)
N2 N 0.7677(4) 0.22451(11) 1.0755(3)
N3 N 0.6151(3) 0.16693(10) 1.1357(2)
N4 N 0.6056(3) 0.09659(10) 0.8871(2)
N5 N 0.7316(3) 0.03629(10) 0.9670(2)
N6 N 0.5757(3) 0.01971(10) 0.8357(2)
N7 N 0.7740(3) 0.10094(10) 0.6348(2)
N8 N 0.9737(3) 0.05842(11) 0.7075(2)
N9 N 0.8310(3) 0.02789(10) 0.5822(2)
N10 N 0.7782(3) 0.13730(9) 1.3811(2)
N11 N 0.9961(3) 0.17390(12) 1.3208(2)
N12 N 0.8669(3) 0.20461(11) 1.4529(2)
C1 C 0.4698(7) 0.2443(2) 1.2431(4)
H1 H 0.4084 0.2291 1.1909
H2 H 0.4432 0.2761 1.2466
H3 H 0.4554 0.2304 1.3121
C2 C 0.6971(8) 0.28197(15) 1.1857(4)
H4 H 0.7288 0.2984 1.2493
H5 H 0.6333 0.3016 1.1427
C3 C 0.8255(7) 0.26543(16) 1.1233(4)
H6 H 0.8548 0.2875 1.0693
H7 H 0.9099 0.2589 1.1695
C4 C 0.8718(5) 0.19472(15) 1.0245(4)
H8 H 0.9287 0.1788 1.0781
H9 H 0.9374 0.2124 0.9803
H10 H 0.8193 0.1729 0.9809
C5 C 0.6640(4) 0.20742(12) 1.1418(3)
C6 C 0.8535(4) 0.06341(13) 1.0031(3)
H11 H 0.9227 0.0675 0.9454
H12 H 0.9023 0.0483 1.0618
H13 H 0.8178 0.0928 1.0263
C7 C 0.7676(4) -0.00940(12) 0.9336(3)
H14 H 0.7864 -0.0292 0.9947
H15 H 0.8535 -0.0097 0.8869
C8 C 0.6317(4) -0.02322(12) 0.8755(3)
H16 H 0.6545 -0.0440 0.8172
H17 H 0.5611 -0.0377 0.9232
C9 C 0.4213(4) 0.02086(14) 0.8055(3)
H18 H 0.3784 0.0494 0.8279
H19 H 0.3699 -0.0040 0.8395
H20 H 0.4125 0.0180 0.7291
C10 C 0.6340(4) 0.05418(11) 0.8944(2)
C11 C 0.5405(4) 0.11405(12) 0.7885(2)
H21 H 0.4405 0.1250 0.8019
H22 H 0.5349 0.0898 0.7354
C12 C 0.6344(4) 0.15212(11) 0.7477(3)
H23 H 0.6442 0.1753 0.8030
H24 H 0.5859 0.1661 0.6862
C13 C 0.7852(4) 0.13595(12) 0.7160(3)
H25 H 0.8425 0.1615 0.6887
H26 H 0.8366 0.1238 0.7783
C14 C 1.0830(5) 0.09421(18) 0.7241(4)
H27 H 1.0511 0.1216 0.6881
H28 H 1.1769 0.0846 0.6956
H29 H 1.0933 0.1002 0.7995
C15 C 1.0345(5) 0.01421(16) 0.6834(3)
H30 H 1.0650 -0.0016 0.7483
H31 H 1.1189 0.0167 0.6356
C16 C 0.9086(5) -0.00937(14) 0.6307(3)
H32 H 0.9428 -0.0311 0.5774
H33 H 0.8469 -0.0252 0.6826
C17 C 0.6854(5) 0.01818(13) 0.5436(3)
H34 H 0.6165 0.0191 0.6021
H35 H 0.6839 -0.0117 0.5115
H36 H 0.6575 0.0406 0.4909
C18 C 0.8548(4) 0.06580(12) 0.6415(3)
C19 C 1.0847(5) 0.13511(17) 1.2899(4)
H37 H 1.0425 0.1077 1.3193
H38 H 1.1843 0.1389 1.3165
H39 H 1.0865 0.1329 1.2130
C20 C 1.0771(5) 0.21325(16) 1.3565(4)
H40 H 1.1165 0.2303 1.2962
H41 H 1.1585 0.2046 1.4036
C21 C 0.9642(5) 0.24015(15) 1.4146(3)
H42 H 1.0081 0.2572 1.4734
H43 H 0.9123 0.2611 1.3671
C22 C 0.7252(4) 0.22018(12) 1.4888(3)
H44 H 0.6695 0.2319 1.4289
H45 H 0.7386 0.2440 1.5411
H46 H 0.6721 0.1951 1.5205
C23 C 0.8750(4) 0.16877(12) 1.3830(3)
C24 C 0.5420(4) 0.14666(14) 1.2271(3)
H47 H 0.4376 0.1417 1.2110
H48 H 0.5491 0.1671 1.2884
C25 C 0.6147(4) 0.10238(13) 1.2524(3)
H49 H 0.5589 0.0870 1.3083
H50 H 0.6124 0.0831 1.1891
C26 C 0.7703(4) 0.10782(12) 1.2882(3)
H51 H 0.8117 0.0781 1.3058
H52 H 0.8288 0.1209 1.2306
Cu2_2 Cu 0.65924(5) 0.118585(14) 1.50501(3)
N10_2 N 0.7782(3) 0.13730(9) 0.3811(2)
loop_
_geom_bond_atom_site_label_1
_geom_bond_atom_site_label_2
_geom_bond_site_symmetry_1
_geom_bond_site_symmetry_2
I1 Cu1 1_555 1_555
I2 Cu2 1_555 1_555
Cu1 N3 1_555 1_555
Cu2 N7 1_555 1_555
N1 C1 1_555 1_555
N2 C3 1_555 1_555
N3 C5 1_555 1_555
N4 Cu1 1_555 1_555
N5 C6 1_555 1_555
N6 C8 1_555 1_555
N7 C13 1_555 1_555
N8 C14 1_555 1_555
N9 C16 1_555 1_555
N10 C23 1_555 1_555
N11 C19 1_555 1_555
N12 C21 1_555 1_555
C1 H1 1_555 1_555
H2 C1 1_555 1_555
H3 C1 1_555 1_555
C2 N1 1_555 1_555
H4 C2 1_555 1_555
H5 C2 1_555 1_555
C3 C2 1_555 1_555
H6 C3 1_555 1_555
H7 C3 1_555 1_555
C4 N2 1_555 1_555
H8 C4 1_555 1_555
H9 C4 1_555 1_555
H10 C4 1_555 1_555
C5 N1 1_555 1_555
C6 H11 1_555 1_555
H12 C6 1_555 1_555
H13 C6 1_555 1_555
C7 N5 1_555 1_555
H14 C7 1_555 1_555
H15 C7 1_555 1_555
C8 C7 1_555 1_555
H16 C8 1_555 1_555
H17 C8 1_555 1_555
C9 N6 1_555 1_555
H18 C9 1_555 1_555
H19 C9 1_555 1_555
H20 C9 1_555 1_555
C10 N4 1_555 1_555
C11 N4 1_555 1_555
H21 C11 1_555 1_555
H22 C11 1_555 1_555
C12 C11 1_555 1_555
H23 C12 1_555 1_555
H24 C12 1_555 1_555
C13 C12 1_555 1_555
H25 C13 1_555 1_555
H26 C13 1_555 1_555
C14 H27 1_555 1_555
H28 C14 1_555 1_555
H29 C14 1_555 1_555
C15 N8 1_555 1_555
H30 C15 1_555 1_555
H31 C15 1_555 1_555
C16 C15 1_555 1_555
H32 C16 1_555 1_555
H33 C16 1_555 1_555
C17 N9 1_555 1_555
H34 C17 1_555 1_555
H35 C17 1_555 1_555
H36 C17 1_555 1_555
C18 N7 1_555 1_555
C19 H37 1_555 1_555
H38 C19 1_555 1_555
H39 C19 1_555 1_555
C20 N11 1_555 1_555
H40 C20 1_555 1_555
H41 C20 1_555 1_555
C21 C20 1_555 1_555
H42 C21 1_555 1_555
H43 C21 1_555 1_555
C22 N12 1_555 1_555
H44 C22 1_555 1_555
H45 C22 1_555 1_555
H46 C22 1_555 1_555
C23 N11 1_555 1_555
C24 N3 1_555 1_555
H47 C24 1_555 1_555
H48 C24 1_555 1_555
C25 C24 1_555 1_555
H49 C25 1_555 1_555
H50 C25 1_555 1_555
C26 N10 1_555 1_555
H51 C26 1_555 1_555
H52 C26 1_555 1_555
Cu2_2 N10 1_555 1_555
N10_2 Cu2 1_555 1_555
N2 C5 1_555 1_555
N5 C10 1_555 1_555
N6 C10 1_555 1_555
N8 C18 1_555 1_555
N9 C18 1_555 1_555
N12 C23 1_555 1_555
C25 C26 1_555 1_555

#END
