
#######################################################################
#
#                 Cambridge Crystallographic Data Centre
#                                CCDC 
#
#######################################################################
#
# If this CIF has been generated from an entry in the Cambridge 
# Structural Database, then it will include bibliographic, chemical, 
# crystal, experimental, refinement or atomic coordinate data resulting 
# from the CCDC's data processing and validation procedures.
#
#######################################################################

data_ZIWBAG01
_symmetry_cell_setting           triclinic
_symmetry_space_group_name_H-M   'P -1'
_symmetry_Int_Tables_number      2
_space_group_name_Hall           '-P 1'
loop_
_symmetry_equiv_pos_site_id
_symmetry_equiv_pos_as_xyz
1 x,y,z
2 -x,-y,-z
_cell_length_a                   6.691(2)
_cell_length_b                   7.433(2)
_cell_length_c                   10.092(2)
_cell_angle_alpha                84.46(2)
_cell_angle_beta                 76.72(2)
_cell_angle_gamma                74.76(3)
_cell_volume                     470.967
loop_
_atom_site_label
_atom_site_type_symbol
_atom_site_fract_x
_atom_site_fract_y
_atom_site_fract_z
Ce1 Ce -0.2839(1) 0.7051(1) 0.9398(1)
Cl1 Cl -0.3989(2) 0.9886(1) 1.1452(1)
Cl2 Cl -0.3272(2) 0.3470(1) 0.8879(1)
Cl3 Cl -0.1420(2) 0.4934(1) 1.1631(1)
O1 O -0.2431(5) 0.7019(4) 0.6847(3)
O2 O -0.0622(5) 0.9322(5) 0.8591(3)
C1 C -0.1227(8) 0.8103(7) 0.5847(4)
C2 C -0.1586(8) 0.7747(8) 0.4479(5)
C3 C -0.3721(11) 0.7283(12) 0.4854(6)
C4 C -0.3898(9) 0.6460(9) 0.6203(5)
H1 H 0.0299(8) 0.7692(7) 0.5866(4)
H2 H -0.1738(8) 0.9447(7) 0.6038(4)
H3 H -0.1626(8) 0.8870(8) 0.3862(5)
H4 H -0.0467(8) 0.6691(8) 0.4038(5)
H5 H -0.4875(11) 0.8428(12) 0.4828(6)
H6 H -0.3809(11) 0.6397(12) 0.4210(6)
H7 H -0.3548(9) 0.5084(9) 0.6167(5)
H8 H -0.5367(9) 0.6890(9) 0.6733(5)
H9 H -0.1163(79) 1.0362(78) 0.8692(50)
H10 H 0.057(11) 0.9265(88) 0.8559(66)
Ce1A Ce -0.7161(1) 1.2949(1) 1.0602(1)
Cl1A Cl -0.6011(2) 1.0114(1) 0.8548(1)
Ce1A_2 Ce -0.7161(1) 0.2949(1) 1.0602(1)
Cl2A Cl -0.6728(2) 0.6530(1) 1.1121(1)
Ce1A_3 Ce 0.2839(1) 0.2949(1) 1.0602(1)
Cl3A Cl 0.1420(2) 0.5066(1) 0.8369(1)
loop_
_geom_bond_atom_site_label_1
_geom_bond_atom_site_label_2
_geom_bond_site_symmetry_1
_geom_bond_site_symmetry_2
Ce1 Cl1 1_555 1_555
Cl1 Ce1A 1_555 1_555
Cl2 Ce1 1_555 1_555
Cl3 Ce1 1_555 1_555
O1 Ce1 1_555 1_555
O2 Ce1 1_555 1_555
C1 O1 1_555 1_555
C2 C1 1_555 1_555
C3 C2 1_555 1_555
C4 O1 1_555 1_555
H1 C1 1_555 1_555
H2 C1 1_555 1_555
H3 C2 1_555 1_555
H4 C2 1_555 1_555
H5 C3 1_555 1_555
H6 C3 1_555 1_555
H7 C4 1_555 1_555
H8 C4 1_555 1_555
H9 O2 1_555 1_555
H10 O2 1_555 1_555
Ce1A Cl1A 1_555 1_555
Cl1A Ce1 1_555 1_555
Ce1A_2 Cl2 1_555 1_555
Cl2A Ce1 1_555 1_555
Ce1A_3 Cl3 1_555 1_555
Cl3A Ce1 1_555 1_555
C3 C4 1_555 1_555
Ce1A_2 Cl2A 1_555 1_555
Ce1A_3 Cl3A 1_555 1_555

#END
