
#######################################################################
#
#                 Cambridge Crystallographic Data Centre
#                                CCDC 
#
#######################################################################
#
# If this CIF has been generated from an entry in the Cambridge 
# Structural Database, then it will include bibliographic, chemical, 
# crystal, experimental, refinement or atomic coordinate data resulting 
# from the CCDC's data processing and validation procedures.
#
#######################################################################

data_ZIWBAG
_symmetry_cell_setting           triclinic
_symmetry_space_group_name_H-M   'P -1'
_symmetry_Int_Tables_number      2
_space_group_name_Hall           '-P 1'
loop_
_symmetry_equiv_pos_site_id
_symmetry_equiv_pos_as_xyz
1 x,y,z
2 -x,-y,-z
_cell_length_a                   6.680(2)
_cell_length_b                   7.421(3)
_cell_length_c                   10.092(3)
_cell_angle_alpha                84.27(3)
_cell_angle_beta                 76.83(3)
_cell_angle_gamma                74.64(3)
_cell_volume                     469.31
loop_
_atom_site_label
_atom_site_type_symbol
_atom_site_fract_x
_atom_site_fract_y
_atom_site_fract_z
Ce1 Ce 0.78430(3) -0.20545(3) 0.56026(2)
Cl1 Cl 0.8275(2) 0.1524(1) 0.6118(1)
Cl2 Cl 1.1015(1) -0.5124(1) 0.64479(9)
Cl3 Cl 0.6411(1) 0.0074(1) 0.3371(29)
O1 O 0.7451(5) -0.2043(4) 0.8153(3)
O2 O 0.5631(5) -0.4343(4) 0.6408(3)
C1 C 0.6228(8) -0.3108(8) 0.9146(5)
C2 C 0.6564(9) -0.2737(9) 1.0527(5)
C3 C 0.868(1) -0.225(2) 1.0170(6)
C4 C 0.892(1) -0.151(1) 0.8789(5)
Ce1A Ce 1.21570(3) 0.20545(3) 0.43974(2)
Cl1A Cl 1.1725(2) -0.1524(1) 0.3882(1)
Ce1A_2 Ce 1.21570(3) -0.79455(3) 0.43974(2)
Cl2A Cl 0.8985(1) -0.4876(1) 0.35521(9)
Ce1A_3 Ce 0.21570(3) 0.20545(3) 0.43974(2)
Cl3A Cl 0.3589(1) -0.0074(1) 0.6629(29)
loop_
_geom_bond_atom_site_label_1
_geom_bond_atom_site_label_2
_geom_bond_site_symmetry_1
_geom_bond_site_symmetry_2
Ce1 Cl1 1_555 1_555
Cl1 Ce1A 1_555 1_555
Cl2 Ce1 1_555 1_555
Cl3 Ce1 1_555 1_555
O1 Ce1 1_555 1_555
O2 Ce1 1_555 1_555
C1 O1 1_555 1_555
C2 C1 1_555 1_555
C3 C2 1_555 1_555
C4 O1 1_555 1_555
Ce1A Cl1A 1_555 1_555
Cl1A Ce1 1_555 1_555
Ce1A_2 Cl2 1_555 1_555
Cl2A Ce1 1_555 1_555
Ce1A_3 Cl3 1_555 1_555
Cl3A Ce1 1_555 1_555
C3 C4 1_555 1_555
Ce1A_2 Cl2A 1_555 1_555
Ce1A_3 Cl3A 1_555 1_555

#END
