
#######################################################################
#
#                 Cambridge Crystallographic Data Centre
#                                CCDC 
#
#######################################################################
#
# If this CIF has been generated from an entry in the Cambridge 
# Structural Database, then it will include bibliographic, chemical, 
# crystal, experimental, refinement or atomic coordinate data resulting 
# from the CCDC's data processing and validation procedures.
#
#######################################################################

data_ZIWLAS
_symmetry_cell_setting           triclinic
_symmetry_space_group_name_H-M   'P 1'
_symmetry_Int_Tables_number      1
_space_group_name_Hall           'P 1'
loop_
_symmetry_equiv_pos_site_id
_symmetry_equiv_pos_as_xyz
1 x,y,z
_cell_length_a                   4.815(2)
_cell_length_b                   7.793(2)
_cell_length_c                   10.339(2)
_cell_angle_alpha                106.61(2)
_cell_angle_beta                 97.68(3)
_cell_angle_gamma                106.11(3)
_cell_volume                     347.479
loop_
_atom_site_label
_atom_site_type_symbol
_atom_site_fract_x
_atom_site_fract_y
_atom_site_fract_z
Zn1 Zn 0.5408 0.3782 0.0052
N1 N -0.0492(15) 0.4840(11) -0.3565(7)
C1 C 0.0021(18) 0.5319(12) -0.4674(8)
O1 O -0.1764(14) 0.4701(10) -0.5787(6)
N2 N 0.2793(16) 0.6602(11) -0.4516(7)
C2 C 0.4862(18) 0.7628(12) -0.3289(9)
O2 O 0.7249(14) 0.8696(10) -0.3275(7)
C3 C 0.3996(21) 0.7323(13) -0.2035(10)
C4 C 0.1880(18) 0.5307(12) -0.2371(8)
C5 C 0.0682(19) 0.5083(13) -0.1115(8)
O3 O 0.2588(13) 0.5368(10) -0.0048(6)
O4 O -0.2022(15) 0.4655(11) -0.1209(8)
N3 N 0.2331(14) 0.1518(10) 0.3480(7)
C6 C 0.1827(18) 0.1083(11) 0.4594(8)
O5 O 0.3531(13) 0.1814(9) 0.5735(6)
N4 N -0.0859(15) -0.0334(10) 0.4410(7)
C7 C -0.3192(18) -0.1053(13) 0.3277(8)
O6 O -0.5488(13) -0.2198(10) 0.3261(6)
C8 C -0.2628(19) -0.0334(14) 0.2124(10)
C9 C 0.0547(18) 0.0343(12) 0.2083(8)
C10 C 0.1107(21) 0.1376(15) 0.1063(8)
O7 O -0.0810(21) 0.0978(22) 0.0048(10)
O8 O 0.3697(10) 0.2538(7) 0.1329(7)
O9 O 0.3034(16) 0.1536(11) -0.1686(7)
O10 O 0.8607(16) 0.5514(10) 0.1764(8)
H1 H 0.332 0.679 -0.534
H2 H 0.577 0.753 -0.135
H3 H 0.302 0.822 -0.164
H4 H 0.296 0.442 -0.259
H5 H -0.251 0.416 -0.355
H6 H -0.108 -0.085 0.515
H7 H -0.368 -0.134 0.126
H8 H -0.338 0.071 0.221
H9 H 0.114 -0.076 0.175
H10 H 0.395 0.266 0.360
H11 H 0.328(18) 0.158(11) -0.249(4)
H12 H 0.120(6) 0.151(12) -0.169(10)
H13 H 0.866(18) 0.539(12) 0.257(4)
H14 H 1.037(8) 0.547(11) 0.171(8)
O4_2 O 0.7978(15) 0.4655(11) -0.1209(8)
C5_2 C 1.0682(19) 0.5083(13) -0.1115(8)
Zn1_2 Zn -0.4592 0.3782 0.0052
loop_
_geom_bond_atom_site_label_1
_geom_bond_atom_site_label_2
_geom_bond_site_symmetry_1
_geom_bond_site_symmetry_2
Zn1 O3 1_555 1_555
N1 C1 1_555 1_555
C1 O1 1_555 1_555
N2 C1 1_555 1_555
C2 N2 1_555 1_555
O2 C2 1_555 1_555
C3 C2 1_555 1_555
C4 N1 1_555 1_555
C5 C4 1_555 1_555
O3 C5 1_555 1_555
O4 C5 1_555 1_555
N3 C6 1_555 1_555
C6 O5 1_555 1_555
N4 C6 1_555 1_555
C7 N4 1_555 1_555
O6 C7 1_555 1_555
C8 C7 1_555 1_555
C9 N3 1_555 1_555
C10 C9 1_555 1_555
O7 C10 1_555 1_555
O8 Zn1 1_555 1_555
O9 Zn1 1_555 1_555
O10 Zn1 1_555 1_555
H1 N2 1_555 1_555
H2 C3 1_555 1_555
H3 C3 1_555 1_555
H4 C4 1_555 1_555
H5 N1 1_555 1_555
H6 N4 1_555 1_555
H7 C8 1_555 1_555
H8 C8 1_555 1_555
H9 C9 1_555 1_555
H10 N3 1_555 1_555
H11 O9 1_555 1_555
H12 O9 1_555 1_555
H13 O10 1_555 1_555
H14 O10 1_555 1_555
O4_2 Zn1 1_555 1_555
C5_2 O4_2 1_555 1_555
Zn1_2 O4 1_555 1_555
C3 C4 1_555 1_555
C8 C9 1_555 1_555
C10 O8 1_555 1_555

#END
