
#######################################################################
#
#                 Cambridge Crystallographic Data Centre
#                                CCDC 
#
#######################################################################
#
# If this CIF has been generated from an entry in the Cambridge 
# Structural Database, then it will include bibliographic, chemical, 
# crystal, experimental, refinement or atomic coordinate data resulting 
# from the CCDC's data processing and validation procedures.
#
#######################################################################

data_ZIWMID
_symmetry_cell_setting           monoclinic
_symmetry_space_group_name_H-M   'P 21/c'
_symmetry_Int_Tables_number      14
_space_group_name_Hall           '-P 2ybc'
loop_
_symmetry_equiv_pos_site_id
_symmetry_equiv_pos_as_xyz
1 x,y,z
2 -x,1/2+y,1/2-z
3 -x,-y,-z
4 x,1/2-y,1/2+z
_cell_length_a                   5.7359(5)
_cell_length_b                   20.4488(17)
_cell_length_c                   15.4299(13)
_cell_angle_alpha                90
_cell_angle_beta                 94.1540(10)
_cell_angle_gamma                90
_cell_volume                     1805.05
loop_
_atom_site_label
_atom_site_type_symbol
_atom_site_fract_x
_atom_site_fract_y
_atom_site_fract_z
Cu1 Cu 0.28789(7) 0.54373(2) 0.53805(3)
Cu2 Cu 0.80789(7) 0.58088(2) 0.60075(3)
N1 N 0.4370(5) 0.49236(14) 0.62635(19)
N2 N 0.6556(5) 0.51268(14) 0.65920(18)
N3 N 0.5065(6) 0.29186(17) 0.9533(2)
N4 N -0.0834(5) 0.62752(14) 0.50431(18)
N5 N 0.1275(5) 0.60954(15) 0.47352(19)
N6 N -0.1006(5) 0.84933(15) 0.20515(18)
C1 C 0.7111(6) 0.47731(17) 0.7309(2)
H1 H 0.8524 0.4816 0.7665
C2 C 0.5316(6) 0.43302(17) 0.7459(2)
C3 C 0.3628(6) 0.44541(16) 0.6781(2)
H2 H 0.2165 0.4237 0.6699
C4 C 0.6958(6) 0.3293(2) 0.9427(2)
H3 H 0.8285 0.3231 0.9824
C5 C 0.7117(6) 0.37592(18) 0.8785(2)
H4 H 0.8490 0.4017 0.8767
C6 C 0.5245(6) 0.38498(16) 0.8162(2)
C7 C 0.3285(6) 0.34512(18) 0.8255(2)
H5 H 0.1959 0.3485 0.7851
C8 C 0.3282(7) 0.30116(19) 0.8930(3)
H6 H 0.1917 0.2754 0.8973
C9 C 0.1755(6) 0.65206(18) 0.4106(2)
H7 H 0.3119 0.6509 0.3792
C10 C -0.0036(6) 0.69800(16) 0.3982(2)
C11 C -0.1626(6) 0.67985(17) 0.4596(2)
H8 H -0.3054 0.7017 0.4679
C12 C 0.0882(6) 0.80972(18) 0.2096(2)
H9 H 0.1997 0.8155 0.1677
C13 C 0.1299(6) 0.76135(18) 0.2712(2)
H10 H 0.2671 0.7353 0.2709
C14 C -0.0305(6) 0.75073(17) 0.3339(2)
C15 C -0.2282(6) 0.79229(18) 0.3309(2)
H11 H -0.3423 0.7878 0.3722
C16 C -0.2523(6) 0.83990(18) 0.2665(2)
H12 H -0.3852 0.8677 0.2657
Cu2_2 Cu -0.19211(7) 0.58088(2) 0.60075(3)
Cu2C Cu -0.19211(7) 0.91912(2) 0.10075(3)
N4_2 N 0.9166(5) 0.62752(14) 0.50431(18)
N6C N 0.8994(5) 0.65067(15) 0.70515(18)
C17 C 0.1275(6) 0.52996(18) 0.9352(2)
C18 C -0.0880(6) 0.55510(19) 0.9574(3)
H13 H -0.1505 0.5929 0.9285
C19 C 0.2117(6) 0.47455(19) 0.9787(3)
H14 H 0.3567 0.4564 0.9647
C20 C 0.2653(7) 0.5632(2) 0.8673(3)
H15 H 0.4259 0.5465 0.8714
H16 H 0.2672 0.6105 0.8773
H17 H 0.1918 0.5540 0.8093
C17B C -0.1275(6) 0.47004(18) 1.0648(2)
C18B C 0.0880(6) 0.44490(19) 1.0426(3)
H13B H 0.1505 0.4071 1.0715
C19B C -0.2117(6) 0.52545(19) 1.0213(3)
H14B H -0.3567 0.5436 1.0353
C20B C -0.2653(7) 0.4368(2) 1.1327(3)
H15B H -0.4259 0.4535 1.1286
H16B H -0.2672 0.3895 1.1227
H17B H -0.1918 0.4460 1.1907
loop_
_geom_bond_atom_site_label_1
_geom_bond_atom_site_label_2
_geom_bond_site_symmetry_1
_geom_bond_site_symmetry_2
Cu1 N1 1_555 1_555
Cu2 N2 1_555 1_555
N1 N2 1_555 1_555
N2 C1 1_555 1_555
N3 C4 1_555 1_555
N4 N5 1_555 1_555
N5 Cu1 1_555 1_555
N6 C12 1_555 1_555
C1 H1 1_555 1_555
C2 C1 1_555 1_555
C3 N1 1_555 1_555
H2 C3 1_555 1_555
C4 H3 1_555 1_555
C5 C4 1_555 1_555
H4 C5 1_555 1_555
C6 C2 1_555 1_555
C7 C6 1_555 1_555
H5 C7 1_555 1_555
C8 N3 1_555 1_555
H6 C8 1_555 1_555
C9 N5 1_555 1_555
H7 C9 1_555 1_555
C10 C9 1_555 1_555
C11 N4 1_555 1_555
H8 C11 1_555 1_555
C12 H9 1_555 1_555
C13 C12 1_555 1_555
H10 C13 1_555 1_555
C14 C10 1_555 1_555
C15 C14 1_555 1_555
H11 C15 1_555 1_555
C16 N6 1_555 1_555
H12 C16 1_555 1_555
C17 C18 1_555 1_555
C18 H13 1_555 1_555
C19 C17 1_555 1_555
H14 C19 1_555 1_555
C20 C17 1_555 1_555
H15 C20 1_555 1_555
H16 C20 1_555 1_555
H17 C20 1_555 1_555
Cu2_2 N4 1_555 1_555
Cu2C N6 1_555 1_555
N4_2 Cu2 1_555 1_555
N6C Cu2 1_555 1_555
C17B C18B 1_555 1_555
C18B C19 1_555 1_555
H13B C18B 1_555 1_555
C19B C18 1_555 1_555
H14B C19B 1_555 1_555
C20B C17B 1_555 1_555
H15B C20B 1_555 1_555
H16B C20B 1_555 1_555
H17B C20B 1_555 1_555
C2 C3 1_555 1_555
C5 C6 1_555 1_555
C7 C8 1_555 1_555
C10 C11 1_555 1_555
C13 C14 1_555 1_555
C15 C16 1_555 1_555
C17B C19B 1_555 1_555

#END
