
#######################################################################
#
#                 Cambridge Crystallographic Data Centre
#                                CCDC 
#
#######################################################################
#
# If this CIF has been generated from an entry in the Cambridge 
# Structural Database, then it will include bibliographic, chemical, 
# crystal, experimental, refinement or atomic coordinate data resulting 
# from the CCDC's data processing and validation procedures.
#
#######################################################################

data_ZIWMEZ
_symmetry_cell_setting           monoclinic
_symmetry_space_group_name_H-M   'P 21/c'
_symmetry_Int_Tables_number      14
_space_group_name_Hall           '-P 2ybc'
loop_
_symmetry_equiv_pos_site_id
_symmetry_equiv_pos_as_xyz
1 x,y,z
2 -x,1/2+y,1/2-z
3 -x,-y,-z
4 x,1/2-y,1/2+z
_cell_length_a                   5.7782(2)
_cell_length_b                   20.4081(8)
_cell_length_c                   16.1009(8)
_cell_angle_alpha                90
_cell_angle_beta                 94.6740(10)
_cell_angle_gamma                90
_cell_volume                     1892.34
loop_
_atom_site_label
_atom_site_type_symbol
_atom_site_fract_x
_atom_site_fract_y
_atom_site_fract_z
Ag1 Ag 0.28821(5) 0.530795(14) 0.540898(16)
Ag2 Ag 0.80857(5) 0.573000(14) 0.602837(15)
N1 N 0.4389(5) 0.47851(16) 0.64293(19)
N2 N 0.6552(5) 0.49979(15) 0.67474(18)
N3 N 0.5020(6) 0.28798(17) 0.9657(2)
N4 N -0.0832(5) 0.62532(15) 0.49828(18)
N5 N 0.1242(5) 0.60577(16) 0.46946(18)
N6 N -0.0890(6) 0.84535(17) 0.21202(19)
C1 C 0.7118(6) 0.46573(19) 0.7447(2)
H1 H 0.8532 0.4705 0.7786
C2 C 0.5335(6) 0.42220(17) 0.7608(2)
C3 C 0.3656(7) 0.43290(19) 0.6945(2)
H2 H 0.2203 0.4110 0.6872
C4 C 0.6914(7) 0.3249(2) 0.9561(2)
H3 H 0.8207 0.3206 0.9961
C5 C 0.7082(6) 0.3687(2) 0.8912(2)
H4 H 0.8458 0.3937 0.8881
C6 C 0.5240(6) 0.37611(19) 0.8304(2)
C7 C 0.3279(7) 0.3379(2) 0.8397(2)
H5 H 0.1964 0.3412 0.8004
C8 C 0.3258(7) 0.2952(2) 0.9063(3)
H6 H 0.1909 0.2692 0.9105
C9 C 0.1724(6) 0.6475(2) 0.4094(2)
H7 H 0.3070 0.6455 0.3793
C10 C -0.0014(6) 0.69427(18) 0.3970(2)
C11 C -0.1607(6) 0.67786(18) 0.4555(2)
H8 H -0.3008 0.7006 0.4632
C12 C 0.0966(7) 0.8053(2) 0.2164(2)
H9 H 0.2075 0.8108 0.1765
C13 C 0.1347(6) 0.7570(2) 0.2753(2)
H10 H 0.2690 0.7301 0.2754
C14 C -0.0256(6) 0.74725(18) 0.3357(2)
C15 C -0.2153(7) 0.7902(2) 0.3315(2)
H11 H -0.3281 0.7867 0.3711
C16 C -0.2392(7) 0.8374(2) 0.2705(2)
H12 H -0.3693 0.8659 0.2697
Ag2_2 Ag -0.19143(5) 0.573000(14) 0.602837(15)
Ag2C Ag -0.19143(5) 0.927000(14) 0.102837(15)
N4_2 N 0.9168(5) 0.62532(15) 0.49828(18)
N6C N 0.9110(6) 0.65465(17) 0.71202(19)
C17 C 0.1236(6) 0.52781(19) 0.9364(2)
C18 C -0.0895(7) 0.5541(2) 0.9560(2)
H13 H -0.1528 0.5909 0.9259
C19 C 0.2090(7) 0.47332(19) 0.9810(3)
H14 H 0.3520 0.4544 0.9680
C20 C 0.2584(7) 0.5584(2) 0.8694(3)
H15 H 0.4146 0.5394 0.8718
H16 H 0.2701 0.6058 0.8785
H17 H 0.1778 0.5498 0.8145
C17B C -0.1236(6) 0.47219(19) 1.0636(2)
C18B C 0.0895(7) 0.4459(2) 1.0440(2)
H13B H 0.1528 0.4091 1.0741
C19B C -0.2090(7) 0.52668(19) 1.0190(3)
H14B H -0.3520 0.5456 1.0320
C20B C -0.2584(7) 0.4416(2) 1.1306(3)
H15B H -0.4146 0.4606 1.1282
H16B H -0.2701 0.3942 1.1215
H17B H -0.1778 0.4502 1.1855
loop_
_geom_bond_atom_site_label_1
_geom_bond_atom_site_label_2
_geom_bond_site_symmetry_1
_geom_bond_site_symmetry_2
Ag1 N1 1_555 1_555
Ag2 N2 1_555 1_555
N1 N2 1_555 1_555
N2 C1 1_555 1_555
N3 C4 1_555 1_555
N4 N5 1_555 1_555
N5 Ag1 1_555 1_555
N6 C12 1_555 1_555
C1 H1 1_555 1_555
C2 C1 1_555 1_555
C3 N1 1_555 1_555
H2 C3 1_555 1_555
C4 H3 1_555 1_555
C5 C4 1_555 1_555
H4 C5 1_555 1_555
C6 C2 1_555 1_555
C7 C6 1_555 1_555
H5 C7 1_555 1_555
C8 N3 1_555 1_555
H6 C8 1_555 1_555
C9 N5 1_555 1_555
H7 C9 1_555 1_555
C10 C9 1_555 1_555
C11 N4 1_555 1_555
H8 C11 1_555 1_555
C12 H9 1_555 1_555
C13 C12 1_555 1_555
H10 C13 1_555 1_555
C14 C10 1_555 1_555
C15 C14 1_555 1_555
H11 C15 1_555 1_555
C16 N6 1_555 1_555
H12 C16 1_555 1_555
C17 C18 1_555 1_555
C18 H13 1_555 1_555
C19 C17 1_555 1_555
H14 C19 1_555 1_555
C20 C17 1_555 1_555
H15 C20 1_555 1_555
H16 C20 1_555 1_555
H17 C20 1_555 1_555
Ag2_2 N4 1_555 1_555
Ag2C N6 1_555 1_555
N4_2 Ag2 1_555 1_555
N6C Ag2 1_555 1_555
C17B C18B 1_555 1_555
C18B C19 1_555 1_555
H13B C18B 1_555 1_555
C19B C18 1_555 1_555
H14B C19B 1_555 1_555
C20B C17B 1_555 1_555
H15B C20B 1_555 1_555
H16B C20B 1_555 1_555
H17B C20B 1_555 1_555
C2 C3 1_555 1_555
C5 C6 1_555 1_555
C7 C8 1_555 1_555
C10 C11 1_555 1_555
C13 C14 1_555 1_555
C15 C16 1_555 1_555
C17B C19B 1_555 1_555

#END
