
#######################################################################
#
#                 Cambridge Crystallographic Data Centre
#                                CCDC 
#
#######################################################################
#
# If this CIF has been generated from an entry in the Cambridge 
# Structural Database, then it will include bibliographic, chemical, 
# crystal, experimental, refinement or atomic coordinate data resulting 
# from the CCDC's data processing and validation procedures.
#
#######################################################################

data_ZIWTII
_symmetry_cell_setting           cubic
_symmetry_space_group_name_H-M   'P 21 3'
_symmetry_Int_Tables_number      198
_space_group_name_Hall           'P 2ac 2ab 3'
loop_
_symmetry_equiv_pos_site_id
_symmetry_equiv_pos_as_xyz
1 x,y,z
2 1/2-x,-y,1/2+z
3 1/2+x,1/2-y,-z
4 z,x,y
5 -x,1/2+y,1/2-z
6 1/2-z,-x,1/2+y
7 1/2+z,1/2-x,-y
8 -z,1/2+x,1/2-y
9 y,z,x
10 1/2+y,1/2-z,-x
11 -y,1/2+z,1/2-x
12 1/2-y,-z,1/2+x
_cell_length_a                   10.578(3)
_cell_length_b                   10.578(3)
_cell_length_c                   10.578(3)
_cell_angle_alpha                90
_cell_angle_beta                 90
_cell_angle_gamma                90
_cell_volume                     1183.62
loop_
_atom_site_label
_atom_site_type_symbol
_atom_site_fract_x
_atom_site_fract_y
_atom_site_fract_z
Ag1 Ag -0.12992(2) 0.12992(2) -0.37008(2)
N1 N -0.2547(2) -0.2547(2) -0.2547(2)
N2 N -0.1501(2) -0.0491(2) -0.2382(2)
C1 C -0.2314(2) -0.1337(2) -0.3165(2)
C2 C -0.0286(2) -0.1152(2) -0.2141(2)
H1 H -0.189(3) -0.154(3) -0.395(2)
H2 H -0.310(3) -0.091(3) -0.325(3)
H3 H 0.016(2) -0.123(3) -0.300(2)
H4 H 0.028(3) -0.060(2) -0.158(2)
C1C C -0.3165(2) -0.2314(2) -0.1337(2)
N2C N -0.2382(2) -0.1501(2) -0.0491(2)
Ag1C Ag -0.37008(2) -0.12992(2) 0.12992(2)
C2C C -0.2141(2) -0.0286(2) -0.1152(2)
C2H C -0.1152(2) -0.2141(2) -0.0286(2)
H1C H -0.395(2) -0.189(3) -0.154(3)
H2C H -0.325(3) -0.310(3) -0.091(3)
C1H C -0.1337(2) -0.3165(2) -0.2314(2)
N2H N -0.0491(2) -0.2382(2) -0.1501(2)
H1H H -0.154(3) -0.395(2) -0.189(3)
H2H H -0.091(3) -0.325(3) -0.310(3)
Ag1H Ag 0.12992(2) -0.37008(2) -0.12992(2)
H3H H -0.123(3) -0.300(2) 0.016(2)
H4H H -0.060(2) -0.158(2) 0.028(3)
N2E N -0.2618(2) 0.1501(2) -0.5491(2)
N2J N 0.0491(2) 0.2618(2) -0.3499(2)
H3C H -0.300(2) 0.016(2) -0.123(3)
H4C H -0.158(2) 0.028(3) -0.060(2)
P1 P -0.14736(7) -0.35264(7) -0.64736(7)
F1 F -0.0583(2) -0.3035(2) -0.5370(2)
F2 F -0.2591(2) -0.2653(2) -0.5981(2)
F1F F -0.0370(2) -0.4417(2) -0.6965(2)
F1K F -0.1965(2) -0.4630(2) -0.5583(2)
F2F F -0.0981(2) -0.2409(2) -0.7347(2)
F2K F -0.2347(2) -0.4019(2) -0.7591(2)
O1 O 0.0279(2) -0.0279(2) -0.5279(2)
H5? H 0.060(7) 0.013(4) -0.607(5)
loop_
_geom_bond_atom_site_label_1
_geom_bond_atom_site_label_2
_geom_bond_site_symmetry_1
_geom_bond_site_symmetry_2
Ag1 N2 1_555 1_555
P1 F1 1_555 1_555
F2 P1 1_555 1_555
N1 C1 1_555 1_555
N2 C1 1_555 1_555
C1 H1 1_555 1_555
C2 N2 1_555 1_555
H2 C1 1_555 1_555
H3 C2 1_555 1_555
H4 C2 1_555 1_555
C1C N1 1_555 1_555
N2C C1C 1_555 1_555
Ag1C N2C 1_555 1_555
C2C N2 1_555 1_555
C2H N2C 1_555 1_555
H1C C1C 1_555 1_555
H2C C1C 1_555 1_555
C1H N1 1_555 1_555
N2H C2 1_555 1_555
H1H C1H 1_555 1_555
H2H C1H 1_555 1_555
F1F P1 1_555 1_555
F1K P1 1_555 1_555
F2F P1 1_555 1_555
F2K P1 1_555 1_555
Ag1H N2H 1_555 1_555
H3H C2H 1_555 1_555
H4H C2H 1_555 1_555
N2E Ag1 1_555 1_555
N2J Ag1 1_555 1_555
H3C C2C 1_555 1_555
H4C C2C 1_555 1_555
N2C C2C 1_555 1_555
C2H N2H 1_555 1_555
C1H N2H 1_555 1_555

#END
