
#######################################################################
#
#                 Cambridge Crystallographic Data Centre
#                                CCDC 
#
#######################################################################
#
# If this CIF has been generated from an entry in the Cambridge 
# Structural Database, then it will include bibliographic, chemical, 
# crystal, experimental, refinement or atomic coordinate data resulting 
# from the CCDC's data processing and validation procedures.
#
#######################################################################

data_ZIXQOM01
_symmetry_cell_setting           monoclinic
_symmetry_space_group_name_H-M   'C 2/m'
_symmetry_Int_Tables_number      12
_space_group_name_Hall           '-C 2y'
loop_
_symmetry_equiv_pos_site_id
_symmetry_equiv_pos_as_xyz
1 x,y,z
2 x,-y,z
3 1/2+x,1/2+y,z
4 1/2+x,1/2-y,z
5 -x,-y,-z
6 -x,y,-z
7 1/2-x,1/2-y,-z
8 1/2-x,1/2+y,-z
_cell_length_a                   8.178
_cell_length_b                   14.347
_cell_length_c                   7.628
_cell_angle_alpha                90
_cell_angle_beta                 100.31
_cell_angle_gamma                90
_cell_volume                     880.541
loop_
_atom_site_label
_atom_site_type_symbol
_atom_site_fract_x
_atom_site_fract_y
_atom_site_fract_z
Mo1 Mo 0.1099 0.0000 0.5945
O1 O 0.0155 -0.1052 0.7450
O2 O -0.2184 -0.1042 0.5448
C1 C -0.1265 -0.1362 0.6857
C2 C -0.1955 -0.2145 0.7835
N1 N 0.3715 0.0000 0.8576
C3 C 0.3425 0.0000 1.024
C4 C 0.5256 0.0000 0.833
C4D C 0.4744 0.0000 1.167
N1D N 0.6285 0.0000 1.1424
C3D C 0.6575 0.0000 0.976
O1A O 0.0155 0.1052 0.7450
O2A O -0.2184 0.1042 0.5448
C1A C -0.1265 0.1362 0.6857
C2A C -0.1955 0.2145 0.7835
O1D O -0.0155 0.1052 0.2550
O2D O 0.2184 0.1042 0.4552
C1D C 0.1265 0.1362 0.3143
C2D C 0.1955 0.2145 0.2165
O1E O -0.0155 -0.1052 0.2550
O2E O 0.2184 -0.1042 0.4552
C1E C 0.1265 -0.1362 0.3143
C2E C 0.1955 -0.2145 0.2165
Mo1D Mo -0.1099 0.0000 0.4055
Mo1D_2 Mo 0.8901 0.0000 1.4055
N1D_2 N -0.3715 0.0000 0.1424
loop_
_geom_bond_atom_site_label_1
_geom_bond_atom_site_label_2
_geom_bond_site_symmetry_1
_geom_bond_site_symmetry_2
Mo1 O1 1_555 1_555
O1 C1 1_555 1_555
O2 C1 1_555 1_555
C1 C2 1_555 1_555
N1 Mo1 1_555 1_555
C3 N1 1_555 1_555
C4 N1 1_555 1_555
C4D C3 1_555 1_555
N1D C4D 1_555 1_555
C3D C4 1_555 1_555
O1A Mo1 1_555 1_555
O2A C1A 1_555 1_555
C1A O1A 1_555 1_555
C2A C1A 1_555 1_555
O1D C1D 1_555 1_555
O2D Mo1 1_555 1_555
C1D O2D 1_555 1_555
C2D C1D 1_555 1_555
O1E C1E 1_555 1_555
O2E Mo1 1_555 1_555
C1E O2E 1_555 1_555
C2E C1E 1_555 1_555
Mo1D Mo1 1_555 1_555
Mo1D_2 N1D 1_555 1_555
N1D_2 Mo1D 1_555 1_555
O2 Mo1D 1_555 1_555
N1D C3D 1_555 1_555
O2A Mo1D 1_555 1_555
O1D Mo1D 1_555 1_555
O1E Mo1D 1_555 1_555

#END
