
#######################################################################
#
#                 Cambridge Crystallographic Data Centre
#                                CCDC 
#
#######################################################################
#
# If this CIF has been generated from an entry in the Cambridge 
# Structural Database, then it will include bibliographic, chemical, 
# crystal, experimental, refinement or atomic coordinate data resulting 
# from the CCDC's data processing and validation procedures.
#
#######################################################################

data_ZIXRAZ01
_symmetry_cell_setting           monoclinic
_symmetry_space_group_name_H-M   'C 2/m'
_symmetry_Int_Tables_number      12
_space_group_name_Hall           '-C 2y'
loop_
_symmetry_equiv_pos_site_id
_symmetry_equiv_pos_as_xyz
1 x,y,z
2 x,-y,z
3 1/2+x,1/2+y,z
4 1/2+x,1/2-y,z
5 -x,-y,-z
6 -x,y,-z
7 1/2-x,1/2-y,-z
8 1/2-x,1/2+y,-z
_cell_length_a                   8.091
_cell_length_b                   15.818
_cell_length_c                   7.864
_cell_angle_alpha                90
_cell_angle_beta                 103.05
_cell_angle_gamma                90
_cell_volume                     980.468
loop_
_atom_site_label
_atom_site_type_symbol
_atom_site_fract_x
_atom_site_fract_y
_atom_site_fract_z
Mo1 Mo -0.109 0.0000 -0.1016
O1 O -0.0082 0.0982 -0.2343
O2 O -0.223 0.0975 0.0193
C1 C 0.134 0.128 -0.16
C2 C 0.2 0.204 -0.24
N1 N -0.3713 0.0000 -0.3701
Mo1D Mo 0.109 0.0000 0.1016
O1D O 0.0082 -0.0982 0.2343
C1D C -0.134 -0.128 0.16
O2A O -0.223 -0.0975 0.0193
O2E O 0.223 0.0975 -0.0193
O1E O 0.0082 0.0982 0.2343
C1E C -0.134 0.128 0.16
O1A O -0.0082 -0.0982 -0.2343
C1A C 0.134 -0.128 -0.16
O2D O 0.223 -0.0975 -0.0193
N1D N 0.3713 0.0000 0.3701
C2A C 0.2 -0.204 -0.24
C2E C -0.2 0.204 0.24
C2D C -0.2 -0.204 0.24
loop_
_geom_bond_atom_site_label_1
_geom_bond_atom_site_label_2
_geom_bond_site_symmetry_1
_geom_bond_site_symmetry_2
Mo1 O1 1_555 1_555
O1 C1 1_555 1_555
O2 Mo1 1_555 1_555
C1 C2 1_555 1_555
N1 Mo1 1_555 1_555
Mo1D Mo1 1_555 1_555
O1D Mo1D 1_555 1_555
C1D O1D 1_555 1_555
O2A Mo1 1_555 1_555
O2E C1 1_555 1_555
O1E Mo1D 1_555 1_555
C1E O2 1_555 1_555
O1A Mo1 1_555 1_555
C1A O1A 1_555 1_555
O2D Mo1D 1_555 1_555
N1D Mo1D 1_555 1_555
C2A C1A 1_555 1_555
C2E C1E 1_555 1_555
C2D C1D 1_555 1_555
Mo1D O2E 1_555 1_555
C1D O2A 1_555 1_555
O1E C1E 1_555 1_555
C1A O2D 1_555 1_555

#END
