
#######################################################################
#
#                 Cambridge Crystallographic Data Centre
#                                CCDC 
#
#######################################################################
#
# If this CIF has been generated from an entry in the Cambridge 
# Structural Database, then it will include bibliographic, chemical, 
# crystal, experimental, refinement or atomic coordinate data resulting 
# from the CCDC's data processing and validation procedures.
#
#######################################################################

data_ZIYJIC
_symmetry_cell_setting           tetragonal
_symmetry_space_group_name_H-M   'I 41/a'
_symmetry_Int_Tables_number      88
_space_group_name_Hall           '-I 4ad'
loop_
_symmetry_equiv_pos_site_id
_symmetry_equiv_pos_as_xyz
1 x,y,z
2 1/2-x,-y,1/2+z
3 3/4-y,1/4+x,1/4+z
4 3/4+y,3/4-x,3/4+z
5 1/2+x,1/2+y,1/2+z
6 -x,1/2-y,z
7 1/4-y,3/4+x,3/4+z
8 1/4+y,1/4-x,1/4+z
9 -x,-y,-z
10 1/2+x,y,1/2-z
11 1/4+y,3/4-x,3/4-z
12 1/4-y,1/4+x,1/4-z
13 1/2-x,1/2-y,1/2-z
14 x,1/2+y,-z
15 3/4+y,1/4-x,1/4-z
16 3/4-y,3/4+x,3/4-z
_cell_length_a                   25.762(4)
_cell_length_b                   25.762(4)
_cell_length_c                   5.3833(11)
_cell_angle_alpha                90
_cell_angle_beta                 90
_cell_angle_gamma                90
_cell_volume                     3572.79
loop_
_atom_site_label
_atom_site_type_symbol
_atom_site_fract_x
_atom_site_fract_y
_atom_site_fract_z
Mn1 Mn 0.0000 0.2500 0.6250
N1 N -0.01861(6) 0.17453(6) 0.6220(3)
N2 N 0.0000 0.2500 1.0209(5)
C1 C 0.0000 0.2500 1.2291(5)
C2 C -0.06631(8) 0.15381(8) 0.5617(4)
C3 C -0.06126(9) 0.09864(9) 0.5314(5)
H1 H -0.0874 0.0758 0.4834
C4 C -0.01170(9) 0.08607(9) 0.5853(5)
H2 H 0.0024 0.0528 0.5863
C5 C 0.01536(8) 0.13351(8) 0.6410(4)
C6 C 0.06839(8) 0.13721(8) 0.6929(4)
C7 C 0.09718(8) 0.08745(8) 0.7376(5)
C8 C 0.13513(9) 0.07087(9) 0.5741(5)
H3 H 0.1436 0.0914 0.4377
C9 C 0.16088(10) 0.02409(9) 0.6102(6)
H4 H 0.1862 0.0135 0.4981
C10 C 0.14913(11) -0.00639(10) 0.8090(6)
H5 H 0.1665 -0.0376 0.8335
C11 C 0.11147(13) 0.00928(10) 0.9732(6)
H6 H 0.1032 -0.0116 1.1085
C12 C 0.08537(11) 0.05627(10) 0.9391(5)
H7 H 0.0600 0.0666 1.0519
N1K N 0.07547(6) 0.23139(6) 0.6280(3)
C2K C 0.09619(8) 0.18369(8) 0.6883(4)
C3K C 0.15136(9) 0.18874(9) 0.7186(5)
H1K H 0.1742 0.1626 0.7666
C4K C 0.16393(9) 0.23830(9) 0.6647(5)
H2K H 0.1972 0.2524 0.6637
C5K C 0.11649(8) 0.26536(8) 0.6090(4)
C6K C 0.11279(8) 0.31839(8) 0.5571(4)
C7K C 0.16255(8) 0.34718(8) 0.5124(5)
C8K C 0.17913(9) 0.38513(9) 0.6759(5)
H3K H 0.1586 0.3936 0.8123
C9K C 0.22591(9) 0.41088(10) 0.6398(6)
H4K H 0.2365 0.4362 0.7519
C10K C 0.25639(10) 0.39913(11) 0.4410(6)
H5K H 0.2876 0.4165 0.4165
C11K C 0.24072(10) 0.36147(13) 0.2768(6)
H6K H 0.2616 0.3532 0.1415
C12K C 0.19373(10) 0.33537(11) 0.3109(5)
H7K H 0.1834 0.3100 0.1981
N1N N -0.07547(6) 0.26861(6) 0.6280(3)
C2N C -0.09619(8) 0.31631(8) 0.6883(4)
C3N C -0.15136(9) 0.31126(9) 0.7186(5)
H1N H -0.1742 0.3374 0.7666
C4N C -0.16393(9) 0.26170(9) 0.6647(5)
H2N H -0.1972 0.2476 0.6637
C5N C -0.11649(8) 0.23464(8) 0.6090(4)
C6N C -0.11279(8) 0.18161(8) 0.5571(4)
C7N C -0.16255(8) 0.15282(8) 0.5124(5)
C8N C -0.17913(9) 0.11487(9) 0.6759(5)
H3N H -0.1586 0.1064 0.8123
C9N C -0.22591(9) 0.08912(10) 0.6398(6)
H4N H -0.2365 0.0638 0.7519
C10N C -0.25639(10) 0.10087(11) 0.4410(6)
H5N H -0.2876 0.0835 0.4165
C11N C -0.24072(10) 0.13853(13) 0.2768(6)
H6N H -0.2616 0.1468 0.1415
C12N C -0.19373(10) 0.16463(11) 0.3109(5)
H7N H -0.1834 0.1900 0.1981
N1E N 0.01861(6) 0.32547(6) 0.6220(3)
C2E C 0.06631(8) 0.34619(8) 0.5617(4)
C3E C 0.06126(9) 0.40136(9) 0.5314(5)
H1E H 0.0874 0.4242 0.4834
C4E C 0.01170(9) 0.41393(9) 0.5853(5)
H2E H -0.0024 0.4472 0.5863
C5E C -0.01536(8) 0.36649(8) 0.6410(4)
C6E C -0.06839(8) 0.36279(8) 0.6929(4)
C7E C -0.09718(8) 0.41255(8) 0.7376(5)
C8E C -0.13513(9) 0.42913(9) 0.5741(5)
H3E H -0.1436 0.4086 0.4377
C9E C -0.16088(10) 0.47591(9) 0.6102(6)
H4E H -0.1862 0.4865 0.4981
C10E C -0.14913(11) 0.50639(10) 0.8090(6)
H5E H -0.1665 0.5376 0.8335
C11E C -0.11147(13) 0.49072(10) 0.9732(6)
H6E H -0.1032 0.5116 1.1085
C12E C -0.08537(11) 0.44373(10) 0.9391(5)
H7E H -0.0600 0.4334 1.0519
N2K N 0.0000 0.2500 1.2291(5)
C1K C 0.0000 0.2500 1.0209(5)
Mn1_2 Mn 0.0000 0.2500 1.6250
N2K_2 N 0.0000 0.2500 0.2291(5)
C1_2 C 0.0000 0.2500 0.2291(5)
loop_
_geom_bond_atom_site_label_1
_geom_bond_atom_site_label_2
_geom_bond_site_symmetry_1
_geom_bond_site_symmetry_2
Mn1 N1 1_555 1_555
N1 C2 1_555 1_555
N2 Mn1 1_555 1_555
C1 N2 1_555 1_555
C2 C3 1_555 1_555
C3 H1 1_555 1_555
C4 C3 1_555 1_555
H2 C4 1_555 1_555
C5 N1 1_555 1_555
C6 C5 1_555 1_555
C7 C6 1_555 1_555
C8 C7 1_555 1_555
H3 C8 1_555 1_555
C9 C8 1_555 1_555
H4 C9 1_555 1_555
C10 C9 1_555 1_555
H5 C10 1_555 1_555
C11 C10 1_555 1_555
H6 C11 1_555 1_555
C12 C7 1_555 1_555
H7 C12 1_555 1_555
N1K Mn1 1_555 1_555
C2K C6 1_555 1_555
C3K C2K 1_555 1_555
H1K C3K 1_555 1_555
C4K C3K 1_555 1_555
H2K C4K 1_555 1_555
C5K N1K 1_555 1_555
C6K C5K 1_555 1_555
C7K C6K 1_555 1_555
C8K C7K 1_555 1_555
H3K C8K 1_555 1_555
C9K C8K 1_555 1_555
H4K C9K 1_555 1_555
C10K C9K 1_555 1_555
H5K C10K 1_555 1_555
C11K C10K 1_555 1_555
H6K C11K 1_555 1_555
C12K C7K 1_555 1_555
H7K C12K 1_555 1_555
N1N Mn1 1_555 1_555
C2N N1N 1_555 1_555
C3N C2N 1_555 1_555
H1N C3N 1_555 1_555
C4N C3N 1_555 1_555
H2N C4N 1_555 1_555
C5N N1N 1_555 1_555
C6N C2 1_555 1_555
C7N C6N 1_555 1_555
C8N C7N 1_555 1_555
H3N C8N 1_555 1_555
C9N C8N 1_555 1_555
H4N C9N 1_555 1_555
C10N C9N 1_555 1_555
H5N C10N 1_555 1_555
C11N C10N 1_555 1_555
H6N C11N 1_555 1_555
C12N C7N 1_555 1_555
H7N C12N 1_555 1_555
N1E Mn1 1_555 1_555
C2E C6K 1_555 1_555
C3E C2E 1_555 1_555
H1E C3E 1_555 1_555
C4E C3E 1_555 1_555
H2E C4E 1_555 1_555
C5E N1E 1_555 1_555
C6E C2N 1_555 1_555
C7E C6E 1_555 1_555
C8E C7E 1_555 1_555
H3E C8E 1_555 1_555
C9E C8E 1_555 1_555
H4E C9E 1_555 1_555
C10E C9E 1_555 1_555
H5E C10E 1_555 1_555
C11E C10E 1_555 1_555
H6E C11E 1_555 1_555
C12E C7E 1_555 1_555
H7E C12E 1_555 1_555
N2K N2 1_555 1_555
C1K Mn1 1_555 1_555
Mn1_2 C1 1_555 1_555
N2K_2 Mn1 1_555 1_555
C1_2 Mn1 1_555 1_555
C1 C1K 1_555 1_555
C4 C5 1_555 1_555
C11 C12 1_555 1_555
N1K C2K 1_555 1_555
C4K C5K 1_555 1_555
C11K C12K 1_555 1_555
C4N C5N 1_555 1_555
C5N C6N 1_555 1_555
C11N C12N 1_555 1_555
N1E C2E 1_555 1_555
C4E C5E 1_555 1_555
C5E C6E 1_555 1_555
C11E C12E 1_555 1_555
N2K C1K 1_555 1_555
N2K Mn1_2 1_555 1_555

#END
