
#######################################################################
#
#                 Cambridge Crystallographic Data Centre
#                                CCDC 
#
#######################################################################
#
# If this CIF has been generated from an entry in the Cambridge 
# Structural Database, then it will include bibliographic, chemical, 
# crystal, experimental, refinement or atomic coordinate data resulting 
# from the CCDC's data processing and validation procedures.
#
#######################################################################

data_ZIYPOO
_symmetry_cell_setting           monoclinic
_symmetry_space_group_name_H-M   'P 21/c'
_symmetry_Int_Tables_number      14
_space_group_name_Hall           '-P 2ybc'
loop_
_symmetry_equiv_pos_site_id
_symmetry_equiv_pos_as_xyz
1 x,y,z
2 -x,1/2+y,1/2-z
3 -x,-y,-z
4 x,1/2-y,1/2+z
_cell_length_a                   13.2282(16)
_cell_length_b                   14.3543(16)
_cell_length_c                   16.899(2)
_cell_angle_alpha                90
_cell_angle_beta                 100.845(3)
_cell_angle_gamma                90
_cell_volume                     3151.5
loop_
_atom_site_label
_atom_site_type_symbol
_atom_site_fract_x
_atom_site_fract_y
_atom_site_fract_z
Cd1 Cd 0.566173(18) 0.717641(17) 0.248778(13)
O1 O 0.5636(2) 0.8536(2) 0.17776(16)
H1 H 0.539(3) 0.850(3) 0.1282(13)
H2 H 0.596(3) 0.902(2) 0.195(2)
O2 O 0.5511(2) 0.5729(2) 0.30855(16)
H3 H 0.4908(17) 0.552(3) 0.300(2)
H4 H 0.585(3) 0.568(3) 0.3567(15)
N1 N 0.34256(19) 0.63206(19) 0.03168(16)
N2 N 0.4267(2) 0.5927(2) 0.00918(17)
N3 N 0.4672(2) 0.6533(2) 0.13393(16)
N4 N 0.2986(2) 0.70212(18) -0.13982(16)
N5 N 0.2968(2) 0.6276(2) -0.18938(18)
N6 N 0.4183(2) 0.72873(19) -0.20922(17)
N7 N 0.7842(2) 0.8493(2) 0.45092(16)
N8 N 0.6961(2) 0.8816(3) 0.4716(2)
N9 N 0.6611(2) 0.7941(2) 0.35953(17)
N10 N 0.8345(2) 0.83607(18) 0.63165(15)
N11 N 0.8305(2) 0.92256(19) 0.66377(17)
N12 N 0.7167(2) 0.82743(19) 0.70508(16)
C1 C 0.2431(2) 0.6301(2) -0.02230(19)
H5 H 0.1893 0.6336 0.0094
H6 H 0.2357 0.5711 -0.0508
C2 C 0.2285(2) 0.7082(2) -0.0829(2)
H7 H 0.1582 0.7071 -0.1125
H8 H 0.2392 0.7672 -0.0546
C3 C 0.4988(3) 0.6069(3) 0.0729(2)
H9 H 0.5662 0.5867 0.0760
C4 C 0.3679(2) 0.6673(2) 0.10501(19)
H10 H 0.3227 0.6976 0.1324
C5 C 0.3696(3) 0.6473(3) -0.2291(2)
H11 H 0.3867 0.6079 -0.2683
C6 C 0.3705(3) 0.7608(2) -0.1523(2)
H12 H 0.3857 0.8169 -0.1250
C7 C 0.8833(2) 0.8711(3) 0.5003(2)
H13 H 0.8853 0.9369 0.5136
H14 H 0.9369 0.8592 0.4695
C8 C 0.9053(2) 0.8154(3) 0.5770(2)
H15 H 0.9009 0.7496 0.5637
H16 H 0.9751 0.8282 0.6045
C9 C 0.6255(3) 0.8458(4) 0.4153(2)
H17 H 0.5556 0.8552 0.4137
C10 C 0.7623(3) 0.7985(2) 0.3844(2)
H18 H 0.8107 0.7701 0.3589
C11 C 0.7590(3) 0.9135(2) 0.7076(2)
H19 H 0.7392 0.9621 0.7379
C12 C 0.7666(3) 0.7812(2) 0.6566(2)
H20 H 0.7555 0.7190 0.6421
Cd1C Cd 0.566173(18) 0.782359(17) -0.251222(13)
Cd1C_2 Cd 0.566173(18) 0.782359(17) 0.748778(13)
N6C N 0.4183(2) 0.77127(19) 0.29078(17)
N12C N 0.7167(2) 0.67257(19) 0.20508(16)
S1 S 0.73354(7) 0.98245(6) 0.01667(5)
O3 O 0.9883(2) 0.78203(16) -0.11380(17)
O4 O 1.0399(2) 0.86690(17) -0.20886(15)
H21 H 1.052(4) 0.809(4) -0.231(3)
O5 O 0.94669(19) 1.20562(15) -0.23223(15)
O6 O 0.84544(19) 1.26247(15) -0.15268(16)
O7 O 0.7290(3) 1.0628(2) 0.0644(2)
O8 O 0.7680(3) 0.9037(3) 0.0639(3)
O9 O 0.6389(3) 0.9667(4) -0.0362(2)
C13 C 0.9459(2) 0.9426(2) -0.12115(18)
C14 C 0.9522(2) 1.0294(2) -0.15575(18)
H22 H 0.9964 1.0382 -0.1919
C15 C 0.8933(2) 1.1036(2) -0.13698(18)
C16 C 0.8288(2) 1.0901(2) -0.08193(19)
H23 H 0.7891 1.1392 -0.0688
C17 C 0.8235(3) 1.0037(2) -0.04664(18)
C18 C 0.8823(2) 0.9308(2) -0.06555(19)
H24 H 0.8793 0.8732 -0.0408
C19 C 0.9955(2) 0.8567(2) -0.1468(2)
C20 C 0.8946(2) 1.1984(2) -0.17678(19)
O10 O 0.8245(2) 1.45591(19) -0.15555(19)
H25 H 0.840(3) 1.3988(15) -0.158(3)
H26 H 0.877(2) 1.487(3) -0.157(3)
O11 O 0.6666(2) 1.4831(2) -0.28569(18)
H27 H 0.721(2) 1.513(3) -0.274(3)
O12 O 1.0096(2) 1.56407(19) -0.14748(18)
H28 H 1.054(3) 1.525(2) -0.155(3)
H29 H 1.017(3) 1.610(2) -0.178(2)
O13 O 0.4906(2) 0.8531(2) 0.01789(19)
H30 H 0.543(2) 0.870(3) -0.002(3)
H31 H 0.440(2) 0.890(3) 0.009(3)
loop_
_geom_bond_atom_site_label_1
_geom_bond_atom_site_label_2
_geom_bond_site_symmetry_1
_geom_bond_site_symmetry_2
Cd1 O1 1_555 1_555
O1 H1 1_555 1_555
H2 O1 1_555 1_555
O2 Cd1 1_555 1_555
H3 O2 1_555 1_555
H4 O2 1_555 1_555
N1 N2 1_555 1_555
N2 C3 1_555 1_555
N3 Cd1 1_555 1_555
N4 N5 1_555 1_555
N5 C5 1_555 1_555
N6 C5 1_555 1_555
N7 N8 1_555 1_555
N8 C9 1_555 1_555
N9 Cd1 1_555 1_555
N10 N11 1_555 1_555
N11 C11 1_555 1_555
N12 C11 1_555 1_555
C1 N1 1_555 1_555
H5 C1 1_555 1_555
H6 C1 1_555 1_555
C2 N4 1_555 1_555
H7 C2 1_555 1_555
H8 C2 1_555 1_555
C3 N3 1_555 1_555
H9 C3 1_555 1_555
C4 N1 1_555 1_555
H10 C4 1_555 1_555
C5 H11 1_555 1_555
C6 N4 1_555 1_555
H12 C6 1_555 1_555
C7 N7 1_555 1_555
H13 C7 1_555 1_555
H14 C7 1_555 1_555
C8 N10 1_555 1_555
H15 C8 1_555 1_555
H16 C8 1_555 1_555
C9 N9 1_555 1_555
H17 C9 1_555 1_555
C10 N7 1_555 1_555
H18 C10 1_555 1_555
C11 H19 1_555 1_555
C12 N10 1_555 1_555
H20 C12 1_555 1_555
S1 O7 1_555 1_555
O3 C19 1_555 1_555
O4 H21 1_555 1_555
O5 C20 1_555 1_555
O6 C20 1_555 1_555
O8 S1 1_555 1_555
O9 S1 1_555 1_555
C13 C14 1_555 1_555
C14 H22 1_555 1_555
C15 C14 1_555 1_555
C16 C15 1_555 1_555
H23 C16 1_555 1_555
C17 S1 1_555 1_555
C18 C13 1_555 1_555
H24 C18 1_555 1_555
C19 O4 1_555 1_555
C20 C15 1_555 1_555
O10 H25 1_555 1_555
H26 O10 1_555 1_555
O11 H27 1_555 1_555
O12 H28 1_555 1_555
H29 O12 1_555 1_555
O13 H30 1_555 1_555
H31 O13 1_555 1_555
Cd1C N6 1_555 1_555
Cd1C_2 N12 1_555 1_555
N6C Cd1 1_555 1_555
N12C Cd1 1_555 1_555
N3 C4 1_555 1_555
N6 C6 1_555 1_555
N9 C10 1_555 1_555
N12 C12 1_555 1_555
C1 C2 1_555 1_555
C7 C8 1_555 1_555
C13 C19 1_555 1_555
C16 C17 1_555 1_555
C17 C18 1_555 1_555

#END
