
#######################################################################
#
#                 Cambridge Crystallographic Data Centre
#                                CCDC 
#
#######################################################################
#
# If this CIF has been generated from an entry in the Cambridge 
# Structural Database, then it will include bibliographic, chemical, 
# crystal, experimental, refinement or atomic coordinate data resulting 
# from the CCDC's data processing and validation procedures.
#
#######################################################################

data_ZIYPII
_symmetry_cell_setting           triclinic
_symmetry_space_group_name_H-M   'P -1'
_symmetry_Int_Tables_number      2
_space_group_name_Hall           '-P 1'
loop_
_symmetry_equiv_pos_site_id
_symmetry_equiv_pos_as_xyz
1 x,y,z
2 -x,-y,-z
_cell_length_a                   7.6185(4)
_cell_length_b                   9.5814(14)
_cell_length_c                   10.5272(16)
_cell_angle_alpha                85.45(2)
_cell_angle_beta                 69.833(14)
_cell_angle_gamma                70.509(13)
_cell_volume                     679.44
loop_
_atom_site_label
_atom_site_type_symbol
_atom_site_fract_x
_atom_site_fract_y
_atom_site_fract_z
Cd1 Cd 0.04327(3) 0.295056(19) 0.449697(18)
O1 O 0.1682(3) 0.4525(2) 0.5490(2)
O2 O -0.0013(3) 0.5676(2) 0.7488(2)
O3 O 0.7475(3) -0.0290(2) 0.5348(2)
O4 O 0.6465(3) -0.1780(2) 0.6901(2)
O5 O 0.1675(4) 0.1720(3) 1.0805(2)
H1 H 0.0942 0.2523 1.1186
O6 O -0.1431(4) 0.1902(3) 0.3877(3)
N1 N -0.3774(4) 0.3554(3) 0.8611(2)
N2 N -0.2593(4) 0.2204(3) 0.8841(3)
N3 N -0.1495(4) 0.2772(3) 0.6661(2)
C1 C -0.5390(5) 0.4501(4) 0.9720(3)
H2 H -0.5926 0.3896 1.0430
H3 H -0.6441 0.5102 0.9394
C2 C -0.1266(5) 0.1781(3) 0.7642(3)
H4 H -0.0248 0.0876 0.7472
C3 C -0.3097(4) 0.3859(3) 0.7322(3)
H5 H -0.3670 0.4719 0.6936
C4 C 0.2222(4) 0.3234(3) 0.7423(3)
C5 C 0.3801(4) 0.2068(3) 0.6634(3)
H6 H 0.4324 0.2144 0.5702
C6 C 0.4587(4) 0.0786(3) 0.7254(3)
C7 C 0.3829(4) 0.0698(3) 0.8651(3)
H7 H 0.4351 -0.0160 0.9061
C8 C 0.2300(4) 0.1879(3) 0.9441(3)
C9 C 0.1498(4) 0.3145(3) 0.8820(3)
H8 H 0.0470 0.3937 0.9343
C10 C 0.1251(4) 0.4562(3) 0.6765(3)
C11 C 0.6277(4) -0.0488(3) 0.6437(3)
H9 H -0.185(5) 0.210(3) 0.320(3)
H10 H -0.197(4) 0.134(3) 0.442(3)
N1A N -0.6226(4) 0.6446(3) 1.1389(2)
N2A N -0.7407(4) 0.7796(3) 1.1159(3)
N3A N -0.8505(4) 0.7228(3) 1.3339(2)
C1A C -0.4610(5) 0.5499(4) 1.0280(3)
H2A H -0.4074 0.6104 0.9570
H3A H -0.3559 0.4898 1.0606
C2A C -0.8734(5) 0.8219(3) 1.2358(3)
H4A H -0.9752 0.9124 1.2528
C3A C -0.6903(4) 0.6141(3) 1.2678(3)
H5A H -0.6330 0.5281 1.3064
Cd1A Cd -1.04327(3) 0.704944(19) 1.550303(18)
O1A O -1.1682(3) 0.5475(2) 1.4510(2)
O2A O -0.9987(3) 0.4324(2) 1.2512(2)
O3A O -1.7475(3) 1.0290(2) 1.4652(2)
O4A O -1.6465(3) 1.1780(2) 1.3099(2)
O5A O -1.1675(4) 0.8280(3) 0.9195(2)
H1A H -1.0942 0.7477 0.8814
O6A O -0.8569(4) 0.8098(3) 1.6123(3)
C4A C -1.2222(4) 0.6766(3) 1.2577(3)
C5A C -1.3801(4) 0.7932(3) 1.3366(3)
H6A H -1.4324 0.7856 1.4298
C6A C -1.4587(4) 0.9214(3) 1.2746(3)
C7A C -1.3829(4) 0.9302(3) 1.1349(3)
H7A H -1.4351 1.0160 1.0939
C8A C -1.2300(4) 0.8121(3) 1.0559(3)
C9A C -1.1498(4) 0.6855(3) 1.1180(3)
H8A H -1.0470 0.6063 1.0657
C10A C -1.1251(4) 0.5438(3) 1.3235(3)
C11A C -1.6277(4) 1.0488(3) 1.3563(3)
H9A H -0.815(5) 0.790(3) 1.680(3)
H10A H -0.803(4) 0.866(3) 1.558(3)
Cd1_2 Cd -1.95673(3) 1.295056(19) 1.449697(18)
Cd1_3 Cd -0.95673(3) 0.295056(19) 1.449697(18)
Cd1A_2 Cd -0.04327(3) 0.704944(19) 0.550303(18)
Cd1A_3 Cd 0.95673(3) -0.295056(19) 0.550303(18)
O1_2 O -0.8318(3) 0.4525(2) 1.5490(2)
O1A_2 O -0.1682(3) 0.5475(2) 0.4510(2)
O2_2 O -1.0013(3) 0.5676(2) 1.7488(2)
O2A_2 O 0.0013(3) 0.4324(2) 0.2512(2)
O3_2 O -1.2525(3) 0.9710(2) 1.5348(2)
O3A_2 O 0.2525(3) 0.0290(2) 0.4652(2)
O4_2 O -1.3535(3) 0.8220(2) 1.6901(2)
O4A_2 O 0.3535(3) 0.1780(2) 0.3099(2)
O7 O 0.3148(5) -0.2561(3) 0.8095(3)
H11 H 0.419(4) -0.231(3) 0.769(3)
H12 H 0.228(4) -0.190(3) 0.870(3)
loop_
_geom_bond_atom_site_label_1
_geom_bond_atom_site_label_2
_geom_bond_site_symmetry_1
_geom_bond_site_symmetry_2
Cd1 O1 1_555 1_555
O1 C10 1_555 1_555
O2 C10 1_555 1_555
O3 C11 1_555 1_555
O4 C11 1_555 1_555
O5 H1 1_555 1_555
O6 Cd1 1_555 1_555
N1 N2 1_555 1_555
N2 C2 1_555 1_555
N3 Cd1 1_555 1_555
C1 N1 1_555 1_555
H2 C1 1_555 1_555
H3 C1 1_555 1_555
C2 N3 1_555 1_555
H4 C2 1_555 1_555
C3 N1 1_555 1_555
H5 C3 1_555 1_555
C4 C5 1_555 1_555
C5 H6 1_555 1_555
C6 C5 1_555 1_555
C7 C6 1_555 1_555
H7 C7 1_555 1_555
C8 O5 1_555 1_555
C9 C4 1_555 1_555
H8 C9 1_555 1_555
C10 C4 1_555 1_555
C11 C6 1_555 1_555
H9 O6 1_555 1_555
H10 O6 1_555 1_555
O7 H11 1_555 1_555
H12 O7 1_555 1_555
N1A N2A 1_555 1_555
N2A C2A 1_555 1_555
N3A C2A 1_555 1_555
C1A C1 1_555 1_555
H2A C1A 1_555 1_555
H3A C1A 1_555 1_555
C2A H4A 1_555 1_555
C3A N1A 1_555 1_555
H5A C3A 1_555 1_555
Cd1A N3A 1_555 1_555
O1A Cd1A 1_555 1_555
O2A C10A 1_555 1_555
O3A C11A 1_555 1_555
O4A C11A 1_555 1_555
O5A H1A 1_555 1_555
O6A Cd1A 1_555 1_555
C4A C5A 1_555 1_555
C5A H6A 1_555 1_555
C6A C5A 1_555 1_555
C7A C6A 1_555 1_555
H7A C7A 1_555 1_555
C8A O5A 1_555 1_555
C9A C4A 1_555 1_555
H8A C9A 1_555 1_555
C10A O1A 1_555 1_555
C11A C6A 1_555 1_555
H9A O6A 1_555 1_555
H10A O6A 1_555 1_555
Cd1_2 O3A 1_555 1_555
Cd1_3 O1A 1_555 1_555
Cd1A_2 O1 1_555 1_555
Cd1A_3 O3 1_555 1_555
O1_2 Cd1A 1_555 1_555
O1A_2 Cd1 1_555 1_555
O2_2 Cd1A 1_555 1_555
O2A_2 Cd1 1_555 1_555
O3_2 Cd1A 1_555 1_555
O3A_2 Cd1 1_555 1_555
O4_2 Cd1A 1_555 1_555
O4A_2 Cd1 1_555 1_555
O2 Cd1A_2 1_555 1_555
O4 Cd1A_3 1_555 1_555
N3 C3 1_555 1_555
C7 C8 1_555 1_555
C8 C9 1_555 1_555
N1A C1A 1_555 1_555
N3A C3A 1_555 1_555
O2A Cd1_3 1_555 1_555
O4A Cd1_2 1_555 1_555
C4A C10A 1_555 1_555
C7A C8A 1_555 1_555
C8A C9A 1_555 1_555
Cd1_3 O1_2 1_555 1_555
Cd1A_2 O1A_2 1_555 1_555

#END
