
#######################################################################
#
#                 Cambridge Crystallographic Data Centre
#                                CCDC 
#
#######################################################################
#
# If this CIF has been generated from an entry in the Cambridge 
# Structural Database, then it will include bibliographic, chemical, 
# crystal, experimental, refinement or atomic coordinate data resulting 
# from the CCDC's data processing and validation procedures.
#
#######################################################################

data_ZIYQOP
_symmetry_cell_setting           triclinic
_symmetry_space_group_name_H-M   'P -1'
_symmetry_Int_Tables_number      2
_space_group_name_Hall           '-P 1'
loop_
_symmetry_equiv_pos_site_id
_symmetry_equiv_pos_as_xyz
1 x,y,z
2 -x,-y,-z
_cell_length_a                   8.891(3)
_cell_length_b                   9.658(3)
_cell_length_c                   13.359(4)
_cell_angle_alpha                100.128(4)
_cell_angle_beta                 90.511(3)
_cell_angle_gamma                116.456(4)
_cell_volume                     1006.03
loop_
_atom_site_label
_atom_site_type_symbol
_atom_site_fract_x
_atom_site_fract_y
_atom_site_fract_z
Cd1 Cd 0.95748(3) 0.71777(3) 0.739256(19)
Cd2 Cd 1.0000 0.5000 0.5000
S1 S 0.34503(13) 0.15922(12) 0.28326(8)
O1 O 0.7974(3) 0.5334(3) 0.59907(19)
O2 O 0.7002(3) 0.4440(3) 0.7380(2)
O3 O 0.1844(4) -0.0956(3) 0.6894(2)
O4 O 0.1200(4) -0.2389(3) 0.5309(2)
O5 O 0.1658(4) 0.1205(3) 0.2693(2)
O6 O 0.4542(4) 0.3122(4) 0.2637(3)
O7 O 0.3710(4) 0.0296(4) 0.2289(2)
N1 N 0.9604(4) 0.7727(4) 0.9097(2)
N2 N 1.0970(5) 0.8002(6) 0.9735(3)
N3 N 0.8932(4) 0.7948(4) 1.0648(2)
N4 N 0.8876(4) 0.5187(4) 1.3481(2)
N5 N 0.8947(4) 0.4303(4) 1.2561(2)
N6 N 0.7745(4) 0.5731(4) 1.2248(2)
C1 C 0.7944(6) 0.7986(5) 1.1517(3)
H1 H 0.7249 0.8487 1.1387
H2 H 0.8709 0.8619 1.2125
C2 C 0.6825(5) 0.6356(5) 1.1708(3)
H3 H 0.5934 0.6396 1.2107
H4 H 0.6300 0.5643 1.1059
C3 C 0.8407(5) 0.7709(5) 0.9663(3)
H5 H 0.7349 0.7553 0.9418
C4 C 1.0518(6) 0.8130(6) 1.0649(3)
H6 H 1.1208 0.8325 1.1237
C5 C 0.8157(5) 0.6011(5) 1.3253(3)
H7 H 0.7951 0.6715 1.3732
C6 C 0.8256(5) 0.4648(5) 1.1843(3)
H8 H 0.8132 0.4211 1.1151
C7 C 0.5467(4) 0.2899(4) 0.5776(3)
C8 C 0.4458(4) 0.1580(4) 0.6166(3)
H9 H 0.4665 0.1561 0.6846
C9 C 0.3137(5) 0.0284(4) 0.5548(3)
C10 C 0.2867(5) 0.0304(4) 0.4530(3)
H10 H 0.2017 -0.0575 0.4106
C11 C 0.3860(4) 0.1633(4) 0.4138(3)
C12 C 0.5154(4) 0.2927(4) 0.4760(3)
H11 H 0.5815 0.3816 0.4498
C13 C 0.6899(4) 0.4285(4) 0.6434(3)
C14 C 0.1988(4) -0.1144(4) 0.5947(3)
Cd1A Cd 0.04252(3) -0.71777(3) 0.260744(19)
S1A S 0.65497(13) -0.15922(12) 0.71674(8)
O1A O 0.2026(3) -0.5334(3) 0.40093(19)
O2A O 0.2998(3) -0.4440(3) 0.2620(2)
O3A O 0.8156(4) 0.0956(3) 0.3106(2)
O4A O 0.8800(4) 0.2389(3) 0.4691(2)
O5A O 0.8342(4) -0.1205(3) 0.7307(2)
O6A O 0.5458(4) -0.3122(4) 0.7363(3)
O7A O 0.6290(4) -0.0296(4) 0.7711(2)
N1A N 0.0396(4) -0.7727(4) 0.0903(2)
N2A N -0.0970(5) -0.8002(6) 0.0265(3)
N3A N 0.1068(4) -0.7948(4) -0.0648(2)
N4A N 0.1124(4) -0.5187(4) -0.3481(2)
N5A N 0.1053(4) -0.4303(4) -0.2561(2)
N6A N 0.2255(4) -0.5731(4) -0.2248(2)
C1A C 0.2056(6) -0.7986(5) -0.1517(3)
H1A H 0.2751 -0.8487 -0.1387
H2A H 0.1291 -0.8619 -0.2125
C2A C 0.3175(5) -0.6356(5) -0.1708(3)
H3A H 0.4066 -0.6396 -0.2107
H4A H 0.3700 -0.5643 -0.1059
C3A C 0.1593(5) -0.7709(5) 0.0337(3)
H5A H 0.2651 -0.7553 0.0582
C4A C -0.0518(6) -0.8130(6) -0.0649(3)
H6A H -0.1208 -0.8325 -0.1237
C5A C 0.1843(5) -0.6011(5) -0.3253(3)
H7A H 0.2049 -0.6715 -0.3732
C6A C 0.1744(5) -0.4648(5) -0.1843(3)
H8A H 0.1868 -0.4211 -0.1151
C7A C 0.4533(4) -0.2899(4) 0.4224(3)
C8A C 0.5542(4) -0.1580(4) 0.3834(3)
H9A H 0.5335 -0.1561 0.3154
C9A C 0.6863(5) -0.0284(4) 0.4452(3)
C10A C 0.7133(5) -0.0304(4) 0.5470(3)
H10A H 0.7983 0.0575 0.5894
C11A C 0.6140(4) -0.1633(4) 0.5862(3)
C12A C 0.4846(4) -0.2927(4) 0.5240(3)
H11A H 0.4185 -0.3816 0.5502
C13A C 0.3101(4) -0.4285(4) 0.3566(3)
C14A C 0.8012(4) 0.1144(4) 0.4053(3)
Cd1_2 Cd -0.04252(3) -0.28223(3) -0.260744(19)
Cd1_3 Cd -0.04252(3) -0.28223(3) 0.739256(19)
Cd1_4 Cd 0.95748(3) -0.28223(3) 0.739256(19)
Cd1A_2 Cd 0.04252(3) 0.28223(3) 0.260744(19)
Cd1A_3 Cd 1.04252(3) 0.28223(3) 0.260744(19)
Cd1A_4 Cd 1.04252(3) 0.28223(3) 1.260744(19)
Cd2_2 Cd 0.0000 -0.5000 -0.5000
Cd2_3 Cd 0.0000 -0.5000 0.5000
Cd2_4 Cd 1.0000 0.5000 1.5000
O1A_2 O 1.2026(3) 0.4666(3) 0.40093(19)
O3_2 O 1.1844(4) 0.9044(3) 0.6894(2)
O3A_2 O -0.1844(4) -0.9044(3) 0.3106(2)
O4_2 O 1.1200(4) 0.7611(3) 0.5309(2)
O5_2 O 0.1658(4) -0.8795(3) 0.2693(2)
O5A_2 O 0.8342(4) 0.8795(3) 0.7307(2)
N4_2 N 0.8876(4) 0.5187(4) 0.3481(2)
N4A_2 N 1.1124(4) 0.4813(4) 0.6519(2)
N5_2 N -0.1053(4) -0.5697(4) 0.2561(2)
N5A_2 N 1.1053(4) 0.5697(4) 0.7439(2)
O8 O 1.4485(6) 1.0492(6) 0.9175(3)
H12 H 1.446(6) 1.048(6) 0.8537(18)
H13 H 1.454(8) 0.965(4) 0.9207(14)
O9 O 1.3399(7) 0.6170(6) 0.0516(3)
H14 H 1.268(5) 0.609(8) 0.095(2)
H15 H 1.398(8) 0.716(3) 0.057(5)
loop_
_geom_bond_atom_site_label_1
_geom_bond_atom_site_label_2
_geom_bond_site_symmetry_1
_geom_bond_site_symmetry_2
Cd1 O1 1_555 1_555
Cd2 O1 1_555 1_555
S1 O5 1_555 1_555
O1 C13 1_555 1_555
O2 Cd1 1_555 1_555
O3 C14 1_555 1_555
O4 C14 1_555 1_555
O5 Cd1A_2 1_555 1_555
O6 S1 1_555 1_555
O7 S1 1_555 1_555
N1 Cd1 1_555 1_555
N2 N1 1_555 1_555
N3 C1 1_555 1_555
N4 N5 1_555 1_555
N5 C6 1_555 1_555
N6 C2 1_555 1_555
C1 H1 1_555 1_555
H2 C1 1_555 1_555
C2 C1 1_555 1_555
H3 C2 1_555 1_555
H4 C2 1_555 1_555
C3 N1 1_555 1_555
H5 C3 1_555 1_555
C4 N2 1_555 1_555
H6 C4 1_555 1_555
C5 N4 1_555 1_555
H7 C5 1_555 1_555
C6 N6 1_555 1_555
H8 C6 1_555 1_555
C7 C8 1_555 1_555
C8 H9 1_555 1_555
C9 C8 1_555 1_555
C10 C9 1_555 1_555
H10 C10 1_555 1_555
C11 S1 1_555 1_555
C12 C7 1_555 1_555
H11 C12 1_555 1_555
C13 O2 1_555 1_555
C14 C9 1_555 1_555
O8 H12 1_555 1_555
H13 O8 1_555 1_555
O9 H14 1_555 1_555
H15 O9 1_555 1_555
Cd1A O1A 1_555 1_555
S1A O5A 1_555 1_555
O1A C13A 1_555 1_555
O2A Cd1A 1_555 1_555
O3A C14A 1_555 1_555
O4A Cd2 1_555 1_555
O5A Cd1_4 1_555 1_555
O6A S1A 1_555 1_555
O7A S1A 1_555 1_555
N1A Cd1A 1_555 1_555
N2A N1A 1_555 1_555
N3A C1A 1_555 1_555
N4A N5A 1_555 1_555
N5A C6A 1_555 1_555
N6A C2A 1_555 1_555
C1A H1A 1_555 1_555
H2A C1A 1_555 1_555
C2A C1A 1_555 1_555
H3A C2A 1_555 1_555
H4A C2A 1_555 1_555
C3A N1A 1_555 1_555
H5A C3A 1_555 1_555
C4A N2A 1_555 1_555
H6A C4A 1_555 1_555
C5A N4A 1_555 1_555
H7A C5A 1_555 1_555
C6A N6A 1_555 1_555
H8A C6A 1_555 1_555
C7A C8A 1_555 1_555
C8A H9A 1_555 1_555
C9A C8A 1_555 1_555
C10A C9A 1_555 1_555
H10A C10A 1_555 1_555
C11A S1A 1_555 1_555
C12A C7A 1_555 1_555
H11A C12A 1_555 1_555
C13A O2A 1_555 1_555
C14A O4A 1_555 1_555
Cd1_2 N5A 1_555 1_555
Cd1_3 O3 1_555 1_555
Cd1A_3 O3A 1_555 1_555
Cd1A_4 N5 1_555 1_555
Cd2_2 N4A 1_555 1_555
Cd2_3 O4 1_555 1_555
Cd2_4 N4 1_555 1_555
O1A_2 Cd2 1_555 1_555
O3_2 Cd1 1_555 1_555
O3A_2 Cd1A 1_555 1_555
O4_2 Cd2 1_555 1_555
O5_2 Cd1A 1_555 1_555
O5A_2 Cd1 1_555 1_555
N4_2 Cd2 1_555 1_555
N4A_2 Cd2 1_555 1_555
N5_2 Cd1A 1_555 1_555
N5A_2 Cd1 1_555 1_555
N3 C3 1_555 1_555
N3 C4 1_555 1_555
N6 C5 1_555 1_555
C7 C13 1_555 1_555
C10 C11 1_555 1_555
C11 C12 1_555 1_555
O1A Cd2_3 1_555 1_555
N3A C3A 1_555 1_555
N3A C4A 1_555 1_555
N6A C5A 1_555 1_555
C7A C13A 1_555 1_555
C9A C14A 1_555 1_555
C10A C11A 1_555 1_555
C11A C12A 1_555 1_555
Cd1A_3 O1A_2 1_555 1_555
N4A_2 N5A_2 1_555 1_555

#END
