
#######################################################################
#
#                 Cambridge Crystallographic Data Centre
#                                CCDC 
#
#######################################################################
#
# If this CIF has been generated from an entry in the Cambridge 
# Structural Database, then it will include bibliographic, chemical, 
# crystal, experimental, refinement or atomic coordinate data resulting 
# from the CCDC's data processing and validation procedures.
#
#######################################################################

data_ZIYQEF
_symmetry_cell_setting           orthorhombic
_symmetry_space_group_name_H-M   'P b c n'
_symmetry_Int_Tables_number      60
_space_group_name_Hall           '-P 2n 2ab'
loop_
_symmetry_equiv_pos_site_id
_symmetry_equiv_pos_as_xyz
1 x,y,z
2 1/2-x,1/2-y,1/2+z
3 1/2+x,1/2-y,-z
4 -x,y,1/2-z
5 -x,-y,-z
6 1/2+x,1/2+y,1/2-z
7 1/2-x,1/2+y,z
8 x,-y,1/2+z
_cell_length_a                   19.6725(14)
_cell_length_b                   10.3235(7)
_cell_length_c                   10.5318(7)
_cell_angle_alpha                90
_cell_angle_beta                 90
_cell_angle_gamma                90
_cell_volume                     2138.89
loop_
_atom_site_label
_atom_site_type_symbol
_atom_site_fract_x
_atom_site_fract_y
_atom_site_fract_z
Cd1 Cd 0.5000 0.61808(3) 0.2500
O1 O 0.58309(11) 0.4438(2) 0.22783(19)
O2 O 0.58662(10) 0.5801(2) 0.38767(19)
O3 O 0.85837(10) 0.2804(2) 0.50713(19)
N1 N 0.46336(12) 0.7510(2) 0.4066(2)
N2 N 0.42796(15) 0.8658(3) 0.3937(3)
N3 N 0.45603(12) 0.8388(2) 0.5935(2)
C1 C 0.46221(17) 0.8584(3) 0.7310(3)
H1 H 0.4383 0.7890 0.7761
H2 H 0.4414 0.9411 0.7548
C2 C 0.47950(15) 0.7375(3) 0.5260(3)
H3 H 0.5039 0.6674 0.5599
C3 C 0.42472(17) 0.9155(3) 0.5072(3)
H4 H 0.4034 0.9945 0.5267
C4 C 0.67501(14) 0.4241(3) 0.3749(3)
C5 C 0.70027(15) 0.4598(3) 0.4935(3)
H5 H 0.6756 0.5180 0.5444
C6 C 0.76156(16) 0.4100(3) 0.5367(3)
H6 H 0.7786 0.4347 0.6165
C7 C 0.79747(14) 0.3236(3) 0.4614(3)
C8 C 0.77221(14) 0.2861(3) 0.3440(3)
H7 H 0.7966 0.2271 0.2936
C9 C 0.71116(15) 0.3354(3) 0.3016(3)
H8 H 0.6938 0.3090 0.2226
C10 C 0.61163(13) 0.4842(3) 0.3261(3)
N1C N 0.53664(12) 0.7510(2) 1.0934(2)
N2C N 0.57204(15) 0.8658(3) 1.1063(3)
N3C N 0.54397(12) 0.8388(2) 0.9065(2)
C1C C 0.53779(17) 0.8584(3) 0.7690(3)
H1C H 0.5617 0.7890 0.7239
H2C H 0.5586 0.9411 0.7452
C2C C 0.52050(15) 0.7375(3) 0.9740(3)
H3C H 0.4961 0.6674 0.9401
C3C C 0.57528(17) 0.9155(3) 0.9928(3)
H4C H 0.5966 0.9945 0.9733
O1C O 0.41691(11) 0.4438(2) 0.27217(19)
O2C O 0.41338(10) 0.5801(2) 0.11233(19)
O3C O 0.14163(10) 0.2804(2) -0.00713(19)
C4C C 0.32499(14) 0.4241(3) 0.1251(3)
C5C C 0.29973(15) 0.4598(3) 0.0065(3)
H5C H 0.3244 0.5180 -0.0444
C6C C 0.23844(16) 0.4100(3) -0.0367(3)
H6C H 0.2214 0.4347 -0.1165
C7C C 0.20253(14) 0.3236(3) 0.0386(3)
C8C C 0.22779(14) 0.2861(3) 0.1560(3)
H7C H 0.2034 0.2271 0.2064
C9C C 0.28884(15) 0.3354(3) 0.1984(3)
H8C H 0.3062 0.3090 0.2774
C10C C 0.38837(13) 0.4842(3) 0.1739(3)
Cd1_2 Cd 0.5000 0.61808(3) 1.2500
N1C_2 N 0.53664(12) 0.7510(2) 0.0934(2)
loop_
_geom_bond_atom_site_label_1
_geom_bond_atom_site_label_2
_geom_bond_site_symmetry_1
_geom_bond_site_symmetry_2
Cd1 O1 1_555 1_555
O1 C10 1_555 1_555
O2 Cd1 1_555 1_555
O3 C7 1_555 1_555
N1 Cd1 1_555 1_555
N2 N1 1_555 1_555
N3 C1 1_555 1_555
C1 H1 1_555 1_555
H2 C1 1_555 1_555
C2 N1 1_555 1_555
H3 C2 1_555 1_555
C3 N2 1_555 1_555
H4 C3 1_555 1_555
C4 C5 1_555 1_555
C5 H5 1_555 1_555
C6 C5 1_555 1_555
H6 C6 1_555 1_555
C7 C6 1_555 1_555
C8 C7 1_555 1_555
H7 C8 1_555 1_555
C9 C4 1_555 1_555
H8 C9 1_555 1_555
C10 O2 1_555 1_555
N1C N2C 1_555 1_555
N2C C3C 1_555 1_555
N3C C1C 1_555 1_555
C1C C1 1_555 1_555
H1C C1C 1_555 1_555
H2C C1C 1_555 1_555
C2C N1C 1_555 1_555
H3C C2C 1_555 1_555
C3C N3C 1_555 1_555
H4C C3C 1_555 1_555
O1C Cd1 1_555 1_555
O2C Cd1 1_555 1_555
O3C C7C 1_555 1_555
C4C C5C 1_555 1_555
C5C H5C 1_555 1_555
C6C C5C 1_555 1_555
H6C C6C 1_555 1_555
C7C C6C 1_555 1_555
C8C C7C 1_555 1_555
H7C C8C 1_555 1_555
C9C C4C 1_555 1_555
H8C C9C 1_555 1_555
C10C O1C 1_555 1_555
Cd1_2 N1C 1_555 1_555
N1C_2 Cd1 1_555 1_555
N3 C2 1_555 1_555
N3 C3 1_555 1_555
C4 C10 1_555 1_555
C8 C9 1_555 1_555
N3C C2C 1_555 1_555
O2C C10C 1_555 1_555
C4C C10C 1_555 1_555
C8C C9C 1_555 1_555

#END
