
#######################################################################
#
#                 Cambridge Crystallographic Data Centre
#                                CCDC 
#
#######################################################################
#
# If this CIF has been generated from an entry in the Cambridge 
# Structural Database, then it will include bibliographic, chemical, 
# crystal, experimental, refinement or atomic coordinate data resulting 
# from the CCDC's data processing and validation procedures.
#
#######################################################################

data_ZIYQIJ
_symmetry_cell_setting           triclinic
_symmetry_space_group_name_H-M   'P -1'
_symmetry_Int_Tables_number      2
_space_group_name_Hall           '-P 1'
loop_
_symmetry_equiv_pos_site_id
_symmetry_equiv_pos_as_xyz
1 x,y,z
2 -x,-y,-z
_cell_length_a                   8.0884(14)
_cell_length_b                   9.9983(19)
_cell_length_c                   10.646(2)
_cell_angle_alpha                113.859(3)
_cell_angle_beta                 95.105(2)
_cell_angle_gamma                91.085(2)
_cell_volume                     782.821
loop_
_atom_site_label
_atom_site_type_symbol
_atom_site_fract_x
_atom_site_fract_y
_atom_site_fract_z
Cd1 Cd 0.02998(3) 1.08913(2) 0.29399(2)
O1 O 0.1728(3) 0.89079(19) 0.1817(2)
O2 O -0.0266(2) 0.82113(19) 0.27518(18)
O3 O 0.0652(2) 0.33760(19) 0.31172(19)
O4 O 0.1951(3) 0.1694(2) 0.1547(2)
O5 O 0.4216(3) 0.2879(2) -0.2038(2)
O6 O 0.3434(3) 0.4794(2) -0.2328(2)
O7 O -0.1787(3) 1.0451(3) 0.1172(3)
H1 H -0.171(4) 0.981(3) 0.048(3)
H2 H -0.273(4) 1.047(4) 0.131(4)
O8 O 0.1900(3) 1.1234(3) 0.4946(2)
H3 H 0.127(4) 1.155(3) 0.551(3)
H4 H 0.223(4) 1.058(3) 0.499(3)
N1 N -0.4066(3) 1.3196(2) 0.4577(2)
N2 N -0.1859(3) 1.1932(2) 0.4218(2)
N3 N -0.2897(3) 1.1377(2) 0.4873(2)
N4 N 0.3528(3) 0.4033(3) -0.1670(2)
C1 C -0.5301(3) 1.4219(3) 0.4521(3)
H5 H -0.6348 1.3967 0.4792
H6 H -0.5509 1.4143 0.3572
C2 C -0.2600(4) 1.3022(3) 0.4060(3)
H7 H -0.2161 1.3598 0.3642
C3 C -0.4191(4) 1.2144(3) 0.5067(3)
H8 H -0.5102 1.1993 0.5494
C4 C 0.1501(3) 0.6412(3) 0.1415(3)
C5 C 0.1228(3) 0.5427(3) 0.2008(3)
H9 H 0.0667 0.5719 0.2805
C6 C 0.1773(3) 0.4021(3) 0.1439(3)
C7 C 0.2571(3) 0.3566(3) 0.0238(3)
H10 H 0.2960 0.2620 -0.0155
C8 C 0.2774(3) 0.4547(3) -0.0355(3)
C9 C 0.2277(3) 0.5956(3) 0.0211(3)
H11 H 0.2459 0.6602 -0.0211
C10 C 0.0935(4) 0.7947(3) 0.2052(3)
C11 C 0.1442(4) 0.2956(3) 0.2078(3)
N1A N -0.5934(3) 1.6804(2) 0.5423(2)
N2A N -0.8141(3) 1.8068(2) 0.5782(2)
N3A N -0.7103(3) 1.8623(2) 0.5127(2)
C1A C -0.4699(3) 1.5781(3) 0.5479(3)
H5A H -0.3652 1.6033 0.5208
H6A H -0.4491 1.5857 0.6428
C2A C -0.7400(4) 1.6978(3) 0.5940(3)
H7A H -0.7839 1.6402 0.6358
C3A C -0.5809(4) 1.7856(3) 0.4933(3)
H8A H -0.4898 1.8007 0.4506
Cd1A Cd -1.02998(3) 1.91087(2) 0.70601(2)
O1A O -1.1728(3) 2.10921(19) 0.8183(2)
O2A O -0.9734(2) 2.17887(19) 0.72482(18)
O3A O -1.0652(2) 2.66240(19) 0.68828(19)
O4A O -1.1951(3) 2.8306(2) 0.8453(2)
O5A O -1.4216(3) 2.7121(2) 1.2038(2)
O6A O -1.3434(3) 2.5206(2) 1.2328(2)
O7A O -0.8213(3) 1.9549(3) 0.8828(3)
H1A H -0.829(4) 2.019(3) 0.952(3)
H2A H -0.727(4) 1.953(4) 0.869(4)
O8A O -1.1900(3) 1.8766(3) 0.5054(2)
H3A H -1.127(4) 1.845(3) 0.449(3)
H4A H -1.223(4) 1.942(3) 0.501(3)
N4A N -1.3528(3) 2.5967(3) 1.1670(2)
C4A C -1.1501(3) 2.3588(3) 0.8585(3)
C5A C -1.1228(3) 2.4573(3) 0.7992(3)
H9A H -1.0667 2.4281 0.7195
C6A C -1.1773(3) 2.5979(3) 0.8561(3)
C7A C -1.2571(3) 2.6434(3) 0.9762(3)
H10A H -1.2960 2.7380 1.0155
C8A C -1.2774(3) 2.5453(3) 1.0355(3)
C9A C -1.2277(3) 2.4044(3) 0.9789(3)
H11A H -1.2459 2.3398 1.0211
C10A C -1.0935(4) 2.2053(3) 0.7948(3)
C11A C -1.1442(4) 2.7044(3) 0.7922(3)
Cd1_2 Cd 0.02998(3) 0.08913(2) 0.29399(2)
Cd1A_2 Cd -1.02998(3) 2.91087(2) 0.70601(2)
O3_2 O 0.0652(2) 1.33760(19) 0.31172(19)
O3A_2 O -1.0652(2) 1.66240(19) 0.68828(19)
O4_2 O 0.1951(3) 1.1694(2) 0.1547(2)
O4A_2 O -1.1951(3) 1.8306(2) 0.8453(2)
O9 O 0.4974(4) 0.0143(4) 0.1656(3)
H12 H 0.459(5) -0.053(4) 0.173(4)
H13 H 0.424(6) 0.065(5) 0.149(5)
loop_
_geom_bond_atom_site_label_1
_geom_bond_atom_site_label_2
_geom_bond_site_symmetry_1
_geom_bond_site_symmetry_2
Cd1 O1 1_555 1_555
O1 C10 1_555 1_555
O2 Cd1 1_555 1_555
O3 C11 1_555 1_555
O4 C11 1_555 1_555
O5 N4 1_555 1_555
O6 N4 1_555 1_555
O7 Cd1 1_555 1_555
H1 O7 1_555 1_555
H2 O7 1_555 1_555
O8 Cd1 1_555 1_555
H3 O8 1_555 1_555
H4 O8 1_555 1_555
N1 C1 1_555 1_555
N2 Cd1 1_555 1_555
N3 N2 1_555 1_555
N4 C8 1_555 1_555
C1 H5 1_555 1_555
H6 C1 1_555 1_555
C2 N1 1_555 1_555
H7 C2 1_555 1_555
C3 N1 1_555 1_555
H8 C3 1_555 1_555
C4 C5 1_555 1_555
C5 H9 1_555 1_555
C6 C5 1_555 1_555
C7 C6 1_555 1_555
H10 C7 1_555 1_555
C8 C7 1_555 1_555
C9 C4 1_555 1_555
H11 C9 1_555 1_555
C10 O2 1_555 1_555
C11 C6 1_555 1_555
O9 H12 1_555 1_555
H13 O9 1_555 1_555
N1A C1A 1_555 1_555
N2A N3A 1_555 1_555
N3A C3A 1_555 1_555
C1A C1 1_555 1_555
H5A C1A 1_555 1_555
H6A C1A 1_555 1_555
C2A N1A 1_555 1_555
H7A C2A 1_555 1_555
C3A N1A 1_555 1_555
H8A C3A 1_555 1_555
Cd1A N2A 1_555 1_555
O1A Cd1A 1_555 1_555
O2A Cd1A 1_555 1_555
O3A C11A 1_555 1_555
O4A C11A 1_555 1_555
O5A N4A 1_555 1_555
O6A N4A 1_555 1_555
O7A Cd1A 1_555 1_555
H1A O7A 1_555 1_555
H2A O7A 1_555 1_555
O8A Cd1A 1_555 1_555
H3A O8A 1_555 1_555
H4A O8A 1_555 1_555
N4A C8A 1_555 1_555
C4A C5A 1_555 1_555
C5A H9A 1_555 1_555
C6A C5A 1_555 1_555
C7A C6A 1_555 1_555
H10A C7A 1_555 1_555
C8A C7A 1_555 1_555
C9A C4A 1_555 1_555
H11A C9A 1_555 1_555
C10A O1A 1_555 1_555
C11A C6A 1_555 1_555
Cd1_2 O3 1_555 1_555
Cd1A_2 O3A 1_555 1_555
O3_2 Cd1 1_555 1_555
O3A_2 Cd1A 1_555 1_555
O4_2 Cd1 1_555 1_555
O4A_2 Cd1A 1_555 1_555
O4 Cd1_2 1_555 1_555
N2 C2 1_555 1_555
N3 C3 1_555 1_555
C4 C10 1_555 1_555
C8 C9 1_555 1_555
N2A C2A 1_555 1_555
O2A C10A 1_555 1_555
O4A Cd1A_2 1_555 1_555
C4A C10A 1_555 1_555
C8A C9A 1_555 1_555

#END
