
#######################################################################
#
#                 Cambridge Crystallographic Data Centre
#                                CCDC 
#
#######################################################################
#
# If this CIF has been generated from an entry in the Cambridge 
# Structural Database, then it will include bibliographic, chemical, 
# crystal, experimental, refinement or atomic coordinate data resulting 
# from the CCDC's data processing and validation procedures.
#
#######################################################################

data_ZIYXEM
_symmetry_cell_setting           monoclinic
_symmetry_space_group_name_H-M   'C 2/c'
_symmetry_Int_Tables_number      15
_space_group_name_Hall           '-C 2yn'
loop_
_symmetry_equiv_pos_site_id
_symmetry_equiv_pos_as_xyz
1 x,y,z
2 -x,y,1/2-z
3 1/2+x,1/2+y,z
4 1/2-x,1/2+y,1/2-z
5 -x,-y,-z
6 x,-y,1/2+z
7 1/2-x,1/2-y,-z
8 1/2+x,1/2-y,1/2+z
_cell_length_a                   20.682(3)
_cell_length_b                   10.4091(13)
_cell_length_c                   19.858(3)
_cell_angle_alpha                90
_cell_angle_beta                 118.104(3)
_cell_angle_gamma                90
_cell_volume                     3771
loop_
_atom_site_label
_atom_site_type_symbol
_atom_site_fract_x
_atom_site_fract_y
_atom_site_fract_z
Cd1 Cd 0.130489(13) 0.90254(2) 0.422558(13)
O1 O 0.09762(14) 1.0696(2) 0.34138(14)
O2 O 0.14781(16) 1.1740(2) 0.45204(15)
O3 O 0.13984(14) 1.6646(2) 0.43678(14)
O4 O 0.10727(15) 1.7540(2) 0.32488(14)
O5 O 0.0692(3) 1.4791(3) 0.10674(18)
O6 O 0.02305(17) 1.2929(3) 0.10272(16)
O7 O 0.24780(15) 0.9351(3) 0.43810(16)
N1 N 0.21499(15) 0.9702(3) 0.66602(16)
N2 N 0.19507(19) 0.8462(3) 0.66872(18)
N3 N 0.17334(17) 0.8994(3) 0.55070(16)
N4 N 0.11044(16) 1.1148(3) 0.68833(16)
N5 N 0.10356(17) 1.2036(3) 0.63571(18)
N6 N -0.00670(16) 1.1233(3) 0.61012(18)
N7 N 0.0534(2) 1.3907(3) 0.13657(19)
C1 C 0.23964(19) 1.0566(4) 0.7313(2)
H1 H 0.2551 1.1382 0.7187
H2 H 0.2823 1.0187 0.7748
C2 C 0.18062(19) 1.0821(4) 0.7537(2)
H3 H 0.1743 1.0056 0.7788
H4 H 0.1961 1.1529 0.7905
C3 C 0.1705(2) 0.8083(4) 0.5977(2)
H5 H 0.1524 0.7251 0.5810
C4 C 0.20115(19) 0.9986(4) 0.5961(2)
H6 H 0.2100 1.0792 0.5806
C5 C 0.0321(2) 1.2054(4) 0.5898(2)
H7 H 0.0100 1.2591 0.5468
C6 C 0.0450(2) 1.0696(3) 0.6725(2)
H8 H 0.0365 1.0075 0.7018
C7 C 0.10805(17) 1.2946(3) 0.33668(19)
C8 C 0.11942(18) 1.4144(3) 0.3712(2)
H9 H 0.1344 1.4195 0.4237
C9 C 0.10912(17) 1.5276(3) 0.32948(19)
C10 C 0.08773(18) 1.5203(3) 0.25195(19)
H10 H 0.0814 1.5951 0.2230
C11 C 0.07597(19) 1.3999(3) 0.2184(2)
C12 C 0.08530(18) 1.2882(3) 0.2586(2)
H11 H 0.0764 1.2083 0.2338
C13 C 0.11874(18) 1.1714(3) 0.3811(2)
C14 C 0.11921(18) 1.6572(3) 0.3662(2)
H12 H 0.258(2) 1.008(2) 0.429(2)
H13 H 0.280(3) 0.905(4) 0.475(3)
Cd1_2 Cd 0.130489(13) 1.90254(2) 0.422558(13)
Cd1D Cd -0.130489(13) 1.09746(2) 0.577442(13)
O3_2 O 0.13984(14) 0.6646(2) 0.43678(14)
O4_2 O 0.10727(15) 0.7540(2) 0.32488(14)
N6D N 0.00670(16) 0.8767(3) 0.38988(18)
O8 O 0.20460(17) 1.3270(3) 0.58126(18)
H14 H 0.178(2) 1.317(4) 0.601(2)
H15 H 0.189(2) 1.281(4) 0.5422(17)
loop_
_geom_bond_atom_site_label_1
_geom_bond_atom_site_label_2
_geom_bond_site_symmetry_1
_geom_bond_site_symmetry_2
Cd1 O1 1_555 1_555
O1 C13 1_555 1_555
O2 C13 1_555 1_555
O3 C14 1_555 1_555
O4 C14 1_555 1_555
O5 N7 1_555 1_555
O6 N7 1_555 1_555
O7 Cd1 1_555 1_555
N1 N2 1_555 1_555
N2 C3 1_555 1_555
N3 Cd1 1_555 1_555
N4 N5 1_555 1_555
N5 C5 1_555 1_555
N6 C5 1_555 1_555
N7 C11 1_555 1_555
C1 N1 1_555 1_555
H1 C1 1_555 1_555
H2 C1 1_555 1_555
C2 N4 1_555 1_555
H3 C2 1_555 1_555
H4 C2 1_555 1_555
C3 N3 1_555 1_555
H5 C3 1_555 1_555
C4 N1 1_555 1_555
H6 C4 1_555 1_555
C5 H7 1_555 1_555
C6 N4 1_555 1_555
H8 C6 1_555 1_555
C7 C8 1_555 1_555
C8 H9 1_555 1_555
C9 C8 1_555 1_555
C10 C9 1_555 1_555
H10 C10 1_555 1_555
C11 C10 1_555 1_555
C12 C7 1_555 1_555
H11 C12 1_555 1_555
C13 C7 1_555 1_555
C14 C9 1_555 1_555
H12 O7 1_555 1_555
H13 O7 1_555 1_555
O8 H14 1_555 1_555
H15 O8 1_555 1_555
Cd1_2 O3 1_555 1_555
Cd1D N6 1_555 1_555
O3_2 Cd1 1_555 1_555
O4_2 Cd1 1_555 1_555
N6D Cd1 1_555 1_555
O4 Cd1_2 1_555 1_555
N3 C4 1_555 1_555
N6 C6 1_555 1_555
C1 C2 1_555 1_555
C11 C12 1_555 1_555

#END
