
#######################################################################
#
#                 Cambridge Crystallographic Data Centre
#                                CCDC 
#
#######################################################################
#
# If this CIF has been generated from an entry in the Cambridge 
# Structural Database, then it will include bibliographic, chemical, 
# crystal, experimental, refinement or atomic coordinate data resulting 
# from the CCDC's data processing and validation procedures.
#
#######################################################################

data_ZIYZEO
_symmetry_cell_setting           monoclinic
_symmetry_space_group_name_H-M   'C c'
_symmetry_Int_Tables_number      9
_space_group_name_Hall           'C -2yc'
loop_
_symmetry_equiv_pos_site_id
_symmetry_equiv_pos_as_xyz
1 x,y,z
2 x,-y,1/2+z
3 1/2+x,1/2+y,z
4 1/2+x,1/2-y,1/2+z
_cell_length_a                   9.7601(11)
_cell_length_b                   29.100(3)
_cell_length_c                   6.8916(8)
_cell_angle_alpha                90
_cell_angle_beta                 134.707(2)
_cell_angle_gamma                90
_cell_volume                     1391.11
loop_
_atom_site_label
_atom_site_type_symbol
_atom_site_fract_x
_atom_site_fract_y
_atom_site_fract_z
Sr1 Sr 0.53681(6) 0.852853(11) 0.54390(7)
O1 O 0.9395(5) 1.03864(12) 1.2646(7)
H1 H 0.9546 1.0108 1.2700
O2 O 0.7105(6) 1.08939(11) 0.9721(8)
O3 O 0.9748(5) 0.95477(12) 1.3057(7)
O4 O 0.8211(5) 0.89356(11) 1.0371(7)
O5 O 0.4857(6) 0.82515(11) 1.1477(7)
O6 O 0.4280(5) 0.83548(11) 0.7757(7)
O7 O 0.4413(6) 0.76723(11) 0.4631(8)
O8 O 0.3464(5) 0.69436(11) 0.3790(7)
O9 O 0.1872(6) 0.87570(14) 0.1298(8)
N1 N 0.4562(6) 1.01927(13) 0.6002(8)
H2 H 0.4012 1.0456 0.5337
N2 N 0.4975(6) 0.94399(13) 0.6324(8)
N3 N 0.4546(6) 0.73428(13) 1.0971(8)
H3 H 0.4669 0.7456 1.2240
N4 N 0.4229(6) 0.68578(13) 0.8335(8)
H4 H 0.4110 0.6602 0.7601
C1 C 0.7673(7) 1.04953(15) 1.0345(10)
C2 C 0.6401(7) 1.01132(15) 0.8480(9)
C3 C 0.6620(7) 0.96429(15) 0.8638(9)
C4 C 0.3776(7) 0.97806(16) 0.4801(10)
H5 H 0.2528 0.9742 0.3092
C5 C 0.8292(7) 0.93491(15) 1.0825(10)
C6 C 0.4548(7) 0.81132(15) 0.9487(10)
C7 C 0.4470(7) 0.75966(15) 0.9217(9)
C8 C 0.4402(8) 0.68984(16) 1.0424(10)
H6 H 0.4419 0.6659 1.1334
C9 C 0.4268(6) 0.72874(15) 0.7522(9)
C10 C 0.4026(7) 0.73067(15) 0.5116(9)
H7 H 0.091(5) 0.8818(15) 0.097(10)
H8 H 0.198(7) 0.8907(17) 0.038(10)
Sr1_2 Sr 0.53681(6) 0.852853(11) 1.54390(7)
Sr1A Sr 0.53681(6) 1.147147(11) 1.04390(7)
Sr1C Sr 0.03681(6) 0.647147(11) 0.04390(7)
O2A O 0.7105(6) 0.91061(11) 0.4721(8)
O5_2 O 0.4857(6) 0.82515(11) 0.1477(7)
O8C O 0.8464(5) 0.80564(11) 0.8790(7)
O10 O 0.2339(6) 0.90606(12) 0.7866(7)
H9 H 0.293(7) 0.8886(12) 0.777(10)
H10 H 0.198(7) 0.9304(10) 0.694(9)
loop_
_geom_bond_atom_site_label_1
_geom_bond_atom_site_label_2
_geom_bond_site_symmetry_1
_geom_bond_site_symmetry_2
Sr1 O4 1_555 1_555
O1 H1 1_555 1_555
O2 C1 1_555 1_555
O3 C5 1_555 1_555
O4 C5 1_555 1_555
O5 C6 1_555 1_555
O6 Sr1 1_555 1_555
O7 Sr1 1_555 1_555
O8 C10 1_555 1_555
O9 Sr1 1_555 1_555
N1 H2 1_555 1_555
N2 Sr1 1_555 1_555
N3 H3 1_555 1_555
N4 H4 1_555 1_555
C1 O1 1_555 1_555
C2 N1 1_555 1_555
C3 N2 1_555 1_555
C4 N1 1_555 1_555
H5 C4 1_555 1_555
C5 C3 1_555 1_555
C6 O6 1_555 1_555
C7 N3 1_555 1_555
C8 N3 1_555 1_555
H6 C8 1_555 1_555
C9 N4 1_555 1_555
C10 O7 1_555 1_555
H7 O9 1_555 1_555
H8 O9 1_555 1_555
O10 H9 1_555 1_555
H10 O10 1_555 1_555
Sr1_2 O5 1_555 1_555
Sr1A O2 1_555 1_555
Sr1C O8 1_555 1_555
O2A Sr1 1_555 1_555
O5_2 Sr1 1_555 1_555
O8C Sr1 1_555 1_555
N2 C4 1_555 1_555
N4 C8 1_555 1_555
C1 C2 1_555 1_555
C2 C3 1_555 1_555
C6 C7 1_555 1_555
C7 C9 1_555 1_555
C9 C10 1_555 1_555

#END
