
#######################################################################
#
#                 Cambridge Crystallographic Data Centre
#                                CCDC 
#
#######################################################################
#
# If this CIF has been generated from an entry in the Cambridge 
# Structural Database, then it will include bibliographic, chemical, 
# crystal, experimental, refinement or atomic coordinate data resulting 
# from the CCDC's data processing and validation procedures.
#
#######################################################################

data_ZIZDET
_symmetry_cell_setting           triclinic
_symmetry_space_group_name_H-M   'P -1'
_symmetry_Int_Tables_number      2
_space_group_name_Hall           '-P 1'
loop_
_symmetry_equiv_pos_site_id
_symmetry_equiv_pos_as_xyz
1 x,y,z
2 -x,-y,-z
_cell_length_a                   10.133(2)
_cell_length_b                   10.855(2)
_cell_length_c                   11.53100(10)
_cell_angle_alpha                89.941(2)
_cell_angle_beta                 83.188(3)
_cell_angle_gamma                68.940(2)
_cell_volume                     1174.08
loop_
_atom_site_label
_atom_site_type_symbol
_atom_site_fract_x
_atom_site_fract_y
_atom_site_fract_z
Cd1 Cd 0.942205(19) 0.78569(2) 0.933163(17)
F1 F 1.6325(3) 0.2540(3) 0.3508(3)
F2 F 1.1681(2) 0.2589(3) 0.39079(18)
N1 N 1.0352(3) 0.6169(3) 0.7913(2)
N2 N 1.1247(3) 0.5076(3) 0.6176(2)
N3 N 1.0505(3) 0.4463(3) 0.6861(2)
N4 N 1.0277(3) 0.0466(3) 0.6594(2)
N5 N 0.8839(3) 0.1001(3) 0.6579(3)
N6 N 0.9392(3) -0.0557(3) 0.7906(2)
O1 O 0.6973(3) 0.7580(3) 0.9010(2)
O2 O 0.8120(2) 0.6884(2) 1.0526(2)
O3 O 0.1080(3) 0.6790(3) 1.0664(2)
O4 O 0.1793(3) 0.7976(3) 0.9393(2)
O5 O 0.7766(3) 0.9726(3) 1.0348(3)
H1 H 0.7819 1.0457 1.0554
H2 H 0.8191 0.9515 0.9656
O6 O 1.1962(3) 0.1651(2) 0.74688(19)
H3 H 1.1871 0.2306 0.7871
C1 C 0.5865(3) 0.6679(3) 1.0555(3)
C2 C 0.4557(3) 0.7065(3) 1.0108(3)
H4 H 0.4432 0.7548 0.9437
C3 C 0.3444(3) 0.6731(3) 1.0663(3)
C4 C 0.3661(3) 0.5980(4) 1.1646(3)
H5 H 0.2930 0.5735 1.2011
C5 C 0.4952(4) 0.5592(4) 1.2089(3)
H6 H 0.5084 0.5097 1.2752
C6 C 0.6039(3) 0.5943(3) 1.1543(3)
H7 H 0.6906 0.5680 1.1844
C7 C 0.7052(3) 0.7074(3) 0.9985(3)
C8 C 0.2030(3) 0.7182(3) 1.0215(3)
C9 C 0.9982(3) 0.5133(3) 0.7881(3)
H8 H 0.9434 0.4899 0.8483
C10 C 1.1138(3) 0.6085(3) 0.6851(3)
H9 H 1.1560 0.6694 0.6625
C11 C 1.0276(3) 0.3303(3) 0.6417(3)
H10 H 0.9980 0.3473 0.5644
H11 H 0.9508 0.3170 0.6922
C12 C 1.2897(3) 0.2151(3) 0.5569(3)
C13 C 1.4157(4) 0.1982(4) 0.6023(3)
H12 H 1.4231 0.1766 0.6800
C14 C 1.5312(4) 0.2130(4) 0.5335(4)
H13 H 1.6146 0.2036 0.5649
C15 C 1.5194(4) 0.2416(4) 0.4189(4)
C16 C 1.4005(4) 0.2568(4) 0.3683(3)
H14 H 1.3952 0.2756 0.2899
C17 C 1.2870(4) 0.2426(4) 0.4403(3)
C18 C 1.1279(4) 0.0874(3) 0.5828(3)
H15 H 1.0897 0.1130 0.5095
H16 H 1.2165 0.0124 0.5658
C19 C 1.0564(4) -0.0448(3) 0.7383(3)
H17 H 1.1476 -0.0948 0.7545
C20 C 0.8370(4) 0.0353(4) 0.7382(3)
H18 H 0.7406 0.0507 0.7578
C21 C 1.1603(3) 0.2035(3) 0.6343(3)
Cd1_2 Cd -0.057795(19) 0.78569(2) 0.933163(17)
Cd1_3 Cd 0.942205(19) -0.21431(2) 0.933163(17)
N6_2 N 0.9392(3) 0.9443(3) 0.7906(2)
O3_2 O 1.1080(3) 0.6790(3) 1.0664(2)
O4_2 O 1.1793(3) 0.7976(3) 0.9393(2)
O7 O 0.5100(4) 0.0084(4) 0.8535(4)
H19 H 0.5684 -0.0674 0.8669
H20 H 0.4273 0.0151 0.8848
loop_
_geom_bond_atom_site_label_1
_geom_bond_atom_site_label_2
_geom_bond_site_symmetry_1
_geom_bond_site_symmetry_2
Cd1 N1 1_555 1_555
F1 C15 1_555 1_555
F2 C17 1_555 1_555
N1 C9 1_555 1_555
N2 N3 1_555 1_555
N3 C9 1_555 1_555
N4 N5 1_555 1_555
N5 C20 1_555 1_555
N6 C19 1_555 1_555
O1 Cd1 1_555 1_555
O2 Cd1 1_555 1_555
O3 C8 1_555 1_555
O4 C8 1_555 1_555
O5 Cd1 1_555 1_555
H1 O5 1_555 1_555
H2 O5 1_555 1_555
O6 H3 1_555 1_555
C1 C2 1_555 1_555
C2 H4 1_555 1_555
C3 C2 1_555 1_555
C4 C3 1_555 1_555
H5 C4 1_555 1_555
C5 C4 1_555 1_555
H6 C5 1_555 1_555
C6 C1 1_555 1_555
H7 C6 1_555 1_555
C7 O1 1_555 1_555
C8 C3 1_555 1_555
C9 H8 1_555 1_555
C10 N1 1_555 1_555
H9 C10 1_555 1_555
C11 N3 1_555 1_555
H10 C11 1_555 1_555
H11 C11 1_555 1_555
C12 C13 1_555 1_555
C13 H12 1_555 1_555
C14 C13 1_555 1_555
H13 C14 1_555 1_555
C15 C14 1_555 1_555
C16 C15 1_555 1_555
H14 C16 1_555 1_555
C17 C12 1_555 1_555
C18 N4 1_555 1_555
H15 C18 1_555 1_555
H16 C18 1_555 1_555
C19 N4 1_555 1_555
H17 C19 1_555 1_555
C20 N6 1_555 1_555
H18 C20 1_555 1_555
C21 O6 1_555 1_555
O7 H19 1_555 1_555
H20 O7 1_555 1_555
Cd1_2 O3 1_555 1_555
Cd1_3 N6 1_555 1_555
N6_2 Cd1 1_555 1_555
O3_2 Cd1 1_555 1_555
O4_2 Cd1 1_555 1_555
N2 C10 1_555 1_555
O2 C7 1_555 1_555
O4 Cd1_2 1_555 1_555
C1 C7 1_555 1_555
C5 C6 1_555 1_555
C11 C21 1_555 1_555
C12 C21 1_555 1_555
C16 C17 1_555 1_555
C18 C21 1_555 1_555

#END
