
#######################################################################
#
#                 Cambridge Crystallographic Data Centre
#                                CCDC 
#
#######################################################################
#
# If this CIF has been generated from an entry in the Cambridge 
# Structural Database, then it will include bibliographic, chemical, 
# crystal, experimental, refinement or atomic coordinate data resulting 
# from the CCDC's data processing and validation procedures.
#
#######################################################################

data_ZIZNED
_symmetry_cell_setting           monoclinic
_symmetry_space_group_name_H-M   'P 21/n'
_symmetry_Int_Tables_number      14
_space_group_name_Hall           '-P 2yn'
loop_
_symmetry_equiv_pos_site_id
_symmetry_equiv_pos_as_xyz
1 x,y,z
2 1/2-x,1/2+y,1/2-z
3 -x,-y,-z
4 1/2+x,1/2-y,1/2+z
_cell_length_a                   10.653(2)
_cell_length_b                   24.370(5)
_cell_length_c                   11.276(2)
_cell_angle_alpha                90
_cell_angle_beta                 94.72(3)
_cell_angle_gamma                90
_cell_volume                     2917.48
loop_
_atom_site_label
_atom_site_type_symbol
_atom_site_fract_x
_atom_site_fract_y
_atom_site_fract_z
Ni1 Ni 0.25081(3) 0.291878(10) 0.53752(3)
O1 O 0.10076(15) 0.34291(6) 0.52633(13)
C1 C 0.0812(2) 0.38765(9) 0.4725(2)
O2 O 0.16644(16) 0.42267(7) 0.45486(17)
C2 C -0.0494(2) 0.40076(9) 0.42392(19)
C3 C -0.1412(2) 0.36006(9) 0.4171(2)
H1 H -0.1214 0.3249 0.4449
C4 C -0.2624(2) 0.37169(10) 0.3689(2)
H2 H -0.3225 0.3439 0.3628
C5 C -0.2957(2) 0.42426(10) 0.3294(2)
C6 C -0.2041(2) 0.46496(10) 0.3392(2)
H3 H -0.2250 0.5005 0.3150
C7 C -0.0820(2) 0.45343(9) 0.3847(2)
H4 H -0.0215 0.4810 0.3889
C8 C -0.4275(2) 0.43653(12) 0.2791(2)
H5 H -0.4336 0.4745 0.2564
H6 H -0.4852 0.4291 0.3381
H7 H -0.4480 0.4139 0.2106
O3 O 0.41297(14) 0.33578(6) 0.55840(13)
C9 C 0.4483(2) 0.38432(9) 0.5728(2)
O4 O 0.37978(16) 0.42625(7) 0.54905(18)
H8 H 0.3027 0.4210 0.5210
C10 C 0.5805(2) 0.39495(9) 0.62159(19)
C11 C 0.6329(2) 0.44733(9) 0.6187(2)
H9 H 0.5851 0.4764 0.5861
C12 C 0.7561(2) 0.45623(9) 0.6643(2)
H10 H 0.7904 0.4913 0.6614
C13 C 0.8297(2) 0.41327(9) 0.7145(2)
C14 C 0.7764(2) 0.36104(9) 0.7160(2)
H11 H 0.8239 0.3319 0.7486
C15 C 0.6540(2) 0.35202(9) 0.6698(2)
H12 H 0.6203 0.3168 0.6709
C16 C 0.9636(2) 0.42286(10) 0.7629(2)
H13 H 0.9845 0.4609 0.7541
H14 H 1.0190 0.4007 0.7199
H15 H 0.9729 0.4131 0.8456
O5 O 0.34918(14) 0.21598(6) 0.54158(14)
C17 C 0.2440(2) 0.19112(9) 0.52864(18)
O6 O 0.14207(14) 0.21839(6) 0.52231(14)
C18 C 0.2409(2) 0.13007(9) 0.51859(19)
C19 C 0.3462(2) 0.09894(9) 0.5551(2)
H16 H 0.4184 0.1160 0.5894
C20 C 0.3439(3) 0.04237(10) 0.5406(2)
H17 H 0.4144 0.0218 0.5664
C21 C 0.2381(3) 0.01592(10) 0.4880(2)
C22 C 0.1326(3) 0.04710(10) 0.4518(2)
H18 H 0.0609 0.0300 0.4165
C23 C 0.1333(2) 0.10358(9) 0.4677(2)
H19 H 0.0616 0.1239 0.4444
C24 C 0.2379(3) -0.04572(11) 0.4690(3)
H20 H 0.3180 -0.0606 0.4985
H21 H 0.2232 -0.0536 0.3856
H22 H 0.1725 -0.0621 0.5110
N1 N 0.25243(17) 0.29558(7) 0.35266(16)
C25 C 0.3596(2) 0.29817(9) 0.2978(2)
H23 H 0.4358 0.2999 0.3444
C26 C 0.3618(2) 0.29840(9) 0.1749(2)
H24 H 0.4382 0.3002 0.1406
C27 C 0.2483(2) 0.29589(8) 0.10284(19)
C28 C 0.1373(2) 0.29450(8) 0.1609(2)
H25 H 0.0594 0.2938 0.1172
C29 C 0.1444(2) 0.29423(8) 0.2839(2)
H26 H 0.0695 0.2930 0.3208
C30 C 0.2456(2) 0.29405(8) -0.0295(2)
C31 C 0.3575(2) 0.28994(8) -0.0852(2)
H27 H 0.4345 0.2883 -0.0401
C32 C 0.3526(2) 0.28837(9) -0.2079(2)
H28 H 0.4280 0.2854 -0.2435
C33 C 0.1373(2) 0.29447(9) -0.2249(2)
H29 H 0.0615 0.2960 -0.2721
C34 C 0.1337(2) 0.29591(9) -0.1019(2)
H30 H 0.0570 0.2981 -0.0684
N2 N 0.24502(18) 0.29093(7) -0.27892(16)
Ni1_2 Ni 0.25081(3) 0.291878(10) -0.46248(3)
N2_2 N 0.24502(18) 0.29093(7) 0.72108(16)
loop_
_geom_bond_atom_site_label_1
_geom_bond_atom_site_label_2
_geom_bond_site_symmetry_1
_geom_bond_site_symmetry_2
Ni1 O1 1_555 1_555
O1 C1 1_555 1_555
C1 O2 1_555 1_555
C2 C1 1_555 1_555
C3 C2 1_555 1_555
H1 C3 1_555 1_555
C4 C3 1_555 1_555
H2 C4 1_555 1_555
C5 C4 1_555 1_555
C6 C5 1_555 1_555
H3 C6 1_555 1_555
C7 C2 1_555 1_555
H4 C7 1_555 1_555
C8 C5 1_555 1_555
H5 C8 1_555 1_555
H6 C8 1_555 1_555
H7 C8 1_555 1_555
O3 Ni1 1_555 1_555
C9 O3 1_555 1_555
O4 C9 1_555 1_555
H8 O4 1_555 1_555
C10 C9 1_555 1_555
C11 C10 1_555 1_555
H9 C11 1_555 1_555
C12 C11 1_555 1_555
H10 C12 1_555 1_555
C13 C12 1_555 1_555
C14 C13 1_555 1_555
H11 C14 1_555 1_555
C15 C10 1_555 1_555
H12 C15 1_555 1_555
C16 C13 1_555 1_555
H13 C16 1_555 1_555
H14 C16 1_555 1_555
H15 C16 1_555 1_555
O5 Ni1 1_555 1_555
C17 O5 1_555 1_555
O6 Ni1 1_555 1_555
C18 C17 1_555 1_555
C19 C18 1_555 1_555
H16 C19 1_555 1_555
C20 C19 1_555 1_555
H17 C20 1_555 1_555
C21 C20 1_555 1_555
C22 C21 1_555 1_555
H18 C22 1_555 1_555
C23 C18 1_555 1_555
H19 C23 1_555 1_555
C24 C21 1_555 1_555
H20 C24 1_555 1_555
H21 C24 1_555 1_555
H22 C24 1_555 1_555
N1 Ni1 1_555 1_555
C25 N1 1_555 1_555
H23 C25 1_555 1_555
C26 C25 1_555 1_555
H24 C26 1_555 1_555
C27 C26 1_555 1_555
C28 C27 1_555 1_555
H25 C28 1_555 1_555
C29 N1 1_555 1_555
H26 C29 1_555 1_555
C30 C27 1_555 1_555
C31 C30 1_555 1_555
H27 C31 1_555 1_555
C32 C31 1_555 1_555
H28 C32 1_555 1_555
C33 H29 1_555 1_555
C34 C30 1_555 1_555
H30 C34 1_555 1_555
N2 C32 1_555 1_555
Ni1_2 N2 1_555 1_555
N2_2 Ni1 1_555 1_555
C6 C7 1_555 1_555
C14 C15 1_555 1_555
C17 O6 1_555 1_555
C22 C23 1_555 1_555
C28 C29 1_555 1_555
C33 C34 1_555 1_555
C33 N2 1_555 1_555

#END
