
#######################################################################
#
#                 Cambridge Crystallographic Data Centre
#                                CCDC 
#
#######################################################################
#
# If this CIF has been generated from an entry in the Cambridge 
# Structural Database, then it will include bibliographic, chemical, 
# crystal, experimental, refinement or atomic coordinate data resulting 
# from the CCDC's data processing and validation procedures.
#
#######################################################################

data_ZIZSEI
_symmetry_cell_setting           orthorhombic
_symmetry_space_group_name_H-M   'P c a 21'
_symmetry_Int_Tables_number      29
_space_group_name_Hall           'P 2c -2ac'
loop_
_symmetry_equiv_pos_site_id
_symmetry_equiv_pos_as_xyz
1 x,y,z
2 -x,-y,1/2+z
3 1/2-x,y,1/2+z
4 1/2+x,-y,z
_cell_length_a                   17.4543(19)
_cell_length_b                   7.8087(6)
_cell_length_c                   14.9761(18)
_cell_angle_alpha                90
_cell_angle_beta                 90
_cell_angle_gamma                90
_cell_volume                     2041.17
loop_
_atom_site_label
_atom_site_type_symbol
_atom_site_fract_x
_atom_site_fract_y
_atom_site_fract_z
Eu1 Eu 0.15041(3) 0.24606(3) 0.00438(4)
Eu2 Eu 0.09235(3) -0.25409(3) 0.04429(4)
O1 O 0.1453(3) 0.0135(9) 0.1122(5)
O2 O 0.2535(4) 0.4327(8) -0.0629(6)
H1 H 0.2432 0.5373 -0.0528
H2 H 0.2967 0.4337 -0.0893
O3 O 0.1227(4) -0.2038(8) 0.2014(5)
O4 O -0.0119(4) -0.0699(8) 0.1056(6)
H3 H -0.0013 0.0347 0.0959
H4 H -0.0531 -0.0698 0.1357
O5 O 0.2621(4) 0.0544(8) 0.4466(6)
O6 O 0.2856(5) -0.2199(8) 0.4674(9)
O7 O -0.0731(3) -0.0067(8) 0.4502(5)
O8 O 0.0020(3) 0.2084(8) 0.4227(6)
O9 O 0.2521(3) 0.2952(7) 0.1172(5)
O10 O 0.1718(3) 0.5069(7) 0.1002(4)
O11 O 0.5026(3) 0.4459(7) 0.0994(5)
O12 O 0.5231(4) 0.7253(7) 0.0736(8)
O13 O 0.3812(3) 0.3078(8) 0.3433(4)
O14 O 0.4024(3) 0.5116(9) 0.4363(5)
C1 C 0.1393(4) -0.0486(9) 0.1910(5)
C2 C 0.1496(5) 0.0669(11) 0.2714(6)
H5 H 0.2036 0.0945 0.2767
H6 H 0.1224 0.1731 0.2602
C3 C 0.1230(3) -0.0031(9) 0.3587(6)
H7 H 0.1268 0.0906 0.4020
C4 C 0.1721(4) -0.1491(9) 0.3947(6)
H8 H 0.1416 -0.2143 0.4367
H9 H 0.1846 -0.2246 0.3454
C5 C 0.2452(4) -0.0988(8) 0.4399(5)
C6 C 0.0376(3) -0.0602(11) 0.3577(7)
H10 H 0.0194 -0.0605 0.2965
H11 H 0.0342 -0.1764 0.3802
C7 C -0.0134(3) 0.0535(9) 0.4128(5)
C8 C 0.2326(3) 0.4457(9) 0.1349(5)
C9 C 0.2780(3) 0.5497(9) 0.2005(5)
H12 H 0.2624 0.5181 0.2604
H13 H 0.2655 0.6697 0.1921
C10 C 0.3652(3) 0.5287(9) 0.1932(5)
H14 H 0.3770 0.4077 0.1824
C11 C 0.3967(3) 0.6352(8) 0.1152(5)
H15 H 0.3913 0.7558 0.1295
H16 H 0.3661 0.6125 0.0625
C12 C 0.4813(3) 0.5982(8) 0.0934(5)
C13 C 0.4041(3) 0.5847(9) 0.2806(5)
H17 H 0.4584 0.6007 0.2694
H18 H 0.3831 0.6945 0.2985
C14 C 0.3947(3) 0.4599(10) 0.3571(5)
Eu1A Eu -0.15041(3) -0.24606(3) 0.50438(4)
Eu1B Eu 0.34959(3) 0.24606(3) 0.50438(4)
Eu1C Eu 0.65041(3) 0.75394(3) 0.00438(4)
Eu2_2 Eu 0.09235(3) 0.74591(3) 0.04429(4)
Eu2A Eu -0.09235(3) 0.25409(3) 0.54429(4)
Eu2B Eu 0.40765(3) -0.25409(3) 0.54429(4)
Eu2B_2 Eu 0.40765(3) 0.74591(3) 0.54429(4)
Eu2C Eu 0.59235(3) 0.25409(3) 0.04429(4)
O5B O 0.2379(4) 0.0544(8) -0.0534(6)
O6B O 0.2144(5) -0.2199(8) -0.0326(9)
O7A O 0.0731(3) 0.0067(8) -0.0498(5)
O8A O -0.0020(3) -0.2084(8) -0.0773(6)
O10_2 O 0.1718(3) -0.4931(7) 0.1002(4)
O11C O 0.0026(3) -0.4459(7) 0.0994(5)
O12C O 0.0231(4) 0.2747(7) 0.0736(8)
O13B O 0.1188(3) 0.3078(8) -0.1567(4)
O14B O 0.0976(3) -0.4884(9) -0.0637(5)
O14B_2 O 0.0976(3) 0.5116(9) -0.0637(5)
O15 O -0.1033(5) -0.4585(12) -0.1368(9)
H19 H -0.0728 -0.3811 -0.1188
H20 H -0.0757 -0.5272 -0.1669
O16 O 0.8544(3) 0.9339(8) 0.2025(5)
H21 H 0.8239 0.8868 0.1657
H22 H 0.8662 0.8555 0.2394
loop_
_geom_bond_atom_site_label_1
_geom_bond_atom_site_label_2
_geom_bond_site_symmetry_1
_geom_bond_site_symmetry_2
Eu1 O1 1_555 1_555
Eu2 O1 1_555 1_555
O1 C1 1_555 1_555
O2 Eu1 1_555 1_555
H1 O2 1_555 1_555
H2 O2 1_555 1_555
O3 Eu2 1_555 1_555
O4 Eu2 1_555 1_555
H3 O4 1_555 1_555
H4 O4 1_555 1_555
O5 C5 1_555 1_555
O6 C5 1_555 1_555
O7 C7 1_555 1_555
O8 C7 1_555 1_555
O9 Eu1 1_555 1_555
O10 Eu1 1_555 1_555
O11 C12 1_555 1_555
O12 C12 1_555 1_555
O13 C14 1_555 1_555
O14 C14 1_555 1_555
C1 O3 1_555 1_555
C2 C1 1_555 1_555
H5 C2 1_555 1_555
H6 C2 1_555 1_555
C3 C2 1_555 1_555
H7 C3 1_555 1_555
C4 C3 1_555 1_555
H8 C4 1_555 1_555
H9 C4 1_555 1_555
C5 C4 1_555 1_555
C6 C3 1_555 1_555
H10 C6 1_555 1_555
H11 C6 1_555 1_555
C7 C6 1_555 1_555
C8 O9 1_555 1_555
C9 C8 1_555 1_555
H12 C9 1_555 1_555
H13 C9 1_555 1_555
C10 C9 1_555 1_555
H14 C10 1_555 1_555
C11 C10 1_555 1_555
H15 C11 1_555 1_555
H16 C11 1_555 1_555
C12 C11 1_555 1_555
C13 C10 1_555 1_555
H17 C13 1_555 1_555
H18 C13 1_555 1_555
C14 C13 1_555 1_555
O15 H19 1_555 1_555
H20 O15 1_555 1_555
O16 H21 1_555 1_555
H22 O16 1_555 1_555
Eu1A O7 1_555 1_555
Eu1B O5 1_555 1_555
Eu1C O12 1_555 1_555
Eu2_2 O10 1_555 1_555
Eu2A O7 1_555 1_555
Eu2B O6 1_555 1_555
Eu2B_2 O14 1_555 1_555
Eu2C O11 1_555 1_555
O5B Eu1 1_555 1_555
O6B Eu2 1_555 1_555
O7A Eu1 1_555 1_555
O8A Eu2 1_555 1_555
O10_2 Eu2 1_555 1_555
O11C Eu2 1_555 1_555
O12C Eu1 1_555 1_555
O13B Eu1 1_555 1_555
O14B Eu2 1_555 1_555
O14B_2 Eu1 1_555 1_555
Eu2 O7A 1_555 1_555
O8 Eu2A 1_555 1_555
O10 C8 1_555 1_555
O13 Eu1B 1_555 1_555
O14 Eu1B 1_555 1_555
Eu2_2 O14B_2 1_555 1_555

#END
