
#######################################################################
#
#                 Cambridge Crystallographic Data Centre
#                                CCDC 
#
#######################################################################
#
# If this CIF has been generated from an entry in the Cambridge 
# Structural Database, then it will include bibliographic, chemical, 
# crystal, experimental, refinement or atomic coordinate data resulting 
# from the CCDC's data processing and validation procedures.
#
#######################################################################

data_ZIZSAE
_symmetry_cell_setting           triclinic
_symmetry_space_group_name_H-M   'P -1'
_symmetry_Int_Tables_number      2
_space_group_name_Hall           '-P 1'
loop_
_symmetry_equiv_pos_site_id
_symmetry_equiv_pos_as_xyz
1 x,y,z
2 -x,-y,-z
_cell_length_a                   8.0917(13)
_cell_length_b                   8.8680(12)
_cell_length_c                   10.115(2)
_cell_angle_alpha                86.994(17)
_cell_angle_beta                 73.002(16)
_cell_angle_gamma                68.172(15)
_cell_volume                     643.056
loop_
_atom_site_label
_atom_site_type_symbol
_atom_site_fract_x
_atom_site_fract_y
_atom_site_fract_z
Eu1 Eu -0.064805(19) 0.706924(17) -0.100355(16)
O1 O 0.0672(3) 0.5617(3) 0.0934(2)
O2 O -0.2527(3) 0.9760(3) 0.0417(3)
H1 H -0.2045 1.0478 0.0218
H2 H -0.2884 0.9796 0.1310
O3 O 0.1297(3) 0.7759(3) 0.0245(3)
O4 O -0.3580(3) 0.8204(4) -0.1609(3)
H3 H -0.4485 0.8885 -0.1004
H4 H -0.4055 0.8026 -0.2201
O5 O -0.0179(3) 1.0930(3) 0.2256(3)
O6 O -0.0128(4) 0.6244(3) -0.3411(3)
H5 H -0.0830 0.6593 -0.3932
H6 H 0.0674 0.5331 -0.3795
O7 O -0.1733(3) 0.9380(3) 0.3183(3)
O8 O 0.6901(3) 0.7005(3) 0.1023(3)
O9 O 0.7402(3) 0.4677(3) 0.2081(2)
C1 C 0.1506(4) 0.6562(4) 0.0977(3)
C2 C 0.2733(5) 0.6205(4) 0.1897(4)
H7 H 0.3949 0.5429 0.1394
H8 H 0.2228 0.5674 0.2687
C3 C 0.3011(4) 0.7636(4) 0.2442(3)
H9 H 0.3344 0.8273 0.1659
C4 C -0.0324(4) 0.9747(4) 0.2945(3)
C5 C 0.1274(5) 0.8759(4) 0.3513(4)
H10 H 0.0840 0.8106 0.4228
H11 H 0.1614 0.9504 0.3946
C6 C 0.6463(4) 0.6155(4) 0.1980(4)
C7 C 0.4628(4) 0.6990(4) 0.3075(4)
H12 H 0.4692 0.7886 0.3542
H13 H 0.4405 0.6225 0.3760
Eu1_2 Eu 0.935195(19) 0.706924(17) -0.100355(16)
Eu1A Eu 0.064805(19) 0.293076(17) 0.100355(16)
Eu1A_2 Eu 0.064805(19) 1.293076(17) 0.100355(16)
Eu1A_3 Eu 1.064805(19) 0.293076(17) 0.100355(16)
O1A O -0.0672(3) 0.4383(3) -0.0934(2)
O5A O 0.0179(3) 0.9070(3) -0.2256(3)
O8_2 O -0.3099(3) 0.7005(3) 0.1023(3)
O9A O 0.2598(3) 0.5323(3) -0.2081(2)
O10 O 0.5470(3) 0.2555(3) 0.3264(3)
H14 H 0.6102 0.3154 0.3002
H15 H 0.6271 0.1597 0.3228
O11 O -0.2117(3) 0.6850(3) 0.4707(3)
H16 H -0.2100 0.7716 0.4312
H17 H -0.3230 0.7093 0.5224
loop_
_geom_bond_atom_site_label_1
_geom_bond_atom_site_label_2
_geom_bond_site_symmetry_1
_geom_bond_site_symmetry_2
Eu1 O1 1_555 1_555
O1 C1 1_555 1_555
O2 Eu1 1_555 1_555
H1 O2 1_555 1_555
H2 O2 1_555 1_555
O3 Eu1 1_555 1_555
O4 Eu1 1_555 1_555
H3 O4 1_555 1_555
H4 O4 1_555 1_555
O5 C4 1_555 1_555
O6 Eu1 1_555 1_555
H5 O6 1_555 1_555
H6 O6 1_555 1_555
O7 C4 1_555 1_555
O8 C6 1_555 1_555
O9 C6 1_555 1_555
C1 O3 1_555 1_555
C2 C1 1_555 1_555
H7 C2 1_555 1_555
H8 C2 1_555 1_555
C3 C2 1_555 1_555
H9 C3 1_555 1_555
C4 C5 1_555 1_555
C5 C3 1_555 1_555
H10 C5 1_555 1_555
H11 C5 1_555 1_555
C6 C7 1_555 1_555
C7 C3 1_555 1_555
H12 C7 1_555 1_555
H13 C7 1_555 1_555
O10 H14 1_555 1_555
H15 O10 1_555 1_555
O11 H16 1_555 1_555
H17 O11 1_555 1_555
Eu1_2 O8 1_555 1_555
Eu1A O1 1_555 1_555
Eu1A_2 O5 1_555 1_555
Eu1A_3 O9 1_555 1_555
O1A Eu1 1_555 1_555
O5A Eu1 1_555 1_555
O8_2 Eu1 1_555 1_555
O9A Eu1 1_555 1_555
Eu1A O1A 1_555 1_555

#END
