
#######################################################################
#
#                 Cambridge Crystallographic Data Centre
#                                CCDC 
#
#######################################################################
#
# If this CIF has been generated from an entry in the Cambridge 
# Structural Database, then it will include bibliographic, chemical, 
# crystal, experimental, refinement or atomic coordinate data resulting 
# from the CCDC's data processing and validation procedures.
#
#######################################################################

data_ZIZSEI01
_symmetry_cell_setting           orthorhombic
_symmetry_space_group_name_H-M   'P b c n'
_symmetry_Int_Tables_number      60
_space_group_name_Hall           '-P 2n 2ab'
loop_
_symmetry_equiv_pos_site_id
_symmetry_equiv_pos_as_xyz
1 x,y,z
2 1/2-x,1/2-y,1/2+z
3 1/2+x,1/2-y,-z
4 -x,y,1/2-z
5 -x,-y,-z
6 1/2+x,1/2+y,1/2-z
7 1/2-x,1/2+y,z
8 x,-y,1/2+z
_cell_length_a                   14.1085(3)
_cell_length_b                   7.7825(2)
_cell_length_c                   18.0083(4)
_cell_angle_alpha                90
_cell_angle_beta                 90
_cell_angle_gamma                90
_cell_volume                     1977.3
loop_
_atom_site_label
_atom_site_type_symbol
_atom_site_fract_x
_atom_site_fract_y
_atom_site_fract_z
Eu1 Eu 0.705403(11) 0.491484(17) -0.346199(8)
O1 O 0.75706(16) 0.7403(3) -0.26618(13)
O2 O 0.56042(18) 0.3178(3) -0.32334(15)
H1 H 0.5792 0.2147 -0.3285
H2 H 0.5122 0.3268 -0.3514
O3 O 0.6496(2) 0.5665(3) -0.22157(14)
O4 O 0.3755(2) 0.9645(4) -0.15833(16)
O5 O 0.41657(17) 0.6967(3) -0.13148(15)
O6 O 0.72517(18) 0.7822(3) 0.08010(13)
O7 O 0.6495(2) 0.5735(3) 0.02627(14)
C1 C 0.7023(2) 0.6938(4) -0.21331(17)
C2 C 0.7052(2) 0.7861(5) -0.13973(17)
H3 H 0.7268 0.9030 -0.1477
H4 H 0.7507 0.7295 -0.1076
C3 C 0.6088(2) 0.7904(4) -0.10094(14)
H5 H 0.5832 0.6735 -0.0991
C4 C 0.5394(2) 0.9053(4) -0.14418(16)
H6 H 0.5432 1.0206 -0.1240
H7 H 0.5603 0.9107 -0.1954
C5 C 0.4362(2) 0.8496(4) -0.14335(16)
C6 C 0.6210(2) 0.8568(4) -0.02113(16)
H8 H 0.6580 0.9618 -0.0223
H9 H 0.5591 0.8846 -0.0010
C7 C 0.6688(2) 0.7302(4) 0.02954(15)
Eu1A Eu 0.794597(11) 1.008516(17) 0.153801(8)
Eu1C Eu 0.294597(11) 0.491484(17) -0.153801(8)
Eu1E Eu 0.205403(11) 0.991484(17) -0.153801(8)
Eu1F Eu 0.794597(11) 0.991484(17) -0.346199(8)
Eu1G Eu 0.705403(11) 0.508516(17) 0.153801(8)
O1F O 0.74294(16) 0.2403(3) -0.26618(13)
O4E O 0.8755(2) 0.4645(4) -0.34167(16)
O5C O 0.58343(17) 0.6967(3) -0.36852(15)
O6A O 0.77483(18) 0.7178(3) -0.41990(13)
O6G O 0.72517(18) 0.2178(3) -0.41990(13)
O7G O 0.6495(2) 0.4265(3) -0.47373(14)
O8 O 0.4212(4) 0.3136(8) -0.4347(4)
H10 H 0.3998 0.3925 -0.4627
H11 H 0.4042 0.3735 -0.3975
loop_
_geom_bond_atom_site_label_1
_geom_bond_atom_site_label_2
_geom_bond_site_symmetry_1
_geom_bond_site_symmetry_2
Eu1 O1 1_555 1_555
O1 C1 1_555 1_555
O2 Eu1 1_555 1_555
H1 O2 1_555 1_555
H2 O2 1_555 1_555
O3 Eu1 1_555 1_555
O4 C5 1_555 1_555
O5 C5 1_555 1_555
O6 C7 1_555 1_555
O7 C7 1_555 1_555
C1 O3 1_555 1_555
C2 C1 1_555 1_555
H3 C2 1_555 1_555
H4 C2 1_555 1_555
C3 C2 1_555 1_555
H5 C3 1_555 1_555
C4 C3 1_555 1_555
H6 C4 1_555 1_555
H7 C4 1_555 1_555
C5 C4 1_555 1_555
C6 C3 1_555 1_555
H8 C6 1_555 1_555
H9 C6 1_555 1_555
C7 C6 1_555 1_555
O8 H10 1_555 1_555
H11 O8 1_555 1_555
Eu1A O6 1_555 1_555
Eu1C O5 1_555 1_555
Eu1E O4 1_555 1_555
Eu1F O1 1_555 1_555
Eu1G O6 1_555 1_555
O1F Eu1 1_555 1_555
O4E Eu1 1_555 1_555
O5C Eu1 1_555 1_555
O6A Eu1 1_555 1_555
O6G Eu1 1_555 1_555
O7G Eu1 1_555 1_555
O7 Eu1G 1_555 1_555
Eu1F O6A 1_555 1_555

#END
