
#######################################################################
#
#                 Cambridge Crystallographic Data Centre
#                                CCDC 
#
#######################################################################
#
# If this CIF has been generated from an entry in the Cambridge 
# Structural Database, then it will include bibliographic, chemical, 
# crystal, experimental, refinement or atomic coordinate data resulting 
# from the CCDC's data processing and validation procedures.
#
#######################################################################

data_ZIZTIN01
_symmetry_cell_setting           monoclinic
_symmetry_space_group_name_H-M   'P 21/c'
_symmetry_Int_Tables_number      14
_space_group_name_Hall           '-P 2ybc'
loop_
_symmetry_equiv_pos_site_id
_symmetry_equiv_pos_as_xyz
1 x,y,z
2 -x,1/2+y,1/2-z
3 -x,-y,-z
4 x,1/2-y,1/2+z
_cell_length_a                   10.9474(13)
_cell_length_b                   6.4670(8)
_cell_length_c                   9.2749(11)
_cell_angle_alpha                90
_cell_angle_beta                 96.381(3)
_cell_angle_gamma                90
_cell_volume                     652.566
loop_
_atom_site_label
_atom_site_type_symbol
_atom_site_fract_x
_atom_site_fract_y
_atom_site_fract_z
U1 U 0.5000 0.0000 0.0000
P1 P 0.70505(8) 0.18664(15) 0.31339(10)
O1 O 0.6450(3) 0.0594(6) 0.1893(3)
O2 O 0.6318(2) 0.3743(4) 0.3471(3)
O3 O 0.7312(4) 0.0481(6) 0.4523(4)
H1 H 0.6706 -0.0229 0.4620
O4 O 0.4401(3) 0.2531(4) 0.0194(3)
C1 C 0.8542(4) 0.2642(6) 0.2736(4)
H2 H 0.9002 0.1414 0.2534
H3 H 0.8449 0.3474 0.1860
C2 C 0.9286(4) 0.3855(7) 0.3915(4)
C3 C 0.8952(4) 0.5865(8) 0.4266(5)
H4 H 0.8246 0.6457 0.3786
C4 C 1.0331(4) 0.3011(7) 0.4670(5)
H5 H 1.0559 0.1667 0.4463
P1B P 1.29495(8) 0.81336(15) 0.68661(10)
O1B O 1.3550(3) 0.9406(6) 0.8107(3)
O2B O 1.3682(2) 0.6257(4) 0.6529(3)
O3B O 1.2688(4) 0.9519(6) 0.5477(4)
H1B H 1.3294 1.0229 0.5380
C1B C 1.1458(4) 0.7358(6) 0.7264(4)
H2B H 1.0998 0.8586 0.7466
H3B H 1.1551 0.6526 0.8140
C2B C 1.0714(4) 0.6145(7) 0.6085(4)
C3B C 1.1048(4) 0.4135(8) 0.5734(5)
H4B H 1.1754 0.3543 0.6214
C4B C 0.9669(4) 0.6989(7) 0.5330(5)
H5B H 0.9441 0.8333 0.5537
O4B O 0.5599(3) -0.2531(4) -0.0194(3)
U1_2 U 1.5000 1.0000 1.0000
U1A U 0.5000 0.5000 0.5000
U1A_2 U 1.5000 0.5000 0.5000
O1B_2 O 0.3550(3) -0.0594(6) -0.1893(3)
O2A O 0.3682(2) -0.1257(4) 0.1529(3)
O2C O 0.6318(2) 0.1257(4) -0.1529(3)
loop_
_geom_bond_atom_site_label_1
_geom_bond_atom_site_label_2
_geom_bond_site_symmetry_1
_geom_bond_site_symmetry_2
U1 O1 1_555 1_555
P1 O1 1_555 1_555
O2 P1 1_555 1_555
O3 P1 1_555 1_555
H1 O3 1_555 1_555
O4 U1 1_555 1_555
C1 P1 1_555 1_555
H2 C1 1_555 1_555
H3 C1 1_555 1_555
C2 C1 1_555 1_555
C3 C2 1_555 1_555
H4 C3 1_555 1_555
C4 C2 1_555 1_555
H5 C4 1_555 1_555
P1B O1B 1_555 1_555
O1B U1_2 1_555 1_555
O2B P1B 1_555 1_555
O3B P1B 1_555 1_555
H1B O3B 1_555 1_555
C1B P1B 1_555 1_555
H2B C1B 1_555 1_555
H3B C1B 1_555 1_555
C2B C1B 1_555 1_555
C3B C4 1_555 1_555
H4B C3B 1_555 1_555
C4B C3 1_555 1_555
H5B C4B 1_555 1_555
O4B U1 1_555 1_555
U1A O2 1_555 1_555
U1A_2 O2B 1_555 1_555
O1B_2 U1 1_555 1_555
O2A U1 1_555 1_555
O2C U1 1_555 1_555
C2B C3B 1_555 1_555
C2B C4B 1_555 1_555

#END
