
#######################################################################
#
#                 Cambridge Crystallographic Data Centre
#                                CCDC 
#
#######################################################################
#
# If this CIF has been generated from an entry in the Cambridge 
# Structural Database, then it will include bibliographic, chemical, 
# crystal, experimental, refinement or atomic coordinate data resulting 
# from the CCDC's data processing and validation procedures.
#
#######################################################################

data_ZIZTOT
_symmetry_cell_setting           triclinic
_symmetry_space_group_name_H-M   'P -1'
_symmetry_Int_Tables_number      2
_space_group_name_Hall           '-P 1'
loop_
_symmetry_equiv_pos_site_id
_symmetry_equiv_pos_as_xyz
1 x,y,z
2 -x,-y,-z
_cell_length_a                   8.7982(3)
_cell_length_b                   11.8876(4)
_cell_length_c                   12.6446(4)
_cell_angle_alpha                95.219(2)
_cell_angle_beta                 106.752(2)
_cell_angle_gamma                96.980(2)
_cell_volume                     1245.89
loop_
_atom_site_label
_atom_site_type_symbol
_atom_site_fract_x
_atom_site_fract_y
_atom_site_fract_z
U1 U 0.5000 0.5000 0.5000
U2 U 0.15561(2) 0.094400(13) 0.246091(13)
C1 C 0.1205(5) 0.2793(4) 0.6569(3)
C2 C 0.0910(5) 0.3915(4) 0.6589(3)
H1 H 0.0701 0.4255 0.5921
C3 C 0.0914(5) 0.4548(4) 0.7573(3)
C4 C 0.1225(5) 0.4048(4) 0.8552(3)
H2 H 0.1238 0.4476 0.9227
C5 C 0.1520(6) 0.2919(4) 0.8546(4)
C6 C 0.1499(5) 0.2295(4) 0.7556(3)
H3 H 0.1685 0.1525 0.7549
C7 C 0.1242(5) 0.2123(4) 0.5505(3)
H4 H 0.0584 0.2440 0.4859
H5 H 0.0761 0.1317 0.5467
C8 C 0.0550(5) 0.5754(4) 0.7577(4)
H6 H 0.0924 0.6106 0.6998
H7 H 0.1170 0.6198 0.8307
C9 C 0.1723(6) 0.2354(4) 0.9593(3)
H8 H 0.2253 0.2929 1.0256
H9 H 0.2414 0.1755 0.9593
O1 O 0.4047(4) 0.3408(2) 0.5652(2)
O2 O 0.3229(4) 0.1517(2) 0.4340(2)
O3 O 0.4207(4) 0.1588(3) 0.6416(2)
H10 H 0.407(6) 0.0785(10) 0.625(4)
O4 O -0.1757(4) 0.7081(3) 0.7196(3)
O5 O -0.2546(4) 0.5022(2) 0.6310(2)
O6 O -0.1925(4) 0.5485(3) 0.8384(2)
H11 H -0.298(2) 0.511(4) 0.826(4)
O7 O -0.1304(4) 0.2686(3) 0.9521(2)
H12 H -0.183(5) 0.278(4) 0.8779(16)
O8 O -0.0910(4) 0.0778(3) 0.8701(2)
O9 O -0.0071(4) 0.1393(3) 1.0798(2)
O10 O 0.5602(4) 0.4138(2) 0.4020(2)
O11 O 0.3323(4) 0.1138(3) 0.2055(2)
O12 O -0.0193(4) 0.0760(3) 0.2884(2)
O13 O 0.2308(4) -0.0671(3) 0.3499(3)
H13 H 0.291(5) -0.059(3) 0.4262(14)
H14 H 0.211(6) -0.1448(14) 0.319(3)
P1 P 0.32400(14) 0.21704(9) 0.54220(9)
P2 P -0.15338(14) 0.58652(9) 0.73305(9)
P3 P -0.02035(15) 0.17263(9) 0.96548(9)
U2A U -0.15561(2) -0.094400(13) 0.753909(13)
C1A C -0.1205(5) -0.2793(4) 0.3431(3)
C2A C -0.0910(5) -0.3915(4) 0.3411(3)
H1A H -0.0701 -0.4255 0.4079
C3A C -0.0914(5) -0.4548(4) 0.2427(3)
C4A C -0.1225(5) -0.4048(4) 0.1448(3)
H2A H -0.1238 -0.4476 0.0773
C5A C -0.1520(6) -0.2919(4) 0.1454(4)
C6A C -0.1499(5) -0.2295(4) 0.2444(3)
H3A H -0.1685 -0.1525 0.2451
C7A C -0.1242(5) -0.2123(4) 0.4495(3)
H4A H -0.0584 -0.2440 0.5141
H5A H -0.0761 -0.1317 0.4533
C8A C -0.0550(5) -0.5754(4) 0.2423(4)
H6A H -0.0924 -0.6106 0.3002
H7A H -0.1170 -0.6198 0.1693
C9A C -0.1723(6) -0.2354(4) 0.0407(3)
H8A H -0.2253 -0.2929 -0.0256
H9A H -0.2414 -0.1755 0.0407
O1A O -0.4047(4) -0.3408(2) 0.4348(2)
O2A O -0.3229(4) -0.1517(2) 0.5660(2)
O3A O -0.4207(4) -0.1588(3) 0.3584(2)
H10A H -0.407(6) -0.0785(10) 0.375(4)
O4A O 0.1757(4) -0.7081(3) 0.2804(3)
O5A O 0.2546(4) -0.5022(2) 0.3690(2)
O6A O 0.1925(4) -0.5485(3) 0.1616(2)
H11A H 0.298(2) -0.511(4) 0.174(4)
O7A O 0.1304(4) -0.2686(3) 0.0479(2)
H12A H 0.183(5) -0.278(4) 0.1221(16)
O8A O 0.0910(4) -0.0778(3) 0.1299(2)
O9A O 0.0071(4) -0.1393(3) -0.0798(2)
O11A O -0.3323(4) -0.1138(3) 0.7945(2)
O12A O 0.0193(4) -0.0760(3) 0.7116(2)
O13A O -0.2308(4) 0.0671(3) 0.6501(3)
H13A H -0.291(5) 0.059(3) 0.5738(14)
H14A H -0.211(6) 0.1448(14) 0.681(3)
P1A P -0.32400(14) -0.21704(9) 0.45780(9)
P2A P 0.15338(14) -0.58652(9) 0.26695(9)
P3A P 0.02035(15) -0.17263(9) 0.03452(9)
O10A O 0.4398(4) 0.5862(2) 0.5980(2)
U1_2 U -0.5000 -0.5000 0.5000
U1_3 U -0.5000 0.5000 0.5000
U1_4 U 0.5000 -0.5000 0.5000
U2_2 U 0.15561(2) -0.905600(13) 0.246091(13)
U2_3 U 0.15561(2) 0.094400(13) 1.246091(13)
U2A_2 U -0.15561(2) -0.094400(13) -0.246091(13)
U2A_3 U -0.15561(2) 0.905600(13) 0.753909(13)
O1A_2 O 0.5953(4) 0.6592(2) 0.4348(2)
O4_2 O -0.1757(4) -0.2919(3) 0.7196(3)
O4A_2 O 0.1757(4) 0.2919(3) 0.2804(3)
O5_2 O 0.7454(4) 0.5022(2) 0.6310(2)
O5A_2 O 0.2546(4) 0.4978(2) 0.3690(2)
O9_2 O -0.0071(4) 0.1393(3) 0.0798(2)
O9A_2 O 0.0071(4) -0.1393(3) 0.9202(2)
O14 O 0.5155(9) -0.0534(7) 0.1215(6)
H15 H 0.468(10) -0.115(6) 0.063(6)
H16 H 0.434(8) -0.026(9) 0.148(8)
O15 O 0.4836(5) 0.5382(4) 0.1702(3)
H17 H 0.510(4) 0.483(3) 0.122(3)
H18 H 0.559(5) 0.546(3) 0.2421(19)
O16 O -0.2630(4) 0.2818(3) 0.7338(3)
H19 H -0.3760(15) 0.260(4) 0.711(4)
H20 H -0.237(5) 0.347(3) 0.701(4)
O17 O 0.7331(5) 0.2286(4) 0.3410(3)
H21 H 0.675(7) 0.290(4) 0.345(4)
H22 H 0.713(6) 0.199(2) 0.2649(14)
O18 O 0.6083(4) 0.0599(3) 0.4279(3)
H23 H 0.668(4) 0.113(3) 0.398(3)
H24 H 0.511(3) 0.085(3) 0.429(4)
O19 O 0.6745(6) 0.1567(5) 0.1119(4)
H25 H 0.638(7) 0.0785(15) 0.114(2)
H26 H 0.782(4) 0.164(5) 0.108(7)
O20 O 0.5588(8) 0.3654(5) 0.0372(5)
H27 H 0.580(12) 0.292(4) 0.057(7)
H28 H 0.559(13) 0.367(7) -0.038(3)
O21? O 0.564(2) 0.2765(14) -0.0465(13)
O22? O 0.5434(17) 0.3060(13) 0.1697(12)
loop_
_geom_bond_atom_site_label_1
_geom_bond_atom_site_label_2
_geom_bond_site_symmetry_1
_geom_bond_site_symmetry_2
U1 O1 1_555 1_555
U2 O2 1_555 1_555
C1 C2 1_555 1_555
C2 H1 1_555 1_555
C3 C2 1_555 1_555
C4 C3 1_555 1_555
H2 C4 1_555 1_555
C5 C4 1_555 1_555
C6 C1 1_555 1_555
H3 C6 1_555 1_555
C7 C1 1_555 1_555
H4 C7 1_555 1_555
H5 C7 1_555 1_555
C8 C3 1_555 1_555
H6 C8 1_555 1_555
H7 C8 1_555 1_555
C9 C5 1_555 1_555
H8 C9 1_555 1_555
H9 C9 1_555 1_555
O1 P1 1_555 1_555
O2 P1 1_555 1_555
O3 H10 1_555 1_555
O4 P2 1_555 1_555
O5 P2 1_555 1_555
O6 H11 1_555 1_555
O7 H12 1_555 1_555
O8 P3 1_555 1_555
O9 P3 1_555 1_555
O10 U1 1_555 1_555
O11 U2 1_555 1_555
O12 U2 1_555 1_555
O13 U2 1_555 1_555
H13 O13 1_555 1_555
H14 O13 1_555 1_555
P1 C7 1_555 1_555
P2 C8 1_555 1_555
P3 C9 1_555 1_555
O14 H15 1_555 1_555
H16 O14 1_555 1_555
O15 H17 1_555 1_555
H18 O15 1_555 1_555
O16 H19 1_555 1_555
H20 O16 1_555 1_555
O17 H21 1_555 1_555
H22 O17 1_555 1_555
O18 H23 1_555 1_555
H24 O18 1_555 1_555
O19 H25 1_555 1_555
H26 O19 1_555 1_555
O20 H27 1_555 1_555
H28 O20 1_555 1_555
U2A O8 1_555 1_555
C1A C2A 1_555 1_555
C2A H1A 1_555 1_555
C3A C2A 1_555 1_555
C4A C3A 1_555 1_555
H2A C4A 1_555 1_555
C5A C4A 1_555 1_555
C6A C1A 1_555 1_555
H3A C6A 1_555 1_555
C7A C1A 1_555 1_555
H4A C7A 1_555 1_555
H5A C7A 1_555 1_555
C8A C3A 1_555 1_555
H6A C8A 1_555 1_555
H7A C8A 1_555 1_555
C9A C5A 1_555 1_555
H8A C9A 1_555 1_555
H9A C9A 1_555 1_555
O1A P1A 1_555 1_555
O2A U2A 1_555 1_555
O3A H10A 1_555 1_555
O4A P2A 1_555 1_555
O5A P2A 1_555 1_555
O6A H11A 1_555 1_555
O7A H12A 1_555 1_555
O8A U2 1_555 1_555
O9A P3A 1_555 1_555
O11A U2A 1_555 1_555
O12A U2A 1_555 1_555
O13A U2A 1_555 1_555
H13A O13A 1_555 1_555
H14A O13A 1_555 1_555
P1A C7A 1_555 1_555
P2A C8A 1_555 1_555
P3A C9A 1_555 1_555
O10A U1 1_555 1_555
U1_2 O1A 1_555 1_555
U1_3 O5 1_555 1_555
U1_4 O5A 1_555 1_555
U2_2 O4A 1_555 1_555
U2_3 O9 1_555 1_555
U2A_2 O9A 1_555 1_555
U2A_3 O4 1_555 1_555
O1A_2 U1 1_555 1_555
O4_2 U2A 1_555 1_555
O4A_2 U2 1_555 1_555
O5_2 U1 1_555 1_555
O5A_2 U1 1_555 1_555
O9_2 U2 1_555 1_555
O9A_2 U2A 1_555 1_555
C5 C6 1_555 1_555
O3 P1 1_555 1_555
O6 P2 1_555 1_555
O7 P3 1_555 1_555
C5A C6A 1_555 1_555
O2A P1A 1_555 1_555
O3A P1A 1_555 1_555
O6A P2A 1_555 1_555
O7A P3A 1_555 1_555
O8A P3A 1_555 1_555

#END
