
#######################################################################
#
#                 Cambridge Crystallographic Data Centre
#                                CCDC 
#
#######################################################################
#
# If this CIF has been generated from an entry in the Cambridge 
# Structural Database, then it will include bibliographic, chemical, 
# crystal, experimental, refinement or atomic coordinate data resulting 
# from the CCDC's data processing and validation procedures.
#
#######################################################################

data_ZIZTIN
_symmetry_cell_setting           monoclinic
_symmetry_space_group_name_H-M   'P 21/c'
_symmetry_Int_Tables_number      14
_space_group_name_Hall           '-P 2ybc'
loop_
_symmetry_equiv_pos_site_id
_symmetry_equiv_pos_as_xyz
1 x,y,z
2 -x,1/2+y,1/2-z
3 -x,-y,-z
4 x,1/2-y,1/2+z
_cell_length_a                   10.9522(13)
_cell_length_b                   6.4691(7)
_cell_length_c                   9.2802(10)
_cell_angle_alpha                90
_cell_angle_beta                 96.333(9)
_cell_angle_gamma                90
_cell_volume                     653.498
loop_
_atom_site_label
_atom_site_type_symbol
_atom_site_fract_x
_atom_site_fract_y
_atom_site_fract_z
U1 U 0.5000 0.0000 1.0000
P1 P 0.70512(12) 0.3134(2) 0.81343(14)
O1 O 0.6449(3) 0.4402(5) 0.6896(4)
O2 O 0.5598(4) -0.2530(5) 0.9798(4)
O3 O 0.6318(3) 0.1263(6) 0.8481(4)
O4 O 0.7302(4) 0.4518(5) 0.9517(4)
H1 H 0.671(3) 0.529(7) 0.962(7)
C1 C 0.8534(5) 0.2358(8) 0.7741(5)
H2 H 0.8440 0.1529 0.6864
H3 H 0.8994 0.3586 0.7537
C2 C 0.9290(5) 0.1135(8) 0.8917(5)
C3 C 0.8957(5) -0.0858(9) 0.9271(6)
H4 H 0.8253 -0.1450 0.8788
C4 C 1.0343(5) 0.1976(8) 0.9667(6)
H5 H 1.0580 0.3311 0.9451
P1B P 1.29488(12) -0.3134(2) 1.18657(14)
O1B O 1.3551(3) -0.4402(5) 1.3104(4)
O3B O 1.3682(3) -0.1263(6) 1.1519(4)
O4B O 1.2698(4) -0.4518(5) 1.0483(4)
H1B H 1.329(3) -0.529(7) 1.038(7)
C1B C 1.1466(5) -0.2358(8) 1.2259(5)
H2B H 1.1560 -0.1529 1.3136
H3B H 1.1006 -0.3586 1.2463
C2B C 1.0710(5) -0.1135(8) 1.1083(5)
C3B C 1.1043(5) 0.0858(9) 1.0729(6)
H4B H 1.1747 0.1450 1.1212
C4B C 0.9657(5) -0.1976(8) 1.0333(6)
H5B H 0.9420 -0.3311 1.0549
O2B O 0.4402(4) 0.2530(5) 1.0202(4)
U1_2 U 1.5000 0.0000 1.0000
U1A U 0.5000 0.5000 0.5000
U1A_2 U 1.5000 -0.5000 1.5000
O1A O 0.3551(3) -0.0598(5) 0.8104(4)
O1C O 0.6449(3) 0.0598(5) 1.1896(4)
O3B_2 O 0.3682(3) -0.1263(6) 1.1519(4)
loop_
_geom_bond_atom_site_label_1
_geom_bond_atom_site_label_2
_geom_bond_site_symmetry_1
_geom_bond_site_symmetry_2
U1 O2 1_555 1_555
P1 O1 1_555 1_555
O1 U1A 1_555 1_555
O3 U1 1_555 1_555
O4 P1 1_555 1_555
H1 O4 1_555 1_555
C1 P1 1_555 1_555
H2 C1 1_555 1_555
H3 C1 1_555 1_555
C2 C1 1_555 1_555
C3 C2 1_555 1_555
H4 C3 1_555 1_555
C4 C2 1_555 1_555
H5 C4 1_555 1_555
P1B O1B 1_555 1_555
O1B U1A_2 1_555 1_555
O3B P1B 1_555 1_555
O4B P1B 1_555 1_555
H1B O4B 1_555 1_555
C1B P1B 1_555 1_555
H2B C1B 1_555 1_555
H3B C1B 1_555 1_555
C2B C1B 1_555 1_555
C3B C4 1_555 1_555
H4B C3B 1_555 1_555
C4B C3 1_555 1_555
H5B C4B 1_555 1_555
O2B U1 1_555 1_555
U1_2 O3B 1_555 1_555
O1A U1 1_555 1_555
O1C U1 1_555 1_555
O3B_2 U1 1_555 1_555
P1 O3 1_555 1_555
C2B C3B 1_555 1_555
C2B C4B 1_555 1_555

#END
