
#######################################################################
#
#                 Cambridge Crystallographic Data Centre
#                                CCDC 
#
#######################################################################
#
# If this CIF has been generated from an entry in the Cambridge 
# Structural Database, then it will include bibliographic, chemical, 
# crystal, experimental, refinement or atomic coordinate data resulting 
# from the CCDC's data processing and validation procedures.
#
#######################################################################

data_ZNAASP02
_symmetry_cell_setting           orthorhombic
_symmetry_space_group_name_H-M   'P 21 21 21'
_symmetry_Int_Tables_number      19
_space_group_name_Hall           'P 2ac 2ab'
loop_
_symmetry_equiv_pos_site_id
_symmetry_equiv_pos_as_xyz
1 x,y,z
2 1/2-x,-y,1/2+z
3 1/2+x,1/2-y,-z
4 -x,1/2+y,1/2-z
_cell_length_a                   7.830(3)
_cell_length_b                   9.369(4)
_cell_length_c                   11.599(5)
_cell_angle_alpha                90
_cell_angle_beta                 90
_cell_angle_gamma                90
_cell_volume                     850.894
loop_
_atom_site_label
_atom_site_type_symbol
_atom_site_fract_x
_atom_site_fract_y
_atom_site_fract_z
Zn1 Zn 0.61420(4) 0.70482(3) 0.65773(3)
N1 N 0.8230(3) 0.6156(3) 0.5767(2)
O1 O 0.4968(3) 0.5988(2) 0.50816(18)
O2 O 0.5425(3) 0.4019(3) 0.4048(2)
O3 O 0.5696(3) 0.5055(2) 0.74705(19)
O4 O 0.6227(3) 0.2802(2) 0.79567(18)
C1 C 0.5860(4) 0.4943(3) 0.4775(2)
C2 C 0.7647(4) 0.4764(3) 0.5323(2)
C3 C 0.7604(4) 0.3625(3) 0.6275(2)
C4 C 0.6411(3) 0.3879(3) 0.7296(2)
O5 O 0.6563(3) 0.9075(2) 0.57288(17)
O6 O 0.7236(3) 0.7812(2) 0.81039(17)
Zn1C Zn 0.38580(4) 0.20482(3) 0.84227(3)
O4C O 0.3773(3) 0.7802(2) 0.70433(18)
O7 O 0.3539(3) 0.4492(2) 0.2121(2)
loop_
_geom_bond_atom_site_label_1
_geom_bond_atom_site_label_2
_geom_bond_site_symmetry_1
_geom_bond_site_symmetry_2
Zn1 N1 1_555 1_555
N1 C2 1_555 1_555
O1 Zn1 1_555 1_555
O2 C1 1_555 1_555
O3 Zn1 1_555 1_555
O4 C4 1_555 1_555
C1 O1 1_555 1_555
C2 C1 1_555 1_555
C3 C2 1_555 1_555
C4 O3 1_555 1_555
O5 Zn1 1_555 1_555
O6 Zn1 1_555 1_555
Zn1C O4 1_555 1_555
O4C Zn1 1_555 1_555
C3 C4 1_555 1_555

#END
