
#######################################################################
#
#                 Cambridge Crystallographic Data Centre
#                                CCDC 
#
#######################################################################
#
# If this CIF has been generated from an entry in the Cambridge 
# Structural Database, then it will include bibliographic, chemical, 
# crystal, experimental, refinement or atomic coordinate data resulting 
# from the CCDC's data processing and validation procedures.
#
#######################################################################

data_ZNAASP01
_symmetry_cell_setting           orthorhombic
_symmetry_space_group_name_H-M   'P 21 21 21'
_symmetry_Int_Tables_number      19
_space_group_name_Hall           'P 2ac 2ab'
loop_
_symmetry_equiv_pos_site_id
_symmetry_equiv_pos_as_xyz
1 x,y,z
2 1/2+x,1/2-y,-z
3 -x,1/2+y,1/2-z
4 1/2-x,-y,1/2+z
_cell_length_a                   9.443(5)
_cell_length_b                   7.862(4)
_cell_length_c                   11.696(6)
_cell_angle_alpha                90
_cell_angle_beta                 90
_cell_angle_gamma                90
_cell_volume                     868.321
loop_
_atom_site_label
_atom_site_type_symbol
_atom_site_fract_x
_atom_site_fract_y
_atom_site_fract_z
C1 C 0.25600 0.16350 0.27280
C2 C 0.27340 -0.01540 0.21790
C3 C 0.38680 -0.01070 0.12270
C4 C 0.36230 0.10880 0.02060
H1 H 0.30840 -0.11440 0.27030
H2 H 0.07710 -0.10310 0.23290
H3 H 0.14510 -0.17210 0.12850
H4 H 0.47450 0.02390 0.15550
H5 H 0.41440 -0.12680 0.08680
H6 H 0.02850 -0.05060 -0.09350
H7 H -0.11460 -0.01470 -0.06320
H8 H -0.17580 0.02400 0.19460
H9 H -0.21980 0.12090 0.12400
N1 N 0.13480 -0.07360 0.17290
O1 O 0.15100 0.25320 0.24160
O2 O -0.03100 0.02630 -0.06010
O3 O 0.34770 0.20750 0.34510
O4 O -0.15720 0.09460 0.17630
O5 O 0.24480 0.18000 0.00330
O6 O 0.47050 0.12780 -0.04580
Zn1 Zn 0.04520 0.13590 0.09230
Zn1A Zn 0.54520 0.36410 -0.09230
O6A O -0.02950 0.37220 0.04580
H10 H 0.13930 0.53290 0.05230
H11 H 0.19760 0.64900 -0.01370
O7 O 0.19920 0.60410 0.03850
loop_
_geom_bond_atom_site_label_1
_geom_bond_atom_site_label_2
_geom_bond_site_symmetry_1
_geom_bond_site_symmetry_2
C1 C2 1_555 1_555
C2 C3 1_555 1_555
C3 C4 1_555 1_555
C4 O5 1_555 1_555
H1 C2 1_555 1_555
H2 N1 1_555 1_555
H3 N1 1_555 1_555
H4 C3 1_555 1_555
H5 C3 1_555 1_555
H6 O2 1_555 1_555
H7 O2 1_555 1_555
H8 O4 1_555 1_555
H9 O4 1_555 1_555
N1 C2 1_555 1_555
O1 C1 1_555 1_555
O2 Zn1 1_555 1_555
O3 C1 1_555 1_555
O4 Zn1 1_555 1_555
O5 Zn1 1_555 1_555
O6 C4 1_555 1_555
Zn1 N1 1_555 1_555
H10 O7 1_555 1_555
H11 O7 1_555 1_555
Zn1A O6 1_555 1_555
O6A Zn1 1_555 1_555
O1 Zn1 1_555 1_555

#END
