
#######################################################################
#
#                 Cambridge Crystallographic Data Centre
#                                CCDC 
#
#######################################################################
#
# If this CIF has been generated from an entry in the Cambridge 
# Structural Database, then it will include bibliographic, chemical, 
# crystal, experimental, refinement or atomic coordinate data resulting 
# from the CCDC's data processing and validation procedures.
#
#######################################################################

data_ZNCROC
_symmetry_cell_setting           orthorhombic
_symmetry_space_group_name_H-M   'P b c a'
_symmetry_Int_Tables_number      61
_space_group_name_Hall           '-P 2ac 2ab'
loop_
_symmetry_equiv_pos_site_id
_symmetry_equiv_pos_as_xyz
1 x,y,z
2 1/2-x,1/2+y,z
3 x,1/2-y,1/2+z
4 1/2-x,-y,1/2+z
5 -x,-y,-z
6 1/2+x,1/2-y,-z
7 -x,1/2+y,1/2-z
8 1/2+x,y,1/2-z
_cell_length_a                   11.990
_cell_length_b                   8.160
_cell_length_c                   15.380
_cell_angle_alpha                90
_cell_angle_beta                 90
_cell_angle_gamma                90
_cell_volume                     1504.75
loop_
_atom_site_label
_atom_site_type_symbol
_atom_site_fract_x
_atom_site_fract_y
_atom_site_fract_z
C1 C 0.11200 0.07270 0.36540
C2 C 0.13470 0.24370 0.35360
C3 C 0.13350 0.32960 0.43800
C4 C 0.12980 0.19240 0.50300
C5 C 0.12540 0.03060 0.45900
O1 O 0.11690 -0.02590 0.30360
O2 O 0.13530 0.30850 0.27910
O3 O 0.13210 0.47620 0.45220
O4 O 0.13880 0.20820 0.58510
O5 O 0.11930 -0.09780 0.49480
O6 O 0.10860 -0.08820 0.11470
O7 O -0.05030 0.15860 0.18000
O8 O 0.30420 0.10750 0.17510
Zn1 Zn 0.12450 0.11930 0.18600
Zn1B Zn 0.12450 0.38070 0.68600
O4B O 0.13880 0.29180 0.08510
loop_
_geom_bond_atom_site_label_1
_geom_bond_atom_site_label_2
_geom_bond_site_symmetry_1
_geom_bond_site_symmetry_2
C1 C2 1_555 1_555
C2 C3 1_555 1_555
C3 C4 1_555 1_555
C4 C5 1_555 1_555
C5 C1 1_555 1_555
O1 C1 1_555 1_555
O2 C2 1_555 1_555
O3 C3 1_555 1_555
O4 C4 1_555 1_555
O5 C5 1_555 1_555
O6 Zn1 1_555 1_555
O7 Zn1 1_555 1_555
O8 Zn1 1_555 1_555
Zn1 O1 1_555 1_555
Zn1B O4 1_555 1_555
O4B Zn1 1_555 1_555
O2 Zn1 1_555 1_555

#END
