
#######################################################################
#
#                 Cambridge Crystallographic Data Centre
#                                CCDC 
#
#######################################################################
#
# If this CIF has been generated from an entry in the Cambridge 
# Structural Database, then it will include bibliographic, chemical, 
# crystal, experimental, refinement or atomic coordinate data resulting 
# from the CCDC's data processing and validation procedures.
#
#######################################################################

data_ZNGLUD01
_symmetry_cell_setting           orthorhombic
_symmetry_space_group_name_H-M   'P 21 21 21'
_symmetry_Int_Tables_number      19
_space_group_name_Hall           'P 2ac 2ab'
loop_
_symmetry_equiv_pos_site_id
_symmetry_equiv_pos_as_xyz
1 x,y,z
2 1/2-x,-y,1/2+z
3 1/2+x,1/2-y,-z
4 -x,1/2+y,1/2-z
_cell_length_a                   7.1770(6)
_cell_length_b                   10.3960(9)
_cell_length_c                   11.1210(9)
_cell_angle_alpha                90
_cell_angle_beta                 90
_cell_angle_gamma                90
_cell_volume                     829.761
loop_
_atom_site_label
_atom_site_type_symbol
_atom_site_fract_x
_atom_site_fract_y
_atom_site_fract_z
C1 C 0.1622(3) 0.9754(2) 0.33829(18)
C2 C 0.2888(3) 0.9235(2) 0.24009(17)
H1 H 0.2121 0.8764 0.1806
H2 H 0.3481 0.9968 0.1980
C3 C 0.4394(3) 0.8348(2) 0.28662(18)
H3 H 0.3797 0.7597 0.3257
H4 H 0.5123 0.8808 0.3487
C4 C 0.4635(3) 0.7174(2) 0.09058(18)
C5 C 0.5720(3) 0.7866(2) 0.18986(17)
H5 H 0.6584 0.7229 0.2277
N1 N 0.6856(3) 0.89148(19) 0.13905(16)
O1 O 0.0161(2) 1.03552(14) 0.30324(13)
O2 O 0.1976(2) 0.96102(16) 0.44679(13)
O3 O 0.4796(2) 0.75509(14) -0.01569(12)
O4 O 0.6959(2) 1.11918(16) -0.01978(16)
O5 O 0.3600(2) 0.62700(14) 0.12514(12)
Zn1 Zn 0.62256(3) 0.92909(2) -0.040913(19)
H6 H 0.687(4) 0.959(3) 0.184(2)
H7 H 0.801(5) 0.871(3) 0.134(2)
H8 H 0.779(5) 1.143(3) 0.011(3)
H9 H 0.652(4) 1.178(3) -0.051(3)
O1A O 0.4839(2) 0.96448(14) -0.19676(13)
O5B O 0.8600(2) 0.87300(14) -0.12514(12)
Zn1A Zn -0.12256(3) 1.07091(2) 0.459087(19)
Zn1B Zn 0.12256(3) 0.57091(2) 0.040913(19)
O6 O 0.4674(3) 0.84763(16) 0.58479(15)
H10 H 0.405(5) 0.882(3) 0.549(3)
H11 H 0.477(5) 0.879(3) 0.643(3)
loop_
_geom_bond_atom_site_label_1
_geom_bond_atom_site_label_2
_geom_bond_site_symmetry_1
_geom_bond_site_symmetry_2
C1 C2 1_555 1_555
C2 H1 1_555 1_555
H2 C2 1_555 1_555
C3 C2 1_555 1_555
H3 C3 1_555 1_555
H4 C3 1_555 1_555
C4 C5 1_555 1_555
C5 C3 1_555 1_555
H5 C5 1_555 1_555
N1 C5 1_555 1_555
O1 C1 1_555 1_555
O2 C1 1_555 1_555
O3 C4 1_555 1_555
O4 Zn1 1_555 1_555
O5 C4 1_555 1_555
Zn1 N1 1_555 1_555
H6 N1 1_555 1_555
H7 N1 1_555 1_555
H8 O4 1_555 1_555
H9 O4 1_555 1_555
O6 H10 1_555 1_555
H11 O6 1_555 1_555
O1A Zn1 1_555 1_555
O5B Zn1 1_555 1_555
Zn1A O1 1_555 1_555
Zn1B O5 1_555 1_555
O3 Zn1 1_555 1_555

#END
