
#######################################################################
#
#                 Cambridge Crystallographic Data Centre
#                                CCDC 
#
#######################################################################
#
# If this CIF has been generated from an entry in the Cambridge 
# Structural Database, then it will include bibliographic, chemical, 
# crystal, experimental, refinement or atomic coordinate data resulting 
# from the CCDC's data processing and validation procedures.
#
#######################################################################

data_ZNGLUD
_symmetry_cell_setting           orthorhombic
_symmetry_space_group_name_H-M   'P 21 21 21'
_symmetry_Int_Tables_number      19
_space_group_name_Hall           'P 2ac 2ab'
loop_
_symmetry_equiv_pos_site_id
_symmetry_equiv_pos_as_xyz
1 x,y,z
2 1/2+x,1/2-y,-z
3 -x,1/2+y,1/2-z
4 1/2-x,-y,1/2+z
_cell_length_a                   11.190(2)
_cell_length_b                   10.463(1)
_cell_length_c                   7.220(2)
_cell_angle_alpha                90
_cell_angle_beta                 90
_cell_angle_gamma                90
_cell_volume                     845.325
loop_
_atom_site_label
_atom_site_type_symbol
_atom_site_fract_x
_atom_site_fract_y
_atom_site_fract_z
C1 C 0.66010 0.53030 0.78980
C2 C 0.56050 0.46230 0.68140
C3 C 0.46410 0.41570 0.81280
C4 C 0.50960 0.32750 0.96390
C5 C 0.41100 0.27520 1.08790
H1 H 0.52400 0.54000 0.59900
H4 H 0.42600 0.49700 0.87100
H5 H 0.40100 0.37100 0.75200
H6 H 0.57300 0.36800 1.05000
H7 H 0.54400 0.24300 0.88000
H8 H 0.62100 0.36800 0.45100
H9 H 0.57400 0.29100 0.60200
H10 H 0.79500 0.08400 0.58600
H11 H 0.75500 0.13000 0.45600
N1 N 0.61020 0.35810 0.56740
O1 O 0.76540 0.49350 0.77360
O2 O 0.62540 0.62120 0.89290
O3 O 0.44580 0.21530 1.23420
O4 O 0.30280 0.29140 1.05540
O5 O 0.76970 0.13180 0.55170
Zn1 Zn 0.79080 0.32120 0.62790
Zn1C Zn 0.70920 0.67880 1.12790
Zn1A Zn 0.29080 0.17880 1.37210
O2C O 0.87460 0.37880 0.39290
O3A O 0.94580 0.28470 0.76580
H2 H 0.70100 0.13000 0.16700
H3 H 0.60700 0.17400 0.22900
O6 O 0.66320 0.09760 0.21530
loop_
_geom_bond_atom_site_label_1
_geom_bond_atom_site_label_2
_geom_bond_site_symmetry_1
_geom_bond_site_symmetry_2
C1 C2 1_555 1_555
C2 C3 1_555 1_555
C3 C4 1_555 1_555
C4 C5 1_555 1_555
C5 O3 1_555 1_555
H1 C2 1_555 1_555
H2 O6 1_555 1_555
H3 O6 1_555 1_555
H4 C3 1_555 1_555
H5 C3 1_555 1_555
H6 C4 1_555 1_555
H7 C4 1_555 1_555
H8 N1 1_555 1_555
H9 N1 1_555 1_555
H10 O5 1_555 1_555
H11 O5 1_555 1_555
N1 C2 1_555 1_555
O1 C1 1_555 1_555
O2 C1 1_555 1_555
O3 Zn1A 1_555 1_555
O4 C5 1_555 1_555
O5 Zn1 1_555 1_555
Zn1 N1 1_555 1_555
Zn1C O2 1_555 1_555
O2C Zn1 1_555 1_555
O3A Zn1 1_555 1_555
O1 Zn1 1_555 1_555

#END
