
#######################################################################
#
#                 Cambridge Crystallographic Data Centre
#                                CCDC 
#
#######################################################################
#
# If this CIF has been generated from an entry in the Cambridge 
# Structural Database, then it will include bibliographic, chemical, 
# crystal, experimental, refinement or atomic coordinate data resulting 
# from the CCDC's data processing and validation procedures.
#
#######################################################################

data_ZNHDNP
_symmetry_cell_setting           triclinic
_symmetry_space_group_name_H-M   'P -1'
_symmetry_Int_Tables_number      2
_space_group_name_Hall           '-P 1'
loop_
_symmetry_equiv_pos_site_id
_symmetry_equiv_pos_as_xyz
1 x,y,z
2 -x,-y,-z
_cell_length_a                   11.34
_cell_length_b                   8.40
_cell_length_c                   13.59
_cell_angle_alpha                84.18
_cell_angle_beta                 86.50
_cell_angle_gamma                86.33
_cell_volume                     1283.27
loop_
_atom_site_label
_atom_site_type_symbol
_atom_site_fract_x
_atom_site_fract_y
_atom_site_fract_z
O18 O 0.54800 0.20300 0.27000
N3 N 0.62400 0.24700 0.31300
O19 O 0.70200 0.30700 0.29200
O20 O 0.78500 0.46600 0.61600
N4 N 0.67800 0.43400 0.64000
O21 O 0.65100 0.49200 0.71700
O22 O 0.44300 0.34600 0.70200
C7 C 0.57300 0.27400 0.41800
C8 C 0.46600 0.21600 0.45800
C9 C 0.65000 0.34500 0.48200
C10 C 0.42500 0.23900 0.55500
C11 C 0.60700 0.35700 0.58600
C12 C 0.48900 0.31400 0.62800
Zn1 Zn 0.00000 0.00000 0.00000
Zn2 Zn 0.45600 0.18000 0.00100
Zn3 Zn -0.36200 0.45500 0.00300
Zn4 Zn 0.27500 -0.09100 0.00200
Zn5 Zn -0.09200 0.35900 0.00000
Zn6 Zn 0.17200 0.25200 0.13300
Zn7 Zn -0.19400 -0.28800 0.12000
O1 O 0.01700 0.19700 0.09000
O2 O 0.11400 -0.16100 0.07600
O3 O -0.20100 0.52500 -0.08600
O4 O 0.30100 0.10100 0.08200
O5 O 0.38600 -0.26100 0.07900
O6 O 0.47800 0.38200 0.07600
O7 O 0.42900 -0.01400 -0.07700
O8 O -0.34800 -0.35400 0.08200
O9 O 0.24900 -0.28900 -0.07100
O10 O -0.15800 -0.06700 0.08200
O11 O -0.06000 0.56100 0.08300
O12 O -0.24300 -0.32000 0.27700
O13 O 0.20000 0.17400 0.27700
O14 O 0.03000 0.38700 0.26200
N1 N 0.00000 0.36600 0.34900
O15 O -0.08100 0.46200 0.39100
O16 O -0.03100 0.16800 0.70400
N2 N 0.04000 0.09000 0.67100
O17 O 0.09000 -0.02500 0.72000
C1 C 0.15000 0.14400 0.36500
C2 C 0.06700 0.25700 0.40800
C3 C 0.21600 0.03100 0.43900
C4 C 0.03000 0.23400 0.50600
C5 C 0.16900 0.01100 0.53300
C6 C 0.08600 0.10500 0.56800
O1A O -0.01700 -0.19700 -0.09000
O2A O -0.11400 0.16100 -0.07600
O10A O 0.15800 0.06700 -0.08200
Zn4A Zn -0.27500 0.09100 -0.00200
Zn5A Zn 0.09200 -0.35900 0.00000
Zn6A Zn -0.17200 -0.25200 -0.13300
Zn7A Zn 0.19400 0.28800 -0.12000
O9A O -0.24900 0.28900 0.07100
O11A O 0.06000 0.43900 -0.08300
O3A O 0.20100 0.47500 0.08600
O4A O -0.30100 -0.10100 -0.08200
O5A O -0.38600 0.26100 -0.07900
O7A O -0.42900 0.01400 0.07700
O13A O -0.20000 -0.17400 -0.27700
O14A O -0.03000 -0.38700 -0.26200
N1A N 0.00000 -0.36600 -0.34900
O15A O 0.08100 -0.46200 -0.39100
O16A O 0.03100 -0.16800 -0.70400
N2A N -0.04000 -0.09000 -0.67100
O17A O -0.09000 0.02500 -0.72000
C1A C -0.15000 -0.14400 -0.36500
C2A C -0.06700 -0.25700 -0.40800
C3A C -0.21600 -0.03100 -0.43900
C4A C -0.03000 -0.23400 -0.50600
C5A C -0.16900 -0.01100 -0.53300
C6A C -0.08600 -0.10500 -0.56800
O8A O 0.34800 0.35400 -0.08200
O12A O 0.24300 0.32000 -0.27700
Zn2A Zn -0.45600 -0.18000 -0.00100
Zn3A Zn 0.36200 0.54500 -0.00300
O6_2 O -0.52200 0.38200 0.07600
O5A_2 O 0.61400 0.26100 -0.07900
O7A_2 O 0.57100 0.01400 0.07700
O6A O -0.47800 0.61800 -0.07600
O8_2 O -0.34800 0.64600 0.08200
O11_2 O -0.06000 -0.43900 0.08300
Zn6A_2 Zn -0.17200 0.74800 -0.13300
Zn2A_2 Zn 0.54400 -0.18000 -0.00100
Zn3A_2 Zn 0.36200 -0.45500 -0.00300
Zn3_2 Zn 0.63800 0.45500 0.00300
Zn3_3 Zn -0.36200 -0.54500 0.00300
Zn5A_2 Zn 0.09200 0.64100 0.00000
Zn7_2 Zn -0.19400 0.71200 0.12000
O3A_2 O 0.20100 -0.52500 0.08600
O11A_2 O 0.06000 -0.56100 -0.08300
O3_2 O -0.20100 -0.47500 -0.08600
Zn2_2 Zn -0.54400 0.18000 0.00100
O5_2 O -0.61400 -0.26100 0.07900
O6A_2 O -0.47800 -0.38200 -0.07600
O7_2 O -0.57100 -0.01400 -0.07700
O5_3 O 0.38600 0.73900 0.07900
O6A_3 O 0.52200 0.61800 -0.07600
O9_2 O 0.24900 0.71100 -0.07100
Zn3A_3 Zn -0.63800 0.54500 -0.00300
loop_
_geom_bond_atom_site_label_1
_geom_bond_atom_site_label_2
_geom_bond_site_symmetry_1
_geom_bond_site_symmetry_2
Zn1 O1 1_555 1_555
Zn2 O4 1_555 1_555
Zn3 O3 1_555 1_555
Zn4 O2 1_555 1_555
Zn5 O1 1_555 1_555
Zn6 O1 1_555 1_555
Zn7 O8 1_555 1_555
O2 Zn1 1_555 1_555
O3 Zn5 1_555 1_555
O4 Zn4 1_555 1_555
O5 Zn4 1_555 1_555
O6 Zn2 1_555 1_555
O7 Zn2 1_555 1_555
O8 Zn2A 1_555 1_555
O9 Zn4 1_555 1_555
O10 Zn1 1_555 1_555
O11 Zn5 1_555 1_555
O12 Zn7 1_555 1_555
O13 Zn6 1_555 1_555
O14 N1 1_555 1_555
N1 O15 1_555 1_555
O16 N2 1_555 1_555
N2 O17 1_555 1_555
C1 O13 1_555 1_555
C2 N1 1_555 1_555
C3 C1 1_555 1_555
C4 C2 1_555 1_555
C5 C3 1_555 1_555
C6 N2 1_555 1_555
O18 N3 1_555 1_555
N3 O19 1_555 1_555
O20 N4 1_555 1_555
N4 O21 1_555 1_555
O22 C12 1_555 1_555
C7 N3 1_555 1_555
C8 C7 1_555 1_555
C9 C7 1_555 1_555
C10 C8 1_555 1_555
C11 N4 1_555 1_555
C12 C10 1_555 1_555
O1A Zn1 1_555 1_555
O2A Zn1 1_555 1_555
O10A Zn1 1_555 1_555
Zn4A O10 1_555 1_555
Zn5A O2 1_555 1_555
Zn6A O1A 1_555 1_555
Zn7A O10A 1_555 1_555
O9A Zn3 1_555 1_555
O11A Zn5 1_555 1_555
O3A Zn6 1_555 1_555
O4A Zn4A 1_555 1_555
O5A Zn3 1_555 1_555
O7A Zn4A 1_555 1_555
O13A Zn6A 1_555 1_555
O14A N1A 1_555 1_555
N1A O15A 1_555 1_555
O16A N2A 1_555 1_555
N2A O17A 1_555 1_555
C1A O13A 1_555 1_555
C2A N1A 1_555 1_555
C3A C1A 1_555 1_555
C4A C2A 1_555 1_555
C5A C3A 1_555 1_555
C6A N2A 1_555 1_555
O8A Zn2 1_555 1_555
O12A Zn7A 1_555 1_555
Zn2A O4A 1_555 1_555
Zn3A O6 1_555 1_555
O6_2 Zn3 1_555 1_555
O5A_2 Zn2 1_555 1_555
O7A_2 Zn2 1_555 1_555
O6A Zn3 1_555 1_555
O8_2 Zn3 1_555 1_555
O11_2 Zn7 1_555 1_555
Zn6A_2 O3 1_555 1_555
Zn2A_2 O5 1_555 1_555
Zn3A_2 O5 1_555 1_555
Zn3_2 O6 1_555 1_555
Zn3_3 O8 1_555 1_555
Zn5A_2 O11 1_555 1_555
Zn7_2 O11 1_555 1_555
O3A_2 Zn5A 1_555 1_555
O11A_2 Zn5A 1_555 1_555
O3_2 Zn6A 1_555 1_555
Zn2_2 O5A 1_555 1_555
O5_2 Zn2A 1_555 1_555
O6A_2 Zn2A 1_555 1_555
O7_2 Zn2A 1_555 1_555
O5_3 Zn3A 1_555 1_555
O6A_3 Zn3A 1_555 1_555
O9_2 Zn3A 1_555 1_555
Zn3A_3 O6_2 1_555 1_555
Zn4 O7 1_555 1_555
Zn4 O10A 1_555 1_555
Zn5 O9A 1_555 1_555
Zn5 O2A 1_555 1_555
Zn6 O4 1_555 1_555
Zn7 O10 1_555 1_555
O7 Zn2A_2 1_555 1_555
O9 Zn5A 1_555 1_555
O9 Zn3A_2 1_555 1_555
C1 C2 1_555 1_555
C4 C6 1_555 1_555
C5 C6 1_555 1_555
C9 C11 1_555 1_555
C11 C12 1_555 1_555
O1A Zn5A 1_555 1_555
O2A Zn4A 1_555 1_555
Zn4A O5A 1_555 1_555
Zn4A O9A 1_555 1_555
Zn5A O11_2 1_555 1_555
Zn6A O4A 1_555 1_555
Zn7A O8A 1_555 1_555
Zn7A O11A 1_555 1_555
O11A Zn5A_2 1_555 1_555
O3A Zn3A 1_555 1_555
O3A Zn5A_2 1_555 1_555
O7A Zn2A 1_555 1_555
O7A Zn2_2 1_555 1_555
C1A C2A 1_555 1_555
C4A C6A 1_555 1_555
C5A C6A 1_555 1_555
O8A Zn3A 1_555 1_555
O6_2 Zn2_2 1_555 1_555
O5A_2 Zn3_2 1_555 1_555
O7A_2 Zn2A_2 1_555 1_555
O6A Zn3A_3 1_555 1_555
O8_2 Zn7_2 1_555 1_555
Zn3A_2 O3A_2 1_555 1_555
Zn3_2 O6A_3 1_555 1_555
Zn3_3 O3_2 1_555 1_555
Zn3_3 O6A_2 1_555 1_555
Zn5A_2 O9_2 1_555 1_555
Zn2_2 O7_2 1_555 1_555

#END
