
#######################################################################
#
#                 Cambridge Crystallographic Data Centre
#                                CCDC 
#
#######################################################################
#
# If this CIF has been generated from an entry in the Cambridge 
# Structural Database, then it will include bibliographic, chemical, 
# crystal, experimental, refinement or atomic coordinate data resulting 
# from the CCDC's data processing and validation procedures.
#
#######################################################################

data_ZNKAIH
_symmetry_cell_setting           orthorhombic
_symmetry_space_group_name_H-M   'P 21 21 21'
_symmetry_Int_Tables_number      19
_space_group_name_Hall           'P 2bc 2ac'
loop_
_symmetry_equiv_pos_site_id
_symmetry_equiv_pos_as_xyz
1 x,y,z
2 -x,1/2-y,1/2+z
3 1/2+x,-y,1/2-z
4 1/2-x,1/2+y,-z
_cell_length_a                   25.50(7)
_cell_length_b                   6.93(3)
_cell_length_c                   7.60(3)
_cell_angle_alpha                90
_cell_angle_beta                 90
_cell_angle_gamma                90
_cell_volume                     1343.03
loop_
_atom_site_label
_atom_site_type_symbol
_atom_site_fract_x
_atom_site_fract_y
_atom_site_fract_z
Zn1 Zn 0.20810 0.36430 0.22000
N1 N 0.16300 0.27300 -0.01300
C1 C 0.22200 0.53300 -0.12700
C2 C 0.17500 0.40700 -0.16000
C3 C 0.12800 0.52300 -0.21000
C4 C 0.09390 0.49700 -0.05000
C5 C 0.10400 0.28700 0.00700
C6 C 0.09900 0.43300 -0.37300
C7 C 0.13300 0.45000 -0.54000
C8 C 0.03700 0.56000 -0.06700
C9 C 0.02600 0.77300 -0.06700
C10 C -0.00300 0.42700 -0.08700
O1 O 0.24000 0.55000 0.02000
O2 O 0.24000 0.63000 -0.24300
O3 O 0.15300 0.30000 -0.60000
O4 O 0.13800 0.61700 -0.61000
O5 O 0.25500 0.50000 0.41000
O2C O 0.26000 0.13000 0.24300
O3_2 O 0.15300 0.30000 0.40000
O4_2 O 0.13800 0.61700 0.39000
Zn1C Zn 0.29190 0.86430 -0.22000
Zn1_2 Zn 0.20810 0.36430 -0.78000
O6 O 0.14100 0.95700 0.57300
loop_
_geom_bond_atom_site_label_1
_geom_bond_atom_site_label_2
_geom_bond_site_symmetry_1
_geom_bond_site_symmetry_2
Zn1 N1 1_555 1_555
N1 C2 1_555 1_555
C1 C2 1_555 1_555
C2 C3 1_555 1_555
C3 C4 1_555 1_555
C4 C5 1_555 1_555
C5 N1 1_555 1_555
C6 C3 1_555 1_555
C7 C6 1_555 1_555
C8 C4 1_555 1_555
C9 C8 1_555 1_555
C10 C8 1_555 1_555
O1 Zn1 1_555 1_555
O2 C1 1_555 1_555
O3 C7 1_555 1_555
O4 C7 1_555 1_555
O5 Zn1 1_555 1_555
O2C Zn1 1_555 1_555
O3_2 Zn1 1_555 1_555
O4_2 Zn1 1_555 1_555
Zn1C O2 1_555 1_555
Zn1_2 O3 1_555 1_555
C1 O1 1_555 1_555
O4 Zn1_2 1_555 1_555

#END
