
#######################################################################
#
#                 Cambridge Crystallographic Data Centre
#                                CCDC 
#
#######################################################################
#
# If this CIF has been generated from an entry in the Cambridge 
# Structural Database, then it will include bibliographic, chemical, 
# crystal, experimental, refinement or atomic coordinate data resulting 
# from the CCDC's data processing and validation procedures.
#
#######################################################################

data_ZOBCUO
_symmetry_cell_setting           monoclinic
_symmetry_space_group_name_H-M   'P 21'
_symmetry_Int_Tables_number      4
_space_group_name_Hall           'P 2yb'
loop_
_symmetry_equiv_pos_site_id
_symmetry_equiv_pos_as_xyz
1 x,y,z
2 -x,1/2+y,-z
_cell_length_a                   8.268(1)
_cell_length_b                   10.980(3)
_cell_length_c                   11.965(4)
_cell_angle_alpha                90
_cell_angle_beta                 106.97(2)
_cell_angle_gamma                90
_cell_volume                     1038.92
loop_
_atom_site_label
_atom_site_type_symbol
_atom_site_fract_x
_atom_site_fract_y
_atom_site_fract_z
Yb1 Yb -0.0990(1) -0.1110 -0.0867(1)
N1 N 0.2182(31) -0.3711(21) -0.2766(19)
N2 N -0.5148(37) 0.1744(22) -0.2814(19)
O1 O 0.0329(24) -0.2732(16) -0.1481(14)
O2 O -0.2456(22) 0.0465(18) -0.2068(15)
O3 O 0.0819(27) -0.0159(19) -0.1771(18)
O4 O -0.3059(27) -0.2059(20) -0.2315(16)
O5 O 0.1635(26) -0.1376(14) 0.0534(16)
O6 O -0.1460(24) -0.2596(18) 0.0338(16)
O7 O 0.0325(27) -0.4406 -0.0379(15)
O8 O -0.3539(26) -0.0671(16) -0.0383(16)
O9 O -0.1074(35) 0.1352(26) -0.3263(22)
C1 C 0.0715(40) -0.3839(22) -0.1250(23)
C2 C 0.1332(35) -0.4541(24) -0.2069(19)
C3 C -0.0025(42) -0.5205(35) -0.2997(26)
C4 C 0.0315(69) -0.4939(42) -0.4202(31)
C5 C 0.1024(44) -0.3638(48) -0.4020(23)
C6 C -0.2337(41) 0.1208(26) -0.2830(23)
C7 C -0.3795(30) 0.2072(25) -0.3284(25)
C8 C -0.4648(46) 0.2124(38) -0.4593(25)
C9 C -0.6420(54) 0.2642(56) -0.4696(38)
C10 C -0.6734(51) 0.2378(32) -0.3605(27)
O7A O -0.0325(27) 0.0594 0.0379(15)
Yb1A Yb 0.0990(1) -0.6110 0.0867(1)
Cl1 Cl -0.6663(9) -0.0987(11) -0.3127(6)
Cl2 Cl -0.5393(9) -0.2968(6) -0.9909(6)
Cl3 Cl -0.4237(11) -0.4781(7) -0.2469(7)
loop_
_geom_bond_atom_site_label_1
_geom_bond_atom_site_label_2
_geom_bond_site_symmetry_1
_geom_bond_site_symmetry_2
Yb1 O1 1_555 1_555
N1 C2 1_555 1_555
N2 C7 1_555 1_555
O1 C1 1_555 1_555
O2 Yb1 1_555 1_555
O3 Yb1 1_555 1_555
O4 Yb1 1_555 1_555
O5 Yb1 1_555 1_555
O6 Yb1 1_555 1_555
O7 C1 1_555 1_555
O8 Yb1 1_555 1_555
O9 C6 1_555 1_555
C1 C2 1_555 1_555
C2 C3 1_555 1_555
C3 C4 1_555 1_555
C4 C5 1_555 1_555
C5 N1 1_555 1_555
C6 O2 1_555 1_555
C7 C6 1_555 1_555
C8 C7 1_555 1_555
C9 C8 1_555 1_555
C10 N2 1_555 1_555
O7A Yb1 1_555 1_555
Yb1A O7 1_555 1_555
C9 C10 1_555 1_555

#END
