
#######################################################################
#
#                 Cambridge Crystallographic Data Centre
#                                CCDC 
#
#######################################################################
#
# If this CIF has been generated from an entry in the Cambridge 
# Structural Database, then it will include bibliographic, chemical, 
# crystal, experimental, refinement or atomic coordinate data resulting 
# from the CCDC's data processing and validation procedures.
#
#######################################################################

data_ZOBSUG
_symmetry_cell_setting           monoclinic
_symmetry_space_group_name_H-M   'P 21'
_symmetry_Int_Tables_number      4
_space_group_name_Hall           'P 2yb'
loop_
_symmetry_equiv_pos_site_id
_symmetry_equiv_pos_as_xyz
1 x,y,z
2 -x,1/2+y,-z
_cell_length_a                   7.4137(4)
_cell_length_b                   13.3645(7)
_cell_length_c                   13.4407(7)
_cell_angle_alpha                90
_cell_angle_beta                 103.816(2)
_cell_angle_gamma                90
_cell_volume                     1293.18
loop_
_atom_site_label
_atom_site_type_symbol
_atom_site_fract_x
_atom_site_fract_y
_atom_site_fract_z
Cu1 Cu 0.14200(5) 0.93107(3) 0.64127(3)
Cu2 Cu 0.44507(5) 1.05451(3) 0.58934(3)
Cl1 Cl -0.01720(16) 0.90211(12) 0.07710(8)
Cl2 Cl 0.57895(16) 1.10862(9) 1.14306(8)
N1 N 0.0987(3) 0.8818(2) 0.7716(2)
H1 H 0.028 0.9343 0.7994
N2 N 0.5257(3) 1.0803(2) 0.4611(2)
H2 H 0.4421 1.1322 0.4206
O1 O -0.0866(3) 0.8627(2) 0.58043(18)
O2 O -0.2826(3) 0.7493(2) 0.6118(2)
O3 O 0.3635(3) 1.00377(19) 0.70600(18)
O4 O 0.7024(3) 1.0782(2) 0.65887(18)
O5 O 0.9821(3) 1.1036(2) 0.6298(2)
O6 O 0.2326(3) 0.9716(2) 0.52066(18)
O7 O -0.2850(3) 0.8405(2) 0.8174(2)
H3 H -0.2435 0.893 0.8491
O8 O 0.6651(3) 1.2598(2) 0.36712(19)
H4 H 0.5527 1.2768 0.3519
O9 O 0.3017(3) 1.2025(2) 0.5978(2)
C1 C -0.1413(5) 0.8010(3) 0.6397(3)
C2 C -0.0214(4) 0.7908(3) 0.7485(3)
H5 H 0.0622 0.7319 0.7495
C3 C -0.1382(5) 0.7704(3) 0.8250(3)
H6 H -0.1912 0.7022 0.8133
H7 H -0.0574 0.7726 0.8952
C4 C 0.2788(4) 0.8648(3) 0.8486(3)
H8 H 0.2552 0.8304 0.9095
H9 H 0.3605 0.8216 0.8186
C5 C 0.3720(4) 0.9631(3) 0.8797(3)
C6 C 0.4275(4) 0.9883(3) 0.9827(3)
H10 H 0.4104 0.9419 1.0332
C7 C 0.5076(5) 1.0805(3) 1.0123(3)
C8 C 0.5315(5) 1.1490(3) 0.9407(3)
H11 H 0.5825 1.213 0.9615
C9 C 0.4801(5) 1.1238(3) 0.8370(3)
H12 H 0.4963 1.171 0.787
C10 C 0.4057(4) 1.0305(3) 0.8062(3)
C11 C 0.8119(5) 1.0980(3) 0.6002(3)
C12 C 0.7186(4) 1.1201(3) 0.4877(3)
H13 H 0.7917 1.0879 0.4428
C13 C 0.7183(5) 1.2332(3) 0.4725(3)
H14 H 0.6313 1.2643 0.509
H15 H 0.8441 1.2597 0.5028
C14 C 0.5042(4) 0.9860(3) 0.4007(3)
H16 H 0.5625 0.9302 0.4455
H17 H 0.5689 0.9926 0.3446
C15 C 0.3024(5) 0.9622(3) 0.3561(3)
C16 C 0.1758(5) 0.9541(3) 0.4184(3)
C17 C -0.0069(4) 0.9265(3) 0.3741(3)
H18 H -0.0927 0.9194 0.416
C18 C -0.0649(5) 0.9093(3) 0.2704(3)
H19 H -0.1895 0.89 0.2411
C19 C 0.0579(5) 0.9203(4) 0.2098(3)
C20 C 0.2409(5) 0.9464(3) 0.2517(3)
H20 H 0.3248 0.9536 0.2086
H21 H 0.283(5) 1.224(3) 0.530(3)
H22 H 0.203(5) 1.189(3) 0.604(3)
Cu1_2 Cu 1.14200(5) 0.93107(3) 0.64127(3)
Cu1A Cu 0.85800(5) 1.43107(3) 0.35873(3)
O5_2 O -0.0179(3) 1.1036(2) 0.6298(2)
O8A O 0.3349(3) 0.7598(2) 0.63288(19)
O10 O 0.1042(3) 0.5319(2) 0.1464(2)
H23 H 0.175 0.5495 0.2022
C21 C 0.0155(6) 0.6174(4) 0.0941(3)
H24 H -0.0628 0.6486 0.1347
H25 H -0.0615 0.5973 0.0273
H26 H 0.1097 0.6654 0.0842
loop_
_geom_bond_atom_site_label_1
_geom_bond_atom_site_label_2
_geom_bond_site_symmetry_1
_geom_bond_site_symmetry_2
Cu1 N1 1_555 1_555
Cu2 N2 1_555 1_555
Cl1 C19 1_555 1_555
Cl2 C7 1_555 1_555
N1 H1 1_555 1_555
N2 H2 1_555 1_555
O1 Cu1 1_555 1_555
O2 C1 1_555 1_555
O3 Cu1 1_555 1_555
O4 Cu2 1_555 1_555
O5 C11 1_555 1_555
O6 Cu1 1_555 1_555
O7 H3 1_555 1_555
O8 H4 1_555 1_555
O9 Cu2 1_555 1_555
C1 O1 1_555 1_555
C2 N1 1_555 1_555
H5 C2 1_555 1_555
C3 O7 1_555 1_555
H6 C3 1_555 1_555
H7 C3 1_555 1_555
C4 N1 1_555 1_555
H8 C4 1_555 1_555
H9 C4 1_555 1_555
C5 C4 1_555 1_555
C6 C5 1_555 1_555
H10 C6 1_555 1_555
C7 C6 1_555 1_555
C8 C7 1_555 1_555
H11 C8 1_555 1_555
C9 C8 1_555 1_555
H12 C9 1_555 1_555
C10 O3 1_555 1_555
C11 O4 1_555 1_555
C12 N2 1_555 1_555
H13 C12 1_555 1_555
C13 O8 1_555 1_555
H14 C13 1_555 1_555
H15 C13 1_555 1_555
C14 N2 1_555 1_555
H16 C14 1_555 1_555
H17 C14 1_555 1_555
C15 C14 1_555 1_555
C16 O6 1_555 1_555
C17 C16 1_555 1_555
H18 C17 1_555 1_555
C18 C17 1_555 1_555
H19 C18 1_555 1_555
C19 C18 1_555 1_555
C20 C15 1_555 1_555
H20 C20 1_555 1_555
H21 O9 1_555 1_555
H22 O9 1_555 1_555
O10 H23 1_555 1_555
C21 O10 1_555 1_555
H24 C21 1_555 1_555
H25 C21 1_555 1_555
H26 C21 1_555 1_555
Cu1_2 O5 1_555 1_555
Cu1A O8 1_555 1_555
O5_2 Cu1 1_555 1_555
O8A Cu1 1_555 1_555
Cu2 O3 1_555 1_555
Cu2 O6 1_555 1_555
C1 C2 1_555 1_555
C2 C3 1_555 1_555
C5 C10 1_555 1_555
C9 C10 1_555 1_555
C11 C12 1_555 1_555
C12 C13 1_555 1_555
C15 C16 1_555 1_555
C19 C20 1_555 1_555

#END
