
#######################################################################
#
#                 Cambridge Crystallographic Data Centre
#                                CCDC 
#
#######################################################################
#
# If this CIF has been generated from an entry in the Cambridge 
# Structural Database, then it will include bibliographic, chemical, 
# crystal, experimental, refinement or atomic coordinate data resulting 
# from the CCDC's data processing and validation procedures.
#
#######################################################################

data_ZOBTOB
_symmetry_cell_setting           monoclinic
_symmetry_space_group_name_H-M   'P 21/c'
_symmetry_Int_Tables_number      14
_space_group_name_Hall           '-P 2ybc'
loop_
_symmetry_equiv_pos_site_id
_symmetry_equiv_pos_as_xyz
1 x,y,z
2 -x,1/2+y,1/2-z
3 -x,-y,-z
4 x,1/2-y,1/2+z
_cell_length_a                   19.3628(7)
_cell_length_b                   43.7924(11)
_cell_length_c                   16.6371(6)
_cell_angle_alpha                90
_cell_angle_beta                 90.525(3)
_cell_angle_gamma                90
_cell_volume                     14106.7
loop_
_atom_site_label
_atom_site_type_symbol
_atom_site_fract_x
_atom_site_fract_y
_atom_site_fract_z
Ag1 Ag -0.61348(5) 0.682892(15) 0.80069(6)
O1 O 0.1577(4) 0.53801(16) 0.4114(8)
N1 N 0.3790(6) 0.5052(3) 0.5597(8)
C1 C 0.1884(6) 0.6214(2) 0.3805(6)
Ag2 Ag -0.11191(5) 0.683767(15) 0.64763(6)
O2 O 0.2908(4) 0.54045(16) 0.4448(6)
N2 N 0.3963(4) 0.73197(17) 0.8232(5)
H1 H 0.3834 0.7128 0.8173
C2 C 0.1524(6) 0.5930(2) 0.3870(7)
H2 H 0.1041 0.5924 0.3767
O3 O 0.4516(4) 0.66563(14) 0.6196(4)
N3 N -0.1286(5) 0.63467(17) 0.6677(6)
C3 C 0.1868(6) 0.5662(2) 0.4083(8)
O4 O 0.3858(4) 0.71390(14) 0.6625(4)
N4 N -0.1064(4) 0.73319(17) 0.6255(5)
C4 C 0.2595(6) 0.5675(2) 0.4212(7)
O5 O 0.0409(4) 0.70404(15) 0.6495(5)
N5 N -0.1738(13) 0.4945(6) 0.8649(18)
C5 C 0.2921(6) 0.5955(2) 0.4123(7)
H3 H 0.3405 0.5966 0.4215
O6 O -0.0116(4) 0.65353(14) 0.5959(5)
N6 N -0.6288(4) 0.63436(16) 0.7724(5)
C6 C 0.2579(6) 0.6214(2) 0.3911(7)
O7 O -0.1134(4) 0.71414(14) 0.7860(4)
C7 C 0.3016(6) 0.6508(2) 0.3809(7)
H4 H 0.3459 0.6452 0.3554
H5 H 0.2768 0.6648 0.3439
O8 O -0.0488(4) 0.66472(15) 0.8234(5)
C8 C 0.3169(5) 0.6675(2) 0.4581(7)
O9 O -0.2180(5) 0.5374(2) 0.9933(8)
C9 C 0.3734(5) 0.6577(2) 0.5039(7)
H6 H 0.3983 0.6402 0.4870
O10 O -0.3472(4) 0.53615(19) 1.0334(6)
C10 C 0.3944(5) 0.6727(2) 0.5732(6)
O11 O -0.5079(4) 0.65371(14) 0.8446(5)
C11 C 0.3602(5) 0.6991(2) 0.5959(6)
O12 O -0.4572(4) 0.70414(15) 0.7961(4)
C12 C 0.3040(5) 0.7093(2) 0.5509(7)
H7 H 0.2802 0.7272 0.5677
C13 C 0.2815(5) 0.6941(2) 0.4812(6)
C14 C 0.2176(6) 0.7061(2) 0.4375(7)
H8 H 0.2207 0.7011 0.3796
H9 H 0.2155 0.7285 0.4431
C15 C 0.1522(6) 0.6920(2) 0.4716(6)
C16 C 0.1260(5) 0.7050(2) 0.5406(6)
H10 H 0.1457 0.7235 0.5597
C17 C 0.0727(6) 0.6922(2) 0.5827(6)
C18 C 0.0424(5) 0.6650(2) 0.5520(7)
C19 C 0.0653(5) 0.6528(2) 0.4846(7)
H11 H 0.0433 0.6349 0.4644
C20 C 0.1220(5) 0.6653(2) 0.4407(6)
C21 C 0.1443(6) 0.6495(2) 0.3632(7)
H12 H 0.1028 0.6433 0.3321
H13 H 0.1710 0.6640 0.3300
C22 C 0.3637(6) 0.5420(3) 0.4594(10)
H14 H 0.3740 0.5578 0.5003
H15 H 0.3879 0.5475 0.4093
C23 C 0.3875(8) 0.5125(3) 0.4878(8)
C24 C 0.4238(9) 0.4944(4) 0.4356(12)
H16 H 0.4314 0.5018 0.3827
C25 C 0.4498(9) 0.4661(4) 0.4559(10)
H17 H 0.4734 0.4536 0.4184
C26 C 0.4399(9) 0.4576(4) 0.5311(11)
C27 C 0.4013(8) 0.4772(3) 0.5853(10)
C28 C 0.3494(5) 0.74052(19) 0.6903(7)
H18 H 0.3007 0.7353 0.7017
H19 H 0.3501 0.7567 0.6488
C29 C 0.3850(5) 0.7515(2) 0.7656(6)
C30 C 0.4054(6) 0.7823(2) 0.7712(7)
H20 H 0.3963 0.7959 0.7280
C31 C 0.4382(6) 0.7922(2) 0.8386(7)
H21 H 0.4524 0.8130 0.8425
C32 C 0.4513(5) 0.7720(2) 0.9032(6)
C33 C 0.4284(5) 0.7412(2) 0.8934(6)
C34 C 0.4399(6) 0.7204(3) 0.9578(7)
H22 H 0.4244 0.6999 0.9538
C35 C 0.4734(6) 0.7302(3) 1.0255(7)
H23 H 0.4805 0.7163 1.0684
C36 C 0.4972(6) 0.7595(3) 1.0336(8)
H24 H 0.5216 0.7654 1.0809
C37 C 0.4860(6) 0.7801(3) 0.9747(7)
H25 H 0.5019 0.8004 0.9816
C38 C 0.4903(5) 0.6391(2) 0.5990(7)
H26 H 0.5040 0.6400 0.5418
H27 H 0.4622 0.6205 0.6072
C39 C 0.5533(5) 0.6385(2) 0.6525(8)
H28 H 0.5392 0.6398 0.7094
H29 H 0.5829 0.6564 0.6407
C40 C 0.5951(6) 0.6087(2) 0.6391(9)
H30 H 0.5679 0.5911 0.6572
H31 H 0.6384 0.6096 0.6697
H32 H 0.6051 0.6064 0.5818
C41 C -0.0281(6) 0.6221(2) 0.5888(7)
H33 H 0.0136 0.6096 0.5992
H34 H -0.0449 0.6177 0.5337
C42 C -0.0827(5) 0.6144(2) 0.6483(6)
C43 C -0.0845(6) 0.5840(3) 0.6751(8)
H35 H -0.0524 0.5695 0.6553
C44 C -0.1329(7) 0.5755(3) 0.7298(8)
H36 H -0.1323 0.5555 0.7519
C45 C -0.1844(6) 0.5970(2) 0.7537(8)
C46 C -0.1812(6) 0.6260(2) 0.7234(6)
C47 C -0.2296(6) 0.6484(2) 0.7467(8)
H37 H -0.2271 0.6685 0.7252
C48 C -0.2796(6) 0.6411(3) 0.7998(8)
H38 H -0.3131 0.6559 0.8146
C49 C -0.2816(6) 0.6113(2) 0.8331(8)
H39 H -0.3164 0.6062 0.8706
C50 C -0.2340(7) 0.5903(3) 0.8115(9)
H40 H -0.2344 0.5707 0.8360
C51 C 0.0723(6) 0.7295(2) 0.6876(7)
H41 H 0.0383 0.7393 0.7232
H42 H 0.0856 0.7445 0.6461
C52 C 0.1349(6) 0.7210(2) 0.7361(7)
H43 H 0.1713 0.7136 0.6994
H44 H 0.1230 0.7040 0.7727
C53 C 0.1640(6) 0.7478(3) 0.7863(7)
H45 H 0.1673 0.7661 0.7524
H46 H 0.2100 0.7425 0.8070
H47 H 0.1332 0.7520 0.8314
C54 C -0.2134(5) 0.6921(2) 0.9640(6)
C55 C -0.1933(5) 0.7087(2) 0.8978(7)
H48 H -0.2172 0.7268 0.8832
C56 C -0.1386(5) 0.6987(2) 0.8535(7)
C57 C -0.1050(6) 0.6721(2) 0.8721(7)
C58 C -0.1246(5) 0.6550(2) 0.9379(6)
H49 H -0.1015 0.6365 0.9508
C59 C -0.1804(5) 0.6656(2) 0.9864(7)
C60 C -0.1942(6) 0.6469(2) 1.0623(7)
H50 H -0.2156 0.6605 1.1026
H51 H -0.1493 0.6400 1.0846
C61 C -0.2410(6) 0.6188(2) 1.0511(6)
C62 C -0.2096(6) 0.5915(2) 1.0284(8)
H52 H -0.1613 0.5916 1.0191
C63 C -0.2452(7) 0.5645(2) 1.0186(9)
C64 C -0.3162(7) 0.5646(2) 1.0370(8)
C65 C -0.3477(6) 0.5909(2) 1.0578(7)
H53 H -0.3958 0.5907 1.0689
C66 C -0.3114(6) 0.6183(2) 1.0634(6)
C67 C -0.3523(5) 0.6480(2) 1.0811(7)
H54 H -0.3938 0.6429 1.1127
H55 H -0.3231 0.6618 1.1139
C68 C -0.3740(5) 0.6640(2) 1.0057(6)
C69 C -0.4298(5) 0.6516(2) 0.9609(7)
H56 H -0.4517 0.6336 0.9800
C70 C -0.4539(5) 0.6648(2) 0.8903(6)
C71 C -0.4250(5) 0.6917(2) 0.8638(6)
C72 C -0.3712(5) 0.7048(2) 0.9064(7)
H57 H -0.3528 0.7238 0.8890
C73 C -0.3429(5) 0.6905(2) 0.9756(7)
C74 C -0.2778(5) 0.7042(2) 1.0110(7)
H58 H -0.2736 0.6986 1.0685
H59 H -0.2799 0.7268 1.0072
C75 C -0.1507(5) 0.7401(2) 0.7596(7)
H60 H -0.1509 0.7558 0.8023
H61 H -0.1991 0.7344 0.7471
C76 C -0.1162(5) 0.7525(2) 0.6850(7)
C77 C -0.0974(6) 0.7836(2) 0.6821(7)
H62 H -0.1075 0.7972 0.7249
C78 C -0.0639(6) 0.7931(3) 0.6149(7)
H63 H -0.0491 0.8137 0.6118
C79 C -0.0509(6) 0.7741(2) 0.5519(7)
C80 C -0.0748(5) 0.7430(2) 0.5573(6)
C81 C -0.0643(6) 0.7227(2) 0.4935(7)
H64 H -0.0812 0.7023 0.4966
C82 C -0.0291(6) 0.7323(3) 0.4258(8)
H65 H -0.0222 0.7186 0.3823
C83 C -0.0039(6) 0.7621(3) 0.4212(7)
H66 H 0.0218 0.7681 0.3756
C84 C -0.0154(6) 0.7826(3) 0.4807(7)
H67 H 0.0004 0.8030 0.4747
C85 C -0.0124(6) 0.6371(2) 0.8432(7)
H68 H -0.0412 0.6190 0.8303
H69 H -0.0007 0.6366 0.9013
C86 C 0.0531(6) 0.6369(2) 0.7933(8)
H70 H 0.0406 0.6400 0.7360
H71 H 0.0829 0.6542 0.8102
C87 C 0.0925(7) 0.6079(3) 0.8019(9)
H72 H 0.1040 0.6045 0.8587
H73 H 0.1352 0.6091 0.7708
H74 H 0.0643 0.5908 0.7818
C88 C -0.1477(11) 0.5365(4) 0.9815(16)
H75 H -0.1224 0.5386 1.0332
H76 H -0.1331 0.5530 0.9449
C89 C -0.1324(11) 0.5007(4) 0.9386(16)
C90 C -0.0946(9) 0.4846(4) 0.9785(12)
H77 H -0.0761 0.4901 1.0296
C91 C -0.0823(9) 0.4583(3) 0.9411(15)
C92 C -0.1078(8) 0.4491(3) 0.8643(10)
C93 C -0.1507(9) 0.4687(3) 0.8300(13)
H78 H -0.1663 0.4643 0.7769
C94 C -0.0866(9) 0.4220(3) 0.8358(14)
H79 H -0.1030 0.4152 0.7848
C95 C -0.0417(10) 0.4039(4) 0.8791(15)
H80 H -0.0290 0.3849 0.8560
C96 C -0.0152(11) 0.4107(4) 0.9491(15)
H81 H 0.0187 0.3982 0.9744
C97 C -0.0390(11) 0.4368(5) 0.9838(18)
H82 H -0.0267 0.4409 1.0381
C98 C -0.4115(12) 0.5346(5) 1.0677(15)
H83 H -0.4440 0.5486 1.0400
H84 H -0.4089 0.5403 1.1252
C99 C -0.436(2) 0.5006(8) 1.058(2)
H85 H -0.4852 0.4983 1.0718
H86 H -0.4284 0.4931 1.0027
C100 C -0.3937(19) 0.4857(7) 1.113(2)
H87 H -0.3478 0.4828 1.0897
H88 H -0.4137 0.4657 1.1258
H89 H -0.3897 0.4979 1.1620
C101 C -0.5277(6) 0.6219(2) 0.8560(7)
H90 H -0.5471 0.6191 0.9104
H91 H -0.4867 0.6086 0.8511
C102 C -0.5812(5) 0.6133(2) 0.7931(6)
C103 C -0.5793(6) 0.5842(2) 0.7621(8)
H92 H -0.5439 0.5704 0.7782
C104 C -0.6285(6) 0.5753(2) 0.7082(8)
H93 H -0.6280 0.5552 0.6870
C105 C -0.6815(6) 0.5965(2) 0.6831(7)
C106 C -0.6797(5) 0.6257(2) 0.7163(7)
C107 C -0.7314(6) 0.6471(2) 0.6944(7)
H94 H -0.7313 0.6667 0.7190
C108 C -0.7815(6) 0.6402(2) 0.6389(7)
H95 H -0.8154 0.6549 0.6242
C109 C -0.7823(6) 0.6112(2) 0.6040(8)
H96 H -0.8161 0.6061 0.5645
C110 C -0.7329(7) 0.5897(3) 0.6278(8)
H97 H -0.7347 0.5698 0.6052
C111 C -0.4258(6) 0.7305(2) 0.7589(7)
H98 H -0.4113 0.7452 0.8011
H99 H -0.4604 0.7408 0.7240
C112 C -0.3637(6) 0.7219(3) 0.7091(8)
H100 H -0.3770 0.7053 0.6715
H101 H -0.3270 0.7139 0.7452
C113 C -0.3349(6) 0.7485(3) 0.6612(8)
H102 H -0.3700 0.7557 0.6228
H103 H -0.2939 0.7418 0.6319
H104 H -0.3223 0.7651 0.6979
C114 C 0.0848(10) 0.5361(4) 0.4017(12)
H105 H 0.0688 0.5507 0.3599
H106 H 0.0617 0.5413 0.4528
C115 C 0.0669(19) 0.5035(6) 0.377(2)
H107 H 0.0184 0.5012 0.3588
H108 H 0.0988 0.4952 0.3364
C116 C 0.078(3) 0.4919(10) 0.451(3)
H109 H 0.0738 0.4697 0.4496
H110 H 0.0445 0.5004 0.4887
H111 H 0.1250 0.4974 0.4695
C117 C 0.4124(12) 0.4376(5) 0.6966(15)
H112 H 0.4027 0.4308 0.7495
C118 C 0.4651(10) 0.4264(4) 0.5652(12)
H113 H 0.4887 0.4122 0.5321
C119 C 0.3862(12) 0.4680(5) 0.6651(13)
H114 H 0.3596 0.4809 0.6987
C120 C 0.4526(11) 0.4200(5) 0.6422(13)
H115 H 0.4725 0.4017 0.6628
Ag1_2 Ag 0.38652(5) 0.682892(15) 0.80069(6)
O4_2 O -0.6142(4) 0.71390(14) 0.6625(4)
B1 B 0.1694(7) 0.8011(3) 0.5073(10)
H116 H 0.1342 0.7825 0.4859
B2 B 0.2265(6) 0.7958(3) 0.5871(8)
H117 H 0.2281 0.7734 0.6196
Co1 Co 0.29409(8) 0.86504(3) 0.58304(9)
B3 B 0.2586(7) 0.7999(3) 0.4902(9)
H118 H 0.2820 0.7803 0.4566
B4 B 0.2075(7) 0.8281(3) 0.4378(11)
H119 H 0.1970 0.8280 0.3715
B5 B 0.1447(8) 0.8400(3) 0.5091(10)
H120 H 0.0925 0.8481 0.4891
B6 B 0.1563(7) 0.8203(3) 0.5972(11)
H121 H 0.1108 0.8150 0.6358
B7 B 0.2402(6) 0.8300(3) 0.6399(8)
H122 H 0.2494 0.8303 0.7065
B8 B 0.1910(6) 0.8553(2) 0.5871(8)
H123 H 0.1656 0.8743 0.6210
B9 B 0.2203(6) 0.8599(3) 0.4959(8)
H124 H 0.2157 0.8822 0.4633
B10 B 0.4194(9) 0.9295(4) 0.6534(12)
H125 H 0.4558 0.9480 0.6729
B11 B 0.4467(7) 0.8911(3) 0.6491(10)
H126 H 0.5005 0.8843 0.6668
B12 B 0.4266(9) 0.9121(3) 0.5599(10)
H127 H 0.4675 0.9192 0.5166
B13 B 0.3864(7) 0.9022(3) 0.7219(10)
H128 H 0.3998 0.9024 0.7875
B14 B 0.3321(8) 0.9305(3) 0.6786(9)
H129 H 0.3092 0.9493 0.7152
B15 B 0.3564(9) 0.9357(3) 0.5790(10)
H130 H 0.3491 0.9585 0.5494
B16 B 0.2905(7) 0.9111(2) 0.5991(7)
H131 H 0.2367 0.9184 0.5827
B17 B 0.3071(6) 0.8923(2) 0.6829(7)
H132 H 0.2657 0.8868 0.7273
B18 B 0.3716(7) 0.8667(3) 0.6677(8)
H133 H 0.3759 0.8441 0.6987
C121 C 0.3040(7) 0.8171(2) 0.5729(9)
H134 H 0.3554 0.8081 0.5936
C122 C 0.2923(7) 0.8381(3) 0.4803(8)
H135 H 0.3363 0.8436 0.4396
C123 C 0.3449(7) 0.9014(2) 0.5256(9)
H136 H 0.3319 0.9022 0.4599
C124 C 0.4025(7) 0.8723(3) 0.5672(9)
H137 H 0.4291 0.8542 0.5316
Co2 Co -0.21562(9) 0.86566(3) 0.86092(10)
B19 B -0.3383(8) 0.8000(3) 0.9282(11)
H138 H -0.3726 0.7809 0.9478
B20 B -0.2753(7) 0.7951(3) 0.8558(9)
H139 H -0.2689 0.7723 0.8267
B21 B -0.2487(8) 0.8009(3) 0.9562(9)
H140 H -0.2245 0.7828 0.9946
B22 B -0.3068(12) 0.8289(3) 0.9961(12)
H141 H -0.3209 0.8295 1.0612
B23 B -0.3683(11) 0.8393(4) 0.9192(15)
H142 H -0.4223 0.8466 0.9327
B24 B -0.3480(9) 0.8181(3) 0.8340(13)
H143 H -0.3899 0.8111 0.7910
B25 B -0.2630(6) 0.8288(3) 0.7993(9)
H144 H -0.2498 0.8280 0.7339
B26 B -0.2027(7) 0.8190(3) 0.8758(9)
H145 H -0.1488 0.8116 0.8613
B27 B -0.2255(10) 0.8393(3) 0.9608(9)
H146 H -0.1850 0.8461 1.0058
B28 B -0.0935(12) 0.9314(4) 0.7982(11)
H147 H -0.0566 0.9498 0.7798
B29 B -0.0637(10) 0.8935(4) 0.8097(12)
H148 H -0.0085 0.8872 0.7989
B30 B -0.0904(15) 0.9145(4) 0.8954(13)
H149 H -0.0528 0.9228 0.9420
B31 B -0.1617(16) 0.9377(4) 0.8681(12)
H150 H -0.1736 0.9605 0.8956
B32 B -0.1798(9) 0.9319(3) 0.7669(11)
H151 H -0.2023 0.9505 0.7284
B33 B -0.1225(9) 0.9045(3) 0.7297(10)
H152 H -0.1075 0.9051 0.6649
B34 B -0.1332(8) 0.8682(3) 0.7821(8)
H153 H -0.1232 0.8461 0.7506
B35 B -0.2014(7) 0.8926(2) 0.7630(7)
H154 H -0.2409 0.8858 0.7168
B36 B -0.2222(9) 0.9118(3) 0.8431(8)
H155 H -0.2770 0.9184 0.8551
C125 C -0.1118(10) 0.8745(3) 0.8875(10)
H156 H -0.0876 0.8565 0.9265
C126 C -0.1677(12) 0.9020(3) 0.9227(10)
H157 H -0.1806 0.9021 0.9882
C127 C -0.2958(9) 0.8602(3) 0.9396(9)
H158 H -0.3048 0.8825 0.9707
C128 C -0.3201(8) 0.8548(3) 0.8437(12)
H159 H -0.3454 0.8728 0.8056
N7 N -0.4109(10) 0.5363(4) 0.8151(11)
O13 O -0.4509(10) 0.5318(4) 0.7522(11)
O14 O -0.4193(10) 0.5618(4) 0.8497(12)
C129 C -0.3639(12) 0.5137(5) 0.8417(15)
H160 H -0.3266 0.5117 0.8027
H161 H -0.3880 0.4942 0.8469
H162 H -0.3445 0.5197 0.8940
N8 N -0.2566(18) 0.5294(7) 0.640(2)
O15 O -0.2537(14) 0.5172(6) 0.7037(17)
C130 C -0.239(2) 0.5307(9) 0.561(2)
H163 H -0.2545 0.5500 0.5372
H164 H -0.2601 0.5136 0.5316
H165 H -0.1882 0.5293 0.5560
O16 O -0.3089(14) 0.5488(6) 0.6570(17)
loop_
_geom_bond_atom_site_label_1
_geom_bond_atom_site_label_2
_geom_bond_site_symmetry_1
_geom_bond_site_symmetry_2
Ag1 N6 1_555 1_555
O1 C3 1_555 1_555
N1 C23 1_555 1_555
C1 C2 1_555 1_555
Ag2 N3 1_555 1_555
O2 C4 1_555 1_555
N2 H1 1_555 1_555
C2 H2 1_555 1_555
O3 C10 1_555 1_555
N3 C42 1_555 1_555
C3 C2 1_555 1_555
O4 C11 1_555 1_555
N4 Ag2 1_555 1_555
C4 C3 1_555 1_555
O5 C17 1_555 1_555
N5 C89 1_555 1_555
C5 C4 1_555 1_555
H3 C5 1_555 1_555
O6 Ag2 1_555 1_555
N6 C102 1_555 1_555
C6 C1 1_555 1_555
O7 Ag2 1_555 1_555
C7 C6 1_555 1_555
H4 C7 1_555 1_555
H5 C7 1_555 1_555
O8 C57 1_555 1_555
C8 C7 1_555 1_555
O9 C63 1_555 1_555
C9 C8 1_555 1_555
H6 C9 1_555 1_555
O10 C64 1_555 1_555
C10 C9 1_555 1_555
O11 Ag1 1_555 1_555
C11 C10 1_555 1_555
O12 C71 1_555 1_555
C12 C11 1_555 1_555
H7 C12 1_555 1_555
C13 C8 1_555 1_555
C14 C13 1_555 1_555
H8 C14 1_555 1_555
H9 C14 1_555 1_555
C15 C14 1_555 1_555
C16 C15 1_555 1_555
H10 C16 1_555 1_555
C17 C16 1_555 1_555
C18 O6 1_555 1_555
C19 C18 1_555 1_555
H11 C19 1_555 1_555
C20 C15 1_555 1_555
C21 C1 1_555 1_555
H12 C21 1_555 1_555
H13 C21 1_555 1_555
C22 O2 1_555 1_555
H14 C22 1_555 1_555
H15 C22 1_555 1_555
C23 C22 1_555 1_555
C24 C23 1_555 1_555
H16 C24 1_555 1_555
C25 C24 1_555 1_555
H17 C25 1_555 1_555
C26 C25 1_555 1_555
C27 N1 1_555 1_555
C28 O4 1_555 1_555
H18 C28 1_555 1_555
H19 C28 1_555 1_555
C29 N2 1_555 1_555
C30 C29 1_555 1_555
H20 C30 1_555 1_555
C31 C30 1_555 1_555
H21 C31 1_555 1_555
C32 C31 1_555 1_555
C33 N2 1_555 1_555
C34 C33 1_555 1_555
H22 C34 1_555 1_555
C35 C34 1_555 1_555
H23 C35 1_555 1_555
C36 C35 1_555 1_555
H24 C36 1_555 1_555
C37 C32 1_555 1_555
H25 C37 1_555 1_555
C38 O3 1_555 1_555
H26 C38 1_555 1_555
H27 C38 1_555 1_555
C39 C38 1_555 1_555
H28 C39 1_555 1_555
H29 C39 1_555 1_555
C40 C39 1_555 1_555
H30 C40 1_555 1_555
H31 C40 1_555 1_555
H32 C40 1_555 1_555
C41 O6 1_555 1_555
H33 C41 1_555 1_555
H34 C41 1_555 1_555
C42 C41 1_555 1_555
C43 C42 1_555 1_555
H35 C43 1_555 1_555
C44 C43 1_555 1_555
H36 C44 1_555 1_555
C45 C44 1_555 1_555
C46 N3 1_555 1_555
C47 C46 1_555 1_555
H37 C47 1_555 1_555
C48 C47 1_555 1_555
H38 C48 1_555 1_555
C49 C48 1_555 1_555
H39 C49 1_555 1_555
C50 C45 1_555 1_555
H40 C50 1_555 1_555
C51 O5 1_555 1_555
H41 C51 1_555 1_555
H42 C51 1_555 1_555
C52 C51 1_555 1_555
H43 C52 1_555 1_555
H44 C52 1_555 1_555
C53 C52 1_555 1_555
H45 C53 1_555 1_555
H46 C53 1_555 1_555
H47 C53 1_555 1_555
C54 C55 1_555 1_555
C55 H48 1_555 1_555
C56 O7 1_555 1_555
C57 C56 1_555 1_555
C58 C57 1_555 1_555
H49 C58 1_555 1_555
C59 C54 1_555 1_555
C60 C59 1_555 1_555
H50 C60 1_555 1_555
H51 C60 1_555 1_555
C61 C60 1_555 1_555
C62 C61 1_555 1_555
H52 C62 1_555 1_555
C63 C62 1_555 1_555
C64 C63 1_555 1_555
C65 C64 1_555 1_555
H53 C65 1_555 1_555
C66 C61 1_555 1_555
C67 C66 1_555 1_555
H54 C67 1_555 1_555
H55 C67 1_555 1_555
C68 C67 1_555 1_555
C69 C68 1_555 1_555
H56 C69 1_555 1_555
C70 O11 1_555 1_555
C71 C70 1_555 1_555
C72 C71 1_555 1_555
H57 C72 1_555 1_555
C73 C68 1_555 1_555
C74 C54 1_555 1_555
H58 C74 1_555 1_555
H59 C74 1_555 1_555
C75 O7 1_555 1_555
H60 C75 1_555 1_555
H61 C75 1_555 1_555
C76 N4 1_555 1_555
C77 C76 1_555 1_555
H62 C77 1_555 1_555
C78 C77 1_555 1_555
H63 C78 1_555 1_555
C79 C78 1_555 1_555
C80 N4 1_555 1_555
C81 C80 1_555 1_555
H64 C81 1_555 1_555
C82 C81 1_555 1_555
H65 C82 1_555 1_555
C83 C82 1_555 1_555
H66 C83 1_555 1_555
C84 C79 1_555 1_555
H67 C84 1_555 1_555
C85 O8 1_555 1_555
H68 C85 1_555 1_555
H69 C85 1_555 1_555
C86 C85 1_555 1_555
H70 C86 1_555 1_555
H71 C86 1_555 1_555
C87 C86 1_555 1_555
H72 C87 1_555 1_555
H73 C87 1_555 1_555
H74 C87 1_555 1_555
C88 O9 1_555 1_555
H75 C88 1_555 1_555
H76 C88 1_555 1_555
C89 C88 1_555 1_555
C90 C89 1_555 1_555
H77 C90 1_555 1_555
C91 C90 1_555 1_555
C92 C91 1_555 1_555
C93 N5 1_555 1_555
H78 C93 1_555 1_555
C94 C92 1_555 1_555
H79 C94 1_555 1_555
C95 C94 1_555 1_555
H80 C95 1_555 1_555
C96 C95 1_555 1_555
H81 C96 1_555 1_555
C97 C91 1_555 1_555
H82 C97 1_555 1_555
C98 O10 1_555 1_555
H83 C98 1_555 1_555
H84 C98 1_555 1_555
C99 C98 1_555 1_555
H85 C99 1_555 1_555
H86 C99 1_555 1_555
C100 C99 1_555 1_555
H87 C100 1_555 1_555
H88 C100 1_555 1_555
H89 C100 1_555 1_555
C101 O11 1_555 1_555
H90 C101 1_555 1_555
H91 C101 1_555 1_555
C102 C101 1_555 1_555
C103 C102 1_555 1_555
H92 C103 1_555 1_555
C104 C103 1_555 1_555
H93 C104 1_555 1_555
C105 C104 1_555 1_555
C106 N6 1_555 1_555
C107 C106 1_555 1_555
H94 C107 1_555 1_555
C108 C107 1_555 1_555
H95 C108 1_555 1_555
C109 C108 1_555 1_555
H96 C109 1_555 1_555
C110 C105 1_555 1_555
H97 C110 1_555 1_555
C111 O12 1_555 1_555
H98 C111 1_555 1_555
H99 C111 1_555 1_555
C112 C111 1_555 1_555
H100 C112 1_555 1_555
H101 C112 1_555 1_555
C113 C112 1_555 1_555
H102 C113 1_555 1_555
H103 C113 1_555 1_555
H104 C113 1_555 1_555
C114 O1 1_555 1_555
H105 C114 1_555 1_555
H106 C114 1_555 1_555
C115 C114 1_555 1_555
H107 C115 1_555 1_555
H108 C115 1_555 1_555
C116 C115 1_555 1_555
H109 C116 1_555 1_555
H110 C116 1_555 1_555
H111 C116 1_555 1_555
C117 H112 1_555 1_555
C118 C26 1_555 1_555
H113 C118 1_555 1_555
C119 C27 1_555 1_555
H114 C119 1_555 1_555
C120 C117 1_555 1_555
H115 C120 1_555 1_555
B1 H116 1_555 1_555
B2 B1 1_555 1_555
H117 B2 1_555 1_555
Co1 B7 1_555 1_555
B3 B1 1_555 1_555
H118 B3 1_555 1_555
B4 B1 1_555 1_555
H119 B4 1_555 1_555
B5 B1 1_555 1_555
H120 B5 1_555 1_555
B6 B1 1_555 1_555
H121 B6 1_555 1_555
B7 B2 1_555 1_555
H122 B7 1_555 1_555
B8 Co1 1_555 1_555
H123 B8 1_555 1_555
B9 Co1 1_555 1_555
H124 B9 1_555 1_555
B10 H125 1_555 1_555
B11 B10 1_555 1_555
H126 B11 1_555 1_555
B12 B10 1_555 1_555
H127 B12 1_555 1_555
B13 B10 1_555 1_555
H128 B13 1_555 1_555
B14 B10 1_555 1_555
H129 B14 1_555 1_555
B15 B10 1_555 1_555
H130 B15 1_555 1_555
B16 Co1 1_555 1_555
H131 B16 1_555 1_555
B17 Co1 1_555 1_555
H132 B17 1_555 1_555
B18 Co1 1_555 1_555
H133 B18 1_555 1_555
C121 B2 1_555 1_555
H134 C121 1_555 1_555
C122 Co1 1_555 1_555
H135 C122 1_555 1_555
C123 Co1 1_555 1_555
H136 C123 1_555 1_555
C124 Co1 1_555 1_555
H137 C124 1_555 1_555
Co2 B25 1_555 1_555
B19 H138 1_555 1_555
B20 B19 1_555 1_555
H139 B20 1_555 1_555
B21 B19 1_555 1_555
H140 B21 1_555 1_555
B22 B19 1_555 1_555
H141 B22 1_555 1_555
B23 B19 1_555 1_555
H142 B23 1_555 1_555
B24 B19 1_555 1_555
H143 B24 1_555 1_555
B25 B20 1_555 1_555
H144 B25 1_555 1_555
B26 Co2 1_555 1_555
H145 B26 1_555 1_555
B27 Co2 1_555 1_555
H146 B27 1_555 1_555
B28 H147 1_555 1_555
B29 B28 1_555 1_555
H148 B29 1_555 1_555
B30 B28 1_555 1_555
H149 B30 1_555 1_555
B31 B28 1_555 1_555
H150 B31 1_555 1_555
B32 B28 1_555 1_555
H151 B32 1_555 1_555
B33 B28 1_555 1_555
H152 B33 1_555 1_555
B34 Co2 1_555 1_555
H153 B34 1_555 1_555
B35 Co2 1_555 1_555
H154 B35 1_555 1_555
B36 Co2 1_555 1_555
H155 B36 1_555 1_555
C125 Co2 1_555 1_555
H156 C125 1_555 1_555
C126 Co2 1_555 1_555
H157 C126 1_555 1_555
C127 Co2 1_555 1_555
H158 C127 1_555 1_555
C128 Co2 1_555 1_555
H159 C128 1_555 1_555
N7 O13 1_555 1_555
O14 N7 1_555 1_555
C129 N7 1_555 1_555
H160 C129 1_555 1_555
H161 C129 1_555 1_555
H162 C129 1_555 1_555
N8 O15 1_555 1_555
C130 N8 1_555 1_555
H163 C130 1_555 1_555
H164 C130 1_555 1_555
H165 C130 1_555 1_555
O16 N8 1_555 1_555
Ag1_2 O4 1_555 1_555
O4_2 Ag1 1_555 1_555
C5 C6 1_555 1_555
C12 C13 1_555 1_555
C17 C18 1_555 1_555
C19 C20 1_555 1_555
C20 C21 1_555 1_555
C26 C27 1_555 1_555
C28 C29 1_555 1_555
C32 C33 1_555 1_555
C36 C37 1_555 1_555
C45 C46 1_555 1_555
C49 C50 1_555 1_555
C55 C56 1_555 1_555
C58 C59 1_555 1_555
C65 C66 1_555 1_555
C69 C70 1_555 1_555
C72 C73 1_555 1_555
C73 C74 1_555 1_555
C75 C76 1_555 1_555
C79 C80 1_555 1_555
C83 C84 1_555 1_555
C92 C93 1_555 1_555
C96 C97 1_555 1_555
C105 C106 1_555 1_555
C109 C110 1_555 1_555
C117 C119 1_555 1_555
C118 C120 1_555 1_555
B2 B3 1_555 1_555
B2 B6 1_555 1_555
Co1 C121 1_555 1_555
B3 B4 1_555 1_555
B3 C121 1_555 1_555
B3 C122 1_555 1_555
B4 B5 1_555 1_555
B4 B9 1_555 1_555
B4 C122 1_555 1_555
B5 B6 1_555 1_555
B5 B8 1_555 1_555
B5 B9 1_555 1_555
B6 B7 1_555 1_555
B6 B8 1_555 1_555
B7 B8 1_555 1_555
B7 C121 1_555 1_555
B8 B9 1_555 1_555
B9 C122 1_555 1_555
B11 B12 1_555 1_555
B11 B13 1_555 1_555
B11 B18 1_555 1_555
B11 C124 1_555 1_555
B12 B15 1_555 1_555
B12 C123 1_555 1_555
B12 C124 1_555 1_555
B13 B14 1_555 1_555
B13 B17 1_555 1_555
B13 B18 1_555 1_555
B14 B15 1_555 1_555
B14 B16 1_555 1_555
B14 B17 1_555 1_555
B15 B16 1_555 1_555
B15 C123 1_555 1_555
B16 B17 1_555 1_555
B16 C123 1_555 1_555
B17 B18 1_555 1_555
B18 C124 1_555 1_555
C121 C122 1_555 1_555
C123 C124 1_555 1_555
B20 B21 1_555 1_555
B20 B24 1_555 1_555
B20 B26 1_555 1_555
B21 B22 1_555 1_555
B21 B26 1_555 1_555
B21 B27 1_555 1_555
B22 B23 1_555 1_555
B22 B27 1_555 1_555
B22 C127 1_555 1_555
B23 B24 1_555 1_555
B23 C127 1_555 1_555
B23 C128 1_555 1_555
B24 B25 1_555 1_555
B24 C128 1_555 1_555
B25 B26 1_555 1_555
B25 C128 1_555 1_555
B26 B27 1_555 1_555
B27 C127 1_555 1_555
B29 B30 1_555 1_555
B29 B33 1_555 1_555
B29 B34 1_555 1_555
B29 C125 1_555 1_555
B30 B31 1_555 1_555
B30 C125 1_555 1_555
B30 C126 1_555 1_555
B31 B32 1_555 1_555
B31 B36 1_555 1_555
B31 C126 1_555 1_555
B32 B33 1_555 1_555
B32 B35 1_555 1_555
B32 B36 1_555 1_555
B33 B34 1_555 1_555
B33 B35 1_555 1_555
B34 B35 1_555 1_555
B34 C125 1_555 1_555
B35 B36 1_555 1_555
B36 C126 1_555 1_555
C125 C126 1_555 1_555
C127 C128 1_555 1_555

#END
