
#######################################################################
#
#                 Cambridge Crystallographic Data Centre
#                                CCDC 
#
#######################################################################
#
# If this CIF has been generated from an entry in the Cambridge 
# Structural Database, then it will include bibliographic, chemical, 
# crystal, experimental, refinement or atomic coordinate data resulting 
# from the CCDC's data processing and validation procedures.
#
#######################################################################

data_ZOBZUN
_symmetry_cell_setting           orthorhombic
_symmetry_space_group_name_H-M   'P 21 21 21'
_symmetry_Int_Tables_number      19
_space_group_name_Hall           'P 2ac 2ab'
loop_
_symmetry_equiv_pos_site_id
_symmetry_equiv_pos_as_xyz
1 x,y,z
2 1/2+x,1/2-y,-z
3 -x,1/2+y,1/2-z
4 1/2-x,-y,1/2+z
_cell_length_a                   7.4080(10)
_cell_length_b                   14.011(2)
_cell_length_c                   21.402(4)
_cell_angle_alpha                90
_cell_angle_beta                 90
_cell_angle_gamma                90
_cell_volume                     2221.39
loop_
_atom_site_label
_atom_site_type_symbol
_atom_site_fract_x
_atom_site_fract_y
_atom_site_fract_z
Cu1 Cu 0.55814(10) 0.66920(6) 0.19783(4)
Cu2 Cu 0.90013(10) 0.55605(6) 0.18410(4)
O1 O 0.7100(6) 0.8118(4) 0.1715(3)
H1 H 0.8216 0.8001 0.164
H2 H 0.7028 0.8512 0.2021
O2 O 0.7449(6) 0.6103(3) 0.2511(2)
O3 O 1.1067(6) 0.5049(3) 0.2296(2)
O4 O 1.3591(6) 0.4216(4) 0.2190(2)
O5 O 0.6922(6) 0.6004(4) 0.1357(2)
O6 O 0.2697(6) 0.9137(3) 0.2980(3)
H3 H 0.385(3) 0.907(3) 0.305(2)
O7 O 0.0390(6) 0.7135(3) 0.1691(2)
O8 O 0.3231(6) 0.6668(4) 0.1569(2)
N1 N 1.0306(7) 0.5096(4) 0.1092(3)
H4 H 1.0927 0.5644 0.0905
O9 O 1.2929(9) 0.4160(5) 0.0251(3)
H5 H 1.3022 0.4627 0.0023
C1 C 1.2190(8) 0.4565(5) 0.1967(4)
C2 C 1.1713(8) 0.4394(5) 0.1284(3)
H6 H 1.1186 0.3755 0.1251
C3 C 0.9003(10) 0.4719(5) 0.0617(3)
H7 H 0.9659 0.4393 0.0288
H8 H 0.8198 0.4263 0.0813
C4 C 0.7928(9) 0.5514(6) 0.0342(4)
C5 C 0.6934(9) 0.6144(5) 0.0727(4)
C6 C 0.5982(9) 0.6888(5) 0.0456(3)
H9 H 0.5326 0.7302 0.0709
C7 C 0.5994(11) 0.7021(6) -0.0182(4)
H10 H 0.5362 0.7529 -0.0356
C8 C 0.6950(12) 0.6398(6) -0.0571(4)
H11 H 0.6942 0.6478 -0.1002
C9 C 0.7899(9) 0.5666(6) -0.0300(4)
H12 H 0.855 0.5255 -0.0557
C10 C 1.3389(10) 0.4420(7) 0.0872(4)
H13 H 1.3901 0.5058 0.0875
H14 H 1.4288 0.3982 0.1034
C11 C 0.2423(9) 0.8690(5) 0.2387(4)
H15 H 0.3352 0.8892 0.2096
H16 H 0.1259 0.8874 0.2218
C12 C 0.2498(9) 0.7602(5) 0.2474(4)
H17 H 0.1628 0.7423 0.2798
C13 C 0.7661(9) 0.6295(5) 0.3127(4)
C14 C 0.6208(9) 0.6580(5) 0.3496(4)
C15 C 0.6474(10) 0.6826(6) 0.4115(4)
H18 H 0.5497 0.7032 0.4352
C16 C 0.8181(10) 0.6773(6) 0.4392(4)
H19 H 0.8354 0.6949 0.4806
C17 C 0.9578(10) 0.6455(5) 0.4037(4)
H20 H 1.0718 0.6409 0.4217
C18 C 0.9363(9) 0.6200(5) 0.3420(3)
H21 H 1.034 0.5965 0.3195
C19 C 0.4322(8) 0.6631(5) 0.3224(3)
H22 H 0.3949 0.6004 0.3082
H23 H 0.3478 0.6844 0.3541
N2 N 0.4320(8) 0.7318(4) 0.2684(3)
H24 H 0.4993 0.7892 0.2804
C20 C 0.1975(8) 0.7101(5) 0.1870(4)
Cu2_2 Cu -0.09987(10) 0.55605(6) 0.18410(4)
Cu2B Cu 0.09987(10) 1.05605(6) 0.31590(4)
O6B O 0.7303(6) 0.4137(3) 0.2020(3)
O7_2 O 1.0390(6) 0.7135(3) 0.1691(2)
O10 O 0.7617(14) 0.9319(11) 0.0499(7)
H25 H 0.7296 0.906 0.0841
H26 H 0.8722 0.9195 0.043
loop_
_geom_bond_atom_site_label_1
_geom_bond_atom_site_label_2
_geom_bond_site_symmetry_1
_geom_bond_site_symmetry_2
Cu1 O1 1_555 1_555
Cu2 O2 1_555 1_555
O1 H1 1_555 1_555
H2 O1 1_555 1_555
O2 Cu1 1_555 1_555
O3 Cu2 1_555 1_555
O4 C1 1_555 1_555
O5 Cu1 1_555 1_555
O6 H3 1_555 1_555
O7 C20 1_555 1_555
O8 Cu1 1_555 1_555
N1 Cu2 1_555 1_555
H4 N1 1_555 1_555
O9 H5 1_555 1_555
C1 O3 1_555 1_555
C2 N1 1_555 1_555
H6 C2 1_555 1_555
C3 N1 1_555 1_555
H7 C3 1_555 1_555
H8 C3 1_555 1_555
C4 C3 1_555 1_555
C5 O5 1_555 1_555
C6 C5 1_555 1_555
H9 C6 1_555 1_555
C7 C6 1_555 1_555
H10 C7 1_555 1_555
C8 C7 1_555 1_555
H11 C8 1_555 1_555
C9 C4 1_555 1_555
H12 C9 1_555 1_555
C10 O9 1_555 1_555
H13 C10 1_555 1_555
H14 C10 1_555 1_555
C11 O6 1_555 1_555
H15 C11 1_555 1_555
H16 C11 1_555 1_555
C12 C11 1_555 1_555
H17 C12 1_555 1_555
C13 O2 1_555 1_555
C14 C13 1_555 1_555
C15 C14 1_555 1_555
H18 C15 1_555 1_555
C16 C15 1_555 1_555
H19 C16 1_555 1_555
C17 C16 1_555 1_555
H20 C17 1_555 1_555
C18 C13 1_555 1_555
H21 C18 1_555 1_555
C19 C14 1_555 1_555
H22 C19 1_555 1_555
H23 C19 1_555 1_555
N2 Cu1 1_555 1_555
H24 N2 1_555 1_555
C20 O8 1_555 1_555
O10 H25 1_555 1_555
H26 O10 1_555 1_555
Cu2_2 O7 1_555 1_555
Cu2B O6 1_555 1_555
O6B Cu2 1_555 1_555
O7_2 Cu2 1_555 1_555
Cu2 O5 1_555 1_555
C1 C2 1_555 1_555
C2 C10 1_555 1_555
C4 C5 1_555 1_555
C8 C9 1_555 1_555
C12 N2 1_555 1_555
C12 C20 1_555 1_555
C17 C18 1_555 1_555
C19 N2 1_555 1_555

#END
