
#######################################################################
#
#                 Cambridge Crystallographic Data Centre
#                                CCDC 
#
#######################################################################
#
# If this CIF has been generated from an entry in the Cambridge 
# Structural Database, then it will include bibliographic, chemical, 
# crystal, experimental, refinement or atomic coordinate data resulting 
# from the CCDC's data processing and validation procedures.
#
#######################################################################

data_ZOCDIG
_symmetry_cell_setting           monoclinic
_symmetry_space_group_name_H-M   'P 21/n'
_symmetry_Int_Tables_number      14
_space_group_name_Hall           '-P 2yn'
loop_
_symmetry_equiv_pos_site_id
_symmetry_equiv_pos_as_xyz
1 x,y,z
2 1/2-x,1/2+y,1/2-z
3 -x,-y,-z
4 1/2+x,1/2-y,1/2+z
_cell_length_a                   17.906(5)
_cell_length_b                   21.419(5)
_cell_length_c                   19.917(5)
_cell_angle_alpha                90
_cell_angle_beta                 107.658(5)
_cell_angle_gamma                90
_cell_volume                     7278.83
loop_
_atom_site_label
_atom_site_type_symbol
_atom_site_fract_x
_atom_site_fract_y
_atom_site_fract_z
C1 C 0.0603(3) 0.3124(3) 0.0880(3)
C2 C -0.0624(3) 0.2635(3) 0.0814(3)
C3 C 0.5610(3) 0.4393(3) 0.0798(3)
C4 C 0.4822(3) 0.5411(3) 0.1135(3)
H1 H 0.4563 0.575 0.1254
C5 C 0.4411(3) 0.4876(2) 0.0852(3)
C6 C 0.4806(3) 0.4361(3) 0.0699(3)
H2 H 0.4533 0.3995 0.053
C7 C 0.5624(3) 0.5436(3) 0.1241(3)
C8 C -0.0205(3) 0.3154(3) 0.0723(3)
H3 H -0.0467 0.3525 0.0556
C9 C -0.0225(3) 0.2082(2) 0.1081(3)
H4 H -0.0501 0.1733 0.1151
C10 C 0.6006(3) 0.3831(3) 0.0613(3)
C11 C 0.3545(3) 0.4834(3) 0.0710(3)
C12 C 0.6014(3) 0.4935(3) 0.1061(3)
H5 H 0.6548 0.4963 0.1117
C13 C 0.0596(3) 0.2058(2) 0.1242(3)
C14 C 0.1034(3) 0.3693(3) 0.0757(3)
C15 C 0.1001(3) 0.2575(2) 0.1125(3)
H6 H 0.1541 0.2554 0.121
C16 C -0.1499(3) 0.2661(3) 0.0612(3)
La1 La 0.181117(16) 0.478850(15) 0.031437(17)
La2 La -0.323935(16) 0.274140(15) 0.013434(16)
O1 O 0.0683(2) 0.4203(2) 0.0596(2)
O2 O 0.1759(2) 0.3659(2) 0.0804(2)
O3 O 0.1537(2) 0.5925(2) 0.0481(2)
O4 O 0.2108(3) 0.4900(2) 0.1645(2)
O5 O 0.3177(2) 0.52954(18) 0.0848(2)
O6 O 0.3178(2) 0.43437(19) 0.0440(2)
O7 O 0.2153(2) 0.5341(2) -0.0674(2)
O8 O 0.0543(2) 0.5081(2) -0.0640(2)
O9 O 0.1546(3) 0.40413(19) -0.0693(2)
O10 O 0.6067(2) 0.59566(19) 0.1521(2)
H7 H 0.5778 0.6234 0.1581
O11 O 0.5662(2) 0.33163(19) 0.0508(2)
O12 O 0.6694(2) 0.3876(2) 0.0561(3)
O13 O -0.3352(3) 0.3451(2) -0.0918(2)
O14 O -0.4528(2) 0.2494(2) -0.0771(2)
O15 O -0.2938(2) 0.2106(2) -0.0820(2)
O16 O -0.3581(2) 0.16370(19) 0.0355(2)
O17 O -0.2991(2) 0.2598(2) 0.1470(2)
O18 O -0.1846(2) 0.31576(19) 0.0348(2)
O19 O -0.1890(2) 0.21937(19) 0.0692(2)
O20 O 0.1008(2) 0.15302(19) 0.1500(3)
H8 H 0.073 0.1289 0.1637
La2_2 La 0.676065(16) 0.274140(15) 0.013434(16)
O11_2 O -0.4338(2) 0.33163(19) 0.0508(2)
O12_2 O -0.3306(2) 0.3876(2) 0.0561(3)
C17 C -0.0681(3) 0.1807(3) -0.0865(3)
C18 C 0.0511(3) 0.2323(3) -0.0824(3)
C19 C 0.5024(3) -0.0377(3) -0.1049(3)
H9 H 0.5278 -0.0746 -0.1095
C20 C -0.1098(3) 0.2348(3) -0.1126(3)
H10 H -0.1638 0.2359 -0.1212
C21 C 0.0100(3) 0.2864(3) -0.1101(3)
H11 H 0.0365 0.3217 -0.1179
C22 C 0.6337(3) 0.0156(3) -0.0604(3)
C23 C -0.1091(3) 0.1240(3) -0.0709(3)
C24 C 0.5073(3) 0.0710(3) -0.0743(3)
H12 H 0.5358 0.1075 -0.0598
C25 C 0.3833(3) 0.0177(3) -0.1136(3)
H13 H 0.329 0.018 -0.1239
C26 C 0.1393(3) 0.2328(3) -0.0611(3)
C27 C -0.0707(3) 0.2870(3) -0.1260(3)
C28 C 0.5460(3) 0.0162(3) -0.0807(3)
C29 C 0.3861(3) 0.1295(3) -0.0772(3)
C30 C 0.0130(3) 0.1791(3) -0.0720(3)
H14 H 0.041 0.1427 -0.0556
C31 C 0.4213(3) -0.0364(3) -0.1221(3)
C32 C 0.4259(3) 0.0717(2) -0.0897(3)
La3 La 0.313062(17) 0.234054(15) -0.025907(17)
La4 La 0.809216(17) 0.019919(15) -0.024431(16)
O21 O 0.6712(2) 0.06580(19) -0.0407(2)
O22 O 0.6704(2) -0.03383(18) -0.0626(2)
O23 O 0.7935(2) -0.0425(2) 0.0780(2)
O24 O 0.8411(3) -0.0902(2) -0.0515(2)
O25 O 0.7616(3) 0.0154(3) -0.1572(2)
O26 O 0.9425(2) -0.0041(2) 0.0640(2)
O27 O 0.8260(3) 0.09285(19) 0.0798(2)
O28 O -0.1759(2) 0.1308(2) -0.0622(2)
O29 O -0.0780(2) 0.0710(2) -0.0650(2)
O30 O 0.1754(2) 0.2824(2) -0.0652(3)
O31 O 0.2903(3) 0.2879(2) 0.0780(2)
O32 O 0.3449(3) 0.1565(2) 0.0739(2)
O33 O 0.3149(2) 0.12658(19) -0.0788(2)
O34 O 0.4227(2) 0.1803(2) -0.0635(2)
O35 O 0.4451(2) 0.2632(2) 0.0650(2)
O36 O 0.2612(3) 0.2417(2) -0.1609(2)
O37 O 0.3371(3) 0.3469(2) -0.0522(2)
O38 O -0.1136(2) 0.3391(2) -0.1546(3)
H15 H -0.0849 0.3648 -0.1649
O39 O 0.3803(2) -0.09090(19) -0.1460(2)
H16 H 0.3334 -0.083 -0.1621
O40 O 0.1777(2) 0.1839(2) -0.0380(3)
La4_2 La -0.190784(17) 0.019919(15) -0.024431(16)
O28_2 O 0.8241(2) 0.1308(2) -0.0622(2)
O29_2 O 0.9220(2) 0.0710(2) -0.0650(2)
C33 C 0.4463(4) 0.3537(3) 0.2358(3)
C34 C 0.4140(3) 0.4095(3) 0.2490(3)
H17 H 0.3615 0.4116 0.2469
C35 C 0.5705(3) 0.4035(3) 0.2525(3)
C36 C 0.6551(3) 0.3983(3) 0.2519(3)
C37 C 0.5397(3) 0.4593(3) 0.2671(3)
H18 H 0.5711 0.4948 0.278
C38 C 0.4612(3) 0.4621(3) 0.2653(3)
C39 C 0.5238(4) 0.3507(3) 0.2375(3)
H19 H 0.5448 0.313 0.2285
C40 C 0.4257(3) 0.5221(3) 0.2822(3)
O41 O 0.6967(2) 0.4460(2) 0.2615(3)
O42 O 0.6792(3) 0.3448(2) 0.2421(3)
O43 O 0.4013(3) 0.3005(2) 0.2201(3)
H20 H 0.3622 0.3048 0.2328
O44 O 0.4729(2) 0.5624(2) 0.3177(2)
O45 O 0.3529(2) 0.5282(2) 0.2632(2)
C41 C -0.5965(3) 0.2733(3) -0.2315(3)
C42 C -0.6156(3) 0.0989(3) -0.2652(3)
C43 C -0.4807(3) 0.1264(3) -0.2444(3)
C44 C -0.4986(3) 0.1890(3) -0.2362(3)
H21 H -0.4592 0.2189 -0.2264
C45 C -0.5752(3) 0.2064(3) -0.2427(3)
C46 C -0.6344(3) 0.1610(3) -0.2583(3)
H22 H -0.6861 0.1724 -0.264
C47 C -0.5395(4) 0.0821(3) -0.2596(3)
H23 H -0.5278 0.0406 -0.2661
C48 C -0.3964(4) 0.1070(4) -0.2363(3)
O46 O -0.5423(2) 0.3085(2) -0.1962(2)
O47 O -0.6671(2) 0.2902(2) -0.2554(2)
O48 O -0.3442(3) 0.1473(3) -0.2089(3)
O49 O -0.3830(3) 0.0540(3) -0.2545(3)
O50 O -0.6714(2) 0.0527(2) -0.2793(3)
H24 H -0.7119 0.0664 -0.2737
O51 O 0.2216(3) 0.9262(3) 0.7984(2)
O52 O 0.7171(5) 0.3225(5) 0.7859(4)
O53 O 0.4698(4) 0.1902(3) 0.1970(4)
O54 O 0.0367(3) 0.5571(3) 0.1884(3)
O55 O 0.7615(3) 0.1899(5) 0.7370(4)
O56 O 0.3689(5) 0.8128(4) 0.7419(5)
O57 O 0.1149(5) 0.4326(4) -0.2054(4)
O58 O 0.7988(19) 0.364(2) 0.7002(13)
loop_
_geom_bond_atom_site_label_1
_geom_bond_atom_site_label_2
_geom_bond_site_symmetry_1
_geom_bond_site_symmetry_2
C1 C8 1_555 1_555
C2 C8 1_555 1_555
C3 C6 1_555 1_555
C4 H1 1_555 1_555
C5 C4 1_555 1_555
C6 C5 1_555 1_555
H2 C6 1_555 1_555
C7 C4 1_555 1_555
C8 H3 1_555 1_555
C9 C2 1_555 1_555
H4 C9 1_555 1_555
C10 C3 1_555 1_555
C11 C5 1_555 1_555
C12 C3 1_555 1_555
H5 C12 1_555 1_555
C13 C9 1_555 1_555
C14 C1 1_555 1_555
C15 C1 1_555 1_555
H6 C15 1_555 1_555
C16 C2 1_555 1_555
La1 O1 1_555 1_555
La2 O13 1_555 1_555
O1 C14 1_555 1_555
O2 C14 1_555 1_555
O3 La1 1_555 1_555
O4 La1 1_555 1_555
O5 C11 1_555 1_555
O6 C11 1_555 1_555
O7 La1 1_555 1_555
O8 La1 1_555 1_555
O9 La1 1_555 1_555
O10 C7 1_555 1_555
H7 O10 1_555 1_555
O11 C10 1_555 1_555
O12 C10 1_555 1_555
O14 La2 1_555 1_555
O15 La2 1_555 1_555
O16 La2 1_555 1_555
O17 La2 1_555 1_555
O18 C16 1_555 1_555
O19 C16 1_555 1_555
O20 C13 1_555 1_555
H8 O20 1_555 1_555
C17 C20 1_555 1_555
C18 C21 1_555 1_555
C19 H9 1_555 1_555
C20 H10 1_555 1_555
C21 H11 1_555 1_555
C22 C28 1_555 1_555
C23 C17 1_555 1_555
C24 H12 1_555 1_555
C25 H13 1_555 1_555
C26 C18 1_555 1_555
C27 C20 1_555 1_555
C28 C19 1_555 1_555
C29 C32 1_555 1_555
C30 C17 1_555 1_555
H14 C30 1_555 1_555
C31 C19 1_555 1_555
C32 C24 1_555 1_555
La3 O30 1_555 1_555
La4 O21 1_555 1_555
O21 C22 1_555 1_555
O22 C22 1_555 1_555
O23 La4 1_555 1_555
O24 La4 1_555 1_555
O25 La4 1_555 1_555
O26 La4 1_555 1_555
O27 La4 1_555 1_555
O28 C23 1_555 1_555
O29 C23 1_555 1_555
O30 C26 1_555 1_555
O31 La3 1_555 1_555
O32 La3 1_555 1_555
O33 C29 1_555 1_555
O34 C29 1_555 1_555
O35 La3 1_555 1_555
O36 La3 1_555 1_555
O37 La3 1_555 1_555
O38 C27 1_555 1_555
H15 O38 1_555 1_555
O39 C31 1_555 1_555
H16 O39 1_555 1_555
O40 C26 1_555 1_555
C33 C34 1_555 1_555
C34 H17 1_555 1_555
C35 C36 1_555 1_555
C36 O41 1_555 1_555
C37 C35 1_555 1_555
H18 C37 1_555 1_555
C38 C34 1_555 1_555
C39 C33 1_555 1_555
H19 C39 1_555 1_555
C40 C38 1_555 1_555
O42 C36 1_555 1_555
O43 C33 1_555 1_555
H20 O43 1_555 1_555
O44 C40 1_555 1_555
O45 C40 1_555 1_555
C41 C45 1_555 1_555
C42 C46 1_555 1_555
C43 C44 1_555 1_555
C44 H21 1_555 1_555
C45 C44 1_555 1_555
C46 C45 1_555 1_555
H22 C46 1_555 1_555
C47 C42 1_555 1_555
H23 C47 1_555 1_555
C48 C43 1_555 1_555
O46 C41 1_555 1_555
O47 C41 1_555 1_555
O48 C48 1_555 1_555
O49 C48 1_555 1_555
O50 C42 1_555 1_555
H24 O50 1_555 1_555
La2_2 O11 1_555 1_555
O11_2 La2 1_555 1_555
O12_2 La2 1_555 1_555
La4_2 O28 1_555 1_555
O28_2 La4 1_555 1_555
O29_2 La4 1_555 1_555
C7 C12 1_555 1_555
C13 C15 1_555 1_555
La1 O2 1_555 1_555
La1 O5 1_555 1_555
La1 O6 1_555 1_555
La2 O18 1_555 1_555
La2 O19 1_555 1_555
O12 La2_2 1_555 1_555
C18 C30 1_555 1_555
C21 C27 1_555 1_555
C24 C28 1_555 1_555
C25 C31 1_555 1_555
C25 C32 1_555 1_555
La3 O33 1_555 1_555
La3 O34 1_555 1_555
La3 O40 1_555 1_555
La4 O22 1_555 1_555
O29 La4_2 1_555 1_555
C35 C39 1_555 1_555
C37 C38 1_555 1_555
C43 C47 1_555 1_555

#END
