
#######################################################################
#
#                 Cambridge Crystallographic Data Centre
#                                CCDC 
#
#######################################################################
#
# If this CIF has been generated from an entry in the Cambridge 
# Structural Database, then it will include bibliographic, chemical, 
# crystal, experimental, refinement or atomic coordinate data resulting 
# from the CCDC's data processing and validation procedures.
#
#######################################################################

data_ZOCJEI
_symmetry_cell_setting           monoclinic
_symmetry_space_group_name_H-M   'P 21/c'
_symmetry_Int_Tables_number      14
_space_group_name_Hall           '-P 2ybc'
loop_
_symmetry_equiv_pos_site_id
_symmetry_equiv_pos_as_xyz
1 x,y,z
2 -x,1/2+y,1/2-z
3 -x,-y,-z
4 x,1/2-y,1/2+z
_cell_length_a                   17.9123(16)
_cell_length_b                   23.198(2)
_cell_length_c                   7.4779(9)
_cell_angle_alpha                90
_cell_angle_beta                 90.138(7)
_cell_angle_gamma                90
_cell_volume                     3107.28
loop_
_atom_site_label
_atom_site_type_symbol
_atom_site_fract_x
_atom_site_fract_y
_atom_site_fract_z
N1 N 0.25812(17) 0.52974(13) 0.1150(4)
C1 C 0.2284(2) 0.62316(17) 0.2616(5)
H1 H 0.2791 0.6361 0.2402
H2 H 0.1954 0.6562 0.2542
C2 C 0.2063(2) 0.57870(17) 0.1252(6)
H3 H 0.1569 0.5644 0.1540
H4 H 0.2035 0.5970 0.0086
C3 C 0.1699(2) 0.45135(18) 0.1930(6)
H5 H 0.1279 0.4767 0.2153
H6 H 0.1508 0.4145 0.1521
C4 C 0.2200(2) 0.47717(17) 0.0533(5)
H7 H 0.2572 0.4489 0.0191
H8 H 0.1905 0.4863 -0.0519
C5 C 0.3846(3) 0.5009(2) 0.0023(7)
H9 H 0.3671 0.4644 -0.0450
H10 H 0.4253 0.5142 -0.0726
C6 C 0.3223(2) 0.54414(19) -0.0016(6)
H11 H 0.3419 0.5814 0.0343
H12 H 0.3045 0.5477 -0.1237
O1 O 0.22297(14) 0.59676(10) 0.4356(3)
O2 O 0.21272(13) 0.44373(10) 0.3542(4)
O3 O 0.41101(17) 0.49297(14) 0.1810(5)
H13 H 0.4264 0.5238 0.2203
C7 C 0.2253(2) 0.63596(15) 0.5764(5)
C8 C 0.1551(2) 0.69521(15) 0.7885(5)
C9 C 0.2920(2) 0.65427(16) 0.6490(5)
C10 C 0.1551(2) 0.65561(15) 0.6438(5)
C11 C 0.2892(2) 0.69355(17) 0.7957(6)
H14 H 0.3336 0.7063 0.8468
C12 C 0.0202(3) 0.6976(2) 0.7800(7)
H15 H -0.0249 0.7114 0.8238
C13 C 0.2235(2) 0.71264(17) 0.8624(6)
H16 H 0.2237 0.7378 0.9591
C14 C 0.0863(2) 0.63778(17) 0.5697(6)
H17 H 0.0857 0.6120 0.4745
C15 C 0.0203(2) 0.6584(2) 0.6377(7)
H18 H -0.0247 0.6462 0.5886
C16 C 0.0849(3) 0.71533(19) 0.8540(6)
H19 H 0.0839 0.7411 0.9492
C17 C 0.3678(2) 0.63540(19) 0.5831(6)
O4 O 0.37689(17) 0.58574(16) 0.5318(6)
O5 O 0.41910(19) 0.67119(16) 0.5899(7)
C18 C 0.1864(2) 0.40161(16) 0.4685(6)
C19 C 0.1326(2) 0.41744(19) 0.5992(5)
C20 C 0.2141(2) 0.34701(19) 0.4560(6)
C21 C 0.1030(2) 0.4734(2) 0.6123(6)
H20 H 0.1219 0.5025 0.5396
C22 C 0.1075(2) 0.3743(2) 0.7184(6)
C23 C 0.1889(3) 0.30473(19) 0.5829(7)
H21 H 0.2077 0.2674 0.5788
C24 C 0.0486(3) 0.3900(3) 0.8415(7)
H22 H 0.0302 0.3626 0.9207
C25 C 0.0199(3) 0.4442(3) 0.8431(8)
H23 H -0.0185 0.4530 0.9219
C26 C 0.1381(3) 0.3190(2) 0.7075(7)
H24 H 0.1229 0.2912 0.7891
C27 C 0.0463(3) 0.4859(3) 0.7312(7)
H25 H 0.0261 0.5228 0.7350
C28 C 0.2693(3) 0.33204(18) 0.3136(8)
O6 O 0.2456(2) 0.32843(17) 0.1571(6)
O7 O 0.3353(2) 0.3258(2) 0.3593(6)
Na1 Na 0.31608(8) 0.50940(6) 0.4148(2)
O8 O 0.35724(19) 0.43377(15) 0.5856(6)
Na2 Na 0.45926(11) 0.32492(9) 0.8970(4)
O9 O 0.50060(17) 0.41015(15) 0.7129(5)
O10 O 0.46013(19) 0.37778(15) 1.1934(6)
O11 O 0.5777(2) 0.2893(2) 0.8347(8)
O12 O 0.3328(2) 0.3462(2) 0.8764(7)
O13 O 0.4149(3) 0.2411(2) 1.1116(8)
Na2C Na 0.45926(11) 0.17508(9) 1.3970(4)
O13C O 0.4149(3) 0.2589(2) 0.6116(8)
loop_
_geom_bond_atom_site_label_1
_geom_bond_atom_site_label_2
_geom_bond_site_symmetry_1
_geom_bond_site_symmetry_2
N1 C2 1_555 1_555
C1 H1 1_555 1_555
H2 C1 1_555 1_555
C2 C1 1_555 1_555
H3 C2 1_555 1_555
H4 C2 1_555 1_555
C3 H5 1_555 1_555
H6 C3 1_555 1_555
C4 N1 1_555 1_555
H7 C4 1_555 1_555
H8 C4 1_555 1_555
C5 H9 1_555 1_555
H10 C5 1_555 1_555
C6 N1 1_555 1_555
H11 C6 1_555 1_555
H12 C6 1_555 1_555
O1 C1 1_555 1_555
O2 C3 1_555 1_555
O3 C5 1_555 1_555
H13 O3 1_555 1_555
C7 O1 1_555 1_555
C8 C10 1_555 1_555
C9 C7 1_555 1_555
C10 C7 1_555 1_555
C11 C9 1_555 1_555
H14 C11 1_555 1_555
C12 H15 1_555 1_555
C13 C8 1_555 1_555
H16 C13 1_555 1_555
C14 C10 1_555 1_555
H17 C14 1_555 1_555
C15 C12 1_555 1_555
H18 C15 1_555 1_555
C16 C8 1_555 1_555
H19 C16 1_555 1_555
C17 C9 1_555 1_555
O4 C17 1_555 1_555
O5 C17 1_555 1_555
C18 O2 1_555 1_555
C19 C18 1_555 1_555
C20 C18 1_555 1_555
C21 C19 1_555 1_555
H20 C21 1_555 1_555
C22 C19 1_555 1_555
C23 C20 1_555 1_555
H21 C23 1_555 1_555
C24 C22 1_555 1_555
H22 C24 1_555 1_555
C25 C24 1_555 1_555
H23 C25 1_555 1_555
C26 C22 1_555 1_555
H24 C26 1_555 1_555
C27 C21 1_555 1_555
H25 C27 1_555 1_555
C28 C20 1_555 1_555
O6 C28 1_555 1_555
O7 C28 1_555 1_555
Na1 N1 1_555 1_555
O8 Na1 1_555 1_555
Na2 O9 1_555 1_555
O10 Na2 1_555 1_555
O11 Na2 1_555 1_555
O12 Na2 1_555 1_555
O13 Na2 1_555 1_555
Na2C O13 1_555 1_555
O13C Na2 1_555 1_555
C3 C4 1_555 1_555
C5 C6 1_555 1_555
O1 Na1 1_555 1_555
O2 Na1 1_555 1_555
O3 Na1 1_555 1_555
C11 C13 1_555 1_555
C12 C16 1_555 1_555
C14 C15 1_555 1_555
O4 Na1 1_555 1_555
C23 C26 1_555 1_555
C25 C27 1_555 1_555

#END
