
#######################################################################
#
#                 Cambridge Crystallographic Data Centre
#                                CCDC 
#
#######################################################################
#
# If this CIF has been generated from an entry in the Cambridge 
# Structural Database, then it will include bibliographic, chemical, 
# crystal, experimental, refinement or atomic coordinate data resulting 
# from the CCDC's data processing and validation procedures.
#
#######################################################################

data_ZOCMAH
_symmetry_cell_setting           monoclinic
_symmetry_space_group_name_H-M   'P 21/c'
_symmetry_Int_Tables_number      14
_space_group_name_Hall           '-P 2ybc'
loop_
_symmetry_equiv_pos_site_id
_symmetry_equiv_pos_as_xyz
1 x,y,z
2 -x,1/2+y,1/2-z
3 -x,-y,-z
4 x,1/2-y,1/2+z
_cell_length_a                   10.4150(4)
_cell_length_b                   12.4420(4)
_cell_length_c                   15.7034(6)
_cell_angle_alpha                90
_cell_angle_beta                 106.266(4)
_cell_angle_gamma                90
_cell_volume                     1953.45
loop_
_atom_site_label
_atom_site_type_symbol
_atom_site_fract_x
_atom_site_fract_y
_atom_site_fract_z
Cu1 Cu 0.99013(3) 0.84608(3) 0.739037(19)
Cu2 Cu 0.88811(3) 0.83577(3) 0.542806(19)
O1 O 1.05342(18) 0.82305(17) 0.63685(11)
C1 C 1.1848(3) 0.8460(2) 0.64291(19)
O2 O 1.2464(2) 0.7671(2) 0.60394(15)
C2 C 1.2297(4) 0.6608(3) 0.6326(3)
C3 C 1.2586(3) 0.8631(2) 0.74107(19)
N1 N 1.1830(2) 0.87010(18) 0.79679(14)
C4 C 1.2400(3) 0.8892(3) 0.8831(2)
C5 C 1.3763(4) 0.9009(3) 0.9164(2)
C6 C 1.4557(3) 0.8920(3) 0.8603(2)
C7 C 1.3972(3) 0.8730(3) 0.7710(2)
O3 O 0.82633(17) 0.81857(16) 0.64696(11)
C8 C 0.6962(3) 0.8459(2) 0.64087(18)
O4 O 0.6334(2) 0.7731(2) 0.68480(14)
C9 C 0.6412(4) 0.6653(3) 0.6588(3)
C10 C 0.6196(3) 0.8580(2) 0.54325(18)
N2 N 0.6947(2) 0.86682(19) 0.48704(15)
C11 C 0.6349(3) 0.8815(3) 0.4004(2)
C12 C 0.4988(4) 0.8879(3) 0.3671(2)
C13 C 0.4207(3) 0.8756(3) 0.4241(3)
C14 C 0.4810(3) 0.8603(2) 0.5135(2)
S1 S 0.84121(8) 0.88216(6) 0.99240(5)
C15 C 0.8868(2) 0.8754(2) 0.90140(16)
N3 N 0.9197(3) 0.8707(2) 0.83770(15)
N4 N 0.9569(3) 0.8771(2) 0.44636(16)
C16 C 0.9929(3) 0.8884(2) 0.38428(17)
S2 S 1.04121(9) 0.90445(6) 0.29518(5)
H1 H 1.1919 0.9148 0.6102
H2 H 1.2805 0.6118 0.6082
H3 H 1.2608 0.6592 0.6966
H4 H 1.1372 0.6389 0.6139
H5 H 1.1837 0.8944 0.9221
H6 H 1.4152 0.9167 0.9774
H7 H 1.5490 0.8993 0.8824
H8 H 1.4500 0.8652 0.7315
H9 H 0.6925 0.9183 0.6699
H10 H 0.5830 0.6215 0.6829
H11 H 0.7331 0.6390 0.6823
H12 H 0.6171 0.6619 0.5952
H13 H 0.6889 0.8869 0.3599
H14 H 0.4588 0.9000 0.3058
H15 H 0.3258 0.8784 0.4017
H16 H 0.4288 0.8497 0.5542
Cu2C Cu 0.88811(3) 0.66423(3) 1.042806(19)
S1C S 0.84121(8) 0.61784(6) 0.49240(5)
loop_
_geom_bond_atom_site_label_1
_geom_bond_atom_site_label_2
_geom_bond_site_symmetry_1
_geom_bond_site_symmetry_2
Cu1 O1 1_555 1_555
Cu2 O1 1_555 1_555
O1 C1 1_555 1_555
C1 O2 1_555 1_555
O2 C2 1_555 1_555
C2 H2 1_555 1_555
C3 C1 1_555 1_555
N1 Cu1 1_555 1_555
C4 N1 1_555 1_555
C5 C4 1_555 1_555
C6 C5 1_555 1_555
C7 C3 1_555 1_555
O3 Cu1 1_555 1_555
C8 O3 1_555 1_555
O4 C8 1_555 1_555
C9 O4 1_555 1_555
C10 C8 1_555 1_555
N2 Cu2 1_555 1_555
C11 N2 1_555 1_555
C12 C11 1_555 1_555
C13 C12 1_555 1_555
C14 C10 1_555 1_555
S1 C15 1_555 1_555
C15 N3 1_555 1_555
N3 Cu1 1_555 1_555
N4 Cu2 1_555 1_555
C16 N4 1_555 1_555
S2 C16 1_555 1_555
H1 C1 1_555 1_555
H3 C2 1_555 1_555
H4 C2 1_555 1_555
H5 C4 1_555 1_555
H6 C5 1_555 1_555
H7 C6 1_555 1_555
H8 C7 1_555 1_555
H9 C8 1_555 1_555
H10 C9 1_555 1_555
H11 C9 1_555 1_555
H12 C9 1_555 1_555
H13 C11 1_555 1_555
H14 C12 1_555 1_555
H15 C13 1_555 1_555
H16 C14 1_555 1_555
Cu2C S1 1_555 1_555
S1C Cu2 1_555 1_555
Cu2 O3 1_555 1_555
C3 N1 1_555 1_555
C6 C7 1_555 1_555
C10 N2 1_555 1_555
C13 C14 1_555 1_555

#END
