
#######################################################################
#
#                 Cambridge Crystallographic Data Centre
#                                CCDC 
#
#######################################################################
#
# If this CIF has been generated from an entry in the Cambridge 
# Structural Database, then it will include bibliographic, chemical, 
# crystal, experimental, refinement or atomic coordinate data resulting 
# from the CCDC's data processing and validation procedures.
#
#######################################################################

data_ZODSIW
_symmetry_cell_setting           orthorhombic
_symmetry_space_group_name_H-M   'P b c a'
_symmetry_Int_Tables_number      61
_space_group_name_Hall           '-P 2ac 2ab'
loop_
_symmetry_equiv_pos_site_id
_symmetry_equiv_pos_as_xyz
1 x,y,z
2 1/2-x,-y,1/2+z
3 1/2+x,1/2-y,-z
4 -x,1/2+y,1/2-z
5 -x,-y,-z
6 1/2+x,y,1/2-z
7 1/2-x,1/2+y,z
8 x,1/2-y,1/2+z
_cell_length_a                   10.5650(5)
_cell_length_b                   9.8500(5)
_cell_length_c                   25.1585(18)
_cell_angle_alpha                90
_cell_angle_beta                 90
_cell_angle_gamma                90
_cell_volume                     2618.13
loop_
_atom_site_label
_atom_site_type_symbol
_atom_site_fract_x
_atom_site_fract_y
_atom_site_fract_z
Cd1 Cd 0.0000 0.0000 0.0000
S1 S -0.23509(8) 0.05785(9) 0.02507(3)
S2 S -0.06376(8) -0.10146(9) 0.09503(4)
N1 N -0.3026(3) -0.0398(3) 0.11880(11)
C1 C -0.2086(3) -0.0295(3) 0.08315(13)
C2 C -0.2901(4) -0.1184(4) 0.16831(14)
H1 H -0.3448 -0.1974 0.1665
H2 H -0.2036 -0.1502 0.1717
C3 C -0.3233(4) -0.0381(4) 0.21561(15)
O1 O -0.2511(3) 0.0731(3) 0.22568(11)
C4 C -0.3013(6) 0.1323(5) 0.27007(17)
H3 H -0.2708 0.2116 0.2855
C5 C -0.3972(6) 0.0632(6) 0.28783(18)
H4 H -0.4456 0.0826 0.3178
C6 C -0.4137(4) -0.0476(5) 0.25257(18)
H5 H -0.4757 -0.1144 0.2547
C7 C -0.4299(3) 0.0163(3) 0.10954(15)
H6 H -0.4263 0.0807 0.0804
H7 H -0.4574 0.0648 0.1411
C8 C -0.5247(3) -0.0930(3) 0.09653(14)
C9 C -0.4956(3) -0.1980(3) 0.06212(14)
H8 H -0.4149 -0.1997 0.0473
C10 C -0.6922(3) -0.2919(4) 0.06958(15)
H9 H -0.7500 -0.3588 0.0601
C11 C -0.6449(3) -0.0932(4) 0.11858(14)
H10 H -0.6681 -0.0267 0.1429
C12 C -0.7299(3) -0.1931(4) 0.10401(15)
H11 H -0.8118 -0.1929 0.1175
N2 N -0.5759(3) -0.2969(3) 0.04877(12)
S1D S 0.23509(8) -0.05785(9) -0.02507(3)
S2D S 0.06376(8) 0.10146(9) -0.09503(4)
N1D N 0.3026(3) 0.0398(3) -0.11880(11)
C1D C 0.2086(3) 0.0295(3) -0.08315(13)
C2D C 0.2901(4) 0.1184(4) -0.16831(14)
H1D H 0.3448 0.1974 -0.1665
H2D H 0.2036 0.1502 -0.1717
C3D C 0.3233(4) 0.0381(4) -0.21561(15)
O1D O 0.2511(3) -0.0731(3) -0.22568(11)
C4D C 0.3013(6) -0.1323(5) -0.27007(17)
H3D H 0.2708 -0.2116 -0.2855
C5D C 0.3972(6) -0.0632(6) -0.28783(18)
H4D H 0.4456 -0.0826 -0.3178
C6D C 0.4137(4) 0.0476(5) -0.25257(18)
H5D H 0.4757 0.1144 -0.2547
C7D C 0.4299(3) -0.0163(3) -0.10954(15)
H6D H 0.4263 -0.0807 -0.0804
H7D H 0.4574 -0.0648 -0.1411
C8D C 0.5247(3) 0.0930(3) -0.09653(14)
C9D C 0.4956(3) 0.1980(3) -0.06212(14)
H8D H 0.4149 0.1997 -0.0473
C10D C 0.6922(3) 0.2919(4) -0.06958(15)
H9D H 0.7500 0.3588 -0.0601
C11D C 0.6449(3) 0.0932(4) -0.11858(14)
H10D H 0.6681 0.0267 -0.1429
C12D C 0.7299(3) 0.1931(4) -0.10401(15)
H11D H 0.8118 0.1929 -0.1175
N2D N 0.5759(3) 0.2969(3) -0.04877(12)
Cd1B Cd -0.5000 -0.5000 0.0000
Cd1B_2 Cd 0.5000 0.5000 0.0000
N2B N -0.0759(3) -0.2031(3) -0.04877(12)
N2F N 0.0759(3) 0.2031(3) 0.04877(12)
loop_
_geom_bond_atom_site_label_1
_geom_bond_atom_site_label_2
_geom_bond_site_symmetry_1
_geom_bond_site_symmetry_2
Cd1 S1 1_555 1_555
S1 C1 1_555 1_555
S2 Cd1 1_555 1_555
N1 C1 1_555 1_555
C1 S2 1_555 1_555
C2 N1 1_555 1_555
H1 C2 1_555 1_555
H2 C2 1_555 1_555
C3 C2 1_555 1_555
O1 C3 1_555 1_555
C4 O1 1_555 1_555
H3 C4 1_555 1_555
C5 C4 1_555 1_555
H4 C5 1_555 1_555
C6 C3 1_555 1_555
H5 C6 1_555 1_555
C7 N1 1_555 1_555
H6 C7 1_555 1_555
H7 C7 1_555 1_555
C8 C7 1_555 1_555
C9 C8 1_555 1_555
H8 C9 1_555 1_555
C10 H9 1_555 1_555
C11 C8 1_555 1_555
H10 C11 1_555 1_555
C12 C10 1_555 1_555
H11 C12 1_555 1_555
N2 C9 1_555 1_555
S1D Cd1 1_555 1_555
S2D Cd1 1_555 1_555
N1D C1D 1_555 1_555
C1D S1D 1_555 1_555
C2D N1D 1_555 1_555
H1D C2D 1_555 1_555
H2D C2D 1_555 1_555
C3D C2D 1_555 1_555
O1D C3D 1_555 1_555
C4D O1D 1_555 1_555
H3D C4D 1_555 1_555
C5D C4D 1_555 1_555
H4D C5D 1_555 1_555
C6D C3D 1_555 1_555
H5D C6D 1_555 1_555
C7D N1D 1_555 1_555
H6D C7D 1_555 1_555
H7D C7D 1_555 1_555
C8D C7D 1_555 1_555
C9D C8D 1_555 1_555
H8D C9D 1_555 1_555
C10D H9D 1_555 1_555
C11D C8D 1_555 1_555
H10D C11D 1_555 1_555
C12D C10D 1_555 1_555
H11D C12D 1_555 1_555
N2D C9D 1_555 1_555
Cd1B N2 1_555 1_555
Cd1B_2 N2D 1_555 1_555
N2B Cd1 1_555 1_555
N2F Cd1 1_555 1_555
C5 C6 1_555 1_555
C10 N2 1_555 1_555
C11 C12 1_555 1_555
S2D C1D 1_555 1_555
C5D C6D 1_555 1_555
C10D N2D 1_555 1_555
C11D C12D 1_555 1_555

#END
