
#######################################################################
#
#                 Cambridge Crystallographic Data Centre
#                                CCDC 
#
#######################################################################
#
# If this CIF has been generated from an entry in the Cambridge 
# Structural Database, then it will include bibliographic, chemical, 
# crystal, experimental, refinement or atomic coordinate data resulting 
# from the CCDC's data processing and validation procedures.
#
#######################################################################

data_ZODSAO
_symmetry_cell_setting           monoclinic
_symmetry_space_group_name_H-M   'P 21/c'
_symmetry_Int_Tables_number      14
_space_group_name_Hall           '-P 2ybc'
loop_
_symmetry_equiv_pos_site_id
_symmetry_equiv_pos_as_xyz
1 x,y,z
2 -x,1/2+y,1/2-z
3 -x,-y,-z
4 x,1/2-y,1/2+z
_cell_length_a                   11.7717(3)
_cell_length_b                   18.0229(4)
_cell_length_c                   13.5418(5)
_cell_angle_alpha                90
_cell_angle_beta                 105.695(3)
_cell_angle_gamma                90
_cell_volume                     2765.91
loop_
_atom_site_label
_atom_site_type_symbol
_atom_site_fract_x
_atom_site_fract_y
_atom_site_fract_z
Cd1 Cd 0.26234(2) 0.060891(15) 0.77942(2)
S1 S 0.44745(8) -0.02277(5) 0.86927(7)
C1 C 0.4449(3) -0.04986(16) 0.7466(3)
S2 S 0.33146(8) -0.02263(5) 0.64517(7)
N1 N 0.5333(2) -0.09113(16) 0.7303(2)
S3 S 0.08069(8) 0.14419(5) 0.67890(7)
C2 C 0.0767(3) 0.17821(17) 0.7959(2)
S4 S 0.18517(8) 0.15236(5) 0.90407(7)
N2 N -0.0107(2) 0.22429(15) 0.8033(2)
C3 C 0.5480(3) -0.1062(2) 0.6274(3)
H1 H 0.4832 -0.0837 0.5762
H2 H 0.5448 -0.1594 0.6156
C4 C 0.6629(3) -0.0766(2) 0.6148(3)
C5 C 0.7016(4) -0.0063(2) 0.6485(3)
H3 H 0.6575 0.0219 0.6822
C6 C 0.8037(4) 0.0232(3) 0.6335(4)
H4 H 0.8273 0.0711 0.6554
C7 C 0.8691(4) -0.0185(4) 0.5863(4)
H5 H 0.9390 0.0006 0.5773
C8 C 0.8350(4) -0.0867(3) 0.5527(3)
H6 H 0.8807 -0.1139 0.5194
C9 C 0.7312(4) -0.1180(3) 0.5666(3)
H7 H 0.7088 -0.1658 0.5438
C10 C 0.6181(3) -0.13130(19) 0.8128(3)
H8 H 0.6199 -0.1093 0.8786
H9 H 0.6966 -0.1276 0.8030
C11 C 0.5819(3) -0.2124(2) 0.8116(3)
C12 C 0.4826(3) -0.2335(2) 0.8401(3)
H10 H 0.4384 -0.1984 0.8639
C13 C 0.4496(3) -0.3068(2) 0.8330(3)
H11 H 0.3836 -0.3222 0.8527
C14 C 0.5152(3) -0.3562(2) 0.7967(3)
H12 H 0.4921 -0.4057 0.7919
N3 N 0.6112(3) -0.33802(17) 0.7673(3)
C15 C 0.6417(3) -0.2664(2) 0.7751(3)
H13 H 0.7077 -0.2523 0.7544
C16 C -0.0291(3) 0.2490(2) 0.9012(3)
H14 H -0.0323 0.3028 0.9021
H15 H 0.0372 0.2333 0.9570
C17 C -0.1415(3) 0.2179(2) 0.9173(2)
C18 C -0.2261(4) 0.2639(2) 0.9389(3)
H16 H -0.2153 0.3151 0.9424
C19 C -0.3275(4) 0.2322(3) 0.9554(3)
H17 H -0.3843 0.2628 0.9703
C20 C -0.3453(4) 0.1574(4) 0.9499(3)
H18 H -0.4133 0.1373 0.9617
C21 C -0.2644(4) 0.1127(3) 0.9276(3)
H19 H -0.2764 0.0617 0.9235
C22 C -0.1641(4) 0.1425(2) 0.9107(3)
H20 H -0.1094 0.1109 0.8944
C23 C -0.0984(3) 0.25384(18) 0.7132(3)
H21 H -0.1761 0.2509 0.7247
H22 H -0.0988 0.2235 0.6539
C24 C -0.0732(3) 0.33323(18) 0.6912(2)
C25 C -0.1464(3) 0.38985(19) 0.7058(3)
H23 H -0.2110 0.3776 0.7297
N4 N -0.1291(3) 0.46164(16) 0.6872(2)
C26 C -0.0367(3) 0.4780(2) 0.6528(3)
H24 H -0.0237 0.5275 0.6393
C27 C 0.0408(3) 0.4255(2) 0.6362(3)
H25 H 0.1039 0.4392 0.6111
C28 C 0.0235(3) 0.3523(2) 0.6574(3)
H26 H 0.0764 0.3160 0.6491
Cd1A Cd -0.26234(2) 0.560891(15) 0.72058(2)
Cd1A_2 Cd 0.73766(2) -0.439109(15) 0.72058(2)
N3A N 0.3888(3) 0.16198(17) 0.7327(3)
N4A N 0.1291(3) -0.03836(16) 0.8128(2)
loop_
_geom_bond_atom_site_label_1
_geom_bond_atom_site_label_2
_geom_bond_site_symmetry_1
_geom_bond_site_symmetry_2
Cd1 S1 1_555 1_555
S1 C1 1_555 1_555
C1 S2 1_555 1_555
S2 Cd1 1_555 1_555
N1 C1 1_555 1_555
S3 Cd1 1_555 1_555
C2 S3 1_555 1_555
S4 Cd1 1_555 1_555
N2 C2 1_555 1_555
C3 N1 1_555 1_555
H1 C3 1_555 1_555
H2 C3 1_555 1_555
C4 C3 1_555 1_555
C5 C4 1_555 1_555
H3 C5 1_555 1_555
C6 C5 1_555 1_555
H4 C6 1_555 1_555
C7 C6 1_555 1_555
H5 C7 1_555 1_555
C8 C7 1_555 1_555
H6 C8 1_555 1_555
C9 C4 1_555 1_555
H7 C9 1_555 1_555
C10 N1 1_555 1_555
H8 C10 1_555 1_555
H9 C10 1_555 1_555
C11 C10 1_555 1_555
C12 C11 1_555 1_555
H10 C12 1_555 1_555
C13 C12 1_555 1_555
H11 C13 1_555 1_555
C14 C13 1_555 1_555
H12 C14 1_555 1_555
N3 C14 1_555 1_555
C15 C11 1_555 1_555
H13 C15 1_555 1_555
C16 N2 1_555 1_555
H14 C16 1_555 1_555
H15 C16 1_555 1_555
C17 C16 1_555 1_555
C18 C17 1_555 1_555
H16 C18 1_555 1_555
C19 C18 1_555 1_555
H17 C19 1_555 1_555
C20 C19 1_555 1_555
H18 C20 1_555 1_555
C21 C20 1_555 1_555
H19 C21 1_555 1_555
C22 C17 1_555 1_555
H20 C22 1_555 1_555
C23 N2 1_555 1_555
H21 C23 1_555 1_555
H22 C23 1_555 1_555
C24 C23 1_555 1_555
C25 C24 1_555 1_555
H23 C25 1_555 1_555
N4 C25 1_555 1_555
C26 N4 1_555 1_555
H24 C26 1_555 1_555
C27 C26 1_555 1_555
H25 C27 1_555 1_555
C28 C24 1_555 1_555
H26 C28 1_555 1_555
Cd1A N4 1_555 1_555
Cd1A_2 N3 1_555 1_555
N3A Cd1 1_555 1_555
N4A Cd1 1_555 1_555
C2 S4 1_555 1_555
C8 C9 1_555 1_555
N3 C15 1_555 1_555
C21 C22 1_555 1_555
C27 C28 1_555 1_555

#END
