
#######################################################################
#
#                 Cambridge Crystallographic Data Centre
#                                CCDC 
#
#######################################################################
#
# If this CIF has been generated from an entry in the Cambridge 
# Structural Database, then it will include bibliographic, chemical, 
# crystal, experimental, refinement or atomic coordinate data resulting 
# from the CCDC's data processing and validation procedures.
#
#######################################################################

data_ZODSES
_symmetry_cell_setting           monoclinic
_symmetry_space_group_name_H-M   'P 21/c'
_symmetry_Int_Tables_number      14
_space_group_name_Hall           '-P 2ybc'
loop_
_symmetry_equiv_pos_site_id
_symmetry_equiv_pos_as_xyz
1 x,y,z
2 -x,1/2+y,1/2-z
3 -x,-y,-z
4 x,1/2-y,1/2+z
_cell_length_a                   11.410(3)
_cell_length_b                   18.178(3)
_cell_length_c                   13.445(2)
_cell_angle_alpha                90
_cell_angle_beta                 106.57(2)
_cell_angle_gamma                90
_cell_volume                     2672.83
loop_
_atom_site_label
_atom_site_type_symbol
_atom_site_fract_x
_atom_site_fract_y
_atom_site_fract_z
Cd1 Cd 0.76182(2) 0.058691(12) 0.775470(19)
S1 S 0.68534(8) 0.14789(4) 0.90296(6)
S2 S 0.57340(8) 0.14185(4) 0.67384(6)
C1 C 0.5725(3) 0.17536(15) 0.7936(2)
N1 N 0.4856(2) 0.22273(13) 0.80143(16)
S3 S 0.95233(7) -0.02651(4) 0.86650(5)
S4 S 0.82610(8) -0.02757(5) 0.63972(6)
N2 N 1.0303(2) -0.10027(13) 0.72626(16)
C2 C 0.4679(3) 0.24709(18) 0.9003(2)
H1 H 0.4640 0.3004 0.9014
H2 H 0.5369 0.2315 0.9571
C3 C 0.3519(3) 0.21550(18) 0.9147(2)
C4 C 0.3279(3) 0.1403(2) 0.9071(3)
H3 H 0.3839 0.1084 0.8916
C5 C 0.2227(4) 0.1131(2) 0.9221(3)
H4 H 0.2056 0.0630 0.9162
C6 C 0.1438(4) 0.1613(3) 0.9459(3)
H5 H 0.0727 0.1427 0.9572
N3 N 0.1624(3) 0.2335(2) 0.9538(2)
C7 C 0.2641(3) 0.2587(2) 0.9381(2)
H6 H 0.2774 0.3092 0.9431
C8 C 0.3937(3) 0.25352(16) 0.7096(2)
H7 H 0.3136 0.2518 0.7210
H8 H 0.3911 0.2236 0.6493
C9 C 0.4236(3) 0.33181(16) 0.6891(2)
C10 C 0.5226(3) 0.34913(17) 0.6529(2)
H9 H 0.5745 0.3124 0.6423
C11 C 0.5424(3) 0.42173(19) 0.6330(2)
H10 H 0.6074 0.4348 0.6078
C12 C 0.4648(3) 0.47456(18) 0.6508(3)
H11 H 0.4791 0.5233 0.6367
N4 N 0.3704(2) 0.46003(14) 0.6870(2)
C13 C 0.3511(3) 0.38891(17) 0.7041(2)
H12 H 0.2842 0.3774 0.7276
C14 C 0.9442(3) -0.05581(15) 0.7425(2)
C15 C 1.0425(3) -0.11717(19) 0.6221(2)
H13 H 0.9746 -0.0954 0.5697
H14 H 1.0392 -0.1700 0.6117
C16 C 1.1611(3) -0.0880(2) 0.6097(2)
C17 C 1.1992(4) -0.0167(2) 0.6365(3)
H15 H 1.1508 0.0144 0.6632
C18 C 1.3055(4) 0.0085(3) 0.6244(3)
H16 H 1.3311 0.0565 0.6424
C19 C 1.3743(4) -0.0380(4) 0.5853(3)
H17 H 1.4475 -0.0204 0.5772
N5 N 1.3435(4) -0.1072(3) 0.5580(3)
C20 C 1.2370(4) -0.1313(2) 0.5709(3)
H18 H 1.2136 -0.1797 0.5528
C21 C 1.1205(3) -0.13947(16) 0.8108(2)
H19 H 1.1253 -0.1160 0.8767
H20 H 1.2006 -0.1369 0.7995
C22 C 1.0835(3) -0.21862(17) 0.8142(2)
C23 C 0.9872(3) -0.23884(19) 0.8519(2)
H21 H 0.9458 -0.2034 0.8788
C24 C 0.9530(3) -0.31129(19) 0.8493(3)
H22 H 0.8887 -0.3260 0.8743
C25 C 1.0168(3) -0.36141(19) 0.8086(3)
H23 H 0.9933 -0.4105 0.8067
N6 N 1.1097(2) -0.34453(14) 0.7719(2)
C26 C 1.1412(3) -0.27324(17) 0.7754(2)
H24 H 1.2060 -0.2600 0.7501
Cd1A Cd 0.23818(2) 0.558691(12) 0.724530(19)
Cd1A_2 Cd 1.23818(2) -0.441309(12) 0.724530(19)
N4A N 0.6296(2) -0.03997(14) 0.8130(2)
N6A N 0.8903(2) 0.15547(14) 0.7281(2)
loop_
_geom_bond_atom_site_label_1
_geom_bond_atom_site_label_2
_geom_bond_site_symmetry_1
_geom_bond_site_symmetry_2
Cd1 S1 1_555 1_555
S1 C1 1_555 1_555
S2 Cd1 1_555 1_555
C1 S2 1_555 1_555
N1 C1 1_555 1_555
S3 Cd1 1_555 1_555
S4 Cd1 1_555 1_555
N2 C14 1_555 1_555
C2 N1 1_555 1_555
H1 C2 1_555 1_555
H2 C2 1_555 1_555
C3 C2 1_555 1_555
C4 C3 1_555 1_555
H3 C4 1_555 1_555
C5 C4 1_555 1_555
H4 C5 1_555 1_555
C6 C5 1_555 1_555
H5 C6 1_555 1_555
N3 C6 1_555 1_555
C7 C3 1_555 1_555
H6 C7 1_555 1_555
C8 N1 1_555 1_555
H7 C8 1_555 1_555
H8 C8 1_555 1_555
C9 C8 1_555 1_555
C10 C9 1_555 1_555
H9 C10 1_555 1_555
C11 C10 1_555 1_555
H10 C11 1_555 1_555
C12 C11 1_555 1_555
H11 C12 1_555 1_555
N4 C12 1_555 1_555
C13 C9 1_555 1_555
H12 C13 1_555 1_555
C14 S3 1_555 1_555
C15 N2 1_555 1_555
H13 C15 1_555 1_555
H14 C15 1_555 1_555
C16 C15 1_555 1_555
C17 C16 1_555 1_555
H15 C17 1_555 1_555
C18 C17 1_555 1_555
H16 C18 1_555 1_555
C19 C18 1_555 1_555
H17 C19 1_555 1_555
N5 C19 1_555 1_555
C20 C16 1_555 1_555
H18 C20 1_555 1_555
C21 N2 1_555 1_555
H19 C21 1_555 1_555
H20 C21 1_555 1_555
C22 C21 1_555 1_555
C23 C22 1_555 1_555
H21 C23 1_555 1_555
C24 C23 1_555 1_555
H22 C24 1_555 1_555
C25 C24 1_555 1_555
H23 C25 1_555 1_555
N6 C25 1_555 1_555
C26 C22 1_555 1_555
H24 C26 1_555 1_555
Cd1A N4 1_555 1_555
Cd1A_2 N6 1_555 1_555
N4A Cd1 1_555 1_555
N6A Cd1 1_555 1_555
S4 C14 1_555 1_555
N3 C7 1_555 1_555
N4 C13 1_555 1_555
N5 C20 1_555 1_555
N6 C26 1_555 1_555

#END
