
#######################################################################
#
#                 Cambridge Crystallographic Data Centre
#                                CCDC 
#
#######################################################################
#
# If this CIF has been generated from an entry in the Cambridge 
# Structural Database, then it will include bibliographic, chemical, 
# crystal, experimental, refinement or atomic coordinate data resulting 
# from the CCDC's data processing and validation procedures.
#
#######################################################################

data_ZODWAS
_symmetry_cell_setting           monoclinic
_symmetry_space_group_name_H-M   'P 21/n'
_symmetry_Int_Tables_number      14
_space_group_name_Hall           '-P 2yn'
loop_
_symmetry_equiv_pos_site_id
_symmetry_equiv_pos_as_xyz
1 x,y,z
2 1/2-x,1/2+y,1/2-z
3 -x,-y,-z
4 1/2+x,1/2-y,1/2+z
_cell_length_a                   9.362(10)
_cell_length_b                   21.55(2)
_cell_length_c                   19.379(16)
_cell_angle_alpha                90
_cell_angle_beta                 98.64(2)
_cell_angle_gamma                90
_cell_volume                     3865.37
loop_
_atom_site_label
_atom_site_type_symbol
_atom_site_fract_x
_atom_site_fract_y
_atom_site_fract_z
N7 N 0.4145(18) 0.4030(9) -0.0631(8)
H13 H 0.3565 0.4002 -0.1018
C15 C 0.370(2) 0.4291(10) -0.0040(12)
H14 H 0.276 0.4435 -0.007
C16 C 0.4602(16) 0.4344(8) 0.0581(9)
H15 H 0.4301 0.4538 0.0963
C17 C 0.5987(18) 0.4096(9) 0.0621(9)
C18 C 0.641(2) 0.3843(10) 0.0046(10)
H16 H 0.7333 0.368 0.0072
C19 C 0.549(3) 0.3825(11) -0.0573(11)
H17 H 0.5828 0.3664 -0.0965
N8 N 0.885(2) 0.4165(9) 0.2590(10)
C20 C 0.931(3) 0.4150(14) 0.1983(15)
H18 H 1.0304 0.4138 0.1997
C21 C 0.851(3) 0.4150(13) 0.1325(12)
H19 H 0.8923 0.4149 0.0919
C22 C 0.704(3) 0.4149(9) 0.1322(9)
C23 C 0.6446(19) 0.4182(8) 0.1911(8)
H20 H 0.545 0.4204 0.1897
C24 C 0.738(2) 0.4181(9) 0.2543(9)
H21 H 0.6975 0.4193 0.2954
N9 N 0.2118(18) 0.1149(8) 0.0199(9)
C25 C 0.338(3) 0.0834(11) 0.0222(11)
H22 H 0.3593 0.0675 -0.0196
C26 C 0.431(2) 0.0735(10) 0.0781(10)
H23 H 0.5146 0.0507 0.076
C27 C 0.4005(15) 0.0997(7) 0.1445(8)
C28 C 0.274(2) 0.1323(9) 0.1413(10)
H24 H 0.2483 0.1504 0.1812
C29 C 0.181(2) 0.1380(13) 0.0750(14)
H25 H 0.0942 0.1597 0.0733
N10 N 0.7053(17) 0.0949(8) 0.3275(9)
H26 H 0.7678 0.0949 0.3648
C30 C 0.566(2) 0.1143(11) 0.3319(13)
H27 H 0.5398 0.1258 0.3745
C31 C 0.465(2) 0.1163(11) 0.2707(11)
H28 H 0.3707 0.1293 0.272
C32 C 0.5083(16) 0.0987(7) 0.2079(7)
C33 C 0.6479(19) 0.0812(9) 0.2063(9)
H29 H 0.6777 0.0724 0.1636
C34 C 0.747(2) 0.0763(10) 0.2681(11)
H30 H 0.8393 0.0604 0.2676
Y1 Y 0.28513(17) 0.35527(7) 0.38657(8)
S1 S 0.3262(7) 0.5207(3) 0.2022(3)
S2 S 0.4089(7) 0.4700(3) 0.6125(3)
S3 S 0.5644(6) 0.1728(2) 0.5088(3)
S4 S -0.0082(6) 0.1872(3) 0.2518(3)
O1 O 0.0576(11) 0.4066(5) 0.3839(5)
H1 H 0.0141 0.3973 0.3474
H2 H 0.0805 0.443 0.3741
O2 O 0.5245(11) 0.3892(6) 0.3991(5)
H3 H 0.5059 0.4281 0.3822
H4 H 0.5806 0.3949 0.4459
C1 C 0.283(2) 0.4664(11) 0.2592(11)
C2 C 0.3507(18) 0.4505(8) 0.5352(9)
C3 C 0.4898(16) 0.2304(8) 0.4666(8)
C4 C 0.0592(17) 0.2457(9) 0.2983(9)
N1 N 0.2775(16) 0.4347(8) 0.3022(9)
N2 N 0.3148(15) 0.4253(7) 0.4813(7)
N3 N 0.4335(15) 0.2721(7) 0.4367(8)
N4 N 0.1148(17) 0.2857(8) 0.3302(7)
N5 N 0.3917(12) 0.3103(5) 0.2809(6)
C5 C 0.5255(17) 0.2850(8) 0.2877(9)
H5 H 0.5807 0.2822 0.3317
C6 C 0.5812(17) 0.2631(8) 0.2303(7)
H6 H 0.673 0.2457 0.236
C7 C 0.5008(17) 0.2671(8) 0.1636(8)
C8 C 0.3615(15) 0.2914(7) 0.1603(8)
H7 H 0.304 0.2946 0.1169
C9 C 0.3074(17) 0.3101(8) 0.2168(9)
H8 H 0.2118 0.3232 0.2125
N6 N 0.6691(16) 0.1926(7) -0.0126(8)
C10 C 0.7471(19) 0.1943(9) 0.0524(8)
H9 H 0.8389 0.1768 0.0595
C11 C 0.693(2) 0.2223(9) 0.1107(10)
H10 H 0.7497 0.2263 0.1542
C12 C 0.5573(16) 0.2422(7) 0.0989(7)
C13 C 0.4717(18) 0.2382(8) 0.0343(8)
H11 H 0.3773 0.2529 0.0274
C14 C 0.5304(15) 0.2119(7) -0.0191(8)
H12 H 0.472 0.207 -0.062
Y1C Y 0.78513(17) 0.14473(7) -0.11343(8)
N6C N 0.1691(16) 0.3074(7) 0.4874(8)
loop_
_geom_bond_atom_site_label_1
_geom_bond_atom_site_label_2
_geom_bond_site_symmetry_1
_geom_bond_site_symmetry_2
Y1 O1 1_555 1_555
S1 C1 1_555 1_555
S2 C2 1_555 1_555
S3 C3 1_555 1_555
S4 C4 1_555 1_555
O1 H1 1_555 1_555
H2 O1 1_555 1_555
O2 Y1 1_555 1_555
H3 O2 1_555 1_555
H4 O2 1_555 1_555
C1 N1 1_555 1_555
C2 N2 1_555 1_555
C3 N3 1_555 1_555
C4 N4 1_555 1_555
N1 Y1 1_555 1_555
N2 Y1 1_555 1_555
N3 Y1 1_555 1_555
N4 Y1 1_555 1_555
N5 Y1 1_555 1_555
C5 N5 1_555 1_555
H5 C5 1_555 1_555
C6 C5 1_555 1_555
H6 C6 1_555 1_555
C7 C6 1_555 1_555
C8 C7 1_555 1_555
H7 C8 1_555 1_555
C9 N5 1_555 1_555
H8 C9 1_555 1_555
N6 C10 1_555 1_555
C10 H9 1_555 1_555
C11 C10 1_555 1_555
H10 C11 1_555 1_555
C12 C7 1_555 1_555
C13 C12 1_555 1_555
H11 C13 1_555 1_555
C14 N6 1_555 1_555
H12 C14 1_555 1_555
N7 H13 1_555 1_555
C15 N7 1_555 1_555
H14 C15 1_555 1_555
C16 C15 1_555 1_555
H15 C16 1_555 1_555
C17 C16 1_555 1_555
C18 C17 1_555 1_555
H16 C18 1_555 1_555
C19 N7 1_555 1_555
H17 C19 1_555 1_555
N8 C20 1_555 1_555
C20 H18 1_555 1_555
C21 C20 1_555 1_555
H19 C21 1_555 1_555
C22 C17 1_555 1_555
C23 C22 1_555 1_555
H20 C23 1_555 1_555
C24 N8 1_555 1_555
H21 C24 1_555 1_555
N9 C25 1_555 1_555
C25 H22 1_555 1_555
C26 C25 1_555 1_555
H23 C26 1_555 1_555
C27 C26 1_555 1_555
C28 C27 1_555 1_555
H24 C28 1_555 1_555
C29 N9 1_555 1_555
H25 C29 1_555 1_555
N10 H26 1_555 1_555
C30 N10 1_555 1_555
H27 C30 1_555 1_555
C31 C30 1_555 1_555
H28 C31 1_555 1_555
C32 C27 1_555 1_555
C33 C32 1_555 1_555
H29 C33 1_555 1_555
C34 N10 1_555 1_555
H30 C34 1_555 1_555
Y1C N6 1_555 1_555
N6C Y1 1_555 1_555
C8 C9 1_555 1_555
C11 C12 1_555 1_555
C13 C14 1_555 1_555
C18 C19 1_555 1_555
C21 C22 1_555 1_555
C23 C24 1_555 1_555
C28 C29 1_555 1_555
C31 C32 1_555 1_555
C33 C34 1_555 1_555

#END
