
#######################################################################
#
#                 Cambridge Crystallographic Data Centre
#                                CCDC 
#
#######################################################################
#
# If this CIF has been generated from an entry in the Cambridge 
# Structural Database, then it will include bibliographic, chemical, 
# crystal, experimental, refinement or atomic coordinate data resulting 
# from the CCDC's data processing and validation procedures.
#
#######################################################################

data_ZODZAT
_symmetry_cell_setting           monoclinic
_symmetry_space_group_name_H-M   'C 2/c'
_symmetry_Int_Tables_number      15
_space_group_name_Hall           '-C 2yn'
loop_
_symmetry_equiv_pos_site_id
_symmetry_equiv_pos_as_xyz
1 x,y,z
2 -x,y,1/2-z
3 1/2+x,1/2+y,z
4 1/2-x,1/2+y,1/2-z
5 -x,-y,-z
6 x,-y,1/2+z
7 1/2-x,1/2-y,-z
8 1/2+x,1/2-y,1/2+z
_cell_length_a                   21.141(3)
_cell_length_b                   6.459(1)
_cell_length_c                   12.219(1)
_cell_angle_alpha                90
_cell_angle_beta                 104.64(1)
_cell_angle_gamma                90
_cell_volume                     1614.33
loop_
_atom_site_label
_atom_site_type_symbol
_atom_site_fract_x
_atom_site_fract_y
_atom_site_fract_z
Ag1 Ag 0.000 0.0000 0.0000
Ag2 Ag 0.000 0.1199(8) -0.2500
O1 O 0.053(1) 0.274(4) 0.045(2)
O2 O 0.062(2) 0.361(5) -0.128(2)
N1 N 0.000 -0.214(8) -0.2500
O3 O 0.196(2) 1.192(5) 0.252(3)
O4 O 0.238(2) 1.219(6) 0.111(3)
C1 C 0.072(2) 0.389(6) -0.024(3)
C2 C 0.109(2) 0.579(6) 0.026(3)
C3 C 0.143(2) 0.696(7) -0.036(3)
C4 C 0.175(2) 0.876(7) 0.008(3)
C5 C 0.173(2) 0.936(6) 0.116(3)
C6 C 0.141(2) 0.820(6) 0.180(3)
C7 C 0.110(2) 0.641(6) 0.135(3)
N2 N 0.205(2) 1.129(6) 0.163(3)
H1 H 0.144 0.652 -0.111
H2 H 0.199 0.957 -0.034
H3 H 0.141 0.863 0.255
H4 H 0.088 0.558 0.179
O2A O -0.062(2) 0.361(5) -0.372(2)
C1A C -0.072(2) 0.389(6) -0.476(3)
O1A O -0.053(1) 0.274(4) -0.545(2)
Ag1A Ag 0.000 0.0000 -0.5000
C2A C -0.109(2) 0.579(6) -0.526(3)
C3A C -0.143(2) 0.696(7) -0.464(3)
C4A C -0.175(2) 0.876(7) -0.508(3)
C5A C -0.173(2) 0.936(6) -0.616(3)
C6A C -0.141(2) 0.820(6) -0.680(3)
C7A C -0.110(2) 0.641(6) -0.635(3)
H4A H -0.088 0.558 -0.679
H3A H -0.141 0.863 -0.755
N2A N -0.205(2) 1.129(6) -0.663(3)
O3A O -0.196(2) 1.192(5) -0.752(3)
O4A O -0.238(2) 1.219(6) -0.611(3)
H2A H -0.199 0.957 -0.466
H1A H -0.144 0.652 -0.389
O1D O -0.053(1) -0.274(4) -0.045(2)
loop_
_geom_bond_atom_site_label_1
_geom_bond_atom_site_label_2
_geom_bond_site_symmetry_1
_geom_bond_site_symmetry_2
Ag1 O1 1_555 1_555
Ag2 O2 1_555 1_555
O1 C1 1_555 1_555
O2 C1 1_555 1_555
N1 Ag2 1_555 1_555
O3 N2 1_555 1_555
O4 N2 1_555 1_555
C1 C2 1_555 1_555
C2 C3 1_555 1_555
C3 C4 1_555 1_555
C4 C5 1_555 1_555
C5 C6 1_555 1_555
C6 C7 1_555 1_555
C7 C2 1_555 1_555
N2 C5 1_555 1_555
H1 C3 1_555 1_555
H2 C4 1_555 1_555
H3 C6 1_555 1_555
H4 C7 1_555 1_555
O2A Ag2 1_555 1_555
C1A O2A 1_555 1_555
O1A C1A 1_555 1_555
Ag1A O1A 1_555 1_555
C2A C1A 1_555 1_555
C3A C2A 1_555 1_555
C4A C3A 1_555 1_555
C5A C4A 1_555 1_555
C6A C5A 1_555 1_555
C7A C2A 1_555 1_555
H4A C7A 1_555 1_555
H3A C6A 1_555 1_555
N2A C5A 1_555 1_555
O3A N2A 1_555 1_555
O4A N2A 1_555 1_555
H2A C4A 1_555 1_555
H1A C3A 1_555 1_555
O1D Ag1 1_555 1_555
C6A C7A 1_555 1_555

#END
