
#######################################################################
#
#                 Cambridge Crystallographic Data Centre
#                                CCDC 
#
#######################################################################
#
# If this CIF has been generated from an entry in the Cambridge 
# Structural Database, then it will include bibliographic, chemical, 
# crystal, experimental, refinement or atomic coordinate data resulting 
# from the CCDC's data processing and validation procedures.
#
#######################################################################

data_ZOFNEP
_symmetry_cell_setting           monoclinic
_symmetry_space_group_name_H-M   'P 21/n'
_symmetry_Int_Tables_number      14
_space_group_name_Hall           '-P 2yn'
loop_
_symmetry_equiv_pos_site_id
_symmetry_equiv_pos_as_xyz
1 x,y,z
2 1/2-x,1/2+y,1/2-z
3 -x,-y,-z
4 1/2+x,1/2-y,1/2+z
_cell_length_a                   10.4251(7)
_cell_length_b                   22.1496(14)
_cell_length_c                   12.9548(8)
_cell_angle_alpha                90
_cell_angle_beta                 97.5610(10)
_cell_angle_gamma                90
_cell_volume                     2965.41
loop_
_atom_site_label
_atom_site_type_symbol
_atom_site_fract_x
_atom_site_fract_y
_atom_site_fract_z
I1 I 0.09966(2) 0.18472(2) -0.10043(2)
I2 I -0.23878(2) 0.25276(2) -0.01906(2)
Cu1 Cu 0.00005(3) 0.28652(2) -0.04121(2)
Cu2 Cu 0.34782(3) 0.33709(2) 0.37849(2)
P1 P 0.08351(5) 0.35660(2) 0.07003(4)
P2 P 0.23393(5) 0.37654(2) 0.23836(4)
O1 O 0.03352(15) 0.42035(7) 0.01559(12)
O2 O 0.23923(16) 0.44889(7) 0.26235(12)
N1 N 0.24228(17) 0.37022(8) 0.10892(14)
N2 N 0.07447(17) 0.36614(8) 0.19931(14)
N3 N -0.00383(18) 0.34177(8) -0.17484(14)
N4 N 0.33979(18) 0.41148(8) 0.48131(15)
C1 C -0.0760(2) 0.42135(10) -0.06652(17)
H1 H -0.1105 0.4630 -0.0745
H2 H -0.1455 0.3950 -0.0465
C2 C -0.0387(2) 0.40013(10) -0.16918(17)
C3 C -0.0406(2) 0.43924(11) -0.25325(18)
H3 H -0.0655 0.4802 -0.2472
C4 C -0.0056(2) 0.41772(12) -0.34600(19)
H4 H -0.0081 0.4434 -0.4049
C5 C 0.0331(2) 0.35821(11) -0.35146(18)
H5 H 0.0586 0.3424 -0.4138
C6 C 0.0340(2) 0.32217(11) -0.26412(17)
H6 H 0.0628 0.2816 -0.2675
C7 C 0.3556(2) 0.36473(12) 0.05123(18)
C8 C 0.4013(3) 0.29884(15) 0.0573(3)
H7 H 0.3317 0.2727 0.0244
H8 H 0.4238 0.2872 0.1304
H9 H 0.4774 0.2945 0.0208
C9 C 0.3163(3) 0.3830(2) -0.0605(2)
H10 H 0.2465 0.3565 -0.0920
H11 H 0.3908 0.3793 -0.0990
H12 H 0.2860 0.4249 -0.0632
C10 C 0.4640(3) 0.40417(15) 0.1033(2)
H13 H 0.5392 0.4008 0.0656
H14 H 0.4879 0.3909 0.1755
H15 H 0.4350 0.4463 0.1027
C11 C -0.0370(2) 0.35645(10) 0.25782(17)
C12 C -0.0585(2) 0.28906(10) 0.27424(18)
H16 H -0.0733 0.2687 0.2066
H17 H -0.1341 0.2835 0.3109
H18 H 0.0181 0.2718 0.3158
C13 C -0.1570(2) 0.38452(10) 0.19497(17)
H19 H -0.1426 0.4278 0.1860
H20 H -0.2320 0.3786 0.2322
H21 H -0.1731 0.3651 0.1265
C14 C -0.0087(2) 0.38826(11) 0.36328(17)
H22 H 0.0707 0.3717 0.4018
H23 H -0.0811 0.3818 0.4033
H24 H 0.0022 0.4316 0.3522
C15 C 0.3491(2) 0.47361(11) 0.32886(19)
H25 H 0.3588 0.5168 0.3116
H26 H 0.4286 0.4523 0.3150
C16 C 0.3353(2) 0.46794(10) 0.44220(18)
C17 C 0.3229(2) 0.51832(11) 0.5039(2)
H27 H 0.3184 0.5576 0.4742
C18 C 0.3170(2) 0.51056(12) 0.6091(2)
H28 H 0.3077 0.5444 0.6525
C19 C 0.3247(2) 0.45317(12) 0.6501(2)
H29 H 0.3226 0.4468 0.7224
C20 C 0.3356(2) 0.40472(11) 0.58363(19)
H30 H 0.3402 0.3651 0.6119
I1C I 0.59966(2) 0.31528(2) 0.39957(2)
I2C I 0.26122(2) 0.24724(2) 0.48094(2)
Cu2C Cu -0.15218(3) 0.16291(2) -0.12151(2)
C21 C 0.6391(3) 0.35656(16) 0.7571(3)
C22 C 0.6898(3) 0.30970(15) 0.6964(2)
H31 H 0.6190 0.2918 0.6488
H32 H 0.7308 0.2784 0.7430
H33 H 0.7540 0.3271 0.6560
N5 N 0.6005(3) 0.39457(15) 0.8048(3)
loop_
_geom_bond_atom_site_label_1
_geom_bond_atom_site_label_2
_geom_bond_site_symmetry_1
_geom_bond_site_symmetry_2
I1 Cu1 1_555 1_555
I2 Cu1 1_555 1_555
Cu1 P1 1_555 1_555
Cu2 P2 1_555 1_555
P1 O1 1_555 1_555
P2 O2 1_555 1_555
O1 C1 1_555 1_555
O2 C15 1_555 1_555
N1 P1 1_555 1_555
N2 P1 1_555 1_555
N3 Cu1 1_555 1_555
N4 Cu2 1_555 1_555
C1 H1 1_555 1_555
H2 C1 1_555 1_555
C2 N3 1_555 1_555
C3 C2 1_555 1_555
H3 C3 1_555 1_555
C4 C3 1_555 1_555
H4 C4 1_555 1_555
C5 C4 1_555 1_555
H5 C5 1_555 1_555
C6 N3 1_555 1_555
H6 C6 1_555 1_555
C7 N1 1_555 1_555
C8 C7 1_555 1_555
H7 C8 1_555 1_555
H8 C8 1_555 1_555
H9 C8 1_555 1_555
C9 C7 1_555 1_555
H10 C9 1_555 1_555
H11 C9 1_555 1_555
H12 C9 1_555 1_555
C10 C7 1_555 1_555
H13 C10 1_555 1_555
H14 C10 1_555 1_555
H15 C10 1_555 1_555
C11 N2 1_555 1_555
C12 C11 1_555 1_555
H16 C12 1_555 1_555
H17 C12 1_555 1_555
H18 C12 1_555 1_555
C13 C11 1_555 1_555
H19 C13 1_555 1_555
H20 C13 1_555 1_555
H21 C13 1_555 1_555
C14 C11 1_555 1_555
H22 C14 1_555 1_555
H23 C14 1_555 1_555
H24 C14 1_555 1_555
C15 H25 1_555 1_555
H26 C15 1_555 1_555
C16 N4 1_555 1_555
C17 C16 1_555 1_555
H27 C17 1_555 1_555
C18 C17 1_555 1_555
H28 C18 1_555 1_555
C19 C18 1_555 1_555
H29 C19 1_555 1_555
C20 N4 1_555 1_555
H30 C20 1_555 1_555
C21 C22 1_555 1_555
C22 H31 1_555 1_555
H32 C22 1_555 1_555
H33 C22 1_555 1_555
N5 C21 1_555 1_555
I1C Cu2 1_555 1_555
I2C Cu2 1_555 1_555
Cu2C I1 1_555 1_555
I2 Cu2C 1_555 1_555
P2 N1 1_555 1_555
P2 N2 1_555 1_555
C1 C2 1_555 1_555
C5 C6 1_555 1_555
C15 C16 1_555 1_555
C19 C20 1_555 1_555

#END
