
#######################################################################
#
#                 Cambridge Crystallographic Data Centre
#                                CCDC 
#
#######################################################################
#
# If this CIF has been generated from an entry in the Cambridge 
# Structural Database, then it will include bibliographic, chemical, 
# crystal, experimental, refinement or atomic coordinate data resulting 
# from the CCDC's data processing and validation procedures.
#
#######################################################################

data_ZOFPUH
_symmetry_cell_setting           orthorhombic
_symmetry_space_group_name_H-M   'P 21 21 21'
_symmetry_Int_Tables_number      19
_space_group_name_Hall           'P 2ac 2ab'
loop_
_symmetry_equiv_pos_site_id
_symmetry_equiv_pos_as_xyz
1 x,y,z
2 1/2-x,-y,1/2+z
3 -x,1/2+y,1/2-z
4 1/2+x,1/2-y,-z
_cell_length_a                   4.7900(8)
_cell_length_b                   7.7306(12)
_cell_length_c                   24.562(4)
_cell_angle_alpha                90
_cell_angle_beta                 90
_cell_angle_gamma                90
_cell_volume                     909.52
loop_
_atom_site_label
_atom_site_type_symbol
_atom_site_fract_x
_atom_site_fract_y
_atom_site_fract_z
Pb1 Pb 0.57304(7) 0.31544(5) 0.22456(2)
C1 C 0.3478(18) 0.2908(14) 0.3850(4)
C2 C 0.193(2) 0.4305(15) 0.3657(4)
C3 C 0.148(2) 0.5760(15) 0.4001(4)
C4 C 0.269(2) 0.5808(15) 0.4512(4)
H1 H 0.2386 0.6760 0.4736
C5 C 0.435(3) 0.4448(15) 0.4695(4)
H2 H 0.5232 0.4517 0.5031
C6 C 0.467(2) 0.2998(16) 0.4374(4)
H3 H 0.5685 0.2063 0.4506
C7 C 0.386(2) 0.1275(14) 0.3530(5)
C8 C 0.063(2) 0.4280(12) 0.3089(4)
C9 C -0.030(2) 0.7199(12) 0.3813(4)
O1 O 0.4579(19) -0.0059(10) 0.3788(3)
O2 O 0.3343(15) 0.1268(9) 0.3024(3)
O3 O 0.2079(13) 0.4809(8) 0.2693(3)
O4 O -0.1825(15) 0.3759(11) 0.3067(3)
O5 O -0.0725(17) 0.7543(9) 0.3338(3)
O6 O -0.1500(15) 0.8067(11) 0.4213(3)
H4 H -0.2515 0.8818 0.4085
Pb1_2 Pb -0.42696(7) 0.31544(5) 0.22456(2)
Pb1B Pb -0.57304(7) 0.81544(5) 0.27544(2)
Pb1B_2 Pb 0.42696(7) -0.18456(5) 0.27544(2)
Pb1B_3 Pb 0.42696(7) 0.81544(5) 0.27544(2)
O1B O 0.5421(19) 0.4941(10) 0.1212(3)
O2B O 0.6657(15) 0.6268(9) 0.1976(3)
O3B O 0.7921(13) -0.0191(8) 0.2307(3)
O4_2 O 0.8175(15) 0.3759(11) 0.3067(3)
O5B O 0.0725(17) 0.2543(9) 0.1662(3)
O5B_2 O 1.0725(17) 0.2543(9) 0.1662(3)
loop_
_geom_bond_atom_site_label_1
_geom_bond_atom_site_label_2
_geom_bond_site_symmetry_1
_geom_bond_site_symmetry_2
Pb1 O2 1_555 1_555
C1 C2 1_555 1_555
C2 C3 1_555 1_555
C3 C4 1_555 1_555
C4 H1 1_555 1_555
C5 C4 1_555 1_555
H2 C5 1_555 1_555
C6 C1 1_555 1_555
H3 C6 1_555 1_555
C7 C1 1_555 1_555
C8 C2 1_555 1_555
C9 C3 1_555 1_555
O1 C7 1_555 1_555
O2 C7 1_555 1_555
O3 Pb1 1_555 1_555
O4 C8 1_555 1_555
O5 C9 1_555 1_555
O6 C9 1_555 1_555
H4 O6 1_555 1_555
Pb1_2 O4 1_555 1_555
Pb1B O5 1_555 1_555
Pb1B_2 O1 1_555 1_555
Pb1B_3 O3 1_555 1_555
O1B Pb1 1_555 1_555
O2B Pb1 1_555 1_555
O3B Pb1 1_555 1_555
O4_2 Pb1 1_555 1_555
O5B Pb1 1_555 1_555
O5B_2 Pb1 1_555 1_555
C5 C6 1_555 1_555
C8 O3 1_555 1_555
O2 Pb1B_2 1_555 1_555
O5 Pb1B_3 1_555 1_555
Pb1_2 O5B 1_555 1_555
Pb1B_2 O3B 1_555 1_555
Pb1B_3 O2B 1_555 1_555

#END
