
#######################################################################
#
#                 Cambridge Crystallographic Data Centre
#                                CCDC 
#
#######################################################################
#
# If this CIF has been generated from an entry in the Cambridge 
# Structural Database, then it will include bibliographic, chemical, 
# crystal, experimental, refinement or atomic coordinate data resulting 
# from the CCDC's data processing and validation procedures.
#
#######################################################################

data_ZOFSIY
_symmetry_cell_setting           monoclinic
_symmetry_space_group_name_H-M   'P 21/c'
_symmetry_Int_Tables_number      14
_space_group_name_Hall           '-P 2ybc'
loop_
_symmetry_equiv_pos_site_id
_symmetry_equiv_pos_as_xyz
1 x,y,z
2 -x,1/2+y,1/2-z
3 -x,-y,-z
4 x,1/2-y,1/2+z
_cell_length_a                   5.5749(3)
_cell_length_b                   7.5881(3)
_cell_length_c                   15.1390(7)
_cell_angle_alpha                90
_cell_angle_beta                 98.537(4)
_cell_angle_gamma                90
_cell_volume                     633.328
loop_
_atom_site_label
_atom_site_type_symbol
_atom_site_fract_x
_atom_site_fract_y
_atom_site_fract_z
Cd1 Cd 0.14362(5) 0.43641(4) 0.124352(18)
N1 N 0.3553(6) 0.3832(5) 0.2703(2)
C1 C 0.5448(7) 0.2750(5) 0.2867(3)
H1 H 0.6257 0.2474 0.2390
N2 N 0.6282(6) 0.2031(5) 0.3653(2)
C2 C 0.5147(7) 0.2490(5) 0.4348(3)
C3 C 0.3202(7) 0.3648(5) 0.4251(3)
H2 H 0.2462 0.3989 0.4735
C4 C 0.2409(8) 0.4278(5) 0.3392(3)
C5 C 0.0252(8) 0.5524(5) 0.3153(3)
O1 O -0.0621(6) 0.5599(4) 0.2342(2)
O2 O -0.0381(6) 0.6375(4) 0.3786(2)
C6 C 0.6163(7) 0.1663(5) 0.5244(3)
O3 O 0.7966(6) 0.0644(4) 0.5234(2)
O4 O 0.5126(5) 0.2010(4) 0.58968(19)
Cd1A Cd -0.14362(5) 0.93641(4) 0.375648(18)
Cd1A_2 Cd 0.85638(5) -0.06359(4) 0.375648(18)
Cd1C Cd 0.14362(5) 0.06359(4) 0.624352(18)
Cd1C_2 Cd 1.14362(5) 0.06359(4) 0.624352(18)
N2A N 0.3718(6) 0.7031(5) 0.1347(2)
O2A O 0.0381(6) 0.1375(4) 0.1214(2)
O3A O 0.2034(6) 0.5644(4) -0.0234(2)
O3C O -0.2034(6) 0.4356(4) 0.0234(2)
O4C O 0.5126(5) 0.2990(4) 0.08968(19)
loop_
_geom_bond_atom_site_label_1
_geom_bond_atom_site_label_2
_geom_bond_site_symmetry_1
_geom_bond_site_symmetry_2
Cd1 N1 1_555 1_555
N1 C1 1_555 1_555
C1 H1 1_555 1_555
N2 C1 1_555 1_555
C2 N2 1_555 1_555
C3 C2 1_555 1_555
H2 C3 1_555 1_555
C4 N1 1_555 1_555
C5 C4 1_555 1_555
O1 Cd1 1_555 1_555
O2 C5 1_555 1_555
C6 C2 1_555 1_555
O3 C6 1_555 1_555
O4 C6 1_555 1_555
Cd1A O2 1_555 1_555
Cd1A_2 N2 1_555 1_555
Cd1C O4 1_555 1_555
Cd1C_2 O3 1_555 1_555
N2A Cd1 1_555 1_555
O2A Cd1 1_555 1_555
O3A Cd1 1_555 1_555
O3C Cd1 1_555 1_555
O4C Cd1 1_555 1_555
C3 C4 1_555 1_555
C5 O1 1_555 1_555
O3 Cd1A_2 1_555 1_555

#END
