
#######################################################################
#
#                 Cambridge Crystallographic Data Centre
#                                CCDC 
#
#######################################################################
#
# If this CIF has been generated from an entry in the Cambridge 
# Structural Database, then it will include bibliographic, chemical, 
# crystal, experimental, refinement or atomic coordinate data resulting 
# from the CCDC's data processing and validation procedures.
#
#######################################################################

data_ZOFSAQ
_symmetry_cell_setting           monoclinic
_symmetry_space_group_name_H-M   'P 21/c'
_symmetry_Int_Tables_number      14
_space_group_name_Hall           '-P 2ybc'
loop_
_symmetry_equiv_pos_site_id
_symmetry_equiv_pos_as_xyz
1 x,y,z
2 -x,1/2+y,1/2-z
3 -x,-y,-z
4 x,1/2-y,1/2+z
_cell_length_a                   12.2812(2)
_cell_length_b                   7.1664(1)
_cell_length_c                   15.0551(4)
_cell_angle_alpha                90
_cell_angle_beta                 122.237(2)
_cell_angle_gamma                90
_cell_volume                     1120.77
loop_
_atom_site_label
_atom_site_type_symbol
_atom_site_fract_x
_atom_site_fract_y
_atom_site_fract_z
Cd1 Cd 0.263936(15) -0.02322(2) -0.187447(13)
N1 N 0.08918(18) -0.1321(2) -0.16143(14)
C1 C -0.0195(2) -0.2183(3) -0.23062(17)
H1 H -0.0410 -0.2220 -0.2999
N2 N -0.10037(18) -0.3001(3) -0.20904(14)
C2 C -0.0716(2) -0.2882(3) -0.10991(17)
C3 C 0.0381(2) -0.1999(3) -0.03326(17)
H2 H 0.0568 -0.1899 0.0351
C4 C 0.1197(2) -0.1264(3) -0.06154(17)
C5 C 0.2490(2) -0.0419(3) 0.01778(18)
O1 O 0.31741(17) 0.0115(2) -0.01671(15)
O2 O 0.27904(18) -0.0325(3) 0.11013(14)
C6 C -0.1638(2) -0.3818(3) -0.08456(18)
O3 O -0.25586(18) -0.4718(2) -0.15764(15)
O4 O -0.13806(18) -0.3626(3) 0.00619(13)
O5 O 0.45542(16) -0.1794(2) -0.11623(15)
O6 O 0.42152(19) 0.2319(3) -0.11454(15)
O7 O 0.19372(17) -0.3243(2) -0.26518(13)
H3 H 0.5297 -0.1306 -0.0785
H4 H 0.4670 -0.2780 -0.1415
H5 H 0.4764 0.2275 -0.0488
H6 H 0.4533 0.3047 -0.1396
H7 H 0.2288 -0.3696 -0.2960
H8 H 0.2238 -0.3887 -0.2093
Cd1A Cd -0.263936(15) -0.52322(2) -0.312553(13)
N2A N 0.10037(18) 0.1999(3) -0.29096(14)
O3A O 0.25586(18) 0.0282(2) -0.34236(15)
O8 O 0.2881(2) -0.4841(3) -0.0725(2)
H9 H 0.2513 -0.5312 -0.0431
H10 H 0.3298 -0.5741 -0.0770
O9 O -0.50202(17) -1.0013(2) -0.69635(14)
H11 H -0.5627 -1.0013 -0.7617
H12 H -0.4322 -1.0090 -0.6969
loop_
_geom_bond_atom_site_label_1
_geom_bond_atom_site_label_2
_geom_bond_site_symmetry_1
_geom_bond_site_symmetry_2
Cd1 N1 1_555 1_555
N1 C1 1_555 1_555
C1 H1 1_555 1_555
N2 C1 1_555 1_555
C2 N2 1_555 1_555
C3 C2 1_555 1_555
H2 C3 1_555 1_555
C4 N1 1_555 1_555
C5 C4 1_555 1_555
O1 Cd1 1_555 1_555
O2 C5 1_555 1_555
C6 C2 1_555 1_555
O3 C6 1_555 1_555
O4 C6 1_555 1_555
O5 Cd1 1_555 1_555
O6 Cd1 1_555 1_555
O7 Cd1 1_555 1_555
H3 O5 1_555 1_555
H4 O5 1_555 1_555
H5 O6 1_555 1_555
H6 O6 1_555 1_555
H7 O7 1_555 1_555
H8 O7 1_555 1_555
O8 H9 1_555 1_555
H10 O8 1_555 1_555
O9 H11 1_555 1_555
H12 O9 1_555 1_555
Cd1A N2 1_555 1_555
N2A Cd1 1_555 1_555
O3A Cd1 1_555 1_555
C3 C4 1_555 1_555
C5 O1 1_555 1_555
O3 Cd1A 1_555 1_555

#END
