
#######################################################################
#
#                 Cambridge Crystallographic Data Centre
#                                CCDC 
#
#######################################################################
#
# If this CIF has been generated from an entry in the Cambridge 
# Structural Database, then it will include bibliographic, chemical, 
# crystal, experimental, refinement or atomic coordinate data resulting 
# from the CCDC's data processing and validation procedures.
#
#######################################################################

data_ZOFSUK
_symmetry_cell_setting           monoclinic
_symmetry_space_group_name_H-M   'P 21/n'
_symmetry_Int_Tables_number      14
_space_group_name_Hall           '-P 2yn'
loop_
_symmetry_equiv_pos_site_id
_symmetry_equiv_pos_as_xyz
1 x,y,z
2 1/2-x,1/2+y,1/2-z
3 -x,-y,-z
4 1/2+x,1/2-y,1/2+z
_cell_length_a                   11.3016(3)
_cell_length_b                   8.7736(2)
_cell_length_c                   12.3079(4)
_cell_angle_alpha                90
_cell_angle_beta                 104.520(3)
_cell_angle_gamma                90
_cell_volume                     1181.42
loop_
_atom_site_label
_atom_site_type_symbol
_atom_site_fract_x
_atom_site_fract_y
_atom_site_fract_z
Mn1 Mn 0.94180(3) 0.04452(3) 0.68535(3)
N1 N 0.77058(15) -0.10549(19) 0.65798(15)
C1 C 0.73929(18) -0.2057(2) 0.72748(18)
H1 H 0.7917 -0.2167 0.7985
N2 N 0.63825(15) -0.29151(19) 0.70274(15)
C2 C 0.56413(18) -0.2765(2) 0.59946(18)
C3 C 0.58901(18) -0.1759(2) 0.52184(18)
H2 H 0.5372 -0.1666 0.4504
C4 C 0.69434(18) -0.0896(2) 0.55499(18)
C5 C 0.73157(19) 0.0277(2) 0.47798(19)
O1 O 0.83202(13) 0.09528(17) 0.51891(13)
O2 O 0.66321(14) 0.04696(17) 0.38376(13)
C6 C 0.44925(18) -0.3761(2) 0.57277(18)
O3 O 0.43685(13) -0.46286(16) 0.65110(13)
O4 O 0.37956(13) -0.36247(18) 0.47839(13)
O5 O 1.05003(13) 0.21909(17) 0.63513(13)
C7 C 1.15903(19) 0.2528(2) 0.67812(19)
H3 H 1.2030 0.2028 0.7405
N3 N 1.21845(16) 0.3562(2) 0.63798(16)
H4 H 1.1827 0.4058 0.5785
H5 H 1.2936 0.3751 0.6708
O6 O 1.05091(13) -0.14103(17) 0.65173(13)
H6 H 1.1064 -0.1457 0.6116
H7 H 1.0394 -0.2310 0.6722
Mn1A Mn 0.55820(3) -0.45548(3) 0.81465(3)
N2A N 0.86175(15) 0.20849(19) 0.79726(15)
O3A O 1.06315(13) 0.03714(16) 0.84890(13)
O7 O 0.97955(14) -0.39429(18) 0.73411(14)
H8 H 1.0257 -0.4639 0.7586
H9 H 0.9273 -0.3972 0.6663
O8 O 1.35908(14) 0.05789(17) 1.05074(14)
H10 H 1.2867 0.0941 1.0385
H11 H 1.4051 0.1390 1.0637
loop_
_geom_bond_atom_site_label_1
_geom_bond_atom_site_label_2
_geom_bond_site_symmetry_1
_geom_bond_site_symmetry_2
Mn1 N1 1_555 1_555
N1 C1 1_555 1_555
C1 H1 1_555 1_555
N2 C1 1_555 1_555
C2 N2 1_555 1_555
C3 C2 1_555 1_555
H2 C3 1_555 1_555
C4 N1 1_555 1_555
C5 C4 1_555 1_555
O1 Mn1 1_555 1_555
O2 C5 1_555 1_555
C6 C2 1_555 1_555
O3 C6 1_555 1_555
O4 C6 1_555 1_555
O5 Mn1 1_555 1_555
C7 O5 1_555 1_555
H3 C7 1_555 1_555
N3 C7 1_555 1_555
H4 N3 1_555 1_555
H5 N3 1_555 1_555
O6 Mn1 1_555 1_555
H6 O6 1_555 1_555
H7 O6 1_555 1_555
O7 H8 1_555 1_555
H9 O7 1_555 1_555
O8 H10 1_555 1_555
H11 O8 1_555 1_555
Mn1A N2 1_555 1_555
N2A Mn1 1_555 1_555
O3A Mn1 1_555 1_555
C3 C4 1_555 1_555
C5 O1 1_555 1_555
O3 Mn1A 1_555 1_555

#END
