
#######################################################################
#
#                 Cambridge Crystallographic Data Centre
#                                CCDC 
#
#######################################################################
#
# If this CIF has been generated from an entry in the Cambridge 
# Structural Database, then it will include bibliographic, chemical, 
# crystal, experimental, refinement or atomic coordinate data resulting 
# from the CCDC's data processing and validation procedures.
#
#######################################################################

data_ZOFXAV
_symmetry_cell_setting           monoclinic
_symmetry_space_group_name_H-M   'C c'
_symmetry_Int_Tables_number      9
_space_group_name_Hall           'C -2yc'
loop_
_symmetry_equiv_pos_site_id
_symmetry_equiv_pos_as_xyz
1 x,y,z
2 x,-y,1/2+z
3 1/2+x,1/2+y,z
4 1/2+x,1/2-y,1/2+z
_cell_length_a                   15.8154(2)
_cell_length_b                   8.89220(10)
_cell_length_c                   18.4302(2)
_cell_angle_alpha                90
_cell_angle_beta                 98.3930(10)
_cell_angle_gamma                90
_cell_volume                     2564.15
loop_
_atom_site_label
_atom_site_type_symbol
_atom_site_fract_x
_atom_site_fract_y
_atom_site_fract_z
La1 La 0.450336(12) 0.05102(3) 0.640815(11)
La2 La 0.542330(12) 0.09149(3) 0.857799(11)
N1 N 0.2687(2) -0.1354(5) 0.71787(18)
O1 O 0.0771(2) -0.3477(4) 0.72271(16)
N2 N 0.2632(2) 0.2860(4) 0.57506(19)
O2 O 0.1226(2) 0.3663(4) 0.48007(16)
O3 O 0.4898(2) -0.1087(3) 0.76111(16)
O4 O 0.06363(19) 0.4762(4) 0.56930(17)
O5 O 0.4819(2) -0.7381(3) 0.56257(16)
O6 O 0.35213(19) -0.0287(4) 0.52961(16)
N3 N 0.3038(3) -0.0841(5) 0.6610(2)
O7 O 0.41341(19) 0.1803(3) 0.76075(15)
O8 O 0.3229(2) 0.3076(4) 0.82088(17)
C1 C 0.2917(3) 0.2867(5) 0.6922(2)
N4 N 0.3230(2) 0.2472(5) 0.63076(19)
C2 C 0.1210(3) 0.4008(5) 0.5450(2)
O9 O 0.43070(19) 0.1901(4) 0.93322(16)
N5 N 0.4667(3) -0.3391(4) 0.57399(19)
O10 O 0.4709(3) -0.5628(4) 0.47606(18)
C3 C 0.2833(3) -0.1085(6) 0.5278(2)
C4 C 0.2570(3) -0.1408(5) 0.6008(2)
O11 O 0.2411(2) -0.1570(5) 0.47166(18)
C5 C 0.1501(3) -0.2940(5) 0.7464(2)
O12 O 0.1801(2) -0.3006(5) 0.81310(19)
C6 C 0.1979(3) -0.2216(5) 0.6938(2)
C7 C 0.1894(3) -0.2262(6) 0.6185(2)
C8 C 0.3457(3) 0.2579(5) 0.7638(2)
C9 C 0.1949(3) 0.3500(5) 0.5993(2)
C10 C 0.2111(3) 0.3535(6) 0.6748(2)
H1 H 0.1763 0.3916 0.7069
O13 O 0.6678(3) -0.1032(5) 0.8690(2)
H2 H 0.7072 -0.1075 0.9116
H3 H 0.673 -0.168 0.8303
C11 C 0.4920(3) -0.2531(5) 0.7631(2)
O14 O 0.5007(4) -0.3311(4) 0.81874(19)
C12 C 0.4837(3) -0.3311(5) 0.6903(2)
C13 C 0.4902(3) -0.4804(5) 0.6722(2)
C14 C 0.4796(3) -0.4826(5) 0.5965(2)
N6 N 0.4689(3) -0.2463(4) 0.6301(2)
C15 C 0.4780(3) -0.6035(5) 0.5405(2)
O15 O 0.5061(2) -0.1315(4) 0.92608(17)
H4 H 0.529 -0.143 0.9752
H5 H 0.4696 -0.2042 0.9028
O16 O 0.5421(3) 0.3784(4) 0.8683(3)
H6 H 0.148(3) -0.282(5) 0.582(2)
H7 H 0.505(3) -0.558(5) 0.705(3)
La1_2 La 0.450336(12) -0.94898(3) 0.640815(11)
La1B La -0.049664(12) -0.44898(3) 0.640815(11)
La1B_2 La -0.049664(12) 0.55102(3) 0.640815(11)
La2B La 0.042330(12) -0.40851(3) 0.857799(11)
La2C La 0.042330(12) 0.40851(3) 0.357799(11)
O1B O 0.5771(2) 0.1523(4) 0.72271(16)
O2C O 0.6226(2) 0.1337(4) 0.98007(16)
O4B O 0.56363(19) -0.0238(4) 0.56930(17)
O5_2 O 0.4819(2) 0.2619(3) 0.56257(16)
O12B O 0.6801(2) 0.1994(5) 0.81310(19)
O17 O 0.8116(2) 0.1955(5) 0.93289(19)
O18 O 0.8079(3) 0.4690(6) 0.8580(2)
loop_
_geom_bond_atom_site_label_1
_geom_bond_atom_site_label_2
_geom_bond_site_symmetry_1
_geom_bond_site_symmetry_2
La1 O3 1_555 1_555
La2 O3 1_555 1_555
N1 N3 1_555 1_555
O1 C5 1_555 1_555
N2 N4 1_555 1_555
O2 C2 1_555 1_555
O3 C11 1_555 1_555
O4 C2 1_555 1_555
O5 C15 1_555 1_555
O6 La1 1_555 1_555
N3 La1 1_555 1_555
O7 La1 1_555 1_555
O8 C8 1_555 1_555
C1 N4 1_555 1_555
N4 La1 1_555 1_555
C2 C9 1_555 1_555
O9 La2 1_555 1_555
N5 C14 1_555 1_555
O10 C15 1_555 1_555
C3 O6 1_555 1_555
C4 N3 1_555 1_555
O11 C3 1_555 1_555
C5 O12 1_555 1_555
O12 La2B 1_555 1_555
C6 N1 1_555 1_555
C7 C4 1_555 1_555
C8 O7 1_555 1_555
C9 N2 1_555 1_555
C10 C1 1_555 1_555
H1 C10 1_555 1_555
O13 La2 1_555 1_555
H2 O13 1_555 1_555
H3 O13 1_555 1_555
C11 O14 1_555 1_555
C12 C11 1_555 1_555
C13 C12 1_555 1_555
C14 C13 1_555 1_555
N6 La1 1_555 1_555
C15 C14 1_555 1_555
O15 La2 1_555 1_555
H4 O15 1_555 1_555
H5 O15 1_555 1_555
O16 La2 1_555 1_555
H6 C7 1_555 1_555
H7 C13 1_555 1_555
La1_2 O5 1_555 1_555
La1B O1 1_555 1_555
La1B_2 O4 1_555 1_555
La2B O1 1_555 1_555
La2C O2 1_555 1_555
O1B La1 1_555 1_555
O2C La2 1_555 1_555
O4B La1 1_555 1_555
O5_2 La1 1_555 1_555
O12B La2 1_555 1_555
La2 O7 1_555 1_555
La2 O1B 1_555 1_555
C1 C8 1_555 1_555
N5 N6 1_555 1_555
C3 C4 1_555 1_555
C5 C6 1_555 1_555
C6 C7 1_555 1_555
C9 C10 1_555 1_555
C12 N6 1_555 1_555

#END
