
#######################################################################
#
#                 Cambridge Crystallographic Data Centre
#                                CCDC 
#
#######################################################################
#
# If this CIF has been generated from an entry in the Cambridge 
# Structural Database, then it will include bibliographic, chemical, 
# crystal, experimental, refinement or atomic coordinate data resulting 
# from the CCDC's data processing and validation procedures.
#
#######################################################################

data_ZOFZAX
_symmetry_cell_setting           monoclinic
_symmetry_space_group_name_H-M   'C 2/c'
_symmetry_Int_Tables_number      15
_space_group_name_Hall           '-C 2yn'
loop_
_symmetry_equiv_pos_site_id
_symmetry_equiv_pos_as_xyz
1 x,y,z
2 -x,y,1/2-z
3 1/2+x,1/2+y,z
4 1/2-x,1/2+y,1/2-z
5 -x,-y,-z
6 x,-y,1/2+z
7 1/2-x,1/2-y,-z
8 1/2+x,1/2-y,1/2+z
_cell_length_a                   38.460(10)
_cell_length_b                   8.626(2)
_cell_length_c                   14.826(4)
_cell_angle_alpha                90
_cell_angle_beta                 99.161(4)
_cell_angle_gamma                90
_cell_volume                     4855.88
loop_
_atom_site_label
_atom_site_type_symbol
_atom_site_fract_x
_atom_site_fract_y
_atom_site_fract_z
Br1 Br 0.78575(3) 1.25999(10) 0.19311(7)
Br2 Br 0.78330(3) 1.45387(11) 0.43673(7)
Br3 Br 0.46420(3) 0.99405(12) 0.32580(7)
Br4 Br 0.46611(3) 0.54460(12) 0.34212(8)
C1 C 0.6237(2) 1.2359(9) 0.3667(7)
C2 C 0.5941(3) 1.2965(10) 0.3125(6)
H1 H 0.5955 1.3378 0.2538
C3 C 0.5621(3) 1.2954(10) 0.3461(7)
H2 H 0.5416 1.3377 0.3106
C4 C 0.5604(3) 1.2333(10) 0.4304(7)
C5 C 0.5902(3) 1.1694(11) 0.4836(8)
H3 H 0.5887 1.1267 0.5419
C6 C 0.6220(3) 1.1687(12) 0.4508(7)
H4 H 0.6423 1.1229 0.4854
C7 C 0.6765(3) 1.1269(11) 0.3085(8)
H5 H 0.6700 1.0210 0.3104
C8 C 0.6763(2) 1.3696(10) 0.3163(7)
H6 H 0.6695 1.4735 0.3261
C9 C 0.6267(3) 0.6369(10) 0.5089(7)
C10 C 0.6568(3) 0.6978(12) 0.4847(8)
H7 H 0.6552 0.7822 0.4431
C11 C 0.6894(3) 0.6372(12) 0.5204(8)
H8 H 0.7102 0.6854 0.5072
C12 C 0.6917(3) 0.5080(10) 0.5747(7)
C13 C 0.6615(3) 0.4458(11) 0.5996(7)
H9 H 0.6630 0.3584 0.6390
C14 C 0.6292(3) 0.5112(11) 0.5670(8)
H10 H 0.6084 0.4692 0.5847
C15 C 0.5715(3) 0.7860(11) 0.5165(7)
H11 H 0.5767 0.8143 0.5791
C16 C 0.5755(3) 0.6949(11) 0.3857(7)
H12 H 0.5839 0.6440 0.3366
Cd1 Cd 0.5000 0.75693(11) 0.2500
Cd2 Cd 0.751621(17) 1.50361(7) 0.26597(5)
Cd3 Cd 0.5000 1.0000 0.5000
N1 N 0.7044(2) 1.3324(8) 0.2858(6)
N2 N 0.7051(2) 1.1742(8) 0.2822(6)
N3 N 0.6572(2) 1.2440(8) 0.3328(6)
N4 N 0.5279(2) 1.2329(8) 0.4660(6)
H13 H 0.5118 1.2867 0.4250
H14 H 0.5315 1.2905 0.5189
N5 N 0.5457(2) 0.7692(8) 0.3782(6)
N6 N 0.5428(2) 0.8253(9) 0.4616(6)
N7 N 0.5929(2) 0.6995(8) 0.4721(6)
N8 N 0.7251(2) 0.4405(8) 0.6096(5)
H15 H 0.7408 0.4709 0.5722
H16 H 0.7227 0.3347 0.6040
Br3A Br 0.53580(3) 0.99405(12) 0.17420(7)
Br4A Br 0.53389(3) 0.54460(12) 0.15788(8)
C9A C 0.3733(3) 0.6369(10) -0.0089(7)
C10A C 0.3432(3) 0.6978(12) 0.0153(8)
H7A H 0.3448 0.7822 0.0569
C11A C 0.3106(3) 0.6372(12) -0.0204(8)
H8A H 0.2898 0.6854 -0.0072
C12A C 0.3083(3) 0.5080(10) -0.0747(7)
C13A C 0.3385(3) 0.4458(11) -0.0996(7)
H9A H 0.3370 0.3584 -0.1390
C14A C 0.3708(3) 0.5112(11) -0.0670(8)
H10A H 0.3916 0.4692 -0.0847
C15A C 0.4285(3) 0.7860(11) -0.0165(7)
H11A H 0.4233 0.8143 -0.0791
C16A C 0.4245(3) 0.6949(11) 0.1143(7)
H12A H 0.4161 0.6440 0.1634
N5A N 0.4543(2) 0.7692(8) 0.1218(6)
N6A N 0.4572(2) 0.8253(9) 0.0384(6)
N7A N 0.4071(2) 0.6995(8) 0.0279(6)
N8A N 0.2749(2) 0.4405(8) -0.1096(5)
H15A H 0.2592 0.4709 -0.0722
H16A H 0.2773 0.3347 -0.1040
Br1C Br 0.71425(3) 0.75999(10) 0.30689(7)
Br2C Br 0.71670(3) 0.95387(11) 0.06327(7)
C1C C 0.8763(2) 0.7359(9) 0.1333(7)
C2C C 0.9059(3) 0.7965(10) 0.1875(6)
H1C H 0.9045 0.8378 0.2462
C3C C 0.9379(3) 0.7954(10) 0.1539(7)
H2C H 0.9584 0.8377 0.1894
C4C C 0.9396(3) 0.7333(10) 0.0696(7)
C5C C 0.9098(3) 0.6694(11) 0.0164(8)
H3C H 0.9113 0.6267 -0.0419
C6C C 0.8780(3) 0.6687(12) 0.0492(7)
H4C H 0.8577 0.6229 0.0146
C7C C 0.8235(3) 0.6269(11) 0.1915(8)
H5C H 0.8300 0.5210 0.1896
C8C C 0.8237(2) 0.8696(10) 0.1837(7)
H6C H 0.8305 0.9735 0.1739
Cd2C Cd 0.748379(17) 1.00361(7) 0.23403(5)
N1C N 0.7956(2) 0.8324(8) 0.2142(6)
N2C N 0.7949(2) 0.6742(8) 0.2178(6)
N3C N 0.8428(2) 0.7440(8) 0.1672(6)
N4C N 0.9721(2) 0.7329(8) 0.0340(6)
H13C H 0.9882 0.7867 0.0750
H14C H 0.9685 0.7905 -0.0189
Br1C_2 Br 0.71425(3) 1.75999(10) 0.30689(7)
Br3D Br 0.53580(3) 1.00595(12) 0.67420(7)
Cd2_2 Cd 0.751621(17) 0.50361(7) 0.26597(5)
Cd2D Cd 0.248379(17) 0.49639(7) -0.26597(5)
Cd2E Cd 0.751621(17) 0.49639(7) 0.76597(5)
Cd3A Cd 0.5000 1.0000 0.0000
Cd3C Cd 1.0000 0.5000 0.0000
N2C_2 N 0.7949(2) 1.6742(8) 0.2178(6)
N4D N 0.4721(2) 0.7671(8) 0.5340(6)
N6D N 0.4572(2) 1.1747(9) 0.5384(6)
N8E N 0.7251(2) 1.5595(8) 0.1096(5)
N8F N 0.7749(2) 1.0595(8) 0.3904(5)
O1 O 0.8623(6) 0.442(2) 0.8646(16)
O2 O 0.8859(6) 0.673(2) 0.7642(15)
loop_
_geom_bond_atom_site_label_1
_geom_bond_atom_site_label_2
_geom_bond_site_symmetry_1
_geom_bond_site_symmetry_2
Br1 Cd2 1_555 1_555
Br2 Cd2 1_555 1_555
Br3 Cd1 1_555 1_555
Br4 Cd1 1_555 1_555
C1 C2 1_555 1_555
C2 H1 1_555 1_555
C3 C2 1_555 1_555
H2 C3 1_555 1_555
C4 C3 1_555 1_555
C5 C4 1_555 1_555
H3 C5 1_555 1_555
C6 C1 1_555 1_555
H4 C6 1_555 1_555
C7 H5 1_555 1_555
C8 H6 1_555 1_555
C9 C10 1_555 1_555
C10 H7 1_555 1_555
C11 C10 1_555 1_555
H8 C11 1_555 1_555
C12 C11 1_555 1_555
C13 C12 1_555 1_555
H9 C13 1_555 1_555
C14 C9 1_555 1_555
H10 C14 1_555 1_555
C15 H11 1_555 1_555
C16 H12 1_555 1_555
Cd1 N5 1_555 1_555
Cd2 N1 1_555 1_555
Cd3 Br3 1_555 1_555
N1 C8 1_555 1_555
N2 C7 1_555 1_555
N3 C1 1_555 1_555
N4 C4 1_555 1_555
H13 N4 1_555 1_555
H14 N4 1_555 1_555
N5 C16 1_555 1_555
N6 C15 1_555 1_555
N7 C9 1_555 1_555
N8 C12 1_555 1_555
H15 N8 1_555 1_555
H16 N8 1_555 1_555
Br3A Cd1 1_555 1_555
Br4A Cd1 1_555 1_555
C9A C10A 1_555 1_555
C10A H7A 1_555 1_555
C11A C10A 1_555 1_555
H8A C11A 1_555 1_555
C12A C11A 1_555 1_555
C13A C12A 1_555 1_555
H9A C13A 1_555 1_555
C14A C9A 1_555 1_555
H10A C14A 1_555 1_555
C15A H11A 1_555 1_555
C16A H12A 1_555 1_555
N5A Cd1 1_555 1_555
N6A C15A 1_555 1_555
N7A C9A 1_555 1_555
N8A C12A 1_555 1_555
H15A N8A 1_555 1_555
H16A N8A 1_555 1_555
Br1C Cd2C 1_555 1_555
Br2C Cd2C 1_555 1_555
C1C C2C 1_555 1_555
C2C H1C 1_555 1_555
C3C C2C 1_555 1_555
H2C C3C 1_555 1_555
C4C C3C 1_555 1_555
C5C C4C 1_555 1_555
H3C C5C 1_555 1_555
C6C C1C 1_555 1_555
H4C C6C 1_555 1_555
C7C H5C 1_555 1_555
C8C H6C 1_555 1_555
Cd2C Br1 1_555 1_555
N1C C8C 1_555 1_555
N2C C7C 1_555 1_555
N3C C1C 1_555 1_555
N4C C4C 1_555 1_555
H13C N4C 1_555 1_555
H14C N4C 1_555 1_555
Br1C_2 Cd2 1_555 1_555
Br3D Cd3 1_555 1_555
Cd2_2 Br1C 1_555 1_555
Cd2D N8A 1_555 1_555
Cd2E N8 1_555 1_555
Cd3A Br3A 1_555 1_555
Cd3C N4C 1_555 1_555
N2C_2 Cd2 1_555 1_555
N4D Cd3 1_555 1_555
N6D Cd3 1_555 1_555
N8E Cd2 1_555 1_555
N8F Cd2C 1_555 1_555
C5 C6 1_555 1_555
C7 N3 1_555 1_555
C8 N3 1_555 1_555
C13 C14 1_555 1_555
C15 N7 1_555 1_555
C16 N7 1_555 1_555
Cd3 N4 1_555 1_555
Cd3 N6 1_555 1_555
N1 N2 1_555 1_555
N2 Cd2C 1_555 1_555
N5 N6 1_555 1_555
C13A C14A 1_555 1_555
C15A N7A 1_555 1_555
C16A N5A 1_555 1_555
C16A N7A 1_555 1_555
N5A N6A 1_555 1_555
N6A Cd3A 1_555 1_555
C5C C6C 1_555 1_555
C7C N3C 1_555 1_555
C8C N3C 1_555 1_555
Cd2C N1C 1_555 1_555
N1C N2C 1_555 1_555
N2C Cd2_2 1_555 1_555

#END
