
#######################################################################
#
#                 Cambridge Crystallographic Data Centre
#                                CCDC 
#
#######################################################################
#
# If this CIF has been generated from an entry in the Cambridge 
# Structural Database, then it will include bibliographic, chemical, 
# crystal, experimental, refinement or atomic coordinate data resulting 
# from the CCDC's data processing and validation procedures.
#
#######################################################################

data_ZOGBEE
_symmetry_cell_setting           trigonal
_symmetry_space_group_name_H-M   'P 3 2 1'
_symmetry_Int_Tables_number      150
_space_group_name_Hall           'P 3 2"'
loop_
_symmetry_equiv_pos_site_id
_symmetry_equiv_pos_as_xyz
1 x,y,z
2 -y,x-y,z
3 -x+y,-x,z
4 y,x,-z
5 x-y,-y,-z
6 -x,-x+y,-z
_cell_length_a                   15.7780(13)
_cell_length_b                   15.7780(13)
_cell_length_c                   28.032(5)
_cell_angle_alpha                90
_cell_angle_beta                 90
_cell_angle_gamma                120
_cell_volume                     6043.5
loop_
_atom_site_label
_atom_site_type_symbol
_atom_site_fract_x
_atom_site_fract_y
_atom_site_fract_z
Ru1 Ru 0.6667 0.3333 0.33683(7)
N3 N 0.7155(7) 0.2539(7) 0.2980(3)
N4 N 0.6127(8) 0.2081(9) 0.3739(3)
C15 C 0.7677(10) 0.2891(12) 0.2571(5)
H7 H 0.7860 0.3515 0.2460
C16 C 0.7926(12) 0.2289(12) 0.2325(6)
H8 H 0.8306 0.2524 0.2051
C17 C 0.7630(13) 0.1364(13) 0.2472(6)
H9 H 0.7791 0.0960 0.2299
C18 C 0.7063(12) 0.1027(11) 0.2899(7)
H10 H 0.6837 0.0395 0.3012
C19 C 0.6869(9) 0.1648(9) 0.3131(5)
C20 C 0.6266(9) 0.1371(10) 0.3573(5)
C21 C 0.5950(14) 0.0464(13) 0.3786(7)
H11 H 0.6085 0.0005 0.3653
C22 C 0.5401(13) 0.0271(14) 0.4226(7)
H12 H 0.5158 -0.0322 0.4386
C23 C 0.5254(12) 0.1021(11) 0.4398(5)
H13 H 0.4945 0.0936 0.4691
C24 C 0.5549(9) 0.1882(10) 0.4150(5)
H14 H 0.5366 0.2326 0.4255
N3A N 0.7461(7) 0.4616(10) 0.2980(3)
N4A N 0.7919(9) 0.4046(12) 0.3739(3)
C15A C 0.7109(12) 0.4786(16) 0.2571(5)
H7A H 0.6485 0.4345 0.2460
C16A C 0.7711(12) 0.5637(17) 0.2325(6)
H8A H 0.7476 0.5782 0.2051
C17A C 0.8636(13) 0.6266(18) 0.2472(6)
H9A H 0.9040 0.6831 0.2299
C18A C 0.8973(11) 0.6036(16) 0.2899(7)
H10A H 0.9605 0.6442 0.3012
C19A C 0.8352(9) 0.5221(13) 0.3131(5)
C20A C 0.8629(10) 0.4895(13) 0.3573(5)
C21A C 0.9536(13) 0.5486(19) 0.3786(7)
H11A H 0.9995 0.6080 0.3653
C22A C 0.9729(14) 0.5130(19) 0.4226(7)
H12A H 1.0322 0.5480 0.4386
C23A C 0.8979(11) 0.4233(16) 0.4398(5)
H13A H 0.9064 0.4009 0.4691
C24A C 0.8118(10) 0.3667(13) 0.4150(5)
H14A H 0.7674 0.3040 0.4255
N3B N 0.5384(10) 0.2845(7) 0.2980(3)
N4B N 0.5954(12) 0.3873(8) 0.3739(3)
C15B C 0.5214(16) 0.2323(10) 0.2571(5)
H7B H 0.5655 0.2140 0.2460
C16B C 0.4363(17) 0.2074(12) 0.2325(6)
H8B H 0.4218 0.1694 0.2051
C17B C 0.3734(18) 0.2370(13) 0.2472(6)
H9B H 0.3169 0.2209 0.2299
C18B C 0.3964(16) 0.2937(12) 0.2899(7)
H10B H 0.3558 0.3163 0.3012
C19B C 0.4779(13) 0.3131(9) 0.3131(5)
C20B C 0.5105(13) 0.3734(9) 0.3573(5)
C21B C 0.4514(19) 0.4050(14) 0.3786(7)
H11B H 0.3920 0.3915 0.3653
C22B C 0.4870(19) 0.4599(13) 0.4226(7)
H12B H 0.4520 0.4842 0.4386
C23B C 0.5767(16) 0.4746(12) 0.4398(5)
H13B H 0.5991 0.5055 0.4691
C24B C 0.6333(13) 0.4451(9) 0.4150(5)
H14B H 0.6960 0.4634 0.4255
In2 In 0.47017(6) 0.47017(6) 0.0000
O9 O 0.4680(7) 0.3824(9) 0.0607(3)
O10 O 0.4081(11) 0.3324(13) 0.1333(3)
O11 O 0.1123(10) 0.4933(12) 0.0081(3)
O12 O 0.0498(10) 0.4558(12) 0.0778(3)
N5 N 0.3303(10) 0.4308(12) 0.0414(3)
C25 C 0.4044(12) 0.3638(14) 0.0945(4)
C26 C 0.3244(13) 0.3871(15) 0.0843(3)
C27 C 0.2504(15) 0.3663(18) 0.1161(5)
H15 H 0.2499 0.3404 0.1460
C28 C 0.1781(15) 0.3839(17) 0.1033(5)
H16 H 0.1250 0.3655 0.1236
C29 C 0.1822(12) 0.4296(14) 0.0599(5)
C30 C 0.2629(13) 0.4526(15) 0.0301(4)
H17 H 0.2683 0.4843 0.0013
C31 C 0.1088(13) 0.4582(16) 0.0490(5)
In2B In 0.00000(8) 0.52983(6) 0.0000
C28E C -0.1781(15) 0.2058(23) -0.1033(5)
H16E H -0.1250 0.2405 -0.1236
O9D O 0.0856(11) 0.6176(9) -0.0607(3)
O9E O -0.4680(7) -0.0856(11) -0.0607(3)
In2A In -0.47017(6) 0.00000(8) 0.0000
O9B O -0.0856(11) 0.5320(7) 0.0607(3)
C26E C -0.3244(13) 0.0627(20) -0.0843(3)
C27E C -0.2504(15) 0.1159(23) -0.1161(5)
N5E N -0.3303(10) 0.1005(16) -0.0414(3)
C30E C -0.2629(13) 0.1897(20) -0.0301(4)
N5B N 0.1005(16) 0.6697(10) 0.0414(3)
H17E H -0.2683 0.2160 -0.0013
C29E C -0.1822(12) 0.2474(18) -0.0599(5)
C31E C -0.1088(13) 0.3494(21) -0.0490(5)
H15E H -0.2499 0.0905 -0.1460
O12E O -0.0498(10) 0.4060(16) -0.0778(3)
O11E O -0.1123(10) 0.3810(16) -0.0081(3)
O10E O -0.4081(11) -0.0757(17) -0.1333(3)
C25E C -0.4044(12) -0.0406(18) -0.0945(4)
N5D N -0.1005(16) 0.5692(12) -0.0414(3)
In1 In 1.19531(5) 0.86199(5) 0.31962(3)
O1 O 1.0457(6) 0.8257(7) 0.3261(3)
O2 O 1.1570(5) 0.7087(5) 0.3155(3)
O3 O 1.1964(6) 0.9478(5) 0.2601(3)
O4 O 1.2838(5) 0.8629(7) 0.3817(3)
N1 N 1.3347(8) 0.9036(6) 0.2781(3)
N2 N 1.2337(7) 0.9993(9) 0.3642(4)
C1 C 1.0192(10) 0.7989(11) 0.3665(7)
C2 C 1.1311(8) 0.6835(8) 0.2715(5)
O5 O 1.0708(7) 0.7906(8) 0.3977(4)
C3 C 0.9147(8) 0.7704(9) 0.3801(5)
O6 O 1.1271(8) 0.7381(6) 0.2406(4)
C4 C 1.1001(10) 0.5792(8) 0.2582(5)
C5 C 0.8752(10) 0.7279(11) 0.4254(5)
C6 C 0.8563(7) 0.7868(8) 0.3511(4)
C7 C 1.0572(12) 0.5411(10) 0.2146(5)
C8 C 1.1175(7) 0.5231(7) 0.2883(4)
C9 C 0.7813(9) 0.7052(12) 0.4374(5)
H1 H 0.9127 0.7155 0.4469
H2 H 0.8792 0.8132 0.3210
C10 C 1.0285(12) 0.4433(9) 0.2042(4)
H3 H 1.0475 0.5795 0.1926
H4 H 1.1457 0.5493 0.3178
C11 C 0.7295(9) 0.7301(9) 0.4053(4)
H5 H 0.7532 0.6741 0.4660
C12 C 1.0539(8) 0.3936(7) 0.2364(4)
H6 H 0.9937 0.4132 0.1766
C13 C 0.6261(8) 0.7101(8) 0.4164(5)
C14 C 1.0359(7) 0.2916(8) 0.2265(4)
O7 O 0.5949(7) 0.6833(7) 0.4560(3)
O8 O 1.0010(7) 0.2545(6) 0.1861(3)
N2B N 0.7656(11) 0.7663(7) 0.3642(4)
N1A N 1.0964(6) 0.4311(10) 0.2781(3)
In1B In 0.66668(7) 0.80469(5) 0.31962(3)
In1A In 1.13801(5) 0.33332(7) 0.31962(3)
O4B O 0.5791(9) 0.7162(5) 0.3817(3)
O3A O 1.0522(5) 0.2486(8) 0.2601(3)
loop_
_geom_bond_atom_site_label_1
_geom_bond_atom_site_label_2
_geom_bond_site_symmetry_1
_geom_bond_site_symmetry_2
In1 O1 1_555 1_555
O1 C1 1_555 1_555
O2 In1 1_555 1_555
O3 In1 1_555 1_555
O4 In1 1_555 1_555
N1 In1 1_555 1_555
N2 In1 1_555 1_555
C1 O5 1_555 1_555
C2 O2 1_555 1_555
C3 C1 1_555 1_555
O6 C2 1_555 1_555
C4 C2 1_555 1_555
C5 C3 1_555 1_555
C6 C3 1_555 1_555
C7 C4 1_555 1_555
C8 C4 1_555 1_555
C9 C5 1_555 1_555
H1 C5 1_555 1_555
H2 C6 1_555 1_555
C10 C7 1_555 1_555
H3 C7 1_555 1_555
H4 C8 1_555 1_555
C11 C9 1_555 1_555
H5 C9 1_555 1_555
C12 C10 1_555 1_555
H6 C10 1_555 1_555
C13 C11 1_555 1_555
C14 C12 1_555 1_555
O7 C13 1_555 1_555
O8 C14 1_555 1_555
Ru1 N3 1_555 1_555
N3 C15 1_555 1_555
N4 Ru1 1_555 1_555
C15 H7 1_555 1_555
C16 C15 1_555 1_555
H8 C16 1_555 1_555
C17 C16 1_555 1_555
H9 C17 1_555 1_555
C18 C17 1_555 1_555
H10 C18 1_555 1_555
C19 N3 1_555 1_555
C20 N4 1_555 1_555
C21 C20 1_555 1_555
H11 C21 1_555 1_555
C22 C21 1_555 1_555
H12 C22 1_555 1_555
C23 C22 1_555 1_555
H13 C23 1_555 1_555
C24 N4 1_555 1_555
H14 C24 1_555 1_555
In2 O9 1_555 1_555
O9 C25 1_555 1_555
O10 C25 1_555 1_555
O11 C31 1_555 1_555
O12 C31 1_555 1_555
N5 In2 1_555 1_555
C25 C26 1_555 1_555
C26 N5 1_555 1_555
C27 C26 1_555 1_555
H15 C27 1_555 1_555
C28 C27 1_555 1_555
H16 C28 1_555 1_555
C29 C28 1_555 1_555
C30 N5 1_555 1_555
H17 C30 1_555 1_555
C31 C29 1_555 1_555
N2B C6 1_555 1_555
N1A C8 1_555 1_555
In1B N2B 1_555 1_555
In1A N1A 1_555 1_555
O4B C13 1_555 1_555
O3A C14 1_555 1_555
N3A Ru1 1_555 1_555
N4A Ru1 1_555 1_555
C15A N3A 1_555 1_555
H7A C15A 1_555 1_555
C16A C15A 1_555 1_555
H8A C16A 1_555 1_555
C17A C16A 1_555 1_555
H9A C17A 1_555 1_555
C18A C17A 1_555 1_555
H10A C18A 1_555 1_555
C19A N3A 1_555 1_555
C20A N4A 1_555 1_555
C21A C20A 1_555 1_555
H11A C21A 1_555 1_555
C22A C21A 1_555 1_555
H12A C22A 1_555 1_555
C23A C22A 1_555 1_555
H13A C23A 1_555 1_555
C24A N4A 1_555 1_555
H14A C24A 1_555 1_555
N3B Ru1 1_555 1_555
N4B Ru1 1_555 1_555
C15B N3B 1_555 1_555
H7B C15B 1_555 1_555
C16B C15B 1_555 1_555
H8B C16B 1_555 1_555
C17B C16B 1_555 1_555
H9B C17B 1_555 1_555
C18B C17B 1_555 1_555
H10B C18B 1_555 1_555
C19B N3B 1_555 1_555
C20B N4B 1_555 1_555
C21B C20B 1_555 1_555
H11B C21B 1_555 1_555
C22B C21B 1_555 1_555
H12B C22B 1_555 1_555
C23B C22B 1_555 1_555
H13B C23B 1_555 1_555
C24B N4B 1_555 1_555
H14B C24B 1_555 1_555
In2B O11 1_555 1_555
C28E H16E 1_555 1_555
O9D In2B 1_555 1_555
O9E In2A 1_555 1_555
In2A N5E 1_555 1_555
O9B In2B 1_555 1_555
C26E C27E 1_555 1_555
C27E C28E 1_555 1_555
N5E C26E 1_555 1_555
C30E N5E 1_555 1_555
N5B In2B 1_555 1_555
H17E C30E 1_555 1_555
C29E C28E 1_555 1_555
C31E C29E 1_555 1_555
H15E C27E 1_555 1_555
O12E C31E 1_555 1_555
O11E In2B 1_555 1_555
O10E C25E 1_555 1_555
C25E O9E 1_555 1_555
N5D In2B 1_555 1_555
C11 N2B 1_555 1_555
C12 N1A 1_555 1_555
C18 C19 1_555 1_555
C19 C20 1_555 1_555
C23 C24 1_555 1_555
C29 C30 1_555 1_555
In1B O4B 1_555 1_555
In1A O3A 1_555 1_555
C18A C19A 1_555 1_555
C19A C20A 1_555 1_555
C23A C24A 1_555 1_555
C18B C19B 1_555 1_555
C19B C20B 1_555 1_555
C23B C24B 1_555 1_555
C26E C25E 1_555 1_555
C30E C29E 1_555 1_555
C31E O11E 1_555 1_555

#END
