
#######################################################################
#
#                 Cambridge Crystallographic Data Centre
#                                CCDC 
#
#######################################################################
#
# If this CIF has been generated from an entry in the Cambridge 
# Structural Database, then it will include bibliographic, chemical, 
# crystal, experimental, refinement or atomic coordinate data resulting 
# from the CCDC's data processing and validation procedures.
#
#######################################################################

data_ZOGJIO
_symmetry_cell_setting           monoclinic
_symmetry_space_group_name_H-M   'P 21/n'
_symmetry_Int_Tables_number      14
_space_group_name_Hall           '-P 2yn'
loop_
_symmetry_equiv_pos_site_id
_symmetry_equiv_pos_as_xyz
1 x,y,z
2 1/2-x,1/2+y,1/2-z
3 -x,-y,-z
4 1/2+x,1/2-y,1/2+z
_cell_length_a                   11.148(4)
_cell_length_b                   9.018(2)
_cell_length_c                   14.330(3)
_cell_angle_alpha                90
_cell_angle_beta                 100.03(2)
_cell_angle_gamma                90
_cell_volume                     1418.62
loop_
_atom_site_label
_atom_site_type_symbol
_atom_site_fract_x
_atom_site_fract_y
_atom_site_fract_z
Ag1 Ag 0.72768(4) 0.85701(4) 0.55581(3)
N1 N 0.7022(3) 0.6019(4) 0.5123(2)
N2 N 0.6582(3) 0.7332(4) 0.6751(2)
N3 N 0.6468(3) 0.7650(4) 0.7647(2)
N4 N 0.6602(3) 0.5476(4) 0.9747(2)
C1 C 0.7077(4) 0.5419(5) 0.4274(3)
C2 C 0.6708(4) 0.3983(5) 0.4034(3)
C3 C 0.6251(4) 0.3113(5) 0.4690(3)
C4 C 0.6200(4) 0.3712(4) 0.5567(3)
C5 C 0.6578(3) 0.5165(4) 0.5760(3)
C6 C 0.6504(3) 0.5859(4) 0.6678(3)
C7 C 0.6312(4) 0.5233(4) 0.7531(3)
C8 C 0.6291(3) 0.6407(4) 0.8139(3)
C9 C 0.6099(4) 0.6530(4) 0.9127(3)
C10 C 0.5414(4) 0.7681(5) 0.9402(3)
C11 C 0.5257(4) 0.7797(5) 1.0332(3)
C12 C 0.5765(4) 0.6731(5) 1.0963(3)
C13 C 0.6426(4) 0.5583(5) 1.0656(3)
H1 H 0.7304 0.6144 0.3767
H2 H 0.6750 0.3646 0.3370
H3 H 0.5870 0.2101 0.4379
H4 H 0.5853 0.3154 0.6081
H5 H 0.6165 0.4206 0.7712
H6 H 0.6379 0.8685 0.7768
H7 H 0.5128 0.8395 0.8961
H8 H 0.4547 0.8496 1.0401
H9 H 0.5723 0.6802 1.1658
H10 H 0.6737 0.4758 1.1103
Ag1A Ag 0.77232(4) 0.35701(4) 0.94419(3)
N1A N 0.7978(3) 0.1019(4) 0.9877(2)
N2A N 0.8418(3) 0.2332(4) 0.8249(2)
Cl1 Cl 0.9469(1) 0.4414(1) 0.19531(8)
O1 O 1.0585(4) 0.4149(5) 0.2594(3)
O2 O 0.8947(4) 0.5758(5) 0.2232(3)
O3 O 0.9688(4) 0.4606(4) 0.1008(3)
O4 O 0.8646(5) 0.3229(5) 0.1974(3)
loop_
_geom_bond_atom_site_label_1
_geom_bond_atom_site_label_2
_geom_bond_site_symmetry_1
_geom_bond_site_symmetry_2
Ag1 N1 1_555 1_555
Cl1 O1 1_555 1_555
O2 Cl1 1_555 1_555
O3 Cl1 1_555 1_555
O4 Cl1 1_555 1_555
N1 C1 1_555 1_555
N2 Ag1 1_555 1_555
N3 N2 1_555 1_555
N4 C9 1_555 1_555
C1 C2 1_555 1_555
C2 C3 1_555 1_555
C3 C4 1_555 1_555
C4 C5 1_555 1_555
C5 N1 1_555 1_555
C6 N2 1_555 1_555
C7 C6 1_555 1_555
C8 N3 1_555 1_555
C9 C8 1_555 1_555
C10 C9 1_555 1_555
C11 C10 1_555 1_555
C12 C11 1_555 1_555
C13 N4 1_555 1_555
H1 C1 1_555 1_555
H2 C2 1_555 1_555
H3 C3 1_555 1_555
H4 C4 1_555 1_555
H5 C7 1_555 1_555
H6 N3 1_555 1_555
H7 C10 1_555 1_555
H8 C11 1_555 1_555
H9 C12 1_555 1_555
H10 C13 1_555 1_555
Ag1A N4 1_555 1_555
N1A Ag1A 1_555 1_555
N2A Ag1A 1_555 1_555
C5 C6 1_555 1_555
C7 C8 1_555 1_555
C12 C13 1_555 1_555

#END
