
#######################################################################
#
#                 Cambridge Crystallographic Data Centre
#                                CCDC 
#
#######################################################################
#
# If this CIF has been generated from an entry in the Cambridge 
# Structural Database, then it will include bibliographic, chemical, 
# crystal, experimental, refinement or atomic coordinate data resulting 
# from the CCDC's data processing and validation procedures.
#
#######################################################################

data_ZOGNOA
_symmetry_cell_setting           monoclinic
_symmetry_space_group_name_H-M   'P 21/n'
_symmetry_Int_Tables_number      14
_space_group_name_Hall           '-P 2yn'
loop_
_symmetry_equiv_pos_site_id
_symmetry_equiv_pos_as_xyz
1 x,y,z
2 1/2-x,1/2+y,1/2-z
3 -x,-y,-z
4 1/2+x,1/2-y,1/2+z
_cell_length_a                   9.4748(3)
_cell_length_b                   13.1587(3)
_cell_length_c                   12.2363(4)
_cell_angle_alpha                90
_cell_angle_beta                 90.169(3)
_cell_angle_gamma                90
_cell_volume                     1525.57
loop_
_atom_site_label
_atom_site_type_symbol
_atom_site_fract_x
_atom_site_fract_y
_atom_site_fract_z
Ni1 Ni 0.67848(2) 0.24024(2) 0.49026(2)
O1 O 0.08339(10) 0.30527(7) 0.40060(8)
O2 O 0.08522(9) 0.13757(7) 0.37485(8)
O3 O 0.22430(9) 0.22208(7) 0.15316(7)
O4 O 0.36970(11) 0.34899(8) 0.19979(8)
O5 O 0.53574(10) 0.36800(7) 0.49370(8)
H1 H 0.545(2) 0.4071(15) 0.4413(14)
H2 H 0.539(2) 0.4008(16) 0.5517(13)
O6 O 0.81939(10) 0.34914(7) 0.43705(8)
H3 H 0.9005(15) 0.3300(14) 0.4261(15)
H4 H 0.827(2) 0.3949(13) 0.4810(14)
O7 O 0.83623(9) 0.12531(7) 0.49178(8)
H5 H 0.862(2) 0.1259(16) 0.5563(12)
H6 H 0.9062(18) 0.1314(16) 0.4524(15)
C1 C 0.14303(12) 0.22296(9) 0.37562(10)
C2 C 0.29716(12) 0.23522(9) 0.34044(10)
H7 H 0.3404 0.2899 0.3863
C3 C 0.29726(12) 0.27179(9) 0.22074(10)
C4 C 0.38816(12) 0.13797(9) 0.35405(10)
H8 H 0.3365 0.0795 0.3203
N1 N 0.54593(11) 0.11951(8) 0.19200(9)
H9 H 0.4844 0.0865 0.1514
C5 C 0.52545(12) 0.15179(9) 0.29526(10)
N2 N 0.63816(10) 0.20054(8) 0.33206(8)
C6 C 0.73630(13) 0.19725(10) 0.24821(10)
H10 H 0.8285 0.2256 0.2511
C7 C 0.68010(13) 0.14732(10) 0.16139(10)
H11 H 0.7244 0.1342 0.0933
N3 N 0.31479(11) 0.06353(8) 0.53308(9)
H12 H 0.2375 0.0348 0.5076
C8 C 0.40946(12) 0.11606(9) 0.47373(10)
N4 N 0.51357(10) 0.14957(8) 0.53735(8)
C9 C 0.48190(13) 0.11563(9) 0.64160(10)
H13 H 0.5376 0.1277 0.7049
C10 C 0.35905(13) 0.06238(9) 0.63950(10)
H14 H 0.3133 0.0308 0.6996
Ni1C Ni 0.17848(2) 0.25976(2) -0.00974(2)
O3C O 0.72430(9) 0.27792(7) 0.65316(7)
O8 O 0.16915(10) 0.49934(7) 0.40589(8)
H15 H 0.149(2) 0.4395(12) 0.4036(17)
H16 H 0.2446(18) 0.5066(16) 0.3770(16)
O9 O 0.94450(12) -0.01426(8) 0.81355(9)
H17 H 0.934(3) 0.0415(14) 0.7805(19)
H18 H 0.943(2) -0.0582(15) 0.7647(16)
loop_
_geom_bond_atom_site_label_1
_geom_bond_atom_site_label_2
_geom_bond_site_symmetry_1
_geom_bond_site_symmetry_2
Ni1 O5 1_555 1_555
O1 C1 1_555 1_555
O2 C1 1_555 1_555
O3 C3 1_555 1_555
O4 C3 1_555 1_555
O5 H1 1_555 1_555
H2 O5 1_555 1_555
O6 Ni1 1_555 1_555
H3 O6 1_555 1_555
H4 O6 1_555 1_555
O7 Ni1 1_555 1_555
H5 O7 1_555 1_555
H6 O7 1_555 1_555
C1 C2 1_555 1_555
C2 H7 1_555 1_555
C3 C2 1_555 1_555
C4 C2 1_555 1_555
H8 C4 1_555 1_555
N1 H9 1_555 1_555
C5 C4 1_555 1_555
N2 Ni1 1_555 1_555
C6 N2 1_555 1_555
H10 C6 1_555 1_555
C7 N1 1_555 1_555
H11 C7 1_555 1_555
N3 H12 1_555 1_555
C8 C4 1_555 1_555
N4 Ni1 1_555 1_555
C9 N4 1_555 1_555
H13 C9 1_555 1_555
C10 N3 1_555 1_555
H14 C10 1_555 1_555
O8 H15 1_555 1_555
H16 O8 1_555 1_555
O9 H17 1_555 1_555
H18 O9 1_555 1_555
Ni1C O3 1_555 1_555
O3C Ni1 1_555 1_555
N1 C5 1_555 1_555
C5 N2 1_555 1_555
C6 C7 1_555 1_555
N3 C8 1_555 1_555
C8 N4 1_555 1_555
C9 C10 1_555 1_555

#END
