
#######################################################################
#
#                 Cambridge Crystallographic Data Centre
#                                CCDC 
#
#######################################################################
#
# If this CIF has been generated from an entry in the Cambridge 
# Structural Database, then it will include bibliographic, chemical, 
# crystal, experimental, refinement or atomic coordinate data resulting 
# from the CCDC's data processing and validation procedures.
#
#######################################################################

data_ZOGWUN01
_symmetry_cell_setting           monoclinic
_symmetry_space_group_name_H-M   'P 1 1 21/a'
_symmetry_Int_Tables_number      14
_space_group_name_Hall           '-P 2ac'
loop_
_symmetry_equiv_pos_site_id
_symmetry_equiv_pos_as_xyz
1 x,y,z
2 1/2-x,-y,1/2+z
3 -x,-y,-z
4 1/2+x,y,1/2-z
_cell_length_a                   11.078(1)
_cell_length_b                   15.193(1)
_cell_length_c                   12.488(2)
_cell_angle_alpha                90
_cell_angle_beta                 90
_cell_angle_gamma                98.84(1)
_cell_volume                     2076.86
loop_
_atom_site_label
_atom_site_type_symbol
_atom_site_fract_x
_atom_site_fract_y
_atom_site_fract_z
Ni1 Ni 0.1889(1) 0.2630(1) 0.1015(1)
O1 O 0.3050(2) 0.1905(2) 0.0284(2)
O2 O 0.3072(3) 0.0785(2) -0.0859(3)
O3 O 0.0756(2) 0.3400(2) 0.1742(2)
O4 O 0.0391(3) 0.4798(2) 0.1716(2)
O5 O 0.3300(2) 0.3478(2) 0.1779(2)
O6 O 0.4664(2) 0.4681(2) 0.1442(2)
O7 O -0.2680(3) 0.1465(3) 0.0041(3)
O8 O -0.1500(3) 0.0718(2) -0.0928(3)
O9 O 0.1573(3) 0.1701(2) 0.2185(2)
N1 N 0.0628(3) 0.1963(2) -0.0147(3)
N2 N 0.2127(3) 0.3648(2) -0.0098(2)
C1 C 0.1132(3) 0.1127(3) -0.0330(3)
C2 C 0.2533(3) 0.1286(3) -0.0313(3)
C3 C 0.1299(4) 0.4298(3) 0.0185(3)
C4 C 0.0793(3) 0.4138(3) 0.1305(3)
C5 C 0.3412(3) 0.4083(3) 0.0012(3)
C6 C 0.3804(3) 0.4070(2) 0.1178(3)
C7 C -0.0595(3) 0.1809(3) 0.0359(3)
C8 C -0.1623(4) 0.1274(3) -0.0269(4)
C9 C 0.0668(3) 0.2567(3) -0.1116(3)
C10 C 0.1881(3) 0.3217(2) -0.1169(3)
C11 C 0.1920(4) 0.3877(3) -0.2091(3)
C12 C 0.1665(5) 0.3401(3) -0.3157(3)
C13 C 0.0451(5) 0.2780(4) -0.3100(4)
C14 C 0.0469(5) 0.2091(3) -0.2207(4)
H1 H -0.328(5) 0.108(4) -0.032(5)
H2 H 0.001(5) 0.468(4) 0.263(5)
H3 H 0.121(4) 0.174(3) 0.267(4)
H4 H 0.201(5) 0.124(3) 0.233(4)
H13 H 0.077(3) 0.075(2) -0.098(3)
H14 H 0.087(3) 0.066(2) 0.030(3)
H15 H 0.172(3) 0.493(2) 0.009(3)
H16 H 0.067(4) 0.427(3) -0.024(4)
H17 H 0.358(3) 0.472(3) -0.024(3)
H18 H 0.393(4) 0.375(3) -0.041(4)
H19 H -0.086(3) 0.237(2) 0.057(3)
H20 H -0.055(4) 0.146(3) 0.100(3)
H21 H -0.001(3) 0.293(2) -0.097(3)
H22 H 0.250(3) 0.283(2) -0.127(2)
H23 H 0.270(3) 0.432(2) -0.214(3)
H24 H 0.134(3) 0.428(2) -0.198(3)
H25 H 0.162(4) 0.390(3) -0.372(4)
H26 H 0.232(4) 0.313(3) -0.331(4)
H27 H 0.027(5) 0.247(4) -0.370(4)
H28 H -0.023(4) 0.317(3) -0.299(4)
H29 H -0.029(4) 0.161(3) -0.220(4)
H30 H 0.107(4) 0.167(3) -0.239(4)
H2C H 0.501(5) 0.468(4) 0.237(5)
O6C O -0.0336(2) 0.4681(2) 0.3558(2)
O10 O 0.2197(4) 0.6366(3) -0.0847(3)
H5 H 0.207(5) 0.638(4) -0.148(5)
H6 H 0.295(5) 0.670(4) -0.087(5)
O11 O 0.0459(3) 0.0518(3) 0.5949(3)
H7 H 0.041(5) -0.009(4) 0.610(5)
H8 H -0.014(5) 0.062(4) 0.593(5)
O12 O 0.2936(4) 0.0368(2) 0.2535(3)
H9 H 0.265(5) 0.006(3) 0.306(5)
H10 H 0.284(5) 0.007(4) 0.213(5)
O13 O 0.0360(3) 0.2434(3) 0.3761(3)
H11 H -0.039(7) 0.201(5) 0.402(6)
H12 H 0.003(5) 0.301(5) 0.358(6)
loop_
_geom_bond_atom_site_label_1
_geom_bond_atom_site_label_2
_geom_bond_site_symmetry_1
_geom_bond_site_symmetry_2
Ni1 O1 1_555 1_555
O1 C2 1_555 1_555
O2 C2 1_555 1_555
O3 Ni1 1_555 1_555
O4 C4 1_555 1_555
O5 Ni1 1_555 1_555
O6 C6 1_555 1_555
O7 C8 1_555 1_555
O8 C8 1_555 1_555
O9 Ni1 1_555 1_555
O10 H5 1_555 1_555
O11 H7 1_555 1_555
O12 H9 1_555 1_555
O13 H11 1_555 1_555
N1 Ni1 1_555 1_555
N2 Ni1 1_555 1_555
C1 N1 1_555 1_555
C2 C1 1_555 1_555
C3 N2 1_555 1_555
C4 O3 1_555 1_555
C5 N2 1_555 1_555
C6 O5 1_555 1_555
C7 N1 1_555 1_555
C8 C7 1_555 1_555
C9 N1 1_555 1_555
C10 N2 1_555 1_555
C11 C10 1_555 1_555
C12 C11 1_555 1_555
C13 C12 1_555 1_555
C14 C9 1_555 1_555
H1 O7 1_555 1_555
H2 O4 1_555 1_555
H3 O9 1_555 1_555
H4 O9 1_555 1_555
H6 O10 1_555 1_555
H8 O11 1_555 1_555
H10 O12 1_555 1_555
H12 O13 1_555 1_555
H13 C1 1_555 1_555
H14 C1 1_555 1_555
H15 C3 1_555 1_555
H16 C3 1_555 1_555
H17 C5 1_555 1_555
H18 C5 1_555 1_555
H19 C7 1_555 1_555
H20 C7 1_555 1_555
H21 C9 1_555 1_555
H22 C10 1_555 1_555
H23 C11 1_555 1_555
H24 C11 1_555 1_555
H25 C12 1_555 1_555
H26 C12 1_555 1_555
H27 C13 1_555 1_555
H28 C13 1_555 1_555
H29 C14 1_555 1_555
H30 C14 1_555 1_555
H2C O6 1_555 1_555
O6C H2 1_555 1_555
C3 C4 1_555 1_555
C5 C6 1_555 1_555
C9 C10 1_555 1_555
C13 C14 1_555 1_555

#END
