
#######################################################################
#
#                 Cambridge Crystallographic Data Centre
#                                CCDC 
#
#######################################################################
#
# If this CIF has been generated from an entry in the Cambridge 
# Structural Database, then it will include bibliographic, chemical, 
# crystal, experimental, refinement or atomic coordinate data resulting 
# from the CCDC's data processing and validation procedures.
#
#######################################################################

data_ZOGYUR
_symmetry_cell_setting           triclinic
_symmetry_space_group_name_H-M   'P -1'
_symmetry_Int_Tables_number      2
_space_group_name_Hall           '-P 1'
loop_
_symmetry_equiv_pos_site_id
_symmetry_equiv_pos_as_xyz
1 x,y,z
2 -x,-y,-z
_cell_length_a                   10.192(4)
_cell_length_b                   12.0704(19)
_cell_length_c                   12.0780(15)
_cell_angle_alpha                91.254(12)
_cell_angle_beta                 98.01(3)
_cell_angle_gamma                106.54(3)
_cell_volume                     1407.51
loop_
_atom_site_label
_atom_site_type_symbol
_atom_site_fract_x
_atom_site_fract_y
_atom_site_fract_z
Co1 Co 0.40010(3) 0.11822(3) 0.05392(3)
O1 O 0.36249(17) 0.27101(16) 0.15393(16)
O2 O -0.32254(18) 0.03161(16) 0.05258(17)
O3 O 0.19425(18) 0.10269(16) 0.07186(17)
O4 O -0.38165(17) 0.19028(15) 0.07065(17)
N1 N 0.4598(2) 0.0508(2) 0.21431(19)
N2 N 0.4567(3) 0.4870(2) -0.39481(19)
N3 N 0.3827(2) 0.22655(18) -0.08160(18)
C1 C -0.0279(2) 0.1745(2) 0.1056(2)
H1 H -0.0446 0.0984 0.0779
C2 C 0.1161(2) 0.2496(2) 0.1397(2)
N4 N 0.8471(2) -0.0312(2) 0.4851(2)
C3 C -0.1349(2) 0.2180(2) 0.1154(2)
C4 C 0.2319(2) 0.2054(2) 0.1220(2)
C5 C -0.0967(3) 0.3352(2) 0.1578(2)
H2 H -0.1686 0.3666 0.1654
C6 C -0.2915(2) 0.1402(2) 0.0765(2)
C7 C 0.5404(3) -0.0835(3) 0.3258(3)
H3 H 0.5399 -0.1600 0.3343
C8 C 0.6231(3) 0.0043(3) 0.4127(2)
C9 C 0.0461(3) 0.4129(2) 0.1913(2)
C10 C 0.2611(3) 0.2744(3) -0.2547(3)
H4 H 0.1905 0.2543 -0.3158
C11 C 1.0647(3) 0.0615(3) 0.4166(3)
H5 H 1.1171 0.1323 0.3879
H6 H 1.0423 0.0003 0.3576
C12 C 0.4708(3) 0.4206(2) -0.1420(2)
H7 H 0.5336 0.4943 -0.1320
C13 C 0.1515(2) 0.3665(2) 0.1824(2)
H8 H 0.2434 0.4099 0.2035
C14 C 0.5014(3) 0.3987(2) -0.5598(3)
H9 H 0.4653 0.3399 -0.6211
H10 H 0.5818 0.3836 -0.5172
C15 C 0.5376(3) 0.1356(3) 0.3002(3)
H11 H 0.5354 0.2113 0.2907
C16 C 0.3605(3) 0.3888(2) -0.2392(2)
C17 C 0.4788(3) 0.3389(2) -0.0663(2)
H12 H 0.5480 0.3573 -0.0043
C18 C 0.3558(4) 0.4788(3) -0.3229(3)
H13 H 0.2645 0.4589 -0.3674
H14 H 0.3721 0.5534 -0.2833
C19 C 0.2754(3) 0.1965(2) -0.1748(2)
H15 H 0.2132 0.1226 -0.1825
C20 C 0.7216(3) -0.0176(3) 0.5149(3)
H16 H 0.7438 0.0469 0.5704
H17 H 0.6740 -0.0869 0.5488
C21 C 0.9362(3) 0.0771(3) 0.4459(3)
H18 H 0.8855 0.1003 0.3809
H19 H 0.9585 0.1386 0.5045
C22 C 0.6184(3) 0.1162(3) 0.3994(3)
H20 H 0.6659 0.1760 0.4527
C23 C 0.0805(3) 0.5415(2) 0.2364(3)
C24 C 0.4608(3) -0.0580(2) 0.2289(2)
H21 H 0.4095 -0.1170 0.1760
C25 C 0.3961(3) 0.3910(2) -0.4876(2)
H22 H 0.3730 0.3159 -0.4559
H23 H 0.3126 0.4010 -0.5300
C26 C -0.0184(4) 0.5934(3) 0.1603(4)
H24 H -0.0030 0.5872 0.0841
H25 H -0.0013 0.6734 0.1836
H26 H -0.1125 0.5518 0.1658
C27 C 0.2362(3) 0.6198(3) 0.2430(4)
H27 H 0.2596 0.6284 0.1687
H28 H 0.2969 0.5836 0.2864
H29 H 0.2463 0.6946 0.2777
C28 C 0.0545(4) 0.5430(4) 0.3573(4)
H30 H 0.0697 0.6215 0.3850
H31 H 0.1168 0.5094 0.4022
H32 H -0.0393 0.4991 0.3610
N1A N 1.5402(2) -0.0508(2) 0.78569(19)
N4A N 1.1529(2) 0.0312(2) 0.5149(2)
C7A C 1.4596(3) 0.0835(3) 0.6742(3)
H3A H 1.4601 0.1600 0.6657
C8A C 1.3769(3) -0.0043(3) 0.5873(2)
C11A C 0.9353(3) -0.0615(3) 0.5834(3)
H5A H 0.8829 -0.1323 0.6121
H6A H 0.9577 -0.0003 0.6424
C15A C 1.4624(3) -0.1356(3) 0.6998(3)
H11A H 1.4646 -0.2113 0.7093
C20A C 1.2784(3) 0.0176(3) 0.4851(3)
H16A H 1.2562 -0.0469 0.4296
H17A H 1.3260 0.0869 0.4512
C21A C 1.0638(3) -0.0771(3) 0.5541(3)
H18A H 1.1145 -0.1003 0.6191
H19A H 1.0415 -0.1386 0.4955
C22A C 1.3816(3) -0.1162(3) 0.6006(3)
H20A H 1.3341 -0.1760 0.5473
C24A C 1.5392(3) 0.0580(2) 0.7711(2)
H21A H 1.5905 0.1170 0.8240
N2A N 0.5433(3) 0.5130(2) -0.60519(19)
N3A N 0.6173(2) 0.77345(18) -0.91840(18)
C10A C 0.7389(3) 0.7256(3) -0.7453(3)
H4A H 0.8095 0.7457 -0.6842
C12A C 0.5292(3) 0.5794(2) -0.8580(2)
H7A H 0.4664 0.5057 -0.8680
C14A C 0.4986(3) 0.6013(2) -0.4402(3)
H9A H 0.5347 0.6601 -0.3789
H10A H 0.4182 0.6164 -0.4828
C16A C 0.6395(3) 0.6112(2) -0.7608(2)
C17A C 0.5212(3) 0.6611(2) -0.9337(2)
H12A H 0.4520 0.6427 -0.9957
C18A C 0.6442(4) 0.5212(3) -0.6771(3)
H13A H 0.7355 0.5411 -0.6326
H14A H 0.6279 0.4466 -0.7167
C19A C 0.7246(3) 0.8035(2) -0.8252(2)
H15A H 0.7868 0.8774 -0.8175
C25A C 0.6039(3) 0.6090(2) -0.5124(2)
H22A H 0.6270 0.6841 -0.5441
H23A H 0.6874 0.5990 -0.4700
Co1A Co -0.40010(3) -0.11822(3) -0.05392(3)
O1A O -0.36249(17) -0.27101(16) -0.15393(16)
O2A O 0.32254(18) -0.03161(16) -0.05258(17)
O3A O -0.19425(18) -0.10269(16) -0.07186(17)
O4A O 0.38165(17) -0.19028(15) -0.07065(17)
C1A C 0.0279(2) -0.1745(2) -0.1056(2)
H1A H 0.0446 -0.0984 -0.0779
C2A C -0.1161(2) -0.2496(2) -0.1397(2)
C3A C 0.1349(2) -0.2180(2) -0.1154(2)
C4A C -0.2319(2) -0.2054(2) -0.1220(2)
C5A C 0.0967(3) -0.3352(2) -0.1578(2)
H2A H 0.1686 -0.3666 -0.1654
C6A C 0.2915(2) -0.1402(2) -0.0765(2)
C9A C -0.0461(3) -0.4129(2) -0.1913(2)
C13A C -0.1515(2) -0.3665(2) -0.1824(2)
H8A H -0.2434 -0.4099 -0.2035
C23A C -0.0805(3) -0.5415(2) -0.2364(3)
C26A C 0.0184(4) -0.5934(3) -0.1603(4)
H24A H 0.0030 -0.5872 -0.0841
H25A H 0.0013 -0.6734 -0.1836
H26A H 0.1125 -0.5518 -0.1658
C27A C -0.2362(3) -0.6198(3) -0.2430(4)
H27A H -0.2596 -0.6284 -0.1687
H28A H -0.2969 -0.5836 -0.2864
H29A H -0.2463 -0.6946 -0.2777
C28A C -0.0545(4) -0.5430(4) -0.3573(4)
H30A H -0.0697 -0.6215 -0.3850
H31A H -0.1168 -0.5094 -0.4022
H32A H 0.0393 -0.4991 -0.3610
Co1_2 Co -0.59990(3) 0.11822(3) 0.05392(3)
Co1A_2 Co 0.59990(3) -0.11822(3) -0.05392(3)
Co1A_3 Co 0.59990(3) 0.88178(3) -1.05392(3)
Co1A_4 Co 1.59990(3) -0.11822(3) 0.94608(3)
O4_2 O 0.61835(17) 0.19028(15) 0.07065(17)
O4A_2 O -0.61835(17) -0.19028(15) -0.07065(17)
N1A_2 N -0.4598(2) -0.0508(2) -0.21431(19)
N3A_2 N -0.3827(2) -0.22655(18) 0.08160(18)
O5 O 0.0784(6) -0.1032(5) 0.1752(5)
loop_
_geom_bond_atom_site_label_1
_geom_bond_atom_site_label_2
_geom_bond_site_symmetry_1
_geom_bond_site_symmetry_2
Co1 O1 1_555 1_555
O1 C4 1_555 1_555
O2 C6 1_555 1_555
O3 Co1 1_555 1_555
O4 C6 1_555 1_555
N1 Co1 1_555 1_555
N2 C18 1_555 1_555
N3 Co1 1_555 1_555
C1 H1 1_555 1_555
C2 C1 1_555 1_555
N4 C20 1_555 1_555
C3 C1 1_555 1_555
C4 O3 1_555 1_555
C5 C3 1_555 1_555
H2 C5 1_555 1_555
C6 C3 1_555 1_555
C7 H3 1_555 1_555
C8 C7 1_555 1_555
C9 C5 1_555 1_555
C10 H4 1_555 1_555
C11 H5 1_555 1_555
H6 C11 1_555 1_555
C12 H7 1_555 1_555
C13 C2 1_555 1_555
H8 C13 1_555 1_555
C14 H9 1_555 1_555
H10 C14 1_555 1_555
C15 N1 1_555 1_555
H11 C15 1_555 1_555
C16 C10 1_555 1_555
C17 N3 1_555 1_555
H12 C17 1_555 1_555
C18 C16 1_555 1_555
H13 C18 1_555 1_555
H14 C18 1_555 1_555
C19 N3 1_555 1_555
H15 C19 1_555 1_555
C20 C8 1_555 1_555
H16 C20 1_555 1_555
H17 C20 1_555 1_555
C21 N4 1_555 1_555
H18 C21 1_555 1_555
H19 C21 1_555 1_555
C22 C8 1_555 1_555
H20 C22 1_555 1_555
C23 C9 1_555 1_555
C24 N1 1_555 1_555
H21 C24 1_555 1_555
C25 N2 1_555 1_555
H22 C25 1_555 1_555
H23 C25 1_555 1_555
C26 C23 1_555 1_555
H24 C26 1_555 1_555
H25 C26 1_555 1_555
H26 C26 1_555 1_555
C27 C23 1_555 1_555
H27 C27 1_555 1_555
H28 C27 1_555 1_555
H29 C27 1_555 1_555
C28 C23 1_555 1_555
H30 C28 1_555 1_555
H31 C28 1_555 1_555
H32 C28 1_555 1_555
N1A C15A 1_555 1_555
N4A C11 1_555 1_555
C7A H3A 1_555 1_555
C8A C7A 1_555 1_555
C11A N4 1_555 1_555
H5A C11A 1_555 1_555
H6A C11A 1_555 1_555
C15A H11A 1_555 1_555
C20A N4A 1_555 1_555
H16A C20A 1_555 1_555
H17A C20A 1_555 1_555
C21A N4A 1_555 1_555
H18A C21A 1_555 1_555
H19A C21A 1_555 1_555
C22A C8A 1_555 1_555
H20A C22A 1_555 1_555
C24A N1A 1_555 1_555
H21A C24A 1_555 1_555
N2A C14 1_555 1_555
N3A C17A 1_555 1_555
C10A H4A 1_555 1_555
C12A H7A 1_555 1_555
C14A N2 1_555 1_555
H9A C14A 1_555 1_555
H10A C14A 1_555 1_555
C16A C10A 1_555 1_555
C17A C12A 1_555 1_555
H12A C17A 1_555 1_555
C18A N2A 1_555 1_555
H13A C18A 1_555 1_555
H14A C18A 1_555 1_555
C19A N3A 1_555 1_555
H15A C19A 1_555 1_555
C25A N2A 1_555 1_555
H22A C25A 1_555 1_555
H23A C25A 1_555 1_555
Co1A O2 1_555 1_555
O1A Co1A 1_555 1_555
O2A Co1 1_555 1_555
O3A Co1A 1_555 1_555
O4A C6A 1_555 1_555
C1A H1A 1_555 1_555
C2A C1A 1_555 1_555
C3A C1A 1_555 1_555
C4A O1A 1_555 1_555
C5A C3A 1_555 1_555
H2A C5A 1_555 1_555
C6A O2A 1_555 1_555
C9A C5A 1_555 1_555
C13A C2A 1_555 1_555
H8A C13A 1_555 1_555
C23A C9A 1_555 1_555
C26A C23A 1_555 1_555
H24A C26A 1_555 1_555
H25A C26A 1_555 1_555
H26A C26A 1_555 1_555
C27A C23A 1_555 1_555
H27A C27A 1_555 1_555
H28A C27A 1_555 1_555
H29A C27A 1_555 1_555
C28A C23A 1_555 1_555
H30A C28A 1_555 1_555
H31A C28A 1_555 1_555
H32A C28A 1_555 1_555
Co1_2 O4 1_555 1_555
Co1A_2 O4A 1_555 1_555
Co1A_3 N3A 1_555 1_555
Co1A_4 N1A 1_555 1_555
O4_2 Co1 1_555 1_555
O4A_2 Co1A 1_555 1_555
N1A_2 Co1A 1_555 1_555
N3A_2 Co1A 1_555 1_555
C2 C4 1_555 1_555
C7 C24 1_555 1_555
C9 C13 1_555 1_555
C10 C19 1_555 1_555
C11 C21 1_555 1_555
C12 C16 1_555 1_555
C12 C17 1_555 1_555
C14 C25 1_555 1_555
C15 C22 1_555 1_555
C7A C24A 1_555 1_555
C8A C20A 1_555 1_555
C11A C21A 1_555 1_555
C15A C22A 1_555 1_555
C10A C19A 1_555 1_555
C12A C16A 1_555 1_555
C14A C25A 1_555 1_555
C16A C18A 1_555 1_555
O3A C4A 1_555 1_555
C2A C4A 1_555 1_555
C3A C6A 1_555 1_555
C9A C13A 1_555 1_555

#END
