
#######################################################################
#
#                 Cambridge Crystallographic Data Centre
#                                CCDC 
#
#######################################################################
#
# If this CIF has been generated from an entry in the Cambridge 
# Structural Database, then it will include bibliographic, chemical, 
# crystal, experimental, refinement or atomic coordinate data resulting 
# from the CCDC's data processing and validation procedures.
#
#######################################################################

data_ZOGZIG
_symmetry_cell_setting           monoclinic
_symmetry_space_group_name_H-M   'P 21/c'
_symmetry_Int_Tables_number      14
_space_group_name_Hall           '-P 2ybc'
loop_
_symmetry_equiv_pos_site_id
_symmetry_equiv_pos_as_xyz
1 x,y,z
2 -x,1/2+y,1/2-z
3 -x,-y,-z
4 x,1/2-y,1/2+z
_cell_length_a                   11.0054(3)
_cell_length_b                   17.5194(5)
_cell_length_c                   19.5049(5)
_cell_angle_alpha                90
_cell_angle_beta                 105.175(3)
_cell_angle_gamma                90
_cell_volume                     3629.57
loop_
_atom_site_label
_atom_site_type_symbol
_atom_site_fract_x
_atom_site_fract_y
_atom_site_fract_z
Ni1 Ni 0.81208(2) 0.220384(16) 0.113449(14)
O1 O 1.10993(16) 0.28231(11) 0.18897(9)
O2 O 0.87263(15) 0.30550(10) 0.19098(8)
O3 O 1.63132(14) 0.21026(10) 0.12146(9)
N1 N 0.77631(17) 0.13014(11) 0.03625(9)
O4 O 0.98312(14) 0.23162(9) 0.09125(8)
N2 N 0.6455(2) -0.01950(12) -0.19039(11)
O5 O 1.57627(18) 0.27204(14) 0.20826(11)
N3 N 0.9643(2) -0.00807(11) 0.42409(11)
N4 N 0.4531(2) -0.02670(12) -0.32196(11)
C1 C 1.41831(19) 0.24362(12) 0.10327(12)
N5 N 0.87452(17) 0.13734(11) 0.19216(10)
C2 C 1.3927(2) 0.22862(13) 0.03063(12)
H1 H 1.4594 0.2212 0.0103
C3 C 1.2695(2) 0.22441(13) -0.01220(12)
C4 C 0.3237(2) -0.14350(15) -0.41880(13)
H2 H 0.3331 -0.1516 -0.3706
C5 C 1.32004(19) 0.25551(12) 0.13434(12)
H3 H 1.3368 0.2681 0.1822
C6 C 1.1730(2) 0.23342(13) 0.02115(12)
H4 H 1.0900 0.2293 -0.0059
C7 C 0.9754(3) -0.07403(14) 0.47143(14)
H5 H 1.0595 -0.0952 0.4805
H6 H 0.9160 -0.1131 0.4487
N6 N 0.26496(17) -0.19419(11) -0.53703(10)
C8 C 1.19615(19) 0.24844(12) 0.09344(11)
C9 C 0.3556(2) -0.07353(15) -0.44230(13)
C10 C 0.7295(2) 0.01133(13) -0.06338(12)
C11 C 0.8358(2) 0.05556(16) -0.05251(14)
H7 H 0.8941 0.0465 -0.0785
C12 C 0.7017(3) -0.05042(15) -0.11899(13)
H8 H 0.7792 -0.0769 -0.1189
H9 H 0.6444 -0.0872 -0.1073
C13 C 0.5816(3) -0.05129(17) -0.31662(14)
H10 H 0.6302 -0.0088 -0.3272
H11 H 0.5812 -0.0913 -0.3510
C14 C 1.5531(2) 0.24327(14) 0.14847(13)
C15 C 0.3880(3) -0.00520(16) -0.39418(14)
H12 H 0.4409 0.0291 -0.4127
H13 H 0.3113 0.0219 -0.3938
C16 C 1.0504(3) 0.05127(14) 0.45944(14)
H14 H 1.0416 0.0955 0.4287
H15 H 1.1363 0.0330 0.4683
C17 C 0.2782(2) -0.20094(15) -0.46680(13)
H16 H 0.2553 -0.2469 -0.4497
C18 C 0.6413(3) -0.08052(16) -0.24277(14)
H17 H 0.5931 -0.1233 -0.2324
H18 H 0.7260 -0.0982 -0.2399
C19 C 0.9512(2) 0.02837(14) 0.29986(12)
C20 C 1.2404(3) 0.21055(17) -0.09263(13)
C21 C 0.8545(3) 0.07882(17) 0.29871(15)
H19 H 0.8129 0.0771 0.3345
C22 C 0.3037(2) -0.12829(15) -0.55900(13)
H20 H 0.3007 -0.1232 -0.6069
C23 C 0.3478(2) -0.06773(15) -0.51440(13)
H21 H 0.3724 -0.0229 -0.5325
C24 C 0.8558(2) 0.11327(16) -0.00298(14)
H22 H 0.9288 0.1422 0.0036
C25 C 0.8190(3) 0.13166(16) 0.24493(13)
H23 H 0.7533 0.1649 0.2455
C26 C 1.08905(19) 0.25504(13) 0.12832(11)
C27 C 0.9680(2) 0.08841(16) 0.19287(14)
H24 H 1.0077 0.0911 0.1563
C28 C 1.0084(3) 0.03426(16) 0.24479(14)
H25 H 1.0741 0.0016 0.2429
C29 C 0.4556(3) 0.03516(17) -0.27130(15)
H26 H 0.3703 0.0520 -0.2744
H27 H 0.5023 0.0781 -0.2827
C30 C 0.6500(3) 0.02717(18) -0.02164(17)
H28 H 0.5779 -0.0022 -0.0261
C31 C 0.5167(3) 0.00784(17) -0.19703(15)
H29 H 0.5188 0.0493 -0.1638
H30 H 0.4669 -0.0332 -0.1849
C32 C 0.9895(3) -0.03111(16) 0.35700(14)
H31 H 0.9443 -0.0780 0.3408
H32 H 1.0787 -0.0414 0.3651
C33 C 0.6753(3) 0.08611(17) 0.02696(15)
H33 H 0.6192 0.0953 0.0543
C34 C 1.1447(8) 0.1503(5) -0.1156(3)
H34 H 1.0642 0.1692 -0.1128
H35 H 1.1673 0.1066 -0.0853
H36 H 1.1403 0.1361 -0.1637
C35 C 1.3535(6) 0.1882(6) -0.1161(2)
H37 H 1.3308 0.1819 -0.1667
H38 H 1.3862 0.1409 -0.0938
H39 H 1.4165 0.2272 -0.1028
C36 C 1.1912(10) 0.2803(3) -0.1309(2)
H40 H 1.2519 0.3206 -0.1171
H41 H 1.1144 0.2947 -0.1196
H42 H 1.1748 0.2716 -0.1811
N3B N 1.0357(2) 0.00807(11) 0.57591(11)
N5B N 1.12548(17) -0.13734(11) 0.80784(10)
C7B C 1.0246(3) 0.07403(14) 0.52857(14)
H5B H 0.9405 0.0952 0.5195
H6B H 1.0840 0.1131 0.5513
C16B C 0.9496(3) -0.05127(14) 0.54056(14)
H14B H 0.9584 -0.0955 0.5713
H15B H 0.8637 -0.0330 0.5317
C19B C 1.0488(2) -0.02837(14) 0.70014(12)
C21B C 1.1455(3) -0.07882(17) 0.70129(15)
H19B H 1.1871 -0.0771 0.6655
C25B C 1.1810(3) -0.13166(16) 0.75507(13)
H23B H 1.2467 -0.1649 0.7545
C27B C 1.0320(2) -0.08841(16) 0.80713(14)
H24B H 0.9923 -0.0911 0.8437
C28B C 0.9916(3) -0.03426(16) 0.75521(14)
H25B H 0.9259 -0.0016 0.7571
C32B C 1.0105(3) 0.03111(16) 0.64300(14)
H31B H 1.0557 0.0780 0.6592
H32B H 0.9213 0.0414 0.6349
Ni1B Ni 1.18792(2) -0.220384(16) 0.886551(14)
O1B O 0.89007(16) -0.28231(11) 0.81103(9)
O2B O 1.12737(15) -0.30550(10) 0.80902(8)
O3B O 0.36868(14) -0.21026(10) 0.87854(9)
N1B N 1.22369(17) -0.13014(11) 0.96375(9)
O4B O 1.01688(14) -0.23162(9) 0.90875(8)
N2B N 1.3545(2) 0.01950(12) 1.19039(11)
O5B O 0.42373(18) -0.27204(14) 0.79174(11)
N4B N 1.5469(2) 0.02670(12) 1.32196(11)
C1B C 0.58169(19) -0.24362(12) 0.89673(12)
C2B C 0.6073(2) -0.22862(13) 0.96937(12)
H1B H 0.5406 -0.2212 0.9897
C3B C 0.7305(2) -0.22441(13) 1.01220(12)
C4B C 1.6763(2) 0.14350(15) 1.41880(13)
H2B H 1.6669 0.1516 1.3706
C5B C 0.67996(19) -0.25551(12) 0.86566(12)
H3B H 0.6632 -0.2681 0.8178
C6B C 0.8270(2) -0.23342(13) 0.97885(12)
H4B H 0.9100 -0.2293 1.0059
N6B N 1.73504(17) 0.19419(11) 1.53703(10)
C8B C 0.80385(19) -0.24844(12) 0.90656(11)
C9B C 1.6444(2) 0.07353(15) 1.44230(13)
C10B C 1.2705(2) -0.01133(13) 1.06338(12)
C11B C 1.1642(2) -0.05556(16) 1.05251(14)
H7B H 1.1059 -0.0465 1.0785
C12B C 1.2983(3) 0.05042(15) 1.11899(13)
H8B H 1.2208 0.0769 1.1189
H9B H 1.3556 0.0872 1.1073
C13B C 1.4184(3) 0.05129(17) 1.31662(14)
H10B H 1.3698 0.0088 1.3272
H11B H 1.4188 0.0913 1.3510
C14B C 0.4469(2) -0.24327(14) 0.85153(13)
C15B C 1.6120(3) 0.00520(16) 1.39418(14)
H12B H 1.5591 -0.0291 1.4127
H13B H 1.6887 -0.0219 1.3938
C17B C 1.7218(2) 0.20094(15) 1.46680(13)
H16B H 1.7447 0.2469 1.4497
C18B C 1.3587(3) 0.08052(16) 1.24277(14)
H17B H 1.4069 0.1233 1.2324
H18B H 1.2740 0.0982 1.2399
C20B C 0.7596(3) -0.21055(17) 1.09263(13)
C22B C 1.6963(2) 0.12829(15) 1.55900(13)
H20B H 1.6993 0.1232 1.6069
C23B C 1.6522(2) 0.06773(15) 1.51440(13)
H21B H 1.6276 0.0229 1.5325
C24B C 1.1442(2) -0.11327(16) 1.00298(14)
H22B H 1.0712 -0.1422 0.9964
C26B C 0.91095(19) -0.25504(13) 0.87168(11)
C29B C 1.5444(3) -0.03516(17) 1.27130(15)
H26B H 1.6297 -0.0520 1.2744
H27B H 1.4977 -0.0781 1.2827
C30B C 1.3500(3) -0.02717(18) 1.02164(17)
H28B H 1.4221 0.0022 1.0261
C31B C 1.4833(3) -0.00784(17) 1.19703(15)
H29B H 1.4812 -0.0493 1.1638
H30B H 1.5331 0.0332 1.1849
C33B C 1.3247(3) -0.08611(17) 0.97304(15)
H33B H 1.3808 -0.0953 0.9457
C34B C 0.8553(8) -0.1503(5) 1.1156(3)
H34B H 0.9358 -0.1692 1.1128
H35B H 0.8327 -0.1066 1.0853
H36B H 0.8597 -0.1361 1.1637
C35B C 0.6465(6) -0.1882(6) 1.1161(2)
H37B H 0.6692 -0.1819 1.1667
H38B H 0.6138 -0.1409 1.0938
H39B H 0.5835 -0.2272 1.1028
C36B C 0.8088(10) -0.2803(3) 1.1309(2)
H40B H 0.7481 -0.3206 1.1171
H41B H 0.8856 -0.2947 1.1196
H42B H 0.8252 -0.2716 1.1811
Ni1_2 Ni 1.81208(2) 0.220384(16) 0.113449(14)
Ni1A Ni 0.18792(2) -0.279616(16) -0.613449(14)
Ni1B_2 Ni 0.18792(2) -0.220384(16) 0.886551(14)
Ni1C Ni 1.81208(2) 0.279616(16) 1.613449(14)
O3_2 O 0.63132(14) 0.21026(10) 0.12146(9)
O3B_2 O 1.36868(14) -0.21026(10) 0.87854(9)
N6A N 0.73504(17) 0.30581(11) 0.03703(10)
N6C N 1.26496(17) -0.30581(11) 0.96297(10)
O6 O 1.7594(2) 0.3507(3) 0.29632(17)
loop_
_geom_bond_atom_site_label_1
_geom_bond_atom_site_label_2
_geom_bond_site_symmetry_1
_geom_bond_site_symmetry_2
Ni1 O2 1_555 1_555
O1 C26 1_555 1_555
O3 C14 1_555 1_555
N1 Ni1 1_555 1_555
O4 Ni1 1_555 1_555
N2 C12 1_555 1_555
O5 C14 1_555 1_555
N3 C7 1_555 1_555
N4 C13 1_555 1_555
C1 C2 1_555 1_555
N5 Ni1 1_555 1_555
C2 H1 1_555 1_555
C3 C2 1_555 1_555
C4 H2 1_555 1_555
C5 C1 1_555 1_555
H3 C5 1_555 1_555
C6 C3 1_555 1_555
H4 C6 1_555 1_555
C7 H5 1_555 1_555
H6 C7 1_555 1_555
N6 C17 1_555 1_555
C8 C5 1_555 1_555
C9 C4 1_555 1_555
C10 C11 1_555 1_555
C11 H7 1_555 1_555
C12 C10 1_555 1_555
H8 C12 1_555 1_555
H9 C12 1_555 1_555
C13 H10 1_555 1_555
H11 C13 1_555 1_555
C14 C1 1_555 1_555
C15 N4 1_555 1_555
H12 C15 1_555 1_555
H13 C15 1_555 1_555
C16 N3 1_555 1_555
H14 C16 1_555 1_555
H15 C16 1_555 1_555
C17 C4 1_555 1_555
H16 C17 1_555 1_555
C18 N2 1_555 1_555
H17 C18 1_555 1_555
H18 C18 1_555 1_555
C19 C21 1_555 1_555
C20 C3 1_555 1_555
C21 H19 1_555 1_555
C22 N6 1_555 1_555
H20 C22 1_555 1_555
C23 C9 1_555 1_555
H21 C23 1_555 1_555
C24 N1 1_555 1_555
H22 C24 1_555 1_555
C25 N5 1_555 1_555
H23 C25 1_555 1_555
C26 O4 1_555 1_555
C27 N5 1_555 1_555
H24 C27 1_555 1_555
C28 C19 1_555 1_555
H25 C28 1_555 1_555
C29 N4 1_555 1_555
H26 C29 1_555 1_555
H27 C29 1_555 1_555
C30 C10 1_555 1_555
H28 C30 1_555 1_555
C31 N2 1_555 1_555
H29 C31 1_555 1_555
H30 C31 1_555 1_555
C32 N3 1_555 1_555
H31 C32 1_555 1_555
H32 C32 1_555 1_555
C33 N1 1_555 1_555
H33 C33 1_555 1_555
C34 C20 1_555 1_555
H34 C34 1_555 1_555
H35 C34 1_555 1_555
H36 C34 1_555 1_555
C35 C20 1_555 1_555
H37 C35 1_555 1_555
H38 C35 1_555 1_555
H39 C35 1_555 1_555
C36 C20 1_555 1_555
H40 C36 1_555 1_555
H41 C36 1_555 1_555
H42 C36 1_555 1_555
N3B C7B 1_555 1_555
N5B C25B 1_555 1_555
C7B C16 1_555 1_555
H5B C7B 1_555 1_555
H6B C7B 1_555 1_555
C16B C7 1_555 1_555
H14B C16B 1_555 1_555
H15B C16B 1_555 1_555
C19B C21B 1_555 1_555
C21B H19B 1_555 1_555
C25B C21B 1_555 1_555
H23B C25B 1_555 1_555
C27B N5B 1_555 1_555
H24B C27B 1_555 1_555
C28B C19B 1_555 1_555
H25B C28B 1_555 1_555
C32B N3B 1_555 1_555
H31B C32B 1_555 1_555
H32B C32B 1_555 1_555
Ni1B N5B 1_555 1_555
O1B C26B 1_555 1_555
O2B Ni1B 1_555 1_555
O3B C14B 1_555 1_555
N1B Ni1B 1_555 1_555
O4B Ni1B 1_555 1_555
N2B C12B 1_555 1_555
O5B C14B 1_555 1_555
N4B C13B 1_555 1_555
C1B C2B 1_555 1_555
C2B H1B 1_555 1_555
C3B C2B 1_555 1_555
C4B H2B 1_555 1_555
C5B C1B 1_555 1_555
H3B C5B 1_555 1_555
C6B C3B 1_555 1_555
H4B C6B 1_555 1_555
N6B C17B 1_555 1_555
C8B C5B 1_555 1_555
C9B C4B 1_555 1_555
C10B C11B 1_555 1_555
C11B H7B 1_555 1_555
C12B C10B 1_555 1_555
H8B C12B 1_555 1_555
H9B C12B 1_555 1_555
C13B H10B 1_555 1_555
H11B C13B 1_555 1_555
C14B C1B 1_555 1_555
C15B N4B 1_555 1_555
H12B C15B 1_555 1_555
H13B C15B 1_555 1_555
C17B C4B 1_555 1_555
H16B C17B 1_555 1_555
C18B N2B 1_555 1_555
H17B C18B 1_555 1_555
H18B C18B 1_555 1_555
C20B C3B 1_555 1_555
C22B N6B 1_555 1_555
H20B C22B 1_555 1_555
C23B C9B 1_555 1_555
H21B C23B 1_555 1_555
C24B N1B 1_555 1_555
H22B C24B 1_555 1_555
C26B O4B 1_555 1_555
C29B N4B 1_555 1_555
H26B C29B 1_555 1_555
H27B C29B 1_555 1_555
C30B C10B 1_555 1_555
H28B C30B 1_555 1_555
C31B N2B 1_555 1_555
H29B C31B 1_555 1_555
H30B C31B 1_555 1_555
C33B N1B 1_555 1_555
H33B C33B 1_555 1_555
C34B C20B 1_555 1_555
H34B C34B 1_555 1_555
H35B C34B 1_555 1_555
H36B C34B 1_555 1_555
C35B C20B 1_555 1_555
H37B C35B 1_555 1_555
H38B C35B 1_555 1_555
H39B C35B 1_555 1_555
C36B C20B 1_555 1_555
H40B C36B 1_555 1_555
H41B C36B 1_555 1_555
H42B C36B 1_555 1_555
Ni1_2 O3 1_555 1_555
Ni1A N6 1_555 1_555
Ni1B_2 O3B 1_555 1_555
Ni1C N6B 1_555 1_555
O3_2 Ni1 1_555 1_555
O3B_2 Ni1B 1_555 1_555
N6A Ni1 1_555 1_555
N6C Ni1B 1_555 1_555
C6 C8 1_555 1_555
C8 C26 1_555 1_555
C9 C15 1_555 1_555
C11 C24 1_555 1_555
C13 C18 1_555 1_555
C19 C32 1_555 1_555
C21 C25 1_555 1_555
C22 C23 1_555 1_555
C27 C28 1_555 1_555
C29 C31 1_555 1_555
C30 C33 1_555 1_555
N3B C16B 1_555 1_555
C19B C32B 1_555 1_555
C27B C28B 1_555 1_555
C6B C8B 1_555 1_555
C8B C26B 1_555 1_555
C9B C15B 1_555 1_555
C11B C24B 1_555 1_555
C13B C18B 1_555 1_555
C22B C23B 1_555 1_555
C29B C31B 1_555 1_555
C30B C33B 1_555 1_555

#END
