
#######################################################################
#
#                 Cambridge Crystallographic Data Centre
#                                CCDC 
#
#######################################################################
#
# If this CIF has been generated from an entry in the Cambridge 
# Structural Database, then it will include bibliographic, chemical, 
# crystal, experimental, refinement or atomic coordinate data resulting 
# from the CCDC's data processing and validation procedures.
#
#######################################################################

data_ZOGZOM
_symmetry_cell_setting           monoclinic
_symmetry_space_group_name_H-M   'P 21/c'
_symmetry_Int_Tables_number      14
_space_group_name_Hall           '-P 2ybc'
loop_
_symmetry_equiv_pos_site_id
_symmetry_equiv_pos_as_xyz
1 x,y,z
2 -x,1/2+y,1/2-z
3 -x,-y,-z
4 x,1/2-y,1/2+z
_cell_length_a                   17.0669(10)
_cell_length_b                   10.2827(7)
_cell_length_c                   21.854(2)
_cell_angle_alpha                90
_cell_angle_beta                 95.664(5)
_cell_angle_gamma                90
_cell_volume                     3816.52
loop_
_atom_site_label
_atom_site_type_symbol
_atom_site_fract_x
_atom_site_fract_y
_atom_site_fract_z
Cd1 Cd 0.772210(18) 0.01364(3) 0.130860(13)
O1 O 0.7205(2) -0.8356(3) 0.05809(15)
N1 N 1.6437(2) -0.0032(3) 0.16771(19)
N2 N 1.2034(2) -0.0016(3) 0.1122(2)
N3 N 0.8143(2) 0.0215(3) 0.23627(17)
O2 O 0.7745(2) -0.7371(3) 0.14045(15)
N4 N 0.9285(2) -0.0147(3) 0.45939(16)
O3 O 0.7286(2) -0.1416(3) 0.06261(16)
O4 O 0.7863(2) -0.2454(3) 0.14227(16)
N5 N 0.9037(2) 0.0221(3) 0.10607(19)
C1 C 0.9912(2) 0.0744(4) 0.44535(18)
H1 H 0.9808 0.1619 0.4616
H2 H 0.9917 0.0816 0.4002
C2 C 0.7176(2) -0.3706(3) 0.06165(18)
C3 C 0.8524(3) 0.0335(5) 0.4336(2)
H3 H 0.8455 0.1235 0.4482
H4 H 0.8105 -0.0207 0.4489
C4 C 0.6409(3) -0.4825(3) -0.0230(2)
C5 C 1.3415(3) -0.0677(5) 0.1310(2)
H5 H 1.3262 -0.1577 0.1406
H6 H 1.3918 -0.0713 0.1121
C6 C 0.7133(2) -0.6048(3) 0.06017(18)
N6 N 1.3521(2) 0.0087(3) 0.18782(19)
C7 C 0.8111(3) 0.1364(4) 0.3306(2)
H7 H 0.7984 0.2143 0.3509
C8 C 1.2140(3) 0.0752(5) 0.1694(2)
H8 H 1.1636 0.0790 0.1882
H9 H 1.2294 0.1652 0.1598
C9 C 0.6696(2) -0.3683(3) 0.00667(18)
H10 H 0.6557 -0.2867 -0.0116
C10 C 1.1451(3) 0.0594(6) 0.0678(2)
H11 H 1.1489 0.0197 0.0269
H12 H 1.1579 0.1529 0.0646
C11 C 0.9551(3) -0.0720(5) 0.1199(3)
H13 H 0.9368 -0.1494 0.1375
C12 C 0.6659(2) -0.5996(4) 0.00489(19)
H14 H 0.6497 -0.6789 -0.0148
C13 C 1.4943(3) -0.0351(5) 0.2075(2)
C14 C 1.2769(3) 0.0147(5) 0.2145(2)
H15 H 1.2831 0.0671 0.2527
H16 H 1.2606 -0.0741 0.2252
C15 C 0.5901(3) -0.4746(5) -0.0842(2)
C16 C 0.7976(3) 0.1271(4) 0.2679(2)
H17 H 0.7751 0.1998 0.2458
C17 C 1.0709(3) 0.0267(5) 0.47350(19)
H18 H 1.0825 -0.0588 0.4557
H19 H 1.1123 0.0886 0.4637
C18 C 0.8482(3) -0.0774(4) 0.2682(2)
H20 H 0.8622 -0.1527 0.2466
C19 C 0.8430(3) 0.0323(5) 0.3643(2)
C20 C 0.9309(3) 0.1298(5) 0.0818(2)
H21 H 0.8950 0.1987 0.0713
C21 C 1.2791(3) -0.0082(5) 0.0865(3)
H22 H 1.2956 0.0806 0.0758
H23 H 1.2733 -0.0605 0.0483
C22 C 1.5479(3) -0.1344(5) 0.2111(2)
H24 H 1.5344 -0.2166 0.2269
C23 C 1.4141(3) -0.0473(6) 0.2307(3)
H25 H 1.4025 -0.1403 0.2372
H26 H 1.4147 -0.0026 0.2709
C24 C 1.0617(3) 0.0462(5) 0.0841(2)
C25 C 1.0089(3) 0.1467(5) 0.0711(2)
H27 H 1.0259 0.2266 0.0551
C26 C 1.5909(3) 0.0909(5) 0.1632(3)
H28 H 1.6049 0.1708 0.1453
C27 C 1.6210(3) -0.1150(5) 0.1920(2)
H29 H 1.6577 -0.1847 0.1961
C28 C 0.8638(3) -0.0752(5) 0.3314(2)
H30 H 0.8887 -0.1474 0.3523
C29 C 0.7375(3) -0.4901(3) 0.08922(19)
H31 H 0.7677 -0.4926 0.1281
C30 C 0.7378(3) -0.7334(4) 0.0885(2)
C31 C 1.0332(3) -0.0650(5) 0.1104(3)
H32 H 1.0675 -0.1356 0.1217
C32 C 0.7468(3) -0.2457(4) 0.0911(2)
C33 C 0.5234(4) -0.3804(7) -0.0815(4)
H33 H 0.4951 -0.3714 -0.1225
H34 H 0.5443 -0.2956 -0.0675
H35 H 0.4873 -0.4127 -0.0528
C34 C 1.5164(3) 0.0806(5) 0.1828(3)
H36 H 1.4812 0.1523 0.1793
C35 C 0.5489(8) -0.6001(7) -0.1006(5)
H37 H 0.5224 -0.6308 -0.0655
H38 H 0.5875 -0.6651 -0.1109
H39 H 0.5099 -0.5867 -0.1360
C36 C 0.6376(6) -0.4311(18) -0.1325(4)
H40 H 0.6596 -0.5069 -0.1519
H41 H 0.6805 -0.3757 -0.1145
H42 H 0.6044 -0.3816 -0.1634
N3B N 1.1857(2) -0.0215(3) 0.76373(17)
N4B N 1.0715(2) 0.0147(3) 0.54061(16)
C1B C 1.0088(2) -0.0744(4) 0.55465(18)
H1B H 1.0192 -0.1619 0.5384
H2B H 1.0083 -0.0816 0.5998
C3B C 1.1476(3) -0.0335(5) 0.5664(2)
H3B H 1.1545 -0.1235 0.5518
H4B H 1.1895 0.0207 0.5511
C7B C 1.1889(3) -0.1364(4) 0.6694(2)
H7B H 1.2016 -0.2143 0.6491
C16B C 1.2024(3) -0.1271(4) 0.7321(2)
H17B H 1.2249 -0.1998 0.7542
C17B C 0.9291(3) -0.0267(5) 0.52650(19)
H18B H 0.9175 0.0588 0.5443
H19B H 0.8877 -0.0886 0.5363
C18B C 1.1518(3) 0.0774(4) 0.7318(2)
H20B H 1.1378 0.1527 0.7534
C19B C 1.1570(3) -0.0323(5) 0.6357(2)
C28B C 1.1362(3) 0.0752(5) 0.6686(2)
H30B H 1.1113 0.1474 0.6477
Cd1B Cd 1.227790(18) -0.01364(3) 0.869140(13)
O1B O 1.2795(2) 0.8356(3) 0.94191(15)
N1B N 0.3563(2) 0.0032(3) 0.83229(19)
N2B N 0.7966(2) 0.0016(3) 0.8878(2)
O2B O 1.2255(2) 0.7371(3) 0.85955(15)
O3B O 1.2714(2) 0.1416(3) 0.93739(16)
O4B O 1.2137(2) 0.2454(3) 0.85773(16)
N5B N 1.0963(2) -0.0221(3) 0.89393(19)
C2B C 1.2824(2) 0.3706(3) 0.93835(18)
C4B C 1.3591(3) 0.4825(3) 1.0230(2)
C5B C 0.6585(3) 0.0677(5) 0.8690(2)
H5B H 0.6738 0.1577 0.8594
H6B H 0.6082 0.0713 0.8879
C6B C 1.2867(2) 0.6048(3) 0.93983(18)
N6B N 0.6479(2) -0.0087(3) 0.81218(19)
C8B C 0.7860(3) -0.0752(5) 0.8306(2)
H8B H 0.8364 -0.0790 0.8118
H9B H 0.7706 -0.1652 0.8402
C9B C 1.3304(2) 0.3683(3) 0.99333(18)
H10B H 1.3443 0.2867 1.0116
C10B C 0.8549(3) -0.0594(6) 0.9322(2)
H11B H 0.8511 -0.0197 0.9731
H12B H 0.8421 -0.1529 0.9354
C11B C 1.0449(3) 0.0720(5) 0.8801(3)
H13B H 1.0632 0.1494 0.8625
C12B C 1.3341(2) 0.5996(4) 0.99511(19)
H14B H 1.3503 0.6789 1.0148
C13B C 0.5057(3) 0.0351(5) 0.7925(2)
C14B C 0.7231(3) -0.0147(5) 0.7855(2)
H15B H 0.7169 -0.0671 0.7473
H16B H 0.7394 0.0741 0.7748
C15B C 1.4099(3) 0.4746(5) 1.0842(2)
C20B C 1.0691(3) -0.1298(5) 0.9182(2)
H21B H 1.1050 -0.1987 0.9287
C21B C 0.7209(3) 0.0082(5) 0.9135(3)
H22B H 0.7044 -0.0806 0.9242
H23B H 0.7267 0.0605 0.9517
C22B C 0.4521(3) 0.1344(5) 0.7889(2)
H24B H 0.4656 0.2166 0.7731
C23B C 0.5859(3) 0.0473(6) 0.7693(3)
H25B H 0.5975 0.1403 0.7628
H26B H 0.5853 0.0026 0.7291
C24B C 0.9383(3) -0.0462(5) 0.9159(2)
C25B C 0.9911(3) -0.1467(5) 0.9289(2)
H27B H 0.9741 -0.2266 0.9449
C26B C 0.4091(3) -0.0909(5) 0.8368(3)
H28B H 0.3951 -0.1708 0.8547
C27B C 0.3790(3) 0.1150(5) 0.8080(2)
H29B H 0.3423 0.1847 0.8039
C29B C 1.2625(3) 0.4901(3) 0.91078(19)
H31B H 1.2323 0.4926 0.8719
C30B C 1.2622(3) 0.7334(4) 0.9115(2)
C31B C 0.9668(3) 0.0650(5) 0.8896(3)
H32B H 0.9325 0.1356 0.8783
C32B C 1.2532(3) 0.2457(4) 0.9089(2)
C33B C 1.4766(4) 0.3804(7) 1.0815(4)
H33B H 1.5049 0.3714 1.1225
H34B H 1.4557 0.2956 1.0675
H35B H 1.5127 0.4127 1.0528
C34B C 0.4836(3) -0.0806(5) 0.8172(3)
H36B H 0.5188 -0.1523 0.8207
C35B C 1.4511(8) 0.6001(7) 1.1006(5)
H37B H 1.4776 0.6308 1.0655
H38B H 1.4125 0.6651 1.1109
H39B H 1.4901 0.5867 1.1360
C36B C 1.3624(6) 0.4311(18) 1.1325(4)
H40B H 1.3404 0.5069 1.1519
H41B H 1.3195 0.3757 1.1145
H42B H 1.3956 0.3816 1.1634
Cd1_2 Cd 0.772210(18) -0.98636(3) 0.130860(13)
Cd1_3 Cd 1.772210(18) 0.01364(3) 0.130860(13)
Cd1B_2 Cd 0.227790(18) -0.01364(3) 0.869140(13)
Cd1B_3 Cd 1.227790(18) 0.98636(3) 0.869140(13)
O1_2 O 0.7205(2) 0.1644(3) 0.05809(15)
O1B_2 O 1.2795(2) -0.1644(3) 0.94191(15)
N1_2 N 0.6437(2) -0.0032(3) 0.16771(19)
N1B_2 N 1.3563(2) 0.0032(3) 0.83229(19)
O2_2 O 0.7745(2) 0.2629(3) 0.14045(15)
O2B_2 O 1.2255(2) -0.2629(3) 0.85955(15)
O5 O 0.9265(5) -0.3668(8) 0.2057(4)
O6 O 0.9221(6) -0.6433(9) 0.2091(4)
O7 O 1.4174(9) 0.0071(10) -0.0059(7)
loop_
_geom_bond_atom_site_label_1
_geom_bond_atom_site_label_2
_geom_bond_site_symmetry_1
_geom_bond_site_symmetry_2
Cd1 N3 1_555 1_555
O1 C30 1_555 1_555
N1 C26 1_555 1_555
N2 C8 1_555 1_555
N3 C16 1_555 1_555
O2 C30 1_555 1_555
N4 C1 1_555 1_555
O3 Cd1 1_555 1_555
O4 Cd1 1_555 1_555
N5 Cd1 1_555 1_555
C1 H1 1_555 1_555
H2 C1 1_555 1_555
C2 C9 1_555 1_555
C3 N4 1_555 1_555
H3 C3 1_555 1_555
H4 C3 1_555 1_555
C4 C9 1_555 1_555
C5 H5 1_555 1_555
H6 C5 1_555 1_555
C6 C12 1_555 1_555
N6 C5 1_555 1_555
C7 H7 1_555 1_555
C8 H8 1_555 1_555
H9 C8 1_555 1_555
C9 H10 1_555 1_555
C10 N2 1_555 1_555
H11 C10 1_555 1_555
H12 C10 1_555 1_555
C11 N5 1_555 1_555
H13 C11 1_555 1_555
C12 C4 1_555 1_555
H14 C12 1_555 1_555
C13 C22 1_555 1_555
C14 N6 1_555 1_555
H15 C14 1_555 1_555
H16 C14 1_555 1_555
C15 C4 1_555 1_555
C16 C7 1_555 1_555
H17 C16 1_555 1_555
C17 C1 1_555 1_555
H18 C17 1_555 1_555
H19 C17 1_555 1_555
C18 N3 1_555 1_555
H20 C18 1_555 1_555
C19 C3 1_555 1_555
C20 N5 1_555 1_555
H21 C20 1_555 1_555
C21 N2 1_555 1_555
H22 C21 1_555 1_555
H23 C21 1_555 1_555
C22 H24 1_555 1_555
C23 N6 1_555 1_555
H25 C23 1_555 1_555
H26 C23 1_555 1_555
C24 C10 1_555 1_555
C25 C20 1_555 1_555
H27 C25 1_555 1_555
C26 H28 1_555 1_555
C27 N1 1_555 1_555
H29 C27 1_555 1_555
C28 C18 1_555 1_555
H30 C28 1_555 1_555
C29 C2 1_555 1_555
H31 C29 1_555 1_555
C30 C6 1_555 1_555
C31 C11 1_555 1_555
H32 C31 1_555 1_555
C32 O3 1_555 1_555
C33 C15 1_555 1_555
H33 C33 1_555 1_555
H34 C33 1_555 1_555
H35 C33 1_555 1_555
C34 C13 1_555 1_555
H36 C34 1_555 1_555
C35 C15 1_555 1_555
H37 C35 1_555 1_555
H38 C35 1_555 1_555
H39 C35 1_555 1_555
C36 C15 1_555 1_555
H40 C36 1_555 1_555
H41 C36 1_555 1_555
H42 C36 1_555 1_555
N3B C16B 1_555 1_555
N4B C17 1_555 1_555
C1B N4B 1_555 1_555
H1B C1B 1_555 1_555
H2B C1B 1_555 1_555
C3B N4B 1_555 1_555
H3B C3B 1_555 1_555
H4B C3B 1_555 1_555
C7B H7B 1_555 1_555
C16B C7B 1_555 1_555
H17B C16B 1_555 1_555
C17B N4 1_555 1_555
H18B C17B 1_555 1_555
H19B C17B 1_555 1_555
C18B N3B 1_555 1_555
H20B C18B 1_555 1_555
C19B C3B 1_555 1_555
C28B C18B 1_555 1_555
H30B C28B 1_555 1_555
Cd1B N3B 1_555 1_555
O1B C30B 1_555 1_555
N1B C26B 1_555 1_555
N2B C8B 1_555 1_555
O2B C30B 1_555 1_555
O3B Cd1B 1_555 1_555
O4B Cd1B 1_555 1_555
N5B Cd1B 1_555 1_555
C2B C9B 1_555 1_555
C4B C9B 1_555 1_555
C5B H5B 1_555 1_555
H6B C5B 1_555 1_555
C6B C12B 1_555 1_555
N6B C5B 1_555 1_555
C8B H8B 1_555 1_555
H9B C8B 1_555 1_555
C9B H10B 1_555 1_555
C10B N2B 1_555 1_555
H11B C10B 1_555 1_555
H12B C10B 1_555 1_555
C11B N5B 1_555 1_555
H13B C11B 1_555 1_555
C12B C4B 1_555 1_555
H14B C12B 1_555 1_555
C13B C22B 1_555 1_555
C14B N6B 1_555 1_555
H15B C14B 1_555 1_555
H16B C14B 1_555 1_555
C15B C4B 1_555 1_555
C20B N5B 1_555 1_555
H21B C20B 1_555 1_555
C21B N2B 1_555 1_555
H22B C21B 1_555 1_555
H23B C21B 1_555 1_555
C22B H24B 1_555 1_555
C23B N6B 1_555 1_555
H25B C23B 1_555 1_555
H26B C23B 1_555 1_555
C24B C10B 1_555 1_555
C25B C20B 1_555 1_555
H27B C25B 1_555 1_555
C26B H28B 1_555 1_555
C27B N1B 1_555 1_555
H29B C27B 1_555 1_555
C29B C2B 1_555 1_555
H31B C29B 1_555 1_555
C30B C6B 1_555 1_555
C31B C11B 1_555 1_555
H32B C31B 1_555 1_555
C32B O3B 1_555 1_555
C33B C15B 1_555 1_555
H33B C33B 1_555 1_555
H34B C33B 1_555 1_555
H35B C33B 1_555 1_555
C34B C13B 1_555 1_555
H36B C34B 1_555 1_555
C35B C15B 1_555 1_555
H37B C35B 1_555 1_555
H38B C35B 1_555 1_555
H39B C35B 1_555 1_555
C36B C15B 1_555 1_555
H40B C36B 1_555 1_555
H41B C36B 1_555 1_555
H42B C36B 1_555 1_555
Cd1_2 O1 1_555 1_555
Cd1_3 N1 1_555 1_555
Cd1B_2 N1B 1_555 1_555
Cd1B_3 O1B 1_555 1_555
O1_2 Cd1 1_555 1_555
O1B_2 Cd1B 1_555 1_555
N1_2 Cd1 1_555 1_555
N1B_2 Cd1B 1_555 1_555
O2_2 Cd1 1_555 1_555
O2B_2 Cd1B 1_555 1_555
O2 Cd1_2 1_555 1_555
O4 C32 1_555 1_555
C2 C32 1_555 1_555
C5 C21 1_555 1_555
C6 C29 1_555 1_555
C7 C19 1_555 1_555
C8 C14 1_555 1_555
C13 C23 1_555 1_555
C19 C28 1_555 1_555
C22 C27 1_555 1_555
C24 C25 1_555 1_555
C24 C31 1_555 1_555
C26 C34 1_555 1_555
C1B C17B 1_555 1_555
C7B C19B 1_555 1_555
C19B C28B 1_555 1_555
O2B Cd1B_3 1_555 1_555
O4B C32B 1_555 1_555
C2B C32B 1_555 1_555
C5B C21B 1_555 1_555
C6B C29B 1_555 1_555
C8B C14B 1_555 1_555
C13B C23B 1_555 1_555
C22B C27B 1_555 1_555
C24B C25B 1_555 1_555
C24B C31B 1_555 1_555
C26B C34B 1_555 1_555

#END
