
#######################################################################
#
#                 Cambridge Crystallographic Data Centre
#                                CCDC 
#
#######################################################################
#
# If this CIF has been generated from an entry in the Cambridge 
# Structural Database, then it will include bibliographic, chemical, 
# crystal, experimental, refinement or atomic coordinate data resulting 
# from the CCDC's data processing and validation procedures.
#
#######################################################################

data_ZOGZEA
_symmetry_cell_setting           monoclinic
_symmetry_space_group_name_H-M   'P 21/c'
_symmetry_Int_Tables_number      14
_space_group_name_Hall           '-P 2ybc'
loop_
_symmetry_equiv_pos_site_id
_symmetry_equiv_pos_as_xyz
1 x,y,z
2 -x,1/2+y,1/2-z
3 -x,-y,-z
4 x,1/2-y,1/2+z
_cell_length_a                   10.137(3)
_cell_length_b                   19.426(5)
_cell_length_c                   27.187(7)
_cell_angle_alpha                90
_cell_angle_beta                 95.21(2)
_cell_angle_gamma                90
_cell_volume                     5331.58
loop_
_atom_site_label
_atom_site_type_symbol
_atom_site_fract_x
_atom_site_fract_y
_atom_site_fract_z
Mn1 Mn 0.6133(3) 0.2237(1) 0.14515(8)
F1 F 0.191(2) 0.1264(10) 0.1036(7)
F2 F 0.152(2) 0.101(2) 0.1695(8)
F3 F 0.289(2) 0.0495(10) 0.136(1)
F4 F 1.029(2) 0.332(1) 0.1784(6)
F5 F 1.093(2) 0.332(1) 0.1139(8)
F6 F 0.955(2) 0.3981(9) 0.128(1)
F7 F 0.963(1) 0.145(1) 0.0173(8)
F8 F 0.778(2) 0.152(2) -0.0099(6)
F9 F 0.832(3) 0.083(1) 0.0409(9)
F10 F 0.451(2) 0.309(2) 0.2921(8)
F11 F 0.288(3) 0.282(1) 0.279(1)
F12 F 0.329(3) 0.3538(9) 0.2457(6)
O1 O 0.4746(10) 0.2842(5) 0.1014(3)
O2 O 0.750(1) 0.1637(5) 0.1922(4)
O3 O 0.703(1) 0.1790(6) 0.0832(3)
O4 O 0.526(1) 0.2631(5) 0.2074(3)
O5 O 0.458(1) 0.1509(6) 0.1429(4)
O6 O 0.771(1) 0.2958(6) 0.1429(4)
O7 O 0.583(1) 0.4095(6) -0.1018(4)
N1 N 0.729(1) 0.3695(7) -0.2676(4)
N2 N 0.489(1) 0.3269(7) 0.0657(5)
N3 N 0.593(1) 0.3440(7) -0.1046(4)
C1 C 0.492(1) 0.2975(8) 0.0179(5)
C2 C 0.441(1) 0.2306(8) 0.0102(6)
C3 C 0.442(2) 0.2013(8) -0.0374(6)
C4 C 0.496(2) 0.2407(9) -0.0741(5)
C5 C 0.545(2) 0.3038(9) -0.0660(6)
C6 C 0.546(1) 0.3349(7) -0.0204(5)
C7 C 0.722(2) 0.3299(8) -0.2227(5)
C8 C 0.781(1) 0.2648(8) -0.2207(5)
C9 C 0.779(1) 0.2243(8) -0.1786(5)
C10 C 0.722(2) 0.2518(9) -0.1412(5)
C11 C 0.652(2) 0.3552(7) -0.1845(6)
C12 C 0.358(2) 0.159(1) 0.1625(8)
C13 C 0.325(2) 0.205(1) 0.1990(7)
C14 C 0.415(2) 0.2525(10) 0.2176(6)
C15 C 0.379(3) 0.300(2) 0.255(1)
C16 C 0.876(2) 0.285(1) 0.1211(7)
C17 C 0.910(2) 0.239(1) 0.0860(8)
C18 C 0.820(2) 0.191(1) 0.0683(8)
C19 C 0.982(3) 0.340(2) 0.134(1)
C20 C 0.844(2) 0.1541(10) -0.1763(7)
C21 C 0.841(2) 0.1200(10) -0.1286(7)
C22 C 0.778(2) 0.1094(9) -0.2158(9)
C23 C 0.982(3) 0.163(1) -0.1901(9)
C24 C 0.724(2) 0.4493(9) -0.2717(6)
C25 C 0.812(2) 0.4786(9) -0.2280(7)
C26 C 0.781(3) 0.4664(10) -0.3199(7)
C27 C 0.577(2) 0.4722(10) -0.2730(8)
C28 C 0.477(2) 0.4039(8) 0.0783(6)
C29 C 0.425(2) 0.4094(9) 0.1299(6)
C30 C 0.610(2) 0.4370(9) 0.0752(6)
C31 C 0.370(2) 0.4355(8) 0.0411(6)
C32 C 0.379(2) 0.1305(9) -0.0454(6)
C33 C 0.455(3) 0.089(1) -0.0809(10)
C34 C 0.245(3) 0.137(1) -0.063(2)
C35 C 0.382(3) 0.0890(9) -0.0001(8)
C36 C 0.247(5) 0.113(2) 0.146(1)
C37 C 0.863(4) 0.144(2) 0.030(2)
C38 C 0.653(2) 0.3158(9) -0.1437(5)
H1 H 0.8810 0.1496 -0.1035
H2 H 0.8895 0.0784 -0.1289
H3 H 0.7524 0.1111 -0.1226
H4 H 0.8236 0.0669 -0.2164
H5 H 0.7800 0.1318 -0.2470
H6 H 0.6888 0.1018 -0.2094
H7 H 1.0282 0.1935 -0.1680
H8 H 0.9799 0.1795 -0.2229
H9 H 1.0251 0.1188 -0.1883
H10 H 0.7761 0.4670 -0.1981
H11 H 0.8181 0.5267 -0.2312
H12 H 0.8988 0.4588 -0.2278
H13 H 0.7827 0.5149 -0.3239
H14 H 0.7276 0.4463 -0.3465
H15 H 0.8687 0.4488 -0.3192
H16 H 0.5426 0.4584 -0.2432
H17 H 0.5281 0.4505 -0.3002
H18 H 0.5721 0.5204 -0.2765
H19 H 0.4118 0.4563 0.1376
H20 H 0.3435 0.3851 0.1299
H21 H 0.4881 0.3896 0.1539
H22 H 0.6732 0.4157 0.0985
H23 H 0.6369 0.4311 0.0429
H24 H 0.6044 0.4845 0.0825
H25 H 0.3550 0.4820 0.0497
H26 H 0.3980 0.4335 0.0088
H27 H 0.2894 0.4102 0.0419
H28 H 0.4151 0.0459 -0.0864
H29 H 0.4525 0.1138 -0.1118
H30 H 0.5440 0.0846 -0.0679
H31 H 0.1988 0.1615 -0.0397
H32 H 0.2384 0.1623 -0.0935
H33 H 0.2069 0.0830 -0.0687
H34 H 0.3332 0.1118 0.0232
H35 H 0.3428 0.0453 -0.0078
H36 H 0.4708 0.0828 0.0132
H37 H 0.4065 0.2054 0.0361
H38 H 0.4982 0.2219 -0.1063
H39 H 0.5824 0.3796 -0.0145
H40 H 0.8228 0.2481 -0.2482
H41 H 0.7258 0.2271 -0.1108
H42 H 0.6056 0.3980 -0.1874
H43 H 0.2396 0.2022 0.2109
H44 H 0.9951 0.2404 0.0741
O2C O 0.750(1) 0.3363(5) -0.3078(4)
Mn1C Mn 0.6133(3) 0.2763(1) -0.35485(8)
C39 C 0.0030 0.1287 0.4356
C40 C 0.0646 0.1443 0.4194
C41 C 0.1409 0.1446 0.3961
C42 C 0.1912 0.0939 0.3103
C43 C -0.0623 0.1034 0.4614
C44 C 0.1590 0.0960 0.3688
H45 H 0.1999 0.0474 0.3002
H46 H 0.1208 0.1151 0.2904
H47 H 0.2715 0.1178 0.3067
H48 H -0.0392 0.1194 0.4941
H49 H -0.1522 0.1146 0.4517
H50 H -0.0509 0.0549 0.4602
H51 H 0.1263 0.1838 0.3753
H52 H 0.2209 0.1505 0.4167
H53 H 0.2313 0.0719 0.3856
H54 H 0.0807 0.0693 0.3694
H55? H -0.0314 0.1733 0.4411
H56? H -0.0435 0.1090 0.4071
H57? H 0.0123 0.1786 0.4020
H58? H 0.1146 0.1646 0.4469
loop_
_geom_bond_atom_site_label_1
_geom_bond_atom_site_label_2
_geom_bond_site_symmetry_1
_geom_bond_site_symmetry_2
Mn1 O1 1_555 1_555
F1 C36 1_555 1_555
F2 C36 1_555 1_555
F3 C36 1_555 1_555
F4 C19 1_555 1_555
F5 C19 1_555 1_555
F6 C19 1_555 1_555
F7 C37 1_555 1_555
F8 C37 1_555 1_555
F9 C37 1_555 1_555
F10 C15 1_555 1_555
F11 C15 1_555 1_555
F12 C15 1_555 1_555
O1 N2 1_555 1_555
O2 Mn1 1_555 1_555
O3 Mn1 1_555 1_555
O4 Mn1 1_555 1_555
O5 Mn1 1_555 1_555
O6 Mn1 1_555 1_555
O7 N3 1_555 1_555
N1 C7 1_555 1_555
N2 C1 1_555 1_555
N3 C5 1_555 1_555
C1 C2 1_555 1_555
C2 C3 1_555 1_555
C3 C4 1_555 1_555
C4 C5 1_555 1_555
C5 C6 1_555 1_555
C6 C1 1_555 1_555
C7 C8 1_555 1_555
C8 C9 1_555 1_555
C9 C10 1_555 1_555
C10 C38 1_555 1_555
C11 C7 1_555 1_555
C12 O5 1_555 1_555
C13 C12 1_555 1_555
C14 O4 1_555 1_555
C15 C14 1_555 1_555
C16 O6 1_555 1_555
C17 C16 1_555 1_555
C18 O3 1_555 1_555
C19 C16 1_555 1_555
C20 C9 1_555 1_555
C21 C20 1_555 1_555
C22 C20 1_555 1_555
C23 C20 1_555 1_555
C24 N1 1_555 1_555
C25 C24 1_555 1_555
C26 C24 1_555 1_555
C27 C24 1_555 1_555
C28 N2 1_555 1_555
C29 C28 1_555 1_555
C30 C28 1_555 1_555
C31 C28 1_555 1_555
C32 C3 1_555 1_555
C33 C32 1_555 1_555
C34 C32 1_555 1_555
C35 C32 1_555 1_555
C36 C12 1_555 1_555
C37 C18 1_555 1_555
C38 N3 1_555 1_555
H1 C21 1_555 1_555
H2 C21 1_555 1_555
H3 C21 1_555 1_555
H4 C22 1_555 1_555
H5 C22 1_555 1_555
H6 C22 1_555 1_555
H7 C23 1_555 1_555
H8 C23 1_555 1_555
H9 C23 1_555 1_555
H10 C25 1_555 1_555
H11 C25 1_555 1_555
H12 C25 1_555 1_555
H13 C26 1_555 1_555
H14 C26 1_555 1_555
H15 C26 1_555 1_555
H16 C27 1_555 1_555
H17 C27 1_555 1_555
H18 C27 1_555 1_555
H19 C29 1_555 1_555
H20 C29 1_555 1_555
H21 C29 1_555 1_555
H22 C30 1_555 1_555
H23 C30 1_555 1_555
H24 C30 1_555 1_555
H25 C31 1_555 1_555
H26 C31 1_555 1_555
H27 C31 1_555 1_555
H28 C33 1_555 1_555
H29 C33 1_555 1_555
H30 C33 1_555 1_555
H31 C34 1_555 1_555
H32 C34 1_555 1_555
H33 C34 1_555 1_555
H34 C35 1_555 1_555
H35 C35 1_555 1_555
H36 C35 1_555 1_555
H37 C2 1_555 1_555
H38 C4 1_555 1_555
H39 C6 1_555 1_555
H40 C8 1_555 1_555
H41 C10 1_555 1_555
H42 C11 1_555 1_555
H43 C13 1_555 1_555
H44 C17 1_555 1_555
C39 C40 1_555 1_555
C40 C41 1_555 1_555
C41 C44 1_555 1_555
C42 C44 1_555 1_555
C43 C39 1_555 1_555
C44 H53 1_555 1_555
H45 C42 1_555 1_555
H46 C42 1_555 1_555
H47 C42 1_555 1_555
H48 C43 1_555 1_555
H49 C43 1_555 1_555
H50 C43 1_555 1_555
H51 C41 1_555 1_555
H52 C41 1_555 1_555
H54 C44 1_555 1_555
O2C N1 1_555 1_555
Mn1C O2C 1_555 1_555
C11 C38 1_555 1_555
C13 C14 1_555 1_555
C17 C18 1_555 1_555

#END
