
#######################################################################
#
#                 Cambridge Crystallographic Data Centre
#                                CCDC 
#
#######################################################################
#
# If this CIF has been generated from an entry in the Cambridge 
# Structural Database, then it will include bibliographic, chemical, 
# crystal, experimental, refinement or atomic coordinate data resulting 
# from the CCDC's data processing and validation procedures.
#
#######################################################################

data_ZOHBOP
_symmetry_cell_setting           monoclinic
_symmetry_space_group_name_H-M   'P 21/c'
_symmetry_Int_Tables_number      14
_space_group_name_Hall           '-P 2ybc'
loop_
_symmetry_equiv_pos_site_id
_symmetry_equiv_pos_as_xyz
1 x,y,z
2 -x,1/2+y,1/2-z
3 -x,-y,-z
4 x,1/2-y,1/2+z
_cell_length_a                   15.8734(12)
_cell_length_b                   13.4525(10)
_cell_length_c                   6.6309(5)
_cell_angle_alpha                90
_cell_angle_beta                 97.8620(10)
_cell_angle_gamma                90
_cell_volume                     1402.63
loop_
_atom_site_label
_atom_site_type_symbol
_atom_site_fract_x
_atom_site_fract_y
_atom_site_fract_z
Tb1 Tb 0.251177(11) -0.060801(13) 0.46505(3)
O1 O 0.31965(18) -0.2033(2) 0.3655(5)
O2 O 0.1476(2) -0.1789(3) 0.5770(8)
H1 H 0.1025 -0.1791 0.4917
H2 H 0.1348 -0.1606 0.6917
O3 O 0.31887(17) -0.3627(2) 0.2840(4)
O4 O 0.3061(2) -0.0246(2) 0.1402(5)
H3 H 0.3582 -0.0080 0.1643
H4 H 0.2785 0.0237 0.0809
O5 O 0.71921(17) -0.1235(2) 0.5553(5)
O6 O 0.2009(2) 0.0271(3) 0.7541(5)
H5 H 0.1541 0.0016 0.7767
H6 H 0.1937 0.0886 0.7282
O7 O 0.61040(18) -0.0283(2) 0.4415(5)
O8 O 0.1527(2) -0.1207(3) 0.1537(7)
O9 O 0.11453(19) 0.0114(2) 0.3073(6)
N1 N 0.5798(2) -0.3810(2) 0.4163(5)
C1 C 0.3562(2) -0.2830(3) 0.3376(5)
C2 C 0.4521(2) -0.2836(3) 0.3762(5)
C3 C 0.4954(2) -0.3741(3) 0.3795(5)
H7 H 0.4639 -0.4321 0.3548
C4 C 0.6239(2) -0.2968(3) 0.4510(6)
H8 H 0.6827 -0.3012 0.4802
C5 C 0.5871(2) -0.2034(3) 0.4460(5)
C6 C 0.4990(2) -0.1969(3) 0.4082(5)
H9 H 0.4720 -0.1354 0.4043
C7 C 0.6424(2) -0.1120(3) 0.4824(6)
C8 C 0.1007(3) -0.0514(3) 0.1672(8)
C9 C 0.0219(4) -0.0481(4) 0.0106(10)
H10 H 0.0379 -0.0664 -0.1206
H11 H -0.0177 -0.0979 0.0461
O8B O -0.1527(2) 0.1207(3) -0.1537(7)
O9B O -0.11453(19) -0.0114(2) -0.3073(6)
C8B C -0.1007(3) 0.0514(3) -0.1672(8)
C9B C -0.0219(4) 0.0481(4) -0.0106(10)
H10B H -0.0379 0.0664 0.1206
H11B H 0.0177 0.0979 -0.0461
Tb1B Tb -0.251177(11) 0.060801(13) -0.46505(3)
O1B O -0.31965(18) 0.2033(2) -0.3655(5)
O2B O -0.1476(2) 0.1789(3) -0.5770(8)
H1B H -0.1025 0.1791 -0.4917
H2B H -0.1348 0.1606 -0.6917
O3B O -0.31887(17) 0.3627(2) -0.2840(4)
O4B O -0.3061(2) 0.0246(2) -0.1402(5)
H3B H -0.3582 0.0080 -0.1643
H4B H -0.2785 -0.0237 -0.0809
O5B O -0.71921(17) 0.1235(2) -0.5553(5)
O6B O -0.2009(2) -0.0271(3) -0.7541(5)
H5B H -0.1541 -0.0016 -0.7767
H6B H -0.1937 -0.0886 -0.7282
O7B O -0.61040(18) 0.0283(2) -0.4415(5)
N1B N -0.5798(2) 0.3810(2) -0.4163(5)
C1B C -0.3562(2) 0.2830(3) -0.3376(5)
C2B C -0.4521(2) 0.2836(3) -0.3762(5)
C3B C -0.4954(2) 0.3741(3) -0.3795(5)
H7B H -0.4639 0.4321 -0.3548
C4B C -0.6239(2) 0.2968(3) -0.4510(6)
H8B H -0.6827 0.3012 -0.4802
C5B C -0.5871(2) 0.2034(3) -0.4460(5)
C6B C -0.4990(2) 0.1969(3) -0.4082(5)
H9B H -0.4720 0.1354 -0.4043
C7B C -0.6424(2) 0.1120(3) -0.4824(6)
Tb1_2 Tb -0.748823(11) -0.060801(13) -0.53495(3)
Tb1A Tb -0.251177(11) 0.439199(13) 0.03495(3)
Tb1B_2 Tb 0.748823(11) 0.060801(13) 0.53495(3)
Tb1C Tb 0.251177(11) -0.439199(13) -0.03495(3)
O3A O -0.31887(17) 0.1373(2) -0.7840(4)
O3C O 0.31887(17) -0.1373(2) 0.7840(4)
O5_2 O -0.28079(17) -0.1235(2) -0.4447(5)
O5B_2 O 0.28079(17) 0.1235(2) 0.4447(5)
O7_2 O -0.38960(18) -0.0283(2) -0.5585(5)
O7B_2 O 0.38960(18) 0.0283(2) 0.5585(5)
O10 O 0.1616(3) -0.7276(3) 0.2987(9)
H12 H 0.1553 -0.7494 0.1772
H13 H 0.2082 -0.7522 0.3551
O11 O 0.0280(3) -0.6616(4) -0.0087(9)
H14 H 0.0443 -0.6061 -0.0510
H15 H 0.0348 -0.6612 0.1207
loop_
_geom_bond_atom_site_label_1
_geom_bond_atom_site_label_2
_geom_bond_site_symmetry_1
_geom_bond_site_symmetry_2
Tb1 O1 1_555 1_555
O1 C1 1_555 1_555
O2 Tb1 1_555 1_555
H1 O2 1_555 1_555
H2 O2 1_555 1_555
O3 C1 1_555 1_555
O4 Tb1 1_555 1_555
H3 O4 1_555 1_555
H4 O4 1_555 1_555
O5 C7 1_555 1_555
O6 Tb1 1_555 1_555
H5 O6 1_555 1_555
H6 O6 1_555 1_555
O7 C7 1_555 1_555
O8 Tb1 1_555 1_555
O9 Tb1 1_555 1_555
N1 C3 1_555 1_555
C1 C2 1_555 1_555
C2 C3 1_555 1_555
C3 H7 1_555 1_555
C4 N1 1_555 1_555
H8 C4 1_555 1_555
C5 C4 1_555 1_555
C6 C2 1_555 1_555
H9 C6 1_555 1_555
C7 C5 1_555 1_555
C8 O8 1_555 1_555
C9 C8 1_555 1_555
H10 C9 1_555 1_555
H11 C9 1_555 1_555
O10 H12 1_555 1_555
H13 O10 1_555 1_555
O11 H14 1_555 1_555
H15 O11 1_555 1_555
O8B C8B 1_555 1_555
O9B C8B 1_555 1_555
C8B C9B 1_555 1_555
C9B C9 1_555 1_555
H10B C9B 1_555 1_555
H11B C9B 1_555 1_555
Tb1B O8B 1_555 1_555
O1B Tb1B 1_555 1_555
O2B Tb1B 1_555 1_555
H1B O2B 1_555 1_555
H2B O2B 1_555 1_555
O3B C1B 1_555 1_555
O4B Tb1B 1_555 1_555
H3B O4B 1_555 1_555
H4B O4B 1_555 1_555
O5B C7B 1_555 1_555
O6B Tb1B 1_555 1_555
H5B O6B 1_555 1_555
H6B O6B 1_555 1_555
O7B C7B 1_555 1_555
N1B C3B 1_555 1_555
C1B O1B 1_555 1_555
C2B C1B 1_555 1_555
C3B C2B 1_555 1_555
H7B C3B 1_555 1_555
C4B N1B 1_555 1_555
H8B C4B 1_555 1_555
C5B C4B 1_555 1_555
C6B C2B 1_555 1_555
H9B C6B 1_555 1_555
C7B C5B 1_555 1_555
Tb1_2 O5B 1_555 1_555
Tb1A O3B 1_555 1_555
Tb1B_2 O5 1_555 1_555
Tb1C O3 1_555 1_555
O3A Tb1B 1_555 1_555
O3C Tb1 1_555 1_555
O5_2 Tb1B 1_555 1_555
O5B_2 Tb1 1_555 1_555
O7_2 Tb1B 1_555 1_555
O7B_2 Tb1 1_555 1_555
O7 Tb1B_2 1_555 1_555
O9 C8 1_555 1_555
C5 C6 1_555 1_555
O9B Tb1B 1_555 1_555
O7B Tb1_2 1_555 1_555
C5B C6B 1_555 1_555

#END
