
#######################################################################
#
#                 Cambridge Crystallographic Data Centre
#                                CCDC 
#
#######################################################################
#
# If this CIF has been generated from an entry in the Cambridge 
# Structural Database, then it will include bibliographic, chemical, 
# crystal, experimental, refinement or atomic coordinate data resulting 
# from the CCDC's data processing and validation procedures.
#
#######################################################################

data_ZOHBUV
_symmetry_cell_setting           monoclinic
_symmetry_space_group_name_H-M   'P 21/c'
_symmetry_Int_Tables_number      14
_space_group_name_Hall           '-P 2ybc'
loop_
_symmetry_equiv_pos_site_id
_symmetry_equiv_pos_as_xyz
1 x,y,z
2 -x,1/2+y,1/2-z
3 -x,-y,-z
4 x,1/2-y,1/2+z
_cell_length_a                   15.8585(14)
_cell_length_b                   13.4190(11)
_cell_length_c                   6.6158(6)
_cell_angle_alpha                90
_cell_angle_beta                 97.925(1)
_cell_angle_gamma                90
_cell_volume                     1394.43
loop_
_atom_site_label
_atom_site_type_symbol
_atom_site_fract_x
_atom_site_fract_y
_atom_site_fract_z
Er1 Er 0.24882(2) 0.56099(2) 1.03600(6)
C1 C 0.1429(5) 0.3885(6) 0.9833(12)
C2 C 0.0868(5) 0.2968(6) 0.9461(12)
C3 C 0.1244(5) 0.2032(6) 0.9521(12)
C4 C -0.0045(5) 0.1263(6) 0.8797(11)
C5 C -0.0485(5) 0.2161(6) 0.8770(11)
C6 C -0.0003(5) 0.3037(6) 0.9074(11)
C7 C -0.1435(5) 0.2169(6) 0.8367(12)
C8 C 0.3995(6) 0.5519(7) 1.3333(17)
C9 C 0.4781(7) 0.5486(8) 1.4904(19)
N1 N 0.07988(19) 0.11876(17) 0.9170(6)
O1 O 0.11087(15) 0.47319(16) 0.9428(5)
O2 O 0.21950(15) 0.37756(18) 1.0561(4)
O3 O -0.18108(18) 0.1369(3) 0.7828(6)
O4 O -0.18102(15) 0.2967(3) 0.8655(7)
O5 O 0.38482(16) 0.4879(2) 1.1928(6)
O6 O 0.3468(2) 0.6211(3) 1.3460(7)
O7 O 0.30052(19) 0.4736(3) 0.7499(5)
O8 O 0.1949(5) 0.5241(5) 1.3588(10)
O9 O 0.3520(5) 0.6777(6) 0.9237(16)
H1 H 0.1833(5) 0.1990(6) 0.9819(12)
H2 H -0.0360(5) 0.0680(6) 0.8539(11)
H3 H -0.0269(5) 0.3655(6) 0.9014(11)
H4 H 0.5178(7) 0.5986(8) 1.4557(19)
H5 H 0.4621(7) 0.5663(8) 1.6221(19)
H6 H 0.307(6) 0.5152(12) 0.656(6)
H7 H 0.265(3) 0.429(5) 0.704(9)
H8 H 0.218(5) 0.563(5) 1.451(4)
H9 H 0.207(6) 0.464(2) 1.393(8)
H10 H 0.397(3) 0.6465(17) 0.908(18)
H11 H 0.364(6) 0.723(5) 1.013(9)
C8B C 0.6005(6) 0.4481(7) 1.6667(17)
C9B C 0.5219(7) 0.4514(8) 1.5096(19)
O5B O 0.61518(16) 0.5121(2) 1.8072(6)
O6B O 0.6532(2) 0.3789(3) 1.6540(7)
H4B H 0.4822(7) 0.4014(8) 1.5443(19)
H5B H 0.5379(7) 0.4337(8) 1.3779(19)
Er1B Er -0.24882(2) 0.43901(2) 0.96400(6)
C1B C -0.1429(5) 0.6115(6) 1.0167(12)
C2B C -0.0868(5) 0.7032(6) 1.0539(12)
C3B C -0.1244(5) 0.7968(6) 1.0479(12)
C4B C 0.0045(5) 0.8737(6) 1.1203(11)
C5B C 0.0485(5) 0.7839(6) 1.1230(11)
C6B C 0.0003(5) 0.6963(6) 1.0926(11)
C7B C 0.1435(5) 0.7831(6) 1.1633(12)
N1B N -0.07988(19) 0.88124(17) 1.0830(6)
O1B O -0.11087(15) 0.52681(16) 1.0572(5)
O2B O -0.21950(15) 0.62244(18) 0.9439(4)
O3B O 0.18108(18) 0.8631(3) 1.2172(6)
O4B O 0.18102(15) 0.7033(3) 1.1345(7)
O7B O -0.30052(19) 0.5264(3) 1.2501(5)
O8B O -0.1949(5) 0.4759(5) 0.6412(10)
O9B O -0.3520(5) 0.3223(6) 1.0763(16)
H1B H -0.1833(5) 0.8010(6) 1.0181(12)
H2B H 0.0360(5) 0.9320(6) 1.1461(11)
H3B H 0.0269(5) 0.6345(6) 1.0986(11)
H6B H -0.307(6) 0.4848(12) 1.344(6)
H7B H -0.265(3) 0.571(5) 1.296(9)
H8B H -0.218(5) 0.437(5) 0.549(4)
H9B H -0.207(6) 0.536(2) 0.607(8)
H10B H -0.397(3) 0.3535(17) 1.092(18)
H11B H -0.364(6) 0.277(5) 0.987(9)
Er1A Er -0.24882(2) 0.06099(2) 0.46400(6)
Er1B_2 Er 0.75118(2) 0.43901(2) 1.96400(6)
Er1C Er 0.24882(2) 0.93901(2) 1.53600(6)
O3A O 0.18108(18) 0.6369(3) 0.7172(6)
O3C O -0.18108(18) 0.3631(3) 1.2828(6)
O5B_2 O -0.38482(16) 0.5121(2) 0.8072(6)
O6B_2 O -0.3468(2) 0.3789(3) 0.6540(7)
O10 O 0.33738(19) 0.2719(3) 0.7084(7)
H12 H 0.291(6) 0.248(12) 0.65(2)
H13 H 0.346(10) 0.251(12) 0.831(9)
O11 O 0.5278(7) 0.6590(9) 0.9922(19)
H14 H 0.544(12) 0.623(11) 0.899(16)
H15 H 0.543(13) 0.631(12) 1.107(11)
loop_
_geom_bond_atom_site_label_1
_geom_bond_atom_site_label_2
_geom_bond_site_symmetry_1
_geom_bond_site_symmetry_2
Er1 O1 1_555 1_555
C1 C2 1_555 1_555
C2 C3 1_555 1_555
C3 N1 1_555 1_555
C4 C5 1_555 1_555
C5 C6 1_555 1_555
C6 C2 1_555 1_555
C7 C5 1_555 1_555
C8 C9 1_555 1_555
C9 H4 1_555 1_555
N1 C4 1_555 1_555
O1 C1 1_555 1_555
O2 Er1 1_555 1_555
O3 C7 1_555 1_555
O4 C7 1_555 1_555
O5 Er1 1_555 1_555
O6 Er1 1_555 1_555
O7 Er1 1_555 1_555
O8 Er1 1_555 1_555
O9 Er1 1_555 1_555
H1 C3 1_555 1_555
H2 C4 1_555 1_555
H3 C6 1_555 1_555
H5 C9 1_555 1_555
H6 O7 1_555 1_555
H7 O7 1_555 1_555
H8 O8 1_555 1_555
H9 O8 1_555 1_555
H10 O9 1_555 1_555
H11 O9 1_555 1_555
O10 H12 1_555 1_555
H13 O10 1_555 1_555
O11 H14 1_555 1_555
H15 O11 1_555 1_555
C8B C9B 1_555 1_555
C9B C9 1_555 1_555
O5B C8B 1_555 1_555
O6B C8B 1_555 1_555
H4B C9B 1_555 1_555
H5B C9B 1_555 1_555
Er1B O4 1_555 1_555
C1B C2B 1_555 1_555
C2B C3B 1_555 1_555
C3B N1B 1_555 1_555
C4B C5B 1_555 1_555
C5B C6B 1_555 1_555
C6B C2B 1_555 1_555
C7B C5B 1_555 1_555
N1B C4B 1_555 1_555
O1B Er1B 1_555 1_555
O2B Er1B 1_555 1_555
O3B C7B 1_555 1_555
O4B Er1 1_555 1_555
O7B Er1B 1_555 1_555
O8B Er1B 1_555 1_555
O9B Er1B 1_555 1_555
H1B C3B 1_555 1_555
H2B C4B 1_555 1_555
H3B C6B 1_555 1_555
H6B O7B 1_555 1_555
H7B O7B 1_555 1_555
H8B O8B 1_555 1_555
H9B O8B 1_555 1_555
H10B O9B 1_555 1_555
H11B O9B 1_555 1_555
Er1A O3 1_555 1_555
Er1B_2 O5B 1_555 1_555
Er1C O3B 1_555 1_555
O3A Er1 1_555 1_555
O3C Er1B 1_555 1_555
O5B_2 Er1B 1_555 1_555
O6B_2 Er1B 1_555 1_555
C1 O2 1_555 1_555
C8 O5 1_555 1_555
C8 O6 1_555 1_555
O6B Er1B_2 1_555 1_555
C1B O1B 1_555 1_555
C1B O2B 1_555 1_555
C7B O4B 1_555 1_555

#END
