
#######################################################################
#
#                 Cambridge Crystallographic Data Centre
#                                CCDC 
#
#######################################################################
#
# If this CIF has been generated from an entry in the Cambridge 
# Structural Database, then it will include bibliographic, chemical, 
# crystal, experimental, refinement or atomic coordinate data resulting 
# from the CCDC's data processing and validation procedures.
#
#######################################################################

data_ZOHCEG
_symmetry_cell_setting           triclinic
_symmetry_space_group_name_H-M   'P -1'
_symmetry_Int_Tables_number      2
_space_group_name_Hall           '-P 1'
loop_
_symmetry_equiv_pos_site_id
_symmetry_equiv_pos_as_xyz
1 x,y,z
2 -x,-y,-z
_cell_length_a                   5.3400(8)
_cell_length_b                   8.9530(14)
_cell_length_c                   15.655(2)
_cell_angle_alpha                104.760(2)
_cell_angle_beta                 93.015(2)
_cell_angle_gamma                97.273(2)
_cell_volume                     715.115
loop_
_atom_site_label
_atom_site_type_symbol
_atom_site_fract_x
_atom_site_fract_y
_atom_site_fract_z
Lu1 Lu 0.97009(5) 0.36274(3) 0.237090(17)
C1 C 0.6979(13) 0.2773(8) 0.0708(4)
C2 C 0.5348(12) 0.2517(8) -0.0134(4)
C3 C 0.3160(13) 0.1472(7) -0.0340(4)
H1 H 0.2789 0.0840 0.0038
C4 C 0.2045(12) 0.2214(8) -0.1604(5)
H2 H 0.0927 0.2124 -0.2096
C5 C 0.4258(12) 0.3301(8) -0.1446(4)
C6 C 0.5947(12) 0.3430(7) -0.0724(4)
H3 H 0.7461 0.4113 -0.0629
C7 C 0.4791(13) 0.4325(7) -0.2055(4)
C8 C 1.2592(14) 0.4745(9) 0.3981(4)
C9 C 1.4466(19) 0.5517(10) 0.4789(6)
H4 H 1.5837 0.6156 0.4608
H5 H 1.3612 0.6210 0.5221
N1 N 0.1497(11) 0.1293(7) -0.1056(4)
O1 O 0.6234(9) 0.2100(6) 0.1294(3)
O2 O 0.9030(9) 0.3671(6) 0.0845(3)
O3 O 0.2936(9) 0.4594(6) -0.2506(3)
O4 O 0.7046(9) 0.4854(7) -0.2082(4)
O5 O 1.2747(9) 0.3391(6) 0.3501(3)
O6 O 1.0906(10) 0.5473(6) 0.3767(3)
O7 O 0.7192(9) 0.2325(6) 0.3151(3)
H6 H 0.7975 0.2375 0.3647
H7 H 0.6839 0.1369 0.2866
O8 O 1.1464(9) 0.1471(6) 0.1760(3)
H8 H 1.0554 0.0931 0.1296
H9 H 1.1531 0.0916 0.2125
C8A C 1.7408(14) 0.5255(9) 0.6019(4)
C9A C 1.5534(19) 0.4483(10) 0.5211(6)
H4A H 1.4163 0.3844 0.5392
H5A H 1.6388 0.3790 0.4779
O5A O 1.7253(9) 0.6609(6) 0.6499(3)
O6A O 1.9094(10) 0.4527(6) 0.6233(3)
Lu1A Lu 0.02991(5) 0.63726(3) -0.237090(17)
C1A C 0.3021(13) 0.7227(8) -0.0708(4)
C2A C 0.4652(12) 0.7483(8) 0.0134(4)
C3A C 0.6840(13) 0.8528(7) 0.0340(4)
H1A H 0.7211 0.9160 -0.0038
C4A C 0.7955(12) 0.7786(8) 0.1604(5)
H2A H 0.9073 0.7876 0.2096
C5A C 0.5742(12) 0.6699(8) 0.1446(4)
C6A C 0.4053(12) 0.6570(7) 0.0724(4)
H3A H 0.2539 0.5887 0.0629
C7A C 0.5209(13) 0.5675(7) 0.2055(4)
N1A N 0.8503(11) 0.8707(7) 0.1056(4)
O1A O 0.3766(9) 0.7900(6) -0.1294(3)
O2A O 0.0970(9) 0.6329(6) -0.0845(3)
O3A O 0.7064(9) 0.5406(6) 0.2506(3)
O4A O 0.2954(9) 0.5146(7) 0.2082(4)
O7A O 0.2808(9) 0.7675(6) -0.3151(3)
H6A H 0.2025 0.7625 -0.3647
H7A H 0.3161 0.8631 -0.2866
O8A O -0.1464(9) 0.8529(6) -0.1760(3)
H8A H -0.0554 0.9069 -0.1296
H9A H -0.1531 0.9084 -0.2125
Lu1_2 Lu -0.02991(5) 0.36274(3) 0.237090(17)
Lu1A_2 Lu 1.02991(5) 0.63726(3) -0.237090(17)
Lu1A_3 Lu 2.02991(5) 0.63726(3) 0.762910(17)
O4_2 O -0.2954(9) 0.4854(7) -0.2082(4)
O4A_2 O 1.2954(9) 0.5146(7) 0.2082(4)
O5A_2 O -0.2747(9) 0.6609(6) -0.3501(3)
O6A_2 O -0.0906(10) 0.4527(6) -0.3767(3)
O9 O 0.7470(17) 0.0067(8) 0.4047(4)
H10 H 0.6048 -0.0478 0.4050
H11 H 0.7721 0.0858 0.4494
O10 O 0.8017(19) 0.1340(9) 0.5946(4)
H12 H 0.9177 0.0772 0.5949
H13 H 0.8268 0.2131 0.6393
loop_
_geom_bond_atom_site_label_1
_geom_bond_atom_site_label_2
_geom_bond_site_symmetry_1
_geom_bond_site_symmetry_2
Lu1 O1 1_555 1_555
C1 C2 1_555 1_555
C2 C3 1_555 1_555
C3 H1 1_555 1_555
C4 H2 1_555 1_555
C5 C4 1_555 1_555
C6 C2 1_555 1_555
H3 C6 1_555 1_555
C7 C5 1_555 1_555
C8 C9 1_555 1_555
C9 H4 1_555 1_555
H5 C9 1_555 1_555
N1 C3 1_555 1_555
O1 C1 1_555 1_555
O2 Lu1 1_555 1_555
O3 C7 1_555 1_555
O4 C7 1_555 1_555
O5 Lu1 1_555 1_555
O6 Lu1 1_555 1_555
O7 Lu1 1_555 1_555
H6 O7 1_555 1_555
H7 O7 1_555 1_555
O8 Lu1 1_555 1_555
H8 O8 1_555 1_555
H9 O8 1_555 1_555
O9 H10 1_555 1_555
H11 O9 1_555 1_555
O10 H12 1_555 1_555
H13 O10 1_555 1_555
C8A C9A 1_555 1_555
C9A C9 1_555 1_555
H4A C9A 1_555 1_555
H5A C9A 1_555 1_555
O5A C8A 1_555 1_555
O6A C8A 1_555 1_555
Lu1A O3 1_555 1_555
C1A C2A 1_555 1_555
C2A C3A 1_555 1_555
C3A H1A 1_555 1_555
C4A H2A 1_555 1_555
C5A C4A 1_555 1_555
C6A C2A 1_555 1_555
H3A C6A 1_555 1_555
C7A C5A 1_555 1_555
N1A C3A 1_555 1_555
O1A Lu1A 1_555 1_555
O2A Lu1A 1_555 1_555
O3A Lu1 1_555 1_555
O4A C7A 1_555 1_555
O7A Lu1A 1_555 1_555
H6A O7A 1_555 1_555
H7A O7A 1_555 1_555
O8A Lu1A 1_555 1_555
H8A O8A 1_555 1_555
H9A O8A 1_555 1_555
Lu1_2 O4A 1_555 1_555
Lu1A_2 O4 1_555 1_555
Lu1A_3 O5A 1_555 1_555
O4_2 Lu1A 1_555 1_555
O4A_2 Lu1 1_555 1_555
O5A_2 Lu1A 1_555 1_555
O6A_2 Lu1A 1_555 1_555
C1 O2 1_555 1_555
C4 N1 1_555 1_555
C5 C6 1_555 1_555
C8 O5 1_555 1_555
C8 O6 1_555 1_555
O6A Lu1A_3 1_555 1_555
C1A O1A 1_555 1_555
C1A O2A 1_555 1_555
C4A N1A 1_555 1_555
C5A C6A 1_555 1_555
C7A O3A 1_555 1_555

#END
