
#######################################################################
#
#                 Cambridge Crystallographic Data Centre
#                                CCDC 
#
#######################################################################
#
# If this CIF has been generated from an entry in the Cambridge 
# Structural Database, then it will include bibliographic, chemical, 
# crystal, experimental, refinement or atomic coordinate data resulting 
# from the CCDC's data processing and validation procedures.
#
#######################################################################

data_ZOHCAC
_symmetry_cell_setting           triclinic
_symmetry_space_group_name_H-M   'P -1'
_symmetry_Int_Tables_number      2
_space_group_name_Hall           '-P 1'
loop_
_symmetry_equiv_pos_site_id
_symmetry_equiv_pos_as_xyz
1 x,y,z
2 -x,-y,-z
_cell_length_a                   5.3448(6)
_cell_length_b                   8.9517(10)
_cell_length_c                   15.6623(18)
_cell_angle_alpha                104.9120(10)
_cell_angle_beta                 93.0360(10)
_cell_angle_gamma                97.1570(10)
_cell_volume                     715.654
loop_
_atom_site_label
_atom_site_type_symbol
_atom_site_fract_x
_atom_site_fract_y
_atom_site_fract_z
Yb1 Yb 0.03059(4) 0.63775(2) 0.263059(12)
C1 C 0.3020(9) 0.7229(5) 0.4297(3)
C2 C 0.4658(9) 0.7468(5) 0.5144(3)
C3 C 0.6869(10) 0.8529(6) 0.5347(3)
H1 H 0.7254 0.9154 0.4967
N1 N 0.8474(8) 0.8699(5) 0.6060(3)
C4 C 0.7933(9) 0.7763(6) 0.6586(3)
H2 H 0.9087 0.7825 0.7064
C5 C 0.5715(9) 0.6697(5) 0.6451(3)
C6 C 0.5219(9) 0.5683(5) 0.7065(3)
C7 C -0.2575(10) 0.5263(6) 0.1016(3)
C8 C -0.4444(14) 0.4477(7) 0.0226(4)
H3 H -0.3604 0.3764 -0.0202
H4 H -0.5808 0.3856 0.0419
C9 C 0.4047(9) 0.6573(5) 0.5725(3)
H5 H 0.2530 0.5896 0.5627
O1 O 0.3769(6) 0.7905(4) 0.3710(2)
O2 O 0.0966(7) 0.6323(4) 0.4157(2)
O3 O 0.7041(6) 0.5400(4) 0.7501(2)
O4 O 0.2953(7) 0.5163(4) 0.7092(3)
O5 O -0.2745(6) 0.6617(4) 0.1491(2)
O6 O -0.0891(7) 0.4527(4) 0.1226(2)
O7 O 0.2853(7) 0.7687(4) 0.1850(2)
H6 H 0.3212 0.8641 0.2140
H7 H 0.2070 0.7645 0.1356
O8 O -0.1471(7) 0.8532(4) 0.3240(2)
H8 H -0.2898 0.8267 0.3367
H9 H -0.092(13) 0.946(7) 0.350(4)
C7A C -0.7425(10) 0.4737(6) -0.1016(3)
C8A C -0.5556(14) 0.5523(7) -0.0226(4)
H3A H -0.6396 0.6236 0.0202
H4A H -0.4192 0.6144 -0.0419
O5A O -0.7255(6) 0.3383(4) -0.1491(2)
O6A O -0.9109(7) 0.5473(4) -0.1226(2)
Yb1A Yb -1.03059(4) 0.36225(2) -0.263059(12)
C1A C -1.3020(9) 0.2771(5) -0.4297(3)
C2A C -1.4658(9) 0.2532(5) -0.5144(3)
C3A C -1.6869(10) 0.1471(6) -0.5347(3)
H1A H -1.7254 0.0846 -0.4967
N1A N -1.8474(8) 0.1301(5) -0.6060(3)
C4A C -1.7933(9) 0.2237(6) -0.6586(3)
H2A H -1.9087 0.2175 -0.7064
C5A C -1.5715(9) 0.3303(5) -0.6451(3)
C6A C -1.5219(9) 0.4317(5) -0.7065(3)
C9A C -1.4047(9) 0.3427(5) -0.5725(3)
H5A H -1.2530 0.4104 -0.5627
O1A O -1.3769(6) 0.2095(4) -0.3710(2)
O2A O -1.0966(7) 0.3677(4) -0.4157(2)
O3A O -1.7041(6) 0.4600(4) -0.7501(2)
O4A O -1.2953(7) 0.4837(4) -0.7092(3)
O7A O -1.2853(7) 0.2313(4) -0.1850(2)
H6A H -1.3212 0.1359 -0.2140
H7A H -1.2070 0.2355 -0.1356
O8A O -0.8529(7) 0.1468(4) -0.3240(2)
H8A H -0.7102 0.1733 -0.3367
H9A H -0.908(13) 0.054(7) -0.350(4)
Yb1_2 Yb -1.96941(4) 0.63775(2) -0.736941(12)
Yb1_3 Yb -0.96941(4) 0.63775(2) -0.736941(12)
Yb1A_2 Yb -0.03059(4) 0.36225(2) 0.736941(12)
Yb1A_3 Yb 0.96941(4) 0.36225(2) 0.736941(12)
O3_2 O -1.2959(6) 0.5400(4) -0.2499(2)
O3A_2 O 0.2959(6) 0.4600(4) 0.2499(2)
O4_2 O -0.7047(7) 0.5163(4) -0.2908(3)
O4A_2 O -0.2953(7) 0.4837(4) 0.2908(3)
O9 O 0.8064(14) 0.1340(6) 0.0915(4)
H10 H 0.7190 0.2059 0.1124
H11 H 0.8119 0.0687 0.1223
O10 O 0.2537(12) 0.9946(6) 0.0967(3)
H12 H 0.3953 1.0485 0.0952
H13 H 0.2286 0.9130 0.0534
loop_
_geom_bond_atom_site_label_1
_geom_bond_atom_site_label_2
_geom_bond_site_symmetry_1
_geom_bond_site_symmetry_2
Yb1 O1 1_555 1_555
C1 C2 1_555 1_555
C2 C3 1_555 1_555
C3 H1 1_555 1_555
N1 C3 1_555 1_555
C4 N1 1_555 1_555
H2 C4 1_555 1_555
C5 C4 1_555 1_555
C6 C5 1_555 1_555
C7 C8 1_555 1_555
C8 H3 1_555 1_555
H4 C8 1_555 1_555
C9 C2 1_555 1_555
H5 C9 1_555 1_555
O1 C1 1_555 1_555
O2 Yb1 1_555 1_555
O3 C6 1_555 1_555
O4 C6 1_555 1_555
O5 Yb1 1_555 1_555
O6 Yb1 1_555 1_555
O7 Yb1 1_555 1_555
H6 O7 1_555 1_555
H7 O7 1_555 1_555
O8 Yb1 1_555 1_555
H8 O8 1_555 1_555
H9 O8 1_555 1_555
O9 H10 1_555 1_555
H11 O9 1_555 1_555
O10 H12 1_555 1_555
H13 O10 1_555 1_555
C7A C8A 1_555 1_555
C8A C8 1_555 1_555
H3A C8A 1_555 1_555
H4A C8A 1_555 1_555
O5A C7A 1_555 1_555
O6A C7A 1_555 1_555
Yb1A O5A 1_555 1_555
C1A C2A 1_555 1_555
C2A C3A 1_555 1_555
C3A H1A 1_555 1_555
N1A C3A 1_555 1_555
C4A N1A 1_555 1_555
H2A C4A 1_555 1_555
C5A C4A 1_555 1_555
C6A C5A 1_555 1_555
C9A C2A 1_555 1_555
H5A C9A 1_555 1_555
O1A Yb1A 1_555 1_555
O2A Yb1A 1_555 1_555
O3A C6A 1_555 1_555
O4A C6A 1_555 1_555
O7A Yb1A 1_555 1_555
H6A O7A 1_555 1_555
H7A O7A 1_555 1_555
O8A Yb1A 1_555 1_555
H8A O8A 1_555 1_555
H9A O8A 1_555 1_555
Yb1_2 O3A 1_555 1_555
Yb1_3 O4A 1_555 1_555
Yb1A_2 O4 1_555 1_555
Yb1A_3 O3 1_555 1_555
O3_2 Yb1A 1_555 1_555
O3A_2 Yb1 1_555 1_555
O4_2 Yb1A 1_555 1_555
O4A_2 Yb1 1_555 1_555
C1 O2 1_555 1_555
C5 C9 1_555 1_555
C7 O5 1_555 1_555
C7 O6 1_555 1_555
O6A Yb1A 1_555 1_555
C1A O1A 1_555 1_555
C1A O2A 1_555 1_555
C5A C9A 1_555 1_555

#END
