
#######################################################################
#
#                 Cambridge Crystallographic Data Centre
#                                CCDC 
#
#######################################################################
#
# If this CIF has been generated from an entry in the Cambridge 
# Structural Database, then it will include bibliographic, chemical, 
# crystal, experimental, refinement or atomic coordinate data resulting 
# from the CCDC's data processing and validation procedures.
#
#######################################################################

data_ZOHMIU
_symmetry_cell_setting           triclinic
_symmetry_space_group_name_H-M   'P -1'
_symmetry_Int_Tables_number      2
_space_group_name_Hall           '-P 1'
loop_
_symmetry_equiv_pos_site_id
_symmetry_equiv_pos_as_xyz
1 x,y,z
2 -x,-y,-z
_cell_length_a                   8.8825(3)
_cell_length_b                   10.5610(4)
_cell_length_c                   12.2541(5)
_cell_angle_alpha                71.724(3)
_cell_angle_beta                 80.582(4)
_cell_angle_gamma                84.974(3)
_cell_volume                     1076.03
loop_
_atom_site_label
_atom_site_type_symbol
_atom_site_fract_x
_atom_site_fract_y
_atom_site_fract_z
Cu1 Cu 0.67620(2) 0.02804(2) 0.43636(2)
N1 N 0.83199(14) -0.07966(13) 0.36463(11)
C1 C 0.92158(17) -0.16286(16) 0.43799(15)
C2 C 1.02475(19) -0.25364(18) 0.40281(17)
H1 H 1.0856 -0.3127 0.4556
C3 C 1.0379(2) -0.2570(2) 0.28951(18)
H2 H 1.1082 -0.3183 0.2637
C4 C 0.9480(2) -0.17036(19) 0.21448(17)
H3 H 0.9563 -0.1704 0.1362
C5 C 0.84563(19) -0.08370(17) 0.25537(15)
H4 H 0.7827 -0.0249 0.2041
N2 N 0.78358(15) -0.05943(13) 0.57302(11)
C6 C 0.89765(17) -0.14788(15) 0.55611(14)
C7 C 0.98343(19) -0.21505(18) 0.64309(16)
H5 H 1.0631 -0.2770 0.6300
C8 C 0.9517(2) -0.19086(19) 0.74950(16)
H6 H 1.0092 -0.2361 0.8102
C9 C 0.83545(19) -0.10028(17) 0.76607(15)
H7 H 0.8122 -0.0822 0.8383
C10 C 0.75326(19) -0.03618(16) 0.67625(14)
H8 H 0.6731 0.0261 0.6879
C11 C 0.45825(19) 0.31347(16) 0.14602(14)
C12 C 0.44649(18) 0.29425(16) 0.03834(14)
C13 C 0.5597(2) 0.22925(18) -0.01953(14)
C14 C 0.3582(2) 0.40499(17) 0.18925(15)
N3 N 0.2789(2) 0.47836(18) 0.22640(16)
C15 C 0.54965(18) 0.22554(16) 0.22276(14)
N4 N 0.62068(17) 0.15319(14) 0.28773(12)
O1 O 0.31363(13) 0.34181(12) 0.00000(10)
C16 C 0.3025(2) 0.38306(19) -0.12369(15)
H9 H 0.2851 0.3052 -0.1481
H10 H 0.3977 0.4247 -0.1697
C17 C 0.1697(3) 0.4819(2) -0.14135(19)
H11 H 0.1895 0.5591 -0.1184
H12 H 0.0769 0.4399 -0.0938
H13 H 0.1560 0.5113 -0.2234
C18 C 0.5301(2) 0.1641(2) -0.09915(16)
N5 N 0.5069(2) 0.1076(2) -0.16029(17)
C19 C 0.7124(2) 0.2165(2) 0.00508(15)
N6 N 0.83659(19) 0.2075(2) 0.02288(14)
O2 O 0.51673(12) 0.11565(10) 0.51947(9)
O3 O 0.68662(13) 0.27034(12) 0.47807(12)
C20 C 0.55653(18) 0.23265(15) 0.51653(13)
C21 C 0.43386(19) 0.31663(16) 0.56424(15)
H14 H 0.3959 0.2665 0.6457
H15 H 0.3474 0.3312 0.5193
C22 C 0.4852(2) 0.45202(15) 0.56094(14)
H16 H 0.4056 0.4922 0.6080
H17 H 0.5798 0.4387 0.5968
O2A O 0.48327(12) 0.88435(10) 0.48053(9)
O3A O 0.31338(13) 0.72966(12) 0.52193(12)
C20A C 0.44347(18) 0.76735(15) 0.48347(13)
C21A C 0.56614(19) 0.68337(16) 0.43576(15)
H14A H 0.6041 0.7335 0.3543
H15A H 0.6526 0.6688 0.4807
C22A C 0.5148(2) 0.54798(15) 0.43906(14)
H16A H 0.5944 0.5078 0.3920
H17A H 0.4202 0.5613 0.4032
Cu1A Cu 0.32380(2) -0.02804(2) 0.56364(2)
N1A N 0.16801(14) 0.07966(13) 0.63537(11)
C1A C 0.07842(17) 0.16286(16) 0.56201(15)
C2A C -0.02475(19) 0.25364(18) 0.59719(17)
H1A H -0.0856 0.3127 0.5444
C3A C -0.0379(2) 0.2570(2) 0.71049(18)
H2A H -0.1082 0.3183 0.7363
C4A C 0.0520(2) 0.17036(19) 0.78552(17)
H3A H 0.0437 0.1704 0.8638
C5A C 0.15437(19) 0.08370(17) 0.74463(15)
H4A H 0.2173 0.0249 0.7959
N2A N 0.21642(15) 0.05943(13) 0.42698(11)
C6A C 0.10235(17) 0.14788(15) 0.44389(14)
C7A C 0.01657(19) 0.21505(18) 0.35691(16)
H5A H -0.0631 0.2770 0.3700
C8A C 0.0483(2) 0.19086(19) 0.25050(16)
H6A H -0.0092 0.2361 0.1898
C9A C 0.16455(19) 0.10028(17) 0.23393(15)
H7A H 0.1878 0.0822 0.1617
C10A C 0.24674(19) 0.03618(16) 0.32375(14)
H8A H 0.3269 -0.0261 0.3121
C11A C 0.54175(19) -0.31347(16) 0.85398(14)
C12A C 0.55351(18) -0.29425(16) 0.96166(14)
C13A C 0.4403(2) -0.22925(18) 1.01953(14)
C14A C 0.6418(2) -0.40499(17) 0.81075(15)
N3A N 0.7211(2) -0.47836(18) 0.77360(16)
C15A C 0.45035(18) -0.22554(16) 0.77724(14)
N4A N 0.37932(17) -0.15319(14) 0.71227(12)
O1A O 0.68637(13) -0.34181(12) 1.00000(10)
C16A C 0.6975(2) -0.38306(19) 1.12369(15)
H9A H 0.7149 -0.3052 1.1481
H10A H 0.6023 -0.4247 1.1697
C17A C 0.8303(3) -0.4819(2) 1.14135(19)
H11A H 0.8105 -0.5591 1.1184
H12A H 0.9231 -0.4399 1.0938
H13A H 0.8440 -0.5113 1.2234
C18A C 0.4699(2) -0.1641(2) 1.09915(16)
N5A N 0.4931(2) -0.1076(2) 1.16029(17)
C19A C 0.2876(2) -0.2165(2) 0.99492(15)
N6A N 0.16341(19) -0.2075(2) 0.97712(14)
Cu1_2 Cu 0.67620(2) 1.02804(2) 0.43636(2)
Cu1A_2 Cu 0.32380(2) 0.97196(2) 0.56364(2)
O2A_2 O 0.48327(12) -0.11565(10) 0.48053(9)
O3A_2 O 0.31338(13) -0.27034(12) 0.52193(12)
loop_
_geom_bond_atom_site_label_1
_geom_bond_atom_site_label_2
_geom_bond_site_symmetry_1
_geom_bond_site_symmetry_2
Cu1 N1 1_555 1_555
N1 C1 1_555 1_555
C1 C2 1_555 1_555
C2 H1 1_555 1_555
C3 C2 1_555 1_555
H2 C3 1_555 1_555
C4 C3 1_555 1_555
H3 C4 1_555 1_555
C5 N1 1_555 1_555
H4 C5 1_555 1_555
N2 Cu1 1_555 1_555
C6 C1 1_555 1_555
C7 C6 1_555 1_555
H5 C7 1_555 1_555
C8 C7 1_555 1_555
H6 C8 1_555 1_555
C9 C8 1_555 1_555
H7 C9 1_555 1_555
C10 N2 1_555 1_555
H8 C10 1_555 1_555
C11 C12 1_555 1_555
C12 C13 1_555 1_555
C13 C18 1_555 1_555
C14 C11 1_555 1_555
N3 C14 1_555 1_555
C15 C11 1_555 1_555
N4 Cu1 1_555 1_555
O1 C12 1_555 1_555
C16 O1 1_555 1_555
H9 C16 1_555 1_555
H10 C16 1_555 1_555
C17 C16 1_555 1_555
H11 C17 1_555 1_555
H12 C17 1_555 1_555
H13 C17 1_555 1_555
C18 N5 1_555 1_555
C19 C13 1_555 1_555
N6 C19 1_555 1_555
O2 Cu1 1_555 1_555
O3 Cu1 1_555 1_555
C20 O2 1_555 1_555
C21 C20 1_555 1_555
H14 C21 1_555 1_555
H15 C21 1_555 1_555
C22 C21 1_555 1_555
H16 C22 1_555 1_555
H17 C22 1_555 1_555
O2A C20A 1_555 1_555
O3A C20A 1_555 1_555
C20A C21A 1_555 1_555
C21A H14A 1_555 1_555
H15A C21A 1_555 1_555
C22A C22 1_555 1_555
H16A C22A 1_555 1_555
H17A C22A 1_555 1_555
Cu1A O2 1_555 1_555
N1A Cu1A 1_555 1_555
C1A N1A 1_555 1_555
C2A C1A 1_555 1_555
H1A C2A 1_555 1_555
C3A C2A 1_555 1_555
H2A C3A 1_555 1_555
C4A C3A 1_555 1_555
H3A C4A 1_555 1_555
C5A N1A 1_555 1_555
H4A C5A 1_555 1_555
N2A Cu1A 1_555 1_555
C6A C1A 1_555 1_555
C7A C6A 1_555 1_555
H5A C7A 1_555 1_555
C8A C7A 1_555 1_555
H6A C8A 1_555 1_555
C9A C8A 1_555 1_555
H7A C9A 1_555 1_555
C10A N2A 1_555 1_555
H8A C10A 1_555 1_555
C11A C12A 1_555 1_555
C12A C13A 1_555 1_555
C13A C18A 1_555 1_555
C14A C11A 1_555 1_555
N3A C14A 1_555 1_555
C15A C11A 1_555 1_555
N4A Cu1A 1_555 1_555
O1A C12A 1_555 1_555
C16A O1A 1_555 1_555
H9A C16A 1_555 1_555
H10A C16A 1_555 1_555
C17A C16A 1_555 1_555
H11A C17A 1_555 1_555
H12A C17A 1_555 1_555
H13A C17A 1_555 1_555
C18A N5A 1_555 1_555
C19A C13A 1_555 1_555
N6A C19A 1_555 1_555
Cu1_2 O2A 1_555 1_555
Cu1A_2 O2A 1_555 1_555
O2A_2 Cu1 1_555 1_555
O3A_2 Cu1A 1_555 1_555
C4 C5 1_555 1_555
N2 C6 1_555 1_555
C9 C10 1_555 1_555
C15 N4 1_555 1_555
O3 C20 1_555 1_555
O3A Cu1A_2 1_555 1_555
C21A C22A 1_555 1_555
Cu1A O2A_2 1_555 1_555
C4A C5A 1_555 1_555
N2A C6A 1_555 1_555
C9A C10A 1_555 1_555
C15A N4A 1_555 1_555

#END
