
#######################################################################
#
#                 Cambridge Crystallographic Data Centre
#                                CCDC 
#
#######################################################################
#
# If this CIF has been generated from an entry in the Cambridge 
# Structural Database, then it will include bibliographic, chemical, 
# crystal, experimental, refinement or atomic coordinate data resulting 
# from the CCDC's data processing and validation procedures.
#
#######################################################################

data_ZOHPUJ
_symmetry_cell_setting           monoclinic
_symmetry_space_group_name_H-M   'P 21/c'
_symmetry_Int_Tables_number      14
_space_group_name_Hall           '-P 2ybc'
loop_
_symmetry_equiv_pos_site_id
_symmetry_equiv_pos_as_xyz
1 x,y,z
2 -x,1/2+y,1/2-z
3 -x,-y,-z
4 x,1/2-y,1/2+z
_cell_length_a                   16.3972(5)
_cell_length_b                   14.1233(3)
_cell_length_c                   20.3576(6)
_cell_angle_alpha                90
_cell_angle_beta                 109.200(2)
_cell_angle_gamma                90
_cell_volume                     4452.23
loop_
_atom_site_label
_atom_site_type_symbol
_atom_site_fract_x
_atom_site_fract_y
_atom_site_fract_z
C1 C 0.5832(7) 0.4125(8) 0.4531(5)
C2 C 0.3982(7) 0.2657(7) 0.6016(5)
C3 C 0.6467(6) 0.2231(8) 0.6563(5)
H1 H 0.5969 0.2189 0.6686
C4 C 0.7247(6) 0.2356(7) 0.7089(5)
H2 H 0.7272 0.2417 0.7550
C5 C 0.7992(5) 0.2390(7) 0.6908(4)
C6 C 0.7918(6) 0.2323(8) 0.6218(5)
H3 H 0.8404 0.2346 0.6079
C7 C 0.7096(6) 0.2219(8) 0.5730(5)
H4 H 0.7045 0.2184 0.5262
C8 C 0.8872(6) 0.2480(8) 0.7454(4)
C9 C 0.8939(8) 0.2681(12) 0.8173(5)
H5 H 0.8679 0.2175 0.8349
H6 H 0.8646 0.3263 0.8192
H7 H 0.9537 0.2737 0.8451
C10 C 1.3344(6) 0.2415(8) 0.8374(5)
H8 H 1.3835 0.2370 0.8243
C11 C 1.2555(6) 0.2389(9) 0.7861(5)
H9 H 1.2516 0.2347 0.7396
C12 C 1.1813(6) 0.2427(7) 0.8050(4)
C13 C 1.1920(6) 0.2489(9) 0.8743(5)
H10 H 1.1440 0.2505 0.8891
C14 C 1.2735(6) 0.2527(9) 0.9219(5)
H11 H 1.2793 0.2573 0.9688
C15 C 1.0945(6) 0.2396(8) 0.7508(5)
C16 C 1.0862(8) 0.2383(13) 0.6766(5)
H12 H 1.0435 0.2838 0.6520
H13 H 1.1407 0.2540 0.6715
H14 H 1.0688 0.1763 0.6579
N1 N 0.5402(7) 0.3556(7) 0.4670(5)
N2 N 0.4459(6) 0.2598(7) 0.5709(4)
N3 N 0.6387(4) 0.2167(6) 0.5899(4)
N4 N 1.3451(5) 0.2501(7) 0.9043(4)
N5 N 0.9509(5) 0.2348(8) 0.7222(4)
N6 N 1.0317(5) 0.2399(8) 0.7752(4)
S1 S 0.6406(2) 0.4954(2) 0.43512(15)
S2 S 0.3317(3) 0.2784(3) 0.6440(2)
Pb1 Pb 0.49872(2) 0.19700(3) 0.485920(17)
N4C N 0.3451(5) 0.2499(7) 0.4043(4)
Pb1C Pb 1.49872(2) 0.30300(3) 0.985920(17)
C17 C 0.4424(6) 0.4792(7) 0.0925(5)
C18 C 0.5612(7) 0.2880(7) 0.3077(6)
C19 C 0.7669(7) 0.5010(9) 0.3001(6)
H15 H 0.7641 0.4973 0.3449
C20 C 0.8467(6) 0.4989(9) 0.2916(5)
H16 H 0.8962 0.4933 0.3303
C21 C 0.8538(6) 0.5048(7) 0.2266(5)
C22 C 0.7779(6) 0.5112(8) 0.1707(5)
H17 H 0.7789 0.5149 0.1253
C23 C 0.7003(6) 0.5118(8) 0.1844(5)
H18 H 0.6496 0.5150 0.1466
C24 C 0.9395(6) 0.5044(8) 0.2163(5)
C25 C 0.9451(7) 0.5034(10) 0.1441(5)
H19 H 1.0030 0.4886 0.1463
H20 H 0.9294 0.5646 0.1231
H21 H 0.9063 0.4565 0.1166
C26 C 1.3243(7) 0.4993(9) 0.2368(6)
H22 H 1.3285 0.4910 0.1927
C27 C 1.2435(6) 0.4978(9) 0.2433(6)
H23 H 1.1948 0.4898 0.2043
C28 C 1.2351(5) 0.5082(7) 0.3080(5)
C29 C 1.3109(6) 0.5220(8) 0.3629(5)
H24 H 1.3089 0.5294 0.4078
C30 C 1.3874(6) 0.5246(9) 0.3518(6)
H25 H 1.4367 0.5361 0.3897
C31 C 1.1483(6) 0.5087(7) 0.3173(5)
C32 C 1.1418(7) 0.5119(12) 0.3866(6)
H26 H 1.1206 0.5728 0.3943
H27 H 1.1978 0.5015 0.4204
H28 H 1.1028 0.4636 0.3911
N7 N 0.4881(6) 0.4782(7) 0.1492(5)
N8 N 0.5538(8) 0.3609(8) 0.2847(5)
N9 N 0.6934(5) 0.5083(6) 0.2468(4)
N10 N 1.3967(5) 0.5118(7) 0.2897(5)
N11 N 1.0045(5) 0.5066(7) 0.2724(5)
N12 N 1.0834(5) 0.5066(7) 0.2607(4)
S3 S 0.3801(2) 0.4818(2) 0.01203(15)
S4 S 0.5706(3) 0.1844(2) 0.34176(18)
Pb2 Pb 0.54682(2) 0.53118(3) 0.273325(17)
N10_2 N 0.3967(5) 0.5118(7) 0.2897(5)
Pb2_2 Pb 1.54682(2) 0.53118(3) 0.273325(17)
loop_
_geom_bond_atom_site_label_1
_geom_bond_atom_site_label_2
_geom_bond_site_symmetry_1
_geom_bond_site_symmetry_2
C1 N1 1_555 1_555
C2 N2 1_555 1_555
C3 H1 1_555 1_555
C4 C3 1_555 1_555
H2 C4 1_555 1_555
C5 C4 1_555 1_555
C6 C5 1_555 1_555
H3 C6 1_555 1_555
C7 C6 1_555 1_555
H4 C7 1_555 1_555
C8 C5 1_555 1_555
C9 C8 1_555 1_555
H5 C9 1_555 1_555
H6 C9 1_555 1_555
H7 C9 1_555 1_555
C10 H8 1_555 1_555
C11 C10 1_555 1_555
H9 C11 1_555 1_555
C12 C11 1_555 1_555
C13 C12 1_555 1_555
H10 C13 1_555 1_555
C14 C13 1_555 1_555
H11 C14 1_555 1_555
C15 C12 1_555 1_555
C16 C15 1_555 1_555
H12 C16 1_555 1_555
H13 C16 1_555 1_555
H14 C16 1_555 1_555
N1 Pb1 1_555 1_555
N2 Pb1 1_555 1_555
N3 C3 1_555 1_555
N4 C10 1_555 1_555
N5 C8 1_555 1_555
N6 C15 1_555 1_555
S1 C1 1_555 1_555
S2 C2 1_555 1_555
Pb1 N3 1_555 1_555
C17 N7 1_555 1_555
C18 N8 1_555 1_555
C19 H15 1_555 1_555
C20 C19 1_555 1_555
H16 C20 1_555 1_555
C21 C20 1_555 1_555
C22 C21 1_555 1_555
H17 C22 1_555 1_555
C23 C22 1_555 1_555
H18 C23 1_555 1_555
C24 C21 1_555 1_555
C25 C24 1_555 1_555
H19 C25 1_555 1_555
H20 C25 1_555 1_555
H21 C25 1_555 1_555
C26 H22 1_555 1_555
C27 C26 1_555 1_555
H23 C27 1_555 1_555
C28 C27 1_555 1_555
C29 C28 1_555 1_555
H24 C29 1_555 1_555
C30 C29 1_555 1_555
H25 C30 1_555 1_555
C31 C28 1_555 1_555
C32 C31 1_555 1_555
H26 C32 1_555 1_555
H27 C32 1_555 1_555
H28 C32 1_555 1_555
N7 Pb2 1_555 1_555
N8 Pb2 1_555 1_555
N9 C19 1_555 1_555
N10 C26 1_555 1_555
N11 C24 1_555 1_555
N12 C31 1_555 1_555
S3 C17 1_555 1_555
S4 C18 1_555 1_555
Pb2 N9 1_555 1_555
N4C Pb1 1_555 1_555
Pb1C N4 1_555 1_555
N10_2 Pb2 1_555 1_555
Pb2_2 N10 1_555 1_555
C7 N3 1_555 1_555
C14 N4 1_555 1_555
N5 N6 1_555 1_555
C23 N9 1_555 1_555
C30 N10 1_555 1_555
N11 N12 1_555 1_555

#END
