
#######################################################################
#
#                 Cambridge Crystallographic Data Centre
#                                CCDC 
#
#######################################################################
#
# If this CIF has been generated from an entry in the Cambridge 
# Structural Database, then it will include bibliographic, chemical, 
# crystal, experimental, refinement or atomic coordinate data resulting 
# from the CCDC's data processing and validation procedures.
#
#######################################################################

data_ZOHPOD
_symmetry_cell_setting           triclinic
_symmetry_space_group_name_H-M   'P -1'
_symmetry_Int_Tables_number      2
_space_group_name_Hall           '-P 1'
loop_
_symmetry_equiv_pos_site_id
_symmetry_equiv_pos_as_xyz
1 x,y,z
2 -x,-y,-z
_cell_length_a                   7.8060(4)
_cell_length_b                   12.1582(6)
_cell_length_c                   20.5067(10)
_cell_angle_alpha                90.072(4)
_cell_angle_beta                 91.404(4)
_cell_angle_gamma                108.250(4)
_cell_volume                     1847.69
loop_
_atom_site_label
_atom_site_type_symbol
_atom_site_fract_x
_atom_site_fract_y
_atom_site_fract_z
C1 C 0.5810(7) 0.1971(5) 0.8992(3)
H1 H 0.4583 0.1873 0.9014
C2 C 0.6408(7) 0.1025(5) 0.9117(3)
H2 H 0.5595 0.0316 0.9231
C3 C 0.8236(6) 0.1151(4) 0.9071(3)
C4 C 0.9365(7) 0.2233(4) 0.8922(3)
H3 H 1.0600 0.2361 0.8896
C5 C 0.8664(7) 0.3130(5) 0.8811(3)
H4 H 0.9453 0.3854 0.8709
C6 C 0.8951(6) 0.0155(4) 0.9160(2)
C7 C 0.7722(8) -0.1008(5) 0.9322(4)
H5 H 0.8408 -0.1460 0.9516
H6 H 0.7119 -0.1387 0.8931
H7 H 0.6845 -0.0930 0.9623
C8 C 1.1582(13) -0.0385(7) 0.7931(3)
H8 H 1.1033 0.0214 0.7979
H9 H 1.0813 -0.0999 0.7663
H10 H 1.2729 -0.0073 0.7729
C9 C 1.1853(7) -0.0851(4) 0.8592(2)
C10 C 1.2713(6) -0.1788(4) 0.8636(2)
C11 C 1.2725(6) -0.2386(4) 0.9206(2)
H11 H 1.2222 -0.2197 0.9580
C12 C 1.3487(6) -0.3260(4) 0.9217(2)
H12 H 1.3457 -0.3666 0.9603
C13 C 1.4275(8) -0.2978(5) 0.8159(3)
H13 H 1.4820 -0.3168 0.7796
C14 C 1.3503(9) -0.2097(5) 0.8106(3)
H14 H 1.3522 -0.1717 0.7712
C15 C 0.7083(6) 0.5994(4) 1.0131(2)
C16 C 0.6332(7) 0.2833(5) 0.6766(3)
H15 H 0.6681 0.3086 0.7191
C17 C 0.4753(7) 0.1913(5) 0.6666(3)
H16 H 0.4059 0.1570 0.7018
C18 C 0.4225(6) 0.1514(4) 0.6034(2)
C19 C 0.5298(6) 0.2095(5) 0.5532(3)
H17 H 0.4984 0.1871 0.5100
C20 C 0.6824(7) 0.3000(6) 0.5680(3)
H18 H 0.7521 0.3381 0.5337
C21 C 0.2558(6) 0.0531(4) 0.5901(2)
C22 C 0.2230(7) -0.0012(6) 0.5236(3)
H19 H 0.1302 -0.0748 0.5254
H20 H 0.3322 -0.0121 0.5087
H21 H 0.1854 0.0485 0.4940
C23 C -0.1586(8) 0.0563(6) 0.6719(4)
H22 H -0.0460 0.0968 0.6935
H23 H -0.2542 0.0415 0.7024
H24 H -0.1814 0.1027 0.6369
C24 C -0.1496(6) -0.0558(4) 0.6450(2)
C25 C -0.3178(6) -0.1559(4) 0.6377(2)
C26 C -0.4870(6) -0.1406(5) 0.6375(3)
H25 H -0.4973 -0.0669 0.6422
C27 C -0.6390(6) -0.2351(5) 0.6304(3)
H26 H -0.7509 -0.2230 0.6295
C28 C -0.4693(7) -0.3576(5) 0.6247(3)
H27 H -0.4625 -0.4323 0.6206
C29 C -0.3125(6) -0.2672(5) 0.6303(3)
H28 H -0.2020 -0.2811 0.6291
C30 C 0.8988(7) 0.6094(5) 0.5146(3)
N1 N 0.6920(6) 0.3008(4) 0.8843(2)
N2 N 1.0635(5) 0.0387(4) 0.9066(2)
N3 N 1.1359(5) -0.0517(4) 0.9121(2)
N4 N 1.4268(6) -0.3561(4) 0.8705(2)
N5 N 0.6139(6) 0.6038(4) 1.0551(2)
N6 N 0.2541(7) 0.3481(4) 0.7536(2)
N7 N 0.7363(6) 0.3365(4) 0.6284(2)
N8 N 0.1504(5) 0.0220(4) 0.6377(2)
N9 N -0.0044(5) -0.0715(4) 0.6266(2)
N10 N -0.6342(5) -0.3427(4) 0.6249(2)
N11 N 0.9573(8) 0.5794(5) 0.5608(2)
N12 N 0.9099(6) 0.6169(4) 0.7559(2)
O1 O 0.3218(6) 0.2983(4) 0.7952(2)
O2 O 0.1137(8) 0.2964(4) 0.7239(3)
O3 O 0.3320(7) 0.4516(4) 0.7419(3)
O4 O 1.0151(6) 0.6645(4) 0.7127(2)
O5 O 0.8381(7) 0.6733(4) 0.7904(3)
O6 O 0.8783(8) 0.5116(4) 0.7654(3)
S1 S 0.84388(17) 0.59592(14) 0.95477(7)
S2 S 0.8193(3) 0.65568(19) 0.44915(9)
Pb1 Pb 0.58202(2) 0.479064(14) 0.854759(8)
Pb2 Pb 1.06833(2) 0.481515(15) 0.651452(8)
N4_2 N 0.4268(6) 0.6439(4) 0.8705(2)
N5A N 0.3861(6) 0.3962(4) 0.9449(2)
N10_2 N 1.3658(5) 0.6573(4) 0.6249(2)
O2_2 O 1.1137(8) 0.2964(4) 0.7239(3)
O3_2 O 1.3320(7) 0.4516(4) 0.7419(3)
S2A S 1.1807(3) 0.34432(19) 0.55085(9)
Pb1_2 Pb 1.58202(2) -0.520936(14) 0.854759(8)
Pb1A Pb 0.41798(2) 0.520936(14) 1.145241(8)
Pb2_2 Pb -0.93167(2) -0.518485(15) 0.651452(8)
Pb2_3 Pb 0.06833(2) 0.481515(15) 0.651452(8)
Pb2A Pb 0.93167(2) 0.518485(15) 0.348548(8)
loop_
_geom_bond_atom_site_label_1
_geom_bond_atom_site_label_2
_geom_bond_site_symmetry_1
_geom_bond_site_symmetry_2
C1 H1 1_555 1_555
C2 C1 1_555 1_555
H2 C2 1_555 1_555
C3 C2 1_555 1_555
C4 C3 1_555 1_555
H3 C4 1_555 1_555
C5 C4 1_555 1_555
H4 C5 1_555 1_555
C6 C3 1_555 1_555
C7 C6 1_555 1_555
H5 C7 1_555 1_555
H6 C7 1_555 1_555
H7 C7 1_555 1_555
C8 H8 1_555 1_555
H9 C8 1_555 1_555
H10 C8 1_555 1_555
C9 C8 1_555 1_555
C10 C9 1_555 1_555
C11 C10 1_555 1_555
H11 C11 1_555 1_555
C12 C11 1_555 1_555
H12 C12 1_555 1_555
C13 H13 1_555 1_555
C14 C10 1_555 1_555
H14 C14 1_555 1_555
C15 N5 1_555 1_555
C16 H15 1_555 1_555
C17 C16 1_555 1_555
H16 C17 1_555 1_555
C18 C17 1_555 1_555
C19 C18 1_555 1_555
H17 C19 1_555 1_555
C20 C19 1_555 1_555
H18 C20 1_555 1_555
C21 C18 1_555 1_555
C22 C21 1_555 1_555
H19 C22 1_555 1_555
H20 C22 1_555 1_555
H21 C22 1_555 1_555
C23 H22 1_555 1_555
H23 C23 1_555 1_555
H24 C23 1_555 1_555
C24 C23 1_555 1_555
C25 C24 1_555 1_555
C26 C25 1_555 1_555
H25 C26 1_555 1_555
C27 C26 1_555 1_555
H26 C27 1_555 1_555
C28 H27 1_555 1_555
C29 C25 1_555 1_555
H28 C29 1_555 1_555
C30 N11 1_555 1_555
N1 C1 1_555 1_555
N2 C6 1_555 1_555
N3 C9 1_555 1_555
N4 C12 1_555 1_555
N5 Pb1A 1_555 1_555
N6 O1 1_555 1_555
N7 C16 1_555 1_555
N8 C21 1_555 1_555
N9 C24 1_555 1_555
N10 C27 1_555 1_555
N11 Pb2 1_555 1_555
N12 O4 1_555 1_555
O1 Pb1 1_555 1_555
O2 N6 1_555 1_555
O3 N6 1_555 1_555
O4 Pb2 1_555 1_555
O5 N12 1_555 1_555
O6 N12 1_555 1_555
S1 C15 1_555 1_555
S2 C30 1_555 1_555
Pb1 N1 1_555 1_555
Pb2 N7 1_555 1_555
N4_2 Pb1 1_555 1_555
N5A Pb1 1_555 1_555
N10_2 Pb2 1_555 1_555
O2_2 Pb2 1_555 1_555
O3_2 Pb2 1_555 1_555
S2A Pb2 1_555 1_555
Pb1_2 N4 1_555 1_555
Pb2_2 N10 1_555 1_555
Pb2_3 O2 1_555 1_555
Pb2A S2 1_555 1_555
C5 N1 1_555 1_555
C13 C14 1_555 1_555
C13 N4 1_555 1_555
C20 N7 1_555 1_555
C28 C29 1_555 1_555
C28 N10 1_555 1_555
N2 N3 1_555 1_555
N8 N9 1_555 1_555
O3 Pb2_3 1_555 1_555
O5 Pb1 1_555 1_555
O6 Pb1 1_555 1_555
O6 Pb2 1_555 1_555
S1 Pb1 1_555 1_555

#END
