
#######################################################################
#
#                 Cambridge Crystallographic Data Centre
#                                CCDC 
#
#######################################################################
#
# If this CIF has been generated from an entry in the Cambridge 
# Structural Database, then it will include bibliographic, chemical, 
# crystal, experimental, refinement or atomic coordinate data resulting 
# from the CCDC's data processing and validation procedures.
#
#######################################################################

data_ZOHQIY
_symmetry_cell_setting           monoclinic
_symmetry_space_group_name_H-M   'C 2/c'
_symmetry_Int_Tables_number      15
_space_group_name_Hall           '-C 2yn'
loop_
_symmetry_equiv_pos_site_id
_symmetry_equiv_pos_as_xyz
1 x,y,z
2 -x,y,1/2-z
3 1/2+x,1/2+y,z
4 1/2-x,1/2+y,1/2-z
5 -x,-y,-z
6 x,-y,1/2+z
7 1/2-x,1/2-y,-z
8 1/2+x,1/2-y,1/2+z
_cell_length_a                   19.6754(3)
_cell_length_b                   11.3812(3)
_cell_length_c                   27.5363(5)
_cell_angle_alpha                90
_cell_angle_beta                 107.3420(10)
_cell_angle_gamma                90
_cell_volume                     5885.89
loop_
_atom_site_label
_atom_site_type_symbol
_atom_site_fract_x
_atom_site_fract_y
_atom_site_fract_z
C1 C 0.95037(13) -0.0939(2) 0.64944(9)
H1 H 0.9057 -0.1010 0.6257
C2 C 0.98490(14) -0.1945(2) 0.67110(10)
H2 H 0.9642 -0.2677 0.6616
C3 C 1.05127(14) -0.1856(2) 0.70736(10)
C4 C 1.07984(13) -0.0740(2) 0.71973(9)
H3 H 1.1239 -0.0644 0.7440
C5 C 1.04239(12) 0.0218(2) 0.69576(9)
H4 H 1.0624 0.0960 0.7040
C6 C 1.08956(15) -0.2908(3) 0.73133(11)
H5 H 1.0730 -0.3646 0.7187
C7 C 1.23352(16) -0.3826(3) 0.82071(12)
H6 H 1.2503 -0.3081 0.8322
C8 C 1.27596(14) -0.4858(3) 0.84284(11)
C9 C 1.33694(15) -0.4709(3) 0.88365(12)
H7 H 1.3491 -0.3968 0.8979
C10 C 1.37917(16) -0.5662(3) 0.90289(13)
H8 H 1.4198 -0.5544 0.9302
C11 C 1.30526(17) -0.6887(3) 0.84548(13)
H9 H 1.2939 -0.7640 0.8324
C12 C 1.26024(16) -0.5984(3) 0.82393(12)
H10 H 1.2196 -0.6127 0.7969
C13 C 0.79736(13) 0.3069(2) 0.56507(9)
H11 H 0.7757 0.2336 0.5627
C14 C 0.75754(13) 0.3999(2) 0.53948(10)
H12 H 0.7104 0.3888 0.5203
C15 C 0.78837(13) 0.5097(2) 0.54267(9)
C16 C 0.85892(14) 0.5210(2) 0.57153(12)
H13 H 0.8816 0.5936 0.5747
C17 C 0.89509(14) 0.4230(2) 0.59554(11)
H14 H 0.9426 0.4316 0.6145
C18 C 0.74646(14) 0.6096(2) 0.51560(10)
H15 H 0.6983 0.5993 0.4988
C19 C 0.80017(11) 0.06434(19) 0.65814(9)
C20 C 0.73537(11) -0.0144(2) 0.64438(9)
C21 C 0.69737(13) -0.0344(2) 0.67841(10)
H16 H 0.7120 0.0002 0.7104
C22 C 0.63745(13) -0.1058(2) 0.66520(10)
H17 H 0.6124 -0.1188 0.6885
C23 C 0.61483(12) -0.1577(2) 0.61781(9)
C24 C 0.65362(15) -0.1389(3) 0.58388(10)
H18 H 0.6396 -0.1745 0.5520
C25 C 0.71300(14) -0.0674(3) 0.59730(10)
H19 H 0.7383 -0.0548 0.5742
C26 C 0.54921(11) -0.2350(2) 0.60260(9)
N1 N 0.97789(10) 0.01348(17) 0.66082(7)
N2 N 1.14452(13) -0.2826(2) 0.76880(9)
N3 N 1.17455(13) -0.3923(2) 0.78628(9)
N4 N 1.36507(14) -0.6740(2) 0.88461(12)
N5 N 0.86556(10) 0.31646(17) 0.59310(8)
N6 N 0.77450(12) 0.7091(2) 0.51469(9)
O1 O 0.82953(8) 0.07996(14) 0.62361(6)
O2 O 0.81923(9) 0.10886(17) 0.70133(7)
O3 O 0.91401(9) 0.10362(15) 0.55414(6)
H20 H 0.9183 0.0310 0.5460
H21 H 0.9055 0.1469 0.5271
O4 O 0.53132(11) -0.2794(2) 0.55924(8)
O5 O 0.93271(9) 0.22750(16) 0.70221(6)
H22 H 0.9000 0.1976 0.7134
H23 H 0.9286 0.3029 0.7018
O6 O 0.51663(8) -0.24829(15) 0.63511(6)
Ni1 Ni 0.922684(13) 0.16503(2) 0.627856(10)
C13F C 0.70264(13) 1.1931(2) 0.43493(9)
H11F H 0.7243 1.2664 0.4373
C14F C 0.74246(13) 1.1001(2) 0.46052(10)
H12F H 0.7896 1.1112 0.4797
C15F C 0.71163(13) 0.9903(2) 0.45733(9)
C16F C 0.64108(14) 0.9790(2) 0.42847(12)
H13F H 0.6184 0.9064 0.4253
C17F C 0.60491(14) 1.0770(2) 0.40446(11)
H14F H 0.5574 1.0684 0.3855
C18F C 0.75354(14) 0.8904(2) 0.48440(10)
H15F H 0.8017 0.9007 0.5012
N5F N 0.63444(10) 1.18354(17) 0.40690(8)
N6F N 0.72550(12) 0.7909(2) 0.48531(9)
C1F C 0.54963(13) 1.5939(2) 0.35056(9)
H1F H 0.5943 1.6010 0.3743
C2F C 0.51510(14) 1.6945(2) 0.32890(10)
H2F H 0.5358 1.7677 0.3384
C3F C 0.44873(14) 1.6856(2) 0.29264(10)
C4F C 0.42016(13) 1.5740(2) 0.28027(9)
H3F H 0.3761 1.5644 0.2560
C5F C 0.45761(12) 1.4782(2) 0.30424(9)
H4F H 0.4376 1.4040 0.2960
C6F C 0.41044(15) 1.7908(3) 0.26867(11)
H5F H 0.4270 1.8646 0.2813
C7F C 0.26648(16) 1.8826(3) 0.17929(12)
H6F H 0.2497 1.8081 0.1678
C8F C 0.22404(14) 1.9858(3) 0.15716(11)
C9F C 0.16306(15) 1.9709(3) 0.11635(12)
H7F H 0.1509 1.8968 0.1021
C10F C 0.12083(16) 2.0662(3) 0.09711(13)
H8F H 0.0802 2.0544 0.0698
C11F C 0.19474(17) 2.1887(3) 0.15452(13)
H9F H 0.2061 2.2640 0.1676
C12F C 0.23976(16) 2.0984(3) 0.17607(12)
H10F H 0.2804 2.1127 0.2031
C19F C 0.69983(11) 1.43566(19) 0.34186(9)
C20F C 0.76463(11) 1.5144(2) 0.35562(9)
C21F C 0.80263(13) 1.5344(2) 0.32159(10)
H16F H 0.7880 1.4998 0.2896
C22F C 0.86255(13) 1.6058(2) 0.33480(10)
H17F H 0.8876 1.6188 0.3115
C23F C 0.88517(12) 1.6577(2) 0.38219(9)
C24F C 0.84638(15) 1.6389(3) 0.41612(10)
H18F H 0.8604 1.6745 0.4480
C25F C 0.78700(14) 1.5674(3) 0.40270(10)
H19F H 0.7617 1.5548 0.4258
C26F C 0.95079(11) 1.7350(2) 0.39740(9)
N1F N 0.52211(10) 1.48652(17) 0.33918(7)
N2F N 0.35548(13) 1.7826(2) 0.23120(9)
N3F N 0.32545(13) 1.8923(2) 0.21372(9)
N4F N 0.13493(14) 2.1740(2) 0.11539(12)
O1F O 0.67047(8) 1.42004(14) 0.37639(6)
O2F O 0.68077(9) 1.39114(17) 0.29867(7)
O3F O 0.58599(9) 1.39638(15) 0.44586(6)
H20F H 0.5817 1.4690 0.4540
H21F H 0.5945 1.3531 0.4729
O4F O 0.96868(11) 1.7794(2) 0.44076(8)
O5F O 0.56729(9) 1.27250(16) 0.29779(6)
H22F H 0.6000 1.3024 0.2866
H23F H 0.5714 1.1971 0.2982
O6F O 0.98337(8) 1.74829(15) 0.36489(6)
Ni1F Ni 0.577316(13) 1.33497(2) 0.372144(10)
O6B O 1.01663(8) 0.25171(15) 0.63511(6)
O6D O 0.48337(8) 1.24829(15) 0.36489(6)
Ni1B Ni 0.422684(13) -0.33497(2) 0.627856(10)
Ni1D Ni 1.077316(13) 1.83497(2) 0.372144(10)
C27 C 1.4694(4) -0.8917(6) 0.9556(3)
H24 H 1.4195 -0.9098 0.9460
H25 H 1.4829 -0.8512 0.9876
H26 H 1.4962 -0.9632 0.9586
O7 O 1.48289(18) -0.8229(3) 0.91976(14)
H27 H 1.4467 -0.7870 0.9045
O8 O 0.56120(15) -0.3727(2) 0.47303(10)
H28 H 0.5630 -0.3537 0.5032
H29 H 0.5462 -0.3147 0.4533
O9 O 0.9418(2) 0.4648(4) 0.71153(18)
loop_
_geom_bond_atom_site_label_1
_geom_bond_atom_site_label_2
_geom_bond_site_symmetry_1
_geom_bond_site_symmetry_2
C1 H1 1_555 1_555
C2 C1 1_555 1_555
H2 C2 1_555 1_555
C3 C2 1_555 1_555
C4 C3 1_555 1_555
H3 C4 1_555 1_555
C5 C4 1_555 1_555
H4 C5 1_555 1_555
C6 C3 1_555 1_555
H5 C6 1_555 1_555
C7 H6 1_555 1_555
C8 C7 1_555 1_555
C9 C8 1_555 1_555
H7 C9 1_555 1_555
C10 C9 1_555 1_555
H8 C10 1_555 1_555
C11 H9 1_555 1_555
C12 C8 1_555 1_555
H10 C12 1_555 1_555
C13 H11 1_555 1_555
C14 C13 1_555 1_555
H12 C14 1_555 1_555
C15 C14 1_555 1_555
C16 C15 1_555 1_555
H13 C16 1_555 1_555
C17 C16 1_555 1_555
H14 C17 1_555 1_555
C18 C15 1_555 1_555
H15 C18 1_555 1_555
C19 C20 1_555 1_555
C20 C21 1_555 1_555
C21 H16 1_555 1_555
C22 C21 1_555 1_555
H17 C22 1_555 1_555
C23 C22 1_555 1_555
C24 C23 1_555 1_555
H18 C24 1_555 1_555
C25 C20 1_555 1_555
H19 C25 1_555 1_555
C26 C23 1_555 1_555
N1 C1 1_555 1_555
N2 C6 1_555 1_555
N3 C7 1_555 1_555
N4 C10 1_555 1_555
N5 C13 1_555 1_555
N6 C18 1_555 1_555
O1 C19 1_555 1_555
O2 C19 1_555 1_555
O3 H20 1_555 1_555
H21 O3 1_555 1_555
O4 C26 1_555 1_555
O5 H22 1_555 1_555
H23 O5 1_555 1_555
O6 C26 1_555 1_555
Ni1 N1 1_555 1_555
C27 H24 1_555 1_555
H25 C27 1_555 1_555
H26 C27 1_555 1_555
O7 C27 1_555 1_555
H27 O7 1_555 1_555
O8 H28 1_555 1_555
H29 O8 1_555 1_555
C13F H11F 1_555 1_555
C14F C13F 1_555 1_555
H12F C14F 1_555 1_555
C15F C14F 1_555 1_555
C16F C15F 1_555 1_555
H13F C16F 1_555 1_555
C17F C16F 1_555 1_555
H14F C17F 1_555 1_555
C18F C15F 1_555 1_555
H15F C18F 1_555 1_555
N5F C13F 1_555 1_555
N6F N6 1_555 1_555
C1F H1F 1_555 1_555
C2F C1F 1_555 1_555
H2F C2F 1_555 1_555
C3F C2F 1_555 1_555
C4F C3F 1_555 1_555
H3F C4F 1_555 1_555
C5F C4F 1_555 1_555
H4F C5F 1_555 1_555
C6F C3F 1_555 1_555
H5F C6F 1_555 1_555
C7F H6F 1_555 1_555
C8F C7F 1_555 1_555
C9F C8F 1_555 1_555
H7F C9F 1_555 1_555
C10F C9F 1_555 1_555
H8F C10F 1_555 1_555
C11F H9F 1_555 1_555
C12F C8F 1_555 1_555
H10F C12F 1_555 1_555
C19F C20F 1_555 1_555
C20F C21F 1_555 1_555
C21F H16F 1_555 1_555
C22F C21F 1_555 1_555
H17F C22F 1_555 1_555
C23F C22F 1_555 1_555
C24F C23F 1_555 1_555
H18F C24F 1_555 1_555
C25F C20F 1_555 1_555
H19F C25F 1_555 1_555
C26F C23F 1_555 1_555
N1F C1F 1_555 1_555
N2F C6F 1_555 1_555
N3F C7F 1_555 1_555
N4F C10F 1_555 1_555
O1F C19F 1_555 1_555
O2F C19F 1_555 1_555
O3F H20F 1_555 1_555
H21F O3F 1_555 1_555
O4F C26F 1_555 1_555
O5F H22F 1_555 1_555
H23F O5F 1_555 1_555
O6F C26F 1_555 1_555
Ni1F N5F 1_555 1_555
O6B Ni1 1_555 1_555
O6D Ni1F 1_555 1_555
Ni1B O6 1_555 1_555
Ni1D O6F 1_555 1_555
C5 N1 1_555 1_555
C11 C12 1_555 1_555
C11 N4 1_555 1_555
C17 N5 1_555 1_555
C24 C25 1_555 1_555
N2 N3 1_555 1_555
N5 Ni1 1_555 1_555
O1 Ni1 1_555 1_555
O3 Ni1 1_555 1_555
O5 Ni1 1_555 1_555
C17F N5F 1_555 1_555
C18F N6F 1_555 1_555
C5F N1F 1_555 1_555
C11F C12F 1_555 1_555
C11F N4F 1_555 1_555
C24F C25F 1_555 1_555
N1F Ni1F 1_555 1_555
N2F N3F 1_555 1_555
O1F Ni1F 1_555 1_555
O3F Ni1F 1_555 1_555
O5F Ni1F 1_555 1_555

#END
