
#######################################################################
#
#                 Cambridge Crystallographic Data Centre
#                                CCDC 
#
#######################################################################
#
# If this CIF has been generated from an entry in the Cambridge 
# Structural Database, then it will include bibliographic, chemical, 
# crystal, experimental, refinement or atomic coordinate data resulting 
# from the CCDC's data processing and validation procedures.
#
#######################################################################

data_ZOHSOG
_symmetry_cell_setting           monoclinic
_symmetry_space_group_name_H-M   'P 21/c'
_symmetry_Int_Tables_number      14
_space_group_name_Hall           '-P 2ybc'
loop_
_symmetry_equiv_pos_site_id
_symmetry_equiv_pos_as_xyz
1 x,y,z
2 -x,1/2+y,1/2-z
3 -x,-y,-z
4 x,1/2-y,1/2+z
_cell_length_a                   8.5378(17)
_cell_length_b                   17.151(3)
_cell_length_c                   12.690(3)
_cell_angle_alpha                90
_cell_angle_beta                 96.98(3)
_cell_angle_gamma                90
_cell_volume                     1844.45
loop_
_atom_site_label
_atom_site_type_symbol
_atom_site_fract_x
_atom_site_fract_y
_atom_site_fract_z
Mn1 Mn 0.20572(5) 0.51044(2) 1.00375(3)
As1 As 0.53500(3) -0.004681(15) 0.70556(2)
As2 As 0.00248(3) 1.050444(15) 1.27083(2)
O1 O 0.6629(2) 0.01867(11) 0.62442(16)
O2 O 0.3623(2) -0.03804(11) 0.64429(15)
O3 O 0.6042(2) -0.08096(11) 0.78634(15)
H1 H 0.6946 -0.0938 0.7727
O4 O -0.0049(2) 1.02259(11) 1.39722(15)
O5 O 0.1258(2) 1.12206(11) 1.25046(15)
O6 O -0.1818(2) 1.08804(11) 1.22617(15)
H2 H -0.2472 1.0733 1.2664
N1 N 0.2832(3) 0.38038(14) 1.02670(19)
N2 N 0.2063(3) 0.32692(15) 1.0842(2)
N3 N 0.3571(3) 0.26289(14) 0.98453(18)
N4 N 0.1862(3) 0.64230(13) 0.98444(18)
N5 N 0.2142(3) 0.68570(14) 0.8973(2)
N6 N 0.1327(3) 0.76402(13) 1.01549(18)
C1 C 0.3723(4) 0.34052(17) 0.9691(2)
H3 H 0.4388 0.3631 0.9226
C2 C 0.2516(4) 0.25827(17) 1.0579(2)
H4 H 0.2164 0.2109 1.0858
C3 C 0.4141(3) 0.20027(16) 0.9244(2)
C4 C 0.4778(4) 0.21667(17) 0.8315(2)
H5 H 0.4920 0.2692 0.8107
C5 C 0.5207(4) 0.15545(17) 0.7690(2)
H6 H 0.5678 0.1661 0.7065
C6 C 0.4950(3) 0.07934(16) 0.7977(2)
C7 C 0.4340(4) 0.06383(17) 0.8920(2)
H7 H 0.4177 0.0114 0.9121
C8 C 0.3966(4) 0.12405(17) 0.9567(2)
H8 H 0.3594 0.1133 1.0228
C9 C 0.1387(4) 0.69034(17) 1.0529(2)
H9 H 0.1117 0.6755 1.1205
C10 C 0.1801(4) 0.75769(18) 0.9177(2)
H10 H 0.1874 0.8001 0.8704
C11 C 0.0927(3) 0.83199(16) 1.0709(2)
C12 C 0.0050(4) 0.82466(17) 1.1557(2)
H11 H -0.0351 0.7753 1.1734
C13 C -0.0230(4) 0.88996(17) 1.2139(2)
H12 H -0.0812 0.8859 1.2729
C14 C 0.0344(3) 0.96148(16) 1.1858(2)
C15 C 0.1161(3) 0.96933(16) 1.0990(2)
H13 H 0.1513 1.0192 1.0794
C16 C 0.1467(3) 0.90363(16) 1.0406(2)
H14 H 0.2035 0.9079 0.9810
Mn1A Mn -0.20572(5) 1.01044(2) 1.49625(3)
Mn1A_2 Mn 0.79428(5) 0.01044(2) 0.49625(3)
Mn1C Mn 0.20572(5) -0.01044(2) 0.50375(3)
Mn1C_2 Mn 0.20572(5) 0.98956(2) 1.50375(3)
O1A O 0.3371(2) 0.51867(11) 0.87558(16)
O2C O 0.3623(2) 0.53804(11) 1.14429(15)
O4A O 0.0049(2) 0.52259(11) 1.10278(15)
O4C O -0.0049(2) 0.47741(11) 0.89722(15)
loop_
_geom_bond_atom_site_label_1
_geom_bond_atom_site_label_2
_geom_bond_site_symmetry_1
_geom_bond_site_symmetry_2
Mn1 N1 1_555 1_555
As1 O1 1_555 1_555
As2 O4 1_555 1_555
O1 Mn1A_2 1_555 1_555
O2 As1 1_555 1_555
O3 As1 1_555 1_555
H1 O3 1_555 1_555
O4 Mn1A 1_555 1_555
O5 As2 1_555 1_555
O6 As2 1_555 1_555
H2 O6 1_555 1_555
N1 N2 1_555 1_555
N2 C2 1_555 1_555
N3 C1 1_555 1_555
N4 Mn1 1_555 1_555
N5 N4 1_555 1_555
N6 C9 1_555 1_555
C1 N1 1_555 1_555
H3 C1 1_555 1_555
C2 N3 1_555 1_555
H4 C2 1_555 1_555
C3 N3 1_555 1_555
C4 C3 1_555 1_555
H5 C4 1_555 1_555
C5 C4 1_555 1_555
H6 C5 1_555 1_555
C6 As1 1_555 1_555
C7 C6 1_555 1_555
H7 C7 1_555 1_555
C8 C3 1_555 1_555
H8 C8 1_555 1_555
C9 N4 1_555 1_555
H9 C9 1_555 1_555
C10 N5 1_555 1_555
H10 C10 1_555 1_555
C11 N6 1_555 1_555
C12 C11 1_555 1_555
H11 C12 1_555 1_555
C13 C12 1_555 1_555
H12 C13 1_555 1_555
C14 As2 1_555 1_555
C15 C14 1_555 1_555
H13 C15 1_555 1_555
C16 C11 1_555 1_555
H14 C16 1_555 1_555
Mn1C O2 1_555 1_555
Mn1C_2 O4 1_555 1_555
O1A Mn1 1_555 1_555
O2C Mn1 1_555 1_555
O4A Mn1 1_555 1_555
O4C Mn1 1_555 1_555
N6 C10 1_555 1_555
C5 C6 1_555 1_555
C7 C8 1_555 1_555
C13 C14 1_555 1_555
C15 C16 1_555 1_555

#END
