
#######################################################################
#
#                 Cambridge Crystallographic Data Centre
#                                CCDC 
#
#######################################################################
#
# If this CIF has been generated from an entry in the Cambridge 
# Structural Database, then it will include bibliographic, chemical, 
# crystal, experimental, refinement or atomic coordinate data resulting 
# from the CCDC's data processing and validation procedures.
#
#######################################################################

data_ZOJDEJ
_symmetry_cell_setting           monoclinic
_symmetry_space_group_name_H-M   'C 2/m'
_symmetry_Int_Tables_number      12
_space_group_name_Hall           '-C 2y'
loop_
_symmetry_equiv_pos_site_id
_symmetry_equiv_pos_as_xyz
1 x,y,z
2 -x,y,-z
3 1/2+x,1/2+y,z
4 1/2-x,1/2+y,-z
5 -x,-y,-z
6 x,-y,z
7 1/2-x,1/2-y,-z
8 1/2+x,1/2-y,z
_cell_length_a                   20.454(4)
_cell_length_b                   7.7512(16)
_cell_length_c                   8.4433(17)
_cell_angle_alpha                90
_cell_angle_beta                 102.15(3)
_cell_angle_gamma                90
_cell_volume                     1308.64
loop_
_atom_site_label
_atom_site_type_symbol
_atom_site_fract_x
_atom_site_fract_y
_atom_site_fract_z
As1 As 0.68207(5) 0.0000 0.19435(13)
Cu1 Cu 0.7500 0.2500 0.5000
Cl1 Cl 0.84259(13) 0.0000 0.5495(3)
O1 O 0.7205(2) 0.1816(7) 0.2687(6)
O2 O 0.6770(4) 0.0000 -0.0081(9)
H1 H 0.7157 0.0000 -0.0271
N1 N 0.3158(3) 0.0860(9) 0.4228(8)
N2 N 0.4031(4) 0.0000 0.3402(11)
C1 C 0.3677(4) 0.1354(11) 0.3731(11)
H2 H 0.3795 0.2525 0.3613
C2 C 0.4661(5) 0.0000 0.2839(13)
C3 C 0.4950(4) -0.1527(11) 0.2617(12)
H3 H 0.4722 -0.2583 0.2680
C4 C 0.5587(4) -0.1516(12) 0.2296(13)
H4 H 0.5806 -0.2577 0.2190
C5 C 0.5903(5) 0.0000 0.2131(13)
O1E O 0.7205(2) -0.1816(7) 0.2687(6)
N1E N 0.3158(3) -0.0860(9) 0.4228(8)
C1E C 0.3677(4) -0.1354(11) 0.3731(11)
H2E H 0.3795 -0.2525 0.3613
C3E C 0.4950(4) 0.1527(11) 0.2617(12)
H3E H 0.4722 0.2583 0.2680
C4E C 0.5587(4) 0.1516(12) 0.2296(13)
H4E H 0.5806 0.2577 0.2190
Cu1A Cu 0.2500 0.2500 0.5000
Cu1B Cu 0.2500 -0.2500 0.5000
Cu1C Cu 0.7500 -0.2500 0.5000
Cl1C Cl 0.65741(13) 0.5000 0.4505(3)
O1F O 0.7795(2) 0.3184(7) 0.7313(6)
N1A N 0.6842(3) 0.0860(9) 0.5772(8)
N1G N 0.8158(3) 0.4140(9) 0.4228(8)
O3 O 0.3850(5) 0.5000 0.2068(10)
O4 O 0.7940(4) 0.0000 -0.0986(9)
loop_
_geom_bond_atom_site_label_1
_geom_bond_atom_site_label_2
_geom_bond_site_symmetry_1
_geom_bond_site_symmetry_2
As1 O1 1_555 1_555
Cu1 Cl1 1_555 1_555
Cl1 Cu1C 1_555 1_555
O1 Cu1 1_555 1_555
O2 As1 1_555 1_555
H1 O2 1_555 1_555
N1 C1 1_555 1_555
N2 C1 1_555 1_555
C1 H2 1_555 1_555
C2 N2 1_555 1_555
C3 C2 1_555 1_555
H3 C3 1_555 1_555
C4 C3 1_555 1_555
H4 C4 1_555 1_555
C5 As1 1_555 1_555
O1E As1 1_555 1_555
N1E N1 1_555 1_555
C1E N2 1_555 1_555
H2E C1E 1_555 1_555
C3E C2 1_555 1_555
H3E C3E 1_555 1_555
C4E C5 1_555 1_555
H4E C4E 1_555 1_555
Cu1A N1 1_555 1_555
Cu1B N1E 1_555 1_555
Cu1C O1E 1_555 1_555
Cl1C Cu1 1_555 1_555
O1F Cu1 1_555 1_555
N1A Cu1 1_555 1_555
N1G Cu1 1_555 1_555
C4 C5 1_555 1_555
N1E C1E 1_555 1_555
C3E C4E 1_555 1_555

#END
