
#######################################################################
#
#                 Cambridge Crystallographic Data Centre
#                                CCDC 
#
#######################################################################
#
# If this CIF has been generated from an entry in the Cambridge 
# Structural Database, then it will include bibliographic, chemical, 
# crystal, experimental, refinement or atomic coordinate data resulting 
# from the CCDC's data processing and validation procedures.
#
#######################################################################

data_ZOJVIF
_symmetry_cell_setting           monoclinic
_symmetry_space_group_name_H-M   'C 2'
_symmetry_Int_Tables_number      5
_space_group_name_Hall           'C 2y'
loop_
_symmetry_equiv_pos_site_id
_symmetry_equiv_pos_as_xyz
1 x,y,z
2 -x,y,-z
3 1/2+x,1/2+y,z
4 1/2-x,1/2+y,-z
_cell_length_a                   23.933(3)
_cell_length_b                   18.5408(16)
_cell_length_c                   22.9605(17)
_cell_angle_alpha                90
_cell_angle_beta                 108.960(11)
_cell_angle_gamma                90
_cell_volume                     9635.66
loop_
_atom_site_label
_atom_site_type_symbol
_atom_site_fract_x
_atom_site_fract_y
_atom_site_fract_z
Mn1 Mn 0.68588(9) 0.27504(10) 0.21950(7)
Mn2 Mn 0.80904(9) 0.25219(10) 0.27350(8)
Mn3 Mn 0.78571(9) 0.35374(11) 0.15548(7)
Mn4 Mn 0.74352(9) 0.41811(11) 0.28923(8)
Mn5 Mn 0.74195(10) 0.16861(11) 0.35236(9)
Mn6 Mn 0.71602(10) 0.11604(12) 0.18930(9)
O1 O 0.7571(4) 0.3269(4) 0.2336(3)
O2 O 0.7378(4) 0.1980(4) 0.2589(3)
O3 O 0.6830(4) 0.2208(5) 0.1317(3)
O4 O 0.7125(4) 0.3117(6) 0.0828(3)
O5 O 0.6344(4) 0.3532(6) 0.1704(3)
O6 O 0.6645(4) 0.4525(5) 0.2203(4)
O7 O 0.6792(4) 0.3315(4) 0.3041(3)
O8 O 0.6734(5) 0.2377(5) 0.3627(4)
O9 O 0.6152(4) 0.2205(5) 0.2169(4)
O10 O 0.6239(4) 0.1124(5) 0.1806(3)
O11 O 0.8071(4) 0.2690(5) 0.3704(3)
O12 O 0.8091(5) 0.3910(6) 0.3727(4)
O13 O 0.8808(4) 0.3124(5) 0.2956(4)
O14 O 0.8744(4) 0.3729(5) 0.2121(4)
O15 O 0.8608(4) 0.1689(5) 0.3065(4)
O16 O 0.8253(4) 0.1119(5) 0.3692(3)
O17 O 0.8204(4) 0.2322(6) 0.1805(4)
O18 O 0.7950(4) 0.1191(6) 0.1678(4)
O19 O 0.7606(4) 0.4613(5) 0.1541(4)
O20 O 0.7911(4) 0.4947(5) 0.2542(4)
O21 O 0.6969(5) 0.0699(6) 0.3190(4)
O22 O 0.7289(4) 0.0271(5) 0.2468(4)
C1 C 0.6818(5) 0.2593(8) 0.0828(4)
C2 C 0.6360(6) 0.2329(8) 0.0216(5)
C3 C 0.5803(6) 0.2083(12) 0.0291(6)
H1 H 0.5675 0.2430 0.0531
H2 H 0.5878 0.1631 0.0505
H3 H 0.5502 0.2021 -0.0101
C4 C 0.6608(9) 0.1710(11) -0.0019(8)
H4 H 0.6734 0.1344 0.0292
H5 H 0.6940 0.1871 -0.0132
H6 H 0.6313 0.1516 -0.0375
C5 C 0.6220(11) 0.2943(10) -0.0222(7)
H7 H 0.6549 0.3035 -0.0363
H8 H 0.6141 0.3365 -0.0018
H9 H 0.5878 0.2828 -0.0567
C6 C 0.6309(5) 0.4212(8) 0.1795(5)
C7 C 0.5775(6) 0.4571(8) 0.1332(6)
C8 C 0.5622(8) 0.5255(9) 0.1579(9)
H10 H 0.5311 0.5468 0.1247
H11 H 0.5957 0.5573 0.1699
H12 H 0.5485 0.5177 0.1924
C9 C 0.5957(9) 0.4770(13) 0.0784(8)
H13 H 0.5670 0.5073 0.0500
H14 H 0.5991 0.4325 0.0586
H15 H 0.6332 0.5010 0.0917
C10 C 0.5221(6) 0.4132(10) 0.1131(9)
H16 H 0.5143 0.3897 0.1469
H17 H 0.5248 0.3777 0.0836
H18 H 0.4907 0.4463 0.0937
C11 C 0.6601(6) 0.2987(9) 0.3432(5)
C12 C 0.6210(6) 0.3427(8) 0.3706(6)
C13 C 0.6611(8) 0.3770(12) 0.4282(8)
H19 H 0.6387 0.3909 0.4542
H20 H 0.6783 0.4190 0.4164
H21 H 0.6919 0.3444 0.4502
C14 C 0.5905(9) 0.4023(10) 0.3296(9)
H22 H 0.5704 0.4328 0.3502
H23 H 0.5622 0.3811 0.2940
H24 H 0.6183 0.4305 0.3171
C15 C 0.5793(9) 0.2930(10) 0.3865(9)
H25 H 0.6023 0.2624 0.4193
H26 H 0.5565 0.2639 0.3526
H27 H 0.5533 0.3221 0.4009
C16 C 0.5970(5) 0.1573(7) 0.1978(5)
C17 C 0.5341(5) 0.1411(6) 0.2004(5)
C18 C 0.5068(6) 0.0801(8) 0.1569(6)
H28 H 0.5119 0.0882 0.1177
H29 H 0.4654 0.0776 0.1517
H30 H 0.5254 0.0355 0.1740
C19 C 0.5386(7) 0.1215(9) 0.2639(5)
H31 H 0.5374 0.1639 0.2875
H32 H 0.5749 0.0961 0.2828
H33 H 0.5059 0.0907 0.2625
C20 C 0.4957(6) 0.2061(8) 0.1789(8)
H34 H 0.4575 0.1967 0.1824
H35 H 0.4915 0.2164 0.1367
H36 H 0.5132 0.2468 0.2041
C21 C 0.8209(6) 0.3316(10) 0.3972(5)
C22 C 0.8597(6) 0.3262(9) 0.4667(5)
C23 C 0.9056(8) 0.2704(10) 0.4750(6)
H37 H 0.9437 0.2930 0.4863
H38 H 0.8980 0.2458 0.4364
H39 H 0.9049 0.2362 0.5062
C24 C 0.8218(8) 0.3050(12) 0.5031(6)
H40 H 0.8136 0.2542 0.4993
H41 H 0.7857 0.3315 0.4866
H42 H 0.8400 0.3171 0.5457
C25 C 0.8890(9) 0.3967(9) 0.4860(8)
H43 H 0.8595 0.4312 0.4872
H44 H 0.9061 0.4107 0.4553
H45 H 0.9192 0.3947 0.5255
C26 C 0.9005(5) 0.3559(7) 0.2658(6)
C27 C 0.9640(6) 0.3829(8) 0.2991(6)
C28 C 1.0032(7) 0.3272(9) 0.3371(8)
H46 H 1.0048 0.3300 0.3794
H47 H 1.0419 0.3350 0.3345
H48 H 0.9893 0.2803 0.3210
C29 C 0.9577(9) 0.4388(12) 0.3433(11)
H49 H 0.9248 0.4292 0.3575
H50 H 0.9526 0.4852 0.3236
H51 H 0.9936 0.4386 0.3777
C30 C 0.9905(8) 0.4126(13) 0.2525(8)
H52 H 0.9595 0.4279 0.2162
H53 H 1.0154 0.3785 0.2414
H54 H 1.0135 0.4537 0.2719
C31 C 0.8626(5) 0.1224(7) 0.3457(5)
C32 C 0.9178(7) 0.0750(8) 0.3681(6)
C33 C 0.9720(7) 0.1180(10) 0.3772(10)
H55 H 0.9665 0.1568 0.3482
H56 H 1.0040 0.0880 0.3752
H57 H 0.9810 0.1373 0.4180
C34 C 0.9248(9) 0.0354(11) 0.4276(8)
H58 H 0.8873 0.0295 0.4339
H59 H 0.9524 0.0567 0.4636
H60 H 0.9392 -0.0108 0.4201
C35 C 0.9111(9) 0.0204(11) 0.3199(9)
H61 H 0.8860 -0.0200 0.3201
H62 H 0.9498 0.0034 0.3227
H63 H 0.8947 0.0471 0.2824
C36 C 0.8250(6) 0.1721(10) 0.1614(5)
C37 C 0.8650(7) 0.1569(9) 0.1235(7)
C38 C 0.8755(9) 0.0796(9) 0.1123(11)
H64 H 0.9143 0.0748 0.1091
H65 H 0.8468 0.0618 0.0753
H66 H 0.8731 0.0523 0.1469
C39 C 0.8435(9) 0.1911(13) 0.0624(7)
H67 H 0.8657 0.1764 0.0363
H68 H 0.8441 0.2427 0.0656
H69 H 0.8035 0.1748 0.0451
C40 C 0.9243(8) 0.1865(13) 0.1586(9)
H70 H 0.9480 0.1900 0.1322
H71 H 0.9437 0.1561 0.1931
H72 H 0.9188 0.2337 0.1731
C41 C 0.7761(6) 0.5059(7) 0.1948(6)
C42 C 0.7805(7) 0.5845(7) 0.1767(6)
C43 C 0.7464(10) 0.6335(9) 0.2044(9)
H73 H 0.7658 0.6450 0.2470
H74 H 0.7093 0.6104 0.1999
H75 H 0.7395 0.6771 0.1805
C44 C 0.7548(12) 0.5964(11) 0.1095(6)
H76 H 0.7702 0.5664 0.0842
H77 H 0.7624 0.6461 0.1030
H78 H 0.7129 0.5890 0.0987
C45 C 0.8433(8) 0.6046(11) 0.1967(12)
H79 H 0.8554 0.6089 0.1609
H80 H 0.8650 0.5665 0.2225
H81 H 0.8508 0.6492 0.2192
C46 C 0.7087(6) 0.0201(7) 0.2914(6)
C47 C 0.6973(9) -0.0564(8) 0.3111(8)
C48 C 0.6640(10) -0.0553(12) 0.3552(11)
H82 H 0.6897 -0.0468 0.3964
H83 H 0.6445 -0.1009 0.3534
H84 H 0.6350 -0.0176 0.3432
C49 C 0.7550(10) -0.0890(12) 0.3448(15)
H85 H 0.7712 -0.1138 0.3173
H86 H 0.7485 -0.1227 0.3737
H87 H 0.7821 -0.0524 0.3667
C50 C 0.6600(13) -0.0969(11) 0.2568(10)
H88 H 0.6815 -0.1147 0.2311
H89 H 0.6283 -0.0665 0.2330
H90 H 0.6441 -0.1368 0.2730
O23 O 0.7306(5) 0.5063(6) 0.3513(4)
N1 N 0.7603(6) 0.6288(7) 0.5535(4)
N2 N 0.8172(7) 0.5636(7) 0.3668(5)
H91 H 0.8222 0.5437 0.3350
H92 H 0.8433 0.5931 0.3889
C51 C 0.7705(8) 0.5490(9) 0.3815(6)
C52 C 0.7686(7) 0.5733(8) 0.4443(6)
C53 C 0.7156(8) 0.5716(9) 0.4554(7)
H93 H 0.6815 0.5533 0.4268
C54 C 0.7160(8) 0.5995(10) 0.5128(7)
H94 H 0.6810 0.5963 0.5220
C55 C 0.8075(8) 0.6323(11) 0.5404(7)
H95 H 0.8396 0.6556 0.5681
C56 C 0.8148(8) 0.6038(10) 0.4875(7)
H96 H 0.8516 0.6058 0.4818
O24 O 0.8075(6) 0.5443(7) -0.1076(5)
N3 N 0.8176(6) 0.3933(6) 0.0747(5)
N4 N 0.8972(8) 0.4903(9) -0.0861(7)
H97 H 0.9028 0.5063 -0.1189
H98 H 0.9235 0.4636 -0.0608
C57 C 0.8507(8) 0.5057(9) -0.0751(7)
C58 C 0.8396(7) 0.4652(7) -0.0209(6)
C59 C 0.8845(7) 0.4457(7) 0.0304(6)
H99 H 0.9236 0.4554 0.0341
C60 C 0.8699(7) 0.4109(8) 0.0773(6)
H100 H 0.9006 0.3996 0.1130
C61 C 0.7773(7) 0.4135(9) 0.0245(6)
H101 H 0.7386 0.4024 0.0218
C62 C 0.7841(7) 0.4491(8) -0.0250(6)
H102 H 0.7521 0.4613 -0.0593
Mn5C Mn 0.75805(10) 0.66861(11) 0.64764(9)
Mn6C Mn 0.78398(10) 0.61604(12) -0.18930(9)
N1C N 0.7397(6) 0.1288(7) 0.4465(4)
O24C O 0.6925(6) 0.0443(7) 0.1076(5)
loop_
_geom_bond_atom_site_label_1
_geom_bond_atom_site_label_2
_geom_bond_site_symmetry_1
_geom_bond_site_symmetry_2
Mn1 Mn2 1_555 1_555
Mn2 O1 1_555 1_555
Mn3 O1 1_555 1_555
Mn4 O1 1_555 1_555
Mn5 O2 1_555 1_555
Mn6 O2 1_555 1_555
O1 Mn1 1_555 1_555
O2 Mn1 1_555 1_555
O3 Mn1 1_555 1_555
O4 Mn3 1_555 1_555
O5 Mn1 1_555 1_555
O6 Mn4 1_555 1_555
O7 Mn1 1_555 1_555
O8 Mn5 1_555 1_555
O9 Mn1 1_555 1_555
O10 Mn6 1_555 1_555
O11 Mn2 1_555 1_555
O12 Mn4 1_555 1_555
O13 Mn2 1_555 1_555
O14 Mn3 1_555 1_555
O15 Mn2 1_555 1_555
O16 Mn5 1_555 1_555
O17 Mn2 1_555 1_555
O18 Mn6 1_555 1_555
O19 Mn3 1_555 1_555
O20 Mn4 1_555 1_555
O21 Mn5 1_555 1_555
O22 Mn6 1_555 1_555
C1 O3 1_555 1_555
C2 C1 1_555 1_555
C3 C2 1_555 1_555
H1 C3 1_555 1_555
H2 C3 1_555 1_555
H3 C3 1_555 1_555
C4 C2 1_555 1_555
H4 C4 1_555 1_555
H5 C4 1_555 1_555
H6 C4 1_555 1_555
C5 C2 1_555 1_555
H7 C5 1_555 1_555
H8 C5 1_555 1_555
H9 C5 1_555 1_555
C6 O5 1_555 1_555
C7 C6 1_555 1_555
C8 C7 1_555 1_555
H10 C8 1_555 1_555
H11 C8 1_555 1_555
H12 C8 1_555 1_555
C9 C7 1_555 1_555
H13 C9 1_555 1_555
H14 C9 1_555 1_555
H15 C9 1_555 1_555
C10 C7 1_555 1_555
H16 C10 1_555 1_555
H17 C10 1_555 1_555
H18 C10 1_555 1_555
C11 O7 1_555 1_555
C12 C11 1_555 1_555
C13 C12 1_555 1_555
H19 C13 1_555 1_555
H20 C13 1_555 1_555
H21 C13 1_555 1_555
C14 C12 1_555 1_555
H22 C14 1_555 1_555
H23 C14 1_555 1_555
H24 C14 1_555 1_555
C15 C12 1_555 1_555
H25 C15 1_555 1_555
H26 C15 1_555 1_555
H27 C15 1_555 1_555
C16 O9 1_555 1_555
C17 C16 1_555 1_555
C18 C17 1_555 1_555
H28 C18 1_555 1_555
H29 C18 1_555 1_555
H30 C18 1_555 1_555
C19 C17 1_555 1_555
H31 C19 1_555 1_555
H32 C19 1_555 1_555
H33 C19 1_555 1_555
C20 C17 1_555 1_555
H34 C20 1_555 1_555
H35 C20 1_555 1_555
H36 C20 1_555 1_555
C21 O11 1_555 1_555
C22 C21 1_555 1_555
C23 C22 1_555 1_555
H37 C23 1_555 1_555
H38 C23 1_555 1_555
H39 C23 1_555 1_555
C24 C22 1_555 1_555
H40 C24 1_555 1_555
H41 C24 1_555 1_555
H42 C24 1_555 1_555
C25 C22 1_555 1_555
H43 C25 1_555 1_555
H44 C25 1_555 1_555
H45 C25 1_555 1_555
C26 O13 1_555 1_555
C27 C26 1_555 1_555
C28 C27 1_555 1_555
H46 C28 1_555 1_555
H47 C28 1_555 1_555
H48 C28 1_555 1_555
C29 C27 1_555 1_555
H49 C29 1_555 1_555
H50 C29 1_555 1_555
H51 C29 1_555 1_555
C30 C27 1_555 1_555
H52 C30 1_555 1_555
H53 C30 1_555 1_555
H54 C30 1_555 1_555
C31 O15 1_555 1_555
C32 C31 1_555 1_555
C33 C32 1_555 1_555
H55 C33 1_555 1_555
H56 C33 1_555 1_555
H57 C33 1_555 1_555
C34 C32 1_555 1_555
H58 C34 1_555 1_555
H59 C34 1_555 1_555
H60 C34 1_555 1_555
C35 C32 1_555 1_555
H61 C35 1_555 1_555
H62 C35 1_555 1_555
H63 C35 1_555 1_555
C36 O17 1_555 1_555
C37 C36 1_555 1_555
C38 C37 1_555 1_555
H64 C38 1_555 1_555
H65 C38 1_555 1_555
H66 C38 1_555 1_555
C39 C37 1_555 1_555
H67 C39 1_555 1_555
H68 C39 1_555 1_555
H69 C39 1_555 1_555
C40 C37 1_555 1_555
H70 C40 1_555 1_555
H71 C40 1_555 1_555
H72 C40 1_555 1_555
C41 O19 1_555 1_555
C42 C41 1_555 1_555
C43 C42 1_555 1_555
H73 C43 1_555 1_555
H74 C43 1_555 1_555
H75 C43 1_555 1_555
C44 C42 1_555 1_555
H76 C44 1_555 1_555
H77 C44 1_555 1_555
H78 C44 1_555 1_555
C45 C42 1_555 1_555
H79 C45 1_555 1_555
H80 C45 1_555 1_555
H81 C45 1_555 1_555
C46 O21 1_555 1_555
C47 C46 1_555 1_555
C48 C47 1_555 1_555
H82 C48 1_555 1_555
H83 C48 1_555 1_555
H84 C48 1_555 1_555
C49 C47 1_555 1_555
H85 C49 1_555 1_555
H86 C49 1_555 1_555
H87 C49 1_555 1_555
C50 C47 1_555 1_555
H88 C50 1_555 1_555
H89 C50 1_555 1_555
H90 C50 1_555 1_555
O23 Mn4 1_555 1_555
N1 C54 1_555 1_555
N2 H91 1_555 1_555
H92 N2 1_555 1_555
C51 O23 1_555 1_555
C52 C51 1_555 1_555
C53 C52 1_555 1_555
H93 C53 1_555 1_555
C54 C53 1_555 1_555
H94 C54 1_555 1_555
C55 N1 1_555 1_555
H95 C55 1_555 1_555
C56 C52 1_555 1_555
H96 C56 1_555 1_555
O24 C57 1_555 1_555
N3 Mn3 1_555 1_555
N4 H97 1_555 1_555
H98 N4 1_555 1_555
C57 N4 1_555 1_555
C58 C57 1_555 1_555
C59 C58 1_555 1_555
H99 C59 1_555 1_555
C60 N3 1_555 1_555
H100 C60 1_555 1_555
C61 N3 1_555 1_555
H101 C61 1_555 1_555
C62 C58 1_555 1_555
H102 C62 1_555 1_555
Mn5C N1 1_555 1_555
Mn6C O24 1_555 1_555
N1C Mn5 1_555 1_555
O24C Mn6 1_555 1_555
Mn2 O2 1_555 1_555
Mn3 O17 1_555 1_555
Mn4 O7 1_555 1_555
Mn5 O11 1_555 1_555
Mn6 O3 1_555 1_555
O4 C1 1_555 1_555
O6 C6 1_555 1_555
O8 C11 1_555 1_555
O10 C16 1_555 1_555
O12 C21 1_555 1_555
O14 C26 1_555 1_555
O16 C31 1_555 1_555
O18 C36 1_555 1_555
O20 C41 1_555 1_555
O22 C46 1_555 1_555
N2 C51 1_555 1_555
C55 C56 1_555 1_555
C59 C60 1_555 1_555
C61 C62 1_555 1_555

#END
