
#######################################################################
#
#                 Cambridge Crystallographic Data Centre
#                                CCDC 
#
#######################################################################
#
# If this CIF has been generated from an entry in the Cambridge 
# Structural Database, then it will include bibliographic, chemical, 
# crystal, experimental, refinement or atomic coordinate data resulting 
# from the CCDC's data processing and validation procedures.
#
#######################################################################

data_ZOJVUR
_symmetry_cell_setting           monoclinic
_symmetry_space_group_name_H-M   'C 2/c'
_symmetry_Int_Tables_number      15
_space_group_name_Hall           '-C 2yn'
loop_
_symmetry_equiv_pos_site_id
_symmetry_equiv_pos_as_xyz
1 x,y,z
2 -x,y,1/2-z
3 1/2+x,1/2+y,z
4 1/2-x,1/2+y,1/2-z
5 -x,-y,-z
6 x,-y,1/2+z
7 1/2-x,1/2-y,-z
8 1/2+x,1/2-y,1/2+z
_cell_length_a                   27.930(8)
_cell_length_b                   12.816(3)
_cell_length_c                   48.811(14)
_cell_angle_alpha                90
_cell_angle_beta                 95.693(7)
_cell_angle_gamma                90
_cell_volume                     17385.8
loop_
_atom_site_label
_atom_site_type_symbol
_atom_site_fract_x
_atom_site_fract_y
_atom_site_fract_z
C61 C 0.7618(11) 0.453(3) 0.3101(6)
H87 H 0.7262 0.4529 0.3084
H88 H 0.7729 0.5205 0.3184
C62 C 0.7815(11) 0.360(3) 0.3295(6)
H89 H 0.7868 0.3792 0.3492
H90 H 0.7621 0.2955 0.327
C63 C 0.8246(11) 0.357(3) 0.3161(6)
H91 H 0.8402 0.2894 0.3206
H92 H 0.8461 0.4118 0.3248
C64 C 0.8239(11) 0.372(3) 0.2849(6)
H93 H 0.8186 0.306 0.2745
H94 H 0.8527 0.4085 0.2795
O23 O 0.7785(8) 0.4426(12) 0.2835(3)
Mn1 Mn 0.68968(5) 1.02409(12) 0.42354(3)
Mn2 Mn 0.52294(5) 0.90990(12) 0.42427(3)
Mn3 Mn 0.66043(6) 1.10119(14) 0.35011(3)
Mn4 Mn 0.59424(5) 0.93712(12) 0.37763(3)
Mn5 Mn 0.58660(5) 1.12993(12) 0.40519(3)
Mn6 Mn 0.49216(6) 1.08933(14) 0.36364(3)
S1 S 0.42874(10) 0.5866(2) 0.51849(6)
S2 S 0.40783(9) 0.4504(2) 0.49945(6)
S3 S 0.74172(12) 1.2212(3) 0.22491(6)
S4 S 0.69949(12) 1.3381(3) 0.20773(6)
C1 C 0.6823(4) 0.8629(9) 0.3544(3)
C2 C 0.7144(5) 0.7690(11) 0.3504(3)
H1 H 0.7341 0.7833 0.3348
C3 C 0.6888(7) 0.6683(12) 0.3455(4)
H2 H 0.674 0.648 0.3621
H3 H 0.7117 0.6145 0.3411
H4 H 0.6637 0.6759 0.3301
C4 C 0.7484(6) 0.7542(14) 0.3773(4)
H5 H 0.7293 0.7524 0.3931
H6 H 0.7712 0.8124 0.3795
H7 H 0.766 0.6885 0.3764
C5 C 0.7581(4) 1.0962(11) 0.3822(3)
C6 C 0.8120(4) 1.1147(13) 0.3791(3)
H8 H 0.8175 1.1918 0.3795
C7 C 0.8447(6) 1.0682(19) 0.4017(4)
H9 H 0.8722 1.0357 0.3941
H10 H 0.8273 1.0153 0.4113
H11 H 0.8563 1.123 0.4148
C8 C 0.8215(6) 1.0764(15) 0.3514(4)
H12 H 0.8553 1.0892 0.3486
H13 H 0.8006 1.1135 0.3373
H14 H 0.8148 1.0014 0.3501
C9 C 0.6372(4) 0.8153(8) 0.4295(2)
C10 C 0.6344(4) 0.7051(8) 0.4424(2)
H15 H 0.6135 0.7104 0.4579
C11 C 0.6098(4) 0.6299(8) 0.4210(3)
H16 H 0.6279 0.6279 0.4049
H17 H 0.5769 0.6538 0.4156
H18 H 0.6088 0.5599 0.429
C12 C 0.6831(4) 0.6655(9) 0.4544(3)
H19 H 0.68 0.5934 0.4607
H20 H 0.6952 0.7095 0.47
H21 H 0.7057 0.668 0.4403
C13 C 0.5149(4) 0.7807(10) 0.3701(3)
C14 C 0.4891(5) 0.7059(12) 0.3492(3)
H22 H 0.5132 0.6816 0.3368
C15 C 0.4719(7) 0.6118(15) 0.3635(4)
H23 H 0.4995 0.5758 0.3733
H24 H 0.4555 0.5645 0.3498
H25 H 0.4495 0.6333 0.3766
C16 C 0.4518(8) 0.7619(17) 0.3323(5)
H26 H 0.4354 0.8102 0.3438
H27 H 0.4284 0.7119 0.3236
H28 H 0.4663 0.8012 0.318
C17 C 0.5970(3) 1.0272(8) 0.4644(2)
C18 C 0.6211(4) 1.0296(9) 0.4934(2)
H29 H 0.5953 1.0356 0.5061
C19 C 0.6473(4) 0.9266(9) 0.4997(2)
H30 H 0.624 0.8692 0.4983
H31 H 0.6636 0.9287 0.5184
H32 H 0.671 0.9156 0.4865
C20 C 0.6551(4) 1.1228(10) 0.4991(2)
H33 H 0.6839 1.1126 0.4894
H34 H 0.6644 1.1283 0.5189
H35 H 0.6387 1.1869 0.4925
C21 C 0.6708(4) 1.2625(8) 0.4229(2)
C22 C 0.6906(4) 1.3736(8) 0.4258(3)
H36 H 0.6638 1.4206 0.4301
C23 C 0.7056(5) 1.4054(11) 0.3979(3)
H37 H 0.7279 1.3533 0.3917
H38 H 0.7216 1.4735 0.3994
H39 H 0.6771 1.4099 0.3845
C24 C 0.7312(4) 1.3829(10) 0.4491(3)
H40 H 0.7546 1.3267 0.4475
H41 H 0.7178 1.3773 0.4669
H42 H 0.7472 1.4505 0.4479
C25 C 0.5801(4) 1.2668(9) 0.3516(3)
C26 C 0.5550(5) 1.3655(11) 0.3395(3)
H43 H 0.5284 1.3862 0.3507
C27 C 0.5887(6) 1.4536(11) 0.3375(4)
H44 H 0.6025 1.4734 0.356
H45 H 0.5713 1.5132 0.3288
H46 H 0.6145 1.4326 0.3265
C28 C 0.5335(7) 1.3389(16) 0.3083(4)
H47 H 0.5047 1.3811 0.3034
H48 H 0.5251 1.2647 0.3069
H49 H 0.5577 1.3547 0.2957
C29 C 0.4243(4) 0.9652(11) 0.3957(3)
C30 C 0.3720(5) 0.9313(14) 0.3976(3)
H50 H 0.3647 0.8832 0.3816
C31 C 0.3419(6) 1.0292(16) 0.3899(4)
H51 H 0.3077 1.0107 0.3876
H52 H 0.3513 1.0583 0.3727
H53 H 0.3476 1.0812 0.4046
C32 C 0.3661(6) 0.8649(19) 0.4224(4)
H54 H 0.3571 0.9091 0.4374
H55 H 0.3964 0.8292 0.4281
H56 H 0.3408 0.813 0.4178
C33 C 0.4925(3) 1.2206(8) 0.4172(2)
C34 C 0.4649(4) 1.2805(9) 0.4372(2)
H57 H 0.4881 1.3161 0.451
C35 C 0.4343(4) 1.2030(10) 0.4521(3)
H58 H 0.4054 1.1846 0.44
H59 H 0.4249 1.2352 0.469
H60 H 0.4531 1.1399 0.4568
C36 C 0.4318(5) 1.3618(11) 0.4224(3)
H61 H 0.4512 1.4148 0.4142
H62 H 0.4125 1.3951 0.4357
H63 H 0.4104 1.3279 0.408
C37 C 0.5519(6) 1.0082(13) 0.3187(3)
C38 C 0.5562(6) 0.9669(15) 0.2891(3)
H64 H 0.5248 0.9336 0.2824
C39 C 0.5617(9) 1.0622(19) 0.2717(4)
H65 H 0.5815 1.114 0.2823
H66 H 0.5299 1.092 0.266
H67 H 0.5773 1.0428 0.2553
C40 C 0.5951(8) 0.8848(19) 0.2879(4)
H68 H 0.5983 0.8666 0.2687
H69 H 0.5863 0.8224 0.2979
H70 H 0.6257 0.9123 0.2965
C41 C 0.4887(3) 0.8256(9) 0.4812(2)
H71 H 0.4978 0.8947 0.4866
C42 C 0.4666(4) 0.7650(9) 0.4997(2)
H72 H 0.4594 0.7931 0.5168
C43 C 0.4550(3) 0.6614(8) 0.4927(2)
C44 C 0.4638(4) 0.6269(9) 0.4671(2)
H73 H 0.455 0.5578 0.4616
C45 C 0.4853(4) 0.6914(9) 0.4492(3)
H74 H 0.4912 0.6654 0.4316
C46 C 0.3486(3) 0.4765(9) 0.4832(2)
C47 C 0.3229(4) 0.3921(9) 0.4721(2)
H75 H 0.3368 0.3243 0.4731
C48 C 0.2765(4) 0.4066(9) 0.4593(2)
H76 H 0.259 0.3474 0.4521
C49 C 0.2810(4) 0.5803(9) 0.4676(2)
H77 H 0.2668 0.6476 0.466
C50 C 0.3276(4) 0.5726(9) 0.4814(2)
H78 H 0.3439 0.6324 0.4891
C51 C 0.6729(5) 1.2306(13) 0.2939(3)
H79 H 0.6524 1.2773 0.3024
C52 C 0.6878(5) 1.2597(12) 0.2692(3)
H80 H 0.6771 1.3235 0.2608
C53 C 0.7181(4) 1.1960(11) 0.2568(2)
C54 C 0.7315(4) 1.1015(11) 0.2696(2)
H81 H 0.7523 1.0545 0.2615
C55 C 0.7136(5) 1.0775(12) 0.2946(3)
H82 H 0.7222 1.0126 0.3031
C56 C 0.6477(4) 1.2732(9) 0.1913(2)
C57 C 0.6346(5) 1.1711(10) 0.1971(3)
H83 H 0.6537 1.1306 0.2103
C58 C 0.6199(4) 1.3281(10) 0.1717(2)
H84 H 0.6276 1.3979 0.1673
C59 C 0.5792(5) 1.2778(10) 0.1582(3)
H85 H 0.5601 1.315 0.1443
C60 C 0.5931(5) 1.1299(12) 0.1831(3)
H86 H 0.5837 1.0612 0.1875
N1 N 0.4982(3) 0.7928(7) 0.45621(18)
N2 N 0.2555(3) 0.5007(6) 0.45670(18)
N3 N 0.5662(3) 1.1821(8) 0.16398(19)
N4 N 0.6850(3) 1.1411(8) 0.30720(19)
O1 O 0.6345(2) 1.0514(5) 0.38895(13)
O2 O 0.5466(2) 1.0166(5) 0.39286(13)
O3 O 0.7468(3) 1.0247(6) 0.39826(16)
O4 O 0.6469(3) 0.8462(6) 0.36797(14)
O5 O 0.5116(3) 1.0299(7) 0.32510(15)
O6 O 0.4714(2) 1.1944(6) 0.39478(14)
O7 O 0.5907(3) 1.0117(6) 0.33552(15)
O8 O 0.6918(3) 0.9489(6) 0.34364(16)
O9 O 0.7283(3) 1.1554(6) 0.36744(16)
O10 O 0.5377(2) 1.2005(5) 0.42546(13)
O11 O 0.5543(2) 0.9911(6) 0.46073(14)
O12 O 0.6202(2) 1.0614(6) 0.44554(14)
O13 O 0.6989(2) 1.1902(5) 0.43093(15)
O14 O 0.6272(2) 1.2538(5) 0.41277(15)
O15 O 0.6759(2) 0.8627(5) 0.43142(14)
O16 O 0.4370(3) 0.9826(6) 0.37218(16)
O17 O 0.5553(3) 1.2085(6) 0.36606(14)
O18 O 0.5981(2) 0.8520(5) 0.41788(13)
O19 O 0.5494(3) 0.8321(6) 0.36055(15)
O20 O 0.5028(2) 0.7907(6) 0.39365(15)
O21 O 0.4520(2) 0.9662(6) 0.41835(15)
O22 O 0.6218(3) 1.2462(6) 0.34549(16)
Mn1B Mn 0.18968(5) 0.52409(12) 0.42354(3)
Mn6A Mn 0.50784(6) 1.08933(14) 0.13636(3)
N2B N 0.7555(3) 1.0007(6) 0.45670(18)
N3A N 0.4338(3) 1.1821(8) 0.33602(19)
loop_
_geom_bond_atom_site_label_1
_geom_bond_atom_site_label_2
_geom_bond_site_symmetry_1
_geom_bond_site_symmetry_2
Mn1 O1 1_555 1_555
Mn2 N1 1_555 1_555
Mn3 N4 1_555 1_555
Mn4 Mn5 1_555 1_555
Mn5 O1 1_555 1_555
Mn6 O2 1_555 1_555
S1 S2 1_555 1_555
S2 C46 1_555 1_555
S3 S4 1_555 1_555
S4 C56 1_555 1_555
C1 C2 1_555 1_555
C2 H1 1_555 1_555
C3 C2 1_555 1_555
H2 C3 1_555 1_555
H3 C3 1_555 1_555
H4 C3 1_555 1_555
C4 C2 1_555 1_555
H5 C4 1_555 1_555
H6 C4 1_555 1_555
H7 C4 1_555 1_555
C5 C6 1_555 1_555
C6 H8 1_555 1_555
C7 C6 1_555 1_555
H9 C7 1_555 1_555
H10 C7 1_555 1_555
H11 C7 1_555 1_555
C8 C6 1_555 1_555
H12 C8 1_555 1_555
H13 C8 1_555 1_555
H14 C8 1_555 1_555
C9 C10 1_555 1_555
C10 H15 1_555 1_555
C11 C10 1_555 1_555
H16 C11 1_555 1_555
H17 C11 1_555 1_555
H18 C11 1_555 1_555
C12 C10 1_555 1_555
H19 C12 1_555 1_555
H20 C12 1_555 1_555
H21 C12 1_555 1_555
C13 C14 1_555 1_555
C14 H22 1_555 1_555
C15 C14 1_555 1_555
H23 C15 1_555 1_555
H24 C15 1_555 1_555
H25 C15 1_555 1_555
C16 C14 1_555 1_555
H26 C16 1_555 1_555
H27 C16 1_555 1_555
H28 C16 1_555 1_555
C17 C18 1_555 1_555
C18 H29 1_555 1_555
C19 C18 1_555 1_555
H30 C19 1_555 1_555
H31 C19 1_555 1_555
H32 C19 1_555 1_555
C20 C18 1_555 1_555
H33 C20 1_555 1_555
H34 C20 1_555 1_555
H35 C20 1_555 1_555
C21 C22 1_555 1_555
C22 H36 1_555 1_555
C23 C22 1_555 1_555
H37 C23 1_555 1_555
H38 C23 1_555 1_555
H39 C23 1_555 1_555
C24 C22 1_555 1_555
H40 C24 1_555 1_555
H41 C24 1_555 1_555
H42 C24 1_555 1_555
C25 C26 1_555 1_555
C26 H43 1_555 1_555
C27 C26 1_555 1_555
H44 C27 1_555 1_555
H45 C27 1_555 1_555
H46 C27 1_555 1_555
C28 C26 1_555 1_555
H47 C28 1_555 1_555
H48 C28 1_555 1_555
H49 C28 1_555 1_555
C29 C30 1_555 1_555
C30 H50 1_555 1_555
C31 C30 1_555 1_555
H51 C31 1_555 1_555
H52 C31 1_555 1_555
H53 C31 1_555 1_555
C32 C30 1_555 1_555
H54 C32 1_555 1_555
H55 C32 1_555 1_555
H56 C32 1_555 1_555
C33 C34 1_555 1_555
C34 H57 1_555 1_555
C35 C34 1_555 1_555
H58 C35 1_555 1_555
H59 C35 1_555 1_555
H60 C35 1_555 1_555
C36 C34 1_555 1_555
H61 C36 1_555 1_555
H62 C36 1_555 1_555
H63 C36 1_555 1_555
C37 C38 1_555 1_555
C38 H64 1_555 1_555
C39 C38 1_555 1_555
H65 C39 1_555 1_555
H66 C39 1_555 1_555
H67 C39 1_555 1_555
C40 C38 1_555 1_555
H68 C40 1_555 1_555
H69 C40 1_555 1_555
H70 C40 1_555 1_555
C41 H71 1_555 1_555
C42 C41 1_555 1_555
H72 C42 1_555 1_555
C43 S1 1_555 1_555
C44 C43 1_555 1_555
H73 C44 1_555 1_555
C45 C44 1_555 1_555
H74 C45 1_555 1_555
C46 C47 1_555 1_555
C47 H75 1_555 1_555
C48 C47 1_555 1_555
H76 C48 1_555 1_555
C49 H77 1_555 1_555
C50 C46 1_555 1_555
H78 C50 1_555 1_555
C51 H79 1_555 1_555
C52 C51 1_555 1_555
H80 C52 1_555 1_555
C53 S3 1_555 1_555
C54 C53 1_555 1_555
H81 C54 1_555 1_555
C55 C54 1_555 1_555
H82 C55 1_555 1_555
C56 C57 1_555 1_555
C57 H83 1_555 1_555
C58 C56 1_555 1_555
H84 C58 1_555 1_555
C59 C58 1_555 1_555
H85 C59 1_555 1_555
C60 C57 1_555 1_555
H86 C60 1_555 1_555
N1 C41 1_555 1_555
N2 C48 1_555 1_555
N3 C59 1_555 1_555
N4 C51 1_555 1_555
O1 Mn3 1_555 1_555
O2 Mn2 1_555 1_555
O3 Mn1 1_555 1_555
O4 Mn4 1_555 1_555
O5 Mn6 1_555 1_555
O6 Mn6 1_555 1_555
O7 Mn3 1_555 1_555
O8 Mn3 1_555 1_555
O9 Mn3 1_555 1_555
O10 Mn5 1_555 1_555
O11 Mn2 1_555 1_555
O12 Mn1 1_555 1_555
O13 Mn1 1_555 1_555
O14 Mn5 1_555 1_555
O15 Mn1 1_555 1_555
O16 Mn6 1_555 1_555
O17 Mn5 1_555 1_555
O18 Mn2 1_555 1_555
O19 Mn4 1_555 1_555
O20 Mn2 1_555 1_555
O21 Mn2 1_555 1_555
O22 Mn3 1_555 1_555
C61 H87 1_555 1_555
H88 C61 1_555 1_555
C62 C61 1_555 1_555
H89 C62 1_555 1_555
H90 C62 1_555 1_555
C63 C62 1_555 1_555
H91 C63 1_555 1_555
H92 C63 1_555 1_555
C64 C63 1_555 1_555
H93 C64 1_555 1_555
H94 C64 1_555 1_555
O23 C61 1_555 1_555
Mn1B N2 1_555 1_555
Mn6A N3 1_555 1_555
N2B Mn1 1_555 1_555
N3A Mn6 1_555 1_555
Mn4 O1 1_555 1_555
Mn4 O2 1_555 1_555
Mn4 O7 1_555 1_555
Mn4 O18 1_555 1_555
Mn5 O2 1_555 1_555
Mn5 O12 1_555 1_555
Mn6 O17 1_555 1_555
C1 O4 1_555 1_555
C1 O8 1_555 1_555
C5 O3 1_555 1_555
C5 O9 1_555 1_555
C9 O15 1_555 1_555
C9 O18 1_555 1_555
C13 O19 1_555 1_555
C13 O20 1_555 1_555
C17 O11 1_555 1_555
C17 O12 1_555 1_555
C21 O13 1_555 1_555
C21 O14 1_555 1_555
C25 O17 1_555 1_555
C25 O22 1_555 1_555
C29 O16 1_555 1_555
C29 O21 1_555 1_555
C33 O6 1_555 1_555
C33 O10 1_555 1_555
C37 O5 1_555 1_555
C37 O7 1_555 1_555
C42 C43 1_555 1_555
C45 N1 1_555 1_555
C49 C50 1_555 1_555
C49 N2 1_555 1_555
C52 C53 1_555 1_555
C55 N4 1_555 1_555
C60 N3 1_555 1_555
C64 O23 1_555 1_555

#END
