
#######################################################################
#
#                 Cambridge Crystallographic Data Centre
#                                CCDC 
#
#######################################################################
#
# If this CIF has been generated from an entry in the Cambridge 
# Structural Database, then it will include bibliographic, chemical, 
# crystal, experimental, refinement or atomic coordinate data resulting 
# from the CCDC's data processing and validation procedures.
#
#######################################################################

data_ZOKBIM
_symmetry_cell_setting           triclinic
_symmetry_space_group_name_H-M   'P -1'
_symmetry_Int_Tables_number      2
_space_group_name_Hall           '-P 1'
loop_
_symmetry_equiv_pos_site_id
_symmetry_equiv_pos_as_xyz
1 x,y,z
2 -x,-y,-z
_cell_length_a                   11.3153(15)
_cell_length_b                   12.5290(17)
_cell_length_c                   19.184(3)
_cell_angle_alpha                88.406(2)
_cell_angle_beta                 76.988(2)
_cell_angle_gamma                84.482(2)
_cell_volume                     2637.54
loop_
_atom_site_label
_atom_site_type_symbol
_atom_site_fract_x
_atom_site_fract_y
_atom_site_fract_z
C1 C 0.3596(7) 1.0104(6) 0.3199(4)
C2 C 0.2382(7) 1.0528(6) 0.3220(4)
C3 C 0.1926(8) 1.1524(7) 0.3498(5)
H1 H 0.1125 1.1782 0.3507
C4 C 0.2666(10) 1.2125(8) 0.3760(6)
H2 H 0.2364 1.2799 0.3946
C5 C 0.3840(10) 1.1759(8) 0.3755(6)
H3 H 0.4337 1.2184 0.3930
C6 C 0.4291(8) 1.0747(7) 0.3486(5)
C7 C 0.5543(8) 1.0277(8) 0.3550(6)
H4 H 0.5915 1.0796 0.3778
H5 H 0.5463 0.9645 0.3855
C8 C 0.7532(9) 0.9562(8) 0.3016(6)
H6 H 0.8075 0.9288 0.2587
H7 H 0.7402 0.8998 0.3366
H8 H 0.7883 1.0130 0.3200
C9 C 0.6524(10) 1.1005(7) 0.2497(6)
H9 H 0.6791 1.1480 0.2802
H10 H 0.5771 1.1310 0.2393
H11 H 0.7130 1.0904 0.2059
C10 C 0.0513(8) 1.0171(7) 0.2879(5)
H12 H 0.0090 1.0591 0.3293
H13 H 0.0070 0.9549 0.2862
C11 C 0.0518(10) 1.0819(9) 0.2228(6)
H14 H 0.1023 1.0442 0.1824
H15 H 0.0833 1.1491 0.2277
H16 H -0.0297 1.0948 0.2159
C12 C 0.7389(7) 0.9042(5) 0.0977(4)
C13 C 0.6497(7) 0.9859(5) 0.0876(4)
C14 C 0.6682(7) 1.0527(6) 0.0295(4)
H17 H 0.6084 1.1066 0.0241
C15 C 0.7761(8) 1.0396(6) -0.0210(4)
H18 H 0.7899 1.0855 -0.0604
C16 C 0.8637(7) 0.9585(6) -0.0134(4)
H19 H 0.9352 0.9490 -0.0487
C17 C 0.8476(7) 0.8917(5) 0.0451(4)
C18 C 0.9455(7) 0.8088(6) 0.0537(4)
H20 H 0.9800 0.8301 0.0925
H21 H 1.0093 0.8075 0.0104
C19 C 0.8436(7) 0.6665(6) 0.0146(4)
H22 H 0.8934 0.6760 -0.0323
H23 H 0.7686 0.7116 0.0197
H24 H 0.8263 0.5929 0.0213
C20 C 1.0204(7) 0.6218(6) 0.0629(4)
H25 H 1.0674 0.6221 0.0146
H26 H 0.9984 0.5506 0.0759
H27 H 1.0677 0.6445 0.0945
C21 C 0.4292(7) 1.0275(6) 0.1231(5)
H28 H 0.3669 0.9838 0.1486
H29 H 0.4381 1.0166 0.0723
C22 C 0.3899(8) 1.1419(6) 0.1400(5)
H30 H 0.3902 1.1549 0.1890
H31 H 0.3091 1.1589 0.1324
H32 H 0.4449 1.1861 0.1094
C23 C 0.7186(7) 0.4871(6) 0.1471(4)
C24 C 0.8247(8) 0.4410(7) 0.1676(5)
C25 C 0.8609(8) 0.3328(7) 0.1521(5)
H33 H 0.9300 0.2999 0.1652
C26 C 0.7931(10) 0.2742(7) 0.1171(5)
H34 H 0.8191 0.2029 0.1058
C27 C 0.6912(9) 0.3188(6) 0.0993(5)
H35 H 0.6474 0.2780 0.0761
C28 C 0.6501(8) 0.4260(6) 0.1153(4)
C29 C 0.5334(7) 0.4760(6) 0.1007(4)
H36 H 0.5489 0.5401 0.0718
H37 H 0.5009 0.4265 0.0736
C30 C 0.4083(7) 0.4086(6) 0.2112(5)
H38 H 0.3690 0.3635 0.1856
H39 H 0.3537 0.4299 0.2556
H40 H 0.4804 0.3698 0.2208
C31 C 0.3291(8) 0.5559(7) 0.1498(5)
H41 H 0.2946 0.5054 0.1252
H42 H 0.3477 0.6172 0.1195
H43 H 0.2717 0.5782 0.1929
C32 C 0.8900(12) 0.4647(11) 0.2828(8)
H44 H 0.8515 0.5160 0.3199
H45 H 0.8603 0.3948 0.2940
C33 C 1.0198(12) 0.4601(12) 0.2642(9)
H46 H 1.0506 0.4239 0.2195
H47 H 1.0528 0.4226 0.3009
H48 H 1.0432 0.5321 0.2600
C34 C 0.3275(7) 0.5937(6) 0.3659(4)
C35 C 0.2092(9) 0.6218(7) 0.4085(5)
C36 C 0.1633(9) 0.5738(8) 0.4725(6)
H49 H 0.0843 0.5936 0.4977
C37 C 0.2367(10) 0.4949(8) 0.4993(5)
H50 H 0.2067 0.4621 0.5429
C38 C 0.3518(10) 0.4656(7) 0.4622(5)
H51 H 0.4004 0.4136 0.4811
C39 C 0.3985(8) 0.5130(6) 0.3954(5)
C40 C 0.5186(8) 0.4761(7) 0.3590(6)
H52 H 0.5610 0.4277 0.3843
C41 C 0.0072(12) 0.7161(12) 0.4047(8)
H53 H -0.0330 0.7216 0.3649
H54 H -0.0217 0.6567 0.4352
C42 C -0.0140(18) 0.8149(14) 0.4443(10)
H55 H 0.0176 0.8047 0.4867
H56 H -0.0999 0.8358 0.4575
H57 H 0.0262 0.8700 0.4151
Co1 Co 0.56025(9) 0.87784(7) 0.23203(5)
Co2 Co 0.51732(9) 0.61793(7) 0.23145(6)
Co3 Co 0.79337(9) 0.69803(7) 0.17491(6)
N1 N 0.4686(5) 0.7611(4) 0.1782(4)
N2 N 0.4902(6) 0.7638(4) 0.1131(5)
N3 N 0.5088(7) 0.7675(6) 0.0515(4)
N4 N 0.6240(5) 0.7313(5) 0.2769(4)
N5 N 0.6441(6) 0.7166(5) 0.3357(4)
N6 N 0.6620(8) 0.7024(7) 0.3919(4)
N7 N 0.9122(6) 0.7339(6) 0.2318(4)
N8 N 1.0142(7) 0.7527(5) 0.2184(4)
N9 N 1.1140(7) 0.7730(7) 0.2073(5)
N10 N 0.9088(5) 0.6958(5) 0.0688(3)
N11 N 0.4418(6) 0.5049(5) 0.1677(4)
N12 N 0.6344(6) 0.9983(5) 0.2854(4)
Na1 Na 0.2650(2) 0.7996(2) 0.27329(17)
O1 O 0.3986(4) 0.9146(4) 0.2932(3)
O2 O 0.1726(5) 0.9819(4) 0.2956(3)
O3 O 0.7159(4) 0.8424(3) 0.1563(3)
O4 O 0.5441(5) 0.9930(4) 0.1427(3)
O5 O 0.6818(4) 0.5908(3) 0.1627(3)
O6 O 0.8845(6) 0.5070(5) 0.2001(4)
O7 O 0.1442(6) 0.7019(5) 0.3784(4)
O8 O 0.3637(5) 0.6436(4) 0.3062(3)
O9 O 0.5740(5) 0.4995(4) 0.2988(3)
N9_2 N 0.1140(7) 0.7730(7) 0.2073(5)
Na1_2 Na 1.2650(2) 0.7996(2) 0.27329(17)
C43 C 0.7725(13) 0.2283(10) 0.4242(7)
H58 H 0.7327 0.2955 0.4189
C44 C 0.6030(11) 0.1994(10) 0.5254(6)
H59 H 0.5732 0.2694 0.5117
H60 H 0.6138 0.2015 0.5736
H61 H 0.5454 0.1491 0.5226
C45 C 0.7752(13) 0.0602(11) 0.4902(7)
H62 H 0.7243 0.0069 0.4821
H63 H 0.7846 0.0551 0.5387
H64 H 0.8536 0.0486 0.4581
N13 N 0.7190(9) 0.1666(7) 0.4774(6)
O10 O 0.8675(9) 0.2053(7) 0.3824(5)
loop_
_geom_bond_atom_site_label_1
_geom_bond_atom_site_label_2
_geom_bond_site_symmetry_1
_geom_bond_site_symmetry_2
C1 C2 1_555 1_555
C2 C3 1_555 1_555
C3 H1 1_555 1_555
C4 C3 1_555 1_555
H2 C4 1_555 1_555
C5 C4 1_555 1_555
H3 C5 1_555 1_555
C6 C1 1_555 1_555
C7 C6 1_555 1_555
H4 C7 1_555 1_555
H5 C7 1_555 1_555
C8 H6 1_555 1_555
H7 C8 1_555 1_555
H8 C8 1_555 1_555
C9 H9 1_555 1_555
H10 C9 1_555 1_555
H11 C9 1_555 1_555
C10 H12 1_555 1_555
H13 C10 1_555 1_555
C11 C10 1_555 1_555
H14 C11 1_555 1_555
H15 C11 1_555 1_555
H16 C11 1_555 1_555
C12 C13 1_555 1_555
C13 C14 1_555 1_555
C14 H17 1_555 1_555
C15 C14 1_555 1_555
H18 C15 1_555 1_555
C16 C15 1_555 1_555
H19 C16 1_555 1_555
C17 C12 1_555 1_555
C18 C17 1_555 1_555
H20 C18 1_555 1_555
H21 C18 1_555 1_555
C19 H22 1_555 1_555
H23 C19 1_555 1_555
H24 C19 1_555 1_555
C20 H25 1_555 1_555
H26 C20 1_555 1_555
H27 C20 1_555 1_555
C21 H28 1_555 1_555
H29 C21 1_555 1_555
C22 C21 1_555 1_555
H30 C22 1_555 1_555
H31 C22 1_555 1_555
H32 C22 1_555 1_555
C23 C24 1_555 1_555
C24 C25 1_555 1_555
C25 H33 1_555 1_555
C26 C25 1_555 1_555
H34 C26 1_555 1_555
C27 C26 1_555 1_555
H35 C27 1_555 1_555
C28 C23 1_555 1_555
C29 C28 1_555 1_555
H36 C29 1_555 1_555
H37 C29 1_555 1_555
C30 H38 1_555 1_555
H39 C30 1_555 1_555
H40 C30 1_555 1_555
C31 H41 1_555 1_555
H42 C31 1_555 1_555
H43 C31 1_555 1_555
C32 H44 1_555 1_555
H45 C32 1_555 1_555
C33 C32 1_555 1_555
H46 C33 1_555 1_555
H47 C33 1_555 1_555
H48 C33 1_555 1_555
C34 C35 1_555 1_555
C35 C36 1_555 1_555
C36 H49 1_555 1_555
C37 C36 1_555 1_555
H50 C37 1_555 1_555
C38 C37 1_555 1_555
H51 C38 1_555 1_555
C39 C34 1_555 1_555
C40 C39 1_555 1_555
H52 C40 1_555 1_555
C41 H53 1_555 1_555
H54 C41 1_555 1_555
C42 C41 1_555 1_555
H55 C42 1_555 1_555
H56 C42 1_555 1_555
H57 C42 1_555 1_555
Co1 N1 1_555 1_555
Co2 N1 1_555 1_555
Co3 N4 1_555 1_555
N1 N2 1_555 1_555
N2 N3 1_555 1_555
N4 Co1 1_555 1_555
N5 N4 1_555 1_555
N6 N5 1_555 1_555
N7 Co3 1_555 1_555
N8 N7 1_555 1_555
N9 N8 1_555 1_555
N10 C18 1_555 1_555
N11 C29 1_555 1_555
N12 C7 1_555 1_555
Na1 N1 1_555 1_555
O1 C1 1_555 1_555
O2 C2 1_555 1_555
O3 C12 1_555 1_555
O4 C13 1_555 1_555
O5 C23 1_555 1_555
O6 C24 1_555 1_555
O7 C35 1_555 1_555
O8 C34 1_555 1_555
O9 C40 1_555 1_555
C43 H58 1_555 1_555
C44 H59 1_555 1_555
H60 C44 1_555 1_555
H61 C44 1_555 1_555
C45 H62 1_555 1_555
H63 C45 1_555 1_555
H64 C45 1_555 1_555
N13 C43 1_555 1_555
O10 C43 1_555 1_555
N9_2 Na1 1_555 1_555
Na1_2 N9 1_555 1_555
C5 C6 1_555 1_555
C8 N12 1_555 1_555
C9 N12 1_555 1_555
C10 O2 1_555 1_555
C16 C17 1_555 1_555
C19 N10 1_555 1_555
C20 N10 1_555 1_555
C21 O4 1_555 1_555
C27 C28 1_555 1_555
C30 N11 1_555 1_555
C31 N11 1_555 1_555
C32 O6 1_555 1_555
C38 C39 1_555 1_555
C41 O7 1_555 1_555
Co1 N12 1_555 1_555
Co1 O1 1_555 1_555
Co1 O3 1_555 1_555
Co1 O4 1_555 1_555
Co2 N4 1_555 1_555
Co2 N11 1_555 1_555
Co2 O5 1_555 1_555
Co2 O8 1_555 1_555
Co2 O9 1_555 1_555
Co3 N10 1_555 1_555
Co3 O3 1_555 1_555
Co3 O5 1_555 1_555
Na1 O1 1_555 1_555
Na1 O2 1_555 1_555
Na1 O7 1_555 1_555
Na1 O8 1_555 1_555
C44 N13 1_555 1_555
C45 N13 1_555 1_555

#END
