
#######################################################################
#
#                 Cambridge Crystallographic Data Centre
#                                CCDC 
#
#######################################################################
#
# If this CIF has been generated from an entry in the Cambridge 
# Structural Database, then it will include bibliographic, chemical, 
# crystal, experimental, refinement or atomic coordinate data resulting 
# from the CCDC's data processing and validation procedures.
#
#######################################################################

data_ZOKBAE
_symmetry_cell_setting           triclinic
_symmetry_space_group_name_H-M   'P -1'
_symmetry_Int_Tables_number      2
_space_group_name_Hall           '-P 1'
loop_
_symmetry_equiv_pos_site_id
_symmetry_equiv_pos_as_xyz
1 x,y,z
2 -x,-y,-z
_cell_length_a                   7.15368(18)
_cell_length_b                   8.9039(2)
_cell_length_c                   15.2158(4)
_cell_angle_alpha                95.330(2)
_cell_angle_beta                 94.693(2)
_cell_angle_gamma                92.915(2)
_cell_volume                     960.084
loop_
_atom_site_label
_atom_site_type_symbol
_atom_site_fract_x
_atom_site_fract_y
_atom_site_fract_z
Ag1 Ag 0.32111(2) 1.440053(16) 0.371850(10)
Ag2 Ag 0.27043(2) 1.967125(17) 0.137851(10)
N1 N 0.2752(2) 1.32042(19) 0.17567(11)
N2 N 0.9567(2) 1.95752(19) 0.10906(11)
O1 O 0.2492(2) 1.45416(16) 0.20134(10)
O2 O 0.2003(2) 1.85791(19) 0.28303(11)
N3 N 1.0158(2) 1.43492(19) 0.38691(11)
C1 C 0.9281(3) 1.5643(2) 0.38236(14)
H1 H 0.9997(3) 1.6557(2) 0.37776(14)
O3 O 0.3388(2) 1.73126(16) 0.38277(10)
O4 O 0.4988(2) 1.82543(18) 0.28325(10)
N4 N 0.5678(2) 1.95224(19) 0.10567(11)
O5 O 0.3157(2) 1.22873(17) 0.23186(10)
N5 N 0.6304(2) 1.43996(19) 0.39251(11)
C2 C 0.8643(3) 2.0853(2) 0.10859(14)
H2 H 0.9335(3) 2.1793(2) 0.10928(14)
O6 O 0.2622(2) 1.27490(17) 0.09492(10)
C3 C 0.8544(3) 1.8263(2) 0.10538(13)
C4 C 0.7131(3) 1.0439(2) 0.44004(14)
H3 H 0.6339(5) 0.9488(2) 0.4372(11)
H4 H 0.7598(12) 1.0688(15) 0.5030(3)
N6 N 0.3467(2) 1.80501(19) 0.31590(11)
C5 C 0.6716(3) 2.0826(2) 0.10715(14)
H5 H 0.6106(3) 2.1750(2) 0.10719(14)
C6 C 0.7161(3) 1.3102(2) 0.39760(13)
C7 C 0.8367(3) 1.5404(2) 0.08252(15)
H6 H 0.8070(11) 1.5241(16) 0.01752(15)
H7 H 0.9054(3) 1.4521(7) 0.0993(11)
C8 C 0.7353(3) 1.5667(2) 0.38426(14)
H8 H 0.6761(3) 1.6591(2) 0.37966(14)
C9 C 0.9119(3) 1.3075(2) 0.39347(13)
C10 C 0.6576(3) 1.8234(2) 0.10313(12)
C11 C 0.9602(3) 1.6847(2) 0.10664(15)
H9 H 1.0580(16) 1.6888(2) 0.0644(8)
H10 H 1.024(2) 1.6814(2) 0.1667(4)
C12 C 1.0122(3) 1.1630(2) 0.39598(15)
H11 H 1.1002(18) 1.1572(2) 0.3490(8)
H12 H 1.0878(19) 1.1646(2) 0.4536(5)
C13 C 0.6555(3) 1.5486(2) 0.12895(14)
H13 H 0.5803(3) 1.4514(3) 0.1160(11)
H14 H 0.6862(12) 1.5668(16) 0.19383(18)
C14 C 0.5415(3) 1.6766(2) 0.09661(14)
H15 H 0.4338(14) 1.6898(5) 0.1330(9)
H16 H 0.493(2) 1.6490(2) 0.0341(3)
C15 C 0.8771(3) 1.0223(2) 0.38313(14)
H17 H 0.9438(6) 0.9317(8) 0.3975(10)
H18 H 0.8311(10) 0.9995(16) 0.31991(14)
C16 C 0.5971(3) 1.1700(2) 0.40754(14)
H19 H 0.5243(19) 1.1346(3) 0.3506(5)
H20 H 0.4994(16) 1.1938(5) 0.4484(8)
Ag1_2 Ag 1.32111(2) 1.440053(16) 0.371850(10)
Ag2_2 Ag 0.27043(2) 0.967125(17) 0.137851(10)
Ag2_3 Ag 1.27043(2) 1.967125(17) 0.137851(10)
N2_2 N -0.0433(2) 1.95752(19) 0.10906(11)
N3_2 N 0.0158(2) 1.43492(19) 0.38691(11)
O5_2 O 0.3157(2) 2.22873(17) 0.23186(10)
loop_
_geom_bond_atom_site_label_1
_geom_bond_atom_site_label_2
_geom_bond_site_symmetry_1
_geom_bond_site_symmetry_2
Ag1 O1 1_555 1_555
Ag2 O2 1_555 1_555
N1 O1 1_555 1_555
N2 C2 1_555 1_555
O2 N6 1_555 1_555
N3 C1 1_555 1_555
C1 H1 1_555 1_555
O3 Ag1 1_555 1_555
O4 N6 1_555 1_555
N4 Ag2 1_555 1_555
O5 Ag1 1_555 1_555
N5 Ag1 1_555 1_555
C2 H2 1_555 1_555
O6 N1 1_555 1_555
C3 N2 1_555 1_555
C4 H3 1_555 1_555
H4 C4 1_555 1_555
N6 O3 1_555 1_555
C5 N4 1_555 1_555
H5 C5 1_555 1_555
C6 N5 1_555 1_555
C7 H6 1_555 1_555
H7 C7 1_555 1_555
C8 C1 1_555 1_555
H8 C8 1_555 1_555
C9 N3 1_555 1_555
C10 N4 1_555 1_555
C11 C3 1_555 1_555
H9 C11 1_555 1_555
H10 C11 1_555 1_555
C12 C9 1_555 1_555
H11 C12 1_555 1_555
H12 C12 1_555 1_555
C13 C7 1_555 1_555
H13 C13 1_555 1_555
H14 C13 1_555 1_555
C14 C10 1_555 1_555
H15 C14 1_555 1_555
H16 C14 1_555 1_555
C15 C4 1_555 1_555
H17 C15 1_555 1_555
H18 C15 1_555 1_555
C16 C4 1_555 1_555
H19 C16 1_555 1_555
H20 C16 1_555 1_555
Ag1_2 N3 1_555 1_555
Ag2_2 O5 1_555 1_555
Ag2_3 N2 1_555 1_555
N2_2 Ag2 1_555 1_555
N3_2 Ag1 1_555 1_555
O5_2 Ag2 1_555 1_555
N1 O5 1_555 1_555
N5 C8 1_555 1_555
C2 C5 1_555 1_555
C3 C10 1_555 1_555
C6 C9 1_555 1_555
C6 C16 1_555 1_555
C7 C11 1_555 1_555
C12 C15 1_555 1_555
C13 C14 1_555 1_555

#END
