
#######################################################################
#
#                 Cambridge Crystallographic Data Centre
#                                CCDC 
#
#######################################################################
#
# If this CIF has been generated from an entry in the Cambridge 
# Structural Database, then it will include bibliographic, chemical, 
# crystal, experimental, refinement or atomic coordinate data resulting 
# from the CCDC's data processing and validation procedures.
#
#######################################################################

data_ZOKBEI
_symmetry_cell_setting           triclinic
_symmetry_space_group_name_H-M   'P -1'
_symmetry_Int_Tables_number      2
_space_group_name_Hall           '-P 1'
loop_
_symmetry_equiv_pos_site_id
_symmetry_equiv_pos_as_xyz
1 x,y,z
2 -x,-y,-z
_cell_length_a                   7.9407(2)
_cell_length_b                   10.2061(2)
_cell_length_c                   13.7769(3)
_cell_angle_alpha                96.4983(19)
_cell_angle_beta                 96.444(2)
_cell_angle_gamma                110.913(2)
_cell_volume                     1022.17
loop_
_atom_site_label
_atom_site_type_symbol
_atom_site_fract_x
_atom_site_fract_y
_atom_site_fract_z
O15 O 0.2711(4) 0.5497(3) 0.0372(2)
H16 H 0.204(5) 0.588(5) 0.064(3)
H17 H 0.317(6) 0.511(5) 0.079(2)
O16 O -0.563(3) -0.599(2) -0.6573(13)
Ag1 Ag 0.32386(3) -0.20180(2) -0.220060(19)
Ag2 Ag 0.03528(3) 0.75244(2) -0.106891(17)
Ag3 Ag -0.21174(3) -0.11072(3) -0.045746(18)
Ag4 Ag -0.59764(3) -0.15075(2) -0.485111(18)
O1 O -0.4809(4) -0.1230(3) 0.0384(2)
H1 H -0.566(4) -0.100(5) 0.013(2)
H2 H -0.465(5) -0.104(5) 0.1007(7)
C1 C 0.1270(4) 0.1360(3) -0.3618(2)
H3 H 0.0600(4) 0.1548(3) -0.4212(2)
C2 C 0.2074(4) 0.2830(3) -0.2923(2)
H4 H 0.2718(4) 0.3526(3) -0.3342(2)
C3 C 0.0497(4) 0.3250(3) -0.2666(2)
H5 H -0.0187(4) 0.3226(3) -0.3327(2)
C4 C -0.0934(4) 0.2151(3) -0.2195(2)
H6 H -0.1973(4) 0.2482(3) -0.2168(2)
C5 C -0.1684(4) 0.0739(3) -0.2921(2)
H7 H -0.2229(4) 0.0969(3) -0.3538(2)
C6 C -0.0225(4) 0.0189(3) -0.3253(2)
H8 H -0.0871(4) -0.0540(3) -0.3856(2)
N1 N -0.8466(4) -0.3760(3) -0.4954(2)
C7 C -0.8576(5) -0.5021(3) -0.5447(2)
C8 C -0.9879(5) -0.3762(3) -0.4520(2)
H9 H -0.9832(5) -0.2890(3) -0.4169(2)
C9 C -0.7069(11) -0.5080(8) -0.5944(6)
H10 H -0.721(4) -0.482(6) -0.6602(17)
H11 H -0.5909(12) -0.441(4) -0.555(2)
H12 H -0.707(5) -0.6047(17) -0.601(4)
C10 C 0.2633(4) 0.0808(3) -0.4046(2)
O2 O 0.2016(3) -0.0416(2) -0.45348(15)
O3 O 0.4298(3) 0.1659(2) -0.39378(17)
C11 C 0.3475(4) 0.3063(3) -0.2009(2)
O4 O 0.4963(3) 0.2810(3) -0.21429(17)
H13 H 0.485(2) 0.243(4) -0.2733(8)
O5 O 0.3362(3) 0.3587(2) -0.11942(16)
C12 C 0.1117(4) 0.4805(3) -0.2168(2)
O6 O 0.2553(3) 0.5664(2) -0.24026(19)
O7 O 0.0134(3) 0.5146(2) -0.16263(18)
C13 C -0.0313(4) 0.2000(3) -0.1134(2)
O8 O -0.0599(3) 0.2804(2) -0.04554(16)
O9 O 0.0390(3) 0.1110(2) -0.09936(15)
C14 C -0.3293(4) -0.0411(3) -0.2617(2)
O10 O -0.3591(3) -0.0265(2) -0.17375(16)
O11 O -0.4308(3) -0.1429(2) -0.32813(16)
C15 C 0.0516(4) -0.0593(3) -0.2543(2)
O12 O -0.0674(3) -0.1669(2) -0.23064(16)
O13 O 0.2209(3) -0.0226(2) -0.23071(15)
O14 O -0.3699(3) -0.3574(3) -0.1615(2)
H14 H -0.4852(15) -0.383(5) -0.173(3)
H15 H -0.322(5) -0.327(5) -0.211(2)
N1A N -1.1534(4) -0.6240(3) -0.5046(2)
C7A C -1.1424(5) -0.4979(3) -0.4553(2)
C8A C -1.0121(5) -0.6238(3) -0.5480(2)
H9A H -1.0168(5) -0.7110(3) -0.5831(2)
C9A C -1.2931(11) -0.4920(8) -0.4056(6)
H10A H -1.279(4) -0.518(6) -0.3398(17)
H11A H -1.4091(12) -0.559(4) -0.445(2)
H12A H -1.293(5) -0.3953(17) -0.399(4)
Ag1A Ag -2.32386(3) -0.79820(2) -0.779940(19)
Ag2A Ag -2.03528(3) -1.75244(2) -0.893109(17)
Ag3A Ag -1.78826(3) -0.88928(3) -0.954254(18)
Ag4A Ag -1.40236(3) -0.84925(2) -0.514889(18)
O1A O -1.5191(4) -0.8770(3) -1.0384(2)
H1A H -1.434(4) -0.900(5) -1.013(2)
H2A H -1.535(5) -0.896(5) -1.1007(7)
C1A C -2.1270(4) -1.1360(3) -0.6382(2)
H3A H -2.0600(4) -1.1548(3) -0.5788(2)
C2A C -2.2074(4) -1.2830(3) -0.7077(2)
H4A H -2.2718(4) -1.3526(3) -0.6658(2)
C3A C -2.0497(4) -1.3250(3) -0.7334(2)
H5A H -1.9813(4) -1.3226(3) -0.6673(2)
C4A C -1.9066(4) -1.2151(3) -0.7805(2)
H6A H -1.8027(4) -1.2482(3) -0.7832(2)
C5A C -1.8316(4) -1.0739(3) -0.7079(2)
H7A H -1.7771(4) -1.0969(3) -0.6462(2)
C6A C -1.9775(4) -1.0189(3) -0.6747(2)
H8A H -1.9129(4) -0.9460(3) -0.6144(2)
C10A C -2.2633(4) -1.0808(3) -0.5954(2)
O2A O -2.2016(3) -0.9584(2) -0.54652(15)
O3A O -2.4298(3) -1.1659(2) -0.60622(17)
C11A C -2.3475(4) -1.3063(3) -0.7991(2)
O4A O -2.4963(3) -1.2810(3) -0.78571(17)
H13A H -2.485(2) -1.243(4) -0.7267(8)
O5A O -2.3362(3) -1.3587(2) -0.88058(16)
C12A C -2.1117(4) -1.4805(3) -0.7832(2)
O6A O -2.2553(3) -1.5664(2) -0.75974(19)
O7A O -2.0134(3) -1.5146(2) -0.83737(18)
C13A C -1.9687(4) -1.2000(3) -0.8866(2)
O8A O -1.9401(3) -1.2804(2) -0.95446(16)
O9A O -2.0390(3) -1.1110(2) -0.90064(15)
C14A C -1.6707(4) -0.9589(3) -0.7383(2)
O10A O -1.6409(3) -0.9735(2) -0.82625(16)
O11A O -1.5692(3) -0.8571(2) -0.67187(16)
C15A C -2.0516(4) -0.9407(3) -0.7457(2)
O12A O -1.9326(3) -0.8331(2) -0.76936(16)
O13A O -2.2209(3) -0.9774(2) -0.76929(15)
O14A O -1.6301(3) -0.6426(3) -0.8385(2)
H14A H -1.5148(15) -0.617(5) -0.827(3)
H15A H -1.678(5) -0.673(5) -0.789(2)
Ag1_2 Ag -0.67614(3) -0.20180(2) -0.220060(19)
Ag1_3 Ag 0.32386(3) 0.79820(2) -0.220060(19)
Ag1A_2 Ag -2.32386(3) -1.79820(2) -0.779940(19)
Ag1A_3 Ag -1.32386(3) -0.79820(2) -0.779940(19)
Ag2_2 Ag -1.96472(3) -1.24756(2) -1.106891(17)
Ag2_3 Ag 0.03528(3) -0.24756(2) -0.106891(17)
Ag2A_2 Ag -2.03528(3) -0.75244(2) -0.893109(17)
Ag2A_3 Ag -0.03528(3) 0.24756(2) 0.106891(17)
Ag3_2 Ag -2.21174(3) -1.11072(3) -1.045746(18)
Ag3A_2 Ag 0.21174(3) 0.11072(3) 0.045746(18)
Ag4_2 Ag -2.59764(3) -1.15075(2) -0.485111(18)
Ag4_3 Ag 0.40236(3) -0.15075(2) -0.485111(18)
Ag4A_2 Ag -2.40236(3) -0.84925(2) -0.514889(18)
Ag4A_3 Ag 0.59764(3) 0.15075(2) -0.514889(18)
O2_2 O -0.7984(3) -0.0416(2) -0.45348(15)
O2A_2 O -1.2016(3) -0.9584(2) -0.54652(15)
O3_2 O -1.5702(3) -0.8341(2) -0.39378(17)
O3A_2 O -0.4298(3) -0.1659(2) -0.60622(17)
O6_2 O 0.2553(3) -0.4336(2) -0.24026(19)
O6A_2 O -2.2553(3) -0.5664(2) -0.75974(19)
O8_2 O -2.0599(3) -1.7196(2) -1.04554(16)
O8A_2 O 0.0599(3) 0.7196(2) 0.04554(16)
O9_2 O -1.9610(3) -0.8890(2) -1.09936(15)
O9A_2 O -0.0390(3) -0.1110(2) 0.09936(15)
O10_2 O 0.6409(3) -0.0265(2) -0.17375(16)
O10A_2 O -2.6409(3) -0.9735(2) -0.82625(16)
O11_2 O 0.5692(3) -0.1429(2) -0.32813(16)
O11A_2 O -2.5692(3) -0.8571(2) -0.67187(16)
O12_2 O -0.0674(3) 0.8331(2) -0.23064(16)
O12A_2 O -1.9326(3) -1.8331(2) -0.76936(16)
O17? O -0.521(3) -0.5753(19) -0.6099(13)
H18? H -0.762117 -0.507360 -0.576283
loop_
_geom_bond_atom_site_label_1
_geom_bond_atom_site_label_2
_geom_bond_site_symmetry_1
_geom_bond_site_symmetry_2
Ag1 O13 1_555 1_555
Ag2 O7 1_555 1_555
Ag3 O1 1_555 1_555
Ag4 N1 1_555 1_555
O1 H1 1_555 1_555
H2 O1 1_555 1_555
C1 H3 1_555 1_555
C2 C1 1_555 1_555
H4 C2 1_555 1_555
C3 C2 1_555 1_555
H5 C3 1_555 1_555
C4 C3 1_555 1_555
H6 C4 1_555 1_555
C5 C4 1_555 1_555
H7 C5 1_555 1_555
C6 C1 1_555 1_555
H8 C6 1_555 1_555
N1 C7 1_555 1_555
C7 C9 1_555 1_555
C8 N1 1_555 1_555
H9 C8 1_555 1_555
C9 H10 1_555 1_555
H11 C9 1_555 1_555
H12 C9 1_555 1_555
C10 C1 1_555 1_555
O2 C10 1_555 1_555
O3 C10 1_555 1_555
C11 C2 1_555 1_555
O4 C11 1_555 1_555
H13 O4 1_555 1_555
O5 C11 1_555 1_555
C12 C3 1_555 1_555
O6 C12 1_555 1_555
O7 C12 1_555 1_555
C13 C4 1_555 1_555
O8 C13 1_555 1_555
O9 Ag3 1_555 1_555
C14 C5 1_555 1_555
O10 Ag3 1_555 1_555
O11 Ag4 1_555 1_555
C15 C6 1_555 1_555
O12 C15 1_555 1_555
O13 C15 1_555 1_555
O14 Ag3 1_555 1_555
H14 O14 1_555 1_555
H15 O14 1_555 1_555
O15 H16 1_555 1_555
H17 O15 1_555 1_555
N1A C7A 1_555 1_555
C7A C8 1_555 1_555
C8A C7 1_555 1_555
H9A C8A 1_555 1_555
C9A C7A 1_555 1_555
H10A C9A 1_555 1_555
H11A C9A 1_555 1_555
H12A C9A 1_555 1_555
Ag1A O13A 1_555 1_555
Ag2A O7A 1_555 1_555
Ag3A O1A 1_555 1_555
Ag4A N1A 1_555 1_555
O1A H1A 1_555 1_555
H2A O1A 1_555 1_555
C1A H3A 1_555 1_555
C2A C1A 1_555 1_555
H4A C2A 1_555 1_555
C3A C2A 1_555 1_555
H5A C3A 1_555 1_555
C4A C3A 1_555 1_555
H6A C4A 1_555 1_555
C5A C4A 1_555 1_555
H7A C5A 1_555 1_555
C6A C1A 1_555 1_555
H8A C6A 1_555 1_555
C10A C1A 1_555 1_555
O2A C10A 1_555 1_555
O3A C10A 1_555 1_555
C11A C2A 1_555 1_555
O4A C11A 1_555 1_555
H13A O4A 1_555 1_555
O5A C11A 1_555 1_555
C12A C3A 1_555 1_555
O6A C12A 1_555 1_555
O7A C12A 1_555 1_555
C13A C4A 1_555 1_555
O8A C13A 1_555 1_555
O9A Ag3A 1_555 1_555
C14A C5A 1_555 1_555
O10A Ag3A 1_555 1_555
O11A Ag4A 1_555 1_555
C15A C6A 1_555 1_555
O12A C15A 1_555 1_555
O13A C15A 1_555 1_555
O14A Ag3A 1_555 1_555
H14A O14A 1_555 1_555
H15A O14A 1_555 1_555
Ag1_2 O10 1_555 1_555
Ag1_3 O6 1_555 1_555
Ag1A_2 O6A 1_555 1_555
Ag1A_3 O10A 1_555 1_555
Ag2_2 O8A 1_555 1_555
Ag2_3 O12 1_555 1_555
Ag2A_2 O12A 1_555 1_555
Ag2A_3 O8 1_555 1_555
Ag3_2 O9A 1_555 1_555
Ag3A_2 O9 1_555 1_555
Ag4_2 O3A 1_555 1_555
Ag4_3 O2 1_555 1_555
Ag4A_2 O2A 1_555 1_555
Ag4A_3 O3 1_555 1_555
O2_2 Ag4 1_555 1_555
O2A_2 Ag4A 1_555 1_555
O3_2 Ag4A 1_555 1_555
O3A_2 Ag4 1_555 1_555
O6_2 Ag1 1_555 1_555
O6A_2 Ag1A 1_555 1_555
O8_2 Ag2A 1_555 1_555
O8A_2 Ag2 1_555 1_555
O9_2 Ag3A 1_555 1_555
O9A_2 Ag3 1_555 1_555
O10_2 Ag1 1_555 1_555
O10A_2 Ag1A 1_555 1_555
O11_2 Ag1 1_555 1_555
O11A_2 Ag1A 1_555 1_555
O12_2 Ag2 1_555 1_555
O12A_2 Ag2A 1_555 1_555
C5 C6 1_555 1_555
C13 O9 1_555 1_555
C14 O10 1_555 1_555
C14 O11 1_555 1_555
O11 Ag1_2 1_555 1_555
N1A C8A 1_555 1_555
C5A C6A 1_555 1_555
C13A O9A 1_555 1_555
C14A O10A 1_555 1_555
C14A O11A 1_555 1_555
O11A Ag1A_3 1_555 1_555
Ag3_2 O9_2 1_555 1_555
Ag3A_2 O9A_2 1_555 1_555
Ag4_3 O11_2 1_555 1_555
Ag4A_2 O11A_2 1_555 1_555

#END
