
#######################################################################
#
#                 Cambridge Crystallographic Data Centre
#                                CCDC 
#
#######################################################################
#
# If this CIF has been generated from an entry in the Cambridge 
# Structural Database, then it will include bibliographic, chemical, 
# crystal, experimental, refinement or atomic coordinate data resulting 
# from the CCDC's data processing and validation procedures.
#
#######################################################################

data_ZOKDUA
_symmetry_cell_setting           monoclinic
_symmetry_space_group_name_H-M   'P 21/c'
_symmetry_Int_Tables_number      14
_space_group_name_Hall           '-P 2ybc'
loop_
_symmetry_equiv_pos_site_id
_symmetry_equiv_pos_as_xyz
1 x,y,z
2 -x,1/2+y,1/2-z
3 -x,-y,-z
4 x,1/2-y,1/2+z
_cell_length_a                   8.683(3)
_cell_length_b                   23.643(8)
_cell_length_c                   9.354(3)
_cell_angle_alpha                90
_cell_angle_beta                 98.489(4)
_cell_angle_gamma                90
_cell_volume                     1899.26
loop_
_atom_site_label
_atom_site_type_symbol
_atom_site_fract_x
_atom_site_fract_y
_atom_site_fract_z
Zn1 Zn 0.34201(4) 0.479784(13) 0.22759(3)
N1 N 0.1379(3) 0.52037(9) 0.2989(3)
N2 N -0.2232(3) 0.90470(9) 0.3517(2)
N3 N 0.1149(3) 0.75809(10) 0.6294(3)
N4 N 0.5557(4) 0.74715(19) 1.0398(4)
O1 O 0.3184(2) 0.52492(8) 0.0347(2)
O2 O 0.4494(3) 0.54560(9) -0.1462(2)
O3 O 0.4834(2) 0.54328(9) 0.3469(2)
O4 O 0.5910(3) 0.56095(8) 0.5730(2)
C1 C -0.0050(4) 0.49694(13) 0.2790(3)
H1 H -0.0180 0.4619 0.2335
C2 C -0.1320(4) 0.52227(13) 0.3226(3)
H2 H -0.2294 0.5051 0.3041
C3 C -0.1146(3) 0.57322(13) 0.3939(3)
H3 H -0.2002 0.5911 0.4230
C4 C 0.0319(3) 0.59767(11) 0.4221(3)
C5 C 0.1530(3) 0.56983(11) 0.3698(3)
H4 H 0.2510 0.5866 0.3849
C6 C -0.2507(4) 0.85586(12) 0.2832(3)
H5 H -0.3214 0.8556 0.1983
C7 C -0.1813(4) 0.80524(12) 0.3297(3)
H6 H -0.2048 0.7723 0.2768
C8 C -0.0756(3) 0.80432(12) 0.4570(3)
C9 C -0.0470(5) 0.85530(13) 0.5273(3)
H7 H 0.0239 0.8570 0.6121
C10 C -0.1221(5) 0.90355(13) 0.4734(4)
H8 H -0.1014 0.9371 0.5245
C11 C 0.0055(3) 0.75175(11) 0.5132(3)
C12 C -0.0278(3) 0.69968(12) 0.4483(3)
H9 H -0.1083 0.6962 0.3714
C13 C 0.0596(3) 0.65271(11) 0.4986(3)
C14 C 0.1748(3) 0.65944(12) 0.6180(3)
H10 H 0.2357 0.6289 0.6546
C15 C 0.1975(3) 0.71260(12) 0.6816(3)
C16 C 0.4919(5) 0.7870(2) 0.9520(5)
H11 H 0.5282 0.8238 0.9685
C17 C 0.3761(4) 0.77812(16) 0.8382(4)
H12 H 0.3357 0.8082 0.7805
C18 C 0.3192(4) 0.72338(13) 0.8097(3)
C19 C 0.3821(4) 0.68122(16) 0.9016(4)
H13 H 0.3475 0.6441 0.8886
C20 C 0.4990(5) 0.6955(2) 1.0145(4)
H14 H 0.5402 0.6667 1.0764
C21 C 0.4326(4) 0.52010(11) -0.0314(3)
C22 C 0.5222(3) 0.52996(11) 0.4777(3)
O1B O 0.6816(2) 0.47508(8) -0.0347(2)
O2B O 0.5506(3) 0.45440(9) 0.1462(2)
C21B C 0.5674(4) 0.47990(11) 0.0314(3)
O3B O 0.5166(2) 0.45672(9) 0.6531(2)
O4B O 0.4090(3) 0.43905(8) 0.4270(2)
C22B C 0.4778(3) 0.47004(11) 0.5223(3)
Zn1B Zn 0.65799(4) 0.520216(13) -0.22759(3)
N1B N 0.8621(3) 0.47963(9) -0.2989(3)
N2B N 1.2232(3) 0.09530(9) -0.3517(2)
N3B N 0.8851(3) 0.24191(10) -0.6294(3)
N4B N 0.4443(4) 0.25285(19) -1.0398(4)
C1B C 1.0050(4) 0.50306(13) -0.2790(3)
H1B H 1.0180 0.5381 -0.2335
C2B C 1.1320(4) 0.47773(13) -0.3226(3)
H2B H 1.2294 0.4949 -0.3041
C3B C 1.1146(3) 0.42678(13) -0.3939(3)
H3B H 1.2002 0.4089 -0.4230
C4B C 0.9681(3) 0.40233(11) -0.4221(3)
C5B C 0.8470(3) 0.43017(11) -0.3698(3)
H4B H 0.7490 0.4134 -0.3849
C6B C 1.2507(4) 0.14414(12) -0.2832(3)
H5B H 1.3214 0.1444 -0.1983
C7B C 1.1813(4) 0.19476(12) -0.3297(3)
H6B H 1.2048 0.2277 -0.2768
C8B C 1.0756(3) 0.19568(12) -0.4570(3)
C9B C 1.0470(5) 0.14470(13) -0.5273(3)
H7B H 0.9761 0.1430 -0.6121
C10B C 1.1221(5) 0.09645(13) -0.4734(4)
H8B H 1.1014 0.0629 -0.5245
C11B C 0.9945(3) 0.24825(11) -0.5132(3)
C12B C 1.0278(3) 0.30032(12) -0.4483(3)
H9B H 1.1083 0.3038 -0.3714
C13B C 0.9404(3) 0.34729(11) -0.4986(3)
C14B C 0.8252(3) 0.34056(12) -0.6180(3)
H10B H 0.7643 0.3711 -0.6546
C15B C 0.8025(3) 0.28740(12) -0.6816(3)
C16B C 0.5081(5) 0.2130(2) -0.9520(5)
H11B H 0.4718 0.1762 -0.9685
C17B C 0.6239(4) 0.22188(16) -0.8382(4)
H12B H 0.6643 0.1918 -0.7805
C18B C 0.6808(4) 0.27662(13) -0.8097(3)
C19B C 0.6179(4) 0.31878(16) -0.9016(4)
H13B H 0.6525 0.3559 -0.8886
C20B C 0.5010(5) 0.3045(2) -1.0145(4)
H14B H 0.4598 0.3333 -1.0764
Zn1A Zn -0.34201(4) 0.979784(13) 0.27241(3)
Zn1B_2 Zn 0.65799(4) 0.520216(13) 0.77241(3)
Zn1C Zn 1.34201(4) 0.020216(13) -0.27241(3)
N2A N 0.2232(3) 0.40470(9) 0.1483(2)
N2C N 0.7768(3) 0.59530(9) -0.1483(2)
O3B_2 O 0.5166(2) 0.45672(9) -0.3469(2)
O4_2 O 0.5910(3) 0.56095(8) -0.4270(2)
loop_
_geom_bond_atom_site_label_1
_geom_bond_atom_site_label_2
_geom_bond_site_symmetry_1
_geom_bond_site_symmetry_2
Zn1 N1 1_555 1_555
N1 C1 1_555 1_555
N2 C6 1_555 1_555
N3 C11 1_555 1_555
N4 C16 1_555 1_555
O1 Zn1 1_555 1_555
O2 C21 1_555 1_555
O3 Zn1 1_555 1_555
O4 C22 1_555 1_555
C1 H1 1_555 1_555
C2 C1 1_555 1_555
H2 C2 1_555 1_555
C3 C2 1_555 1_555
H3 C3 1_555 1_555
C4 C3 1_555 1_555
C5 N1 1_555 1_555
H4 C5 1_555 1_555
C6 H5 1_555 1_555
C7 C6 1_555 1_555
H6 C7 1_555 1_555
C8 C7 1_555 1_555
C9 C8 1_555 1_555
H7 C9 1_555 1_555
C10 N2 1_555 1_555
H8 C10 1_555 1_555
C11 C8 1_555 1_555
C12 C11 1_555 1_555
H9 C12 1_555 1_555
C13 C4 1_555 1_555
C14 C13 1_555 1_555
H10 C14 1_555 1_555
C15 N3 1_555 1_555
C16 H11 1_555 1_555
C17 C16 1_555 1_555
H12 C17 1_555 1_555
C18 C15 1_555 1_555
C19 C18 1_555 1_555
H13 C19 1_555 1_555
C20 N4 1_555 1_555
H14 C20 1_555 1_555
C21 O1 1_555 1_555
C22 O3 1_555 1_555
O1B C21B 1_555 1_555
O2B Zn1 1_555 1_555
C21B C21 1_555 1_555
O3B C22B 1_555 1_555
O4B Zn1 1_555 1_555
C22B C22 1_555 1_555
Zn1B O2 1_555 1_555
N1B Zn1B 1_555 1_555
N2B C6B 1_555 1_555
N3B C11B 1_555 1_555
N4B C16B 1_555 1_555
C1B N1B 1_555 1_555
H1B C1B 1_555 1_555
C2B C1B 1_555 1_555
H2B C2B 1_555 1_555
C3B C2B 1_555 1_555
H3B C3B 1_555 1_555
C4B C3B 1_555 1_555
C5B N1B 1_555 1_555
H4B C5B 1_555 1_555
C6B H5B 1_555 1_555
C7B C6B 1_555 1_555
H6B C7B 1_555 1_555
C8B C7B 1_555 1_555
C9B C8B 1_555 1_555
H7B C9B 1_555 1_555
C10B N2B 1_555 1_555
H8B C10B 1_555 1_555
C11B C8B 1_555 1_555
C12B C11B 1_555 1_555
H9B C12B 1_555 1_555
C13B C4B 1_555 1_555
C14B C13B 1_555 1_555
H10B C14B 1_555 1_555
C15B N3B 1_555 1_555
C16B H11B 1_555 1_555
C17B C16B 1_555 1_555
H12B C17B 1_555 1_555
C18B C15B 1_555 1_555
C19B C18B 1_555 1_555
H13B C19B 1_555 1_555
C20B N4B 1_555 1_555
H14B C20B 1_555 1_555
Zn1A N2 1_555 1_555
Zn1B_2 O4 1_555 1_555
Zn1C N2B 1_555 1_555
N2A Zn1 1_555 1_555
N2C Zn1B 1_555 1_555
O3B_2 Zn1B 1_555 1_555
O4_2 Zn1B 1_555 1_555
C4 C5 1_555 1_555
C9 C10 1_555 1_555
C12 C13 1_555 1_555
C14 C15 1_555 1_555
C17 C18 1_555 1_555
C19 C20 1_555 1_555
O1B Zn1B 1_555 1_555
O2B C21B 1_555 1_555
O3B Zn1B_2 1_555 1_555
O4B C22B 1_555 1_555
C4B C5B 1_555 1_555
C9B C10B 1_555 1_555
C12B C13B 1_555 1_555
C14B C15B 1_555 1_555
C17B C18B 1_555 1_555
C19B C20B 1_555 1_555

#END
