
#######################################################################
#
#                 Cambridge Crystallographic Data Centre
#                                CCDC 
#
#######################################################################
#
# If this CIF has been generated from an entry in the Cambridge 
# Structural Database, then it will include bibliographic, chemical, 
# crystal, experimental, refinement or atomic coordinate data resulting 
# from the CCDC's data processing and validation procedures.
#
#######################################################################

data_ZOKMAP
_symmetry_cell_setting           orthorhombic
_symmetry_space_group_name_H-M   'P 21 21 21'
_symmetry_Int_Tables_number      19
_space_group_name_Hall           'P 2ac 2ab'
loop_
_symmetry_equiv_pos_site_id
_symmetry_equiv_pos_as_xyz
1 x,y,z
2 1/2+x,1/2-y,-z
3 -x,1/2+y,1/2-z
4 1/2-x,-y,1/2+z
_cell_length_a                   10.330(3)
_cell_length_b                   13.652(4)
_cell_length_c                   24.832(6)
_cell_angle_alpha                90
_cell_angle_beta                 90
_cell_angle_gamma                90
_cell_volume                     3501.94
loop_
_atom_site_label
_atom_site_type_symbol
_atom_site_fract_x
_atom_site_fract_y
_atom_site_fract_z
Zn1 Zn 0.77977(4) 0.62652(3) 0.192365(14)
N1 N 0.9172(3) 0.6571(2) 0.13710(11)
C1 C 0.9196(3) 0.6330(3) 0.08206(12)
C2 C 1.0144(4) 0.6933(3) 0.05389(14)
C3 C 1.0670(4) 0.7531(3) 0.09349(14)
C4 C 1.1569(4) 0.8335(3) 0.10414(16)
C5 C 1.1439(4) 0.8595(3) 0.16408(15)
H1 H 1.1179 0.9289 0.1685
H2 H 1.2270 0.8489 0.1831
C6 C 1.0380(4) 0.7903(3) 0.18632(16)
C7 C 1.0031(4) 0.7290(3) 0.14296(14)
C8 C 1.0459(4) 0.6895(3) -0.00479(14)
H3 H 1.1135 0.6405 -0.0111
H4 H 1.0767 0.7539 -0.0167
H5 H 0.9681 0.6717 -0.0252
O1 O 1.2281(3) 0.8756(2) 0.07245(11)
C9 C 0.9830(4) 0.7879(3) 0.23711(15)
C10 C 1.0071(4) 0.8585(3) 0.28376(14)
H6 H 1.1017 0.8608 0.2921
C11 C 0.9335(4) 0.8091(3) 0.33094(15)
H7 H 0.8721 0.8574 0.3472
C12 C 0.8560(4) 0.7283(3) 0.30227(14)
N2 N 0.8904(3) 0.7196(2) 0.24996(11)
C13 C 0.9574(5) 0.9627(3) 0.27186(18)
H8 H 0.9637 1.0025 0.3051
H9 H 1.0139 0.9933 0.2444
C14 C 0.8194(5) 0.9649(3) 0.2520(2)
H10 H 0.7656 0.9267 0.2775
H11 H 0.8161 0.9307 0.2169
C15 C 0.7558(7) 1.0682(4) 0.2449(2)
O2 O 0.7251(6) 1.1167(3) 0.28227(19)
O3 O 0.7461(4) 1.0957(3) 0.19496(15)
C16 C 0.6775(5) 1.1860(4) 0.1895(3)
H12 H 0.5854 1.1725 0.1837
H13 H 0.7120 1.2225 0.1587
H14 H 0.6881 1.2249 0.2224
C17 C 1.0203(5) 0.7679(4) 0.37479(19)
H15 H 1.0829 0.7225 0.3588
H16 H 0.9674 0.7331 0.4014
H17 H 1.0667 0.8216 0.3925
C18 C 0.7656(4) 0.6711(3) 0.32885(14)
H18 H 0.7529 0.6862 0.3658
C19 C 0.6896(3) 0.5932(2) 0.30847(13)
C20 C 0.6008(3) 0.5350(2) 0.33959(13)
C21 C 0.5491(3) 0.4667(2) 0.30554(14)
C22 C 0.6024(3) 0.4854(2) 0.25172(14)
N3 N 0.6894(3) 0.5627(2) 0.25574(11)
C23 C 0.5756(4) 0.5470(3) 0.39887(13)
H19 H 0.5105 0.4992 0.4104
H20 H 0.5437 0.6134 0.4059
H21 H 0.6561 0.5362 0.4189
C24 C 0.4628(3) 0.3865(3) 0.31851(13)
O4 O 0.3775(3) 0.40008(19) 0.36156(10)
C25 C 0.3085(4) 0.3164(3) 0.36463(15)
H22 H 0.2427 0.3060 0.3907
N4 N 0.3404(3) 0.2507(2) 0.32841(12)
C26 C 0.4402(4) 0.2958(3) 0.29889(14)
H23 H 0.4850 0.2668 0.2695
C27 C 0.5694(4) 0.4371(3) 0.20484(13)
H24 H 0.5035 0.3889 0.2079
C28 C 0.6221(3) 0.4509(2) 0.15307(13)
C29 C 0.5842(4) 0.3982(3) 0.10462(13)
C30 C 0.6618(4) 0.4324(2) 0.06379(14)
C31 C 0.7450(3) 0.5068(2) 0.08699(13)
N5 N 0.7187(3) 0.5160(2) 0.14165(10)
C32 C 0.4756(4) 0.3259(3) 0.10062(15)
H25 H 0.4807 0.2796 0.1307
H26 H 0.4822 0.2900 0.0665
H27 H 0.3926 0.3607 0.1020
C33 C 0.6644(4) 0.3961(3) 0.00641(14)
H28 H 0.6888 0.4505 -0.0179
H29 H 0.5769 0.3732 -0.0040
C34 C 0.7610(5) 0.3123(3) 0.00036(15)
H30 H 0.8491 0.3390 -0.0013
H31 H 0.7426 0.2761 -0.0328
H32 H 0.7536 0.2681 0.0313
C35 C 0.8379(4) 0.5617(3) 0.05950(14)
H33 H 0.8468 0.5496 0.0220
Zn1B Zn 0.22023(4) 0.12652(3) 0.307635(14)
N4B N 0.6596(3) 0.7507(2) 0.17159(12)
C36 C 0.9033(7) 0.8766(5) -0.0969(2)
H34 H 0.9977 0.8753 -0.0933
H35 H 0.8798 0.9054 -0.1317
H36 H 0.8695 0.8097 -0.0948
C37 C 0.8466(5) 0.9368(4) -0.0525(3)
C38 C 0.7336(7) 0.9922(5) -0.0594(3)
H37 H 0.6898 0.9918 -0.0930
C39 C 0.6846(7) 1.0491(5) -0.0160(5)
H38 H 0.6089 1.0879 -0.0203
C40 C 0.7497(9) 1.0467(5) 0.0323(5)
H39 H 0.7166 1.0842 0.0614
C41 C 0.8561(7) 0.9947(4) 0.0402(3)
H40 H 0.8979 0.9951 0.0743
C42 C 0.9069(5) 0.9385(4) -0.0026(2)
H41 H 0.9836 0.9014 0.0028
loop_
_geom_bond_atom_site_label_1
_geom_bond_atom_site_label_2
_geom_bond_site_symmetry_1
_geom_bond_site_symmetry_2
Zn1 N1 1_555 1_555
N1 C1 1_555 1_555
C1 C2 1_555 1_555
C2 C3 1_555 1_555
C3 C4 1_555 1_555
C4 C5 1_555 1_555
C5 H1 1_555 1_555
H2 C5 1_555 1_555
C6 C5 1_555 1_555
C7 N1 1_555 1_555
C8 C2 1_555 1_555
H3 C8 1_555 1_555
H4 C8 1_555 1_555
H5 C8 1_555 1_555
O1 C4 1_555 1_555
C9 C6 1_555 1_555
C10 C9 1_555 1_555
H6 C10 1_555 1_555
C11 C10 1_555 1_555
H7 C11 1_555 1_555
C12 C11 1_555 1_555
N2 Zn1 1_555 1_555
C13 C10 1_555 1_555
H8 C13 1_555 1_555
H9 C13 1_555 1_555
C14 C13 1_555 1_555
H10 C14 1_555 1_555
H11 C14 1_555 1_555
C15 C14 1_555 1_555
O2 C15 1_555 1_555
O3 C15 1_555 1_555
C16 O3 1_555 1_555
H12 C16 1_555 1_555
H13 C16 1_555 1_555
H14 C16 1_555 1_555
C17 C11 1_555 1_555
H15 C17 1_555 1_555
H16 C17 1_555 1_555
H17 C17 1_555 1_555
C18 C12 1_555 1_555
H18 C18 1_555 1_555
C19 C18 1_555 1_555
C20 C19 1_555 1_555
C21 C20 1_555 1_555
C22 C21 1_555 1_555
N3 Zn1 1_555 1_555
C23 C20 1_555 1_555
H19 C23 1_555 1_555
H20 C23 1_555 1_555
H21 C23 1_555 1_555
C24 C21 1_555 1_555
O4 C24 1_555 1_555
C25 O4 1_555 1_555
H22 C25 1_555 1_555
N4 C25 1_555 1_555
C26 C24 1_555 1_555
H23 C26 1_555 1_555
C27 C22 1_555 1_555
H24 C27 1_555 1_555
C28 C27 1_555 1_555
C29 C28 1_555 1_555
C30 C29 1_555 1_555
C31 C30 1_555 1_555
N5 Zn1 1_555 1_555
C32 C29 1_555 1_555
H25 C32 1_555 1_555
H26 C32 1_555 1_555
H27 C32 1_555 1_555
C33 C30 1_555 1_555
H28 C33 1_555 1_555
H29 C33 1_555 1_555
C34 C33 1_555 1_555
H30 C34 1_555 1_555
H31 C34 1_555 1_555
H32 C34 1_555 1_555
C35 C1 1_555 1_555
H33 C35 1_555 1_555
C36 H34 1_555 1_555
H35 C36 1_555 1_555
H36 C36 1_555 1_555
C37 C36 1_555 1_555
C38 C37 1_555 1_555
H37 C38 1_555 1_555
C39 C38 1_555 1_555
H38 C39 1_555 1_555
C40 C39 1_555 1_555
H39 C40 1_555 1_555
C41 C40 1_555 1_555
H40 C41 1_555 1_555
C42 C37 1_555 1_555
H41 C42 1_555 1_555
Zn1B N4 1_555 1_555
N4B Zn1 1_555 1_555
C3 C7 1_555 1_555
C6 C7 1_555 1_555
C9 N2 1_555 1_555
C12 N2 1_555 1_555
C19 N3 1_555 1_555
C22 N3 1_555 1_555
N4 C26 1_555 1_555
C28 N5 1_555 1_555
C31 N5 1_555 1_555
C31 C35 1_555 1_555
C41 C42 1_555 1_555

#END
