
#######################################################################
#
#                 Cambridge Crystallographic Data Centre
#                                CCDC 
#
#######################################################################
#
# If this CIF has been generated from an entry in the Cambridge 
# Structural Database, then it will include bibliographic, chemical, 
# crystal, experimental, refinement or atomic coordinate data resulting 
# from the CCDC's data processing and validation procedures.
#
#######################################################################

data_ZOKNOE
_symmetry_cell_setting           triclinic
_symmetry_space_group_name_H-M   'P -1'
_symmetry_Int_Tables_number      2
_space_group_name_Hall           '-P 1'
loop_
_symmetry_equiv_pos_site_id
_symmetry_equiv_pos_as_xyz
1 x,y,z
2 -x,-y,-z
_cell_length_a                   9.813(4)
_cell_length_b                   13.842(5)
_cell_length_c                   10.146(4)
_cell_angle_alpha                84.753(13)
_cell_angle_beta                 109.157(11)
_cell_angle_gamma                104.763(12)
_cell_volume                     1258.81
loop_
_atom_site_label
_atom_site_type_symbol
_atom_site_fract_x
_atom_site_fract_y
_atom_site_fract_z
Ru1 Ru 0.39416(5) 0.50269(4) 0.02191(5)
F1 F 0.8799(6) 0.3049(4) 0.7966(5)
F2 F 0.0681(6) -0.0505(4) -0.3599(6)
O1 O 0.4830(5) 0.4575(4) 0.2239(5)
O2 O 0.6917(5) 0.4544(4) 0.1828(5)
O3 O 0.4535(5) 0.3785(4) 0.4587(5)
O4 O 0.3012(5) 0.3559(4) -0.0419(5)
O5 O 0.5084(5) 0.3520(4) -0.0872(5)
O6 O 0.5263(6) 0.1675(4) -0.1158(7)
N1 N 0.1609(5) 0.5140(4) 0.0447(5)
C1 C 0.6126(7) 0.4425(5) 0.2609(7)
C2 C 0.6790(8) 0.4077(5) 0.4072(7)
C3 C 0.5970(8) 0.3752(6) 0.5024(7)
C4 C 0.3696(9) 0.3430(7) 0.5531(8)
C5 C 0.6690(9) 0.3435(6) 0.6350(8)
C6 C 0.8142(9) 0.3393(6) 0.6696(8)
C7 C 0.8974(9) 0.3696(6) 0.5794(8)
C8 C 0.8261(8) 0.4038(6) 0.4491(8)
C9 C 0.3767(8) 0.3135(6) -0.0855(7)
C10 C 0.2996(9) 0.2121(5) -0.1506(8)
C11 C 0.3764(8) 0.1440(6) -0.1693(8)
C12 C 0.6036(11) 0.0982(8) -0.1352(13)
C13 C 0.2958(10) 0.0532(7) -0.2385(9)
C14 C 0.1422(11) 0.0377(6) -0.2911(9)
C15 C 0.0655(10) 0.1014(7) -0.2734(11)
C16 C 0.1469(8) 0.1888(6) -0.2031(9)
C17 C 0.0713(7) 0.4339(5) 0.0844(7)
C18 C 0.1407(8) 0.3677(6) 0.1803(8)
C19 C 0.0570(8) 0.2832(6) 0.2237(8)
C20 C -0.1010(8) 0.2630(6) 0.1725(8)
C21 C -0.1704(8) 0.3280(5) 0.0862(8)
C22 C -0.0864(8) 0.4189(5) 0.0430(7)
H1 H 0.4134 0.3837 0.6376
H2 H 0.3714 0.2732 0.5780
H3 H 0.2666 0.3480 0.5080
H4 H 0.6175 0.3248 0.7015
H5 H 0.9987 0.3670 0.6060
H6 H 0.8809 0.4257 0.3856
H7 H 0.5844 0.0381 -0.0787
H8 H 0.7105 0.1289 -0.1065
H9 H 0.5690 0.0800 -0.2339
H10 H 0.3445 0.0045 -0.2486
H11 H -0.0400 0.0864 -0.3079
H12 H 0.0953 0.2349 -0.1904
H13 H 0.2460 0.3814 0.2155
H14 H 0.1045 0.2382 0.2878
H15 H -0.1582 0.2029 0.1994
H16 H -0.2758 0.3135 0.0537
N1A N -0.1609(5) 0.4860(4) -0.0447(5)
C17A C -0.0713(7) 0.5661(5) -0.0844(7)
C18A C -0.1407(8) 0.6323(6) -0.1803(8)
C19A C -0.0570(8) 0.7168(6) -0.2237(8)
C20A C 0.1010(8) 0.7370(6) -0.1725(8)
C21A C 0.1704(8) 0.6720(5) -0.0862(8)
C22A C 0.0864(8) 0.5811(5) -0.0430(7)
H13A H -0.2460 0.6186 -0.2155
H14A H -0.1045 0.7618 -0.2878
H15A H 0.1582 0.7971 -0.1994
H16A H 0.2758 0.6865 -0.0537
Ru1A Ru -0.39416(5) 0.49731(4) -0.02191(5)
F1A F -0.8799(6) 0.6951(4) -0.7966(5)
F2A F -0.0681(6) 1.0505(4) 0.3599(6)
O1A O -0.4830(5) 0.5425(4) -0.2239(5)
O2A O -0.6917(5) 0.5456(4) -0.1828(5)
O3A O -0.4535(5) 0.6215(4) -0.4587(5)
O4A O -0.3012(5) 0.6441(4) 0.0419(5)
O5A O -0.5084(5) 0.6480(4) 0.0872(5)
O6A O -0.5263(6) 0.8325(4) 0.1158(7)
C1A C -0.6126(7) 0.5575(5) -0.2609(7)
C2A C -0.6790(8) 0.5923(5) -0.4072(7)
C3A C -0.5970(8) 0.6248(6) -0.5024(7)
C4A C -0.3696(9) 0.6570(7) -0.5531(8)
C5A C -0.6690(9) 0.6565(6) -0.6350(8)
C6A C -0.8142(9) 0.6607(6) -0.6696(8)
C7A C -0.8974(9) 0.6304(6) -0.5794(8)
C8A C -0.8261(8) 0.5962(6) -0.4491(8)
C9A C -0.3767(8) 0.6865(6) 0.0855(7)
C10A C -0.2996(9) 0.7879(5) 0.1506(8)
C11A C -0.3764(8) 0.8560(6) 0.1693(8)
C12A C -0.6036(11) 0.9018(8) 0.1352(13)
C13A C -0.2958(10) 0.9468(7) 0.2385(9)
C14A C -0.1422(11) 0.9623(6) 0.2911(9)
C15A C -0.0655(10) 0.8986(7) 0.2734(11)
C16A C -0.1469(8) 0.8112(6) 0.2031(9)
H1A H -0.4134 0.6163 -0.6376
H2A H -0.3714 0.7268 -0.5780
H3A H -0.2666 0.6520 -0.5080
H4A H -0.6175 0.6752 -0.7015
H5A H -0.9987 0.6330 -0.6060
H6A H -0.8809 0.5743 -0.3856
H7A H -0.5844 0.9619 0.0787
H8A H -0.7105 0.8711 0.1065
H9A H -0.5690 0.9200 0.2339
H10A H -0.3445 0.9955 0.2486
H11A H 0.0400 0.9136 0.3079
H12A H -0.0953 0.7651 0.1904
Ru1_2 Ru -0.60584(5) 0.50269(4) 0.02191(5)
Ru1A_2 Ru 0.60584(5) 0.49731(4) -0.02191(5)
O2_2 O -0.3083(5) 0.4544(4) 0.1828(5)
O2A_2 O 0.3083(5) 0.5456(4) -0.1828(5)
O5_2 O -0.4916(5) 0.3520(4) -0.0872(5)
O5A_2 O 0.4916(5) 0.6480(4) 0.0872(5)
Cl1 Cl 0.5258(5) 0.1775(3) 0.2225(6)
Cl2 Cl 0.3209(10) 0.1057(7) 0.3578(12)
C23 C 0.3632(14) 0.1772(10) 0.2334(13)
Cl3? Cl 0.601(3) 0.1499(15) 0.369(3)
Cl4? Cl 0.428(8) 0.062(3) 0.447(4)
C24? C 0.577(4) 0.092(4) 0.464(4)
Cl5? Cl 0.2197(12) 0.0785(8) 0.1792(14)
loop_
_geom_bond_atom_site_label_1
_geom_bond_atom_site_label_2
_geom_bond_site_symmetry_1
_geom_bond_site_symmetry_2
Ru1 O1 1_555 1_555
F1 C6 1_555 1_555
F2 C14 1_555 1_555
O1 C1 1_555 1_555
O2 C1 1_555 1_555
O3 C3 1_555 1_555
O4 Ru1 1_555 1_555
O5 C9 1_555 1_555
O6 C11 1_555 1_555
N1 Ru1 1_555 1_555
C1 C2 1_555 1_555
C2 C3 1_555 1_555
C3 C5 1_555 1_555
C4 O3 1_555 1_555
C5 C6 1_555 1_555
C6 C7 1_555 1_555
C7 C8 1_555 1_555
C8 C2 1_555 1_555
C9 O4 1_555 1_555
C10 C9 1_555 1_555
C11 C10 1_555 1_555
C12 O6 1_555 1_555
C13 C11 1_555 1_555
C14 C13 1_555 1_555
C15 C14 1_555 1_555
C16 C10 1_555 1_555
C17 N1 1_555 1_555
C18 C17 1_555 1_555
C19 C18 1_555 1_555
C20 C19 1_555 1_555
C21 C20 1_555 1_555
C22 C17 1_555 1_555
H1 C4 1_555 1_555
H2 C4 1_555 1_555
H3 C4 1_555 1_555
H4 C5 1_555 1_555
H5 C7 1_555 1_555
H6 C8 1_555 1_555
H7 C12 1_555 1_555
H8 C12 1_555 1_555
H9 C12 1_555 1_555
H10 C13 1_555 1_555
H11 C15 1_555 1_555
H12 C16 1_555 1_555
H13 C18 1_555 1_555
H14 C19 1_555 1_555
H15 C20 1_555 1_555
H16 C21 1_555 1_555
Cl1 C23 1_555 1_555
Cl2 C23 1_555 1_555
N1A C22 1_555 1_555
C17A N1A 1_555 1_555
C18A C17A 1_555 1_555
C19A C18A 1_555 1_555
C20A C19A 1_555 1_555
C21A C20A 1_555 1_555
C22A N1 1_555 1_555
H13A C18A 1_555 1_555
H14A C19A 1_555 1_555
H15A C20A 1_555 1_555
H16A C21A 1_555 1_555
Ru1A N1A 1_555 1_555
F1A C6A 1_555 1_555
F2A C14A 1_555 1_555
O1A Ru1A 1_555 1_555
O2A C1A 1_555 1_555
O3A C3A 1_555 1_555
O4A Ru1A 1_555 1_555
O5A C9A 1_555 1_555
O6A C11A 1_555 1_555
C1A O1A 1_555 1_555
C2A C1A 1_555 1_555
C3A C2A 1_555 1_555
C4A O3A 1_555 1_555
C5A C3A 1_555 1_555
C6A C5A 1_555 1_555
C7A C6A 1_555 1_555
C8A C2A 1_555 1_555
C9A O4A 1_555 1_555
C10A C9A 1_555 1_555
C11A C10A 1_555 1_555
C12A O6A 1_555 1_555
C13A C11A 1_555 1_555
C14A C13A 1_555 1_555
C15A C14A 1_555 1_555
C16A C10A 1_555 1_555
H1A C4A 1_555 1_555
H2A C4A 1_555 1_555
H3A C4A 1_555 1_555
H4A C5A 1_555 1_555
H5A C7A 1_555 1_555
H6A C8A 1_555 1_555
H7A C12A 1_555 1_555
H8A C12A 1_555 1_555
H9A C12A 1_555 1_555
H10A C13A 1_555 1_555
H11A C15A 1_555 1_555
H12A C16A 1_555 1_555
Ru1_2 Ru1A 1_555 1_555
Ru1A_2 Ru1 1_555 1_555
O2_2 Ru1A 1_555 1_555
O2A_2 Ru1 1_555 1_555
O5_2 Ru1A 1_555 1_555
O5A_2 Ru1 1_555 1_555
O2 Ru1A_2 1_555 1_555
O5 Ru1A_2 1_555 1_555
C15 C16 1_555 1_555
C21 C22 1_555 1_555
C17A C22A 1_555 1_555
C21A C22A 1_555 1_555
O2A Ru1_2 1_555 1_555
O5A Ru1_2 1_555 1_555
C7A C8A 1_555 1_555
C15A C16A 1_555 1_555

#END
