
#######################################################################
#
#                 Cambridge Crystallographic Data Centre
#                                CCDC 
#
#######################################################################
#
# If this CIF has been generated from an entry in the Cambridge 
# Structural Database, then it will include bibliographic, chemical, 
# crystal, experimental, refinement or atomic coordinate data resulting 
# from the CCDC's data processing and validation procedures.
#
#######################################################################

data_ZOLXED01
_symmetry_cell_setting           monoclinic
_symmetry_space_group_name_H-M   'P 2/c'
_symmetry_Int_Tables_number      13
_space_group_name_Hall           '-P 2yc'
loop_
_symmetry_equiv_pos_site_id
_symmetry_equiv_pos_as_xyz
1 x,y,z
2 -x,y,1/2-z
3 -x,-y,-z
4 x,-y,1/2+z
_cell_length_a                   3.816(2)
_cell_length_b                   6.354(1)
_cell_length_c                   11.496(2)
_cell_angle_alpha                90
_cell_angle_beta                 95.92(3)
_cell_angle_gamma                90
_cell_volume                     277.255
loop_
_atom_site_label
_atom_site_type_symbol
_atom_site_fract_x
_atom_site_fract_y
_atom_site_fract_z
Cu1 Cu 0.5000 0.2979(1) 0.7500
Cl1 Cl 0.0000 0.5133(2) 0.7500
N1 N 0.5010(6) 0.1189(4) 0.8976(2)
C1 C 0.3714(8) 0.1941(5) 0.9937(3)
C2 C 0.6280(8) -0.0779(5) 0.9055(3)
H1 H 0.294(8) 0.332(5) 0.995(3)
H2 H 0.718(9) -0.139(6) 0.836(3)
Cu1_2 Cu -0.5000 0.2979(1) 0.7500
Cu1B Cu 0.5000 -0.2979(1) 1.2500
N1B N 0.4990(6) -0.1189(4) 1.1024(2)
Cl1_2 Cl 1.0000 0.5133(2) 0.7500
N1A N 0.4990(6) 0.1189(4) 0.6024(2)
C2B C 0.3720(8) 0.0779(5) 1.0945(3)
C1B C 0.6286(8) -0.1941(5) 1.0063(3)
H1B H 0.706(8) -0.332(5) 1.005(3)
H2B H 0.282(9) 0.139(6) 1.164(3)
loop_
_geom_bond_atom_site_label_1
_geom_bond_atom_site_label_2
_geom_bond_site_symmetry_1
_geom_bond_site_symmetry_2
Cu1 Cl1 1_555 1_555
Cl1 Cu1_2 1_555 1_555
N1 Cu1 1_555 1_555
C1 N1 1_555 1_555
C2 N1 1_555 1_555
H1 C1 1_555 1_555
H2 C2 1_555 1_555
Cu1B N1B 1_555 1_555
N1B C2B 1_555 1_555
Cl1_2 Cu1 1_555 1_555
N1A Cu1 1_555 1_555
C2B C1 1_555 1_555
C1B C2 1_555 1_555
H1B C1B 1_555 1_555
H2B C2B 1_555 1_555
N1B C1B 1_555 1_555

#END
