
#######################################################################
#
#                 Cambridge Crystallographic Data Centre
#                                CCDC 
#
#######################################################################
#
# If this CIF has been generated from an entry in the Cambridge 
# Structural Database, then it will include bibliographic, chemical, 
# crystal, experimental, refinement or atomic coordinate data resulting 
# from the CCDC's data processing and validation procedures.
#
#######################################################################

data_ZOLXED02
_symmetry_cell_setting           monoclinic
_symmetry_space_group_name_H-M   'P c'
_symmetry_Int_Tables_number      7
_space_group_name_Hall           'P -2yc'
loop_
_symmetry_equiv_pos_site_id
_symmetry_equiv_pos_as_xyz
1 x,y,z
2 x,-y,1/2+z
_cell_length_a                   3.8073(11)
_cell_length_b                   6.3385(19)
_cell_length_c                   11.466(3)
_cell_angle_alpha                90
_cell_angle_beta                 95.921(6)
_cell_angle_gamma                90
_cell_volume                     275.228
loop_
_atom_site_label
_atom_site_type_symbol
_atom_site_fract_x
_atom_site_fract_y
_atom_site_fract_z
Cu1 Cu 0.3005(6) 1.29782(14) 0.6318(3)
Cl1 Cl -0.1952(12) 1.5129(3) 0.6280(5)
N1 N 0.291(3) 1.1178(18) 0.4830(11)
C1 C 0.420(4) 1.204(2) 0.3885(11)
H1 H 0.5177 1.3390 0.3905
N2 N 0.293(3) 0.8758(16) 0.2784(7)
C2 C 0.165(3) 0.8153(19) 0.3758(14)
H2 H 0.0728 0.6794 0.3753
C3 C 0.152(3) 0.9184(14) 0.4695(11)
H3 H 0.0464 0.8577 0.5309
C4 C 0.397(3) 1.069(3) 0.2794(12)
H4 H 0.4599 1.1284 0.2102
Cu1_2 Cu -0.6995(6) 1.29782(14) 0.6318(3)
Cu1A Cu 0.3005(6) 0.70218(14) 0.1318(3)
Cl1_2 Cl 0.8048(12) 1.5129(3) 0.6280(5)
N2A N 0.293(3) 1.1242(16) 0.7784(7)
loop_
_geom_bond_atom_site_label_1
_geom_bond_atom_site_label_2
_geom_bond_site_symmetry_1
_geom_bond_site_symmetry_2
Cu1 Cl1 1_555 1_555
Cl1 Cu1_2 1_555 1_555
N1 Cu1 1_555 1_555
C1 N1 1_555 1_555
H1 C1 1_555 1_555
N2 C2 1_555 1_555
C2 H2 1_555 1_555
C3 N1 1_555 1_555
H3 C3 1_555 1_555
C4 C1 1_555 1_555
H4 C4 1_555 1_555
Cu1A N2 1_555 1_555
Cl1_2 Cu1 1_555 1_555
N2A Cu1 1_555 1_555
N2 C4 1_555 1_555
C2 C3 1_555 1_555

#END
