
#######################################################################
#
#                 Cambridge Crystallographic Data Centre
#                                CCDC 
#
#######################################################################
#
# If this CIF has been generated from an entry in the Cambridge 
# Structural Database, then it will include bibliographic, chemical, 
# crystal, experimental, refinement or atomic coordinate data resulting 
# from the CCDC's data processing and validation procedures.
#
#######################################################################

data_ZOLXON
_symmetry_cell_setting           triclinic
_symmetry_space_group_name_H-M   'P -1'
_symmetry_Int_Tables_number      2
_space_group_name_Hall           '-P 1'
loop_
_symmetry_equiv_pos_site_id
_symmetry_equiv_pos_as_xyz
1 x,y,z
2 -x,-y,-z
_cell_length_a                   7.552(2)
_cell_length_b                   10.936(3)
_cell_length_c                   15.039(2)
_cell_angle_alpha                110.93(2)
_cell_angle_beta                 95.40(2)
_cell_angle_gamma                100.72(2)
_cell_volume                     1122.27
loop_
_atom_site_label
_atom_site_type_symbol
_atom_site_fract_x
_atom_site_fract_y
_atom_site_fract_z
Cu1 Cu 0.0162(1) 0.3692(1) 0.4539(1)
S1 S -0.2197(2) 0.2106(2) 0.4612(1)
C1 C -0.1461(9) 0.1486(6) 0.5430(4)
C2 C 0.0397(9) 0.1647(7) 0.5786(5)
C3 C 0.0934(10) 0.1181(7) 0.6459(5)
C4 C -0.0389(12) 0.0493(8) 0.6813(6)
C5 C -0.2147(11) 0.0311(8) 0.6471(5)
N1 N -0.2701(7) 0.0798(5) 0.5795(4)
C6 C -0.4667(9) 0.0607(7) 0.5498(5)
S2 S 0.2043(2) 0.5246(2) 0.6016(1)
C7 C 0.1455(8) 0.4901(6) 0.6985(4)
C8 C -0.0366(9) 0.4494(7) 0.7100(5)
C9 C -0.0726(10) 0.4221(7) 0.7885(5)
C10 C 0.0692(11) 0.4328(8) 0.8592(5)
C11 C 0.2428(10) 0.4734(8) 0.8484(5)
N2 N 0.2816(7) 0.5016(5) 0.7703(4)
C12 C 0.4762(9) 0.5438(7) 0.7649(5)
C13 C 0.5382(8) 0.6953(7) 0.7942(5)
S3 S 0.7526(2) 0.6740(2) 0.6331(1)
C14 C 0.8462(9) 0.7393(7) 0.7519(4)
C15 C 1.0372(9) 0.7965(7) 0.7879(5)
C16 C 1.1069(10) 0.8388(8) 0.8830(5)
C17 C 0.9933(11) 0.8307(9) 0.9491(6)
C18 C 0.8134(10) 0.7821(8) 0.9170(5)
N3 N 0.7391(7) 0.7414(6) 0.8207(4)
H1 H 0.1288 0.2089 0.5547
H2 H 0.2172 0.1321 0.6688
H3 H -0.0045 0.0171 0.7282
H4 H -0.3031 -0.0164 0.6694
H5 H -0.4914 0.1418 0.5441
H6 H -0.5323 0.0428 0.5979
H7 H -0.1329 0.4421 0.6636
H8 H -0.1934 0.3945 0.7946
H9 H 0.0448 0.4130 0.9127
H10 H 0.3386 0.4821 0.8956
H11 H 0.4950 0.4987 0.6993
H12 H 0.5504 0.5161 0.8071
H13 H 0.4965 0.7192 0.7409
H14 H 0.4831 0.7405 0.8488
H15 H 1.1153 0.8041 0.7449
H16 H 1.2320 0.8745 0.9044
H17 H 1.0415 0.8573 1.0141
H18 H 0.7362 0.7764 0.9607
C6A C -0.5333(9) -0.0607(7) 0.4502(5)
N1A N -0.7299(7) -0.0798(5) 0.4205(4)
C1A C -0.8539(9) -0.1486(6) 0.4570(4)
S1A S -0.7803(2) -0.2106(2) 0.5388(1)
C2A C -1.0397(9) -0.1647(7) 0.4214(5)
C3A C -1.0934(10) -0.1181(7) 0.3541(5)
C4A C -0.9611(12) -0.0493(8) 0.3187(6)
C5A C -0.7853(11) -0.0311(8) 0.3529(5)
H4A H -0.6969 0.0164 0.3306
H3A H -0.9955 -0.0171 0.2718
H2A H -1.2172 -0.1321 0.3312
H1A H -1.1288 -0.2089 0.4453
H5A H -0.5086 -0.1418 0.4559
H6A H -0.4677 -0.0428 0.4021
S2A S -0.2043(2) 0.4754(2) 0.3984(1)
Cu1A Cu -1.0162(1) -0.3692(1) 0.5461(1)
S3A S 0.2474(2) 0.3260(2) 0.3669(1)
Cu1A_2 Cu -0.0162(1) 0.6308(1) 0.5461(1)
Cu1A_3 Cu 0.9838(1) 0.6308(1) 0.5461(1)
C14A C 0.1538(9) 0.2607(7) 0.2481(4)
C15A C -0.0372(9) 0.2035(7) 0.2121(5)
N3A N 0.2609(7) 0.2586(6) 0.1793(4)
C16A C -0.1069(10) 0.1612(8) 0.1170(5)
H15A H -0.1153 0.1959 0.2551
C13A C 0.4618(8) 0.3047(7) 0.2058(5)
C18A C 0.1866(10) 0.2179(8) 0.0830(5)
C17A C 0.0067(11) 0.1693(9) 0.0509(6)
H16A H -0.2320 0.1255 0.0956
C12A C 0.5238(9) 0.4562(7) 0.2351(5)
H13A H 0.5035 0.2808 0.2591
H14A H 0.5169 0.2595 0.1512
H18A H 0.2638 0.2236 0.0393
H17A H -0.0415 0.1427 -0.0141
N2A N 0.7184(7) 0.4984(5) 0.2297(4)
H11A H 0.5050 0.5013 0.3007
H12A H 0.4496 0.4839 0.1929
C7A C 0.8545(8) 0.5099(6) 0.3015(4)
C11A C 0.7572(10) 0.5266(8) 0.1516(5)
S2A_2 S 0.7957(2) 0.4754(2) 0.3984(1)
C8A C 1.0366(9) 0.5506(7) 0.2900(5)
C10A C 0.9308(11) 0.5672(8) 0.1408(5)
H10A H 0.6614 0.5179 0.1044
Cu1_2 Cu 1.0162(1) 0.3692(1) 0.4539(1)
C9A C 1.0726(10) 0.5779(7) 0.2115(5)
H7A H 1.1329 0.5579 0.3364
H9A H 0.9552 0.5870 0.0873
H8A H 1.1934 0.6055 0.2054
S1A_2 S 1.2197(2) 0.7894(2) 0.5388(1)
S2_2 S 1.2043(2) 0.5246(2) 0.6016(1)
P1 P 0.4765(3) 0.8192(3) 0.1253(2)
F1 F 0.4500(16) 0.6672(8) 0.0609(6)
F2 F 0.5162(15) 0.9682(7) 0.1930(7)
F3 F 0.2680(8) 0.8019(10) 0.1213(5)
F4 F 0.6861(8) 0.8336(10) 0.1291(5)
F5 F 0.4668(9) 0.8544(10) 0.0328(5)
F6 F 0.4852(7) 0.7810(7) 0.2168(4)
loop_
_geom_bond_atom_site_label_1
_geom_bond_atom_site_label_2
_geom_bond_site_symmetry_1
_geom_bond_site_symmetry_2
Cu1 S1 1_555 1_555
S1 C1 1_555 1_555
C1 C2 1_555 1_555
C2 C3 1_555 1_555
C3 C4 1_555 1_555
C4 C5 1_555 1_555
C5 N1 1_555 1_555
N1 C1 1_555 1_555
C6 N1 1_555 1_555
S2 Cu1 1_555 1_555
C7 S2 1_555 1_555
C8 C7 1_555 1_555
C9 C8 1_555 1_555
C10 C9 1_555 1_555
C11 C10 1_555 1_555
N2 C7 1_555 1_555
C12 N2 1_555 1_555
C13 C12 1_555 1_555
S3 C14 1_555 1_555
C14 C15 1_555 1_555
C15 C16 1_555 1_555
C16 C17 1_555 1_555
C17 C18 1_555 1_555
C18 N3 1_555 1_555
N3 C13 1_555 1_555
P1 F1 1_555 1_555
F2 P1 1_555 1_555
F3 P1 1_555 1_555
F4 P1 1_555 1_555
F5 P1 1_555 1_555
F6 P1 1_555 1_555
H1 C2 1_555 1_555
H2 C3 1_555 1_555
H3 C4 1_555 1_555
H4 C5 1_555 1_555
H5 C6 1_555 1_555
H6 C6 1_555 1_555
H7 C8 1_555 1_555
H8 C9 1_555 1_555
H9 C10 1_555 1_555
H10 C11 1_555 1_555
H11 C12 1_555 1_555
H12 C12 1_555 1_555
H13 C13 1_555 1_555
H14 C13 1_555 1_555
H15 C15 1_555 1_555
H16 C16 1_555 1_555
H17 C17 1_555 1_555
H18 C18 1_555 1_555
C6A C6 1_555 1_555
N1A C6A 1_555 1_555
C1A N1A 1_555 1_555
S1A C1A 1_555 1_555
C2A C1A 1_555 1_555
C3A C2A 1_555 1_555
C4A C3A 1_555 1_555
C5A N1A 1_555 1_555
H4A C5A 1_555 1_555
H3A C4A 1_555 1_555
H2A C3A 1_555 1_555
H1A C2A 1_555 1_555
H5A C6A 1_555 1_555
H6A C6A 1_555 1_555
S2A Cu1 1_555 1_555
Cu1A S1A 1_555 1_555
S3A Cu1 1_555 1_555
Cu1A_2 S2 1_555 1_555
Cu1A_3 S3 1_555 1_555
C14A S3A 1_555 1_555
C15A C14A 1_555 1_555
N3A C14A 1_555 1_555
C16A C15A 1_555 1_555
H15A C15A 1_555 1_555
C13A N3A 1_555 1_555
C18A N3A 1_555 1_555
C17A C16A 1_555 1_555
H16A C16A 1_555 1_555
C12A C13A 1_555 1_555
H13A C13A 1_555 1_555
H14A C13A 1_555 1_555
H18A C18A 1_555 1_555
H17A C17A 1_555 1_555
N2A C12A 1_555 1_555
H11A C12A 1_555 1_555
H12A C12A 1_555 1_555
C7A N2A 1_555 1_555
C11A N2A 1_555 1_555
S2A_2 Cu1A_3 1_555 1_555
C8A C7A 1_555 1_555
C10A C11A 1_555 1_555
H10A C11A 1_555 1_555
Cu1_2 S2A_2 1_555 1_555
C9A C8A 1_555 1_555
H7A C8A 1_555 1_555
H9A C10A 1_555 1_555
H8A C9A 1_555 1_555
S1A_2 Cu1A_3 1_555 1_555
S2_2 Cu1A_3 1_555 1_555
C11 N2 1_555 1_555
C14 N3 1_555 1_555
C4A C5A 1_555 1_555
S2A Cu1A_2 1_555 1_555
C18A C17A 1_555 1_555
C7A S2A_2 1_555 1_555
C10A C9A 1_555 1_555
Cu1_2 S2_2 1_555 1_555

#END
