
#######################################################################
#
#                 Cambridge Crystallographic Data Centre
#                                CCDC 
#
#######################################################################
#
# If this CIF has been generated from an entry in the Cambridge 
# Structural Database, then it will include bibliographic, chemical, 
# crystal, experimental, refinement or atomic coordinate data resulting 
# from the CCDC's data processing and validation procedures.
#
#######################################################################

data_ZOLXED
_symmetry_cell_setting           monoclinic
_symmetry_space_group_name_H-M   'P 2/c'
_symmetry_Int_Tables_number      13
_space_group_name_Hall           '-P 2yc'
loop_
_symmetry_equiv_pos_site_id
_symmetry_equiv_pos_as_xyz
1 x,y,z
2 -x,y,1/2-z
3 -x,-y,-z
4 x,-y,1/2+z
_cell_length_a                   3.814(1)
_cell_length_b                   6.356(1)
_cell_length_c                   11.497(5)
_cell_angle_alpha                90
_cell_angle_beta                 96.04(2)
_cell_angle_gamma                90
_cell_volume                     277.161
loop_
_atom_site_label
_atom_site_type_symbol
_atom_site_fract_x
_atom_site_fract_y
_atom_site_fract_z
Cu1 Cu 0.0000 0.2020(1) 0.2500
Cl1 Cl 0.5000 -0.0135(2) 0.2500
N1 N 0.0000 0.3794(4) 0.1017(3)
C1 C 0.1256(8) 0.3079(6) 0.0000
C2 C -0.1264(9) 0.5771(5) 0.0960(4)
H1 H 0.2187 0.1676 -0.0004
H2 H -0.2171 0.6367 0.1635
Cl1_2 Cl -0.5000 -0.0135(2) 0.2500
N1A N 0.0000 0.3794(4) 0.3983(3)
Cu1_2 Cu 1.0000 0.2020(1) 0.2500
C2B C 0.1264(9) 0.4229(5) -0.0960(4)
C1B C -0.1256(8) 0.6921(6) 0.0000
N1B N 0.0000 0.6206(4) -0.1017(3)
H2B H 0.2171 0.3633 -0.1635
H1B H -0.2187 0.8324 0.0004
Cu1B Cu 0.0000 0.7980(1) -0.2500
loop_
_geom_bond_atom_site_label_1
_geom_bond_atom_site_label_2
_geom_bond_site_symmetry_1
_geom_bond_site_symmetry_2
Cu1 Cl1 1_555 1_555
Cl1 Cu1_2 1_555 1_555
N1 Cu1 1_555 1_555
C1 N1 1_555 1_555
C2 N1 1_555 1_555
H1 C1 1_555 1_555
H2 C2 1_555 1_555
Cl1_2 Cu1 1_555 1_555
N1A Cu1 1_555 1_555
C2B C1 1_555 1_555
C1B C2 1_555 1_555
N1B C2B 1_555 1_555
H2B C2B 1_555 1_555
H1B C1B 1_555 1_555
Cu1B N1B 1_555 1_555
C1B N1B 1_555 1_555

#END
