
#######################################################################
#
#                 Cambridge Crystallographic Data Centre
#                                CCDC 
#
#######################################################################
#
# If this CIF has been generated from an entry in the Cambridge 
# Structural Database, then it will include bibliographic, chemical, 
# crystal, experimental, refinement or atomic coordinate data resulting 
# from the CCDC's data processing and validation procedures.
#
#######################################################################

data_ZOMKAP
_symmetry_cell_setting           monoclinic
_symmetry_space_group_name_H-M   'P 21/n'
_symmetry_Int_Tables_number      14
_space_group_name_Hall           '-P 2yn'
loop_
_symmetry_equiv_pos_site_id
_symmetry_equiv_pos_as_xyz
1 x,y,z
2 1/2-x,1/2+y,1/2-z
3 -x,-y,-z
4 1/2+x,1/2-y,1/2+z
_cell_length_a                   8.4548(2)
_cell_length_b                   13.1047(4)
_cell_length_c                   9.4885(2)
_cell_angle_alpha                90
_cell_angle_beta                 94.4390(10)
_cell_angle_gamma                90
_cell_volume                     1048.15
loop_
_atom_site_label
_atom_site_type_symbol
_atom_site_fract_x
_atom_site_fract_y
_atom_site_fract_z
Tb1 Tb 0.03815(2) 0.769025(17) 0.49144(2)
O1 O -0.1595(4) 0.6404(3) 0.3860(4)
O2 O -0.2172(4) 0.7128(3) 0.5834(4)
O3 O -0.1691(4) 0.8761(3) 0.3859(5)
H1 H -0.1451 0.9273 0.3231
H2 H -0.2734 0.8663 0.4078
O4 O -0.3500(4) 0.6139(3) 0.8422(3)
O5 O -0.1657(4) 0.5111(3) 0.7668(4)
O6 O 0.1488(5) 0.6861(3) 0.3039(4)
H3 H 0.1975 0.7239 0.2364
H4 H 0.1442 0.6154 0.2969
O7 O 0.3058(5) 0.7730(3) 0.5953(5)
H5 H 0.3806 0.8145 0.5568
H6 H 0.3349 0.733 0.674
O8 O -0.4508(5) 0.5679(3) 0.1255(4)
O9 O -0.4646(4) 0.7062(3) 0.2505(4)
C1 C -0.2476(5) 0.6483(4) 0.4883(5)
C2 C -0.4759(5) 0.5492(4) 0.3743(5)
C3 C -0.3830(5) 0.5749(4) 0.4959(5)
C4 C -0.4075(5) 0.5266(4) 0.6244(5)
C5 C -0.3002(5) 0.5527(4) 0.7568(5)
C6 C -0.4610(5) 0.6105(4) 0.2420(5)
O10 O 0.1058(6) 0.6025(3) 0.5975(5)
H7 H 0.190(10) 0.600(7) 0.655(9)
H8 H 0.09(3) 0.556(18) 0.69(2)
O1B O -0.8405(4) 0.3596(3) 0.6140(4)
O2B O -0.7828(4) 0.2872(3) 0.4166(4)
C1B C -0.7524(5) 0.3517(4) 0.5117(5)
C3B C -0.6170(5) 0.4251(4) 0.5041(5)
O4B O -0.6500(4) 0.3861(3) 0.1578(3)
O5B O -0.8343(4) 0.4889(3) 0.2332(4)
C4B C -0.5925(5) 0.4734(4) 0.3756(5)
C5B C -0.6998(5) 0.4473(4) 0.2432(5)
O8B O -0.5492(5) 0.4321(3) 0.8745(4)
O9B O -0.5354(4) 0.2938(3) 0.7495(4)
C2B C -0.5241(5) 0.4508(4) 0.6257(5)
C6B C -0.5390(5) 0.3895(4) 0.7580(5)
Tb1B Tb -1.03815(2) 0.230975(17) 0.50856(2)
O3B O -0.8309(4) 0.1239(3) 0.6141(5)
H1B H -0.8549 0.0727 0.6769
H2B H -0.7266 0.1337 0.5922
O6B O -1.1488(5) 0.3139(3) 0.6961(4)
H3B H -1.1975 0.2761 0.7636
H4B H -1.1442 0.3846 0.7031
O7B O -1.3058(5) 0.2270(3) 0.4047(5)
H5B H -1.3806 0.1855 0.4432
H6B H -1.3349 0.267 0.326
O10B O -1.1058(6) 0.3975(3) 0.4025(5)
H7B H -1.190(10) 0.400(7) 0.345(9)
H8B H -1.09(3) 0.444(18) 0.31(2)
Tb1A Tb -0.53815(2) 0.269025(17) 0.00856(2)
Tb1A_2 Tb -0.53815(2) 0.269025(17) 1.00856(2)
Tb1C Tb -0.46185(2) 0.730975(17) -0.00856(2)
Tb1C_2 Tb -0.46185(2) 0.730975(17) 0.99144(2)
O4A O -1.1500(4) 0.1139(3) 0.6578(3)
O4C O 0.1500(4) 0.8861(3) 0.3422(3)
O8A O -1.0492(5) 0.0679(3) 0.3745(4)
O8C O 0.0492(5) 0.9321(3) 0.6255(4)
O9A O -1.0354(4) 0.2062(3) 0.2495(4)
O9C O 0.0354(4) 0.7938(3) 0.7505(4)
O11 O 1.0198(5) 0.6373(4) 0.9411(5)
H9 H 1.031(4) 0.580(4) 0.986(4)
H10 H 0.948(11) 0.589(8) 0.892(10)
loop_
_geom_bond_atom_site_label_1
_geom_bond_atom_site_label_2
_geom_bond_site_symmetry_1
_geom_bond_site_symmetry_2
Tb1 O1 1_555 1_555
O1 C1 1_555 1_555
O2 Tb1 1_555 1_555
O3 Tb1 1_555 1_555
H1 O3 1_555 1_555
H2 O3 1_555 1_555
O4 C5 1_555 1_555
O5 C5 1_555 1_555
O6 Tb1 1_555 1_555
H3 O6 1_555 1_555
H4 O6 1_555 1_555
O7 Tb1 1_555 1_555
H5 O7 1_555 1_555
H6 O7 1_555 1_555
O8 C6 1_555 1_555
O9 C6 1_555 1_555
C1 O2 1_555 1_555
C2 C3 1_555 1_555
C3 C1 1_555 1_555
C4 C3 1_555 1_555
C5 C4 1_555 1_555
C6 C2 1_555 1_555
O10 Tb1 1_555 1_555
H7 O10 1_555 1_555
H8 O10 1_555 1_555
O11 H9 1_555 1_555
H10 O11 1_555 1_555
O1B C1B 1_555 1_555
O2B C1B 1_555 1_555
C1B C3B 1_555 1_555
C3B C4B 1_555 1_555
O4B C5B 1_555 1_555
O5B C5B 1_555 1_555
C4B C2 1_555 1_555
C5B C4B 1_555 1_555
O8B C6B 1_555 1_555
O9B C6B 1_555 1_555
C2B C4 1_555 1_555
C6B C2B 1_555 1_555
Tb1B O1B 1_555 1_555
O3B Tb1B 1_555 1_555
H1B O3B 1_555 1_555
H2B O3B 1_555 1_555
O6B Tb1B 1_555 1_555
H3B O6B 1_555 1_555
H4B O6B 1_555 1_555
O7B Tb1B 1_555 1_555
H5B O7B 1_555 1_555
H6B O7B 1_555 1_555
O10B Tb1B 1_555 1_555
H7B O10B 1_555 1_555
H8B O10B 1_555 1_555
Tb1A O4B 1_555 1_555
Tb1A_2 O8B 1_555 1_555
Tb1C O8 1_555 1_555
Tb1C_2 O4 1_555 1_555
O4A Tb1B 1_555 1_555
O4C Tb1 1_555 1_555
O8A Tb1B 1_555 1_555
O8C Tb1 1_555 1_555
O9A Tb1B 1_555 1_555
O9C Tb1 1_555 1_555
O9 Tb1C 1_555 1_555
O2B Tb1B 1_555 1_555
C3B C2B 1_555 1_555
O9B Tb1A_2 1_555 1_555

#END
