
#######################################################################
#
#                 Cambridge Crystallographic Data Centre
#                                CCDC 
#
#######################################################################
#
# If this CIF has been generated from an entry in the Cambridge 
# Structural Database, then it will include bibliographic, chemical, 
# crystal, experimental, refinement or atomic coordinate data resulting 
# from the CCDC's data processing and validation procedures.
#
#######################################################################

data_ZOMLOE
_symmetry_cell_setting           monoclinic
_symmetry_space_group_name_H-M   'P 21/c'
_symmetry_Int_Tables_number      14
_space_group_name_Hall           '-P 2ybc'
loop_
_symmetry_equiv_pos_site_id
_symmetry_equiv_pos_as_xyz
1 x,y,z
2 -x,1/2+y,1/2-z
3 -x,-y,-z
4 x,1/2-y,1/2+z
_cell_length_a                   6.6780(11)
_cell_length_b                   14.672(3)
_cell_length_c                   9.7183(17)
_cell_angle_alpha                90
_cell_angle_beta                 95.169(2)
_cell_angle_gamma                90
_cell_volume                     948.323
loop_
_atom_site_label
_atom_site_type_symbol
_atom_site_fract_x
_atom_site_fract_y
_atom_site_fract_z
C1 C -0.1954(7) 0.3801(3) 0.6591(5)
C2 C -0.0139(6) 0.3383(3) 0.6414(5)
H1 H 0.0557 0.3085 0.7155
C3 C 0.0666(6) 0.3405(3) 0.5125(5)
C4 C -0.0384(7) 0.3887(3) 0.4027(5)
C5 C -0.2217(8) 0.4303(4) 0.4240(5)
H2 H -0.2914 0.4618 0.3516
C6 C -0.3016(8) 0.4257(4) 0.5507(5)
H3 H -0.4246 0.4529 0.5629
C7 C 0.0394(7) 0.3986(3) 0.2635(5)
N1 N 0.2458(5) 0.2902(3) 0.5011(4)
H4 H 0.3363 0.3089 0.5694
H5 H 0.2936 0.3064 0.4209
O1 O -0.4672(5) 0.3036(2) 0.7950(4)
O2 O -0.3819(5) 0.4581(2) 0.8537(4)
O3 O -0.1416(5) 0.3378(2) 0.9178(4)
O4 O -0.0484(6) 0.4503(3) 0.1742(4)
O5 O 0.1933(5) 0.3527(2) 0.2370(3)
O6 O 0.5642(5) 0.3470(2) 1.1262(4)
H6 H 0.6802 0.3681 1.1150
H7 H 0.5702 0.3143 1.1985
Pb1 Pb 0.23764(2) 0.398301(12) 1.009022(18)
S1 S -0.30230(16) 0.36930(7) 0.81860(11)
N1C N 0.2458(5) 0.2098(3) 1.0011(4)
O2B O 0.3819(5) 0.5419(2) 1.1463(4)
O4_2 O -0.0484(6) 0.4503(3) 1.1742(4)
O5_2 O 0.1933(5) 0.3527(2) 1.2370(3)
Pb1_2 Pb 0.23764(2) 0.398301(12) 0.009022(18)
Pb1B Pb -0.23764(2) 0.601699(12) 0.990978(18)
Pb1C Pb 0.23764(2) 0.101699(12) 0.509022(18)
loop_
_geom_bond_atom_site_label_1
_geom_bond_atom_site_label_2
_geom_bond_site_symmetry_1
_geom_bond_site_symmetry_2
C1 C2 1_555 1_555
C2 H1 1_555 1_555
C3 C2 1_555 1_555
C4 C3 1_555 1_555
C5 C4 1_555 1_555
H2 C5 1_555 1_555
C6 C1 1_555 1_555
H3 C6 1_555 1_555
C7 C4 1_555 1_555
N1 C3 1_555 1_555
H4 N1 1_555 1_555
H5 N1 1_555 1_555
O1 S1 1_555 1_555
O2 S1 1_555 1_555
O3 Pb1 1_555 1_555
O4 C7 1_555 1_555
O5 C7 1_555 1_555
O6 H6 1_555 1_555
H7 O6 1_555 1_555
Pb1 O6 1_555 1_555
S1 C1 1_555 1_555
N1C Pb1 1_555 1_555
O2B Pb1 1_555 1_555
O4_2 Pb1 1_555 1_555
O5_2 Pb1 1_555 1_555
Pb1_2 O4 1_555 1_555
Pb1B O2 1_555 1_555
Pb1C N1 1_555 1_555
C5 C6 1_555 1_555
O3 S1 1_555 1_555
O5 Pb1_2 1_555 1_555

#END
