
#######################################################################
#
#                 Cambridge Crystallographic Data Centre
#                                CCDC 
#
#######################################################################
#
# If this CIF has been generated from an entry in the Cambridge 
# Structural Database, then it will include bibliographic, chemical, 
# crystal, experimental, refinement or atomic coordinate data resulting 
# from the CCDC's data processing and validation procedures.
#
#######################################################################

data_ZOMLIY
_symmetry_cell_setting           triclinic
_symmetry_space_group_name_H-M   'P -1'
_symmetry_Int_Tables_number      2
_space_group_name_Hall           '-P 1'
loop_
_symmetry_equiv_pos_site_id
_symmetry_equiv_pos_as_xyz
1 x,y,z
2 -x,-y,-z
_cell_length_a                   9.6177(15)
_cell_length_b                   13.490(2)
_cell_length_c                   15.996(2)
_cell_angle_alpha                90.087(2)
_cell_angle_beta                 96.643(2)
_cell_angle_gamma                105.861(2)
_cell_volume                     1981.76
loop_
_atom_site_label
_atom_site_type_symbol
_atom_site_fract_x
_atom_site_fract_y
_atom_site_fract_z
C1 C 0.5576(12) 0.1664(9) 0.4751(7)
H1 H 0.5338 0.1062 0.4418
C2 C 0.7005(11) 0.2034(10) 0.5183(7)
H2 H 0.7682 0.1664 0.5142
C3 C 0.7391(11) 0.2933(10) 0.5659(7)
H3 H 0.8326 0.3180 0.5941
C4 C 0.6373(11) 0.3460(9) 0.5711(6)
C5 C 0.6687(14) 0.4403(11) 0.6196(7)
H4 H 0.7625 0.4676 0.6467
C6 C 0.5690(15) 0.4909(9) 0.6276(7)
H5 H 0.5948 0.5537 0.6575
C7 C 0.4211(14) 0.4474(8) 0.5895(6)
C8 C 0.3816(11) 0.3555(7) 0.5413(6)
C9 C 0.4938(10) 0.3049(7) 0.5305(6)
C10 C 0.1438(11) 0.3551(8) 0.5180(6)
H6 H 0.0490 0.3246 0.4937
C11 C 0.1719(15) 0.4483(8) 0.5658(8)
H7 H 0.0973 0.4778 0.5737
C12 C 0.3122(15) 0.4938(9) 0.6002(8)
H8 H 0.3343 0.5560 0.6308
C13 C 0.0541(10) 0.2600(7) 0.3138(5)
C14 C -0.0034(9) 0.3326(6) 0.2602(5)
C15 C 0.0861(10) 0.3961(7) 0.2089(6)
H9 H 0.1812 0.3917 0.2105
C16 C -0.1474(10) 0.3386(7) 0.2583(6)
C17 C -0.1906(10) 0.4109(7) 0.2054(6)
H10 H -0.2850 0.4168 0.2039
C18 C -0.0993(9) 0.4720(6) 0.1566(5)
C19 C 0.0431(10) 0.4664(7) 0.1547(6)
H11 H 0.1052 0.5067 0.1198
C20 C 0.4870(8) 0.8218(6) 0.2720(5)
C21 C 0.5544(9) 0.7460(7) 0.2518(5)
C22 C 0.7048(10) 0.7646(7) 0.2806(5)
H12 H 0.7532 0.7167 0.2675
C23 C 0.7788(9) 0.8510(7) 0.3268(5)
C24 C 0.7139(10) 0.9255(7) 0.3495(6)
H13 H 0.7660 0.9834 0.3826
C25 C 0.5675(10) 0.9093(7) 0.3206(5)
H14 H 0.5213 0.9583 0.3341
C26 C 0.3346(10) 0.8134(8) 0.2373(6)
C27 C 0.2553(12) 0.7595(8) 0.0128(7)
H15 H 0.2324 0.6962 0.0385
C28 C 0.3381(14) 0.7705(11) -0.0540(8)
H16 H 0.3646 0.7145 -0.0742
C29 C 0.3791(15) 0.8613(13) -0.0886(8)
H17 H 0.4400 0.8701 -0.1307
C30 C 0.3319(14) 0.9434(11) -0.0627(8)
C31 C 0.2491(11) 0.9301(7) 0.0055(6)
C32 C 0.3705(17) 1.0431(14) -0.0971(9)
H18 H 0.4309 1.0555 -0.1395
C33 C 0.3199(18) 1.1214(12) -0.0686(9)
H19 H 0.3412 1.1842 -0.0950
C34 C 0.1992(11) 1.0130(7) 0.0371(6)
C35 C 0.1866(18) 1.1880(9) 0.0306(9)
H20 H 0.2100 1.2529 0.0076
C36 C 0.2373(15) 1.1093(9) -0.0009(7)
C37 C 0.1046(18) 1.1696(10) 0.0936(10)
H21 H 0.0698 1.2219 0.1135
C38 C 0.0687(13) 1.0706(8) 0.1312(7)
H22 H 0.0123 1.0593 0.1756
N1 N -0.2502(9) 0.2748(7) 0.3047(6)
H23 H -0.2262 0.2291 0.3363
H24 H -0.3371 0.2813 0.3014
N2 N 0.2441(8) 0.3096(5) 0.5060(4)
N3 N 0.4575(8) 0.2161(6) 0.4813(5)
N4 N 0.4870(9) 0.6603(6) 0.2020(6)
H25 H 0.3977 0.6500 0.1807
H26 H 0.5338 0.6165 0.1918
N5 N 0.2060(8) 0.8363(6) 0.0425(5)
N6 N 0.1165(9) 0.9958(6) 0.1024(5)
O1 O 0.1855(7) 0.2584(5) 0.3132(4)
O2 O -0.0253(7) 0.2016(5) 0.3625(4)
O3 O -0.2565(8) 0.4942(5) 0.0195(5)
O4 O -0.0434(7) 0.6324(5) 0.0643(5)
O5 O 1.0374(7) 0.9606(5) 0.3080(4)
O6 O 0.9988(7) 0.8992(5) 0.4471(4)
O7 O 1.0071(7) 0.7809(5) 0.3334(4)
O8 O 0.2916(7) 0.8956(5) 0.2341(4)
O9 O 0.2465(7) 0.7286(5) 0.2101(4)
O10 O -0.2526(8) 0.6042(6) 0.1386(5)
O11 O 0.3527(8) 0.0911(5) 0.3101(5)
H27 H 0.3782 0.1417 0.2781
H28 H 0.3326 0.0350 0.2808
Pb1 Pb 0.18261(3) 0.13358(2) 0.42495(2)
Pb2 Pb 0.05582(3) 0.81201(3) 0.16217(2)
S1 S 0.9697(2) 0.87335(18) 0.35688(14)
S2 S -0.1677(3) 0.55774(17) 0.08949(15)
O5_2 O 0.0374(7) -0.0394(5) 0.3080(4)
O6A O 0.0012(7) 0.1008(5) 0.5529(4)
O7_2 O 0.0071(7) 0.7809(5) 0.3334(4)
Pb1_2 Pb 1.18261(3) 1.13358(2) 0.42495(2)
Pb1A Pb 0.81739(3) 0.86642(2) 0.57505(2)
Pb2_2 Pb 1.05582(3) 0.81201(3) 0.16217(2)
O12 O 0.4354(8) 0.2874(6) 0.2311(5)
H29 H 0.4493 0.3189 0.1853
H30 H 0.3451 0.2717 0.2366
O13 O 0.4483(9) 0.4302(7) 0.1002(5)
H31 H 0.4612 0.3896 0.0628
H32 H 0.3770 0.4533 0.0823
loop_
_geom_bond_atom_site_label_1
_geom_bond_atom_site_label_2
_geom_bond_site_symmetry_1
_geom_bond_site_symmetry_2
C1 H1 1_555 1_555
C2 C1 1_555 1_555
H2 C2 1_555 1_555
C3 C2 1_555 1_555
H3 C3 1_555 1_555
C4 C3 1_555 1_555
C5 C4 1_555 1_555
H4 C5 1_555 1_555
C6 C5 1_555 1_555
H5 C6 1_555 1_555
C7 C6 1_555 1_555
C8 C7 1_555 1_555
C9 C4 1_555 1_555
C10 H6 1_555 1_555
C11 C10 1_555 1_555
H7 C11 1_555 1_555
C12 C7 1_555 1_555
H8 C12 1_555 1_555
C13 C14 1_555 1_555
C14 C15 1_555 1_555
C15 H9 1_555 1_555
C16 C14 1_555 1_555
C17 C16 1_555 1_555
H10 C17 1_555 1_555
C18 C17 1_555 1_555
C19 C15 1_555 1_555
H11 C19 1_555 1_555
C20 C21 1_555 1_555
C21 C22 1_555 1_555
C22 H12 1_555 1_555
C23 C22 1_555 1_555
C24 C23 1_555 1_555
H13 C24 1_555 1_555
C25 C20 1_555 1_555
H14 C25 1_555 1_555
C26 C20 1_555 1_555
C27 H15 1_555 1_555
C28 C27 1_555 1_555
H16 C28 1_555 1_555
C29 C28 1_555 1_555
H17 C29 1_555 1_555
C30 C29 1_555 1_555
C31 C30 1_555 1_555
C32 C30 1_555 1_555
H18 C32 1_555 1_555
C33 C32 1_555 1_555
H19 C33 1_555 1_555
C34 C31 1_555 1_555
C35 H20 1_555 1_555
C36 C33 1_555 1_555
C37 C35 1_555 1_555
H21 C37 1_555 1_555
C38 C37 1_555 1_555
H22 C38 1_555 1_555
N1 C16 1_555 1_555
H23 N1 1_555 1_555
H24 N1 1_555 1_555
N2 C8 1_555 1_555
N3 C1 1_555 1_555
N4 C21 1_555 1_555
H25 N4 1_555 1_555
H26 N4 1_555 1_555
N5 C27 1_555 1_555
N6 C34 1_555 1_555
O1 C13 1_555 1_555
O2 C13 1_555 1_555
O3 S2 1_555 1_555
O4 Pb2 1_555 1_555
O5 S1 1_555 1_555
O6 S1 1_555 1_555
O7 S1 1_555 1_555
O8 C26 1_555 1_555
O9 C26 1_555 1_555
O10 S2 1_555 1_555
O11 H27 1_555 1_555
H28 O11 1_555 1_555
Pb1 N2 1_555 1_555
Pb2 N5 1_555 1_555
S1 C23 1_555 1_555
S2 C18 1_555 1_555
O12 H29 1_555 1_555
H30 O12 1_555 1_555
O13 H31 1_555 1_555
H32 O13 1_555 1_555
O5_2 Pb1 1_555 1_555
O6A Pb1 1_555 1_555
O7_2 Pb2 1_555 1_555
Pb1_2 O5 1_555 1_555
Pb1A O6 1_555 1_555
Pb2_2 O7 1_555 1_555
C8 C9 1_555 1_555
C9 N3 1_555 1_555
C10 N2 1_555 1_555
C11 C12 1_555 1_555
C18 C19 1_555 1_555
C24 C25 1_555 1_555
C31 N5 1_555 1_555
C34 C36 1_555 1_555
C35 C36 1_555 1_555
C38 N6 1_555 1_555
N3 Pb1 1_555 1_555
N6 Pb2 1_555 1_555
O1 Pb1 1_555 1_555
O2 Pb1 1_555 1_555
O4 S2 1_555 1_555
O8 Pb2 1_555 1_555
O9 Pb2 1_555 1_555
O11 Pb1 1_555 1_555

#END
