
#######################################################################
#
#                 Cambridge Crystallographic Data Centre
#                                CCDC 
#
#######################################################################
#
# If this CIF has been generated from an entry in the Cambridge 
# Structural Database, then it will include bibliographic, chemical, 
# crystal, experimental, refinement or atomic coordinate data resulting 
# from the CCDC's data processing and validation procedures.
#
#######################################################################

data_ZOMMAR
_symmetry_cell_setting           triclinic
_symmetry_space_group_name_H-M   'P -1'
_symmetry_Int_Tables_number      2
_space_group_name_Hall           '-P 1'
loop_
_symmetry_equiv_pos_site_id
_symmetry_equiv_pos_as_xyz
1 x,y,z
2 -x,-y,-z
_cell_length_a                   5.9314(7)
_cell_length_b                   11.0291(13)
_cell_length_c                   24.939(3)
_cell_angle_alpha                101.0520(10)
_cell_angle_beta                 92.705(2)
_cell_angle_gamma                93.508(2)
_cell_volume                     1595.31
loop_
_atom_site_label
_atom_site_type_symbol
_atom_site_fract_x
_atom_site_fract_y
_atom_site_fract_z
C1 C 0.7160(13) 0.1780(7) 0.8239(3)
C2 C 0.9971(13) 0.3678(7) 0.8571(3)
C3 C 1.0507(13) 0.4933(7) 0.8573(3)
H1 H 1.1903 0.5304 0.8725
C4 C 0.8982(12) 0.5623(7) 0.8354(3)
C5 C 0.6846(14) 0.5120(7) 0.8126(3)
H2 H 0.5801 0.5605 0.7995
C6 C 0.6362(14) 0.3869(7) 0.8103(3)
H3 H 0.4980 0.3505 0.7939
C7 C 0.7858(13) 0.3128(7) 0.8316(3)
C8 C 0.6883(15) 0.4388(9) 0.9833(4)
H4 H 0.8143 0.3973 0.9715
C9 C 0.3510(16) 0.4496(9) 1.0319(4)
H5 H 0.2491 0.4153 1.0530
C10 C 0.5408(15) 0.3890(8) 1.0158(3)
C11 C 0.5743(17) 0.2631(8) 1.0307(4)
H6 H 0.7349 0.2540 1.0364
H7 H 0.5043 0.2590 1.0648
C12 C 0.5733(14) 0.1115(8) 0.9421(4)
H8 H 0.7211 0.1328 0.9346
C13 C 0.2601(13) 0.1064(7) 0.9842(3)
H9 H 0.1522 0.1223 1.0100
C14 C 0.2336(16) 0.0247(8) 0.9358(4)
H10 H 0.1032 -0.0255 0.9227
N1 N 0.4761(11) 0.1612(6) 0.9879(3)
N2 N 0.4344(11) 0.0282(6) 0.9086(3)
N3 N 1.1456(13) 0.3042(7) 0.8828(3)
H11 H 1.2696 0.3414 0.8987
H12 H 1.1150 0.2271 0.8830
O1 O 0.8362(11) 0.7919(6) 0.8791(3)
O2 O 1.2133(9) 0.7448(5) 0.8491(2)
O3 O 0.8971(9) 0.7448(5) 0.7833(2)
O4 O 0.8507(10) 0.1041(5) 0.8409(3)
O5 O 0.5220(10) 0.1378(5) 0.8031(3)
O6 O 0.1453(9) -0.0379(5) 0.7770(2)
H13 H 0.0820 0.0211 0.7965
H14 H 0.0540 -0.1024 0.7705
Pb1 Pb 0.52787(5) -0.07767(3) 0.816879(11)
S1 S 0.9701(3) 0.72317(17) 0.83740(8)
C15 C 0.6143(14) -0.2953(8) 0.6578(3)
C16 C 0.7499(14) -0.3864(8) 0.6350(4)
H15 H 0.8777 -0.3670 0.6173
C17 C 0.6906(15) -0.5089(9) 0.6394(4)
H16 H 0.7793 -0.5717 0.6241
C18 C 0.4983(15) -0.5376(7) 0.6665(4)
C19 C 0.3568(13) -0.4435(8) 0.6881(4)
C20 C 0.4206(14) -0.3226(8) 0.6823(3)
H17 H 0.3293 -0.2591 0.6954
C21 C 0.1960(16) -0.4491(9) 0.5301(4)
H18 H 0.3296 -0.4160 0.5500
C22 C 0.1273(17) -0.5719(9) 0.5272(4)
H19 H 0.2129 -0.6195 0.5462
C23 C -0.0673(15) -0.6264(8) 0.4964(3)
C24 C -0.1495(17) -0.7605(8) 0.4911(4)
H20 H -0.2993 -0.7652 0.5050
H21 H -0.1614 -0.8001 0.4527
C25 C 0.2026(14) -0.8754(8) 0.5038(4)
H22 H 0.2601 -0.8783 0.4695
C26 C -0.0181(14) -0.8439(8) 0.5723(4)
H23 H -0.1396 -0.8210 0.5933
C27 C 0.2970(17) -0.9168(9) 0.5458(3)
H24 H 0.4347 -0.9528 0.5460
C28 C 0.4527(14) -0.6682(7) 0.6725(3)
N4 N 0.0019(12) -0.8271(6) 0.5211(3)
N5 N 0.1579(13) -0.8976(7) 0.5891(3)
N6 N 0.1745(13) -0.4640(8) 0.7166(4)
H25 H 0.0989 -0.4031 0.7309
H26 H 0.1341 -0.5380 0.7204
O7 O 0.5917(11) -0.7485(6) 0.6571(3)
O8 O 0.2710(11) -0.6984(6) 0.6928(3)
O9 O 0.5421(11) -0.1023(6) 0.6154(3)
O10 O 0.6612(10) -0.0675(5) 0.7113(2)
O11 O 0.9281(10) -0.1299(6) 0.6428(3)
O12 O -0.0874(10) -0.8517(6) 0.7136(3)
H27 H -0.1819 -0.8075 0.7010
H28 H -0.1155 -0.9272 0.6983
Pb2 Pb 0.27223(5) -0.91947(3) 0.681053(13)
S2 S 0.6941(3) -0.13842(19) 0.65565(8)
C8A C 0.3117(15) 0.5612(9) 1.0167(4)
H4A H 0.1857 0.6027 1.0285
C9A C 0.6490(16) 0.5504(9) 0.9681(4)
H5A H 0.7509 0.5847 0.9470
C10A C 0.4592(15) 0.6110(8) 0.9842(3)
C11A C 0.4257(17) 0.7369(8) 0.9693(4)
H6A H 0.2651 0.7460 0.9636
H7A H 0.4957 0.7410 0.9352
C12A C 0.4267(14) 0.8885(8) 1.0579(4)
H8A H 0.2789 0.8672 1.0654
C13A C 0.7399(13) 0.8936(7) 1.0158(3)
H9A H 0.8478 0.8777 0.9900
C14A C 0.7664(16) 0.9753(8) 1.0642(4)
H10A H 0.8968 1.0255 1.0773
N1A N 0.5239(11) 0.8388(6) 1.0121(3)
N2A N 0.5656(11) 0.9718(6) 1.0914(3)
C21A C -0.1960(16) -0.5509(9) 0.4699(4)
H18A H -0.3296 -0.5840 0.4500
C22A C -0.1273(17) -0.4281(9) 0.4728(4)
H19A H -0.2129 -0.3805 0.4538
C23A C 0.0673(15) -0.3736(8) 0.5036(3)
C24A C 0.1495(17) -0.2395(8) 0.5089(4)
H20A H 0.2993 -0.2348 0.4950
H21A H 0.1614 -0.1999 0.5473
C25A C -0.2026(14) -0.1246(8) 0.4962(4)
H22A H -0.2601 -0.1217 0.5305
C26A C 0.0181(14) -0.1561(8) 0.4277(4)
H23A H 0.1396 -0.1790 0.4067
C27A C -0.2970(17) -0.0832(9) 0.4542(3)
H24A H -0.4347 -0.0472 0.4540
N4A N -0.0019(12) -0.1729(6) 0.4789(3)
N5A N -0.1579(13) -0.1024(7) 0.4109(3)
C1A C -0.7160(13) -1.1780(7) 0.1761(3)
C2A C -0.9971(13) -1.3678(7) 0.1429(3)
C3A C -1.0507(13) -1.4933(7) 0.1427(3)
H1A H -1.1903 -1.5304 0.1275
C4A C -0.8982(12) -1.5623(7) 0.1646(3)
C5A C -0.6846(14) -1.5120(7) 0.1874(3)
H2A H -0.5801 -1.5605 0.2005
C6A C -0.6362(14) -1.3869(7) 0.1897(3)
H3A H -0.4980 -1.3505 0.2061
C7A C -0.7858(13) -1.3128(7) 0.1684(3)
N3A N -1.1456(13) -1.3042(7) 0.1172(3)
H11A H -1.2696 -1.3414 0.1013
H12A H -1.1150 -1.2271 0.1170
O1A O -0.8362(11) -1.7919(6) 0.1209(3)
O2A O -1.2133(9) -1.7448(5) 0.1509(2)
O3A O -0.8971(9) -1.7448(5) 0.2167(2)
O4A O -0.8507(10) -1.1041(5) 0.1591(3)
O5A O -0.5220(10) -1.1378(5) 0.1969(3)
O6A O -0.1453(9) -0.9621(5) 0.2230(2)
H13A H -0.0820 -1.0211 0.2035
H14A H -0.0540 -0.8976 0.2295
Pb1A Pb -0.52787(5) -0.92233(3) 0.183121(11)
S1A S -0.9701(3) -1.72317(17) 0.16260(8)
C15A C -0.6143(14) -0.7047(8) 0.3422(3)
C16A C -0.7499(14) -0.6136(8) 0.3650(4)
H15A H -0.8777 -0.6330 0.3827
C17A C -0.6906(15) -0.4911(9) 0.3606(4)
H16A H -0.7793 -0.4283 0.3759
C18A C -0.4983(15) -0.4624(7) 0.3335(4)
C19A C -0.3568(13) -0.5565(8) 0.3119(4)
C20A C -0.4206(14) -0.6774(8) 0.3177(3)
H17A H -0.3293 -0.7409 0.3046
C28A C -0.4527(14) -0.3318(7) 0.3275(3)
N6A N -0.1745(13) -0.5360(8) 0.2834(4)
H25A H -0.0989 -0.5969 0.2691
H26A H -0.1341 -0.4620 0.2796
O7A O -0.5917(11) -0.2515(6) 0.3429(3)
O8A O -0.2710(11) -0.3016(6) 0.3072(3)
O9A O -0.5421(11) -0.8977(6) 0.3846(3)
O10A O -0.6612(10) -0.9325(5) 0.2887(2)
O11A O -0.9281(10) -0.8701(6) 0.3572(3)
O12A O 0.0874(10) -0.1483(6) 0.2864(3)
H27A H 0.1819 -0.1925 0.2990
H28A H 0.1155 -0.0728 0.3017
Pb2A Pb -0.27223(5) -0.08053(3) 0.318947(13)
S2A S -0.6941(3) -0.86158(19) 0.34435(8)
N2A_2 N -0.4344(11) -1.0282(6) 0.0914(3)
O2_2 O 0.2133(9) -0.2552(5) 0.8491(2)
O2A_2 O -0.2133(9) -0.7448(5) 0.1509(2)
Pb1_2 Pb 1.52787(5) 0.92233(3) 0.816879(11)
Pb1A_2 Pb -1.52787(5) -1.92233(3) 0.183121(11)
Pb1A_3 Pb 0.47213(5) 1.07767(3) 1.183121(11)
loop_
_geom_bond_atom_site_label_1
_geom_bond_atom_site_label_2
_geom_bond_site_symmetry_1
_geom_bond_site_symmetry_2
C1 C7 1_555 1_555
C2 C3 1_555 1_555
C3 H1 1_555 1_555
C4 C3 1_555 1_555
C5 C4 1_555 1_555
H2 C5 1_555 1_555
C6 C5 1_555 1_555
H3 C6 1_555 1_555
C7 C2 1_555 1_555
C8 H4 1_555 1_555
C9 H5 1_555 1_555
C10 C8 1_555 1_555
C11 C10 1_555 1_555
H6 C11 1_555 1_555
H7 C11 1_555 1_555
C12 H8 1_555 1_555
C13 H9 1_555 1_555
C14 C13 1_555 1_555
H10 C14 1_555 1_555
N1 C11 1_555 1_555
N2 C12 1_555 1_555
N3 C2 1_555 1_555
H11 N3 1_555 1_555
H12 N3 1_555 1_555
O1 S1 1_555 1_555
O2 S1 1_555 1_555
O3 S1 1_555 1_555
O4 C1 1_555 1_555
O5 C1 1_555 1_555
O6 H13 1_555 1_555
H14 O6 1_555 1_555
Pb1 N2 1_555 1_555
S1 C4 1_555 1_555
C15 C16 1_555 1_555
C16 H15 1_555 1_555
C17 C16 1_555 1_555
H16 C17 1_555 1_555
C18 C17 1_555 1_555
C19 C18 1_555 1_555
C20 C15 1_555 1_555
H17 C20 1_555 1_555
C21 H18 1_555 1_555
C22 C21 1_555 1_555
H19 C22 1_555 1_555
C23 C22 1_555 1_555
C24 C23 1_555 1_555
H20 C24 1_555 1_555
H21 C24 1_555 1_555
C25 H22 1_555 1_555
C26 H23 1_555 1_555
C27 C25 1_555 1_555
H24 C27 1_555 1_555
C28 C18 1_555 1_555
N4 C24 1_555 1_555
N5 C26 1_555 1_555
N6 C19 1_555 1_555
H25 N6 1_555 1_555
H26 N6 1_555 1_555
O7 C28 1_555 1_555
O8 C28 1_555 1_555
O9 S2 1_555 1_555
O10 Pb1 1_555 1_555
O11 S2 1_555 1_555
O12 H27 1_555 1_555
H28 O12 1_555 1_555
Pb2 N5 1_555 1_555
S2 C15 1_555 1_555
C8A C9 1_555 1_555
H4A C8A 1_555 1_555
C9A C8 1_555 1_555
H5A C9A 1_555 1_555
C10A C8A 1_555 1_555
C11A C10A 1_555 1_555
H6A C11A 1_555 1_555
H7A C11A 1_555 1_555
C12A H8A 1_555 1_555
C13A H9A 1_555 1_555
C14A C13A 1_555 1_555
H10A C14A 1_555 1_555
N1A C11A 1_555 1_555
N2A C12A 1_555 1_555
C21A C23 1_555 1_555
H18A C21A 1_555 1_555
C22A C21A 1_555 1_555
H19A C22A 1_555 1_555
C23A C21 1_555 1_555
C24A C23A 1_555 1_555
H20A C24A 1_555 1_555
H21A C24A 1_555 1_555
C25A H22A 1_555 1_555
C26A H23A 1_555 1_555
C27A C25A 1_555 1_555
H24A C27A 1_555 1_555
N4A C24A 1_555 1_555
N5A C26A 1_555 1_555
C1A C7A 1_555 1_555
C2A C3A 1_555 1_555
C3A H1A 1_555 1_555
C4A C3A 1_555 1_555
C5A C4A 1_555 1_555
H2A C5A 1_555 1_555
C6A C5A 1_555 1_555
H3A C6A 1_555 1_555
C7A C2A 1_555 1_555
N3A C2A 1_555 1_555
H11A N3A 1_555 1_555
H12A N3A 1_555 1_555
O1A S1A 1_555 1_555
O2A S1A 1_555 1_555
O3A S1A 1_555 1_555
O4A C1A 1_555 1_555
O5A C1A 1_555 1_555
O6A H13A 1_555 1_555
H14A O6A 1_555 1_555
Pb1A O4A 1_555 1_555
S1A C4A 1_555 1_555
C15A C16A 1_555 1_555
C16A H15A 1_555 1_555
C17A C16A 1_555 1_555
H16A C17A 1_555 1_555
C18A C17A 1_555 1_555
C19A C18A 1_555 1_555
C20A C15A 1_555 1_555
H17A C20A 1_555 1_555
C28A C18A 1_555 1_555
N6A C19A 1_555 1_555
H25A N6A 1_555 1_555
H26A N6A 1_555 1_555
O7A C28A 1_555 1_555
O8A C28A 1_555 1_555
O9A S2A 1_555 1_555
O10A Pb1A 1_555 1_555
O11A S2A 1_555 1_555
O12A H27A 1_555 1_555
H28A O12A 1_555 1_555
Pb2A N5A 1_555 1_555
S2A C15A 1_555 1_555
N2A_2 Pb1A 1_555 1_555
O2_2 Pb1 1_555 1_555
O2A_2 Pb1A 1_555 1_555
Pb1_2 O2 1_555 1_555
Pb1A_2 O2A 1_555 1_555
Pb1A_3 N2A 1_555 1_555
C6 C7 1_555 1_555
C9 C10 1_555 1_555
C12 N1 1_555 1_555
C13 N1 1_555 1_555
C14 N2 1_555 1_555
O4 Pb1 1_555 1_555
O5 Pb1 1_555 1_555
O6 Pb1 1_555 1_555
C19 C20 1_555 1_555
C25 N4 1_555 1_555
C26 N4 1_555 1_555
C27 N5 1_555 1_555
O7 Pb2 1_555 1_555
O8 Pb2 1_555 1_555
O10 S2 1_555 1_555
O12 Pb2 1_555 1_555
C9A C10A 1_555 1_555
C12A N1A 1_555 1_555
C13A N1A 1_555 1_555
C14A N2A 1_555 1_555
C22A C23A 1_555 1_555
C25A N4A 1_555 1_555
C26A N4A 1_555 1_555
C27A N5A 1_555 1_555
C6A C7A 1_555 1_555
O5A Pb1A 1_555 1_555
O6A Pb1A 1_555 1_555
C19A C20A 1_555 1_555
O7A Pb2A 1_555 1_555
O8A Pb2A 1_555 1_555
O10A S2A 1_555 1_555
O12A Pb2A 1_555 1_555

#END
