
#######################################################################
#
#                 Cambridge Crystallographic Data Centre
#                                CCDC 
#
#######################################################################
#
# If this CIF has been generated from an entry in the Cambridge 
# Structural Database, then it will include bibliographic, chemical, 
# crystal, experimental, refinement or atomic coordinate data resulting 
# from the CCDC's data processing and validation procedures.
#
#######################################################################

data_ZOMNOG
_symmetry_cell_setting           monoclinic
_symmetry_space_group_name_H-M   'C 2'
_symmetry_Int_Tables_number      5
_space_group_name_Hall           'C 2y'
loop_
_symmetry_equiv_pos_site_id
_symmetry_equiv_pos_as_xyz
1 x,y,z
2 -x,y,-z
3 1/2+x,1/2+y,z
4 1/2-x,1/2+y,-z
_cell_length_a                   13.783(9)
_cell_length_b                   12.697(9)
_cell_length_c                   6.743(5)
_cell_angle_alpha                90
_cell_angle_beta                 90.759(14)
_cell_angle_gamma                90
_cell_volume                     1179.94
loop_
_atom_site_label
_atom_site_type_symbol
_atom_site_fract_x
_atom_site_fract_y
_atom_site_fract_z
Zn1 Zn 0.0000 0.56225(4) 0.5000
C1 C -0.4480(4) 0.2864(4) 0.5378(10)
H1 H -0.4144 0.3478 0.4873
H2 H -0.4471 0.2902 0.6815
C2 C -0.3022(4) 0.1747(5) 0.5701(11)
H3 H -0.2716 0.1137 0.5111
H4 H -0.3117 0.1595 0.7094
C3 C -0.1957(6) 0.3147(7) 0.7163(12)
H5 H -0.2093 0.2893 0.8422
C4 C -0.1341(6) 0.4029(7) 0.6934(12)
H6 H -0.1120 0.4368 0.8075
C5 C -0.1451(6) 0.3934(7) 0.3650(11)
H7 H -0.1291 0.4191 0.2406
C6 C -0.2082(8) 0.3085(8) 0.3752(11)
H8 H -0.2329 0.2792 0.2586
C7 C -0.2348(4) 0.2674(5) 0.5531(10)
N1 N -0.1064(4) 0.4396(4) 0.5237(8)
N2 N -0.3978(4) 0.1907(4) 0.4741(8)
H9 H -0.4220 0.1476 0.3883
O1 O -0.0192(2) 0.5605(5) 0.1722(5)
O2 O 0.0850(4) 0.6942(4) 0.0416(7)
S1 S 0.0000 0.62847(14) 0.0000
C1A C -0.5520(4) 0.2864(4) 0.4622(10)
H1A H -0.5856 0.3478 0.5127
H2A H -0.5529 0.2902 0.3185
C2A C -0.6978(4) 0.1747(5) 0.4299(11)
H3A H -0.7284 0.1137 0.4889
H4A H -0.6883 0.1595 0.2906
C3A C -0.8043(6) 0.3147(7) 0.2837(12)
H5A H -0.7907 0.2893 0.1578
C4A C -0.8659(6) 0.4029(7) 0.3066(12)
H6A H -0.8880 0.4368 0.1925
C5A C -0.8549(6) 0.3934(7) 0.6350(11)
H7A H -0.8709 0.4191 0.7594
C6A C -0.7918(8) 0.3085(8) 0.6248(11)
H8A H -0.7671 0.2792 0.7414
C7A C -0.7652(4) 0.2674(5) 0.4469(10)
N1A N -0.8936(4) 0.4396(4) 0.4763(8)
N2A N -0.6022(4) 0.1907(4) 0.5259(8)
H9A H -0.5780 0.1476 0.6117
O1A O 0.0192(2) 0.5605(5) -0.1722(5)
O2A O -0.0850(4) 0.6942(4) -0.0416(7)
Zn1_2 Zn -1.0000 0.56225(4) 0.5000
Zn1_3 Zn 0.0000 0.56225(4) -0.5000
Zn1B Zn -0.5000 0.06225(4) 0.5000
N1A_2 N 0.1064(4) 0.4396(4) 0.4763(8)
N2B N 0.1022(4) 0.6907(4) 0.4741(8)
N2C N -0.1022(4) 0.6907(4) 0.5259(8)
O1A_2 O 0.0192(2) 0.5605(5) 0.8278(5)
O3 O 0.2802(9) 0.5832(15) 0.0644(19)
O4 O 0.0943(12) 0.9216(14) 0.047(3)
O5 O 0.0000 0.202(3) 1.0000
O6 O -0.4905(16) 0.568(3) 0.705(3)
loop_
_geom_bond_atom_site_label_1
_geom_bond_atom_site_label_2
_geom_bond_site_symmetry_1
_geom_bond_site_symmetry_2
Zn1 N1 1_555 1_555
C1 H1 1_555 1_555
H2 C1 1_555 1_555
C2 H3 1_555 1_555
H4 C2 1_555 1_555
C3 H5 1_555 1_555
C4 C3 1_555 1_555
H6 C4 1_555 1_555
C5 H7 1_555 1_555
C6 C5 1_555 1_555
H8 C6 1_555 1_555
C7 C2 1_555 1_555
N1 C4 1_555 1_555
N2 C1 1_555 1_555
H9 N2 1_555 1_555
O1 Zn1 1_555 1_555
O2 S1 1_555 1_555
S1 O1 1_555 1_555
C1A C1 1_555 1_555
H1A C1A 1_555 1_555
H2A C1A 1_555 1_555
C2A H3A 1_555 1_555
H4A C2A 1_555 1_555
C3A H5A 1_555 1_555
C4A C3A 1_555 1_555
H6A C4A 1_555 1_555
C5A H7A 1_555 1_555
C6A C5A 1_555 1_555
H8A C6A 1_555 1_555
C7A C2A 1_555 1_555
N1A C4A 1_555 1_555
N2A C1A 1_555 1_555
H9A N2A 1_555 1_555
O1A S1 1_555 1_555
O2A S1 1_555 1_555
Zn1_2 N1A 1_555 1_555
Zn1_3 O1A 1_555 1_555
Zn1B N2 1_555 1_555
N1A_2 Zn1 1_555 1_555
N2B Zn1 1_555 1_555
N2C Zn1 1_555 1_555
O1A_2 Zn1 1_555 1_555
C2 N2 1_555 1_555
C3 C7 1_555 1_555
C5 N1 1_555 1_555
C6 C7 1_555 1_555
C2A N2A 1_555 1_555
C3A C7A 1_555 1_555
C5A N1A 1_555 1_555
C6A C7A 1_555 1_555
N2A Zn1B 1_555 1_555

#END
