
#######################################################################
#
#                 Cambridge Crystallographic Data Centre
#                                CCDC 
#
#######################################################################
#
# If this CIF has been generated from an entry in the Cambridge 
# Structural Database, then it will include bibliographic, chemical, 
# crystal, experimental, refinement or atomic coordinate data resulting 
# from the CCDC's data processing and validation procedures.
#
#######################################################################

data_ZOMNEW
_symmetry_cell_setting           monoclinic
_symmetry_space_group_name_H-M   'C 2'
_symmetry_Int_Tables_number      5
_space_group_name_Hall           'C 2y'
loop_
_symmetry_equiv_pos_site_id
_symmetry_equiv_pos_as_xyz
1 x,y,z
2 -x,y,-z
3 1/2+x,1/2+y,z
4 1/2-x,1/2+y,-z
_cell_length_a                   13.901(7)
_cell_length_b                   12.713(6)
_cell_length_c                   7.070(3)
_cell_angle_alpha                90
_cell_angle_beta                 91.139(9)
_cell_angle_gamma                90
_cell_volume                     1249.19
loop_
_atom_site_label
_atom_site_type_symbol
_atom_site_fract_x
_atom_site_fract_y
_atom_site_fract_z
Zn1 Zn 0.0000 -0.91875(4) -0.5000
Mo1 Mo 0.0000 -0.99928(3) -1.0000
C1 C -0.1951(4) -1.0348(4) -0.5705(9)
H1 H -0.1858 -1.0198 -0.7033
H2 H -0.2252 -0.9736 -0.5149
C2 C -0.2635(4) -1.1275(4) -0.5552(9)
C3 C -0.0518(4) -1.1465(4) -0.5347(9)
H3 H -0.0537 -1.1531 -0.6714
H4 H -0.0847 -1.2068 -0.4823
C4 C -0.2906(6) -1.1622(6) -0.3847(10)
H5 H -0.2684 -1.1290 -0.2750
C5 C -0.3039(6) -1.1725(6) -0.7088(11)
H6 H -0.2918 -1.1457 -0.8284
C6 C -0.3645(5) -1.2600(6) -0.6897(9)
H7 H -0.3857 -1.2945 -0.7989
C7 C -0.3539(5) -1.2508(6) -0.3737(9)
H8 H -0.3684 -1.2778 -0.2553
N1 N -0.1022(3) -1.0499(3) -0.4804(6)
H9 H -0.1140 -1.0570 -0.3549
N2 N -0.3926(3) -1.2957(3) -0.5265(6)
O1 O -0.0213(3) -0.9202(3) -0.7985(5)
O2 O 0.0994(4) -1.0797(4) -0.9524(7)
C1A C 0.1951(4) -1.0348(4) -0.4295(9)
H1A H 0.1858 -1.0198 -0.2967
H2A H 0.2252 -0.9736 -0.4851
C2A C 0.2635(4) -1.1275(4) -0.4448(9)
C3A C 0.0518(4) -1.1465(4) -0.4653(9)
H3A H 0.0537 -1.1531 -0.3286
H4A H 0.0847 -1.2068 -0.5177
C4A C 0.2906(6) -1.1622(6) -0.6153(10)
H5A H 0.2684 -1.1290 -0.7250
C5A C 0.3039(6) -1.1725(6) -0.2912(11)
H6A H 0.2918 -1.1457 -0.1716
C6A C 0.3645(5) -1.2600(6) -0.3103(9)
H7A H 0.3857 -1.2945 -0.2011
C7A C 0.3539(5) -1.2508(6) -0.6263(9)
H8A H 0.3684 -1.2778 -0.7447
N1A N 0.1022(3) -1.0499(3) -0.5196(6)
H9A H 0.1140 -1.0570 -0.6451
N2A N 0.3926(3) -1.2957(3) -0.4735(6)
O1A O 0.0213(3) -0.9202(3) -1.2015(5)
O2A O -0.0994(4) -1.0797(4) -1.0476(7)
Zn1_2 Zn 0.0000 -0.91875(4) -1.5000
Zn1B Zn -0.5000 -1.41875(4) -0.5000
Zn1B_2 Zn 0.5000 -1.41875(4) -0.5000
N2B N 0.1074(3) -0.7957(3) -0.5265(6)
N2C N -0.1074(3) -0.7957(3) -0.4735(6)
O1A_2 O 0.0213(3) -0.9202(3) -0.2015(5)
O3 O 0.0924(12) -1.2993(15) -0.952(3)
O4 O -0.3005(16) -0.952(3) -0.058(4)
loop_
_geom_bond_atom_site_label_1
_geom_bond_atom_site_label_2
_geom_bond_site_symmetry_1
_geom_bond_site_symmetry_2
Zn1 N1 1_555 1_555
Mo1 O1 1_555 1_555
C1 H1 1_555 1_555
H2 C1 1_555 1_555
C2 C1 1_555 1_555
C3 H3 1_555 1_555
H4 C3 1_555 1_555
C4 C2 1_555 1_555
H5 C4 1_555 1_555
C5 C2 1_555 1_555
H6 C5 1_555 1_555
C6 C5 1_555 1_555
H7 C6 1_555 1_555
C7 C4 1_555 1_555
H8 C7 1_555 1_555
N1 C1 1_555 1_555
H9 N1 1_555 1_555
N2 C6 1_555 1_555
O1 Zn1 1_555 1_555
O2 Mo1 1_555 1_555
C1A H1A 1_555 1_555
H2A C1A 1_555 1_555
C2A C1A 1_555 1_555
C3A C3 1_555 1_555
H3A C3A 1_555 1_555
H4A C3A 1_555 1_555
C4A C2A 1_555 1_555
H5A C4A 1_555 1_555
C5A C2A 1_555 1_555
H6A C5A 1_555 1_555
C6A C5A 1_555 1_555
H7A C6A 1_555 1_555
C7A C4A 1_555 1_555
H8A C7A 1_555 1_555
N1A Zn1 1_555 1_555
H9A N1A 1_555 1_555
N2A C6A 1_555 1_555
O1A Mo1 1_555 1_555
O2A Mo1 1_555 1_555
Zn1_2 O1A 1_555 1_555
Zn1B N2 1_555 1_555
Zn1B_2 N2A 1_555 1_555
N2B Zn1 1_555 1_555
N2C Zn1 1_555 1_555
O1A_2 Zn1 1_555 1_555
C3 N1 1_555 1_555
C7 N2 1_555 1_555
C1A N1A 1_555 1_555
C3A N1A 1_555 1_555
C7A N2A 1_555 1_555

#END
