
#######################################################################
#
#                 Cambridge Crystallographic Data Centre
#                                CCDC 
#
#######################################################################
#
# If this CIF has been generated from an entry in the Cambridge 
# Structural Database, then it will include bibliographic, chemical, 
# crystal, experimental, refinement or atomic coordinate data resulting 
# from the CCDC's data processing and validation procedures.
#
#######################################################################

data_ZOMNUM
_symmetry_cell_setting           monoclinic
_symmetry_space_group_name_H-M   'C 2'
_symmetry_Int_Tables_number      5
_space_group_name_Hall           'C 2y'
loop_
_symmetry_equiv_pos_site_id
_symmetry_equiv_pos_as_xyz
1 x,y,z
2 -x,y,-z
3 1/2+x,1/2+y,z
4 1/2-x,1/2+y,-z
_cell_length_a                   13.85(3)
_cell_length_b                   12.77(2)
_cell_length_c                   6.939(14)
_cell_angle_alpha                90
_cell_angle_beta                 91.45(3)
_cell_angle_gamma                90
_cell_volume                     1226.87
loop_
_atom_site_label
_atom_site_type_symbol
_atom_site_fract_x
_atom_site_fract_y
_atom_site_fract_z
Zn1 Zn 0.0000 -0.11503(4) -0.5000
Cr1 Cr 0.0000 -0.19036(11) -1.0000
C1 C -0.0528(5) -0.3408(5) -0.5376(10)
H1 H -0.0544 -0.3450 -0.6772
H2 H -0.0861 -0.4016 -0.4880
C2 C -0.1968(5) -0.2290(6) -0.5776(11)
H3 H -0.1855 -0.2163 -0.7130
H4 H -0.2273 -0.1670 -0.5261
C3 C -0.2649(5) -0.3198(5) -0.5610(9)
C4 C -0.3026(7) -0.3713(7) -0.7184(11)
H5 H -0.2873 -0.3487 -0.8414
C5 C -0.3638(6) -0.4573(7) -0.6974(11)
H6 H -0.3857 -0.4919 -0.8082
C6 C -0.3548(7) -0.4453(7) -0.3766(11)
H7 H -0.3691 -0.4714 -0.2554
C7 C -0.2939(7) -0.3572(8) -0.3866(11)
H8 H -0.2731 -0.3241 -0.2736
N1 N -0.1026(4) -0.2445(4) -0.4763(8)
H9 H -0.1149 -0.2521 -0.3488
N2 N -0.3926(4) -0.4926(4) -0.5280(8)
O1 O -0.0225(3) -0.1167(4) -0.8102(5)
O2 O -0.0944(5) -0.2655(5) -1.0477(7)
C1A C 0.0528(5) -0.3408(5) -0.4624(10)
H1A H 0.0544 -0.3450 -0.3228
H2A H 0.0861 -0.4016 -0.5120
C2A C 0.1968(5) -0.2290(6) -0.4224(11)
H3A H 0.1855 -0.2163 -0.2870
H4A H 0.2273 -0.1670 -0.4739
C3A C 0.2649(5) -0.3198(5) -0.4390(9)
C4A C 0.3026(7) -0.3713(7) -0.2816(11)
H5A H 0.2873 -0.3487 -0.1586
C5A C 0.3638(6) -0.4573(7) -0.3026(11)
H6A H 0.3857 -0.4919 -0.1918
C6A C 0.3548(7) -0.4453(7) -0.6234(11)
H7A H 0.3691 -0.4714 -0.7446
C7A C 0.2939(7) -0.3572(8) -0.6134(11)
H8A H 0.2731 -0.3241 -0.7264
N1A N 0.1026(4) -0.2445(4) -0.5237(8)
H9A H 0.1149 -0.2521 -0.6512
N2A N 0.3926(4) -0.4926(4) -0.4720(8)
O1A O 0.0225(3) -0.1167(4) -1.1898(5)
O2A O 0.0944(5) -0.2655(5) -0.9523(7)
Zn1_2 Zn 0.0000 -0.11503(4) -1.5000
Zn1B Zn -0.5000 -0.61503(4) -0.5000
Zn1B_2 Zn 0.5000 -0.61503(4) -0.5000
N2B N 0.1074(4) 0.0074(4) -0.5280(8)
N2C N -0.1074(4) 0.0074(4) -0.4720(8)
O1A_2 O 0.0225(3) -0.1167(4) -0.1898(5)
O3 O -0.0854(13) -0.4857(15) -1.044(3)
O4 O -0.2901(11) -0.1429(18) -1.075(2)
O5 O -0.0017(17) -0.616(3) -0.719(4)
loop_
_geom_bond_atom_site_label_1
_geom_bond_atom_site_label_2
_geom_bond_site_symmetry_1
_geom_bond_site_symmetry_2
Zn1 N1 1_555 1_555
Cr1 O1 1_555 1_555
C1 H1 1_555 1_555
H2 C1 1_555 1_555
C2 H3 1_555 1_555
H4 C2 1_555 1_555
C3 C2 1_555 1_555
C4 C3 1_555 1_555
H5 C4 1_555 1_555
C5 C4 1_555 1_555
H6 C5 1_555 1_555
C6 H7 1_555 1_555
C7 C3 1_555 1_555
H8 C7 1_555 1_555
N1 C1 1_555 1_555
H9 N1 1_555 1_555
N2 C5 1_555 1_555
O1 Zn1 1_555 1_555
O2 Cr1 1_555 1_555
C1A C1 1_555 1_555
H1A C1A 1_555 1_555
H2A C1A 1_555 1_555
C2A H3A 1_555 1_555
H4A C2A 1_555 1_555
C3A C2A 1_555 1_555
C4A C3A 1_555 1_555
H5A C4A 1_555 1_555
C5A C4A 1_555 1_555
H6A C5A 1_555 1_555
C6A H7A 1_555 1_555
C7A C3A 1_555 1_555
H8A C7A 1_555 1_555
N1A Zn1 1_555 1_555
H9A N1A 1_555 1_555
N2A C5A 1_555 1_555
O1A Cr1 1_555 1_555
O2A Cr1 1_555 1_555
Zn1_2 O1A 1_555 1_555
Zn1B N2 1_555 1_555
Zn1B_2 N2A 1_555 1_555
N2B Zn1 1_555 1_555
N2C Zn1 1_555 1_555
O1A_2 Zn1 1_555 1_555
C2 N1 1_555 1_555
C6 C7 1_555 1_555
C6 N2 1_555 1_555
C1A N1A 1_555 1_555
C2A N1A 1_555 1_555
C6A C7A 1_555 1_555
C6A N2A 1_555 1_555

#END
