
#######################################################################
#
#                 Cambridge Crystallographic Data Centre
#                                CCDC 
#
#######################################################################
#
# If this CIF has been generated from an entry in the Cambridge 
# Structural Database, then it will include bibliographic, chemical, 
# crystal, experimental, refinement or atomic coordinate data resulting 
# from the CCDC's data processing and validation procedures.
#
#######################################################################

data_ZOMPAU
_symmetry_cell_setting           monoclinic
_symmetry_space_group_name_H-M   'P 21/n'
_symmetry_Int_Tables_number      14
_space_group_name_Hall           '-P 2yn'
loop_
_symmetry_equiv_pos_site_id
_symmetry_equiv_pos_as_xyz
1 x,y,z
2 1/2-x,1/2+y,1/2-z
3 -x,-y,-z
4 1/2+x,1/2-y,1/2+z
_cell_length_a                   8.5014(5)
_cell_length_b                   13.1428(7)
_cell_length_c                   9.5296(5)
_cell_angle_alpha                90
_cell_angle_beta                 94.682(2)
_cell_angle_gamma                90
_cell_volume                     1061.21
loop_
_atom_site_label
_atom_site_type_symbol
_atom_site_fract_x
_atom_site_fract_y
_atom_site_fract_z
Eu1 Eu 0.039567(19) 0.231607(15) 0.992416(17)
O1 O -0.3420(3) -0.1371(2) 0.6096(3)
O2 O -0.1711(4) 0.1243(3) 0.8845(4)
H1 H -0.143 0.0699 0.8882
H2 H -0.2633 0.1207 0.9065
O3 O -0.2831(3) -0.2123(2) 0.4165(3)
O4 O 0.3310(3) 0.0108(2) 0.7689(3)
O5 O 0.1493(3) 0.1142(2) 0.8414(2)
O6 O 0.3095(3) 0.2252(2) 1.0984(3)
H3 H 0.3177 0.2096 1.1745
H4 H 0.3827 0.2059 1.0539
O7 O 0.1488(3) 0.3150(2) 0.8031(2)
H5 H 0.16 0.3735 0.7814
H6 H 0.1841 0.2874 0.7407
C1 C 0.0922(4) 0.0267(3) 0.6246(3)
C2 C -0.2535(4) -0.1474(3) 0.5105(4)
C3 C -0.0245(4) -0.0491(3) 0.6258(3)
O8 O -0.0376(3) -0.2057(2) 0.7481(3)
O9 O 0.1121(4) 0.3986(2) 1.1026(3)
H7 H 0.1919 0.3978 1.1765
C4 C -0.1177(4) -0.0744(3) 0.5029(3)
C5 C 0.1983(4) 0.0523(3) 0.7567(3)
O10 O -0.0500(4) -0.0670(2) 0.8728(3)
C6 C -0.0402(4) -0.1111(3) 0.7563(3)
O4B O -0.3310(3) -0.0108(2) 0.2311(3)
O5B O -0.1493(3) -0.1142(2) 0.1586(2)
C1B C -0.0922(4) -0.0267(3) 0.3754(3)
C3B C 0.0245(4) 0.0491(3) 0.3742(3)
C4B C 0.1177(4) 0.0744(3) 0.4971(3)
C5B C -0.1983(4) -0.0523(3) 0.2433(3)
O1B O 0.3420(3) 0.1371(2) 0.3904(3)
O3B O 0.2831(3) 0.2123(2) 0.5835(3)
C2B C 0.2535(4) 0.1474(3) 0.4895(4)
O8B O 0.0376(3) 0.2057(2) 0.2519(3)
O10B O 0.0500(4) 0.0670(2) 0.1272(3)
C6B C 0.0402(4) 0.1111(3) 0.2437(3)
Eu1B Eu -0.039567(19) -0.231607(15) 0.007584(17)
O2B O 0.1711(4) -0.1243(3) 0.1155(4)
H1B H 0.143 -0.0699 0.1118
H2B H 0.2633 -0.1207 0.0935
O6B O -0.3095(3) -0.2252(2) -0.0984(3)
H3B H -0.3177 -0.2096 -0.1745
H4B H -0.3827 -0.2059 -0.0539
O7B O -0.1488(3) -0.3150(2) 0.1969(2)
H5B H -0.16 -0.3735 0.2186
H6B H -0.1841 -0.2874 0.2593
O9B O -0.1121(4) -0.3986(2) -0.1026(3)
H7B H -0.1919 -0.3978 -0.1765
Eu1_2 Eu 0.039567(19) 0.231607(15) -0.007584(17)
Eu1A Eu -0.539567(19) -0.268393(15) 0.507584(17)
Eu1B_2 Eu -0.039567(19) -0.231607(15) 1.007584(17)
Eu1C Eu 0.539567(19) 0.268393(15) 0.492416(17)
O1A O -0.1580(3) 0.3629(2) 0.8904(3)
O1C O 0.1580(3) -0.3629(2) 0.1096(3)
O3A O -0.2169(3) 0.2877(2) 1.0835(3)
O3C O 0.2169(3) -0.2877(2) -0.0835(3)
O8_2 O -0.0376(3) -0.2057(2) -0.2519(3)
O8B_2 O 0.0376(3) 0.2057(2) 1.2519(3)
O10_2 O -0.0500(4) -0.0670(2) -0.1272(3)
O10B_2 O 0.0500(4) 0.0670(2) 1.1272(3)
O11 O 0.5191(3) 0.1360(3) 0.9401(3)
loop_
_geom_bond_atom_site_label_1
_geom_bond_atom_site_label_2
_geom_bond_site_symmetry_1
_geom_bond_site_symmetry_2
Eu1 O2 1_555 1_555
O1 C2 1_555 1_555
O2 H1 1_555 1_555
H2 O2 1_555 1_555
O3 C2 1_555 1_555
O4 C5 1_555 1_555
O5 Eu1 1_555 1_555
O6 Eu1 1_555 1_555
H3 O6 1_555 1_555
H4 O6 1_555 1_555
O7 Eu1 1_555 1_555
H5 O7 1_555 1_555
H6 O7 1_555 1_555
C1 C3 1_555 1_555
C2 C4 1_555 1_555
C3 C4 1_555 1_555
O8 C6 1_555 1_555
O9 Eu1 1_555 1_555
H7 O9 1_555 1_555
C4 C1B 1_555 1_555
C5 O5 1_555 1_555
O10 C6 1_555 1_555
C6 C3 1_555 1_555
O4B C5B 1_555 1_555
O5B C5B 1_555 1_555
C1B C3B 1_555 1_555
C3B C4B 1_555 1_555
C4B C1 1_555 1_555
C5B C1B 1_555 1_555
O1B C2B 1_555 1_555
O3B C2B 1_555 1_555
C2B C4B 1_555 1_555
O8B C6B 1_555 1_555
O10B C6B 1_555 1_555
C6B C3B 1_555 1_555
Eu1B O5B 1_555 1_555
O2B Eu1B 1_555 1_555
H1B O2B 1_555 1_555
H2B O2B 1_555 1_555
O6B Eu1B 1_555 1_555
H3B O6B 1_555 1_555
H4B O6B 1_555 1_555
O7B Eu1B 1_555 1_555
H5B O7B 1_555 1_555
H6B O7B 1_555 1_555
O9B Eu1B 1_555 1_555
H7B O9B 1_555 1_555
Eu1_2 O8B 1_555 1_555
Eu1A O1 1_555 1_555
Eu1B_2 O8 1_555 1_555
Eu1C O1B 1_555 1_555
O1A Eu1 1_555 1_555
O1C Eu1B 1_555 1_555
O3A Eu1 1_555 1_555
O3C Eu1B 1_555 1_555
O8_2 Eu1B 1_555 1_555
O8B_2 Eu1 1_555 1_555
O10_2 Eu1B 1_555 1_555
O10B_2 Eu1 1_555 1_555
O3 Eu1A 1_555 1_555
C1 C5 1_555 1_555
O10 Eu1B_2 1_555 1_555
O3B Eu1C 1_555 1_555
O10B Eu1_2 1_555 1_555

#END
