
#######################################################################
#
#                 Cambridge Crystallographic Data Centre
#                                CCDC 
#
#######################################################################
#
# If this CIF has been generated from an entry in the Cambridge 
# Structural Database, then it will include bibliographic, chemical, 
# crystal, experimental, refinement or atomic coordinate data resulting 
# from the CCDC's data processing and validation procedures.
#
#######################################################################

data_ZOMROK
_symmetry_cell_setting           monoclinic
_symmetry_space_group_name_H-M   'P 21/c'
_symmetry_Int_Tables_number      14
_space_group_name_Hall           '-P 2ybc'
loop_
_symmetry_equiv_pos_site_id
_symmetry_equiv_pos_as_xyz
1 x,y,z
2 -x,1/2+y,1/2-z
3 -x,-y,-z
4 x,1/2-y,1/2+z
_cell_length_a                   26.0429(13)
_cell_length_b                   15.7911(8)
_cell_length_c                   17.7486(9)
_cell_angle_alpha                90
_cell_angle_beta                 107.0400(10)
_cell_angle_gamma                90
_cell_volume                     6978.62
loop_
_atom_site_label
_atom_site_type_symbol
_atom_site_fract_x
_atom_site_fract_y
_atom_site_fract_z
Cd1 Cd 1.009349(9) 0.982461(14) 0.856401(13)
Cd2 Cd 0.658947(9) 0.527012(14) 0.693205(13)
Cd3 Cd 0.673536(9) 0.488818(14) 0.996039(13)
N1 N 1.26698(10) 0.54238(16) 0.88166(15)
N2 N 1.22082(10) 0.62618(16) 0.78448(15)
N3 N 1.13723(10) 0.90678(16) 0.74654(15)
N4 N 1.07538(10) 0.97220(15) 0.79080(15)
N5 N 1.18965(13) 0.77316(19) 0.61660(17)
N6 N 0.94508(10) 0.94438(17) 0.74214(15)
N7 N 0.89372(10) 0.86664(16) 0.64435(15)
N8 N 0.85601(13) 0.72437(19) 0.47345(17)
N9 N 0.79416(10) 0.59946(16) 0.59820(15)
N10 N 0.73004(10) 0.54046(16) 0.64189(15)
N11 N 0.60216(10) 0.47215(16) 1.04757(16)
N12 N 0.53584(10) 0.40755(16) 1.08161(15)
N13 N 0.44416(10) 0.13377(16) 1.03354(15)
N14 N 0.39911(10) 0.05533(16) 0.93122(15)
N15 N 0.47725(12) 0.27549(18) 1.20477(16)
O1 O 0.97545(9) 0.88394(14) 0.93246(13)
O2 O 1.03800(11) 0.82853(16) 0.88862(16)
O3 O 1.04507(9) 0.91160(14) 1.09698(13)
O4 O 0.98163(11) 0.86483(15) 1.14515(16)
O5 O 0.65408(11) 0.68207(15) 0.70855(14)
O6 O 0.70599(9) 0.61010(13) 0.80722(13)
O7 O 0.63309(9) 0.60750(14) 0.90847(14)
O8 O 0.70116(11) 0.63489(16) 1.01117(16)
O9 O 0.63185(12) 0.38315(15) 0.68104(15)
O10 O 0.70220(10) 0.40610(14) 0.78267(14)
O11 O 0.62851(9) 0.40384(13) 0.88247(13)
O12 O 0.67744(11) 0.32846(16) 0.98104(14)
O13 O 1.06747(9) 1.00733(14) 0.98395(13)
H1 H 1.0678 1.0598 0.9941
H2 H 1.0567 0.9796 1.0173
O14 O 0.59719(9) 0.52533(14) 0.76774(13)
H3 H 0.5819 0.4773 0.7629
H4 H 0.6137 0.5345 0.8158
O15 O 0.73591(8) 0.48978(14) 0.92272(13)
H5 H 0.7444 0.5406 0.9163
H6 H 0.7220 0.4666 0.8784
C1 C 1.25604(12) 0.6206(2) 0.85805(18)
H7 H 1.2708 0.6675 0.8884
C2 C 1.23693(12) 0.49191(19) 0.81934(18)
C3 C 1.20745(13) 0.5440(2) 0.75840(19)
C4 C 1.23208(14) 0.4045(2) 0.8121(2)
H8 H 1.2515 0.3687 0.8519
C5 C 1.17109(13) 0.5124(2) 0.6907(2)
H9 H 1.1507 0.5480 0.6515
C6 C 1.19733(15) 0.3730(2) 0.7436(2)
H10 H 1.1941 0.3146 0.7366
C7 C 1.16680(14) 0.4262(2) 0.6843(2)
H11 H 1.1431 0.4025 0.6396
C8 C 1.20279(13) 0.7017(2) 0.73946(18)
C9 C 1.18049(12) 0.76790(19) 0.76956(19)
H12 H 1.1777 0.7663 0.8206
C10 C 1.16252(13) 0.8367(2) 0.72113(19)
C11 C 1.16663(14) 0.8355(2) 0.6450(2)
H13 H 1.1525 0.8808 0.6120
C12 C 1.20805(15) 0.7074(2) 0.6643(2)
H14 H 1.2251 0.6636 0.6462
C13 C 1.10037(12) 0.9008(2) 0.78772(18)
H15 H 1.0937 0.8510 0.8112
C14 C 1.09625(12) 1.03017(19) 0.74759(18)
C15 C 1.13544(12) 0.99069(19) 0.72086(18)
C16 C 1.08236(13) 1.1142(2) 0.72767(19)
H16 H 1.0553 1.1409 0.7431
C17 C 1.16539(13) 1.0346(2) 0.68055(19)
H17 H 1.1932 1.0088 0.6663
C18 C 1.11037(14) 1.1562(2) 0.6841(2)
H18 H 1.1012 1.2118 0.6686
C19 C 1.15223(14) 1.1172(2) 0.6628(2)
H19 H 1.1715 1.1484 0.6358
C20 C 1.00976(14) 0.8278(2) 0.93431(19)
C21 C 1.01443(14) 0.8537(2) 1.10608(19)
C22 C 1.01669(12) 0.76801(19) 1.07077(19)
C23 C 1.01707(12) 0.75658(19) 0.99253(19)
C24 C 1.01979(13) 0.6975(2) 1.1184(2)
H20 H 1.0187 0.7048 1.1699
C25 C 1.02225(14) 0.6750(2) 0.9663(2)
H21 H 1.0228 0.6668 0.9146
C26 C 1.02449(14) 0.6170(2) 1.0913(2)
H22 H 1.0262 0.5705 1.1241
C27 C 1.02658(14) 0.6061(2) 1.0154(2)
H23 H 1.0309 0.5521 0.9972
C28 C 0.93082(12) 0.8679(2) 0.71647(18)
H24 H 0.9446 0.8193 0.7447
C29 C 0.88305(12) 0.9511(2) 0.62195(18)
C30 C 0.91551(12) 0.9986(2) 0.68381(18)
C31 C 0.84704(14) 0.9884(2) 0.5570(2)
H25 H 0.8247 0.9561 0.5168
C32 C 0.91415(14) 1.0868(2) 0.6807(2)
H26 H 0.9359 1.1194 0.7212
C33 C 0.84597(14) 1.0751(2) 0.5548(2)
H27 H 0.8225 1.1023 0.5119
C34 C 0.87940(14) 1.1235(2) 0.6153(2)
H28 H 0.8781 1.1822 0.6113
C35 C 0.87169(13) 0.79438(19) 0.59695(19)
C36 C 0.84472(12) 0.73210(19) 0.62512(19)
H29 H 0.8410 0.7350 0.6756
C37 C 0.82359(12) 0.66534(19) 0.57510(19)
C38 C 0.82897(14) 0.6651(2) 0.4994(2)
H30 H 0.8130 0.6215 0.4654
C39 C 0.87726(14) 0.7877(2) 0.5223(2)
H31 H 0.8967 0.8292 0.5053
C40 C 0.75683(12) 0.6096(2) 0.63776(18)
H32 H 0.7510 0.6608 0.6597
C41 C 0.75048(12) 0.47896(19) 0.60204(18)
C42 C 0.79072(12) 0.51429(19) 0.57474(18)
C43 C 0.73508(14) 0.3951(2) 0.5858(2)
H33 H 0.7075 0.3716 0.6024
C44 C 0.81937(14) 0.4659(2) 0.5353(2)
H34 H 0.8473 0.4889 0.5192
C45 C 0.76202(15) 0.3480(2) 0.5441(2)
H35 H 0.7519 0.2922 0.5308
C46 C 0.80447(14) 0.3831(2) 0.5214(2)
H36 H 0.8233 0.3489 0.4959
C47 C 0.68012(13) 0.67566(19) 0.77961(19)
C48 C 0.68048(12) 0.74951(19) 0.83361(18)
C49 C 0.68570(13) 0.8301(2) 0.8060(2)
H37 H 0.6868 0.8369 0.7545
C50 C 0.68928(15) 0.9004(2) 0.8534(2)
H38 H 0.6936 0.9540 0.8344
C51 C 0.68642(14) 0.8907(2) 0.9292(2)
H39 H 0.6876 0.9379 0.9609
C52 C 0.68178(13) 0.8106(2) 0.9579(2)
H40 H 0.6810 0.8044 1.0096
C53 C 0.67832(12) 0.73948(19) 0.91103(18)
C54 C 0.67036(14) 0.6551(2) 0.9450(2)
C55 C 0.66370(14) 0.3613(2) 0.7458(2)
C56 C 0.65489(12) 0.27571(19) 0.77755(18)
C57 C 0.65080(14) 0.2056(2) 0.7290(2)
H41 H 0.6521 0.2130 0.6776
C58 C 0.64477(14) 0.1248(2) 0.7556(2)
H42 H 0.6427 0.0783 0.7228
C59 C 0.64192(15) 0.1142(2) 0.8311(2)
H43 H 0.6368 0.0605 0.8489
C60 C 0.64668(13) 0.1829(2) 0.8802(2)
H44 H 0.6460 0.1746 0.9318
C61 C 0.65252(12) 0.26423(19) 0.85466(18)
C62 C 0.65297(13) 0.3368(2) 0.90939(19)
C63 C 0.57645(13) 0.4013(2) 1.04769(19)
H45 H 0.5850 0.3512 1.0266
C64 C 0.57751(12) 0.53123(19) 1.08495(18)
C65 C 0.53537(13) 0.49194(19) 1.10506(19)
C66 C 0.50216(14) 0.5363(2) 1.1395(2)
H46 H 0.4728 0.5108 1.1499
C67 C 0.59039(14) 0.6157(2) 1.1050(2)
H47 H 0.6191 0.6420 1.0934
C68 C 0.55881(15) 0.6584(2) 1.1426(2)
H48 H 0.5671 0.7141 1.1585
C69 C 0.51460(15) 0.6194(2) 1.1574(2)
H49 H 0.4929 0.6511 1.1802
C70 C 0.50798(12) 0.33881(19) 1.10382(19)
C71 C 0.48878(12) 0.27187(19) 1.05327(19)
H50 H 0.4926 0.2706 1.0028
C72 C 0.50223(14) 0.3371(2) 1.1790(2)
H51 H 0.5166 0.3815 1.2131
C73 C 0.46363(12) 0.20682(19) 1.08094(18)
C74 C 0.45780(14) 0.2112(2) 1.1557(2)
H52 H 0.4397 0.1678 1.1726
C75 C 0.41148(12) 0.13195(19) 0.95822(18)
H53 H 0.3991 0.1805 0.9288
C76 C 0.45405(12) 0.0495(2) 1.05716(18)
C77 C 0.42553(12) 0.00135(19) 0.99276(18)
C78 C 0.42822(13) -0.0868(2) 0.99607(19)
H54 H 0.4094 -0.1202 0.9538
C79 C 0.46016(13) -0.1223(2) 1.0650(2)
H55 H 0.4619 -0.1810 1.0696
C80 C 0.48991(13) -0.0732(2) 1.12797(19)
H56 H 0.5118 -0.0998 1.1726
C81 C 0.48753(13) 0.0136(2) 1.1255(2)
H57 H 0.5073 0.0467 1.1673
Cd1B Cd 0.990651(9) 1.017539(14) 1.143599(13)
Cd2A Cd 0.341053(9) 0.027012(14) 0.806795(13)
Cd3B Cd 1.326464(9) 0.511182(14) 1.003961(13)
N1B N 0.73302(10) 0.45762(16) 1.11834(15)
N14A N 0.60089(10) 0.55533(16) 0.56878(15)
O3B O 0.95493(9) 1.08840(14) 0.90302(13)
O4B O 1.01837(11) 1.13517(15) 0.85485(16)
loop_
_geom_bond_atom_site_label_1
_geom_bond_atom_site_label_2
_geom_bond_site_symmetry_1
_geom_bond_site_symmetry_2
Cd1 N4 1_555 1_555
Cd2 N10 1_555 1_555
Cd3 N11 1_555 1_555
N1 C1 1_555 1_555
N2 C1 1_555 1_555
N3 C10 1_555 1_555
N4 C13 1_555 1_555
N5 C11 1_555 1_555
N6 Cd1 1_555 1_555
N7 C28 1_555 1_555
N8 C38 1_555 1_555
N9 C37 1_555 1_555
N10 C40 1_555 1_555
N11 C63 1_555 1_555
N12 C63 1_555 1_555
N13 C73 1_555 1_555
N14 C75 1_555 1_555
N15 C72 1_555 1_555
O1 Cd1 1_555 1_555
O2 Cd1 1_555 1_555
O3 C21 1_555 1_555
O4 C21 1_555 1_555
O5 Cd2 1_555 1_555
O6 Cd2 1_555 1_555
O7 Cd3 1_555 1_555
O8 Cd3 1_555 1_555
O9 Cd2 1_555 1_555
O10 Cd2 1_555 1_555
O11 Cd3 1_555 1_555
O12 Cd3 1_555 1_555
O13 Cd1 1_555 1_555
H1 O13 1_555 1_555
H2 O13 1_555 1_555
O14 Cd2 1_555 1_555
H3 O14 1_555 1_555
H4 O14 1_555 1_555
O15 Cd3 1_555 1_555
H5 O15 1_555 1_555
H6 O15 1_555 1_555
C1 H7 1_555 1_555
C2 N1 1_555 1_555
C3 N2 1_555 1_555
C4 C2 1_555 1_555
H8 C4 1_555 1_555
C5 C3 1_555 1_555
H9 C5 1_555 1_555
C6 C4 1_555 1_555
H10 C6 1_555 1_555
C7 C5 1_555 1_555
H11 C7 1_555 1_555
C8 N2 1_555 1_555
C9 C8 1_555 1_555
H12 C9 1_555 1_555
C10 C9 1_555 1_555
C11 C10 1_555 1_555
H13 C11 1_555 1_555
C12 N5 1_555 1_555
H14 C12 1_555 1_555
C13 N3 1_555 1_555
H15 C13 1_555 1_555
C14 N4 1_555 1_555
C15 N3 1_555 1_555
C16 C14 1_555 1_555
H16 C16 1_555 1_555
C17 C15 1_555 1_555
H17 C17 1_555 1_555
C18 C16 1_555 1_555
H18 C18 1_555 1_555
C19 C17 1_555 1_555
H19 C19 1_555 1_555
C20 O1 1_555 1_555
C21 C22 1_555 1_555
C22 C23 1_555 1_555
C23 C20 1_555 1_555
C24 C22 1_555 1_555
H20 C24 1_555 1_555
C25 C23 1_555 1_555
H21 C25 1_555 1_555
C26 C24 1_555 1_555
H22 C26 1_555 1_555
C27 C25 1_555 1_555
H23 C27 1_555 1_555
C28 N6 1_555 1_555
H24 C28 1_555 1_555
C29 N7 1_555 1_555
C30 N6 1_555 1_555
C31 C29 1_555 1_555
H25 C31 1_555 1_555
C32 C30 1_555 1_555
H26 C32 1_555 1_555
C33 C31 1_555 1_555
H27 C33 1_555 1_555
C34 C32 1_555 1_555
H28 C34 1_555 1_555
C35 N7 1_555 1_555
C36 C35 1_555 1_555
H29 C36 1_555 1_555
C37 C36 1_555 1_555
C38 C37 1_555 1_555
H30 C38 1_555 1_555
C39 N8 1_555 1_555
H31 C39 1_555 1_555
C40 N9 1_555 1_555
H32 C40 1_555 1_555
C41 N10 1_555 1_555
C42 N9 1_555 1_555
C43 C41 1_555 1_555
H33 C43 1_555 1_555
C44 C42 1_555 1_555
H34 C44 1_555 1_555
C45 C43 1_555 1_555
H35 C45 1_555 1_555
C46 C44 1_555 1_555
H36 C46 1_555 1_555
C47 O5 1_555 1_555
C48 C47 1_555 1_555
C49 C48 1_555 1_555
H37 C49 1_555 1_555
C50 C49 1_555 1_555
H38 C50 1_555 1_555
C51 C50 1_555 1_555
H39 C51 1_555 1_555
C52 C51 1_555 1_555
H40 C52 1_555 1_555
C53 C48 1_555 1_555
C54 O7 1_555 1_555
C55 O9 1_555 1_555
C56 C55 1_555 1_555
C57 C56 1_555 1_555
H41 C57 1_555 1_555
C58 C57 1_555 1_555
H42 C58 1_555 1_555
C59 C58 1_555 1_555
H43 C59 1_555 1_555
C60 C59 1_555 1_555
H44 C60 1_555 1_555
C61 C56 1_555 1_555
C62 O11 1_555 1_555
C63 H45 1_555 1_555
C64 N11 1_555 1_555
C65 N12 1_555 1_555
C66 C65 1_555 1_555
H46 C66 1_555 1_555
C67 C64 1_555 1_555
H47 C67 1_555 1_555
C68 C67 1_555 1_555
H48 C68 1_555 1_555
C69 C66 1_555 1_555
H49 C69 1_555 1_555
C70 N12 1_555 1_555
C71 C70 1_555 1_555
H50 C71 1_555 1_555
C72 C70 1_555 1_555
H51 C72 1_555 1_555
C73 C71 1_555 1_555
C74 N15 1_555 1_555
H52 C74 1_555 1_555
C75 N13 1_555 1_555
H53 C75 1_555 1_555
C76 N13 1_555 1_555
C77 N14 1_555 1_555
C78 C77 1_555 1_555
H54 C78 1_555 1_555
C79 C78 1_555 1_555
H55 C79 1_555 1_555
C80 C79 1_555 1_555
H56 C80 1_555 1_555
C81 C76 1_555 1_555
H57 C81 1_555 1_555
Cd1B O3 1_555 1_555
Cd2A N14 1_555 1_555
Cd3B N1 1_555 1_555
N1B Cd3 1_555 1_555
N14A Cd2 1_555 1_555
O3B Cd1 1_555 1_555
O4B Cd1 1_555 1_555
O2 C20 1_555 1_555
O4 Cd1B 1_555 1_555
O6 C47 1_555 1_555
O8 C54 1_555 1_555
O10 C55 1_555 1_555
O12 C62 1_555 1_555
C2 C3 1_555 1_555
C6 C7 1_555 1_555
C8 C12 1_555 1_555
C14 C15 1_555 1_555
C18 C19 1_555 1_555
C26 C27 1_555 1_555
C29 C30 1_555 1_555
C33 C34 1_555 1_555
C35 C39 1_555 1_555
C41 C42 1_555 1_555
C45 C46 1_555 1_555
C52 C53 1_555 1_555
C53 C54 1_555 1_555
C60 C61 1_555 1_555
C61 C62 1_555 1_555
C64 C65 1_555 1_555
C68 C69 1_555 1_555
C73 C74 1_555 1_555
C76 C77 1_555 1_555
C80 C81 1_555 1_555

#END
