
#######################################################################
#
#                 Cambridge Crystallographic Data Centre
#                                CCDC 
#
#######################################################################
#
# If this CIF has been generated from an entry in the Cambridge 
# Structural Database, then it will include bibliographic, chemical, 
# crystal, experimental, refinement or atomic coordinate data resulting 
# from the CCDC's data processing and validation procedures.
#
#######################################################################

data_ZOMSUR
_symmetry_cell_setting           triclinic
_symmetry_space_group_name_H-M   'P -1'
_symmetry_Int_Tables_number      2
_space_group_name_Hall           '-P 1'
loop_
_symmetry_equiv_pos_site_id
_symmetry_equiv_pos_as_xyz
1 x,y,z
2 -x,-y,-z
_cell_length_a                   14.8533(7)
_cell_length_b                   15.2753(7)
_cell_length_c                   15.5992(7)
_cell_angle_alpha                92.2220(10)
_cell_angle_beta                 108.6170(10)
_cell_angle_gamma                106.8500(10)
_cell_volume                     3176.26
loop_
_atom_site_label
_atom_site_type_symbol
_atom_site_fract_x
_atom_site_fract_y
_atom_site_fract_z
Cd1 Cd 0.0000 0.5000 0.0000
Cd2 Cd 0.23372(5) 0.15790(4) 0.07876(4)
Cd3 Cd 0.45350(6) 0.59007(5) 0.52907(5)
Mo1 Mo 0.23660(5) 0.45566(4) -0.02103(5)
Mo2 Mo -0.07753(5) 0.33525(4) 0.16619(4)
Mo3 Mo 0.27626(5) 0.52808(4) 0.14617(5)
Mo4 Mo 0.09484(5) 0.45987(4) 0.25443(4)
Mo5 Mo -0.13041(4) 0.23394(4) -0.05973(4)
Mo6 Mo 0.00289(5) 0.28442(4) -0.13837(4)
P1 P 0.11059(13) 0.30796(12) 0.09533(12)
P2 P 0.21906(16) 0.25044(15) -0.12043(15)
P3 P -0.17508(16) 0.10581(13) 0.09946(15)
P4 P 0.31948(18) 0.43697(17) 0.33796(16)
O1 O -0.0570(4) 0.3566(3) -0.0804(4)
O2 O 0.1595(4) 0.4009(3) 0.1608(4)
O3 O -0.0027(4) 0.2772(3) 0.0790(3)
O4 O 0.1923(4) 0.5697(4) 0.2168(4)
O5 O 0.1256(4) 0.3263(3) 0.0030(4)
O6 O -0.0463(4) 0.1712(4) -0.0928(4)
O7 O 0.1656(4) 0.5205(4) 0.0320(4)
O8 O 0.1065(4) 0.4141(4) -0.1380(4)
O9 O -0.2374(4) 0.2076(4) -0.1486(4)
O10 O 0.0085(4) 0.5459(3) -0.1357(4)
O11 O -0.1742(4) 0.3057(4) 0.0297(4)
O12 O -0.1752(5) 0.1220(4) 0.0042(4)
O13 O 0.1602(4) 0.2396(4) 0.1385(4)
O14 O 0.0378(4) 0.3320(4) 0.2669(4)
O15 O 0.3533(5) 0.4962(5) 0.2700(4)
O16 O 0.3237(4) 0.4396(4) 0.0952(4)
O17 O -0.1374(5) 0.1946(4) 0.1658(4)
O18 O 0.1064(4) 0.2278(4) -0.1575(4)
O19 O -0.0670(5) 0.2701(4) -0.2495(4)
O20 O 0.2271(5) 0.4536(4) 0.3502(4)
O21 O 0.0653(5) 0.5211(4) 0.3262(4)
O22 O 0.3798(5) 0.2906(5) 0.1515(5)
O23 O 0.0710(5) 0.0614(4) -0.0256(4)
O24 O 0.3585(5) 0.6315(4) 0.1528(5)
O25 O 0.3084(5) 0.5420(4) -0.0575(5)
O26 O 0.4050(5) 0.4566(5) 0.4281(4)
O27 O -0.1525(5) 0.3655(4) 0.2139(4)
O28 O -0.2838(5) 0.0517(4) 0.0947(5)
O29 O 0.2719(5) 0.3529(4) -0.0810(5)
O30 O 0.2520(6) 0.2329(5) -0.2037(5)
O31 O -0.1142(5) 0.0426(5) 0.1388(5)
O32 O 0.2534(5) 0.1901(5) -0.0506(5)
O33 O 0.2952(6) 0.3318(5) 0.3057(5)
O34 O 0.5230(9) 0.7088(8) 0.6502(7)
O35 O 0.3580(11) 0.5084(9) 0.6060(10)
N1 N 0.3565(6) 0.0816(5) 0.1191(5)
N2 N 0.2005(6) 0.0583(5) 0.1825(5)
N3 N 0.3347(7) 0.6678(6) 0.4615(6)
N4 N 0.5737(6) 0.1354(7) 0.0392(8)
N5 N 0.4125(6) -0.0187(6) 0.2033(6)
N6 N 0.4735(7) 0.0161(6) 0.1552(7)
N7 N 0.5095(8) 0.6814(7) 0.4267(7)
N8 N 0.4497(9) 0.1897(9) 0.0027(10)
N9 N 0.1947(9) 0.5705(9) 0.5604(8)
N10 N 0.3052(9) 0.7760(9) 0.3742(9)
N11 N 0.2340(9) 0.7456(10) 0.4105(10)
N12 N 0.5150(11) 0.2369(10) -0.0363(13)
N13 N 0.1069(10) 0.6715(12) 0.5122(10)
N14 N 0.0706(14) 0.6190(17) 0.5665(15)
N15 N 0.5610(11) 0.7912(9) 0.3001(10)
N16 N 0.1684(9) -0.0604(6) 0.3068(7)
C1 C 0.3443(7) 0.0221(5) 0.1788(6)
C2 C 0.2616(7) 0.0082(6) 0.2147(6)
C3 C 0.4394(7) 0.0765(6) 0.1065(7)
C4 C 0.3633(9) 0.7254(7) 0.4067(7)
C5 C 0.2470(8) -0.0509(6) 0.2768(6)
H1 H 0.2908 -0.0844 0.2984
C6 C 0.4881(8) 0.1331(7) 0.0499(8)
C7 C 0.1237(9) 0.0482(8) 0.2128(8)
H2 H 0.0791 0.0810 0.1919
C8 C 0.4525(9) 0.7323(7) 0.3839(7)
C9 C 0.1853(9) 0.6428(10) 0.5111(8)
C10 C 0.2501(9) 0.6814(9) 0.4629(8)
C11 C 0.1114(11) -0.0129(9) 0.2769(9)
H3 H 0.0585 -0.0185 0.2981
C12 C 0.5873(10) 0.2022(9) -0.0130(11)
H4 H 0.6432 0.2215 -0.0308
C13 C 0.4794(12) 0.7864(9) 0.3197(9)
H5 H 0.4385 0.8200 0.2899
C14 C 0.5926(13) 0.6861(10) 0.4079(11)
H6 H 0.6345 0.6534 0.4376
C15 C 0.1175(11) 0.5588(14) 0.5915(10)
H7 H 0.0999 0.5134 0.6266
C16 C 0.6163(17) 0.7422(13) 0.3413(16)
H8 H 0.6729 0.7437 0.3271
Cd2A Cd -0.23372(5) 0.84210(4) -0.07876(4)
Cd3A Cd -0.45350(6) 0.40993(5) -0.52907(5)
Mo1A Mo -0.23660(5) 0.54434(4) 0.02103(5)
Mo2A Mo 0.07753(5) 0.66475(4) -0.16619(4)
Mo3A Mo -0.27626(5) 0.47192(4) -0.14617(5)
Mo4A Mo -0.09484(5) 0.54013(4) -0.25443(4)
Mo5A Mo 0.13041(4) 0.76606(4) 0.05973(4)
Mo6A Mo -0.00289(5) 0.71558(4) 0.13837(4)
P1A P -0.11059(13) 0.69204(12) -0.09533(12)
P2A P -0.21906(16) 0.74956(15) 0.12043(15)
P3A P 0.17508(16) 0.89419(13) -0.09946(15)
P4A P -0.31948(18) 0.56303(17) -0.33796(16)
O1A O 0.0570(4) 0.6434(3) 0.0804(4)
O2A O -0.1595(4) 0.5991(3) -0.1608(4)
O3A O 0.0027(4) 0.7228(3) -0.0790(3)
O4A O -0.1923(4) 0.4303(4) -0.2168(4)
O5A O -0.1256(4) 0.6737(3) -0.0030(4)
O6A O 0.0463(4) 0.8288(4) 0.0928(4)
O7A O -0.1656(4) 0.4795(4) -0.0320(4)
O8A O -0.1065(4) 0.5859(4) 0.1380(4)
O9A O 0.2374(4) 0.7924(4) 0.1486(4)
O10A O -0.0085(4) 0.4541(3) 0.1357(4)
O11A O 0.1742(4) 0.6943(4) -0.0297(4)
O12A O 0.1752(5) 0.8780(4) -0.0042(4)
O13A O -0.1602(4) 0.7604(4) -0.1385(4)
O14A O -0.0378(4) 0.6680(4) -0.2669(4)
O15A O -0.3533(5) 0.5038(5) -0.2700(4)
O16A O -0.3237(4) 0.5604(4) -0.0952(4)
O17A O 0.1374(5) 0.8054(4) -0.1658(4)
O18A O -0.1064(4) 0.7722(4) 0.1575(4)
O19A O 0.0670(5) 0.7299(4) 0.2495(4)
O20A O -0.2271(5) 0.5464(4) -0.3502(4)
O21A O -0.0653(5) 0.4789(4) -0.3262(4)
O22A O -0.3798(5) 0.7094(5) -0.1515(5)
O23A O -0.0710(5) 0.9386(4) 0.0256(4)
O24A O -0.3585(5) 0.3685(4) -0.1528(5)
O25A O -0.3084(5) 0.4580(4) 0.0575(5)
O26A O -0.4050(5) 0.5434(5) -0.4281(4)
O27A O 0.1525(5) 0.6345(4) -0.2139(4)
O28A O 0.2838(5) 0.9483(4) -0.0947(5)
O29A O -0.2719(5) 0.6471(4) 0.0810(5)
O30A O -0.2520(6) 0.7671(5) 0.2037(5)
O31A O 0.1142(5) 0.9574(5) -0.1388(5)
O32A O -0.2534(5) 0.8099(5) 0.0506(5)
O33A O -0.2952(6) 0.6682(5) -0.3057(5)
O34A O -0.5230(9) 0.2912(8) -0.6502(7)
O35A O -0.3580(11) 0.4916(9) -0.6060(10)
N1A N -0.3565(6) 0.9184(5) -0.1191(5)
N2A N -0.2005(6) 0.9417(5) -0.1825(5)
N3A N -0.3347(7) 0.3322(6) -0.4615(6)
N4A N -0.5737(6) 0.8646(7) -0.0392(8)
N5A N -0.4125(6) 1.0187(6) -0.2033(6)
N6A N -0.4735(7) 0.9839(6) -0.1552(7)
N7A N -0.5095(8) 0.3186(7) -0.4267(7)
N8A N -0.4497(9) 0.8103(9) -0.0027(10)
N9A N -0.1947(9) 0.4295(9) -0.5604(8)
N10A N -0.3052(9) 0.2240(9) -0.3742(9)
N11A N -0.2340(9) 0.2544(10) -0.4105(10)
N12A N -0.5150(11) 0.7631(10) 0.0363(13)
N13A N -0.1069(10) 0.3285(12) -0.5122(10)
N14A N -0.0706(14) 0.3810(17) -0.5665(15)
N15A N -0.5610(11) 0.2088(9) -0.3001(10)
N16A N -0.1684(9) 1.0604(6) -0.3068(7)
C1A C -0.3443(7) 0.9779(5) -0.1788(6)
C2A C -0.2616(7) 0.9918(6) -0.2147(6)
C3A C -0.4394(7) 0.9235(6) -0.1065(7)
C4A C -0.3633(9) 0.2746(7) -0.4067(7)
C5A C -0.2470(8) 1.0509(6) -0.2768(6)
H1A H -0.2908 1.0844 -0.2984
C6A C -0.4881(8) 0.8669(7) -0.0499(8)
C7A C -0.1237(9) 0.9518(8) -0.2128(8)
H2A H -0.0791 0.9190 -0.1919
C8A C -0.4525(9) 0.2677(7) -0.3839(7)
C9A C -0.1853(9) 0.3572(10) -0.5111(8)
C10A C -0.2501(9) 0.3186(9) -0.4629(8)
C11A C -0.1114(11) 1.0129(9) -0.2769(9)
H3A H -0.0585 1.0185 -0.2981
C12A C -0.5873(10) 0.7978(9) 0.0130(11)
H4A H -0.6432 0.7785 0.0308
C13A C -0.4794(12) 0.2136(9) -0.3197(9)
H5A H -0.4385 0.1800 -0.2899
C14A C -0.5926(13) 0.3139(10) -0.4079(11)
H6A H -0.6345 0.3466 -0.4376
C15A C -0.1175(11) 0.4412(14) -0.5915(10)
H7A H -0.0999 0.4866 -0.6266
C16A C -0.6163(17) 0.2578(13) -0.3413(16)
H8A H -0.6729 0.2563 -0.3271
Cd3_2 Cd -0.54650(6) 0.59007(5) -0.47093(5)
Cd3A_2 Cd 0.54650(6) 0.40993(5) 0.47093(5)
O26_2 O -0.5950(5) 0.4566(5) -0.5719(4)
O26A_2 O 0.5950(5) 0.5434(5) 0.5719(4)
O36 O 0.8868(10) 0.1742(9) 0.5875(9)
H9 H 0.9492 0.2003 0.5992
H10 H 0.8675 0.1997 0.6246
O37 O 0.3887(10) 0.0686(9) 0.8075(11)
H11 H 0.3348 0.0312 0.8097
H12 H 0.4387 0.0585 0.8458
O38 O 0.5289(8) 0.5805(9) 0.0710(10)
H13 H 0.4904 0.5891 0.0208
H14 H 0.5862 0.5867 0.0674
O39 O 0.8612(12) 0.0415(10) 0.4063(14)
H15 H 0.8939 0.0494 0.3698
H16 H 0.9001 0.0408 0.4596
O40 O 0.565(3) 0.460(5) 0.215(3)
H17 H 0.6027 0.4780 0.1836
H18 H 0.5137 0.4777 0.1951
loop_
_geom_bond_atom_site_label_1
_geom_bond_atom_site_label_2
_geom_bond_site_symmetry_1
_geom_bond_site_symmetry_2
Cd1 O1 1_555 1_555
Cd2 O13 1_555 1_555
Cd3 O26 1_555 1_555
Mo1 O5 1_555 1_555
Mo2 O3 1_555 1_555
Mo3 O2 1_555 1_555
Mo4 O2 1_555 1_555
Mo5 O1 1_555 1_555
Mo6 O1 1_555 1_555
P1 O2 1_555 1_555
P2 O18 1_555 1_555
P3 O12 1_555 1_555
P4 O15 1_555 1_555
O3 Mo5 1_555 1_555
O4 Mo3 1_555 1_555
O5 Mo6 1_555 1_555
O6 Mo5 1_555 1_555
O7 Cd1 1_555 1_555
O8 Mo1 1_555 1_555
O9 Mo5 1_555 1_555
O10 Cd1 1_555 1_555
O11 Mo2 1_555 1_555
O12 Mo5 1_555 1_555
O13 P1 1_555 1_555
O14 Mo2 1_555 1_555
O15 Mo3 1_555 1_555
O16 Mo1 1_555 1_555
O17 Mo2 1_555 1_555
O18 Mo6 1_555 1_555
O19 Mo6 1_555 1_555
O20 Mo4 1_555 1_555
O21 Mo4 1_555 1_555
O22 Cd2 1_555 1_555
O23 Cd2 1_555 1_555
O24 Mo3 1_555 1_555
O25 Mo1 1_555 1_555
O26 P4 1_555 1_555
O27 Mo2 1_555 1_555
O28 P3 1_555 1_555
O29 Mo1 1_555 1_555
O30 P2 1_555 1_555
O31 P3 1_555 1_555
O32 Cd2 1_555 1_555
O33 P4 1_555 1_555
O34 Cd3 1_555 1_555
O35 Cd3 1_555 1_555
N1 Cd2 1_555 1_555
N2 Cd2 1_555 1_555
N3 Cd3 1_555 1_555
N4 C6 1_555 1_555
N5 N6 1_555 1_555
N6 C3 1_555 1_555
N7 Cd3 1_555 1_555
N8 N12 1_555 1_555
N9 C9 1_555 1_555
N10 N11 1_555 1_555
N11 C10 1_555 1_555
N12 C12 1_555 1_555
N13 N14 1_555 1_555
N14 C15 1_555 1_555
N15 C13 1_555 1_555
N16 C5 1_555 1_555
C1 N1 1_555 1_555
C2 N2 1_555 1_555
C3 N1 1_555 1_555
C4 N3 1_555 1_555
C5 C2 1_555 1_555
H1 C5 1_555 1_555
C6 N8 1_555 1_555
C7 N2 1_555 1_555
H2 C7 1_555 1_555
C8 N7 1_555 1_555
C9 N13 1_555 1_555
C10 N3 1_555 1_555
C11 N16 1_555 1_555
H3 C11 1_555 1_555
C12 N4 1_555 1_555
H4 C12 1_555 1_555
C13 C8 1_555 1_555
H5 C13 1_555 1_555
C14 N7 1_555 1_555
H6 C14 1_555 1_555
C15 N9 1_555 1_555
H7 C15 1_555 1_555
C16 N15 1_555 1_555
H8 C16 1_555 1_555
O36 H9 1_555 1_555
H10 O36 1_555 1_555
O37 H11 1_555 1_555
H12 O37 1_555 1_555
O38 H13 1_555 1_555
H14 O38 1_555 1_555
O39 H15 1_555 1_555
H16 O39 1_555 1_555
O40 H17 1_555 1_555
H18 O40 1_555 1_555
Cd2A O13A 1_555 1_555
Cd3A O26A 1_555 1_555
Mo1A O5A 1_555 1_555
Mo2A O10 1_555 1_555
Mo3A O2A 1_555 1_555
Mo4A O10 1_555 1_555
Mo5A O1A 1_555 1_555
Mo6A O1A 1_555 1_555
P1A O2A 1_555 1_555
P2A O18A 1_555 1_555
P3A O12A 1_555 1_555
P4A O15A 1_555 1_555
O1A Cd1 1_555 1_555
O2A Mo4A 1_555 1_555
O3A Mo2A 1_555 1_555
O4A Mo3A 1_555 1_555
O5A Mo6A 1_555 1_555
O6A Mo5A 1_555 1_555
O7A Cd1 1_555 1_555
O8A Mo1A 1_555 1_555
O9A Mo5A 1_555 1_555
O10A Cd1 1_555 1_555
O11A Mo2A 1_555 1_555
O12A Mo5A 1_555 1_555
O13A P1A 1_555 1_555
O14A Mo2A 1_555 1_555
O15A Mo3A 1_555 1_555
O16A Mo1A 1_555 1_555
O17A Mo2A 1_555 1_555
O18A Mo6A 1_555 1_555
O19A Mo6A 1_555 1_555
O20A Mo4A 1_555 1_555
O21A Mo4A 1_555 1_555
O22A Cd2A 1_555 1_555
O23A Cd2A 1_555 1_555
O24A Mo3A 1_555 1_555
O25A Mo1A 1_555 1_555
O26A P4A 1_555 1_555
O27A Mo2A 1_555 1_555
O28A P3A 1_555 1_555
O29A Mo1A 1_555 1_555
O30A P2A 1_555 1_555
O31A P3A 1_555 1_555
O32A Cd2A 1_555 1_555
O33A P4A 1_555 1_555
O34A Cd3A 1_555 1_555
O35A Cd3A 1_555 1_555
N1A Cd2A 1_555 1_555
N2A Cd2A 1_555 1_555
N3A Cd3A 1_555 1_555
N4A C6A 1_555 1_555
N5A N6A 1_555 1_555
N6A C3A 1_555 1_555
N7A Cd3A 1_555 1_555
N8A N12A 1_555 1_555
N9A C9A 1_555 1_555
N10A N11A 1_555 1_555
N11A C10A 1_555 1_555
N12A C12A 1_555 1_555
N13A N14A 1_555 1_555
N14A C15A 1_555 1_555
N15A C13A 1_555 1_555
N16A C5A 1_555 1_555
C1A N1A 1_555 1_555
C2A N2A 1_555 1_555
C3A N1A 1_555 1_555
C4A N3A 1_555 1_555
C5A C2A 1_555 1_555
H1A C5A 1_555 1_555
C6A N8A 1_555 1_555
C7A N2A 1_555 1_555
H2A C7A 1_555 1_555
C8A N7A 1_555 1_555
C9A N13A 1_555 1_555
C10A N3A 1_555 1_555
C11A N16A 1_555 1_555
H3A C11A 1_555 1_555
C12A N4A 1_555 1_555
H4A C12A 1_555 1_555
C13A C8A 1_555 1_555
H5A C13A 1_555 1_555
C14A N7A 1_555 1_555
H6A C14A 1_555 1_555
C15A N9A 1_555 1_555
H7A C15A 1_555 1_555
C16A N15A 1_555 1_555
H8A C16A 1_555 1_555
Cd3_2 O26A 1_555 1_555
Cd3A_2 O26 1_555 1_555
O26_2 Cd3A 1_555 1_555
O26A_2 Cd3 1_555 1_555
Mo1 O7 1_555 1_555
Mo2 O10A 1_555 1_555
Mo3 O7 1_555 1_555
Mo3 O16 1_555 1_555
Mo4 O4 1_555 1_555
Mo4 O14 1_555 1_555
Mo4 O10A 1_555 1_555
Mo5 O11 1_555 1_555
Mo6 O6 1_555 1_555
Mo6 O8 1_555 1_555
P1 O3 1_555 1_555
P1 O5 1_555 1_555
P2 O29 1_555 1_555
P2 O32 1_555 1_555
P3 O17 1_555 1_555
P4 O20 1_555 1_555
N5 C1 1_555 1_555
N10 C4 1_555 1_555
C1 C2 1_555 1_555
C3 C6 1_555 1_555
C4 C8 1_555 1_555
C7 C11 1_555 1_555
C9 C10 1_555 1_555
C14 C16 1_555 1_555
Mo1A O7A 1_555 1_555
Mo3A O7A 1_555 1_555
Mo3A O16A 1_555 1_555
Mo4A O4A 1_555 1_555
Mo4A O14A 1_555 1_555
Mo5A O3A 1_555 1_555
Mo5A O11A 1_555 1_555
Mo6A O6A 1_555 1_555
Mo6A O8A 1_555 1_555
P1A O3A 1_555 1_555
P1A O5A 1_555 1_555
P2A O29A 1_555 1_555
P2A O32A 1_555 1_555
P3A O17A 1_555 1_555
P4A O20A 1_555 1_555
N5A C1A 1_555 1_555
N10A C4A 1_555 1_555
C1A C2A 1_555 1_555
C3A C6A 1_555 1_555
C4A C8A 1_555 1_555
C7A C11A 1_555 1_555
C9A C10A 1_555 1_555
C14A C16A 1_555 1_555
Cd3_2 O26_2 1_555 1_555
Cd3A_2 O26A_2 1_555 1_555

#END
