
#######################################################################
#
#                 Cambridge Crystallographic Data Centre
#                                CCDC 
#
#######################################################################
#
# If this CIF has been generated from an entry in the Cambridge 
# Structural Database, then it will include bibliographic, chemical, 
# crystal, experimental, refinement or atomic coordinate data resulting 
# from the CCDC's data processing and validation procedures.
#
#######################################################################

data_ZOMTAY
_symmetry_cell_setting           monoclinic
_symmetry_space_group_name_H-M   'P 21/c'
_symmetry_Int_Tables_number      14
_space_group_name_Hall           '-P 2ybc'
loop_
_symmetry_equiv_pos_site_id
_symmetry_equiv_pos_as_xyz
1 x,y,z
2 -x,1/2+y,1/2-z
3 -x,-y,-z
4 x,1/2-y,1/2+z
_cell_length_a                   13.886(3)
_cell_length_b                   12.328(3)
_cell_length_c                   9.6706(19)
_cell_angle_alpha                90
_cell_angle_beta                 101.69(3)
_cell_angle_gamma                90
_cell_volume                     1621.14
loop_
_atom_site_label
_atom_site_type_symbol
_atom_site_fract_x
_atom_site_fract_y
_atom_site_fract_z
Mn1 Mn 0.27140(2) -0.07864(3) 0.24346(4)
N1 N 0.18601(14) 0.06375(15) 0.1062(2)
N2 N 0.40560(14) 0.01365(16) 0.2222(2)
N3 N 0.31754(14) 0.03025(16) 0.4353(2)
O1 O 0.45816(13) 0.00782(17) 0.11236(19)
H1 H 0.4271 -0.0287 0.0475
N4 N 0.11576(14) -0.07193(16) 0.2696(2)
C1 C 0.44992(16) 0.07675(18) 0.3224(2)
N5 N 0.53375(14) 0.13047(17) 0.3189(2)
H2 H 0.5611 0.1240 0.2471
H3 H 0.5600 0.1713 0.3885
C2 C 0.05638(17) 0.00574(19) 0.2186(3)
O2 O 0.07535(13) -0.13487(16) 0.3652(2)
H4 H 0.1027 -0.1941 0.3755
C3 C 0.2224(2) 0.1283(2) 0.0178(3)
H5 H 0.2873 0.1184 0.0090
C4 C 0.40012(17) 0.08949(18) 0.4440(2)
O3 O 0.27862(17) -0.19022(15) 0.0845(2)
C5 C 0.09161(17) 0.07902(18) 0.1178(3)
C6 C 0.27188(19) 0.0313(2) 0.5450(3)
H6 H 0.2153 -0.0102 0.5393
C7 C 0.3051(2) 0.0909(2) 0.6654(3)
H7 H 0.2723 0.0889 0.7403
N6 N -0.03148(15) 0.02163(19) 0.2537(3)
H8 H -0.0508 -0.0211 0.3130
H9 H -0.0684 0.0745 0.2169
C8 C 0.03263(19) 0.1568(2) 0.0406(3)
H10 H -0.0326 0.1646 0.0489
C9 C 0.43620(19) 0.1539(2) 0.5606(3)
H11 H 0.4918 0.1967 0.5636
C10 C 0.0718(2) 0.2232(2) -0.0495(3)
H12 H 0.0334 0.2767 -0.1017
C11 C 0.3878(2) 0.1533(2) 0.6724(3)
H13 H 0.4113 0.1952 0.7522
C12 C 0.1679(2) 0.2089(2) -0.0606(3)
H14 H 0.1959 0.2529 -0.1201
S1 S 0.27815(4) -0.19075(4) -0.06754(6)
O4 O 0.32019(12) -0.29550(13) -0.10000(17)
O5 O 0.33630(13) -0.10050(14) -0.10220(19)
O6 O 0.17666(12) -0.18425(14) -0.1472(2)
Mn1C Mn 0.27140(2) -0.42136(3) -0.25654(4)
O4C O 0.32019(12) -0.20450(13) 0.40000(17)
loop_
_geom_bond_atom_site_label_1
_geom_bond_atom_site_label_2
_geom_bond_site_symmetry_1
_geom_bond_site_symmetry_2
Mn1 N1 1_555 1_555
N1 C3 1_555 1_555
N2 Mn1 1_555 1_555
N3 Mn1 1_555 1_555
O1 N2 1_555 1_555
H1 O1 1_555 1_555
N4 Mn1 1_555 1_555
C1 N2 1_555 1_555
N5 C1 1_555 1_555
H2 N5 1_555 1_555
H3 N5 1_555 1_555
C2 N4 1_555 1_555
O2 N4 1_555 1_555
H4 O2 1_555 1_555
C3 H5 1_555 1_555
C4 N3 1_555 1_555
O3 Mn1 1_555 1_555
C5 N1 1_555 1_555
C6 N3 1_555 1_555
H6 C6 1_555 1_555
C7 C6 1_555 1_555
H7 C7 1_555 1_555
N6 C2 1_555 1_555
H8 N6 1_555 1_555
H9 N6 1_555 1_555
C8 C5 1_555 1_555
H10 C8 1_555 1_555
C9 C4 1_555 1_555
H11 C9 1_555 1_555
C10 C8 1_555 1_555
H12 C10 1_555 1_555
C11 C7 1_555 1_555
H13 C11 1_555 1_555
C12 C3 1_555 1_555
H14 C12 1_555 1_555
S1 O3 1_555 1_555
O4 S1 1_555 1_555
O5 S1 1_555 1_555
O6 S1 1_555 1_555
Mn1C O4 1_555 1_555
O4C Mn1 1_555 1_555
C1 C4 1_555 1_555
C2 C5 1_555 1_555
C9 C11 1_555 1_555
C10 C12 1_555 1_555

#END
