
#######################################################################
#
#                 Cambridge Crystallographic Data Centre
#                                CCDC 
#
#######################################################################
#
# If this CIF has been generated from an entry in the Cambridge 
# Structural Database, then it will include bibliographic, chemical, 
# crystal, experimental, refinement or atomic coordinate data resulting 
# from the CCDC's data processing and validation procedures.
#
#######################################################################

data_ZOMWUV
_symmetry_cell_setting           hexagonal
_symmetry_space_group_name_H-M   'P 65 2 2'
_symmetry_Int_Tables_number      179
_space_group_name_Hall           "P 65 2' (0,0,1)"
loop_
_symmetry_equiv_pos_site_id
_symmetry_equiv_pos_as_xyz
1 x,y,z
2 x-y,x,5/6+z
3 -y,x-y,2/3+z
4 -x,-y,1/2+z
5 -x+y,-x,1/3+z
6 y,-x+y,1/6+z
7 x-y,-y,-z
8 -x,-x+y,1/3-z
9 y,x,2/3-z
10 -y,-x,1/6-z
11 -x+y,y,1/2-z
12 x,x-y,5/6-z
_cell_length_a                   12.2175(3)
_cell_length_b                   12.2175(3)
_cell_length_c                   51.450(3)
_cell_angle_alpha                90
_cell_angle_beta                 90
_cell_angle_gamma                120
_cell_volume                     6650.9
loop_
_atom_site_label
_atom_site_type_symbol
_atom_site_fract_x
_atom_site_fract_y
_atom_site_fract_z
S1 S 0.5685(5) 0.4015(4) 0.07487(7)
O2 O 0.6321(15) 0.3614(18) 0.0947(3)
C21 C 0.4218(7) 0.3601(10) 0.08759(17)
H26 H 0.3765 0.3828 0.0755
H27 H 0.4323 0.4039 0.1037
H28 H 0.3751 0.2706 0.0906
S1I S 0.5985(4) 0.4315(5) 0.09180(7)
O2I O 0.6386(18) 0.3679(15) 0.0720(3)
C21I C 0.6399(10) 0.5782(7) 0.07908(17)
H26I H 0.6172 0.6235 0.0912
H27I H 0.5961 0.5677 0.0630
H28I H 0.7294 0.6249 0.0761
O3 O -0.2129(9) 0.2129(9) 0.0833
Cd1 Cd 0.14759(2) 0.0000 0.0000
N1 N 0.1592(3) 0.5197(3) 0.07164(6)
C1 C 0.1757(3) 0.4355(3) 0.05642(6)
C2 C 0.1315(3) 0.2284(3) 0.04292(6)
C3 C 0.2734(4) 0.4885(3) 0.03815(7)
H1 H 0.3220 0.5761 0.0372
C4 C 0.1581(4) 0.6720(4) 0.11087(7)
H2 H 0.2392 0.6921 0.1059
C5 C 0.1047(3) 0.3048(3) 0.05836(6)
H3 H 0.0384 0.2681 0.0702
C6 C 0.0538(4) 0.5638(4) 0.10172(8)
C7 C 0.3012(4) 0.4174(3) 0.02146(6)
N2 N 0.0602(3) 0.4735(3) 0.08530(7)
C8 C 0.2283(3) 0.2810(3) 0.02368(6)
N3 N -0.0071(3) -0.0026(3) 0.02811(4)
O1 O 0.2515(2) 0.2096(2) 0.00907(4)
N4 N 0.0283(3) 0.7300(4) 0.13514(6)
C9 C 0.0629(4) 0.0882(3) 0.04922(6)
H4 H 0.1247 0.0679 0.0560
H5 H 0.0035 0.0737 0.0631
C10 C -0.0931(3) 0.0292(3) 0.01353(7)
H6 H -0.0472 0.1211 0.0111
C11 C 0.1392(4) 0.7491(4) 0.12737(7)
H7 H 0.2105 0.8207 0.1336
C12 C 0.4064(4) 0.4806(4) 0.00072(9)
C13 C -0.0719(4) 0.6238(5) 0.12625(9)
H8 H -0.1520 0.6061 0.1315
C14 C -0.0735(4) -0.1305(3) 0.03971(7)
H9 H -0.1237 -0.1911 0.0266
H10 H -0.1273 -0.1326 0.0535
H11 H -0.0126 -0.1509 0.0465
C15 C -0.0633(4) 0.5401(5) 0.10999(9)
H12 H -0.1359 0.4675 0.1045
C16 C 0.4727(6) 0.6236(4) 0.00256(13)
H13 H 0.4111 0.6505 0.0020
H14 H 0.5302 0.6602 -0.0118
H15 H 0.5187 0.6507 0.0186
C17 C 0.5065(4) 0.4414(5) 0.00493(10)
H16 H 0.5467 0.4722 0.0215
H17 H 0.5687 0.4766 -0.0086
H18 H 0.4668 0.3509 0.0046
C18 C 0.3483(5) 0.4426(5) -0.02618(8)
H19 H 0.3084 0.3526 -0.0281
H20 H 0.4132 0.4829 -0.0391
H21 H 0.2865 0.4685 -0.0284
C19 C -0.2171(4) -0.0045(5) 0.02821(11)
H22 H -0.2635 -0.0946 0.0316
H23 H -0.1960 0.0388 0.0448
C20 C -0.2999(5) 0.0314(5) 0.01324(13)
H24 H -0.2569 0.1224 0.0111
H25 H -0.3774 0.0055 0.0228
N1F N -0.3605(4) -0.5197(3) -0.07164(6)
C1F C -0.2598(4) -0.4355(3) -0.05642(6)
C2F C -0.0969(4) -0.2284(3) -0.04292(6)
C3F C -0.2151(5) -0.4885(3) -0.03815(7)
H1F H -0.2541 -0.5761 -0.0372
C4F C -0.5139(6) -0.6720(4) -0.11087(7)
H2F H -0.4529 -0.6921 -0.1059
C5F C -0.2001(4) -0.3048(3) -0.05836(6)
H3F H -0.2297 -0.2681 -0.0702
C6F C -0.5100(6) -0.5638(4) -0.10172(8)
C7F C -0.1162(5) -0.4174(3) -0.02146(6)
N2F N -0.4133(4) -0.4735(3) -0.08530(7)
C8F C -0.0527(4) -0.2810(3) -0.02368(6)
N3F N -0.0045(4) 0.0026(3) -0.02811(4)
O1F O 0.0419(3) -0.2096(2) -0.00907(4)
N4F N -0.7017(5) -0.7300(4) -0.13514(6)
C9F C -0.0253(5) -0.0882(3) -0.04922(6)
H4F H 0.0568 -0.0679 -0.0560
H5F H -0.0702 -0.0737 -0.0631
C10F C -0.1223(4) -0.0292(3) -0.01353(7)
H6F H -0.1683 -0.1211 -0.0111
C11F C -0.6099(6) -0.7491(4) -0.12737(7)
H7F H -0.6102 -0.8207 -0.1336
C12F C -0.0742(6) -0.4806(4) -0.00072(9)
C13F C -0.6957(6) -0.6238(5) -0.12625(9)
H8F H -0.7581 -0.6061 -0.1315
C14F C 0.0570(5) 0.1305(3) -0.03971(7)
H9F H 0.0674 0.1911 -0.0266
H10F H 0.0053 0.1326 -0.0535
H11F H 0.1383 0.1509 -0.0465
C15F C -0.6034(6) -0.5401(5) -0.10999(9)
H12F H -0.6034 -0.4675 -0.1045
C16F C -0.1509(7) -0.6236(4) -0.00256(13)
H13F H -0.2394 -0.6505 -0.0020
H14F H -0.1300 -0.6602 0.0118
H15F H -0.1320 -0.6507 -0.0186
C17F C 0.0651(6) -0.4414(5) -0.00493(10)
H16F H 0.0745 -0.4722 -0.0215
H17F H 0.0921 -0.4766 0.0086
H18F H 0.1159 -0.3509 -0.0046
C18F C -0.0943(7) -0.4426(5) 0.02618(8)
H19F H -0.0442 -0.3526 0.0281
H20F H -0.0697 -0.4829 0.0391
H21F H -0.1820 -0.4685 0.0284
C19F C -0.2126(6) 0.0045(5) -0.02821(11)
H22F H -0.1689 0.0946 -0.0316
H23F H -0.2348 -0.0388 -0.0448
C20F C -0.3313(7) -0.0314(5) -0.01324(13)
H24F H -0.3793 -0.1224 -0.0111
H25F H -0.3829 -0.0055 -0.0228
Cd1A Cd -0.85241(2) -0.85241(2) -0.1667
Cd1E Cd 0.0000 0.85241(2) 0.1667
N4A N 0.2983(5) 0.0283(3) -0.03153(6)
N4I N 0.2700(4) -0.0283(3) 0.03153(6)
loop_
_geom_bond_atom_site_label_1
_geom_bond_atom_site_label_2
_geom_bond_site_symmetry_1
_geom_bond_site_symmetry_2
Cd1 N3 1_555 1_555
N1 C1 1_555 1_555
C1 C3 1_555 1_555
C2 C5 1_555 1_555
C3 H1 1_555 1_555
C4 H2 1_555 1_555
C5 C1 1_555 1_555
H3 C5 1_555 1_555
C6 C4 1_555 1_555
C7 C3 1_555 1_555
N2 N1 1_555 1_555
C8 C2 1_555 1_555
N3 C9 1_555 1_555
O1 Cd1 1_555 1_555
N4 C11 1_555 1_555
C9 C2 1_555 1_555
H4 C9 1_555 1_555
H5 C9 1_555 1_555
C10 N3 1_555 1_555
H6 C10 1_555 1_555
C11 C4 1_555 1_555
H7 C11 1_555 1_555
C12 C7 1_555 1_555
C13 N4 1_555 1_555
H8 C13 1_555 1_555
C14 N3 1_555 1_555
H9 C14 1_555 1_555
H10 C14 1_555 1_555
H11 C14 1_555 1_555
C15 C6 1_555 1_555
H12 C15 1_555 1_555
C16 C12 1_555 1_555
H13 C16 1_555 1_555
H14 C16 1_555 1_555
H15 C16 1_555 1_555
C17 C12 1_555 1_555
H16 C17 1_555 1_555
H17 C17 1_555 1_555
H18 C17 1_555 1_555
C18 C12 1_555 1_555
H19 C18 1_555 1_555
H20 C18 1_555 1_555
H21 C18 1_555 1_555
C19 C10 1_555 1_555
H22 C19 1_555 1_555
H23 C19 1_555 1_555
C20 C19 1_555 1_555
H24 C20 1_555 1_555
H25 C20 1_555 1_555
S1 O2 1_555 1_555
O2 S1I 1_555 1_555
C21 S1 1_555 1_555
H26 C21 1_555 1_555
H27 C21 1_555 1_555
H28 C21 1_555 1_555
N1F C1F 1_555 1_555
C1F C3F 1_555 1_555
C2F C5F 1_555 1_555
C3F H1F 1_555 1_555
C4F H2F 1_555 1_555
C5F C1F 1_555 1_555
H3F C5F 1_555 1_555
C6F C4F 1_555 1_555
C7F C3F 1_555 1_555
N2F N1F 1_555 1_555
C8F C2F 1_555 1_555
N3F Cd1 1_555 1_555
O1F Cd1 1_555 1_555
N4F C11F 1_555 1_555
C9F C2F 1_555 1_555
H4F C9F 1_555 1_555
H5F C9F 1_555 1_555
C10F C10 1_555 1_555
H6F C10F 1_555 1_555
C11F C4F 1_555 1_555
H7F C11F 1_555 1_555
C12F C7F 1_555 1_555
C13F N4F 1_555 1_555
H8F C13F 1_555 1_555
C14F N3F 1_555 1_555
H9F C14F 1_555 1_555
H10F C14F 1_555 1_555
H11F C14F 1_555 1_555
C15F C6F 1_555 1_555
H12F C15F 1_555 1_555
C16F C12F 1_555 1_555
H13F C16F 1_555 1_555
H14F C16F 1_555 1_555
H15F C16F 1_555 1_555
C17F C12F 1_555 1_555
H16F C17F 1_555 1_555
H17F C17F 1_555 1_555
H18F C17F 1_555 1_555
C18F C12F 1_555 1_555
H19F C18F 1_555 1_555
H20F C18F 1_555 1_555
H21F C18F 1_555 1_555
C19F C10F 1_555 1_555
H22F C19F 1_555 1_555
H23F C19F 1_555 1_555
C20F C20 1_555 1_555
H24F C20F 1_555 1_555
H25F C20F 1_555 1_555
Cd1A N4F 1_555 1_555
Cd1E N4 1_555 1_555
N4A Cd1 1_555 1_555
N4I Cd1 1_555 1_555
S1I O2I 1_555 1_555
O2I S1 1_555 1_555
C21I S1I 1_555 1_555
H26I C21I 1_555 1_555
H27I C21I 1_555 1_555
H28I C21I 1_555 1_555
C6 N2 1_555 1_555
C7 C8 1_555 1_555
C8 O1 1_555 1_555
C13 C15 1_555 1_555
C6F N2F 1_555 1_555
C7F C8F 1_555 1_555
C8F O1F 1_555 1_555
N3F C9F 1_555 1_555
N3F C10F 1_555 1_555
C13F C15F 1_555 1_555
C19F C20F 1_555 1_555

#END
