
#######################################################################
#
#                 Cambridge Crystallographic Data Centre
#                                CCDC 
#
#######################################################################
#
# If this CIF has been generated from an entry in the Cambridge 
# Structural Database, then it will include bibliographic, chemical, 
# crystal, experimental, refinement or atomic coordinate data resulting 
# from the CCDC's data processing and validation procedures.
#
#######################################################################

data_ZOMWOP
_symmetry_cell_setting           triclinic
_symmetry_space_group_name_H-M   'P -1'
_symmetry_Int_Tables_number      2
_space_group_name_Hall           '-P 1'
loop_
_symmetry_equiv_pos_site_id
_symmetry_equiv_pos_as_xyz
1 x,y,z
2 -x,-y,-z
_cell_length_a                   7.5052(9)
_cell_length_b                   8.1007(11)
_cell_length_c                   10.7399(13)
_cell_angle_alpha                106.200(5)
_cell_angle_beta                 97.7850(10)
_cell_angle_gamma                104.032(4)
_cell_volume                     593.689
loop_
_atom_site_label
_atom_site_type_symbol
_atom_site_fract_x
_atom_site_fract_y
_atom_site_fract_z
Cd1 Cd 0.83013(2) 0.51658(3) 0.352772(17)
O1 O -0.0739(2) 0.5937(3) 0.13151(18)
O2 O 0.1202(2) 0.6496(3) 0.32165(17)
O3 O 0.9927(3) 0.3290(2) 0.41847(16)
O4 O 0.9420(3) 0.2081(3) 0.2071(2)
O5 O 1.1527(5) 0.1556(4) 0.3352(3)
N1 N 0.5625(3) 0.3643(3) 0.19261(19)
N2 N 0.3108(3) 0.3664(3) 0.0637(2)
H1 H 0.2251 0.4044 0.0294
N3 N 0.6744(3) 0.7274(3) 0.3343(2)
N4 N 0.4302(3) 0.7828(3) 0.23275(19)
N5 N 1.0310(3) 0.2270(3) 0.3172(2)
C1 C 0.4586(3) 0.4656(3) 0.1643(2)
C2 C 0.4769(4) 0.1954(4) 0.1061(2)
H2 H 0.5193 0.0958 0.1027
C3 C 0.3212(4) 0.1940(4) 0.0257(3)
H3 H 0.2379 0.0956 -0.0419
C4 C 0.5168(3) 0.6565(3) 0.2405(2)
C5 C 0.6882(4) 0.9055(4) 0.3884(3)
H4 H 0.7850 0.9890 0.4568
C6 C 0.5391(4) 0.9414(4) 0.3271(3)
H5 H 0.5152 1.0522 0.3453
C7 C 0.2438(3) 0.7550(4) 0.1547(2)
H6 H 0.2351 0.6858 0.0633
H7 H 0.2286 0.8709 0.1558
C8 C 0.0844(3) 0.6574(3) 0.2061(2)
O6 O 0.6300(3) 0.3898(3) 0.4836(2)
H8 H 0.6915 0.3805 0.5510
H9 H 0.5155 0.3700 0.4827
Cd1_2 Cd -0.16987(2) 0.51658(3) 0.352772(17)
Cd1A Cd 1.16987(2) 0.48342(3) 0.647228(17)
O1_2 O 0.9261(2) 0.5937(3) 0.13151(18)
O2_2 O 1.1202(2) 0.6496(3) 0.32165(17)
O3A O 1.0073(3) 0.6710(2) 0.58153(16)
loop_
_geom_bond_atom_site_label_1
_geom_bond_atom_site_label_2
_geom_bond_site_symmetry_1
_geom_bond_site_symmetry_2
Cd1 O3 1_555 1_555
O1 C8 1_555 1_555
O2 C8 1_555 1_555
O3 N5 1_555 1_555
O4 N5 1_555 1_555
O5 N5 1_555 1_555
N1 Cd1 1_555 1_555
N2 H1 1_555 1_555
N3 Cd1 1_555 1_555
N4 C4 1_555 1_555
C1 N1 1_555 1_555
C2 N1 1_555 1_555
H2 C2 1_555 1_555
C3 N2 1_555 1_555
H3 C3 1_555 1_555
C4 N3 1_555 1_555
C5 N3 1_555 1_555
H4 C5 1_555 1_555
C6 N4 1_555 1_555
H5 C6 1_555 1_555
C7 N4 1_555 1_555
H6 C7 1_555 1_555
H7 C7 1_555 1_555
C8 C7 1_555 1_555
O6 Cd1 1_555 1_555
H8 O6 1_555 1_555
H9 O6 1_555 1_555
Cd1_2 O1 1_555 1_555
Cd1A O3 1_555 1_555
O1_2 Cd1 1_555 1_555
O2_2 Cd1 1_555 1_555
O3A Cd1 1_555 1_555
O2 Cd1_2 1_555 1_555
N2 C1 1_555 1_555
C1 C4 1_555 1_555
C2 C3 1_555 1_555
C5 C6 1_555 1_555
Cd1A O3A 1_555 1_555

#END
