
#######################################################################
#
#                 Cambridge Crystallographic Data Centre
#                                CCDC 
#
#######################################################################
#
# If this CIF has been generated from an entry in the Cambridge 
# Structural Database, then it will include bibliographic, chemical, 
# crystal, experimental, refinement or atomic coordinate data resulting 
# from the CCDC's data processing and validation procedures.
#
#######################################################################

data_ZONCOW
_symmetry_cell_setting           monoclinic
_symmetry_space_group_name_H-M   'P 21/c'
_symmetry_Int_Tables_number      14
_space_group_name_Hall           '-P 2ybc'
loop_
_symmetry_equiv_pos_site_id
_symmetry_equiv_pos_as_xyz
1 x,y,z
2 -x,1/2+y,1/2-z
3 -x,-y,-z
4 x,1/2-y,1/2+z
_cell_length_a                   11.0966(10)
_cell_length_b                   14.5651(14)
_cell_length_c                   14.7311(15)
_cell_angle_alpha                90
_cell_angle_beta                 130.022(6)
_cell_angle_gamma                90
_cell_volume                     1823.28
loop_
_atom_site_label
_atom_site_type_symbol
_atom_site_fract_x
_atom_site_fract_y
_atom_site_fract_z
Zn1 Zn 0.68795(3) 0.494646(15) 0.17718(2)
O1 O 0.65979(18) 0.56064(11) 0.05031(14)
O2 O 0.45740(17) 0.60579(11) -0.13143(14)
O3 O 0.5857(3) 0.85221(18) -0.29685(19)
O4 O 0.7526(2) 0.95813(13) -0.17456(17)
O5 O 1.11888(19) 0.92828(11) 0.26228(15)
C1 C 0.5898(2) 0.61749(14) -0.03176(19)
C2 C 0.6794(3) 0.88453(17) -0.1970(2)
C3 C 0.6715(2) 0.70610(14) -0.01363(18)
C4 C 0.6334(3) 0.75489(15) -0.11006(19)
H1 H 0.5543 0.7335 -0.1866
C5 C 0.7131(3) 0.83576(15) -0.0927(2)
C6 C 0.8265(3) 0.86909(15) 0.0214(2)
H2 H 0.8781 0.9238 0.0332
C7 C 0.8635(2) 0.82143(15) 0.11843(19)
C8 C 0.7886(2) 0.73854(15) 0.10085(19)
H3 H 0.8168 0.7048 0.1656
C9 C 0.9034(3) 0.93917(17) 0.2939(2)
C10 C 0.9648(3) 1.0249(2) 0.3451(3)
H4 H 1.0589 1.0441 0.3647
C11 C 0.8863(4) 1.0816(2) 0.3669(3)
H5 H 0.9279 1.1390 0.4010
C12 C 0.7466(4) 1.0540(2) 0.3385(3)
H6 H 0.6942 1.0925 0.3534
C13 C 0.6855(4) 0.9692(3) 0.2880(3)
H7 H 0.5921 0.9501 0.2696
C14 C 0.7614(3) 0.9123(2) 0.2644(3)
H8 H 0.7178 0.8557 0.2286
C15 C 1.1078(3) 0.77709(16) 0.3667(2)
C16 C 1.0597(4) 0.7385(2) 0.4243(3)
H9 H 0.9724 0.7623 0.4120
C17 C 1.1396(4) 0.6652(3) 0.4997(3)
H10 H 1.1066 0.6401 0.5386
C18 C 1.2672(4) 0.6290(3) 0.5179(4)
H11 H 1.3205 0.5794 0.5689
C19 C 1.3170(4) 0.6654(3) 0.4614(4)
H12 H 1.4040 0.6408 0.4741
C20 C 1.2365(4) 0.7398(2) 0.3847(3)
H13 H 1.2694 0.7643 0.3455
P1 P 1.00852(7) 0.87076(4) 0.26354(5)
Zn1A Zn 1.31205(3) 0.994646(15) 0.32282(2)
Zn1B Zn 0.31205(3) 0.505354(15) -0.17718(2)
Zn1C Zn 0.68795(3) 1.005354(15) -0.32282(2)
O2B O 0.54260(17) 0.39421(11) 0.13143(14)
O4C O 0.7526(2) 0.54187(13) 0.32544(17)
O5A O 0.88112(19) 0.42828(11) 0.23772(15)
loop_
_geom_bond_atom_site_label_1
_geom_bond_atom_site_label_2
_geom_bond_site_symmetry_1
_geom_bond_site_symmetry_2
Zn1 O1 1_555 1_555
O1 C1 1_555 1_555
O2 C1 1_555 1_555
O3 C2 1_555 1_555
O4 C2 1_555 1_555
O5 P1 1_555 1_555
C1 C3 1_555 1_555
C2 C5 1_555 1_555
C3 C4 1_555 1_555
C4 H1 1_555 1_555
C5 C4 1_555 1_555
C6 C5 1_555 1_555
H2 C6 1_555 1_555
C7 C6 1_555 1_555
C8 C3 1_555 1_555
H3 C8 1_555 1_555
C9 C10 1_555 1_555
C10 H4 1_555 1_555
C11 C10 1_555 1_555
H5 C11 1_555 1_555
C12 C11 1_555 1_555
H6 C12 1_555 1_555
C13 C12 1_555 1_555
H7 C13 1_555 1_555
C14 C9 1_555 1_555
H8 C14 1_555 1_555
C15 C16 1_555 1_555
C16 H9 1_555 1_555
C17 C16 1_555 1_555
H10 C17 1_555 1_555
C18 C17 1_555 1_555
H11 C18 1_555 1_555
C19 C18 1_555 1_555
H12 C19 1_555 1_555
C20 C15 1_555 1_555
H13 C20 1_555 1_555
P1 C7 1_555 1_555
Zn1A O5 1_555 1_555
Zn1B O2 1_555 1_555
Zn1C O4 1_555 1_555
O2B Zn1 1_555 1_555
O4C Zn1 1_555 1_555
O5A Zn1 1_555 1_555
C7 C8 1_555 1_555
C9 P1 1_555 1_555
C13 C14 1_555 1_555
C15 P1 1_555 1_555
C19 C20 1_555 1_555

#END
