
#######################################################################
#
#                 Cambridge Crystallographic Data Centre
#                                CCDC 
#
#######################################################################
#
# If this CIF has been generated from an entry in the Cambridge 
# Structural Database, then it will include bibliographic, chemical, 
# crystal, experimental, refinement or atomic coordinate data resulting 
# from the CCDC's data processing and validation procedures.
#
#######################################################################

data_ZONCIQ
_symmetry_cell_setting           monoclinic
_symmetry_space_group_name_H-M   'P 2/c'
_symmetry_Int_Tables_number      13
_space_group_name_Hall           '-P 2yc'
loop_
_symmetry_equiv_pos_site_id
_symmetry_equiv_pos_as_xyz
1 x,y,z
2 -x,y,1/2-z
3 -x,-y,-z
4 x,-y,1/2+z
_cell_length_a                   13.899(6)
_cell_length_b                   14.046(6)
_cell_length_c                   12.728(6)
_cell_angle_alpha                90
_cell_angle_beta                 111.444(4)
_cell_angle_gamma                90
_cell_volume                     2312.82
loop_
_atom_site_label
_atom_site_type_symbol
_atom_site_fract_x
_atom_site_fract_y
_atom_site_fract_z
Zn1 Zn -0.5000 0.62105(2) 0.2500
Zn2 Zn 0.0000 0.13699(2) 0.2500
Rb1 Rb -0.5000 0.5000 0.0000
Rb2 Rb 0.0000 1.0000 0.5000
C1 C -0.24216(19) 0.42554(17) 0.5178(2)
H1 H -0.2824 0.4668 0.5417
C2 C -0.1572(2) 1.00641(16) 0.1886(2)
C3 C -0.2603(2) 0.92679(18) 0.0021(2)
H2 H -0.2290 0.9667 -0.0342
C4 C -0.25888(19) 0.42031(16) 0.4034(2)
C5 C -0.34204(19) 0.47728(17) 0.3159(2)
C6 C -0.3988(2) 0.74260(17) 0.1742(2)
C7 C -0.23560(19) 0.93605(17) 0.1174(2)
C8 C -0.3309(2) 0.85906(18) -0.0604(2)
C9 C -0.1980(2) 0.35940(16) 0.3679(2)
H3 H -0.2085 0.3551 0.2916
C10 C -0.1672(2) 0.37108(19) 0.5973(2)
C11 C -0.2822(2) 0.87557(17) 0.1714(2)
H4 H -0.2659 0.8812 0.2488
C12 C -0.37625(19) 0.79982(18) -0.0040(2)
H5 H -0.4236 0.7540 -0.0446
C13 C -0.35228(19) 0.80756(16) 0.1116(2)
C14 C -0.1075(2) 0.31039(18) 0.5595(2)
H6 H -0.0571 0.2728 0.6112
C15 C -0.12203(19) 0.30516(16) 0.4455(2)
C16 C -0.1514(3) 0.3773(3) 0.7208(3)
H7 H -0.0965 0.3352 0.7632
H8 H -0.2140 0.3592 0.7311
H9 H -0.1336 0.4415 0.7467
C17 C -0.0545(2) 0.23949(16) 0.4091(2)
C18 C -0.3552(3) 0.8495(2) -0.1853(2)
H10 H -0.2920 0.8441 -0.1991
H11 H -0.3926 0.9047 -0.2234
H12 H -0.3965 0.7936 -0.2129
O1 O -0.39053(13) 0.53747(12) 0.35424(14)
O2 O -0.11042(13) 1.05803(12) 0.13825(15)
O3 O -0.14125(18) 1.01304(15) 0.28956(17)
O4 O -0.35835(17) 0.46479(16) 0.21561(16)
O5 O -0.07923(16) 0.22927(14) 0.30348(18)
O6 O -0.46387(14) 0.68091(12) 0.11994(16)
O7 O -0.37246(16) 0.75009(15) 0.27861(17)
O8 O 0.02012(16) 0.19992(15) 0.48075(19)
C1A C -0.75784(19) 0.42554(17) -0.0178(2)
H1A H -0.7176 0.4668 -0.0417
C2A C -0.8428(2) 1.00641(16) 0.3114(2)
C3A C -0.7397(2) 0.92679(18) 0.4979(2)
H2A H -0.7710 0.9667 0.5342
C4A C -0.74112(19) 0.42031(16) 0.0966(2)
C5A C -0.65796(19) 0.47728(17) 0.1841(2)
C6A C -0.6012(2) 0.74260(17) 0.3258(2)
C7A C -0.76440(19) 0.93605(17) 0.3826(2)
C8A C -0.6691(2) 0.85906(18) 0.5604(2)
C9A C -0.8020(2) 0.35940(16) 0.1321(2)
H3A H -0.7915 0.3551 0.2084
C10A C -0.8328(2) 0.37108(19) -0.0973(2)
C11A C -0.7178(2) 0.87557(17) 0.3286(2)
H4A H -0.7341 0.8812 0.2512
C12A C -0.62375(19) 0.79982(18) 0.5040(2)
H5A H -0.5764 0.7540 0.5446
C13A C -0.64772(19) 0.80756(16) 0.3884(2)
C14A C -0.8925(2) 0.31039(18) -0.0595(2)
H6A H -0.9429 0.2728 -0.1112
C15A C -0.87797(19) 0.30516(16) 0.0545(2)
C16A C -0.8486(3) 0.3773(3) -0.2208(3)
H7A H -0.9035 0.3352 -0.2632
H8A H -0.7860 0.3592 -0.2311
H9A H -0.8664 0.4415 -0.2467
C17A C -0.9455(2) 0.23949(16) 0.0909(2)
C18A C -0.6448(3) 0.8495(2) 0.6853(2)
H10A H -0.7080 0.8441 0.6991
H11A H -0.6074 0.9047 0.7234
H12A H -0.6035 0.7936 0.7129
O1A O -0.60947(13) 0.53747(12) 0.14576(14)
O2A O -0.88958(13) 1.05803(12) 0.36175(15)
O3A O -0.85875(18) 1.01304(15) 0.21044(17)
O4A O -0.64165(17) 0.46479(16) 0.28439(16)
O5A O -0.92077(16) 0.22927(14) 0.19652(18)
O6A O -0.53613(14) 0.68091(12) 0.38006(16)
O7A O -0.62754(16) 0.75009(15) 0.22139(17)
O8A O -1.02012(16) 0.19992(15) 0.01925(19)
Zn2_2 Zn -1.0000 0.13699(2) 0.2500
Zn2_3 Zn -1.0000 1.13699(2) 0.2500
Zn2_4 Zn 0.0000 1.13699(2) 0.2500
Rb1A Rb -0.5000 0.5000 0.5000
Rb2_2 Rb -1.0000 1.0000 0.5000
Rb2_3 Rb 0.0000 0.0000 0.5000
Rb2A Rb -1.0000 0.0000 0.0000
Rb2A_2 Rb -1.0000 1.0000 0.0000
Rb2A_3 Rb 0.0000 1.0000 0.0000
O1C O -0.39053(13) 0.46253(12) -0.14576(14)
O2_2 O -0.11042(13) 0.05803(12) 0.13825(15)
O2A_2 O 0.11042(13) 0.05803(12) 0.36175(15)
O2A_3 O 0.11042(13) 1.05803(12) 0.36175(15)
O2C O -0.11042(13) 0.94197(12) 0.63825(15)
O3B O 0.14125(18) 0.98696(15) 0.71044(17)
O4B O -0.64165(17) 0.53521(16) -0.21561(16)
O5A_2 O 0.07923(16) 0.22927(14) 0.19652(18)
O6B O -0.53613(14) 0.31909(12) -0.11994(16)
O8_2 O 0.02012(16) 1.19992(15) 0.48075(19)
O8B O -0.02012(16) 0.80008(15) 0.51925(19)
C19 C -0.3044(4) 0.7990(4) 0.5451(4)
H13 H -0.3262 0.8626 0.5201
H14 H -0.2705 0.7985 0.6258
H15 H -0.3635 0.7578 0.5237
C20 C -0.1962(4) 0.6691(3) 0.5276(4)
H16 H -0.1494 0.6505 0.4915
H17 H -0.2540 0.6262 0.5059
H18 H -0.1611 0.6670 0.6081
N1 N -0.2329(3) 0.7658(2) 0.4934(3)
H19 H -0.269(3) 0.763(3) 0.424(4)
H20 H -0.177(4) 0.797(3) 0.518(4)
loop_
_geom_bond_atom_site_label_1
_geom_bond_atom_site_label_2
_geom_bond_site_symmetry_1
_geom_bond_site_symmetry_2
Zn1 O1 1_555 1_555
Zn2 O5 1_555 1_555
Rb1 O4 1_555 1_555
Rb2 O3 1_555 1_555
C1 H1 1_555 1_555
C2 C7 1_555 1_555
C3 H2 1_555 1_555
C4 C1 1_555 1_555
C5 C4 1_555 1_555
C6 C13 1_555 1_555
C7 C3 1_555 1_555
C8 C3 1_555 1_555
C9 C4 1_555 1_555
H3 C9 1_555 1_555
C10 C1 1_555 1_555
C11 C7 1_555 1_555
H4 C11 1_555 1_555
C12 C8 1_555 1_555
H5 C12 1_555 1_555
C13 C11 1_555 1_555
C14 C10 1_555 1_555
H6 C14 1_555 1_555
C15 C9 1_555 1_555
C16 C10 1_555 1_555
H7 C16 1_555 1_555
H8 C16 1_555 1_555
H9 C16 1_555 1_555
C17 C15 1_555 1_555
C18 C8 1_555 1_555
H10 C18 1_555 1_555
H11 C18 1_555 1_555
H12 C18 1_555 1_555
O1 C5 1_555 1_555
O2 C2 1_555 1_555
O3 C2 1_555 1_555
O4 C5 1_555 1_555
O5 C17 1_555 1_555
O6 Zn1 1_555 1_555
O7 Zn1 1_555 1_555
O8 C17 1_555 1_555
C19 H13 1_555 1_555
H14 C19 1_555 1_555
H15 C19 1_555 1_555
C20 H16 1_555 1_555
H17 C20 1_555 1_555
H18 C20 1_555 1_555
N1 C19 1_555 1_555
H19 N1 1_555 1_555
H20 N1 1_555 1_555
C1A H1A 1_555 1_555
C2A C7A 1_555 1_555
C3A H2A 1_555 1_555
C4A C1A 1_555 1_555
C5A C4A 1_555 1_555
C6A C13A 1_555 1_555
C7A C3A 1_555 1_555
C8A C3A 1_555 1_555
C9A C4A 1_555 1_555
H3A C9A 1_555 1_555
C10A C1A 1_555 1_555
C11A C7A 1_555 1_555
H4A C11A 1_555 1_555
C12A C8A 1_555 1_555
H5A C12A 1_555 1_555
C13A C11A 1_555 1_555
C14A C10A 1_555 1_555
H6A C14A 1_555 1_555
C15A C9A 1_555 1_555
C16A C10A 1_555 1_555
H7A C16A 1_555 1_555
H8A C16A 1_555 1_555
H9A C16A 1_555 1_555
C17A C15A 1_555 1_555
C18A C8A 1_555 1_555
H10A C18A 1_555 1_555
H11A C18A 1_555 1_555
H12A C18A 1_555 1_555
O1A Zn1 1_555 1_555
O2A C2A 1_555 1_555
O3A C2A 1_555 1_555
O4A C5A 1_555 1_555
O5A C17A 1_555 1_555
O6A Zn1 1_555 1_555
O7A Zn1 1_555 1_555
O8A C17A 1_555 1_555
Zn2_2 O5A 1_555 1_555
Zn2_3 O2A 1_555 1_555
Zn2_4 O2 1_555 1_555
Rb1A O1 1_555 1_555
Rb2_2 O2A 1_555 1_555
Rb2_3 O8 1_555 1_555
Rb2A O8A 1_555 1_555
Rb2A_2 O3A 1_555 1_555
Rb2A_3 O2 1_555 1_555
O1C Rb1 1_555 1_555
O2_2 Zn2 1_555 1_555
O2A_2 Zn2 1_555 1_555
O2A_3 Rb2 1_555 1_555
O2C Rb2 1_555 1_555
O3B Rb2 1_555 1_555
O4B Rb1 1_555 1_555
O5A_2 Zn2 1_555 1_555
O6B Rb1 1_555 1_555
O8_2 Rb2 1_555 1_555
O8B Rb2 1_555 1_555
Rb1 O6 1_555 1_555
Rb1 O1A 1_555 1_555
C6 O6 1_555 1_555
C6 O7 1_555 1_555
C12 C13 1_555 1_555
C14 C15 1_555 1_555
C20 N1 1_555 1_555
C5A O1A 1_555 1_555
C6A O6A 1_555 1_555
C6A O7A 1_555 1_555
C12A C13A 1_555 1_555
C14A C15A 1_555 1_555
O4A Rb1A 1_555 1_555
O6A Rb1A 1_555 1_555
Zn2_4 O2A_3 1_555 1_555
Rb2_3 O2A_2 1_555 1_555

#END
