
#######################################################################
#
#                 Cambridge Crystallographic Data Centre
#                                CCDC 
#
#######################################################################
#
# If this CIF has been generated from an entry in the Cambridge 
# Structural Database, then it will include bibliographic, chemical, 
# crystal, experimental, refinement or atomic coordinate data resulting 
# from the CCDC's data processing and validation procedures.
#
#######################################################################

data_ZONCUC
_symmetry_cell_setting           monoclinic
_symmetry_space_group_name_H-M   'P 21/c'
_symmetry_Int_Tables_number      14
_space_group_name_Hall           '-P 2ybc'
loop_
_symmetry_equiv_pos_site_id
_symmetry_equiv_pos_as_xyz
1 x,y,z
2 -x,1/2+y,1/2-z
3 -x,-y,-z
4 x,1/2-y,1/2+z
_cell_length_a                   13.3424(7)
_cell_length_b                   7.9051(5)
_cell_length_c                   20.4650(12)
_cell_angle_alpha                90
_cell_angle_beta                 101.935(5)
_cell_angle_gamma                90
_cell_volume                     2111.84
loop_
_atom_site_label
_atom_site_type_symbol
_atom_site_fract_x
_atom_site_fract_y
_atom_site_fract_z
Zn1 Zn 0.49900(2) 0.98779(5) 0.237660(18)
C1 C 0.9518(2) 0.5802(4) 0.36568(16)
C2 C 1.1312(2) 0.5866(4) 0.35866(16)
C3 C 1.0110(2) 0.7804(4) 0.29182(16)
C4 C 0.8290(2) 0.7739(4) 0.29713(16)
H1 H 0.7800 0.6849 0.2999
H2 H 0.8180 0.8114 0.2511
C5 C 0.8119(2) 0.9200(5) 0.34105(18)
H3 H 0.8256 0.8818 0.3871
H4 H 0.8610 1.0082 0.3375
C6 C 0.7065(2) 0.9950(4) 0.32494(16)
C7 C 1.1914(2) 0.7875(4) 0.28474(17)
H5 H 1.1659 0.8277 0.2396
H6 H 1.2436 0.7029 0.2835
C8 C 1.2368(3) 0.9329(5) 0.32884(18)
H7 H 1.2514 0.8943 0.3748
H8 H 1.1858 1.0217 0.3251
C9 C 1.3339(2) 1.0082(4) 0.31344(16)
C10 C 1.0748(2) 0.3935(4) 0.43566(15)
H9 H 1.0317 0.4068 0.4681
H10 H 1.1455 0.4041 0.4591
C11 C 1.0585(3) 0.2194(4) 0.40531(18)
H11 H 0.9857 0.1963 0.3929
H12 H 1.0862 0.2155 0.3651
C12 C 1.1089(3) 0.0870(5) 0.45277(17)
C13 C 0.5357(2) 1.1320(4) 0.10783(16)
H13 H 0.6066 1.1298 0.1216
C14 C 0.3846(3) 1.1711(5) 0.04658(19)
H14 H 0.3312 1.1997 0.0114
C15 C 0.3759(3) 1.1050(5) 0.10577(18)
H15 H 0.3146 1.0797 0.1184
C16 C 0.5319(3) 1.2589(5) -0.00533(19)
H16 H 0.4877 1.2329 -0.0481
H17 H 0.5974 1.2044 -0.0042
C17 C 0.5480(3) 1.4489(5) -0.00021(19)
H18 H 0.5978 1.4734 0.0404
H19 H 0.5770 1.4860 -0.0375
O1 O 0.88253(17) 0.5209(3) 0.38834(13)
O2 O 0.48645(15) 0.7299(3) 0.20680(11)
H20 H 0.5299 0.7112 0.1826
H21 H 0.4304 0.7139 0.1790
O3 O 1.21704(17) 0.5314(3) 0.37488(14)
O4 O 0.99426(17) 0.8973(3) 0.25347(13)
O5 O 0.64390(15) 0.9335(3) 0.27580(11)
O6 O 0.68754(17) 1.1148(3) 0.36024(12)
O7 O 1.36919(16) 0.9412(3) 0.26743(12)
O8 O 1.37010(19) 1.1318(3) 0.34756(12)
O9 O 1.1811(2) 0.1162(4) 0.49678(15)
O10 O 1.0709(2) -0.0648(3) 0.44115(14)
H22 H 1.097(3) -0.141(5) 0.467(2)
N1 N 0.93440(18) 0.7065(3) 0.31800(12)
N2 N 1.05145(18) 0.5287(3) 0.38585(13)
N3 N 1.10692(18) 0.7120(3) 0.31130(13)
N4 N 0.47181(19) 1.0807(3) 0.14454(13)
N5 N 0.4864(2) 1.1881(4) 0.04805(13)
C13B C 0.4643(2) 1.8680(4) -0.10783(16)
H13B H 0.3934 1.8702 -0.1216
C14B C 0.6154(3) 1.8289(5) -0.04658(19)
H14B H 0.6688 1.8003 -0.0114
C15B C 0.6241(3) 1.8950(5) -0.10577(18)
H15B H 0.6854 1.9203 -0.1184
C16B C 0.4681(3) 1.7411(5) 0.00533(19)
H16B H 0.5123 1.7671 0.0481
H17B H 0.4026 1.7956 0.0042
C17B C 0.4520(3) 1.5511(5) 0.00021(19)
H18B H 0.4022 1.5266 -0.0404
H19B H 0.4230 1.5140 0.0375
N4B N 0.52819(19) 1.9193(3) -0.14454(13)
N5B N 0.5136(2) 1.8119(4) -0.04805(13)
Zn1B Zn 0.50100(2) 2.01221(5) -0.237660(18)
C1B C 0.0482(2) 2.4198(4) -0.36568(16)
C2B C -0.1312(2) 2.4134(4) -0.35866(16)
C3B C -0.0110(2) 2.2196(4) -0.29182(16)
C4B C 0.1710(2) 2.2261(4) -0.29713(16)
H1B H 0.2200 2.3151 -0.2999
H2B H 0.1820 2.1886 -0.2511
C5B C 0.1881(2) 2.0800(5) -0.34105(18)
H3B H 0.1744 2.1182 -0.3871
H4B H 0.1390 1.9918 -0.3375
C6B C 0.2935(2) 2.0050(4) -0.32494(16)
C7B C -0.1914(2) 2.2125(4) -0.28474(17)
H5B H -0.1659 2.1723 -0.2396
H6B H -0.2436 2.2971 -0.2835
C8B C -0.2368(3) 2.0671(5) -0.32884(18)
H7B H -0.2514 2.1057 -0.3748
H8B H -0.1858 1.9783 -0.3251
C9B C -0.3339(2) 1.9918(4) -0.31344(16)
C10B C -0.0748(2) 2.6065(4) -0.43566(15)
H9B H -0.0317 2.5932 -0.4681
H10B H -0.1455 2.5959 -0.4591
C11B C -0.0585(3) 2.7806(4) -0.40531(18)
H11B H 0.0143 2.8037 -0.3929
H12B H -0.0862 2.7845 -0.3651
C12B C -0.1089(3) 2.9130(5) -0.45277(17)
O1B O 0.11747(17) 2.4791(3) -0.38834(13)
O2B O 0.51355(15) 2.2701(3) -0.20680(11)
H20B H 0.4701 2.2888 -0.1826
H21B H 0.5696 2.2861 -0.1790
O3B O -0.21704(17) 2.4686(3) -0.37488(14)
O4B O 0.00574(17) 2.1027(3) -0.25347(13)
O5B O 0.35610(15) 2.0665(3) -0.27580(11)
O6B O 0.31246(17) 1.8852(3) -0.36024(12)
O7B O -0.36919(16) 2.0588(3) -0.26743(12)
O8B O -0.37010(19) 1.8682(3) -0.34756(12)
O9B O -0.1811(2) 2.8838(4) -0.49678(15)
O10B O -0.0709(2) 3.0648(3) -0.44115(14)
H22B H -0.097(3) 3.141(5) -0.467(2)
N1B N 0.06560(18) 2.2935(3) -0.31800(12)
N2B N -0.05145(18) 2.4713(3) -0.38585(13)
N3B N -0.10692(18) 2.2880(3) -0.31130(13)
Zn1_2 Zn 1.49900(2) 0.98779(5) 0.237660(18)
Zn1A Zn 0.50100(2) 0.48779(5) 0.262340(18)
Zn1B_2 Zn -0.49900(2) 2.01221(5) -0.237660(18)
Zn1C Zn 0.49900(2) 2.51221(5) -0.262340(18)
O2A O 0.51355(15) 1.2299(3) 0.29320(11)
O2C O 0.48645(15) 1.7701(3) -0.29320(11)
O7_2 O 0.36919(16) 0.9412(3) 0.26743(12)
O7B_2 O 0.63081(16) 2.0588(3) -0.26743(12)
O11 O 1.1830(2) -0.2611(3) 0.53187(13)
H23 H 1.2218 -0.2182 0.5661
H24 H 1.1500 -0.3309 0.5510
loop_
_geom_bond_atom_site_label_1
_geom_bond_atom_site_label_2
_geom_bond_site_symmetry_1
_geom_bond_site_symmetry_2
Zn1 O2 1_555 1_555
C1 O1 1_555 1_555
C2 O3 1_555 1_555
C3 O4 1_555 1_555
C4 H1 1_555 1_555
H2 C4 1_555 1_555
C5 C4 1_555 1_555
H3 C5 1_555 1_555
H4 C5 1_555 1_555
C6 C5 1_555 1_555
C7 H5 1_555 1_555
H6 C7 1_555 1_555
C8 C7 1_555 1_555
H7 C8 1_555 1_555
H8 C8 1_555 1_555
C9 C8 1_555 1_555
C10 H9 1_555 1_555
H10 C10 1_555 1_555
C11 C10 1_555 1_555
H11 C11 1_555 1_555
H12 C11 1_555 1_555
C12 C11 1_555 1_555
C13 H13 1_555 1_555
C14 H14 1_555 1_555
C15 C14 1_555 1_555
H15 C15 1_555 1_555
C16 H16 1_555 1_555
H17 C16 1_555 1_555
C17 C16 1_555 1_555
H18 C17 1_555 1_555
H19 C17 1_555 1_555
O2 H20 1_555 1_555
H21 O2 1_555 1_555
O5 Zn1 1_555 1_555
O6 C6 1_555 1_555
O7 C9 1_555 1_555
O8 C9 1_555 1_555
O9 C12 1_555 1_555
O10 C12 1_555 1_555
H22 O10 1_555 1_555
N1 C1 1_555 1_555
N2 C1 1_555 1_555
N3 C2 1_555 1_555
N4 Zn1 1_555 1_555
N5 C13 1_555 1_555
O11 H23 1_555 1_555
H24 O11 1_555 1_555
C13B H13B 1_555 1_555
C14B H14B 1_555 1_555
C15B C14B 1_555 1_555
H15B C15B 1_555 1_555
C16B H16B 1_555 1_555
H17B C16B 1_555 1_555
C17B C17 1_555 1_555
H18B C17B 1_555 1_555
H19B C17B 1_555 1_555
N4B C13B 1_555 1_555
N5B C13B 1_555 1_555
Zn1B N4B 1_555 1_555
C1B O1B 1_555 1_555
C2B O3B 1_555 1_555
C3B O4B 1_555 1_555
C4B H1B 1_555 1_555
H2B C4B 1_555 1_555
C5B C4B 1_555 1_555
H3B C5B 1_555 1_555
H4B C5B 1_555 1_555
C6B C5B 1_555 1_555
C7B H5B 1_555 1_555
H6B C7B 1_555 1_555
C8B C7B 1_555 1_555
H7B C8B 1_555 1_555
H8B C8B 1_555 1_555
C9B C8B 1_555 1_555
C10B H9B 1_555 1_555
H10B C10B 1_555 1_555
C11B C10B 1_555 1_555
H11B C11B 1_555 1_555
H12B C11B 1_555 1_555
C12B C11B 1_555 1_555
O2B Zn1B 1_555 1_555
H20B O2B 1_555 1_555
H21B O2B 1_555 1_555
O5B Zn1B 1_555 1_555
O6B C6B 1_555 1_555
O7B C9B 1_555 1_555
O8B C9B 1_555 1_555
O9B C12B 1_555 1_555
O10B C12B 1_555 1_555
H22B O10B 1_555 1_555
N1B C1B 1_555 1_555
N2B C1B 1_555 1_555
N3B C2B 1_555 1_555
Zn1_2 O7 1_555 1_555
Zn1A O2 1_555 1_555
Zn1B_2 O7B 1_555 1_555
Zn1C O2B 1_555 1_555
O2A Zn1 1_555 1_555
O2C Zn1B 1_555 1_555
O7_2 Zn1 1_555 1_555
O7B_2 Zn1B 1_555 1_555
C2 N2 1_555 1_555
C3 N1 1_555 1_555
C3 N3 1_555 1_555
C4 N1 1_555 1_555
C6 O5 1_555 1_555
C7 N3 1_555 1_555
C10 N2 1_555 1_555
C13 N4 1_555 1_555
C14 N5 1_555 1_555
C15 N4 1_555 1_555
C16 N5 1_555 1_555
C14B N5B 1_555 1_555
C15B N4B 1_555 1_555
C16B C17B 1_555 1_555
C16B N5B 1_555 1_555
C2B N2B 1_555 1_555
C3B N1B 1_555 1_555
C3B N3B 1_555 1_555
C4B N1B 1_555 1_555
C6B O5B 1_555 1_555
C7B N3B 1_555 1_555
C10B N2B 1_555 1_555

#END
