
#######################################################################
#
#                 Cambridge Crystallographic Data Centre
#                                CCDC 
#
#######################################################################
#
# If this CIF has been generated from an entry in the Cambridge 
# Structural Database, then it will include bibliographic, chemical, 
# crystal, experimental, refinement or atomic coordinate data resulting 
# from the CCDC's data processing and validation procedures.
#
#######################################################################

data_ZONCAI
_symmetry_cell_setting           monoclinic
_symmetry_space_group_name_H-M   'P 2/c'
_symmetry_Int_Tables_number      13
_space_group_name_Hall           '-P 2yc'
loop_
_symmetry_equiv_pos_site_id
_symmetry_equiv_pos_as_xyz
1 x,y,z
2 -x,y,1/2-z
3 -x,-y,-z
4 x,-y,1/2+z
_cell_length_a                   13.8540(18)
_cell_length_b                   13.9532(11)
_cell_length_c                   11.7820(15)
_cell_angle_alpha                90
_cell_angle_beta                 111.079(7)
_cell_angle_gamma                90
_cell_volume                     2125.15
loop_
_atom_site_label
_atom_site_type_symbol
_atom_site_fract_x
_atom_site_fract_y
_atom_site_fract_z
Zn1 Zn -1.0000 0.11436(3) 0.2500
Zn2 Zn -0.5000 -0.38061(2) 0.2500
Na1 Na 0.0000 -1.0000 0.5000
Na2 Na -0.5000 -0.5000 0.0000
O1 O -0.39581(14) -0.46404(14) 0.36663(17)
C1 C -0.34897(18) -0.51610(18) 0.3117(2)
C2 C -0.76348(19) -0.08762(19) 0.4040(2)
O2 O -0.86689(16) -0.03736(16) 0.20390(19)
C3 C -0.26461(19) -0.57895(18) 0.3931(2)
O3 O -0.36927(15) -0.51484(16) 0.20105(18)
C4 C -0.7048(2) -0.15177(19) 0.3644(2)
H1 H -0.7165 -0.1573 0.2818
C5 C -0.74271(19) -0.0793(2) 0.5295(2)
H2 H -0.7813 -0.0365 0.5564
C6 C -0.2388(2) -0.5782(2) 0.5193(2)
H3 H -0.2727 -0.5359 0.5534
C7 C -0.2135(2) -0.6423(2) 0.3414(2)
H4 H -0.2291 -0.6423 0.2578
O4 O -0.58752(16) -0.28588(15) 0.29423(19)
O5 O -0.11292(16) -0.77803(17) 0.2457(2)
C8 C -0.6662(2) -0.1333(2) 0.6145(3)
C9 C -0.6108(2) -0.19910(19) 0.5714(3)
H5 H -0.5611 -0.2378 0.6265
C10 C -0.1159(2) -0.7035(2) 0.5408(3)
H6 H -0.0671 -0.7463 0.5896
C11 C -0.1637(2) -0.6392(2) 0.5950(3)
C12 C -0.6290(2) -0.20746(18) 0.4483(3)
O6 O -0.49614(16) -0.32490(15) 0.4852(2)
C13 C -0.13976(19) -0.70498(19) 0.4149(2)
C14 C -0.6452(3) -0.1238(3) 0.7488(3)
H7 H -0.6899 -0.0758 0.7615
H8 H -0.5744 -0.1055 0.7902
H9 H -0.6580 -0.1841 0.7800
C15 C -0.1387(3) -0.6384(3) 0.7296(3)
H10 H -0.1790 -0.5898 0.7497
H11 H -0.0665 -0.6250 0.7703
H12 H -0.1547 -0.6998 0.7551
C16 C -0.5664(2) -0.27833(18) 0.4084(3)
O7 O -0.89729(14) 0.02544(14) 0.36198(18)
C17 C -0.84906(19) -0.03023(18) 0.3138(2)
O8 O -0.02295(15) -0.83334(15) 0.4267(2)
C18 C -0.0888(2) -0.7766(2) 0.3603(3)
C2A C -1.23652(19) -0.08762(19) 0.0960(2)
O2A O -1.13311(16) -0.03736(16) 0.29610(19)
C4A C -1.2952(2) -0.15177(19) 0.1356(2)
H1A H -1.2835 -0.1573 0.2182
C5A C -1.25729(19) -0.0793(2) -0.0295(2)
H2A H -1.2187 -0.0365 -0.0564
O4A O -1.41248(16) -0.28588(15) 0.20577(19)
C8A C -1.3338(2) -0.1333(2) -0.1145(3)
C9A C -1.3892(2) -0.19910(19) -0.0714(3)
H5A H -1.4389 -0.2378 -0.1265
C12A C -1.3710(2) -0.20746(18) 0.0517(3)
O6A O -1.50386(16) -0.32490(15) 0.0148(2)
C14A C -1.3548(3) -0.1238(3) -0.2488(3)
H7A H -1.3101 -0.0758 -0.2615
H8A H -1.4256 -0.1055 -0.2902
H9A H -1.3420 -0.1841 -0.2800
C16A C -1.4336(2) -0.27833(18) 0.0916(3)
O7A O -1.10271(14) 0.02544(14) 0.13802(18)
C17A C -1.15094(19) -0.03023(18) 0.1862(2)
O1A O -0.60419(14) 0.53596(14) 0.13337(17)
C1A C -0.65103(18) 0.48390(18) 0.1883(2)
C3A C -0.73539(19) 0.42105(18) 0.1069(2)
O3A O -0.63073(15) 0.48516(16) 0.29895(18)
C6A C -0.7612(2) 0.4218(2) -0.0193(2)
H3A H -0.7273 0.4641 -0.0534
C7A C -0.7865(2) 0.3577(2) 0.1586(2)
H4A H -0.7709 0.3577 0.2422
O5A O -0.88708(16) 0.22197(17) 0.2543(2)
C10A C -0.8841(2) 0.2965(2) -0.0408(3)
H6A H -0.9329 0.2537 -0.0896
C11A C -0.8363(2) 0.3608(2) -0.0950(3)
C13A C -0.86024(19) 0.29502(19) 0.0851(2)
C15A C -0.8613(3) 0.3616(3) -0.2296(3)
H10A H -0.8210 0.4102 -0.2497
H11A H -0.9335 0.3750 -0.2703
H12A H -0.8453 0.3002 -0.2551
O8A O -0.97705(15) 0.16666(15) 0.0733(2)
C18A C -0.9112(2) 0.2234(2) 0.1397(3)
Zn1_2 Zn 0.0000 -0.88564(3) 0.2500
Zn2_2 Zn -1.5000 -0.38061(2) 0.2500
Zn2_3 Zn -0.5000 0.61939(2) 0.2500
Na1_2 Na -1.0000 0.0000 0.5000
Na1A Na -1.0000 0.0000 0.0000
Na2_2 Na -1.5000 -0.5000 0.0000
Na2_3 Na -0.5000 0.5000 0.0000
Na2A Na -0.5000 -0.5000 0.5000
Na2A_2 Na -0.5000 0.5000 0.5000
O1A_2 O -0.60419(14) -0.46404(14) 0.13337(17)
O1C O -0.39581(14) -0.53596(14) -0.13337(17)
O2A_2 O -0.13311(16) -1.03736(16) 0.29610(19)
O2C O 0.13311(16) -0.96264(16) 0.70390(19)
O3B O -0.63073(15) -0.48516(16) -0.20105(18)
O4A_2 O -0.41248(16) -0.28588(15) 0.20577(19)
O5_2 O -1.11292(16) 0.22197(17) 0.2457(2)
O6A_2 O -0.50386(16) -0.32490(15) 0.0148(2)
O6C O -0.49614(16) -0.67510(15) -0.0148(2)
O7_2 O 0.10271(14) -0.97456(14) 0.36198(18)
O7B O -0.10271(14) -1.02544(14) 0.63802(18)
O8_2 O -1.02295(15) 0.16666(15) 0.4267(2)
O8B O 0.02295(15) -1.16666(15) 0.5733(2)
N1 N -0.2787(3) -0.7450(2) 0.0290(4)
H13 H -0.2949 -0.7229 0.0879
C19 C -0.3179(4) -0.8335(3) -0.0307(3)
H14 H -0.3634 -0.8619 0.0050
H15 H -0.2614 -0.8763 -0.0218
H16 H -0.3553 -0.8218 -0.1156
C20 C -0.2071(4) -0.6944(4) -0.0198(5)
H17 H -0.1840 -0.6358 0.0244
H18 H -0.2427 -0.6802 -0.1043
H19 H -0.1486 -0.7345 -0.0108
H20 H -0.231(3) -0.7479(10) -0.007(4)
loop_
_geom_bond_atom_site_label_1
_geom_bond_atom_site_label_2
_geom_bond_site_symmetry_1
_geom_bond_site_symmetry_2
Zn1 O7 1_555 1_555
Zn2 O1 1_555 1_555
Na1 O8 1_555 1_555
Na2 O3 1_555 1_555
O1 C1 1_555 1_555
C1 C3 1_555 1_555
C2 C4 1_555 1_555
O2 C17 1_555 1_555
C3 C6 1_555 1_555
O3 C1 1_555 1_555
C4 H1 1_555 1_555
C5 C2 1_555 1_555
H2 C5 1_555 1_555
C6 H3 1_555 1_555
C7 C3 1_555 1_555
H4 C7 1_555 1_555
O4 Zn2 1_555 1_555
O5 C18 1_555 1_555
C8 C5 1_555 1_555
C9 C8 1_555 1_555
H5 C9 1_555 1_555
C10 H6 1_555 1_555
C11 C6 1_555 1_555
C12 C4 1_555 1_555
O6 C16 1_555 1_555
C13 C7 1_555 1_555
C14 C8 1_555 1_555
H7 C14 1_555 1_555
H8 C14 1_555 1_555
H9 C14 1_555 1_555
C15 C11 1_555 1_555
H10 C15 1_555 1_555
H11 C15 1_555 1_555
H12 C15 1_555 1_555
C16 O4 1_555 1_555
O7 C17 1_555 1_555
C17 C2 1_555 1_555
O8 C18 1_555 1_555
C18 C13 1_555 1_555
N1 H13 1_555 1_555
C19 N1 1_555 1_555
H14 C19 1_555 1_555
H15 C19 1_555 1_555
H16 C19 1_555 1_555
C20 N1 1_555 1_555
H17 C20 1_555 1_555
H18 C20 1_555 1_555
H19 C20 1_555 1_555
H20 N1 1_555 1_555
C2A C4A 1_555 1_555
O2A C17A 1_555 1_555
C4A H1A 1_555 1_555
C5A C2A 1_555 1_555
H2A C5A 1_555 1_555
O4A C16A 1_555 1_555
C8A C5A 1_555 1_555
C9A C8A 1_555 1_555
H5A C9A 1_555 1_555
C12A C4A 1_555 1_555
O6A C16A 1_555 1_555
C14A C8A 1_555 1_555
H7A C14A 1_555 1_555
H8A C14A 1_555 1_555
H9A C14A 1_555 1_555
C16A C12A 1_555 1_555
O7A Zn1 1_555 1_555
C17A C2A 1_555 1_555
O1A C1A 1_555 1_555
C1A C3A 1_555 1_555
C3A C6A 1_555 1_555
O3A C1A 1_555 1_555
C6A H3A 1_555 1_555
C7A C3A 1_555 1_555
H4A C7A 1_555 1_555
O5A Zn1 1_555 1_555
C10A H6A 1_555 1_555
C11A C6A 1_555 1_555
C13A C7A 1_555 1_555
C15A C11A 1_555 1_555
H10A C15A 1_555 1_555
H11A C15A 1_555 1_555
H12A C15A 1_555 1_555
O8A Zn1 1_555 1_555
C18A O5A 1_555 1_555
Zn1_2 O5 1_555 1_555
Zn2_2 O4A 1_555 1_555
Zn2_3 O1A 1_555 1_555
Na1_2 O7 1_555 1_555
Na1A O2 1_555 1_555
Na2_2 O6A 1_555 1_555
Na2_3 O1A 1_555 1_555
Na2A O1 1_555 1_555
Na2A_2 O3A 1_555 1_555
O1A_2 Zn2 1_555 1_555
O1C Na2 1_555 1_555
O2A_2 Na1 1_555 1_555
O2C Na1 1_555 1_555
O3B Na2 1_555 1_555
O4A_2 Zn2 1_555 1_555
O5_2 Zn1 1_555 1_555
O6A_2 Na2 1_555 1_555
O6C Na2 1_555 1_555
O7_2 Na1 1_555 1_555
O7B Na1 1_555 1_555
O8_2 Zn1 1_555 1_555
O8B Na1 1_555 1_555
Na2 O1A_2 1_555 1_555
C9 C12 1_555 1_555
C10 C11 1_555 1_555
C10 C13 1_555 1_555
C12 C16 1_555 1_555
O6 Na2A 1_555 1_555
O8 Zn1_2 1_555 1_555
O2A Na1_2 1_555 1_555
C9A C12A 1_555 1_555
O7A C17A 1_555 1_555
O7A Na1A 1_555 1_555
C10A C11A 1_555 1_555
C10A C13A 1_555 1_555
C13A C18A 1_555 1_555
O8A C18A 1_555 1_555
O8A Na1A 1_555 1_555
Zn1_2 O7_2 1_555 1_555
Na1_2 O8_2 1_555 1_555

#END
