
#######################################################################
#
#                 Cambridge Crystallographic Data Centre
#                                CCDC 
#
#######################################################################
#
# If this CIF has been generated from an entry in the Cambridge 
# Structural Database, then it will include bibliographic, chemical, 
# crystal, experimental, refinement or atomic coordinate data resulting 
# from the CCDC's data processing and validation procedures.
#
#######################################################################

data_ZONCEM
_symmetry_cell_setting           monoclinic
_symmetry_space_group_name_H-M   'P 2/c'
_symmetry_Int_Tables_number      13
_space_group_name_Hall           '-P 2yc'
loop_
_symmetry_equiv_pos_site_id
_symmetry_equiv_pos_as_xyz
1 x,y,z
2 -x,y,1/2-z
3 -x,-y,-z
4 x,-y,1/2+z
_cell_length_a                   13.910(2)
_cell_length_b                   14.0109(15)
_cell_length_c                   12.367(2)
_cell_angle_alpha                90
_cell_angle_beta                 111.505(8)
_cell_angle_gamma                90
_cell_volume                     2242.44
loop_
_atom_site_label
_atom_site_type_symbol
_atom_site_fract_x
_atom_site_fract_y
_atom_site_fract_z
Zn1 Zn 0.0000 0.37962(3) 0.7500
Zn2 Zn 0.5000 -0.13116(3) 0.7500
K1 K 0.5000 1.0000 1.0000
K2 K 0.0000 0.5000 0.5000
O1 O 0.10778(13) 0.46564(12) 0.85688(15)
O2 O 0.03074(14) 0.32329(13) 0.60477(18)
O3 O 0.39149(14) -0.05141(13) 0.63525(16)
O4 O 0.41873(16) 0.77612(14) 0.80249(18)
O5 O 0.12143(16) 0.25831(16) 0.77078(18)
C1 C 0.0961(2) 0.26316(18) 0.6623(3)
O6 O 0.51523(16) 0.80808(15) 0.98543(19)
O7 O 0.36347(17) -0.00312(16) 0.79185(18)
O8 O 0.13854(16) 0.53687(16) 0.71159(17)
C2 C 0.4416(2) 0.76645(19) 0.9110(3)
C3 C 0.25609(19) 0.57742(18) 1.0229(2)
H1 H 0.2164 0.5356 1.0476
C4 C 0.3753(2) 0.69990(18) 0.9487(2)
C5 C 0.1198(2) 0.20087(19) 0.4818(2)
H2 H 0.0712 0.2452 0.4383
C6 C 0.15532(19) 0.52524(18) 0.8155(2)
C7 C 0.3900(2) 0.69369(19) 1.0662(2)
H3 H 0.4402 0.7314 1.1195
C8 C 0.1445(2) 0.19618(18) 0.6019(2)
C9 C 0.23863(18) 0.58344(17) 0.9048(2)
C10 C 0.29960(19) 0.64508(18) 0.8686(2)
H4 H 0.2893 0.6494 0.7901
C11 C 0.26480(19) 0.06911(18) 0.6128(2)
C12 C 0.34528(19) 0.00081(18) 0.6870(2)
C13 C 0.1663(2) 0.1407(2) 0.4260(2)
C14 C 0.2392(2) 0.0750(2) 0.4930(2)
H5 H 0.2712 0.0345 0.4570
C15 C 0.3312(2) 0.63230(19) 1.1052(2)
C16 C 0.2162(2) 0.12967(18) 0.6661(2)
H6 H 0.2321 0.1253 0.7459
C17 C 0.3480(3) 0.6242(3) 1.2326(3)
H7 H 0.4022 0.6669 1.2766
H8 H 0.3670 0.5598 1.2582
H9 H 0.2853 0.6407 1.2439
C18 C 0.1425(3) 0.1465(3) 0.2972(3)
H10 H 0.1823 0.0995 0.2755
H11 H 0.1597 0.2089 0.2779
H12 H 0.0702 0.1347 0.2560
O1A O -0.10778(13) 0.46564(12) 0.64312(15)
O2A O -0.03074(14) 0.32329(13) 0.89523(18)
O3A O -0.39149(14) -0.05141(13) 0.86475(16)
O4A O -0.41873(16) 0.77612(14) 0.69751(18)
O5A O -0.12143(16) 0.25831(16) 0.72922(18)
C1A C -0.0961(2) 0.26316(18) 0.8377(3)
O6A O -0.51523(16) 0.80808(15) 0.51457(19)
O7A O -0.36347(17) -0.00312(16) 0.70815(18)
O8A O -0.13854(16) 0.53687(16) 0.78841(17)
C2A C -0.4416(2) 0.76645(19) 0.5890(3)
C3A C -0.25609(19) 0.57742(18) 0.4771(2)
H1A H -0.2164 0.5356 0.4524
C4A C -0.3753(2) 0.69990(18) 0.5513(2)
C5A C -0.1198(2) 0.20087(19) 1.0182(2)
H2A H -0.0712 0.2452 1.0617
C6A C -0.15532(19) 0.52524(18) 0.6845(2)
C7A C -0.3900(2) 0.69369(19) 0.4338(2)
H3A H -0.4402 0.7314 0.3805
C8A C -0.1445(2) 0.19618(18) 0.8981(2)
C9A C -0.23863(18) 0.58344(17) 0.5952(2)
C10A C -0.29960(19) 0.64508(18) 0.6314(2)
H4A H -0.2893 0.6494 0.7099
C11A C -0.26480(19) 0.06911(18) 0.8872(2)
C12A C -0.34528(19) 0.00081(18) 0.8130(2)
C13A C -0.1663(2) 0.1407(2) 1.0740(2)
C14A C -0.2392(2) 0.0750(2) 1.0070(2)
H5A H -0.2712 0.0345 1.0430
C15A C -0.3312(2) 0.63230(19) 0.3948(2)
C16A C -0.2162(2) 0.12967(18) 0.8339(2)
H6A H -0.2321 0.1253 0.7541
C17A C -0.3480(3) 0.6242(3) 0.2674(3)
H7A H -0.4022 0.6669 0.2234
H8A H -0.3670 0.5598 0.2418
H9A H -0.2853 0.6407 0.2561
C18A C -0.1425(3) 0.1465(3) 1.2028(3)
H10A H -0.1823 0.0995 1.2245
H11A H -0.1597 0.2089 1.2221
H12A H -0.0702 0.1347 1.2440
Zn2_2 Zn -0.5000 -0.13116(3) 0.7500
Zn2_3 Zn -0.5000 0.86884(3) 0.7500
Zn2_4 Zn 0.5000 0.86884(3) 0.7500
K1_2 K -0.5000 0.0000 1.0000
K1_3 K 0.5000 0.0000 1.0000
K1A K -0.5000 0.0000 0.5000
K1A_2 K -0.5000 1.0000 0.5000
K1A_3 K 0.5000 0.0000 0.5000
K2A K 0.0000 0.5000 1.0000
O1C O 0.10778(13) 0.53436(12) 0.35688(15)
O2B O -0.03074(14) 0.67671(13) 0.39523(18)
O3A_2 O 0.60851(14) -0.05141(13) 0.86475(16)
O3A_3 O 0.60851(14) 0.94859(13) 0.86475(16)
O3C O 0.39149(14) 1.05141(13) 1.13525(16)
O4_2 O 0.41873(16) -0.22388(14) 0.80249(18)
O4A_2 O 0.58127(16) -0.22388(14) 0.69751(18)
O6B O 0.48477(16) 1.19192(15) 1.01457(19)
O7_2 O 0.36347(17) 0.99688(16) 0.79185(18)
O7B O 0.63653(17) 1.00312(16) 1.20815(18)
O8B O -0.13854(16) 0.46313(16) 0.28841(17)
N1 N 0.2731(2) 0.2381(2) 0.9860(3)
C19 C 0.2022(3) 0.1998(4) 1.0394(4)
H13 H 0.1790 0.1375 1.0084
H14 H 0.1438 0.2415 1.0227
H15 H 0.2376 0.1954 1.1221
C20 C 0.3120(4) 0.3337(3) 1.0277(4)
H16 H 0.3572 0.3549 0.9897
H17 H 0.3493 0.3316 1.1102
H18 H 0.2549 0.3771 1.0107
H19 H 0.227(4) 0.241(3) 0.907(4)
H20 H 0.332(4) 0.195(4) 1.003(4)
loop_
_geom_bond_atom_site_label_1
_geom_bond_atom_site_label_2
_geom_bond_site_symmetry_1
_geom_bond_site_symmetry_2
Zn1 O1 1_555 1_555
Zn2 O3 1_555 1_555
K1 O6 1_555 1_555
K2 O2 1_555 1_555
O1 C6 1_555 1_555
O2 Zn1 1_555 1_555
O3 C12 1_555 1_555
O4 C2 1_555 1_555
O5 Zn1 1_555 1_555
C1 O2 1_555 1_555
O6 C2 1_555 1_555
O7 C12 1_555 1_555
O8 K2 1_555 1_555
C2 C4 1_555 1_555
C3 H1 1_555 1_555
C4 C7 1_555 1_555
C5 H2 1_555 1_555
C6 O8 1_555 1_555
C7 H3 1_555 1_555
C8 C1 1_555 1_555
C9 C3 1_555 1_555
C10 C4 1_555 1_555
H4 C10 1_555 1_555
C11 C12 1_555 1_555
C13 C5 1_555 1_555
C14 C11 1_555 1_555
H5 C14 1_555 1_555
C15 C3 1_555 1_555
C16 C8 1_555 1_555
H6 C16 1_555 1_555
C17 C15 1_555 1_555
H7 C17 1_555 1_555
H8 C17 1_555 1_555
H9 C17 1_555 1_555
C18 C13 1_555 1_555
H10 C18 1_555 1_555
H11 C18 1_555 1_555
H12 C18 1_555 1_555
N1 C19 1_555 1_555
C19 H13 1_555 1_555
H14 C19 1_555 1_555
H15 C19 1_555 1_555
C20 N1 1_555 1_555
H16 C20 1_555 1_555
H17 C20 1_555 1_555
H18 C20 1_555 1_555
H19 N1 1_555 1_555
H20 N1 1_555 1_555
O1A Zn1 1_555 1_555
O2A Zn1 1_555 1_555
O3A C12A 1_555 1_555
O4A C2A 1_555 1_555
O5A Zn1 1_555 1_555
C1A O2A 1_555 1_555
O6A C2A 1_555 1_555
O7A C12A 1_555 1_555
O8A C6A 1_555 1_555
C2A C4A 1_555 1_555
C3A H1A 1_555 1_555
C4A C7A 1_555 1_555
C5A H2A 1_555 1_555
C6A O1A 1_555 1_555
C7A H3A 1_555 1_555
C8A C1A 1_555 1_555
C9A C3A 1_555 1_555
C10A C4A 1_555 1_555
H4A C10A 1_555 1_555
C11A C12A 1_555 1_555
C13A C5A 1_555 1_555
C14A C11A 1_555 1_555
H5A C14A 1_555 1_555
C15A C3A 1_555 1_555
C16A C8A 1_555 1_555
H6A C16A 1_555 1_555
C17A C15A 1_555 1_555
H7A C17A 1_555 1_555
H8A C17A 1_555 1_555
H9A C17A 1_555 1_555
C18A C13A 1_555 1_555
H10A C18A 1_555 1_555
H11A C18A 1_555 1_555
H12A C18A 1_555 1_555
Zn2_2 O3A 1_555 1_555
Zn2_3 O4A 1_555 1_555
Zn2_4 O4 1_555 1_555
K1_2 O3A 1_555 1_555
K1_3 O7 1_555 1_555
K1A O7A 1_555 1_555
K1A_2 O6A 1_555 1_555
K1A_3 O3 1_555 1_555
K2A O1 1_555 1_555
O1C K2 1_555 1_555
O2B K2 1_555 1_555
O3A_2 Zn2 1_555 1_555
O3A_3 K1 1_555 1_555
O3C K1 1_555 1_555
O4_2 Zn2 1_555 1_555
O4A_2 Zn2 1_555 1_555
O6B K1 1_555 1_555
O7_2 K1 1_555 1_555
O7B K1 1_555 1_555
O8B K2 1_555 1_555
K2 O1A 1_555 1_555
O5 C1 1_555 1_555
C5 C8 1_555 1_555
C6 C9 1_555 1_555
C7 C15 1_555 1_555
C9 C10 1_555 1_555
C11 C16 1_555 1_555
C13 C14 1_555 1_555
O2A K2A 1_555 1_555
O5A C1A 1_555 1_555
O8A K2A 1_555 1_555
C5A C8A 1_555 1_555
C6A C9A 1_555 1_555
C7A C15A 1_555 1_555
C9A C10A 1_555 1_555
C11A C16A 1_555 1_555
C13A C14A 1_555 1_555
Zn2_4 O3A_3 1_555 1_555
K1_3 O3A_2 1_555 1_555

#END
