
#######################################################################
#
#                 Cambridge Crystallographic Data Centre
#                                CCDC 
#
#######################################################################
#
# If this CIF has been generated from an entry in the Cambridge 
# Structural Database, then it will include bibliographic, chemical, 
# crystal, experimental, refinement or atomic coordinate data resulting 
# from the CCDC's data processing and validation procedures.
#
#######################################################################

data_ZONFOZ
_symmetry_cell_setting           monoclinic
_symmetry_space_group_name_H-M   'P 21/n'
_symmetry_Int_Tables_number      14
_space_group_name_Hall           '-P 2yn'
loop_
_symmetry_equiv_pos_site_id
_symmetry_equiv_pos_as_xyz
1 x,y,z
2 1/2-x,1/2+y,1/2-z
3 -x,-y,-z
4 1/2+x,1/2-y,1/2+z
_cell_length_a                   9.4033(7)
_cell_length_b                   11.5820(8)
_cell_length_c                   26.5105(11)
_cell_angle_alpha                90
_cell_angle_beta                 94.271(12)
_cell_angle_gamma                90
_cell_volume                     2879.21
loop_
_atom_site_label
_atom_site_type_symbol
_atom_site_fract_x
_atom_site_fract_y
_atom_site_fract_z
Nd1 Nd 1.23821(2) -0.040841(18) 0.000385(8)
O1 O 1.1829(3) 0.0694(2) 0.07657(11)
O2 O 1.3510(3) 0.0954(3) 0.13901(11)
O3 O 1.1405(3) -0.2106(3) 0.04726(11)
O4 O 1.0900(3) 0.3043(3) 0.12765(12)
O5 O 0.5806(3) -0.2916(3) 0.12739(12)
N1 N 0.8274(4) 0.2511(3) 0.14557(13)
N2 N 0.3235(4) -0.2321(3) 0.15200(14)
O6 O 1.4125(3) -0.0976(3) 0.07764(14)
O7 O 1.0921(3) -0.1475(3) -0.06064(13)
O8 O 0.8357(4) -0.0912(3) 0.14821(12)
O9 O 1.4286(3) 0.1009(3) 0.02050(12)
O10 O 0.6979(3) -0.0519(3) 0.07807(11)
O11 O 0.9626(3) -0.0902(2) 0.02961(11)
O12 O 1.6201(3) 0.2097(3) 0.02756(12)
C1 C 1.4051(4) 0.2851(4) 0.05675(15)
C2 C 1.2942(4) 0.2551(4) 0.08682(14)
C3 C 1.2091(4) 0.3425(4) 0.10384(16)
C4 C 1.2326(5) 0.4574(4) 0.09349(17)
H1 H 1.1743 0.5144 0.1056
C5 C 1.3446(5) 0.4865(4) 0.06470(18)
H2 H 1.3627 0.5635 0.0577
C6 C 1.4297(4) 0.4003(4) 0.04635(16)
H3 H 1.5042 0.4202 0.0268
C7 C 1.4916(4) 0.1929(4) 0.03344(14)
C8 C 1.2737(4) 0.1314(4) 0.10241(14)
C9 C 1.0423(4) 0.3556(4) 0.16992(16)
C10 C 1.1203(5) 0.4247(4) 0.20284(17)
H4 H 1.2102 0.4500 0.1953
C11 C 1.0645(5) 0.4580(4) 0.24848(16)
H5 H 1.1184 0.5052 0.2709
C12 C 0.9336(5) 0.4224(4) 0.26037(16)
H6 H 0.8994 0.4444 0.2910
C13 C 0.8495(4) 0.3524(4) 0.22657(16)
C14 C 0.9024(4) 0.3194(4) 0.18014(15)
C15 C 0.7154(5) 0.3057(4) 0.23738(18)
H7 H 0.6780 0.3210 0.2682
C16 C 0.6424(5) 0.2387(4) 0.20239(19)
H8 H 0.5533 0.2096 0.2088
C17 C 0.7011(5) 0.2133(4) 0.15670(18)
H9 H 0.6488 0.1678 0.1331
C18 C 0.9075(4) -0.2756(4) 0.06250(15)
C19 C 0.7932(4) -0.2420(4) 0.09028(15)
C20 C 0.7027(4) -0.3287(4) 0.10479(16)
C21 C 0.7230(5) -0.4436(4) 0.09367(18)
H10 H 0.6608 -0.4995 0.1043
C22 C 0.8367(5) -0.4746(4) 0.06667(18)
H11 H 0.8520 -0.5519 0.0592
C23 C 0.9280(5) -0.3907(4) 0.05073(17)
H12 H 1.0037 -0.4117 0.0320
C24 C 1.0100(4) -0.1869(3) 0.04525(14)
C25 C 0.7756(4) -0.1178(4) 0.10717(15)
C26 C 0.5409(4) -0.3368(4) 0.17173(16)
C27 C 0.6212(5) -0.4041(4) 0.20480(17)
H13 H 0.7107 -0.4292 0.1967
C28 C 0.5694(5) -0.4361(4) 0.25155(17)
H14 H 0.6255 -0.4821 0.2738
C29 C 0.4392(5) -0.4009(4) 0.26451(17)
H15 H 0.4070 -0.4228 0.2955
C30 C 0.3528(4) -0.3314(4) 0.23104(16)
C31 C 0.4043(4) -0.3014(4) 0.18424(15)
C32 C 0.2195(5) -0.2860(4) 0.24209(18)
H16 H 0.1830 -0.3038 0.2728
C33 C 0.1432(5) -0.2164(4) 0.20850(18)
H17 H 0.0553 -0.1869 0.2162
C34 C 0.1980(4) -0.1902(4) 0.16303(17)
H18 H 0.1467 -0.1428 0.1399
H19 H 1.110(5) -0.182(4) -0.0847(18)
H20 H 1.012(6) -0.127(5) -0.067(2)
H21 H 1.501(8) -0.097(6) 0.074(3)
H22 H 1.406(8) -0.049(6) 0.098(3)
H23 H 0.361(5) -0.207(4) 0.1242(18)
Nd1B Nd 0.76179(2) 0.040841(18) -0.000385(8)
Nd1B_2 Nd 1.76179(2) 0.040841(18) -0.000385(8)
O10B O 1.3021(3) 0.0519(3) -0.07807(11)
O11B O 1.0374(3) 0.0902(2) -0.02961(11)
O12B O 1.3799(3) -0.2097(3) -0.02756(12)
loop_
_geom_bond_atom_site_label_1
_geom_bond_atom_site_label_2
_geom_bond_site_symmetry_1
_geom_bond_site_symmetry_2
Nd1 O1 1_555 1_555
O1 C8 1_555 1_555
O2 C8 1_555 1_555
O3 Nd1 1_555 1_555
O4 C3 1_555 1_555
O5 C20 1_555 1_555
N1 C14 1_555 1_555
N2 C31 1_555 1_555
O6 Nd1 1_555 1_555
O7 Nd1 1_555 1_555
O8 C25 1_555 1_555
O9 Nd1 1_555 1_555
O10 C25 1_555 1_555
O11 Nd1 1_555 1_555
O12 C7 1_555 1_555
C1 C2 1_555 1_555
C2 C3 1_555 1_555
C3 C4 1_555 1_555
C4 H1 1_555 1_555
C5 C4 1_555 1_555
H2 C5 1_555 1_555
C6 C1 1_555 1_555
H3 C6 1_555 1_555
C7 O9 1_555 1_555
C8 C2 1_555 1_555
C9 O4 1_555 1_555
C10 C9 1_555 1_555
H4 C10 1_555 1_555
C11 C10 1_555 1_555
H5 C11 1_555 1_555
C12 C11 1_555 1_555
H6 C12 1_555 1_555
C13 C12 1_555 1_555
C14 C9 1_555 1_555
C15 C13 1_555 1_555
H7 C15 1_555 1_555
C16 C15 1_555 1_555
H8 C16 1_555 1_555
C17 N1 1_555 1_555
H9 C17 1_555 1_555
C18 C19 1_555 1_555
C19 C20 1_555 1_555
C20 C21 1_555 1_555
C21 H10 1_555 1_555
C22 C21 1_555 1_555
H11 C22 1_555 1_555
C23 C18 1_555 1_555
H12 C23 1_555 1_555
C24 O3 1_555 1_555
C25 C19 1_555 1_555
C26 O5 1_555 1_555
C27 C26 1_555 1_555
H13 C27 1_555 1_555
C28 C27 1_555 1_555
H14 C28 1_555 1_555
C29 C28 1_555 1_555
H15 C29 1_555 1_555
C30 C29 1_555 1_555
C31 C26 1_555 1_555
C32 C30 1_555 1_555
H16 C32 1_555 1_555
C33 C32 1_555 1_555
H17 C33 1_555 1_555
C34 N2 1_555 1_555
H18 C34 1_555 1_555
H19 O7 1_555 1_555
H20 O7 1_555 1_555
H21 O6 1_555 1_555
H22 O6 1_555 1_555
H23 N2 1_555 1_555
Nd1B O10 1_555 1_555
Nd1B_2 O12 1_555 1_555
O10B Nd1 1_555 1_555
O11B Nd1 1_555 1_555
O12B Nd1 1_555 1_555
O11 C24 1_555 1_555
O11 Nd1B 1_555 1_555
C1 C7 1_555 1_555
C5 C6 1_555 1_555
C13 C14 1_555 1_555
C16 C17 1_555 1_555
C18 C24 1_555 1_555
C22 C23 1_555 1_555
C30 C31 1_555 1_555
C33 C34 1_555 1_555
Nd1B O11B 1_555 1_555

#END
