
#######################################################################
#
#                 Cambridge Crystallographic Data Centre
#                                CCDC 
#
#######################################################################
#
# If this CIF has been generated from an entry in the Cambridge 
# Structural Database, then it will include bibliographic, chemical, 
# crystal, experimental, refinement or atomic coordinate data resulting 
# from the CCDC's data processing and validation procedures.
#
#######################################################################

data_ZONGAM
_symmetry_cell_setting           monoclinic
_symmetry_space_group_name_H-M   'C 2/c'
_symmetry_Int_Tables_number      15
_space_group_name_Hall           '-C 2yn'
loop_
_symmetry_equiv_pos_site_id
_symmetry_equiv_pos_as_xyz
1 x,y,z
2 -x,y,1/2-z
3 1/2+x,1/2+y,z
4 1/2-x,1/2+y,1/2-z
5 -x,-y,-z
6 x,-y,1/2+z
7 1/2-x,1/2-y,-z
8 1/2+x,1/2-y,1/2+z
_cell_length_a                   26.574(5)
_cell_length_b                   11.640(2)
_cell_length_c                   9.3905(19)
_cell_angle_alpha                90
_cell_angle_beta                 94.36(3)
_cell_angle_gamma                90
_cell_volume                     2896.28
loop_
_atom_site_label
_atom_site_type_symbol
_atom_site_fract_x
_atom_site_fract_y
_atom_site_fract_z
Ce1 Ce 0.0000 0.041601(17) 1.2500
O1 O 0.12792(8) 0.29819(19) 0.5861(2)
O2 O 0.14348(9) 0.0952(2) 0.8448(3)
O3 O 0.07742(8) 0.06371(18) 0.6901(2)
O4 O 0.03747(14) 0.2154(2) 1.1318(3)
O5 O 0.02681(8) 0.09627(18) 0.9523(2)
O6 O 0.07150(14) 0.1204(4) 1.4109(3)
N1 N 0.14929(10) 0.2423(2) 0.3257(3)
C1 C 0.05941(10) 0.2821(2) 0.9066(3)
C2 C 0.08860(10) 0.2501(2) 0.7943(3)
C3 C 0.10451(11) 0.3365(3) 0.7057(3)
C4 C 0.09358(13) 0.4507(3) 0.7270(3)
H1 H 0.1051 0.5068 0.6667
C5 C 0.06535(13) 0.4811(3) 0.8392(4)
H2 H 0.0578 0.5579 0.8547
C6 C 0.04843(11) 0.3970(3) 0.9281(3)
H3 H 0.0295 0.4178 1.0033
C7 C 0.03959(12) 0.1925(2) 1.0029(3)
C8 C 0.10496(10) 0.1265(2) 0.7752(3)
C9 C 0.17114(11) 0.3465(2) 0.5433(3)
C10 C 0.20414(12) 0.4143(3) 0.6224(3)
H4 H 0.1964 0.4393 0.7123
C11 C 0.25027(12) 0.4471(3) 0.5682(4)
H5 H 0.2725 0.4935 0.6234
C12 C 0.26283(11) 0.4121(3) 0.4370(4)
H6 H 0.2935 0.4339 0.4038
C13 C 0.22904(11) 0.3426(3) 0.3518(3)
C14 C 0.23988(12) 0.2981(3) 0.2176(3)
H7 H 0.2705 0.3155 0.1806
C15 C 0.20599(14) 0.2301(3) 0.1422(3)
H8 H 0.2130 0.2017 0.0532
C16 C 0.16048(13) 0.2032(3) 0.1998(3)
H9 H 0.1374 0.1564 0.1480
C17 C 0.18249(10) 0.3110(2) 0.4039(3)
O1A O -0.12792(8) 0.29819(19) 1.9139(2)
O2A O -0.14348(9) 0.0952(2) 1.6552(3)
O3A O -0.07742(8) 0.06371(18) 1.8099(2)
O4A O -0.03747(14) 0.2154(2) 1.3682(3)
O5A O -0.02681(8) 0.09627(18) 1.5477(2)
O6A O -0.07150(14) 0.1204(4) 1.0891(3)
N1A N -0.14929(10) 0.2423(2) 2.1743(3)
C1A C -0.05941(10) 0.2821(2) 1.5934(3)
C2A C -0.08860(10) 0.2501(2) 1.7057(3)
C3A C -0.10451(11) 0.3365(3) 1.7943(3)
C4A C -0.09358(13) 0.4507(3) 1.7730(3)
H1A H -0.1051 0.5068 1.8333
C5A C -0.06535(13) 0.4811(3) 1.6608(4)
H2A H -0.0578 0.5579 1.6453
C6A C -0.04843(11) 0.3970(3) 1.5719(3)
H3A H -0.0295 0.4178 1.4967
C7A C -0.03959(12) 0.1925(2) 1.4971(3)
C8A C -0.10496(10) 0.1265(2) 1.7248(3)
C9A C -0.17114(11) 0.3465(2) 1.9567(3)
C10A C -0.20414(12) 0.4143(3) 1.8776(3)
H4A H -0.1964 0.4393 1.7877
C11A C -0.25027(12) 0.4471(3) 1.9318(4)
H5A H -0.2725 0.4935 1.8766
C12A C -0.26283(11) 0.4121(3) 2.0630(4)
H6A H -0.2935 0.4339 2.0962
C13A C -0.22904(11) 0.3426(3) 2.1482(3)
C14A C -0.23988(12) 0.2981(3) 2.2824(3)
H7A H -0.2705 0.3155 2.3194
C15A C -0.20599(14) 0.2301(3) 2.3578(3)
H8A H -0.2130 0.2017 2.4468
C16A C -0.16048(13) 0.2032(3) 2.3002(3)
H9A H -0.1374 0.1564 2.3520
C17A C -0.18249(10) 0.3110(2) 2.0961(3)
Ce1D Ce 0.0000 -0.041601(17) 0.7500
Ce1D_2 Ce 0.0000 -0.041601(17) 1.7500
O3D O -0.07742(8) -0.06371(18) 1.3099(2)
O3E O 0.07742(8) -0.06371(18) 1.1901(2)
O5D O -0.02681(8) -0.09627(18) 1.0477(2)
O5E O 0.02681(8) -0.09627(18) 1.4523(2)
loop_
_geom_bond_atom_site_label_1
_geom_bond_atom_site_label_2
_geom_bond_site_symmetry_1
_geom_bond_site_symmetry_2
Ce1 O4 1_555 1_555
O1 C3 1_555 1_555
O2 C8 1_555 1_555
O3 C8 1_555 1_555
O4 C7 1_555 1_555
O5 C7 1_555 1_555
O6 Ce1 1_555 1_555
N1 C16 1_555 1_555
C1 C2 1_555 1_555
C2 C3 1_555 1_555
C3 C4 1_555 1_555
C4 H1 1_555 1_555
C5 C4 1_555 1_555
H2 C5 1_555 1_555
C6 C1 1_555 1_555
H3 C6 1_555 1_555
C7 C1 1_555 1_555
C8 C2 1_555 1_555
C9 O1 1_555 1_555
C10 C9 1_555 1_555
H4 C10 1_555 1_555
C11 C10 1_555 1_555
H5 C11 1_555 1_555
C12 C11 1_555 1_555
H6 C12 1_555 1_555
C13 C12 1_555 1_555
C14 C13 1_555 1_555
H7 C14 1_555 1_555
C15 C14 1_555 1_555
H8 C15 1_555 1_555
C16 C15 1_555 1_555
H9 C16 1_555 1_555
C17 N1 1_555 1_555
O1A C3A 1_555 1_555
O2A C8A 1_555 1_555
O3A C8A 1_555 1_555
O4A Ce1 1_555 1_555
O5A C7A 1_555 1_555
O6A Ce1 1_555 1_555
N1A C16A 1_555 1_555
C1A C2A 1_555 1_555
C2A C3A 1_555 1_555
C3A C4A 1_555 1_555
C4A H1A 1_555 1_555
C5A C4A 1_555 1_555
H2A C5A 1_555 1_555
C6A C1A 1_555 1_555
H3A C6A 1_555 1_555
C7A O4A 1_555 1_555
C8A C2A 1_555 1_555
C9A O1A 1_555 1_555
C10A C9A 1_555 1_555
H4A C10A 1_555 1_555
C11A C10A 1_555 1_555
H5A C11A 1_555 1_555
C12A C11A 1_555 1_555
H6A C12A 1_555 1_555
C13A C12A 1_555 1_555
C14A C13A 1_555 1_555
H7A C14A 1_555 1_555
C15A C14A 1_555 1_555
H8A C15A 1_555 1_555
C16A C15A 1_555 1_555
H9A C16A 1_555 1_555
C17A N1A 1_555 1_555
Ce1D O3 1_555 1_555
Ce1D_2 O3A 1_555 1_555
O3D Ce1 1_555 1_555
O3E Ce1 1_555 1_555
O5D Ce1 1_555 1_555
O5E Ce1 1_555 1_555
O5 Ce1D 1_555 1_555
C5 C6 1_555 1_555
C9 C17 1_555 1_555
C13 C17 1_555 1_555
O5A Ce1D_2 1_555 1_555
C1A C7A 1_555 1_555
C5A C6A 1_555 1_555
C9A C17A 1_555 1_555
C13A C17A 1_555 1_555

#END
