
#######################################################################
#
#                 Cambridge Crystallographic Data Centre
#                                CCDC 
#
#######################################################################
#
# If this CIF has been generated from an entry in the Cambridge 
# Structural Database, then it will include bibliographic, chemical, 
# crystal, experimental, refinement or atomic coordinate data resulting 
# from the CCDC's data processing and validation procedures.
#
#######################################################################

data_ZONGEQ
_symmetry_cell_setting           monoclinic
_symmetry_space_group_name_H-M   'C 2/c'
_symmetry_Int_Tables_number      15
_space_group_name_Hall           '-C 2yn'
loop_
_symmetry_equiv_pos_site_id
_symmetry_equiv_pos_as_xyz
1 x,y,z
2 -x,y,1/2-z
3 1/2+x,1/2+y,z
4 1/2-x,1/2+y,1/2-z
5 -x,-y,-z
6 x,-y,1/2+z
7 1/2-x,1/2-y,-z
8 1/2+x,1/2-y,1/2+z
_cell_length_a                   26.53(2)
_cell_length_b                   11.615(8)
_cell_length_c                   9.406(8)
_cell_angle_alpha                90
_cell_angle_beta                 94.28(12)
_cell_angle_gamma                90
_cell_volume                     2890.34
loop_
_atom_site_label
_atom_site_type_symbol
_atom_site_fract_x
_atom_site_fract_y
_atom_site_fract_z
Pr1 Pr 0.0000 -0.04119(4) 0.2500
O1 O 0.12764(16) 0.2981(4) 0.0853(4)
O2 O 0.14342(17) 0.0942(4) 0.3445(5)
O3 O 0.07726(15) 0.0613(3) 0.1893(4)
O4 O 0.02624(16) 0.0960(4) 0.4487(5)
O5 O 0.0379(2) 0.2123(4) 0.6311(5)
O6 O 0.0703(2) -0.1217(6) 0.4117(5)
N1 N 0.14904(18) 0.2407(5) -0.1738(5)
C1 C 0.0595(2) 0.2807(5) 0.4058(5)
C2 C 0.08846(19) 0.2499(5) 0.2938(5)
C3 C 0.1046(2) 0.3365(5) 0.2051(5)
C4 C 0.0934(2) 0.4505(5) 0.2273(6)
H1 H 0.1045 0.5081 0.1652
C5 C 0.0657(2) 0.4807(5) 0.3407(7)
H2 H 0.0586 0.5594 0.3581
C6 C 0.0483(2) 0.3962(5) 0.4285(6)
H3 H 0.0287 0.4171 0.5048
C7 C 0.1708(2) 0.3465(5) 0.0417(6)
C8 C 0.2041(2) 0.4148(5) 0.1214(7)
H4 H 0.1963 0.4404 0.2132
C9 C 0.2501(2) 0.4469(5) 0.0665(7)
H5 H 0.2729 0.4944 0.1225
C10 C 0.2628(2) 0.4120(6) -0.0643(7)
H6 H 0.2942 0.4343 -0.0984
C11 C 0.2287(2) 0.3423(5) -0.1486(6)
C12 C 0.2058(2) 0.2288(6) -0.3574(6)
H7 H 0.2125 0.2009 -0.4491
C13 C 0.1607(3) 0.2016(6) -0.2984(6)
H8 H 0.1373 0.1527 -0.3504
C14 C 0.2402(2) 0.2961(6) -0.2813(6)
H9 H 0.2720 0.3119 -0.3175
C15 C 0.1824(2) 0.3109(5) -0.0954(6)
C16 C 0.0396(2) 0.1914(5) 0.5014(6)
C17 C 0.1049(2) 0.1248(5) 0.2749(5)
O1A O -0.12764(16) 0.2981(4) 0.4147(4)
O2A O -0.14342(17) 0.0942(4) 0.1555(5)
O3A O -0.07726(15) 0.0613(3) 0.3107(4)
O4A O -0.02624(16) 0.0960(4) 0.0513(5)
O5A O -0.0379(2) 0.2123(4) -0.1311(5)
O6A O -0.0703(2) -0.1217(6) 0.0883(5)
N1A N -0.14904(18) 0.2407(5) 0.6738(5)
C1A C -0.0595(2) 0.2807(5) 0.0942(5)
C2A C -0.08846(19) 0.2499(5) 0.2062(5)
C3A C -0.1046(2) 0.3365(5) 0.2949(5)
C4A C -0.0934(2) 0.4505(5) 0.2727(6)
H1A H -0.1045 0.5081 0.3348
C5A C -0.0657(2) 0.4807(5) 0.1593(7)
H2A H -0.0586 0.5594 0.1419
C6A C -0.0483(2) 0.3962(5) 0.0715(6)
H3A H -0.0287 0.4171 -0.0048
C7A C -0.1708(2) 0.3465(5) 0.4583(6)
C8A C -0.2041(2) 0.4148(5) 0.3786(7)
H4A H -0.1963 0.4404 0.2868
C9A C -0.2501(2) 0.4469(5) 0.4335(7)
H5A H -0.2729 0.4944 0.3775
C10A C -0.2628(2) 0.4120(6) 0.5643(7)
H6A H -0.2942 0.4343 0.5984
C11A C -0.2287(2) 0.3423(5) 0.6486(6)
C12A C -0.2058(2) 0.2288(6) 0.8574(6)
H7A H -0.2125 0.2009 0.9491
C13A C -0.1607(3) 0.2016(6) 0.7984(6)
H8A H -0.1373 0.1527 0.8504
C14A C -0.2402(2) 0.2961(6) 0.7813(6)
H9A H -0.2720 0.3119 0.8175
C15A C -0.1824(2) 0.3109(5) 0.5954(6)
C16A C -0.0396(2) 0.1914(5) -0.0014(6)
C17A C -0.1049(2) 0.1248(5) 0.2251(5)
Pr1D Pr 0.0000 0.04119(4) -0.2500
Pr1D_2 Pr 0.0000 0.04119(4) 0.7500
O5D O -0.0379(2) -0.2123(4) 0.3689(5)
O5E O 0.0379(2) -0.2123(4) 0.1311(5)
loop_
_geom_bond_atom_site_label_1
_geom_bond_atom_site_label_2
_geom_bond_site_symmetry_1
_geom_bond_site_symmetry_2
Pr1 O3 1_555 1_555
O1 C3 1_555 1_555
O2 C17 1_555 1_555
O3 C17 1_555 1_555
O4 Pr1 1_555 1_555
O5 C16 1_555 1_555
O6 Pr1 1_555 1_555
N1 C13 1_555 1_555
C1 C2 1_555 1_555
C2 C3 1_555 1_555
C3 C4 1_555 1_555
C4 H1 1_555 1_555
C5 C4 1_555 1_555
H2 C5 1_555 1_555
C6 C1 1_555 1_555
H3 C6 1_555 1_555
C7 O1 1_555 1_555
C8 C7 1_555 1_555
H4 C8 1_555 1_555
C9 C8 1_555 1_555
H5 C9 1_555 1_555
C10 C9 1_555 1_555
H6 C10 1_555 1_555
C11 C10 1_555 1_555
C12 H7 1_555 1_555
C13 C12 1_555 1_555
H8 C13 1_555 1_555
C14 C11 1_555 1_555
H9 C14 1_555 1_555
C15 N1 1_555 1_555
C16 O4 1_555 1_555
C17 C2 1_555 1_555
O1A C3A 1_555 1_555
O2A C17A 1_555 1_555
O3A Pr1 1_555 1_555
O4A Pr1 1_555 1_555
O5A C16A 1_555 1_555
O6A Pr1 1_555 1_555
N1A C13A 1_555 1_555
C1A C2A 1_555 1_555
C2A C3A 1_555 1_555
C3A C4A 1_555 1_555
C4A H1A 1_555 1_555
C5A C4A 1_555 1_555
H2A C5A 1_555 1_555
C6A C1A 1_555 1_555
H3A C6A 1_555 1_555
C7A O1A 1_555 1_555
C8A C7A 1_555 1_555
H4A C8A 1_555 1_555
C9A C8A 1_555 1_555
H5A C9A 1_555 1_555
C10A C9A 1_555 1_555
H6A C10A 1_555 1_555
C11A C10A 1_555 1_555
C12A H7A 1_555 1_555
C13A C12A 1_555 1_555
H8A C13A 1_555 1_555
C14A C11A 1_555 1_555
H9A C14A 1_555 1_555
C15A N1A 1_555 1_555
C16A O4A 1_555 1_555
C17A O3A 1_555 1_555
Pr1D O5A 1_555 1_555
Pr1D_2 O5 1_555 1_555
O5D Pr1 1_555 1_555
O5E Pr1 1_555 1_555
C1 C16 1_555 1_555
C5 C6 1_555 1_555
C7 C15 1_555 1_555
C11 C15 1_555 1_555
C12 C14 1_555 1_555
C1A C16A 1_555 1_555
C2A C17A 1_555 1_555
C5A C6A 1_555 1_555
C7A C15A 1_555 1_555
C11A C15A 1_555 1_555
C12A C14A 1_555 1_555

#END
