
#######################################################################
#
#                 Cambridge Crystallographic Data Centre
#                                CCDC 
#
#######################################################################
#
# If this CIF has been generated from an entry in the Cambridge 
# Structural Database, then it will include bibliographic, chemical, 
# crystal, experimental, refinement or atomic coordinate data resulting 
# from the CCDC's data processing and validation procedures.
#
#######################################################################

data_ZONGIU
_symmetry_cell_setting           monoclinic
_symmetry_space_group_name_H-M   'P 21/c'
_symmetry_Int_Tables_number      14
_space_group_name_Hall           '-P 2ybc'
loop_
_symmetry_equiv_pos_site_id
_symmetry_equiv_pos_as_xyz
1 x,y,z
2 -x,1/2+y,1/2-z
3 -x,-y,-z
4 x,1/2-y,1/2+z
_cell_length_a                   9.401(8)
_cell_length_b                   11.570(8)
_cell_length_c                   27.44(3)
_cell_angle_alpha                90
_cell_angle_beta                 105.63(12)
_cell_angle_gamma                90
_cell_volume                     2874.27
loop_
_atom_site_label
_atom_site_type_symbol
_atom_site_fract_x
_atom_site_fract_y
_atom_site_fract_z
Sm1 Sm 1.234994(15) -0.540149(12) -0.000256(5)
O1 O 0.9629(2) -0.1953(2) -0.12711(9)
O2 O 1.1051(2) -0.43203(19) -0.07621(8)
O3 O 1.2109(3) -0.4064(2) -0.13868(9)
O4 O 1.4016(3) -0.3996(2) -0.01880(10)
O5 O 1.5908(2) -0.2973(2) -0.02795(9)
O6 O 0.4536(2) -0.7893(2) -0.12724(9)
O7 O 0.6867(3) -0.5905(2) -0.14845(9)
O8 O 0.6221(2) -0.54883(19) -0.07804(9)
O9 O 1.0942(2) -0.7092(2) -0.04657(8)
O10 O 0.9329(2) -0.58952(18) -0.02917(8)
O11 O 1.1524(2) -0.6470(2) 0.06035(8)
H1 H 1.1963 -0.7126 0.0596
H2 H 1.0733 -0.6203 0.0672
O12 O 1.3357(2) -0.5969(2) -0.07634(8)
H3 H 1.4319 -0.5929 -0.0667
H4 H 1.3022 -0.5432 -0.0986
C1 C 0.5446(3) -0.2869(3) -0.15625(13)
H5 H 0.5160 -0.3342 -0.1322
N1 N 0.1725(3) -0.7294(2) -0.15149(10)
C2 C 1.3484(3) -0.2166(3) -0.05655(11)
C3 C 1.2070(3) -0.2458(3) -0.08641(10)
C4 C 1.1054(3) -0.1579(3) -0.10364(12)
C5 C 1.1412(4) -0.0427(3) -0.09322(14)
H6 H 1.0700 0.0161 -0.1055
C6 C 1.2828(4) -0.0144(3) -0.06451(14)
H7 H 1.3094 0.0642 -0.0574
C7 C 1.3852(3) -0.1013(3) -0.04634(12)
H8 H 1.4817 -0.0816 -0.0267
C8 C 1.4556(3) -0.3106(2) -0.03309(10)
C9 C 1.1695(3) -0.3704(3) -0.10210(10)
C10 C 0.8728(3) -0.1442(3) -0.16925(11)
C11 C 0.9181(4) -0.0745(3) -0.20239(13)
H9 H 1.0177 -0.0487 -0.1947
C12 C 0.8159(4) -0.0411(3) -0.24821(13)
H10 H 0.8480 0.0071 -0.2712
C13 C 0.6723(4) -0.0767(3) -0.26015(12)
H11 H 0.6057 -0.0540 -0.2913
C14 C 0.6230(3) -0.1476(3) -0.22593(11)
C15 C 0.4778(3) -0.1926(3) -0.23665(13)
H12 H 0.4076 -0.1749 -0.2678
C16 C 0.4394(3) -0.2618(3) -0.20180(14)
H13 H 0.3423 -0.2925 -0.2085
N2 N 0.6815(3) -0.2481(3) -0.14506(10)
C17 C 0.7224(3) -0.1799(3) -0.17942(11)
C18 C 0.8461(3) -0.7745(3) -0.06239(11)
C19 C 0.7037(3) -0.7408(3) -0.09012(10)
C20 C 0.5980(3) -0.8275(3) -0.10468(12)
C21 C 0.6293(4) -0.9429(3) -0.09392(14)
H14 H 0.5545 -0.9997 -0.1048
C22 C 0.7708(4) -0.9750(3) -0.06706(14)
H15 H 0.7941 -1.0541 -0.0596
C23 C 0.8781(3) -0.8904(3) -0.05110(13)
H16 H 0.9747 -0.9120 -0.0322
C24 C 0.9656(3) -0.6859(3) -0.04506(10)
C25 C 0.6685(3) -0.6156(3) -0.10732(11)
C26 C 0.3698(3) -0.8356(3) -0.17157(12)
C27 C 0.4173(4) -0.9036(3) -0.20472(13)
H17 H 0.5168 -0.9295 -0.1965
C28 C 0.3179(4) -0.9353(3) -0.25144(13)
H18 H 0.3521 -0.9825 -0.2743
C29 C 0.1743(4) -0.8999(3) -0.26444(12)
H19 H 0.1098 -0.9220 -0.2961
C30 C 0.1218(3) -0.8302(3) -0.23066(12)
C31 C -0.0229(3) -0.7848(3) -0.24190(13)
H20 H -0.0914 -0.8029 -0.2733
C32 C -0.0654(4) -0.7151(3) -0.20817(14)
H21 H -0.1633 -0.6858 -0.2158
C33 C 0.0358(4) -0.6873(3) -0.16255(13)
H22 H 0.0072 -0.6380 -0.1392
C34 C 0.2201(3) -0.7996(3) -0.18399(11)
Sm1B Sm 0.765006(15) -0.459851(12) 0.000256(5)
Sm1B_2 Sm 1.765006(15) -0.459851(12) 0.000256(5)
O5B O 1.4092(2) -0.7027(2) 0.02795(9)
O8B O 1.3779(2) -0.45117(19) 0.07804(9)
O10B O 1.0671(2) -0.41048(18) 0.02917(8)
loop_
_geom_bond_atom_site_label_1
_geom_bond_atom_site_label_2
_geom_bond_site_symmetry_1
_geom_bond_site_symmetry_2
Sm1 O2 1_555 1_555
O1 C4 1_555 1_555
O2 C9 1_555 1_555
O3 C9 1_555 1_555
O4 Sm1 1_555 1_555
O5 C8 1_555 1_555
O6 C20 1_555 1_555
O7 C25 1_555 1_555
O8 C25 1_555 1_555
O9 Sm1 1_555 1_555
O10 Sm1 1_555 1_555
O11 Sm1 1_555 1_555
H1 O11 1_555 1_555
H2 O11 1_555 1_555
O12 Sm1 1_555 1_555
H3 O12 1_555 1_555
H4 O12 1_555 1_555
C1 H5 1_555 1_555
N1 C33 1_555 1_555
C2 C3 1_555 1_555
C3 C4 1_555 1_555
C4 C5 1_555 1_555
C5 H6 1_555 1_555
C6 C5 1_555 1_555
H7 C6 1_555 1_555
C7 C2 1_555 1_555
H8 C7 1_555 1_555
C8 O4 1_555 1_555
C9 C3 1_555 1_555
C10 O1 1_555 1_555
C11 C10 1_555 1_555
H9 C11 1_555 1_555
C12 C11 1_555 1_555
H10 C12 1_555 1_555
C13 C12 1_555 1_555
H11 C13 1_555 1_555
C14 C13 1_555 1_555
C15 C14 1_555 1_555
H12 C15 1_555 1_555
C16 C1 1_555 1_555
H13 C16 1_555 1_555
N2 C1 1_555 1_555
C17 C10 1_555 1_555
C18 C19 1_555 1_555
C19 C20 1_555 1_555
C20 C21 1_555 1_555
C21 H14 1_555 1_555
C22 C21 1_555 1_555
H15 C22 1_555 1_555
C23 C18 1_555 1_555
H16 C23 1_555 1_555
C24 O9 1_555 1_555
C25 C19 1_555 1_555
C26 O6 1_555 1_555
C27 C26 1_555 1_555
H17 C27 1_555 1_555
C28 C27 1_555 1_555
H18 C28 1_555 1_555
C29 C28 1_555 1_555
H19 C29 1_555 1_555
C30 C29 1_555 1_555
C31 C30 1_555 1_555
H20 C31 1_555 1_555
C32 C31 1_555 1_555
H21 C32 1_555 1_555
C33 C32 1_555 1_555
H22 C33 1_555 1_555
C34 N1 1_555 1_555
Sm1B O8 1_555 1_555
Sm1B_2 O5 1_555 1_555
O5B Sm1 1_555 1_555
O8B Sm1 1_555 1_555
O10B Sm1 1_555 1_555
O10 C24 1_555 1_555
O10 Sm1B 1_555 1_555
C2 C8 1_555 1_555
C6 C7 1_555 1_555
C14 C17 1_555 1_555
C15 C16 1_555 1_555
N2 C17 1_555 1_555
C18 C24 1_555 1_555
C22 C23 1_555 1_555
C26 C34 1_555 1_555
C30 C34 1_555 1_555
Sm1B O10B 1_555 1_555

#END
