
#######################################################################
#
#                 Cambridge Crystallographic Data Centre
#                                CCDC 
#
#######################################################################
#
# If this CIF has been generated from an entry in the Cambridge 
# Structural Database, then it will include bibliographic, chemical, 
# crystal, experimental, refinement or atomic coordinate data resulting 
# from the CCDC's data processing and validation procedures.
#
#######################################################################

data_ZONRIF
_symmetry_cell_setting           triclinic
_symmetry_space_group_name_H-M   'P -1'
_symmetry_Int_Tables_number      2
_space_group_name_Hall           '-P 1'
loop_
_symmetry_equiv_pos_site_id
_symmetry_equiv_pos_as_xyz
1 x,y,z
2 -x,-y,-z
_cell_length_a                   7.9767(5)
_cell_length_b                   9.7325(5)
_cell_length_c                   10.3966(6)
_cell_angle_alpha                116.8210(10)
_cell_angle_beta                 107.3330(10)
_cell_angle_gamma                95.6690(10)
_cell_volume                     661.318
loop_
_atom_site_label
_atom_site_type_symbol
_atom_site_fract_x
_atom_site_fract_y
_atom_site_fract_z
C1 C 0.7198(5) 0.4417(4) 0.5032(4)
H1 H 0.7957 0.4505 0.5955
C2 C 0.7649(5) 0.5573(4) 0.4661(4)
C3 C 0.6478(5) 0.5463(4) 0.3296(4)
H2 H 0.6755 0.6232 0.3038
C4 C 0.4895(5) 0.4200(4) 0.2324(4)
C5 C 0.3595(5) 0.4119(4) 0.0894(4)
C6 C 0.5209(5) 0.1940(4) 0.4518(4)
C7 C 0.9307(5) 0.6913(4) 0.5731(4)
C8 C 0.5645(5) 0.3141(4) 0.4057(4)
C9 C 0.4493(5) 0.3024(4) 0.2674(4)
H3 H 0.3463 0.2159 0.1994
Gd1 Gd 0.29191(2) 0.79641(2) 0.19585(2)
H4 H 0.659(11) 0.893(10) 0.402(10)
H5 H 0.676(9) 0.950(8) 0.343(8)
H6 H 0.512(9) 0.849(7) 0.038(7)
H7 H 0.369(7) 0.872(6) -0.034(7)
H8 H 0.073(9) 0.990(7) 0.153(7)
H9 H -0.064(13) 0.859(11) 0.004(11)
H10 H 0.044(8) 0.664(7) -0.150(7)
H11 H 0.068(8) 0.528(7) -0.132(7)
H12 H -0.093(11) 0.725(9) 0.188(9)
H13 H 0.024(7) 0.753(6) 0.331(7)
N1 N 1.1544(5) 0.8925(4) 0.6685(4)
N2 N 1.1663(5) 0.8533(4) 0.7758(4)
N3 N 1.0263(4) 0.7275(4) 0.7197(4)
N4 N 1.0061(4) 0.7913(4) 0.5376(4)
O1 O 0.6212(4) 0.8727(3) 0.3227(4)
O2 O 0.6348(4) 0.2128(3) 0.5756(3)
O3 O 0.0162(4) 0.7256(4) 0.2376(4)
O4 O 0.3401(4) 0.5418(3) 0.0959(3)
O5 O 0.0656(4) 0.6226(3) -0.0689(3)
O6 O 0.0703(5) 0.9230(4) 0.1013(4)
O7 O 0.4232(5) 0.8702(4) 0.0489(4)
O8 O 0.3736(4) 0.0818(3) 0.3665(3)
O9 O 0.2764(4) 0.2750(3) -0.0291(3)
Gd1_2 Gd 0.29191(2) -0.20359(2) 0.19585(2)
Gd1A Gd 0.70809(2) 0.20359(2) 0.80415(2)
O2A O 0.3652(4) 0.7872(3) 0.4244(3)
O8_2 O 0.3736(4) 1.0818(3) 0.3665(3)
loop_
_geom_bond_atom_site_label_1
_geom_bond_atom_site_label_2
_geom_bond_site_symmetry_1
_geom_bond_site_symmetry_2
C1 H1 1_555 1_555
C2 C1 1_555 1_555
C3 C2 1_555 1_555
H2 C3 1_555 1_555
C4 C3 1_555 1_555
C5 C4 1_555 1_555
C6 C8 1_555 1_555
C7 C2 1_555 1_555
C8 C1 1_555 1_555
C9 C4 1_555 1_555
H3 C9 1_555 1_555
Gd1 O1 1_555 1_555
H4 O1 1_555 1_555
H5 O1 1_555 1_555
H6 O7 1_555 1_555
H7 O7 1_555 1_555
H8 O6 1_555 1_555
H9 O6 1_555 1_555
H10 O5 1_555 1_555
H11 O5 1_555 1_555
H12 O3 1_555 1_555
H13 O3 1_555 1_555
N1 N2 1_555 1_555
N2 N3 1_555 1_555
N3 C7 1_555 1_555
N4 C7 1_555 1_555
O2 C6 1_555 1_555
O3 Gd1 1_555 1_555
O4 C5 1_555 1_555
O5 Gd1 1_555 1_555
O6 Gd1 1_555 1_555
O7 Gd1 1_555 1_555
O8 C6 1_555 1_555
O9 C5 1_555 1_555
Gd1_2 O8 1_555 1_555
Gd1A O2 1_555 1_555
O2A Gd1 1_555 1_555
O8_2 Gd1 1_555 1_555
C8 C9 1_555 1_555
Gd1 O4 1_555 1_555
N1 N4 1_555 1_555

#END
