
#######################################################################
#
#                 Cambridge Crystallographic Data Centre
#                                CCDC 
#
#######################################################################
#
# If this CIF has been generated from an entry in the Cambridge 
# Structural Database, then it will include bibliographic, chemical, 
# crystal, experimental, refinement or atomic coordinate data resulting 
# from the CCDC's data processing and validation procedures.
#
#######################################################################

data_ZONWEE01
_symmetry_cell_setting           monoclinic
_symmetry_space_group_name_H-M   'C 2/c'
_symmetry_Int_Tables_number      15
_space_group_name_Hall           '-C 2yn'
loop_
_symmetry_equiv_pos_site_id
_symmetry_equiv_pos_as_xyz
1 x,y,z
2 -x,y,1/2-z
3 1/2+x,1/2+y,z
4 1/2-x,1/2+y,1/2-z
5 -x,-y,-z
6 x,-y,1/2+z
7 1/2-x,1/2-y,-z
8 1/2+x,1/2-y,1/2+z
_cell_length_a                   13.4420
_cell_length_b                   22.2230
_cell_length_c                   20.9120
_cell_angle_alpha                90.0
_cell_angle_beta                 94.38
_cell_angle_gamma                90.0
_cell_volume                     6228.62
loop_
_atom_site_label
_atom_site_type_symbol
_atom_site_fract_x
_atom_site_fract_y
_atom_site_fract_z
Cd1 Cd 0.50000 0.37290 0.25000
N1 N 0.62585 0.44775 0.26740
N2 N 0.47355 0.28390 0.17745
C1 C 0.81945 0.36065 0.19625
C2 C 0.82550 0.30525 0.16550
C3 C 0.74065 0.26940 0.15515
C4 C 0.64975 0.28895 0.17555
N3 N 0.64370 0.34440 0.20630
C5 C 0.72860 0.38025 0.21665
C6 C 0.71035 0.43580 0.25010
C7 C 0.63780 0.55760 0.27480
C8 C 0.61350 0.61085 0.30500
C9 C 0.55685 0.60915 0.35810
C10 C 0.52435 0.55420 0.38095
C11 C 0.54860 0.50085 0.35070
C12 C 0.60530 0.50260 0.29770
O1 O 0.52100 0.44555 0.36990
C13 C 0.49550 0.43995 0.43560
C14 C 0.40880 0.34975 0.47480
C15 C 0.40785 0.29080 0.49700
C16 C 0.49495 0.25670 0.50015
C17 C 0.58300 0.28160 0.48110
C18 C 0.58390 0.34065 0.45890
C19 C 0.49680 0.37475 0.45575
C20 C 0.55480 0.25750 0.16340
C21 C 0.36730 0.19555 0.18170
C22 C 0.27285 0.16995 0.17370
C23 C 0.19150 0.20505 0.15145
C24 C 0.20470 0.26565 0.13730
C25 C 0.29910 0.29125 0.14535
C26 C 0.38040 0.25625 0.16755
C27 C 0.68095 0.36315 0.43580
O2 O 0.31455 0.35085 0.13210
C27A C 0.31905 0.36315 0.06420
C18A C 0.41610 0.34065 0.04110
C17A C 0.41700 0.28160 0.01890
C16A C 0.50505 0.25670 -0.00015
C15A C 0.59215 0.29080 0.00300
C14A C 0.59120 0.34975 0.02520
C19A C 0.50320 0.37475 0.04425
C13A C 0.50450 0.43995 0.06440
O1A O 0.47900 0.44555 0.13010
C11A C 0.45140 0.50085 0.14930
C10A C 0.47565 0.55420 0.11905
C9A C 0.44315 0.60915 0.14190
C8A C 0.38650 0.61085 0.19500
C7A C 0.36220 0.55760 0.22520
C12A C 0.39470 0.50260 0.20230
N1A N 0.37415 0.44775 0.23260
C6A C 0.28965 0.43580 0.24990
C5A C 0.27140 0.38025 0.28335
C1A C 0.18055 0.36065 0.30375
C2A C 0.17450 0.30525 0.33450
C3A C 0.25935 0.26940 0.34485
C4A C 0.35025 0.28895 0.32445
N3A N 0.35630 0.34440 0.29370
C20A C 0.44520 0.25750 0.33660
N2A N 0.52645 0.28390 0.32255
C26A C 0.61960 0.25625 0.33245
C21A C 0.63270 0.19555 0.31830
C22A C 0.72715 0.16995 0.32630
C23A C 0.80850 0.20505 0.34855
C24A C 0.79530 0.26565 0.36270
C25A C 0.70090 0.29125 0.35465
O2A O 0.68545 0.35085 0.36790
Cd2 Cd 0.50000 0.02490 0.25000
Ag1 Ag 0.38850 -0.02565 -0.00590
S1 S 0.25360 0.01425 0.06040
S2 S 0.55030 -0.07900 0.05405
S3 S 0.33075 0.11345 0.42530
N4 N 0.36090 0.02280 0.17810
N5 N 0.55730 -0.05405 0.18390
N6 N 0.42090 0.09220 0.31305
C28 C 0.31420 0.01860 0.12865
C29 C 0.55460 -0.06235 0.13000
C30 C 0.38460 0.09930 0.35955
S1A S 0.74640 0.01425 0.43960
N4A N 0.63910 0.02280 0.32190
C28A C 0.68580 0.01860 0.37135
S2A S 0.44970 -0.07900 0.44595
N5A N 0.44270 -0.05405 0.31610
C29A C 0.44540 -0.06235 0.37000
S3A S 0.66925 0.11345 0.07470
N6A N 0.57910 0.09220 0.18695
C30A C 0.61540 0.09930 0.14045
Ag1A Ag 0.61150 -0.02565 0.50590
S2D S 0.44970 0.07900 -0.05405
S3E S 0.33075 -0.11345 -0.07470
Ag1D Ag 0.61150 0.02565 0.00590
Ag1E Ag 0.38850 0.02565 0.49410
S1D S 0.74640 -0.01425 -0.06040
loop_
_geom_bond_atom_site_label_1
_geom_bond_atom_site_label_2
_geom_bond_site_symmetry_1
_geom_bond_site_symmetry_2
Cd1 N1 1_555 1_555
Cd2 N4 1_555 1_555
Ag1 S1 1_555 1_555
S1 C28 1_555 1_555
S2 Ag1 1_555 1_555
S3 C30 1_555 1_555
N1 C6 1_555 1_555
N2 Cd1 1_555 1_555
C1 C2 1_555 1_555
C2 C3 1_555 1_555
C3 C4 1_555 1_555
C4 N3 1_555 1_555
N3 Cd1 1_555 1_555
C5 C1 1_555 1_555
C6 C5 1_555 1_555
C7 C8 1_555 1_555
C8 C9 1_555 1_555
C9 C10 1_555 1_555
C10 C11 1_555 1_555
C11 C12 1_555 1_555
C12 N1 1_555 1_555
O1 C11 1_555 1_555
C13 O1 1_555 1_555
C14 C15 1_555 1_555
C15 C16 1_555 1_555
C16 C17 1_555 1_555
C17 C18 1_555 1_555
C18 C19 1_555 1_555
C19 C13 1_555 1_555
C20 N2 1_555 1_555
C21 C22 1_555 1_555
C22 C23 1_555 1_555
C23 C24 1_555 1_555
C24 C25 1_555 1_555
C25 C26 1_555 1_555
C26 N2 1_555 1_555
C27 C18 1_555 1_555
O2 C25 1_555 1_555
N4 C28 1_555 1_555
N5 Cd2 1_555 1_555
N6 Cd2 1_555 1_555
C29 S2 1_555 1_555
C30 N6 1_555 1_555
C27A O2 1_555 1_555
C18A C27A 1_555 1_555
C17A C18A 1_555 1_555
C16A C17A 1_555 1_555
C15A C16A 1_555 1_555
C14A C15A 1_555 1_555
C19A C18A 1_555 1_555
C13A C19A 1_555 1_555
O1A C13A 1_555 1_555
C11A O1A 1_555 1_555
C10A C11A 1_555 1_555
C9A C10A 1_555 1_555
C8A C9A 1_555 1_555
C7A C8A 1_555 1_555
C12A C11A 1_555 1_555
N1A Cd1 1_555 1_555
C6A N1A 1_555 1_555
C5A C6A 1_555 1_555
C1A C5A 1_555 1_555
C2A C1A 1_555 1_555
C3A C2A 1_555 1_555
C4A C3A 1_555 1_555
N3A Cd1 1_555 1_555
C20A C4A 1_555 1_555
N2A Cd1 1_555 1_555
C26A N2A 1_555 1_555
C21A C26A 1_555 1_555
C22A C21A 1_555 1_555
C23A C22A 1_555 1_555
C24A C23A 1_555 1_555
C25A C26A 1_555 1_555
O2A C27 1_555 1_555
S1A C28A 1_555 1_555
N4A Cd2 1_555 1_555
C28A N4A 1_555 1_555
S2A C29A 1_555 1_555
N5A Cd2 1_555 1_555
C29A N5A 1_555 1_555
S3A C30A 1_555 1_555
N6A Cd2 1_555 1_555
C30A N6A 1_555 1_555
Ag1A S1A 1_555 1_555
S2D Ag1 1_555 1_555
S3E Ag1 1_555 1_555
Ag1D S2 1_555 1_555
Ag1E S3 1_555 1_555
S1D Ag1D 1_555 1_555
C4 C20 1_555 1_555
N3 C5 1_555 1_555
C7 C12 1_555 1_555
C14 C19 1_555 1_555
C21 C26 1_555 1_555
N5 C29 1_555 1_555
C14A C19A 1_555 1_555
C7A C12A 1_555 1_555
C12A N1A 1_555 1_555
C5A N3A 1_555 1_555
C4A N3A 1_555 1_555
C20A N2A 1_555 1_555
C24A C25A 1_555 1_555
C25A O2A 1_555 1_555
S2A Ag1A 1_555 1_555
S2A Ag1E 1_555 1_555
S3A Ag1D 1_555 1_555
S2D Ag1D 1_555 1_555

#END
