
#######################################################################
#
#                 Cambridge Crystallographic Data Centre
#                                CCDC 
#
#######################################################################
#
# If this CIF has been generated from an entry in the Cambridge 
# Structural Database, then it will include bibliographic, chemical, 
# crystal, experimental, refinement or atomic coordinate data resulting 
# from the CCDC's data processing and validation procedures.
#
#######################################################################

data_ZOPGUI
_symmetry_cell_setting           monoclinic
_symmetry_space_group_name_H-M   'P 2/c'
_symmetry_Int_Tables_number      13
_space_group_name_Hall           '-P 2yc'
loop_
_symmetry_equiv_pos_site_id
_symmetry_equiv_pos_as_xyz
1 x,y,z
2 -x,y,1/2-z
3 -x,-y,-z
4 x,-y,1/2+z
_cell_length_a                   11.082(2)
_cell_length_b                   9.1820(10)
_cell_length_c                   16.959(2)
_cell_angle_alpha                90
_cell_angle_beta                 92.360(10)
_cell_angle_gamma                90
_cell_volume                     1724.2
loop_
_atom_site_label
_atom_site_type_symbol
_atom_site_fract_x
_atom_site_fract_y
_atom_site_fract_z
La1 La 0.49388(3) 0.90965(4) 0.120206(18)
O1 O 0.7157(4) 0.8373(6) 0.1484(3)
O2 O 0.6254(4) 0.8736(5) 0.2597(3)
O3 O 0.3433(4) 1.1209(5) 0.1183(3)
O4 O 0.2221(4) 1.1708(6) 0.2158(3)
O5 O -0.2889(4) 1.1895(5) -0.0587(2)
O6 O -0.3877(4) 1.0551(5) 0.0236(2)
O7 O 0.5755(4) 0.7296(6) 0.0144(3)
O8 O 0.5800(4) 1.1523(5) 0.1893(3)
O9 O 0.4806(5) 0.6363(6) 0.1647(3)
C1 C 0.7209(5) 0.8473(7) 0.2219(3)
C2 C 0.8377(5) 0.8339(8) 0.2664(4)
H1 H 0.8389 0.8314 0.3212
C3 C 0.9415(5) 0.8254(7) 0.2298(4)
H2 H 0.9383 0.8191 0.1750
C4 C 0.2416(5) 1.1539(7) 0.1450(4)
C5 C 0.1394(6) 1.1682(8) 0.0856(4)
H3 H 0.1571 1.1858 0.0333
C6 C 0.0245(6) 1.1572(8) 0.1035(4)
H4 H 0.0077 1.1457 0.1564
C7 C -0.0772(6) 1.1616(8) 0.0466(4)
H5 H -0.0629 1.1884 -0.0051
C8 C -0.1901(6) 1.1292(7) 0.0647(4)
H6 H -0.2050 1.1071 0.1170
C9 C -0.2930(5) 1.1264(7) 0.0062(4)
H7 H 0.607(8) 0.767(10) -0.024(4)
H8 H 0.609(9) 0.648(5) 0.017(6)
H9 H 0.640(6) 1.144(12) 0.221(5)
H10 H 0.410(3) 0.608(11) 0.165(7)
H11 H 0.519(11) 0.559(9) 0.158(14)
H12 H 0.532(10) 1.17(2) 0.224(6)
O1A O 1.2843(4) 0.8373(6) 0.3516(3)
O2A O 1.3746(4) 0.8736(5) 0.2403(3)
C1A C 1.2791(5) 0.8473(7) 0.2781(3)
C2A C 1.1623(5) 0.8339(8) 0.2336(4)
H1A H 1.1611 0.8314 0.1788
C3A C 1.0585(5) 0.8254(7) 0.2702(4)
H2A H 1.0617 0.8191 0.3250
La1A La 0.50612(3) 0.90965(4) 0.379794(18)
O3A O 0.6567(4) 1.1209(5) 0.3817(3)
O4A O 0.7779(4) 1.1708(6) 0.2842(3)
O5A O 1.2889(4) 1.1895(5) 0.5587(2)
O6A O 1.3877(4) 1.0551(5) 0.4764(2)
O7A O 0.4245(4) 0.7296(6) 0.4856(3)
O8A O 0.4200(4) 1.1523(5) 0.3107(3)
O9A O 0.5194(5) 0.6363(6) 0.3353(3)
C4A C 0.7584(5) 1.1539(7) 0.3550(4)
C5A C 0.8606(6) 1.1682(8) 0.4144(4)
H3A H 0.8429 1.1858 0.4667
C6A C 0.9755(6) 1.1572(8) 0.3965(4)
H4A H 0.9923 1.1457 0.3436
C7A C 1.0772(6) 1.1616(8) 0.4534(4)
H5A H 1.0629 1.1884 0.5051
C8A C 1.1901(6) 1.1292(7) 0.4353(4)
H6A H 1.2050 1.1071 0.3830
C9A C 1.2930(5) 1.1264(7) 0.4938(4)
H7A H 0.393(8) 0.767(10) 0.524(4)
H8A H 0.391(9) 0.648(5) 0.483(6)
H9A H 0.360(6) 1.144(12) 0.279(5)
H10A H 0.590(3) 0.608(11) 0.335(7)
H11A H 0.481(11) 0.559(9) 0.342(14)
H12A H 0.468(10) 1.17(2) 0.276(6)
La1_2 La -0.50612(3) 0.90965(4) 0.120206(18)
La1_3 La 1.49388(3) 0.90965(4) 0.120206(18)
La1A_2 La 1.50612(3) 0.90965(4) 0.379794(18)
La1B La -0.49388(3) 1.09035(4) -0.120206(18)
La1C La 1.49388(3) 1.09035(4) 0.620206(18)
O1A_2 O 0.2843(4) 0.8373(6) 0.3516(3)
O2A_2 O 0.3746(4) 0.8736(5) 0.2403(3)
O5B O 0.2889(4) 0.8105(5) 0.0587(2)
O5C O 0.7111(4) 0.8105(5) 0.4413(2)
O6_2 O 0.6123(4) 1.0551(5) 0.0236(2)
O6A_2 O 0.3877(4) 1.0551(5) 0.4764(2)
O6B O 0.3877(4) 0.9449(5) -0.0236(2)
O6C O 0.6123(4) 0.9449(5) 0.5236(2)
O10 O 0.5886(7) 1.4033(6) 0.0933(4)
H13 H 0.576(19) 1.472(10) 0.124(7)
H14 H 0.588(10) 1.340(9) 0.128(5)
O11 O 0.8748(8) 0.4400(9) 0.2429(6)
H15 H 0.845(9) 0.363(7) 0.260(6)
H16 H 0.940(10) 0.44(3) 0.269(11)
O12 O 0.8061(8) 0.5512(9) 0.0869(7)
O13 O 0.2529(14) 0.5286(18) 0.1309(10)
H17? H 0.49(2) 0.62(2) 0.212(3)
H18? H 0.85(2) 0.46(3) 0.196(5)
O14? O 0.216(4) 0.534(5) 0.098(3)
O15? O 0.137(4) 0.558(4) 0.082(2)
O16? O 0.024(3) 0.511(4) 0.0243(17)
loop_
_geom_bond_atom_site_label_1
_geom_bond_atom_site_label_2
_geom_bond_site_symmetry_1
_geom_bond_site_symmetry_2
La1 O1 1_555 1_555
O1 C1 1_555 1_555
O2 La1 1_555 1_555
O3 La1 1_555 1_555
O4 C4 1_555 1_555
O5 C9 1_555 1_555
O6 C9 1_555 1_555
O7 La1 1_555 1_555
O8 La1 1_555 1_555
O9 La1 1_555 1_555
C1 O2 1_555 1_555
C2 C1 1_555 1_555
H1 C2 1_555 1_555
C3 C2 1_555 1_555
H2 C3 1_555 1_555
C4 O3 1_555 1_555
C5 C4 1_555 1_555
H3 C5 1_555 1_555
C6 C5 1_555 1_555
H4 C6 1_555 1_555
C7 C6 1_555 1_555
H5 C7 1_555 1_555
C8 C7 1_555 1_555
H6 C8 1_555 1_555
C9 C8 1_555 1_555
H7 O7 1_555 1_555
H8 O7 1_555 1_555
H9 O8 1_555 1_555
H10 O9 1_555 1_555
H11 O9 1_555 1_555
H12 O8 1_555 1_555
O10 H13 1_555 1_555
H14 O10 1_555 1_555
O11 H15 1_555 1_555
H16 O11 1_555 1_555
O1A C1A 1_555 1_555
O2A C1A 1_555 1_555
C1A C2A 1_555 1_555
C2A H1A 1_555 1_555
C3A C3 1_555 1_555
H2A C3A 1_555 1_555
La1A O2 1_555 1_555
O3A La1A 1_555 1_555
O4A C4A 1_555 1_555
O5A C9A 1_555 1_555
O6A C9A 1_555 1_555
O7A La1A 1_555 1_555
O8A La1A 1_555 1_555
O9A La1A 1_555 1_555
C4A O3A 1_555 1_555
C5A C4A 1_555 1_555
H3A C5A 1_555 1_555
C6A C5A 1_555 1_555
H4A C6A 1_555 1_555
C7A C6A 1_555 1_555
H5A C7A 1_555 1_555
C8A C7A 1_555 1_555
H6A C8A 1_555 1_555
C9A C8A 1_555 1_555
H7A O7A 1_555 1_555
H8A O7A 1_555 1_555
H9A O8A 1_555 1_555
H10A O9A 1_555 1_555
H11A O9A 1_555 1_555
H12A O8A 1_555 1_555
La1_2 O6 1_555 1_555
La1_3 O2A 1_555 1_555
La1A_2 O1A 1_555 1_555
La1B O5 1_555 1_555
La1C O5A 1_555 1_555
O1A_2 La1A 1_555 1_555
O2A_2 La1 1_555 1_555
O5B La1 1_555 1_555
O5C La1A 1_555 1_555
O6_2 La1 1_555 1_555
O6A_2 La1A 1_555 1_555
O6B La1 1_555 1_555
O6C La1A 1_555 1_555
O6 La1B 1_555 1_555
O2A La1A_2 1_555 1_555
C2A C3A 1_555 1_555
La1A O2A_2 1_555 1_555
O6A La1A_2 1_555 1_555
O6A La1C 1_555 1_555

#END
