
#######################################################################
#
#                 Cambridge Crystallographic Data Centre
#                                CCDC 
#
#######################################################################
#
# If this CIF has been generated from an entry in the Cambridge 
# Structural Database, then it will include bibliographic, chemical, 
# crystal, experimental, refinement or atomic coordinate data resulting 
# from the CCDC's data processing and validation procedures.
#
#######################################################################

data_ZOPPAX
_symmetry_cell_setting           triclinic
_symmetry_space_group_name_H-M   'P -1'
_symmetry_Int_Tables_number      2
_space_group_name_Hall           '-P 1'
loop_
_symmetry_equiv_pos_site_id
_symmetry_equiv_pos_as_xyz
1 x,y,z
2 -x,-y,-z
_cell_length_a                   10.265(2)
_cell_length_b                   11.156(3)
_cell_length_c                   17.440(4)
_cell_angle_alpha                108.484(3)
_cell_angle_beta                 97.675(3)
_cell_angle_gamma                101.579(3)
_cell_volume                     1813.32
loop_
_atom_site_label
_atom_site_type_symbol
_atom_site_fract_x
_atom_site_fract_y
_atom_site_fract_z
Nd1 Nd 0.792609(13) 0.289637(12) 0.207925(8)
O1 O 0.67377(19) 0.37279(19) 0.11090(12)
N1 N 0.5489(2) 0.3080(2) 0.21973(13)
C1 C 0.4788(3) 0.3510(2) 0.16827(15)
Sr1 Sr 0.58480(3) 0.69710(2) 0.097747(15)
O2 O 0.4970(2) 0.43194(18) 0.05879(11)
N2 N 0.9845(2) 0.3989(2) 0.33917(13)
C2 C 0.3474(3) 0.3614(3) 0.17170(19)
H1 H 0.3017 0.3942 0.1365
O3 O 0.69982(19) 0.2346(2) 0.32148(12)
N3 N 0.8264(2) 0.1665(2) 0.06300(14)
C3 C 0.2852(3) 0.3216(4) 0.2289(2)
H2 H 0.1964 0.3261 0.2320
O4 O 0.5302(2) 0.1865(2) 0.38282(14)
C4 C 0.3572(3) 0.2752(3) 0.2812(2)
H3 H 0.3174 0.2472 0.3195
O5 O 0.8226(2) 0.52799(19) 0.28945(13)
C5 C 0.4895(3) 0.2714(3) 0.27543(16)
C6 C 0.5553(3) 0.3880(2) 0.10752(15)
O6 O 0.9468(3) 0.7186(2) 0.38358(16)
O7 O 0.9325(2) 0.15007(18) 0.24449(12)
C7 C 0.5801(3) 0.2270(3) 0.33116(16)
O8 O 1.0739(3) 0.1096(2) 0.33677(15)
C8 C 1.0109(3) 0.5268(3) 0.38281(17)
O9 O 0.9844(2) 0.3973(2) 0.15825(13)
C9 C 1.1114(3) 0.5871(3) 0.45437(19)
H4 H 1.1295 0.6765 0.4832
O10 O 1.0903(2) 0.4183(2) 0.05781(15)
C10 C 1.1842(3) 0.5119(3) 0.48216(19)
H5 H 1.2517 0.5501 0.5302
O11 O 0.6429(2) 0.06655(18) 0.13335(12)
C11 C 1.1556(3) 0.3792(3) 0.43784(18)
H6 H 1.2029 0.3268 0.4557
C12 C 1.0550(3) 0.3262(3) 0.36623(16)
O12 O 0.5858(2) -0.12747(19) 0.02998(13)
C13 C 0.9199(3) 0.5976(3) 0.34934(18)
O13 O 0.7961(2) 0.6012(2) 0.07980(16)
H7 H 0.8504 0.6027 0.0472
H8 H 0.7842 0.5280 0.0868
C14 C 1.0175(3) 0.1824(3) 0.31202(17)
O14 O 0.3279(3) 0.6475(3) 0.0980(2)
H9 H 0.3002 0.6791 0.1420
H10 H 0.2782 0.5702 0.0725
O15 O 0.8138(2) 0.8753(2) 0.16898(17)
H11 H 0.8815 0.8465 0.1810
H12 H 0.8487 0.9574 0.1859
C15 C 0.9166(3) 0.2251(3) 0.02883(19)
O16 O 0.5302(3) 0.8964(2) 0.20623(15)
H13 H 0.5475 0.9578 0.1872
H14 H 0.4674 0.9150 0.2314
O17 O 0.6434(2) 0.6601(2) 0.23452(13)
H15 H 0.6995 0.6198 0.2480
H16 H 0.5849 0.6692 0.2647
C16 C 0.7434(4) 0.0486(3) 0.01773(19)
C17 C 1.0045(3) 0.3576(3) 0.08503(18)
C18 C 0.6485(3) -0.0104(3) 0.06306(17)
C19 C 0.9270(6) 0.1678(5) -0.0517(3)
H17 H 0.9915 0.2096 -0.0739
C20 C 0.7452(6) -0.0129(4) -0.0634(3)
H18 H 0.6843 -0.0934 -0.0942
C21 C 0.8396(7) 0.0469(5) -0.0992(3)
H19 H 0.8440 0.0063 -0.1539
Sr1_2 Sr 0.58480(3) -0.30290(2) 0.097747(15)
Sr1A Sr 0.41520(3) 0.30290(2) -0.097747(15)
O2A O 0.5030(2) 0.56806(18) -0.05879(11)
O12_2 O 0.5858(2) 0.87253(19) 0.02998(13)
N4 N 0.8043(3) -0.0967(3) 0.42288(19)
H20 H 0.8444 -0.1565 0.4025
N5 N 0.6914(3) 0.0467(3) 0.43243(18)
H21 H 0.6454 0.0965 0.4195
C22 C 0.7389(4) -0.0397(4) 0.3808(2)
H22 H 0.7280 -0.0573 0.3242
C23 C 0.7274(5) 0.0438(4) 0.5097(2)
H23 H 0.7068 0.0946 0.5579
C24 C 0.7981(5) -0.0464(4) 0.5029(3)
H24 H 0.8361 -0.0699 0.5457
O18 O 0.1813(4) 0.6456(4) 0.2347(3)
H25 H 0.1410 0.7058 0.2369
H26 H 0.1216 0.5727 0.2134
O19 O 0.4478(4) 0.7013(6) 0.3249(3)
H27 H 0.3730 0.7026 0.3022
C25 C 0.4371(6) 0.6769(8) 0.4013(3)
H28 H 0.3472 0.6201 0.3921
H29 H 0.4398 0.7598 0.4429
C26 C 0.5368(6) 0.6185(6) 0.4395(5)
H30 H 0.5135 0.5256 0.4107
H31 H 0.5334 0.6363 0.4966
H32 H 0.6271 0.6563 0.4354
O20 O 0.3396(6) 0.9382(6) 0.3040(4)
H33 H 0.2659 0.9613 0.2982
H34 H 0.3893 0.9894 0.3505
O21 O 0.0461(3) 0.8497(3) 0.2745(2)
H35 H 0.0448 0.9293 0.2957
H36 H 0.0132 0.8252 0.3110
loop_
_geom_bond_atom_site_label_1
_geom_bond_atom_site_label_2
_geom_bond_site_symmetry_1
_geom_bond_site_symmetry_2
Nd1 O1 1_555 1_555
O1 C6 1_555 1_555
N1 Nd1 1_555 1_555
C1 N1 1_555 1_555
Sr1 O2 1_555 1_555
O2 C6 1_555 1_555
N2 Nd1 1_555 1_555
C2 C1 1_555 1_555
H1 C2 1_555 1_555
O3 Nd1 1_555 1_555
N3 Nd1 1_555 1_555
C3 C2 1_555 1_555
H2 C3 1_555 1_555
O4 C7 1_555 1_555
C4 C3 1_555 1_555
H3 C4 1_555 1_555
O5 Nd1 1_555 1_555
C5 N1 1_555 1_555
C6 C1 1_555 1_555
O6 C13 1_555 1_555
O7 Nd1 1_555 1_555
C7 O3 1_555 1_555
O8 C14 1_555 1_555
C8 N2 1_555 1_555
O9 Nd1 1_555 1_555
C9 C8 1_555 1_555
H4 C9 1_555 1_555
O10 C17 1_555 1_555
C10 C9 1_555 1_555
H5 C10 1_555 1_555
O11 Nd1 1_555 1_555
C11 C10 1_555 1_555
H6 C11 1_555 1_555
C12 N2 1_555 1_555
O12 C18 1_555 1_555
C13 O5 1_555 1_555
O13 Sr1 1_555 1_555
H7 O13 1_555 1_555
H8 O13 1_555 1_555
C14 O7 1_555 1_555
O14 Sr1 1_555 1_555
H9 O14 1_555 1_555
H10 O14 1_555 1_555
O15 Sr1 1_555 1_555
H11 O15 1_555 1_555
H12 O15 1_555 1_555
C15 N3 1_555 1_555
O16 Sr1 1_555 1_555
H13 O16 1_555 1_555
H14 O16 1_555 1_555
O17 Sr1 1_555 1_555
H15 O17 1_555 1_555
H16 O17 1_555 1_555
C16 N3 1_555 1_555
C17 O9 1_555 1_555
C18 O11 1_555 1_555
C19 C15 1_555 1_555
H17 C19 1_555 1_555
C20 C16 1_555 1_555
H18 C20 1_555 1_555
C21 C19 1_555 1_555
H19 C21 1_555 1_555
N4 H20 1_555 1_555
N5 H21 1_555 1_555
C22 N4 1_555 1_555
H22 C22 1_555 1_555
C23 N5 1_555 1_555
H23 C23 1_555 1_555
C24 N4 1_555 1_555
H24 C24 1_555 1_555
O18 H25 1_555 1_555
H26 O18 1_555 1_555
O19 H27 1_555 1_555
C25 O19 1_555 1_555
H28 C25 1_555 1_555
H29 C25 1_555 1_555
C26 C25 1_555 1_555
H30 C26 1_555 1_555
H31 C26 1_555 1_555
H32 C26 1_555 1_555
O20 H33 1_555 1_555
H34 O20 1_555 1_555
O21 H35 1_555 1_555
H36 O21 1_555 1_555
Sr1_2 O12 1_555 1_555
Sr1A O2 1_555 1_555
O2A Sr1 1_555 1_555
O12_2 Sr1 1_555 1_555
C4 C5 1_555 1_555
C5 C7 1_555 1_555
C8 C13 1_555 1_555
C11 C12 1_555 1_555
C12 C14 1_555 1_555
C15 C17 1_555 1_555
C16 C18 1_555 1_555
C20 C21 1_555 1_555
N5 C22 1_555 1_555
C23 C24 1_555 1_555
Sr1A O2A 1_555 1_555

#END
