
#######################################################################
#
#                 Cambridge Crystallographic Data Centre
#                                CCDC 
#
#######################################################################
#
# If this CIF has been generated from an entry in the Cambridge 
# Structural Database, then it will include bibliographic, chemical, 
# crystal, experimental, refinement or atomic coordinate data resulting 
# from the CCDC's data processing and validation procedures.
#
#######################################################################

data_ZOPPEB
_symmetry_cell_setting           triclinic
_symmetry_space_group_name_H-M   'P -1'
_symmetry_Int_Tables_number      2
_space_group_name_Hall           '-P 1'
loop_
_symmetry_equiv_pos_site_id
_symmetry_equiv_pos_as_xyz
1 x,y,z
2 -x,-y,-z
_cell_length_a                   10.394(2)
_cell_length_b                   11.066(2)
_cell_length_c                   30.409(6)
_cell_angle_alpha                88.42(3)
_cell_angle_beta                 87.81(3)
_cell_angle_gamma                79.04(3)
_cell_volume                     3430.6
loop_
_atom_site_label
_atom_site_type_symbol
_atom_site_fract_x
_atom_site_fract_y
_atom_site_fract_z
Nd1 Nd 0.443555(17) 0.345215(16) 0.373061(6)
O1 O 0.5387(2) 0.4929(2) 0.32493(8)
N1 N 0.6834(3) 0.3621(2) 0.38396(9)
C1 C 0.7394(3) 0.4431(3) 0.36003(11)
C2 C 1.1310(4) 0.8948(4) 0.02286(13)
H1 H 1.1429 0.8211 0.0079
Nd2 Nd 0.872934(18) 1.045696(16) 0.149096(6)
O2 O 0.7030(2) 0.5841(2) 0.30043(8)
N2 N 0.2950(3) 0.3399(3) 0.44238(9)
C3 C 0.8658(4) 0.4573(4) 0.36565(12)
H2 H 0.9015 0.5158 0.3492
Sr1 Sr 0.72909(3) 0.57212(3) 0.215079(11)
O3 O 0.5668(2) 0.1995(2) 0.42699(8)
N3 N 0.3648(3) 0.3293(3) 0.29458(9)
C4 C 0.9379(4) 0.3833(4) 0.39598(13)
H3 H 1.0238 0.3911 0.4008
O4 O 0.7452(3) 0.1228(3) 0.46251(9)
N4 N 0.6315(3) 1.0279(3) 0.14695(9)
C5 C 0.8820(4) 0.2962(4) 0.41963(12)
H4 H 0.9309 0.2431 0.4397
O5 O 0.4320(3) 0.5149(2) 0.42425(8)
C6 C 0.7545(3) 0.2893(3) 0.41316(11)
N5 N 1.0305(3) 1.0174(3) 0.08142(9)
O6 O 0.3587(3) 0.6121(3) 0.48563(10)
C7 C 0.6542(4) 0.5140(3) 0.32547(11)
N6 N 0.9666(3) 1.0894(3) 0.22170(10)
O7 O 0.3156(2) 0.1741(2) 0.38137(8)
C8 C 0.6850(4) 0.1964(3) 0.43677(11)
O8 O 0.1797(3) 0.0716(3) 0.41790(10)
C9 C 0.2895(4) 0.4273(3) 0.47208(12)
O9 O 0.5703(2) 0.1872(2) 0.32669(8)
C10 C 0.2168(4) 0.4247(4) 0.51075(13)
H5 H 0.2116 0.4873 0.5309
O10 O 0.6171(3) 0.0910(2) 0.26363(8)
C11 C 0.1516(5) 0.3287(4) 0.51940(14)
H6 H 0.1034 0.3254 0.5457
O11 O 0.2378(2) 0.4816(2) 0.35175(8)
C12 C 0.1583(4) 0.2378(4) 0.48898(12)
H7 H 0.1155 0.1720 0.4942
O12 O 0.0932(3) 0.5674(3) 0.30316(9)
C13 C 0.2309(3) 0.2474(3) 0.45029(11)
O13 O 0.7934(2) 0.9021(2) 0.20202(8)
C14 C 0.3663(4) 0.5265(3) 0.45966(12)
O14 O 0.6415(2) 0.8023(2) 0.23094(8)
C15 C 0.2417(3) 0.1558(3) 0.41411(12)
O15 O 0.7437(3) 1.1643(2) 0.09110(8)
C16 C 0.4366(3) 0.2523(3) 0.26701(11)
O16 O 0.5569(3) 1.2474(3) 0.06241(10)
C17 C 0.4055(4) 0.2467(4) 0.22374(13)
H8 H 0.4591 0.1930 0.2048
O17 O 0.8769(3) 0.8588(2) 0.10385(9)
C18 C 0.2955(5) 0.3207(5) 0.20906(15)
H9 H 0.2720 0.3177 0.1800
O18 O 0.9917(3) 0.7162(3) 0.06128(11)
C19 C 0.2198(4) 0.4000(4) 0.23769(14)
H10 H 0.1430 0.4503 0.2285
O19 O 1.0012(3) 1.2124(2) 0.13070(8)
C20 C 0.2587(3) 0.4042(3) 0.28027(12)
O20 O 1.1327(3) 1.3018(3) 0.08640(10)
C21 C 0.5517(3) 0.1706(3) 0.28691(11)
O21 O 1.0681(3) 0.9044(3) 0.17204(9)
C22 C 0.1892(3) 0.4923(3) 0.31399(12)
O22 O 1.2075(3) 0.8265(3) 0.22294(12)
C23 C 0.5813(3) 0.9528(3) 0.17509(11)
O23 O 0.7596(2) 1.2265(2) 0.18948(8)
C24 C 0.4519(4) 0.9433(4) 0.17601(13)
H11 H 0.4194 0.8899 0.1958
O24 O 0.7415(3) 1.3562(2) 0.24518(9)
C25 C 0.3710(4) 1.0156(4) 0.14668(14)
H12 H 0.2826 1.0112 0.1461
O25 O 0.7387(3) 0.6825(3) 0.13998(8)
H13 H 0.7924 0.7316 0.1401
H14 H 0.6688 0.6850 0.1261
C26 C 0.4227(4) 1.0943(4) 0.11824(13)
H15 H 0.3691 1.1451 0.0987
O26 O 0.9289(3) 0.4379(3) 0.17395(10)
H16 H 0.9851 0.4847 0.1738
H17 H 0.9572 0.3728 0.1597
C27 C 0.5546(3) 1.0971(3) 0.11899(11)
O27 O 0.6217(3) 0.4471(3) 0.15816(9)
H18 H 0.5808 0.4949 0.1388
H19 H 0.6541 0.3806 0.1452
C28 C 0.6794(4) 0.8797(3) 0.20562(11)
O28 O 0.4848(3) 0.5905(3) 0.24001(9)
H20 H 0.4307 0.6041 0.2194
H21 H 0.4578 0.5247 0.2473
C29 C 0.6227(4) 1.1763(3) 0.08834(11)
O29 O 0.9434(3) 0.6568(3) 0.22671(11)
H22 H 0.9987 0.6465 0.2470
H23 H 0.9497 0.7187 0.2102
C30 C 1.0471(3) 0.9141(3) 0.05872(12)
C31 C 1.1981(4) 0.9864(4) 0.00922(13)
H24 H 1.2533 0.9762 -0.0157
C32 C 1.1825(4) 1.0920(4) 0.03261(12)
H25 H 1.2284 1.1539 0.0244
C33 C 1.0974(3) 1.1047(3) 0.06872(11)
C34 C 0.9654(4) 0.8218(3) 0.07592(12)
C35 C 1.0754(4) 1.2169(3) 0.09724(12)
C36 C 1.0716(4) 1.0156(4) 0.23602(13)
C37 C 1.1314(5) 1.0421(5) 0.27355(16)
H26 H 1.2056 0.9891 0.2834
C38 C 1.0814(6) 1.1453(6) 0.29577(17)
H27 H 1.1220 1.1647 0.3207
C39 C 0.9704(5) 1.2215(5) 0.28148(14)
H28 H 0.9336 1.2925 0.2965
C40 C 0.9154(4) 1.1892(4) 0.24420(12)
C41 C 1.1198(4) 0.9060(4) 0.20839(14)
C42 C 0.7950(4) 1.2644(3) 0.22520(12)
Sr1_2 Sr 0.72909(3) 1.57212(3) 0.215079(11)
O24_2 O 0.7415(3) 0.3562(2) 0.24518(9)
N7 N 0.8375(4) 0.5513(3) 0.04280(13)
H29 H 0.8839 0.5998 0.0532
N8 N 0.7198(5) 0.4144(4) 0.03832(14)
H30 H 0.6754 0.3583 0.0454
C43 C 0.7857(6) 0.4686(5) 0.06543(16)
H31 H 0.7942 0.4512 0.0954
C44 C 0.8055(6) 0.5467(5) 0.00107(16)
H32 H 0.8299 0.5954 -0.0220
C45 C 0.7335(7) 0.4615(5) -0.00201(17)
H33 H 0.6987 0.4385 -0.0275
N9 N 0.3745(3) 0.9453(3) 0.34186(11)
H34 H 0.3664 1.0181 0.3522
N10 N 0.4373(4) 0.7902(3) 0.30285(12)
H35 H 0.4773 0.7430 0.2826
C46 C 0.4525(4) 0.9016(4) 0.30903(14)
H36 H 0.5089 0.9432 0.2929
C47 C 0.3495(5) 0.7586(4) 0.33275(16)
H37 H 0.3232 0.6829 0.3357
C48 C 0.3082(4) 0.8572(4) 0.35711(14)
H38 H 0.2459 0.8645 0.3801
N11 N 0.9405(4) 0.8199(4) 0.34411(17)
H39 H 0.9900 0.7508 0.3506
N12 N 0.8066(3) 0.9549(3) 0.31170(11)
H40 H 0.7516 0.9913 0.2930
C49 C 0.8643(5) 0.8413(5) 0.31038(17)
H41 H 0.8539 0.7848 0.2893
C50 C 0.8451(5) 1.0075(5) 0.34649(16)
H42 H 0.8174 1.0889 0.3546
C51 C 0.9282(5) 0.9245(7) 0.36703(18)
H43 H 0.9709 0.9351 0.3926
N13 N 0.5383(4) 0.9543(4) 0.43463(13)
H44 H 0.5419 1.0314 0.4344
N14 N 0.4817(4) 0.7819(3) 0.45129(12)
H45 H 0.4444 0.7273 0.4645
C52 C 0.4596(5) 0.8998(4) 0.45987(15)
H46 H 0.3982 0.9386 0.4805
C53 C 0.5723(5) 0.7610(5) 0.41842(16)
H47 H 0.6016 0.6863 0.4047
C54 C 0.6131(5) 0.8667(5) 0.40893(17)
H48 H 0.6795 0.8782 0.3888
C55 C 0.5465(7) 0.8279(7) 0.0420(2)
H49 H 0.5563 0.8958 0.0597
H50 H 0.5090 0.8587 0.0145
H51 H 0.6308 0.7769 0.0364
C56 C 0.4580(8) 0.7535(8) 0.0658(3)
H52 H 0.3762 0.8082 0.0736
H53 H 0.4379 0.6937 0.0457
O30 O 0.5041(5) 0.6952(6) 0.1014(2)
H54 H 0.4491 0.6588 0.1127
O31 O 0.3142(4) 0.6407(4) 0.17006(14)
H55 H 0.2829 0.6051 0.1497
H56 H 0.2434 0.6796 0.1819
O32 O 0.1303(4) 0.5287(3) 0.12076(12)
H57 H 0.1164 0.5789 0.0990
H58 H 0.1248 0.4561 0.1136
O33 O 0.0889(3) 0.6607(3) 0.40302(10)
H59 H 0.1506 0.6058 0.3928
H60 H 0.1217 0.6992 0.4222
O34 O 0.1166(4) 0.8561(3) 0.46059(11)
H61 H 0.1303 0.9247 0.4501
H62 H 0.1465 0.8570 0.4862
O35 O 0.4075(6) 0.4490(6) 0.1006(2)
H63 H 0.3246 0.4577 0.1032
H64 H 0.4450 0.3843 0.0875
loop_
_geom_bond_atom_site_label_1
_geom_bond_atom_site_label_2
_geom_bond_site_symmetry_1
_geom_bond_site_symmetry_2
Nd1 O1 1_555 1_555
O1 C7 1_555 1_555
N1 Nd1 1_555 1_555
C1 N1 1_555 1_555
C2 H1 1_555 1_555
Nd2 N4 1_555 1_555
O2 Sr1 1_555 1_555
N2 Nd1 1_555 1_555
C3 C1 1_555 1_555
H2 C3 1_555 1_555
Sr1 O14 1_555 1_555
O3 Nd1 1_555 1_555
N3 Nd1 1_555 1_555
C4 C3 1_555 1_555
H3 C4 1_555 1_555
O4 C8 1_555 1_555
N4 C23 1_555 1_555
C5 C4 1_555 1_555
H4 C5 1_555 1_555
O5 Nd1 1_555 1_555
C6 N1 1_555 1_555
N5 Nd2 1_555 1_555
O6 C14 1_555 1_555
C7 C1 1_555 1_555
N6 Nd2 1_555 1_555
O7 Nd1 1_555 1_555
C8 O3 1_555 1_555
O8 C15 1_555 1_555
C9 N2 1_555 1_555
O9 Nd1 1_555 1_555
C10 C9 1_555 1_555
H5 C10 1_555 1_555
O10 C21 1_555 1_555
C11 C10 1_555 1_555
H6 C11 1_555 1_555
O11 Nd1 1_555 1_555
C12 C11 1_555 1_555
H7 C12 1_555 1_555
O12 C22 1_555 1_555
C13 N2 1_555 1_555
O13 Nd2 1_555 1_555
C14 O5 1_555 1_555
O14 C28 1_555 1_555
C15 O7 1_555 1_555
O15 Nd2 1_555 1_555
C16 N3 1_555 1_555
O16 C29 1_555 1_555
C17 C16 1_555 1_555
H8 C17 1_555 1_555
O17 Nd2 1_555 1_555
C18 C17 1_555 1_555
H9 C18 1_555 1_555
O18 C34 1_555 1_555
C19 C18 1_555 1_555
H10 C19 1_555 1_555
O19 Nd2 1_555 1_555
C20 N3 1_555 1_555
O20 C35 1_555 1_555
C21 O9 1_555 1_555
O21 Nd2 1_555 1_555
C22 O11 1_555 1_555
O22 C41 1_555 1_555
C23 C24 1_555 1_555
O23 Nd2 1_555 1_555
C24 H11 1_555 1_555
O24 C42 1_555 1_555
C25 C24 1_555 1_555
H12 C25 1_555 1_555
O25 Sr1 1_555 1_555
H13 O25 1_555 1_555
H14 O25 1_555 1_555
C26 C25 1_555 1_555
H15 C26 1_555 1_555
O26 Sr1 1_555 1_555
H16 O26 1_555 1_555
H17 O26 1_555 1_555
C27 N4 1_555 1_555
O27 Sr1 1_555 1_555
H18 O27 1_555 1_555
H19 O27 1_555 1_555
C28 O13 1_555 1_555
O28 Sr1 1_555 1_555
H20 O28 1_555 1_555
H21 O28 1_555 1_555
C29 O15 1_555 1_555
O29 Sr1 1_555 1_555
H22 O29 1_555 1_555
H23 O29 1_555 1_555
C30 C2 1_555 1_555
C31 C2 1_555 1_555
H24 C31 1_555 1_555
C32 C31 1_555 1_555
H25 C32 1_555 1_555
C33 N5 1_555 1_555
C34 O17 1_555 1_555
C35 O19 1_555 1_555
C36 N6 1_555 1_555
C37 C36 1_555 1_555
H26 C37 1_555 1_555
C38 C37 1_555 1_555
H27 C38 1_555 1_555
C39 C38 1_555 1_555
H28 C39 1_555 1_555
C40 N6 1_555 1_555
C41 O21 1_555 1_555
C42 O23 1_555 1_555
N7 H29 1_555 1_555
N8 H30 1_555 1_555
C43 N7 1_555 1_555
H31 C43 1_555 1_555
C44 N7 1_555 1_555
H32 C44 1_555 1_555
C45 N8 1_555 1_555
H33 C45 1_555 1_555
N9 H34 1_555 1_555
N10 H35 1_555 1_555
C46 N9 1_555 1_555
H36 C46 1_555 1_555
C47 N10 1_555 1_555
H37 C47 1_555 1_555
C48 N9 1_555 1_555
H38 C48 1_555 1_555
N11 H39 1_555 1_555
N12 H40 1_555 1_555
C49 N11 1_555 1_555
H41 C49 1_555 1_555
C50 N12 1_555 1_555
H42 C50 1_555 1_555
C51 N11 1_555 1_555
H43 C51 1_555 1_555
N13 H44 1_555 1_555
N14 H45 1_555 1_555
C52 N13 1_555 1_555
H46 C52 1_555 1_555
C53 N14 1_555 1_555
H47 C53 1_555 1_555
C54 N13 1_555 1_555
H48 C54 1_555 1_555
C55 H49 1_555 1_555
H50 C55 1_555 1_555
H51 C55 1_555 1_555
C56 C55 1_555 1_555
H52 C56 1_555 1_555
H53 C56 1_555 1_555
O30 C56 1_555 1_555
H54 O30 1_555 1_555
O31 H55 1_555 1_555
H56 O31 1_555 1_555
O32 H57 1_555 1_555
H58 O32 1_555 1_555
O33 H59 1_555 1_555
H60 O33 1_555 1_555
O34 H61 1_555 1_555
H62 O34 1_555 1_555
O35 H63 1_555 1_555
H64 O35 1_555 1_555
Sr1_2 O24 1_555 1_555
O24_2 Sr1 1_555 1_555
O2 C7 1_555 1_555
C5 C6 1_555 1_555
C6 C8 1_555 1_555
N5 C30 1_555 1_555
C9 C14 1_555 1_555
C12 C13 1_555 1_555
C13 C15 1_555 1_555
C16 C21 1_555 1_555
C19 C20 1_555 1_555
C20 C22 1_555 1_555
C23 C28 1_555 1_555
C26 C27 1_555 1_555
C27 C29 1_555 1_555
C30 C34 1_555 1_555
C32 C33 1_555 1_555
C33 C35 1_555 1_555
C36 C41 1_555 1_555
C39 C40 1_555 1_555
C40 C42 1_555 1_555
N8 C43 1_555 1_555
C44 C45 1_555 1_555
N10 C46 1_555 1_555
C47 C48 1_555 1_555
N12 C49 1_555 1_555
C50 C51 1_555 1_555
N14 C52 1_555 1_555
C53 C54 1_555 1_555

#END
