
#######################################################################
#
#                 Cambridge Crystallographic Data Centre
#                                CCDC 
#
#######################################################################
#
# If this CIF has been generated from an entry in the Cambridge 
# Structural Database, then it will include bibliographic, chemical, 
# crystal, experimental, refinement or atomic coordinate data resulting 
# from the CCDC's data processing and validation procedures.
#
#######################################################################

data_ZOPZUB
_symmetry_cell_setting           orthorhombic
_symmetry_space_group_name_H-M   'P n n 2'
_symmetry_Int_Tables_number      34
_space_group_name_Hall           'P 2 -2n'
loop_
_symmetry_equiv_pos_site_id
_symmetry_equiv_pos_as_xyz
1 x,y,z
2 -x,-y,z
3 1/2+x,1/2-y,1/2+z
4 1/2-x,1/2+y,1/2+z
_cell_length_a                   9.568(3)
_cell_length_b                   17.673(6)
_cell_length_c                   9.560(3)
_cell_angle_alpha                90
_cell_angle_beta                 90
_cell_angle_gamma                90
_cell_volume                     1616.55
loop_
_atom_site_label
_atom_site_type_symbol
_atom_site_fract_x
_atom_site_fract_y
_atom_site_fract_z
Cu1 Cu 0.95753(7) 0.92235(4) 0.27713(7)
Cu2 Cu 1.15954(6) 0.97065(4) 0.09065(7)
N1 N 0.8574(4) 0.8444(2) 0.3894(4)
N2 N 0.7705(4) 0.7789(2) 0.5628(4)
N3 N 0.4636(3) 0.9007(2) 0.8095(4)
N4 N 0.2901(3) 0.9398(2) 0.9388(4)
Br1 Br 0.92244(4) 0.89384(2) 0.02405(5)
Br2 Br 1.20268(5) 0.95575(3) 0.33911(5)
C1 C 0.8614(4) 0.8317(3) 0.5220(6)
C2 C 0.6993(6) 0.7555(3) 0.4396(6)
H1 H 0.6292 0.7193 0.4326
C3 C 0.7543(5) 0.7963(3) 0.3365(6)
H2 H 0.7280 0.7932 0.2431
C4 C 0.9605(6) 0.8687(4) 0.6161(6)
H3 H 0.9699 0.8393 0.7000
H4 H 0.9269 0.9183 0.6392
H5 H 1.0498 0.8727 0.5709
C5 C 0.7319(5) 0.7516(3) 0.6981(6)
H6 H 0.8058 0.7637 0.7638
H7 H 0.7234 0.6969 0.6942
C6 C 0.5952(5) 0.7847(3) 0.7518(6)
H8 H 0.5206 0.7712 0.6878
H9 H 0.5738 0.7623 0.8420
C7 C 0.5990(4) 0.8690(3) 0.7670(6)
H10 H 0.6689 0.8824 0.8361
H11 H 0.6267 0.8913 0.6785
C8 C 0.4184(4) 0.9109(2) 0.9401(5)
C9 C 0.3602(5) 0.9225(3) 0.7195(6)
H12 H 0.3625 0.9213 0.6223
C10 C 0.2544(5) 0.9460(3) 0.8011(5)
H13 H 0.1691 0.9639 0.7684
C11 C 0.4987(4) 0.8932(3) 1.0689(5)
H14 H 0.4528 0.9152 1.1483
H15 H 0.5914 0.9136 1.0609
H16 H 0.5040 0.8393 1.0806
Cu1A Cu 1.04247(7) 1.07765(4) 0.27713(7)
Cu2_2 Cu 0.15954(6) 0.97065(4) 1.09065(7)
Cu2A Cu 0.84046(6) 1.02935(4) 0.09065(7)
N4_2 N 1.2901(3) 0.9398(2) -0.0612(4)
Br1A Br 1.07756(4) 1.10616(2) 0.02405(5)
Br2A Br 0.79732(5) 1.04425(3) 0.33911(5)
loop_
_geom_bond_atom_site_label_1
_geom_bond_atom_site_label_2
_geom_bond_site_symmetry_1
_geom_bond_site_symmetry_2
Cu1 N1 1_555 1_555
Cu2 Br1 1_555 1_555
N1 C1 1_555 1_555
N2 C1 1_555 1_555
N3 C7 1_555 1_555
N4 C8 1_555 1_555
Br1 Cu1 1_555 1_555
Br2 Cu1 1_555 1_555
C1 C4 1_555 1_555
C2 N2 1_555 1_555
H1 C2 1_555 1_555
C3 N1 1_555 1_555
H2 C3 1_555 1_555
C4 H3 1_555 1_555
H4 C4 1_555 1_555
H5 C4 1_555 1_555
C5 N2 1_555 1_555
H6 C5 1_555 1_555
H7 C5 1_555 1_555
C6 C5 1_555 1_555
H8 C6 1_555 1_555
H9 C6 1_555 1_555
C7 C6 1_555 1_555
H10 C7 1_555 1_555
H11 C7 1_555 1_555
C8 N3 1_555 1_555
C9 N3 1_555 1_555
H12 C9 1_555 1_555
C10 N4 1_555 1_555
H13 C10 1_555 1_555
C11 C8 1_555 1_555
H14 C11 1_555 1_555
H15 C11 1_555 1_555
H16 C11 1_555 1_555
Cu1A Br2 1_555 1_555
Cu2_2 N4 1_555 1_555
Cu2A Br1 1_555 1_555
N4_2 Cu2 1_555 1_555
Br1A Cu2 1_555 1_555
Br2A Cu1 1_555 1_555
Cu2 Br2 1_555 1_555
C2 C3 1_555 1_555
C9 C10 1_555 1_555
Cu1A Br1A 1_555 1_555
Cu1A Br2A 1_555 1_555
Cu2A Br1A 1_555 1_555
Cu2A Br2A 1_555 1_555

#END
