
#######################################################################
#
#                 Cambridge Crystallographic Data Centre
#                                CCDC 
#
#######################################################################
#
# If this CIF has been generated from an entry in the Cambridge 
# Structural Database, then it will include bibliographic, chemical, 
# crystal, experimental, refinement or atomic coordinate data resulting 
# from the CCDC's data processing and validation procedures.
#
#######################################################################

data_ZOQBIS
_symmetry_cell_setting           monoclinic
_symmetry_space_group_name_H-M   'P 21/n'
_symmetry_Int_Tables_number      14
_space_group_name_Hall           '-P 2yn'
loop_
_symmetry_equiv_pos_site_id
_symmetry_equiv_pos_as_xyz
1 x,y,z
2 1/2-x,1/2+y,1/2-z
3 -x,-y,-z
4 1/2+x,1/2-y,1/2+z
_cell_length_a                   9.4933(12)
_cell_length_b                   19.380(2)
_cell_length_c                   11.4845(14)
_cell_angle_alpha                90
_cell_angle_beta                 94.559(2)
_cell_angle_gamma                90
_cell_volume                     2106.23
loop_
_atom_site_label
_atom_site_type_symbol
_atom_site_fract_x
_atom_site_fract_y
_atom_site_fract_z
Zn1 Zn 0.74039(3) 0.545842(13) 0.26590(3)
S1 S 0.54052(8) 0.73233(3) -0.07623(6)
O1 O 0.6755(3) 0.60222(11) 0.0159(2)
O2 O 0.6058(2) 0.61180(10) 0.19564(19)
O3 O 0.4414(3) 0.85005(11) -0.2256(2)
O4 O 0.3248(2) 0.90470(9) -0.09462(17)
N1 N 0.6044(2) 0.47879(10) 0.3337(2)
N2 N 0.5157(3) 0.39770(10) 0.4389(2)
N3 N 0.4686(2) 0.08539(10) 0.5697(2)
N4 N 0.3787(2) 0.00955(10) 0.68433(19)
C1 C 0.6138(3) 0.63202(13) 0.0909(3)
C2 C 0.5402(3) 0.69794(13) 0.0609(2)
C3 C 0.4662(3) 0.73807(15) 0.1311(3)
H1 H 0.4542 0.7277 0.2087
C4 C 0.4093(3) 0.79735(15) 0.0732(3)
H2 H 0.3561 0.8303 0.1090
C5 C 0.4399(3) 0.80129(12) -0.0391(2)
C6 C 0.4005(3) 0.85535(13) -0.1279(3)
C7 C 0.4602(3) 0.48382(15) 0.3230(3)
H3 H 0.4085 0.5162 0.2776
C8 C 0.4047(3) 0.43445(15) 0.3885(3)
H4 H 0.3094 0.4270 0.3974
C9 C 0.6349(3) 0.42630(13) 0.4049(3)
C10 C 0.7789(4) 0.4033(2) 0.4441(4)
H5 H 0.8455 0.4385 0.4270
H6 H 0.8001 0.3616 0.4040
H7 H 0.7848 0.3950 0.5267
C11 C 0.5046(4) 0.33858(13) 0.5174(3)
H8 H 0.4194 0.3434 0.5581
H9 H 0.5846 0.3391 0.5755
C12 C 0.5006(3) 0.26982(13) 0.4550(3)
H10 H 0.5867 0.2639 0.4160
H11 H 0.4214 0.2690 0.3961
C13 C 0.4859(4) 0.21087(13) 0.5408(3)
H12 H 0.5654 0.2121 0.5994
H13 H 0.4005 0.2177 0.5804
C14 C 0.4801(3) 0.14063(13) 0.4832(2)
H14 H 0.3994 0.1386 0.4259
H15 H 0.5648 0.1337 0.4426
C15 C 0.3481(3) 0.05579(12) 0.6002(2)
C16 C 0.2048(3) 0.07095(17) 0.5475(3)
H16 H 0.1414 0.0351 0.5676
H17 H 0.2063 0.0733 0.4641
H18 H 0.1735 0.1143 0.5765
C17 C 0.5224(3) 0.01093(13) 0.7073(3)
H19 H 0.5731 -0.0162 0.7627
C18 C 0.5790(3) 0.05742(14) 0.6377(3)
H20 H 0.6742 0.0684 0.6361
Zn1C Zn 0.24039(3) -0.045842(13) 0.76590(3)
Zn1C_2 Zn 0.24039(3) 0.954158(13) -0.23410(3)
O4C O 0.8248(2) 0.59530(9) 0.40538(17)
N4C N 0.8787(2) 0.49045(10) 0.18433(19)
loop_
_geom_bond_atom_site_label_1
_geom_bond_atom_site_label_2
_geom_bond_site_symmetry_1
_geom_bond_site_symmetry_2
Zn1 O2 1_555 1_555
S1 C2 1_555 1_555
O1 C1 1_555 1_555
O2 C1 1_555 1_555
O3 C6 1_555 1_555
O4 C6 1_555 1_555
N1 Zn1 1_555 1_555
N2 C8 1_555 1_555
N3 C14 1_555 1_555
N4 C15 1_555 1_555
C1 C2 1_555 1_555
C2 C3 1_555 1_555
C3 H1 1_555 1_555
C4 C3 1_555 1_555
H2 C4 1_555 1_555
C5 S1 1_555 1_555
C6 C5 1_555 1_555
C7 N1 1_555 1_555
H3 C7 1_555 1_555
C8 C7 1_555 1_555
H4 C8 1_555 1_555
C9 N1 1_555 1_555
C10 C9 1_555 1_555
H5 C10 1_555 1_555
H6 C10 1_555 1_555
H7 C10 1_555 1_555
C11 N2 1_555 1_555
H8 C11 1_555 1_555
H9 C11 1_555 1_555
C12 C11 1_555 1_555
H10 C12 1_555 1_555
H11 C12 1_555 1_555
C13 C12 1_555 1_555
H12 C13 1_555 1_555
H13 C13 1_555 1_555
C14 C13 1_555 1_555
H14 C14 1_555 1_555
H15 C14 1_555 1_555
C15 N3 1_555 1_555
C16 C15 1_555 1_555
H16 C16 1_555 1_555
H17 C16 1_555 1_555
H18 C16 1_555 1_555
C17 N4 1_555 1_555
H19 C17 1_555 1_555
C18 N3 1_555 1_555
H20 C18 1_555 1_555
Zn1C N4 1_555 1_555
Zn1C_2 O4 1_555 1_555
O4C Zn1 1_555 1_555
N4C Zn1 1_555 1_555
N2 C9 1_555 1_555
C4 C5 1_555 1_555
C17 C18 1_555 1_555

#END
