
#######################################################################
#
#                 Cambridge Crystallographic Data Centre
#                                CCDC 
#
#######################################################################
#
# If this CIF has been generated from an entry in the Cambridge 
# Structural Database, then it will include bibliographic, chemical, 
# crystal, experimental, refinement or atomic coordinate data resulting 
# from the CCDC's data processing and validation procedures.
#
#######################################################################

data_ZOQBEO
_symmetry_cell_setting           orthorhombic
_symmetry_space_group_name_H-M   'P n a 21'
_symmetry_Int_Tables_number      33
_space_group_name_Hall           'P 2c -2n'
loop_
_symmetry_equiv_pos_site_id
_symmetry_equiv_pos_as_xyz
1 x,y,z
2 -x,-y,1/2+z
3 1/2+x,1/2-y,z
4 1/2-x,1/2+y,1/2+z
_cell_length_a                   9.4781(10)
_cell_length_b                   13.8347(14)
_cell_length_c                   15.4666(16)
_cell_angle_alpha                90
_cell_angle_beta                 90
_cell_angle_gamma                90
_cell_volume                     2028.08
loop_
_atom_site_label
_atom_site_type_symbol
_atom_site_fract_x
_atom_site_fract_y
_atom_site_fract_z
Cd1 Cd 0.14826(2) 0.519619(16) 0.927916(19)
S1 S 0.44542(12) 0.53079(8) 1.21143(7)
O1 O 0.2371(4) 0.6475(3) 1.0207(2)
O2 O 0.2590(4) 0.4953(3) 1.06025(19)
O3 O 0.7799(3) 0.6191(2) 1.3352(2)
O4 O 0.6423(4) 0.4932(2) 1.3526(3)
N1 N 0.0539(4) 0.6378(2) 0.8459(2)
N2 N -0.2229(4) 0.8977(3) 0.4700(2)
N3 N -0.4425(3) 0.9397(2) 0.4425(2)
C1 C 0.2870(5) 0.5838(4) 1.0683(3)
C2 C 0.3939(5) 0.6120(3) 1.1340(3)
C3 C 0.4728(6) 0.6940(3) 1.1379(3)
H1 H 0.4592 0.7468 1.1016
C4 C 0.5772(6) 0.6906(3) 1.2027(3)
H2 H 0.6407 0.7405 1.2130
C5 C 0.5755(4) 0.6075(3) 1.2482(2)
C6 C 0.6720(5) 0.5725(3) 1.3164(3)
C7 C -0.0365(6) 0.5341(3) 0.7261(3)
H3 H 0.0486 0.4977 0.7345
H4 H -0.0474 0.5488 0.6658
H5 H -0.1158 0.4967 0.7454
C8 C -0.0288(4) 0.6250(3) 0.7762(3)
C9 C -0.1024(4) 0.7060(2) 0.7604(2)
C10 C -0.0688(5) 0.7725(3) 0.8229(3)
H6 H -0.1050 0.8346 0.8286
C11 C 0.0268(5) 0.7296(3) 0.8740(3)
H7 H 0.0688 0.7583 0.9219
C12 C -0.2158(5) 0.7178(3) 0.6957(3)
H8 H -0.3061 0.7185 0.7252
H9 H -0.2149 0.6626 0.6570
C13 C -0.2015(6) 0.8102(4) 0.6423(3)
H10 H -0.2623 0.8624 0.6490
C14 C -0.0871(6) 0.8107(5) 0.5804(4)
H11 H -0.0170 0.7637 0.5816
C15 C -0.0858(5) 0.8907(4) 0.5138(3)
H12 H -0.0644 0.9517 0.5418
H13 H -0.0126 0.8780 0.4715
C16 C -0.2787(4) 0.8270(3) 0.4170(3)
H14 H -0.2332 0.7719 0.3968
C17 C -0.4127(5) 0.8541(3) 0.4004(3)
H15 H -0.4757 0.8202 0.3658
C18 C -0.3257(5) 0.9648(3) 0.4838(3)
C19 C -0.3065(6) 1.0555(4) 0.5341(4)
H16 H -0.2397 1.0963 0.5051
H17 H -0.2722 1.0401 0.5908
H18 H -0.3953 1.0885 0.5387
Cd1A Cd 0.85174(2) 0.480381(16) 1.427916(19)
Cd1C Cd -0.64826(2) 1.019619(16) 0.427916(19)
O3A O 0.2201(3) 0.3809(2) 0.8352(2)
O4A O 0.3577(4) 0.5068(2) 0.8526(3)
N3C N -0.0575(3) 0.4397(2) 0.9425(2)
loop_
_geom_bond_atom_site_label_1
_geom_bond_atom_site_label_2
_geom_bond_site_symmetry_1
_geom_bond_site_symmetry_2
Cd1 O1 1_555 1_555
S1 C2 1_555 1_555
O1 C1 1_555 1_555
O2 Cd1 1_555 1_555
O3 C6 1_555 1_555
O4 C6 1_555 1_555
N1 Cd1 1_555 1_555
N2 C15 1_555 1_555
N3 C17 1_555 1_555
C1 O2 1_555 1_555
C2 C1 1_555 1_555
C3 C2 1_555 1_555
H1 C3 1_555 1_555
C4 C3 1_555 1_555
H2 C4 1_555 1_555
C5 S1 1_555 1_555
C6 C5 1_555 1_555
C7 H3 1_555 1_555
H4 C7 1_555 1_555
H5 C7 1_555 1_555
C8 N1 1_555 1_555
C9 C8 1_555 1_555
C10 C9 1_555 1_555
H6 C10 1_555 1_555
C11 N1 1_555 1_555
H7 C11 1_555 1_555
C12 C9 1_555 1_555
H8 C12 1_555 1_555
H9 C12 1_555 1_555
C13 C12 1_555 1_555
H10 C13 1_555 1_555
C14 C13 1_555 1_555
H11 C14 1_555 1_555
C15 C14 1_555 1_555
H12 C15 1_555 1_555
H13 C15 1_555 1_555
C16 N2 1_555 1_555
H14 C16 1_555 1_555
C17 C16 1_555 1_555
H15 C17 1_555 1_555
C18 N2 1_555 1_555
C19 C18 1_555 1_555
H16 C19 1_555 1_555
H17 C19 1_555 1_555
H18 C19 1_555 1_555
Cd1A O3 1_555 1_555
Cd1C N3 1_555 1_555
O3A Cd1 1_555 1_555
O4A Cd1 1_555 1_555
N3C Cd1 1_555 1_555
O4 Cd1A 1_555 1_555
N3 C18 1_555 1_555
C4 C5 1_555 1_555
C7 C8 1_555 1_555
C10 C11 1_555 1_555

#END
