
#######################################################################
#
#                 Cambridge Crystallographic Data Centre
#                                CCDC 
#
#######################################################################
#
# If this CIF has been generated from an entry in the Cambridge 
# Structural Database, then it will include bibliographic, chemical, 
# crystal, experimental, refinement or atomic coordinate data resulting 
# from the CCDC's data processing and validation procedures.
#
#######################################################################

data_ZOQBAK
_symmetry_cell_setting           orthorhombic
_symmetry_space_group_name_H-M   'P n a 21'
_symmetry_Int_Tables_number      33
_space_group_name_Hall           'P 2c -2n'
loop_
_symmetry_equiv_pos_site_id
_symmetry_equiv_pos_as_xyz
1 x,y,z
2 -x,-y,1/2+z
3 1/2+x,1/2-y,z
4 1/2-x,1/2+y,1/2+z
_cell_length_a                   9.2703(14)
_cell_length_b                   13.966(2)
_cell_length_c                   14.650(2)
_cell_angle_alpha                90
_cell_angle_beta                 90
_cell_angle_gamma                90
_cell_volume                     1896.72
loop_
_atom_site_label
_atom_site_type_symbol
_atom_site_fract_x
_atom_site_fract_y
_atom_site_fract_z
Cd1 Cd 0.13237(3) 0.46675(2) 0.90337(4)
S1 S 0.57049(16) 0.54967(10) 0.69824(11)
O1 O 0.7513(5) 0.6693(3) 0.4869(3)
O2 O 0.7702(5) 0.5272(4) 0.5443(3)
O3 O 0.2146(5) 0.6151(3) 0.8241(4)
O4 O 0.3486(4) 0.4878(3) 0.8283(3)
C1 C 0.7210(7) 0.6096(5) 0.5450(4)
C2 C 0.6110(6) 0.6323(4) 0.6147(4)
C3 C 0.5164(7) 0.7061(4) 0.6191(4)
H1 H 0.5210 0.7586 0.5801
C4 C 0.4105(6) 0.6969(4) 0.6876(4)
H2 H 0.3396 0.7424 0.6991
C5 C 0.4245(6) 0.6130(4) 0.7352(4)
C6 C 0.3220(6) 0.5712(4) 0.8013(4)
C7 C -0.0469(8) 0.4286(5) 0.7262(5)
H3 H -0.0541 0.4949 0.7222
C8 C -0.1033(8) 0.3675(5) 0.6658(5)
H4 H -0.1547 0.3827 0.6132
C9 C 0.0076(6) 0.2880(4) 0.7746(4)
C10 C 0.0649(7) 0.2087(4) 0.8299(4)
H5 H 0.1235 0.2339 0.8782
H6 H 0.1222 0.1674 0.7920
H7 H -0.0137 0.1729 0.8555
C11 C -0.1119(6) 0.1889(4) 0.6484(4)
H8 H -0.2134 0.1919 0.6326
H9 H -0.0975 0.1340 0.6880
C12 C -0.0240(7) 0.1769(5) 0.5634(4)
H10 H 0.0766 0.1704 0.5804
H11 H -0.0329 0.2346 0.5269
C13 C -0.0662(6) 0.0919(6) 0.5051(5)
H12 H 0.0011 0.0867 0.4547
H13 H -0.0574 0.0341 0.5415
C14 C -0.2631(5) 0.1660(4) 0.4113(5)
H14 H -0.2132 0.2200 0.3917
C15 C -0.3980(6) 0.1416(4) 0.3886(5)
H15 H -0.4584 0.1766 0.3505
C16 C -0.3195(7) 0.0325(4) 0.4785(5)
C17 C -0.3094(8) -0.0563(5) 0.5353(6)
H16 H -0.4025 -0.0862 0.5388
H17 H -0.2774 -0.0399 0.5956
H18 H -0.2419 -0.0998 0.5080
N1 N 0.0229(5) 0.3807(3) 0.7946(3)
N2 N -0.0698(5) 0.2775(3) 0.6974(4)
N3 N -0.2128(5) 0.0971(3) 0.4685(3)
N4 N -0.4332(5) 0.0566(3) 0.4306(3)
Cd1A Cd 0.86763(3) 0.53325(2) 0.40337(4)
Cd1C Cd -0.63237(3) -0.03325(2) 0.40337(4)
O1A O 0.2487(5) 0.3307(3) 0.9869(3)
O2A O 0.2298(5) 0.4728(4) 1.0443(3)
N4C N -0.0668(5) 0.5566(3) 0.9306(3)
loop_
_geom_bond_atom_site_label_1
_geom_bond_atom_site_label_2
_geom_bond_site_symmetry_1
_geom_bond_site_symmetry_2
Cd1 O3 1_555 1_555
S1 C2 1_555 1_555
O1 C1 1_555 1_555
O2 C1 1_555 1_555
O3 C6 1_555 1_555
O4 Cd1 1_555 1_555
C1 C2 1_555 1_555
C2 C3 1_555 1_555
C3 H1 1_555 1_555
C4 C3 1_555 1_555
H2 C4 1_555 1_555
C5 S1 1_555 1_555
C6 O4 1_555 1_555
C7 H3 1_555 1_555
C8 C7 1_555 1_555
H4 C8 1_555 1_555
C9 C10 1_555 1_555
C10 H5 1_555 1_555
H6 C10 1_555 1_555
H7 C10 1_555 1_555
C11 H8 1_555 1_555
H9 C11 1_555 1_555
C12 C11 1_555 1_555
H10 C12 1_555 1_555
H11 C12 1_555 1_555
C13 C12 1_555 1_555
H12 C13 1_555 1_555
H13 C13 1_555 1_555
C14 H14 1_555 1_555
C15 C14 1_555 1_555
H15 C15 1_555 1_555
C16 C17 1_555 1_555
C17 H16 1_555 1_555
H17 C17 1_555 1_555
H18 C17 1_555 1_555
N1 Cd1 1_555 1_555
N2 C8 1_555 1_555
N3 C13 1_555 1_555
N4 C15 1_555 1_555
Cd1A O1 1_555 1_555
Cd1C N4 1_555 1_555
O1A Cd1 1_555 1_555
O2A Cd1 1_555 1_555
N4C Cd1 1_555 1_555
O2 Cd1A 1_555 1_555
C4 C5 1_555 1_555
C5 C6 1_555 1_555
C7 N1 1_555 1_555
C9 N1 1_555 1_555
C9 N2 1_555 1_555
C11 N2 1_555 1_555
C14 N3 1_555 1_555
C16 N3 1_555 1_555
C16 N4 1_555 1_555

#END
