
#######################################################################
#
#                 Cambridge Crystallographic Data Centre
#                                CCDC 
#
#######################################################################
#
# If this CIF has been generated from an entry in the Cambridge 
# Structural Database, then it will include bibliographic, chemical, 
# crystal, experimental, refinement or atomic coordinate data resulting 
# from the CCDC's data processing and validation procedures.
#
#######################################################################

data_ZOQBAI
_symmetry_cell_setting           tetragonal
_symmetry_space_group_name_H-M   'P 42 21 2'
_symmetry_Int_Tables_number      94
_space_group_name_Hall           'P 4n 2n'
loop_
_symmetry_equiv_pos_site_id
_symmetry_equiv_pos_as_xyz
1 x,y,z
2 1/2-y,1/2+x,1/2+z
3 1/2+x,1/2-y,1/2-z
4 -x,-y,z
5 y,x,-z
6 1/2+y,1/2-x,1/2+z
7 1/2-x,1/2+y,1/2-z
8 -y,-x,-z
_cell_length_a                   9.802(2)
_cell_length_b                   9.802(2)
_cell_length_c                   15.170(11)
_cell_angle_alpha                90
_cell_angle_beta                 90
_cell_angle_gamma                90
_cell_volume                     1457.52
loop_
_atom_site_label
_atom_site_type_symbol
_atom_site_fract_x
_atom_site_fract_y
_atom_site_fract_z
Ga1 Ga 0.0000 0.5000 -0.1481(1)
Na1 Na 0.5000 0.5000 -0.1034(8)
S1 S 0.0307(4) 0.6841(4) -0.0552(3)
O1 O 0.2117(9) 0.4858(11) -0.1680(6)
O2 O 0.3805(10) 0.6271(11) -0.2029(8)
O3 O 0.3200(16) 0.3200(16) 0.0000
O4 O 0.3685(14) 0.6315(14) 0.0000
N1 N 0.0298(12) 0.6379(12) -0.2536(8)
C1 C 0.1116(15) 0.7892(15) -0.1388(13)
C2 C 0.1506(13) 0.7074(15) -0.2208(12)
C3 C 0.0485(18) 0.5613(16) -0.3361(10)
C4 C 0.2588(17) 0.6028(16) -0.1975(11)
H1 H 0.2866(16) 0.3300(16) 0.0385
H2 H 0.4338(14) 0.6886(14) 0.0010
H3 H -0.0407(12) 0.6963(12) -0.2579(8)
H4 H 0.0536(15) 0.8664(15) -0.1528(13)
H5 H 0.1951(15) 0.8240(15) -0.1129(13)
H6 H 0.1862(13) 0.7699(15) -0.2656(12)
H7 H 0.1393(18) 0.5246(16) -0.3379(10)
H8 H 0.0360(18) 0.6208(16) -0.3857(10)
C3C C -0.0485(18) 0.4387(16) -0.3361(10)
N1C N -0.0298(12) 0.3621(12) -0.2536(8)
C2C C -0.1506(13) 0.2926(15) -0.2208(12)
C1C C -0.1116(15) 0.2108(15) -0.1388(13)
S1C S -0.0307(4) 0.3159(4) -0.0552(3)
H4C H -0.0536(15) 0.1336(15) -0.1528(13)
H5C H -0.1951(15) 0.1760(15) -0.1129(13)
C4C C -0.2588(17) 0.3972(16) -0.1975(11)
O1C O -0.2117(9) 0.5142(11) -0.1680(6)
O2C O -0.3805(10) 0.3729(11) -0.2029(8)
H6C H -0.1862(13) 0.2301(15) -0.2656(12)
H3C H 0.0407(12) 0.3037(12) -0.2579(8)
H7C H -0.1393(18) 0.4754(16) -0.3379(10)
H8C H -0.0360(18) 0.3792(16) -0.3857(10)
H1D H 0.3300(16) 0.2866(16) -0.0385
H2G H 0.3114(14) 0.5662(14) -0.0010
Na1D Na 0.5000 0.5000 0.1034(8)
O1C_2 O 0.7883(9) 0.5142(11) -0.1680(6)
O2C_2 O 0.6195(10) 0.3729(11) -0.2029(8)
O3C O 0.6800(16) 0.6800(16) 0.0000
O4C O 0.6315(14) 0.3685(14) 0.0000
Na1_2 Na -0.5000 0.5000 -0.1034(8)
H1C H 0.7134(16) 0.6700(16) 0.0385
H1G H 0.6700(16) 0.7134(16) -0.0385
H2C H 0.5662(14) 0.3114(14) 0.0010
H2D H 0.6886(14) 0.4338(14) -0.0010
loop_
_geom_bond_atom_site_label_1
_geom_bond_atom_site_label_2
_geom_bond_site_symmetry_1
_geom_bond_site_symmetry_2
Ga1 S1 1_555 1_555
Na1 O1 1_555 1_555
S1 C1 1_555 1_555
O1 Ga1 1_555 1_555
O2 Na1 1_555 1_555
O3 Na1 1_555 1_555
O4 Na1 1_555 1_555
N1 Ga1 1_555 1_555
C1 C2 1_555 1_555
C2 N1 1_555 1_555
C3 N1 1_555 1_555
C4 O1 1_555 1_555
H1 O3 1_555 1_555
H2 O4 1_555 1_555
H3 N1 1_555 1_555
H4 C1 1_555 1_555
H5 C1 1_555 1_555
H6 C2 1_555 1_555
H7 C3 1_555 1_555
H8 C3 1_555 1_555
C3C C3 1_555 1_555
N1C Ga1 1_555 1_555
C2C N1C 1_555 1_555
C1C C2C 1_555 1_555
S1C Ga1 1_555 1_555
H4C C1C 1_555 1_555
H5C C1C 1_555 1_555
C4C C2C 1_555 1_555
O1C Ga1 1_555 1_555
O2C C4C 1_555 1_555
H6C C2C 1_555 1_555
H3C N1C 1_555 1_555
H7C C3C 1_555 1_555
H8C C3C 1_555 1_555
H1D O3 1_555 1_555
H2G O4 1_555 1_555
Na1D O3 1_555 1_555
O1C_2 Na1 1_555 1_555
O2C_2 Na1 1_555 1_555
O3C Na1 1_555 1_555
O4C Na1 1_555 1_555
Na1_2 O1C 1_555 1_555
H1C O3C 1_555 1_555
H1G O3C 1_555 1_555
H2C O4C 1_555 1_555
H2D O4C 1_555 1_555
O2 C4 1_555 1_555
O4 Na1D 1_555 1_555
C2 C4 1_555 1_555
C3C N1C 1_555 1_555
C1C S1C 1_555 1_555
C4C O1C 1_555 1_555
O2C Na1_2 1_555 1_555
Na1D O3C 1_555 1_555
Na1D O4C 1_555 1_555

#END
