
#######################################################################
#
#                 Cambridge Crystallographic Data Centre
#                                CCDC 
#
#######################################################################
#
# If this CIF has been generated from an entry in the Cambridge 
# Structural Database, then it will include bibliographic, chemical, 
# crystal, experimental, refinement or atomic coordinate data resulting 
# from the CCDC's data processing and validation procedures.
#
#######################################################################

data_ZOQRUU
_symmetry_cell_setting           monoclinic
_symmetry_space_group_name_H-M   'C c'
_symmetry_Int_Tables_number      9
_space_group_name_Hall           'C -2yc'
loop_
_symmetry_equiv_pos_site_id
_symmetry_equiv_pos_as_xyz
1 x,y,z
2 x,-y,1/2+z
3 1/2+x,1/2+y,z
4 1/2+x,1/2-y,1/2+z
_cell_length_a                   16.2248(7)
_cell_length_b                   14.2682(6)
_cell_length_c                   10.0232(4)
_cell_angle_alpha                90
_cell_angle_beta                 105.746(2)
_cell_angle_gamma                90
_cell_volume                     2233.28
loop_
_atom_site_label
_atom_site_type_symbol
_atom_site_fract_x
_atom_site_fract_y
_atom_site_fract_z
Nd1 Nd 0.18733(7) 0.026254(18) 0.77860(10)
O1 O 0.1479(7) 0.0863(6) 0.4249(11)
O2 O 0.1543(6) 0.1606(7) 0.6224(9)
O3 O 0.1555(7) 0.3445(8) 0.6176(10)
H1 H 0.1704 0.2932 0.6526
O4 O 0.2233(6) -0.0915(6) 0.6368(11)
O5 O 0.2309(6) -0.1549(7) 0.4395(9)
O6 O 0.2371(7) -0.3349(9) 0.4224(10)
H2 H 0.2289 -0.2813 0.3923
O7 O 0.0455(8) -0.0212(6) 0.6037(14)
O8 O 0.0585(7) 0.0948(7) 0.8383(9)
O9 O 0.3162(8) -0.0341(7) 0.9518(13)
O10 O 0.3229(5) 0.0811(6) 0.7274(9)
C1 C 0.1249(7) 0.2495(9) 0.4166(12)
C2 C 0.1299(8) 0.3360(10) 0.4783(13)
C3 C 0.1138(7) 0.4184(7) 0.3964(11)
H3 H 0.1213 0.4770 0.4386
C4 C 0.0869(7) 0.4115(7) 0.2543(9)
H4 H 0.0759 0.4654 0.2002
C5 C 0.0763(7) 0.3248(8) 0.1925(11)
C6 C 0.0948(8) 0.2461(10) 0.2693(13)
H5 H 0.0877 0.1882 0.2250
C7 C 0.1420(8) 0.1582(9) 0.4934(14)
C8 C -0.0142(6) 0.3642(6) -0.1661(8)
C9 C 0.2674(6) -0.2501(8) 0.6385(12)
C10 C 0.2634(7) -0.3326(9) 0.5583(12)
C11 C 0.2882(8) -0.4171(8) 0.6216(12)
H6 H 0.2852 -0.4710 0.5683
C12 C 0.3167(7) -0.4224(7) 0.7596(10)
H7 H 0.3341 -0.4800 0.8014
C13 C 0.3209(7) -0.3429(10) 0.8417(12)
C14 C 0.2949(7) -0.2563(9) 0.7791(13)
H8 H 0.2965 -0.2031 0.8333
C15 C 0.2376(8) -0.1609(9) 0.5703(12)
C16 C 0.3906(6) -0.3182(8) 1.2002(9)
N1 N 0.0451(6) 0.3078(7) 0.0443(10)
N2 N 0.0134(4) 0.3805(4) -0.0231(5)
N3 N -0.0557(5) 0.4316(5) -0.2516(7)
N4 N -0.0708(8) 0.3935(9) -0.3701(14)
N5 N -0.0411(7) 0.3087(9) -0.3588(10)
N6 N 0.0000(7) 0.2816(9) -0.2333(11)
N7 N 0.3542(5) -0.3621(6) 0.9842(8)
N8 N 0.3544(6) -0.2928(7) 1.0534(10)
N9 N 0.4325(5) -0.3957(6) 1.2575(9)
N10 N 0.4541(8) -0.3802(10) 1.4031(16)
N11 N 0.4251(7) -0.2966(8) 1.4188(12)
N12 N 0.3885(6) -0.2586(9) 1.2935(11)
H9 H 0.0130 -0.0308 0.6465
H10 H 0.0319 0.0237 0.5514
H11 H 0.0186 0.0618 0.8106
H12 H 0.3587 0.0004 0.9602
H13 H 0.3097 -0.0451 1.0250
H14 H 0.3588 0.0433 0.7397
H15 H 0.3384 0.1321 0.7590
H16 H 0.0692 0.1056 0.9183
H17 H 0.4534 -0.2622 1.4951
Nd1A Nd 0.18733(7) -0.026254(18) 0.27860(10)
O1A O 0.1479(7) -0.0863(6) 0.9249(11)
O5A O 0.2309(6) 0.1549(7) 0.9395(9)
loop_
_geom_bond_atom_site_label_1
_geom_bond_atom_site_label_2
_geom_bond_site_symmetry_1
_geom_bond_site_symmetry_2
Nd1 O2 1_555 1_555
O1 C7 1_555 1_555
O2 C7 1_555 1_555
O3 H1 1_555 1_555
O4 Nd1 1_555 1_555
O5 C15 1_555 1_555
O6 H2 1_555 1_555
O7 Nd1 1_555 1_555
O8 Nd1 1_555 1_555
O9 Nd1 1_555 1_555
O10 Nd1 1_555 1_555
C1 C2 1_555 1_555
C2 O3 1_555 1_555
C3 C2 1_555 1_555
H3 C3 1_555 1_555
C4 C3 1_555 1_555
H4 C4 1_555 1_555
C5 C4 1_555 1_555
C6 C1 1_555 1_555
H5 C6 1_555 1_555
C7 C1 1_555 1_555
C8 N2 1_555 1_555
C9 C10 1_555 1_555
C10 O6 1_555 1_555
C11 C10 1_555 1_555
H6 C11 1_555 1_555
C12 C11 1_555 1_555
H7 C12 1_555 1_555
C13 C12 1_555 1_555
C14 C9 1_555 1_555
H8 C14 1_555 1_555
C15 O4 1_555 1_555
C16 N8 1_555 1_555
N1 C5 1_555 1_555
N2 N1 1_555 1_555
N3 C8 1_555 1_555
N4 N3 1_555 1_555
N5 N4 1_555 1_555
N6 C8 1_555 1_555
N7 C13 1_555 1_555
N8 N7 1_555 1_555
N9 C16 1_555 1_555
N10 N9 1_555 1_555
N11 N10 1_555 1_555
N12 C16 1_555 1_555
H9 O7 1_555 1_555
H10 O7 1_555 1_555
H11 O8 1_555 1_555
H12 O9 1_555 1_555
H13 O9 1_555 1_555
H14 O10 1_555 1_555
H15 O10 1_555 1_555
H16 O8 1_555 1_555
H17 N11 1_555 1_555
Nd1A O1 1_555 1_555
O1A Nd1 1_555 1_555
O5A Nd1 1_555 1_555
O5 Nd1A 1_555 1_555
C5 C6 1_555 1_555
C9 C15 1_555 1_555
C13 C14 1_555 1_555
N5 N6 1_555 1_555
N11 N12 1_555 1_555

#END
