
#######################################################################
#
#                 Cambridge Crystallographic Data Centre
#                                CCDC 
#
#######################################################################
#
# If this CIF has been generated from an entry in the Cambridge 
# Structural Database, then it will include bibliographic, chemical, 
# crystal, experimental, refinement or atomic coordinate data resulting 
# from the CCDC's data processing and validation procedures.
#
#######################################################################

data_ZOQSIJ
_symmetry_cell_setting           monoclinic
_symmetry_space_group_name_H-M   'P 21/c'
_symmetry_Int_Tables_number      14
_space_group_name_Hall           '-P 2ybc'
loop_
_symmetry_equiv_pos_site_id
_symmetry_equiv_pos_as_xyz
1 x,y,z
2 -x,1/2+y,1/2-z
3 -x,-y,-z
4 x,1/2-y,1/2+z
_cell_length_a                   10.8529(13)
_cell_length_b                   6.9013(9)
_cell_length_c                   27.181(3)
_cell_angle_alpha                90
_cell_angle_beta                 112.490(6)
_cell_angle_gamma                90
_cell_volume                     1881
loop_
_atom_site_label
_atom_site_type_symbol
_atom_site_fract_x
_atom_site_fract_y
_atom_site_fract_z
Dy1 Dy -0.13744(2) 0.36124(3) 0.798652(8)
O1 O 0.0672(3) 0.5293(5) 0.82659(13)
O2 O 0.0746(3) 0.7346(6) 0.76570(14)
O3 O 0.3312(3) 0.8080(5) 0.77649(13)
O4 O 0.0464(4) 0.1316(5) 0.84329(16)
H1 H 0.0618 0.0536 0.8170
H2 H 0.1259 0.2028 0.8633
O5 O -0.0624(4) 0.4187(6) 0.89347(14)
H3 H 0.0300 0.4552 0.9071
H4 H -0.0303 0.3190 0.9075
O6 O -0.2354(4) 0.0849(6) 0.82022(16)
H5 H -0.2172 -0.0275 0.8033
H6 H -0.3299 0.1039 0.8084
O7 O -0.3072(3) 0.5151(5) 0.82105(13)
H7 H -0.3580 0.6047 0.8029
H8 H -0.3427 0.4470 0.8352
O8 O -0.1740(3) 0.6643(5) 0.75736(15)
H9 H -0.0966 0.7096 0.7605
H10 H -0.2216 0.6479 0.7243
N1 N 0.4375(4) 0.7302(6) 0.99129(16)
N2 N 0.5542(4) 0.7570(6) 1.02551(15)
N3 N 0.6744(4) 0.7700(6) 1.11881(16)
N4 N 0.6437(4) 0.7367(6) 1.16165(16)
N5 N 0.5185(5) 0.6856(6) 1.14645(17)
N6 N 0.4619(4) 0.6834(6) 1.09329(17)
C1 C 0.2624(4) 0.7136(7) 0.84688(18)
C2 C 0.3570(4) 0.7873(7) 0.82724(18)
C3 C 0.4854(5) 0.8365(6) 0.86546(19)
H11 H 0.5503 0.8814 0.8537
C4 C 0.5156(5) 0.8194(7) 0.91882(19)
H12 H 0.5997 0.8552 0.9429
C5 C 0.4210(5) 0.7486(7) 0.93763(18)
C6 C 0.2965(5) 0.6961(7) 0.90126(19)
H13 H 0.2339 0.6477 0.9137
C7 C 0.1282(5) 0.6532(6) 0.81088(19)
C8 C 0.5599(5) 0.7366(6) 1.07772(18)
Dy1A Dy 0.13744(2) 0.86124(3) 0.701348(8)
O2A O -0.0746(3) 0.2346(6) 0.73430(14)
O3A O -0.3312(3) 0.3080(5) 0.72351(13)
O9 O 0.1747(4) 0.2900(8) 0.97132(19)
H14 H 0.1793 0.3327 1.0056
H15 H 0.2491 0.3411 0.9646
O10 O 0.5622(3) 0.8280(5) 0.76195(15)
H16 H 0.4965 0.8348 0.7677
H17 H 0.5510 0.8109 0.7321
O11 O 0.8003(5) 0.4033(9) 0.9567(2)
H18 H 0.7851 0.4245 0.9198
H19 H 0.7317 0.3379 0.9644
O12 O 0.9406(8) 0.8507(7) 0.8972(3)
H20 H 0.9619 0.9556 0.8786
H21 H 0.9395 0.7251 0.8818
O13 O 0.0841(16) 0.953(2) 0.0019(7)
H22 H 0.1633 1.0220 0.0046
H23 H 0.0828 0.8290 -0.0143
O14? O 0.165(3) 0.906(3) -0.0136(10)
H24? H 0.1718 1.0251 0.0008
H25? H 0.1547 0.9318 -0.0440
loop_
_geom_bond_atom_site_label_1
_geom_bond_atom_site_label_2
_geom_bond_site_symmetry_1
_geom_bond_site_symmetry_2
Dy1 O1 1_555 1_555
O1 C7 1_555 1_555
O2 C7 1_555 1_555
O3 C2 1_555 1_555
O4 Dy1 1_555 1_555
H1 O4 1_555 1_555
H2 O4 1_555 1_555
O5 Dy1 1_555 1_555
H3 O5 1_555 1_555
H4 O5 1_555 1_555
O6 Dy1 1_555 1_555
H5 O6 1_555 1_555
H6 O6 1_555 1_555
O7 Dy1 1_555 1_555
H7 O7 1_555 1_555
H8 O7 1_555 1_555
O8 Dy1 1_555 1_555
H9 O8 1_555 1_555
H10 O8 1_555 1_555
N1 N2 1_555 1_555
N2 C8 1_555 1_555
N3 N4 1_555 1_555
N4 N5 1_555 1_555
N5 N6 1_555 1_555
N6 C8 1_555 1_555
C1 C2 1_555 1_555
C2 C3 1_555 1_555
C3 H11 1_555 1_555
C4 C3 1_555 1_555
H12 C4 1_555 1_555
C5 N1 1_555 1_555
C6 C1 1_555 1_555
H13 C6 1_555 1_555
C7 C1 1_555 1_555
C8 N3 1_555 1_555
O9 H14 1_555 1_555
H15 O9 1_555 1_555
O10 H16 1_555 1_555
H17 O10 1_555 1_555
O11 H18 1_555 1_555
H19 O11 1_555 1_555
O12 H20 1_555 1_555
H21 O12 1_555 1_555
O13 H22 1_555 1_555
H23 O13 1_555 1_555
Dy1A O2 1_555 1_555
O2A Dy1 1_555 1_555
O3A Dy1 1_555 1_555
O3 Dy1A 1_555 1_555
C4 C5 1_555 1_555
C5 C6 1_555 1_555

#END
