
#######################################################################
#
#                 Cambridge Crystallographic Data Centre
#                                CCDC 
#
#######################################################################
#
# If this CIF has been generated from an entry in the Cambridge 
# Structural Database, then it will include bibliographic, chemical, 
# crystal, experimental, refinement or atomic coordinate data resulting 
# from the CCDC's data processing and validation procedures.
#
#######################################################################

data_ZOQVAE
_symmetry_cell_setting           orthorhombic
_symmetry_space_group_name_H-M   'P b c a'
_symmetry_Int_Tables_number      61
_space_group_name_Hall           '-P 2ac 2ab'
loop_
_symmetry_equiv_pos_site_id
_symmetry_equiv_pos_as_xyz
1 x,y,z
2 1/2-x,-y,1/2+z
3 1/2+x,1/2-y,-z
4 -x,1/2+y,1/2-z
5 -x,-y,-z
6 1/2+x,y,1/2-z
7 1/2-x,1/2+y,z
8 x,1/2-y,1/2+z
_cell_length_a                   20.034(4)
_cell_length_b                   13.057(3)
_cell_length_c                   24.979(5)
_cell_angle_alpha                90
_cell_angle_beta                 90
_cell_angle_gamma                90
_cell_volume                     6534.11
loop_
_atom_site_label
_atom_site_type_symbol
_atom_site_fract_x
_atom_site_fract_y
_atom_site_fract_z
Cu1 Cu 0.85764(3) 0.50167(4) 0.55687(2)
C1 C 0.9175(3) 0.1747(4) 0.1200(2)
H1 H 0.9487 0.1890 0.0934
C2 C 0.9112(3) 0.2278(4) 0.1654(2)
H2 H 0.9368 0.2834 0.1763
C3 C 0.8368(2) 0.1055(3) 0.16238(18)
H3 H 0.8012 0.0633 0.1717
C4 C 0.8320(3) 0.2147(4) 0.2448(2)
H4 H 0.7958 0.1689 0.2543
H5 H 0.8140 0.2835 0.2422
C5 C 0.8852(3) 0.2117(4) 0.28812(19)
H6 H 0.9216 0.2571 0.2785
H7 H 0.9029 0.1428 0.2911
C6 C 0.8558(3) 0.2446(4) 0.34183(19)
H8 H 0.8360 0.3120 0.3382
H9 H 0.8208 0.1971 0.3521
C7 C 0.9083(3) 0.2472(4) 0.3846(2)
H10 H 0.9273 0.1792 0.3884
H11 H 0.9437 0.2930 0.3735
C8 C 0.8921(2) 0.3729(3) 0.45896(19)
H12 H 0.9178 0.4248 0.4439
C9 C 0.8414(3) 0.2265(4) 0.4708(2)
H13 H 0.8256 0.1602 0.4659
C10 C 0.8286(2) 0.2885(4) 0.5121(2)
H14 H 0.8021 0.2715 0.5414
C11 C 0.9033(2) 0.6239(3) 0.65298(18)
H15 H 0.9263 0.5687 0.6677
C12 C 0.8446(3) 0.7176(4) 0.6003(2)
H16 H 0.8189 0.7388 0.5713
C13 C 0.8606(3) 0.7759(4) 0.6433(2)
H17 H 0.8487 0.8439 0.6490
C14 C 0.9217(3) 0.7440(4) 0.7300(2)
H18 H 0.9475 0.8067 0.7273
H19 H 0.9510 0.6907 0.7433
C15 C 0.8656(3) 0.7597(4) 0.76881(19)
H20 H 0.8372 0.6995 0.7691
H21 H 0.8388 0.8177 0.7576
C16 C 0.8926(3) 0.7786(4) 0.82474(19)
H22 H 0.9177 0.7192 0.8365
H23 H 0.9227 0.8368 0.8241
C17 C 0.8365(3) 0.7994(4) 0.86372(19)
H24 H 0.8095 0.8558 0.8506
H25 H 0.8081 0.7394 0.8663
C18 C 0.8399(2) 0.8982(3) 0.95009(17)
H26 H 0.8033 0.9395 0.9425
C19 C 0.9223(3) 0.8289(4) 0.99014(19)
H27 H 0.9542 0.8132 1.0160
C20 C 0.9157(3) 0.7798(4) 0.9423(2)
H28 H 0.9417 0.7263 0.9294
C21 C 0.7128(2) 0.5565(4) 0.6069(2)
H29 H 0.7321 0.5919 0.6353
C22 C 0.6471(3) 0.5383(4) 0.6015(2)
H30 H 0.6133 0.5582 0.6249
C23 C 0.7012(2) 0.4723(4) 0.5336(2)
H31 H 0.7100 0.4384 0.5016
C24 C 0.5780(3) 0.4428(4) 0.5328(2)
H32 H 0.5548 0.4057 0.5608
H33 H 0.5889 0.3943 0.5047
C25 C 0.5322(2) 0.5232(4) 0.5104(2)
H34 H 0.5546 0.5591 0.4816
H35 H 0.5218 0.5727 0.5382
N1 N 0.87215(18) 0.0969(3) 0.11766(14)
N2 N 0.8596(2) 0.1840(3) 0.19254(15)
N3 N 0.8827(2) 0.2808(3) 0.43685(15)
N4 N 0.86013(19) 0.3808(3) 0.50499(14)
N5 N 0.87252(18) 0.6217(3) 0.60642(14)
N6 N 0.8974(2) 0.7152(3) 0.67632(16)
N7 N 0.86318(19) 0.8252(3) 0.91747(15)
N8 N 0.8757(2) 0.9042(3) 0.99470(15)
N9 N 0.74755(19) 0.5150(3) 0.56425(15)
N10 N 0.63959(19) 0.4843(3) 0.55460(17)
C21D C 0.2872(2) 0.4435(4) 0.3931(2)
H29D H 0.2679 0.4081 0.3647
C22D C 0.3529(3) 0.4617(4) 0.3985(2)
H30D H 0.3867 0.4418 0.3751
C23D C 0.2988(2) 0.5277(4) 0.4664(2)
H31D H 0.2900 0.5616 0.4984
C24D C 0.4220(3) 0.5572(4) 0.4672(2)
H32D H 0.4452 0.5943 0.4392
H33D H 0.4111 0.6057 0.4953
C25D C 0.4678(2) 0.4768(4) 0.4896(2)
H34D H 0.4454 0.4409 0.5184
H35D H 0.4782 0.4273 0.4618
N9D N 0.25245(19) 0.4850(3) 0.43575(15)
N10D N 0.36041(19) 0.5157(3) 0.44540(17)
Cu1D Cu 0.14236(3) 0.49833(4) 0.44313(2)
C1D C 0.0825(3) 0.8253(4) 0.8800(2)
H1D H 0.0513 0.8110 0.9066
C2D C 0.0888(3) 0.7722(4) 0.8346(2)
H2D H 0.0632 0.7166 0.8237
C3D C 0.1632(2) 0.8945(3) 0.83762(18)
H3D H 0.1988 0.9367 0.8283
C4D C 0.1680(3) 0.7853(4) 0.7552(2)
H4D H 0.2042 0.8311 0.7457
H5D H 0.1860 0.7165 0.7578
C5D C 0.1148(3) 0.7883(4) 0.71188(19)
H6D H 0.0784 0.7429 0.7215
H7D H 0.0971 0.8572 0.7089
C6D C 0.1442(3) 0.7554(4) 0.65817(19)
H8D H 0.1640 0.6880 0.6618
H9D H 0.1792 0.8029 0.6479
C7D C 0.0917(3) 0.7528(4) 0.6154(2)
H10D H 0.0727 0.8208 0.6116
H11D H 0.0563 0.7070 0.6265
C8D C 0.1079(2) 0.6271(3) 0.54104(19)
H12D H 0.0822 0.5752 0.5561
C9D C 0.1586(3) 0.7735(4) 0.5292(2)
H13D H 0.1744 0.8398 0.5341
C10D C 0.1714(2) 0.7115(4) 0.4879(2)
H14D H 0.1979 0.7285 0.4586
C11D C 0.0967(2) 0.3761(3) 0.34702(18)
H15D H 0.0737 0.4313 0.3323
C12D C 0.1554(3) 0.2824(4) 0.3997(2)
H16D H 0.1811 0.2612 0.4287
C13D C 0.1394(3) 0.2241(4) 0.3567(2)
H17D H 0.1513 0.1561 0.3510
C14D C 0.0783(3) 0.2560(4) 0.2700(2)
H18D H 0.0525 0.1933 0.2727
H19D H 0.0490 0.3093 0.2567
C15D C 0.1344(3) 0.2403(4) 0.23119(19)
H20D H 0.1628 0.3005 0.2309
H21D H 0.1612 0.1823 0.2424
C16D C 0.1074(3) 0.2214(4) 0.17526(19)
H22D H 0.0823 0.2808 0.1635
H23D H 0.0773 0.1632 0.1759
C17D C 0.1635(3) 0.2006(4) 0.13628(19)
H24D H 0.1905 0.1442 0.1494
H25D H 0.1919 0.2606 0.1337
C18D C 0.1601(2) 0.1018(3) 0.04991(17)
H26D H 0.1967 0.0605 0.0575
C19D C 0.0777(3) 0.1711(4) 0.00986(19)
H27D H 0.0458 0.1868 -0.0160
C20D C 0.0843(3) 0.2202(4) 0.0577(2)
H28D H 0.0583 0.2737 0.0706
N1D N 0.12785(18) 0.9031(3) 0.88234(14)
N2D N 0.1404(2) 0.8160(3) 0.80746(15)
N3D N 0.1173(2) 0.7192(3) 0.56315(15)
N4D N 0.13987(19) 0.6192(3) 0.49501(14)
N5D N 0.12748(18) 0.3783(3) 0.39358(14)
N6D N 0.1026(2) 0.2848(3) 0.32368(16)
N7D N 0.13682(19) 0.1748(3) 0.08253(15)
N8D N 0.1243(2) 0.0958(3) 0.00530(15)
Cu1C Cu 0.14236(3) 0.00167(4) -0.05687(2)
Cu1C_2 Cu 0.14236(3) 1.00167(4) 0.94313(2)
Cu1G Cu 0.85764(3) -0.00167(4) 0.05687(2)
Cu1G_2 Cu 0.85764(3) 0.99833(4) 1.05687(2)
N1C N 0.12785(18) 0.5969(3) 0.38234(14)
N1G N 0.87215(18) 0.4031(3) 0.61766(14)
N8C N 0.1243(2) 0.4042(3) 0.50530(15)
N8G N 0.8757(2) 0.5958(3) 0.49470(15)
N11 N 0.9485(4) 0.4798(4) 0.2707(3)
O1 O 0.9319(4) 0.4666(4) 0.3186(3)
O2 O 1.0051(3) 0.5040(5) 0.2616(3)
O3 O 0.9069(3) 0.4732(5) 0.2355(3)
O4 O 0.7338(3) -0.0160(5) 0.2453(2)
H36 H 0.6939(16) 0.002(8) 0.248(4)
H37 H 0.754(4) -0.021(8) 0.275(2)
O5 O 0.4859(3) 0.5308(6) 0.6429(3)
H38 H 0.499(6) 0.534(10) 0.6748(17)
H39 H 0.436(6) 0.534(8) 0.629(4)
loop_
_geom_bond_atom_site_label_1
_geom_bond_atom_site_label_2
_geom_bond_site_symmetry_1
_geom_bond_site_symmetry_2
Cu1 N4 1_555 1_555
C1 H1 1_555 1_555
C2 C1 1_555 1_555
H2 C2 1_555 1_555
C3 H3 1_555 1_555
C4 H4 1_555 1_555
H5 C4 1_555 1_555
C5 C4 1_555 1_555
H6 C5 1_555 1_555
H7 C5 1_555 1_555
C6 C5 1_555 1_555
H8 C6 1_555 1_555
H9 C6 1_555 1_555
C7 C6 1_555 1_555
H10 C7 1_555 1_555
H11 C7 1_555 1_555
C8 H12 1_555 1_555
C9 H13 1_555 1_555
C10 C9 1_555 1_555
H14 C10 1_555 1_555
C11 H15 1_555 1_555
C12 H16 1_555 1_555
C13 C12 1_555 1_555
H17 C13 1_555 1_555
C14 H18 1_555 1_555
H19 C14 1_555 1_555
C15 C14 1_555 1_555
H20 C15 1_555 1_555
H21 C15 1_555 1_555
C16 C15 1_555 1_555
H22 C16 1_555 1_555
H23 C16 1_555 1_555
C17 C16 1_555 1_555
H24 C17 1_555 1_555
H25 C17 1_555 1_555
C18 H26 1_555 1_555
C19 H27 1_555 1_555
C20 C19 1_555 1_555
H28 C20 1_555 1_555
C21 H29 1_555 1_555
C22 C21 1_555 1_555
H30 C22 1_555 1_555
C23 H31 1_555 1_555
C24 H32 1_555 1_555
H33 C24 1_555 1_555
C25 C24 1_555 1_555
H34 C25 1_555 1_555
H35 C25 1_555 1_555
N1 C1 1_555 1_555
N2 C2 1_555 1_555
N3 C7 1_555 1_555
N4 C8 1_555 1_555
N5 Cu1 1_555 1_555
N6 C11 1_555 1_555
N7 C17 1_555 1_555
N8 C18 1_555 1_555
N9 Cu1 1_555 1_555
N10 C22 1_555 1_555
N11 O1 1_555 1_555
O2 N11 1_555 1_555
O3 N11 1_555 1_555
O4 H36 1_555 1_555
H37 O4 1_555 1_555
O5 H38 1_555 1_555
H39 O5 1_555 1_555
C21D H29D 1_555 1_555
C22D C21D 1_555 1_555
H30D C22D 1_555 1_555
C23D H31D 1_555 1_555
C24D H32D 1_555 1_555
H33D C24D 1_555 1_555
C25D C25 1_555 1_555
H34D C25D 1_555 1_555
H35D C25D 1_555 1_555
N9D C21D 1_555 1_555
N10D C22D 1_555 1_555
Cu1D N9D 1_555 1_555
C1D H1D 1_555 1_555
C2D C1D 1_555 1_555
H2D C2D 1_555 1_555
C3D H3D 1_555 1_555
C4D H4D 1_555 1_555
H5D C4D 1_555 1_555
C5D C4D 1_555 1_555
H6D C5D 1_555 1_555
H7D C5D 1_555 1_555
C6D C5D 1_555 1_555
H8D C6D 1_555 1_555
H9D C6D 1_555 1_555
C7D C6D 1_555 1_555
H10D C7D 1_555 1_555
H11D C7D 1_555 1_555
C8D H12D 1_555 1_555
C9D H13D 1_555 1_555
C10D C9D 1_555 1_555
H14D C10D 1_555 1_555
C11D H15D 1_555 1_555
C12D H16D 1_555 1_555
C13D C12D 1_555 1_555
H17D C13D 1_555 1_555
C14D H18D 1_555 1_555
H19D C14D 1_555 1_555
C15D C14D 1_555 1_555
H20D C15D 1_555 1_555
H21D C15D 1_555 1_555
C16D C15D 1_555 1_555
H22D C16D 1_555 1_555
H23D C16D 1_555 1_555
C17D C16D 1_555 1_555
H24D C17D 1_555 1_555
H25D C17D 1_555 1_555
C18D H26D 1_555 1_555
C19D H27D 1_555 1_555
C20D C19D 1_555 1_555
H28D C20D 1_555 1_555
N1D C1D 1_555 1_555
N2D C2D 1_555 1_555
N3D C7D 1_555 1_555
N4D Cu1D 1_555 1_555
N5D Cu1D 1_555 1_555
N6D C11D 1_555 1_555
N7D C17D 1_555 1_555
N8D C18D 1_555 1_555
Cu1C N8D 1_555 1_555
Cu1C_2 N1D 1_555 1_555
Cu1G N1 1_555 1_555
Cu1G_2 N8 1_555 1_555
N1C Cu1D 1_555 1_555
N1G Cu1 1_555 1_555
N8C Cu1D 1_555 1_555
N8G Cu1 1_555 1_555
C3 N1 1_555 1_555
C3 N2 1_555 1_555
C4 N2 1_555 1_555
C8 N3 1_555 1_555
C9 N3 1_555 1_555
C10 N4 1_555 1_555
C11 N5 1_555 1_555
C12 N5 1_555 1_555
C13 N6 1_555 1_555
C14 N6 1_555 1_555
C18 N7 1_555 1_555
C19 N8 1_555 1_555
C20 N7 1_555 1_555
C21 N9 1_555 1_555
C23 N9 1_555 1_555
C23 N10 1_555 1_555
C24 N10 1_555 1_555
C23D N9D 1_555 1_555
C23D N10D 1_555 1_555
C24D C25D 1_555 1_555
C24D N10D 1_555 1_555
C3D N1D 1_555 1_555
C3D N2D 1_555 1_555
C4D N2D 1_555 1_555
C8D N3D 1_555 1_555
C8D N4D 1_555 1_555
C9D N3D 1_555 1_555
C10D N4D 1_555 1_555
C11D N5D 1_555 1_555
C12D N5D 1_555 1_555
C13D N6D 1_555 1_555
C14D N6D 1_555 1_555
C18D N7D 1_555 1_555
C19D N8D 1_555 1_555
C20D N7D 1_555 1_555

#END
