
#######################################################################
#
#                 Cambridge Crystallographic Data Centre
#                                CCDC 
#
#######################################################################
#
# If this CIF has been generated from an entry in the Cambridge 
# Structural Database, then it will include bibliographic, chemical, 
# crystal, experimental, refinement or atomic coordinate data resulting 
# from the CCDC's data processing and validation procedures.
#
#######################################################################

data_ZOQYIP
_symmetry_cell_setting           monoclinic
_symmetry_space_group_name_H-M   'P 21/c'
_symmetry_Int_Tables_number      14
_space_group_name_Hall           '-P 2ybc'
loop_
_symmetry_equiv_pos_site_id
_symmetry_equiv_pos_as_xyz
1 x,y,z
2 -x,1/2+y,1/2-z
3 -x,-y,-z
4 x,1/2-y,1/2+z
_cell_length_a                   11.7046(6)
_cell_length_b                   16.7871(8)
_cell_length_c                   10.4922(5)
_cell_angle_alpha                90
_cell_angle_beta                 91.9500(10)
_cell_angle_gamma                90
_cell_volume                     2060.38
loop_
_atom_site_label
_atom_site_type_symbol
_atom_site_fract_x
_atom_site_fract_y
_atom_site_fract_z
Ag1 Ag 0.599664(17) 0.557957(11) 0.078155(18)
N1 N 0.64574(18) 0.46711(13) 0.2167(2)
N2 N 0.45491(18) 0.15285(12) 0.5486(2)
N3 N 0.6908(2) 0.29282(13) 0.6162(2)
H1 H 0.7182 0.3160 0.6859
C1 C 0.7468(2) 0.42880(15) 0.2103(3)
H2 H 0.7945 0.4404 0.1412
C2 C 0.7836(2) 0.37356(15) 0.2997(3)
H3 H 0.8551 0.3477 0.2911
C3 C 0.7164(2) 0.35560(14) 0.4024(2)
C4 C 0.6126(2) 0.39512(16) 0.4087(3)
H4 H 0.5635 0.3849 0.4772
C5 C 0.5808(2) 0.44944(16) 0.3151(3)
H5 H 0.5092 0.4755 0.3211
C6 C 0.7578(2) 0.29614(15) 0.5034(3)
H6 H 0.7585 0.2425 0.4644
H7 H 0.8375 0.3096 0.5294
C7 C 0.5858(2) 0.25525(14) 0.6209(2)
C8 C 0.5553(2) 0.19125(14) 0.5408(2)
H8 H 0.6074 0.1744 0.4788
C9 C 0.3803(2) 0.17604(17) 0.6358(3)
H9 H 0.3100 0.1483 0.6420
C10 C 0.4037(3) 0.23941(17) 0.7165(3)
H10 H 0.3495 0.2553 0.7769
C11 C 0.5062(2) 0.27946(16) 0.7091(2)
H11 H 0.5226 0.3234 0.7639
S1 S 0.90399(6) 0.61772(4) 0.14218(7)
O1 O 0.78359(17) 0.64866(14) 0.1364(2)
C12 C 0.9849(2) 0.68750(17) 0.2364(3)
H12 H 0.9627 0.6838 0.3254
H13 H 0.9699 0.7415 0.2046
H14 H 1.0665 0.6755 0.2309
C13 C 0.9641(3) 0.6403(2) -0.0077(3)
H15 H 0.9288 0.6065 -0.0741
H16 H 1.0467 0.6305 -0.0025
H17 H 0.9500 0.6964 -0.0287
Ag1A Ag 0.400336(17) 0.057957(11) 0.421845(18)
N2A N 0.54509(18) 0.65285(12) -0.0486(2)
S2 S 0.85523(7) 0.61054(5) 0.61168(7)
O2 O 0.95718(18) 0.64284(13) 0.5476(2)
C14 C 0.7356(3) 0.6311(3) 0.5101(4)
H18 H 0.7204 0.6885 0.5099
H19 H 0.6687 0.6026 0.5407
H20 H 0.7512 0.6135 0.4234
C15 C 0.8616(4) 0.5055(2) 0.5930(5)
H21 H 0.9245 0.4841 0.6466
H22 H 0.8743 0.4926 0.5035
H23 H 0.7893 0.4818 0.6185
N4 N 0.72721(19) 0.45059(12) -0.1442(2)
O3 O 0.7696(2) 0.50433(13) -0.0788(2)
O4 O 0.6392(2) 0.46146(17) -0.2082(3)
O5 O 0.77059(19) 0.38352(12) -0.1461(2)
S3? S 0.8683(14) 0.5787(10) 0.4964(13)
H24? H 0.7343 0.6771 0.4527
H25? H 0.7282 0.6493 0.5982
H26? H 0.6719 0.5954 0.4870
H27? H 0.9322 0.4742 0.5905
H28? H 0.7963 0.4716 0.5681
H29? H 0.8519 0.5256 0.6796
loop_
_geom_bond_atom_site_label_1
_geom_bond_atom_site_label_2
_geom_bond_site_symmetry_1
_geom_bond_site_symmetry_2
Ag1 N1 1_555 1_555
N1 C1 1_555 1_555
N2 C8 1_555 1_555
N3 H1 1_555 1_555
C1 H2 1_555 1_555
C2 C1 1_555 1_555
H3 C2 1_555 1_555
C3 C2 1_555 1_555
C4 C3 1_555 1_555
H4 C4 1_555 1_555
C5 N1 1_555 1_555
H5 C5 1_555 1_555
C6 N3 1_555 1_555
H6 C6 1_555 1_555
H7 C6 1_555 1_555
C7 N3 1_555 1_555
C8 C7 1_555 1_555
H8 C8 1_555 1_555
C9 N2 1_555 1_555
H9 C9 1_555 1_555
C10 C9 1_555 1_555
H10 C10 1_555 1_555
C11 C7 1_555 1_555
H11 C11 1_555 1_555
S1 O1 1_555 1_555
O1 Ag1 1_555 1_555
C12 S1 1_555 1_555
H12 C12 1_555 1_555
H13 C12 1_555 1_555
H14 C12 1_555 1_555
C13 S1 1_555 1_555
H15 C13 1_555 1_555
H16 C13 1_555 1_555
H17 C13 1_555 1_555
S2 O2 1_555 1_555
C14 S2 1_555 1_555
H18 C14 1_555 1_555
H19 C14 1_555 1_555
H20 C14 1_555 1_555
C15 S2 1_555 1_555
H21 C15 1_555 1_555
H22 C15 1_555 1_555
H23 C15 1_555 1_555
N4 O3 1_555 1_555
O4 N4 1_555 1_555
O5 N4 1_555 1_555
Ag1A N2 1_555 1_555
N2A Ag1 1_555 1_555
C3 C6 1_555 1_555
C4 C5 1_555 1_555
C10 C11 1_555 1_555

#END
