
#######################################################################
#
#                 Cambridge Crystallographic Data Centre
#                                CCDC 
#
#######################################################################
#
# If this CIF has been generated from an entry in the Cambridge 
# Structural Database, then it will include bibliographic, chemical, 
# crystal, experimental, refinement or atomic coordinate data resulting 
# from the CCDC's data processing and validation procedures.
#
#######################################################################

data_ZOQZEM
_symmetry_cell_setting           orthorhombic
_symmetry_space_group_name_H-M   'P c c n'
_symmetry_Int_Tables_number      56
_space_group_name_Hall           '-P 2ab 2ac'
loop_
_symmetry_equiv_pos_site_id
_symmetry_equiv_pos_as_xyz
1 x,y,z
2 1/2-x,1/2-y,z
3 -x,1/2+y,1/2-z
4 1/2+x,-y,1/2-z
5 -x,-y,-z
6 1/2+x,1/2+y,-z
7 x,1/2-y,1/2+z
8 1/2-x,y,1/2+z
_cell_length_a                   17.8663(12)
_cell_length_b                   22.1923(15)
_cell_length_c                   22.2835(15)
_cell_angle_alpha                90
_cell_angle_beta                 90
_cell_angle_gamma                90
_cell_volume                     8835.28
loop_
_atom_site_label
_atom_site_type_symbol
_atom_site_fract_x
_atom_site_fract_y
_atom_site_fract_z
K1 K -0.5608(8) -0.6012(7) 0.2865(8)
O3 O -0.4840(11) -0.6894(9) 0.3406(9)
O4 O -0.6476(11) -0.5535(9) 0.3861(9)
Si1 Si -0.5000 -0.5000 0.0000
W1 W -0.479583(16) -0.371512(13) -0.092478(13)
W2 W -0.65178(2) -0.427481(12) 0.073412(12)
W3 W -0.65458(2) -0.446000(14) -0.082976(13)
W4 W -0.473858(17) -0.356862(13) 0.065579(16)
W5 W -0.499341(18) -0.485049(15) 0.155113(14)
Ru1 Ru -0.67576(2) -0.572416(14) 0.010212(14)
O5 O -0.4674(4) -0.3113(3) -0.1370(3)
O6 O -0.7246(3) -0.3935(2) 0.1083(2)
O7 O -0.7288(3) -0.4186(3) -0.1213(3)
O8 O -0.4656(4) -0.2878(3) 0.0965(3)
O9 O -0.4964(4) -0.4792(4) 0.2330(3)
O10 O -0.7598(3) -0.6066(3) 0.0149(3)
O11 O -0.4680(4) -0.4326(3) -0.1502(3)
O12 O -0.3784(4) -0.3893(3) -0.0727(3)
O13 O -0.4891(3) -0.3372(3) -0.0134(3)
O14 O -0.5836(3) -0.3828(3) -0.0925(3)
O15 O -0.5981(3) -0.4584(3) 0.1392(3)
O16 O -0.6637(5) -0.4142(3) -0.0064(3)
O17 O -0.5806(3) -0.3656(3) 0.0700(3)
O18 O -0.7121(4) -0.5042(3) 0.0628(3)
O19 O -0.7126(4) -0.5171(3) -0.0568(3)
O20 O -0.6001(3) -0.4883(3) -0.1421(3)
O21 O -0.4653(4) -0.4053(3) 0.1346(3)
O22 O -0.6251(4) -0.6247(3) -0.0453(3)
O23 O -0.4666(5) -0.4309(4) -0.0074(4)
O24 O -0.5974(7) -0.4893(4) 0.0001(4)
O25 O -0.4859(5) -0.5431(4) -0.0572(4)
O26 O -0.4832(5) -0.5301(4) 0.0616(4)
O23D O -0.5334(5) -0.5691(4) 0.0074(4)
O24D O -0.4026(7) -0.5107(4) -0.0001(4)
O25D O -0.5141(5) -0.4569(4) 0.0572(4)
O26D O -0.5168(5) -0.4699(4) -0.0616(4)
W1D W -0.520417(16) -0.628488(13) 0.092478(13)
W2D W -0.34822(2) -0.572519(12) -0.073412(12)
W3D W -0.34542(2) -0.554000(14) 0.082976(13)
W4D W -0.526142(17) -0.643138(13) -0.065579(16)
W5D W -0.500659(18) -0.514951(15) -0.155113(14)
Ru1D Ru -0.32424(2) -0.427584(14) -0.010212(14)
O5D O -0.5326(4) -0.6887(3) 0.1370(3)
O6D O -0.2754(3) -0.6065(2) -0.1083(2)
O7D O -0.2712(3) -0.5814(3) 0.1213(3)
O8D O -0.5344(4) -0.7122(3) -0.0965(3)
O9D O -0.5036(4) -0.5208(4) -0.2330(3)
O10D O -0.2402(3) -0.3934(3) -0.0149(3)
O11D O -0.5320(4) -0.5674(3) 0.1502(3)
O12D O -0.6216(4) -0.6107(3) 0.0727(3)
O13D O -0.5109(3) -0.6628(3) 0.0134(3)
O14D O -0.4164(3) -0.6172(3) 0.0925(3)
O15D O -0.4019(3) -0.5416(3) -0.1392(3)
O16D O -0.3363(5) -0.5858(3) 0.0064(3)
O17D O -0.4194(3) -0.6344(3) -0.0700(3)
O18D O -0.2879(4) -0.4958(3) -0.0628(3)
O19D O -0.2874(4) -0.4829(3) 0.0568(3)
O20D O -0.3999(3) -0.5117(3) 0.1421(3)
O21D O -0.5347(4) -0.5947(3) -0.1346(3)
O22D O -0.3749(4) -0.3753(3) 0.0453(3)
K2 K -0.3782(5) -0.6019(7) 0.4206(7)
O27 O -0.3638(9) -0.6153(8) 0.5439(8)
O28 O -0.3717(10) -0.4803(8) 0.4139(8)
O29 O -0.5148(7) -0.3019(6) 0.4616(7)
O30 O -0.4833(6) -0.3409(4) 0.2513(7)
O31 O -0.4338(13) -0.1027(10) 0.0127(10)
O32 O -0.4770(14) -0.4250(12) 0.3435(12)
O33 O -0.5530(16) -0.3135(12) 0.3685(13)
Cu1 Cu -0.7500 -0.7500 0.22973(4)
Cu2 Cu -0.7500 -0.2500 0.25391(5)
N1 N -0.7566(3) -0.6592(2) 0.23010(19)
N2 N -0.7538(3) -0.3421(2) 0.2515(2)
N3 N -0.7500 -0.7500 0.3213(3)
N4 N -0.7500 -0.7500 0.6383(3)
N5 N -0.7500 -0.2500 -0.1547(3)
N6 N -0.7500 -0.2500 0.1634(3)
C1 C -0.8036(4) -0.6301(3) 0.2669(3)
H1 H -0.8361 -0.6524 0.2907
C2 C -0.8054(4) -0.5685(3) 0.2705(3)
H2 H -0.8395 -0.5499 0.2959
C3 C -0.7574(3) -0.5339(2) 0.2370(2)
C4 C -0.7096(4) -0.5642(2) 0.1998(3)
H3 H -0.6755 -0.5428 0.1766
C5 C -0.7113(4) -0.6268(2) 0.1965(3)
H4 H -0.6795 -0.6463 0.1697
C6 C -0.8160(5) -0.3707(3) 0.2416(3)
H5 H -0.8595 -0.3481 0.2370
C7 C -0.8214(4) -0.4328(3) 0.2373(3)
H6 H -0.8675 -0.4513 0.2317
C8 C -0.7574(3) -0.4663(2) 0.2415(2)
C9 C -0.6904(4) -0.4362(3) 0.2517(3)
H7 H -0.6456 -0.4571 0.2560
C10 C -0.6927(4) -0.3735(3) 0.2554(3)
H8 H -0.6479 -0.3530 0.2610
C11 C -0.7044(3) -0.7141(2) 0.3520(2)
H9 H -0.6729 -0.6884 0.3309
C12 C -0.7015(4) -0.7132(2) 0.4136(2)
H10 H -0.6677 -0.6884 0.4334
C13 C -0.7500 -0.7500 0.4459(3)
C14 C -0.7500 -0.7500 0.5143(3)
C15 C -0.8134(4) -0.7655(3) 0.5463(2)
H11 H -0.8572 -0.7757 0.5262
C16 C -0.8115(3) -0.7658(3) 0.6067(2)
H12 H -0.8542 -0.7773 0.6276
C17 C -0.8047(4) -0.2219(3) -0.1237(3)
H13 H -0.8422 -0.2020 -0.1448
C18 C -0.8067(4) -0.2215(3) -0.0623(2)
H14 H -0.8457 -0.2023 -0.0422
C19 C -0.7500 -0.2500 -0.0301(3)
C20 C -0.7500 -0.2500 0.0378(3)
C21 C -0.8162(4) -0.2464(3) 0.0699(3)
H15 H -0.8618 -0.2437 0.0500
C22 C -0.8134(5) -0.2468(3) 0.1326(3)
H16 H -0.8582 -0.2448 0.1538
O1 O -0.5953(3) -0.2517(2) 0.2608(2)
O2 O -0.8883(3) -0.7571(2) 0.2346(2)
C11A C -0.7956(3) -0.7859(2) 0.3520(2)
H9A H -0.8271 -0.8116 0.3309
C12A C -0.7985(4) -0.7868(2) 0.4136(2)
H10A H -0.8323 -0.8116 0.4334
C15A C -0.6866(4) -0.7345(3) 0.5463(2)
H11A H -0.6428 -0.7243 0.5262
C16A C -0.6885(3) -0.7342(3) 0.6067(2)
H12A H -0.6458 -0.7227 0.6276
C17A C -0.6953(4) -0.2781(3) -0.1237(3)
H13A H -0.6578 -0.2980 -0.1448
C18A C -0.6933(4) -0.2785(3) -0.0623(2)
H14A H -0.6543 -0.2977 -0.0422
C21A C -0.6838(4) -0.2536(3) 0.0699(3)
H15A H -0.6382 -0.2563 0.0500
C22A C -0.6866(5) -0.2532(3) 0.1326(3)
H16A H -0.6418 -0.2552 0.1538
N1A N -0.7434(3) -0.8408(2) 0.23010(19)
N2A N -0.7462(3) -1.1579(2) 0.2515(2)
C1A C -0.6964(4) -0.8699(3) 0.2669(3)
H1A H -0.6639 -0.8476 0.2907
C2A C -0.6946(4) -0.9315(3) 0.2705(3)
H2A H -0.6605 -0.9501 0.2959
C3A C -0.7426(3) -0.9661(2) 0.2370(2)
C4A C -0.7904(4) -0.9358(2) 0.1998(3)
H3A H -0.8245 -0.9572 0.1766
C5A C -0.7887(4) -0.8732(2) 0.1965(3)
H4A H -0.8205 -0.8537 0.1697
C6A C -0.6840(5) -1.1293(3) 0.2416(3)
H5A H -0.6405 -1.1519 0.2370
C7A C -0.6786(4) -1.0672(3) 0.2373(3)
H6A H -0.6325 -1.0487 0.2317
C8A C -0.7426(3) -1.0337(2) 0.2415(2)
C9A C -0.8096(4) -1.0638(3) 0.2517(3)
H7A H -0.8544 -1.0429 0.2560
C10A C -0.8073(4) -1.1265(3) 0.2554(3)
H8A H -0.8521 -1.1470 0.2610
O2A O -0.6117(3) -0.7429(2) 0.2346(2)
O1A O -0.9047(3) -0.2483(2) 0.2608(2)
Cu1F Cu -0.7500 -0.7500 0.72973(4)
Cu2_2 Cu -0.7500 -1.2500 0.25391(5)
Cu2F Cu -0.7500 -0.2500 -0.24609(5)
N2A_2 N -0.7462(3) -0.1579(2) 0.2515(2)
N4F N -0.7500 -0.7500 0.1383(3)
N5F N -0.7500 -0.2500 0.3453(3)
Ru2? Ru -0.479583(16) -0.371512(13) -0.092478(13)
Ru3? Ru -0.65178(2) -0.427481(12) 0.073412(12)
Ru4? Ru -0.65458(2) -0.446000(14) -0.082976(13)
Ru5? Ru -0.473858(17) -0.356862(13) 0.065579(16)
Ru6? Ru -0.499341(18) -0.485049(15) 0.155113(14)
W6? W -0.67576(2) -0.572416(14) 0.010212(14)
loop_
_geom_bond_atom_site_label_1
_geom_bond_atom_site_label_2
_geom_bond_site_symmetry_1
_geom_bond_site_symmetry_2
Cu1 N1 1_555 1_555
Cu2 N2 1_555 1_555
N1 C1 1_555 1_555
N2 C6 1_555 1_555
N3 Cu1 1_555 1_555
N4 C16 1_555 1_555
N5 C17 1_555 1_555
N6 Cu2 1_555 1_555
C1 H1 1_555 1_555
C2 C1 1_555 1_555
H2 C2 1_555 1_555
C3 C2 1_555 1_555
C4 C3 1_555 1_555
H3 C4 1_555 1_555
C5 N1 1_555 1_555
H4 C5 1_555 1_555
C6 H5 1_555 1_555
C7 C6 1_555 1_555
H6 C7 1_555 1_555
C8 C3 1_555 1_555
C9 C8 1_555 1_555
H7 C9 1_555 1_555
C10 N2 1_555 1_555
H8 C10 1_555 1_555
C11 N3 1_555 1_555
H9 C11 1_555 1_555
C12 C11 1_555 1_555
H10 C12 1_555 1_555
C13 C12 1_555 1_555
C14 C13 1_555 1_555
C15 C14 1_555 1_555
H11 C15 1_555 1_555
C16 C15 1_555 1_555
H12 C16 1_555 1_555
C17 H13 1_555 1_555
C18 C17 1_555 1_555
H14 C18 1_555 1_555
C19 C18 1_555 1_555
C20 C19 1_555 1_555
C21 C20 1_555 1_555
H15 C21 1_555 1_555
C22 N6 1_555 1_555
H16 C22 1_555 1_555
O1 Cu2 1_555 1_555
O2 Cu1 1_555 1_555
Si1 O23 1_555 1_555
W1 O5 1_555 1_555
W2 O6 1_555 1_555
W3 O7 1_555 1_555
W4 O8 1_555 1_555
W5 O9 1_555 1_555
Ru1 O10 1_555 1_555
O11 W1 1_555 1_555
O12 W1 1_555 1_555
O13 W1 1_555 1_555
O14 W1 1_555 1_555
O15 W2 1_555 1_555
O16 W2 1_555 1_555
O17 W2 1_555 1_555
O18 W2 1_555 1_555
O19 W3 1_555 1_555
O20 W3 1_555 1_555
O21 W4 1_555 1_555
O22 Ru1 1_555 1_555
O23 W1 1_555 1_555
O24 Si1 1_555 1_555
O25 Si1 1_555 1_555
O26 Si1 1_555 1_555
C11A N3 1_555 1_555
H9A C11A 1_555 1_555
C12A C13 1_555 1_555
H10A C12A 1_555 1_555
C15A C14 1_555 1_555
H11A C15A 1_555 1_555
C16A N4 1_555 1_555
H12A C16A 1_555 1_555
C17A N5 1_555 1_555
H13A C17A 1_555 1_555
C18A C19 1_555 1_555
H14A C18A 1_555 1_555
C21A C20 1_555 1_555
H15A C21A 1_555 1_555
C22A N6 1_555 1_555
H16A C22A 1_555 1_555
N1A Cu1 1_555 1_555
N2A C6A 1_555 1_555
C1A N1A 1_555 1_555
H1A C1A 1_555 1_555
C2A C1A 1_555 1_555
H2A C2A 1_555 1_555
C3A C2A 1_555 1_555
C4A C3A 1_555 1_555
H3A C4A 1_555 1_555
C5A N1A 1_555 1_555
H4A C5A 1_555 1_555
C6A H5A 1_555 1_555
C7A C6A 1_555 1_555
H6A C7A 1_555 1_555
C8A C3A 1_555 1_555
C9A C8A 1_555 1_555
H7A C9A 1_555 1_555
C10A N2A 1_555 1_555
H8A C10A 1_555 1_555
O2A Cu1 1_555 1_555
O1A Cu2 1_555 1_555
Cu1F N4 1_555 1_555
Cu2_2 N2A 1_555 1_555
Cu2F N5 1_555 1_555
N2A_2 Cu2 1_555 1_555
N4F Cu1 1_555 1_555
N5F Cu2 1_555 1_555
O23D Si1 1_555 1_555
O24D Si1 1_555 1_555
O25D Si1 1_555 1_555
O26D Si1 1_555 1_555
W1D O26 1_555 1_555
W2D O24D 1_555 1_555
W3D O24D 1_555 1_555
W4D O22 1_555 1_555
W5D O11 1_555 1_555
Ru1D O12 1_555 1_555
O5D W1D 1_555 1_555
O6D W2D 1_555 1_555
O7D W3D 1_555 1_555
O8D W4D 1_555 1_555
O9D W5D 1_555 1_555
O10D Ru1D 1_555 1_555
O11D W5 1_555 1_555
O12D Ru1 1_555 1_555
O13D W1D 1_555 1_555
O14D W1D 1_555 1_555
O15D W2D 1_555 1_555
O16D W2D 1_555 1_555
O17D W2D 1_555 1_555
O18D W2D 1_555 1_555
O19D W3D 1_555 1_555
O20D W5 1_555 1_555
O21D W4D 1_555 1_555
O22D W4 1_555 1_555
C4 C5 1_555 1_555
C7 C8 1_555 1_555
C9 C10 1_555 1_555
C21 C22 1_555 1_555
W1 O26D 1_555 1_555
W2 O24 1_555 1_555
W3 O14 1_555 1_555
W3 O16 1_555 1_555
W3 O24 1_555 1_555
W4 O13 1_555 1_555
W4 O17 1_555 1_555
W4 O23 1_555 1_555
W4 O25D 1_555 1_555
W5 O15 1_555 1_555
W5 O21 1_555 1_555
W5 O26 1_555 1_555
W5 O25D 1_555 1_555
Ru1 O18 1_555 1_555
Ru1 O19 1_555 1_555
Ru1 O24 1_555 1_555
O20 W5D 1_555 1_555
O23 O25D 1_555 1_555
O23 O26D 1_555 1_555
O25 O23D 1_555 1_555
O25 O26D 1_555 1_555
O25 W4D 1_555 1_555
O25 W5D 1_555 1_555
O26 O23D 1_555 1_555
O26 O25D 1_555 1_555
C11A C12A 1_555 1_555
C15A C16A 1_555 1_555
C17A C18A 1_555 1_555
C21A C22A 1_555 1_555
C4A C5A 1_555 1_555
C7A C8A 1_555 1_555
C9A C10A 1_555 1_555
O23D W1D 1_555 1_555
O23D W4D 1_555 1_555
O24D Ru1D 1_555 1_555
O26D W5D 1_555 1_555
W1D O11D 1_555 1_555
W1D O12D 1_555 1_555
W3D O14D 1_555 1_555
W3D O16D 1_555 1_555
W3D O20D 1_555 1_555
W4D O13D 1_555 1_555
W4D O17D 1_555 1_555
W5D O15D 1_555 1_555
W5D O21D 1_555 1_555
Ru1D O18D 1_555 1_555
Ru1D O19D 1_555 1_555
Ru1D O22D 1_555 1_555

#END
