
#######################################################################
#
#                 Cambridge Crystallographic Data Centre
#                                CCDC 
#
#######################################################################
#
# If this CIF has been generated from an entry in the Cambridge 
# Structural Database, then it will include bibliographic, chemical, 
# crystal, experimental, refinement or atomic coordinate data resulting 
# from the CCDC's data processing and validation procedures.
#
#######################################################################

data_ZORBIT
_symmetry_cell_setting           monoclinic
_symmetry_space_group_name_H-M   'C 2/c'
_symmetry_Int_Tables_number      15
_space_group_name_Hall           '-C 2yn'
loop_
_symmetry_equiv_pos_site_id
_symmetry_equiv_pos_as_xyz
1 x,y,z
2 -x,y,1/2-z
3 1/2+x,1/2+y,z
4 1/2-x,1/2+y,1/2-z
5 -x,-y,-z
6 x,-y,1/2+z
7 1/2-x,1/2-y,-z
8 1/2+x,1/2-y,1/2+z
_cell_length_a                   23.6808(19)
_cell_length_b                   13.9240(12)
_cell_length_c                   10.9090(12)
_cell_angle_alpha                90
_cell_angle_beta                 91.6020(10)
_cell_angle_gamma                90
_cell_volume                     3595.63
loop_
_atom_site_label
_atom_site_type_symbol
_atom_site_fract_x
_atom_site_fract_y
_atom_site_fract_z
Co1 Co 0.5000 0.47807(3) 0.7500
O1 O 0.57320(8) 0.62468(15) 0.8201(2)
O2 O 0.56210(7) 0.52973(12) 0.65886(17)
N1 N 0.46219(7) 0.37645(12) 0.64181(17)
N2 N 0.45893(8) 0.25338(12) 0.51263(16)
C1 C 0.63876(9) 0.63750(18) 0.6595(2)
C2 C 0.65802(10) 0.59885(18) 0.5517(3)
H1 H 0.6415 0.5433 0.5198
C3 C 0.70186(10) 0.64222(18) 0.4908(2)
H2 H 0.7145 0.6146 0.4189
C4 C 0.72746(9) 0.72581(18) 0.5342(2)
C5 C 0.70781(11) 0.7623(2) 0.6439(3)
H3 H 0.7243 0.8175 0.6766
C6 C 0.66444(11) 0.7186(2) 0.7055(3)
H4 H 0.6526 0.7446 0.7790
C7 C 0.58810(10) 0.59519(19) 0.7203(3)
C8 C 0.48228(9) 0.33907(15) 0.5416(2)
H5 H 0.5097 0.3686 0.4953
C9 C 0.42308(9) 0.30926(15) 0.6832(2)
C10 C 0.38970(9) 0.30971(17) 0.7866(2)
H6 H 0.3910 0.3613 0.8407
C11 C 0.35475(10) 0.23230(19) 0.8073(2)
C12 C 0.35275(10) 0.15424(18) 0.7252(3)
C13 C 0.31983(14) 0.2321(3) 0.9209(3)
H7 H 0.3262 0.2906 0.9656
H8 H 0.3305 0.1783 0.9716
H9 H 0.2805 0.2271 0.8977
C14 C 0.31483(13) 0.0681(2) 0.7481(3)
H10 H 0.3190 0.0220 0.6835
H11 H 0.2762 0.0888 0.7499
H12 H 0.3254 0.0392 0.8253
C15 C 0.38553(10) 0.15403(17) 0.6228(2)
H13 H 0.3841 0.1028 0.5682
C16 C 0.42085(9) 0.23241(15) 0.6029(2)
C17 C 0.47487(11) 0.19228(16) 0.4105(2)
H14 H 0.5073 0.2197 0.3710
H15 H 0.4439 0.1892 0.3504
C18 C 0.48903(10) 0.09236(16) 0.4552(2)
C19 C 0.52360(11) 0.07818(17) 0.5582(2)
H16 H 0.5397 0.1309 0.5982
C20 C 0.53439(11) -0.01299(17) 0.6021(2)
H17 H 0.5578 -0.0211 0.6712
O1F O 0.92680(8) 0.87532(15) 0.1799(2)
O2F O 0.93790(7) 0.97027(12) 0.34114(17)
C1F C 0.86124(9) 0.86250(18) 0.3405(2)
C2F C 0.84198(10) 0.90115(18) 0.4483(3)
H1F H 0.8585 0.9567 0.4802
C3F C 0.79814(10) 0.85778(18) 0.5092(2)
H2F H 0.7855 0.8854 0.5811
C4F C 0.77254(9) 0.77419(18) 0.4658(2)
C5F C 0.79219(11) 0.7377(2) 0.3561(3)
H3F H 0.7757 0.6825 0.3234
C6F C 0.83556(11) 0.7814(2) 0.2945(3)
H4F H 0.8474 0.7554 0.2210
C7F C 0.91190(10) 0.90481(19) 0.2797(3)
N1D N 0.53781(7) -0.37645(12) 0.35819(17)
N2D N 0.54107(8) -0.25338(12) 0.48737(16)
C8D C 0.51772(9) -0.33907(15) 0.4584(2)
H5D H 0.4903 -0.3686 0.5047
C9D C 0.57692(9) -0.30926(15) 0.3168(2)
C10D C 0.61030(9) -0.30971(17) 0.2134(2)
H6D H 0.6090 -0.3613 0.1593
C11D C 0.64525(10) -0.23230(19) 0.1927(2)
C12D C 0.64725(10) -0.15424(18) 0.2748(3)
C13D C 0.68017(14) -0.2321(3) 0.0791(3)
H7D H 0.6738 -0.2906 0.0344
H8D H 0.6695 -0.1783 0.0284
H9D H 0.7195 -0.2271 0.1023
C14D C 0.68517(13) -0.0681(2) 0.2519(3)
H10D H 0.6810 -0.0220 0.3165
H11D H 0.7238 -0.0888 0.2501
H12D H 0.6746 -0.0392 0.1747
C15D C 0.61447(10) -0.15403(17) 0.3772(2)
H13D H 0.6159 -0.1028 0.4318
C16D C 0.57915(9) -0.23241(15) 0.3971(2)
C17D C 0.52513(11) -0.19228(16) 0.5895(2)
H14D H 0.4927 -0.2197 0.6290
H15D H 0.5561 -0.1892 0.6496
C18D C 0.51097(10) -0.09236(16) 0.5448(2)
C19D C 0.47640(11) -0.07818(17) 0.4418(2)
H16D H 0.4603 -0.1309 0.4018
C20D C 0.46561(11) 0.01299(17) 0.3979(2)
H17D H 0.4422 0.0211 0.3288
Co1D Co 0.5000 -0.47807(3) 0.2500
Co1F Co 1.0000 1.02193(3) 0.2500
O2A O 0.43790(7) 0.52973(12) 0.84114(17)
N1A N 0.53781(7) 0.37645(12) 0.85819(17)
loop_
_geom_bond_atom_site_label_1
_geom_bond_atom_site_label_2
_geom_bond_site_symmetry_1
_geom_bond_site_symmetry_2
Co1 O2 1_555 1_555
O1 C7 1_555 1_555
O2 C7 1_555 1_555
N1 Co1 1_555 1_555
N2 C8 1_555 1_555
C1 C2 1_555 1_555
C2 H1 1_555 1_555
C3 C2 1_555 1_555
H2 C3 1_555 1_555
C4 C3 1_555 1_555
C5 C4 1_555 1_555
H3 C5 1_555 1_555
C6 C1 1_555 1_555
H4 C6 1_555 1_555
C7 C1 1_555 1_555
C8 N1 1_555 1_555
H5 C8 1_555 1_555
C9 N1 1_555 1_555
C10 C9 1_555 1_555
H6 C10 1_555 1_555
C11 C10 1_555 1_555
C12 C11 1_555 1_555
C13 C11 1_555 1_555
H7 C13 1_555 1_555
H8 C13 1_555 1_555
H9 C13 1_555 1_555
C14 C12 1_555 1_555
H10 C14 1_555 1_555
H11 C14 1_555 1_555
H12 C14 1_555 1_555
C15 C12 1_555 1_555
H13 C15 1_555 1_555
C16 N2 1_555 1_555
C17 N2 1_555 1_555
H14 C17 1_555 1_555
H15 C17 1_555 1_555
C18 C17 1_555 1_555
C19 C18 1_555 1_555
H16 C19 1_555 1_555
C20 C19 1_555 1_555
H17 C20 1_555 1_555
O1F C7F 1_555 1_555
O2F C7F 1_555 1_555
C1F C2F 1_555 1_555
C2F H1F 1_555 1_555
C3F C2F 1_555 1_555
H2F C3F 1_555 1_555
C4F C4 1_555 1_555
C5F C4F 1_555 1_555
H3F C5F 1_555 1_555
C6F C1F 1_555 1_555
H4F C6F 1_555 1_555
C7F C1F 1_555 1_555
N1D C8D 1_555 1_555
N2D C8D 1_555 1_555
C8D H5D 1_555 1_555
C9D N1D 1_555 1_555
C10D C9D 1_555 1_555
H6D C10D 1_555 1_555
C11D C10D 1_555 1_555
C12D C11D 1_555 1_555
C13D C11D 1_555 1_555
H7D C13D 1_555 1_555
H8D C13D 1_555 1_555
H9D C13D 1_555 1_555
C14D C12D 1_555 1_555
H10D C14D 1_555 1_555
H11D C14D 1_555 1_555
H12D C14D 1_555 1_555
C15D C12D 1_555 1_555
H13D C15D 1_555 1_555
C16D N2D 1_555 1_555
C17D N2D 1_555 1_555
H14D C17D 1_555 1_555
H15D C17D 1_555 1_555
C18D C20 1_555 1_555
C19D C18D 1_555 1_555
H16D C19D 1_555 1_555
C20D C18 1_555 1_555
H17D C20D 1_555 1_555
Co1D N1D 1_555 1_555
Co1F O2F 1_555 1_555
O2A Co1 1_555 1_555
N1A Co1 1_555 1_555
C5 C6 1_555 1_555
C9 C16 1_555 1_555
C15 C16 1_555 1_555
C3F C4F 1_555 1_555
C5F C6F 1_555 1_555
C9D C16D 1_555 1_555
C15D C16D 1_555 1_555
C17D C18D 1_555 1_555
C19D C20D 1_555 1_555

#END
