
#######################################################################
#
#                 Cambridge Crystallographic Data Centre
#                                CCDC 
#
#######################################################################
#
# If this CIF has been generated from an entry in the Cambridge 
# Structural Database, then it will include bibliographic, chemical, 
# crystal, experimental, refinement or atomic coordinate data resulting 
# from the CCDC's data processing and validation procedures.
#
#######################################################################

data_ZORBUF
_symmetry_cell_setting           orthorhombic
_symmetry_space_group_name_H-M   'P b c a'
_symmetry_Int_Tables_number      61
_space_group_name_Hall           '-P 2ac 2ab'
loop_
_symmetry_equiv_pos_site_id
_symmetry_equiv_pos_as_xyz
1 x,y,z
2 1/2-x,-y,1/2+z
3 1/2+x,1/2-y,-z
4 -x,1/2+y,1/2-z
5 -x,-y,-z
6 1/2+x,y,1/2-z
7 1/2-x,1/2+y,z
8 x,1/2-y,1/2+z
_cell_length_a                   11.4409(12)
_cell_length_b                   24.696(3)
_cell_length_c                   25.285(3)
_cell_angle_alpha                90
_cell_angle_beta                 90
_cell_angle_gamma                90
_cell_volume                     7144.14
loop_
_atom_site_label
_atom_site_type_symbol
_atom_site_fract_x
_atom_site_fract_y
_atom_site_fract_z
Co1 Co 0.37909(6) 0.54942(3) 0.60015(3)
O1 O 0.4921(3) 0.48944(15) 0.56806(16)
O2 O 0.3861(4) 0.46652(17) 0.63562(15)
N1 N 0.2664(4) 0.53647(16) 0.53725(15)
N2 N 0.1975(4) 0.49885(17) 0.46324(15)
N3 N -0.1289(4) 0.4372(2) 0.27973(16)
C1 C 0.8946(4) 0.1719(2) 0.60500(19)
C2 C 0.6618(5) 0.3079(2) 0.60398(19)
C3 C 0.9770(5) 0.1256(2) 0.60452(19)
C4 C 0.1227(4) 0.5412(2) 0.4752(2)
C5 C 0.5219(4) 0.4012(2) 0.60222(19)
C6 C 0.4617(5) 0.4554(2) 0.6020(2)
C7 C 0.7217(5) 0.2166(2) 0.63789(19)
H1 H 0.6570 0.2166 0.6601
C8 C 0.7976(5) 0.1726(2) 0.63754(19)
H2 H 0.7827 0.1432 0.6595
C9 C 0.7426(5) 0.26095(19) 0.60499(19)
C10 C 0.1673(5) 0.5651(2) 0.5208(2)
C11 C 0.6047(5) 0.3260(2) 0.6491(2)
H3 H 0.6138 0.3072 0.6806
C12 C 0.5762(5) 0.3830(2) 0.55728(19)
H4 H 0.5671 0.4022 0.5259
C13 C -0.1427(5) 0.3817(3) 0.28342(19)
C14 C 0.5343(5) 0.3716(2) 0.6478(2)
H5 H 0.4951 0.3823 0.6782
C15 C 0.1164(5) 0.6115(2) 0.5415(2)
H6 H 0.1473 0.6281 0.5714
C16 C 0.2802(4) 0.4985(2) 0.50155(18)
H7 H 0.3413 0.4737 0.5024
C17 C 0.1657(5) 0.4864(2) 0.36753(19)
C18 C -0.2033(5) 0.4599(2) 0.3138(2)
H8 H -0.2088 0.4971 0.3189
C19 C 0.9155(6) 0.2160(2) 0.5728(3)
H9 H 0.9804 0.2161 0.5507
C20 C 0.8415(5) 0.2597(2) 0.5733(2)
H10 H 0.8581 0.2893 0.5518
C21 C -0.2308(5) 0.3737(2) 0.32116(19)
C22 C 0.6435(5) 0.3373(2) 0.5578(2)
H11 H 0.6779 0.3256 0.5265
C23 C 0.0225(5) 0.5611(3) 0.4506(2)
H12 H -0.0084 0.5440 0.4209
C24 C 0.0561(4) 0.4875(2) 0.28582(18)
C25 C 0.0810(5) 0.4653(2) 0.3345(2)
H13 H 0.0394 0.4350 0.3455
C26 C 0.1193(5) 0.5325(3) 0.2707(2)
H14 H 0.1045 0.5484 0.2380
C27 C -0.1261(6) 0.2874(3) 0.2698(2)
C28 C -0.0295(5) 0.6068(3) 0.4714(3)
C29 C -0.0897(5) 0.3390(3) 0.2582(2)
H15 H -0.0304 0.3449 0.2337
C30 C -0.2159(6) 0.2789(3) 0.3081(2)
C31 C 0.0188(6) 0.6325(3) 0.5167(3)
C32 C -0.0384(5) 0.4660(3) 0.2498(2)
H16 H -0.0737 0.4958 0.2307
H17 H -0.0039 0.4415 0.2242
C33 C 0.1891(6) 0.4595(2) 0.4196(2)
H18 H 0.1268 0.4341 0.4271
H19 H 0.2617 0.4393 0.4173
C34 C 0.2036(7) 0.5540(3) 0.3029(2)
H20 H 0.2449 0.5845 0.2922
C35 C -0.2536(8) 0.2217(3) 0.3220(3)
H21 H -0.1925 0.2041 0.3415
H22 H -0.2688 0.2019 0.2900
H23 H -0.3233 0.2230 0.3430
C36 C -0.2671(5) 0.3218(3) 0.3332(2)
H24 H -0.3256 0.3161 0.3581
C37 C 0.2271(6) 0.5311(3) 0.3504(2)
H25 H 0.2854 0.5457 0.3717
C38 C -0.0362(8) 0.6837(3) 0.5386(3)
H26 H 0.0080 0.6960 0.5685
H27 H -0.1151 0.6762 0.5493
H28 H -0.0365 0.7112 0.5118
C39 C -0.0718(8) 0.2395(3) 0.2406(3)
H29 H 0.0007 0.2505 0.2248
H30 H -0.1244 0.2273 0.2135
H31 H -0.0576 0.2106 0.2651
C40 C -0.1371(6) 0.6294(4) 0.4443(3)
H32 H -0.1198 0.6647 0.4303
H33 H -0.1998 0.6322 0.4694
H34 H -0.1599 0.6058 0.4160
O3 O 1.0629(4) 0.12562(15) 0.57373(14)
O4 O 0.9606(3) 0.08617(15) 0.63526(15)
N4 N -0.2683(4) 0.42448(18) 0.33970(16)
Co1D Co -0.37909(6) 0.45058(3) 0.39985(3)
Co1F Co 1.12091(6) 0.04942(3) 0.60015(3)
O3F O 0.4371(4) 0.62562(15) 0.57373(14)
O4F O 0.5394(3) 0.58617(15) 0.63526(15)
N4D N 0.2683(4) 0.57552(18) 0.66030(16)
loop_
_geom_bond_atom_site_label_1
_geom_bond_atom_site_label_2
_geom_bond_site_symmetry_1
_geom_bond_site_symmetry_2
Co1 O1 1_555 1_555
O1 C6 1_555 1_555
O2 Co1 1_555 1_555
N1 Co1 1_555 1_555
N2 C4 1_555 1_555
N3 C13 1_555 1_555
C1 C3 1_555 1_555
C2 C9 1_555 1_555
C3 O3 1_555 1_555
C4 C10 1_555 1_555
C5 C6 1_555 1_555
C6 O2 1_555 1_555
C7 H1 1_555 1_555
C8 C1 1_555 1_555
H2 C8 1_555 1_555
C9 C7 1_555 1_555
C10 N1 1_555 1_555
C11 C2 1_555 1_555
H3 C11 1_555 1_555
C12 C5 1_555 1_555
H4 C12 1_555 1_555
C13 C21 1_555 1_555
C14 C5 1_555 1_555
H5 C14 1_555 1_555
C15 C10 1_555 1_555
H6 C15 1_555 1_555
C16 N1 1_555 1_555
H7 C16 1_555 1_555
C17 C25 1_555 1_555
C18 N3 1_555 1_555
H8 C18 1_555 1_555
C19 C1 1_555 1_555
H9 C19 1_555 1_555
C20 C9 1_555 1_555
H10 C20 1_555 1_555
C21 C36 1_555 1_555
C22 C2 1_555 1_555
H11 C22 1_555 1_555
C23 C4 1_555 1_555
H12 C23 1_555 1_555
C24 C25 1_555 1_555
C25 H13 1_555 1_555
C26 C24 1_555 1_555
H14 C26 1_555 1_555
C27 C29 1_555 1_555
C28 C23 1_555 1_555
C29 C13 1_555 1_555
H15 C29 1_555 1_555
C30 C27 1_555 1_555
C31 C15 1_555 1_555
C32 N3 1_555 1_555
H16 C32 1_555 1_555
H17 C32 1_555 1_555
C33 N2 1_555 1_555
H18 C33 1_555 1_555
H19 C33 1_555 1_555
C34 C26 1_555 1_555
H20 C34 1_555 1_555
C35 C30 1_555 1_555
H21 C35 1_555 1_555
H22 C35 1_555 1_555
H23 C35 1_555 1_555
C36 C30 1_555 1_555
H24 C36 1_555 1_555
C37 C17 1_555 1_555
H25 C37 1_555 1_555
C38 C31 1_555 1_555
H26 C38 1_555 1_555
H27 C38 1_555 1_555
H28 C38 1_555 1_555
C39 C27 1_555 1_555
H29 C39 1_555 1_555
H30 C39 1_555 1_555
H31 C39 1_555 1_555
C40 C28 1_555 1_555
H32 C40 1_555 1_555
H33 C40 1_555 1_555
H34 C40 1_555 1_555
O3 Co1F 1_555 1_555
O4 C3 1_555 1_555
N4 C18 1_555 1_555
Co1D N4 1_555 1_555
Co1F O4 1_555 1_555
O3F Co1 1_555 1_555
O4F Co1 1_555 1_555
N4D Co1 1_555 1_555
N2 C16 1_555 1_555
C7 C8 1_555 1_555
C11 C14 1_555 1_555
C12 C22 1_555 1_555
C17 C33 1_555 1_555
C19 C20 1_555 1_555
C21 N4 1_555 1_555
C24 C32 1_555 1_555
C28 C31 1_555 1_555
C34 C37 1_555 1_555

#END
