
#######################################################################
#
#                 Cambridge Crystallographic Data Centre
#                                CCDC 
#
#######################################################################
#
# If this CIF has been generated from an entry in the Cambridge 
# Structural Database, then it will include bibliographic, chemical, 
# crystal, experimental, refinement or atomic coordinate data resulting 
# from the CCDC's data processing and validation procedures.
#
#######################################################################

data_ZORCAM
_symmetry_cell_setting           monoclinic
_symmetry_space_group_name_H-M   'P 21/c'
_symmetry_Int_Tables_number      14
_space_group_name_Hall           '-P 2ybc'
loop_
_symmetry_equiv_pos_site_id
_symmetry_equiv_pos_as_xyz
1 x,y,z
2 -x,1/2+y,1/2-z
3 -x,-y,-z
4 x,1/2-y,1/2+z
_cell_length_a                   10.5449(11)
_cell_length_b                   9.9472(10)
_cell_length_c                   28.910(3)
_cell_angle_alpha                90
_cell_angle_beta                 94.8990(10)
_cell_angle_gamma                90
_cell_volume                     3021.36
loop_
_atom_site_label
_atom_site_type_symbol
_atom_site_fract_x
_atom_site_fract_y
_atom_site_fract_z
Co1 Co 0.59471(4) 0.52700(5) 0.267100(14)
O1 O 0.5162(2) 0.6539(2) 0.21419(7)
O2 O 0.4227(2) 0.4165(2) 0.26285(8)
O3 O 0.3469(2) 0.9258(3) -0.16852(8)
O4 O 0.6171(2) 0.4749(2) 0.19260(7)
N1 N 0.9837(3) 0.6245(3) 0.26664(9)
N2 N 1.1562(2) 0.6972(3) 0.22464(9)
C1 C 0.5765(3) 0.5463(3) 0.09766(11)
H1 H 0.6144 0.4634 0.1044
C2 C 0.9973(4) 0.8643(4) 0.36554(13)
C3 C 0.9906(3) 0.7448(4) 0.15706(12)
H2 H 0.9331 0.6779 0.1636
N3 N 0.7728(3) 0.6445(3) 0.26790(9)
C4 C 1.0479(3) 0.7818(4) 0.33346(12)
H3 H 1.1354 0.7697 0.3335
C5 C 1.1028(3) 0.5858(3) 0.24917(12)
H4 H 1.0889 0.5099 0.2283
H5 H 1.1625 0.5584 0.2748
C6 C 0.9643(3) 0.7178(3) 0.30119(11)
C7 C 0.3632(3) 0.8468(4) -0.07501(12)
H6 H 0.2849 0.8761 -0.0885
C8 C 1.1878(3) 0.8638(3) 0.17652(11)
C9 C 0.5815(3) 0.8006(4) -0.08013(11)
H7 H 0.6525 0.7992 -0.0971
C10 C 0.8662(3) 0.5860(4) 0.24861(11)
H8 H 0.8532 0.5237 0.2247
C11 C 1.1647(3) 0.9480(3) 0.13864(11)
H9 H 1.2226 1.0148 0.1325
C12 C 0.5025(3) 0.7127(4) 0.04076(11)
C13 C 0.4573(4) 0.7884(4) 0.07621(12)
H10 H 0.4153 0.8690 0.0692
C14 C 0.5620(3) 0.5918(4) 0.05243(11)
H11 H 0.5930 0.5398 0.0292
C15 C 0.4738(3) 0.7458(4) 0.12187(11)
H12 H 0.4441 0.7985 0.1452
C16 C 0.7829(3) 0.8193(3) 0.33170(12)
H13 H 0.6955 0.8336 0.3303
C17 C 0.4543(3) 0.8925(3) -0.15067(11)
C18 C 0.4663(3) 0.8450(3) -0.10098(11)
C19 C 1.1033(3) 0.7618(3) 0.18486(11)
C20 C 0.5343(3) 0.6246(3) 0.13307(11)
C21 C 1.0530(4) 0.9307(4) 0.10998(12)
C22 C 0.5562(3) 0.5801(4) 0.18231(11)
C23 C 0.4893(3) 0.7606(3) -0.00803(11)
C24 C 0.8331(3) 0.7306(3) 0.30116(11)
C25 C 0.3737(3) 0.8059(4) -0.02911(12)
H14 H 0.3026 0.8087 -0.0122
C26 C 0.8633(4) 0.8866(4) 0.36427(13)
C27 C 0.8074(4) 0.9797(4) 0.39849(15)
H15 H 0.7165 0.9816 0.3925
H16 H 0.8408 1.0687 0.3952
H17 H 0.8295 0.9481 0.4295
C28 C 0.9655(4) 0.8294(4) 0.11947(13)
C29 C 0.5927(3) 0.7584(4) -0.03460(12)
H18 H 0.6710 0.7280 -0.0214
C30 C 1.0850(4) 0.9260(4) 0.40375(14)
H19 H 1.1718 0.9083 0.3980
H20 H 1.0678 0.8876 0.4330
H21 H 1.0712 1.0213 0.4045
C31 C 0.8416(4) 0.8133(5) 0.08926(16)
H22 H 0.8596 0.7968 0.0578
H23 H 0.7921 0.8940 0.0906
H24 H 0.7946 0.7390 0.1003
C32 C 1.0286(4) 1.0236(4) 0.06896(14)
H25 H 1.0952 1.0895 0.0694
H26 H 0.9483 1.0680 0.0707
H27 H 1.0268 0.9725 0.0407
O5 O 0.5568(2) 0.8945(2) -0.17108(7)
C33 C 1.2657(3) 0.7637(3) 0.23840(11)
H28 H 1.3186 0.7401 0.2645
N4 N 1.2890(2) 0.8637(3) 0.21137(9)
H29 H 0.3772 0.4444 0.2824
H30 H 0.4334 0.3377 0.2668
Co1A Co 1.40529(4) 1.02700(5) 0.232900(14)
Co1C Co 0.59471(4) 0.97300(5) -0.232900(14)
O5C O 0.5568(2) 0.6055(2) 0.32892(7)
N4A N 0.7110(2) 0.3637(3) 0.28863(9)
loop_
_geom_bond_atom_site_label_1
_geom_bond_atom_site_label_2
_geom_bond_site_symmetry_1
_geom_bond_site_symmetry_2
Co1 O1 1_555 1_555
O1 C22 1_555 1_555
O2 Co1 1_555 1_555
O3 C17 1_555 1_555
O4 Co1 1_555 1_555
N1 C5 1_555 1_555
N2 C5 1_555 1_555
C1 H1 1_555 1_555
C2 C4 1_555 1_555
C3 H2 1_555 1_555
N3 Co1 1_555 1_555
C4 H3 1_555 1_555
C5 H4 1_555 1_555
H5 C5 1_555 1_555
C6 N1 1_555 1_555
C7 H6 1_555 1_555
C8 C11 1_555 1_555
C9 H7 1_555 1_555
C10 N1 1_555 1_555
H8 C10 1_555 1_555
C11 H9 1_555 1_555
C12 C13 1_555 1_555
C13 H10 1_555 1_555
C14 C1 1_555 1_555
H11 C14 1_555 1_555
C15 C13 1_555 1_555
H12 C15 1_555 1_555
C16 H13 1_555 1_555
C17 C18 1_555 1_555
C18 C7 1_555 1_555
C19 N2 1_555 1_555
C20 C1 1_555 1_555
C21 C11 1_555 1_555
C22 O4 1_555 1_555
C23 C12 1_555 1_555
C24 N3 1_555 1_555
C25 C7 1_555 1_555
H14 C25 1_555 1_555
C26 C2 1_555 1_555
C27 C26 1_555 1_555
H15 C27 1_555 1_555
H16 C27 1_555 1_555
H17 C27 1_555 1_555
C28 C3 1_555 1_555
C29 C9 1_555 1_555
H18 C29 1_555 1_555
C30 C2 1_555 1_555
H19 C30 1_555 1_555
H20 C30 1_555 1_555
H21 C30 1_555 1_555
C31 C28 1_555 1_555
H22 C31 1_555 1_555
H23 C31 1_555 1_555
H24 C31 1_555 1_555
C32 C21 1_555 1_555
H25 C32 1_555 1_555
H26 C32 1_555 1_555
H27 C32 1_555 1_555
O5 C17 1_555 1_555
C33 N2 1_555 1_555
H28 C33 1_555 1_555
N4 C8 1_555 1_555
H29 O2 1_555 1_555
H30 O2 1_555 1_555
Co1A N4 1_555 1_555
Co1C O5 1_555 1_555
O5C Co1 1_555 1_555
N4A Co1 1_555 1_555
C3 C19 1_555 1_555
N3 C10 1_555 1_555
C4 C6 1_555 1_555
C6 C24 1_555 1_555
C8 C19 1_555 1_555
C9 C18 1_555 1_555
C12 C14 1_555 1_555
C15 C20 1_555 1_555
C16 C24 1_555 1_555
C16 C26 1_555 1_555
C20 C22 1_555 1_555
C21 C28 1_555 1_555
C23 C25 1_555 1_555
C23 C29 1_555 1_555
C33 N4 1_555 1_555

#END
