
#######################################################################
#
#                 Cambridge Crystallographic Data Centre
#                                CCDC 
#
#######################################################################
#
# If this CIF has been generated from an entry in the Cambridge 
# Structural Database, then it will include bibliographic, chemical, 
# crystal, experimental, refinement or atomic coordinate data resulting 
# from the CCDC's data processing and validation procedures.
#
#######################################################################

data_ZORLOH
_symmetry_cell_setting           orthorhombic
_symmetry_space_group_name_H-M   'P b c a'
_symmetry_Int_Tables_number      61
_space_group_name_Hall           '-P 2ac 2ab'
loop_
_symmetry_equiv_pos_site_id
_symmetry_equiv_pos_as_xyz
1 x,y,z
2 1/2-x,-y,1/2+z
3 1/2+x,1/2-y,-z
4 -x,1/2+y,1/2-z
5 -x,-y,-z
6 1/2+x,y,1/2-z
7 1/2-x,1/2+y,z
8 x,1/2-y,1/2+z
_cell_length_a                   18.512(2)
_cell_length_b                   12.224(1)
_cell_length_c                   10.213(1)
_cell_angle_alpha                90
_cell_angle_beta                 90
_cell_angle_gamma                90
_cell_volume                     2311.11
loop_
_atom_site_label
_atom_site_type_symbol
_atom_site_fract_x
_atom_site_fract_y
_atom_site_fract_z
Cu1 Cu 0.3243(1) 0.1519(2) 0.0514(2)
O1 O 0.3587(6) 0.029(1) -0.053(1)
O2 O 0.3222(7) -0.1341(9) -0.112(1)
O3 O 0.2741(5) 0.2688(9) 0.141(1)
O4 O 0.1629(6) 0.318(1) 0.198(1)
O5 O 0.3056(5) 0.0265(9) 0.234(1)
N1 N 0.2279(7) 0.112(1) -0.025(1)
N2 N 0.4195(7) 0.202(1) 0.109(1)
N3 N 0.5343(8) 0.200(1) 0.147(2)
C1 C 0.3107(8) -0.042(1) -0.075(1)
C2 C 0.2326(8) -0.011(1) -0.038(2)
C3 C 0.174(1) 0.155(2) 0.071(2)
C4 C 0.2058(8) 0.257(2) 0.142(2)
C5 C 0.178(1) -0.061(1) -0.137(1)
C6 C 0.099(1) -0.034(2) -0.100(2)
C7 C 0.4810(9) 0.151(2) 0.075(2)
C8 C 0.4986 0.2956 0.1776
C9 C 0.4236 0.2928 0.1872
O5A O 0.1944(5) -0.0265(9) -0.266(1)
Cu1A Cu 0.1757(1) -0.1519(2) -0.4486(2)
loop_
_geom_bond_atom_site_label_1
_geom_bond_atom_site_label_2
_geom_bond_site_symmetry_1
_geom_bond_site_symmetry_2
Cu1 O1 1_555 1_555
O1 C1 1_555 1_555
O2 C1 1_555 1_555
O3 Cu1 1_555 1_555
O4 C4 1_555 1_555
O5 Cu1 1_555 1_555
N1 Cu1 1_555 1_555
N2 Cu1 1_555 1_555
N3 C7 1_555 1_555
C1 C2 1_555 1_555
C2 N1 1_555 1_555
C3 N1 1_555 1_555
C4 O3 1_555 1_555
C5 C2 1_555 1_555
C6 C5 1_555 1_555
C7 N2 1_555 1_555
C8 N3 1_555 1_555
C9 N2 1_555 1_555
O5A C5 1_555 1_555
Cu1A O5A 1_555 1_555
C3 C4 1_555 1_555
C8 C9 1_555 1_555

#END
