
#######################################################################
#
#                 Cambridge Crystallographic Data Centre
#                                CCDC 
#
#######################################################################
#
# If this CIF has been generated from an entry in the Cambridge 
# Structural Database, then it will include bibliographic, chemical, 
# crystal, experimental, refinement or atomic coordinate data resulting 
# from the CCDC's data processing and validation procedures.
#
#######################################################################

data_ZOTFEV
_symmetry_cell_setting           triclinic
_symmetry_space_group_name_H-M   'P -1'
_symmetry_Int_Tables_number      2
_space_group_name_Hall           '-P 1'
loop_
_symmetry_equiv_pos_site_id
_symmetry_equiv_pos_as_xyz
1 x,y,z
2 -x,-y,-z
_cell_length_a                   8.886(2)
_cell_length_b                   10.307(3)
_cell_length_c                   12.913(3)
_cell_angle_alpha                68.732(11)
_cell_angle_beta                 70.997(18)
_cell_angle_gamma                85.639(18)
_cell_volume                     1040.88
loop_
_atom_site_label
_atom_site_type_symbol
_atom_site_fract_x
_atom_site_fract_y
_atom_site_fract_z
Cu1 Cu -0.22941(3) 0.27649(3) 0.21955(2)
S1 S -0.01753(6) 0.47135(6) 0.30008(4)
O1 O -0.04588(18) 0.44286(18) 0.20450(14)
O2 O 0.06978(19) 0.36349(19) 0.36255(14)
O3 O 0.05084(19) 0.61188(18) 0.26083(15)
N1 N 0.5617(2) -0.12825(18) -0.17816(15)
N2 N 0.3760(2) 0.05152(18) -0.17822(16)
N3 N 0.3702(2) -0.12934(18) 0.00192(15)
N4 N -0.0747(2) 0.17275(18) 0.12578(15)
N5 N 0.6876(2) 0.17896(18) -0.60591(15)
N6 N 0.6630(2) -0.56521(18) 0.12813(15)
C1 C -0.2105(2) 0.4697(2) 0.40186(18)
C2 C -0.3306(2) 0.5345(2) 0.35969(18)
C3 C -0.4855(2) 0.5344(2) 0.43834(17)
C4 C -0.6131(3) 0.5988(2) 0.39847(19)
C5 C -0.2380(3) 0.4033(2) 0.5240(2)
C6 C 0.4976(2) -0.0117(2) -0.23176(18)
C7 C 0.4910(2) -0.1834(2) -0.06150(18)
C8 C 0.3181(2) -0.0116(2) -0.06144(18)
C9 C -0.0155(2) 0.2238(2) 0.00715(18)
C10 C 0.1115(2) 0.1675(2) -0.05652(18)
C11 C 0.1832(2) 0.0529(2) 0.00346(18)
C12 C 0.1203(2) -0.0031(2) 0.12585(18)
C13 C -0.0074(3) 0.0589(2) 0.18319(19)
C14 C 0.5643(2) 0.0529(2) -0.36096(18)
C15 C 0.7231(3) 0.0399(2) -0.42086(19)
C16 C 0.4678(2) 0.1304(2) -0.42580(18)
C17 C 0.5330(3) 0.1882(2) -0.54649(19)
C18 C 0.7802(3) 0.1067(2) -0.54173(19)
C19 C 0.5104(2) -0.5312(2) 0.16693(18)
C20 C 0.4508(2) -0.4072(2) 0.10936(18)
C21 C 0.5503(2) -0.3163(2) 0.00357(18)
C22 C 0.7056(2) -0.3536(2) -0.04085(18)
C23 C 0.7573(2) -0.4754(2) 0.02513(18)
H1 H 0.476(4) 0.238(3) -0.594(3)
H2 H -0.306(4) 0.580(3) 0.272(3)
H3 H 0.359(4) 0.145(3) -0.390(3)
H4 H -0.153(4) 0.356(3) 0.550(3)
H5 H 0.440(4) -0.593(3) 0.234(3)
H6 H 0.777(4) -0.291(3) -0.114(3)
H7 H 0.347(4) -0.389(3) 0.139(3)
H8 H -0.596(4) 0.642(3) 0.317(3)
H9 H -0.063(4) 0.303(3) -0.035(3)
H10 H 0.896(4) 0.098(3) -0.584(3)
H11 H 0.790(4) -0.009(3) -0.380(3)
H12 H 0.161(4) -0.084(3) 0.170(3)
H13 H 0.868(4) -0.501(3) -0.003(3)
H14 H 0.145(4) 0.203(3) -0.135(3)
S1A S -0.98247(6) 0.52865(6) 0.69992(4)
O1A O -0.95412(18) 0.55714(18) 0.79550(14)
O2A O -1.06978(19) 0.63651(19) 0.63745(14)
O3A O -1.05084(19) 0.38812(18) 0.73917(15)
C1A C -0.7895(2) 0.5303(2) 0.59814(18)
C2A C -0.6694(2) 0.4655(2) 0.64031(18)
C3A C -0.5145(2) 0.4656(2) 0.56166(17)
C4A C -0.3869(3) 0.4012(2) 0.60153(19)
C5A C -0.7620(3) 0.5967(2) 0.4760(2)
H2A H -0.694(4) 0.420(3) 0.728(3)
H4A H -0.847(4) 0.644(3) 0.450(3)
H8A H -0.404(4) 0.358(3) 0.683(3)
Cu1A Cu -0.77059(3) 0.72351(3) 0.78045(2)
N1A N -1.5617(2) 1.12825(18) 1.17816(15)
N2A N -1.3760(2) 0.94848(18) 1.17822(16)
N3A N -1.3702(2) 1.12934(18) 0.99808(15)
N4A N -0.9253(2) 0.82725(18) 0.87422(15)
N5A N -1.6876(2) 0.82104(18) 1.60591(15)
N6A N -1.6630(2) 1.56521(18) 0.87187(15)
C6A C -1.4976(2) 1.0117(2) 1.23176(18)
C7A C -1.4910(2) 1.1834(2) 1.06150(18)
C8A C -1.3181(2) 1.0116(2) 1.06144(18)
C9A C -0.9845(2) 0.7762(2) 0.99285(18)
C10A C -1.1115(2) 0.8325(2) 1.05652(18)
C11A C -1.1832(2) 0.9471(2) 0.99654(18)
C12A C -1.1203(2) 1.0031(2) 0.87415(18)
C13A C -0.9926(3) 0.9411(2) 0.81681(19)
C14A C -1.5643(2) 0.9471(2) 1.36096(18)
C15A C -1.7231(3) 0.9601(2) 1.42086(19)
C16A C -1.4678(2) 0.8696(2) 1.42580(18)
C17A C -1.5330(3) 0.8118(2) 1.54649(19)
C18A C -1.7802(3) 0.8933(2) 1.54173(19)
C19A C -1.5104(2) 1.5312(2) 0.83307(18)
C20A C -1.4508(2) 1.4072(2) 0.89064(18)
C21A C -1.5503(2) 1.3163(2) 0.99643(18)
C22A C -1.7056(2) 1.3536(2) 1.04085(18)
C23A C -1.7573(2) 1.4754(2) 0.97487(18)
H1A H -1.476(4) 0.762(3) 1.594(3)
H3A H -1.359(4) 0.855(3) 1.390(3)
H5A H -1.440(4) 1.593(3) 0.766(3)
H6A H -1.777(4) 1.291(3) 1.114(3)
H7A H -1.347(4) 1.389(3) 0.861(3)
H9A H -0.937(4) 0.697(3) 1.035(3)
H10A H -1.896(4) 0.902(3) 1.584(3)
H11A H -1.790(4) 1.009(3) 1.380(3)
H12A H -1.161(4) 1.084(3) 0.830(3)
H13A H -1.868(4) 1.501(3) 1.003(3)
H14A H -1.145(4) 0.797(3) 1.135(3)
Cu1_2 Cu 0.77059(3) -0.72351(3) 0.21955(2)
Cu1_3 Cu 0.77059(3) 0.27649(3) -0.78045(2)
Cu1A_2 Cu -1.77059(3) 0.72351(3) 1.78045(2)
Cu1A_3 Cu -1.77059(3) 1.72351(3) 0.78045(2)
N5_2 N -0.3124(2) 0.17896(18) 0.39409(15)
N5A_2 N -0.6876(2) 0.82104(18) 0.60591(15)
N6_2 N -0.3370(2) 0.43479(18) 0.12813(15)
N6A_2 N -0.6630(2) 0.56521(18) 0.87187(15)
O4 O 0.0928(2) 0.21427(19) 0.59247(17)
H15 H 0.086(4) 0.258(4) 0.530(3)
H16 H 0.067(4) 0.270(4) 0.627(3)
loop_
_geom_bond_atom_site_label_1
_geom_bond_atom_site_label_2
_geom_bond_site_symmetry_1
_geom_bond_site_symmetry_2
Cu1 O1 1_555 1_555
S1 O1 1_555 1_555
O2 S1 1_555 1_555
O3 S1 1_555 1_555
N1 C6 1_555 1_555
N2 C6 1_555 1_555
N3 C7 1_555 1_555
N4 Cu1 1_555 1_555
N5 C17 1_555 1_555
N6 C19 1_555 1_555
C1 S1 1_555 1_555
C2 C1 1_555 1_555
C3 C2 1_555 1_555
C4 C3 1_555 1_555
C5 C1 1_555 1_555
C6 C14 1_555 1_555
C7 N1 1_555 1_555
C8 N2 1_555 1_555
C9 N4 1_555 1_555
C10 C9 1_555 1_555
C11 C8 1_555 1_555
C12 C11 1_555 1_555
C13 N4 1_555 1_555
C14 C15 1_555 1_555
C15 C18 1_555 1_555
C16 C14 1_555 1_555
C17 C16 1_555 1_555
C18 N5 1_555 1_555
C19 C20 1_555 1_555
C20 C21 1_555 1_555
C21 C7 1_555 1_555
C22 C21 1_555 1_555
C23 N6 1_555 1_555
H1 C17 1_555 1_555
H2 C2 1_555 1_555
H3 C16 1_555 1_555
H4 C5 1_555 1_555
H5 C19 1_555 1_555
H6 C22 1_555 1_555
H7 C20 1_555 1_555
H8 C4 1_555 1_555
H9 C9 1_555 1_555
H10 C18 1_555 1_555
H11 C15 1_555 1_555
H12 C12 1_555 1_555
H13 C23 1_555 1_555
H14 C10 1_555 1_555
O4 H15 1_555 1_555
H16 O4 1_555 1_555
S1A O1A 1_555 1_555
O1A Cu1A 1_555 1_555
O2A S1A 1_555 1_555
O3A S1A 1_555 1_555
C1A S1A 1_555 1_555
C2A C1A 1_555 1_555
C3A C3 1_555 1_555
C4A C5 1_555 1_555
C5A C4 1_555 1_555
H2A C2A 1_555 1_555
H4A C5A 1_555 1_555
H8A C4A 1_555 1_555
Cu1A N4A 1_555 1_555
N1A C6A 1_555 1_555
N2A C6A 1_555 1_555
N3A C7A 1_555 1_555
N4A C9A 1_555 1_555
N5A C17A 1_555 1_555
N6A C19A 1_555 1_555
C6A C14A 1_555 1_555
C7A N1A 1_555 1_555
C8A N2A 1_555 1_555
C9A C10A 1_555 1_555
C10A C11A 1_555 1_555
C11A C8A 1_555 1_555
C12A C11A 1_555 1_555
C13A N4A 1_555 1_555
C14A C15A 1_555 1_555
C15A C18A 1_555 1_555
C16A C14A 1_555 1_555
C17A C16A 1_555 1_555
C18A N5A 1_555 1_555
C19A C20A 1_555 1_555
C20A C21A 1_555 1_555
C21A C7A 1_555 1_555
C22A C21A 1_555 1_555
C23A N6A 1_555 1_555
H1A C17A 1_555 1_555
H3A C16A 1_555 1_555
H5A C19A 1_555 1_555
H6A C22A 1_555 1_555
H7A C20A 1_555 1_555
H9A C9A 1_555 1_555
H10A C18A 1_555 1_555
H11A C15A 1_555 1_555
H12A C12A 1_555 1_555
H13A C23A 1_555 1_555
H14A C10A 1_555 1_555
Cu1_2 N6 1_555 1_555
Cu1_3 N5 1_555 1_555
Cu1A_2 N5A 1_555 1_555
Cu1A_3 N6A 1_555 1_555
N5_2 Cu1 1_555 1_555
N5A_2 Cu1A 1_555 1_555
N6_2 Cu1 1_555 1_555
N6A_2 Cu1A 1_555 1_555
N3 C8 1_555 1_555
C10 C11 1_555 1_555
C12 C13 1_555 1_555
C22 C23 1_555 1_555
C1A C5A 1_555 1_555
C2A C3A 1_555 1_555
C3A C4A 1_555 1_555
N3A C8A 1_555 1_555
C12A C13A 1_555 1_555
C22A C23A 1_555 1_555

#END
