
#######################################################################
#
#                 Cambridge Crystallographic Data Centre
#                                CCDC 
#
#######################################################################
#
# If this CIF has been generated from an entry in the Cambridge 
# Structural Database, then it will include bibliographic, chemical, 
# crystal, experimental, refinement or atomic coordinate data resulting 
# from the CCDC's data processing and validation procedures.
#
#######################################################################

data_ZOTHIB
_symmetry_cell_setting           monoclinic
_symmetry_space_group_name_H-M   'P 21/c'
_symmetry_Int_Tables_number      14
_space_group_name_Hall           '-P 2ybc'
loop_
_symmetry_equiv_pos_site_id
_symmetry_equiv_pos_as_xyz
1 x,y,z
2 -x,1/2+y,1/2-z
3 -x,-y,-z
4 x,1/2-y,1/2+z
_cell_length_a                   8.7916(4)
_cell_length_b                   15.3787(7)
_cell_length_c                   14.4000(5)
_cell_angle_alpha                90
_cell_angle_beta                 122.692(2)
_cell_angle_gamma                90
_cell_volume                     1638.51
loop_
_atom_site_label
_atom_site_type_symbol
_atom_site_fract_x
_atom_site_fract_y
_atom_site_fract_z
Cu1 Cu 1.39555(4) 0.963843(19) 0.52530(2)
N1 N 1.4438(3) 0.86051(14) 0.62197(17)
N2 N 1.1338(3) 0.93798(12) 0.40424(15)
C1 C 1.4809(3) 1.07738(17) 0.5866(2)
C2 C 1.4321(3) 0.80996(16) 0.67601(19)
C3 C 1.0014(4) 0.91661(16) 0.4236(2)
C4 C 1.0599(3) 0.92415(14) 0.29851(18)
N3 N 1.5171(3) 1.14024(14) 0.63676(18)
Cu2 Cu 1.39184(4) 0.738376(19) 0.76643(2)
H1 H 1.0139 0.9202 0.4918
C5 C 0.8516(4) 0.88975(17) 0.3300(2)
N4 N 0.8906(3) 0.89415(13) 0.25068(16)
H2 H 1.1178 0.9339 0.2613
N5 N 1.1727(3) 0.77830(12) 0.77108(17)
H3 H 0.7435 0.8719 0.3212
C6 C 0.7720(4) 0.87087(18) 0.1346(2)
C7 C 1.1571(3) 0.77397(15) 0.8568(2)
C8 C 1.0240(4) 0.82455(16) 0.6926(2)
H4 H 0.7114 0.8166 0.1293
H5 H 0.8448 0.8614 0.1035
C9 C 0.6316(3) 0.93923(15) 0.0675(2)
N6 N 1.0070(3) 0.81439(12) 0.83705(17)
H6 H 1.2397 0.7464 0.9228
H7 H 0.9984 0.8381 0.6226
C10 C 0.9207(4) 0.84749(17) 0.7320(2)
C11 C 0.5045(3) 0.92047(16) -0.0415(2)
C12 C 0.6256(4) 1.01968(17) 0.1087(2)
C13 C 0.9491(4) 0.82397(17) 0.9148(3)
H8 H 0.8136 0.8791 0.6955
H9 H 0.5066 0.8666 -0.0701
H10 H 0.7099 1.0333 0.1821
H11 H 1.0174 0.7841 0.9759
H12 H 0.8223 0.8086 0.8779
C14 C 0.9756(4) 0.91562(16) 0.9591(2)
C15 C 1.1392(4) 0.94072(18) 1.0506(2)
C16 C 0.8357(4) 0.97579(18) 0.9084(2)
H13 H 1.2335 0.9009 1.0851
H14 H 0.7248 0.9597 0.8467
Cu2A Cu 1.60816(4) 1.238376(19) 0.73357(2)
N3A N 1.4829(3) 0.64024(14) 0.86324(18)
C12B C 0.3744(4) 0.98032(17) -0.1087(2)
C11B C 0.4955(3) 1.07953(16) 0.0415(2)
C9B C 0.3684(3) 1.06077(15) -0.0675(2)
H10B H 0.2901 0.9667 -0.1821
H9B H 0.4934 1.1334 0.0701
C6B C 0.2280(4) 1.12913(18) -0.1346(2)
C16B C 1.1643(4) 1.02421(18) 1.0916(2)
C15B C 0.8608(4) 1.05928(18) 0.9494(2)
N4B N 0.1094(3) 1.10585(13) -0.25068(16)
H4B H 0.2886 1.1834 -0.1293
H5B H 0.1552 1.1386 -0.1035
C14B C 1.0244(4) 1.08438(16) 1.0409(2)
H14B H 1.2752 1.0403 1.1533
H13B H 0.7665 1.0991 0.9149
C4B C -0.0599(3) 1.07585(14) -0.29851(18)
C5B C 0.1484(4) 1.11025(17) -0.3300(2)
C13B C 1.0509(4) 1.17603(17) 1.0852(3)
N2B N -0.1338(3) 1.06202(12) -0.40424(15)
H2B H -0.1178 1.0661 -0.2613
C3B C -0.0014(4) 1.08339(16) -0.4236(2)
H3B H 0.2565 1.1281 -0.3212
N6B N 0.9930(3) 1.18561(12) 1.16295(17)
H11B H 0.9826 1.2159 1.0241
H12B H 1.1777 1.1914 1.1221
Cu1B Cu -0.39555(4) 1.036157(19) -0.52530(2)
H1B H -0.0139 1.0798 -0.4918
C7B C 0.8429(3) 1.22603(15) 1.1432(2)
C10B C 1.0793(4) 1.15251(17) 1.2680(2)
N1B N -0.4438(3) 1.13949(14) -0.62197(17)
C1B C -0.4809(3) 0.92262(17) -0.5866(2)
N5B N 0.8273(3) 1.22170(12) 1.22892(17)
H6B H 0.7603 1.2536 1.0772
C8B C 0.9760(4) 1.17545(16) 1.3074(2)
H8B H 1.1864 1.1209 1.3045
C2B C -0.4321(3) 1.19004(16) -0.67601(19)
N3B N -0.5171(3) 0.85976(14) -0.63676(18)
Cu2B Cu 0.60816(4) 1.261624(19) 1.23357(2)
H7B H 1.0016 1.1619 1.3774
Cu2B_2 Cu -0.39184(4) 1.261624(19) -0.76643(2)
Cu2C Cu -0.60816(4) 0.761624(19) -0.73357(2)
N3C N -0.4829(3) 1.35976(14) -0.86324(18)
N5B_2 N -0.1727(3) 1.22170(12) -0.77108(17)
loop_
_geom_bond_atom_site_label_1
_geom_bond_atom_site_label_2
_geom_bond_site_symmetry_1
_geom_bond_site_symmetry_2
Cu1 N1 1_555 1_555
N1 C2 1_555 1_555
N2 Cu1 1_555 1_555
C1 Cu1 1_555 1_555
C2 Cu2 1_555 1_555
C3 N2 1_555 1_555
C4 N2 1_555 1_555
N3 C1 1_555 1_555
Cu2 N5 1_555 1_555
H1 C3 1_555 1_555
C5 C3 1_555 1_555
N4 C4 1_555 1_555
H2 C4 1_555 1_555
N5 C7 1_555 1_555
H3 C5 1_555 1_555
C6 N4 1_555 1_555
C7 N6 1_555 1_555
C8 N5 1_555 1_555
H4 C6 1_555 1_555
H5 C6 1_555 1_555
C9 C6 1_555 1_555
N6 C10 1_555 1_555
H6 C7 1_555 1_555
H7 C8 1_555 1_555
C10 C8 1_555 1_555
C11 C9 1_555 1_555
C12 C9 1_555 1_555
C13 N6 1_555 1_555
H8 C10 1_555 1_555
H9 C11 1_555 1_555
H10 C12 1_555 1_555
H11 C13 1_555 1_555
H12 C13 1_555 1_555
C14 C13 1_555 1_555
C15 C14 1_555 1_555
C16 C14 1_555 1_555
H13 C15 1_555 1_555
H14 C16 1_555 1_555
Cu2A N3 1_555 1_555
N3A Cu2 1_555 1_555
C12B C11 1_555 1_555
C11B C12 1_555 1_555
C9B C12B 1_555 1_555
H10B C12B 1_555 1_555
H9B C11B 1_555 1_555
C6B C9B 1_555 1_555
C16B C15 1_555 1_555
C15B C16 1_555 1_555
N4B C6B 1_555 1_555
H4B C6B 1_555 1_555
H5B C6B 1_555 1_555
C14B C16B 1_555 1_555
H14B C16B 1_555 1_555
H13B C15B 1_555 1_555
C4B N4B 1_555 1_555
C5B N4B 1_555 1_555
C13B C14B 1_555 1_555
N2B C4B 1_555 1_555
H2B C4B 1_555 1_555
C3B C5B 1_555 1_555
H3B C5B 1_555 1_555
N6B C13B 1_555 1_555
H11B C13B 1_555 1_555
H12B C13B 1_555 1_555
Cu1B N2B 1_555 1_555
H1B C3B 1_555 1_555
C7B N6B 1_555 1_555
C10B N6B 1_555 1_555
N1B Cu1B 1_555 1_555
C1B Cu1B 1_555 1_555
N5B C7B 1_555 1_555
H6B C7B 1_555 1_555
C8B C10B 1_555 1_555
H8B C10B 1_555 1_555
C2B N1B 1_555 1_555
N3B C1B 1_555 1_555
Cu2B N5B 1_555 1_555
H7B C8B 1_555 1_555
Cu2B_2 C2B 1_555 1_555
Cu2C N3B 1_555 1_555
N3C Cu2B_2 1_555 1_555
N5B_2 Cu2B_2 1_555 1_555
C5 N4 1_555 1_555
C11B C9B 1_555 1_555
C15B C14B 1_555 1_555
N2B C3B 1_555 1_555
N5B C8B 1_555 1_555

#END
