
#######################################################################
#
#                 Cambridge Crystallographic Data Centre
#                                CCDC 
#
#######################################################################
#
# If this CIF has been generated from an entry in the Cambridge 
# Structural Database, then it will include bibliographic, chemical, 
# crystal, experimental, refinement or atomic coordinate data resulting 
# from the CCDC's data processing and validation procedures.
#
#######################################################################

data_ZOTPOP
_symmetry_cell_setting           monoclinic
_symmetry_space_group_name_H-M   'P 21/c'
_symmetry_Int_Tables_number      14
_space_group_name_Hall           '-P 2ybc'
loop_
_symmetry_equiv_pos_site_id
_symmetry_equiv_pos_as_xyz
1 x,y,z
2 -x,1/2+y,1/2-z
3 -x,-y,-z
4 x,1/2-y,1/2+z
_cell_length_a                   6.9563(12)
_cell_length_b                   10.8528(19)
_cell_length_c                   12.9007(17)
_cell_angle_alpha                90
_cell_angle_beta                 119.305(7)
_cell_angle_gamma                90
_cell_volume                     849.304
loop_
_atom_site_label
_atom_site_type_symbol
_atom_site_fract_x
_atom_site_fract_y
_atom_site_fract_z
Ag1 Ag 0.19726(4) 0.064188(18) -0.497589(17)
O1 O 0.3244(4) 0.18572(19) -0.32909(16)
O2 O 0.4122(4) 0.01332(18) -0.21916(18)
N1 N 1.0381(4) 0.2219(2) 0.38072(18)
N2 N 0.6812(3) 0.3766(2) -0.02111(17)
N3 N 0.5701(3) 0.32491(19) -0.13031(17)
C1 C 0.9642(5) 0.4369(2) 0.3586(2)
H1 H 0.9813 0.5138 0.3939
C2 C 0.4094(4) 0.1271(3) -0.2330(2)
C3 C 0.6052(4) 0.1782(2) -0.0046(2)
H2 H 0.5974 0.1032 0.0280
C4 C 0.8201(4) 0.3090(2) 0.1857(2)
C5 C 0.8408(5) 0.4246(2) 0.2367(2)
H3 H 0.7723 0.4928 0.1892
C6 C 0.5238(4) 0.2052(2) -0.1235(2)
C7 C 0.7013(4) 0.2870(2) 0.0561(2)
C8 C 1.0621(4) 0.3342(2) 0.4276(2)
H4 H 1.1476 0.3437 0.5095
C9 C 0.9179(4) 0.2109(2) 0.2617(2)
H5 H 0.8996 0.1326 0.2289
Ag1_2 Ag 1.19726(4) 0.064188(18) 0.502411(17)
Ag1A Ag 0.80274(4) 0.564188(18) -0.002411(17)
Ag1B Ag -0.19726(4) -0.064188(18) -0.502411(17)
N1_2 N 0.0381(4) 0.2219(2) -0.61928(18)
N2A N 0.3188(3) -0.1234(2) -0.47889(17)
loop_
_geom_bond_atom_site_label_1
_geom_bond_atom_site_label_2
_geom_bond_site_symmetry_1
_geom_bond_site_symmetry_2
Ag1 O1 1_555 1_555
O1 C2 1_555 1_555
O2 C2 1_555 1_555
N1 C8 1_555 1_555
N2 N3 1_555 1_555
N3 C6 1_555 1_555
C1 H1 1_555 1_555
C2 C6 1_555 1_555
C3 H2 1_555 1_555
C4 C5 1_555 1_555
C5 C1 1_555 1_555
H3 C5 1_555 1_555
C6 C3 1_555 1_555
C7 N2 1_555 1_555
C8 C1 1_555 1_555
H4 C8 1_555 1_555
C9 N1 1_555 1_555
H5 C9 1_555 1_555
Ag1_2 N1 1_555 1_555
Ag1A N2 1_555 1_555
Ag1B Ag1 1_555 1_555
N1_2 Ag1 1_555 1_555
N2A Ag1 1_555 1_555
C3 C7 1_555 1_555
C4 C7 1_555 1_555
C4 C9 1_555 1_555

#END
