
#######################################################################
#
#                 Cambridge Crystallographic Data Centre
#                                CCDC 
#
#######################################################################
#
# If this CIF has been generated from an entry in the Cambridge 
# Structural Database, then it will include bibliographic, chemical, 
# crystal, experimental, refinement or atomic coordinate data resulting 
# from the CCDC's data processing and validation procedures.
#
#######################################################################

data_ZOTPIJ
_symmetry_cell_setting           monoclinic
_symmetry_space_group_name_H-M   'C c'
_symmetry_Int_Tables_number      9
_space_group_name_Hall           'C -2yc'
loop_
_symmetry_equiv_pos_site_id
_symmetry_equiv_pos_as_xyz
1 x,y,z
2 x,-y,1/2+z
3 1/2+x,1/2+y,z
4 1/2+x,1/2-y,1/2+z
_cell_length_a                   8.795(3)
_cell_length_b                   14.240(4)
_cell_length_c                   15.999(5)
_cell_angle_alpha                90
_cell_angle_beta                 96.677(3)
_cell_angle_gamma                90
_cell_volume                     1990.14
loop_
_atom_site_label
_atom_site_type_symbol
_atom_site_fract_x
_atom_site_fract_y
_atom_site_fract_z
Ni1 Ni 0.18496(3) 0.80784(2) 0.45668(2)
C1 C 0.2871(4) 0.6914(2) 0.3147(2)
H1 H 0.1851 0.6931 0.2917
O1 O 1.2061(2) 0.72788(13) 0.56674(11)
O2 O 0.3859(2) 1.11346(13) 0.97930(11)
N1 N 0.9890(3) 0.72493(15) 0.43704(14)
C2 C 0.9601(4) 0.68361(19) 0.50747(19)
C3 C 0.2988(4) 1.0242(2) 0.76261(19)
H2 H 0.3775 0.9924 0.7405
N2 N 0.1696(3) 1.10649(17) 0.85134(13)
C4 C -0.0655(4) 0.9413(2) 0.49333(19)
H3 H -0.1128 0.9179 0.4426
C5 C 1.0898(4) 0.6785(2) 0.5776(2)
N3 N 0.0727(3) 0.90890(15) 0.52230(13)
C6 C 0.8076(3) 0.6553(2) 0.50298(19)
H4 H 0.7597 0.6249 0.5442
C7 C 0.4273(4) 1.0726(2) 0.91396(19)
O3 O 0.5544(2) 1.03926(17) 0.90791(14)
C8 C 0.7430(3) 0.68271(18) 0.42299(17)
O4 O 1.0750(3) 0.62843(16) 0.63955(13)
C9 C 0.3033(3) 1.0663(2) 0.84147(18)
C10 C 0.4672(4) 0.7022(2) 0.4287(2)
H5 H 0.4908 0.7107 0.4864
C11 C 0.1514(3) 1.03996(19) 0.72417(16)
N4 N 0.3210(3) 0.71186(17) 0.39613(16)
N5 N 0.8578(3) 0.72297(16) 0.38546(14)
N6 N 0.0769(3) 1.08971(16) 0.77950(13)
C12 C 0.1400(3) 0.94253(19) 0.59529(16)
H6 H 0.2366 0.9202 0.6156
C13 C -0.0715(3) 1.0421(2) 0.61070(18)
H7 H -0.1205 1.0869 0.6403
C14 C 0.5479(4) 0.6651(2) 0.2964(2)
H8 H 0.6242 0.6530 0.2622
C15 C 0.3962(4) 0.6680(2) 0.2632(2)
H9 H 0.3679 0.6542 0.2067
C16 C 0.0721(3) 1.0095(2) 0.64234(18)
C17 C -0.1417(4) 1.0082(2) 0.53541(19)
H10 H -0.2379 1.0296 0.5134
C18 C 0.5849(3) 0.68065(19) 0.38249(18)
Ni1_2 Ni 1.18496(3) 0.80784(2) 0.45668(2)
Ni1A Ni 0.18496(3) 1.19216(2) 0.95668(2)
O1_2 O 0.2061(2) 0.72788(13) 0.56674(11)
O2A O 0.3859(2) 0.88654(13) 0.47930(11)
N1_2 N -0.0110(3) 0.72493(15) 0.43704(14)
N2A N 0.1696(3) 0.89351(17) 0.35134(13)
O5 O 0.2527(3) 0.6026(2) 0.78918(14)
H11 H 0.1857 0.5774 0.8233
H12 H 0.1871 0.6091 0.7442
O6 O 0.4012(3) 0.77265(17) 0.71071(14)
H13 H 0.3553 0.7526 0.6612
H14 H 0.4631 0.8167 0.6942
O7 O 0.5603(3) 0.9141(2) 0.63394(16)
H15 H 0.5346 0.9000 0.5798
H16 H 0.5737 0.9761 0.6411
loop_
_geom_bond_atom_site_label_1
_geom_bond_atom_site_label_2
_geom_bond_site_symmetry_1
_geom_bond_site_symmetry_2
Ni1 N3 1_555 1_555
C1 H1 1_555 1_555
O1 C5 1_555 1_555
O2 C7 1_555 1_555
N1 C2 1_555 1_555
C2 C5 1_555 1_555
C3 H2 1_555 1_555
N2 C9 1_555 1_555
C4 H3 1_555 1_555
C5 O4 1_555 1_555
N3 C4 1_555 1_555
C6 C2 1_555 1_555
H4 C6 1_555 1_555
C7 O3 1_555 1_555
C8 C6 1_555 1_555
C9 C3 1_555 1_555
C10 H5 1_555 1_555
C11 C3 1_555 1_555
N4 Ni1 1_555 1_555
N5 N1 1_555 1_555
N6 N2 1_555 1_555
C12 N3 1_555 1_555
H6 C12 1_555 1_555
C13 H7 1_555 1_555
C14 H8 1_555 1_555
C15 C1 1_555 1_555
H9 C15 1_555 1_555
C16 C11 1_555 1_555
C17 C4 1_555 1_555
H10 C17 1_555 1_555
C18 C8 1_555 1_555
O5 H11 1_555 1_555
H12 O5 1_555 1_555
O6 H13 1_555 1_555
H14 O6 1_555 1_555
O7 H15 1_555 1_555
H16 O7 1_555 1_555
Ni1_2 O1 1_555 1_555
Ni1A O2 1_555 1_555
O1_2 Ni1 1_555 1_555
O2A Ni1 1_555 1_555
N1_2 Ni1 1_555 1_555
N2A Ni1 1_555 1_555
C1 N4 1_555 1_555
N1 Ni1_2 1_555 1_555
N2 Ni1A 1_555 1_555
C7 C9 1_555 1_555
C8 N5 1_555 1_555
C10 N4 1_555 1_555
C10 C18 1_555 1_555
C11 N6 1_555 1_555
C12 C16 1_555 1_555
C13 C16 1_555 1_555
C13 C17 1_555 1_555
C14 C15 1_555 1_555
C14 C18 1_555 1_555

#END
