
#######################################################################
#
#                 Cambridge Crystallographic Data Centre
#                                CCDC 
#
#######################################################################
#
# If this CIF has been generated from an entry in the Cambridge 
# Structural Database, then it will include bibliographic, chemical, 
# crystal, experimental, refinement or atomic coordinate data resulting 
# from the CCDC's data processing and validation procedures.
#
#######################################################################

data_ZOTQOQ
_symmetry_cell_setting           monoclinic
_symmetry_space_group_name_H-M   'P 21/c'
_symmetry_Int_Tables_number      14
_space_group_name_Hall           '-P 2ybc'
loop_
_symmetry_equiv_pos_site_id
_symmetry_equiv_pos_as_xyz
1 x,y,z
2 -x,1/2+y,1/2-z
3 -x,-y,-z
4 x,1/2-y,1/2+z
_cell_length_a                   20.8333(16)
_cell_length_b                   8.9832(7)
_cell_length_c                   17.1472(13)
_cell_angle_alpha                90
_cell_angle_beta                 111.2170(10)
_cell_angle_gamma                90
_cell_volume                     2991.57
loop_
_atom_site_label
_atom_site_type_symbol
_atom_site_fract_x
_atom_site_fract_y
_atom_site_fract_z
Cd1 Cd 0.411039(10) 0.71959(2) 1.120875(13)
Cd2 Cd 0.047471(11) 0.18287(3) 0.735843(13)
N1 N 0.55529(13) 0.6176(3) 1.08420(16)
H1 H 0.5718 0.5592 1.1266
N2 N 0.49533(13) 0.6909(3) 1.06443(16)
N3 N 0.38614(13) 0.8761(3) 1.00205(15)
N4 N 0.01029(14) 0.2572(3) 0.59541(16)
N5 N -0.03763(15) 0.3521(3) 0.54713(18)
H2 H -0.0618 0.4107 0.5653
N6 N 0.10364(14) 0.0428(3) 0.66199(17)
O1 O 0.40529(11) -0.0857(3) 1.29428(15)
O2 O 0.33775(11) -0.1485(3) 1.16559(13)
O3 O 0.06313(13) -0.1824(3) 1.2801(2)
O4 O 0.04350(12) 0.0560(3) 1.25896(18)
O5 O 0.09845(14) 0.0735(4) 0.88071(15)
O6 O 0.15678(16) 0.2275(3) 0.83645(16)
O7 O 0.32592(11) 0.5584(2) 1.04644(13)
O8 O 0.38725(11) 0.4673(2) 1.17064(13)
O9 O 0.49605(12) 0.7740(3) 1.24740(16)
H3 H 0.5354 0.8152 1.2616
H4 H 0.4758 0.8299 1.2713
C1 C 0.58609(17) 0.6465(4) 1.0300(2)
H5 H 0.6279 0.6075 1.0315
C2 C 0.54546(17) 0.7436(4) 0.9719(2)
H6 H 0.5536 0.7843 0.9264
C3 C 0.48899(15) 0.7685(3) 0.99567(18)
C4 C 0.42791(15) 0.8625(3) 0.95778(18)
C5 C 0.41257(18) 0.9301(4) 0.8802(2)
H7 H 0.4421 0.9198 0.8509
C6 C 0.3533(2) 1.0124(4) 0.8474(2)
H8 H 0.3418 1.0571 0.7952
C7 C 0.31082(19) 1.0280(4) 0.8931(2)
H9 H 0.2707 1.0844 0.8725
C8 C 0.32902(17) 0.9587(4) 0.9695(2)
H10 H 0.3004 0.9695 1.0001
C9 C 0.33844(15) 0.4579(3) 1.10120(18)
C10 C 0.29111(14) 0.3241(3) 1.08117(18)
C11 C 0.24533(15) 0.3000(3) 0.99963(18)
H11 H 0.2466 0.3615 0.9566
C12 C 0.19754(14) 0.1840(3) 0.98226(17)
C13 C 0.19425(14) 0.0970(3) 1.04746(18)
H12 H 0.1611 0.0226 1.0363
C14 C 0.23960(14) 0.1184(3) 1.12957(17)
C15 C 0.28911(14) 0.2302(3) 1.14506(17)
H13 H 0.3213 0.2424 1.1989
C16 C 0.23092(14) 0.0315(3) 1.19909(16)
C17 C 0.16774(14) 0.0384(3) 1.20954(17)
H14 H 0.1331 0.0985 1.1740
C18 C 0.15493(14) -0.0422(3) 1.27171(17)
C19 C 0.20922(15) -0.1197(4) 1.32962(18)
H15 H 0.2024 -0.1701 1.3734
C20 C 0.27361(15) -0.1225(3) 1.32252(18)
H16 H 0.3101 -0.1703 1.3633
C21 C 0.28416(14) -0.0543(3) 1.25481(17)
C22 C 0.34782(14) -0.0959(3) 1.23668(18)
C23 C 0.08235(16) -0.0534(4) 1.27118(19)
C24 C 0.14743(15) 0.1591(4) 0.89418(19)
C25 C 0.15311(19) -0.0581(4) 0.6979(2)
H17 H 0.1635 -0.0820 0.7540
C26 C 0.1887(2) -0.1267(4) 0.6549(3)
H18 H 0.2233 -0.1947 0.6819
C27 C 0.17290(19) -0.0946(4) 0.5711(3)
H19 H 0.1969 -0.1403 0.5413
C28 C 0.12102(18) 0.0065(4) 0.5321(2)
H20 H 0.1084 0.0278 0.4754
C29 C 0.03519(16) 0.1873(4) 0.54450(19)
C30 C 0.08851(16) 0.0749(4) 0.5801(2)
C31 C 0.00261(18) 0.2395(4) 0.4613(2)
H21 H 0.0106 0.2093 0.4137
C32 C -0.04288(18) 0.3436(4) 0.4667(2)
H22 H -0.0725 0.3992 0.4226
Cd1_2 Cd 0.411039(10) -0.28041(2) 1.120875(13)
Cd2B Cd -0.047471(11) -0.18287(3) 1.264157(13)
Cd2C Cd 0.047471(11) 0.31713(3) 1.235843(13)
O2_2 O 0.33775(11) 0.8515(3) 1.16559(13)
O3B O -0.06313(13) 0.1824(3) 0.7199(2)
O4C O 0.04350(12) 0.4440(3) 0.75896(18)
loop_
_geom_bond_atom_site_label_1
_geom_bond_atom_site_label_2
_geom_bond_site_symmetry_1
_geom_bond_site_symmetry_2
Cd1 N2 1_555 1_555
Cd2 N4 1_555 1_555
N1 H1 1_555 1_555
N2 N1 1_555 1_555
N3 Cd1 1_555 1_555
N4 N5 1_555 1_555
N5 H2 1_555 1_555
N6 Cd2 1_555 1_555
O1 C22 1_555 1_555
O2 C22 1_555 1_555
O3 C23 1_555 1_555
O4 C23 1_555 1_555
O5 Cd2 1_555 1_555
O6 Cd2 1_555 1_555
O7 Cd1 1_555 1_555
O8 Cd1 1_555 1_555
O9 Cd1 1_555 1_555
H3 O9 1_555 1_555
H4 O9 1_555 1_555
C1 N1 1_555 1_555
H5 C1 1_555 1_555
C2 C1 1_555 1_555
H6 C2 1_555 1_555
C3 N2 1_555 1_555
C4 N3 1_555 1_555
C5 C4 1_555 1_555
H7 C5 1_555 1_555
C6 C5 1_555 1_555
H8 C6 1_555 1_555
C7 C6 1_555 1_555
H9 C7 1_555 1_555
C8 N3 1_555 1_555
H10 C8 1_555 1_555
C9 O7 1_555 1_555
C10 C9 1_555 1_555
C11 C10 1_555 1_555
H11 C11 1_555 1_555
C12 C11 1_555 1_555
C13 C12 1_555 1_555
H12 C13 1_555 1_555
C14 C13 1_555 1_555
C15 C10 1_555 1_555
H13 C15 1_555 1_555
C16 C14 1_555 1_555
C17 C16 1_555 1_555
H14 C17 1_555 1_555
C18 C17 1_555 1_555
C19 C18 1_555 1_555
H15 C19 1_555 1_555
C20 C19 1_555 1_555
H16 C20 1_555 1_555
C21 C16 1_555 1_555
C22 C21 1_555 1_555
C23 C18 1_555 1_555
C24 O5 1_555 1_555
C25 N6 1_555 1_555
H17 C25 1_555 1_555
C26 C25 1_555 1_555
H18 C26 1_555 1_555
C27 C26 1_555 1_555
H19 C27 1_555 1_555
C28 C27 1_555 1_555
H20 C28 1_555 1_555
C29 N4 1_555 1_555
C30 N6 1_555 1_555
C31 C29 1_555 1_555
H21 C31 1_555 1_555
C32 N5 1_555 1_555
H22 C32 1_555 1_555
Cd1_2 O2 1_555 1_555
Cd2B O3 1_555 1_555
Cd2C O4 1_555 1_555
O2_2 Cd1 1_555 1_555
O3B Cd2 1_555 1_555
O4C Cd2 1_555 1_555
O6 C24 1_555 1_555
O8 C9 1_555 1_555
C2 C3 1_555 1_555
C3 C4 1_555 1_555
C7 C8 1_555 1_555
C12 C24 1_555 1_555
C14 C15 1_555 1_555
C20 C21 1_555 1_555
C28 C30 1_555 1_555
C29 C30 1_555 1_555
C31 C32 1_555 1_555

#END
