
#######################################################################
#
#                 Cambridge Crystallographic Data Centre
#                                CCDC 
#
#######################################################################
#
# If this CIF has been generated from an entry in the Cambridge 
# Structural Database, then it will include bibliographic, chemical, 
# crystal, experimental, refinement or atomic coordinate data resulting 
# from the CCDC's data processing and validation procedures.
#
#######################################################################

data_ZOTQIK
_symmetry_cell_setting           monoclinic
_symmetry_space_group_name_H-M   'P 21/n'
_symmetry_Int_Tables_number      14
_space_group_name_Hall           '-P 2yn'
loop_
_symmetry_equiv_pos_site_id
_symmetry_equiv_pos_as_xyz
1 x,y,z
2 1/2-x,1/2+y,1/2-z
3 -x,-y,-z
4 1/2+x,1/2-y,1/2+z
_cell_length_a                   13.2022(13)
_cell_length_b                   16.9826(17)
_cell_length_c                   15.2379(15)
_cell_angle_alpha                90
_cell_angle_beta                 91.8410(10)
_cell_angle_gamma                90
_cell_volume                     3414.69
loop_
_atom_site_label
_atom_site_type_symbol
_atom_site_fract_x
_atom_site_fract_y
_atom_site_fract_z
Cd1 Cd 0.29150(3) 0.108911(19) 0.45675(2)
Cd2 Cd 0.24956(3) 0.33477(2) 0.53145(2)
N1 N 0.2458(3) 0.2880(2) 0.6763(3)
N2 N 0.0898(3) 0.3535(3) 0.5855(3)
N3 N 0.1291(3) 0.1034(3) 0.5185(3)
N4 N 0.3041(3) 0.0777(3) 0.6074(3)
O1 O 0.2080(3) 0.5133(2) 0.1597(3)
O2 O 0.1329(4) 0.4846(2) 0.0390(3)
O3 O -0.1406(2) 0.26652(18) 0.0172(2)
O4 O -0.0499(3) 0.32816(19) -0.0789(2)
O5 O 0.2282(3) -0.03400(19) 0.0308(2)
O6 O 0.1425(3) -0.06976(18) -0.0881(2)
O7 O 0.2173(3) 0.1839(2) 0.3509(2)
O8 O 0.1856(3) 0.3047(2) 0.4002(2)
C1 C 0.0812(3) 0.1874(3) 0.0316(3)
C2 C 0.0039(3) 0.1993(3) -0.0315(3)
C3 C -0.0185(4) 0.1421(3) -0.0940(3)
H1 H -0.0691 0.1513 -0.1367
C4 C 0.0333(3) 0.0717(3) -0.0935(3)
H2 H 0.0167 0.0333 -0.1351
C5 C 0.1099(3) 0.0579(3) -0.0314(3)
C6 C 0.1338(3) 0.1156(3) 0.0298(3)
H3 H 0.1861 0.1066 0.0709
C7 C -0.0643(4) 0.2703(3) -0.0310(3)
C8 C 0.1638(4) -0.0200(3) -0.0295(3)
C9 C 0.1115(3) 0.2466(3) 0.0991(3)
C10 C 0.1347(3) 0.2244(3) 0.1856(3)
H4 H 0.1312 0.1715 0.2009
C11 C 0.1628(3) 0.2791(3) 0.2494(3)
C12 C 0.1700(4) 0.3584(3) 0.2261(3)
H5 H 0.1874 0.3958 0.2686
C13 C 0.1515(3) 0.3813(3) 0.1408(3)
C14 C 0.1209(3) 0.3262(3) 0.0779(3)
H6 H 0.1065 0.3427 0.0207
C15 C 0.1651(4) 0.4649(3) 0.1116(3)
C16 C 0.1908(4) 0.2536(3) 0.3411(3)
C17 C 0.0430(5) 0.1166(4) 0.4718(5)
H7 H 0.0468 0.1263 0.4119
C18 C -0.0498(6) 0.1164(6) 0.5084(6)
H8 H -0.1084 0.1228 0.4736
C19 C -0.0554(6) 0.1064(6) 0.5979(7)
H9 H -0.1172 0.1091 0.6252
C20 C 0.0319(5) 0.0925(5) 0.6450(5)
H10 H 0.0295 0.0844 0.7052
C21 C 0.1238(4) 0.0903(3) 0.6051(4)
C22 C 0.2208(4) 0.0718(3) 0.6528(3)
C23 C 0.2257(5) 0.0475(5) 0.7390(4)
H11 H 0.1668 0.0427 0.7703
C24 C 0.3185(6) 0.0303(5) 0.7786(4)
H12 H 0.3228 0.0146 0.8371
C25 C 0.4027(5) 0.0365(4) 0.7314(4)
H13 H 0.4661 0.0250 0.7565
C26 C 0.3927(5) 0.0602(4) 0.6452(4)
H14 H 0.4505 0.0639 0.6122
C27 C 0.0135(5) 0.3842(4) 0.5377(4)
H15 H 0.0242 0.3968 0.4793
C28 C -0.0802(5) 0.3980(5) 0.5707(5)
H16 H -0.1317 0.4201 0.5357
C29 C -0.0964(5) 0.3784(5) 0.6565(5)
H17 H -0.1592 0.3873 0.6807
C30 C -0.0191(5) 0.3456(4) 0.7061(4)
H18 H -0.0298 0.3306 0.7638
C31 C 0.0752(4) 0.3345(3) 0.6702(3)
C32 C 0.1627(4) 0.3029(3) 0.7212(3)
C33 C 0.1617(5) 0.2906(4) 0.8104(4)
H19 H 0.1035 0.3015 0.8411
C34 C 0.2470(5) 0.2622(4) 0.8543(4)
H20 H 0.2467 0.2530 0.9145
C35 C 0.3319(5) 0.2476(4) 0.8083(4)
H21 H 0.3908 0.2289 0.8363
C36 C 0.3281(4) 0.2613(3) 0.7194(4)
H22 H 0.3858 0.2514 0.6877
Cd1A Cd 0.20850(3) 0.608911(19) 0.04325(2)
Cd1C Cd -0.20850(3) 0.391089(19) -0.04325(2)
Cd2A Cd 0.25044(3) -0.16523(2) -0.03145(2)
Cd2C Cd -0.25044(3) 0.16523(2) 0.03145(2)
O1A O 0.2920(3) 0.0133(2) 0.3403(3)
O2A O 0.3671(4) -0.0154(2) 0.4610(3)
O3C O 0.3594(2) 0.23348(18) 0.5172(2)
O4C O 0.4501(3) 0.17184(19) 0.4211(2)
O5A O 0.2718(3) 0.46600(19) 0.4692(2)
O6A O 0.3575(3) 0.43024(18) 0.5881(2)
O9 O 0.3507(3) 0.5032(3) 0.2900(3)
H23 H 0.3026 0.5023 0.2516
H24 H 0.3239 0.4914 0.3383
O10 O 0.5299(5) 0.5848(4) 0.2427(4)
H25 H 0.4702 0.5746 0.2585
H26 H 0.5733 0.5661 0.2795
loop_
_geom_bond_atom_site_label_1
_geom_bond_atom_site_label_2
_geom_bond_site_symmetry_1
_geom_bond_site_symmetry_2
Cd1 N3 1_555 1_555
Cd2 N1 1_555 1_555
N1 C32 1_555 1_555
N2 Cd2 1_555 1_555
N3 C17 1_555 1_555
N4 Cd1 1_555 1_555
O1 C15 1_555 1_555
O2 C15 1_555 1_555
O3 C7 1_555 1_555
O4 C7 1_555 1_555
O5 C8 1_555 1_555
O6 C8 1_555 1_555
O7 Cd1 1_555 1_555
O8 Cd2 1_555 1_555
C1 C2 1_555 1_555
C2 C3 1_555 1_555
C3 H1 1_555 1_555
C4 C3 1_555 1_555
H2 C4 1_555 1_555
C5 C4 1_555 1_555
C6 C1 1_555 1_555
H3 C6 1_555 1_555
C7 C2 1_555 1_555
C8 C5 1_555 1_555
C9 C1 1_555 1_555
C10 C9 1_555 1_555
H4 C10 1_555 1_555
C11 C10 1_555 1_555
C12 C11 1_555 1_555
H5 C12 1_555 1_555
C13 C12 1_555 1_555
C14 C9 1_555 1_555
H6 C14 1_555 1_555
C15 C13 1_555 1_555
C16 O7 1_555 1_555
C17 H7 1_555 1_555
C18 C17 1_555 1_555
H8 C18 1_555 1_555
C19 C18 1_555 1_555
H9 C19 1_555 1_555
C20 C19 1_555 1_555
H10 C20 1_555 1_555
C21 N3 1_555 1_555
C22 N4 1_555 1_555
C23 C22 1_555 1_555
H11 C23 1_555 1_555
C24 C23 1_555 1_555
H12 C24 1_555 1_555
C25 C24 1_555 1_555
H13 C25 1_555 1_555
C26 N4 1_555 1_555
H14 C26 1_555 1_555
C27 N2 1_555 1_555
H15 C27 1_555 1_555
C28 C27 1_555 1_555
H16 C28 1_555 1_555
C29 C28 1_555 1_555
H17 C29 1_555 1_555
C30 C29 1_555 1_555
H18 C30 1_555 1_555
C31 N2 1_555 1_555
C32 C31 1_555 1_555
C33 C32 1_555 1_555
H19 C33 1_555 1_555
C34 C33 1_555 1_555
H20 C34 1_555 1_555
C35 C34 1_555 1_555
H21 C35 1_555 1_555
C36 N1 1_555 1_555
H22 C36 1_555 1_555
O9 H23 1_555 1_555
H24 O9 1_555 1_555
O10 H25 1_555 1_555
H26 O10 1_555 1_555
Cd1A O1 1_555 1_555
Cd1C O3 1_555 1_555
Cd2A O5 1_555 1_555
Cd2C O3 1_555 1_555
O1A Cd1 1_555 1_555
O2A Cd1 1_555 1_555
O3C Cd1 1_555 1_555
O4C Cd1 1_555 1_555
O5A Cd2 1_555 1_555
O6A Cd2 1_555 1_555
Cd2 O3C 1_555 1_555
O2 Cd1A 1_555 1_555
O4 Cd1C 1_555 1_555
O6 Cd2A 1_555 1_555
O8 C16 1_555 1_555
C5 C6 1_555 1_555
C11 C16 1_555 1_555
C13 C14 1_555 1_555
C20 C21 1_555 1_555
C21 C22 1_555 1_555
C25 C26 1_555 1_555
C30 C31 1_555 1_555
C35 C36 1_555 1_555

#END
