
#######################################################################
#
#                 Cambridge Crystallographic Data Centre
#                                CCDC 
#
#######################################################################
#
# If this CIF has been generated from an entry in the Cambridge 
# Structural Database, then it will include bibliographic, chemical, 
# crystal, experimental, refinement or atomic coordinate data resulting 
# from the CCDC's data processing and validation procedures.
#
#######################################################################

data_ZOTQUW
_symmetry_cell_setting           triclinic
_symmetry_space_group_name_H-M   'P -1'
_symmetry_Int_Tables_number      2
_space_group_name_Hall           '-P 1'
loop_
_symmetry_equiv_pos_site_id
_symmetry_equiv_pos_as_xyz
1 x,y,z
2 -x,-y,-z
_cell_length_a                   7.478(4)
_cell_length_b                   10.893(5)
_cell_length_c                   15.408(8)
_cell_angle_alpha                97.827(6)
_cell_angle_beta                 96.507(7)
_cell_angle_gamma                103.373(6)
_cell_volume                     1195.96
loop_
_atom_site_label
_atom_site_type_symbol
_atom_site_fract_x
_atom_site_fract_y
_atom_site_fract_z
Cd1 Cd 1.5000 0.5000 0.0000
N1 N 0.5614(7) -0.2242(4) -0.4925(3)
N2 N 0.6926(6) -0.2036(4) -0.3538(3)
N3 N 1.1376(6) 0.1598(4) -0.1685(3)
N4 N 1.3201(6) 0.3443(4) -0.1036(3)
N5 N 0.9015(6) -0.1527(4) -0.1191(3)
O1 O 1.2437(5) 0.7067(3) 0.1235(2)
H1 H 1.2785 0.7210 0.0765
O2 O 1.2315(5) 0.5042(3) 0.0684(2)
O3 O 0.5151(5) -0.1136(3) 0.3676(2)
H2 H 0.5310 -0.1500 0.4100
O4 O 0.7855(5) 0.0188(3) 0.4335(2)
O5 O 0.5560(5) 0.3614(3) 0.0942(2)
O6 O 0.6410(6) 0.2097(3) 0.0069(2)
O7 O 0.9583(6) 0.6449(3) 0.4898(2)
O8 O 1.1095(6) 0.7976(3) 0.4241(2)
H3 H 1.1294 0.8393 0.4743
C1 C 0.4956(8) -0.3347(5) -0.4613(4)
H4 H 0.4089 -0.4066 -0.4935
C2 C 0.5754(8) -0.3239(5) -0.3767(4)
H5 H 0.5549 -0.3861 -0.3406
C3 C 0.6771(8) -0.1498(5) -0.4268(4)
H6 H 0.7429 -0.0673 -0.4300
C4 C 0.8025(6) -0.1433(4) -0.2703(3)
C5 C 0.7969(7) -0.2050(5) -0.1974(3)
H7 H 0.7172 -0.2860 -0.2031
C6 C 0.6102(7) 0.2607(4) 0.0796(3)
C7 C 1.0136(7) -0.0366(5) -0.1123(3)
H8 H 1.0926 -0.0015 -0.0593
C8 C 1.0187(7) 0.0352(4) -0.1806(3)
C9 C 0.9097(7) -0.0205(5) -0.2610(3)
H9 H 0.9090 0.0245 -0.3081
C10 C 1.2103(7) 0.2217(4) -0.2336(3)
H10 H 1.1866 0.1911 -0.2942
C11 C 1.3212(7) 0.3339(5) -0.1930(3)
H11 H 1.3887 0.3955 -0.2211
C12 C 1.2083(7) 0.2385(5) -0.0904(3)
H12 H 1.1815 0.2204 -0.0354
C13 C 1.1971(6) 0.5844(4) 0.1226(3)
C14 C 1.0920(6) 0.5469(4) 0.1960(3)
C15 C 0.9754(6) 0.4240(4) 0.1838(3)
H13 H 0.9647 0.3686 0.1309
C16 C 0.8746(6) 0.3830(4) 0.2497(3)
C17 C 0.8979(6) 0.4655(4) 0.3289(3)
H14 H 0.8358 0.4383 0.3745
C18 C 1.0135(6) 0.5896(4) 0.3415(3)
C19 C 1.1098(6) 0.6303(4) 0.2747(3)
H15 H 1.1857 0.7128 0.2826
C20 C 1.0225(7) 0.6771(5) 0.4260(3)
C21 C 0.7515(6) 0.2501(4) 0.2365(3)
C22 C 0.6346(6) 0.1910(4) 0.1561(3)
C23 C 0.5324(6) 0.0644(4) 0.1464(3)
H16 H 0.4628 0.0242 0.0918
C24 C 0.5326(6) -0.0025(4) 0.2167(3)
H17 H 0.4584 -0.0854 0.2105
C25 C 0.6450(6) 0.0556(4) 0.2968(3)
C26 C 0.7554(6) 0.1802(4) 0.3054(3)
H18 H 0.8333 0.2173 0.3584
C27 C 0.6548(7) -0.0148(4) 0.3726(3)
O1A O 0.7563(5) 0.2933(3) -0.1235(2)
H1A H 0.7215 0.2790 -0.0765
O2A O 0.7685(5) 0.4958(3) -0.0684(2)
O3A O 1.4849(5) 1.1136(3) -0.3676(2)
H2A H 1.4690 1.1500 -0.4100
O4A O 1.2145(5) 0.9812(3) -0.4335(2)
O5A O 1.4440(5) 0.6386(3) -0.0942(2)
O6A O 1.3590(6) 0.7903(3) -0.0069(2)
O7A O 1.0417(6) 0.3551(3) -0.4898(2)
O8A O 0.8905(6) 0.2024(3) -0.4241(2)
H3A H 0.8706 0.1607 -0.4743
C6A C 1.3898(7) 0.7393(4) -0.0796(3)
C13A C 0.8029(6) 0.4156(4) -0.1226(3)
C14A C 0.9080(6) 0.4531(4) -0.1960(3)
C15A C 1.0246(6) 0.5760(4) -0.1838(3)
H13A H 1.0353 0.6314 -0.1309
C16A C 1.1254(6) 0.6170(4) -0.2497(3)
C17A C 1.1021(6) 0.5345(4) -0.3289(3)
H14A H 1.1642 0.5617 -0.3745
C18A C 0.9865(6) 0.4104(4) -0.3415(3)
C19A C 0.8902(6) 0.3697(4) -0.2747(3)
H15A H 0.8143 0.2872 -0.2826
C20A C 0.9775(7) 0.3229(5) -0.4260(3)
C21A C 1.2485(6) 0.7499(4) -0.2365(3)
C22A C 1.3654(6) 0.8090(4) -0.1561(3)
C23A C 1.4676(6) 0.9356(4) -0.1464(3)
H16A H 1.5372 0.9758 -0.0918
C24A C 1.4674(6) 1.0025(4) -0.2167(3)
H17A H 1.5416 1.0854 -0.2105
C25A C 1.3550(6) 0.9444(4) -0.2968(3)
C26A C 1.2446(6) 0.8198(4) -0.3054(3)
H18A H 1.1667 0.7827 -0.3584
C27A C 1.3452(7) 1.0148(4) -0.3726(3)
N1A N 2.4386(7) 1.2242(4) 0.4925(3)
N2A N 2.3074(6) 1.2036(4) 0.3538(3)
N3A N 1.8624(6) 0.8402(4) 0.1685(3)
N4A N 1.6799(6) 0.6557(4) 0.1036(3)
N5A N 2.0985(6) 1.1527(4) 0.1191(3)
C1A C 2.5044(8) 1.3347(5) 0.4613(4)
H4A H 2.5911 1.4066 0.4935
C2A C 2.4246(8) 1.3239(5) 0.3767(4)
H5A H 2.4451 1.3861 0.3406
C3A C 2.3229(8) 1.1498(5) 0.4268(4)
H6A H 2.2571 1.0673 0.4300
C4A C 2.1975(6) 1.1433(4) 0.2703(3)
C5A C 2.2031(7) 1.2050(5) 0.1974(3)
H7A H 2.2828 1.2860 0.2031
C7A C 1.9864(7) 1.0366(5) 0.1123(3)
H8A H 1.9074 1.0015 0.0593
C8A C 1.9813(7) 0.9648(4) 0.1806(3)
C9A C 2.0903(7) 1.0205(5) 0.2610(3)
H9A H 2.0910 0.9755 0.3081
C10A C 1.7897(7) 0.7783(4) 0.2336(3)
H10A H 1.8134 0.8089 0.2942
C11A C 1.6788(7) 0.6661(5) 0.1930(3)
H11A H 1.6113 0.6045 0.2211
C12A C 1.7917(7) 0.7615(5) 0.0904(3)
H12A H 1.8185 0.7796 0.0354
Cd1_2 Cd 0.5000 0.5000 0.0000
O2A_2 O 1.7685(5) 0.4958(3) -0.0684(2)
O5_2 O 1.5560(5) 0.3614(3) 0.0942(2)
loop_
_geom_bond_atom_site_label_1
_geom_bond_atom_site_label_2
_geom_bond_site_symmetry_1
_geom_bond_site_symmetry_2
Cd1 N4 1_555 1_555
N1 C1 1_555 1_555
N2 C2 1_555 1_555
N3 C8 1_555 1_555
N4 C11 1_555 1_555
N5 C5 1_555 1_555
O1 H1 1_555 1_555
O2 Cd1 1_555 1_555
O3 H2 1_555 1_555
O4 C27 1_555 1_555
O5 C6 1_555 1_555
O6 C6 1_555 1_555
O7 C20 1_555 1_555
O8 H3 1_555 1_555
C1 H4 1_555 1_555
C2 C1 1_555 1_555
H5 C2 1_555 1_555
C3 N1 1_555 1_555
H6 C3 1_555 1_555
C4 N2 1_555 1_555
C5 C4 1_555 1_555
H7 C5 1_555 1_555
C6 C22 1_555 1_555
C7 N5 1_555 1_555
H8 C7 1_555 1_555
C8 C7 1_555 1_555
C9 C4 1_555 1_555
H9 C9 1_555 1_555
C10 N3 1_555 1_555
H10 C10 1_555 1_555
C11 C10 1_555 1_555
H11 C11 1_555 1_555
C12 N3 1_555 1_555
H12 C12 1_555 1_555
C13 O1 1_555 1_555
C14 C13 1_555 1_555
C15 C14 1_555 1_555
H13 C15 1_555 1_555
C16 C15 1_555 1_555
C17 C16 1_555 1_555
H14 C17 1_555 1_555
C18 C17 1_555 1_555
C19 C14 1_555 1_555
H15 C19 1_555 1_555
C20 O8 1_555 1_555
C21 C16 1_555 1_555
C22 C21 1_555 1_555
C23 C22 1_555 1_555
H16 C23 1_555 1_555
C24 C23 1_555 1_555
H17 C24 1_555 1_555
C25 C24 1_555 1_555
C26 C21 1_555 1_555
H18 C26 1_555 1_555
C27 O3 1_555 1_555
O1A H1A 1_555 1_555
O2A C13A 1_555 1_555
O3A H2A 1_555 1_555
O4A C27A 1_555 1_555
O5A Cd1 1_555 1_555
O6A C6A 1_555 1_555
O7A C20A 1_555 1_555
O8A H3A 1_555 1_555
C6A O5A 1_555 1_555
C13A O1A 1_555 1_555
C14A C13A 1_555 1_555
C15A C14A 1_555 1_555
H13A C15A 1_555 1_555
C16A C15A 1_555 1_555
C17A C16A 1_555 1_555
H14A C17A 1_555 1_555
C18A C17A 1_555 1_555
C19A C14A 1_555 1_555
H15A C19A 1_555 1_555
C20A O8A 1_555 1_555
C21A C16A 1_555 1_555
C22A C6A 1_555 1_555
C23A C22A 1_555 1_555
H16A C23A 1_555 1_555
C24A C23A 1_555 1_555
H17A C24A 1_555 1_555
C25A C24A 1_555 1_555
C26A C21A 1_555 1_555
H18A C26A 1_555 1_555
C27A O3A 1_555 1_555
N1A C1A 1_555 1_555
N2A C2A 1_555 1_555
N3A C8A 1_555 1_555
N4A Cd1 1_555 1_555
N5A C5A 1_555 1_555
C1A H4A 1_555 1_555
C2A C1A 1_555 1_555
H5A C2A 1_555 1_555
C3A N1A 1_555 1_555
H6A C3A 1_555 1_555
C4A N2A 1_555 1_555
C5A C4A 1_555 1_555
H7A C5A 1_555 1_555
C7A N5A 1_555 1_555
H8A C7A 1_555 1_555
C8A C7A 1_555 1_555
C9A C4A 1_555 1_555
H9A C9A 1_555 1_555
C10A N3A 1_555 1_555
H10A C10A 1_555 1_555
C11A N4A 1_555 1_555
H11A C11A 1_555 1_555
C12A N3A 1_555 1_555
H12A C12A 1_555 1_555
Cd1_2 O5 1_555 1_555
O2A_2 Cd1 1_555 1_555
O5_2 Cd1 1_555 1_555
N2 C3 1_555 1_555
N4 C12 1_555 1_555
O2 C13 1_555 1_555
C8 C9 1_555 1_555
C18 C19 1_555 1_555
C18 C20 1_555 1_555
C25 C26 1_555 1_555
C25 C27 1_555 1_555
O2A Cd1_2 1_555 1_555
C18A C19A 1_555 1_555
C18A C20A 1_555 1_555
C21A C22A 1_555 1_555
C25A C26A 1_555 1_555
C25A C27A 1_555 1_555
N2A C3A 1_555 1_555
N4A C12A 1_555 1_555
C8A C9A 1_555 1_555
C10A C11A 1_555 1_555

#END
