
#######################################################################
#
#                 Cambridge Crystallographic Data Centre
#                                CCDC 
#
#######################################################################
#
# If this CIF has been generated from an entry in the Cambridge 
# Structural Database, then it will include bibliographic, chemical, 
# crystal, experimental, refinement or atomic coordinate data resulting 
# from the CCDC's data processing and validation procedures.
#
#######################################################################

data_ZOTTAD
_symmetry_cell_setting           rhombohedral
_symmetry_space_group_name_H-M   'R -3'
_symmetry_Int_Tables_number      148
_space_group_name_Hall           '-R 3'
loop_
_symmetry_equiv_pos_site_id
_symmetry_equiv_pos_as_xyz
1 x,y,z
2 -y,x-y,z
3 -x+y,-x,z
4 1/3+x,2/3+y,2/3+z
5 1/3-y,2/3+x-y,2/3+z
6 1/3-x+y,2/3-x,2/3+z
7 2/3+x,1/3+y,1/3+z
8 2/3-y,1/3+x-y,1/3+z
9 2/3-x+y,1/3-x,1/3+z
10 -x,-y,-z
11 y,-x+y,-z
12 x-y,x,-z
13 2/3-x,1/3-y,1/3-z
14 2/3+y,1/3-x+y,1/3-z
15 2/3+x-y,1/3+x,1/3-z
16 1/3-x,2/3-y,2/3-z
17 1/3+y,2/3-x+y,2/3-z
18 1/3+x-y,2/3+x,2/3-z
_cell_length_a                   14.388(4)
_cell_length_b                   14.388(4)
_cell_length_c                   18.149(5)
_cell_angle_alpha                90
_cell_angle_beta                 90
_cell_angle_gamma                120
_cell_volume                     3253.75
loop_
_atom_site_label
_atom_site_type_symbol
_atom_site_fract_x
_atom_site_fract_y
_atom_site_fract_z
Ce1 Ce 0.0000 0.0000 0.242687(14)
O1 O -0.1281(2) -0.1206(2) 0.33773(11)
O2 O -0.1806(2) -0.0090(2) 0.25152(11)
C1 C -0.2270(2) -0.1488(2) 0.33789(14)
C2 C -0.2563(2) -0.0814(2) 0.2887(2)
C3 C -0.3051(2) -0.2320(2) 0.3793(2)
O3 O -0.1310(2) -0.1325(2) 0.1519(2)
H1 H -0.2870(2) -0.2754(2) 0.4086(2)
H2 H -0.175(4) -0.117(4) 0.131(2)
H3 H -0.136(5) -0.188(3) 0.131(2)
O1A O 0.1206(2) -0.0075(3) 0.33773(11)
O2A O 0.0090(2) -0.1716(3) 0.25152(11)
O1B O 0.0075(3) 0.1281(2) 0.33773(11)
C1B C 0.0782(3) 0.2270(2) 0.33789(14)
C2B C 0.1749(3) 0.2563(2) 0.2887(2)
O2B O 0.1716(3) 0.1806(2) 0.25152(11)
O3A O 0.1325(2) 0.0015(3) 0.1519(2)
H2A H 0.117(4) -0.058(6) 0.131(2)
H3A H 0.188(3) 0.052(6) 0.131(2)
O3B O -0.0015(3) 0.1310(2) 0.1519(2)
H2B H 0.058(6) 0.175(4) 0.131(2)
H3B H -0.052(6) 0.136(5) 0.131(2)
C3Q C 0.2602(3) 0.3616(2) 0.2874(2)
C1Q C 0.2551(3) 0.4397(2) 0.32878(14)
O1Q O 0.3258(3) 0.5386(2) 0.32894(11)
Ce1Q Ce 0.3333 0.6667 0.423980(14)
O1O O 0.4614(2) 0.7873(2) 0.32894(11)
C1O C 0.5603(2) 0.8155(2) 0.32878(14)
C2O C 0.5896(2) 0.7481(2) 0.3780(2)
O2O O 0.5139(2) 0.6757(2) 0.41515(11)
O1P O 0.2127(2) 0.6742(3) 0.32894(11)
O2P O 0.3243(2) 0.8383(3) 0.41515(11)
O2Q O 0.1617(3) 0.4861(2) 0.41515(11)
C2Q C 0.1584(3) 0.4104(2) 0.3780(2)
C3B C 0.0731(3) 0.3051(2) 0.3793(2)
H1B H 0.0116(3) 0.2870(2) 0.4086(2)
O3Q O 0.3348(3) 0.5357(2) 0.5148(2)
H2Q H 0.275(6) 0.492(4) 0.536(2)
H3Q H 0.385(6) 0.531(5) 0.536(2)
O3O O 0.4643(2) 0.7992(2) 0.5148(2)
H2O H 0.508(4) 0.784(4) 0.536(2)
H3O H 0.469(5) 0.855(3) 0.536(2)
O3P O 0.2008(2) 0.6652(3) 0.5148(2)
H2P H 0.216(4) 0.725(6) 0.536(2)
H3P H 0.145(3) 0.615(6) 0.536(2)
C3_2 C 0.6949(2) 0.7680(2) 0.3793(2)
C1_2 C 0.7730(2) 0.8512(2) 0.33789(14)
O1_2 O 0.8719(2) 0.8794(2) 0.33773(11)
C2_2 C 0.7437(2) 0.9186(2) 0.2887(2)
H1_2 H 0.7130(2) 0.7246(2) 0.4086(2)
C3O C 0.6384(2) 0.8987(2) 0.2874(2)
O2_2 O 0.8194(2) 0.9910(2) 0.25152(11)
H1O H 0.6203(2) 0.9421(2) 0.2581(2)
H1Q H 0.3217(3) 0.3797(2) 0.2581(2)
C3O_2 C -0.3616(2) -0.1013(2) 0.2874(2)
C2O_2 C -0.4104(2) -0.2519(2) 0.3780(2)
Ce1_2 Ce 1.0000 1.0000 0.242687(14)
C1O_2 C -0.4397(2) -0.1845(2) 0.32878(14)
H1O_2 H -0.3797(2) -0.0579(2) 0.2581(2)
O2O_2 O -0.4861(2) -0.3243(2) 0.41515(11)
O1O_2 O -0.5386(2) -0.2127(2) 0.32894(11)
Ce1O Ce -0.6667 -0.3333 0.423980(14)
O4 O -0.1392(2) -0.2954(2) 0.0684(2)
H4 H -0.193(3) -0.354(3) 0.084(3)
H5 H -0.144(5) -0.280(4) 0.023(2)
O5 O -0.4784(2) -0.2066(2) 0.12524(14)
H6 H -0.501(4) -0.243(4) 0.086(2)
H7 H -0.512(4) -0.178(5) 0.145(3)
O6 O -0.2702(2) -0.0852(2) 0.0772(2)
H8 H -0.236(5) -0.017(2) 0.081(3)
H9 H -0.330(3) -0.123(5) 0.099(3)
loop_
_geom_bond_atom_site_label_1
_geom_bond_atom_site_label_2
_geom_bond_site_symmetry_1
_geom_bond_site_symmetry_2
Ce1 O1 1_555 1_555
O1 C1 1_555 1_555
O2 Ce1 1_555 1_555
C1 C2 1_555 1_555
C2 O2 1_555 1_555
C3 C1 1_555 1_555
O3 Ce1 1_555 1_555
O4 H4 1_555 1_555
O5 H6 1_555 1_555
O6 H8 1_555 1_555
H1 C3 1_555 1_555
H2 O3 1_555 1_555
H3 O3 1_555 1_555
H5 O4 1_555 1_555
H7 O5 1_555 1_555
H9 O6 1_555 1_555
O1A Ce1 1_555 1_555
O2A Ce1 1_555 1_555
O1B Ce1 1_555 1_555
C1B O1B 1_555 1_555
C2B C1B 1_555 1_555
O2B Ce1 1_555 1_555
O3A Ce1 1_555 1_555
H2A O3A 1_555 1_555
H3A O3A 1_555 1_555
O3B Ce1 1_555 1_555
H2B O3B 1_555 1_555
H3B O3B 1_555 1_555
C3Q C2B 1_555 1_555
C1Q C3Q 1_555 1_555
O1Q C1Q 1_555 1_555
Ce1Q O1Q 1_555 1_555
O1O Ce1Q 1_555 1_555
C1O O1O 1_555 1_555
C2O C1O 1_555 1_555
O2O Ce1Q 1_555 1_555
O1P Ce1Q 1_555 1_555
O2P Ce1Q 1_555 1_555
O2Q Ce1Q 1_555 1_555
C2Q C1Q 1_555 1_555
C3B C1B 1_555 1_555
H1B C3B 1_555 1_555
O3Q Ce1Q 1_555 1_555
H2Q O3Q 1_555 1_555
H3Q O3Q 1_555 1_555
O3O Ce1Q 1_555 1_555
H2O O3O 1_555 1_555
H3O O3O 1_555 1_555
O3P Ce1Q 1_555 1_555
H2P O3P 1_555 1_555
H3P O3P 1_555 1_555
C3_2 C2O 1_555 1_555
C1_2 C3_2 1_555 1_555
O1_2 C1_2 1_555 1_555
C2_2 C1_2 1_555 1_555
H1_2 C3_2 1_555 1_555
C3O C1O 1_555 1_555
O2_2 C2_2 1_555 1_555
H1O C3O 1_555 1_555
H1Q C3Q 1_555 1_555
C3O_2 C2 1_555 1_555
C2O_2 C3 1_555 1_555
Ce1_2 O1_2 1_555 1_555
C1O_2 C3O_2 1_555 1_555
H1O_2 C3O_2 1_555 1_555
O2O_2 C2O_2 1_555 1_555
O1O_2 C1O_2 1_555 1_555
Ce1O O2O_2 1_555 1_555
C2B O2B 1_555 1_555
C2O O2O 1_555 1_555
O2Q C2Q 1_555 1_555
C2Q C3B 1_555 1_555
C2_2 C3O 1_555 1_555
O2_2 Ce1_2 1_555 1_555
C2O_2 C1O_2 1_555 1_555
O1O_2 Ce1O 1_555 1_555

#END
