
#######################################################################
#
#                 Cambridge Crystallographic Data Centre
#                                CCDC 
#
#######################################################################
#
# If this CIF has been generated from an entry in the Cambridge 
# Structural Database, then it will include bibliographic, chemical, 
# crystal, experimental, refinement or atomic coordinate data resulting 
# from the CCDC's data processing and validation procedures.
#
#######################################################################

data_ZOTTOT
_symmetry_cell_setting           monoclinic
_symmetry_space_group_name_H-M   'P 21/n'
_symmetry_Int_Tables_number      14
_space_group_name_Hall           '-P 2yn'
loop_
_symmetry_equiv_pos_site_id
_symmetry_equiv_pos_as_xyz
1 x,y,z
2 1/2-x,1/2+y,1/2-z
3 -x,-y,-z
4 1/2+x,1/2-y,1/2+z
_cell_length_a                   8.7835(14)
_cell_length_b                   9.4359(12)
_cell_length_c                   17.453(3)
_cell_angle_alpha                90
_cell_angle_beta                 99.870(13)
_cell_angle_gamma                90
_cell_volume                     1425.1
loop_
_atom_site_label
_atom_site_type_symbol
_atom_site_fract_x
_atom_site_fract_y
_atom_site_fract_z
C1 C 0.6337(6) 0.4655(5) 0.6401(3)
C2 C 0.5361(7) 0.3402(6) 0.7338(3)
H1 H 0.4532 0.3134 0.7582
C3 C 0.6809(8) 0.2850(6) 0.7616(3)
H2 H 0.6972 0.2209 0.8035
C4 C 0.8006(7) 0.3287(6) 0.7249(3)
H3 H 0.9006 0.2942 0.7432
C5 C 0.1411(6) 0.2581(5) 0.5731(3)
C6 C 0.0687(6) 0.1236(5) 0.5356(3)
C7 C -0.0231(6) 0.0373(5) 0.5739(3)
H4 H -0.0397 0.0625 0.6239
C8 C 0.0905(6) 0.0855(5) 0.4607(3)
H5 H 0.1508 0.1431 0.4337
C9 C 0.3474(6) 0.7886(5) 0.5840(3)
C10 C 0.4255(6) 0.9000(5) 0.5410(3)
C11 C 0.4319(6) 0.8812(5) 0.4621(3)
H6 H 0.3860 0.8007 0.4361
C12 C 0.4945(6) 1.0197(5) 0.5787(3)
H7 H 0.4915 1.0340 0.6317
Cd1 Cd 0.25074(4) 0.51826(3) 0.637175(19)
N1 N 0.5083(5) 0.4307(4) 0.6732(2)
N2 N 0.7800(5) 0.4170(5) 0.6652(3)
N3 N 0.6120(6) 0.5552(5) 0.5793(3)
O1 O 0.1773(4) 0.3559(3) 0.53025(18)
O2 O 0.1613(4) 0.2703(3) 0.64635(18)
O3 O 0.3059(4) 0.6741(4) 0.5468(2)
O4 O 0.3368(5) 0.8059(4) 0.65407(19)
O5 O -0.0004(5) 0.5882(4) 0.6157(2)
O6 O 0.2357(5) 0.5380(5) 0.7638(2)
H8 H 0.522(3) 0.575(6) 0.561(3)
H9 H 0.667(8) 0.564(8) 0.546(4)
H10 H -0.012(10) 0.611(9) 0.5692(18)
H11 H -0.060(6) 0.523(4) 0.624(3)
H12 H 0.224(6) 0.484(6) 0.789(3)
H13 H 0.274(8) 0.596(7) 0.793(4)
C5B C -0.1411(6) -0.2581(5) 0.4269(3)
C6B C -0.0687(6) -0.1236(5) 0.4644(3)
C7B C 0.0231(6) -0.0373(5) 0.4261(3)
H4B H 0.0397 -0.0625 0.3761
C8B C -0.0905(6) -0.0855(5) 0.5393(3)
H5B H -0.1508 -0.1431 0.5663
O1B O -0.1773(4) -0.3559(3) 0.46975(18)
O2B O -0.1613(4) -0.2703(3) 0.35365(18)
C9B C 0.6526(6) 1.2114(5) 0.4160(3)
C10B C 0.5745(6) 1.1000(5) 0.4590(3)
C11B C 0.5681(6) 1.1188(5) 0.5379(3)
H6B H 0.6140 1.1993 0.5639
C12B C 0.5055(6) 0.9803(5) 0.4213(3)
H7B H 0.5085 0.9660 0.3683
O3B O 0.6941(4) 1.3259(4) 0.4532(2)
O4B O 0.6632(5) 1.1941(4) 0.34593(19)
C1B C -0.6337(6) -0.4655(5) 0.3599(3)
C2B C -0.5361(7) -0.3402(6) 0.2662(3)
H1B H -0.4532 -0.3134 0.2418
C3B C -0.6809(8) -0.2850(6) 0.2384(3)
H2B H -0.6972 -0.2209 0.1965
C4B C -0.8006(7) -0.3287(6) 0.2751(3)
H3B H -0.9006 -0.2942 0.2568
Cd1B Cd -0.25074(4) -0.51826(3) 0.362825(19)
N1B N -0.5083(5) -0.4307(4) 0.3268(2)
N2B N -0.7800(5) -0.4170(5) 0.3348(3)
N3B N -0.6120(6) -0.5552(5) 0.4207(3)
O5B O 0.0004(5) -0.5882(4) 0.3843(2)
O6B O -0.2357(5) -0.5380(5) 0.2362(2)
H8B H -0.522(3) -0.575(6) 0.439(3)
H9B H -0.667(8) -0.564(8) 0.454(4)
H10B H 0.012(10) -0.611(9) 0.4308(18)
H11B H 0.060(6) -0.523(4) 0.376(3)
H12B H -0.224(6) -0.484(6) 0.211(3)
H13B H -0.274(8) -0.596(7) 0.207(4)
Cd1B_2 Cd 0.74926(4) 1.48174(3) 0.362825(19)
O3B_2 O -0.3059(4) -0.6741(4) 0.4532(2)
O4B_2 O -0.3368(5) -0.8059(4) 0.34593(19)
loop_
_geom_bond_atom_site_label_1
_geom_bond_atom_site_label_2
_geom_bond_site_symmetry_1
_geom_bond_site_symmetry_2
C1 N1 1_555 1_555
C2 H1 1_555 1_555
C3 C2 1_555 1_555
H2 C3 1_555 1_555
C4 C3 1_555 1_555
H3 C4 1_555 1_555
C5 C6 1_555 1_555
C6 C7 1_555 1_555
C7 H4 1_555 1_555
C8 C6 1_555 1_555
H5 C8 1_555 1_555
C9 C10 1_555 1_555
C10 C11 1_555 1_555
C11 H6 1_555 1_555
C12 C10 1_555 1_555
H7 C12 1_555 1_555
Cd1 N1 1_555 1_555
N1 C2 1_555 1_555
N2 C1 1_555 1_555
N3 C1 1_555 1_555
O1 C5 1_555 1_555
O2 C5 1_555 1_555
O3 C9 1_555 1_555
O4 C9 1_555 1_555
O5 Cd1 1_555 1_555
O6 Cd1 1_555 1_555
H8 N3 1_555 1_555
H9 N3 1_555 1_555
H10 O5 1_555 1_555
H11 O5 1_555 1_555
H12 O6 1_555 1_555
H13 O6 1_555 1_555
C5B C6B 1_555 1_555
C6B C7B 1_555 1_555
C7B C8 1_555 1_555
H4B C7B 1_555 1_555
C8B C7 1_555 1_555
H5B C8B 1_555 1_555
O1B C5B 1_555 1_555
O2B C5B 1_555 1_555
C9B C10B 1_555 1_555
C10B C11B 1_555 1_555
C11B C12 1_555 1_555
H6B C11B 1_555 1_555
C12B C11 1_555 1_555
H7B C12B 1_555 1_555
O3B C9B 1_555 1_555
O4B C9B 1_555 1_555
C1B N1B 1_555 1_555
C2B H1B 1_555 1_555
C3B C2B 1_555 1_555
H2B C3B 1_555 1_555
C4B C3B 1_555 1_555
H3B C4B 1_555 1_555
Cd1B O1B 1_555 1_555
N1B C2B 1_555 1_555
N2B C1B 1_555 1_555
N3B C1B 1_555 1_555
O5B Cd1B 1_555 1_555
O6B Cd1B 1_555 1_555
H8B N3B 1_555 1_555
H9B N3B 1_555 1_555
H10B O5B 1_555 1_555
H11B O5B 1_555 1_555
H12B O6B 1_555 1_555
H13B O6B 1_555 1_555
Cd1B_2 O3B 1_555 1_555
O3B_2 Cd1B 1_555 1_555
O4B_2 Cd1B 1_555 1_555
C4 N2 1_555 1_555
Cd1 O1 1_555 1_555
Cd1 O2 1_555 1_555
Cd1 O3 1_555 1_555
Cd1 O4 1_555 1_555
C6B C8B 1_555 1_555
O2B Cd1B 1_555 1_555
C10B C12B 1_555 1_555
O4B Cd1B_2 1_555 1_555
C4B N2B 1_555 1_555
Cd1B N1B 1_555 1_555

#END
