
#######################################################################
#
#                 Cambridge Crystallographic Data Centre
#                                CCDC 
#
#######################################################################
#
# If this CIF has been generated from an entry in the Cambridge 
# Structural Database, then it will include bibliographic, chemical, 
# crystal, experimental, refinement or atomic coordinate data resulting 
# from the CCDC's data processing and validation procedures.
#
#######################################################################

data_ZOTTIN
_symmetry_cell_setting           orthorhombic
_symmetry_space_group_name_H-M   'F d d d'
_symmetry_Int_Tables_number      70
_space_group_name_Hall           '-F 2uv 2vw'
loop_
_symmetry_equiv_pos_site_id
_symmetry_equiv_pos_as_xyz
1 x,y,z
2 1/4-x,1/4-y,z
3 x,1/4-y,1/4-z
4 1/4-x,y,1/4-z
5 x,1/2+y,1/2+z
6 1/4-x,3/4-y,1/2+z
7 x,3/4-y,3/4-z
8 1/4-x,1/2+y,3/4-z
9 1/2+x,y,1/2+z
10 3/4-x,1/4-y,1/2+z
11 1/2+x,1/4-y,3/4-z
12 3/4-x,y,3/4-z
13 1/2+x,1/2+y,z
14 3/4-x,3/4-y,z
15 1/2+x,3/4-y,1/4-z
16 3/4-x,1/2+y,1/4-z
17 -x,-y,-z
18 3/4+x,3/4+y,-z
19 -x,3/4+y,3/4+z
20 3/4+x,-y,3/4+z
21 -x,1/2-y,1/2-z
22 3/4+x,1/4+y,1/2-z
23 -x,1/4+y,1/4+z
24 3/4+x,1/2-y,1/4+z
25 1/2-x,-y,1/2-z
26 1/4+x,3/4+y,1/2-z
27 1/2-x,3/4+y,1/4+z
28 1/4+x,-y,1/4+z
29 1/2-x,1/2-y,-z
30 1/4+x,1/4+y,-z
31 1/2-x,1/4+y,3/4+z
32 1/4+x,1/2-y,3/4+z
_cell_length_a                   16.5421(15)
_cell_length_b                   23.4933(16)
_cell_length_c                   40.781(2)
_cell_angle_alpha                90
_cell_angle_beta                 90
_cell_angle_gamma                90
_cell_volume                     15848.7
loop_
_atom_site_label
_atom_site_type_symbol
_atom_site_fract_x
_atom_site_fract_y
_atom_site_fract_z
C1 C 0.2932(2) 0.30915(17) 0.12169(8)
C2 C 0.24505(19) 0.28580(13) 0.15048(7)
C3 C 0.2697(2) 0.23656(16) 0.16596(10)
H1 H 0.3177 0.2179 0.1589
C4 C 0.2252(2) 0.21402(15) 0.19164(10)
H2 H 0.2418 0.1799 0.2021
C5 C 0.15627(19) 0.24217(13) 0.20172(7)
C6 C 0.13215(19) 0.29232(15) 0.18729(9)
H3 H 0.0855 0.3120 0.1948
C7 C 0.1778(2) 0.31347(14) 0.16141(8)
H4 H 0.1617 0.3479 0.1511
C8 C 0.03486(18) 0.19328(13) 0.22495(8)
H5 H 0.0041 0.1932 0.2053
C9 C 0.13047(16) 0.20830(11) 0.26040(7)
C10 C 0.20447(17) 0.22652(12) 0.27717(7)
C11 C 0.2504(3) 0.27283(16) 0.26793(10)
H6 H 0.2357 0.2952 0.2495
C12 C 0.3184(3) 0.2860(2) 0.28618(14)
H7 H 0.3522 0.3169 0.2800
C13 C 0.3361(3) 0.2543(2) 0.31312(13)
H8 H 0.3822 0.2631 0.3261
C14 C 0.2869(2) 0.20929(17) 0.32146(9)
H9 H 0.2997 0.1877 0.3405
Cd1 Cd 0.3750 0.3750 0.072699(6)
N1 N 0.07226(14) 0.17977(9) 0.27498(6)
N2 N 0.01165(15) 0.16963(11) 0.25251(6)
N3 N 0.10873(15) 0.21789(10) 0.22823(6)
N4 N 0.22198(14) 0.19473(10) 0.30396(6)
O1 O 0.27669(16) 0.35726(11) 0.11152(6)
O2 O 0.3481(2) 0.27996(14) 0.10958(8)
C1M C 0.4568(2) 0.44085(17) 0.12169(8)
C2M C 0.50495(19) 0.46420(13) 0.15048(7)
C3M C 0.4803(2) 0.51344(16) 0.16596(10)
H1M H 0.4323 0.5321 0.1589
C4M C 0.5248(2) 0.53598(15) 0.19164(10)
H2M H 0.5082 0.5701 0.2021
C5M C 0.59373(19) 0.50783(13) 0.20172(7)
C6M C 0.61785(19) 0.45768(15) 0.18729(9)
H3M H 0.6645 0.4380 0.1948
C7M C 0.5722(2) 0.43653(14) 0.16141(8)
H4M H 0.5883 0.4021 0.1511
C8M C 0.71514(18) 0.55672(13) 0.22495(8)
H5M H 0.7459 0.5568 0.2053
C9M C 0.61953(16) 0.54170(11) 0.26040(7)
C10M C 0.54553(17) 0.52348(12) 0.27717(7)
C11M C 0.4996(3) 0.47717(16) 0.26793(10)
H6M H 0.5143 0.4548 0.2495
C12M C 0.4316(3) 0.4640(2) 0.28618(14)
H7M H 0.3978 0.4331 0.2800
C13M C 0.4139(3) 0.4957(2) 0.31312(13)
H8M H 0.3678 0.4869 0.3261
C14M C 0.4631(2) 0.54071(17) 0.32146(9)
H9M H 0.4503 0.5623 0.3405
N1M N 0.67774(14) 0.57023(9) 0.27498(6)
N2M N 0.73835(15) 0.58037(11) 0.25251(6)
N3M N 0.64127(15) 0.53211(10) 0.22823(6)
N4M N 0.52802(14) 0.55527(10) 0.30396(6)
O1M O 0.47331(16) 0.39274(11) 0.11152(6)
O2M O 0.4019(2) 0.47004(14) 0.10958(8)
Cd1V Cd 0.6250 0.6250 0.322699(6)
Cd1W Cd 0.1250 0.1250 0.322699(6)
N1DA N 0.42774(14) 0.42977(9) 0.02498(6)
N1EA N 0.32226(14) 0.32023(9) 0.02498(6)
N4DA N 0.27802(14) 0.44473(10) 0.05396(6)
N4EA N 0.47198(14) 0.30527(10) 0.05396(6)
loop_
_geom_bond_atom_site_label_1
_geom_bond_atom_site_label_2
_geom_bond_site_symmetry_1
_geom_bond_site_symmetry_2
C1 C2 1_555 1_555
C2 C3 1_555 1_555
C3 H1 1_555 1_555
C4 C3 1_555 1_555
H2 C4 1_555 1_555
C5 C4 1_555 1_555
C6 C5 1_555 1_555
H3 C6 1_555 1_555
C7 C2 1_555 1_555
H4 C7 1_555 1_555
C8 H5 1_555 1_555
C9 C10 1_555 1_555
C10 C11 1_555 1_555
C11 H6 1_555 1_555
C12 C11 1_555 1_555
H7 C12 1_555 1_555
C13 C12 1_555 1_555
H8 C13 1_555 1_555
C14 C13 1_555 1_555
H9 C14 1_555 1_555
Cd1 O1 1_555 1_555
N1 C9 1_555 1_555
N2 C8 1_555 1_555
N3 C5 1_555 1_555
N4 C10 1_555 1_555
O1 C1 1_555 1_555
O2 C1 1_555 1_555
C1M C2M 1_555 1_555
C2M C3M 1_555 1_555
C3M H1M 1_555 1_555
C4M C3M 1_555 1_555
H2M C4M 1_555 1_555
C5M C4M 1_555 1_555
C6M C5M 1_555 1_555
H3M C6M 1_555 1_555
C7M C2M 1_555 1_555
H4M C7M 1_555 1_555
C8M H5M 1_555 1_555
C9M C10M 1_555 1_555
C10M C11M 1_555 1_555
C11M H6M 1_555 1_555
C12M C11M 1_555 1_555
H7M C12M 1_555 1_555
C13M C12M 1_555 1_555
H8M C13M 1_555 1_555
C14M C13M 1_555 1_555
H9M C14M 1_555 1_555
N1M C9M 1_555 1_555
N2M C8M 1_555 1_555
N3M C5M 1_555 1_555
N4M C10M 1_555 1_555
O1M Cd1 1_555 1_555
O2M Cd1 1_555 1_555
Cd1V N1M 1_555 1_555
Cd1W N1 1_555 1_555
N1DA Cd1 1_555 1_555
N1EA Cd1 1_555 1_555
N4DA Cd1 1_555 1_555
N4EA Cd1 1_555 1_555
C6 C7 1_555 1_555
C8 N3 1_555 1_555
C9 N3 1_555 1_555
C14 N4 1_555 1_555
Cd1 O2 1_555 1_555
N1 N2 1_555 1_555
N4 Cd1W 1_555 1_555
C1M O1M 1_555 1_555
C1M O2M 1_555 1_555
C6M C7M 1_555 1_555
C8M N3M 1_555 1_555
C9M N3M 1_555 1_555
C14M N4M 1_555 1_555
N1M N2M 1_555 1_555
N4M Cd1V 1_555 1_555

#END
