
#######################################################################
#
#                 Cambridge Crystallographic Data Centre
#                                CCDC 
#
#######################################################################
#
# If this CIF has been generated from an entry in the Cambridge 
# Structural Database, then it will include bibliographic, chemical, 
# crystal, experimental, refinement or atomic coordinate data resulting 
# from the CCDC's data processing and validation procedures.
#
#######################################################################

data_ZOTWOW
_symmetry_cell_setting           triclinic
_symmetry_space_group_name_H-M   'P -1'
_symmetry_Int_Tables_number      2
_space_group_name_Hall           '-P 1'
loop_
_symmetry_equiv_pos_site_id
_symmetry_equiv_pos_as_xyz
1 x,y,z
2 -x,-y,-z
_cell_length_a                   7.7370(4)
_cell_length_b                   8.7775(5)
_cell_length_c                   11.8091(7)
_cell_angle_alpha                103.284(5)
_cell_angle_beta                 98.966(5)
_cell_angle_gamma                114.334(5)
_cell_volume                     682.202
loop_
_atom_site_label
_atom_site_type_symbol
_atom_site_fract_x
_atom_site_fract_y
_atom_site_fract_z
U1 U 0.17655(7) 0.95870(7) 0.27495(4)
N1 N -0.2438(18) 0.7189(18) -0.0420(12)
C1 C -0.225(2) 0.846(2) 0.0507(13)
C2 C -0.592(2) 0.6114(18) -0.1136(12)
H1 H -0.7139 0.5332 -0.1699
C3 C -0.428(3) 0.461(2) -0.2279(18)
H2 H -0.3932 0.5092 -0.2909
H3 H -0.5584 0.3620 -0.2590
H4 H -0.3350 0.4216 -0.2001
C4 C -0.402(2) 0.858(2) 0.0647(13)
H5 H -0.3926 0.9452 0.1305
O1 O 0.3314(17) 1.1784(16) 0.2889(11)
O2 O -0.0496(14) 0.9533(14) 0.1229(9)
O3 O 0.0206(17) 0.7439(15) 0.2677(12)
O4 O -0.0222(16) 1.0634(17) 0.3750(10)
H6 H 0.0529 1.1594 0.4371
H7 H -0.1003 0.9831 0.4013
C5 C -0.5744(19) 0.747(2) -0.0140(13)
C6 C -0.423(2) 0.597(2) -0.1259(14)
O5 O -0.9091(16) 0.6859(16) -0.0829(11)
O6 O -0.7408(17) 0.8520(16) 0.1064(11)
C7 C -0.754(2) 0.762(2) 0.0057(15)
O7 O 0.4795(14) 0.9394(14) 0.3470(9)
O8 O 0.7102(15) 0.9684(15) 0.5038(9)
C8 C 0.553(2) 0.9748(19) 0.4578(13)
O7A O 0.5205(14) 1.0606(14) 0.6530(9)
C8A C 0.447(2) 1.0252(19) 0.5422(13)
O8A O 0.2898(15) 1.0316(15) 0.4962(9)
U1A U 0.82345(7) 1.04130(7) 0.72505(4)
N1A N 1.2438(18) 1.2811(18) 1.0420(12)
C1A C 1.225(2) 1.154(2) 0.9493(13)
C2A C 1.592(2) 1.3886(18) 1.1136(12)
H1A H 1.7139 1.4668 1.1699
C3A C 1.428(3) 1.539(2) 1.2279(18)
H2A H 1.3932 1.4908 1.2909
H3A H 1.5584 1.6380 1.2590
H4A H 1.3350 1.5784 1.2001
C4A C 1.402(2) 1.142(2) 0.9353(13)
H5A H 1.3926 1.0548 0.8695
O1A O 0.6686(17) 0.8216(16) 0.7111(11)
O2A O 1.0496(14) 1.0467(14) 0.8771(9)
O3A O 0.9794(17) 1.2561(15) 0.7323(12)
O4A O 1.0222(16) 0.9366(17) 0.6250(10)
H6A H 0.9471 0.8406 0.5629
H7A H 1.1003 1.0169 0.5987
C5A C 1.5744(19) 1.253(2) 1.0140(13)
C6A C 1.423(2) 1.403(2) 1.1259(14)
O5A O 1.9091(16) 1.3141(16) 1.0829(11)
O6A O 1.7408(17) 1.1480(16) 0.8936(11)
C7A C 1.754(2) 1.238(2) 0.9943(15)
U1_2 U -0.82345(7) 0.95870(7) 0.27495(4)
U1A_2 U 1.82345(7) 1.04130(7) 0.72505(4)
O6_2 O 0.2592(17) 0.8520(16) 0.1064(11)
O6A_2 O 0.7408(17) 1.1480(16) 0.8936(11)
O9 O 0.724(2) 1.377(3) 0.4831(16)
H8 H 0.6722 1.2985 0.4132
H9 H 0.7236 1.4716 0.4782
O10 O -0.036(2) 1.343(2) 0.3318(13)
H10 H -0.0863 1.3536 0.2668
H11 H -0.0777 1.3815 0.3885
loop_
_geom_bond_atom_site_label_1
_geom_bond_atom_site_label_2
_geom_bond_site_symmetry_1
_geom_bond_site_symmetry_2
U1 O1 1_555 1_555
N1 C1 1_555 1_555
C1 C4 1_555 1_555
C2 H1 1_555 1_555
C3 H2 1_555 1_555
H3 C3 1_555 1_555
H4 C3 1_555 1_555
C4 H5 1_555 1_555
O2 U1 1_555 1_555
O3 U1 1_555 1_555
O4 U1 1_555 1_555
H6 O4 1_555 1_555
H7 O4 1_555 1_555
C5 C2 1_555 1_555
C6 N1 1_555 1_555
O5 C7 1_555 1_555
O6 C7 1_555 1_555
C7 C5 1_555 1_555
O7 U1 1_555 1_555
O8 C8 1_555 1_555
C8 O7 1_555 1_555
O9 H8 1_555 1_555
H9 O9 1_555 1_555
O10 H10 1_555 1_555
H11 O10 1_555 1_555
O7A C8A 1_555 1_555
C8A C8 1_555 1_555
O8A U1 1_555 1_555
U1A O8 1_555 1_555
N1A C1A 1_555 1_555
C1A C4A 1_555 1_555
C2A H1A 1_555 1_555
C3A H2A 1_555 1_555
H3A C3A 1_555 1_555
H4A C3A 1_555 1_555
C4A H5A 1_555 1_555
O1A U1A 1_555 1_555
O2A U1A 1_555 1_555
O3A U1A 1_555 1_555
O4A U1A 1_555 1_555
H6A O4A 1_555 1_555
H7A O4A 1_555 1_555
C5A C2A 1_555 1_555
C6A N1A 1_555 1_555
O5A C7A 1_555 1_555
O6A C7A 1_555 1_555
C7A C5A 1_555 1_555
U1_2 O6 1_555 1_555
U1A_2 O6A 1_555 1_555
O6_2 U1 1_555 1_555
O6A_2 U1A 1_555 1_555
C1 O2 1_555 1_555
C2 C6 1_555 1_555
C3 C6 1_555 1_555
C4 C5 1_555 1_555
O7A U1A 1_555 1_555
C8A O8A 1_555 1_555
C1A O2A 1_555 1_555
C2A C6A 1_555 1_555
C3A C6A 1_555 1_555
C4A C5A 1_555 1_555

#END
