
#######################################################################
#
#                 Cambridge Crystallographic Data Centre
#                                CCDC 
#
#######################################################################
#
# If this CIF has been generated from an entry in the Cambridge 
# Structural Database, then it will include bibliographic, chemical, 
# crystal, experimental, refinement or atomic coordinate data resulting 
# from the CCDC's data processing and validation procedures.
#
#######################################################################

data_ZOTWIQ
_symmetry_cell_setting           monoclinic
_symmetry_space_group_name_H-M   'P 21/c'
_symmetry_Int_Tables_number      14
_space_group_name_Hall           '-P 2ybc'
loop_
_symmetry_equiv_pos_site_id
_symmetry_equiv_pos_as_xyz
1 x,y,z
2 -x,1/2+y,1/2-z
3 -x,-y,-z
4 x,1/2-y,1/2+z
_cell_length_a                   10.1711(3)
_cell_length_b                   14.2894(3)
_cell_length_c                   10.2360(3)
_cell_angle_alpha                90
_cell_angle_beta                 113.250(3)
_cell_angle_gamma                90
_cell_volume                     1366.88
loop_
_atom_site_label
_atom_site_type_symbol
_atom_site_fract_x
_atom_site_fract_y
_atom_site_fract_z
U1 U 0.77288(2) 0.124087(18) 0.71921(3)
C1 C 0.8090(7) -0.0776(5) 0.5422(7)
N1 N 0.6953(6) -0.1300(4) 0.5376(7)
H1 H 0.6366 -0.1058 0.5698
C2 C 0.9678(7) -0.2478(5) 0.3570(7)
C3 C 0.8720(6) -0.2068(5) 0.4246(7)
C4 C 0.8967(7) -0.1190(5) 0.4811(8)
H2 H 0.9742 -0.0853 0.4792
O1 O 0.8290(5) 0.0022(4) 0.5979(6)
C5 C 0.6699(7) -0.2181(5) 0.4849(8)
H3 H 0.5924 -0.2513 0.4876
C6 C 0.7567(7) -0.2588(5) 0.4281(8)
H4 H 0.7397 -0.3195 0.3925
O2 O 0.6350(6) 0.1609(4) 0.5580(6)
O3 O 0.9048(6) 0.0868(4) 0.8805(6)
C7 C 0.4238(7) -0.0125(5) 0.7922(7)
C8 C 0.3389(7) 0.0368(5) 0.8503(8)
H5 H 0.3643 0.0967 0.8872
C9 C 0.5529(7) 0.0338(5) 0.7819(8)
O4 O 0.5850(6) 0.1155(3) 0.8214(6)
O5 O 0.9487(5) -0.3282(4) 0.3156(5)
O6 O 0.6207(5) -0.0118(4) 0.7219(6)
C10 C 0.2195(7) -0.0053(5) 0.8510(8)
H6 H 0.1599 0.0268 0.8848
N2 N 0.1873(6) -0.0936(5) 0.8026(7)
H7 H 0.1128 -0.1189 0.8078
C11 C 0.3887(7) -0.1019(5) 0.7446(7)
H8 H 0.4477 -0.1345 0.7106
C12 C 0.2650(7) -0.1463(6) 0.7456(8)
O7 O 1.0589(6) -0.1912(4) 0.3465(6)
O8 O 0.2226(5) -0.2258(3) 0.6969(5)
U1A U 0.22712(2) -0.375913(18) 0.78079(3)
U1B U 1.22712(2) -0.124087(18) 0.28079(3)
O7B O 0.9411(6) 0.1912(4) 0.6535(6)
O8A O 0.7774(5) 0.2742(3) 0.8031(5)
loop_
_geom_bond_atom_site_label_1
_geom_bond_atom_site_label_2
_geom_bond_site_symmetry_1
_geom_bond_site_symmetry_2
U1 O1 1_555 1_555
C1 N1 1_555 1_555
N1 H1 1_555 1_555
C2 C3 1_555 1_555
C3 C4 1_555 1_555
C4 C1 1_555 1_555
H2 C4 1_555 1_555
O1 C1 1_555 1_555
C5 N1 1_555 1_555
H3 C5 1_555 1_555
C6 C3 1_555 1_555
H4 C6 1_555 1_555
O2 U1 1_555 1_555
O3 U1 1_555 1_555
C7 C8 1_555 1_555
C8 H5 1_555 1_555
C9 C7 1_555 1_555
O4 U1 1_555 1_555
O5 C2 1_555 1_555
O6 U1 1_555 1_555
C10 C8 1_555 1_555
H6 C10 1_555 1_555
N2 C10 1_555 1_555
H7 N2 1_555 1_555
C11 C7 1_555 1_555
H8 C11 1_555 1_555
C12 N2 1_555 1_555
O7 C2 1_555 1_555
O8 C12 1_555 1_555
U1A O8 1_555 1_555
U1B O7 1_555 1_555
O7B U1 1_555 1_555
O8A U1 1_555 1_555
C5 C6 1_555 1_555
C9 O4 1_555 1_555
C9 O6 1_555 1_555
C11 C12 1_555 1_555

#END
