
#######################################################################
#
#                 Cambridge Crystallographic Data Centre
#                                CCDC 
#
#######################################################################
#
# If this CIF has been generated from an entry in the Cambridge 
# Structural Database, then it will include bibliographic, chemical, 
# crystal, experimental, refinement or atomic coordinate data resulting 
# from the CCDC's data processing and validation procedures.
#
#######################################################################

data_ZOVQOS
_symmetry_cell_setting           triclinic
_symmetry_space_group_name_H-M   'P -1'
_symmetry_Int_Tables_number      2
_space_group_name_Hall           '-P 1'
loop_
_symmetry_equiv_pos_site_id
_symmetry_equiv_pos_as_xyz
1 x,y,z
2 -x,-y,-z
_cell_length_a                   15.4790(11)
_cell_length_b                   15.4787(11)
_cell_length_c                   15.9311(12)
_cell_angle_alpha                99.278(15)
_cell_angle_beta                 116.035(14)
_cell_angle_gamma                98.777(14)
_cell_volume                     3275.69
loop_
_atom_site_label
_atom_site_type_symbol
_atom_site_fract_x
_atom_site_fract_y
_atom_site_fract_z
Co1 Co -0.22278(4) 0.56849(4) 0.75911(4)
O1 O -0.1443(2) 0.51467(18) 0.8717(2)
O2 O -0.2471(2) 0.41787(18) 0.7319(2)
O3 O 0.6483(2) 0.5824(2) 0.6458(2)
O4 O 0.6444(2) 0.5612(2) 0.7777(2)
N1 N -0.1347(2) 0.5753(2) 0.6921(2)
N2 N -0.1742(3) -0.2940(2) 0.8333(3)
N3 N 0.0090(2) 0.6406(2) 0.4744(3)
C1 C -0.1723(3) 0.3570(3) 0.8679(3)
C2 C 0.4969(3) 0.5851(3) 0.6550(3)
C3 C 0.0599(3) 0.6572(3) 0.4272(3)
C4 C 0.3050(3) 0.6075(3) 0.5824(3)
C5 C 0.0495(3) 0.6124(3) 0.5544(3)
C6 C -0.1658(3) 0.5970(3) 0.6072(3)
H1 H -0.2295 0.6057 0.5776
C7 C -0.1897(3) 0.4331(3) 0.8198(4)
C8 C -0.1089(3) 0.6073(3) 0.5611(3)
H2 H -0.1353 0.6212 0.5016
C9 C -0.1008(3) 0.3723(3) 0.9627(3)
H3 H -0.0628 0.4307 0.9981
C10 C 0.6036(3) 0.5758(3) 0.6955(4)
C11 C 0.0206(3) 0.5748(3) 0.6905(3)
H4 H 0.0848 0.5679 0.7223
C12 C 0.0107(4) 0.6881(3) 0.3394(4)
C13 C -0.0124(3) 0.5968(3) 0.6028(3)
C14 C -0.0417(3) 0.5631(3) 0.7309(3)
H5 H -0.0182 0.5456 0.7885
C15 C -0.1231(3) 0.1362(3) 0.9992(3)
N4 N -0.0934(3) -0.0097(2) 1.0819(3)
C16 C 0.4462(3) 0.5885(3) 0.5621(3)
H6 H 0.4764 0.5839 0.5229
C17 C -0.1402(3) 0.2124(3) 0.9533(3)
C18 C 0.2013(3) 0.6188(3) 0.5450(3)
C19 C 0.1455(3) 0.6005(3) 0.5914(3)
H7 H 0.1723 0.5803 0.6472
C20 C -0.1363(3) -0.1134(3) 0.9341(3)
C21 C -0.2280(3) 0.2695(3) 0.8140(4)
H8 H -0.2753 0.2586 0.7496
C22 C 0.1562(3) 0.6474(3) 0.4622(3)
H9 H 0.1911 0.6605 0.4290
C23 C -0.1340(3) 0.0515(3) 0.9455(3)
H10 H -0.1505 0.0429 0.8806
C24 C -0.1300(3) -0.1831(3) 0.9792(3)
H11 H -0.1124 -0.1712 1.0446
C25 C -0.0851(3) 0.3013(3) 1.0054(3)
H12 H -0.0373 0.3127 1.0697
C26 C 0.3498(3) 0.5988(3) 0.5244(4)
H13 H 0.3155 0.5999 0.4600
C27 C -0.1505(3) -0.2722(3) 0.9258(3)
H14 H -0.1473 -0.3183 0.9572
C28 C -0.1204(3) -0.0199(3) 0.9875(3)
C29 C -0.2117(4) 0.1982(3) 0.8580(3)
H15 H -0.2498 0.1397 0.8224
C30 C -0.1788(4) -0.2258(3) 0.7901(3)
H16 H -0.1944 -0.2390 0.7253
C31 C 0.3588(4) 0.6036(4) 0.6771(4)
H17 H 0.3300 0.6093 0.7174
C32 C 0.0424(4) 0.6905(4) 0.2733(4)
H18 H 0.0983 0.6704 0.2806
C33 C -0.0952(4) 0.1455(3) 1.0958(4)
H19 H -0.0868 0.2011 1.1348
C34 C -0.0799(5) 0.0724(3) 1.1347(4)
C35 C -0.1615(4) -0.1374(3) 0.8373(4)
H20 H -0.1668 -0.0930 0.8036
C36 C 0.4524(3) 0.5917(4) 0.7132(4)
H21 H 0.4862 0.5882 0.7768
N5 N -0.0891(4) 0.7505(5) 0.1747(4)
C37 C -0.0086(5) 0.7229(5) 0.1945(5)
H22 H 0.0169 0.7253 0.1516
C38 C -0.0734(4) 0.7179(4) 0.3211(4)
H23 H -0.0992 0.7180 0.3639
C39 C -0.0495(6) 0.0789(4) 1.2378(4)
C40 C -0.1192(5) 0.7476(5) 0.2396(5)
H24 H -0.1761 0.7671 0.2296
C41 C -0.0148(6) 0.1579(5) 1.3051(5)
H25 H -0.0096 0.2121 1.2876
N6 N 0.0024(8) 0.0881(5) 1.4335(5)
C42 C -0.0541(7) 0.0037(5) 1.2693(5)
H26 H -0.0737 -0.0526 1.2264
C43 C -0.0298(8) 0.0092(6) 1.3664(6)
H27 H -0.0362 -0.0443 1.3850
C44 C 0.0137(8) 0.1586(5) 1.4019(6)
H28 H 0.0431 0.2145 1.4471
Co1_2 Co -0.22278(4) -0.43151(4) 0.75911(4)
Co1_3 Co 0.77722(4) 0.56849(4) 0.75911(4)
O3_2 O -0.3517(2) 0.5824(2) 0.6458(2)
O4_2 O -0.3556(2) 0.5612(2) 0.7777(2)
N2_2 N -0.1742(3) 0.7060(2) 0.8333(3)
loop_
_geom_bond_atom_site_label_1
_geom_bond_atom_site_label_2
_geom_bond_site_symmetry_1
_geom_bond_site_symmetry_2
Co1 O1 1_555 1_555
O1 C7 1_555 1_555
O2 Co1 1_555 1_555
O3 C10 1_555 1_555
O4 C10 1_555 1_555
N1 Co1 1_555 1_555
N2 C27 1_555 1_555
N3 C3 1_555 1_555
C1 C7 1_555 1_555
C2 C10 1_555 1_555
C3 C12 1_555 1_555
C4 C18 1_555 1_555
C5 N3 1_555 1_555
C6 N1 1_555 1_555
H1 C6 1_555 1_555
C7 O2 1_555 1_555
C8 C6 1_555 1_555
H2 C8 1_555 1_555
C9 C1 1_555 1_555
H3 C9 1_555 1_555
C11 H4 1_555 1_555
C12 C32 1_555 1_555
C13 C5 1_555 1_555
C14 N1 1_555 1_555
H5 C14 1_555 1_555
C15 C17 1_555 1_555
N4 C28 1_555 1_555
C16 C2 1_555 1_555
H6 C16 1_555 1_555
C17 C25 1_555 1_555
C18 C19 1_555 1_555
C19 C5 1_555 1_555
H7 C19 1_555 1_555
C20 C24 1_555 1_555
C21 C1 1_555 1_555
H8 C21 1_555 1_555
C22 C3 1_555 1_555
H9 C22 1_555 1_555
C23 C15 1_555 1_555
H10 C23 1_555 1_555
C24 H11 1_555 1_555
C25 C9 1_555 1_555
H12 C25 1_555 1_555
C26 C4 1_555 1_555
H13 C26 1_555 1_555
C27 C24 1_555 1_555
H14 C27 1_555 1_555
C28 C20 1_555 1_555
C29 C17 1_555 1_555
H15 C29 1_555 1_555
C30 N2 1_555 1_555
H16 C30 1_555 1_555
C31 C4 1_555 1_555
H17 C31 1_555 1_555
C32 H18 1_555 1_555
C33 C15 1_555 1_555
H19 C33 1_555 1_555
C34 N4 1_555 1_555
C35 C20 1_555 1_555
H20 C35 1_555 1_555
C36 C2 1_555 1_555
H21 C36 1_555 1_555
N5 C37 1_555 1_555
C37 C32 1_555 1_555
H22 C37 1_555 1_555
C38 C12 1_555 1_555
H23 C38 1_555 1_555
C39 C34 1_555 1_555
C40 N5 1_555 1_555
H24 C40 1_555 1_555
C41 C39 1_555 1_555
H25 C41 1_555 1_555
N6 C43 1_555 1_555
C42 C39 1_555 1_555
H26 C42 1_555 1_555
C43 C42 1_555 1_555
H27 C43 1_555 1_555
C44 C41 1_555 1_555
H28 C44 1_555 1_555
Co1_2 N2 1_555 1_555
Co1_3 O3 1_555 1_555
O3_2 Co1 1_555 1_555
O4_2 Co1 1_555 1_555
N2_2 Co1 1_555 1_555
O4 Co1_3 1_555 1_555
C8 C13 1_555 1_555
C11 C13 1_555 1_555
C11 C14 1_555 1_555
C16 C26 1_555 1_555
C18 C22 1_555 1_555
C21 C29 1_555 1_555
C23 C28 1_555 1_555
C30 C35 1_555 1_555
C31 C36 1_555 1_555
C33 C34 1_555 1_555
C38 C40 1_555 1_555
N6 C44 1_555 1_555

#END
