
#######################################################################
#
#                 Cambridge Crystallographic Data Centre
#                                CCDC 
#
#######################################################################
#
# If this CIF has been generated from an entry in the Cambridge 
# Structural Database, then it will include bibliographic, chemical, 
# crystal, experimental, refinement or atomic coordinate data resulting 
# from the CCDC's data processing and validation procedures.
#
#######################################################################

data_ZOWQIL
_symmetry_cell_setting           triclinic
_symmetry_space_group_name_H-M   'P -1'
_symmetry_Int_Tables_number      2
_space_group_name_Hall           '-P 1'
loop_
_symmetry_equiv_pos_site_id
_symmetry_equiv_pos_as_xyz
1 x,y,z
2 -x,-y,-z
_cell_length_a                   7.1591(8)
_cell_length_b                   11.558(1)
_cell_length_c                   14.972(2)
_cell_angle_alpha                102.23(1)
_cell_angle_beta                 103.13(1)
_cell_angle_gamma                107.28(1)
_cell_volume                     1098.82
loop_
_atom_site_label
_atom_site_type_symbol
_atom_site_fract_x
_atom_site_fract_y
_atom_site_fract_z
Pb1 Pb 0.2350(1) 0.0608(1) 0.4436(1)
O1 O 0.4044(6) 0.1845(4) 0.6324(3)
O2 O 0.2511(6) -0.1165(4) 0.3051(3)
O3 O -0.0527(6) -0.1117(4) 0.3081(3)
O4 O -0.2542(7) -0.3273(4) 0.1558(3)
O5 O 0.6418(6) 0.1209(4) 0.4701(3)
O6 O 0.0735(5) -0.0877(3) 0.5179(3)
O7 O 1.0524(5) 0.2242(3) 0.3809(3)
C1 C 0.0639(11) -0.1662(6) 0.2785(5)
C2 C -0.0424(10) -0.3015(6) 0.2059(5)
C3 C -0.3067(13) -0.2614(8) 0.0924(5)
C4 C -0.5084(14) -0.3195(8) 0.0320(6)
C5 C -0.5853(20) -0.2569(12) -0.0302(9)
C6 C -0.4624(25) -0.1432(12) -0.0336(9)
C7 C -0.2625(19) -0.0900(9) 0.0252(6)
C8 C -0.1781(15) -0.1476(8) 0.0878(5)
C9 C -0.0566(11) -0.3902(6) 0.2692(5)
C10 C 0.0748(10) -0.3305(6) 0.1384(5)
C11 C 0.7991(8) 0.1341(5) 0.4505(4)
C12 C 0.8430(8) 0.2097(6) 0.3794(5)
C13 C 1.1477(9) 0.2980(6) 0.3307(5)
C14 C 1.2765(10) 0.4198(7) 0.3779(5)
C15 C 1.3881(13) 0.4924(8) 0.3302(8)
C16 C 1.3625(15) 0.4420(10) 0.2375(8)
C17 C 1.2348(14) 0.3205(10) 0.1892(7)
C18 C 1.1287(11) 0.2473(7) 0.2366(6)
C19 C 0.6932(10) 0.1277(7) 0.2786(5)
C20 C 0.8212(10) 0.3381(5) 0.4120(6)
H1 H 0.3076(84) 0.1726(52) 0.6599(43)
H2 H 0.5235(81) 0.1704(49) 0.6642(39)
H3 H -0.5905 -0.4009 0.0339
H4 H -0.7247 -0.2955 -0.0722
H5 H -0.5180 -0.1003 -0.0749
H6 H -0.1780 -0.0105 0.0214
H7 H -0.0368 -0.1110 0.1275
H8 H 0.0790 -0.3803 0.3059
H9 H -0.1285 -0.4769 0.2297
H10 H -0.1305 -0.3684 0.3121
H11 H 0.2147 -0.3136 0.1740
H12 H 0.0728 -0.2775 0.0970
H13 H 0.0110 -0.4181 0.1003
H14 H 1.2905 0.4549 0.4442
H15 H 1.4827 0.5777 0.3636
H16 H 1.4339 0.4922 0.2036
H17 H 1.2176 0.2850 0.1225
H18 H 1.0413 0.1601 0.2044
H19 H 0.5543 0.1183 0.2765
H20 H 0.7279 0.1662 0.2308
H21 H 0.7053 0.0457 0.2659
H22 H 0.6814 0.3264 0.4096
H23 H 0.9097 0.3801 0.4770
H24 H 0.8615 0.3891 0.3718
O6A O 0.9265(5) 0.0877(3) 0.4821(3)
Pb1A Pb 0.7650(1) -0.0608(1) 0.5564(1)
O1A O 0.5956(6) -0.1845(4) 0.3676(3)
H1A H 0.6924(84) -0.1726(52) 0.3401(43)
H2A H 0.4765(81) -0.1704(49) 0.3358(39)
O2A O 0.7489(6) 0.1165(4) 0.6949(3)
C1A C 0.9361(11) 0.1662(6) 0.7215(5)
O3A O 1.0527(6) 0.1117(4) 0.6919(3)
O5A O 0.3582(6) -0.1209(4) 0.5299(3)
C11A C 0.2009(8) -0.1341(5) 0.5495(4)
O6A_2 O -0.0735(5) 0.0877(3) 0.4821(3)
Pb1A_2 Pb -0.2350(1) -0.0608(1) 0.5564(1)
C12A C 0.1570(8) -0.2097(6) 0.6206(5)
O7A O -0.0524(5) -0.2242(3) 0.6191(3)
C13A C -0.1477(9) -0.2980(6) 0.6693(5)
C14A C -0.2765(10) -0.4198(7) 0.6221(5)
C15A C -0.3881(13) -0.4924(8) 0.6698(8)
C16A C -0.3625(15) -0.4420(10) 0.7625(8)
C17A C -0.2348(14) -0.3205(10) 0.8108(7)
C18A C -0.1287(11) -0.2473(7) 0.7634(6)
H18A H -0.0413 -0.1601 0.7956
H17A H -0.2176 -0.2850 0.8775
H16A H -0.4339 -0.4922 0.7964
H15A H -0.4827 -0.5777 0.6364
H14A H -0.2905 -0.4549 0.5558
C19A C 0.3068(10) -0.1277(7) 0.7214(5)
H19A H 0.4457 -0.1183 0.7235
H20A H 0.2721 -0.1662 0.7692
H21A H 0.2947 -0.0457 0.7341
C20A C 0.1788(10) -0.3381(5) 0.5880(6)
H22A H 0.3186 -0.3264 0.5904
H23A H 0.0903 -0.3801 0.5230
H24A H 0.1385 -0.3891 0.6282
O6_2 O 1.0735(5) -0.0877(3) 0.5179(3)
Pb1_2 Pb 1.2350(1) 0.0608(1) 0.4436(1)
C2A C 1.0424(10) 0.3015(6) 0.7941(5)
O4A O 1.2542(7) 0.3273(4) 0.8442(3)
C3A C 1.3067(13) 0.2614(8) 0.9076(5)
C4A C 1.5084(14) 0.3195(8) 0.9680(6)
C5A C 1.5853(20) 0.2569(12) 1.0302(9)
C6A C 1.4624(25) 0.1432(12) 1.0336(9)
C7A C 1.2625(19) 0.0900(9) 0.9748(6)
C8A C 1.1781(15) 0.1476(8) 0.9122(5)
H7A H 1.0368 0.1110 0.8725
H6A H 1.1780 0.0105 0.9786
H5A H 1.5180 0.1003 1.0749
H4A H 1.7247 0.2955 1.0722
H3A H 1.5905 0.4009 0.9661
C9A C 1.0566(11) 0.3902(6) 0.7308(5)
H8A H 0.9210 0.3803 0.6941
H9A H 1.1285 0.4769 0.7703
H10A H 1.1305 0.3684 0.6879
C10A C 0.9252(10) 0.3305(6) 0.8616(5)
H11A H 0.7853 0.3136 0.8260
H12A H 0.9272 0.2775 0.9030
H13A H 0.9890 0.4181 0.8997
loop_
_geom_bond_atom_site_label_1
_geom_bond_atom_site_label_2
_geom_bond_site_symmetry_1
_geom_bond_site_symmetry_2
Pb1 O1 1_555 1_555
O1 H1 1_555 1_555
O2 Pb1 1_555 1_555
O3 Pb1 1_555 1_555
O4 C2 1_555 1_555
O5 Pb1 1_555 1_555
O6 Pb1 1_555 1_555
O7 C12 1_555 1_555
C1 O2 1_555 1_555
C2 C1 1_555 1_555
C3 O4 1_555 1_555
C4 C3 1_555 1_555
C5 C4 1_555 1_555
C6 C5 1_555 1_555
C7 C6 1_555 1_555
C8 C3 1_555 1_555
C9 C2 1_555 1_555
C10 C2 1_555 1_555
C11 O5 1_555 1_555
C12 C11 1_555 1_555
C13 O7 1_555 1_555
C14 C13 1_555 1_555
C15 C14 1_555 1_555
C16 C15 1_555 1_555
C17 C16 1_555 1_555
C18 C13 1_555 1_555
C19 C12 1_555 1_555
C20 C12 1_555 1_555
H2 O1 1_555 1_555
H3 C4 1_555 1_555
H4 C5 1_555 1_555
H5 C6 1_555 1_555
H6 C7 1_555 1_555
H7 C8 1_555 1_555
H8 C9 1_555 1_555
H9 C9 1_555 1_555
H10 C9 1_555 1_555
H11 C10 1_555 1_555
H12 C10 1_555 1_555
H13 C10 1_555 1_555
H14 C14 1_555 1_555
H15 C15 1_555 1_555
H16 C16 1_555 1_555
H17 C17 1_555 1_555
H18 C18 1_555 1_555
H19 C19 1_555 1_555
H20 C19 1_555 1_555
H21 C19 1_555 1_555
H22 C20 1_555 1_555
H23 C20 1_555 1_555
H24 C20 1_555 1_555
O6A C11 1_555 1_555
Pb1A O6A 1_555 1_555
O1A Pb1A 1_555 1_555
H1A O1A 1_555 1_555
H2A O1A 1_555 1_555
O2A Pb1A 1_555 1_555
C1A O2A 1_555 1_555
O3A Pb1A 1_555 1_555
O5A Pb1A 1_555 1_555
C11A O6 1_555 1_555
O6A_2 Pb1 1_555 1_555
Pb1A_2 O6 1_555 1_555
C12A C11A 1_555 1_555
O7A C12A 1_555 1_555
C13A O7A 1_555 1_555
C14A C13A 1_555 1_555
C15A C14A 1_555 1_555
C16A C15A 1_555 1_555
C17A C16A 1_555 1_555
C18A C13A 1_555 1_555
H18A C18A 1_555 1_555
H17A C17A 1_555 1_555
H16A C16A 1_555 1_555
H15A C15A 1_555 1_555
H14A C14A 1_555 1_555
C19A C12A 1_555 1_555
H19A C19A 1_555 1_555
H20A C19A 1_555 1_555
H21A C19A 1_555 1_555
C20A C12A 1_555 1_555
H22A C20A 1_555 1_555
H23A C20A 1_555 1_555
H24A C20A 1_555 1_555
O6_2 Pb1A 1_555 1_555
Pb1_2 O6A 1_555 1_555
C2A C1A 1_555 1_555
O4A C2A 1_555 1_555
C3A O4A 1_555 1_555
C4A C3A 1_555 1_555
C5A C4A 1_555 1_555
C6A C5A 1_555 1_555
C7A C6A 1_555 1_555
C8A C3A 1_555 1_555
H7A C8A 1_555 1_555
H6A C7A 1_555 1_555
H5A C6A 1_555 1_555
H4A C5A 1_555 1_555
H3A C4A 1_555 1_555
C9A C2A 1_555 1_555
H8A C9A 1_555 1_555
H9A C9A 1_555 1_555
H10A C9A 1_555 1_555
C10A C2A 1_555 1_555
H11A C10A 1_555 1_555
H12A C10A 1_555 1_555
H13A C10A 1_555 1_555
O3 C1 1_555 1_555
C7 C8 1_555 1_555
C17 C18 1_555 1_555
C1A O3A 1_555 1_555
O5A C11A 1_555 1_555
O6A_2 Pb1A_2 1_555 1_555
C17A C18A 1_555 1_555
O6_2 Pb1_2 1_555 1_555
C7A C8A 1_555 1_555

#END
