
#######################################################################
#
#                 Cambridge Crystallographic Data Centre
#                                CCDC 
#
#######################################################################
#
# If this CIF has been generated from an entry in the Cambridge 
# Structural Database, then it will include bibliographic, chemical, 
# crystal, experimental, refinement or atomic coordinate data resulting 
# from the CCDC's data processing and validation procedures.
#
#######################################################################

data_ZOXFEZ
_symmetry_cell_setting           orthorhombic
_symmetry_space_group_name_H-M   'P b c a'
_symmetry_Int_Tables_number      61
_space_group_name_Hall           '-P 2ac 2ab'
loop_
_symmetry_equiv_pos_site_id
_symmetry_equiv_pos_as_xyz
1 x,y,z
2 1/2-x,-y,1/2+z
3 -x,1/2+y,1/2-z
4 1/2+x,1/2-y,-z
5 -x,-y,-z
6 1/2+x,y,1/2-z
7 x,1/2-y,1/2+z
8 1/2-x,1/2+y,z
_cell_length_a                   17.573(7)
_cell_length_b                   16.528(7)
_cell_length_c                   17.595(8)
_cell_angle_alpha                90
_cell_angle_beta                 90
_cell_angle_gamma                90
_cell_volume                     5110.41
loop_
_atom_site_label
_atom_site_type_symbol
_atom_site_fract_x
_atom_site_fract_y
_atom_site_fract_z
Cd1 Cd 0.0000 1.0000 0.5000
N1 N 0.3346(3) 0.6655(3) 0.3879(3)
N2 N 0.1658(3) 0.5893(3) 0.1794(3)
N3 N 0.1101(3) 0.8255(3) 0.3354(3)
C1 C 0.2670(3) 0.6789(4) 0.3443(3)
C2 C 0.1589(4) 0.7576(4) 0.3169(3)
C3 C 0.2231(4) 0.7446(4) 0.3605(3)
H1 H 0.2359 0.7796 0.3998
N4 N 0.0492(3) 0.9171(3) 0.4020(3)
C4 C 0.0925(3) 0.8528(4) 0.4046(3)
H2 H 0.1091 0.8289 0.4494
C5 C 0.1846(4) 0.6417(4) 0.2414(3)
C6 C 0.1394(4) 0.7080(4) 0.2569(4)
H3 H 0.0967 0.7190 0.2274
C7 C 0.2497(4) 0.6268(4) 0.2837(4)
H4 H 0.2811 0.5832 0.2722
C8 C 0.1035(4) 0.5919(4) 0.1367(3)
H5 H 0.0644 0.6289 0.1442
C9 C 0.3644(4) 0.5939(3) 0.4084(3)
H6 H 0.3438 0.5439 0.3959
C10 C 0.0772(5) 0.8772(5) 0.2843(4)
H7 H 0.0801 0.8743 0.2316
C11 C 0.3828(4) 0.7248(4) 0.4155(4)
H8 H 0.3772 0.7804 0.4098
C12 C 0.0393(4) 0.9333(4) 0.3258(4)
H9 H 0.0111 0.9760 0.3060
C13 C 0.2089(5) 0.5266(6) 0.1509(5)
H10 H 0.2560 0.5093 0.1686
N5 N 0.1026(3) 0.5370(3) 0.0830(3)
C14 C 0.1694(5) 0.4957(5) 0.0930(5)
H11 H 0.1851 0.4520 0.0635
N6 N 0.4272(3) 0.6043(3) 0.4488(3)
C15 C 0.4388(4) 0.6866(4) 0.4518(4)
H12 H 0.4796 0.7118 0.4756
N1D N -0.3346(3) 1.3345(3) 0.6121(3)
N2D N -0.1658(3) 1.4107(3) 0.8206(3)
N3D N -0.1101(3) 1.1745(3) 0.6646(3)
C1D C -0.2670(3) 1.3211(4) 0.6557(3)
C2D C -0.1589(4) 1.2424(4) 0.6831(3)
C3D C -0.2231(4) 1.2554(4) 0.6395(3)
H1D H -0.2359 1.2204 0.6002
N4D N -0.0492(3) 1.0829(3) 0.5980(3)
C4D C -0.0925(3) 1.1472(4) 0.5954(3)
H2D H -0.1091 1.1711 0.5506
C5D C -0.1846(4) 1.3583(4) 0.7586(3)
C6D C -0.1394(4) 1.2920(4) 0.7431(4)
H3D H -0.0967 1.2810 0.7726
C7D C -0.2497(4) 1.3732(4) 0.7163(4)
H4D H -0.2811 1.4168 0.7278
C8D C -0.1035(4) 1.4081(4) 0.8633(3)
H5D H -0.0644 1.3711 0.8558
C9D C -0.3644(4) 1.4061(3) 0.5916(3)
H6D H -0.3438 1.4561 0.6041
C10D C -0.0772(5) 1.1228(5) 0.7157(4)
H7D H -0.0801 1.1257 0.7684
C11D C -0.3828(4) 1.2752(4) 0.5845(4)
H8D H -0.3772 1.2196 0.5902
C12D C -0.0393(4) 1.0667(4) 0.6742(4)
H9D H -0.0111 1.0240 0.6940
C13D C -0.2089(5) 1.4734(6) 0.8491(5)
H10D H -0.2560 1.4907 0.8314
N5D N -0.1026(3) 1.4630(3) 0.9170(3)
C14D C -0.1694(5) 1.5043(5) 0.9070(5)
H11D H -0.1851 1.5480 0.9365
N6D N -0.4272(3) 1.3957(3) 0.5512(3)
C15D C -0.4388(4) 1.3134(4) 0.5482(4)
H12D H -0.4796 1.2882 0.5244
Cd1B Cd 0.0000 0.5000 0.0000
Cd1B_2 Cd 0.0000 1.5000 1.0000
Cd1C Cd -0.5000 1.5000 0.5000
Cd1C_2 Cd 0.5000 0.5000 0.5000
N5B N -0.1026(3) 1.0370(3) 0.4170(3)
N5F N 0.1026(3) 0.9630(3) 0.5830(3)
N6C N -0.0728(3) 0.8957(3) 0.5512(3)
N6G N 0.0728(3) 1.1043(3) 0.4488(3)
O1 O 0.2511(7) 0.4423(7) 0.3823(8)
N7 N 0.1163(8) 0.4559(8) 0.3645(11)
C16 C 0.1201(13) 0.4095(13) 0.2914(12)
H13 H 0.1440 0.3582 0.3002
H14 H 0.1492 0.4396 0.2549
H15 H 0.0695 0.4011 0.2723
C17 C 0.0465(10) 0.4982(13) 0.3909(17)
H16 H 0.0464 0.5011 0.4454
H17 H 0.0022 0.4695 0.3737
H18 H 0.0451 0.5517 0.3699
C18 C 0.1900(8) 0.4624(10) 0.4093(11)
H19 H 0.1884 0.4823 0.4587
Cl1 Cl 0.1353(5) 0.6628(6) 0.5475(4)
O2 O 0.0846(9) 0.6624(10) 0.4846(7)
O3 O 0.2099(7) 0.6461(11) 0.5138(9)
O4 O 0.1390(12) 0.7428(8) 0.5765(11)
O5 O 0.1263(12) 0.6006(10) 0.6012(9)
O10 O 0.0351(9) 0.1330(9) 0.2510(9)
N8 N 0.1112(9) 0.1764(12) 0.1403(9)
C19 C 0.1223(13) 0.2617(12) 0.1640(13)
H20 H 0.1686 0.2821 0.1423
H21 H 0.1251 0.2646 0.2184
H22 H 0.0802 0.2938 0.1465
C20 C 0.1396(14) 0.1436(15) 0.0665(11)
H23 H 0.1665 0.1852 0.0396
H24 H 0.0973 0.1256 0.0364
H25 H 0.1732 0.0989 0.0760
C21 C 0.0691(13) 0.1195(13) 0.1929(11)
H26 H 0.0695 0.0655 0.1780
Cl2? Cl 0.1537(8) 0.6718(8) 0.5702(7)
O6? O 0.1808(14) 0.7498(10) 0.5480(12)
O7? O 0.1567(18) 0.6153(14) 0.5096(13)
O8? O 0.1981(13) 0.6461(15) 0.6336(11)
O9? O 0.0766(9) 0.6805(14) 0.5962(13)
loop_
_geom_bond_atom_site_label_1
_geom_bond_atom_site_label_2
_geom_bond_site_symmetry_1
_geom_bond_site_symmetry_2
Cd1 N4 1_555 1_555
N1 C1 1_555 1_555
N2 C5 1_555 1_555
N3 C2 1_555 1_555
C1 C3 1_555 1_555
C2 C3 1_555 1_555
C3 H1 1_555 1_555
N4 C4 1_555 1_555
C4 N3 1_555 1_555
H2 C4 1_555 1_555
C5 C6 1_555 1_555
C6 C2 1_555 1_555
H3 C6 1_555 1_555
C7 C1 1_555 1_555
H4 C7 1_555 1_555
C8 N2 1_555 1_555
H5 C8 1_555 1_555
C9 N1 1_555 1_555
H6 C9 1_555 1_555
C10 N3 1_555 1_555
H7 C10 1_555 1_555
C11 N1 1_555 1_555
H8 C11 1_555 1_555
C12 N4 1_555 1_555
H9 C12 1_555 1_555
C13 N2 1_555 1_555
H10 C13 1_555 1_555
N5 C8 1_555 1_555
C14 C13 1_555 1_555
H11 C14 1_555 1_555
N6 C9 1_555 1_555
C15 C11 1_555 1_555
H12 C15 1_555 1_555
O1 C18 1_555 1_555
N7 C16 1_555 1_555
C16 H13 1_555 1_555
H14 C16 1_555 1_555
H15 C16 1_555 1_555
C17 N7 1_555 1_555
H16 C17 1_555 1_555
H17 C17 1_555 1_555
H18 C17 1_555 1_555
C18 N7 1_555 1_555
H19 C18 1_555 1_555
Cl1 O2 1_555 1_555
O3 Cl1 1_555 1_555
O4 Cl1 1_555 1_555
O5 Cl1 1_555 1_555
O10 C21 1_555 1_555
N8 C19 1_555 1_555
C19 H20 1_555 1_555
H21 C19 1_555 1_555
H22 C19 1_555 1_555
C20 N8 1_555 1_555
H23 C20 1_555 1_555
H24 C20 1_555 1_555
H25 C20 1_555 1_555
C21 N8 1_555 1_555
H26 C21 1_555 1_555
N1D C1D 1_555 1_555
N2D C5D 1_555 1_555
N3D C2D 1_555 1_555
C1D C3D 1_555 1_555
C2D C3D 1_555 1_555
C3D H1D 1_555 1_555
N4D Cd1 1_555 1_555
C4D N3D 1_555 1_555
H2D C4D 1_555 1_555
C5D C6D 1_555 1_555
C6D C2D 1_555 1_555
H3D C6D 1_555 1_555
C7D C1D 1_555 1_555
H4D C7D 1_555 1_555
C8D N2D 1_555 1_555
H5D C8D 1_555 1_555
C9D N1D 1_555 1_555
H6D C9D 1_555 1_555
C10D N3D 1_555 1_555
H7D C10D 1_555 1_555
C11D N1D 1_555 1_555
H8D C11D 1_555 1_555
C12D N4D 1_555 1_555
H9D C12D 1_555 1_555
C13D N2D 1_555 1_555
H10D C13D 1_555 1_555
N5D C8D 1_555 1_555
C14D C13D 1_555 1_555
H11D C14D 1_555 1_555
N6D C9D 1_555 1_555
C15D C11D 1_555 1_555
H12D C15D 1_555 1_555
Cd1B N5 1_555 1_555
Cd1B_2 N5D 1_555 1_555
Cd1C N6D 1_555 1_555
Cd1C_2 N6 1_555 1_555
N5B Cd1 1_555 1_555
N5F Cd1 1_555 1_555
N6C Cd1 1_555 1_555
N6G Cd1 1_555 1_555
C5 C7 1_555 1_555
C10 C12 1_555 1_555
N5 C14 1_555 1_555
N6 C15 1_555 1_555
N4D C4D 1_555 1_555
C5D C7D 1_555 1_555
C10D C12D 1_555 1_555
N5D C14D 1_555 1_555
N6D C15D 1_555 1_555

#END
