
#######################################################################
#
#                 Cambridge Crystallographic Data Centre
#                                CCDC 
#
#######################################################################
#
# If this CIF has been generated from an entry in the Cambridge 
# Structural Database, then it will include bibliographic, chemical, 
# crystal, experimental, refinement or atomic coordinate data resulting 
# from the CCDC's data processing and validation procedures.
#
#######################################################################

data_ZOXFAV
_symmetry_cell_setting           monoclinic
_symmetry_space_group_name_H-M   'P 21/n'
_symmetry_Int_Tables_number      14
_space_group_name_Hall           '-P 2yn'
loop_
_symmetry_equiv_pos_site_id
_symmetry_equiv_pos_as_xyz
1 x,y,z
2 1/2-x,1/2+y,1/2-z
3 -x,-y,-z
4 1/2+x,1/2-y,1/2+z
_cell_length_a                   11.629(4)
_cell_length_b                   17.902(5)
_cell_length_c                   12.380(4)
_cell_angle_alpha                90
_cell_angle_beta                 109.051(6)
_cell_angle_gamma                90
_cell_volume                     2436.13
loop_
_atom_site_label
_atom_site_type_symbol
_atom_site_fract_x
_atom_site_fract_y
_atom_site_fract_z
Cd1 Cd 1.0000 0.0000 1.0000
C1 C 0.6648(2) 0.18314(14) 1.1363(2)
C2 C 0.6467(2) 0.25565(13) 1.1661(2)
H1 H 0.7052 0.2923 1.1723
C3 C 0.5396(2) 0.27225(13) 1.1865(2)
C4 C 0.4517(2) 0.21918(14) 1.1775(2)
H2 H 0.3799 0.2314 1.1911
C5 C 0.4721(2) 0.14712(13) 1.1477(2)
C6 C 0.5785(2) 0.12757(13) 1.1264(2)
H3 H 0.5913 0.0790 1.1062
C7 C 0.5041(2) 0.36271(14) 1.3223(2)
H4 H 0.4990 0.3274 1.3756
C8 C 0.5070(3) 0.46621(15) 1.2367(2)
H5 H 0.5038 0.5171 1.2206
C9 C 0.5248(3) 0.41175(15) 1.1683(2)
H6 H 0.5361 0.4179 1.0979
C10 C 0.8080(2) 0.09836(13) 1.0836(2)
H7 H 0.7612 0.0552 1.0745
C11 C 0.9520(2) 0.17405(14) 1.0900(2)
H8 H 1.0250 0.1927 1.0856
C12 C 0.8692(2) 0.21429(14) 1.1198(2)
H9 H 0.8738 0.2647 1.1391
C13 C 0.2608(2) 0.09996(14) 1.0829(2)
H10 H 0.2256 0.1421 1.0414
C14 C 0.2856(3) -0.00809(15) 1.1619(3)
H11 H 0.2686 -0.0549 1.1855
C15 C 0.3985(2) 0.02239(16) 1.1884(3)
H12 H 0.4719 0.0007 1.2313
N1 N 0.4942(2) 0.43490(11) 1.33404(18)
N2 N 0.52279(18) 0.34606(11) 1.22323(18)
N3 N 0.91338(18) 0.10189(11) 1.06696(19)
N4 N 0.77568(16) 0.16531(11) 1.11584(17)
N5 N 0.20001(17) 0.04058(12) 1.09516(18)
N6 N 0.38147(17) 0.09179(11) 1.13861(18)
C1B C 0.3352(2) -0.18314(14) 0.8637(2)
C2B C 0.3533(2) -0.25565(13) 0.8339(2)
H1B H 0.2948 -0.2923 0.8277
C3B C 0.4604(2) -0.27225(13) 0.8135(2)
C4B C 0.5483(2) -0.21918(14) 0.8225(2)
H2B H 0.6201 -0.2314 0.8089
C5B C 0.5279(2) -0.14712(13) 0.8523(2)
C6B C 0.4215(2) -0.12757(13) 0.8736(2)
H3B H 0.4087 -0.0790 0.8938
C7B C 0.4959(2) -0.36271(14) 0.6777(2)
H4B H 0.5010 -0.3274 0.6244
C8B C 0.4930(3) -0.46621(15) 0.7633(2)
H5B H 0.4962 -0.5171 0.7794
C9B C 0.4752(3) -0.41175(15) 0.8317(2)
H6B H 0.4639 -0.4179 0.9021
C10B C 0.1920(2) -0.09836(13) 0.9164(2)
H7B H 0.2388 -0.0552 0.9255
C11B C 0.0480(2) -0.17405(14) 0.9100(2)
H8B H -0.0250 -0.1927 0.9144
C12B C 0.1308(2) -0.21429(14) 0.8802(2)
H9B H 0.1262 -0.2647 0.8609
C13B C 0.7392(2) -0.09996(14) 0.9171(2)
H10B H 0.7744 -0.1421 0.9586
C14B C 0.7144(3) 0.00809(15) 0.8381(3)
H11B H 0.7314 0.0549 0.8145
C15B C 0.6015(2) -0.02239(16) 0.8116(3)
H12B H 0.5281 -0.0007 0.7687
N1B N 0.5058(2) -0.43490(11) 0.66596(18)
N2B N 0.47721(18) -0.34606(11) 0.77677(18)
N3B N 0.08662(18) -0.10189(11) 0.93304(19)
N4B N 0.22432(16) -0.16531(11) 0.88416(17)
N5B N 0.79999(17) -0.04058(12) 0.90484(18)
N6B N 0.61853(17) -0.09179(11) 0.86139(18)
Cd1_2 Cd 0.0000 0.0000 1.0000
Cd1A Cd 0.5000 -0.5000 0.5000
Cd1A_2 Cd 0.5000 0.5000 1.5000
N1A N 1.0058(2) -0.06510(11) 1.16596(18)
N1C N 0.9942(2) 0.06510(11) 0.83404(18)
N3B_2 N 1.08662(18) -0.10189(11) 0.93304(19)
N5_2 N 1.20001(17) 0.04058(12) 1.09516(18)
C16 C 0.7646(4) 0.0610(2) 0.4099(4)
H13 H 0.8115 0.0905 0.3748
H14 H 0.7080 0.0307 0.3529
H15 H 0.8180 0.0293 0.4672
C17 C 0.6190(6) 0.0738(3) 0.5151(6)
H16 H 0.5631 0.1099 0.5268
H17 H 0.6666 0.0531 0.5873
H18 H 0.5745 0.0346 0.4662
C18 C 0.7077(3) 0.1828(2) 0.4643(3)
H19 H 0.7586 0.2038 0.4282
N7 N 0.6985(3) 0.10976(16) 0.4624(3)
O1 O 0.6558(3) 0.22576(15) 0.5092(3)
C19 C 0.1744(4) 0.2806(2) 0.3231(3)
H20 H 0.1794 0.2746 0.2477
H21 H 0.2473 0.3040 0.3713
H22 H 0.1055 0.3113 0.3194
C20 C 0.2558(5) 0.1539(3) 0.3765(5)
H23 H 0.2563 0.1171 0.4331
H24 H 0.3334 0.1784 0.3977
H25 H 0.2401 0.1299 0.3038
C21 C 0.0605(4) 0.1909(2) 0.3902(3)
H26 H 0.0024 0.2280 0.3826
N8 N 0.1609(3) 0.20890(16) 0.3689(2)
O2 O 0.0388(4) 0.1287(2) 0.4192(3)
N9 N 0.3610(2) 0.10778(15) 0.8257(3)
O3 O 0.3563(3) 0.04741(15) 0.8708(3)
O4 O 0.3798(3) 0.11094(15) 0.7319(3)
O5 O 0.3469(3) 0.16652(16) 0.8726(3)
loop_
_geom_bond_atom_site_label_1
_geom_bond_atom_site_label_2
_geom_bond_site_symmetry_1
_geom_bond_site_symmetry_2
Cd1 N3 1_555 1_555
C1 C2 1_555 1_555
C2 H1 1_555 1_555
C3 C2 1_555 1_555
C4 C3 1_555 1_555
H2 C4 1_555 1_555
C5 C4 1_555 1_555
C6 C1 1_555 1_555
H3 C6 1_555 1_555
C7 H4 1_555 1_555
C8 H5 1_555 1_555
C9 C8 1_555 1_555
H6 C9 1_555 1_555
C10 H7 1_555 1_555
C11 H8 1_555 1_555
C12 C11 1_555 1_555
H9 C12 1_555 1_555
C13 H10 1_555 1_555
C14 H11 1_555 1_555
C15 C14 1_555 1_555
H12 C15 1_555 1_555
N1 C7 1_555 1_555
N2 C3 1_555 1_555
N3 C10 1_555 1_555
N4 C1 1_555 1_555
N5 C13 1_555 1_555
N6 C5 1_555 1_555
C16 H13 1_555 1_555
H14 C16 1_555 1_555
H15 C16 1_555 1_555
C17 H16 1_555 1_555
H17 C17 1_555 1_555
H18 C17 1_555 1_555
C18 H19 1_555 1_555
N7 C16 1_555 1_555
O1 C18 1_555 1_555
C19 H20 1_555 1_555
H21 C19 1_555 1_555
H22 C19 1_555 1_555
C20 H23 1_555 1_555
H24 C20 1_555 1_555
H25 C20 1_555 1_555
C21 H26 1_555 1_555
N8 C19 1_555 1_555
O2 C21 1_555 1_555
N9 O3 1_555 1_555
O4 N9 1_555 1_555
O5 N9 1_555 1_555
C1B C2B 1_555 1_555
C2B H1B 1_555 1_555
C3B C2B 1_555 1_555
C4B C3B 1_555 1_555
H2B C4B 1_555 1_555
C5B C4B 1_555 1_555
C6B C1B 1_555 1_555
H3B C6B 1_555 1_555
C7B H4B 1_555 1_555
C8B H5B 1_555 1_555
C9B C8B 1_555 1_555
H6B C9B 1_555 1_555
C10B H7B 1_555 1_555
C11B H8B 1_555 1_555
C12B C11B 1_555 1_555
H9B C12B 1_555 1_555
C13B H10B 1_555 1_555
C14B H11B 1_555 1_555
C15B C14B 1_555 1_555
H12B C15B 1_555 1_555
N1B C7B 1_555 1_555
N2B C3B 1_555 1_555
N3B C10B 1_555 1_555
N4B C1B 1_555 1_555
N5B Cd1 1_555 1_555
N6B C5B 1_555 1_555
Cd1_2 N5 1_555 1_555
Cd1A N1B 1_555 1_555
Cd1A_2 N1 1_555 1_555
N1A Cd1 1_555 1_555
N1C Cd1 1_555 1_555
N3B_2 Cd1 1_555 1_555
N5_2 Cd1 1_555 1_555
C5 C6 1_555 1_555
C7 N2 1_555 1_555
C8 N1 1_555 1_555
C9 N2 1_555 1_555
C10 N4 1_555 1_555
C11 N3 1_555 1_555
C12 N4 1_555 1_555
C13 N6 1_555 1_555
C14 N5 1_555 1_555
C15 N6 1_555 1_555
C17 N7 1_555 1_555
C18 N7 1_555 1_555
C20 N8 1_555 1_555
C21 N8 1_555 1_555
C5B C6B 1_555 1_555
C7B N2B 1_555 1_555
C8B N1B 1_555 1_555
C9B N2B 1_555 1_555
C10B N4B 1_555 1_555
C11B N3B 1_555 1_555
C12B N4B 1_555 1_555
C13B N5B 1_555 1_555
C13B N6B 1_555 1_555
C14B N5B 1_555 1_555
C15B N6B 1_555 1_555
N3B Cd1_2 1_555 1_555

#END
