
#######################################################################
#
#                 Cambridge Crystallographic Data Centre
#                                CCDC 
#
#######################################################################
#
# If this CIF has been generated from an entry in the Cambridge 
# Structural Database, then it will include bibliographic, chemical, 
# crystal, experimental, refinement or atomic coordinate data resulting 
# from the CCDC's data processing and validation procedures.
#
#######################################################################

data_ZOXGEA
_symmetry_cell_setting           monoclinic
_symmetry_space_group_name_H-M   'C 2/c'
_symmetry_Int_Tables_number      15
_space_group_name_Hall           '-C 2yn'
loop_
_symmetry_equiv_pos_site_id
_symmetry_equiv_pos_as_xyz
1 x,y,z
2 -x,y,1/2-z
3 1/2+x,1/2+y,z
4 1/2-x,1/2+y,1/2-z
5 -x,-y,-z
6 x,-y,1/2+z
7 1/2-x,1/2-y,-z
8 1/2+x,1/2-y,1/2+z
_cell_length_a                   7.6158(5)
_cell_length_b                   16.2007(14)
_cell_length_c                   10.6784(7)
_cell_angle_alpha                90
_cell_angle_beta                 90.129(8)
_cell_angle_gamma                90
_cell_volume                     1317.51
loop_
_atom_site_label
_atom_site_type_symbol
_atom_site_fract_x
_atom_site_fract_y
_atom_site_fract_z
Mn1 Mn 0.0000 0.589163(17) 0.2500
S1 S 0.26426(6) 0.59114(3) 0.43456(4)
C1 C 0.1959(2) 0.53098(9) 0.54809(13)
N1 N 0.14566(19) 0.48959(8) 0.62863(13)
N2 N 0.15848(17) 0.70040(7) 0.19663(11)
C2 C 0.3171(2) 0.69584(10) 0.14411(14)
H1 H 0.3650 0.6440 0.1287
C3 C 0.4133(2) 0.76537(11) 0.11149(15)
H2 H 0.5240 0.7605 0.0756
C4 C 0.3400(2) 0.84198(11) 0.13384(16)
H3 H 0.4008 0.8897 0.1122
C5 C 0.1770(3) 0.84748(9) 0.18819(16)
H4 H 0.1267 0.8988 0.2037
C6 C 0.0878(2) 0.77516(9) 0.21990(13)
N2A N -0.15848(17) 0.70040(7) 0.30337(11)
C2A C -0.3171(2) 0.69584(10) 0.35589(14)
H1A H -0.3650 0.6440 0.3713
C3A C -0.4133(2) 0.76537(11) 0.38851(15)
H2A H -0.5240 0.7605 0.4244
C4A C -0.3400(2) 0.84198(11) 0.36616(16)
H3A H -0.4008 0.8897 0.3878
C5A C -0.1770(3) 0.84748(9) 0.31181(16)
H4A H -0.1267 0.8988 0.2963
C6A C -0.0878(2) 0.77516(9) 0.28010(13)
S1A S -0.26426(6) 0.59114(3) 0.06544(4)
C1A C -0.1959(2) 0.53098(9) -0.04809(13)
N1A N -0.14566(19) 0.48959(8) -0.12863(13)
Mn1D Mn 0.0000 0.410837(17) -0.2500
Mn1D_2 Mn 0.0000 0.410837(17) 0.7500
N1D N -0.14566(19) 0.51041(8) 0.37137(13)
N1E N 0.14566(19) 0.51041(8) 0.12863(13)
loop_
_geom_bond_atom_site_label_1
_geom_bond_atom_site_label_2
_geom_bond_site_symmetry_1
_geom_bond_site_symmetry_2
Mn1 S1 1_555 1_555
S1 C1 1_555 1_555
C1 N1 1_555 1_555
N1 Mn1D_2 1_555 1_555
N2 Mn1 1_555 1_555
C2 N2 1_555 1_555
H1 C2 1_555 1_555
C3 C2 1_555 1_555
H2 C3 1_555 1_555
C4 C3 1_555 1_555
H3 C4 1_555 1_555
C5 C4 1_555 1_555
H4 C5 1_555 1_555
C6 N2 1_555 1_555
N2A Mn1 1_555 1_555
C2A N2A 1_555 1_555
H1A C2A 1_555 1_555
C3A C2A 1_555 1_555
H2A C3A 1_555 1_555
C4A C3A 1_555 1_555
H3A C4A 1_555 1_555
C5A C4A 1_555 1_555
H4A C5A 1_555 1_555
C6A C6 1_555 1_555
S1A Mn1 1_555 1_555
C1A S1A 1_555 1_555
N1A C1A 1_555 1_555
Mn1D N1A 1_555 1_555
N1D Mn1 1_555 1_555
N1E Mn1 1_555 1_555
C5 C6 1_555 1_555
N2A C6A 1_555 1_555
C5A C6A 1_555 1_555

#END
