
#######################################################################
#
#                 Cambridge Crystallographic Data Centre
#                                CCDC 
#
#######################################################################
#
# If this CIF has been generated from an entry in the Cambridge 
# Structural Database, then it will include bibliographic, chemical, 
# crystal, experimental, refinement or atomic coordinate data resulting 
# from the CCDC's data processing and validation procedures.
#
#######################################################################

data_ZOXHUR
_symmetry_cell_setting           monoclinic
_symmetry_space_group_name_H-M   'P 21/c'
_symmetry_Int_Tables_number      14
_space_group_name_Hall           '-P 2ybc'
loop_
_symmetry_equiv_pos_site_id
_symmetry_equiv_pos_as_xyz
1 x,y,z
2 -x,1/2+y,1/2-z
3 -x,-y,-z
4 x,1/2-y,1/2+z
_cell_length_a                   20.0917(8)
_cell_length_b                   5.9503(2)
_cell_length_c                   21.0198(9)
_cell_angle_alpha                90
_cell_angle_beta                 115.902(3)
_cell_angle_gamma                90
_cell_volume                     2260.51
loop_
_atom_site_label
_atom_site_type_symbol
_atom_site_fract_x
_atom_site_fract_y
_atom_site_fract_z
Cd1 Cd 0.732991(14) 0.24172(4) 0.269228(13)
N1 N 0.67220(19) 0.5638(5) 0.20986(17)
C1 C 0.65872(17) 0.7440(6) 0.18809(16)
S1 S 0.63714(5) 0.99805(14) 0.15449(5)
N2 N 0.79392(17) -0.0756(5) 0.32949(17)
C2 C 0.80555(17) -0.2557(6) 0.35212(16)
S2 S 0.82427(6) -0.51157(15) 0.38460(5)
N3 N 0.81232(17) 0.2863(5) 0.21360(15)
C3 C 0.8505(3) 0.4716(7) 0.2206(2)
H1 H 0.8473 0.5835 0.2501
C4 C 0.8948(3) 0.5105(7) 0.1870(2)
H2 H 0.9209 0.6449 0.1950
C5 C 0.9014(2) 0.3547(6) 0.14183(19)
C6 C 0.8606(2) 0.1617(7) 0.1342(3)
H3 H 0.8622 0.0474 0.1047
C7 C 0.8174(2) 0.1363(7) 0.1698(2)
H4 H 0.7901 0.0047 0.1623
C8 C 0.9479(2) 0.3988(7) 0.1019(2)
C9 C 0.9747(3) 0.1778(9) 0.0830(3)
H5 H 1.0038 0.2105 0.0580
H6 H 0.9328 0.0882 0.0536
H7 H 1.0043 0.0967 0.1255
C10 C 0.8990(3) 0.5207(10) 0.0334(3)
H8 H 0.9269 0.5508 0.0072
H9 H 0.8821 0.6598 0.0444
H10 H 0.8571 0.4282 0.0056
C11 C 1.0150(3) 0.5424(10) 0.1453(3)
H11 H 1.0432 0.5674 0.1191
H12 H 1.0452 0.4664 0.1888
H13 H 0.9990 0.6840 0.1557
N4 N 0.64660(16) 0.2045(5) 0.31532(16)
C12 C 0.5826(2) 0.3142(7) 0.2852(2)
H14 H 0.5733 0.4039 0.2459
C13 C 0.5296(2) 0.2999(7) 0.3098(2)
H15 H 0.4855 0.3795 0.2879
C14 C 0.5429(2) 0.1660(7) 0.3673(2)
H16 H 0.5075 0.1554 0.3846
C15 C 0.60838(19) 0.0467(6) 0.39999(18)
C16 C 0.6582(2) 0.0755(6) 0.37141(19)
H17 H 0.7030 -0.0005 0.3928
C17 C 0.6255(2) -0.0980(7) 0.4648(2)
C18 C 0.6837(4) -0.2738(12) 0.4745(4)
H18 H 0.6662 -0.3706 0.4339
H19 H 0.6933 -0.3611 0.5160
H20 H 0.7285 -0.2011 0.4797
C19 C 0.6512(6) 0.0518(13) 0.5280(3)
H21 H 0.6627 -0.0373 0.5696
H22 H 0.6127 0.1569 0.5223
H23 H 0.6945 0.1319 0.5327
C20 C 0.5577(3) -0.2282(11) 0.4579(4)
H24 H 0.5416 -0.3255 0.4175
H25 H 0.5188 -0.1249 0.4521
H26 H 0.5699 -0.3165 0.4997
Cd1_2 Cd 0.732991(14) -0.75828(4) 0.269228(13)
Cd1_3 Cd 0.732991(14) 1.24172(4) 0.269228(13)
S1_2 S 0.63714(5) -0.00195(14) 0.15449(5)
S2_2 S 0.82427(6) 0.48843(15) 0.38460(5)
loop_
_geom_bond_atom_site_label_1
_geom_bond_atom_site_label_2
_geom_bond_site_symmetry_1
_geom_bond_site_symmetry_2
Cd1 N1 1_555 1_555
N1 C1 1_555 1_555
C1 S1 1_555 1_555
S1 Cd1_3 1_555 1_555
N2 Cd1 1_555 1_555
C2 N2 1_555 1_555
S2 C2 1_555 1_555
N3 Cd1 1_555 1_555
C3 N3 1_555 1_555
H1 C3 1_555 1_555
C4 C3 1_555 1_555
H2 C4 1_555 1_555
C5 C4 1_555 1_555
C6 C5 1_555 1_555
H3 C6 1_555 1_555
C7 N3 1_555 1_555
H4 C7 1_555 1_555
C8 C5 1_555 1_555
C9 C8 1_555 1_555
H5 C9 1_555 1_555
H6 C9 1_555 1_555
H7 C9 1_555 1_555
C10 C8 1_555 1_555
H8 C10 1_555 1_555
H9 C10 1_555 1_555
H10 C10 1_555 1_555
C11 C8 1_555 1_555
H11 C11 1_555 1_555
H12 C11 1_555 1_555
H13 C11 1_555 1_555
N4 Cd1 1_555 1_555
C12 N4 1_555 1_555
H14 C12 1_555 1_555
C13 C12 1_555 1_555
H15 C13 1_555 1_555
C14 C13 1_555 1_555
H16 C14 1_555 1_555
C15 C14 1_555 1_555
C16 N4 1_555 1_555
H17 C16 1_555 1_555
C17 C15 1_555 1_555
C18 C17 1_555 1_555
H18 C18 1_555 1_555
H19 C18 1_555 1_555
H20 C18 1_555 1_555
C19 C17 1_555 1_555
H21 C19 1_555 1_555
H22 C19 1_555 1_555
H23 C19 1_555 1_555
C20 C17 1_555 1_555
H24 C20 1_555 1_555
H25 C20 1_555 1_555
H26 C20 1_555 1_555
Cd1_2 S2 1_555 1_555
S1_2 Cd1 1_555 1_555
S2_2 Cd1 1_555 1_555
C6 C7 1_555 1_555
C15 C16 1_555 1_555

#END
