
#######################################################################
#
#                 Cambridge Crystallographic Data Centre
#                                CCDC 
#
#######################################################################
#
# If this CIF has been generated from an entry in the Cambridge 
# Structural Database, then it will include bibliographic, chemical, 
# crystal, experimental, refinement or atomic coordinate data resulting 
# from the CCDC's data processing and validation procedures.
#
#######################################################################

data_ZOXNIL
_symmetry_cell_setting           monoclinic
_symmetry_space_group_name_H-M   'P 21/n'
_symmetry_Int_Tables_number      14
_space_group_name_Hall           '-P 2yn'
loop_
_symmetry_equiv_pos_site_id
_symmetry_equiv_pos_as_xyz
1 x,y,z
2 1/2-x,1/2+y,1/2-z
3 -x,-y,-z
4 1/2+x,1/2-y,1/2+z
_cell_length_a                   8.6325(9)
_cell_length_b                   12.8807(14)
_cell_length_c                   14.7075(16)
_cell_angle_alpha                90
_cell_angle_beta                 93.760(2)
_cell_angle_gamma                90
_cell_volume                     1631.85
loop_
_atom_site_label
_atom_site_type_symbol
_atom_site_fract_x
_atom_site_fract_y
_atom_site_fract_z
C1 C 0.9691(5) 0.3561(3) 1.0123(3)
C2 C 1.0336(5) 0.3196(3) 0.9361(3)
H1 H 1.0339 0.2487 0.9242
C3 C 1.0996(5) 0.3890(4) 0.8757(3)
C4 C 1.0974(5) 0.4933(3) 0.8907(3)
H2 H 1.1392 0.5380 0.8491
C5 C 1.0323(5) 0.5346(3) 0.9692(3)
C6 C 1.1713(6) 0.3521(4) 0.7917(3)
O1 O 1.1991(4) 0.0699(3) 1.0010(2)
O2 O 1.0471(4) -0.0425(3) 1.1269(2)
O3 O 0.8879(3) 0.1661(2) 1.04173(18)
O4 O 0.7461(4) 0.3019(2) 1.1114(2)
O5 O 1.0076(4) 0.2655(3) 1.1675(2)
O6 O 1.1728(6) 0.2523(3) 0.7823(3)
O7 O 1.2258(6) 0.4105(3) 0.7389(3)
S1 S 0.89686(14) 0.26397(8) 1.08907(7)
Cu1 Cu 1.0000 0.0000 1.0000
N1 N 1.1123(5) -0.0065(4) 1.2736(3)
N2 N 1.4195(5) 0.1144(4) 0.9394(3)
C7 C 1.2931(6) 0.0597(4) 0.9416(3)
C8 C 1.0737(7) 0.0164(5) 1.1892(4)
C9 C 1.5291(6) 0.0999(6) 0.8677(4)
H3 H 1.6149 0.1468 0.8779
H4 H 1.4772 0.1137 0.8093
H5 H 1.5666 0.0297 0.8693
C10 C 1.1332(9) -0.1109(6) 1.3004(5)
H6 H 1.1616 -0.1139 1.3646
H7 H 1.2141 -0.1414 1.2674
H8 H 1.0383 -0.1484 1.2875
C11 C 1.4543(9) 0.1938(7) 1.0056(5)
H9 H 1.5514 0.2259 0.9940
H10 H 1.4613 0.1638 1.0654
H11 H 1.3735 0.2452 1.0018
C12 C 1.1354(11) 0.0728(7) 1.3437(5)
H12 H 1.1630 0.0403 1.4013
H13 H 1.0412 0.1116 1.3479
H14 H 1.2172 0.1187 1.3283
H15 H 1.284(5) 0.005(3) 0.897(3)
H16 H 1.065(5) 0.078(4) 1.177(3)
H17 H 1.202(8) 0.232(5) 0.737(5)
C1B C 1.0309(5) 0.6439(3) 0.9877(3)
C2B C 0.9664(5) 0.6804(3) 1.0639(3)
H1B H 0.9661 0.7513 1.0758
C3B C 0.9004(5) 0.6110(4) 1.1243(3)
C4B C 0.9026(5) 0.5067(3) 1.1093(3)
H2B H 0.8608 0.4620 1.1509
C5B C 0.9677(5) 0.4654(3) 1.0308(3)
C6B C 0.8287(6) 0.6479(4) 1.2083(3)
O3B O 1.1121(3) 0.8339(2) 0.95827(18)
O4B O 1.2539(4) 0.6981(2) 0.8886(2)
O5B O 0.9924(4) 0.7345(3) 0.8325(2)
O6B O 0.8272(6) 0.7477(3) 1.2177(3)
O7B O 0.7742(6) 0.5895(3) 1.2611(3)
S1B S 1.10314(14) 0.73603(8) 0.91093(7)
H17B H 0.798(8) 0.768(5) 1.263(5)
O1B O 0.8009(4) -0.0699(3) 0.9990(2)
O2B O 0.9529(4) 0.0425(3) 0.8731(2)
N1B N 0.8877(5) 0.0065(4) 0.7264(3)
N2B N 0.5805(5) -0.1144(4) 1.0606(3)
C7B C 0.7069(6) -0.0597(4) 1.0584(3)
C8B C 0.9263(7) -0.0164(5) 0.8108(4)
C9B C 0.4709(6) -0.0999(6) 1.1323(4)
H3B H 0.3851 -0.1468 1.1221
H4B H 0.5228 -0.1137 1.1907
H5B H 0.4334 -0.0297 1.1307
C10B C 0.8668(9) 0.1109(6) 0.6996(5)
H6B H 0.8384 0.1139 0.6354
H7B H 0.7859 0.1414 0.7326
H8B H 0.9617 0.1484 0.7125
C11B C 0.5457(9) -0.1938(7) 0.9944(5)
H9B H 0.4486 -0.2259 1.0060
H10B H 0.5387 -0.1638 0.9346
H11B H 0.6265 -0.2452 0.9982
C12B C 0.8646(11) -0.0728(7) 0.6563(5)
H12B H 0.8370 -0.0403 0.5987
H13B H 0.9588 -0.1116 0.6521
H14B H 0.7828 -0.1187 0.6717
H15B H 0.716(5) -0.005(3) 1.103(3)
H16B H 0.935(5) -0.078(4) 0.823(3)
O3B_2 O 1.1121(3) -0.1661(2) 0.95827(18)
Cu1_2 Cu 1.0000 1.0000 1.0000
loop_
_geom_bond_atom_site_label_1
_geom_bond_atom_site_label_2
_geom_bond_site_symmetry_1
_geom_bond_site_symmetry_2
C1 C2 1_555 1_555
C2 H1 1_555 1_555
C3 C2 1_555 1_555
C4 C3 1_555 1_555
H2 C4 1_555 1_555
C5 C4 1_555 1_555
C6 C3 1_555 1_555
O1 Cu1 1_555 1_555
O2 Cu1 1_555 1_555
O3 S1 1_555 1_555
O4 S1 1_555 1_555
O5 S1 1_555 1_555
O6 C6 1_555 1_555
O7 C6 1_555 1_555
S1 C1 1_555 1_555
Cu1 O3 1_555 1_555
N1 C8 1_555 1_555
N2 C7 1_555 1_555
C7 O1 1_555 1_555
C8 O2 1_555 1_555
C9 N2 1_555 1_555
H3 C9 1_555 1_555
H4 C9 1_555 1_555
H5 C9 1_555 1_555
C10 N1 1_555 1_555
H6 C10 1_555 1_555
H7 C10 1_555 1_555
H8 C10 1_555 1_555
C11 N2 1_555 1_555
H9 C11 1_555 1_555
H10 C11 1_555 1_555
H11 C11 1_555 1_555
C12 N1 1_555 1_555
H12 C12 1_555 1_555
H13 C12 1_555 1_555
H14 C12 1_555 1_555
H15 C7 1_555 1_555
H16 C8 1_555 1_555
H17 O6 1_555 1_555
C1B C5 1_555 1_555
C2B C1B 1_555 1_555
H1B C2B 1_555 1_555
C3B C2B 1_555 1_555
C4B C3B 1_555 1_555
H2B C4B 1_555 1_555
C5B C1 1_555 1_555
C6B C3B 1_555 1_555
O3B S1B 1_555 1_555
O4B S1B 1_555 1_555
O5B S1B 1_555 1_555
O6B C6B 1_555 1_555
O7B C6B 1_555 1_555
S1B C1B 1_555 1_555
H17B O6B 1_555 1_555
O1B Cu1 1_555 1_555
O2B Cu1 1_555 1_555
N1B C8B 1_555 1_555
N2B C7B 1_555 1_555
C7B O1B 1_555 1_555
C8B O2B 1_555 1_555
C9B N2B 1_555 1_555
H3B C9B 1_555 1_555
H4B C9B 1_555 1_555
H5B C9B 1_555 1_555
C10B N1B 1_555 1_555
H6B C10B 1_555 1_555
H7B C10B 1_555 1_555
H8B C10B 1_555 1_555
C11B N2B 1_555 1_555
H9B C11B 1_555 1_555
H10B C11B 1_555 1_555
H11B C11B 1_555 1_555
C12B N1B 1_555 1_555
H12B C12B 1_555 1_555
H13B C12B 1_555 1_555
H14B C12B 1_555 1_555
H15B C7B 1_555 1_555
H16B C8B 1_555 1_555
O3B_2 Cu1 1_555 1_555
Cu1_2 O3B 1_555 1_555
C5 C5B 1_555 1_555
C4B C5B 1_555 1_555

#END
