
#######################################################################
#
#                 Cambridge Crystallographic Data Centre
#                                CCDC 
#
#######################################################################
#
# If this CIF has been generated from an entry in the Cambridge 
# Structural Database, then it will include bibliographic, chemical, 
# crystal, experimental, refinement or atomic coordinate data resulting 
# from the CCDC's data processing and validation procedures.
#
#######################################################################

data_ZOXTIR
_symmetry_cell_setting           monoclinic
_symmetry_space_group_name_H-M   'C 2/c'
_symmetry_Int_Tables_number      15
_space_group_name_Hall           '-C 2yn'
loop_
_symmetry_equiv_pos_site_id
_symmetry_equiv_pos_as_xyz
1 x,y,z
2 -x,y,1/2-z
3 1/2+x,1/2+y,z
4 1/2-x,1/2+y,1/2-z
5 -x,-y,-z
6 x,-y,1/2+z
7 1/2-x,1/2-y,-z
8 1/2+x,1/2-y,1/2+z
_cell_length_a                   24.2346(14)
_cell_length_b                   9.1735(5)
_cell_length_c                   19.0739(11)
_cell_angle_alpha                90
_cell_angle_beta                 114.153(1)
_cell_angle_gamma                90
_cell_volume                     3869.21
loop_
_atom_site_label
_atom_site_type_symbol
_atom_site_fract_x
_atom_site_fract_y
_atom_site_fract_z
Er1 Er 0.541852(8) 0.694238(18) 0.494915(10)
Zn1 Zn 0.71220(2) 0.48920(5) 0.33596(3)
O1 O 0.61502(17) 0.6492(4) 0.4571(2)
O2 O 0.66433(17) 0.6349(4) 0.3819(2)
O3 O 0.54712(13) 0.4332(3) 0.49581(16)
O4 O 0.54105(15) 0.1964(3) 0.4821(2)
O5 O 0.60784(14) 0.8765(3) 0.55409(19)
O6 O 0.69542(15) 0.9819(3) 0.57354(18)
O7 O 0.57664(15) 0.6323(4) 0.62112(18)
O8 O 0.62062(15) 0.5433(4) 0.73918(19)
O9 O 0.51820(17) 0.9106(4) 0.4181(2)
H1 H 0.5426 0.9766 0.4422
H2 H 0.4827 0.9375 0.4089
O10 O 0.48147(16) 0.6314(4) 0.36850(19)
H3 H 0.4610 0.5574 0.3684
H4 H 0.5031 0.6132 0.3444
N1 N 0.68474(17) 0.3488(4) 0.4046(2)
N2 N 0.6432(2) 0.1827(4) 0.4502(3)
H5 H 0.6347 0.0970 0.4639
N3 N 0.75692(17) 0.8328(4) 0.7039(2)
N4 N 0.72836(17) 0.6649(4) 0.7669(2)
C1 C 0.6406(2) 0.5776(5) 0.4217(3)
C2 C 0.64509(19) 0.4168(5) 0.4294(2)
C3 C 0.6182(2) 0.3131(4) 0.4576(3)
C4 C 0.5662(2) 0.3153(4) 0.4795(2)
C5 C 0.6831(2) 0.2073(5) 0.4184(3)
C6 C 0.7187(3) 0.0908(6) 0.4019(3)
H6 H 0.7574 0.1287 0.4083
H7 H 0.6973 0.0575 0.3500
H8 H 0.7243 0.0108 0.4366
C7 C 0.6645(2) 0.8914(4) 0.5914(2)
C8 C 0.6969(2) 0.8038(4) 0.6616(2)
C9 C 0.6791(2) 0.6989(4) 0.7007(2)
C10 C 0.62214(19) 0.6210(4) 0.6863(2)
C11 C 0.77405(19) 0.7463(5) 0.7661(2)
C12 C 0.8365(2) 0.7445(8) 0.8273(3)
H9 H 0.8645 0.7208 0.8053
H10 H 0.8391 0.6728 0.8652
H11 H 0.8461 0.8388 0.8511
Er1D Er 0.458148(8) 0.305762(18) 0.505085(10)
Zn1E Zn 0.71220(2) 0.51080(5) 0.83596(3)
Zn1F Zn 0.78780(2) 1.01080(5) 0.66404(3)
O3D O 0.45288(13) 0.5668(3) 0.50419(16)
O4D O 0.45895(15) 0.8036(3) 0.5179(2)
O6F O 0.80458(15) 0.5181(3) 0.42646(18)
O8E O 0.62062(15) 0.4567(4) 0.23918(19)
N3F N 0.74308(17) 0.6672(4) 0.2961(2)
N4E N 0.72836(17) 0.3351(4) 0.2669(2)
O11 O 0.43583(16) 1.0547(4) 0.29726(19)
H12 H 0.4256 1.0037 0.2573
H13 H 0.4504 1.1344 0.2909
O12 O 0.4006(5) 0.8859(12) 0.1651(6)
H14 H 0.3762 0.8167 0.1469
H15 H 0.4040 0.9322 0.1290
O13 O 0.5000 0.734(2) 0.2500
H16 H 0.4703 0.7893 0.2286
H16A H 0.5297 0.7893 0.2714
O14 O 0.5000 1.314(2) 0.2500
H17 H 0.5230 1.3650 0.2869
H17A H 0.4770 1.3650 0.2131
loop_
_geom_bond_atom_site_label_1
_geom_bond_atom_site_label_2
_geom_bond_site_symmetry_1
_geom_bond_site_symmetry_2
Er1 O1 1_555 1_555
Zn1 O2 1_555 1_555
O1 C1 1_555 1_555
O2 C1 1_555 1_555
O3 Er1 1_555 1_555
O4 C4 1_555 1_555
O5 Er1 1_555 1_555
O6 C7 1_555 1_555
O7 Er1 1_555 1_555
O8 C10 1_555 1_555
O9 Er1 1_555 1_555
H1 O9 1_555 1_555
H2 O9 1_555 1_555
O10 Er1 1_555 1_555
H3 O10 1_555 1_555
H4 O10 1_555 1_555
N1 Zn1 1_555 1_555
N2 H5 1_555 1_555
N3 C8 1_555 1_555
N4 C9 1_555 1_555
C1 C2 1_555 1_555
C2 N1 1_555 1_555
C3 N2 1_555 1_555
C4 O3 1_555 1_555
C5 N1 1_555 1_555
C6 C5 1_555 1_555
H6 C6 1_555 1_555
H7 C6 1_555 1_555
H8 C6 1_555 1_555
C7 O5 1_555 1_555
C8 C7 1_555 1_555
C9 C8 1_555 1_555
C10 O7 1_555 1_555
C11 N3 1_555 1_555
C12 C11 1_555 1_555
H9 C12 1_555 1_555
H10 C12 1_555 1_555
H11 C12 1_555 1_555
O11 H12 1_555 1_555
H13 O11 1_555 1_555
O12 H14 1_555 1_555
H15 O12 1_555 1_555
O13 H16 1_555 1_555
O14 H17 1_555 1_555
Er1D O3 1_555 1_555
Zn1E O8 1_555 1_555
Zn1F O6 1_555 1_555
O3D Er1 1_555 1_555
O4D Er1 1_555 1_555
O6F Zn1 1_555 1_555
O8E Zn1 1_555 1_555
N3F Zn1 1_555 1_555
N4E Zn1 1_555 1_555
H16A O13 1_555 1_555
H17A O14 1_555 1_555
O4 Er1D 1_555 1_555
N2 C5 1_555 1_555
N3 Zn1F 1_555 1_555
N4 C11 1_555 1_555
N4 Zn1E 1_555 1_555
C2 C3 1_555 1_555
C3 C4 1_555 1_555
C9 C10 1_555 1_555
Er1D O3D 1_555 1_555

#END
