
#######################################################################
#
#                 Cambridge Crystallographic Data Centre
#                                CCDC 
#
#######################################################################
#
# If this CIF has been generated from an entry in the Cambridge 
# Structural Database, then it will include bibliographic, chemical, 
# crystal, experimental, refinement or atomic coordinate data resulting 
# from the CCDC's data processing and validation procedures.
#
#######################################################################

data_ZOXTUD
_symmetry_cell_setting           monoclinic
_symmetry_space_group_name_H-M   'C 2/c'
_symmetry_Int_Tables_number      15
_space_group_name_Hall           '-C 2yn'
loop_
_symmetry_equiv_pos_site_id
_symmetry_equiv_pos_as_xyz
1 x,y,z
2 -x,y,1/2-z
3 1/2+x,1/2+y,z
4 1/2-x,1/2+y,1/2-z
5 -x,-y,-z
6 x,-y,1/2+z
7 1/2-x,1/2-y,-z
8 1/2+x,1/2-y,1/2+z
_cell_length_a                   24.339(3)
_cell_length_b                   9.1443(12)
_cell_length_c                   19.064(2)
_cell_angle_alpha                90
_cell_angle_beta                 114.6550(10)
_cell_angle_gamma                90
_cell_volume                     3856.14
loop_
_atom_site_label
_atom_site_type_symbol
_atom_site_fract_x
_atom_site_fract_y
_atom_site_fract_z
Tb1 Tb 0.542350(13) 0.69517(3) 0.494230(18)
Co1 Co 0.71142(4) 0.48790(10) 0.33683(5)
O1 O 0.6152(2) 0.6456(6) 0.4548(3)
O2 O 0.6675(2) 0.6302(5) 0.3842(3)
O3 O 0.54759(19) 0.4316(5) 0.4953(3)
O4 O 0.5411(2) 0.1940(5) 0.4820(3)
O5 O 0.6104(2) 0.8773(5) 0.5537(3)
O6 O 0.6981(2) 0.9804(5) 0.5748(3)
O7 O 0.5784(2) 0.6336(6) 0.6225(3)
O8 O 0.62324(19) 0.5428(5) 0.7413(3)
O9 O 0.5182(2) 0.9141(5) 0.4161(3)
H1 H 0.5426 0.9802 0.4402
H2 H 0.4828 0.9411 0.4069
O10 O 0.4798(2) 0.6318(5) 0.3653(3)
H3 H 0.4594 0.5577 0.3652
H4 H 0.5014 0.6136 0.3411
N1 N 0.6836(2) 0.3433(6) 0.4038(3)
N2 N 0.6414(3) 0.1777(6) 0.4481(4)
H5 H 0.6318 0.0914 0.4601
N3 N 0.7583(2) 0.8367(6) 0.7071(3)
N4 N 0.7299(2) 0.6683(6) 0.7702(3)
C1 C 0.6416(3) 0.5731(7) 0.4223(4)
C2 C 0.6445(3) 0.4120(7) 0.4291(4)
C3 C 0.6175(3) 0.3092(7) 0.4570(4)
C4 C 0.5668(3) 0.3139(8) 0.4796(4)
C5 C 0.6814(3) 0.2018(8) 0.4182(4)
C6 C 0.7162(4) 0.0843(9) 0.4020(5)
H6 H 0.7564 0.1182 0.4139
H7 H 0.6967 0.0579 0.3485
H8 H 0.7180 0.0005 0.4333
C7 C 0.6665(3) 0.8921(7) 0.5929(4)
C8 C 0.6986(3) 0.8064(7) 0.6642(4)
C9 C 0.6804(3) 0.7006(7) 0.7030(4)
C10 C 0.6245(3) 0.6225(7) 0.6879(4)
C11 C 0.7749(3) 0.7517(8) 0.7694(4)
C12 C 0.8367(4) 0.7505(11) 0.8331(5)
H9 H 0.8510 0.8491 0.8455
H10 H 0.8634 0.6970 0.8171
H11 H 0.8356 0.7046 0.8778
Tb1D Tb 0.457650(13) 0.30483(3) 0.505770(18)
Co1E Co 0.71142(4) 0.51210(10) 0.83683(5)
Co1F Co 0.78858(4) 1.01210(10) 0.66317(5)
O3D O 0.45241(19) 0.5684(5) 0.5047(3)
O4D O 0.4589(2) 0.8060(5) 0.5180(3)
O6F O 0.8019(2) 0.5196(5) 0.4252(3)
O8E O 0.62324(19) 0.4572(5) 0.2413(3)
N3F N 0.7417(2) 0.6633(6) 0.2929(3)
N4E N 0.7299(2) 0.3317(6) 0.2702(3)
O11 O 0.4342(2) 1.0551(5) 0.2940(3)
H12 H 0.4240 1.0041 0.2540
H13 H 0.4488 1.1347 0.2877
O12 O 0.4104(8) 0.849(2) 0.1868(11)
H14 H 0.3862 0.7796 0.1692
H15 H 0.4137 0.8947 0.1502
O13 O 0.5000 0.737(5) 0.2500
H16 H 0.4703 0.7929 0.2286
H16A H 0.5297 0.7929 0.2714
O14 O 0.5000 1.292(3) 0.2500
H17 H 0.5230 1.3431 0.2869
H17A H 0.4770 1.3431 0.2131
loop_
_geom_bond_atom_site_label_1
_geom_bond_atom_site_label_2
_geom_bond_site_symmetry_1
_geom_bond_site_symmetry_2
Tb1 O1 1_555 1_555
Co1 O2 1_555 1_555
O1 C1 1_555 1_555
O2 C1 1_555 1_555
O3 Tb1 1_555 1_555
O4 C4 1_555 1_555
O5 Tb1 1_555 1_555
O6 C7 1_555 1_555
O7 Tb1 1_555 1_555
O8 C10 1_555 1_555
O9 Tb1 1_555 1_555
H1 O9 1_555 1_555
H2 O9 1_555 1_555
O10 Tb1 1_555 1_555
H3 O10 1_555 1_555
H4 O10 1_555 1_555
N1 Co1 1_555 1_555
N2 H5 1_555 1_555
N3 C8 1_555 1_555
N4 C9 1_555 1_555
C1 C2 1_555 1_555
C2 N1 1_555 1_555
C3 N2 1_555 1_555
C4 O3 1_555 1_555
C5 N1 1_555 1_555
C6 C5 1_555 1_555
H6 C6 1_555 1_555
H7 C6 1_555 1_555
H8 C6 1_555 1_555
C7 O5 1_555 1_555
C8 C7 1_555 1_555
C9 C8 1_555 1_555
C10 O7 1_555 1_555
C11 N3 1_555 1_555
C12 C11 1_555 1_555
H9 C12 1_555 1_555
H10 C12 1_555 1_555
H11 C12 1_555 1_555
O11 H12 1_555 1_555
H13 O11 1_555 1_555
O12 H14 1_555 1_555
H15 O12 1_555 1_555
O13 H16 1_555 1_555
O14 H17 1_555 1_555
Tb1D O3 1_555 1_555
Co1E O8 1_555 1_555
Co1F O6 1_555 1_555
O3D Tb1 1_555 1_555
O4D Tb1 1_555 1_555
O6F Co1 1_555 1_555
O8E Co1 1_555 1_555
N3F Co1 1_555 1_555
N4E Co1 1_555 1_555
H16A O13 1_555 1_555
H17A O14 1_555 1_555
O4 Tb1D 1_555 1_555
N2 C5 1_555 1_555
N3 Co1F 1_555 1_555
N4 C11 1_555 1_555
N4 Co1E 1_555 1_555
C2 C3 1_555 1_555
C3 C4 1_555 1_555
C9 C10 1_555 1_555
Tb1D O3D 1_555 1_555

#END
