
#######################################################################
#
#                 Cambridge Crystallographic Data Centre
#                                CCDC 
#
#######################################################################
#
# If this CIF has been generated from an entry in the Cambridge 
# Structural Database, then it will include bibliographic, chemical, 
# crystal, experimental, refinement or atomic coordinate data resulting 
# from the CCDC's data processing and validation procedures.
#
#######################################################################

data_ZOXTAJ
_symmetry_cell_setting           monoclinic
_symmetry_space_group_name_H-M   'P 21/c'
_symmetry_Int_Tables_number      14
_space_group_name_Hall           '-P 2ybc'
loop_
_symmetry_equiv_pos_site_id
_symmetry_equiv_pos_as_xyz
1 x,y,z
2 -x,1/2+y,1/2-z
3 -x,-y,-z
4 x,1/2-y,1/2+z
_cell_length_a                   12.9828(10)
_cell_length_b                   11.5064(9)
_cell_length_c                   13.0127(10)
_cell_angle_alpha                90
_cell_angle_beta                 115.424(1)
_cell_angle_gamma                90
_cell_volume                     1755.65
loop_
_atom_site_label
_atom_site_type_symbol
_atom_site_fract_x
_atom_site_fract_y
_atom_site_fract_z
Nd1 Nd 0.37129(4) 0.29557(4) 0.16382(4)
Zn1 Zn 0.05526(10) 0.54572(9) 0.33276(10)
O1 O 0.2166(6) 0.1832(6) 0.1169(7)
O2 O 0.0870(6) 0.0588(6) 0.1170(6)
O3 O 0.2521(7) 0.4267(6) 0.1757(7)
O4 O 0.1784(6) 0.5425(5) 0.2626(6)
O5 O 0.4554(7) 0.1147(7) 0.2327(6)
O6 O 0.4821(7) -0.0763(7) 0.2713(7)
O7 O 0.4144(8) 0.2962(6) 0.3547(7)
O8 O 0.3953(8) 0.2944(6) 0.5159(7)
O9 O 0.1719(7) 0.5704(6) 0.4918(6)
H1 H 0.1488 0.5413 0.5373
H2 H 0.2333 0.5382 0.5007
N1 N 0.0476(7) 0.3790(7) 0.2890(7)
N2 N 0.0161(8) 0.1957(7) 0.2381(8)
N3 N 0.3252(8) 0.0724(7) 0.4905(7)
N4 N 0.3507(8) -0.0681(8) 0.3894(7)
H3 H 0.3518 -0.1385 0.3636
C1 C 0.1362(8) 0.1570(8) 0.1413(8)
C2 C 0.0932(9) 0.2383(8) 0.2020(8)
C3 C 0.1117(8) 0.3526(8) 0.2320(8)
C4 C 0.1879(9) 0.4452(8) 0.2234(8)
C5 C -0.0085(10) 0.2846(8) 0.2894(10)
C6 C -0.0811(13) 0.2772(11) 0.3523(13)
H4 H -0.0645 0.3416 0.4039
H5 H -0.0655 0.2058 0.3945
H6 H -0.1601 0.2794 0.2991
C7 C 0.4433(9) 0.0247(9) 0.2789(9)
C8 C 0.3855(9) 0.0304(9) 0.3565(9)
C9 C 0.3694(8) 0.1170(8) 0.4193(8)
C10 C 0.3936(10) 0.2425(9) 0.4271(8)
C11 C 0.3142(10) -0.0393(9) 0.4681(10)
C12 C 0.2642(13) -0.1295(11) 0.5191(12)
H7 H 0.3220 -0.1554 0.5908
H8 H 0.2367 -0.1945 0.4682
H9 H 0.2023 -0.0957 0.5304
Nd1A Nd 0.62871(4) -0.20443(4) 0.33618(4)
Nd1C Nd 0.37129(4) 0.20443(4) 0.66382(4)
Zn1A Zn -0.05526(10) 0.04572(9) 0.16724(10)
O2A O -0.0870(6) 0.5588(6) 0.3830(6)
O6A O 0.5179(7) 0.4237(7) 0.2287(7)
O8C O 0.3953(8) 0.2056(6) 0.0159(7)
N2A N -0.0161(8) 0.6957(7) 0.2619(8)
N3C N 0.3252(8) 0.4276(7) -0.0095(7)
O10 O 0.3873(7) 0.5425(7) 0.5156(7)
H10 H 0.4330 0.5538 0.5838
H11 H 0.3954 0.4746 0.4966
O11 O 0.3569(9) -0.2983(8) 0.3283(9)
H12 H 0.2971 -0.3377 0.3096
H13 H 0.4109 -0.3288 0.3842
loop_
_geom_bond_atom_site_label_1
_geom_bond_atom_site_label_2
_geom_bond_site_symmetry_1
_geom_bond_site_symmetry_2
Nd1 O1 1_555 1_555
Zn1 O4 1_555 1_555
O1 C1 1_555 1_555
O2 C1 1_555 1_555
O3 Nd1 1_555 1_555
O4 C4 1_555 1_555
O5 Nd1 1_555 1_555
O6 C7 1_555 1_555
O7 Nd1 1_555 1_555
O8 C10 1_555 1_555
O9 Zn1 1_555 1_555
H1 O9 1_555 1_555
H2 O9 1_555 1_555
N1 Zn1 1_555 1_555
N2 C2 1_555 1_555
N3 C9 1_555 1_555
N4 H3 1_555 1_555
C1 C2 1_555 1_555
C2 C3 1_555 1_555
C3 N1 1_555 1_555
C4 O3 1_555 1_555
C5 N1 1_555 1_555
C6 C5 1_555 1_555
H4 C6 1_555 1_555
H5 C6 1_555 1_555
H6 C6 1_555 1_555
C7 O5 1_555 1_555
C8 N4 1_555 1_555
C9 C8 1_555 1_555
C10 O7 1_555 1_555
C11 N3 1_555 1_555
C12 C11 1_555 1_555
H7 C12 1_555 1_555
H8 C12 1_555 1_555
H9 C12 1_555 1_555
O10 H10 1_555 1_555
H11 O10 1_555 1_555
O11 H12 1_555 1_555
H13 O11 1_555 1_555
Nd1A O6 1_555 1_555
Nd1C O8 1_555 1_555
Zn1A O2 1_555 1_555
O2A Zn1 1_555 1_555
O6A Nd1 1_555 1_555
O8C Nd1 1_555 1_555
N2A Zn1 1_555 1_555
N3C Nd1 1_555 1_555
N2 C5 1_555 1_555
N2 Zn1A 1_555 1_555
N3 Nd1C 1_555 1_555
N4 C11 1_555 1_555
C3 C4 1_555 1_555
C7 C8 1_555 1_555
C9 C10 1_555 1_555

#END
