
#######################################################################
#
#                 Cambridge Crystallographic Data Centre
#                                CCDC 
#
#######################################################################
#
# If this CIF has been generated from an entry in the Cambridge 
# Structural Database, then it will include bibliographic, chemical, 
# crystal, experimental, refinement or atomic coordinate data resulting 
# from the CCDC's data processing and validation procedures.
#
#######################################################################

data_ZOXTEN
_symmetry_cell_setting           monoclinic
_symmetry_space_group_name_H-M   'C 2/c'
_symmetry_Int_Tables_number      15
_space_group_name_Hall           '-C 2yn'
loop_
_symmetry_equiv_pos_site_id
_symmetry_equiv_pos_as_xyz
1 x,y,z
2 -x,y,1/2-z
3 1/2+x,1/2+y,z
4 1/2-x,1/2+y,1/2-z
5 -x,-y,-z
6 x,-y,1/2+z
7 1/2-x,1/2-y,-z
8 1/2+x,1/2-y,1/2+z
_cell_length_a                   24.1912(11)
_cell_length_b                   9.1774(4)
_cell_length_c                   19.0096(9)
_cell_angle_alpha                90
_cell_angle_beta                 113.911(1)
_cell_angle_gamma                90
_cell_volume                     3858.16
loop_
_atom_site_label
_atom_site_type_symbol
_atom_site_fract_x
_atom_site_fract_y
_atom_site_fract_z
Ho1 Ho 0.541601(9) 0.69446(2) 0.494865(12)
Zn1 Zn 0.71217(3) 0.48835(6) 0.33532(3)
O1 O 0.6145(2) 0.6490(5) 0.4555(3)
O2 O 0.6643(2) 0.6340(4) 0.3811(3)
O3 O 0.54703(15) 0.4333(4) 0.4953(2)
O4 O 0.54174(18) 0.1979(4) 0.4826(3)
O5 O 0.60861(17) 0.8760(4) 0.5539(2)
O6 O 0.69579(18) 0.9830(4) 0.5740(2)
O7 O 0.57757(17) 0.6319(5) 0.6217(2)
O8 O 0.62098(17) 0.5437(5) 0.7385(2)
O9 O 0.51910(19) 0.9116(4) 0.4186(2)
H1 H 0.5435 0.9776 0.4427
H2 H 0.4837 0.9385 0.4094
O10 O 0.48040(18) 0.6316(4) 0.3692(2)
H3 H 0.4600 0.5575 0.3691
H4 H 0.5020 0.6134 0.3451
N1 N 0.6848(2) 0.3501(5) 0.4042(3)
N2 N 0.6440(2) 0.1837(5) 0.4506(3)
H5 H 0.6358 0.0978 0.4646
N3 N 0.75685(19) 0.8347(5) 0.7039(3)
N4 N 0.7284(2) 0.6659(5) 0.7667(3)
C1 C 0.6400(2) 0.5785(6) 0.4207(3)
C2 C 0.6447(2) 0.4171(6) 0.4290(3)
C3 C 0.6181(3) 0.3144(6) 0.4572(3)
C4 C 0.5669(2) 0.3168(5) 0.4801(3)
C5 C 0.6839(3) 0.2096(6) 0.4192(3)
C6 C 0.7198(3) 0.0934(7) 0.4033(4)
H6 H 0.7584 0.1317 0.4094
H7 H 0.6987 0.0588 0.3516
H8 H 0.7256 0.0142 0.4386
C7 C 0.6652(2) 0.8914(5) 0.5920(3)
C8 C 0.6968(2) 0.8046(5) 0.6615(3)
C9 C 0.6791(2) 0.7006(5) 0.7002(3)
C10 C 0.6224(2) 0.6219(5) 0.6858(3)
C11 C 0.7738(2) 0.7482(6) 0.7654(3)
C12 C 0.8363(3) 0.7464(9) 0.8269(4)
H9 H 0.8634 0.7923 0.8082
H10 H 0.8488 0.6475 0.8410
H11 H 0.8370 0.7983 0.8711
Ho1D Ho 0.458399(9) 0.30554(2) 0.505135(12)
Zn1E Zn 0.71217(3) 0.51165(6) 0.83532(3)
Zn1F Zn 0.78783(3) 1.01165(6) 0.66468(3)
O3D O 0.45297(15) 0.5667(4) 0.5047(2)
O4D O 0.45826(18) 0.8021(4) 0.5174(3)
O6F O 0.80421(18) 0.5170(4) 0.4260(2)
O8E O 0.62098(17) 0.4563(5) 0.2385(2)
N3F N 0.74315(19) 0.6653(5) 0.2961(3)
N4E N 0.7284(2) 0.3341(5) 0.2667(3)
O11 O 0.43476(18) 1.0548(4) 0.2980(2)
H12 H 0.4245 1.0038 0.2580
H13 H 0.4493 1.1345 0.2916
O12 O 0.3988(4) 0.8910(10) 0.1629(5)
H14 H 0.3746 0.8214 0.1453
H15 H 0.4021 0.9365 0.1264
O13 O 0.5000 0.7335(18) 0.2500
H16 H 0.4703 0.7893 0.2286
H16A H 0.5297 0.7893 0.2714
O14 O 0.5000 1.312(3) 0.2500
H17 H 0.5230 1.3629 0.2869
H17A H 0.4770 1.3629 0.2131
loop_
_geom_bond_atom_site_label_1
_geom_bond_atom_site_label_2
_geom_bond_site_symmetry_1
_geom_bond_site_symmetry_2
Ho1 O1 1_555 1_555
Zn1 O2 1_555 1_555
O1 C1 1_555 1_555
O2 C1 1_555 1_555
O3 Ho1 1_555 1_555
O4 C4 1_555 1_555
O5 Ho1 1_555 1_555
O6 C7 1_555 1_555
O7 Ho1 1_555 1_555
O8 C10 1_555 1_555
O9 Ho1 1_555 1_555
H1 O9 1_555 1_555
H2 O9 1_555 1_555
O10 Ho1 1_555 1_555
H3 O10 1_555 1_555
H4 O10 1_555 1_555
N1 Zn1 1_555 1_555
N2 H5 1_555 1_555
N3 C8 1_555 1_555
N4 C9 1_555 1_555
C1 C2 1_555 1_555
C2 N1 1_555 1_555
C3 N2 1_555 1_555
C4 O3 1_555 1_555
C5 N1 1_555 1_555
C6 C5 1_555 1_555
H6 C6 1_555 1_555
H7 C6 1_555 1_555
H8 C6 1_555 1_555
C7 O5 1_555 1_555
C8 C7 1_555 1_555
C9 C8 1_555 1_555
C10 O7 1_555 1_555
C11 N3 1_555 1_555
C12 C11 1_555 1_555
H9 C12 1_555 1_555
H10 C12 1_555 1_555
H11 C12 1_555 1_555
O11 H12 1_555 1_555
H13 O11 1_555 1_555
O12 H14 1_555 1_555
H15 O12 1_555 1_555
O13 H16 1_555 1_555
O14 H17 1_555 1_555
Ho1D O3 1_555 1_555
Zn1E O8 1_555 1_555
Zn1F O6 1_555 1_555
O3D Ho1 1_555 1_555
O4D Ho1 1_555 1_555
O6F Zn1 1_555 1_555
O8E Zn1 1_555 1_555
N3F Zn1 1_555 1_555
N4E Zn1 1_555 1_555
H16A O13 1_555 1_555
H17A O14 1_555 1_555
O4 Ho1D 1_555 1_555
N2 C5 1_555 1_555
N3 Zn1F 1_555 1_555
N4 C11 1_555 1_555
N4 Zn1E 1_555 1_555
C2 C3 1_555 1_555
C3 C4 1_555 1_555
C9 C10 1_555 1_555
Ho1D O3D 1_555 1_555

#END
