
#######################################################################
#
#                 Cambridge Crystallographic Data Centre
#                                CCDC 
#
#######################################################################
#
# If this CIF has been generated from an entry in the Cambridge 
# Structural Database, then it will include bibliographic, chemical, 
# crystal, experimental, refinement or atomic coordinate data resulting 
# from the CCDC's data processing and validation procedures.
#
#######################################################################

data_ZOXZOB
_symmetry_cell_setting           monoclinic
_symmetry_space_group_name_H-M   'C 2/c'
_symmetry_Int_Tables_number      15
_space_group_name_Hall           '-C 2yn'
loop_
_symmetry_equiv_pos_site_id
_symmetry_equiv_pos_as_xyz
1 x,y,z
2 -x,y,1/2-z
3 1/2+x,1/2+y,z
4 1/2-x,1/2+y,1/2-z
5 -x,-y,-z
6 x,-y,1/2+z
7 1/2-x,1/2-y,-z
8 1/2+x,1/2-y,1/2+z
_cell_length_a                   11.792(2)
_cell_length_b                   17.123(3)
_cell_length_c                   17.051(5)
_cell_angle_alpha                90
_cell_angle_beta                 90.04(4)
_cell_angle_gamma                90
_cell_volume                     3442.84
loop_
_atom_site_label
_atom_site_type_symbol
_atom_site_fract_x
_atom_site_fract_y
_atom_site_fract_z
Cu1 Cu 0.24828(4) 0.06713(3) 0.42055(3)
N1 N 0.1039(2) 0.0265(2) 0.4711(2)
N2 N 0.3966(2) 0.0238(2) 0.4686(2)
N3 N 0.2556(2) 0.1779(2) 0.4626(2)
N4 N 0.2484(3) 0.0336(2) 0.3087(2)
N5 N 0.2346(4) -0.0317(2) 0.1590(2)
C1 C 0.0307(3) 0.0738(2) 0.5072(2)
C2 C 0.0715(3) -0.0476(2) 0.4644(2)
C3 C 0.4924(3) 0.0639(2) 0.4567(2)
C4 C 0.4051(3) -0.0404 0.5125(2)
C5 C 0.1681(3) 0.0551(2) 0.2573(2)
C6 C 0.1633(4) 0.0222(3) 0.1834(2)
C7 C 0.3203(4) -0.0202(3) 0.2841(2)
C8 C 0.3143(4) -0.0523(3) 0.2103(3)
C9 C 0.2748(4) 0.1863(2) 0.5398(2)
C10 C 0.2305(3) 0.2428(2) 0.4236(2)
H1 H 0.050(3) 0.122(2) 0.513(2)
H2 H 0.115(4) -0.075(2) 0.442(2)
H3 H 0.489(3) 0.108(2) 0.428(2)
H4 H 0.335(3) -0.067(2) 0.520(2)
H5 H 0.283(3) 0.145(2) 0.568(2)
H6 H 0.225(3) 0.239(2) 0.378(2)
H7 H 0.118(3) 0.096(2) 0.272(2)
H8 H 0.108(4) 0.032(3) 0.152(3)
H9 H 0.357(4) -0.092(2) 0.196(2)
H10 H 0.367 -0.034 0.314
C2D C -0.0715(3) 0.0476(2) 0.5356(2)
N1D N -0.1039(2) -0.0265(2) 0.5289(2)
C1D C -0.0307(3) -0.0738(2) 0.4928(2)
H1D H -0.050(3) -0.122(2) 0.487(2)
H2D H -0.115(4) 0.075(2) 0.558(2)
C4D C 0.5949(3) 0.0404 0.4875(2)
N2D N 0.6034(2) -0.0238(2) 0.5314(2)
C3D C 0.5076(3) -0.0639(2) 0.5433(2)
H3D H 0.511(3) -0.108(2) 0.572(2)
H4D H 0.665(3) 0.067(2) 0.480(2)
C10F C 0.2695(3) 0.2572(2) 0.5764(2)
N3F N 0.2444(2) 0.3221(2) 0.5374(2)
C9F C 0.2252(4) 0.3137(2) 0.4602(2)
H5F H 0.217(3) 0.355(2) 0.432(2)
H6F H 0.275(3) 0.261(2) 0.622(2)
Cu1D Cu -0.24828(4) -0.06713(3) 0.57945(3)
N4D N -0.2484(3) -0.0336(2) 0.6913(2)
N5D N -0.2346(4) 0.0317(2) 0.8410(2)
C5D C -0.1681(3) -0.0551(2) 0.7427(2)
C6D C -0.1633(4) -0.0222(3) 0.8166(2)
C7D C -0.3203(4) 0.0202(3) 0.7159(2)
C8D C -0.3143(4) 0.0523(3) 0.7897(3)
H7D H -0.118(3) -0.096(2) 0.728(2)
H8D H -0.108(4) -0.032(3) 0.848(3)
H9D H -0.357(4) 0.092(2) 0.804(2)
H10D H -0.367 0.034 0.686
Cu1D_2 Cu 0.75172(4) -0.06713(3) 0.57945(3)
Cu1F Cu 0.25172(4) 0.43287(3) 0.57945(3)
N2D_2 N -0.3966(2) -0.0238(2) 0.5314(2)
N3D N -0.2556(2) -0.1779(2) 0.5374(2)
N6 N -0.0424(4) 0.2404(3) 0.6780(3)
C11 C 0.0259(7) 0.3004(5) 0.6989(5)
C12 C -0.062(1) 0.1794(6) 0.7317(6)
C13 C 0.0236(8) 0.1803(5) 0.6945(5)
C14 C -0.0661(9) 0.3017(6) 0.7288(6)
C12A C 0.062(1) 0.1794(6) 0.7683(6)
N6A N 0.0424(4) 0.2404(3) 0.8220(3)
C11A C -0.0259(7) 0.3004(5) 0.8011(5)
C14A C 0.0661(9) 0.3017(6) 0.7712(6)
C13A C -0.0236(8) 0.1803(5) 0.8055(5)
Nb1 Nb 0.11675(3) 0.25468(2) 0.12060(2)
F1 F 0.0582(2) 0.2556(1) 0.0174(1)
F2 F 0.2205(2) 0.1763(1) 0.0922(1)
F3 F 0.2245(2) 0.3320(1) 0.0955(1)
F4 F 0.0132(2) 0.3350(1) 0.1459(1)
F5 F 0.0086(2) 0.1771(1) 0.1466(1)
F6 F 0.1702(2) 0.2526(2) 0.2244(1)
loop_
_geom_bond_atom_site_label_1
_geom_bond_atom_site_label_2
_geom_bond_site_symmetry_1
_geom_bond_site_symmetry_2
Nb1 F1 1_555 1_555
Cu1 N1 1_555 1_555
F2 Nb1 1_555 1_555
F3 Nb1 1_555 1_555
F4 Nb1 1_555 1_555
F5 Nb1 1_555 1_555
F6 Nb1 1_555 1_555
N1 C1 1_555 1_555
N2 Cu1 1_555 1_555
N3 Cu1 1_555 1_555
N4 Cu1 1_555 1_555
N5 C6 1_555 1_555
N6 C11 1_555 1_555
C1 H1 1_555 1_555
C2 N1 1_555 1_555
C3 N2 1_555 1_555
C4 N2 1_555 1_555
C5 N4 1_555 1_555
C6 C5 1_555 1_555
C7 N4 1_555 1_555
C8 N5 1_555 1_555
C9 N3 1_555 1_555
C10 N3 1_555 1_555
C11 C14 1_555 1_555
C12 N6 1_555 1_555
C13 N6 1_555 1_555
C14 N6 1_555 1_555
H2 C2 1_555 1_555
H3 C3 1_555 1_555
H4 C4 1_555 1_555
H5 C9 1_555 1_555
H6 C10 1_555 1_555
H7 C5 1_555 1_555
H8 C6 1_555 1_555
H9 C8 1_555 1_555
H10 C7 1_555 1_555
C2D C1 1_555 1_555
N1D C2D 1_555 1_555
C1D C2 1_555 1_555
H1D C1D 1_555 1_555
H2D C2D 1_555 1_555
C4D C3 1_555 1_555
N2D C4D 1_555 1_555
C3D C4 1_555 1_555
H3D C3D 1_555 1_555
H4D C4D 1_555 1_555
C10F C9 1_555 1_555
N3F C10F 1_555 1_555
C9F C10 1_555 1_555
H5F C9F 1_555 1_555
H6F C10F 1_555 1_555
C12A C12 1_555 1_555
N6A C12A 1_555 1_555
C11A C14 1_555 1_555
C14A C11 1_555 1_555
C13A C12 1_555 1_555
Cu1D N1D 1_555 1_555
N4D Cu1D 1_555 1_555
N5D C6D 1_555 1_555
C5D N4D 1_555 1_555
C6D C5D 1_555 1_555
C7D N4D 1_555 1_555
C8D N5D 1_555 1_555
H7D C5D 1_555 1_555
H8D C6D 1_555 1_555
H9D C8D 1_555 1_555
H10D C7D 1_555 1_555
Cu1D_2 N2D 1_555 1_555
Cu1F N3F 1_555 1_555
N2D_2 Cu1D 1_555 1_555
N3D Cu1D 1_555 1_555
C7 C8 1_555 1_555
C12 C13 1_555 1_555
C13 C12A 1_555 1_555
C14 C14A 1_555 1_555
N1D C1D 1_555 1_555
N2D C3D 1_555 1_555
N3F C9F 1_555 1_555
C12A C13A 1_555 1_555
N6A C11A 1_555 1_555
N6A C13A 1_555 1_555
N6A C14A 1_555 1_555
C11A C14A 1_555 1_555
C7D C8D 1_555 1_555

#END
