
#######################################################################
#
#                 Cambridge Crystallographic Data Centre
#                                CCDC 
#
#######################################################################
#
# If this CIF has been generated from an entry in the Cambridge 
# Structural Database, then it will include bibliographic, chemical, 
# crystal, experimental, refinement or atomic coordinate data resulting 
# from the CCDC's data processing and validation procedures.
#
#######################################################################

data_ZOYJUU
_symmetry_cell_setting           monoclinic
_symmetry_space_group_name_H-M   'C 2/c'
_symmetry_Int_Tables_number      15
_space_group_name_Hall           '-C 2yn'
loop_
_symmetry_equiv_pos_site_id
_symmetry_equiv_pos_as_xyz
1 x,y,z
2 -x,y,1/2-z
3 1/2+x,1/2+y,z
4 1/2-x,1/2+y,1/2-z
5 -x,-y,-z
6 x,-y,1/2+z
7 1/2-x,1/2-y,-z
8 1/2+x,1/2-y,1/2+z
_cell_length_a                   28.045(19)
_cell_length_b                   4.536(3)
_cell_length_c                   15.597(11)
_cell_angle_alpha                90
_cell_angle_beta                 116.200(7)
_cell_angle_gamma                90
_cell_volume                     1780.27
loop_
_atom_site_label
_atom_site_type_symbol
_atom_site_fract_x
_atom_site_fract_y
_atom_site_fract_z
Mn1 Mn 0.7500 -0.7500 0.0000
N1 N 0.68139(16) -0.5372(10) 0.0234(3)
H1 H 0.690(2) -0.361(16) 0.040(4)
H2 H 0.6552(17) -0.512(14) -0.032(2)
O1 O 0.53548(19) -1.2655(10) -0.0288(3)
O2 O 0.54376(16) -1.3718(11) 0.1165(3)
H3 H 0.5189 -1.4825 0.0856
O3 O 0.69269(13) -0.9422(8) 0.4007(2)
O4 O 0.73198(14) -0.5403(8) 0.3790(2)
C1 C 0.5583(2) -1.2358(11) 0.0595(4)
C2 C 0.70098(18) -0.7559(9) 0.3490(3)
C3 C 0.60409(17) -1.0335(10) 0.1039(3)
C4 C 0.62079(18) -0.8806(11) 0.0445(3)
H4 H 0.6037 -0.9097 -0.0212
C5 C 0.66303(17) -0.6842(11) 0.0838(3)
C6 C 0.68829(17) -0.6415(10) 0.1828(3)
H5 H 0.7161 -0.5073 0.2091
C7 C 0.67215(18) -0.7977(10) 0.2418(3)
C8 C 0.63017(18) -0.9976(10) 0.2030(3)
H6 H 0.6197 -1.1054 0.2425
N1F N 0.81861(16) -0.9628(10) -0.0234(3)
H1F H 0.810(2) -1.139(16) -0.040(4)
H2F H 0.8448(17) -0.988(14) 0.032(2)
O1F O 0.96452(19) -0.2345(10) 0.0288(3)
O2F O 0.95624(16) -0.1282(11) -0.1165(3)
H3F H 0.9811 -0.0175 -0.0856
O3F O 0.80731(13) -0.5578(8) -0.4007(2)
O4F O 0.76802(14) -0.9597(8) -0.3790(2)
C1F C 0.9417(2) -0.2642(11) -0.0595(4)
C2F C 0.79902(18) -0.7441(9) -0.3490(3)
C3F C 0.89591(17) -0.4665(10) -0.1039(3)
C4F C 0.87921(18) -0.6194(11) -0.0445(3)
H4F H 0.8963 -0.5903 0.0212
C5F C 0.83697(17) -0.8158(11) -0.0838(3)
C6F C 0.81171(17) -0.8585(10) -0.1828(3)
H5F H 0.7839 -0.9927 -0.2091
C7F C 0.82785(18) -0.7023(10) -0.2418(3)
C8F C 0.86983(18) -0.5024(10) -0.2030(3)
H6F H 0.8803 -0.3946 -0.2425
Mn1C Mn 0.7500 -1.2500 -0.5000
Mn1C_2 Mn 0.7500 -1.2500 0.5000
Mn1C_3 Mn 0.7500 -0.2500 -0.5000
Mn1C_4 Mn 0.7500 -0.2500 0.5000
O3C O 0.80731(13) -0.4422(8) 0.0993(2)
O3E O 0.69269(13) -1.0578(8) -0.0993(2)
O4C O 0.76802(14) -1.0403(8) 0.1210(2)
O4E O 0.73198(14) -0.4597(8) -0.1210(2)
O5 O 0.5768(6) -1.462(4) -0.1722(9)
H7 H 0.5604 -1.6219 -0.1755
H8 H 0.5758 -1.5599 -0.2194
O6 O 0.5000 -1.091(6) -0.2500
H9 H 0.4708 -1.1828 -0.2796
H9A H 0.5292 -1.1828 -0.2204
loop_
_geom_bond_atom_site_label_1
_geom_bond_atom_site_label_2
_geom_bond_site_symmetry_1
_geom_bond_site_symmetry_2
Mn1 N1 1_555 1_555
N1 H1 1_555 1_555
H2 N1 1_555 1_555
O1 C1 1_555 1_555
O2 H3 1_555 1_555
O3 C2 1_555 1_555
O4 C2 1_555 1_555
C1 O2 1_555 1_555
C2 C7 1_555 1_555
C3 C1 1_555 1_555
C4 C3 1_555 1_555
H4 C4 1_555 1_555
C5 N1 1_555 1_555
C6 C5 1_555 1_555
H5 C6 1_555 1_555
C7 C6 1_555 1_555
C8 C3 1_555 1_555
H6 C8 1_555 1_555
O5 H7 1_555 1_555
H8 O5 1_555 1_555
O6 H9 1_555 1_555
N1F Mn1 1_555 1_555
H1F N1F 1_555 1_555
H2F N1F 1_555 1_555
O1F C1F 1_555 1_555
O2F H3F 1_555 1_555
O3F C2F 1_555 1_555
O4F C2F 1_555 1_555
C1F O2F 1_555 1_555
C2F C7F 1_555 1_555
C3F C1F 1_555 1_555
C4F C3F 1_555 1_555
H4F C4F 1_555 1_555
C5F N1F 1_555 1_555
C6F C5F 1_555 1_555
H5F C6F 1_555 1_555
C7F C6F 1_555 1_555
C8F C3F 1_555 1_555
H6F C8F 1_555 1_555
Mn1C O4F 1_555 1_555
Mn1C_2 O3 1_555 1_555
Mn1C_3 O3F 1_555 1_555
Mn1C_4 O4 1_555 1_555
O3C Mn1 1_555 1_555
O3E Mn1 1_555 1_555
O4C Mn1 1_555 1_555
O4E Mn1 1_555 1_555
H9A O6 1_555 1_555
C4 C5 1_555 1_555
C7 C8 1_555 1_555
C4F C5F 1_555 1_555
C7F C8F 1_555 1_555

#END
