
#######################################################################
#
#                 Cambridge Crystallographic Data Centre
#                                CCDC 
#
#######################################################################
#
# If this CIF has been generated from an entry in the Cambridge 
# Structural Database, then it will include bibliographic, chemical, 
# crystal, experimental, refinement or atomic coordinate data resulting 
# from the CCDC's data processing and validation procedures.
#
#######################################################################

data_ZOYKOP
_symmetry_cell_setting           triclinic
_symmetry_space_group_name_H-M   'P -1'
_symmetry_Int_Tables_number      2
_space_group_name_Hall           '-P 1'
loop_
_symmetry_equiv_pos_site_id
_symmetry_equiv_pos_as_xyz
1 x,y,z
2 -x,-y,-z
_cell_length_a                   5.62803(64)
_cell_length_b                   8.4717(14)
_cell_length_c                   10.3170(19)
_cell_angle_alpha                76.7846(97)
_cell_angle_beta                 87.540(15)
_cell_angle_gamma                73.483(17)
_cell_volume                     458.988
loop_
_atom_site_label
_atom_site_type_symbol
_atom_site_fract_x
_atom_site_fract_y
_atom_site_fract_z
C1 C 0.561(32) 0.858(38) 0.341(20)
C2 C 0.503(43) 1.014(33) 0.254(25)
C3 C 0.303(65) 1.057(23) 0.169(18)
C4 C 0.164(29) 0.951(39) 0.170(16)
C5 C 0.222(50) 0.798(28) 0.261(25)
C6 C 0.245(39) 1.221(17) 0.074(19)
C7 C 0.365(16) 1.345(12) 0.0850(92)
N1 N 0.425(41) 0.752(11) 0.345(18)
O1 O 0.092(14) 1.2496(91) -0.0122(64)
Co1 Co 0.50000 0.50000 0.50000
C8 C 0.032(26) 0.588(14) 0.637(12)
N2 N -0.197(12) 0.5363(93) 0.6108(86)
S1 S 0.2351(60) 0.6361(57) 0.6608(36)
H1 H 0.721699 0.820739 0.40792
H2 H 0.613479 1.101 0.252841
H3 H 0.008332 0.98565 0.100036
H4 H 0.106467 0.713228 0.266346
H5 H 0.564361 1.29407 0.076647
H6 H 0.296915 1.45728 0.005615
H7 H 0.325286 1.37826 0.181131
C8A C -0.032(26) 0.412(14) 0.363(12)
N2A N 0.197(12) 0.4637(93) 0.3892(86)
S1A S -0.2351(60) 0.3639(57) 0.3392(36)
C1A C 0.439(32) 0.142(38) 0.659(20)
C2A C 0.497(43) -0.014(33) 0.746(25)
C3A C 0.697(65) -0.057(23) 0.831(18)
C4A C 0.836(29) 0.049(39) 0.830(16)
C5A C 0.778(50) 0.202(28) 0.739(25)
C6A C 0.755(39) -0.221(17) 0.926(19)
C7A C 0.635(16) -0.345(12) 0.9150(92)
N1A N 0.575(41) 0.248(11) 0.655(18)
O1A O 0.908(14) -0.2496(91) 1.0122(64)
H1A H 0.278301 0.179261 0.59208
H2A H 0.386521 -0.101 0.747159
H3A H 0.991668 0.01435 0.899964
H4A H 0.893533 0.286772 0.733654
H5A H 0.435639 -0.29407 0.923353
H6A H 0.703085 -0.45728 0.994385
H7A H 0.674714 -0.37826 0.818869
Co1A Co -0.50000 0.50000 0.50000
N2_2 N 0.803(12) 0.5363(93) 0.6108(86)
S1A_2 S 0.7649(60) 0.3639(57) 0.3392(36)
loop_
_geom_bond_atom_site_label_1
_geom_bond_atom_site_label_2
_geom_bond_site_symmetry_1
_geom_bond_site_symmetry_2
C1 C2 1_555 1_555
C2 C3 1_555 1_555
C3 C4 1_555 1_555
C4 C5 1_555 1_555
C5 N1 1_555 1_555
C6 C3 1_555 1_555
C7 C6 1_555 1_555
N1 C1 1_555 1_555
O1 C6 1_555 1_555
Co1 N1 1_555 1_555
C8 N2 1_555 1_555
N2 Co1A 1_555 1_555
S1 Co1 1_555 1_555
H1 C1 1_555 1_555
H2 C2 1_555 1_555
H3 C4 1_555 1_555
H4 C5 1_555 1_555
H5 C7 1_555 1_555
H6 C7 1_555 1_555
H7 C7 1_555 1_555
C8A N2A 1_555 1_555
N2A Co1 1_555 1_555
S1A C8A 1_555 1_555
C1A C2A 1_555 1_555
C2A C3A 1_555 1_555
C3A C4A 1_555 1_555
C4A C5A 1_555 1_555
C5A N1A 1_555 1_555
C6A C3A 1_555 1_555
C7A C6A 1_555 1_555
N1A Co1 1_555 1_555
O1A C6A 1_555 1_555
H1A C1A 1_555 1_555
H2A C2A 1_555 1_555
H3A C4A 1_555 1_555
H4A C5A 1_555 1_555
H5A C7A 1_555 1_555
H6A C7A 1_555 1_555
H7A C7A 1_555 1_555
Co1A S1A 1_555 1_555
N2_2 Co1 1_555 1_555
S1A_2 Co1 1_555 1_555
C8 S1 1_555 1_555
C1A N1A 1_555 1_555

#END
