
#######################################################################
#
#                 Cambridge Crystallographic Data Centre
#                                CCDC 
#
#######################################################################
#
# If this CIF has been generated from an entry in the Cambridge 
# Structural Database, then it will include bibliographic, chemical, 
# crystal, experimental, refinement or atomic coordinate data resulting 
# from the CCDC's data processing and validation procedures.
#
#######################################################################

data_ZOYKAB
_symmetry_cell_setting           tetragonal
_symmetry_space_group_name_H-M   'P 43'
_symmetry_Int_Tables_number      78
_space_group_name_Hall           'P 4cw'
loop_
_symmetry_equiv_pos_site_id
_symmetry_equiv_pos_as_xyz
1 x,y,z
2 -x,-y,1/2+z
3 -y,x,3/4+z
4 y,-x,1/4+z
_cell_length_a                   13.0721(4)
_cell_length_b                   13.0721(4)
_cell_length_c                   11.1466(5)
_cell_angle_alpha                90
_cell_angle_beta                 90
_cell_angle_gamma                90
_cell_volume                     1904.73
loop_
_atom_site_label
_atom_site_type_symbol
_atom_site_fract_x
_atom_site_fract_y
_atom_site_fract_z
Mn1 Mn 0.75823(8) 0.48857(8) 0.31134(9)
Mn2 Mn 0.75183(9) 0.71964(9) 0.15987(11)
O1 O 0.6433(5) 0.5945(5) 0.3486(6)
O2 O 0.5910(4) 0.7298(4) 0.2403(5)
O3 O 0.3710(5) 0.3651(4) 0.5145(5)
O4 O 0.2561(5) 0.4449(4) 0.6262(5)
O5 O 0.8680(6) 0.2568(6) 0.3441(7)
O6 O 0.8773(5) 0.3986(5) 0.2359(6)
O7 O 1.1685(6) 0.2553(5) -0.1843(7)
O8 O 1.1283(4) 0.4086(4) -0.1141(5)
O9 O 0.8870(8) 0.7037(8) 0.0439(12)
C1 C 0.5752(5) 0.6606(5) 0.3186(7)
C2 C 0.3267(6) 0.4463(6) 0.5460(7)
C3 C 0.9026(6) 0.3091(7) 0.2599(7)
C4 C 1.1317(6) 0.3134(7) -0.1075(7)
C5 C 0.3536(6) 0.5467(6) 0.4888(7)
C6 C 0.4456(6) 0.5568(6) 0.4304(6)
H1 H 0.4889 0.5007 0.4230
C7 C 0.4742(6) 0.6523(6) 0.3817(7)
C8 C 0.4106(6) 0.7350(6) 0.3942(8)
H2 H 0.4295 0.7980 0.3623
C9 C 0.3182(9) 0.7252(7) 0.4543(10)
H3 H 0.2759 0.7819 0.4631
C10 C 0.2880(7) 0.6315(7) 0.5015(8)
H4 H 0.2237 0.6246 0.5424
C11 C 0.9801(6) 0.2601(6) 0.1789(7)
C12 C 1.0180(6) 0.3107(6) 0.0785(7)
H5 H 0.9973 0.3774 0.0622
C13 C 1.0864(6) 0.2621(6) 0.0028(7)
C14 C 1.1190(7) 0.1629(7) 0.0268(10)
H6 H 1.1639 0.1295 -0.0247
C15 C 1.0833(8) 0.1155(9) 0.1286(11)
H7 H 1.1089 0.0514 0.1487
C16 C 1.0106(7) 0.1598(7) 0.2021(9)
H8 H 0.9826 0.1235 0.2659
Mn1A Mn 0.24177(8) 0.51143(8) 0.81134(9)
Mn1A_2 Mn 1.24177(8) 0.51143(8) -0.18866(9)
Mn1B Mn 0.51143(8) 0.75823(8) 0.06134(9)
Mn1C Mn 0.48857(8) 0.24177(8) 0.56134(9)
Mn2A Mn 0.24817(9) 0.28036(9) 0.65987(11)
Mn2A_2 Mn 1.24817(9) 0.28036(9) -0.34013(11)
Mn2C Mn 0.71964(9) 0.24817(9) 0.40987(11)
O2C O 0.7298(4) 0.4090(4) 0.4903(5)
O3B O 0.6349(4) 0.3710(5) 0.2645(5)
O4A O 0.7439(5) 0.5551(4) 0.1262(5)
O5B O 0.7432(6) 0.8680(6) 0.0941(7)
O7A O 0.8315(6) 0.7447(5) 0.3157(7)
O8A O 0.8717(4) 0.5914(4) 0.3859(5)
O10 O 1.034(5) 0.516(5) 0.046(5)
H9 H 0.9755 0.5424 0.0361
C17 C 1.059(2) 0.593(2) 0.132(3)
H10 H 1.1274 0.5812 0.1611
H11 H 1.0118 0.5898 0.1972
H12 H 1.0558 0.6587 0.0943
loop_
_geom_bond_atom_site_label_1
_geom_bond_atom_site_label_2
_geom_bond_site_symmetry_1
_geom_bond_site_symmetry_2
Mn1 O1 1_555 1_555
Mn2 O2 1_555 1_555
O1 C1 1_555 1_555
O2 C1 1_555 1_555
O3 C2 1_555 1_555
O4 C2 1_555 1_555
O5 C3 1_555 1_555
O6 Mn1 1_555 1_555
O7 C4 1_555 1_555
O8 C4 1_555 1_555
O9 Mn2 1_555 1_555
C1 C7 1_555 1_555
C2 C5 1_555 1_555
C3 O6 1_555 1_555
C4 C13 1_555 1_555
C5 C6 1_555 1_555
C6 H1 1_555 1_555
C7 C6 1_555 1_555
C8 C7 1_555 1_555
H2 C8 1_555 1_555
C9 C8 1_555 1_555
H3 C9 1_555 1_555
C10 C5 1_555 1_555
H4 C10 1_555 1_555
C11 C3 1_555 1_555
C12 C11 1_555 1_555
H5 C12 1_555 1_555
C13 C12 1_555 1_555
C14 C13 1_555 1_555
H6 C14 1_555 1_555
C15 C14 1_555 1_555
H7 C15 1_555 1_555
C16 C11 1_555 1_555
H8 C16 1_555 1_555
O10 H9 1_555 1_555
C17 O10 1_555 1_555
H10 C17 1_555 1_555
H11 C17 1_555 1_555
H12 C17 1_555 1_555
Mn1A O4 1_555 1_555
Mn1A_2 O8 1_555 1_555
Mn1B O2 1_555 1_555
Mn1C O3 1_555 1_555
Mn2A O4 1_555 1_555
Mn2A_2 O7 1_555 1_555
Mn2C O5 1_555 1_555
O2C Mn1 1_555 1_555
O3B Mn1 1_555 1_555
O4A Mn1 1_555 1_555
O5B Mn2 1_555 1_555
O7A Mn2 1_555 1_555
O8A Mn1 1_555 1_555
Mn2 O4A 1_555 1_555
C9 C10 1_555 1_555
C15 C16 1_555 1_555
Mn2C O2C 1_555 1_555

#END
