
#######################################################################
#
#                 Cambridge Crystallographic Data Centre
#                                CCDC 
#
#######################################################################
#
# If this CIF has been generated from an entry in the Cambridge 
# Structural Database, then it will include bibliographic, chemical, 
# crystal, experimental, refinement or atomic coordinate data resulting 
# from the CCDC's data processing and validation procedures.
#
#######################################################################

data_ZOYNOS
_symmetry_cell_setting           monoclinic
_symmetry_space_group_name_H-M   'P 21/n'
_symmetry_Int_Tables_number      14
_space_group_name_Hall           '-P 2yn'
loop_
_symmetry_equiv_pos_site_id
_symmetry_equiv_pos_as_xyz
1 x,y,z
2 1/2-x,1/2+y,1/2-z
3 -x,-y,-z
4 1/2+x,1/2-y,1/2+z
_cell_length_a                   16.9445(19)
_cell_length_b                   10.319(1)
_cell_length_c                   16.9561(18)
_cell_angle_alpha                90
_cell_angle_beta                 104.894(9)
_cell_angle_gamma                90
_cell_volume                     2865.17
loop_
_atom_site_label
_atom_site_type_symbol
_atom_site_fract_x
_atom_site_fract_y
_atom_site_fract_z
Te1 Te 0.12289(6) 0.39838(8) 0.39998(6)
Te2 Te -0.00933(6) 0.19688(8) 0.49141(6)
Pd1 Pd 0.10762(7) 0.36462(11) 0.54932(7)
Te3 Te 0.04685(7) 0.38121(9) 0.67572(6)
Pd2 Pd -0.03547(7) 0.38188(10) 0.38206(7)
Pd3 Pd 0.08513(7) 0.62773(10) 0.44527(7)
Te4 Te 0.18064(6) 0.58929(10) 0.59269(6)
Te1B Te -0.12289(6) 0.60162(8) 0.60002(6)
Te2B Te 0.00933(6) 0.80312(8) 0.50859(6)
Pd1B Pd -0.10762(7) 0.63538(11) 0.45068(7)
Te3B Te -0.04685(7) 0.61879(9) 0.32428(6)
Pd2B Pd 0.03547(7) 0.61812(10) 0.61794(7)
Pd3B Pd -0.08513(7) 0.37227(10) 0.55473(7)
Te4B Te -0.18064(6) 0.41071(10) 0.40731(6)
N1 N 0.0532(8) 0.0213(13) 0.3241(8)
H1 H 0.0435(8) 0.1064(13) 0.3283(8)
H2 H 0.0317(8) -0.0181(13) 0.3610(8)
N2 N -0.1262(9) 0.1009(14) 0.2414(9)
H3 H -0.1003(9) 0.1391(14) 0.2886(9)
H4 H -0.1776(9) 0.0860(14) 0.2447(9)
C1 C -0.0891(12) -0.0248(19) 0.2424(12)
H5 H -0.1171(12) -0.0722(19) 0.1939(12)
H6 H -0.0958(12) -0.0727(19) 0.2895(12)
C2 C 0.0003(10) -0.0163(16) 0.2458(11)
H7 H 0.0072(10) 0.0456(16) 0.2050(11)
H8 H 0.0181(10) -0.1001(16) 0.2309(11)
N3 N 0.3363(9) 0.3626(13) 0.5440(9)
H9 H 0.3109(9) 0.4347(13) 0.5546(9)
H10 H 0.2982(9) 0.3159(13) 0.5086(9)
N4 N 0.2684(9) 0.1388(13) 0.6629(9)
H11 H 0.2216(9) 0.1761(13) 0.6348(9)
H12 H 0.2677(9) 0.1384(13) 0.7158(9)
N5 N 0.2515(8) 0.1443(12) 0.3339(8)
H13 H 0.2400(8) 0.2205(12) 0.3542(8)
H14 H 0.3037(8) 0.1256(12) 0.3595(8)
N6 N 0.3579(12) 0.6473(14) 0.4849(12)
N7 N 0.1915(8) 0.0328(13) 0.4915(7)
H15 H 0.1512(8) -0.0099(13) 0.5061(7)
H16 H 0.1842(8) 0.1179(13) 0.4990(7)
C3 C 0.2690(11) -0.0058(17) 0.5470(11)
H17 H 0.2814(11) -0.0941(17) 0.5348(11)
H18 H 0.3121(11) 0.0496(17) 0.5382(11)
C4 C 0.3677(11) 0.5174(15) 0.4417(11)
H19 H 0.3161(11) 0.4962(15) 0.4036(11)
H20 H 0.4077(11) 0.5296(15) 0.4104(11)
C5 C 0.2673(11) 0.0027(16) 0.6358(11)
H21 H 0.3142(11) -0.0425(16) 0.6693(11)
H22 H 0.2184(11) -0.0396(16) 0.6429(11)
C6 C 0.3936(11) 0.4059(18) 0.4981(11)
H23 H 0.4444(11) 0.4289(18) 0.5369(11)
H24 H 0.4049(11) 0.3331(18) 0.4665(11)
Li1 Li 0.3642(14) 0.257(2) 0.6518(14)
Li2 Li 0.1784(14) 0.003(2) 0.3708(13)
N8 N 0.2884(8) 0.3169(12) 0.1501(8)
H25 H 0.2384(8) 0.3010(12) 0.1175(8)
H26 H 0.3235(8) 0.2614(12) 0.1361(8)
N9 N 0.4710(9) 0.1493(14) 0.6735(9)
H27 H 0.5069(9) 0.1843(14) 0.7168(9)
H28 H 0.4596(9) 0.0690(14) 0.6880(9)
C7 C 0.5113(10) 0.1372(17) 0.6081(11)
H29 H 0.4702(10) 0.1179(17) 0.5581(11)
H30 H 0.5351(10) 0.2205(17) 0.6008(11)
C8 C 0.2489(10) 0.1669(14) 0.2479(10)
H31 H 0.2767(10) 0.0963(14) 0.2286(10)
H32 H 0.1924(10) 0.1662(14) 0.2162(10)
C9 C 0.2872(10) 0.2920(14) 0.2331(10)
H33 H 0.3429(10) 0.2935(14) 0.2666(10)
H34 H 0.2581(10) 0.3623(14) 0.2513(10)
C10 C 0.5761(12) 0.0377(15) 0.6196(13)
H35 H 0.6011(12) 0.0430(15) 0.5742(13)
H36 H 0.6179(12) 0.0579(15) 0.6689(13)
N10 N 0.5489(10) -0.0952(14) 0.6254(11)
H37 H 0.5471(10) -0.1270(14) 0.6743(11)
H38 H 0.5526(10) -0.1530(14) 0.5868(11)
H39 H 0.3924(12) 0.7131(14) 0.4835(12)
H40 H 0.3086(12) 0.6687(14) 0.4919(12)
N2C N 0.3738(9) 0.3991(14) 0.7414(9)
Li1C Li -0.1358(14) 0.243(2) 0.1518(14)
Li2A Li 0.3216(14) 0.503(2) 0.1292(13)
N8A N 0.2116(8) -0.1831(12) 0.3499(8)
loop_
_geom_bond_atom_site_label_1
_geom_bond_atom_site_label_2
_geom_bond_site_symmetry_1
_geom_bond_site_symmetry_2
Te1 Pd1 1_555 1_555
Te2 Pd1 1_555 1_555
Pd1 Te3 1_555 1_555
Te3 Pd2B 1_555 1_555
Pd2 Te1 1_555 1_555
Pd3 Te1 1_555 1_555
Te4 Pd1 1_555 1_555
N1 H1 1_555 1_555
H2 N1 1_555 1_555
N2 H3 1_555 1_555
H4 N2 1_555 1_555
C1 N2 1_555 1_555
H5 C1 1_555 1_555
H6 C1 1_555 1_555
C2 N1 1_555 1_555
H7 C2 1_555 1_555
H8 C2 1_555 1_555
N3 H9 1_555 1_555
H10 N3 1_555 1_555
N4 H11 1_555 1_555
H12 N4 1_555 1_555
N5 H13 1_555 1_555
H14 N5 1_555 1_555
N6 C4 1_555 1_555
N7 H15 1_555 1_555
H16 N7 1_555 1_555
C3 N7 1_555 1_555
H17 C3 1_555 1_555
H18 C3 1_555 1_555
C4 H19 1_555 1_555
H20 C4 1_555 1_555
C5 N4 1_555 1_555
H21 C5 1_555 1_555
H22 C5 1_555 1_555
C6 N3 1_555 1_555
H23 C6 1_555 1_555
H24 C6 1_555 1_555
Li1 N3 1_555 1_555
Li2 N1 1_555 1_555
N8 H25 1_555 1_555
H26 N8 1_555 1_555
N9 Li1 1_555 1_555
H27 N9 1_555 1_555
H28 N9 1_555 1_555
C7 N9 1_555 1_555
H29 C7 1_555 1_555
H30 C7 1_555 1_555
C8 N5 1_555 1_555
H31 C8 1_555 1_555
H32 C8 1_555 1_555
C9 N8 1_555 1_555
H33 C9 1_555 1_555
H34 C9 1_555 1_555
C10 C7 1_555 1_555
H35 C10 1_555 1_555
H36 C10 1_555 1_555
N10 C10 1_555 1_555
H37 N10 1_555 1_555
H38 N10 1_555 1_555
H39 N6 1_555 1_555
H40 N6 1_555 1_555
Te1B Pd1B 1_555 1_555
Te2B Pd3 1_555 1_555
Pd1B Te2B 1_555 1_555
Te3B Pd2 1_555 1_555
Pd2B Te4 1_555 1_555
Pd3B Te2 1_555 1_555
Te4B Pd2 1_555 1_555
N2C Li1 1_555 1_555
Li1C N2 1_555 1_555
Li2A N8 1_555 1_555
N8A Li2 1_555 1_555
Te2 Pd2 1_555 1_555
Te3 Pd3B 1_555 1_555
Pd3 Te4 1_555 1_555
Pd3 Te3B 1_555 1_555
C1 C2 1_555 1_555
N4 Li1 1_555 1_555
N5 Li2 1_555 1_555
N7 Li2 1_555 1_555
C3 C5 1_555 1_555
C4 C6 1_555 1_555
C8 C9 1_555 1_555
Te1B Pd2B 1_555 1_555
Te1B Pd3B 1_555 1_555
Te2B Pd2B 1_555 1_555
Pd1B Te3B 1_555 1_555
Pd1B Te4B 1_555 1_555
Pd3B Te4B 1_555 1_555

#END
