
#######################################################################
#
#                 Cambridge Crystallographic Data Centre
#                                CCDC 
#
#######################################################################
#
# If this CIF has been generated from an entry in the Cambridge 
# Structural Database, then it will include bibliographic, chemical, 
# crystal, experimental, refinement or atomic coordinate data resulting 
# from the CCDC's data processing and validation procedures.
#
#######################################################################

data_ZOYPOU
_symmetry_cell_setting           monoclinic
_symmetry_space_group_name_H-M   'P 21/n'
_symmetry_Int_Tables_number      14
_space_group_name_Hall           '-P 2yn'
loop_
_symmetry_equiv_pos_site_id
_symmetry_equiv_pos_as_xyz
1 x,y,z
2 1/2-x,1/2+y,1/2-z
3 -x,-y,-z
4 1/2+x,1/2-y,1/2+z
_cell_length_a                   16.166(5)
_cell_length_b                   20.191(5)
_cell_length_c                   17.628(5)
_cell_angle_alpha                90
_cell_angle_beta                 104.578(5)
_cell_angle_gamma                90
_cell_volume                     5568.67
loop_
_atom_site_label
_atom_site_type_symbol
_atom_site_fract_x
_atom_site_fract_y
_atom_site_fract_z
C1 C 0.2209(5) 0.3082(5) 0.2887(5)
C2 C 0.2135(5) 0.3333(5) 0.3669(4)
C3 C 0.1702(6) 0.3928(5) 0.3720(5)
H1 H 0.1479 0.4179 0.3273
C4 C 0.1611(9) 0.4136(5) 0.4434(6)
H2 H 0.1313 0.4524 0.4471
C5 C 0.1962(7) 0.3768(5) 0.5104(5)
H3 H 0.1894 0.3909 0.5586
C6 C 0.2403(5) 0.3207(4) 0.5062(4)
C7 C 0.2490(5) 0.2978(5) 0.4346(5)
H4 H 0.2786 0.2587 0.4319
C8 C 0.3558(5) 0.2840(4) 0.6109(4)
C9 C 0.3784(5) 0.2343(4) 0.6757(4)
C10 C 0.4594(6) 0.2199(5) 0.7220(5)
H5 H 0.5066 0.2449 0.7188
C11 C 0.4672(6) 0.1666(5) 0.7737(6)
H6 H 0.5207 0.1565 0.8060
C12 C 0.3968(6) 0.1281(5) 0.7781(6)
H7 H 0.4024 0.0923 0.8121
C13 C 0.3182(5) 0.1455(4) 0.7298(5)
C14 C 0.2341(5) 0.1104(4) 0.7213(5)
C15 C 0.0896(5) 0.1083(4) 0.6476(5)
C16 C 0.0737(6) 0.0465(4) 0.6113(5)
H8 H 0.1181 0.0229 0.5991
C17 C -0.0074(6) 0.0205(4) 0.5936(5)
H9 H -0.0168 -0.0219 0.5725
C18 C -0.0754(5) 0.0563(4) 0.6068(5)
H10 H -0.1304 0.0390 0.5929
C19 C -0.0603(5) 0.1189(4) 0.6412(4)
C20 C 0.0214(5) 0.1441(4) 0.6613(5)
H11 H 0.0311 0.1857 0.6845
C21 C -0.1328(5) 0.1593(4) 0.6542(5)
C22 C 0.2051(6) 0.2864(4) 0.9581(5)
C23 C 0.2228(5) 0.3095(4) 0.8825(4)
C24 C 0.2748(5) 0.3644(5) 0.8846(5)
H12 H 0.2985 0.3852 0.9321
C25 C 0.2915(7) 0.3883(5) 0.8168(5)
H13 H 0.3270 0.4248 0.8189
C26 C 0.2554(6) 0.3578(4) 0.7450(5)
H14 H 0.2684 0.3729 0.6995
C27 C 0.1998(5) 0.3045(4) 0.7421(4)
C28 C 0.1866(5) 0.2791(4) 0.8107(5)
H15 H 0.1532 0.2414 0.8091
C29 C 0.0819(5) 0.3001(4) 0.6302(5)
C30 C 0.0476(5) 0.2683(4) 0.5531(5)
C31 C -0.0304(6) 0.2771(5) 0.5011(6)
H16 H -0.0701 0.3063 0.5124
C32 C -0.0491(6) 0.2415(6) 0.4316(6)
H17 H -0.1016 0.2472 0.3957
C33 C 0.0089(6) 0.1982(6) 0.4154(6)
H18 H -0.0041 0.1743 0.3688
C34 C 0.0875(5) 0.1900(5) 0.4691(5)
C35 C 0.1594(6) 0.1471(5) 0.4641(6)
C36 C 0.2940(6) 0.1058(5) 0.5354(5)
C37 C 0.2843(6) 0.0379(5) 0.5373(7)
H19 H 0.2298 0.0205 0.5317
C38 C 0.3503(7) -0.0038(5) 0.5469(7)
H20 H 0.3406 -0.0492 0.5435
C39 C 0.4354(6) 0.0209(5) 0.5623(6)
H21 H 0.4820 -0.0077 0.5738
C40 C 0.4469(5) 0.0891(4) 0.5595(5)
C41 C 0.3765(5) 0.1315(4) 0.5443(5)
H22 H 0.3844 0.1768 0.5402
C42 C 0.5357(5) 0.1183(4) 0.5780(4)
N1 N 0.2719(4) 0.2795(3) 0.5747(4)
N2 N 0.3111(4) 0.1960(3) 0.6814(4)
N3 N 0.1725(4) 0.1368(3) 0.6648(4)
N4 N 0.1581(4) 0.2760(3) 0.6678(4)
N5 N 0.1042(4) 0.2245(3) 0.5364(4)
N6 N 0.2234(4) 0.1502(4) 0.5271(4)
O1 O 0.4091(3) 0.3218(3) 0.5954(3)
O2 O 0.2289(5) 0.0619(4) 0.7650(5)
O3 O 0.2640(5) 0.1288(4) 0.2635(6)
O4 O 0.0407(4) 0.3454(3) 0.6537(4)
O5 O 0.4367(5) 0.1994(5) 0.3063(5)
O6 O 0.1570(5) 0.1129(5) 0.4030(5)
O7 O 0.3695(4) 0.1377(4) 0.1512(5)
O8 O 0.1676(4) 0.3298(4) 0.2295(3)
O9 O 0.2796(4) 0.2673(4) 0.2900(4)
O10 O -0.1182(4) 0.2207(3) 0.6647(4)
O11 O -0.2011(3) 0.1309(3) 0.6547(3)
O12 O 0.1954(5) 0.2264(3) 0.9674(4)
O13 O 0.1996(4) 0.3311(3) 1.0062(3)
O14 O 0.5446(3) 0.1804(3) 0.5698(3)
O15 O 0.5996(3) 0.0818(3) 0.6013(3)
O16 O 0.2055(4) 0.2235(3) 0.1227(3)
Co1 Co 0.32183(8) 0.20870(6) 0.21515(7)
Co2 Co 0.20720(7) 0.21074(5) 0.60916(6)
Co3 Co 0.17968(7) 0.32945(5) 0.11717(6)
O10C O 0.3818(4) 0.2793(3) 0.1647(4)
O11C O 0.2989(3) 0.3691(3) 0.1547(3)
O13_2 O 0.1996(4) 0.3311(3) 0.0062(3)
O14C O 0.0446(3) 0.3196(3) 0.0698(3)
O15C O 0.0996(3) 0.4182(3) 0.1013(3)
Co1C Co -0.17817(8) 0.29130(6) 0.71515(7)
Co3_2 Co 0.17968(7) 0.32945(5) 1.11717(6)
Co3C Co -0.32032(7) 0.17055(5) 0.61717(6)
Co3C_2 Co 0.67968(7) 0.17055(5) 0.61717(6)
O17 O -0.0849(5) 0.0437(4) 0.0576(4)
O18 O 0.0986(6) 0.0645(5) 0.0459(6)
O19 O 0.0478(7) -0.0666(5) 0.0934(5)
Co4 Co 0.0000 0.0000 0.0000
O17B O 0.0849(5) -0.0437(4) -0.0576(4)
O18B O -0.0986(6) -0.0645(5) -0.0459(6)
O19B O -0.0478(7) 0.0666(5) -0.0934(5)
O20 O 0.0758(4) 0.1580(3) 0.1513(4)
O21 O 0.0699(5) 0.0673(4) 0.2632(4)
O22 O 0.3211(5) 0.4662(4) 0.2736(5)
O23 O -0.0953(7) 0.0050(8) 0.1999(5)
O24 O 0.2591(8) 0.0868(13) 0.0184(14)
O25 O 0.1329(7) 0.5164(5) 0.2165(8)
O26 O 0.0370(11) 0.4172(11) -0.2150(13)
O27 O -0.0184(9) 0.2280(7) -0.0527(6)
O28 O 0.306(2) 0.059(3) -0.0859(13)
O29 O -0.060(2) -0.1453(14) 0.1381(16)
O30 O 0.456(3) -0.0220(11) -0.108(4)
loop_
_geom_bond_atom_site_label_1
_geom_bond_atom_site_label_2
_geom_bond_site_symmetry_1
_geom_bond_site_symmetry_2
C1 C2 1_555 1_555
C2 C3 1_555 1_555
C3 H1 1_555 1_555
C4 C3 1_555 1_555
H2 C4 1_555 1_555
C5 C4 1_555 1_555
H3 C5 1_555 1_555
C6 C5 1_555 1_555
C7 C2 1_555 1_555
H4 C7 1_555 1_555
C8 C9 1_555 1_555
C9 C10 1_555 1_555
C10 H5 1_555 1_555
C11 C10 1_555 1_555
H6 C11 1_555 1_555
C12 C11 1_555 1_555
H7 C12 1_555 1_555
C13 C12 1_555 1_555
C14 C13 1_555 1_555
C15 C16 1_555 1_555
C16 H8 1_555 1_555
C17 C16 1_555 1_555
H9 C17 1_555 1_555
C18 C17 1_555 1_555
H10 C18 1_555 1_555
C19 C18 1_555 1_555
C20 C15 1_555 1_555
H11 C20 1_555 1_555
C21 C19 1_555 1_555
C22 C23 1_555 1_555
C23 C24 1_555 1_555
C24 H12 1_555 1_555
C25 C24 1_555 1_555
H13 C25 1_555 1_555
C26 C25 1_555 1_555
H14 C26 1_555 1_555
C27 C26 1_555 1_555
C28 C23 1_555 1_555
H15 C28 1_555 1_555
C29 C30 1_555 1_555
C30 C31 1_555 1_555
C31 H16 1_555 1_555
C32 C31 1_555 1_555
H17 C32 1_555 1_555
C33 C32 1_555 1_555
H18 C33 1_555 1_555
C34 C33 1_555 1_555
C35 C34 1_555 1_555
C36 C37 1_555 1_555
C37 H19 1_555 1_555
C38 C37 1_555 1_555
H20 C38 1_555 1_555
C39 C38 1_555 1_555
H21 C39 1_555 1_555
C40 C39 1_555 1_555
C41 C36 1_555 1_555
H22 C41 1_555 1_555
C42 C40 1_555 1_555
N1 C6 1_555 1_555
N2 C9 1_555 1_555
N3 C14 1_555 1_555
N4 C27 1_555 1_555
N5 C30 1_555 1_555
N6 C35 1_555 1_555
O1 C8 1_555 1_555
O2 C14 1_555 1_555
O3 Co1 1_555 1_555
O4 C29 1_555 1_555
O5 Co1 1_555 1_555
O6 C35 1_555 1_555
O7 Co1 1_555 1_555
O8 C1 1_555 1_555
O9 C1 1_555 1_555
O10 C21 1_555 1_555
O11 C21 1_555 1_555
O12 C22 1_555 1_555
O13 C22 1_555 1_555
O14 C42 1_555 1_555
O15 C42 1_555 1_555
O16 Co1 1_555 1_555
Co1 O9 1_555 1_555
Co2 N1 1_555 1_555
Co3 O8 1_555 1_555
O17 Co4 1_555 1_555
O18 Co4 1_555 1_555
O19 Co4 1_555 1_555
Co4 O17B 1_555 1_555
O10C Co1 1_555 1_555
O11C Co3 1_555 1_555
O13_2 Co3 1_555 1_555
O14C Co3 1_555 1_555
O15C Co3 1_555 1_555
Co1C O10 1_555 1_555
Co3_2 O13 1_555 1_555
Co3C O11 1_555 1_555
Co3C_2 O14 1_555 1_555
O18B Co4 1_555 1_555
O19B Co4 1_555 1_555
C6 C7 1_555 1_555
C8 N1 1_555 1_555
C13 N2 1_555 1_555
C15 N3 1_555 1_555
C19 C20 1_555 1_555
C27 C28 1_555 1_555
C29 N4 1_555 1_555
C34 N5 1_555 1_555
C36 N6 1_555 1_555
C40 C41 1_555 1_555
N2 Co2 1_555 1_555
N3 Co2 1_555 1_555
N4 Co2 1_555 1_555
N5 Co2 1_555 1_555
N6 Co2 1_555 1_555
O15 Co3C_2 1_555 1_555
O16 Co3 1_555 1_555

#END
