
#######################################################################
#
#                 Cambridge Crystallographic Data Centre
#                                CCDC 
#
#######################################################################
#
# If this CIF has been generated from an entry in the Cambridge 
# Structural Database, then it will include bibliographic, chemical, 
# crystal, experimental, refinement or atomic coordinate data resulting 
# from the CCDC's data processing and validation procedures.
#
#######################################################################

data_ZOYPIO
_symmetry_cell_setting           triclinic
_symmetry_space_group_name_H-M   'P -1'
_symmetry_Int_Tables_number      2
_space_group_name_Hall           '-P 1'
loop_
_symmetry_equiv_pos_site_id
_symmetry_equiv_pos_as_xyz
1 x,y,z
2 -x,-y,-z
_cell_length_a                   15.797(5)
_cell_length_b                   16.814(5)
_cell_length_c                   16.923(5)
_cell_angle_alpha                113.424(5)
_cell_angle_beta                 91.619(5)
_cell_angle_gamma                117.293(5)
_cell_volume                     3541.05
loop_
_atom_site_label
_atom_site_type_symbol
_atom_site_fract_x
_atom_site_fract_y
_atom_site_fract_z
O19 O 1.0018(8) -0.4765(7) 0.8512(5)
O20 O 1.1166(11) -0.0933(7) 0.8321(9)
O21 O 1.0970(7) -0.0662(7) 0.6776(9)
O22 O 0.9288(11) -0.3844(17) 0.2090(8)
O23 O 0.6296(8) -0.4278(9) 0.4410(10)
O24 O 0.7417(11) -0.2987(13) 0.3777(11)
O25 O 0.5379(11) -0.2513(12) 0.3112(10)
O26 O 0.7563(11) -0.0931(12) 0.4224(8)
O27 O 1.0540(10) 0.3420(13) 1.0312(10)
O28 O 0.2856(8) 0.0973(11) 0.7771(12)
O29 O 0.701(2) -0.0627(15) 1.0478(18)
O30 O 0.4770(11) 0.3006(12) 0.9714(9)
O31 O 0.4055(15) -0.4298(12) 0.289(2)
O32 O 0.3685(16) -0.5783(17) 0.3986(18)
C1 C 0.7652(5) 0.3327(5) 1.1999(4)
C2 C 0.7266(5) 0.2403(5) 1.1112(4)
C3 C 0.6288(4) 0.1868(5) 1.0648(4)
H1 H 0.5855 0.2063 1.0897
C4 C 0.5949(5) 0.1045(5) 0.9819(4)
H2 H 0.5288 0.0687 0.9513
C5 C 0.6596(4) 0.0748(4) 0.9437(4)
C6 C 0.7559(5) 0.1258(5) 0.9915(4)
H3 H 0.7987 0.1046 0.9678
C7 C 0.7903(5) 0.2094(5) 1.0755(4)
H4 H 0.8558 0.2441 1.1072
C8 C 0.5941(5) -0.0951(5) 0.8303(4)
C9 C 0.5634(5) -0.1582(4) 0.7309(4)
C10 C 0.5193(7) -0.2617(5) 0.6825(5)
H5 H 0.5019 -0.3017 0.7114
C11 C 0.5015(7) -0.3052(6) 0.5910(5)
H6 H 0.4726 -0.3748 0.5578
C12 C 0.5273(6) -0.2438(5) 0.5478(5)
H7 H 0.5159 -0.2717 0.4861
C13 C 0.5700(4) -0.1417(4) 0.6001(4)
C14 C 0.6088(5) -0.0609(5) 0.5701(4)
C15 C 0.6832(4) 0.1188(4) 0.6263(4)
C16 C 0.7823(5) 0.1823(5) 0.6476(4)
H8 H 0.8253 0.1629 0.6603
C17 C 0.8195(5) 0.2774(5) 0.6506(4)
H9 H 0.8873 0.3209 0.6658
C18 C 0.7572(5) 0.3066(5) 0.6313(4)
C19 C 0.6551(5) 0.2358(5) 0.6027(5)
H10 H 0.6114 0.2524 0.5857
C20 C 0.6193(5) 0.1438(5) 0.5998(4)
H11 H 0.5518 0.0976 0.5799
C21 C 0.7951(5) 0.4093(5) 0.6405(4)
C22 C 0.1351(4) -0.2758(4) 0.5680(4)
C23 C 0.2371(4) -0.1879(4) 0.6176(4)
C24 C 0.2902(5) -0.1874(5) 0.6849(4)
H12 H 0.2624 -0.2410 0.6984
C25 C 0.3845(5) -0.1068(5) 0.7317(4)
H13 H 0.4184 -0.1056 0.7784
C26 C 0.4293(4) -0.0285(4) 0.7109(4)
C27 C 0.3770(4) -0.0297(5) 0.6422(4)
H14 H 0.4061 0.0224 0.6268
C28 C 0.2801(4) -0.1099(4) 0.5966(4)
H15 H 0.2447 -0.1101 0.5516
C29 C 0.5466(5) 0.1439(5) 0.8012(4)
C30 C 0.6541(4) 0.2195(4) 0.8437(4)
C31 C 0.6999(5) 0.3225(5) 0.8967(6)
H16 H 0.6633 0.3542 0.9104
C32 C 0.7993(6) 0.3764(5) 0.9284(6)
H17 H 0.8305 0.4458 0.9637
C33 C 0.8557(5) 0.3319(5) 0.9101(5)
H18 H 0.9238 0.3697 0.9327
C34 C 0.8063(5) 0.2275(5) 0.8562(4)
C35 C 0.8498(4) 0.1613(5) 0.8256(4)
C36 C 0.8067(4) -0.0091(4) 0.7412(4)
C37 C 0.8212(5) -0.0382(5) 0.6565(4)
H19 H 0.8179 -0.0061 0.6237
C38 C 0.8410(5) -0.1169(5) 0.6206(4)
H20 H 0.8533 -0.1348 0.5646
C39 C 0.8427(5) -0.1679(5) 0.6657(4)
C40 C 0.8282(6) -0.1374(6) 0.7516(5)
H21 H 0.8292 -0.1711 0.7836
C41 C 0.8126(6) -0.0578(5) 0.7888(4)
H22 H 0.8059 -0.0363 0.8468
C42 C 0.8597(5) -0.2544(5) 0.6245(4)
N1 N 0.6278(4) 0.0008(3) 0.8531(3)
N2 N 0.5851(3) -0.1025(3) 0.6886(3)
N3 N 0.6453(3) 0.0294(3) 0.6379(3)
N4 N 0.7816(3) 0.0660(4) 0.7762(3)
N5 N 0.7091(3) 0.1761(3) 0.8250(3)
N6 N 0.5290(3) 0.0525(3) 0.7569(3)
O1 O 0.5848(4) -0.1344(4) 0.8821(3)
O2 O 0.6043(4) -0.0833(3) 0.4902(3)
O3 O 0.8508(5) -0.3663(5) 0.7956(4)
O4 O 0.4852(3) 0.1735(4) 0.8121(4)
O5 O 1.0329(4) -0.2956(4) 0.7330(3)
O6 O 0.9391(4) 0.1973(4) 0.8444(4)
O7 O 0.7737(3) -0.4813(4) 0.3974(3)
O8 O 0.7138(4) 0.3705(5) 1.2263(3)
O9 O 0.9371(4) -0.3032(4) 0.3880(3)
O10 O 0.8500(4) 0.3673(4) 1.2440(3)
O11 O 0.7412(4) 0.4378(4) 0.6207(4)
O12 O 0.8873(3) 0.4735(3) 0.6769(3)
O13 O 0.0714(3) -0.2617(3) 0.5401(3)
O14 O 0.1205(3) -0.3592(3) 0.5595(3)
O15 O 0.8806(3) -0.2731(3) 0.5521(3)
O16 O 0.8478(5) -0.3053(4) 0.6660(4)
O17 O 0.9014(3) -0.4520(3) 0.5434(2)
O18 O 1.0362(3) -0.5261(3) 0.6105(2)
Co1 Co 0.88484(7) -0.40442(6) 0.66973(6)
Co2 Co 0.64522(5) 0.03679(5) 0.75605(5)
Co3 Co 1.0000 -0.5000 0.5000
Co4 Co 0.92284(6) -0.36911(6) 0.47427(5)
C1A C 0.2348(5) -1.3327(5) -0.1999(4)
C2A C 0.2734(5) -1.2403(5) -0.1112(4)
C3A C 0.3712(4) -1.1868(5) -0.0648(4)
H1A H 0.4145 -1.2063 -0.0897
C4A C 0.4051(5) -1.1045(5) 0.0181(4)
H2A H 0.4712 -1.0687 0.0487
C5A C 0.3404(4) -1.0748(4) 0.0563(4)
C6A C 0.2441(5) -1.1258(5) 0.0085(4)
H3A H 0.2013 -1.1046 0.0322
C7A C 0.2097(5) -1.2094(5) -0.0755(4)
H4A H 0.1442 -1.2441 -0.1072
C8A C 0.4059(5) -0.9049(5) 0.1697(4)
C9A C 0.4366(5) -0.8418(4) 0.2691(4)
C10A C 0.4807(7) -0.7383(5) 0.3175(5)
H5A H 0.4981 -0.6983 0.2886
C11A C 0.4985(7) -0.6948(6) 0.4090(5)
H6A H 0.5274 -0.6252 0.4422
C12A C 0.4727(6) -0.7562(5) 0.4522(5)
H7A H 0.4841 -0.7283 0.5139
C13A C 0.4300(4) -0.8583(4) 0.3999(4)
C14A C 0.3912(5) -0.9391(5) 0.4299(4)
C15A C 0.3168(4) -1.1188(4) 0.3737(4)
C16A C 0.2177(5) -1.1823(5) 0.3524(4)
H8A H 0.1747 -1.1629 0.3397
C17A C 0.1805(5) -1.2774(5) 0.3494(4)
H9A H 0.1127 -1.3209 0.3342
C18A C 0.2428(5) -1.3066(5) 0.3687(4)
C19A C 0.3449(5) -1.2358(5) 0.3973(5)
H10A H 0.3886 -1.2524 0.4143
C20A C 0.3807(5) -1.1438(5) 0.4002(4)
H11A H 0.4482 -1.0976 0.4201
C21A C 0.2049(5) -1.4093(5) 0.3595(4)
C22A C 0.8649(4) -0.7242(4) 0.4320(4)
C23A C 0.7629(4) -0.8121(4) 0.3824(4)
C24A C 0.7098(5) -0.8126(5) 0.3151(4)
H12A H 0.7376 -0.7590 0.3016
C25A C 0.6155(5) -0.8932(5) 0.2683(4)
H13A H 0.5816 -0.8944 0.2216
C26A C 0.5707(4) -0.9715(4) 0.2891(4)
C27A C 0.6230(4) -0.9703(5) 0.3578(4)
H14A H 0.5939 -1.0224 0.3732
C28A C 0.7199(4) -0.8901(4) 0.4034(4)
H15A H 0.7553 -0.8899 0.4484
C29A C 0.4534(5) -1.1439(5) 0.1988(4)
C30A C 0.3459(4) -1.2195(4) 0.1563(4)
C31A C 0.3001(5) -1.3225(5) 0.1033(6)
H16A H 0.3367 -1.3542 0.0896
C32A C 0.2007(6) -1.3764(5) 0.0716(6)
H17A H 0.1695 -1.4458 0.0363
C33A C 0.1443(5) -1.3319(5) 0.0899(5)
H18A H 0.0762 -1.3697 0.0673
C34A C 0.1937(5) -1.2275(5) 0.1438(4)
C35A C 0.1502(4) -1.1613(5) 0.1744(4)
C36A C 0.1933(4) -0.9909(4) 0.2588(4)
C37A C 0.1788(5) -0.9618(5) 0.3435(4)
H19A H 0.1821 -0.9939 0.3763
C38A C 0.1590(5) -0.8831(5) 0.3794(4)
H20A H 0.1467 -0.8652 0.4354
C39A C 0.1573(5) -0.8321(5) 0.3343(4)
C40A C 0.1718(6) -0.8626(6) 0.2484(5)
H21A H 0.1708 -0.8289 0.2164
C41A C 0.1874(6) -0.9422(5) 0.2112(4)
H22A H 0.1941 -0.9637 0.1532
C42A C 0.1403(5) -0.7456(5) 0.3755(4)
N1A N 0.3722(4) -1.0008(3) 0.1469(3)
N2A N 0.4149(3) -0.8975(3) 0.3114(3)
N3A N 0.3547(3) -1.0294(3) 0.3621(3)
N4A N 0.2184(3) -1.0660(4) 0.2238(3)
N5A N 0.2909(3) -1.1761(3) 0.1750(3)
N6A N 0.4710(3) -1.0525(3) 0.2431(3)
O1A O 0.4152(4) -0.8656(4) 0.1179(3)
O2A O 0.3957(4) -0.9167(3) 0.5098(3)
O3A O 0.1492(5) -0.6337(5) 0.2044(4)
O4A O 0.5148(3) -1.1735(4) 0.1879(4)
O5A O -0.0329(4) -0.7044(4) 0.2670(3)
O6A O 0.0609(4) -1.1973(4) 0.1556(4)
O7A O 0.2263(3) -0.5187(4) 0.6026(3)
O8A O 0.2862(4) -1.3705(5) -0.2263(3)
O9A O 0.0629(4) -0.6968(4) 0.6120(3)
O10A O 0.1500(4) -1.3673(4) -0.2440(3)
O11A O 0.2588(4) -1.4378(4) 0.3793(4)
O12A O 0.1127(3) -1.4735(3) 0.3231(3)
O13A O 0.9286(3) -0.7383(3) 0.4599(3)
O14A O 0.8795(3) -0.6408(3) 0.4405(3)
O15A O 0.1194(3) -0.7269(3) 0.4479(3)
O16A O 0.1522(5) -0.6947(4) 0.3340(4)
O17A O 0.0986(3) -0.5480(3) 0.4566(2)
Co1A Co 0.11516(7) -0.59558(6) 0.33027(6)
Co2A Co 0.35478(5) -1.03679(5) 0.24395(5)
Co4A Co 0.07716(6) -0.63089(6) 0.52573(5)
O18A O 0.9638(3) -0.4739(3) 0.3895(2)
O11_2 O 0.7412(4) -0.5622(4) 0.6207(4)
O11A_2 O 0.2588(4) -0.4378(4) 0.3793(4)
O12_2 O 0.8873(3) -0.5265(3) 0.6769(3)
O12A_2 O 0.1127(3) -0.4735(3) 0.3231(3)
O13_2 O 1.0714(3) -0.2617(3) 0.5401(3)
O13A_2 O -0.0714(3) -0.7383(3) 0.4599(3)
O14_2 O 1.1205(3) -0.3592(3) 0.5595(3)
O17A_2 O 1.0986(3) -0.5480(3) 0.4566(2)
O18_2 O 0.0362(3) -0.5261(3) 0.6105(2)
Co1_2 Co 0.88484(7) 0.59558(6) 0.66973(6)
Co1A_2 Co 0.11516(7) -1.59558(6) 0.33027(6)
Co3_2 Co 0.0000 -0.5000 0.5000
Co4_2 Co -0.07716(6) -0.36911(6) 0.47427(5)
Co4A_2 Co 1.07716(6) -0.63089(6) 0.52573(5)
loop_
_geom_bond_atom_site_label_1
_geom_bond_atom_site_label_2
_geom_bond_site_symmetry_1
_geom_bond_site_symmetry_2
C1 C2 1_555 1_555
C2 C3 1_555 1_555
C3 H1 1_555 1_555
C4 C3 1_555 1_555
H2 C4 1_555 1_555
C5 C4 1_555 1_555
C6 C5 1_555 1_555
H3 C6 1_555 1_555
C7 C2 1_555 1_555
H4 C7 1_555 1_555
C8 C9 1_555 1_555
C9 C10 1_555 1_555
C10 H5 1_555 1_555
C11 C10 1_555 1_555
H6 C11 1_555 1_555
C12 C11 1_555 1_555
H7 C12 1_555 1_555
C13 C12 1_555 1_555
C14 C13 1_555 1_555
C15 C16 1_555 1_555
C16 H8 1_555 1_555
C17 C16 1_555 1_555
H9 C17 1_555 1_555
C18 C17 1_555 1_555
C19 C18 1_555 1_555
H10 C19 1_555 1_555
C20 C15 1_555 1_555
H11 C20 1_555 1_555
C21 C18 1_555 1_555
C22 C23 1_555 1_555
C23 C24 1_555 1_555
C24 H12 1_555 1_555
C25 C24 1_555 1_555
H13 C25 1_555 1_555
C26 C25 1_555 1_555
C27 C26 1_555 1_555
H14 C27 1_555 1_555
C28 C23 1_555 1_555
H15 C28 1_555 1_555
C29 C30 1_555 1_555
C30 C31 1_555 1_555
C31 H16 1_555 1_555
C32 C31 1_555 1_555
H17 C32 1_555 1_555
C33 C32 1_555 1_555
H18 C33 1_555 1_555
C34 C33 1_555 1_555
C35 C34 1_555 1_555
C36 C37 1_555 1_555
C37 H19 1_555 1_555
C38 C37 1_555 1_555
H20 C38 1_555 1_555
C39 C38 1_555 1_555
C40 C39 1_555 1_555
H21 C40 1_555 1_555
C41 C36 1_555 1_555
H22 C41 1_555 1_555
C42 C39 1_555 1_555
N1 C5 1_555 1_555
N2 C9 1_555 1_555
N3 C14 1_555 1_555
N4 C35 1_555 1_555
N5 C30 1_555 1_555
N6 C26 1_555 1_555
O1 C8 1_555 1_555
O2 C14 1_555 1_555
O3 Co1 1_555 1_555
O4 C29 1_555 1_555
O5 Co1 1_555 1_555
O6 C35 1_555 1_555
O7 Co4 1_555 1_555
O8 C1 1_555 1_555
O9 Co4 1_555 1_555
O10 C1 1_555 1_555
O11 C21 1_555 1_555
O12 C21 1_555 1_555
O13 C22 1_555 1_555
O14 C22 1_555 1_555
O15 C42 1_555 1_555
O16 C42 1_555 1_555
O17 Co1 1_555 1_555
O18 Co3 1_555 1_555
Co1 O16 1_555 1_555
Co2 N1 1_555 1_555
Co3 O17 1_555 1_555
Co4 O15 1_555 1_555
C1A C2A 1_555 1_555
C2A C3A 1_555 1_555
C3A H1A 1_555 1_555
C4A C3A 1_555 1_555
H2A C4A 1_555 1_555
C5A C4A 1_555 1_555
C6A C5A 1_555 1_555
H3A C6A 1_555 1_555
C7A C2A 1_555 1_555
H4A C7A 1_555 1_555
C8A C9A 1_555 1_555
C9A C10A 1_555 1_555
C10A H5A 1_555 1_555
C11A C10A 1_555 1_555
H6A C11A 1_555 1_555
C12A C11A 1_555 1_555
H7A C12A 1_555 1_555
C13A C12A 1_555 1_555
C14A C13A 1_555 1_555
C15A C16A 1_555 1_555
C16A H8A 1_555 1_555
C17A C16A 1_555 1_555
H9A C17A 1_555 1_555
C18A C17A 1_555 1_555
C19A C18A 1_555 1_555
H10A C19A 1_555 1_555
C20A C15A 1_555 1_555
H11A C20A 1_555 1_555
C21A C18A 1_555 1_555
C22A C23A 1_555 1_555
C23A C24A 1_555 1_555
C24A H12A 1_555 1_555
C25A C24A 1_555 1_555
H13A C25A 1_555 1_555
C26A C25A 1_555 1_555
C27A C26A 1_555 1_555
H14A C27A 1_555 1_555
C28A C23A 1_555 1_555
H15A C28A 1_555 1_555
C29A C30A 1_555 1_555
C30A C31A 1_555 1_555
C31A H16A 1_555 1_555
C32A C31A 1_555 1_555
H17A C32A 1_555 1_555
C33A C32A 1_555 1_555
H18A C33A 1_555 1_555
C34A C33A 1_555 1_555
C35A C34A 1_555 1_555
C36A C37A 1_555 1_555
C37A H19A 1_555 1_555
C38A C37A 1_555 1_555
H20A C38A 1_555 1_555
C39A C38A 1_555 1_555
C40A C39A 1_555 1_555
H21A C40A 1_555 1_555
C41A C36A 1_555 1_555
H22A C41A 1_555 1_555
C42A C39A 1_555 1_555
N1A C5A 1_555 1_555
N2A C9A 1_555 1_555
N3A C14A 1_555 1_555
N4A C35A 1_555 1_555
N5A C30A 1_555 1_555
N6A C26A 1_555 1_555
O1A C8A 1_555 1_555
O2A C14A 1_555 1_555
O3A Co1A 1_555 1_555
O4A C29A 1_555 1_555
O5A Co1A 1_555 1_555
O6A C35A 1_555 1_555
O7A Co4A 1_555 1_555
O8A C1A 1_555 1_555
O9A Co4A 1_555 1_555
O10A C1A 1_555 1_555
O11A C21A 1_555 1_555
O12A C21A 1_555 1_555
O13A C22A 1_555 1_555
O14A Co3 1_555 1_555
O15A C42A 1_555 1_555
O16A C42A 1_555 1_555
O17A Co1A 1_555 1_555
Co1A O16A 1_555 1_555
Co2A N1A 1_555 1_555
Co4A O15A 1_555 1_555
O18A Co3 1_555 1_555
O11_2 Co1 1_555 1_555
O11A_2 Co1A 1_555 1_555
O12_2 Co1 1_555 1_555
O12A_2 Co1A 1_555 1_555
O13_2 Co4 1_555 1_555
O13A_2 Co4A 1_555 1_555
O14_2 Co3 1_555 1_555
O17A_2 Co3 1_555 1_555
O18_2 Co4A 1_555 1_555
Co1_2 O11 1_555 1_555
Co1A_2 O11A 1_555 1_555
Co3_2 O14 1_555 1_555
Co4_2 O13 1_555 1_555
Co4A_2 O18 1_555 1_555
C6 C7 1_555 1_555
C8 N1 1_555 1_555
C13 N2 1_555 1_555
C15 N3 1_555 1_555
C19 C20 1_555 1_555
C27 C28 1_555 1_555
C29 N6 1_555 1_555
C34 N5 1_555 1_555
C36 N4 1_555 1_555
C40 C41 1_555 1_555
N2 Co2 1_555 1_555
N3 Co2 1_555 1_555
N4 Co2 1_555 1_555
N5 Co2 1_555 1_555
N6 Co2 1_555 1_555
O12 Co1_2 1_555 1_555
O17 Co4 1_555 1_555
Co4 O18A 1_555 1_555
C6A C7A 1_555 1_555
C8A N1A 1_555 1_555
C13A N2A 1_555 1_555
C15A N3A 1_555 1_555
C19A C20A 1_555 1_555
C22A O14A 1_555 1_555
C27A C28A 1_555 1_555
C29A N6A 1_555 1_555
C34A N5A 1_555 1_555
C36A N4A 1_555 1_555
C40A C41A 1_555 1_555
N2A Co2A 1_555 1_555
N3A Co2A 1_555 1_555
N4A Co2A 1_555 1_555
N5A Co2A 1_555 1_555
N6A Co2A 1_555 1_555
O12A Co1A_2 1_555 1_555
O13A Co4A_2 1_555 1_555
O17A Co4A 1_555 1_555
O17A Co3_2 1_555 1_555
O17A_2 Co4A_2 1_555 1_555
O18_2 Co3_2 1_555 1_555

#END
