
#######################################################################
#
#                 Cambridge Crystallographic Data Centre
#                                CCDC 
#
#######################################################################
#
# If this CIF has been generated from an entry in the Cambridge 
# Structural Database, then it will include bibliographic, chemical, 
# crystal, experimental, refinement or atomic coordinate data resulting 
# from the CCDC's data processing and validation procedures.
#
#######################################################################

data_ZOYPAG
_symmetry_cell_setting           triclinic
_symmetry_space_group_name_H-M   'P -1'
_symmetry_Int_Tables_number      2
_space_group_name_Hall           '-P 1'
loop_
_symmetry_equiv_pos_site_id
_symmetry_equiv_pos_as_xyz
1 x,y,z
2 -x,-y,-z
_cell_length_a                   13.6848(7)
_cell_length_b                   14.5766(8)
_cell_length_c                   15.3761(8)
_cell_angle_alpha                98.393(4)
_cell_angle_beta                 91.034(4)
_cell_angle_gamma                98.274(4)
_cell_volume                     3000.37
loop_
_atom_site_label
_atom_site_type_symbol
_atom_site_fract_x
_atom_site_fract_y
_atom_site_fract_z
C1 C 1.0303(5) 0.5934(4) 0.7845(4)
C2 C 0.9621(4) 0.5440(4) 0.7102(4)
C3 C 0.8614(5) 0.5383(4) 0.7145(4)
H1 H 0.8342 0.5725 0.7615
C4 C 0.7996(5) 0.4816(4) 0.6488(4)
H2 H 0.7314 0.4776 0.6523
C5 C 0.8390(4) 0.4314(4) 0.5786(4)
C6 C 0.9398(4) 0.4408(4) 0.5720(4)
H3 H 0.9665 0.4092 0.5233
C7 C 1.0020(4) 0.4965(4) 0.6368(4)
H4 H 1.0701 0.5023 0.6315
C8 C 0.7525(4) 0.3742(4) 0.4382(4)
C9 C 0.7157(4) 0.2843(4) 0.3807(4)
C10 C 0.6958(5) 0.2679(4) 0.2909(4)
H5 H 0.6976 0.3176 0.2589
C11 C 0.6731(6) 0.1763(5) 0.2495(4)
H6 H 0.6601 0.1646 0.1890
C12 C 0.6694(5) 0.1024(4) 0.2957(4)
H7 H 0.6549 0.0411 0.2670
C13 C 0.6874(4) 0.1205(4) 0.3853(4)
C14 C 0.6830(4) 0.0533(4) 0.4498(4)
C15 C 0.6922(4) 0.0510(4) 0.6059(4)
C16 C 0.7704(4) 0.0203(4) 0.6465(4)
H8 H 0.8315 0.0234 0.6207
C17 C 0.7577(4) -0.0148(4) 0.7254(4)
H9 H 0.8103 -0.0353 0.7523
C18 C 0.6669(5) -0.0195(4) 0.7640(4)
C19 C 0.5886(5) 0.0111(4) 0.7225(4)
H10 H 0.5275 0.0086 0.7481
C20 C 0.6015(5) 0.0446(4) 0.6440(4)
H11 H 0.5485 0.0633 0.6162
C21 C 0.6522(6) -0.0581(6) 0.8468(5)
C22 C 0.9798(4) 0.0136(4) 0.2022(4)
C23 C 0.9632(4) 0.0697(4) 0.2896(4)
C24 C 0.9553(4) 0.0257(4) 0.3633(3)
H12 H 0.9637 -0.0370 0.3589
C25 C 0.9348(4) 0.0740(4) 0.4437(4)
H13 H 0.9295 0.0436 0.4929
C26 C 0.9222(4) 0.1676(4) 0.4512(4)
C27 C 0.9330(4) 0.2127(4) 0.3781(4)
H14 H 0.9274 0.2761 0.3830
C28 C 0.9521(4) 0.1637(4) 0.2973(4)
H15 H 0.9576 0.1941 0.2481
C29 C 0.9408(4) 0.2245(4) 0.6056(4)
C30 C 0.8805(4) 0.2528(4) 0.6838(4)
C31 C 0.9118(5) 0.2712(5) 0.7708(4)
H16 H 0.9773 0.2700 0.7873
C32 C 0.8438(6) 0.2916(7) 0.8331(5)
H17 H 0.8631 0.3046 0.8925
C33 C 0.7465(6) 0.2925(6) 0.8070(4)
H18 H 0.7000 0.3057 0.8486
C34 C 0.7197(4) 0.2740(4) 0.7192(4)
C35 C 0.6219(4) 0.2767(4) 0.6754(4)
C36 C 0.5478(4) 0.2734(4) 0.5322(4)
C37 C 0.5413(5) 0.3666(4) 0.5219(4)
H19 H 0.5734 0.4159 0.5623
C38 C 0.4871(5) 0.3841(4) 0.4517(5)
H20 H 0.4849 0.4459 0.4438
C39 C 0.4355(4) 0.3116(4) 0.3920(4)
C40 C 0.4350(4) 0.2209(4) 0.4075(4)
H21 H 0.3967 0.1719 0.3710
C41 C 0.4910(4) 0.2017(4) 0.4770(4)
H22 H 0.4902 0.1400 0.4864
C42 C 0.3904(4) 0.3338(4) 0.3106(4)
N1 N 0.7798(3) 0.3599(3) 0.5178(3)
N2 N 0.7129(3) 0.2095(3) 0.4242(3)
N3 N 0.7074(3) 0.0976(3) 0.5311(3)
N4 N 0.8871(3) 0.2119(3) 0.5312(3)
N5 N 0.7869(3) 0.2544(3) 0.6612(3)
N6 N 0.6232(3) 0.2568(3) 0.5892(3)
O1 O 0.7571(3) 0.4501(3) 0.4096(3)
O2 O 0.6556(3) -0.0325(3) 0.4263(3)
O3 O 0.8668(3) -0.2297(3) 0.8346(3)
O4 O 1.0285(3) 0.2129(3) 0.6161(3)
O5 O 0.7704(4) -0.2274(4) 1.0098(3)
O6 O 0.5482(3) 0.2952(4) 0.7191(3)
O7 O 0.6882(4) -0.3993(3) 0.8652(4)
O8 O 1.1145(4) 0.5707(4) 0.7914(3)
O9 O 0.5613(4) -0.2468(5) 0.9148(5)
O10 O 1.0005(4) 0.6560(3) 0.8392(3)
O11 O 1.1573(4) -0.0058(4) -0.0065(4)
O12 O 0.5735(6) -0.0549(8) 0.8829(6)
O13 O 0.9730(4) -0.1443(3) 0.0319(3)
O14 O 0.7201(4) -0.0970(3) 0.8768(3)
O15 O 1.1753(4) 0.3623(3) 0.5376(3)
O16 O 0.9626(4) -0.0735(3) 0.1949(3)
O17 O 1.1583(4) 0.3869(3) 0.7435(3)
O18 O 1.0097(3) 0.0577(3) 0.1403(2)
O19 O 1.3392(4) 0.3233(4) 0.6720(5)
O20 O 0.4159(4) 0.4125(3) 0.2874(3)
O21 O 1.1894(4) 0.1865(3) 0.7414(3)
O22 O 0.3283(3) 0.2688(3) 0.2661(3)
O23 O 1.2209(4) 0.1618(3) 0.5385(3)
Mn1 Mn 0.71386(7) -0.24625(7) 0.87095(6)
Mn2 Mn 1.0000 0.0000 0.0000
Mn3 Mn 1.18080(7) 0.27259(6) 0.63898(6)
Co1 Co 0.74953(5) 0.23214(5) 0.54228(5)
C1A C -0.0303(5) -0.5934(4) 0.2155(4)
C2A C 0.0379(4) -0.5440(4) 0.2898(4)
C3A C 0.1386(5) -0.5383(4) 0.2855(4)
H1A H 0.1658 -0.5725 0.2385
C4A C 0.2004(5) -0.4816(4) 0.3512(4)
H2A H 0.2686 -0.4776 0.3477
C5A C 0.1610(4) -0.4314(4) 0.4214(4)
C6A C 0.0602(4) -0.4408(4) 0.4280(4)
H3A H 0.0335 -0.4092 0.4767
C7A C -0.0020(4) -0.4965(4) 0.3632(4)
H4A H -0.0701 -0.5023 0.3685
C8A C 0.2475(4) -0.3742(4) 0.5618(4)
C9A C 0.2843(4) -0.2843(4) 0.6193(4)
C10A C 0.3042(5) -0.2679(4) 0.7091(4)
H5A H 0.3024 -0.3176 0.7411
C11A C 0.3269(6) -0.1763(5) 0.7505(4)
H6A H 0.3399 -0.1646 0.8110
C12A C 0.3306(5) -0.1024(4) 0.7043(4)
H7A H 0.3451 -0.0411 0.7330
C13A C 0.3126(4) -0.1205(4) 0.6147(4)
C14A C 0.3170(4) -0.0533(4) 0.5502(4)
C15A C 0.3078(4) -0.0510(4) 0.3941(4)
C16A C 0.2296(4) -0.0203(4) 0.3535(4)
H8A H 0.1685 -0.0234 0.3793
C17A C 0.2423(4) 0.0148(4) 0.2746(4)
H9A H 0.1897 0.0353 0.2477
C18A C 0.3331(5) 0.0195(4) 0.2360(4)
C19A C 0.4114(5) -0.0111(4) 0.2775(4)
H10A H 0.4725 -0.0086 0.2519
C20A C 0.3985(5) -0.0446(4) 0.3560(4)
H11A H 0.4515 -0.0633 0.3838
C21A C 0.3478(6) 0.0581(6) 0.1532(5)
C22A C 0.0202(4) -0.0136(4) 0.7978(4)
C23A C 0.0368(4) -0.0697(4) 0.7104(4)
C24A C 0.0447(4) -0.0257(4) 0.6367(3)
H12A H 0.0363 0.0370 0.6411
C25A C 0.0652(4) -0.0740(4) 0.5563(4)
H13A H 0.0705 -0.0436 0.5071
C26A C 0.0778(4) -0.1676(4) 0.5488(4)
C27A C 0.0670(4) -0.2127(4) 0.6219(4)
H14A H 0.0726 -0.2761 0.6170
C28A C 0.0479(4) -0.1637(4) 0.7027(4)
H15A H 0.0424 -0.1941 0.7519
C29A C 0.0592(4) -0.2245(4) 0.3944(4)
C30A C 0.1195(4) -0.2528(4) 0.3162(4)
C31A C 0.0882(5) -0.2712(5) 0.2292(4)
H16A H 0.0227 -0.2700 0.2127
C32A C 0.1562(6) -0.2916(7) 0.1669(5)
H17A H 0.1369 -0.3046 0.1075
C33A C 0.2535(6) -0.2925(6) 0.1930(4)
H18A H 0.3000 -0.3057 0.1514
C34A C 0.2803(4) -0.2740(4) 0.2808(4)
C35A C 0.3781(4) -0.2767(4) 0.3246(4)
C36A C 0.4522(4) -0.2734(4) 0.4678(4)
C37A C 0.4587(5) -0.3666(4) 0.4781(4)
H19A H 0.4266 -0.4159 0.4377
C38A C 0.5129(5) -0.3841(4) 0.5483(5)
H20A H 0.5151 -0.4459 0.5562
C39A C 0.5645(4) -0.3116(4) 0.6080(4)
C40A C 0.5650(4) -0.2209(4) 0.5925(4)
H21A H 0.6033 -0.1719 0.6290
C41A C 0.5090(4) -0.2017(4) 0.5230(4)
H22A H 0.5098 -0.1400 0.5136
C42A C 0.6096(4) -0.3338(4) 0.6894(4)
N1A N 0.2202(3) -0.3599(3) 0.4822(3)
N2A N 0.2871(3) -0.2095(3) 0.5758(3)
N3A N 0.2926(3) -0.0976(3) 0.4689(3)
N4A N 0.1129(3) -0.2119(3) 0.4688(3)
N5A N 0.2131(3) -0.2544(3) 0.3388(3)
N6A N 0.3768(3) -0.2568(3) 0.4108(3)
O1A O 0.2429(3) -0.4501(3) 0.5904(3)
O2A O 0.3444(3) 0.0325(3) 0.5737(3)
O3A O 0.1332(3) 0.2297(3) 0.1654(3)
O4A O -0.0285(3) -0.2129(3) 0.3839(3)
O5A O 0.2296(4) 0.2274(4) -0.0098(3)
O6A O 0.4518(3) -0.2952(4) 0.2809(3)
O7A O 0.3118(4) 0.3993(3) 0.1348(4)
O8A O -0.1145(4) -0.5707(4) 0.2086(3)
O9A O 0.4387(4) 0.2468(5) 0.0852(5)
O10A O -0.0005(4) -0.6560(3) 0.1608(3)
O12A O 0.4265(6) 0.0549(8) 0.1171(6)
O14A O 0.2799(4) 0.0970(3) 0.1232(3)
O15A O -0.1753(4) -0.3623(3) 0.4624(3)
O16A O 0.0374(4) 0.0735(3) 0.8051(3)
O17A O -0.1583(4) -0.3869(3) 0.2565(3)
O18A O -0.0097(3) -0.0577(3) 0.8597(2)
O19A O -0.3392(4) -0.3233(4) 0.3280(5)
O20A O 0.5841(4) -0.4125(3) 0.7126(3)
O21A O -0.1894(4) -0.1865(3) 0.2586(3)
O22A O 0.6717(3) -0.2688(3) 0.7339(3)
O23A O -0.2209(4) -0.1618(3) 0.4615(3)
Mn1A Mn 0.28614(7) 0.24625(7) 0.12905(6)
Mn3A Mn -0.18080(7) -0.27259(6) 0.36102(6)
Co1A Co 0.25047(5) -0.23214(5) 0.45772(5)
O11A O 0.8427(4) 0.0058(4) 0.0065(4)
O13A O 1.0270(4) 0.1443(3) -0.0319(3)
O18A_2 O 0.9903(3) -0.0577(3) -0.1403(2)
Mn2_2 Mn 0.0000 0.0000 1.0000
O24 O 1.3868(4) 0.5127(4) 0.7097(4)
O25 O 1.1314(7) 0.7876(6) 0.9510(5)
O26 O 0.6125(6) -0.1405(5) 0.2677(5)
O27 O 0.2295(8) -0.3800(10) 0.9402(7)
O28 O 0.4146(7) -0.4001(7) 0.8841(7)
O29 O 0.8178(4) -0.2336(3) 0.6160(3)
O30 O 0.4983(11) 0.3178(16) 0.8903(8)
O31 O 0.7527(19) -0.3794(8) 1.0976(8)
O32 O 0.4036(14) 0.002(2) 0.9268(11)
O33 O 0.9576(19) 0.5838(19) 0.9960(14)
O34 O 0.6685(16) -0.129(2) 0.1255(13)
loop_
_geom_bond_atom_site_label_1
_geom_bond_atom_site_label_2
_geom_bond_site_symmetry_1
_geom_bond_site_symmetry_2
C1 C2 1_555 1_555
C2 C3 1_555 1_555
C3 H1 1_555 1_555
C4 C3 1_555 1_555
H2 C4 1_555 1_555
C5 C4 1_555 1_555
C6 C5 1_555 1_555
H3 C6 1_555 1_555
C7 C2 1_555 1_555
H4 C7 1_555 1_555
C8 C9 1_555 1_555
C9 C10 1_555 1_555
C10 H5 1_555 1_555
C11 C10 1_555 1_555
H6 C11 1_555 1_555
C12 C11 1_555 1_555
H7 C12 1_555 1_555
C13 C12 1_555 1_555
C14 C13 1_555 1_555
C15 C16 1_555 1_555
C16 H8 1_555 1_555
C17 C16 1_555 1_555
H9 C17 1_555 1_555
C18 C17 1_555 1_555
C19 C18 1_555 1_555
H10 C19 1_555 1_555
C20 C15 1_555 1_555
H11 C20 1_555 1_555
C21 C18 1_555 1_555
C22 C23 1_555 1_555
C23 C24 1_555 1_555
C24 H12 1_555 1_555
C25 C24 1_555 1_555
H13 C25 1_555 1_555
C26 C25 1_555 1_555
C27 C26 1_555 1_555
H14 C27 1_555 1_555
C28 C23 1_555 1_555
H15 C28 1_555 1_555
C29 C30 1_555 1_555
C30 C31 1_555 1_555
C31 H16 1_555 1_555
C32 C31 1_555 1_555
H17 C32 1_555 1_555
C33 C32 1_555 1_555
H18 C33 1_555 1_555
C34 C33 1_555 1_555
C35 C34 1_555 1_555
C36 C37 1_555 1_555
C37 H19 1_555 1_555
C38 C37 1_555 1_555
H20 C38 1_555 1_555
C39 C38 1_555 1_555
C40 C39 1_555 1_555
H21 C40 1_555 1_555
C41 C36 1_555 1_555
H22 C41 1_555 1_555
C42 C39 1_555 1_555
N1 C5 1_555 1_555
N2 C9 1_555 1_555
N3 C14 1_555 1_555
N4 C26 1_555 1_555
N5 C30 1_555 1_555
N6 C35 1_555 1_555
O1 C8 1_555 1_555
O2 C14 1_555 1_555
O3 Mn1 1_555 1_555
O4 C29 1_555 1_555
O5 Mn1 1_555 1_555
O6 C35 1_555 1_555
O7 Mn1 1_555 1_555
O8 C1 1_555 1_555
O9 Mn1 1_555 1_555
O10 C1 1_555 1_555
O11 Mn2 1_555 1_555
O12 C21 1_555 1_555
O13 Mn2 1_555 1_555
O14 C21 1_555 1_555
O15 Mn3 1_555 1_555
O16 C22 1_555 1_555
O17 Mn3 1_555 1_555
O18 C22 1_555 1_555
O19 Mn3 1_555 1_555
O20 C42 1_555 1_555
O21 Mn3 1_555 1_555
O22 C42 1_555 1_555
O23 Mn3 1_555 1_555
Mn1 O14 1_555 1_555
Mn2 O18 1_555 1_555
Mn3 O4 1_555 1_555
Co1 N1 1_555 1_555
C1A C2A 1_555 1_555
C2A C3A 1_555 1_555
C3A H1A 1_555 1_555
C4A C3A 1_555 1_555
H2A C4A 1_555 1_555
C5A C4A 1_555 1_555
C6A C5A 1_555 1_555
H3A C6A 1_555 1_555
C7A C2A 1_555 1_555
H4A C7A 1_555 1_555
C8A C9A 1_555 1_555
C9A C10A 1_555 1_555
C10A H5A 1_555 1_555
C11A C10A 1_555 1_555
H6A C11A 1_555 1_555
C12A C11A 1_555 1_555
H7A C12A 1_555 1_555
C13A C12A 1_555 1_555
C14A C13A 1_555 1_555
C15A C16A 1_555 1_555
C16A H8A 1_555 1_555
C17A C16A 1_555 1_555
H9A C17A 1_555 1_555
C18A C17A 1_555 1_555
C19A C18A 1_555 1_555
H10A C19A 1_555 1_555
C20A C15A 1_555 1_555
H11A C20A 1_555 1_555
C21A C18A 1_555 1_555
C22A C23A 1_555 1_555
C23A C24A 1_555 1_555
C24A H12A 1_555 1_555
C25A C24A 1_555 1_555
H13A C25A 1_555 1_555
C26A C25A 1_555 1_555
C27A C26A 1_555 1_555
H14A C27A 1_555 1_555
C28A C23A 1_555 1_555
H15A C28A 1_555 1_555
C29A C30A 1_555 1_555
C30A C31A 1_555 1_555
C31A H16A 1_555 1_555
C32A C31A 1_555 1_555
H17A C32A 1_555 1_555
C33A C32A 1_555 1_555
H18A C33A 1_555 1_555
C34A C33A 1_555 1_555
C35A C34A 1_555 1_555
C36A C37A 1_555 1_555
C37A H19A 1_555 1_555
C38A C37A 1_555 1_555
H20A C38A 1_555 1_555
C39A C38A 1_555 1_555
C40A C39A 1_555 1_555
H21A C40A 1_555 1_555
C41A C36A 1_555 1_555
H22A C41A 1_555 1_555
C42A C39A 1_555 1_555
N1A C5A 1_555 1_555
N2A C9A 1_555 1_555
N3A C14A 1_555 1_555
N4A C26A 1_555 1_555
N5A C30A 1_555 1_555
N6A C35A 1_555 1_555
O1A C8A 1_555 1_555
O2A C14A 1_555 1_555
O3A Mn1A 1_555 1_555
O4A C29A 1_555 1_555
O5A Mn1A 1_555 1_555
O6A C35A 1_555 1_555
O7A Mn1A 1_555 1_555
O8A C1A 1_555 1_555
O9A Mn1A 1_555 1_555
O10A C1A 1_555 1_555
O12A C21A 1_555 1_555
O14A C21A 1_555 1_555
O15A Mn3A 1_555 1_555
O16A C22A 1_555 1_555
O17A Mn3A 1_555 1_555
O18A C22A 1_555 1_555
O19A Mn3A 1_555 1_555
O20A C42A 1_555 1_555
O21A Mn3A 1_555 1_555
O22A Mn1 1_555 1_555
O23A Mn3A 1_555 1_555
Mn1A O22 1_555 1_555
Mn3A O4A 1_555 1_555
Co1A N1A 1_555 1_555
O11A Mn2 1_555 1_555
O13A Mn2 1_555 1_555
O18A_2 Mn2 1_555 1_555
Mn2_2 O18A 1_555 1_555
C6 C7 1_555 1_555
C8 N1 1_555 1_555
C13 N2 1_555 1_555
C15 N3 1_555 1_555
C19 C20 1_555 1_555
C27 C28 1_555 1_555
C29 N4 1_555 1_555
C34 N5 1_555 1_555
C36 N6 1_555 1_555
C40 C41 1_555 1_555
N2 Co1 1_555 1_555
N3 Co1 1_555 1_555
N4 Co1 1_555 1_555
N5 Co1 1_555 1_555
N6 Co1 1_555 1_555
C6A C7A 1_555 1_555
C8A N1A 1_555 1_555
C13A N2A 1_555 1_555
C15A N3A 1_555 1_555
C19A C20A 1_555 1_555
C27A C28A 1_555 1_555
C29A N4A 1_555 1_555
C34A N5A 1_555 1_555
C36A N6A 1_555 1_555
C40A C41A 1_555 1_555
C42A O22A 1_555 1_555
N2A Co1A 1_555 1_555
N3A Co1A 1_555 1_555
N4A Co1A 1_555 1_555
N5A Co1A 1_555 1_555
N6A Co1A 1_555 1_555
O14A Mn1A 1_555 1_555

#END
