
#######################################################################
#
#                 Cambridge Crystallographic Data Centre
#                                CCDC 
#
#######################################################################
#
# If this CIF has been generated from an entry in the Cambridge 
# Structural Database, then it will include bibliographic, chemical, 
# crystal, experimental, refinement or atomic coordinate data resulting 
# from the CCDC's data processing and validation procedures.
#
#######################################################################

data_ZOYZIY
_symmetry_cell_setting           triclinic
_symmetry_space_group_name_H-M   'P -1'
_symmetry_Int_Tables_number      2
_space_group_name_Hall           '-P 1'
loop_
_symmetry_equiv_pos_site_id
_symmetry_equiv_pos_as_xyz
1 x,y,z
2 -x,-y,-z
_cell_length_a                   9.8861(11)
_cell_length_b                   14.3980(15)
_cell_length_c                   15.8646(17)
_cell_angle_alpha                91.9550(10)
_cell_angle_beta                 73.9110(10)
_cell_angle_gamma                74.3040(10)
_cell_volume                     2074.24
loop_
_atom_site_label
_atom_site_type_symbol
_atom_site_fract_x
_atom_site_fract_y
_atom_site_fract_z
Ag1 Ag 0.42730(2) 0.960823(16) 0.386149(15)
Ag2 Ag 0.70683(3) 0.837854(17) 0.450709(15)
Ag3 Ag 0.87098(3) 0.612742(16) 0.069113(14)
Ag4 Ag 0.85341(2) 0.245321(16) 0.296447(14)
N1 N 0.5868(3) 0.83014(18) 0.29182(16)
N2 N 0.7086(3) 0.79491(18) 0.32047(16)
N3 N 0.7565(3) 0.72063(18) 0.18630(16)
N4 N 0.5964(3) 1.05021(18) 0.39871(16)
N5 N 0.5782(3) 1.10687(18) 0.47597(16)
N6 N 0.6996(3) 1.16912(18) 0.36295(16)
N7 N 0.7963(3) 0.83522(18) 0.55831(16)
N8 N 0.7721(3) 0.92149(18) 0.60894(16)
N9 N 0.9613(3) 0.81072(18) 0.63297(16)
N10 N 0.9134(3) 0.46402(18) 0.11959(16)
N11 N 1.0248(3) 0.38423(18) 0.07065(16)
N12 N 0.9131(3) 0.33719(18) 0.19588(16)
C1 C 0.6192(3) 0.7841(2) 0.2120(2)
C2 C 0.5165(4) 0.8004(2) 0.1570(2)
H1 H 0.4174 0.8018 0.1945
H2 H 0.5501 0.7450 0.1101
C3 C 0.5049(4) 0.8935(3) 0.1143(2)
H3 H 0.6046 0.8950 0.0803
H4 H 0.4627 0.9497 0.1610
C4 C 0.4087(5) 0.9027(3) 0.0528(3)
H5 H 0.4540 0.8498 0.0041
H6 H 0.3993 0.9653 0.0289
H7 H 0.3109 0.8990 0.0858
C5 C 0.8070(3) 0.7297(2) 0.2561(2)
C6 C 0.9529(4) 0.6734(3) 0.2624(2)
H8 H 0.9657 0.6035 0.2482
H9 H 0.9537 0.6835 0.3243
C7 C 1.0843(4) 0.6994(3) 0.2020(3)
H10 H 1.0685 0.7703 0.2117
H11 H 1.0917 0.6823 0.1395
C8 C 1.2286(4) 0.6453(3) 0.2197(3)
H12 H 1.3100 0.6654 0.1819
H13 H 1.2474 0.5751 0.2067
H14 H 1.2207 0.6608 0.2818
C9 C 0.6681(3) 1.0901(2) 0.33349(19)
C10 C 0.7085(4) 1.0523(2) 0.2382(2)
H15 H 0.6721 0.9953 0.2334
H16 H 0.8171 1.0302 0.2137
C11 C 0.6453(4) 1.1283(3) 0.1826(2)
H17 H 0.6879 1.1830 0.1835
H18 H 0.6751 1.0986 0.1206
C12 C 0.4785(4) 1.1674(3) 0.2157(2)
H19 H 0.4440 1.2130 0.1764
H20 H 0.4485 1.2011 0.2756
H21 H 0.4356 1.1135 0.2165
C13 C 0.6408(3) 1.1762(2) 0.45154(19)
C14 C 0.6437(4) 1.2545(2) 0.5153(2)
H22 H 0.7472 1.2495 0.5114
H23 H 0.5938 1.2446 0.5762
C15 C 0.5679(4) 1.3569(2) 0.4971(2)
H24 H 0.5722 1.4054 0.5413
H25 H 0.6231 1.3686 0.4381
C16 C 0.4080(4) 1.3723(2) 0.5002(2)
H26 H 0.4028 1.3252 0.4560
H27 H 0.3667 1.4384 0.4876
H28 H 0.3517 1.3632 0.5591
C17 C 0.9099(3) 0.7718(2) 0.57413(19)
C18 C 0.9738(4) 0.6697(2) 0.5294(2)
H29 H 1.0655 0.6653 0.4820
H30 H 0.9036 0.6538 0.5014
C19 C 1.0085(4) 0.5942(2) 0.5922(2)
H31 H 1.0541 0.5290 0.5579
H32 H 1.0805 0.6089 0.6192
C20 C 0.8724(5) 0.5927(3) 0.6647(3)
H33 H 0.8028 0.5749 0.6385
H34 H 0.8262 0.6572 0.6985
H35 H 0.9002 0.5450 0.7041
C21 C 0.8717(3) 0.9030(2) 0.65170(18)
C22 C 0.8910(4) 0.9797(2) 0.7108(2)
H36 H 0.9371 0.9480 0.7544
H37 H 0.7930 1.0241 0.7436
C23 C 0.9874(4) 1.0399(3) 0.6585(2)
H38 H 1.0172 1.0769 0.7003
H39 H 1.0779 0.9950 0.6172
C24 C 0.9096(4) 1.1095(3) 0.6070(3)
H40 H 0.8861 1.0730 0.5624
H41 H 0.9733 1.1478 0.5777
H42 H 0.8184 1.1530 0.6471
C25 C 0.8489(3) 0.4327(2) 0.19322(19)
C26 C 0.7200(4) 0.4960(2) 0.2648(2)
H43 H 0.7357 0.5603 0.2731
H44 H 0.7153 0.4668 0.3207
C27 C 0.5739(4) 0.5103(3) 0.2460(2)
H45 H 0.5797 0.5364 0.1886
H46 H 0.4960 0.5586 0.2923
C28 C 0.5325(5) 0.4165(3) 0.2432(3)
H47 H 0.4376 0.4291 0.2310
H48 H 0.5248 0.3909 0.3003
H49 H 0.6082 0.3688 0.1965
C29 C 1.0221(3) 0.3104(2) 0.11812(19)
C30 C 1.1255(4) 0.2105(2) 0.0897(2)
H50 H 1.1693 0.1895 0.1375
H51 H 1.2064 0.2123 0.0370
C31 C 1.0522(4) 0.1355(2) 0.0675(2)
H52 H 1.1253 0.0704 0.0537
H53 H 0.9712 0.1338 0.1201
C32 C 0.9909(5) 0.1566(3) -0.0100(3)
H54 H 1.0693 0.1618 -0.0616
H55 H 0.9113 0.2179 0.0054
H56 H 0.9526 0.1038 -0.0238
Ag1A Ag 0.57270(2) 1.039177(16) 0.613851(15)
Ag3A Ag 1.12902(3) 0.387258(16) -0.069113(14)
Ag4_2 Ag 0.85341(2) 1.245321(16) 0.296447(14)
Ag4A Ag 1.14659(2) 0.754679(16) 0.703553(14)
N5A N 0.4218(3) 0.89313(18) 0.52403(16)
N6_2 N 0.6996(3) 0.16912(18) 0.36295(16)
N8A N 0.2279(3) 1.07851(18) 0.39106(16)
N9A N 1.0387(3) 0.18928(18) 0.36703(16)
N11A N 0.9752(3) 0.61577(18) -0.07065(16)
C33 C 0.6517(7) 0.4416(5) 0.0076(5)
H57 H 0.7508 0.4159 0.0078
C34 C 0.6033(8) 0.5349(5) -0.0144(5)
H58 H 0.6694 0.5731 -0.0292
C35 C 0.5550(9) 0.3857(4) 0.0293(5)
H59 H 0.5880 0.3219 0.0443
C33A C 0.3483(7) 0.5584(5) -0.0076(5)
H57A H 0.2492 0.5841 -0.0078
C34A C 0.3967(8) 0.4651(5) 0.0144(5)
H58A H 0.3306 0.4269 0.0292
C35A C 0.4450(9) 0.6143(4) -0.0293(5)
H59A H 0.4120 0.6781 -0.0443
C36? C 0.4099(8) 0.4232(5) 0.0291(5)
H60? H 0.3438 0.3850 0.0439
C37? C 0.4583(9) 0.5723(4) -0.0146(5)
H61? H 0.7376 0.4579 -0.0069
C38? C 0.6384(7) 0.4835(5) -0.0071(5)
H62? H 0.4252 0.6361 -0.0296
loop_
_geom_bond_atom_site_label_1
_geom_bond_atom_site_label_2
_geom_bond_site_symmetry_1
_geom_bond_site_symmetry_2
Ag1 N1 1_555 1_555
Ag2 N2 1_555 1_555
Ag3 N3 1_555 1_555
Ag4 N12 1_555 1_555
N1 N2 1_555 1_555
N2 C5 1_555 1_555
N3 C1 1_555 1_555
N4 Ag1 1_555 1_555
N5 N4 1_555 1_555
N6 C9 1_555 1_555
N7 Ag2 1_555 1_555
N8 N7 1_555 1_555
N9 C17 1_555 1_555
N10 Ag3 1_555 1_555
N11 N10 1_555 1_555
N12 C25 1_555 1_555
C1 N1 1_555 1_555
C2 C1 1_555 1_555
H1 C2 1_555 1_555
H2 C2 1_555 1_555
C3 C2 1_555 1_555
H3 C3 1_555 1_555
H4 C3 1_555 1_555
C4 C3 1_555 1_555
H5 C4 1_555 1_555
H6 C4 1_555 1_555
H7 C4 1_555 1_555
C5 N3 1_555 1_555
C6 C5 1_555 1_555
H8 C6 1_555 1_555
H9 C6 1_555 1_555
C7 C6 1_555 1_555
H10 C7 1_555 1_555
H11 C7 1_555 1_555
C8 C7 1_555 1_555
H12 C8 1_555 1_555
H13 C8 1_555 1_555
H14 C8 1_555 1_555
C9 N4 1_555 1_555
C10 C9 1_555 1_555
H15 C10 1_555 1_555
H16 C10 1_555 1_555
C11 C10 1_555 1_555
H17 C11 1_555 1_555
H18 C11 1_555 1_555
C12 C11 1_555 1_555
H19 C12 1_555 1_555
H20 C12 1_555 1_555
H21 C12 1_555 1_555
C13 N5 1_555 1_555
C14 C13 1_555 1_555
H22 C14 1_555 1_555
H23 C14 1_555 1_555
C15 C14 1_555 1_555
H24 C15 1_555 1_555
H25 C15 1_555 1_555
C16 C15 1_555 1_555
H26 C16 1_555 1_555
H27 C16 1_555 1_555
H28 C16 1_555 1_555
C17 N7 1_555 1_555
C18 C17 1_555 1_555
H29 C18 1_555 1_555
H30 C18 1_555 1_555
C19 C18 1_555 1_555
H31 C19 1_555 1_555
H32 C19 1_555 1_555
C20 C19 1_555 1_555
H33 C20 1_555 1_555
H34 C20 1_555 1_555
H35 C20 1_555 1_555
C21 N8 1_555 1_555
C22 C21 1_555 1_555
H36 C22 1_555 1_555
H37 C22 1_555 1_555
C23 C22 1_555 1_555
H38 C23 1_555 1_555
H39 C23 1_555 1_555
C24 C23 1_555 1_555
H40 C24 1_555 1_555
H41 C24 1_555 1_555
H42 C24 1_555 1_555
C25 N10 1_555 1_555
C26 C25 1_555 1_555
H43 C26 1_555 1_555
H44 C26 1_555 1_555
C27 C26 1_555 1_555
H45 C27 1_555 1_555
H46 C27 1_555 1_555
C28 C27 1_555 1_555
H47 C28 1_555 1_555
H48 C28 1_555 1_555
H49 C28 1_555 1_555
C29 N11 1_555 1_555
C30 C29 1_555 1_555
H50 C30 1_555 1_555
H51 C30 1_555 1_555
C31 C30 1_555 1_555
H52 C31 1_555 1_555
H53 C31 1_555 1_555
C32 C31 1_555 1_555
H54 C32 1_555 1_555
H55 C32 1_555 1_555
H56 C32 1_555 1_555
C33 H57 1_555 1_555
C34 C33 1_555 1_555
H58 C34 1_555 1_555
C35 C33 1_555 1_555
H59 C35 1_555 1_555
Ag1A N5 1_555 1_555
Ag3A N11 1_555 1_555
Ag4_2 N6 1_555 1_555
Ag4A N9 1_555 1_555
N5A Ag1 1_555 1_555
N6_2 Ag4 1_555 1_555
N8A Ag1 1_555 1_555
N9A Ag4 1_555 1_555
N11A Ag3 1_555 1_555
C33A H57A 1_555 1_555
C34A C35 1_555 1_555
H58A C34A 1_555 1_555
C35A C34 1_555 1_555
H59A C35A 1_555 1_555
N6 C13 1_555 1_555
N8 Ag1A 1_555 1_555
N9 C21 1_555 1_555
N12 C29 1_555 1_555
C33A C34A 1_555 1_555
C33A C35A 1_555 1_555

#END
