
#######################################################################
#
#                 Cambridge Crystallographic Data Centre
#                                CCDC 
#
#######################################################################
#
# If this CIF has been generated from an entry in the Cambridge 
# Structural Database, then it will include bibliographic, chemical, 
# crystal, experimental, refinement or atomic coordinate data resulting 
# from the CCDC's data processing and validation procedures.
#
#######################################################################

data_ZOYZAQ
_symmetry_cell_setting           monoclinic
_symmetry_space_group_name_H-M   'P 21/c'
_symmetry_Int_Tables_number      14
_space_group_name_Hall           '-P 2ybc'
loop_
_symmetry_equiv_pos_site_id
_symmetry_equiv_pos_as_xyz
1 x,y,z
2 -x,1/2+y,1/2-z
3 -x,-y,-z
4 x,1/2-y,1/2+z
_cell_length_a                   11.243(2)
_cell_length_b                   18.664(4)
_cell_length_c                   21.085(4)
_cell_angle_alpha                90
_cell_angle_beta                 97.99(3)
_cell_angle_gamma                90
_cell_volume                     4381.51
loop_
_atom_site_label
_atom_site_type_symbol
_atom_site_fract_x
_atom_site_fract_y
_atom_site_fract_z
Ag1 Ag 0.443140(18) 0.115758(11) 0.171472(10)
Ag2 Ag 0.504758(18) 0.278728(11) 0.238909(10)
Ag3 Ag 0.596717(18) 0.123232(11) 0.316633(10)
Ag4 Ag 0.119164(18) 0.231217(11) 0.432639(10)
Ag5 Ag -0.080268(18) 0.265653(11) 0.556946(10)
N1 N 0.6319(2) 0.16900(12) 0.16206(11)
N2 N 0.6300(2) 0.24146(12) 0.17710(11)
N3 N 0.7769(2) 0.22436(12) 0.11882(11)
N4 N 0.5185(2) 0.51304(12) 0.27928(11)
N5 N 0.4513(2) 0.51632(12) 0.21946(11)
N6 N 0.4959(2) 0.40263(13) 0.24062(11)
N7 N 0.8483(2) 0.23421(12) 0.45409(11)
N8 N 0.9215(2) 0.22582(12) 0.40695(11)
N9 N 0.7387(2) 0.18773(12) 0.36756(11)
N10 N 0.3889(2) 0.23650(12) 0.30404(11)
N11 N 0.3959(2) 0.16345(13) 0.31681(12)
N12 N 0.2495(2) 0.20958(13) 0.36484(11)
N13 N 0.1887(2) 0.27200(12) 0.53083(11)
N14 N 0.1138(2) 0.28535(12) 0.57654(11)
N15 N 0.2959(2) 0.32589(12) 0.61457(11)
C1 C 0.7210(2) 0.16156(15) 0.12739(13)
C2 C 0.7586(3) 0.09328(16) 0.09913(15)
H1 H 0.8471 0.0896 0.1083
H2 H 0.7369 0.0959 0.0520
C3 C 0.7048(3) 0.02559(16) 0.12255(17)
H3 H 0.7385 -0.0162 0.1032
H4 H 0.6174 0.0263 0.1103
H5 H 0.7235 0.0228 0.1693
C4 C 0.7172(2) 0.27229(15) 0.15023(13)
C5 C 0.7466(3) 0.35036(15) 0.15584(14)
H6 H 0.6897 0.3740 0.1810
H7 H 0.7355 0.3719 0.1125
C6 C 0.8744(3) 0.36499(18) 0.18768(17)
H8 H 0.8895 0.4167 0.1883
H9 H 0.9314 0.3409 0.1636
H10 H 0.8845 0.3467 0.2317
C7 C 0.5429(2) 0.44455(14) 0.29039(13)
C8 C 0.6119(3) 0.41587(16) 0.35064(14)
H11 H 0.5605 0.3817 0.3704
H12 H 0.6317 0.4559 0.3811
C9 C 0.7278(3) 0.37807(17) 0.34005(16)
H13 H 0.7665 0.3579 0.3807
H14 H 0.7821 0.4126 0.3239
H15 H 0.7094 0.3394 0.3087
C10 C 0.4404(2) 0.44982(15) 0.19779(13)
C11 C 0.3745(3) 0.42969(18) 0.13353(15)
H16 H 0.4332 0.4129 0.1059
H17 H 0.3343 0.4728 0.1133
C12 C 0.2808(4) 0.37131(19) 0.1371(2)
H18 H 0.2379 0.3621 0.0942
H19 H 0.2235 0.3870 0.1653
H20 H 0.3206 0.3273 0.1542
C13 C 0.7401(2) 0.21095(15) 0.42861(13)
C14 C 0.6348(3) 0.20828(18) 0.46336(15)
H21 H 0.5648 0.2296 0.4362
H22 H 0.6514 0.2375 0.5028
C15 C 0.6039(3) 0.1322(2) 0.48136(16)
H23 H 0.5400 0.1335 0.5086
H24 H 0.6753 0.1092 0.5047
H25 H 0.5764 0.1048 0.4424
C16 C 0.8527(2) 0.19797(14) 0.35662(13)
C17 C 0.8959(3) 0.17860(17) 0.29507(13)
H26 H 0.9786 0.1970 0.2955
H27 H 0.8440 0.2022 0.2593
C18 C 0.8954(3) 0.09818(19) 0.28334(16)
H28 H 0.9160 0.0886 0.2405
H29 H 0.8153 0.0789 0.2865
H30 H 0.9545 0.0752 0.3155
C19 C 0.3010(2) 0.26166(15) 0.33359(13)
C20 C 0.2639(3) 0.33854(15) 0.33209(15)
H31 H 0.3195 0.3667 0.3093
H32 H 0.2706 0.3568 0.3765
C21 C 0.1355(3) 0.34994(18) 0.29912(19)
H33 H 0.1169 0.4013 0.2978
H34 H 0.0795 0.3247 0.3230
H35 H 0.1278 0.3311 0.2553
C22 C 0.3114(2) 0.14984(16) 0.35274(14)
C23 C 0.2852(3) 0.07590(17) 0.37448(17)
H36 H 0.3503 0.0435 0.3651
H37 H 0.2095 0.0591 0.3492
C24 C 0.2734(4) 0.0699(2) 0.44518(19)
H38 H 0.2558 0.0201 0.4554
H39 H 0.2080 0.1009 0.4550
H40 H 0.3488 0.0848 0.4708
C25 C 0.2958(2) 0.29685(15) 0.55579(13)
C26 C 0.4041(3) 0.29304(17) 0.52272(14)
H41 H 0.3854 0.2638 0.4834
H42 H 0.4695 0.2688 0.5510
C27 C 0.4474(3) 0.36676(19) 0.50475(15)
H43 H 0.5212 0.3616 0.4853
H44 H 0.4634 0.3965 0.5433
H45 H 0.3853 0.3895 0.4741
C28 C 0.1812(2) 0.31762(15) 0.62513(13)
C29 C 0.1353(2) 0.34322(16) 0.68411(13)
H46 H 0.1838 0.3215 0.7220
H47 H 0.0512 0.3271 0.6833
C30 C 0.1402(3) 0.42486(17) 0.69054(16)
H48 H 0.1120 0.4390 0.7306
H49 H 0.0887 0.4466 0.6543
H50 H 0.2231 0.4412 0.6908
Ag1A Ag 0.556860(18) 0.615758(11) 0.328528(10)
Ag1C Ag 0.443140(18) 0.384242(11) 0.671472(10)
Ag3A Ag 0.403283(18) 0.623232(11) 0.183367(10)
Ag4_2 Ag 1.119164(18) 0.231217(11) 0.432639(10)
Ag5_2 Ag 0.919732(18) 0.265653(11) 0.556946(10)
Ag5C Ag 0.919732(18) 0.234347(11) 0.056946(10)
N3C N -0.2231(2) 0.27564(12) 0.61882(11)
N4A N 0.4815(2) 0.01304(12) 0.22072(11)
N5A N 0.5487(2) 0.01632(12) 0.28054(11)
N7_2 N -0.1517(2) 0.23421(12) 0.45409(11)
N8_2 N -0.0785(2) 0.22582(12) 0.40695(11)
N15C N 0.2959(2) 0.17411(12) 0.11457(11)
C31 C -0.0260(3) 0.06634(19) 0.52351(18)
H51 H -0.0440 0.1119 0.5399
C32 C -0.0684(3) 0.04872(19) 0.46113(18)
H52 H -0.1151 0.0822 0.4344
C33 C -0.0433(3) -0.0178(2) 0.43741(18)
H53 H -0.0732 -0.0302 0.3945
C31B C 0.0260(3) -0.06634(19) 0.47649(18)
H51B H 0.0440 -0.1119 0.4601
C32B C 0.0684(3) -0.04872(19) 0.53887(18)
H52B H 0.1151 -0.0822 0.5656
C33B C 0.0433(3) 0.0178(2) 0.56259(18)
H53B H 0.0732 0.0302 0.6055
C34 C -0.0202(3) 0.43299(18) 0.47274(16)
H54 H -0.0342 0.3869 0.4540
C35 C 0.0929(3) 0.45125(19) 0.50268(16)
H55 H 0.1570 0.4178 0.5046
C36 C 0.1123(3) 0.51821(19) 0.52978(17)
H56 H 0.1901 0.5307 0.5504
C34B C 0.0202(3) 0.56701(18) 0.52726(16)
H54B H 0.0342 0.6131 0.5460
C35B C -0.0929(3) 0.54875(19) 0.49732(16)
H55B H -0.1570 0.5822 0.4954
C36B C -0.1123(3) 0.48179(19) 0.47022(17)
H56B H -0.1901 0.4693 0.4496
loop_
_geom_bond_atom_site_label_1
_geom_bond_atom_site_label_2
_geom_bond_site_symmetry_1
_geom_bond_site_symmetry_2
Ag1 N1 1_555 1_555
Ag2 N2 1_555 1_555
Ag3 N9 1_555 1_555
Ag4 N12 1_555 1_555
Ag5 N14 1_555 1_555
N1 N2 1_555 1_555
N2 C4 1_555 1_555
N3 C1 1_555 1_555
N4 N5 1_555 1_555
N5 C10 1_555 1_555
N6 Ag2 1_555 1_555
N7 N8 1_555 1_555
N8 C16 1_555 1_555
N9 C13 1_555 1_555
N10 Ag2 1_555 1_555
N11 Ag3 1_555 1_555
N12 C19 1_555 1_555
N13 Ag4 1_555 1_555
N14 N13 1_555 1_555
N15 C25 1_555 1_555
C1 N1 1_555 1_555
C2 C1 1_555 1_555
H1 C2 1_555 1_555
H2 C2 1_555 1_555
C3 C2 1_555 1_555
H3 C3 1_555 1_555
H4 C3 1_555 1_555
H5 C3 1_555 1_555
C4 N3 1_555 1_555
C5 C4 1_555 1_555
H6 C5 1_555 1_555
H7 C5 1_555 1_555
C6 C5 1_555 1_555
H8 C6 1_555 1_555
H9 C6 1_555 1_555
H10 C6 1_555 1_555
C7 N4 1_555 1_555
C8 C7 1_555 1_555
H11 C8 1_555 1_555
H12 C8 1_555 1_555
C9 C8 1_555 1_555
H13 C9 1_555 1_555
H14 C9 1_555 1_555
H15 C9 1_555 1_555
C10 N6 1_555 1_555
C11 C10 1_555 1_555
H16 C11 1_555 1_555
H17 C11 1_555 1_555
C12 C11 1_555 1_555
H18 C12 1_555 1_555
H19 C12 1_555 1_555
H20 C12 1_555 1_555
C13 N7 1_555 1_555
C14 C13 1_555 1_555
H21 C14 1_555 1_555
H22 C14 1_555 1_555
C15 C14 1_555 1_555
H23 C15 1_555 1_555
H24 C15 1_555 1_555
H25 C15 1_555 1_555
C16 N9 1_555 1_555
C17 C16 1_555 1_555
H26 C17 1_555 1_555
H27 C17 1_555 1_555
C18 C17 1_555 1_555
H28 C18 1_555 1_555
H29 C18 1_555 1_555
H30 C18 1_555 1_555
C19 N10 1_555 1_555
C20 C19 1_555 1_555
H31 C20 1_555 1_555
H32 C20 1_555 1_555
C21 C20 1_555 1_555
H33 C21 1_555 1_555
H34 C21 1_555 1_555
H35 C21 1_555 1_555
C22 N11 1_555 1_555
C23 C22 1_555 1_555
H36 C23 1_555 1_555
H37 C23 1_555 1_555
C24 C23 1_555 1_555
H38 C24 1_555 1_555
H39 C24 1_555 1_555
H40 C24 1_555 1_555
C25 N13 1_555 1_555
C26 C25 1_555 1_555
H41 C26 1_555 1_555
H42 C26 1_555 1_555
C27 C26 1_555 1_555
H43 C27 1_555 1_555
H44 C27 1_555 1_555
H45 C27 1_555 1_555
C28 N14 1_555 1_555
C29 C28 1_555 1_555
H46 C29 1_555 1_555
H47 C29 1_555 1_555
C30 C29 1_555 1_555
H48 C30 1_555 1_555
H49 C30 1_555 1_555
H50 C30 1_555 1_555
C31 H51 1_555 1_555
C32 C31 1_555 1_555
H52 C32 1_555 1_555
C33 C32 1_555 1_555
H53 C33 1_555 1_555
C34 H54 1_555 1_555
C35 C34 1_555 1_555
H55 C35 1_555 1_555
C36 C35 1_555 1_555
H56 C36 1_555 1_555
Ag1A N4 1_555 1_555
Ag1C N15 1_555 1_555
Ag3A N5 1_555 1_555
Ag4_2 N8 1_555 1_555
Ag5_2 N7 1_555 1_555
Ag5C N3 1_555 1_555
N3C Ag5 1_555 1_555
N4A Ag1 1_555 1_555
N5A Ag3 1_555 1_555
N7_2 Ag5 1_555 1_555
N8_2 Ag4 1_555 1_555
N15C Ag1 1_555 1_555
C31B C33 1_555 1_555
H51B C31B 1_555 1_555
C32B C31B 1_555 1_555
H52B C32B 1_555 1_555
C33B C31 1_555 1_555
H53B C33B 1_555 1_555
C34B C36 1_555 1_555
H54B C34B 1_555 1_555
C35B C34B 1_555 1_555
H55B C35B 1_555 1_555
C36B C34 1_555 1_555
H56B C36B 1_555 1_555
N6 C7 1_555 1_555
N10 N11 1_555 1_555
N12 C22 1_555 1_555
N15 C28 1_555 1_555
N4A N5A 1_555 1_555
N7_2 N8_2 1_555 1_555
C32B C33B 1_555 1_555
C35B C36B 1_555 1_555

#END
