
#######################################################################
#
#                 Cambridge Crystallographic Data Centre
#                                CCDC 
#
#######################################################################
#
# If this CIF has been generated from an entry in the Cambridge 
# Structural Database, then it will include bibliographic, chemical, 
# crystal, experimental, refinement or atomic coordinate data resulting 
# from the CCDC's data processing and validation procedures.
#
#######################################################################

data_ZOZBAT
_symmetry_cell_setting           cubic
_symmetry_space_group_name_H-M   'I m -3'
_symmetry_Int_Tables_number      204
_space_group_name_Hall           '-I 2 2 3'
loop_
_symmetry_equiv_pos_site_id
_symmetry_equiv_pos_as_xyz
1 x,y,z
2 -x,-y,z
3 -x,y,-z
4 x,-y,-z
5 z,x,y
6 z,-x,-y
7 -z,-x,y
8 -z,x,-y
9 y,z,x
10 -y,z,-x
11 y,-z,-x
12 -y,-z,x
13 1/2+x,1/2+y,1/2+z
14 1/2-x,1/2-y,1/2+z
15 1/2-x,1/2+y,1/2-z
16 1/2+x,1/2-y,1/2-z
17 1/2+z,1/2+x,1/2+y
18 1/2+z,1/2-x,1/2-y
19 1/2-z,1/2-x,1/2+y
20 1/2-z,1/2+x,1/2-y
21 1/2+y,1/2+z,1/2+x
22 1/2-y,1/2+z,1/2-x
23 1/2+y,1/2-z,1/2-x
24 1/2-y,1/2-z,1/2+x
25 -x,-y,-z
26 x,y,-z
27 x,-y,z
28 -x,y,z
29 -z,-x,-y
30 -z,x,y
31 z,x,-y
32 z,-x,y
33 -y,-z,-x
34 y,-z,x
35 -y,z,x
36 y,z,-x
37 1/2-x,1/2-y,1/2-z
38 1/2+x,1/2+y,1/2-z
39 1/2+x,1/2-y,1/2+z
40 1/2-x,1/2+y,1/2+z
41 1/2-z,1/2-x,1/2-y
42 1/2-z,1/2+x,1/2+y
43 1/2+z,1/2+x,1/2-y
44 1/2+z,1/2-x,1/2+y
45 1/2-y,1/2-z,1/2-x
46 1/2+y,1/2-z,1/2+x
47 1/2-y,1/2+z,1/2+x
48 1/2+y,1/2+z,1/2-x
_cell_length_a                   16.332(2)
_cell_length_b                   16.332
_cell_length_c                   16.332
_cell_angle_alpha                90
_cell_angle_beta                 90
_cell_angle_gamma                90
_cell_volume                     4356.3
loop_
_atom_site_label
_atom_site_type_symbol
_atom_site_fract_x
_atom_site_fract_y
_atom_site_fract_z
Ag1 Ag 0.0000 0.61770(3) 0.5000
N1 N 0.0000 0.5427(3) 0.6156(3)
N2 N 0.0000 0.5000 0.7453(4)
C1 C 0.0000 0.5652(3) 0.6941(3)
C2 C 0.0000 0.6526(3) 0.7212(3)
H1 H 0.0000 0.6876 0.6710
C3 C -0.0777(3) 0.6729(3) 0.7701(3)
H2 H -0.0769 0.7309 0.7858
H3 H -0.0798 0.6389 0.8195
H4 H -0.1261 0.6621 0.7363
N1A N 0.0000 0.4573(3) 0.6156(3)
C1A C 0.0000 0.4348(3) 0.6941(3)
C2A C 0.0000 0.3474(3) 0.7212(3)
H1A H 0.0000 0.3124 0.6710
C3A C 0.0777(3) 0.3271(3) 0.7701(3)
H2A H 0.0769 0.2691 0.7858
H3A H 0.0798 0.3611 0.8195
H4A H 0.1261 0.3379 0.7363
C3Z C -0.0777(3) 0.3271(3) 0.7701(3)
H2Z H -0.0769 0.2691 0.7858
H3Z H -0.0798 0.3611 0.8195
H4Z H -0.1261 0.3379 0.7363
C3AA C 0.0777(3) 0.6729(3) 0.7701(3)
H2AA H 0.0769 0.7309 0.7858
H3AA H 0.0798 0.6389 0.8195
H4AA H 0.1261 0.6621 0.7363
Ag1A Ag 0.0000 0.38230(3) 0.5000
Ag1Q Ag 0.0000 0.5000 0.88230(3)
N1B N 0.0000 0.5427(3) 0.3844(3)
N2V N 0.0000 0.7547(4) 0.5000
C4 C 0.0000 0.6781(8) 1.0000
H5 H 0.0000 0.6200 1.0000
C5 C -0.0755(6) 0.7190(6) 1.0000
H6 H -0.1257 0.6896 1.0000
C6 C -0.0742(8) 0.8010(7) 1.0000
H7 H -0.1238 0.8313 1.0000
C7 C 0.0000 0.8406(11) 1.0000
H8 H 0.0000 0.8988 1.0000
C5B C 0.0755(6) 0.7190(6) 1.0000
H6B H 0.1257 0.6896 1.0000
C6B C 0.0742(8) 0.8010(7) 1.0000
H7B H 0.1238 0.8313 1.0000
loop_
_geom_bond_atom_site_label_1
_geom_bond_atom_site_label_2
_geom_bond_site_symmetry_1
_geom_bond_site_symmetry_2
Ag1 N1 1_555 1_555
N1 C1 1_555 1_555
N2 C1 1_555 1_555
C1 C2 1_555 1_555
C2 H1 1_555 1_555
C3 C2 1_555 1_555
H2 C3 1_555 1_555
H3 C3 1_555 1_555
H4 C3 1_555 1_555
C4 H5 1_555 1_555
C5 C4 1_555 1_555
H6 C5 1_555 1_555
C6 C5 1_555 1_555
H7 C6 1_555 1_555
C7 C6 1_555 1_555
H8 C7 1_555 1_555
N1A N1 1_555 1_555
C1A N2 1_555 1_555
C2A C1A 1_555 1_555
H1A C2A 1_555 1_555
C3A C2A 1_555 1_555
H2A C3A 1_555 1_555
H3A C3A 1_555 1_555
H4A C3A 1_555 1_555
C3Z C2A 1_555 1_555
H2Z C3Z 1_555 1_555
H3Z C3Z 1_555 1_555
H4Z C3Z 1_555 1_555
C3AA C2 1_555 1_555
H2AA C3AA 1_555 1_555
H3AA C3AA 1_555 1_555
H4AA C3AA 1_555 1_555
Ag1A N1A 1_555 1_555
Ag1Q N2 1_555 1_555
N1B Ag1 1_555 1_555
N2V Ag1 1_555 1_555
C5B C4 1_555 1_555
H6B C5B 1_555 1_555
C6B C7 1_555 1_555
H7B C6B 1_555 1_555
N1A C1A 1_555 1_555
C5B C6B 1_555 1_555

#END
