
#######################################################################
#
#                 Cambridge Crystallographic Data Centre
#                                CCDC 
#
#######################################################################
#
# If this CIF has been generated from an entry in the Cambridge 
# Structural Database, then it will include bibliographic, chemical, 
# crystal, experimental, refinement or atomic coordinate data resulting 
# from the CCDC's data processing and validation procedures.
#
#######################################################################

data_ZOZBEX
_symmetry_cell_setting           monoclinic
_symmetry_space_group_name_H-M   'P 21/n'
_symmetry_Int_Tables_number      14
_space_group_name_Hall           '-P 2yn'
loop_
_symmetry_equiv_pos_site_id
_symmetry_equiv_pos_as_xyz
1 x,y,z
2 1/2-x,1/2+y,1/2-z
3 -x,-y,-z
4 1/2+x,1/2-y,1/2+z
_cell_length_a                   21.8059(6)
_cell_length_b                   20.5551(5)
_cell_length_c                   22.2812(5)
_cell_angle_alpha                90
_cell_angle_beta                 115.8920(10)
_cell_angle_gamma                90
_cell_volume                     8984.43
loop_
_atom_site_label
_atom_site_type_symbol
_atom_site_fract_x
_atom_site_fract_y
_atom_site_fract_z
Ag1 Ag 0.058208(18) 0.809852(19) 0.192221(16)
Ag2 Ag 0.080253(19) 0.64071(2) 0.210900(16)
Ag3 Ag -0.022887(17) 0.81174(2) 0.298946(17)
Ag4 Ag -0.043874(18) 0.64835(2) 0.262159(18)
Ag5 Ag 0.26125(2) 0.73308(2) 0.490532(19)
Ag6 Ag 0.080269(18) 0.35388(2) 0.345046(16)
Ag7 Ag 0.280701(17) 0.26672(2) 0.648876(16)
Ag8 Ag 0.363047(17) 0.21322(2) 0.542736(15)
N1 N 0.07871(18) 0.7529(2) 0.11953(16)
N2 N 0.09873(17) 0.68759(18) 0.13501(15)
N3 N 0.10501(18) 0.7147(2) 0.04094(15)
N4 N 0.05315(18) 0.90050(19) 0.24180(17)
N5 N 0.02459(18) 0.9007(2) 0.28582(17)
N6 N 0.0407(2) 1.0026(2) 0.2659(2)
N7 N 0.10537(17) 0.73444(19) 0.29297(16)
N8 N 0.06548(17) 0.71964(19) 0.32664(16)
N9 N 0.17379(19) 0.7244(2) 0.40120(17)
N10 N 0.4363(2) 0.7286(2) 0.67736(19)
N11 N 0.4405(2) 0.7912(2) 0.66005(18)
N12 N 0.3505(2) 0.7443(2) 0.57897(18)
N13 N 0.07419(16) 0.56246(19) 0.27276(16)
N14 N 0.01096(17) 0.5551(2) 0.27386(16)
N15 N 0.07318(17) 0.4665(2) 0.31922(16)
N16 N 0.23871(19) 0.2975(2) 0.53843(17)
N17 N 0.25355(19) 0.2538(2) 0.49944(17)
N18 N 0.16355(19) 0.31170(19) 0.43468(16)
N19 N 0.11730(17) 0.2996(2) 0.71152(18)
N20 N 0.09697(18) 0.2406(2) 0.67832(19)
N21 N 0.19680(17) 0.2680(2) 0.68115(17)
N22 N 0.38247(17) 0.2224(2) 0.68978(15)
N23 N 0.41200(17) 0.1969(2) 0.65167(15)
N24 N 0.48479(17) 0.1845(2) 0.75795(15)
C1 C 0.0834(2) 0.7663(2) 0.0641(2)
C2 C 0.0636(3) 0.8324(3) 0.0308(3)
H1 H 0.0635 0.8571 0.0694
C3 C -0.0011(5) 0.8382(5) -0.0099(7)
H2 H -0.0178 0.8804 -0.0026
H3 H -0.0267 0.8032 -0.0014
H4 H -0.0073 0.8355 -0.0561
C4 C 0.1201(5) 0.8652(4) 0.0266(6)
H5 H 0.1600 0.8633 0.0700
H6 H 0.1079 0.9108 0.0140
H7 H 0.1306 0.8439 -0.0071
C5 C 0.1126(2) 0.6668(2) 0.08451(18)
C6 C 0.1345(2) 0.5990(3) 0.0803(2)
H8 H 0.1519 0.5983 0.0456
C7 C 0.1933(3) 0.5771(4) 0.1468(3)
H9 H 0.2319 0.6070 0.1587
H10 H 0.2076 0.5330 0.1419
H11 H 0.1779 0.5776 0.1820
C8 C 0.0758(3) 0.5519(3) 0.0587(3)
H12 H 0.0627 0.5456 0.0951
H13 H 0.0895 0.5101 0.0472
H14 H 0.0369 0.5694 0.0196
C9 C 0.0621(3) 0.9606(3) 0.2301(2)
C10 C 0.0888(3) 0.9825(3) 0.1821(2)
H15 H 0.1148 0.9450 0.1759
C11 C 0.1402(4) 1.0383(4) 0.2130(4)
H16 H 0.1192 1.0727 0.2283
H17 H 0.1533 1.0560 0.1794
H18 H 0.1808 1.0217 0.2509
C12 C 0.0325(4) 0.9967(4) 0.1158(3)
H19 H 0.0025 0.9588 0.1000
H20 H 0.0513 1.0068 0.0842
H21 H 0.0063 1.0341 0.1193
C13 C 0.0164(3) 0.9627(3) 0.2962(2)
C14 C -0.0142(3) 0.9824(4) 0.3443(3)
H22 H -0.0128 0.9426 0.3707
C15 C -0.0884(4) 0.9993(6) 0.3047(4)
H23 H -0.0923 1.0422 0.2842
H24 H -0.1108 1.0000 0.3344
H25 H -0.1102 0.9666 0.2698
C16 C 0.0255(4) 1.0321(4) 0.3929(4)
H26 H 0.0625 1.0112 0.4311
H27 H -0.0041 1.0557 0.4080
H28 H 0.0448 1.0626 0.3719
C17 C 0.1681(2) 0.7381(3) 0.3380(2)
C18 C 0.2256(2) 0.7539(4) 0.3206(3)
H29 H 0.2041 0.7456 0.2714
C19 C 0.2433(4) 0.8185(4) 0.3233(5)
H30 H 0.2043 0.8434 0.2915
H31 H 0.2817 0.8230 0.3120
H32 H 0.2564 0.8352 0.3685
C20 C 0.2820(3) 0.7032(4) 0.3455(3)
H33 H 0.3057 0.7047 0.3944
H34 H 0.3145 0.7123 0.3271
H35 H 0.2623 0.6599 0.3313
C21 C 0.1092(2) 0.7136(2) 0.3900(2)
C22 C 0.0840(3) 0.6958(4) 0.4417(3)
H36 H 0.0340 0.6894 0.4139
C23 C 0.0862(5) 0.7497(5) 0.4856(3)
H37 H 0.1336 0.7580 0.5175
H38 H 0.0595 0.7384 0.5098
H39 H 0.0670 0.7888 0.4587
C24 C 0.1068(4) 0.6308(4) 0.4696(3)
H40 H 0.1031 0.6010 0.4339
H41 H 0.0781 0.6150 0.4903
H42 H 0.1543 0.6329 0.5033
C25 C 0.3822(2) 0.7015(3) 0.6290(2)
C26 C 0.3592(3) 0.6337(3) 0.6326(3)
H43 H 0.3972 0.6115 0.6706
C27 C 0.3449(5) 0.5951(4) 0.5712(4)
H44 H 0.3098 0.6171 0.5324
H45 H 0.3290 0.5516 0.5756
H46 H 0.3867 0.5913 0.5652
C28 C 0.2974(4) 0.6338(5) 0.6478(4)
H47 H 0.3044 0.6658 0.6829
H48 H 0.2917 0.5905 0.6630
H49 H 0.2565 0.6453 0.6074
C29 C 0.3874(2) 0.8003(3) 0.5982(2)
C30 C 0.3762(3) 0.8580(3) 0.5555(2)
H50 H 0.3258 0.8632 0.5293
C31 C 0.4055(4) 0.8474(3) 0.5055(3)
H51 H 0.4551 0.8432 0.5293
H52 H 0.3939 0.8845 0.4749
H53 H 0.3862 0.8075 0.4801
C32 C 0.4028(4) 0.9201(4) 0.5944(3)
H54 H 0.3739 0.9325 0.6160
H55 H 0.4021 0.9549 0.5639
H56 H 0.4496 0.9134 0.6284
C33 C 0.1094(2) 0.5101(2) 0.30021(19)
C34 C 0.1810(2) 0.5016(3) 0.3090(3)
H57 H 0.1919 0.5407 0.2888
C35 C 0.1909(3) 0.4436(3) 0.2738(4)
H58 H 0.2041 0.4061 0.3040
H59 H 0.2268 0.4527 0.2597
H60 H 0.1482 0.4338 0.2345
C36 C 0.2286(3) 0.5034(6) 0.3831(3)
H61 H 0.2141 0.5378 0.4045
H62 H 0.2752 0.5121 0.3894
H63 H 0.2272 0.4613 0.4032
C37 C 0.01365(19) 0.4993(3) 0.30278(19)
C38 C -0.0445(2) 0.4708(3) 0.3137(2)
H64 H -0.0324 0.4249 0.3294
C39 C -0.0531(2) 0.5095(3) 0.3694(2)
H65 H -0.0081 0.5176 0.4063
H66 H -0.0809 0.4842 0.3857
H67 H -0.0756 0.5511 0.3514
C40 C -0.1109(3) 0.4694(3) 0.2492(3)
H68 H -0.1180 0.5119 0.2271
H69 H -0.1491 0.4599 0.2598
H70 H -0.1080 0.4357 0.2195
C41 C 0.1848(2) 0.3294(3) 0.4987(2)
C42 C 0.1499(3) 0.3793(3) 0.5250(3)
H71 H 0.1712 0.3734 0.5745
C43 C 0.1654(4) 0.4465(3) 0.5138(3)
H72 H 0.2144 0.4545 0.5390
H73 H 0.1401 0.4767 0.5287
H74 H 0.1520 0.4532 0.4661
C44 C 0.0763(3) 0.3668(4) 0.5022(3)
H75 H 0.0499 0.3955 0.4646
H76 H 0.0640 0.3754 0.5389
H77 H 0.0662 0.3213 0.4881
C45 C 0.2072(2) 0.2638(2) 0.4375(2)
C46 C 0.2035(3) 0.2227(3) 0.3808(2)
H78 H 0.2423 0.1913 0.3996
C47 C 0.2140(4) 0.2627(4) 0.3283(3)
H79 H 0.1832 0.3002 0.3155
H80 H 0.2044 0.2357 0.2889
H81 H 0.2613 0.2780 0.3467
C48 C 0.1395(4) 0.1831(3) 0.3517(4)
H82 H 0.1389 0.1531 0.3857
H83 H 0.1377 0.1582 0.3135
H84 H 0.0998 0.2120 0.3370
C49 C 0.1760(2) 0.3123(2) 0.7120(2)
C50 C 0.2172(3) 0.3704(3) 0.7517(3)
H85 H 0.1834 0.4004 0.7564
C51 C 0.2643(4) 0.3504(5) 0.8209(4)
H86 H 0.2398 0.3506 0.8487
H87 H 0.3026 0.3810 0.8393
H88 H 0.2816 0.3066 0.8201
C52 C 0.2505(4) 0.4097(4) 0.7156(4)
H89 H 0.2431 0.3876 0.6740
H90 H 0.2995 0.4134 0.7442
H91 H 0.2302 0.4532 0.7054
C53 C 0.1456(2) 0.2231(3) 0.6612(2)
C54 C 0.1418(3) 0.1625(3) 0.6241(3)
H92 H 0.1035 0.1374 0.6261
C55 C 0.2050(4) 0.1194(4) 0.6603(4)
H93 H 0.2461 0.1440 0.6673
H94 H 0.2016 0.0808 0.6331
H95 H 0.2076 0.1058 0.7035
C56 C 0.1223(4) 0.1701(4) 0.5518(3)
H96 H 0.0801 0.1955 0.5311
H97 H 0.1150 0.1270 0.5308
H98 H 0.1588 0.1926 0.5458
C57 C 0.4276(2) 0.2143(3) 0.75282(19)
C58 C 0.4157(3) 0.2392(3) 0.8112(2)
H99 H 0.3780 0.2712 0.7886
C59 C 0.3818(3) 0.1902(4) 0.8352(3)
H100 H 0.3430 0.1714 0.7970
H101 H 0.3657 0.2110 0.8653
H102 H 0.4143 0.1556 0.8592
C60 C 0.4681(4) 0.2799(3) 0.8574(3)
H103 H 0.4985 0.2539 0.8958
H104 H 0.4474 0.3146 0.8727
H105 H 0.4942 0.2992 0.8356
C61 C 0.47154(19) 0.1738(2) 0.69321(18)
C62 C 0.5214(2) 0.1404(3) 0.6732(2)
H106 H 0.5605 0.1262 0.7156
C63 C 0.4919(4) 0.0804(4) 0.6343(3)
H107 H 0.4711 0.0542 0.6573
H108 H 0.5280 0.0552 0.6301
H109 H 0.4570 0.0921 0.5898
C64 C 0.5501(3) 0.1875(4) 0.6405(3)
H110 H 0.5157 0.1966 0.5950
H111 H 0.5906 0.1685 0.6389
H112 H 0.5627 0.2280 0.6661
Ag3B Ag 0.022887(17) 0.18826(2) 0.701054(17)
Ag4B Ag 0.043874(18) 0.35165(2) 0.737841(18)
Ag4C Ag 0.456126(18) 0.85165(2) 0.762159(18)
Ag6C Ag 0.580269(18) 0.14612(2) 0.845046(16)
Ag8A Ag 0.136953(17) 0.71322(2) -0.042736(15)
N3A N 0.39499(18) 0.2147(2) 0.45906(15)
N11C N -0.0595(2) 0.7088(2) 0.16005(18)
N19B N -0.11730(17) 0.7004(2) 0.28848(18)
N20B N -0.09697(18) 0.7594(2) 0.32168(19)
N24C N -0.01521(17) 0.3155(2) 0.25795(15)
C65 C 0.2752(2) 0.5202(3) 0.0463(3)
H113 H 0.2631 0.5557 0.0663
C66 C 0.3061(2) 0.4654(3) 0.0840(3)
H114 H 0.3151 0.4635 0.1297
C67 C 0.3237(3) 0.4134(3) 0.0547(3)
H115 H 0.3448 0.3760 0.0805
C68 C 0.3105(3) 0.4162(3) -0.0122(3)
H116 H 0.3225 0.3807 -0.0321
C69 C 0.2796(3) 0.4710(3) -0.0498(3)
H117 H 0.2706 0.4730 -0.0955
C70 C 0.2620(3) 0.5230(3) -0.0206(3)
H118 H 0.2409 0.5605 -0.0463
C71 C -0.0926(9) 1.1057(6) 0.1600(11)
H119 H -0.1154 1.1404 0.1278
H120 H -0.1187 1.0961 0.1854
H121 H -0.0899 1.0665 0.1362
O1 O -0.0188(5) 1.1282(5) 0.2091(5)
H122 H -0.0120 1.1206 0.2486
loop_
_geom_bond_atom_site_label_1
_geom_bond_atom_site_label_2
_geom_bond_site_symmetry_1
_geom_bond_site_symmetry_2
Ag1 N1 1_555 1_555
Ag2 N2 1_555 1_555
Ag3 N5 1_555 1_555
Ag4 N14 1_555 1_555
Ag5 N9 1_555 1_555
Ag6 N15 1_555 1_555
Ag7 N16 1_555 1_555
Ag8 N17 1_555 1_555
N1 N2 1_555 1_555
N2 C5 1_555 1_555
N3 C1 1_555 1_555
N4 Ag1 1_555 1_555
N5 N4 1_555 1_555
N6 C9 1_555 1_555
N7 Ag1 1_555 1_555
N8 N7 1_555 1_555
N9 C17 1_555 1_555
N10 N11 1_555 1_555
N11 C29 1_555 1_555
N12 Ag5 1_555 1_555
N13 Ag2 1_555 1_555
N14 N13 1_555 1_555
N15 C33 1_555 1_555
N16 N17 1_555 1_555
N17 C45 1_555 1_555
N18 Ag6 1_555 1_555
N19 N20 1_555 1_555
N20 C53 1_555 1_555
N21 Ag7 1_555 1_555
N22 Ag7 1_555 1_555
N23 Ag8 1_555 1_555
N24 C57 1_555 1_555
C1 N1 1_555 1_555
C2 C1 1_555 1_555
H1 C2 1_555 1_555
C3 C2 1_555 1_555
H2 C3 1_555 1_555
H3 C3 1_555 1_555
H4 C3 1_555 1_555
C4 C2 1_555 1_555
H5 C4 1_555 1_555
H6 C4 1_555 1_555
H7 C4 1_555 1_555
C5 N3 1_555 1_555
C6 C5 1_555 1_555
H8 C6 1_555 1_555
C7 C6 1_555 1_555
H9 C7 1_555 1_555
H10 C7 1_555 1_555
H11 C7 1_555 1_555
C8 C6 1_555 1_555
H12 C8 1_555 1_555
H13 C8 1_555 1_555
H14 C8 1_555 1_555
C9 N4 1_555 1_555
C10 C9 1_555 1_555
H15 C10 1_555 1_555
C11 C10 1_555 1_555
H16 C11 1_555 1_555
H17 C11 1_555 1_555
H18 C11 1_555 1_555
C12 C10 1_555 1_555
H19 C12 1_555 1_555
H20 C12 1_555 1_555
H21 C12 1_555 1_555
C13 N5 1_555 1_555
C14 C13 1_555 1_555
H22 C14 1_555 1_555
C15 C14 1_555 1_555
H23 C15 1_555 1_555
H24 C15 1_555 1_555
H25 C15 1_555 1_555
C16 C14 1_555 1_555
H26 C16 1_555 1_555
H27 C16 1_555 1_555
H28 C16 1_555 1_555
C17 N7 1_555 1_555
C18 C17 1_555 1_555
H29 C18 1_555 1_555
C19 C18 1_555 1_555
H30 C19 1_555 1_555
H31 C19 1_555 1_555
H32 C19 1_555 1_555
C20 C18 1_555 1_555
H33 C20 1_555 1_555
H34 C20 1_555 1_555
H35 C20 1_555 1_555
C21 N8 1_555 1_555
C22 C21 1_555 1_555
H36 C22 1_555 1_555
C23 C22 1_555 1_555
H37 C23 1_555 1_555
H38 C23 1_555 1_555
H39 C23 1_555 1_555
C24 C22 1_555 1_555
H40 C24 1_555 1_555
H41 C24 1_555 1_555
H42 C24 1_555 1_555
C25 N10 1_555 1_555
C26 C25 1_555 1_555
H43 C26 1_555 1_555
C27 C26 1_555 1_555
H44 C27 1_555 1_555
H45 C27 1_555 1_555
H46 C27 1_555 1_555
C28 C26 1_555 1_555
H47 C28 1_555 1_555
H48 C28 1_555 1_555
H49 C28 1_555 1_555
C29 N12 1_555 1_555
C30 C29 1_555 1_555
H50 C30 1_555 1_555
C31 C30 1_555 1_555
H51 C31 1_555 1_555
H52 C31 1_555 1_555
H53 C31 1_555 1_555
C32 C30 1_555 1_555
H54 C32 1_555 1_555
H55 C32 1_555 1_555
H56 C32 1_555 1_555
C33 N13 1_555 1_555
C34 C33 1_555 1_555
H57 C34 1_555 1_555
C35 C34 1_555 1_555
H58 C35 1_555 1_555
H59 C35 1_555 1_555
H60 C35 1_555 1_555
C36 C34 1_555 1_555
H61 C36 1_555 1_555
H62 C36 1_555 1_555
H63 C36 1_555 1_555
C37 N14 1_555 1_555
C38 C37 1_555 1_555
H64 C38 1_555 1_555
C39 C38 1_555 1_555
H65 C39 1_555 1_555
H66 C39 1_555 1_555
H67 C39 1_555 1_555
C40 C38 1_555 1_555
H68 C40 1_555 1_555
H69 C40 1_555 1_555
H70 C40 1_555 1_555
C41 N16 1_555 1_555
C42 C41 1_555 1_555
H71 C42 1_555 1_555
C43 C42 1_555 1_555
H72 C43 1_555 1_555
H73 C43 1_555 1_555
H74 C43 1_555 1_555
C44 C42 1_555 1_555
H75 C44 1_555 1_555
H76 C44 1_555 1_555
H77 C44 1_555 1_555
C45 N18 1_555 1_555
C46 C45 1_555 1_555
H78 C46 1_555 1_555
C47 C46 1_555 1_555
H79 C47 1_555 1_555
H80 C47 1_555 1_555
H81 C47 1_555 1_555
C48 C46 1_555 1_555
H82 C48 1_555 1_555
H83 C48 1_555 1_555
H84 C48 1_555 1_555
C49 N19 1_555 1_555
C50 C49 1_555 1_555
H85 C50 1_555 1_555
C51 C50 1_555 1_555
H86 C51 1_555 1_555
H87 C51 1_555 1_555
H88 C51 1_555 1_555
C52 C50 1_555 1_555
H89 C52 1_555 1_555
H90 C52 1_555 1_555
H91 C52 1_555 1_555
C53 N21 1_555 1_555
C54 C53 1_555 1_555
H92 C54 1_555 1_555
C55 C54 1_555 1_555
H93 C55 1_555 1_555
H94 C55 1_555 1_555
H95 C55 1_555 1_555
C56 C54 1_555 1_555
H96 C56 1_555 1_555
H97 C56 1_555 1_555
H98 C56 1_555 1_555
C57 N22 1_555 1_555
C58 C57 1_555 1_555
H99 C58 1_555 1_555
C59 C58 1_555 1_555
H100 C59 1_555 1_555
H101 C59 1_555 1_555
H102 C59 1_555 1_555
C60 C58 1_555 1_555
H103 C60 1_555 1_555
H104 C60 1_555 1_555
H105 C60 1_555 1_555
C61 N23 1_555 1_555
C62 C61 1_555 1_555
H106 C62 1_555 1_555
C63 C62 1_555 1_555
H107 C63 1_555 1_555
H108 C63 1_555 1_555
H109 C63 1_555 1_555
C64 C62 1_555 1_555
H110 C64 1_555 1_555
H111 C64 1_555 1_555
H112 C64 1_555 1_555
C65 H113 1_555 1_555
C66 C65 1_555 1_555
H114 C66 1_555 1_555
C67 C66 1_555 1_555
H115 C67 1_555 1_555
C68 C67 1_555 1_555
H116 C68 1_555 1_555
C69 C68 1_555 1_555
H117 C69 1_555 1_555
C70 C65 1_555 1_555
H118 C70 1_555 1_555
C71 H119 1_555 1_555
H120 C71 1_555 1_555
H121 C71 1_555 1_555
O1 C71 1_555 1_555
H122 O1 1_555 1_555
Ag3B N20 1_555 1_555
Ag4B N19 1_555 1_555
Ag4C N11 1_555 1_555
Ag6C N24 1_555 1_555
Ag8A N3 1_555 1_555
N3A Ag8 1_555 1_555
N11C Ag4 1_555 1_555
N19B Ag4 1_555 1_555
N20B Ag3 1_555 1_555
N24C Ag6 1_555 1_555
Ag2 N7 1_555 1_555
N6 C13 1_555 1_555
N9 C21 1_555 1_555
N12 C25 1_555 1_555
N15 C37 1_555 1_555
N18 C41 1_555 1_555
N21 C49 1_555 1_555
N22 N23 1_555 1_555
N24 C61 1_555 1_555
C69 C70 1_555 1_555
N19B N20B 1_555 1_555

#END
