
#######################################################################
#
#                 Cambridge Crystallographic Data Centre
#                                CCDC 
#
#######################################################################
#
# If this CIF has been generated from an entry in the Cambridge 
# Structural Database, then it will include bibliographic, chemical, 
# crystal, experimental, refinement or atomic coordinate data resulting 
# from the CCDC's data processing and validation procedures.
#
#######################################################################

data_ZOZCIC
_symmetry_cell_setting           triclinic
_symmetry_space_group_name_H-M   'P 1'
_symmetry_Int_Tables_number      1
_space_group_name_Hall           'P 1'
loop_
_symmetry_equiv_pos_site_id
_symmetry_equiv_pos_as_xyz
1 x,y,z
_cell_length_a                   12.3331(7)
_cell_length_b                   14.7388(8)
_cell_length_c                   14.9946(8)
_cell_angle_alpha                111.546(2)
_cell_angle_beta                 105.075(3)
_cell_angle_gamma                106.267(3)
_cell_volume                     2223.55
loop_
_atom_site_label
_atom_site_type_symbol
_atom_site_fract_x
_atom_site_fract_y
_atom_site_fract_z
U1 U 0.44523(3) 1.03342(3) 1.45241(3)
U2 U 0.65923(3) 0.79601(3) 0.86780(3)
U3 U 0.69015(3) 0.45513(3) 0.20302(3)
U4 U 0.13737(3) -0.31540(3) -0.19171(3)
O1 O 0.5527(8) 1.0751(7) 1.5780(6)
O2 O 0.3370(9) 0.9878(7) 1.3253(7)
O3 O 0.7932(7) 0.7818(7) 0.9254(6)
O4 O 0.5244(8) 0.8107(7) 0.8127(7)
O5 O 0.7958(8) 0.4247(7) 0.2782(7)
O6 O 0.5878(9) 0.4878(8) 0.1299(7)
O7 O 0.2733(8) -0.3192(7) -0.1192(7)
O8 O 0.0023(8) -0.3110(7) -0.2610(8)
O9 O 0.6035(8) 1.1699(6) 1.4315(7)
O10 O 0.5912(8) 1.0060(6) 1.3763(6)
O11 O 0.6587(7) 0.8732(6) 1.0446(6)
O12 O 0.7558(7) 0.9905(6) 1.0039(6)
O13 O 0.4334(7) 0.8465(6) 1.4000(6)
O14 O 0.3050(8) 0.8898(6) 1.4658(6)
O15 O 0.1413(9) 0.5685(6) 1.6429(6)
O16 O 0.2359(7) 0.7418(6) 1.7041(6)
O17 O 0.3045(8) 1.0892(6) 1.5250(8)
O18 O 0.4492(9) 1.2160(7) 1.5261(7)
O19 O 0.5581(8) 1.6005(6) 1.7549(6)
O20 O 0.5316(8) 1.6547(6) 1.9017(6)
O21 O 0.7728(8) 0.9110(6) 0.8104(6)
O22 O 0.6844(8) 0.7382(6) 0.7027(6)
O23 O 0.8311(8) 0.6544(6) 0.3143(6)
O24 O 0.6948(8) 0.5787(7) 0.3642(7)
O25 O 0.5305(8) 0.3739(6) 0.2554(6)
O26 O 0.5405(8) 0.2676(6) 0.1135(7)
O27 O 0.2349(8) -0.1186(6) -0.1113(6)
O28 O 0.1499(9) -0.1840(6) -0.0264(7)
O29 O 0.0302(10) -0.3878(7) -0.1017(8)
O30 O 0.0189(8) -0.5075(6) -0.2463(6)
O31 O -0.2977(9) -0.6628(7) 0.0439(7)
O32 O -0.1633(7) -0.4943(6) 0.1241(6)
C1 C 0.7398(11) 1.1226(8) 1.3477(8)
C2 C 0.6845(10) 1.0416(8) 1.2313(8)
H1 H 0.6143 1.0518 1.1929
H2 H 0.6527 0.9678 1.2223
C3 C 0.7814(10) 1.0557(8) 1.1858(8)
C4 C 0.8302(10) 1.1695(8) 1.1994(8)
H3 H 0.7620 1.1813 1.1605
H4 H 0.8940 1.1793 1.1708
C5 C 0.8861(11) 1.2505(9) 1.3165(9)
H5 H 0.9165 1.3249 1.3250
C6 C 0.7899(11) 1.2363(8) 1.3612(8)
H6 H 0.7213 1.2493 1.3247
H7 H 0.8270 1.2892 1.4366
C7 C 0.8462(11) 1.1042(9) 1.4070(9)
H8 H 0.8152 1.0301 1.3974
H9 H 0.8815 1.1550 1.4830
C8 C 0.9480(11) 1.1220(9) 1.3630(9)
H10 H 1.0181 1.1108 1.4018
C9 C 0.8900(10) 1.0378(9) 1.2455(8)
H11 H 0.8593 0.9645 1.2378
H12 H 0.9530 1.0454 1.2160
C10 C 0.9965(10) 1.2349(9) 1.3759(9)
H13 H 1.0597 1.2445 1.3467
H14 H 1.0350 1.2885 1.4512
C11 C 0.6388(10) 1.0987(8) 1.3871(8)
C12 C 0.7292(10) 0.9708(9) 1.0723(9)
C13 C 0.2987(10) 0.7153(8) 1.4301(8)
C14 C 0.2809(12) 0.7345(9) 1.5335(9)
H15 H 0.3621 0.7792 1.5940
H16 H 0.2280 0.7740 1.5417
C15 C 0.2206(10) 0.6273(8) 1.5325(8)
C16 C 0.0942(11) 0.5589(9) 1.4395(8)
H17 H 0.0398 0.5970 1.4469
H18 H 0.0549 0.4900 1.4387
C17 C 0.1097(11) 0.5371(9) 1.3358(8)
H19 H 0.0272 0.4909 1.2752
C18 C 0.1672(10) 0.6458(9) 1.3369(8)
H20 H 0.1135 0.6843 1.3459
H21 H 0.1744 0.6330 1.2696
C19 C 0.3779(11) 0.6548(9) 1.4176(9)
H22 H 0.4612 0.6990 1.4756
H23 H 0.3872 0.6403 1.3507
C20 C 0.3207(12) 0.5493(9) 1.4180(9)
H24 H 0.3760 0.5114 1.4103
C21 C 0.3048(11) 0.5671(10) 1.5203(9)
H25 H 0.3863 0.6100 1.5807
H26 H 0.2669 0.4972 1.5182
C22 C 0.1968(12) 0.4800(9) 1.3253(9)
H27 H 0.1601 0.4097 1.3228
H28 H 0.2079 0.4672 1.2593
C23 C 0.3504(10) 0.8230(8) 1.4318(8)
C24 C 0.2007(10) 0.6474(9) 1.6314(8)
C25 C 0.3654(11) 1.2680(9) 1.6558(9)
C26 C 0.4407(11) 1.3849(9) 1.6859(9)
H29 H 0.4066 1.3994 1.6277
H30 H 0.5275 1.3969 1.6976
C27 C 0.4372(11) 1.4624(9) 1.7861(9)
C28 C 0.4922(11) 1.4395(9) 1.8768(9)
H31 H 0.5800 1.4542 1.8912
H32 H 0.4884 1.4878 1.9413
C29 C 0.4201(13) 1.3226(10) 1.8476(10)
H33 H 0.4572 1.3085 1.9061
C30 C 0.4212(12) 1.2469(9) 1.7480(11)
H34 H 0.3726 1.1718 1.7300
H35 H 0.5072 1.2565 1.7590
C31 C 0.2325(11) 1.2507(9) 1.6429(9)
H36 H 0.1930 1.2624 1.5841
H37 H 0.1848 1.1755 1.6250
C32 C 0.2285(11) 1.3265(9) 1.7424(9)
H38 H 0.1410 1.3146 1.7308
C33 C 0.3042(10) 1.4428(9) 1.7694(9)
H39 H 0.2666 1.4566 1.7117
H40 H 0.3025 1.4932 1.8340
C34 C 0.2845(12) 1.3056(10) 1.8310(10)
H41 H 0.2354 1.2311 1.8141
H42 H 0.2832 1.3552 1.8963
C35 C 0.3674(12) 1.1870(9) 1.5619(10)
C36 C 0.5133(11) 1.5781(8) 1.8149(9)
C37 C 0.7977(10) 0.8528(8) 0.6462(8)
C38 C 0.7670(11) 0.7461(8) 0.5529(8)
H43 H 0.8047 0.7045 0.5784
H44 H 0.6763 0.7035 0.5174
C39 C 0.8154(10) 0.7657(9) 0.4750(8)
C40 C 0.7528(10) 0.8310(9) 0.4354(8)
H45 H 0.7829 0.8447 0.3845
H46 H 0.6621 0.7886 0.3994
C41 C 0.7837(10) 0.9378(8) 0.5283(8)
H47 H 0.7436 0.9791 0.5029
C42 C 0.7369(11) 0.9163(9) 0.6079(9)
H48 H 0.7572 0.9853 0.6682
H49 H 0.6460 0.8751 0.5741
C43 C 0.9376(11) 0.9194(9) 0.7015(8)
H50 H 0.9784 0.8799 0.7281
H51 H 0.9576 0.9883 0.7619
C44 C 0.9841(10) 0.9406(9) 0.6222(8)
H52 H 1.0756 0.9843 0.6586
C45 C 0.9581(10) 0.8345(9) 0.5310(9)
H53 H 0.9998 0.7955 0.5576
H54 H 0.9900 0.8484 0.4810
C46 C 0.9253(11) 1.0036(9) 0.5837(9)
H55 H 0.9572 1.0184 0.5340
H56 H 0.9460 1.0731 0.6436
C47 C 0.7483(11) 0.8327(9) 0.7228(9)
C48 C 0.7796(11) 0.6627(9) 0.3811(9)
C49 C 0.3539(10) 0.2013(8) 0.1390(8)
C50 C 0.3420(10) 0.0876(8) 0.0720(9)
H57 H 0.3632 0.0850 0.0121
H58 H 0.4005 0.0704 0.1150
C51 C 0.2124(10) 0.0065(8) 0.0321(8)
C52 C 0.1224(11) 0.0332(9) -0.0322(9)
H59 H 0.0369 -0.0198 -0.0572
H60 H 0.1391 0.0294 -0.0943
C53 C 0.1356(12) 0.1471(10) 0.0353(10)
H61 H 0.0759 0.1643 -0.0077
C54 C 0.2647(12) 0.2285(9) 0.0739(10)
H62 H 0.2725 0.3013 0.1170
H63 H 0.2842 0.2274 0.0135
C55 C 0.3266(10) 0.2042(9) 0.2344(9)
H64 H 0.3860 0.1871 0.2766
H65 H 0.3353 0.2768 0.2794
C56 C 0.1936(11) 0.1208(9) 0.1945(9)
H66 H 0.1736 0.1231 0.2556
C57 C 0.1780(11) 0.0071(8) 0.1253(9)
H67 H 0.0915 -0.0450 0.0982
H68 H 0.2327 -0.0138 0.1671
C58 C 0.1049(11) 0.1481(10) 0.1287(10)
H69 H 0.1110 0.2201 0.1726
H70 H 0.0190 0.0952 0.1025
C59 C 0.4824(12) 0.2841(9) 0.1730(10)
C60 C 0.1996(11) -0.1035(8) -0.0371(8)
C61 C -0.0457(11) -0.5719(9) -0.1337(9)
C62 C -0.1097(10) -0.5388(9) -0.0589(8)
H71 H -0.0527 -0.4682 0.0030
H72 H -0.1842 -0.5323 -0.0955
C63 C -0.1463(10) -0.6244(8) -0.0235(8)
C64 C -0.0312(11) -0.6312(10) 0.0357(9)
H73 H -0.0538 -0.6844 0.0607
H74 H 0.0260 -0.5605 0.0975
C65 C 0.0330(12) -0.6658(10) -0.0402(9)
H75 H 0.1082 -0.6719 -0.0023
C66 C 0.0719(11) -0.5808(9) -0.0742(9)
H76 H 0.1146 -0.6010 -0.1208
H77 H 0.1297 -0.5107 -0.0120
C67 C -0.1331(11) -0.6802(8) -0.2288(9)
H78 H -0.2079 -0.6754 -0.2674
H79 H -0.0921 -0.7010 -0.2767
C68 C -0.1695(11) -0.7642(9) -0.1943(9)
H80 H -0.2279 -0.8351 -0.2570
C69 C -0.2314(11) -0.7318(10) -0.1201(9)
H81 H -0.3073 -0.7274 -0.1572
H82 H -0.2559 -0.7875 -0.0983
C70 C -0.0554(12) -0.7742(9) -0.1342(10)
H83 H -0.0810 -0.8281 -0.1106
H84 H -0.0140 -0.7983 -0.1809
C71 C 0.0014(12) -0.4869(9) -0.1648(9)
C72 C -0.2066(11) -0.5920(8) 0.0515(9)
U2_2 U 0.65923(3) 1.79601(3) 1.86780(3)
U3_2 U -0.30985(3) -0.54487(3) 0.20302(3)
U4_2 U 0.13737(3) 0.68460(3) 1.80829(3)
O15_2 O 0.1413(9) -0.4315(6) -0.3571(6)
O16_2 O 0.2359(7) -0.2582(6) -0.2959(6)
O19_2 O 0.5581(8) 0.6005(6) 0.7549(6)
O20_2 O 0.5316(8) 0.6547(6) 0.9017(6)
O31_2 O 0.7023(9) 0.3372(7) 0.0439(7)
O32_2 O 0.8367(7) 0.5057(6) 0.1241(6)
O33 O 0.7538(9) 1.5381(7) 1.7532(7)
O34 O 0.5685(10) 1.0874(9) 0.9843(8)
O35 O 0.1180(11) -0.2631(10) 0.1218(10)
N1 N 0.4062(9) 0.9538(8) 0.7810(8)
H85 H 0.3758 0.8802 0.7521
H86 H 0.4417 0.9824 0.8528
C73 C 0.3036(13) 0.9842(12) 0.7517(12)
H87 H 0.2785 0.9689 0.6782
H88 H 0.3307 1.0611 0.7968
H89 H 0.2335 0.9429 0.7605
C74 C 0.5031(14) 0.9930(11) 0.7439(11)
H90 H 0.5366 1.0714 0.7755
H91 H 0.4659 0.9615 0.6673
H92 H 0.5699 0.9715 0.7647
N2 N 0.6765(11) 1.4068(9) 1.5387(9)
H93 H 0.6930 1.4210 1.6071
H94 H 0.6540 1.3347 1.4988
C75 C 0.7895(13) 1.4702(12) 1.5327(11)
H95 H 0.8118 1.5470 1.5734
H96 H 0.7732 1.4518 1.4593
H97 H 0.8577 1.4534 1.5615
C76 C 0.5713(14) 1.4349(14) 1.4993(11)
H98 H 0.5625 1.4308 1.4309
H99 H 0.5889 1.5079 1.5494
H100 H 0.4945 1.3841 1.4922
N3 N 0.9560(9) 0.7457(8) 0.2154(8)
H101 H 1.0051 0.7199 0.1863
H102 H 0.9286 0.7058 0.2463
C77 C 0.8479(14) 0.7321(12) 0.1309(12)
H103 H 0.8767 0.7648 0.0903
H104 H 0.8006 0.7672 0.1621
H105 H 0.7951 0.6554 0.0845
C78 C 1.0314(14) 0.8600(10) 0.2974(11)
H106 H 0.9812 0.8865 0.3321
H107 H 1.0591 0.9033 0.2647
H108 H 1.1035 0.8653 0.3494
N4 N 0.4720(10) -0.2522(9) 0.0776(8)
H109 H 0.4231 -0.2962 0.0071
H110 H 0.5407 -0.2008 0.0839
C79 C 0.4016(15) -0.1979(15) 0.1280(13)
H111 H 0.4530 -0.1506 0.2031
H112 H 0.3260 -0.2522 0.1186
H113 H 0.3798 -0.1552 0.0953
C80 C 0.5107(18) -0.3147(15) 0.1217(13)
H114 H 0.4383 -0.3690 0.1164
H115 H 0.5675 -0.2677 0.1957
H116 H 0.5527 -0.3503 0.0833
loop_
_geom_bond_atom_site_label_1
_geom_bond_atom_site_label_2
_geom_bond_site_symmetry_1
_geom_bond_site_symmetry_2
U1 O1 1_555 1_555
U2 O3 1_555 1_555
U3 O5 1_555 1_555
U4 O7 1_555 1_555
O2 U1 1_555 1_555
O4 U2 1_555 1_555
O6 U3 1_555 1_555
O8 U4 1_555 1_555
O9 U1 1_555 1_555
O10 U1 1_555 1_555
O11 U2 1_555 1_555
O12 U2 1_555 1_555
O13 U1 1_555 1_555
O14 U1 1_555 1_555
O15 C24 1_555 1_555
O16 C24 1_555 1_555
O17 U1 1_555 1_555
O18 U1 1_555 1_555
O19 C36 1_555 1_555
O20 C36 1_555 1_555
O21 U2 1_555 1_555
O22 U2 1_555 1_555
O23 U3 1_555 1_555
O24 U3 1_555 1_555
O25 U3 1_555 1_555
O26 U3 1_555 1_555
O27 U4 1_555 1_555
O28 U4 1_555 1_555
O29 U4 1_555 1_555
O30 U4 1_555 1_555
O31 C72 1_555 1_555
O32 C72 1_555 1_555
C1 C2 1_555 1_555
C2 H1 1_555 1_555
H2 C2 1_555 1_555
C3 C2 1_555 1_555
C4 C3 1_555 1_555
H3 C4 1_555 1_555
H4 C4 1_555 1_555
C5 C4 1_555 1_555
H5 C5 1_555 1_555
C6 C1 1_555 1_555
H6 C6 1_555 1_555
H7 C6 1_555 1_555
C7 C1 1_555 1_555
H8 C7 1_555 1_555
H9 C7 1_555 1_555
C8 C7 1_555 1_555
H10 C8 1_555 1_555
C9 C3 1_555 1_555
H11 C9 1_555 1_555
H12 C9 1_555 1_555
C10 C5 1_555 1_555
H13 C10 1_555 1_555
H14 C10 1_555 1_555
C11 O9 1_555 1_555
C12 O11 1_555 1_555
C13 C14 1_555 1_555
C14 H15 1_555 1_555
H16 C14 1_555 1_555
C15 C14 1_555 1_555
C16 C15 1_555 1_555
H17 C16 1_555 1_555
H18 C16 1_555 1_555
C17 C16 1_555 1_555
H19 C17 1_555 1_555
C18 C13 1_555 1_555
H20 C18 1_555 1_555
H21 C18 1_555 1_555
C19 C13 1_555 1_555
H22 C19 1_555 1_555
H23 C19 1_555 1_555
C20 C19 1_555 1_555
H24 C20 1_555 1_555
C21 C15 1_555 1_555
H25 C21 1_555 1_555
H26 C21 1_555 1_555
C22 C17 1_555 1_555
H27 C22 1_555 1_555
H28 C22 1_555 1_555
C23 O13 1_555 1_555
C24 C15 1_555 1_555
C25 C26 1_555 1_555
C26 H29 1_555 1_555
H30 C26 1_555 1_555
C27 C26 1_555 1_555
C28 C27 1_555 1_555
H31 C28 1_555 1_555
H32 C28 1_555 1_555
C29 C28 1_555 1_555
H33 C29 1_555 1_555
C30 C25 1_555 1_555
H34 C30 1_555 1_555
H35 C30 1_555 1_555
C31 C25 1_555 1_555
H36 C31 1_555 1_555
H37 C31 1_555 1_555
C32 C31 1_555 1_555
H38 C32 1_555 1_555
C33 C27 1_555 1_555
H39 C33 1_555 1_555
H40 C33 1_555 1_555
C34 C29 1_555 1_555
H41 C34 1_555 1_555
H42 C34 1_555 1_555
C35 O17 1_555 1_555
C36 C27 1_555 1_555
C37 C38 1_555 1_555
C38 H43 1_555 1_555
H44 C38 1_555 1_555
C39 C38 1_555 1_555
C40 C39 1_555 1_555
H45 C40 1_555 1_555
H46 C40 1_555 1_555
C41 C40 1_555 1_555
H47 C41 1_555 1_555
C42 C37 1_555 1_555
H48 C42 1_555 1_555
H49 C42 1_555 1_555
C43 C37 1_555 1_555
H50 C43 1_555 1_555
H51 C43 1_555 1_555
C44 C43 1_555 1_555
H52 C44 1_555 1_555
C45 C39 1_555 1_555
H53 C45 1_555 1_555
H54 C45 1_555 1_555
C46 C41 1_555 1_555
H55 C46 1_555 1_555
H56 C46 1_555 1_555
C47 O21 1_555 1_555
C48 O23 1_555 1_555
C49 C50 1_555 1_555
C50 H57 1_555 1_555
H58 C50 1_555 1_555
C51 C50 1_555 1_555
C52 C51 1_555 1_555
H59 C52 1_555 1_555
H60 C52 1_555 1_555
C53 C52 1_555 1_555
H61 C53 1_555 1_555
C54 C49 1_555 1_555
H62 C54 1_555 1_555
H63 C54 1_555 1_555
C55 C49 1_555 1_555
H64 C55 1_555 1_555
H65 C55 1_555 1_555
C56 C55 1_555 1_555
H66 C56 1_555 1_555
C57 C51 1_555 1_555
H67 C57 1_555 1_555
H68 C57 1_555 1_555
C58 C53 1_555 1_555
H69 C58 1_555 1_555
H70 C58 1_555 1_555
C59 O25 1_555 1_555
C60 O27 1_555 1_555
C61 C62 1_555 1_555
C62 H71 1_555 1_555
H72 C62 1_555 1_555
C63 C62 1_555 1_555
C64 C63 1_555 1_555
H73 C64 1_555 1_555
H74 C64 1_555 1_555
C65 C64 1_555 1_555
H75 C65 1_555 1_555
C66 C61 1_555 1_555
H76 C66 1_555 1_555
H77 C66 1_555 1_555
C67 C61 1_555 1_555
H78 C67 1_555 1_555
H79 C67 1_555 1_555
C68 C67 1_555 1_555
H80 C68 1_555 1_555
C69 C63 1_555 1_555
H81 C69 1_555 1_555
H82 C69 1_555 1_555
C70 C65 1_555 1_555
H83 C70 1_555 1_555
H84 C70 1_555 1_555
C71 O29 1_555 1_555
C72 C63 1_555 1_555
N1 H85 1_555 1_555
H86 N1 1_555 1_555
C73 N1 1_555 1_555
H87 C73 1_555 1_555
H88 C73 1_555 1_555
H89 C73 1_555 1_555
C74 N1 1_555 1_555
H90 C74 1_555 1_555
H91 C74 1_555 1_555
H92 C74 1_555 1_555
N2 H93 1_555 1_555
H94 N2 1_555 1_555
C75 N2 1_555 1_555
H95 C75 1_555 1_555
H96 C75 1_555 1_555
H97 C75 1_555 1_555
C76 N2 1_555 1_555
H98 C76 1_555 1_555
H99 C76 1_555 1_555
H100 C76 1_555 1_555
N3 H101 1_555 1_555
H102 N3 1_555 1_555
C77 N3 1_555 1_555
H103 C77 1_555 1_555
H104 C77 1_555 1_555
H105 C77 1_555 1_555
C78 N3 1_555 1_555
H106 C78 1_555 1_555
H107 C78 1_555 1_555
H108 C78 1_555 1_555
N4 H109 1_555 1_555
H110 N4 1_555 1_555
C79 N4 1_555 1_555
H111 C79 1_555 1_555
H112 C79 1_555 1_555
H113 C79 1_555 1_555
C80 N4 1_555 1_555
H114 C80 1_555 1_555
H115 C80 1_555 1_555
H116 C80 1_555 1_555
U2_2 O19 1_555 1_555
U3_2 O31 1_555 1_555
U4_2 O15 1_555 1_555
O15_2 U4 1_555 1_555
O16_2 U4 1_555 1_555
O19_2 U2 1_555 1_555
O20_2 U2 1_555 1_555
O31_2 U3 1_555 1_555
O32_2 U3 1_555 1_555
O10 C11 1_555 1_555
O12 C12 1_555 1_555
O14 C23 1_555 1_555
O16 U4_2 1_555 1_555
O18 C35 1_555 1_555
O20 U2_2 1_555 1_555
O22 C47 1_555 1_555
O24 C48 1_555 1_555
O26 C59 1_555 1_555
O28 C60 1_555 1_555
O30 C71 1_555 1_555
O32 U3_2 1_555 1_555
C1 C11 1_555 1_555
C3 C12 1_555 1_555
C5 C6 1_555 1_555
C8 C9 1_555 1_555
C8 C10 1_555 1_555
C13 C23 1_555 1_555
C17 C18 1_555 1_555
C20 C21 1_555 1_555
C20 C22 1_555 1_555
C25 C35 1_555 1_555
C29 C30 1_555 1_555
C32 C33 1_555 1_555
C32 C34 1_555 1_555
C37 C47 1_555 1_555
C39 C48 1_555 1_555
C41 C42 1_555 1_555
C44 C45 1_555 1_555
C44 C46 1_555 1_555
C49 C59 1_555 1_555
C51 C60 1_555 1_555
C53 C54 1_555 1_555
C56 C57 1_555 1_555
C56 C58 1_555 1_555
C61 C71 1_555 1_555
C65 C66 1_555 1_555
C68 C69 1_555 1_555
C68 C70 1_555 1_555

#END
