
#######################################################################
#
#                 Cambridge Crystallographic Data Centre
#                                CCDC 
#
#######################################################################
#
# If this CIF has been generated from an entry in the Cambridge 
# Structural Database, then it will include bibliographic, chemical, 
# crystal, experimental, refinement or atomic coordinate data resulting 
# from the CCDC's data processing and validation procedures.
#
#######################################################################

data_ZOZCUO
_symmetry_cell_setting           monoclinic
_symmetry_space_group_name_H-M   'P 21/c'
_symmetry_Int_Tables_number      14
_space_group_name_Hall           '-P 2ybc'
loop_
_symmetry_equiv_pos_site_id
_symmetry_equiv_pos_as_xyz
1 x,y,z
2 -x,1/2+y,1/2-z
3 -x,-y,-z
4 x,1/2-y,1/2+z
_cell_length_a                   16.5351(8)
_cell_length_b                   13.8250(5)
_cell_length_c                   19.8753(7)
_cell_angle_alpha                90
_cell_angle_beta                 109.815(2)
_cell_angle_gamma                90
_cell_volume                     4274.44
loop_
_atom_site_label
_atom_site_type_symbol
_atom_site_fract_x
_atom_site_fract_y
_atom_site_fract_z
U1 U 0.217278(9) 0.313658(11) 0.768012(7)
Co1 Co 0.67394(3) 0.35618(4) 0.62254(2)
O1 O 0.26510(17) 0.19825(18) 0.78931(13)
O2 O 0.16968(17) 0.42945(19) 0.74683(12)
O3 O 0.20633(17) 0.2988(2) 0.64000(12)
O4 O 0.09950(16) 0.2413(2) 0.66967(11)
O5 O 0.09399(16) 0.2378(2) 0.30224(11)
O6 O 0.20193(16) 0.17747(19) 0.38944(12)
O7 O 0.34851(16) 0.3825(2) 0.85834(12)
O8 O 0.34471(16) 0.3699(2) 0.74746(12)
O9 O 0.62711(17) 0.46082(19) 0.67966(13)
O10 O 0.65329(17) 0.3114(2) 0.71818(13)
N1 N 0.54718(19) 0.3305(2) 0.55439(15)
N2 N 0.6733(2) 0.4166(2) 0.52415(15)
N3 N 0.7476(2) 0.2323(2) 0.62322(14)
N4 N 0.79940(19) 0.4054(2) 0.67717(15)
C1 C 0.0779(2) 0.2476(3) 0.54367(17)
C2 C 0.1335(2) 0.2370(3) 0.49549(16)
H1 H 0.1714 0.2942 0.5013
H2 H 0.1702 0.1788 0.5096
C3 C 0.0747(2) 0.2283(3) 0.41674(17)
C4 C 0.0173(3) 0.1373(3) 0.4092(2)
H3 H -0.0196 0.1290 0.3586
H4 H 0.0539 0.0791 0.4241
C5 C -0.0390(3) 0.1491(4) 0.4564(2)
H5 H -0.0765 0.0908 0.4510
C6 C 0.0206(3) 0.1573(3) 0.53494(19)
H6 H -0.0142 0.1624 0.5667
H7 H 0.0570 0.0987 0.5486
C7 C 0.0199(3) 0.3374(3) 0.52076(18)
H8 H -0.0157 0.3442 0.5518
H9 H 0.0560 0.3961 0.5266
C8 C -0.0389(3) 0.3282(4) 0.44220(19)
H10 H -0.0761 0.3869 0.4276
C9 C 0.0168(3) 0.3172(3) 0.39470(18)
H11 H -0.0207 0.3108 0.3441
H12 H 0.0527 0.3758 0.3989
C10 C -0.0949(3) 0.2379(4) 0.4345(2)
H13 H -0.1312 0.2444 0.4649
H14 H -0.1332 0.2313 0.3842
C11 C 0.1326(3) 0.2620(3) 0.62157(18)
C12 C 0.1274(2) 0.2139(3) 0.36756(18)
C13 C 0.4805(2) 0.4161(3) 0.83432(18)
C14 C 0.5133(2) 0.3928(3) 0.77293(17)
H15 H 0.4783 0.4278 0.7294
H16 H 0.5072 0.3226 0.7626
C15 C 0.6080(2) 0.4220(3) 0.79206(18)
C16 C 0.6619(3) 0.3645(3) 0.85859(19)
H17 H 0.7234 0.3819 0.8717
H18 H 0.6558 0.2942 0.8484
C17 C 0.6292(3) 0.3892(4) 0.9209(2)
H19 H 0.6642 0.3528 0.9645
C18 C 0.5345(3) 0.3586(3) 0.90074(19)
H20 H 0.5138 0.3717 0.9411
H21 H 0.5288 0.2884 0.8903
C19 C 0.4909(3) 0.5256(3) 0.8510(2)
H22 H 0.4564 0.5631 0.8086
H23 H 0.4701 0.5411 0.8910
C20 C 0.5856(3) 0.5526(4) 0.8713(2)
H24 H 0.5921 0.6233 0.8824
C21 C 0.6169(3) 0.5316(3) 0.8080(2)
H25 H 0.6777 0.5516 0.8202
H26 H 0.5820 0.5685 0.7654
C22 C 0.6390(3) 0.4967(4) 0.9366(2)
H27 H 0.6198 0.5121 0.9775
H28 H 0.7001 0.5154 0.9496
C23 C 0.3868(3) 0.3885(3) 0.81300(19)
C24 C 0.6323(2) 0.3971(3) 0.72709(19)
C25 C 0.4853(3) 0.2897(3) 0.5743(2)
H29 H 0.5006 0.2613 0.6204
C26 C 0.4001(3) 0.2871(3) 0.5304(2)
H30 H 0.3577 0.2578 0.5461
C27 C 0.3783(3) 0.3277(3) 0.4638(2)
H31 H 0.3204 0.3257 0.4324
C28 C 0.4405(3) 0.3715(3) 0.44249(19)
H32 H 0.4258 0.4014 0.3969
C29 C 0.5246(2) 0.3711(3) 0.48864(18)
C30 C 0.5962(3) 0.4165(3) 0.47106(19)
C31 C 0.5869(3) 0.4554(3) 0.4044(2)
H33 H 0.5325 0.4545 0.3673
C32 C 0.6575(3) 0.4955(4) 0.3925(2)
H34 H 0.6516 0.5237 0.3475
C33 C 0.7360(3) 0.4943(3) 0.4458(2)
H35 H 0.7854 0.5199 0.4380
C34 C 0.7416(3) 0.4551(3) 0.5110(2)
H36 H 0.7958 0.4552 0.5483
C35 C 0.7168(3) 0.1434(3) 0.60514(18)
H37 H 0.6563 0.1343 0.5867
C36 C 0.7697(3) 0.0639(3) 0.61215(18)
H38 H 0.7462 0.0012 0.5987
C37 C 0.8568(3) 0.0776(3) 0.63894(19)
H39 H 0.8944 0.0241 0.6439
C38 C 0.8903(3) 0.1695(3) 0.65885(18)
H40 H 0.9506 0.1796 0.6777
C39 C 0.8335(2) 0.2460(3) 0.65050(17)
C40 C 0.8623(2) 0.3454(3) 0.67387(17)
C41 C 0.9462(2) 0.3767(3) 0.69153(18)
H41 H 0.9895 0.3342 0.6876
C42 C 0.9664(3) 0.4713(3) 0.71513(19)
H42 H 1.0234 0.4948 0.7266
C43 C 0.9026(3) 0.5298(3) 0.72156(19)
H43 H 0.9156 0.5936 0.7397
C44 C 0.8194(3) 0.4956(3) 0.70150(19)
H44 H 0.7752 0.5371 0.7051
U1C U 0.217278(9) 0.186342(11) 0.268012(7)
O5C O 0.09399(16) 0.2622(2) 0.80224(11)
O6C O 0.20193(16) 0.32253(19) 0.88944(12)
O11 O 0.7498(7) 0.1364(6) 0.7910(3)
H45 H 0.7752 0.0836 0.7820
H46 H 0.7042 0.1539 0.7655
loop_
_geom_bond_atom_site_label_1
_geom_bond_atom_site_label_2
_geom_bond_site_symmetry_1
_geom_bond_site_symmetry_2
U1 O1 1_555 1_555
Co1 O9 1_555 1_555
O2 U1 1_555 1_555
O3 U1 1_555 1_555
O4 U1 1_555 1_555
O5 C12 1_555 1_555
O6 C12 1_555 1_555
O7 U1 1_555 1_555
O8 U1 1_555 1_555
O9 C24 1_555 1_555
O10 Co1 1_555 1_555
N1 Co1 1_555 1_555
N2 Co1 1_555 1_555
N3 Co1 1_555 1_555
N4 Co1 1_555 1_555
C1 C2 1_555 1_555
C2 H1 1_555 1_555
H2 C2 1_555 1_555
C3 C2 1_555 1_555
C4 C3 1_555 1_555
H3 C4 1_555 1_555
H4 C4 1_555 1_555
C5 C4 1_555 1_555
H5 C5 1_555 1_555
C6 C1 1_555 1_555
H6 C6 1_555 1_555
H7 C6 1_555 1_555
C7 C1 1_555 1_555
H8 C7 1_555 1_555
H9 C7 1_555 1_555
C8 C7 1_555 1_555
H10 C8 1_555 1_555
C9 C3 1_555 1_555
H11 C9 1_555 1_555
H12 C9 1_555 1_555
C10 C5 1_555 1_555
H13 C10 1_555 1_555
H14 C10 1_555 1_555
C11 O3 1_555 1_555
C12 C3 1_555 1_555
C13 C14 1_555 1_555
C14 H15 1_555 1_555
H16 C14 1_555 1_555
C15 C14 1_555 1_555
C16 C15 1_555 1_555
H17 C16 1_555 1_555
H18 C16 1_555 1_555
C17 C16 1_555 1_555
H19 C17 1_555 1_555
C18 C13 1_555 1_555
H20 C18 1_555 1_555
H21 C18 1_555 1_555
C19 C13 1_555 1_555
H22 C19 1_555 1_555
H23 C19 1_555 1_555
C20 C19 1_555 1_555
H24 C20 1_555 1_555
C21 C15 1_555 1_555
H25 C21 1_555 1_555
H26 C21 1_555 1_555
C22 C17 1_555 1_555
H27 C22 1_555 1_555
H28 C22 1_555 1_555
C23 O7 1_555 1_555
C24 O10 1_555 1_555
C25 N1 1_555 1_555
H29 C25 1_555 1_555
C26 C25 1_555 1_555
H30 C26 1_555 1_555
C27 C26 1_555 1_555
H31 C27 1_555 1_555
C28 C27 1_555 1_555
H32 C28 1_555 1_555
C29 N1 1_555 1_555
C30 N2 1_555 1_555
C31 C30 1_555 1_555
H33 C31 1_555 1_555
C32 C31 1_555 1_555
H34 C32 1_555 1_555
C33 C32 1_555 1_555
H35 C33 1_555 1_555
C34 N2 1_555 1_555
H36 C34 1_555 1_555
C35 N3 1_555 1_555
H37 C35 1_555 1_555
C36 C35 1_555 1_555
H38 C36 1_555 1_555
C37 C36 1_555 1_555
H39 C37 1_555 1_555
C38 C37 1_555 1_555
H40 C38 1_555 1_555
C39 N3 1_555 1_555
C40 N4 1_555 1_555
C41 C40 1_555 1_555
H41 C41 1_555 1_555
C42 C41 1_555 1_555
H42 C42 1_555 1_555
C43 C42 1_555 1_555
H43 C43 1_555 1_555
C44 N4 1_555 1_555
H44 C44 1_555 1_555
O11 H45 1_555 1_555
H46 O11 1_555 1_555
U1C O5 1_555 1_555
O5C U1 1_555 1_555
O6C U1 1_555 1_555
O4 C11 1_555 1_555
O6 U1C 1_555 1_555
O8 C23 1_555 1_555
C1 C11 1_555 1_555
C5 C6 1_555 1_555
C8 C9 1_555 1_555
C8 C10 1_555 1_555
C13 C23 1_555 1_555
C15 C24 1_555 1_555
C17 C18 1_555 1_555
C20 C21 1_555 1_555
C20 C22 1_555 1_555
C28 C29 1_555 1_555
C29 C30 1_555 1_555
C33 C34 1_555 1_555
C38 C39 1_555 1_555
C39 C40 1_555 1_555
C43 C44 1_555 1_555

#END
