
#######################################################################
#
#                 Cambridge Crystallographic Data Centre
#                                CCDC 
#
#######################################################################
#
# If this CIF has been generated from an entry in the Cambridge 
# Structural Database, then it will include bibliographic, chemical, 
# crystal, experimental, refinement or atomic coordinate data resulting 
# from the CCDC's data processing and validation procedures.
#
#######################################################################

data_ZOZCOI
_symmetry_cell_setting           monoclinic
_symmetry_space_group_name_H-M   'C 2/c'
_symmetry_Int_Tables_number      15
_space_group_name_Hall           '-C 2yn'
loop_
_symmetry_equiv_pos_site_id
_symmetry_equiv_pos_as_xyz
1 x,y,z
2 -x,y,1/2-z
3 1/2+x,1/2+y,z
4 1/2-x,1/2+y,1/2-z
5 -x,-y,-z
6 x,-y,1/2+z
7 1/2-x,1/2-y,-z
8 1/2+x,1/2-y,1/2+z
_cell_length_a                   36.6031(16)
_cell_length_b                   10.1698(4)
_cell_length_c                   21.1750(8)
_cell_angle_alpha                90
_cell_angle_beta                 110.279(4)
_cell_angle_gamma                90
_cell_volume                     7393.74
loop_
_atom_site_label
_atom_site_type_symbol
_atom_site_fract_x
_atom_site_fract_y
_atom_site_fract_z
U1 U 0.947778(5) 0.744289(17) 0.545492(8)
U2 U 0.846949(5) 1.010200(17) 0.614275(8)
O1 O 0.95468(11) 0.8752(3) 0.60248(16)
O2 O 0.94062(10) 0.6122(3) 0.48878(15)
O3 O 0.89045(11) 1.0885(4) 0.66155(16)
O4 O 0.80331(10) 0.9329(3) 0.56644(15)
O5 O 0.88828(10) 0.8352(3) 0.46960(14)
O6 O 0.86812(10) 0.9930(3) 0.52209(14)
O7 O 0.83955(11) 1.0575(3) 0.21810(15)
O8 O 0.81010(10) 0.8736(3) 0.17597(15)
O9 O 0.90243(9) 0.6545(3) 0.58949(14)
O10 O 0.87545(11) 0.8050(4) 0.63382(16)
O11 O 1.01446(10) 0.6000(4) 0.86314(15)
O12 O 0.98119(9) 0.7140(3) 0.91330(15)
O13 O 0.97002(11) 0.8757(4) 0.47548(16)
O14 O 0.82470(12) 1.2118(3) 0.55767(16)
N1 N 0.97289(16) 0.9078(5) 0.3731(3)
N2 N 0.84355(13) 1.3764(4) 0.5022(2)
C1 C 0.82837(14) 0.9382(5) 0.4081(2)
C2 C 0.84089(13) 0.9442(5) 0.3452(2)
H1 H 0.8574 1.0226 0.3479
H2 H 0.8564 0.8652 0.3438
C3 C 0.80499(14) 0.9509(4) 0.2813(2)
C4 C 0.78196(14) 1.0746(5) 0.2837(2)
H3 H 0.7588 1.0805 0.2422
H4 H 0.7983 1.1532 0.2858
C5 C 0.76909(15) 1.0717(5) 0.3456(2)
H5 H 0.7541 1.1532 0.3467
C6 C 0.80496(14) 1.0629(5) 0.4099(2)
H6 H 0.7967 1.0604 0.4497
H7 H 0.8215 1.1415 0.4136
C7 C 0.80242(15) 0.8175(5) 0.4026(2)
H8 H 0.7942 0.8130 0.4425
H9 H 0.8173 0.7368 0.4016
C8 C 0.76621(16) 0.8254(6) 0.3382(2)
H10 H 0.7493 0.7466 0.3352
C9 C 0.77953(15) 0.8295(5) 0.2770(2)
H11 H 0.7945 0.7491 0.2759
H12 H 0.7565 0.8328 0.2351
C10 C 0.74348(16) 0.9511(6) 0.3411(3)
H13 H 0.7199 0.9571 0.3002
H14 H 0.7351 0.9480 0.3808
C11 C 0.86423(14) 0.9225(5) 0.4715(2)
C12 C 0.81898(15) 0.9603(5) 0.2218(2)
C13 C 0.89824(14) 0.6092(5) 0.6985(2)
C14 C 0.93584(13) 0.6607(4) 0.7515(2)
H15 H 0.9328 0.7549 0.7605
H16 H 0.9578 0.6522 0.7345
C15 C 0.94449(14) 0.5802(4) 0.8172(2)
C16 C 0.94937(15) 0.4363(5) 0.8020(2)
H17 H 0.9554 0.3837 0.8438
H18 H 0.9713 0.4270 0.7852
C17 C 0.91201(16) 0.3850(5) 0.7492(2)
H19 H 0.9156 0.2904 0.7398
C18 C 0.90370(16) 0.4646(5) 0.6841(2)
H20 H 0.9257 0.4555 0.6674
H21 H 0.8799 0.4309 0.6491
C19 C 0.86410(14) 0.6233(5) 0.7248(2)
H22 H 0.8606 0.7169 0.7343
H23 H 0.8397 0.5918 0.6904
C20 C 0.87291(15) 0.5422(5) 0.7893(2)
H24 H 0.8507 0.5503 0.8062
C21 C 0.91009(14) 0.5948(5) 0.8430(2)
H25 H 0.9155 0.5449 0.8854
H26 H 0.9066 0.6885 0.8522
C22 C 0.87843(17) 0.3968(5) 0.7751(3)
H27 H 0.8840 0.3447 0.8169
H28 H 0.8543 0.3621 0.7411
C23 C 0.89100(14) 0.6954(5) 0.6359(2)
C24 C 0.98241(15) 0.6337(5) 0.8684(2)
C25 C 0.98570(19) 0.8640(6) 0.4313(3)
C26 C 1.02532(19) 0.7902(7) 0.4434(3)
H29 H 1.0470 0.8325 0.4796
H30 H 1.0236 0.6967 0.4550
C27 C 1.0304(2) 0.8038(7) 0.3767(3)
H31 H 1.0313 0.7158 0.3573
H32 H 1.0552 0.8498 0.3822
C28 C 0.99634(16) 0.8818(6) 0.3304(3)
H33 H 1.0052 0.9648 0.3158
H34 H 0.9815 0.8300 0.2901
C29 C 0.93813(18) 0.9831(6) 0.3484(3)
H35 H 0.9214 0.9627 0.3746
H36 H 0.9244 0.9615 0.3010
H37 H 0.9446 1.0769 0.3526
C30 C 0.81913(17) 1.3169(5) 0.5246(2)
C31 C 0.78128(19) 1.3930(6) 0.5030(4)
H38 H 0.7610 1.3484 0.4655
H39 H 0.7716 1.4042 0.5410
C32 C 0.7924(2) 1.5232(7) 0.4810(5)
H40 H 0.7982 1.5888 0.5177
H41 H 0.7712 1.5573 0.4411
C33 C 0.82855(18) 1.4936(6) 0.4638(3)
H42 H 0.8218 1.4776 0.4150
H43 H 0.8476 1.5665 0.4777
C34 C 0.88173(17) 1.3302(6) 0.5095(3)
H44 H 0.8871 1.2489 0.5360
H45 H 0.9010 1.3971 0.5326
H46 H 0.8833 1.3130 0.4650
U1A U 1.052222(5) 0.744289(17) 0.954508(8)
U2E U 0.846949(5) 0.989800(17) 0.114275(8)
O7E O 0.83955(11) 0.9425(3) 0.71810(15)
O8E O 0.81010(10) 1.1264(3) 0.67597(15)
O11A O 0.98554(10) 0.6000(4) 0.63686(15)
O12A O 1.01881(9) 0.7140(3) 0.58670(15)
loop_
_geom_bond_atom_site_label_1
_geom_bond_atom_site_label_2
_geom_bond_site_symmetry_1
_geom_bond_site_symmetry_2
U1 O1 1_555 1_555
U2 O3 1_555 1_555
O2 U1 1_555 1_555
O4 U2 1_555 1_555
O5 U1 1_555 1_555
O6 U2 1_555 1_555
O7 C12 1_555 1_555
O8 C12 1_555 1_555
O9 U1 1_555 1_555
O10 U2 1_555 1_555
O11 C24 1_555 1_555
O12 C24 1_555 1_555
O13 U1 1_555 1_555
O14 U2 1_555 1_555
N1 C25 1_555 1_555
N2 C30 1_555 1_555
C1 C2 1_555 1_555
C2 H1 1_555 1_555
H2 C2 1_555 1_555
C3 C2 1_555 1_555
C4 C3 1_555 1_555
H3 C4 1_555 1_555
H4 C4 1_555 1_555
C5 C4 1_555 1_555
H5 C5 1_555 1_555
C6 C1 1_555 1_555
H6 C6 1_555 1_555
H7 C6 1_555 1_555
C7 C1 1_555 1_555
H8 C7 1_555 1_555
H9 C7 1_555 1_555
C8 C7 1_555 1_555
H10 C8 1_555 1_555
C9 C3 1_555 1_555
H11 C9 1_555 1_555
H12 C9 1_555 1_555
C10 C5 1_555 1_555
H13 C10 1_555 1_555
H14 C10 1_555 1_555
C11 O5 1_555 1_555
C12 C3 1_555 1_555
C13 C14 1_555 1_555
C14 H15 1_555 1_555
H16 C14 1_555 1_555
C15 C14 1_555 1_555
C16 C15 1_555 1_555
H17 C16 1_555 1_555
H18 C16 1_555 1_555
C17 C16 1_555 1_555
H19 C17 1_555 1_555
C18 C13 1_555 1_555
H20 C18 1_555 1_555
H21 C18 1_555 1_555
C19 C13 1_555 1_555
H22 C19 1_555 1_555
H23 C19 1_555 1_555
C20 C19 1_555 1_555
H24 C20 1_555 1_555
C21 C15 1_555 1_555
H25 C21 1_555 1_555
H26 C21 1_555 1_555
C22 C17 1_555 1_555
H27 C22 1_555 1_555
H28 C22 1_555 1_555
C23 O9 1_555 1_555
C24 C15 1_555 1_555
C25 O13 1_555 1_555
C26 C25 1_555 1_555
H29 C26 1_555 1_555
H30 C26 1_555 1_555
C27 C26 1_555 1_555
H31 C27 1_555 1_555
H32 C27 1_555 1_555
C28 N1 1_555 1_555
H33 C28 1_555 1_555
H34 C28 1_555 1_555
C29 N1 1_555 1_555
H35 C29 1_555 1_555
H36 C29 1_555 1_555
H37 C29 1_555 1_555
C30 O14 1_555 1_555
C31 C30 1_555 1_555
H38 C31 1_555 1_555
H39 C31 1_555 1_555
C32 C31 1_555 1_555
H40 C32 1_555 1_555
H41 C32 1_555 1_555
C33 N2 1_555 1_555
H42 C33 1_555 1_555
H43 C33 1_555 1_555
C34 N2 1_555 1_555
H44 C34 1_555 1_555
H45 C34 1_555 1_555
H46 C34 1_555 1_555
U1A O11 1_555 1_555
U2E O7 1_555 1_555
O7E U2 1_555 1_555
O8E U2 1_555 1_555
O11A U1 1_555 1_555
O12A U1 1_555 1_555
O6 C11 1_555 1_555
O8 U2E 1_555 1_555
O10 C23 1_555 1_555
O12 U1A 1_555 1_555
C1 C11 1_555 1_555
C5 C6 1_555 1_555
C8 C9 1_555 1_555
C8 C10 1_555 1_555
C13 C23 1_555 1_555
C17 C18 1_555 1_555
C20 C21 1_555 1_555
C20 C22 1_555 1_555
C27 C28 1_555 1_555
C32 C33 1_555 1_555

#END
