
#######################################################################
#
#                 Cambridge Crystallographic Data Centre
#                                CCDC 
#
#######################################################################
#
# If this CIF has been generated from an entry in the Cambridge 
# Structural Database, then it will include bibliographic, chemical, 
# crystal, experimental, refinement or atomic coordinate data resulting 
# from the CCDC's data processing and validation procedures.
#
#######################################################################

data_ZOZDEZ
_symmetry_cell_setting           triclinic
_symmetry_space_group_name_H-M   'P -1'
_symmetry_Int_Tables_number      2
_space_group_name_Hall           '-P 1'
loop_
_symmetry_equiv_pos_site_id
_symmetry_equiv_pos_as_xyz
1 x,y,z
2 -x,-y,-z
_cell_length_a                   14.0975(5)
_cell_length_b                   14.5802(3)
_cell_length_c                   20.5052(7)
_cell_angle_alpha                102.9388(17)
_cell_angle_beta                 97.3018(15)
_cell_angle_gamma                114.3083(16)
_cell_volume                     3627.68
loop_
_atom_site_label
_atom_site_type_symbol
_atom_site_fract_x
_atom_site_fract_y
_atom_site_fract_z
U1 U 0.140213(12) 0.096142(11) 0.526226(7)
U2 U 0.099846(12) -0.179686(12) 0.527136(8)
U3 U 0.475665(12) -0.068205(11) 0.909295(7)
U4 U 0.482590(12) -0.798468(12) 0.937967(7)
O1 O 0.1306(2) 0.1459(2) 0.61198(14)
O2 O 0.1592(2) 0.0507(2) 0.44299(15)
O3 O 0.0735(3) -0.1825(2) 0.60894(16)
O4 O 0.1293(2) -0.1835(2) 0.44525(15)
O5 O 0.3365(2) -0.1019(2) 0.89332(15)
O6 O 0.6145(2) -0.0351(2) 0.91689(15)
O7 O 0.3420(2) -0.8758(2) 0.92436(15)
O8 O 0.6219(2) -0.7155(3) 0.95130(17)
O9 O 0.2424(2) 0.0027(2) 0.57334(14)
O10 O 0.3355(2) 0.1671(2) 0.57677(16)
O11 O 0.4917(2) 0.0699(2) 0.84530(13)
O12 O 0.4677(3) -0.0845(2) 0.78591(14)
O13 O 0.2114(2) 0.2675(2) 0.51235(17)
O14 O 0.0780(2) 0.3082(2) 0.52606(16)
O15 O 0.2571(2) 0.7885(2) 0.55892(17)
O16 O 0.0999(2) 0.6508(2) 0.51083(18)
O17 O 0.4200(3) -0.2530(2) 0.86578(16)
O18 O 0.5078(3) -0.2844(2) 0.94811(15)
O19 O 0.4492(3) -0.6475(3) 0.93305(15)
O20 O 0.4414(3) -0.7482(2) 0.83387(15)
O21 O 0.0250(2) -0.0723(2) 0.51827(14)
O22 O 0.4838(2) -0.0909(2) 1.01495(13)
C1 C 0.4326(3) 0.0885(3) 0.62828(19)
C2 C 0.4125(3) 0.0493(3) 0.69133(19)
H1 H 0.3936 0.0967 0.7238
H2 H 0.3515 -0.0226 0.6762
C3 C 0.5130(3) 0.0476(3) 0.72764(19)
C4 C 0.6071(3) 0.1604(4) 0.7516(2)
H3 H 0.5894 0.2086 0.7841
H4 H 0.6725 0.1603 0.7758
C5 C 0.6278(3) 0.1987(4) 0.6886(2)
H5 H 0.6891 0.2716 0.7041
C6 C 0.5275(3) 0.2007(3) 0.6525(2)
H6 H 0.5409 0.2268 0.6123
H7 H 0.5098 0.2494 0.6847
C7 C 0.4627(3) 0.0153(3) 0.5779(2)
H8 H 0.4021 -0.0570 0.5609
H9 H 0.4764 0.0411 0.5376
C8 C 0.5632(3) 0.0125(4) 0.6140(2)
H10 H 0.5815 -0.0359 0.5810
C9 C 0.5407(4) -0.0279(4) 0.6761(2)
H11 H 0.6047 -0.0312 0.6994
H12 H 0.4800 -0.1001 0.6602
C10 C 0.6567(4) 0.1236(4) 0.6387(2)
H13 H 0.6725 0.1492 0.5986
H14 H 0.7217 0.1224 0.6625
C11 C 0.3330(3) 0.0877(3) 0.5911(2)
C12 C 0.4893(3) 0.0080(3) 0.7891(2)
C13 C 0.2338(3) 0.4355(3) 0.5032(2)
C14 C 0.1900(3) 0.5142(3) 0.5274(2)
H15 H 0.1969 0.5298 0.5778
H16 H 0.1129 0.4828 0.5040
C15 C 0.2525(3) 0.6167(3) 0.5106(2)
C16 C 0.3725(3) 0.6657(3) 0.5460(2)
H17 H 0.4128 0.7309 0.5342
H18 H 0.3828 0.6845 0.5968
C17 C 0.4145(3) 0.5868(3) 0.5221(2)
H19 H 0.4923 0.6185 0.5458
C18 C 0.3534(3) 0.4843(3) 0.5390(2)
H20 H 0.3629 0.4994 0.5896
H21 H 0.3822 0.4341 0.5230
C19 C 0.2206(3) 0.4111(3) 0.4236(2)
H22 H 0.2473 0.3594 0.4068
H23 H 0.1437 0.3800 0.3998
C20 C 0.2838(4) 0.5131(3) 0.4075(2)
H24 H 0.2756 0.4971 0.3565
C21 C 0.2391(4) 0.5906(4) 0.4317(2)
H25 H 0.1621 0.5589 0.4080
H26 H 0.2779 0.6562 0.4198
C22 C 0.4022(3) 0.5617(4) 0.4433(2)
H27 H 0.4428 0.6273 0.4319
H28 H 0.4314 0.5117 0.4274
C23 C 0.1717(3) 0.3307(3) 0.5158(2)
C24 C 0.2017(3) 0.6896(3) 0.5294(2)
C25 C 0.4043(3) -0.4261(3) 0.8433(2)
C26 C 0.4418(3) -0.4916(3) 0.8796(2)
H29 H 0.5212 -0.4585 0.8923
H30 H 0.4165 -0.4930 0.9224
C27 C 0.3970(4) -0.6046(3) 0.8314(2)
C28 C 0.2751(4) -0.6556(4) 0.8109(3)
H31 H 0.2470 -0.6590 0.8526
H32 H 0.2467 -0.7287 0.7799
C29 C 0.2374(4) -0.5914(4) 0.7739(3)
H33 H 0.1571 -0.6252 0.7609
C30 C 0.2820(4) -0.4782(4) 0.8235(2)
H34 H 0.2573 -0.4360 0.8007
H35 H 0.2546 -0.4807 0.8655
C31 C 0.4451(4) -0.4229(4) 0.7773(2)
H36 H 0.4208 -0.3814 0.7536
H37 H 0.5246 -0.3884 0.7894
C32 C 0.4012(5) -0.5363(4) 0.7292(2)
H38 H 0.4281 -0.5345 0.6864
C33 C 0.4365(5) -0.6030(4) 0.7650(2)
H39 H 0.5158 -0.5727 0.7764
H40 H 0.4063 -0.6760 0.7336
C34 C 0.2794(5) -0.5866(4) 0.7099(2)
H41 H 0.2554 -0.5447 0.6865
H42 H 0.2502 -0.6589 0.6776
C35 C 0.4478(4) -0.3132(3) 0.8893(2)
C36 C 0.4317(4) -0.6699(3) 0.8675(2)
U1A U -0.140213(12) -0.096142(11) 0.473774(7)
U2_2 U 0.099846(12) 0.820314(12) 0.527136(8)
U2A U -0.099846(12) 0.179686(12) 0.472864(8)
U3A U 0.524335(12) 0.068205(11) 1.090705(7)
U4_2 U 0.482590(12) 0.201532(12) 0.937967(7)
U4A U 0.517410(12) -0.201532(12) 1.062033(7)
O11_2 O 0.4917(2) -0.9301(2) 0.84530(13)
O14A O -0.0780(2) -0.3082(2) 0.47394(16)
O15_2 O 0.2571(2) -0.2115(2) 0.55892(17)
O16_2 O 0.0999(2) -0.3492(2) 0.51083(18)
O18A O 0.4922(3) -0.7156(2) 1.05189(15)
O21A O -0.0250(2) 0.0723(2) 0.48173(14)
O22A O 0.5162(2) -0.9091(2) 0.98505(13)
O22A_2 O 0.5162(2) 0.0909(2) 0.98505(13)
Ni1 Ni 0.06651(4) 0.26236(5) 0.18394(3)
N1 N 0.0321(3) 0.3669(3) 0.25324(18)
N2 N 0.1610(3) 0.4091(3) 0.1695(2)
N3 N -0.0535(3) 0.2435(3) 0.10284(18)
N4 N 0.0953(3) 0.1757(3) 0.0991(2)
N5 N -0.0260(3) 0.1328(3) 0.21300(18)
N6 N 0.1828(3) 0.2574(3) 0.25480(18)
C37 C -0.0285(4) 0.3455(4) 0.2987(2)
H43 H -0.0505 0.2782 0.3057
C38 C -0.0611(4) 0.4128(5) 0.3359(3)
H44 H -0.1042 0.3921 0.3670
C39 C -0.0293(5) 0.5126(5) 0.3269(3)
H45 H -0.0505 0.5615 0.3514
C40 C 0.0348(4) 0.5382(4) 0.2805(3)
H46 H 0.0588 0.6056 0.2736
C41 C 0.0633(4) 0.4639(4) 0.2444(2)
C42 C 0.1319(4) 0.4853(4) 0.1947(2)
C43 C 0.1644(5) 0.5767(4) 0.1758(3)
H47 H 0.1422 0.6287 0.1932
C44 C 0.2316(5) 0.5901(5) 0.1297(3)
H48 H 0.2538 0.6508 0.1144
C45 C 0.2642(4) 0.5166(4) 0.1075(3)
H49 H 0.3126 0.5264 0.0784
C46 C 0.2255(4) 0.4256(5) 0.1279(3)
H50 H 0.2469 0.3728 0.1109
C47 C -0.1289(4) 0.2773(4) 0.1059(3)
H51 H -0.1329 0.3106 0.1502
C48 C -0.2007(4) 0.2669(4) 0.0490(3)
H52 H -0.2514 0.2935 0.0544
C49 C -0.1977(4) 0.2188(4) -0.0136(3)
H53 H -0.2479 0.2091 -0.0533
C50 C -0.1207(4) 0.1828(5) -0.0207(3)
H54 H -0.1174 0.1486 -0.0650
C51 C -0.0484(4) 0.1987(4) 0.0395(2)
C52 C 0.0364(4) 0.1633(4) 0.0366(2)
C53 C 0.0558(5) 0.1214(5) -0.0247(3)
H55 H 0.0142 0.1141 -0.0675
C54 C 0.1356(5) 0.0905(5) -0.0234(3)
H56 H 0.1492 0.0613 -0.0654
C55 C 0.1958(5) 0.1020(5) 0.0391(3)
H57 H 0.2515 0.0813 0.0413
C56 C 0.1720(4) 0.1457(4) 0.1000(3)
H58 H 0.2128 0.1538 0.1433
C57 C -0.1334(3) 0.0774(4) 0.1934(2)
H59 H -0.1723 0.0932 0.1600
C58 C -0.1898(4) -0.0026(4) 0.2206(2)
H60 H -0.2659 -0.0410 0.2055
C59 C -0.1348(4) -0.0250(4) 0.2692(2)
H61 H -0.1721 -0.0783 0.2889
C60 C -0.0251(4) 0.0304(4) 0.2892(2)
H62 H 0.0145 0.0152 0.3226
C61 C 0.0281(3) 0.1090(4) 0.2604(2)
C62 C 0.1472(3) 0.1753(4) 0.2803(2)
C63 C 0.2162(4) 0.1526(4) 0.3211(2)
H63 H 0.1889 0.0939 0.3383
C64 C 0.3266(4) 0.2184(4) 0.3363(2)
H64 H 0.3759 0.2051 0.3639
C65 C 0.3627(4) 0.3024(4) 0.3106(2)
H65 H 0.4374 0.3481 0.3202
C66 C 0.2899(3) 0.3194(4) 0.2710(2)
H66 H 0.3161 0.3782 0.2539
O23 O 0.0266(4) -0.1845(4) 0.3130(2)
H67 H 0.0053 -0.1559 0.3525
H68 H 0.0789 -0.1939 0.3330
O24 O 0.9138(6) 0.2027(8) 0.8076(3)
O25 O 0.2832(6) -0.6625(6) 0.9930(3)
O26 O 0.7667(8) 0.0041(8) 0.8216(5)
O27 O 1.0877(10) 0.3521(11) 0.9248(6)
O28? O 1.0194(9) 0.4823(9) 0.9842(5)
loop_
_geom_bond_atom_site_label_1
_geom_bond_atom_site_label_2
_geom_bond_site_symmetry_1
_geom_bond_site_symmetry_2
U1 O1 1_555 1_555
U2 O3 1_555 1_555
U3 O5 1_555 1_555
U4 O7 1_555 1_555
O2 U1 1_555 1_555
O4 U2 1_555 1_555
O6 U3 1_555 1_555
O8 U4 1_555 1_555
O9 U1 1_555 1_555
O10 U1 1_555 1_555
O11 U3 1_555 1_555
O12 U3 1_555 1_555
O13 U1 1_555 1_555
O14 C23 1_555 1_555
O15 C24 1_555 1_555
O16 C24 1_555 1_555
O17 U3 1_555 1_555
O18 C35 1_555 1_555
O19 U4 1_555 1_555
O20 U4 1_555 1_555
O21 U1 1_555 1_555
O22 U3 1_555 1_555
C1 C2 1_555 1_555
C2 H1 1_555 1_555
H2 C2 1_555 1_555
C3 C2 1_555 1_555
C4 C3 1_555 1_555
H3 C4 1_555 1_555
H4 C4 1_555 1_555
C5 C4 1_555 1_555
H5 C5 1_555 1_555
C6 C1 1_555 1_555
H6 C6 1_555 1_555
H7 C6 1_555 1_555
C7 C1 1_555 1_555
H8 C7 1_555 1_555
H9 C7 1_555 1_555
C8 C7 1_555 1_555
H10 C8 1_555 1_555
C9 C3 1_555 1_555
H11 C9 1_555 1_555
H12 C9 1_555 1_555
C10 C5 1_555 1_555
H13 C10 1_555 1_555
H14 C10 1_555 1_555
C11 O9 1_555 1_555
C12 O11 1_555 1_555
C13 C14 1_555 1_555
C14 H15 1_555 1_555
H16 C14 1_555 1_555
C15 C14 1_555 1_555
C16 C15 1_555 1_555
H17 C16 1_555 1_555
H18 C16 1_555 1_555
C17 C16 1_555 1_555
H19 C17 1_555 1_555
C18 C13 1_555 1_555
H20 C18 1_555 1_555
H21 C18 1_555 1_555
C19 C13 1_555 1_555
H22 C19 1_555 1_555
H23 C19 1_555 1_555
C20 C19 1_555 1_555
H24 C20 1_555 1_555
C21 C15 1_555 1_555
H25 C21 1_555 1_555
H26 C21 1_555 1_555
C22 C17 1_555 1_555
H27 C22 1_555 1_555
H28 C22 1_555 1_555
C23 O13 1_555 1_555
C24 C15 1_555 1_555
C25 C26 1_555 1_555
C26 H29 1_555 1_555
H30 C26 1_555 1_555
C27 C26 1_555 1_555
C28 C27 1_555 1_555
H31 C28 1_555 1_555
H32 C28 1_555 1_555
C29 C28 1_555 1_555
H33 C29 1_555 1_555
C30 C25 1_555 1_555
H34 C30 1_555 1_555
H35 C30 1_555 1_555
C31 C25 1_555 1_555
H36 C31 1_555 1_555
H37 C31 1_555 1_555
C32 C31 1_555 1_555
H38 C32 1_555 1_555
C33 C27 1_555 1_555
H39 C33 1_555 1_555
H40 C33 1_555 1_555
C34 C29 1_555 1_555
H41 C34 1_555 1_555
H42 C34 1_555 1_555
C35 O17 1_555 1_555
C36 O19 1_555 1_555
Ni1 N1 1_555 1_555
N1 C37 1_555 1_555
N2 Ni1 1_555 1_555
N3 Ni1 1_555 1_555
N4 Ni1 1_555 1_555
N5 Ni1 1_555 1_555
N6 Ni1 1_555 1_555
C37 H43 1_555 1_555
C38 C37 1_555 1_555
H44 C38 1_555 1_555
C39 C38 1_555 1_555
H45 C39 1_555 1_555
C40 C39 1_555 1_555
H46 C40 1_555 1_555
C41 N1 1_555 1_555
C42 N2 1_555 1_555
C43 C42 1_555 1_555
H47 C43 1_555 1_555
C44 C43 1_555 1_555
H48 C44 1_555 1_555
C45 C44 1_555 1_555
H49 C45 1_555 1_555
C46 N2 1_555 1_555
H50 C46 1_555 1_555
C47 N3 1_555 1_555
H51 C47 1_555 1_555
C48 C47 1_555 1_555
H52 C48 1_555 1_555
C49 C48 1_555 1_555
H53 C49 1_555 1_555
C50 C49 1_555 1_555
H54 C50 1_555 1_555
C51 N3 1_555 1_555
C52 N4 1_555 1_555
C53 C52 1_555 1_555
H55 C53 1_555 1_555
C54 C53 1_555 1_555
H56 C54 1_555 1_555
C55 C54 1_555 1_555
H57 C55 1_555 1_555
C56 N4 1_555 1_555
H58 C56 1_555 1_555
C57 N5 1_555 1_555
H59 C57 1_555 1_555
C58 C57 1_555 1_555
H60 C58 1_555 1_555
C59 C58 1_555 1_555
H61 C59 1_555 1_555
C60 C59 1_555 1_555
H62 C60 1_555 1_555
C61 N5 1_555 1_555
C62 N6 1_555 1_555
C63 C62 1_555 1_555
H63 C63 1_555 1_555
C64 C63 1_555 1_555
H64 C64 1_555 1_555
C65 C64 1_555 1_555
H65 C65 1_555 1_555
C66 N6 1_555 1_555
H66 C66 1_555 1_555
O23 H67 1_555 1_555
H68 O23 1_555 1_555
U1A O21 1_555 1_555
U2_2 O15 1_555 1_555
U2A O14 1_555 1_555
U3A O22 1_555 1_555
U4_2 O11 1_555 1_555
U4A O18 1_555 1_555
O11_2 U4 1_555 1_555
O14A U2 1_555 1_555
O15_2 U2 1_555 1_555
O16_2 U2 1_555 1_555
O18A U4 1_555 1_555
O21A U1 1_555 1_555
O22A U4 1_555 1_555
O22A_2 U3 1_555 1_555
U2 O9 1_555 1_555
U2 O21 1_555 1_555
O10 C11 1_555 1_555
O12 C12 1_555 1_555
O16 U2_2 1_555 1_555
O20 C36 1_555 1_555
O22 U4A 1_555 1_555
C1 C11 1_555 1_555
C3 C12 1_555 1_555
C5 C6 1_555 1_555
C8 C9 1_555 1_555
C8 C10 1_555 1_555
C13 C23 1_555 1_555
C17 C18 1_555 1_555
C20 C21 1_555 1_555
C20 C22 1_555 1_555
C25 C35 1_555 1_555
C27 C36 1_555 1_555
C29 C30 1_555 1_555
C32 C33 1_555 1_555
C32 C34 1_555 1_555
C40 C41 1_555 1_555
C41 C42 1_555 1_555
C45 C46 1_555 1_555
C50 C51 1_555 1_555
C51 C52 1_555 1_555
C55 C56 1_555 1_555
C60 C61 1_555 1_555
C61 C62 1_555 1_555
C65 C66 1_555 1_555
U1A O21A 1_555 1_555
U2A O21A 1_555 1_555
U3A O22A_2 1_555 1_555
U4_2 O22A_2 1_555 1_555

#END
