
#######################################################################
#
#                 Cambridge Crystallographic Data Centre
#                                CCDC 
#
#######################################################################
#
# If this CIF has been generated from an entry in the Cambridge 
# Structural Database, then it will include bibliographic, chemical, 
# crystal, experimental, refinement or atomic coordinate data resulting 
# from the CCDC's data processing and validation procedures.
#
#######################################################################

data_ZOZDOJ
_symmetry_cell_setting           triclinic
_symmetry_space_group_name_H-M   'P -1'
_symmetry_Int_Tables_number      2
_space_group_name_Hall           '-P 1'
loop_
_symmetry_equiv_pos_site_id
_symmetry_equiv_pos_as_xyz
1 x,y,z
2 -x,-y,-z
_cell_length_a                   13.7842(7)
_cell_length_b                   14.0430(5)
_cell_length_c                   16.2606(7)
_cell_angle_alpha                89.053(3)
_cell_angle_beta                 82.825(2)
_cell_angle_gamma                80.931(3)
_cell_volume                     3083.89
loop_
_atom_site_label
_atom_site_type_symbol
_atom_site_fract_x
_atom_site_fract_y
_atom_site_fract_z
U1 U 0.29079(2) 0.59324(2) 0.782806(19)
U2 U 0.26367(2) 0.98691(2) 0.31710(2)
Cu1 Cu 0.06732(8) 0.75773(8) 0.84836(7)
Cu2 Cu 0.55471(9) 0.50586(8) 0.72823(6)
O1 O 0.2017(5) 0.6328(5) 0.8704(4)
O2 O 0.3881(5) 0.5649(5) 0.6992(4)
O3 O 0.2160(5) 1.0792(5) 0.3894(4)
O4 O 0.3125(6) 0.8964(5) 0.2447(4)
O5 O 0.1785(5) 0.6289(5) 0.6849(4)
O6 O 0.0456(5) 0.7325(5) 0.7363(4)
O7 O 0.1207(6) 0.9055(6) 0.3507(5)
O8 O 0.2389(5) 0.8721(5) 0.4297(4)
O9 O 0.2860(5) 0.7566(4) 0.7454(5)
O10 O 0.1540(5) 0.8500(4) 0.8124(4)
O11 O 0.5830(5) 1.0464(5) 0.6193(4)
O12 O 0.5884(5) 0.9349(5) 0.7167(5)
O13 O 0.3638(6) 0.4615(6) 0.8570(4)
O14 O 0.5193(5) 0.4071(5) 0.8063(4)
O15 O 0.5968(6) 0.3489(6) 1.1442(5)
O16 O 0.4392(5) 0.4027(5) 1.1856(4)
O17 O 0.1678(6) 0.4761(5) 0.7989(4)
O18 O 0.2765(7) 0.4154(8) 0.7027(5)
O19 O 0.1512(8) 0.3420(6) 0.7431(7)
O20 O 0.2492(5) 1.1089(6) 0.2017(5)
O21 O 0.1205(5) 1.0383(5) 0.2333(4)
O22 O 0.1236(6) 1.1394(6) 0.1310(5)
N1 N 0.1978(7) 0.4088(7) 0.7461(6)
N2 N 0.1644(7) 1.0968(6) 0.1860(5)
N3 N 0.0550(6) 0.8023(6) 0.9665(5)
N4 N -0.0191(6) 0.6672(6) 0.8986(5)
N5 N 0.6056(5) 0.5918(5) 0.6397(5)
N6 N 0.5724(6) 0.4133(5) 0.6333(4)
C1 C 0.0650(6) 0.6971(6) 0.5917(5)
C2 C 0.1241(6) 0.7731(6) 0.5466(5)
H1 H 0.1086 0.8347 0.5778
H2 H 0.1960 0.7499 0.5443
C3 C 0.0958(6) 0.7893(6) 0.4577(5)
C4 C -0.0159(7) 0.8268(7) 0.4633(6)
H3 H -0.0318 0.8886 0.4941
H4 H -0.0353 0.8382 0.4069
C5 C -0.0732(7) 0.7516(6) 0.5081(6)
H5 H -0.1458 0.7760 0.5115
C6 C -0.0451(7) 0.7360(7) 0.5959(6)
H6 H -0.0603 0.7978 0.6269
H7 H -0.0841 0.6896 0.6256
C7 C 0.0904(7) 0.6018(6) 0.5431(6)
H8 H 0.0540 0.5527 0.5716
H9 H 0.1622 0.5776 0.5402
C8 C 0.0613(7) 0.6186(7) 0.4549(6)
H10 H 0.0768 0.5564 0.4234
C9 C 0.1201(7) 0.6920(7) 0.4110(6)
H11 H 0.1037 0.7013 0.3536
H12 H 0.1918 0.6676 0.4084
C10 C -0.0502(7) 0.6565(7) 0.4599(6)
H13 H -0.0694 0.6667 0.4034
H14 H -0.0883 0.6086 0.4882
C11 C 0.0978(6) 0.6852(6) 0.6781(6)
C12 C 0.1557(7) 0.8594(7) 0.4109(6)
C13 C 0.2770(6) 0.9287(6) 0.7346(5)
C14 C 0.3906(6) 0.9113(6) 0.7181(6)
H15 H 0.4132 0.8564 0.6794
H16 H 0.4187 0.8952 0.7707
C15 C 0.4273(7) 1.0024(6) 0.6805(5)
C16 C 0.3850(7) 1.0273(7) 0.5993(5)
H17 H 0.4076 0.9735 0.5593
H18 H 0.4092 1.0857 0.5751
C17 C 0.2712(7) 1.0454(7) 0.6148(6)
H19 H 0.2439 1.0616 0.5613
C18 C 0.2349(7) 0.9538(7) 0.6511(6)
H20 H 0.2572 0.8996 0.6116
H21 H 0.1617 0.9643 0.6604
C19 C 0.2412(7) 1.0125(6) 0.7951(6)
H22 H 0.2676 0.9972 0.8485
H23 H 0.1680 1.0230 0.8056
C20 C 0.2770(7) 1.1041(7) 0.7582(6)
H24 H 0.2533 1.1590 0.7978
C21 C 0.3891(7) 1.0888(7) 0.7431(6)
H25 H 0.4165 1.0744 0.7962
H26 H 0.4119 1.1483 0.7200
C22 C 0.2359(7) 1.1284(6) 0.6756(6)
H27 H 0.1626 1.1401 0.6850
H28 H 0.2585 1.1879 0.6524
C23 C 0.2366(7) 0.8374(6) 0.7672(6)
C24 C 0.5373(7) 0.9930(7) 0.6711(6)
C25 C 0.4456(6) 0.3234(6) 0.9200(5)
C26 C 0.4727(6) 0.3716(5) 0.9971(5)
H29 H 0.5375 0.3939 0.9838
H30 H 0.4221 0.4282 1.0142
C27 C 0.4779(7) 0.2974(6) 1.0684(5)
C28 C 0.3769(8) 0.2654(8) 1.0892(6)
H31 H 0.3262 0.3220 1.1062
H32 H 0.3789 0.2195 1.1361
C29 C 0.3494(9) 0.2172(8) 1.0136(6)
H33 H 0.2835 0.1957 1.0280
C30 C 0.3435(8) 0.2897(8) 0.9423(6)
H34 H 0.2923 0.3460 0.9590
H35 H 0.3249 0.2594 0.8933
C31 C 0.5239(8) 0.2358(6) 0.8942(5)
H36 H 0.5896 0.2562 0.8810
H37 H 0.5077 0.2057 0.8440
C32 C 0.5265(9) 0.1623(7) 0.9658(6)
H38 H 0.5774 0.1050 0.9484
C33 C 0.5571(8) 0.2100(6) 1.0412(6)
H39 H 0.5629 0.1632 1.0872
H40 H 0.6222 0.2312 1.0262
C34 C 0.4282(11) 0.1291(8) 0.9883(7)
H41 H 0.4321 0.0828 1.0348
H42 H 0.4102 0.0962 0.9403
C35 C 0.4422(7) 0.4024(6) 0.8551(5)
C36 C 0.5064(7) 0.3520(7) 1.1388(5)
C37 C 0.0922(11) 0.8775(10) 0.9921(8)
H43 H 0.1275 0.9136 0.9522
C38 C 0.0815(15) 0.9044(15) 1.0735(10)
H44 H 0.1118 0.9556 1.0910
C39 C 0.0253(14) 0.8546(14) 1.1290(10)
H45 H 0.0139 0.8741 1.1855
C40 C -0.0160(11) 0.7761(14) 1.1053(8)
H46 H -0.0534 0.7406 1.1440
C41 C 0.0018(8) 0.7528(10) 1.0193(7)
C42 C -0.0381(7) 0.6739(8) 0.9833(7)
C43 C -0.0911(9) 0.6113(11) 1.0276(9)
H47 H -0.1034 0.6159 1.0863
C44 C -0.1264(9) 0.5418(10) 0.9863(10)
H48 H -0.1634 0.4981 1.0165
C45 C -0.1082(9) 0.5357(9) 0.9019(10)
H49 H -0.1321 0.4882 0.8726
C46 C -0.0535(8) 0.6010(8) 0.8598(7)
H50 H -0.0407 0.5974 0.8010
C47 C 0.6199(8) 0.6832(7) 0.6501(7)
H51 H 0.6052 0.7118 0.7037
C48 C 0.6560(8) 0.7364(8) 0.5832(8)
H52 H 0.6662 0.8009 0.5903
C49 C 0.6766(8) 0.6916(9) 0.5054(7)
H53 H 0.7022 0.7260 0.4591
C50 C 0.6608(7) 0.6011(8) 0.4950(6)
H54 H 0.6737 0.5719 0.4417
C51 C 0.6249(6) 0.5507(7) 0.5640(5)
C52 C 0.6051(6) 0.4513(6) 0.5597(5)
C53 C 0.6183(7) 0.3967(8) 0.4879(6)
H55 H 0.6425 0.4228 0.4366
C54 C 0.5966(7) 0.3049(8) 0.4913(7)
H56 H 0.6036 0.2677 0.4420
C55 C 0.5646(8) 0.2669(7) 0.5663(7)
H57 H 0.5509 0.2026 0.5699
C56 C 0.5528(8) 0.3230(7) 0.6354(6)
H58 H 0.5296 0.2970 0.6871
U1A U 0.70921(2) 0.40676(2) 1.217194(19)
U2A U 0.73633(2) 1.01309(2) 0.68290(2)
Cu2A Cu 0.44529(9) 0.49414(8) 1.27177(6)
O11A O 0.4170(5) 0.9536(5) 0.3807(4)
O12A O 0.4116(5) 1.0651(5) 0.2833(5)
O15A O 0.4032(6) 0.6511(6) 0.8558(5)
O16A O 0.5608(5) 0.5973(5) 0.8144(4)
O23 O 0.7349(13) 0.4356(17) 0.7606(11)
loop_
_geom_bond_atom_site_label_1
_geom_bond_atom_site_label_2
_geom_bond_site_symmetry_1
_geom_bond_site_symmetry_2
U1 O1 1_555 1_555
U2 O3 1_555 1_555
Cu1 O1 1_555 1_555
Cu2 O2 1_555 1_555
O2 U1 1_555 1_555
O4 U2 1_555 1_555
O5 U1 1_555 1_555
O6 Cu1 1_555 1_555
O7 U2 1_555 1_555
O8 U2 1_555 1_555
O9 U1 1_555 1_555
O10 Cu1 1_555 1_555
O11 C24 1_555 1_555
O12 C24 1_555 1_555
O13 U1 1_555 1_555
O14 Cu2 1_555 1_555
O15 C36 1_555 1_555
O16 C36 1_555 1_555
O17 U1 1_555 1_555
O18 U1 1_555 1_555
O19 N1 1_555 1_555
O20 U2 1_555 1_555
O21 U2 1_555 1_555
O22 N2 1_555 1_555
N1 O17 1_555 1_555
N2 O20 1_555 1_555
N3 Cu1 1_555 1_555
N4 Cu1 1_555 1_555
N5 Cu2 1_555 1_555
N6 Cu2 1_555 1_555
C1 C2 1_555 1_555
C2 H1 1_555 1_555
H2 C2 1_555 1_555
C3 C2 1_555 1_555
C4 C3 1_555 1_555
H3 C4 1_555 1_555
H4 C4 1_555 1_555
C5 C4 1_555 1_555
H5 C5 1_555 1_555
C6 C1 1_555 1_555
H6 C6 1_555 1_555
H7 C6 1_555 1_555
C7 C1 1_555 1_555
H8 C7 1_555 1_555
H9 C7 1_555 1_555
C8 C7 1_555 1_555
H10 C8 1_555 1_555
C9 C3 1_555 1_555
H11 C9 1_555 1_555
H12 C9 1_555 1_555
C10 C5 1_555 1_555
H13 C10 1_555 1_555
H14 C10 1_555 1_555
C11 O5 1_555 1_555
C12 O7 1_555 1_555
C13 C14 1_555 1_555
C14 H15 1_555 1_555
H16 C14 1_555 1_555
C15 C14 1_555 1_555
C16 C15 1_555 1_555
H17 C16 1_555 1_555
H18 C16 1_555 1_555
C17 C16 1_555 1_555
H19 C17 1_555 1_555
C18 C13 1_555 1_555
H20 C18 1_555 1_555
H21 C18 1_555 1_555
C19 C13 1_555 1_555
H22 C19 1_555 1_555
H23 C19 1_555 1_555
C20 C19 1_555 1_555
H24 C20 1_555 1_555
C21 C15 1_555 1_555
H25 C21 1_555 1_555
H26 C21 1_555 1_555
C22 C17 1_555 1_555
H27 C22 1_555 1_555
H28 C22 1_555 1_555
C23 O9 1_555 1_555
C24 C15 1_555 1_555
C25 C26 1_555 1_555
C26 H29 1_555 1_555
H30 C26 1_555 1_555
C27 C26 1_555 1_555
C28 C27 1_555 1_555
H31 C28 1_555 1_555
H32 C28 1_555 1_555
C29 C28 1_555 1_555
H33 C29 1_555 1_555
C30 C25 1_555 1_555
H34 C30 1_555 1_555
H35 C30 1_555 1_555
C31 C25 1_555 1_555
H36 C31 1_555 1_555
H37 C31 1_555 1_555
C32 C31 1_555 1_555
H38 C32 1_555 1_555
C33 C27 1_555 1_555
H39 C33 1_555 1_555
H40 C33 1_555 1_555
C34 C29 1_555 1_555
H41 C34 1_555 1_555
H42 C34 1_555 1_555
C35 O13 1_555 1_555
C36 C27 1_555 1_555
C37 N3 1_555 1_555
H43 C37 1_555 1_555
C38 C37 1_555 1_555
H44 C38 1_555 1_555
C39 C38 1_555 1_555
H45 C39 1_555 1_555
C40 C39 1_555 1_555
H46 C40 1_555 1_555
C41 N3 1_555 1_555
C42 N4 1_555 1_555
C43 C42 1_555 1_555
H47 C43 1_555 1_555
C44 C43 1_555 1_555
H48 C44 1_555 1_555
C45 C44 1_555 1_555
H49 C45 1_555 1_555
C46 N4 1_555 1_555
H50 C46 1_555 1_555
C47 N5 1_555 1_555
H51 C47 1_555 1_555
C48 C47 1_555 1_555
H52 C48 1_555 1_555
C49 C48 1_555 1_555
H53 C49 1_555 1_555
C50 C49 1_555 1_555
H54 C50 1_555 1_555
C51 N5 1_555 1_555
C52 N6 1_555 1_555
C53 C52 1_555 1_555
H55 C53 1_555 1_555
C54 C53 1_555 1_555
H56 C54 1_555 1_555
C55 C54 1_555 1_555
H57 C55 1_555 1_555
C56 N6 1_555 1_555
H58 C56 1_555 1_555
U1A O15 1_555 1_555
U2A O11 1_555 1_555
Cu2A O16 1_555 1_555
O11A U2 1_555 1_555
O12A U2 1_555 1_555
O15A U1 1_555 1_555
O16A Cu2 1_555 1_555
O6 C11 1_555 1_555
O8 C12 1_555 1_555
O10 C23 1_555 1_555
O12 U2A 1_555 1_555
O14 C35 1_555 1_555
O18 N1 1_555 1_555
O21 N2 1_555 1_555
C1 C11 1_555 1_555
C3 C12 1_555 1_555
C5 C6 1_555 1_555
C8 C9 1_555 1_555
C8 C10 1_555 1_555
C13 C23 1_555 1_555
C17 C18 1_555 1_555
C20 C21 1_555 1_555
C20 C22 1_555 1_555
C25 C35 1_555 1_555
C29 C30 1_555 1_555
C32 C33 1_555 1_555
C32 C34 1_555 1_555
C40 C41 1_555 1_555
C41 C42 1_555 1_555
C45 C46 1_555 1_555
C50 C51 1_555 1_555
C51 C52 1_555 1_555
C55 C56 1_555 1_555

#END
