
#######################################################################
#
#                 Cambridge Crystallographic Data Centre
#                                CCDC 
#
#######################################################################
#
# If this CIF has been generated from an entry in the Cambridge 
# Structural Database, then it will include bibliographic, chemical, 
# crystal, experimental, refinement or atomic coordinate data resulting 
# from the CCDC's data processing and validation procedures.
#
#######################################################################

data_ZOZDAT
_symmetry_cell_setting           monoclinic
_symmetry_space_group_name_H-M   'P 2/n'
_symmetry_Int_Tables_number      13
_space_group_name_Hall           '-P 2yac'
loop_
_symmetry_equiv_pos_site_id
_symmetry_equiv_pos_as_xyz
1 x,y,z
2 1/2-x,y,1/2-z
3 -x,-y,-z
4 1/2+x,-y,1/2+z
_cell_length_a                   15.298(4)
_cell_length_b                   6.097(1)
_cell_length_c                   22.037(4)
_cell_angle_alpha                90
_cell_angle_beta                 106.72(2)
_cell_angle_gamma                90
_cell_volume                     1968.53
loop_
_atom_site_label
_atom_site_type_symbol
_atom_site_fract_x
_atom_site_fract_y
_atom_site_fract_z
Cd1 Cd 0.7500 -0.25836(7) 0.2500
Cd2 Cd 0.2500 0.72955(9) 0.2500
O1 O 0.6876(2) 0.0268(5) 0.29629(15)
O2 O 0.6140(2) -0.2842(5) 0.2912(2)
O3 O 0.3819(2) 0.6938(5) 0.2206(2)
O4 O 0.2963(2) 0.4053(6) 0.1961(2)
N1 N 0.5902(2) 0.0761(6) 0.40066(14)
N2 N 0.4242(2) 0.3473(6) 0.1108(2)
C1 C 0.6231(3) -0.0863(7) 0.3039(2)
C2 C 0.5509(3) 0.0276(6) 0.3292(2)
H1 H 0.5007(3) -0.0720(6) 0.3241(2)
C3 C 0.5142(3) 0.2345(7) 0.2913(2)
H2 H 0.5631(3) 0.3383(7) 0.2967(2)
H3 H 0.4673(3) 0.3003(7) 0.3063(2)
C4 C 0.4753(3) 0.1802(7) 0.2209(2)
H4 H 0.4227(3) 0.0877(7) 0.2149(2)
H5 H 0.5204(3) 0.1017(7) 0.2069(2)
C5 C 0.4475(3) 0.3905(7) 0.1823(2)
H6 H 0.4990(3) 0.4877(7) 0.1934(2)
C6 C 0.3679(3) 0.5052(7) 0.1999(2)
C7 C 0.6214(3) -0.1338(8) 0.4354(2)
H7 H 0.6465(3) -0.1044(8) 0.4798(2)
H8 H 0.5709(3) -0.2330(8) 0.4291(2)
H9 H 0.6675(3) -0.1988(8) 0.4193(2)
C8 C 0.6689(3) 0.2352(8) 0.4154(2)
H10 H 0.6905(3) 0.2601(8) 0.4602(2)
H11 H 0.7171(3) 0.1729(8) 0.4010(2)
H12 H 0.6500(3) 0.3719(8) 0.3940(2)
C9 C 0.5154(3) 0.1676(8) 0.4254(2)
H13 H 0.5388(3) 0.2006(8) 0.4697(2)
H14 H 0.4907(3) 0.2985(8) 0.4026(2)
H15 H 0.4682(3) 0.0589(8) 0.4192(2)
C10 C 0.3946(3) 0.5592(8) 0.0754(2)
H16 H 0.4418(3) 0.6668(8) 0.0900(2)
H17 H 0.3844(3) 0.5353(8) 0.0308(2)
H18 H 0.3394(3) 0.6107(8) 0.0829(2)
C11 C 0.3487(3) 0.1808(9) 0.0871(2)
H19 H 0.3661(3) 0.0445(9) 0.1091(2)
H20 H 0.2936(3) 0.2337(9) 0.0946(2)
H21 H 0.3386(3) 0.1584(9) 0.0425(2)
C12 C 0.5088(3) 0.2670(8) 0.0955(2)
H22 H 0.5284(3) 0.1317(8) 0.1174(2)
H23 H 0.4960(3) 0.2439(8) 0.0507(2)
H24 H 0.5561(3) 0.3749(8) 0.1091(2)
N3 N 0.8568(3) -0.2548(8) 0.3947(2)
O5 O 0.8771(2) -0.2153(6) 0.34460(14)
O6 O 0.9013(4) -0.1694(11) 0.4433(2)
O7 O 0.7965(3) -0.3818(8) 0.3959(2)
O11 O 0.7500 -0.6182(8) 0.2500
H25 H 0.7525 -0.7006(8) 0.2213
O12 O 0.1950(2) 1.0227(6) 0.18469(15)
H26 H 0.1828(2) 0.9662(6) 0.14856(15)
H27 H 0.2231(2) 1.1576(6) 0.18436(15)
O1A O 0.8124(2) 0.0268(5) 0.20371(15)
O2A O 0.8860(2) -0.2842(5) 0.2088(2)
O5A O 0.6229(2) -0.2153(6) 0.15540(14)
O3A O 0.1181(2) 0.6938(5) 0.2794(2)
O4A O 0.2037(2) 0.4053(6) 0.3039(2)
O12A O 0.3050(2) 1.0227(6) 0.31531(15)
H25A H 0.7475 -0.7006(8) 0.2787
C1A C 0.8769(3) -0.0863(7) 0.1961(2)
N3A N 0.6432(3) -0.2548(8) 0.1053(2)
H26A H 0.3172(2) 0.9662(6) 0.35144(15)
H27A H 0.2769(2) 1.1576(6) 0.31564(15)
C2A C 0.9491(3) 0.0276(6) 0.1708(2)
O6A O 0.5987(4) -0.1694(11) 0.0567(2)
O7A O 0.7035(3) -0.3818(8) 0.1041(2)
N1A N 0.9098(2) 0.0761(6) 0.09934(14)
H1A H 0.9993(3) -0.0720(6) 0.1759(2)
C3A C 0.9858(3) 0.2345(7) 0.2087(2)
C7A C 0.8786(3) -0.1338(8) 0.0646(2)
C8A C 0.8311(3) 0.2352(8) 0.0846(2)
C9A C 0.9846(3) 0.1676(8) 0.0746(2)
H2A H 0.9369(3) 0.3383(7) 0.2033(2)
H3A H 1.0327(3) 0.3003(7) 0.1937(2)
C4A C 1.0247(3) 0.1802(7) 0.2791(2)
H7A H 0.8535(3) -0.1044(8) 0.0202(2)
H8A H 0.9291(3) -0.2330(8) 0.0709(2)
H9A H 0.8325(3) -0.1988(8) 0.0807(2)
H10A H 0.8095(3) 0.2601(8) 0.0398(2)
H11A H 0.7829(3) 0.1729(8) 0.0990(2)
H12A H 0.8500(3) 0.3719(8) 0.1060(2)
H13A H 0.9612(3) 0.2006(8) 0.0303(2)
H14A H 1.0093(3) 0.2985(8) 0.0974(2)
H15A H 1.0318(3) 0.0589(8) 0.0808(2)
H4A H 1.0773(3) 0.0877(7) 0.2851(2)
H5A H 0.9796(3) 0.1017(7) 0.2931(2)
C5A C 1.0525(3) 0.3905(7) 0.3177(2)
N2A N 1.0758(2) 0.3473(6) 0.3892(2)
H6A H 1.0010(3) 0.4877(7) 0.3066(2)
C6A C 1.1321(3) 0.5052(7) 0.3001(2)
C10A C 1.1054(3) 0.5592(8) 0.4246(2)
C11A C 1.1513(3) 0.1808(9) 0.4129(2)
C12A C 0.9912(3) 0.2670(8) 0.4045(2)
O3A_2 O 1.1181(2) 0.6938(5) 0.2794(2)
O4A_2 O 1.2037(2) 0.4053(6) 0.3039(2)
H16A H 1.0582(3) 0.6668(8) 0.4100(2)
H17A H 1.1156(3) 0.5353(8) 0.4692(2)
H18A H 1.1606(3) 0.6107(8) 0.4171(2)
H19A H 1.1339(3) 0.0445(9) 0.3909(2)
H20A H 1.2064(3) 0.2337(9) 0.4054(2)
H21A H 1.1614(3) 0.1584(9) 0.4575(2)
H22A H 0.9716(3) 0.1317(8) 0.3826(2)
H23A H 1.0040(3) 0.2439(8) 0.4493(2)
H24A H 0.9439(3) 0.3749(8) 0.3909(2)
Cd2_2 Cd 1.2500 0.72955(9) 0.2500
N4 N 0.1433(3) 0.6210(7) 0.0841(2)
O8 O 0.1844(3) 0.7949(6) 0.0754(2)
O9 O 0.1088(3) 0.6177(6) 0.1292(2)
O10 O 0.1397(3) 0.4626(6) 0.0491(2)
loop_
_geom_bond_atom_site_label_1
_geom_bond_atom_site_label_2
_geom_bond_site_symmetry_1
_geom_bond_site_symmetry_2
Cd1 O1 1_555 1_555
Cd2 O3 1_555 1_555
O1 C1 1_555 1_555
O2 Cd1 1_555 1_555
O3 C6 1_555 1_555
O4 Cd2 1_555 1_555
N1 C2 1_555 1_555
N2 C5 1_555 1_555
C1 O2 1_555 1_555
C2 C1 1_555 1_555
H1 C2 1_555 1_555
C3 C2 1_555 1_555
H2 C3 1_555 1_555
H3 C3 1_555 1_555
C4 C3 1_555 1_555
H4 C4 1_555 1_555
H5 C4 1_555 1_555
C5 C4 1_555 1_555
H6 C5 1_555 1_555
C6 O4 1_555 1_555
C7 N1 1_555 1_555
H7 C7 1_555 1_555
H8 C7 1_555 1_555
H9 C7 1_555 1_555
C8 N1 1_555 1_555
H10 C8 1_555 1_555
H11 C8 1_555 1_555
H12 C8 1_555 1_555
C9 N1 1_555 1_555
H13 C9 1_555 1_555
H14 C9 1_555 1_555
H15 C9 1_555 1_555
C10 N2 1_555 1_555
H16 C10 1_555 1_555
H17 C10 1_555 1_555
H18 C10 1_555 1_555
C11 N2 1_555 1_555
H19 C11 1_555 1_555
H20 C11 1_555 1_555
H21 C11 1_555 1_555
C12 N2 1_555 1_555
H22 C12 1_555 1_555
H23 C12 1_555 1_555
H24 C12 1_555 1_555
N3 O5 1_555 1_555
O5 Cd1 1_555 1_555
O6 N3 1_555 1_555
O7 N3 1_555 1_555
N4 O8 1_555 1_555
O9 N4 1_555 1_555
O10 N4 1_555 1_555
O11 Cd1 1_555 1_555
H25 O11 1_555 1_555
O12 Cd2 1_555 1_555
H26 O12 1_555 1_555
H27 O12 1_555 1_555
O1A Cd1 1_555 1_555
O2A Cd1 1_555 1_555
O5A Cd1 1_555 1_555
O3A Cd2 1_555 1_555
O4A Cd2 1_555 1_555
O12A Cd2 1_555 1_555
H25A O11 1_555 1_555
C1A O1A 1_555 1_555
N3A O5A 1_555 1_555
H26A O12A 1_555 1_555
H27A O12A 1_555 1_555
C2A C1A 1_555 1_555
O6A N3A 1_555 1_555
O7A N3A 1_555 1_555
N1A C2A 1_555 1_555
H1A C2A 1_555 1_555
C3A C2A 1_555 1_555
C7A N1A 1_555 1_555
C8A N1A 1_555 1_555
C9A N1A 1_555 1_555
H2A C3A 1_555 1_555
H3A C3A 1_555 1_555
C4A C3A 1_555 1_555
H7A C7A 1_555 1_555
H8A C7A 1_555 1_555
H9A C7A 1_555 1_555
H10A C8A 1_555 1_555
H11A C8A 1_555 1_555
H12A C8A 1_555 1_555
H13A C9A 1_555 1_555
H14A C9A 1_555 1_555
H15A C9A 1_555 1_555
H4A C4A 1_555 1_555
H5A C4A 1_555 1_555
C5A C4A 1_555 1_555
N2A C5A 1_555 1_555
H6A C5A 1_555 1_555
C6A C5A 1_555 1_555
C10A N2A 1_555 1_555
C11A N2A 1_555 1_555
C12A N2A 1_555 1_555
O3A_2 C6A 1_555 1_555
O4A_2 C6A 1_555 1_555
H16A C10A 1_555 1_555
H17A C10A 1_555 1_555
H18A C10A 1_555 1_555
H19A C11A 1_555 1_555
H20A C11A 1_555 1_555
H21A C11A 1_555 1_555
H22A C12A 1_555 1_555
H23A C12A 1_555 1_555
H24A C12A 1_555 1_555
Cd2_2 O3A_2 1_555 1_555
C5 C6 1_555 1_555
O2A C1A 1_555 1_555
O4A_2 Cd2_2 1_555 1_555

#END
