
#######################################################################
#
#                 Cambridge Crystallographic Data Centre
#                                CCDC 
#
#######################################################################
#
# If this CIF has been generated from an entry in the Cambridge 
# Structural Database, then it will include bibliographic, chemical, 
# crystal, experimental, refinement or atomic coordinate data resulting 
# from the CCDC's data processing and validation procedures.
#
#######################################################################

data_ZOZDAV
_symmetry_cell_setting           monoclinic
_symmetry_space_group_name_H-M   'P 21/c'
_symmetry_Int_Tables_number      14
_space_group_name_Hall           '-P 2ybc'
loop_
_symmetry_equiv_pos_site_id
_symmetry_equiv_pos_as_xyz
1 x,y,z
2 -x,1/2+y,1/2-z
3 -x,-y,-z
4 x,1/2-y,1/2+z
_cell_length_a                   16.4567(9)
_cell_length_b                   13.7860(5)
_cell_length_c                   19.9056(11)
_cell_angle_alpha                90
_cell_angle_beta                 109.587(3)
_cell_angle_gamma                90
_cell_volume                     4254.7
loop_
_atom_site_label
_atom_site_type_symbol
_atom_site_fract_x
_atom_site_fract_y
_atom_site_fract_z
U1 U 0.218307(11) 0.308739(13) 0.767435(9)
Ni1 Ni 0.67612(4) 0.35454(4) 0.62025(3)
O1 O 0.2658(2) 0.1932(2) 0.78933(16)
O2 O 0.1716(2) 0.4251(2) 0.74636(16)
O3 O 0.2072(2) 0.2935(3) 0.63982(16)
O4 O 0.1001(2) 0.2357(2) 0.66942(15)
O5 O 0.0947(2) 0.2422(2) 0.30228(16)
O6 O 0.2025(2) 0.1804(2) 0.38810(15)
O7 O 0.3510(2) 0.3777(2) 0.85653(16)
O8 O 0.3461(2) 0.3632(3) 0.74605(16)
O9 O 0.6264(2) 0.4607(2) 0.67294(16)
O10 O 0.6561(2) 0.3123(2) 0.71379(16)
N1 N 0.5518(2) 0.3253(3) 0.5543(2)
N2 N 0.6766(2) 0.4179(3) 0.5257(2)
N3 N 0.7444(3) 0.2316(3) 0.61715(19)
N4 N 0.7989(2) 0.4010(3) 0.67490(19)
C1 C 0.0776(3) 0.2457(3) 0.5436(2)
C2 C 0.1334(3) 0.2362(3) 0.4950(2)
H1 H 0.1717 0.2933 0.5015
H2 H 0.1699 0.1775 0.5082
C3 C 0.0748(3) 0.2293(3) 0.4168(2)
C4 C 0.0155(3) 0.1400(4) 0.4071(3)
H3 H -0.0216 0.1343 0.3566
H4 H 0.0508 0.0804 0.4205
C5 C -0.0408(4) 0.1513(4) 0.4545(3)
H5 H -0.0796 0.0937 0.4479
C6 C 0.0176(3) 0.1568(4) 0.5327(2)
H6 H 0.0525 0.0969 0.5458
H7 H -0.0182 0.1623 0.5638
C7 C 0.0208(3) 0.3377(4) 0.5225(2)
H8 H -0.0152 0.3441 0.5534
H9 H 0.0580 0.3959 0.5294
C8 C -0.0373(3) 0.3308(4) 0.4443(2)
H10 H -0.0734 0.3907 0.4309
C9 C 0.0186(3) 0.3209(4) 0.3962(2)
H11 H -0.0190 0.3166 0.3457
H12 H 0.0559 0.3788 0.4017
C10 C -0.0954(3) 0.2428(5) 0.4346(3)
H13 H -0.1339 0.2387 0.3843
H14 H -0.1317 0.2491 0.4652
C11 C 0.1325(3) 0.2572(3) 0.6214(2)
C12 C 0.1271(3) 0.2169(3) 0.3669(2)
C13 C 0.4819(3) 0.4138(4) 0.8309(2)
C14 C 0.5145(3) 0.3908(3) 0.7686(2)
H15 H 0.5104 0.3202 0.7592
H16 H 0.4777 0.4243 0.7250
C15 C 0.6084(3) 0.4239(4) 0.7863(2)
C16 C 0.6642(3) 0.3704(4) 0.8530(3)
H17 H 0.7253 0.3901 0.8647
H18 H 0.6604 0.2995 0.8443
C17 C 0.6328(3) 0.3950(5) 0.9153(3)
H19 H 0.6699 0.3607 0.9592
C18 C 0.5389(3) 0.3615(4) 0.8979(2)
H20 H 0.5350 0.2905 0.8901
H21 H 0.5188 0.3765 0.9384
C19 C 0.4878(3) 0.5245(4) 0.8439(3)
H22 H 0.4512 0.5587 0.8007
H23 H 0.4666 0.5407 0.8836
C20 C 0.5824(4) 0.5573(4) 0.8626(3)
H24 H 0.5865 0.6287 0.8717
C21 C 0.6138(3) 0.5339(4) 0.7994(3)
H25 H 0.5775 0.5682 0.7561
H26 H 0.6741 0.5561 0.8105
C22 C 0.6380(4) 0.5039(5) 0.9291(3)
H27 H 0.6176 0.5188 0.9694
H28 H 0.6986 0.5257 0.9419
C23 C 0.3883(3) 0.3842(3) 0.8108(2)
C24 C 0.6326(3) 0.3981(4) 0.7210(3)
C25 C 0.4908(3) 0.2821(4) 0.5739(3)
H29 H 0.5069 0.2524 0.6196
C26 C 0.4049(3) 0.2787(4) 0.5308(3)
H30 H 0.3632 0.2468 0.5463
C27 C 0.3816(3) 0.3225(3) 0.4651(3)
H31 H 0.3233 0.3212 0.4343
C28 C 0.4435(3) 0.3681(3) 0.4444(2)
H32 H 0.4282 0.3984 0.3990
C29 C 0.5285(3) 0.3702(3) 0.4898(2)
C30 C 0.5999(3) 0.4175(3) 0.4731(2)
C31 C 0.5890(4) 0.4604(4) 0.4070(3)
H33 H 0.5340 0.4613 0.3708
C32 C 0.6598(4) 0.5016(4) 0.3950(3)
H34 H 0.6540 0.5304 0.3503
C33 C 0.7380(3) 0.5002(4) 0.4482(3)
H35 H 0.7873 0.5273 0.4408
C34 C 0.7445(3) 0.4587(4) 0.5135(3)
H36 H 0.7988 0.4592 0.5507
C35 C 0.7118(4) 0.1428(4) 0.5984(3)
H37 H 0.6510 0.1359 0.5777
C36 C 0.7629(4) 0.0600(4) 0.6079(2)
H38 H 0.7379 -0.0022 0.5946
C37 C 0.8508(4) 0.0715(4) 0.6372(3)
H39 H 0.8875 0.0166 0.6437
C38 C 0.8861(3) 0.1620(4) 0.6572(2)
H40 H 0.9468 0.1701 0.6772
C39 C 0.8314(3) 0.2410(3) 0.6477(2)
C40 C 0.8614(3) 0.3404(3) 0.6722(2)
C41 C 0.9465(3) 0.3695(4) 0.6910(2)
H41 H 0.9896 0.3261 0.6873
C42 C 0.9672(3) 0.4627(4) 0.7153(3)
H42 H 1.0251 0.4846 0.7277
C43 C 0.9040(3) 0.5249(4) 0.7215(3)
H43 H 0.9177 0.5885 0.7401
C44 C 0.8200(3) 0.4905(3) 0.6996(3)
H44 H 0.7755 0.5327 0.7024
U1C U 0.218307(11) 0.191261(13) 0.267435(9)
O5C O 0.0947(2) 0.2578(2) 0.80228(16)
O6C O 0.2025(2) 0.3196(2) 0.88810(15)
O11 O 0.7453(8) 0.1339(7) 0.7884(4)
H45 H 0.7707 0.0810 0.7795
H46 H 0.6997 0.1513 0.7629
loop_
_geom_bond_atom_site_label_1
_geom_bond_atom_site_label_2
_geom_bond_site_symmetry_1
_geom_bond_site_symmetry_2
U1 O1 1_555 1_555
Ni1 O9 1_555 1_555
O2 U1 1_555 1_555
O3 U1 1_555 1_555
O4 U1 1_555 1_555
O5 C12 1_555 1_555
O6 C12 1_555 1_555
O7 U1 1_555 1_555
O8 U1 1_555 1_555
O9 C24 1_555 1_555
O10 Ni1 1_555 1_555
N1 Ni1 1_555 1_555
N2 Ni1 1_555 1_555
N3 Ni1 1_555 1_555
N4 Ni1 1_555 1_555
C1 C2 1_555 1_555
C2 H1 1_555 1_555
H2 C2 1_555 1_555
C3 C2 1_555 1_555
C4 C3 1_555 1_555
H3 C4 1_555 1_555
H4 C4 1_555 1_555
C5 C4 1_555 1_555
H5 C5 1_555 1_555
C6 C1 1_555 1_555
H6 C6 1_555 1_555
H7 C6 1_555 1_555
C7 C1 1_555 1_555
H8 C7 1_555 1_555
H9 C7 1_555 1_555
C8 C7 1_555 1_555
H10 C8 1_555 1_555
C9 C3 1_555 1_555
H11 C9 1_555 1_555
H12 C9 1_555 1_555
C10 C5 1_555 1_555
H13 C10 1_555 1_555
H14 C10 1_555 1_555
C11 O3 1_555 1_555
C12 C3 1_555 1_555
C13 C14 1_555 1_555
C14 H15 1_555 1_555
H16 C14 1_555 1_555
C15 C14 1_555 1_555
C16 C15 1_555 1_555
H17 C16 1_555 1_555
H18 C16 1_555 1_555
C17 C16 1_555 1_555
H19 C17 1_555 1_555
C18 C13 1_555 1_555
H20 C18 1_555 1_555
H21 C18 1_555 1_555
C19 C13 1_555 1_555
H22 C19 1_555 1_555
H23 C19 1_555 1_555
C20 C19 1_555 1_555
H24 C20 1_555 1_555
C21 C15 1_555 1_555
H25 C21 1_555 1_555
H26 C21 1_555 1_555
C22 C17 1_555 1_555
H27 C22 1_555 1_555
H28 C22 1_555 1_555
C23 O7 1_555 1_555
C24 O10 1_555 1_555
C25 N1 1_555 1_555
H29 C25 1_555 1_555
C26 C25 1_555 1_555
H30 C26 1_555 1_555
C27 C26 1_555 1_555
H31 C27 1_555 1_555
C28 C27 1_555 1_555
H32 C28 1_555 1_555
C29 N1 1_555 1_555
C30 N2 1_555 1_555
C31 C30 1_555 1_555
H33 C31 1_555 1_555
C32 C31 1_555 1_555
H34 C32 1_555 1_555
C33 C32 1_555 1_555
H35 C33 1_555 1_555
C34 N2 1_555 1_555
H36 C34 1_555 1_555
C35 N3 1_555 1_555
H37 C35 1_555 1_555
C36 C35 1_555 1_555
H38 C36 1_555 1_555
C37 C36 1_555 1_555
H39 C37 1_555 1_555
C38 C37 1_555 1_555
H40 C38 1_555 1_555
C39 N3 1_555 1_555
C40 N4 1_555 1_555
C41 C40 1_555 1_555
H41 C41 1_555 1_555
C42 C41 1_555 1_555
H42 C42 1_555 1_555
C43 C42 1_555 1_555
H43 C43 1_555 1_555
C44 N4 1_555 1_555
H44 C44 1_555 1_555
O11 H45 1_555 1_555
H46 O11 1_555 1_555
U1C O5 1_555 1_555
O5C U1 1_555 1_555
O6C U1 1_555 1_555
O4 C11 1_555 1_555
O6 U1C 1_555 1_555
O8 C23 1_555 1_555
C1 C11 1_555 1_555
C5 C6 1_555 1_555
C8 C9 1_555 1_555
C8 C10 1_555 1_555
C13 C23 1_555 1_555
C15 C24 1_555 1_555
C17 C18 1_555 1_555
C20 C21 1_555 1_555
C20 C22 1_555 1_555
C28 C29 1_555 1_555
C29 C30 1_555 1_555
C33 C34 1_555 1_555
C38 C39 1_555 1_555
C39 C40 1_555 1_555
C43 C44 1_555 1_555

#END
