
#######################################################################
#
#                 Cambridge Crystallographic Data Centre
#                                CCDC 
#
#######################################################################
#
# If this CIF has been generated from an entry in the Cambridge 
# Structural Database, then it will include bibliographic, chemical, 
# crystal, experimental, refinement or atomic coordinate data resulting 
# from the CCDC's data processing and validation procedures.
#
#######################################################################

data_ZOZFUR
_symmetry_cell_setting           triclinic
_symmetry_space_group_name_H-M   'P -1'
_symmetry_Int_Tables_number      2
_space_group_name_Hall           '-P 1'
loop_
_symmetry_equiv_pos_site_id
_symmetry_equiv_pos_as_xyz
1 x,y,z
2 -x,-y,-z
_cell_length_a                   10.228(6)
_cell_length_b                   12.302(5)
_cell_length_c                   12.516(6)
_cell_angle_alpha                72.360(17)
_cell_angle_beta                 75.740(14)
_cell_angle_gamma                83.322(17)
_cell_volume                     1453.05
loop_
_atom_site_label
_atom_site_type_symbol
_atom_site_fract_x
_atom_site_fract_y
_atom_site_fract_z
Nd1 Nd 0.01755(2) 0.841241(17) 0.128280(16)
Nd2 Nd -0.58274(2) 1.100724(17) 0.115921(16)
S1 S -0.05293(10) 0.87228(8) -0.15581(8)
S2 S -0.27841(9) 0.97279(8) 0.10866(8)
S3 S -0.36026(10) 1.20622(8) -0.17005(8)
O1 O 0.1781(4) 0.7268(3) 0.0008(3)
H1 H 0.1616 0.7477 -0.0660
O2 O 0.0615(3) 0.8143(3) -0.2117(3)
O3 O -0.0306(4) 0.9958(3) -0.1876(3)
O4 O -0.1791(3) 0.8601(3) -0.1884(3)
O5 O -0.0744(3) 0.8225(3) -0.0281(2)
O6 O -0.1527(3) 1.0274(3) 0.0358(3)
O7 O -0.2353(3) 0.8654(3) 0.1852(2)
O8 O -0.3610(3) 1.0470(3) 0.1741(3)
O9 O -0.3627(3) 0.9518(3) 0.0377(3)
O10 O -0.4061(3) 1.1958(3) -0.0445(3)
O11 O -0.3722(4) 1.0957(3) -0.1894(3)
O12 O -0.2173(3) 1.2341(3) -0.2044(3)
O13 O -0.4427(4) 1.2942(3) -0.2334(3)
N1 N -0.0651(4) 0.6333(3) 0.2209(4)
N2 N -0.0489(4) 0.7647(4) 0.3566(3)
N3 N -0.6357(4) 1.0611(3) 0.3395(3)
N4 N -0.5343(4) 1.2615(3) 0.1952(3)
C1 C -0.0684(6) 0.5679(5) 0.1551(5)
H2 H -0.0368 0.5967 0.0761
C2 C -0.1167(7) 0.4576(5) 0.1984(7)
H3 H -0.1173 0.4142 0.1492
C3 C -0.1626(7) 0.4157(5) 0.3131(7)
H4 H -0.1942 0.3422 0.3435
C4 C -0.1629(6) 0.4814(5) 0.3866(6)
C5 C -0.1116(5) 0.5929(4) 0.3352(5)
C6 C -0.1001(5) 0.6597(5) 0.4074(4)
C7 C -0.1404(5) 0.6160(6) 0.5278(5)
C8 C -0.1967(6) 0.5029(6) 0.5762(6)
H5 H -0.2247 0.4735 0.6555
C9 C -0.2084(6) 0.4416(6) 0.5082(7)
H6 H -0.2473 0.3710 0.5409
C10 C -0.1212(6) 0.6824(7) 0.5964(5)
H7 H -0.1472 0.6563 0.6761
C11 C -0.0646(6) 0.7844(7) 0.5448(5)
H8 H -0.0484 0.8282 0.5887
C12 C -0.0301(6) 0.8240(5) 0.4233(4)
H9 H 0.0074 0.8950 0.3889
C13 C -0.6967(5) 0.9684(4) 0.4103(4)
H10 H -0.7201 0.9163 0.3783
C14 C -0.7281(5) 0.9440(5) 0.5306(4)
H11 H -0.7745 0.8794 0.5767
C15 C -0.6892(5) 1.0173(5) 0.5784(4)
H12 H -0.7054 1.0015 0.6579
C16 C -0.6238(5) 1.1177(4) 0.5062(4)
C17 C -0.6015(4) 1.1370(4) 0.3864(4)
C18 C -0.5458(4) 1.2421(4) 0.3099(4)
C19 C -0.5150(5) 1.3239(4) 0.3568(4)
C20 C -0.5310(5) 1.2995(5) 0.4785(5)
H13 H -0.5054 1.3522 0.5084
C21 C -0.5833(5) 1.2000(5) 0.5505(4)
H14 H -0.5930 1.1851 0.6294
C22 C -0.4699(6) 1.4289(5) 0.2799(5)
H15 H -0.4488 1.4854 0.3074
C23 C -0.4572(7) 1.4477(5) 0.1647(5)
H16 H -0.4286 1.5173 0.1132
C24 C -0.4877(5) 1.3611(4) 0.1250(4)
H17 H -0.4749 1.3735 0.0462
O14 O -0.6717(3) 1.2812(3) -0.0229(3)
H18 H -0.6217 1.2920 -0.0904
H19 H -0.7525 1.2717 -0.0243
H20 H 0.256(6) 0.742(5) 0.004(5)
Nd1A Nd -0.01755(2) 1.158759(17) -0.128280(16)
Nd2A Nd -0.41726(2) 0.899276(17) -0.115921(16)
O3A O 0.0306(4) 1.0042(3) 0.1876(3)
O4A O -0.8209(3) 1.1399(3) 0.1884(3)
O6A O 0.1527(3) 0.9726(3) -0.0358(3)
O9A O -0.6373(3) 1.0482(3) -0.0377(3)
O11A O -0.6278(4) 0.9043(3) 0.1894(3)
O12A O 0.2173(3) 0.7659(3) 0.2044(3)
loop_
_geom_bond_atom_site_label_1
_geom_bond_atom_site_label_2
_geom_bond_site_symmetry_1
_geom_bond_site_symmetry_2
Nd1 O1 1_555 1_555
Nd2 O8 1_555 1_555
S1 O2 1_555 1_555
S2 O6 1_555 1_555
S3 O10 1_555 1_555
O1 H1 1_555 1_555
O3 S1 1_555 1_555
O4 S1 1_555 1_555
O5 Nd1 1_555 1_555
O6 Nd1 1_555 1_555
O7 Nd1 1_555 1_555
O8 S2 1_555 1_555
O9 Nd2 1_555 1_555
O10 Nd2 1_555 1_555
O11 S3 1_555 1_555
O12 S3 1_555 1_555
O13 S3 1_555 1_555
N1 Nd1 1_555 1_555
N2 Nd1 1_555 1_555
N3 Nd2 1_555 1_555
N4 Nd2 1_555 1_555
C1 N1 1_555 1_555
H2 C1 1_555 1_555
C2 C1 1_555 1_555
H3 C2 1_555 1_555
C3 C2 1_555 1_555
H4 C3 1_555 1_555
C4 C3 1_555 1_555
C5 N1 1_555 1_555
C6 N2 1_555 1_555
C7 C6 1_555 1_555
C8 C7 1_555 1_555
H5 C8 1_555 1_555
C9 C4 1_555 1_555
H6 C9 1_555 1_555
C10 C7 1_555 1_555
H7 C10 1_555 1_555
C11 C10 1_555 1_555
H8 C11 1_555 1_555
C12 N2 1_555 1_555
H9 C12 1_555 1_555
C13 N3 1_555 1_555
H10 C13 1_555 1_555
C14 C13 1_555 1_555
H11 C14 1_555 1_555
C15 C14 1_555 1_555
H12 C15 1_555 1_555
C16 C15 1_555 1_555
C17 N3 1_555 1_555
C18 N4 1_555 1_555
C19 C18 1_555 1_555
C20 C19 1_555 1_555
H13 C20 1_555 1_555
C21 C16 1_555 1_555
H14 C21 1_555 1_555
C22 C19 1_555 1_555
H15 C22 1_555 1_555
C23 C22 1_555 1_555
H16 C23 1_555 1_555
C24 N4 1_555 1_555
H17 C24 1_555 1_555
O14 Nd2 1_555 1_555
H18 O14 1_555 1_555
H19 O14 1_555 1_555
H20 O1 1_555 1_555
Nd1A O3 1_555 1_555
Nd2A O4 1_555 1_555
O3A Nd1 1_555 1_555
O4A Nd2 1_555 1_555
O6A Nd1 1_555 1_555
O9A Nd2 1_555 1_555
O11A Nd2 1_555 1_555
O12A Nd1 1_555 1_555
S1 O5 1_555 1_555
S2 O7 1_555 1_555
S2 O9 1_555 1_555
O6 Nd1A 1_555 1_555
O9 Nd2A 1_555 1_555
O11 Nd2A 1_555 1_555
O12 Nd1A 1_555 1_555
C4 C5 1_555 1_555
C5 C6 1_555 1_555
C8 C9 1_555 1_555
C11 C12 1_555 1_555
C16 C17 1_555 1_555
C17 C18 1_555 1_555
C20 C21 1_555 1_555
C23 C24 1_555 1_555
Nd1A O6A 1_555 1_555
Nd2A O9A 1_555 1_555

#END
