
#######################################################################
#
#                 Cambridge Crystallographic Data Centre
#                                CCDC 
#
#######################################################################
#
# If this CIF has been generated from an entry in the Cambridge 
# Structural Database, then it will include bibliographic, chemical, 
# crystal, experimental, refinement or atomic coordinate data resulting 
# from the CCDC's data processing and validation procedures.
#
#######################################################################

data_ZOZGAY
_symmetry_cell_setting           triclinic
_symmetry_space_group_name_H-M   'P -1'
_symmetry_Int_Tables_number      2
_space_group_name_Hall           '-P 1'
loop_
_symmetry_equiv_pos_site_id
_symmetry_equiv_pos_as_xyz
1 x,y,z
2 -x,-y,-z
_cell_length_a                   10.195(9)
_cell_length_b                   12.316(11)
_cell_length_c                   12.552(10)
_cell_angle_alpha                71.92(3)
_cell_angle_beta                 75.75(4)
_cell_angle_gamma                83.60(5)
_cell_volume                     1451.08
loop_
_atom_site_label
_atom_site_type_symbol
_atom_site_fract_x
_atom_site_fract_y
_atom_site_fract_z
Sm1 Sm 0.98190(3) 0.15928(3) 0.37196(3)
Sm2 Sm 1.58313(3) -0.10066(3) 0.38352(3)
S1 S 1.05323(17) 0.12542(14) 0.65559(14)
S2 S 1.27791(15) 0.02792(13) 0.39253(13)
S3 S 1.36122(17) -0.20448(14) 0.66912(14)
O1 O 0.9383(5) 0.1841(5) 0.7126(5)
O2 O 1.1786(5) 0.1381(5) 0.6883(4)
O3 O 1.0290(6) 0.0025(4) 0.6872(4)
O4 O 1.0745(5) 0.1756(4) 0.5275(4)
O5 O 0.8217(5) 0.2719(5) 0.4990(5)
H1 H 0.7259 0.2739 0.4968
H2 H 0.8216 0.2420 0.5813
O6 O 1.1539(5) -0.0293(4) 0.4657(4)
O7 O 1.2321(5) 0.1340(4) 0.3161(4)
O8 O 1.3631(5) -0.0443(4) 0.3267(4)
O9 O 1.3739(6) -0.0937(4) 0.6885(4)
O10 O 1.2162(5) -0.2311(5) 0.7035(4)
O11 O 1.4429(5) -0.2935(5) 0.7321(5)
N1 N 1.0647(7) 0.3653(6) 0.2828(6)
N2 N 1.0480(6) 0.2341(6) 0.1442(5)
N3 N 1.6365(6) -0.0588(5) 0.1615(5)
N4 N 1.5309(6) -0.2602(5) 0.3073(5)
C1 C 1.0655(10) 0.4329(7) 0.3480(9)
H3 H 1.0329 0.4049 0.4271
C2 C 1.1128(12) 0.5425(8) 0.3032(11)
H4 H 1.1113 0.5871 0.3512
C3 C 1.1605(10) 0.5831(8) 0.1903(11)
H5 H 1.1933 0.6565 0.1600
C4 C 1.1625(9) 0.5187(8) 0.1166(9)
C5 C 1.2080(10) 0.5589(9) -0.0063(11)
H6 H 1.2471 0.6298 -0.0391
C6 C 1.1964(9) 0.4982(10) -0.0757(9)
H7 H 1.2244 0.5288 -0.1550
C7 C 1.1403(9) 0.3847(9) -0.0281(8)
C8 C 1.1222(9) 0.3205(10) -0.0954(8)
H8 H 1.1485 0.3478 -0.1751
C9 C 1.0650(9) 0.2160(10) -0.0438(8)
H9 H 1.0498 0.1724 -0.0880
C10 C 1.0300(8) 0.1758(8) 0.0765(7)
H10 H 0.9920 0.1045 0.1107
C11 C 1.1010(8) 0.3401(7) 0.0924(7)
C12 C 1.1125(8) 0.4075(7) 0.1653(8)
C13 C 1.6985(8) 0.0347(7) 0.0877(6)
H11 H 1.7217 0.0883 0.1177
C14 C 1.7305(8) 0.0565(7) -0.0319(7)
H12 H 1.7767 0.1213 -0.0793
C15 C 1.6929(8) -0.0189(8) -0.0780(6)
H13 H 1.7118 -0.0043 -0.1574
C16 C 1.6270(8) -0.1167(7) -0.0073(6)
C17 C 1.5840(8) -0.1991(8) -0.0504(7)
H14 H 1.5935 -0.1845 -0.1292
C18 C 1.5303(9) -0.2972(8) 0.0223(7)
H15 H 1.5033 -0.3495 -0.0072
C19 C 1.5135(8) -0.3231(7) 0.1446(7)
C20 C 1.4688(9) -0.4299(8) 0.2231(8)
H16 H 1.4500 -0.4873 0.1960
C21 C 1.4535(10) -0.4482(7) 0.3392(8)
H17 H 1.4218 -0.5170 0.3916
C22 C 1.4867(9) -0.3611(7) 0.3772(8)
H18 H 1.4771 -0.3746 0.4558
C23 C 1.5448(8) -0.2416(7) 0.1923(7)
C24 C 1.6008(7) -0.1353(6) 0.1144(6)
O12 O 1.4070(5) -0.1933(4) 0.5428(4)
O13 O 1.6715(5) -0.2807(5) 0.5217(5)
H19 H 1.6569 -0.2721 0.5891
H20 H 1.6301 -0.3396 0.5259
O14 O 1.3607(5) 0.0514(4) 0.4640(5)
Sm1A Sm 1.01810(3) -0.15928(3) 0.62804(3)
Sm2A Sm 1.41687(3) 0.10066(3) 0.61648(3)
O2A O 1.8214(5) -0.1381(5) 0.3117(4)
O3A O 0.9710(6) -0.0025(4) 0.3128(4)
O6A O 0.8461(5) 0.0293(4) 0.5343(4)
O9A O 1.6261(6) 0.0937(4) 0.3115(4)
O10A O 0.7838(5) 0.2311(5) 0.2965(4)
O14A O 1.6393(5) -0.0514(4) 0.5360(5)
loop_
_geom_bond_atom_site_label_1
_geom_bond_atom_site_label_2
_geom_bond_site_symmetry_1
_geom_bond_site_symmetry_2
Sm1 O4 1_555 1_555
Sm2 O8 1_555 1_555
S1 O1 1_555 1_555
S2 O6 1_555 1_555
S3 O9 1_555 1_555
O2 S1 1_555 1_555
O3 S1 1_555 1_555
O4 S1 1_555 1_555
O5 Sm1 1_555 1_555
H1 O5 1_555 1_555
H2 O5 1_555 1_555
O6 Sm1 1_555 1_555
O7 Sm1 1_555 1_555
O8 S2 1_555 1_555
O9 Sm2A 1_555 1_555
O10 S3 1_555 1_555
O11 S3 1_555 1_555
N1 Sm1 1_555 1_555
N2 Sm1 1_555 1_555
N3 Sm2 1_555 1_555
N4 Sm2 1_555 1_555
C1 N1 1_555 1_555
H3 C1 1_555 1_555
C2 C1 1_555 1_555
H4 C2 1_555 1_555
C3 C2 1_555 1_555
H5 C3 1_555 1_555
C4 C3 1_555 1_555
C5 C4 1_555 1_555
H6 C5 1_555 1_555
C6 C5 1_555 1_555
H7 C6 1_555 1_555
C7 C6 1_555 1_555
C8 C7 1_555 1_555
H8 C8 1_555 1_555
C9 C8 1_555 1_555
H9 C9 1_555 1_555
C10 N2 1_555 1_555
H10 C10 1_555 1_555
C11 N2 1_555 1_555
C12 N1 1_555 1_555
C13 N3 1_555 1_555
H11 C13 1_555 1_555
C14 C13 1_555 1_555
H12 C14 1_555 1_555
C15 C14 1_555 1_555
H13 C15 1_555 1_555
C16 C15 1_555 1_555
C17 C16 1_555 1_555
H14 C17 1_555 1_555
C18 C17 1_555 1_555
H15 C18 1_555 1_555
C19 C18 1_555 1_555
C20 C19 1_555 1_555
H16 C20 1_555 1_555
C21 C20 1_555 1_555
H17 C21 1_555 1_555
C22 N4 1_555 1_555
H18 C22 1_555 1_555
C23 N4 1_555 1_555
C24 N3 1_555 1_555
O12 Sm2 1_555 1_555
O13 Sm2 1_555 1_555
H19 O13 1_555 1_555
H20 O13 1_555 1_555
O14 Sm2 1_555 1_555
Sm1A O3 1_555 1_555
Sm2A O2 1_555 1_555
O2A Sm2 1_555 1_555
O3A Sm1 1_555 1_555
O6A Sm1 1_555 1_555
O9A Sm2 1_555 1_555
O10A Sm1 1_555 1_555
O14A Sm2 1_555 1_555
S2 O7 1_555 1_555
S2 O14 1_555 1_555
S3 O12 1_555 1_555
O6 Sm1A 1_555 1_555
O10 Sm1A 1_555 1_555
C4 C12 1_555 1_555
C7 C11 1_555 1_555
C9 C10 1_555 1_555
C11 C12 1_555 1_555
C16 C24 1_555 1_555
C19 C23 1_555 1_555
C21 C22 1_555 1_555
C23 C24 1_555 1_555
O14 Sm2A 1_555 1_555
Sm1A O6A 1_555 1_555
Sm2A O14A 1_555 1_555

#END
