
#######################################################################
#
#                 Cambridge Crystallographic Data Centre
#                                CCDC 
#
#######################################################################
#
# If this CIF has been generated from an entry in the Cambridge 
# Structural Database, then it will include bibliographic, chemical, 
# crystal, experimental, refinement or atomic coordinate data resulting 
# from the CCDC's data processing and validation procedures.
#
#######################################################################

data_ZOZHON
_symmetry_cell_setting           orthorhombic
_symmetry_space_group_name_H-M   'F d d d'
_symmetry_Int_Tables_number      70
_space_group_name_Hall           '-F 2uv 2vw'
loop_
_symmetry_equiv_pos_site_id
_symmetry_equiv_pos_as_xyz
1 x,y,z
2 1/4-x,3/4-y,1/2+z
3 x,1/4-y,1/4-z
4 1/4-x,y,1/4-z
5 x,1/2+y,1/2+z
6 1/4-x,1/4-y,z
7 x,3/4-y,3/4-z
8 1/4-x,1/2+y,3/4-z
9 1/2+x,y,1/2+z
10 3/4-x,3/4-y,z
11 1/2+x,1/4-y,3/4-z
12 3/4-x,y,3/4-z
13 1/2+x,1/2+y,z
14 3/4-x,1/4-y,1/2+z
15 1/2+x,3/4-y,1/4-z
16 3/4-x,1/2+y,1/4-z
17 -x,-y,-z
18 3/4+x,1/4+y,1/2-z
19 -x,3/4+y,3/4+z
20 3/4+x,-y,3/4+z
21 -x,1/2-y,1/2-z
22 3/4+x,3/4+y,-z
23 -x,1/4+y,1/4+z
24 3/4+x,1/2-y,1/4+z
25 1/2-x,-y,1/2-z
26 1/4+x,1/4+y,-z
27 1/2-x,3/4+y,1/4+z
28 1/4+x,-y,1/4+z
29 1/2-x,1/2-y,-z
30 1/4+x,3/4+y,1/2-z
31 1/2-x,1/4+y,3/4+z
32 1/4+x,1/2-y,3/4+z
_cell_length_a                   23.316(5)
_cell_length_b                   28.011(6)
_cell_length_c                   36.079(7)
_cell_angle_alpha                90
_cell_angle_beta                 90
_cell_angle_gamma                90
_cell_volume                     23563.4
loop_
_atom_site_label
_atom_site_type_symbol
_atom_site_fract_x
_atom_site_fract_y
_atom_site_fract_z
Pr1 Pr 0.898376(9) 0.1250 0.1250
Co1 Co 0.6250 0.35740(2) 0.1250
O1 O 0.80900(12) 0.16687(9) 0.10009(8)
O2 O 0.83164(14) 0.18695(11) 0.15779(8)
O3 O 0.75033(18) 0.32028(18) 0.29450(10)
O4 O 0.67843(17) 0.36933(12) 0.31201(9)
O5 O 0.83431(18) 0.53170(16) 0.10511(15)
O6 O 0.7657(3) 0.57019(16) 0.13513(13)
N1 N 0.68206(13) 0.30733(10) 0.12180(7)
N2 N 0.64359(12) 0.35555(9) 0.17735(8)
N3 N 0.67980(13) 0.40881(10) 0.12030(8)
C1 C 0.69934(17) 0.28449(12) 0.09088(9)
C2 C 0.73809(17) 0.24715(14) 0.09209(10)
C3 C 0.75981(17) 0.23266(13) 0.12613(9)
C4 C 0.74250(15) 0.25633(11) 0.15810(9)
C5 C 0.70388(14) 0.29379(11) 0.15503(9)
C6 C 0.68400(14) 0.32263(10) 0.18632(9)
C7 C 0.70518(17) 0.31858(13) 0.22204(10)
C8 C 0.68331(16) 0.34848(14) 0.24933(10)
C9 C 0.64074(19) 0.38110(14) 0.24011(12)
C10 C 0.62247(17) 0.38429(14) 0.20401(11)
C11 C 0.80299(16) 0.19254(12) 0.12843(10)
C12 C 0.7063(2) 0.34531(17) 0.28885(11)
C13 C 0.73677(16) 0.40475(14) 0.11608(14)
C14 C 0.77212(18) 0.44451(18) 0.11492(16)
C15 C 0.7484(2) 0.48953(16) 0.11923(13)
C16 C 0.6897(2) 0.49394(14) 0.12322(11)
C17 C 0.65593(17) 0.45297(12) 0.12328(10)
C18 C 0.7858(3) 0.53404(19) 0.12043(15)
H1 H 0.6800 0.2968 0.0703
H2 H 0.7562 0.2339 0.0732
H3 H 0.7359 0.2975 0.2276
H4 H 0.7569 0.2470 0.1817
H5 H 0.6249 0.4019 0.2580
H6 H 0.5942 0.4031 0.1941
H7 H 0.7515 0.3715 0.1178
H8 H 0.8102 0.4382 0.1157
H9 H 0.6692 0.5211 0.1256
O5C O 0.41569(18) 0.53170(16) 0.14489(15)
O6C O 0.4843(3) 0.57019(16) 0.11487(13)
N3C N 0.57020(13) 0.40881(10) 0.12970(8)
C13C C 0.51323(16) 0.40475(14) 0.13392(14)
C14C C 0.47788(18) 0.44451(18) 0.13508(16)
C15C C 0.5016(2) 0.48953(16) 0.13077(13)
C16C C 0.5603(2) 0.49394(14) 0.12678(11)
C17C C 0.59407(17) 0.45297(12) 0.12672(10)
C18C C 0.4642(3) 0.53404(19) 0.12957(15)
H7C H 0.4985 0.3715 0.1322
H8C H 0.4398 0.4382 0.1343
H9C H 0.5808 0.5211 0.1244
O1B O 0.80900(12) 0.08313(9) 0.14991(8)
O2B O 0.83164(14) 0.06305(11) 0.09221(8)
O3B O 0.75033(18) -0.07028(18) -0.04450(10)
O4B O 0.67843(17) -0.11933(12) -0.06201(9)
N1B N 0.68206(13) -0.05733(10) 0.12820(7)
N2B N 0.64359(12) -0.10555(9) 0.07265(8)
C1B C 0.69934(17) -0.03449(12) 0.15912(9)
C2B C 0.73809(17) 0.00285(14) 0.15791(10)
C3B C 0.75981(17) 0.01734(13) 0.12387(9)
C4B C 0.74250(15) -0.00633(11) 0.09190(9)
C5B C 0.70388(14) -0.04379(11) 0.09497(9)
C6B C 0.68400(14) -0.07263(10) 0.06368(9)
C7B C 0.70518(17) -0.06858(13) 0.02796(10)
C8B C 0.68331(16) -0.09848(14) 0.00067(10)
C9B C 0.64074(19) -0.13110(14) 0.00989(12)
C10B C 0.62247(17) -0.13429(14) 0.04599(11)
C11B C 0.80299(16) 0.05746(12) 0.12157(10)
C12B C 0.7063(2) -0.09531(17) -0.03885(11)
H1B H 0.6800 -0.0468 0.1797
H2B H 0.7562 0.0161 0.1768
H3B H 0.7359 -0.0475 0.0224
H4B H 0.7569 0.0030 0.0683
H5B H 0.6249 -0.1519 -0.0080
H6B H 0.5942 -0.1531 0.0559
Pr1S Pr 0.648376(9) -0.1250 -0.1250
Pr1I Pr 0.851624(9) 0.6250 0.1250
Pr1L Pr 0.398376(9) 0.6250 0.1250
Pr1W Pr 0.648376(9) 0.3750 0.3750
Co1B Co 0.6250 -0.10740(2) 0.1250
O4CA O 0.92843(17) 0.11933(12) 0.18799(9)
O4EA O 0.92843(17) 0.13067(12) 0.06201(9)
O5I O 0.91569(18) 0.21830(16) 0.10511(15)
O5O O 0.91569(18) 0.03170(16) 0.14489(15)
O6I O 0.9843(3) 0.17981(16) 0.13513(13)
O6O O 0.9843(3) 0.07019(16) 0.11487(13)
N1C N 0.56794(13) 0.30733(10) 0.12820(7)
N2C N 0.60641(12) 0.35555(9) 0.07265(8)
O7 O 0.7947(3) 0.2174(3) -0.00129(13)
O8 O 0.8704(3) 0.4874(3) 0.0396(2)
O9 O 0.6900(7) 0.4885(5) 0.0214(3)
O10 O 0.5240(8) 0.1184(5) 0.0519(7)
O11 O 0.5393(8) 0.5537(6) 0.0442(4)
O12 O 0.5286(6) 0.1916(6) 0.0004(4)
O13 O 0.3327(5) 0.8435(4) 0.0687(5)
O14 O 0.7674(8) 0.8012(8) 0.0343(4)
O15 O 0.8341(5) 0.9066(5) 0.0868(6)
O16 O 0.8726(4) 0.9872(3) 0.0484(3)
O17 O 0.1547(7) 1.0999(10) 0.0878(6)
loop_
_geom_bond_atom_site_label_1
_geom_bond_atom_site_label_2
_geom_bond_site_symmetry_1
_geom_bond_site_symmetry_2
Pr1 O1 1_555 1_555
Co1 N1 1_555 1_555
O1 C11 1_555 1_555
O2 Pr1 1_555 1_555
O3 C12 1_555 1_555
O4 C12 1_555 1_555
O5 C18 1_555 1_555
O6 C18 1_555 1_555
N1 C1 1_555 1_555
N2 Co1 1_555 1_555
N3 Co1 1_555 1_555
C1 C2 1_555 1_555
C2 C3 1_555 1_555
C3 C4 1_555 1_555
C4 C5 1_555 1_555
C5 N1 1_555 1_555
C6 N2 1_555 1_555
C7 C6 1_555 1_555
C8 C7 1_555 1_555
C9 C8 1_555 1_555
C10 N2 1_555 1_555
C11 O2 1_555 1_555
C12 C8 1_555 1_555
C13 N3 1_555 1_555
C14 C13 1_555 1_555
C15 C14 1_555 1_555
C16 C15 1_555 1_555
C17 N3 1_555 1_555
C18 C15 1_555 1_555
H1 C1 1_555 1_555
H2 C2 1_555 1_555
H3 C7 1_555 1_555
H4 C4 1_555 1_555
H5 C9 1_555 1_555
H6 C10 1_555 1_555
H7 C13 1_555 1_555
H8 C14 1_555 1_555
H9 C16 1_555 1_555
O5C C18C 1_555 1_555
O6C C18C 1_555 1_555
N3C Co1 1_555 1_555
C13C N3C 1_555 1_555
C14C C13C 1_555 1_555
C15C C14C 1_555 1_555
C16C C15C 1_555 1_555
C17C C17 1_555 1_555
C18C C15C 1_555 1_555
H7C C13C 1_555 1_555
H8C C14C 1_555 1_555
H9C C16C 1_555 1_555
O1B Pr1 1_555 1_555
O2B Pr1 1_555 1_555
O3B C12B 1_555 1_555
O4B C12B 1_555 1_555
N1B C1B 1_555 1_555
N2B C6B 1_555 1_555
C1B C2B 1_555 1_555
C2B C3B 1_555 1_555
C3B C4B 1_555 1_555
C4B C5B 1_555 1_555
C5B N1B 1_555 1_555
C6B C5B 1_555 1_555
C7B C6B 1_555 1_555
C8B C7B 1_555 1_555
C9B C8B 1_555 1_555
C10B N2B 1_555 1_555
C11B O1B 1_555 1_555
C12B C8B 1_555 1_555
H1B C1B 1_555 1_555
H2B C2B 1_555 1_555
H3B C7B 1_555 1_555
H4B C4B 1_555 1_555
H5B C9B 1_555 1_555
H6B C10B 1_555 1_555
Pr1S O4B 1_555 1_555
Pr1I O5 1_555 1_555
Pr1L O5C 1_555 1_555
Pr1W O4 1_555 1_555
Co1B N1B 1_555 1_555
O4CA Pr1 1_555 1_555
O4EA Pr1 1_555 1_555
O5I Pr1 1_555 1_555
O5O Pr1 1_555 1_555
O6I Pr1 1_555 1_555
O6O Pr1 1_555 1_555
N1C Co1 1_555 1_555
N2C Co1 1_555 1_555
O6 Pr1I 1_555 1_555
C3 C11 1_555 1_555
C5 C6 1_555 1_555
C9 C10 1_555 1_555
C16 C17 1_555 1_555
O6C Pr1L 1_555 1_555
N3C C17C 1_555 1_555
C16C C17C 1_555 1_555
O2B C11B 1_555 1_555
N2B Co1B 1_555 1_555
C3B C11B 1_555 1_555
C9B C10B 1_555 1_555

#END
