
#######################################################################
#
#                 Cambridge Crystallographic Data Centre
#                                CCDC 
#
#######################################################################
#
# If this CIF has been generated from an entry in the Cambridge 
# Structural Database, then it will include bibliographic, chemical, 
# crystal, experimental, refinement or atomic coordinate data resulting 
# from the CCDC's data processing and validation procedures.
#
#######################################################################

data_ZOZJUV
_symmetry_cell_setting           orthorhombic
_symmetry_space_group_name_H-M   'P b c a'
_symmetry_Int_Tables_number      61
_space_group_name_Hall           '-P 2ac 2ab'
loop_
_symmetry_equiv_pos_site_id
_symmetry_equiv_pos_as_xyz
1 x,y,z
2 1/2-x,-y,1/2+z
3 -x,1/2+y,1/2-z
4 1/2+x,1/2-y,-z
5 -x,-y,-z
6 1/2+x,y,1/2-z
7 x,1/2-y,1/2+z
8 1/2-x,1/2+y,z
_cell_length_a                   9.5315(3)
_cell_length_b                   15.8242(4)
_cell_length_c                   24.3712(6)
_cell_angle_alpha                90
_cell_angle_beta                 90
_cell_angle_gamma                90
_cell_volume                     3675.87
loop_
_atom_site_label
_atom_site_type_symbol
_atom_site_fract_x
_atom_site_fract_y
_atom_site_fract_z
Co1 Co 0.68668(3) 0.63951(2) 0.493970(15)
N1 N 0.5128(2) 0.40272(15) 0.52419(10)
C1 C 0.6092(3) 0.44287(17) 0.53539(11)
S1 S 0.74461(8) 0.50175(5) 0.55127(4)
N2 N 0.8894(2) 0.67246(16) 0.51474(11)
C2 C 0.9957(3) 0.69287(17) 0.53263(12)
S2 S 1.14921(8) 0.72054(5) 0.55763(4)
N3 N 0.7553(2) 0.57843(15) 0.41871(10)
O1 O 0.9638(4) 0.3961(3) 0.27354(14)
C3 C 0.6766(3) 0.5832(2) 0.37343(13)
H1 H 0.5958 0.6161 0.3745
C4 C 0.7083(3) 0.5422(2) 0.32539(13)
H2 H 0.6506 0.5480 0.2948
C5 C 0.8271(3) 0.4923(2) 0.32302(13)
C6 C 0.9086(3) 0.4863(2) 0.36965(14)
H3 H 0.9887 0.4528 0.3697
C7 C 0.8704(3) 0.5302(2) 0.41600(13)
H4 H 0.9273 0.5262 0.4469
C8 C 0.8712(4) 0.4476(3) 0.27107(16)
C9 C 0.8036(5) 0.4702(3) 0.21806(16)
H5 H 0.8377 0.4335 0.1897
H6 H 0.8256 0.5277 0.2089
H7 H 0.7037 0.4639 0.2213
N4 N 0.6060(2) 0.69526(15) 0.56784(10)
O2 O 0.5106(3) 0.8686(2) 0.73389(11)
C10 C 0.5023(3) 0.6589(2) 0.59622(13)
H8 H 0.4651 0.6084 0.5832
C11 C 0.4482(3) 0.6923(2) 0.64354(13)
H9 H 0.3760 0.6646 0.6619
C12 C 0.5013(3) 0.7673(2) 0.66389(12)
C13 C 0.6070(3) 0.8065(2) 0.63377(13)
H10 H 0.6442 0.8577 0.6455
C14 C 0.6562(3) 0.76902(19) 0.58679(13)
H11 H 0.7272 0.7958 0.5672
C15 C 0.4519(4) 0.8060(3) 0.71648(14)
C16 C 0.3304(5) 0.7673(3) 0.74566(19)
H12 H 0.3568 0.7127 0.7594
H13 H 0.2532 0.7613 0.7207
H14 H 0.3031 0.8029 0.7757
Co1C Co 1.18668(3) 0.86049(2) 0.506030(15)
Co1D Co 0.31332(3) 0.36049(2) 0.506030(15)
N1D N 0.4872(2) 0.59728(15) 0.47581(10)
S2C S 0.64921(8) 0.77946(5) 0.44237(4)
loop_
_geom_bond_atom_site_label_1
_geom_bond_atom_site_label_2
_geom_bond_site_symmetry_1
_geom_bond_site_symmetry_2
Co1 S1 1_555 1_555
N1 C1 1_555 1_555
C1 S1 1_555 1_555
N2 Co1 1_555 1_555
C2 N2 1_555 1_555
S2 C2 1_555 1_555
N3 Co1 1_555 1_555
O1 C8 1_555 1_555
C3 N3 1_555 1_555
H1 C3 1_555 1_555
C4 C3 1_555 1_555
H2 C4 1_555 1_555
C5 C4 1_555 1_555
C6 C5 1_555 1_555
H3 C6 1_555 1_555
C7 N3 1_555 1_555
H4 C7 1_555 1_555
C8 C5 1_555 1_555
C9 C8 1_555 1_555
H5 C9 1_555 1_555
H6 C9 1_555 1_555
H7 C9 1_555 1_555
N4 Co1 1_555 1_555
O2 C15 1_555 1_555
C10 N4 1_555 1_555
H8 C10 1_555 1_555
C11 C10 1_555 1_555
H9 C11 1_555 1_555
C12 C11 1_555 1_555
C13 C12 1_555 1_555
H10 C13 1_555 1_555
C14 N4 1_555 1_555
H11 C14 1_555 1_555
C15 C12 1_555 1_555
C16 C15 1_555 1_555
H12 C16 1_555 1_555
H13 C16 1_555 1_555
H14 C16 1_555 1_555
Co1C S2 1_555 1_555
Co1D N1 1_555 1_555
N1D Co1 1_555 1_555
S2C Co1 1_555 1_555
C6 C7 1_555 1_555
C13 C14 1_555 1_555

#END
