
#######################################################################
#
#                 Cambridge Crystallographic Data Centre
#                                CCDC 
#
#######################################################################
#
# If this CIF has been generated from an entry in the Cambridge 
# Structural Database, then it will include bibliographic, chemical, 
# crystal, experimental, refinement or atomic coordinate data resulting 
# from the CCDC's data processing and validation procedures.
#
#######################################################################

data_ZOZJED
_symmetry_cell_setting           monoclinic
_symmetry_space_group_name_H-M   'C 2/c'
_symmetry_Int_Tables_number      15
_space_group_name_Hall           '-C 2yn'
loop_
_symmetry_equiv_pos_site_id
_symmetry_equiv_pos_as_xyz
1 x,y,z
2 -x,y,1/2-z
3 1/2+x,1/2+y,z
4 1/2-x,1/2+y,1/2-z
5 -x,-y,-z
6 x,-y,1/2+z
7 1/2-x,1/2-y,-z
8 1/2+x,1/2-y,1/2+z
_cell_length_a                   9.247(2)
_cell_length_b                   13.434(6)
_cell_length_c                   16.367(3)
_cell_angle_alpha                90
_cell_angle_beta                 105.60(2)
_cell_angle_gamma                90
_cell_volume                     1958.28
loop_
_atom_site_label
_atom_site_type_symbol
_atom_site_fract_x
_atom_site_fract_y
_atom_site_fract_z
Cd1 Cd 0.0000 0.51843(4) 0.2500
Ni1 Ni 0.5000 0.50000 0.5000
N1 N 0.0521(5) 0.3778(4) 0.1765(4)
N2 N 0.2439(5) 0.5193(4) 0.3420(3)
N3 N 0.7006(5) 0.4357(4) 0.3921(3)
N4 N 0.0895(6) 0.6249(4) 0.1669(3)
C1 C 0.3423(5) 0.5130(3) 0.4019(3)
C2 C 0.6271(5) 0.4615(3) 0.4340(3)
C3 C 0.0011(7) 0.6501(4) 0.0802(4)
C4 C 0.0685(7) 0.7324(4) 0.0387(4)
C5 C 0.2166(8) 0.7077(4) 0.0202(4)
C6 C 0.0635(9) 0.2905(5) 0.2302(7)
H1 H 0.154(6) 0.611(4) 0.166(4)
H2 H 0.104(6) 0.682(4) 0.198(3)
H3 H -0.005(5) 0.581(4) 0.052(3)
H4 H -0.083(6) 0.665(4) 0.078(3)
H5 H 0.077(6) 0.786(3) 0.072(3)
H6 H 0.000(6) 0.750(4) -0.011(3)
H7 H 0.282(6) 0.688(4) 0.066(3)
H8 H 0.188(7) 0.657(4) -0.014(4)
H9 H 0.109(7) 0.381(5) 0.167(4)
H10 H -0.055(12) 0.375(7) 0.135(6)
H11 H 0.150(7) 0.301(4) 0.268(4)
H12 H 0.057(9) 0.230(6) 0.194(5)
N1A N -0.0521(5) 0.3778(4) 0.3235(4)
N2A N -0.2439(5) 0.5193(4) 0.1580(3)
N4A N -0.0895(6) 0.6249(4) 0.3331(3)
C1D C 0.6577(5) 0.4870(3) 0.5981(3)
C2D C 0.3729(5) 0.5385(3) 0.5660(3)
C5F C 0.2834(8) 0.7923(4) -0.0202(4)
C6A C -0.0635(9) 0.2905(5) 0.2698(7)
O1 O 0.5000 0.3133(6) 0.2500
H13 H 0.458(8) 0.337(4) 0.217(4)
H13A H 0.542(8) 0.337(4) 0.283(4)
loop_
_geom_bond_atom_site_label_1
_geom_bond_atom_site_label_2
_geom_bond_site_symmetry_1
_geom_bond_site_symmetry_2
Cd1 N1 1_555 1_555
Ni1 C1 1_555 1_555
O1 H13 1_555 1_555
N1 C6 1_555 1_555
N2 Cd1 1_555 1_555
N3 C2 1_555 1_555
N4 Cd1 1_555 1_555
C1 N2 1_555 1_555
C2 Ni1 1_555 1_555
C3 N4 1_555 1_555
C4 C3 1_555 1_555
C5 C4 1_555 1_555
C6 H11 1_555 1_555
H1 N4 1_555 1_555
H2 N4 1_555 1_555
H3 C3 1_555 1_555
H4 C3 1_555 1_555
H5 C4 1_555 1_555
H6 C4 1_555 1_555
H7 C5 1_555 1_555
H8 C5 1_555 1_555
H9 N1 1_555 1_555
H10 N1 1_555 1_555
H12 C6 1_555 1_555
N1A Cd1 1_555 1_555
N2A Cd1 1_555 1_555
N4A Cd1 1_555 1_555
C1D Ni1 1_555 1_555
C2D Ni1 1_555 1_555
H13A O1 1_555 1_555
C5F C5 1_555 1_555
C6A C6 1_555 1_555
N1A C6A 1_555 1_555

#END
