
#######################################################################
#
#                 Cambridge Crystallographic Data Centre
#                                CCDC 
#
#######################################################################
#
# If this CIF has been generated from an entry in the Cambridge 
# Structural Database, then it will include bibliographic, chemical, 
# crystal, experimental, refinement or atomic coordinate data resulting 
# from the CCDC's data processing and validation procedures.
#
#######################################################################

data_ZOZKII
_symmetry_cell_setting           triclinic
_symmetry_space_group_name_H-M   'P -1'
_symmetry_Int_Tables_number      2
_space_group_name_Hall           '-P 1'
loop_
_symmetry_equiv_pos_site_id
_symmetry_equiv_pos_as_xyz
1 x,y,z
2 -x,-y,-z
_cell_length_a                   7.046(1)
_cell_length_b                   7.9939(9)
_cell_length_c                   9.100(3)
_cell_angle_alpha                106.81(2)
_cell_angle_beta                 89.00(3)
_cell_angle_gamma                114.74(1)
_cell_volume                     442.448
loop_
_atom_site_label
_atom_site_type_symbol
_atom_site_fract_x
_atom_site_fract_y
_atom_site_fract_z
Cd1 Cd 0.80074(5) 0.89320(4) 0.13465(3)
Br1 Br 0.76390(7) 0.91792(6) -0.14873(5)
O1 O 0.8057(6) 0.7802(4) 0.3451(5)
O2 O 0.7892(5) 0.5908(4) 0.1114(3)
O3 O 0.4288(5) 0.7439(5) 0.1251(4)
N1 N 0.7822(5) 1.1636(4) 0.2910(4)
C1 C 0.8025(6) 0.3089(5) 0.2368(4)
C2 C 0.7771(6) 0.4703(5) 0.3245(4)
C3 C 0.7311(6) 0.4817(6) 0.4748(5)
C4 C 0.7092(7) 0.3327(6) 0.5306(5)
C5 C 0.7358(7) 0.1760(6) 0.4357(5)
C6 C 0.7929(6) 0.6237(5) 0.2572(5)
H1 H 0.840 0.290 0.135
H2 H 0.725 0.590 0.540
H3 H 0.685 0.325 0.630
H4 H 0.720 0.075 0.475
H5 H 0.375 0.830 0.125
H6 H 0.340 0.620 0.070
Cd1A Cd 1.19926(5) 1.10680(4) -0.13465(3)
Br1A Br 1.23610(7) 1.08208(6) 0.14873(5)
N1_2 N 0.7822(5) 0.1636(4) 0.2910(4)
Cd1_2 Cd 0.80074(5) -0.10680(4) 0.13465(3)
loop_
_geom_bond_atom_site_label_1
_geom_bond_atom_site_label_2
_geom_bond_site_symmetry_1
_geom_bond_site_symmetry_2
Cd1 Br1 1_555 1_555
Br1 Cd1A 1_555 1_555
O1 Cd1 1_555 1_555
O2 Cd1 1_555 1_555
O3 Cd1 1_555 1_555
N1 Cd1 1_555 1_555
C1 C2 1_555 1_555
C2 C3 1_555 1_555
C3 C4 1_555 1_555
C4 C5 1_555 1_555
C5 H4 1_555 1_555
C6 O1 1_555 1_555
H1 C1 1_555 1_555
H2 C3 1_555 1_555
H3 C4 1_555 1_555
H5 O3 1_555 1_555
H6 O3 1_555 1_555
Cd1A Br1A 1_555 1_555
Br1A Cd1 1_555 1_555
N1_2 C1 1_555 1_555
Cd1_2 N1_2 1_555 1_555
O2 C6 1_555 1_555
C2 C6 1_555 1_555
C5 N1_2 1_555 1_555

#END
