
#######################################################################
#
#                 Cambridge Crystallographic Data Centre
#                                CCDC 
#
#######################################################################
#
# If this CIF has been generated from an entry in the Cambridge 
# Structural Database, then it will include bibliographic, chemical, 
# crystal, experimental, refinement or atomic coordinate data resulting 
# from the CCDC's data processing and validation procedures.
#
#######################################################################

data_ZOZKAC
_symmetry_cell_setting           tetragonal
_symmetry_space_group_name_H-M   'P 41'
_symmetry_Int_Tables_number      76
_space_group_name_Hall           'P 4w'
loop_
_symmetry_equiv_pos_site_id
_symmetry_equiv_pos_as_xyz
1 x,y,z
2 -x,-y,1/2+z
3 -y,x,1/4+z
4 y,-x,3/4+z
_cell_length_a                   13.0696(3)
_cell_length_b                   13.0696(3)
_cell_length_c                   11.2867(5)
_cell_angle_alpha                90
_cell_angle_beta                 90
_cell_angle_gamma                90
_cell_volume                     1927.93
loop_
_atom_site_label
_atom_site_type_symbol
_atom_site_fract_x
_atom_site_fract_y
_atom_site_fract_z
Mn1 Mn 0.74303(4) 0.98963(4) 0.10474(4)
Mn2 Mn 0.74994(4) 1.21927(4) -0.04210(5)
O1 O 0.7601(2) 1.0565(2) -0.0807(2)
O2 O 0.8724(3) 1.1354(2) -0.1927(3)
O3 O 1.0875(2) 0.7721(2) -0.4691(2)
O4 O 1.1403(2) 0.9037(2) -0.3616(3)
O5 O 0.6430(3) 0.7592(3) 0.1222(4)
O6 O 0.6228(2) 0.9049(3) 0.0256(3)
O7 O 0.3218(3) 0.7500(3) -0.3839(3)
O8 O 0.3676(2) 0.9052(2) -0.3212(3)
O9 O 0.6014(4) 1.2029(4) -0.1312(7)
C1 C 0.8276(3) 1.0552(3) -0.1613(3)
C2 C 1.0725(3) 0.8411(3) -0.3909(3)
C3 C 0.6026(3) 0.8134(3) 0.0429(4)
C4 C 0.3649(3) 0.8102(3) -0.3126(4)
C5 C 0.8519(3) 0.9546(3) -0.2184(3)
C6 C 0.9446(3) 0.9433(3) -0.2792(3)
H1 H 0.9890 0.9986 -0.2856
C7 C 0.9712(3) 0.8492(3) -0.3304(3)
C8 C 0.9054(4) 0.7680(3) -0.3204(4)
H2 H 0.9226 0.7051 -0.3536
C9 C 0.8122(4) 0.7795(4) -0.2602(5)
H3 H 0.7673 0.7246 -0.2549
C10 C 0.7866(3) 0.8722(3) -0.2087(4)
H4 H 0.7254 0.8788 -0.1675
C11 C 0.5252(3) 0.7608(3) -0.0367(4)
C12 C 0.4825(3) 0.8111(3) -0.1334(4)
H5 H 0.4993 0.8790 -0.1487
C13 C 0.4144(3) 0.7590(3) -0.2075(4)
C14 C 0.3888(4) 0.6582(3) -0.1816(4)
H6 H 0.3428 0.6238 -0.2302
C15 C 0.4299(4) 0.6086(4) -0.0861(5)
H7 H 0.4117 0.5412 -0.0700
C16 C 0.4996(4) 0.6596(4) -0.0128(4)
H8 H 0.5286 0.6260 0.0516
Mn1A Mn 0.25697(4) 1.01037(4) -0.39526(4)
Mn1A_2 Mn 1.25697(4) 1.01037(4) -0.39526(4)
Mn1B Mn 1.01037(4) 0.74303(4) -0.64526(4)
Mn1C Mn 0.98963(4) 1.25697(4) -0.14526(4)
Mn2A Mn 0.25006(4) 0.78073(4) -0.54210(5)
Mn2A_2 Mn 1.25006(4) 0.78073(4) -0.54210(5)
Mn2B Mn 0.78073(4) 0.74994(4) 0.20790(5)
O2B O 0.8646(2) 0.8724(3) 0.0573(3)
O3A O 0.9125(2) 1.2279(2) 0.0309(2)
O3C O 0.7721(2) 0.9125(2) 0.2809(2)
O4A O 0.8597(2) 1.0963(2) 0.1384(3)
O5C O 0.7592(3) 1.3570(3) -0.1278(4)
O7A O 0.6782(3) 1.2500(3) 0.1161(3)
O8A O 0.6324(2) 1.0948(2) 0.1788(3)
O10 O 0.4573(10) 1.0749(9) -0.0419(15)
H9 H 0.5212 1.0847 -0.0340
C17 C 0.3816(15) 1.104(2) 0.041(2)
H10 H 0.4154 1.1394 0.1041
H11 H 0.3351 1.1501 0.0017
H12 H 0.3443 1.0469 0.0717
loop_
_geom_bond_atom_site_label_1
_geom_bond_atom_site_label_2
_geom_bond_site_symmetry_1
_geom_bond_site_symmetry_2
Mn1 O1 1_555 1_555
Mn2 O1 1_555 1_555
O1 C1 1_555 1_555
O2 C1 1_555 1_555
O3 C2 1_555 1_555
O4 C2 1_555 1_555
O5 C3 1_555 1_555
O6 Mn1 1_555 1_555
O7 C4 1_555 1_555
O8 C4 1_555 1_555
O9 Mn2 1_555 1_555
C1 C5 1_555 1_555
C2 C7 1_555 1_555
C3 O6 1_555 1_555
C4 C13 1_555 1_555
C5 C6 1_555 1_555
C6 H1 1_555 1_555
C7 C6 1_555 1_555
C8 C7 1_555 1_555
H2 C8 1_555 1_555
C9 C8 1_555 1_555
H3 C9 1_555 1_555
C10 C5 1_555 1_555
H4 C10 1_555 1_555
C11 C3 1_555 1_555
C12 C11 1_555 1_555
H5 C12 1_555 1_555
C13 C12 1_555 1_555
C14 C13 1_555 1_555
H6 C14 1_555 1_555
C15 C14 1_555 1_555
H7 C15 1_555 1_555
C16 C11 1_555 1_555
H8 C16 1_555 1_555
O10 H9 1_555 1_555
C17 O10 1_555 1_555
H10 C17 1_555 1_555
H11 C17 1_555 1_555
H12 C17 1_555 1_555
Mn1A O8 1_555 1_555
Mn1A_2 O4 1_555 1_555
Mn1B O3 1_555 1_555
Mn1C O2 1_555 1_555
Mn2A O7 1_555 1_555
Mn2A_2 O3 1_555 1_555
Mn2B O5 1_555 1_555
O2B Mn1 1_555 1_555
O3A Mn2 1_555 1_555
O3C Mn1 1_555 1_555
O4A Mn1 1_555 1_555
O5C Mn2 1_555 1_555
O7A Mn2 1_555 1_555
O8A Mn1 1_555 1_555
C9 C10 1_555 1_555
C15 C16 1_555 1_555
Mn1C O3A 1_555 1_555
Mn2B O3C 1_555 1_555

#END
