
#######################################################################
#
#                 Cambridge Crystallographic Data Centre
#                                CCDC 
#
#######################################################################
#
# If this CIF has been generated from an entry in the Cambridge 
# Structural Database, then it will include bibliographic, chemical, 
# crystal, experimental, refinement or atomic coordinate data resulting 
# from the CCDC's data processing and validation procedures.
#
#######################################################################

data_ZOZKOO
_symmetry_cell_setting           monoclinic
_symmetry_space_group_name_H-M   'P 21/n'
_symmetry_Int_Tables_number      14
_space_group_name_Hall           '-P 2yn'
loop_
_symmetry_equiv_pos_site_id
_symmetry_equiv_pos_as_xyz
1 x,y,z
2 1/2-x,1/2+y,1/2-z
3 -x,-y,-z
4 1/2+x,1/2-y,1/2+z
_cell_length_a                   3.614(1)
_cell_length_b                   31.543(2)
_cell_length_c                   6.750(1)
_cell_angle_alpha                90
_cell_angle_beta                 93.05(1)
_cell_angle_gamma                90
_cell_volume                     768.386
loop_
_atom_site_label
_atom_site_type_symbol
_atom_site_fract_x
_atom_site_fract_y
_atom_site_fract_z
Ag1 Ag -0.1814(5) -0.02807(5) 0.1225(2)
O1 O -0.016(4) -0.0764(4) -0.082(2)
O2 O 0.218(3) -0.0309(4) -0.295(2)
O3 O 0.405(4) -0.0546(4) -0.626(2)
O4 O 0.580(5) -0.1936(5) -0.928(2)
O5 O 0.343(5) -0.2382(5) -0.731(3)
N1 N 0.434(5) -0.2032(5) -0.779(3)
C1 C 0.210(5) -0.1040(5) -0.379(3)
C2 C 0.340(5) -0.0946(6) -0.565(3)
C3 C 0.412(5) -0.1270(6) -0.698(3)
C4 C 0.349(5) -0.1682(6) -0.637(3)
C5 C 0.223(6) -0.1784(6) -0.455(3)
C6 C 0.147(5) -0.1457(5) -0.327(3)
C7 C 0.124(5) -0.0682(6) -0.240(3)
H1 H 0.502 -0.121 -0.825
H2 H 0.191 -0.207 -0.418
H3 H 0.048 -0.152 -0.203
H4 H 0.359 -0.031 -0.541
Ag1B Ag 0.1814(5) 0.02807(5) -0.1225(2)
O2B O -0.218(3) 0.0309(4) 0.295(2)
O3_2 O -0.595(4) -0.0546(4) 0.374(2)
Ag1_2 Ag 0.8186(5) -0.02807(5) -0.8775(2)
H4_2 H -0.641 -0.031 0.459
loop_
_geom_bond_atom_site_label_1
_geom_bond_atom_site_label_2
_geom_bond_site_symmetry_1
_geom_bond_site_symmetry_2
Ag1 O1 1_555 1_555
O1 C7 1_555 1_555
O2 C7 1_555 1_555
O3 C2 1_555 1_555
O4 N1 1_555 1_555
O5 N1 1_555 1_555
N1 C4 1_555 1_555
C1 C2 1_555 1_555
C2 C3 1_555 1_555
C3 C4 1_555 1_555
C4 C5 1_555 1_555
C5 C6 1_555 1_555
C6 C1 1_555 1_555
C7 C1 1_555 1_555
H1 C3 1_555 1_555
H2 C5 1_555 1_555
H3 C6 1_555 1_555
H4 O3 1_555 1_555
Ag1B O2 1_555 1_555
O2B Ag1 1_555 1_555
O3_2 Ag1 1_555 1_555
Ag1_2 O3 1_555 1_555
H4_2 O3_2 1_555 1_555

#END
