
#######################################################################
#
#                 Cambridge Crystallographic Data Centre
#                                CCDC 
#
#######################################################################
#
# If this CIF has been generated from an entry in the Cambridge 
# Structural Database, then it will include bibliographic, chemical, 
# crystal, experimental, refinement or atomic coordinate data resulting 
# from the CCDC's data processing and validation procedures.
#
#######################################################################

data_ZOZKEG
_symmetry_cell_setting           monoclinic
_symmetry_space_group_name_H-M   'C c'
_symmetry_Int_Tables_number      9
_space_group_name_Hall           'C -2yc'
loop_
_symmetry_equiv_pos_site_id
_symmetry_equiv_pos_as_xyz
1 x,y,z
2 x,-y,1/2+z
3 1/2+x,1/2+y,z
4 1/2+x,1/2-y,1/2+z
_cell_length_a                   23.604(8)
_cell_length_b                   41.954(12)
_cell_length_c                   11.675(4)
_cell_angle_alpha                90
_cell_angle_beta                 116.908(4)
_cell_angle_gamma                90
_cell_volume                     10309.8
loop_
_atom_site_label
_atom_site_type_symbol
_atom_site_fract_x
_atom_site_fract_y
_atom_site_fract_z
N1 N 0.3325(5) 0.1733(5) 0.0017(11)
H42 H 0.3565 0.1598 0.0650
H43 H 0.3109 0.1609 -0.0675
C71 C 0.3756(6) 0.1883(7) -0.0268(12)
H44 H 0.3998 0.1727 -0.0461
H45 H 0.4036 0.2008 0.0455
H46 H 0.3538 0.2019 -0.0998
C72 C 0.2872(6) 0.1830(6) 0.0360(14)
H47 H 0.2669 0.1647 0.0506
H48 H 0.2561 0.1957 -0.0317
H49 H 0.3066 0.1955 0.1132
Mn1 Mn 0.82281(6) 0.122883(14) 0.51320(10)
Mn2 Mn 0.91077(4) 0.14929(2) 0.83268(7)
Mn3 Mn 0.82158(5) 0.171620(13) 1.01443(9)
Mn4 Mn 0.73149(5) 0.14606(2) 1.18611(8)
S1 S 1.00800(10) 0.27882(5) 0.3754(2)
S2 S 1.07260(8) -0.04053(4) 0.82010(18)
S3 S 0.57270(7) 0.04146(3) 0.71001(17)
S4 S 0.45295(12) 0.14949(5) 0.3683(2)
S5 S 0.70589(11) 0.35254(4) 1.1299(2)
O1 O 0.8843(3) 0.16315(12) 0.5838(5)
O2 O 0.9728(3) 0.16830(13) 0.7589(5)
O3 O 0.8968(3) 0.09082(12) 0.6144(4)
O4 O 0.9397(3) 0.10152(11) 0.8246(5)
O5 O 0.8054(2) 0.12824(10) 0.6801(4)
O6 O 0.83195(19) 0.13349(8) 0.8851(4)
O7 O 0.7231(2) 0.16946(10) 0.9065(5)
O8 O 0.6660(2) 0.14580(11) 0.9923(4)
O9 O 0.8131(2) 0.20395(11) 1.1473(4)
O10 O 0.7361(3) 0.19512(10) 1.2004(5)
O11 O 1.1194(4) 0.2099(3) -0.0035(10)
O12 O 1.2031(5) 0.2131(3) 0.1747(9)
H1 H 1.2191 0.2040 0.1340
O13 O 0.8386(2) -0.12714(12) 0.8433(4)
O14 O 0.8113(2) -0.13180(9) 0.6382(4)
O15 O 0.7021(3) -0.10030(10) 0.7075(4)
O16 O 0.7543(3) -0.08736(11) 0.9169(4)
O17 O 0.3722(3) 0.30364(11) 0.2963(5)
O18 O 0.3263(2) 0.28765(10) 0.4117(5)
O19 O 0.4758(2) 0.34593(14) 0.5255(4)
O20 O 0.4211(2) 0.33111(10) 0.6309(4)
O21 O 0.9489(3) 0.29129(14) 0.2774(6)
O22 O 1.0528(3) 0.29984(14) 0.4753(6)
O23 O 1.1211(2) -0.04259(12) 0.9493(6)
O24 O 1.0886(2) -0.04584(12) 0.7153(5)
O25 O 0.5576(2) 0.04800(11) 0.8133(6)
O26 O 0.5234(2) 0.04326(12) 0.5788(5)
O27 O 0.4072(3) 0.12713(12) 0.3691(7)
O28 O 0.4771(4) 0.14700(18) 0.2730(6)
O29 O 0.7558(3) 0.37083(15) 1.1101(9)
O30 O 0.6871(4) 0.36214(14) 1.2256(5)
O31 O 0.7434(3) 0.15641(13) 0.4072(5)
C1 C 0.9349(4) 0.17564(14) 0.6362(8)
C2 C 1.1446(8) 0.2150(6) 0.1074(18)
C3 C 0.9359(3) 0.22960(17) 0.3869(7)
H2 H 0.9105 0.2332 0.2998
C4 C 0.9198(3) 0.20678(15) 0.4496(6)
H3 H 0.8826 0.1952 0.4044
C5 C 0.9574(3) 0.20014(13) 0.5797(5)
C6 C 1.0134(3) 0.21665(15) 0.6444(6)
H4 H 1.0407 0.2117 0.7295
C7 C 1.0287(3) 0.24049(18) 0.5822(7)
H5 H 1.0656 0.2523 0.6272
C8 C 0.9900(3) 0.24729(16) 0.4533(6)
C9 C 1.0467(4) 0.2336(3) 0.1172(9)
H6 H 1.0233 0.2248 0.0361
C10 C 1.0173(4) 0.2473(3) 0.1818(10)
H7 H 0.9731 0.2478 0.1439
C11 C 1.0513(3) 0.26030(17) 0.3016(7)
C12 C 1.1151(4) 0.2601(3) 0.3645(9)
H8 H 1.1375 0.2686 0.4466
C13 C 1.1457(4) 0.2464(3) 0.2984(9)
H9 H 1.1898 0.2460 0.3375
C14 C 1.1120(4) 0.2332(2) 0.1748(9)
C15 C 0.8501(3) -0.12185(13) 0.7515(5)
C16 C 0.9333(3) 0.08492(15) 0.7321(6)
C17 C 1.0436(4) 0.01612(15) 0.8998(6)
H10 H 1.0701 0.0093 0.9829
C18 C 1.0120(3) 0.04378(17) 0.8804(6)
H11 H 1.0168 0.0560 0.9507
C19 C 0.9715(3) 0.05463(14) 0.7554(6)
C20 C 0.9980(4) 0.00779(16) 0.6740(7)
H12 H 0.9935 -0.0047 0.6044
C21 C 1.0367(3) -0.00177(15) 0.7982(6)
C22 C 0.9671(5) 0.03548(17) 0.6564(7)
H13 H 0.9413 0.0421 0.5727
C23 C 0.9509(3) -0.09352(17) 0.8909(6)
H14 H 0.9460 -0.0998 0.9624
C24 C 1.0025(3) -0.07495(17) 0.9058(7)
H15 H 1.0324 -0.0684 0.9870
C25 C 1.0083(3) -0.06649(14) 0.7993(6)
C26 C 0.9658(3) -0.07546(14) 0.6767(6)
H16 H 0.9713 -0.0694 0.6058
C27 C 0.9150(3) -0.09376(13) 0.6634(5)
H17 H 0.8857 -0.1002 0.5816
C28 C 0.9058(3) -0.10288(13) 0.7664(5)
C29 C 0.4700(3) 0.33999(14) 0.6248(6)
C30 C 0.7955(3) 0.12293(12) 0.7758(5)
C31 C 0.7135(4) -0.08273(13) 0.8039(6)
C32 C 0.6798(3) 0.07518(13) 0.8464(6)
H18 H 0.6747 0.0688 0.9175
C33 C 0.7324(3) 0.09327(13) 0.8646(6)
H19 H 0.7630 0.0986 0.9468
C34 C 0.7385(3) 0.10337(12) 0.7552(5)
C35 C 0.6923(3) 0.09539(14) 0.6348(6)
H20 H 0.6956 0.1027 0.5629
C36 C 0.6412(3) 0.07677(14) 0.6186(6)
H21 H 0.6109 0.0711 0.5366
C37 C 0.6352(3) 0.06659(12) 0.7261(6)
C38 C 0.6334(4) -0.04420(13) 0.6526(7)
H22 H 0.6278 -0.0573 0.5840
C39 C 0.6001(3) -0.01517(15) 0.6307(6)
H23 H 0.5731 -0.0087 0.5474
C40 C 0.6082(3) 0.00393(13) 0.7355(6)
C41 C 0.6473(3) -0.00578(14) 0.8598(6)
H24 H 0.6519 0.0069 0.9289
C42 C 0.6801(3) -0.03482(14) 0.8815(6)
H25 H 0.7053 -0.0418 0.9650
C43 C 0.6745(3) -0.05310(13) 0.7774(5)
C44 C 0.6724(3) 0.15718(15) 0.9000(7)
C45 C 0.3584(3) 0.28297(14) 0.3535(6)
C46 C 0.4448(4) 0.21296(18) 0.3069(7)
H26 H 0.4756 0.2090 0.2796
C47 C 0.4233(4) 0.24251(16) 0.3059(7)
H27 H 0.4404 0.2593 0.2795
C48 C 0.3759(3) 0.24909(13) 0.3430(6)
C49 C 0.3508(3) 0.22461(16) 0.3840(7)
H28 H 0.3199 0.2286 0.4107
C50 C 0.3729(4) 0.19347(16) 0.3845(7)
H29 H 0.3554 0.1764 0.4084
C51 C 0.4200(4) 0.18850(16) 0.3498(7)
C52 C 0.5628(4) 0.14105(19) 0.7485(8)
H30 H 0.5595 0.1330 0.8195
C53 C 0.5102(4) 0.1382(2) 0.6248(9)
H31 H 0.4725 0.1287 0.6136
C54 C 0.5170(4) 0.15005(16) 0.5236(8)
C55 C 0.5753(4) 0.1644(3) 0.5423(9)
H32 H 0.5810 0.1720 0.4734
C56 C 0.6220(4) 0.1667(2) 0.6650(8)
H33 H 0.6595 0.1770 0.6791
C57 C 0.6170(3) 0.15509(15) 0.7650(7)
C58 C 0.7703(3) 0.21253(15) 1.1740(6)
C59 C 0.5813(4) 0.34254(18) 0.9805(7)
H34 H 0.5800 0.3397 1.0583
C60 C 0.5272(4) 0.33868(17) 0.8669(6)
H35 H 0.4893 0.3330 0.8677
C61 C 0.5290(3) 0.34331(12) 0.7503(6)
C62 C 0.5862(4) 0.3524(2) 0.7532(9)
H36 H 0.5883 0.3564 0.6769
C63 C 0.6394(4) 0.3554(2) 0.8680(9)
H37 H 0.6779 0.3610 0.8694
C64 C 0.6365(3) 0.35045(14) 0.9789(7)
C65 C 0.7300(3) 0.31243(15) 1.1546(7)
C66 C 0.7183(3) 0.25937(16) 1.2178(7)
H38 H 0.7010 0.2455 1.2556
C67 C 0.7034(4) 0.29209(17) 1.2076(8)
H39 H 0.6755 0.2998 1.2372
C68 C 0.7732(4) 0.30122(17) 1.1161(8)
H40 H 0.7921 0.3153 1.0822
C69 C 0.7887(4) 0.26997(17) 1.1266(7)
H41 H 0.8196 0.2629 1.1039
C70 C 0.7582(3) 0.24825(14) 1.1718(6)
Mn1A Mn 0.82281(6) -0.122883(14) 1.01320(10)
Mn2C Mn 0.41077(4) 0.35071(2) 0.33268(7)
Mn3A Mn 0.82158(5) -0.171620(13) 0.51443(9)
Mn3C Mn 0.32158(5) 0.328380(13) 0.51443(9)
Mn4A Mn 0.73149(5) -0.14606(2) 0.68611(8)
O13A O 0.8386(2) 0.12714(12) 0.3433(4)
O14A O 0.8113(2) 0.13180(9) 1.1382(4)
O15A O 0.7021(3) 0.10030(10) 1.2075(4)
O16A O 0.7543(3) 0.08736(11) 0.4169(4)
O17C O 0.8722(3) 0.19636(11) 0.7963(5)
O18C O 0.8263(2) 0.21235(10) 0.9117(5)
O19C O 0.9758(2) 0.15407(14) 1.0255(4)
O20C O 0.9211(2) 0.16889(10) 1.1309(4)
loop_
_geom_bond_atom_site_label_1
_geom_bond_atom_site_label_2
_geom_bond_site_symmetry_1
_geom_bond_site_symmetry_2
Mn1 O1 1_555 1_555
Mn2 O2 1_555 1_555
Mn3 O6 1_555 1_555
Mn4 O8 1_555 1_555
S1 O21 1_555 1_555
S2 O23 1_555 1_555
S3 O25 1_555 1_555
S4 O27 1_555 1_555
S5 O29 1_555 1_555
O1 C1 1_555 1_555
O2 C1 1_555 1_555
O3 Mn1 1_555 1_555
O4 Mn2 1_555 1_555
O5 Mn1 1_555 1_555
O6 Mn2 1_555 1_555
O7 Mn3 1_555 1_555
O8 C44 1_555 1_555
O9 Mn3 1_555 1_555
O10 Mn4 1_555 1_555
O11 C2 1_555 1_555
O12 H1 1_555 1_555
O13 C15 1_555 1_555
O14 C15 1_555 1_555
O15 C31 1_555 1_555
O16 C31 1_555 1_555
O17 C45 1_555 1_555
O18 C45 1_555 1_555
O19 C29 1_555 1_555
O20 C29 1_555 1_555
O22 S1 1_555 1_555
O24 S2 1_555 1_555
O26 S3 1_555 1_555
O28 S4 1_555 1_555
O30 S5 1_555 1_555
O31 Mn1 1_555 1_555
C1 C5 1_555 1_555
C2 O12 1_555 1_555
C3 H2 1_555 1_555
C4 C3 1_555 1_555
H3 C4 1_555 1_555
C5 C4 1_555 1_555
C6 C5 1_555 1_555
H4 C6 1_555 1_555
C7 C6 1_555 1_555
H5 C7 1_555 1_555
C8 S1 1_555 1_555
C9 H6 1_555 1_555
C10 C9 1_555 1_555
H7 C10 1_555 1_555
C11 S1 1_555 1_555
C12 C11 1_555 1_555
H8 C12 1_555 1_555
C13 C12 1_555 1_555
H9 C13 1_555 1_555
C14 C2 1_555 1_555
C15 C28 1_555 1_555
C16 O3 1_555 1_555
C17 H10 1_555 1_555
C18 C17 1_555 1_555
H11 C18 1_555 1_555
C19 C16 1_555 1_555
C20 H12 1_555 1_555
C21 S2 1_555 1_555
C22 C19 1_555 1_555
H13 C22 1_555 1_555
C23 H14 1_555 1_555
C24 C23 1_555 1_555
H15 C24 1_555 1_555
C25 S2 1_555 1_555
C26 C25 1_555 1_555
H16 C26 1_555 1_555
C27 C26 1_555 1_555
H17 C27 1_555 1_555
C28 C23 1_555 1_555
C29 C61 1_555 1_555
C30 O5 1_555 1_555
C31 C43 1_555 1_555
C32 H18 1_555 1_555
C33 C32 1_555 1_555
H19 C33 1_555 1_555
C34 C30 1_555 1_555
C35 C34 1_555 1_555
H20 C35 1_555 1_555
C36 C35 1_555 1_555
H21 C36 1_555 1_555
C37 S3 1_555 1_555
C38 H22 1_555 1_555
C39 C38 1_555 1_555
H23 C39 1_555 1_555
C40 S3 1_555 1_555
C41 C40 1_555 1_555
H24 C41 1_555 1_555
C42 C41 1_555 1_555
H25 C42 1_555 1_555
C43 C38 1_555 1_555
C44 O7 1_555 1_555
C45 C48 1_555 1_555
C46 H26 1_555 1_555
C47 C46 1_555 1_555
H27 C47 1_555 1_555
C48 C47 1_555 1_555
C49 C48 1_555 1_555
H28 C49 1_555 1_555
C50 C49 1_555 1_555
H29 C50 1_555 1_555
C51 S4 1_555 1_555
C52 H30 1_555 1_555
C53 C52 1_555 1_555
H31 C53 1_555 1_555
C54 S4 1_555 1_555
C55 C54 1_555 1_555
H32 C55 1_555 1_555
C56 C55 1_555 1_555
H33 C56 1_555 1_555
C57 C44 1_555 1_555
C58 O9 1_555 1_555
C59 H34 1_555 1_555
C60 C59 1_555 1_555
H35 C60 1_555 1_555
C61 C60 1_555 1_555
C62 C61 1_555 1_555
H36 C62 1_555 1_555
C63 C62 1_555 1_555
H37 C63 1_555 1_555
C64 S5 1_555 1_555
C65 S5 1_555 1_555
C66 H38 1_555 1_555
C67 C65 1_555 1_555
H39 C67 1_555 1_555
C68 C65 1_555 1_555
H40 C68 1_555 1_555
C69 C68 1_555 1_555
H41 C69 1_555 1_555
C70 C58 1_555 1_555
N1 H42 1_555 1_555
H43 N1 1_555 1_555
C71 N1 1_555 1_555
H44 C71 1_555 1_555
H45 C71 1_555 1_555
H46 C71 1_555 1_555
C72 N1 1_555 1_555
H47 C72 1_555 1_555
H48 C72 1_555 1_555
H49 C72 1_555 1_555
Mn1A O13 1_555 1_555
Mn2C O17 1_555 1_555
Mn3A O14 1_555 1_555
Mn3C O18 1_555 1_555
Mn4A O14 1_555 1_555
O13A Mn1 1_555 1_555
O14A Mn3 1_555 1_555
O15A Mn4 1_555 1_555
O16A Mn1 1_555 1_555
O17C Mn2 1_555 1_555
O18C Mn3 1_555 1_555
O19C Mn2 1_555 1_555
O20C Mn3 1_555 1_555
Mn2 O5 1_555 1_555
Mn4 O14A 1_555 1_555
O4 C16 1_555 1_555
O6 C30 1_555 1_555
O10 C58 1_555 1_555
O15 Mn4A 1_555 1_555
O16 Mn1A 1_555 1_555
O19 Mn2C 1_555 1_555
O20 Mn3C 1_555 1_555
C3 C8 1_555 1_555
C7 C8 1_555 1_555
C9 C14 1_555 1_555
C10 C11 1_555 1_555
C13 C14 1_555 1_555
C17 C21 1_555 1_555
C18 C19 1_555 1_555
C20 C21 1_555 1_555
C20 C22 1_555 1_555
C24 C25 1_555 1_555
C27 C28 1_555 1_555
C32 C37 1_555 1_555
C33 C34 1_555 1_555
C36 C37 1_555 1_555
C39 C40 1_555 1_555
C42 C43 1_555 1_555
C46 C51 1_555 1_555
C50 C51 1_555 1_555
C52 C57 1_555 1_555
C53 C54 1_555 1_555
C56 C57 1_555 1_555
C59 C64 1_555 1_555
C63 C64 1_555 1_555
C66 C67 1_555 1_555
C66 C70 1_555 1_555
C69 C70 1_555 1_555

#END
