
#######################################################################
#
#                 Cambridge Crystallographic Data Centre
#                                CCDC 
#
#######################################################################
#
# If this CIF has been generated from an entry in the Cambridge 
# Structural Database, then it will include bibliographic, chemical, 
# crystal, experimental, refinement or atomic coordinate data resulting 
# from the CCDC's data processing and validation procedures.
#
#######################################################################

data_ZOZPIP
_symmetry_cell_setting           monoclinic
_symmetry_space_group_name_H-M   'C 2/m'
_symmetry_Int_Tables_number      12
_space_group_name_Hall           '-C 2y'
loop_
_symmetry_equiv_pos_site_id
_symmetry_equiv_pos_as_xyz
1 x,y,z
2 -x,y,-z
3 1/2+x,1/2+y,z
4 1/2-x,1/2+y,-z
5 -x,-y,-z
6 x,-y,z
7 1/2-x,1/2-y,-z
8 1/2+x,1/2-y,z
_cell_length_a                   17.687(2)
_cell_length_b                   7.2468(7)
_cell_length_c                   11.5369(10)
_cell_angle_alpha                90
_cell_angle_beta                 108.467(11)
_cell_angle_gamma                90
_cell_volume                     1402.59
loop_
_atom_site_label
_atom_site_type_symbol
_atom_site_fract_x
_atom_site_fract_y
_atom_site_fract_z
Co1 Co 0.2500 0.2500 0.0000
N1 N 0.1904(4) 0.0000 0.2963(5)
N2 N 0.2230(3) 0.0954(6) 0.1367(3)
C1 C 0.1625(5) 0.0000 0.3994(6)
C2 C 0.1272(5) 0.0000 0.8154(7)
C3 C 0.0610(5) 0.0000 0.6928(6)
H1 H 0.0278 0.1085 0.6861
C4 C 0.2030(3) 0.1474(9) 0.2323(5)
H2 H 0.1981 0.2697 0.2533
C5 C 0.1482(4) 0.1648(9) 0.4475(5)
H3 H 0.1603 0.2757 0.4167
C6 C 0.1154(4) 0.1648(9) 0.5426(5)
H4 H 0.1044 0.2762 0.5738
C7 C 0.0992(5) 0.0000 0.5908(6)
O1 O 0.1526(2) -0.1558(5) 0.8608(3)
Cl1 Cl 0.16784(13) 0.5000 0.03536(16)
N2E N 0.2230(3) -0.0954(6) 0.1367(3)
H1E H 0.0278 -0.1085 0.6861
C4E C 0.2030(3) -0.1474(9) 0.2323(5)
H2E H 0.1981 -0.2697 0.2533
C5E C 0.1482(4) -0.1648(9) 0.4475(5)
H3E H 0.1603 -0.2757 0.4167
C6E C 0.1154(4) -0.1648(9) 0.5426(5)
H4E H 0.1044 -0.2762 0.5738
O1E O 0.1526(2) 0.1558(5) 0.8608(3)
Co1_2 Co 0.2500 0.2500 1.0000
Co1C Co 0.2500 -0.2500 0.0000
Co1C_2 Co 0.2500 -0.2500 1.0000
Co1C_3 Co 0.2500 0.7500 0.0000
N2F N 0.2770(3) 0.4046(6) -0.1367(3)
O1C O 0.3474(2) 0.3442(5) 0.1392(3)
O1E_2 O 0.1526(2) 0.1558(5) -0.1392(3)
Cl1C Cl 0.33216(13) 0.0000 -0.03536(16)
O2 O -0.0758(4) 0.5000 0.2611(5)
O3 O 0.0783(4) 0.5000 0.2409(5)
H5? H 0.0278 0.1085 0.6861
H6? H 0.0430 0.4633 0.2715
H7? H -0.1163 0.5682 0.2314
H8? H -0.0682 0.4762 0.3351
H9? H 0.0939 0.6074 0.2676
O4? O 0.010(3) 0.894(2) 0.015(5)
loop_
_geom_bond_atom_site_label_1
_geom_bond_atom_site_label_2
_geom_bond_site_symmetry_1
_geom_bond_site_symmetry_2
Co1 N2 1_555 1_555
N1 C1 1_555 1_555
N2 C4 1_555 1_555
C1 C5 1_555 1_555
C2 C3 1_555 1_555
C3 H1 1_555 1_555
C4 N1 1_555 1_555
H2 C4 1_555 1_555
C5 H3 1_555 1_555
C6 C5 1_555 1_555
H4 C6 1_555 1_555
C7 C3 1_555 1_555
O1 C2 1_555 1_555
Cl1 Co1 1_555 1_555
N2E N2 1_555 1_555
H1E C3 1_555 1_555
C4E N1 1_555 1_555
H2E C4E 1_555 1_555
C5E C1 1_555 1_555
H3E C5E 1_555 1_555
C6E C7 1_555 1_555
H4E C6E 1_555 1_555
O1E C2 1_555 1_555
Co1_2 O1E 1_555 1_555
Co1C N2E 1_555 1_555
Co1C_2 O1 1_555 1_555
Co1C_3 Cl1 1_555 1_555
N2F Co1 1_555 1_555
O1C Co1 1_555 1_555
O1E_2 Co1 1_555 1_555
Cl1C Co1 1_555 1_555
C6 C7 1_555 1_555
N2E C4E 1_555 1_555
C5E C6E 1_555 1_555
Co1C Cl1C 1_555 1_555

#END
