
#######################################################################
#
#                 Cambridge Crystallographic Data Centre
#                                CCDC 
#
#######################################################################
#
# If this CIF has been generated from an entry in the Cambridge 
# Structural Database, then it will include bibliographic, chemical, 
# crystal, experimental, refinement or atomic coordinate data resulting 
# from the CCDC's data processing and validation procedures.
#
#######################################################################

data_ZOZPOV
_symmetry_cell_setting           monoclinic
_symmetry_space_group_name_H-M   'P 21/c'
_symmetry_Int_Tables_number      14
_space_group_name_Hall           '-P 2ybc'
loop_
_symmetry_equiv_pos_site_id
_symmetry_equiv_pos_as_xyz
1 x,y,z
2 -x,1/2+y,1/2-z
3 -x,-y,-z
4 x,1/2-y,1/2+z
_cell_length_a                   11.4105(9)
_cell_length_b                   6.9570(3)
_cell_length_c                   15.5927(9)
_cell_angle_alpha                90
_cell_angle_beta                 95.977(6)
_cell_angle_gamma                90
_cell_volume                     1231.06
loop_
_atom_site_label
_atom_site_type_symbol
_atom_site_fract_x
_atom_site_fract_y
_atom_site_fract_z
Co1 Co 0.49957(5) 0.23664(7) 0.74732(3)
N1 N 0.3419(3) 0.3888(4) 0.7071(2)
C1 C 0.2356(4) 0.3364(5) 0.6797(2)
H1 H 0.2120 0.2101 0.6684
C2 C -0.1234(4) 0.6544(6) 0.5614(2)
H2 H -0.1553 0.7622 0.5323
N2 N 0.1632(4) 0.4920(4) 0.6697(2)
C3 C -0.1446(4) 0.3367(6) 0.6155(3)
H3 H -0.1903 0.2278 0.6214
C4 C 0.0414(4) 0.4961(5) 0.6378(3)
C5 C -0.0280(4) 0.3368(6) 0.6502(3)
H4 H 0.0035 0.2315 0.6814
C6 C -0.0058(4) 0.6543(6) 0.5933(3)
H5 H 0.0412 0.7604 0.5849
C7 C -0.1950(4) 0.4961(5) 0.5720(2)
C8 C 0.2344(4) 0.6433(5) 0.6927(2)
H6 H 0.2100 0.7709 0.6920
C9 C -0.4008(4) 0.4905(5) 0.6097(3)
C10 C -0.3232(4) 0.4953(5) 0.5364(3)
H7 H -0.3393 0.3837 0.4998
H8 H -0.3406 0.6094 0.5017
N3 N 0.3414(3) 0.5860(4) 0.7157(2)
O1 O 0.4430(2) -0.0167(3) 0.69177(16)
O2 O -0.4285(3) 0.3281(4) 0.63652(16)
O3 O -0.4284(3) 0.6496(4) 0.64048(16)
H9 H 0.405(3) 0.006(8) 0.7330(16)
Co1_2 Co -0.50043(5) 0.23664(7) 0.74732(3)
Co1A Co -0.49957(5) 0.73664(7) 0.75268(3)
Co1A_2 Co 0.50043(5) -0.26336(7) 0.75268(3)
Co1A_3 Co 0.50043(5) 0.73664(7) 0.75268(3)
N3A N 0.6586(3) 0.0860(4) 0.7843(2)
O1A O 0.5570(2) 0.4833(3) 0.80823(16)
O2_2 O 0.5715(3) 0.3281(4) 0.63652(16)
O3A O 0.4284(3) 0.1496(4) 0.85952(16)
O4 O 0.2543(3) -0.0341(5) 0.57329(19)
H10 H 0.3203 -0.0514 0.6028
H11 H 0.2655 -0.0072 0.5216
O5 O -0.3345(4) -0.0156(4) 0.5821(2)
H12 H -0.3695 -0.1176 0.5955
H13 H -0.3767 0.0815 0.5914
loop_
_geom_bond_atom_site_label_1
_geom_bond_atom_site_label_2
_geom_bond_site_symmetry_1
_geom_bond_site_symmetry_2
Co1 N1 1_555 1_555
N1 C1 1_555 1_555
C1 H1 1_555 1_555
C2 H2 1_555 1_555
N2 C1 1_555 1_555
C3 H3 1_555 1_555
C4 N2 1_555 1_555
C5 C3 1_555 1_555
H4 C5 1_555 1_555
C6 C2 1_555 1_555
H5 C6 1_555 1_555
C7 C2 1_555 1_555
C8 N2 1_555 1_555
H6 C8 1_555 1_555
C9 C10 1_555 1_555
C10 C7 1_555 1_555
H7 C10 1_555 1_555
H8 C10 1_555 1_555
N3 N1 1_555 1_555
O1 Co1 1_555 1_555
O2 C9 1_555 1_555
O3 C9 1_555 1_555
H9 O1 1_555 1_555
O4 H10 1_555 1_555
H11 O4 1_555 1_555
O5 H12 1_555 1_555
H13 O5 1_555 1_555
Co1_2 O2 1_555 1_555
Co1A O3 1_555 1_555
Co1A_2 O1 1_555 1_555
Co1A_3 N3 1_555 1_555
N3A Co1 1_555 1_555
O1A Co1 1_555 1_555
O2_2 Co1 1_555 1_555
O3A Co1 1_555 1_555
C3 C7 1_555 1_555
C4 C5 1_555 1_555
C4 C6 1_555 1_555
C8 N3 1_555 1_555
Co1A_3 O1A 1_555 1_555

#END
