
#######################################################################
#
#                 Cambridge Crystallographic Data Centre
#                                CCDC 
#
#######################################################################
#
# If this CIF has been generated from an entry in the Cambridge 
# Structural Database, then it will include bibliographic, chemical, 
# crystal, experimental, refinement or atomic coordinate data resulting 
# from the CCDC's data processing and validation procedures.
#
#######################################################################

data_ZOZPUB
_symmetry_cell_setting           monoclinic
_symmetry_space_group_name_H-M   'P 21/n'
_symmetry_Int_Tables_number      14
_space_group_name_Hall           '-P 2yn'
loop_
_symmetry_equiv_pos_site_id
_symmetry_equiv_pos_as_xyz
1 x,y,z
2 1/2-x,1/2+y,1/2-z
3 -x,-y,-z
4 1/2+x,1/2-y,1/2+z
_cell_length_a                   14.4430(7)
_cell_length_b                   22.1987(13)
_cell_length_c                   17.7628(12)
_cell_angle_alpha                90
_cell_angle_beta                 103.975(6)
_cell_angle_gamma                90
_cell_volume                     5526.47
loop_
_atom_site_label
_atom_site_type_symbol
_atom_site_fract_x
_atom_site_fract_y
_atom_site_fract_z
O12 O 0.3673(4) -0.1231(2) 0.1382(3)
O13 O 0.3485(3) -0.0297(2) 0.1720(3)
C31 C 0.1607(5) -0.0475(3) 0.0716(3)
C32 C 0.3319(4) -0.0699(3) 0.1273(4)
N10 N -0.0975(4) -0.0028(2) 0.1275(3)
C33 C 0.1383(5) 0.0111(3) 0.0863(4)
H32 H 0.1822 0.0414 0.0844
C34 C -0.0104(4) -0.0194(3) 0.1087(3)
C35 C 0.0111(5) -0.0777(3) 0.0952(4)
H33 H -0.0318 -0.1082 0.0987
C36 C -0.1193(5) 0.0467(3) 0.1606(4)
H34 H -0.0753 0.0774 0.1771
C37 C 0.2535(5) -0.0632(3) 0.0536(4)
H35 H 0.2709 -0.0319 0.0215
H36 H 0.2466 -0.1006 0.0246
C38 C -0.1793(5) -0.0348(4) 0.1129(5)
H37 H -0.1883 -0.0723 0.0889
N11 N -0.2434(5) -0.0050(3) 0.1377(4)
C39 C 0.0945(5) -0.0915(3) 0.0766(4)
H38 H 0.1074 -0.1314 0.0669
C40 C 0.0555(5) 0.0261(3) 0.1030(4)
H39 H 0.0418 0.0662 0.1109
N12 N -0.2056(5) 0.0497(3) 0.1685(4)
Co1 Co 0.5000 0.0000 0.5000
Co2 Co 0.54385(4) 0.05967(3) 0.31916(3)
Co3 Co 0.49907(4) 0.13654(3) 0.47250(3)
Co4 Co 0.45128(4) 0.10379(3) 0.64844(3)
O1 O 0.55517(19) 0.05981(13) 0.43399(17)
O2 O 0.43944(18) 0.07577(13) 0.53794(16)
O3 O 1.0801(2) 0.30938(14) 0.91883(19)
O4 O 0.3762(2) 0.18351(14) 0.61115(19)
N1 N 0.5837(2) 0.14556(16) 0.6439(2)
N2 N 0.7278(2) 0.18116(16) 0.6629(2)
O5 O 1.1159(2) 0.35863(15) 0.8198(2)
O6 O 0.4289(2) 0.20934(14) 0.50730(18)
O7 O -0.2623(2) 0.03133(18) 0.5261(2)
O8 O -0.37017(18) 0.00804(13) 0.59084(17)
N3 N 0.7688(2) 0.35393(16) 0.7708(2)
C1 C 0.2372(3) 0.0710(2) 0.6456(3)
H1 H 0.2150 0.1104 0.6369
N4 N 0.1819(2) 0.02264(17) 0.6516(2)
N5 N 0.9096(2) 0.39496(17) 0.8053(2)
C2 C 0.4963(3) 0.30436(19) 0.6371(3)
C3 C 0.8236(3) 0.20136(19) 0.7012(3)
N6 N 0.6060(2) 0.15112(16) 0.5742(2)
C4 C 0.4000(3) 0.2215(2) 0.5661(3)
C5 C 0.6639(3) 0.32535(19) 0.6467(3)
H2 H 0.7152 0.3283 0.6238
N7 N 0.3283(2) -0.00759(16) 0.6651(2)
C6 C 0.5739(3) 0.3099(2) 0.6024(3)
H3 H 0.5648 0.3032 0.5495
C7 C -0.1074(3) 0.0172(2) 0.6578(3)
N8 N 0.8905(2) 0.36680(16) 0.8688(2)
C8 C -0.2861(3) 0.0177(2) 0.5871(3)
C9 C 0.0817(3) 0.0221(2) 0.6517(3)
N9 N 0.3251(2) 0.05464(17) 0.6537(2)
C10 C 0.6761(3) 0.3363(2) 0.7253(3)
C11 C 0.8477(3) 0.2062(2) 0.7802(3)
H4 H 0.8026 0.1993 0.8088
C12 C 0.6018(3) 0.3298(2) 0.7605(3)
H5 H 0.6112 0.3365 0.8135
C13 C 0.2420(3) -0.0255(2) 0.6635(3)
H6 H 0.2242 -0.0651 0.6696
C14 C 1.0081(3) 0.2333(2) 0.7753(3)
C15 C 0.3981(3) 0.2873(2) 0.5895(3)
H7 H 0.3808 0.3125 0.5436
H8 H 0.3512 0.2932 0.6198
C16 C 0.8359(3) 0.3866(2) 0.7469(3)
H9 H 0.8304 0.4008 0.6967
C17 C 0.6582(3) 0.1644(2) 0.6963(3)
H10 H 0.6621 0.1660 0.7493
C18 C 1.1094(3) 0.2514(2) 0.8171(3)
H11 H 1.1368 0.2215 0.8561
H12 H 1.1493 0.2544 0.7806
C19 C 0.8061(3) 0.3427(2) 0.8471(3)
H13 H 0.7759 0.3210 0.8792
C20 C 1.1026(3) 0.3122(2) 0.8552(3)
C21 C 0.9407(3) 0.2217(2) 0.8171(3)
H14 H 0.9581 0.2244 0.8710
C22 C -0.0704(3) -0.0256(2) 0.6166(3)
H15 H -0.1099 -0.0561 0.5911
C23 C 0.0464(3) 0.0648(2) 0.6921(3)
H16 H 0.0854 0.0955 0.7175
C24 C 0.5117(3) 0.3131(2) 0.7156(3)
H17 H 0.4616 0.3078 0.7395
C25 C 0.6920(3) 0.1731(2) 0.5862(3)
H18 H 0.7237 0.1819 0.5477
C26 C -0.0497(3) 0.0617(2) 0.6951(3)
H19 H -0.0741 0.0905 0.7231
C27 C 0.9811(3) 0.2294(3) 0.6965(3)
H20 H 1.0255 0.2371 0.6674
C28 C -0.2109(3) 0.0124(2) 0.6632(3)
H21 H -0.2192 -0.0261 0.6865
H22 H -0.2226 0.0436 0.6980
C29 C 0.0238(3) -0.0241(2) 0.6124(3)
H23 H 0.0480 -0.0530 0.5843
C30 C 0.8873(3) 0.2137(3) 0.6585(3)
H24 H 0.8690 0.2119 0.6046
O9 O 0.46576(19) -0.02477(14) 0.30569(17)
O10 O 0.4667(2) 0.13029(17) 0.7627(2)
H25 H 0.5190 0.1135 0.7945
H26 H 0.4172 0.1191 0.7833
O11 O 0.5250(3) 0.0621(2) 0.1995(2)
H27 H 0.5361 0.0270 0.1624
H28 H 0.5021 0.0988 0.1615
H29 H 0.3800(9) 0.074(2) 0.521(3)
H30 H 0.6140(9) 0.062(3) 0.454(3)
H31 H 0.429(3) -0.026(2) 0.2610(13)
Co2B Co -0.54385(4) -0.05967(3) 0.68084(3)
Co3B Co -0.49907(4) -0.13654(3) 0.52750(3)
Co4B Co -0.45128(4) -0.10379(3) 0.35156(3)
O1B O -0.55517(19) -0.05981(13) 0.56601(17)
O2B O -0.43944(18) -0.07577(13) 0.46206(16)
O3B O -1.0801(2) -0.30938(14) 0.08117(19)
O4B O -0.3762(2) -0.18351(14) 0.38885(19)
N1B N -0.5837(2) -0.14556(16) 0.3561(2)
N2B N -0.7278(2) -0.18116(16) 0.3371(2)
O5B O -1.1159(2) -0.35863(15) 0.1802(2)
O6B O -0.4289(2) -0.20934(14) 0.49270(18)
O7B O 0.2623(2) -0.03133(18) 0.4739(2)
O8B O 0.37017(18) -0.00804(13) 0.40916(17)
N3B N -0.7688(2) -0.35393(16) 0.2292(2)
C1B C -0.2372(3) -0.0710(2) 0.3544(3)
H1B H -0.2150 -0.1104 0.3631
N4B N -0.1819(2) -0.02264(17) 0.3484(2)
N5B N -0.9096(2) -0.39496(17) 0.1947(2)
C2B C -0.4963(3) -0.30436(19) 0.3629(3)
C3B C -0.8236(3) -0.20136(19) 0.2988(3)
N6B N -0.6060(2) -0.15112(16) 0.4258(2)
C4B C -0.4000(3) -0.2215(2) 0.4339(3)
C5B C -0.6639(3) -0.32535(19) 0.3533(3)
H2B H -0.7152 -0.3283 0.3762
N7B N -0.3283(2) 0.00759(16) 0.3349(2)
C6B C -0.5739(3) -0.3099(2) 0.3976(3)
H3B H -0.5648 -0.3032 0.4505
C7B C 0.1074(3) -0.0172(2) 0.3422(3)
N8B N -0.8905(2) -0.36680(16) 0.1312(2)
C8B C 0.2861(3) -0.0177(2) 0.4129(3)
C9B C -0.0817(3) -0.0221(2) 0.3483(3)
N9B N -0.3251(2) -0.05464(17) 0.3463(2)
C10B C -0.6761(3) -0.3363(2) 0.2747(3)
C11B C -0.8477(3) -0.2062(2) 0.2198(3)
H4B H -0.8026 -0.1993 0.1912
C12B C -0.6018(3) -0.3298(2) 0.2395(3)
H5B H -0.6112 -0.3365 0.1865
C13B C -0.2420(3) 0.0255(2) 0.3365(3)
H6B H -0.2242 0.0651 0.3304
C14B C -1.0081(3) -0.2333(2) 0.2247(3)
C15B C -0.3981(3) -0.2873(2) 0.4105(3)
H7B H -0.3808 -0.3125 0.4564
H8B H -0.3512 -0.2932 0.3802
C16B C -0.8359(3) -0.3866(2) 0.2531(3)
H9B H -0.8304 -0.4008 0.3033
C17B C -0.6582(3) -0.1644(2) 0.3037(3)
H10B H -0.6621 -0.1660 0.2507
C18B C -1.1094(3) -0.2514(2) 0.1829(3)
H11B H -1.1368 -0.2215 0.1439
H12B H -1.1493 -0.2544 0.2194
C19B C -0.8061(3) -0.3427(2) 0.1529(3)
H13B H -0.7759 -0.3210 0.1208
C20B C -1.1026(3) -0.3122(2) 0.1448(3)
C21B C -0.9407(3) -0.2217(2) 0.1829(3)
H14B H -0.9581 -0.2244 0.1290
C22B C 0.0704(3) 0.0256(2) 0.3834(3)
H15B H 0.1099 0.0561 0.4089
C23B C -0.0464(3) -0.0648(2) 0.3079(3)
H16B H -0.0854 -0.0955 0.2825
C24B C -0.5117(3) -0.3131(2) 0.2844(3)
H17B H -0.4616 -0.3078 0.2605
C25B C -0.6920(3) -0.1731(2) 0.4138(3)
H18B H -0.7237 -0.1819 0.4523
C26B C 0.0497(3) -0.0617(2) 0.3049(3)
H19B H 0.0741 -0.0905 0.2769
C27B C -0.9811(3) -0.2294(3) 0.3035(3)
H20B H -1.0255 -0.2371 0.3326
C28B C 0.2109(3) -0.0124(2) 0.3368(3)
H21B H 0.2192 0.0261 0.3135
H22B H 0.2226 -0.0436 0.3020
C29B C -0.0238(3) 0.0241(2) 0.3876(3)
H23B H -0.0480 0.0530 0.4157
C30B C -0.8873(3) -0.2137(3) 0.3415(3)
H24B H -0.8690 -0.2119 0.3954
O9B O -0.46576(19) 0.02477(14) 0.69431(17)
O10B O -0.4667(2) -0.13029(17) 0.2373(2)
H25B H -0.5190 -0.1135 0.2055
H26B H -0.4172 -0.1191 0.2167
O11B O -0.5250(3) -0.0621(2) 0.8005(2)
H27B H -0.5361 -0.0270 0.8376
H28B H -0.5021 -0.0988 0.8385
H29B H -0.3800(9) -0.074(2) 0.479(3)
H30B H -0.6140(9) -0.062(3) 0.546(3)
H31B H -0.429(3) 0.026(2) 0.7390(13)
Co1_2 Co -0.5000 0.0000 0.5000
Co2_2 Co -0.45615(4) 0.05967(3) 0.31916(3)
Co2A Co -1.04385(4) -0.44033(3) 0.18084(3)
Co2B_2 Co 0.45615(4) -0.05967(3) 0.68084(3)
Co2C Co 1.04385(4) 0.44033(3) 0.81916(3)
Co3A Co -0.99907(4) -0.36346(3) 0.02750(3)
Co3C Co 0.99907(4) 0.36346(3) 0.97250(3)
Co4_2 Co -0.54872(4) 0.10379(3) 0.64844(3)
Co4B_2 Co 0.54872(4) -0.10379(3) 0.35156(3)
O1B_2 O 0.44483(19) -0.05981(13) 0.56601(17)
O2B_2 O 0.56056(18) -0.07577(13) 0.46206(16)
O3A O -0.5801(2) -0.19062(14) 0.58117(19)
O3C O 0.5801(2) 0.19062(14) 0.41883(19)
O5A O -0.6159(2) -0.14137(15) 0.6802(2)
O5C O 0.6159(2) 0.14137(15) 0.3198(2)
O8_2 O 0.62983(18) 0.00804(13) 0.59084(17)
N5A N -0.4096(2) -0.10504(17) 0.6947(2)
N5C N 0.4096(2) 0.10504(17) 0.3053(2)
N7_2 N -0.6717(2) -0.00759(16) 0.6651(2)
N7B_2 N 0.6717(2) 0.00759(16) 0.3349(2)
N8A N -0.3905(2) -0.13320(16) 0.6312(2)
N8C N 0.3905(2) 0.13320(16) 0.3688(2)
O9_2 O -0.53424(19) -0.02477(14) 0.30569(17)
O9B_2 O 0.53424(19) 0.02477(14) 0.69431(17)
loop_
_geom_bond_atom_site_label_1
_geom_bond_atom_site_label_2
_geom_bond_site_symmetry_1
_geom_bond_site_symmetry_2
Co1 O1 1_555 1_555
Co2 O1 1_555 1_555
Co3 O1 1_555 1_555
Co4 O2 1_555 1_555
O1 H30 1_555 1_555
O2 Co1 1_555 1_555
O3 C20 1_555 1_555
O4 Co4 1_555 1_555
N1 Co4 1_555 1_555
N2 C3 1_555 1_555
O5 C20 1_555 1_555
O6 Co3 1_555 1_555
O7 C8 1_555 1_555
O8 C8 1_555 1_555
N3 C10 1_555 1_555
C1 H1 1_555 1_555
N4 C1 1_555 1_555
N5 N8 1_555 1_555
C2 C6 1_555 1_555
C3 C11 1_555 1_555
N6 Co3 1_555 1_555
C4 O4 1_555 1_555
C5 H2 1_555 1_555
N7 N9 1_555 1_555
C6 C5 1_555 1_555
H3 C6 1_555 1_555
C7 C22 1_555 1_555
N8 C19 1_555 1_555
C8 C28 1_555 1_555
C9 N4 1_555 1_555
N9 Co4 1_555 1_555
C10 C5 1_555 1_555
C11 H4 1_555 1_555
C12 C10 1_555 1_555
H5 C12 1_555 1_555
C13 N4 1_555 1_555
H6 C13 1_555 1_555
C14 C18 1_555 1_555
C15 C2 1_555 1_555
H7 C15 1_555 1_555
H8 C15 1_555 1_555
C16 N3 1_555 1_555
H9 C16 1_555 1_555
C17 N1 1_555 1_555
H10 C17 1_555 1_555
C18 H11 1_555 1_555
H12 C18 1_555 1_555
C19 N3 1_555 1_555
H13 C19 1_555 1_555
C20 C18 1_555 1_555
C21 C11 1_555 1_555
H14 C21 1_555 1_555
C22 H15 1_555 1_555
C23 C9 1_555 1_555
H16 C23 1_555 1_555
C24 C2 1_555 1_555
H17 C24 1_555 1_555
C25 N2 1_555 1_555
H18 C25 1_555 1_555
C26 C7 1_555 1_555
H19 C26 1_555 1_555
C27 C14 1_555 1_555
H20 C27 1_555 1_555
C28 C7 1_555 1_555
H21 C28 1_555 1_555
H22 C28 1_555 1_555
C29 C9 1_555 1_555
H23 C29 1_555 1_555
C30 C3 1_555 1_555
H24 C30 1_555 1_555
O9 Co2 1_555 1_555
O10 Co4 1_555 1_555
H25 O10 1_555 1_555
H26 O10 1_555 1_555
O11 Co2 1_555 1_555
H27 O11 1_555 1_555
H28 O11 1_555 1_555
H29 O2 1_555 1_555
H31 O9 1_555 1_555
O12 C32 1_555 1_555
O13 C32 1_555 1_555
C31 C33 1_555 1_555
C32 C37 1_555 1_555
N10 C34 1_555 1_555
C33 H32 1_555 1_555
C34 C35 1_555 1_555
C35 H33 1_555 1_555
C36 N10 1_555 1_555
H34 C36 1_555 1_555
C37 C31 1_555 1_555
H35 C37 1_555 1_555
H36 C37 1_555 1_555
C38 N10 1_555 1_555
H37 C38 1_555 1_555
N11 C38 1_555 1_555
C39 C31 1_555 1_555
H38 C39 1_555 1_555
C40 C33 1_555 1_555
H39 C40 1_555 1_555
N12 C36 1_555 1_555
Co2B O1B 1_555 1_555
Co3B O1B 1_555 1_555
Co4B O2B 1_555 1_555
O1B H30B 1_555 1_555
O2B Co3B 1_555 1_555
O3B C20B 1_555 1_555
O4B Co4B 1_555 1_555
N1B Co4B 1_555 1_555
N2B C3B 1_555 1_555
O5B C20B 1_555 1_555
O6B Co3B 1_555 1_555
O7B C8B 1_555 1_555
O8B Co1 1_555 1_555
N3B C10B 1_555 1_555
C1B H1B 1_555 1_555
N4B C1B 1_555 1_555
N5B N8B 1_555 1_555
C2B C6B 1_555 1_555
C3B C11B 1_555 1_555
N6B Co3B 1_555 1_555
C4B O4B 1_555 1_555
C5B H2B 1_555 1_555
N7B N9B 1_555 1_555
C6B C5B 1_555 1_555
H3B C6B 1_555 1_555
C7B C22B 1_555 1_555
N8B C19B 1_555 1_555
C8B O8B 1_555 1_555
C9B N4B 1_555 1_555
N9B Co4B 1_555 1_555
C10B C5B 1_555 1_555
C11B H4B 1_555 1_555
C12B C10B 1_555 1_555
H5B C12B 1_555 1_555
C13B N4B 1_555 1_555
H6B C13B 1_555 1_555
C14B C18B 1_555 1_555
C15B C2B 1_555 1_555
H7B C15B 1_555 1_555
H8B C15B 1_555 1_555
C16B N3B 1_555 1_555
H9B C16B 1_555 1_555
C17B N1B 1_555 1_555
H10B C17B 1_555 1_555
C18B H11B 1_555 1_555
H12B C18B 1_555 1_555
C19B N3B 1_555 1_555
H13B C19B 1_555 1_555
C20B C18B 1_555 1_555
C21B C11B 1_555 1_555
H14B C21B 1_555 1_555
C22B H15B 1_555 1_555
C23B C9B 1_555 1_555
H16B C23B 1_555 1_555
C24B C2B 1_555 1_555
H17B C24B 1_555 1_555
C25B N2B 1_555 1_555
H18B C25B 1_555 1_555
C26B C7B 1_555 1_555
H19B C26B 1_555 1_555
C27B C14B 1_555 1_555
H20B C27B 1_555 1_555
C28B C7B 1_555 1_555
H21B C28B 1_555 1_555
H22B C28B 1_555 1_555
C29B C9B 1_555 1_555
H23B C29B 1_555 1_555
C30B C3B 1_555 1_555
H24B C30B 1_555 1_555
O9B Co2B 1_555 1_555
O10B Co4B 1_555 1_555
H25B O10B 1_555 1_555
H26B O10B 1_555 1_555
O11B Co2B 1_555 1_555
H27B O11B 1_555 1_555
H28B O11B 1_555 1_555
H29B O2B 1_555 1_555
H31B O9B 1_555 1_555
Co1_2 O8 1_555 1_555
Co2_2 N7B 1_555 1_555
Co2A O5B 1_555 1_555
Co2B_2 N7 1_555 1_555
Co2C O5 1_555 1_555
Co3A O3B 1_555 1_555
Co3C O3 1_555 1_555
Co4_2 O9B 1_555 1_555
Co4B_2 O9 1_555 1_555
O1B_2 Co1 1_555 1_555
O2B_2 Co1 1_555 1_555
O3A Co3B 1_555 1_555
O3C Co3 1_555 1_555
O5A Co2B 1_555 1_555
O5C Co2 1_555 1_555
O8_2 Co1 1_555 1_555
N5A Co2B 1_555 1_555
N5C Co2 1_555 1_555
N7_2 Co2B 1_555 1_555
N7B_2 Co2 1_555 1_555
N8A Co3B 1_555 1_555
N8C Co3 1_555 1_555
O9_2 Co4B 1_555 1_555
O9B_2 Co4 1_555 1_555
Co3 O2 1_555 1_555
N1 N6 1_555 1_555
N2 C17 1_555 1_555
O6 C4 1_555 1_555
C1 N9 1_555 1_555
N5 C16 1_555 1_555
N5 Co2C 1_555 1_555
N6 C25 1_555 1_555
C4 C15 1_555 1_555
N7 C13 1_555 1_555
N8 Co3C 1_555 1_555
C12 C24 1_555 1_555
C14 C21 1_555 1_555
C22 C29 1_555 1_555
C23 C26 1_555 1_555
C27 C30 1_555 1_555
C34 C40 1_555 1_555
C35 C39 1_555 1_555
N11 N12 1_555 1_555
O1B Co1_2 1_555 1_555
O2B Co1_2 1_555 1_555
N1B N6B 1_555 1_555
N2B C17B 1_555 1_555
O6B C4B 1_555 1_555
C1B N9B 1_555 1_555
N5B C16B 1_555 1_555
N5B Co2A 1_555 1_555
N6B C25B 1_555 1_555
C4B C15B 1_555 1_555
N7B C13B 1_555 1_555
N8B Co3A 1_555 1_555
C8B C28B 1_555 1_555
C12B C24B 1_555 1_555
C14B C21B 1_555 1_555
C22B C29B 1_555 1_555
C23B C26B 1_555 1_555
C27B C30B 1_555 1_555
Co2_2 O9_2 1_555 1_555
Co2B_2 O1B_2 1_555 1_555
Co2B_2 O9B_2 1_555 1_555
Co4B_2 O2B_2 1_555 1_555
N5A N8A 1_555 1_555
N5C N8C 1_555 1_555

#END
