
#######################################################################
#
#                 Cambridge Crystallographic Data Centre
#                                CCDC 
#
#######################################################################
#
# If this CIF has been generated from an entry in the Cambridge 
# Structural Database, then it will include bibliographic, chemical, 
# crystal, experimental, refinement or atomic coordinate data resulting 
# from the CCDC's data processing and validation procedures.
#
#######################################################################

data_ZOZQAI
_symmetry_cell_setting           triclinic
_symmetry_space_group_name_H-M   'P -1'
_symmetry_Int_Tables_number      2
_space_group_name_Hall           '-P 1'
loop_
_symmetry_equiv_pos_site_id
_symmetry_equiv_pos_as_xyz
1 x,y,z
2 -x,-y,-z
_cell_length_a                   12.291(2)
_cell_length_b                   12.542(2)
_cell_length_c                   14.204(3)
_cell_angle_alpha                73.826(5)
_cell_angle_beta                 86.706(7)
_cell_angle_gamma                74.532(5)
_cell_volume                     2026.43
loop_
_atom_site_label
_atom_site_type_symbol
_atom_site_fract_x
_atom_site_fract_y
_atom_site_fract_z
S1 S 0.25514(4) 0.48846(4) 1.01560(3)
S2 S -0.08811(4) 0.49968(4) 0.76892(3)
S3 S 0.25864(4) 0.48252(4) 0.50055(3)
S4 S 0.57915(4) 0.54706(4) 0.73052(3)
K1 K -0.05786(3) 0.79776(4) 0.20220(3)
K2 K 0.38449(3) 0.97051(3) 0.14245(3)
K3 K 0.10077(3) 1.00431(4) 0.37776(3)
K4 K 0.38740(3) 0.97287(3) 0.63368(3)
C1 C 0.08494(14) 0.50811(14) 0.88376(12)
C2 C 0.12603(14) 0.55847(14) 0.94662(12)
C3 C 0.06337(14) 0.66381(15) 0.96048(13)
H1 H 0.0916 0.6970 1.0032
C4 C -0.03951(15) 0.71991(14) 0.91227(13)
C5 C -0.08416(15) 0.66884(15) 0.85368(13)
H2 H -0.1561 0.7061 0.8228
O1 O 0.14692(10) 0.41033(10) 0.86669(9)
H3 H 0.1328(16) 0.4085(17) 0.8006(16)
S5 S -0.11695(4) 0.85417(4) 0.92773(3)
O2 O -0.05057(11) 0.88167(11) 0.99516(10)
O3 O -0.22614(10) 0.83881(10) 0.96833(9)
O4 O -0.13209(11) 0.93612(11) 0.83073(9)
C6 C -0.02411(14) 0.56392(15) 0.84028(13)
C7 C 0.08076(14) 0.49911(14) 0.63090(13)
C8 C -0.03088(14) 0.55527(15) 0.65343(13)
C9 C -0.09358(15) 0.65484(15) 0.58992(13)
H4 H -0.1674 0.6901 0.6074
C10 C -0.05027(14) 0.70399(14) 0.50106(13)
C11 C 0.05712(15) 0.64965(15) 0.47449(13)
H5 H 0.0862 0.6812 0.4126
C12 C 0.12205(14) 0.54911(15) 0.53830(13)
O5 O 0.14136(10) 0.40778(10) 0.69378(9)
S6 S -0.12845(4) 0.83924(4) 0.42773(3)
O6 O -0.18143(12) 0.90469(11) 0.49619(10)
O7 O -0.21428(11) 0.82034(11) 0.37119(10)
O8 O -0.04705(11) 0.88729(11) 0.36393(10)
C13 C 0.41075(14) 0.52659(14) 0.61480(13)
C14 C 0.34472(14) 0.56564(15) 0.52791(13)
C15 C 0.34758(14) 0.66866(15) 0.45945(13)
H6 H 0.3027 0.6942 0.4012
O9 O 0.40550(10) 0.42890(10) 0.68250(9)
H7 H 0.4148(17) 0.4375(17) 0.7626(15)
S7 S 0.41888(4) 0.86721(4) 0.39239(3)
O10 O 0.31370(10) 0.90925(11) 0.33597(9)
O11 O 0.43227(12) 0.93940(11) 0.45257(9)
C16 C 0.41550(15) 0.73421(15) 0.47577(13)
C17 C 0.48387(14) 0.69531(15) 0.55910(13)
H8 H 0.5321 0.7394 0.5688
C18 C 0.48293(14) 0.59278(15) 0.62858(13)
O12 O 0.51686(10) 0.84567(10) 0.32955(9)
C19 C 0.41672(14) 0.52634(14) 0.87427(13)
C20 C 0.48897(14) 0.59414(15) 0.82231(13)
C21 C 0.49232(14) 0.69531(15) 0.84253(13)
H9 H 0.5417 0.7385 0.8072
C22 C 0.42343(15) 0.73417(14) 0.91452(13)
C23 C 0.35214(14) 0.66952(15) 0.96705(13)
H10 H 0.3058 0.6951 1.0165
C24 C 0.34841(14) 0.56764(14) 0.94746(12)
O13 O 0.41344(10) 0.43062(10) 0.85492(9)
S8 S 0.42334(4) 0.86756(4) 0.93221(3)
O14 O 0.42819(11) 0.94429(10) 0.83390(9)
O15 O 0.52399(10) 0.85080(10) 0.99078(9)
O16 O 0.31986(10) 0.90583(11) 0.98259(9)
Na1 Na 0.32189(6) 0.29440(6) 0.93845(5)
Na2 Na 0.31265(6) 0.28836(6) 0.67413(5)
O17 O 0.29655(12) 0.16544(11) 0.84057(10)
H11 H 0.2807(17) 0.1506(18) 0.8993(8)
H12 H 0.3407(15) 0.1075(13) 0.8310(14)
O18 O 0.15222(13) 0.81503(14) 0.20560(17)
H13 H 0.2219(9) 0.788(2) 0.205(2)
H14 H 0.137(2) 0.8863(9) 0.183(2)
O19 O -0.12650(12) 1.04123(12) 0.13340(10)
H15 H -0.1760(13) 1.053(2) 0.0916(13)
H16 H -0.0695(12) 1.050(2) 0.1006(14)
O20 O 0.39227(12) 0.74246(11) 0.19552(10)
H17 H 0.4157(18) 0.6878(14) 0.1714(14)
H18 H 0.4228(18) 0.7155(18) 0.2508(9)
O21 O 0.09929(12) 0.85458(12) 0.56975(11)
H19 H 0.1419(17) 0.8515(19) 0.6159(13)
H20 H 0.0939(19) 0.7873(11) 0.5786(16)
O22 O 0.23045(13) 0.84860(13) 0.72751(11)
H21 H 0.2672(17) 0.7862(12) 0.7628(14)
H22 H 0.1884(17) 0.8821(18) 0.7652(14)
O23 O 0.63514(17) 0.83025(16) 0.67278(16)
H23 H 0.665(2) 0.7562(10) 0.678(2)
H24 H 0.681(2) 0.859(2) 0.6291(19)
S2A S 0.08811(4) 0.50032(4) 0.23108(3)
K1_2 K -0.05786(3) 0.79776(4) 1.20220(3)
K1A K 0.05786(3) 0.20224(4) 0.79780(3)
K2_2 K 0.38449(3) 0.97051(3) 1.14245(3)
K2A K -0.38449(3) 1.02949(3) 0.85755(3)
K2A_2 K 0.61551(3) 1.02949(3) 0.85755(3)
K3A K -0.10077(3) 0.99569(4) 0.62224(3)
K4A K -0.38740(3) 1.02713(3) 0.36632(3)
K4A_2 K 0.61260(3) 1.02713(3) 0.36632(3)
O2_2 O -0.05057(11) 0.88167(11) -0.00484(10)
O3A O 0.22614(10) 0.16119(10) 1.03167(9)
O3A_2 O 0.22614(10) 1.16119(10) 0.03167(9)
O4A O 0.13209(11) 1.06388(11) 0.16927(9)
O5A O -0.14136(10) 0.59222(10) 0.30622(9)
O6A O 0.18143(12) 1.09531(11) 0.50381(10)
O7A O 0.21428(11) 0.17966(11) 0.62881(10)
O7A_2 O 0.21428(11) 1.17966(11) 0.62881(10)
O11A O 0.56773(12) 1.06060(11) 0.54743(9)
O12A O 0.48314(10) 0.15433(10) 0.67045(9)
O12A_2 O 0.48314(10) 1.15433(10) 0.67045(9)
O14A O 0.57181(11) 1.05571(10) 0.16610(9)
O15_2 O 0.52399(10) 0.85080(10) -0.00922(9)
O15A O 0.47601(10) 0.14920(10) 1.00922(9)
O15A_2 O 0.47601(10) 1.14920(10) 0.00922(9)
O16_2 O 0.31986(10) 0.90583(11) -0.01741(9)
Na1A Na -0.32189(6) 0.70560(6) 1.06155(5)
Na1A_2 Na 0.67811(6) 0.70560(6) 1.06155(5)
Na2A Na -0.31265(6) 0.71164(6) 0.32587(5)
Na2A_2 Na 0.68735(6) 0.71164(6) 0.32587(5)
O17A O -0.29655(12) 0.83456(11) 0.15943(10)
O21A O -0.09929(12) 1.14542(12) 0.43025(11)
loop_
_geom_bond_atom_site_label_1
_geom_bond_atom_site_label_2
_geom_bond_site_symmetry_1
_geom_bond_site_symmetry_2
S1 C2 1_555 1_555
S2 C6 1_555 1_555
S3 C12 1_555 1_555
S4 C18 1_555 1_555
K1 O7 1_555 1_555
K2 O10 1_555 1_555
K3 O8 1_555 1_555
K4 O11 1_555 1_555
C1 C2 1_555 1_555
C2 C3 1_555 1_555
C3 H1 1_555 1_555
C4 C3 1_555 1_555
C5 C4 1_555 1_555
H2 C5 1_555 1_555
O1 C1 1_555 1_555
H3 O1 1_555 1_555
S5 C4 1_555 1_555
O2 S5 1_555 1_555
O3 S5 1_555 1_555
O4 S5 1_555 1_555
C6 C1 1_555 1_555
C7 C8 1_555 1_555
C8 S2 1_555 1_555
C9 C8 1_555 1_555
H4 C9 1_555 1_555
C10 C9 1_555 1_555
C11 C10 1_555 1_555
H5 C11 1_555 1_555
C12 C7 1_555 1_555
O5 C7 1_555 1_555
S6 C10 1_555 1_555
O6 S6 1_555 1_555
O7 S6 1_555 1_555
O8 K1 1_555 1_555
C13 C14 1_555 1_555
C14 S3 1_555 1_555
C15 C14 1_555 1_555
H6 C15 1_555 1_555
O9 C13 1_555 1_555
H7 O9 1_555 1_555
S7 O10 1_555 1_555
O10 K3 1_555 1_555
O11 S7 1_555 1_555
C16 C15 1_555 1_555
C17 C16 1_555 1_555
H8 C17 1_555 1_555
C18 C13 1_555 1_555
O12 K2 1_555 1_555
C19 C20 1_555 1_555
C20 S4 1_555 1_555
C21 C20 1_555 1_555
H9 C21 1_555 1_555
C22 C21 1_555 1_555
C23 C22 1_555 1_555
H10 C23 1_555 1_555
C24 S1 1_555 1_555
O13 C19 1_555 1_555
S8 C22 1_555 1_555
O14 K4 1_555 1_555
O15 S8 1_555 1_555
O16 S8 1_555 1_555
Na1 S1 1_555 1_555
Na2 S3 1_555 1_555
O17 Na1 1_555 1_555
H11 O17 1_555 1_555
H12 O17 1_555 1_555
O18 K1 1_555 1_555
H13 O18 1_555 1_555
H14 O18 1_555 1_555
O19 K1 1_555 1_555
H15 O19 1_555 1_555
H16 O19 1_555 1_555
O20 K2 1_555 1_555
H17 O20 1_555 1_555
H18 O20 1_555 1_555
O21 K3 1_555 1_555
H19 O21 1_555 1_555
H20 O21 1_555 1_555
O22 K4 1_555 1_555
H21 O22 1_555 1_555
H22 O22 1_555 1_555
O23 K4 1_555 1_555
H23 O23 1_555 1_555
H24 O23 1_555 1_555
S2A K1 1_555 1_555
K1_2 O2 1_555 1_555
K1A S2 1_555 1_555
K2_2 O15 1_555 1_555
K2A O3 1_555 1_555
K2A_2 O14 1_555 1_555
K3A O4 1_555 1_555
K4A O6 1_555 1_555
K4A_2 O11 1_555 1_555
O2_2 K1 1_555 1_555
O3A Na1 1_555 1_555
O3A_2 K2 1_555 1_555
O4A K2 1_555 1_555
O5A K1 1_555 1_555
O6A K3 1_555 1_555
O7A Na2 1_555 1_555
O7A_2 K4 1_555 1_555
O11A K4 1_555 1_555
O12A Na2 1_555 1_555
O12A_2 K4 1_555 1_555
O14A K2 1_555 1_555
O15_2 K2 1_555 1_555
O15A Na1 1_555 1_555
O15A_2 K2 1_555 1_555
O16_2 K2 1_555 1_555
Na1A O3 1_555 1_555
Na1A_2 O15 1_555 1_555
Na2A O7 1_555 1_555
Na2A_2 O12 1_555 1_555
O17A K1 1_555 1_555
O21A K3 1_555 1_555
K3 O4A 1_555 1_555
K4 O6A 1_555 1_555
C5 C6 1_555 1_555
O1 Na1 1_555 1_555
O4 K2A 1_555 1_555
C11 C12 1_555 1_555
O5 Na2 1_555 1_555
O5 K1A 1_555 1_555
S6 O8 1_555 1_555
O6 K3A 1_555 1_555
O7 K4A 1_555 1_555
O9 Na2 1_555 1_555
S7 C16 1_555 1_555
S7 O12 1_555 1_555
C17 C18 1_555 1_555
O12 K4A_2 1_555 1_555
C19 C24 1_555 1_555
C23 C24 1_555 1_555
O13 Na1 1_555 1_555
S8 O14 1_555 1_555
O15 K2A_2 1_555 1_555
O16 K2_2 1_555 1_555
Na2 O17 1_555 1_555
O17 K1A 1_555 1_555
O21 K3A 1_555 1_555
K1A O7A 1_555 1_555
K2A_2 O12A_2 1_555 1_555
K3A O21A 1_555 1_555
K4A_2 O11A 1_555 1_555
K4A_2 O14A 1_555 1_555
O5A Na2A 1_555 1_555
Na2A O17A 1_555 1_555

#END
