
#######################################################################
#
#                 Cambridge Crystallographic Data Centre
#                                CCDC 
#
#######################################################################
#
# If this CIF has been generated from an entry in the Cambridge 
# Structural Database, then it will include bibliographic, chemical, 
# crystal, experimental, refinement or atomic coordinate data resulting 
# from the CCDC's data processing and validation procedures.
#
#######################################################################

data_ZOZQOW
_symmetry_cell_setting           monoclinic
_symmetry_space_group_name_H-M   'P 21/c'
_symmetry_Int_Tables_number      14
_space_group_name_Hall           '-P 2ybc'
loop_
_symmetry_equiv_pos_site_id
_symmetry_equiv_pos_as_xyz
1 x,y,z
2 -x,1/2+y,1/2-z
3 -x,-y,-z
4 x,1/2-y,1/2+z
_cell_length_a                   11.5015(7)
_cell_length_b                   12.6151(6)
_cell_length_c                   19.6648(13)
_cell_angle_alpha                90
_cell_angle_beta                 117.658(4)
_cell_angle_gamma                90
_cell_volume                     2527.19
loop_
_atom_site_label
_atom_site_type_symbol
_atom_site_fract_x
_atom_site_fract_y
_atom_site_fract_z
Zn1 Zn 0.00664(5) 0.75274(4) 0.72530(3)
Zn2 Zn -0.12091(5) 0.50070(4) 0.71512(3)
O1 O 0.0122(4) 0.4788(4) 0.6777(2)
O2 O 0.1488(3) 0.2678(3) 0.7616(2)
O3 O -0.0373(4) 0.3895(4) 0.8157(3)
O4 O 0.0179(4) 0.5519(4) 0.8238(2)
O5 O 0.1607(4) 0.7409(3) 0.8235(2)
O6 O 0.2568(4) 0.9000(3) 0.8508(2)
O7 O -0.0015(4) 0.6510(4) 0.6519(2)
O8 O 0.2466(4) 0.1101(3) 0.7958(2)
N1 N 0.2365(4) 0.3917(3) 0.6837(2)
H1 H 0.1758 0.3809 0.6969
N2 N 0.2446(4) 0.6092(3) 0.9452(2)
H2 H 0.1833 0.6262 0.9006
C1 C 0.0403(7) 0.5581(6) 0.6497(4)
C2 C 0.1154(5) 0.5444(4) 0.6085(3)
C3 C 0.0931(6) 0.6158(4) 0.5480(3)
H3 H 0.0332 0.6707 0.5377
C4 C 0.1564(6) 0.6067(5) 0.5043(4)
H4 H 0.1413 0.6555 0.4656
C5 C 0.2414(6) 0.5258(5) 0.5180(3)
H5 H 0.2842 0.5186 0.4881
C6 C 0.2656(5) 0.4542(5) 0.5754(3)
H6 H 0.3226 0.3982 0.5824
C7 C 0.2074(4) 0.4624(4) 0.6239(3)
C8 C 0.3527(5) 0.3366(4) 0.7246(3)
C9 C 0.4710(5) 0.3704(5) 0.7273(3)
H7 H 0.4723 0.4330 0.7026
C10 C 0.5846(5) 0.3136(6) 0.7652(4)
H8 H 0.6611 0.3373 0.7651
C11 C 0.5867(6) 0.2213(6) 0.8038(4)
H9 H 0.6636 0.1820 0.8287
C12 C 0.4742(5) 0.1888(4) 0.8048(3)
H10 H 0.4760 0.1275 0.8316
C13 C 0.3564(4) 0.2447(4) 0.7666(3)
C14 C 0.2424(5) 0.2045(4) 0.7748(3)
C15 C 0.0313(6) 0.4673(5) 0.8570(3)
C16 C 0.2533(5) 0.8030(4) 0.8644(3)
C17 C 0.4859(5) 0.8130(5) 0.9607(4)
H11 H 0.4882 0.8778 0.9388
C18 C 0.3670(5) 0.7587(4) 0.9329(3)
C19 C 0.3621(5) 0.6630(4) 0.9690(3)
C20 C 0.4793(5) 0.6243(4) 1.0278(3)
H12 H 0.4788 0.5604 1.0513
C21 C 0.2123(5) 0.5317(4) 0.9834(3)
C22 C 0.1129(5) 0.4573(4) 0.9419(3)
C23 C 0.5997(6) 0.7742(6) 1.0193(4)
H13 H 0.6779 0.8117 1.0368
C24 C 0.5956(6) 0.6784(5) 1.0518(3)
H14 H 0.6725 0.6499 1.0904
C25 C 0.0831(7) 0.3790(5) 0.9800(5)
H15 H 0.0176 0.3303 0.9518
C26 C 0.1463(9) 0.3710(7) 1.0570(6)
H16 H 0.1261 0.3163 1.0815
C27 C 0.2418(9) 0.4448(8) 1.0995(5)
H17 H 0.2845 0.4402 1.1527
C28 C 0.2742(7) 0.5253(6) 1.0637(3)
H18 H 0.3372 0.5752 1.0929
Zn1A Zn -0.00664(5) 0.25274(4) 0.77470(3)
Zn2A Zn 0.12091(5) 0.00070(4) 0.78488(3)
Zn2A_2 Zn 0.12091(5) 1.00070(4) 0.78488(3)
O2A O -0.1488(3) 0.7678(3) 0.7384(2)
O3A O 0.0373(4) 0.8895(4) 0.6843(3)
O6A O -0.2568(4) 0.4000(3) 0.6492(2)
O8A O -0.2466(4) 0.6101(3) 0.7042(2)
loop_
_geom_bond_atom_site_label_1
_geom_bond_atom_site_label_2
_geom_bond_site_symmetry_1
_geom_bond_site_symmetry_2
Zn1 O5 1_555 1_555
Zn2 O1 1_555 1_555
O1 C1 1_555 1_555
O2 C14 1_555 1_555
O3 Zn2 1_555 1_555
O4 Zn2 1_555 1_555
O5 C16 1_555 1_555
O6 C16 1_555 1_555
O7 Zn1 1_555 1_555
O8 C14 1_555 1_555
N1 H1 1_555 1_555
N2 H2 1_555 1_555
C1 O7 1_555 1_555
C2 C1 1_555 1_555
C3 C2 1_555 1_555
H3 C3 1_555 1_555
C4 C3 1_555 1_555
H4 C4 1_555 1_555
C5 C4 1_555 1_555
H5 C5 1_555 1_555
C6 C5 1_555 1_555
H6 C6 1_555 1_555
C7 N1 1_555 1_555
C8 N1 1_555 1_555
C9 C8 1_555 1_555
H7 C9 1_555 1_555
C10 C9 1_555 1_555
H8 C10 1_555 1_555
C11 C10 1_555 1_555
H9 C11 1_555 1_555
C12 C11 1_555 1_555
H10 C12 1_555 1_555
C13 C8 1_555 1_555
C14 C13 1_555 1_555
C15 O3 1_555 1_555
C16 C18 1_555 1_555
C17 H11 1_555 1_555
C18 C17 1_555 1_555
C19 N2 1_555 1_555
C20 C19 1_555 1_555
H12 C20 1_555 1_555
C21 N2 1_555 1_555
C22 C15 1_555 1_555
C23 C17 1_555 1_555
H13 C23 1_555 1_555
C24 C20 1_555 1_555
H14 C24 1_555 1_555
C25 C22 1_555 1_555
H15 C25 1_555 1_555
C26 C25 1_555 1_555
H16 C26 1_555 1_555
C27 C26 1_555 1_555
H17 C27 1_555 1_555
C28 C21 1_555 1_555
H18 C28 1_555 1_555
Zn1A O2 1_555 1_555
Zn2A O8 1_555 1_555
Zn2A_2 O6 1_555 1_555
O2A Zn1 1_555 1_555
O3A Zn1 1_555 1_555
O6A Zn2 1_555 1_555
O8A Zn2 1_555 1_555
O3 Zn1A 1_555 1_555
O4 C15 1_555 1_555
C2 C7 1_555 1_555
C6 C7 1_555 1_555
C12 C13 1_555 1_555
C18 C19 1_555 1_555
C21 C22 1_555 1_555
C23 C24 1_555 1_555
C27 C28 1_555 1_555
Zn2A_2 O3A 1_555 1_555

#END
