
#######################################################################
#
#                 Cambridge Crystallographic Data Centre
#                                CCDC 
#
#######################################################################
#
# If this CIF has been generated from an entry in the Cambridge 
# Structural Database, then it will include bibliographic, chemical, 
# crystal, experimental, refinement or atomic coordinate data resulting 
# from the CCDC's data processing and validation procedures.
#
#######################################################################

data_ZOZQIQ
_symmetry_cell_setting           monoclinic
_symmetry_space_group_name_H-M   'P 21/c'
_symmetry_Int_Tables_number      14
_space_group_name_Hall           '-P 2ybc'
loop_
_symmetry_equiv_pos_site_id
_symmetry_equiv_pos_as_xyz
1 x,y,z
2 -x,1/2+y,1/2-z
3 -x,-y,-z
4 x,1/2-y,1/2+z
_cell_length_a                   11.667(4)
_cell_length_b                   9.677(3)
_cell_length_c                   19.320(6)
_cell_angle_alpha                90
_cell_angle_beta                 96.150(4)
_cell_angle_gamma                90
_cell_volume                     2168.7
loop_
_atom_site_label
_atom_site_type_symbol
_atom_site_fract_x
_atom_site_fract_y
_atom_site_fract_z
Cd1 Cd 0.852741(18) 0.11110(3) 0.189149(11)
N1 N 0.8706(2) 0.1275(3) 0.30993(14)
C1 C 0.8573(3) 0.0184(4) 0.34927(17)
H1 H 0.8386 -0.0655 0.3275
C2 C 0.8973(3) 0.1448(5) 0.45319(18)
H2 H 0.9055 0.1506 0.5015
C3 C 0.8697(3) 0.0223(4) 0.42065(18)
H3 H 0.8594 -0.0571 0.4464
C4 C 0.8985(4) 0.2453(4) 0.3427(2)
H4 H 0.9091 0.3235 0.3161
C5 C 0.9124(4) 0.2574(5) 0.4140(2)
H5 H 0.9320 0.3420 0.4349
C6 C 0.8385(3) 0.4367(4) 0.1536(2)
H6 H 0.9042 0.4400 0.1854
C7 C 0.6874(3) 0.3158(4) 0.0994(2)
H7 H 0.6462 0.2338 0.0927
C8 C 0.6492(4) 0.4298(5) 0.0621(2)
H8 H 0.5830 0.4249 0.0308
C9 C 0.7088(5) 0.5508(5) 0.0711(2)
H9 H 0.6846 0.6291 0.0457
C10 C 0.8044(4) 0.5544(4) 0.1179(2)
H10 H 0.8462 0.6358 0.1255
N2 N 0.7816(2) 0.3177(3) 0.14502(14)
C11 C 1.0567(3) 0.1256(3) 0.13584(15)
C12 C 1.1748(3) 0.0978(3) 0.03776(15)
H11 H 1.1060 0.0819 0.0099
C13 C 1.1713(2) 0.1253(3) 0.10816(14)
O1 O 0.97029(19) 0.0820(3) 0.09873(12)
C14 C 1.2761(2) 0.1485(3) 0.15035(14)
O2 O 1.04761(18) 0.1678(3) 0.19643(11)
C15 C 1.3782(3) 0.1190(4) 0.04906(17)
H12 H 1.4474 0.1177 0.0293
C16 C 1.2765(3) 0.0933(4) 0.00806(16)
H13 H 1.2766 0.0732 -0.0390
C17 C 1.3785(3) 0.1465(4) 0.11850(16)
H14 H 1.4481 0.1642 0.1451
N3 N 1.2765(2) 0.1769(3) 0.22017(12)
H15 H 1.2108 0.1928 0.2350
C18 C 1.3739(2) 0.1825(4) 0.26949(14)
C19 C 1.4557(3) 0.0774(4) 0.27229(17)
H16 H 1.4458 0.0040 0.2411
O3 O 1.19671(18) 0.3798(2) 0.30082(11)
C20 C 1.3019(3) 0.4032(3) 0.31980(14)
O4 O 1.33486(18) 0.5198(2) 0.34143(12)
C21 C 1.3875(2) 0.2907(3) 0.31767(14)
C22 C 1.4867(3) 0.2921(4) 0.36540(16)
H17 H 1.4979 0.3646 0.3970
C23 C 1.5676(3) 0.1893(4) 0.36678(18)
H18 H 1.6332 0.1927 0.3986
C24 C 1.5511(3) 0.0810(4) 0.32076(19)
H19 H 1.6048 0.0097 0.3224
Cd1A Cd 1.147259(18) 0.61110(3) 0.310851(11)
O3A O 0.80329(18) -0.1202(2) 0.19918(11)
O4A O 0.66514(18) 0.0198(2) 0.15857(12)
loop_
_geom_bond_atom_site_label_1
_geom_bond_atom_site_label_2
_geom_bond_site_symmetry_1
_geom_bond_site_symmetry_2
Cd1 N1 1_555 1_555
N1 C1 1_555 1_555
C1 H1 1_555 1_555
C2 H2 1_555 1_555
C3 C1 1_555 1_555
H3 C3 1_555 1_555
C4 N1 1_555 1_555
H4 C4 1_555 1_555
C5 C2 1_555 1_555
H5 C5 1_555 1_555
C6 H6 1_555 1_555
C7 H7 1_555 1_555
C8 C7 1_555 1_555
H8 C8 1_555 1_555
C9 C8 1_555 1_555
H9 C9 1_555 1_555
C10 C6 1_555 1_555
H10 C10 1_555 1_555
N2 Cd1 1_555 1_555
C11 C13 1_555 1_555
C12 H11 1_555 1_555
C13 C12 1_555 1_555
O1 Cd1 1_555 1_555
C14 C13 1_555 1_555
O2 Cd1 1_555 1_555
C15 H12 1_555 1_555
C16 C12 1_555 1_555
H13 C16 1_555 1_555
C17 C14 1_555 1_555
H14 C17 1_555 1_555
N3 C14 1_555 1_555
H15 N3 1_555 1_555
C18 N3 1_555 1_555
C19 C18 1_555 1_555
H16 C19 1_555 1_555
O3 C20 1_555 1_555
C20 O4 1_555 1_555
O4 Cd1A 1_555 1_555
C21 C18 1_555 1_555
C22 C21 1_555 1_555
H17 C22 1_555 1_555
C23 C22 1_555 1_555
H18 C23 1_555 1_555
C24 C19 1_555 1_555
H19 C24 1_555 1_555
Cd1A O3 1_555 1_555
O3A Cd1 1_555 1_555
O4A Cd1 1_555 1_555
C2 C3 1_555 1_555
C4 C5 1_555 1_555
C6 N2 1_555 1_555
C7 N2 1_555 1_555
C9 C10 1_555 1_555
C11 O1 1_555 1_555
C11 O2 1_555 1_555
C15 C16 1_555 1_555
C15 C17 1_555 1_555
C20 C21 1_555 1_555
C23 C24 1_555 1_555

#END
