
#######################################################################
#
#                 Cambridge Crystallographic Data Centre
#                                CCDC 
#
#######################################################################
#
# If this CIF has been generated from an entry in the Cambridge 
# Structural Database, then it will include bibliographic, chemical, 
# crystal, experimental, refinement or atomic coordinate data resulting 
# from the CCDC's data processing and validation procedures.
#
#######################################################################

data_ZOZRUD
_symmetry_cell_setting           monoclinic
_symmetry_space_group_name_H-M   'P 21/n'
_symmetry_Int_Tables_number      14
_space_group_name_Hall           '-P 2yn'
loop_
_symmetry_equiv_pos_site_id
_symmetry_equiv_pos_as_xyz
1 x,y,z
2 1/2-x,1/2+y,1/2-z
3 -x,-y,-z
4 1/2+x,1/2-y,1/2+z
_cell_length_a                   5.2933(3)
_cell_length_b                   28.0140(10)
_cell_length_c                   12.4125(6)
_cell_angle_alpha                90
_cell_angle_beta                 95.283(4)
_cell_angle_gamma                90
_cell_volume                     1832.79
loop_
_atom_site_label
_atom_site_type_symbol
_atom_site_fract_x
_atom_site_fract_y
_atom_site_fract_z
Hg1 Hg 0.51414(4) 0.37578(2) 0.86174(2)
I1 I 0.66455(7) 0.32968(2) 0.69245(3)
I2 I 0.60910(7) 0.42488(2) 1.04488(3)
C1 C -0.1283(10) 0.43727(18) 0.4895(5)
O1 O -0.3185(8) 0.45194(17) 0.4375(4)
O2 O 0.0453(7) 0.41030(15) 0.4476(3)
C2 C -0.0071(11) 0.3966(2) 0.3365(5)
H1 H -0.0535 0.4249 0.2913
H2 H -0.1498 0.3736 0.3287
O3 O 0.2700(8) 0.33013(14) 0.3613(3)
C3 C 0.2278(12) 0.3741(2) 0.3023(5)
H3 H 0.2080 0.3677 0.2235
H4 H 0.3742 0.3958 0.3180
O4 O 0.5669(10) 0.31069(16) 0.2523(4)
C4 C 0.4506(11) 0.30173(19) 0.3291(5)
N1 N 0.1963(9) 0.42973(17) 0.7683(4)
C5 C 0.1398(10) 0.42416(19) 0.6629(5)
H5 H 0.2422 0.4034 0.6248
C6 C -0.0641(9) 0.44740(17) 0.6051(4)
C7 C -0.2126(10) 0.47805(19) 0.6614(5)
H6 H -0.3533 0.4943 0.6252
C8 C -0.1498(11) 0.4843(2) 0.7717(5)
H7 H -0.2466 0.5052 0.8120
C9 C 0.0556(11) 0.4596(2) 0.8225(5)
H8 H 0.0978 0.4641 0.8978
N2 N 0.7212(9) 0.18471(16) 0.4221(4)
C10 C 0.6722(10) 0.22557(18) 0.3686(4)
H9 H 0.7660 0.2326 0.3088
C11 C 0.4900(9) 0.25862(18) 0.3958(4)
C12 C 0.3546(10) 0.2486(2) 0.4840(4)
H10 H 0.2301 0.2702 0.5051
C13 C 0.4048(12) 0.2063(2) 0.5408(5)
H11 H 0.3158 0.1985 0.6014
C14 C 0.5887(12) 0.1757(2) 0.5065(5)
H12 H 0.6217 0.1468 0.5452
Hg1C Hg 1.01414(4) 0.12422(2) 0.36174(2)
N2C N 0.2212(9) 0.31529(16) 0.9221(4)
loop_
_geom_bond_atom_site_label_1
_geom_bond_atom_site_label_2
_geom_bond_site_symmetry_1
_geom_bond_site_symmetry_2
Hg1 I1 1_555 1_555
I2 Hg1 1_555 1_555
C1 O1 1_555 1_555
O2 C1 1_555 1_555
C2 O2 1_555 1_555
H1 C2 1_555 1_555
H2 C2 1_555 1_555
O3 C3 1_555 1_555
C3 C2 1_555 1_555
H3 C3 1_555 1_555
H4 C3 1_555 1_555
O4 C4 1_555 1_555
C4 O3 1_555 1_555
N1 Hg1 1_555 1_555
C5 N1 1_555 1_555
H5 C5 1_555 1_555
C6 C1 1_555 1_555
C7 C6 1_555 1_555
H6 C7 1_555 1_555
C8 C7 1_555 1_555
H7 C8 1_555 1_555
C9 N1 1_555 1_555
H8 C9 1_555 1_555
N2 C10 1_555 1_555
C10 H9 1_555 1_555
C11 C4 1_555 1_555
C12 C11 1_555 1_555
H10 C12 1_555 1_555
C13 C12 1_555 1_555
H11 C13 1_555 1_555
C14 N2 1_555 1_555
H12 C14 1_555 1_555
Hg1C N2 1_555 1_555
N2C Hg1 1_555 1_555
C5 C6 1_555 1_555
C8 C9 1_555 1_555
C10 C11 1_555 1_555
C13 C14 1_555 1_555

#END
