
#######################################################################
#
#                 Cambridge Crystallographic Data Centre
#                                CCDC 
#
#######################################################################
#
# If this CIF has been generated from an entry in the Cambridge 
# Structural Database, then it will include bibliographic, chemical, 
# crystal, experimental, refinement or atomic coordinate data resulting 
# from the CCDC's data processing and validation procedures.
#
#######################################################################

data_ZOZTAL
_symmetry_cell_setting           triclinic
_symmetry_space_group_name_H-M   'P -1'
_symmetry_Int_Tables_number      2
_space_group_name_Hall           '-P 1'
loop_
_symmetry_equiv_pos_site_id
_symmetry_equiv_pos_as_xyz
1 x,y,z
2 -x,-y,-z
_cell_length_a                   10.4638(8)
_cell_length_b                   10.9965(9)
_cell_length_c                   11.9148(10)
_cell_angle_alpha                79.8250(10)
_cell_angle_beta                 83.8670(10)
_cell_angle_gamma                79.3390(10)
_cell_volume                     1322.22
loop_
_atom_site_label
_atom_site_type_symbol
_atom_site_fract_x
_atom_site_fract_y
_atom_site_fract_z
Ag1 Ag 0.15100(3) 0.22325(4) 0.46995(4)
Ag2 Ag 0.49110(4) 0.21164(4) 0.28570(3)
O1 O 0.1067(11) 0.4295(7) 0.5425(8)
H1 H 0.0489 0.4040 0.5838
H2 H 0.0934 0.4836 0.4882
O2 O 0.2401(5) 0.3186(5) 0.2923(4)
H3 H 0.1798 0.3119 0.2524
H4 H 0.2417 0.3912 0.3070
O3 O 0.5201(6) 0.3523(5) 0.1118(4)
H5 H 0.4600 0.4011 0.1437
H6 H 0.5784 0.3859 0.0688
N1 N 0.2894(4) -0.0831(4) 0.7552(3)
N2 N 0.3469(3) 0.1447(4) 0.5373(3)
N3 N 0.4632(3) 0.1766(4) 0.4845(3)
N4 N 0.4930(3) 0.0938(4) 0.6634(3)
N5 N 0.9474(4) 0.1897(4) 0.4909(3)
N6 N 0.5814(4) -0.0625(4) 0.8072(3)
C1 C 0.1952(5) -0.1346(5) 0.8206(4)
H7 H 0.2086 -0.2212 0.8422
C2 C 0.0786(5) -0.0656(6) 0.8579(5)
H8 H 0.0152 -0.1055 0.9025
C3 C 0.0584(5) 0.0620(6) 0.8279(4)
H9 H -0.0183 0.1103 0.8532
C4 C 0.1529(5) 0.1181(5) 0.7600(4)
H10 H 0.1415 0.2046 0.7378
C5 C 0.2660(4) 0.0414(5) 0.7255(4)
C6 C 0.3663(4) 0.0955(4) 0.6443(4)
C7 C 0.5496(4) 0.1451(4) 0.5609(4)
C8 C 0.6871(4) 0.1596(4) 0.5386(4)
C9 C 0.7853(4) 0.0786(5) 0.5974(4)
H11 H 0.7655 0.0130 0.6533
C10 C 0.9125(4) 0.0972(5) 0.5713(4)
H12 H 0.9774 0.0430 0.6114
C11 C 0.8521(5) 0.2657(5) 0.4335(4)
H13 H 0.8747 0.3289 0.3760
C12 C 0.7223(4) 0.2549(4) 0.4552(4)
H14 H 0.6591 0.3109 0.4144
C13 C 0.5522(4) 0.0601(5) 0.7715(4)
C14 C 0.5775(5) 0.1516(5) 0.8247(4)
H15 H 0.5521 0.2361 0.7964
C15 C 0.6439(6) 0.1127(6) 0.9242(5)
H16 H 0.6650 0.1713 0.9635
C16 C 0.6773(5) -0.0131(6) 0.9629(5)
H17 H 0.7222 -0.0409 1.0285
C17 C 0.6438(5) -0.0976(6) 0.9041(4)
H18 H 0.6651 -0.1826 0.9321
Ag1_2 Ag 1.15100(3) 0.22325(4) 0.46995(4)
Ag2A Ag 0.50890(4) -0.21164(4) 0.71430(3)
N1A N 0.7106(4) 0.0831(4) 0.2448(3)
N5_2 N -0.0526(4) 0.1897(4) 0.4909(3)
N6A N 0.4186(4) 0.0625(4) 0.1928(3)
Si1 Si 0.24909(16) 0.43072(15) 0.84354(13)
F1 F 0.3799(5) 0.3968(5) 0.9175(5)
F2 F 0.3079(5) 0.5522(4) 0.7678(4)
F3 F 0.1179(5) 0.4665(5) 0.7670(4)
F4 F 0.1852(6) 0.3119(5) 0.9196(4)
F5 F 0.3192(5) 0.3403(5) 0.7491(4)
F6 F 0.1742(6) 0.5226(5) 0.9354(5)
O4 O 0.1164(6) 0.6570(6) 0.1122(6)
H19 H 0.1690 0.6283 0.0598
H20 H 0.1072 0.6074 0.1748
O5 O 0.5234(8) 0.4437(9) 0.6055(6)
H21 H 0.5230 0.3770 0.6456
H22 H 0.5357 0.5036 0.6312
O6 O 0.2337(9) 0.5708(9) 0.3180(7)
H23 H 0.2002 0.6431 0.3096
H24 H 0.2584 0.5327 0.3789
O7 O 0.0695(5) 0.3150(5) 0.1401(4)
H25 H 0.1052 0.3152 0.0726
H26 H 0.0121 0.3782 0.1515
loop_
_geom_bond_atom_site_label_1
_geom_bond_atom_site_label_2
_geom_bond_site_symmetry_1
_geom_bond_site_symmetry_2
Ag1 O1 1_555 1_555
Ag2 O2 1_555 1_555
O1 H1 1_555 1_555
H2 O1 1_555 1_555
O2 Ag1 1_555 1_555
H3 O2 1_555 1_555
H4 O2 1_555 1_555
O3 Ag2 1_555 1_555
H5 O3 1_555 1_555
H6 O3 1_555 1_555
N1 C1 1_555 1_555
N2 Ag1 1_555 1_555
N3 Ag2 1_555 1_555
N4 C6 1_555 1_555
N5 C10 1_555 1_555
N6 C13 1_555 1_555
C1 H7 1_555 1_555
C2 C1 1_555 1_555
H8 C2 1_555 1_555
C3 C2 1_555 1_555
H9 C3 1_555 1_555
C4 C3 1_555 1_555
H10 C4 1_555 1_555
C5 N1 1_555 1_555
C6 N2 1_555 1_555
C7 N3 1_555 1_555
C8 C7 1_555 1_555
C9 C8 1_555 1_555
H11 C9 1_555 1_555
C10 C9 1_555 1_555
H12 C10 1_555 1_555
C11 N5 1_555 1_555
H13 C11 1_555 1_555
C12 C8 1_555 1_555
H14 C12 1_555 1_555
C13 N4 1_555 1_555
C14 C13 1_555 1_555
H15 C14 1_555 1_555
C15 C14 1_555 1_555
H16 C15 1_555 1_555
C16 C15 1_555 1_555
H17 C16 1_555 1_555
C17 N6 1_555 1_555
H18 C17 1_555 1_555
Si1 F1 1_555 1_555
F2 Si1 1_555 1_555
F3 Si1 1_555 1_555
F4 Si1 1_555 1_555
F5 Si1 1_555 1_555
F6 Si1 1_555 1_555
O4 H19 1_555 1_555
H20 O4 1_555 1_555
O5 H21 1_555 1_555
H22 O5 1_555 1_555
O6 H23 1_555 1_555
H24 O6 1_555 1_555
O7 H25 1_555 1_555
H26 O7 1_555 1_555
Ag1_2 N5 1_555 1_555
Ag2A N1 1_555 1_555
N1A Ag2 1_555 1_555
N5_2 Ag1 1_555 1_555
N6A Ag2 1_555 1_555
N2 N3 1_555 1_555
N4 C7 1_555 1_555
N6 Ag2A 1_555 1_555
C4 C5 1_555 1_555
C5 C6 1_555 1_555
C11 C12 1_555 1_555
C16 C17 1_555 1_555

#END
