
#######################################################################
#
#                 Cambridge Crystallographic Data Centre
#                                CCDC 
#
#######################################################################
#
# If this CIF has been generated from an entry in the Cambridge 
# Structural Database, then it will include bibliographic, chemical, 
# crystal, experimental, refinement or atomic coordinate data resulting 
# from the CCDC's data processing and validation procedures.
#
#######################################################################

data_ZOZVER
_symmetry_cell_setting           monoclinic
_symmetry_space_group_name_H-M   'P 21/c'
_symmetry_Int_Tables_number      14
_space_group_name_Hall           '-P 2ybc'
loop_
_symmetry_equiv_pos_site_id
_symmetry_equiv_pos_as_xyz
1 x,y,z
2 -x,1/2+y,1/2-z
3 -x,-y,-z
4 x,1/2-y,1/2+z
_cell_length_a                   11.3718(2)
_cell_length_b                   22.5945(3)
_cell_length_c                   16.5955(3)
_cell_angle_alpha                90
_cell_angle_beta                 91.902(2)
_cell_angle_gamma                90
_cell_volume                     4261.7
loop_
_atom_site_label
_atom_site_type_symbol
_atom_site_fract_x
_atom_site_fract_y
_atom_site_fract_z
O16 O 0.4595(3) 0.3451(2) 0.7240(4)
N2 N 0.2718(3) 0.37877(15) 0.7092(2)
C38 C 0.3572(4) 0.3413(3) 0.6955(4)
H26 H 0.3395 0.3087 0.6610
C39 C 0.1556(4) 0.37242(18) 0.6740(3)
H27 H 0.1564 0.3425 0.6313
H28 H 0.1296 0.4104 0.6510
H29 H 0.1015 0.3601 0.7155
C40 C 0.2897(4) 0.4240(4) 0.7675(5)
H30 H 0.3724 0.4243 0.7861
H31 H 0.2395 0.4167 0.8133
H32 H 0.2695 0.4625 0.7433
N3 N 0.589(2) 0.2680(9) 0.2229(14)
H33 H 0.6494 0.2705 0.2610
H34 H 0.5413 0.2372 0.2373
C41 C 0.639(2) 0.2540(12) 0.1465(15)
H35 H 0.6879 0.2185 0.1522
H36 H 0.6868 0.2873 0.1288
H37 H 0.5751 0.2467 0.1064
C42 C 0.5219(15) 0.3221(9) 0.2250(12)
H38 H 0.4813 0.3245 0.2761
H39 H 0.4639 0.3225 0.1800
H40 H 0.5749 0.3560 0.2204
O17 O 0.7385(6) 0.6270(3) 0.6265(4)
Mg1 Mg 0.03806(6) 0.25065(3) 0.46862(4)
Mg2 Mg 0.14043(6) 0.17308(3) 0.64578(4)
Mg3 Mg -0.08342(6) 0.19180(3) 0.78681(4)
O1 O 0.21571(13) 0.26713(7) 0.48299(10)
O2 O 0.27789(14) 0.20891(7) 0.58506(9)
O3 O 0.77863(14) 0.26800(7) 0.33741(9)
O4 O 0.85601(14) 0.23745(7) 0.45577(9)
O5 O 0.11471(14) 0.11173(7) 0.55719(9)
O6 O 0.06945(15) 0.16445(7) 0.44721(9)
O7 O 0.18455(14) -0.12725(7) 0.28621(9)
O8 O -0.00770(14) -0.13338(7) 0.28926(9)
O9 O 0.01431(14) 0.33910(7) 0.48467(9)
O10 O -0.07932(15) 0.37251(7) 0.37309(9)
O11 O 0.05557(13) 0.23412(7) 0.84289(9)
O12 O 0.17601(14) 0.23182(7) 0.73918(9)
O13 O 0.01948(13) 0.23435(6) 0.59316(9)
O14 O -0.09541(14) 0.25386(7) 0.69733(9)
C1 C 0.29215(19) 0.23795(10) 0.52176(13)
C2 C 0.41552(19) 0.23915(10) 0.49018(13)
C3 C 0.4700(2) 0.29233(11) 0.47977(17)
H1 H 0.4281 0.3268 0.4891
C4 C 0.5869(2) 0.29516(11) 0.45419(18)
H2 H 0.6208 0.3319 0.4459
C5 C 0.64804(19) 0.24420(10) 0.43870(13)
C6 C 0.5935(2) 0.18808(10) 0.44737(14)
C7 C 0.6521(2) 0.13412(12) 0.42929(18)
H3 H 0.7310 0.1353 0.4123
C8 C 0.5967(3) 0.08101(14) 0.4360(2)
H4 H 0.6374 0.0456 0.4237
C9 C 0.4794(3) 0.07813(14) 0.4611(3)
H5 H 0.4413 0.0409 0.4650
C10 C 0.4205(3) 0.12877(13) 0.4798(2)
H6 H 0.3429 0.1258 0.4956
C11 C 0.4753(2) 0.18546(11) 0.47346(14)
C12 C 0.77187(19) 0.24977(9) 0.40926(13)
C13 C 0.08637(18) 0.11644(9) 0.48383(13)
C14 C 0.07840(19) 0.05972(9) 0.43545(13)
C15 C 0.1461(2) 0.01318(10) 0.46196(14)
H7 H 0.1910 0.0171 0.5110
C16 C 0.1512(2) -0.04017(10) 0.41888(14)
H8 H 0.2012 -0.0712 0.4380
C17 C 0.0845(2) -0.04762(10) 0.34949(13)
C18 C 0.0121(2) -0.00061(10) 0.31874(14)
C19 C -0.0503(3) -0.00555(12) 0.24366(17)
H9 H -0.0445 -0.0410 0.2133
C20 C -0.1187(3) 0.03991(14) 0.21426(19)
H10 H -0.1600 0.0359 0.1639
C21 C -0.1277(3) 0.09284(13) 0.25890(19)
H11 H -0.1775 0.1238 0.2393
C22 C -0.0652(2) 0.09984(11) 0.33025(16)
H12 H -0.0709 0.1361 0.3589
C23 C 0.0080(2) 0.05401(10) 0.36223(14)
C24 C 0.0885(2) -0.10615(9) 0.30657(13)
C25 C -0.0273(2) 0.37927(9) 0.44035(13)
C26 C -0.0130(2) 0.44200(10) 0.47086(14)
C27 C -0.1113(3) 0.47893(12) 0.47427(18)
C28 C -0.2398(5) 0.4583(3) 0.4525(5)
H13 H -0.2565 0.4178 0.4356
C29 C -0.3362(6) 0.4936(3) 0.4619(7)
H14 H -0.4071 0.4792 0.4325
C30 C -0.3238(6) 0.5508(3) 0.4918(7)
H15 H -0.4147 0.5772 0.5041
C31 C -0.2145(5) 0.5728(2) 0.5147(5)
H16 H -0.2044 0.6135 0.5268
C32 C -0.0977(3) 0.53760(12) 0.50430(18)
C33 C 0.1474(2) 0.24907(10) 0.80629(13)
H17 H 0.1991 0.2762 0.8332
C34 C -0.0603(2) 0.26280(10) 0.62862(13)
H18 H -0.0967 0.2943 0.5992
O15 O 0.26079(18) 0.11590(9) 0.70315(12)
N1 N 0.4401(9) 0.0659(5) 0.7061(7)
C35 C 0.3539(8) 0.1002(5) 0.6721(7)
H19 H 0.3660 0.1136 0.6188
C36 C 0.5473(8) 0.0522(4) 0.6767(6)
H20 H 0.5559 0.0714 0.6243
H21 H 0.5535 0.0092 0.6703
H22 H 0.6094 0.0661 0.7144
C37 C 0.4203(15) 0.0443(9) 0.7869(9)
H23 H 0.4872 0.0198 0.8052
H24 H 0.3483 0.0204 0.7865
H25 H 0.4122 0.0779 0.8236
O9B O -0.01431(14) 0.66090(7) 0.51533(9)
O10B O 0.07932(15) 0.62749(7) 0.62691(9)
C25B C 0.0273(2) 0.62073(9) 0.55965(13)
C26B C 0.0130(2) 0.55800(10) 0.52914(14)
C27B C 0.1113(3) 0.52107(12) 0.52573(18)
C28B C 0.2398(5) 0.5417(3) 0.5475(5)
H13B H 0.2565 0.5822 0.5644
C29B C 0.3362(6) 0.5064(3) 0.5381(7)
H14B H 0.4071 0.5208 0.5675
C30B C 0.3238(6) 0.4492(3) 0.5082(7)
H15B H 0.4147 0.4228 0.4959
C31B C 0.2145(5) 0.4272(2) 0.4853(5)
H16B H 0.2044 0.3865 0.4732
C32B C 0.0977(3) 0.46240(12) 0.49570(18)
Mg1B Mg -0.03806(6) -0.25065(3) 0.53138(4)
Mg2B Mg -0.14043(6) -0.17308(3) 0.35422(4)
Mg3B Mg 0.08342(6) -0.19180(3) 0.21319(4)
O1B O -0.21571(13) -0.26713(7) 0.51701(10)
O2B O -0.27789(14) -0.20891(7) 0.41494(9)
O3B O -0.77863(14) -0.26800(7) 0.66259(9)
O4B O -0.85601(14) -0.23745(7) 0.54423(9)
O5B O -0.11471(14) -0.11173(7) 0.44281(9)
O6B O -0.06945(15) -0.16445(7) 0.55279(9)
O7B O -0.18455(14) 0.12725(7) 0.71379(9)
O8B O 0.00770(14) 0.13338(7) 0.71074(9)
O11B O -0.05557(13) -0.23412(7) 0.15711(9)
O12B O -0.17601(14) -0.23182(7) 0.26082(9)
O13B O -0.01948(13) -0.23435(6) 0.40684(9)
O14B O 0.09541(14) -0.25386(7) 0.30267(9)
C1B C -0.29215(19) -0.23795(10) 0.47824(13)
C2B C -0.41552(19) -0.23915(10) 0.50982(13)
C3B C -0.4700(2) -0.29233(11) 0.52023(17)
H1B H -0.4281 -0.3268 0.5109
C4B C -0.5869(2) -0.29516(11) 0.54581(18)
H2B H -0.6208 -0.3319 0.5541
C5B C -0.64804(19) -0.24420(10) 0.56130(13)
C6B C -0.5935(2) -0.18808(10) 0.55263(14)
C7B C -0.6521(2) -0.13412(12) 0.57071(18)
H3B H -0.7310 -0.1353 0.5877
C8B C -0.5967(3) -0.08101(14) 0.5640(2)
H4B H -0.6374 -0.0456 0.5763
C9B C -0.4794(3) -0.07813(14) 0.5389(3)
H5B H -0.4413 -0.0409 0.5350
C10B C -0.4205(3) -0.12877(13) 0.5202(2)
H6B H -0.3429 -0.1258 0.5044
C11B C -0.4753(2) -0.18546(11) 0.52654(14)
C12B C -0.77187(19) -0.24977(9) 0.59074(13)
C13B C -0.08637(18) -0.11644(9) 0.51617(13)
C14B C -0.07840(19) -0.05972(9) 0.56455(13)
C15B C -0.1461(2) -0.01318(10) 0.53804(14)
H7B H -0.1910 -0.0171 0.4890
C16B C -0.1512(2) 0.04017(10) 0.58112(14)
H8B H -0.2012 0.0712 0.5620
C17B C -0.0845(2) 0.04762(10) 0.65051(13)
C18B C -0.0121(2) 0.00061(10) 0.68126(14)
C19B C 0.0503(3) 0.00555(12) 0.75634(17)
H9B H 0.0445 0.0410 0.7867
C20B C 0.1187(3) -0.03991(14) 0.78574(19)
H10B H 0.1600 -0.0359 0.8361
C21B C 0.1277(3) -0.09284(13) 0.74110(19)
H11B H 0.1775 -0.1238 0.7607
C22B C 0.0652(2) -0.09984(11) 0.66975(16)
H12B H 0.0709 -0.1361 0.6411
C23B C -0.0080(2) -0.05401(10) 0.63777(14)
C24B C -0.0885(2) 0.10615(9) 0.69343(13)
C33B C -0.1474(2) -0.24907(10) 0.19371(13)
H17B H -0.1991 -0.2762 0.1668
C34B C 0.0603(2) -0.26280(10) 0.37138(13)
H18B H 0.0967 -0.2943 0.4008
O15B O -0.26079(18) -0.11590(9) 0.29685(12)
N1B N -0.4401(9) -0.0659(5) 0.2939(7)
C35B C -0.3539(8) -0.1002(5) 0.3279(7)
H19B H -0.3660 -0.1136 0.3812
C36B C -0.5473(8) -0.0522(4) 0.3233(6)
H20B H -0.5559 -0.0714 0.3757
H21B H -0.5535 -0.0092 0.3297
H22B H -0.6094 -0.0661 0.2856
C37B C -0.4203(15) -0.0443(9) 0.2131(9)
H23B H -0.4872 -0.0198 0.1948
H24B H -0.3483 -0.0204 0.2135
H25B H -0.4122 -0.0779 0.1764
Mg1_2 Mg 1.03806(6) 0.25065(3) 0.46862(4)
Mg1A Mg -0.03806(6) -0.24935(3) 0.03138(4)
Mg1B_2 Mg -1.03806(6) -0.25065(3) 0.53138(4)
Mg1B_3 Mg -0.03806(6) 0.74935(3) 0.53138(4)
Mg1C Mg 0.03806(6) 0.24935(3) 0.96862(4)
Mg3A Mg -0.91658(6) -0.30820(3) 0.71319(4)
Mg3A_2 Mg 0.08342(6) 0.69180(3) 0.71319(4)
Mg3C Mg -0.08342(6) 0.30820(3) 0.28681(4)
Mg3C_2 Mg 0.91658(6) 0.30820(3) 0.28681(4)
O3A O 0.22137(14) -0.23200(7) 0.16259(9)
O3C O -0.22137(14) 0.23200(7) 0.83741(9)
O4_2 O -0.14399(14) 0.23745(7) 0.45577(9)
O4B_2 O 0.14399(14) -0.23745(7) 0.54423(9)
O9B_2 O -0.01431(14) -0.33910(7) 0.51533(9)
O10A O 0.07932(15) -0.12749(7) 0.12691(9)
O10C O -0.07932(15) 0.12749(7) 0.87309(9)
O11A O -0.05557(13) -0.26588(7) 0.65711(9)
O11C O 0.05557(13) 0.26588(7) 0.34289(9)
N4? N 0.5793(8) 0.2529(4) 0.2343(5)
H41? H 0.5609 0.2134 0.2296
H42? H 0.6402 0.2562 0.2719
C43? C 0.6204(10) 0.2733(5) 0.1576(6)
H43? H 0.6821 0.2467 0.1393
H44? H 0.6522 0.3134 0.1636
H45? H 0.5547 0.2736 0.1178
C44? C 0.4785(6) 0.2836(6) 0.2646(4)
H46? H 0.4404 0.2586 0.3044
H47? H 0.4225 0.2921 0.2199
H48? H 0.5040 0.3208 0.2900
O18? O 0.3954(9) 0.4425(4) 0.4796(7)
N5? N 0.388(2) 0.0465(8) 0.7482(15)
C45? C 0.3001(16) 0.0672(7) 0.7003(13)
H49? H 0.2668 0.0410 0.6610
C46? C 0.431(3) 0.0836(11) 0.8145(17)
H50? H 0.4028 0.1242 0.8065
H51? H 0.5177 0.0835 0.8160
H52? H 0.4032 0.0681 0.8655
C47? C 0.385(3) -0.0153(8) 0.7740(19)
H53? H 0.3392 -0.0386 0.7343
H54? H 0.3483 -0.0179 0.8265
H55? H 0.4654 -0.0308 0.7785
N6? N 0.3491(16) 0.0565(8) 0.7966(13)
C48? C 0.2756(14) 0.0975(8) 0.7678(10)
H56? H 0.2268 0.1147 0.8068
C49? C 0.369(2) 0.0430(13) 0.8767(13)
H57? H 0.3205 0.0689 0.9098
H58? H 0.4519 0.0489 0.8914
H59? H 0.3471 0.0017 0.8862
C50? C 0.407(2) 0.0196(12) 0.7392(16)
H60? H 0.4555 -0.0100 0.7681
H61? H 0.4576 0.0441 0.7060
H62? H 0.3481 -0.0004 0.7046
O19? O 0.4419(13) -0.0029(7) 0.7962(11)
N7? N 0.6280(12) 0.0471(7) 0.8276(8)
C51? C 0.5427(11) 0.0286(7) 0.7713(8)
H63? H 0.5520 0.0363 0.7149
C52? C 0.718(2) 0.0834(13) 0.8043(13)
H64? H 0.7662 0.0936 0.8506
H65? H 0.7614 0.0591 0.7686
H66? H 0.6927 0.1188 0.7768
C53? C 0.6117(10) 0.0370(6) 0.9073(7)
H67? H 0.6763 0.0532 0.9387
H68? H 0.5396 0.0547 0.9236
H69? H 0.6083 -0.0050 0.9155
H70? H -0.1727 0.4610 0.4581
H71? H -0.1493 0.5618 0.5060
loop_
_geom_bond_atom_site_label_1
_geom_bond_atom_site_label_2
_geom_bond_site_symmetry_1
_geom_bond_site_symmetry_2
Mg1 O1 1_555 1_555
Mg2 O2 1_555 1_555
Mg3 O11 1_555 1_555
O1 C1 1_555 1_555
O2 C1 1_555 1_555
O3 C12 1_555 1_555
O4 C12 1_555 1_555
O5 Mg2 1_555 1_555
O6 Mg1 1_555 1_555
O7 C24 1_555 1_555
O8 C24 1_555 1_555
O9 Mg1 1_555 1_555
O10 C25 1_555 1_555
O11 C33 1_555 1_555
O12 Mg2 1_555 1_555
O13 Mg1 1_555 1_555
O14 Mg3 1_555 1_555
C1 C2 1_555 1_555
C2 C3 1_555 1_555
C3 H1 1_555 1_555
C4 C3 1_555 1_555
H2 C4 1_555 1_555
C5 C4 1_555 1_555
C6 C5 1_555 1_555
C7 C6 1_555 1_555
H3 C7 1_555 1_555
C8 C7 1_555 1_555
H4 C8 1_555 1_555
C9 C8 1_555 1_555
H5 C9 1_555 1_555
C10 C9 1_555 1_555
H6 C10 1_555 1_555
C11 C2 1_555 1_555
C12 C5 1_555 1_555
C13 O5 1_555 1_555
C14 C13 1_555 1_555
C15 C14 1_555 1_555
H7 C15 1_555 1_555
C16 C15 1_555 1_555
H8 C16 1_555 1_555
C17 C16 1_555 1_555
C18 C17 1_555 1_555
C19 C18 1_555 1_555
H9 C19 1_555 1_555
C20 C19 1_555 1_555
H10 C20 1_555 1_555
C21 C20 1_555 1_555
H11 C21 1_555 1_555
C22 C21 1_555 1_555
H12 C22 1_555 1_555
C23 C14 1_555 1_555
C24 C17 1_555 1_555
C25 O9 1_555 1_555
C26 C25 1_555 1_555
C27 C26 1_555 1_555
C28 C27 1_555 1_555
H13 C28 1_555 1_555
C29 C28 1_555 1_555
H14 C29 1_555 1_555
C30 C29 1_555 1_555
H15 C30 1_555 1_555
C31 C30 1_555 1_555
H16 C31 1_555 1_555
C32 C27 1_555 1_555
C33 O12 1_555 1_555
H17 C33 1_555 1_555
C34 O13 1_555 1_555
H18 C34 1_555 1_555
O15 Mg2 1_555 1_555
N1 C35 1_555 1_555
C35 O15 1_555 1_555
H19 C35 1_555 1_555
C36 N1 1_555 1_555
H20 C36 1_555 1_555
H21 C36 1_555 1_555
H22 C36 1_555 1_555
C37 N1 1_555 1_555
H23 C37 1_555 1_555
H24 C37 1_555 1_555
H25 C37 1_555 1_555
O16 C38 1_555 1_555
N2 C38 1_555 1_555
C38 H26 1_555 1_555
C39 N2 1_555 1_555
H27 C39 1_555 1_555
H28 C39 1_555 1_555
H29 C39 1_555 1_555
C40 N2 1_555 1_555
H30 C40 1_555 1_555
H31 C40 1_555 1_555
H32 C40 1_555 1_555
N3 H33 1_555 1_555
H34 N3 1_555 1_555
C41 N3 1_555 1_555
H35 C41 1_555 1_555
H36 C41 1_555 1_555
H37 C41 1_555 1_555
C42 N3 1_555 1_555
H38 C42 1_555 1_555
H39 C42 1_555 1_555
H40 C42 1_555 1_555
O9B C25B 1_555 1_555
O10B C25B 1_555 1_555
C25B C26B 1_555 1_555
C26B C32 1_555 1_555
C27B C26B 1_555 1_555
C28B C27B 1_555 1_555
H13B C28B 1_555 1_555
C29B C28B 1_555 1_555
H14B C29B 1_555 1_555
C30B C29B 1_555 1_555
H15B C30B 1_555 1_555
C31B C30B 1_555 1_555
H16B C31B 1_555 1_555
C32B C26 1_555 1_555
Mg1B O1B 1_555 1_555
Mg2B O8 1_555 1_555
Mg3B O7 1_555 1_555
O1B C1B 1_555 1_555
O2B Mg2B 1_555 1_555
O3B C12B 1_555 1_555
O4B C12B 1_555 1_555
O5B Mg2B 1_555 1_555
O6B Mg1B 1_555 1_555
O7B Mg3 1_555 1_555
O8B Mg2 1_555 1_555
O11B Mg3B 1_555 1_555
O12B Mg2B 1_555 1_555
O13B Mg1B 1_555 1_555
O14B Mg3B 1_555 1_555
C1B O2B 1_555 1_555
C2B C1B 1_555 1_555
C3B C2B 1_555 1_555
H1B C3B 1_555 1_555
C4B C3B 1_555 1_555
H2B C4B 1_555 1_555
C5B C4B 1_555 1_555
C6B C5B 1_555 1_555
C7B C6B 1_555 1_555
H3B C7B 1_555 1_555
C8B C7B 1_555 1_555
H4B C8B 1_555 1_555
C9B C8B 1_555 1_555
H5B C9B 1_555 1_555
C10B C9B 1_555 1_555
H6B C10B 1_555 1_555
C11B C2B 1_555 1_555
C12B C5B 1_555 1_555
C13B O5B 1_555 1_555
C14B C13B 1_555 1_555
C15B C14B 1_555 1_555
H7B C15B 1_555 1_555
C16B C15B 1_555 1_555
H8B C16B 1_555 1_555
C17B C16B 1_555 1_555
C18B C17B 1_555 1_555
C19B C18B 1_555 1_555
H9B C19B 1_555 1_555
C20B C19B 1_555 1_555
H10B C20B 1_555 1_555
C21B C20B 1_555 1_555
H11B C21B 1_555 1_555
C22B C21B 1_555 1_555
H12B C22B 1_555 1_555
C23B C14B 1_555 1_555
C24B O7B 1_555 1_555
C33B O11B 1_555 1_555
H17B C33B 1_555 1_555
C34B O13B 1_555 1_555
H18B C34B 1_555 1_555
O15B Mg2B 1_555 1_555
N1B C35B 1_555 1_555
C35B O15B 1_555 1_555
H19B C35B 1_555 1_555
C36B N1B 1_555 1_555
H20B C36B 1_555 1_555
H21B C36B 1_555 1_555
H22B C36B 1_555 1_555
C37B N1B 1_555 1_555
H23B C37B 1_555 1_555
H24B C37B 1_555 1_555
H25B C37B 1_555 1_555
Mg1_2 O4 1_555 1_555
Mg1A O11B 1_555 1_555
Mg1B_2 O4B 1_555 1_555
Mg1B_3 O9B 1_555 1_555
Mg1C O11 1_555 1_555
Mg3A O3B 1_555 1_555
Mg3A_2 O10B 1_555 1_555
Mg3C O10 1_555 1_555
Mg3C_2 O3 1_555 1_555
O3A Mg3B 1_555 1_555
O3C Mg3 1_555 1_555
O4_2 Mg1 1_555 1_555
O4B_2 Mg1B 1_555 1_555
O9B_2 Mg1B 1_555 1_555
O10A Mg3B 1_555 1_555
O10C Mg3 1_555 1_555
O11A Mg1B 1_555 1_555
O11C Mg1 1_555 1_555
Mg2 O13 1_555 1_555
Mg3 O8B 1_555 1_555
O6 C13 1_555 1_555
O8 Mg3B 1_555 1_555
O14 C34 1_555 1_555
C6 C11 1_555 1_555
C10 C11 1_555 1_555
C18 C23 1_555 1_555
C22 C23 1_555 1_555
C31 C32 1_555 1_555
C27B C32B 1_555 1_555
C31B C32B 1_555 1_555
Mg2B O13B 1_555 1_555
O6B C13B 1_555 1_555
O8B C24B 1_555 1_555
O12B C33B 1_555 1_555
O14B C34B 1_555 1_555
C6B C11B 1_555 1_555
C10B C11B 1_555 1_555
C17B C24B 1_555 1_555
C18B C23B 1_555 1_555
C22B C23B 1_555 1_555
Mg3C O11C 1_555 1_555

#END
