
#######################################################################
#
#                 Cambridge Crystallographic Data Centre
#                                CCDC 
#
#######################################################################
#
# If this CIF has been generated from an entry in the Cambridge 
# Structural Database, then it will include bibliographic, chemical, 
# crystal, experimental, refinement or atomic coordinate data resulting 
# from the CCDC's data processing and validation procedures.
#
#######################################################################

data_ZOZWUI
_symmetry_cell_setting           monoclinic
_symmetry_space_group_name_H-M   'C 2/c'
_symmetry_Int_Tables_number      15
_space_group_name_Hall           '-C 2yn'
loop_
_symmetry_equiv_pos_site_id
_symmetry_equiv_pos_as_xyz
1 x,y,z
2 -x,y,1/2-z
3 1/2+x,1/2+y,z
4 1/2-x,1/2+y,1/2-z
5 -x,-y,-z
6 x,-y,1/2+z
7 1/2-x,1/2-y,-z
8 1/2+x,1/2-y,1/2+z
_cell_length_a                   19.2399(9)
_cell_length_b                   31.1190(14)
_cell_length_c                   15.4479(7)
_cell_angle_alpha                90
_cell_angle_beta                 120.3890(10)
_cell_angle_gamma                90
_cell_volume                     7978.34
loop_
_atom_site_label
_atom_site_type_symbol
_atom_site_fract_x
_atom_site_fract_y
_atom_site_fract_z
Cd1 Cd 0.65362(2) 0.128532(10) 0.59447(2)
N1 N 0.9851(6) -0.1717(4) 0.8466(8)
N2 N 0.9723(5) -0.1055(3) 0.8967(7)
N3 N 0.6120(3) 0.05961(13) 0.6086(3)
N4 N 0.6099(3) -0.01152(13) 0.6181(3)
N5 N 0.7185(2) 0.19509(13) 0.6145(3)
N6 N 0.7421(2) 0.26529(12) 0.6482(3)
N7 N 0.7887(3) 0.36981(13) 1.2273(3)
N8 N 0.7598(3) 0.33793(13) 1.0828(3)
O1 O 0.6643(3) -0.11302(18) 0.9562(4)
O2 O 0.7678(3) -0.08224(15) 1.0704(4)
O3 O 1.0224(3) 0.35657(16) 0.9551(4)
O4 O 1.0400(2) 0.32705(15) 1.0893(3)
C1 C 0.8476(4) -0.06730(18) 0.8612(5)
C2 C 0.7855(4) -0.06081(18) 0.7624(5)
H1 H 0.7982 -0.0538 0.7135
C3 C 0.7056(4) -0.06454(16) 0.7360(5)
C4 C 0.6875(4) -0.07629(16) 0.8089(5)
H2 H 0.6341 -0.0809 0.7908
C5 C 0.7488(4) -0.08142(18) 0.9104(5)
C6 C 0.8283(4) -0.07767(18) 0.9329(5)
H3 H 0.8696 -0.0823 0.9985
C7 C 0.9337(5) -0.0643(2) 0.8842(7)
H4 H 0.9346 -0.0488 0.8302
H5 H 0.9646 -0.0477 0.9452
C8 C 0.9557(8) -0.1344(4) 0.8191(11)
H6 H 0.9250 -0.1267 0.7518
C9 C 1.0170(5) -0.1698(3) 0.9437(7)
C10 C 1.0138(4) -0.1291(2) 0.9841(5)
C11 C 1.0543(4) -0.1225(3) 1.0860(5)
C12 C 1.0944(5) -0.1558(3) 1.1461(7)
H7 H 1.1215 -0.1523 1.2154
C13 C 1.0959(6) -0.1950(3) 1.1064(8)
H8 H 1.1237 -0.2174 1.1500
C14 C 1.0597(5) -0.2022(3) 1.0088(7)
H9 H 1.0633 -0.2290 0.9847
C15 C 0.6403(4) -0.05599(18) 0.6307(5)
H10 H 0.6609 -0.0609 0.5857
H11 H 0.5963 -0.0759 0.6126
C16 C 0.6467(3) 0.02380(17) 0.6095(4)
H12 H 0.6928 0.0225 0.6045
C17 C 0.5472(3) 0.04739(17) 0.6191(4)
C18 C 0.5441(3) 0.00252(16) 0.6226(4)
C19 C 0.4841(4) -0.0190(2) 0.6284(4)
H13 H 0.4834 -0.0488 0.6320
C20 C 0.4253(4) 0.0061(2) 0.6287(4)
H14 H 0.3828 -0.0073 0.6305
C21 C 0.4273(4) 0.0501(2) 0.6264(4)
H15 H 0.3863 0.0657 0.6271
C22 C 0.4883(4) 0.07224(19) 0.6231(4)
H16 H 0.4900 0.1021 0.6235
C23 C 0.7258(5) -0.0934(2) 0.9887(6)
C24 C 0.7832(3) 0.31274(14) 0.7947(4)
C25 C 0.7465(3) 0.30625(15) 0.8509(4)
H17 H 0.6919 0.2994 0.8182
C26 C 0.7885(3) 0.30965(15) 0.9545(4)
C27 C 0.8702(3) 0.31812(16) 1.0022(4)
H18 H 0.8998 0.3193 1.0719
C28 C 0.9086(3) 0.32487(17) 0.9484(4)
C29 C 0.8643(3) 0.32306(15) 0.8441(4)
H19 H 0.8894 0.3288 0.8074
C30 C 0.7348(3) 0.30844(16) 0.6799(4)
H20 H 0.6785 0.3146 0.6559
H21 H 0.7543 0.3293 0.6504
C31 C 0.6940(3) 0.23114(17) 0.6348(4)
H22 H 0.6478 0.2330 0.6395
C32 C 0.7880(3) 0.20672(16) 0.6138(3)
C33 C 0.8034(3) 0.24994(16) 0.6339(3)
C34 C 0.8682(3) 0.27074(19) 0.6353(4)
H23 H 0.8773 0.3000 0.6484
C35 C 0.9171(4) 0.2460(2) 0.6166(5)
H24 H 0.9609 0.2585 0.6163
C36 C 0.9029(4) 0.2023(2) 0.5977(5)
H25 H 0.9383 0.1865 0.5859
C37 C 0.8404(3) 0.18140(19) 0.5956(4)
H26 H 0.8323 0.1521 0.5829
C38 C 0.7471(4) 0.30337(18) 1.0144(4)
H27 H 0.6897 0.3003 0.9683
H28 H 0.7663 0.2769 1.0522
C39 C 0.7926(4) 0.33465(17) 1.1837(4)
H29 H 0.8160 0.3095 1.2189
C40 C 0.7504(3) 0.39910(16) 1.1495(4)
C41 C 0.7317(4) 0.37960(16) 1.0588(4)
C42 C 0.6918(4) 0.4006(2) 0.9673(4)
H30 H 0.6803 0.3869 0.9079
C43 C 0.6702(5) 0.4423(2) 0.9682(5)
H31 H 0.6427 0.4573 0.9080
C44 C 0.6881(5) 0.4623(2) 1.0553(5)
H32 H 0.6737 0.4910 1.0527
C45 C 0.7267(4) 0.44196(18) 1.1478(5)
H33 H 0.7366 0.4560 1.2060
C46 C 0.9979(3) 0.33684(18) 1.0004(4)
Cd1E Cd 0.65362(2) -0.128532(10) 1.09447(2)
Cd1F Cd 0.84638(2) 0.371468(10) 1.40553(2)
Cd1G Cd 1.15362(2) 0.371468(10) 1.09447(2)
N7F N 0.7113(3) 0.13019(13) 0.7727(3)
O1E O 0.6643(3) 0.11302(18) 0.4562(4)
O2E O 0.7678(3) 0.08224(15) 0.5704(4)
O3G O 0.5224(3) 0.14343(16) 0.4551(4)
O4G O 0.5400(2) 0.17295(15) 0.5893(3)
O5 O 0.9359(4) 0.2605(2) 0.2658(5)
O6 O 0.8910(12) 0.9681(4) 0.2046(11)
O7 O 0.5000 0.8727(4) 0.7500
N9? N 1.0565(11) -0.0834(7) 1.1254(15)
N10? N 0.9866(9) -0.0836(4) 0.9734(11)
H34? H 0.9391 -0.0783 0.8319
H35? H 0.9475 -0.0342 0.8853
C47? C 1.0127(13) -0.0636(8) 1.0575(18)
H36? H 0.9972 -0.0358 1.0621
loop_
_geom_bond_atom_site_label_1
_geom_bond_atom_site_label_2
_geom_bond_site_symmetry_1
_geom_bond_site_symmetry_2
Cd1 N3 1_555 1_555
N1 C8 1_555 1_555
N2 C7 1_555 1_555
N3 C16 1_555 1_555
N4 C15 1_555 1_555
N5 Cd1 1_555 1_555
N6 C30 1_555 1_555
N7 C39 1_555 1_555
N8 C38 1_555 1_555
O1 C23 1_555 1_555
O2 C23 1_555 1_555
O3 C46 1_555 1_555
O4 C46 1_555 1_555
C1 C2 1_555 1_555
C2 H1 1_555 1_555
C3 C2 1_555 1_555
C4 C3 1_555 1_555
H2 C4 1_555 1_555
C5 C4 1_555 1_555
C6 C1 1_555 1_555
H3 C6 1_555 1_555
C7 C1 1_555 1_555
H4 C7 1_555 1_555
H5 C7 1_555 1_555
C8 N2 1_555 1_555
H6 C8 1_555 1_555
C9 N1 1_555 1_555
C10 N2 1_555 1_555
C11 C10 1_555 1_555
C12 C11 1_555 1_555
H7 C12 1_555 1_555
C13 C12 1_555 1_555
H8 C13 1_555 1_555
C14 C9 1_555 1_555
H9 C14 1_555 1_555
C15 C3 1_555 1_555
H10 C15 1_555 1_555
H11 C15 1_555 1_555
C16 N4 1_555 1_555
H12 C16 1_555 1_555
C17 N3 1_555 1_555
C18 N4 1_555 1_555
C19 C18 1_555 1_555
H13 C19 1_555 1_555
C20 C19 1_555 1_555
H14 C20 1_555 1_555
C21 C20 1_555 1_555
H15 C21 1_555 1_555
C22 C17 1_555 1_555
H16 C22 1_555 1_555
C23 C5 1_555 1_555
C24 C25 1_555 1_555
C25 H17 1_555 1_555
C26 C25 1_555 1_555
C27 C26 1_555 1_555
H18 C27 1_555 1_555
C28 C27 1_555 1_555
C29 C24 1_555 1_555
H19 C29 1_555 1_555
C30 C24 1_555 1_555
H20 C30 1_555 1_555
H21 C30 1_555 1_555
C31 N5 1_555 1_555
H22 C31 1_555 1_555
C32 N5 1_555 1_555
C33 N6 1_555 1_555
C34 C33 1_555 1_555
H23 C34 1_555 1_555
C35 C34 1_555 1_555
H24 C35 1_555 1_555
C36 C35 1_555 1_555
H25 C36 1_555 1_555
C37 C32 1_555 1_555
H26 C37 1_555 1_555
C38 C26 1_555 1_555
H27 C38 1_555 1_555
H28 C38 1_555 1_555
C39 N8 1_555 1_555
H29 C39 1_555 1_555
C40 N7 1_555 1_555
C41 N8 1_555 1_555
C42 C41 1_555 1_555
H30 C42 1_555 1_555
C43 C42 1_555 1_555
H31 C43 1_555 1_555
C44 C43 1_555 1_555
H32 C44 1_555 1_555
C45 C40 1_555 1_555
H33 C45 1_555 1_555
C46 C28 1_555 1_555
Cd1E O1 1_555 1_555
Cd1F N7 1_555 1_555
Cd1G O3 1_555 1_555
N7F Cd1 1_555 1_555
O1E Cd1 1_555 1_555
O2E Cd1 1_555 1_555
O3G Cd1 1_555 1_555
O4G Cd1 1_555 1_555
N6 C31 1_555 1_555
O2 Cd1E 1_555 1_555
O4 Cd1G 1_555 1_555
C5 C6 1_555 1_555
C9 C10 1_555 1_555
C13 C14 1_555 1_555
C17 C18 1_555 1_555
C21 C22 1_555 1_555
C28 C29 1_555 1_555
C32 C33 1_555 1_555
C36 C37 1_555 1_555
C40 C41 1_555 1_555
C44 C45 1_555 1_555

#END
