
#######################################################################
#
#                 Cambridge Crystallographic Data Centre
#                                CCDC 
#
#######################################################################
#
# If this CIF has been generated from an entry in the Cambridge 
# Structural Database, then it will include bibliographic, chemical, 
# crystal, experimental, refinement or atomic coordinate data resulting 
# from the CCDC's data processing and validation procedures.
#
#######################################################################

data_ZOZWAO
_symmetry_cell_setting           orthorhombic
_symmetry_space_group_name_H-M   'P 21 21 21'
_symmetry_Int_Tables_number      19
_space_group_name_Hall           'P 2ac 2ab'
loop_
_symmetry_equiv_pos_site_id
_symmetry_equiv_pos_as_xyz
1 x,y,z
2 1/2-x,-y,1/2+z
3 1/2+x,1/2-y,-z
4 -x,1/2+y,1/2-z
_cell_length_a                   7.3228(12)
_cell_length_b                   9.0811(15)
_cell_length_c                   16.657(3)
_cell_angle_alpha                90
_cell_angle_beta                 90
_cell_angle_gamma                90
_cell_volume                     1107.68
loop_
_atom_site_label
_atom_site_type_symbol
_atom_site_fract_x
_atom_site_fract_y
_atom_site_fract_z
Pb1 Pb 0.24175(7) 0.12984(5) -0.02502(2)
O1 O 0.2386(19) 0.3495(12) -0.1440(7)
O2 O 0.0981(15) 0.3434(16) 0.0499(8)
O3 O 0.3862(16) 0.3369(16) 0.0464(9)
O4 O 0.636(3) 0.530(2) 0.3948(9)
O5 O 0.924(3) 0.510(2) 0.4064(10)
H1 H 0.3428 0.3830 -0.1308
H2 H 0.1446 0.3804 -0.1317
C1 C 0.7135(16) 0.5361(11) 0.2215(5)
C2 C 0.7993(14) 0.6552(12) 0.1851(6)
H3 H 0.9183 0.6798 0.1992
C3 C 0.7072(16) 0.7375(11) 0.1275(7)
H4 H 0.7646 0.8171 0.1031
C4 C 0.5293(16) 0.7007(9) 0.1064(6)
H5 H 0.4677 0.7557 0.0679
C5 C 0.4435(13) 0.5816(8) 0.1428(5)
C6 C 0.5356(15) 0.4993(8) 0.2004(5)
H6 H 0.4782 0.4197 0.2248
C7 C 0.2433(13) 0.5350(12) 0.1208(8)
H7 H 0.1757 0.5158 0.1698
H8 H 0.1837 0.6156 0.0930
C8 C 0.239(2) 0.3994(14) 0.0684(8)
C9 C 0.808(4) 0.442(2) 0.2823(8)
H9 H 0.9382 0.4417 0.2724
H10 H 0.7639 0.3411 0.2781
C10 C 0.769(5) 0.501(3) 0.3650(10)
Pb1B Pb -0.25825(7) 0.37016(5) 0.02502(2)
Pb1B_2 Pb 0.74175(7) 0.37016(5) 0.02502(2)
Pb1C Pb 0.75825(7) 0.62984(5) 0.52502(2)
O2B O 0.5981(15) 0.1566(16) -0.0499(8)
O3B O -0.1138(16) 0.1631(16) -0.0464(9)
O4C O 0.364(3) 0.030(2) 0.1052(9)
O5C O 0.076(3) 0.010(2) 0.0936(10)
loop_
_geom_bond_atom_site_label_1
_geom_bond_atom_site_label_2
_geom_bond_site_symmetry_1
_geom_bond_site_symmetry_2
Pb1 O1 1_555 1_555
O1 H1 1_555 1_555
O2 Pb1 1_555 1_555
O3 Pb1 1_555 1_555
O4 C10 1_555 1_555
O5 C10 1_555 1_555
H2 O1 1_555 1_555
C1 C2 1_555 1_555
C2 H3 1_555 1_555
C3 C2 1_555 1_555
H4 C3 1_555 1_555
C4 C3 1_555 1_555
H5 C4 1_555 1_555
C5 C4 1_555 1_555
C6 C1 1_555 1_555
H6 C6 1_555 1_555
C7 C5 1_555 1_555
H7 C7 1_555 1_555
H8 C7 1_555 1_555
C8 O2 1_555 1_555
C9 C1 1_555 1_555
H9 C9 1_555 1_555
H10 C9 1_555 1_555
C10 C9 1_555 1_555
Pb1B O2 1_555 1_555
Pb1B_2 O3 1_555 1_555
Pb1C O4 1_555 1_555
O2B Pb1 1_555 1_555
O3B Pb1 1_555 1_555
O4C Pb1 1_555 1_555
O5C Pb1 1_555 1_555
O3 C8 1_555 1_555
O5 Pb1C 1_555 1_555
C5 C6 1_555 1_555
C7 C8 1_555 1_555
Pb1B O3B 1_555 1_555
Pb1B_2 O2B 1_555 1_555

#END
