
#######################################################################
#
#                 Cambridge Crystallographic Data Centre
#                                CCDC 
#
#######################################################################
#
# If this CIF has been generated from an entry in the Cambridge 
# Structural Database, then it will include bibliographic, chemical, 
# crystal, experimental, refinement or atomic coordinate data resulting 
# from the CCDC's data processing and validation procedures.
#
#######################################################################

data_ZOZWAO01
_symmetry_cell_setting           orthorhombic
_symmetry_space_group_name_H-M   'P 21 21 21'
_symmetry_Int_Tables_number      19
_space_group_name_Hall           'P 2ac 2ab'
loop_
_symmetry_equiv_pos_site_id
_symmetry_equiv_pos_as_xyz
1 x,y,z
2 1/2-x,-y,1/2+z
3 1/2+x,1/2-y,-z
4 -x,1/2+y,1/2-z
_cell_length_a                   7.3259(7)
_cell_length_b                   9.0626(9)
_cell_length_c                   16.6368(16)
_cell_angle_alpha                90
_cell_angle_beta                 90
_cell_angle_gamma                90
_cell_volume                     1104.55
loop_
_atom_site_label
_atom_site_type_symbol
_atom_site_fract_x
_atom_site_fract_y
_atom_site_fract_z
Pb1 Pb 0.73923(7) 0.87012(6) 0.52438(3)
C1 C 0.736(3) 0.463(2) 0.3799(12)
H1 H 0.6674 0.4817 0.3312
H2 H 0.6775 0.3825 0.4086
O1 O 0.741(2) 0.6502(13) 0.6420(8)
C2 C 1.307(7) 0.562(3) 0.2190(12)
H3 H 1.4377 0.5643 0.2288
H4 H 1.2598 0.6615 0.2237
O2 O 0.5985(16) 0.661(2) 0.4493(9)
O3 O 0.8831(17) 0.6554(18) 0.4570(11)
C3 C 0.739(2) 0.6005(15) 0.4323(8)
C4 C 1.035(2) 0.2979(11) 0.3937(5)
H5 H 0.9744 0.2427 0.4325
C5 C 0.9470(16) 0.4156(13) 0.3567(5)
C6 C 1.0375(15) 0.4982(9) 0.2986(5)
H6 H 0.9787 0.5769 0.2739
C7 C 1.2159(13) 0.4630(8) 0.2776(4)
C8 C 1.3038(15) 0.3453(12) 0.3146(5)
H7 H 1.4232 0.3217 0.3005
C9 C 1.213(2) 0.2627(12) 0.3726(5)
H8 H 1.2721 0.1839 0.3974
O4 O 1.1317(18) 0.4671(14) 0.1019(4)
C10 C 1.2673(16) 0.4995(10) 0.1350(4)
O5 O 1.4160(18) 0.4839(14) 0.0999(6)
Pb1B Pb 0.23923(7) 0.62988(6) 0.47562(3)
Pb1B_2 Pb 1.23923(7) 0.62988(6) 0.47562(3)
Pb1C Pb 1.26077(7) 0.37012(6) -0.02438(3)
O2B O 1.0985(16) 0.839(2) 0.5507(9)
O3B O 0.3831(17) 0.8446(18) 0.5430(11)
O4C O 0.8683(18) 0.9671(14) 0.3981(4)
O5C O 0.5840(18) 0.9839(14) 0.4001(6)
loop_
_geom_bond_atom_site_label_1
_geom_bond_atom_site_label_2
_geom_bond_site_symmetry_1
_geom_bond_site_symmetry_2
Pb1 O1 1_555 1_555
C1 H1 1_555 1_555
H2 C1 1_555 1_555
C2 H3 1_555 1_555
H4 C2 1_555 1_555
O2 Pb1 1_555 1_555
O3 Pb1 1_555 1_555
C3 C1 1_555 1_555
C4 H5 1_555 1_555
C5 C1 1_555 1_555
C6 C5 1_555 1_555
H6 C6 1_555 1_555
C7 C2 1_555 1_555
C8 C7 1_555 1_555
H7 C8 1_555 1_555
C9 C4 1_555 1_555
H8 C9 1_555 1_555
O4 C10 1_555 1_555
C10 C2 1_555 1_555
O5 C10 1_555 1_555
Pb1B O2 1_555 1_555
Pb1B_2 O3 1_555 1_555
Pb1C O4 1_555 1_555
O2B Pb1 1_555 1_555
O3B Pb1 1_555 1_555
O4C Pb1 1_555 1_555
O5C Pb1 1_555 1_555
O2 C3 1_555 1_555
O3 C3 1_555 1_555
C4 C5 1_555 1_555
C6 C7 1_555 1_555
C8 C9 1_555 1_555
O5 Pb1C 1_555 1_555
Pb1B O3B 1_555 1_555
Pb1B_2 O2B 1_555 1_555

#END
