
#######################################################################
#
#                 Cambridge Crystallographic Data Centre
#                                CCDC 
#
#######################################################################
#
# If this CIF has been generated from an entry in the Cambridge 
# Structural Database, then it will include bibliographic, chemical, 
# crystal, experimental, refinement or atomic coordinate data resulting 
# from the CCDC's data processing and validation procedures.
#
#######################################################################

data_ZOZXOD
_symmetry_cell_setting           monoclinic
_symmetry_space_group_name_H-M   'C 2/c'
_symmetry_Int_Tables_number      15
_space_group_name_Hall           '-C 2yn'
loop_
_symmetry_equiv_pos_site_id
_symmetry_equiv_pos_as_xyz
1 x,y,z
2 -x,y,1/2-z
3 1/2+x,1/2+y,z
4 1/2-x,1/2+y,1/2-z
5 -x,-y,-z
6 x,-y,1/2+z
7 1/2-x,1/2-y,-z
8 1/2+x,1/2-y,1/2+z
_cell_length_a                   25.355(5)
_cell_length_b                   10.802(5)
_cell_length_c                   18.594(5)
_cell_angle_alpha                90
_cell_angle_beta                 108.575(5)
_cell_angle_gamma                90
_cell_volume                     4827.33
loop_
_atom_site_label
_atom_site_type_symbol
_atom_site_fract_x
_atom_site_fract_y
_atom_site_fract_z
Cu1 Cu 0.365900(10) 0.18458(2) 0.050174(14)
N1 N 0.66610(7) 0.77290(18) 0.05873(10)
N2 N 0.71430(8) 0.65288(18) 0.15375(11)
N3 N 0.43657(8) 0.27697(17) 0.06141(11)
N4 N 0.52299(8) 0.31241(17) 0.06112(11)
O1 O 0.61897(7) 0.18954(14) 0.33722(9)
O2 O 0.68600(7) 0.31960(14) 0.39654(9)
O3 O 0.30850(6) 0.05826(14) 0.03970(9)
O4 O 0.37639(7) -0.06183(17) 0.03190(13)
C1 C 0.70394(9) 0.4419(2) 0.19257(13)
C2 C 0.66459(9) 0.4020(2) 0.12530(13)
H1 H 0.6662 0.4322 0.0792
C3 C 0.62326(9) 0.3187(2) 0.12559(13)
C4 C 0.62182(9) 0.2721(2) 0.19458(13)
H2 H 0.5949 0.2142 0.1955
C5 C 0.66025(9) 0.31109(19) 0.26226(13)
C6 C 0.70098(9) 0.3971(2) 0.26090(13)
H3 H 0.7263 0.4245 0.3062
C7 C 0.74484(9) 0.5419(2) 0.18955(14)
H4 H 0.7686 0.5614 0.2405
H5 H 0.7682 0.5130 0.1606
C8 C 0.70301(9) 0.6838(2) 0.08004(13)
H6 H 0.7196 0.6460 0.0478
C9 C 0.65246(10) 0.8050(2) 0.12317(13)
C10 C 0.68193(10) 0.7286(2) 0.18316(13)
C11 C 0.67666(12) 0.7394(3) 0.25525(15)
H7 H 0.6960 0.6874 0.2947
C12 C 0.64206(14) 0.8291(3) 0.26538(17)
H8 H 0.6377 0.8387 0.3129
C13 C 0.61309(13) 0.9069(3) 0.20646(17)
H9 H 0.5900 0.9675 0.2158
C14 C 0.61749(11) 0.8972(2) 0.13452(16)
H10 H 0.5980 0.9498 0.0955
C15 C 0.57763(9) 0.2894(3) 0.05250(14)
H11 H 0.5820 0.3406 0.0119
H12 H 0.5803 0.2034 0.0391
C16 C 0.47991(9) 0.2325(2) 0.04550(13)
H13 H 0.4808 0.1539 0.0255
C17 C 0.45217(9) 0.3965(2) 0.08979(13)
C18 C 0.50639(9) 0.4192(2) 0.08900(13)
C19 C 0.53321(10) 0.5316(2) 0.11381(16)
H14 H 0.5689 0.5471 0.1121
C20 C 0.50479(11) 0.6179(2) 0.14080(17)
H15 H 0.5216 0.6936 0.1579
C21 C 0.45102(11) 0.5952(2) 0.14328(17)
H16 H 0.4333 0.6553 0.1631
C22 C 0.42369(10) 0.4856(2) 0.11695(14)
H17 H 0.3876 0.4718 0.1173
C23 C 0.65559(9) 0.2712(2) 0.33717(13)
C24 C 0.30611(9) -0.2711(2) 0.03509(14)
H18 H 0.3439 -0.2855 0.0584
C25 C 0.28731(9) -0.15173(19) 0.01366(13)
C26 C 0.23107(9) -0.1309(2) -0.02193(13)
H19 H 0.2183 -0.0513 -0.0370
C27 C 0.32797(9) -0.0458(2) 0.02973(13)
O3F O 0.19150(6) -0.55826(14) -0.03970(9)
O4F O 0.12361(7) -0.43817(17) -0.03190(13)
C24F C 0.19389(9) -0.2289(2) -0.03509(14)
H18F H 0.1561 -0.2145 -0.0584
C25F C 0.21269(9) -0.34827(19) -0.01366(13)
C26F C 0.26893(9) -0.3691(2) 0.02193(13)
H19F H 0.2817 -0.4487 0.0370
C27F C 0.17203(9) -0.4542(2) -0.02973(13)
Cu1A Cu 0.634100(10) 0.18458(2) 0.449826(14)
N1A N 0.33390(7) 0.77290(18) 0.44127(10)
N2A N 0.28570(8) 0.65288(18) 0.34625(11)
N3A N 0.56343(8) 0.27697(17) 0.43859(11)
N4A N 0.47701(8) 0.31241(17) 0.43888(11)
O1A O 0.38103(7) 0.18954(14) 0.16278(9)
O2A O 0.31400(7) 0.31960(14) 0.10346(9)
C1A C 0.29606(9) 0.4419(2) 0.30743(13)
C2A C 0.33541(9) 0.4020(2) 0.37470(13)
H1A H 0.3338 0.4322 0.4208
C3A C 0.37674(9) 0.3187(2) 0.37441(13)
C4A C 0.37818(9) 0.2721(2) 0.30542(13)
H2A H 0.4051 0.2142 0.3045
C5A C 0.33975(9) 0.31109(19) 0.23774(13)
C6A C 0.29902(9) 0.3971(2) 0.23910(13)
H3A H 0.2737 0.4245 0.1938
C7A C 0.25516(9) 0.5419(2) 0.31045(14)
H4A H 0.2314 0.5614 0.2595
H5A H 0.2318 0.5130 0.3394
C8A C 0.29699(9) 0.6838(2) 0.41996(13)
H6A H 0.2804 0.6460 0.4522
C9A C 0.34754(10) 0.8050(2) 0.37683(13)
C10A C 0.31807(10) 0.7286(2) 0.31684(13)
C11A C 0.32334(12) 0.7394(3) 0.24475(15)
H7A H 0.3040 0.6874 0.2053
C12A C 0.35794(14) 0.8291(3) 0.23462(17)
H8A H 0.3623 0.8387 0.1871
C13A C 0.38691(13) 0.9069(3) 0.29354(17)
H9A H 0.4100 0.9675 0.2842
C14A C 0.38251(11) 0.8972(2) 0.36548(16)
H10A H 0.4020 0.9498 0.4045
C15A C 0.42237(9) 0.2894(3) 0.44750(14)
H11A H 0.4180 0.3406 0.4881
H12A H 0.4197 0.2034 0.4609
C16A C 0.52009(9) 0.2325(2) 0.45450(13)
H13A H 0.5192 0.1539 0.4745
C17A C 0.54783(9) 0.3965(2) 0.41021(13)
C18A C 0.49361(9) 0.4192(2) 0.41100(13)
C19A C 0.46679(10) 0.5316(2) 0.38619(16)
H14A H 0.4311 0.5471 0.3879
C20A C 0.49521(11) 0.6179(2) 0.35920(17)
H15A H 0.4784 0.6936 0.3421
C21A C 0.54898(11) 0.5952(2) 0.35672(17)
H16A H 0.5667 0.6553 0.3369
C22A C 0.57631(10) 0.4856(2) 0.38305(14)
H17A H 0.6124 0.4718 0.3827
C23A C 0.34441(9) 0.2712(2) 0.16283(13)
Cu1D Cu 0.634100(10) 0.81542(2) -0.050174(14)
Cu1E Cu 0.365900(10) 0.81542(2) 0.550174(14)
Cu1F Cu 0.134100(10) -0.68458(2) -0.050174(14)
N1D N 0.33390(7) 0.22710(18) -0.05873(10)
N1E N 0.66610(7) 0.22710(18) 0.55873(10)
O3A O 0.69150(6) 0.05826(14) 0.46030(9)
O4A O 0.62361(7) -0.06183(17) 0.46810(13)
O5 O 0.48681(15) 0.9510(4) 0.1021(4)
H20 H 0.4854 0.9422 0.1489
H21 H 0.4520 0.9442 0.0747
O6 O 0.5000 0.1160(5) 0.2500
H22 H 0.4718 0.1470 0.2171
H22A H 0.5282 0.1470 0.2829
loop_
_geom_bond_atom_site_label_1
_geom_bond_atom_site_label_2
_geom_bond_site_symmetry_1
_geom_bond_site_symmetry_2
Cu1 N3 1_555 1_555
N1 C8 1_555 1_555
N2 C7 1_555 1_555
N3 C16 1_555 1_555
N4 C15 1_555 1_555
O1 C23 1_555 1_555
O2 C23 1_555 1_555
O3 Cu1 1_555 1_555
O4 Cu1 1_555 1_555
C1 C2 1_555 1_555
C2 H1 1_555 1_555
C3 C2 1_555 1_555
C4 C3 1_555 1_555
H2 C4 1_555 1_555
C5 C4 1_555 1_555
C6 C1 1_555 1_555
H3 C6 1_555 1_555
C7 C1 1_555 1_555
H4 C7 1_555 1_555
H5 C7 1_555 1_555
C8 N2 1_555 1_555
H6 C8 1_555 1_555
C9 N1 1_555 1_555
C10 N2 1_555 1_555
C11 C10 1_555 1_555
H7 C11 1_555 1_555
C12 C11 1_555 1_555
H8 C12 1_555 1_555
C13 C12 1_555 1_555
H9 C13 1_555 1_555
C14 C9 1_555 1_555
H10 C14 1_555 1_555
C15 C3 1_555 1_555
H11 C15 1_555 1_555
H12 C15 1_555 1_555
C16 N4 1_555 1_555
H13 C16 1_555 1_555
C17 N3 1_555 1_555
C18 N4 1_555 1_555
C19 C18 1_555 1_555
H14 C19 1_555 1_555
C20 C19 1_555 1_555
H15 C20 1_555 1_555
C21 C20 1_555 1_555
H16 C21 1_555 1_555
C22 C17 1_555 1_555
H17 C22 1_555 1_555
C23 C5 1_555 1_555
C24 H18 1_555 1_555
C25 C24 1_555 1_555
C26 C25 1_555 1_555
H19 C26 1_555 1_555
C27 O3 1_555 1_555
O5 H20 1_555 1_555
H21 O5 1_555 1_555
O6 H22 1_555 1_555
O3F C27F 1_555 1_555
O4F C27F 1_555 1_555
C24F C26 1_555 1_555
H18F C24F 1_555 1_555
C25F C24F 1_555 1_555
C26F C24 1_555 1_555
H19F C26F 1_555 1_555
C27F C25F 1_555 1_555
Cu1A O1 1_555 1_555
N1A C8A 1_555 1_555
N2A C7A 1_555 1_555
N3A Cu1A 1_555 1_555
N4A C15A 1_555 1_555
O1A Cu1 1_555 1_555
O2A Cu1 1_555 1_555
C1A C2A 1_555 1_555
C2A H1A 1_555 1_555
C3A C2A 1_555 1_555
C4A C3A 1_555 1_555
H2A C4A 1_555 1_555
C5A C4A 1_555 1_555
C6A C1A 1_555 1_555
H3A C6A 1_555 1_555
C7A C1A 1_555 1_555
H4A C7A 1_555 1_555
H5A C7A 1_555 1_555
C8A N2A 1_555 1_555
H6A C8A 1_555 1_555
C9A N1A 1_555 1_555
C10A N2A 1_555 1_555
C11A C10A 1_555 1_555
H7A C11A 1_555 1_555
C12A C11A 1_555 1_555
H8A C12A 1_555 1_555
C13A C12A 1_555 1_555
H9A C13A 1_555 1_555
C14A C9A 1_555 1_555
H10A C14A 1_555 1_555
C15A C3A 1_555 1_555
H11A C15A 1_555 1_555
H12A C15A 1_555 1_555
C16A N3A 1_555 1_555
H13A C16A 1_555 1_555
C17A N3A 1_555 1_555
C18A N4A 1_555 1_555
C19A C18A 1_555 1_555
H14A C19A 1_555 1_555
C20A C19A 1_555 1_555
H15A C20A 1_555 1_555
C21A C20A 1_555 1_555
H16A C21A 1_555 1_555
C22A C17A 1_555 1_555
H17A C22A 1_555 1_555
C23A O1A 1_555 1_555
Cu1D N1 1_555 1_555
Cu1E N1A 1_555 1_555
Cu1F O3F 1_555 1_555
N1D Cu1 1_555 1_555
N1E Cu1A 1_555 1_555
O3A Cu1A 1_555 1_555
O4A Cu1A 1_555 1_555
H22A O6 1_555 1_555
O2 Cu1A 1_555 1_555
O4 C27 1_555 1_555
C5 C6 1_555 1_555
C9 C10 1_555 1_555
C13 C14 1_555 1_555
C17 C18 1_555 1_555
C21 C22 1_555 1_555
C25 C27 1_555 1_555
O4F Cu1F 1_555 1_555
C25F C26F 1_555 1_555
N4A C16A 1_555 1_555
O2A C23A 1_555 1_555
C5A C6A 1_555 1_555
C5A C23A 1_555 1_555
C9A C10A 1_555 1_555
C13A C14A 1_555 1_555
C17A C18A 1_555 1_555
C21A C22A 1_555 1_555

#END
