
#######################################################################
#
#                 Cambridge Crystallographic Data Centre
#                                CCDC 
#
#######################################################################
#
# If this CIF has been generated from an entry in the Cambridge 
# Structural Database, then it will include bibliographic, chemical, 
# crystal, experimental, refinement or atomic coordinate data resulting 
# from the CCDC's data processing and validation procedures.
#
#######################################################################

data_ZOZXET
_symmetry_cell_setting           monoclinic
_symmetry_space_group_name_H-M   'C 2/c'
_symmetry_Int_Tables_number      15
_space_group_name_Hall           '-C 2yn'
loop_
_symmetry_equiv_pos_site_id
_symmetry_equiv_pos_as_xyz
1 x,y,z
2 -x,y,1/2-z
3 1/2+x,1/2+y,z
4 1/2-x,1/2+y,1/2-z
5 -x,-y,-z
6 x,-y,1/2+z
7 1/2-x,1/2-y,-z
8 1/2+x,1/2-y,1/2+z
_cell_length_a                   32.0209(11)
_cell_length_b                   11.405(2)
_cell_length_c                   12.5363(14)
_cell_angle_alpha                90
_cell_angle_beta                 98.478(3)
_cell_angle_gamma                90
_cell_volume                     4528.21
loop_
_atom_site_label
_atom_site_type_symbol
_atom_site_fract_x
_atom_site_fract_y
_atom_site_fract_z
N5 N 0.5000 0.0000 0.5000
O3 O 0.5189(2) 0.0494(5) 0.4329(5)
O4 O 0.4954(2) -0.1001(5) 0.5067(6)
O5 O 0.48973(19) 0.0572(5) 0.5771(4)
O3D O 0.4811(2) -0.0494(5) 0.5671(5)
O4D O 0.5046(2) 0.1001(5) 0.4933(6)
O5D O 0.51027(19) -0.0572(5) 0.4229(4)
O6 O 0.5890(3) 0.8994(9) 0.0262(8)
H18 H 0.5661 0.8982 -0.0176
H19 H 0.5990 0.9686 0.0300
Cu1 Cu 0.671838(10) 0.82985(3) 0.78698(3)
Cu2 Cu 0.5000 0.5000 0.5000
N1 N 0.71027(8) 0.7922(2) 0.1052(2)
N2 N 0.68780(7) 0.78803(19) -0.06819(19)
N3 N 0.55602(8) 0.7078(2) 0.2976(2)
N4 N 0.52928(7) 0.5720(2) 0.39671(19)
O1 O 0.65426(8) 0.8448(2) 0.63917(19)
O2 O 0.72054(8) 0.8700(2) 0.61994(18)
C1 C 0.69063(12) 0.8408(4) 0.2848(3)
C2 C 0.64758(11) 0.8344(3) 0.2408(3)
H1 H 0.6396 0.8320 0.1664
C3 C 0.61677(12) 0.8318(3) 0.3097(3)
C4 C 0.62785(12) 0.8413(3) 0.4218(3)
H2 H 0.6076 0.8400 0.4680
C5 C 0.67184(11) 0.8533(3) 0.4615(3)
C6 C 0.70090(12) 0.8468(3) 0.3957(3)
H3 H 0.7293 0.8463 0.4257
C7 C 0.72442(12) 0.8423(3) 0.2138(3)
H4 H 0.7335 0.9226 0.2059
H5 H 0.7485 0.7981 0.2484
C8 C 0.70328(12) 0.8571(3) 0.0135(3)
H6 H 0.7085 0.9371 0.0087
C9 C 0.68560(12) 0.6788(3) -0.0282(3)
C10 C 0.70046(11) 0.6770(3) 0.0841(3)
C11 C 0.70340(11) 0.5778(3) 0.1473(3)
H7 H 0.7127 0.5793 0.2211
C12 C 0.69060(12) 0.4699(3) 0.0885(3)
H8 H 0.6915 0.3995 0.1263
C13 C 0.67691(12) 0.4689(3) -0.0236(3)
H9 H 0.6702 0.3975 -0.0576
C14 C 0.67305(12) 0.5725(3) -0.0861(3)
H10 H 0.6631 0.5720 -0.1596
C15 C 0.57061(12) 0.8175(3) 0.2651(3)
H11 H 0.5544 0.8802 0.2914
H12 H 0.5668 0.8218 0.1870
C16 C 0.53580(11) 0.6841(3) 0.3791(3)
H13 H 0.5266 0.7427 0.4217
C17 C 0.54949(12) 0.5026(3) 0.3198(3)
C18 C 0.56573(10) 0.5897(3) 0.2601(3)
C19 C 0.58808(12) 0.5595(3) 0.1740(3)
H14 H 0.6005 0.6150 0.1343
C20 C 0.58973(12) 0.4384(3) 0.1541(3)
H15 H 0.6031 0.4138 0.0971
C21 C 0.57213(12) 0.3502(3) 0.2160(3)
H16 H 0.5735 0.2710 0.1992
C22 C 0.55320(10) 0.3880(3) 0.3006(3)
H17 H 0.5428 0.3335 0.3452
C23 C 0.68442(11) 0.8584(3) 0.5826(3)
Cu1D Cu 0.328162(10) 0.17015(3) 0.21302(3)
N1D N 0.28973(8) 0.2078(2) 0.8948(2)
N2D N 0.31220(7) 0.21197(19) 1.06819(19)
N3D N 0.44398(8) 0.2922(2) 0.7024(2)
N4D N 0.47072(7) 0.4280(2) 0.60329(19)
O1D O 0.34574(8) 0.1552(2) 0.36083(19)
O2D O 0.27946(8) 0.1300(2) 0.38006(18)
C1D C 0.30937(12) 0.1592(4) 0.7152(3)
C2D C 0.35242(11) 0.1656(3) 0.7592(3)
H1D H 0.3604 0.1680 0.8336
C3D C 0.38323(12) 0.1682(3) 0.6903(3)
C4D C 0.37215(12) 0.1587(3) 0.5782(3)
H2D H 0.3924 0.1600 0.5320
C5D C 0.32816(11) 0.1467(3) 0.5385(3)
C6D C 0.29910(12) 0.1532(3) 0.6043(3)
H3D H 0.2707 0.1537 0.5743
C7D C 0.27558(12) 0.1577(3) 0.7862(3)
H4D H 0.2665 0.0774 0.7941
H5D H 0.2515 0.2019 0.7516
C8D C 0.29672(12) 0.1429(3) 0.9865(3)
H6D H 0.2915 0.0629 0.9913
C9D C 0.31440(12) 0.3212(3) 1.0282(3)
C10D C 0.29954(11) 0.3230(3) 0.9159(3)
C11D C 0.29660(11) 0.4222(3) 0.8527(3)
H7D H 0.2873 0.4207 0.7789
C12D C 0.30940(12) 0.5301(3) 0.9115(3)
H8D H 0.3085 0.6005 0.8737
C13D C 0.32309(12) 0.5311(3) 1.0236(3)
H9D H 0.3298 0.6025 1.0576
C14D C 0.32695(12) 0.4275(3) 1.0861(3)
H10D H 0.3369 0.4280 1.1596
C15D C 0.42939(12) 0.1825(3) 0.7349(3)
H11D H 0.4456 0.1198 0.7086
H12D H 0.4332 0.1782 0.8130
C16D C 0.46420(11) 0.3159(3) 0.6209(3)
H13D H 0.4734 0.2573 0.5783
C17D C 0.45051(12) 0.4974(3) 0.6802(3)
C18D C 0.43427(10) 0.4103(3) 0.7399(3)
C19D C 0.41192(12) 0.4405(3) 0.8260(3)
H14D H 0.3995 0.3850 0.8657
C20D C 0.41027(12) 0.5616(3) 0.8459(3)
H15D H 0.3969 0.5862 0.9029
C21D C 0.42787(12) 0.6498(3) 0.7840(3)
H16D H 0.4265 0.7290 0.8008
C22D C 0.44680(10) 0.6120(3) 0.6994(3)
H17D H 0.4572 0.6665 0.6548
C23D C 0.31558(11) 0.1416(3) 0.4174(3)
Cu1_2 Cu 0.671838(10) 0.82985(3) -0.21302(3)
Cu1D_2 Cu 0.328162(10) 0.17015(3) 1.21302(3)
N2_2 N 0.68780(7) 0.78803(19) 0.93181(19)
N2D_2 N 0.31220(7) 0.21197(19) 0.06819(19)
loop_
_geom_bond_atom_site_label_1
_geom_bond_atom_site_label_2
_geom_bond_site_symmetry_1
_geom_bond_site_symmetry_2
Cu1 O1 1_555 1_555
Cu2 N4 1_555 1_555
N1 C7 1_555 1_555
N2 C8 1_555 1_555
N3 C15 1_555 1_555
N4 C16 1_555 1_555
O1 C23 1_555 1_555
O2 C23 1_555 1_555
C1 C2 1_555 1_555
C2 H1 1_555 1_555
C3 C2 1_555 1_555
C4 C3 1_555 1_555
H2 C4 1_555 1_555
C5 C4 1_555 1_555
C6 C1 1_555 1_555
H3 C6 1_555 1_555
C7 C1 1_555 1_555
H4 C7 1_555 1_555
H5 C7 1_555 1_555
C8 N1 1_555 1_555
H6 C8 1_555 1_555
C9 N2 1_555 1_555
C10 N1 1_555 1_555
C11 C10 1_555 1_555
H7 C11 1_555 1_555
C12 C11 1_555 1_555
H8 C12 1_555 1_555
C13 C12 1_555 1_555
H9 C13 1_555 1_555
C14 C9 1_555 1_555
H10 C14 1_555 1_555
C15 C3 1_555 1_555
H11 C15 1_555 1_555
H12 C15 1_555 1_555
C16 N3 1_555 1_555
H13 C16 1_555 1_555
C17 N4 1_555 1_555
C18 N3 1_555 1_555
C19 C18 1_555 1_555
H14 C19 1_555 1_555
C20 C19 1_555 1_555
H15 C20 1_555 1_555
C21 C20 1_555 1_555
H16 C21 1_555 1_555
C22 C17 1_555 1_555
H17 C22 1_555 1_555
C23 C5 1_555 1_555
N5 O3 1_555 1_555
O3 O4D 1_555 1_555
O4 N5 1_555 1_555
O5 N5 1_555 1_555
O6 H18 1_555 1_555
H19 O6 1_555 1_555
Cu1D O1D 1_555 1_555
N1D C7D 1_555 1_555
N2D C8D 1_555 1_555
N3D C15D 1_555 1_555
N4D Cu2 1_555 1_555
O1D C23D 1_555 1_555
O2D C23D 1_555 1_555
C1D C2D 1_555 1_555
C2D H1D 1_555 1_555
C3D C2D 1_555 1_555
C4D C3D 1_555 1_555
H2D C4D 1_555 1_555
C5D C4D 1_555 1_555
C6D C1D 1_555 1_555
H3D C6D 1_555 1_555
C7D C1D 1_555 1_555
H4D C7D 1_555 1_555
H5D C7D 1_555 1_555
C8D N1D 1_555 1_555
H6D C8D 1_555 1_555
C9D N2D 1_555 1_555
C10D N1D 1_555 1_555
C11D C10D 1_555 1_555
H7D C11D 1_555 1_555
C12D C11D 1_555 1_555
H8D C12D 1_555 1_555
C13D C12D 1_555 1_555
H9D C13D 1_555 1_555
C14D C9D 1_555 1_555
H10D C14D 1_555 1_555
C15D C3D 1_555 1_555
H11D C15D 1_555 1_555
H12D C15D 1_555 1_555
C16D N3D 1_555 1_555
H13D C16D 1_555 1_555
C17D N4D 1_555 1_555
C18D N3D 1_555 1_555
C19D C18D 1_555 1_555
H14D C19D 1_555 1_555
C20D C19D 1_555 1_555
H15D C20D 1_555 1_555
C21D C20D 1_555 1_555
H16D C21D 1_555 1_555
C22D C17D 1_555 1_555
H17D C22D 1_555 1_555
C23D C5D 1_555 1_555
Cu1_2 N2 1_555 1_555
Cu1D_2 N2D 1_555 1_555
N2_2 Cu1 1_555 1_555
N2D_2 Cu1D 1_555 1_555
O3D N5 1_555 1_555
O4D N5 1_555 1_555
O5D N5 1_555 1_555
C5 C6 1_555 1_555
C9 C10 1_555 1_555
C13 C14 1_555 1_555
C17 C18 1_555 1_555
C21 C22 1_555 1_555
O3 O5D 1_555 1_555
O4 O3D 1_555 1_555
O4 O5D 1_555 1_555
O5 O3D 1_555 1_555
O5 O4D 1_555 1_555
N4D C16D 1_555 1_555
C5D C6D 1_555 1_555
C9D C10D 1_555 1_555
C13D C14D 1_555 1_555
C17D C18D 1_555 1_555
C21D C22D 1_555 1_555

#END
