
#######################################################################
#
#                 Cambridge Crystallographic Data Centre
#                                CCDC 
#
#######################################################################
#
# If this CIF has been generated from an entry in the Cambridge 
# Structural Database, then it will include bibliographic, chemical, 
# crystal, experimental, refinement or atomic coordinate data resulting 
# from the CCDC's data processing and validation procedures.
#
#######################################################################

data_ZOZXAP
_symmetry_cell_setting           monoclinic
_symmetry_space_group_name_H-M   'P 21/c'
_symmetry_Int_Tables_number      14
_space_group_name_Hall           '-P 2ybc'
loop_
_symmetry_equiv_pos_site_id
_symmetry_equiv_pos_as_xyz
1 x,y,z
2 -x,1/2+y,1/2-z
3 -x,-y,-z
4 x,1/2-y,1/2+z
_cell_length_a                   10.8220(6)
_cell_length_b                   15.2723(9)
_cell_length_c                   12.2901(7)
_cell_angle_alpha                90
_cell_angle_beta                 104.2240(10)
_cell_angle_gamma                90
_cell_volume                     1969
loop_
_atom_site_label
_atom_site_type_symbol
_atom_site_fract_x
_atom_site_fract_y
_atom_site_fract_z
Cd1 Cd -0.067179(18) 0.062757(14) 0.612403(16)
Cl1 Cl -0.05251(7) 0.09166(5) 0.41392(6)
N1 N 0.1067(2) 0.13703(16) 0.72040(19)
N2 N 0.2151(2) 0.19213(16) 0.88466(17)
N3 N 0.8156(2) 0.31303(16) 1.13725(19)
N4 N 0.7038(2) 0.22659(16) 1.22399(18)
O1 O 0.12037(19) 0.00903(14) 1.23884(16)
O2 O 0.26093(19) 0.02464(15) 1.40086(16)
C1 C 0.3036(3) 0.20260(18) 1.0918(2)
C2 C 0.4306(3) 0.21900(19) 1.1434(2)
H1 H 0.4771 0.2563 1.1086
C3 C 0.4901(2) 0.18129(18) 1.2455(2)
C4 C 0.4186(3) 0.12728(18) 1.2970(2)
H2 H 0.4556 0.1041 1.3675
C5 C 0.2927(3) 0.10715(18) 1.2455(2)
C6 C 0.2358(3) 0.14508(18) 1.1428(2)
H3 H 0.1515 0.1319 1.1079
C7 C 0.2416(3) 0.24932(19) 0.9838(2)
H4 H 0.1622 0.2752 0.9912
H5 H 0.2969 0.2966 0.9722
C8 C 0.1017(3) 0.1829(2) 0.8102(2)
H6 H 0.0265 0.2066 0.8210
C9 C 0.2345(3) 0.11608(19) 0.7361(2)
C10 C 0.3034(3) 0.14860(18) 0.8393(2)
C11 C 0.4326(3) 0.1323(2) 0.8792(3)
H7 H 0.4772 0.1505 0.9502
C12 C 0.4919(3) 0.0878(2) 0.8086(3)
H8 H 0.5783 0.0748 0.8328
C13 C 0.4247(3) 0.0617(2) 0.7014(3)
H9 H 0.4688 0.0351 0.6542
C14 C 0.2964(3) 0.07411(19) 0.6637(2)
H10 H 0.2522 0.0554 0.5928
C15 C 0.6291(3) 0.1986(2) 1.3021(2)
H11 H 0.6338 0.2435 1.3588
H12 H 0.6665 0.1456 1.3398
C16 C 0.7484(3) 0.3079(2) 1.2126(2)
H13 H 0.7329 0.3557 1.2542
C17 C 0.8168(3) 0.2282(2) 1.0961(2)
C18 C 0.7461(3) 0.1733(2) 1.1485(2)
C19 C 0.7290(3) 0.0852(2) 1.1245(3)
H14 H 0.6798 0.0499 1.1589
C20 C 0.7894(3) 0.0527(2) 1.0462(3)
H15 H 0.7815 -0.0065 1.0283
C21 C 0.8619(3) 0.1056(2) 0.9931(3)
H16 H 0.9012 0.0809 0.9410
C22 C 0.8761(3) 0.1936(2) 1.0165(2)
H17 H 0.9237 0.2290 0.9805
C23 C 0.2196(3) 0.04254(19) 1.2993(2)
Cd1B Cd 0.067179(18) -0.062757(14) 0.387597(16)
Cd1B_2 Cd 0.067179(18) -0.062757(14) 1.387597(16)
Cd1C Cd 0.932821(18) 0.437243(14) 1.112403(16)
Cl1B Cl 0.05251(7) -0.09166(5) 0.58608(6)
N3C N -0.1844(2) 0.18697(16) 0.63725(19)
O1B O -0.12037(19) -0.00903(14) 0.76116(16)
O2B O -0.26093(19) -0.02464(15) 0.59914(16)
loop_
_geom_bond_atom_site_label_1
_geom_bond_atom_site_label_2
_geom_bond_site_symmetry_1
_geom_bond_site_symmetry_2
Cd1 Cl1 1_555 1_555
Cl1 Cd1B 1_555 1_555
N1 Cd1 1_555 1_555
N2 C7 1_555 1_555
N3 C16 1_555 1_555
N4 C15 1_555 1_555
O1 C23 1_555 1_555
O2 C23 1_555 1_555
C1 C2 1_555 1_555
C2 H1 1_555 1_555
C3 C2 1_555 1_555
C4 C3 1_555 1_555
H2 C4 1_555 1_555
C5 C4 1_555 1_555
C6 C1 1_555 1_555
H3 C6 1_555 1_555
C7 C1 1_555 1_555
H4 C7 1_555 1_555
H5 C7 1_555 1_555
C8 N1 1_555 1_555
H6 C8 1_555 1_555
C9 N1 1_555 1_555
C10 N2 1_555 1_555
C11 C10 1_555 1_555
H7 C11 1_555 1_555
C12 C11 1_555 1_555
H8 C12 1_555 1_555
C13 C12 1_555 1_555
H9 C13 1_555 1_555
C14 C9 1_555 1_555
H10 C14 1_555 1_555
C15 C3 1_555 1_555
H11 C15 1_555 1_555
H12 C15 1_555 1_555
C16 N4 1_555 1_555
H13 C16 1_555 1_555
C17 N3 1_555 1_555
C18 N4 1_555 1_555
C19 C18 1_555 1_555
H14 C19 1_555 1_555
C20 C19 1_555 1_555
H15 C20 1_555 1_555
C21 C20 1_555 1_555
H16 C21 1_555 1_555
C22 C17 1_555 1_555
H17 C22 1_555 1_555
C23 C5 1_555 1_555
Cd1B Cl1B 1_555 1_555
Cd1B_2 O1 1_555 1_555
Cd1C N3 1_555 1_555
Cl1B Cd1 1_555 1_555
N3C Cd1 1_555 1_555
O1B Cd1 1_555 1_555
O2B Cd1 1_555 1_555
N2 C8 1_555 1_555
O2 Cd1B_2 1_555 1_555
C5 C6 1_555 1_555
C9 C10 1_555 1_555
C13 C14 1_555 1_555
C17 C18 1_555 1_555
C21 C22 1_555 1_555

#END
