
#######################################################################
#
#                 Cambridge Crystallographic Data Centre
#                                CCDC 
#
#######################################################################
#
# If this CIF has been generated from an entry in the Cambridge 
# Structural Database, then it will include bibliographic, chemical, 
# crystal, experimental, refinement or atomic coordinate data resulting 
# from the CCDC's data processing and validation procedures.
#
#######################################################################

data_ZOZYOE
_symmetry_cell_setting           orthorhombic
_symmetry_space_group_name_H-M   'P b c a'
_symmetry_Int_Tables_number      61
_space_group_name_Hall           '-P 2ac 2ab'
loop_
_symmetry_equiv_pos_site_id
_symmetry_equiv_pos_as_xyz
1 x,y,z
2 1/2-x,-y,1/2+z
3 -x,1/2+y,1/2-z
4 1/2+x,1/2-y,-z
5 -x,-y,-z
6 1/2+x,y,1/2-z
7 x,1/2-y,1/2+z
8 1/2-x,1/2+y,z
_cell_length_a                   11.9116(6)
_cell_length_b                   16.5708(8)
_cell_length_c                   21.2554(10)
_cell_angle_alpha                90
_cell_angle_beta                 90
_cell_angle_gamma                90
_cell_volume                     4195.49
loop_
_atom_site_label
_atom_site_type_symbol
_atom_site_fract_x
_atom_site_fract_y
_atom_site_fract_z
Zn1 Zn -0.152678(18) 1.252112(13) 0.565794(11)
N1 N 0.53877(14) 0.84210(10) 0.58173(8)
N2 N 0.39992(13) 0.91993(10) 0.54690(8)
N3 N -0.21777(14) 0.77020(10) 0.62762(8)
N4 N -0.06780(14) 0.82465(10) 0.67316(8)
O1 O 0.01035(14) 1.16946(9) 0.51563(8)
O2 O -0.10476(13) 1.14338(9) 0.59384(8)
C1 C 0.20061(16) 0.96372(11) 0.55142(10)
C2 C 0.16568(16) 0.91084(12) 0.59846(10)
H1 H 0.2074 0.8646 0.6067
C3 C 0.06927(16) 0.92637(12) 0.63313(10)
C4 C 0.00762(16) 0.99628(12) 0.62067(10)
H2 H -0.0566 1.0075 0.6440
C5 C 0.04151(16) 1.04902(11) 0.57381(9)
C6 C 0.13846(15) 1.03206(11) 0.53969(10)
H3 H 0.1616 1.0676 0.5084
C7 C 0.30163(17) 0.94501(14) 0.51094(11)
H4 H 0.2820 0.9025 0.4816
H5 H 0.3207 0.9926 0.4866
C8 C 0.44866(16) 0.84691(12) 0.54547(10)
H6 H 0.4219 0.8041 0.5215
C9 C 0.55024(16) 0.91832(12) 0.60867(10)
C10 C 0.46353(17) 0.96778(12) 0.58674(11)
C11 C 0.4546(2) 1.04848(14) 0.60335(14)
H7 H 0.3977 1.0813 0.5878
C12 C 0.5348(3) 1.07703(17) 0.64419(17)
H8 H 0.5319 1.1308 0.6566
C13 C 0.6201(3) 1.02826(19) 0.66764(17)
H9 H 0.6718 1.0502 0.6956
C14 C 0.6300(2) 0.94787(15) 0.65051(12)
H10 H 0.6872 0.9153 0.6662
C15 C 0.03608(19) 0.87030(15) 0.68510(11)
H11 H 0.0968 0.8323 0.6921
H12 H 0.0266 0.9014 0.7234
C16 C -0.12649(17) 0.81438(12) 0.61945(10)
H13 H -0.1051 0.8360 0.5809
C17 C -0.21743(17) 0.74788(11) 0.69111(9)
C18 C -0.12332(17) 0.78184(12) 0.71969(9)
C19 C -0.0977(2) 0.76962(15) 0.78310(10)
H14 H -0.0350 0.7930 0.8018
C20 C -0.1701(2) 0.72118(19) 0.81621(11)
H15 H -0.1557 0.7108 0.8585
C21 C -0.2647(2) 0.68710(16) 0.78806(11)
H16 H -0.3119 0.6549 0.8122
C22 C -0.29047(18) 0.69952(13) 0.72553(11)
H17 H -0.3538 0.6766 0.7072
C23 C -0.02088(17) 1.12592(12) 0.55921(10)
Cl1 Cl -0.21612(5) 1.28078(3) 0.46979(3)
Zn1G Zn -0.347322(18) 0.752112(13) 0.565794(11)
Zn1G_2 Zn 0.652678(18) 0.752112(13) 0.565794(11)
N1G N -0.03877(14) 1.34210(10) 0.58173(8)
N3G N -0.28223(14) 1.27020(10) 0.62762(8)
loop_
_geom_bond_atom_site_label_1
_geom_bond_atom_site_label_2
_geom_bond_site_symmetry_1
_geom_bond_site_symmetry_2
Zn1 O2 1_555 1_555
N1 C8 1_555 1_555
N2 C7 1_555 1_555
N3 C16 1_555 1_555
N4 C15 1_555 1_555
O1 C23 1_555 1_555
O2 C23 1_555 1_555
C1 C2 1_555 1_555
C2 H1 1_555 1_555
C3 C2 1_555 1_555
C4 C3 1_555 1_555
H2 C4 1_555 1_555
C5 C4 1_555 1_555
C6 C1 1_555 1_555
H3 C6 1_555 1_555
C7 C1 1_555 1_555
H4 C7 1_555 1_555
H5 C7 1_555 1_555
C8 N2 1_555 1_555
H6 C8 1_555 1_555
C9 N1 1_555 1_555
C10 N2 1_555 1_555
C11 C10 1_555 1_555
H7 C11 1_555 1_555
C12 C11 1_555 1_555
H8 C12 1_555 1_555
C13 C12 1_555 1_555
H9 C13 1_555 1_555
C14 C9 1_555 1_555
H10 C14 1_555 1_555
C15 C3 1_555 1_555
H11 C15 1_555 1_555
H12 C15 1_555 1_555
C16 N4 1_555 1_555
H13 C16 1_555 1_555
C17 N3 1_555 1_555
C18 N4 1_555 1_555
C19 C18 1_555 1_555
H14 C19 1_555 1_555
C20 C19 1_555 1_555
H15 C20 1_555 1_555
C21 C20 1_555 1_555
H16 C21 1_555 1_555
C22 C17 1_555 1_555
H17 C22 1_555 1_555
C23 C5 1_555 1_555
Cl1 Zn1 1_555 1_555
Zn1G N3 1_555 1_555
Zn1G_2 N1 1_555 1_555
N1G Zn1 1_555 1_555
N3G Zn1 1_555 1_555
C5 C6 1_555 1_555
C9 C10 1_555 1_555
C13 C14 1_555 1_555
C17 C18 1_555 1_555
C21 C22 1_555 1_555

#END
