
#######################################################################
#
#                 Cambridge Crystallographic Data Centre
#                                CCDC 
#
#######################################################################
#
# If this CIF has been generated from an entry in the Cambridge 
# Structural Database, then it will include bibliographic, chemical, 
# crystal, experimental, refinement or atomic coordinate data resulting 
# from the CCDC's data processing and validation procedures.
#
#######################################################################

data_ZOZYUK
_symmetry_cell_setting           monoclinic
_symmetry_space_group_name_H-M   'C 2/c'
_symmetry_Int_Tables_number      15
_space_group_name_Hall           '-C 2yn'
loop_
_symmetry_equiv_pos_site_id
_symmetry_equiv_pos_as_xyz
1 x,y,z
2 -x,y,1/2-z
3 1/2+x,1/2+y,z
4 1/2-x,1/2+y,1/2-z
5 -x,-y,-z
6 x,-y,1/2+z
7 1/2-x,1/2-y,-z
8 1/2+x,1/2-y,1/2+z
_cell_length_a                   14.5968(9)
_cell_length_b                   18.1364(9)
_cell_length_c                   17.1584(10)
_cell_angle_alpha                90
_cell_angle_beta                 93.6110(10)
_cell_angle_gamma                90
_cell_volume                     4533.38
loop_
_atom_site_label
_atom_site_type_symbol
_atom_site_fract_x
_atom_site_fract_y
_atom_site_fract_z
Zn1 Zn 0.19472(3) 0.40630(2) 0.24465(2)
N1 N 0.2717(2) 0.51134(16) 0.70801(17)
N2 N 0.3242(2) 0.40094(15) 0.67759(17)
N3 N 0.6643(2) 0.15276(17) 0.64558(17)
N4 N 0.5790(2) 0.17906(17) 0.53725(17)
O1 O 0.26912(19) 0.33410(14) 0.31045(16)
O2 O 0.2417(2) 0.42606(18) 0.38998(18)
O3 O 0.0739(2) 0.42889(17) 0.27943(18)
O4 O -0.0318(2) 0.52063(17) 0.31493(19)
S1 S 0.0000 0.47953(11) 0.2500
C1 C 0.3464(2) 0.30250(18) 0.5824(2)
C2 C 0.4088(2) 0.24776(19) 0.5677(2)
H1 H 0.4378 0.2225 0.6095
C3 C 0.4296(2) 0.22934(19) 0.4921(2)
C4 C 0.3834(2) 0.26619(19) 0.4304(2)
H2 H 0.3945 0.2535 0.3794
C5 C 0.3211(2) 0.32157(19) 0.4439(2)
C6 C 0.3041(2) 0.33997(19) 0.5197(2)
H3 H 0.2637 0.3782 0.5288
C7 C 0.2552(2) 0.44018(19) 0.7044(2)
H4 H 0.2008 0.4191 0.7190
C8 C 0.3935(2) 0.4512(2) 0.6617(2)
C9 C 0.3594(2) 0.5195(2) 0.6803(2)
C10 C 0.4104(3) 0.5825(2) 0.6710(3)
H5 H 0.3889 0.6287 0.6847
C11 C 0.4948(3) 0.5736(3) 0.6404(3)
H6 H 0.5300 0.6151 0.6312
C12 C 0.5286(3) 0.5047(3) 0.6230(3)
H7 H 0.5868 0.5011 0.6041
C13 C 0.4789(3) 0.4416(2) 0.6328(3)
H8 H 0.5012 0.3953 0.6207
C14 C 0.32739(12) 0.32161(10) 0.66545(10)
H9 H 0.2692 0.3001 0.6778
H10 H 0.3750 0.3005 0.7006
C15 C 0.60006(12) 0.12911(10) 0.59392(10)
H11 H 0.5723 0.0831 0.5963
C16 C 0.63264(12) 0.24036(10) 0.55359(10)
C17 C 0.68706(12) 0.22266(10) 0.62139(10)
C18 C 0.75247(12) 0.27357(10) 0.65071(10)
H12 H 0.7902 0.2628 0.6950
C19 C 0.7595(3) 0.3396(2) 0.6127(3)
H13 H 0.8027 0.3740 0.6316
C20 C 0.7033(3) 0.3563(2) 0.5463(3)
H14 H 0.7090 0.4019 0.5224
C21 C 0.6401(3) 0.3070(2) 0.5155(3)
H15 H 0.6035 0.3180 0.4707
C22 C 0.5022(3) 0.1730(2) 0.4776(2)
H16 H 0.4760 0.1239 0.4791
H17 H 0.5246 0.1806 0.4262
C23 C 0.2734(2) 0.3636(2) 0.3770(2)
O3A O -0.0739(2) 0.42889(17) 0.22057(18)
O4A O 0.0318(2) 0.52063(17) 0.18507(19)
Zn1A Zn -0.19472(3) 0.40630(2) 0.25535(2)
N1A N -0.2717(2) 0.51134(16) -0.20801(17)
N2A N -0.3242(2) 0.40094(15) -0.17759(17)
N3A N -0.6643(2) 0.15276(17) -0.14558(17)
N4A N -0.5790(2) 0.17906(17) -0.03725(17)
O1A O -0.26912(19) 0.33410(14) 0.18955(16)
O2A O -0.2417(2) 0.42606(18) 0.11002(18)
C1A C -0.3464(2) 0.30250(18) -0.0824(2)
C2A C -0.4088(2) 0.24776(19) -0.0677(2)
H1A H -0.4378 0.2225 -0.1095
C3A C -0.4296(2) 0.22934(19) 0.0079(2)
C4A C -0.3834(2) 0.26619(19) 0.0696(2)
H2A H -0.3945 0.2535 0.1206
C5A C -0.3211(2) 0.32157(19) 0.0561(2)
C6A C -0.3041(2) 0.33997(19) -0.0197(2)
H3A H -0.2637 0.3782 -0.0288
C7A C -0.2552(2) 0.44018(19) -0.2044(2)
H4A H -0.2008 0.4191 -0.2190
C8A C -0.3935(2) 0.4512(2) -0.1617(2)
C9A C -0.3594(2) 0.5195(2) -0.1803(2)
C10A C -0.4104(3) 0.5825(2) -0.1710(3)
H5A H -0.3889 0.6287 -0.1847
C11A C -0.4948(3) 0.5736(3) -0.1404(3)
H6A H -0.5300 0.6151 -0.1312
C12A C -0.5286(3) 0.5047(3) -0.1230(3)
H7A H -0.5868 0.5011 -0.1041
C13A C -0.4789(3) 0.4416(2) -0.1328(3)
H8A H -0.5012 0.3953 -0.1207
C14A C -0.32739(12) 0.32161(10) -0.16545(10)
H9A H -0.2692 0.3001 -0.1778
H10A H -0.3750 0.3005 -0.2006
C15A C -0.60006(12) 0.12911(10) -0.09392(10)
H11A H -0.5723 0.0831 -0.0963
C16A C -0.63264(12) 0.24036(10) -0.05359(10)
C17A C -0.68706(12) 0.22266(10) -0.12139(10)
C18A C -0.75247(12) 0.27357(10) -0.15071(10)
H12A H -0.7902 0.2628 -0.1950
C19A C -0.7595(3) 0.3396(2) -0.1127(3)
H13A H -0.8027 0.3740 -0.1316
C20A C -0.7033(3) 0.3563(2) -0.0463(3)
H14A H -0.7090 0.4019 -0.0224
C21A C -0.6401(3) 0.3070(2) -0.0155(3)
H15A H -0.6035 0.3180 0.0293
C22A C -0.5022(3) 0.1730(2) 0.0224(2)
H16A H -0.4760 0.1239 0.0209
H17A H -0.5246 0.1806 0.0738
C23A C -0.2734(2) 0.3636(2) 0.1230(2)
Zn1D Zn -0.19472(3) 0.59370(2) -0.24465(2)
Zn1E Zn 0.19472(3) 0.59370(2) 0.74465(2)
Zn1F Zn -0.69472(3) 0.09370(2) -0.24465(2)
Zn1G Zn 0.69472(3) 0.09370(2) 0.74465(2)
N1D N -0.2717(2) 0.48866(16) 0.29199(17)
N1E N 0.2717(2) 0.48866(16) 0.20801(17)
N3F N -0.1643(2) 0.34724(17) 0.35442(17)
N3G N 0.1643(2) 0.34724(17) 0.14558(17)
O5 O 0.0979(3) 0.5000(2) 0.4579(2)
O6 O 0.4373(10) 0.1605(8) 0.2796(8)
O7? O 0.5000 0.1963(8) 0.2500
loop_
_geom_bond_atom_site_label_1
_geom_bond_atom_site_label_2
_geom_bond_site_symmetry_1
_geom_bond_site_symmetry_2
Zn1 O1 1_555 1_555
N1 C7 1_555 1_555
N2 C7 1_555 1_555
N3 C15 1_555 1_555
N4 C15 1_555 1_555
O1 C23 1_555 1_555
O2 Zn1 1_555 1_555
O3 Zn1 1_555 1_555
O4 S1 1_555 1_555
S1 O3 1_555 1_555
C1 C2 1_555 1_555
C2 H1 1_555 1_555
C3 C2 1_555 1_555
C4 C3 1_555 1_555
H2 C4 1_555 1_555
C5 C4 1_555 1_555
C6 C1 1_555 1_555
H3 C6 1_555 1_555
C7 H4 1_555 1_555
C8 N2 1_555 1_555
C9 N1 1_555 1_555
C10 C9 1_555 1_555
H5 C10 1_555 1_555
C11 C10 1_555 1_555
H6 C11 1_555 1_555
C12 C11 1_555 1_555
H7 C12 1_555 1_555
C13 C8 1_555 1_555
H8 C13 1_555 1_555
C14 N2 1_555 1_555
H9 C14 1_555 1_555
H10 C14 1_555 1_555
C15 H11 1_555 1_555
C16 N4 1_555 1_555
C17 N3 1_555 1_555
C18 C17 1_555 1_555
H12 C18 1_555 1_555
C19 C18 1_555 1_555
H13 C19 1_555 1_555
C20 C19 1_555 1_555
H14 C20 1_555 1_555
C21 C16 1_555 1_555
H15 C21 1_555 1_555
C22 N4 1_555 1_555
H16 C22 1_555 1_555
H17 C22 1_555 1_555
C23 O2 1_555 1_555
O3A S1 1_555 1_555
O4A S1 1_555 1_555
Zn1A O3A 1_555 1_555
N1A C7A 1_555 1_555
N2A C7A 1_555 1_555
N3A C15A 1_555 1_555
N4A C15A 1_555 1_555
O1A Zn1A 1_555 1_555
O2A Zn1A 1_555 1_555
C1A C2A 1_555 1_555
C2A H1A 1_555 1_555
C3A C2A 1_555 1_555
C4A C3A 1_555 1_555
H2A C4A 1_555 1_555
C5A C4A 1_555 1_555
C6A C1A 1_555 1_555
H3A C6A 1_555 1_555
C7A H4A 1_555 1_555
C8A N2A 1_555 1_555
C9A N1A 1_555 1_555
C10A C9A 1_555 1_555
H5A C10A 1_555 1_555
C11A C10A 1_555 1_555
H6A C11A 1_555 1_555
C12A C11A 1_555 1_555
H7A C12A 1_555 1_555
C13A C8A 1_555 1_555
H8A C13A 1_555 1_555
C14A N2A 1_555 1_555
H9A C14A 1_555 1_555
H10A C14A 1_555 1_555
C15A H11A 1_555 1_555
C16A N4A 1_555 1_555
C17A N3A 1_555 1_555
C18A C17A 1_555 1_555
H12A C18A 1_555 1_555
C19A C18A 1_555 1_555
H13A C19A 1_555 1_555
C20A C19A 1_555 1_555
H14A C20A 1_555 1_555
C21A C16A 1_555 1_555
H15A C21A 1_555 1_555
C22A N4A 1_555 1_555
H16A C22A 1_555 1_555
H17A C22A 1_555 1_555
C23A O1A 1_555 1_555
Zn1D N1A 1_555 1_555
Zn1E N1 1_555 1_555
Zn1F N3A 1_555 1_555
Zn1G N3 1_555 1_555
N1D Zn1A 1_555 1_555
N1E Zn1 1_555 1_555
N3F Zn1A 1_555 1_555
N3G Zn1 1_555 1_555
C1 C14 1_555 1_555
C3 C22 1_555 1_555
C5 C6 1_555 1_555
C5 C23 1_555 1_555
C8 C9 1_555 1_555
C12 C13 1_555 1_555
C16 C17 1_555 1_555
C20 C21 1_555 1_555
O2A C23A 1_555 1_555
C1A C14A 1_555 1_555
C3A C22A 1_555 1_555
C5A C6A 1_555 1_555
C5A C23A 1_555 1_555
C8A C9A 1_555 1_555
C12A C13A 1_555 1_555
C16A C17A 1_555 1_555
C20A C21A 1_555 1_555

#END
