
#######################################################################
#
#                 Cambridge Crystallographic Data Centre
#                                CCDC 
#
#######################################################################
#
# If this CIF has been generated from an entry in the Cambridge 
# Structural Database, then it will include bibliographic, chemical, 
# crystal, experimental, refinement or atomic coordinate data resulting 
# from the CCDC's data processing and validation procedures.
#
#######################################################################

data_ZOZZAR
_symmetry_cell_setting           monoclinic
_symmetry_space_group_name_H-M   'C 2/c'
_symmetry_Int_Tables_number      15
_space_group_name_Hall           '-C 2yn'
loop_
_symmetry_equiv_pos_site_id
_symmetry_equiv_pos_as_xyz
1 x,y,z
2 -x,y,1/2-z
3 1/2+x,1/2+y,z
4 1/2-x,1/2+y,1/2-z
5 -x,-y,-z
6 x,-y,1/2+z
7 1/2-x,1/2-y,-z
8 1/2+x,1/2-y,1/2+z
_cell_length_a                   11.2384(6)
_cell_length_b                   14.8696(13)
_cell_length_c                   16.6683(8)
_cell_angle_alpha                90
_cell_angle_beta                 100.852(5)
_cell_angle_gamma                90
_cell_volume                     2735.64
loop_
_atom_site_label
_atom_site_type_symbol
_atom_site_fract_x
_atom_site_fract_y
_atom_site_fract_z
Cu1 Cu 0.5000 0.94862(4) 0.2500
Cu2 Cu 0.47515(3) 0.54700(3) 0.14685(2)
N1 N 0.1478(2) 1.0025(2) 0.21642(16)
N2 N 0.1615(2) 1.0053(2) 0.30095(17)
N3 N 0.3392(2) 0.9738(2) 0.27111(17)
N4 N 0.3284(3) 0.9853(3) 0.41097(18)
H1 H 0.2849 0.9944 0.4475
H2 H 0.4045 0.9741 0.4254
N5 N 0.5000 0.8032(3) 0.2500
N6 N 0.4912(3) 0.6611(2) 0.20701(16)
O1 O 0.2302(2) 0.9782(3) 0.05719(16)
O2 O 0.4147(2) 0.96363(18) 0.13249(14)
O3 O 0.4584(2) 0.43675(17) 0.07847(14)
O4 O 0.4888(2) 0.39395(18) -0.04501(14)
C1 C 0.2571(3) 0.9841(3) 0.2024(2)
C2 C 0.2775(3) 0.9887(3) 0.3314(2)
C3 C 0.2991(3) 0.9747(3) 0.1231(2)
C4 C 0.4861(3) 0.7473(3) 0.1849(2)
C5 C 0.4850(3) 0.4521(3) 0.0092(2)
N7 N 0.4638(8) 0.7751(5) 0.1062(4)
H3 H 0.4519 0.7363 0.0673
H4 H 0.4615 0.8316 0.0951
N6A N 0.5088(3) 0.6611(2) 0.29299(16)
C4A C 0.5139(3) 0.7473(3) 0.3151(2)
N7A N 0.5362(8) 0.7751(5) 0.3938(4)
H3A H 0.5481 0.7363 0.4327
H4A H 0.5385 0.8316 0.4049
O3D O 0.5416(2) 0.56325(17) -0.07847(14)
O4D O 0.5112(2) 0.60605(18) 0.04501(14)
C5D C 0.5150(3) 0.5479(3) -0.0092(2)
Cu2A Cu 0.52485(3) 0.54700(3) 0.35315(2)
N1A N 0.8522(2) 1.0025(2) 0.28358(16)
N2A N 0.8385(2) 1.0053(2) 0.19905(17)
N3A N 0.6608(2) 0.9738(2) 0.22889(17)
N4A N 0.6716(3) 0.9853(3) 0.08903(18)
H1A H 0.7151 0.9944 0.0525
H2A H 0.5955 0.9741 0.0746
O1A O 0.7698(2) 0.9782(3) 0.44281(16)
O2A O 0.5853(2) 0.96363(18) 0.36751(14)
C1A C 0.7429(3) 0.9841(3) 0.2976(2)
C2A C 0.7225(3) 0.9887(3) 0.1686(2)
C3A C 0.7009(3) 0.9747(3) 0.3769(2)
Cu2B Cu -0.02485(3) 1.04700(3) 0.14685(2)
Cu2B_2 Cu 0.97515(3) 1.04700(3) 0.14685(2)
Cu2C Cu 0.02485(3) 1.04700(3) 0.35315(2)
Cu2C_2 Cu 1.02485(3) 1.04700(3) 0.35315(2)
Cu2D Cu 0.52485(3) 0.45300(3) -0.14685(2)
N1B N 0.6478(2) 0.5025(2) 0.21642(16)
N1C N 0.3522(2) 0.5025(2) 0.28358(16)
N2B N 0.6615(2) 0.5053(2) 0.30095(17)
N2C N 0.3385(2) 0.5053(2) 0.19905(17)
O3A O 0.5416(2) 0.43675(17) 0.42153(14)
O4E O 0.4888(2) 0.60605(18) 0.45499(14)
loop_
_geom_bond_atom_site_label_1
_geom_bond_atom_site_label_2
_geom_bond_site_symmetry_1
_geom_bond_site_symmetry_2
Cu1 N3 1_555 1_555
Cu2 N6 1_555 1_555
N1 N2 1_555 1_555
N2 C2 1_555 1_555
N3 C1 1_555 1_555
N4 H1 1_555 1_555
H2 N4 1_555 1_555
N5 Cu1 1_555 1_555
N6 C4 1_555 1_555
O1 C3 1_555 1_555
O2 Cu1 1_555 1_555
O3 Cu2 1_555 1_555
O4 C5 1_555 1_555
C1 N1 1_555 1_555
C2 N3 1_555 1_555
C3 O2 1_555 1_555
C4 N5 1_555 1_555
C5 O3 1_555 1_555
N7 C4 1_555 1_555
H3 N7 1_555 1_555
H4 N7 1_555 1_555
N6A N6 1_555 1_555
C4A N5 1_555 1_555
N7A C4A 1_555 1_555
H3A N7A 1_555 1_555
H4A N7A 1_555 1_555
O3D C5D 1_555 1_555
O4D Cu2 1_555 1_555
C5D C5 1_555 1_555
Cu2A N6A 1_555 1_555
N1A N2A 1_555 1_555
N2A C2A 1_555 1_555
N3A Cu1 1_555 1_555
N4A H1A 1_555 1_555
H2A N4A 1_555 1_555
O1A C3A 1_555 1_555
O2A Cu1 1_555 1_555
C1A N1A 1_555 1_555
C2A N3A 1_555 1_555
C3A O2A 1_555 1_555
Cu2B N1 1_555 1_555
Cu2B_2 N2A 1_555 1_555
Cu2C N2 1_555 1_555
Cu2C_2 N1A 1_555 1_555
Cu2D O4 1_555 1_555
N1B Cu2 1_555 1_555
N1C Cu2A 1_555 1_555
N2B Cu2A 1_555 1_555
N2C Cu2 1_555 1_555
O3A Cu2A 1_555 1_555
O4E Cu2A 1_555 1_555
N4 C2 1_555 1_555
C1 C3 1_555 1_555
N6A C4A 1_555 1_555
O3D Cu2D 1_555 1_555
O4D C5D 1_555 1_555
N3A C1A 1_555 1_555
N4A C2A 1_555 1_555
C1A C3A 1_555 1_555
N1B N2B 1_555 1_555
N1C N2C 1_555 1_555

#END
