
#######################################################################
#
#                 Cambridge Crystallographic Data Centre
#                                CCDC 
#
#######################################################################
#
# If this CIF has been generated from an entry in the Cambridge 
# Structural Database, then it will include bibliographic, chemical, 
# crystal, experimental, refinement or atomic coordinate data resulting 
# from the CCDC's data processing and validation procedures.
#
#######################################################################

data_ZOZZEV
_symmetry_cell_setting           triclinic
_symmetry_space_group_name_H-M   'P -1'
_symmetry_Int_Tables_number      2
_space_group_name_Hall           '-P 1'
loop_
_symmetry_equiv_pos_site_id
_symmetry_equiv_pos_as_xyz
1 x,y,z
2 -x,-y,-z
_cell_length_a                   11.8929(8)
_cell_length_b                   12.7046(11)
_cell_length_c                   14.8173(11)
_cell_angle_alpha                79.434(7)
_cell_angle_beta                 80.124(6)
_cell_angle_gamma                68.569(7)
_cell_volume                     2035.27
loop_
_atom_site_label
_atom_site_type_symbol
_atom_site_fract_x
_atom_site_fract_y
_atom_site_fract_z
Co1 Co 0.37437(11) 0.46776(10) 0.30783(8)
Co2 Co 0.42332(11) 0.71997(10) 0.32377(8)
Co3 Co 0.42226(11) 0.18004(11) 0.36490(8)
Co4 Co 0.81812(11) 0.20126(11) 0.04087(8)
Co5 Co 0.87934(11) 0.39152(12) 0.31702(9)
O1 O 0.5115(6) 0.5392(6) 0.3256(4)
O2 O 0.6106(7) 0.7023(6) 0.2763(5)
O3 O 0.7928(6) 0.5721(6) 0.3031(5)
O4 O 0.6963(6) 0.4040(6) 0.3100(5)
O5 O 0.8556(7) 0.3458(6) 0.0583(4)
O6 O 0.8985(7) 0.4184(6) 0.1664(5)
O7 O 0.9186(6) 0.2236(6) 0.2856(5)
O8 O 0.8984(7) 0.1434(6) 0.1699(5)
O9 O 0.3661(7) 0.8942(6) 0.2914(5)
O10 O 0.3877(7) 1.0589(6) 0.2972(5)
O11 O 0.6435(6) -0.1045(6) 0.5080(4)
O12 O 0.5840(6) 0.0505(6) 0.4063(4)
O13 O 1.1537(6) -0.0255(6) -0.0397(5)
O14 O 1.0015(7) 0.1384(6) -0.0281(5)
O15 O 0.5133(7) 0.2545(6) 0.5499(5)
O16 O 0.4343(6) 0.3244(5) 0.4160(4)
N1 N 0.4947(7) 0.3509(7) 0.2188(5)
N2 N 0.5144(8) 0.2352(6) 0.2447(5)
N3 N 0.6516(8) 0.2471(7) 0.1266(6)
N4 N 0.6579(14) 0.0637(11) 0.1964(10)
H1 H 0.7182 0.0321 0.1576
H2 H 0.6281 0.0222 0.2390
N5 N 0.2672(7) 0.5783(6) 0.4065(5)
N6 N 0.2888(7) 0.6751(6) 0.4143(5)
N7 N 0.1688(8) 0.6379(8) 0.5410(5)
N8 N 0.2200(10) 0.8102(8) 0.5243(7)
H3 H 0.2556 0.8543 0.4906
H4 H 0.1795 0.8281 0.5765
N9 N 0.2593(7) 0.7324(7) 0.0807(5)
N10 N 0.3316(8) 0.6073(7) 0.2039(5)
N11 N 0.3557(7) 0.7058(6) 0.2053(5)
N12 N 0.3236(11) 0.8817(8) 0.1064(7)
N13 N 0.2315(7) 0.4069(6) 0.3093(5)
N14 N 0.2504(7) 0.2936(7) 0.3379(5)
N15 N 0.0545(7) 0.3779(7) 0.3227(6)
N16 N 0.1280(15) 0.1757(16) 0.3764(13)
N17 N 0.058(2) 0.5680(19) 0.270(2)
H5 H 0.0991 0.6136 0.2584
H6 H -0.0181 0.5936 0.2646
C1 C 0.5755(9) 0.3555(8) 0.1464(6)
H7 H 0.5810 0.4231 0.1125
C2 C 0.6096(9) 0.1794(8) 0.1904(7)
C3 C 0.1981(9) 0.5606(8) 0.4796(7)
H8 H 0.1699 0.4996 0.4903
C4 C 0.2282(9) 0.7077(8) 0.4936(7)
C5 C 0.3100(10) 0.7780(8) 0.1330(7)
C6 C 0.2758(9) 0.6266(8) 0.1287(6)
C7 C 0.1154(9) 0.4542(8) 0.2985(6)
C8 C 0.1459(8) 0.2790(9) 0.3464(7)
C9 C 0.6251(9) 0.5025(9) 0.3125(6)
C10 C 0.6808(9) 0.6011(9) 0.2957(7)
C11 C 0.9013(9) 0.2238(9) 0.2036(6)
C12 C 0.8833(9) 0.3419(9) 0.1381(7)
C13 C 0.4104(13) 0.9563(9) 0.3170(7)
C14 C 0.5680(9) -0.0173(9) 0.4739(6)
C15 C 1.0442(9) 0.0333(8) -0.0201(6)
C16 C 0.4738(8) 0.3351(9) 0.4877(6)
O11A O 0.3565(6) 0.1045(6) 0.4920(4)
O12A O 0.4160(6) -0.0505(6) 0.5937(4)
C14A C 0.4320(9) 0.0173(9) 0.5261(6)
O13A O 0.8463(6) 0.0255(6) 0.0397(5)
O14A O 0.9985(7) -0.1384(6) 0.0281(5)
C15A C 0.9558(9) -0.0333(8) 0.0201(6)
Co1A Co 0.62563(11) -0.46776(10) 0.69217(8)
Co2A Co 0.57668(11) -0.71997(10) 0.67623(8)
Co3A Co 0.57774(11) -0.18004(11) 0.63510(8)
Co4A Co 0.18188(11) -0.20126(11) 0.95913(8)
Co5A Co 0.12066(11) -0.39152(12) 0.68298(9)
O1A O 0.4885(6) -0.5392(6) 0.6744(4)
O2A O 0.3894(7) -0.7023(6) 0.7237(5)
O3A O 0.2072(6) -0.5721(6) 0.6969(5)
O4A O 0.3037(6) -0.4040(6) 0.6900(5)
O5A O 0.1444(7) -0.3458(6) 0.9417(4)
O6A O 0.1015(7) -0.4184(6) 0.8336(5)
O7A O 0.0814(6) -0.2236(6) 0.7144(5)
O8A O 0.1016(7) -0.1434(6) 0.8301(5)
O9A O 0.6339(7) -0.8942(6) 0.7086(5)
O10A O 0.6123(7) -1.0589(6) 0.7028(5)
O15A O 0.4867(7) -0.2545(6) 0.4501(5)
O16A O 0.5657(6) -0.3244(5) 0.5840(4)
N1A N 0.5053(7) -0.3509(7) 0.7812(5)
N2A N 0.4856(8) -0.2352(6) 0.7553(5)
N3A N 0.3484(8) -0.2471(7) 0.8734(6)
N4A N 0.3421(14) -0.0637(11) 0.8036(10)
H1A H 0.2818 -0.0321 0.8424
H2A H 0.3719 -0.0222 0.7610
N5A N 0.7328(7) -0.5783(6) 0.5935(5)
N6A N 0.7112(7) -0.6751(6) 0.5857(5)
N7A N 0.8312(8) -0.6379(8) 0.4590(5)
N8A N 0.7800(10) -0.8102(8) 0.4757(7)
H3A H 0.7444 -0.8543 0.5094
H4A H 0.8205 -0.8281 0.4235
N9A N 0.7407(7) -0.7324(7) 0.9193(5)
N10A N 0.6684(8) -0.6073(7) 0.7961(5)
N11A N 0.6443(7) -0.7058(6) 0.7947(5)
N12A N 0.6764(11) -0.8817(8) 0.8936(7)
N13A N 0.7685(7) -0.4069(6) 0.6907(5)
N14A N 0.7496(7) -0.2936(7) 0.6621(5)
N15A N 0.9455(7) -0.3779(7) 0.6773(6)
N16A N 0.8720(15) -0.1757(16) 0.6236(13)
N17A N 0.942(2) -0.5680(19) 0.730(2)
H5A H 0.9009 -0.6136 0.7416
H6A H 1.0181 -0.5936 0.7354
C1A C 0.4245(9) -0.3555(8) 0.8536(6)
H7A H 0.4190 -0.4231 0.8875
C2A C 0.3904(9) -0.1794(8) 0.8096(7)
C3A C 0.8019(9) -0.5606(8) 0.5204(7)
H8A H 0.8301 -0.4996 0.5097
C4A C 0.7718(9) -0.7077(8) 0.5064(7)
C5A C 0.6900(10) -0.7780(8) 0.8670(7)
C6A C 0.7242(9) -0.6266(8) 0.8713(6)
C7A C 0.8846(9) -0.4542(8) 0.7015(6)
C8A C 0.8541(8) -0.2790(9) 0.6536(7)
C9A C 0.3749(9) -0.5025(9) 0.6875(6)
C10A C 0.3192(9) -0.6011(9) 0.7043(7)
C11A C 0.0987(9) -0.2238(9) 0.7964(6)
C12A C 0.1167(9) -0.3419(9) 0.8619(7)
C13A C 0.5896(13) -0.9563(9) 0.6830(7)
C16A C 0.5262(8) -0.3351(9) 0.5123(6)
Co2_2 Co 0.42332(11) -0.28003(10) 0.32377(8)
Co2A_2 Co 0.57668(11) 0.28003(10) 0.67623(8)
Co3_2 Co 0.42226(11) 1.18004(11) 0.36490(8)
Co3A_2 Co 0.57774(11) -1.18004(11) 0.63510(8)
Co4_2 Co 0.81812(11) -0.79874(11) 1.04087(8)
Co4A_2 Co 0.18188(11) 0.79874(11) -0.04087(8)
Co4A_3 Co 1.18188(11) -0.20126(11) -0.04087(8)
Co5_2 Co -0.12066(11) 0.39152(12) 0.31702(9)
Co5_3 Co 0.87934(11) -0.60848(12) 0.31702(9)
Co5A_2 Co 0.12066(11) 0.60848(12) 0.68298(9)
Co5A_3 Co 1.12066(11) -0.39152(12) 0.68298(9)
O10_2 O 0.3877(7) 0.0589(6) 0.2972(5)
O10A_2 O 0.6123(7) -0.0589(6) 0.7028(5)
O13_2 O 0.1537(6) -0.0255(6) 0.9603(5)
O14A_2 O -0.0015(7) -0.1384(6) 1.0281(5)
O15_2 O 0.5133(7) -0.7455(6) 0.5499(5)
O15A_2 O 0.4867(7) 0.7455(6) 0.4501(5)
N7_2 N 0.1688(8) -0.3621(8) 0.5410(5)
N7A_2 N 0.8312(8) 0.3621(8) 0.4590(5)
N9_2 N 0.2593(7) -0.2676(7) 1.0807(5)
N9A_2 N 0.7407(7) 0.2676(7) -0.0807(5)
N15_2 N 1.0545(7) 0.3779(7) 0.3227(6)
N15A_2 N -0.0545(7) -0.3779(7) 0.6773(6)
loop_
_geom_bond_atom_site_label_1
_geom_bond_atom_site_label_2
_geom_bond_site_symmetry_1
_geom_bond_site_symmetry_2
Co1 O1 1_555 1_555
Co2 O1 1_555 1_555
Co3 O12 1_555 1_555
Co4 O5 1_555 1_555
Co5 O3 1_555 1_555
O1 C9 1_555 1_555
O2 Co2 1_555 1_555
O3 C10 1_555 1_555
O4 Co5 1_555 1_555
O5 C12 1_555 1_555
O6 Co5 1_555 1_555
O7 Co5 1_555 1_555
O8 Co4 1_555 1_555
O9 Co2 1_555 1_555
O10 C13 1_555 1_555
O11 C14 1_555 1_555
O12 C14 1_555 1_555
O13 C15 1_555 1_555
O14 Co4 1_555 1_555
O15 C16 1_555 1_555
O16 Co1 1_555 1_555
N1 Co1 1_555 1_555
N2 Co3 1_555 1_555
N3 Co4 1_555 1_555
N4 H1 1_555 1_555
H2 N4 1_555 1_555
N5 Co1 1_555 1_555
N6 Co2 1_555 1_555
N7 C3 1_555 1_555
N8 H3 1_555 1_555
H4 N8 1_555 1_555
N9 C5 1_555 1_555
N10 Co1 1_555 1_555
N11 Co2 1_555 1_555
N12 C5 1_555 1_555
N13 Co1 1_555 1_555
N14 Co3 1_555 1_555
N15 C7 1_555 1_555
N16 C8 1_555 1_555
N17 H5 1_555 1_555
H6 N17 1_555 1_555
C1 N1 1_555 1_555
H7 C1 1_555 1_555
C2 N2 1_555 1_555
C3 N5 1_555 1_555
H8 C3 1_555 1_555
C4 N6 1_555 1_555
C5 N11 1_555 1_555
C6 N9 1_555 1_555
C7 N13 1_555 1_555
C8 N14 1_555 1_555
C9 O4 1_555 1_555
C10 O2 1_555 1_555
C11 O7 1_555 1_555
C12 O6 1_555 1_555
C13 O9 1_555 1_555
C14 C14A 1_555 1_555
C15 O14 1_555 1_555
C16 O16 1_555 1_555
O11A Co3 1_555 1_555
O12A C14A 1_555 1_555
C14A O11A 1_555 1_555
O13A Co4 1_555 1_555
O14A C15A 1_555 1_555
C15A C15 1_555 1_555
Co1A O1A 1_555 1_555
Co2A O1A 1_555 1_555
Co3A O11 1_555 1_555
Co4A O5A 1_555 1_555
Co5A O3A 1_555 1_555
O1A C9A 1_555 1_555
O2A Co2A 1_555 1_555
O3A C10A 1_555 1_555
O4A Co5A 1_555 1_555
O5A C12A 1_555 1_555
O6A Co5A 1_555 1_555
O7A Co5A 1_555 1_555
O8A Co4A 1_555 1_555
O9A Co2A 1_555 1_555
O10A C13A 1_555 1_555
O15A C16A 1_555 1_555
O16A Co1A 1_555 1_555
N1A Co1A 1_555 1_555
N2A Co3A 1_555 1_555
N3A Co4A 1_555 1_555
N4A H1A 1_555 1_555
H2A N4A 1_555 1_555
N5A Co1A 1_555 1_555
N6A Co2A 1_555 1_555
N7A C3A 1_555 1_555
N8A H3A 1_555 1_555
H4A N8A 1_555 1_555
N9A C5A 1_555 1_555
N10A Co1A 1_555 1_555
N11A Co2A 1_555 1_555
N12A C5A 1_555 1_555
N13A Co1A 1_555 1_555
N14A Co3A 1_555 1_555
N15A C7A 1_555 1_555
N16A C8A 1_555 1_555
N17A H5A 1_555 1_555
H6A N17A 1_555 1_555
C1A N1A 1_555 1_555
H7A C1A 1_555 1_555
C2A N2A 1_555 1_555
C3A N5A 1_555 1_555
H8A C3A 1_555 1_555
C4A N6A 1_555 1_555
C5A N11A 1_555 1_555
C6A N9A 1_555 1_555
C7A N13A 1_555 1_555
C8A N14A 1_555 1_555
C9A O4A 1_555 1_555
C10A O2A 1_555 1_555
C11A O7A 1_555 1_555
C12A O6A 1_555 1_555
C13A O9A 1_555 1_555
C16A O16A 1_555 1_555
Co2_2 O15A 1_555 1_555
Co2A_2 O15 1_555 1_555
Co3_2 O10 1_555 1_555
Co3A_2 O10A 1_555 1_555
Co4_2 N9A 1_555 1_555
Co4A_2 N9 1_555 1_555
Co4A_3 O13 1_555 1_555
Co5_2 N15 1_555 1_555
Co5_3 N7A 1_555 1_555
Co5A_2 N7 1_555 1_555
Co5A_3 N15A 1_555 1_555
O10_2 Co3 1_555 1_555
O10A_2 Co3A 1_555 1_555
O13_2 Co4A 1_555 1_555
O14A_2 Co4A 1_555 1_555
O15_2 Co2A 1_555 1_555
O15A_2 Co2 1_555 1_555
N7_2 Co5A 1_555 1_555
N7A_2 Co5 1_555 1_555
N9_2 Co4A 1_555 1_555
N9A_2 Co4 1_555 1_555
N15_2 Co5 1_555 1_555
N15A_2 Co5A 1_555 1_555
Co3 O16 1_555 1_555
O8 C11 1_555 1_555
N1 N2 1_555 1_555
N3 C1 1_555 1_555
N3 C2 1_555 1_555
N4 C2 1_555 1_555
N5 N6 1_555 1_555
N7 C4 1_555 1_555
N8 C4 1_555 1_555
N10 N11 1_555 1_555
N10 C6 1_555 1_555
N13 N14 1_555 1_555
N15 C8 1_555 1_555
N17 C7 1_555 1_555
C9 C10 1_555 1_555
C11 C12 1_555 1_555
O12A Co3A 1_555 1_555
O13A C15A 1_555 1_555
O14A Co4A_3 1_555 1_555
Co3A O16A 1_555 1_555
O8A C11A 1_555 1_555
N1A N2A 1_555 1_555
N3A C1A 1_555 1_555
N3A C2A 1_555 1_555
N4A C2A 1_555 1_555
N5A N6A 1_555 1_555
N7A C4A 1_555 1_555
N8A C4A 1_555 1_555
N10A N11A 1_555 1_555
N10A C6A 1_555 1_555
N13A N14A 1_555 1_555
N15A C8A 1_555 1_555
N17A C7A 1_555 1_555
C9A C10A 1_555 1_555
C11A C12A 1_555 1_555

#END
