
#######################################################################
#
#                 Cambridge Crystallographic Data Centre
#                                CCDC 
#
#######################################################################
#
# If this CIF has been generated from an entry in the Cambridge 
# Structural Database, then it will include bibliographic, chemical, 
# crystal, experimental, refinement or atomic coordinate data resulting 
# from the CCDC's data processing and validation procedures.
#
#######################################################################

data_ZUBFIN
_symmetry_cell_setting           orthorhombic
_symmetry_space_group_name_H-M   'F d d d'
_symmetry_Int_Tables_number      70
_space_group_name_Hall           '-F 2uv 2vw'
loop_
_symmetry_equiv_pos_site_id
_symmetry_equiv_pos_as_xyz
1 x,y,z
2 1/4-x,1/4-y,z
3 x,1/4-y,1/4-z
4 1/4-x,y,1/4-z
5 x,1/2+y,1/2+z
6 1/4-x,3/4-y,1/2+z
7 x,3/4-y,3/4-z
8 1/4-x,1/2+y,3/4-z
9 1/2+x,y,1/2+z
10 3/4-x,1/4-y,1/2+z
11 1/2+x,1/4-y,3/4-z
12 3/4-x,y,3/4-z
13 1/2+x,1/2+y,z
14 3/4-x,3/4-y,z
15 1/2+x,3/4-y,1/4-z
16 3/4-x,1/2+y,1/4-z
17 -x,-y,-z
18 3/4+x,3/4+y,-z
19 -x,3/4+y,3/4+z
20 3/4+x,-y,3/4+z
21 -x,1/2-y,1/2-z
22 3/4+x,1/4+y,1/2-z
23 -x,1/4+y,1/4+z
24 3/4+x,1/2-y,1/4+z
25 1/2-x,-y,1/2-z
26 1/4+x,3/4+y,1/2-z
27 1/2-x,3/4+y,1/4+z
28 1/4+x,-y,1/4+z
29 1/2-x,1/2-y,-z
30 1/4+x,1/4+y,-z
31 1/2-x,1/4+y,3/4+z
32 1/4+x,1/2-y,3/4+z
_cell_length_a                   11.43260(10)
_cell_length_b                   40.4457(8)
_cell_length_c                   63.8998(10)
_cell_angle_alpha                90
_cell_angle_beta                 90
_cell_angle_gamma                90
_cell_volume                     29547.2
loop_
_atom_site_label
_atom_site_type_symbol
_atom_site_fract_x
_atom_site_fract_y
_atom_site_fract_z
Zn1 Zn 0.45642(5) 0.54002(2) 0.53145(2)
Zn2 Zn 0.8750 0.3750 0.65340(2)
O1 O 1.1913(5) 0.31684(11) 0.76559(7)
O2 O 1.0244(5) 0.30633(12) 0.75031(8)
O3 O 0.9561(4) 0.34638(17) 0.67690(8)
O4 O 1.0725(4) 0.38480(13) 0.66446(8)
O5 O 0.5099(4) 0.54320(10) 0.57662(6)
O6 O 0.4964(4) 0.57749(10) 0.54954(5)
N1 N 0.8781(5) 0.41302(14) 0.63276(8)
N2 N 0.8927(4) 0.44279(14) 0.60404(8)
N3 N 1.1900(4) 0.48035(11) 0.55510(7)
N4 N 1.3469(3) 0.50495(11) 0.54282(6)
N5 N 0.7787(4) 0.49190(11) 0.53875(7)
N6 N 0.6127(4) 0.51541(11) 0.52973(6)
C1 C 1.1258(6) 0.31856(14) 0.75044(11)
C2 C 1.1647(5) 0.33670(13) 0.73062(9)
C3 C 1.2754(5) 0.35021(12) 0.73034(8)
H1 H 1.3249 0.3478 0.7422
C4 C 1.3157(4) 0.36754(11) 0.71277(7)
C5 C 1.2427(5) 0.37123(13) 0.69557(8)
H2 H 1.2693 0.3829 0.6836
C6 C 1.1299(4) 0.35778(14) 0.69597(9)
C7 C 1.0908(5) 0.34059(15) 0.71341(10)
H3 H 1.0142 0.3315 0.7136
C8 C 1.0496(5) 0.3634(2) 0.67775(12)
C9 C 0.7972(7) 0.4371(2) 0.63348(12)
H4 H 0.7450 0.4408 0.6448
C10 C 0.8008(8) 0.4554(2) 0.61568(12)
H5 H 0.7506 0.4732 0.6120
C11 C 0.9347(6) 0.41678(17) 0.61486(9)
H6 H 0.9968 0.4030 0.6102
C12 C 0.9260(5) 0.45508(15) 0.58420(9)
C13 C 0.8379(5) 0.46470(14) 0.57063(9)
H7 H 0.7580 0.4609 0.5740
C14 C 0.8692(4) 0.48008(14) 0.55203(8)
C15 C 0.9841(4) 0.48481(13) 0.54645(8)
H8 H 1.0040 0.4950 0.5335
C16 C 1.0699(4) 0.47431(13) 0.56018(8)
C17 C 1.0435(5) 0.45948(14) 0.57929(9)
H9 H 1.1035 0.4526 0.5886
C18 C 1.2851(4) 0.46082(14) 0.56098(9)
H10 H 1.2832 0.4409 0.5688
C19 C 1.3804(5) 0.47619(14) 0.55320(8)
H11 H 1.4586 0.4685 0.5546
C20 C 1.2317(4) 0.50654(13) 0.54421(8)
H12 H 1.1849 0.5236 0.5384
C21 C 0.7788(4) 0.49374(13) 0.51707(8)
H13 H 0.8385 0.4864 0.5078
C22 C 0.6765(4) 0.50514(14) 0.54559(8)
H14 H 0.6541 0.5068 0.5599
C23 C 0.6761(4) 0.50824(13) 0.51181(8)
H15 H 0.6513 0.5128 0.4979
C24 C 0.5231(5) 0.57075(13) 0.56839(8)
C25 C 0.6250 0.6250 0.56972(11)
C26 C 0.5762(5) 0.59861(12) 0.58068(7)
C27 C 0.5787(5) 0.59835(12) 0.60227(7)
H16 H 0.5486 0.5798 0.6096
C28 C 0.6250 0.6250 0.61339(10)
O1M O 1.5587(5) 0.43316(11) 0.76559(7)
O2M O 1.7256(5) 0.44367(12) 0.75031(8)
O3M O 1.7939(4) 0.40362(17) 0.67690(8)
O4M O 1.6775(4) 0.36520(13) 0.66446(8)
C1M C 1.6242(6) 0.43144(14) 0.75044(11)
C2M C 1.5853(5) 0.41330(13) 0.73062(9)
C3M C 1.4746(5) 0.39979(12) 0.73034(8)
H1M H 1.4251 0.4022 0.7422
C4M C 1.4343(4) 0.38246(11) 0.71277(7)
C5M C 1.5073(5) 0.37877(13) 0.69557(8)
H2M H 1.4807 0.3671 0.6836
C6M C 1.6201(4) 0.39222(14) 0.69597(9)
C7M C 1.6592(5) 0.40941(15) 0.71341(10)
H3M H 1.7358 0.4185 0.7136
C8M C 1.7004(5) 0.3866(2) 0.67775(12)
O5A O 0.7401(4) 0.70680(10) 0.57662(6)
O6A O 0.7536(4) 0.67251(10) 0.54954(5)
C24A C 0.7269(5) 0.67925(13) 0.56839(8)
C26A C 0.6738(5) 0.65139(12) 0.58068(7)
C27A C 0.6713(5) 0.65165(12) 0.60227(7)
H16A H 0.7014 0.6702 0.6096
O5B O 0.5099(4) 0.70680(10) 0.67338(6)
O6B O 0.4964(4) 0.67251(10) 0.70046(5)
C24B C 0.5231(5) 0.67925(13) 0.68161(8)
C25B C 0.6250 0.6250 0.68028(11)
C26B C 0.5762(5) 0.65139(12) 0.66932(7)
C27B C 0.5787(5) 0.65165(12) 0.64773(7)
H16B H 0.5486 0.6702 0.6404
C28B C 0.6250 0.6250 0.63661(10)
O5C O 0.7401(4) 0.54320(10) 0.67338(6)
O6C O 0.7536(4) 0.57749(10) 0.70046(5)
C24C C 0.7269(5) 0.57075(13) 0.68161(8)
C26C C 0.6738(5) 0.59861(12) 0.66932(7)
C27C C 0.6713(5) 0.59835(12) 0.64773(7)
H16C H 0.7014 0.5798 0.6404
Zn1A Zn 0.79358(5) 0.70998(2) 0.53145(2)
Zn2A Zn 0.3750 0.8750 0.65340(2)
O1A O 0.0587(5) 0.93316(11) 0.76559(7)
O2A O 0.2256(5) 0.94367(12) 0.75031(8)
O3A O 0.2939(4) 0.90362(17) 0.67690(8)
O4A O 0.1775(4) 0.86520(13) 0.66446(8)
N1A N 0.3719(5) 0.83698(14) 0.63276(8)
N2A N 0.3573(4) 0.80721(14) 0.60404(8)
N3A N 0.0600(4) 0.76965(11) 0.55510(7)
N4A N -0.0969(3) 0.74505(11) 0.54282(6)
N5A N 0.4713(4) 0.75810(11) 0.53875(7)
N6A N 0.6373(4) 0.73459(11) 0.52973(6)
C1A C 0.1242(6) 0.93144(14) 0.75044(11)
C2A C 0.0853(5) 0.91330(13) 0.73062(9)
C3A C -0.0254(5) 0.89979(12) 0.73034(8)
H1A H -0.0749 0.9022 0.7422
C4A C -0.0657(4) 0.88246(11) 0.71277(7)
C5A C 0.0073(5) 0.87877(13) 0.69557(8)
H2A H -0.0193 0.8671 0.6836
C6A C 0.1201(4) 0.89222(14) 0.69597(9)
C7A C 0.1592(5) 0.90941(15) 0.71341(10)
H3A H 0.2358 0.9185 0.7136
C8A C 0.2004(5) 0.8866(2) 0.67775(12)
C9A C 0.4528(7) 0.8129(2) 0.63348(12)
H4A H 0.5050 0.8092 0.6448
C10A C 0.4492(8) 0.7946(2) 0.61568(12)
H5A H 0.4994 0.7768 0.6120
C11A C 0.3153(6) 0.83322(17) 0.61486(9)
H6A H 0.2532 0.8470 0.6102
C12A C 0.3240(5) 0.79492(15) 0.58420(9)
C13A C 0.4121(5) 0.78530(14) 0.57063(9)
H7A H 0.4920 0.7891 0.5740
C14A C 0.3808(4) 0.76992(14) 0.55203(8)
C15A C 0.2659(4) 0.76519(13) 0.54645(8)
H8A H 0.2460 0.7550 0.5335
C16A C 0.1801(4) 0.77569(13) 0.56018(8)
C17A C 0.2065(5) 0.79052(14) 0.57929(9)
H9A H 0.1465 0.7974 0.5886
C18A C -0.0351(4) 0.78918(14) 0.56098(9)
H10A H -0.0332 0.8091 0.5688
C19A C -0.1304(5) 0.77381(14) 0.55320(8)
H11A H -0.2086 0.7815 0.5546
C20A C 0.0183(4) 0.74346(13) 0.54421(8)
H12A H 0.0651 0.7264 0.5384
C21A C 0.4712(4) 0.75626(13) 0.51707(8)
H13A H 0.4115 0.7636 0.5078
C22A C 0.5735(4) 0.74486(14) 0.54559(8)
H14A H 0.5959 0.7432 0.5599
C23A C 0.5739(4) 0.74176(13) 0.51181(8)
H15A H 0.5987 0.7372 0.4979
O1L O -0.3087(5) 0.81684(11) 0.76559(7)
O2L O -0.4756(5) 0.80633(12) 0.75031(8)
O3L O -0.5439(4) 0.84638(17) 0.67690(8)
O4L O -0.4275(4) 0.88480(13) 0.66446(8)
C1L C -0.3742(6) 0.81856(14) 0.75044(11)
C2L C -0.3353(5) 0.83670(13) 0.73062(9)
C3L C -0.2246(5) 0.85021(12) 0.73034(8)
H1L H -0.1751 0.8478 0.7422
C4L C -0.1843(4) 0.86754(11) 0.71277(7)
C5L C -0.2573(5) 0.87123(13) 0.69557(8)
H2L H -0.2307 0.8829 0.6836
C6L C -0.3701(4) 0.85778(14) 0.69597(9)
C7L C -0.4092(5) 0.84059(15) 0.71341(10)
H3L H -0.4858 0.8315 0.7136
C8L C -0.4504(5) 0.8634(2) 0.67775(12)
Zn1B Zn 0.45642(5) 0.70998(2) 0.71855(2)
N1B N 0.8781(5) 0.83698(14) 0.61724(8)
N2B N 0.8927(4) 0.80721(14) 0.64596(8)
N3B N 1.1900(4) 0.76965(11) 0.69490(7)
N4B N 1.3469(3) 0.74505(11) 0.70718(6)
N5B N 0.7787(4) 0.75810(11) 0.71125(7)
N6B N 0.6127(4) 0.73459(11) 0.72027(6)
C9B C 0.7972(7) 0.8129(2) 0.61652(12)
H4B H 0.7450 0.8092 0.6052
C10B C 0.8008(8) 0.7946(2) 0.63432(12)
H5B H 0.7506 0.7768 0.6380
C11B C 0.9347(6) 0.83322(17) 0.63514(9)
H6B H 0.9968 0.8470 0.6398
C12B C 0.9260(5) 0.79492(15) 0.66580(9)
C13B C 0.8379(5) 0.78530(14) 0.67937(9)
H7B H 0.7580 0.7891 0.6760
C14B C 0.8692(4) 0.76992(14) 0.69797(8)
C15B C 0.9841(4) 0.76519(13) 0.70355(8)
H8B H 1.0040 0.7550 0.7165
C16B C 1.0699(4) 0.77569(13) 0.68982(8)
C17B C 1.0435(5) 0.79052(14) 0.67071(9)
H9B H 1.1035 0.7974 0.6614
C18B C 1.2851(4) 0.78918(14) 0.68902(9)
H10B H 1.2832 0.8091 0.6812
C19B C 1.3804(5) 0.77381(14) 0.69680(8)
H11B H 1.4586 0.7815 0.6954
C20B C 1.2317(4) 0.74346(13) 0.70579(8)
H12B H 1.1849 0.7264 0.7116
C21B C 0.7788(4) 0.75626(13) 0.73293(8)
H13B H 0.8385 0.7636 0.7422
C22B C 0.6765(4) 0.74486(14) 0.70441(8)
H14B H 0.6541 0.7432 0.6901
C23B C 0.6761(4) 0.74176(13) 0.73819(8)
H15B H 0.6513 0.7372 0.7521
Zn1C Zn 0.79358(5) 0.54002(2) 0.71855(2)
N1C N 0.3719(5) 0.41302(14) 0.61724(8)
N2C N 0.3573(4) 0.44279(14) 0.64596(8)
N3C N 0.0600(4) 0.48035(11) 0.69490(7)
N4C N -0.0969(3) 0.50495(11) 0.70718(6)
N5C N 0.4713(4) 0.49190(11) 0.71125(7)
N6C N 0.6373(4) 0.51541(11) 0.72027(6)
C9C C 0.4528(7) 0.4371(2) 0.61652(12)
H4C H 0.5050 0.4408 0.6052
C10C C 0.4492(8) 0.4554(2) 0.63432(12)
H5C H 0.4994 0.4732 0.6380
C11C C 0.3153(6) 0.41678(17) 0.63514(9)
H6C H 0.2532 0.4030 0.6398
C12C C 0.3240(5) 0.45508(15) 0.66580(9)
C13C C 0.4121(5) 0.46470(14) 0.67937(9)
H7C H 0.4920 0.4609 0.6760
C14C C 0.3808(4) 0.48008(14) 0.69797(8)
C15C C 0.2659(4) 0.48481(13) 0.70355(8)
H8C H 0.2460 0.4950 0.7165
C16C C 0.1801(4) 0.47431(13) 0.68982(8)
C17C C 0.2065(5) 0.45948(14) 0.67071(9)
H9C H 0.1465 0.4526 0.6614
C18C C -0.0351(4) 0.46082(14) 0.68902(9)
H10C H -0.0332 0.4409 0.6812
C19C C -0.1304(5) 0.47619(14) 0.69680(8)
H11C H -0.2086 0.4685 0.6954
C20C C 0.0183(4) 0.50654(13) 0.70579(8)
H12C H 0.0651 0.5236 0.7116
C21C C 0.4712(4) 0.49374(13) 0.73293(8)
H13C H 0.4115 0.4864 0.7422
C22C C 0.5735(4) 0.50514(14) 0.70441(8)
H14C H 0.5959 0.5068 0.6901
C23C C 0.5739(4) 0.50824(13) 0.73819(8)
H15C H 0.5987 0.5128 0.7521
Zn1_2 Zn 1.45642(5) 0.54002(2) 0.53145(2)
Zn1A_2 Zn -0.20642(5) 0.70998(2) 0.53145(2)
Zn1B_2 Zn 1.45642(5) 0.70998(2) 0.71855(2)
Zn1C_2 Zn -0.20642(5) 0.54002(2) 0.71855(2)
Zn1V Zn -0.45642(5) 0.79002(2) 0.78145(2)
Zn1W Zn 0.20642(5) 0.95998(2) 0.78145(2)
Zn1Z Zn 1.04358(5) 0.29002(2) 0.78145(2)
Zn1AA Zn 1.70642(5) 0.45998(2) 0.78145(2)
Zn2_2 Zn 1.8750 0.3750 0.65340(2)
Zn2A_2 Zn -0.6250 0.8750 0.65340(2)
Zn2B Zn 0.8750 0.8750 0.59660(2)
Zn2C Zn 0.3750 0.3750 0.59660(2)
O1S O 0.9413(5) 0.68316(11) 0.51559(7)
O1U O 0.9413(5) 0.56684(11) 0.73441(7)
O1X O 0.3087(5) 0.68316(11) 0.73441(7)
O1DA O 0.3087(5) 0.56684(11) 0.51559(7)
O2S O 0.7744(5) 0.69367(12) 0.50031(8)
O2U O 0.7744(5) 0.55633(12) 0.74969(8)
O2X O 0.4756(5) 0.69367(12) 0.74969(8)
O2DA O 0.4756(5) 0.55633(12) 0.50031(8)
O3L_2 O 0.4561(4) 0.84638(17) 0.67690(8)
O3M_2 O 0.7939(4) 0.40362(17) 0.67690(8)
O4L_2 O 0.5725(4) 0.88480(13) 0.66446(8)
O4M_2 O 0.6775(4) 0.36520(13) 0.66446(8)
N1L N 0.3781(5) 0.91302(14) 0.63276(8)
N1M N 0.8719(5) 0.33698(14) 0.63276(8)
N4_2 N 0.3469(3) 0.50495(11) 0.54282(6)
N4A_2 N 0.9031(3) 0.74505(11) 0.54282(6)
N4B_2 N 0.3469(3) 0.74505(11) 0.70718(6)
N4C_2 N 0.9031(3) 0.50495(11) 0.70718(6)
O7 O 1.0080(5) 0.54676(18) 0.51435(14)
N7 N 0.8553(5) 0.58069(14) 0.50790(9)
C29 C 0.9309(10) 0.5675(3) 0.52214(16)
C30 C 0.8583(9) 0.57025(19) 0.48667(11)
H17 H 0.9202 0.5537 0.4849
H18 H 0.8742 0.5893 0.4776
H19 H 0.7827 0.5605 0.4829
C31 C 0.7590(7) 0.60173(18) 0.51439(13)
H20 H 0.6945 0.5880 0.5195
H21 H 0.7322 0.6149 0.5024
H22 H 0.7854 0.6165 0.5256
O8 O 0.9220(19) 0.5735(4) 0.54226(18)
O9 O 0.6318(12) 0.5119(4) 0.6051(2)
O10 O 0.7026(18) 0.5225(4) 0.6029(2)
O11 O 0.906(5) 0.5719(15) 0.6067(8)
O12 O 0.919(4) 0.5411(11) 0.6046(7)
loop_
_geom_bond_atom_site_label_1
_geom_bond_atom_site_label_2
_geom_bond_site_symmetry_1
_geom_bond_site_symmetry_2
Zn1 O6 1_555 1_555
Zn2 O3 1_555 1_555
O1 C1 1_555 1_555
O2 C1 1_555 1_555
O3 C8 1_555 1_555
O4 Zn2 1_555 1_555
O5 C24 1_555 1_555
O6 C24 1_555 1_555
N1 Zn2 1_555 1_555
N2 C10 1_555 1_555
N3 C16 1_555 1_555
N4 C19 1_555 1_555
N5 C14 1_555 1_555
N6 Zn1 1_555 1_555
C1 C2 1_555 1_555
C2 C3 1_555 1_555
C3 H1 1_555 1_555
C4 C3 1_555 1_555
C5 C4 1_555 1_555
H2 C5 1_555 1_555
C6 C5 1_555 1_555
C7 C2 1_555 1_555
H3 C7 1_555 1_555
C8 O4 1_555 1_555
C9 N1 1_555 1_555
H4 C9 1_555 1_555
C10 C9 1_555 1_555
H5 C10 1_555 1_555
C11 N1 1_555 1_555
H6 C11 1_555 1_555
C12 N2 1_555 1_555
C13 C12 1_555 1_555
H7 C13 1_555 1_555
C14 C13 1_555 1_555
C15 C14 1_555 1_555
H8 C15 1_555 1_555
C16 C15 1_555 1_555
C17 C12 1_555 1_555
H9 C17 1_555 1_555
C18 N3 1_555 1_555
H10 C18 1_555 1_555
C19 C18 1_555 1_555
H11 C19 1_555 1_555
C20 N3 1_555 1_555
H12 C20 1_555 1_555
C21 N5 1_555 1_555
H13 C21 1_555 1_555
C22 N5 1_555 1_555
H14 C22 1_555 1_555
C23 N6 1_555 1_555
H15 C23 1_555 1_555
C24 C26 1_555 1_555
C25 C26 1_555 1_555
C26 C27 1_555 1_555
C27 H16 1_555 1_555
C28 C27 1_555 1_555
O7 C29 1_555 1_555
N7 C29 1_555 1_555
C29 O8 1_555 1_555
C30 N7 1_555 1_555
H17 C30 1_555 1_555
H18 C30 1_555 1_555
H19 C30 1_555 1_555
C31 N7 1_555 1_555
H20 C31 1_555 1_555
H21 C31 1_555 1_555
H22 C31 1_555 1_555
O1M C1M 1_555 1_555
O2M C1M 1_555 1_555
O3M C8M 1_555 1_555
O4M C8M 1_555 1_555
C1M C2M 1_555 1_555
C2M C3M 1_555 1_555
C3M H1M 1_555 1_555
C4M C4 1_555 1_555
C5M C4M 1_555 1_555
H2M C5M 1_555 1_555
C6M C5M 1_555 1_555
C7M C2M 1_555 1_555
H3M C7M 1_555 1_555
C8M C6M 1_555 1_555
O5A C24A 1_555 1_555
O6A C24A 1_555 1_555
C24A C26A 1_555 1_555
C26A C25 1_555 1_555
C27A C28 1_555 1_555
H16A C27A 1_555 1_555
O5B C24B 1_555 1_555
O6B C24B 1_555 1_555
C24B C26B 1_555 1_555
C25B C26B 1_555 1_555
C26B C27B 1_555 1_555
C27B H16B 1_555 1_555
C28B C28 1_555 1_555
O5C C24C 1_555 1_555
O6C C24C 1_555 1_555
C24C C26C 1_555 1_555
C26C C25B 1_555 1_555
C27C C28B 1_555 1_555
H16C C27C 1_555 1_555
Zn1A O6A 1_555 1_555
Zn2A O3A 1_555 1_555
O1A C1A 1_555 1_555
O2A C1A 1_555 1_555
O3A C8A 1_555 1_555
O4A Zn2A 1_555 1_555
N1A Zn2A 1_555 1_555
N2A C10A 1_555 1_555
N3A C16A 1_555 1_555
N4A C19A 1_555 1_555
N5A C14A 1_555 1_555
N6A Zn1A 1_555 1_555
C1A C2A 1_555 1_555
C2A C3A 1_555 1_555
C3A H1A 1_555 1_555
C4A C3A 1_555 1_555
C5A C4A 1_555 1_555
H2A C5A 1_555 1_555
C6A C5A 1_555 1_555
C7A C2A 1_555 1_555
H3A C7A 1_555 1_555
C8A O4A 1_555 1_555
C9A N1A 1_555 1_555
H4A C9A 1_555 1_555
C10A C9A 1_555 1_555
H5A C10A 1_555 1_555
C11A N1A 1_555 1_555
H6A C11A 1_555 1_555
C12A N2A 1_555 1_555
C13A C12A 1_555 1_555
H7A C13A 1_555 1_555
C14A C13A 1_555 1_555
C15A C14A 1_555 1_555
H8A C15A 1_555 1_555
C16A C15A 1_555 1_555
C17A C12A 1_555 1_555
H9A C17A 1_555 1_555
C18A N3A 1_555 1_555
H10A C18A 1_555 1_555
C19A C18A 1_555 1_555
H11A C19A 1_555 1_555
C20A N3A 1_555 1_555
H12A C20A 1_555 1_555
C21A N5A 1_555 1_555
H13A C21A 1_555 1_555
C22A N5A 1_555 1_555
H14A C22A 1_555 1_555
C23A N6A 1_555 1_555
H15A C23A 1_555 1_555
O1L C1L 1_555 1_555
O2L C1L 1_555 1_555
O3L C8L 1_555 1_555
O4L C8L 1_555 1_555
C1L C2L 1_555 1_555
C2L C3L 1_555 1_555
C3L H1L 1_555 1_555
C4L C4A 1_555 1_555
C5L C4L 1_555 1_555
H2L C5L 1_555 1_555
C6L C5L 1_555 1_555
C7L C2L 1_555 1_555
H3L C7L 1_555 1_555
C8L C6L 1_555 1_555
Zn1B O6B 1_555 1_555
N1B C9B 1_555 1_555
N2B C10B 1_555 1_555
N3B C16B 1_555 1_555
N4B C19B 1_555 1_555
N5B C14B 1_555 1_555
N6B Zn1B 1_555 1_555
C9B H4B 1_555 1_555
C10B C9B 1_555 1_555
H5B C10B 1_555 1_555
C11B N1B 1_555 1_555
H6B C11B 1_555 1_555
C12B N2B 1_555 1_555
C13B C12B 1_555 1_555
H7B C13B 1_555 1_555
C14B C13B 1_555 1_555
C15B C14B 1_555 1_555
H8B C15B 1_555 1_555
C16B C15B 1_555 1_555
C17B C12B 1_555 1_555
H9B C17B 1_555 1_555
C18B N3B 1_555 1_555
H10B C18B 1_555 1_555
C19B C18B 1_555 1_555
H11B C19B 1_555 1_555
C20B N3B 1_555 1_555
H12B C20B 1_555 1_555
C21B N5B 1_555 1_555
H13B C21B 1_555 1_555
C22B N5B 1_555 1_555
H14B C22B 1_555 1_555
C23B N6B 1_555 1_555
H15B C23B 1_555 1_555
Zn1C O6C 1_555 1_555
N1C C9C 1_555 1_555
N2C C10C 1_555 1_555
N3C C16C 1_555 1_555
N4C C19C 1_555 1_555
N5C C14C 1_555 1_555
N6C Zn1C 1_555 1_555
C9C H4C 1_555 1_555
C10C C9C 1_555 1_555
H5C C10C 1_555 1_555
C11C N1C 1_555 1_555
H6C C11C 1_555 1_555
C12C N2C 1_555 1_555
C13C C12C 1_555 1_555
H7C C13C 1_555 1_555
C14C C13C 1_555 1_555
C15C C14C 1_555 1_555
H8C C15C 1_555 1_555
C16C C15C 1_555 1_555
C17C C12C 1_555 1_555
H9C C17C 1_555 1_555
C18C N3C 1_555 1_555
H10C C18C 1_555 1_555
C19C C18C 1_555 1_555
H11C C19C 1_555 1_555
C20C N3C 1_555 1_555
H12C C20C 1_555 1_555
C21C N5C 1_555 1_555
H13C C21C 1_555 1_555
C22C N5C 1_555 1_555
H14C C22C 1_555 1_555
C23C N6C 1_555 1_555
H15C C23C 1_555 1_555
Zn1_2 N4 1_555 1_555
Zn1A_2 N4A 1_555 1_555
Zn1B_2 N4B 1_555 1_555
Zn1C_2 N4C 1_555 1_555
Zn1V O1L 1_555 1_555
Zn1W O1A 1_555 1_555
Zn1Z O1 1_555 1_555
Zn1AA O1M 1_555 1_555
Zn2_2 O3M 1_555 1_555
Zn2A_2 O3L 1_555 1_555
Zn2B N1B 1_555 1_555
Zn2C N1C 1_555 1_555
O1S Zn1A 1_555 1_555
O1U Zn1C 1_555 1_555
O1X Zn1B 1_555 1_555
O1DA Zn1 1_555 1_555
O2S Zn1A 1_555 1_555
O2U Zn1C 1_555 1_555
O2X Zn1B 1_555 1_555
O2DA Zn1 1_555 1_555
O3L_2 Zn2A 1_555 1_555
O3M_2 Zn2 1_555 1_555
O4L_2 Zn2A 1_555 1_555
O4M_2 Zn2 1_555 1_555
N1L Zn2A 1_555 1_555
N1M Zn2 1_555 1_555
N4_2 Zn1 1_555 1_555
N4A_2 Zn1A 1_555 1_555
N4B_2 Zn1B 1_555 1_555
N4C_2 Zn1C 1_555 1_555
O2 Zn1Z 1_555 1_555
N2 C11 1_555 1_555
N4 C20 1_555 1_555
N6 C22 1_555 1_555
C6 C7 1_555 1_555
C6 C8 1_555 1_555
C16 C17 1_555 1_555
C21 C23 1_555 1_555
O2M Zn1AA 1_555 1_555
O4M Zn2_2 1_555 1_555
C3M C4M 1_555 1_555
C6M C7M 1_555 1_555
C26A C27A 1_555 1_555
C27B C28B 1_555 1_555
C26C C27C 1_555 1_555
O2A Zn1W 1_555 1_555
N2A C11A 1_555 1_555
N4A C20A 1_555 1_555
N6A C22A 1_555 1_555
C6A C7A 1_555 1_555
C6A C8A 1_555 1_555
C16A C17A 1_555 1_555
C21A C23A 1_555 1_555
O2L Zn1V 1_555 1_555
O4L Zn2A_2 1_555 1_555
C3L C4L 1_555 1_555
C6L C7L 1_555 1_555
N2B C11B 1_555 1_555
N4B C20B 1_555 1_555
N6B C22B 1_555 1_555
C16B C17B 1_555 1_555
C21B C23B 1_555 1_555
N2C C11C 1_555 1_555
N4C C20C 1_555 1_555
N6C C22C 1_555 1_555
C16C C17C 1_555 1_555
C21C C23C 1_555 1_555

#END
