
#######################################################################
#
#                 Cambridge Crystallographic Data Centre
#                                CCDC 
#
#######################################################################
#
# If this CIF has been generated from an entry in the Cambridge 
# Structural Database, then it will include bibliographic, chemical, 
# crystal, experimental, refinement or atomic coordinate data resulting 
# from the CCDC's data processing and validation procedures.
#
#######################################################################

data_ZUBKEO
_symmetry_cell_setting           triclinic
_symmetry_space_group_name_H-M   'P -1'
_symmetry_Int_Tables_number      2
_space_group_name_Hall           '-P 1'
loop_
_symmetry_equiv_pos_site_id
_symmetry_equiv_pos_as_xyz
1 x,y,z
2 -x,-y,-z
_cell_length_a                   5.2502
_cell_length_b                   9.66899
_cell_length_c                   10.76792
_cell_angle_alpha                90.291
_cell_angle_beta                 91.059
_cell_angle_gamma                92.413
_cell_volume                     546.037
loop_
_atom_site_label
_atom_site_type_symbol
_atom_site_fract_x
_atom_site_fract_y
_atom_site_fract_z
Cu1 Cu 0.7082 0.4348 0.4882
O1 O 0.4901 0.2663 0.4723
O2 O 0.1152 0.3776 0.5023
O3 O 0.6789 0.4464 0.6708
O4 O 0.308 0.5649 0.6918
C1 C -0.1007 0.1201 0.5683
C2 C 0.118 0.13 0.4932
C3 C 0.2499 0.2679 0.488
C4 C 0.2193 0.01 0.4256
C5 C 0.3022 0.5653 0.947
C6 C 0.4983 0.5031 0.8715
C7 C 0.4949 0.5053 0.7337
C8 C 0.6963 0.4379 0.9251
H1 H -0.1685 0.2046 0.6159
H2 H 0.3743 0.0193 0.3752
H3 H 0.1655 0.6103 0.9078
H4 H 0.8330 0.3962 0.8711
O1A O -0.4901 -0.2663 0.5277
O2A O -0.1152 -0.3776 0.4977
C2A C -0.118 -0.13 0.5068
C3A C -0.2499 -0.2679 0.512
C4A C -0.2193 -0.01 0.5744
H2A H -0.3743 -0.0193 0.6248
C1A C 0.1007 -0.1201 0.4317
H1A H 0.1685 -0.2046 0.3841
O3A O 0.3211 0.5536 1.3292
C6A C 0.5017 0.4969 1.1285
C7A C 0.5051 0.4947 1.2663
C5A C 0.6978 0.4347 1.053
H3A H 0.8345 0.3897 1.0922
O4A O 0.692 0.4351 1.3082
C8A C 0.3037 0.5621 1.0749
H4A H 0.1670 0.6038 1.1289
Cu1A Cu -0.7082 -0.4348 0.5118
Cu1_2 Cu -0.2918 -0.5652 0.4882
Cu1_3 Cu -0.2918 0.4348 0.4882
Cu1_4 Cu 0.7082 0.4348 1.4882
Cu1A_2 Cu 0.2918 -0.4348 0.5118
Cu1A_3 Cu 0.2918 0.5652 0.5118
Cu1A_4 Cu 0.2918 0.5652 1.5118
O2_2 O -0.8848 -0.6224 0.5023
O2_3 O 1.1152 0.3776 0.5023
O2A_2 O -1.1152 -0.3776 0.4977
O2A_3 O 0.8848 0.6224 0.4977
O3A_2 O -0.6789 -0.4464 0.3292
O4_2 O -0.692 -0.4351 0.6918
O4A_2 O 0.692 0.4351 0.3082
loop_
_geom_bond_atom_site_label_1
_geom_bond_atom_site_label_2
_geom_bond_site_symmetry_1
_geom_bond_site_symmetry_2
Cu1 O1 1_555 1_555
O1 C3 1_555 1_555
O2 C3 1_555 1_555
O3 Cu1 1_555 1_555
O4 C7 1_555 1_555
C1 C2 1_555 1_555
C2 C3 1_555 1_555
C4 C2 1_555 1_555
C5 C6 1_555 1_555
C6 C7 1_555 1_555
C7 O3 1_555 1_555
C8 C6 1_555 1_555
H1 C1 1_555 1_555
H2 C4 1_555 1_555
H3 C5 1_555 1_555
H4 C8 1_555 1_555
O1A C3A 1_555 1_555
O2A C3A 1_555 1_555
C2A C3A 1_555 1_555
C4A C1 1_555 1_555
H2A C4A 1_555 1_555
C1A C4 1_555 1_555
H1A C1A 1_555 1_555
O3A C7A 1_555 1_555
C6A C7A 1_555 1_555
C7A O4A 1_555 1_555
C5A C8 1_555 1_555
H3A C5A 1_555 1_555
O4A Cu1_4 1_555 1_555
C8A C5 1_555 1_555
H4A C8A 1_555 1_555
Cu1A O1A 1_555 1_555
Cu1_2 O2A 1_555 1_555
Cu1_3 O2 1_555 1_555
Cu1_4 Cu1A_4 1_555 1_555
Cu1A_2 O2A 1_555 1_555
Cu1A_3 Cu1 1_555 1_555
Cu1A_4 O3A 1_555 1_555
O2_2 Cu1A 1_555 1_555
O2_3 Cu1 1_555 1_555
O2A_2 Cu1A 1_555 1_555
O2A_3 Cu1 1_555 1_555
O3A_2 Cu1A 1_555 1_555
O4_2 Cu1A 1_555 1_555
O4A_2 Cu1 1_555 1_555
O2 Cu1A_3 1_555 1_555
O4 Cu1A_3 1_555 1_555
C2A C4A 1_555 1_555
C2A C1A 1_555 1_555
C6A C5A 1_555 1_555
C6A C8A 1_555 1_555
Cu1A Cu1_2 1_555 1_555

#END
