
#######################################################################
#
#                 Cambridge Crystallographic Data Centre
#                                CCDC 
#
#######################################################################
#
# If this CIF has been generated from an entry in the Cambridge 
# Structural Database, then it will include bibliographic, chemical, 
# crystal, experimental, refinement or atomic coordinate data resulting 
# from the CCDC's data processing and validation procedures.
#
#######################################################################

data_ZUBNIV
_symmetry_cell_setting           monoclinic
_symmetry_space_group_name_H-M   'P 21/c'
_symmetry_Int_Tables_number      14
_space_group_name_Hall           '-P 2ybc'
loop_
_symmetry_equiv_pos_site_id
_symmetry_equiv_pos_as_xyz
1 x,y,z
2 -x,1/2+y,1/2-z
3 -x,-y,-z
4 x,1/2-y,1/2+z
_cell_length_a                   13.6550(10)
_cell_length_b                   7.2780(10)
_cell_length_c                   12.4280(10)
_cell_angle_alpha                90
_cell_angle_beta                 94.4240(10)
_cell_angle_gamma                90
_cell_volume                     1231.43
loop_
_atom_site_label
_atom_site_type_symbol
_atom_site_fract_x
_atom_site_fract_y
_atom_site_fract_z
C1 C 0.18199(17) 0.5934(3) 0.3373(2)
C2 C 0.26233(18) 0.6429(3) 0.4240(2)
C3 C 0.2462(2) 0.6258(4) 0.5314(2)
H1 H 0.1857 0.5888 0.5536
C4 C 0.3245(2) 0.6664(5) 0.6046(2)
H2 H 0.3154 0.6612 0.6780
C5 C 0.4206(2) 0.7240(4) 0.4683(2)
C6 C 0.5197(2) 0.7719(4) 0.4341(2)
C7 C 0.5415(2) 0.7757(5) 0.3279(3)
H3 H 0.4935 0.7484 0.2731
C8 C 0.6359(2) 0.8209(6) 0.3038(3)
H4 H 0.6521 0.8269 0.2326
C9 C 0.7054(2) 0.8568(5) 0.3877(3)
H5 H 0.7692 0.8830 0.3712
C10 C 0.5943(2) 0.8157(4) 0.5122(2)
H6 H 0.5795 0.8171 0.5840
C11 C -0.01152(17) 0.5868(3) -0.03390(18)
Y1 Y -0.025796(16) 0.74044(3) 0.204427(17)
N1 N 0.34863(16) 0.6955(3) 0.39014(18)
N2 N 0.41243(19) 0.7126(4) 0.5742(2)
N3 N 0.68602(17) 0.8560(4) 0.4900(2)
O1 O 0.14263(13) 0.7184(2) 0.28035(16)
O2 O 0.16138(13) 0.4279(3) 0.33287(17)
O3 O -0.01204(17) 0.7362(2) 0.01417(15)
O4 O 0.04143(13) 1.0209(2) 0.17078(13)
O5 O -0.16567(15) 0.5697(3) 0.1430(2)
O6 O -0.02828(12) 0.5621(2) -0.13456(12)
H7 H -0.2225(18) 0.588(4) 0.100(2)
H8 H -0.172(2) 0.455(3) 0.178(3)
H9 H 0.043(3) 1.062(5) 0.1052(18)
C11B C 0.01152(17) 0.4132(3) 0.03390(18)
O3B O 0.01204(17) 0.2638(2) -0.01417(15)
O6B O 0.02828(12) 0.4379(2) 0.13456(12)
C1B C -0.18199(17) 0.4066(3) -0.3373(2)
C2B C -0.26233(18) 0.3571(3) -0.4240(2)
C3B C -0.2462(2) 0.3742(4) -0.5314(2)
H1B H -0.1857 0.4112 -0.5536
C4B C -0.3245(2) 0.3336(5) -0.6046(2)
H2B H -0.3154 0.3388 -0.6780
C5B C -0.4206(2) 0.2760(4) -0.4683(2)
C6B C -0.5197(2) 0.2281(4) -0.4341(2)
C7B C -0.5415(2) 0.2243(5) -0.3279(3)
H3B H -0.4935 0.2516 -0.2731
C8B C -0.6359(2) 0.1791(6) -0.3038(3)
H4B H -0.6521 0.1731 -0.2326
C9B C -0.7054(2) 0.1432(5) -0.3877(3)
H5B H -0.7692 0.1170 -0.3712
C10B C -0.5943(2) 0.1843(4) -0.5122(2)
H6B H -0.5795 0.1829 -0.5840
Y1B Y 0.025796(16) 0.25956(3) -0.204427(17)
N1B N -0.34863(16) 0.3045(3) -0.39014(18)
N2B N -0.41243(19) 0.2874(4) -0.5742(2)
N3B N -0.68602(17) 0.1440(4) -0.4900(2)
O1B O -0.14263(13) 0.2816(2) -0.28035(16)
O2B O -0.16138(13) 0.5721(3) -0.33287(17)
O4B O -0.04143(13) -0.0209(2) -0.17078(13)
O5B O 0.16567(15) 0.4303(3) -0.1430(2)
H7B H 0.2225(18) 0.412(4) -0.100(2)
H8B H 0.172(2) 0.545(3) -0.178(3)
H9B H -0.043(3) -0.062(5) -0.1052(18)
Y1A Y 0.025796(16) 0.24044(3) 0.295573(17)
Y1A_2 Y 0.025796(16) 1.24044(3) 0.295573(17)
Y1C Y -0.025796(16) -0.24044(3) -0.295573(17)
Y1C_2 Y -0.025796(16) 0.75956(3) -0.295573(17)
O2A O -0.16138(13) 0.9279(3) 0.16713(17)
O2C O 0.16138(13) 0.0721(3) -0.16713(17)
O4A O -0.04143(13) 0.5209(2) 0.32922(13)
O4C O 0.04143(13) 0.4791(2) -0.32922(13)
O6A O 0.02828(12) 0.0621(2) -0.36544(12)
O6C O -0.02828(12) 0.9379(2) 0.36544(12)
loop_
_geom_bond_atom_site_label_1
_geom_bond_atom_site_label_2
_geom_bond_site_symmetry_1
_geom_bond_site_symmetry_2
C1 C2 1_555 1_555
C2 C3 1_555 1_555
C3 H1 1_555 1_555
C4 C3 1_555 1_555
H2 C4 1_555 1_555
C5 C6 1_555 1_555
C6 C7 1_555 1_555
C7 H3 1_555 1_555
C8 C7 1_555 1_555
H4 C8 1_555 1_555
C9 C8 1_555 1_555
H5 C9 1_555 1_555
C10 C6 1_555 1_555
H6 C10 1_555 1_555
C11 O3 1_555 1_555
Y1 O1 1_555 1_555
N1 C2 1_555 1_555
N2 C4 1_555 1_555
N3 C9 1_555 1_555
O1 C1 1_555 1_555
O2 C1 1_555 1_555
O3 Y1 1_555 1_555
O4 Y1 1_555 1_555
O5 Y1 1_555 1_555
O6 C11 1_555 1_555
H7 O5 1_555 1_555
H8 O5 1_555 1_555
H9 O4 1_555 1_555
C11B C11 1_555 1_555
O3B C11B 1_555 1_555
O6B Y1 1_555 1_555
C1B C2B 1_555 1_555
C2B C3B 1_555 1_555
C3B H1B 1_555 1_555
C4B C3B 1_555 1_555
H2B C4B 1_555 1_555
C5B C6B 1_555 1_555
C6B C7B 1_555 1_555
C7B H3B 1_555 1_555
C8B C7B 1_555 1_555
H4B C8B 1_555 1_555
C9B C8B 1_555 1_555
H5B C9B 1_555 1_555
C10B C6B 1_555 1_555
H6B C10B 1_555 1_555
Y1B O6 1_555 1_555
N1B C2B 1_555 1_555
N2B C4B 1_555 1_555
N3B C9B 1_555 1_555
O1B C1B 1_555 1_555
O2B C1B 1_555 1_555
O4B Y1B 1_555 1_555
O5B Y1B 1_555 1_555
H7B O5B 1_555 1_555
H8B O5B 1_555 1_555
H9B O4B 1_555 1_555
Y1A O2 1_555 1_555
Y1A_2 O4 1_555 1_555
Y1C O4B 1_555 1_555
Y1C_2 O6 1_555 1_555
O2A Y1 1_555 1_555
O2C Y1B 1_555 1_555
O4A Y1 1_555 1_555
O4C Y1B 1_555 1_555
O6A Y1B 1_555 1_555
O6C Y1 1_555 1_555
C5 N1 1_555 1_555
C5 N2 1_555 1_555
C10 N3 1_555 1_555
C11B O6B 1_555 1_555
O3B Y1B 1_555 1_555
O6B Y1A 1_555 1_555
C5B N1B 1_555 1_555
C5B N2B 1_555 1_555
C10B N3B 1_555 1_555
Y1B O1B 1_555 1_555
O2B Y1C_2 1_555 1_555
Y1A O4A 1_555 1_555
Y1A_2 O6C 1_555 1_555
Y1C O6A 1_555 1_555
Y1C_2 O4C 1_555 1_555

#END
