
#######################################################################
#
#                 Cambridge Crystallographic Data Centre
#                                CCDC 
#
#######################################################################
#
# If this CIF has been generated from an entry in the Cambridge 
# Structural Database, then it will include bibliographic, chemical, 
# crystal, experimental, refinement or atomic coordinate data resulting 
# from the CCDC's data processing and validation procedures.
#
#######################################################################

data_ZUBPUJ
_symmetry_cell_setting           monoclinic
_symmetry_space_group_name_H-M   'C 2/c'
_symmetry_Int_Tables_number      15
_space_group_name_Hall           '-C 2yn'
loop_
_symmetry_equiv_pos_site_id
_symmetry_equiv_pos_as_xyz
1 x,y,z
2 -x,y,1/2-z
3 1/2+x,1/2+y,z
4 1/2-x,1/2+y,1/2-z
5 -x,-y,-z
6 x,-y,1/2+z
7 1/2-x,1/2-y,-z
8 1/2+x,1/2-y,1/2+z
_cell_length_a                   26.3119(19)
_cell_length_b                   10.3171(7)
_cell_length_c                   23.8781(17)
_cell_angle_alpha                90
_cell_angle_beta                 106.3230(10)
_cell_angle_gamma                90
_cell_volume                     6220.74
loop_
_atom_site_label
_atom_site_type_symbol
_atom_site_fract_x
_atom_site_fract_y
_atom_site_fract_z
Ag1 Ag 0.0000 0.3162(4) 0.7500
Ag2 Ag 0.18612(5) -0.17796(11) 0.68407(5)
Ag3 Ag 0.21497(5) -0.53759(11) 0.67370(5)
C1 C 0.1817(6) -0.2040(15) 0.3643(6)
H1 H 0.1793 -0.1252 0.3448
C2 C 0.1859(5) -0.4303(15) 0.3621(6)
H2 H 0.1856 -0.5057 0.3406
C3 C 0.1903(5) -0.4360(14) 0.4209(6)
H3 H 0.1948 -0.5159 0.4397
C4 C 0.1720(6) 0.1504(13) 0.5966(6)
C5 C 0.1767(7) 0.2521(16) 0.5619(7)
H4 H 0.2019 0.3161 0.5763
C6 C 0.1064(8) 0.0663(17) 0.5171(7)
H5 H 0.0845 -0.0029 0.5010
C7 C 0.1441(8) 0.2607(18) 0.5054(8)
H6 H 0.1483 0.3277 0.4810
C8 C 0.1893(5) -0.3358(13) 0.5131(6)
C9 C 0.1881(5) -0.3264(14) 0.4517(6)
C10 C 0.1380(7) 0.0566(16) 0.5726(7)
H7 H 0.1359 -0.0171 0.5943
C11 C 0.1850(5) -0.2068(15) 0.4244(6)
H8 H 0.1851 -0.1304 0.4451
C12 C 0.2054(5) 0.1461(12) 0.6578(5)
N1 N 0.1959(5) -0.4440(11) 0.5432(5)
N2 N 0.1953(5) -0.4083(11) 0.5970(5)
N3 N 0.1838(5) -0.2306(11) 0.5459(5)
N4 N 0.1877(5) -0.2816(11) 0.5983(5)
N5 N 0.2177(4) 0.0374(10) 0.6904(4)
N6 N 0.2523(4) 0.2070(10) 0.7420(4)
N7 N 0.1057(7) 0.1690(14) 0.4859(6)
N8 N 0.2263(4) 0.2496(11) 0.6892(4)
N9 N 0.2463(4) 0.0786(11) 0.7418(4)
N10 N 0.1821(5) -0.3128(13) 0.3361(5)
Ag2C Ag 0.31388(5) 0.32204(11) 0.81593(5)
Ag3_2 Ag 0.21497(5) 0.46241(11) 0.67370(5)
Ag3C Ag 0.28503(5) -0.03759(11) 0.82630(5)
N6C N 0.2477(4) -0.2930(10) 0.7580(4)
N8_2 N 0.2263(4) -0.7504(11) 0.6892(4)
N9C N 0.2537(4) -0.4214(11) 0.7582(4)
P1 P 0.0000 -0.1866(5) 0.7500
Mo1 Mo 0.04060(6) -0.1886(2) 0.62035(6)
Mo2 Mo -0.04568(6) -0.43045(16) 0.64374(6)
Mo3 Mo -0.04656(6) 0.05799(16) 0.64369(6)
Mo4 Mo 0.08751(5) 0.05582(16) 0.72844(6)
Mo5 Mo -0.08788(5) -0.42790(16) 0.77397(6)
Mo6 Mo -0.13377(5) -0.18392(13) 0.66475(5)
O1 O -0.0476(8) -0.254(2) 0.7199(9)
O2 O -0.0480(7) -0.113(2) 0.7201(8)
O3 O 0.0157(8) -0.080(2) 0.7040(9)
O4 O -0.0153(7) -0.2838(19) 0.7951(7)
O5 O -0.0103(5) -0.3240(15) 0.5993(6)
O6 O -0.0128(5) -0.0723(15) 0.6077(6)
O7 O 0.0208(5) 0.1065(16) 0.6851(6)
O8 O 0.0237(5) -0.5085(17) 0.6798(6)
O9 O 0.0876(5) -0.0686(14) 0.6698(5)
O10 O -0.1062(5) -0.0548(12) 0.6237(5)
O11 O -0.1379(5) -0.0537(11) 0.7190(5)
O12 O -0.0903(5) -0.3243(14) 0.8363(6)
O13 O -0.1007(5) -0.3088(12) 0.6271(5)
O14 O -0.0685(5) -0.4880(13) 0.7063(5)
O15 O 0.0702(5) 0.1238(12) 0.7952(5)
O16 O -0.1332(5) -0.3139(11) 0.7213(5)
O17 O -0.1941(5) -0.1892(18) 0.6233(5)
O18 O -0.0656(5) 0.1651(12) 0.5927(5)
O19 O 0.1275(4) 0.1710(12) 0.7191(5)
O20 O -0.1319(4) -0.5378(12) 0.7788(5)
O21 O -0.0701(5) -0.5398(12) 0.5943(5)
O22 O 0.0603(4) -0.1836(10) 0.5614(4)
O1A O 0.0476(8) -0.254(2) 0.7801(9)
O2A O 0.0480(7) -0.113(2) 0.7799(8)
O3A O -0.0157(8) -0.080(2) 0.7960(9)
O4A O 0.0153(7) -0.2838(19) 0.7049(7)
Mo1A Mo -0.04060(6) -0.1886(2) 0.87965(6)
Mo2A Mo 0.04568(6) -0.43045(16) 0.85626(6)
Mo3A Mo 0.04656(6) 0.05799(16) 0.85631(6)
Mo4A Mo -0.08751(5) 0.05582(16) 0.77156(6)
Mo5A Mo 0.08788(5) -0.42790(16) 0.72603(6)
Mo6A Mo 0.13377(5) -0.18392(13) 0.83525(5)
O5A O 0.0103(5) -0.3240(15) 0.9007(6)
O6A O 0.0128(5) -0.0723(15) 0.8923(6)
O7A O -0.0208(5) 0.1065(16) 0.8149(6)
O8A O -0.0237(5) -0.5085(17) 0.8202(6)
O9A O -0.0876(5) -0.0686(14) 0.8302(5)
O10A O 0.1062(5) -0.0548(12) 0.8763(5)
O11A O 0.1379(5) -0.0537(11) 0.7810(5)
O12A O 0.0903(5) -0.3243(14) 0.6637(6)
O13A O 0.1007(5) -0.3088(12) 0.8729(5)
O14A O 0.0685(5) -0.4880(13) 0.7937(5)
O15A O -0.0702(5) 0.1238(12) 0.7048(5)
O16A O 0.1332(5) -0.3139(11) 0.7787(5)
O17A O 0.1941(5) -0.1892(18) 0.8767(5)
O18A O 0.0656(5) 0.1651(12) 0.9073(5)
O19A O -0.1275(4) 0.1710(12) 0.7809(5)
O20A O 0.1319(4) -0.5378(12) 0.7212(5)
O21A O 0.0701(5) -0.5398(12) 0.9057(5)
O22A O -0.0603(4) -0.1836(10) 0.9386(4)
loop_
_geom_bond_atom_site_label_1
_geom_bond_atom_site_label_2
_geom_bond_site_symmetry_1
_geom_bond_site_symmetry_2
P1 O1 1_555 1_555
Mo1 O3 1_555 1_555
Mo2 O1 1_555 1_555
Mo3 O2 1_555 1_555
Mo4 O3 1_555 1_555
Mo5 O4 1_555 1_555
Mo6 O1 1_555 1_555
O1 O2 1_555 1_555
O2 P1 1_555 1_555
O3 P1 1_555 1_555
O4 P1 1_555 1_555
O5 Mo1 1_555 1_555
O6 Mo1 1_555 1_555
O7 Mo3 1_555 1_555
O8 Mo2 1_555 1_555
O9 Mo1 1_555 1_555
O10 Mo3 1_555 1_555
O11 Mo6 1_555 1_555
O12 Mo5 1_555 1_555
O13 Mo2 1_555 1_555
O14 Mo2 1_555 1_555
O15 Mo4 1_555 1_555
O16 Mo5 1_555 1_555
O17 Mo6 1_555 1_555
O18 Mo3 1_555 1_555
O19 Mo4 1_555 1_555
O20 Mo5 1_555 1_555
O21 Mo2 1_555 1_555
O22 Mo1 1_555 1_555
Ag2 N4 1_555 1_555
Ag3 N2 1_555 1_555
C1 H1 1_555 1_555
C2 H2 1_555 1_555
C3 C2 1_555 1_555
H3 C3 1_555 1_555
C4 C5 1_555 1_555
C5 H4 1_555 1_555
C6 H5 1_555 1_555
C7 C5 1_555 1_555
H6 C7 1_555 1_555
C8 C9 1_555 1_555
C9 C3 1_555 1_555
C10 C4 1_555 1_555
H7 C10 1_555 1_555
C11 C1 1_555 1_555
H8 C11 1_555 1_555
C12 C4 1_555 1_555
N1 C8 1_555 1_555
N2 N1 1_555 1_555
N3 C8 1_555 1_555
N4 N2 1_555 1_555
N5 Ag2 1_555 1_555
N6 N8 1_555 1_555
N7 C6 1_555 1_555
N8 C12 1_555 1_555
N9 N5 1_555 1_555
N10 C1 1_555 1_555
O1A P1 1_555 1_555
O2A P1 1_555 1_555
O3A P1 1_555 1_555
O4A P1 1_555 1_555
Mo1A O4 1_555 1_555
Mo2A O4 1_555 1_555
Mo3A O15 1_555 1_555
Mo4A O2 1_555 1_555
Mo5A O8 1_555 1_555
Mo6A O1A 1_555 1_555
O5A Mo1A 1_555 1_555
O6A Mo1A 1_555 1_555
O7A Mo3A 1_555 1_555
O8A Mo5 1_555 1_555
O9A Mo1A 1_555 1_555
O10A Mo3A 1_555 1_555
O11A Mo4 1_555 1_555
O12A Mo1 1_555 1_555
O13A Mo2A 1_555 1_555
O14A Mo2A 1_555 1_555
O15A Mo3 1_555 1_555
O16A Mo5A 1_555 1_555
O17A Mo6A 1_555 1_555
O18A Mo3A 1_555 1_555
O19A Mo4A 1_555 1_555
O20A Mo5A 1_555 1_555
O21A Mo2A 1_555 1_555
O22A Mo1A 1_555 1_555
Ag2C N6 1_555 1_555
Ag3_2 N8 1_555 1_555
Ag3C N9 1_555 1_555
N6C Ag2 1_555 1_555
N8_2 Ag3 1_555 1_555
N9C Ag3 1_555 1_555
Mo1 O4A 1_555 1_555
Mo2 O5 1_555 1_555
Mo2 O4A 1_555 1_555
Mo3 O3 1_555 1_555
Mo3 O6 1_555 1_555
Mo4 O7 1_555 1_555
Mo4 O9 1_555 1_555
Mo4 O2A 1_555 1_555
Mo5 O14 1_555 1_555
Mo6 O2 1_555 1_555
Mo6 O10 1_555 1_555
Mo6 O13 1_555 1_555
Mo6 O16 1_555 1_555
O1 O4 1_555 1_555
O2 O3A 1_555 1_555
O3 O2A 1_555 1_555
O11 Mo4A 1_555 1_555
O12 Mo1A 1_555 1_555
C2 N10 1_555 1_555
C6 C10 1_555 1_555
C7 N7 1_555 1_555
C9 C11 1_555 1_555
C12 N5 1_555 1_555
N3 N4 1_555 1_555
N6 N9 1_555 1_555
O1A O2A 1_555 1_555
O1A O4A 1_555 1_555
O1A Mo2A 1_555 1_555
O2A Mo3A 1_555 1_555
O2A Mo6A 1_555 1_555
O3A Mo1A 1_555 1_555
O3A Mo3A 1_555 1_555
O3A Mo4A 1_555 1_555
O4A Mo5A 1_555 1_555
Mo2A O5A 1_555 1_555
Mo2A O8A 1_555 1_555
Mo3A O6A 1_555 1_555
Mo4A O7A 1_555 1_555
Mo4A O9A 1_555 1_555
Mo4A O15A 1_555 1_555
Mo5A O12A 1_555 1_555
Mo5A O14A 1_555 1_555
Mo6A O10A 1_555 1_555
Mo6A O11A 1_555 1_555
Mo6A O13A 1_555 1_555
Mo6A O16A 1_555 1_555
N6C N9C 1_555 1_555

#END
