
#######################################################################
#
#                 Cambridge Crystallographic Data Centre
#                                CCDC 
#
#######################################################################
#
# If this CIF has been generated from an entry in the Cambridge 
# Structural Database, then it will include bibliographic, chemical, 
# crystal, experimental, refinement or atomic coordinate data resulting 
# from the CCDC's data processing and validation procedures.
#
#######################################################################

data_ZUBPOD
_symmetry_cell_setting           monoclinic
_symmetry_space_group_name_H-M   'P 21/c'
_symmetry_Int_Tables_number      14
_space_group_name_Hall           '-P 2ybc'
loop_
_symmetry_equiv_pos_site_id
_symmetry_equiv_pos_as_xyz
1 x,y,z
2 -x,1/2+y,1/2-z
3 -x,-y,-z
4 x,1/2-y,1/2+z
_cell_length_a                   10.5428(6)
_cell_length_b                   23.1328(13)
_cell_length_c                   12.2375(7)
_cell_angle_alpha                90
_cell_angle_beta                 101.3330(10)
_cell_angle_gamma                90
_cell_volume                     2926.34
loop_
_atom_site_label
_atom_site_type_symbol
_atom_site_fract_x
_atom_site_fract_y
_atom_site_fract_z
Mo1 Mo 0.08068(9) -0.55080(5) -0.72242(7)
Si1 Si 0.0000 -0.5000 -1.0000
O1 O 0.0612(11) -0.4779(5) -0.8719(10)
Mo2 Mo -0.07581(9) -0.35337(4) -1.05252(7)
O2 O -0.0141(10) -0.5581(5) -0.9176(9)
Mo3 Mo -0.21571(8) -0.58987(4) -0.89419(7)
O3 O -0.1471(10) -0.5134(5) -1.0110(9)
Mo4 Mo -0.03864(9) -0.40787(3) -0.77837(7)
O4 O -0.0832(11) -0.4497(5) -0.9655(9)
Mo5 Mo 0.27233(8) -0.44393(4) -0.82012(7)
O5 O -0.0498(8) -0.3595(4) -0.6796(7)
Mo6 Mo -0.30909(7) -0.44870(3) -0.98603(7)
O6 O -0.1229(7) -0.2860(3) -1.0863(7)
O7 O -0.1032(9) -0.5745(6) -0.7662(9)
O8 O 0.2750(11) -0.4016(3) -0.9422(6)
O9 O 0.4030(8) -0.4226(3) -0.7343(7)
O10 O -0.0883(9) -0.6467(7) -0.9303(9)
O11 O -0.0116(9) -0.4748(4) -0.7007(11)
O12 O 0.2213(10) -0.5085(4) -0.7273(11)
O13 O 0.1466(10) -0.4014(5) -0.7728(11)
O14 O -0.3022(12) -0.5223(3) -0.9021(6)
O15 O -0.4505(8) -0.4259(5) -0.9671(7)
O16 O -0.3501(11) -0.4904(3) -1.1146(7)
O17 O 0.0986(7) -0.5712(3) -0.5906(5)
O18 O -0.0427(10) -0.3516(4) -0.9025(7)
O19 O -0.2077(10) -0.4235(4) -0.8373(7)
O20 O -0.2482(10) -0.3859(4) -1.0467(7)
O21 O -0.3182(10) -0.6355(3) -0.8556(8)
O22 O 0.1246(9) -0.6139(6) -0.7925(9)
O1B O -0.0612(11) -0.5221(5) -1.1281(10)
O2B O 0.0141(10) -0.4419(5) -1.0824(9)
O3B O 0.1471(10) -0.4866(5) -0.9890(9)
O4B O 0.0832(11) -0.5503(5) -1.0345(9)
Mo1B Mo -0.08068(9) -0.44920(5) -1.27758(7)
Mo2B Mo 0.07581(9) -0.64663(4) -0.94748(7)
Mo3B Mo 0.21571(8) -0.41013(4) -1.10581(7)
Mo4B Mo 0.03864(9) -0.59213(3) -1.22163(7)
Mo5B Mo -0.27233(8) -0.55607(4) -1.17988(7)
O5B O 0.0498(8) -0.6405(4) -1.3204(7)
Mo6B Mo 0.30909(7) -0.55130(3) -1.01397(7)
O6B O 0.1229(7) -0.7140(3) -0.9137(7)
O7B O 0.1032(9) -0.4255(6) -1.2338(9)
O8B O -0.2750(11) -0.5984(3) -1.0578(6)
O9B O -0.4030(8) -0.5774(3) -1.2657(7)
O10B O 0.0883(9) -0.3533(7) -1.0697(9)
O11B O 0.0116(9) -0.5252(4) -1.2993(11)
O12B O -0.2213(10) -0.4915(4) -1.2727(11)
O13B O -0.1466(10) -0.5986(5) -1.2272(11)
O14B O 0.3022(12) -0.4777(3) -1.0979(6)
O15B O 0.4505(8) -0.5741(5) -1.0329(7)
O16B O 0.3501(11) -0.5096(3) -0.8854(7)
O17B O -0.0986(7) -0.4288(3) -1.4094(5)
O18B O 0.0427(10) -0.6484(4) -1.0975(7)
O19B O 0.2077(10) -0.5765(4) -1.1627(7)
O20B O 0.2482(10) -0.6141(4) -0.9533(7)
O21B O 0.3182(10) -0.3645(3) -1.1444(8)
O22B O -0.1246(9) -0.3861(6) -1.2075(9)
Ag1 Ag -0.12116(6) -0.25212(3) -0.29552(6)
N1 N 0.2527(12) -0.0093(5) 0.1329(12)
C1 C 0.4961(9) -0.1195(4) -0.0018(8)
C2 C 0.4106(10) -0.0803(5) 0.0423(9)
N2 N 0.4610(7) -0.1677(4) -0.0612(6)
Ag2 Ag -0.12858(7) -0.32157(3) -0.51601(6)
C3 C 0.4594(13) -0.0427(6) 0.1285(12)
H1 H 0.5477 -0.0418 0.1579
N3 N 0.5701(8) -0.1907(4) -0.0811(7)
Ag3 Ag 0.26508(8) -0.21180(4) -0.11867(7)
C4 C 0.3775(17) -0.0071(6) 0.1702(14)
H2 H 0.4110 0.0191 0.2261
N4 N 0.6244(8) -0.1117(4) 0.0170(7)
C5 C 0.2019(12) -0.0433(6) 0.0476(13)
H3 H 0.1132 -0.0425 0.0199
N5 N 0.6667(7) -0.1570(4) -0.0345(7)
C6 C 0.2778(11) -0.0790(5) 0.0006(10)
H4 H 0.2415 -0.1024 -0.0590
N6 N 0.6711(7) -0.2490(3) -0.3114(7)
N7 N 0.0710(7) -0.2671(3) -0.3300(6)
C7 C 0.5952(10) -0.2103(5) -0.3739(12)
H5 H 0.6342 -0.1813 -0.4081
N8 N 0.0693(7) -0.2876(3) -0.4308(6)
C8 C 0.6115(9) -0.2904(5) -0.2651(9)
H6 H 0.6619 -0.3183 -0.2220
C9 C 0.2613(8) -0.2610(4) -0.3614(7)
N9 N 0.1884(7) -0.2837(3) -0.4532(6)
C10 C 0.4033(8) -0.2540(4) -0.3425(7)
N10 N 0.1899(7) -0.2506(3) -0.2841(6)
C11 C 0.4619(10) -0.2112(5) -0.3901(11)
H7 H 0.4130 -0.1829 -0.4331
C12 C 0.4795(10) -0.2942(5) -0.2776(9)
H8 H 0.4421 -0.3235 -0.2426
Ag1_2 Ag 0.87884(6) -0.25212(3) -0.29552(6)
Ag2C Ag 0.87142(7) -0.17843(3) -0.01601(6)
Ag3C Ag 0.26508(8) -0.28820(4) -0.61867(7)
N5C N -0.3333(7) -0.3430(4) -0.5345(7)
N6_2 N -0.3289(7) -0.2490(3) -0.3114(7)
N9C N 0.1884(7) -0.2163(3) 0.0468(6)
loop_
_geom_bond_atom_site_label_1
_geom_bond_atom_site_label_2
_geom_bond_site_symmetry_1
_geom_bond_site_symmetry_2
Ag1 N7 1_555 1_555
N1 C4 1_555 1_555
C1 C2 1_555 1_555
C2 C3 1_555 1_555
N2 C1 1_555 1_555
Ag2 N8 1_555 1_555
C3 H1 1_555 1_555
N3 N2 1_555 1_555
Ag3 N2 1_555 1_555
C4 C3 1_555 1_555
H2 C4 1_555 1_555
N4 C1 1_555 1_555
C5 N1 1_555 1_555
H3 C5 1_555 1_555
N5 N3 1_555 1_555
C6 C2 1_555 1_555
H4 C6 1_555 1_555
N6 C7 1_555 1_555
N7 N8 1_555 1_555
C7 H5 1_555 1_555
N8 N9 1_555 1_555
C8 N6 1_555 1_555
H6 C8 1_555 1_555
C9 N9 1_555 1_555
N9 Ag3C 1_555 1_555
C10 C9 1_555 1_555
N10 Ag3 1_555 1_555
C11 C7 1_555 1_555
H7 C11 1_555 1_555
C12 C8 1_555 1_555
H8 C12 1_555 1_555
Mo1 O1 1_555 1_555
Si1 O1 1_555 1_555
O1 Mo4 1_555 1_555
Mo2 O4 1_555 1_555
O2 Mo1 1_555 1_555
Mo3 O2 1_555 1_555
O3 Si1 1_555 1_555
Mo4 O4 1_555 1_555
O4 Si1 1_555 1_555
Mo5 O1 1_555 1_555
O5 Mo4 1_555 1_555
Mo6 O3 1_555 1_555
O6 Mo2 1_555 1_555
O7 Mo1 1_555 1_555
O8 Mo5 1_555 1_555
O9 Mo5 1_555 1_555
O10 Mo3 1_555 1_555
O11 Mo1 1_555 1_555
O12 Mo1 1_555 1_555
O13 Mo4 1_555 1_555
O14 Mo3 1_555 1_555
O15 Mo6 1_555 1_555
O16 Mo6 1_555 1_555
O17 Mo1 1_555 1_555
O18 Mo2 1_555 1_555
O19 Mo4 1_555 1_555
O20 Mo2 1_555 1_555
O21 Mo3 1_555 1_555
O22 Mo1 1_555 1_555
Ag1_2 N6 1_555 1_555
Ag2C N5 1_555 1_555
N5C Ag2 1_555 1_555
N6_2 Ag1 1_555 1_555
N9C Ag3 1_555 1_555
O1B Si1 1_555 1_555
O2B Si1 1_555 1_555
O3B Si1 1_555 1_555
O4B Si1 1_555 1_555
Mo1B O1B 1_555 1_555
Mo2B O2 1_555 1_555
Mo3B O8 1_555 1_555
Mo4B O1B 1_555 1_555
Mo5B O3 1_555 1_555
O5B Mo4B 1_555 1_555
Mo6B O3B 1_555 1_555
O6B Mo2B 1_555 1_555
O7B Mo1B 1_555 1_555
O8B Mo3 1_555 1_555
O9B Mo5B 1_555 1_555
O10B Mo2 1_555 1_555
O11B Mo1B 1_555 1_555
O12B Mo1B 1_555 1_555
O13B Mo4B 1_555 1_555
O14B Mo3B 1_555 1_555
O15B Mo6B 1_555 1_555
O16B Mo5 1_555 1_555
O17B Mo1B 1_555 1_555
O18B Mo2B 1_555 1_555
O19B Mo4B 1_555 1_555
O20B Mo2B 1_555 1_555
O21B Mo3B 1_555 1_555
O22B Mo2 1_555 1_555
N4 N5 1_555 1_555
C5 C6 1_555 1_555
N7 N10 1_555 1_555
C9 N10 1_555 1_555
C10 C11 1_555 1_555
C10 C12 1_555 1_555
Si1 O2 1_555 1_555
Mo2 O2B 1_555 1_555
Mo3 O3 1_555 1_555
Mo3 O7 1_555 1_555
O3 O4 1_555 1_555
Mo4 O11 1_555 1_555
Mo4 O18 1_555 1_555
O4 Mo6 1_555 1_555
Mo5 O12 1_555 1_555
Mo5 O13 1_555 1_555
Mo5 O3B 1_555 1_555
Mo6 O14 1_555 1_555
Mo6 O19 1_555 1_555
Mo6 O20 1_555 1_555
O10 Mo2B 1_555 1_555
O16 Mo5B 1_555 1_555
O22 Mo2B 1_555 1_555
O1B Mo5B 1_555 1_555
O2B Mo1B 1_555 1_555
O2B Mo3B 1_555 1_555
O3B O4B 1_555 1_555
O3B Mo3B 1_555 1_555
O4B Mo2B 1_555 1_555
O4B Mo4B 1_555 1_555
O4B Mo6B 1_555 1_555
Mo1B O22B 1_555 1_555
Mo3B O7B 1_555 1_555
Mo3B O10B 1_555 1_555
Mo4B O11B 1_555 1_555
Mo4B O18B 1_555 1_555
Mo5B O8B 1_555 1_555
Mo5B O12B 1_555 1_555
Mo5B O13B 1_555 1_555
Mo6B O14B 1_555 1_555
Mo6B O16B 1_555 1_555
Mo6B O19B 1_555 1_555
Mo6B O20B 1_555 1_555

#END
