
#######################################################################
#
#                 Cambridge Crystallographic Data Centre
#                                CCDC 
#
#######################################################################
#
# If this CIF has been generated from an entry in the Cambridge 
# Structural Database, then it will include bibliographic, chemical, 
# crystal, experimental, refinement or atomic coordinate data resulting 
# from the CCDC's data processing and validation procedures.
#
#######################################################################

data_ZUBQUK
_symmetry_cell_setting           monoclinic
_symmetry_space_group_name_H-M   'C 2/c'
_symmetry_Int_Tables_number      15
_space_group_name_Hall           '-C 2yn'
loop_
_symmetry_equiv_pos_site_id
_symmetry_equiv_pos_as_xyz
1 x,y,z
2 -x,y,1/2-z
3 1/2+x,1/2+y,z
4 1/2-x,1/2+y,1/2-z
5 -x,-y,-z
6 x,-y,1/2+z
7 1/2-x,1/2-y,-z
8 1/2+x,1/2-y,1/2+z
_cell_length_a                   21.826(18)
_cell_length_b                   30.504(16)
_cell_length_c                   19.495(11)
_cell_angle_alpha                90
_cell_angle_beta                 100.29(3)
_cell_angle_gamma                90
_cell_volume                     12770.6
loop_
_atom_site_label
_atom_site_type_symbol
_atom_site_fract_x
_atom_site_fract_y
_atom_site_fract_z
Zn1 Zn 0.5000 -0.18160(9) 0.2500
O24 O 0.9641(6) -0.6445(4) 0.3154(6)
O25 O 0.9081(7) -0.6027(4) 0.2343(6)
O26 O 0.5554(9) -0.2114(6) 0.3221(9)
O27 O 0.6092(14) -0.2408(10) 0.2425(12)
N1 N 0.9115(8) -0.4848(4) 0.5068(6)
N2 N 0.9116(7) -0.4243(4) 0.5595(7)
N3 N 0.8492(7) -0.3578(5) 0.5622(8)
N4 N 0.7646(7) -0.3274(5) 0.5108(8)
C1 C 0.9320(9) -0.6119(6) 0.2915(10)
C2 C 0.9207(6) -0.5794(3) 0.3502(4)
C3 C 0.9041(7) -0.5364(4) 0.3316(4)
H1 H 0.8958 -0.5284 0.2848
C4 C 0.8998(7) -0.5055(3) 0.3829(5)
H2 H 0.8887 -0.4768 0.3705
C5 C 0.9123(7) -0.5175(3) 0.4528(5)
C6 C 0.9289(7) -0.5604(3) 0.4714(4)
H3 H 0.9373 -0.5685 0.5181
C7 C 0.9332(6) -0.5914(3) 0.4201(5)
H4 H 0.9443 -0.6201 0.4325
C8 C 0.9109(9) -0.4438(6) 0.5002(10)
H5 H 0.9101 -0.4292 0.4582
C9 C 0.9102(11) -0.4926(8) 0.5730(12)
H6 H 0.9073 -0.5205 0.5914
C10 C 0.9136(11) -0.4567(6) 0.6098(8)
H7 H 0.9166 -0.4536 0.6577
C11 C 0.9129(10) -0.3782(6) 0.5725(10)
H8 H 0.9371 -0.3641 0.5416
H9 H 0.9338 -0.3730 0.6201
C12 C 0.8187(12) -0.3397(6) 0.5067(10)
H10 H 0.8356 -0.3360 0.4665
C13 C 0.8142(11) -0.3568(6) 0.6097(11)
H11 H 0.8243 -0.3686 0.6542
C14 C 0.7619(13) -0.3361(9) 0.5839(13)
H12 H 0.7300 -0.3285 0.6076
C15 C 0.7195(7) -0.3040(5) 0.4654(7)
C16 C 0.6657(8) -0.2851(5) 0.4809(6)
H13 H 0.6565 -0.2876 0.5256
C17 C 0.6254(7) -0.2625(5) 0.4297(8)
H14 H 0.5894 -0.2498 0.4401
C18 C 0.6390(8) -0.2587(5) 0.3630(7)
C19 C 0.6929(9) -0.2775(6) 0.3475(6)
H15 H 0.7020 -0.2750 0.3028
C20 C 0.7332(7) -0.3002(5) 0.3987(8)
H16 H 0.7692 -0.3128 0.3883
C21 C 0.5992(11) -0.2350(9) 0.3030(10)
O24A O 0.0359(6) -0.6445(4) 0.1846(6)
O25A O 0.0919(7) -0.6027(4) 0.2657(6)
O26A O 0.4446(9) -0.2114(6) 0.1779(9)
O27A O 0.3908(14) -0.2408(10) 0.2575(12)
N1A N 0.0885(8) -0.4848(4) -0.0068(6)
N2A N 0.0884(7) -0.4243(4) -0.0595(7)
N3A N 0.1508(7) -0.3578(5) -0.0622(8)
N4A N 0.2354(7) -0.3274(5) -0.0108(8)
C1A C 0.0680(9) -0.6119(6) 0.2085(10)
C2A C 0.0793(6) -0.5794(3) 0.1498(4)
C3A C 0.0959(7) -0.5364(4) 0.1684(4)
H1A H 0.1042 -0.5284 0.2152
C4A C 0.1002(7) -0.5055(3) 0.1171(5)
H2A H 0.1113 -0.4768 0.1295
C5A C 0.0877(7) -0.5175(3) 0.0472(5)
C6A C 0.0711(7) -0.5604(3) 0.0286(4)
H3A H 0.0627 -0.5685 -0.0181
C7A C 0.0668(6) -0.5914(3) 0.0799(5)
H4A H 0.0557 -0.6201 0.0675
C8A C 0.0891(9) -0.4438(6) -0.0002(10)
H5A H 0.0899 -0.4292 0.0418
C9A C 0.0898(11) -0.4926(8) -0.0730(12)
H6A H 0.0927 -0.5205 -0.0914
C10A C 0.0864(11) -0.4567(6) -0.1098(8)
H7A H 0.0834 -0.4536 -0.1577
C11A C 0.0871(10) -0.3782(6) -0.0725(10)
H8A H 0.0629 -0.3641 -0.0416
H9A H 0.0662 -0.3730 -0.1201
C12A C 0.1813(12) -0.3397(6) -0.0067(10)
H10A H 0.1644 -0.3360 0.0335
C13A C 0.1858(11) -0.3568(6) -0.1097(11)
H11A H 0.1757 -0.3686 -0.1542
C14A C 0.2381(13) -0.3361(9) -0.0839(13)
H12A H 0.2700 -0.3285 -0.1076
C15A C 0.2805(7) -0.3040(5) 0.0346(7)
C16A C 0.3343(8) -0.2851(5) 0.0191(6)
H13A H 0.3435 -0.2876 -0.0256
C17A C 0.3746(7) -0.2625(5) 0.0703(8)
H14A H 0.4106 -0.2498 0.0599
C18A C 0.3610(8) -0.2587(5) 0.1370(7)
C19A C 0.3071(9) -0.2775(6) 0.1525(6)
H15A H 0.2980 -0.2750 0.1972
C20A C 0.2668(7) -0.3002(5) 0.1013(8)
H16A H 0.2308 -0.3128 0.1117
C21A C 0.4008(11) -0.2350(9) 0.1970(10)
Zn1B Zn 0.0000 -0.68160(9) 0.2500
Zn1B_2 Zn 1.0000 -0.68160(9) 0.2500
O24B O 0.4641(6) -0.1445(4) 0.3154(6)
O24C O 0.5359(6) -0.1445(4) 0.1846(6)
W1 W 0.38218(6) 0.13286(3) 0.31348(5)
W2 W 0.38150(6) 0.24870(4) 0.31364(6)
W3 W 0.61503(7) 0.24870(3) 0.36601(5)
W4 W 0.49661(6) 0.19095(3) 0.42919(5)
W5 W 0.61338(7) 0.13372(4) 0.36623(6)
W6 W 0.5000 0.30596(5) 0.2500
W7 W 0.5000 0.07497(4) 0.2500
Si1 Si 0.5000 0.19090(18) 0.2500
O1 O 0.4549(11) 0.1527(7) 0.2458(15)
O2 O 0.4598(10) 0.1883(5) 0.3052(10)
O3 O 0.4380(9) 0.2935(6) 0.1654(9)
O4 O 0.5583(8) 0.1481(6) 0.4256(10)
O5 O 0.5000 0.3631(7) 0.2500
O6 O 0.3252(15) 0.1043(10) 0.3457(15)
O7 O 0.6679(9) 0.1050(5) 0.4220(7)
O8 O 0.5591(8) 0.2353(5) 0.4246(9)
O9 O 0.3531(9) 0.1910(8) 0.3123(8)
O10 O 0.4315(9) 0.2342(6) 0.3972(10)
O11 O 0.6464(8) 0.1908(6) 0.3812(11)
O12 O 0.4385(12) 0.0861(8) 0.1734(10)
O13 O 0.4373(10) 0.0876(6) 0.3031(9)
O14 O 0.4385(12) 0.2955(7) 0.3031(8)
O15 O 0.6705(9) 0.2742(6) 0.4162(9)
O16 O 0.4385(10) 0.1496(7) 0.3968(8)
O17 O 0.3546(13) 0.1306(6) 0.2172(9)
O18 O 0.6500(11) 0.2502(7) 0.2856(11)
O19 O 0.4951(11) 0.1918(5) 0.5138(9)
O20 O 0.3241(8) 0.2745(4) 0.3415(7)
O21 O 0.4556(11) 0.2293(7) 0.2375(14)
O22 O 0.4626(11) 0.1931(8) 0.1780(7)
O23 O 0.5000 0.0218(9) 0.2500
O1A O 0.5451(11) 0.1527(7) 0.2542(15)
O2A O 0.5402(10) 0.1883(5) 0.1948(10)
O21A O 0.5444(11) 0.2293(7) 0.2625(14)
O22A O 0.5374(11) 0.1931(8) 0.3220(7)
W1A W 0.61782(6) 0.13286(3) 0.18652(5)
W2A W 0.61850(6) 0.24870(4) 0.18636(6)
W3A W 0.38497(7) 0.24870(3) 0.13399(5)
W4A W 0.50339(6) 0.19095(3) 0.07081(5)
W5A W 0.38662(7) 0.13372(4) 0.13377(6)
O3A O 0.5620(9) 0.2935(6) 0.3346(9)
O4A O 0.4417(8) 0.1481(6) 0.0744(10)
O6A O 0.6748(15) 0.1043(10) 0.1543(15)
O7A O 0.3321(9) 0.1050(5) 0.0780(7)
O8A O 0.4409(8) 0.2353(5) 0.0754(9)
O9A O 0.6469(9) 0.1910(8) 0.1877(8)
O10A O 0.5685(9) 0.2342(6) 0.1028(10)
O11A O 0.3536(8) 0.1908(6) 0.1188(11)
O12A O 0.5615(12) 0.0861(8) 0.3266(10)
O13A O 0.5627(10) 0.0876(6) 0.1969(9)
O14A O 0.5615(12) 0.2955(7) 0.1969(8)
O15A O 0.3295(9) 0.2742(6) 0.0838(9)
O16A O 0.5615(10) 0.1496(7) 0.1032(8)
O17A O 0.6454(13) 0.1306(6) 0.2828(9)
O18A O 0.3500(11) 0.2502(7) 0.2144(11)
O19A O 0.5049(11) 0.1918(5) -0.0138(9)
O20A O 0.6759(8) 0.2745(4) 0.1585(7)
loop_
_geom_bond_atom_site_label_1
_geom_bond_atom_site_label_2
_geom_bond_site_symmetry_1
_geom_bond_site_symmetry_2
W1 O1 1_555 1_555
W2 O9 1_555 1_555
W3 O8 1_555 1_555
W4 O2 1_555 1_555
W5 O4 1_555 1_555
W6 O3 1_555 1_555
W7 O12 1_555 1_555
Si1 O1 1_555 1_555
O1 O2 1_555 1_555
O2 W1 1_555 1_555
O3 W3A 1_555 1_555
O4 W4 1_555 1_555
O5 W6 1_555 1_555
O6 W1 1_555 1_555
O7 W5 1_555 1_555
O8 W4 1_555 1_555
O9 W1 1_555 1_555
O10 W2 1_555 1_555
O11 W3 1_555 1_555
O12 W5A 1_555 1_555
O13 W1 1_555 1_555
O14 W2 1_555 1_555
O15 W3 1_555 1_555
O16 W1 1_555 1_555
O17 W1 1_555 1_555
O18 W3 1_555 1_555
O19 W4 1_555 1_555
O20 W2 1_555 1_555
O21 W2 1_555 1_555
O22 Si1 1_555 1_555
O23 W7 1_555 1_555
Zn1 O26 1_555 1_555
O24 C1 1_555 1_555
O25 C1 1_555 1_555
O26 C21 1_555 1_555
O27 C21 1_555 1_555
N1 C5 1_555 1_555
N2 C8 1_555 1_555
N3 C11 1_555 1_555
N4 C12 1_555 1_555
C1 C2 1_555 1_555
C2 C3 1_555 1_555
C3 H1 1_555 1_555
C4 C3 1_555 1_555
H2 C4 1_555 1_555
C5 C4 1_555 1_555
C6 C5 1_555 1_555
H3 C6 1_555 1_555
C7 C2 1_555 1_555
H4 C7 1_555 1_555
C8 N1 1_555 1_555
H5 C8 1_555 1_555
C9 N1 1_555 1_555
H6 C9 1_555 1_555
C10 N2 1_555 1_555
H7 C10 1_555 1_555
C11 N2 1_555 1_555
H8 C11 1_555 1_555
H9 C11 1_555 1_555
C12 N3 1_555 1_555
H10 C12 1_555 1_555
C13 N3 1_555 1_555
H11 C13 1_555 1_555
C14 N4 1_555 1_555
H12 C14 1_555 1_555
C15 N4 1_555 1_555
C16 C15 1_555 1_555
H13 C16 1_555 1_555
C17 C16 1_555 1_555
H14 C17 1_555 1_555
C18 C17 1_555 1_555
C19 C18 1_555 1_555
H15 C19 1_555 1_555
C20 C15 1_555 1_555
H16 C20 1_555 1_555
C21 C18 1_555 1_555
O1A W5 1_555 1_555
O2A Si1 1_555 1_555
O21A W3 1_555 1_555
O22A W3 1_555 1_555
W1A O1A 1_555 1_555
W2A O18 1_555 1_555
W3A O21 1_555 1_555
W4A O22 1_555 1_555
W5A O1 1_555 1_555
O3A W3 1_555 1_555
O4A W4A 1_555 1_555
O6A W1A 1_555 1_555
O7A W5A 1_555 1_555
O8A W3A 1_555 1_555
O9A W1A 1_555 1_555
O10A W2A 1_555 1_555
O11A W3A 1_555 1_555
O12A W5 1_555 1_555
O13A W7 1_555 1_555
O14A W6 1_555 1_555
O15A W3A 1_555 1_555
O16A W1A 1_555 1_555
O17A W5 1_555 1_555
O18A W2 1_555 1_555
O19A W4A 1_555 1_555
O20A W2A 1_555 1_555
O24A C1A 1_555 1_555
O25A C1A 1_555 1_555
O26A Zn1 1_555 1_555
O27A C21A 1_555 1_555
N1A C5A 1_555 1_555
N2A C8A 1_555 1_555
N3A C11A 1_555 1_555
N4A C12A 1_555 1_555
C1A C2A 1_555 1_555
C2A C3A 1_555 1_555
C3A H1A 1_555 1_555
C4A C3A 1_555 1_555
H2A C4A 1_555 1_555
C5A C4A 1_555 1_555
C6A C5A 1_555 1_555
H3A C6A 1_555 1_555
C7A C2A 1_555 1_555
H4A C7A 1_555 1_555
C8A N1A 1_555 1_555
H5A C8A 1_555 1_555
C9A N1A 1_555 1_555
H6A C9A 1_555 1_555
C10A N2A 1_555 1_555
H7A C10A 1_555 1_555
C11A N2A 1_555 1_555
H8A C11A 1_555 1_555
H9A C11A 1_555 1_555
C12A N3A 1_555 1_555
H10A C12A 1_555 1_555
C13A N3A 1_555 1_555
H11A C13A 1_555 1_555
C14A N4A 1_555 1_555
H12A C14A 1_555 1_555
C15A N4A 1_555 1_555
C16A C15A 1_555 1_555
H13A C16A 1_555 1_555
C17A C16A 1_555 1_555
H14A C17A 1_555 1_555
C18A C17A 1_555 1_555
C19A C18A 1_555 1_555
H15A C19A 1_555 1_555
C20A C15A 1_555 1_555
H16A C20A 1_555 1_555
C21A O26A 1_555 1_555
Zn1B O24A 1_555 1_555
Zn1B_2 O24 1_555 1_555
O24B Zn1 1_555 1_555
O24C Zn1 1_555 1_555
W4 O10 1_555 1_555
W4 O16 1_555 1_555
W4 O22A 1_555 1_555
W5 O11 1_555 1_555
W6 O14 1_555 1_555
W6 O3A 1_555 1_555
W7 O13 1_555 1_555
W7 O12A 1_555 1_555
Si1 O2 1_555 1_555
Si1 O21 1_555 1_555
Si1 O1A 1_555 1_555
Si1 O21A 1_555 1_555
Si1 O22A 1_555 1_555
O2 O21 1_555 1_555
O2 O22A 1_555 1_555
O17 W5A 1_555 1_555
O21 O22 1_555 1_555
O22 O2A 1_555 1_555
O22 W3A 1_555 1_555
C6 C7 1_555 1_555
C9 C10 1_555 1_555
C13 C14 1_555 1_555
C19 C20 1_555 1_555
O1A O2A 1_555 1_555
O2A O21A 1_555 1_555
O2A W1A 1_555 1_555
O2A W4A 1_555 1_555
O21A O22A 1_555 1_555
O21A W2A 1_555 1_555
W1A O13A 1_555 1_555
W1A O17A 1_555 1_555
W2A O9A 1_555 1_555
W2A O14A 1_555 1_555
W3A O18A 1_555 1_555
W4A O8A 1_555 1_555
W4A O10A 1_555 1_555
W4A O16A 1_555 1_555
W5A O4A 1_555 1_555
W5A O11A 1_555 1_555
C6A C7A 1_555 1_555
C9A C10A 1_555 1_555
C13A C14A 1_555 1_555
C18A C21A 1_555 1_555
C19A C20A 1_555 1_555

#END
