
#######################################################################
#
#                 Cambridge Crystallographic Data Centre
#                                CCDC 
#
#######################################################################
#
# If this CIF has been generated from an entry in the Cambridge 
# Structural Database, then it will include bibliographic, chemical, 
# crystal, experimental, refinement or atomic coordinate data resulting 
# from the CCDC's data processing and validation procedures.
#
#######################################################################

data_ZUBQIY
_symmetry_cell_setting           orthorhombic
_symmetry_space_group_name_H-M   'P n m a'
_symmetry_Int_Tables_number      62
_space_group_name_Hall           '-P 2ac 2n'
loop_
_symmetry_equiv_pos_site_id
_symmetry_equiv_pos_as_xyz
1 x,y,z
2 1/2-x,-y,1/2+z
3 -x,1/2+y,-z
4 1/2+x,1/2-y,1/2-z
5 -x,-y,-z
6 1/2+x,y,1/2-z
7 x,1/2-y,z
8 1/2-x,1/2+y,1/2+z
_cell_length_a                   14.5366(10)
_cell_length_b                   18.2023(12)
_cell_length_c                   8.0806(6)
_cell_angle_alpha                90
_cell_angle_beta                 90
_cell_angle_gamma                90
_cell_volume                     2138.12
loop_
_atom_site_label
_atom_site_type_symbol
_atom_site_fract_x
_atom_site_fract_y
_atom_site_fract_z
Zn1 Zn 0.12860(8) 0.7500 0.06494(15)
Cl1 Cl 0.11973(16) 0.7500 -0.2166(3)
Cl2 Cl 0.00137(18) 0.7500 0.2256(3)
O1 O 0.2174(3) 0.6726(3) 0.1239(7)
O2 O 0.1269(3) 0.5795(3) 0.0546(7)
N1 N 0.5938(4) 0.3160(3) 0.1651(8)
N2 N 0.5036(4) 0.4086(3) 0.1902(7)
C1 C 0.5604(6) 0.4088(5) 0.3248(11)
H1 H 0.5601 0.4423 0.4117
C2 C 0.6163(6) 0.3514(5) 0.3067(11)
H2 H 0.6630 0.3380 0.3793
C3 C 0.4293(5) 0.4601(4) 0.1622(8)
C4 C 0.2815(5) 0.4847(4) 0.0527(10)
H3 H 0.2304 0.4699 -0.0080
C5 C 0.3531(5) 0.4362(4) 0.0744(10)
H4 H 0.3504 0.3889 0.0315
C6 C 0.5251(5) 0.3516(4) 0.0963(9)
H5 H 0.4963 0.3388 -0.0023
C7 C 0.2833(5) 0.5542(4) 0.1180(9)
C8 C 0.4350(5) 0.5292(4) 0.2237(9)
H6 H 0.4874 0.5446 0.2800
C9 C 0.3624(5) 0.5763(4) 0.2017(8)
H7 H 0.3659 0.6238 0.2434
C10 C 0.6372(7) 0.2500 0.1012(14)
H8 H 0.7018 0.2500 0.1316
H9 H 0.6334 0.2500 -0.0187
C11 C 0.2005(5) 0.6055(4) 0.0958(9)
O1F O 0.2174(3) -0.1726(3) 0.1239(7)
O2F O 0.1269(3) -0.0795(3) 0.0546(7)
N1F N 0.5938(4) 0.1840(3) 0.1651(8)
N2F N 0.5036(4) 0.0914(3) 0.1902(7)
C1F C 0.5604(6) 0.0912(5) 0.3248(11)
H1F H 0.5601 0.0577 0.4117
C2F C 0.6163(6) 0.1486(5) 0.3067(11)
H2F H 0.6630 0.1620 0.3793
C3F C 0.4293(5) 0.0399(4) 0.1622(8)
C4F C 0.2815(5) 0.0153(4) 0.0527(10)
H3F H 0.2304 0.0301 -0.0080
C5F C 0.3531(5) 0.0638(4) 0.0744(10)
H4F H 0.3504 0.1111 0.0315
C6F C 0.5251(5) 0.1484(4) 0.0963(9)
H5F H 0.4963 0.1612 -0.0023
C7F C 0.2833(5) -0.0542(4) 0.1180(9)
C8F C 0.4350(5) -0.0292(4) 0.2237(9)
H6F H 0.4874 -0.0446 0.2800
C9F C 0.3624(5) -0.0763(4) 0.2017(8)
H7F H 0.3659 -0.1238 0.2434
C11F C 0.2005(5) -0.1055(4) 0.0958(9)
Zn1_2 Zn 0.12860(8) -0.2500 0.06494(15)
O1F_2 O 0.2174(3) 0.8274(3) 0.1239(7)
O3 O 0.2558(8) 0.7500 0.4556(13)
H10 H 0.3126 0.7500 0.4278
H11 H 0.2268 0.7500 0.3639
loop_
_geom_bond_atom_site_label_1
_geom_bond_atom_site_label_2
_geom_bond_site_symmetry_1
_geom_bond_site_symmetry_2
Zn1 Cl1 1_555 1_555
Cl2 Zn1 1_555 1_555
O1 Zn1 1_555 1_555
O2 C11 1_555 1_555
N1 C2 1_555 1_555
N2 C1 1_555 1_555
C1 H1 1_555 1_555
C2 C1 1_555 1_555
H2 C2 1_555 1_555
C3 N2 1_555 1_555
C4 H3 1_555 1_555
C5 C3 1_555 1_555
H4 C5 1_555 1_555
C6 N1 1_555 1_555
H5 C6 1_555 1_555
C7 C4 1_555 1_555
C8 C3 1_555 1_555
H6 C8 1_555 1_555
C9 C7 1_555 1_555
H7 C9 1_555 1_555
C10 N1 1_555 1_555
H8 C10 1_555 1_555
H9 C10 1_555 1_555
C11 O1 1_555 1_555
O3 H10 1_555 1_555
H11 O3 1_555 1_555
O1F C11F 1_555 1_555
O2F C11F 1_555 1_555
N1F C10 1_555 1_555
N2F C1F 1_555 1_555
C1F H1F 1_555 1_555
C2F N1F 1_555 1_555
H2F C2F 1_555 1_555
C3F N2F 1_555 1_555
C4F H3F 1_555 1_555
C5F C3F 1_555 1_555
H4F C5F 1_555 1_555
C6F N1F 1_555 1_555
H5F C6F 1_555 1_555
C7F C4F 1_555 1_555
C8F C3F 1_555 1_555
H6F C8F 1_555 1_555
C9F C7F 1_555 1_555
H7F C9F 1_555 1_555
C11F C7F 1_555 1_555
Zn1_2 O1F 1_555 1_555
O1F_2 Zn1 1_555 1_555
N2 C6 1_555 1_555
C4 C5 1_555 1_555
C7 C11 1_555 1_555
C8 C9 1_555 1_555
N2F C6F 1_555 1_555
C1F C2F 1_555 1_555
C4F C5F 1_555 1_555
C8F C9F 1_555 1_555

#END
