
#######################################################################
#
#                 Cambridge Crystallographic Data Centre
#                                CCDC 
#
#######################################################################
#
# If this CIF has been generated from an entry in the Cambridge 
# Structural Database, then it will include bibliographic, chemical, 
# crystal, experimental, refinement or atomic coordinate data resulting 
# from the CCDC's data processing and validation procedures.
#
#######################################################################

data_ZUBQOE
_symmetry_cell_setting           monoclinic
_symmetry_space_group_name_H-M   'C 2/c'
_symmetry_Int_Tables_number      15
_space_group_name_Hall           '-C 2yn'
loop_
_symmetry_equiv_pos_site_id
_symmetry_equiv_pos_as_xyz
1 x,y,z
2 -x,y,1/2-z
3 1/2+x,1/2+y,z
4 1/2-x,1/2+y,1/2-z
5 -x,-y,-z
6 x,-y,1/2+z
7 1/2-x,1/2-y,-z
8 1/2+x,1/2-y,1/2+z
_cell_length_a                   21.205(2)
_cell_length_b                   30.853(2)
_cell_length_c                   19.6747(16)
_cell_angle_alpha                90
_cell_angle_beta                 100.033(8)
_cell_angle_gamma                90
_cell_volume                     12675.1
loop_
_atom_site_label
_atom_site_type_symbol
_atom_site_fract_x
_atom_site_fract_y
_atom_site_fract_z
Zn1 Zn 0.5000 -0.17898(9) 0.2500
O24 O 0.9629(7) -0.6432(4) 0.3164(6)
O25 O 0.9061(7) -0.6008(4) 0.2361(7)
O26 O 0.5011(10) -0.2497(9) 0.3404(14)
O27 O 0.5735(9) -0.2081(6) 0.3099(9)
N1 N 0.9086(7) -0.4868(4) 0.5081(7)
N2 N 0.9101(7) -0.4253(4) 0.5617(8)
N3 N 0.8444(7) -0.3606(5) 0.5656(8)
N4 N 0.7567(7) -0.3287(5) 0.5172(7)
C1 C 0.9311(10) -0.6100(6) 0.2968(9)
C2 C 0.9188(9) -0.5774(5) 0.3528(9)
C3 C 0.9034(13) -0.5358(7) 0.3368(10)
H1 H 0.8966 -0.5267 0.2910
C4 C 0.8980(13) -0.5071(6) 0.3885(11)
H2 H 0.8852 -0.4790 0.3757
C5 C 0.9093(10) -0.5160(6) 0.4536(8)
C6 C 0.9283(8) -0.5590(8) 0.4715(10)
H3 H 0.9385 -0.5675 0.5175
C7 C 0.9312(9) -0.5888(6) 0.4177(10)
H4 H 0.9423 -0.6174 0.4288
C8 C 0.9104(8) -0.4437(6) 0.5016(9)
H5 H 0.9117 -0.4290 0.4606
C9 C 0.9119(12) -0.4933(7) 0.5764(13)
H6 H 0.9150 -0.5204 0.5974
C10 C 0.9100(11) -0.4554(6) 0.6106(10)
H7 H 0.9090 -0.4512 0.6572
C11 C 0.9118(10) -0.3801(7) 0.5736(11)
H8 H 0.9350 -0.3662 0.5414
H9 H 0.9346 -0.3744 0.6199
C12 C 0.8153(10) -0.3400(5) 0.5072(9)
H10 H 0.8329 -0.3347 0.4679
C13 C 0.8026(11) -0.3611(7) 0.6099(10)
H11 H 0.8104 -0.3721 0.6546
C14 C 0.7499(12) -0.3436(7) 0.5799(12)
H12 H 0.7127 -0.3416 0.5987
C15 C 0.7139(7) -0.3058(5) 0.4701(8)
C16 C 0.6548(9) -0.2952(6) 0.4871(8)
H13 H 0.6447 -0.3043 0.5289
C17 C 0.6110(7) -0.2710(6) 0.4416(11)
H14 H 0.5715 -0.2639 0.4530
C18 C 0.6262(9) -0.2574(5) 0.3790(9)
C19 C 0.6853(10) -0.2680(6) 0.3620(7)
H15 H 0.6954 -0.2590 0.3202
C20 C 0.7291(7) -0.2922(6) 0.4075(9)
H16 H 0.7686 -0.2993 0.3961
C21 C 0.5627(9) -0.2410(10) 0.3419(19)
O24A O 0.0371(7) -0.6432(4) 0.1836(6)
O25A O 0.0939(7) -0.6008(4) 0.2639(7)
O26A O 0.4989(10) -0.2497(9) 0.1596(14)
O27A O 0.4265(9) -0.2081(6) 0.1901(9)
N1A N 0.0914(7) -0.4868(4) -0.0081(7)
N2A N 0.0899(7) -0.4253(4) -0.0617(8)
N3A N 0.1556(7) -0.3606(5) -0.0656(8)
N4A N 0.2433(7) -0.3287(5) -0.0172(7)
C1A C 0.0689(10) -0.6100(6) 0.2032(9)
C2A C 0.0812(9) -0.5774(5) 0.1472(9)
C3A C 0.0966(13) -0.5358(7) 0.1632(10)
H1A H 0.1034 -0.5267 0.2090
C4A C 0.1020(13) -0.5071(6) 0.1115(11)
H2A H 0.1148 -0.4790 0.1243
C5A C 0.0907(10) -0.5160(6) 0.0464(8)
C6A C 0.0717(8) -0.5590(8) 0.0285(10)
H3A H 0.0615 -0.5675 -0.0175
C7A C 0.0688(9) -0.5888(6) 0.0823(10)
H4A H 0.0577 -0.6174 0.0712
C8A C 0.0896(8) -0.4437(6) -0.0016(9)
H5A H 0.0883 -0.4290 0.0394
C9A C 0.0881(12) -0.4933(7) -0.0764(13)
H6A H 0.0850 -0.5204 -0.0974
C10A C 0.0900(11) -0.4554(6) -0.1106(10)
H7A H 0.0910 -0.4512 -0.1572
C11A C 0.0882(10) -0.3801(7) -0.0736(11)
H8A H 0.0650 -0.3662 -0.0414
H9A H 0.0654 -0.3744 -0.1199
C12A C 0.1847(10) -0.3400(5) -0.0072(9)
H10A H 0.1671 -0.3347 0.0321
C13A C 0.1974(11) -0.3611(7) -0.1099(10)
H11A H 0.1896 -0.3721 -0.1546
C14A C 0.2501(12) -0.3436(7) -0.0799(12)
H12A H 0.2873 -0.3416 -0.0987
C15A C 0.2861(7) -0.3058(5) 0.0299(8)
C16A C 0.3452(9) -0.2952(6) 0.0129(8)
H13A H 0.3553 -0.3043 -0.0289
C17A C 0.3890(7) -0.2710(6) 0.0584(11)
H14A H 0.4285 -0.2639 0.0470
C18A C 0.3738(9) -0.2574(5) 0.1210(9)
C19A C 0.3147(10) -0.2680(6) 0.1380(7)
H15A H 0.3046 -0.2590 0.1798
C20A C 0.2709(7) -0.2922(6) 0.0925(9)
H16A H 0.2314 -0.2993 0.1039
C21A C 0.4373(9) -0.2410(10) 0.1581(19)
Zn1B Zn 0.0000 -0.67898(9) 0.2500
Zn1B_2 Zn 1.0000 -0.67898(9) 0.2500
O24B O 0.4629(7) -0.1432(4) 0.3164(6)
O24C O 0.5371(7) -0.1432(4) 0.1836(6)
W1 W 0.37880(5) 0.12963(3) 0.31619(6)
W2 W 0.37809(6) 0.24507(4) 0.31518(6)
W3 W 0.61972(6) 0.24537(3) 0.36507(6)
W4 W 0.49760(6) 0.18750(4) 0.42998(5)
W5 W 0.61915(6) 0.12980(4) 0.36385(7)
W6 W 0.5000 0.30301(4) 0.2500
W7 W 0.5000 0.07156(4) 0.2500
P1 P 0.5000 0.18707(19) 0.2500
O1 O 0.4559(10) 0.1491(6) 0.2464(14)
O2 O 0.4564(8) 0.1845(6) 0.3023(8)
O3 O 0.4358(8) 0.2899(5) 0.1713(8)
O4 O 0.5578(10) 0.1463(6) 0.4197(14)
O5 O 0.5000 0.3588(8) 0.2500
O6 O 0.3207(10) 0.0994(7) 0.3484(11)
O7 O 0.6754(9) 0.1003(6) 0.4195(9)
O8 O 0.5620(12) 0.2328(6) 0.4218(12)
O9 O 0.3474(9) 0.1883(7) 0.3138(8)
O10 O 0.4333(10) 0.2289(6) 0.3970(10)
O11 O 0.6505(10) 0.1863(7) 0.3753(11)
O12 O 0.4389(10) 0.0855(6) 0.1711(11)
O13 O 0.4426(11) 0.0857(5) 0.3001(11)
O14 O 0.4342(9) 0.2912(7) 0.3073(10)
O15 O 0.6780(9) 0.2724(5) 0.4217(10)
O16 O 0.4349(8) 0.1452(5) 0.3995(8)
O17 O 0.3473(8) 0.1268(5) 0.2224(9)
O18 O 0.6507(9) 0.2459(7) 0.2836(11)
O19 O 0.4989(8) 0.1874(5) 0.5123(10)
O20 O 0.3231(10) 0.2709(6) 0.3424(10)
O21 O 0.4594(10) 0.2273(5) 0.2437(12)
O22 O 0.4577(11) 0.1875(9) 0.1806(8)
O23 O 0.5000 0.0187(8) 0.2500
O1A O 0.5441(10) 0.1491(6) 0.2536(14)
O2A O 0.5436(8) 0.1845(6) 0.1977(8)
O21A O 0.5406(10) 0.2273(5) 0.2563(12)
O22A O 0.5423(11) 0.1875(9) 0.3194(8)
W1A W 0.62120(5) 0.12963(3) 0.18381(6)
W2A W 0.62191(6) 0.24507(4) 0.18482(6)
W3A W 0.38028(6) 0.24537(3) 0.13493(6)
W4A W 0.50240(6) 0.18750(4) 0.07002(5)
W5A W 0.38085(6) 0.12980(4) 0.13615(7)
O3A O 0.5642(8) 0.2899(5) 0.3287(8)
O4A O 0.4422(10) 0.1463(6) 0.0803(14)
O6A O 0.6793(10) 0.0994(7) 0.1516(11)
O7A O 0.3246(9) 0.1003(6) 0.0805(9)
O8A O 0.4380(12) 0.2328(6) 0.0782(12)
O9A O 0.6526(9) 0.1883(7) 0.1862(8)
O10A O 0.5667(10) 0.2289(6) 0.1030(10)
O11A O 0.3495(10) 0.1863(7) 0.1247(11)
O12A O 0.5611(10) 0.0855(6) 0.3289(11)
O13A O 0.5574(11) 0.0857(5) 0.1999(11)
O14A O 0.5658(9) 0.2912(7) 0.1927(10)
O15A O 0.3220(9) 0.2724(5) 0.0783(10)
O16A O 0.5651(8) 0.1452(5) 0.1005(8)
O17A O 0.6527(8) 0.1268(5) 0.2776(9)
O18A O 0.3493(9) 0.2459(7) 0.2164(11)
O19A O 0.5011(8) 0.1874(5) -0.0123(10)
O20A O 0.6769(10) 0.2709(6) 0.1576(10)
loop_
_geom_bond_atom_site_label_1
_geom_bond_atom_site_label_2
_geom_bond_site_symmetry_1
_geom_bond_site_symmetry_2
W1 O1 1_555 1_555
W2 O9 1_555 1_555
W3 O8 1_555 1_555
W4 O4 1_555 1_555
W5 O4 1_555 1_555
W6 O3 1_555 1_555
W7 O12 1_555 1_555
P1 O1 1_555 1_555
O1 O2 1_555 1_555
O2 W1 1_555 1_555
O3 W3A 1_555 1_555
O5 W6 1_555 1_555
O6 W1 1_555 1_555
O7 W5 1_555 1_555
O8 W4 1_555 1_555
O9 W1 1_555 1_555
O10 W2 1_555 1_555
O11 W3 1_555 1_555
O12 W5A 1_555 1_555
O13 W1 1_555 1_555
O14 W2 1_555 1_555
O15 W3 1_555 1_555
O16 W1 1_555 1_555
O17 W1 1_555 1_555
O18 W3 1_555 1_555
O19 W4 1_555 1_555
O20 W2 1_555 1_555
O21 W2 1_555 1_555
O22 P1 1_555 1_555
O23 W7 1_555 1_555
Zn1 O27 1_555 1_555
O24 C1 1_555 1_555
O25 C1 1_555 1_555
O26 C21 1_555 1_555
O27 C21 1_555 1_555
N1 C5 1_555 1_555
N2 C8 1_555 1_555
N3 C11 1_555 1_555
N4 C12 1_555 1_555
C1 C2 1_555 1_555
C2 C3 1_555 1_555
C3 H1 1_555 1_555
C4 C3 1_555 1_555
H2 C4 1_555 1_555
C5 C4 1_555 1_555
C6 C5 1_555 1_555
H3 C6 1_555 1_555
C7 C2 1_555 1_555
H4 C7 1_555 1_555
C8 N1 1_555 1_555
H5 C8 1_555 1_555
C9 N1 1_555 1_555
H6 C9 1_555 1_555
C10 N2 1_555 1_555
H7 C10 1_555 1_555
C11 N2 1_555 1_555
H8 C11 1_555 1_555
H9 C11 1_555 1_555
C12 N3 1_555 1_555
H10 C12 1_555 1_555
C13 N3 1_555 1_555
H11 C13 1_555 1_555
C14 N4 1_555 1_555
H12 C14 1_555 1_555
C15 N4 1_555 1_555
C16 C15 1_555 1_555
H13 C16 1_555 1_555
C17 C16 1_555 1_555
H14 C17 1_555 1_555
C18 C17 1_555 1_555
C19 C18 1_555 1_555
H15 C19 1_555 1_555
C20 C15 1_555 1_555
H16 C20 1_555 1_555
C21 C18 1_555 1_555
O1A P1 1_555 1_555
O2A P1 1_555 1_555
O21A W6 1_555 1_555
O22A W3 1_555 1_555
W1A O1A 1_555 1_555
W2A O18 1_555 1_555
W3A O22 1_555 1_555
W4A O4A 1_555 1_555
W5A O17 1_555 1_555
O3A W3 1_555 1_555
O4A W5A 1_555 1_555
O6A W1A 1_555 1_555
O7A W5A 1_555 1_555
O8A W3A 1_555 1_555
O9A W1A 1_555 1_555
O10A W2A 1_555 1_555
O11A W3A 1_555 1_555
O12A W5 1_555 1_555
O13A W7 1_555 1_555
O14A W6 1_555 1_555
O15A W3A 1_555 1_555
O16A W1A 1_555 1_555
O17A W5 1_555 1_555
O18A W2 1_555 1_555
O19A W4A 1_555 1_555
O20A W2A 1_555 1_555
O24A C1A 1_555 1_555
O25A C1A 1_555 1_555
O26A C21A 1_555 1_555
O27A Zn1 1_555 1_555
N1A C5A 1_555 1_555
N2A C8A 1_555 1_555
N3A C11A 1_555 1_555
N4A C12A 1_555 1_555
C1A C2A 1_555 1_555
C2A C3A 1_555 1_555
C3A H1A 1_555 1_555
C4A C3A 1_555 1_555
H2A C4A 1_555 1_555
C5A C4A 1_555 1_555
C6A C5A 1_555 1_555
H3A C6A 1_555 1_555
C7A C2A 1_555 1_555
H4A C7A 1_555 1_555
C8A N1A 1_555 1_555
H5A C8A 1_555 1_555
C9A N1A 1_555 1_555
H6A C9A 1_555 1_555
C10A N2A 1_555 1_555
H7A C10A 1_555 1_555
C11A N2A 1_555 1_555
H8A C11A 1_555 1_555
H9A C11A 1_555 1_555
C12A N3A 1_555 1_555
H10A C12A 1_555 1_555
C13A N3A 1_555 1_555
H11A C13A 1_555 1_555
C14A N4A 1_555 1_555
H12A C14A 1_555 1_555
C15A N4A 1_555 1_555
C16A C15A 1_555 1_555
H13A C16A 1_555 1_555
C17A C16A 1_555 1_555
H14A C17A 1_555 1_555
C18A C17A 1_555 1_555
C19A C18A 1_555 1_555
H15A C19A 1_555 1_555
C20A C15A 1_555 1_555
H16A C20A 1_555 1_555
C21A O27A 1_555 1_555
Zn1B O24A 1_555 1_555
Zn1B_2 O24 1_555 1_555
O24B Zn1 1_555 1_555
O24C Zn1 1_555 1_555
W4 O10 1_555 1_555
W4 O16 1_555 1_555
W5 O11 1_555 1_555
W5 O22A 1_555 1_555
W6 O14 1_555 1_555
W6 O21 1_555 1_555
W6 O3A 1_555 1_555
W7 O13 1_555 1_555
W7 O12A 1_555 1_555
P1 O2 1_555 1_555
P1 O21 1_555 1_555
P1 O21A 1_555 1_555
P1 O22A 1_555 1_555
O1 O22 1_555 1_555
O2 O21 1_555 1_555
O2 O22A 1_555 1_555
O21 O22 1_555 1_555
O21 O21A 1_555 1_555
O22 O2A 1_555 1_555
O22 W5A 1_555 1_555
C6 C7 1_555 1_555
C9 C10 1_555 1_555
C13 C14 1_555 1_555
C19 C20 1_555 1_555
O1A O2A 1_555 1_555
O1A O22A 1_555 1_555
O2A O21A 1_555 1_555
O2A W1A 1_555 1_555
O21A O22A 1_555 1_555
O21A W2A 1_555 1_555
W1A O13A 1_555 1_555
W1A O17A 1_555 1_555
W2A O9A 1_555 1_555
W2A O14A 1_555 1_555
W3A O18A 1_555 1_555
W4A O8A 1_555 1_555
W4A O10A 1_555 1_555
W4A O16A 1_555 1_555
W5A O11A 1_555 1_555
C6A C7A 1_555 1_555
C9A C10A 1_555 1_555
C13A C14A 1_555 1_555
C18A C21A 1_555 1_555
C19A C20A 1_555 1_555

#END
