
#######################################################################
#
#                 Cambridge Crystallographic Data Centre
#                                CCDC 
#
#######################################################################
#
# If this CIF has been generated from an entry in the Cambridge 
# Structural Database, then it will include bibliographic, chemical, 
# crystal, experimental, refinement or atomic coordinate data resulting 
# from the CCDC's data processing and validation procedures.
#
#######################################################################

data_ZUBRAR
_symmetry_cell_setting           monoclinic
_symmetry_space_group_name_H-M   'C 2/c'
_symmetry_Int_Tables_number      15
_space_group_name_Hall           '-C 2yn'
loop_
_symmetry_equiv_pos_site_id
_symmetry_equiv_pos_as_xyz
1 x,y,z
2 -x,y,1/2-z
3 1/2+x,1/2+y,z
4 1/2-x,1/2+y,1/2-z
5 -x,-y,-z
6 x,-y,1/2+z
7 1/2-x,1/2-y,-z
8 1/2+x,1/2-y,1/2+z
_cell_length_a                   20.949(12)
_cell_length_b                   31.1225(14)
_cell_length_c                   19.7567(14)
_cell_angle_alpha                90
_cell_angle_beta                 99.761(15)
_cell_angle_gamma                90
_cell_volume                     12694.6
loop_
_atom_site_label
_atom_site_type_symbol
_atom_site_fract_x
_atom_site_fract_y
_atom_site_fract_z
Zn1 Zn 0.5000 -0.17837(10) 0.2500
O24 O 0.9612(7) -0.6422(4) 0.3157(6)
O25 O 0.9064(8) -0.6003(4) 0.2344(7)
O26 O 0.5067(12) -0.2443(6) 0.3383(10)
O27 O 0.5736(10) -0.2060(6) 0.3050(10)
N1 N 0.9064(9) -0.4859(5) 0.5079(9)
N2 N 0.9055(8) -0.4250(4) 0.5594(10)
N3 N 0.8420(9) -0.3608(5) 0.5656(10)
N4 N 0.7551(9) -0.3293(5) 0.5195(9)
C1 C 0.9307(12) -0.6092(7) 0.2968(13)
C2 C 0.9203(7) -0.5774(4) 0.3532(6)
C3 C 0.9029(8) -0.5354(5) 0.3346(5)
H1 H 0.8956 -0.5274 0.2886
C4 C 0.8966(8) -0.5052(3) 0.3850(7)
H2 H 0.8850 -0.4771 0.3726
C5 C 0.9076(8) -0.5171(4) 0.4538(6)
C6 C 0.9249(7) -0.5591(4) 0.4723(5)
H3 H 0.9323 -0.5670 0.5184
C7 C 0.9313(7) -0.5893(3) 0.4220(7)
H4 H 0.9429 -0.6174 0.4344
C8 C 0.9075(10) -0.4453(7) 0.5000(11)
H5 H 0.9095 -0.4316 0.4586
C9 C 0.9100(13) -0.4941(7) 0.5769(11)
H6 H 0.9152 -0.5210 0.5976
C10 C 0.9045(13) -0.4562(8) 0.6097(11)
H7 H 0.9010 -0.4521 0.6556
C11 C 0.9089(12) -0.3789(7) 0.5731(12)
H8 H 0.9325 -0.3648 0.5411
H9 H 0.9319 -0.3737 0.6193
C12 C 0.8137(13) -0.3391(7) 0.5103(12)
H10 H 0.8322 -0.3322 0.4721
C13 C 0.8016(16) -0.3612(8) 0.6112(12)
H11 H 0.8106 -0.3722 0.6555
C14 C 0.7488(14) -0.3438(8) 0.5834(12)
H12 H 0.7118 -0.3414 0.6033
C15 C 0.7114(10) -0.3029(6) 0.4707(10)
C16 C 0.6490(11) -0.2964(6) 0.4836(8)
H13 H 0.6369 -0.3074 0.5233
C17 C 0.6046(8) -0.2733(6) 0.4373(12)
H14 H 0.5628 -0.2689 0.4460
C18 C 0.6226(11) -0.2567(6) 0.3780(10)
C19 C 0.6851(12) -0.2632(7) 0.3650(9)
H15 H 0.6971 -0.2521 0.3254
C20 C 0.7295(9) -0.2863(7) 0.4114(12)
H16 H 0.7713 -0.2907 0.4027
C21 C 0.5701(14) -0.2315(9) 0.3346(16)
O24A O 0.0388(7) -0.6422(4) 0.1843(6)
O25A O 0.0936(8) -0.6003(4) 0.2656(7)
O26A O 0.4933(12) -0.2443(6) 0.1617(10)
O27A O 0.4264(10) -0.2060(6) 0.1950(10)
N1A N 0.0936(9) -0.4859(5) -0.0079(9)
N2A N 0.0945(8) -0.4250(4) -0.0594(10)
N3A N 0.1580(9) -0.3608(5) -0.0656(10)
N4A N 0.2449(9) -0.3293(5) -0.0195(9)
C1A C 0.0693(12) -0.6092(7) 0.2032(13)
C2A C 0.0797(7) -0.5774(4) 0.1468(6)
C3A C 0.0971(8) -0.5354(5) 0.1654(5)
H1A H 0.1044 -0.5274 0.2114
C4A C 0.1034(8) -0.5052(3) 0.1150(7)
H2A H 0.1150 -0.4771 0.1274
C5A C 0.0924(8) -0.5171(4) 0.0462(6)
C6A C 0.0751(7) -0.5591(4) 0.0277(5)
H3A H 0.0677 -0.5670 -0.0184
C7A C 0.0687(7) -0.5893(3) 0.0780(7)
H4A H 0.0571 -0.6174 0.0656
C8A C 0.0925(10) -0.4453(7) 0.0000(11)
H5A H 0.0905 -0.4316 0.0414
C9A C 0.0900(13) -0.4941(7) -0.0769(11)
H6A H 0.0848 -0.5210 -0.0976
C10A C 0.0955(13) -0.4562(8) -0.1097(11)
H7A H 0.0990 -0.4521 -0.1556
C11A C 0.0911(12) -0.3789(7) -0.0731(12)
H8A H 0.0675 -0.3648 -0.0411
H9A H 0.0681 -0.3737 -0.1193
C12A C 0.1863(13) -0.3391(7) -0.0103(12)
H10A H 0.1678 -0.3322 0.0279
C13A C 0.1984(16) -0.3612(8) -0.1112(12)
H11A H 0.1894 -0.3722 -0.1555
C14A C 0.2512(14) -0.3438(8) -0.0834(12)
H12A H 0.2882 -0.3414 -0.1033
C15A C 0.2886(10) -0.3029(6) 0.0293(10)
C16A C 0.3510(11) -0.2964(6) 0.0164(8)
H13A H 0.3631 -0.3074 -0.0233
C17A C 0.3954(8) -0.2733(6) 0.0627(12)
H14A H 0.4372 -0.2689 0.0540
C18A C 0.3774(11) -0.2567(6) 0.1220(10)
C19A C 0.3149(12) -0.2632(7) 0.1350(9)
H15A H 0.3029 -0.2521 0.1746
C20A C 0.2705(9) -0.2863(7) 0.0886(12)
H16A H 0.2287 -0.2907 0.0973
C21A C 0.4299(14) -0.2315(9) 0.1654(16)
Zn1B Zn 0.0000 -0.67837(10) 0.2500
Zn1B_2 Zn 1.0000 -0.67837(10) 0.2500
O24B O 0.4612(7) -0.1422(4) 0.3157(6)
O24C O 0.5388(7) -0.1422(4) 0.1843(6)
W1 W 0.38061(6) 0.13044(3) 0.31526(5)
W2 W 0.37964(7) 0.24281(4) 0.31502(6)
W3 W 0.61828(6) 0.24335(4) 0.36141(6)
W4 W 0.49765(6) 0.18720(4) 0.42588(6)
W5 W 0.61798(6) 0.13050(4) 0.36059(7)
W6 W 0.5000 0.29916(4) 0.2500
W7 W 0.5000 0.07367(4) 0.2500
B1 B 0.5000 0.1873(5) 0.2500
O1 O 0.4583(10) 0.1479(6) 0.2499(12)
O2 O 0.4549(9) 0.1848(6) 0.3017(9)
O3 O 0.4365(9) 0.2860(5) 0.1698(9)
O4 O 0.5626(13) 0.1466(7) 0.4102(13)
O5 O 0.5000 0.3502(10) 0.2500
O6 O 0.3303(11) 0.1024(7) 0.3481(10)
O7 O 0.6732(9) 0.1033(5) 0.4137(9)
O8 O 0.5620(9) 0.2297(5) 0.4177(9)
O9 O 0.3467(10) 0.1854(7) 0.3131(8)
O10 O 0.4406(11) 0.2283(5) 0.3989(9)
O11 O 0.6512(11) 0.1849(6) 0.3734(10)
O12 O 0.4371(11) 0.0868(6) 0.1701(10)
O13 O 0.4373(11) 0.0859(5) 0.3042(8)
O14 O 0.4368(10) 0.2877(6) 0.3034(9)
O15 O 0.6741(10) 0.2695(5) 0.4125(10)
O16 O 0.4368(10) 0.1453(5) 0.3994(9)
O17 O 0.3499(10) 0.1287(5) 0.2212(10)
O18 O 0.6475(10) 0.2440(6) 0.2827(10)
O19 O 0.4960(9) 0.1864(5) 0.5062(10)
O20 O 0.3256(11) 0.2702(4) 0.3454(9)
O21 O 0.4583(11) 0.2270(6) 0.2437(11)
O22 O 0.5385(14) 0.1857(9) 0.3220(8)
O23 O 0.5000 0.0221(8) 0.2500
O1A O 0.5417(10) 0.1479(6) 0.2501(12)
O2A O 0.5451(9) 0.1848(6) 0.1983(9)
O21A O 0.5417(11) 0.2270(6) 0.2563(11)
O22A O 0.4615(14) 0.1857(9) 0.1780(8)
W1A W 0.61939(6) 0.13044(3) 0.18474(5)
W2A W 0.62036(7) 0.24281(4) 0.18498(6)
W3A W 0.38172(6) 0.24335(4) 0.13859(6)
W4A W 0.50235(6) 0.18720(4) 0.07412(6)
W5A W 0.38202(6) 0.13050(4) 0.13941(7)
O3A O 0.5635(9) 0.2860(5) 0.3302(9)
O4A O 0.4374(13) 0.1466(7) 0.0898(13)
O6A O 0.6697(11) 0.1024(7) 0.1519(10)
O7A O 0.3268(9) 0.1033(5) 0.0863(9)
O8A O 0.4380(9) 0.2297(5) 0.0823(9)
O9A O 0.6533(10) 0.1854(7) 0.1869(8)
O10A O 0.5594(11) 0.2283(5) 0.1011(9)
O11A O 0.3488(11) 0.1849(6) 0.1266(10)
O12A O 0.5629(11) 0.0868(6) 0.3299(10)
O13A O 0.5627(11) 0.0859(5) 0.1958(8)
O14A O 0.5632(10) 0.2877(6) 0.1966(9)
O15A O 0.3259(10) 0.2695(5) 0.0875(10)
O16A O 0.5632(10) 0.1453(5) 0.1006(9)
O17A O 0.6501(10) 0.1287(5) 0.2788(10)
O18A O 0.3525(10) 0.2440(6) 0.2173(10)
O19A O 0.5040(9) 0.1864(5) -0.0062(10)
O20A O 0.6744(11) 0.2702(4) 0.1546(9)
loop_
_geom_bond_atom_site_label_1
_geom_bond_atom_site_label_2
_geom_bond_site_symmetry_1
_geom_bond_site_symmetry_2
W1 O1 1_555 1_555
W2 O2 1_555 1_555
W3 O8 1_555 1_555
W4 O2 1_555 1_555
W5 O4 1_555 1_555
W6 O3 1_555 1_555
W7 O1 1_555 1_555
B1 O1 1_555 1_555
O1 O2 1_555 1_555
O2 W1 1_555 1_555
O3 W3A 1_555 1_555
O4 W4 1_555 1_555
O5 W6 1_555 1_555
O6 W1 1_555 1_555
O7 W5 1_555 1_555
O8 W4 1_555 1_555
O9 W1 1_555 1_555
O10 W2 1_555 1_555
O11 W3 1_555 1_555
O12 W7 1_555 1_555
O13 W1 1_555 1_555
O14 W2 1_555 1_555
O15 W3 1_555 1_555
O16 W1 1_555 1_555
O17 W1 1_555 1_555
O18 W3 1_555 1_555
O19 W4 1_555 1_555
O20 W2 1_555 1_555
O21 W2 1_555 1_555
O22 W3 1_555 1_555
O23 W7 1_555 1_555
Zn1 O27 1_555 1_555
O24 C1 1_555 1_555
O25 C1 1_555 1_555
O26 C21 1_555 1_555
O27 C21 1_555 1_555
N1 C5 1_555 1_555
N2 C8 1_555 1_555
N3 C11 1_555 1_555
N4 C12 1_555 1_555
C1 C2 1_555 1_555
C2 C3 1_555 1_555
C3 H1 1_555 1_555
C4 C3 1_555 1_555
H2 C4 1_555 1_555
C5 C4 1_555 1_555
C6 C5 1_555 1_555
H3 C6 1_555 1_555
C7 C2 1_555 1_555
H4 C7 1_555 1_555
C8 N1 1_555 1_555
H5 C8 1_555 1_555
C9 N1 1_555 1_555
H6 C9 1_555 1_555
C10 N2 1_555 1_555
H7 C10 1_555 1_555
C11 N2 1_555 1_555
H8 C11 1_555 1_555
H9 C11 1_555 1_555
C12 N3 1_555 1_555
H10 C12 1_555 1_555
C13 N3 1_555 1_555
H11 C13 1_555 1_555
C14 N4 1_555 1_555
H12 C14 1_555 1_555
C15 N4 1_555 1_555
C16 C15 1_555 1_555
H13 C16 1_555 1_555
C17 C16 1_555 1_555
H14 C17 1_555 1_555
C18 C17 1_555 1_555
C19 C18 1_555 1_555
H15 C19 1_555 1_555
C20 C15 1_555 1_555
H16 C20 1_555 1_555
C21 C18 1_555 1_555
O1A W7 1_555 1_555
O2A B1 1_555 1_555
O21A W3 1_555 1_555
O22A B1 1_555 1_555
W1A O1A 1_555 1_555
W2A O18 1_555 1_555
W3A O21 1_555 1_555
W4A O2A 1_555 1_555
W5A O12 1_555 1_555
O3A W3 1_555 1_555
O4A W4A 1_555 1_555
O6A W1A 1_555 1_555
O7A W5A 1_555 1_555
O8A W3A 1_555 1_555
O9A W1A 1_555 1_555
O10A W2A 1_555 1_555
O11A W3A 1_555 1_555
O12A W5 1_555 1_555
O13A W7 1_555 1_555
O14A W6 1_555 1_555
O15A W3A 1_555 1_555
O16A W1A 1_555 1_555
O17A W5 1_555 1_555
O18A W2 1_555 1_555
O19A W4A 1_555 1_555
O20A W2A 1_555 1_555
O24A C1A 1_555 1_555
O25A C1A 1_555 1_555
O26A C21A 1_555 1_555
O27A Zn1 1_555 1_555
N1A C5A 1_555 1_555
N2A C8A 1_555 1_555
N3A C11A 1_555 1_555
N4A C12A 1_555 1_555
C1A C2A 1_555 1_555
C2A C3A 1_555 1_555
C3A H1A 1_555 1_555
C4A C3A 1_555 1_555
H2A C4A 1_555 1_555
C5A C4A 1_555 1_555
C6A C5A 1_555 1_555
H3A C6A 1_555 1_555
C7A C2A 1_555 1_555
H4A C7A 1_555 1_555
C8A N1A 1_555 1_555
H5A C8A 1_555 1_555
C9A N1A 1_555 1_555
H6A C9A 1_555 1_555
C10A N2A 1_555 1_555
H7A C10A 1_555 1_555
C11A N2A 1_555 1_555
H8A C11A 1_555 1_555
H9A C11A 1_555 1_555
C12A N3A 1_555 1_555
H10A C12A 1_555 1_555
C13A N3A 1_555 1_555
H11A C13A 1_555 1_555
C14A N4A 1_555 1_555
H12A C14A 1_555 1_555
C15A N4A 1_555 1_555
C16A C15A 1_555 1_555
H13A C16A 1_555 1_555
C17A C16A 1_555 1_555
H14A C17A 1_555 1_555
C18A C17A 1_555 1_555
C19A C18A 1_555 1_555
H15A C19A 1_555 1_555
C20A C15A 1_555 1_555
H16A C20A 1_555 1_555
C21A O27A 1_555 1_555
Zn1B O24A 1_555 1_555
Zn1B_2 O24 1_555 1_555
O24B Zn1 1_555 1_555
O24C Zn1 1_555 1_555
W2 O9 1_555 1_555
W4 O10 1_555 1_555
W4 O16 1_555 1_555
W4 O22 1_555 1_555
W5 O11 1_555 1_555
W5 O22 1_555 1_555
W6 O14 1_555 1_555
W6 O21 1_555 1_555
W6 O21A 1_555 1_555
W6 O3A 1_555 1_555
W7 O13 1_555 1_555
W7 O12A 1_555 1_555
B1 O2 1_555 1_555
B1 O21 1_555 1_555
B1 O22 1_555 1_555
B1 O1A 1_555 1_555
B1 O21A 1_555 1_555
O1 O1A 1_555 1_555
O2 O21 1_555 1_555
O2 O22 1_555 1_555
O17 W5A 1_555 1_555
O21 O21A 1_555 1_555
C6 C7 1_555 1_555
C9 C10 1_555 1_555
C13 C14 1_555 1_555
C19 C20 1_555 1_555
O1A O2A 1_555 1_555
O2A O21A 1_555 1_555
O2A O22A 1_555 1_555
O2A W1A 1_555 1_555
O2A W2A 1_555 1_555
O21A W2A 1_555 1_555
O22A W3A 1_555 1_555
O22A W4A 1_555 1_555
O22A W5A 1_555 1_555
W1A O13A 1_555 1_555
W1A O17A 1_555 1_555
W2A O9A 1_555 1_555
W2A O14A 1_555 1_555
W3A O18A 1_555 1_555
W4A O8A 1_555 1_555
W4A O10A 1_555 1_555
W4A O16A 1_555 1_555
W5A O4A 1_555 1_555
W5A O11A 1_555 1_555
C6A C7A 1_555 1_555
C9A C10A 1_555 1_555
C13A C14A 1_555 1_555
C18A C21A 1_555 1_555
C19A C20A 1_555 1_555

#END
