
#######################################################################
#
#                 Cambridge Crystallographic Data Centre
#                                CCDC 
#
#######################################################################
#
# If this CIF has been generated from an entry in the Cambridge 
# Structural Database, then it will include bibliographic, chemical, 
# crystal, experimental, refinement or atomic coordinate data resulting 
# from the CCDC's data processing and validation procedures.
#
#######################################################################

data_ZUBREV
_symmetry_cell_setting           monoclinic
_symmetry_space_group_name_H-M   'C 2/c'
_symmetry_Int_Tables_number      15
_space_group_name_Hall           '-C 2yn'
loop_
_symmetry_equiv_pos_site_id
_symmetry_equiv_pos_as_xyz
1 x,y,z
2 -x,y,1/2-z
3 1/2+x,1/2+y,z
4 1/2-x,1/2+y,1/2-z
5 -x,-y,-z
6 x,-y,1/2+z
7 1/2-x,1/2-y,-z
8 1/2+x,1/2-y,1/2+z
_cell_length_a                   21.018(4)
_cell_length_b                   30.814(5)
_cell_length_c                   19.639(3)
_cell_angle_alpha                90
_cell_angle_beta                 99.919(15)
_cell_angle_gamma                90
_cell_volume                     12529
loop_
_atom_site_label
_atom_site_type_symbol
_atom_site_fract_x
_atom_site_fract_y
_atom_site_fract_z
Zn1 Zn 1.0000 -0.32017(15) 0.7500
O24 O 0.5363(11) 0.1449(7) 0.6837(9)
O25 O 0.5890(10) 0.1023(6) 0.7647(9)
O26 O 0.9828(16) -0.2547(11) 0.6579(15)
O27 O 0.9248(14) -0.2921(10) 0.6947(14)
N1 N 0.5886(11) -0.0147(8) 0.4922(12)
N2 N 0.5884(8) -0.0743(7) 0.4421(11)
N3 N 0.6532(12) -0.1414(7) 0.4358(10)
N4 N 0.7393(10) -0.1738(7) 0.4830(9)
C1 C 0.5688(13) 0.1117(12) 0.7048(13)
C2 C 0.5775(8) 0.0777(6) 0.6490(7)
C3 C 0.5918(10) 0.0345(6) 0.6655(6)
H1 H 0.5973 0.0254 0.7113
C4 C 0.5978(11) 0.0049(5) 0.6135(10)
H2 H 0.6074 -0.0240 0.6246
C5 C 0.5896(10) 0.0185(5) 0.5451(8)
C6 C 0.5753(8) 0.0617(6) 0.5286(6)
H3 H 0.5698 0.0708 0.4828
C7 C 0.5692(8) 0.0913(4) 0.5805(8)
H4 H 0.5597 0.1201 0.5695
C8 C 0.5893(11) -0.0543(10) 0.5022(12)
H5 H 0.5903 -0.0679 0.5447
C9 C 0.5844(15) -0.0060(8) 0.4231(14)
H6 H 0.5821 0.0213 0.4025
C10 C 0.5844(13) -0.0427(11) 0.3927(13)
H7 H 0.5821 -0.0471 0.3455
C11 C 0.5864(14) -0.1178(11) 0.4274(14)
H8 H 0.5646 -0.1217 0.3801
H9 H 0.5605 -0.1320 0.4572
C12 C 0.6846(12) -0.1598(9) 0.4929(13)
H10 H 0.6689 -0.1623 0.5342
C13 C 0.6909(14) -0.1388(9) 0.3928(13)
H11 H 0.6802 -0.1272 0.3486
C14 C 0.7496(14) -0.1555(10) 0.4202(13)
H12 H 0.7876 -0.1549 0.4019
C15 C 0.7715(10) -0.2110(10) 0.5886(14)
H13 H 0.7304 -0.2074 0.5992
C16 C 0.7867(10) -0.1927(8) 0.5287(11)
C17 C 0.8482(12) -0.1980(8) 0.5129(9)
H14 H 0.8584 -0.1858 0.4728
C18 C 0.8945(10) -0.2216(9) 0.5569(13)
H15 H 0.9356 -0.2252 0.5463
C19 C 0.8792(13) -0.2399(8) 0.6168(12)
C20 C 0.8178(15) -0.2346(9) 0.6326(12)
H16 H 0.8076 -0.2468 0.6727
C21 C 0.9277(15) -0.2680(13) 0.660(2)
O24A O 1.4637(11) 0.1449(7) 0.8163(9)
O25A O 1.4110(10) 0.1023(6) 0.7353(9)
O26A O 1.0172(16) -0.2547(11) 0.8421(15)
O27A O 1.0752(14) -0.2921(10) 0.8053(14)
N1A N 1.4114(11) -0.0147(8) 1.0078(12)
N2A N 1.4116(8) -0.0743(7) 1.0579(11)
N3A N 1.3468(12) -0.1414(7) 1.0642(10)
N4A N 1.2607(10) -0.1738(7) 1.0170(9)
C1A C 1.4312(13) 0.1117(12) 0.7952(13)
C2A C 1.4225(8) 0.0777(6) 0.8510(7)
C3A C 1.4082(10) 0.0345(6) 0.8345(6)
H1A H 1.4027 0.0254 0.7887
C4A C 1.4022(11) 0.0049(5) 0.8865(10)
H2A H 1.3926 -0.0240 0.8754
C5A C 1.4104(10) 0.0185(5) 0.9549(8)
C6A C 1.4247(8) 0.0617(6) 0.9714(6)
H3A H 1.4302 0.0708 1.0172
C7A C 1.4308(8) 0.0913(4) 0.9195(8)
H4A H 1.4403 0.1201 0.9305
C8A C 1.4107(11) -0.0543(10) 0.9978(12)
H5A H 1.4097 -0.0679 0.9553
C9A C 1.4156(15) -0.0060(8) 1.0769(14)
H6A H 1.4179 0.0213 1.0975
C10A C 1.4156(13) -0.0427(11) 1.1073(13)
H7A H 1.4179 -0.0471 1.1545
C11A C 1.4136(14) -0.1178(11) 1.0726(14)
H8A H 1.4354 -0.1217 1.1199
H9A H 1.4395 -0.1320 1.0428
C12A C 1.3154(12) -0.1598(9) 1.0071(13)
H10A H 1.3311 -0.1623 0.9658
C13A C 1.3091(14) -0.1388(9) 1.1072(13)
H11A H 1.3198 -0.1272 1.1514
C14A C 1.2504(14) -0.1555(10) 1.0798(13)
H12A H 1.2124 -0.1549 1.0981
C15A C 1.2285(10) -0.2110(10) 0.9114(14)
H13A H 1.2696 -0.2074 0.9008
C16A C 1.2133(10) -0.1927(8) 0.9713(11)
C17A C 1.1518(12) -0.1980(8) 0.9871(9)
H14A H 1.1416 -0.1858 1.0272
C18A C 1.1055(10) -0.2216(9) 0.9431(13)
H15A H 1.0644 -0.2252 0.9537
C19A C 1.1208(13) -0.2399(8) 0.8832(12)
C20A C 1.1822(15) -0.2346(9) 0.8674(12)
H16A H 1.1924 -0.2468 0.8273
C21A C 1.0723(15) -0.2680(13) 0.840(2)
Zn1B Zn 0.5000 0.17983(15) 0.7500
Zn1B_2 Zn 1.5000 0.17983(15) 0.7500
O24B O 1.0363(11) -0.3551(7) 0.6837(9)
O24C O 0.9637(11) -0.3551(7) 0.8163(9)
W1 W 0.37882(8) 0.13294(5) 0.31284(7)
W2 W 0.37831(8) 0.24563(7) 0.31247(8)
W3 W 0.61751(8) 0.24667(6) 0.36447(7)
W4 W 0.49507(8) 0.19029(6) 0.42616(6)
W5 W 0.61663(9) 0.13324(6) 0.36321(9)
W6 W 0.5000 0.30241(7) 0.2500
W7 W 0.5000 0.07633(9) 0.2500
Co1 Co 0.5000 0.18961(17) 0.2500
O1 O 0.5478(16) 0.1992(11) 0.3414(8)
O2 O 0.4441(14) 0.1402(8) 0.2448(19)
O3 O 0.4361(12) 0.2898(8) 0.1671(11)
O4 O 0.3459(12) 0.1875(10) 0.3045(12)
O5 O 0.5000 0.3507(14) 0.2500
O6 O 0.3236(12) 0.1071(10) 0.3429(15)
O7 O 0.6702(13) 0.1080(9) 0.4141(12)
O8 O 0.5596(14) 0.2309(10) 0.4259(14)
O9 O 0.3571(14) 0.2470(10) 0.2192(14)
O10 O 0.4392(15) 0.2302(11) 0.3975(15)
O11 O 0.6521(13) 0.1874(11) 0.3792(13)
O12 O 0.5600(17) 0.1494(11) 0.4187(16)
O13 O 0.4407(17) 0.0863(12) 0.1756(17)
O14 O 0.4322(12) 0.2927(8) 0.2991(11)
O15 O 0.6728(10) 0.2711(8) 0.4138(12)
O16 O 0.4941(11) 0.1889(8) 0.5082(10)
O17 O 0.4369(12) 0.1502(10) 0.3927(12)
O18 O 0.3425(12) 0.1281(9) 0.2215(11)
O19 O 0.4255(12) 0.0888(8) 0.3120(11)
O20 O 0.3234(11) 0.2721(8) 0.3414(9)
O21 O 0.4447(17) 0.1903(16) 0.3183(17)
O22 O 0.5465(15) 0.2435(7) 0.2657(16)
O23 O 0.5000 0.0254(12) 0.2500
W1A W 0.62118(8) 0.13294(5) 0.18716(7)
W2A W 0.62169(8) 0.24563(7) 0.18753(8)
W3A W 0.38249(8) 0.24667(6) 0.13553(7)
W4A W 0.50493(8) 0.19029(6) 0.07384(6)
W5A W 0.38337(9) 0.13324(6) 0.13679(9)
O1A O 0.4522(16) 0.1992(11) 0.1586(8)
O2A O 0.5559(14) 0.1402(8) 0.2552(19)
O3A O 0.5639(12) 0.2898(8) 0.3329(11)
O4A O 0.6541(12) 0.1875(10) 0.1955(12)
O6A O 0.6764(12) 0.1071(10) 0.1571(15)
O7A O 0.3298(13) 0.1080(9) 0.0859(12)
O8A O 0.4404(14) 0.2309(10) 0.0741(14)
O9A O 0.6429(14) 0.2470(10) 0.2808(14)
O10A O 0.5608(15) 0.2302(11) 0.1025(15)
O11A O 0.3479(13) 0.1874(11) 0.1208(13)
O12A O 0.4400(17) 0.1494(11) 0.0813(16)
O13A O 0.5593(17) 0.0863(12) 0.3244(17)
O14A O 0.5678(12) 0.2927(8) 0.2009(11)
O15A O 0.3272(10) 0.2711(8) 0.0862(12)
O16A O 0.5059(11) 0.1889(8) -0.0082(10)
O17A O 0.5631(12) 0.1502(10) 0.1073(12)
O18A O 0.6575(12) 0.1281(9) 0.2785(11)
O19A O 0.5745(12) 0.0888(8) 0.1880(11)
O20A O 0.6766(11) 0.2721(8) 0.1586(9)
O21A O 0.5553(17) 0.1903(16) 0.1817(17)
O22A O 0.4535(15) 0.2435(7) 0.2343(16)
loop_
_geom_bond_atom_site_label_1
_geom_bond_atom_site_label_2
_geom_bond_site_symmetry_1
_geom_bond_site_symmetry_2
W1 O2 1_555 1_555
W2 O4 1_555 1_555
W3 O1 1_555 1_555
W4 O1 1_555 1_555
W5 O1 1_555 1_555
W6 O3 1_555 1_555
W7 O2 1_555 1_555
Co1 O1 1_555 1_555
O2 Co1 1_555 1_555
O3 W3A 1_555 1_555
O4 W1 1_555 1_555
O5 W6 1_555 1_555
O6 W1 1_555 1_555
O7 W5 1_555 1_555
O8 W3 1_555 1_555
O9 W2 1_555 1_555
O10 W2 1_555 1_555
O11 W3 1_555 1_555
O12 W4 1_555 1_555
O13 W7 1_555 1_555
O14 W2 1_555 1_555
O15 W3 1_555 1_555
O16 W4 1_555 1_555
O17 W1 1_555 1_555
O18 W1 1_555 1_555
O19 W1 1_555 1_555
O20 W2 1_555 1_555
O21 W1 1_555 1_555
O22 W3 1_555 1_555
O23 W7 1_555 1_555
Zn1 O27 1_555 1_555
O24 C1 1_555 1_555
O25 C1 1_555 1_555
O26 C21 1_555 1_555
O27 C21 1_555 1_555
N1 C5 1_555 1_555
N2 C8 1_555 1_555
N3 C11 1_555 1_555
N4 C12 1_555 1_555
C1 C2 1_555 1_555
C2 C3 1_555 1_555
C3 H1 1_555 1_555
C4 C3 1_555 1_555
H2 C4 1_555 1_555
C5 C4 1_555 1_555
C6 C5 1_555 1_555
H3 C6 1_555 1_555
C7 C2 1_555 1_555
H4 C7 1_555 1_555
C8 N1 1_555 1_555
H5 C8 1_555 1_555
C9 N1 1_555 1_555
H6 C9 1_555 1_555
C10 N2 1_555 1_555
H7 C10 1_555 1_555
C11 N2 1_555 1_555
H8 C11 1_555 1_555
H9 C11 1_555 1_555
C12 N3 1_555 1_555
H10 C12 1_555 1_555
C13 N3 1_555 1_555
H11 C13 1_555 1_555
C14 N4 1_555 1_555
H12 C14 1_555 1_555
C15 H13 1_555 1_555
C16 N4 1_555 1_555
C17 C16 1_555 1_555
H14 C17 1_555 1_555
C18 C17 1_555 1_555
H15 C18 1_555 1_555
C19 C18 1_555 1_555
C20 C15 1_555 1_555
H16 C20 1_555 1_555
C21 C19 1_555 1_555
W1A O2A 1_555 1_555
W2A O22 1_555 1_555
W3A O9 1_555 1_555
W4A O1A 1_555 1_555
W5A O2 1_555 1_555
O1A Co1 1_555 1_555
O2A W5 1_555 1_555
O3A W3 1_555 1_555
O4A W1A 1_555 1_555
O6A W1A 1_555 1_555
O7A W5A 1_555 1_555
O8A W3A 1_555 1_555
O9A W3 1_555 1_555
O10A W2A 1_555 1_555
O11A W3A 1_555 1_555
O12A W4A 1_555 1_555
O13A W5 1_555 1_555
O14A W6 1_555 1_555
O15A W3A 1_555 1_555
O16A W4A 1_555 1_555
O17A W1A 1_555 1_555
O18A W5 1_555 1_555
O19A W7 1_555 1_555
O20A W2A 1_555 1_555
O21A Co1 1_555 1_555
O22A W2 1_555 1_555
O24A C1A 1_555 1_555
O25A C1A 1_555 1_555
O26A C21A 1_555 1_555
O27A Zn1 1_555 1_555
N1A C5A 1_555 1_555
N2A C8A 1_555 1_555
N3A C11A 1_555 1_555
N4A C12A 1_555 1_555
C1A C2A 1_555 1_555
C2A C3A 1_555 1_555
C3A H1A 1_555 1_555
C4A C3A 1_555 1_555
H2A C4A 1_555 1_555
C5A C4A 1_555 1_555
C6A C5A 1_555 1_555
H3A C6A 1_555 1_555
C7A C2A 1_555 1_555
H4A C7A 1_555 1_555
C8A N1A 1_555 1_555
H5A C8A 1_555 1_555
C9A N1A 1_555 1_555
H6A C9A 1_555 1_555
C10A N2A 1_555 1_555
H7A C10A 1_555 1_555
C11A N2A 1_555 1_555
H8A C11A 1_555 1_555
H9A C11A 1_555 1_555
C12A N3A 1_555 1_555
H10A C12A 1_555 1_555
C13A N3A 1_555 1_555
H11A C13A 1_555 1_555
C14A N4A 1_555 1_555
H12A C14A 1_555 1_555
C15A H13A 1_555 1_555
C16A N4A 1_555 1_555
C17A C16A 1_555 1_555
H14A C17A 1_555 1_555
C18A C17A 1_555 1_555
H15A C18A 1_555 1_555
C19A C18A 1_555 1_555
C20A C15A 1_555 1_555
H16A C20A 1_555 1_555
C21A O27A 1_555 1_555
Zn1B O24 1_555 1_555
Zn1B_2 O24A 1_555 1_555
O24B Zn1 1_555 1_555
O24C Zn1 1_555 1_555
W2 O21 1_555 1_555
W4 O8 1_555 1_555
W4 O10 1_555 1_555
W4 O17 1_555 1_555
W4 O21 1_555 1_555
W5 O11 1_555 1_555
W5 O12 1_555 1_555
W6 O14 1_555 1_555
W6 O22 1_555 1_555
W6 O3A 1_555 1_555
W6 O22A 1_555 1_555
W7 O19 1_555 1_555
W7 O2A 1_555 1_555
W7 O13A 1_555 1_555
Co1 O21 1_555 1_555
Co1 O22 1_555 1_555
Co1 O2A 1_555 1_555
Co1 O22A 1_555 1_555
O13 W5A 1_555 1_555
O18 W5A 1_555 1_555
C6 C7 1_555 1_555
C9 C10 1_555 1_555
C13 C14 1_555 1_555
C15 C16 1_555 1_555
C19 C20 1_555 1_555
W1A O18A 1_555 1_555
W1A O19A 1_555 1_555
W1A O21A 1_555 1_555
W2A O4A 1_555 1_555
W2A O9A 1_555 1_555
W2A O14A 1_555 1_555
W2A O21A 1_555 1_555
W3A O1A 1_555 1_555
W3A O22A 1_555 1_555
W4A O8A 1_555 1_555
W4A O10A 1_555 1_555
W4A O17A 1_555 1_555
W4A O21A 1_555 1_555
W5A O1A 1_555 1_555
W5A O11A 1_555 1_555
W5A O12A 1_555 1_555
C6A C7A 1_555 1_555
C9A C10A 1_555 1_555
C13A C14A 1_555 1_555
C15A C16A 1_555 1_555
C19A C20A 1_555 1_555
C19A C21A 1_555 1_555

#END
