
#######################################################################
#
#                 Cambridge Crystallographic Data Centre
#                                CCDC 
#
#######################################################################
#
# If this CIF has been generated from an entry in the Cambridge 
# Structural Database, then it will include bibliographic, chemical, 
# crystal, experimental, refinement or atomic coordinate data resulting 
# from the CCDC's data processing and validation procedures.
#
#######################################################################

data_ZUBTUN
_symmetry_cell_setting           rhombohedral
_symmetry_space_group_name_H-M   'R -3'
_symmetry_Int_Tables_number      148
_space_group_name_Hall           '-R 3'
loop_
_symmetry_equiv_pos_site_id
_symmetry_equiv_pos_as_xyz
1 x,y,z
2 -y,x-y,z
3 -x+y,-x,z
4 1/3+x,2/3+y,2/3+z
5 1/3-y,2/3+x-y,2/3+z
6 1/3-x+y,2/3-x,2/3+z
7 2/3+x,1/3+y,1/3+z
8 2/3-y,1/3+x-y,1/3+z
9 2/3-x+y,1/3-x,1/3+z
10 -x,-y,-z
11 y,-x+y,-z
12 x-y,x,-z
13 2/3-x,1/3-y,1/3-z
14 2/3+y,1/3-x+y,1/3-z
15 2/3+x-y,1/3+x,1/3-z
16 1/3-x,2/3-y,2/3-z
17 1/3+y,2/3-x+y,2/3-z
18 1/3+x-y,2/3+x,2/3-z
_cell_length_a                   17.3430(7)
_cell_length_b                   17.3430(7)
_cell_length_c                   31.6652(19)
_cell_angle_alpha                90
_cell_angle_beta                 90
_cell_angle_gamma                120
_cell_volume                     8248.24
loop_
_atom_site_label
_atom_site_type_symbol
_atom_site_fract_x
_atom_site_fract_y
_atom_site_fract_z
Na1 Na 0.333333 0.666667 0.47430(16)
N7 N 0.333333 0.666667 0.5618(3)
O8 O 0.3510(15) 0.7321(8) 0.5411(4)
O8A O 0.2679(8) 0.6189(17) 0.5411(4)
O8B O 0.3811(17) 0.6490(15) 0.5411(4)
Co1 Co 0.67708(7) 0.78350(7) 0.37277(3)
O1 O 0.8081(3) 0.8267(4) 0.35354(16)
O2 O 0.5469(4) 0.7411(4) 0.3888(2)
N1 N 0.6859(5) 0.6671(4) 0.3786(2)
N2 N 0.6871(6) 0.8024(6) 0.4387(2)
N3 N 0.7105(4) 0.9152(4) 0.3576(2)
C1 C 0.8319(5) 0.7681(6) 0.3519(2)
Mn1 Mn 0.86760(14) 0.96706(10) 0.33763(5)
C2 C 0.5304(7) 0.7516(7) 0.4254(4)
C3 C 0.6235(6) 0.5872(6) 0.3924(3)
C4 C 0.7640(5) 0.6765(6) 0.3659(2)
C5 C 0.7584(10) 0.8266(9) 0.4625(3)
C6 C 0.6049(9) 0.7797(7) 0.4557(3)
N4 N 0.6875(5) 0.9585(5) 0.3791(2)
O3 O 0.9054(4) 0.7810(4) 0.3400(2)
O4 O 1.000000 1.000000 0.3147(3)
O5 O 0.9231(8) 1.0006(6) 0.4030(2)
O6 O 0.4582(6) 0.7389(7) 0.4393(3)
H1 H 0.5692(6) 0.5795(6) 0.4018(3)
C7 C 0.6379(8) 0.5153(6) 0.3931(3)
C8 C 0.7810(7) 0.6071(6) 0.3653(3)
H2 H 0.8122(10) 0.8414(9) 0.4496(3)
C9 C 0.7547(12) 0.8305(10) 0.5063(4)
C10 C 0.5984(12) 0.7847(10) 0.4993(4)
N5 N 0.6661(6) 0.9983(6) 0.3994(3)
N6 N 1.000000 1.000000 0.4168(5)
H3 H 0.5934(8) 0.4601(6) 0.4027(3)
C11 C 0.7172(7) 0.5256(7) 0.3797(3)
H4 H 0.8350(7) 0.6155(6) 0.3552(3)
H5 H 0.8043(12) 0.8474(10) 0.5234(4)
C12 C 0.6697(14) 0.8067(10) 0.5230(4)
H6 H 0.5450(12) 0.7729(10) 0.5117(4)
O7 O 1.000000 1.000000 0.4576(9)
H7 H 0.7278(7) 0.4781(7) 0.3804(3)
H8 H 0.6636(14) 0.8064(10) 0.5522(4)
N3O N 0.6228(4) 0.7515(4) 0.3091(2)
Mn1O Mn 0.46573(14) 0.69961(10) 0.32904(5)
Co1O Co 0.65625(7) 0.88317(7) 0.29390(3)
O3B O 0.8756(6) 1.0946(4) 0.3400(2)
O2O O 0.7864(4) 0.9256(4) 0.2779(2)
Mn1A Mn 1.03294(10) 0.90054(17) 0.33763(5)
Mn1B Mn 1.09946(17) 1.13240(14) 0.33763(5)
C1B C 0.9362(8) 1.1681(5) 0.3519(2)
O5A O 0.9994(6) 0.9225(10) 0.4030(2)
O1A O 1.1733(4) 0.9814(5) 0.35354(16)
O2P O 1.0744(4) 0.8609(6) 0.2779(2)
O5B O 1.0775(10) 1.0769(8) 0.4030(2)
O3A O 1.2190(4) 1.1244(6) 0.3400(2)
O1B O 1.0186(5) 1.1919(3) 0.35354(16)
O2Q O 1.1391(6) 1.2136(4) 0.2779(2)
C4B C 0.9125(8) 1.2360(5) 0.3659(2)
Co1A Co 1.21650(7) 0.89358(10) 0.37277(3)
C1A C 1.2319(6) 1.0638(8) 0.3519(2)
Co1P Co 1.11683(7) 0.77309(10) 0.29390(3)
Co1B Co 1.10642(10) 1.32292(7) 0.37277(3)
Co1Q Co 1.22691(10) 1.34375(7) 0.29390(3)
N1B N 0.9812(6) 1.3141(5) 0.3786(2)
C8B C 0.8261(9) 1.2190(7) 0.3653(3)
O2A O 1.2589(4) 0.8058(6) 0.3888(2)
N1A N 1.3329(4) 1.0188(6) 0.3786(2)
N2A N 1.1976(6) 0.8847(8) 0.4387(2)
N3A N 1.0848(4) 0.7953(6) 0.3576(2)
N3P N 1.2485(4) 0.8714(6) 0.3091(2)
C4A C 1.3235(6) 1.0875(8) 0.3659(2)
O2B O 1.1942(6) 1.4531(4) 0.3888(2)
N2B N 1.1153(8) 1.3129(6) 0.4387(2)
N3B N 1.2047(6) 1.2895(4) 0.3576(2)
N3Q N 1.1286(6) 1.3772(4) 0.3091(2)
C3B C 0.9637(8) 1.3765(6) 0.3924(3)
C11B C 0.8084(10) 1.2828(7) 0.3797(3)
H4B H 0.7805(9) 1.1650(7) 0.3552(3)
C2A C 1.2484(7) 0.7788(10) 0.4254(4)
Mn1P Mn 1.30039(10) 0.76613(17) 0.32904(5)
C3A C 1.4128(6) 1.0363(8) 0.3924(3)
C5A C 1.1734(9) 0.9318(13) 0.4625(3)
C6A C 1.2203(7) 0.8252(11) 0.4557(3)
N4A N 1.0415(5) 0.7290(7) 0.3791(2)
C8A C 1.3929(6) 1.1739(9) 0.3653(3)
C2B C 1.2212(10) 1.4696(7) 0.4254(4)
Mn1Q Mn 1.23387(17) 1.53427(14) 0.32904(5)
C5B C 1.0682(13) 1.2416(10) 0.4625(3)
C6B C 1.1748(11) 1.3951(9) 0.4557(3)
N4B N 1.2710(7) 1.3125(5) 0.3791(2)
H1B H 1.0103(8) 1.4308(6) 0.4018(3)
C7B C 0.8774(10) 1.3621(8) 0.3931(3)
H7B H 0.7503(10) 1.2722(7) 0.3804(3)
O6A O 1.2611(7) 0.7193(9) 0.4393(3)
H1A H 1.4205(6) 0.9897(8) 0.4018(3)
C7A C 1.4847(6) 1.1226(10) 0.3931(3)
H2A H 1.1586(9) 0.9708(13) 0.4496(3)
C9A C 1.1695(10) 0.9242(16) 0.5063(4)
C10A C 1.2153(10) 0.8137(16) 0.4993(4)
N5A N 1.0017(6) 0.6678(8) 0.3994(3)
C11A C 1.4744(7) 1.1916(10) 0.3797(3)
H4A H 1.3845(6) 1.2195(9) 0.3552(3)
O6B O 1.2807(9) 1.5418(6) 0.4393(3)
H2B H 1.0292(13) 1.1878(10) 0.4496(3)
C9B C 1.0758(16) 1.2453(12) 0.5063(4)
C10B C 1.1863(16) 1.4016(12) 0.4993(4)
N5B N 1.3322(8) 1.3339(6) 0.3994(3)
H3B H 0.8667(10) 1.4066(8) 0.4027(3)
H3A H 1.5399(6) 1.1333(10) 0.4027(3)
H5A H 1.1526(10) 0.9569(16) 0.5234(4)
C12A C 1.1933(10) 0.8630(17) 0.5230(4)
H6A H 1.2271(10) 0.7721(16) 0.5117(4)
H7A H 1.5219(7) 1.2497(10) 0.3804(3)
H5B H 1.0431(16) 1.1957(12) 0.5234(4)
C12B C 1.1370(17) 1.3303(14) 0.5230(4)
H6B H 1.2279(16) 1.4550(12) 0.5117(4)
H8A H 1.1936(10) 0.8572(17) 0.5522(4)
H8B H 1.1428(17) 1.3364(14) 0.5522(4)
O9? O 0.333333 0.666667 0.5999(3)
loop_
_geom_bond_atom_site_label_1
_geom_bond_atom_site_label_2
_geom_bond_site_symmetry_1
_geom_bond_site_symmetry_2
Co1 O1 1_555 1_555
O1 C1 1_555 1_555
O2 Co1 1_555 1_555
N1 Co1 1_555 1_555
N2 Co1 1_555 1_555
N3 Co1 1_555 1_555
C1 C4 1_555 1_555
Mn1 O1 1_555 1_555
C2 O2 1_555 1_555
C3 N1 1_555 1_555
C4 N1 1_555 1_555
C5 N2 1_555 1_555
C6 N2 1_555 1_555
N4 N3 1_555 1_555
O3 C1 1_555 1_555
O4 Mn1 1_555 1_555
O5 Mn1 1_555 1_555
O6 C2 1_555 1_555
H1 C3 1_555 1_555
C7 C3 1_555 1_555
C8 C4 1_555 1_555
H2 C5 1_555 1_555
C9 C5 1_555 1_555
C10 C6 1_555 1_555
N5 N4 1_555 1_555
N6 O5 1_555 1_555
H3 C7 1_555 1_555
C11 C7 1_555 1_555
H4 C8 1_555 1_555
H5 C9 1_555 1_555
C12 C9 1_555 1_555
H6 C10 1_555 1_555
O7 N6 1_555 1_555
H7 C11 1_555 1_555
H8 C12 1_555 1_555
N7 O8 1_555 1_555
N3O Co1 1_555 1_555
Mn1O O2 1_555 1_555
Co1O N3 1_555 1_555
O3B Mn1 1_555 1_555
O2O Mn1 1_555 1_555
Mn1A O3 1_555 1_555
Mn1B O4 1_555 1_555
C1B O3B 1_555 1_555
O5A N6 1_555 1_555
O1A Mn1A 1_555 1_555
O2P Mn1A 1_555 1_555
O5B N6 1_555 1_555
O3A Mn1B 1_555 1_555
O1B Mn1B 1_555 1_555
O2Q Mn1B 1_555 1_555
C4B C1B 1_555 1_555
Co1A O1A 1_555 1_555
C1A O1A 1_555 1_555
Co1P O2P 1_555 1_555
Co1B O1B 1_555 1_555
Co1Q O2Q 1_555 1_555
N1B C4B 1_555 1_555
C8B C4B 1_555 1_555
O2A Co1A 1_555 1_555
N1A Co1A 1_555 1_555
N2A Co1A 1_555 1_555
N3A Co1A 1_555 1_555
N3P Co1A 1_555 1_555
C4A C1A 1_555 1_555
O2B Co1B 1_555 1_555
N2B Co1B 1_555 1_555
N3B Co1B 1_555 1_555
N3Q Co1B 1_555 1_555
C3B N1B 1_555 1_555
C11B C8B 1_555 1_555
H4B C8B 1_555 1_555
C2A O2A 1_555 1_555
Mn1P O2A 1_555 1_555
C3A N1A 1_555 1_555
C5A N2A 1_555 1_555
C6A N2A 1_555 1_555
N4A N3A 1_555 1_555
C8A C4A 1_555 1_555
C2B O2B 1_555 1_555
Mn1Q O2B 1_555 1_555
C5B N2B 1_555 1_555
C6B N2B 1_555 1_555
N4B N3B 1_555 1_555
H1B C3B 1_555 1_555
C7B C3B 1_555 1_555
H7B C11B 1_555 1_555
O6A C2A 1_555 1_555
H1A C3A 1_555 1_555
C7A C3A 1_555 1_555
H2A C5A 1_555 1_555
C9A C5A 1_555 1_555
C10A C6A 1_555 1_555
N5A N4A 1_555 1_555
C11A C8A 1_555 1_555
H4A C8A 1_555 1_555
O6B C2B 1_555 1_555
H2B C5B 1_555 1_555
C9B C5B 1_555 1_555
C10B C6B 1_555 1_555
N5B N4B 1_555 1_555
H3B C7B 1_555 1_555
H3A C7A 1_555 1_555
H5A C9A 1_555 1_555
C12A C9A 1_555 1_555
H6A C10A 1_555 1_555
H7A C11A 1_555 1_555
H5B C9B 1_555 1_555
C12B C9B 1_555 1_555
H6B C10B 1_555 1_555
H8A C12A 1_555 1_555
H8B C12B 1_555 1_555
O8A N7 1_555 1_555
O8B N7 1_555 1_555
C2 C6 1_555 1_555
O4 Mn1A 1_555 1_555
C8 C11 1_555 1_555
C10 C12 1_555 1_555
N3O Co1O 1_555 1_555
Co1O O2O 1_555 1_555
Mn1A O5A 1_555 1_555
Mn1B O5B 1_555 1_555
C1B O1B 1_555 1_555
O3A C1A 1_555 1_555
Co1P N3A 1_555 1_555
Co1P N3P 1_555 1_555
Co1B N1B 1_555 1_555
Co1Q N3B 1_555 1_555
Co1Q N3Q 1_555 1_555
N1A C4A 1_555 1_555
C11B C7B 1_555 1_555
C2A C6A 1_555 1_555
C2B C6B 1_555 1_555
C7A C11A 1_555 1_555
C10A C12A 1_555 1_555
C10B C12B 1_555 1_555

#END
