
#######################################################################
#
#                 Cambridge Crystallographic Data Centre
#                                CCDC 
#
#######################################################################
#
# If this CIF has been generated from an entry in the Cambridge 
# Structural Database, then it will include bibliographic, chemical, 
# crystal, experimental, refinement or atomic coordinate data resulting 
# from the CCDC's data processing and validation procedures.
#
#######################################################################

data_ZUBXEZ
_symmetry_cell_setting           triclinic
_symmetry_space_group_name_H-M   'P -1'
_symmetry_Int_Tables_number      2
_space_group_name_Hall           '-P 1'
loop_
_symmetry_equiv_pos_site_id
_symmetry_equiv_pos_as_xyz
1 x,y,z
2 -x,-y,-z
_cell_length_a                   9.505(4)
_cell_length_b                   12.374(5)
_cell_length_c                   15.970(2)
_cell_angle_alpha                82.94(1)
_cell_angle_beta                 86.61(3)
_cell_angle_gamma                77.98(2)
_cell_volume                     1822.11
loop_
_atom_site_label
_atom_site_type_symbol
_atom_site_fract_x
_atom_site_fract_y
_atom_site_fract_z
Pt1 Pt 0.0000 0.0000 0.0000
Pt2 Pt 0.5000 0.0000 -0.5000
Cu1 Cu 0.2456(1) 0.0594(1) -0.1575(1)
Cu2 Cu 0.3888(1) -0.0835(1) -0.2957(1)
P1 P 0.1709(2) -0.0070(2) 0.0969(1)
P2 P 0.2670(2) 0.0903(2) -0.5232(1)
Cl1 Cl 0.4138(2) 0.0874(2) -0.2629(1)
Cl2 Cl 0.2940(2) -0.1287(2) -0.1638(1)
C1 C 0.1843(8) 0.1283(7) 0.1242(5)
C2 C 0.3161(9) 0.1607(8) 0.1272(6)
C3 C 0.3204(10) 0.2632(8) 0.1485(7)
C4 C 0.1924(11) 0.3376(8) 0.1702(6)
C5 C 0.0639(11) 0.3037(8) 0.1701(6)
C6 C 0.0603(9) 0.1989(7) 0.1459(6)
C7 C 0.3497(10) -0.0683(8) 0.0604(7)
C8 C 0.1514(12) -0.0843(8) 0.1968(6)
C9 C 0.0903(8) 0.1135(7) -0.0695(5)
C10 C 0.1388(8) 0.1933(7) -0.1071(6)
C11 C 0.1572(10) 0.3101(8) -0.1288(6)
C12 C 0.3158(11) 0.3162(9) -0.1190(8)
C13 C 0.1156(16) 0.3494(9) -0.2216(7)
C14 C 0.0672(13) 0.3850(9) -0.0691(8)
C15 C 0.2333(8) 0.2392(6) -0.5272(5)
C16 C 0.1986(9) 0.3090(7) -0.6022(6)
C17 C 0.1668(10) 0.4248(8) -0.5990(7)
C18 C 0.1719(10) 0.4680(8) -0.5262(7)
C19 C 0.2078(10) 0.3994(8) -0.4524(7)
C20 C 0.2384(9) 0.2871(7) -0.4540(6)
C21 C 0.2087(10) 0.0619(8) -0.6213(6)
C22 C 0.1323(9) 0.0541(7) -0.4461(6)
C23 C 0.4367(8) -0.1165(8) -0.4171(6)
C24 C 0.3986(9) -0.1960(7) -0.3757(5)
C25 C 0.3553(9) -0.3067(7) -0.3615(6)
C26 C 0.4185(11) -0.3709(8) -0.4356(7)
C27 C 0.1880(10) -0.2860(8) -0.3631(8)
C28 C 0.4063(12) -0.3716(8) -0.2783(6)
H1 H 0.4012(9) 0.1121(8) 0.1147(6)
H2 H 0.4085(10) 0.2846(8) 0.1489(7)
H3 H 0.1954(11) 0.4079(8) 0.1840(6)
H4 H -0.0210(11) 0.3501(8) 0.1862(6)
H5 H -0.0275(9) 0.1772(7) 0.1446(6)
H6 H 0.3673(27) -0.0358(38) 0.0041(16)
H7 H 0.3579(23) -0.1470(11) 0.0608(39)
H8 H 0.4191(10) -0.0547(46) 0.0971(24)
H9 H 0.1472(72) -0.1592(16) 0.1890(7)
H10 H 0.0642(39) -0.0505(32) 0.2250(19)
H11 H 0.2321(38) -0.0848(48) 0.2304(17)
H12 H 0.3273(19) 0.3917(13) -0.1326(46)
H13 H 0.3762(13) 0.2700(48) -0.1566(34)
H14 H 0.3426(26) 0.2906(58) -0.0619(13)
H15 H 0.1323(82) 0.4233(27) -0.2369(17)
H16 H 0.0157(25) 0.3494(63) -0.2274(12)
H17 H 0.1731(59) 0.3000(39) -0.2580(8)
H18 H -0.0328(13) 0.3851(47) -0.0748(33)
H19 H 0.0835(59) 0.4592(15) -0.0824(29)
H20 H 0.0938(54) 0.3580(34) -0.0121(8)
H21 H 0.1966(9) 0.2796(7) -0.6528(6)
H22 H 0.1418(10) 0.4722(8) -0.6480(7)
H23 H 0.1512(10) 0.5447(8) -0.5256(7)
H24 H 0.2111(10) 0.4295(8) -0.4022(7)
H25 H 0.2634(9) 0.2413(7) -0.4043(6)
H26 H 0.2120(58) -0.0164(10) -0.6197(14)
H27 H 0.2710(37) 0.0848(44) -0.6666(7)
H28 H 0.1119(23) 0.1020(37) -0.6304(18)
H29 H 0.1357(42) -0.0245(10) -0.4420(27)
H30 H 0.0387(10) 0.0937(37) -0.4633(19)
H31 H 0.1511(36) 0.0738(43) -0.3921(10)
H32 H 0.3866(54) -0.4402(23) -0.4306(21)
H33 H 0.5216(11) -0.3851(45) -0.4350(23)
H34 H 0.3868(53) -0.3277(23) -0.4876(7)
H35 H 0.1579(10) -0.3560(8) -0.3573(43)
H36 H 0.1561(11) -0.2443(49) -0.4156(18)
H37 H 0.1468(10) -0.2449(47) -0.3173(25)
H38 H 0.3832(62) -0.4441(20) -0.2738(19)
H39 H 0.3594(51) -0.3328(27) -0.2325(6)
H40 H 0.5086(14) -0.3790(46) -0.2757(18)
P1A P -0.1709(2) 0.0070(2) -0.0969(1)
C9A C -0.0903(8) -0.1135(7) 0.0695(5)
P2A P 0.7330(2) -0.0903(2) -0.4768(1)
C23A C 0.5633(8) 0.1165(8) -0.5829(6)
C1A C -0.1843(8) -0.1283(7) -0.1242(5)
C7A C -0.3497(10) 0.0683(8) -0.0604(7)
C8A C -0.1514(12) 0.0843(8) -0.1968(6)
C15A C 0.7667(8) -0.2392(6) -0.4728(5)
C21A C 0.7913(10) -0.0619(8) -0.3787(6)
C22A C 0.8677(9) -0.0541(7) -0.5539(6)
Cu2A Cu 0.6112(1) 0.0835(1) -0.7043(1)
C24A C 0.6014(9) 0.1960(7) -0.6243(5)
C2A C -0.3161(9) -0.1607(8) -0.1272(6)
C6A C -0.0603(9) -0.1989(7) -0.1459(6)
H9A H -0.1472(72) 0.1592(16) -0.1890(7)
H10A H -0.0642(39) 0.0505(32) -0.2250(19)
H11A H -0.2321(38) 0.0848(48) -0.2304(17)
H6A H -0.3673(27) 0.0358(38) -0.0041(16)
H7A H -0.3579(23) 0.1470(11) -0.0608(39)
H8A H -0.4191(10) 0.0547(46) -0.0971(24)
C3A C -0.3204(10) -0.2632(8) -0.1485(7)
H1A H -0.4012(9) -0.1121(8) -0.1147(6)
C5A C -0.0639(11) -0.3037(8) -0.1701(6)
H5A H 0.0275(9) -0.1772(7) -0.1446(6)
C4A C -0.1924(11) -0.3376(8) -0.1702(6)
H2A H -0.4085(10) -0.2846(8) -0.1489(7)
H4A H 0.0210(11) -0.3501(8) -0.1862(6)
H3A H -0.1954(11) -0.4079(8) -0.1840(6)
C16A C 0.8014(9) -0.3090(7) -0.3978(6)
C20A C 0.7616(9) -0.2871(7) -0.5460(6)
H26A H 0.7880(58) 0.0164(10) -0.3803(14)
H27A H 0.7290(37) -0.0848(44) -0.3334(7)
H28A H 0.8881(23) -0.1020(37) -0.3696(18)
H29A H 0.8643(42) 0.0245(10) -0.5580(27)
H30A H 0.9613(10) -0.0937(37) -0.5367(19)
H31A H 0.8489(36) -0.0738(43) -0.6079(10)
C25A C 0.6447(9) 0.3067(7) -0.6385(6)
C17A C 0.8332(10) -0.4248(8) -0.4010(7)
H21A H 0.8034(9) -0.2796(7) -0.3472(6)
C19A C 0.7922(10) -0.3994(8) -0.5476(7)
H25A H 0.7366(9) -0.2413(7) -0.5957(6)
C26A C 0.5815(11) 0.3709(8) -0.5644(7)
C27A C 0.8120(10) 0.2860(8) -0.6369(8)
C28A C 0.5937(12) 0.3716(8) -0.7217(6)
C18A C 0.8281(10) -0.4680(8) -0.4738(7)
H22A H 0.8582(10) -0.4722(8) -0.3520(7)
H24A H 0.7889(10) -0.4295(8) -0.5978(7)
H32A H 0.6134(54) 0.4402(23) -0.5694(21)
H33A H 0.4784(11) 0.3851(45) -0.5650(23)
H34A H 0.6132(53) 0.3277(23) -0.5124(7)
H35A H 0.8421(10) 0.3560(8) -0.6427(43)
H36A H 0.8439(11) 0.2443(49) -0.5844(18)
H37A H 0.8532(10) 0.2449(47) -0.6827(25)
H38A H 0.6168(62) 0.4441(20) -0.7262(19)
H39A H 0.6406(51) 0.3328(27) -0.7675(6)
H40A H 0.4914(14) 0.3790(46) -0.7243(18)
H23A H 0.8488(10) -0.5447(8) -0.4744(7)
Cl1A Cl 0.5862(2) -0.0874(2) -0.7371(1)
Cl2A Cl 0.7060(2) 0.1287(2) -0.8362(1)
Cu1A Cu 0.7544(1) -0.0594(1) -0.8425(1)
C9A_2 C 0.9097(8) -0.1135(7) -0.9305(5)
C10A C 0.8612(8) -0.1933(7) -0.8929(6)
Pt1_2 Pt 1.0000 0.0000 -1.0000
C11A C 0.8428(10) -0.3101(8) -0.8712(6)
C12A C 0.6842(11) -0.3162(9) -0.8810(8)
C13A C 0.8844(16) -0.3494(9) -0.7784(7)
C14A C 0.9328(13) -0.3850(9) -0.9309(8)
H12A H 0.6727(19) -0.3917(13) -0.8674(46)
H13A H 0.6238(13) -0.2700(48) -0.8434(34)
H14A H 0.6574(26) -0.2906(58) -0.9381(13)
H15A H 0.8677(82) -0.4233(27) -0.7631(17)
H16A H 0.9843(25) -0.3494(63) -0.7726(12)
H17A H 0.8269(59) -0.3000(39) -0.7420(8)
H18A H 1.0328(13) -0.3851(47) -0.9252(33)
H19A H 0.9165(59) -0.4592(15) -0.9176(29)
H20A H 0.9062(54) -0.3580(34) -0.9879(8)
N1 N 0.3596(14) 0.5774(13) 0.1282(10)
C29 C 0.3368(14) 0.6000(11) 0.0573(9)
C30 C 0.3136(17) 0.6242(12) -0.0290(10)
H41 H 0.2185(41) 0.6679(70) -0.0376(10)
H42 H 0.323(11) 0.5561(12) -0.0539(15)
H43 H 0.3831(68) 0.6652(72) -0.0550(14)
N2 N 0.1588(12) 0.7549(9) 0.3859(8)
C31 C 0.2676(14) 0.7204(9) 0.3574(7)
C32 C 0.4077(12) 0.6715(9) 0.3214(8)
H44 H 0.4616(32) 0.7287(13) 0.3051(43)
H45 H 0.3945(12) 0.6366(52) 0.2728(27)
H46 H 0.4593(33) 0.6170(44) 0.3627(16)
loop_
_geom_bond_atom_site_label_1
_geom_bond_atom_site_label_2
_geom_bond_site_symmetry_1
_geom_bond_site_symmetry_2
Pt1 P1 1_555 1_555
Pt2 P2 1_555 1_555
Cu1 Cl1 1_555 1_555
Cu2 Cl1 1_555 1_555
P1 C1 1_555 1_555
P2 C15 1_555 1_555
Cl2 Cu1 1_555 1_555
C1 C2 1_555 1_555
C2 C3 1_555 1_555
C3 C4 1_555 1_555
C4 C5 1_555 1_555
C5 C6 1_555 1_555
C6 C1 1_555 1_555
C7 P1 1_555 1_555
C8 P1 1_555 1_555
C9 Pt1 1_555 1_555
C10 Cu1 1_555 1_555
C11 C10 1_555 1_555
C12 C11 1_555 1_555
C13 C11 1_555 1_555
C14 C11 1_555 1_555
C15 C16 1_555 1_555
C16 C17 1_555 1_555
C17 C18 1_555 1_555
C18 C19 1_555 1_555
C19 C20 1_555 1_555
C20 C15 1_555 1_555
C21 P2 1_555 1_555
C22 P2 1_555 1_555
C23 Pt2 1_555 1_555
C24 Cu2 1_555 1_555
C25 C24 1_555 1_555
C26 C25 1_555 1_555
C27 C25 1_555 1_555
C28 C25 1_555 1_555
N1 C29 1_555 1_555
C29 C30 1_555 1_555
C30 H41 1_555 1_555
N2 C31 1_555 1_555
C31 C32 1_555 1_555
C32 H44 1_555 1_555
H1 C2 1_555 1_555
H2 C3 1_555 1_555
H3 C4 1_555 1_555
H4 C5 1_555 1_555
H5 C6 1_555 1_555
H6 C7 1_555 1_555
H7 C7 1_555 1_555
H8 C7 1_555 1_555
H9 C8 1_555 1_555
H10 C8 1_555 1_555
H11 C8 1_555 1_555
H12 C12 1_555 1_555
H13 C12 1_555 1_555
H14 C12 1_555 1_555
H15 C13 1_555 1_555
H16 C13 1_555 1_555
H17 C13 1_555 1_555
H18 C14 1_555 1_555
H19 C14 1_555 1_555
H20 C14 1_555 1_555
H21 C16 1_555 1_555
H22 C17 1_555 1_555
H23 C18 1_555 1_555
H24 C19 1_555 1_555
H25 C20 1_555 1_555
H26 C21 1_555 1_555
H27 C21 1_555 1_555
H28 C21 1_555 1_555
H29 C22 1_555 1_555
H30 C22 1_555 1_555
H31 C22 1_555 1_555
H32 C26 1_555 1_555
H33 C26 1_555 1_555
H34 C26 1_555 1_555
H35 C27 1_555 1_555
H36 C27 1_555 1_555
H37 C27 1_555 1_555
H38 C28 1_555 1_555
H39 C28 1_555 1_555
H40 C28 1_555 1_555
H42 C30 1_555 1_555
H43 C30 1_555 1_555
H45 C32 1_555 1_555
H46 C32 1_555 1_555
P1A Pt1 1_555 1_555
C9A Pt1 1_555 1_555
P2A Pt2 1_555 1_555
C23A Pt2 1_555 1_555
C1A P1A 1_555 1_555
C7A P1A 1_555 1_555
C8A P1A 1_555 1_555
C15A P2A 1_555 1_555
C21A P2A 1_555 1_555
C22A P2A 1_555 1_555
Cu2A C23A 1_555 1_555
C24A C23A 1_555 1_555
C2A C1A 1_555 1_555
C6A C1A 1_555 1_555
H9A C8A 1_555 1_555
H10A C8A 1_555 1_555
H11A C8A 1_555 1_555
H6A C7A 1_555 1_555
H7A C7A 1_555 1_555
H8A C7A 1_555 1_555
C3A C2A 1_555 1_555
H1A C2A 1_555 1_555
C5A C6A 1_555 1_555
H5A C6A 1_555 1_555
C4A C3A 1_555 1_555
H2A C3A 1_555 1_555
H4A C5A 1_555 1_555
H3A C4A 1_555 1_555
C16A C15A 1_555 1_555
C20A C15A 1_555 1_555
H26A C21A 1_555 1_555
H27A C21A 1_555 1_555
H28A C21A 1_555 1_555
H29A C22A 1_555 1_555
H30A C22A 1_555 1_555
H31A C22A 1_555 1_555
C25A C24A 1_555 1_555
C17A C16A 1_555 1_555
H21A C16A 1_555 1_555
C19A C20A 1_555 1_555
H25A C20A 1_555 1_555
C26A C25A 1_555 1_555
C27A C25A 1_555 1_555
C28A C25A 1_555 1_555
C18A C17A 1_555 1_555
H22A C17A 1_555 1_555
H24A C19A 1_555 1_555
H32A C26A 1_555 1_555
H33A C26A 1_555 1_555
H34A C26A 1_555 1_555
H35A C27A 1_555 1_555
H36A C27A 1_555 1_555
H37A C27A 1_555 1_555
H38A C28A 1_555 1_555
H39A C28A 1_555 1_555
H40A C28A 1_555 1_555
H23A C18A 1_555 1_555
Cl1A Cu2A 1_555 1_555
Cl2A Cu2A 1_555 1_555
Cu1A Cl1A 1_555 1_555
C9A_2 Cu1A 1_555 1_555
C10A Cu1A 1_555 1_555
Pt1_2 C9A_2 1_555 1_555
C11A C10A 1_555 1_555
C12A C11A 1_555 1_555
C13A C11A 1_555 1_555
C14A C11A 1_555 1_555
H12A C12A 1_555 1_555
H13A C12A 1_555 1_555
H14A C12A 1_555 1_555
H15A C13A 1_555 1_555
H16A C13A 1_555 1_555
H17A C13A 1_555 1_555
H18A C14A 1_555 1_555
H19A C14A 1_555 1_555
H20A C14A 1_555 1_555
Cu1 C9 1_555 1_555
Cu2 Cl2 1_555 1_555
Cu2 C23 1_555 1_555
C9 C10 1_555 1_555
C23 C24 1_555 1_555
Cu2A C24A 1_555 1_555
C5A C4A 1_555 1_555
C19A C18A 1_555 1_555
Cl2A Cu1A 1_555 1_555
C9A_2 C10A 1_555 1_555

#END
