
#######################################################################
#
#                 Cambridge Crystallographic Data Centre
#                                CCDC 
#
#######################################################################
#
# If this CIF has been generated from an entry in the Cambridge 
# Structural Database, then it will include bibliographic, chemical, 
# crystal, experimental, refinement or atomic coordinate data resulting 
# from the CCDC's data processing and validation procedures.
#
#######################################################################

data_ZUBXOJ
_symmetry_cell_setting           triclinic
_symmetry_space_group_name_H-M   'P -1'
_symmetry_Int_Tables_number      2
_space_group_name_Hall           '-P 1'
loop_
_symmetry_equiv_pos_site_id
_symmetry_equiv_pos_as_xyz
1 x,y,z
2 -x,-y,-z
_cell_length_a                   11.51(2)
_cell_length_b                   11.80(2)
_cell_length_c                   12.59(2)
_cell_angle_alpha                116.03(6)
_cell_angle_beta                 100.42(6)
_cell_angle_gamma                107.67(6)
_cell_volume                     1361.95
loop_
_atom_site_label
_atom_site_type_symbol
_atom_site_fract_x
_atom_site_fract_y
_atom_site_fract_z
C14 C 0.3881(6) 0.0140(9) -0.0405(8)
C15 C 0.4083(6) -0.0968(9) -0.1220(7)
C16 C 0.4789(7) 0.1100(8) 0.0811(7)
C17 C 0.4550(17) 0.2038(20) 0.1580(16)
C16A C 0.5211(7) -0.1100(8) -0.0811(7)
C14A C 0.6119(6) -0.0140(9) 0.0405(8)
C15A C 0.5917(6) 0.0968(9) 0.1220(7)
C17A C 0.5450(17) -0.2038(20) -0.1580(16)
C18 C 0.3948(9) 0.4006(11) -0.1137(8)
C19 C 0.4699(11) 0.3592(9) -0.0623(10)
C20 C 0.4194(9) 0.5417(10) -0.0537(9)
C21 C 0.3496(20) 0.5794(26) -0.0965(24)
C20A C 0.5806(9) 0.4583(10) 0.0537(9)
C18A C 0.6052(9) 0.5994(11) 0.1137(8)
C19A C 0.5301(11) 0.6408(9) 0.0623(10)
C21A C 0.6504(20) 0.4206(26) 0.0965(24)
Cu1 Cu 0.02774(5) 0.16595(6) 0.58823(5)
Cu2 Cu -0.22056(5) 0.13149(5) 0.50822(5)
Cu3 Cu -0.11558(5) 0.33878(6) 0.45759(5)
Cu4 Cu -0.01081(5) 0.40290(5) 0.69864(5)
S1 S 0.01194(10) 0.26854(12) 0.78221(10)
S2 S -0.18904(12) 0.1977(2) 0.89526(12)
N1 N -0.2496(3) 0.1236(4) 0.6577(3)
C1 C -0.1512(4) 0.1884(5) 0.7618(4)
C2 C -0.3596(9) 0.1441(17) 0.8086(9)
C4 C -0.3768(5) 0.0698(5) 0.6699(5)
S3 S -0.14059(11) 0.00192(11) 0.38218(10)
S4 S -0.03595(13) -0.01042(12) 0.17619(11)
N2 N -0.0878(3) 0.1951(4) 0.3141(3)
C5 C -0.0897(4) 0.0796(4) 0.2973(4)
C6 C -0.0195(6) 0.1171(5) 0.1297(5)
C7 C -0.0356(5) 0.2370(5) 0.2317(4)
S5 S -0.30751(10) 0.27545(11) 0.49090(10)
S6 S -0.39343(12) 0.42243(14) 0.70458(12)
N3 N -0.1536(3) 0.4549(4) 0.7386(3)
C8 C -0.2673(4) 0.3919(4) 0.6531(4)
C9 C -0.2722(5) 0.5666(6) 0.8575(5)
C10 C -0.1523(5) 0.5361(5) 0.8683(4)
S7 S 0.11211(10) 0.48678(11) 0.60961(10)
S8 S 0.31265(11) 0.43552(12) 0.49324(12)
N4 N 0.1703(3) 0.2664(4) 0.5484(3)
C11 C 0.1925(4) 0.3811(4) 0.5519(4)
C12 C 0.3182(4) 0.2667(5) 0.4286(5)
C13 C 0.2585(4) 0.2042(5) 0.5017(4)
H1 H -0.4189(9) 0.0804(17) 0.8268(9)
H2 H -0.3786(9) 0.2266(17) 0.8323(9)
H5 H -0.4100(5) -0.0322(5) 0.6343(5)
H6 H -0.4414(5) 0.0859(5) 0.6218(5)
H9 H 0.0677(6) 0.1519(5) 0.1242(5)
H10 H -0.0877(6) 0.0746(5) 0.0458(5)
H11 H 0.0502(5) 0.3200(5) 0.2837(4)
H12 H -0.0962(5) 0.2628(5) 0.1908(4)
H13 H -0.2514(5) 0.6566(6) 0.8617(5)
H14 H -0.3038(5) 0.5707(6) 0.9266(5)
H15 H -0.0713(5) 0.6250(5) 0.9200(4)
H16 H -0.1548(5) 0.4819(5) 0.9102(4)
H17 H 0.2661(4) 0.2059(5) 0.3364(5)
H18 H 0.4096(4) 0.2783(5) 0.4429(5)
H19 H 0.2085(4) 0.1014(5) 0.4450(4)
H20 H 0.3293(4) 0.2243(5) 0.5744(4)
Cu1A Cu -0.02774(5) -0.16595(6) 0.41177(5)
S3A S 0.14059(11) -0.00192(11) 0.61782(10)
S7A S -0.11211(10) 0.51322(11) 0.39039(10)
Cu3A Cu 0.11558(5) 0.66122(6) 0.54241(5)
C3? C -0.3578(13) 0.0678(24) 0.7901(13)
H3? H -0.3703(13) -0.0261(24) 0.7732(13)
H4? H -0.4207(13) 0.0934(24) 0.8286(13)
H7? H -0.43328(11) -0.02621(11) 0.59599(10)
H8? H -0.42125(11) 0.12977(11) 0.67049(10)
loop_
_geom_bond_atom_site_label_1
_geom_bond_atom_site_label_2
_geom_bond_site_symmetry_1
_geom_bond_site_symmetry_2
Cu1 Cu2 1_555 1_555
Cu2 Cu3 1_555 1_555
Cu3 Cu4 1_555 1_555
Cu4 Cu1 1_555 1_555
S1 Cu1 1_555 1_555
S2 C1 1_555 1_555
N1 Cu2 1_555 1_555
C1 S1 1_555 1_555
C2 S2 1_555 1_555
C4 N1 1_555 1_555
S3 Cu1 1_555 1_555
S4 C5 1_555 1_555
N2 Cu3 1_555 1_555
C5 S3 1_555 1_555
C6 S4 1_555 1_555
C7 N2 1_555 1_555
S5 Cu2 1_555 1_555
S6 C8 1_555 1_555
N3 Cu4 1_555 1_555
C8 S5 1_555 1_555
C9 S6 1_555 1_555
C10 N3 1_555 1_555
S7 Cu3 1_555 1_555
S8 C11 1_555 1_555
N4 Cu1 1_555 1_555
C11 S7 1_555 1_555
C12 S8 1_555 1_555
C13 N4 1_555 1_555
C14 C15 1_555 1_555
C15 C16A 1_555 1_555
C16 C14 1_555 1_555
C17 C16 1_555 1_555
C18 C19 1_555 1_555
C19 C20A 1_555 1_555
C20 C18 1_555 1_555
C21 C20 1_555 1_555
H1 C2 1_555 1_555
H2 C2 1_555 1_555
H5 C4 1_555 1_555
H6 C4 1_555 1_555
H9 C6 1_555 1_555
H10 C6 1_555 1_555
H11 C7 1_555 1_555
H12 C7 1_555 1_555
H13 C9 1_555 1_555
H14 C9 1_555 1_555
H15 C10 1_555 1_555
H16 C10 1_555 1_555
H17 C12 1_555 1_555
H18 C12 1_555 1_555
H19 C13 1_555 1_555
H20 C13 1_555 1_555
Cu1A Cu1 1_555 1_555
S3A Cu1 1_555 1_555
S7A Cu3 1_555 1_555
Cu3A S7 1_555 1_555
C16A C14A 1_555 1_555
C14A C15A 1_555 1_555
C15A C16 1_555 1_555
C17A C16A 1_555 1_555
C20A C18A 1_555 1_555
C18A C19A 1_555 1_555
C19A C20 1_555 1_555
C21A C20A 1_555 1_555
Cu2 Cu4 1_555 1_555
Cu2 S3 1_555 1_555
Cu3 S5 1_555 1_555
Cu4 S7 1_555 1_555
Cu4 S1 1_555 1_555
N1 C1 1_555 1_555
C2 C4 1_555 1_555
S3 Cu1A 1_555 1_555
N2 C5 1_555 1_555
C6 C7 1_555 1_555
N3 C8 1_555 1_555
C9 C10 1_555 1_555
N4 C11 1_555 1_555
C12 C13 1_555 1_555
Cu1A S3A 1_555 1_555
S7A Cu3A 1_555 1_555

#END
