
#######################################################################
#
#                 Cambridge Crystallographic Data Centre
#                                CCDC 
#
#######################################################################
#
# If this CIF has been generated from an entry in the Cambridge 
# Structural Database, then it will include bibliographic, chemical, 
# crystal, experimental, refinement or atomic coordinate data resulting 
# from the CCDC's data processing and validation procedures.
#
#######################################################################

data_ZUBZIH
_symmetry_cell_setting           orthorhombic
_symmetry_space_group_name_H-M   'P 21 21 21'
_symmetry_Int_Tables_number      19
_space_group_name_Hall           'P 2ac 2ab'
loop_
_symmetry_equiv_pos_site_id
_symmetry_equiv_pos_as_xyz
1 x,y,z
2 1/2+x,1/2-y,-z
3 -x,1/2+y,1/2-z
4 1/2-x,-y,1/2+z
_cell_length_a                   20.1581(3)
_cell_length_b                   9.61834(15)
_cell_length_c                   5.03695(8)
_cell_angle_alpha                90
_cell_angle_beta                 90
_cell_angle_gamma                90
_cell_volume                     976.601
loop_
_atom_site_label
_atom_site_type_symbol
_atom_site_fract_x
_atom_site_fract_y
_atom_site_fract_z
C1 C 0.9127(10) 1.0051(16) 0.374(5)
H1 H 0.8875(10) 1.0671(16) 0.261(5)
H2 H 0.9349(10) 1.0589(16) 0.511(5)
C2 C 0.8634(6) 0.9115(13) 0.510(2)
H3 H 0.8914(6) 0.8517(13) 0.620(2)
C3 C 0.8157(10) 0.9865(18) 0.705(6)
N1 N 0.8262(10) 0.826(2) 0.317(4)
H4 H 0.8538(10) 0.746(2) 0.244(4)
H5 H 0.8105(10) 0.887(2) 0.166(4)
O1 O 0.8308(10) 1.1061(13) 0.778(5)
O2 O 0.7627(7) 0.923(2) 0.775(4)
S1 S 0.9723(5) 0.9246(9) 0.1660(16)
C4 C 1.0666(8) 0.893(2) 0.600(3)
H6 H 1.0851(8) 0.840(2) 0.745(3)
H7 H 1.0396(8) 0.969(2) 0.671(3)
C5 C 1.1265(6) 0.9546(18) 0.455(2)
H8 H 1.1095(6) 1.0325(18) 0.349(2)
C6 C 1.1803(12) 1.0101(15) 0.647(7)
N2 N 1.1579(11) 0.843(2) 0.287(4)
H9 H 1.1728(11) 0.886(2) 0.113(4)
H10 H 1.1234(11) 0.769(2) 0.251(4)
O3 O 1.1780(11) 1.1347(12) 0.720(4)
O4 O 1.2263(9) 0.933(2) 0.709(4)
S2 S 1.0158(5) 0.7843(7) 0.4068(11)
Zn1 Zn 0.7428(2) 0.7475(8) 0.5350(9)
O1C O 0.6692(10) 0.8939(13) 0.278(5)
N2A N 0.6579(11) 0.657(2) 0.713(4)
O3B O 0.8220(11) 0.6347(12) 0.780(4)
O4A O 0.7263(9) 0.567(2) 0.291(4)
Zn1A Zn 1.2428(2) 0.7525(8) 0.4650(9)
Zn1B Zn 1.2572(2) 1.2475(8) 0.9650(9)
Zn1C Zn 0.7572(2) 1.2525(8) 1.0350(9)
loop_
_geom_bond_atom_site_label_1
_geom_bond_atom_site_label_2
_geom_bond_site_symmetry_1
_geom_bond_site_symmetry_2
C1 H1 1_555 1_555
H2 C1 1_555 1_555
C2 C1 1_555 1_555
H3 C2 1_555 1_555
C3 C2 1_555 1_555
N1 C2 1_555 1_555
H4 N1 1_555 1_555
H5 N1 1_555 1_555
O1 C3 1_555 1_555
O2 C3 1_555 1_555
S1 C1 1_555 1_555
C4 H6 1_555 1_555
H7 C4 1_555 1_555
C5 C4 1_555 1_555
H8 C5 1_555 1_555
C6 C5 1_555 1_555
N2 C5 1_555 1_555
H9 N2 1_555 1_555
H10 N2 1_555 1_555
O3 C6 1_555 1_555
O4 C6 1_555 1_555
S2 S1 1_555 1_555
Zn1 N1 1_555 1_555
O1C Zn1 1_555 1_555
N2A Zn1 1_555 1_555
O3B Zn1 1_555 1_555
O4A Zn1 1_555 1_555
Zn1A N2 1_555 1_555
Zn1B O3 1_555 1_555
Zn1C O1 1_555 1_555
O2 Zn1 1_555 1_555
C4 S2 1_555 1_555
O4 Zn1A 1_555 1_555

#END
