
#######################################################################
#
#                 Cambridge Crystallographic Data Centre
#                                CCDC 
#
#######################################################################
#
# If this CIF has been generated from an entry in the Cambridge 
# Structural Database, then it will include bibliographic, chemical, 
# crystal, experimental, refinement or atomic coordinate data resulting 
# from the CCDC's data processing and validation procedures.
#
#######################################################################

data_ZUCCUX
_symmetry_cell_setting           triclinic
_symmetry_space_group_name_H-M   'P -1'
_symmetry_Int_Tables_number      2
_space_group_name_Hall           '-P 1'
loop_
_symmetry_equiv_pos_site_id
_symmetry_equiv_pos_as_xyz
1 x,y,z
2 -x,-y,-z
_cell_length_a                   12.3159(3)
_cell_length_b                   14.5013(3)
_cell_length_c                   15.7871(4)
_cell_angle_alpha                70.169(1)
_cell_angle_beta                 88.002(1)
_cell_angle_gamma                78.097(1)
_cell_volume                     2593.4
loop_
_atom_site_label
_atom_site_type_symbol
_atom_site_fract_x
_atom_site_fract_y
_atom_site_fract_z
Ta1 Ta 0.415894(9) 0.141777(8) 0.490042(8)
Ta2 Ta 0.623583(8) 0.013883(8) 0.574852(7)
Ta3 Ta 0.579708(9) 0.058759(8) 0.384785(8)
Cl1 Cl 0.74531(6) 0.08606(5) 0.45139(5)
Cl2 Cl 0.49629(6) 0.23800(5) 0.35201(5)
Cl3 Cl 0.54868(6) 0.18528(5) 0.57595(5)
Cl4 Cl 0.25305(6) 0.15467(5) 0.39483(5)
Cl5 Cl 0.55227(5) -0.05220(5) 0.72653(5)
Cl6 Cl 0.30570(6) 0.09767(6) 0.62618(5)
K1 K 0.94081(6) -0.11075(6) 0.46368(5)
O1 O 0.32114(18) 0.28650(16) 0.48518(16)
O2 O 0.75826(16) 0.03131(16) 0.64916(14)
O3 O 0.66902(18) 0.11919(18) 0.26592(15)
O4 O 1.03329(18) 0.05776(18) 0.38845(16)
H1 H 0.9886 0.0747 0.3434
H2 H 1.0983 0.0406 0.3715
O5 O 0.8872(2) 0.0345(3) 0.2735(2)
H3 H 0.8638 0.0955 0.2444
O6 O 0.8958(2) -0.2862(2) 0.4655(3)
H4 H 0.8639 -0.3230 0.5074
O7 O 1.1413(2) -0.2003(2) 0.4343(2)
H5 H 1.1770 -0.1668 0.3932
F1 F 0.3158(5) 0.6652(2) 0.2498(3)
F2 F 0.8001(2) 0.01097(19) 0.99992(15)
F3 F 0.5189(3) 0.3670(3) -0.0743(2)
C1 C 0.3208(3) 0.3800(2) 0.4284(2)
C2 C 0.2257(4) 0.4358(3) 0.3752(3)
H6 H 0.1619 0.4075 0.3793
C3 C 0.2236(6) 0.5327(4) 0.3163(3)
H7 H 0.1583 0.5714 0.2812
C4 C 0.3167(7) 0.5708(3) 0.3099(4)
C5 C 0.4104(6) 0.5200(4) 0.3611(5)
H8 H 0.4735 0.5495 0.3560
C6 C 0.4122(4) 0.4240(3) 0.4212(4)
H9 H 0.4771 0.3879 0.4580
C7 C 0.7662(2) 0.0255(2) 0.7364(2)
C8 C 0.7243(3) 0.1089(2) 0.7618(2)
H10 H 0.6883 0.1698 0.7179
C9 C 0.7346(3) 0.1039(3) 0.8505(2)
H11 H 0.7047 0.1604 0.8678
C10 C 0.7884(3) 0.0163(3) 0.9128(2)
C11 C 0.8328(3) -0.0666(3) 0.8897(2)
H12 H 0.8713 -0.1262 0.9338
C12 C 0.8205(3) -0.0620(2) 0.8014(2)
H13 H 0.8495 -0.1195 0.7852
C13 C 0.6331(3) 0.1795(3) 0.1820(2)
C14 C 0.6136(3) 0.2834(3) 0.1586(3)
H14 H 0.6265 0.3117 0.2026
C15 C 0.5757(4) 0.3463(4) 0.0727(3)
H15 H 0.5620 0.4170 0.0577
C16 C 0.5585(4) 0.3044(5) 0.0097(3)
C17 C 0.5782(4) 0.2038(5) 0.0291(3)
H16 H 0.5665 0.1766 -0.0160
C18 C 0.6157(3) 0.1409(3) 0.1154(3)
H17 H 0.6297 0.0704 0.1292
C19 C 0.9096(4) -0.0191(4) 0.2134(3)
H18 H 0.8926 0.0272 0.1515
H19 H 0.8637 -0.0697 0.2270
H20 H 0.9883 -0.0522 0.2198
C20 C 0.9215(6) -0.3302(7) 0.3991(6)
H21 H 0.8960 -0.3936 0.4168
H22 H 1.0020 -0.3429 0.3921
H23 H 0.8845 -0.2848 0.3417
C21 C 1.2051(5) -0.2972(4) 0.4747(4)
H24 H 1.2764 -0.3032 0.4453
H25 H 1.1652 -0.3464 0.4681
H26 H 1.2183 -0.3095 0.5388
Ta1A Ta 0.584106(9) -0.141777(8) 0.509958(8)
Ta2A Ta 0.376417(8) -0.013883(8) 0.425148(7)
Ta3A Ta 0.420292(9) -0.058759(8) 0.615215(8)
Cl4A Cl 0.74695(6) -0.15467(5) 0.60517(5)
Cl5A Cl 0.44773(5) 0.05220(5) 0.27347(5)
Cl6A Cl 0.69430(6) -0.09767(6) 0.37382(5)
K1A K 0.05919(6) 0.11075(6) 0.53632(5)
K1A_2 K 1.05919(6) 0.11075(6) 0.53632(5)
O4A O 0.96671(18) -0.05776(18) 0.61155(16)
P1 P 0.82334(7) 0.62075(6) 0.08966(6)
C22 C 0.8709(3) 0.4984(3) 0.1702(2)
C23 C 0.9837(4) 0.4603(3) 0.1903(3)
H27 H 1.0359 0.5006 0.1633
C24 C 1.0203(5) 0.3639(4) 0.2496(3)
H28 H 1.0976 0.3380 0.2627
C25 C 0.9456(6) 0.3060(4) 0.2893(4)
H29 H 0.9714 0.2401 0.3304
C26 C 0.8332(5) 0.3419(4) 0.2705(3)
H30 H 0.7820 0.3009 0.2982
C27 C 0.7950(4) 0.4389(3) 0.2105(3)
H31 H 0.7177 0.4642 0.1973
C28 C 0.7658(3) 0.6096(2) -0.0085(2)
C29 C 0.7267(3) 0.6944(3) -0.0829(3)
H32 H 0.7281 0.7589 -0.0810
C30 C 0.6861(3) 0.6853(3) -0.1588(3)
H33 H 0.6595 0.7438 -0.2091
C31 C 0.6834(3) 0.5924(3) -0.1631(2)
H34 H 0.6544 0.5867 -0.2157
C32 C 0.7230(3) 0.5081(3) -0.0906(3)
H35 H 0.7228 0.4438 -0.0937
C33 C 0.7633(3) 0.5159(3) -0.0130(2)
H36 H 0.7893 0.4572 0.0372
C34 C 0.9388(3) 0.6810(2) 0.0565(2)
C35 C 0.9925(3) 0.6828(3) -0.0226(3)
H37 H 0.9686 0.6513 -0.0603
C36 C 1.0813(3) 0.7310(3) -0.0467(3)
H38 H 1.1173 0.7335 -0.1014
C37 C 1.1170(3) 0.7751(3) 0.0091(4)
H39 H 1.1785 0.8069 -0.0069
C38 C 1.0641(4) 0.7733(4) 0.0875(4)
H40 H 1.0893 0.8039 0.1255
C39 C 0.9742(4) 0.7271(3) 0.1117(3)
H41 H 0.9371 0.7270 0.1655
C40 C 0.7260(3) 0.6959(3) 0.1396(2)
C41 C 0.6781(5) 0.7926(4) 0.0883(3)
H42 H 0.6950 0.8180 0.0266
C42 C 0.6047(4) 0.8540(4) 0.1261(4)
H43 H 0.5703 0.9201 0.0899
C43 C 0.5829(4) 0.8188(4) 0.2142(4)
H44 H 0.5327 0.8605 0.2397
C44 C 0.6323(5) 0.7233(5) 0.2679(4)
H45 H 0.6181 0.6998 0.3303
C45 C 0.7034(5) 0.6616(4) 0.2297(3)
H46 H 0.7367 0.5952 0.2661
loop_
_geom_bond_atom_site_label_1
_geom_bond_atom_site_label_2
_geom_bond_site_symmetry_1
_geom_bond_site_symmetry_2
Ta1 Ta2 1_555 1_555
Ta2 Ta3 1_555 1_555
Ta3 Ta1 1_555 1_555
Cl1 Ta2 1_555 1_555
Cl2 Ta1 1_555 1_555
Cl3 Ta1 1_555 1_555
Cl4 Ta1 1_555 1_555
Cl5 Ta2 1_555 1_555
Cl6 Ta1 1_555 1_555
K1 Cl1 1_555 1_555
O1 Ta1 1_555 1_555
O2 Ta2 1_555 1_555
O3 Ta3 1_555 1_555
O4 K1 1_555 1_555
H1 O4 1_555 1_555
H2 O4 1_555 1_555
O5 K1 1_555 1_555
H3 O5 1_555 1_555
O6 K1 1_555 1_555
H4 O6 1_555 1_555
O7 K1 1_555 1_555
H5 O7 1_555 1_555
F1 C4 1_555 1_555
F2 C10 1_555 1_555
F3 C16 1_555 1_555
C1 O1 1_555 1_555
C2 C1 1_555 1_555
H6 C2 1_555 1_555
C3 C2 1_555 1_555
H7 C3 1_555 1_555
C4 C3 1_555 1_555
C5 C4 1_555 1_555
H8 C5 1_555 1_555
C6 C1 1_555 1_555
H9 C6 1_555 1_555
C7 O2 1_555 1_555
C8 C7 1_555 1_555
H10 C8 1_555 1_555
C9 C8 1_555 1_555
H11 C9 1_555 1_555
C10 C9 1_555 1_555
C11 C10 1_555 1_555
H12 C11 1_555 1_555
C12 C7 1_555 1_555
H13 C12 1_555 1_555
C13 O3 1_555 1_555
C14 C13 1_555 1_555
H14 C14 1_555 1_555
C15 C14 1_555 1_555
H15 C15 1_555 1_555
C16 C15 1_555 1_555
C17 C16 1_555 1_555
H16 C17 1_555 1_555
C18 C13 1_555 1_555
H17 C18 1_555 1_555
C19 O5 1_555 1_555
H18 C19 1_555 1_555
H19 C19 1_555 1_555
H20 C19 1_555 1_555
C20 O6 1_555 1_555
H21 C20 1_555 1_555
H22 C20 1_555 1_555
H23 C20 1_555 1_555
C21 O7 1_555 1_555
H24 C21 1_555 1_555
H25 C21 1_555 1_555
H26 C21 1_555 1_555
P1 C22 1_555 1_555
C22 C23 1_555 1_555
C23 H27 1_555 1_555
C24 C23 1_555 1_555
H28 C24 1_555 1_555
C25 C24 1_555 1_555
H29 C25 1_555 1_555
C26 C25 1_555 1_555
H30 C26 1_555 1_555
C27 C22 1_555 1_555
H31 C27 1_555 1_555
C28 P1 1_555 1_555
C29 C28 1_555 1_555
H32 C29 1_555 1_555
C30 C29 1_555 1_555
H33 C30 1_555 1_555
C31 C30 1_555 1_555
H34 C31 1_555 1_555
C32 C31 1_555 1_555
H35 C32 1_555 1_555
C33 C28 1_555 1_555
H36 C33 1_555 1_555
C34 P1 1_555 1_555
C35 C34 1_555 1_555
H37 C35 1_555 1_555
C36 C35 1_555 1_555
H38 C36 1_555 1_555
C37 C36 1_555 1_555
H39 C37 1_555 1_555
C38 C37 1_555 1_555
H40 C38 1_555 1_555
C39 C34 1_555 1_555
H41 C39 1_555 1_555
C40 P1 1_555 1_555
C41 C40 1_555 1_555
H42 C41 1_555 1_555
C42 C41 1_555 1_555
H43 C42 1_555 1_555
C43 C42 1_555 1_555
H44 C43 1_555 1_555
C44 C43 1_555 1_555
H45 C44 1_555 1_555
C45 C40 1_555 1_555
H46 C45 1_555 1_555
Ta1A Ta2 1_555 1_555
Ta2A Ta1 1_555 1_555
Ta3A Ta1 1_555 1_555
Cl4A Ta2 1_555 1_555
Cl5A Ta3 1_555 1_555
Cl6A Ta3 1_555 1_555
K1A Cl4 1_555 1_555
K1A_2 O4 1_555 1_555
O4A K1 1_555 1_555
Ta2 Cl3 1_555 1_555
Ta2 Ta3A 1_555 1_555
Ta3 Cl1 1_555 1_555
Ta3 Cl2 1_555 1_555
Ta3 Ta1A 1_555 1_555
Ta3 Ta2A 1_555 1_555
Cl4 Ta2A 1_555 1_555
Cl5 Ta3A 1_555 1_555
Cl6 Ta3A 1_555 1_555
Cl6 K1A 1_555 1_555
K1 Cl4A 1_555 1_555
K1 Cl6A 1_555 1_555
C5 C6 1_555 1_555
C11 C12 1_555 1_555
C17 C18 1_555 1_555
C26 C27 1_555 1_555
C32 C33 1_555 1_555
C38 C39 1_555 1_555
C44 C45 1_555 1_555
Ta1A Ta2A 1_555 1_555
Ta1A Ta3A 1_555 1_555
Ta1A Cl4A 1_555 1_555
Ta1A Cl6A 1_555 1_555
Ta2A Ta3A 1_555 1_555
Ta2A Cl5A 1_555 1_555
K1A_2 O4A 1_555 1_555

#END
