
#######################################################################
#
#                 Cambridge Crystallographic Data Centre
#                                CCDC 
#
#######################################################################
#
# If this CIF has been generated from an entry in the Cambridge 
# Structural Database, then it will include bibliographic, chemical, 
# crystal, experimental, refinement or atomic coordinate data resulting 
# from the CCDC's data processing and validation procedures.
#
#######################################################################

data_ZUCDAE
_symmetry_cell_setting           triclinic
_symmetry_space_group_name_H-M   'P -1'
_symmetry_Int_Tables_number      2
_space_group_name_Hall           '-P 1'
loop_
_symmetry_equiv_pos_site_id
_symmetry_equiv_pos_as_xyz
1 x,y,z
2 -x,-y,-z
_cell_length_a                   12.3048(4)
_cell_length_b                   14.4303(5)
_cell_length_c                   15.8210(5)
_cell_angle_alpha                70.314(2)
_cell_angle_beta                 88.231(2)
_cell_angle_gamma                78.354(2)
_cell_volume                     2588.47
loop_
_atom_site_label
_atom_site_type_symbol
_atom_site_fract_x
_atom_site_fract_y
_atom_site_fract_z
Nb1 Nb 0.581309(19) 0.559796(18) 0.383268(16)
Nb2 Nb 0.374324(19) 0.485369(18) 0.423698(16)
Nb3 Nb 0.584852(19) 0.354583(18) 0.510710(16)
Cl1 Cl 0.45015(6) 0.31296(5) 0.42457(5)
Cl2 Cl 0.25356(5) 0.65516(5) 0.39389(5)
Cl3 Cl 0.69496(6) 0.40082(5) 0.37493(5)
Cl4 Cl 0.49744(6) 0.73880(5) 0.35182(5)
Cl5 Cl 0.74628(5) 0.58579(5) 0.45244(4)
Cl6 Cl 0.44825(5) 0.55144(5) 0.27384(4)
K1 K 0.05678(6) 0.61356(6) 0.53447(5)
O1 O 0.67094(17) 0.62094(16) 0.26422(14)
O2 O 0.23942(16) 0.46727(15) 0.34877(13)
O3 O 0.67852(18) 0.20828(16) 0.51677(15)
O4 O -0.03277(18) 0.44315(17) 0.61204(15)
H1 H 0.0093 0.4429 0.6538
H2 H -0.0972 0.4689 0.6241
O5 O 0.1134(2) 0.4664(2) 0.72722(19)
H3 H 0.1191 0.4051 0.7571
O6 O 0.1034(2) 0.7903(2) 0.5304(2)
H4 H 0.1666 0.7979 0.5114
O7 O -0.1419(2) 0.7030(2) 0.5687(2)
H5 H -0.1842 0.6624 0.5898
F1 F 0.5135(3) 0.8672(3) -0.07404(19)
F2 F 0.2037(2) 0.49196(19) -0.00346(15)
F3 F 0.6773(5) -0.1675(2) 0.7563(3)
C1 C 0.6328(2) 0.6810(2) 0.1813(2)
C2 C 0.6115(3) 0.7857(3) 0.1578(2)
H6 H 0.6239 0.8148 0.2013
C3 C 0.5726(4) 0.8477(4) 0.0717(3)
H7 H 0.5586 0.9188 0.0561
C4 C 0.5548(4) 0.8051(5) 0.0104(3)
C5 C 0.5754(4) 0.7035(5) 0.0291(3)
H8 H 0.5630 0.6760 -0.0156
C6 C 0.6150(3) 0.6411(3) 0.1152(2)
H9 H 0.6301 0.5703 0.1291
C7 C 0.2330(2) 0.4742(2) 0.26181(19)
C8 C 0.2782(3) 0.3922(2) 0.2344(2)
H10 H 0.3155 0.3314 0.2777
C9 C 0.2696(3) 0.3978(3) 0.1458(2)
H11 H 0.3016 0.3420 0.1280
C10 C 0.2139(3) 0.4856(3) 0.0841(2)
C11 C 0.1655(3) 0.5669(3) 0.1082(2)
H12 H 0.1251 0.6261 0.0648
C12 C 0.1763(3) 0.5616(2) 0.1972(2)
H13 H 0.1447 0.6183 0.2140
C13 C 0.6775(3) 0.1156(2) 0.5737(2)
C14 C 0.7724(4) 0.0590(3) 0.6278(3)
H14 H 0.8374 0.0862 0.6232
C15 C 0.7716(6) -0.0372(4) 0.6883(3)
H15 H 0.8361 -0.0759 0.7244
C16 C 0.6777(7) -0.0747(3) 0.6951(4)
C17 C 0.5854(6) -0.0237(4) 0.6428(4)
H16 H 0.5214 -0.0524 0.6479
C18 C 0.5854(4) 0.0721(3) 0.5812(3)
H17 H 0.5211 0.1081 0.5437
C19 C 0.0921(3) 0.5229(4) 0.7849(3)
H18 H 0.1092 0.4782 0.8472
H19 H 0.0136 0.5563 0.7782
H20 H 0.1385 0.5736 0.7697
C20 C 0.0768(5) 0.8368(7) 0.5956(6)
H21 H 0.1033 0.9000 0.5774
H22 H 0.1125 0.7921 0.6535
H23 H -0.0039 0.8505 0.6013
C21 C -0.2053(4) 0.7987(4) 0.5251(4)
H24 H -0.2753 0.8075 0.5555
H25 H -0.2212 0.8062 0.4625
H26 H -0.1640 0.8495 0.5266
Nb1A Nb 0.418691(19) 0.440204(18) 0.616732(16)
Nb2A Nb 0.625676(19) 0.514631(18) 0.576302(16)
Nb3A Nb 0.415148(19) 0.645417(18) 0.489290(16)
Cl2A Cl 0.74644(5) 0.34484(5) 0.60611(5)
Cl3A Cl 0.30504(6) 0.59918(5) 0.62507(5)
Cl4A Cl 0.50256(6) 0.26120(5) 0.64818(5)
Cl5A Cl 0.25372(5) 0.41421(5) 0.54756(4)
K1A K -0.05678(6) 0.38644(6) 0.46553(5)
K1A_2 K 0.94322(6) 0.38644(6) 0.46553(5)
O4A O 0.03277(18) 0.55685(17) 0.38796(15)
P1 P 0.82505(7) 0.12053(6) 0.09022(6)
C22 C 0.8720(3) -0.0026(2) 0.1704(2)
C23 C 0.7956(4) -0.0617(3) 0.2105(3)
H27 H 0.7183 -0.0362 0.1972
C24 C 0.8338(5) -0.1589(3) 0.2707(3)
H28 H 0.7823 -0.1997 0.2988
C25 C 0.9461(5) -0.1955(3) 0.2892(3)
H29 H 0.9715 -0.2617 0.3299
C26 C 1.0211(5) -0.1377(3) 0.2495(3)
H30 H 1.0982 -0.1643 0.2629
C27 C 0.9861(3) -0.0407(3) 0.1899(3)
H31 H 1.0386 -0.0007 0.1628
C28 C 0.9413(3) 0.1814(2) 0.0578(2)
C29 C 0.9954(3) 0.1819(3) -0.0213(3)
H32 H 0.9719 0.1493 -0.0584
C30 C 1.0843(3) 0.2308(3) -0.0451(3)
H33 H 1.1208 0.2325 -0.0992
C31 C 1.1194(3) 0.2764(3) 0.0096(3)
H34 H 1.1807 0.3088 -0.0067
C32 C 1.0662(4) 0.2756(4) 0.0880(3)
H35 H 1.0910 0.3072 0.1254
C33 C 0.9764(3) 0.2285(3) 0.1123(3)
H36 H 0.9392 0.2286 0.1658
C34 C 0.7672(3) 0.1096(2) -0.0080(2)
C35 C 0.7614(3) 0.0157(2) -0.0120(2)
H37 H 0.7858 -0.0432 0.0383
C36 C 0.7201(3) 0.0083(3) -0.0894(2)
H38 H 0.7171 -0.0559 -0.0921
C37 C 0.6832(3) 0.0935(3) -0.1625(2)
H39 H 0.6536 0.0879 -0.2150
C38 C 0.6893(3) 0.1869(3) -0.1594(2)
H40 H 0.6646 0.2454 -0.2100
C39 C 0.7312(3) 0.1955(3) -0.0831(2)
H41 H 0.7356 0.2598 -0.0815
C40 C 0.7280(3) 0.1954(3) 0.1407(2)
C41 C 0.6754(4) 0.2910(3) 0.0889(3)
H42 H 0.6872 0.3156 0.0263
C42 C 0.6047(4) 0.3517(3) 0.1289(3)
H43 H 0.5690 0.4177 0.0932
C43 C 0.5865(3) 0.3176(3) 0.2175(3)
H44 H 0.5366 0.3588 0.2436
C44 C 0.6403(4) 0.2229(4) 0.2702(3)
H45 H 0.6294 0.2000 0.3330
C45 C 0.7104(4) 0.1610(3) 0.2321(3)
H46 H 0.7461 0.0953 0.2685
loop_
_geom_bond_atom_site_label_1
_geom_bond_atom_site_label_2
_geom_bond_site_symmetry_1
_geom_bond_site_symmetry_2
Nb1 Nb2 1_555 1_555
Nb2 Nb3 1_555 1_555
Nb3 Nb1 1_555 1_555
Cl1 Nb2 1_555 1_555
Cl2 Nb2 1_555 1_555
Cl3 Nb1 1_555 1_555
Cl4 Nb1 1_555 1_555
Cl5 Nb1 1_555 1_555
Cl6 Nb1 1_555 1_555
K1 Cl2 1_555 1_555
O1 Nb1 1_555 1_555
O2 Nb2 1_555 1_555
O3 Nb3 1_555 1_555
O4 K1 1_555 1_555
H1 O4 1_555 1_555
H2 O4 1_555 1_555
O5 K1 1_555 1_555
H3 O5 1_555 1_555
O6 K1 1_555 1_555
H4 O6 1_555 1_555
O7 K1 1_555 1_555
H5 O7 1_555 1_555
F1 C4 1_555 1_555
F2 C10 1_555 1_555
F3 C16 1_555 1_555
C1 O1 1_555 1_555
C2 C1 1_555 1_555
H6 C2 1_555 1_555
C3 C2 1_555 1_555
H7 C3 1_555 1_555
C4 C3 1_555 1_555
C5 C4 1_555 1_555
H8 C5 1_555 1_555
C6 C1 1_555 1_555
H9 C6 1_555 1_555
C7 O2 1_555 1_555
C8 C7 1_555 1_555
H10 C8 1_555 1_555
C9 C8 1_555 1_555
H11 C9 1_555 1_555
C10 C9 1_555 1_555
C11 C10 1_555 1_555
H12 C11 1_555 1_555
C12 C7 1_555 1_555
H13 C12 1_555 1_555
C13 O3 1_555 1_555
C14 C13 1_555 1_555
H14 C14 1_555 1_555
C15 C14 1_555 1_555
H15 C15 1_555 1_555
C16 C15 1_555 1_555
C17 C16 1_555 1_555
H16 C17 1_555 1_555
C18 C13 1_555 1_555
H17 C18 1_555 1_555
C19 O5 1_555 1_555
H18 C19 1_555 1_555
H19 C19 1_555 1_555
H20 C19 1_555 1_555
C20 O6 1_555 1_555
H21 C20 1_555 1_555
H22 C20 1_555 1_555
H23 C20 1_555 1_555
C21 O7 1_555 1_555
H24 C21 1_555 1_555
H25 C21 1_555 1_555
H26 C21 1_555 1_555
P1 C22 1_555 1_555
C22 C23 1_555 1_555
C23 H27 1_555 1_555
C24 C23 1_555 1_555
H28 C24 1_555 1_555
C25 C24 1_555 1_555
H29 C25 1_555 1_555
C26 C25 1_555 1_555
H30 C26 1_555 1_555
C27 C22 1_555 1_555
H31 C27 1_555 1_555
C28 P1 1_555 1_555
C29 C28 1_555 1_555
H32 C29 1_555 1_555
C30 C29 1_555 1_555
H33 C30 1_555 1_555
C31 C30 1_555 1_555
H34 C31 1_555 1_555
C32 C31 1_555 1_555
H35 C32 1_555 1_555
C33 C28 1_555 1_555
H36 C33 1_555 1_555
C34 P1 1_555 1_555
C35 C34 1_555 1_555
H37 C35 1_555 1_555
C36 C35 1_555 1_555
H38 C36 1_555 1_555
C37 C36 1_555 1_555
H39 C37 1_555 1_555
C38 C37 1_555 1_555
H40 C38 1_555 1_555
C39 C34 1_555 1_555
H41 C39 1_555 1_555
C40 P1 1_555 1_555
C41 C40 1_555 1_555
H42 C41 1_555 1_555
C42 C41 1_555 1_555
H43 C42 1_555 1_555
C43 C42 1_555 1_555
H44 C43 1_555 1_555
C44 C43 1_555 1_555
H45 C44 1_555 1_555
C45 C40 1_555 1_555
H46 C45 1_555 1_555
Nb1A Nb2 1_555 1_555
Nb2A Nb1 1_555 1_555
Nb3A Nb1 1_555 1_555
Cl2A Nb3 1_555 1_555
Cl3A K1 1_555 1_555
Cl4A Nb3 1_555 1_555
Cl5A Nb2 1_555 1_555
K1A O4 1_555 1_555
K1A_2 Cl3 1_555 1_555
O4A K1 1_555 1_555
Nb2 Cl6 1_555 1_555
Nb2 Nb3A 1_555 1_555
Nb3 Cl1 1_555 1_555
Nb3 Cl3 1_555 1_555
Nb3 Nb1A 1_555 1_555
Nb3 Nb2A 1_555 1_555
Cl2 Nb3A 1_555 1_555
Cl4 Nb3A 1_555 1_555
Cl5 Nb2A 1_555 1_555
Cl5 K1A_2 1_555 1_555
K1 Cl5A 1_555 1_555
C5 C6 1_555 1_555
C11 C12 1_555 1_555
C17 C18 1_555 1_555
C26 C27 1_555 1_555
C32 C33 1_555 1_555
C38 C39 1_555 1_555
C44 C45 1_555 1_555
Nb1A Nb2A 1_555 1_555
Nb1A Nb3A 1_555 1_555
Nb1A Cl3A 1_555 1_555
Nb1A Cl4A 1_555 1_555
Nb1A Cl5A 1_555 1_555
Nb2A Nb3A 1_555 1_555
Nb2A Cl2A 1_555 1_555
Nb3A Cl3A 1_555 1_555
Cl2A K1A_2 1_555 1_555
K1A O4A 1_555 1_555

#END
