
#######################################################################
#
#                 Cambridge Crystallographic Data Centre
#                                CCDC 
#
#######################################################################
#
# If this CIF has been generated from an entry in the Cambridge 
# Structural Database, then it will include bibliographic, chemical, 
# crystal, experimental, refinement or atomic coordinate data resulting 
# from the CCDC's data processing and validation procedures.
#
#######################################################################

data_ZUCGAH
_symmetry_cell_setting           monoclinic
_symmetry_space_group_name_H-M   'C 2/c'
_symmetry_Int_Tables_number      15
_space_group_name_Hall           '-C 2yn'
loop_
_symmetry_equiv_pos_site_id
_symmetry_equiv_pos_as_xyz
1 x,y,z
2 -x,y,1/2-z
3 1/2+x,1/2+y,z
4 1/2-x,1/2+y,1/2-z
5 -x,-y,-z
6 x,-y,1/2+z
7 1/2-x,1/2-y,-z
8 1/2+x,1/2-y,1/2+z
_cell_length_a                   28.4395(15)
_cell_length_b                   18.7648(11)
_cell_length_c                   16.3621(9)
_cell_angle_alpha                90
_cell_angle_beta                 123.051(3)
_cell_angle_gamma                90
_cell_volume                     7318.89
loop_
_atom_site_label
_atom_site_type_symbol
_atom_site_fract_x
_atom_site_fract_y
_atom_site_fract_z
Zn1 Zn 0.2500 0.7500 0.0000
S1 S 0.62745(3) 0.55399(5) 0.14103(6)
P1 P 0.77194(3) 0.61736(4) 0.42976(5)
N1 N 0.16828(8) 0.75297(11) -0.11265(15)
N2 N 0.27020(8) 0.69452(12) -0.08526(14)
C1 C 0.12557(10) 0.78859(14) -0.11519(18)
C2 C 0.07531(11) 0.78158(19) -0.2100(2)
H1 H 0.0400 0.8024 -0.2313
C3 C 0.08732(11) 0.73981(18) -0.2639(2)
H2 H 0.0619 0.7250 -0.3294
C4 C 0.14607(10) 0.72217(14) -0.20289(17)
C5 C 0.17521(11) 0.68200(14) -0.23331(17)
C6 C 0.23309(11) 0.66992(14) -0.17853(18)
C7 C 0.26325(12) 0.62805(16) -0.2096(2)
H3 H 0.2477 0.6056 -0.2712
C8 C 0.31748(11) 0.62676(15) -0.1351(2)
H4 H 0.3473 0.6032 -0.1344
C9 C 0.32202(10) 0.66752(14) -0.05660(18)
C10 C 0.37031(10) 0.67422(14) 0.03708(19)
C11 C 0.14009(11) 0.64915(16) -0.33387(18)
C12 C 0.13063(13) 0.68719(18) -0.4151(2)
C13 C 0.09398(13) 0.6576(2) -0.5078(2)
H5 H 0.0858 0.6839 -0.5638
C14 C 0.06940(12) 0.59177(19) -0.5204(2)
C15 C 0.08046(12) 0.55463(18) -0.4396(2)
H6 H 0.0640 0.5090 -0.4477
C16 C 0.11524(11) 0.58219(17) -0.3456(2)
C17 C 0.15722(18) 0.7576(2) -0.4041(3)
H7 H 0.1440 0.7915 -0.3755
H8 H 0.1472 0.7749 -0.4682
H9 H 0.1981 0.7528 -0.3614
C18 C 0.03088(15) 0.5606(2) -0.6222(2)
H10 H 0.0532 0.5461 -0.6484
H11 H 0.0034 0.5967 -0.6649
H12 H 0.0112 0.5191 -0.6186
C19 C 0.12394(15) 0.54051(19) -0.2604(2)
H13 H 0.1633 0.5439 -0.2064
H14 H 0.1142 0.4905 -0.2792
H15 H 0.1000 0.5599 -0.2398
C20 C 0.42212(11) 0.63443(16) 0.05896(19)
C21 C 0.45819(12) 0.66090(17) 0.0371(3)
H16 H 0.4505 0.7053 0.0042
C22 C 0.50724(13) 0.62268(18) 0.0629(3)
H17 H 0.5328 0.6423 0.0488
C23 C 0.51840(11) 0.55792(17) 0.1078(2)
C24 C 0.4821(2) 0.5317(3) 0.1264(4)
H18 H 0.4889 0.4861 0.1561
C25 C 0.4342(2) 0.5692(3) 0.1035(4)
H19 H 0.4093 0.5492 0.1191
C26 C 0.56854(12) 0.51150(19) 0.1308(3)
H20 H 0.5548 0.4747 0.0793
H21 H 0.5818 0.4863 0.1929
C27 C 0.66662(14) 0.58008(18) 0.2676(2)
H22 H 0.6492 0.6225 0.2766
H23 H 0.6667 0.5409 0.3082
C28 C 0.72679(12) 0.59723(18) 0.2985(2)
H24 H 0.7264 0.6387 0.2607
H25 H 0.7425 0.5561 0.2833
C29 C 0.77212(12) 0.53096(16) 0.4819(2)
C30 C 0.80380(14) 0.47230(18) 0.4887(3)
H26 H 0.8283 0.4756 0.4663
C31 C 0.79977(19) 0.4089(2) 0.5280(4)
H27 H 0.8218 0.3691 0.5328
C32 C 0.76418(19) 0.4028(2) 0.5604(4)
H28 H 0.7618 0.3593 0.5875
C33 C 0.73235(17) 0.4603(2) 0.5530(3)
H29 H 0.7073 0.4564 0.5743
C34 C 0.73638(13) 0.52338(18) 0.5151(3)
H30 H 0.7144 0.5629 0.5113
C35 C 0.84199(12) 0.62319(15) 0.4500(2)
C36 C 0.85110(14) 0.63389(19) 0.3754(2)
H31 H 0.8202 0.6337 0.3094
C37 C 0.90480(15) 0.6448(2) 0.3969(3)
H32 H 0.9106 0.6520 0.3455
C38 C 0.94993(14) 0.64537(18) 0.4921(3)
H33 H 0.9867 0.6528 0.5064
C39 C 0.94170(13) 0.63518(17) 0.5666(3)
H34 H 0.9728 0.6354 0.6324
C40 C 0.88767(12) 0.62456(17) 0.5454(2)
H35 H 0.8821 0.6182 0.5972
S1F S -0.12745(3) 0.94601(5) -0.14103(6)
P1F P -0.27194(3) 0.88264(4) -0.42976(5)
N1F N 0.33172(8) 0.74703(11) 0.11265(15)
N2F N 0.22980(8) 0.80548(12) 0.08526(14)
C1F C 0.37443(10) 0.71141(14) 0.11519(18)
C2F C 0.42469(11) 0.71842(19) 0.2100(2)
H1F H 0.4600 0.6976 0.2313
C3F C 0.41268(11) 0.76019(18) 0.2639(2)
H2F H 0.4381 0.7750 0.3294
C4F C 0.35393(10) 0.77783(14) 0.20289(17)
C5F C 0.32479(11) 0.81800(14) 0.23331(17)
C6F C 0.26691(11) 0.83008(14) 0.17853(18)
C7F C 0.23675(12) 0.87195(16) 0.2096(2)
H3F H 0.2523 0.8944 0.2712
C8F C 0.18252(11) 0.87324(15) 0.1351(2)
H4F H 0.1527 0.8968 0.1344
C9F C 0.17798(10) 0.83248(14) 0.05660(18)
C10F C 0.12969(10) 0.82578(14) -0.03708(19)
C11F C 0.35991(11) 0.85085(16) 0.33387(18)
C12F C 0.36937(13) 0.81281(18) 0.4151(2)
C13F C 0.40602(13) 0.8424(2) 0.5078(2)
H5F H 0.4142 0.8161 0.5638
C14F C 0.43060(12) 0.90823(19) 0.5204(2)
C15F C 0.41954(12) 0.94537(18) 0.4396(2)
H6F H 0.4360 0.9910 0.4477
C16F C 0.38476(11) 0.91781(17) 0.3456(2)
C17F C 0.34278(18) 0.7424(2) 0.4041(3)
H7F H 0.3560 0.7085 0.3755
H8F H 0.3528 0.7251 0.4682
H9F H 0.3019 0.7472 0.3614
C18F C 0.46912(15) 0.9394(2) 0.6222(2)
H10F H 0.4468 0.9539 0.6484
H11F H 0.4966 0.9033 0.6649
H12F H 0.4888 0.9809 0.6186
C19F C 0.37606(15) 0.95949(19) 0.2604(2)
H13F H 0.3367 0.9561 0.2064
H14F H 0.3858 1.0095 0.2792
H15F H 0.4000 0.9401 0.2398
C20F C 0.07788(11) 0.86557(16) -0.05896(19)
C21F C 0.04181(12) 0.83910(17) -0.0371(3)
H16F H 0.0495 0.7947 -0.0042
C22F C -0.00724(13) 0.87732(18) -0.0629(3)
H17F H -0.0328 0.8577 -0.0488
C23F C -0.01840(11) 0.94208(17) -0.1078(2)
C24F C 0.0179(2) 0.9683(3) -0.1264(4)
H18F H 0.0111 1.0139 -0.1561
C25F C 0.0658(2) 0.9308(3) -0.1035(4)
H19F H 0.0907 0.9508 -0.1191
C26F C -0.06854(12) 0.98850(19) -0.1308(3)
H20F H -0.0548 1.0253 -0.0793
H21F H -0.0818 1.0137 -0.1929
C27F C -0.16662(14) 0.91992(18) -0.2676(2)
H22F H -0.1492 0.8775 -0.2766
H23F H -0.1667 0.9591 -0.3082
C28F C -0.22679(12) 0.90277(18) -0.2985(2)
H24F H -0.2264 0.8613 -0.2607
H25F H -0.2425 0.9439 -0.2833
C29F C -0.27212(12) 0.96904(16) -0.4819(2)
C30F C -0.30380(14) 1.02770(18) -0.4887(3)
H26F H -0.3283 1.0244 -0.4663
C31F C -0.29977(19) 1.0911(2) -0.5280(4)
H27F H -0.3218 1.1309 -0.5328
C32F C -0.26418(19) 1.0972(2) -0.5604(4)
H28F H -0.2618 1.1407 -0.5875
C33F C -0.23235(17) 1.0397(2) -0.5530(3)
H29F H -0.2073 1.0436 -0.5743
C34F C -0.23638(13) 0.97662(18) -0.5151(3)
H30F H -0.2144 0.9371 -0.5113
C35F C -0.34199(12) 0.87681(15) -0.4500(2)
C36F C -0.35110(14) 0.86611(19) -0.3754(2)
H31F H -0.3202 0.8663 -0.3094
C37F C -0.40480(15) 0.8552(2) -0.3969(3)
H32F H -0.4106 0.8480 -0.3455
C38F C -0.44993(14) 0.85463(18) -0.4921(3)
H33F H -0.4867 0.8472 -0.5064
C39F C -0.44170(13) 0.86482(17) -0.5666(3)
H34F H -0.4728 0.8646 -0.6324
C40F C -0.38767(12) 0.87544(17) -0.5454(2)
H35F H -0.3821 0.8818 -0.5972
Zn1A Zn -0.2500 0.7500 -0.5000
Zn1A_2 Zn 0.7500 0.7500 0.5000
P1A P 0.22806(3) 0.61736(4) 0.07024(5)
P1G P 0.27194(3) 0.88264(4) -0.07024(5)
loop_
_geom_bond_atom_site_label_1
_geom_bond_atom_site_label_2
_geom_bond_site_symmetry_1
_geom_bond_site_symmetry_2
Zn1 N1 1_555 1_555
S1 C26 1_555 1_555
P1 C28 1_555 1_555
N1 C1 1_555 1_555
N2 Zn1 1_555 1_555
C1 C2 1_555 1_555
C2 H1 1_555 1_555
C3 C2 1_555 1_555
H2 C3 1_555 1_555
C4 N1 1_555 1_555
C5 C4 1_555 1_555
C6 N2 1_555 1_555
C7 C6 1_555 1_555
H3 C7 1_555 1_555
C8 C7 1_555 1_555
H4 C8 1_555 1_555
C9 N2 1_555 1_555
C10 C9 1_555 1_555
C11 C5 1_555 1_555
C12 C11 1_555 1_555
C13 C12 1_555 1_555
H5 C13 1_555 1_555
C14 C13 1_555 1_555
C15 C14 1_555 1_555
H6 C15 1_555 1_555
C16 C11 1_555 1_555
C17 C12 1_555 1_555
H7 C17 1_555 1_555
H8 C17 1_555 1_555
H9 C17 1_555 1_555
C18 C14 1_555 1_555
H10 C18 1_555 1_555
H11 C18 1_555 1_555
H12 C18 1_555 1_555
C19 C16 1_555 1_555
H13 C19 1_555 1_555
H14 C19 1_555 1_555
H15 C19 1_555 1_555
C20 C10 1_555 1_555
C21 C20 1_555 1_555
H16 C21 1_555 1_555
C22 C21 1_555 1_555
H17 C22 1_555 1_555
C23 C22 1_555 1_555
C24 C23 1_555 1_555
H18 C24 1_555 1_555
C25 C20 1_555 1_555
H19 C25 1_555 1_555
C26 C23 1_555 1_555
H20 C26 1_555 1_555
H21 C26 1_555 1_555
C27 S1 1_555 1_555
H22 C27 1_555 1_555
H23 C27 1_555 1_555
C28 C27 1_555 1_555
H24 C28 1_555 1_555
H25 C28 1_555 1_555
C29 P1 1_555 1_555
C30 C29 1_555 1_555
H26 C30 1_555 1_555
C31 C30 1_555 1_555
H27 C31 1_555 1_555
C32 C31 1_555 1_555
H28 C32 1_555 1_555
C33 C32 1_555 1_555
H29 C33 1_555 1_555
C34 C29 1_555 1_555
H30 C34 1_555 1_555
C35 P1 1_555 1_555
C36 C35 1_555 1_555
H31 C36 1_555 1_555
C37 C36 1_555 1_555
H32 C37 1_555 1_555
C38 C37 1_555 1_555
H33 C38 1_555 1_555
C39 C38 1_555 1_555
H34 C39 1_555 1_555
C40 C35 1_555 1_555
H35 C40 1_555 1_555
S1F C26F 1_555 1_555
P1F C28F 1_555 1_555
N1F Zn1 1_555 1_555
N2F Zn1 1_555 1_555
C1F C10 1_555 1_555
C2F C1F 1_555 1_555
H1F C2F 1_555 1_555
C3F C2F 1_555 1_555
H2F C3F 1_555 1_555
C4F N1F 1_555 1_555
C5F C4F 1_555 1_555
C6F N2F 1_555 1_555
C7F C6F 1_555 1_555
H3F C7F 1_555 1_555
C8F C7F 1_555 1_555
H4F C8F 1_555 1_555
C9F N2F 1_555 1_555
C10F C1 1_555 1_555
C11F C5F 1_555 1_555
C12F C11F 1_555 1_555
C13F C12F 1_555 1_555
H5F C13F 1_555 1_555
C14F C13F 1_555 1_555
C15F C14F 1_555 1_555
H6F C15F 1_555 1_555
C16F C11F 1_555 1_555
C17F C12F 1_555 1_555
H7F C17F 1_555 1_555
H8F C17F 1_555 1_555
H9F C17F 1_555 1_555
C18F C14F 1_555 1_555
H10F C18F 1_555 1_555
H11F C18F 1_555 1_555
H12F C18F 1_555 1_555
C19F C16F 1_555 1_555
H13F C19F 1_555 1_555
H14F C19F 1_555 1_555
H15F C19F 1_555 1_555
C20F C10F 1_555 1_555
C21F C20F 1_555 1_555
H16F C21F 1_555 1_555
C22F C21F 1_555 1_555
H17F C22F 1_555 1_555
C23F C22F 1_555 1_555
C24F C23F 1_555 1_555
H18F C24F 1_555 1_555
C25F C20F 1_555 1_555
H19F C25F 1_555 1_555
C26F C23F 1_555 1_555
H20F C26F 1_555 1_555
H21F C26F 1_555 1_555
C27F S1F 1_555 1_555
H22F C27F 1_555 1_555
H23F C27F 1_555 1_555
C28F C27F 1_555 1_555
H24F C28F 1_555 1_555
H25F C28F 1_555 1_555
C29F P1F 1_555 1_555
C30F C29F 1_555 1_555
H26F C30F 1_555 1_555
C31F C30F 1_555 1_555
H27F C31F 1_555 1_555
C32F C31F 1_555 1_555
H28F C32F 1_555 1_555
C33F C32F 1_555 1_555
H29F C33F 1_555 1_555
C34F C29F 1_555 1_555
H30F C34F 1_555 1_555
C35F P1F 1_555 1_555
C36F C35F 1_555 1_555
H31F C36F 1_555 1_555
C37F C36F 1_555 1_555
H32F C37F 1_555 1_555
C38F C37F 1_555 1_555
H33F C38F 1_555 1_555
C39F C38F 1_555 1_555
H34F C39F 1_555 1_555
C40F C35F 1_555 1_555
H35F C40F 1_555 1_555
Zn1A P1F 1_555 1_555
Zn1A_2 P1 1_555 1_555
P1A Zn1 1_555 1_555
P1G Zn1 1_555 1_555
C3 C4 1_555 1_555
C5 C6 1_555 1_555
C8 C9 1_555 1_555
C15 C16 1_555 1_555
C24 C25 1_555 1_555
C33 C34 1_555 1_555
C39 C40 1_555 1_555
N1F C1F 1_555 1_555
C3F C4F 1_555 1_555
C5F C6F 1_555 1_555
C8F C9F 1_555 1_555
C9F C10F 1_555 1_555
C15F C16F 1_555 1_555
C24F C25F 1_555 1_555
C33F C34F 1_555 1_555
C39F C40F 1_555 1_555

#END
