
#######################################################################
#
#                 Cambridge Crystallographic Data Centre
#                                CCDC 
#
#######################################################################
#
# If this CIF has been generated from an entry in the Cambridge 
# Structural Database, then it will include bibliographic, chemical, 
# crystal, experimental, refinement or atomic coordinate data resulting 
# from the CCDC's data processing and validation procedures.
#
#######################################################################

data_ZUCXOK
_symmetry_cell_setting           rhombohedral
_symmetry_space_group_name_H-M   'R -3'
_symmetry_Int_Tables_number      148
_space_group_name_Hall           '-R 3'
loop_
_symmetry_equiv_pos_site_id
_symmetry_equiv_pos_as_xyz
1 x,y,z
2 -y,x-y,z
3 -x+y,-x,z
4 1/3+x,2/3+y,2/3+z
5 1/3-y,2/3+x-y,2/3+z
6 1/3-x+y,2/3-x,2/3+z
7 2/3+x,1/3+y,1/3+z
8 2/3-y,1/3+x-y,1/3+z
9 2/3-x+y,1/3-x,1/3+z
10 -x,-y,-z
11 y,-x+y,-z
12 x-y,x,-z
13 2/3-x,1/3-y,1/3-z
14 2/3+y,1/3-x+y,1/3-z
15 2/3+x-y,1/3+x,1/3-z
16 1/3-x,2/3-y,2/3-z
17 1/3+y,2/3-x+y,2/3-z
18 1/3+x-y,2/3+x,2/3-z
_cell_length_a                   8.685(1)
_cell_length_b                   8.685(1)
_cell_length_c                   18.491(4)
_cell_angle_alpha                90
_cell_angle_beta                 90
_cell_angle_gamma                120
_cell_volume                     1207.9
loop_
_atom_site_label
_atom_site_type_symbol
_atom_site_fract_x
_atom_site_fract_y
_atom_site_fract_z
Mn1 Mn 0.3333 -0.3333 -0.1657(1)
Mn2 Mn 0.0000 0.0000 0.0000
O1 O 0.1284(3) -0.3344(3) -0.1066(1)
O2 O -0.0115(3) -0.1875(3) -0.0797(1)
C1 C -0.0059(4) -0.3309(3) -0.0874(2)
C2 C -0.1751(4) -0.5038(4) -0.0753(2)
C3 C -0.3374(4) -0.5081(4) -0.0749(2)
H1 H -0.3402(4) -0.4025(4) -0.0744(2)
C2A C -0.4962(4) -0.6713(6) -0.0753(2)
C1A C -0.6691(3) -0.6750(5) -0.0874(2)
O1A O -0.6656(3) -0.5372(4) -0.1066(1)
O2A O -0.8125(3) -0.8240(4) -0.0797(1)
C3A C -0.4919(4) -0.8293(6) -0.0749(2)
C2B C -0.3287(6) -0.8249(4) -0.0753(2)
C1B C -0.3250(5) -0.9941(4) -0.0874(2)
O1B O -0.4628(4) -1.1284(3) -0.1066(1)
O2B O -0.1760(4) -0.9885(3) -0.0797(1)
C3B C -0.1707(6) -0.6626(4) -0.0749(2)
H1B H -0.0623(6) -0.6598(4) -0.0744(2)
H1A H -0.5975(4) -0.9377(6) -0.0744(2)
O1A_2 O 0.3344(3) 0.4628(4) -0.1066(1)
O2A_2 O 0.1875(3) 0.1760(4) -0.0797(1)
C1A_2 C 0.3309(3) 0.3250(5) -0.0874(2)
C2A_2 C 0.5038(4) 0.3287(6) -0.0753(2)
C3A_2 C 0.5081(4) 0.1707(6) -0.0749(2)
H1A_2 H 0.4025(4) 0.0623(6) -0.0744(2)
C2B_2 C 0.6713(6) 0.1751(4) -0.0753(2)
C1B_2 C 0.6750(5) 0.0059(4) -0.0874(2)
O1B_2 O 0.5372(4) -0.1284(3) -0.1066(1)
O2B_2 O 0.8240(4) 0.0115(3) -0.0797(1)
C3B_2 C 0.8293(6) 0.3374(4) -0.0749(2)
C2_2 C 0.8249(4) 0.4962(4) -0.0753(2)
C1_2 C 0.9941(4) 0.6691(3) -0.0874(2)
O1_2 O 1.1284(3) 0.6656(3) -0.1066(1)
O2_2 O 0.9885(3) 0.8125(3) -0.0797(1)
C3_2 C 0.6626(4) 0.4919(4) -0.0749(2)
H1_2 H 0.6598(4) 0.5975(4) -0.0744(2)
H1B_2 H 0.9377(6) 0.3402(4) -0.0744(2)
Mn1A Mn -0.6667 -0.3334 -0.1657(1)
O1A_3 O 0.3344(3) -0.5372(4) -0.1066(1)
O2O O 0.3448(3) -0.1458(3) -0.2536(1)
O2P O 0.1458(3) -0.5093(4) -0.2536(1)
O2Q O 0.5093(4) -0.3448(3) -0.2536(1)
O2B_3 O -0.1760(4) 0.0115(3) -0.0797(1)
O2I O 0.0115(3) 0.1875(3) 0.0797(1)
O2J O -0.1875(3) -0.1760(4) 0.0797(1)
O2K O 0.1760(4) -0.0115(3) 0.0797(1)
Mn1O Mn 0.0000 -0.0000 -0.1676(1)
Mn1O_2 Mn -1.0000 -1.0000 -0.1676(1)
Mn2_2 Mn -1.0000 -1.0000 0.0000
Mn1_2 Mn -0.6667 -1.3333 -0.1657(1)
Mn1O_3 Mn 0.0000 -1.0000 -0.1676(1)
Mn2_3 Mn 0.0000 -1.0000 0.0000
Mn1_3 Mn 0.3333 0.6667 -0.1657(1)
Mn1O_4 Mn 1.0000 -0.0000 -0.1676(1)
Mn2_4 Mn 1.0000 0.0000 0.0000
Mn1_4 Mn 1.3333 0.6667 -0.1657(1)
Mn1O_5 Mn 1.0000 1.0000 -0.1676(1)
Mn2_5 Mn 1.0000 1.0000 0.0000
O1O O 0.2049(3) 0.0011(3) -0.2267(1)
O1P O -0.0011(3) 0.2039(4) -0.2267(1)
O1Q O -0.2039(4) -0.2049(3) -0.2267(1)
loop_
_geom_bond_atom_site_label_1
_geom_bond_atom_site_label_2
_geom_bond_site_symmetry_1
_geom_bond_site_symmetry_2
Mn1 O1 1_555 1_555
Mn2 O2 1_555 1_555
O1 C1 1_555 1_555
O2 C1 1_555 1_555
C1 C2 1_555 1_555
C2 C3 1_555 1_555
C3 H1 1_555 1_555
C2A C3 1_555 1_555
C1A C2A 1_555 1_555
O1A C1A 1_555 1_555
O2A C1A 1_555 1_555
C3A C2A 1_555 1_555
C2B C3A 1_555 1_555
C1B C2B 1_555 1_555
O1B C1B 1_555 1_555
O2B C1B 1_555 1_555
C3B C2 1_555 1_555
H1B C3B 1_555 1_555
H1A C3A 1_555 1_555
O1A_2 C1A_2 1_555 1_555
O2A_2 Mn2 1_555 1_555
C1A_2 O2A_2 1_555 1_555
C2A_2 C1A_2 1_555 1_555
C3A_2 C2A_2 1_555 1_555
H1A_2 C3A_2 1_555 1_555
C2B_2 C3A_2 1_555 1_555
C1B_2 C2B_2 1_555 1_555
O1B_2 Mn1 1_555 1_555
O2B_2 C1B_2 1_555 1_555
C3B_2 C2B_2 1_555 1_555
C2_2 C3B_2 1_555 1_555
C1_2 C2_2 1_555 1_555
O1_2 C1_2 1_555 1_555
O2_2 C1_2 1_555 1_555
C3_2 C2A_2 1_555 1_555
H1_2 C3_2 1_555 1_555
H1B_2 C3B_2 1_555 1_555
Mn1A O1A 1_555 1_555
O1A_3 Mn1 1_555 1_555
O2O Mn1 1_555 1_555
O2P Mn1 1_555 1_555
O2Q Mn1 1_555 1_555
O2B_3 Mn2 1_555 1_555
O2I Mn2 1_555 1_555
O2J Mn2 1_555 1_555
O2K Mn2 1_555 1_555
Mn1O O2 1_555 1_555
Mn1O_2 O2A 1_555 1_555
Mn2_2 O2A 1_555 1_555
Mn1_2 O1B 1_555 1_555
Mn1O_3 O2B 1_555 1_555
Mn2_3 O2B 1_555 1_555
Mn1_3 O1A_2 1_555 1_555
Mn1O_4 O2B_2 1_555 1_555
Mn2_4 O2B_2 1_555 1_555
Mn1_4 O1_2 1_555 1_555
Mn1O_5 O2_2 1_555 1_555
Mn2_5 O2_2 1_555 1_555
O1O Mn1O 1_555 1_555
O1P Mn1O 1_555 1_555
O1Q Mn1O 1_555 1_555
C2B C3B 1_555 1_555
O2A_2 Mn1O 1_555 1_555
C1B_2 O1B_2 1_555 1_555
C2_2 C3_2 1_555 1_555
O2B_3 Mn1O 1_555 1_555

#END
