
#######################################################################
#
#                 Cambridge Crystallographic Data Centre
#                                CCDC 
#
#######################################################################
#
# If this CIF has been generated from an entry in the Cambridge 
# Structural Database, then it will include bibliographic, chemical, 
# crystal, experimental, refinement or atomic coordinate data resulting 
# from the CCDC's data processing and validation procedures.
#
#######################################################################

data_ZUDFUB
_symmetry_cell_setting           monoclinic
_symmetry_space_group_name_H-M   'C 2/c'
_symmetry_Int_Tables_number      15
_space_group_name_Hall           '-C 2yn'
loop_
_symmetry_equiv_pos_site_id
_symmetry_equiv_pos_as_xyz
1 x,y,z
2 -x,y,1/2-z
3 1/2+x,1/2+y,z
4 1/2-x,1/2+y,1/2-z
5 -x,-y,-z
6 x,-y,1/2+z
7 1/2-x,1/2-y,-z
8 1/2+x,1/2-y,1/2+z
_cell_length_a                   18.215(2)
_cell_length_b                   13.3474(16)
_cell_length_c                   7.6674(9)
_cell_angle_alpha                90
_cell_angle_beta                 93.3820(10)
_cell_angle_gamma                90
_cell_volume                     1860.87
loop_
_atom_site_label
_atom_site_type_symbol
_atom_site_fract_x
_atom_site_fract_y
_atom_site_fract_z
Ca1 Ca 0.5000 0.46476(7) 0.2500
O1 O 0.44483(13) 0.57376(19) 0.4662(3)
O2 O 0.38189(14) 0.58131(19) 0.2113(3)
O3 O 0.58634(15) 0.3524(2) 0.1319(3)
H1 H 0.5751 0.2945 0.1542
H2 H 0.5859 0.3598 0.0256
N1 N 0.24799(16) 0.5998(2) 0.3675(4)
N2 N 0.21565(17) 0.6865(2) 0.3170(4)
N3 N 0.15281(17) 0.6663(2) 0.2321(4)
C1 C 0.38507(18) 0.5853(2) 0.3731(4)
C2 C 0.31672(19) 0.6010(3) 0.4732(5)
H3 H 0.3149 0.5490 0.5613
H4 H 0.3210 0.6648 0.5334
C3 C 0.20545(19) 0.5204(3) 0.3148(5)
C4 C 0.2129(2) 0.4164(3) 0.3356(5)
H5 H 0.2539 0.3878 0.3940
C5 C 0.1556(2) 0.3592(3) 0.2640(6)
H6 H 0.1579 0.2898 0.2737
C6 C 0.0936(2) 0.4036(3) 0.1766(6)
H7 H 0.0562 0.3622 0.1307
C7 C 0.0861(2) 0.5047(3) 0.1564(5)
H8 H 0.0449 0.5327 0.0980
C8 C 0.14391(19) 0.5644(3) 0.2284(5)
O1A O 0.55517(13) 0.57376(19) 0.0338(3)
O2A O 0.61811(14) 0.58131(19) 0.2887(3)
O3A O 0.41366(15) 0.3524(2) 0.3681(3)
H1A H 0.4249 0.2945 0.3458
H2A H 0.4141 0.3598 0.4744
N1A N 0.75201(16) 0.5998(2) 0.1325(4)
N2A N 0.78435(17) 0.6865(2) 0.1830(4)
N3A N 0.84719(17) 0.6663(2) 0.2679(4)
C1A C 0.61493(18) 0.5853(2) 0.1269(4)
C2A C 0.68328(19) 0.6010(3) 0.0268(5)
H3A H 0.6851 0.5490 -0.0613
H4A H 0.6790 0.6648 -0.0334
C3A C 0.79455(19) 0.5204(3) 0.1852(5)
C4A C 0.7871(2) 0.4164(3) 0.1644(5)
H5A H 0.7461 0.3878 0.1060
C5A C 0.8444(2) 0.3592(3) 0.2360(6)
H6A H 0.8421 0.2898 0.2263
C6A C 0.9064(2) 0.4036(3) 0.3234(6)
H7A H 0.9438 0.3622 0.3693
C7A C 0.9139(2) 0.5047(3) 0.3436(5)
H8A H 0.9551 0.5327 0.4020
C8A C 0.85609(19) 0.5644(3) 0.2716(5)
Ca1D Ca 0.5000 0.53524(7) -0.2500
Ca1D_2 Ca 0.5000 0.53524(7) 0.7500
O1D O 0.55517(13) 0.42624(19) 0.5338(3)
O1E O 0.44483(13) 0.42624(19) -0.0338(3)
loop_
_geom_bond_atom_site_label_1
_geom_bond_atom_site_label_2
_geom_bond_site_symmetry_1
_geom_bond_site_symmetry_2
Ca1 O1 1_555 1_555
O1 C1 1_555 1_555
O2 Ca1 1_555 1_555
O3 Ca1 1_555 1_555
H1 O3 1_555 1_555
H2 O3 1_555 1_555
N1 N2 1_555 1_555
N2 N3 1_555 1_555
N3 C8 1_555 1_555
C1 O2 1_555 1_555
C2 N1 1_555 1_555
H3 C2 1_555 1_555
H4 C2 1_555 1_555
C3 N1 1_555 1_555
C4 C3 1_555 1_555
H5 C4 1_555 1_555
C5 C4 1_555 1_555
H6 C5 1_555 1_555
C6 C5 1_555 1_555
H7 C6 1_555 1_555
C7 C6 1_555 1_555
H8 C7 1_555 1_555
C8 C3 1_555 1_555
O1A Ca1 1_555 1_555
O2A Ca1 1_555 1_555
O3A Ca1 1_555 1_555
H1A O3A 1_555 1_555
H2A O3A 1_555 1_555
N1A N2A 1_555 1_555
N2A N3A 1_555 1_555
N3A C8A 1_555 1_555
C1A O1A 1_555 1_555
C2A N1A 1_555 1_555
H3A C2A 1_555 1_555
H4A C2A 1_555 1_555
C3A N1A 1_555 1_555
C4A C3A 1_555 1_555
H5A C4A 1_555 1_555
C5A C4A 1_555 1_555
H6A C5A 1_555 1_555
C6A C5A 1_555 1_555
H7A C6A 1_555 1_555
C7A C6A 1_555 1_555
H8A C7A 1_555 1_555
C8A C3A 1_555 1_555
Ca1D O1A 1_555 1_555
Ca1D_2 O1 1_555 1_555
O1D Ca1 1_555 1_555
O1E Ca1 1_555 1_555
C1 C2 1_555 1_555
C7 C8 1_555 1_555
O2A C1A 1_555 1_555
C1A C2A 1_555 1_555
C7A C8A 1_555 1_555
Ca1D O1E 1_555 1_555
Ca1D_2 O1D 1_555 1_555

#END
