
#######################################################################
#
#                 Cambridge Crystallographic Data Centre
#                                CCDC 
#
#######################################################################
#
# If this CIF has been generated from an entry in the Cambridge 
# Structural Database, then it will include bibliographic, chemical, 
# crystal, experimental, refinement or atomic coordinate data resulting 
# from the CCDC's data processing and validation procedures.
#
#######################################################################

data_ZUDFIP
_symmetry_cell_setting           monoclinic
_symmetry_space_group_name_H-M   'C 2/c'
_symmetry_Int_Tables_number      15
_space_group_name_Hall           '-C 2yn'
loop_
_symmetry_equiv_pos_site_id
_symmetry_equiv_pos_as_xyz
1 x,y,z
2 -x,y,1/2-z
3 1/2+x,1/2+y,z
4 1/2-x,1/2+y,1/2-z
5 -x,-y,-z
6 x,-y,1/2+z
7 1/2-x,1/2-y,-z
8 1/2+x,1/2-y,1/2+z
_cell_length_a                   12.050(6)
_cell_length_b                   4.624(3)
_cell_length_c                   29.967(16)
_cell_angle_alpha                90
_cell_angle_beta                 93.066(6)
_cell_angle_gamma                90
_cell_volume                     1667.35
loop_
_atom_site_label
_atom_site_type_symbol
_atom_site_fract_x
_atom_site_fract_y
_atom_site_fract_z
Na1 Na 0.61125(7) 0.2631(2) 0.51992(3)
O1 O 0.92368(12) -0.2321(4) 0.52119(6)
O2 O 0.78385(12) -0.5238(3) 0.53640(6)
N1 N 0.72748(15) -0.1909(4) 0.60783(6)
N2 N 0.63003(16) -0.0628(5) 0.59458(7)
N3 N 0.55227(16) -0.1567(5) 0.61931(7)
C1 C 0.84525(16) -0.3112(5) 0.54426(7)
C2 C 0.82880(18) -0.1288(5) 0.58547(8)
H1 H 0.8917 -0.1584 0.6065
H2 H 0.8283 0.0735 0.5769
C3 C 0.59925(18) -0.3502(5) 0.64957(8)
C4 C 0.5534(2) -0.5105(6) 0.68384(8)
H3 H 0.4783 -0.4976 0.6894
C5 C 0.6236(2) -0.6861(6) 0.70871(9)
H4 H 0.5955 -0.7958 0.7315
C6 C 0.7378(2) -0.7058(6) 0.70075(9)
H5 H 0.7828 -0.8264 0.7187
C7 C 0.7842(2) -0.5530(5) 0.66738(8)
H6 H 0.8592 -0.5678 0.6619
C8 C 0.71181(18) -0.3728(5) 0.64199(7)
Na1_2 Na 0.61125(7) -0.7369(2) 0.51992(3)
Na1B Na 1.11125(7) -0.2369(2) 0.51992(3)
Na1F Na 0.88875(7) -0.7631(2) 0.48008(3)
Na1F_2 Na 0.88875(7) 0.2369(2) 0.48008(3)
O1B O 0.42368(12) 0.2679(4) 0.52119(6)
O1F O 0.57632(12) -0.2679(4) 0.47881(6)
O1F_2 O 0.57632(12) 0.7321(4) 0.47881(6)
O2_2 O 0.78385(12) 0.4762(3) 0.53640(6)
O2F O 0.71615(12) 0.0238(3) 0.46360(6)
loop_
_geom_bond_atom_site_label_1
_geom_bond_atom_site_label_2
_geom_bond_site_symmetry_1
_geom_bond_site_symmetry_2
Na1 N2 1_555 1_555
O1 C1 1_555 1_555
O2 C1 1_555 1_555
N1 N2 1_555 1_555
N2 N3 1_555 1_555
N3 C3 1_555 1_555
C1 C2 1_555 1_555
C2 N1 1_555 1_555
H1 C2 1_555 1_555
H2 C2 1_555 1_555
C3 C4 1_555 1_555
C4 H3 1_555 1_555
C5 C4 1_555 1_555
H4 C5 1_555 1_555
C6 C5 1_555 1_555
H5 C6 1_555 1_555
C7 C6 1_555 1_555
H6 C7 1_555 1_555
C8 N1 1_555 1_555
Na1_2 O2 1_555 1_555
Na1B O1 1_555 1_555
Na1F O1 1_555 1_555
Na1F_2 O1 1_555 1_555
O1B Na1 1_555 1_555
O1F Na1 1_555 1_555
O1F_2 Na1 1_555 1_555
O2_2 Na1 1_555 1_555
O2F Na1 1_555 1_555
O2 Na1F 1_555 1_555
C3 C8 1_555 1_555
C7 C8 1_555 1_555
Na1_2 O1F 1_555 1_555
Na1F_2 O2_2 1_555 1_555
Na1F_2 O2F 1_555 1_555

#END
