
#######################################################################
#
#                 Cambridge Crystallographic Data Centre
#                                CCDC 
#
#######################################################################
#
# If this CIF has been generated from an entry in the Cambridge 
# Structural Database, then it will include bibliographic, chemical, 
# crystal, experimental, refinement or atomic coordinate data resulting 
# from the CCDC's data processing and validation procedures.
#
#######################################################################

data_ZUDFAH
_symmetry_cell_setting           monoclinic
_symmetry_space_group_name_H-M   'C 2/c'
_symmetry_Int_Tables_number      15
_space_group_name_Hall           '-C 2yn'
loop_
_symmetry_equiv_pos_site_id
_symmetry_equiv_pos_as_xyz
1 x,y,z
2 -x,y,1/2-z
3 1/2+x,1/2+y,z
4 1/2-x,1/2+y,1/2-z
5 -x,-y,-z
6 x,-y,1/2+z
7 1/2-x,1/2-y,-z
8 1/2+x,1/2-y,1/2+z
_cell_length_a                   22.995(4)
_cell_length_b                   5.5880(8)
_cell_length_c                   7.6869(12)
_cell_angle_alpha                90
_cell_angle_beta                 91.833(5)
_cell_angle_gamma                90
_cell_volume                     987.231
loop_
_atom_site_label
_atom_site_type_symbol
_atom_site_fract_x
_atom_site_fract_y
_atom_site_fract_z
Pb1 Pb 0.0000 0.31668(4) 0.7500
O1 O 0.03852(18) 0.2617(10) 0.4492(6)
O2 O 0.07599(17) -0.0607(9) 0.3219(7)
C1 C 0.0802(2) 0.1331(11) 0.4063(7)
C2 C 0.1410(2) 0.2107(10) 0.4533(8)
C3 C 0.1510(2) 0.4318(9) 0.5401(7)
H1 H 0.119(3) 0.522(11) 0.563(8)
C4 C 0.1875(2) 0.0680(9) 0.4133(6)
H2 H 0.180(3) -0.082(12) 0.343(8)
C5 C 0.2062(2) 0.5038(9) 0.5830(7)
H3 H 0.215(3) 0.647(13) 0.631(10)
C6 C 0.2453(2) 0.1385(9) 0.4564(7)
O1F O 0.46148(18) 0.2383(10) 0.5508(6)
O2F O 0.42401(17) 0.5607(9) 0.6781(7)
C1F C 0.4198(2) 0.3669(11) 0.5937(7)
C2F C 0.3590(2) 0.2893(10) 0.5467(8)
C3F C 0.3490(2) 0.0682(9) 0.4599(7)
H1F H 0.381(3) -0.022(11) 0.437(8)
C4F C 0.3125(2) 0.4320(9) 0.5867(6)
H2F H 0.320(3) 0.582(12) 0.657(8)
C5F C 0.2938(2) -0.0038(9) 0.4170(7)
H3F H 0.285(3) -0.147(13) 0.369(10)
C6F C 0.2547(2) 0.3615(9) 0.5436(7)
Pb1B Pb 0.5000 0.81668(4) 0.7500
Pb1D Pb 0.0000 -0.31668(4) 0.2500
Pb1F Pb 0.5000 0.18332(4) 0.2500
O1A O -0.03852(18) 0.2617(10) 1.0508(6)
O2D O -0.07599(17) 0.0607(9) 0.6781(7)
O2E O 0.07599(17) 0.0607(9) 0.8219(7)
loop_
_geom_bond_atom_site_label_1
_geom_bond_atom_site_label_2
_geom_bond_site_symmetry_1
_geom_bond_site_symmetry_2
Pb1 O1 1_555 1_555
O1 C1 1_555 1_555
O2 C1 1_555 1_555
C1 C2 1_555 1_555
C2 C3 1_555 1_555
C3 H1 1_555 1_555
C4 C2 1_555 1_555
H2 C4 1_555 1_555
C5 C3 1_555 1_555
H3 C5 1_555 1_555
C6 C4 1_555 1_555
O1F C1F 1_555 1_555
O2F C1F 1_555 1_555
C1F C2F 1_555 1_555
C2F C3F 1_555 1_555
C3F H1F 1_555 1_555
C4F C2F 1_555 1_555
H2F C4F 1_555 1_555
C5F C6 1_555 1_555
H3F C5F 1_555 1_555
C6F C5 1_555 1_555
Pb1B O2F 1_555 1_555
Pb1D O2 1_555 1_555
Pb1F O1F 1_555 1_555
O1A Pb1 1_555 1_555
O2D Pb1 1_555 1_555
O2E Pb1 1_555 1_555
C6 C6F 1_555 1_555
C3F C5F 1_555 1_555
C4F C6F 1_555 1_555

#END
