
#######################################################################
#
#                 Cambridge Crystallographic Data Centre
#                                CCDC 
#
#######################################################################
#
# If this CIF has been generated from an entry in the Cambridge 
# Structural Database, then it will include bibliographic, chemical, 
# crystal, experimental, refinement or atomic coordinate data resulting 
# from the CCDC's data processing and validation procedures.
#
#######################################################################

data_ZUDGUC
_symmetry_cell_setting           orthorhombic
_symmetry_space_group_name_H-M   'P 21 21 21'
_symmetry_Int_Tables_number      19
_space_group_name_Hall           'P 2ac 2ab'
loop_
_symmetry_equiv_pos_site_id
_symmetry_equiv_pos_as_xyz
1 x,y,z
2 1/2-x,-y,1/2+z
3 -x,1/2+y,1/2-z
4 1/2+x,1/2-y,-z
_cell_length_a                   10.979(4)
_cell_length_b                   14.684(5)
_cell_length_c                   16.958(6)
_cell_angle_alpha                90
_cell_angle_beta                 90
_cell_angle_gamma                90
_cell_volume                     2733.89
loop_
_atom_site_label
_atom_site_type_symbol
_atom_site_fract_x
_atom_site_fract_y
_atom_site_fract_z
Cd1 Cd 0.88555(4) 0.64440(3) 0.76245(3)
C1 C 0.8057(7) 0.9412(5) 0.7784(5)
H1 H 0.7595 0.9246 0.8235
C2 C 0.8823(7) 1.0127(4) 0.7803(4)
H2 H 0.8866 1.0461 0.8282
C3 C 0.9391(7) 0.9969(5) 0.6534(5)
H3 H 0.9845 1.0171 0.6090
C4 C 0.8628(7) 0.9235(5) 0.6439(4)
H4 H 0.8561 0.8950 0.5938
C5 C 0.7961(6) 0.8913(4) 0.7066(4)
C6 C 0.7127(7) 0.8109(5) 0.6971(5)
H5 H 0.6282 0.8333 0.6908
H6 H 0.7350 0.7782 0.6481
C7 C 0.6001(6) 0.6931(4) 0.7681(5)
H7 H 0.5801 0.6726 0.7134
C8 C 0.4946(7) 0.7528(6) 0.7967(7)
H8 H 0.5159 0.7784 0.8489
H9 H 0.4844 0.8044 0.7597
C9 C 0.3753(9) 0.7032(6) 0.8035(7)
H10 H 0.3469 0.6857 0.7503
H11 H 0.3136 0.7444 0.8268
C10 C 0.3865(8) 0.6188(6) 0.8541(6)
H12 H 0.3086 0.5849 0.8534
H13 H 0.4038 0.6367 0.9093
C11 C 0.4904(7) 0.5567(5) 0.8232(6)
H14 H 0.4992 0.5033 0.8584
H15 H 0.4694 0.5342 0.7698
C12 C 0.6101(7) 0.6082(4) 0.8198(4)
H16 H 0.6311 0.6281 0.8745
C13 C 0.7355(8) 0.4730(5) 0.8488(5)
H17 H 0.6568 0.4480 0.8672
H18 H 0.7773 0.4996 0.8951
C14 C 0.8123(6) 0.3953(4) 0.8174(4)
C15 C 0.8445(7) 0.3273(4) 0.8710(5)
H19 H 0.8145 0.3286 0.9235
C16 C 0.9206(7) 0.2581(5) 0.8465(5)
H20 H 0.9410 0.2117 0.8832
C17 C 0.9318(6) 0.3164(4) 0.7212(4)
H21 H 0.9602 0.3126 0.6684
C18 C 0.8544(6) 0.3882(4) 0.7422(4)
H22 H 0.8312 0.4321 0.7039
N1 N 0.9529(5) 1.0411(4) 0.7210(4)
N2 N 0.7160(5) 0.7452(3) 0.7641(4)
H23 H 0.7312 0.7666 0.8128
N3 N 0.7104(5) 0.5479(4) 0.7906(4)
H24 H 0.6985 0.5173 0.7453
N4 N 0.9673(5) 0.2528(4) 0.7734(4)
O1 O 0.9028(5) 0.6717(4) 0.8978(3)
H25 H 0.8750 0.7195 0.9195
H26 H 0.9741 0.6599 0.9143
O2 O 0.8508(5) 0.6070(4) 0.6308(3)
H27 H 0.9042 0.6182 0.5958
H28 H 0.7836 0.5821 0.6187
Cd1B Cd 1.11445(4) 0.14440(3) 0.73755(3)
Cd1B_2 Cd 1.11445(4) 1.14440(3) 0.73755(3)
N1B N 1.0471(5) 0.5411(4) 0.7790(4)
N4B N 1.0327(5) 0.7528(4) 0.7266(4)
C19 C 0.6426(18) 0.4451(10) 0.5685(10)
H29 H 0.6064 0.4597 0.5172
H30 H 0.6004 0.3927 0.5916
H31 H 0.7290 0.4303 0.5615
O3 O 0.6314(8) 0.5207(6) 0.6192(5)
H32 H 0.5630 0.5517 0.6075
N5 N 0.9329(13) 0.8176(9) 0.4464(7)
O4 O 1.0219(13) 0.7719(10) 0.4294(8)
O5 O 0.9236(10) 0.9002(8) 0.4298(8)
O6 O 0.8478(9) 0.7828(6) 0.4852(6)
N6 N 1.1722(8) 0.7041(6) 1.0052(5)
O7 O 1.1446(11) 0.7831(8) 0.9860(7)
O8 O 1.2538(7) 0.6913(5) 1.0554(4)
O9 O 1.1172(7) 0.6432(6) 0.9745(6)
O10 O 0.9812(7) 0.5955(6) 0.4991(5)
H33 H 1.0400 0.5644 0.5176
H34 H 0.9623 0.6423 0.4723
O11 O 1.2013(8) 0.5178(6) 0.5277(6)
H35 H 1.2716 0.5302 0.5457
H36 H 1.2135 0.4612 0.5351
loop_
_geom_bond_atom_site_label_1
_geom_bond_atom_site_label_2
_geom_bond_site_symmetry_1
_geom_bond_site_symmetry_2
Cd1 N2 1_555 1_555
C1 H1 1_555 1_555
C2 C1 1_555 1_555
H2 C2 1_555 1_555
C3 H3 1_555 1_555
C4 C3 1_555 1_555
H4 C4 1_555 1_555
C5 C1 1_555 1_555
C6 C5 1_555 1_555
H5 C6 1_555 1_555
H6 C6 1_555 1_555
C7 H7 1_555 1_555
C8 C7 1_555 1_555
H8 C8 1_555 1_555
H9 C8 1_555 1_555
C9 C8 1_555 1_555
H10 C9 1_555 1_555
H11 C9 1_555 1_555
C10 C9 1_555 1_555
H12 C10 1_555 1_555
H13 C10 1_555 1_555
C11 C10 1_555 1_555
H14 C11 1_555 1_555
H15 C11 1_555 1_555
C12 C7 1_555 1_555
H16 C12 1_555 1_555
C13 H17 1_555 1_555
H18 C13 1_555 1_555
C14 C13 1_555 1_555
C15 C14 1_555 1_555
H19 C15 1_555 1_555
C16 C15 1_555 1_555
H20 C16 1_555 1_555
C17 H21 1_555 1_555
C18 C14 1_555 1_555
H22 C18 1_555 1_555
N1 C2 1_555 1_555
N2 C6 1_555 1_555
H23 N2 1_555 1_555
N3 Cd1 1_555 1_555
H24 N3 1_555 1_555
N4 C16 1_555 1_555
O1 Cd1 1_555 1_555
H25 O1 1_555 1_555
H26 O1 1_555 1_555
O2 Cd1 1_555 1_555
H27 O2 1_555 1_555
H28 O2 1_555 1_555
C19 H29 1_555 1_555
H30 C19 1_555 1_555
H31 C19 1_555 1_555
O3 C19 1_555 1_555
H32 O3 1_555 1_555
N5 O4 1_555 1_555
O5 N5 1_555 1_555
O6 N5 1_555 1_555
N6 O7 1_555 1_555
O8 N6 1_555 1_555
O9 N6 1_555 1_555
O10 H33 1_555 1_555
H34 O10 1_555 1_555
O11 H35 1_555 1_555
H36 O11 1_555 1_555
Cd1B N4 1_555 1_555
Cd1B_2 N1 1_555 1_555
N1B Cd1 1_555 1_555
N4B Cd1 1_555 1_555
C3 N1 1_555 1_555
C4 C5 1_555 1_555
C7 N2 1_555 1_555
C11 C12 1_555 1_555
C12 N3 1_555 1_555
C13 N3 1_555 1_555
C17 C18 1_555 1_555
C17 N4 1_555 1_555

#END
