
#######################################################################
#
#                 Cambridge Crystallographic Data Centre
#                                CCDC 
#
#######################################################################
#
# If this CIF has been generated from an entry in the Cambridge 
# Structural Database, then it will include bibliographic, chemical, 
# crystal, experimental, refinement or atomic coordinate data resulting 
# from the CCDC's data processing and validation procedures.
#
#######################################################################

data_ZUDGAI
_symmetry_cell_setting           monoclinic
_symmetry_space_group_name_H-M   'C 2/c'
_symmetry_Int_Tables_number      15
_space_group_name_Hall           '-C 2yn'
loop_
_symmetry_equiv_pos_site_id
_symmetry_equiv_pos_as_xyz
1 x,y,z
2 -x,y,1/2-z
3 1/2+x,1/2+y,z
4 1/2-x,1/2+y,1/2-z
5 -x,-y,-z
6 x,-y,1/2+z
7 1/2-x,1/2-y,-z
8 1/2+x,1/2-y,1/2+z
_cell_length_a                   18.369(8)
_cell_length_b                   13.412(5)
_cell_length_c                   7.978(3)
_cell_angle_alpha                90
_cell_angle_beta                 92.852(5)
_cell_angle_gamma                90
_cell_volume                     1963.07
loop_
_atom_site_label
_atom_site_type_symbol
_atom_site_fract_x
_atom_site_fract_y
_atom_site_fract_z
Sr1 Sr 0.5000 0.46024(2) 0.2500
O1 O 0.43929(8) 0.57740(12) 0.46616(18)
O2 O 0.37753(8) 0.58036(12) 0.22003(18)
O3 O 0.59071(10) 0.34494(14) 0.1140(2)
H1 H 0.5794 0.2871 0.1364
H2 H 0.5903 0.3523 0.0078
N1 N 0.24458(9) 0.59697(14) 0.3709(2)
N2 N 0.21256(10) 0.68280(15) 0.3173(2)
N3 N 0.15186(11) 0.66195(16) 0.2321(3)
C1 C 0.38082(11) 0.58558(15) 0.3759(3)
C2 C 0.31209(11) 0.59974(19) 0.4727(3)
H3 H 0.3105 0.5480 0.5575
H4 H 0.3153 0.6634 0.5304
C3 C 0.20347(11) 0.51771(17) 0.3178(3)
C4 C 0.21102(15) 0.4147(2) 0.3384(4)
H5 H 0.2509 0.3867 0.3973
C5 C 0.15598(18) 0.3575(2) 0.2661(4)
H6 H 0.1586 0.2886 0.2770
C6 C 0.09550(18) 0.4001(3) 0.1759(4)
H7 H 0.0597 0.3583 0.1286
C7 C 0.08823(15) 0.5006(3) 0.1561(4)
H8 H 0.0483 0.5284 0.0970
C8 C 0.14381(12) 0.55988(19) 0.2293(3)
O1A O 0.56071(8) 0.57740(12) 0.03384(18)
O2A O 0.62247(8) 0.58036(12) 0.27997(18)
O3A O 0.40929(10) 0.34494(14) 0.3860(2)
H1A H 0.4206 0.2871 0.3636
H2A H 0.4097 0.3523 0.4922
N1A N 0.75542(9) 0.59697(14) 0.1291(2)
N2A N 0.78744(10) 0.68280(15) 0.1827(2)
N3A N 0.84814(11) 0.66195(16) 0.2679(3)
C1A C 0.61918(11) 0.58558(15) 0.1241(3)
C2A C 0.68791(11) 0.59974(19) 0.0273(3)
H3A H 0.6895 0.5480 -0.0575
H4A H 0.6847 0.6634 -0.0304
C3A C 0.79653(11) 0.51771(17) 0.1822(3)
C4A C 0.78898(15) 0.4147(2) 0.1616(4)
H5A H 0.7491 0.3867 0.1027
C5A C 0.84402(18) 0.3575(2) 0.2339(4)
H6A H 0.8414 0.2886 0.2230
C6A C 0.90450(18) 0.4001(3) 0.3241(4)
H7A H 0.9403 0.3583 0.3714
C7A C 0.91177(15) 0.5006(3) 0.3439(4)
H8A H 0.9517 0.5284 0.4030
C8A C 0.85619(12) 0.55988(19) 0.2707(3)
Sr1D Sr 0.5000 0.53976(2) -0.2500
Sr1D_2 Sr 0.5000 0.53976(2) 0.7500
O1D O 0.56071(8) 0.42260(12) 0.53384(18)
O1E O 0.43929(8) 0.42260(12) -0.03384(18)
loop_
_geom_bond_atom_site_label_1
_geom_bond_atom_site_label_2
_geom_bond_site_symmetry_1
_geom_bond_site_symmetry_2
Sr1 O1 1_555 1_555
O1 C1 1_555 1_555
O2 Sr1 1_555 1_555
O3 Sr1 1_555 1_555
H1 O3 1_555 1_555
H2 O3 1_555 1_555
N1 N2 1_555 1_555
N2 N3 1_555 1_555
N3 C8 1_555 1_555
C1 O2 1_555 1_555
C2 N1 1_555 1_555
H3 C2 1_555 1_555
H4 C2 1_555 1_555
C3 N1 1_555 1_555
C4 C3 1_555 1_555
H5 C4 1_555 1_555
C5 C4 1_555 1_555
H6 C5 1_555 1_555
C6 C5 1_555 1_555
H7 C6 1_555 1_555
C7 C6 1_555 1_555
H8 C7 1_555 1_555
C8 C3 1_555 1_555
O1A Sr1 1_555 1_555
O2A Sr1 1_555 1_555
O3A Sr1 1_555 1_555
H1A O3A 1_555 1_555
H2A O3A 1_555 1_555
N1A N2A 1_555 1_555
N2A N3A 1_555 1_555
N3A C8A 1_555 1_555
C1A O1A 1_555 1_555
C2A N1A 1_555 1_555
H3A C2A 1_555 1_555
H4A C2A 1_555 1_555
C3A N1A 1_555 1_555
C4A C3A 1_555 1_555
H5A C4A 1_555 1_555
C5A C4A 1_555 1_555
H6A C5A 1_555 1_555
C6A C5A 1_555 1_555
H7A C6A 1_555 1_555
C7A C6A 1_555 1_555
H8A C7A 1_555 1_555
C8A C3A 1_555 1_555
Sr1D O1A 1_555 1_555
Sr1D_2 O1 1_555 1_555
O1D Sr1 1_555 1_555
O1E Sr1 1_555 1_555
C1 C2 1_555 1_555
C7 C8 1_555 1_555
O2A C1A 1_555 1_555
C1A C2A 1_555 1_555
C7A C8A 1_555 1_555
Sr1D O1E 1_555 1_555
Sr1D_2 O1D 1_555 1_555

#END
