
#######################################################################
#
#                 Cambridge Crystallographic Data Centre
#                                CCDC 
#
#######################################################################
#
# If this CIF has been generated from an entry in the Cambridge 
# Structural Database, then it will include bibliographic, chemical, 
# crystal, experimental, refinement or atomic coordinate data resulting 
# from the CCDC's data processing and validation procedures.
#
#######################################################################

data_ZUDGOW
_symmetry_cell_setting           orthorhombic
_symmetry_space_group_name_H-M   'P 21 21 21'
_symmetry_Int_Tables_number      19
_space_group_name_Hall           'P 2ac 2ab'
loop_
_symmetry_equiv_pos_site_id
_symmetry_equiv_pos_as_xyz
1 x,y,z
2 1/2-x,-y,1/2+z
3 -x,1/2+y,1/2-z
4 1/2+x,1/2-y,-z
_cell_length_a                   10.8640(14)
_cell_length_b                   12.6272(15)
_cell_length_c                   19.317(2)
_cell_angle_alpha                90
_cell_angle_beta                 90
_cell_angle_gamma                90
_cell_volume                     2649.94
loop_
_atom_site_label
_atom_site_type_symbol
_atom_site_fract_x
_atom_site_fract_y
_atom_site_fract_z
Cd1 Cd -0.42388(3) -0.96760(3) -0.189866(18)
C1 C -0.5453(5) -1.2155(5) -0.0997(3)
H1 H -0.5412 -1.1696 -0.0622
C2 C -0.6573(5) -1.2614(5) -0.1176(3)
H2 H -0.7283 -1.2467 -0.0925
C3 C -0.6604(5) -1.3293(4) -0.1735(2)
H3 H -0.7350 -1.3604 -0.1854
C4 C -0.4522(4) -1.3076(4) -0.1937(3)
H4 H -0.3826 -1.3236 -0.2196
C5 C -0.4394(5) -1.2378(4) -0.1376(2)
C6 C -0.3133(5) -1.1929(4) -0.1211(3)
H5 H -0.2809 -1.2284 -0.0805
H6 H -0.2582 -1.2074 -0.1594
C7 C -0.1881(4) -1.0307(4) -0.0994(2)
H7 H -0.1425 -1.0438 -0.1423
C8 C -0.1177(5) -1.0845(5) -0.0401(3)
H8 H -0.1093 -1.1593 -0.0505
H9 H -0.1657 -1.0782 0.0021
C9 C 0.0110(6) -1.0374(6) -0.0274(3)
H10 H 0.0633 -1.0527 -0.0669
H11 H 0.0473 -1.0704 0.0130
C10 C 0.0051(6) -0.9175(6) -0.0164(3)
H12 H -0.0376 -0.9022 0.0265
H13 H 0.0878 -0.8891 -0.0130
C11 C -0.0619(5) -0.8652(4) -0.0763(3)
H14 H -0.0140 -0.8749 -0.1182
H15 H -0.0675 -0.7898 -0.0675
C12 C -0.1941(5) -0.9099(4) -0.0883(3)
H16 H -0.2425 -0.8965 -0.0464
C13 C -0.2988(5) -0.7459(4) -0.1283(3)
H17 H -0.2478 -0.7207 -0.0905
H18 H -0.3832 -0.7483 -0.1119
C14 C -0.2902(4) -0.6673(4) -0.1886(3)
C15 C -0.3943(4) -0.6198(4) -0.2160(3)
H19 H -0.4705 -0.6382 -0.1976
C16 C -0.2782(5) -0.5224(5) -0.2944(3)
H20 H -0.2739 -0.4744 -0.3308
C17 C -0.1701(5) -0.5654(5) -0.2688(3)
H21 H -0.0945 -0.5443 -0.2866
C18 C -0.1758(5) -0.6399(5) -0.2165(3)
H22 H -0.1042 -0.6716 -0.2001
C19 C -0.1644(7) -1.1411(8) -0.3732(4)
H23 H -0.2034 -1.1238 -0.4164
H24 H -0.1546 -1.2165 -0.3699
H25 H -0.0851 -1.1077 -0.3711
C20 C -0.2432(5) -1.1022(5) -0.3139(4)
N1 N -0.5595(4) -1.3527(3) -0.21193(19)
N2 N -0.3159(4) -1.0763(3) -0.1080(2)
H26 H -0.3457 -1.0694 -0.0774
N3 N -0.2584(4) -0.8570(3) -0.1479(2)
H27 H -0.1995 -0.8499 -0.1803
N4 N -0.3909(3) -0.5482(3) -0.2679(2)
N5 N -0.5958(5) -0.8548(5) -0.0840(3)
N6 N -0.3031(5) -1.0733(4) -0.2717(3)
O1 O -0.5311(5) -0.9341(4) -0.0782(3)
O2 O -0.6660(5) -0.8251(5) -0.0374(3)
O3 O -0.5924(5) -0.8088(5) -0.1428(3)
Cd1B Cd -0.57612(3) -1.46760(3) -0.310134(18)
Cd1B_2 Cd -0.57612(3) -0.46760(3) -0.310134(18)
N1B N -0.4405(4) -0.8527(3) -0.28807(19)
N4B N -0.6091(3) -1.0482(3) -0.2321(2)
N7 N 0.0123(6) -0.8271(6) -0.2880(3)
O4 O -0.0043(9) -0.7811(8) -0.3456(4)
O5 O 0.0963(6) -0.7936(6) -0.2517(4)
O6 O -0.0622(5) -0.8912(4) -0.2671(3)
O7 O -0.4363(10) -1.0793(7) 0.0442(3)
O8 O -0.646(2) -1.0206(18) 0.0659(6)
loop_
_geom_bond_atom_site_label_1
_geom_bond_atom_site_label_2
_geom_bond_site_symmetry_1
_geom_bond_site_symmetry_2
Cd1 N2 1_555 1_555
C1 H1 1_555 1_555
C2 C1 1_555 1_555
H2 C2 1_555 1_555
C3 C2 1_555 1_555
H3 C3 1_555 1_555
C4 H4 1_555 1_555
C5 C1 1_555 1_555
C6 C5 1_555 1_555
H5 C6 1_555 1_555
H6 C6 1_555 1_555
C7 H7 1_555 1_555
C8 C7 1_555 1_555
H8 C8 1_555 1_555
H9 C8 1_555 1_555
C9 C8 1_555 1_555
H10 C9 1_555 1_555
H11 C9 1_555 1_555
C10 C9 1_555 1_555
H12 C10 1_555 1_555
H13 C10 1_555 1_555
C11 C10 1_555 1_555
H14 C11 1_555 1_555
H15 C11 1_555 1_555
C12 C7 1_555 1_555
H16 C12 1_555 1_555
C13 H17 1_555 1_555
H18 C13 1_555 1_555
C14 C13 1_555 1_555
C15 C14 1_555 1_555
H19 C15 1_555 1_555
C16 H20 1_555 1_555
C17 C16 1_555 1_555
H21 C17 1_555 1_555
C18 C14 1_555 1_555
H22 C18 1_555 1_555
C19 H23 1_555 1_555
H24 C19 1_555 1_555
H25 C19 1_555 1_555
C20 C19 1_555 1_555
N1 C3 1_555 1_555
N2 C6 1_555 1_555
H26 N2 1_555 1_555
N3 Cd1 1_555 1_555
H27 N3 1_555 1_555
N4 C15 1_555 1_555
N5 O1 1_555 1_555
N6 Cd1 1_555 1_555
O1 Cd1 1_555 1_555
O2 N5 1_555 1_555
O3 N5 1_555 1_555
N7 O4 1_555 1_555
O5 N7 1_555 1_555
O6 N7 1_555 1_555
Cd1B N1 1_555 1_555
Cd1B_2 N4 1_555 1_555
N1B Cd1 1_555 1_555
N4B Cd1 1_555 1_555
C4 C5 1_555 1_555
C4 N1 1_555 1_555
C7 N2 1_555 1_555
C11 C12 1_555 1_555
C12 N3 1_555 1_555
C13 N3 1_555 1_555
C16 N4 1_555 1_555
C17 C18 1_555 1_555
C20 N6 1_555 1_555

#END
