
#######################################################################
#
#                 Cambridge Crystallographic Data Centre
#                                CCDC 
#
#######################################################################
#
# If this CIF has been generated from an entry in the Cambridge 
# Structural Database, then it will include bibliographic, chemical, 
# crystal, experimental, refinement or atomic coordinate data resulting 
# from the CCDC's data processing and validation procedures.
#
#######################################################################

data_ZUDHUD
_symmetry_cell_setting           monoclinic
_symmetry_space_group_name_H-M   'P 21/c'
_symmetry_Int_Tables_number      14
_space_group_name_Hall           '-P 2ybc'
loop_
_symmetry_equiv_pos_site_id
_symmetry_equiv_pos_as_xyz
1 x,y,z
2 -x,1/2+y,1/2-z
3 -x,-y,-z
4 x,1/2-y,1/2+z
_cell_length_a                   10.839(2)
_cell_length_b                   15.437(3)
_cell_length_c                   9.3724(19)
_cell_angle_alpha                90
_cell_angle_beta                 92.052(4)
_cell_angle_gamma                90
_cell_volume                     1567.2
loop_
_atom_site_label
_atom_site_type_symbol
_atom_site_fract_x
_atom_site_fract_y
_atom_site_fract_z
Cs1 Cs 1.13530(2) 0.121200(18) 0.44914(3)
Mn1 Mn 0.76338(6) 0.13750(4) 0.54888(7)
N1 N 0.7899(3) 0.2292(2) 0.6899(4)
C1 C 0.7125(4) 0.3035(3) 0.6498(5)
H1 H 0.7471 0.3341 0.5702
H2 H 0.7074 0.3432 0.7295
C2 C 0.5864(4) 0.2689(3) 0.6084(5)
H3 H 0.543 0.2525 0.693
H4 H 0.5384 0.3129 0.5577
N2 N 0.6025(3) 0.1926(2) 0.5158(4)
C3 C 0.8637(4) 0.2335(3) 0.8056(4)
C4 C 0.9478(4) 0.1600(3) 0.8399(4)
C5 C 0.9660(4) 0.0892(3) 0.7463(4)
C6 C 1.0595(4) 0.0288(3) 0.7821(5)
H5 H 1.0738 -0.0171 0.7207
C7 C 1.1299(4) 0.0367(3) 0.9066(5)
H6 H 1.1917 -0.0036 0.9277
C8 C 1.1100(4) 0.1037(3) 1.0006(5)
H7 H 1.1574 0.1085 1.0849
C9 C 1.0186(4) 0.1637(3) 0.9676(5)
H8 H 1.0037 0.2078 1.0323
O1 O 0.8692(3) 0.29976(18) 0.8869(3)
O2 O 0.9021(3) 0.07629(18) 0.6236(3)
C10 C 0.5022(4) 0.1632(3) 0.4445(4)
C11 C 0.5102(4) 0.0831(3) 0.3572(4)
C12 C 0.6113(4) 0.0265(3) 0.3652(5)
C13 C 0.6072(4) -0.0489(3) 0.2828(4)
H9 H 0.6744 -0.0863 0.2867
C14 C 0.5063(4) -0.0691(3) 0.1963(5)
H10 H 0.5044 -0.1206 0.1447
C15 C 0.4066(4) -0.0117(3) 0.1863(5)
H11 H 0.3387 -0.0237 0.1261
C16 C 0.4103(4) 0.0621(3) 0.2659(5)
H12 H 0.3436 0.0999 0.2591
O3 O 0.3988(3) 0.20330(19) 0.4473(3)
O4 O 0.7143(3) 0.03939(18) 0.4460(3)
O5 O 1.2601(3) 0.2540(2) 0.1943(4)
H13 H 1.303(5) 0.258(3) 0.131(6)
H14 H 1.293(5) 0.251(3) 0.266(5)
Cs1_2 Cs 0.13530(2) 0.121200(18) 0.44914(3)
Cs1B Cs 0.86470(2) -0.121200(18) 0.55086(3)
Cs1C Cs 1.13530(2) 0.378800(18) -0.05086(3)
Cs1C_2 Cs 1.13530(2) 0.378800(18) 0.94914(3)
Mn1C Mn 0.76338(6) 0.36250(4) 1.04888(7)
O1C O 0.8692(3) 0.20024(18) 0.3869(3)
O2B O 1.0979(3) -0.07629(18) 0.3764(3)
O3_2 O 1.3988(3) 0.20330(19) 0.4473(3)
O4B O 1.2857(3) -0.03939(18) 0.5540(3)
O5C O 1.2601(3) 0.2460(2) 0.6943(4)
loop_
_geom_bond_atom_site_label_1
_geom_bond_atom_site_label_2
_geom_bond_site_symmetry_1
_geom_bond_site_symmetry_2
Cs1 O2 1_555 1_555
Mn1 N1 1_555 1_555
N1 C1 1_555 1_555
C1 H1 1_555 1_555
H2 C1 1_555 1_555
C2 C1 1_555 1_555
H3 C2 1_555 1_555
H4 C2 1_555 1_555
N2 Mn1 1_555 1_555
C3 N1 1_555 1_555
C4 C3 1_555 1_555
C5 C4 1_555 1_555
C6 C5 1_555 1_555
H5 C6 1_555 1_555
C7 C6 1_555 1_555
H6 C7 1_555 1_555
C8 C7 1_555 1_555
H7 C8 1_555 1_555
C9 C4 1_555 1_555
H8 C9 1_555 1_555
O1 C3 1_555 1_555
O2 Mn1 1_555 1_555
C10 N2 1_555 1_555
C11 C10 1_555 1_555
C12 C11 1_555 1_555
C13 C12 1_555 1_555
H9 C13 1_555 1_555
C14 C13 1_555 1_555
H10 C14 1_555 1_555
C15 C14 1_555 1_555
H11 C15 1_555 1_555
C16 C11 1_555 1_555
H12 C16 1_555 1_555
O3 C10 1_555 1_555
O4 Mn1 1_555 1_555
O5 Cs1 1_555 1_555
H13 O5 1_555 1_555
H14 O5 1_555 1_555
Cs1_2 O3 1_555 1_555
Cs1B O2 1_555 1_555
Cs1C O5 1_555 1_555
Cs1C_2 O1 1_555 1_555
Mn1C O1 1_555 1_555
O1C Cs1 1_555 1_555
O2B Cs1 1_555 1_555
O3_2 Cs1 1_555 1_555
O4B Cs1 1_555 1_555
O5C Cs1 1_555 1_555
Mn1 O1C 1_555 1_555
C2 N2 1_555 1_555
C5 O2 1_555 1_555
C8 C9 1_555 1_555
C12 O4 1_555 1_555
C15 C16 1_555 1_555
O4 Cs1B 1_555 1_555
Cs1B O2B 1_555 1_555
Cs1C_2 O5C 1_555 1_555

#END
