
#######################################################################
#
#                 Cambridge Crystallographic Data Centre
#                                CCDC 
#
#######################################################################
#
# If this CIF has been generated from an entry in the Cambridge 
# Structural Database, then it will include bibliographic, chemical, 
# crystal, experimental, refinement or atomic coordinate data resulting 
# from the CCDC's data processing and validation procedures.
#
#######################################################################

data_ZUDPAR
_symmetry_cell_setting           monoclinic
_symmetry_space_group_name_H-M   'C 2/c'
_symmetry_Int_Tables_number      15
_space_group_name_Hall           '-C 2yn'
loop_
_symmetry_equiv_pos_site_id
_symmetry_equiv_pos_as_xyz
1 x,y,z
2 -x,y,1/2-z
3 1/2+x,1/2+y,z
4 1/2-x,1/2+y,1/2-z
5 -x,-y,-z
6 x,-y,1/2+z
7 1/2-x,1/2-y,-z
8 1/2+x,1/2-y,1/2+z
_cell_length_a                   22.1995(5)
_cell_length_b                   15.3403(5)
_cell_length_c                   16.6948(5)
_cell_angle_alpha                90
_cell_angle_beta                 130.3030(10)
_cell_angle_gamma                90
_cell_volume                     4335.85
loop_
_atom_site_label
_atom_site_type_symbol
_atom_site_fract_x
_atom_site_fract_y
_atom_site_fract_z
Cd1 Cd 0.289507(17) 0.11932(2) 0.67000(2)
Cl1 Cl 0.38585(6) 0.11549(7) 0.86531(9)
O1 O 0.68422(19) 0.5948(2) 0.6685(3)
O2 O 0.69535(17) 0.4987(2) 0.5828(3)
N1 N 0.35219(18) 0.2040(2) 0.6269(3)
N2 N 0.35826(19) 0.0309(2) 0.6369(3)
N3 N 0.24642(19) 0.2649(2) 0.6396(3)
C1 C 0.4043(2) 0.1673(3) 0.6216(3)
C2 C 0.4530(2) 0.2174(3) 0.6148(3)
H1 H 0.4897 0.1905 0.6131
C3 C 0.4467(2) 0.3080(3) 0.6103(3)
C4 C 0.3897(2) 0.3441(3) 0.6123(3)
H2 H 0.3821 0.4042 0.6069
C5 C 0.3447(2) 0.2908(3) 0.6222(3)
C6 C 0.4066(2) 0.0697(3) 0.6249(3)
C7 C 0.4530(2) 0.0215(3) 0.6131(3)
H3 H 0.4863 0.0497 0.6057
C8 C 0.4500(2) -0.0687(3) 0.6122(3)
H4 H 0.4805 -0.1018 0.6035
C9 C 0.4004(3) -0.1084(3) 0.6245(4)
H5 H 0.3969 -0.1688 0.6244
C10 C 0.3562(3) -0.0559(3) 0.6370(4)
H6 H 0.3233 -0.0827 0.6458
C11 C 0.2855(2) 0.3257(3) 0.6302(3)
C12 C 0.2713(2) 0.4136(3) 0.6269(3)
H7 H 0.2990 0.4541 0.6201
C13 C 0.2154(2) 0.4410(3) 0.6339(3)
H8 H 0.2049 0.5000 0.6320
C14 C 0.1758(3) 0.3796(3) 0.6436(4)
H9 H 0.1379 0.3965 0.6484
C15 C 0.1924(3) 0.2928(3) 0.6463(3)
H10 H 0.1652 0.2517 0.6531
C16 C 0.4988(2) 0.3644(3) 0.6066(3)
C17 C 0.5365(2) 0.3318(3) 0.5699(4)
H11 H 0.5262 0.2753 0.5438
C18 C 0.5886(3) 0.3836(3) 0.5727(4)
H12 H 0.6132 0.3616 0.5484
C19 C 0.6047(2) 0.4679(3) 0.6111(3)
C20 C 0.5656(2) 0.5011(3) 0.6445(3)
H13 H 0.5745 0.5583 0.6683
C21 C 0.5142(2) 0.4501(3) 0.6425(3)
H14 H 0.4890 0.4731 0.6655
C22 C 0.6649(3) 0.5236(3) 0.6203(4)
Cd1B Cd 0.789507(17) 0.61932(2) 0.67000(2)
O1B O 0.18422(19) 0.0948(2) 0.6685(3)
O2B O 0.19535(17) -0.0013(2) 0.5828(3)
O3 O 0.6369(2) 0.4184(3) 0.3977(3)
H15 H 0.6603 0.3775 0.3930
H16 H 0.6558 0.4242 0.4616
O4 O 0.2700(3) 0.3379(4) 0.1437(4)
H17 H 0.2246 0.3187 0.1218
H18 H 0.2870 0.3004 0.1236
O5 O 0.5000 0.6747(4) 0.7500
H19 H 0.4590 0.6461 0.7335
H19A H 0.5410 0.6461 0.7665
O6 O 0.4178(3) 0.2371(4) 0.2974(5)
H20 H 0.4533 0.2625 0.2940
H21 H 0.3753 0.2728 0.2528
O7 O 0.6888(13) 0.3201(14) 0.4767(16)
H22 H 0.7290 0.2849 0.5120
H23 H 0.6660 0.3181 0.5038
H24? H 0.5413 0.6454 0.8024
loop_
_geom_bond_atom_site_label_1
_geom_bond_atom_site_label_2
_geom_bond_site_symmetry_1
_geom_bond_site_symmetry_2
Cd1 Cl1 1_555 1_555
O1 C22 1_555 1_555
O2 C22 1_555 1_555
N1 Cd1 1_555 1_555
N2 Cd1 1_555 1_555
N3 Cd1 1_555 1_555
C1 N1 1_555 1_555
C2 C1 1_555 1_555
H1 C2 1_555 1_555
C3 C2 1_555 1_555
C4 C3 1_555 1_555
H2 C4 1_555 1_555
C5 N1 1_555 1_555
C6 N2 1_555 1_555
C7 C6 1_555 1_555
H3 C7 1_555 1_555
C8 C7 1_555 1_555
H4 C8 1_555 1_555
C9 C8 1_555 1_555
H5 C9 1_555 1_555
C10 N2 1_555 1_555
H6 C10 1_555 1_555
C11 N3 1_555 1_555
C12 C11 1_555 1_555
H7 C12 1_555 1_555
C13 C12 1_555 1_555
H8 C13 1_555 1_555
C14 C13 1_555 1_555
H9 C14 1_555 1_555
C15 N3 1_555 1_555
H10 C15 1_555 1_555
C16 C3 1_555 1_555
C17 C16 1_555 1_555
H11 C17 1_555 1_555
C18 C17 1_555 1_555
H12 C18 1_555 1_555
C19 C18 1_555 1_555
C20 C19 1_555 1_555
H13 C20 1_555 1_555
C21 C16 1_555 1_555
H14 C21 1_555 1_555
C22 C19 1_555 1_555
O3 H15 1_555 1_555
H16 O3 1_555 1_555
O4 H17 1_555 1_555
H18 O4 1_555 1_555
O5 H19 1_555 1_555
O6 H20 1_555 1_555
H21 O6 1_555 1_555
O7 H22 1_555 1_555
H23 O7 1_555 1_555
Cd1B O1 1_555 1_555
O1B Cd1 1_555 1_555
O2B Cd1 1_555 1_555
H19A O5 1_555 1_555
O2 Cd1B 1_555 1_555
C1 C6 1_555 1_555
C4 C5 1_555 1_555
C5 C11 1_555 1_555
C9 C10 1_555 1_555
C14 C15 1_555 1_555
C20 C21 1_555 1_555

#END
