
#######################################################################
#
#                 Cambridge Crystallographic Data Centre
#                                CCDC 
#
#######################################################################
#
# If this CIF has been generated from an entry in the Cambridge 
# Structural Database, then it will include bibliographic, chemical, 
# crystal, experimental, refinement or atomic coordinate data resulting 
# from the CCDC's data processing and validation procedures.
#
#######################################################################

data_ZUDPIZ
_symmetry_cell_setting           orthorhombic
_symmetry_space_group_name_H-M   'P c a 21'
_symmetry_Int_Tables_number      29
_space_group_name_Hall           'P 2c -2ac'
loop_
_symmetry_equiv_pos_site_id
_symmetry_equiv_pos_as_xyz
1 x,y,z
2 -x,-y,1/2+z
3 1/2+x,-y,z
4 1/2-x,y,1/2+z
_cell_length_a                   14.424(3)
_cell_length_b                   17.798(4)
_cell_length_c                   17.195(3)
_cell_angle_alpha                90
_cell_angle_beta                 90
_cell_angle_gamma                90
_cell_volume                     4414.27
loop_
_atom_site_label
_atom_site_type_symbol
_atom_site_fract_x
_atom_site_fract_y
_atom_site_fract_z
Mn1 Mn 0.99799(5) 0.83640(4) 0.75170(5)
Mn2 Mn 0.50776(5) 0.32636(4) 1.16425(5)
S1 S 1.00260(8) 0.76437(8) 0.45091(9)
O1 O 0.5417(3) 0.41232(18) 1.0816(2)
O2 O 0.6710(3) 0.39151(18) 1.1489(2)
O3 O 0.1066(2) -0.07291(18) 0.7537(2)
O4 O 0.0012(2) -0.0679(2) 0.8456(3)
O5 O 1.0379(3) 0.7366(2) 0.6760(2)
O6 O 0.9938(3) 0.8354(2) 0.6085(3)
O7 O 1.0081(2) 0.7408(2) 0.2803(2)
O8 O 1.0275(3) 0.6178(2) 0.2818(2)
N1 N 0.9177(3) 0.7603(2) 0.8283(2)
N2 N 0.8449(3) 0.8576(2) 0.7327(2)
N3 N 1.1001(3) 0.7762(2) 0.8317(2)
N4 N 0.4176(3) 0.2480(2) 1.0939(2)
N5 N 0.3515(3) 0.3594(2) 1.1786(2)
N6 N 0.5995(3) 0.2308(2) 1.1166(2)
C1 C 0.8245(3) 0.7570(2) 0.8242(3)
C2 C 0.7746(3) 0.7033(2) 0.8657(3)
H1 H 0.7102 0.7026 0.8627
C3 C 0.8202(4) 0.6507(3) 0.9116(3)
C4 C 0.9178(4) 0.6560(3) 0.9152(3)
H2 H 0.9512 0.6220 0.9451
C5 C 0.9638(4) 0.7116(3) 0.8743(3)
C6 C 0.7834(3) 0.8150(3) 0.7727(3)
C7 C 0.6877(4) 0.8259(2) 0.7651(3)
H3 H 0.6466 0.7953 0.7921
C8 C 0.6547(4) 0.8818(3) 0.7177(3)
H4 H 0.5913 0.8898 0.7123
C9 C 0.7181(4) 0.9265(3) 0.6778(3)
H5 H 0.6979 0.9655 0.6461
C10 C 0.8127(4) 0.9116(3) 0.6863(3)
H6 H 0.8549 0.9406 0.6585
C11 C 1.0654(3) 0.7222(3) 0.8780(3)
C12 C 1.1224(4) 0.6802(3) 0.9266(4)
H7 H 1.0972 0.6431 0.9583
C13 C 1.2156(4) 0.6939(4) 0.9275(4)
H8 H 1.2544 0.6659 0.9595
C14 C 1.2521(4) 0.7501(3) 0.8800(4)
H9 H 1.3151 0.7610 0.8804
C15 C 1.1923(3) 0.7890(3) 0.8325(3)
H10 H 1.2163 0.8257 0.7996
C16 C 0.7707(3) 0.5898(2) 0.9559(3)
C17 C 0.6787(4) 0.5727(3) 0.9415(3)
H11 H 0.6471 0.5975 0.9020
C18 C 0.6333(3) 0.5190(3) 0.9854(3)
H12 H 0.5713 0.5088 0.9750
C19 C 0.6780(4) 0.4798(3) 1.0449(3)
C20 C 0.7712(4) 0.4952(3) 1.0574(3)
H13 H 0.8035 0.4688 1.0953
C21 C 0.8168(3) 0.5493(3) 1.0139(3)
H14 H 0.8791 0.5590 1.0235
C22 C 0.6285(4) 0.4248(3) 1.0956(3)
C23 C 0.3261(4) 0.2577(2) 1.0892(3)
C24 C 0.2693(4) 0.2112(3) 1.0444(3)
H15 H 0.2059 0.2203 1.0413
C25 C 0.3093(3) 0.1501(3) 1.0037(3)
C26 C 0.4055(3) 0.1412(3) 1.0098(3)
H16 H 0.4349 0.1023 0.9833
C27 C 0.4572(4) 0.1906(3) 1.0556(3)
C28 C 0.2873(3) 0.3196(3) 1.1382(3)
C29 C 0.1931(4) 0.3349(3) 1.1433(3)
H17 H 0.1505 0.3072 1.1146
C30 C 0.1636(4) 0.3921(3) 1.1922(3)
H18 H 0.1007 0.4025 1.1975
C31 C 0.2284(4) 0.4335(3) 1.2326(3)
H19 H 0.2101 0.4727 1.2650
C32 C 0.3205(4) 0.4157(3) 1.2242(3)
H20 H 0.3638 0.4441 1.2515
C33 C 0.5592(4) 0.1811(3) 1.0670(3)
C34 C 0.6092(4) 0.1243(3) 1.0324(3)
H21 H 0.5813 0.0924 0.9966
C35 C 0.7018(4) 0.1155(3) 1.0518(4)
H22 H 0.7364 0.0769 1.0297
C36 C 0.7425(4) 0.1642(3) 1.1038(4)
H23 H 0.8042 0.1587 1.1184
C37 C 0.6883(4) 0.2217(3) 1.1336(3)
H24 H 0.7158 0.2557 1.1675
C38 C 0.2510(3) 0.0973(2) 0.9581(3)
C39 C 0.1560(3) 0.0921(3) 0.9711(3)
H25 H 0.1292 0.1209 1.0102
C40 C 0.1000(3) 0.0445(2) 0.9269(3)
H26 H 0.0368 0.0413 0.9371
C41 C 0.1390(3) 0.0018(3) 0.8673(3)
C42 C 0.2349(3) 0.0045(2) 0.8559(3)
H27 H 0.2620 -0.0255 0.8179
C43 C 0.2896(3) 0.0514(3) 0.9003(3)
H28 H 0.3533 0.0525 0.8918
C44 C 0.0784(4) -0.0485(3) 0.8188(3)
C45 C 1.0278(4) 0.7243(3) 0.5392(3)
C46 C 1.0540(4) 0.6497(3) 0.5309(3)
H29 H 1.0690 0.6184 0.5723
C47 C 1.0550(4) 0.6271(3) 0.4525(3)
H30 H 1.0723 0.5793 0.4362
C48 C 1.0280(3) 0.6826(3) 0.4028(3)
C49 C 1.0195(4) 0.7684(3) 0.6118(4)
C50 C 1.0204(4) 0.6806(4) 0.3160(4)
Mn1_2 Mn -0.00201(5) -0.16360(4) 0.75170(5)
Mn2B Mn 1.00776(5) 0.67364(4) 0.16425(5)
O3_2 O 1.1066(2) 0.92709(18) 0.7537(2)
O4_2 O 1.0012(2) 0.9321(2) 0.8456(3)
O7B O 0.5081(2) 0.2592(2) 1.2803(2)
O8B O 0.5275(3) 0.3822(2) 1.2818(2)
O9 O 0.1445(4) 0.6069(2) 0.7223(3)
H31 H 0.0858 0.6023 0.7323
H32 H 0.1504 0.6349 0.6820
O10 O -0.0043(3) 0.4637(3) 0.3209(3)
H33 H 0.0406 0.4874 0.3467
H34 H -0.0217 0.4969 0.2868
O11 O 0.0459(6) 0.9830(4) 0.5984(5)
H35 H -0.0044 1.0080 0.5740
H36 H 0.0815 0.9688 0.5555
O12 O 0.0892(8) 0.8972(7) 0.2715(10)
H37 H 0.0289 0.9364 0.2462
H38 H 0.0877 0.8997 0.3216
loop_
_geom_bond_atom_site_label_1
_geom_bond_atom_site_label_2
_geom_bond_site_symmetry_1
_geom_bond_site_symmetry_2
Mn1 O5 1_555 1_555
Mn2 O1 1_555 1_555
S1 C45 1_555 1_555
O1 C22 1_555 1_555
O2 C22 1_555 1_555
O3 C44 1_555 1_555
O4 C44 1_555 1_555
O5 C49 1_555 1_555
O6 Mn1 1_555 1_555
O7 C50 1_555 1_555
O8 C50 1_555 1_555
N1 Mn1 1_555 1_555
N2 Mn1 1_555 1_555
N3 Mn1 1_555 1_555
N4 Mn2 1_555 1_555
N5 Mn2 1_555 1_555
N6 Mn2 1_555 1_555
C1 N1 1_555 1_555
C2 C1 1_555 1_555
H1 C2 1_555 1_555
C3 C2 1_555 1_555
C4 C3 1_555 1_555
H2 C4 1_555 1_555
C5 N1 1_555 1_555
C6 N2 1_555 1_555
C7 C6 1_555 1_555
H3 C7 1_555 1_555
C8 C7 1_555 1_555
H4 C8 1_555 1_555
C9 C8 1_555 1_555
H5 C9 1_555 1_555
C10 N2 1_555 1_555
H6 C10 1_555 1_555
C11 N3 1_555 1_555
C12 C11 1_555 1_555
H7 C12 1_555 1_555
C13 C12 1_555 1_555
H8 C13 1_555 1_555
C14 C13 1_555 1_555
H9 C14 1_555 1_555
C15 N3 1_555 1_555
H10 C15 1_555 1_555
C16 C3 1_555 1_555
C17 C16 1_555 1_555
H11 C17 1_555 1_555
C18 C17 1_555 1_555
H12 C18 1_555 1_555
C19 C18 1_555 1_555
C20 C19 1_555 1_555
H13 C20 1_555 1_555
C21 C16 1_555 1_555
H14 C21 1_555 1_555
C22 C19 1_555 1_555
C23 N4 1_555 1_555
C24 C23 1_555 1_555
H15 C24 1_555 1_555
C25 C24 1_555 1_555
C26 C25 1_555 1_555
H16 C26 1_555 1_555
C27 N4 1_555 1_555
C28 N5 1_555 1_555
C29 C28 1_555 1_555
H17 C29 1_555 1_555
C30 C29 1_555 1_555
H18 C30 1_555 1_555
C31 C30 1_555 1_555
H19 C31 1_555 1_555
C32 N5 1_555 1_555
H20 C32 1_555 1_555
C33 N6 1_555 1_555
C34 C33 1_555 1_555
H21 C34 1_555 1_555
C35 C34 1_555 1_555
H22 C35 1_555 1_555
C36 C35 1_555 1_555
H23 C36 1_555 1_555
C37 N6 1_555 1_555
H24 C37 1_555 1_555
C38 C25 1_555 1_555
C39 C38 1_555 1_555
H25 C39 1_555 1_555
C40 C39 1_555 1_555
H26 C40 1_555 1_555
C41 C40 1_555 1_555
C42 C41 1_555 1_555
H27 C42 1_555 1_555
C43 C38 1_555 1_555
H28 C43 1_555 1_555
C44 C41 1_555 1_555
C45 C46 1_555 1_555
C46 H29 1_555 1_555
C47 C46 1_555 1_555
H30 C47 1_555 1_555
C48 S1 1_555 1_555
C49 O6 1_555 1_555
C50 C48 1_555 1_555
O9 H31 1_555 1_555
H32 O9 1_555 1_555
O10 H33 1_555 1_555
H34 O10 1_555 1_555
O11 H35 1_555 1_555
H36 O11 1_555 1_555
O12 H37 1_555 1_555
H38 O12 1_555 1_555
Mn1_2 O3 1_555 1_555
Mn2B O7 1_555 1_555
O3_2 Mn1 1_555 1_555
O4_2 Mn1 1_555 1_555
O7B Mn2 1_555 1_555
O8B Mn2 1_555 1_555
O4 Mn1_2 1_555 1_555
O8 Mn2B 1_555 1_555
C1 C6 1_555 1_555
C4 C5 1_555 1_555
C5 C11 1_555 1_555
C9 C10 1_555 1_555
C14 C15 1_555 1_555
C20 C21 1_555 1_555
C23 C28 1_555 1_555
C26 C27 1_555 1_555
C27 C33 1_555 1_555
C31 C32 1_555 1_555
C36 C37 1_555 1_555
C42 C43 1_555 1_555
C45 C49 1_555 1_555
C47 C48 1_555 1_555

#END
