
#######################################################################
#
#                 Cambridge Crystallographic Data Centre
#                                CCDC 
#
#######################################################################
#
# If this CIF has been generated from an entry in the Cambridge 
# Structural Database, then it will include bibliographic, chemical, 
# crystal, experimental, refinement or atomic coordinate data resulting 
# from the CCDC's data processing and validation procedures.
#
#######################################################################

data_ZUDPUL
_symmetry_cell_setting           orthorhombic
_symmetry_space_group_name_H-M   'P c a 21'
_symmetry_Int_Tables_number      29
_space_group_name_Hall           'P 2c -2ac'
loop_
_symmetry_equiv_pos_site_id
_symmetry_equiv_pos_as_xyz
1 x,y,z
2 -x,-y,1/2+z
3 1/2+x,-y,z
4 1/2-x,y,1/2+z
_cell_length_a                   18.2988(6)
_cell_length_b                   8.9290(3)
_cell_length_c                   15.5317(8)
_cell_angle_alpha                90
_cell_angle_beta                 90
_cell_angle_gamma                90
_cell_volume                     2537.72
loop_
_atom_site_label
_atom_site_type_symbol
_atom_site_fract_x
_atom_site_fract_y
_atom_site_fract_z
Cd1 Cd 0.424158(13) 0.27667(3) 0.15501(3)
O1 O 0.56415(16) 0.3388(4) 0.1551(4)
O2 O 0.44470(15) 0.0218(3) 0.1588(3)
O3 O 0.8277(2) 0.7705(3) 0.0603(3)
O4 O 0.6689(3) 0.7913(4) -0.2052(3)
C1 C 0.7961(2) 0.6497(5) 0.0791(3)
C2 C 0.7237(2) 0.6147(4) 0.0364(3)
C3 C 0.6259(3) 0.7017(5) -0.1724(3)
C4 C 0.5502(3) 0.3961(5) 0.0847(3)
O5 O 0.48851(18) 0.3844(4) 0.0490(2)
C5 C 0.7068(2) 0.6737(5) -0.0431(3)
H1 H 0.7398 0.7383 -0.0696
C6 C 0.4621(3) -0.2891(5) 0.1643(8)
H2 H 0.4917 -0.2223 0.1307
H3 H 0.4375 -0.3581 0.1268
H4 H 0.4927 -0.3436 0.2036
O6 O 0.56941(18) 0.6544(5) -0.2094(2)
O7 O 0.82217(17) 0.5575(4) 0.1310(2)
C7 C 0.6077(2) 0.4887(5) 0.0386(3)
C8 C 0.5929(3) 0.5445(7) -0.0433(3)
H5 H 0.5496 0.5180 -0.0708
C9 C 0.6421(2) 0.6393(5) -0.0845(3)
C10 C 0.4044(3) -0.0563(5) 0.2039(3)
H6 H 0.3679 -0.0073 0.2346
N1 N 0.4084(3) -0.2034(4) 0.2125(3)
C11 C 0.6743(2) 0.5213(4) 0.0767(3)
H7 H 0.6858 0.4799 0.1300
C12 C 0.3584(4) -0.2858(7) 0.2684(5)
H8 H 0.3260 -0.2167 0.2966
H9 H 0.3858 -0.3399 0.3109
H10 H 0.3303 -0.3550 0.2346
Cd1A Cd 0.575842(13) 0.72333(3) -0.34499(3)
Cd1B Cd 0.924158(13) 0.72333(3) 0.15501(3)
O3B O 0.3277(2) 0.2295(3) 0.0603(3)
O6A O 0.43059(18) 0.3456(5) 0.2906(2)
O7B O 0.32217(17) 0.4425(4) 0.1310(2)
C13 C 0.3662(3) -0.2709(5) -0.1503(3)
H11 H 0.3157 -0.2767 -0.1690
H12 H 0.3966 -0.2780 -0.2013
N2 N 0.3785(2) -0.1190(4) -0.1095(2)
C14 C 0.3794(4) -0.5475(7) -0.1464(5)
H13 H 0.3899 -0.6313 -0.1097
H14 H 0.4151 -0.5426 -0.1916
H15 H 0.3316 -0.5594 -0.1710
C15 C 0.4606(3) -0.0972(5) -0.0977(4)
H16 H 0.4775 -0.1681 -0.0548
H17 H 0.4846 -0.1220 -0.1515
C16 C 0.3468(3) 0.0025(5) -0.1666(3)
H18 H 0.2945 -0.0136 -0.1714
H19 H 0.3540 0.0984 -0.1385
C17 C 0.3819(3) -0.4038(5) -0.0939(4)
H20 H 0.3460 -0.4088 -0.0480
H21 H 0.4298 -0.3928 -0.0679
C18 C 0.3427(3) -0.1099(5) -0.0218(3)
H22 H 0.3671 -0.1805 0.0160
H23 H 0.3513 -0.0105 0.0013
C19 C 0.4848(3) 0.0575(6) -0.0708(4)
H24 H 0.4553 0.0917 -0.0228
H25 H 0.4781 0.1269 -0.1183
C20 C 0.2387(3) -0.1508(6) 0.0739(4)
H26 H 0.1871 -0.1699 0.0769
H27 H 0.2495 -0.0582 0.1026
H28 H 0.2647 -0.2310 0.1015
C21 C 0.3784(3) 0.0113(6) -0.2560(3)
H29 H 0.3682 -0.0808 -0.2869
H30 H 0.4310 0.0235 -0.2526
C22 C 0.3451(3) 0.1426(5) -0.3034(4)
H31 H 0.3651 0.1475 -0.3605
H32 H 0.3561 0.2336 -0.2732
H33 H 0.2931 0.1299 -0.3067
C23 C 0.5643(3) 0.0538(7) -0.0449(5)
H34 H 0.5795 0.1523 -0.0278
H35 H 0.5933 0.0211 -0.0928
H36 H 0.5706 -0.0143 0.0023
C24 C 0.2616(3) -0.1406(6) -0.0180(4)
H37 H 0.2351 -0.0605 -0.0464
H38 H 0.2506 -0.2337 -0.0474
loop_
_geom_bond_atom_site_label_1
_geom_bond_atom_site_label_2
_geom_bond_site_symmetry_1
_geom_bond_site_symmetry_2
Cd1 O1 1_555 1_555
O1 C4 1_555 1_555
O2 Cd1 1_555 1_555
O3 C1 1_555 1_555
O4 C3 1_555 1_555
C1 C2 1_555 1_555
C2 C5 1_555 1_555
C3 O6 1_555 1_555
C4 O5 1_555 1_555
O5 Cd1 1_555 1_555
C5 H1 1_555 1_555
C6 H2 1_555 1_555
H3 C6 1_555 1_555
H4 C6 1_555 1_555
O6 Cd1A 1_555 1_555
O7 C1 1_555 1_555
C7 C4 1_555 1_555
C8 C7 1_555 1_555
H5 C8 1_555 1_555
C9 C3 1_555 1_555
C10 O2 1_555 1_555
H6 C10 1_555 1_555
N1 C6 1_555 1_555
C11 C2 1_555 1_555
H7 C11 1_555 1_555
C12 N1 1_555 1_555
H8 C12 1_555 1_555
H9 C12 1_555 1_555
H10 C12 1_555 1_555
C13 H11 1_555 1_555
H12 C13 1_555 1_555
N2 C13 1_555 1_555
C14 H13 1_555 1_555
H14 C14 1_555 1_555
H15 C14 1_555 1_555
C15 N2 1_555 1_555
H16 C15 1_555 1_555
H17 C15 1_555 1_555
C16 N2 1_555 1_555
H18 C16 1_555 1_555
H19 C16 1_555 1_555
C17 C13 1_555 1_555
H20 C17 1_555 1_555
H21 C17 1_555 1_555
C18 N2 1_555 1_555
H22 C18 1_555 1_555
H23 C18 1_555 1_555
C19 C15 1_555 1_555
H24 C19 1_555 1_555
H25 C19 1_555 1_555
C20 H26 1_555 1_555
H27 C20 1_555 1_555
H28 C20 1_555 1_555
C21 C16 1_555 1_555
H29 C21 1_555 1_555
H30 C21 1_555 1_555
C22 C21 1_555 1_555
H31 C22 1_555 1_555
H32 C22 1_555 1_555
H33 C22 1_555 1_555
C23 C19 1_555 1_555
H34 C23 1_555 1_555
H35 C23 1_555 1_555
H36 C23 1_555 1_555
C24 C18 1_555 1_555
H37 C24 1_555 1_555
H38 C24 1_555 1_555
Cd1B O3 1_555 1_555
O3B Cd1 1_555 1_555
O6A Cd1 1_555 1_555
O7B Cd1 1_555 1_555
C5 C9 1_555 1_555
O7 Cd1B 1_555 1_555
C7 C11 1_555 1_555
C8 C9 1_555 1_555
C10 N1 1_555 1_555
C14 C17 1_555 1_555
C20 C24 1_555 1_555

#END
