
#######################################################################
#
#                 Cambridge Crystallographic Data Centre
#                                CCDC 
#
#######################################################################
#
# If this CIF has been generated from an entry in the Cambridge 
# Structural Database, then it will include bibliographic, chemical, 
# crystal, experimental, refinement or atomic coordinate data resulting 
# from the CCDC's data processing and validation procedures.
#
#######################################################################

data_ZUDPEV
_symmetry_cell_setting           orthorhombic
_symmetry_space_group_name_H-M   'P c a 21'
_symmetry_Int_Tables_number      29
_space_group_name_Hall           'P 2c -2ac'
loop_
_symmetry_equiv_pos_site_id
_symmetry_equiv_pos_as_xyz
1 x,y,z
2 -x,-y,1/2+z
3 1/2+x,-y,z
4 1/2-x,y,1/2+z
_cell_length_a                   14.429(3)
_cell_length_b                   17.916(4)
_cell_length_c                   17.441(4)
_cell_angle_alpha                90
_cell_angle_beta                 90
_cell_angle_gamma                90
_cell_volume                     4508.67
loop_
_atom_site_label
_atom_site_type_symbol
_atom_site_fract_x
_atom_site_fract_y
_atom_site_fract_z
Cd1 Cd 0.50869(4) 0.17135(4) 0.18253(3)
Cd2 Cd 0.49677(4) 0.33750(4) 0.76687(3)
S1 S 0.50488(15) 0.26038(17) 0.4716(2)
O1 O 0.0020(4) 0.5655(4) -0.1341(4)
O2 O 0.1094(4) 0.5698(3) -0.2252(4)
O3 O 0.1642(4) -0.1055(4) 1.1617(4)
O4 O 0.0373(5) -0.0811(4) 1.0941(4)
O5 O 0.5259(5) 0.1175(5) 0.3037(4)
O6 O 0.5150(4) 0.2401(5) 0.3033(5)
O7 O 0.5431(5) 0.2318(4) 0.6909(4)
O8 O 0.4964(4) 0.3298(3) 0.6257(5)
N1 N 0.4147(6) 0.2518(4) 0.1110(4)
N2 N 0.5994(5) 0.2716(5) 0.1298(5)
N3 N 0.3479(4) 0.1408(4) 0.1951(4)
N4 N 0.4160(5) 0.2584(4) 0.8467(4)
N5 N 0.3369(5) 0.3553(4) 0.7506(4)
N6 N 0.5971(5) 0.2752(4) 0.8483(5)
C1 C 0.4553(6) 0.3088(5) 0.0707(5)
C2 C 0.4047(6) 0.3563(5) 0.0272(5)
H1 H 0.4340 0.3948 0.0009
C3 C 0.3105(5) 0.3482(5) 0.0216(5)
C4 C 0.2690(6) 0.2891(5) 0.0627(5)
H2 H 0.2054 0.2811 0.0605
C5 C 0.3254(6) 0.2436(5) 0.1060(5)
C6 C 0.5574(6) 0.3190(5) 0.0829(5)
C7 C 0.6065(6) 0.3756(6) 0.0472(6)
H3 H 0.5772 0.4071 0.0124
C8 C 0.7007(6) 0.3849(7) 0.0641(7)
H4 H 0.7346 0.4230 0.0412
C9 C 0.7424(7) 0.3367(6) 0.1153(7)
H5 H 0.8043 0.3423 0.1288
C10 C 0.6910(6) 0.2816(6) 0.1449(6)
H6 H 0.7198 0.2480 0.1778
C11 C 0.2853(6) 0.1817(5) 0.1549(5)
C12 C 0.1904(6) 0.1677(5) 0.1598(5)
H7 H 0.1486 0.1953 0.1308
C13 C 0.1600(7) 0.1127(5) 0.2079(6)
H8 H 0.0969 0.1040 0.2139
C14 C 0.2236(6) 0.0702(5) 0.2475(5)
H9 H 0.2046 0.0313 0.2792
C15 C 0.3160(6) 0.0871(6) 0.2388(5)
H10 H 0.3588 0.0584 0.2657
C16 C 0.2506(6) 0.4013(4) -0.0235(5)
C17 C 0.2880(6) 0.4450(5) -0.0832(6)
H11 H 0.3510 0.4417 -0.0939
C18 C 0.2341(5) 0.4920(5) -0.1257(6)
H12 H 0.2608 0.5214 -0.1637
C19 C 0.1399(6) 0.4957(5) -0.1121(5)
C20 C 0.1015(6) 0.4546(5) -0.0552(5)
H13 H 0.0383 0.4584 -0.0459
C21 C 0.1561(6) 0.4056(5) -0.0095(5)
H14 H 0.1289 0.3771 0.0290
C22 C 0.0789(6) 0.5465(5) -0.1594(5)
C23 C 0.3211(6) 0.2566(5) 0.8420(5)
C24 C 0.2727(5) 0.2026(5) 0.8843(5)
H15 H 0.2083 0.2015 0.8825
C25 C 0.3184(6) 0.1523(5) 0.9278(5)
C26 C 0.4150(6) 0.1548(5) 0.9320(5)
H16 H 0.4481 0.1208 0.9614
C27 C 0.4595(6) 0.2106(5) 0.8901(5)
C28 C 0.2788(5) 0.3128(5) 0.7915(5)
C29 C 0.1844(6) 0.3236(5) 0.7867(5)
H17 H 0.1448 0.2937 0.8155
C30 C 0.1487(6) 0.3773(5) 0.7403(6)
H18 H 0.0849 0.3844 0.7375
C31 C 0.2083(7) 0.4217(6) 0.6970(6)
H19 H 0.1855 0.4585 0.6645
C32 C 0.3017(6) 0.4093(5) 0.7040(5)
H20 H 0.3425 0.4388 0.6760
C33 C 0.5628(6) 0.2238(6) 0.8939(6)
C34 C 0.6173(7) 0.1815(7) 0.9433(7)
H21 H 0.5912 0.1445 0.9738
C35 C 0.7115(7) 0.1960(8) 0.9456(8)
H22 H 0.7496 0.1690 0.9786
C36 C 0.7484(7) 0.2496(6) 0.9000(8)
H23 H 0.8115 0.2598 0.9014
C37 C 0.6903(6) 0.2891(6) 0.8511(6)
H24 H 0.7153 0.3258 0.8196
C38 C 0.2675(5) 0.0921(5) 0.9732(5)
C39 C 0.1773(6) 0.0732(5) 0.9570(6)
H25 H 0.1467 0.0968 0.9168
C40 C 0.1319(6) 0.0204(5) 0.9990(6)
H26 H 0.0707 0.0087 0.9872
C41 C 0.1757(6) -0.0162(5) 1.0590(5)
C42 C 0.2671(6) -0.0005(5) 1.0733(6)
H27 H 0.2983 -0.0259 1.1120
C43 C 0.3129(6) 0.0527(5) 1.0305(5)
H28 H 0.3752 0.0623 1.0402
C44 C 0.1221(7) -0.0722(6) 1.1079(5)
C45 C 0.5322(6) 0.1820(6) 0.4211(6)
C46 C 0.5606(7) 0.1250(6) 0.4692(6)
H29 H 0.5785 0.0778 0.4527
C47 C 0.5587(7) 0.1480(6) 0.5470(6)
H30 H 0.5752 0.1171 0.5876
C48 C 0.5297(6) 0.2218(6) 0.5564(6)
C49 C 0.5207(7) 0.1823(8) 0.3363(7)
C50 C 0.5213(6) 0.2657(6) 0.6300(6)
Cd1B Cd 0.00869(4) -0.17135(4) 1.18253(3)
Cd2B Cd -0.00323(4) 0.66250(4) -0.23313(3)
O1B O 0.5020(4) 0.4345(4) 0.8659(4)
O2B O 0.6094(4) 0.4302(3) 0.7748(4)
O3B O 0.6642(4) 0.1055(4) 0.1617(4)
O4B O 0.5373(5) 0.0811(4) 0.0941(4)
O9 O 0.4940(6) 0.9629(5) 0.3359(5)
H31 H 0.5451 0.9948 0.3492
H32 H 0.4763 0.9710 0.2900
O10 O 0.6504(7) 0.1051(5) 0.7351(5)
H33 H 0.5912 0.0971 0.7355
H34 H 0.6650 0.1503 0.7289
O11 O 0.5918(14) 0.3925(12) 0.3025(13)
H35 H 0.6522 0.3933 0.2982
H36 H 0.5601 0.4251 0.2730
O12 O 0.4490(16) 0.5250(13) 0.1075(13)
O13? O 0.5245(16) 0.4830(14) 0.1829(17)
loop_
_geom_bond_atom_site_label_1
_geom_bond_atom_site_label_2
_geom_bond_site_symmetry_1
_geom_bond_site_symmetry_2
Cd1 O5 1_555 1_555
Cd2 O7 1_555 1_555
S1 C45 1_555 1_555
O1 C22 1_555 1_555
O2 C22 1_555 1_555
O3 C44 1_555 1_555
O4 C44 1_555 1_555
O5 C49 1_555 1_555
O6 Cd1 1_555 1_555
O7 C50 1_555 1_555
O8 Cd2 1_555 1_555
N1 Cd1 1_555 1_555
N2 Cd1 1_555 1_555
N3 Cd1 1_555 1_555
N4 Cd2 1_555 1_555
N5 Cd2 1_555 1_555
N6 Cd2 1_555 1_555
C1 N1 1_555 1_555
C2 C1 1_555 1_555
H1 C2 1_555 1_555
C3 C2 1_555 1_555
C4 C3 1_555 1_555
H2 C4 1_555 1_555
C5 N1 1_555 1_555
C6 N2 1_555 1_555
C7 C6 1_555 1_555
H3 C7 1_555 1_555
C8 C7 1_555 1_555
H4 C8 1_555 1_555
C9 C8 1_555 1_555
H5 C9 1_555 1_555
C10 N2 1_555 1_555
H6 C10 1_555 1_555
C11 N3 1_555 1_555
C12 C11 1_555 1_555
H7 C12 1_555 1_555
C13 C12 1_555 1_555
H8 C13 1_555 1_555
C14 C13 1_555 1_555
H9 C14 1_555 1_555
C15 N3 1_555 1_555
H10 C15 1_555 1_555
C16 C3 1_555 1_555
C17 C16 1_555 1_555
H11 C17 1_555 1_555
C18 C17 1_555 1_555
H12 C18 1_555 1_555
C19 C18 1_555 1_555
C20 C19 1_555 1_555
H13 C20 1_555 1_555
C21 C16 1_555 1_555
H14 C21 1_555 1_555
C22 C19 1_555 1_555
C23 N4 1_555 1_555
C24 C23 1_555 1_555
H15 C24 1_555 1_555
C25 C24 1_555 1_555
C26 C25 1_555 1_555
H16 C26 1_555 1_555
C27 N4 1_555 1_555
C28 N5 1_555 1_555
C29 C28 1_555 1_555
H17 C29 1_555 1_555
C30 C29 1_555 1_555
H18 C30 1_555 1_555
C31 C30 1_555 1_555
H19 C31 1_555 1_555
C32 N5 1_555 1_555
H20 C32 1_555 1_555
C33 N6 1_555 1_555
C34 C33 1_555 1_555
H21 C34 1_555 1_555
C35 C34 1_555 1_555
H22 C35 1_555 1_555
C36 C35 1_555 1_555
H23 C36 1_555 1_555
C37 N6 1_555 1_555
H24 C37 1_555 1_555
C38 C25 1_555 1_555
C39 C38 1_555 1_555
H25 C39 1_555 1_555
C40 C39 1_555 1_555
H26 C40 1_555 1_555
C41 C40 1_555 1_555
C42 C41 1_555 1_555
H27 C42 1_555 1_555
C43 C38 1_555 1_555
H28 C43 1_555 1_555
C44 C41 1_555 1_555
C45 C46 1_555 1_555
C46 H29 1_555 1_555
C47 C46 1_555 1_555
H30 C47 1_555 1_555
C48 S1 1_555 1_555
C49 O6 1_555 1_555
C50 O8 1_555 1_555
O9 H31 1_555 1_555
H32 O9 1_555 1_555
O10 H33 1_555 1_555
H34 O10 1_555 1_555
O11 H35 1_555 1_555
H36 O11 1_555 1_555
Cd1B O3 1_555 1_555
Cd2B O1 1_555 1_555
O1B Cd2 1_555 1_555
O2B Cd2 1_555 1_555
O3B Cd1 1_555 1_555
O4B Cd1 1_555 1_555
O2 Cd2B 1_555 1_555
O4 Cd1B 1_555 1_555
C1 C6 1_555 1_555
C4 C5 1_555 1_555
C5 C11 1_555 1_555
C9 C10 1_555 1_555
C14 C15 1_555 1_555
C20 C21 1_555 1_555
C23 C28 1_555 1_555
C26 C27 1_555 1_555
C27 C33 1_555 1_555
C31 C32 1_555 1_555
C36 C37 1_555 1_555
C42 C43 1_555 1_555
C45 C49 1_555 1_555
C47 C48 1_555 1_555
C48 C50 1_555 1_555

#END
