
#######################################################################
#
#                 Cambridge Crystallographic Data Centre
#                                CCDC 
#
#######################################################################
#
# If this CIF has been generated from an entry in the Cambridge 
# Structural Database, then it will include bibliographic, chemical, 
# crystal, experimental, refinement or atomic coordinate data resulting 
# from the CCDC's data processing and validation procedures.
#
#######################################################################

data_ZUDQUM
_symmetry_cell_setting           monoclinic
_symmetry_space_group_name_H-M   'C 2/c'
_symmetry_Int_Tables_number      15
_space_group_name_Hall           '-C 2yn'
loop_
_symmetry_equiv_pos_site_id
_symmetry_equiv_pos_as_xyz
1 x,y,z
2 -x,y,1/2-z
3 1/2+x,1/2+y,z
4 1/2-x,1/2+y,1/2-z
5 -x,-y,-z
6 x,-y,1/2+z
7 1/2-x,1/2-y,-z
8 1/2+x,1/2-y,1/2+z
_cell_length_a                   16.0445(9)
_cell_length_b                   11.8985(6)
_cell_length_c                   18.3896(10)
_cell_angle_alpha                90
_cell_angle_beta                 104.452(5)
_cell_angle_gamma                90
_cell_volume                     3399.59
loop_
_atom_site_label
_atom_site_type_symbol
_atom_site_fract_x
_atom_site_fract_y
_atom_site_fract_z
Mn1 Mn 0.14315(5) 0.70904(6) 0.43777(4)
O1 O -0.0155(2) 0.7062(3) 0.1508(2)
O2 O 0.3284(3) 0.3325(4) 0.1412(2)
O3 O 0.2131(3) 0.5893(3) 0.3900(2)
C1 C 0.2129(3) 0.4498(4) 0.1514(3)
O4 O 0.3401(2) 0.5907(4) 0.3621(2)
C2 C 0.0949(3) 0.5703(4) 0.1572(3)
O5 O 0.2164(2) 0.3382(3) 0.0458(2)
O6 O -0.0378(2) 0.5771(3) 0.0634(2)
C3 C 0.2161(3) 0.5539(4) 0.2646(3)
C4 C 0.1327(3) 0.4942(4) 0.1185(3)
H1 H 0.1041 0.4728 0.0701
C5 C 0.2593(4) 0.5812(4) 0.3453(3)
O7 O 0.0864(3) 0.8330(5) 0.4970(3)
H2 H 0.1187 0.8442 0.5386
C6 C 0.2551(3) 0.3684(4) 0.1096(3)
C7 C 0.2549(3) 0.4820(4) 0.2239(3)
H3 H 0.3099 0.4548 0.2454
C8 C 0.0087(3) 0.6206(5) 0.1211(3)
C9 C 0.1357(3) 0.5983(4) 0.2310(3)
H4 H 0.1091 0.6469 0.2578
Mn1A Mn -0.14315(5) 0.70904(6) 0.06223(4)
Mn1C Mn 0.35685(5) 0.20904(6) 0.06223(4)
Mn1E Mn 0.14315(5) 0.29096(6) -0.06223(4)
O1A O 0.0155(2) 0.7062(3) 0.3492(2)
O2C O 0.1716(3) 0.8325(4) 0.3588(2)
O5E O 0.2164(2) 0.6618(3) 0.5458(2)
O6A O 0.0378(2) 0.5771(3) 0.4366(2)
N1 N 0.1818(3) 0.2450(4) 0.4367(3)
N2 N 0.0615(3) 0.2367(4) 0.3182(3)
C10 C 0.1435(4) 0.2625(7) 0.2990(4)
H5 H 0.1396 0.3352 0.2745
H6 H 0.1549 0.2063 0.2646
C11 C 0.1407(4) 0.1329(6) 0.4301(4)
H7 H 0.1158 0.1201 0.4724
H8 H 0.1833 0.0750 0.4304
C12 C 0.1179(5) 0.3323(6) 0.4392(4)
H9 H 0.1448 0.4058 0.4426
H10 H 0.0957 0.3217 0.4832
C13 C 0.0704(5) 0.1278(6) 0.3568(4)
H11 H 0.0848 0.0705 0.3244
H12 H 0.0162 0.1074 0.3675
C14 C 0.0434(5) 0.3257(7) 0.3675(4)
H13 H -0.0102 0.3096 0.3809
H14 H 0.0373 0.3972 0.3414
C15 C 0.2164(4) 0.2637(6) 0.3701(4)
H15 H 0.2577 0.2053 0.3674
H16 H 0.2459 0.3356 0.3747
C16? C -0.0700(3) 0.8921(5) 0.4059(3)
N3? N 0.0000 0.9032(6) 0.2500
loop_
_geom_bond_atom_site_label_1
_geom_bond_atom_site_label_2
_geom_bond_site_symmetry_1
_geom_bond_site_symmetry_2
Mn1 O3 1_555 1_555
O1 C8 1_555 1_555
O2 C6 1_555 1_555
O3 C5 1_555 1_555
C1 C4 1_555 1_555
O4 C5 1_555 1_555
C2 C4 1_555 1_555
O5 C6 1_555 1_555
O6 C8 1_555 1_555
C3 C5 1_555 1_555
C4 H1 1_555 1_555
O7 Mn1 1_555 1_555
H2 O7 1_555 1_555
C6 C1 1_555 1_555
C7 C1 1_555 1_555
H3 C7 1_555 1_555
C8 C2 1_555 1_555
C9 C2 1_555 1_555
H4 C9 1_555 1_555
N1 C11 1_555 1_555
N2 C10 1_555 1_555
C10 H5 1_555 1_555
H6 C10 1_555 1_555
C11 H7 1_555 1_555
H8 C11 1_555 1_555
C12 N1 1_555 1_555
H9 C12 1_555 1_555
H10 C12 1_555 1_555
C13 N2 1_555 1_555
H11 C13 1_555 1_555
H12 C13 1_555 1_555
C14 N2 1_555 1_555
H13 C14 1_555 1_555
H14 C14 1_555 1_555
C15 N1 1_555 1_555
H15 C15 1_555 1_555
H16 C15 1_555 1_555
Mn1A O1 1_555 1_555
Mn1C O2 1_555 1_555
Mn1E O5 1_555 1_555
O1A Mn1 1_555 1_555
O2C Mn1 1_555 1_555
O5E Mn1 1_555 1_555
O6A Mn1 1_555 1_555
O6 Mn1A 1_555 1_555
C3 C7 1_555 1_555
C3 C9 1_555 1_555
C10 C15 1_555 1_555
C11 C13 1_555 1_555
C12 C14 1_555 1_555

#END
