
#######################################################################
#
#                 Cambridge Crystallographic Data Centre
#                                CCDC 
#
#######################################################################
#
# If this CIF has been generated from an entry in the Cambridge 
# Structural Database, then it will include bibliographic, chemical, 
# crystal, experimental, refinement or atomic coordinate data resulting 
# from the CCDC's data processing and validation procedures.
#
#######################################################################

data_ZUDQIY
_symmetry_cell_setting           monoclinic
_symmetry_space_group_name_H-M   'P 21/a'
_symmetry_Int_Tables_number      14
_space_group_name_Hall           '-P 2yab'
loop_
_symmetry_equiv_pos_site_id
_symmetry_equiv_pos_as_xyz
1 x,y,z
2 1/2-x,1/2+y,-z
3 -x,-y,-z
4 1/2+x,1/2-y,z
_cell_length_a                   12.564(1)
_cell_length_b                   10.212(1)
_cell_length_c                   11.460(1)
_cell_angle_alpha                90
_cell_angle_beta                 104.23(1)
_cell_angle_gamma                90
_cell_volume                     1425.24
loop_
_atom_site_label
_atom_site_type_symbol
_atom_site_fract_x
_atom_site_fract_y
_atom_site_fract_z
Cu1 Cu 0.50000 0.50000 0.00000
O1 O 0.48355(25) 0.33365(31) 0.07286(26)
C1 C 0.40563(36) 0.25341(44) 0.05280(37)
C2 C 0.32828(35) 0.24268(44) -0.06038(35)
C3 C 0.65923(34) 0.67746(41) 0.16085(36)
N1 N 0.70150(31) 0.69341(35) 0.28173(29)
N2 N 0.66607(35) 0.59053(40) 0.33879(33)
N3 N 0.60495(33) 0.51851(39) 0.25922(31)
N4 N 0.59906(30) 0.56846(36) 0.14741(31)
C4 C 0.23427(40) 0.16344(52) -0.07126(37)
N5 N 0.15857(38) 0.09893(52) -0.07680(38)
C5 C 0.60028(42) 0.83419(49) -0.16048(41)
C6 C 0.70286(49) 0.79591(67) -0.20345(46)
H1 H 0.76733(49) 0.81085(67) -0.13976(46)
H2 H 0.69873(49) 0.70495(67) -0.22527(46)
H3 H 0.70653(49) 0.84801(67) -0.27208(46)
C7 C 0.49933(50) 0.80972(59) -0.26268(46)
H4 H 0.49599(50) 0.71875(59) -0.28440(46)
H5 H 0.43460(50) 0.83306(59) -0.23707(46)
H6 H 0.50362(50) 0.86192(59) -0.33104(46)
C8 C 0.60341(49) 0.98060(55) -0.12772(51)
H7 H 0.66676(49) 0.99794(55) -0.06325(51)
H8 H 0.60721(49) 1.03200(55) -0.19672(51)
H9 H 0.53819(49) 1.00315(55) -0.10275(51)
C9 C 0.23136(44) 0.20345(47) -0.36038(40)
C10 C 0.24547(58) 0.22246(55) -0.48787(43)
H10 H 0.20331(58) 0.15763(55) -0.54014(43)
H11 H 0.32161(58) 0.21351(55) -0.48752(43)
H12 H 0.22031(58) 0.30823(55) -0.51612(43)
C11 C 0.11096(45) 0.21945(60) -0.36112(50)
H13 H 0.06849(45) 0.15336(60) -0.41145(50)
H14 H 0.08610(45) 0.30451(60) -0.39180(50)
H15 H 0.10222(45) 0.21061(60) -0.28059(50)
C12 C 0.27700(52) 0.07005(54) -0.31710(48)
H16 H 0.23462(52) 0.00345(54) -0.36681(48)
H17 H 0.27322(52) 0.05764(54) -0.23517(48)
H18 H 0.35209(52) 0.06443(54) -0.32188(48)
Cu1A Cu 0.00000 0.00000 0.00000
O1B O 0.51645(25) 0.66635(31) -0.07286(26)
C1B C 0.59437(36) 0.74659(44) -0.05280(37)
C2B C 0.67172(35) 0.75732(44) 0.06038(35)
N4B N 0.40094(30) 0.43154(36) -0.14741(31)
C3B C 0.34077(34) 0.32254(41) -0.16085(36)
N1B N 0.29850(31) 0.30659(35) -0.28173(29)
N2B N 0.33393(35) 0.40947(40) -0.33879(33)
N3B N 0.39505(33) 0.48149(39) -0.25922(31)
N5A N 0.34143(38) 0.59893(52) 0.07680(38)
N5C N 0.65857(38) 0.40107(52) -0.07680(38)
C9B C 0.76864(44) 0.79655(47) 0.36038(40)
C10B C 0.75453(58) 0.77754(55) 0.48787(43)
H10B H 0.79669(58) 0.84237(55) 0.54014(43)
H11B H 0.67839(58) 0.78649(55) 0.48752(43)
H12B H 0.77969(58) 0.69177(55) 0.51612(43)
C11B C 0.88904(45) 0.78055(60) 0.36112(50)
H13B H 0.93151(45) 0.84664(60) 0.41145(50)
H14B H 0.91390(45) 0.69549(60) 0.39180(50)
H15B H 0.89778(45) 0.78939(60) 0.28059(50)
C12B C 0.72300(52) 0.92995(54) 0.31710(48)
H16B H 0.76538(52) 0.99655(54) 0.36681(48)
H17B H 0.72678(52) 0.94236(54) 0.23517(48)
H18B H 0.64791(52) 0.93557(54) 0.32188(48)
C4B C 0.76573(40) 0.83656(52) 0.07126(37)
N5B N 0.84143(38) 0.90107(52) 0.07680(38)
Cu1A_2 Cu 1.00000 1.00000 0.00000
C5B C 0.39972(42) 0.16581(49) 0.16048(41)
C6B C 0.29714(49) 0.20409(67) 0.20345(46)
H1B H 0.23267(49) 0.18915(67) 0.13976(46)
H2B H 0.30127(49) 0.29505(67) 0.22527(46)
H3B H 0.29347(49) 0.15199(67) 0.27208(46)
C7B C 0.50067(50) 0.19028(59) 0.26268(46)
H4B H 0.50401(50) 0.28125(59) 0.28440(46)
H5B H 0.56540(50) 0.16694(59) 0.23707(46)
H6B H 0.49638(50) 0.13808(59) 0.33104(46)
C8B C 0.39659(49) 0.01940(55) 0.12772(51)
H7B H 0.33324(49) 0.00206(55) 0.06325(51)
H8B H 0.39279(49) -0.03200(55) 0.19672(51)
H9B H 0.46181(49) -0.00315(55) 0.10275(51)
loop_
_geom_bond_atom_site_label_1
_geom_bond_atom_site_label_2
_geom_bond_site_symmetry_1
_geom_bond_site_symmetry_2
Cu1 O1 1_555 1_555
O1 C1 1_555 1_555
C1 C2 1_555 1_555
C2 C4 1_555 1_555
C3 N1 1_555 1_555
N1 N2 1_555 1_555
N2 N3 1_555 1_555
N3 N4 1_555 1_555
N4 Cu1 1_555 1_555
C4 N5 1_555 1_555
N5 Cu1A 1_555 1_555
C5 C6 1_555 1_555
C6 H1 1_555 1_555
H2 C6 1_555 1_555
H3 C6 1_555 1_555
C7 C5 1_555 1_555
H4 C7 1_555 1_555
H5 C7 1_555 1_555
H6 C7 1_555 1_555
C8 C5 1_555 1_555
H7 C8 1_555 1_555
H8 C8 1_555 1_555
H9 C8 1_555 1_555
C9 C10 1_555 1_555
C10 H10 1_555 1_555
H11 C10 1_555 1_555
H12 C10 1_555 1_555
C11 C9 1_555 1_555
H13 C11 1_555 1_555
H14 C11 1_555 1_555
H15 C11 1_555 1_555
C12 C9 1_555 1_555
H16 C12 1_555 1_555
H17 C12 1_555 1_555
H18 C12 1_555 1_555
O1B Cu1 1_555 1_555
C1B C5 1_555 1_555
C2B C3 1_555 1_555
N4B Cu1 1_555 1_555
C3B C2 1_555 1_555
N1B C9 1_555 1_555
N2B N1B 1_555 1_555
N3B N4B 1_555 1_555
N5A Cu1 1_555 1_555
N5C Cu1 1_555 1_555
C9B N1 1_555 1_555
C10B C9B 1_555 1_555
H10B C10B 1_555 1_555
H11B C10B 1_555 1_555
H12B C10B 1_555 1_555
C11B C9B 1_555 1_555
H13B C11B 1_555 1_555
H14B C11B 1_555 1_555
H15B C11B 1_555 1_555
C12B C9B 1_555 1_555
H16B C12B 1_555 1_555
H17B C12B 1_555 1_555
H18B C12B 1_555 1_555
C4B C2B 1_555 1_555
N5B C4B 1_555 1_555
Cu1A_2 N5B 1_555 1_555
C5B C1 1_555 1_555
C6B C5B 1_555 1_555
H1B C6B 1_555 1_555
H2B C6B 1_555 1_555
H3B C6B 1_555 1_555
C7B C5B 1_555 1_555
H4B C7B 1_555 1_555
H5B C7B 1_555 1_555
H6B C7B 1_555 1_555
C8B C5B 1_555 1_555
H7B C8B 1_555 1_555
H8B C8B 1_555 1_555
H9B C8B 1_555 1_555
C3 N4 1_555 1_555
O1B C1B 1_555 1_555
C1B C2B 1_555 1_555
N4B C3B 1_555 1_555
C3B N1B 1_555 1_555
N2B N3B 1_555 1_555

#END
