
#######################################################################
#
#                 Cambridge Crystallographic Data Centre
#                                CCDC 
#
#######################################################################
#
# If this CIF has been generated from an entry in the Cambridge 
# Structural Database, then it will include bibliographic, chemical, 
# crystal, experimental, refinement or atomic coordinate data resulting 
# from the CCDC's data processing and validation procedures.
#
#######################################################################

data_ZUDQEW
_symmetry_cell_setting           triclinic
_symmetry_space_group_name_H-M   'P -1'
_symmetry_Int_Tables_number      2
_space_group_name_Hall           '-P 1'
loop_
_symmetry_equiv_pos_site_id
_symmetry_equiv_pos_as_xyz
1 x,y,z
2 -x,-y,-z
_cell_length_a                   11.5178(5)
_cell_length_b                   12.4126(5)
_cell_length_c                   13.1708(5)
_cell_angle_alpha                94.261(3)
_cell_angle_beta                 92.978(3)
_cell_angle_gamma                93.134(3)
_cell_volume                     1871.99
loop_
_atom_site_label
_atom_site_type_symbol
_atom_site_fract_x
_atom_site_fract_y
_atom_site_fract_z
Cd1 Cd 0.72349(3) 1.04160(3) -0.52494(3)
Cd2 Cd 0.12088(3) 1.46578(3) -0.27340(3)
Cd3 Cd 0.47107(4) 1.68328(3) -0.87852(3)
C1 C 0.4369(4) 1.4528(4) -0.6600(4)
O1 O 0.5733(3) 0.9337(3) -0.6245(3)
N1 N 0.8521(4) 1.1777(3) -0.4464(3)
O2 O 0.2713(3) 1.5687(3) -0.1761(3)
O3 O 0.2128(3) 1.5071(3) -0.4221(3)
N2 N 0.9932(4) 1.3255(3) -0.3529(3)
O4 O 0.6158(4) 1.7695(3) -0.7703(3)
O5 O 0.2817(3) 1.3750(3) -0.3410(3)
O6 O 0.6316(3) 1.1734(3) -0.6485(3)
C2 C 0.2793(4) 1.4314(4) -0.4164(4)
O7 O 0.5217(3) 0.7758(3) -0.0324(3)
O8 O 0.5773(3) 1.1535(3) -0.4942(3)
O9 O 0.7751(4) 0.9091(3) -0.4301(3)
O10 O 0.3278(4) 1.5727(4) -0.9673(3)
C3 C 0.4989(4) 1.2974(4) -0.5784(4)
O11 O 0.5146(3) 1.5093(3) -0.8136(3)
C4 C 0.5027(4) 1.3635(4) -0.6581(4)
H1 H 0.5505 1.3476 -0.7113
C5 C 0.5729(4) 1.2020(4) -0.5750(4)
C6 C 0.4270(4) 1.3217(4) -0.4996(4)
H2 H 0.4250 1.2783 -0.4451
O12 O 0.8401(3) 1.0206(3) -0.6597(3)
O13 O 0.3893(4) 1.6115(3) -0.7384(3)
C7 C 0.3586(4) 1.4088(4) -0.5009(4)
C8 C 0.9476(5) 0.6057(4) -0.2370(4)
C9 C 0.6080(5) 0.7197(5) -0.0428(4)
O14 O 0.6303(3) 0.6482(3) 0.0180(3)
O15 O 0.9736(3) 0.5437(3) -0.1683(3)
C10 C 0.4469(5) 1.5291(4) -0.7425(4)
C11 C 0.6862(4) 0.7361(4) -0.1276(4)
C12 C 0.8275(5) 0.7563(4) -0.2921(4)
H3 H 0.8729 0.7615 -0.3481
C13 C 0.3637(4) 1.4749(4) -0.5811(4)
H4 H 0.3180 1.5343 -0.5822
C14 C 0.6675(5) 0.8146(4) -0.1959(4)
H5 H 0.6072 0.8607 -0.1867
C15 C 0.7786(5) 0.6693(4) -0.1426(4)
H6 H 0.7925 0.6167 -0.0974
O16 O 1.0023(4) 0.6072(4) -0.3151(3)
O17 O 0.1487(4) 1.3515(3) -0.1380(3)
O18 O 0.6411(4) 0.9766(4) -0.3335(4)
N3 N 0.8717(5) 0.9805(4) -0.8252(4)
O19 O 0.3666(4) 1.8376(4) -0.8528(4)
C16 C 0.8495(4) 0.6797(4) -0.2228(4)
C17 C 0.7157(5) 0.9099(5) -0.3532(5)
C18 C 0.7379(5) 0.8249(4) -0.2777(4)
C19 C 0.9688(5) 1.1366(5) -0.4300(6)
H7 H 1.0002 1.1170 -0.4953
H8 H 0.9630 1.0722 -0.3927
C20 C 0.8059(6) 0.9832(5) -0.7463(5)
C21 C 0.8107(5) 1.2119(5) -0.3451(5)
H9 H 0.8084 1.1509 -0.3031
H10 H 0.7324 1.2364 -0.3529
C22 C 0.8914(6) 1.3027(6) -0.2933(5)
H11 H 0.8487 1.3677 -0.2841
H12 H 0.9176 1.2830 -0.2264
C23 C 0.9510(6) 1.3582(5) -0.4517(5)
H13 H 1.0163 1.3685 -0.4943
H14 H 0.9147 1.4266 -0.4421
C24 C 0.8626(6) 1.2730(5) -0.5055(5)
H15 H 0.7873 1.3037 -0.5132
H16 H 0.8875 1.2517 -0.5729
C25 C 1.0512(6) 1.2231(5) -0.3697(6)
H17 H 1.0750 1.1974 -0.3044
H18 H 1.1204 1.2355 -0.4071
C26 C 0.9903(7) 1.0225(8) -0.8206(6)
H19 H 1.0120 1.0532 -0.7527
H20 H 0.9985 1.0775 -0.8677
H21 H 1.0399 0.9652 -0.8382
C27 C 0.8263(9) 0.9280(7) -0.9252(5)
H22 H 0.7475 0.9006 -0.9200
H23 H 0.8735 0.8694 -0.9448
H24 H 0.8286 0.9800 -0.9756
Cd2_2 Cd 1.12088(3) 0.46578(3) -0.27340(3)
Cd2_3 Cd 1.12088(3) 1.46578(3) -0.27340(3)
Cd3_2 Cd 0.47107(4) 0.68328(3) 0.12148(3)
N2_2 N -0.0068(4) 1.3255(3) -0.3529(3)
O7_2 O 0.5217(3) 1.7758(3) -1.0324(3)
O14_2 O 0.6303(3) 1.6482(3) -0.9820(3)
O15_2 O -0.0264(3) 1.5437(3) -0.1683(3)
O16_2 O 0.0023(4) 1.6072(4) -0.3151(3)
loop_
_geom_bond_atom_site_label_1
_geom_bond_atom_site_label_2
_geom_bond_site_symmetry_1
_geom_bond_site_symmetry_2
Cd1 O1 1_555 1_555
Cd2 O2 1_555 1_555
Cd3 O4 1_555 1_555
C1 C4 1_555 1_555
N1 Cd1 1_555 1_555
O3 Cd2 1_555 1_555
N2 C22 1_555 1_555
O5 Cd2 1_555 1_555
O6 Cd1 1_555 1_555
C2 O3 1_555 1_555
O7 C9 1_555 1_555
O8 Cd1 1_555 1_555
O9 Cd1 1_555 1_555
O10 Cd3 1_555 1_555
C3 C4 1_555 1_555
O11 Cd3 1_555 1_555
C4 H1 1_555 1_555
C5 O6 1_555 1_555
C6 C3 1_555 1_555
H2 C6 1_555 1_555
O12 Cd1 1_555 1_555
O13 Cd3 1_555 1_555
C7 C2 1_555 1_555
C8 O15 1_555 1_555
C9 O14 1_555 1_555
O14 Cd3_2 1_555 1_555
O15 Cd2_2 1_555 1_555
C10 C1 1_555 1_555
C11 C9 1_555 1_555
C12 H3 1_555 1_555
C13 C1 1_555 1_555
H4 C13 1_555 1_555
C14 C11 1_555 1_555
H5 C14 1_555 1_555
C15 C11 1_555 1_555
H6 C15 1_555 1_555
O16 C8 1_555 1_555
O17 Cd2 1_555 1_555
O18 C17 1_555 1_555
N3 C20 1_555 1_555
O19 Cd3 1_555 1_555
C16 C8 1_555 1_555
C17 O9 1_555 1_555
C18 C12 1_555 1_555
C19 N1 1_555 1_555
H7 C19 1_555 1_555
H8 C19 1_555 1_555
C20 O12 1_555 1_555
C21 N1 1_555 1_555
H9 C21 1_555 1_555
H10 C21 1_555 1_555
C22 C21 1_555 1_555
H11 C22 1_555 1_555
H12 C22 1_555 1_555
C23 N2 1_555 1_555
H13 C23 1_555 1_555
H14 C23 1_555 1_555
C24 N1 1_555 1_555
H15 C24 1_555 1_555
H16 C24 1_555 1_555
C25 N2 1_555 1_555
H17 C25 1_555 1_555
H18 C25 1_555 1_555
C26 N3 1_555 1_555
H19 C26 1_555 1_555
H20 C26 1_555 1_555
H21 C26 1_555 1_555
C27 N3 1_555 1_555
H22 C27 1_555 1_555
H23 C27 1_555 1_555
H24 C27 1_555 1_555
Cd2_2 O16 1_555 1_555
Cd2_3 N2 1_555 1_555
Cd3_2 O7 1_555 1_555
N2_2 Cd2 1_555 1_555
O7_2 Cd3 1_555 1_555
O14_2 Cd3 1_555 1_555
O15_2 Cd2 1_555 1_555
O16_2 Cd2 1_555 1_555
O5 C2 1_555 1_555
O8 C5 1_555 1_555
C3 C5 1_555 1_555
O11 C10 1_555 1_555
C6 C7 1_555 1_555
O13 C10 1_555 1_555
C7 C13 1_555 1_555
C12 C16 1_555 1_555
C14 C18 1_555 1_555
C15 C16 1_555 1_555
C17 C18 1_555 1_555
C19 C25 1_555 1_555
C23 C24 1_555 1_555

#END
