
#######################################################################
#
#                 Cambridge Crystallographic Data Centre
#                                CCDC 
#
#######################################################################
#
# If this CIF has been generated from an entry in the Cambridge 
# Structural Database, then it will include bibliographic, chemical, 
# crystal, experimental, refinement or atomic coordinate data resulting 
# from the CCDC's data processing and validation procedures.
#
#######################################################################

data_ZUDQIA
_symmetry_cell_setting           orthorhombic
_symmetry_space_group_name_H-M   'P n m a'
_symmetry_Int_Tables_number      62
_space_group_name_Hall           '-P 2ac 2n'
loop_
_symmetry_equiv_pos_site_id
_symmetry_equiv_pos_as_xyz
1 x,y,z
2 1/2-x,-y,1/2+z
3 -x,1/2+y,-z
4 1/2+x,1/2-y,1/2-z
5 -x,-y,-z
6 1/2+x,y,1/2-z
7 x,1/2-y,z
8 1/2-x,1/2+y,1/2+z
_cell_length_a                   16.8094(7)
_cell_length_b                   14.4553(7)
_cell_length_c                   10.4397(3)
_cell_angle_alpha                90
_cell_angle_beta                 90
_cell_angle_gamma                90
_cell_volume                     2536.69
loop_
_atom_site_label
_atom_site_type_symbol
_atom_site_fract_x
_atom_site_fract_y
_atom_site_fract_z
Cd1 Cd 0.41164(3) 0.2500 0.04604(5)
C1 C 0.5948(5) 0.2500 0.4240(8)
C2 C 0.4660(4) 0.2500 0.5205(7)
C3 C 0.5824(5) 0.2500 0.6527(8)
C4 C 0.6290(5) 0.2500 0.5461(7)
O1 O 0.4013(3) 0.2500 0.2738(5)
O2 O 0.5197(3) 0.2500 0.1845(5)
C5 C 0.7186(5) 0.2500 0.5588(7)
N1 N 0.3821(3) 0.0943(4) 0.0380(5)
C6 C 0.4748(4) 0.2500 0.2823(7)
O3 O 0.7624(3) 0.2500 0.4718(5)
C7 C 0.5135(4) 0.2500 0.4122(7)
C8 C 0.4486(5) 0.2500 0.7581(8)
C9 C 0.4004(5) 0.0394(6) -0.0566(9)
H1 H 0.4397 0.0589 -0.1133
O4 O 0.4821(3) 0.2500 0.8651(5)
O5 O 0.3755(4) 0.2500 0.7420(7)
C10 C 0.4999(4) 0.2500 0.6411(7)
O6 O 0.7407(4) 0.2500 0.6757(7)
C11 C 0.3144(6) -0.2500 -0.0013(10)
H2 H 0.3597 -0.2500 -0.0588
H3 H 0.3342 -0.2500 0.0860
C12 C 0.3086(4) -0.0766(5) -0.0009(8)
C13 C 0.2640(6) -0.1639(5) -0.0244(10)
H4 H 0.2451 -0.1644 -0.1121
H5 H 0.2180 -0.1658 0.0315
C14 C 0.3666(7) -0.0429(6) -0.0779(10)
H6 H 0.3834 -0.0779 -0.1475
C15 C 0.2925(7) -0.0220(7) 0.1025(10)
H7 H 0.2557 -0.0419 0.1632
C16 C 0.3292(7) 0.0606(6) 0.1180(9)
H8 H 0.395(7) 0.2500 0.523(11)
H9 H 0.628(4) 0.2500 0.349(6)
H10 H 0.612(5) 0.2500 0.740(9)
H11 H 0.331(5) 0.085(6) 0.203(8)
N1F N 0.3821(3) -0.5943(4) 0.0380(5)
C9F C 0.4004(5) -0.5394(6) -0.0566(9)
H1F H 0.4397 -0.5589 -0.1133
C12F C 0.3086(4) -0.4234(5) -0.0009(8)
C13F C 0.2640(6) -0.3361(5) -0.0244(10)
H4F H 0.2451 -0.3356 -0.1121
H5F H 0.2180 -0.3342 0.0315
C14F C 0.3666(7) -0.4571(6) -0.0779(10)
H6F H 0.3834 -0.4221 -0.1475
C15F C 0.2925(7) -0.4780(7) 0.1025(10)
H7F H 0.2557 -0.4581 0.1632
C16F C 0.3292(7) -0.5606(6) 0.1180(9)
H11F H 0.331(5) -0.585(6) 0.203(8)
Cd1_2 Cd 0.41164(3) -0.7500 0.04604(5)
Cd1_3 Cd 0.41164(3) 0.2500 1.04604(5)
Cd1C Cd 0.91164(3) 0.2500 0.45396(5)
N1F_2 N 0.3821(3) 0.4057(4) 0.0380(5)
O3C O 0.2624(3) 0.2500 0.0282(5)
O4_2 O 0.4821(3) 0.2500 -0.1349(5)
C17 C 0.4210(10) 0.0098(15) 0.6208(15)
N2 N 0.466(3) -0.002(3) 0.499(6)
C18 C 0.445(3) 0.010(2) 0.370(3)
loop_
_geom_bond_atom_site_label_1
_geom_bond_atom_site_label_2
_geom_bond_site_symmetry_1
_geom_bond_site_symmetry_2
Cd1 O1 1_555 1_555
C1 C4 1_555 1_555
C2 C7 1_555 1_555
C3 C4 1_555 1_555
C4 C5 1_555 1_555
O1 C6 1_555 1_555
O2 Cd1 1_555 1_555
C5 O3 1_555 1_555
N1 Cd1 1_555 1_555
C6 O2 1_555 1_555
O3 Cd1C 1_555 1_555
C7 C1 1_555 1_555
C8 O4 1_555 1_555
C9 N1 1_555 1_555
H1 C9 1_555 1_555
O4 Cd1_3 1_555 1_555
O5 C8 1_555 1_555
C10 C2 1_555 1_555
O6 C5 1_555 1_555
C11 H2 1_555 1_555
H3 C11 1_555 1_555
C12 C13 1_555 1_555
C13 C11 1_555 1_555
H4 C13 1_555 1_555
H5 C13 1_555 1_555
C14 C9 1_555 1_555
H6 C14 1_555 1_555
C15 C12 1_555 1_555
H7 C15 1_555 1_555
C16 N1 1_555 1_555
H8 C2 1_555 1_555
H9 C1 1_555 1_555
H10 C3 1_555 1_555
H11 C16 1_555 1_555
C17 N2 1_555 1_555
N2 C18 1_555 1_555
N1F C9F 1_555 1_555
C9F H1F 1_555 1_555
C12F C13F 1_555 1_555
C13F C11 1_555 1_555
H4F C13F 1_555 1_555
H5F C13F 1_555 1_555
C14F C9F 1_555 1_555
H6F C14F 1_555 1_555
C15F C12F 1_555 1_555
H7F C15F 1_555 1_555
C16F N1F 1_555 1_555
H11F C16F 1_555 1_555
Cd1_2 N1F 1_555 1_555
N1F_2 Cd1 1_555 1_555
O3C Cd1 1_555 1_555
O4_2 Cd1 1_555 1_555
C3 C10 1_555 1_555
C6 C7 1_555 1_555
C8 C10 1_555 1_555
C12 C14 1_555 1_555
C15 C16 1_555 1_555
C12F C14F 1_555 1_555
C15F C16F 1_555 1_555

#END
