
#######################################################################
#
#                 Cambridge Crystallographic Data Centre
#                                CCDC 
#
#######################################################################
#
# If this CIF has been generated from an entry in the Cambridge 
# Structural Database, then it will include bibliographic, chemical, 
# crystal, experimental, refinement or atomic coordinate data resulting 
# from the CCDC's data processing and validation procedures.
#
#######################################################################

data_ZUDQOE
_symmetry_cell_setting           monoclinic
_symmetry_space_group_name_H-M   'P 21/c'
_symmetry_Int_Tables_number      14
_space_group_name_Hall           '-P 2ybc'
loop_
_symmetry_equiv_pos_site_id
_symmetry_equiv_pos_as_xyz
1 x,y,z
2 -x,1/2+y,1/2-z
3 -x,-y,-z
4 x,1/2-y,1/2+z
_cell_length_a                   12.228(5)
_cell_length_b                   7.844(2)
_cell_length_c                   10.863(2)
_cell_angle_alpha                90
_cell_angle_beta                 95.68(2)
_cell_angle_gamma                90
_cell_volume                     1036.82
loop_
_atom_site_label
_atom_site_type_symbol
_atom_site_fract_x
_atom_site_fract_y
_atom_site_fract_z
Cu1 Cu 0.00000 -0.50000 -0.50000
O1 O -0.14620(23) -0.56800(40) -0.55693(29)
C1 C -0.23280(34) -0.57838(59) -0.50018(44)
C2 C -0.24011(31) -0.52682(60) -0.37793(39)
C3 C -0.15271(33) -0.44057(54) -0.30976(39)
N1 N -0.05584(26) -0.40234(48) -0.35131(33)
N2 N 0.00559(30) -0.31290(48) -0.26240(39)
N3 N -0.04694(29) -0.29264(55) -0.16734(36)
N4 N -0.14689(26) -0.37319(47) -0.19359(33)
C4 C -0.34463(36) -0.55302(56) -0.33145(43)
N5 N -0.42929(31) -0.58038(58) -0.30173(40)
C5 C -0.21666(34) -0.38936(61) -0.09499(41)
C6 C -0.17609(34) -0.47390(72) 0.00955(42)
H1 H -0.10307(34) -0.52013(72) 0.01558(42)
C7 C -0.24038(35) -0.49053(85) 0.10727(41)
H2 H -0.21145(35) -0.54425(85) 0.18299(41)
C8 C -0.34686(39) -0.42600(64) 0.09515(49)
H3 H -0.39368(39) -0.44434(64) 0.15982(49)
C9 C -0.38508(37) -0.33969(70) -0.01000(51)
H4 H -0.45758(37) -0.29148(70) -0.01615(51)
C10 C -0.32123(36) -0.31875(61) -0.10723(47)
H5 H -0.34761(36) -0.25822(61) -0.18107(47)
C11 C -0.33199(34) -0.65026(65) -0.57572(42)
H6 H -0.39250(34) -0.65477(65) -0.52583(42)
H7 H -0.31624(34) -0.76299(65) -0.60350(42)
H8 H -0.35077(34) -0.57804(65) -0.64598(42)
Cu1A Cu 0.00000 0.00000 0.00000
O1B O 0.14620(23) -0.43200(40) -0.44307(29)
C1B C 0.23280(34) -0.42162(59) -0.49982(44)
C2B C 0.24011(31) -0.47318(60) -0.62207(39)
C3B C 0.15271(33) -0.55943(54) -0.69024(39)
N1B N 0.05584(26) -0.59766(48) -0.64869(33)
N3A N 0.04694(29) -0.79264(55) -0.33266(36)
N3C N -0.04694(29) -0.20736(55) -0.66734(36)
N2B N -0.00559(30) -0.68710(48) -0.73760(39)
N3B N 0.04694(29) -0.70736(55) -0.83266(36)
Cu1A_2 Cu 0.00000 -1.00000 -1.00000
N4B N 0.14689(26) -0.62681(47) -0.80641(33)
C5B C 0.21666(34) -0.61064(61) -0.90501(41)
C6B C 0.17609(34) -0.52610(72) -1.00955(42)
H1B H 0.10307(34) -0.47987(72) -1.01558(42)
C7B C 0.24038(35) -0.50947(85) -1.10727(41)
H2B H 0.21145(35) -0.45575(85) -1.18299(41)
C8B C 0.34686(39) -0.57400(64) -1.09515(49)
H3B H 0.39368(39) -0.55566(64) -1.15982(49)
C9B C 0.38508(37) -0.66031(70) -0.99000(51)
H4B H 0.45758(37) -0.70852(70) -0.98385(51)
C10B C 0.32123(36) -0.68125(61) -0.89277(47)
H5B H 0.34761(36) -0.74178(61) -0.81893(47)
C4B C 0.34463(36) -0.44698(56) -0.66855(43)
N5B N 0.42929(31) -0.41962(58) -0.69827(40)
C11B C 0.33199(34) -0.34974(65) -0.42428(42)
H6B H 0.39250(34) -0.34523(65) -0.47417(42)
H7B H 0.31624(34) -0.23701(65) -0.39650(42)
H8B H 0.35077(34) -0.42196(65) -0.35402(42)
loop_
_geom_bond_atom_site_label_1
_geom_bond_atom_site_label_2
_geom_bond_site_symmetry_1
_geom_bond_site_symmetry_2
Cu1 O1 1_555 1_555
O1 C1 1_555 1_555
C1 C2 1_555 1_555
C2 C3 1_555 1_555
C3 N1 1_555 1_555
N1 Cu1 1_555 1_555
N2 N1 1_555 1_555
N3 N2 1_555 1_555
N4 C3 1_555 1_555
C4 C2 1_555 1_555
N5 C4 1_555 1_555
C5 N4 1_555 1_555
C6 C5 1_555 1_555
H1 C6 1_555 1_555
C7 C6 1_555 1_555
H2 C7 1_555 1_555
C8 C7 1_555 1_555
H3 C8 1_555 1_555
C9 C8 1_555 1_555
H4 C9 1_555 1_555
C10 C5 1_555 1_555
H5 C10 1_555 1_555
C11 C1 1_555 1_555
H6 C11 1_555 1_555
H7 C11 1_555 1_555
H8 C11 1_555 1_555
Cu1A N3 1_555 1_555
O1B Cu1 1_555 1_555
C1B O1B 1_555 1_555
C2B C1B 1_555 1_555
C3B C2B 1_555 1_555
N1B Cu1 1_555 1_555
N3A Cu1 1_555 1_555
N3C Cu1 1_555 1_555
N2B N1B 1_555 1_555
N3B N2B 1_555 1_555
Cu1A_2 N3B 1_555 1_555
N4B C3B 1_555 1_555
C5B N4B 1_555 1_555
C6B C5B 1_555 1_555
H1B C6B 1_555 1_555
C7B C6B 1_555 1_555
H2B C7B 1_555 1_555
C8B C7B 1_555 1_555
H3B C8B 1_555 1_555
C9B C8B 1_555 1_555
H4B C9B 1_555 1_555
C10B C5B 1_555 1_555
H5B C10B 1_555 1_555
C4B C2B 1_555 1_555
N5B C4B 1_555 1_555
C11B C1B 1_555 1_555
H6B C11B 1_555 1_555
H7B C11B 1_555 1_555
H8B C11B 1_555 1_555
N3 N4 1_555 1_555
C9 C10 1_555 1_555
C3B N1B 1_555 1_555
N3B N4B 1_555 1_555
C9B C10B 1_555 1_555

#END
