
#######################################################################
#
#                 Cambridge Crystallographic Data Centre
#                                CCDC 
#
#######################################################################
#
# If this CIF has been generated from an entry in the Cambridge 
# Structural Database, then it will include bibliographic, chemical, 
# crystal, experimental, refinement or atomic coordinate data resulting 
# from the CCDC's data processing and validation procedures.
#
#######################################################################

data_ZUDVOL
_symmetry_cell_setting           triclinic
_symmetry_space_group_name_H-M   'P -1'
_symmetry_Int_Tables_number      2
_space_group_name_Hall           '-P 1'
loop_
_symmetry_equiv_pos_site_id
_symmetry_equiv_pos_as_xyz
1 x,y,z
2 -x,-y,-z
_cell_length_a                   9.9884(11)
_cell_length_b                   17.0223(11)
_cell_length_c                   19.465(2)
_cell_angle_alpha                75.950(8)
_cell_angle_beta                 84.262(9)
_cell_angle_gamma                80.032(7)
_cell_volume                     3156.25
loop_
_atom_site_label
_atom_site_type_symbol
_atom_site_fract_x
_atom_site_fract_y
_atom_site_fract_z
Cu1 Cu 0.36763(8) 0.16326(5) 0.19289(5)
Cu2 Cu 0.65308(8) 0.23319(5) 0.15350(5)
Cu3 Cu 0.40536(8) 0.28619(5) 0.04489(5)
Cu4 Cu -0.17913(8) 0.75796(5) 0.35132(5)
Cu5 Cu 0.08917(8) 0.70966(5) 0.44508(5)
Cu6 Cu 0.10298(8) 0.83011(5) 0.29416(5)
O1 O 0.5040(4) 0.1994(2) 0.1169(2)
H1 H 0.5411 0.1532 0.0953
O2 O -0.0203(4) 0.7942(2) 0.3768(2)
H2 H -0.0522 0.8409 0.3984
O3 O 0.2492(4) 0.2278(3) 0.0530(3)
O4 O 0.5031(5) 0.1212(3) 0.2646(3)
O5 O 0.6651(4) 0.3298(3) 0.0748(3)
O6 O -0.0453(4) 0.8646(3) 0.2286(2)
O7 O -0.1812(5) 0.6659(3) 0.4362(3)
O8 O 0.2432(4) 0.7708(3) 0.4280(3)
O9 O 0.2969(5) 0.3682(3) 0.1142(3)
O10 O 0.3408(5) 0.2862(3) 0.2207(3)
O11 O 0.1354(5) 0.7078(3) 0.2664(3)
O12 O 0.1648(5) 0.6244(3) 0.3733(3)
O13 O 0.6605(4) 0.0892(3) 0.0610(3)
O14 O 0.8115(4) 0.1512(3) 0.0966(3)
O15 O -0.3308(4) 0.8474(3) 0.4003(3)
O16 O -0.1703(5) 0.9055(3) 0.4327(3)
N1 N 0.2194(6) 0.1078(3) 0.2524(3)
N2 N 0.2323(5) 0.1860(3) 0.1203(3)
N3 N 0.6058(6) 0.1675(3) 0.2485(3)
N4 N 0.7851(6) 0.2629(3) 0.2089(3)
N5 N 0.5645(6) 0.3454(3) 0.0308(3)
N6 N 0.3552(6) 0.3677(3) -0.0455(3)
N7 N -0.1422(5) 0.8170(3) 0.2523(3)
N8 N -0.3215(5) 0.7226(3) 0.3067(4)
N9 N -0.0705(6) 0.6507(4) 0.4732(3)
N10 N 0.1566(6) 0.6322(3) 0.5336(3)
N11 N 0.2480(5) 0.8139(3) 0.3603(3)
N12 N 0.2387(6) 0.8905(3) 0.2283(3)
C1 C 0.2192(7) 0.0676(4) 0.3203(4)
H3 H 0.2943 0.0658 0.3456
C2 C 0.1129(9) 0.0283(4) 0.3549(5)
H4 H 0.1149 0.0021 0.4027
C3 C 0.0025(8) 0.0292(5) 0.3160(6)
H5 H -0.0698 0.0024 0.3374
C4 C 0.0016(7) 0.0696(4) 0.2464(5)
H6 H -0.0714 0.0703 0.2199
C5 C 0.1097(7) 0.1096(4) 0.2152(5)
C6 C 0.1200(7) 0.1561(4) 0.1421(4)
H7 H 0.0494 0.1641 0.1122
C7 C 0.8769(7) 0.3132(4) 0.1853(5)
H8 H 0.8796 0.3403 0.1377
C8 C 0.9686(8) 0.3268(5) 0.2286(6)
H9 H 1.0316 0.3622 0.2107
C9 C 0.9632(8) 0.2859(5) 0.2995(6)
H10 H 1.0244 0.2929 0.3297
C10 C 0.8679(8) 0.2354(5) 0.3251(5)
H11 H 0.8625 0.2092 0.3729
C11 C 0.7792(7) 0.2232(5) 0.2790(5)
C12 C 0.6758(8) 0.1707(4) 0.2990(4)
H12 H 0.6612 0.1412 0.3453
C13 C 0.2450(7) 0.3776(5) -0.0819(4)
H13 H 0.1835 0.3408 -0.0667
C14 C 0.2178(8) 0.4411(5) -0.1420(5)
H14 H 0.1409 0.4463 -0.1670
C15 C 0.3102(9) 0.4961(5) -0.1630(5)
H15 H 0.2945 0.5399 -0.2020
C16 C 0.4227(8) 0.4860(5) -0.1269(5)
H16 H 0.4855 0.5221 -0.1417
C17 C 0.4449(8) 0.4222(5) -0.0678(4)
C18 C 0.5580(8) 0.4075(5) -0.0241(5)
H17 H 0.6248 0.4413 -0.0346
C19 C -0.4123(7) 0.6746(4) 0.3387(5)
H18 H -0.4101 0.6528 0.3874
C20 C -0.5101(8) 0.6559(5) 0.3018(6)
H19 H -0.5715 0.6215 0.3253
C21 C -0.5147(8) 0.6883(5) 0.2315(6)
H20 H -0.5801 0.6764 0.2064
C22 C -0.4222(7) 0.7395(5) 0.1959(4)
H21 H -0.4243 0.7617 0.1473
C23 C -0.3249(7) 0.7563(4) 0.2368(5)
C24 C -0.2234(7) 0.8091(4) 0.2072(4)
H22 H -0.2172 0.8354 0.1595
C25 C 0.2735(8) 0.6245(5) 0.5634(5)
H23 H 0.3336 0.6609 0.5428
C26 C 0.3102(8) 0.5653(5) 0.6232(5)
H24 H 0.3924 0.5625 0.6429
C27 C 0.2230(9) 0.5105(5) 0.6532(5)
H25 H 0.2451 0.4700 0.6937
C28 C 0.1025(8) 0.5166(5) 0.6224(5)
H26 H 0.0435 0.4788 0.6408
C29 C 0.0701(7) 0.5792(4) 0.5639(4)
C30 C -0.0538(8) 0.5906(4) 0.5278(4)
H27 H -0.1187 0.5560 0.5435
C31 C 0.2328(7) 0.9277(4) 0.1607(4)
H28 H 0.1552 0.9273 0.1380
C32 C 0.3349(8) 0.9672(4) 0.1213(5)
H29 H 0.3280 0.9907 0.0731
C33 C 0.4466(8) 0.9707(4) 0.1554(5)
H30 H 0.5151 0.9985 0.1302
C34 C 0.4593(7) 0.9339(4) 0.2261(4)
H31 H 0.5352 0.9360 0.2493
C35 C 0.3538(7) 0.8937(4) 0.2614(4)
C36 C 0.3537(6) 0.8482(4) 0.3355(4)
H32 H 0.4262 0.8441 0.3633
C37 C 0.3037(7) 0.3556(4) 0.1804(4)
C38 C 0.2681(6) 0.4287(4) 0.2137(4)
C39 C 0.1937(6) 0.5006(4) 0.1779(4)
H33 H 0.1659 0.5039 0.1329
C40 C 0.1601(6) 0.5678(4) 0.2079(4)
H34 H 0.1102 0.6157 0.1829
C41 C 0.1995(6) 0.5644(4) 0.2733(4)
C42 C 0.2721(6) 0.4935(4) 0.3107(4)
H35 H 0.2983 0.4905 0.3559
C43 C 0.3061(6) 0.4259(4) 0.2801(4)
H36 H 0.3556 0.3780 0.3053
C44 C 0.1631(6) 0.6385(4) 0.3075(4)
C45 C 0.7811(7) 0.1006(4) 0.0652(4)
C46 C 0.8951(6) 0.0485(4) 0.0316(4)
C47 C 0.8801(6) -0.0297(4) 0.0278(3)
H37 H 0.8005 -0.0505 0.0462
C48 C 1.0154(6) 0.0769(4) 0.0036(4)
H38 H 1.0267 0.1293 0.0059
C49 C -0.2940(7) 0.8967(4) 0.4304(4)
C50 C -0.4020(6) 0.9494(4) 0.4678(3)
C51 C -0.5338(7) 0.9329(4) 0.4816(4)
H39 H -0.5575 0.8881 0.4690
C52 C -0.3692(6) 1.0173(4) 0.4858(4)
H40 H -0.2811 1.0296 0.4759
O13A O 1.3395(4) -0.0892(3) -0.0610(3)
O14A O 1.1885(4) -0.1512(3) -0.0966(3)
C45A C 1.2189(7) -0.1006(4) -0.0652(4)
C46A C 1.1049(6) -0.0485(4) -0.0316(4)
C47A C 1.1199(6) 0.0297(4) -0.0278(3)
H37A H 1.1995 0.0505 -0.0462
C48A C 0.9846(6) -0.0769(4) -0.0036(4)
H38A H 0.9733 -0.1293 -0.0059
O15A O -0.6692(4) 1.1526(3) 0.5997(3)
O16A O -0.8297(5) 1.0945(3) 0.5673(3)
C49A C -0.7060(7) 1.1033(4) 0.5696(4)
C50A C -0.5980(6) 1.0506(4) 0.5322(3)
C51A C -0.4662(7) 1.0671(4) 0.5184(4)
H39A H -0.4425 1.1119 0.5310
C52A C -0.6308(6) 0.9827(4) 0.5142(4)
H40A H -0.7189 0.9704 0.5241
Cu1A Cu -1.36763(8) 1.83674(5) 0.80711(5)
Cu2A Cu -1.65308(8) 1.76681(5) 0.84650(5)
Cu3A Cu -1.40536(8) 1.71381(5) 0.95511(5)
Cu4A Cu -0.82087(8) 1.24204(5) 0.64868(5)
Cu5A Cu -1.08917(8) 1.29034(5) 0.55492(5)
Cu6A Cu -1.10298(8) 1.16989(5) 0.70584(5)
O1A O -1.5040(4) 1.8006(2) 0.8831(2)
H1A H -1.5411 1.8468 0.9047
O2A O -0.9797(4) 1.2058(2) 0.6232(2)
H2A H -0.9478 1.1591 0.6016
O3A O -1.2492(4) 1.7722(3) 0.9470(3)
O4A O -1.5031(5) 1.8788(3) 0.7354(3)
O5A O -1.6651(4) 1.6702(3) 0.9252(3)
O6A O -0.9547(4) 1.1354(3) 0.7714(2)
O7A O -0.8188(5) 1.3341(3) 0.5638(3)
O8A O -1.2432(4) 1.2292(3) 0.5720(3)
O9A O -1.2969(5) 1.6318(3) 0.8858(3)
O10A O -1.3408(5) 1.7138(3) 0.7793(3)
O11A O -1.1354(5) 1.2922(3) 0.7336(3)
O12A O -1.1648(5) 1.3756(3) 0.6267(3)
N1A N -1.2194(6) 1.8922(3) 0.7476(3)
N2A N -1.2323(5) 1.8140(3) 0.8797(3)
N3A N -1.6058(6) 1.8325(3) 0.7515(3)
N4A N -1.7851(6) 1.7371(3) 0.7911(3)
N5A N -1.5645(6) 1.6546(3) 0.9692(3)
N6A N -1.3552(6) 1.6323(3) 1.0455(3)
N7A N -0.8578(5) 1.1830(3) 0.7477(3)
N8A N -0.6785(5) 1.2774(3) 0.6933(4)
N9A N -0.9295(6) 1.3493(4) 0.5268(3)
N10A N -1.1566(6) 1.3678(3) 0.4664(3)
N11A N -1.2480(5) 1.1861(3) 0.6397(3)
N12A N -1.2387(6) 1.1095(3) 0.7717(3)
C1A C -1.2192(7) 1.9324(4) 0.6797(4)
H3A H -1.2943 1.9342 0.6544
C2A C -1.1129(9) 1.9717(4) 0.6451(5)
H4A H -1.1149 1.9979 0.5973
C3A C -1.0025(8) 1.9708(5) 0.6840(6)
H5A H -0.9302 1.9976 0.6626
C4A C -1.0016(7) 1.9304(4) 0.7536(5)
H6A H -0.9286 1.9297 0.7801
C5A C -1.1097(7) 1.8904(4) 0.7848(5)
C6A C -1.1200(7) 1.8439(4) 0.8579(4)
H7A H -1.0494 1.8359 0.8878
C7A C -1.8769(7) 1.6868(4) 0.8147(5)
H8A H -1.8796 1.6597 0.8623
C8A C -1.9686(8) 1.6732(5) 0.7714(6)
H9A H -2.0316 1.6378 0.7893
C9A C -1.9632(8) 1.7141(5) 0.7005(6)
H10A H -2.0244 1.7071 0.6703
C10A C -1.8679(8) 1.7646(5) 0.6749(5)
H11A H -1.8625 1.7908 0.6271
C11A C -1.7792(7) 1.7768(5) 0.7210(5)
C12A C -1.6758(8) 1.8293(4) 0.7010(4)
H12A H -1.6612 1.8588 0.6547
C13A C -1.2450(7) 1.6224(5) 1.0819(4)
H13A H -1.1835 1.6592 1.0667
C14A C -1.2178(8) 1.5589(5) 1.1420(5)
H14A H -1.1409 1.5537 1.1670
C15A C -1.3102(9) 1.5039(5) 1.1630(5)
H15A H -1.2945 1.4601 1.2020
C16A C -1.4227(8) 1.5140(5) 1.1269(5)
H16A H -1.4855 1.4779 1.1417
C17A C -1.4449(8) 1.5778(5) 1.0678(4)
C18A C -1.5580(8) 1.5925(5) 1.0241(5)
H17A H -1.6248 1.5587 1.0346
C19A C -0.5877(7) 1.3254(4) 0.6613(5)
H18A H -0.5899 1.3472 0.6126
C20A C -0.4899(8) 1.3441(5) 0.6982(6)
H19A H -0.4285 1.3785 0.6747
C21A C -0.4853(8) 1.3117(5) 0.7685(6)
H20A H -0.4199 1.3236 0.7936
C22A C -0.5778(7) 1.2605(5) 0.8041(4)
H21A H -0.5757 1.2383 0.8527
C23A C -0.6751(7) 1.2437(4) 0.7632(5)
C24A C -0.7766(7) 1.1909(4) 0.7928(4)
H22A H -0.7828 1.1646 0.8405
C25A C -1.2735(8) 1.3755(5) 0.4366(5)
H23A H -1.3336 1.3391 0.4572
C26A C -1.3102(8) 1.4347(5) 0.3768(5)
H24A H -1.3924 1.4375 0.3571
C27A C -1.2230(9) 1.4895(5) 0.3468(5)
H25A H -1.2451 1.5300 0.3063
C28A C -1.1025(8) 1.4834(5) 0.3776(5)
H26A H -1.0435 1.5212 0.3592
C29A C -1.0701(7) 1.4208(4) 0.4361(4)
C30A C -0.9462(8) 1.4094(4) 0.4722(4)
H27A H -0.8813 1.4440 0.4565
C31A C -1.2328(7) 1.0723(4) 0.8393(4)
H28A H -1.1552 1.0727 0.8620
C32A C -1.3349(8) 1.0328(4) 0.8787(5)
H29A H -1.3280 1.0093 0.9269
C33A C -1.4466(8) 1.0293(4) 0.8446(5)
H30A H -1.5151 1.0015 0.8698
C34A C -1.4593(7) 1.0661(4) 0.7739(4)
H31A H -1.5352 1.0640 0.7507
C35A C -1.3538(7) 1.1063(4) 0.7386(4)
C36A C -1.3537(6) 1.1518(4) 0.6645(4)
H32A H -1.4262 1.1559 0.6367
C37A C -1.3037(7) 1.6444(4) 0.8196(4)
C38A C -1.2681(6) 1.5713(4) 0.7863(4)
C39A C -1.1937(6) 1.4994(4) 0.8221(4)
H33A H -1.1659 1.4961 0.8671
C40A C -1.1601(6) 1.4322(4) 0.7921(4)
H34A H -1.1102 1.3843 0.8171
C41A C -1.1995(6) 1.4356(4) 0.7267(4)
C42A C -1.2721(6) 1.5065(4) 0.6893(4)
H35A H -1.2983 1.5095 0.6441
C43A C -1.3061(6) 1.5741(4) 0.7199(4)
H36A H -1.3556 1.6220 0.6947
C44A C -1.1631(6) 1.3615(4) 0.6925(4)
Cu2A_2 Cu 1.34692(8) -0.23319(5) -0.15350(5)
O14A_2 O -1.8115(4) 1.8488(3) 0.9034(3)
O17 O 0.0316(5) 0.4209(3) 0.0453(3)
O18 O 0.9139(5) 0.3171(4) 0.9804(3)
O19 O 0.5860(6) 0.6888(5) 0.5385(4)
O20 O 0.4063(9) 0.1301(5) 0.9679(5)
O21 O 0.0850(9) 0.8789(5) 0.5131(5)
O22 O 0.6840(9) 0.7738(4) 0.6279(4)
O23 O 0.2061(15) 0.7563(9) 0.1143(9)
O24? O 0.097(2) 0.7649(16) 0.1237(14)
O25? O 0.5539(15) 0.1969(9) 0.9513(8)
O26? O 0.948(2) 0.8154(12) 0.5456(11)
loop_
_geom_bond_atom_site_label_1
_geom_bond_atom_site_label_2
_geom_bond_site_symmetry_1
_geom_bond_site_symmetry_2
Cu1 O1 1_555 1_555
Cu2 O1 1_555 1_555
Cu3 O1 1_555 1_555
Cu4 O2 1_555 1_555
Cu5 O2 1_555 1_555
Cu6 O2 1_555 1_555
O1 H1 1_555 1_555
O2 H2 1_555 1_555
O3 Cu3 1_555 1_555
O4 Cu1 1_555 1_555
O5 Cu2 1_555 1_555
O6 Cu6 1_555 1_555
O7 Cu4 1_555 1_555
O8 Cu5 1_555 1_555
O9 Cu3 1_555 1_555
O10 Cu1 1_555 1_555
O11 Cu6 1_555 1_555
O12 Cu5 1_555 1_555
O13 C45 1_555 1_555
O14 Cu2 1_555 1_555
O15 Cu4 1_555 1_555
O16 C49 1_555 1_555
N1 Cu1 1_555 1_555
N2 Cu1 1_555 1_555
N3 Cu2 1_555 1_555
N4 Cu2 1_555 1_555
N5 Cu3 1_555 1_555
N6 Cu3 1_555 1_555
N7 Cu4 1_555 1_555
N8 Cu4 1_555 1_555
N9 Cu5 1_555 1_555
N10 Cu5 1_555 1_555
N11 Cu6 1_555 1_555
N12 Cu6 1_555 1_555
C1 N1 1_555 1_555
H3 C1 1_555 1_555
C2 C1 1_555 1_555
H4 C2 1_555 1_555
C3 C2 1_555 1_555
H5 C3 1_555 1_555
C4 C3 1_555 1_555
H6 C4 1_555 1_555
C5 N1 1_555 1_555
C6 N2 1_555 1_555
H7 C6 1_555 1_555
C7 N4 1_555 1_555
H8 C7 1_555 1_555
C8 C7 1_555 1_555
H9 C8 1_555 1_555
C9 C8 1_555 1_555
H10 C9 1_555 1_555
C10 C9 1_555 1_555
H11 C10 1_555 1_555
C11 N4 1_555 1_555
C12 N3 1_555 1_555
H12 C12 1_555 1_555
C13 N6 1_555 1_555
H13 C13 1_555 1_555
C14 C13 1_555 1_555
H14 C14 1_555 1_555
C15 C14 1_555 1_555
H15 C15 1_555 1_555
C16 C15 1_555 1_555
H16 C16 1_555 1_555
C17 N6 1_555 1_555
C18 N5 1_555 1_555
H17 C18 1_555 1_555
C19 N8 1_555 1_555
H18 C19 1_555 1_555
C20 C19 1_555 1_555
H19 C20 1_555 1_555
C21 C20 1_555 1_555
H20 C21 1_555 1_555
C22 C21 1_555 1_555
H21 C22 1_555 1_555
C23 N8 1_555 1_555
C24 N7 1_555 1_555
H22 C24 1_555 1_555
C25 N10 1_555 1_555
H23 C25 1_555 1_555
C26 C25 1_555 1_555
H24 C26 1_555 1_555
C27 C26 1_555 1_555
H25 C27 1_555 1_555
C28 C27 1_555 1_555
H26 C28 1_555 1_555
C29 N10 1_555 1_555
C30 N9 1_555 1_555
H27 C30 1_555 1_555
C31 N12 1_555 1_555
H28 C31 1_555 1_555
C32 C31 1_555 1_555
H29 C32 1_555 1_555
C33 C32 1_555 1_555
H30 C33 1_555 1_555
C34 C33 1_555 1_555
H31 C34 1_555 1_555
C35 N12 1_555 1_555
C36 N11 1_555 1_555
H32 C36 1_555 1_555
C37 O9 1_555 1_555
C38 C37 1_555 1_555
C39 C38 1_555 1_555
H33 C39 1_555 1_555
C40 C39 1_555 1_555
H34 C40 1_555 1_555
C41 C40 1_555 1_555
C42 C41 1_555 1_555
H35 C42 1_555 1_555
C43 C38 1_555 1_555
H36 C43 1_555 1_555
C44 O11 1_555 1_555
C45 O14 1_555 1_555
C46 C45 1_555 1_555
C47 C46 1_555 1_555
H37 C47 1_555 1_555
C48 C46 1_555 1_555
H38 C48 1_555 1_555
C49 O15 1_555 1_555
C50 C49 1_555 1_555
C51 C50 1_555 1_555
H39 C51 1_555 1_555
C52 C50 1_555 1_555
H40 C52 1_555 1_555
O13A C45A 1_555 1_555
O14A C45A 1_555 1_555
C45A C46A 1_555 1_555
C46A C47A 1_555 1_555
C47A C48 1_555 1_555
H37A C47A 1_555 1_555
C48A C47 1_555 1_555
H38A C48A 1_555 1_555
O15A C49A 1_555 1_555
O16A C49A 1_555 1_555
C49A C50A 1_555 1_555
C50A C51A 1_555 1_555
C51A C52 1_555 1_555
H39A C51A 1_555 1_555
C52A C51 1_555 1_555
H40A C52A 1_555 1_555
Cu1A O1A 1_555 1_555
Cu2A O1A 1_555 1_555
Cu3A O1A 1_555 1_555
Cu4A O15A 1_555 1_555
Cu5A O2A 1_555 1_555
Cu6A O2A 1_555 1_555
O1A H1A 1_555 1_555
O2A Cu4A 1_555 1_555
H2A O2A 1_555 1_555
O3A Cu3A 1_555 1_555
O4A Cu1A 1_555 1_555
O5A Cu2A 1_555 1_555
O6A Cu6A 1_555 1_555
O7A Cu4A 1_555 1_555
O8A Cu5A 1_555 1_555
O9A Cu3A 1_555 1_555
O10A Cu1A 1_555 1_555
O11A Cu6A 1_555 1_555
O12A Cu5A 1_555 1_555
N1A Cu1A 1_555 1_555
N2A Cu1A 1_555 1_555
N3A Cu2A 1_555 1_555
N4A Cu2A 1_555 1_555
N5A Cu3A 1_555 1_555
N6A Cu3A 1_555 1_555
N7A Cu4A 1_555 1_555
N8A Cu4A 1_555 1_555
N9A Cu5A 1_555 1_555
N10A Cu5A 1_555 1_555
N11A Cu6A 1_555 1_555
N12A Cu6A 1_555 1_555
C1A N1A 1_555 1_555
H3A C1A 1_555 1_555
C2A C1A 1_555 1_555
H4A C2A 1_555 1_555
C3A C2A 1_555 1_555
H5A C3A 1_555 1_555
C4A C3A 1_555 1_555
H6A C4A 1_555 1_555
C5A N1A 1_555 1_555
C6A N2A 1_555 1_555
H7A C6A 1_555 1_555
C7A N4A 1_555 1_555
H8A C7A 1_555 1_555
C8A C7A 1_555 1_555
H9A C8A 1_555 1_555
C9A C8A 1_555 1_555
H10A C9A 1_555 1_555
C10A C9A 1_555 1_555
H11A C10A 1_555 1_555
C11A N4A 1_555 1_555
C12A N3A 1_555 1_555
H12A C12A 1_555 1_555
C13A N6A 1_555 1_555
H13A C13A 1_555 1_555
C14A C13A 1_555 1_555
H14A C14A 1_555 1_555
C15A C14A 1_555 1_555
H15A C15A 1_555 1_555
C16A C15A 1_555 1_555
H16A C16A 1_555 1_555
C17A N6A 1_555 1_555
C18A N5A 1_555 1_555
H17A C18A 1_555 1_555
C19A N8A 1_555 1_555
H18A C19A 1_555 1_555
C20A C19A 1_555 1_555
H19A C20A 1_555 1_555
C21A C20A 1_555 1_555
H20A C21A 1_555 1_555
C22A C21A 1_555 1_555
H21A C22A 1_555 1_555
C23A N8A 1_555 1_555
C24A N7A 1_555 1_555
H22A C24A 1_555 1_555
C25A N10A 1_555 1_555
H23A C25A 1_555 1_555
C26A C25A 1_555 1_555
H24A C26A 1_555 1_555
C27A C26A 1_555 1_555
H25A C27A 1_555 1_555
C28A C27A 1_555 1_555
H26A C28A 1_555 1_555
C29A N10A 1_555 1_555
C30A N9A 1_555 1_555
H27A C30A 1_555 1_555
C31A N12A 1_555 1_555
H28A C31A 1_555 1_555
C32A C31A 1_555 1_555
H29A C32A 1_555 1_555
C33A C32A 1_555 1_555
H30A C33A 1_555 1_555
C34A C33A 1_555 1_555
H31A C34A 1_555 1_555
C35A N12A 1_555 1_555
C36A N11A 1_555 1_555
H32A C36A 1_555 1_555
C37A O9A 1_555 1_555
C38A C37A 1_555 1_555
C39A C38A 1_555 1_555
H33A C39A 1_555 1_555
C40A C39A 1_555 1_555
H34A C40A 1_555 1_555
C41A C40A 1_555 1_555
C42A C41A 1_555 1_555
H35A C42A 1_555 1_555
C43A C38A 1_555 1_555
H36A C43A 1_555 1_555
C44A O11A 1_555 1_555
Cu2A_2 O14A 1_555 1_555
O14A_2 Cu2A 1_555 1_555
O3 N2 1_555 1_555
O4 N3 1_555 1_555
O5 N5 1_555 1_555
O6 N7 1_555 1_555
O7 N9 1_555 1_555
O8 N11 1_555 1_555
O10 C37 1_555 1_555
O12 C44 1_555 1_555
C4 C5 1_555 1_555
C5 C6 1_555 1_555
C10 C11 1_555 1_555
C11 C12 1_555 1_555
C16 C17 1_555 1_555
C17 C18 1_555 1_555
C22 C23 1_555 1_555
C23 C24 1_555 1_555
C28 C29 1_555 1_555
C29 C30 1_555 1_555
C34 C35 1_555 1_555
C35 C36 1_555 1_555
C41 C44 1_555 1_555
C42 C43 1_555 1_555
C46A C48A 1_555 1_555
C50A C52A 1_555 1_555
O3A N2A 1_555 1_555
O4A N3A 1_555 1_555
O5A N5A 1_555 1_555
O6A N7A 1_555 1_555
O7A N9A 1_555 1_555
O8A N11A 1_555 1_555
O10A C37A 1_555 1_555
O12A C44A 1_555 1_555
C4A C5A 1_555 1_555
C5A C6A 1_555 1_555
C10A C11A 1_555 1_555
C11A C12A 1_555 1_555
C16A C17A 1_555 1_555
C17A C18A 1_555 1_555
C22A C23A 1_555 1_555
C23A C24A 1_555 1_555
C28A C29A 1_555 1_555
C29A C30A 1_555 1_555
C34A C35A 1_555 1_555
C35A C36A 1_555 1_555
C41A C44A 1_555 1_555
C42A C43A 1_555 1_555

#END
