
#######################################################################
#
#                 Cambridge Crystallographic Data Centre
#                                CCDC 
#
#######################################################################
#
# If this CIF has been generated from an entry in the Cambridge 
# Structural Database, then it will include bibliographic, chemical, 
# crystal, experimental, refinement or atomic coordinate data resulting 
# from the CCDC's data processing and validation procedures.
#
#######################################################################

data_ZUDZUT
_symmetry_cell_setting           triclinic
_symmetry_space_group_name_H-M   'P -1'
_symmetry_Int_Tables_number      2
_space_group_name_Hall           '-P 1'
loop_
_symmetry_equiv_pos_site_id
_symmetry_equiv_pos_as_xyz
1 x,y,z
2 -x,-y,-z
_cell_length_a                   9.488(2)
_cell_length_b                   19.035(6)
_cell_length_c                   15.275(4)
_cell_angle_alpha                105.21(2)
_cell_angle_beta                 101.60(2)
_cell_angle_gamma                81.24(2)
_cell_volume                     2593.22
loop_
_atom_site_label
_atom_site_type_symbol
_atom_site_fract_x
_atom_site_fract_y
_atom_site_fract_z
La1 La 0.1963(1) 0.1895(1) 0.1939(1)
La2 La 0.7459(1) 0.2220(1) 0.2186(1)
N1 N 0.6716(12) 0.3627(7) 0.7461(6)
N2 N 1.3330(8) 0.5181(4) 0.6033(7)
N3 N 0.6898(9) 0.1198(5) -0.3275(5)
N4 N 0.1514(12) 0.2784(7) -0.2787(6)
N5 N 1.1953(8) 0.4832(4) -0.1068(5)
N6 N 1.2863(13) 0.0354(5) 0.6692(6)
O1 O 1.3870(5) 0.0759(3) 0.2087(4)
O2 O 0.5555(5) 0.3342(3) 0.2309(4)
O3 O 0.7901(5) 0.3120(3) 0.1283(4)
O4 O 0.6956(6) 0.0852(3) 0.1762(3)
O6 O 0.3546(5) 0.2327(3) 0.3396(3)
O7 O 0.5793(5) 0.2101(3) 0.3158(3)
O8 O 0.5897(12) 0.3805(6) 0.7978(5)
O9 O 0.7957(12) 0.3659(10) 0.7737(6)
O10 O 0.8362(5) 0.3246(3) 0.3541(3)
O11 O 1.0146(5) 0.2769(3) 0.2758(3)
O12 O 1.4061(8) 0.5512(5) 0.5760(7)
O13 O 1.3339(11) 0.5233(5) 0.6848(6)
O14 O 0.9151(5) 0.1623(3) 0.1078(3)
O15 O 1.0968(5) 0.0909(3) 0.0509(3)
O16 O 0.7303(11) 0.0768(5) -0.3900(4)
O17 O 0.5896(9) 0.1664(5) -0.3308(5)
O18 O 0.5682(5) 0.2020(3) 0.0754(3)
O19 O 0.3678(5) 0.1616(3) 0.0850(3)
O20 O 0.1789(11) 0.3348(6) -0.2901(6)
O21 O 0.0582(16) 0.2449(7) -0.3270(6)
O22 O 1.0721(5) 0.2763(3) 0.0853(3)
O23 O 1.2698(5) 0.3138(3) 0.1792(3)
O24 O 1.3054(8) 0.5462(4) -0.0913(5)
O25 O 1.0959(8) 0.5244(4) -0.1682(5)
O26 O 1.1132(5) 0.1244(3) 0.2866(3)
O27 O 0.9026(5) 0.1582(3) 0.3356(3)
O28 O 1.2075(12) 0.0186(4) 0.7110(5)
O29 O 1.4190(12) 0.0260(7) 0.6860(8)
C1 C 0.4878(7) 0.2339(4) 0.3668(4)
C2 C 0.5359(7) 0.2666(4) 0.4665(4)
C3 C 0.4372(8) 0.2927(5) 0.5253(5)
C4 C 0.4809(10) 0.3259(5) 0.6158(5)
C5 C 0.6244(11) 0.3291(6) 0.6474(6)
C6 C 0.7262(11) 0.3038(7) 0.5921(6)
C7 C 0.6823(9) 0.2709(7) 0.5003(6)
C8 C 0.9653(7) 0.3226(4) 0.3433(5)
C9 C 1.0604(7) 0.3743(4) 0.4093(5)
C10 C 1.0439(8) 0.3949(4) 0.5009(5)
C11 C 1.1326(9) 0.4421(4) 0.5653(6)
C12 C 1.2361(8) 0.4684(5) 0.5353(6)
C13 C 1.2544(9) 0.4507(5) 0.4473(7)
C14 C 1.1672(8) 0.4025(5) 0.3813(6)
C15 C 0.9703(7) 0.1225(4) 0.0401(5)
C16 C 0.8903(7) 0.1189(4) -0.0560(5)
C17 C 0.7893(8) 0.1750(5) -0.0721(5)
C18 C 0.7239(9) 0.1756(5) -0.1623(5)
C19 C 0.7567(9) 0.1191(5) -0.2327(5)
C20 C 0.8522(10) 0.0627(5) -0.2176(5)
C21 C 0.9247(9) 0.0625(4) -0.1283(5)
C22 C 0.4400(7) 0.1896(4) 0.0464(4)
C23 C 0.3685(7) 0.2100(4) -0.0424(4)
C24 C 0.4202(8) 0.2624(5) -0.0704(5)
C25 C 0.3500(10) 0.2851(5) -0.1482(6)
C26 C 0.2299(11) 0.2521(6) -0.1963(5)
C27 C 0.1763(9) 0.1998(5) -0.1716(5)
C28 C 0.2439(8) 0.1779(5) -0.0928(5)
C29 C 1.1706(7) 0.3181(4) 0.1101(5)
C30 C 1.1727(7) 0.3734(4) 0.0562(5)
C31 C 1.2801(8) 0.4205(4) 0.0806(6)
C32 C 1.2879(9) 0.4673(5) 0.0276(6)
C33 C 1.1870(9) 0.4667(4) -0.0494(6)
C34 C 1.0767(9) 0.4232(5) -0.0756(5)
C35 C 1.0707(8) 0.3759(4) -0.0221(5)
C36 C 1.0328(7) 0.1340(4) 0.3458(5)
C37 C 1.0985(8) 0.1127(4) 0.4335(5)
C38 C 1.0133(9) 0.1012(5) 0.4902(5)
C39 C 1.0727(12) 0.0769(5) 0.5681(6)
C40 C 1.2200(13) 0.0640(5) 0.5872(6)
C41 C 1.3099(11) 0.0773(6) 0.5351(7)
C42 C 1.2492(9) 0.1025(5) 0.4572(6)
La1_2 La 1.1963(1) 0.1895(1) 0.1939(1)
O6_2 O 1.3546(5) 0.2327(3) 0.3396(3)
O19_2 O 1.3678(5) 0.1616(3) 0.0850(3)
O5 O 0.6533(8) 0.0098(4) 0.0009(4)
loop_
_geom_bond_atom_site_label_1
_geom_bond_atom_site_label_2
_geom_bond_site_symmetry_1
_geom_bond_site_symmetry_2
La1 O6 1_555 1_555
La2 O2 1_555 1_555
N1 O8 1_555 1_555
N2 O12 1_555 1_555
N3 O16 1_555 1_555
N4 O20 1_555 1_555
N5 O24 1_555 1_555
N6 O28 1_555 1_555
O1 La1_2 1_555 1_555
O3 La2 1_555 1_555
O4 La2 1_555 1_555
O6 C1 1_555 1_555
O7 La2 1_555 1_555
O9 N1 1_555 1_555
O10 La2 1_555 1_555
O11 La2 1_555 1_555
O13 N2 1_555 1_555
O14 La2 1_555 1_555
O15 C15 1_555 1_555
O17 N3 1_555 1_555
O18 La2 1_555 1_555
O19 La1 1_555 1_555
O21 N4 1_555 1_555
O22 C29 1_555 1_555
O23 C29 1_555 1_555
O25 N5 1_555 1_555
O26 C36 1_555 1_555
O27 La2 1_555 1_555
O29 N6 1_555 1_555
C1 O7 1_555 1_555
C2 C1 1_555 1_555
C3 C2 1_555 1_555
C4 C3 1_555 1_555
C5 N1 1_555 1_555
C6 C5 1_555 1_555
C7 C2 1_555 1_555
C8 O10 1_555 1_555
C9 C8 1_555 1_555
C10 C9 1_555 1_555
C11 C10 1_555 1_555
C12 N2 1_555 1_555
C13 C12 1_555 1_555
C14 C9 1_555 1_555
C15 O14 1_555 1_555
C16 C15 1_555 1_555
C17 C16 1_555 1_555
C18 C17 1_555 1_555
C19 N3 1_555 1_555
C20 C19 1_555 1_555
C21 C16 1_555 1_555
C22 O18 1_555 1_555
C23 C22 1_555 1_555
C24 C23 1_555 1_555
C25 C24 1_555 1_555
C26 N4 1_555 1_555
C27 C26 1_555 1_555
C28 C23 1_555 1_555
C29 C30 1_555 1_555
C30 C31 1_555 1_555
C31 C32 1_555 1_555
C32 C33 1_555 1_555
C33 N5 1_555 1_555
C34 C33 1_555 1_555
C35 C30 1_555 1_555
C36 O27 1_555 1_555
C37 C36 1_555 1_555
C38 C37 1_555 1_555
C39 C38 1_555 1_555
C40 N6 1_555 1_555
C41 C40 1_555 1_555
C42 C37 1_555 1_555
La1_2 O11 1_555 1_555
O6_2 La1_2 1_555 1_555
O19_2 La1_2 1_555 1_555
O11 C8 1_555 1_555
O14 La1_2 1_555 1_555
O15 La1_2 1_555 1_555
O19 C22 1_555 1_555
O22 La1_2 1_555 1_555
O23 La1_2 1_555 1_555
O26 La1_2 1_555 1_555
C4 C5 1_555 1_555
C6 C7 1_555 1_555
C11 C12 1_555 1_555
C13 C14 1_555 1_555
C18 C19 1_555 1_555
C20 C21 1_555 1_555
C25 C26 1_555 1_555
C27 C28 1_555 1_555
C34 C35 1_555 1_555
C39 C40 1_555 1_555
C41 C42 1_555 1_555

#END
