
#######################################################################
#
#                 Cambridge Crystallographic Data Centre
#                                CCDC 
#
#######################################################################
#
# If this CIF has been generated from an entry in the Cambridge 
# Structural Database, then it will include bibliographic, chemical, 
# crystal, experimental, refinement or atomic coordinate data resulting 
# from the CCDC's data processing and validation procedures.
#
#######################################################################

data_ZUDZON
_symmetry_cell_setting           monoclinic
_symmetry_space_group_name_H-M   'P 21/n'
_symmetry_Int_Tables_number      14
_space_group_name_Hall           '-P 2yn'
loop_
_symmetry_equiv_pos_site_id
_symmetry_equiv_pos_as_xyz
1 x,y,z
2 1/2-x,1/2+y,1/2-z
3 -x,-y,-z
4 1/2+x,1/2-y,1/2+z
_cell_length_a                   9.073(2)
_cell_length_b                   21.457(6)
_cell_length_c                   12.798(4)
_cell_angle_alpha                90
_cell_angle_beta                 95.94(2)
_cell_angle_gamma                90
_cell_volume                     2478.13
loop_
_atom_site_label
_atom_site_type_symbol
_atom_site_fract_x
_atom_site_fract_y
_atom_site_fract_z
La1 La 0.7467(1) 0.0138(1) 0.0130(1)
N1 N 0.5395(8) 0.2322(3) 0.0407(5)
N2 N 0.8083(8) -0.1867(3) 0.1921(5)
N3 N 0.7002(8) 0.0299(3) -0.3707(5)
O1 O 0.6079(5) 0.0903(2) -0.1365(4)
O2 O 0.6696(6) -0.0352(3) 0.1868(4)
O3 O 0.6670(5) 0.1106(2) 0.1168(4)
O4 O 0.4727(5) 0.0528(2) 0.0629(3)
O5 O 0.5433(7) 0.2012(3) -0.0382(5)
O6 O 0.6089(10) 0.2798(4) 0.0549(7)
O7 O 0.8463(5) -0.0937(2) 0.0164(3)
O8 O 1.0927(6) -0.1012(2) 0.0295(4)
O9 O 0.8746(7) -0.1397(3) 0.2254(4)
O10 O 0.6884(8) -0.2033(5) 0.2201(6)
O11 O 0.8022(5) -0.0024(2) -0.1722(3)
O12 O 1.0467(5) -0.0146(3) -0.1487(4)
O13 O 0.5695(7) 0.0141(4) -0.3823(6)
O14 O 0.7451(8) 0.0810(3) -0.3413(5)
C1 C 0.5317(7) 0.1019(3) 0.1060(5)
C2 C 0.4354(8) 0.1509(3) 0.1471(5)
C3 C 0.4465(8) 0.2135(4) 0.1211(5)
C4 C 0.3670(10) 0.2602(4) 0.1659(7)
C5 C 0.2748(9) 0.2429(4) 0.2395(7)
C6 C 0.2622(9) 0.1810(4) 0.2683(7)
C7 C 0.3390(8) 0.1365(4) 0.2201(6)
C8 C 0.9630(7) -0.1236(3) 0.0293(5)
C9 C 0.9509(7) -0.1935(3) 0.0401(5)
C10 C 0.8763(8) -0.2228(4) 0.1126(6)
C11 C 0.8574(10) -0.2868(4) 0.1159(7)
C12 C 0.9521(11) -0.3225(4) 0.0476(8)
C13 C 1.0072(11) -0.2955(4) -0.0254(7)
C14 C 1.0165(10) -0.2307(4) -0.0288(6)
C15 C 0.9270(7) -0.0142(3) -0.2035(5)
C16 C 0.9246(7) -0.0333(3) -0.3108(5)
C17 C 0.8111(8) -0.0174(4) -0.3936(5)
C18 C 0.7986(9) -0.0403(4) -0.4947(5)
C19 C 0.9081(10) -0.0800(4) -0.5215(6)
C20 C 1.0246(10) -0.0962(4) -0.4485(6)
C21 C 1.0314(8) -0.0730(4) -0.3475(5)
O4B O 0.5273(5) -0.0528(2) -0.0629(3)
O8B O 0.9073(6) 0.1012(2) -0.0295(4)
O12B O 0.9533(5) 0.0146(3) 0.1487(4)
La1B La 0.2533(1) -0.0138(1) -0.0130(1)
La1B_2 La 1.2533(1) -0.0138(1) -0.0130(1)
loop_
_geom_bond_atom_site_label_1
_geom_bond_atom_site_label_2
_geom_bond_site_symmetry_1
_geom_bond_site_symmetry_2
La1 O1 1_555 1_555
N1 O5 1_555 1_555
N2 O9 1_555 1_555
N3 O13 1_555 1_555
O2 La1 1_555 1_555
O3 La1 1_555 1_555
O4 La1 1_555 1_555
O6 N1 1_555 1_555
O7 La1 1_555 1_555
O8 C8 1_555 1_555
O10 N2 1_555 1_555
O11 La1 1_555 1_555
O12 C15 1_555 1_555
O14 N3 1_555 1_555
C1 O3 1_555 1_555
C2 C1 1_555 1_555
C3 N1 1_555 1_555
C4 C3 1_555 1_555
C5 C4 1_555 1_555
C6 C5 1_555 1_555
C7 C2 1_555 1_555
C8 O7 1_555 1_555
C9 C8 1_555 1_555
C10 N2 1_555 1_555
C11 C10 1_555 1_555
C12 C11 1_555 1_555
C13 C12 1_555 1_555
C14 C9 1_555 1_555
C15 O11 1_555 1_555
C16 C15 1_555 1_555
C17 N3 1_555 1_555
C18 C17 1_555 1_555
C19 C18 1_555 1_555
C20 C19 1_555 1_555
C21 C16 1_555 1_555
O4B La1 1_555 1_555
O8B La1 1_555 1_555
O12B La1 1_555 1_555
La1B O4 1_555 1_555
La1B_2 O8 1_555 1_555
O4 C1 1_555 1_555
O12 La1B_2 1_555 1_555
C2 C3 1_555 1_555
C6 C7 1_555 1_555
C9 C10 1_555 1_555
C13 C14 1_555 1_555
C16 C17 1_555 1_555
C20 C21 1_555 1_555
O4B La1B 1_555 1_555

#END
