
#######################################################################
#
#                 Cambridge Crystallographic Data Centre
#                                CCDC 
#
#######################################################################
#
# If this CIF has been generated from an entry in the Cambridge 
# Structural Database, then it will include bibliographic, chemical, 
# crystal, experimental, refinement or atomic coordinate data resulting 
# from the CCDC's data processing and validation procedures.
#
#######################################################################

data_ZUDZAB
_symmetry_cell_setting           triclinic
_symmetry_space_group_name_H-M   'P -1'
_symmetry_Int_Tables_number      2
_space_group_name_Hall           '-P 1'
loop_
_symmetry_equiv_pos_site_id
_symmetry_equiv_pos_as_xyz
1 x,y,z
2 -x,-y,-z
_cell_length_a                   7.8332(2)
_cell_length_b                   13.4646(5)
_cell_length_c                   19.4251(6)
_cell_angle_alpha                108.111(3)
_cell_angle_beta                 96.871(2)
_cell_angle_gamma                98.103(2)
_cell_volume                     1898.53
loop_
_atom_site_label
_atom_site_type_symbol
_atom_site_fract_x
_atom_site_fract_y
_atom_site_fract_z
Cd1 Cd -0.170895(15) 0.385632(11) 0.382374(7)
S1 S -0.22301(6) 0.54726(4) 0.48635(3)
S2 S -0.14444(6) 0.56289(4) 0.34329(3)
N1 N -0.23203(19) 0.26819(13) 0.44770(8)
N2 N 0.0427(2) 0.30941(15) 0.32958(10)
H1 H 0.007(3) 0.243(2) 0.3074(12)
H2 H 0.122(3) 0.3167(17) 0.3662(12)
N3 N 0.5889(2) 0.30185(15) 0.29136(10)
H3 H 0.557(3) 0.233(2) 0.2808(12)
H4 H 0.615(3) 0.3090(19) 0.2523(13)
N4 N -0.2746(2) 0.81735(15) 0.58165(9)
N5 N -0.1934(3) 0.84196(16) 0.36807(10)
C1 C -0.3047(2) 0.29841(17) 0.50822(11)
H5 H -0.3370 0.3664 0.5222
C2 C -0.3346(3) 0.23517(17) 0.55110(11)
H6 H -0.3879 0.2597 0.5931
C3 C -0.2873(3) 0.13647(17) 0.53324(11)
C4 C -0.2133(3) 0.10519(17) 0.47008(12)
H7 H -0.1793 0.0378 0.4551
C5 C -0.1893(2) 0.17153(17) 0.42914(11)
H8 H -0.1402 0.1477 0.3858
C6 C -0.3141(3) 0.0670(2) 0.57991(14)
H9 H -0.3418 -0.0078 0.5485
H10 H -0.4111 0.0843 0.6062
H11 H -0.2070 0.0794 0.6155
C7 C 0.1175(2) 0.35726(18) 0.27829(11)
H12 H 0.1515 0.4352 0.3028
H13 H 0.0263 0.3440 0.2348
C8 C 0.2770(2) 0.31362(18) 0.25246(10)
H14 H 0.2483 0.2349 0.2344
H15 H 0.3051 0.3369 0.2109
C9 C 0.4370(2) 0.35069(16) 0.31330(10)
H16 H 0.4715 0.4290 0.3282
H17 H 0.4052 0.3332 0.3566
C10 C -0.1931(2) 0.62069(15) 0.42870(10)
C11 C -0.2119(2) 0.72786(16) 0.45215(10)
C12 C -0.2477(2) 0.77711(16) 0.52372(11)
C13 C -0.1998(3) 0.79020(17) 0.40548(11)
Cd1_2 Cd 0.829105(15) 0.385632(11) 0.382374(7)
N3_2 N -0.4111(2) 0.30185(15) 0.29136(10)
Cd2 Cd 0.686616(15) 0.612062(11) 0.118363(7)
S3 S 0.65855(6) 0.43418(4) 0.15685(3)
S4 S 0.72485(6) 0.44900(4) 0.01222(3)
N6 N 0.74791(19) 0.72857(13) 0.05257(8)
N7 N 0.4711(2) 0.68688(15) 0.16987(10)
H18 H 0.503(3) 0.756(2) 0.1923(12)
H19 H 0.391(3) 0.6817(17) 0.1354(11)
N8 N -0.0737(2) 0.69519(15) 0.20920(10)
H20 H -0.097(3) 0.686(2) 0.2481(14)
H21 H -0.049(3) 0.763(2) 0.2197(12)
N9 N 0.6860(3) 0.15291(16) 0.12879(10)
N10 N 0.7542(2) 0.17469(15) -0.08728(9)
C14 C 0.7060(2) 0.82580(17) 0.07151(11)
H22 H 0.6597 0.8501 0.1155
C15 C 0.7269(3) 0.89174(17) 0.03035(12)
H23 H 0.6932 0.9592 0.0457
C16 C 0.7975(2) 0.86003(16) -0.03391(11)
C17 C 0.8449(2) 0.76100(17) -0.05213(11)
H24 H 0.8964 0.7362 -0.0947
C18 C 0.8179(2) 0.69819(17) -0.00884(11)
H25 H 0.8502 0.6302 -0.0231
C19 C 0.8200(3) 0.92971(19) -0.08057(13)
H26 H 0.9129 0.9113 -0.1091
H27 H 0.8517 1.0044 -0.0489
H28 H 0.7100 0.9189 -0.1142
C20 C 0.3966(2) 0.63859(17) 0.22113(10)
H29 H 0.4882 0.6514 0.2644
H30 H 0.3620 0.5607 0.1963
C21 C 0.2377(2) 0.68260(18) 0.24751(10)
H31 H 0.2094 0.6588 0.2888
H32 H 0.2671 0.7613 0.2660
C22 C 0.0778(2) 0.64645(16) 0.18657(10)
H33 H 0.1096 0.6649 0.1436
H34 H 0.0431 0.5681 0.1710
C23 C 0.6954(2) 0.37496(15) 0.06952(10)
C24 C 0.7054(2) 0.26647(16) 0.04446(10)
C25 C 0.6923(3) 0.20399(17) 0.09085(11)
C26 C 0.7335(2) 0.21595(16) -0.02840(11)
Cd2_2 Cd -0.313384(15) 0.612062(11) 0.118363(7)
N8_2 N 0.9263(2) 0.69519(15) 0.20920(10)
O1 O 0.8935(2) 0.07232(14) -0.21562(9)
H35 H 0.961(3) 0.037(2) -0.2104(13)
H36 H 0.870(3) 0.096(2) -0.1754(14)
O2 O -0.4194(2) 0.93298(15) 0.70768(10)
H37 H -0.330(5) 0.973(3) 0.7319(19)
H38 H -0.403(3) 0.904(2) 0.6718(15)
O3 O 0.8758(2) 0.07519(14) 0.23234(9)
H39 H 0.803(3) 0.031(2) 0.2418(14)
H40 H 0.825(3) 0.095(2) 0.2081(15)
O4 O -0.6408(2) 1.07592(14) 0.73847(9)
H41 H -0.689(3) 1.087(2) 0.7096(13)
H42 H -0.577(3) 1.037(2) 0.7267(14)
loop_
_geom_bond_atom_site_label_1
_geom_bond_atom_site_label_2
_geom_bond_site_symmetry_1
_geom_bond_site_symmetry_2
Cd1 S1 1_555 1_555
S1 C10 1_555 1_555
S2 Cd1 1_555 1_555
N1 Cd1 1_555 1_555
N2 Cd1 1_555 1_555
H1 N2 1_555 1_555
H2 N2 1_555 1_555
N3 H3 1_555 1_555
H4 N3 1_555 1_555
N4 C12 1_555 1_555
N5 C13 1_555 1_555
C1 N1 1_555 1_555
H5 C1 1_555 1_555
C2 C1 1_555 1_555
H6 C2 1_555 1_555
C3 C2 1_555 1_555
C4 C3 1_555 1_555
H7 C4 1_555 1_555
C5 N1 1_555 1_555
H8 C5 1_555 1_555
C6 C3 1_555 1_555
H9 C6 1_555 1_555
H10 C6 1_555 1_555
H11 C6 1_555 1_555
C7 N2 1_555 1_555
H12 C7 1_555 1_555
H13 C7 1_555 1_555
C8 C7 1_555 1_555
H14 C8 1_555 1_555
H15 C8 1_555 1_555
C9 N3 1_555 1_555
H16 C9 1_555 1_555
H17 C9 1_555 1_555
C10 S2 1_555 1_555
C11 C10 1_555 1_555
C12 C11 1_555 1_555
C13 C11 1_555 1_555
Cd2 S3 1_555 1_555
S3 C23 1_555 1_555
S4 Cd2 1_555 1_555
N6 Cd2 1_555 1_555
N7 Cd2 1_555 1_555
H18 N7 1_555 1_555
H19 N7 1_555 1_555
N8 H20 1_555 1_555
H21 N8 1_555 1_555
N9 C25 1_555 1_555
N10 C26 1_555 1_555
C14 N6 1_555 1_555
H22 C14 1_555 1_555
C15 C14 1_555 1_555
H23 C15 1_555 1_555
C16 C15 1_555 1_555
C17 C16 1_555 1_555
H24 C17 1_555 1_555
C18 N6 1_555 1_555
H25 C18 1_555 1_555
C19 C16 1_555 1_555
H26 C19 1_555 1_555
H27 C19 1_555 1_555
H28 C19 1_555 1_555
C20 N7 1_555 1_555
H29 C20 1_555 1_555
H30 C20 1_555 1_555
C21 C20 1_555 1_555
H31 C21 1_555 1_555
H32 C21 1_555 1_555
C22 N8 1_555 1_555
H33 C22 1_555 1_555
H34 C22 1_555 1_555
C23 S4 1_555 1_555
C24 C23 1_555 1_555
C25 C24 1_555 1_555
C26 C24 1_555 1_555
O1 H35 1_555 1_555
H36 O1 1_555 1_555
O2 H37 1_555 1_555
H38 O2 1_555 1_555
O3 H39 1_555 1_555
H40 O3 1_555 1_555
O4 H41 1_555 1_555
H42 O4 1_555 1_555
Cd1_2 N3 1_555 1_555
N3_2 Cd1 1_555 1_555
Cd2_2 N8 1_555 1_555
N8_2 Cd2 1_555 1_555
C4 C5 1_555 1_555
C8 C9 1_555 1_555
C17 C18 1_555 1_555
C21 C22 1_555 1_555

#END
