
#######################################################################
#
#                 Cambridge Crystallographic Data Centre
#                                CCDC 
#
#######################################################################
#
# If this CIF has been generated from an entry in the Cambridge 
# Structural Database, then it will include bibliographic, chemical, 
# crystal, experimental, refinement or atomic coordinate data resulting 
# from the CCDC's data processing and validation procedures.
#
#######################################################################

data_ZUFBAD
_symmetry_cell_setting           triclinic
_symmetry_space_group_name_H-M   'P -1'
_symmetry_Int_Tables_number      2
_space_group_name_Hall           '-P 1'
loop_
_symmetry_equiv_pos_site_id
_symmetry_equiv_pos_as_xyz
1 x,y,z
2 -x,-y,-z
_cell_length_a                   13.925(2)
_cell_length_b                   15.102(4)
_cell_length_c                   13.446(3)
_cell_angle_alpha                101.52(2)
_cell_angle_beta                 116.88(1)
_cell_angle_gamma                88.04(2)
_cell_volume                     2466.22
loop_
_atom_site_label
_atom_site_type_symbol
_atom_site_fract_x
_atom_site_fract_y
_atom_site_fract_z
La1 La 0.1263(1) 0.1445(1) 0.1254(1)
La2 La 0.3963(1) 0.3478(1) 0.3764(1)
N1 N 0.1719(7) 0.6857(7) 0.2639(8)
N2 N 0.3460(8) 0.3477(9) -0.2188(10)
N3 N 0.1404(8) 0.1468(8) 0.7088(9)
N4 N -0.0329(7) 0.4360(8) 0.3427(8)
N5 N 0.3257(7) -0.1870(6) 0.1861(8)
N6 N -0.5249(8) 0.1044(7) -0.0333(11)
O1 O 0.2182(6) 0.2115(6) 0.0267(7)
O2 O -0.0023(5) 0.1276(5) -0.0913(6)
O3 O 0.2870(6) 0.2922(5) 0.4664(7)
O4 O 0.5114(5) 0.3614(5) 0.5960(6)
O5 O 0.0348(6) 0.2870(5) 0.0938(7)
C1 C 0.0971(8) 0.6055(7) 0.2035(9)
C2 C -0.0106(8) 0.6185(7) 0.1492(9)
C3 C -0.0832(8) 0.5434(7) 0.0944(9)
C4 C -0.0450(8) 0.4559(8) 0.0965(10)
C5 C 0.3924(7) 0.4094(8) 0.1770(10)
C6 C 0.3791(8) 0.4405(7) 0.0739(9)
C7 C 0.3724(8) 0.3803(8) -0.0219(9)
C8 C 0.3557(9) 0.4120(8) -0.1170(10)
C9 C 0.3476(9) 0.5032(10) -0.1185(10)
C10 C 0.3551(9) 0.5635(8) -0.0268(11)
C11 C 0.3705(8) 0.5322(8) 0.0685(10)
C12 C 0.1310(7) 0.0841(8) 0.3261(9)
C13 C 0.1331(8) 0.0510(8) 0.4274(10)
O6 O 0.1982(5) 0.3373(5) 0.2276(6)
O7 O 0.1368(7) 0.7608(6) 0.2743(9)
O8 O 0.2679(7) 0.6764(6) 0.3082(9)
O9 O 0.3954(5) 0.3252(4) 0.1774(6)
O10 O 0.3980(5) 0.4675(5) 0.2645(6)
O11 O 0.3695(9) 0.2710(8) -0.2108(9)
O12 O 0.3180(10) 0.3749(9) -0.3064(9)
O13 O 0.1270(5) 0.1678(5) 0.3256(6)
O14 O 0.1347(5) 0.0259(5) 0.2465(6)
O15 O 0.1566(10) 0.1168(9) 0.7924(9)
O16 O 0.1264(9) 0.2260(7) 0.7021(9)
O17 O 0.3673(5) 0.4885(5) 0.4761(6)
O18 O 0.4118(5) 0.6260(5) 0.5860(7)
O19 O -0.1282(6) 0.4512(7) 0.3091(8)
O20 O 0.0010(7) 0.3614(6) 0.3315(8)
O21 O 0.3225(5) 0.1641(5) 0.2725(6)
O22 O 0.4847(5) 0.2029(5) 0.4135(7)
O23 O 0.2311(7) -0.1734(6) 0.1419(8)
O24 O 0.3613(8) -0.2609(6) 0.1689(10)
O25 O -0.0509(5) 0.0938(5) 0.0922(6)
O26 O -0.1786(5) -0.0111(5) -0.0298(6)
O27 O -0.5519(7) 0.0427(7) -0.1157(9)
O28 O -0.5889(8) 0.1460(8) -0.0054(12)
C14 C 0.1029(8) 0.3514(7) 0.1580(10)
C15 C 0.0666(7) 0.4461(7) 0.1549(8)
C16 C 0.1382(7) 0.5219(7) 0.2075(8)
C17 C 0.1302(8) 0.1134(8) 0.5168(9)
C18 C 0.1433(9) 0.0813(8) 0.6118(9)
C19 C 0.1590(11) -0.0062(10) 0.6208(12)
C20 C 0.1600(11) -0.0682(10) 0.5287(11)
C21 C 0.1471(9) -0.0390(8) 0.4315(11)
C22 C 0.3450(8) 0.5642(7) 0.5227(8)
C23 C 0.2283(8) 0.5731(7) 0.4930(8)
C24 C 0.1531(8) 0.5010(7) 0.4398(8)
C25 C 0.0455(7) 0.5149(8) 0.4037(9)
C26 C 0.0088(9) 0.5984(9) 0.4201(11)
C27 C 0.0835(9) 0.6726(9) 0.4786(11)
C28 C 0.1932(8) 0.6596(8) 0.5150(10)
C29 C 0.4142(8) 0.1441(7) 0.3400(9)
C30 C 0.4430(8) 0.0452(7) 0.3362(10)
C31 C 0.3699(8) -0.0255(7) 0.2649(9)
C32 C 0.4022(8) -0.1124(8) 0.2653(10)
C33 C 0.5060(10) -0.1319(9) 0.3348(12)
C34 C 0.5775(10) -0.0636(10) 0.4041(13)
C35 C 0.5474(9) 0.0278(9) 0.4055(12)
C36 C -0.1467(7) 0.0578(7) 0.0423(9)
C37 C -0.2286(8) 0.1101(7) 0.0704(9)
C38 C -0.3357(8) 0.0821(8) 0.0127(10)
C39 C -0.4101(9) 0.1322(9) 0.0370(12)
C40 C -0.3794(11) 0.2077(10) 0.1245(14)
C41 C -0.2715(11) 0.2402(9) 0.1846(11)
C42 C -0.1937(9) 0.1894(8) 0.1587(10)
O18A O 0.5882(5) 0.3740(5) 0.4140(7)
O26A O 0.1786(5) 0.0111(5) 0.0298(6)
La2A La 0.6037(1) 0.6522(1) 0.6236(1)
La1A La -0.1263(1) -0.1445(1) -0.1254(1)
loop_
_geom_bond_atom_site_label_1
_geom_bond_atom_site_label_2
_geom_bond_site_symmetry_1
_geom_bond_site_symmetry_2
La1 O1 1_555 1_555
La2 O3 1_555 1_555
N1 C1 1_555 1_555
N2 C8 1_555 1_555
N3 O15 1_555 1_555
N4 O19 1_555 1_555
N5 O23 1_555 1_555
N6 O27 1_555 1_555
O2 La1 1_555 1_555
O4 La2 1_555 1_555
O5 La1 1_555 1_555
C1 C2 1_555 1_555
C2 C3 1_555 1_555
C3 C4 1_555 1_555
C4 C15 1_555 1_555
C5 C6 1_555 1_555
C6 C7 1_555 1_555
C7 C8 1_555 1_555
C8 C9 1_555 1_555
C9 C10 1_555 1_555
C10 C11 1_555 1_555
C11 C6 1_555 1_555
C12 C13 1_555 1_555
C13 C17 1_555 1_555
O6 La1 1_555 1_555
O7 N1 1_555 1_555
O8 N1 1_555 1_555
O9 La2 1_555 1_555
O10 La2 1_555 1_555
O11 N2 1_555 1_555
O12 N2 1_555 1_555
O13 La1 1_555 1_555
O14 La1 1_555 1_555
O16 N3 1_555 1_555
O17 La2 1_555 1_555
O18 C22 1_555 1_555
O20 N4 1_555 1_555
O21 La1 1_555 1_555
O22 La2 1_555 1_555
O24 N5 1_555 1_555
O25 La1 1_555 1_555
O26 C36 1_555 1_555
O28 N6 1_555 1_555
C14 O5 1_555 1_555
C15 C14 1_555 1_555
C16 C1 1_555 1_555
C17 C18 1_555 1_555
C18 N3 1_555 1_555
C19 C18 1_555 1_555
C20 C19 1_555 1_555
C21 C13 1_555 1_555
C22 O17 1_555 1_555
C23 C22 1_555 1_555
C24 C23 1_555 1_555
C25 N4 1_555 1_555
C26 C25 1_555 1_555
C27 C26 1_555 1_555
C28 C23 1_555 1_555
C29 O21 1_555 1_555
C30 C29 1_555 1_555
C31 C30 1_555 1_555
C32 N5 1_555 1_555
C33 C32 1_555 1_555
C34 C33 1_555 1_555
C35 C30 1_555 1_555
C36 O25 1_555 1_555
C37 C36 1_555 1_555
C38 C37 1_555 1_555
C39 N6 1_555 1_555
C40 C39 1_555 1_555
C41 C40 1_555 1_555
C42 C37 1_555 1_555
O18A La2 1_555 1_555
O26A La1 1_555 1_555
La2A O18 1_555 1_555
La1A O26 1_555 1_555
La2 O6 1_555 1_555
La2 O21 1_555 1_555
C5 O9 1_555 1_555
C5 O10 1_555 1_555
C12 O13 1_555 1_555
C12 O14 1_555 1_555
O6 C14 1_555 1_555
O22 C29 1_555 1_555
C15 C16 1_555 1_555
C20 C21 1_555 1_555
C24 C25 1_555 1_555
C27 C28 1_555 1_555
C31 C32 1_555 1_555
C34 C35 1_555 1_555
C38 C39 1_555 1_555
C41 C42 1_555 1_555

#END
