
#######################################################################
#
#                 Cambridge Crystallographic Data Centre
#                                CCDC 
#
#######################################################################
#
# If this CIF has been generated from an entry in the Cambridge 
# Structural Database, then it will include bibliographic, chemical, 
# crystal, experimental, refinement or atomic coordinate data resulting 
# from the CCDC's data processing and validation procedures.
#
#######################################################################

data_ZUFCOU
_symmetry_cell_setting           triclinic
_symmetry_space_group_name_H-M   'P -1'
_symmetry_Int_Tables_number      2
_space_group_name_Hall           '-P 1'
loop_
_symmetry_equiv_pos_site_id
_symmetry_equiv_pos_as_xyz
1 x,y,z
2 -x,-y,-z
_cell_length_a                   7.6995(15)
_cell_length_b                   13.641(3)
_cell_length_c                   19.040(4)
_cell_angle_alpha                109.24(3)
_cell_angle_beta                 93.49(3)
_cell_angle_gamma                92.70(3)
_cell_volume                     1879.76
loop_
_atom_site_label
_atom_site_type_symbol
_atom_site_fract_x
_atom_site_fract_y
_atom_site_fract_z
C1 C 0.6551(7) 0.1175(4) 0.2315(3)
C2 C 0.7787(7) 0.1774(4) 0.2954(3)
C3 C 0.9483(8) 0.1564(5) 0.3041(3)
H1 H 0.9923 0.0998 0.2693
C4 C 1.0575(8) 0.2208(5) 0.3662(3)
C5 C 1.2354(9) 0.2044(6) 0.3792(4)
H2 H 1.2859 0.1497 0.3454
C6 C 1.3333(10) 0.2684(7) 0.4411(4)
H3 H 1.4496 0.2565 0.4491
C7 C 1.2600(11) 0.3518(7) 0.4927(4)
H4 H 1.3278 0.3947 0.5346
C8 C 1.0897(10) 0.3703(6) 0.4816(4)
H5 H 1.0419 0.4256 0.5162
C9 C 0.9852(9) 0.3059(5) 0.4178(3)
C10 C 0.7172(8) 0.2652(5) 0.3503(3)
H6 H 0.6014 0.2794 0.3439
C11 C 0.2422(7) -0.0745(4) 0.1865(3)
C12 C 0.2703(8) -0.0888(5) 0.2600(3)
C13 C 0.1342(9) -0.0975(5) 0.3003(3)
H7 H 0.0206 -0.0974 0.2808
C14 C 0.1642(11) -0.1066(5) 0.3720(4)
C15 C 0.0268(13) -0.1177(7) 0.4155(4)
H8 H -0.0886 -0.1195 0.3973
C16 C 0.0650(14) -0.1260(7) 0.4853(5)
H9 H -0.0236 -0.1341 0.5145
C17 C 0.2379(15) -0.1219(7) 0.5103(5)
H10 H 0.2624 -0.1259 0.5577
C18 C 0.3752(14) -0.1122(7) 0.4709(5)
H11 H 0.4891 -0.1105 0.4908
C19 C 0.3414(11) -0.1049(6) 0.3982(4)
C20 C 0.4410(9) -0.0885(6) 0.2922(4)
H12 H 0.5334 -0.0827 0.2642
C21 C 0.5978(7) 0.2703(5) 0.0778(3)
C22 C 0.5310(7) 0.3662(5) 0.1319(3)
C23 C 0.5008(8) 0.3716(5) 0.2035(3)
H13 H 0.5279 0.3172 0.2205
C24 C 0.4289(8) 0.4596(5) 0.2507(3)
C25 C 0.3928(9) 0.4680(6) 0.3247(4)
H14 H 0.4180 0.4147 0.3432
C26 C 0.3213(10) 0.5541(6) 0.3683(4)
H15 H 0.2987 0.5598 0.4168
C27 C 0.2813(10) 0.6346(5) 0.3406(4)
H16 H 0.2332 0.6933 0.3713
C28 C 0.3120(9) 0.6279(5) 0.2693(4)
H17 H 0.2841 0.6818 0.2518
C29 C 0.3859(7) 0.5398(4) 0.2222(4)
C30 C 0.4811(8) 0.4500(5) 0.1082(4)
H18 H 0.4979 0.4452 0.0592
C31 C 0.0875(7) 0.2070(4) 0.1343(3)
C32 C 0.0308(6) 0.3147(4) 0.1477(3)
C33 C -0.0225(7) 0.3711(4) 0.2168(3)
H19 H -0.0250 0.3416 0.2544
C34 C -0.0725(7) 0.4723(4) 0.2301(3)
C35 C -0.1340(8) 0.5333(5) 0.2993(3)
H20 H -0.1382 0.5064 0.3382
C36 C -0.1862(9) 0.6300(5) 0.3086(3)
H21 H -0.2285 0.6683 0.3535
C37 C -0.1769(9) 0.6730(5) 0.2506(3)
H22 H -0.2101 0.7401 0.2579
C38 C -0.1198(8) 0.6164(4) 0.1843(3)
H23 H -0.1169 0.6450 0.1463
C39 C -0.0649(7) 0.5160(4) 0.1718(3)
C40 C 0.0300(7) 0.3631(4) 0.0927(3)
C41 C 0.0791(7) 0.3046(4) 0.0150(3)
Co1 Co 0.0000 0.5000 0.0000
Tb1 Tb 0.88715(3) -0.037435(18) 0.079043(12)
Tb2 Tb 0.42068(3) 0.056382(18) 0.096446(12)
N1 N 0.8129(8) 0.3279(5) 0.4095(3)
N2 N 0.4797(9) -0.0957(6) 0.3586(4)
N3 N 0.4140(7) 0.5326(4) 0.1498(3)
N4 N -0.0147(6) 0.4590(3) 0.1029(2)
O1 O 0.4979(5) 0.1395(3) 0.2312(2)
O2 O 0.7078(5) 0.0445(3) 0.1767(2)
O3 O 0.3686(5) -0.0786(3) 0.1473(2)
O4 O 0.0907(6) -0.0545(4) 0.1691(2)
O5 O 0.6134(5) 0.1935(3) 0.1008(2)
O6 O 0.6221(7) 0.2675(4) 0.0135(3)
O7 O 0.2477(5) 0.1945(3) 0.1295(3)
O8 O -0.0253(5) 0.1369(3) 0.1319(2)
O9 O 0.0749(5) 0.2075(3) -0.0035(2)
O10 O 0.1211(6) 0.3569(3) -0.0253(2)
O11 O 0.5948(4) -0.0701(3) 0.02570(18)
H24 H 0.5426 -0.1282 0.0220
O12 O 0.7293(6) -0.1678(3) 0.1311(2)
H25 H 0.7388 -0.2307 0.1046
H26 H 0.7780 -0.1557 0.1747
O13 O 0.1596(4) -0.0291(3) 0.02399(18)
H27 H 0.1857 -0.0919 0.0068
O14 O 0.2315(6) 0.5883(4) 0.0422(3)
H28 H 0.2910 0.5855 0.0805
H29 H 0.2795 0.6333 0.0261
C1A C -0.6551(7) 0.8825(4) -0.2315(3)
C2A C -0.7787(7) 0.8226(4) -0.2954(3)
C3A C -0.9483(8) 0.8436(5) -0.3041(3)
H1A H -0.9923 0.9002 -0.2693
C4A C -1.0575(8) 0.7792(5) -0.3662(3)
C5A C -1.2354(9) 0.7956(6) -0.3792(4)
H2A H -1.2859 0.8503 -0.3454
C6A C -1.3333(10) 0.7316(7) -0.4411(4)
H3A H -1.4496 0.7435 -0.4491
C7A C -1.2600(11) 0.6482(7) -0.4927(4)
H4A H -1.3278 0.6053 -0.5346
C8A C -1.0897(10) 0.6297(6) -0.4816(4)
H5A H -1.0419 0.5744 -0.5162
C9A C -0.9852(9) 0.6941(5) -0.4178(3)
C10A C -0.7172(8) 0.7348(5) -0.3503(3)
H6A H -0.6014 0.7206 -0.3439
C11A C -0.2422(7) 1.0745(4) -0.1865(3)
C12A C -0.2703(8) 1.0888(5) -0.2600(3)
C13A C -0.1342(9) 1.0975(5) -0.3003(3)
H7A H -0.0206 1.0974 -0.2808
C14A C -0.1642(11) 1.1066(5) -0.3720(4)
C15A C -0.0268(13) 1.1177(7) -0.4155(4)
H8A H 0.0886 1.1195 -0.3973
C16A C -0.0650(14) 1.1260(7) -0.4853(5)
H9A H 0.0236 1.1341 -0.5145
C17A C -0.2379(15) 1.1219(7) -0.5103(5)
H10A H -0.2624 1.1259 -0.5577
C18A C -0.3752(14) 1.1122(7) -0.4709(5)
H11A H -0.4891 1.1105 -0.4908
C19A C -0.3414(11) 1.1049(6) -0.3982(4)
C20A C -0.4410(9) 1.0885(6) -0.2922(4)
H12A H -0.5334 1.0827 -0.2642
C21A C -0.5978(7) 0.7297(5) -0.0778(3)
C22A C -0.5310(7) 0.6338(5) -0.1319(3)
C23A C -0.5008(8) 0.6284(5) -0.2035(3)
H13A H -0.5279 0.6828 -0.2205
C24A C -0.4289(8) 0.5404(5) -0.2507(3)
C25A C -0.3928(9) 0.5320(6) -0.3247(4)
H14A H -0.4180 0.5853 -0.3432
C26A C -0.3213(10) 0.4459(6) -0.3683(4)
H15A H -0.2987 0.4402 -0.4168
C27A C -0.2813(10) 0.3654(5) -0.3406(4)
H16A H -0.2332 0.3067 -0.3713
C28A C -0.3120(9) 0.3721(5) -0.2693(4)
H17A H -0.2841 0.3182 -0.2518
C29A C -0.3859(7) 0.4602(4) -0.2222(4)
C30A C -0.4811(8) 0.5500(5) -0.1082(4)
H18A H -0.4979 0.5548 -0.0592
C31A C -0.0875(7) 0.7930(4) -0.1343(3)
C32A C -0.0308(6) 0.6853(4) -0.1477(3)
C33A C 0.0225(7) 0.6289(4) -0.2168(3)
H19A H 0.0250 0.6584 -0.2544
C34A C 0.0725(7) 0.5277(4) -0.2301(3)
C35A C 0.1340(8) 0.4667(5) -0.2993(3)
H20A H 0.1382 0.4936 -0.3382
C36A C 0.1862(9) 0.3700(5) -0.3086(3)
H21A H 0.2285 0.3317 -0.3535
C37A C 0.1769(9) 0.3270(5) -0.2506(3)
H22A H 0.2101 0.2599 -0.2579
C38A C 0.1198(8) 0.3836(4) -0.1843(3)
H23A H 0.1169 0.3550 -0.1463
C39A C 0.0649(7) 0.4840(4) -0.1718(3)
C40A C -0.0300(7) 0.6369(4) -0.0927(3)
C41A C -0.0791(7) 0.6954(4) -0.0150(3)
Tb1A Tb -0.88715(3) 1.037435(18) -0.079043(12)
Tb2A Tb -0.42068(3) 0.943618(18) -0.096446(12)
N1A N -0.8129(8) 0.6721(5) -0.4095(3)
N2A N -0.4797(9) 1.0957(6) -0.3586(4)
N3A N -0.4140(7) 0.4674(4) -0.1498(3)
N4A N 0.0147(6) 0.5410(3) -0.1029(2)
O1A O -0.4979(5) 0.8605(3) -0.2312(2)
O2A O -0.7078(5) 0.9555(3) -0.1767(2)
O3A O -0.3686(5) 1.0786(3) -0.1473(2)
O4A O -0.0907(6) 1.0545(4) -0.1691(2)
O5A O -0.6134(5) 0.8065(3) -0.1008(2)
O6A O -0.6221(7) 0.7325(4) -0.0135(3)
O7A O -0.2477(5) 0.8055(3) -0.1295(3)
O8A O 0.0253(5) 0.8631(3) -0.1319(2)
O9A O -0.0749(5) 0.7925(3) 0.0035(2)
O10A O -0.1211(6) 0.6431(3) 0.0253(2)
O11A O -0.5948(4) 1.0701(3) -0.02570(18)
H24A H -0.5426 1.1282 -0.0220
O12A O -0.7293(6) 1.1678(3) -0.1311(2)
H25A H -0.7388 1.2307 -0.1046
H26A H -0.7780 1.1557 -0.1747
O13A O -0.1596(4) 1.0291(3) -0.02399(18)
H27A H -0.1857 1.0919 -0.0068
O14A O -0.2315(6) 0.4117(4) -0.0422(3)
H28A H -0.2910 0.4145 -0.0805
H29A H -0.2795 0.3667 -0.0261
Tb1_2 Tb -0.11285(3) -0.037435(18) 0.079043(12)
Tb1_3 Tb -0.11285(3) 0.962565(18) 0.079043(12)
Tb1A_2 Tb 0.11285(3) 0.037435(18) -0.079043(12)
Tb1A_3 Tb 0.11285(3) 1.037435(18) -0.079043(12)
Tb2_2 Tb -0.57932(3) 1.056382(18) 0.096446(12)
Tb2A_2 Tb 0.57932(3) -0.056382(18) -0.096446(12)
O4_2 O 1.0907(6) -0.0545(4) 0.1691(2)
O4A_2 O -1.0907(6) 1.0545(4) -0.1691(2)
O8_2 O 0.9747(5) 0.1369(3) 0.1319(2)
O8A_2 O -0.9747(5) 0.8631(3) -0.1319(2)
O9_2 O -0.9251(5) 1.2075(3) -0.0035(2)
O9A_2 O 0.9251(5) -0.2075(3) 0.0035(2)
O11_2 O -0.4052(4) 0.9299(3) 0.02570(18)
O11A_2 O 0.4052(4) 0.0701(3) -0.02570(18)
O13_2 O -0.8404(4) 0.9709(3) 0.02399(18)
O13_3 O 1.1596(4) -0.0291(3) 0.02399(18)
O13A_2 O -1.1596(4) 1.0291(3) -0.02399(18)
O13A_3 O 0.8404(4) 0.0291(3) -0.02399(18)
loop_
_geom_bond_atom_site_label_1
_geom_bond_atom_site_label_2
_geom_bond_site_symmetry_1
_geom_bond_site_symmetry_2
C1 C2 1_555 1_555
C2 C3 1_555 1_555
C3 H1 1_555 1_555
C4 C3 1_555 1_555
C5 C4 1_555 1_555
H2 C5 1_555 1_555
C6 C5 1_555 1_555
H3 C6 1_555 1_555
C7 C6 1_555 1_555
H4 C7 1_555 1_555
C8 C7 1_555 1_555
H5 C8 1_555 1_555
C9 C4 1_555 1_555
C10 C2 1_555 1_555
H6 C10 1_555 1_555
C11 C12 1_555 1_555
C12 C13 1_555 1_555
C13 H7 1_555 1_555
C14 C13 1_555 1_555
C15 C14 1_555 1_555
H8 C15 1_555 1_555
C16 C15 1_555 1_555
H9 C16 1_555 1_555
C17 C16 1_555 1_555
H10 C17 1_555 1_555
C18 C17 1_555 1_555
H11 C18 1_555 1_555
C19 C14 1_555 1_555
C20 C12 1_555 1_555
H12 C20 1_555 1_555
C21 C22 1_555 1_555
C22 C23 1_555 1_555
C23 H13 1_555 1_555
C24 C23 1_555 1_555
C25 C24 1_555 1_555
H14 C25 1_555 1_555
C26 C25 1_555 1_555
H15 C26 1_555 1_555
C27 C26 1_555 1_555
H16 C27 1_555 1_555
C28 C27 1_555 1_555
H17 C28 1_555 1_555
C29 C24 1_555 1_555
C30 C22 1_555 1_555
H18 C30 1_555 1_555
C31 C32 1_555 1_555
C32 C33 1_555 1_555
C33 H19 1_555 1_555
C34 C33 1_555 1_555
C35 C34 1_555 1_555
H20 C35 1_555 1_555
C36 C35 1_555 1_555
H21 C36 1_555 1_555
C37 C36 1_555 1_555
H22 C37 1_555 1_555
C38 C37 1_555 1_555
H23 C38 1_555 1_555
C39 C34 1_555 1_555
C40 C32 1_555 1_555
C41 C40 1_555 1_555
Co1 N4 1_555 1_555
Tb1 O2 1_555 1_555
Tb2 O1 1_555 1_555
N1 C9 1_555 1_555
N2 C19 1_555 1_555
N3 C29 1_555 1_555
N4 C39 1_555 1_555
O1 C1 1_555 1_555
O2 C1 1_555 1_555
O3 C11 1_555 1_555
O4 C11 1_555 1_555
O5 C21 1_555 1_555
O6 C21 1_555 1_555
O7 C31 1_555 1_555
O8 C31 1_555 1_555
O9 C41 1_555 1_555
O10 C41 1_555 1_555
O11 Tb1 1_555 1_555
H24 O11 1_555 1_555
O12 Tb1 1_555 1_555
H25 O12 1_555 1_555
H26 O12 1_555 1_555
O13 Tb2 1_555 1_555
H27 O13 1_555 1_555
O14 Co1 1_555 1_555
H28 O14 1_555 1_555
H29 O14 1_555 1_555
C1A C2A 1_555 1_555
C2A C3A 1_555 1_555
C3A H1A 1_555 1_555
C4A C3A 1_555 1_555
C5A C4A 1_555 1_555
H2A C5A 1_555 1_555
C6A C5A 1_555 1_555
H3A C6A 1_555 1_555
C7A C6A 1_555 1_555
H4A C7A 1_555 1_555
C8A C7A 1_555 1_555
H5A C8A 1_555 1_555
C9A C4A 1_555 1_555
C10A C2A 1_555 1_555
H6A C10A 1_555 1_555
C11A C12A 1_555 1_555
C12A C13A 1_555 1_555
C13A H7A 1_555 1_555
C14A C13A 1_555 1_555
C15A C14A 1_555 1_555
H8A C15A 1_555 1_555
C16A C15A 1_555 1_555
H9A C16A 1_555 1_555
C17A C16A 1_555 1_555
H10A C17A 1_555 1_555
C18A C17A 1_555 1_555
H11A C18A 1_555 1_555
C19A C14A 1_555 1_555
C20A C12A 1_555 1_555
H12A C20A 1_555 1_555
C21A C22A 1_555 1_555
C22A C23A 1_555 1_555
C23A H13A 1_555 1_555
C24A C23A 1_555 1_555
C25A C24A 1_555 1_555
H14A C25A 1_555 1_555
C26A C25A 1_555 1_555
H15A C26A 1_555 1_555
C27A C26A 1_555 1_555
H16A C27A 1_555 1_555
C28A C27A 1_555 1_555
H17A C28A 1_555 1_555
C29A C24A 1_555 1_555
C30A C22A 1_555 1_555
H18A C30A 1_555 1_555
C31A C32A 1_555 1_555
C32A C33A 1_555 1_555
C33A H19A 1_555 1_555
C34A C33A 1_555 1_555
C35A C34A 1_555 1_555
H20A C35A 1_555 1_555
C36A C35A 1_555 1_555
H21A C36A 1_555 1_555
C37A C36A 1_555 1_555
H22A C37A 1_555 1_555
C38A C37A 1_555 1_555
H23A C38A 1_555 1_555
C39A C34A 1_555 1_555
C40A C32A 1_555 1_555
C41A C40A 1_555 1_555
Tb1A O2A 1_555 1_555
Tb2A O1A 1_555 1_555
N1A C9A 1_555 1_555
N2A C19A 1_555 1_555
N3A C29A 1_555 1_555
N4A Co1 1_555 1_555
O1A C1A 1_555 1_555
O2A C1A 1_555 1_555
O3A C11A 1_555 1_555
O4A C11A 1_555 1_555
O5A C21A 1_555 1_555
O6A C21A 1_555 1_555
O7A C31A 1_555 1_555
O8A C31A 1_555 1_555
O9A C41A 1_555 1_555
O10A Co1 1_555 1_555
O11A Tb1A 1_555 1_555
H24A O11A 1_555 1_555
O12A Tb1A 1_555 1_555
H25A O12A 1_555 1_555
H26A O12A 1_555 1_555
O13A Tb2A 1_555 1_555
H27A O13A 1_555 1_555
O14A Co1 1_555 1_555
H28A O14A 1_555 1_555
H29A O14A 1_555 1_555
Tb1_2 O4 1_555 1_555
Tb1_3 O9A 1_555 1_555
Tb1A_2 O9 1_555 1_555
Tb1A_3 O4A 1_555 1_555
Tb2_2 O11A 1_555 1_555
Tb2A_2 O11 1_555 1_555
O4_2 Tb1 1_555 1_555
O4A_2 Tb1A 1_555 1_555
O8_2 Tb1 1_555 1_555
O8A_2 Tb1A 1_555 1_555
O9_2 Tb1A 1_555 1_555
O9A_2 Tb1 1_555 1_555
O11_2 Tb2A 1_555 1_555
O11A_2 Tb2 1_555 1_555
O13_2 Tb1A 1_555 1_555
O13_3 Tb1 1_555 1_555
O13A_2 Tb1A 1_555 1_555
O13A_3 Tb1 1_555 1_555
C8 C9 1_555 1_555
C10 N1 1_555 1_555
C18 C19 1_555 1_555
C20 N2 1_555 1_555
C28 C29 1_555 1_555
C30 N3 1_555 1_555
C38 C39 1_555 1_555
C40 N4 1_555 1_555
Co1 O10 1_555 1_555
Tb2 O2 1_555 1_555
Tb2 O3 1_555 1_555
Tb2 O5 1_555 1_555
Tb2 O7 1_555 1_555
Tb2 O11 1_555 1_555
O8 Tb1_2 1_555 1_555
O13 Tb1_2 1_555 1_555
O13 Tb1A_2 1_555 1_555
C8A C9A 1_555 1_555
C10A N1A 1_555 1_555
C18A C19A 1_555 1_555
C20A N2A 1_555 1_555
C28A C29A 1_555 1_555
C30A N3A 1_555 1_555
C38A C39A 1_555 1_555
C39A N4A 1_555 1_555
C40A N4A 1_555 1_555
C41A O10A 1_555 1_555
Tb2A O2A 1_555 1_555
Tb2A O3A 1_555 1_555
Tb2A O5A 1_555 1_555
Tb2A O7A 1_555 1_555
Tb2A O11A 1_555 1_555
O8A Tb1A_3 1_555 1_555
O13A Tb1_3 1_555 1_555
O13A Tb1A_3 1_555 1_555
Tb1_3 O11_2 1_555 1_555
Tb1A_2 O11A_2 1_555 1_555
Tb2_2 O11_2 1_555 1_555
Tb2_2 O13_2 1_555 1_555
Tb2A_2 O11A_2 1_555 1_555
Tb2A_2 O13A_3 1_555 1_555

#END
