
#######################################################################
#
#                 Cambridge Crystallographic Data Centre
#                                CCDC 
#
#######################################################################
#
# If this CIF has been generated from an entry in the Cambridge 
# Structural Database, then it will include bibliographic, chemical, 
# crystal, experimental, refinement or atomic coordinate data resulting 
# from the CCDC's data processing and validation procedures.
#
#######################################################################

data_ZUFGUC
_symmetry_cell_setting           monoclinic
_symmetry_space_group_name_H-M   'C 2/c'
_symmetry_Int_Tables_number      15
_space_group_name_Hall           '-C 2yn'
loop_
_symmetry_equiv_pos_site_id
_symmetry_equiv_pos_as_xyz
1 x,y,z
2 -x,y,1/2-z
3 1/2+x,1/2+y,z
4 1/2-x,1/2+y,1/2-z
5 -x,-y,-z
6 x,-y,1/2+z
7 1/2-x,1/2-y,-z
8 1/2+x,1/2-y,1/2+z
_cell_length_a                   23.298(3)
_cell_length_b                   6.456(3)
_cell_length_c                   17.072(2)
_cell_angle_alpha                90
_cell_angle_beta                 101.01(1)
_cell_angle_gamma                90
_cell_volume                     2520.57
loop_
_atom_site_label
_atom_site_type_symbol
_atom_site_fract_x
_atom_site_fract_y
_atom_site_fract_z
Mn1 Mn 0.25000 0.25000 -0.50000
O10 O 0.28831(9) -0.0549(3) -0.4642(1)
O11 O 0.17061(8) 0.1547(3) -0.4618(1)
O12 O 0.21739(9) 0.1200(3) -0.6150(1)
H7 H 0.3035 -0.1177 -0.5044
H8 H 0.3129 -0.0497 -0.4171
H9 H 0.1413 0.0715 -0.5000
H10 H 0.1421 0.2384 -0.4438
H11 H 0.1822 0.0447 -0.6249
H12 H 0.2211 0.1795 -0.6623
O10F O 0.21169(9) 0.5549(3) -0.5358(1)
O11F O 0.32939(8) 0.3453(3) -0.5382(1)
O12F O 0.28261(9) 0.3800(3) -0.3850(1)
H7F H 0.1965 0.6177 -0.4956
H8F H 0.1871 0.5497 -0.5829
H9F H 0.3587 0.4285 -0.5000
H10F H 0.3579 0.2616 -0.5562
H11F H 0.3178 0.4553 -0.3751
H12F H 0.2789 0.3205 -0.3377
Mn2 Mn -0.07088(2) 0.28317(5) -0.59347(2)
O1 O 0.05771(7) 0.0520(3) -0.4229(1)
O2 O 0.08484(7) 0.3794(3) -0.4027(1)
O3 O -0.05869(8) 0.3121(3) -0.46469(9)
O4 O -0.11101(8) 0.0695(3) -0.4175(1)
O5 O 0.15259(7) 0.0990(3) -0.2552(1)
O6 O 0.15074(7) 0.4044(3) -0.1942(1)
O7 O -0.16781(8) 0.2492(3) -0.6019(1)
O8 O 0.02223(8) 0.3059(3) -0.5887(1)
O9 O -0.08711(9) 0.2549(3) -0.7224(1)
C1 C 0.05813(9) 0.2184(3) -0.3863(1)
C2 C -0.0711(1) 0.2005(4) -0.4099(1)
C3 C 0.1268(1) 0.2456(4) -0.2284(1)
C4 C 0.02694(9) 0.2290(3) -0.3164(1)
C5 C -0.03402(9) 0.2255(3) -0.3271(1)
C6 C 0.06082(9) 0.2331(3) -0.2391(1)
H1 H -0.1911 0.2959 -0.6485
H2 H -0.1766 0.1029 -0.5967
H3 H 0.0383 0.4252 -0.5710
H4 H 0.0458 0.2009 -0.5587
H5 H -0.1100 0.1298 -0.7406
H6 H -0.1013 0.3619 -0.7598
C5A C 0.03402(9) 0.2255(3) -0.1729(1)
C6A C -0.06082(9) 0.2331(3) -0.2609(1)
C2A C 0.0711(1) 0.2005(4) -0.0901(1)
C4A C -0.02694(9) 0.2290(3) -0.1836(1)
Mn2D Mn 0.07088(2) 0.71683(5) -0.40653(2)
C3A C -0.1268(1) 0.2456(4) -0.2716(1)
O3A O 0.05869(8) 0.3121(3) -0.03531(9)
O4A O 0.11101(8) 0.0695(3) -0.0825(1)
C1A C -0.05813(9) 0.2184(3) -0.1137(1)
Mn2D_2 Mn 0.07088(2) -0.28317(5) -0.40653(2)
O5A O -0.15259(7) 0.0990(3) -0.2448(1)
O6A O -0.15074(7) 0.4044(3) -0.3058(1)
Mn2A Mn 0.07088(2) 0.28317(5) 0.09347(2)
O1A O -0.05771(7) 0.0520(3) -0.0771(1)
O2A O -0.08484(7) 0.3794(3) -0.0973(1)
Mn2E Mn -0.07088(2) -0.28317(5) -0.09347(2)
Mn2E_2 Mn -0.07088(2) 0.71683(5) -0.09347(2)
O1D O -0.05771(7) -0.0520(3) -0.5771(1)
O2D O -0.08484(7) 0.6206(3) -0.5973(1)
O1E O 0.05771(7) -0.0520(3) 0.0771(1)
O2E O 0.08484(7) 0.6206(3) 0.0973(1)
O7A O 0.16781(8) 0.2492(3) 0.1019(1)
O8A O -0.02223(8) 0.3059(3) 0.0887(1)
O9A O 0.08711(9) 0.2549(3) 0.2224(1)
H3A H -0.0383 0.4252 0.0710
H4A H -0.0458 0.2009 0.0587
H5A H 0.1100 0.1298 0.2406
H6A H 0.1013 0.3619 0.2598
H1A H 0.1911 0.2959 0.1485
H2A H 0.1766 0.1029 0.0967
O13 O 0.26880(8) 0.1576(3) -0.2531(1)
H13 H 0.2837 0.0325 -0.2739
H14 H 0.2282 0.1239 -0.2588
loop_
_geom_bond_atom_site_label_1
_geom_bond_atom_site_label_2
_geom_bond_site_symmetry_1
_geom_bond_site_symmetry_2
Mn1 O10 1_555 1_555
Mn2 O3 1_555 1_555
O1 C1 1_555 1_555
O2 C1 1_555 1_555
O3 C2 1_555 1_555
O4 C2 1_555 1_555
O5 C3 1_555 1_555
O6 C3 1_555 1_555
O7 Mn2 1_555 1_555
O8 Mn2 1_555 1_555
O9 Mn2 1_555 1_555
O10 H7 1_555 1_555
O11 Mn1 1_555 1_555
O12 Mn1 1_555 1_555
O13 H13 1_555 1_555
C1 C4 1_555 1_555
C2 C5 1_555 1_555
C3 C6 1_555 1_555
C4 C5 1_555 1_555
C5 C6A 1_555 1_555
C6 C4 1_555 1_555
H1 O7 1_555 1_555
H2 O7 1_555 1_555
H3 O8 1_555 1_555
H4 O8 1_555 1_555
H5 O9 1_555 1_555
H6 O9 1_555 1_555
H8 O10 1_555 1_555
H9 O11 1_555 1_555
H10 O11 1_555 1_555
H11 O12 1_555 1_555
H12 O12 1_555 1_555
H14 O13 1_555 1_555
O10F Mn1 1_555 1_555
O11F Mn1 1_555 1_555
O12F Mn1 1_555 1_555
C5A C6 1_555 1_555
C6A C4A 1_555 1_555
C2A C5A 1_555 1_555
C4A C5A 1_555 1_555
Mn2D O2 1_555 1_555
C3A C6A 1_555 1_555
O3A C2A 1_555 1_555
O4A C2A 1_555 1_555
C1A C4A 1_555 1_555
Mn2D_2 O1 1_555 1_555
O5A C3A 1_555 1_555
O6A C3A 1_555 1_555
Mn2A O3A 1_555 1_555
O1A C1A 1_555 1_555
O2A C1A 1_555 1_555
Mn2E O1A 1_555 1_555
Mn2E_2 O2A 1_555 1_555
H7F O10F 1_555 1_555
H8F O10F 1_555 1_555
H9F O11F 1_555 1_555
H10F O11F 1_555 1_555
H11F O12F 1_555 1_555
H12F O12F 1_555 1_555
O1D Mn2 1_555 1_555
O2D Mn2 1_555 1_555
O1E Mn2A 1_555 1_555
O2E Mn2A 1_555 1_555
O7A Mn2A 1_555 1_555
O8A Mn2A 1_555 1_555
O9A Mn2A 1_555 1_555
H3A O8A 1_555 1_555
H4A O8A 1_555 1_555
H5A O9A 1_555 1_555
H6A O9A 1_555 1_555
H1A O7A 1_555 1_555
H2A O7A 1_555 1_555

#END
