
#######################################################################
#
#                 Cambridge Crystallographic Data Centre
#                                CCDC 
#
#######################################################################
#
# If this CIF has been generated from an entry in the Cambridge 
# Structural Database, then it will include bibliographic, chemical, 
# crystal, experimental, refinement or atomic coordinate data resulting 
# from the CCDC's data processing and validation procedures.
#
#######################################################################

data_ZUFHIR
_symmetry_cell_setting           monoclinic
_symmetry_space_group_name_H-M   'P 21/n'
_symmetry_Int_Tables_number      14
_space_group_name_Hall           '-P 2yn'
loop_
_symmetry_equiv_pos_site_id
_symmetry_equiv_pos_as_xyz
1 x,y,z
2 1/2-x,1/2+y,1/2-z
3 -x,-y,-z
4 1/2+x,1/2-y,1/2+z
_cell_length_a                   22.323(6)
_cell_length_b                   9.523(2)
_cell_length_c                   27.502(5)
_cell_angle_alpha                90
_cell_angle_beta                 104.98(2)
_cell_angle_gamma                90
_cell_volume                     5647.74
loop_
_atom_site_label
_atom_site_type_symbol
_atom_site_fract_x
_atom_site_fract_y
_atom_site_fract_z
Re1 Re 0.47082(3) 0.11620(6) 0.22261(2)
Cr1 Cr 0.4812(1) 0.1409(2) 0.31765(7)
K1 K 0.5460(2) -0.3397(4) 0.3895(1)
P1 P 0.5395(2) 0.1306(4) 0.1698(1)
P2 P 0.3712(1) 0.1132(4) 0.1633(1)
O1 O 0.3835(5) 0.103(1) 0.3716(4)
O2 O 0.5549(6) -0.048(1) 0.3958(5)
O3 O 0.5321(6) -0.629(1) 0.3884(4)
O4 O 0.5166(6) -0.351(2) 0.2851(5)
O5 O 0.6390(7) -0.402(2) 0.3394(6)
O6 O 0.6709(6) -0.334(2) 0.4429(6)
O7 O 0.5757(7) -0.319(2) 0.4950(5)
O8 O 0.4537(6) -0.280(2) 0.4375(6)
O9 O 0.4215(6) -0.351(1) 0.3349(5)
C1 C 0.4204(6) 0.121(2) 0.3493(5)
C2 C 0.5264(7) 0.027(1) 0.3651(6)
C3 C 0.5121(8) 0.281(2) 0.3596(5)
C4 C 0.560(1) -0.419(3) 0.2675(9)
C5 C 0.620(1) -0.368(3) 0.289(1)
C6 C 0.695(1) -0.362(3) 0.368(1)
C7 C 0.711(1) -0.401(4) 0.419(1)
C8 C 0.681(1) -0.362(3) 0.490(1)
C9 C 0.640(1) -0.284(3) 0.5131(8)
C10 C 0.533(1) -0.241(3) 0.5111(8)
C11 C 0.470(1) -0.290(3) 0.4886(8)
C12 C 0.3967(8) -0.333(3) 0.4132(9)
C13 C 0.380(1) -0.291(3) 0.3600(9)
C14 C 0.413(1) -0.309(2) 0.2859(8)
C15 C 0.454(1) -0.376(3) 0.2634(8)
C20 C 0.5116(6) 0.214(1) 0.1078(5)
C21 C 0.4843(7) 0.346(2) 0.1061(5)
C22 C 0.4601(8) 0.412(2) 0.0596(6)
C23 C 0.4652(7) 0.349(2) 0.0154(5)
C24 C 0.4920(8) 0.221(2) 0.0180(5)
C25 C 0.5176(6) 0.153(2) 0.0632(5)
C26 C 0.5721(6) -0.032(1) 0.1518(5)
C27 C 0.5407(8) -0.156(2) 0.1476(6)
C28 C 0.5649(9) -0.279(2) 0.1337(8)
C29 C 0.6203(9) -0.279(2) 0.1229(7)
C30 C 0.6531(7) -0.158(2) 0.1264(6)
C31 C 0.6305(7) -0.034(2) 0.1415(6)
C32 C 0.6124(5) 0.226(1) 0.1973(5)
C33 C 0.6359(6) 0.328(2) 0.1712(6)
C34 C 0.6931(7) 0.388(2) 0.1927(6)
C35 C 0.7275(7) 0.347(2) 0.2405(6)
C36 C 0.7037(8) 0.249(2) 0.2656(6)
C37 C 0.6463(6) 0.190(2) 0.2452(6)
C38 C 0.3311(6) 0.282(1) 0.1444(5)
C39 C 0.2715(7) 0.284(2) 0.1123(7)
C40 C 0.2416(7) 0.412(2) 0.1001(7)
C41 C 0.2672(8) 0.533(2) 0.1180(7)
C42 C 0.3230(8) 0.531(2) 0.1500(6)
C43 C 0.3561(7) 0.406(1) 0.1633(5)
C44 C 0.3098(6) 0.017(1) 0.1837(5)
C45 C 0.3087(6) 0.030(2) 0.2330(6)
C46 C 0.2620(7) -0.033(2) 0.2505(6)
C47 C 0.2151(7) -0.105(2) 0.2182(6)
C48 C 0.2161(7) -0.116(2) 0.1684(7)
C49 C 0.2621(7) -0.054(2) 0.1510(6)
C50 C 0.3667(6) 0.028(2) 0.1021(5)
C51 C 0.3601(6) 0.103(2) 0.0587(5)
C52 C 0.3618(8) 0.033(2) 0.0146(6)
C53 C 0.3658(7) -0.108(3) 0.0123(6)
C54 C 0.3742(9) -0.179(2) 0.0552(7)
C55 C 0.3735(8) -0.117(2) 0.1016(6)
C3_2 C 0.5121(8) -0.719(2) 0.3596(5)
O3_2 O 0.5321(6) 0.371(1) 0.3884(4)
Cr1_2 Cr 0.4812(1) -0.8591(2) 0.31765(7)
K1_2 K 0.5460(2) 0.6603(4) 0.3895(1)
O10 O 0.240(1) 0.423(3) -0.099(1)
C16 C 0.271(2) 0.483(5) -0.063(2)
C17 C 0.260(2) 0.434(5) -0.030(2)
C18 C 0.203(2) 0.345(5) -0.042(2)
C19 C 0.188(1) 0.337(4) -0.098(1)
loop_
_geom_bond_atom_site_label_1
_geom_bond_atom_site_label_2
_geom_bond_site_symmetry_1
_geom_bond_site_symmetry_2
Re1 Cr1 1_555 1_555
Cr1 C1 1_555 1_555
K1 O2 1_555 1_555
P1 Re1 1_555 1_555
P2 Re1 1_555 1_555
O1 C1 1_555 1_555
O2 C2 1_555 1_555
O3 K1 1_555 1_555
O4 K1 1_555 1_555
O5 K1 1_555 1_555
O6 K1 1_555 1_555
O7 K1 1_555 1_555
O8 K1 1_555 1_555
O9 K1 1_555 1_555
O10 C16 1_555 1_555
C2 Cr1 1_555 1_555
C3 Cr1 1_555 1_555
C4 O4 1_555 1_555
C5 O5 1_555 1_555
C6 O5 1_555 1_555
C7 O6 1_555 1_555
C8 O6 1_555 1_555
C9 O7 1_555 1_555
C10 O7 1_555 1_555
C11 O8 1_555 1_555
C12 O8 1_555 1_555
C13 O9 1_555 1_555
C14 O9 1_555 1_555
C15 O4 1_555 1_555
C16 C17 1_555 1_555
C17 C18 1_555 1_555
C18 C19 1_555 1_555
C19 O10 1_555 1_555
C20 P1 1_555 1_555
C21 C20 1_555 1_555
C22 C21 1_555 1_555
C23 C22 1_555 1_555
C24 C23 1_555 1_555
C25 C20 1_555 1_555
C26 P1 1_555 1_555
C27 C26 1_555 1_555
C28 C27 1_555 1_555
C29 C28 1_555 1_555
C30 C29 1_555 1_555
C31 C26 1_555 1_555
C32 P1 1_555 1_555
C33 C32 1_555 1_555
C34 C33 1_555 1_555
C35 C34 1_555 1_555
C36 C35 1_555 1_555
C37 C32 1_555 1_555
C38 P2 1_555 1_555
C39 C38 1_555 1_555
C40 C39 1_555 1_555
C41 C40 1_555 1_555
C42 C41 1_555 1_555
C43 C38 1_555 1_555
C44 P2 1_555 1_555
C45 C44 1_555 1_555
C46 C45 1_555 1_555
C47 C46 1_555 1_555
C48 C47 1_555 1_555
C49 C44 1_555 1_555
C50 P2 1_555 1_555
C51 C50 1_555 1_555
C52 C51 1_555 1_555
C53 C52 1_555 1_555
C54 C53 1_555 1_555
C55 C50 1_555 1_555
C3_2 O3 1_555 1_555
O3_2 C3 1_555 1_555
Cr1_2 C3_2 1_555 1_555
K1_2 O3_2 1_555 1_555
C4 C5 1_555 1_555
C6 C7 1_555 1_555
C8 C9 1_555 1_555
C10 C11 1_555 1_555
C12 C13 1_555 1_555
C14 C15 1_555 1_555
C24 C25 1_555 1_555
C30 C31 1_555 1_555
C36 C37 1_555 1_555
C42 C43 1_555 1_555
C48 C49 1_555 1_555
C54 C55 1_555 1_555

#END
