
#######################################################################
#
#                 Cambridge Crystallographic Data Centre
#                                CCDC 
#
#######################################################################
#
# If this CIF has been generated from an entry in the Cambridge 
# Structural Database, then it will include bibliographic, chemical, 
# crystal, experimental, refinement or atomic coordinate data resulting 
# from the CCDC's data processing and validation procedures.
#
#######################################################################

data_ZUFMUK
_symmetry_cell_setting           triclinic
_symmetry_space_group_name_H-M   'P -1'
_symmetry_Int_Tables_number      2
_space_group_name_Hall           '-P 1'
loop_
_symmetry_equiv_pos_site_id
_symmetry_equiv_pos_as_xyz
1 x,y,z
2 -x,-y,-z
_cell_length_a                   9.4425(4)
_cell_length_b                   10.0546(5)
_cell_length_c                   11.3146(5)
_cell_angle_alpha                65.773(4)
_cell_angle_beta                 75.965(4)
_cell_angle_gamma                67.658(4)
_cell_volume                     901.287
loop_
_atom_site_label
_atom_site_type_symbol
_atom_site_fract_x
_atom_site_fract_y
_atom_site_fract_z
Cu1 Cu 1.0000 1.0000 0.0000
Cu2 Cu 1.5000 0.5000 0.5000
C1 C 0.2835(3) 1.1566(4) 0.1608(4)
H1 H 0.2700 1.0810 0.2464
H2 H 0.2322 1.1458 0.1022
C2 C 0.2183(4) 1.3344(4) 0.3850(4)
H3 H 0.1353 1.2974 0.4235
C3 C 0.3972(4) 1.4017(4) 0.2090(3)
H4 H 0.4401 1.4122 0.1237
C4 C 0.2047(4) 1.3139(4) 0.1689(4)
H5 H 0.0972 1.3250 0.2000
H6 H 0.2091 1.3900 0.0820
C5 C 0.2847(4) 1.3758(4) 0.4564(3)
H7 H 0.2439 1.3664 0.5419
C6 C 0.2746(3) 1.3476(4) 0.2581(3)
C7 C 0.4577(4) 1.4407(4) 0.2840(3)
H8 H 0.5407 1.4779 0.2468
C8 C 0.4522(3) 1.1196(3) 0.1153(3)
C9 C 0.5110(3) 1.1882(3) -0.0105(3)
H9 H 0.4443 1.2600 -0.0727
C10 C 0.5578(3) 1.0100(4) 0.2014(3)
H10 H 0.5241 0.9587 0.2867
C11 C 0.6681(3) 1.1510(3) -0.0445(3)
H11 H 0.7047 1.1995 -0.1296
C12 C 0.7121(3) 0.9772(3) 0.1609(3)
H12 H 0.7806 0.9021 0.2204
C13 C 1.0176(3) 0.9596(3) 0.3916(2)
C14 C 1.0306(3) 0.9096(3) 0.2796(2)
C15 C 1.1053(3) 0.9168(3) 0.5907(2)
H13 H 1.1762 0.8604 0.6520
C16 C 1.1246(3) 0.8756(3) 0.4834(2)
C17 C 1.2677(3) 0.7489(3) 0.4638(2)
N1 N 0.4046(2) 1.4284(2) 0.4069(2)
N2 N 0.7698(2) 1.0474(2) 0.04048(19)
O1 O 1.00369(19) 1.0173(2) 0.16923(15)
O2 O 1.0621(2) 0.7709(2) 0.30340(18)
O3 O 1.2926(2) 0.61873(19) 0.55794(16)
O4 O 1.3575(2) 0.7751(2) 0.36502(17)
O5 O 1.0101(3) 0.7120(3) 0.11212(19)
H14 H 1.0424 0.7292 0.1666
H15 H 1.0829 0.6975 0.0529
C13A C 0.9824(3) 1.0404(3) 0.6084(2)
C14A C 0.9694(3) 1.0904(3) 0.7204(2)
C15A C 0.8947(3) 1.0832(3) 0.4093(2)
H13A H 0.8238 1.1396 0.3480
C16A C 0.8754(3) 1.1244(3) 0.5166(2)
C17A C 0.7323(3) 1.2511(3) 0.5362(2)
O1A O 0.99631(19) 0.9827(2) 0.83077(15)
O2A O 0.9379(2) 1.2291(2) 0.69660(18)
O3A O 0.7074(2) 1.38127(19) 0.44206(16)
O4A O 0.6425(2) 1.2249(2) 0.63498(17)
C1A C 1.7165(3) 0.8434(4) -0.1608(4)
H1A H 1.7300 0.9190 -0.2464
H2A H 1.7678 0.8542 -0.1022
C2A C 1.7817(4) 0.6656(4) -0.3850(4)
H3A H 1.8647 0.7026 -0.4235
C3A C 1.6028(4) 0.5983(4) -0.2090(3)
H4A H 1.5599 0.5878 -0.1237
C4A C 1.7953(4) 0.6861(4) -0.1689(4)
H5A H 1.9028 0.6750 -0.2000
H6A H 1.7909 0.6100 -0.0820
C5A C 1.7153(4) 0.6242(4) -0.4564(3)
H7A H 1.7561 0.6336 -0.5419
C6A C 1.7254(3) 0.6524(4) -0.2581(3)
C7A C 1.5423(4) 0.5593(4) -0.2840(3)
H8A H 1.4593 0.5221 -0.2468
C8A C 1.5478(3) 0.8804(3) -0.1153(3)
C9A C 1.4890(3) 0.8118(3) 0.0105(3)
H9A H 1.5557 0.7400 0.0727
C10A C 1.4422(3) 0.9900(4) -0.2014(3)
H10A H 1.4759 1.0413 -0.2867
C11A C 1.3319(3) 0.8490(3) 0.0445(3)
H11A H 1.2953 0.8005 0.1296
C12A C 1.2879(3) 1.0228(3) -0.1609(3)
H12A H 1.2194 1.0979 -0.2204
N1A N 1.5954(2) 0.5716(2) -0.4069(2)
N2A N 1.2302(2) 0.9526(2) -0.04048(19)
O5A O 0.9899(3) 1.2880(3) -0.11212(19)
H14A H 0.9576 1.2708 -0.1666
H15A H 0.9171 1.3025 -0.0529
Cu1_2 Cu 1.0000 1.0000 1.0000
Cu2_2 Cu 0.5000 1.5000 0.5000
Cu2_3 Cu 1.5000 0.5000 -0.5000
N1_2 N 1.4046(2) 0.4284(2) 0.4069(2)
N1A_2 N 1.5954(2) 0.5716(2) 0.5931(2)
O1A_2 O 0.99631(19) 0.9827(2) -0.16923(15)
O3A_2 O 1.7074(2) 0.38127(19) 0.44206(16)
O4A_2 O 1.6425(2) 0.2249(2) 0.63498(17)
O6 O 1.1967(3) 0.4541(3) 0.8091(2)
H16 H 1.2161 0.4998 0.7280
H17 H 1.1326 0.4085 0.8194
O7 O 0.7944(3) 1.3400(3) 0.0938(2)
H18 H 0.8589 1.2505 0.1208
H19 H 0.8058 1.3951 0.1288
loop_
_geom_bond_atom_site_label_1
_geom_bond_atom_site_label_2
_geom_bond_site_symmetry_1
_geom_bond_site_symmetry_2
Cu1 N2 1_555 1_555
Cu2 O3 1_555 1_555
C1 H1 1_555 1_555
H2 C1 1_555 1_555
C2 H3 1_555 1_555
C3 H4 1_555 1_555
C4 C1 1_555 1_555
H5 C4 1_555 1_555
H6 C4 1_555 1_555
C5 C2 1_555 1_555
H7 C5 1_555 1_555
C6 C2 1_555 1_555
C7 C3 1_555 1_555
H8 C7 1_555 1_555
C8 C1 1_555 1_555
C9 C8 1_555 1_555
H9 C9 1_555 1_555
C10 C8 1_555 1_555
H10 C10 1_555 1_555
C11 C9 1_555 1_555
H11 C11 1_555 1_555
C12 C10 1_555 1_555
H12 C12 1_555 1_555
C13 C14 1_555 1_555
C14 O1 1_555 1_555
C15 H13 1_555 1_555
C16 C13 1_555 1_555
C17 C16 1_555 1_555
N1 C5 1_555 1_555
N2 C11 1_555 1_555
O1 Cu1 1_555 1_555
O2 C14 1_555 1_555
O3 C17 1_555 1_555
O4 Cu2 1_555 1_555
O5 Cu1 1_555 1_555
H14 O5 1_555 1_555
H15 O5 1_555 1_555
O6 H16 1_555 1_555
H17 O6 1_555 1_555
O7 H18 1_555 1_555
H19 O7 1_555 1_555
C13A C15 1_555 1_555
C14A C13A 1_555 1_555
C15A C13 1_555 1_555
H13A C15A 1_555 1_555
C16A C13A 1_555 1_555
C17A C16A 1_555 1_555
O1A C14A 1_555 1_555
O2A C14A 1_555 1_555
O3A C17A 1_555 1_555
O4A C17A 1_555 1_555
C1A H1A 1_555 1_555
H2A C1A 1_555 1_555
C2A H3A 1_555 1_555
C3A H4A 1_555 1_555
C4A C1A 1_555 1_555
H5A C4A 1_555 1_555
H6A C4A 1_555 1_555
C5A C2A 1_555 1_555
H7A C5A 1_555 1_555
C6A C2A 1_555 1_555
C7A C3A 1_555 1_555
H8A C7A 1_555 1_555
C8A C1A 1_555 1_555
C9A C8A 1_555 1_555
H9A C9A 1_555 1_555
C10A C8A 1_555 1_555
H10A C10A 1_555 1_555
C11A C9A 1_555 1_555
H11A C11A 1_555 1_555
C12A C10A 1_555 1_555
H12A C12A 1_555 1_555
N1A C5A 1_555 1_555
N2A Cu1 1_555 1_555
O5A Cu1 1_555 1_555
H14A O5A 1_555 1_555
H15A O5A 1_555 1_555
Cu1_2 O1A 1_555 1_555
Cu2_2 N1 1_555 1_555
Cu2_3 N1A 1_555 1_555
N1_2 Cu2 1_555 1_555
N1A_2 Cu2 1_555 1_555
O1A_2 Cu1 1_555 1_555
O3A_2 Cu2 1_555 1_555
O4A_2 Cu2 1_555 1_555
C3 C6 1_555 1_555
C4 C6 1_555 1_555
C7 N1 1_555 1_555
C12 N2 1_555 1_555
C15 C16 1_555 1_555
C17 O4 1_555 1_555
C15A C16A 1_555 1_555
O3A Cu2_2 1_555 1_555
O4A Cu2_2 1_555 1_555
C3A C6A 1_555 1_555
C4A C6A 1_555 1_555
C7A N1A 1_555 1_555
C11A N2A 1_555 1_555
C12A N2A 1_555 1_555

#END
