
#######################################################################
#
#                 Cambridge Crystallographic Data Centre
#                                CCDC 
#
#######################################################################
#
# If this CIF has been generated from an entry in the Cambridge 
# Structural Database, then it will include bibliographic, chemical, 
# crystal, experimental, refinement or atomic coordinate data resulting 
# from the CCDC's data processing and validation procedures.
#
#######################################################################

data_ZUFMIY
_symmetry_cell_setting           monoclinic
_symmetry_space_group_name_H-M   'P c'
_symmetry_Int_Tables_number      7
_space_group_name_Hall           'P -2yc'
loop_
_symmetry_equiv_pos_site_id
_symmetry_equiv_pos_as_xyz
1 x,y,z
2 x,-y,1/2+z
_cell_length_a                   3.9070(4)
_cell_length_b                   18.510(2)
_cell_length_c                   8.6690(8)
_cell_angle_alpha                90
_cell_angle_beta                 111.347(2)
_cell_angle_gamma                90
_cell_volume                     583.918
loop_
_atom_site_label
_atom_site_type_symbol
_atom_site_fract_x
_atom_site_fract_y
_atom_site_fract_z
K1 K -0.6692(5) 0.20286(12) 0.4959(3)
O1 O -0.258(2) 0.3170(4) 0.6928(8)
O2 O 0.0246(19) 0.1840(3) 0.7267(8)
O3 O 0.6786(18) 0.2360(4) 1.2834(7)
O4 O -0.722(4) 0.0559(5) 0.4373(12)
C1 C -0.043(2) 0.2979(6) 0.8297(11)
C2 C 0.117(2) 0.2255(5) 0.8484(11)
C3 C 0.387(3) 0.2071(5) 1.0077(15)
C4 C 0.454(2) 0.2547(5) 1.1420(11)
C5 C 0.363(3) 0.3723(5) 1.2560(14)
H1 H 0.5234 0.3576 1.3597
C6 C 0.208(3) 0.4384(5) 1.2382(12)
H2 H 0.2604 0.4684 1.3300
C7 C -0.030(3) 0.4621(6) 1.0849(13)
H3 H -0.1317 0.5081 1.0727
C8 C -0.111(3) 0.4165(5) 0.9513(12)
H4 H -0.2745 0.4309 0.8480
C9 C 0.050(2) 0.3489(5) 0.9710(10)
C10 C 0.288(2) 0.3265(5) 1.1235(10)
C11 C 0.550(3) 0.1324(5) 1.0287(12)
H5 H 0.7800 0.1321 1.1204
H6 H 0.5885 0.1187 0.9296
H7 H 0.3841 0.0988 1.0495
H8 H 0.010(18) 0.133(4) 0.707(8)
K1_2 K 0.3308(5) 0.20286(12) 0.4959(3)
K1_3 K 0.3308(5) 0.20286(12) 1.4959(3)
K1_4 K 1.3308(5) 0.20286(12) 1.4959(3)
O2_2 O -0.9754(19) 0.1840(3) 0.7267(8)
O3_2 O -1.3214(18) 0.2360(4) 0.2834(7)
O3_3 O -0.3214(18) 0.2360(4) 0.2834(7)
O5 O 0.994(4) 0.0394(6) 0.6730(14)
H9 H 0.754(19) 0.054(11) 0.599(12)
H10 H 1.00(3) 0.028(6) 0.782(6)
loop_
_geom_bond_atom_site_label_1
_geom_bond_atom_site_label_2
_geom_bond_site_symmetry_1
_geom_bond_site_symmetry_2
K1 O1 1_555 1_555
O1 C1 1_555 1_555
O2 K1 1_555 1_555
O3 C4 1_555 1_555
O4 K1 1_555 1_555
C1 C2 1_555 1_555
C2 O2 1_555 1_555
C3 C2 1_555 1_555
C4 C3 1_555 1_555
C5 H1 1_555 1_555
C6 C5 1_555 1_555
H2 C6 1_555 1_555
C7 C6 1_555 1_555
H3 C7 1_555 1_555
C8 C7 1_555 1_555
H4 C8 1_555 1_555
C9 C1 1_555 1_555
C10 C4 1_555 1_555
C11 C3 1_555 1_555
H5 C11 1_555 1_555
H6 C11 1_555 1_555
H7 C11 1_555 1_555
H8 O2 1_555 1_555
O5 H9 1_555 1_555
H10 O5 1_555 1_555
K1_2 O2 1_555 1_555
K1_3 O3 1_555 1_555
K1_4 O3 1_555 1_555
O2_2 K1 1_555 1_555
O3_2 K1 1_555 1_555
O3_3 K1 1_555 1_555
C5 C10 1_555 1_555
C8 C9 1_555 1_555
C9 C10 1_555 1_555
K1_2 O3_3 1_555 1_555

#END
