
#######################################################################
#
#                 Cambridge Crystallographic Data Centre
#                                CCDC 
#
#######################################################################
#
# If this CIF has been generated from an entry in the Cambridge 
# Structural Database, then it will include bibliographic, chemical, 
# crystal, experimental, refinement or atomic coordinate data resulting 
# from the CCDC's data processing and validation procedures.
#
#######################################################################

data_ZUFQIA
_symmetry_cell_setting           monoclinic
_symmetry_space_group_name_H-M   'P 21/c'
_symmetry_Int_Tables_number      14
_space_group_name_Hall           '-P 2ybc'
loop_
_symmetry_equiv_pos_site_id
_symmetry_equiv_pos_as_xyz
1 x,y,z
2 -x,1/2+y,1/2-z
3 -x,-y,-z
4 x,1/2-y,1/2+z
_cell_length_a                   8.023(1)
_cell_length_b                   22.636(4)
_cell_length_c                   10.844(2)
_cell_angle_alpha                90
_cell_angle_beta                 99.89(1)
_cell_angle_gamma                90
_cell_volume                     1940.1
loop_
_atom_site_label
_atom_site_type_symbol
_atom_site_fract_x
_atom_site_fract_y
_atom_site_fract_z
Mn1 Mn 0.5000 0.5000 0.5000
N1 N 0.3534(7) 0.5675(3) 0.5339(5)
N2 N 0.6425(7) 0.5571(2) 0.4221(5)
N3 N 0.6685(8) 0.5199(3) 0.7030(6)
N4 N 0.5142(10) 0.6739(3) 0.8762(7)
N5 N 0.3801(8) 0.5991(3) 1.1440(6)
C1 C 0.2363(9) 0.6603(3) 0.5481(6)
C2 C 0.3708(9) 0.6270(3) 0.5074(7)
C3 C 0.4972(9) 0.6494(3) 0.4495(6)
C4 C 0.6224(9) 0.6168(3) 0.4085(7)
C5 C 0.7505(8) 0.6412(3) 0.3464(7)
C6 C 0.8497(8) 0.5952(3) 0.3225(6)
C7 C 0.7832(9) 0.5425(3) 0.3700(6)
C8 C 0.8504(9) 0.4869(3) 0.3670(7)
C9 C 0.2114(9) 0.5639(3) 0.5906(7)
C10 C 0.1392(8) 0.6221(3) 0.5983(7)
C11 C 0.2168(9) 0.7261(3) 0.5355(7)
C12 C 0.2099(14) 0.7588(4) 0.6526(9)
C13 C 0.6144(10) 0.5361(3) 0.7872(8)
C14 C 0.5457(10) 0.5607(3) 0.8871(7)
C15 C 0.5266(10) 0.6238(4) 0.8816(7)
C16 C 0.4951(13) 0.5298(3) 0.9899(10)
C17 C 0.4310(10) 0.5678(3) 1.0781(8)
C18 C 0.7693(9) 0.7047(3) 0.3154(7)
C19 C 0.6900(10) 0.7208(3) 0.1828(8)
C20 C 0.9981(9) 0.5961(3) 0.2547(7)
C21 C 0.9502(10) 0.5759(4) 0.1201(8)
C22 C -0.0161(9) 0.6329(3) 0.6548(7)
C23 C 0.0174(10) 0.6337(4) 0.7984(8)
H1 H 0.4952 0.6909 0.4352
H2 H 0.9517 0.4844 0.3326
H3 H -0.0660 0.6695 0.6253
H4 H 0.0976 0.6636 0.8280
H5 H 0.0604 0.5964 0.8288
H6 H 0.1163 0.7364 0.4795
H7 H 0.3036 0.7425 0.4961
H8 H 0.2053 0.8005 0.6455
H9 H 0.3133 0.7503 0.7072
H10 H 0.1251 0.7431 0.6944
H11 H 0.8855 0.7156 0.3275
H12 H 0.7237 0.7290 0.3730
H13 H 0.6992 0.7616 0.1643
H14 H 0.5717 0.7131 0.1693
H15 H 0.7354 0.6989 0.1216
H16 H 1.0838 0.5705 0.2966
H17 H 1.0479 0.6343 0.2571
H18 H 1.0443 0.5753 0.0777
H19 H 0.8652 0.6012 0.0768
H20 H 0.9048 0.5370 0.1178
H21 H -0.1017 0.6046 0.6262
H22 H -0.0834 0.6411 0.8307
C8B C 0.1496(9) 0.5131(3) 0.6330(7)
C7B C 0.2168(9) 0.4575(3) 0.6300(6)
N2B N 0.3575(7) 0.4429(2) 0.5779(5)
N1B N 0.6466(7) 0.4325(3) 0.4661(5)
C2B C 0.6292(9) 0.3730(3) 0.4926(7)
C1B C 0.7637(9) 0.3397(3) 0.4519(6)
C10B C 0.8608(8) 0.3779(3) 0.4017(7)
C9B C 0.7886(9) 0.4361(3) 0.4094(7)
C16B C 0.5049(13) 0.4702(3) 1.0101(10)
C14B C 0.4543(10) 0.4393(3) 1.1129(7)
C13B C 0.3856(10) 0.4639(3) 1.2128(8)
N3B N 0.3315(8) 0.4801(3) 1.2970(6)
Mn1B Mn 0.5000 0.5000 1.5000
C15B C 0.4734(10) 0.3762(4) 1.1184(7)
N4B N 0.4858(10) 0.3261(3) 1.1238(7)
C17B C 0.5690(10) 0.4322(3) 0.9219(8)
N5B N 0.6199(8) 0.4009(3) 0.8560(6)
N3B_2 N 0.3315(8) 0.4801(3) 0.2970(6)
C22B C 1.0161(9) 0.3671(3) 0.3452(7)
C23B C 0.9826(10) 0.3663(4) 0.2016(8)
H4B H 0.9024 0.3364 0.1720
H5B H 0.9396 0.4036 0.1712
H22B H 1.0834 0.3589 0.1693
H3B H 1.0660 0.3305 0.3747
H21B H 1.1017 0.3954 0.3738
C11B C 0.7832(9) 0.2739(3) 0.4645(7)
C12B C 0.7901(14) 0.2412(4) 0.3474(9)
H8B H 0.7947 0.1995 0.3545
H9B H 0.6867 0.2497 0.2928
H10B H 0.8749 0.2569 0.3056
H6B H 0.8837 0.2636 0.5205
H7B H 0.6964 0.2575 0.5039
C3B C 0.5028(9) 0.3506(3) 0.5505(6)
C4B C 0.3776(9) 0.3832(3) 0.5915(7)
C5B C 0.2495(8) 0.3588(3) 0.6536(7)
C6B C 0.1503(8) 0.4048(3) 0.6775(6)
C20B C 0.0019(9) 0.4039(3) 0.7453(7)
C21B C 0.0498(10) 0.4241(4) 0.8799(8)
H18B H -0.0443 0.4247 0.9223
H19B H 0.1348 0.3988 0.9232
H20B H 0.0952 0.4630 0.8822
H16B H -0.0838 0.4295 0.7034
H17B H -0.0479 0.3657 0.7429
C18B C 0.2307(9) 0.2953(3) 0.6846(7)
C19B C 0.3100(10) 0.2792(3) 0.8172(8)
H13B H 0.3008 0.2384 0.8357
H14B H 0.4283 0.2869 0.8307
H15B H 0.2646 0.3011 0.8784
H11B H 0.1145 0.2844 0.6725
H12B H 0.2763 0.2710 0.6270
H1B H 0.5048 0.3091 0.5648
H2B H 0.0483 0.5156 0.6674
loop_
_geom_bond_atom_site_label_1
_geom_bond_atom_site_label_2
_geom_bond_site_symmetry_1
_geom_bond_site_symmetry_2
Mn1 N1 1_555 1_555
N1 C2 1_555 1_555
N2 Mn1 1_555 1_555
N3 Mn1 1_555 1_555
N4 C15 1_555 1_555
N5 C17 1_555 1_555
C1 C2 1_555 1_555
C2 C3 1_555 1_555
C3 C4 1_555 1_555
C4 N2 1_555 1_555
C5 C4 1_555 1_555
C6 C5 1_555 1_555
C7 N2 1_555 1_555
C8 C7 1_555 1_555
C9 N1 1_555 1_555
C10 C1 1_555 1_555
C11 C1 1_555 1_555
C12 C11 1_555 1_555
C13 N3 1_555 1_555
C14 C13 1_555 1_555
C15 C14 1_555 1_555
C16 C14 1_555 1_555
C17 C16 1_555 1_555
C18 C5 1_555 1_555
C19 C18 1_555 1_555
C20 C6 1_555 1_555
C21 C20 1_555 1_555
C22 C10 1_555 1_555
C23 C22 1_555 1_555
H1 C3 1_555 1_555
H2 C8 1_555 1_555
H3 C22 1_555 1_555
H4 C23 1_555 1_555
H5 C23 1_555 1_555
H6 C11 1_555 1_555
H7 C11 1_555 1_555
H8 C12 1_555 1_555
H9 C12 1_555 1_555
H10 C12 1_555 1_555
H11 C18 1_555 1_555
H12 C18 1_555 1_555
H13 C19 1_555 1_555
H14 C19 1_555 1_555
H15 C19 1_555 1_555
H16 C20 1_555 1_555
H17 C20 1_555 1_555
H18 C21 1_555 1_555
H19 C21 1_555 1_555
H20 C21 1_555 1_555
H21 C22 1_555 1_555
H22 C23 1_555 1_555
C8B C9 1_555 1_555
C7B C8B 1_555 1_555
N2B Mn1 1_555 1_555
N1B Mn1 1_555 1_555
C2B N1B 1_555 1_555
C1B C2B 1_555 1_555
C10B C1B 1_555 1_555
C9B C8 1_555 1_555
C16B C16 1_555 1_555
C14B C16B 1_555 1_555
C13B C14B 1_555 1_555
N3B C13B 1_555 1_555
Mn1B N3B 1_555 1_555
C15B C14B 1_555 1_555
N4B C15B 1_555 1_555
C17B C16B 1_555 1_555
N5B C17B 1_555 1_555
N3B_2 Mn1 1_555 1_555
C22B C10B 1_555 1_555
C23B C22B 1_555 1_555
H4B C23B 1_555 1_555
H5B C23B 1_555 1_555
H22B C23B 1_555 1_555
H3B C22B 1_555 1_555
H21B C22B 1_555 1_555
C11B C1B 1_555 1_555
C12B C11B 1_555 1_555
H8B C12B 1_555 1_555
H9B C12B 1_555 1_555
H10B C12B 1_555 1_555
H6B C11B 1_555 1_555
H7B C11B 1_555 1_555
C3B C2B 1_555 1_555
C4B N2B 1_555 1_555
C5B C4B 1_555 1_555
C6B C7B 1_555 1_555
C20B C6B 1_555 1_555
C21B C20B 1_555 1_555
H18B C21B 1_555 1_555
H19B C21B 1_555 1_555
H20B C21B 1_555 1_555
H16B C20B 1_555 1_555
H17B C20B 1_555 1_555
C18B C5B 1_555 1_555
C19B C18B 1_555 1_555
H13B C19B 1_555 1_555
H14B C19B 1_555 1_555
H15B C19B 1_555 1_555
H11B C18B 1_555 1_555
H12B C18B 1_555 1_555
H1B C3B 1_555 1_555
H2B C8B 1_555 1_555
C6 C7 1_555 1_555
C9 C10 1_555 1_555
C7B N2B 1_555 1_555
N1B C9B 1_555 1_555
C10B C9B 1_555 1_555
C3B C4B 1_555 1_555
C5B C6B 1_555 1_555

#END
