
#######################################################################
#
#                 Cambridge Crystallographic Data Centre
#                                CCDC 
#
#######################################################################
#
# If this CIF has been generated from an entry in the Cambridge 
# Structural Database, then it will include bibliographic, chemical, 
# crystal, experimental, refinement or atomic coordinate data resulting 
# from the CCDC's data processing and validation procedures.
#
#######################################################################

data_ZUFQEW
_symmetry_cell_setting           triclinic
_symmetry_space_group_name_H-M   'P -1'
_symmetry_Int_Tables_number      2
_space_group_name_Hall           '-P 1'
loop_
_symmetry_equiv_pos_site_id
_symmetry_equiv_pos_as_xyz
1 x,y,z
2 -x,-y,-z
_cell_length_a                   12.496(4)
_cell_length_b                   13.024(5)
_cell_length_c                   13.544(3)
_cell_angle_alpha                69.55(3)
_cell_angle_beta                 85.58(2)
_cell_angle_gamma                64.48(3)
_cell_volume                     1856.79
loop_
_atom_site_label
_atom_site_type_symbol
_atom_site_fract_x
_atom_site_fract_y
_atom_site_fract_z
Mn1 Mn 0.2259(2) 0.5207(2) 0.2463(2)
N1 N 0.2736(8) 0.4126(9) 0.1619(8)
N2 N 0.2101(9) 0.3892(9) 0.3689(7)
N3 N 0.1743(9) 0.6302(9) 0.3317(8)
N4 N 0.2320(8) 0.6555(8) 0.1204(8)
N5 N 0.0177(10) 0.5800(10) 0.1788(10)
N6 N -0.0043(14) 0.7269(16) -0.1572(13)
N7 N 0.4185(9) 0.4628(9) 0.3173(8)
N8 N 0.5571(13) 0.2416(12) 0.6402(11)
C1 C 0.2828(10) 0.2956(11) 0.1919(9)
C2 C 0.2671(11) 0.2309(11) 0.2922(11)
C3 C 0.2323(11) 0.2749(12) 0.3749(10)
C4 C 0.2158(13) 0.2031(13) 0.4812(10)
C5 C 0.1813(11) 0.2773(12) 0.5361(9)
C6 C 0.1809(12) 0.3913(13) 0.4691(11)
C7 C 0.1508(10) 0.4894(12) 0.4976(9)
C8 C 0.1507(11) 0.5983(11) 0.4359(11)
C9 C 0.1298(11) 0.6988(11) 0.4712(10)
C10 C 0.1426(12) 0.7880(12) 0.3902(10)
C11 C 0.1728(12) 0.7426(12) 0.3032(11)
C12 C 0.1938(11) 0.8050(10) 0.2042(11)
C13 C 0.2205(11) 0.7661(11) 0.1206(10)
C14 C 0.2359(10) 0.8345(10) 0.0159(10)
C15 C 0.2549(10) 0.7671(10) -0.0469(10)
C16 C 0.2611(10) 0.6527(11) 0.0210(10)
C17 C 0.2804(11) 0.5536(11) -0.0084(9)
C18 C 0.2899(10) 0.4445(10) 0.0553(10)
C19 C 0.3087(10) 0.3434(11) 0.0197(9)
C20 C 0.3059(11) 0.2540(11) 0.1045(10)
C21 C 0.2319(20) 0.0772(18) 0.5111(14)
C22 C 0.3566(24) -0.0159(17) 0.5370(16)
C23 C 0.1558(13) 0.2479(12) 0.6486(13)
C24 C 0.2608(14) 0.2092(12) 0.7216(10)
C25 C 0.1009(13) 0.6985(12) 0.5819(12)
C26 C 0.2162(14) 0.6441(12) 0.6508(10)
C27 C 0.1328(15) 0.9084(14) 0.3864(13)
C28 C 0.0130(16) 1.0128(13) 0.3301(12)
C29 C 0.2308(11) 0.9617(12) -0.0177(10)
C30 C 0.1078(12) 1.0645(11) -0.0425(11)
C31 C 0.2789(11) 0.7973(11) -0.1617(11)
C32 C 0.4113(12) 0.7371(12) -0.1777(10)
C33 C 0.3280(11) 0.3490(10) -0.0909(10)
C34 C 0.4546(13) 0.3255(12) -0.1187(10)
C35 C 0.3199(13) 0.1311(12) 0.1098(9)
C36 C 0.4433(17) 0.0332(13) 0.1488(13)
C37 C 0.0072(12) 0.5519(15) 0.1098(13)
C38 C 0.0005(20) 0.5460(16) -0.0024(20)
C39 C -0.0028(12) 0.6440(16) -0.0928(13)
C40 C 0.4512(13) 0.4643(13) 0.3905(12)
C41 C 0.4978(17) 0.4529(14) 0.4937(16)
C42 C 0.5302(14) 0.3381(15) 0.5811(11)
H1 H 0.2765 0.1506 0.3036
H2 H 0.1315 0.4827 0.5679
H3 H 0.1875 0.8833 0.1940
H4 H 0.2857 0.5689 -0.0824
H5 H 0.1908 0.0565 0.5696
H6 H 0.2018 0.0635 0.4592
H7 H 0.3596 -0.0955 0.5603
H8 H 0.3853 -0.0082 0.5934
H9 H 0.4011 0.0004 0.4808
H10 H 0.0928 0.3160 0.6597
H11 H 0.1292 0.1856 0.6702
H12 H 0.2420 0.1904 0.7931
H13 H 0.2863 0.2719 0.7036
H14 H 0.3237 0.1388 0.7141
H15 H 0.0532 0.7788 0.5805
H16 H 0.0586 0.6503 0.6094
H17 H 0.1997 0.6406 0.7212
H18 H 0.2596 0.6906 0.6238
H19 H 0.2635 0.5635 0.6530
H20 H 0.1423 0.9065 0.4560
H21 H 0.1962 0.9211 0.3495
H22 H 0.0124 1.0866 0.3279
H23 H -0.0487 0.9980 0.3682
H24 H 0.0079 1.0132 0.2605
H25 H 0.2706 0.9643 0.0381
H26 H 0.2766 0.9747 -0.0759
H27 H 0.1134 1.1390 -0.0600
H28 H 0.0663 1.0493 0.0191
H29 H 0.0713 1.0598 -0.0988
H30 H 0.2339 0.7742 -0.1959
H31 H 0.2179 0.8829 -0.1937
H32 H 0.4185 0.7608 -0.2519
H33 H 0.4389 0.6518 -0.1479
H34 H 0.4537 0.7645 -0.1455
H35 H 0.3096 0.2897 -0.1018
H36 H 0.2723 0.4249 -0.1383
H37 H 0.4610 0.3304 -0.1905
H38 H 0.5097 0.2480 -0.0742
H39 H 0.4716 0.3869 -0.1114
H40 H 0.2671 0.1072 0.1563
H41 H 0.2996 0.1332 0.0427
H42 H 0.4504 -0.0434 0.1509
H43 H 0.4654 0.0267 0.2168
H44 H 0.4976 0.0528 0.1024
C38A C -0.0005(20) 0.4540(16) 0.0024(20)
C41A C 0.5022(17) 0.5471(14) 0.5063(16)
C37A C -0.0072(12) 0.4481(15) -0.1098(13)
C39A C 0.0028(12) 0.3560(16) 0.0928(13)
C40A C 0.5488(13) 0.5357(13) 0.6095(12)
C42A C 0.4698(14) 0.6619(15) 0.4189(11)
N5A N -0.0177(10) 0.4200(10) -0.1788(10)
N6A N 0.0043(14) 0.2731(16) 0.1572(13)
N7A N 0.5815(9) 0.5372(9) 0.6827(8)
N8A N 0.4429(13) 0.7584(12) 0.3598(11)
Mn1A Mn -0.2259(2) 0.4793(2) -0.2463(2)
Mn1A_2 Mn 0.7741(2) 0.4793(2) 0.7537(2)
N1A N -0.2736(8) 0.5874(9) -0.1619(8)
N2A N -0.2101(9) 0.6108(9) -0.3689(7)
N3A N -0.1743(9) 0.3698(9) -0.3317(8)
N4A N -0.2320(8) 0.3445(8) -0.1204(8)
N7A_2 N -0.4185(9) 0.5372(9) -0.3173(8)
C8A C -0.1507(11) 0.4017(11) -0.4359(11)
C11A C -0.1728(12) 0.2574(12) -0.3032(11)
C3A C -0.2323(11) 0.7251(12) -0.3749(10)
C6A C -0.1809(12) 0.6087(13) -0.4691(11)
C1A C -0.2828(10) 0.7044(11) -0.1919(9)
C18A C -0.2899(10) 0.5555(10) -0.0553(10)
C13A C -0.2205(11) 0.2339(11) -0.1206(10)
C16A C -0.2611(10) 0.3473(11) -0.0210(10)
C7A C -0.1508(10) 0.5106(12) -0.4976(9)
C9A C -0.1298(11) 0.3012(11) -0.4712(10)
C10A C -0.1426(12) 0.2120(12) -0.3902(10)
C12A C -0.1938(11) 0.1950(10) -0.2042(11)
C2A C -0.2671(11) 0.7691(11) -0.2922(11)
C4A C -0.2158(13) 0.7969(13) -0.4812(10)
C5A C -0.1813(11) 0.7227(12) -0.5361(9)
C20A C -0.3059(11) 0.7460(11) -0.1045(10)
C17A C -0.2804(11) 0.4464(11) 0.0084(9)
C19A C -0.3087(10) 0.6566(11) -0.0197(9)
C14A C -0.2359(10) 0.1655(10) -0.0159(10)
C15A C -0.2549(10) 0.2329(10) 0.0469(10)
H2A H -0.1315 0.5173 -0.5679
C25A C -0.1009(13) 0.3015(12) -0.5819(12)
C27A C -0.1328(15) 0.0916(14) -0.3864(13)
H3A H -0.1875 0.1167 -0.1940
H1A H -0.2765 0.8494 -0.3036
C21A C -0.2319(20) 0.9228(18) -0.5111(14)
C23A C -0.1558(13) 0.7521(12) -0.6486(13)
C35A C -0.3199(13) 0.8689(12) -0.1098(9)
H4A H -0.2857 0.4311 0.0824
C33A C -0.3280(11) 0.6510(10) 0.0909(10)
C29A C -0.2308(11) 0.0383(12) 0.0177(10)
C31A C -0.2789(11) 0.2027(11) 0.1617(11)
C26A C -0.2162(14) 0.3559(12) -0.6508(10)
H15A H -0.0532 0.2212 -0.5805
H16A H -0.0586 0.3497 -0.6094
C28A C -0.0130(16) -0.0128(13) -0.3301(12)
H20A H -0.1423 0.0935 -0.4560
H21A H -0.1962 0.0789 -0.3495
C22A C -0.3566(24) 1.0159(17) -0.5370(16)
H5A H -0.1908 0.9435 -0.5696
H6A H -0.2018 0.9365 -0.4592
C24A C -0.2608(14) 0.7908(12) -0.7216(10)
H10A H -0.0928 0.6840 -0.6597
H11A H -0.1292 0.8144 -0.6702
C36A C -0.4433(17) 0.9668(13) -0.1488(13)
H40A H -0.2671 0.8928 -0.1563
H41A H -0.2996 0.8668 -0.0427
C34A C -0.4546(13) 0.6745(12) 0.1187(10)
H35A H -0.3096 0.7103 0.1018
H36A H -0.2723 0.5751 0.1383
C30A C -0.1078(12) -0.0645(11) 0.0425(11)
H25A H -0.2706 0.0357 -0.0381
H26A H -0.2766 0.0253 0.0759
C32A C -0.4113(12) 0.2629(12) 0.1777(10)
H30A H -0.2339 0.2258 0.1959
H31A H -0.2179 0.1171 0.1937
H17A H -0.1997 0.3594 -0.7212
H18A H -0.2596 0.3094 -0.6238
H19A H -0.2635 0.4365 -0.6530
H22A H -0.0124 -0.0866 -0.3279
H23A H 0.0487 0.0020 -0.3682
H24A H -0.0079 -0.0132 -0.2605
H7A H -0.3596 1.0955 -0.5603
H8A H -0.3853 1.0082 -0.5934
H9A H -0.4011 0.9996 -0.4808
H12A H -0.2420 0.8096 -0.7931
H13A H -0.2863 0.7281 -0.7036
H14A H -0.3237 0.8612 -0.7141
H42A H -0.4504 1.0434 -0.1509
H43A H -0.4654 0.9733 -0.2168
H44A H -0.4976 0.9472 -0.1024
H37A H -0.4610 0.6696 0.1905
H38A H -0.5097 0.7520 0.0742
H39A H -0.4716 0.6131 0.1114
H27A H -0.1134 -0.1390 0.0600
H28A H -0.0663 -0.0493 -0.0191
H29A H -0.0713 -0.0598 0.0988
H32A H -0.4185 0.2392 0.2519
H33A H -0.4389 0.3482 0.1479
H34A H -0.4537 0.2355 0.1455
loop_
_geom_bond_atom_site_label_1
_geom_bond_atom_site_label_2
_geom_bond_site_symmetry_1
_geom_bond_site_symmetry_2
Mn1 N1 1_555 1_555
N1 C1 1_555 1_555
N2 Mn1 1_555 1_555
N3 Mn1 1_555 1_555
N4 Mn1 1_555 1_555
N5 Mn1 1_555 1_555
N6 C39 1_555 1_555
N7 Mn1 1_555 1_555
N8 C42 1_555 1_555
C1 C2 1_555 1_555
C2 C3 1_555 1_555
C3 N2 1_555 1_555
C4 C3 1_555 1_555
C5 C4 1_555 1_555
C6 N2 1_555 1_555
C7 C6 1_555 1_555
C8 N3 1_555 1_555
C9 C8 1_555 1_555
C10 C9 1_555 1_555
C11 N3 1_555 1_555
C12 C11 1_555 1_555
C13 N4 1_555 1_555
C14 C13 1_555 1_555
C15 C14 1_555 1_555
C16 N4 1_555 1_555
C17 C16 1_555 1_555
C18 N1 1_555 1_555
C19 C18 1_555 1_555
C20 C1 1_555 1_555
C21 C4 1_555 1_555
C22 C21 1_555 1_555
C23 C5 1_555 1_555
C24 C23 1_555 1_555
C25 C9 1_555 1_555
C26 C25 1_555 1_555
C27 C10 1_555 1_555
C28 C27 1_555 1_555
C29 C14 1_555 1_555
C30 C29 1_555 1_555
C31 C15 1_555 1_555
C32 C31 1_555 1_555
C33 C19 1_555 1_555
C34 C33 1_555 1_555
C35 C20 1_555 1_555
C36 C35 1_555 1_555
C37 N5 1_555 1_555
C38 C37 1_555 1_555
C39 C38 1_555 1_555
C40 N7 1_555 1_555
C41 C40 1_555 1_555
C42 C41 1_555 1_555
H1 C2 1_555 1_555
H2 C7 1_555 1_555
H3 C12 1_555 1_555
H4 C17 1_555 1_555
H5 C21 1_555 1_555
H6 C21 1_555 1_555
H7 C22 1_555 1_555
H8 C22 1_555 1_555
H9 C22 1_555 1_555
H10 C23 1_555 1_555
H11 C23 1_555 1_555
H12 C24 1_555 1_555
H13 C24 1_555 1_555
H14 C24 1_555 1_555
H15 C25 1_555 1_555
H16 C25 1_555 1_555
H17 C26 1_555 1_555
H18 C26 1_555 1_555
H19 C26 1_555 1_555
H20 C27 1_555 1_555
H21 C27 1_555 1_555
H22 C28 1_555 1_555
H23 C28 1_555 1_555
H24 C28 1_555 1_555
H25 C29 1_555 1_555
H26 C29 1_555 1_555
H27 C30 1_555 1_555
H28 C30 1_555 1_555
H29 C30 1_555 1_555
H30 C31 1_555 1_555
H31 C31 1_555 1_555
H32 C32 1_555 1_555
H33 C32 1_555 1_555
H34 C32 1_555 1_555
H35 C33 1_555 1_555
H36 C33 1_555 1_555
H37 C34 1_555 1_555
H38 C34 1_555 1_555
H39 C34 1_555 1_555
H40 C35 1_555 1_555
H41 C35 1_555 1_555
H42 C36 1_555 1_555
H43 C36 1_555 1_555
H44 C36 1_555 1_555
C38A C38 1_555 1_555
C41A C41 1_555 1_555
C37A C38A 1_555 1_555
C39A C38A 1_555 1_555
C40A C41A 1_555 1_555
C42A C41A 1_555 1_555
N5A C37A 1_555 1_555
N6A C39A 1_555 1_555
N7A C40A 1_555 1_555
N8A C42A 1_555 1_555
Mn1A N5A 1_555 1_555
Mn1A_2 N7A 1_555 1_555
N1A Mn1A 1_555 1_555
N2A Mn1A 1_555 1_555
N3A Mn1A 1_555 1_555
N4A Mn1A 1_555 1_555
N7A_2 Mn1A 1_555 1_555
C8A N3A 1_555 1_555
C11A N3A 1_555 1_555
C3A N2A 1_555 1_555
C6A N2A 1_555 1_555
C1A N1A 1_555 1_555
C18A N1A 1_555 1_555
C13A N4A 1_555 1_555
C16A N4A 1_555 1_555
C7A C8A 1_555 1_555
C9A C8A 1_555 1_555
C10A C11A 1_555 1_555
C12A C11A 1_555 1_555
C2A C3A 1_555 1_555
C4A C3A 1_555 1_555
C5A C6A 1_555 1_555
C20A C1A 1_555 1_555
C17A C18A 1_555 1_555
C19A C18A 1_555 1_555
C14A C13A 1_555 1_555
C15A C16A 1_555 1_555
H2A C7A 1_555 1_555
C25A C9A 1_555 1_555
C27A C10A 1_555 1_555
H3A C12A 1_555 1_555
H1A C2A 1_555 1_555
C21A C4A 1_555 1_555
C23A C5A 1_555 1_555
C35A C20A 1_555 1_555
H4A C17A 1_555 1_555
C33A C19A 1_555 1_555
C29A C14A 1_555 1_555
C31A C15A 1_555 1_555
C26A C25A 1_555 1_555
H15A C25A 1_555 1_555
H16A C25A 1_555 1_555
C28A C27A 1_555 1_555
H20A C27A 1_555 1_555
H21A C27A 1_555 1_555
C22A C21A 1_555 1_555
H5A C21A 1_555 1_555
H6A C21A 1_555 1_555
C24A C23A 1_555 1_555
H10A C23A 1_555 1_555
H11A C23A 1_555 1_555
C36A C35A 1_555 1_555
H40A C35A 1_555 1_555
H41A C35A 1_555 1_555
C34A C33A 1_555 1_555
H35A C33A 1_555 1_555
H36A C33A 1_555 1_555
C30A C29A 1_555 1_555
H25A C29A 1_555 1_555
H26A C29A 1_555 1_555
C32A C31A 1_555 1_555
H30A C31A 1_555 1_555
H31A C31A 1_555 1_555
H17A C26A 1_555 1_555
H18A C26A 1_555 1_555
H19A C26A 1_555 1_555
H22A C28A 1_555 1_555
H23A C28A 1_555 1_555
H24A C28A 1_555 1_555
H7A C22A 1_555 1_555
H8A C22A 1_555 1_555
H9A C22A 1_555 1_555
H12A C24A 1_555 1_555
H13A C24A 1_555 1_555
H14A C24A 1_555 1_555
H42A C36A 1_555 1_555
H43A C36A 1_555 1_555
H44A C36A 1_555 1_555
H37A C34A 1_555 1_555
H38A C34A 1_555 1_555
H39A C34A 1_555 1_555
H27A C30A 1_555 1_555
H28A C30A 1_555 1_555
H29A C30A 1_555 1_555
H32A C32A 1_555 1_555
H33A C32A 1_555 1_555
H34A C32A 1_555 1_555
C5 C6 1_555 1_555
C7 C8 1_555 1_555
C10 C11 1_555 1_555
C12 C13 1_555 1_555
C15 C16 1_555 1_555
C17 C18 1_555 1_555
C19 C20 1_555 1_555
C6A C7A 1_555 1_555
C1A C2A 1_555 1_555
C13A C12A 1_555 1_555
C16A C17A 1_555 1_555
C9A C10A 1_555 1_555
C4A C5A 1_555 1_555
C20A C19A 1_555 1_555
C14A C15A 1_555 1_555

#END
