
#######################################################################
#
#                 Cambridge Crystallographic Data Centre
#                                CCDC 
#
#######################################################################
#
# If this CIF has been generated from an entry in the Cambridge 
# Structural Database, then it will include bibliographic, chemical, 
# crystal, experimental, refinement or atomic coordinate data resulting 
# from the CCDC's data processing and validation procedures.
#
#######################################################################

data_ZUFQEY
_symmetry_cell_setting           monoclinic
_symmetry_space_group_name_H-M   'C 2/c'
_symmetry_Int_Tables_number      15
_space_group_name_Hall           '-C 2yn'
loop_
_symmetry_equiv_pos_site_id
_symmetry_equiv_pos_as_xyz
1 x,y,z
2 -x,y,1/2-z
3 1/2+x,1/2+y,z
4 1/2-x,1/2+y,1/2-z
5 -x,-y,-z
6 x,-y,1/2+z
7 1/2-x,1/2-y,-z
8 1/2+x,1/2-y,1/2+z
_cell_length_a                   26.511(4)
_cell_length_b                   7.4558(12)
_cell_length_c                   19.432(3)
_cell_angle_alpha                90
_cell_angle_beta                 105.763(3)
_cell_angle_gamma                90
_cell_volume                     3696.5
loop_
_atom_site_label
_atom_site_type_symbol
_atom_site_fract_x
_atom_site_fract_y
_atom_site_fract_z
Zn1 Zn 0.374711(8) 0.66520(3) 0.323024(11)
O1 O 0.37607(5) 0.63814(19) 0.43298(7)
O2 O 0.32208(5) 0.6190(2) 0.50351(7)
O3 O 0.33294(5) 0.7089(2) 0.20632(7)
O4 O 0.25243(5) 0.7494(2) 0.13278(7)
O5 O 0.14797(5) 0.7830(2) 0.32452(8)
O6 O 0.40075(4) 0.42994(18) 0.29865(6)
O7 O 0.46627(5) 0.3885(2) 0.39772(6)
O8 O 0.40666(5) 0.04388(19) 0.35295(7)
O9 O 0.43738(5) -0.20821(19) 0.31777(7)
N1 N 0.29946(6) 0.6995(2) 0.31961(8)
C1 C 0.28600(7) 0.6906(3) 0.38113(9)
C2 C 0.23541(7) 0.7176(3) 0.38444(10)
H1 H 0.2268 0.7119 0.4288
C3 C 0.19702(7) 0.7535(3) 0.32093(10)
C4 C 0.21082(7) 0.7551(3) 0.25605(9)
H2 H 0.1851 0.7737 0.2119
C5 C 0.26277(7) 0.7290(3) 0.25827(9)
C6 C 0.33114(7) 0.6470(3) 0.44511(9)
C7 C 0.28299(7) 0.7304(3) 0.19219(10)
C8 C 0.44446(7) 0.3620(2) 0.33389(9)
C9 C 0.5000 0.3448(4) 0.2500
H3 H 0.5000 0.4722 0.2500
C10 C 0.47211(6) 0.2523(3) 0.28996(9)
C11 C 0.47074(6) 0.0656(3) 0.28828(9)
C12 C 0.5000 -0.0254(4) 0.2500
H4 H 0.5000 -0.1528 0.2500
C13 C 0.43562(7) -0.0376(3) 0.32349(9)
H5 H 0.1298(11) 0.832(4) 0.2841(17)
O6A O 0.59925(4) 0.42994(18) 0.20135(6)
O7A O 0.53373(5) 0.3885(2) 0.10228(6)
O8A O 0.59334(5) 0.04388(19) 0.14705(7)
O9A O 0.56262(5) -0.20821(19) 0.18223(7)
C8A C 0.55554(7) 0.3620(2) 0.16611(9)
C10A C 0.52789(6) 0.2523(3) 0.21004(9)
C11A C 0.52926(6) 0.0656(3) 0.21172(9)
C13A C 0.56438(7) -0.0376(3) 0.17651(9)
Zn1A Zn 0.625289(8) 0.66520(3) 0.176976(11)
O1A O 0.62393(5) 0.63814(19) 0.06702(7)
O2A O 0.67792(5) 0.6190(2) -0.00351(7)
O3A O 0.66706(5) 0.7089(2) 0.29368(7)
O4A O 0.74757(5) 0.7494(2) 0.36722(7)
O5A O 0.85203(5) 0.7830(2) 0.17548(8)
N1A N 0.70054(6) 0.6995(2) 0.18039(8)
C1A C 0.71400(7) 0.6906(3) 0.11887(9)
C2A C 0.76459(7) 0.7176(3) 0.11556(10)
H1A H 0.7732 0.7119 0.0712
C3A C 0.80298(7) 0.7535(3) 0.17907(10)
C4A C 0.78918(7) 0.7551(3) 0.24395(9)
H2A H 0.8149 0.7737 0.2881
C5A C 0.73723(7) 0.7290(3) 0.24173(9)
C6A C 0.66886(7) 0.6470(3) 0.05489(9)
C7A C 0.71701(7) 0.7304(3) 0.30781(10)
H5A H 0.8702(11) 0.832(4) 0.2159(17)
Zn1_2 Zn 0.374711(8) -0.33480(3) 0.323024(11)
Zn1A_2 Zn 0.625289(8) -0.33480(3) 0.176976(11)
O9_2 O 0.43738(5) 0.79179(19) 0.31777(7)
O9A_2 O 0.56262(5) 0.79179(19) 0.18223(7)
N2 N 0.41856(6) 0.8323(3) -0.00661(9)
N3 N 0.36123(6) 0.6804(3) 0.08526(9)
C14 C 0.35992(7) 0.8341(3) -0.02754(10)
H6 H 0.3464 0.7266 -0.0567
H7 H 0.3470 0.9416 -0.0569
C15 C 0.33996(8) 0.8358(3) 0.03835(11)
H8 H 0.3507 0.9488 0.0651
H9 H 0.3012 0.8305 0.0239
C16 C 0.41936(7) 0.6837(3) 0.10727(10)
H10 H 0.4327 0.5780 0.1376
H11 H 0.4316 0.7928 0.1359
C17 C 0.44083(7) 0.6819(3) 0.04280(10)
H12 H 0.4795 0.6929 0.0586
H13 H 0.4320 0.5664 0.0172
H14 H 0.4280(8) 0.813(3) -0.0486(12)
H15 H 0.4307(9) 0.939(4) 0.0131(13)
H16 H 0.3487(9) 0.570(4) 0.0593(13)
H17 H 0.3489(9) 0.683(3) 0.1258(14)
O10 O 0.45215(8) 1.1703(3) 0.03064(12)
H18 H 0.4748(12) 1.233(4) 0.0579(17)
H19 H 0.4319(12) 1.231(5) 0.0042(18)
loop_
_geom_bond_atom_site_label_1
_geom_bond_atom_site_label_2
_geom_bond_site_symmetry_1
_geom_bond_site_symmetry_2
Zn1 O1 1_555 1_555
O1 C6 1_555 1_555
O2 C6 1_555 1_555
O3 Zn1 1_555 1_555
O4 C7 1_555 1_555
O5 C3 1_555 1_555
O6 Zn1 1_555 1_555
O7 C8 1_555 1_555
O8 C13 1_555 1_555
O9 C13 1_555 1_555
N1 Zn1 1_555 1_555
C1 N1 1_555 1_555
C2 C1 1_555 1_555
H1 C2 1_555 1_555
C3 C2 1_555 1_555
C4 C3 1_555 1_555
H2 C4 1_555 1_555
C5 N1 1_555 1_555
C6 C1 1_555 1_555
C7 O3 1_555 1_555
C8 O6 1_555 1_555
C9 H3 1_555 1_555
C10 C8 1_555 1_555
C11 C10 1_555 1_555
C12 C11 1_555 1_555
H4 C12 1_555 1_555
C13 C11 1_555 1_555
H5 O5 1_555 1_555
N2 C14 1_555 1_555
N3 C15 1_555 1_555
C14 H6 1_555 1_555
H7 C14 1_555 1_555
C15 C14 1_555 1_555
H8 C15 1_555 1_555
H9 C15 1_555 1_555
C16 N3 1_555 1_555
H10 C16 1_555 1_555
H11 C16 1_555 1_555
C17 N2 1_555 1_555
H12 C17 1_555 1_555
H13 C17 1_555 1_555
H14 N2 1_555 1_555
H15 N2 1_555 1_555
H16 N3 1_555 1_555
H17 N3 1_555 1_555
O10 H18 1_555 1_555
H19 O10 1_555 1_555
O6A C8A 1_555 1_555
O7A C8A 1_555 1_555
O8A C13A 1_555 1_555
O9A C13A 1_555 1_555
C8A C10A 1_555 1_555
C10A C9 1_555 1_555
C11A C12 1_555 1_555
C13A C11A 1_555 1_555
Zn1A O6A 1_555 1_555
O1A Zn1A 1_555 1_555
O2A C6A 1_555 1_555
O3A Zn1A 1_555 1_555
O4A C7A 1_555 1_555
O5A C3A 1_555 1_555
N1A Zn1A 1_555 1_555
C1A N1A 1_555 1_555
C2A C1A 1_555 1_555
H1A C2A 1_555 1_555
C3A C2A 1_555 1_555
C4A C3A 1_555 1_555
H2A C4A 1_555 1_555
C5A N1A 1_555 1_555
C6A O1A 1_555 1_555
C7A O3A 1_555 1_555
H5A O5A 1_555 1_555
Zn1_2 O9 1_555 1_555
Zn1A_2 O9A 1_555 1_555
O9_2 Zn1 1_555 1_555
O9A_2 Zn1A 1_555 1_555
C4 C5 1_555 1_555
C5 C7 1_555 1_555
C9 C10 1_555 1_555
C16 C17 1_555 1_555
C10A C11A 1_555 1_555
C1A C6A 1_555 1_555
C4A C5A 1_555 1_555
C5A C7A 1_555 1_555

#END
