
#######################################################################
#
#                 Cambridge Crystallographic Data Centre
#                                CCDC 
#
#######################################################################
#
# If this CIF has been generated from an entry in the Cambridge 
# Structural Database, then it will include bibliographic, chemical, 
# crystal, experimental, refinement or atomic coordinate data resulting 
# from the CCDC's data processing and validation procedures.
#
#######################################################################

data_ZUFQIC
_symmetry_cell_setting           monoclinic
_symmetry_space_group_name_H-M   'C 2/c'
_symmetry_Int_Tables_number      15
_space_group_name_Hall           '-C 2yn'
loop_
_symmetry_equiv_pos_site_id
_symmetry_equiv_pos_as_xyz
1 x,y,z
2 -x,y,1/2-z
3 1/2+x,1/2+y,z
4 1/2-x,1/2+y,1/2-z
5 -x,-y,-z
6 x,-y,1/2+z
7 1/2-x,1/2-y,-z
8 1/2+x,1/2-y,1/2+z
_cell_length_a                   23.117(2)
_cell_length_b                   11.8270(10)
_cell_length_c                   18.9591(15)
_cell_angle_alpha                90
_cell_angle_beta                 103.391(2)
_cell_angle_gamma                90
_cell_volume                     5042.58
loop_
_atom_site_label
_atom_site_type_symbol
_atom_site_fract_x
_atom_site_fract_y
_atom_site_fract_z
Zn1 Zn 0.57234(3) 0.37474(5) 0.85920(3)
N1 N 0.6706(2) 0.3702(5) 0.8941(3)
N2 N 0.5935(2) 0.2011(4) 0.8560(3)
O1 O 0.57656(19) 0.6483(4) 0.5059(2)
O2 O 0.57071(16) 0.5027(3) 0.43219(19)
O3 O 0.57615(16) 0.4598(3) 0.76755(18)
O4 O 0.51556(15) 0.3352(3) 0.66524(19)
P1 P 0.57061(6) 0.40425(12) 0.69398(7)
C1 C 0.5746(2) 0.5455(5) 0.4952(3)
C2 C 0.5794(2) 0.4630(4) 0.5562(3)
H1 H 0.6167 0.4226 0.5620
H2 H 0.5476 0.4080 0.5424
C3 C 0.5764(2) 0.5128(4) 0.6292(3)
H3 H 0.5423 0.5626 0.6229
H4 H 0.6119 0.5575 0.6479
C4 C 0.6348(2) 0.3144(5) 0.6998(3)
C5 C 0.6907(3) 0.3582(6) 0.7222(3)
H5 H 0.6950 0.4344 0.7342
C6 C 0.7409(3) 0.2926(8) 0.7275(4)
H6 H 0.7786 0.3242 0.7419
C7 C 0.7341(4) 0.1826(8) 0.7116(4)
H7 H 0.7677 0.1377 0.7153
C8 C 0.6787(4) 0.1338(7) 0.6898(4)
H8 H 0.6747 0.0569 0.6797
C9 C 0.6294(3) 0.2020(6) 0.6834(4)
H9 H 0.5917 0.1708 0.6677
C10 C 0.7076(3) 0.4559(7) 0.9122(3)
H10 H 0.6924 0.5286 0.9128
C11 C 0.7701(3) 0.4398(9) 0.9309(4)
H11 H 0.7959 0.5005 0.9443
C12 C 0.7903(3) 0.3370(9) 0.9286(4)
H12 H 0.8312 0.3263 0.9392
C13 C 0.7539(3) 0.2430(7) 0.9113(3)
C14 C 0.6926(3) 0.2647(6) 0.8929(3)
C15 C 0.6516(3) 0.1746(6) 0.8739(3)
C16 C 0.6716(3) 0.0613(7) 0.8718(4)
C17 C 0.6305(4) -0.0201(7) 0.8514(4)
H13 H 0.6423 -0.0949 0.8485
C18 C 0.5717(4) 0.0068(7) 0.8349(5)
H14 H 0.5432 -0.0496 0.8222
C19 C 0.5545(4) 0.1187(6) 0.8371(4)
H15 H 0.5142 0.1363 0.8249
C20 C 0.7735(4) 0.1279(7) 0.9092(4)
H16 H 0.8140 0.1120 0.9212
C21 C 0.7351(4) 0.0444(8) 0.8907(4)
H17 H 0.7496 -0.0287 0.8897
Zn1A Zn 0.42766(3) 0.37474(5) 0.64080(3)
Zn1E Zn 0.57234(3) 0.62526(5) 0.35920(3)
O2E O 0.57071(16) 0.4973(3) 0.93219(19)
O4A O 0.48444(15) 0.3352(3) 0.83476(19)
O5 O 0.5854(4) 0.2752(6) 0.4177(4)
H18 H 0.5818 0.3462 0.4222
H19 H 0.5596 0.2424 0.4358
O6 O 0.5903(5) 0.6963(7) 0.7772(4)
H20 H 0.5864 0.6254 0.7707
H21 H 0.5889 0.7108 0.8207
O7 O 0.5857(7) 0.8379(12) 0.6651(8)
H22 H 0.5822 0.7875 0.6958
H23 H 0.5597 0.8262 0.6261
O8 O 0.5624(6) 0.0066(13) 0.5492(8)
H24 H 0.5581 -0.0307 0.5860
H25 H 0.5348 0.0555 0.5386
O9 O 0.4995(8) 0.8264(12) 0.5165(9)
H26 H 0.5220 0.7714 0.5118
H27 H 0.5206 0.8858 0.5254
loop_
_geom_bond_atom_site_label_1
_geom_bond_atom_site_label_2
_geom_bond_site_symmetry_1
_geom_bond_site_symmetry_2
Zn1 N1 1_555 1_555
N1 C10 1_555 1_555
N2 Zn1 1_555 1_555
O1 C1 1_555 1_555
O2 C1 1_555 1_555
O3 Zn1 1_555 1_555
O4 P1 1_555 1_555
P1 O3 1_555 1_555
C1 C2 1_555 1_555
C2 H1 1_555 1_555
H2 C2 1_555 1_555
C3 P1 1_555 1_555
H3 C3 1_555 1_555
H4 C3 1_555 1_555
C4 P1 1_555 1_555
C5 C4 1_555 1_555
H5 C5 1_555 1_555
C6 C5 1_555 1_555
H6 C6 1_555 1_555
C7 C6 1_555 1_555
H7 C7 1_555 1_555
C8 C7 1_555 1_555
H8 C8 1_555 1_555
C9 C4 1_555 1_555
H9 C9 1_555 1_555
C10 H10 1_555 1_555
C11 C10 1_555 1_555
H11 C11 1_555 1_555
C12 C11 1_555 1_555
H12 C12 1_555 1_555
C13 C12 1_555 1_555
C14 N1 1_555 1_555
C15 N2 1_555 1_555
C16 C15 1_555 1_555
C17 C16 1_555 1_555
H13 C17 1_555 1_555
C18 C17 1_555 1_555
H14 C18 1_555 1_555
C19 N2 1_555 1_555
H15 C19 1_555 1_555
C20 C13 1_555 1_555
H16 C20 1_555 1_555
C21 C16 1_555 1_555
H17 C21 1_555 1_555
O5 H18 1_555 1_555
H19 O5 1_555 1_555
O6 H20 1_555 1_555
H21 O6 1_555 1_555
O7 H22 1_555 1_555
H23 O7 1_555 1_555
O8 H24 1_555 1_555
H25 O8 1_555 1_555
O9 H26 1_555 1_555
H27 O9 1_555 1_555
Zn1A O4 1_555 1_555
Zn1E O2 1_555 1_555
O2E Zn1 1_555 1_555
O4A Zn1 1_555 1_555
C2 C3 1_555 1_555
C8 C9 1_555 1_555
C13 C14 1_555 1_555
C14 C15 1_555 1_555
C18 C19 1_555 1_555
C20 C21 1_555 1_555

#END
