
#######################################################################
#
#                 Cambridge Crystallographic Data Centre
#                                CCDC 
#
#######################################################################
#
# If this CIF has been generated from an entry in the Cambridge 
# Structural Database, then it will include bibliographic, chemical, 
# crystal, experimental, refinement or atomic coordinate data resulting 
# from the CCDC's data processing and validation procedures.
#
#######################################################################

data_ZUFWEE
_symmetry_cell_setting           triclinic
_symmetry_space_group_name_H-M   'P -1'
_symmetry_Int_Tables_number      2
_space_group_name_Hall           '-P 1'
loop_
_symmetry_equiv_pos_site_id
_symmetry_equiv_pos_as_xyz
1 x,y,z
2 -x,-y,-z
_cell_length_a                   10.1329(3)
_cell_length_b                   12.4857(4)
_cell_length_c                   15.3870(7)
_cell_angle_alpha                110.370(4)
_cell_angle_beta                 96.693(3)
_cell_angle_gamma                90.526(3)
_cell_volume                     1809.94
loop_
_atom_site_label
_atom_site_type_symbol
_atom_site_fract_x
_atom_site_fract_y
_atom_site_fract_z
Hg1 Hg 0.06088(2) 0.556631(17) 0.409486(16)
S1 S 0.00719(15) 0.79619(12) 0.57212(10)
Cl1 Cl 0.18708(15) 0.47337(12) 0.53016(11)
Cl2 Cl 0.0502(2) 0.38634(13) 0.27582(12)
O1 O -0.1574(4) 0.7999(3) 0.4186(3)
O2 O 0.0022(5) 0.6697(4) 0.0126(3)
C1 C 0.0546(6) 0.7401(5) 0.4557(4)
H1 H 0.1428 0.7753 0.4539
C2 C -0.0495(6) 0.7668(4) 0.3916(4)
C3 C -0.0258(6) 0.7466(4) 0.2946(4)
C4 C 0.0911(7) 0.7017(5) 0.2590(5)
H2 H 0.1623 0.6899 0.3001
C5 C 0.1055(7) 0.6742(5) 0.1656(5)
H3 H 0.1847 0.6422 0.1425
C6 C 0.0023(7) 0.6941(5) 0.1060(4)
C7 C -0.1107(7) 0.7468(5) 0.1420(4)
H4 H -0.1773 0.7670 0.1025
C8 C -0.1256(6) 0.7693(5) 0.2337(4)
H5 H -0.2051 0.8010 0.2564
C9 C 0.1148(9) 0.6153(7) -0.0284(5)
H6 H 0.1013 0.6003 -0.0958
H7 H 0.1253 0.5429 -0.0175
H8 H 0.1950 0.6654 0.0001
C10 C 0.0158(7) 0.9493(5) 0.6035(4)
H9 H 0.0998 0.9738 0.5886
H10 H 0.0112 0.9855 0.6707
H11 H -0.0589 0.9721 0.5684
C11 C 0.1562(7) 0.7820(5) 0.6409(4)
H12 H 0.2310 0.8217 0.6277
H13 H 0.1735 0.7008 0.6253
H14 H 0.1459 0.8158 0.7074
Hg2 Hg 0.56424(2) 0.866010(18) 0.414063(16)
Cl3 Cl 0.68850(15) 1.05492(12) 0.53307(12)
Cl4 Cl 0.5519(2) 0.91966(17) 0.27960(14)
S2 S 0.50686(15) 0.76767(12) 0.57748(10)
O3 O 0.3401(4) 0.6336(3) 0.4201(3)
O4 O 0.5619(5) 0.3989(4) 0.0319(3)
C12 C 0.5538(6) 0.7223(5) 0.4616(5)
H15 H 0.6410 0.6853 0.4600
C13 C 0.4498(6) 0.6425(5) 0.3967(4)
C14 C 0.4799(6) 0.5770(5) 0.3000(4)
C15 C 0.6073(6) 0.5843(5) 0.2731(4)
H16 H 0.6767 0.6317 0.3168
C16 C 0.6301(7) 0.5233(5) 0.1846(5)
H17 H 0.7163 0.5272 0.1671
C17 C 0.5280(7) 0.4543(5) 0.1184(5)
C18 C 0.4028(7) 0.4454(5) 0.1457(4)
H18 H 0.3336 0.3975 0.1021
C19 C 0.3795(7) 0.5064(5) 0.2362(5)
H19 H 0.2945 0.4999 0.2547
C20 C 0.4617(8) 0.3229(6) -0.0354(5)
H20 H 0.4961 0.2906 -0.0956
H21 H 0.4379 0.2609 -0.0139
H22 H 0.3827 0.3652 -0.0427
C21 C 0.6555(6) 0.8422(5) 0.6465(5)
H23 H 0.7300 0.7919 0.6338
H24 H 0.6737 0.9101 0.6309
H25 H 0.6445 0.8656 0.7129
C22 C 0.5150(7) 0.6414(5) 0.6077(5)
H26 H 0.4371 0.5900 0.5754
H27 H 0.5961 0.6027 0.5888
H28 H 0.5162 0.6627 0.6754
Hg1A Hg -0.06088(2) 0.443369(17) 0.590514(16)
Cl1A Cl -0.18708(15) 0.52663(12) 0.46984(11)
O1_2 O 0.8426(4) 0.7999(3) 0.4186(3)
Hg2_2 Hg -0.43576(2) 0.866010(18) 0.414063(16)
Hg2A Hg 0.43576(2) 1.133990(18) 0.585937(16)
Cl3A Cl 0.31150(15) 0.94508(12) 0.46693(12)
S3 S 0.90046(17) 0.91424(14) 0.83359(12)
O5 O 1.0468(5) 0.9464(4) 0.8538(4)
C23 C 0.8605(8) 0.8497(6) 0.9133(5)
H29 H 0.9073 0.7787 0.9026
H30 H 0.7643 0.8322 0.9042
H31 H 0.8878 0.9021 0.9773
C24 C 0.8168(8) 1.0445(5) 0.8806(6)
H32 H 0.8466 1.0797 0.9478
H33 H 0.7205 1.0273 0.8705
H34 H 0.8379 1.0974 0.8492
S4 S 0.40130(17) 0.87128(13) 0.82752(11)
O6 O 0.5452(5) 0.8580(5) 0.8559(4)
C25 C 0.3590(7) 1.0078(5) 0.9011(5)
H35 H 0.3775 1.0136 0.9665
H36 H 0.2642 1.0176 0.8862
H37 H 0.4120 1.0675 0.8910
C26 C 0.3063(8) 0.7882(6) 0.8745(6)
H38 H 0.3186 0.7067 0.8425
H39 H 0.2119 0.8032 0.8652
H40 H 0.3362 0.8091 0.9414
loop_
_geom_bond_atom_site_label_1
_geom_bond_atom_site_label_2
_geom_bond_site_symmetry_1
_geom_bond_site_symmetry_2
Hg1 Cl1 1_555 1_555
S1 C1 1_555 1_555
Cl1 Hg1A 1_555 1_555
Cl2 Hg1 1_555 1_555
O1 C2 1_555 1_555
O2 C6 1_555 1_555
C1 Hg1 1_555 1_555
H1 C1 1_555 1_555
C2 C1 1_555 1_555
C3 C2 1_555 1_555
C4 C3 1_555 1_555
H2 C4 1_555 1_555
C5 C4 1_555 1_555
H3 C5 1_555 1_555
C6 C5 1_555 1_555
C7 C6 1_555 1_555
H4 C7 1_555 1_555
C8 C3 1_555 1_555
H5 C8 1_555 1_555
C9 O2 1_555 1_555
H6 C9 1_555 1_555
H7 C9 1_555 1_555
H8 C9 1_555 1_555
C10 S1 1_555 1_555
H9 C10 1_555 1_555
H10 C10 1_555 1_555
H11 C10 1_555 1_555
C11 S1 1_555 1_555
H12 C11 1_555 1_555
H13 C11 1_555 1_555
H14 C11 1_555 1_555
Hg2 Cl3 1_555 1_555
Cl3 Hg2A 1_555 1_555
Cl4 Hg2 1_555 1_555
S2 C12 1_555 1_555
O3 Hg1 1_555 1_555
O4 C17 1_555 1_555
C12 Hg2 1_555 1_555
H15 C12 1_555 1_555
C13 O3 1_555 1_555
C14 C13 1_555 1_555
C15 C14 1_555 1_555
H16 C15 1_555 1_555
C16 C15 1_555 1_555
H17 C16 1_555 1_555
C17 C16 1_555 1_555
C18 C17 1_555 1_555
H18 C18 1_555 1_555
C19 C14 1_555 1_555
H19 C19 1_555 1_555
C20 O4 1_555 1_555
H20 C20 1_555 1_555
H21 C20 1_555 1_555
H22 C20 1_555 1_555
C21 S2 1_555 1_555
H23 C21 1_555 1_555
H24 C21 1_555 1_555
H25 C21 1_555 1_555
C22 S2 1_555 1_555
H26 C22 1_555 1_555
H27 C22 1_555 1_555
H28 C22 1_555 1_555
S3 O5 1_555 1_555
C23 S3 1_555 1_555
H29 C23 1_555 1_555
H30 C23 1_555 1_555
H31 C23 1_555 1_555
C24 S3 1_555 1_555
H32 C24 1_555 1_555
H33 C24 1_555 1_555
H34 C24 1_555 1_555
S4 O6 1_555 1_555
C25 S4 1_555 1_555
H35 C25 1_555 1_555
H36 C25 1_555 1_555
H37 C25 1_555 1_555
C26 S4 1_555 1_555
H38 C26 1_555 1_555
H39 C26 1_555 1_555
H40 C26 1_555 1_555
Hg1A Cl1A 1_555 1_555
Cl1A Hg1 1_555 1_555
O1_2 Hg2 1_555 1_555
Hg2_2 O1 1_555 1_555
Hg2A Cl3A 1_555 1_555
Cl3A Hg2 1_555 1_555
C7 C8 1_555 1_555
C12 C13 1_555 1_555
C18 C19 1_555 1_555

#END
