
#######################################################################
#
#                 Cambridge Crystallographic Data Centre
#                                CCDC 
#
#######################################################################
#
# If this CIF has been generated from an entry in the Cambridge 
# Structural Database, then it will include bibliographic, chemical, 
# crystal, experimental, refinement or atomic coordinate data resulting 
# from the CCDC's data processing and validation procedures.
#
#######################################################################

data_ZUGHOA
_symmetry_cell_setting           triclinic
_symmetry_space_group_name_H-M   'P -1'
_symmetry_Int_Tables_number      2
_space_group_name_Hall           '-P 1'
loop_
_symmetry_equiv_pos_site_id
_symmetry_equiv_pos_as_xyz
1 x,y,z
2 -x,-y,-z
_cell_length_a                   7.1708(4)
_cell_length_b                   8.4435(4)
_cell_length_c                   12.2732(6)
_cell_angle_alpha                91.2260(11)
_cell_angle_beta                 101.3998(12)
_cell_angle_gamma                111.3897(10)
_cell_volume                     674.7
loop_
_atom_site_label
_atom_site_type_symbol
_atom_site_fract_x
_atom_site_fract_y
_atom_site_fract_z
Zn1 Zn 0.53510(2) -0.19730(2) 0.76510(2)
Cl1 Cl 0.37329(5) -0.16349(4) 0.59852(3)
Cl2 Cl 0.34901(5) -0.24487(4) 0.89548(3)
N1 N 0.80904(16) 0.01351(13) 0.82312(9)
N2 N 0.66149(16) 0.37213(13) 0.75588(9)
N3 N 0.59909(16) 0.48223(13) 0.80194(9)
N4 N 0.64863(16) 0.61742(13) 0.74500(9)
C1 C 0.98137(19) -0.01793(16) 0.85844(10)
H1 H 0.9744 -0.1319 0.8475
C2 C 1.16729(19) 0.10722(17) 0.90970(10)
H2 H 1.2850 0.0796 0.9340
C3 C 1.1792(2) 0.27408(17) 0.92513(11)
H3 H 1.3051 0.3629 0.9604
C4 C 1.0040(2) 0.30881(16) 0.88808(11)
H4 H 1.0086 0.4223 0.8972
C5 C 0.82165(19) 0.17625(15) 0.83748(10)
C6 C 0.6250(2) 0.20590(15) 0.79903(12)
H5 H 0.5314 0.1145 0.7398
H6 H 0.5568 0.1994 0.8624
C7 C 0.7505(2) 0.43369(16) 0.67028(11)
H7 H 0.8055 0.3782 0.6245
C8 C 0.74406(19) 0.59387(16) 0.66380(11)
C9 C 0.8225(2) 0.72704(16) 0.58818(11)
H8 H 0.9675 0.7992 0.6220
H9 H 0.7424 0.8015 0.5818
C10 C 0.8095(2) 0.65229(18) 0.47196(11)
H10 H 0.6658 0.5759 0.4391
H11 H 0.8956 0.5828 0.4775
C11 C 0.8807(2) 0.79111(19) 0.39548(12)
H12 H 0.8701 0.7382 0.3215
H13 H 0.7941 0.8588 0.3887
H14 H 1.0238 0.8657 0.4270
Zn1_2 Zn 0.53510(2) 0.80270(2) 0.76510(2)
N4_2 N 0.64863(16) -0.38258(13) 0.74500(9)
loop_
_geom_bond_atom_site_label_1
_geom_bond_atom_site_label_2
_geom_bond_site_symmetry_1
_geom_bond_site_symmetry_2
Zn1 Cl1 1_555 1_555
Cl2 Zn1 1_555 1_555
N1 Zn1 1_555 1_555
N2 N3 1_555 1_555
N3 N4 1_555 1_555
N4 C8 1_555 1_555
C1 N1 1_555 1_555
H1 C1 1_555 1_555
C2 C1 1_555 1_555
H2 C2 1_555 1_555
C3 C2 1_555 1_555
H3 C3 1_555 1_555
C4 C3 1_555 1_555
H4 C4 1_555 1_555
C5 N1 1_555 1_555
C6 N2 1_555 1_555
H5 C6 1_555 1_555
H6 C6 1_555 1_555
C7 N2 1_555 1_555
H7 C7 1_555 1_555
C8 C7 1_555 1_555
C9 C8 1_555 1_555
H8 C9 1_555 1_555
H9 C9 1_555 1_555
C10 C9 1_555 1_555
H10 C10 1_555 1_555
H11 C10 1_555 1_555
C11 C10 1_555 1_555
H12 C11 1_555 1_555
H13 C11 1_555 1_555
H14 C11 1_555 1_555
Zn1_2 N4 1_555 1_555
N4_2 Zn1 1_555 1_555
C4 C5 1_555 1_555
C5 C6 1_555 1_555

#END
