
#######################################################################
#
#                 Cambridge Crystallographic Data Centre
#                                CCDC 
#
#######################################################################
#
# If this CIF has been generated from an entry in the Cambridge 
# Structural Database, then it will include bibliographic, chemical, 
# crystal, experimental, refinement or atomic coordinate data resulting 
# from the CCDC's data processing and validation procedures.
#
#######################################################################

data_ZUGMUL
_symmetry_cell_setting           orthorhombic
_symmetry_space_group_name_H-M   'P b c a'
_symmetry_Int_Tables_number      61
_space_group_name_Hall           '-P 2ac 2ab'
loop_
_symmetry_equiv_pos_site_id
_symmetry_equiv_pos_as_xyz
1 x,y,z
2 1/2-x,-y,1/2+z
3 -x,1/2+y,1/2-z
4 1/2+x,1/2-y,-z
5 -x,-y,-z
6 1/2+x,y,1/2-z
7 x,1/2-y,1/2+z
8 1/2-x,1/2+y,z
_cell_length_a                   13.5858(9)
_cell_length_b                   9.1079(6)
_cell_length_c                   31.011(2)
_cell_angle_alpha                90
_cell_angle_beta                 90
_cell_angle_gamma                90
_cell_volume                     3837.24
loop_
_atom_site_label
_atom_site_type_symbol
_atom_site_fract_x
_atom_site_fract_y
_atom_site_fract_z
Cu1 Cu 0.29920(4) 0.10742(6) 0.297739(16)
N1 N 0.2530(4) 0.0317(5) 0.24004(13)
H1 H 0.3070 0.0226 0.2234
H2 H 0.2301 -0.0597 0.2446
C1 C 0.1875(6) 0.0991(7) 0.2168(2)
H3 H 0.2052 0.2021 0.2153
H4 H 0.1247 0.0927 0.2316
C2 C 0.1737(5) 0.0407(7) 0.17009(17)
C3 C 0.2091(6) 0.1175(10) 0.1369(2)
H5 H 0.2448 0.2029 0.1419
C4 C 0.1932(6) 0.0710(13) 0.0953(2)
H6 H 0.2177 0.1252 0.0723
C5 C 0.1420(6) -0.0535(10) 0.0880(2)
H7 H 0.1365 -0.0899 0.0601
C6 C 0.0999(4) -0.1233(6) 0.1200(3)
H8 H 0.0594 -0.2036 0.1148
C7 C 0.1172(4) -0.0747(6) 0.1619(2)
H9 H 0.0882 -0.1247 0.1848
N2 N 0.3482(2) 0.2089(3) 0.35129(9)
H10 H 0.3028 0.2798 0.3570
C8 C 0.3528(3) 0.1181(5) 0.39077(13)
H11 H 0.4089 0.0527 0.3886
H12 H 0.2940 0.0577 0.3922
C9 C 0.3611(4) 0.2045(5) 0.43188(14)
C10 C 0.2848(4) 0.2902(6) 0.44535(16)
H13 H 0.2257 0.2890 0.4302
C11 C 0.2943(6) 0.3795(8) 0.4816(2)
H14 H 0.2426 0.4400 0.4901
C12 C 0.3798(8) 0.3776(10) 0.5045(2)
H15 H 0.3861 0.4370 0.5287
C13 C 0.4548(6) 0.2913(9) 0.4927(2)
H16 H 0.5126 0.2904 0.5088
C14 C 0.4464(5) 0.2030(7) 0.45628(18)
H17 H 0.4984 0.1425 0.4483
O1 O 0.3075(2) 0.5004(3) 0.32507(10)
O2 O 0.3924(2) 0.2324(3) 0.26841(9)
O3 O 0.5217(3) 0.3757(4) 0.27838(11)
O4 O 0.3860(3) 0.6800(4) 0.35970(11)
C15 C 0.3779(4) 0.5504(5) 0.34779(15)
C16 C 0.4531(4) 0.3013(5) 0.29214(15)
C17 C 0.4526(3) 0.4398(4) 0.36209(13)
H18 H 0.5178 0.4769 0.3555
H19 H 0.4481 0.4284 0.3931
C18 C 0.4402(2) 0.2893(3) 0.34096(9)
H20 H 0.4945 0.2282 0.3515
O5 O 0.3895(2) -0.0987(3) 0.29913(9)
H21 H 0.3769 -0.1823 0.3093
H22 H 0.4321 -0.1090 0.2812
Cu1G Cu 0.20080(4) 0.60742(6) 0.297739(16)
O1G O 0.1925(2) 0.0004(3) 0.32507(10)
loop_
_geom_bond_atom_site_label_1
_geom_bond_atom_site_label_2
_geom_bond_site_symmetry_1
_geom_bond_site_symmetry_2
Cu1 N1 1_555 1_555
N1 H1 1_555 1_555
H2 N1 1_555 1_555
C1 N1 1_555 1_555
H3 C1 1_555 1_555
H4 C1 1_555 1_555
C2 C1 1_555 1_555
C3 C2 1_555 1_555
H5 C3 1_555 1_555
C4 C3 1_555 1_555
H6 C4 1_555 1_555
C5 C4 1_555 1_555
H7 C5 1_555 1_555
C6 C5 1_555 1_555
H8 C6 1_555 1_555
C7 C2 1_555 1_555
H9 C7 1_555 1_555
N2 Cu1 1_555 1_555
H10 N2 1_555 1_555
C8 N2 1_555 1_555
H11 C8 1_555 1_555
H12 C8 1_555 1_555
C9 C8 1_555 1_555
C10 C9 1_555 1_555
H13 C10 1_555 1_555
C11 C10 1_555 1_555
H14 C11 1_555 1_555
C12 C11 1_555 1_555
H15 C12 1_555 1_555
C13 C12 1_555 1_555
H16 C13 1_555 1_555
C14 C9 1_555 1_555
H17 C14 1_555 1_555
O1 C15 1_555 1_555
O2 Cu1 1_555 1_555
O3 C16 1_555 1_555
O4 C15 1_555 1_555
C15 C17 1_555 1_555
C16 O2 1_555 1_555
C17 H18 1_555 1_555
H19 C17 1_555 1_555
C18 N2 1_555 1_555
H20 C18 1_555 1_555
O5 Cu1 1_555 1_555
H21 O5 1_555 1_555
H22 O5 1_555 1_555
Cu1G O1 1_555 1_555
O1G Cu1 1_555 1_555
C6 C7 1_555 1_555
C13 C14 1_555 1_555
C16 C18 1_555 1_555
C17 C18 1_555 1_555

#END
