
#######################################################################
#
#                 Cambridge Crystallographic Data Centre
#                                CCDC 
#
#######################################################################
#
# If this CIF has been generated from an entry in the Cambridge 
# Structural Database, then it will include bibliographic, chemical, 
# crystal, experimental, refinement or atomic coordinate data resulting 
# from the CCDC's data processing and validation procedures.
#
#######################################################################

data_ZUGQOJ
_symmetry_cell_setting           monoclinic
_symmetry_space_group_name_H-M   'C 2/c'
_symmetry_Int_Tables_number      15
_space_group_name_Hall           '-C 2yn'
loop_
_symmetry_equiv_pos_site_id
_symmetry_equiv_pos_as_xyz
1 x,y,z
2 -x,y,1/2-z
3 1/2+x,1/2+y,z
4 1/2-x,1/2+y,1/2-z
5 -x,-y,-z
6 x,-y,1/2+z
7 1/2-x,1/2-y,-z
8 1/2+x,1/2-y,1/2+z
_cell_length_a                   20.624(3)
_cell_length_b                   4.6502(6)
_cell_length_c                   18.568(2)
_cell_angle_alpha                90
_cell_angle_beta                 116.223(2)
_cell_angle_gamma                90
_cell_volume                     1597.5
loop_
_atom_site_label
_atom_site_type_symbol
_atom_site_fract_x
_atom_site_fract_y
_atom_site_fract_z
Ni1 Ni 0.2500 1.2500 0.0000
S1 S 0.44651(6) 0.4712(3) 0.21058(7)
O1 O 0.24112(18) 0.9088(8) 0.07746(19)
O2 O 0.30672(19) 0.5058(7) 0.1036(2)
O3 O 0.3569(2) 1.0831(10) 0.0197(3)
H1 H 0.3732 1.2408 0.0112
H2 H 0.3896 0.9830 0.0158
N1 N 0.4490(2) 0.8104(9) 0.3287(2)
C1 C 0.2922(3) 0.7489(11) 0.1220(3)
C2 C 0.3393(2) 0.8468(10) 0.2065(3)
C3 C 0.3144(3) 1.0534(11) 0.2410(3)
H3 H 0.2697 1.1394 0.2111
C4 C 0.3558(3) 1.1342(12) 0.3204(3)
H4 H 0.3394 1.2708 0.3451
C5 C 0.4217(3) 1.0051(12) 0.3610(3)
H5 H 0.4494 1.0560 0.4144
C6 C 0.4088(3) 0.7325(10) 0.2530(3)
S1A S 0.55349(6) 0.4712(3) 0.28942(7)
O1A O 0.75888(18) 0.9088(8) 0.42254(19)
O2A O 0.69328(19) 0.5058(7) 0.3964(2)
N1A N 0.5510(2) 0.8104(9) 0.1713(2)
C1A C 0.7078(3) 0.7489(11) 0.3780(3)
C2A C 0.6607(2) 0.8468(10) 0.2935(3)
C3A C 0.6856(3) 1.0534(11) 0.2590(3)
H3A H 0.7303 1.1394 0.2889
C4A C 0.6442(3) 1.1342(12) 0.1796(3)
H4A H 0.6606 1.2708 0.1549
C5A C 0.5783(3) 1.0051(12) 0.1390(3)
H5A H 0.5506 1.0560 0.0856
C6A C 0.5912(3) 0.7325(10) 0.2470(3)
O3F O 0.1431(2) 1.4169(10) -0.0197(3)
H1F H 0.1268 1.2592 -0.0112
H2F H 0.1104 1.5170 -0.0158
Ni1_2 Ni 0.2500 0.2500 0.0000
Ni1A Ni 0.7500 0.2500 0.5000
Ni1A_2 Ni 0.7500 1.2500 0.5000
O1F O 0.25888(18) 1.5912(8) -0.07746(19)
O2_2 O 0.30672(19) 1.5058(7) 0.1036(2)
O2F O 0.19328(19) 0.9942(7) -0.1036(2)
O4 O 0.5549(2) 0.5671(11) 0.4743(2)
H6 H 0.5230 0.5040 0.4875
H7 H 0.5341 0.5268 0.4245
loop_
_geom_bond_atom_site_label_1
_geom_bond_atom_site_label_2
_geom_bond_site_symmetry_1
_geom_bond_site_symmetry_2
Ni1 O1 1_555 1_555
S1 C6 1_555 1_555
O1 C1 1_555 1_555
O2 C1 1_555 1_555
O3 Ni1 1_555 1_555
H1 O3 1_555 1_555
H2 O3 1_555 1_555
N1 C5 1_555 1_555
C1 C2 1_555 1_555
C2 C3 1_555 1_555
C3 H3 1_555 1_555
C4 C3 1_555 1_555
H4 C4 1_555 1_555
C5 C4 1_555 1_555
H5 C5 1_555 1_555
C6 N1 1_555 1_555
O4 H6 1_555 1_555
H7 O4 1_555 1_555
S1A S1 1_555 1_555
O1A C1A 1_555 1_555
O2A C1A 1_555 1_555
N1A C5A 1_555 1_555
C1A C2A 1_555 1_555
C2A C3A 1_555 1_555
C3A H3A 1_555 1_555
C4A C3A 1_555 1_555
H4A C4A 1_555 1_555
C5A C4A 1_555 1_555
H5A C5A 1_555 1_555
C6A S1A 1_555 1_555
O3F Ni1 1_555 1_555
H1F O3F 1_555 1_555
H2F O3F 1_555 1_555
Ni1_2 O2 1_555 1_555
Ni1A O2A 1_555 1_555
Ni1A_2 O1A 1_555 1_555
O1F Ni1 1_555 1_555
O2_2 Ni1 1_555 1_555
O2F Ni1 1_555 1_555
C2 C6 1_555 1_555
N1A C6A 1_555 1_555
C2A C6A 1_555 1_555

#END
