
#######################################################################
#
#                 Cambridge Crystallographic Data Centre
#                                CCDC 
#
#######################################################################
#
# If this CIF has been generated from an entry in the Cambridge 
# Structural Database, then it will include bibliographic, chemical, 
# crystal, experimental, refinement or atomic coordinate data resulting 
# from the CCDC's data processing and validation procedures.
#
#######################################################################

data_ZUGRIE
_symmetry_cell_setting           monoclinic
_symmetry_space_group_name_H-M   'C 2/c'
_symmetry_Int_Tables_number      15
_space_group_name_Hall           '-C 2yn'
loop_
_symmetry_equiv_pos_site_id
_symmetry_equiv_pos_as_xyz
1 x,y,z
2 -x,y,1/2-z
3 1/2+x,1/2+y,z
4 1/2-x,1/2+y,1/2-z
5 -x,-y,-z
6 x,-y,1/2+z
7 1/2-x,1/2-y,-z
8 1/2+x,1/2-y,1/2+z
_cell_length_a                   14.4980(12)
_cell_length_b                   13.1512(10)
_cell_length_c                   14.3301(12)
_cell_angle_alpha                90
_cell_angle_beta                 103.108(2)
_cell_angle_gamma                90
_cell_volume                     2661.07
loop_
_atom_site_label
_atom_site_type_symbol
_atom_site_fract_x
_atom_site_fract_y
_atom_site_fract_z
C1 C 0.64119(14) 0.06857(15) 0.38782(14)
C2 C 0.70999(15) 0.14859(17) 0.36631(17)
H1 H 0.7132 0.1416 0.2997
H2 H 0.7725 0.1337 0.4052
C3 C 0.57583(16) 0.29547(15) 0.30341(15)
C4 C 0.45310(15) 0.22240(14) 0.48072(15)
H3 H 0.5144 0.2363 0.5148
C5 C 0.30756(14) 0.24507(15) 0.39845(15)
C6 C 0.32606(14) 0.14138(14) 0.41265(14)
C7 C 0.25587(16) 0.07034(16) 0.37663(16)
H4 H 0.2671 0.0010 0.3857
C8 C 0.16908(16) 0.10622(19) 0.32707(19)
H5 H 0.1209 0.0603 0.3024
C9 C 0.15230(17) 0.2109(2) 0.3133(2)
H6 H 0.0931 0.2326 0.2793
C10 C 0.22051(16) 0.28215(18) 0.3484(2)
H7 H 0.2092 0.3514 0.3392
C11 C 0.40119(16) 0.40584(14) 0.44598(16)
H8 H 0.3520 0.4352 0.4734
H9 H 0.3921 0.4308 0.3808
C12 C 0.49629(16) 0.44202(15) 0.50285(16)
H10 H 0.5463 0.4108 0.4778
H11 H 0.5044 0.4215 0.5692
N1 N 0.54429(17) 0.38651(15) 0.28051(17)
N2 N 0.41873(12) 0.12882(12) 0.46405(13)
N3 N 0.39017(13) 0.29489(12) 0.44329(13)
O1 O 0.61021(11) 0.08022(11) 0.46111(10)
O2 O 0.54091(11) 0.06640(12) 0.63740(10)
H12 H 0.5682 0.1235 0.6336
H13 H 0.5796 0.0268 0.6746
O3 O 0.62183(13) -0.00215(11) 0.32841(13)
S1 S 0.68239(4) 0.27876(4) 0.38669(4)
S2 S 0.5000 0.20014(5) 0.2500
Ni1 Ni 0.5000 0.0000 0.5000
C1A C 0.35881(14) 0.06857(15) 0.11218(14)
C2A C 0.29001(15) 0.14859(17) 0.13369(17)
H1A H 0.2868 0.1416 0.2003
H2A H 0.2275 0.1337 0.0948
C3A C 0.42417(16) 0.29547(15) 0.19659(15)
N1A N 0.45571(17) 0.38651(15) 0.21949(17)
O1A O 0.38979(11) 0.08022(11) 0.03889(10)
O3A O 0.37817(13) -0.00215(11) 0.17159(13)
S1A S 0.31761(4) 0.27876(4) 0.11331(4)
C4D C 0.54690(15) 0.77760(14) 0.51928(15)
H3D H 0.4856 0.7637 0.4852
C5D C 0.69244(14) 0.75493(15) 0.60155(15)
C6D C 0.67394(14) 0.85862(14) 0.58735(14)
C7D C 0.74413(16) 0.92966(16) 0.62337(16)
H4D H 0.7329 0.9990 0.6143
C8D C 0.83092(16) 0.89378(19) 0.67293(19)
H5D H 0.8791 0.9397 0.6976
C9D C 0.84770(17) 0.7891(2) 0.6867(2)
H6D H 0.9069 0.7674 0.7207
C10D C 0.77949(16) 0.71785(18) 0.6516(2)
H7D H 0.7908 0.6486 0.6608
C11D C 0.59881(16) 0.59416(14) 0.55402(16)
H8D H 0.6480 0.5648 0.5266
H9D H 0.6079 0.5692 0.6192
C12D C 0.50371(16) 0.55798(15) 0.49715(16)
H10D H 0.4537 0.5892 0.5222
H11D H 0.4956 0.5785 0.4308
N2D N 0.58127(12) 0.87118(12) 0.53595(13)
N3D N 0.60983(13) 0.70511(12) 0.55671(13)
O2D O 0.45909(11) -0.06640(12) 0.36260(10)
H12D H 0.4318 -0.1235 0.3664
H13D H 0.4204 -0.0268 0.3254
N2D_2 N 0.58127(12) -0.12882(12) 0.53595(13)
O1D O 0.38979(11) -0.08022(11) 0.53889(10)
Ni1_2 Ni 0.5000 1.0000 0.5000
Ni1A Ni 0.5000 0.0000 0.0000
loop_
_geom_bond_atom_site_label_1
_geom_bond_atom_site_label_2
_geom_bond_site_symmetry_1
_geom_bond_site_symmetry_2
C1 C2 1_555 1_555
C2 H1 1_555 1_555
H2 C2 1_555 1_555
C3 N1 1_555 1_555
C4 H3 1_555 1_555
C5 C6 1_555 1_555
C6 C7 1_555 1_555
C7 H4 1_555 1_555
C8 C7 1_555 1_555
H5 C8 1_555 1_555
C9 C8 1_555 1_555
H6 C9 1_555 1_555
C10 C5 1_555 1_555
H7 C10 1_555 1_555
C11 H8 1_555 1_555
H9 C11 1_555 1_555
C12 C11 1_555 1_555
H10 C12 1_555 1_555
H11 C12 1_555 1_555
N1 N1A 1_555 1_555
N2 C4 1_555 1_555
N3 C4 1_555 1_555
O1 C1 1_555 1_555
O2 H12 1_555 1_555
H13 O2 1_555 1_555
O3 C1 1_555 1_555
S1 C2 1_555 1_555
S2 C3 1_555 1_555
Ni1 N2 1_555 1_555
C1A C2A 1_555 1_555
C2A H1A 1_555 1_555
H2A C2A 1_555 1_555
C3A S2 1_555 1_555
N1A C3A 1_555 1_555
O1A C1A 1_555 1_555
O3A C1A 1_555 1_555
S1A C2A 1_555 1_555
C4D H3D 1_555 1_555
C5D C6D 1_555 1_555
C6D C7D 1_555 1_555
C7D H4D 1_555 1_555
C8D C7D 1_555 1_555
H5D C8D 1_555 1_555
C9D C8D 1_555 1_555
H6D C9D 1_555 1_555
C10D C5D 1_555 1_555
H7D C10D 1_555 1_555
C11D H8D 1_555 1_555
H9D C11D 1_555 1_555
C12D C12 1_555 1_555
H10D C12D 1_555 1_555
H11D C12D 1_555 1_555
N2D C4D 1_555 1_555
N3D C4D 1_555 1_555
O2D Ni1 1_555 1_555
H12D O2D 1_555 1_555
H13D O2D 1_555 1_555
N2D_2 Ni1 1_555 1_555
O1D Ni1 1_555 1_555
Ni1_2 N2D 1_555 1_555
Ni1A O1A 1_555 1_555
C3 S1 1_555 1_555
C5 N3 1_555 1_555
C6 N2 1_555 1_555
C9 C10 1_555 1_555
C11 N3 1_555 1_555
O1 Ni1 1_555 1_555
O2 Ni1 1_555 1_555
C3A S1A 1_555 1_555
C5D N3D 1_555 1_555
C6D N2D 1_555 1_555
C9D C10D 1_555 1_555
C11D C12D 1_555 1_555
C11D N3D 1_555 1_555

#END
