
#######################################################################
#
#                 Cambridge Crystallographic Data Centre
#                                CCDC 
#
#######################################################################
#
# If this CIF has been generated from an entry in the Cambridge 
# Structural Database, then it will include bibliographic, chemical, 
# crystal, experimental, refinement or atomic coordinate data resulting 
# from the CCDC's data processing and validation procedures.
#
#######################################################################

data_ZUGRAW
_symmetry_cell_setting           orthorhombic
_symmetry_space_group_name_H-M   'P c a 21'
_symmetry_Int_Tables_number      29
_space_group_name_Hall           'P 2c -2ac'
loop_
_symmetry_equiv_pos_site_id
_symmetry_equiv_pos_as_xyz
1 x,y,z
2 -x,-y,1/2+z
3 1/2-x,y,1/2+z
4 1/2+x,-y,z
_cell_length_a                   23.5731(11)
_cell_length_b                   5.0532(2)
_cell_length_c                   20.9051(10)
_cell_angle_alpha                90
_cell_angle_beta                 90
_cell_angle_gamma                90
_cell_volume                     2490.21
loop_
_atom_site_label
_atom_site_type_symbol
_atom_site_fract_x
_atom_site_fract_y
_atom_site_fract_z
C1 C 0.14399(10) 1.4411(5) 0.32943(11)
C2 C 0.09999(10) 1.5890(5) 0.28970(12)
H1 H 0.1182 1.6511 0.2509
H2 H 0.0880 1.7438 0.3136
C3 C 0.06490(10) 1.1845(5) 0.21130(11)
C4 C 0.11202(10) 0.9291(5) 0.13167(11)
C5 C 0.20793(11) 0.9967(5) 0.05453(12)
H3 H 0.1913 1.1695 0.0470
H4 H 0.2358 1.0121 0.0885
C6 C 0.23555(10) 0.8910(5) -0.00671(11)
C7 C 0.29551(9) 1.2405(5) 0.36297(11)
H5 H 0.2858 1.3423 0.3984
C8 C 0.34391(10) 1.0861(5) 0.28142(11)
C9 C 0.29216(10) 0.9518(4) 0.28697(11)
C10 C 0.27781(11) 0.7545(5) 0.24315(11)
H6 H 0.2435 0.6645 0.2459
C11 C 0.31670(12) 0.6977(5) 0.19534(12)
H7 H 0.3081 0.5671 0.1655
C12 C 0.36884(12) 0.8325(5) 0.19065(12)
H8 H 0.3940 0.7875 0.1582
C13 C 0.38336(11) 1.0293(5) 0.23308(12)
H9 H 0.4176 1.1200 0.2299
C14 C 0.39144(9) 1.4435(5) 0.34766(12)
H10 H 0.3777 1.5825 0.3757
H11 H 0.4064 1.5260 0.3093
C15 C 0.43872(9) 1.2903(4) 0.38128(12)
H12 H 0.4718 1.4035 0.3851
H13 H 0.4492 1.1394 0.3551
C16 C 0.42177(10) 1.1920(5) 0.44819(11)
H14 H 0.4184 1.3430 0.4766
H15 H 0.3849 1.1078 0.4456
C17 C 0.56268(9) 1.0058(4) 0.43316(11)
H16 H 0.5566 0.8688 0.4043
C18 C 0.54671(9) 1.2948(4) 0.50935(10)
C19 C 0.60242(9) 1.3186(4) 0.48691(11)
C20 C 0.63895(10) 1.5095(4) 0.51190(11)
H17 H 0.6760 1.5276 0.4971
C21 C 0.61774(10) 1.6702(5) 0.55957(11)
H18 H 0.6411 1.7997 0.5771
C22 C 0.56202(10) 1.6443(5) 0.58249(12)
H19 H 0.5495 1.7563 0.6148
C23 C 0.52532(10) 1.4558(5) 0.55805(11)
H20 H 0.4884 1.4374 0.5732
C24 C 0.46393(9) 0.9976(5) 0.47649(12)
H21 H 0.4614 0.8316 0.4534
H22 H 0.4538 0.9633 0.5207
N1 N 0.06042(9) 0.8485(4) 0.14216(10)
N2 N 0.03303(8) 0.9959(4) 0.18852(10)
N3 N 0.26265(8) 1.0524(4) 0.33944(10)
N4 N 0.34448(8) 1.2699(4) 0.33050(9)
N5 N 0.61125(8) 1.1332(4) 0.43815(9)
N6 N 0.52260(8) 1.0932(4) 0.47401(9)
O1 O 0.13823(6) 1.1960(3) 0.33614(8)
O2 O 0.18365(6) 1.5762(3) 0.35227(8)
O3 O 0.27671(7) 1.0297(3) -0.02650(8)
O4 O 0.21686(8) 0.6872(4) -0.03088(8)
S1 S 0.03741(2) 1.40489(12) 0.26728(3)
S2 S 0.13268(3) 1.19712(12) 0.17822(3)
S3 S 0.15349(3) 0.75827(12) 0.07600(3)
Co1 Co 0.188647(12) 0.94752(5) 0.387971(16)
N5C N 0.11125(8) 0.8668(4) 0.43815(9)
O2_2 O 0.18365(6) 0.5762(3) 0.35227(8)
O3B O 0.22329(7) 1.0297(3) 0.47350(8)
Co1_2 Co 0.188647(12) 1.94752(5) 0.387971(16)
Co1B Co 0.311353(12) 0.94752(5) -0.112029(16)
Co1C Co 0.688647(12) 1.05248(5) 0.387971(16)
loop_
_geom_bond_atom_site_label_1
_geom_bond_atom_site_label_2
_geom_bond_site_symmetry_1
_geom_bond_site_symmetry_2
C1 C2 1_555 1_555
C2 H1 1_555 1_555
H2 C2 1_555 1_555
C3 N2 1_555 1_555
C4 N1 1_555 1_555
C5 H3 1_555 1_555
H4 C5 1_555 1_555
C6 C5 1_555 1_555
C7 H5 1_555 1_555
C8 C9 1_555 1_555
C9 C10 1_555 1_555
C10 H6 1_555 1_555
C11 C10 1_555 1_555
H7 C11 1_555 1_555
C12 C11 1_555 1_555
H8 C12 1_555 1_555
C13 C8 1_555 1_555
H9 C13 1_555 1_555
C14 H10 1_555 1_555
H11 C14 1_555 1_555
C15 C14 1_555 1_555
H12 C15 1_555 1_555
H13 C15 1_555 1_555
C16 C15 1_555 1_555
H14 C16 1_555 1_555
H15 C16 1_555 1_555
C17 H16 1_555 1_555
C18 C19 1_555 1_555
C19 C20 1_555 1_555
C20 H17 1_555 1_555
C21 C20 1_555 1_555
H18 C21 1_555 1_555
C22 C21 1_555 1_555
H19 C22 1_555 1_555
C23 C18 1_555 1_555
H20 C23 1_555 1_555
C24 C16 1_555 1_555
H21 C24 1_555 1_555
H22 C24 1_555 1_555
N1 N2 1_555 1_555
N3 C7 1_555 1_555
N4 C7 1_555 1_555
N5 C17 1_555 1_555
N6 C17 1_555 1_555
O1 C1 1_555 1_555
O2 C1 1_555 1_555
O3 C6 1_555 1_555
O4 C6 1_555 1_555
S1 C2 1_555 1_555
S2 C3 1_555 1_555
S3 C4 1_555 1_555
Co1 N3 1_555 1_555
N5C Co1 1_555 1_555
O2_2 Co1 1_555 1_555
O3B Co1 1_555 1_555
Co1_2 O2 1_555 1_555
Co1B O3 1_555 1_555
Co1C N5 1_555 1_555
C3 S1 1_555 1_555
C4 S2 1_555 1_555
C5 S3 1_555 1_555
C8 N4 1_555 1_555
C9 N3 1_555 1_555
C12 C13 1_555 1_555
C14 N4 1_555 1_555
C18 N6 1_555 1_555
C19 N5 1_555 1_555
C22 C23 1_555 1_555
C24 N6 1_555 1_555
O1 Co1 1_555 1_555

#END
