
#######################################################################
#
#                 Cambridge Crystallographic Data Centre
#                                CCDC 
#
#######################################################################
#
# If this CIF has been generated from an entry in the Cambridge 
# Structural Database, then it will include bibliographic, chemical, 
# crystal, experimental, refinement or atomic coordinate data resulting 
# from the CCDC's data processing and validation procedures.
#
#######################################################################

data_ZUGSUR
_symmetry_cell_setting           orthorhombic
_symmetry_space_group_name_H-M   'P n a 21'
_symmetry_Int_Tables_number      33
_space_group_name_Hall           'P 2c -2n'
loop_
_symmetry_equiv_pos_site_id
_symmetry_equiv_pos_as_xyz
1 x,y,z
2 1/2-x,1/2+y,1/2+z
3 1/2+x,1/2-y,z
4 -x,-y,1/2+z
_cell_length_a                   13.7812(11)
_cell_length_b                   14.8027(10)
_cell_length_c                   6.2578(3)
_cell_angle_alpha                90
_cell_angle_beta                 90
_cell_angle_gamma                90
_cell_volume                     1276.58
loop_
_atom_site_label
_atom_site_type_symbol
_atom_site_fract_x
_atom_site_fract_y
_atom_site_fract_z
V1 V 0.87130(2) 0.33733(2) 0.02015(13)
Na1 Na 0.93624(7) 0.51691(7) 0.28100(19)
O1 O 0.80273(10) 0.43446(10) 0.1629(3)
O2 O 0.79155(10) 0.53540(11) 0.5017(3)
O3 O 0.89117(16) 0.27902(13) -0.2423(3)
O4 O 0.88155(12) 0.26083(13) 0.2003(3)
O5 O 0.97238(10) 0.39783(11) 0.0136(4)
O6 O 1.00344(13) 0.38306(12) 0.5094(4)
N1 N 0.72396(16) 0.30786(13) -0.0844(3)
C1 C 0.71991(14) 0.43093(13) 0.2706(4)
C2 C 0.71097(14) 0.48475(14) 0.4555(4)
C3 C 0.62672(18) 0.48436(19) 0.5732(4)
C4 C 0.54899(16) 0.43074(19) 0.5106(7)
C5 C 0.55530(17) 0.37886(18) 0.3322(5)
C6 C 0.64052(14) 0.37770(14) 0.2091(4)
C7 C 0.64551(14) 0.32371(13) 0.0168(6)
C8 C 0.7229(2) 0.25568(19) -0.2835(4)
C9 C 0.8219(2) 0.21283(17) -0.3021(4)
C10 C 0.7897(2) 0.58737(19) 0.6946(4)
H1 H 0.6212(13) 0.5220(10) 0.694(3)
H2 H 0.4938(13) 0.4302(10) 0.588(3)
H3 H 0.5041(13) 0.3455(9) 0.290(3)
H4 H 0.5890(12) 0.2998(9) -0.033(3)
H5 H 0.6730(15) 0.2114(14) -0.282(4)
H6 H 0.7114(16) 0.2941(15) -0.400(3)
H7 H 0.8261(16) 0.1635(13) -0.205(3)
H8 H 0.8329(15) 0.1919(15) -0.442(3)
H9 H 0.782(2) 0.5480(15) 0.812(3)
H10 H 0.7380(17) 0.6291(17) 0.685(4)
H11 H 0.8502(15) 0.6169(17) 0.699(4)
H12 H 1.0002 0.3546 0.3901
H13 H 0.9669 0.3582 0.5975
Na1C Na 1.06376(7) 0.48309(7) -0.21900(19)
Na1C_2 Na 1.06376(7) 0.48309(7) 0.78100(19)
O5C O 1.02762(10) 0.60217(11) 0.5136(4)
O6C O 0.99656(13) 0.61694(12) 0.0094(4)
loop_
_geom_bond_atom_site_label_1
_geom_bond_atom_site_label_2
_geom_bond_site_symmetry_1
_geom_bond_site_symmetry_2
V1 O1 1_555 1_555
Na1 O1 1_555 1_555
O1 C1 1_555 1_555
O2 Na1 1_555 1_555
O3 V1 1_555 1_555
O4 V1 1_555 1_555
O5 V1 1_555 1_555
O6 Na1 1_555 1_555
N1 V1 1_555 1_555
C1 C2 1_555 1_555
C2 O2 1_555 1_555
C3 C2 1_555 1_555
C4 C3 1_555 1_555
C5 C4 1_555 1_555
C6 C1 1_555 1_555
C7 N1 1_555 1_555
C8 N1 1_555 1_555
C9 O3 1_555 1_555
C10 O2 1_555 1_555
H1 C3 1_555 1_555
H2 C4 1_555 1_555
H3 C5 1_555 1_555
H4 C7 1_555 1_555
H5 C8 1_555 1_555
H6 C8 1_555 1_555
H7 C9 1_555 1_555
H8 C9 1_555 1_555
H9 C10 1_555 1_555
H10 C10 1_555 1_555
H11 C10 1_555 1_555
H12 O6 1_555 1_555
H13 O6 1_555 1_555
Na1C O5 1_555 1_555
Na1C_2 O6 1_555 1_555
O5C Na1 1_555 1_555
O6C Na1 1_555 1_555
Na1 O5 1_555 1_555
C5 C6 1_555 1_555
C6 C7 1_555 1_555
C8 C9 1_555 1_555
Na1C O6C 1_555 1_555
Na1C_2 O5C 1_555 1_555

#END
