
#######################################################################
#
#                 Cambridge Crystallographic Data Centre
#                                CCDC 
#
#######################################################################
#
# If this CIF has been generated from an entry in the Cambridge 
# Structural Database, then it will include bibliographic, chemical, 
# crystal, experimental, refinement or atomic coordinate data resulting 
# from the CCDC's data processing and validation procedures.
#
#######################################################################

data_ZUGSAX
_symmetry_cell_setting           monoclinic
_symmetry_space_group_name_H-M   'P 21/c'
_symmetry_Int_Tables_number      14
_space_group_name_Hall           '-P 2ybc'
loop_
_symmetry_equiv_pos_site_id
_symmetry_equiv_pos_as_xyz
1 x,y,z
2 -x,1/2+y,1/2-z
3 -x,-y,-z
4 x,1/2-y,1/2+z
_cell_length_a                   10.716(3)
_cell_length_b                   16.829(5)
_cell_length_c                   19.463(4)
_cell_angle_alpha                90
_cell_angle_beta                 111.231(12)
_cell_angle_gamma                90
_cell_volume                     3271.72
loop_
_atom_site_label
_atom_site_type_symbol
_atom_site_fract_x
_atom_site_fract_y
_atom_site_fract_z
C1 C 0.1195(2) -0.10691(15) -0.42541(14)
C2 C 0.1649(2) -0.02135(14) -0.42649(15)
H1 H 0.1484 0.0071 -0.3873
H2 H 0.1083 0.0024 -0.4727
C3 C 0.4157(2) -0.02606(14) -0.32366(15)
C4 C 0.5653(2) -0.04995(15) -0.20124(15)
C5 C 0.8303(2) -0.01786(15) -0.11046(16)
H3 H 0.9087 -0.0407 -0.0731
H4 H 0.8450 -0.0194 -0.1568
C6 C 0.8195(3) 0.06935(16) -0.09045(16)
C7 C 0.2458(3) -0.24361(16) -0.26703(15)
H5 H 0.2812 -0.2029 -0.2867
C8 C 0.2216(3) -0.32847(16) -0.18787(15)
C9 C 0.1186(3) -0.33665(16) -0.25577(15)
C10 C 0.0176(3) -0.39202(19) -0.26365(17)
H6 H -0.0528 -0.3984 -0.3085
C11 C 0.0251(3) -0.43674(19) -0.20341(19)
H7 H -0.0413 -0.4740 -0.2077
C12 C 0.1292(4) -0.4277(2) -0.13643(19)
H8 H 0.1314 -0.4594 -0.0969
C13 C 0.2291(3) -0.37332(19) -0.12675(17)
H9 H 0.2985 -0.3668 -0.0815
C14 C 0.4266(3) -0.23918(17) -0.14241(15)
H10 H 0.4218 -0.2432 -0.0937
H11 H 0.4376 -0.1835 -0.1519
C15 C 0.5467(3) -0.28507(17) -0.14369(15)
H12 H 0.5368 -0.3402 -0.1320
H13 H 0.6260 -0.2644 -0.1053
C16 C -0.2090(2) -0.37393(16) -0.43821(14)
H14 H -0.1558 -0.4174 -0.4388
C17 C -0.3777(2) -0.30426(16) -0.43262(14)
C18 C -0.2808(2) -0.25428(15) -0.44267(14)
C19 C -0.2990(2) -0.17285(16) -0.44707(14)
H15 H -0.2349 -0.1390 -0.4529
C20 C -0.4161(3) -0.14381(18) -0.44241(16)
H16 H -0.4318 -0.0893 -0.4459
C21 C -0.5118(3) -0.19457(19) -0.43252(17)
H17 H -0.5897 -0.1728 -0.4298
C22 C -0.4946(2) -0.27492(18) -0.42670(15)
H18 H -0.5577 -0.3083 -0.4192
C23 C -0.3828(3) -0.45318(16) -0.40842(15)
H19 H -0.4543 -0.4381 -0.3915
H20 H -0.3128 -0.4780 -0.3674
C24 C -0.4365(2) -0.51323(15) -0.46975(16)
H21 H -0.3687 -0.5234 -0.4909
H22 H -0.4535 -0.5628 -0.4492
C25 C 0.8737(3) -0.29729(16) -0.09010(15)
H23 H 0.8407 -0.3336 -0.0649
C26 C 0.8938(3) -0.22822(16) -0.17995(15)
C27 C 0.9955(3) -0.20876(15) -0.11415(15)
C28 C 1.0943(3) -0.15463(17) -0.11268(19)
H24 H 1.1628 -0.1410 -0.0689
C29 C 1.0860(4) -0.12211(19) -0.1790(2)
H25 H 1.1518 -0.0866 -0.1801
C30 C 0.9823(4) -0.1408(2) -0.2442(2)
H26 H 0.9796 -0.1167 -0.2877
C31 C 0.8838(3) -0.19374(18) -0.24643(17)
H27 H 0.8140 -0.2059 -0.2902
C32 C 0.6963(3) -0.32306(17) -0.21380(15)
H28 H 0.7001 -0.3232 -0.2628
H29 H 0.6938 -0.3779 -0.1990
C33 C 0.5686(3) -0.28202(17) -0.21673(15)
H30 H 0.4931 -0.3070 -0.2545
H31 H 0.5717 -0.2269 -0.2307
N1 N 0.4411(2) -0.05802(13) -0.20880(12)
N2 N 0.3542(2) -0.04418(13) -0.27967(12)
N3 N 0.1366(2) -0.28257(13) -0.30528(12)
N4 N 0.3019(2) -0.26806(13) -0.19670(12)
N5 N -0.17476(19) -0.30024(13) -0.44548(12)
N6 N -0.32831(19) -0.38066(12) -0.42985(12)
N7 N 0.9794(2) -0.25305(13) -0.05750(11)
N8 N 0.8175(2) -0.28549(13) -0.16298(12)
O1 O 0.19983(16) -0.16293(10) -0.41743(10)
O2 O -0.00091(17) -0.11515(12) -0.43370(11)
O3 O 0.93281(19) 0.10105(11) -0.05944(11)
O4 O 0.7109(2) 0.10070(13) -0.10656(16)
S1 S 0.33683(6) -0.00434(4) -0.41642(4)
S2 S 0.58883(7) -0.02346(5) -0.28168(4)
S3 S 0.68896(7) -0.07945(4) -0.11910(4)
Cd1 Cd 0.046622(16) -0.267403(11) -0.431843(10)
C16B C -0.7910(2) -0.62607(16) -0.56179(14)
H14B H -0.8442 -0.5826 -0.5612
C17B C -0.6223(2) -0.69574(16) -0.56738(14)
C18B C -0.7192(2) -0.74572(15) -0.55733(14)
C19B C -0.7010(2) -0.82715(16) -0.55293(14)
H15B H -0.7651 -0.8610 -0.5471
C20B C -0.5839(3) -0.85619(18) -0.55759(16)
H16B H -0.5682 -0.9107 -0.5541
C21B C -0.4882(3) -0.80543(19) -0.56748(17)
H17B H -0.4103 -0.8272 -0.5702
C22B C -0.5054(2) -0.72508(18) -0.57330(15)
H18B H -0.4423 -0.6917 -0.5808
C23B C -0.6172(3) -0.54682(16) -0.59158(15)
H19B H -0.5457 -0.5619 -0.6085
H20B H -0.6872 -0.5220 -0.6326
C24B C -0.5635(2) -0.48677(15) -0.53025(16)
H21B H -0.6313 -0.4766 -0.5091
H22B H -0.5465 -0.4372 -0.5508
N5B N -0.82524(19) -0.69976(13) -0.55452(12)
N6B N -0.67169(19) -0.61934(12) -0.57015(12)
C1B C -1.1195(2) -0.89309(15) -0.57459(14)
C2B C -1.1649(2) -0.97865(14) -0.57351(15)
H1B H -1.1484 -1.0071 -0.6127
H2B H -1.1083 -1.0024 -0.5273
C3B C -1.4157(2) -0.97394(14) -0.67634(15)
C4B C -1.5653(2) -0.95005(15) -0.79876(15)
C5B C -1.8303(2) -0.98214(15) -0.88954(16)
H3B H -1.9087 -0.9593 -0.9269
H4B H -1.8450 -0.9806 -0.8432
C6B C -1.8195(3) -1.06935(16) -0.90955(16)
C7B C -1.2458(3) -0.75639(16) -0.73297(15)
H5B H -1.2812 -0.7971 -0.7133
C8B C -1.2216(3) -0.67153(16) -0.81213(15)
C9B C -1.1186(3) -0.66335(16) -0.74423(15)
C10B C -1.0176(3) -0.60798(19) -0.73635(17)
H6B H -0.9472 -0.6016 -0.6915
C11B C -1.0251(3) -0.56326(19) -0.79659(19)
H7B H -0.9587 -0.5260 -0.7923
C12B C -1.1292(4) -0.5723(2) -0.86357(19)
H8B H -1.1314 -0.5406 -0.9031
C13B C -1.2291(3) -0.62668(19) -0.87325(17)
H9B H -1.2985 -0.6332 -0.9185
C14B C -1.4266(3) -0.76082(17) -0.85759(15)
H10B H -1.4218 -0.7568 -0.9063
H11B H -1.4376 -0.8165 -0.8481
C15B C -1.5467(3) -0.71493(17) -0.85631(15)
H12B H -1.5368 -0.6598 -0.8680
H13B H -1.6260 -0.7356 -0.8947
C25B C -1.8737(3) -0.70271(16) -0.90990(15)
H23B H -1.8407 -0.6664 -0.9351
C26B C -1.8938(3) -0.77178(16) -0.82005(15)
C27B C -1.9955(3) -0.79124(15) -0.88585(15)
C28B C -2.0943(3) -0.84537(17) -0.88732(19)
H24B H -2.1628 -0.8590 -0.9311
C29B C -2.0860(4) -0.87789(19) -0.8210(2)
H25B H -2.1518 -0.9134 -0.8199
C30B C -1.9823(4) -0.8592(2) -0.7558(2)
H26B H -1.9796 -0.8833 -0.7123
C31B C -1.8838(3) -0.80626(18) -0.75357(17)
H27B H -1.8140 -0.7941 -0.7098
C32B C -1.6963(3) -0.67694(17) -0.78620(15)
H28B H -1.7001 -0.6768 -0.7372
H29B H -1.6938 -0.6221 -0.8010
C33B C -1.5686(3) -0.71798(17) -0.78327(15)
H30B H -1.4931 -0.6930 -0.7455
H31B H -1.5717 -0.7731 -0.7693
N1B N -1.4411(2) -0.94198(13) -0.79120(12)
N2B N -1.3542(2) -0.95582(13) -0.72033(12)
N3B N -1.1366(2) -0.71743(13) -0.69472(12)
N4B N -1.3019(2) -0.73194(13) -0.80330(12)
N7B N -1.9794(2) -0.74695(13) -0.94250(11)
N8B N -1.8175(2) -0.71451(13) -0.83702(12)
O1B O -1.19983(16) -0.83707(10) -0.58257(10)
O2B O -0.99909(17) -0.88485(12) -0.56630(11)
O3B O -1.93281(19) -1.10105(11) -0.94056(11)
O4B O -1.7109(2) -1.10070(13) -0.89344(16)
S1B S -1.33683(6) -0.99566(4) -0.58358(4)
S2B S -1.58883(7) -0.97654(5) -0.71832(4)
S3B S -1.68896(7) -0.92055(4) -0.88090(4)
Cd1B Cd -1.046622(16) -0.732597(11) -0.568157(10)
N7A N -0.9794(2) -0.75305(13) -0.44250(11)
N7C N -0.0206(2) -0.24695(13) -0.55750(11)
O3A O 0.06719(19) -0.39895(11) -0.44056(11)
O3C O -1.06719(19) -0.60105(11) -0.55944(11)
Cd1A Cd -2.046622(16) -0.767403(11) -1.068157(10)
Cd1A_2 Cd 0.953378(16) 0.232597(11) -0.068157(10)
Cd1C Cd -1.953378(16) -1.232597(11) -0.931843(10)
Cd1C_2 Cd 1.046622(16) -0.232597(11) 0.068157(10)
loop_
_geom_bond_atom_site_label_1
_geom_bond_atom_site_label_2
_geom_bond_site_symmetry_1
_geom_bond_site_symmetry_2
C1 C2 1_555 1_555
C2 H1 1_555 1_555
H2 C2 1_555 1_555
C3 N2 1_555 1_555
C4 N1 1_555 1_555
C5 H3 1_555 1_555
H4 C5 1_555 1_555
C6 C5 1_555 1_555
C7 H5 1_555 1_555
C8 C9 1_555 1_555
C9 C10 1_555 1_555
C10 H6 1_555 1_555
C11 C10 1_555 1_555
H7 C11 1_555 1_555
C12 C11 1_555 1_555
H8 C12 1_555 1_555
C13 C8 1_555 1_555
H9 C13 1_555 1_555
C14 H10 1_555 1_555
H11 C14 1_555 1_555
C15 C14 1_555 1_555
H12 C15 1_555 1_555
H13 C15 1_555 1_555
C16 H14 1_555 1_555
C17 C18 1_555 1_555
C18 C19 1_555 1_555
C19 H15 1_555 1_555
C20 C19 1_555 1_555
H16 C20 1_555 1_555
C21 C20 1_555 1_555
H17 C21 1_555 1_555
C22 C17 1_555 1_555
H18 C22 1_555 1_555
C23 H19 1_555 1_555
H20 C23 1_555 1_555
C24 C23 1_555 1_555
H21 C24 1_555 1_555
H22 C24 1_555 1_555
C25 H23 1_555 1_555
C26 C27 1_555 1_555
C27 C28 1_555 1_555
C28 H24 1_555 1_555
C29 C28 1_555 1_555
H25 C29 1_555 1_555
C30 C29 1_555 1_555
H26 C30 1_555 1_555
C31 C26 1_555 1_555
H27 C31 1_555 1_555
C32 H28 1_555 1_555
H29 C32 1_555 1_555
C33 C15 1_555 1_555
H30 C33 1_555 1_555
H31 C33 1_555 1_555
N1 N2 1_555 1_555
N3 C7 1_555 1_555
N4 C7 1_555 1_555
N5 C16 1_555 1_555
N6 C16 1_555 1_555
N7 C25 1_555 1_555
N8 C25 1_555 1_555
O1 C1 1_555 1_555
O2 C1 1_555 1_555
O3 C6 1_555 1_555
O4 C6 1_555 1_555
S1 C2 1_555 1_555
S2 C3 1_555 1_555
S3 C4 1_555 1_555
Cd1 N3 1_555 1_555
C16B H14B 1_555 1_555
C17B C18B 1_555 1_555
C18B C19B 1_555 1_555
C19B H15B 1_555 1_555
C20B C19B 1_555 1_555
H16B C20B 1_555 1_555
C21B C20B 1_555 1_555
H17B C21B 1_555 1_555
C22B C17B 1_555 1_555
H18B C22B 1_555 1_555
C23B H19B 1_555 1_555
H20B C23B 1_555 1_555
C24B C24 1_555 1_555
H21B C24B 1_555 1_555
H22B C24B 1_555 1_555
N5B C16B 1_555 1_555
N6B C16B 1_555 1_555
C1B C2B 1_555 1_555
C2B H1B 1_555 1_555
H2B C2B 1_555 1_555
C3B N2B 1_555 1_555
C4B N1B 1_555 1_555
C5B H3B 1_555 1_555
H4B C5B 1_555 1_555
C6B C5B 1_555 1_555
C7B H5B 1_555 1_555
C8B C9B 1_555 1_555
C9B C10B 1_555 1_555
C10B H6B 1_555 1_555
C11B C10B 1_555 1_555
H7B C11B 1_555 1_555
C12B C11B 1_555 1_555
H8B C12B 1_555 1_555
C13B C8B 1_555 1_555
H9B C13B 1_555 1_555
C14B H10B 1_555 1_555
H11B C14B 1_555 1_555
C15B C14B 1_555 1_555
H12B C15B 1_555 1_555
H13B C15B 1_555 1_555
C25B H23B 1_555 1_555
C26B C27B 1_555 1_555
C27B C28B 1_555 1_555
C28B H24B 1_555 1_555
C29B C28B 1_555 1_555
H25B C29B 1_555 1_555
C30B C29B 1_555 1_555
H26B C30B 1_555 1_555
C31B C26B 1_555 1_555
H27B C31B 1_555 1_555
C32B H28B 1_555 1_555
H29B C32B 1_555 1_555
C33B C15B 1_555 1_555
H30B C33B 1_555 1_555
H31B C33B 1_555 1_555
N1B N2B 1_555 1_555
N3B C7B 1_555 1_555
N4B C7B 1_555 1_555
N7B C25B 1_555 1_555
N8B C25B 1_555 1_555
O1B C1B 1_555 1_555
O2B C1B 1_555 1_555
O3B C6B 1_555 1_555
O4B C6B 1_555 1_555
S1B C2B 1_555 1_555
S2B C3B 1_555 1_555
S3B C4B 1_555 1_555
Cd1B N5B 1_555 1_555
N7A Cd1B 1_555 1_555
N7C Cd1 1_555 1_555
O3A Cd1 1_555 1_555
O3C Cd1B 1_555 1_555
Cd1A N7B 1_555 1_555
Cd1A_2 O3 1_555 1_555
Cd1C O3B 1_555 1_555
Cd1C_2 N7 1_555 1_555
C3 S1 1_555 1_555
C4 S2 1_555 1_555
C5 S3 1_555 1_555
C8 N4 1_555 1_555
C9 N3 1_555 1_555
C12 C13 1_555 1_555
C14 N4 1_555 1_555
C17 N6 1_555 1_555
C18 N5 1_555 1_555
C21 C22 1_555 1_555
C23 N6 1_555 1_555
C26 N8 1_555 1_555
C27 N7 1_555 1_555
C30 C31 1_555 1_555
C32 C33 1_555 1_555
C32 N8 1_555 1_555
N5 Cd1 1_555 1_555
O1 Cd1 1_555 1_555
O2 Cd1 1_555 1_555
C17B N6B 1_555 1_555
C18B N5B 1_555 1_555
C21B C22B 1_555 1_555
C23B C24B 1_555 1_555
C23B N6B 1_555 1_555
C3B S1B 1_555 1_555
C4B S2B 1_555 1_555
C5B S3B 1_555 1_555
C8B N4B 1_555 1_555
C9B N3B 1_555 1_555
C12B C13B 1_555 1_555
C14B N4B 1_555 1_555
C26B N8B 1_555 1_555
C27B N7B 1_555 1_555
C30B C31B 1_555 1_555
C32B C33B 1_555 1_555
C32B N8B 1_555 1_555
N3B Cd1B 1_555 1_555
O1B Cd1B 1_555 1_555
O2B Cd1B 1_555 1_555

#END
