
#######################################################################
#
#                 Cambridge Crystallographic Data Centre
#                                CCDC 
#
#######################################################################
#
# If this CIF has been generated from an entry in the Cambridge 
# Structural Database, then it will include bibliographic, chemical, 
# crystal, experimental, refinement or atomic coordinate data resulting 
# from the CCDC's data processing and validation procedures.
#
#######################################################################

data_ZUGSIF
_symmetry_cell_setting           orthorhombic
_symmetry_space_group_name_H-M   'F d d 2'
_symmetry_Int_Tables_number      43
_space_group_name_Hall           'F 2 -2d'
loop_
_symmetry_equiv_pos_site_id
_symmetry_equiv_pos_as_xyz
1 x,y,z
2 -x,-y,z
3 -x,1/2-y,1/2+z
4 1/4-x,1/4+y,1/4+z
5 1/4-x,3/4+y,3/4+z
6 1/2-x,-y,1/2+z
7 1/2-x,1/2-y,z
8 3/4-x,1/4+y,3/4+z
9 3/4-x,3/4+y,1/4+z
10 x,1/2+y,1/2+z
11 1/4+x,1/4-y,1/4+z
12 1/4+x,3/4-y,3/4+z
13 1/2+x,y,1/2+z
14 1/2+x,1/2+y,z
15 3/4+x,1/4-y,3/4+z
16 3/4+x,3/4-y,1/4+z
_cell_length_a                   32.4803(24)
_cell_length_b                   29.5764(15)
_cell_length_c                   6.78056(25)
_cell_angle_alpha                90
_cell_angle_beta                 90
_cell_angle_gamma                90
_cell_volume                     6513.75
loop_
_atom_site_label
_atom_site_type_symbol
_atom_site_fract_x
_atom_site_fract_y
_atom_site_fract_z
C1 C 0.93879 0.2661 0.0781
C2 C 0.894122 0.278799 0.069154
C3 C 0.864064 0.245382 0.075918
H1 H 0.871813 0.214499 0.086207
C4 C 0.822668 0.257151 0.067627
H2 H 0.802125 0.234312 0.072251
C5 C 0.811331 0.302337 0.052573
C6 C 0.841389 0.335754 0.045808
H3 H 0.833640 0.366637 0.035519
C7 C 0.882784 0.323985 0.054099
H4 H 0.903327 0.346825 0.049476
C8 C 0.766659 0.315037 0.043626
N1 N 0.743274 0.317622 -0.122367
N2 N 0.704593 0.330171 -0.068499
N3 N 0.704073 0.335342 0.130786
N4 N 0.742432 0.325989 0.200083
O1 O 0.949130 0.227805 0.138340
N5 N 0.967612 0.295807 0.021516
H5 H 0.959754 0.324912 -0.024267
C9 C 1.009306 0.283954 0.029866
C10 C 1.039281 0.315374 -0.021359
H6 H 1.031475 0.344891 -0.062034
C11 C 1.080676 0.303605 -0.013068
H7 H 1.101163 0.325079 -0.048077
C12 C 1.092097 0.260416 0.046447
C13 C 1.062122 0.228996 0.097671
H8 H 1.069927 0.199479 0.138347
C14 C 1.020726 0.240765 0.089381
H9 H 1.00024 0.219291 0.124390
C15 C 1.136768 0.247716 0.055394
N6 N 1.153475 0.208257 -0.009418
N7 N 1.194707 0.209793 0.024873
N8 N 1.203482 0.250200 0.110879
N9 N 1.167674 0.273638 0.129742
Mn1 Mn 0.75163(26) 0.33206(23) 0.5008(26)
O2 O 0.80151(22) 0.36538(38) 0.6166(50)
O3 O 0.69454(81) 0.36775(65) 0.5958(50)
N7B N 0.805293 0.290207 0.524873
Mn1B Mn 1.24837(26) 0.16794(23) 0.0008(26)
loop_
_geom_bond_atom_site_label_1
_geom_bond_atom_site_label_2
_geom_bond_site_symmetry_1
_geom_bond_site_symmetry_2
C1 C2 1_555 1_555
C2 C3 1_555 1_555
C3 H1 1_555 1_555
C4 C3 1_555 1_555
H2 C4 1_555 1_555
C5 C4 1_555 1_555
C6 C5 1_555 1_555
H3 C6 1_555 1_555
C7 C2 1_555 1_555
H4 C7 1_555 1_555
C8 C5 1_555 1_555
N1 C8 1_555 1_555
N2 N1 1_555 1_555
N3 N2 1_555 1_555
N4 C8 1_555 1_555
O1 C1 1_555 1_555
N5 C1 1_555 1_555
H5 N5 1_555 1_555
C9 N5 1_555 1_555
C10 C9 1_555 1_555
H6 C10 1_555 1_555
C11 C10 1_555 1_555
H7 C11 1_555 1_555
C12 C11 1_555 1_555
C13 C12 1_555 1_555
H8 C13 1_555 1_555
C14 C9 1_555 1_555
H9 C14 1_555 1_555
C15 C12 1_555 1_555
N6 C15 1_555 1_555
N7 N6 1_555 1_555
N8 N7 1_555 1_555
N9 C15 1_555 1_555
Mn1 N4 1_555 1_555
O2 Mn1 1_555 1_555
O3 Mn1 1_555 1_555
N7B Mn1 1_555 1_555
Mn1B N7 1_555 1_555
C6 C7 1_555 1_555
N3 N4 1_555 1_555
C13 C14 1_555 1_555
N8 N9 1_555 1_555

#END
