
#######################################################################
#
#                 Cambridge Crystallographic Data Centre
#                                CCDC 
#
#######################################################################
#
# If this CIF has been generated from an entry in the Cambridge 
# Structural Database, then it will include bibliographic, chemical, 
# crystal, experimental, refinement or atomic coordinate data resulting 
# from the CCDC's data processing and validation procedures.
#
#######################################################################

data_ZUGTIG
_symmetry_cell_setting           monoclinic
_symmetry_space_group_name_H-M   'P 21/c'
_symmetry_Int_Tables_number      14
_space_group_name_Hall           '-P 2ybc'
loop_
_symmetry_equiv_pos_site_id
_symmetry_equiv_pos_as_xyz
1 x,y,z
2 -x,1/2+y,1/2-z
3 -x,-y,-z
4 x,1/2-y,1/2+z
_cell_length_a                   22.2980(16)
_cell_length_b                   15.6302(10)
_cell_length_c                   23.6820(16)
_cell_angle_alpha                90
_cell_angle_beta                 100.132(2)
_cell_angle_gamma                90
_cell_volume                     8124.99
loop_
_atom_site_label
_atom_site_type_symbol
_atom_site_fract_x
_atom_site_fract_y
_atom_site_fract_z
C1 C 0.2259(3) 0.7279(4) 0.7828(2)
C2 C 0.1737(2) 0.7774(4) 0.7655(2)
H1 H 0.1348 0.7509 0.7615
C3 C 0.1771(2) 0.8636(4) 0.7540(2)
C4 C 0.2341(3) 0.9022(4) 0.7605(2)
H2 H 0.2370 0.9617 0.7530
C5 C 0.2875(2) 0.8544(4) 0.7779(2)
C6 C 0.2830(2) 0.7685(4) 0.7887(2)
H3 H 0.3191 0.7360 0.8004
C7 C 0.2197(3) 0.6364(4) 0.8001(2)
C8 C 0.1751(3) 0.6186(4) 0.8335(2)
H4 H 0.1480 0.6628 0.8403
C9 C 0.1696(3) 0.5390(4) 0.8568(3)
H5 H 0.1384 0.5282 0.8786
C10 C 0.2095(3) 0.4749(4) 0.8484(3)
H6 H 0.2075 0.4206 0.8660
C11 C 0.2523(3) 0.4901(4) 0.8140(2)
H7 H 0.2795 0.4453 0.8082
C12 C 0.2572(3) 0.5687(4) 0.7874(2)
C13 C 0.3010(3) 0.5755(4) 0.7459(2)
H8 H 0.3386 0.5439 0.7621
H9 H 0.3123 0.6364 0.7429
C14 C 0.2717(3) 0.4476(4) 0.6830(3)
H10 H 0.2429 0.4311 0.6479
H11 H 0.2554 0.4263 0.7167
C15 C 0.3332(3) 0.4080(4) 0.6819(2)
C16 C 0.3482(3) 0.3253(4) 0.6996(3)
H12 H 0.3204 0.2915 0.7162
C17 C 0.4039(4) 0.2922(5) 0.6930(3)
H13 H 0.4148 0.2354 0.7048
C18 C 0.4435(4) 0.3424(5) 0.6692(3)
H14 H 0.4821 0.3207 0.6642
C19 C 0.4269(3) 0.4233(4) 0.6530(3)
H15 H 0.4546 0.4580 0.6370
C20 C 0.2217(2) 0.5870(4) 0.6587(2)
H16 H 0.1943 0.5949 0.6870
H17 H 0.1999 0.5525 0.6265
C21 C 0.2384(3) 0.6730(4) 0.6369(2)
C22 C 0.1988(3) 0.7407(4) 0.6290(2)
H18 H 0.1590 0.7354 0.6377
C23 C 0.2177(3) 0.8162(5) 0.6084(3)
H19 H 0.1910 0.8640 0.6028
C24 C 0.2756(3) 0.8223(4) 0.5958(3)
H20 H 0.2895 0.8747 0.5823
C25 C 0.3130(3) 0.7518(4) 0.6030(2)
H21 H 0.3527 0.7556 0.5937
C26 C 0.1214(2) 0.9159(4) 0.7302(2)
C27 C 0.0881(3) 0.8941(4) 0.6769(3)
H22 H 0.0981 0.8430 0.6590
C28 C 0.0412(3) 0.9440(4) 0.6493(3)
H23 H 0.0192 0.9276 0.6129
C29 C 0.0265(3) 1.0190(4) 0.6754(3)
H24 H -0.0048 1.0554 0.6566
C30 C 0.0579(3) 1.0392(4) 0.7284(3)
H25 H 0.0473 1.0902 0.7462
C31 C 0.1047(2) 0.9887(4) 0.7578(2)
C32 C 0.1332(3) 1.0128(4) 0.8183(2)
H26 H 0.1713 0.9798 0.8296
H27 H 0.1440 1.0743 0.8193
C33 C 0.0759(3) 0.9051(4) 0.8637(3)
H28 H 0.0710 0.8900 0.9032
H29 H 0.1090 0.8694 0.8534
C34 C 0.0173(3) 0.8869(4) 0.8228(3)
C35 C 0.0014(3) 0.8061(4) 0.8019(3)
H30 H 0.0283 0.7591 0.8115
C36 C -0.0543(3) 0.7948(5) 0.7666(3)
H31 H -0.0662 0.7397 0.7519
C37 C -0.0926(3) 0.8636(4) 0.7529(3)
H32 H -0.1309 0.8567 0.7285
C38 C -0.0743(3) 0.9423(4) 0.7752(3)
H33 H -0.1004 0.9900 0.7658
C39 C 0.1238(3) 1.0301(4) 0.9178(2)
H34 H 0.1674 1.0141 0.9241
H35 H 0.1053 1.0051 0.9491
C40 C 0.1174(3) 1.1264(4) 0.9180(2)
C41 C 0.1590(3) 1.1804(4) 0.9494(3)
H36 H 0.1947 1.1579 0.9724
C42 C 0.1490(4) 1.2661(5) 0.9473(3)
H37 H 0.1773 1.3038 0.9692
C43 C 0.0974(4) 1.2980(5) 0.9131(3)
H38 H 0.0901 1.3579 0.9108
C44 C 0.0565(3) 1.2417(4) 0.8824(3)
H39 H 0.0208 1.2634 0.8590
C45 C 0.3471(2) 0.8994(4) 0.7786(2)
C46 C 0.3807(3) 0.8790(4) 0.7358(2)
H40 H 0.3692 0.8307 0.7120
C47 C 0.4300(3) 0.9274(5) 0.7274(3)
H41 H 0.4528 0.9118 0.6987
C48 C 0.4460(3) 0.9990(5) 0.7610(3)
H42 H 0.4784 1.0347 0.7539
C49 C 0.4147(3) 1.0183(4) 0.8049(2)
H43 H 0.4262 1.0672 0.8281
C50 C 0.3666(2) 0.9675(4) 0.8156(2)
C51 C 0.3373(3) 0.9871(4) 0.8668(2)
H44 H 0.2959 0.9621 0.8603
H45 H 0.3330 1.0499 0.8697
C52 C 0.3807(3) 0.8600(4) 0.9237(2)
H46 H 0.4166 0.8446 0.9529
H47 H 0.3886 0.8410 0.8858
C53 C 0.3258(3) 0.8155(4) 0.9369(2)
C54 C 0.3170(4) 0.7276(4) 0.9289(3)
H48 H 0.3459 0.6938 0.9139
C55 C 0.2658(4) 0.6911(5) 0.9434(3)
H49 H 0.2594 0.6312 0.9393
C56 C 0.2241(4) 0.7414(5) 0.9636(3)
H50 H 0.1878 0.7167 0.9722
C57 C 0.2347(3) 0.8276(5) 0.9716(3)
H51 H 0.2055 0.8618 0.9859
C58 C 0.4292(3) 1.0016(4) 0.9431(2)
H52 H 0.4516 1.0092 0.9108
H53 H 0.4556 0.9689 0.9737
C59 C 0.4148(3) 1.0873(4) 0.9657(2)
C60 C 0.4518(3) 1.1575(4) 0.9654(3)
H54 H 0.4867 1.1548 0.9475
C61 C 0.4379(4) 1.2320(5) 0.9916(3)
H55 H 0.4633 1.2809 0.9926
C62 C 0.3864(4) 1.2342(5) 1.0164(3)
H56 H 0.3759 1.2845 1.0349
C63 C 0.3504(3) 1.1622(4) 1.0138(3)
H57 H 0.3144 1.1645 1.0300
C64 C -0.0499(5) 1.0898(7) 0.9540(4)
H58 H -0.0215 1.1362 0.9678
H59 H -0.0651 1.0641 0.9864
H60 H -0.0841 1.1128 0.9265
Cl1 Cl 0.40050(6) 0.59163(10) 0.56656(6)
Cl2 Cl -0.06389(7) 1.14800(10) 0.80557(7)
Cl3 Cl 0.24938(7) 1.01454(11) 1.03656(6)
Cu1 Cu 0.34314(3) 0.57224(5) 0.63726(3)
Cu2 Cu 0.01265(3) 1.06407(5) 0.84491(3)
Cu3 Cu 0.31946(3) 0.97893(5) 0.98372(3)
N1 N 0.2776(2) 0.5418(3) 0.68592(19)
N2 N 0.3725(2) 0.4563(3) 0.6588(2)
N3 N 0.2946(2) 0.6781(3) 0.6229(2)
N4 N 0.0924(2) 0.9966(3) 0.8614(2)
N5 N -0.0202(2) 0.9537(3) 0.8099(2)
N6 N 0.0660(2) 1.1567(3) 0.8847(2)
N7 N 0.3721(2) 0.9538(3) 0.92327(19)
N8 N 0.2857(2) 0.8645(3) 0.9595(2)
N9 N 0.3641(2) 1.0890(3) 0.98943(19)
O1 O 0.4182(2) 0.6425(3) 0.69867(19)
H61 H 0.4439 0.6727 0.6858
H62 H 0.4256 0.6524 0.7341
O2 O -0.0196(2) 1.0274(3) 0.9269(2)
H63 H 0.0004 0.9950 0.9516
Cl1C Cl 0.40050(6) 0.90837(10) 1.06656(6)
Cu3C Cu 0.31946(3) 0.52107(5) 0.48372(3)
C65 C 0.5906(7) 0.0794(11) 0.4665(6)
C66 C 0.6180(7) -0.0013(9) 0.4966(6)
H64 H 0.5990 -0.0518 0.4763
H65 H 0.6106 -0.0017 0.5362
H66 H 0.6619 -0.0023 0.4968
N10 N 0.5726(6) 0.1381(10) 0.4437(6)
C67 C 0.2880(6) 0.3546(9) 0.1158(5)
C68 C 0.3095(6) 0.4160(7) 0.1575(5)
H67 H 0.2770 0.4310 0.1787
H68 H 0.3222 0.4673 0.1388
H69 H 0.3444 0.3928 0.1841
N11 N 0.2679(6) 0.2960(11) 0.0840(5)
C69 C 0.1779(6) 0.4780(7) 0.0267(6)
C70 C 0.1244(6) 0.4524(8) 0.0449(7)
H70 H 0.1015 0.4139 0.0162
H71 H 0.0996 0.5028 0.0494
H72 H 0.1346 0.4225 0.0817
N12 N 0.2270(6) 0.4979(7) 0.0174(5)
C71 C 0.5459(4) 0.7115(6) 0.1563(4)
C72 C 0.5854(8) 0.6452(9) 0.1397(7)
H73 H 0.5607 0.6036 0.1147
H74 H 0.6067 0.6161 0.1741
H75 H 0.6152 0.6712 0.1191
N13 N 0.5044(5) 0.7567(6) 0.1562(5)
C73 C 0.0848(12) 0.1283(13) 0.0709(10)
H76 H 0.0446 0.1498 0.0752
H77 H 0.0891 0.0687 0.0838
H78 H 0.0892 0.1316 0.0305
O3 O 0.1292(8) 0.177(2) 0.1034(7)
H79 H 0.1402 0.1540 0.1356
F1 F 0.5327(3) 0.8689(4) 0.3671(4)
F2 F 0.4658(3) 0.8095(5) 0.4099(3)
F3 F 0.4806(4) 0.9491(6) 0.4191(3)
F4 F 0.3952(3) 0.9076(4) 0.3693(3)
F5 F 0.4621(3) 0.9632(4) 0.3245(3)
F6 F 0.4438(5) 0.8238(4) 0.3185(3)
P1 P 0.46595(10) 0.88746(14) 0.36863(8)
F7 F 0.2529(2) 0.1441(3) 0.8686(3)
F8 F 0.3175(2) 0.1929(3) 0.8102(4)
F9 F 0.2331(3) 0.1270(4) 0.7745(3)
F10 F 0.2417(3) 0.2721(5) 0.7638(4)
F11 F 0.2643(3) 0.2835(4) 0.8578(5)
F12 F 0.17797(18) 0.2201(3) 0.8174(2)
P2 P 0.24794(10) 0.20641(13) 0.81430(14)
F13 F 0.9078(6) 0.3396(8) -0.0182(6)
F14 F 0.9848(4) 0.4137(6) 0.0295(4)
F15 F 0.9928(8) 0.2998(11) -0.0122(7)
F16 F 1.0113(4) 0.3038(10) 0.0753(6)
F17 F 0.9215(4) 0.3471(7) 0.0747(6)
F18 F 0.9261(5) 0.2330(4) 0.0295(4)
P3 P 0.95603(11) 0.32385(19) 0.03005(10)
loop_
_geom_bond_atom_site_label_1
_geom_bond_atom_site_label_2
_geom_bond_site_symmetry_1
_geom_bond_site_symmetry_2
C1 C2 1_555 1_555
C2 H1 1_555 1_555
C3 C2 1_555 1_555
C4 C3 1_555 1_555
H2 C4 1_555 1_555
C5 C4 1_555 1_555
C6 C1 1_555 1_555
H3 C6 1_555 1_555
C7 C1 1_555 1_555
C8 C7 1_555 1_555
H4 C8 1_555 1_555
C9 C8 1_555 1_555
H5 C9 1_555 1_555
C10 C9 1_555 1_555
H6 C10 1_555 1_555
C11 C10 1_555 1_555
H7 C11 1_555 1_555
C12 C7 1_555 1_555
C13 C12 1_555 1_555
H8 C13 1_555 1_555
H9 C13 1_555 1_555
C14 H10 1_555 1_555
H11 C14 1_555 1_555
C15 C14 1_555 1_555
C16 C15 1_555 1_555
H12 C16 1_555 1_555
C17 C16 1_555 1_555
H13 C17 1_555 1_555
C18 C17 1_555 1_555
H14 C18 1_555 1_555
C19 C18 1_555 1_555
H15 C19 1_555 1_555
C20 H16 1_555 1_555
H17 C20 1_555 1_555
C21 C20 1_555 1_555
C22 C21 1_555 1_555
H18 C22 1_555 1_555
C23 C22 1_555 1_555
H19 C23 1_555 1_555
C24 C23 1_555 1_555
H20 C24 1_555 1_555
C25 C24 1_555 1_555
H21 C25 1_555 1_555
C26 C3 1_555 1_555
C27 C26 1_555 1_555
H22 C27 1_555 1_555
C28 C27 1_555 1_555
H23 C28 1_555 1_555
C29 C28 1_555 1_555
H24 C29 1_555 1_555
C30 C29 1_555 1_555
H25 C30 1_555 1_555
C31 C26 1_555 1_555
C32 C31 1_555 1_555
H26 C32 1_555 1_555
H27 C32 1_555 1_555
C33 H28 1_555 1_555
H29 C33 1_555 1_555
C34 C33 1_555 1_555
C35 C34 1_555 1_555
H30 C35 1_555 1_555
C36 C35 1_555 1_555
H31 C36 1_555 1_555
C37 C36 1_555 1_555
H32 C37 1_555 1_555
C38 C37 1_555 1_555
H33 C38 1_555 1_555
C39 H34 1_555 1_555
H35 C39 1_555 1_555
C40 C39 1_555 1_555
C41 C40 1_555 1_555
H36 C41 1_555 1_555
C42 C41 1_555 1_555
H37 C42 1_555 1_555
C43 C42 1_555 1_555
H38 C43 1_555 1_555
C44 C43 1_555 1_555
H39 C44 1_555 1_555
C45 C5 1_555 1_555
C46 C45 1_555 1_555
H40 C46 1_555 1_555
C47 C46 1_555 1_555
H41 C47 1_555 1_555
C48 C47 1_555 1_555
H42 C48 1_555 1_555
C49 C48 1_555 1_555
H43 C49 1_555 1_555
C50 C45 1_555 1_555
C51 C50 1_555 1_555
H44 C51 1_555 1_555
H45 C51 1_555 1_555
C52 H46 1_555 1_555
H47 C52 1_555 1_555
C53 C52 1_555 1_555
C54 C53 1_555 1_555
H48 C54 1_555 1_555
C55 C54 1_555 1_555
H49 C55 1_555 1_555
C56 C55 1_555 1_555
H50 C56 1_555 1_555
C57 C56 1_555 1_555
H51 C57 1_555 1_555
C58 H52 1_555 1_555
H53 C58 1_555 1_555
C59 C58 1_555 1_555
C60 C59 1_555 1_555
H54 C60 1_555 1_555
C61 C60 1_555 1_555
H55 C61 1_555 1_555
C62 C61 1_555 1_555
H56 C62 1_555 1_555
C63 C62 1_555 1_555
H57 C63 1_555 1_555
C64 H58 1_555 1_555
H59 C64 1_555 1_555
H60 C64 1_555 1_555
Cl1 Cu1 1_555 1_555
Cl2 Cu2 1_555 1_555
Cl3 Cu3 1_555 1_555
Cu1 N1 1_555 1_555
Cu2 N4 1_555 1_555
Cu3 N7 1_555 1_555
N1 C13 1_555 1_555
N2 C15 1_555 1_555
N3 C21 1_555 1_555
N4 C32 1_555 1_555
N5 C34 1_555 1_555
N6 C40 1_555 1_555
N7 C51 1_555 1_555
N8 C53 1_555 1_555
N9 C59 1_555 1_555
O1 Cu1 1_555 1_555
H61 O1 1_555 1_555
H62 O1 1_555 1_555
O2 C64 1_555 1_555
H63 O2 1_555 1_555
C65 C66 1_555 1_555
C66 H64 1_555 1_555
H65 C66 1_555 1_555
H66 C66 1_555 1_555
N10 C65 1_555 1_555
C67 C68 1_555 1_555
C68 H67 1_555 1_555
H68 C68 1_555 1_555
H69 C68 1_555 1_555
N11 C67 1_555 1_555
C69 C70 1_555 1_555
C70 H70 1_555 1_555
H71 C70 1_555 1_555
H72 C70 1_555 1_555
N12 C69 1_555 1_555
C71 C72 1_555 1_555
C72 H73 1_555 1_555
H74 C72 1_555 1_555
H75 C72 1_555 1_555
N13 C71 1_555 1_555
C73 H76 1_555 1_555
H77 C73 1_555 1_555
H78 C73 1_555 1_555
O3 C73 1_555 1_555
H79 O3 1_555 1_555
F1 P1 1_555 1_555
F2 P1 1_555 1_555
F3 P1 1_555 1_555
F4 P1 1_555 1_555
F5 P1 1_555 1_555
F6 P1 1_555 1_555
F7 P2 1_555 1_555
F8 P2 1_555 1_555
F9 P2 1_555 1_555
F10 P2 1_555 1_555
F11 P2 1_555 1_555
F12 P2 1_555 1_555
F13 P3 1_555 1_555
F14 P3 1_555 1_555
F15 P3 1_555 1_555
F16 P3 1_555 1_555
F17 P3 1_555 1_555
F18 P3 1_555 1_555
Cl1C Cu3 1_555 1_555
Cu3C Cl1 1_555 1_555
C5 C6 1_555 1_555
C11 C12 1_555 1_555
C14 N1 1_555 1_555
C19 N2 1_555 1_555
C20 N1 1_555 1_555
C25 N3 1_555 1_555
C30 C31 1_555 1_555
C33 N4 1_555 1_555
C38 N5 1_555 1_555
C39 N4 1_555 1_555
C44 N6 1_555 1_555
C49 C50 1_555 1_555
C52 N7 1_555 1_555
C57 N8 1_555 1_555
C58 N7 1_555 1_555
C63 N9 1_555 1_555
Cu1 N2 1_555 1_555
Cu1 N3 1_555 1_555
Cu2 N5 1_555 1_555
Cu2 N6 1_555 1_555
Cu2 O2 1_555 1_555
Cu3 N8 1_555 1_555
Cu3 N9 1_555 1_555

#END
