
#######################################################################
#
#                 Cambridge Crystallographic Data Centre
#                                CCDC 
#
#######################################################################
#
# If this CIF has been generated from an entry in the Cambridge 
# Structural Database, then it will include bibliographic, chemical, 
# crystal, experimental, refinement or atomic coordinate data resulting 
# from the CCDC's data processing and validation procedures.
#
#######################################################################

data_ZUGTAY
_symmetry_cell_setting           monoclinic
_symmetry_space_group_name_H-M   'P 21/n'
_symmetry_Int_Tables_number      14
_space_group_name_Hall           '-P 2yn'
loop_
_symmetry_equiv_pos_site_id
_symmetry_equiv_pos_as_xyz
1 x,y,z
2 1/2-x,1/2+y,1/2-z
3 -x,-y,-z
4 1/2+x,1/2-y,1/2+z
_cell_length_a                   10.92020(10)
_cell_length_b                   13.3363(3)
_cell_length_c                   22.9197(2)
_cell_angle_alpha                90
_cell_angle_beta                 92.4170(10)
_cell_angle_gamma                90
_cell_volume                     3334.94
loop_
_atom_site_label
_atom_site_type_symbol
_atom_site_fract_x
_atom_site_fract_y
_atom_site_fract_z
V1 V 0.87402(7) 0.81741(7) 0.03963(3)
N1 N 0.8061(3) 0.7777(4) 0.12539(16)
O1 O 0.9730(3) 0.6998(3) 0.05240(14)
O2 O 1.1322(3) 0.5609(3) 0.03161(16)
O3 O 0.8470(3) 0.8483(4) 0.24685(15)
H1 H 0.9213 0.8326 0.2455
O4 O 0.5442(3) 0.9131(4) 0.18854(18)
O5 O 0.8200(3) 0.9449(3) 0.06917(14)
O6 O 0.9784(3) 0.8759(3) -0.00009(14)
O7 O 0.7601(3) 0.7803(3) -0.00214(15)
C1 C 1.2193(5) 0.4847(5) 0.0184(3)
H2 H 1.2641 0.5049 -0.0159
H3 H 1.1762 0.4215 0.0101
H4 H 1.2771 0.4757 0.0518
C2 C 1.0601(4) 0.5427(4) 0.0788(2)
C3 C 1.0674(6) 0.4600(5) 0.1140(2)
H5 H 1.110(6) 0.417(5) 0.102(3)
C4 C 0.9901(6) 0.4513(5) 0.1613(2)
C5 C 0.9087(6) 0.5263(5) 0.1720(2)
C6 C 0.8998(4) 0.6128(4) 0.1365(2)
C7 C 0.9748(4) 0.6217(4) 0.0884(2)
C8 C 0.8206(4) 0.6961(5) 0.1534(2)
C9 C 0.7352(4) 0.8620(4) 0.1514(2)
C10 C 0.8148(5) 0.9140(5) 0.1995(2)
C11 C 0.6118(5) 0.8243(5) 0.1744(2)
C12 C 0.7115(5) 0.9366(5) 0.1017(2)
H6 H 0.6423 0.9132 0.0760
H7 H 0.6898 1.0029 0.1178
V2 V 1.18701(7) 0.81704(7) 0.17661(3)
N2 N 1.2507(4) 0.6957(4) 0.23573(17)
O8 O 1.2558(3) 0.7289(3) 0.11885(14)
O9 O 1.3808(3) 0.7168(3) 0.02329(15)
O10 O 1.3259(4) 0.5784(3) 0.35345(16)
O11 O 1.0249(4) 0.6171(4) 0.34133(18)
H8 H 0.9731 0.5705 0.3394
O12 O 1.0894(3) 0.8334(3) 0.24287(14)
O13 O 1.2946(3) 0.9014(3) 0.18650(15)
O14 O 1.0800(3) 0.8592(3) 0.13087(14)
C13 C 1.4545(5) 0.7196(6) -0.0272(2)
H9 H 1.4159 0.7637 -0.0568
H10 H 1.4617 0.6518 -0.0432
H11 H 1.5363 0.7452 -0.0160
C14 C 1.4223(4) 0.6608(4) 0.0702(2)
C15 C 1.5252(5) 0.5986(5) 0.0707(2)
C16 C 1.5600(5) 0.5428(5) 0.1200(2)
C17 C 1.4939(5) 0.5498(5) 0.1698(2)
C18 C 1.3916(4) 0.6152(4) 0.1710(2)
C19 C 1.3536(4) 0.6703(4) 0.1211(2)
C20 C 1.3282(5) 0.6249(5) 0.2250(2)
C21 C 1.1927(4) 0.6974(4) 0.2932(2)
C22 C 1.2794(5) 0.6781(5) 0.3467(2)
C23 C 1.0863(5) 0.6232(6) 0.2871(2)
C24 C 1.1450(5) 0.8055(5) 0.2972(2)
H12 H 1.0845 0.8102 0.3281
H13 H 1.2137 0.8515 0.3075
Na1 Na 1.16430(16) 0.76652(18) 0.02268(8)
Na2 Na 1.05316(17) 1.00321(17) 0.07202(8)
O15 O 1.1651(5) 0.7100(5) -0.0755(2)
H14 H 1.0878 0.6843 -0.0762
C25 C 1.1742(14) 0.7755(13) -0.1287(6)
H15 H 1.1727 0.7336 -0.1643
H16 H 1.2523 0.8130 -0.1266
H17 H 1.1062 0.8230 -0.1314
O16 O 1.2364(3) 0.9353(3) 0.02289(14)
H18 H 1.2131 0.9720 -0.0106
C26 C 1.3584(5) 0.9626(5) 0.0417(2)
H19 H 1.3685 1.0353 0.0382
H20 H 1.4171 0.9285 0.0173
H21 H 1.3732 0.9425 0.0825
H22 H 0.479(6) 0.887(5) 0.191(3)
H23 H 1.273(6) 0.548(5) 0.343(3)
H24 H 0.996(6) 0.402(5) 0.184(3)
H25 H 0.864(6) 0.529(5) 0.199(3)
H26 H 0.784(5) 0.679(4) 0.180(3)
H27 H 0.762(6) 0.974(5) 0.214(3)
H28 H 0.885(5) 0.936(4) 0.184(2)
H29 H 0.582(5) 0.788(4) 0.138(2)
H30 H 0.630(5) 0.786(4) 0.208(2)
H31 H 1.574(6) 0.594(5) 0.041(3)
H32 H 1.626(6) 0.495(4) 0.124(2)
H33 H 1.514(5) 0.516(4) 0.206(3)
H34 H 1.352(5) 0.571(4) 0.255(2)
H35 H 1.356(6) 0.721(5) 0.338(3)
H36 H 1.242(5) 0.705(4) 0.378(3)
H37 H 1.030(5) 0.652(4) 0.256(2)
H38 H 1.114(7) 0.558(6) 0.276(3)
O6B O 1.0216(3) 1.1241(3) 0.00009(14)
O10A O 1.1741(4) 1.0784(3) 0.14655(16)
Na2A Na 1.44684(17) 0.50321(17) 0.42798(8)
Na2B Na 0.94684(17) 0.99679(17) -0.07202(8)
loop_
_geom_bond_atom_site_label_1
_geom_bond_atom_site_label_2
_geom_bond_site_symmetry_1
_geom_bond_site_symmetry_2
V1 N1 1_555 1_555
N1 C8 1_555 1_555
O1 V1 1_555 1_555
O2 C1 1_555 1_555
O3 H1 1_555 1_555
O4 C11 1_555 1_555
O5 V1 1_555 1_555
O6 V1 1_555 1_555
O7 V1 1_555 1_555
C1 H2 1_555 1_555
H3 C1 1_555 1_555
H4 C1 1_555 1_555
C2 O2 1_555 1_555
C3 C2 1_555 1_555
H5 C3 1_555 1_555
C4 C3 1_555 1_555
C5 C4 1_555 1_555
C6 C5 1_555 1_555
C7 O1 1_555 1_555
C8 C6 1_555 1_555
C9 N1 1_555 1_555
C10 O3 1_555 1_555
C11 C9 1_555 1_555
C12 O5 1_555 1_555
H6 C12 1_555 1_555
H7 C12 1_555 1_555
V2 N2 1_555 1_555
N2 C20 1_555 1_555
O8 V2 1_555 1_555
O9 C13 1_555 1_555
O10 C22 1_555 1_555
O11 H8 1_555 1_555
O12 V2 1_555 1_555
O13 V2 1_555 1_555
O14 V2 1_555 1_555
C13 H9 1_555 1_555
H10 C13 1_555 1_555
H11 C13 1_555 1_555
C14 O9 1_555 1_555
C15 C14 1_555 1_555
C16 C15 1_555 1_555
C17 C16 1_555 1_555
C18 C17 1_555 1_555
C19 O8 1_555 1_555
C20 C18 1_555 1_555
C21 N2 1_555 1_555
C22 C21 1_555 1_555
C23 O11 1_555 1_555
C24 O12 1_555 1_555
H12 C24 1_555 1_555
H13 C24 1_555 1_555
Na1 O1 1_555 1_555
Na2 O5 1_555 1_555
O15 Na1 1_555 1_555
H14 O15 1_555 1_555
C25 O15 1_555 1_555
H15 C25 1_555 1_555
H16 C25 1_555 1_555
H17 C25 1_555 1_555
O16 Na1 1_555 1_555
H18 O16 1_555 1_555
C26 O16 1_555 1_555
H19 C26 1_555 1_555
H20 C26 1_555 1_555
H21 C26 1_555 1_555
H22 O4 1_555 1_555
H23 O10 1_555 1_555
H24 C4 1_555 1_555
H25 C5 1_555 1_555
H26 C8 1_555 1_555
H27 C10 1_555 1_555
H28 C10 1_555 1_555
H29 C11 1_555 1_555
H30 C11 1_555 1_555
H31 C15 1_555 1_555
H32 C16 1_555 1_555
H33 C17 1_555 1_555
H34 C20 1_555 1_555
H35 C22 1_555 1_555
H36 C22 1_555 1_555
H37 C23 1_555 1_555
H38 C23 1_555 1_555
O6B Na2 1_555 1_555
O10A Na2 1_555 1_555
Na2A O10 1_555 1_555
Na2B O6 1_555 1_555
O2 Na1 1_555 1_555
O6 Na1 1_555 1_555
O6 Na2 1_555 1_555
C2 C7 1_555 1_555
C6 C7 1_555 1_555
C9 C10 1_555 1_555
C9 C12 1_555 1_555
O8 Na1 1_555 1_555
O9 Na1 1_555 1_555
O14 Na1 1_555 1_555
O14 Na2 1_555 1_555
C14 C19 1_555 1_555
C18 C19 1_555 1_555
C21 C23 1_555 1_555
C21 C24 1_555 1_555
Na2 O16 1_555 1_555
O6B Na2B 1_555 1_555

#END
