
#######################################################################
#
#                 Cambridge Crystallographic Data Centre
#                                CCDC 
#
#######################################################################
#
# If this CIF has been generated from an entry in the Cambridge 
# Structural Database, then it will include bibliographic, chemical, 
# crystal, experimental, refinement or atomic coordinate data resulting 
# from the CCDC's data processing and validation procedures.
#
#######################################################################

data_ZUGVII
_symmetry_cell_setting           monoclinic
_symmetry_space_group_name_H-M   'P 21/n'
_symmetry_Int_Tables_number      14
_space_group_name_Hall           '-P 2yn'
loop_
_symmetry_equiv_pos_site_id
_symmetry_equiv_pos_as_xyz
1 x,y,z
2 1/2-x,1/2+y,1/2-z
3 -x,-y,-z
4 1/2+x,1/2-y,1/2+z
_cell_length_a                   12.0911(16)
_cell_length_b                   18.972(3)
_cell_length_c                   13.5812(18)
_cell_angle_alpha                90
_cell_angle_beta                 111.805(5)
_cell_angle_gamma                90
_cell_volume                     2892.53
loop_
_atom_site_label
_atom_site_type_symbol
_atom_site_fract_x
_atom_site_fract_y
_atom_site_fract_z
Zn1 Zn 0.24177(5) 0.73688(3) 0.57147(4)
Br1 Br 0.36670(5) 0.66370(3) 0.70677(4)
Br2 Br 0.10434(5) 0.81346(3) 0.60357(4)
N1 N 0.1508(3) 0.67605(19) 0.4423(3)
N2 N 0.0066(3) 0.49079(18) 0.1581(3)
N3 N 0.1552(3) 0.30293(19) -0.0218(3)
O1 O -0.3817(3) 0.49265(18) -0.1396(2)
C1 C 0.2002(4) 0.6189(3) 0.4172(4)
C2 C 0.1376(4) 0.5733(3) 0.3365(4)
C3 C 0.0170(3) 0.5857(2) 0.2789(3)
C4 C -0.0329(4) 0.6456(2) 0.3048(4)
C5 C 0.0356(4) 0.6890(2) 0.3851(4)
C6 C -0.0539(4) 0.5357(2) 0.1950(3)
C7 C -0.1783(4) 0.5361(2) 0.1583(3)
C8 C -0.2429(4) 0.4905(2) 0.0772(3)
C9 C -0.1801(4) 0.4447(2) 0.0383(3)
C10 C -0.0549(4) 0.4456(2) 0.0818(3)
C11 C 0.0166(4) 0.3959(2) 0.0442(3)
C12 C 0.1396(4) 0.4025(2) 0.0805(3)
C13 C 0.2045(4) 0.3555(3) 0.0456(4)
C14 C 0.0365(4) 0.2972(2) -0.0589(4)
C15 C -0.0349(4) 0.3427(2) -0.0284(4)
C16 C -0.3758(4) 0.4928(2) 0.0359(3)
C17 C -0.4435(4) 0.4953(2) -0.0729(3)
C18 C -0.5665(4) 0.5020(2) -0.1077(3)
C19 C -0.4486(5) 0.4880(4) -0.2499(4)
H1 H 0.2819 0.6094 0.4567
H2 H 0.1764 0.5339 0.3204
H3 H -0.1144 0.6564 0.2668
H4 H 0.0000 0.7300 0.4008
H5 H -0.2185 0.5673 0.1885
H6 H -0.2212 0.4129 -0.0173
H7 H 0.1788 0.4390 0.1287
H8 H 0.2885 0.3608 0.0709
H9 H -0.0004 0.2607 -0.1080
H10 H -0.1191 0.3374 -0.0573
H11 H -0.6122 0.5031 -0.1817
H12 H -0.3960 0.4865 -0.2872
H13 H -0.4991 0.5280 -0.2720
H14 H -0.4956 0.4464 -0.2643
N1B N -1.1508(3) 0.32395(19) -0.4423(3)
N2B N -1.0066(3) 0.50921(18) -0.1581(3)
N3B N -1.1552(3) 0.69707(19) 0.0218(3)
O1B O -0.6183(3) 0.50735(18) 0.1396(2)
C1B C -1.2002(4) 0.3811(3) -0.4172(4)
C2B C -1.1376(4) 0.4267(3) -0.3365(4)
C3B C -1.0170(3) 0.4143(2) -0.2789(3)
C4B C -0.9671(4) 0.3544(2) -0.3048(4)
C5B C -1.0356(4) 0.3110(2) -0.3851(4)
C6B C -0.9461(4) 0.4643(2) -0.1950(3)
C7B C -0.8217(4) 0.4639(2) -0.1583(3)
C8B C -0.7571(4) 0.5095(2) -0.0772(3)
C9B C -0.8199(4) 0.5553(2) -0.0383(3)
C10B C -0.9451(4) 0.5544(2) -0.0818(3)
C11B C -1.0166(4) 0.6041(2) -0.0442(3)
C12B C -1.1396(4) 0.5975(2) -0.0805(3)
C13B C -1.2045(4) 0.6445(3) -0.0456(4)
C14B C -1.0365(4) 0.7028(2) 0.0589(4)
C15B C -0.9651(4) 0.6573(2) 0.0284(4)
C16B C -0.6242(4) 0.5072(2) -0.0359(3)
C17B C -0.5565(4) 0.5047(2) 0.0729(3)
C18B C -0.4335(4) 0.4980(2) 0.1077(3)
C19B C -0.5514(5) 0.5120(4) 0.2499(4)
H1B H -1.2819 0.3906 -0.4567
H2B H -1.1764 0.4661 -0.3204
H3B H -0.8856 0.3436 -0.2668
H4B H -1.0000 0.2700 -0.4008
H5B H -0.7815 0.4327 -0.1885
H6B H -0.7788 0.5871 0.0173
H7B H -1.1788 0.5610 -0.1287
H8B H -1.2885 0.6392 -0.0709
H9B H -0.9996 0.7393 0.1080
H10B H -0.8809 0.6626 0.0573
H11B H -0.3878 0.4969 0.1817
H12B H -0.6040 0.5135 0.2872
H13B H -0.5009 0.4720 0.2720
H14B H -0.5044 0.5536 0.2643
Zn1B Zn -1.24177(5) 0.26312(3) -0.57147(4)
Br1B Br -1.36670(5) 0.33630(3) -0.70677(4)
Br2B Br -1.10434(5) 0.18654(3) -0.60357(4)
Zn1C Zn -1.25823(5) 0.76312(3) 0.07147(4)
Zn1A Zn 0.25823(5) 0.23688(3) -0.07147(4)
N3C N -1.3448(3) 0.19707(19) -0.5218(3)
N3A N 0.3448(3) 0.80293(19) 0.5218(3)
Cl1 Cl 0.2580(2) 0.83231(15) 1.19256(16)
Cl2 Cl 0.03706(17) 0.88706(11) 1.00105(17)
C20 C 0.2288(6) 0.8001(4) 1.0676(5)
C21 C 0.1288(6) 0.8226(4) 0.9829(6)
C22 C 0.1055(7) 0.7946(4) 0.8827(5)
C23 C 0.1821(7) 0.7450(4) 0.8686(6)
C24 C 0.2811(6) 0.7240(4) 0.9511(6)
C25 C 0.3046(5) 0.7497(4) 1.0493(6)
H15 H 0.0373 0.8093 0.8243
H16 H 0.1653 0.7253 0.8002
H17 H 0.3340 0.6910 0.9394
H18 H 0.3728 0.7336 1.1067
loop_
_geom_bond_atom_site_label_1
_geom_bond_atom_site_label_2
_geom_bond_site_symmetry_1
_geom_bond_site_symmetry_2
Zn1 Br1 1_555 1_555
Br2 Zn1 1_555 1_555
N1 Zn1 1_555 1_555
N2 C6 1_555 1_555
N3 C13 1_555 1_555
O1 C17 1_555 1_555
C1 N1 1_555 1_555
C2 C1 1_555 1_555
C3 C2 1_555 1_555
C4 C3 1_555 1_555
C5 N1 1_555 1_555
C6 C3 1_555 1_555
C7 C6 1_555 1_555
C8 C7 1_555 1_555
C9 C8 1_555 1_555
C10 N2 1_555 1_555
C11 C10 1_555 1_555
C12 C11 1_555 1_555
C13 C12 1_555 1_555
C14 N3 1_555 1_555
C15 C11 1_555 1_555
C16 C8 1_555 1_555
C17 C16 1_555 1_555
C18 C17 1_555 1_555
C19 O1 1_555 1_555
H1 C1 1_555 1_555
H2 C2 1_555 1_555
H3 C4 1_555 1_555
H4 C5 1_555 1_555
H5 C7 1_555 1_555
H6 C9 1_555 1_555
H7 C12 1_555 1_555
H8 C13 1_555 1_555
H9 C14 1_555 1_555
H10 C15 1_555 1_555
H11 C18 1_555 1_555
H12 C19 1_555 1_555
H13 C19 1_555 1_555
H14 C19 1_555 1_555
Cl1 C20 1_555 1_555
Cl2 C21 1_555 1_555
C20 C21 1_555 1_555
C21 C22 1_555 1_555
C22 C23 1_555 1_555
C23 C24 1_555 1_555
C24 C25 1_555 1_555
C25 C20 1_555 1_555
H15 C22 1_555 1_555
H16 C23 1_555 1_555
H17 C24 1_555 1_555
H18 C25 1_555 1_555
N1B C1B 1_555 1_555
N2B C6B 1_555 1_555
N3B C13B 1_555 1_555
O1B C17B 1_555 1_555
C1B C2B 1_555 1_555
C2B C3B 1_555 1_555
C3B C4B 1_555 1_555
C4B C5B 1_555 1_555
C5B N1B 1_555 1_555
C6B C3B 1_555 1_555
C7B C6B 1_555 1_555
C8B C7B 1_555 1_555
C9B C8B 1_555 1_555
C10B N2B 1_555 1_555
C11B C10B 1_555 1_555
C12B C11B 1_555 1_555
C13B C12B 1_555 1_555
C14B N3B 1_555 1_555
C15B C11B 1_555 1_555
C16B C18 1_555 1_555
C17B C16B 1_555 1_555
C18B C16 1_555 1_555
C19B O1B 1_555 1_555
H1B C1B 1_555 1_555
H2B C2B 1_555 1_555
H3B C4B 1_555 1_555
H4B C5B 1_555 1_555
H5B C7B 1_555 1_555
H6B C9B 1_555 1_555
H7B C12B 1_555 1_555
H8B C13B 1_555 1_555
H9B C14B 1_555 1_555
H10B C15B 1_555 1_555
H11B C18B 1_555 1_555
H12B C19B 1_555 1_555
H13B C19B 1_555 1_555
H14B C19B 1_555 1_555
Zn1B N1B 1_555 1_555
Br1B Zn1B 1_555 1_555
Br2B Zn1B 1_555 1_555
Zn1C N3B 1_555 1_555
Zn1A N3 1_555 1_555
N3C Zn1B 1_555 1_555
N3A Zn1 1_555 1_555
C4 C5 1_555 1_555
C9 C10 1_555 1_555
C14 C15 1_555 1_555
C8B C16B 1_555 1_555
C9B C10B 1_555 1_555
C14B C15B 1_555 1_555
C17B C18B 1_555 1_555

#END
