
#######################################################################
#
#                 Cambridge Crystallographic Data Centre
#                                CCDC 
#
#######################################################################
#
# If this CIF has been generated from an entry in the Cambridge 
# Structural Database, then it will include bibliographic, chemical, 
# crystal, experimental, refinement or atomic coordinate data resulting 
# from the CCDC's data processing and validation procedures.
#
#######################################################################

data_ZUGVAA
_symmetry_cell_setting           monoclinic
_symmetry_space_group_name_H-M   'C 2/c'
_symmetry_Int_Tables_number      15
_space_group_name_Hall           '-C 2yn'
loop_
_symmetry_equiv_pos_site_id
_symmetry_equiv_pos_as_xyz
1 x,y,z
2 -x,y,1/2-z
3 1/2+x,1/2+y,z
4 1/2-x,1/2+y,1/2-z
5 -x,-y,-z
6 x,-y,1/2+z
7 1/2-x,1/2-y,-z
8 1/2+x,1/2-y,1/2+z
_cell_length_a                   51.713(6)
_cell_length_b                   10.5805(12)
_cell_length_c                   10.0239(11)
_cell_angle_alpha                90
_cell_angle_beta                 100.515(4)
_cell_angle_gamma                90
_cell_volume                     5392.47
loop_
_atom_site_label
_atom_site_type_symbol
_atom_site_fract_x
_atom_site_fract_y
_atom_site_fract_z
Cu1 Cu 0.624505(10) 0.00038(6) 0.07625(6)
O1 O 0.64144(6) -0.1616(3) 0.0483(4)
O2 O 0.66039(9) -0.2045(4) 0.2627(4)
Cl1 Cl 0.71606(4) -0.2606(2) 0.2059(3)
O3 O 0.60782(6) 0.1624(3) 0.1088(4)
O4 O 0.58531(9) 0.1992(4) -0.1000(4)
Cl2 Cl 0.53166(3) 0.2847(2) -0.0357(2)
N1 N 0.65992(7) 0.0830(4) 0.1325(4)
N2 N 0.58911(7) -0.0827(4) 0.0256(4)
C1 C 0.67988(10) 0.0560(5) 0.0690(6)
H1 H 0.6767 0.0008 -0.0044
C2 C 0.70473(10) 0.1049(6) 0.1056(6)
C3 C 0.70889(11) 0.1876(7) 0.2134(7)
H2 H 0.7254 0.2240 0.2411
C4 C 0.68863(12) 0.2164(7) 0.2801(7)
H3 H 0.6914 0.2714 0.3537
C5 C 0.66439(10) 0.1636(5) 0.2373(6)
H4 H 0.6507 0.1840 0.2819
C6 C 0.72650(12) 0.0678(8) 0.0309(8)
H5 H 0.7224 0.0983 -0.0607
H6 H 0.7281 -0.0226 0.0303
H7 H 0.7428 0.1041 0.0757
C7 C 0.56999(9) -0.0559(5) 0.0950(6)
H8 H 0.5737 0.0002 0.1675
C8 C 0.54508(10) -0.1065(5) 0.0652(6)
C9 C 0.53977(11) -0.1884(6) -0.0432(7)
H9 H 0.5231 -0.2236 -0.0680
C10 C 0.55953(12) -0.2177(6) -0.1150(6)
H10 H 0.5562 -0.2735 -0.1878
C11 C 0.58380(10) -0.1646(5) -0.0785(5)
H11 H 0.5970 -0.1854 -0.1266
C12 C 0.52509(12) -0.0705(8) 0.1517(8)
H12 H 0.5278 0.0159 0.1802
H13 H 0.5272 -0.1244 0.2300
H14 H 0.5077 -0.0802 0.0997
C13 C 0.65581(9) -0.2258(5) 0.1403(6)
C14 C 0.66789(11) -0.3415(5) 0.0888(5)
C15 C 0.69427(12) -0.3676(6) 0.1149(6)
C16 C 0.70422(18) -0.4777(9) 0.0638(9)
H15 H 0.7222 -0.4944 0.0819
C17 C 0.6872(2) -0.5598(8) -0.0127(9)
H16 H 0.6937 -0.6331 -0.0456
C18 C 0.6613(2) -0.5364(8) -0.0412(9)
H17 H 0.6498 -0.5930 -0.0930
C19 C 0.65181(14) -0.4272(6) 0.0077(7)
H18 H 0.6339 -0.4102 -0.0147
C20 C 0.59209(10) 0.2254(5) 0.0217(6)
C21 C 0.58185(10) 0.3445(5) 0.0786(5)
C22 C 0.55583(12) 0.3805(5) 0.0547(6)
C23 C 0.54773(15) 0.4916(6) 0.1111(7)
H19 H 0.5300 0.5141 0.0956
C24 C 0.56566(17) 0.5654(7) 0.1877(8)
H20 H 0.5602 0.6390 0.2251
C25 C 0.59163(16) 0.5348(6) 0.2117(8)
H21 H 0.6039 0.5883 0.2628
C26 C 0.59974(13) 0.4232(6) 0.1593(7)
H22 H 0.6174 0.4007 0.1786
O5 O 0.62365(9) 0.0485(4) -0.1668(4)
H23 H 0.6362(13) 0.090(6) -0.183(6)
H24 H 0.6127(13) 0.094(7) -0.162(7)
Cu1E Cu 0.624505(10) -0.00038(6) -0.42375(6)
O5E O 0.62365(9) -0.0485(4) 0.3332(4)
loop_
_geom_bond_atom_site_label_1
_geom_bond_atom_site_label_2
_geom_bond_site_symmetry_1
_geom_bond_site_symmetry_2
Cu1 O1 1_555 1_555
O1 C13 1_555 1_555
O2 C13 1_555 1_555
Cl1 C15 1_555 1_555
O3 Cu1 1_555 1_555
O4 C20 1_555 1_555
Cl2 C22 1_555 1_555
N1 Cu1 1_555 1_555
N2 Cu1 1_555 1_555
C1 N1 1_555 1_555
H1 C1 1_555 1_555
C2 C1 1_555 1_555
C3 C2 1_555 1_555
H2 C3 1_555 1_555
C4 C3 1_555 1_555
H3 C4 1_555 1_555
C5 N1 1_555 1_555
H4 C5 1_555 1_555
C6 C2 1_555 1_555
H5 C6 1_555 1_555
H6 C6 1_555 1_555
H7 C6 1_555 1_555
C7 N2 1_555 1_555
H8 C7 1_555 1_555
C8 C7 1_555 1_555
C9 C8 1_555 1_555
H9 C9 1_555 1_555
C10 C9 1_555 1_555
H10 C10 1_555 1_555
C11 N2 1_555 1_555
H11 C11 1_555 1_555
C12 C8 1_555 1_555
H12 C12 1_555 1_555
H13 C12 1_555 1_555
H14 C12 1_555 1_555
C13 C14 1_555 1_555
C14 C15 1_555 1_555
C15 C16 1_555 1_555
C16 H15 1_555 1_555
C17 C16 1_555 1_555
H16 C17 1_555 1_555
C18 C17 1_555 1_555
H17 C18 1_555 1_555
C19 C14 1_555 1_555
H18 C19 1_555 1_555
C20 O3 1_555 1_555
C21 C20 1_555 1_555
C22 C21 1_555 1_555
C23 C22 1_555 1_555
H19 C23 1_555 1_555
C24 C23 1_555 1_555
H20 C24 1_555 1_555
C25 C24 1_555 1_555
H21 C25 1_555 1_555
C26 C21 1_555 1_555
H22 C26 1_555 1_555
O5 Cu1 1_555 1_555
H23 O5 1_555 1_555
H24 O5 1_555 1_555
Cu1E O5 1_555 1_555
O5E Cu1 1_555 1_555
C4 C5 1_555 1_555
C10 C11 1_555 1_555
C18 C19 1_555 1_555
C25 C26 1_555 1_555

#END
