
#######################################################################
#
#                 Cambridge Crystallographic Data Centre
#                                CCDC 
#
#######################################################################
#
# If this CIF has been generated from an entry in the Cambridge 
# Structural Database, then it will include bibliographic, chemical, 
# crystal, experimental, refinement or atomic coordinate data resulting 
# from the CCDC's data processing and validation procedures.
#
#######################################################################

data_ZUGYAD
_symmetry_cell_setting           orthorhombic
_symmetry_space_group_name_H-M   'P b c n'
_symmetry_Int_Tables_number      60
_space_group_name_Hall           '-P 2n 2ab'
loop_
_symmetry_equiv_pos_site_id
_symmetry_equiv_pos_as_xyz
1 x,y,z
2 1/2-x,1/2-y,1/2+z
3 1/2+x,1/2-y,-z
4 -x,y,1/2-z
5 -x,-y,-z
6 1/2+x,1/2+y,1/2-z
7 1/2-x,1/2+y,z
8 x,-y,1/2+z
_cell_length_a                   7.1470(14)
_cell_length_b                   12.522(3)
_cell_length_c                   16.825(3)
_cell_angle_alpha                90
_cell_angle_beta                 90
_cell_angle_gamma                90
_cell_volume                     1505.75
loop_
_atom_site_label
_atom_site_type_symbol
_atom_site_fract_x
_atom_site_fract_y
_atom_site_fract_z
Zn1 Zn 0.5000 -0.41174(7) -0.2500
O1 O 0.6865(13) -0.5370(7) -0.2360(5)
N1 N 0.3631(6) -0.3070(4) -0.1761(3)
N2 N -0.0861(9) -0.0947(4) -0.0111(4)
N3 N 0.7608(11) -0.5014(7) -0.1792(5)
N4 N 0.1772(8) 0.0184(4) -0.0258(4)
C1 C 0.1802(8) -0.3168(5) -0.1582(3)
H1 H 0.1147 -0.3752 -0.1779
C2 C 0.0852(10) -0.0730(5) -0.0363(4)
C3 C 0.1828(8) -0.1576(4) -0.0830(3)
C4 C 0.0876(8) -0.2448(5) -0.1125(4)
H2 H -0.0387 -0.2542 -0.1012
C5 C 0.3731(9) -0.1488(5) -0.0988(4)
H3 H 0.4422 -0.0923 -0.0781
C6 C 0.4569(9) -0.2248(5) -0.1453(4)
H4 H 0.5843 -0.2188 -0.1558
O2 O 0.7310(12) -0.4316(7) -0.1580(5)
N1D N -0.3631(6) 0.3070(4) 0.1761(3)
N2D N 0.0861(9) 0.0947(4) 0.0111(4)
N4D N -0.1772(8) -0.0184(4) 0.0258(4)
C1D C -0.1802(8) 0.3168(5) 0.1582(3)
H1D H -0.1147 0.3752 0.1779
C2D C -0.0852(10) 0.0730(5) 0.0363(4)
C3D C -0.1828(8) 0.1576(4) 0.0830(3)
C4D C -0.0876(8) 0.2448(5) 0.1125(4)
H2D H 0.0387 0.2542 0.1012
C5D C -0.3731(9) 0.1488(5) 0.0988(4)
H3D H -0.4422 0.0923 0.0781
C6D C -0.4569(9) 0.2248(5) 0.1453(4)
H4D H -0.5843 0.2188 0.1558
O1C O 0.3135(13) -0.5370(7) -0.2640(5)
N3C N 0.2392(11) -0.5014(7) -0.3208(5)
O2C O 0.2690(12) -0.4316(7) -0.3420(5)
Zn1D Zn -0.5000 0.41174(7) 0.2500
N1C N 0.6369(6) -0.3070(4) -0.3239(3)
loop_
_geom_bond_atom_site_label_1
_geom_bond_atom_site_label_2
_geom_bond_site_symmetry_1
_geom_bond_site_symmetry_2
Zn1 O1 1_555 1_555
O1 N3 1_555 1_555
N1 Zn1 1_555 1_555
N2 C2 1_555 1_555
N3 O2 1_555 1_555
N4 C2 1_555 1_555
C1 N1 1_555 1_555
H1 C1 1_555 1_555
C2 C3 1_555 1_555
C3 C4 1_555 1_555
C4 C1 1_555 1_555
H2 C4 1_555 1_555
C5 C3 1_555 1_555
H3 C5 1_555 1_555
C6 N1 1_555 1_555
H4 C6 1_555 1_555
O2 Zn1 1_555 1_555
N1D C1D 1_555 1_555
N2D N4 1_555 1_555
N4D N2 1_555 1_555
C1D H1D 1_555 1_555
C2D N2D 1_555 1_555
C3D C2D 1_555 1_555
C4D C1D 1_555 1_555
H2D C4D 1_555 1_555
C5D C3D 1_555 1_555
H3D C5D 1_555 1_555
C6D N1D 1_555 1_555
H4D C6D 1_555 1_555
O1C Zn1 1_555 1_555
N3C O1C 1_555 1_555
O2C Zn1 1_555 1_555
Zn1D N1D 1_555 1_555
N1C Zn1 1_555 1_555
C5 C6 1_555 1_555
N4D C2D 1_555 1_555
C3D C4D 1_555 1_555
C5D C6D 1_555 1_555
N3C O2C 1_555 1_555

#END
