
#######################################################################
#
#                 Cambridge Crystallographic Data Centre
#                                CCDC 
#
#######################################################################
#
# If this CIF has been generated from an entry in the Cambridge 
# Structural Database, then it will include bibliographic, chemical, 
# crystal, experimental, refinement or atomic coordinate data resulting 
# from the CCDC's data processing and validation procedures.
#
#######################################################################

data_ZUGYIL
_symmetry_cell_setting           monoclinic
_symmetry_space_group_name_H-M   'P 2/c'
_symmetry_Int_Tables_number      13
_space_group_name_Hall           '-P 2yc'
loop_
_symmetry_equiv_pos_site_id
_symmetry_equiv_pos_as_xyz
1 x,y,z
2 -x,y,1/2-z
3 -x,-y,-z
4 x,-y,1/2+z
_cell_length_a                   7.2246(14)
_cell_length_b                   5.8145(12)
_cell_length_c                   17.630(3)
_cell_angle_alpha                90
_cell_angle_beta                 100.92(3)
_cell_angle_gamma                90
_cell_volume                     727.181
loop_
_atom_site_label
_atom_site_type_symbol
_atom_site_fract_x
_atom_site_fract_y
_atom_site_fract_z
Zn1 Zn 1.0000 0.18267(5) 0.2500
O1 O 0.7960(3) 0.1598(3) 0.33495(11)
O2 O 0.8024(3) -0.0902(3) 0.25490(13)
N1 N 1.0847(2) 0.7982(3) 0.02537(10)
N2 N 0.8334(2) 0.3948(3) 0.17169(9)
N3 N 0.8250(2) 1.0568(3) 0.01207(9)
N4 N 0.7288(3) -0.0258(4) 0.30957(13)
C1 C 0.8123(3) 0.6994(3) 0.07984(11)
C2 C 0.6178(3) 0.7009(4) 0.07245(13)
H1 H 0.5453 0.8064 0.0400
C3 C 0.9141(2) 0.5446(3) 0.13053(10)
H2 H 1.0447 0.5441 0.1363
C4 C 0.9120(3) 0.8594(3) 0.03651(10)
C5 C 0.6455(3) 0.3947(4) 0.16215(12)
H3 H 0.5879 0.2887 0.1897
C6 C 0.5337(3) 0.5458(4) 0.11338(13)
H4 H 0.4032 0.5420 0.1083
N1B N 0.9153(2) 1.2018(3) -0.02537(10)
N2B N 1.1666(2) 1.6052(3) -0.17169(9)
N3B N 1.1750(2) 0.9432(3) -0.01207(9)
C1B C 1.1877(3) 1.3006(3) -0.07984(11)
C2B C 1.3822(3) 1.2991(4) -0.07245(13)
H1B H 1.4547 1.1936 -0.0400
C3B C 1.0859(2) 1.4554(3) -0.13053(10)
H2B H 0.9553 1.4559 -0.1363
C4B C 1.0880(3) 1.1406(3) -0.03651(10)
C5B C 1.3545(3) 1.6053(4) -0.16215(12)
H3B H 1.4121 1.7113 -0.1897
C6B C 1.4663(3) 1.4542(4) -0.11338(13)
H4B H 1.5968 1.4580 -0.1083
O1A O 1.2040(3) 0.1598(3) 0.16505(11)
O2A O 1.1976(3) -0.0902(3) 0.24510(13)
N4A N 1.2712(3) -0.0258(4) 0.19043(13)
Zn1B Zn 1.0000 1.81733(5) -0.2500
N2A N 1.1666(2) 0.3948(3) 0.32831(9)
loop_
_geom_bond_atom_site_label_1
_geom_bond_atom_site_label_2
_geom_bond_site_symmetry_1
_geom_bond_site_symmetry_2
Zn1 O1 1_555 1_555
O1 N4 1_555 1_555
O2 Zn1 1_555 1_555
N1 C4 1_555 1_555
N2 Zn1 1_555 1_555
N3 C4 1_555 1_555
N4 O2 1_555 1_555
C1 C2 1_555 1_555
C2 H1 1_555 1_555
C3 N2 1_555 1_555
H2 C3 1_555 1_555
C4 C1 1_555 1_555
C5 N2 1_555 1_555
H3 C5 1_555 1_555
C6 C2 1_555 1_555
H4 C6 1_555 1_555
N1B N3 1_555 1_555
N2B C3B 1_555 1_555
N3B N1 1_555 1_555
C1B C2B 1_555 1_555
C2B H1B 1_555 1_555
C3B C1B 1_555 1_555
H2B C3B 1_555 1_555
C4B N1B 1_555 1_555
C5B N2B 1_555 1_555
H3B C5B 1_555 1_555
C6B C2B 1_555 1_555
H4B C6B 1_555 1_555
O1A Zn1 1_555 1_555
O2A Zn1 1_555 1_555
N4A O1A 1_555 1_555
Zn1B N2B 1_555 1_555
N2A Zn1 1_555 1_555
C1 C3 1_555 1_555
C5 C6 1_555 1_555
N3B C4B 1_555 1_555
C1B C4B 1_555 1_555
C5B C6B 1_555 1_555
O2A N4A 1_555 1_555

#END
