
#######################################################################
#
#                 Cambridge Crystallographic Data Centre
#                                CCDC 
#
#######################################################################
#
# If this CIF has been generated from an entry in the Cambridge 
# Structural Database, then it will include bibliographic, chemical, 
# crystal, experimental, refinement or atomic coordinate data resulting 
# from the CCDC's data processing and validation procedures.
#
#######################################################################

data_ZUGYOR
_symmetry_cell_setting           triclinic
_symmetry_space_group_name_H-M   'P -1'
_symmetry_Int_Tables_number      2
_space_group_name_Hall           '-P 1'
loop_
_symmetry_equiv_pos_site_id
_symmetry_equiv_pos_as_xyz
1 x,y,z
2 -x,-y,-z
_cell_length_a                   9.1097(5)
_cell_length_b                   12.7381(6)
_cell_length_c                   12.92600(10)
_cell_angle_alpha                116.070(6)
_cell_angle_beta                 102.160(7)
_cell_angle_gamma                101.810(7)
_cell_volume                     1239.35
loop_
_atom_site_label
_atom_site_type_symbol
_atom_site_fract_x
_atom_site_fract_y
_atom_site_fract_z
Cd1 Cd 0.62839(3) 0.15805(2) 0.332791(19)
O1 O 0.8521(3) 0.1941(3) 0.4945(3)
O2 O 0.6334(3) 0.1579(3) 0.5202(2)
O3 O 0.5907(4) 0.1695(3) 0.1503(3)
O4 O 0.8170(4) 0.1753(3) 0.2317(3)
N1 N 0.6770(4) 0.3769(3) 0.4474(2)
N2 N 0.5699(3) 0.9385(2) 1.2300(2)
N3 N 0.3477(3) 0.0912(3) 0.2818(2)
N4 N 0.7786(5) 0.1820(3) 0.5628(3)
N5 N 0.7261(5) 0.1742(3) 0.1431(3)
N6 N 0.7481(4) 0.7222(3) 0.8350(3)
N7 N 0.7126(4) 0.7700(3) 0.9359(3)
N8 N 0.5175(4) 0.5763(3) 0.8636(3)
N9 N 0.5535(4) 0.5284(3) 0.7616(3)
N10 N -0.0862(3) -0.0787(3) 0.3789(3)
N11 N 0.1436(3) 0.0880(3) 0.5382(3)
C1 C 0.7698(5) 0.4546(3) 0.4252(3)
H1 H 0.7919 0.4215 0.3526
C2 C 0.8344(5) 0.5806(3) 0.5039(4)
H2 H 0.8992 0.6310 0.4849
C3 C 0.8023(5) 0.6314(3) 0.6112(3)
H3 H 0.8465 0.7163 0.6668
C4 C 0.7037(4) 0.5539(3) 0.6356(3)
C5 C 0.6442(4) 0.4280(3) 0.5511(3)
H4 H 0.5779 0.3759 0.5676
C6 C 0.6651(4) 0.6038(3) 0.7496(3)
C7 C 0.5952(4) 0.6958(3) 0.9453(3)
C8 C 0.5556(4) 0.7521(3) 1.0583(3)
C9 C 0.4797(6) 0.6822(3) 1.1005(4)
H5 H 0.4495 0.5961 1.0571
C10 C 0.4505(6) 0.7421(4) 1.2080(4)
H6 H 0.3992 0.6967 1.2380
C11 C 0.4982(5) 0.8691(3) 1.2700(3)
H7 H 0.4795 0.9089 1.3433
C12 C 0.5967(4) 0.8799(3) 1.1253(3)
H8 H 0.6458 0.9271 1.0961
C13 C 0.2585(4) 0.0269(3) 0.1637(3)
H9 H 0.3053 0.0303 0.1074
C14 C 0.1006(5) -0.0446(4) 0.1206(4)
H10 H 0.0419 -0.0883 0.0372
C15 C 0.0318(4) -0.0492(4) 0.2037(4)
H11 H -0.0751 -0.0966 0.1767
C16 C 0.1210(4) 0.0166(3) 0.3277(3)
C17 C 0.2796(4) 0.0862(3) 0.3616(3)
H12 H 0.3408 0.1325 0.4445
C18 C 0.0556(4) 0.0088(3) 0.4198(3)
N3A N -0.3477(3) -0.0912(3) 0.7182(2)
N10A N 0.0862(3) 0.0787(3) 0.6211(3)
N11A N -0.1436(3) -0.0880(3) 0.4618(3)
C13A C -0.2585(4) -0.0269(3) 0.8363(3)
H9A H -0.3053 -0.0303 0.8926
C14A C -0.1006(5) 0.0446(4) 0.8794(4)
H10A H -0.0419 0.0883 0.9628
C15A C -0.0318(4) 0.0492(4) 0.7963(4)
H11A H 0.0751 0.0966 0.8233
C16A C -0.1210(4) -0.0166(3) 0.6723(3)
C17A C -0.2796(4) -0.0862(3) 0.6384(3)
H12A H -0.3408 -0.1325 0.5555
C18A C -0.0556(4) -0.0088(3) 0.5802(3)
Cd1A Cd -0.62839(3) -0.15805(2) 0.667209(19)
O1A O -0.8521(3) -0.1941(3) 0.5055(3)
O2A O -0.6334(3) -0.1579(3) 0.4798(2)
O3A O -0.5907(4) -0.1695(3) 0.8497(3)
O4A O -0.8170(4) -0.1753(3) 0.7683(3)
N1A N -0.6770(4) -0.3769(3) 0.5526(2)
N2A N -0.5699(3) -0.9385(2) -0.2300(2)
N4A N -0.7786(5) -0.1820(3) 0.4372(3)
N5A N -0.7261(5) -0.1742(3) 0.8569(3)
N6A N -0.7481(4) -0.7222(3) 0.1650(3)
N7A N -0.7126(4) -0.7700(3) 0.0641(3)
N8A N -0.5175(4) -0.5763(3) 0.1364(3)
N9A N -0.5535(4) -0.5284(3) 0.2384(3)
C1A C -0.7698(5) -0.4546(3) 0.5748(3)
H1A H -0.7919 -0.4215 0.6474
C2A C -0.8344(5) -0.5806(3) 0.4961(4)
H2A H -0.8992 -0.6310 0.5151
C3A C -0.8023(5) -0.6314(3) 0.3888(3)
H3A H -0.8465 -0.7163 0.3332
C4A C -0.7037(4) -0.5539(3) 0.3644(3)
C5A C -0.6442(4) -0.4280(3) 0.4489(3)
H4A H -0.5779 -0.3759 0.4324
C6A C -0.6651(4) -0.6038(3) 0.2504(3)
C7A C -0.5952(4) -0.6958(3) 0.0547(3)
C8A C -0.5556(4) -0.7521(3) -0.0583(3)
C9A C -0.4797(6) -0.6822(3) -0.1005(4)
H5A H -0.4495 -0.5961 -0.0571
C10A C -0.4505(6) -0.7421(4) -0.2080(4)
H6A H -0.3992 -0.6967 -0.2380
C11A C -0.4982(5) -0.8691(3) -0.2700(3)
H7A H -0.4795 -0.9089 -0.3433
C12A C -0.5967(4) -0.8799(3) -0.1253(3)
H8A H -0.6458 -0.9271 -0.0961
Cd1_2 Cd 0.62839(3) 1.15805(2) 1.332791(19)
Cd1A_2 Cd -0.62839(3) -1.15805(2) -0.332791(19)
N2_2 N 0.5699(3) -0.0615(2) 0.2300(2)
N2A_2 N -0.5699(3) 0.0615(2) 0.7700(2)
Cl1 Cl 0.8967(3) 0.6164(2) 0.0735(2)
Cl2 Cl 0.9479(3) 0.4837(3) 0.2002(2)
C19 C 0.8813(9) 0.6041(6) 0.1967(6)
H13 H 0.7706 0.5858 0.1921
H14 H 0.9435 0.6825 0.2714
loop_
_geom_bond_atom_site_label_1
_geom_bond_atom_site_label_2
_geom_bond_site_symmetry_1
_geom_bond_site_symmetry_2
Cd1 O1 1_555 1_555
O1 N4 1_555 1_555
O2 Cd1 1_555 1_555
O3 Cd1 1_555 1_555
O4 Cd1 1_555 1_555
N1 Cd1 1_555 1_555
N2 C11 1_555 1_555
N3 Cd1 1_555 1_555
N4 O2 1_555 1_555
N5 O3 1_555 1_555
N6 N7 1_555 1_555
N7 C7 1_555 1_555
N8 N9 1_555 1_555
N9 C6 1_555 1_555
N10 C18 1_555 1_555
N11 C18 1_555 1_555
C1 N1 1_555 1_555
H1 C1 1_555 1_555
C2 C1 1_555 1_555
H2 C2 1_555 1_555
C3 C2 1_555 1_555
H3 C3 1_555 1_555
C4 C3 1_555 1_555
C5 N1 1_555 1_555
H4 C5 1_555 1_555
C6 N6 1_555 1_555
C7 N8 1_555 1_555
C8 C7 1_555 1_555
C9 C8 1_555 1_555
H5 C9 1_555 1_555
C10 C9 1_555 1_555
H6 C10 1_555 1_555
C11 C10 1_555 1_555
H7 C11 1_555 1_555
C12 N2 1_555 1_555
H8 C12 1_555 1_555
C13 N3 1_555 1_555
H9 C13 1_555 1_555
C14 C13 1_555 1_555
H10 C14 1_555 1_555
C15 C14 1_555 1_555
H11 C15 1_555 1_555
C16 C15 1_555 1_555
C17 N3 1_555 1_555
H12 C17 1_555 1_555
C18 C16 1_555 1_555
Cl1 C19 1_555 1_555
Cl2 C19 1_555 1_555
C19 H13 1_555 1_555
H14 C19 1_555 1_555
N3A C13A 1_555 1_555
N10A N11 1_555 1_555
N11A N10 1_555 1_555
C13A H9A 1_555 1_555
C14A C13A 1_555 1_555
H10A C14A 1_555 1_555
C15A C14A 1_555 1_555
H11A C15A 1_555 1_555
C16A C15A 1_555 1_555
C17A N3A 1_555 1_555
H12A C17A 1_555 1_555
C18A N10A 1_555 1_555
Cd1A N3A 1_555 1_555
O1A Cd1A 1_555 1_555
O2A Cd1A 1_555 1_555
O3A Cd1A 1_555 1_555
O4A Cd1A 1_555 1_555
N1A Cd1A 1_555 1_555
N2A C11A 1_555 1_555
N4A O1A 1_555 1_555
N5A O3A 1_555 1_555
N6A N7A 1_555 1_555
N7A C7A 1_555 1_555
N8A N9A 1_555 1_555
N9A C6A 1_555 1_555
C1A N1A 1_555 1_555
H1A C1A 1_555 1_555
C2A C1A 1_555 1_555
H2A C2A 1_555 1_555
C3A C2A 1_555 1_555
H3A C3A 1_555 1_555
C4A C3A 1_555 1_555
C5A N1A 1_555 1_555
H4A C5A 1_555 1_555
C6A N6A 1_555 1_555
C7A N8A 1_555 1_555
C8A C7A 1_555 1_555
C9A C8A 1_555 1_555
H5A C9A 1_555 1_555
C10A C9A 1_555 1_555
H6A C10A 1_555 1_555
C11A C10A 1_555 1_555
H7A C11A 1_555 1_555
C12A N2A 1_555 1_555
H8A C12A 1_555 1_555
Cd1_2 N2 1_555 1_555
Cd1A_2 N2A 1_555 1_555
N2_2 Cd1 1_555 1_555
N2A_2 Cd1A 1_555 1_555
O4 N5 1_555 1_555
C4 C5 1_555 1_555
C4 C6 1_555 1_555
C8 C12 1_555 1_555
C16 C17 1_555 1_555
N11A C18A 1_555 1_555
C16A C17A 1_555 1_555
C16A C18A 1_555 1_555
O2A N4A 1_555 1_555
O4A N5A 1_555 1_555
C4A C5A 1_555 1_555
C4A C6A 1_555 1_555
C8A C12A 1_555 1_555

#END
