
#######################################################################
#
#                 Cambridge Crystallographic Data Centre
#                                CCDC 
#
#######################################################################
#
# If this CIF has been generated from an entry in the Cambridge 
# Structural Database, then it will include bibliographic, chemical, 
# crystal, experimental, refinement or atomic coordinate data resulting 
# from the CCDC's data processing and validation procedures.
#
#######################################################################

data_ZUHDIR
_symmetry_cell_setting           triclinic
_symmetry_space_group_name_H-M   'P -1'
_symmetry_Int_Tables_number      2
_space_group_name_Hall           '-P 1'
loop_
_symmetry_equiv_pos_site_id
_symmetry_equiv_pos_as_xyz
1 x,y,z
2 -x,-y,-z
_cell_length_a                   5.4578(7)
_cell_length_b                   9.6089(13)
_cell_length_c                   11.2103(15)
_cell_angle_alpha                85.7560(10)
_cell_angle_beta                 88.1320(10)
_cell_angle_gamma                80.9500(10)
_cell_volume                     578.865
loop_
_atom_site_label
_atom_site_type_symbol
_atom_site_fract_x
_atom_site_fract_y
_atom_site_fract_z
Cd1 Cd 0.5000 0.5000 0.5000
S1 S 1.02198(9) 0.42575(5) 0.30657(4)
O1 O 0.7529(3) 0.45294(16) 0.32726(12)
O2 O 1.1178(3) 0.27749(16) 0.30518(14)
O3 O 1.1485(3) 0.50124(17) 0.38750(12)
N1 N 0.4681(3) 0.72870(17) 0.43663(15)
N2 N 0.5280(3) 0.92382(17) 0.33247(15)
C1 C 0.6195(4) 0.7883(2) 0.36183(19)
H1 H 0.7701 0.7421 0.3332
C2 C 0.2704(4) 0.8324(2) 0.4557(2)
H2 H 0.1333 0.8216 0.5050
C3 C 0.3055(4) 0.9531(2) 0.3917(2)
H3 H 0.1990 1.0390 0.3887
C4 C 0.6393(5) 1.0214(2) 0.24668(19)
H4 H 0.8186 1.0008 0.2516
H5 H 0.5874 1.1176 0.2686
C5 C 0.5656(4) 1.0101(2) 0.11893(18)
C6 C 0.3357(4) 1.0753(2) 0.07771(19)
H6 H 0.2241 1.1260 0.1291
C7 C 0.7286(4) 0.9350(2) 0.03996(19)
H7 H 0.8833 0.8908 0.0664
C8 C 0.7967(4) 0.3700(2) 0.06151(17)
H8 H 0.7532 0.3283 0.1350
C9 C 0.9679(3) 0.46761(19) 0.05668(16)
C10 C 1.0796(3) 0.5054(2) 0.16099(16)
C11 C 1.2425(4) 0.6006(2) 0.15257(18)
H9 H 1.3128 0.6241 0.2214
C12 C 1.3042(4) 0.6633(2) 0.04013(19)
H10 H 1.4150 0.7279 0.0353
S1A S 0.97802(9) 0.57425(5) -0.30657(4)
O1A O 1.2471(3) 0.54706(16) -0.32726(12)
O2A O 0.8822(3) 0.72251(16) -0.30518(14)
O3A O 0.8515(3) 0.49876(17) -0.38750(12)
C8A C 1.2033(4) 0.6300(2) -0.06151(17)
H8A H 1.2468 0.6717 -0.1350
C9A C 1.0321(3) 0.53239(19) -0.05668(16)
C10A C 0.9204(3) 0.4946(2) -0.16099(16)
C11A C 0.7575(4) 0.3994(2) -0.15257(18)
H9A H 0.6872 0.3759 -0.2214
C12A C 0.6958(4) 0.3367(2) -0.04013(19)
H10A H 0.5850 0.2721 -0.0353
N1A N 0.5319(3) 1.27130(17) -0.43663(15)
N2A N 0.4720(3) 1.07618(17) -0.33247(15)
C1A C 0.3805(4) 1.2117(2) -0.36183(19)
H1A H 0.2299 1.2579 -0.3332
C2A C 0.7296(4) 1.1676(2) -0.4557(2)
H2A H 0.8667 1.1784 -0.5050
C3A C 0.6945(4) 1.0469(2) -0.3917(2)
H3A H 0.8010 0.9610 -0.3887
C4A C 0.3607(5) 0.9786(2) -0.24668(19)
H4A H 0.1814 0.9992 -0.2516
H5A H 0.4126 0.8824 -0.2686
C5A C 0.4344(4) 0.9899(2) -0.11893(18)
C6A C 0.6643(4) 0.9247(2) -0.07771(19)
H6A H 0.7759 0.8740 -0.1291
C7A C 0.2714(4) 1.0650(2) -0.03996(19)
H7A H 0.1167 1.1092 -0.0664
Cd1_2 Cd 0.5000 0.5000 -0.5000
Cd1_3 Cd 0.5000 1.5000 -0.5000
Cd1_4 Cd 1.5000 0.5000 -0.5000
Cd1_5 Cd 1.5000 0.5000 0.5000
O1A_2 O 0.2471(3) 0.54706(16) 0.67274(12)
O3_2 O 0.1485(3) 0.50124(17) 0.38750(12)
O3A_2 O 0.8515(3) 0.49876(17) 0.61250(12)
N1A_2 N 0.5319(3) 0.27130(17) 0.56337(15)
loop_
_geom_bond_atom_site_label_1
_geom_bond_atom_site_label_2
_geom_bond_site_symmetry_1
_geom_bond_site_symmetry_2
Cd1 O1 1_555 1_555
S1 O1 1_555 1_555
O2 S1 1_555 1_555
O3 S1 1_555 1_555
N1 Cd1 1_555 1_555
N2 C1 1_555 1_555
C1 N1 1_555 1_555
H1 C1 1_555 1_555
C2 N1 1_555 1_555
H2 C2 1_555 1_555
C3 N2 1_555 1_555
H3 C3 1_555 1_555
C4 N2 1_555 1_555
H4 C4 1_555 1_555
H5 C4 1_555 1_555
C5 C4 1_555 1_555
C6 C5 1_555 1_555
H6 C6 1_555 1_555
C7 C5 1_555 1_555
H7 C7 1_555 1_555
C8 H8 1_555 1_555
C9 C8 1_555 1_555
C10 S1 1_555 1_555
C11 C10 1_555 1_555
H9 C11 1_555 1_555
C12 C11 1_555 1_555
H10 C12 1_555 1_555
S1A O1A 1_555 1_555
O1A Cd1_4 1_555 1_555
O2A S1A 1_555 1_555
O3A S1A 1_555 1_555
C8A C12 1_555 1_555
H8A C8A 1_555 1_555
C9A C9 1_555 1_555
C10A S1A 1_555 1_555
C11A C10A 1_555 1_555
H9A C11A 1_555 1_555
C12A C8 1_555 1_555
H10A C12A 1_555 1_555
N1A C1A 1_555 1_555
N2A C1A 1_555 1_555
C1A H1A 1_555 1_555
C2A N1A 1_555 1_555
H2A C2A 1_555 1_555
C3A N2A 1_555 1_555
H3A C3A 1_555 1_555
C4A N2A 1_555 1_555
H4A C4A 1_555 1_555
H5A C4A 1_555 1_555
C5A C4A 1_555 1_555
C6A C7 1_555 1_555
H6A C6A 1_555 1_555
C7A C6 1_555 1_555
H7A C7A 1_555 1_555
Cd1_2 O3A 1_555 1_555
Cd1_3 N1A 1_555 1_555
Cd1_5 O3 1_555 1_555
O1A_2 Cd1 1_555 1_555
O3_2 Cd1 1_555 1_555
O3A_2 Cd1 1_555 1_555
N1A_2 Cd1 1_555 1_555
C2 C3 1_555 1_555
C9 C10 1_555 1_555
C8A C9A 1_555 1_555
C9A C10A 1_555 1_555
C11A C12A 1_555 1_555
C2A C3A 1_555 1_555
C5A C6A 1_555 1_555
C5A C7A 1_555 1_555

#END
