
#######################################################################
#
#                 Cambridge Crystallographic Data Centre
#                                CCDC 
#
#######################################################################
#
# If this CIF has been generated from an entry in the Cambridge 
# Structural Database, then it will include bibliographic, chemical, 
# crystal, experimental, refinement or atomic coordinate data resulting 
# from the CCDC's data processing and validation procedures.
#
#######################################################################

data_ZUHDEN
_symmetry_cell_setting           triclinic
_symmetry_space_group_name_H-M   'P -1'
_symmetry_Int_Tables_number      2
_space_group_name_Hall           '-P 1'
loop_
_symmetry_equiv_pos_site_id
_symmetry_equiv_pos_as_xyz
1 x,y,z
2 -x,-y,-z
_cell_length_a                   5.2955(14)
_cell_length_b                   9.241(2)
_cell_length_c                   12.267(3)
_cell_angle_alpha                89.724(3)
_cell_angle_beta                 83.419(3)
_cell_angle_gamma                87.219(3)
_cell_volume                     595.636
loop_
_atom_site_label
_atom_site_type_symbol
_atom_site_fract_x
_atom_site_fract_y
_atom_site_fract_z
Cd1 Cd 1.0000 0.0000 0.0000
S1 S 0.42680(17) 0.12741(9) 0.17111(7)
O1 O 0.6020(5) 0.0293(3) 0.1040(2)
O2 O 0.1674(5) 0.1196(3) 0.1441(2)
O3 O 0.5113(6) 0.2728(3) 0.1747(2)
N1 N 0.9710(7) 0.2110(3) -0.0920(3)
N2 N 1.0653(7) 0.3877(4) -0.2065(3)
C1 C 0.4217(7) 0.0577(4) 0.3062(3)
C2 C 0.2582(9) -0.0524(5) 0.3406(4)
H1 H 0.1508 -0.0877 0.2931
C3 C 0.2568(10) -0.1078(5) 0.4439(4)
H2 H 0.1498 -0.1820 0.4659
C4 C 0.4154(7) -0.0542(4) 0.5178(3)
C5 C 0.5839(8) 0.1087(4) 0.3742(3)
H3 H 0.6950 0.1798 0.3493
C6 C 1.1350(8) 0.2578(4) -0.1710(3)
H4 H 1.2831 0.2058 -0.1988
C7 C 0.7839(11) 0.3184(6) -0.0763(4)
H5 H 0.6411 0.3159 -0.0246
C8 C 0.8366(13) 0.4281(6) -0.1463(4)
H6 H 0.7391 0.5135 -0.1529
C9 C 1.2129(11) 0.4740(5) -0.2914(4)
H7 H 1.3833 0.4298 -0.3060
H8 H 1.2277 0.5705 -0.2628
C10 C 1.0968(8) 0.4867(4) -0.3985(3)
C11 C 0.8859(9) 0.5760(5) -0.4107(4)
H9 H 0.8060 0.6281 -0.3506
C12 C 1.2079(9) 0.4109(5) -0.4895(4)
H10 H 1.3498 0.3493 -0.4833
S1A S 0.57320(17) -0.12741(9) 0.82889(7)
O1A O 0.3980(5) -0.0293(3) 0.8960(2)
O2A O 0.8326(5) -0.1196(3) 0.8559(2)
O3A O 0.4887(6) -0.2728(3) 0.8253(2)
C1A C 0.5783(7) -0.0577(4) 0.6938(3)
C2A C 0.7418(9) 0.0524(5) 0.6594(4)
H1A H 0.8492 0.0877 0.7069
C3A C 0.7432(10) 0.1078(5) 0.5561(4)
H2A H 0.8502 0.1820 0.5341
C4A C 0.5846(7) 0.0542(4) 0.4822(3)
C5A C 0.4161(8) -0.1087(4) 0.6258(3)
H3A H 0.3050 -0.1798 0.6507
N1A N 1.0290(7) 0.7890(3) -0.9080(3)
N2A N 0.9347(7) 0.6123(4) -0.7935(3)
C6A C 0.8650(8) 0.7422(4) -0.8290(3)
H4A H 0.7169 0.7942 -0.8012
C7A C 1.2161(11) 0.6816(6) -0.9237(4)
H5A H 1.3589 0.6841 -0.9754
C8A C 1.1634(13) 0.5719(6) -0.8537(4)
H6A H 1.2609 0.4865 -0.8471
C9A C 0.7871(11) 0.5260(5) -0.7086(4)
H7A H 0.6167 0.5702 -0.6940
H8A H 0.7723 0.4295 -0.7372
C10A C 0.9032(8) 0.5133(4) -0.6015(3)
C11A C 1.1141(9) 0.4240(5) -0.5893(4)
H9A H 1.1940 0.3719 -0.6494
C12A C 0.7921(9) 0.5891(5) -0.5105(4)
H10A H 0.6502 0.6507 -0.5167
Cd1_2 Cd 0.0000 0.0000 0.0000
Cd1_3 Cd 0.0000 0.0000 1.0000
Cd1_4 Cd 1.0000 0.0000 1.0000
Cd1_5 Cd 1.0000 1.0000 -1.0000
O1A_2 O 1.3980(5) -0.0293(3) -0.1040(2)
O2_2 O 1.1674(5) 0.1196(3) 0.1441(2)
O2A_2 O 0.8326(5) -0.1196(3) -0.1441(2)
N1A_2 N 1.0290(7) -0.2110(3) 0.0920(3)
loop_
_geom_bond_atom_site_label_1
_geom_bond_atom_site_label_2
_geom_bond_site_symmetry_1
_geom_bond_site_symmetry_2
Cd1 O1 1_555 1_555
S1 O1 1_555 1_555
O2 S1 1_555 1_555
O3 S1 1_555 1_555
N1 Cd1 1_555 1_555
N2 C6 1_555 1_555
C1 S1 1_555 1_555
C2 C1 1_555 1_555
H1 C2 1_555 1_555
C3 C2 1_555 1_555
H2 C3 1_555 1_555
C4 C3 1_555 1_555
C5 C1 1_555 1_555
H3 C5 1_555 1_555
C6 N1 1_555 1_555
H4 C6 1_555 1_555
C7 N1 1_555 1_555
H5 C7 1_555 1_555
C8 N2 1_555 1_555
H6 C8 1_555 1_555
C9 N2 1_555 1_555
H7 C9 1_555 1_555
H8 C9 1_555 1_555
C10 C9 1_555 1_555
C11 C10 1_555 1_555
H9 C11 1_555 1_555
C12 C10 1_555 1_555
H10 C12 1_555 1_555
S1A O1A 1_555 1_555
O1A Cd1_3 1_555 1_555
O2A S1A 1_555 1_555
O3A S1A 1_555 1_555
C1A S1A 1_555 1_555
C2A C1A 1_555 1_555
H1A C2A 1_555 1_555
C3A C2A 1_555 1_555
H2A C3A 1_555 1_555
C4A C4 1_555 1_555
C5A C4 1_555 1_555
H3A C5A 1_555 1_555
N1A C6A 1_555 1_555
N2A C6A 1_555 1_555
C6A H4A 1_555 1_555
C7A N1A 1_555 1_555
H5A C7A 1_555 1_555
C8A N2A 1_555 1_555
H6A C8A 1_555 1_555
C9A N2A 1_555 1_555
H7A C9A 1_555 1_555
H8A C9A 1_555 1_555
C10A C9A 1_555 1_555
C11A C12 1_555 1_555
H9A C11A 1_555 1_555
C12A C11 1_555 1_555
H10A C12A 1_555 1_555
Cd1_2 O2 1_555 1_555
Cd1_4 O2A 1_555 1_555
Cd1_5 N1A 1_555 1_555
O1A_2 Cd1 1_555 1_555
O2_2 Cd1 1_555 1_555
O2A_2 Cd1 1_555 1_555
N1A_2 Cd1 1_555 1_555
C5 C4A 1_555 1_555
C7 C8 1_555 1_555
C1A C5A 1_555 1_555
C3A C4A 1_555 1_555
C7A C8A 1_555 1_555
C10A C11A 1_555 1_555
C10A C12A 1_555 1_555

#END
