
#######################################################################
#
#                 Cambridge Crystallographic Data Centre
#                                CCDC 
#
#######################################################################
#
# If this CIF has been generated from an entry in the Cambridge 
# Structural Database, then it will include bibliographic, chemical, 
# crystal, experimental, refinement or atomic coordinate data resulting 
# from the CCDC's data processing and validation procedures.
#
#######################################################################

data_ZUHPOJ
_symmetry_cell_setting           orthorhombic
_symmetry_space_group_name_H-M   'P b c a'
_symmetry_Int_Tables_number      61
_space_group_name_Hall           '-P 2ac 2ab'
loop_
_symmetry_equiv_pos_site_id
_symmetry_equiv_pos_as_xyz
1 x,y,z
2 1/2-x,-y,1/2+z
3 1/2+x,1/2-y,-z
4 -x,1/2+y,1/2-z
5 -x,-y,-z
6 1/2+x,y,1/2-z
7 1/2-x,1/2+y,z
8 x,1/2-y,1/2+z
_cell_length_a                   20.7618(8)
_cell_length_b                   22.5885(9)
_cell_length_c                   23.9496(10)
_cell_angle_alpha                90
_cell_angle_beta                 90
_cell_angle_gamma                90
_cell_volume                     11231.8
loop_
_atom_site_label
_atom_site_type_symbol
_atom_site_fract_x
_atom_site_fract_y
_atom_site_fract_z
Ru1 Ru 0.372924(11) -0.351788(10) -0.008095(10)
Ru2 Ru 0.136122(11) -0.345583(10) 0.247473(10)
Fe1 Fe 0.10547(2) -0.42366(2) -0.27466(2)
Fe2 Fe 0.38994(2) -0.07628(2) 0.01386(2)
Cl1 Cl 0.47063(4) -0.30898(4) -0.03557(4)
Cl2 Cl 0.42939(4) -0.43664(3) 0.01885(4)
Cl3 Cl 0.27389(4) -0.39610(4) 0.01667(4)
Cl4 Cl 0.31907(5) -0.26552(4) -0.03744(3)
Cl5 Cl 0.04955(4) -0.28413(3) 0.27145(3)
Cl6 Cl 0.20773(4) -0.26997(3) 0.27482(3)
Cl7 Cl 0.22675(4) -0.40493(3) 0.22508(4)
Cl8 Cl 0.06238(3) -0.42043(3) 0.22481(3)
S1 S 0.37819(4) -0.31458(3) 0.08062(3)
S2 S 0.13574(3) -0.31506(3) 0.15633(3)
Na1 Na 0.23114(6) -0.25311(5) 0.04743(5)
Na2 Na 0.28037(5) -0.24200(5) 0.18372(5)
O1 O 0.32554(10) -0.27367(9) 0.09771(8)
O2 O 0.37165(12) -0.27144(14) 0.22963(11)
O3 O 0.27168(11) -0.35454(9) -0.30438(10)
O4 O 0.13833(12) -0.28654(13) 0.00368(10)
O5 O 0.18744(10) -0.27391(9) 0.13777(8)
O6 O 0.23126(11) -0.15508(10) 0.04146(10)
N1 N 0.36314(12) -0.38696(11) -0.08931(11)
N2 N 0.28487(13) -0.45051(11) -0.28232(11)
H1 H 0.2673 -0.4845 -0.2832
N3 N 0.13829(12) -0.12260(12) -0.16966(11)
N4 N 0.20361(14) -0.06035(12) 0.02658(12)
H2 H 0.2162 -0.0243 0.0282
C1 C 0.45134(16) -0.27688(18) 0.09611(16)
H3 H 0.4520 -0.2660 0.1357
H4 H 0.4544 -0.2411 0.0732
H5 H 0.4879 -0.3029 0.0880
C2 C 0.3968(3) -0.2402(3) 0.3210(2)
H6 H 0.4019 -0.2012 0.3037
H7 H 0.4358 -0.2501 0.3421
H8 H 0.3597 -0.2396 0.3462
C3 C 0.3789(2) -0.37190(17) 0.13135(16)
H9 H 0.3821 -0.3545 0.1687
H10 H 0.4160 -0.3979 0.1248
H11 H 0.3391 -0.3950 0.1285
C4 C 0.38630(17) -0.2855(2) 0.27673(15)
C5 C 0.40971(16) -0.41884(15) -0.11327(14)
H12 H 0.4472 -0.4281 -0.0922
C6 C 0.3945(2) -0.3491(2) 0.29156(17)
H13 H 0.3653 -0.3732 0.2688
H14 H 0.3844 -0.3548 0.3312
H15 H 0.4391 -0.3611 0.2844
C7 C 0.40529(17) -0.43890(16) -0.16761(14)
H16 H 0.4392 -0.4621 -0.1829
C8 C 0.0920(5) -0.3507(4) -0.0604(2)
H17 H 0.0672 -0.3655 -0.0285
H18 H 0.1238 -0.3806 -0.0717
H19 H 0.0629 -0.3427 -0.0917
C9 C 0.35229(15) -0.42562(14) -0.20000(14)
C10 C 0.12530(18) -0.2962(2) -0.04459(15)
C11 C 0.30341(16) -0.39397(17) -0.17417(15)
H20 H 0.2653 -0.3846 -0.1943
C12 C 0.1438(3) -0.2575(2) -0.09016(19)
H21 H 0.1580 -0.2194 -0.0751
H22 H 0.1068 -0.2513 -0.1149
H23 H 0.1790 -0.2757 -0.1113
C13 C 0.30979(16) -0.37609(16) -0.11935(15)
H24 H 0.2752 -0.3554 -0.1022
C14 C 0.34915(16) -0.44266(15) -0.26088(14)
H25 H 0.3710 -0.4116 -0.2831
H26 H 0.3733 -0.4800 -0.2662
C15 C 0.25002(15) -0.40553(13) -0.30327(13)
C16 C 0.18502(16) -0.41927(14) -0.32433(13)
C17 C 0.15361(17) -0.47548(15) -0.33001(15)
H27 H 0.1731 -0.5151 -0.3221
C18 C 0.09042(18) -0.46484(16) -0.35012(15)
H28 H 0.0571 -0.4957 -0.3580
C19 C 0.08227(17) -0.40293(16) -0.35610(14)
H29 H 0.0420 -0.3826 -0.3687
C20 C 0.14019(15) -0.37476(15) -0.34062(13)
H30 H 0.1482 -0.3311 -0.3406
C21 C 0.0848(3) -0.4700(2) -0.20324(18)
H31 H 0.0880 -0.5139 -0.1987
C22 C 0.1338(2) -0.4298(3) -0.19345(17)
H32 H 0.1782 -0.4391 -0.1797
C23 C 0.1091(3) -0.3729(2) -0.20558(18)
H33 H 0.1322 -0.3344 -0.2014
C24 C 0.0444(3) -0.3808(2) -0.22219(19)
H34 H 0.0134 -0.3487 -0.2327
C25 C 0.0312(2) -0.4399(2) -0.21975(17)
H35 H -0.0110 -0.4584 -0.2299
C26 C 0.06172(16) -0.28286(18) 0.13490(14)
H36 H 0.0637 -0.2735 0.0950
H37 H 0.0541 -0.2465 0.1562
H38 H 0.0265 -0.3108 0.1417
C27 C 0.13928(19) -0.37694(15) 0.11079(14)
H39 H 0.1372 -0.3633 0.0720
H40 H 0.1028 -0.4033 0.1184
H41 H 0.1797 -0.3984 0.1169
C28 C 0.08375(15) -0.11025(15) -0.14176(14)
H42 H 0.0438 -0.1127 -0.1610
C29 C 0.08361(16) -0.09412(15) -0.08614(14)
H43 H 0.0440 -0.0863 -0.0677
C30 C 0.14118(16) -0.08930(15) -0.05732(14)
C31 C 0.19712(16) -0.09852(17) -0.08736(15)
H44 H 0.2377 -0.0930 -0.0698
C32 C 0.19441(16) -0.11575(16) -0.14279(15)
H45 H 0.2335 -0.1229 -0.1623
C33 C 0.14116(17) -0.07608(17) 0.00477(15)
H46 H 0.1108 -0.0432 0.0121
H47 H 0.1252 -0.1113 0.0250
C34 C 0.24565(16) -0.10208(14) 0.04332(13)
C35 C 0.30958(16) -0.08236(13) 0.06341(13)
C36 C 0.33643(18) -0.02393(15) 0.06573(15)
H48 H 0.3139 0.0135 0.0550
C37 C 0.39991(19) -0.02844(16) 0.08690(16)
H49 H 0.4303 0.0053 0.0930
C38 C 0.41337(17) -0.08893(16) 0.09671(14)
H50 H 0.4549 -0.1053 0.1111
C39 C 0.35809(15) -0.12235(14) 0.08213(12)
H51 H 0.3537 -0.1663 0.0849
C40 C 0.47071(19) -0.08365(19) -0.03565(15)
H52 H 0.5164 -0.0826 -0.0224
C41 C 0.43197(18) -0.13502(17) -0.04105(15)
H53 H 0.4453 -0.1766 -0.0326
C42 C 0.37047(18) -0.11636(16) -0.06051(14)
H54 H 0.3329 -0.1429 -0.0683
C43 C 0.3714(2) -0.05433(18) -0.06755(15)
H55 H 0.3349 -0.0293 -0.0812
C44 C 0.4335(2) -0.03406(18) -0.05205(16)
H56 H 0.4484 0.0080 -0.0525
Ru2G Ru 0.136122(11) -0.154417(10) -0.252527(10)
Na2G Na 0.28037(5) -0.25800(5) -0.31628(5)
O3G O 0.27168(11) -0.14546(9) 0.19562(10)
N3G N 0.13829(12) -0.37740(12) 0.33034(11)
loop_
_geom_bond_atom_site_label_1
_geom_bond_atom_site_label_2
_geom_bond_site_symmetry_1
_geom_bond_site_symmetry_2
Ru1 Cl1 1_555 1_555
Ru2 Cl5 1_555 1_555
Fe1 C16 1_555 1_555
Fe2 C35 1_555 1_555
Cl2 Ru1 1_555 1_555
Cl3 Ru1 1_555 1_555
Cl4 Ru1 1_555 1_555
Cl6 Ru2 1_555 1_555
Cl7 Ru2 1_555 1_555
Cl8 Ru2 1_555 1_555
S1 Ru1 1_555 1_555
S2 Ru2 1_555 1_555
Na1 Cl4 1_555 1_555
Na2 Cl6 1_555 1_555
O1 S1 1_555 1_555
O2 Na2 1_555 1_555
O3 C15 1_555 1_555
O4 Na1 1_555 1_555
O5 S2 1_555 1_555
O6 Na1 1_555 1_555
N1 Ru1 1_555 1_555
N2 H1 1_555 1_555
N3 C28 1_555 1_555
N4 H2 1_555 1_555
C1 S1 1_555 1_555
H3 C1 1_555 1_555
H4 C1 1_555 1_555
H5 C1 1_555 1_555
C2 H6 1_555 1_555
H7 C2 1_555 1_555
H8 C2 1_555 1_555
C3 S1 1_555 1_555
H9 C3 1_555 1_555
H10 C3 1_555 1_555
H11 C3 1_555 1_555
C4 O2 1_555 1_555
C5 N1 1_555 1_555
H12 C5 1_555 1_555
C6 C4 1_555 1_555
H13 C6 1_555 1_555
H14 C6 1_555 1_555
H15 C6 1_555 1_555
C7 C5 1_555 1_555
H16 C7 1_555 1_555
C8 H17 1_555 1_555
H18 C8 1_555 1_555
H19 C8 1_555 1_555
C9 C7 1_555 1_555
C10 O4 1_555 1_555
C11 C9 1_555 1_555
H20 C11 1_555 1_555
C12 C10 1_555 1_555
H21 C12 1_555 1_555
H22 C12 1_555 1_555
H23 C12 1_555 1_555
C13 N1 1_555 1_555
H24 C13 1_555 1_555
C14 N2 1_555 1_555
H25 C14 1_555 1_555
H26 C14 1_555 1_555
C15 N2 1_555 1_555
C16 C15 1_555 1_555
C17 Fe1 1_555 1_555
H27 C17 1_555 1_555
C18 Fe1 1_555 1_555
H28 C18 1_555 1_555
C19 Fe1 1_555 1_555
H29 C19 1_555 1_555
C20 Fe1 1_555 1_555
H30 C20 1_555 1_555
C21 Fe1 1_555 1_555
H31 C21 1_555 1_555
C22 Fe1 1_555 1_555
H32 C22 1_555 1_555
C23 Fe1 1_555 1_555
H33 C23 1_555 1_555
C24 Fe1 1_555 1_555
H34 C24 1_555 1_555
C25 Fe1 1_555 1_555
H35 C25 1_555 1_555
C26 S2 1_555 1_555
H36 C26 1_555 1_555
H37 C26 1_555 1_555
H38 C26 1_555 1_555
C27 S2 1_555 1_555
H39 C27 1_555 1_555
H40 C27 1_555 1_555
H41 C27 1_555 1_555
C28 H42 1_555 1_555
C29 C28 1_555 1_555
H43 C29 1_555 1_555
C30 C29 1_555 1_555
C31 C30 1_555 1_555
H44 C31 1_555 1_555
C32 N3 1_555 1_555
H45 C32 1_555 1_555
C33 N4 1_555 1_555
H46 C33 1_555 1_555
H47 C33 1_555 1_555
C34 O6 1_555 1_555
C35 C34 1_555 1_555
C36 Fe2 1_555 1_555
H48 C36 1_555 1_555
C37 Fe2 1_555 1_555
H49 C37 1_555 1_555
C38 Fe2 1_555 1_555
H50 C38 1_555 1_555
C39 Fe2 1_555 1_555
H51 C39 1_555 1_555
C40 Fe2 1_555 1_555
H52 C40 1_555 1_555
C41 Fe2 1_555 1_555
H53 C41 1_555 1_555
C42 Fe2 1_555 1_555
H54 C42 1_555 1_555
C43 Fe2 1_555 1_555
H55 C43 1_555 1_555
C44 Fe2 1_555 1_555
H56 C44 1_555 1_555
Ru2G N3 1_555 1_555
Na2G O3 1_555 1_555
O3G Na2 1_555 1_555
N3G Ru2 1_555 1_555
Na1 O1 1_555 1_555
Na1 O5 1_555 1_555
Na2 O1 1_555 1_555
Na2 O5 1_555 1_555
N4 C34 1_555 1_555
C2 C4 1_555 1_555
C8 C10 1_555 1_555
C9 C14 1_555 1_555
C11 C13 1_555 1_555
C16 C17 1_555 1_555
C16 C20 1_555 1_555
C17 C18 1_555 1_555
C18 C19 1_555 1_555
C19 C20 1_555 1_555
C21 C22 1_555 1_555
C21 C25 1_555 1_555
C22 C23 1_555 1_555
C23 C24 1_555 1_555
C24 C25 1_555 1_555
C30 C33 1_555 1_555
C31 C32 1_555 1_555
C35 C36 1_555 1_555
C35 C39 1_555 1_555
C36 C37 1_555 1_555
C37 C38 1_555 1_555
C38 C39 1_555 1_555
C40 C41 1_555 1_555
C40 C44 1_555 1_555
C41 C42 1_555 1_555
C42 C43 1_555 1_555
C43 C44 1_555 1_555

#END
