
#######################################################################
#
#                 Cambridge Crystallographic Data Centre
#                                CCDC 
#
#######################################################################
#
# If this CIF has been generated from an entry in the Cambridge 
# Structural Database, then it will include bibliographic, chemical, 
# crystal, experimental, refinement or atomic coordinate data resulting 
# from the CCDC's data processing and validation procedures.
#
#######################################################################

data_ZUHREB
_symmetry_cell_setting           triclinic
_symmetry_space_group_name_H-M   'P -1'
_symmetry_Int_Tables_number      2
_space_group_name_Hall           '-P 1'
loop_
_symmetry_equiv_pos_site_id
_symmetry_equiv_pos_as_xyz
1 x,y,z
2 -x,-y,-z
_cell_length_a                   6.6133(15)
_cell_length_b                   7.6512(17)
_cell_length_c                   13.778(3)
_cell_angle_alpha                96.312(4)
_cell_angle_beta                 95.186(3)
_cell_angle_gamma                97.792(4)
_cell_volume                     682.602
loop_
_atom_site_label
_atom_site_type_symbol
_atom_site_fract_x
_atom_site_fract_y
_atom_site_fract_z
Sr1 Sr 0.78820(6) 0.64112(5) 0.09305(3)
Ni1 Ni 0.5000 0.5000 0.5000
O1 O 0.6173(4) 0.5407(4) 0.3697(2)
O2 O 0.5304(5) 0.5059(4) 0.2069(2)
O3 O 0.2217(5) 0.2004(4) 0.0750(2)
O4 O 0.0837(5) 0.4498(4) 0.0891(2)
O5 O 0.4061(5) 0.7496(4) 0.5056(2)
H1 H 0.461(7) 0.827(5) 0.550(3)
H2 H 0.407(8) 0.804(7) 0.457(3)
O6 O 0.6654(6) 0.9455(6) 0.1432(3)
H3 H 0.736(9) 1.043(4) 0.156(5)
H4 H 0.602(10) 0.945(10) 0.191(3)
O7 O 0.9442(6) 0.6964(7) 0.2766(3)
H5 H 0.873(9) 0.657(9) 0.317(4)
H6 H 1.040(8) 0.771(7) 0.303(5)
O8 O 0.5996(5) 0.3326(5) 0.0077(3)
H7 H 0.665(8) 0.263(6) -0.020(4)
H8 H 0.564(9) 0.271(7) 0.050(3)
O9 O 1.1431(5) 0.8551(4) 0.1065(2)
H9 H 1.172(8) 0.957(3) 0.094(4)
H10 H 1.199(8) 0.865(7) 0.1626(16)
N1 N 0.2490(5) 0.3902(4) 0.4022(2)
N2 N -0.0392(5) 0.2203(5) 0.2512(3)
C1 C -0.0698(6) 0.2153(6) 0.3448(3)
H11 H -0.1904 0.1513 0.3599
C2 C 0.0726(6) 0.3028(6) 0.4211(3)
H12 H 0.0439 0.3000 0.4858
C3 C 0.2840(6) 0.3963(5) 0.3079(3)
C4 C 0.1368(6) 0.3140(5) 0.2326(3)
C5 C 0.1502(6) 0.3227(6) 0.1237(3)
C6 C 0.4950(6) 0.4882(6) 0.2918(3)
Sr1A Sr 0.21180(6) 0.35888(5) -0.09305(3)
O1A O 0.3827(4) 0.4593(4) -0.3697(2)
O2A O 0.4696(5) 0.4941(4) -0.2069(2)
O3A O 0.7783(5) 0.7996(4) -0.0750(2)
O4A O 0.9163(5) 0.5502(4) -0.0891(2)
O6A O 0.3346(6) 0.0545(6) -0.1432(3)
H3A H 0.264(9) -0.043(4) -0.156(5)
H4A H 0.398(10) 0.055(10) -0.191(3)
O7A O 0.0558(6) 0.3036(7) -0.2766(3)
H5A H 0.127(9) 0.343(9) -0.317(4)
H6A H -0.040(8) 0.229(7) -0.303(5)
O8A O 0.4004(5) 0.6674(5) -0.0077(3)
H7A H 0.335(8) 0.737(6) 0.020(4)
H8A H 0.436(9) 0.729(7) -0.050(3)
O9A O -0.1431(5) 0.1449(4) -0.1065(2)
H9A H -0.172(8) 0.043(3) -0.094(4)
H10A H -0.199(8) 0.135(7) -0.1626(16)
N1A N 0.7510(5) 0.6098(4) -0.4022(2)
N2A N 1.0392(5) 0.7797(5) -0.2512(3)
C1A C 1.0698(6) 0.7847(6) -0.3448(3)
H11A H 1.1904 0.8487 -0.3599
C2A C 0.9274(6) 0.6972(6) -0.4211(3)
H12A H 0.9561 0.7000 -0.4858
C3A C 0.7160(6) 0.6037(5) -0.3079(3)
C4A C 0.8632(6) 0.6860(5) -0.2326(3)
C5A C 0.8498(6) 0.6773(6) -0.1237(3)
C6A C 0.5050(6) 0.5118(6) -0.2918(3)
O5A O 0.5939(5) 0.2504(4) 0.4944(2)
H1A H 0.539(7) 0.173(5) 0.450(3)
H2A H 0.593(8) 0.196(7) 0.543(3)
Sr1_2 Sr -0.21180(6) 0.64112(5) 0.09305(3)
Sr1A_2 Sr 1.21180(6) 0.35888(5) -0.09305(3)
Ni1_2 Ni 0.5000 0.5000 -0.5000
O1A_2 O 0.3827(4) 0.4593(4) 0.6303(2)
O4_2 O 1.0837(5) 0.4498(4) 0.0891(2)
O4A_2 O -0.0837(5) 0.5502(4) -0.0891(2)
N1A_2 N 0.7510(5) 0.6098(4) 0.5978(2)
Cl1 Cl 0.37858(19) 0.95509(16) 0.32572(8)
loop_
_geom_bond_atom_site_label_1
_geom_bond_atom_site_label_2
_geom_bond_site_symmetry_1
_geom_bond_site_symmetry_2
Sr1 O2 1_555 1_555
Ni1 O1 1_555 1_555
O1 C6 1_555 1_555
O2 C6 1_555 1_555
O3 C5 1_555 1_555
O4 C5 1_555 1_555
O5 Ni1 1_555 1_555
H1 O5 1_555 1_555
H2 O5 1_555 1_555
O6 Sr1 1_555 1_555
H3 O6 1_555 1_555
H4 O6 1_555 1_555
O7 Sr1 1_555 1_555
H5 O7 1_555 1_555
H6 O7 1_555 1_555
O8 Sr1 1_555 1_555
H7 O8 1_555 1_555
H8 O8 1_555 1_555
O9 Sr1 1_555 1_555
H9 O9 1_555 1_555
H10 O9 1_555 1_555
N1 Ni1 1_555 1_555
N2 C1 1_555 1_555
C1 H11 1_555 1_555
C2 N1 1_555 1_555
H12 C2 1_555 1_555
C3 N1 1_555 1_555
C4 N2 1_555 1_555
C5 C4 1_555 1_555
C6 C3 1_555 1_555
Sr1A O3 1_555 1_555
O1A C6A 1_555 1_555
O2A Sr1A 1_555 1_555
O3A Sr1 1_555 1_555
O4A Sr1 1_555 1_555
O6A Sr1A 1_555 1_555
H3A O6A 1_555 1_555
H4A O6A 1_555 1_555
O7A Sr1A 1_555 1_555
H5A O7A 1_555 1_555
H6A O7A 1_555 1_555
O8A Sr1 1_555 1_555
H7A O8A 1_555 1_555
H8A O8A 1_555 1_555
O9A Sr1A 1_555 1_555
H9A O9A 1_555 1_555
H10A O9A 1_555 1_555
N1A C2A 1_555 1_555
N2A C1A 1_555 1_555
C1A H11A 1_555 1_555
C2A C1A 1_555 1_555
H12A C2A 1_555 1_555
C3A N1A 1_555 1_555
C4A N2A 1_555 1_555
C5A O3A 1_555 1_555
C6A O2A 1_555 1_555
O5A Ni1 1_555 1_555
H1A O5A 1_555 1_555
H2A O5A 1_555 1_555
Sr1_2 O4 1_555 1_555
Sr1A_2 O4A 1_555 1_555
Ni1_2 O1A 1_555 1_555
O1A_2 Ni1 1_555 1_555
O4_2 Sr1 1_555 1_555
O4A_2 Sr1A 1_555 1_555
N1A_2 Ni1 1_555 1_555
O4 Sr1A 1_555 1_555
O8 Sr1A 1_555 1_555
C1 C2 1_555 1_555
C3 C4 1_555 1_555
Sr1A O8A 1_555 1_555
O4A C5A 1_555 1_555
N1A Ni1_2 1_555 1_555
C3A C4A 1_555 1_555
C3A C6A 1_555 1_555
C4A C5A 1_555 1_555
Sr1_2 O4A_2 1_555 1_555
Sr1A_2 O4_2 1_555 1_555

#END
