
#######################################################################
#
#                 Cambridge Crystallographic Data Centre
#                                CCDC 
#
#######################################################################
#
# If this CIF has been generated from an entry in the Cambridge 
# Structural Database, then it will include bibliographic, chemical, 
# crystal, experimental, refinement or atomic coordinate data resulting 
# from the CCDC's data processing and validation procedures.
#
#######################################################################

data_ZUHRUR
_symmetry_cell_setting           triclinic
_symmetry_space_group_name_H-M   'P -1'
_symmetry_Int_Tables_number      2
_space_group_name_Hall           '-P 1'
loop_
_symmetry_equiv_pos_site_id
_symmetry_equiv_pos_as_xyz
1 x,y,z
2 -x,-y,-z
_cell_length_a                   6.5961(5)
_cell_length_b                   7.7866(6)
_cell_length_c                   13.4353(11)
_cell_angle_alpha                83.4050(10)
_cell_angle_beta                 80.9610(10)
_cell_angle_gamma                81.5450(10)
_cell_volume                     671.097
loop_
_atom_site_label
_atom_site_type_symbol
_atom_site_fract_x
_atom_site_fract_y
_atom_site_fract_z
Sr1 Sr 0.26804(5) 0.61716(4) 0.39958(2)
Cu1 Cu 0.0000 0.5000 1.0000
C1 C 0.3360(5) 0.7285(5) 0.9227(3)
C2 C 0.4482(5) 0.8209(5) 0.8443(3)
C3 C 0.2789(5) 0.7273(4) 0.7298(2)
C4 C 0.1583(5) 0.6409(4) 0.8076(2)
C5 C -0.0150(5) 0.5432(4) 0.7937(2)
C6 C 0.2724(5) 0.7143(4) 0.6189(2)
Cl1 Cl 0.25874(14) 0.20453(13) 0.94707(8)
N1 N 0.1882(4) 0.6411(3) 0.90413(19)
N2 N 0.4208(4) 0.8218(4) 0.7485(2)
O1 O 0.5664(7) 0.8301(5) 0.3744(4)
H1 H 0.5903 0.8600 0.3187
H2 H 0.4919 0.9391 0.3842
O2 O 0.1602(4) 0.8282(3) 0.57119(18)
O3 O 0.3891(4) 0.5908(3) 0.58025(18)
O4 O -0.1201(4) 0.4865(3) 0.87538(17)
O5 O -0.0443(4) 0.5267(4) 0.70713(18)
O6 O 0.4257(4) 0.6257(4) 0.21601(19)
O7 O 0.0970(6) 0.9072(4) 0.3323(2)
O8 O 0.1451(4) 0.3299(4) 0.4966(2)
H3 H 0.356(6) 0.729(5) 0.991(3)
H4 H 0.548(3) 0.899(2) 0.8591(12)
H5 H 0.2340 0.2579 0.5371
H6 H 0.1032 0.2415 0.4696
H7 H 0.3436 0.6031 0.1818
H8 H 0.5112 0.6925 0.1687
H9 H 0.0021 0.9907 0.3633
H10 H 0.1340 0.9384 0.2767
Sr1A Sr -0.26804(5) 0.38284(4) 0.60042(2)
C1A C -0.3360(5) 0.2715(5) 0.0773(3)
C2A C -0.4482(5) 0.1791(5) 0.1557(3)
C3A C -0.2789(5) 0.2727(4) 0.2702(2)
C4A C -0.1583(5) 0.3591(4) 0.1924(2)
C5A C 0.0150(5) 0.4568(4) 0.2063(2)
C6A C -0.2724(5) 0.2857(4) 0.3811(2)
N1A N -0.1882(4) 0.3589(3) 0.09587(19)
N2A N -0.4208(4) 0.1782(4) 0.2515(2)
O1A O -0.5664(7) 0.1699(5) 0.6256(4)
H1A H -0.5903 0.1400 0.6813
H2A H -0.4919 0.0609 0.6158
O2A O -0.1602(4) 0.1718(3) 0.42881(18)
O3A O -0.3891(4) 0.4092(3) 0.41975(18)
O4A O 0.1201(4) 0.5135(3) 0.12462(17)
O5A O 0.0443(4) 0.4733(4) 0.29287(18)
O6A O -0.4257(4) 0.3743(4) 0.78399(19)
O7A O -0.0970(6) 0.0928(4) 0.6677(2)
O8A O -0.1451(4) 0.6701(4) 0.5034(2)
H3A H -0.356(6) 0.271(5) 0.009(3)
H4A H -0.548(3) 0.101(2) 0.1409(12)
H5A H -0.2340 0.7421 0.4629
H6A H -0.1032 0.7585 0.5304
H7A H -0.3436 0.3969 0.8182
H8A H -0.5112 0.3075 0.8313
H9A H -0.0021 0.0093 0.6367
H10A H -0.1340 0.0616 0.7233
Cl1A Cl -0.25874(14) 0.79547(13) 1.05293(8)
Sr1_2 Sr -0.73196(5) 0.61716(4) 0.39958(2)
Sr1A_2 Sr 0.73196(5) 0.38284(4) 0.60042(2)
Cu1_2 Cu 0.0000 0.5000 0.0000
N1A_2 N -0.1882(4) 0.3589(3) 1.09587(19)
O3_2 O -0.6109(4) 0.5908(3) 0.58025(18)
O3A_2 O 0.6109(4) 0.4092(3) 0.41975(18)
O4A_2 O 0.1201(4) 0.5135(3) 1.12462(17)
O9 O 0.0896(5) 0.9594(4) 0.1329(2)
H11 H 0.0009 0.9136 0.1043
H12 H 0.1329 1.0190 0.0822
loop_
_geom_bond_atom_site_label_1
_geom_bond_atom_site_label_2
_geom_bond_site_symmetry_1
_geom_bond_site_symmetry_2
Sr1 O1 1_555 1_555
Cu1 Cl1 1_555 1_555
C1 C2 1_555 1_555
C2 N2 1_555 1_555
C3 C4 1_555 1_555
C4 C5 1_555 1_555
C5 O4 1_555 1_555
C6 C3 1_555 1_555
N1 Cu1 1_555 1_555
N2 C3 1_555 1_555
O1 H1 1_555 1_555
H2 O1 1_555 1_555
O2 Sr1 1_555 1_555
O3 Sr1 1_555 1_555
O4 Cu1 1_555 1_555
O5 C5 1_555 1_555
O6 Sr1 1_555 1_555
O7 Sr1 1_555 1_555
O8 Sr1 1_555 1_555
H3 C1 1_555 1_555
H4 C2 1_555 1_555
H5 O8 1_555 1_555
H6 O8 1_555 1_555
H7 O6 1_555 1_555
H8 O6 1_555 1_555
H9 O7 1_555 1_555
H10 O7 1_555 1_555
O9 H11 1_555 1_555
H12 O9 1_555 1_555
Sr1A O5 1_555 1_555
C1A C2A 1_555 1_555
C2A N2A 1_555 1_555
C3A C4A 1_555 1_555
C4A C5A 1_555 1_555
C5A O4A 1_555 1_555
C6A C3A 1_555 1_555
N1A C1A 1_555 1_555
N2A C3A 1_555 1_555
O1A Sr1A 1_555 1_555
H1A O1A 1_555 1_555
H2A O1A 1_555 1_555
O2A Sr1A 1_555 1_555
O3A Sr1A 1_555 1_555
O4A Cu1_2 1_555 1_555
O5A Sr1 1_555 1_555
O6A Sr1A 1_555 1_555
O7A Sr1A 1_555 1_555
O8A Sr1 1_555 1_555
H3A C1A 1_555 1_555
H4A C2A 1_555 1_555
H5A O8A 1_555 1_555
H6A O8A 1_555 1_555
H7A O6A 1_555 1_555
H8A O6A 1_555 1_555
H9A O7A 1_555 1_555
H10A O7A 1_555 1_555
Cl1A Cu1 1_555 1_555
Sr1_2 O3A 1_555 1_555
Sr1A_2 O3 1_555 1_555
Cu1_2 N1A 1_555 1_555
N1A_2 Cu1 1_555 1_555
O3_2 Sr1A 1_555 1_555
O3A_2 Sr1 1_555 1_555
O4A_2 Cu1 1_555 1_555
C1 N1 1_555 1_555
C4 N1 1_555 1_555
C6 O2 1_555 1_555
C6 O3 1_555 1_555
O8 Sr1A 1_555 1_555
Sr1A O8A 1_555 1_555
C4A N1A 1_555 1_555
C5A O5A 1_555 1_555
C6A O2A 1_555 1_555
C6A O3A 1_555 1_555
Sr1_2 O3_2 1_555 1_555
Sr1A_2 O3A_2 1_555 1_555

#END
