
#######################################################################
#
#                 Cambridge Crystallographic Data Centre
#                                CCDC 
#
#######################################################################
#
# If this CIF has been generated from an entry in the Cambridge 
# Structural Database, then it will include bibliographic, chemical, 
# crystal, experimental, refinement or atomic coordinate data resulting 
# from the CCDC's data processing and validation procedures.
#
#######################################################################

data_ZUHRIF
_symmetry_cell_setting           triclinic
_symmetry_space_group_name_H-M   'P -1'
_symmetry_Int_Tables_number      2
_space_group_name_Hall           '-P 1'
loop_
_symmetry_equiv_pos_site_id
_symmetry_equiv_pos_as_xyz
1 x,y,z
2 -x,-y,-z
_cell_length_a                   6.6818(9)
_cell_length_b                   7.6135(10)
_cell_length_c                   14.034(2)
_cell_angle_alpha                96.685(2)
_cell_angle_beta                 95.671(2)
_cell_angle_gamma                95.868(2)
_cell_volume                     700.924
loop_
_atom_site_label
_atom_site_type_symbol
_atom_site_fract_x
_atom_site_fract_y
_atom_site_fract_z
Ba1 Ba 0.22079(5) 0.34525(4) 0.40478(2)
Ni1 Ni 0.5000 0.5000 0.0000
C1 C 0.5037(8) 0.5142(7) 0.2040(3)
C2 C 0.7126(8) 0.6011(6) 0.1888(3)
C3 C 0.8551(8) 0.6774(6) 0.2634(3)
C4 C 1.0608(9) 0.7693(8) 0.1528(4)
H1 H 1.1800 0.8295 0.1383
C5 C 0.9223(9) 0.6881(7) 0.0793(4)
H2 H 0.9505 0.6903 0.0158
C6 C 0.8400(8) 0.6714(7) 0.3700(3)
N1 N 0.7464(6) 0.6051(5) 0.0969(3)
N2 N 1.0306(7) 0.7652(6) 0.2460(3)
O1 O 0.3845(5) 0.4628(5) 0.1270(2)
O2 O 0.4682(6) 0.5017(5) 0.2867(2)
O3 O 0.7766(6) 0.8006(5) 0.4168(3)
O4 O 0.9017(6) 0.5428(5) 0.4052(3)
O5 O 0.4033(6) 0.7522(5) 0.0049(3)
H3 H 0.4437 0.8324 0.0521
H4 H 0.4137 0.7938 -0.0483
O6 O -0.1526(5) 0.1383(5) 0.3841(3)
H5 H -0.2101 0.1346 0.3269
H6 H -0.1544 0.0330 0.3988
O7 O 0.3924(5) 0.6867(5) 0.4914(3)
H7 H 0.4223 0.7449 0.4462
H8 H 0.3136 0.7384 0.5258
O8 O 0.3417(6) -0.0012(5) 0.3621(3)
H9 H 0.4209 0.0122 0.3190
H10 H 0.2599 -0.0803 0.3262
O9 O 0.0665(7) 0.2757(7) 0.2102(3)
H11 H -0.0416 0.2107 0.1776
H12 H 0.1502 0.3068 0.1765
Ba1A Ba 0.77921(5) 0.65475(4) -0.40478(2)
C1A C 0.4963(8) 0.4858(7) -0.2040(3)
C2A C 0.2874(8) 0.3989(6) -0.1888(3)
C3A C 0.1449(8) 0.3226(6) -0.2634(3)
C4A C -0.0608(9) 0.2307(8) -0.1528(4)
H1A H -0.1800 0.1705 -0.1383
C5A C 0.0777(9) 0.3119(7) -0.0793(4)
H2A H 0.0495 0.3097 -0.0158
C6A C 0.1600(8) 0.3286(7) -0.3700(3)
N1A N 0.2536(6) 0.3949(5) -0.0969(3)
N2A N -0.0306(7) 0.2348(6) -0.2460(3)
O1A O 0.6155(5) 0.5372(5) -0.1270(2)
O2A O 0.5318(6) 0.4983(5) -0.2867(2)
O3A O 0.2234(6) 0.1994(5) -0.4168(3)
O4A O 0.0983(6) 0.4572(5) -0.4052(3)
O5A O 0.5967(6) 0.2478(5) -0.0049(3)
H3A H 0.5563 0.1676 -0.0521
H4A H 0.5863 0.2062 0.0483
O6A O 1.1526(5) 0.8617(5) -0.3841(3)
H5A H 1.2101 0.8654 -0.3269
H6A H 1.1544 0.9670 -0.3988
O7A O 0.6076(5) 0.3133(5) -0.4914(3)
H7A H 0.5777 0.2551 -0.4462
H8A H 0.6864 0.2616 -0.5258
O8A O 0.6583(6) 1.0012(5) -0.3621(3)
H9A H 0.5791 0.9878 -0.3190
H10A H 0.7401 1.0803 -0.3262
O9A O 0.9335(7) 0.7243(7) -0.2102(3)
H11A H 1.0416 0.7893 -0.1776
H12A H 0.8498 0.6932 -0.1765
Ba1_2 Ba 0.22079(5) 0.34525(4) -0.59522(2)
Ba1_3 Ba 1.22079(5) 0.34525(4) 0.40478(2)
Ba1A_2 Ba -0.22079(5) 0.65475(4) -0.40478(2)
Ba1A_3 Ba 0.77921(5) 0.65475(4) 0.59522(2)
O3_2 O 0.7766(6) 0.8006(5) -0.5832(3)
O3A_2 O 0.2234(6) 0.1994(5) 0.5832(3)
O4_2 O -0.0983(6) 0.5428(5) 0.4052(3)
O4_3 O 0.9017(6) 0.5428(5) -0.5948(3)
O4A_2 O 0.0983(6) 0.4572(5) 0.5948(3)
O4A_3 O 1.0983(6) 0.4572(5) -0.4052(3)
O7_2 O 0.3924(5) 0.6867(5) -0.5086(3)
O7A_2 O 0.6076(5) 0.3133(5) 0.5086(3)
Cl1 Cl 0.6112(3) 0.0432(2) 0.17229(10)
loop_
_geom_bond_atom_site_label_1
_geom_bond_atom_site_label_2
_geom_bond_site_symmetry_1
_geom_bond_site_symmetry_2
Ba1 O2 1_555 1_555
Ni1 N1 1_555 1_555
C1 C2 1_555 1_555
C2 C3 1_555 1_555
C3 C6 1_555 1_555
C4 H1 1_555 1_555
C5 C4 1_555 1_555
H2 C5 1_555 1_555
C6 O3 1_555 1_555
N1 C2 1_555 1_555
N2 C3 1_555 1_555
O1 Ni1 1_555 1_555
O2 C1 1_555 1_555
O3 Ba1A_3 1_555 1_555
O4 C6 1_555 1_555
O5 Ni1 1_555 1_555
H3 O5 1_555 1_555
H4 O5 1_555 1_555
O6 Ba1 1_555 1_555
H5 O6 1_555 1_555
H6 O6 1_555 1_555
O7 Ba1 1_555 1_555
H7 O7 1_555 1_555
H8 O7 1_555 1_555
O8 Ba1 1_555 1_555
H9 O8 1_555 1_555
H10 O8 1_555 1_555
O9 Ba1 1_555 1_555
H11 O9 1_555 1_555
H12 O9 1_555 1_555
Ba1A O2A 1_555 1_555
C1A C2A 1_555 1_555
C2A C3A 1_555 1_555
C3A C6A 1_555 1_555
C4A H1A 1_555 1_555
C5A C4A 1_555 1_555
H2A C5A 1_555 1_555
C6A O3A 1_555 1_555
N1A Ni1 1_555 1_555
N2A C3A 1_555 1_555
O1A Ni1 1_555 1_555
O2A C1A 1_555 1_555
O3A Ba1_2 1_555 1_555
O4A C6A 1_555 1_555
O5A Ni1 1_555 1_555
H3A O5A 1_555 1_555
H4A O5A 1_555 1_555
O6A Ba1A 1_555 1_555
H5A O6A 1_555 1_555
H6A O6A 1_555 1_555
O7A Ba1A 1_555 1_555
H7A O7A 1_555 1_555
H8A O7A 1_555 1_555
O8A Ba1A 1_555 1_555
H9A O8A 1_555 1_555
H10A O8A 1_555 1_555
O9A Ba1A 1_555 1_555
H11A O9A 1_555 1_555
H12A O9A 1_555 1_555
Ba1_2 O4A 1_555 1_555
Ba1_3 O4 1_555 1_555
Ba1A_2 O4A 1_555 1_555
Ba1A_3 O4 1_555 1_555
O3_2 Ba1A 1_555 1_555
O3A_2 Ba1 1_555 1_555
O4_2 Ba1 1_555 1_555
O4_3 Ba1A 1_555 1_555
O4A_2 Ba1 1_555 1_555
O4A_3 Ba1A 1_555 1_555
O7_2 Ba1A 1_555 1_555
O7A_2 Ba1 1_555 1_555
C1 O1 1_555 1_555
C4 N2 1_555 1_555
C5 N1 1_555 1_555
O7 Ba1A_3 1_555 1_555
C1A O1A 1_555 1_555
C2A N1A 1_555 1_555
C4A N2A 1_555 1_555
C5A N1A 1_555 1_555
O7A Ba1_2 1_555 1_555
Ba1_2 O7_2 1_555 1_555
Ba1A_3 O7A_2 1_555 1_555

#END
