
#######################################################################
#
#                 Cambridge Crystallographic Data Centre
#                                CCDC 
#
#######################################################################
#
# If this CIF has been generated from an entry in the Cambridge 
# Structural Database, then it will include bibliographic, chemical, 
# crystal, experimental, refinement or atomic coordinate data resulting 
# from the CCDC's data processing and validation procedures.
#
#######################################################################

data_ZUHROL
_symmetry_cell_setting           triclinic
_symmetry_space_group_name_H-M   'P -1'
_symmetry_Int_Tables_number      2
_space_group_name_Hall           '-P 1'
loop_
_symmetry_equiv_pos_site_id
_symmetry_equiv_pos_as_xyz
1 x,y,z
2 -x,-y,-z
_cell_length_a                   7.7073(7)
_cell_length_b                   8.5422(8)
_cell_length_c                   10.0834(9)
_cell_angle_alpha                94.5500(10)
_cell_angle_beta                 105.3350(10)
_cell_angle_gamma                95.4270(10)
_cell_volume                     633.583
loop_
_atom_site_label
_atom_site_type_symbol
_atom_site_fract_x
_atom_site_fract_y
_atom_site_fract_z
Cu1 Cu 0.5000 0.0000 0.5000
Ca1 Ca 0.19151(7) 0.67017(6) -0.00552(5)
O1 O 0.4793(3) 0.0280(2) 0.30513(18)
O2 O 0.3721(3) 0.1868(2) 0.14421(19)
O3 O 0.0983(2) 0.4437(2) 0.12648(19)
O4 O 0.3735(3) 0.5665(3) 0.2125(2)
O5 O 0.7898(3) 0.1907(2) 0.5650(2)
H1 H 0.8179 0.1381 0.5003
H2 H 0.7866 0.2884 0.5553
O6 O 0.1902(3) 0.7333(2) -0.2503(2)
O7 O 0.0745(3) 0.9337(3) -0.3436(2)
O8 O 0.1014(3) 0.9083(3) -0.1267(2)
O9 O 0.0631(3) 0.8108(3) 0.1492(2)
H3 H 0.0427 0.9067 0.1554
H4 H 0.1055 0.8157 0.2365
O10 O 0.4803(3) 0.8267(2) 0.0675(2)
H5 H 0.5286 0.8394 0.0018
H6 H 0.4900 0.8978 0.1339
O11 O 0.2937(4) 0.4459(3) -0.1037(3)
H7 H 0.3935 0.4592 -0.1246
H8 H 0.2461 0.3625 -0.0802
N1 N 0.3584(3) 0.1839(2) 0.4901(2)
N2 N 0.2148(3) 0.4659(3) 0.4480(2)
N3 N 0.1224(3) 0.8588(3) -0.2426(2)
C1 C 0.4011(3) 0.1481(3) 0.2614(3)
C2 C 0.3394(3) 0.2446(3) 0.3680(2)
C3 C 0.2999(4) 0.2586(3) 0.5869(3)
H9 H 0.3072 0.2164 0.6702
C4 C 0.2273(4) 0.4008(3) 0.5641(3)
H10 H 0.1864 0.4515 0.6331
C5 C 0.2670(3) 0.3871(3) 0.3476(3)
C6 C 0.2464(4) 0.4692(3) 0.2174(3)
Ca1A Ca -0.19151(7) 0.32983(6) 0.00552(5)
O1A O -0.4793(3) 0.9720(2) -0.30513(18)
O2A O -0.3721(3) 0.8132(2) -0.14421(19)
O3A O -0.0983(2) 0.5563(2) -0.12648(19)
O4A O -0.3735(3) 0.4335(3) -0.2125(2)
O6A O -0.1902(3) 0.2667(2) 0.2503(2)
O7A O -0.0745(3) 0.0663(3) 0.3436(2)
O8A O -0.1014(3) 0.0917(3) 0.1267(2)
O9A O -0.0631(3) 0.1892(3) -0.1492(2)
H3A H -0.0427 0.0933 -0.1554
H4A H -0.1055 0.1843 -0.2365
O10A O -0.4803(3) 0.1733(2) -0.0675(2)
H5A H -0.5286 0.1606 -0.0018
H6A H -0.4900 0.1022 -0.1339
O11A O -0.2937(4) 0.5541(3) 0.1037(3)
H7A H -0.3935 0.5408 0.1246
H8A H -0.2461 0.6375 0.0802
N1A N -0.3584(3) 0.8161(2) -0.4901(2)
N2A N -0.2148(3) 0.5341(3) -0.4480(2)
N3A N -0.1224(3) 0.1412(3) 0.2426(2)
C1A C -0.4011(3) 0.8519(3) -0.2614(3)
C2A C -0.3394(3) 0.7554(3) -0.3680(2)
C3A C -0.2999(4) 0.7414(3) -0.5869(3)
H9A H -0.3072 0.7836 -0.6702
C4A C -0.2273(4) 0.5992(3) -0.5641(3)
H10A H -0.1864 0.5485 -0.6331
C5A C -0.2670(3) 0.6129(3) -0.3476(3)
C6A C -0.2464(4) 0.5308(3) -0.2174(3)
O5A O 0.2102(3) -0.1907(2) 0.4350(2)
H1A H 0.1821 -0.1381 0.4997
H2A H 0.2134 -0.2884 0.4447
Cu1_2 Cu -0.5000 1.0000 -0.5000
O1A_2 O 0.5207(3) -0.0280(2) 0.69487(18)
N1A_2 N 0.6416(3) -0.1839(2) 0.5099(2)
loop_
_geom_bond_atom_site_label_1
_geom_bond_atom_site_label_2
_geom_bond_site_symmetry_1
_geom_bond_site_symmetry_2
Cu1 O1 1_555 1_555
Ca1 O3 1_555 1_555
O1 C1 1_555 1_555
O2 C1 1_555 1_555
O3 C6 1_555 1_555
O4 Ca1 1_555 1_555
O5 Cu1 1_555 1_555
H1 O5 1_555 1_555
H2 O5 1_555 1_555
O6 Ca1 1_555 1_555
O7 N3 1_555 1_555
O8 Ca1 1_555 1_555
O9 Ca1 1_555 1_555
H3 O9 1_555 1_555
H4 O9 1_555 1_555
O10 Ca1 1_555 1_555
H5 O10 1_555 1_555
H6 O10 1_555 1_555
O11 Ca1 1_555 1_555
H7 O11 1_555 1_555
H8 O11 1_555 1_555
N1 Cu1 1_555 1_555
N2 C4 1_555 1_555
N3 O6 1_555 1_555
C1 C2 1_555 1_555
C2 N1 1_555 1_555
C3 N1 1_555 1_555
H9 C3 1_555 1_555
C4 C3 1_555 1_555
H10 C4 1_555 1_555
C5 N2 1_555 1_555
C6 O4 1_555 1_555
Ca1A O3 1_555 1_555
O1A C1A 1_555 1_555
O2A C1A 1_555 1_555
O3A Ca1 1_555 1_555
O4A Ca1A 1_555 1_555
O6A Ca1A 1_555 1_555
O7A N3A 1_555 1_555
O8A Ca1A 1_555 1_555
O9A Ca1A 1_555 1_555
H3A O9A 1_555 1_555
H4A O9A 1_555 1_555
O10A Ca1A 1_555 1_555
H5A O10A 1_555 1_555
H6A O10A 1_555 1_555
O11A Ca1A 1_555 1_555
H7A O11A 1_555 1_555
H8A O11A 1_555 1_555
N1A C2A 1_555 1_555
N2A C4A 1_555 1_555
N3A O6A 1_555 1_555
C1A C2A 1_555 1_555
C2A C5A 1_555 1_555
C3A N1A 1_555 1_555
H9A C3A 1_555 1_555
C4A C3A 1_555 1_555
H10A C4A 1_555 1_555
C5A N2A 1_555 1_555
C6A O3A 1_555 1_555
O5A Cu1 1_555 1_555
H1A O5A 1_555 1_555
H2A O5A 1_555 1_555
Cu1_2 O1A 1_555 1_555
O1A_2 Cu1 1_555 1_555
N1A_2 Cu1 1_555 1_555
O8 N3 1_555 1_555
C2 C5 1_555 1_555
C5 C6 1_555 1_555
Ca1A O3A 1_555 1_555
O4A C6A 1_555 1_555
O8A N3A 1_555 1_555
N1A Cu1_2 1_555 1_555
C5A C6A 1_555 1_555

#END
