
#######################################################################
#
#                 Cambridge Crystallographic Data Centre
#                                CCDC 
#
#######################################################################
#
# If this CIF has been generated from an entry in the Cambridge 
# Structural Database, then it will include bibliographic, chemical, 
# crystal, experimental, refinement or atomic coordinate data resulting 
# from the CCDC's data processing and validation procedures.
#
#######################################################################

data_ZUHSEC
_symmetry_cell_setting           monoclinic
_symmetry_space_group_name_H-M   'C 2/c'
_symmetry_Int_Tables_number      15
_space_group_name_Hall           '-C 2yn'
loop_
_symmetry_equiv_pos_site_id
_symmetry_equiv_pos_as_xyz
1 x,y,z
2 -x,y,1/2-z
3 1/2+x,1/2+y,z
4 1/2-x,1/2+y,1/2-z
5 -x,-y,-z
6 x,-y,1/2+z
7 1/2-x,1/2-y,-z
8 1/2+x,1/2-y,1/2+z
_cell_length_a                   18.685(8)
_cell_length_b                   11.722(5)
_cell_length_c                   9.244(4)
_cell_angle_alpha                90
_cell_angle_beta                 91.771(6)
_cell_angle_gamma                90
_cell_volume                     2023.71
loop_
_atom_site_label
_atom_site_type_symbol
_atom_site_fract_x
_atom_site_fract_y
_atom_site_fract_z
Ba1 Ba 0.47790(3) 0.69163(5) 0.50773(6)
Cu1 Cu 0.7500 0.7500 0.5000
O1 O 0.3262(4) 0.7837(8) 0.5107(10)
O2 O 0.5000 0.8800(7) 0.7500
O3 O 0.5737(4) 0.6639(8) 0.2814(8)
C1 C 0.6340(6) 0.6706(9) 0.3423(10)
C2 C 0.6851(5) 0.4943(9) 0.2171(11)
O4 O 0.6495(4) 0.7437(6) 0.4415(7)
N1 N 0.7582(5) 0.6239(8) 0.3553(10)
C3 C 0.6928(5) 0.5920(9) 0.3002(11)
N2 N 0.7443(5) 0.4296(8) 0.1847(11)
C4 C 0.8092(7) 0.4657(11) 0.2346(16)
H1 H 0.8504 0.4277 0.2076
C5 C 0.6135(5) 0.4501(8) 0.1644(11)
O5 O 0.5876(4) 0.4897(7) 0.0429(8)
O6 O 0.5844(5) 0.3756(8) 0.2366(8)
Cl1 Cl 0.5000 0.9098(9) 0.2500
H2 H 0.3342 0.7607 0.4201
H3 H 0.3581 0.8149 0.5597
H4 H 0.5231 0.8990 0.8279
C6 C 0.8144(6) 0.5611(11) 0.3278(14)
H5 H 0.8586 0.5798 0.3706
H4A H 0.4769 0.8990 0.6721
Ba1A Ba 0.52210(3) 0.69163(5) -0.00773(6)
O1A O 0.6738(4) 0.7837(8) -0.0107(10)
O3A O 0.4263(4) 0.6639(8) 0.2186(8)
C1A C 0.3660(6) 0.6706(9) 0.1577(10)
C2A C 0.3149(5) 0.4943(9) 0.2829(11)
O4A O 0.3505(4) 0.7437(6) 0.0585(7)
N1A N 0.2418(5) 0.6239(8) 0.1447(10)
C3A C 0.3072(5) 0.5920(9) 0.1998(11)
N2A N 0.2557(5) 0.4296(8) 0.3153(11)
C4A C 0.1908(7) 0.4657(11) 0.2654(16)
H1A H 0.1496 0.4277 0.2924
C5A C 0.3865(5) 0.4501(8) 0.3356(11)
O5A O 0.4124(4) 0.4897(7) 0.4571(8)
O6A O 0.4156(5) 0.3756(8) 0.2634(8)
H2A H 0.6658 0.7607 0.0799
H3A H 0.6419 0.8149 -0.0597
C6A C 0.1856(6) 0.5611(11) 0.1722(14)
H5A H 0.1414 0.5798 0.1294
Ba1A_2 Ba 0.52210(3) 0.69163(5) 0.99227(6)
Ba1D Ba 0.52210(3) 0.30837(5) 0.49227(6)
Ba1E Ba 0.47790(3) 0.30837(5) 0.00773(6)
Cu1A Cu 0.2500 0.7500 0.0000
Cu1B Cu 0.2500 0.2500 0.5000
Cu1C Cu 0.7500 0.2500 0.0000
O2_2 O 0.5000 0.8800(7) -0.2500
O4F O 0.8505(4) 0.7563(6) 0.5585(7)
N1F N 0.7418(5) 0.8761(8) 0.6447(10)
N2C N 0.7557(5) 0.9296(8) 0.3153(11)
N2E N 0.7443(5) 0.5704(8) 0.6847(11)
O5D O 0.4124(4) 0.5103(7) -0.0429(8)
O5E O 0.5876(4) 0.5103(7) 0.5429(8)
O6D O 0.4156(5) 0.6244(8) -0.2366(8)
O6D_2 O 0.4156(5) 0.6244(8) 0.7634(8)
O6E O 0.5844(5) 0.6244(8) -0.2634(8)
O6E_2 O 0.5844(5) 0.6244(8) 0.7366(8)
loop_
_geom_bond_atom_site_label_1
_geom_bond_atom_site_label_2
_geom_bond_site_symmetry_1
_geom_bond_site_symmetry_2
Ba1 O1 1_555 1_555
Cu1 O4 1_555 1_555
O1 H2 1_555 1_555
O2 Ba1 1_555 1_555
O3 Ba1 1_555 1_555
C1 O3 1_555 1_555
C2 C3 1_555 1_555
O4 C1 1_555 1_555
N1 Cu1 1_555 1_555
C3 C1 1_555 1_555
N2 C2 1_555 1_555
C4 N2 1_555 1_555
H1 C4 1_555 1_555
C5 C2 1_555 1_555
O5 C5 1_555 1_555
O6 C5 1_555 1_555
Cl1 Ba1 1_555 1_555
H3 O1 1_555 1_555
H4 O2 1_555 1_555
C6 N1 1_555 1_555
H5 C6 1_555 1_555
H4A O2 1_555 1_555
Ba1A O3 1_555 1_555
O1A Ba1A 1_555 1_555
O3A Ba1 1_555 1_555
C1A O3A 1_555 1_555
C2A C3A 1_555 1_555
O4A C1A 1_555 1_555
N1A C3A 1_555 1_555
C3A C1A 1_555 1_555
N2A C2A 1_555 1_555
C4A N2A 1_555 1_555
H1A C4A 1_555 1_555
C5A C2A 1_555 1_555
O5A Ba1 1_555 1_555
O6A C5A 1_555 1_555
H2A O1A 1_555 1_555
H3A O1A 1_555 1_555
C6A N1A 1_555 1_555
H5A C6A 1_555 1_555
Ba1A_2 O2 1_555 1_555
Ba1D O6 1_555 1_555
Ba1E O5 1_555 1_555
Cu1A O4A 1_555 1_555
Cu1B N2A 1_555 1_555
Cu1C N2 1_555 1_555
O2_2 Ba1A 1_555 1_555
O4F Cu1 1_555 1_555
N1F Cu1 1_555 1_555
N2C Cu1 1_555 1_555
N2E Cu1 1_555 1_555
O5D Ba1A 1_555 1_555
O5E Ba1 1_555 1_555
O6D Ba1A 1_555 1_555
O6D_2 Ba1 1_555 1_555
O6E Ba1A 1_555 1_555
O6E_2 Ba1 1_555 1_555
N1 C3 1_555 1_555
C4 C6 1_555 1_555
O5 Ba1A 1_555 1_555
O6 Ba1E 1_555 1_555
Cl1 Ba1A 1_555 1_555
Ba1A O3A 1_555 1_555
N1A Cu1A 1_555 1_555
C4A C6A 1_555 1_555
C5A O5A 1_555 1_555
O5A Ba1D 1_555 1_555
O6A Ba1D 1_555 1_555
O6A Ba1E 1_555 1_555
Ba1A_2 O6D_2 1_555 1_555
Ba1A_2 O6E_2 1_555 1_555
Ba1D O5E 1_555 1_555
Ba1E O5D 1_555 1_555

#END
