
#######################################################################
#
#                 Cambridge Crystallographic Data Centre
#                                CCDC 
#
#######################################################################
#
# If this CIF has been generated from an entry in the Cambridge 
# Structural Database, then it will include bibliographic, chemical, 
# crystal, experimental, refinement or atomic coordinate data resulting 
# from the CCDC's data processing and validation procedures.
#
#######################################################################

data_ZUHSAY
_symmetry_cell_setting           monoclinic
_symmetry_space_group_name_H-M   'P 21/n'
_symmetry_Int_Tables_number      14
_space_group_name_Hall           '-P 2yn'
loop_
_symmetry_equiv_pos_site_id
_symmetry_equiv_pos_as_xyz
1 x,y,z
2 1/2-x,1/2+y,1/2-z
3 -x,-y,-z
4 1/2+x,1/2-y,1/2+z
_cell_length_a                   14.3621(13)
_cell_length_b                   6.9800(6)
_cell_length_c                   15.7788(15)
_cell_angle_alpha                90
_cell_angle_beta                 114.1210(10)
_cell_angle_gamma                90
_cell_volume                     1443.67
loop_
_atom_site_label
_atom_site_type_symbol
_atom_site_fract_x
_atom_site_fract_y
_atom_site_fract_z
Sr1 Sr 0.53011(2) 0.40039(4) 0.14318(2)
Cu1 Cu 0.0000 0.5000 0.0000
O1 O 0.08552(18) 0.3399(3) -0.03887(18)
O2 O 0.2172(2) 0.3608(4) -0.07760(19)
O3 O 0.31239(19) 0.7518(4) -0.12333(16)
O4 O 0.41175(17) 0.5995(3) 0.00575(17)
O5 O 0.3417(2) 0.3619(4) 0.1517(2)
O6 O 0.4409(2) 0.5715(5) 0.2418(2)
O7 O 0.2857(2) 0.5575(5) 0.2261(2)
O8 O 0.6150(2) 0.7443(4) 0.1636(2)
H1 H 0.6769(8) 0.755(6) 0.194(3)
H2 H 0.580(2) 0.820(6) 0.179(3)
O9 O 0.6785(2) 0.4380(4) 0.30399(18)
H3 H 0.686(4) 0.366(5) 0.347(2)
H4 H 0.713(3) 0.537(4) 0.318(3)
O10 O 0.5349(3) 0.0775(4) 0.2299(2)
H5 H 0.586(2) 0.083(7) 0.278(2)
H6 H 0.4894(19) 0.007(3) 0.229(3)
O11 O 0.43681(19) 0.1338(4) 0.02181(17)
H7 H 0.395(2) 0.075(5) 0.035(2)
H8 H 0.415(3) 0.183(6) -0.0297(15)
O12 O 0.0832(2) 0.4147(4) 0.1718(2)
H9 H 0.1396(18) 0.465(6) 0.192(3)
H10 H 0.082(3) 0.302(2) 0.185(3)
N1 N 0.1102(2) 0.6906(4) 0.02490(18)
N2 N 0.2730(2) 0.9163(4) 0.0396(2)
N3 N 0.3547(2) 0.4966(5) 0.2063(2)
C1 C 0.3333(2) 0.6901(5) -0.0425(2)
C2 C 0.2586(2) 0.7427(5) -0.0002(2)
C3 C 0.1789(2) 0.6276(4) -0.0058(2)
C4 C 0.1611(2) 0.4260(5) -0.0443(2)
C5 C 0.2065(3) 0.9738(5) 0.0728(2)
H11 H 0.2165 1.0914 0.1030
C6 C 0.1230(3) 0.8645(5) 0.0640(2)
H12 H 0.0757 0.9115 0.0850
Sr1B Sr -0.53011(2) 0.59961(4) -0.14318(2)
O1B O -0.08552(18) 0.6601(3) 0.03887(18)
O2B O -0.2172(2) 0.6392(4) 0.07760(19)
O3B O -0.31239(19) 0.2482(4) 0.12333(16)
O4B O -0.41175(17) 0.4005(3) -0.00575(17)
O5B O -0.3417(2) 0.6381(4) -0.1517(2)
O6B O -0.4409(2) 0.4285(5) -0.2418(2)
O7B O -0.2857(2) 0.4425(5) -0.2261(2)
O8B O -0.6150(2) 0.2557(4) -0.1636(2)
H1B H -0.6769(8) 0.245(6) -0.194(3)
H2B H -0.580(2) 0.180(6) -0.179(3)
O9B O -0.6785(2) 0.5620(4) -0.30399(18)
H3B H -0.686(4) 0.634(5) -0.347(2)
H4B H -0.713(3) 0.463(4) -0.318(3)
O10B O -0.5349(3) 0.9225(4) -0.2299(2)
H5B H -0.586(2) 0.917(7) -0.278(2)
H6B H -0.4894(19) 0.993(3) -0.229(3)
O11B O -0.43681(19) 0.8662(4) -0.02181(17)
H7B H -0.395(2) 0.925(5) -0.035(2)
H8B H -0.415(3) 0.817(6) 0.0297(15)
O12B O -0.0832(2) 0.5853(4) -0.1718(2)
H9B H -0.1396(18) 0.535(6) -0.192(3)
H10B H -0.082(3) 0.698(2) -0.185(3)
N1B N -0.1102(2) 0.3094(4) -0.02490(18)
N2B N -0.2730(2) 0.0837(4) -0.0396(2)
N3B N -0.3547(2) 0.5034(5) -0.2063(2)
C1B C -0.3333(2) 0.3099(5) 0.0425(2)
C2B C -0.2586(2) 0.2573(5) 0.0002(2)
C3B C -0.1789(2) 0.3724(4) 0.0058(2)
C4B C -0.1611(2) 0.5740(5) 0.0443(2)
C5B C -0.2065(3) 0.0262(5) -0.0728(2)
H11B H -0.2165 -0.0914 -0.1030
C6B C -0.1230(3) 0.1355(5) -0.0640(2)
H12B H -0.0757 0.0885 -0.0850
Sr1_2 Sr -0.46989(2) 0.40039(4) 0.14318(2)
Sr1B_2 Sr 0.46989(2) 0.59961(4) -0.14318(2)
O3_2 O -0.68761(19) 0.7518(4) -0.12333(16)
O3B_2 O 0.68761(19) 0.2482(4) 0.12333(16)
O4_2 O -0.58825(17) 0.5995(3) 0.00575(17)
O4B_2 O 0.58825(17) 0.4005(3) -0.00575(17)
loop_
_geom_bond_atom_site_label_1
_geom_bond_atom_site_label_2
_geom_bond_site_symmetry_1
_geom_bond_site_symmetry_2
Sr1 O4 1_555 1_555
Cu1 O1 1_555 1_555
O1 C4 1_555 1_555
O2 C4 1_555 1_555
O3 C1 1_555 1_555
O4 C1 1_555 1_555
O5 Sr1 1_555 1_555
O6 Sr1 1_555 1_555
O7 N3 1_555 1_555
O8 Sr1 1_555 1_555
H1 O8 1_555 1_555
H2 O8 1_555 1_555
O9 Sr1 1_555 1_555
H3 O9 1_555 1_555
H4 O9 1_555 1_555
O10 Sr1 1_555 1_555
H5 O10 1_555 1_555
H6 O10 1_555 1_555
O11 Sr1 1_555 1_555
H7 O11 1_555 1_555
H8 O11 1_555 1_555
O12 Cu1 1_555 1_555
H9 O12 1_555 1_555
H10 O12 1_555 1_555
N1 Cu1 1_555 1_555
N2 C2 1_555 1_555
N3 O5 1_555 1_555
C1 C2 1_555 1_555
C2 C3 1_555 1_555
C3 N1 1_555 1_555
C4 C3 1_555 1_555
C5 N2 1_555 1_555
H11 C5 1_555 1_555
C6 N1 1_555 1_555
H12 C6 1_555 1_555
Sr1B O4B 1_555 1_555
O1B Cu1 1_555 1_555
O2B C4B 1_555 1_555
O3B C1B 1_555 1_555
O4B C1B 1_555 1_555
O5B Sr1B 1_555 1_555
O6B Sr1B 1_555 1_555
O7B N3B 1_555 1_555
O8B Sr1B 1_555 1_555
H1B O8B 1_555 1_555
H2B O8B 1_555 1_555
O9B Sr1B 1_555 1_555
H3B O9B 1_555 1_555
H4B O9B 1_555 1_555
O10B Sr1B 1_555 1_555
H5B O10B 1_555 1_555
H6B O10B 1_555 1_555
O11B Sr1B 1_555 1_555
H7B O11B 1_555 1_555
H8B O11B 1_555 1_555
O12B Cu1 1_555 1_555
H9B O12B 1_555 1_555
H10B O12B 1_555 1_555
N1B Cu1 1_555 1_555
N2B C2B 1_555 1_555
N3B O5B 1_555 1_555
C1B C2B 1_555 1_555
C2B C3B 1_555 1_555
C3B N1B 1_555 1_555
C4B O1B 1_555 1_555
C5B N2B 1_555 1_555
H11B C5B 1_555 1_555
C6B N1B 1_555 1_555
H12B C6B 1_555 1_555
Sr1_2 O3B 1_555 1_555
Sr1B_2 O3 1_555 1_555
O3_2 Sr1B 1_555 1_555
O3B_2 Sr1 1_555 1_555
O4_2 Sr1B 1_555 1_555
O4B_2 Sr1 1_555 1_555
O4 Sr1B_2 1_555 1_555
O6 N3 1_555 1_555
C5 C6 1_555 1_555
O4B Sr1_2 1_555 1_555
O6B N3B 1_555 1_555
C3B C4B 1_555 1_555
C5B C6B 1_555 1_555
Sr1_2 O4_2 1_555 1_555
Sr1B_2 O4B_2 1_555 1_555

#END
