
#######################################################################
#
#                 Cambridge Crystallographic Data Centre
#                                CCDC 
#
#######################################################################
#
# If this CIF has been generated from an entry in the Cambridge 
# Structural Database, then it will include bibliographic, chemical, 
# crystal, experimental, refinement or atomic coordinate data resulting 
# from the CCDC's data processing and validation procedures.
#
#######################################################################

data_ZUJBAJ
_symmetry_cell_setting           monoclinic
_symmetry_space_group_name_H-M   'C c'
_symmetry_Int_Tables_number      9
_space_group_name_Hall           'C -2yc'
loop_
_symmetry_equiv_pos_site_id
_symmetry_equiv_pos_as_xyz
1 x,y,z
2 x,-y,1/2+z
3 1/2+x,1/2+y,z
4 1/2+x,1/2-y,1/2+z
_cell_length_a                   8.4810(5)
_cell_length_b                   21.8202(12)
_cell_length_c                   8.5851(3)
_cell_angle_alpha                90
_cell_angle_beta                 104.740(4)
_cell_angle_gamma                90
_cell_volume                     1536.45
loop_
_atom_site_label
_atom_site_type_symbol
_atom_site_fract_x
_atom_site_fract_y
_atom_site_fract_z
Hg1 Hg 0.00021(11) 0.06978(3) 0.00046(11)
S1 S -0.1342(5) -0.0027(2) -0.1965(4)
C1 C -0.2630(17) 0.0427(8) -0.3432(17)
C2 C -0.3905(18) 0.0242(8) -0.4587(17)
H1 H -0.4496 0.0532 -0.5295
C3 C -0.4427(17) -0.0420(7) -0.4790(18)
O1 O -0.386(2) -0.0853(7) -0.396(2)
C4 C -0.579(2) -0.0551(10) -0.6333(19)
S2 S -0.2055(6) 0.1204(2) -0.3318(6)
C5 C -0.351(3) 0.1595(9) -0.496(2)
H2 H -0.3552 0.1391 -0.5960
H3 H -0.3178 0.2012 -0.5024
H4 H -0.4577 0.1587 -0.4759
C6 C -0.6757(18) -0.0103(8) -0.7260(17)
H5 H -0.6626 0.0302 -0.6905
C7 C -0.600(2) -0.1143(10) -0.679(2)
H6 H -0.5353 -0.1449 -0.6201
C8 C -0.807(2) -0.0798(8) -0.908(2)
H7 H -0.8808 -0.0882 -1.0059
C9 C -0.725(3) -0.1288(9) -0.820(2)
H8 H -0.7507 -0.1692 -0.8509
C10 C 0.081(2) 0.1431(9) 0.1532(18)
C11 C 0.237(2) 0.1692(9) 0.181(2)
H9 H 0.3110 0.1525 0.1295
C12 C 0.284(3) 0.2189(11) 0.283(3)
H10 H 0.3891 0.2345 0.3006
C13 C 0.177(3) 0.2445(10) 0.355(2)
H11 H 0.2086 0.2784 0.4212
C14 C 0.024(3) 0.2217(11) 0.333(2)
H12 H -0.0490 0.2391 0.3853
C15 C -0.023(2) 0.1712(8) 0.229(2)
H13 H -0.1287 0.1564 0.2119
N1 N -0.7850(16) -0.0222(9) -0.8616(17)
Hg1_2 Hg -0.99979(11) 0.06978(3) -0.99954(11)
N1_2 N 0.2150(16) -0.0222(9) 0.1384(17)
loop_
_geom_bond_atom_site_label_1
_geom_bond_atom_site_label_2
_geom_bond_site_symmetry_1
_geom_bond_site_symmetry_2
Hg1 S1 1_555 1_555
S1 C1 1_555 1_555
C1 C2 1_555 1_555
C2 H1 1_555 1_555
C3 C2 1_555 1_555
O1 C3 1_555 1_555
C4 C3 1_555 1_555
S2 Hg1 1_555 1_555
C5 S2 1_555 1_555
H2 C5 1_555 1_555
H3 C5 1_555 1_555
H4 C5 1_555 1_555
C6 C4 1_555 1_555
H5 C6 1_555 1_555
C7 C4 1_555 1_555
H6 C7 1_555 1_555
C8 H7 1_555 1_555
C9 C7 1_555 1_555
H8 C9 1_555 1_555
C10 Hg1 1_555 1_555
C11 C10 1_555 1_555
H9 C11 1_555 1_555
C12 C11 1_555 1_555
H10 C12 1_555 1_555
C13 C12 1_555 1_555
H11 C13 1_555 1_555
C14 C13 1_555 1_555
H12 C14 1_555 1_555
C15 C10 1_555 1_555
H13 C15 1_555 1_555
N1 C6 1_555 1_555
Hg1_2 N1 1_555 1_555
N1_2 Hg1 1_555 1_555
C1 S2 1_555 1_555
C8 C9 1_555 1_555
C8 N1 1_555 1_555
C14 C15 1_555 1_555

#END
