
#######################################################################
#
#                 Cambridge Crystallographic Data Centre
#                                CCDC 
#
#######################################################################
#
# If this CIF has been generated from an entry in the Cambridge 
# Structural Database, then it will include bibliographic, chemical, 
# crystal, experimental, refinement or atomic coordinate data resulting 
# from the CCDC's data processing and validation procedures.
#
#######################################################################

data_ZUJFER
_symmetry_cell_setting           triclinic
_symmetry_space_group_name_H-M   'P -1'
_symmetry_Int_Tables_number      2
_space_group_name_Hall           '-P 1'
loop_
_symmetry_equiv_pos_site_id
_symmetry_equiv_pos_as_xyz
1 x,y,z
2 -x,-y,-z
_cell_length_a                   6.6762(9)
_cell_length_b                   7.9864(11)
_cell_length_c                   13.7450(19)
_cell_angle_alpha                78.535(2)
_cell_angle_beta                 84.941(2)
_cell_angle_gamma                76.907(2)
_cell_volume                     698.857
loop_
_atom_site_label
_atom_site_type_symbol
_atom_site_fract_x
_atom_site_fract_y
_atom_site_fract_z
Co1 Co 0.5000 0.5000 0.0000
Ca1 Ca 0.35636(14) 0.16033(12) 0.59027(7)
O1 O 0.6143(5) 0.5055(5) 0.1339(3)
O2 O 0.5800(6) 0.4157(5) 0.2975(3)
O3 O 0.4037(5) 0.1053(4) 0.4176(3)
O4 O 0.1890(6) 0.3544(5) 0.4306(3)
O5 O 0.3003(6) 0.7461(5) 0.0016(3)
H1 H 0.3588 0.8228 -0.0206
O6 O 0.3024(6) 0.0211(5) 0.7683(3)
O7 O 0.6369(7) 0.3082(6) 0.5231(4)
O8 O 0.0549(6) 0.0494(6) 0.5932(3)
O9 O 0.1615(6) 0.4077(5) 0.6505(3)
O10 O 0.5506(6) 0.1562(5) 0.7371(3)
O11 O 0.4860(7) 0.0339(5) 0.8890(3)
N1 N 0.3003(6) 0.3747(5) 0.1006(3)
N2 N 0.0868(6) 0.1989(5) 0.2540(3)
N3 N 0.4455(7) 0.0699(5) 0.8004(3)
C1 C 0.2414(7) 0.2696(6) 0.2727(4)
C2 C 0.3501(7) 0.3573(6) 0.1957(4)
C3 C 0.1458(8) 0.3076(7) 0.0827(4)
H2 H 0.1087 0.3202 0.0176
C4 C 0.0390(8) 0.2193(7) 0.1589(4)
H3 H -0.0682 0.1731 0.1441
C5 C 0.5307(8) 0.4328(6) 0.2108(4)
C6 C 0.2839(7) 0.2445(6) 0.3810(4)
H4 H 0.2272 0.7542 0.0627
H5 H 0.2352 0.4689 0.6679
H6 H 0.0439 0.4618 0.6316
H7 H 0.0206 -0.0227 0.6430
H8 H -0.0691 0.1116 0.5620
H9 H 0.6535 0.3492 0.4605
H10 H 0.6908 0.3696 0.5569
Ca1A Ca 0.64364(14) -0.16033(12) 0.40973(7)
O1A O 0.3857(5) -0.5055(5) 0.8661(3)
O2A O 0.4200(6) -0.4157(5) 0.7025(3)
O3A O 0.5963(5) -0.1053(4) 0.5824(3)
O4A O 0.8110(6) -0.3544(5) 0.5694(3)
O6A O 0.6976(6) -0.0211(5) 0.2317(3)
O7A O 0.3631(7) -0.3082(6) 0.4769(4)
O8A O 0.9451(6) -0.0494(6) 0.4068(3)
O9A O 0.8385(6) -0.4077(5) 0.3495(3)
O10A O 0.4494(6) -0.1562(5) 0.2629(3)
O11A O 0.5140(7) -0.0339(5) 0.1110(3)
N1A N 0.6997(6) -0.3747(5) 0.8994(3)
N2A N 0.9132(6) -0.1989(5) 0.7460(3)
N3A N 0.5545(7) -0.0699(5) 0.1996(3)
C1A C 0.7586(7) -0.2696(6) 0.7273(4)
C2A C 0.6499(7) -0.3573(6) 0.8043(4)
C3A C 0.8542(8) -0.3076(7) 0.9173(4)
H2A H 0.8913 -0.3202 0.9824
C4A C 0.9610(8) -0.2193(7) 0.8411(4)
H3A H 1.0682 -0.1731 0.8559
C5A C 0.4693(8) -0.4328(6) 0.7892(4)
C6A C 0.7161(7) -0.2445(6) 0.6190(4)
H5A H 0.7648 -0.4689 0.3321
H6A H 0.9561 -0.4618 0.3684
H7A H 0.9794 0.0227 0.3570
H8A H 1.0691 -0.1116 0.4380
H9A H 0.3465 -0.3492 0.5395
H10A H 0.3092 -0.3696 0.4431
O5A O 0.6997(6) 0.2539(5) -0.0016(3)
H1A H 0.6412 0.1772 0.0206
H4A H 0.7728 0.2458 -0.0627
Co1_2 Co 0.5000 -0.5000 1.0000
O1A_2 O 0.3857(5) 0.4945(5) -0.1339(3)
N1A_2 N 0.6997(6) 0.6253(5) -0.1006(3)
O12 O 0.1243(7) 0.7544(6) 0.1819(3)
H11 H 0.2178 0.7702 0.2179
H12 H 0.0601 0.7163 0.2381
loop_
_geom_bond_atom_site_label_1
_geom_bond_atom_site_label_2
_geom_bond_site_symmetry_1
_geom_bond_site_symmetry_2
Co1 O1 1_555 1_555
Ca1 O3 1_555 1_555
O1 C5 1_555 1_555
O2 C5 1_555 1_555
O3 C6 1_555 1_555
O4 Ca1 1_555 1_555
O5 Co1 1_555 1_555
H1 O5 1_555 1_555
O6 Ca1 1_555 1_555
O7 Ca1 1_555 1_555
O8 Ca1 1_555 1_555
O9 Ca1 1_555 1_555
O10 Ca1 1_555 1_555
O11 N3 1_555 1_555
N1 Co1 1_555 1_555
N2 C1 1_555 1_555
N3 O6 1_555 1_555
C1 C2 1_555 1_555
C2 N1 1_555 1_555
C3 N1 1_555 1_555
H2 C3 1_555 1_555
C4 N2 1_555 1_555
H3 C4 1_555 1_555
C5 C2 1_555 1_555
C6 O4 1_555 1_555
H4 O5 1_555 1_555
H5 O9 1_555 1_555
H6 O9 1_555 1_555
H7 O8 1_555 1_555
H8 O8 1_555 1_555
H9 O7 1_555 1_555
H10 O7 1_555 1_555
O12 H11 1_555 1_555
H12 O12 1_555 1_555
Ca1A O3 1_555 1_555
O1A C5A 1_555 1_555
O2A C5A 1_555 1_555
O3A Ca1 1_555 1_555
O4A Ca1A 1_555 1_555
O6A Ca1A 1_555 1_555
O7A Ca1A 1_555 1_555
O8A Ca1A 1_555 1_555
O9A Ca1A 1_555 1_555
O10A Ca1A 1_555 1_555
O11A N3A 1_555 1_555
N1A C2A 1_555 1_555
N2A C1A 1_555 1_555
N3A O6A 1_555 1_555
C1A C2A 1_555 1_555
C2A C5A 1_555 1_555
C3A N1A 1_555 1_555
H2A C3A 1_555 1_555
C4A N2A 1_555 1_555
H3A C4A 1_555 1_555
C6A O3A 1_555 1_555
H5A O9A 1_555 1_555
H6A O9A 1_555 1_555
H7A O8A 1_555 1_555
H8A O8A 1_555 1_555
H9A O7A 1_555 1_555
H10A O7A 1_555 1_555
O5A Co1 1_555 1_555
H1A O5A 1_555 1_555
H4A O5A 1_555 1_555
Co1_2 O1A 1_555 1_555
O1A_2 Co1 1_555 1_555
N1A_2 Co1 1_555 1_555
O10 N3 1_555 1_555
C1 C6 1_555 1_555
C3 C4 1_555 1_555
Ca1A O3A 1_555 1_555
O4A C6A 1_555 1_555
O10A N3A 1_555 1_555
N1A Co1_2 1_555 1_555
C1A C6A 1_555 1_555
C3A C4A 1_555 1_555

#END
