
#######################################################################
#
#                 Cambridge Crystallographic Data Centre
#                                CCDC 
#
#######################################################################
#
# If this CIF has been generated from an entry in the Cambridge 
# Structural Database, then it will include bibliographic, chemical, 
# crystal, experimental, refinement or atomic coordinate data resulting 
# from the CCDC's data processing and validation procedures.
#
#######################################################################

data_ZUJFOB
_symmetry_cell_setting           triclinic
_symmetry_space_group_name_H-M   'P -1'
_symmetry_Int_Tables_number      2
_space_group_name_Hall           '-P 1'
loop_
_symmetry_equiv_pos_site_id
_symmetry_equiv_pos_as_xyz
1 x,y,z
2 -x,-y,-z
_cell_length_a                   6.6953(4)
_cell_length_b                   7.6428(5)
_cell_length_c                   14.0935(8)
_cell_angle_alpha                96.5830(10)
_cell_angle_beta                 95.1290(10)
_cell_angle_gamma                96.1710(10)
_cell_volume                     708.482
loop_
_atom_site_label
_atom_site_type_symbol
_atom_site_fract_x
_atom_site_fract_y
_atom_site_fract_z
Ba1 Ba 0.77876(2) 0.65355(2) 0.094436(11)
Co1 Co 0.5000 0.5000 0.5000
O1 O 0.6100(3) 0.5347(3) 0.36979(13)
O2 O 0.5264(3) 0.4983(3) 0.21095(14)
O3 O 0.2215(4) 0.1990(3) 0.08298(14)
O4 O 0.0960(3) 0.4551(3) 0.09399(14)
O5 O 0.4125(4) 0.7561(3) 0.50620(15)
H1 H 0.473(5) 0.830(4) 0.548(2)
H2 H 0.410(6) 0.806(5) 0.4578(18)
O6 O 0.6549(4) 0.9977(4) 0.1389(2)
H3 H 0.752(5) 1.060(6) 0.170(3)
H4 H 0.572(6) 0.986(7) 0.177(3)
O7 O 0.9293(4) 0.7202(5) 0.28753(18)
H5 H 0.842(6) 0.693(8) 0.322(3)
H6 H 1.016(6) 0.793(6) 0.319(4)
O8 O 0.6066(3) 0.3129(3) 0.00885(16)
H7 H 0.686(5) 0.277(5) -0.028(2)
H8 H 0.575(6) 0.233(4) 0.041(2)
O9 O 1.1523(3) 0.8609(3) 0.11575(16)
H9 H 1.163(6) 0.9662(19) 0.108(3)
H10 H 1.198(6) 0.864(5) 0.1717(11)
N1 N 0.2460(3) 0.3947(3) 0.40139(15)
N2 N -0.0360(3) 0.2333(3) 0.25353(17)
C1 C -0.0683(5) 0.2286(4) 0.3452(2)
H11 H -0.1877 0.1682 0.3596
C2 C 0.0708(4) 0.3110(4) 0.4191(2)
H12 H 0.0419 0.3081 0.4823
C3 C 0.2822(4) 0.3982(4) 0.30955(18)
C4 C 0.1381(4) 0.3199(3) 0.23532(18)
C5 C 0.1566(4) 0.3264(4) 0.12905(18)
C6 C 0.4893(4) 0.4846(4) 0.29438(19)
Ba1A Ba 0.22124(2) 0.34645(2) -0.094436(11)
O1A O 0.3900(3) 0.4653(3) -0.36979(13)
O2A O 0.4736(3) 0.5017(3) -0.21095(14)
O3A O 0.7785(4) 0.8010(3) -0.08298(14)
O4A O 0.9040(3) 0.5449(3) -0.09399(14)
O6A O 0.3451(4) 0.0023(4) -0.1389(2)
H3A H 0.248(5) -0.060(6) -0.170(3)
H4A H 0.428(6) 0.014(7) -0.177(3)
O7A O 0.0707(4) 0.2798(5) -0.28753(18)
H5A H 0.158(6) 0.307(8) -0.322(3)
H6A H -0.016(6) 0.207(6) -0.319(4)
O8A O 0.3934(3) 0.6871(3) -0.00885(16)
H7A H 0.314(5) 0.723(5) 0.028(2)
H8A H 0.425(6) 0.767(4) -0.041(2)
O9A O -0.1523(3) 0.1391(3) -0.11575(16)
H9A H -0.163(6) 0.0338(19) -0.108(3)
H10A H -0.198(6) 0.136(5) -0.1717(11)
N1A N 0.7540(3) 0.6053(3) -0.40139(15)
N2A N 1.0360(3) 0.7667(3) -0.25353(17)
C1A C 1.0683(5) 0.7714(4) -0.3452(2)
H11A H 1.1877 0.8318 -0.3596
C2A C 0.9292(4) 0.6890(4) -0.4191(2)
H12A H 0.9581 0.6919 -0.4823
C3A C 0.7178(4) 0.6018(4) -0.30955(18)
C4A C 0.8619(4) 0.6801(3) -0.23532(18)
C5A C 0.8434(4) 0.6736(4) -0.12905(18)
C6A C 0.5107(4) 0.5154(4) -0.29438(19)
O5A O 0.5875(4) 0.2439(3) 0.49380(15)
H1A H 0.527(5) 0.170(4) 0.452(2)
H2A H 0.590(6) 0.194(5) 0.5422(18)
Ba1_2 Ba -0.22124(2) 0.65355(2) 0.094436(11)
Ba1A_2 Ba 1.22124(2) 0.34645(2) -0.094436(11)
Co1_2 Co 0.5000 0.5000 -0.5000
O1A_2 O 0.3900(3) 0.4653(3) 0.63021(13)
O4_2 O 1.0960(3) 0.4551(3) 0.09399(14)
O4A_2 O -0.0960(3) 0.5449(3) -0.09399(14)
N1A_2 N 0.7540(3) 0.6053(3) 0.59861(15)
Cl1 Cl 0.37895(14) 0.95489(11) 0.32824(6)
loop_
_geom_bond_atom_site_label_1
_geom_bond_atom_site_label_2
_geom_bond_site_symmetry_1
_geom_bond_site_symmetry_2
Ba1 O2 1_555 1_555
Co1 O1 1_555 1_555
O1 C6 1_555 1_555
O2 C6 1_555 1_555
O3 C5 1_555 1_555
O4 C5 1_555 1_555
O5 Co1 1_555 1_555
H1 O5 1_555 1_555
H2 O5 1_555 1_555
O6 Ba1 1_555 1_555
H3 O6 1_555 1_555
H4 O6 1_555 1_555
O7 Ba1 1_555 1_555
H5 O7 1_555 1_555
H6 O7 1_555 1_555
O8 Ba1 1_555 1_555
H7 O8 1_555 1_555
H8 O8 1_555 1_555
O9 Ba1 1_555 1_555
H9 O9 1_555 1_555
H10 O9 1_555 1_555
N1 Co1 1_555 1_555
N2 C1 1_555 1_555
C1 H11 1_555 1_555
C2 N1 1_555 1_555
H12 C2 1_555 1_555
C3 N1 1_555 1_555
C4 N2 1_555 1_555
C5 C4 1_555 1_555
C6 C3 1_555 1_555
Ba1A O3 1_555 1_555
O1A C6A 1_555 1_555
O2A Ba1A 1_555 1_555
O3A Ba1 1_555 1_555
O4A Ba1 1_555 1_555
O6A Ba1A 1_555 1_555
H3A O6A 1_555 1_555
H4A O6A 1_555 1_555
O7A Ba1A 1_555 1_555
H5A O7A 1_555 1_555
H6A O7A 1_555 1_555
O8A Ba1 1_555 1_555
H7A O8A 1_555 1_555
H8A O8A 1_555 1_555
O9A Ba1A 1_555 1_555
H9A O9A 1_555 1_555
H10A O9A 1_555 1_555
N1A C2A 1_555 1_555
N2A C1A 1_555 1_555
C1A H11A 1_555 1_555
C2A C1A 1_555 1_555
H12A C2A 1_555 1_555
C3A N1A 1_555 1_555
C4A N2A 1_555 1_555
C5A O3A 1_555 1_555
C6A O2A 1_555 1_555
O5A Co1 1_555 1_555
H1A O5A 1_555 1_555
H2A O5A 1_555 1_555
Ba1_2 O4 1_555 1_555
Ba1A_2 O4A 1_555 1_555
Co1_2 O1A 1_555 1_555
O1A_2 Co1 1_555 1_555
O4_2 Ba1 1_555 1_555
O4A_2 Ba1A 1_555 1_555
N1A_2 Co1 1_555 1_555
O4 Ba1A 1_555 1_555
O8 Ba1A 1_555 1_555
C1 C2 1_555 1_555
C3 C4 1_555 1_555
Ba1A O8A 1_555 1_555
O4A C5A 1_555 1_555
N1A Co1_2 1_555 1_555
C3A C4A 1_555 1_555
C3A C6A 1_555 1_555
C4A C5A 1_555 1_555
Ba1_2 O4A_2 1_555 1_555
Ba1A_2 O4_2 1_555 1_555

#END
