
#######################################################################
#
#                 Cambridge Crystallographic Data Centre
#                                CCDC 
#
#######################################################################
#
# If this CIF has been generated from an entry in the Cambridge 
# Structural Database, then it will include bibliographic, chemical, 
# crystal, experimental, refinement or atomic coordinate data resulting 
# from the CCDC's data processing and validation procedures.
#
#######################################################################

data_ZUJFIV
_symmetry_cell_setting           triclinic
_symmetry_space_group_name_H-M   'P -1'
_symmetry_Int_Tables_number      2
_space_group_name_Hall           '-P 1'
loop_
_symmetry_equiv_pos_site_id
_symmetry_equiv_pos_as_xyz
1 x,y,z
2 -x,-y,-z
_cell_length_a                   6.5863(9)
_cell_length_b                   7.6421(11)
_cell_length_c                   13.809(2)
_cell_angle_alpha                96.335(2)
_cell_angle_beta                 94.647(2)
_cell_angle_gamma                97.679(2)
_cell_volume                     681.368
loop_
_atom_site_label
_atom_site_type_symbol
_atom_site_fract_x
_atom_site_fract_y
_atom_site_fract_z
Sr1 Sr 0.78696(9) 0.64053(8) 0.09254(4)
Co1 Co 0.5000 0.5000 0.5000
C1 C -0.0748(10) 0.2153(9) 0.3437(5)
H1 H -0.1962 0.1517 0.3590
C2 C 0.0648(10) 0.3015(9) 0.4196(5)
H2 H 0.0354 0.2975 0.4842
H3 H 0.4081 0.8145 0.4460
C3 C 0.2777(9) 0.3942(8) 0.3063(4)
C4 C 0.1313(9) 0.3120(8) 0.2315(5)
C5 C 0.1459(9) 0.3212(8) 0.1216(4)
C6 C 0.4880(9) 0.4860(8) 0.2894(5)
H4 H 0.4933 0.8311 0.5425
H5 H 0.5836 0.9493 0.1897
H6 H 0.7307 1.0490 0.1523
H7 H 1.1628 0.9619 0.0958
H8 H 1.2047 0.8714 0.1652
H9 H 0.6623 0.2778 -0.0350
H10 H 0.8406 0.6552 0.3076
H11 H 1.0318 0.7740 0.3065
N1 N 0.2414(7) 0.3903(7) 0.4000(3)
N2 N -0.0442(8) 0.2187(7) 0.2502(4)
O1 O 0.6124(6) 0.5364(6) 0.3665(3)
O2 O 0.5242(7) 0.5048(6) 0.2044(3)
O3 O 0.2195(7) 0.1998(6) 0.0745(3)
O4 O 0.0807(7) 0.4467(6) 0.0880(3)
O5 O 0.4169(7) 0.7552(6) 0.5059(3)
O6 O 0.6647(7) 0.9438(7) 0.1436(4)
O7 O 0.9394(8) 0.6924(8) 0.2756(3)
O8 O 0.5961(7) 0.3325(6) 0.0091(3)
O9 O 1.1417(7) 0.8542(5) 0.1072(3)
H12 H 0.5401 0.2501 0.0398
Sr1A Sr 0.21304(9) 0.35947(8) -0.09254(4)
C1A C 1.0748(10) 0.7847(9) -0.3437(5)
H1A H 1.1962 0.8483 -0.3590
C2A C 0.9352(10) 0.6985(9) -0.4196(5)
H2A H 0.9646 0.7025 -0.4842
C3A C 0.7223(9) 0.6058(8) -0.3063(4)
C4A C 0.8687(9) 0.6880(8) -0.2315(5)
C5A C 0.8541(9) 0.6788(8) -0.1216(4)
C6A C 0.5120(9) 0.5140(8) -0.2894(5)
H5A H 0.4164 0.0507 -0.1897
H6A H 0.2693 -0.0490 -0.1523
H7A H -0.1628 0.0381 -0.0958
H8A H -0.2047 0.1286 -0.1652
H9A H 0.3377 0.7222 0.0350
H10A H 0.1594 0.3448 -0.3076
H11A H -0.0318 0.2260 -0.3065
N1A N 0.7586(7) 0.6097(7) -0.4000(3)
N2A N 1.0442(8) 0.7813(7) -0.2502(4)
O1A O 0.3876(6) 0.4636(6) -0.3665(3)
O2A O 0.4758(7) 0.4952(6) -0.2044(3)
O3A O 0.7805(7) 0.8002(6) -0.0745(3)
O4A O 0.9193(7) 0.5533(6) -0.0880(3)
O6A O 0.3353(7) 0.0562(7) -0.1436(4)
O7A O 0.0606(8) 0.3076(8) -0.2756(3)
O8A O 0.4039(7) 0.6675(6) -0.0091(3)
O9A O -0.1417(7) 0.1458(5) -0.1072(3)
H12A H 0.4599 0.7499 -0.0398
H3A H 0.5919 0.1855 0.5540
H4A H 0.5067 0.1689 0.4575
O5A O 0.5831(7) 0.2448(6) 0.4941(3)
Sr1_2 Sr -0.21304(9) 0.64053(8) 0.09254(4)
Sr1A_2 Sr 1.21304(9) 0.35947(8) -0.09254(4)
Co1_2 Co 0.5000 0.5000 -0.5000
N1A_2 N 0.7586(7) 0.6097(7) 0.6000(3)
O1A_2 O 0.3876(6) 0.4636(6) 0.6335(3)
O4_2 O 1.0807(7) 0.4467(6) 0.0880(3)
O4A_2 O -0.0807(7) 0.5533(6) -0.0880(3)
Cl1 Cl 0.3710(3) 0.9521(2) 0.32608(13)
loop_
_geom_bond_atom_site_label_1
_geom_bond_atom_site_label_2
_geom_bond_site_symmetry_1
_geom_bond_site_symmetry_2
Sr1 O2 1_555 1_555
Co1 N1 1_555 1_555
C1 H1 1_555 1_555
C2 C1 1_555 1_555
H2 C2 1_555 1_555
H3 O5 1_555 1_555
C3 C4 1_555 1_555
C4 C5 1_555 1_555
C5 O3 1_555 1_555
C6 C3 1_555 1_555
H4 O5 1_555 1_555
H5 O6 1_555 1_555
H6 O6 1_555 1_555
H7 O9 1_555 1_555
H8 O9 1_555 1_555
H9 O8 1_555 1_555
H10 O7 1_555 1_555
H11 O7 1_555 1_555
N1 C2 1_555 1_555
N2 C1 1_555 1_555
O1 Co1 1_555 1_555
O2 C6 1_555 1_555
O3 Sr1A 1_555 1_555
O4 C5 1_555 1_555
O5 Co1 1_555 1_555
O6 Sr1 1_555 1_555
O7 Sr1 1_555 1_555
O8 Sr1 1_555 1_555
O9 Sr1 1_555 1_555
H12 O8 1_555 1_555
Sr1A O4 1_555 1_555
C1A H1A 1_555 1_555
C2A C1A 1_555 1_555
H2A C2A 1_555 1_555
C3A C4A 1_555 1_555
C4A C5A 1_555 1_555
C5A O3A 1_555 1_555
C6A C3A 1_555 1_555
H5A O6A 1_555 1_555
H6A O6A 1_555 1_555
H7A O9A 1_555 1_555
H8A O9A 1_555 1_555
H9A O8A 1_555 1_555
H10A O7A 1_555 1_555
H11A O7A 1_555 1_555
N1A C2A 1_555 1_555
N2A C1A 1_555 1_555
O1A C6A 1_555 1_555
O2A Sr1A 1_555 1_555
O3A Sr1 1_555 1_555
O4A Sr1 1_555 1_555
O6A Sr1A 1_555 1_555
O7A Sr1A 1_555 1_555
O8A Sr1 1_555 1_555
O9A Sr1A 1_555 1_555
H12A O8A 1_555 1_555
H3A O5A 1_555 1_555
H4A O5A 1_555 1_555
O5A Co1 1_555 1_555
Sr1_2 O4 1_555 1_555
Sr1A_2 O4A 1_555 1_555
Co1_2 N1A 1_555 1_555
N1A_2 Co1 1_555 1_555
O1A_2 Co1 1_555 1_555
O4_2 Sr1 1_555 1_555
O4A_2 Sr1A 1_555 1_555
C3 N1 1_555 1_555
C4 N2 1_555 1_555
C6 O1 1_555 1_555
O8 Sr1A 1_555 1_555
Sr1A O8A 1_555 1_555
C3A N1A 1_555 1_555
C4A N2A 1_555 1_555
C5A O4A 1_555 1_555
C6A O2A 1_555 1_555
O1A Co1_2 1_555 1_555
Sr1_2 O4A_2 1_555 1_555
Sr1A_2 O4_2 1_555 1_555

#END
