
#######################################################################
#
#                 Cambridge Crystallographic Data Centre
#                                CCDC 
#
#######################################################################
#
# If this CIF has been generated from an entry in the Cambridge 
# Structural Database, then it will include bibliographic, chemical, 
# crystal, experimental, refinement or atomic coordinate data resulting 
# from the CCDC's data processing and validation procedures.
#
#######################################################################

data_ZUJFUH
_symmetry_cell_setting           triclinic
_symmetry_space_group_name_H-M   'P -1'
_symmetry_Int_Tables_number      2
_space_group_name_Hall           '-P 1'
loop_
_symmetry_equiv_pos_site_id
_symmetry_equiv_pos_as_xyz
1 x,y,z
2 -x,-y,-z
_cell_length_a                   6.6503(9)
_cell_length_b                   7.9533(11)
_cell_length_c                   13.656(2)
_cell_angle_alpha                78.411(2)
_cell_angle_beta                 84.660(2)
_cell_angle_gamma                77.080(2)
_cell_volume                     688.775
loop_
_atom_site_label
_atom_site_type_symbol
_atom_site_fract_x
_atom_site_fract_y
_atom_site_fract_z
Ca1 Ca 0.64476(8) 0.83893(7) 0.40980(4)
Ni1 Ni 0.5000 0.5000 1.0000
O1 O 0.3797(3) 0.4934(3) 0.86839(14)
O2 O 0.4139(3) 0.5852(3) 0.70377(15)
O3 O 0.8081(3) 0.6459(3) 0.57062(15)
O4 O 0.5948(3) 0.8950(2) 0.58311(14)
O5 O 0.4516(3) 0.8418(3) 0.26267(17)
O6 O 0.5166(4) 0.9645(3) 0.11052(17)
O7 O 0.6996(4) 0.9774(3) 0.23044(17)
O8 O 0.3623(5) 0.6915(4) 0.4774(2)
H1 H 0.338(9) 0.637(5) 0.436(2)
H2 H 0.381(8) 0.634(5) 0.5340(14)
O9 O 0.8415(4) 0.5916(3) 0.3502(2)
H3 H 0.947(4) 0.538(4) 0.378(3)
H4 H 0.769(5) 0.532(4) 0.334(3)
O10 O 0.9483(4) 0.9488(4) 0.40609(18)
H5 H 1.042(5) 0.915(5) 0.445(2)
H6 H 0.968(6) 1.025(4) 0.358(2)
O11 O 0.7007(4) 0.2566(3) 0.99772(17)
H7 H 0.756(6) 0.255(5) 0.9418(14)
H8 H 0.645(6) 0.174(3) 1.021(2)
N1 N 0.5562(4) 0.9282(3) 0.19887(18)
N2 N 0.6939(4) 0.6248(3) 0.90220(17)
N3 N 0.9102(4) 0.8016(3) 0.74815(18)
C1 C 0.8481(4) 0.6927(4) 0.9207(2)
H9 H 0.8838 0.6807 0.9864
C2 C 0.9564(5) 0.7809(4) 0.8436(2)
H10 H 1.0641 0.8271 0.8585
C3 C 0.6451(4) 0.6434(3) 0.80659(19)
C4 C 0.7566(4) 0.7311(3) 0.7298(2)
C5 C 0.4643(4) 0.5676(4) 0.7910(2)
C6 C 0.7144(4) 0.7560(4) 0.6209(2)
Ca1A Ca 0.35524(8) 0.16107(7) 1.59020(4)
O1A O 0.6203(3) 0.5066(3) 1.13161(14)
O2A O 0.5861(3) 0.4148(3) 1.29623(15)
O3A O 0.1919(3) 0.3541(3) 1.42938(15)
O4A O 0.4052(3) 0.1050(2) 1.41689(14)
O5A O 0.5484(3) 0.1582(3) 1.73733(17)
O6A O 0.4834(4) 0.0355(3) 1.88948(17)
O7A O 0.3004(4) 0.0226(3) 1.76956(17)
O8A O 0.6377(5) 0.3085(4) 1.5226(2)
H1A H 0.662(9) 0.363(5) 1.564(2)
H2A H 0.619(8) 0.366(5) 1.4660(14)
O9A O 0.1585(4) 0.4084(3) 1.6498(2)
H3A H 0.053(4) 0.462(4) 1.622(3)
H4A H 0.231(5) 0.468(4) 1.666(3)
O10A O 0.0517(4) 0.0512(4) 1.59391(18)
H5A H -0.042(5) 0.085(5) 1.555(2)
H6A H 0.032(6) -0.025(4) 1.642(2)
O11A O 0.2993(4) 0.7434(3) 1.00228(17)
H7A H 0.244(6) 0.745(5) 1.0582(14)
H8A H 0.355(6) 0.826(3) 0.979(2)
N1A N 0.4438(4) 0.0718(3) 1.80113(18)
N2A N 0.3061(4) 0.3752(3) 1.09780(17)
N3A N 0.0898(4) 0.1984(3) 1.25185(18)
C1A C 0.1519(4) 0.3073(4) 1.0793(2)
H9A H 0.1162 0.3193 1.0136
C2A C 0.0436(5) 0.2191(4) 1.1564(2)
H10A H -0.0641 0.1729 1.1415
C3A C 0.3549(4) 0.3566(3) 1.19341(19)
C4A C 0.2434(4) 0.2689(3) 1.2702(2)
C5A C 0.5357(4) 0.4324(4) 1.2090(2)
C6A C 0.2856(4) 0.2440(4) 1.3791(2)
Ca1_2 Ca 0.64476(8) -0.16107(7) 1.40980(4)
Ca1A_2 Ca 0.35524(8) 1.16107(7) 0.59020(4)
O4_2 O 0.5948(3) -0.1050(2) 1.58311(14)
O4A_2 O 0.4052(3) 1.1050(2) 0.41689(14)
O12 O 0.8719(5) 0.2507(5) 0.8155(2)
H11 H 0.814(6) 0.203(7) 0.781(3)
H12 H 0.990(4) 0.263(7) 0.795(4)
loop_
_geom_bond_atom_site_label_1
_geom_bond_atom_site_label_2
_geom_bond_site_symmetry_1
_geom_bond_site_symmetry_2
Ca1 O3 1_555 1_555
Ni1 O1 1_555 1_555
O1 C5 1_555 1_555
O2 C5 1_555 1_555
O3 C6 1_555 1_555
O4 Ca1 1_555 1_555
O5 Ca1 1_555 1_555
O6 N1 1_555 1_555
O7 Ca1 1_555 1_555
O8 Ca1 1_555 1_555
H1 O8 1_555 1_555
H2 O8 1_555 1_555
O9 Ca1 1_555 1_555
H3 O9 1_555 1_555
H4 O9 1_555 1_555
O10 Ca1 1_555 1_555
H5 O10 1_555 1_555
H6 O10 1_555 1_555
O11 Ni1 1_555 1_555
H7 O11 1_555 1_555
H8 O11 1_555 1_555
N1 O5 1_555 1_555
N2 Ni1 1_555 1_555
N3 C2 1_555 1_555
C1 N2 1_555 1_555
H9 C1 1_555 1_555
C2 C1 1_555 1_555
H10 C2 1_555 1_555
C3 N2 1_555 1_555
C4 N3 1_555 1_555
C5 C3 1_555 1_555
C6 O4 1_555 1_555
O12 H11 1_555 1_555
H12 O12 1_555 1_555
Ca1A O3A 1_555 1_555
O1A Ni1 1_555 1_555
O2A C5A 1_555 1_555
O3A C6A 1_555 1_555
O4A Ca1A 1_555 1_555
O5A Ca1A 1_555 1_555
O6A N1A 1_555 1_555
O7A Ca1A 1_555 1_555
O8A Ca1A 1_555 1_555
H1A O8A 1_555 1_555
H2A O8A 1_555 1_555
O9A Ca1A 1_555 1_555
H3A O9A 1_555 1_555
H4A O9A 1_555 1_555
O10A Ca1A 1_555 1_555
H5A O10A 1_555 1_555
H6A O10A 1_555 1_555
O11A Ni1 1_555 1_555
H7A O11A 1_555 1_555
H8A O11A 1_555 1_555
N1A O5A 1_555 1_555
N2A Ni1 1_555 1_555
N3A C2A 1_555 1_555
C1A N2A 1_555 1_555
H9A C1A 1_555 1_555
C2A C1A 1_555 1_555
H10A C2A 1_555 1_555
C3A N2A 1_555 1_555
C4A N3A 1_555 1_555
C5A O1A 1_555 1_555
C6A O4A 1_555 1_555
Ca1_2 O4A 1_555 1_555
Ca1A_2 O4 1_555 1_555
O4_2 Ca1A 1_555 1_555
O4A_2 Ca1 1_555 1_555
O7 N1 1_555 1_555
C3 C4 1_555 1_555
C4 C6 1_555 1_555
O7A N1A 1_555 1_555
C3A C4A 1_555 1_555
C3A C5A 1_555 1_555
C4A C6A 1_555 1_555
Ca1_2 O4_2 1_555 1_555
Ca1A_2 O4A_2 1_555 1_555

#END
