
#######################################################################
#
#                 Cambridge Crystallographic Data Centre
#                                CCDC 
#
#######################################################################
#
# If this CIF has been generated from an entry in the Cambridge 
# Structural Database, then it will include bibliographic, chemical, 
# crystal, experimental, refinement or atomic coordinate data resulting 
# from the CCDC's data processing and validation procedures.
#
#######################################################################

data_ZUJTIJ
_symmetry_cell_setting           triclinic
_symmetry_space_group_name_H-M   'P -1'
_symmetry_Int_Tables_number      2
_space_group_name_Hall           '-P 1'
loop_
_symmetry_equiv_pos_site_id
_symmetry_equiv_pos_as_xyz
1 x,y,z
2 -x,-y,-z
_cell_length_a                   6.7465(2)
_cell_length_b                   10.7944(4)
_cell_length_c                   13.4120(4)
_cell_angle_alpha                102.108(3)
_cell_angle_beta                 102.459(3)
_cell_angle_gamma                107.677(3)
_cell_volume                     868.004
loop_
_atom_site_label
_atom_site_type_symbol
_atom_site_fract_x
_atom_site_fract_y
_atom_site_fract_z
Zn1 Zn 0.50921(6) 0.17387(4) 0.18197(3)
S1 S 0.95684(11) 0.77456(7) 0.84728(5)
O1 O 0.8402(3) 0.64893(19) 0.45853(15)
O2 O 0.6241(3) 0.28366(19) 0.33806(15)
O3 O 0.6219(3) 0.3694(2) 0.16767(16)
O4 O 0.7472(4) 0.5714(2) 0.08288(16)
H1 H 0.6870 0.4908 0.0828
O5 O 1.0598(6) 1.0182(2) 0.3287(2)
H2 H 1.0795 1.0381 0.2734
O6 O 0.9499(4) 0.7457(2) 0.94823(16)
O7 O 0.8225(3) 0.85394(19) 0.81920(16)
O8 O 1.1773(3) 0.8453(2) 0.84595(16)
O9 O 0.5661(4) 0.2517(2) 0.50620(17)
H3 H 0.5821 0.2595 0.4471
O10 O 0.7400(4) 0.4800(2) 0.86581(16)
H4 H 0.7847 0.5577 0.9100
O11 O 0.4687(4) 0.0000(2) 0.22388(18)
H5 H 0.5881 0.0067 0.2704
H6 H 0.4387 -0.0691 0.1677
O12 O 0.3893(3) 0.1059(2) 0.01842(16)
H7 H 0.5016 0.1510 0.0018
H8 H 0.3486 0.0203 -0.0159
C1 C 0.7574(4) 0.5130(3) 0.4512(2)
C2 C 0.6929(5) 0.4172(3) 0.3534(2)
C3 C 0.6996(5) 0.4606(3) 0.2586(2)
C4 C 0.8124(5) 0.6560(3) 0.1837(2)
C5 C 0.9032(5) 0.7942(3) 0.2015(2)
H9 H 0.9194 0.8302 0.1436
C6 C 0.9718(6) 0.8817(3) 0.3065(3)
C7 C 0.9506(6) 0.8325(3) 0.3924(3)
H10 H 0.9970 0.8925 0.4628
C8 C 0.8601(5) 0.6937(3) 0.3725(2)
C9 C 0.7896(5) 0.6015(3) 0.2699(2)
C10 C 0.7546(5) 0.4986(3) 0.5579(2)
C11 C 0.6640(5) 0.3729(3) 0.5801(2)
C12 C 0.6695(5) 0.3738(3) 0.6845(2)
H11 H 0.6120 0.2895 0.6986
C13 C 0.7554(5) 0.4926(3) 0.7689(2)
C14 C 0.8452(5) 0.6165(3) 0.7483(2)
C15 C 0.8426(5) 0.6163(3) 0.6444(2)
H12 H 0.9039 0.7010 0.6316
Zn1A Zn 0.49079(6) 0.82613(4) 0.81803(3)
Zn1A_2 Zn 1.49079(6) 0.82613(4) 0.81803(3)
O7A O 0.1775(3) 0.14606(19) 0.18080(16)
O8A O 0.8227(3) 0.1547(2) 0.15405(16)
O13 O 0.4393(10) 0.0180(4) 0.5799(3)
H13 H 0.4724 0.0797 0.5475
H14 H 0.4070 -0.0620 0.5360
O14 O 0.6631(4) 0.2436(2) -0.07670(17)
H15 H 0.7876 0.2536 -0.0378
H16 H 0.6723 0.3135 -0.0978
loop_
_geom_bond_atom_site_label_1
_geom_bond_atom_site_label_2
_geom_bond_site_symmetry_1
_geom_bond_site_symmetry_2
Zn1 O2 1_555 1_555
S1 O6 1_555 1_555
O1 C1 1_555 1_555
O2 C2 1_555 1_555
O3 Zn1 1_555 1_555
O4 H1 1_555 1_555
O5 H2 1_555 1_555
O7 S1 1_555 1_555
O8 S1 1_555 1_555
O9 H3 1_555 1_555
O10 H4 1_555 1_555
O11 Zn1 1_555 1_555
H5 O11 1_555 1_555
H6 O11 1_555 1_555
O12 Zn1 1_555 1_555
H7 O12 1_555 1_555
H8 O12 1_555 1_555
C1 C2 1_555 1_555
C2 C3 1_555 1_555
C3 O3 1_555 1_555
C4 O4 1_555 1_555
C5 C4 1_555 1_555
H9 C5 1_555 1_555
C6 O5 1_555 1_555
C7 C6 1_555 1_555
H10 C7 1_555 1_555
C8 O1 1_555 1_555
C9 C3 1_555 1_555
C10 C1 1_555 1_555
C11 O9 1_555 1_555
C12 C11 1_555 1_555
H11 C12 1_555 1_555
C13 O10 1_555 1_555
C14 S1 1_555 1_555
C15 C10 1_555 1_555
H12 C15 1_555 1_555
O13 H13 1_555 1_555
H14 O13 1_555 1_555
O14 H15 1_555 1_555
H16 O14 1_555 1_555
Zn1A O7 1_555 1_555
Zn1A_2 O8 1_555 1_555
O7A Zn1 1_555 1_555
O8A Zn1 1_555 1_555
C4 C9 1_555 1_555
C5 C6 1_555 1_555
C7 C8 1_555 1_555
C8 C9 1_555 1_555
C10 C11 1_555 1_555
C12 C13 1_555 1_555
C13 C14 1_555 1_555
C14 C15 1_555 1_555

#END
