
#######################################################################
#
#                 Cambridge Crystallographic Data Centre
#                                CCDC 
#
#######################################################################
#
# If this CIF has been generated from an entry in the Cambridge 
# Structural Database, then it will include bibliographic, chemical, 
# crystal, experimental, refinement or atomic coordinate data resulting 
# from the CCDC's data processing and validation procedures.
#
#######################################################################

data_ZUKSIJ
_symmetry_cell_setting           monoclinic
_symmetry_space_group_name_H-M   'C 2/c'
_symmetry_Int_Tables_number      15
_space_group_name_Hall           '-C 2yn'
loop_
_symmetry_equiv_pos_site_id
_symmetry_equiv_pos_as_xyz
1 x,y,z
2 -x,y,1/2-z
3 1/2+x,1/2+y,z
4 1/2-x,1/2+y,1/2-z
5 -x,-y,-z
6 x,-y,1/2+z
7 1/2-x,1/2-y,-z
8 1/2+x,1/2-y,1/2+z
_cell_length_a                   15.6585(14)
_cell_length_b                   14.1006(12)
_cell_length_c                   12.0085(11)
_cell_angle_alpha                90
_cell_angle_beta                 121.904(2)
_cell_angle_gamma                90
_cell_volume                     2250.87
loop_
_atom_site_label
_atom_site_type_symbol
_atom_site_fract_x
_atom_site_fract_y
_atom_site_fract_z
Ag1 Ag 0.5000 0.570565(16) 0.2500
N1 N 0.39851(13) 0.41328(12) 0.34730(16)
N2 N 0.37916(13) 0.50524(13) 0.30330(16)
N3 N 0.56555(13) 0.42965(13) 0.40832(16)
N4 N 0.62502(13) 0.27612(13) 0.57742(17)
N5 N 0.46527(13) 0.25720(12) 0.54042(16)
N6 N 0.41811(14) 0.30277(13) 0.59375(17)
C1 C 0.27934(16) 0.51111(16) 0.2338(2)
H1 H 0.2431 0.5672 0.1913
C2 C 0.23363(16) 0.42438(16) 0.2307(2)
H2 H 0.1637 0.4109 0.1873
C3 C 0.31211(15) 0.36374(16) 0.3041(2)
H3 H 0.3071 0.2989 0.3216
C4 C 0.49938(15) 0.38258(14) 0.42393(18)
C5 C 0.53080(15) 0.30672(14) 0.51296(19)
C6 C 0.66091(16) 0.40029(16) 0.4758(2)
H4 H 0.7098 0.4340 0.4676
C7 C 0.69041(16) 0.32200(16) 0.5575(2)
H5 H 0.7581 0.3006 0.5999
C8 C 0.37258(16) 0.23334(16) 0.6182(2)
H6 H 0.3330 0.2431 0.6557
C9 C 0.38994(17) 0.14419(16) 0.5820(2)
H7 H 0.3652 0.0845 0.5896
C10 C 0.45027(16) 0.16184(15) 0.5334(2)
H8 H 0.4765 0.1162 0.5011
N1A N 0.60149(13) 0.41328(12) 0.15270(16)
N2A N 0.62084(13) 0.50524(13) 0.19670(16)
N3A N 0.43445(13) 0.42965(13) 0.09168(16)
N4A N 0.37498(13) 0.27612(13) -0.07742(17)
N5A N 0.53473(13) 0.25720(12) -0.04042(16)
N6A N 0.58189(14) 0.30277(13) -0.09375(17)
C1A C 0.72066(16) 0.51111(16) 0.2662(2)
H1A H 0.7569 0.5672 0.3087
C2A C 0.76637(16) 0.42438(16) 0.2693(2)
H2A H 0.8363 0.4109 0.3127
C3A C 0.68789(15) 0.36374(16) 0.1959(2)
H3A H 0.6929 0.2989 0.1784
C4A C 0.50062(15) 0.38258(14) 0.07607(18)
C5A C 0.46920(15) 0.30672(14) -0.01296(19)
C6A C 0.33909(16) 0.40029(16) 0.0242(2)
H4A H 0.2902 0.4340 0.0324
C7A C 0.30959(16) 0.32200(16) -0.0575(2)
H5A H 0.2419 0.3006 -0.0999
C8A C 0.62742(16) 0.23334(16) -0.1182(2)
H6A H 0.6670 0.2431 -0.1557
C9A C 0.61006(17) 0.14419(16) -0.0820(2)
H7A H 0.6348 0.0845 -0.0896
C10A C 0.54973(16) 0.16184(15) -0.0334(2)
H8A H 0.5235 0.1162 -0.0011
Ag1D Ag 0.5000 0.429435(16) -0.2500
Ag1D_2 Ag 0.5000 0.429435(16) 0.7500
N6D N 0.58189(14) 0.69723(13) 0.40625(17)
N6E N 0.41811(14) 0.69723(13) 0.09375(17)
B1 B 0.5000 0.8613(3) 0.7500
F1 F 0.43209(12) 0.80252(15) 0.75792(16)
F2 F 0.55116(19) 0.91524(13) 0.86282(19)
F1A F 0.56791(12) 0.80252(15) 0.74208(16)
F2A F 0.44884(19) 0.91524(13) 0.63718(19)
loop_
_geom_bond_atom_site_label_1
_geom_bond_atom_site_label_2
_geom_bond_site_symmetry_1
_geom_bond_site_symmetry_2
Ag1 N2 1_555 1_555
N1 N2 1_555 1_555
N2 C1 1_555 1_555
N3 Ag1 1_555 1_555
N4 C5 1_555 1_555
N5 N6 1_555 1_555
N6 C8 1_555 1_555
C1 H1 1_555 1_555
C2 C1 1_555 1_555
H2 C2 1_555 1_555
C3 N1 1_555 1_555
H3 C3 1_555 1_555
C4 N1 1_555 1_555
C5 N5 1_555 1_555
C6 N3 1_555 1_555
H4 C6 1_555 1_555
C7 N4 1_555 1_555
H5 C7 1_555 1_555
C8 H6 1_555 1_555
C9 C8 1_555 1_555
H7 C9 1_555 1_555
C10 N5 1_555 1_555
H8 C10 1_555 1_555
B1 F1 1_555 1_555
F2 B1 1_555 1_555
N1A N2A 1_555 1_555
N2A Ag1 1_555 1_555
N3A Ag1 1_555 1_555
N4A C5A 1_555 1_555
N5A N6A 1_555 1_555
N6A C8A 1_555 1_555
C1A N2A 1_555 1_555
H1A C1A 1_555 1_555
C2A C1A 1_555 1_555
H2A C2A 1_555 1_555
C3A N1A 1_555 1_555
H3A C3A 1_555 1_555
C4A N1A 1_555 1_555
C5A N5A 1_555 1_555
C6A N3A 1_555 1_555
H4A C6A 1_555 1_555
C7A N4A 1_555 1_555
H5A C7A 1_555 1_555
C8A H6A 1_555 1_555
C9A C8A 1_555 1_555
H7A C9A 1_555 1_555
C10A N5A 1_555 1_555
H8A C10A 1_555 1_555
Ag1D N6A 1_555 1_555
Ag1D_2 N6 1_555 1_555
N6D Ag1 1_555 1_555
N6E Ag1 1_555 1_555
F1A B1 1_555 1_555
F2A B1 1_555 1_555
N3 C4 1_555 1_555
C2 C3 1_555 1_555
C4 C5 1_555 1_555
C6 C7 1_555 1_555
C9 C10 1_555 1_555
N3A C4A 1_555 1_555
C2A C3A 1_555 1_555
C4A C5A 1_555 1_555
C6A C7A 1_555 1_555
C9A C10A 1_555 1_555

#END
