
#######################################################################
#
#                 Cambridge Crystallographic Data Centre
#                                CCDC 
#
#######################################################################
#
# If this CIF has been generated from an entry in the Cambridge 
# Structural Database, then it will include bibliographic, chemical, 
# crystal, experimental, refinement or atomic coordinate data resulting 
# from the CCDC's data processing and validation procedures.
#
#######################################################################

data_ZUKSUV
_symmetry_cell_setting           triclinic
_symmetry_space_group_name_H-M   'P -1'
_symmetry_Int_Tables_number      2
_space_group_name_Hall           '-P 1'
loop_
_symmetry_equiv_pos_site_id
_symmetry_equiv_pos_as_xyz
1 x,y,z
2 -x,-y,-z
_cell_length_a                   11.4055(5)
_cell_length_b                   14.3647(7)
_cell_length_c                   15.3589(7)
_cell_angle_alpha                63.6090(10)
_cell_angle_beta                 76.3790(10)
_cell_angle_gamma                66.7950(10)
_cell_volume                     2066.17
loop_
_atom_site_label
_atom_site_type_symbol
_atom_site_fract_x
_atom_site_fract_y
_atom_site_fract_z
Cu1 Cu 0.565546(16) 0.392149(14) 0.376819(12)
Cu2 Cu 0.326396(17) 0.595988(15) 0.087995(12)
N1 N 0.67260(10) 0.44838(9) 0.43072(8)
C1 C 0.61970(12) 0.55243(11) 0.41789(9)
C2 C 0.66831(12) 0.59999(11) 0.45971(9)
N2 N 0.77277(11) 0.54636(10) 0.50486(8)
C3 C 0.83292(12) 0.43936(12) 0.51553(10)
C4 C 0.94713(14) 0.37815(13) 0.56385(11)
H1 H 0.9835 0.4117 0.5866
C5 C 1.00468(14) 0.26937(14) 0.57746(12)
H2 H 1.0825 0.2281 0.6087
C6 C 0.95078(15) 0.21785(13) 0.54613(11)
H3 H 0.9919 0.1421 0.5574
C7 C 0.83936(14) 0.27548(12) 0.49939(11)
H4 H 0.8031 0.2398 0.4790
C8 C 0.77939(12) 0.38815(11) 0.48205(9)
N3 N 0.51234(11) 0.61290(9) 0.36221(8)
N4 N 0.45567(11) 0.55419(10) 0.34608(8)
C9 C 0.36359(13) 0.62951(12) 0.28816(10)
H5 H 0.3062 0.6131 0.2657
C10 C 0.36128(15) 0.73655(13) 0.26410(11)
H6 H 0.3051 0.8039 0.2231
C11 C 0.45702(14) 0.72323(12) 0.31211(11)
H7 H 0.4807 0.7802 0.3109
N5 N 0.59997(11) 0.70834(9) 0.45624(8)
N6 N 0.48402(11) 0.72880(10) 0.50777(8)
C12 C 0.44188(15) 0.83762(12) 0.48391(11)
H8 H 0.3626 0.8767 0.5085
C13 C 0.52946(17) 0.88656(13) 0.41822(13)
H9 H 0.5213 0.9624 0.3906
C14 C 0.62966(15) 0.80178(12) 0.40214(12)
H10 H 0.7053 0.8075 0.3610
N7 N 0.61513(10) 0.37189(9) 0.24550(8)
C15 C 0.53338(12) 0.36669(10) 0.20126(9)
C16 C 0.56342(12) 0.36196(11) 0.10783(9)
N8 N 0.67026(10) 0.37433(9) 0.05622(8)
C17 C 0.75727(12) 0.38015(11) 0.09942(9)
C18 C 0.87503(13) 0.38904(13) 0.04750(11)
H11 H 0.8908 0.3964 -0.0184
C19 C 0.96591(14) 0.38696(14) 0.09294(12)
H12 H 1.0462 0.3907 0.0589
C20 C 0.94240(14) 0.37940(14) 0.18959(12)
H13 H 1.0070 0.3779 0.2201
C21 C 0.82739(13) 0.37420(13) 0.24017(11)
H14 H 0.8117 0.3709 0.3049
C22 C 0.73254(12) 0.37375(11) 0.19642(9)
N9 N 0.40830(10) 0.37365(9) 0.24661(8)
N10 N 0.30852(11) 0.46602(10) 0.20353(9)
C23 C 0.20482(13) 0.44727(13) 0.25947(11)
H15 H 0.1202 0.4977 0.2484
C24 C 0.23674(14) 0.34382(14) 0.33655(11)
H16 H 0.1797 0.3117 0.3858
C25 C 0.36685(14) 0.29826(12) 0.32661(10)
H17 H 0.4182 0.2278 0.3675
N11 N 0.48156(11) 0.34767(10) 0.06266(8)
N12 N 0.50937(11) 0.36839(10) -0.03512(8)
C26 C 0.42375(14) 0.34418(13) -0.05882(12)
H18 H 0.4187 0.3514 -0.1225
C27 C 0.34157(15) 0.30662(14) 0.02196(13)
H19 H 0.2730 0.2841 0.0233
C28 C 0.38037(14) 0.30898(13) 0.09837(12)
H20 H 0.3442 0.2879 0.1637
O1 O 0.18110(11) 0.71114(10) 0.13376(9)
C29 C 0.09460(15) 0.79678(13) 0.10357(12)
C30 C 0.0233(2) 0.85814(17) 0.16700(15)
H21 H 0.0585 0.8179 0.2310
H22 H -0.0672 0.8654 0.1747
H23 H 0.0318 0.9315 0.1371
C31 C 0.0563(3) 0.84431(17) 0.00235(16)
H24 H 0.1113 0.7960 -0.0311
H25 H 0.0655 0.9174 -0.0328
H26 H -0.0330 0.8509 0.0043
Cu1A Cu 0.434454(16) 0.607851(14) 0.623181(12)
Cu2A Cu 0.673604(17) 0.404012(15) -0.087995(12)
N6A N 0.51598(11) 0.27120(10) 0.49223(8)
N8A N 0.32974(10) 0.62567(9) -0.05622(8)
N12A N 0.49063(11) 0.63161(10) 0.03512(8)
B1 B 0.84808(17) 0.63465(17) 0.22630(14)
F1 F 0.90616(10) 0.53644(10) 0.30091(8)
F2 F 0.73135(11) 0.63597(12) 0.21502(9)
F3 F 0.92452(12) 0.64480(12) 0.14128(9)
F4 F 0.8296(2) 0.72058(13) 0.25162(13)
B2 B 0.75573(19) 0.07482(16) 0.30888(15)
F5 F 0.79487(15) 0.13763(11) 0.21661(10)
F6 F 0.62291(11) 0.11515(10) 0.31884(10)
F7 F 0.79598(14) -0.03275(10) 0.31945(13)
F8 F 0.80528(14) 0.08710(16) 0.37598(11)
O2 O 0.2781(2) 0.94153(19) 0.03590(15)
C32 C 0.3304(2) 0.99064(17) -0.03881(17)
C33 C 0.3678(3) 0.9540(3) -0.1197(2)
H27 H 0.3484 0.8863 -0.0997
H28 H 0.4597 0.9397 -0.1372
H29 H 0.3202 1.0115 -0.1761
C34 C 0.3525(4) 1.0908(3) -0.0517(3)
H30 H 0.3288 1.1013 0.0097
H31 H 0.3003 1.1548 -0.1026
H32 H 0.4431 1.0827 -0.0708
O3 O 1.2533(3) 0.1363(3) 0.2329(2)
C35 C 1.1758(2) 0.09275(19) 0.27548(17)
C36 C 1.1208(3) 0.0862(3) 0.3743(2)
H33 H 1.1600 0.1208 0.3965
H34 H 1.1377 0.0087 0.4190
H35 H 1.0283 0.1247 0.3730
C37 C 1.1251(3) 0.0450(3) 0.2305(3)
H36 H 1.1690 0.0525 0.1659
H37 H 1.0331 0.0842 0.2241
H38 H 1.1396 -0.0331 0.2718
loop_
_geom_bond_atom_site_label_1
_geom_bond_atom_site_label_2
_geom_bond_site_symmetry_1
_geom_bond_site_symmetry_2
Cu1 N1 1_555 1_555
Cu2 N10 1_555 1_555
N1 C1 1_555 1_555
C1 C2 1_555 1_555
C2 N2 1_555 1_555
N2 C3 1_555 1_555
C3 C4 1_555 1_555
C4 H1 1_555 1_555
C5 C4 1_555 1_555
H2 C5 1_555 1_555
C6 C5 1_555 1_555
H3 C6 1_555 1_555
C7 C6 1_555 1_555
H4 C7 1_555 1_555
C8 N1 1_555 1_555
N3 C1 1_555 1_555
N4 Cu1 1_555 1_555
C9 N4 1_555 1_555
H5 C9 1_555 1_555
C10 C9 1_555 1_555
H6 C10 1_555 1_555
C11 N3 1_555 1_555
H7 C11 1_555 1_555
N5 C2 1_555 1_555
N6 N5 1_555 1_555
C12 N6 1_555 1_555
H8 C12 1_555 1_555
C13 C12 1_555 1_555
H9 C13 1_555 1_555
C14 N5 1_555 1_555
H10 C14 1_555 1_555
N7 Cu1 1_555 1_555
C15 N7 1_555 1_555
C16 C15 1_555 1_555
N8 C16 1_555 1_555
C17 N8 1_555 1_555
C18 C17 1_555 1_555
H11 C18 1_555 1_555
C19 C18 1_555 1_555
H12 C19 1_555 1_555
C20 C19 1_555 1_555
H13 C20 1_555 1_555
C21 C20 1_555 1_555
H14 C21 1_555 1_555
C22 N7 1_555 1_555
N9 C15 1_555 1_555
N10 N9 1_555 1_555
C23 N10 1_555 1_555
H15 C23 1_555 1_555
C24 C23 1_555 1_555
H16 C24 1_555 1_555
C25 N9 1_555 1_555
H17 C25 1_555 1_555
N11 C16 1_555 1_555
N12 N11 1_555 1_555
C26 N12 1_555 1_555
H18 C26 1_555 1_555
C27 C26 1_555 1_555
H19 C27 1_555 1_555
C28 N11 1_555 1_555
H20 C28 1_555 1_555
O1 Cu2 1_555 1_555
C29 O1 1_555 1_555
C30 C29 1_555 1_555
H21 C30 1_555 1_555
H22 C30 1_555 1_555
H23 C30 1_555 1_555
C31 C29 1_555 1_555
H24 C31 1_555 1_555
H25 C31 1_555 1_555
H26 C31 1_555 1_555
B1 F1 1_555 1_555
F2 B1 1_555 1_555
F3 B1 1_555 1_555
F4 B1 1_555 1_555
B2 F5 1_555 1_555
F6 B2 1_555 1_555
F7 B2 1_555 1_555
F8 B2 1_555 1_555
O2 C32 1_555 1_555
C32 C33 1_555 1_555
C33 H27 1_555 1_555
H28 C33 1_555 1_555
H29 C33 1_555 1_555
C34 C32 1_555 1_555
H30 C34 1_555 1_555
H31 C34 1_555 1_555
H32 C34 1_555 1_555
O3 C35 1_555 1_555
C35 C36 1_555 1_555
C36 H33 1_555 1_555
H34 C36 1_555 1_555
H35 C36 1_555 1_555
C37 C35 1_555 1_555
H36 C37 1_555 1_555
H37 C37 1_555 1_555
H38 C37 1_555 1_555
Cu1A N6 1_555 1_555
Cu2A N8 1_555 1_555
N6A Cu1 1_555 1_555
N8A Cu2 1_555 1_555
N12A Cu2 1_555 1_555
C3 C8 1_555 1_555
C7 C8 1_555 1_555
N3 N4 1_555 1_555
C10 C11 1_555 1_555
C13 C14 1_555 1_555
C17 C22 1_555 1_555
C21 C22 1_555 1_555
C24 C25 1_555 1_555
N12 Cu2A 1_555 1_555
C27 C28 1_555 1_555

#END
