
#######################################################################
#
#                 Cambridge Crystallographic Data Centre
#                                CCDC 
#
#######################################################################
#
# If this CIF has been generated from an entry in the Cambridge 
# Structural Database, then it will include bibliographic, chemical, 
# crystal, experimental, refinement or atomic coordinate data resulting 
# from the CCDC's data processing and validation procedures.
#
#######################################################################

data_ZULFAN
_symmetry_cell_setting           triclinic
_symmetry_space_group_name_H-M   'P -1'
_symmetry_Int_Tables_number      2
_space_group_name_Hall           '-P 1'
loop_
_symmetry_equiv_pos_site_id
_symmetry_equiv_pos_as_xyz
1 x,y,z
2 -x,-y,-z
_cell_length_a                   7.444(2)
_cell_length_b                   9.761(3)
_cell_length_c                   14.885(7)
_cell_angle_alpha                90.58(3)
_cell_angle_beta                 95.61(3)
_cell_angle_gamma                100.27(3)
_cell_volume                     1058.71
loop_
_atom_site_label
_atom_site_type_symbol
_atom_site_fract_x
_atom_site_fract_y
_atom_site_fract_z
Cd1 Cd 0.4955(1) 0.2469(1) 0.2166(1)
Cd2 Cd 1.0109(1) 0.3358(1) 0.2983(1)
Cl1 Cl 0.7854(3) 0.1152(3) 0.2352(2)
Cl2 Cl 0.7418(3) 0.4626(2) 0.2117(2)
Cl3 Cl 0.2215(3) 0.3709(3) 0.1711(2)
Cl4 Cl 1.1655(3) 0.5670(3) 0.3783(2)
O1 O 0.4146(9) 0.1272(8) 0.0737(4)
O2 O 0.3019(10) 0.0270(8) 0.1919(4)
N1 N 0.2209(10) -0.2294(8) 0.0808(5)
C1 C 0.3164(11) 0.0323(10) 0.1094(6)
C2 C 0.2065(11) -0.0853(9) 0.0450(6)
C3 C 0.0053(12) -0.0649(10) 0.0283(7)
C4 C 0.4182(14) -0.2355(13) 0.1101(8)
C5 C 0.1632(18) -0.3358(13) 0.0047(8)
C6 C 0.1100(16) -0.2699(13) 0.1574(9)
O3 O 0.4876(8) 0.2473(8) 0.3692(4)
O4 O 0.1903(7) 0.2015(7) 0.3908(4)
N2 N 0.3047(9) 0.2293(8) 0.5832(5)
C7 C 0.3556(11) 0.2127(9) 0.4162(6)
C8 C 0.4169(10) 0.1757(9) 0.5141(6)
C9 C 0.4158(12) 0.0187(10) 0.5198(6)
C10 C 0.3020(14) 0.3792(11) 0.5687(7)
C11 C 0.4002(13) 0.2203(12) 0.6766(6)
C12 C 0.1126(11) 0.1473(11) 0.5814(7)
O5 O 0.8489(8) 0.2996(8) 0.4257(5)
H1 H 0.2577 -0.0768 -0.0119
H2 H -0.0420 -0.0542 0.0852
H3 H -0.0678 -0.1453 -0.0031
H4 H 0.4276 -0.3259 0.1329
H5 H 0.4889 -0.2182 0.0595
H6 H 0.4642 -0.1659 0.1567
H7 H 0.1716 -0.4272 0.0259
H8 H 0.0388 -0.3334 -0.0184
H9 H 0.2420 -0.3137 -0.0424
H10 H 0.1244 -0.3608 0.1776
H11 H 0.1500 -0.2029 0.2062
H12 H -0.0169 -0.2702 0.1378
H13 H 0.5418 0.2221 0.5277
H14 H 0.3052 -0.0318 0.4878
H15 H 0.4187 -0.0074 0.5818
H16 H 0.2312 0.4134 0.6116
H17 H 0.4253 0.4307 0.5762
H18 H 0.2479 0.3904 0.5086
H19 H 0.3305 0.2532 0.7205
H20 H 0.4092 0.1249 0.6876
H21 H 0.5209 0.2760 0.6810
H22 H 0.0489 0.1855 0.6259
H23 H 0.0484 0.1518 0.5227
H24 H 0.1183 0.0520 0.5946
H25 H 0.7219 0.2930 0.4004
H26 H 0.8467 0.3734 0.4631
C3A C -0.0053(12) 0.0649(10) -0.0283(7)
C2A C -0.2065(11) 0.0853(9) -0.0450(6)
N1A N -0.2209(10) 0.2294(8) -0.0808(5)
C4A C -0.4182(14) 0.2355(13) -0.1101(8)
H4A H -0.4276 0.3259 -0.1329
H5A H -0.4889 0.2182 -0.0595
H6A H -0.4642 0.1659 -0.1567
C5A C -0.1632(18) 0.3358(13) -0.0047(8)
H7A H -0.1716 0.4272 -0.0259
H8A H -0.0388 0.3334 0.0184
H9A H -0.2420 0.3137 0.0424
C6A C -0.1100(16) 0.2699(13) -0.1574(9)
H10A H -0.1244 0.3608 -0.1776
H11A H -0.1500 0.2029 -0.2062
H12A H 0.0169 0.2702 -0.1378
C1A C -0.3164(11) -0.0323(10) -0.1094(6)
O1A O -0.4146(9) -0.1272(8) -0.0737(4)
O2A O -0.3019(10) -0.0270(8) -0.1919(4)
H1A H -0.2577 0.0768 0.0119
H2A H 0.0420 0.0542 -0.0852
H3A H 0.0678 0.1453 0.0031
C9A C 0.5842(12) -0.0187(10) 0.4802(6)
C8A C 0.5831(10) -0.1757(9) 0.4859(6)
N2A N 0.6953(9) -0.2293(8) 0.4168(5)
C10A C 0.6980(14) -0.3792(11) 0.4313(7)
H16A H 0.7688 -0.4134 0.3884
H17A H 0.5747 -0.4307 0.4238
H18A H 0.7521 -0.3904 0.4914
C11A C 0.5998(13) -0.2203(12) 0.3234(6)
H19A H 0.6695 -0.2532 0.2795
H20A H 0.5908 -0.1249 0.3124
H21A H 0.4791 -0.2760 0.3190
C12A C 0.8874(11) -0.1473(11) 0.4186(7)
H22A H 0.9511 -0.1855 0.3741
H23A H 0.9516 -0.1518 0.4773
H24A H 0.8817 -0.0520 0.4054
C7A C 0.6444(11) -0.2127(9) 0.5838(6)
O3A O 0.5124(8) -0.2473(8) 0.6308(4)
O4A O 0.8097(7) -0.2015(7) 0.6092(4)
H13A H 0.4582 -0.2221 0.4723
H14A H 0.6948 0.0318 0.5122
H15A H 0.5813 0.0074 0.4182
Cd1A Cd -0.4955(1) -0.2469(1) -0.2166(1)
Cd2_2 Cd 0.0109(1) 0.3358(1) 0.2983(1)
Cl3_2 Cl 1.2215(3) 0.3709(3) 0.1711(2)
Cl1A Cl -0.7854(3) -0.1152(3) -0.2352(2)
Cl2A Cl -0.7418(3) -0.4626(2) -0.2117(2)
Cl4_2 Cl 0.1655(3) 0.5670(3) 0.3783(2)
O5_2 O -0.1511(8) 0.2996(8) 0.4257(5)
H25_2 H -0.2781 0.2930 0.4004
H26_2 H -0.1533 0.3734 0.4631
O4_2 O 1.1903(7) 0.2015(7) 0.3908(4)
Cd1A_2 Cd 0.5045(1) -0.2469(1) 0.7834(1)
Cd2A Cd 0.9891(1) -0.3358(1) 0.7017(1)
Cl3A Cl -0.2215(3) -0.3709(3) -0.1711(2)
O3A_2 O -0.4876(8) -0.2473(8) -0.3692(4)
Cl1_2 Cl -0.2146(3) 0.1152(3) 0.2352(2)
Cl2_2 Cl -0.2582(3) 0.4626(2) 0.2117(2)
Cd1_2 Cd 1.4955(1) 0.2469(1) 0.2166(1)
Cd2A_2 Cd -1.0109(1) -0.3358(1) -0.2983(1)
loop_
_geom_bond_atom_site_label_1
_geom_bond_atom_site_label_2
_geom_bond_site_symmetry_1
_geom_bond_site_symmetry_2
Cd1 Cl1 1_555 1_555
Cd2 Cl1 1_555 1_555
Cl2 Cd1 1_555 1_555
Cl3 Cd1 1_555 1_555
Cl4 Cd2 1_555 1_555
O1 Cd1 1_555 1_555
O2 Cd1 1_555 1_555
N1 C2 1_555 1_555
C1 O1 1_555 1_555
C2 C1 1_555 1_555
C3 C2 1_555 1_555
C4 N1 1_555 1_555
C5 N1 1_555 1_555
C6 N1 1_555 1_555
O3 Cd1 1_555 1_555
O4 C7 1_555 1_555
N2 C8 1_555 1_555
C7 O3 1_555 1_555
C8 C7 1_555 1_555
C9 C8 1_555 1_555
C10 N2 1_555 1_555
C11 N2 1_555 1_555
C12 N2 1_555 1_555
O5 Cd2 1_555 1_555
H1 C2 1_555 1_555
H2 C3 1_555 1_555
H3 C3 1_555 1_555
H4 C4 1_555 1_555
H5 C4 1_555 1_555
H6 C4 1_555 1_555
H7 C5 1_555 1_555
H8 C5 1_555 1_555
H9 C5 1_555 1_555
H10 C6 1_555 1_555
H11 C6 1_555 1_555
H12 C6 1_555 1_555
H13 C8 1_555 1_555
H14 C9 1_555 1_555
H15 C9 1_555 1_555
H16 C10 1_555 1_555
H17 C10 1_555 1_555
H18 C10 1_555 1_555
H19 C11 1_555 1_555
H20 C11 1_555 1_555
H21 C11 1_555 1_555
H22 C12 1_555 1_555
H23 C12 1_555 1_555
H24 C12 1_555 1_555
H25 O5 1_555 1_555
H26 O5 1_555 1_555
C3A C3 1_555 1_555
C2A C3A 1_555 1_555
N1A C2A 1_555 1_555
C4A N1A 1_555 1_555
H4A C4A 1_555 1_555
H5A C4A 1_555 1_555
H6A C4A 1_555 1_555
C5A N1A 1_555 1_555
H7A C5A 1_555 1_555
H8A C5A 1_555 1_555
H9A C5A 1_555 1_555
C6A N1A 1_555 1_555
H10A C6A 1_555 1_555
H11A C6A 1_555 1_555
H12A C6A 1_555 1_555
C1A C2A 1_555 1_555
O1A C1A 1_555 1_555
O2A C1A 1_555 1_555
H1A C2A 1_555 1_555
H2A C3A 1_555 1_555
H3A C3A 1_555 1_555
C9A C9 1_555 1_555
C8A C9A 1_555 1_555
N2A C8A 1_555 1_555
C10A N2A 1_555 1_555
H16A C10A 1_555 1_555
H17A C10A 1_555 1_555
H18A C10A 1_555 1_555
C11A N2A 1_555 1_555
H19A C11A 1_555 1_555
H20A C11A 1_555 1_555
H21A C11A 1_555 1_555
C12A N2A 1_555 1_555
H22A C12A 1_555 1_555
H23A C12A 1_555 1_555
H24A C12A 1_555 1_555
C7A C8A 1_555 1_555
O3A C7A 1_555 1_555
O4A C7A 1_555 1_555
H13A C8A 1_555 1_555
H14A C9A 1_555 1_555
H15A C9A 1_555 1_555
Cd1A O1A 1_555 1_555
Cd2_2 Cl3 1_555 1_555
Cl3_2 Cd2 1_555 1_555
Cl1A Cd1A 1_555 1_555
Cl2A Cd1A 1_555 1_555
Cl4_2 Cd2_2 1_555 1_555
O5_2 Cd2_2 1_555 1_555
H25_2 O5_2 1_555 1_555
H26_2 O5_2 1_555 1_555
O4_2 Cd2 1_555 1_555
Cd1A_2 O3A 1_555 1_555
Cd2A O4A 1_555 1_555
Cl3A Cd1A 1_555 1_555
O3A_2 Cd1A 1_555 1_555
Cl1_2 Cd2_2 1_555 1_555
Cl2_2 Cd2_2 1_555 1_555
Cd1_2 Cl3_2 1_555 1_555
Cd2A_2 Cl1A 1_555 1_555
Cd2 Cl2 1_555 1_555
O2 C1 1_555 1_555
O4 Cd2_2 1_555 1_555
O2A Cd1A 1_555 1_555
Cl2A Cd2A_2 1_555 1_555

#END
