
#######################################################################
#
#                 Cambridge Crystallographic Data Centre
#                                CCDC 
#
#######################################################################
#
# If this CIF has been generated from an entry in the Cambridge 
# Structural Database, then it will include bibliographic, chemical, 
# crystal, experimental, refinement or atomic coordinate data resulting 
# from the CCDC's data processing and validation procedures.
#
#######################################################################

data_ZULFER
_symmetry_cell_setting           triclinic
_symmetry_space_group_name_H-M   'P -1'
_symmetry_Int_Tables_number      2
_space_group_name_Hall           '-P 1'
loop_
_symmetry_equiv_pos_site_id
_symmetry_equiv_pos_as_xyz
1 x,y,z
2 -x,-y,-z
_cell_length_a                   10.145(2)
_cell_length_b                   10.787(3)
_cell_length_c                   11.876(3)
_cell_angle_alpha                74.93(2)
_cell_angle_beta                 68.96(2)
_cell_angle_gamma                73.14(2)
_cell_volume                     1143.04
loop_
_atom_site_label
_atom_site_type_symbol
_atom_site_fract_x
_atom_site_fract_y
_atom_site_fract_z
Cd1 Cd 0.4279(1) 0.3992(1) 0.1765(1)
Cd2 Cd 0.0307(1) 0.8851(1) 0.1490(1)
Br1 Br 0.3755(1) 0.4561(1) -0.0588(1)
Br2 Br 0.4564(1) 0.3316(1) 0.3968(1)
Br3 Br -0.0739(1) 0.8685(1) -0.0180(1)
Br4 Br -0.0361(2) 0.9289(1) 0.3647(1)
O1 O 0.5376(7) 0.1839(6) 0.1355(5)
O2 O 0.3010(7) 0.2220(6) 0.2096(5)
N1 N 0.4544(8) -0.0826(7) 0.2891(6)
C1 C 0.4183(10) 0.1487(9) 0.1722(7)
C2 C 0.4210(9) 0.0042(8) 0.1728(7)
C3 C 0.5232(10) -0.0407(9) 0.0554(7)
C4 C 0.3496(11) -0.0257(11) 0.4002(8)
C5 C 0.4340(13) -0.2165(10) 0.3022(9)
C6 C 0.6038(12) -0.0909(13) 0.2867(10)
O3 O 0.2206(6) 0.5598(6) 0.2244(5)
O4 O -0.0035(7) 0.6724(6) 0.2351(6)
N2 N -0.0775(8) 0.4156(7) 0.2966(6)
C7 C 0.0856(9) 0.5710(8) 0.2598(7)
C8 C 0.0254(8) 0.4523(8) 0.3457(6)
C9 C -0.0529(9) 0.4871(9) 0.4748(7)
C10 C -0.0116(11) 0.4202(11) 0.1606(8)
C11 C -0.2268(10) 0.5003(11) 0.3214(9)
C12 C -0.0869(14) 0.2734(10) 0.3531(10)
O5 O 0.2695(6) 0.7970(6) 0.0935(6)
H1 H 0.3255 0.0004 0.1784
H2 H 0.5254 -0.1313 0.0596
H3 H 0.6190 -0.0335 0.0455
H4 H 0.3704 -0.0787 0.4730
H5 H 0.3603 0.0620 0.3923
H6 H 0.2522 -0.0233 0.4056
H7 H 0.4554 -0.2712 0.3741
H8 H 0.3355 -0.2116 0.3088
H9 H 0.4977 -0.2534 0.2312
H10 H 0.6198 -0.1455 0.3607
H11 H 0.6717 -0.1284 0.2174
H12 H 0.6168 -0.0045 0.2809
H13 H 0.1048 0.3785 0.3501
H14 H -0.0947 0.4155 0.5287
H15 H -0.1295 0.5637 0.4712
H16 H -0.0756 0.3976 0.1299
H17 H 0.0030 0.5070 0.1208
H18 H 0.0796 0.3581 0.1443
H19 H -0.2833 0.4710 0.2879
H20 H -0.2715 0.4948 0.4083
H21 H -0.2215 0.5898 0.2843
H22 H -0.1504 0.2476 0.3243
H23 H 0.0079 0.2177 0.3301
H24 H -0.1234 0.2651 0.4407
H25 H 0.3296 0.8033 0.0218
H26 H 0.2539 0.7226 0.1348
Br1A Br 0.6245(1) 0.5439(1) 0.0588(1)
Br3A Br 0.0739(1) 1.1315(1) 0.0180(1)
Cd1A Cd 0.5721(1) 0.6008(1) -0.1765(1)
Cd2A Cd -0.0307(1) 1.1149(1) -0.1490(1)
C3A C 0.4768(10) 0.0407(9) -0.0554(7)
C9A C 0.0529(9) 0.5129(9) 0.5252(7)
C2A C 0.5790(9) -0.0042(8) -0.1728(7)
H2A H 0.4746 0.1313 -0.0596
H3A H 0.3810 0.0335 -0.0455
C8A C -0.0254(8) 0.5477(8) 0.6543(6)
H14A H 0.0947 0.5845 0.4713
H15A H 0.1295 0.4363 0.5288
N1A N 0.5456(8) 0.0826(7) -0.2891(6)
C1A C 0.5817(10) -0.1487(9) -0.1722(7)
H1A H 0.6745 -0.0004 -0.1784
N2A N 0.0775(8) 0.5844(7) 0.7034(6)
C7A C -0.0856(9) 0.4290(8) 0.7402(7)
H13A H -0.1048 0.6215 0.6499
C4A C 0.6504(11) 0.0257(11) -0.4002(8)
C5A C 0.5660(13) 0.2165(10) -0.3022(9)
C6A C 0.3962(12) 0.0909(13) -0.2867(10)
O1A O 0.4624(7) -0.1839(6) -0.1355(5)
O2A O 0.6990(7) -0.2220(6) -0.2096(5)
C10A C 0.0116(11) 0.5798(11) 0.8394(8)
C11A C 0.2268(10) 0.4997(11) 0.6786(9)
C12A C 0.0869(14) 0.7266(10) 0.6469(10)
O3A O -0.2206(6) 0.4402(6) 0.7756(5)
O4A O 0.0035(7) 0.3276(6) 0.7649(6)
H4A H 0.6296 0.0787 -0.4730
H5A H 0.6397 -0.0620 -0.3923
H6A H 0.7478 0.0233 -0.4056
H7A H 0.5446 0.2712 -0.3741
H8A H 0.6645 0.2116 -0.3088
H9A H 0.5023 0.2534 -0.2312
H10A H 0.3802 0.1455 -0.3607
H11A H 0.3283 0.1284 -0.2174
H12A H 0.3832 0.0045 -0.2809
Cd1A_2 Cd 0.5721(1) -0.3992(1) -0.1765(1)
H16A H 0.0756 0.6024 0.8701
H17A H -0.0030 0.4930 0.8792
H18A H -0.0796 0.6419 0.8557
H19A H 0.2833 0.5290 0.7121
H20A H 0.2715 0.5052 0.5917
H21A H 0.2215 0.4102 0.7157
H22A H 0.1504 0.7524 0.6757
H23A H -0.0079 0.7823 0.6699
H24A H 0.1234 0.7349 0.5593
Cd1A_3 Cd -0.4279(1) 0.6008(1) 0.8235(1)
Cd2A_2 Cd -0.0307(1) 0.1149(1) 0.8510(1)
Br2A Br 0.5436(1) 0.6684(1) -0.3968(1)
O1A_2 O 0.4624(7) 0.8161(6) -0.1355(5)
O2A_2 O 0.6990(7) 0.7780(6) -0.2096(5)
O3A_2 O 0.7794(6) 0.4402(6) -0.2244(5)
Br3_2 Br -0.0739(1) -0.1315(1) 0.9820(1)
Br3A_2 Br 0.0739(1) 0.1315(1) 1.0180(1)
Br4A Br 0.0361(2) 0.0711(1) 0.6353(1)
O5A O -0.2695(6) 0.2030(6) 0.9065(6)
H25A H -0.3296 0.1967 0.9782
H26A H -0.2539 0.2774 0.8652
loop_
_geom_bond_atom_site_label_1
_geom_bond_atom_site_label_2
_geom_bond_site_symmetry_1
_geom_bond_site_symmetry_2
Cd1 Br1 1_555 1_555
Cd2 Br3 1_555 1_555
Br1 Cd1A 1_555 1_555
Br2 Cd1 1_555 1_555
Br3 Cd2A 1_555 1_555
Br4 Cd2 1_555 1_555
O1 Cd1 1_555 1_555
O2 Cd1 1_555 1_555
N1 C2 1_555 1_555
C1 O1 1_555 1_555
C2 C1 1_555 1_555
C3 C2 1_555 1_555
C4 N1 1_555 1_555
C5 N1 1_555 1_555
C6 N1 1_555 1_555
O3 Cd1 1_555 1_555
O4 Cd2 1_555 1_555
N2 C8 1_555 1_555
C7 O3 1_555 1_555
C8 C7 1_555 1_555
C9 C8 1_555 1_555
C10 N2 1_555 1_555
C11 N2 1_555 1_555
C12 N2 1_555 1_555
O5 Cd2 1_555 1_555
H1 C2 1_555 1_555
H2 C3 1_555 1_555
H3 C3 1_555 1_555
H4 C4 1_555 1_555
H5 C4 1_555 1_555
H6 C4 1_555 1_555
H7 C5 1_555 1_555
H8 C5 1_555 1_555
H9 C5 1_555 1_555
H10 C6 1_555 1_555
H11 C6 1_555 1_555
H12 C6 1_555 1_555
H13 C8 1_555 1_555
H14 C9 1_555 1_555
H15 C9 1_555 1_555
H16 C10 1_555 1_555
H17 C10 1_555 1_555
H18 C10 1_555 1_555
H19 C11 1_555 1_555
H20 C11 1_555 1_555
H21 C11 1_555 1_555
H22 C12 1_555 1_555
H23 C12 1_555 1_555
H24 C12 1_555 1_555
H25 O5 1_555 1_555
H26 O5 1_555 1_555
Br1A Cd1 1_555 1_555
Br3A Cd2 1_555 1_555
Cd1A Br1A 1_555 1_555
Cd2A Br3A 1_555 1_555
C3A C3 1_555 1_555
C9A C9 1_555 1_555
C2A C3A 1_555 1_555
H2A C3A 1_555 1_555
H3A C3A 1_555 1_555
C8A C9A 1_555 1_555
H14A C9A 1_555 1_555
H15A C9A 1_555 1_555
N1A C2A 1_555 1_555
C1A C2A 1_555 1_555
H1A C2A 1_555 1_555
N2A C8A 1_555 1_555
C7A C8A 1_555 1_555
H13A C8A 1_555 1_555
C4A N1A 1_555 1_555
C5A N1A 1_555 1_555
C6A N1A 1_555 1_555
O1A C1A 1_555 1_555
O2A C1A 1_555 1_555
C10A N2A 1_555 1_555
C11A N2A 1_555 1_555
C12A N2A 1_555 1_555
O3A C7A 1_555 1_555
O4A C7A 1_555 1_555
H4A C4A 1_555 1_555
H5A C4A 1_555 1_555
H6A C4A 1_555 1_555
H7A C5A 1_555 1_555
H8A C5A 1_555 1_555
H9A C5A 1_555 1_555
H10A C6A 1_555 1_555
H11A C6A 1_555 1_555
H12A C6A 1_555 1_555
Cd1A_2 O1A 1_555 1_555
H16A C10A 1_555 1_555
H17A C10A 1_555 1_555
H18A C10A 1_555 1_555
H19A C11A 1_555 1_555
H20A C11A 1_555 1_555
H21A C11A 1_555 1_555
H22A C12A 1_555 1_555
H23A C12A 1_555 1_555
H24A C12A 1_555 1_555
Cd1A_3 O3A 1_555 1_555
Cd2A_2 O4A 1_555 1_555
Br2A Cd1A 1_555 1_555
O1A_2 Cd1A 1_555 1_555
O2A_2 Cd1A 1_555 1_555
O3A_2 Cd1A 1_555 1_555
Br3_2 Cd2A_2 1_555 1_555
Br3A_2 Cd2A_2 1_555 1_555
Br4A Cd2A_2 1_555 1_555
O5A Cd2A_2 1_555 1_555
H25A O5A 1_555 1_555
H26A O5A 1_555 1_555
O2 C1 1_555 1_555
O4 C7 1_555 1_555
O2A Cd1A_2 1_555 1_555

#END
