
#######################################################################
#
#                 Cambridge Crystallographic Data Centre
#                                CCDC 
#
#######################################################################
#
# If this CIF has been generated from an entry in the Cambridge 
# Structural Database, then it will include bibliographic, chemical, 
# crystal, experimental, refinement or atomic coordinate data resulting 
# from the CCDC's data processing and validation procedures.
#
#######################################################################

data_ZULFIV
_symmetry_cell_setting           triclinic
_symmetry_space_group_name_H-M   'P -1'
_symmetry_Int_Tables_number      2
_space_group_name_Hall           '-P 1'
loop_
_symmetry_equiv_pos_site_id
_symmetry_equiv_pos_as_xyz
1 x,y,z
2 -x,-y,-z
_cell_length_a                   10.402(2)
_cell_length_b                   11.029(2)
_cell_length_c                   12.494(3)
_cell_angle_alpha                74.61(2)
_cell_angle_beta                 68.06(2)
_cell_angle_gamma                73.02(2)
_cell_volume                     1251.7
loop_
_atom_site_label
_atom_site_type_symbol
_atom_site_fract_x
_atom_site_fract_y
_atom_site_fract_z
Cd1 Cd 0.4274(1) 0.3937(1) 0.1776(1)
Cd2 Cd 0.0337(1) 0.8783(1) 0.1504(1)
I1 I 0.3587(1) 0.4638(1) -0.0579(1)
I2 I 0.4631(1) 0.3168(1) 0.3997(1)
I3 I -0.0697(1) 0.8535(1) -0.0168(1)
I4 I -0.0515(1) 0.9315(1) 0.3694(1)
O1 O 0.5359(5) 0.1861(4) 0.1228(4)
O2 O 0.3046(5) 0.2188(4) 0.2060(4)
N1 N 0.4536(6) -0.0763(5) 0.2766(4)
C1 C 0.4209(8) 0.1492(6) 0.1635(5)
C2 C 0.4231(8) 0.0081(6) 0.1639(5)
C3 C 0.5180(8) -0.0369(6) 0.0538(5)
C4 C 0.3479(9) -0.0259(8) 0.3808(6)
C5 C 0.4425(12) -0.2117(7) 0.2874(7)
C6 C 0.5992(9) -0.0807(10) 0.2747(8)
O3 O 0.2243(4) 0.5522(4) 0.2321(4)
O4 O 0.0078(5) 0.6664(4) 0.2420(4)
N2 N -0.0720(6) 0.4185(5) 0.3051(5)
C7 C 0.0916(7) 0.5660(5) 0.2663(5)
C8 C 0.0266(7) 0.4553(6) 0.3517(5)
C9 C -0.0514(7) 0.4918(7) 0.4738(5)
C10 C -0.0052(8) 0.4199(8) 0.1751(6)
C11 C -0.2166(7) 0.5083(7) 0.3258(6)
C12 C -0.0912(10) 0.2846(7) 0.3629(8)
O5 O 0.2690(4) 0.7900(4) 0.0995(4)
H1 H 0.3287 0.0055 0.1712
H2 H 0.5168 -0.1256 0.0614
H3 H 0.6131 -0.0332 0.0435
H4 H 0.3673 -0.0785 0.4501
H5 H 0.3530 0.0610 0.3760
H6 H 0.2546 -0.0273 0.3842
H7 H 0.4615 -0.2630 0.3573
H8 H 0.3486 -0.2121 0.2916
H9 H 0.5104 -0.2468 0.2203
H10 H 0.6144 -0.1336 0.3453
H11 H 0.6681 -0.1164 0.2082
H12 H 0.6087 0.0049 0.2692
H13 H 0.1024 0.3819 0.3577
H14 H -0.1002 0.4256 0.5245
H15 H -0.1208 0.5706 0.4681
H16 H -0.0670 0.3969 0.1464
H17 H 0.0098 0.5046 0.1359
H18 H 0.0842 0.3591 0.1602
H19 H -0.2731 0.4806 0.2951
H20 H -0.2625 0.5071 0.4084
H21 H -0.2060 0.5942 0.2870
H22 H -0.1527 0.2616 0.3339
H23 H -0.0007 0.2256 0.3457
H24 H -0.1326 0.2807 0.4461
H25 H 0.3290 0.7976 0.0310
H26 H 0.2550 0.7171 0.1403
I1A I 0.6413(1) 0.5362(1) 0.0579(1)
I3A I 0.0697(1) 1.1465(1) 0.0168(1)
Cd1A Cd 0.5726(1) 0.6063(1) -0.1776(1)
Cd2A Cd -0.0337(1) 1.1217(1) -0.1504(1)
C3A C 0.4820(8) 0.0369(6) -0.0538(5)
C9A C 0.0514(7) 0.5082(7) 0.5262(5)
C2A C 0.5769(8) -0.0081(6) -0.1639(5)
H2A H 0.4832 0.1256 -0.0614
H3A H 0.3869 0.0332 -0.0435
C8A C -0.0266(7) 0.5447(6) 0.6483(5)
H14A H 0.1002 0.5744 0.4755
H15A H 0.1208 0.4294 0.5319
N1A N 0.5464(6) 0.0763(5) -0.2766(4)
C1A C 0.5791(8) -0.1492(6) -0.1635(5)
H1A H 0.6713 -0.0055 -0.1712
N2A N 0.0720(6) 0.5815(5) 0.6949(5)
C7A C -0.0916(7) 0.4340(5) 0.7337(5)
H13A H -0.1024 0.6181 0.6423
C4A C 0.6521(9) 0.0259(8) -0.3808(6)
C5A C 0.5575(12) 0.2117(7) -0.2874(7)
C6A C 0.4008(9) 0.0807(10) -0.2747(8)
O1A O 0.4641(5) -0.1861(4) -0.1228(4)
O2A O 0.6954(5) -0.2188(4) -0.2060(4)
C10A C 0.0052(8) 0.5801(8) 0.8249(6)
C11A C 0.2166(7) 0.4917(7) 0.6742(6)
C12A C 0.0912(10) 0.7154(7) 0.6371(8)
O3A O -0.2243(4) 0.4478(4) 0.7679(4)
O4A O -0.0078(5) 0.3336(4) 0.7580(4)
H4A H 0.6327 0.0785 -0.4501
H5A H 0.6470 -0.0610 -0.3760
H6A H 0.7454 0.0273 -0.3842
H7A H 0.5385 0.2630 -0.3573
H8A H 0.6514 0.2121 -0.2916
H9A H 0.4896 0.2468 -0.2203
H10A H 0.3856 0.1336 -0.3453
H11A H 0.3319 0.1164 -0.2082
H12A H 0.3913 -0.0049 -0.2692
Cd1A_2 Cd 0.5726(1) -0.3937(1) -0.1776(1)
H16A H 0.0670 0.6031 0.8536
H17A H -0.0098 0.4954 0.8641
H18A H -0.0842 0.6409 0.8398
H19A H 0.2731 0.5194 0.7049
H20A H 0.2625 0.4929 0.5916
H21A H 0.2060 0.4058 0.7130
H22A H 0.1527 0.7384 0.6661
H23A H 0.0007 0.7744 0.6543
H24A H 0.1326 0.7193 0.5539
Cd1A_3 Cd -0.4274(1) 0.6063(1) 0.8224(1)
Cd2A_2 Cd -0.0337(1) 0.1217(1) 0.8496(1)
I2A I 0.5369(1) 0.6832(1) -0.3997(1)
O1A_2 O 0.4641(5) 0.8139(4) -0.1228(4)
O2A_2 O 0.6954(5) 0.7812(4) -0.2060(4)
O3A_2 O 0.7757(4) 0.4478(4) -0.2321(4)
I3_2 I -0.0697(1) -0.1465(1) 0.9832(1)
I3A_2 I 0.0697(1) 0.1465(1) 1.0168(1)
I4A I 0.0515(1) 0.0685(1) 0.6306(1)
O5A O -0.2690(4) 0.2100(4) 0.9005(4)
H25A H -0.3290 0.2024 0.9690
H26A H -0.2550 0.2829 0.8597
loop_
_geom_bond_atom_site_label_1
_geom_bond_atom_site_label_2
_geom_bond_site_symmetry_1
_geom_bond_site_symmetry_2
Cd1 I1 1_555 1_555
Cd2 I3 1_555 1_555
I1 Cd1A 1_555 1_555
I2 Cd1 1_555 1_555
I3 Cd2A 1_555 1_555
I4 Cd2 1_555 1_555
O1 Cd1 1_555 1_555
O2 Cd1 1_555 1_555
N1 C2 1_555 1_555
C1 O1 1_555 1_555
C2 C1 1_555 1_555
C3 C2 1_555 1_555
C4 N1 1_555 1_555
C5 N1 1_555 1_555
C6 N1 1_555 1_555
O3 Cd1 1_555 1_555
O4 Cd2 1_555 1_555
N2 C8 1_555 1_555
C7 O3 1_555 1_555
C8 C7 1_555 1_555
C9 C8 1_555 1_555
C10 N2 1_555 1_555
C11 N2 1_555 1_555
C12 N2 1_555 1_555
O5 Cd2 1_555 1_555
H1 C2 1_555 1_555
H2 C3 1_555 1_555
H3 C3 1_555 1_555
H4 C4 1_555 1_555
H5 C4 1_555 1_555
H6 C4 1_555 1_555
H7 C5 1_555 1_555
H8 C5 1_555 1_555
H9 C5 1_555 1_555
H10 C6 1_555 1_555
H11 C6 1_555 1_555
H12 C6 1_555 1_555
H13 C8 1_555 1_555
H14 C9 1_555 1_555
H15 C9 1_555 1_555
H16 C10 1_555 1_555
H17 C10 1_555 1_555
H18 C10 1_555 1_555
H19 C11 1_555 1_555
H20 C11 1_555 1_555
H21 C11 1_555 1_555
H22 C12 1_555 1_555
H23 C12 1_555 1_555
H24 C12 1_555 1_555
H25 O5 1_555 1_555
H26 O5 1_555 1_555
I1A Cd1 1_555 1_555
I3A Cd2 1_555 1_555
Cd1A I1A 1_555 1_555
Cd2A I3A 1_555 1_555
C3A C3 1_555 1_555
C9A C9 1_555 1_555
C2A C3A 1_555 1_555
H2A C3A 1_555 1_555
H3A C3A 1_555 1_555
C8A C9A 1_555 1_555
H14A C9A 1_555 1_555
H15A C9A 1_555 1_555
N1A C2A 1_555 1_555
C1A C2A 1_555 1_555
H1A C2A 1_555 1_555
N2A C8A 1_555 1_555
C7A C8A 1_555 1_555
H13A C8A 1_555 1_555
C4A N1A 1_555 1_555
C5A N1A 1_555 1_555
C6A N1A 1_555 1_555
O1A C1A 1_555 1_555
O2A C1A 1_555 1_555
C10A N2A 1_555 1_555
C11A N2A 1_555 1_555
C12A N2A 1_555 1_555
O3A C7A 1_555 1_555
O4A C7A 1_555 1_555
H4A C4A 1_555 1_555
H5A C4A 1_555 1_555
H6A C4A 1_555 1_555
H7A C5A 1_555 1_555
H8A C5A 1_555 1_555
H9A C5A 1_555 1_555
H10A C6A 1_555 1_555
H11A C6A 1_555 1_555
H12A C6A 1_555 1_555
Cd1A_2 O1A 1_555 1_555
H16A C10A 1_555 1_555
H17A C10A 1_555 1_555
H18A C10A 1_555 1_555
H19A C11A 1_555 1_555
H20A C11A 1_555 1_555
H21A C11A 1_555 1_555
H22A C12A 1_555 1_555
H23A C12A 1_555 1_555
H24A C12A 1_555 1_555
Cd1A_3 O3A 1_555 1_555
Cd2A_2 O4A 1_555 1_555
I2A Cd1A 1_555 1_555
O1A_2 Cd1A 1_555 1_555
O2A_2 Cd1A 1_555 1_555
O3A_2 Cd1A 1_555 1_555
I3_2 Cd2A_2 1_555 1_555
I3A_2 Cd2A_2 1_555 1_555
I4A Cd2A_2 1_555 1_555
O5A Cd2A_2 1_555 1_555
H25A O5A 1_555 1_555
H26A O5A 1_555 1_555
O2 C1 1_555 1_555
O4 C7 1_555 1_555
O2A Cd1A_2 1_555 1_555

#END
