
#######################################################################
#
#                 Cambridge Crystallographic Data Centre
#                                CCDC 
#
#######################################################################
#
# If this CIF has been generated from an entry in the Cambridge 
# Structural Database, then it will include bibliographic, chemical, 
# crystal, experimental, refinement or atomic coordinate data resulting 
# from the CCDC's data processing and validation procedures.
#
#######################################################################

data_ZULFOD
_symmetry_cell_setting           hexagonal
_symmetry_space_group_name_H-M   'P 63'
_symmetry_Int_Tables_number      173
_space_group_name_Hall           'P 6c'
loop_
_symmetry_equiv_pos_site_id
_symmetry_equiv_pos_as_xyz
1 x,y,z
2 -y,x-y,z
3 -x+y,-x,z
4 -x,-y,1/2+z
5 y,-x+y,1/2+z
6 x-y,x,1/2+z
_cell_length_a                   18.1621(6)
_cell_length_b                   18.1621(6)
_cell_length_c                   6.168(7)
_cell_angle_alpha                90
_cell_angle_beta                 90
_cell_angle_gamma                120
_cell_volume                     1762
loop_
_atom_site_label
_atom_site_type_symbol
_atom_site_fract_x
_atom_site_fract_y
_atom_site_fract_z
Ni1 Ni 0.76022(6) 0.82914(5) 0.06333(19)
P1 P 0.75872(13) 0.77979(12) 0.5404(5)
C1 C 0.6622(5) 0.7036(5) 0.3989(14)
H1 H 0.6703 0.6592 0.3359
H2 H 0.6155 0.6773 0.5012
C2 C 0.5659(5) 0.6886(5) 0.088(2)
H3 H 0.5843 0.6595 -0.0136
C3 C 0.5387(6) 0.7410(6) -0.0435(13)
H4 H 0.5213 0.7711 0.0522
H5 H 0.4920 0.7042 -0.1357
H6 H 0.5855 0.7809 -0.1309
C4 C 0.4919(6) 0.6203(6) 0.2205(16)
C5 C 0.4604(6) 0.6404(6) 0.4040(17)
H7 H 0.4841 0.6969 0.4458
C6 C 0.3952(5) 0.5783(6) 0.524(2)
H8 H 0.3763 0.5930 0.6479
C7 C 0.3580(6) 0.4945(6) 0.4620(16)
H9 H 0.3142 0.4522 0.5434
C8 C 0.3866(6) 0.4745(7) 0.2772(18)
H10 H 0.3605 0.4182 0.2317
C9 C 0.4535(6) 0.5362(6) 0.1573(14)
H11 H 0.4725 0.5210 0.0345
N1 N 0.6411(4) 0.7464(4) 0.2259(11)
H12 H 0.6259 0.7798 0.2968
O1 O 0.8081(3) 0.8498(4) 0.3730(9)
O2 O 0.7292(4) 0.8116(4) 0.7337(8)
O3 O 0.8067(3) 0.7349(3) 0.6111(9)
O4 O 0.7765(3) 0.7231(3) 0.0412(13)
H13 H 0.8165 0.7294 0.1245
H14 H 0.7877 0.7176 -0.0895
O5 O 0.8861(3) 0.9086(3) -0.0281(8)
H15 H 0.9068 0.8773 -0.0617
H16 H 0.8952 0.9449 -0.1266
Ni1_2 Ni 0.76022(6) 0.82914(5) 1.06333(19)
Ni1E Ni 0.93108(8) 0.76022(6) 0.56333(19)
O2_2 O 0.7292(4) 0.8116(4) -0.2663(8)
O3D O 0.7349(3) 0.9282(4) 0.1111(9)
loop_
_geom_bond_atom_site_label_1
_geom_bond_atom_site_label_2
_geom_bond_site_symmetry_1
_geom_bond_site_symmetry_2
Ni1 N1 1_555 1_555
P1 C1 1_555 1_555
C1 H1 1_555 1_555
H2 C1 1_555 1_555
C2 H3 1_555 1_555
C3 C2 1_555 1_555
H4 C3 1_555 1_555
H5 C3 1_555 1_555
H6 C3 1_555 1_555
C4 C2 1_555 1_555
C5 C4 1_555 1_555
H7 C5 1_555 1_555
C6 C5 1_555 1_555
H8 C6 1_555 1_555
C7 C6 1_555 1_555
H9 C7 1_555 1_555
C8 C7 1_555 1_555
H10 C8 1_555 1_555
C9 C4 1_555 1_555
H11 C9 1_555 1_555
N1 C1 1_555 1_555
H12 N1 1_555 1_555
O1 Ni1 1_555 1_555
O2 P1 1_555 1_555
O3 P1 1_555 1_555
O4 Ni1 1_555 1_555
H13 O4 1_555 1_555
H14 O4 1_555 1_555
O5 Ni1 1_555 1_555
H15 O5 1_555 1_555
H16 O5 1_555 1_555
Ni1_2 O2 1_555 1_555
Ni1E O3 1_555 1_555
O2_2 Ni1 1_555 1_555
O3D Ni1 1_555 1_555
P1 O1 1_555 1_555
C2 N1 1_555 1_555
C8 C9 1_555 1_555

#END
