
#######################################################################
#
#                 Cambridge Crystallographic Data Centre
#                                CCDC 
#
#######################################################################
#
# If this CIF has been generated from an entry in the Cambridge 
# Structural Database, then it will include bibliographic, chemical, 
# crystal, experimental, refinement or atomic coordinate data resulting 
# from the CCDC's data processing and validation procedures.
#
#######################################################################

data_ZULGIY
_symmetry_cell_setting           monoclinic
_symmetry_space_group_name_H-M   'P 21/c'
_symmetry_Int_Tables_number      14
_space_group_name_Hall           '-P 2ybc'
loop_
_symmetry_equiv_pos_site_id
_symmetry_equiv_pos_as_xyz
1 x,y,z
2 -x,1/2+y,1/2-z
3 -x,-y,-z
4 x,1/2-y,1/2+z
_cell_length_a                   10.9675(14)
_cell_length_b                   9.6145(12)
_cell_length_c                   9.9881(12)
_cell_angle_alpha                90
_cell_angle_beta                 114.179(2)
_cell_angle_gamma                90
_cell_volume                     960.817
loop_
_atom_site_label
_atom_site_type_symbol
_atom_site_fract_x
_atom_site_fract_y
_atom_site_fract_z
C1 C 0.4440(10) 0.4733(10) 0.4271(12)
O1 O 0.4889(6) 0.3567(7) -0.1096(7)
O2 O 0.3392(7) 0.4370(8) 0.4319(8)
O3 O 1.1080(7) 0.5733(7) 0.6623(8)
O4 O 0.7106(6) 0.3122(8) 0.4282(8)
Dy1 Dy 0.69064(4) 0.54269(4) 0.33098(4)
O5 O 0.4723(8) 0.4736(7) 0.3183(9)
O6 O 0.8899(6) 0.6071(7) 0.5354(8)
O7 O 0.6270(6) 0.3972(7) 0.1220(7)
O8 O 0.6670(8) 0.7816(8) 0.3836(8)
C2 C 0.9989(11) 0.5531(9) 0.5564(12)
C3 C 0.5315(9) 0.4273(10) 0.0016(10)
O9 O 0.7966(7) 0.6822(8) 0.2028(8)
H1 H 0.6151 0.8354 0.3151
H2 H 0.7293 0.8238 0.4563
H3 H 0.7708 0.2518 0.4718
H4 H 0.6336 0.2925 0.4244
H5 H 0.7603 0.7507 0.2246
H6 H 0.8782 0.6694 0.2569
C1B C 0.5560(10) 0.5267(10) 0.5729(12)
O2B O 0.6608(7) 0.5630(8) 0.5681(8)
O5B O 0.5277(8) 0.5264(7) 0.6817(9)
O1B O 0.5111(6) 0.6433(7) 0.1096(7)
O7B O 0.3730(6) 0.6028(7) -0.1220(7)
C3B C 0.4685(9) 0.5727(10) -0.0016(10)
O3B O 0.8920(7) 0.4267(7) 0.3377(8)
O6B O 1.1101(6) 0.3929(7) 0.4646(8)
C2B C 1.0011(11) 0.4469(9) 0.4436(12)
O4B O 0.2894(6) 0.6878(8) -0.4282(8)
Dy1B Dy 0.30936(4) 0.45731(4) -0.33098(4)
O8B O 0.3330(8) 0.2184(8) -0.3836(8)
O9B O 0.2034(7) 0.3178(8) -0.2028(8)
H1B H 0.3849 0.1646 -0.3151
H2B H 0.2707 0.1762 -0.4563
H3B H 0.2292 0.7482 -0.4718
H4B H 0.3664 0.7075 -0.4244
H5B H 0.2397 0.2493 -0.2246
H6B H 0.1218 0.3306 -0.2569
O2_2 O 0.3392(7) 0.4370(8) -0.5681(8)
O3_2 O 0.1080(7) 0.5733(7) -0.3377(8)
Dy1B_2 Dy 0.30936(4) 0.45731(4) 0.66902(4)
Dy1B_3 Dy 1.30936(4) 0.45731(4) 0.66902(4)
O5B_2 O 0.5277(8) 0.5264(7) -0.3183(9)
O6B_2 O 0.1101(6) 0.3929(7) -0.5354(8)
O10 O 0.9219(11) 0.3152(15) 0.7108(15)
H7 H 0.9376 0.2424 0.6629
H8 H 0.8413 0.3345 0.7053
loop_
_geom_bond_atom_site_label_1
_geom_bond_atom_site_label_2
_geom_bond_site_symmetry_1
_geom_bond_site_symmetry_2
C1 O2 1_555 1_555
O1 C3 1_555 1_555
O2 Dy1B_2 1_555 1_555
O3 C2 1_555 1_555
O4 Dy1 1_555 1_555
Dy1 O5 1_555 1_555
O5 C1 1_555 1_555
O6 Dy1 1_555 1_555
O7 Dy1 1_555 1_555
O8 Dy1 1_555 1_555
C2 O6 1_555 1_555
C3 O7 1_555 1_555
O9 Dy1 1_555 1_555
H1 O8 1_555 1_555
H2 O8 1_555 1_555
H3 O4 1_555 1_555
H4 O4 1_555 1_555
H5 O9 1_555 1_555
H6 O9 1_555 1_555
O10 H7 1_555 1_555
H8 O10 1_555 1_555
C1B C1 1_555 1_555
O2B Dy1 1_555 1_555
O5B C1B 1_555 1_555
O1B Dy1 1_555 1_555
O7B C3B 1_555 1_555
C3B C3 1_555 1_555
O3B Dy1 1_555 1_555
O6B C2B 1_555 1_555
C2B C2 1_555 1_555
O4B Dy1B 1_555 1_555
Dy1B O1 1_555 1_555
O8B Dy1B 1_555 1_555
O9B Dy1B 1_555 1_555
H1B O8B 1_555 1_555
H2B O8B 1_555 1_555
H3B O4B 1_555 1_555
H4B O4B 1_555 1_555
H5B O9B 1_555 1_555
H6B O9B 1_555 1_555
O2_2 Dy1B 1_555 1_555
O3_2 Dy1B 1_555 1_555
Dy1B_2 O5B 1_555 1_555
Dy1B_3 O3 1_555 1_555
O5B_2 Dy1B 1_555 1_555
O6B_2 Dy1B 1_555 1_555
C1B O2B 1_555 1_555
O1B C3B 1_555 1_555
O7B Dy1B 1_555 1_555
O3B C2B 1_555 1_555
O6B Dy1B_3 1_555 1_555

#END
