
#######################################################################
#
#                 Cambridge Crystallographic Data Centre
#                                CCDC 
#
#######################################################################
#
# If this CIF has been generated from an entry in the Cambridge 
# Structural Database, then it will include bibliographic, chemical, 
# crystal, experimental, refinement or atomic coordinate data resulting 
# from the CCDC's data processing and validation procedures.
#
#######################################################################

data_ZULMIE
_symmetry_cell_setting           hexagonal
_symmetry_space_group_name_H-M   'P 63'
_symmetry_Int_Tables_number      173
_space_group_name_Hall           'P 6c'
loop_
_symmetry_equiv_pos_site_id
_symmetry_equiv_pos_as_xyz
1 x,y,z
2 -y,x-y,z
3 -x+y,-x,z
4 -x,-y,1/2+z
5 y,-x+y,1/2+z
6 x-y,x,1/2+z
_cell_length_a                   18.288(8)
_cell_length_b                   18.288(8)
_cell_length_c                   6.168(4)
_cell_angle_alpha                90
_cell_angle_beta                 90
_cell_angle_gamma                120
_cell_volume                     1786.52
loop_
_atom_site_label
_atom_site_type_symbol
_atom_site_fract_x
_atom_site_fract_y
_atom_site_fract_z
Co1 Co 0.24155(4) 0.16931(4) 0.68866(13)
P1 P 0.24302(8) 0.22091(7) 0.2119(3)
O1 O 0.1934(2) 0.1516(2) 0.3769(7)
O2 O 0.2707(2) 0.1882(2) 0.0175(6)
O3 O 0.1955(2) 0.2658(2) 0.1392(6)
O4 O 0.2251(2) 0.2783(2) 0.7150(7)
H1 H 0.1770 0.2682 0.6264
H2 H 0.2033 0.2735 0.8612
O5 O 0.1114(2) 0.0910(2) 0.7836(7)
H3 H 0.1054 0.0981 0.9172
H4 H 0.0788 0.1068 0.6974
N1 N 0.3632(3) 0.2552(3) 0.5179(8)
H5 H 0.3786 0.2215 0.4458
C1 C 0.3399(3) 0.2986(3) 0.3507(10)
H6 H 0.3853 0.3264 0.2464
H7 H 0.3309 0.3413 0.4188
C2 C 0.4370(3) 0.3140(3) 0.6554(9)
H8 H 0.4183 0.3422 0.7580
C3 C 0.4656(3) 0.2610(4) 0.7840(10)
H9 H 0.4197 0.2217 0.8733
H10 H 0.5125 0.2979 0.8741
H11 H 0.4823 0.2307 0.6878
C4 C 0.5107(3) 0.3819(4) 0.5215(10)
C5 C 0.5404(4) 0.3613(4) 0.3380(11)
H12 H 0.5168 0.3050 0.2967
C6 C 0.6047(3) 0.4235(4) 0.2165(12)
H13 H 0.6232 0.4089 0.0919
C7 C 0.6415(4) 0.5062(4) 0.2773(11)
H14 H 0.6847 0.5482 0.1948
C8 C 0.6140(3) 0.5262(3) 0.4601(11)
H15 H 0.6409 0.5821 0.5062
C9 C 0.5476(3) 0.4661(3) 0.5789(10)
H16 H 0.5274 0.4819 0.6977
Co1_2 Co 0.24155(4) 0.16931(4) -0.31134(13)
Co1E Co 0.07224(6) 0.24155(4) 0.18866(13)
O2_2 O 0.2707(2) 0.1882(2) 1.0175(6)
O3D O 0.2658(2) 0.0703(3) 0.6392(6)
loop_
_geom_bond_atom_site_label_1
_geom_bond_atom_site_label_2
_geom_bond_site_symmetry_1
_geom_bond_site_symmetry_2
Co1 O1 1_555 1_555
P1 O1 1_555 1_555
O2 P1 1_555 1_555
O3 P1 1_555 1_555
O4 Co1 1_555 1_555
H1 O4 1_555 1_555
H2 O4 1_555 1_555
O5 Co1 1_555 1_555
H3 O5 1_555 1_555
H4 O5 1_555 1_555
N1 Co1 1_555 1_555
H5 N1 1_555 1_555
C1 P1 1_555 1_555
H6 C1 1_555 1_555
H7 C1 1_555 1_555
C2 N1 1_555 1_555
H8 C2 1_555 1_555
C3 C2 1_555 1_555
H9 C3 1_555 1_555
H10 C3 1_555 1_555
H11 C3 1_555 1_555
C4 C2 1_555 1_555
C5 C4 1_555 1_555
H12 C5 1_555 1_555
C6 C5 1_555 1_555
H13 C6 1_555 1_555
C7 C6 1_555 1_555
H14 C7 1_555 1_555
C8 C7 1_555 1_555
H15 C8 1_555 1_555
C9 C4 1_555 1_555
H16 C9 1_555 1_555
Co1_2 O2 1_555 1_555
Co1E O3 1_555 1_555
O2_2 Co1 1_555 1_555
O3D Co1 1_555 1_555
N1 C1 1_555 1_555
C8 C9 1_555 1_555

#END
