
#######################################################################
#
#                 Cambridge Crystallographic Data Centre
#                                CCDC 
#
#######################################################################
#
# If this CIF has been generated from an entry in the Cambridge 
# Structural Database, then it will include bibliographic, chemical, 
# crystal, experimental, refinement or atomic coordinate data resulting 
# from the CCDC's data processing and validation procedures.
#
#######################################################################

data_ZULMEA
_symmetry_cell_setting           hexagonal
_symmetry_space_group_name_H-M   'P 63'
_symmetry_Int_Tables_number      173
_space_group_name_Hall           'P 6c'
loop_
_symmetry_equiv_pos_site_id
_symmetry_equiv_pos_as_xyz
1 x,y,z
2 -y,x-y,z
3 -x+y,-x,z
4 -x,-y,1/2+z
5 y,-x+y,1/2+z
6 x-y,x,1/2+z
_cell_length_a                   18.0812(15)
_cell_length_b                   18.0812(15)
_cell_length_c                   6.1296(6)
_cell_angle_alpha                90
_cell_angle_beta                 90
_cell_angle_gamma                120
_cell_volume                     1735.47
loop_
_atom_site_label
_atom_site_type_symbol
_atom_site_fract_x
_atom_site_fract_y
_atom_site_fract_z
Ni1 Ni 0.93060(2) 0.17084(2) 0.30375(9)
P1 P 0.97834(5) 0.22003(5) 0.78200(16)
O1 O 0.95808(15) 0.14946(15) 0.6142(4)
O2 O 0.91645(15) 0.18775(16) 0.9748(4)
O3 O 1.07160(15) 0.26595(15) 0.8509(4)
O4 O 1.05370(13) 0.27773(13) 0.2812(5)
H1 H 1.0887 0.2650 0.3762
H2 H 1.0701 0.2770 0.1421
O5 O 0.97799(16) 0.09203(15) 0.2117(4)
H3 H 1.0252 0.1240 0.1512
H4 H 0.9475 0.0449 0.1192
N1 N 0.89329(19) 0.25333(18) 0.4639(5)
H5 H 0.8495 0.2255 0.5198
C1 C 0.9583(2) 0.2967(2) 0.6376(6)
H6 H 0.9383 0.3238 0.7400
H7 H 1.0110 0.3408 0.5731
C2 C 0.8777(2) 0.3123(2) 0.3276(7)
H8 H 0.9253 0.3408 0.2250
C3 C 0.7963(3) 0.2596(3) 0.1946(7)
H9 H 0.7483 0.2319 0.2914
H10 H 0.8014 0.2174 0.1116
H11 H 0.7881 0.2965 0.0973
C4 C 0.8724(2) 0.3814(2) 0.4582(6)
C5 C 0.8201(3) 0.3602(3) 0.6428(8)
H12 H 0.7871 0.3032 0.6834
C6 C 0.8167(3) 0.4225(3) 0.7658(8)
H13 H 0.7828 0.4074 0.8902
C7 C 0.8640(3) 0.5076(3) 0.7039(7)
H14 H 0.8619 0.5497 0.7864
C8 C 0.9140(3) 0.5292(2) 0.5195(7)
H15 H 0.9452 0.5860 0.4765
C9 C 0.9181(2) 0.4663(2) 0.3961(7)
H16 H 0.9519 0.4816 0.2714
Ni1_2 Ni 0.93060(2) 0.17084(2) 1.30375(9)
Ni1D Ni 1.17084(2) 0.24024(3) 0.80375(9)
O2_2 O 0.91645(15) 0.18775(16) -0.0252(4)
O3E O 0.80565(21) 0.07160(15) 0.3509(4)
loop_
_geom_bond_atom_site_label_1
_geom_bond_atom_site_label_2
_geom_bond_site_symmetry_1
_geom_bond_site_symmetry_2
Ni1 O1 1_555 1_555
P1 O1 1_555 1_555
O2 P1 1_555 1_555
O3 P1 1_555 1_555
O4 Ni1 1_555 1_555
H1 O4 1_555 1_555
H2 O4 1_555 1_555
O5 Ni1 1_555 1_555
H3 O5 1_555 1_555
H4 O5 1_555 1_555
N1 Ni1 1_555 1_555
H5 N1 1_555 1_555
C1 P1 1_555 1_555
H6 C1 1_555 1_555
H7 C1 1_555 1_555
C2 N1 1_555 1_555
H8 C2 1_555 1_555
C3 C2 1_555 1_555
H9 C3 1_555 1_555
H10 C3 1_555 1_555
H11 C3 1_555 1_555
C4 C2 1_555 1_555
C5 C4 1_555 1_555
H12 C5 1_555 1_555
C6 C5 1_555 1_555
H13 C6 1_555 1_555
C7 C6 1_555 1_555
H14 C7 1_555 1_555
C8 C7 1_555 1_555
H15 C8 1_555 1_555
C9 C4 1_555 1_555
H16 C9 1_555 1_555
Ni1_2 O2 1_555 1_555
Ni1D O3 1_555 1_555
O2_2 Ni1 1_555 1_555
O3E Ni1 1_555 1_555
N1 C1 1_555 1_555
C8 C9 1_555 1_555

#END
