
#######################################################################
#
#                 Cambridge Crystallographic Data Centre
#                                CCDC 
#
#######################################################################
#
# If this CIF has been generated from an entry in the Cambridge 
# Structural Database, then it will include bibliographic, chemical, 
# crystal, experimental, refinement or atomic coordinate data resulting 
# from the CCDC's data processing and validation procedures.
#
#######################################################################

data_ZULNAX
_symmetry_cell_setting           orthorhombic
_symmetry_space_group_name_H-M   'F d d d'
_symmetry_Int_Tables_number      70
_space_group_name_Hall           '-F 2uv 2vw'
loop_
_symmetry_equiv_pos_site_id
_symmetry_equiv_pos_as_xyz
1 x,y,z
2 1/4-x,1/4-y,z
3 x,1/4-y,1/4-z
4 1/4-x,y,1/4-z
5 x,1/2+y,1/2+z
6 1/4-x,3/4-y,1/2+z
7 x,3/4-y,3/4-z
8 1/4-x,1/2+y,3/4-z
9 1/2+x,y,1/2+z
10 3/4-x,1/4-y,1/2+z
11 1/2+x,1/4-y,3/4-z
12 3/4-x,y,3/4-z
13 1/2+x,1/2+y,z
14 3/4-x,3/4-y,z
15 1/2+x,3/4-y,1/4-z
16 3/4-x,1/2+y,1/4-z
17 -x,-y,-z
18 3/4+x,3/4+y,-z
19 -x,3/4+y,3/4+z
20 3/4+x,-y,3/4+z
21 -x,1/2-y,1/2-z
22 3/4+x,1/4+y,1/2-z
23 -x,1/4+y,1/4+z
24 3/4+x,1/2-y,1/4+z
25 1/2-x,-y,1/2-z
26 1/4+x,3/4+y,1/2-z
27 1/2-x,3/4+y,1/4+z
28 1/4+x,-y,1/4+z
29 1/2-x,1/2-y,-z
30 1/4+x,1/4+y,-z
31 1/2-x,1/4+y,3/4+z
32 1/4+x,1/2-y,3/4+z
_cell_length_a                   19.869(5)
_cell_length_b                   28.259(5)
_cell_length_c                   48.027(5)
_cell_angle_alpha                90
_cell_angle_beta                 90
_cell_angle_gamma                90
_cell_volume                     26966.1
loop_
_atom_site_label
_atom_site_type_symbol
_atom_site_fract_x
_atom_site_fract_y
_atom_site_fract_z
O1 O 0.7565(7) 0.2551(5) 0.1781(3)
O2 O 0.6252(8) 0.2372(7) 0.1637(4)
O3 O 0.7831(8) 0.1720(4) 0.1524(2)
O4 O 0.6919(8) 0.1739(6) 0.1918(4)
O5 O 0.6251(9) 0.1629(6) 0.1522(3)
O6 O 0.6908(9) 0.1533(6) 0.1257(4)
O7 O 0.7841(9) 0.0789(4) 0.1523(3)
O8 O 0.7171(8) 0.0137(4) 0.1251(3)
O9 O 0.7561(6) -0.0052(4) 0.1784(3)
O10 O 0.6908(8) 0.0795(7) 0.1903(4)
O11 O 0.6250 0.1250 0.2336(3)
Si1 Si 0.6250 0.1250 0.1250
W1 W 0.80330(4) 0.1250 0.1250
W2 W 0.71365(4) 0.21275(3) 0.161725(15)
W3 W 0.71375(4) 0.03714(3) 0.161798(16)
W4 W 0.6250 0.1250 0.198590(18)
O5A O 0.6249(9) 0.0871(6) 0.1522(3)
O6A O 0.5592(9) 0.0967(6) 0.1257(4)
O5B O 0.6251(9) 0.0871(6) 0.0978(3)
O6B O 0.6908(9) 0.0967(6) 0.1243(4)
O5C O 0.6249(9) 0.1629(6) 0.0978(3)
O6C O 0.5592(9) 0.1533(6) 0.1243(4)
O1A O 0.4935(7) -0.0051(5) 0.1781(3)
O2A O 0.6248(8) 0.0128(7) 0.1637(4)
O3A O 0.4669(8) 0.0780(4) 0.1524(2)
O4A O 0.5581(8) 0.0761(6) 0.1918(4)
O7A O 0.4659(9) 0.1711(4) 0.1523(3)
O8A O 0.5329(8) 0.2363(4) 0.1251(3)
O9A O 0.4939(6) 0.2552(4) 0.1784(3)
O10A O 0.5592(8) 0.1705(7) 0.1903(4)
W1A W 0.44670(4) 0.1250 0.1250
W2A W 0.53635(4) 0.03725(3) 0.161725(15)
W3A W 0.53625(4) 0.21286(3) 0.161798(16)
O1B O 0.7565(7) -0.0051(5) 0.0719(3)
O2B O 0.6252(8) 0.0128(7) 0.0863(4)
O3B O 0.7831(8) 0.0780(4) 0.0976(2)
O4B O 0.6919(8) 0.0761(6) 0.0582(4)
O7B O 0.7841(9) 0.1711(4) 0.0977(3)
O8B O 0.7171(8) 0.2363(4) 0.1249(3)
O9B O 0.7561(6) 0.2552(4) 0.0716(3)
O10B O 0.6908(8) 0.1705(7) 0.0597(4)
O11B O 0.6250 0.1250 0.0164(3)
W2B W 0.71365(4) 0.03725(3) 0.088275(15)
W3B W 0.71375(4) 0.21286(3) 0.088202(16)
W4B W 0.6250 0.1250 0.051410(18)
O1C O 0.4935(7) 0.2551(5) 0.0719(3)
O2C O 0.6248(8) 0.2372(7) 0.0863(4)
O3C O 0.4669(8) 0.1720(4) 0.0976(2)
O4C O 0.5581(8) 0.1739(6) 0.0582(4)
O7C O 0.4659(9) 0.0789(4) 0.0977(3)
O8C O 0.5329(8) 0.0137(4) 0.1249(3)
O9C O 0.4939(6) -0.0052(4) 0.0716(3)
O10C O 0.5592(8) 0.0795(7) 0.0597(4)
W2C W 0.53635(4) 0.21275(3) 0.088275(15)
W3C W 0.53625(4) 0.03714(3) 0.088202(16)
O12 O 0.9474(10) 0.1250 0.1250
O13 O 1.0360(7) 1.0374(5) 0.0881(3)
O14 O 1.0363(7) 1.0371(5) 0.1635(3)
O15 O 0.8750 0.8750 -0.0505(5)
O16 O 0.6250 -0.0787(17) 0.1250
C1 C 0.6249(6) 0.9584(3) 0.28792(16)
H1 H 0.6260 0.9437 0.3052
N1 N 0.6234(6) 0.9367(3) 0.26322(17)
C2 C 0.6220(6) 0.9699(3) 0.24345(17)
H2 H 0.6208 0.9646 0.2243
N2 N 0.6226(7) 1.0122(3) 0.25590(17)
N3 N 0.6244(6) 1.0051(3) 0.28340(16)
N4 N 0.7944(4) 0.8966(4) 0.2013(2)
N5 N 0.8006(5) 0.8495(4) 0.2034(2)
C3 C 0.7471(5) 0.8331(3) 0.2175(3)
H3 H 0.7386 0.8016 0.2219
N6 N 0.7079(5) 0.8702(4) 0.2240(2)
C4 C 0.7372(5) 0.9094(4) 0.2140(2)
H4 H 0.7207 0.9401 0.2156
N7 N 0.7949(5) 0.8972(4) 0.0514(2)
N8 N 0.8002(5) 0.8496(4) 0.0498(2)
C5 C 0.7467(5) 0.8333(3) 0.0355(2)
H5 H 0.7378 0.8017 0.0313
N9 N 0.7083(5) 0.8707(4) 0.0282(2)
C6 C 0.7381(5) 0.9102(3) 0.0380(3)
H6 H 0.7223 0.9410 0.0360
N10 N 0.8822(12) 0.9522(8) 0.1503(5)
C7 C 0.8505(14) 0.9336(9) 0.1277(6)
H7 H 0.8141 0.9129 0.1280
N11 N 0.8813(14) 0.9506(9) 0.1044(5)
C8 C 0.9322(12) 0.9796(8) 0.1127(5)
H8 H 0.9614 0.9960 0.1010
N12 N 0.9327(11) 0.9806(8) 0.1410(5)
Zn1 Zn 0.86915(10) 0.94025(5) 0.06422(3)
Zn2 Zn 0.86849(10) 0.94104(5) 0.18972(3)
Zn3 Zn 0.62236(8) 0.87174(5) 0.24758(3)
C9 C 0.8574(11) 1.0297(8) 0.0288(5)
H9 H 0.8162 1.0214 0.0210
N13 N 0.8922(11) 1.0042(7) 0.0467(5)
N14 N 0.9475(11) 1.0277(8) 0.0529(5)
C10 C 0.9469(11) 1.0678(8) 0.0388(5)
H10 H 0.9799 1.0911 0.0392
N15 N 0.8912(12) 1.0690(8) 0.0239(5)
N3X N 0.8756(6) 0.9949(3) 0.21660(16)
N5M N 0.9494(5) 0.9005(4) 0.2034(2)
N8M N 0.9498(5) 0.9004(4) 0.0498(2)
N9C N 0.5417(5) 0.8707(4) 0.2218(2)
Zn1M Zn 0.88085(10) 0.80975(5) 0.06422(3)
Zn2M Zn 0.88151(10) 0.80896(5) 0.18972(3)
Zn2X Zn 0.63151(10) 1.05896(5) 0.31028(3)
Zn3C Zn 0.62764(8) 0.87174(5) 0.00242(3)
Zn3DA Zn 0.87764(8) 1.12174(5) -0.00242(3)
N15Z N 0.6088(12) 0.8190(8) 0.2739(5)
N16? N 0.8908(11) 0.9438(8) 0.1494(5)
C11? C 0.8515(11) 0.9442(7) 0.1267(5)
H11? H 0.8047 0.9451 0.1266
N17? N 0.8915(11) 0.9430(8) 0.1042(5)
C12? C 0.9555(10) 0.9419(8) 0.1130(4)
H12? H 0.9935 0.9410 0.1017
N18? N 0.9551(9) 0.9424(7) 0.1409(4)
C13? C 0.8757(13) 1.0221(6) -0.0048(4)
H13? H 0.8762 1.0260 -0.0240
N19? N 0.8745(12) 0.9802(6) 0.0089(4)
N20? N 0.8742(13) 0.9895(6) 0.0366(4)
C14? C 0.8753(14) 1.0371(6) 0.0400(4)
H14? H 0.8754 1.0531 0.0569
N21? N 0.8763(13) 1.0572(6) 0.0144(4)
O17? O 0.8875(14) 0.1250 0.1250
loop_
_geom_bond_atom_site_label_1
_geom_bond_atom_site_label_2
_geom_bond_site_symmetry_1
_geom_bond_site_symmetry_2
C1 H1 1_555 1_555
N1 C1 1_555 1_555
C2 N1 1_555 1_555
H2 C2 1_555 1_555
N2 C2 1_555 1_555
N3 C1 1_555 1_555
N4 N5 1_555 1_555
N5 C3 1_555 1_555
C3 H3 1_555 1_555
N6 C3 1_555 1_555
C4 N4 1_555 1_555
H4 C4 1_555 1_555
N7 N8 1_555 1_555
N8 C5 1_555 1_555
C5 H5 1_555 1_555
N9 C5 1_555 1_555
C6 N7 1_555 1_555
H6 C6 1_555 1_555
N10 C7 1_555 1_555
C7 H7 1_555 1_555
N11 C7 1_555 1_555
C8 N11 1_555 1_555
H8 C8 1_555 1_555
N12 N10 1_555 1_555
Zn1 N7 1_555 1_555
Zn2 N4 1_555 1_555
Zn3 N1 1_555 1_555
C9 H9 1_555 1_555
N13 Zn1 1_555 1_555
N14 N13 1_555 1_555
C10 N14 1_555 1_555
H10 C10 1_555 1_555
N15 C9 1_555 1_555
O1 W2 1_555 1_555
O2 W2 1_555 1_555
O3 W1 1_555 1_555
O4 W2 1_555 1_555
O5 Si1 1_555 1_555
O6 Si1 1_555 1_555
O7 W1 1_555 1_555
O8 W3 1_555 1_555
O9 W3 1_555 1_555
O10 W3 1_555 1_555
O11 W4 1_555 1_555
Si1 O5A 1_555 1_555
W1 O6 1_555 1_555
W2 O3 1_555 1_555
W3 O7 1_555 1_555
W4 O4 1_555 1_555
N3X Zn2 1_555 1_555
N5M Zn2 1_555 1_555
N8M Zn1 1_555 1_555
N9C Zn3 1_555 1_555
Zn1M N8 1_555 1_555
Zn2M N5 1_555 1_555
Zn2X N3 1_555 1_555
Zn3C N9 1_555 1_555
Zn3DA N15 1_555 1_555
N15Z Zn3 1_555 1_555
O5A W3 1_555 1_555
O6A Si1 1_555 1_555
O5B Si1 1_555 1_555
O6B O6 1_555 1_555
O5C Si1 1_555 1_555
O6C Si1 1_555 1_555
O1A W2A 1_555 1_555
O2A W3 1_555 1_555
O3A W1A 1_555 1_555
O4A W4 1_555 1_555
O7A W1A 1_555 1_555
O8A W3A 1_555 1_555
O9A W3A 1_555 1_555
O10A W4 1_555 1_555
W1A O6A 1_555 1_555
W2A O5A 1_555 1_555
W3A O2 1_555 1_555
O1B W2B 1_555 1_555
O2B W2B 1_555 1_555
O3B W1 1_555 1_555
O4B W2B 1_555 1_555
O7B W1 1_555 1_555
O8B W2 1_555 1_555
O9B W3B 1_555 1_555
O10B W3B 1_555 1_555
O11B W4B 1_555 1_555
W2B O8 1_555 1_555
W3B O5C 1_555 1_555
W4B O5B 1_555 1_555
O1C W2C 1_555 1_555
O2C W3B 1_555 1_555
O3C W1A 1_555 1_555
O4C W4B 1_555 1_555
O7C W1A 1_555 1_555
O8C W2A 1_555 1_555
O9C W3C 1_555 1_555
O10C W4B 1_555 1_555
W2C O5C 1_555 1_555
W3C O5B 1_555 1_555
N2 N3 1_555 1_555
N6 C4 1_555 1_555
N6 Zn3 1_555 1_555
N9 C6 1_555 1_555
N10 Zn2 1_555 1_555
N11 Zn1 1_555 1_555
C8 N12 1_555 1_555
C9 N13 1_555 1_555
C10 N15 1_555 1_555
O5 W2 1_555 1_555
O5 W4 1_555 1_555
O5 W3A 1_555 1_555
O6 W2 1_555 1_555
O10 W4 1_555 1_555
Si1 O6B 1_555 1_555
W1 O6B 1_555 1_555
W4 O5A 1_555 1_555
O6A O6C 1_555 1_555
O6A W2A 1_555 1_555
O5B W2B 1_555 1_555
O6B W2B 1_555 1_555
O5C W4B 1_555 1_555
O6C W1A 1_555 1_555
O6C W2C 1_555 1_555
O2A W2A 1_555 1_555
O3A W2A 1_555 1_555
O4A W2A 1_555 1_555
O7A W3A 1_555 1_555
O8A W2C 1_555 1_555
O10A W3A 1_555 1_555
O2B W3C 1_555 1_555
O3B W2B 1_555 1_555
O4B W4B 1_555 1_555
O7B W3B 1_555 1_555
O8B W3B 1_555 1_555
O10B W4B 1_555 1_555
O2C W2C 1_555 1_555
O3C W2C 1_555 1_555
O4C W2C 1_555 1_555
O7C W3C 1_555 1_555
O8C W3C 1_555 1_555
O10C W3C 1_555 1_555

#END
