
#######################################################################
#
#                 Cambridge Crystallographic Data Centre
#                                CCDC 
#
#######################################################################
#
# If this CIF has been generated from an entry in the Cambridge 
# Structural Database, then it will include bibliographic, chemical, 
# crystal, experimental, refinement or atomic coordinate data resulting 
# from the CCDC's data processing and validation procedures.
#
#######################################################################

data_ZULTOR
_symmetry_cell_setting           triclinic
_symmetry_space_group_name_H-M   'P -1'
_symmetry_Int_Tables_number      2
_space_group_name_Hall           '-P 1'
loop_
_symmetry_equiv_pos_site_id
_symmetry_equiv_pos_as_xyz
1 x,y,z
2 -x,-y,-z
_cell_length_a                   10.710(3)
_cell_length_b                   16.432(4)
_cell_length_c                   16.698(5)
_cell_angle_alpha                78.693(3)
_cell_angle_beta                 81.623(4)
_cell_angle_gamma                71.593(3)
_cell_volume                     2723.05
loop_
_atom_site_label
_atom_site_type_symbol
_atom_site_fract_x
_atom_site_fract_y
_atom_site_fract_z
O1 O 1.044(8) 0.802(5) 0.874(6)
H1 H 1.0363 0.7530 0.8831
N1 N 0.896(4) 0.519(3) 0.917(3)
Ag1 Ag 0.7807(3) 0.6304(2) 0.7150(2)
Ag2 Ag 0.9536(5) 1.3101(2) 0.7033(4)
Ag3 Ag 1.0232(4) 0.5582(3) 0.8097(3)
Ag4 Ag 0.9898(3) 0.62439(19) 0.5976(2)
C1 C 0.712(5) 0.557(3) 1.017(4)
H2 H 0.6522 0.6008 1.0430
C2 C 0.807(6) 0.578(3) 0.959(4)
H3 H 0.8101 0.6346 0.9478
C3 C 0.707(5) 0.721(3) 0.523(3)
N2 N 1.005(4) 0.764(2) 0.599(3)
C4 C 0.885(4) 0.908(3) 0.626(3)
H4 H 0.8033 0.9478 0.6361
O2 O 0.657(3) 0.719(2) 0.597(2)
O3 O 0.762(4) 0.748(2) 0.777(3)
C5 C 0.999(4) 0.930(3) 0.623(3)
C6 C 0.596(4) 0.451(3) 1.094(3)
O4 O 0.827(3) 0.696(2) 0.501(2)
C7 C 1.213(5) 0.638(3) 0.454(3)
H5 H 1.1626 0.6957 0.4519
C8 C 1.359(5) 0.472(3) 0.456(3)
H6 H 1.4045 0.4137 0.4573
N3 N 1.171(3) 0.578(2) 0.506(2)
C9 C 0.995(4) 1.016(3) 0.640(3)
C10 C 0.892(4) 0.824(3) 0.614(3)
H7 H 0.8138 0.8096 0.6163
C11 C 1.407(4) 0.534(2) 0.404(3)
N4 N 0.981(4) 1.179(2) 0.671(3)
C12 C 1.328(5) 0.620(3) 0.402(3)
H8 H 1.3519 0.6641 0.3665
C13 C 1.243(4) 0.497(3) 0.505(3)
H9 H 1.2136 0.4533 0.5389
C14 C 0.476(5) 0.789(3) 0.479(4)
C15 C 1.117(5) 0.867(3) 0.606(3)
H10 H 1.1968 0.8790 0.6024
C16 C 0.826(6) 0.845(3) 0.837(3)
C17 C 1.060(5) 1.145(3) 0.612(4)
H11 H 1.1121 1.1767 0.5801
C18 C 0.613(5) 0.759(3) 0.459(3)
O5 O 0.708(7) 1.305(3) 0.788(3)
C19 C 1.115(5) 0.787(3) 0.594(4)
H12 H 1.1956 0.7458 0.5831
C20 C 0.661(6) 0.763(3) 0.376(4)
H13 H 0.7512 0.7423 0.3601
C21 C 0.703(4) 0.474(3) 1.037(3)
C22 C 0.591(6) 0.366(3) 1.116(4)
H14 H 0.6589 0.3211 1.0971
C23 C 1.072(5) 1.064(3) 0.594(3)
H15 H 1.1313 1.0429 0.5513
C24 C 0.913(5) 1.052(3) 0.703(4)
H16 H 0.8606 1.0207 0.7366
C25 C 1.533(4) 0.513(3) 0.351(3)
C26 C 0.797(5) 0.414(3) 0.997(4)
H17 H 0.7986 0.3559 1.0085
O6 O 0.428(4) 0.782(3) 0.557(3)
H18 H 0.4891 0.7627 0.5867
C27 C 0.854(6) 0.761(3) 0.806(4)
O7 O 0.495(7) 1.266(4) 0.867(4)
C28 C 0.698(5) 1.231(4) 0.923(3)
C29 C 0.891(5) 0.438(3) 0.939(4)
H19 H 0.9534 0.3950 0.9136
C30 C 0.391(6) 0.826(4) 0.419(4)
H20 H 0.3011 0.8469 0.4328
C31 C 0.770(7) 1.191(4) 0.991(3)
H21 H 0.8571 1.1920 0.9870
C32 C 0.906(6) 1.131(3) 0.716(4)
H22 H 0.8471 1.1543 0.7579
C33 C 0.570(7) 0.800(4) 0.317(4)
H23 H 0.6002 0.8033 0.2620
C34 C 0.703(8) 0.905(4) 0.831(5)
H24 H 0.6378 0.8964 0.8054
C35 C 0.724(5) 1.151(4) 1.062(4)
H25 H 0.7734 1.1251 1.1066
C36 C 0.438(7) 0.832(4) 0.339(5)
H26 H 0.3797 0.8580 0.2988
C37 C 0.493(4) 0.513(3) 1.129(3)
H27 H 0.4913 0.5708 1.1166
C38 C 1.597(5) 0.429(3) 0.335(3)
H28 H 1.5606 0.3846 0.3574
C39 C 1.716(4) 0.413(3) 0.287(3)
H29 H 1.7573 0.3565 0.2768
C40 C 1.595(4) 0.576(3) 0.317(3)
H30 H 1.5562 0.6325 0.3262
C41 C 1.712(5) 0.555(3) 0.270(4)
H31 H 1.7501 0.5992 0.2470
C42 C 0.784(10) 0.992(4) 0.906(5)
H32 H 0.7685 1.0406 0.9312
C43 C 0.901(11) 0.936(5) 0.907(5)
H33 H 0.9679 0.9452 0.9307
C44 C 0.678(10) 0.983(5) 0.868(5)
H34 H 0.5969 1.0256 0.8673
O8 O 0.875(6) 1.270(4) 0.853(4)
C45 C 0.504(6) 1.189(5) 1.003(3)
H35 H 0.4170 1.1874 1.0080
N5 N 1.775(3) 0.475(2) 0.254(2)
C46 C 0.761(6) 1.270(3) 0.854(5)
C47 C 0.394(5) 0.489(3) 1.181(3)
H36 H 0.3275 0.5329 1.2034
C48 C 0.487(6) 0.348(3) 1.167(4)
H37 H 0.4848 0.2909 1.1787
N6 N 0.389(4) 0.408(2) 1.201(3)
O9 O 0.968(5) 0.709(3) 0.809(3)
C49 C 0.924(9) 0.861(4) 0.873(5)
C50 C 0.594(5) 1.155(7) 1.059(5)
H38 H 0.5602 1.1266 1.1076
C51 C 0.570(5) 1.228(5) 0.935(5)
O10 O 0.952(3) 1.4413(19) 0.684(2)
H39 H 0.9124 1.4677 0.6439
H40 H 0.93(4) 1.51(3) 0.68(3)
Ag1A Ag 0.2193(3) 0.3696(2) 1.2850(2)
Ag3A Ag 1.9768(4) 0.4418(3) 0.1903(3)
N5A N 1.225(3) 0.525(2) 0.746(2)
N6A N 0.611(4) 0.592(2) 0.799(3)
C52 C 0.488(7) 0.952(8) 0.680(4)
H41 H 0.5699 0.9102 0.6980
H42 H 0.4772 1.0053 0.6996
C53 C 0.50(2) 0.969(14) 0.587(4)
H43 H 0.4130 0.9872 0.5685
H44 H 0.5512 0.9164 0.5668
H45 H 0.5419 1.0133 0.5679
O11 O 0.383(8) 0.919(8) 0.714(14)
H46 H 0.4113 0.8677 0.7332
loop_
_geom_bond_atom_site_label_1
_geom_bond_atom_site_label_2
_geom_bond_site_symmetry_1
_geom_bond_site_symmetry_2
O1 H1 1_555 1_555
N1 Ag3 1_555 1_555
Ag1 Ag3 1_555 1_555
Ag2 N4 1_555 1_555
Ag3 O9 1_555 1_555
Ag4 Ag1 1_555 1_555
C1 H2 1_555 1_555
C2 N1 1_555 1_555
H3 C2 1_555 1_555
C3 O2 1_555 1_555
N2 Ag4 1_555 1_555
C4 H4 1_555 1_555
O2 Ag1 1_555 1_555
O3 Ag1 1_555 1_555
C5 C4 1_555 1_555
C6 C21 1_555 1_555
O4 Ag4 1_555 1_555
C7 H5 1_555 1_555
C8 H6 1_555 1_555
N3 Ag4 1_555 1_555
C9 C5 1_555 1_555
C10 N2 1_555 1_555
H7 C10 1_555 1_555
C11 C8 1_555 1_555
N4 C17 1_555 1_555
C12 C7 1_555 1_555
H8 C12 1_555 1_555
C13 C8 1_555 1_555
H9 C13 1_555 1_555
C14 C18 1_555 1_555
C15 C5 1_555 1_555
H10 C15 1_555 1_555
C16 C27 1_555 1_555
C17 H11 1_555 1_555
C18 C3 1_555 1_555
O5 C46 1_555 1_555
C19 N2 1_555 1_555
H12 C19 1_555 1_555
C20 C18 1_555 1_555
H13 C20 1_555 1_555
C21 C1 1_555 1_555
C22 C6 1_555 1_555
H14 C22 1_555 1_555
C23 C9 1_555 1_555
H15 C23 1_555 1_555
C24 C9 1_555 1_555
H16 C24 1_555 1_555
C25 C11 1_555 1_555
C26 C21 1_555 1_555
H17 C26 1_555 1_555
O6 C14 1_555 1_555
H18 O6 1_555 1_555
C27 O3 1_555 1_555
O7 C51 1_555 1_555
C28 C31 1_555 1_555
C29 N1 1_555 1_555
H19 C29 1_555 1_555
C30 C14 1_555 1_555
H20 C30 1_555 1_555
C31 H21 1_555 1_555
C32 N4 1_555 1_555
H22 C32 1_555 1_555
C33 C20 1_555 1_555
H23 C33 1_555 1_555
C34 C16 1_555 1_555
H24 C34 1_555 1_555
C35 C31 1_555 1_555
H25 C35 1_555 1_555
C36 C30 1_555 1_555
H26 C36 1_555 1_555
C37 C6 1_555 1_555
H27 C37 1_555 1_555
C38 C25 1_555 1_555
H28 C38 1_555 1_555
C39 C38 1_555 1_555
H29 C39 1_555 1_555
C40 C25 1_555 1_555
H30 C40 1_555 1_555
C41 C40 1_555 1_555
H31 C41 1_555 1_555
C42 H32 1_555 1_555
C43 C42 1_555 1_555
H33 C43 1_555 1_555
C44 C34 1_555 1_555
H34 C44 1_555 1_555
O8 Ag2 1_555 1_555
C45 H35 1_555 1_555
N5 C39 1_555 1_555
C46 C28 1_555 1_555
C47 C37 1_555 1_555
H36 C47 1_555 1_555
C48 C22 1_555 1_555
H37 C48 1_555 1_555
N6 C47 1_555 1_555
O9 C27 1_555 1_555
C49 O1 1_555 1_555
C50 C35 1_555 1_555
H38 C50 1_555 1_555
C51 C28 1_555 1_555
O10 Ag2 1_555 1_555
H39 O10 1_555 1_555
H40 O10 1_555 1_555
C52 H41 1_555 1_555
H42 C52 1_555 1_555
C53 C52 1_555 1_555
H43 C53 1_555 1_555
H44 C53 1_555 1_555
H45 C53 1_555 1_555
O11 C52 1_555 1_555
H46 O11 1_555 1_555
Ag1A N6 1_555 1_555
Ag3A N5 1_555 1_555
N5A Ag3 1_555 1_555
N6A Ag1 1_555 1_555
C1 C2 1_555 1_555
C3 O4 1_555 1_555
C4 C10 1_555 1_555
C7 N3 1_555 1_555
N3 C13 1_555 1_555
C11 C12 1_555 1_555
C15 C19 1_555 1_555
C16 C49 1_555 1_555
C17 C23 1_555 1_555
C24 C32 1_555 1_555
C26 C29 1_555 1_555
C33 C36 1_555 1_555
C41 N5 1_555 1_555
C42 C44 1_555 1_555
C43 C49 1_555 1_555
O8 C46 1_555 1_555
C45 C50 1_555 1_555
C45 C51 1_555 1_555
C48 N6 1_555 1_555

#END
