
#######################################################################
#
#                 Cambridge Crystallographic Data Centre
#                                CCDC 
#
#######################################################################
#
# If this CIF has been generated from an entry in the Cambridge 
# Structural Database, then it will include bibliographic, chemical, 
# crystal, experimental, refinement or atomic coordinate data resulting 
# from the CCDC's data processing and validation procedures.
#
#######################################################################

data_ZULXEL
_symmetry_cell_setting           monoclinic
_symmetry_space_group_name_H-M   'P 21/n'
_symmetry_Int_Tables_number      14
_space_group_name_Hall           '-P 2yn'
loop_
_symmetry_equiv_pos_site_id
_symmetry_equiv_pos_as_xyz
1 x,y,z
2 1/2-x,1/2+y,1/2-z
3 -x,-y,-z
4 1/2+x,1/2-y,1/2+z
_cell_length_a                   8.6364(7)
_cell_length_b                   12.6197(10)
_cell_length_c                   18.9351(16)
_cell_angle_alpha                90
_cell_angle_beta                 98.0420(10)
_cell_angle_gamma                90
_cell_volume                     2043.42
loop_
_atom_site_label
_atom_site_type_symbol
_atom_site_fract_x
_atom_site_fract_y
_atom_site_fract_z
Br1 Br -0.18804(7) 0.68274(4) 0.13342(3)
Cd1 Cd -0.30471(4) 0.75645(2) 0.245689(16)
N1 N -0.0843(4) 0.7109(3) 0.3311(2)
N2 N 0.2804(4) 0.5492(3) 0.53532(19)
N3 N 0.4196(4) 0.5412(3) 0.58094(19)
N4 N 0.4468(4) 0.6659(3) 0.50190(18)
N5 N 0.9610(4) 0.6799(3) 0.6800(2)
N6 N 0.6006(4) 0.8019(3) 0.35536(19)
N7 N -0.4273(5) 0.5924(3) 0.2591(2)
N8 N -0.3625(5) 0.5101(3) 0.2560(2)
N9 N -0.2997(5) 0.4282(3) 0.2536(2)
C1 C 0.1702(5) 0.6587(3) 0.4338(2)
C2 C 0.0428(5) 0.5911(4) 0.4181(2)
H1 H 0.0410 0.5252 0.4423
C3 C -0.0804(6) 0.6194(4) 0.3677(2)
H2 H -0.1666 0.5722 0.3582
C4 C 0.0361(6) 0.7773(4) 0.3480(3)
H3 H 0.0340 0.8432 0.3236
C5 C 0.1636(5) 0.7558(4) 0.3991(3)
H4 H 0.2448 0.8064 0.4100
C6 C 0.2980(5) 0.6251(3) 0.4885(2)
C7 C 0.5166(5) 0.6120(3) 0.5607(2)
C8 C 0.6735(5) 0.6329(3) 0.5993(2)
C9 C 0.7993(5) 0.6655(3) 0.5667(2)
H5 H 0.7894 0.6723 0.5163
C10 C 0.9394(5) 0.6879(4) 0.6089(2)
H6 H 1.0250 0.7103 0.5860
C11 C 0.8405(6) 0.6449(4) 0.7108(3)
H7 H 0.8544 0.6364 0.7611
C12 C 0.6966(6) 0.6204(4) 0.6727(2)
H8 H 0.6142 0.5953 0.6967
C13 C 0.5143(5) 0.7475(3) 0.4637(2)
C14 C 0.5386(5) 0.7284(3) 0.3940(2)
H9 H 0.5106 0.6614 0.3731
C15 C 0.6413(5) 0.8951(3) 0.3866(2)
H10 H 0.6844 0.9480 0.3595
C16 C 0.6235(6) 0.9179(3) 0.4563(2)
H11 H 0.6562 0.9845 0.4766
C17 C 0.5579(5) 0.8434(3) 0.4960(2)
H12 H 0.5431 0.8572 0.5439
Cd1_2 Cd 0.69529(4) 0.75645(2) 0.245689(16)
Cd1A Cd -0.19529(4) 0.25645(2) 0.254311(16)
Cd1C Cd 1.19529(4) 0.74355(2) 0.745689(16)
N5C N -0.5390(4) 0.8201(3) 0.1800(2)
N6_2 N -0.3994(4) 0.8019(3) 0.35536(19)
N9A N -0.2003(5) 0.9282(3) 0.2464(2)
O1 O 0.4886(6) 0.5367(5) 0.0709(3)
O3 O 0.2543(12) -0.0060(8) 0.3514(5)
O2? O 0.218(2) 0.0336(18) 0.3325(10)
O4? O 0.2963(11) 0.0752(7) 0.3145(5)
loop_
_geom_bond_atom_site_label_1
_geom_bond_atom_site_label_2
_geom_bond_site_symmetry_1
_geom_bond_site_symmetry_2
Br1 Cd1 1_555 1_555
Cd1 N1 1_555 1_555
N1 C3 1_555 1_555
N2 N3 1_555 1_555
N3 C7 1_555 1_555
N4 C6 1_555 1_555
N5 C10 1_555 1_555
N6 C14 1_555 1_555
N7 Cd1 1_555 1_555
N8 N7 1_555 1_555
N9 N8 1_555 1_555
C1 C2 1_555 1_555
C2 H1 1_555 1_555
C3 C2 1_555 1_555
H2 C3 1_555 1_555
C4 N1 1_555 1_555
H3 C4 1_555 1_555
C5 C1 1_555 1_555
H4 C5 1_555 1_555
C6 N2 1_555 1_555
C7 N4 1_555 1_555
C8 C7 1_555 1_555
C9 C8 1_555 1_555
H5 C9 1_555 1_555
C10 C9 1_555 1_555
H6 C10 1_555 1_555
C11 N5 1_555 1_555
H7 C11 1_555 1_555
C12 C8 1_555 1_555
H8 C12 1_555 1_555
C13 N4 1_555 1_555
C14 C13 1_555 1_555
H9 C14 1_555 1_555
C15 N6 1_555 1_555
H10 C15 1_555 1_555
C16 C15 1_555 1_555
H11 C16 1_555 1_555
C17 C13 1_555 1_555
H12 C17 1_555 1_555
Cd1_2 N6 1_555 1_555
Cd1A N9 1_555 1_555
Cd1C N5 1_555 1_555
N5C Cd1 1_555 1_555
N6_2 Cd1 1_555 1_555
N9A Cd1 1_555 1_555
C1 C6 1_555 1_555
C4 C5 1_555 1_555
C11 C12 1_555 1_555
C16 C17 1_555 1_555

#END
