
#######################################################################
#
#                 Cambridge Crystallographic Data Centre
#                                CCDC 
#
#######################################################################
#
# If this CIF has been generated from an entry in the Cambridge 
# Structural Database, then it will include bibliographic, chemical, 
# crystal, experimental, refinement or atomic coordinate data resulting 
# from the CCDC's data processing and validation procedures.
#
#######################################################################

data_ZULXIP
_symmetry_cell_setting           monoclinic
_symmetry_space_group_name_H-M   'P 21/c'
_symmetry_Int_Tables_number      14
_space_group_name_Hall           '-P 2ybc'
loop_
_symmetry_equiv_pos_site_id
_symmetry_equiv_pos_as_xyz
1 x,y,z
2 -x,1/2+y,1/2-z
3 -x,-y,-z
4 x,1/2-y,1/2+z
_cell_length_a                   9.7992(10)
_cell_length_b                   11.7800(12)
_cell_length_c                   17.8904(19)
_cell_angle_alpha                90
_cell_angle_beta                 94.721(2)
_cell_angle_gamma                90
_cell_volume                     2058.16
loop_
_atom_site_label
_atom_site_type_symbol
_atom_site_fract_x
_atom_site_fract_y
_atom_site_fract_z
Cd1 Cd 0.05166(4) 0.44870(4) 0.40217(3)
I1 I -0.00857(5) 0.47519(5) 0.24642(3)
O1 O 0.2510(5) 0.3343(4) 0.3999(3)
H1 H 0.3021 0.3650 0.3695
H2 H 0.2281 0.2657 0.3911
N1 N 0.2223(5) 0.5958(4) 0.4113(3)
N2 N 0.5987(5) 0.8539(4) 0.5163(3)
N3 N 0.6923(5) 0.9414(4) 0.5162(3)
N4 N 0.5763(4) 0.9339(4) 0.4060(2)
N5 N 0.9248(5) 1.2777(4) 0.4113(3)
N6 N 0.5725(7) 0.9175(6) 0.2007(3)
N7 N -0.1083(6) 0.5686(5) 0.4558(3)
N8 N -0.1650(3) 0.6356(3) 0.42773(17)
N9 N -0.2310(8) 0.7035(7) 0.4002(4)
C1 C 0.3172(7) 0.7737(6) 0.3761(4)
H3 H 0.3108 0.8366 0.3446
C2 C 0.2204(7) 0.6882(6) 0.3683(4)
H4 H 0.1496 0.6956 0.3307
C3 C 0.3250(6) 0.5878(5) 0.4650(4)
H5 H 0.3282 0.5245 0.4961
C4 C 0.4264(6) 0.6682(5) 0.4767(4)
H6 H 0.4961 0.6582 0.5146
C5 C 0.4243(6) 0.7640(5) 0.4318(3)
C6 C 0.5315(5) 0.8497(5) 0.4506(3)
C7 C 0.6777(6) 0.9887(5) 0.4496(3)
C8 C 0.7605(6) 1.0871(5) 0.4308(3)
C9 C 0.8742(7) 1.1102(6) 0.4791(5)
H7 H 0.8979 1.0624 0.5195
C10 C 0.9522(8) 1.2048(7) 0.4669(5)
H8 H 1.0290 1.2183 0.4998
C11 C 0.8145(7) 1.2554(6) 0.3660(4)
H9 H 0.7916 1.3056 0.3268
C12 C 0.7313(7) 1.1623(6) 0.3734(4)
H10 H 0.6555 1.1507 0.3395
C13 C 0.5347(5) 0.9548(5) 0.3277(3)
C14 C 0.6064(7) 0.9020(6) 0.2744(3)
H11 H 0.6795 0.8548 0.2896
C15 C 0.4683(8) 0.9877(8) 0.1814(4)
H12 H 0.4443 0.9990 0.1306
C16 C 0.3943(7) 1.0442(6) 0.2317(4)
H13 H 0.3237 1.0933 0.2155
C17 C 0.4278(6) 1.0259(5) 0.3071(3)
H14 H 0.3789 1.0610 0.3430
Cd1_2 Cd 1.05166(4) 1.44870(4) 0.40217(3)
Cd1B Cd -0.05166(4) 0.55130(4) 0.59783(3)
N5_2 N -0.0752(5) 0.2777(4) 0.4113(3)
N7B N 0.1083(6) 0.4314(5) 0.5442(3)
loop_
_geom_bond_atom_site_label_1
_geom_bond_atom_site_label_2
_geom_bond_site_symmetry_1
_geom_bond_site_symmetry_2
Cd1 I1 1_555 1_555
O1 Cd1 1_555 1_555
H1 O1 1_555 1_555
H2 O1 1_555 1_555
N1 Cd1 1_555 1_555
N2 N3 1_555 1_555
N3 C7 1_555 1_555
N4 C6 1_555 1_555
N5 C10 1_555 1_555
N6 C14 1_555 1_555
N7 Cd1 1_555 1_555
N8 N7 1_555 1_555
N9 N8 1_555 1_555
C1 H3 1_555 1_555
C2 N1 1_555 1_555
H4 C2 1_555 1_555
C3 N1 1_555 1_555
H5 C3 1_555 1_555
C4 C3 1_555 1_555
H6 C4 1_555 1_555
C5 C1 1_555 1_555
C6 N2 1_555 1_555
C7 N4 1_555 1_555
C8 C7 1_555 1_555
C9 C8 1_555 1_555
H7 C9 1_555 1_555
C10 C9 1_555 1_555
H8 C10 1_555 1_555
C11 N5 1_555 1_555
H9 C11 1_555 1_555
C12 C8 1_555 1_555
H10 C12 1_555 1_555
C13 N4 1_555 1_555
C14 C13 1_555 1_555
H11 C14 1_555 1_555
C15 N6 1_555 1_555
H12 C15 1_555 1_555
C16 C15 1_555 1_555
H13 C16 1_555 1_555
C17 C13 1_555 1_555
H14 C17 1_555 1_555
Cd1_2 N5 1_555 1_555
Cd1B N7 1_555 1_555
N5_2 Cd1 1_555 1_555
N7B Cd1 1_555 1_555
C1 C2 1_555 1_555
C4 C5 1_555 1_555
C5 C6 1_555 1_555
C11 C12 1_555 1_555
C16 C17 1_555 1_555
Cd1B N7B 1_555 1_555

#END
