
#######################################################################
#
#                 Cambridge Crystallographic Data Centre
#                                CCDC 
#
#######################################################################
#
# If this CIF has been generated from an entry in the Cambridge 
# Structural Database, then it will include bibliographic, chemical, 
# crystal, experimental, refinement or atomic coordinate data resulting 
# from the CCDC's data processing and validation procedures.
#
#######################################################################

data_ZUMFIY
_symmetry_cell_setting           orthorhombic
_symmetry_space_group_name_H-M   'P n a 21'
_symmetry_Int_Tables_number      33
_space_group_name_Hall           'P 2c -2n'
loop_
_symmetry_equiv_pos_site_id
_symmetry_equiv_pos_as_xyz
1 x,y,z
2 -x,-y,1/2+z
3 1/2+x,1/2-y,z
4 1/2-x,1/2+y,1/2+z
_cell_length_a                   6.7408(7)
_cell_length_b                   16.0313(16)
_cell_length_c                   6.2426(6)
_cell_angle_alpha                90
_cell_angle_beta                 90
_cell_angle_gamma                90
_cell_volume                     674.599
loop_
_atom_site_label
_atom_site_type_symbol
_atom_site_fract_x
_atom_site_fract_y
_atom_site_fract_z
Cd1 Cd 0.52126(3) 0.426088(12) 0.06574(9)
O1 O 0.1769(4) 0.42030(15) 0.1350(4)
O2 O 0.0343(4) 0.05526(18) 0.4378(5)
O3 O -0.0579(5) 0.12277(19) 0.7346(5)
N1 N 0.0819(5) 0.20172(18) 0.2257(5)
C1 C 0.1160(5) 0.3521(2) 0.2326(6)
O4 O 0.8306(5) 0.44410(18) -0.0912(5)
H1 H 0.8524 0.4048 -0.1822
H2 H 0.8348 0.4913 -0.1566
C2 C -0.0035(5) 0.1220(2) 0.5453(13)
C3 C 0.0360(6) 0.3523(2) 0.4399(7)
H3 H 0.0127 0.4026 0.5096
C4 C -0.0082(5) 0.2780(2) 0.5407(13)
H4 H -0.0576 0.2779 0.6798
C5 C 0.1268(5) 0.2731(2) 0.1292(6)
H5 H 0.1673 0.2714 -0.0132
C6 C 0.0221(5) 0.2031(2) 0.4316(7)
Cd1B Cd 0.02126(3) 0.073912(12) 0.06574(9)
Cd1B_2 Cd 0.02126(3) 0.073912(12) 1.06574(9)
Cd1C Cd -0.02126(3) -0.073912(12) 0.56574(9)
O2B O 0.5343(4) 0.44474(18) 0.4378(5)
O2C O 0.4657(4) 0.55526(18) -0.0622(5)
O3B O 0.4421(5) 0.37723(19) -0.2654(5)
N1B N 0.5819(5) 0.29828(18) 0.2257(5)
loop_
_geom_bond_atom_site_label_1
_geom_bond_atom_site_label_2
_geom_bond_site_symmetry_1
_geom_bond_site_symmetry_2
Cd1 O1 1_555 1_555
O1 C1 1_555 1_555
O2 C2 1_555 1_555
O3 C2 1_555 1_555
N1 C5 1_555 1_555
C1 C3 1_555 1_555
O4 Cd1 1_555 1_555
H1 O4 1_555 1_555
H2 O4 1_555 1_555
C2 C6 1_555 1_555
C3 H3 1_555 1_555
C4 C3 1_555 1_555
H4 C4 1_555 1_555
C5 C1 1_555 1_555
H5 C5 1_555 1_555
C6 N1 1_555 1_555
Cd1B O2 1_555 1_555
Cd1B_2 O3 1_555 1_555
Cd1C O2 1_555 1_555
O2B Cd1 1_555 1_555
O2C Cd1 1_555 1_555
O3B Cd1 1_555 1_555
N1B Cd1 1_555 1_555
N1 Cd1B 1_555 1_555
C4 C6 1_555 1_555

#END
