
#######################################################################
#
#                 Cambridge Crystallographic Data Centre
#                                CCDC 
#
#######################################################################
#
# If this CIF has been generated from an entry in the Cambridge 
# Structural Database, then it will include bibliographic, chemical, 
# crystal, experimental, refinement or atomic coordinate data resulting 
# from the CCDC's data processing and validation procedures.
#
#######################################################################

data_ZUMSIJ
_symmetry_cell_setting           monoclinic
_symmetry_space_group_name_H-M   'P 21'
_symmetry_Int_Tables_number      4
_space_group_name_Hall           'P 2yb'
loop_
_symmetry_equiv_pos_site_id
_symmetry_equiv_pos_as_xyz
1 x,y,z
2 -x,1/2+y,-z
_cell_length_a                   9.590(3)
_cell_length_b                   9.206(3)
_cell_length_c                   9.761(2)
_cell_angle_alpha                90
_cell_angle_beta                 117.1(2)
_cell_angle_gamma                90
_cell_volume                     767.145
loop_
_atom_site_label
_atom_site_type_symbol
_atom_site_fract_x
_atom_site_fract_y
_atom_site_fract_z
Bi1 Bi 0.1013(1) 0.6563 0.1231(1)
Cl1 Cl 0.1788(6) 0.9865(4) 0.1569(6)
S1 S 0.1547(6) 0.3845(4) 0.1587(6)
S2 S 0.3451(3) 0.6791(8) 0.3801(3)
N1 N 0.2712(9) 0.6566(21) -0.0138(8)
N2 N -0.0535(11) 0.6288(13) 0.2808(11)
C1 C 0.3542(14) 0.3857(15) 0.3141(14)
H1 H 0.4337(14) 0.4164(15) 0.2686(14)
H2 H 0.3836(14) 0.2767(15) 0.3591(14)
C2 C 0.3738(16) 0.4895(15) 0.4430(15)
H3 H 0.2911(16) 0.4616(15) 0.4854(15)
H4 H 0.4904(16) 0.4775(15) 0.5367(15)
C3 C 0.4098(13) 0.7235(14) 0.0409(13)
H5 H 0.4468(13) 0.7936(14) 0.1400(13)
C4 C 0.5060(13) 0.7054(18) -0.0309(16)
H6 H 0.6185(13) 0.7589(18) 0.0142(16)
C5 C 0.4574(19) 0.6200(16) -0.1583(19)
H7 H 0.5284(19) 0.6080(16) -0.2174(19)
C6 C 0.3166(22) 0.5473(23) -0.2119(20)
H8 H 0.2782(22) 0.4750(23) -0.3096(20)
C7 C 0.2246(16) 0.5677(18) -0.1369(15)
H9 H 0.1121(16) 0.5146(18) -0.1793(15)
C8 C -0.0230(13) 0.7144(14) 0.4017(14)
H10 H 0.0576(13) 0.8041(14) 0.4274(14)
C9 C -0.0941(16) 0.6988(19) 0.4951(14)
H11 H -0.0703(16) 0.7651(19) 0.5946(14)
C10 C -0.2024(19) 0.5858(20) 0.4616(17)
H12 H -0.2617(19) 0.5653(20) 0.5308(17)
C11 C -0.2327(16) 0.4957(18) 0.3386(18)
H13 H -0.3137(16) 0.4061(18) 0.3106(18)
C12 C -0.1603(14) 0.5199(16) 0.2470(15)
H14 H -0.1853(14) 0.4539(16) 0.1469(15)
Cl1A Cl -0.1788(6) 0.4865(4) -0.1569(6)
S1A S -0.1547(6) 0.8845(4) -0.1587(6)
Bi1A Bi -0.1013(1) 1.1563 -0.1231(1)
Bi1A_2 Bi -0.1013(1) 0.1563 -0.1231(1)
loop_
_geom_bond_atom_site_label_1
_geom_bond_atom_site_label_2
_geom_bond_site_symmetry_1
_geom_bond_site_symmetry_2
Bi1 Cl1 1_555 1_555
Cl1 Bi1A 1_555 1_555
S1 Bi1 1_555 1_555
S2 Bi1 1_555 1_555
N1 Bi1 1_555 1_555
N2 Bi1 1_555 1_555
C1 S1 1_555 1_555
H1 C1 1_555 1_555
H2 C1 1_555 1_555
C2 S2 1_555 1_555
H3 C2 1_555 1_555
H4 C2 1_555 1_555
C3 N1 1_555 1_555
H5 C3 1_555 1_555
C4 C3 1_555 1_555
H6 C4 1_555 1_555
C5 C4 1_555 1_555
H7 C5 1_555 1_555
C6 C5 1_555 1_555
H8 C6 1_555 1_555
C7 N1 1_555 1_555
H9 C7 1_555 1_555
C8 N2 1_555 1_555
H10 C8 1_555 1_555
C9 C8 1_555 1_555
H11 C9 1_555 1_555
C10 C9 1_555 1_555
H12 C10 1_555 1_555
C11 C10 1_555 1_555
H13 C11 1_555 1_555
C12 N2 1_555 1_555
H14 C12 1_555 1_555
Cl1A Bi1 1_555 1_555
S1A Bi1 1_555 1_555
Bi1A S1A 1_555 1_555
Bi1A_2 S1 1_555 1_555
C1 C2 1_555 1_555
C6 C7 1_555 1_555
C11 C12 1_555 1_555
Cl1A Bi1A_2 1_555 1_555

#END
