
#######################################################################
#
#                 Cambridge Crystallographic Data Centre
#                                CCDC 
#
#######################################################################
#
# If this CIF has been generated from an entry in the Cambridge 
# Structural Database, then it will include bibliographic, chemical, 
# crystal, experimental, refinement or atomic coordinate data resulting 
# from the CCDC's data processing and validation procedures.
#
#######################################################################

data_ZUMTIM
_symmetry_cell_setting           monoclinic
_symmetry_space_group_name_H-M   'P 21/c'
_symmetry_Int_Tables_number      14
_space_group_name_Hall           '-P 2ybc'
loop_
_symmetry_equiv_pos_site_id
_symmetry_equiv_pos_as_xyz
1 x,y,z
2 -x,1/2+y,1/2-z
3 -x,-y,-z
4 x,1/2-y,1/2+z
_cell_length_a                   8.8263(2)
_cell_length_b                   17.9568(4)
_cell_length_c                   14.5770(3)
_cell_angle_alpha                90
_cell_angle_beta                 95.475(2)
_cell_angle_gamma                90
_cell_volume                     2299.8
loop_
_atom_site_label
_atom_site_type_symbol
_atom_site_fract_x
_atom_site_fract_y
_atom_site_fract_z
Cd1 Cd 0.64378(3) 0.603091(16) 0.22703(2)
Br1 Br 0.75860(7) 0.63981(3) 0.40125(4)
O1 O 0.5115(4) 0.2026(2) 0.2776(3)
O2 O 0.5519(7) 0.5837(4) 0.0702(4)
O3 O 0.6451(4) 0.1184(2) 0.2095(3)
O4 O 0.60692(16) 0.47325(8) 0.24242(11)
O5 O 0.83059(16) 0.50684(8) 0.20363(11)
N1 N 0.8232(2) 0.67767(8) 0.16143(14)
N2 N 1.3454(4) 0.92953(14) -0.0009(3)
C1 C 0.6218(2) 0.18360(8) 0.23271(17)
C2 C 0.7224(2) 0.24555(8) 0.20627(16)
C3 C 0.68147(18) 0.31990(8) 0.22062(13)
H1 H 0.5892 0.3307 0.2466
C4 C 0.7743(5) 0.3776(3) 0.1972(3)
C5 C 0.9083(5) 0.3619(3) 0.1576(3)
H2 H 0.9712 0.4015 0.1402
C6 C 0.9501(5) 0.2886(3) 0.1433(3)
H3 H 1.0422 0.2779 0.1171
C7 C 0.8576(5) 0.2309(2) 0.1674(3)
H4 H 0.8865 0.1808 0.1574
C8 C 0.7346(6) 0.4572(3) 0.2147(4)
C9 C 0.8050(6) 0.7516(3) 0.1674(4)
H5 H 0.7183 0.7703 0.1939
C10 C 0.9454(6) 0.6522(3) 0.1237(4)
H6 H 0.9584 0.5999 0.1183
C11 C 0.9075(5) 0.8016(3) 0.1367(3)
H7 H 0.8908 0.8536 0.1420
C12 C 1.0536(5) 0.6991(3) 0.0920(3)
H8 H 1.1398 0.6790 0.0664
C13 C 1.0351(5) 0.7755(3) 0.0980(3)
C14 C 1.1477(5) 0.8283(3) 0.0659(3)
C15 C 1.1113(6) 0.9033(3) 0.0557(5)
H9 H 1.0154 0.9206 0.0715
C16 C 1.2909(6) 0.8061(3) 0.0443(4)
H10 H 1.3216 0.7556 0.0520
C17 C 1.2115(7) 0.9525(3) 0.0232(5)
H11 H 1.1854 1.0038 0.0179
C18 C 1.3884(7) 0.8579(3) 0.0117(5)
H12 H 1.4870 0.8429 -0.0020
C19 C 1.4491(6) 0.9847(3) -0.0389(4)
H13 H 1.5100 0.9603 -0.0840
H14 H 1.3890 1.0253 -0.0707
H15 H 0.5190 0.5381 0.0631
H16 H 0.6279 0.5891 0.0360
N1B N 2.1768(2) 1.32233(8) -0.16143(14)
N2B N 1.6546(4) 1.07047(14) 0.0009(3)
C9B C 2.1950(6) 1.2484(3) -0.1674(4)
H5B H 2.2817 1.2297 -0.1939
C10B C 2.0546(6) 1.3478(3) -0.1237(4)
H6B H 2.0416 1.4001 -0.1183
C11B C 2.0925(5) 1.1984(3) -0.1367(3)
H7B H 2.1092 1.1464 -0.1420
C12B C 1.9464(5) 1.3009(3) -0.0920(3)
H8B H 1.8602 1.3210 -0.0664
C13B C 1.9649(5) 1.2245(3) -0.0980(3)
C14B C 1.8523(5) 1.1717(3) -0.0659(3)
C15B C 1.8887(6) 1.0967(3) -0.0557(5)
H9B H 1.9846 1.0794 -0.0715
C16B C 1.7091(6) 1.1939(3) -0.0443(4)
H10B H 1.6784 1.2444 -0.0520
C17B C 1.7885(7) 1.0475(3) -0.0232(5)
H11B H 1.8146 0.9962 -0.0179
C18B C 1.6116(7) 1.1421(3) -0.0117(5)
H12B H 1.5130 1.1571 0.0020
C19B C 1.5509(6) 1.0153(3) 0.0389(4)
H13B H 1.4900 1.0397 0.0840
H14B H 1.6110 0.9747 0.0707
Cd1B Cd 2.35622(3) 1.396909(16) -0.22703(2)
Br1B Br 2.24140(7) 1.36019(3) -0.40125(4)
O1B O 2.4885(4) 1.7974(2) -0.2776(3)
O2B O 2.4481(7) 1.4163(4) -0.0702(4)
O3B O 2.3549(4) 1.8816(2) -0.2095(3)
O4B O 2.39308(16) 1.52675(8) -0.24242(11)
O5B O 2.16941(16) 1.49316(8) -0.20363(11)
C1B C 2.3782(2) 1.81640(8) -0.23271(17)
C2B C 2.2776(2) 1.75445(8) -0.20627(16)
C3B C 2.31853(18) 1.68010(8) -0.22062(13)
H1B H 2.4108 1.6693 -0.2466
C4B C 2.2257(5) 1.6224(3) -0.1972(3)
C5B C 2.0917(5) 1.6381(3) -0.1576(3)
H2B H 2.0288 1.5985 -0.1402
C6B C 2.0499(5) 1.7114(3) -0.1433(3)
H3B H 1.9578 1.7221 -0.1171
C7B C 2.1424(5) 1.7691(2) -0.1674(3)
H4B H 2.1135 1.8192 -0.1574
C8B C 2.2654(6) 1.5428(3) -0.2147(4)
H15B H 2.4810 1.4619 -0.0631
H16B H 2.3721 1.4109 -0.0360
Cd1A Cd 0.35622(3) 0.103091(16) 0.27297(2)
Cd1C Cd 2.64378(3) 1.896909(16) -0.27297(2)
O1A O 0.4885(4) 0.7026(2) 0.2224(3)
O1C O 2.5115(4) 1.2974(2) -0.2224(3)
O3A O 0.3549(4) 0.6184(2) 0.2905(3)
O3C O 2.6451(4) 1.3816(2) -0.2905(3)
O6 O 0.2559(2) 0.52485(13) 0.0372(2)
H17 H 0.1732 0.5016 0.0625
H18 H 0.2936 0.5511 0.0780
O7 O 0.1340(2) 0.50677(11) 0.3044(2)
H19 H 0.0504 0.5210 0.2707
H20 H 0.1878 0.5555 0.3029
O8 O 0.31827(16) 0.41749(10) 0.20673(16)
H21 H 0.3124 0.3846 0.1913
H22 H 0.3938 0.4403 0.2402
O9 O 0.3504(4) 0.18087(14) 0.56041(17)
H23 H 0.2601 0.1693 0.5397
H24 H 0.4041 0.1447 0.5728
loop_
_geom_bond_atom_site_label_1
_geom_bond_atom_site_label_2
_geom_bond_site_symmetry_1
_geom_bond_site_symmetry_2
Cd1 Br1 1_555 1_555
O1 C1 1_555 1_555
O2 Cd1 1_555 1_555
O3 C1 1_555 1_555
O4 Cd1 1_555 1_555
O5 Cd1 1_555 1_555
N1 Cd1 1_555 1_555
N2 C17 1_555 1_555
C1 C2 1_555 1_555
C2 C3 1_555 1_555
C3 H1 1_555 1_555
C4 C3 1_555 1_555
C5 C4 1_555 1_555
H2 C5 1_555 1_555
C6 C5 1_555 1_555
H3 C6 1_555 1_555
C7 C2 1_555 1_555
H4 C7 1_555 1_555
C8 O4 1_555 1_555
C9 N1 1_555 1_555
H5 C9 1_555 1_555
C10 N1 1_555 1_555
H6 C10 1_555 1_555
C11 C9 1_555 1_555
H7 C11 1_555 1_555
C12 C10 1_555 1_555
H8 C12 1_555 1_555
C13 C11 1_555 1_555
C14 C13 1_555 1_555
C15 C14 1_555 1_555
H9 C15 1_555 1_555
C16 C14 1_555 1_555
H10 C16 1_555 1_555
C17 C15 1_555 1_555
H11 C17 1_555 1_555
C18 N2 1_555 1_555
H12 C18 1_555 1_555
C19 N2 1_555 1_555
H13 C19 1_555 1_555
H14 C19 1_555 1_555
H15 O2 1_555 1_555
H16 O2 1_555 1_555
O6 H17 1_555 1_555
H18 O6 1_555 1_555
O7 H19 1_555 1_555
H20 O7 1_555 1_555
O8 H21 1_555 1_555
H22 O8 1_555 1_555
O9 H23 1_555 1_555
H24 O9 1_555 1_555
N1B C9B 1_555 1_555
N2B C17B 1_555 1_555
C9B H5B 1_555 1_555
C10B N1B 1_555 1_555
H6B C10B 1_555 1_555
C11B C9B 1_555 1_555
H7B C11B 1_555 1_555
C12B C10B 1_555 1_555
H8B C12B 1_555 1_555
C13B C11B 1_555 1_555
C14B C13B 1_555 1_555
C15B C14B 1_555 1_555
H9B C15B 1_555 1_555
C16B C14B 1_555 1_555
H10B C16B 1_555 1_555
C17B C15B 1_555 1_555
H11B C17B 1_555 1_555
C18B N2B 1_555 1_555
H12B C18B 1_555 1_555
C19B C19 1_555 1_555
H13B C19B 1_555 1_555
H14B C19B 1_555 1_555
Cd1B N1B 1_555 1_555
Br1B Cd1B 1_555 1_555
O1B C1B 1_555 1_555
O2B Cd1B 1_555 1_555
O3B C1B 1_555 1_555
O4B Cd1B 1_555 1_555
O5B Cd1B 1_555 1_555
C1B C2B 1_555 1_555
C2B C3B 1_555 1_555
C3B H1B 1_555 1_555
C4B C3B 1_555 1_555
C5B C4B 1_555 1_555
H2B C5B 1_555 1_555
C6B C5B 1_555 1_555
H3B C6B 1_555 1_555
C7B C2B 1_555 1_555
H4B C7B 1_555 1_555
C8B O4B 1_555 1_555
H15B O2B 1_555 1_555
H16B O2B 1_555 1_555
Cd1A O1 1_555 1_555
Cd1C O1B 1_555 1_555
O1A Cd1 1_555 1_555
O1C Cd1B 1_555 1_555
O3A Cd1 1_555 1_555
O3C Cd1B 1_555 1_555
O3 Cd1A 1_555 1_555
O5 C8 1_555 1_555
C4 C8 1_555 1_555
C6 C7 1_555 1_555
C12 C13 1_555 1_555
C16 C18 1_555 1_555
N2B C19B 1_555 1_555
C12B C13B 1_555 1_555
C16B C18B 1_555 1_555
O3B Cd1C 1_555 1_555
O5B C8B 1_555 1_555
C4B C8B 1_555 1_555
C6B C7B 1_555 1_555

#END
