
#######################################################################
#
#                 Cambridge Crystallographic Data Centre
#                                CCDC 
#
#######################################################################
#
# If this CIF has been generated from an entry in the Cambridge 
# Structural Database, then it will include bibliographic, chemical, 
# crystal, experimental, refinement or atomic coordinate data resulting 
# from the CCDC's data processing and validation procedures.
#
#######################################################################

data_ZUMVIO
_symmetry_cell_setting           orthorhombic
_symmetry_space_group_name_H-M   'P b c a'
_symmetry_Int_Tables_number      61
_space_group_name_Hall           '-P 2ac 2ab'
loop_
_symmetry_equiv_pos_site_id
_symmetry_equiv_pos_as_xyz
1 x,y,z
2 1/2-x,-y,1/2+z
3 -x,1/2+y,1/2-z
4 1/2+x,1/2-y,-z
5 -x,-y,-z
6 1/2+x,y,1/2-z
7 x,1/2-y,1/2+z
8 1/2-x,1/2+y,z
_cell_length_a                   15.6277(10)
_cell_length_b                   16.4089(11)
_cell_length_c                   16.8863(11)
_cell_angle_alpha                90
_cell_angle_beta                 90
_cell_angle_gamma                90
_cell_volume                     4330.21
loop_
_atom_site_label
_atom_site_type_symbol
_atom_site_fract_x
_atom_site_fract_y
_atom_site_fract_z
Cu1 Cu 0.81959(3) 0.13472(3) 0.42355(3)
N1 N 0.6899(2) 0.1153(2) 0.4374(2)
N2 N 0.7774(2) 0.1635(2) 0.31563(19)
N3 N 0.8166(2) 0.1748(2) 0.2432(2)
N4 N 0.6781(2) 0.1551(2) 0.2263(2)
N5 N 0.8054(2) 0.2432(2) -0.0136(2)
N6 N 0.4402(2) 0.1411(2) 0.1157(2)
N7 N 0.8488(3) 0.0715(2) 0.5169(2)
N8 N 0.9116(3) 0.0898(3) 0.5524(3)
N9 N 0.9704(5) 0.1082(5) 0.5889(5)
C1 C 0.6509(3) 0.0981(3) 0.5056(3)
H1 H 0.6842 0.0862 0.5497
C2 C 0.5632(3) 0.0971(4) 0.5133(3)
H2 H 0.5376 0.0842 0.5614
C3 C 0.5144(4) 0.1157(5) 0.4479(4)
H3 H 0.4550 0.1151 0.4513
C4 C 0.5536(3) 0.1350(4) 0.3773(3)
H4 H 0.5212 0.1487 0.3330
C5 C 0.6411(3) 0.1337(3) 0.3736(3)
C6 C 0.6954(3) 0.1515(3) 0.3050(3)
C7 C 0.7556(3) 0.1695(3) 0.1906(2)
C8 C 0.7656(3) 0.1713(3) 0.1041(2)
C9 C 0.7970(3) 0.2395(3) 0.0659(2)
H5 H 0.8130 0.2844 0.0961
C10 C 0.7823(3) 0.1783(3) -0.0552(3)
H6 H 0.7880 0.1802 -0.1100
C11 C 0.7503(4) 0.1085(3) -0.0217(3)
H7 H 0.7347 0.0644 -0.0531
C12 C 0.7418(3) 0.1050(3) 0.0590(3)
H8 H 0.7202 0.0584 0.0832
C13 C 0.5967(3) 0.1498(3) 0.1878(2)
C14 C 0.5602(3) 0.2177(3) 0.1574(4)
H9 H 0.5876 0.2679 0.1606
C15 C 0.4815(3) 0.2105(3) 0.1215(4)
H10 H 0.4564 0.2570 0.1004
C16 C 0.4765(3) 0.0749(3) 0.1452(4)
H11 H 0.4477 0.0255 0.1412
C17 C 0.5559(3) 0.0763(3) 0.1816(4)
H12 H 0.5806 0.0289 0.2013
Cu1E Cu 0.31959(3) 0.13472(3) 0.07645(3)
Cu1F Cu 0.81959(3) 0.36528(3) -0.07645(3)
N5F N 0.8054(2) 0.2568(2) 0.4864(2)
N6E N 0.9402(2) 0.1411(2) 0.3843(2)
Cl1 Cl 0.70621(11) 0.07023(9) 0.73964(8)
O1 O 0.7101(7) 0.0319(5) 0.8084(3)
O2 O 0.6456(6) 0.0346(6) 0.6896(4)
O3 O 0.7037(7) 0.1497(4) 0.7436(7)
O4 O 0.7776(7) 0.0486(11) 0.7020(8)
O5 O 0.9431(6) 0.1035(6) 0.8064(6)
H13 H 0.9222 0.0786 0.8461
H14 H 0.9944 0.0924 0.7939
loop_
_geom_bond_atom_site_label_1
_geom_bond_atom_site_label_2
_geom_bond_site_symmetry_1
_geom_bond_site_symmetry_2
Cu1 N1 1_555 1_555
N1 C1 1_555 1_555
N2 Cu1 1_555 1_555
N3 N2 1_555 1_555
N4 C6 1_555 1_555
N5 C9 1_555 1_555
N6 C15 1_555 1_555
N7 Cu1 1_555 1_555
N8 N7 1_555 1_555
N9 N8 1_555 1_555
C1 H1 1_555 1_555
C2 C1 1_555 1_555
H2 C2 1_555 1_555
C3 C2 1_555 1_555
H3 C3 1_555 1_555
C4 C3 1_555 1_555
H4 C4 1_555 1_555
C5 N1 1_555 1_555
C6 N2 1_555 1_555
C7 N3 1_555 1_555
C8 C7 1_555 1_555
C9 C8 1_555 1_555
H5 C9 1_555 1_555
C10 N5 1_555 1_555
H6 C10 1_555 1_555
C11 C10 1_555 1_555
H7 C11 1_555 1_555
C12 C8 1_555 1_555
H8 C12 1_555 1_555
C13 N4 1_555 1_555
C14 C13 1_555 1_555
H9 C14 1_555 1_555
C15 C14 1_555 1_555
H10 C15 1_555 1_555
C16 N6 1_555 1_555
H11 C16 1_555 1_555
C17 C13 1_555 1_555
H12 C17 1_555 1_555
Cl1 O1 1_555 1_555
O2 Cl1 1_555 1_555
O3 Cl1 1_555 1_555
O4 Cl1 1_555 1_555
O5 H13 1_555 1_555
H14 O5 1_555 1_555
Cu1E N6 1_555 1_555
Cu1F N5 1_555 1_555
N5F Cu1 1_555 1_555
N6E Cu1 1_555 1_555
N4 C7 1_555 1_555
C4 C5 1_555 1_555
C5 C6 1_555 1_555
C11 C12 1_555 1_555
C16 C17 1_555 1_555

#END
