
#######################################################################
#
#                 Cambridge Crystallographic Data Centre
#                                CCDC 
#
#######################################################################
#
# If this CIF has been generated from an entry in the Cambridge 
# Structural Database, then it will include bibliographic, chemical, 
# crystal, experimental, refinement or atomic coordinate data resulting 
# from the CCDC's data processing and validation procedures.
#
#######################################################################

data_ZUMVAE
_symmetry_cell_setting           triclinic
_symmetry_space_group_name_H-M   'P -1'
_symmetry_Int_Tables_number      2
_space_group_name_Hall           '-P 1'
loop_
_symmetry_equiv_pos_site_id
_symmetry_equiv_pos_as_xyz
1 x,y,z
2 -x,-y,-z
_cell_length_a                   11.939(6)
_cell_length_b                   14.495(5)
_cell_length_c                   8.271(4)
_cell_angle_alpha                87.16(4)
_cell_angle_beta                 74.45(4)
_cell_angle_gamma                67.08(3)
_cell_volume                     1267.65
loop_
_atom_site_label
_atom_site_type_symbol
_atom_site_fract_x
_atom_site_fract_y
_atom_site_fract_z
Cu1 Cu 0.7824(2) 0.8011(2) 0.8841(3)
Cl1 Cl 0.6941(5) 0.7439(4) 1.2725(7)
S1 S 1.2918(6) 0.5611(5) 0.125(1)
S2 S 1.1495(5) 0.0737(4) -0.5053(6)
O1 O 0.604(1) 0.835(1) 0.858(2)
O2 O 0.764(1) 0.708(1) 1.103(2)
O3 O 0.593(2) 0.714(1) 1.323(2)
O4 O 0.644(2) 0.850(1) 1.281(2)
O5 O 0.776(2) 0.701(1) 1.375(2)
N1 N 0.885(1) 0.688(1) 0.721(2)
N2 N 0.845(1) 0.895(1) 0.927(1)
C1 C 0.940(2) 0.623(1) 0.628(2)
C2 C 1.019(2) 0.536(1) 0.503(2)
C3 C 1.136(2) 0.543(1) 0.393(2)
C4 C 1.157(2) 0.546(1) 0.220(2)
C5 C 1.330(1) 0.564(1) 0.325(2)
C6 C 1.234(2) 0.555(1) 0.444(2)
C7 C 1.233(2) 0.548(1) 0.624(2)
C8 C 1.075(2) 0.545(1) 0.115(2)
C9 C 1.419(3) 0.571(3) 0.328(4)
C10 C 1.092(2) 0.064(1) 0.067(2)
C11 C 1.003(2) 0.016(1) 0.072(2)
C12 C 1.062(2) -0.002(1) -0.244(2)
C13 C 1.141(2) -0.086(1) -0.369(2)
C14 C 1.194(2) -0.052(1) -0.511(2)
C15 C 1.059(2) 0.089(1) -0.303(2)
C16 C 0.983(2) 0.190(1) -0.217(2)
C17 C 1.161(2) -0.193(1) -0.339(2)
C18 C 1.280(2) -0.113(1) -0.669(3)
C19 C 0.532(3) 0.916(2) 0.782(4)
C20 C 0.435(3) 0.899(2) 0.745(4)
C21 C 0.447(3) 0.803(2) 0.793(4)
C22 C 0.567(3) 0.752(2) 0.845(3)
H1 H 1.3005 0.4909 0.6446
H2 H 1.2358 0.6070 0.6699
H3 H 1.1543 0.5436 0.6925
H4 H 0.9921 0.6027 0.1456
H5 H 1.1096 0.5487 -0.0030
H6 H 1.0540 0.4864 0.1274
H7 H 1.4151 0.6299 0.3927
H8 H 1.4842 0.5139 0.3728
H9 H 1.4784 0.5759 0.2147
H10 H 0.9987 0.2417 -0.2872
H11 H 1.0016 0.1964 -0.1138
H12 H 0.8935 0.2058 -0.1922
H13 H 1.1112 -0.2005 -0.2308
H14 H 1.1372 -0.2225 -0.4219
H15 H 1.2478 -0.2342 -0.3471
H16 H 1.2405 -0.1457 -0.7198
H17 H 1.3564 -0.1646 -0.6523
H18 H 1.3082 -0.0717 -0.7547
H19 H 0.5879 0.9250 0.6733
H20 H 0.5005 0.9771 0.8467
H21 H 0.4379 0.9047 0.6260
H22 H 0.3546 0.9471 0.8062
H23 H 0.3776 0.8060 0.8799
H24 H 0.4512 0.7647 0.6960
H25 H 0.5553 0.7179 0.9515
H26 H 0.6341 0.6959 0.7649
C2A C 0.981(2) 0.464(1) 0.497(2)
C1A C 1.060(2) 0.377(1) 0.372(2)
N1A N 1.115(1) 0.312(1) 0.279(2)
Cu1A Cu 1.2176(2) 0.1989(2) 0.1159(3)
O1A O 1.396(1) 0.165(1) 0.142(2)
C19A C 1.468(3) 0.084(2) 0.218(4)
C20A C 1.565(3) 0.101(2) 0.255(4)
C21A C 1.553(3) 0.197(2) 0.207(4)
C22A C 1.433(3) 0.248(2) 0.155(3)
H25A H 1.4447 0.2821 0.0485
H26A H 1.3659 0.3041 0.2351
H23A H 1.6224 0.1940 0.1201
H24A H 1.5488 0.2353 0.3040
H21A H 1.5621 0.0953 0.3740
H22A H 1.6454 0.0529 0.1938
H19A H 1.4121 0.0750 0.3267
H20A H 1.4995 0.0229 0.1533
O2A O 1.236(1) 0.292(1) -0.103(2)
Cl1A Cl 1.3059(5) 0.2561(4) -0.2725(7)
O3A O 1.407(2) 0.286(1) -0.323(2)
O4A O 1.356(2) 0.150(1) -0.281(2)
O5A O 1.224(2) 0.299(1) -0.375(2)
N2A N 1.155(1) 0.105(1) 0.073(1)
C11A C 0.997(2) -0.016(1) -0.072(2)
C10A C 0.908(2) -0.064(1) -0.067(2)
N2_2 N 0.845(1) -0.105(1) -0.073(1)
Cu1_2 Cu 0.7824(2) -0.1989(2) -0.1159(3)
C12A C 0.938(2) 0.002(1) 0.244(2)
C13A C 0.859(2) 0.086(1) 0.369(2)
C14A C 0.806(2) 0.052(1) 0.511(2)
S2A S 0.8505(5) -0.0737(4) 0.5053(6)
C15A C 0.941(2) -0.089(1) 0.303(2)
C16A C 1.017(2) -0.190(1) 0.217(2)
H10A H 1.0013 -0.2417 0.2872
H11A H 0.9984 -0.1964 0.1138
H12A H 1.1065 -0.2058 0.1922
C18A C 0.720(2) 0.113(1) 0.669(3)
H16A H 0.7595 0.1457 0.7198
H17A H 0.6436 0.1646 0.6523
H18A H 0.6918 0.0717 0.7547
C17A C 0.839(2) 0.193(1) 0.339(2)
H13A H 0.8888 0.2005 0.2308
H14A H 0.8628 0.2225 0.4219
H15A H 0.7522 0.2342 0.3471
C3A C 0.864(2) 0.457(1) 0.607(2)
C4A C 0.843(2) 0.454(1) 0.780(2)
S1A S 0.7082(6) 0.4389(5) 0.875(1)
C5A C 0.670(1) 0.436(1) 0.675(2)
C6A C 0.766(2) 0.445(1) 0.556(2)
C7A C 0.767(2) 0.452(1) 0.376(2)
H1A H 0.6995 0.5091 0.3554
H2A H 0.7642 0.3930 0.3301
H3A H 0.8457 0.4564 0.3075
C9A C 0.581(3) 0.429(3) 0.672(4)
H7A H 0.5849 0.3701 0.6073
H8A H 0.5158 0.4861 0.6272
H9A H 0.5216 0.4241 0.7853
C8A C 0.925(2) 0.455(1) 0.885(2)
H4A H 1.0079 0.3973 0.8544
H5A H 0.8904 0.4513 1.0030
H6A H 0.9460 0.5136 0.8726
loop_
_geom_bond_atom_site_label_1
_geom_bond_atom_site_label_2
_geom_bond_site_symmetry_1
_geom_bond_site_symmetry_2
Cu1 O1 1_555 1_555
Cl1 O2 1_555 1_555
S1 C4 1_555 1_555
S2 C14 1_555 1_555
O1 C19 1_555 1_555
O2 Cu1 1_555 1_555
O3 Cl1 1_555 1_555
O4 Cl1 1_555 1_555
O5 Cl1 1_555 1_555
N1 Cu1 1_555 1_555
N2 Cu1 1_555 1_555
C1 N1 1_555 1_555
C2 C1 1_555 1_555
C3 C2 1_555 1_555
C4 C3 1_555 1_555
C5 S1 1_555 1_555
C6 C3 1_555 1_555
C7 C6 1_555 1_555
C8 C4 1_555 1_555
C9 C5 1_555 1_555
C10 C11 1_555 1_555
C11 C11A 1_555 1_555
C12 C13 1_555 1_555
C13 C14 1_555 1_555
C14 C18 1_555 1_555
C15 S2 1_555 1_555
C16 C15 1_555 1_555
C17 C13 1_555 1_555
C18 H16 1_555 1_555
C19 C20 1_555 1_555
C20 C21 1_555 1_555
C21 C22 1_555 1_555
C22 O1 1_555 1_555
H1 C7 1_555 1_555
H2 C7 1_555 1_555
H3 C7 1_555 1_555
H4 C8 1_555 1_555
H5 C8 1_555 1_555
H6 C8 1_555 1_555
H7 C9 1_555 1_555
H8 C9 1_555 1_555
H9 C9 1_555 1_555
H10 C16 1_555 1_555
H11 C16 1_555 1_555
H12 C16 1_555 1_555
H13 C17 1_555 1_555
H14 C17 1_555 1_555
H15 C17 1_555 1_555
H17 C18 1_555 1_555
H18 C18 1_555 1_555
H19 C19 1_555 1_555
H20 C19 1_555 1_555
H21 C20 1_555 1_555
H22 C20 1_555 1_555
H23 C21 1_555 1_555
H24 C21 1_555 1_555
H25 C22 1_555 1_555
H26 C22 1_555 1_555
C2A C2 1_555 1_555
C1A C2A 1_555 1_555
N1A C1A 1_555 1_555
Cu1A N1A 1_555 1_555
O1A Cu1A 1_555 1_555
C19A O1A 1_555 1_555
C20A C19A 1_555 1_555
C21A C20A 1_555 1_555
C22A O1A 1_555 1_555
H25A C22A 1_555 1_555
H26A C22A 1_555 1_555
H23A C21A 1_555 1_555
H24A C21A 1_555 1_555
H21A C20A 1_555 1_555
H22A C20A 1_555 1_555
H19A C19A 1_555 1_555
H20A C19A 1_555 1_555
O2A Cu1A 1_555 1_555
Cl1A O2A 1_555 1_555
O3A Cl1A 1_555 1_555
O4A Cl1A 1_555 1_555
O5A Cl1A 1_555 1_555
N2A C10 1_555 1_555
C11A C12 1_555 1_555
C10A C11A 1_555 1_555
N2_2 C10A 1_555 1_555
Cu1_2 N2_2 1_555 1_555
C12A C11 1_555 1_555
C13A C12A 1_555 1_555
C14A C13A 1_555 1_555
S2A C14A 1_555 1_555
C15A C12A 1_555 1_555
C16A C15A 1_555 1_555
H10A C16A 1_555 1_555
H11A C16A 1_555 1_555
H12A C16A 1_555 1_555
C18A C14A 1_555 1_555
H16A C18A 1_555 1_555
H17A C18A 1_555 1_555
H18A C18A 1_555 1_555
C17A C13A 1_555 1_555
H13A C17A 1_555 1_555
H14A C17A 1_555 1_555
H15A C17A 1_555 1_555
C3A C2A 1_555 1_555
C4A C3A 1_555 1_555
S1A C4A 1_555 1_555
C5A S1A 1_555 1_555
C6A C3A 1_555 1_555
C7A C6A 1_555 1_555
H1A C7A 1_555 1_555
H2A C7A 1_555 1_555
H3A C7A 1_555 1_555
C9A C5A 1_555 1_555
H7A C9A 1_555 1_555
H8A C9A 1_555 1_555
H9A C9A 1_555 1_555
C8A C4A 1_555 1_555
H4A C8A 1_555 1_555
H5A C8A 1_555 1_555
H6A C8A 1_555 1_555
C5 C6 1_555 1_555
C12 C15 1_555 1_555
Cu1A N2A 1_555 1_555
C21A C22A 1_555 1_555
S2A C15A 1_555 1_555
C5A C6A 1_555 1_555

#END
