
#######################################################################
#
#                 Cambridge Crystallographic Data Centre
#                                CCDC 
#
#######################################################################
#
# If this CIF has been generated from an entry in the Cambridge 
# Structural Database, then it will include bibliographic, chemical, 
# crystal, experimental, refinement or atomic coordinate data resulting 
# from the CCDC's data processing and validation procedures.
#
#######################################################################

data_ZUNJUP
_symmetry_cell_setting           monoclinic
_symmetry_space_group_name_H-M   'C 2/c'
_symmetry_Int_Tables_number      15
_space_group_name_Hall           '-C 2yn'
loop_
_symmetry_equiv_pos_site_id
_symmetry_equiv_pos_as_xyz
1 x,y,z
2 1/2+x,1/2+y,z
3 -x,y,1/2-z
4 1/2-x,1/2+y,1/2-z
5 -x,-y,-z
6 1/2-x,1/2-y,-z
7 x,-y,1/2+z
8 1/2+x,1/2-y,1/2+z
_cell_length_a                   37.272(4)
_cell_length_b                   11.9575(12)
_cell_length_c                   23.770(3)
_cell_angle_alpha                90
_cell_angle_beta                 125.290(6)
_cell_angle_gamma                90
_cell_volume                     8647.08
loop_
_atom_site_label
_atom_site_type_symbol
_atom_site_fract_x
_atom_site_fract_y
_atom_site_fract_z
Co1 Co 0.69209(7) 0.23994(16) 0.76851(10)
S1 S 0.81939(14) 0.3739(4) 0.9605(2)
S2 S 0.60358(13) -0.0906(4) 0.6722(3)
N1 N 0.7323(3) 0.2031(9) 0.7297(5)
N2 N 0.7724(4) 0.1092(10) 0.5618(6)
N3 N 0.7274(4) -0.1242(8) 0.3550(5)
N4 N 0.6504(3) 0.2834(7) 0.8021(5)
N5 N 0.6150(5) 0.4176(15) 0.9704(7)
N6 N 0.6576(3) 0.6440(9) 1.1830(5)
N7 N 0.7380(3) 0.3609(8) 0.8364(5)
N8 N 0.6503(4) 0.1081(9) 0.7109(6)
C1 C 0.7117(4) 0.1499(11) 0.6685(6)
C2 C 0.7303(4) 0.1404(10) 0.6309(6)
C3 C 0.7706(4) 0.1885(10) 0.6567(6)
C4 C 0.7929(4) 0.2420(11) 0.7212(7)
C5 C 0.7713(4) 0.2470(11) 0.7536(6)
C6 C 0.7903(4) 0.1842(11) 0.6172(6)
C7 C 0.8252(4) 0.2480(11) 0.6326(6)
C8 C 0.8418(4) 0.2437(11) 0.5925(7)
C9 C 0.8221(4) 0.1722(10) 0.5372(6)
C10 C 0.7877(4) 0.1080(10) 0.5224(6)
C11 C 0.7692(4) 0.0261(10) 0.4654(6)
C12 C 0.7518(5) -0.0723(12) 0.4690(6)
C13 C 0.7323(5) -0.1447(12) 0.4146(6)
C14 C 0.7457(4) -0.0320(10) 0.3527(6)
C15 C 0.7667(4) 0.0450(10) 0.4051(6)
C16 C 0.8828(5) 0.3135(15) 0.6127(9)
C17 C 0.8905(8) 0.308(2) 0.5597(12)
C18 C 0.9214(7) 0.267(3) 0.6802(14)
C19 C 0.8775(9) 0.4288(17) 0.6271(16)
C20 C 0.6260(5) 0.2078(12) 0.8072(8)
C21 C 0.6055(5) 0.2233(13) 0.8412(8)
C22 C 0.6105(5) 0.3247(13) 0.8704(7)
C23 C 0.6357(5) 0.4055(13) 0.8652(8)
C24 C 0.6532(4) 0.3795(10) 0.8296(7)
C25 C 0.5924(6) 0.3400(18) 0.9106(9)
C26 C 0.5642(6) 0.2537(19) 0.9045(10)
C27 C 0.5488(7) 0.255(2) 0.9446(12)
C28 C 0.5668(7) 0.333(3) 0.9988(12)
C29 C 0.5955(6) 0.433(2) 1.0064(10)
C30 C 0.6158(5) 0.510(2) 1.0643(8)
C31 C 0.6519(7) 0.473(2) 1.1277(10)
C32 C 0.6712(6) 0.5466(16) 1.1839(8)
C33 C 0.6215(6) 0.6724(17) 1.1240(9)
C34 C 0.6001(7) 0.612(2) 1.0665(9)
C35 C 0.5183(9) 0.158(3) 0.9317(14)
C36 C 0.4835(9) 0.141(4) 0.8555(14)
C37 C 0.4958(9) 0.169(3) 0.9685(18)
C38 C 0.5484(9) 0.0581(17) 0.9544(17)
C39 C 0.7739(4) 0.3671(10) 0.8890(6)
C40 C 0.6305(4) 0.0246(11) 0.6943(6)
H1 H 0.6836 0.1177 0.6500
H2 H 0.7152 0.1011 0.5883
H3 H 0.8213 0.2732 0.7418
H4 H 0.7858 0.2853 0.7964
H5 H 0.8386 0.2965 0.6713
H6 H 0.8326 0.1677 0.5092
H7 H 0.7533 -0.0901 0.5093
H8 H 0.7216 -0.2138 0.4192
H9 H 0.7443 -0.0177 0.3122
H10 H 0.7793 0.1102 0.4005
H11 H 0.9157 0.3513 0.5733
H12 H 0.8953 0.2324 0.5533
H13 H 0.8656 0.3366 0.5178
H14 H 0.9472 0.3076 0.6942
H15 H 0.9254 0.1903 0.6743
H16 H 0.9159 0.2730 0.7144
H17 H 0.9027 0.4711 0.6394
H18 H 0.8744 0.4299 0.6641
H19 H 0.8521 0.4604 0.5872
H20 H 0.6222 0.1373 0.7860
H21 H 0.5890 0.1654 0.8435
H22 H 0.6406 0.4769 0.8860
H23 H 0.6688 0.4370 0.8246
H24 H 0.5560 0.1947 0.8725
H25 H 0.5608 0.3240 1.0325
H26 H 0.6633 0.3999 1.1327
H27 H 0.6965 0.5209 1.2264
H28 H 0.6094 0.7432 1.1222
H29 H 0.5738 0.6406 1.0266
H30 H 0.4652 0.0797 0.8495
H31 H 0.4972 0.1245 0.8329
H32 H 0.4662 0.2064 0.8364
H33 H 0.4775 0.1056 0.9579
H34 H 0.5175 0.1722 1.0169
H35 H 0.4785 0.2349 0.9537
H36 H 0.5324 -0.0079 0.9484
H37 H 0.5721 0.0658 1.0017
H38 H 0.5597 0.0534 0.9275
Co1F Co 0.69209(7) -0.23994(16) 0.26851(10)
Co1F_2 Co 0.69209(7) 0.76006(16) 1.26851(10)
N3F N 0.7274(4) 0.1242(8) 0.8550(5)
N6F N 0.6576(3) 0.3560(9) 0.6830(5)
O1 O 0.4119(5) 0.5967(18) 0.8067(9)
H39 H 0.3909 0.5742 0.7635
H40 H 0.4237 0.6612 0.8051
loop_
_geom_bond_atom_site_label_1
_geom_bond_atom_site_label_2
_geom_bond_site_symmetry_1
_geom_bond_site_symmetry_2
Co1 N1 1_555 1_555
S1 C39 1_555 1_555
S2 C40 1_555 1_555
N1 C1 1_555 1_555
N2 C6 1_555 1_555
N3 C13 1_555 1_555
N4 Co1 1_555 1_555
N5 C25 1_555 1_555
N6 C32 1_555 1_555
N7 Co1 1_555 1_555
N8 Co1 1_555 1_555
C1 C2 1_555 1_555
C2 C3 1_555 1_555
C3 C4 1_555 1_555
C4 C5 1_555 1_555
C5 N1 1_555 1_555
C6 C3 1_555 1_555
C7 C6 1_555 1_555
C8 C7 1_555 1_555
C9 C8 1_555 1_555
C10 N2 1_555 1_555
C11 C10 1_555 1_555
C12 C11 1_555 1_555
C13 C12 1_555 1_555
C14 N3 1_555 1_555
C15 C11 1_555 1_555
C16 C8 1_555 1_555
C17 C16 1_555 1_555
C18 C16 1_555 1_555
C19 C16 1_555 1_555
C20 N4 1_555 1_555
C21 C20 1_555 1_555
C22 C21 1_555 1_555
C23 C22 1_555 1_555
C24 N4 1_555 1_555
C25 C22 1_555 1_555
C26 C25 1_555 1_555
C27 C26 1_555 1_555
C28 C27 1_555 1_555
C29 N5 1_555 1_555
C30 C29 1_555 1_555
C31 C30 1_555 1_555
C32 C31 1_555 1_555
C33 N6 1_555 1_555
C34 C30 1_555 1_555
C35 C27 1_555 1_555
C36 C35 1_555 1_555
C37 C35 1_555 1_555
C38 C35 1_555 1_555
C39 N7 1_555 1_555
C40 N8 1_555 1_555
H1 C1 1_555 1_555
H2 C2 1_555 1_555
H3 C4 1_555 1_555
H4 C5 1_555 1_555
H5 C7 1_555 1_555
H6 C9 1_555 1_555
H7 C12 1_555 1_555
H8 C13 1_555 1_555
H9 C14 1_555 1_555
H10 C15 1_555 1_555
H11 C17 1_555 1_555
H12 C17 1_555 1_555
H13 C17 1_555 1_555
H14 C18 1_555 1_555
H15 C18 1_555 1_555
H16 C18 1_555 1_555
H17 C19 1_555 1_555
H18 C19 1_555 1_555
H19 C19 1_555 1_555
H20 C20 1_555 1_555
H21 C21 1_555 1_555
H22 C23 1_555 1_555
H23 C24 1_555 1_555
H24 C26 1_555 1_555
H25 C28 1_555 1_555
H26 C31 1_555 1_555
H27 C32 1_555 1_555
H28 C33 1_555 1_555
H29 C34 1_555 1_555
H30 C36 1_555 1_555
H31 C36 1_555 1_555
H32 C36 1_555 1_555
H33 C37 1_555 1_555
H34 C37 1_555 1_555
H35 C37 1_555 1_555
H36 C38 1_555 1_555
H37 C38 1_555 1_555
H38 C38 1_555 1_555
O1 H39 1_555 1_555
H40 O1 1_555 1_555
Co1F N3 1_555 1_555
Co1F_2 N6 1_555 1_555
N3F Co1 1_555 1_555
N6F Co1 1_555 1_555
C9 C10 1_555 1_555
C14 C15 1_555 1_555
C23 C24 1_555 1_555
C28 C29 1_555 1_555
C33 C34 1_555 1_555

#END
