
#######################################################################
#
#                 Cambridge Crystallographic Data Centre
#                                CCDC 
#
#######################################################################
#
# If this CIF has been generated from an entry in the Cambridge 
# Structural Database, then it will include bibliographic, chemical, 
# crystal, experimental, refinement or atomic coordinate data resulting 
# from the CCDC's data processing and validation procedures.
#
#######################################################################

data_ZUNQUW
_symmetry_cell_setting           triclinic
_symmetry_space_group_name_H-M   'P -1'
_symmetry_Int_Tables_number      2
_space_group_name_Hall           '-P 1'
loop_
_symmetry_equiv_pos_site_id
_symmetry_equiv_pos_as_xyz
1 x,y,z
2 -x,-y,-z
_cell_length_a                   10.6380(8)
_cell_length_b                   11.4494(12)
_cell_length_c                   11.5486(13)
_cell_angle_alpha                65.029(11)
_cell_angle_beta                 79.634(8)
_cell_angle_gamma                70.313(8)
_cell_volume                     1199.41
loop_
_atom_site_label
_atom_site_type_symbol
_atom_site_fract_x
_atom_site_fract_y
_atom_site_fract_z
Mo1 Mo 0.39861(5) 1.48802(5) 0.41270(5)
Mo2 Mo 0.55952(5) 1.18530(5) 0.60730(5)
Zn1 Zn 0.42378(6) 1.14436(7) 0.40530(6)
O1 O 0.4581(5) 0.9424(4) 0.4409(4)
O2 O 0.4511(4) 1.2998(4) 0.4424(4)
O3 O 0.3360(4) 1.5683(4) 0.2625(4)
O4 O 0.4606(4) 1.6207(4) 0.4313(4)
O5 O 0.2577(5) 1.4944(5) 0.5098(4)
O6 O 0.4735(6) 1.1530(5) 0.7520(5)
O7 O 0.7256(5) 1.1279(5) 0.6348(5)
N1 N 0.6314(6) 1.1694(5) 0.0634(5)
N2 N 0.4979(5) 1.1942(5) 0.2249(5)
N3 N 0.7746(6) 0.5299(6) 0.1552(6)
N4 N 0.6144(5) 0.4656(5) 0.2892(5)
N5 N 0.9561(5) 0.7847(5) 0.4367(5)
N6 N 0.7740(5) 0.8116(5) 0.5596(5)
C1 C 0.8083(7) 0.9633(7) 0.0593(6)
C2 C 0.7861(6) 0.8605(6) 0.0357(6)
C3 C 0.8629(6) 0.7270(7) 0.0991(6)
C4 C 0.9497(6) 0.6918(7) 0.1935(7)
C5 C 0.9657(6) 0.7929(7) 0.2209(6)
C6 C 0.8998(6) 0.9282(7) 0.1503(6)
C7 C 0.7354(7) 1.1084(7) -0.0134(6)
H1 H 0.7996 1.1595 -0.0471
H2 H 0.6947 1.1150 -0.0855
C8 C 0.6814(8) 0.8910(8) -0.0528(7)
H3 H 0.6139 0.9735 -0.0580
H4 H 0.6414 0.8189 -0.0206
H5 H 0.7218 0.9002 -0.1363
C9 C 0.8533(8) 0.6169(8) 0.0638(7)
H6 H 0.8141 0.6586 -0.0191
H7 H 0.9430 0.5607 0.0552
C10 C 1.0211(8) 0.5438(8) 0.2692(8)
H8 H 0.9715 0.5109 0.3481
H9 H 1.1092 0.5353 0.2872
H10 H 1.0275 0.4921 0.2200
C11 C 1.0471(7) 0.7598(8) 0.3310(7)
H11 H 1.1006 0.6660 0.3602
H12 H 1.1069 0.8153 0.3033
C12 C 0.9236(9) 1.0402(8) 0.1761(8)
H13 H 0.9225 1.1166 0.0970
H14 H 1.0088 1.0076 0.2132
H15 H 0.8544 1.0662 0.2339
C13 C 0.5593(8) 1.3033(7) 0.0240(6)
H16 H 0.5654 1.3709 -0.0559
C14 C 0.4786(8) 1.3169(6) 0.1236(7)
H17 H 0.4184 1.3974 0.1243
C15 C 0.5909(7) 1.1086(7) 0.1833(6)
H18 H 0.6239 1.0170 0.2320
C16 C 0.8011(8) 0.3942(8) 0.1858(8)
H19 H 0.8740 0.3391 0.1570
C17 C 0.6995(8) 0.3576(8) 0.2662(8)
H20 H 0.6892 0.2717 0.3007
C18 C 0.6628(7) 0.5678(6) 0.2208(6)
H21 H 0.6242 0.6546 0.2185
C19 C 0.9794(7) 0.8336(7) 0.5169(7)
H22 H 1.0576 0.8513 0.5198
C20 C 0.8677(7) 0.8513(8) 0.5911(7)
H23 H 0.8554 0.8852 0.6541
C21 C 0.8329(7) 0.7714(7) 0.4651(7)
H24 H 0.7935 0.7386 0.4244
Mo1_2 Mo 0.39861(5) 0.48802(5) 0.41270(5)
Mo1A Mo 0.60139(5) 1.51198(5) 0.58730(5)
Mo2A Mo 0.44048(5) 0.81470(5) 0.39270(5)
Mo2A_2 Mo 0.44048(5) 1.81470(5) 0.39270(5)
Zn1A Zn 0.57622(6) 0.85564(7) 0.59470(6)
O1A O 0.5419(5) 1.0576(4) 0.5591(4)
O4A O 0.5394(4) 1.3793(4) 0.5687(4)
N4_2 N 0.6144(5) 1.4656(5) 0.2892(5)
N6A N 0.2260(5) 1.1884(5) 0.4404(5)
loop_
_geom_bond_atom_site_label_1
_geom_bond_atom_site_label_2
_geom_bond_site_symmetry_1
_geom_bond_site_symmetry_2
Mo1 O2 1_555 1_555
Mo2 O2 1_555 1_555
Zn1 O1 1_555 1_555
O1 Mo2A 1_555 1_555
O2 Zn1 1_555 1_555
O3 Mo1 1_555 1_555
O4 Mo1 1_555 1_555
O5 Mo1 1_555 1_555
O6 Mo2 1_555 1_555
O7 Mo2 1_555 1_555
N1 C7 1_555 1_555
N2 Zn1 1_555 1_555
N3 C9 1_555 1_555
N4 C17 1_555 1_555
N5 C11 1_555 1_555
N6 C20 1_555 1_555
C1 C2 1_555 1_555
C2 C3 1_555 1_555
C3 C4 1_555 1_555
C4 C5 1_555 1_555
C5 C6 1_555 1_555
C6 C1 1_555 1_555
C7 C1 1_555 1_555
H1 C7 1_555 1_555
H2 C7 1_555 1_555
C8 C2 1_555 1_555
H3 C8 1_555 1_555
H4 C8 1_555 1_555
H5 C8 1_555 1_555
C9 C3 1_555 1_555
H6 C9 1_555 1_555
H7 C9 1_555 1_555
C10 C4 1_555 1_555
H8 C10 1_555 1_555
H9 C10 1_555 1_555
H10 C10 1_555 1_555
C11 C5 1_555 1_555
H11 C11 1_555 1_555
H12 C11 1_555 1_555
C12 C6 1_555 1_555
H13 C12 1_555 1_555
H14 C12 1_555 1_555
H15 C12 1_555 1_555
C13 N1 1_555 1_555
H16 C13 1_555 1_555
C14 N2 1_555 1_555
H17 C14 1_555 1_555
C15 N1 1_555 1_555
H18 C15 1_555 1_555
C16 N3 1_555 1_555
H19 C16 1_555 1_555
C17 C16 1_555 1_555
H20 C17 1_555 1_555
C18 N3 1_555 1_555
H21 C18 1_555 1_555
C19 N5 1_555 1_555
H22 C19 1_555 1_555
C20 C19 1_555 1_555
H23 C20 1_555 1_555
C21 N5 1_555 1_555
H24 C21 1_555 1_555
Mo1_2 N4 1_555 1_555
Mo1A O4 1_555 1_555
Mo2A_2 O4 1_555 1_555
Zn1A O1 1_555 1_555
O1A Mo2 1_555 1_555
O4A Mo1 1_555 1_555
N4_2 Mo1 1_555 1_555
N6A Zn1 1_555 1_555
Mo2 O4A 1_555 1_555
Zn1 O1A 1_555 1_555
N2 C15 1_555 1_555
N4 C18 1_555 1_555
N6 C21 1_555 1_555
N6 Zn1A 1_555 1_555
C13 C14 1_555 1_555
Mo1A O4A 1_555 1_555
Zn1A O1A 1_555 1_555

#END
