
#######################################################################
#
#                 Cambridge Crystallographic Data Centre
#                                CCDC 
#
#######################################################################
#
# If this CIF has been generated from an entry in the Cambridge 
# Structural Database, then it will include bibliographic, chemical, 
# crystal, experimental, refinement or atomic coordinate data resulting 
# from the CCDC's data processing and validation procedures.
#
#######################################################################

data_ZUNSUY
_symmetry_cell_setting           monoclinic
_symmetry_space_group_name_H-M   'P 21/c'
_symmetry_Int_Tables_number      14
_space_group_name_Hall           '-P 2ybc'
loop_
_symmetry_equiv_pos_site_id
_symmetry_equiv_pos_as_xyz
1 x,y,z
2 -x,1/2+y,1/2-z
3 -x,-y,-z
4 x,1/2-y,1/2+z
_cell_length_a                   4.1310(2)
_cell_length_b                   17.3793(9)
_cell_length_c                   20.3602(12)
_cell_angle_alpha                90
_cell_angle_beta                 95.689(5)
_cell_angle_gamma                90
_cell_volume                     1454.54
loop_
_atom_site_label
_atom_site_type_symbol
_atom_site_fract_x
_atom_site_fract_y
_atom_site_fract_z
Cd1 Cd -0.2077(3) 0.47278(6) 0.59403(5)
I1 I 0.2720(3) 0.58547(5) 0.54727(4)
I2 I -0.6825(3) 0.36427(5) 0.63465(4)
N1 N -0.141(3) 0.5351(6) 0.6975(5)
C1 C -0.125(4) 0.6113(8) 0.7030(6)
H1 H -0.1749 0.6423 0.6649
C2 C -0.035(3) 0.6465(9) 0.7637(7)
H2 H -0.0357 0.7011 0.7666
C3 C 0.053(3) 0.6042(9) 0.8192(7)
C4 C 0.025(3) 0.5213(9) 0.8111(8)
H3 H 0.0748 0.4881 0.8477
C5 C -0.072(4) 0.4926(9) 0.7519(7)
H4 H -0.0944 0.4383 0.7479
C6 C 0.154(4) 0.6385(8) 0.8833(6)
H5 H 0.1558 0.6928 0.8882
N2 N 0.238(3) 0.5957(6) 0.9323(5)
C7 C 0.377(3) 0.6257(8) 0.9932(7)
C8 C 0.325(4) 0.5876(8) 1.0509(6)
H6 H 0.2047 0.5410 1.0492
C9 C 0.451(3) 0.6179(10) 1.1112(8)
H7 H 0.4031 0.5937 1.1510
C10 C 0.639(3) 0.6812(9) 1.1137(7)
F1 F 0.775(2) 0.7063(5) 1.1729(4)
C11 C 0.699(3) 0.7218(9) 1.0578(7)
H8 H 0.8213 0.7681 1.0609
C12 C 0.575(3) 0.6928(9) 0.9971(7)
H9 H 0.6229 0.7179 0.9577
Cd1_2 Cd -1.2077(3) 0.47278(6) 0.59403(5)
Cd1_3 Cd 0.7923(3) 0.47278(6) 0.59403(5)
Cd1B Cd 0.2077(3) 0.52722(6) 0.40597(5)
I1_2 I -0.7280(3) 0.58547(5) 0.54727(4)
I1B I -0.2720(3) 0.41453(5) 0.45273(4)
I2_2 I 0.3175(3) 0.36427(5) 0.63465(4)
loop_
_geom_bond_atom_site_label_1
_geom_bond_atom_site_label_2
_geom_bond_site_symmetry_1
_geom_bond_site_symmetry_2
Cd1 I1 1_555 1_555
I1 Cd1_3 1_555 1_555
I2 Cd1 1_555 1_555
N1 Cd1 1_555 1_555
C1 N1 1_555 1_555
H1 C1 1_555 1_555
C2 C1 1_555 1_555
H2 C2 1_555 1_555
C3 C2 1_555 1_555
C4 C3 1_555 1_555
H3 C4 1_555 1_555
C5 N1 1_555 1_555
H4 C5 1_555 1_555
C6 C3 1_555 1_555
H5 C6 1_555 1_555
N2 C6 1_555 1_555
C7 N2 1_555 1_555
C8 C7 1_555 1_555
H6 C8 1_555 1_555
C9 C8 1_555 1_555
H7 C9 1_555 1_555
C10 C9 1_555 1_555
F1 C10 1_555 1_555
C11 C10 1_555 1_555
H8 C11 1_555 1_555
C12 C7 1_555 1_555
H9 C12 1_555 1_555
Cd1_2 I2 1_555 1_555
Cd1_3 I2_2 1_555 1_555
Cd1B I1 1_555 1_555
I1_2 Cd1 1_555 1_555
I1B Cd1 1_555 1_555
I2_2 Cd1 1_555 1_555
C4 C5 1_555 1_555
C11 C12 1_555 1_555
Cd1_2 I1_2 1_555 1_555
Cd1B I1B 1_555 1_555

#END
