
#######################################################################
#
#                 Cambridge Crystallographic Data Centre
#                                CCDC 
#
#######################################################################
#
# If this CIF has been generated from an entry in the Cambridge 
# Structural Database, then it will include bibliographic, chemical, 
# crystal, experimental, refinement or atomic coordinate data resulting 
# from the CCDC's data processing and validation procedures.
#
#######################################################################

data_ZUNTAF
_symmetry_cell_setting           monoclinic
_symmetry_space_group_name_H-M   'C 2/c'
_symmetry_Int_Tables_number      15
_space_group_name_Hall           '-C 2yn'
loop_
_symmetry_equiv_pos_site_id
_symmetry_equiv_pos_as_xyz
1 x,y,z
2 -x,y,1/2-z
3 1/2+x,1/2+y,z
4 1/2-x,1/2+y,1/2-z
5 -x,-y,-z
6 x,-y,1/2+z
7 1/2-x,1/2-y,-z
8 1/2+x,1/2-y,1/2+z
_cell_length_a                   36.992(2)
_cell_length_b                   3.9366(2)
_cell_length_c                   16.5557(9)
_cell_angle_alpha                90
_cell_angle_beta                 95.017(4)
_cell_angle_gamma                90
_cell_volume                     2401.65
loop_
_atom_site_label
_atom_site_type_symbol
_atom_site_fract_x
_atom_site_fract_y
_atom_site_fract_z
Hg1 Hg 1.0000 0.06689(9) 0.7500
Br1 Br 0.77591(2) 0.5313(2) 0.08915(5)
Cl1 Cl 0.95902(5) -0.4416(4) 0.81378(9)
N1 N 0.95946(15) 0.0474(13) 0.6369(3)
C1 C 0.7923(2) 0.5644(17) 0.2598(5)
H1 H 0.7695 0.6742 0.2600
C2 C 0.9688(2) -0.1038(16) 0.5694(4)
H2 H 0.9917 -0.2138 0.5706
N2 N 0.86658(16) 0.3042(15) 0.4085(3)
C3 C 0.8135(2) 0.5092(16) 0.3321(4)
H3 H 0.8052 0.5835 0.3818
C4 C 0.90387(18) 0.2084(16) 0.5659(4)
H4 H 0.8811 0.3197 0.5662
C5 C 0.92693(19) 0.1947(17) 0.6352(4)
H5 H 0.9195 0.2930 0.6835
C6 C 0.94679(19) -0.1066(17) 0.4989(4)
H6 H 0.9541 -0.2222 0.4527
C7 C 0.85913(19) 0.2493(17) 0.2582(4)
H7 H 0.8824 0.1474 0.2574
C8 C 0.84673(19) 0.3466(16) 0.3322(4)
C9 C 0.91377(19) 0.0593(16) 0.4949(4)
C10 C 0.89219(19) 0.0881(17) 0.4177(4)
H8 H 0.8972 -0.0550 0.3739
C11 C 0.8379(2) 0.3001(18) 0.1865(4)
H9 H 0.8461 0.2265 0.1365
C12 C 0.8046(2) 0.4594(17) 0.1880(5)
Br1A Br 1.22409(2) 0.5313(2) 1.41085(5)
Cl1A Cl 1.04098(5) -0.4416(4) 0.68622(9)
N1A N 1.04054(15) 0.0474(13) 0.8631(3)
C1A C 1.2077(2) 0.5644(17) 1.2402(5)
H1A H 1.2305 0.6742 1.2400
C2A C 1.0312(2) -0.1038(16) 0.9306(4)
H2A H 1.0083 -0.2138 0.9294
N2A N 1.13342(16) 0.3042(15) 1.0915(3)
C3A C 1.1865(2) 0.5092(16) 1.1679(4)
H3A H 1.1948 0.5835 1.1182
C4A C 1.09613(18) 0.2084(16) 0.9341(4)
H4A H 1.1189 0.3197 0.9338
C5A C 1.07307(19) 0.1947(17) 0.8648(4)
H5A H 1.0805 0.2930 0.8165
C6A C 1.05321(19) -0.1066(17) 1.0011(4)
H6A H 1.0459 -0.2222 1.0473
C7A C 1.14087(19) 0.2493(17) 1.2418(4)
H7A H 1.1176 0.1474 1.2426
C8A C 1.15327(19) 0.3466(16) 1.1678(4)
C9A C 1.08623(19) 0.0593(16) 1.0051(4)
C10A C 1.10781(19) 0.0881(17) 1.0823(4)
H8A H 1.1028 -0.0550 1.1261
C11A C 1.1621(2) 0.3001(18) 1.3135(4)
H9A H 1.1539 0.2265 1.3635
C12A C 1.1954(2) 0.4594(17) 1.3120(5)
Hg1_2 Hg 1.0000 -0.93311(9) 0.7500
Cl1_2 Cl 0.95902(5) 0.5584(4) 0.81378(9)
Cl1A_2 Cl 1.04098(5) 0.5584(4) 0.68622(9)
loop_
_geom_bond_atom_site_label_1
_geom_bond_atom_site_label_2
_geom_bond_site_symmetry_1
_geom_bond_site_symmetry_2
Hg1 Cl1 1_555 1_555
Br1 C12 1_555 1_555
Cl1 Hg1_2 1_555 1_555
N1 Hg1 1_555 1_555
C1 H1 1_555 1_555
C2 N1 1_555 1_555
H2 C2 1_555 1_555
N2 C8 1_555 1_555
C3 C1 1_555 1_555
H3 C3 1_555 1_555
C4 H4 1_555 1_555
C5 N1 1_555 1_555
H5 C5 1_555 1_555
C6 C2 1_555 1_555
H6 C6 1_555 1_555
C7 H7 1_555 1_555
C8 C3 1_555 1_555
C9 C4 1_555 1_555
C10 N2 1_555 1_555
H8 C10 1_555 1_555
C11 C7 1_555 1_555
H9 C11 1_555 1_555
C12 C1 1_555 1_555
Br1A C12A 1_555 1_555
Cl1A Hg1 1_555 1_555
N1A Hg1 1_555 1_555
C1A H1A 1_555 1_555
C2A N1A 1_555 1_555
H2A C2A 1_555 1_555
N2A C8A 1_555 1_555
C3A C1A 1_555 1_555
H3A C3A 1_555 1_555
C4A H4A 1_555 1_555
C5A N1A 1_555 1_555
H5A C5A 1_555 1_555
C6A C2A 1_555 1_555
H6A C6A 1_555 1_555
C7A H7A 1_555 1_555
C8A C3A 1_555 1_555
C9A C4A 1_555 1_555
C10A N2A 1_555 1_555
H8A C10A 1_555 1_555
C11A C7A 1_555 1_555
H9A C11A 1_555 1_555
C12A C1A 1_555 1_555
Hg1_2 Cl1A 1_555 1_555
Cl1_2 Hg1 1_555 1_555
Cl1A_2 Hg1 1_555 1_555
C4 C5 1_555 1_555
C6 C9 1_555 1_555
C7 C8 1_555 1_555
C9 C10 1_555 1_555
C11 C12 1_555 1_555
C4A C5A 1_555 1_555
C6A C9A 1_555 1_555
C7A C8A 1_555 1_555
C9A C10A 1_555 1_555
C11A C12A 1_555 1_555

#END
