
#######################################################################
#
#                 Cambridge Crystallographic Data Centre
#                                CCDC 
#
#######################################################################
#
# If this CIF has been generated from an entry in the Cambridge 
# Structural Database, then it will include bibliographic, chemical, 
# crystal, experimental, refinement or atomic coordinate data resulting 
# from the CCDC's data processing and validation procedures.
#
#######################################################################

data_ZUNVAH
_symmetry_cell_setting           monoclinic
_symmetry_space_group_name_H-M   'C 2/c'
_symmetry_Int_Tables_number      15
_space_group_name_Hall           '-C 2yn'
loop_
_symmetry_equiv_pos_site_id
_symmetry_equiv_pos_as_xyz
1 x,y,z
2 -x,y,1/2-z
3 1/2+x,1/2+y,z
4 1/2-x,1/2+y,1/2-z
5 -x,-y,-z
6 x,-y,1/2+z
7 1/2-x,1/2-y,-z
8 1/2+x,1/2-y,1/2+z
_cell_length_a                   16.124
_cell_length_b                   13.832
_cell_length_c                   13.607
_cell_angle_alpha                90
_cell_angle_beta                 114.46
_cell_angle_gamma                90
_cell_volume                     2762.37
loop_
_atom_site_label
_atom_site_type_symbol
_atom_site_fract_x
_atom_site_fract_y
_atom_site_fract_z
Pb1 Pb 0.5000 0.57050(3) 0.2500
Pb2 Pb 0.14457(2) 0.92043(3) 0.07726(3)
C1 C 0.3433(6) 0.4342(6) 0.1476(8)
C2 C 0.2614(6) 0.3652(6) 0.1115(7)
C3 C 0.1827(6) 0.3798(6) 0.0182(7)
C4 C 0.1138(7) 0.3098(6) -0.0085(8)
H1 H 0.0607 0.3172 -0.0712
C5 C 0.1232(6) 0.2303(7) 0.0563(8)
C6 C 0.1994(6) 0.2180(7) 0.1487(8)
H2 H 0.2052 0.1645 0.1926
C7 C 0.2687(6) 0.2862(6) 0.1770(7)
H3 H 0.3207 0.2786 0.2408
C8 C 0.0449(7) 0.1576(7) 0.0228(8)
C9 C 0.1641(6) 0.4674(6) -0.0525(7)
C10 C 0.1341(6) 0.4581(7) -0.1640(8)
H4 H 0.1286 0.3970 -0.1946
C11 C 0.1122(7) 0.5395(8) -0.2299(9)
H5 H 0.0947 0.5324 -0.3038
C12 C 0.1161(6) 0.6299(7) -0.1875(8)
H6 H 0.0999 0.6836 -0.2327
C13 C 0.1439(6) 0.6415(7) -0.0780(8)
C14 C 0.1686(6) 0.5602(6) -0.0096(8)
H7 H 0.1881 0.5682 0.0645
C15 C 0.1469(6) 0.7381(7) -0.0279(9)
O1 O 0.3826(5) 0.4507(6) 0.2461(6)
O2 O 0.3708(4) 0.4674(5) 0.0818(5)
O3 O 0.0489(5) 0.0880(4) 0.0850(6)
O4 O -0.0194(5) 0.1695(5) -0.0673(6)
O5 O 0.1844(5) 0.7463(5) 0.0743(6)
O6 O 0.1134(5) 0.8114(5) -0.0875(6)
Pb2A Pb 0.85543(2) 0.92043(3) 0.42274(3)
C1A C 0.6567(6) 0.4342(6) 0.3524(8)
C2A C 0.7386(6) 0.3652(6) 0.3885(7)
C3A C 0.8173(6) 0.3798(6) 0.4818(7)
C4A C 0.8862(7) 0.3098(6) 0.5085(8)
H1A H 0.9393 0.3172 0.5712
C5A C 0.8768(6) 0.2303(7) 0.4437(8)
C6A C 0.8006(6) 0.2180(7) 0.3513(8)
H2A H 0.7948 0.1645 0.3074
C7A C 0.7313(6) 0.2862(6) 0.3230(7)
H3A H 0.6793 0.2786 0.2592
C8A C 0.9551(7) 0.1576(7) 0.4772(8)
C9A C 0.8359(6) 0.4674(6) 0.5525(7)
C10A C 0.8659(6) 0.4581(7) 0.6640(8)
H4A H 0.8714 0.3970 0.6946
C11A C 0.8878(7) 0.5395(8) 0.7299(9)
H5A H 0.9053 0.5324 0.8038
C12A C 0.8839(6) 0.6299(7) 0.6875(8)
H6A H 0.9001 0.6836 0.7327
C13A C 0.8561(6) 0.6415(7) 0.5780(8)
C14A C 0.8314(6) 0.5602(6) 0.5096(8)
H7A H 0.8119 0.5682 0.4355
C15A C 0.8531(6) 0.7381(7) 0.5279(9)
O1A O 0.6174(5) 0.4507(6) 0.2539(6)
O2A O 0.6292(4) 0.4674(5) 0.4182(5)
O3A O 0.9511(5) 0.0880(4) 0.4150(6)
O4A O 1.0194(5) 0.1695(5) 0.5673(6)
O5A O 0.8156(5) 0.7463(5) 0.4257(6)
O6A O 0.8866(5) 0.8114(5) 0.5875(6)
Pb1B Pb 0.0000 0.07050(3) 0.2500
Pb1B_2 Pb 1.0000 0.07050(3) 0.2500
Pb1F Pb 0.0000 0.92950(3) -0.2500
Pb1F_2 Pb 1.0000 0.92950(3) 0.7500
Pb2_2 Pb 0.14457(2) -0.07957(3) 0.07726(3)
Pb2A_2 Pb 0.85543(2) -0.07957(3) 0.42274(3)
Pb2B Pb 0.64457(2) 0.42043(3) 0.07726(3)
Pb2C Pb 0.35543(2) 0.42043(3) 0.42274(3)
Pb2D Pb -0.14457(2) 0.07957(3) -0.07726(3)
Pb2E Pb 1.14457(2) 0.07957(3) 0.57726(3)
Pb2F Pb 0.35543(2) 0.57957(3) -0.07726(3)
Pb2G Pb 0.64457(2) 0.57957(3) 0.57726(3)
O1B O 0.8826(5) 0.9507(6) 0.2461(6)
O1C O 0.1174(5) 0.9507(6) 0.2539(6)
O2F O 0.1292(4) 1.0326(5) -0.0818(5)
O2G O 0.8708(4) 1.0326(5) 0.5818(5)
O3_2 O 0.0489(5) 1.0880(4) 0.0850(6)
O3A_2 O 0.9511(5) 1.0880(4) 0.4150(6)
O3B O 0.5489(5) 0.5880(4) 0.0850(6)
O3C O 0.4511(5) 0.5880(4) 0.4150(6)
O4D O 0.0194(5) 0.8305(5) 0.0673(6)
O4E O 0.9806(5) 0.8305(5) 0.4327(6)
O6F O 0.3866(5) 0.6886(5) 0.0875(6)
O6G O 0.6134(5) 0.6886(5) 0.4125(6)
O7 O 0.0000 0.2482(16) 0.7500
loop_
_geom_bond_atom_site_label_1
_geom_bond_atom_site_label_2
_geom_bond_site_symmetry_1
_geom_bond_site_symmetry_2
Pb1 O1 1_555 1_555
Pb2 O5 1_555 1_555
C1 C2 1_555 1_555
C2 C3 1_555 1_555
C3 C4 1_555 1_555
C4 H1 1_555 1_555
C5 C4 1_555 1_555
C6 C5 1_555 1_555
H2 C6 1_555 1_555
C7 C2 1_555 1_555
H3 C7 1_555 1_555
C8 C5 1_555 1_555
C9 C3 1_555 1_555
C10 C9 1_555 1_555
H4 C10 1_555 1_555
C11 C10 1_555 1_555
H5 C11 1_555 1_555
C12 C11 1_555 1_555
H6 C12 1_555 1_555
C13 C12 1_555 1_555
C14 C9 1_555 1_555
H7 C14 1_555 1_555
C15 C13 1_555 1_555
O1 C1 1_555 1_555
O2 Pb1 1_555 1_555
O3 C8 1_555 1_555
O4 C8 1_555 1_555
O5 C15 1_555 1_555
O6 Pb2 1_555 1_555
Pb2A O5A 1_555 1_555
C1A C2A 1_555 1_555
C2A C3A 1_555 1_555
C3A C4A 1_555 1_555
C4A H1A 1_555 1_555
C5A C4A 1_555 1_555
C6A C5A 1_555 1_555
H2A C6A 1_555 1_555
C7A C2A 1_555 1_555
H3A C7A 1_555 1_555
C8A C5A 1_555 1_555
C9A C3A 1_555 1_555
C10A C9A 1_555 1_555
H4A C10A 1_555 1_555
C11A C10A 1_555 1_555
H5A C11A 1_555 1_555
C12A C11A 1_555 1_555
H6A C12A 1_555 1_555
C13A C12A 1_555 1_555
C14A C9A 1_555 1_555
H7A C14A 1_555 1_555
C15A C13A 1_555 1_555
O1A Pb1 1_555 1_555
O2A Pb1 1_555 1_555
O3A C8A 1_555 1_555
O4A C8A 1_555 1_555
O5A C15A 1_555 1_555
O6A Pb2A 1_555 1_555
Pb1B O3 1_555 1_555
Pb1B_2 O3A 1_555 1_555
Pb1F O6 1_555 1_555
Pb1F_2 O6A 1_555 1_555
Pb2_2 O3 1_555 1_555
Pb2A_2 O3A 1_555 1_555
Pb2B O1A 1_555 1_555
Pb2C O1 1_555 1_555
Pb2D O4 1_555 1_555
Pb2E O4A 1_555 1_555
Pb2F O2 1_555 1_555
Pb2G O2A 1_555 1_555
O1B Pb2A 1_555 1_555
O1C Pb2 1_555 1_555
O2F Pb2 1_555 1_555
O2G Pb2A 1_555 1_555
O3_2 Pb2 1_555 1_555
O3A_2 Pb2A 1_555 1_555
O3B Pb1 1_555 1_555
O3C Pb1 1_555 1_555
O4D Pb2 1_555 1_555
O4E Pb2A 1_555 1_555
O6F Pb1 1_555 1_555
O6G Pb1 1_555 1_555
C1 O2 1_555 1_555
C6 C7 1_555 1_555
C13 C14 1_555 1_555
C15 O6 1_555 1_555
C1A O1A 1_555 1_555
C1A O2A 1_555 1_555
C6A C7A 1_555 1_555
C13A C14A 1_555 1_555
C15A O6A 1_555 1_555
Pb1F O2F 1_555 1_555
Pb1F_2 O2G 1_555 1_555
Pb2B O3B 1_555 1_555
Pb2C O3C 1_555 1_555
Pb2F O6F 1_555 1_555
Pb2G O6G 1_555 1_555

#END
