
#######################################################################
#
#                 Cambridge Crystallographic Data Centre
#                                CCDC 
#
#######################################################################
#
# If this CIF has been generated from an entry in the Cambridge 
# Structural Database, then it will include bibliographic, chemical, 
# crystal, experimental, refinement or atomic coordinate data resulting 
# from the CCDC's data processing and validation procedures.
#
#######################################################################

data_ZUPBET
_symmetry_cell_setting           triclinic
_symmetry_space_group_name_H-M   'P -1'
_symmetry_Int_Tables_number      2
_space_group_name_Hall           '-P 1'
loop_
_symmetry_equiv_pos_site_id
_symmetry_equiv_pos_as_xyz
1 x,y,z
2 -x,-y,-z
_cell_length_a                   9.6547(5)
_cell_length_b                   11.3195(7)
_cell_length_c                   11.9856(6)
_cell_angle_alpha                114.773(3)
_cell_angle_beta                 91.448(3)
_cell_angle_gamma                106.416(3)
_cell_volume                     1125.21
loop_
_atom_site_label
_atom_site_type_symbol
_atom_site_fract_x
_atom_site_fract_y
_atom_site_fract_z
O1 O 1.1026(3) 0.9087(3) 0.0621(3)
C1 C 0.7641(8) 0.5736(9) -0.4232(7)
H1 H 0.6835 0.6086 -0.4041
H2 H 0.7314 0.4771 -0.4450
H3 H 0.8010 0.5873 -0.4920
C2 C 0.9857(4) 0.8973(4) 0.1078(4)
C3 C 0.3259(4) 0.6534(4) 0.0262(4)
C4 C 0.9837(4) 0.8628(4) 0.2169(4)
C5 C 0.1758(4) 0.6240(4) -0.0019(4)
H4 H 0.1396 0.6750 -0.0318
C6 C 1.1089(4) 0.8599(4) 0.2716(4)
H5 H 1.1960 0.8784 0.2411
C7 C 0.4330(4) 0.7635(4) 0.0061(4)
C8 C 0.0807(4) 0.5181(4) 0.0152(4)
C9 C 1.3874(4) 0.8582(4) 0.6134(4)
C10 C 1.2567(4) 0.8547(4) 0.5588(4)
H6 H 1.1820 0.8694 0.6050
C11 C 0.2717(4) 0.4737(5) 0.0885(5)
H7 H 0.3052 0.4228 0.1203
C12 C 0.3743(4) 0.5759(4) 0.0722(4)
H8 H 0.4739 0.5923 0.0917
C13 C 1.1047(4) 0.8294(5) 0.3723(4)
C14 C 0.8672(5) 0.7463(5) -0.2139(4)
C15 C 1.2391(4) 0.8288(5) 0.4344(4)
C16 C 1.4150(4) 0.8947(5) 0.7497(4)
C17 C 1.4935(5) 0.8327(6) 0.5406(4)
H9 H 1.5810 0.8313 0.5734
C18 C 0.8563(5) 0.8331(7) 0.2636(5)
H10 H 0.7695 0.8339 0.2290
C19 C 1.4679(6) 0.8094(7) 0.4186(5)
H11 H 1.5409 0.7933 0.3707
C20 C 0.8611(6) 0.8019(9) 0.3633(6)
H12 H 0.7744 0.7805 0.3935
C21 C 1.0118(7) 0.6045(7) -0.3221(6)
H13 H 1.0855 0.6700 -0.2512
H14 H 1.0484 0.6003 -0.3970
H15 H 0.9876 0.5155 -0.3235
Eu1 Eu 0.691577(16) 0.955399(17) -0.028611(15)
N1 N 0.8808(4) 0.6466(4) -0.3140(4)
N2 N 0.9818(4) 0.8005(6) 0.4192(5)
N3 N 1.3443(4) 0.8084(5) 0.3645(4)
N4 N 0.1279(4) 0.4437(4) 0.0614(4)
O2 O 0.3968(3) 0.8595(3) 0.0007(3)
O3 O 1.3201(3) 0.9313(3) 0.8137(3)
O4 O 0.5599(3) 0.7571(3) -0.0056(4)
O5 O 0.8740(3) 0.9127(3) 0.0710(3)
O6 O 0.7598(3) 0.7856(3) -0.1991(3)
O7 O 1.5327(3) 0.8865(4) 0.7891(3)
H16 H 0.960(6) 0.798(6) -0.150(6)
C3A C -0.3259(4) 0.3466(4) -0.0262(4)
C5A C -0.1758(4) 0.3760(4) 0.0019(4)
H4A H -0.1396 0.3250 0.0318
C7A C -0.4330(4) 0.2365(4) -0.0061(4)
C8A C -0.0807(4) 0.4819(4) -0.0152(4)
C11A C -0.2717(4) 0.5263(5) -0.0885(5)
H7A H -0.3052 0.5772 -0.1203
C12A C -0.3743(4) 0.4241(4) -0.0722(4)
H8A H -0.4739 0.4077 -0.0917
N4A N -0.1279(4) 0.5563(4) -0.0614(4)
O2A O -0.3968(3) 0.1405(3) -0.0007(3)
O4A O -0.5599(3) 0.2429(3) 0.0056(4)
O1A O -1.1026(3) 0.0913(3) -0.0621(3)
C1A C -0.7641(8) 0.4264(9) 0.4232(7)
H1A H -0.6835 0.3914 0.4041
H2A H -0.7314 0.5229 0.4450
H3A H -0.8010 0.4127 0.4920
C2A C -0.9857(4) 0.1027(4) -0.1078(4)
C4A C -0.9837(4) 0.1372(4) -0.2169(4)
C6A C -1.1089(4) 0.1401(4) -0.2716(4)
H5A H -1.1960 0.1216 -0.2411
C9A C -1.3874(4) 0.1418(4) -0.6134(4)
C10A C -1.2567(4) 0.1453(4) -0.5588(4)
H6A H -1.1820 0.1306 -0.6050
C13A C -1.1047(4) 0.1706(5) -0.3723(4)
C14A C -0.8672(5) 0.2537(5) 0.2139(4)
C15A C -1.2391(4) 0.1712(5) -0.4344(4)
C16A C -1.4150(4) 0.1053(5) -0.7497(4)
C17A C -1.4935(5) 0.1673(6) -0.5406(4)
H9A H -1.5810 0.1687 -0.5734
C18A C -0.8563(5) 0.1669(7) -0.2636(5)
H10A H -0.7695 0.1661 -0.2290
C19A C -1.4679(6) 0.1906(7) -0.4186(5)
H11A H -1.5409 0.2067 -0.3707
C20A C -0.8611(6) 0.1981(9) -0.3633(6)
H12A H -0.7744 0.2195 -0.3935
C21A C -1.0118(7) 0.3955(7) 0.3221(6)
H13A H -1.0855 0.3300 0.2512
H14A H -1.0484 0.3997 0.3970
H15A H -0.9876 0.4845 0.3235
Eu1A Eu -0.691577(16) 0.044601(17) 0.028611(15)
N1A N -0.8808(4) 0.3534(4) 0.3140(4)
N2A N -0.9818(4) 0.1995(6) -0.4192(5)
N3A N -1.3443(4) 0.1916(5) -0.3645(4)
O3A O -1.3201(3) 0.0687(3) -0.8137(3)
O5A O -0.8740(3) 0.0873(3) -0.0710(3)
O6A O -0.7598(3) 0.2144(3) 0.1991(3)
O7A O -1.5327(3) 0.1135(4) -0.7891(3)
H16A H -0.960(6) 0.202(6) 0.150(6)
O1_2 O -0.8974(3) -0.0913(3) 0.0621(3)
O1A_2 O 0.8974(3) 1.0913(3) -0.0621(3)
Eu1_2 Eu -1.308423(16) -0.044601(17) -1.028611(15)
Eu1_3 Eu -1.308423(16) -0.044601(17) -0.028611(15)
Eu1_4 Eu -0.308423(16) -0.044601(17) -0.028611(15)
Eu1_5 Eu 1.691577(16) 0.955399(17) 0.971389(15)
Eu1A_2 Eu -1.691577(16) 0.044601(17) -0.971389(15)
Eu1A_3 Eu 0.308423(16) 1.044601(17) 0.028611(15)
Eu1A_4 Eu 1.308423(16) 1.044601(17) 0.028611(15)
Eu1A_5 Eu 1.308423(16) 1.044601(17) 1.028611(15)
O2_2 O -0.6032(3) -0.1405(3) 0.0007(3)
O2A_2 O 0.6032(3) 1.1405(3) -0.0007(3)
O3_2 O -0.6799(3) -0.0687(3) -0.1863(3)
O3A_2 O 0.6799(3) 1.0687(3) 0.1863(3)
O7_2 O 0.5327(3) 0.8865(4) -0.2109(3)
O7A_2 O -0.5327(3) 0.1135(4) 0.2109(3)
loop_
_geom_bond_atom_site_label_1
_geom_bond_atom_site_label_2
_geom_bond_site_symmetry_1
_geom_bond_site_symmetry_2
O1 C2 1_555 1_555
C1 H1 1_555 1_555
H2 C1 1_555 1_555
H3 C1 1_555 1_555
C2 C4 1_555 1_555
C3 C5 1_555 1_555
C4 C6 1_555 1_555
C5 H4 1_555 1_555
C6 H5 1_555 1_555
C7 C3 1_555 1_555
C8 C5 1_555 1_555
C9 C10 1_555 1_555
C10 H6 1_555 1_555
C11 H7 1_555 1_555
C12 C3 1_555 1_555
H8 C12 1_555 1_555
C13 C6 1_555 1_555
C14 N1 1_555 1_555
C15 C10 1_555 1_555
C16 C9 1_555 1_555
C17 C9 1_555 1_555
H9 C17 1_555 1_555
C18 C4 1_555 1_555
H10 C18 1_555 1_555
C19 C17 1_555 1_555
H11 C19 1_555 1_555
C20 C18 1_555 1_555
H12 C20 1_555 1_555
C21 H13 1_555 1_555
H14 C21 1_555 1_555
H15 C21 1_555 1_555
Eu1 O2 1_555 1_555
N1 C1 1_555 1_555
N2 C13 1_555 1_555
N3 C15 1_555 1_555
N4 C8 1_555 1_555
O2 C7 1_555 1_555
O3 C16 1_555 1_555
O4 C7 1_555 1_555
O5 C2 1_555 1_555
O6 C14 1_555 1_555
O7 C16 1_555 1_555
H16 C14 1_555 1_555
C3A C5A 1_555 1_555
C5A H4A 1_555 1_555
C7A C3A 1_555 1_555
C8A C8 1_555 1_555
C11A H7A 1_555 1_555
C12A C3A 1_555 1_555
H8A C12A 1_555 1_555
N4A C8A 1_555 1_555
O2A C7A 1_555 1_555
O4A C7A 1_555 1_555
O1A C2A 1_555 1_555
C1A H1A 1_555 1_555
H2A C1A 1_555 1_555
H3A C1A 1_555 1_555
C2A C4A 1_555 1_555
C4A C6A 1_555 1_555
C6A H5A 1_555 1_555
C9A C10A 1_555 1_555
C10A H6A 1_555 1_555
C13A C6A 1_555 1_555
C14A N1A 1_555 1_555
C15A C10A 1_555 1_555
C16A C9A 1_555 1_555
C17A C9A 1_555 1_555
H9A C17A 1_555 1_555
C18A C4A 1_555 1_555
H10A C18A 1_555 1_555
C19A C17A 1_555 1_555
H11A C19A 1_555 1_555
C20A C18A 1_555 1_555
H12A C20A 1_555 1_555
C21A H13A 1_555 1_555
H14A C21A 1_555 1_555
H15A C21A 1_555 1_555
Eu1A O2A 1_555 1_555
N1A C1A 1_555 1_555
N2A C13A 1_555 1_555
N3A C15A 1_555 1_555
O3A C16A 1_555 1_555
O5A C2A 1_555 1_555
O6A C14A 1_555 1_555
O7A C16A 1_555 1_555
H16A C14A 1_555 1_555
O1_2 Eu1A 1_555 1_555
O1A_2 Eu1 1_555 1_555
Eu1_2 O3A 1_555 1_555
Eu1_3 O1A 1_555 1_555
Eu1_4 O2A 1_555 1_555
Eu1_5 O7 1_555 1_555
Eu1A_2 O7A 1_555 1_555
Eu1A_3 O2 1_555 1_555
Eu1A_4 O1 1_555 1_555
Eu1A_5 O3 1_555 1_555
O2_2 Eu1A 1_555 1_555
O2A_2 Eu1 1_555 1_555
O3_2 Eu1A 1_555 1_555
O3A_2 Eu1 1_555 1_555
O7_2 Eu1 1_555 1_555
O7A_2 Eu1A 1_555 1_555
C11 C12 1_555 1_555
C11 N4 1_555 1_555
C13 C15 1_555 1_555
C19 N3 1_555 1_555
C20 N2 1_555 1_555
C21 N1 1_555 1_555
Eu1 O4 1_555 1_555
Eu1 O5 1_555 1_555
Eu1 O6 1_555 1_555
C5A C8A 1_555 1_555
C11A C12A 1_555 1_555
C11A N4A 1_555 1_555
O4A Eu1A 1_555 1_555
C13A C15A 1_555 1_555
C19A N3A 1_555 1_555
C20A N2A 1_555 1_555
C21A N1A 1_555 1_555
Eu1A O5A 1_555 1_555
Eu1A O6A 1_555 1_555
Eu1_4 O2_2 1_555 1_555
Eu1A_3 O2A_2 1_555 1_555

#END
