
#######################################################################
#
#                 Cambridge Crystallographic Data Centre
#                                CCDC 
#
#######################################################################
#
# If this CIF has been generated from an entry in the Cambridge 
# Structural Database, then it will include bibliographic, chemical, 
# crystal, experimental, refinement or atomic coordinate data resulting 
# from the CCDC's data processing and validation procedures.
#
#######################################################################

data_ZUPCUI
_symmetry_cell_setting           monoclinic
_symmetry_space_group_name_H-M   'P 21/n'
_symmetry_Int_Tables_number      14
_space_group_name_Hall           '-P 2yn'
loop_
_symmetry_equiv_pos_site_id
_symmetry_equiv_pos_as_xyz
1 x,y,z
2 1/2-x,1/2+y,1/2-z
3 -x,-y,-z
4 1/2+x,1/2-y,1/2+z
_cell_length_a                   11.015(2)
_cell_length_b                   10.071(2)
_cell_length_c                   11.435(2)
_cell_angle_alpha                90
_cell_angle_beta                 100.02(3)
_cell_angle_gamma                90
_cell_volume                     1249.16
loop_
_atom_site_label
_atom_site_type_symbol
_atom_site_fract_x
_atom_site_fract_y
_atom_site_fract_z
Hg1 Hg 0.31767(5) 0.01440(5) 0.50033(5)
Hg2 Hg 0.00000 0.00000 0.50000
Cl1 Cl 0.4820(3) 0.0123(4) 0.6615(3)
Cl2 Cl 0.1837(4) -0.0986(4) 0.3529(4)
Cl3 Cl 0.0953(4) -0.1385(4) 0.6507(4)
O1 O 0.2778(10) 0.2478(9) 0.4740(11)
O2 O 0.1563(9) 0.1846(9) 0.5986(9)
C1 C 0.2026(13) 0.2685(12) 0.5437(15)
C2 C 0.1538(13) 0.4107(14) 0.5564(19)
C3 C 0.0286(12) 0.4329(13) 0.4971(13)
N1 N 0.2437(9) 0.5120(9) 0.5295(12)
C4 C 0.3076(17) 0.5789(15) 0.6241(15)
C5 C 0.4025(17) 0.6601(16) 0.6087(21)
C6 C 0.4257(17) 0.6723(18) 0.4984(24)
C7 C 0.3634(18) 0.6096(16) 0.4053(19)
C8 C 0.2702(14) 0.5246(13) 0.4237(15)
H1 H 0.1510 0.4217 0.6393
H2 H -0.0248 0.3701 0.5259
H3 H 0.0281 0.4130 0.4150
H4 H 0.2851 0.5679 0.7010
H5 H 0.4505 0.7069 0.6740
H6 H 0.4921 0.7297 0.4867
H7 H 0.3827 0.6238 0.3276
H8 H 0.2245 0.4745 0.3592
Hg1B Hg -0.31767(5) -0.01440(5) 0.49967(5)
Cl1B Cl -0.4820(3) -0.0123(4) 0.3385(3)
Cl2B Cl -0.1837(4) 0.0986(4) 0.6471(4)
Cl3B Cl -0.0953(4) 0.1385(4) 0.3493(4)
O2B O -0.1563(9) -0.1846(9) 0.4014(9)
O1B O -0.2778(10) -0.2478(9) 0.5260(11)
C3B C -0.0286(12) 0.5671(13) 0.5029(13)
C2B C -0.1538(13) 0.5893(14) 0.4436(19)
C1B C -0.2026(13) 0.7315(12) 0.4563(15)
O1B_2 O -0.2778(10) 0.7522(9) 0.5260(11)
Hg1B_2 Hg -0.31767(5) 0.98560(5) 0.49967(5)
Hg2B Hg 0.00000 1.00000 0.50000
O2B_2 O -0.1563(9) 0.8154(9) 0.4014(9)
N1B N -0.2437(9) 0.4880(9) 0.4705(12)
C4B C -0.3076(17) 0.4211(15) 0.3759(15)
C5B C -0.4025(17) 0.3399(16) 0.3913(21)
C6B C -0.4257(17) 0.3277(18) 0.5016(24)
C7B C -0.3634(18) 0.3904(16) 0.5947(19)
C8B C -0.2702(14) 0.4754(13) 0.5763(15)
H8B H -0.2245 0.5255 0.6408
H7B H -0.3827 0.3762 0.6724
H6B H -0.4921 0.2703 0.5133
H5B H -0.4505 0.2931 0.3260
H4B H -0.2851 0.4321 0.2990
H1B H -0.1510 0.5783 0.3607
H2B H 0.0248 0.6299 0.4741
H3B H -0.0281 0.5870 0.5850
loop_
_geom_bond_atom_site_label_1
_geom_bond_atom_site_label_2
_geom_bond_site_symmetry_1
_geom_bond_site_symmetry_2
Hg1 Cl1 1_555 1_555
Hg2 Cl2 1_555 1_555
Cl2 Hg1 1_555 1_555
Cl3 Hg2 1_555 1_555
O1 Hg1 1_555 1_555
O2 Hg2 1_555 1_555
C1 O1 1_555 1_555
C2 C1 1_555 1_555
C3 C2 1_555 1_555
N1 C2 1_555 1_555
C4 N1 1_555 1_555
C5 C4 1_555 1_555
C6 C5 1_555 1_555
C7 C6 1_555 1_555
C8 N1 1_555 1_555
H1 C2 1_555 1_555
H2 C3 1_555 1_555
H3 C3 1_555 1_555
H4 C4 1_555 1_555
H5 C5 1_555 1_555
H6 C6 1_555 1_555
H7 C7 1_555 1_555
H8 C8 1_555 1_555
Hg1B Cl1B 1_555 1_555
Cl2B Hg2 1_555 1_555
Cl3B Hg2 1_555 1_555
O2B Hg2 1_555 1_555
O1B Hg1B 1_555 1_555
C3B C3 1_555 1_555
C2B C3B 1_555 1_555
C1B C2B 1_555 1_555
O1B_2 C1B 1_555 1_555
Hg1B_2 O1B_2 1_555 1_555
Hg2B O2B_2 1_555 1_555
O2B_2 C1B 1_555 1_555
N1B C2B 1_555 1_555
C4B N1B 1_555 1_555
C5B C4B 1_555 1_555
C6B C5B 1_555 1_555
C7B C6B 1_555 1_555
C8B N1B 1_555 1_555
H8B C8B 1_555 1_555
H7B C7B 1_555 1_555
H6B C6B 1_555 1_555
H5B C5B 1_555 1_555
H4B C4B 1_555 1_555
H1B C2B 1_555 1_555
H2B C3B 1_555 1_555
H3B C3B 1_555 1_555
O2 C1 1_555 1_555
C7 C8 1_555 1_555
Hg1B Cl2B 1_555 1_555
C7B C8B 1_555 1_555

#END
