
#######################################################################
#
#                 Cambridge Crystallographic Data Centre
#                                CCDC 
#
#######################################################################
#
# If this CIF has been generated from an entry in the Cambridge 
# Structural Database, then it will include bibliographic, chemical, 
# crystal, experimental, refinement or atomic coordinate data resulting 
# from the CCDC's data processing and validation procedures.
#
#######################################################################

data_ZUQCEV
_symmetry_cell_setting           triclinic
_symmetry_space_group_name_H-M   'P -1'
_symmetry_Int_Tables_number      2
_space_group_name_Hall           '-P 1'
loop_
_symmetry_equiv_pos_site_id
_symmetry_equiv_pos_as_xyz
1 x,y,z
2 -x,-y,-z
_cell_length_a                   7.3351(15)
_cell_length_b                   8.8483(18)
_cell_length_c                   11.466(2)
_cell_angle_alpha                82.20(3)
_cell_angle_beta                 89.30(3)
_cell_angle_gamma                68.41(3)
_cell_volume                     684.991
loop_
_atom_site_label
_atom_site_type_symbol
_atom_site_fract_x
_atom_site_fract_y
_atom_site_fract_z
Fe1 Fe 0.000 1.0 0.000
O1 O 0.1049(7) 0.7418(5) 0.0326(4)
N1 N 0.2041(8) 0.9934(7) 0.1323(5)
N2 N 0.7807(8) 1.0125(7) 0.1237(5)
N3 N 0.2619(8) 0.4822(7) -0.0072(5)
C1 C 0.3335(9) 0.9942(7) 0.1869(5)
C2 C 0.4958(9) 0.9969(7) 0.2490(5)
C3 C 0.6515(9) 1.0059(7) 0.1807(5)
C4 C 0.4975(9) 0.9996(7) 0.3765(5)
C5 C 0.3626(9) 0.9579(8) 0.4468(5)
H1 H 0.2669(9) 0.9281(8) 0.4111(5)
C6 C 0.6361(9) 1.0413(8) 0.4321(6)
H2 H 0.7311(9) 1.0696(8) 0.3868(6)
C7 C 0.1684(9) 0.6422(8) -0.0379(6)
H3 H 0.1488(9) 0.6832(8) -0.1196(6)
C8 C 0.3322(12) 0.3694(9) -0.0918(8)
H4 H 0.265(6) 0.292(5) -0.083(4)
H5 H 0.306(8) 0.4305(11) -0.1716(8)
H6 H 0.474(2) 0.309(5) -0.078(3)
C9 C 0.2880(14) 0.4142(10) 0.1172(7)
H7 H 0.260(9) 0.5033(12) 0.1651(7)
H8 H 0.198(6) 0.357(7) 0.1364(14)
H9 H 0.423(3) 0.337(6) 0.1339(13)
N1A N 0.7959(8) 1.0066(7) 0.8677(5)
C1A C 0.6665(9) 1.0058(7) 0.8131(5)
C2A C 0.5042(9) 1.0031(7) 0.7510(5)
C4A C 0.5025(9) 1.0004(7) 0.6235(5)
C5A C 0.6374(9) 1.0421(8) 0.5532(5)
H1A H 0.7331(9) 1.0719(8) 0.5889(5)
C6A C 0.3639(9) 0.9587(8) 0.5679(6)
H2A H 0.2689(9) 0.9304(8) 0.6132(6)
N2A N 0.2193(8) 0.9875(7) 0.8763(5)
C3A C 0.3485(9) 0.9941(7) 0.8193(5)
O1A O -0.1049(7) 1.2582(5) -0.0326(4)
N3A N -0.2619(8) 1.5178(7) 0.0072(5)
C7A C -0.1684(9) 1.3578(8) 0.0379(6)
H3A H -0.1488(9) 1.3168(8) 0.1196(6)
C8A C -0.3322(12) 1.6306(9) 0.0918(8)
H4A H -0.265(6) 1.708(5) 0.083(4)
H5A H -0.306(8) 1.5695(11) 0.1716(8)
H6A H -0.474(2) 1.691(5) 0.078(3)
C9A C -0.2880(14) 1.5858(10) -0.1172(7)
H7A H -0.260(9) 1.4967(12) -0.1651(7)
H8A H -0.198(6) 1.643(7) -0.1364(14)
H9A H -0.423(3) 1.663(6) -0.1339(13)
Fe1_2 Fe 0.000 1.0 1.000
Fe1_3 Fe 1.000 1.0 0.000
Fe1_4 Fe 1.000 1.0 1.000
N1A_2 N -0.2041(8) 1.0066(7) -0.1323(5)
N2_2 N -0.2193(8) 1.0125(7) 0.1237(5)
N2A_2 N 0.2193(8) 0.9875(7) -0.1237(5)
O2 O 0.2000(10) 0.6094(8) 0.6566(6)
N4 N 0.1639(9) 0.5998(7) 0.4604(6)
C10 C 0.1240(12) 0.6707(10) 0.5583(7)
H10 H 0.0278(12) 0.7788(10) 0.5510(7)
C11 C 0.3089(13) 0.4354(10) 0.4612(9)
H11 H 0.362(7) 0.390(3) 0.5418(12)
H12 H 0.247(3) 0.366(2) 0.432(5)
H13 H 0.416(5) 0.4399(14) 0.410(4)
C12 C 0.0616(14) 0.6854(10) 0.3506(8)
H14 H -0.023(8) 0.797(3) 0.3611(16)
H15 H 0.1569(14) 0.689(7) 0.2908(17)
H16 H -0.019(8) 0.628(5) 0.325(3)
loop_
_geom_bond_atom_site_label_1
_geom_bond_atom_site_label_2
_geom_bond_site_symmetry_1
_geom_bond_site_symmetry_2
Fe1 O1 1_555 1_555
O1 C7 1_555 1_555
N1 Fe1 1_555 1_555
N2 C3 1_555 1_555
N3 C7 1_555 1_555
C1 N1 1_555 1_555
C2 C1 1_555 1_555
C3 C2 1_555 1_555
C4 C2 1_555 1_555
C5 C4 1_555 1_555
H1 C5 1_555 1_555
C6 C4 1_555 1_555
H2 C6 1_555 1_555
C7 H3 1_555 1_555
C8 N3 1_555 1_555
H4 C8 1_555 1_555
H5 C8 1_555 1_555
H6 C8 1_555 1_555
C9 N3 1_555 1_555
H7 C9 1_555 1_555
H8 C9 1_555 1_555
H9 C9 1_555 1_555
O2 C10 1_555 1_555
N4 C10 1_555 1_555
C10 H10 1_555 1_555
C11 N4 1_555 1_555
H11 C11 1_555 1_555
H12 C11 1_555 1_555
H13 C11 1_555 1_555
C12 N4 1_555 1_555
H14 C12 1_555 1_555
H15 C12 1_555 1_555
H16 C12 1_555 1_555
N1A C1A 1_555 1_555
C1A C2A 1_555 1_555
C2A C4A 1_555 1_555
C4A C5A 1_555 1_555
C5A C6 1_555 1_555
H1A C5A 1_555 1_555
C6A C5 1_555 1_555
H2A C6A 1_555 1_555
N2A C3A 1_555 1_555
C3A C2A 1_555 1_555
O1A Fe1 1_555 1_555
N3A C7A 1_555 1_555
C7A O1A 1_555 1_555
H3A C7A 1_555 1_555
C8A N3A 1_555 1_555
H4A C8A 1_555 1_555
H5A C8A 1_555 1_555
H6A C8A 1_555 1_555
C9A N3A 1_555 1_555
H7A C9A 1_555 1_555
H8A C9A 1_555 1_555
H9A C9A 1_555 1_555
Fe1_2 N2A 1_555 1_555
Fe1_3 N2 1_555 1_555
Fe1_4 N1A 1_555 1_555
N1A_2 Fe1 1_555 1_555
N2_2 Fe1 1_555 1_555
N2A_2 Fe1 1_555 1_555
C4A C6A 1_555 1_555

#END
