
#######################################################################
#
#                 Cambridge Crystallographic Data Centre
#                                CCDC 
#
#######################################################################
#
# If this CIF has been generated from an entry in the Cambridge 
# Structural Database, then it will include bibliographic, chemical, 
# crystal, experimental, refinement or atomic coordinate data resulting 
# from the CCDC's data processing and validation procedures.
#
#######################################################################

data_ZUQFAU
_symmetry_cell_setting           tetragonal
_symmetry_space_group_name_H-M   'P -4 21 c'
_symmetry_Int_Tables_number      114
_space_group_name_Hall           'P -4 2n'
loop_
_symmetry_equiv_pos_site_id
_symmetry_equiv_pos_as_xyz
1 x,y,z
2 y,-x,-z
3 -x,-y,z
4 -y,x,-z
5 1/2+x,1/2-y,1/2-z
6 1/2-x,1/2+y,1/2-z
7 1/2-y,1/2-x,1/2+z
8 1/2+y,1/2+x,1/2+z
_cell_length_a                   19.0391(2)
_cell_length_b                   19.0391(2)
_cell_length_c                   8.0073(2)
_cell_angle_alpha                90
_cell_angle_beta                 90
_cell_angle_gamma                90
_cell_volume                     2902.54
loop_
_atom_site_label
_atom_site_type_symbol
_atom_site_fract_x
_atom_site_fract_y
_atom_site_fract_z
Pb1 Pb 0.83598(2) 0.35869(2) -0.01692(3)
O1 O 0.7166(2) 0.3027(2) 0.0183(6)
O2 O 0.7639(3) 0.3555(3) 0.2358(5)
O3 O 0.4652(3) 0.2285(3) 0.0598(5)
O4 O 0.4095(3) 0.2299(3) 0.3018(6)
O5 O 0.8889(3) 0.4505(3) 0.2058(7)
C1 C 0.6473(4) 0.3137(4) 0.2650(8)
C2 C 0.6445(4) 0.3372(4) 0.4305(7)
H1 H 0.6857 0.3561 0.4801
C3 C 0.7127(4) 0.3233(4) 0.1657(8)
C4 C 0.8507(5) 0.5019(5) 0.2261(9)
H2 H 0.8019 0.4929 0.2390
C5 C 0.4618(4) 0.2436(4) 0.2125(9)
C6 C 0.5868(4) 0.2856(4) 0.1943(9)
H3 H 0.5873 0.2711 0.0808
N1 N 0.8707(4) 0.5683(4) 0.2317(10)
C7 C 0.5249(4) 0.2784(4) 0.2888(8)
C8 C 0.8215(6) 0.6256(5) 0.2505(10)
H4 H 0.7735 0.6077 0.2397
H5 H 0.8302 0.6609 0.1639
H6 H 0.8275 0.6470 0.3609
C9 C 0.9437(6) 0.5875(6) 0.209(2)
H7 H 0.9674 0.5514 0.1423
H8 H 0.9666 0.5913 0.3182
H9 H 0.9465 0.6327 0.1511
C10 C 0.5832(4) 0.3334(4) 0.5240(8)
C11 C 0.5238(4) 0.3029(4) 0.4532(8)
H10 H 0.4821 0.2987 0.5174
C12 C 0.5832(5) 0.3617(5) 0.6972(9)
H11 H 0.6275 0.3696 0.7486
C13 C 0.5278(5) 0.3764(5) 0.7830(9)
C14 C 0.4728(5) 0.3914(6) 0.8684(11)
H12 H 0.454(5) 0.437(2) 0.847(10)
H13 H 0.451(4) 0.361(3) 0.944(8)
Pb1A Pb 0.35869(2) 0.16402(2) 0.01692(3)
Pb1D Pb 0.33598(2) 0.14131(2) 0.51692(3)
Pb1G Pb 0.85869(2) 0.33598(2) 0.48308(3)
O2G O 0.8555(3) 0.2639(3) -0.2642(5)
O3C O 0.7715(3) 0.4652(3) -0.0598(5)
O4C O 0.7701(3) 0.4095(3) -0.3018(6)
O4D O 0.9095(3) 0.2701(3) 0.1982(6)
O5G O 0.9505(3) 0.3889(3) -0.2942(7)
loop_
_geom_bond_atom_site_label_1
_geom_bond_atom_site_label_2
_geom_bond_site_symmetry_1
_geom_bond_site_symmetry_2
Pb1 O1 1_555 1_555
O1 C3 1_555 1_555
O2 Pb1 1_555 1_555
O3 C5 1_555 1_555
O4 C5 1_555 1_555
O5 Pb1 1_555 1_555
C1 C2 1_555 1_555
C2 H1 1_555 1_555
C3 O2 1_555 1_555
C4 O5 1_555 1_555
H2 C4 1_555 1_555
C5 C7 1_555 1_555
C6 C1 1_555 1_555
H3 C6 1_555 1_555
N1 C4 1_555 1_555
C7 C6 1_555 1_555
C8 N1 1_555 1_555
H4 C8 1_555 1_555
H5 C8 1_555 1_555
H6 C8 1_555 1_555
C9 N1 1_555 1_555
H7 C9 1_555 1_555
H8 C9 1_555 1_555
H9 C9 1_555 1_555
C10 C2 1_555 1_555
C11 C7 1_555 1_555
H10 C11 1_555 1_555
C12 C10 1_555 1_555
H11 C12 1_555 1_555
C13 C12 1_555 1_555
C14 C13 1_555 1_555
H12 C14 1_555 1_555
H13 C14 1_555 1_555
Pb1A O3 1_555 1_555
Pb1D O4 1_555 1_555
Pb1G O2 1_555 1_555
O2G Pb1 1_555 1_555
O3C Pb1 1_555 1_555
O4C Pb1 1_555 1_555
O4D Pb1 1_555 1_555
O5G Pb1 1_555 1_555
O4 Pb1A 1_555 1_555
O5 Pb1G 1_555 1_555
C1 C3 1_555 1_555
C10 C11 1_555 1_555
Pb1G O4D 1_555 1_555

#END
