
#######################################################################
#
#                 Cambridge Crystallographic Data Centre
#                                CCDC 
#
#######################################################################
#
# If this CIF has been generated from an entry in the Cambridge 
# Structural Database, then it will include bibliographic, chemical, 
# crystal, experimental, refinement or atomic coordinate data resulting 
# from the CCDC's data processing and validation procedures.
#
#######################################################################

data_ZUQJEA
_symmetry_cell_setting           monoclinic
_symmetry_space_group_name_H-M   'P 21/n'
_symmetry_Int_Tables_number      14
_space_group_name_Hall           '-P 2yn'
loop_
_symmetry_equiv_pos_site_id
_symmetry_equiv_pos_as_xyz
1 x,y,z
2 1/2-x,1/2+y,1/2-z
3 -x,-y,-z
4 1/2+x,1/2-y,1/2+z
_cell_length_a                   15.117(5)
_cell_length_b                   8.606(1)
_cell_length_c                   7.212(1)
_cell_angle_alpha                90
_cell_angle_beta                 99.36(2)
_cell_angle_gamma                90
_cell_volume                     925.767
loop_
_atom_site_label
_atom_site_type_symbol
_atom_site_fract_x
_atom_site_fract_y
_atom_site_fract_z
Cu1 Cu -0.06592(5) 0.06404(9) -0.3507(1)
N1 N -0.1091(3) -0.0110(6) -0.1239(6)
N2 N -0.1731(3) -0.0011(6) -0.5297(7)
O1 O 0.0483(3) 0.0987(5) -0.1727(5)
O2 O -0.0110(3) 0.1643(5) -0.5473(5)
O3 O -0.1051(4) 0.3595(6) -0.5584(7)
C1 C -0.0460(4) -0.0316(6) 0.0157(8)
C2 C -0.1983(4) -0.0710(8) -0.1037(8)
C3 C -0.2655(4) -0.0526(9) -0.2835(9)
C4 C -0.2324(4) -0.1137(8) -0.4572(9)
C5 C -0.0432(4) 0.2936(7) -0.6141(8)
C6 C 0.0004(4) 0.3640(7) -0.7686(9)
H1 H -0.2077 0.0806 -0.5636
H2 H -0.1566 -0.0495 -0.6182
H5 H -0.1878 -0.1771 -0.0895
H6 H -0.2203 -0.0194 -0.0083
H7 H -0.3240 -0.1189 -0.2703
H8 H -0.2834 0.0615 -0.3095
H9 H -0.2798 -0.1410 -0.5482
H10 H -0.1960 -0.2249 -0.4344
H11 H 0.0371 0.4575 -0.7108
H12 H -0.0474 0.4004 -0.8732
H13 H 0.0394 0.2868 -0.8172
O1B O -0.0483(3) -0.0987(5) 0.1727(5)
Cu1B Cu 0.06592(5) -0.06404(9) 0.3507(1)
N1B N 0.1091(3) 0.0110(6) 0.1239(6)
C1B C 0.0460(4) 0.0316(6) -0.0157(8)
Cu1B_2 Cu 0.06592(5) -0.06404(9) -0.6493(1)
O2B O 0.0110(3) -0.1643(5) -0.4527(5)
C5B C 0.0432(4) -0.2936(7) -0.3859(8)
O3B O 0.1051(4) -0.3595(6) -0.4416(7)
C6B C -0.0004(4) -0.3640(7) -0.2314(9)
H11B H -0.0371 -0.4575 -0.2892
H12B H 0.0474 -0.4004 -0.1268
H13B H -0.0394 -0.2868 -0.1828
C2B C 0.1983(4) 0.0710(8) 0.1037(8)
C3B C 0.2655(4) 0.0526(9) 0.2835(9)
C4B C 0.2324(4) 0.1137(8) 0.4572(9)
N2B N 0.1731(3) 0.0011(6) 0.5297(7)
H1B H 0.2077 -0.0806 0.5636
H2B H 0.1566 0.0495 0.6182
H9B H 0.2798 0.1410 0.5482
H10B H 0.1960 0.2249 0.4344
H7B H 0.3240 0.1189 0.2703
H8B H 0.2834 -0.0615 0.3095
H5B H 0.1878 0.1771 0.0895
H6B H 0.2203 0.0194 0.0083
O2B_2 O 0.0110(3) -0.1643(5) 0.5473(5)
O2_2 O -0.0110(3) 0.1643(5) 0.4527(5)
O4 O 0.1637(3) 0.3586(6) -0.2559(7)
H3 H 0.1092 0.2933 -0.2205
H4 H 0.1395 0.4210 -0.3420
loop_
_geom_bond_atom_site_label_1
_geom_bond_atom_site_label_2
_geom_bond_site_symmetry_1
_geom_bond_site_symmetry_2
Cu1 N1 1_555 1_555
N1 C1 1_555 1_555
N2 Cu1 1_555 1_555
O1 Cu1 1_555 1_555
O2 Cu1 1_555 1_555
O3 C5 1_555 1_555
O4 H3 1_555 1_555
C1 O1B 1_555 1_555
C2 N1 1_555 1_555
C3 C2 1_555 1_555
C4 N2 1_555 1_555
C5 O2 1_555 1_555
C6 C5 1_555 1_555
H1 N2 1_555 1_555
H2 N2 1_555 1_555
H4 O4 1_555 1_555
H5 C2 1_555 1_555
H6 C2 1_555 1_555
H7 C3 1_555 1_555
H8 C3 1_555 1_555
H9 C4 1_555 1_555
H10 C4 1_555 1_555
H11 C6 1_555 1_555
H12 C6 1_555 1_555
H13 C6 1_555 1_555
O1B Cu1B 1_555 1_555
Cu1B N1B 1_555 1_555
N1B C1B 1_555 1_555
C1B O1 1_555 1_555
Cu1B_2 O2 1_555 1_555
O2B Cu1 1_555 1_555
C5B O2B 1_555 1_555
O3B C5B 1_555 1_555
C6B C5B 1_555 1_555
H11B C6B 1_555 1_555
H12B C6B 1_555 1_555
H13B C6B 1_555 1_555
C2B N1B 1_555 1_555
C3B C2B 1_555 1_555
C4B C3B 1_555 1_555
N2B Cu1B 1_555 1_555
H1B N2B 1_555 1_555
H2B N2B 1_555 1_555
H9B C4B 1_555 1_555
H10B C4B 1_555 1_555
H7B C3B 1_555 1_555
H8B C3B 1_555 1_555
H5B C2B 1_555 1_555
H6B C2B 1_555 1_555
O2B_2 Cu1B 1_555 1_555
O2_2 Cu1B 1_555 1_555
C1 C1B 1_555 1_555
C3 C4 1_555 1_555
Cu1B_2 O2B 1_555 1_555
C4B N2B 1_555 1_555

#END
