
#######################################################################
#
#                 Cambridge Crystallographic Data Centre
#                                CCDC 
#
#######################################################################
#
# If this CIF has been generated from an entry in the Cambridge 
# Structural Database, then it will include bibliographic, chemical, 
# crystal, experimental, refinement or atomic coordinate data resulting 
# from the CCDC's data processing and validation procedures.
#
#######################################################################

data_ZUQPOQ
_symmetry_cell_setting           orthorhombic
_symmetry_space_group_name_H-M   'P 21 21 21'
_symmetry_Int_Tables_number      19
_space_group_name_Hall           'P 2ac 2ab'
loop_
_symmetry_equiv_pos_site_id
_symmetry_equiv_pos_as_xyz
1 x,y,z
2 1/2-x,-y,1/2+z
3 1/2+x,1/2-y,-z
4 -x,1/2+y,1/2-z
_cell_length_a                   11.071(5)
_cell_length_b                   21.824(2)
_cell_length_c                   7.953(2)
_cell_angle_alpha                90
_cell_angle_beta                 90
_cell_angle_gamma                90
_cell_volume                     1921.55
loop_
_atom_site_label
_atom_site_type_symbol
_atom_site_fract_x
_atom_site_fract_y
_atom_site_fract_z
Ag1 Ag 0.13041(6) 0.00273(3) 0.02660(7)
S1 S 0.0509(2) 0.09898(9) -0.1061(4)
S2 S -0.0417(2) 0.40660(9) -0.3974(4)
O1 O 0.1826(5) -0.0027(5) 0.3158(7)
O2 O 0.1040(8) 0.0041(6) 0.5546(7)
O3 O 0.0010(8) 0.0111(9) 0.3285(10)
N1 N 0.0941(7) 0.0037(7) 0.4023(9)
C1 C 0.0153(9) 0.1563(6) 0.054(1)
C2 C -0.0419(8) 0.2137(3) -0.016(2)
C3 C 0.0032(9) 0.2710(3) 0.027(2)
C4 C -0.0423(9) 0.3235(3) -0.049(2)
C5 C -0.132(1) 0.3197(4) -0.174(1)
C6 C -0.1800(8) 0.2632(4) -0.207(2)
C7 C -0.138(1) 0.2107(4) -0.130(2)
C8 C -0.1655(10) 0.3749(4) -0.276(2)
C9 C 0.1745(9) 0.1305(4) -0.229(2)
C10 C 0.137(1) 0.1867(3) -0.329(1)
C11 C 0.1860(10) 0.2429(4) -0.291(1)
C12 C 0.143(1) 0.2948(4) -0.372(2)
C13 C 0.0504(9) 0.2918(4) -0.488(2)
C14 C 0.0086(9) 0.2344(4) -0.528(2)
C15 C 0.0516(9) 0.1826(4) -0.455(2)
C16 C -0.0120(10) 0.3489(3) -0.555(2)
H1 H -0.0448 0.1361 0.1304
H2 H 0.0842 0.1635 0.1189
H3 H 0.0585 0.2751 0.1053
H4 H -0.0083 0.3635 -0.0062
H5 H -0.2494 0.2618 -0.2781
H6 H -0.1749 0.1705 -0.1538
H7 H -0.2420 0.3745 -0.3479
H8 H -0.1746 0.4167 -0.1884
H9 H 0.2297 0.0873 -0.2739
H10 H 0.2342 0.1338 -0.1459
H11 H 0.2452 0.2466 -0.2015
H12 H 0.1795 0.327 -0.3451
H13 H -0.0576 0.2307 -0.6203
H14 H 0.0238 0.1426 -0.4787
H15 H 0.0326 0.3645 -0.6451
H16 H -0.0908 0.3346 -0.6023
O1A O 0.3174(5) 0.0027(5) -0.1842(7)
Ag1A Ag 0.36959(6) -0.00273(3) 0.52660(7)
S2C S 0.0417(2) -0.09340(9) -0.1026(4)
Ag1C Ag -0.13041(6) 0.50273(3) -0.52660(7)
loop_
_geom_bond_atom_site_label_1
_geom_bond_atom_site_label_2
_geom_bond_site_symmetry_1
_geom_bond_site_symmetry_2
Ag1 S1 1_555 1_555
S1 C1 1_555 1_555
S2 C8 1_555 1_555
O1 Ag1 1_555 1_555
O2 N1 1_555 1_555
O3 N1 1_555 1_555
N1 O1 1_555 1_555
C1 C2 1_555 1_555
C2 C3 1_555 1_555
C3 C4 1_555 1_555
C4 C5 1_555 1_555
C5 C6 1_555 1_555
C6 C7 1_555 1_555
C7 C2 1_555 1_555
C8 C5 1_555 1_555
C9 S1 1_555 1_555
C10 C9 1_555 1_555
C11 C10 1_555 1_555
C12 C11 1_555 1_555
C13 C12 1_555 1_555
C14 C13 1_555 1_555
C15 C10 1_555 1_555
C16 S2 1_555 1_555
H1 C1 1_555 1_555
H2 C1 1_555 1_555
H3 C3 1_555 1_555
H4 C4 1_555 1_555
H5 C6 1_555 1_555
H6 C7 1_555 1_555
H7 C8 1_555 1_555
H8 C8 1_555 1_555
H9 C9 1_555 1_555
H10 C9 1_555 1_555
H11 C11 1_555 1_555
H12 C12 1_555 1_555
H13 C14 1_555 1_555
H14 C15 1_555 1_555
H15 C16 1_555 1_555
H16 C16 1_555 1_555
O1A Ag1 1_555 1_555
Ag1A O1 1_555 1_555
S2C Ag1 1_555 1_555
Ag1C S2 1_555 1_555
C13 C16 1_555 1_555
C14 C15 1_555 1_555

#END
