
#######################################################################
#
#                 Cambridge Crystallographic Data Centre
#                                CCDC 
#
#######################################################################
#
# If this CIF has been generated from an entry in the Cambridge 
# Structural Database, then it will include bibliographic, chemical, 
# crystal, experimental, refinement or atomic coordinate data resulting 
# from the CCDC's data processing and validation procedures.
#
#######################################################################

data_ZUQPIK
_symmetry_cell_setting           orthorhombic
_symmetry_space_group_name_H-M   'C m c 21'
_symmetry_Int_Tables_number      36
_space_group_name_Hall           'C 2n -2'
loop_
_symmetry_equiv_pos_site_id
_symmetry_equiv_pos_as_xyz
1 x,y,z
2 -x,-y,1/2+z
3 -x,y,z
4 x,-y,1/2+z
5 1/2+x,1/2+y,z
6 1/2-x,1/2-y,1/2+z
7 1/2-x,1/2+y,z
8 1/2+x,1/2-y,1/2+z
_cell_length_a                   20.883(3)
_cell_length_b                   15.842(8)
_cell_length_c                   11.352(5)
_cell_angle_alpha                90
_cell_angle_beta                 90
_cell_angle_gamma                90
_cell_volume                     3755.56
loop_
_atom_site_label
_atom_site_type_symbol
_atom_site_fract_x
_atom_site_fract_y
_atom_site_fract_z
I1 I 1.0000 0.6487(1) 0.0901
I2 I 1.0000 0.6646(1) 0.4685(2)
Cu1 Cu 1.0000 0.5541(2) 0.2969(4)
Cu2 Cu 0.5000 0.2538(2) 0.2696(4)
S1 S 0.9013(2) 0.4906(3) 0.2821(6)
S2 S 0.5946(2) 0.3259(3) 0.2621(6)
C1 C 0.9090(7) 0.377(1) 0.265(2)
C2 C 0.8446(8) 0.333(1) 0.256(2)
C3 C 0.8259(9) 0.272(1) 0.339(2)
C4 C 0.7638(9) 0.241(1) 0.337(2)
C5 C 0.7204(8) 0.265(1) 0.248(2)
C6 C 0.7573(9) 0.821(1) 0.162(2)
C7 C 0.6968(9) 0.854(1) 0.166(2)
C8 C 0.6523(8) 0.238(1) 0.257(2)
C9 C 0.6357(8) 1.007(1) 0.421(2)
C10 C 0.7057(8) 0.981(1) 0.428(2)
C11 C 0.7283(9) 0.926(1) 0.514(2)
C12 C 0.7903(10) 0.894(1) 0.511(2)
C13 C 0.8311(8) 0.918(1) 0.425(2)
C14 C 0.8112(9) 0.983(1) 0.347(2)
C15 C 0.7493(9) 1.010(1) 0.348(2)
C16 C 0.6041(9) 0.376(1) 0.410(2)
H1 H 0.5653 0.8636 0.1989
H2 H 0.5677 0.8545 0.3349
H3 H 0.6431 0.7530 0.3978
H4 H 0.7494 0.7022 0.3953
H5 H 0.7870 0.8357 0.1013
H6 H 0.6823 0.8864 0.1022
H7 H 0.6417 0.2040 0.1937
H8 H 0.6461 0.2069 0.3300
H9 H 0.6124 0.9716 0.4821
H10 H 0.6324 1.0626 0.4476
H11 H 0.6974 0.9050 0.5742
H12 H 0.8030 0.8512 0.5666
H13 H 0.8422 1.0031 0.2887
H14 H 0.7352 1.0506 0.2939
H15 H 0.5711 0.4124 0.4212
H16 H 0.6011 0.3288 0.4660
Cu2D Cu 1.0000 0.7538(2) 0.2696(4)
S1B S 1.0987(2) 0.4906(3) 0.2821(6)
S2D S 1.0946(2) 0.8259(3) 0.2621(6)
S2F S 0.9054(2) 0.8259(3) 0.2621(6)
C8F C 0.8477(8) 0.738(1) 0.257(2)
C5F C 0.7796(8) 0.765(1) 0.248(2)
C4F C 0.7362(9) 0.741(1) 0.337(2)
C3F C 0.6741(9) 0.772(1) 0.339(2)
C2F C 0.6554(8) 0.833(1) 0.256(2)
C1F C 0.5910(7) 0.877(1) 0.265(2)
S1F S 0.5987(2) 0.9906(3) 0.2821(6)
Cu1D Cu 0.5000 1.0541(2) 0.2969(4)
C16F C 0.8959(9) 0.876(1) 0.410(2)
H15F H 0.9289 0.9124 0.4212
H16F H 0.8989 0.8288 0.4660
H7F H 0.8583 0.7040 0.1937
H8F H 0.8539 0.7069 0.3300
C9F C 0.8643(8) 0.507(1) 0.421(2)
C10F C 0.7943(8) 0.481(1) 0.428(2)
C11F C 0.7717(9) 0.426(1) 0.514(2)
C12F C 0.7097(10) 0.394(1) 0.511(2)
C13F C 0.6689(8) 0.418(1) 0.425(2)
H12F H 0.6970 0.3512 0.5666
H11F H 0.8026 0.4050 0.5742
C15F C 0.7507(9) 0.510(1) 0.348(2)
C14F C 0.6888(9) 0.483(1) 0.347(2)
H13F H 0.6578 0.5031 0.2887
H14F H 0.7648 0.5506 0.2939
H9F H 0.8876 0.4716 0.4821
H10F H 0.8676 0.5626 0.4476
H1F H 0.9347 0.3636 0.1989
H2F H 0.9323 0.3545 0.3349
C7F C 0.8032(9) 0.354(1) 0.166(2)
C6F C 0.7427(9) 0.321(1) 0.162(2)
H5F H 0.7130 0.3357 0.1013
H6F H 0.8177 0.3864 0.1022
H3F H 0.8569 0.2530 0.3978
H4F H 0.7506 0.2022 0.3953
O1 O 1.0000 0.0237 0.3304
C17 C 1.0000 0.0380 0.2211
C18 C 1.0000 0.1365 0.2054
C19 C 1.0000 0.1562 0.3107
C20 C 1.0000 0.1001 0.3872
loop_
_geom_bond_atom_site_label_1
_geom_bond_atom_site_label_2
_geom_bond_site_symmetry_1
_geom_bond_site_symmetry_2
I1 Cu1 1_555 1_555
I2 Cu1 1_555 1_555
Cu1 S1 1_555 1_555
Cu2 S2 1_555 1_555
S1 C1 1_555 1_555
S2 C8 1_555 1_555
O1 C17 1_555 1_555
C1 C2 1_555 1_555
C2 C3 1_555 1_555
C3 C4 1_555 1_555
C4 C5 1_555 1_555
C5 C8 1_555 1_555
C6 C7 1_555 1_555
C7 H6 1_555 1_555
C8 H7 1_555 1_555
C9 C10 1_555 1_555
C10 C11 1_555 1_555
C11 C12 1_555 1_555
C12 C13 1_555 1_555
C13 C14 1_555 1_555
C14 C15 1_555 1_555
C15 C10 1_555 1_555
C16 S2 1_555 1_555
C17 C18 1_555 1_555
C18 C19 1_555 1_555
C19 C20 1_555 1_555
C20 O1 1_555 1_555
H1 C1F 1_555 1_555
H2 C1F 1_555 1_555
H3 C3F 1_555 1_555
H4 C4F 1_555 1_555
H5 C6 1_555 1_555
H8 C8 1_555 1_555
H9 C9 1_555 1_555
H10 C9 1_555 1_555
H11 C11 1_555 1_555
H12 C12 1_555 1_555
H13 C14 1_555 1_555
H14 C15 1_555 1_555
H15 C16 1_555 1_555
H16 C16 1_555 1_555
Cu2D I1 1_555 1_555
S1B Cu1 1_555 1_555
S2D Cu2D 1_555 1_555
S2F Cu2D 1_555 1_555
C8F S2F 1_555 1_555
C5F C6 1_555 1_555
C4F C5F 1_555 1_555
C3F C4F 1_555 1_555
C2F C7 1_555 1_555
C1F C2F 1_555 1_555
S1F C9 1_555 1_555
Cu1D S1F 1_555 1_555
C16F C13 1_555 1_555
H15F C16F 1_555 1_555
H16F C16F 1_555 1_555
H7F C8F 1_555 1_555
H8F C8F 1_555 1_555
C9F S1 1_555 1_555
C10F C9F 1_555 1_555
C11F C10F 1_555 1_555
C12F C11F 1_555 1_555
C13F C16 1_555 1_555
H12F C12F 1_555 1_555
H11F C11F 1_555 1_555
C15F C10F 1_555 1_555
C14F C13F 1_555 1_555
H13F C14F 1_555 1_555
H14F C15F 1_555 1_555
H9F C9F 1_555 1_555
H10F C9F 1_555 1_555
H1F C1 1_555 1_555
H2F C1 1_555 1_555
C7F C2 1_555 1_555
C6F C5 1_555 1_555
H5F C6F 1_555 1_555
H6F C7F 1_555 1_555
H3F C3 1_555 1_555
H4F C4 1_555 1_555
I2 Cu2D 1_555 1_555
S2F C16F 1_555 1_555
C8F C5F 1_555 1_555
C3F C2F 1_555 1_555
C1F S1F 1_555 1_555
C12F C13F 1_555 1_555
C15F C14F 1_555 1_555
C7F C6F 1_555 1_555

#END
