
#######################################################################
#
#                 Cambridge Crystallographic Data Centre
#                                CCDC 
#
#######################################################################
#
# If this CIF has been generated from an entry in the Cambridge 
# Structural Database, then it will include bibliographic, chemical, 
# crystal, experimental, refinement or atomic coordinate data resulting 
# from the CCDC's data processing and validation procedures.
#
#######################################################################

data_ZUQTAI
_symmetry_cell_setting           triclinic
_symmetry_space_group_name_H-M   'P -1'
_symmetry_Int_Tables_number      2
_space_group_name_Hall           '-P 1'
loop_
_symmetry_equiv_pos_site_id
_symmetry_equiv_pos_as_xyz
1 x,y,z
2 -x,-y,-z
_cell_length_a                   10.2166(8)
_cell_length_b                   10.2512(8)
_cell_length_c                   11.6444(8)
_cell_angle_alpha                113.309(7)
_cell_angle_beta                 91.260(6)
_cell_angle_gamma                109.676(7)
_cell_volume                     1037.49
loop_
_atom_site_label
_atom_site_type_symbol
_atom_site_fract_x
_atom_site_fract_y
_atom_site_fract_z
Zn1 Zn -0.07564(3) 0.23476(4) 0.31746(3)
C1 C -0.0658(3) 0.9314(3) 1.1480(3)
H1 H 0.0011 0.9406 1.2091
C2 C -0.2121(4) 0.9696(4) 1.0508(3)
H2 H -0.2692 1.0156 1.0327
C3 C -0.0757(4) 0.6822(3) 0.9792(3)
H3 H 0.0023 0.6953 1.0371
H4 H -0.0424 0.6797 0.9013
C4 C -0.0119(3) 0.1897(4) 0.5526(3)
H5 H 0.0812 0.2052 0.5420
C5 C -0.2237(3) 0.1650(3) 0.5203(3)
H6 H -0.3100 0.1590 0.4867
C6 C -0.2935(3) 0.1155(3) 0.7090(3)
H7 H -0.2667 0.0537 0.7429
H8 H -0.3891 0.0562 0.6614
C7 C -0.2919(3) 0.2583(3) 0.8182(3)
C8 C -0.1908(3) 0.4021(3) 0.8477(3)
H9 H -0.1205 0.4128 0.7990
C9 C -0.1932(3) 0.5309(3) 0.9497(3)
C10 C -0.2988(4) 0.5144(4) 1.0211(3)
H10 H -0.3009 0.5998 1.0896
C11 C -0.4013(5) 0.3712(5) 0.9912(4)
H11 H -0.4725 0.3609 1.0392
C12 C -0.3979(4) 0.2439(4) 0.8905(3)
H12 H -0.4669 0.1479 0.8708
C13 C 0.2087(3) 0.3012(3) 0.3395(3)
C14 C 0.6867(3) 0.2835(3) 0.2925(3)
C15 C 0.4521(3) 0.3049(3) 0.3166(3)
H13 H 0.4185 0.2045 0.3079
C16 C 0.5915(3) 0.3722(3) 0.3099(3)
C17 C 0.6435(3) 0.5228(3) 0.3245(3)
H14 H 0.7370 0.5706 0.3196
C18 C 0.5515(3) 0.5988(3) 0.3465(3)
C19 C 0.4116(3) 0.5327(3) 0.3518(3)
H15 H 0.3528 0.5877 0.3655
C20 C 0.3605(3) 0.3819(3) 0.3361(3)
N1 N -0.1072(2) 0.1940(3) 0.4720(2)
N2 N -0.1997(3) 0.1455(3) 0.6229(2)
N3 N -0.0625(3) 0.1619(3) 0.6457(3)
N4 N -0.1176(3) 0.8150(3) 1.0362(2)
N5 N -0.2126(3) 0.8371(4) 0.9705(3)
N6 N -0.1224(3) 1.0340(3) 1.1616(2)
N7 N 0.6068(3) 0.7603(3) 0.3679(3)
O1 O 0.1227(2) 0.3638(2) 0.3301(2)
O2 O 0.1756(2) 0.1801(2) 0.3510(2)
O3 O 0.6346(2) 0.1491(2) 0.2775(2)
O4 O 0.8174(2) 0.3549(2) 0.3004(2)
O5 O 0.7174(3) 0.8094(3) 0.3339(3)
O6 O 0.5390(2) 0.8382(2) 0.4209(2)
Zn1_2 Zn -0.07564(3) 1.23476(4) 1.31746(3)
Zn1_3 Zn 0.92436(3) 0.23476(4) 0.31746(3)
N6_2 N -0.1224(3) 0.0340(3) 0.1616(2)
O4_2 O -0.1826(2) 0.3549(2) 0.3004(2)
loop_
_geom_bond_atom_site_label_1
_geom_bond_atom_site_label_2
_geom_bond_site_symmetry_1
_geom_bond_site_symmetry_2
Zn1 N1 1_555 1_555
C1 H1 1_555 1_555
C2 H2 1_555 1_555
C3 H3 1_555 1_555
H4 C3 1_555 1_555
C4 H5 1_555 1_555
C5 H6 1_555 1_555
C6 H7 1_555 1_555
H8 C6 1_555 1_555
C7 C6 1_555 1_555
C8 C7 1_555 1_555
H9 C8 1_555 1_555
C9 C3 1_555 1_555
C10 C9 1_555 1_555
H10 C10 1_555 1_555
C11 C10 1_555 1_555
H11 C11 1_555 1_555
C12 C7 1_555 1_555
H12 C12 1_555 1_555
C13 C20 1_555 1_555
C14 C16 1_555 1_555
C15 H13 1_555 1_555
C16 C15 1_555 1_555
C17 C16 1_555 1_555
H14 C17 1_555 1_555
C18 C17 1_555 1_555
C19 C18 1_555 1_555
H15 C19 1_555 1_555
C20 C15 1_555 1_555
N1 C4 1_555 1_555
N2 C5 1_555 1_555
N3 C4 1_555 1_555
N4 C1 1_555 1_555
N5 C2 1_555 1_555
N6 C1 1_555 1_555
N7 C18 1_555 1_555
O1 Zn1 1_555 1_555
O2 C13 1_555 1_555
O3 C14 1_555 1_555
O4 C14 1_555 1_555
O5 N7 1_555 1_555
O6 N7 1_555 1_555
Zn1_2 N6 1_555 1_555
Zn1_3 O4 1_555 1_555
N6_2 Zn1 1_555 1_555
O4_2 Zn1 1_555 1_555
C2 N6 1_555 1_555
C3 N4 1_555 1_555
C5 N1 1_555 1_555
C6 N2 1_555 1_555
C8 C9 1_555 1_555
C11 C12 1_555 1_555
C13 O1 1_555 1_555
C19 C20 1_555 1_555
N2 N3 1_555 1_555
N4 N5 1_555 1_555

#END
