
#######################################################################
#
#                 Cambridge Crystallographic Data Centre
#                                CCDC 
#
#######################################################################
#
# If this CIF has been generated from an entry in the Cambridge 
# Structural Database, then it will include bibliographic, chemical, 
# crystal, experimental, refinement or atomic coordinate data resulting 
# from the CCDC's data processing and validation procedures.
#
#######################################################################

data_ZUQVIQ
_symmetry_cell_setting           cubic
_symmetry_space_group_name_H-M   'P 41 3 2'
_symmetry_Int_Tables_number      213
_space_group_name_Hall           'P 4bd 2ab 3'
loop_
_symmetry_equiv_pos_site_id
_symmetry_equiv_pos_as_xyz
1 x,y,z
2 1/4-y,3/4+x,1/4+z
3 1/2+x,1/2-y,-z
4 z,x,y
5 1/2-x,-y,1/2+z
6 3/4+y,1/4+x,1/4-z
7 1/4-x,3/4+z,1/4+y
8 1/4+y,1/4-x,3/4+z
9 -x,1/2+y,1/2-z
10 1/2-z,-x,1/2+y
11 3/4-y,3/4-x,3/4-z
12 1/4+x,1/4-z,3/4+y
13 1/2+z,1/2-x,-y
14 3/4-x,3/4-z,3/4-y
15 -z,1/2+x,1/2-y
16 3/4+x,1/4+z,1/4-y
17 y,z,x
18 1/4-z,3/4+y,1/4+x
19 3/4+z,1/4+y,1/4-x
20 1/2+y,1/2-z,-x
21 3/4-z,3/4-y,3/4-x
22 -y,1/2+z,1/2-x
23 1/2-y,-z,1/2+x
24 1/4+z,1/4-y,3/4+x
_cell_length_a                   15.553(3)
_cell_length_b                   15.553(3)
_cell_length_c                   15.553(3)
_cell_angle_alpha                90
_cell_angle_beta                 90
_cell_angle_gamma                90
_cell_volume                     3762.21
loop_
_atom_site_label
_atom_site_type_symbol
_atom_site_fract_x
_atom_site_fract_y
_atom_site_fract_z
Mn1 Mn 0.9008(1) 0.4008(1) 0.0992(1)
O1 O 0.8862(2) 0.4137(2) 0.2374(2)
O2 O 0.8852(2) 0.3935(2) -0.0377(2)
C6 C 0.8750(2) 0.4900 0.2600(2)
C7 C 0.8110(2) 0.3750 -0.0610(2)
O1M O 0.8638(2) 0.5126(2) 0.3363(2)
Mn1M Mn 0.8492(1) 0.6508(1) 0.3492(1)
O1R O 0.9874(2) 0.6637(2) 0.3638(2)
O2M O 0.8648(2) 0.7877(2) 0.3565(2)
O1A O 0.8363(2) 0.6362(2) 0.4874(2)
O2R O 0.7123(2) 0.6435(2) 0.3648(2)
O2A O 0.8565(2) 0.6352(2) 0.2123(2)
C7A C 0.8750 0.5610(2) 0.1890(2)
O2S O 0.8935(2) 0.5377(2) 0.1148(2)
O1N O 0.7626(2) 0.3862(2) 0.0863(2)
C6N C 0.7400(2) 0.3750(2) 0.0100
O1S O 0.9137(2) 0.2626(2) 0.1138(2)
C6S C 0.9900 0.2400(2) 0.1250(2)
O2T O 0.7877(2) 0.3565(2) -0.1352(2)
Mn1T Mn 0.6508(1) 0.3492(1) -0.1508(1)
O1G O 0.6637(2) 0.3638(2) -0.0126(2)
O2N O 1.0377(2) 0.3852(2) 0.1065(2)
C7N C 1.0610(2) 0.3110(2) 0.1250
O1Q O 1.0126(2) 0.1637(2) 0.1362(2)
Mn1Q Mn 1.1508(1) 0.1508(1) 0.1508(1)
O2K O 1.1352(2) 0.2877(2) 0.1435(2)
B1 B 0.3750 0.6250 0.1250
F1 F 0.3219(2) 0.5864(3) 0.0662(2)
F2 F 0.4268(2) 0.6085(7) 0.0557(2)
F1W F 0.3162(2) 0.6636(3) 0.0719(2)
F1E F 0.3364(3) 0.5719(2) 0.1838(2)
F1U F 0.4136(3) 0.5662(2) 0.1781(2)
F1I F 0.4338(2) 0.6781(2) 0.0864(3)
F1M F 0.4281(2) 0.6838(2) 0.1636(3)
F2U F 0.3915(7) 0.5557(2) 0.0732(2)
F2E F 0.3585(7) 0.6768(2) 0.1943(2)
F2W F 0.3057(2) 0.6415(7) 0.1768(2)
F2I F 0.4443(2) 0.5732(2) 0.1085(7)
F2M F 0.3232(2) 0.6943(2) 0.1415(7)
Cr1 Cr 0.6250 0.8750 0.1250
N1 N 0.6235(2) 0.8630(2) -0.0061(2)
C1 C 0.6240(2) 0.7817(2) -0.0353(2)
C2 C 0.6201(3) 0.7634(3) -0.1239(3)
C3 C 0.6157(3) 0.8320(4) -0.1811(2)
C4 C 0.6158(3) 0.9150(3) -0.1501(2)
C5 C 0.6194(2) 0.9285(2) -0.0633(2)
H1 H 0.6189(2) 0.9847(2) -0.0428(2)
H2 H 0.6170(31) 0.6965(28) -0.1572(28)
H3 H 0.5986(29) 0.8172(27) -0.2427(28)
H4 H 0.6207(27) 0.9624(28) -0.1835(27)
C1F C 0.6260(2) 0.7147(2) 0.0317(2)
N1F N 0.6265(2) 0.7439(2) 0.1130(2)
N1E N 0.6130(2) 0.8735(2) 0.2561(2)
C1E C 0.5317(2) 0.8740(2) 0.2853(2)
C1L C 0.4647(2) 0.8760(2) 0.2183(2)
N1L N 0.4939(2) 0.8765(2) 0.1370(2)
N1T N 0.7561(2) 0.8870(2) 0.1265(2)
C1T C 0.7853(2) 0.9683(2) 0.1260(2)
C1V C 0.7183(2) 1.0353(2) 0.1240(2)
N1V N 0.6370(2) 1.0061(2) 0.1235(2)
C5V C 0.5715(2) 1.0633(2) 0.1194(2)
C4V C 0.5850(3) 1.1501(2) 0.1158(3)
C3V C 0.6680(4) 1.1811(2) 0.1157(3)
C2V C 0.7366(3) 1.1239(3) 0.1201(3)
H2V H 0.8035(28) 1.1572(28) 0.1170(31)
H3V H 0.6828(27) 1.2427(28) 0.0986(29)
H4V H 0.5376(28) 1.1835(27) 0.1207(27)
H1V H 0.5153(2) 1.0428(2) 0.1189(2)
C2T C 0.8739(3) 0.9866(3) 0.1299(3)
C3T C 0.9311(2) 0.9180(4) 0.1343(3)
C4T C 0.9001(2) 0.8350(3) 0.1342(3)
C5T C 0.8133(2) 0.8215(2) 0.1306(2)
H1T H 0.7928(2) 0.7653(2) 0.1311(2)
H4T H 0.9335(27) 0.7876(28) 0.1293(27)
H3T H 0.9927(28) 0.9328(27) 0.1514(29)
H2T H 0.9072(28) 1.0535(28) 0.1330(31)
C5L C 0.4367(2) 0.8806(2) 0.0715(2)
C4L C 0.3499(2) 0.8842(3) 0.0850(3)
C3L C 0.3189(2) 0.8843(3) 0.1680(4)
C2L C 0.3761(3) 0.8799(3) 0.2366(3)
H2L H 0.3428(28) 0.8830(31) 0.3035(28)
H3L H 0.2573(28) 0.9014(29) 0.1828(27)
H4L H 0.3165(27) 0.8793(27) 0.0376(28)
H1L H 0.4572(2) 0.8811(2) 0.0153(2)
C2E C 0.5134(3) 0.8701(3) 0.3739(3)
C3E C 0.5820(4) 0.8657(3) 0.4311(2)
C4E C 0.6650(3) 0.8658(3) 0.4001(2)
C5E C 0.6785(2) 0.8694(2) 0.3133(2)
H1E H 0.7347(2) 0.8689(2) 0.2928(2)
H4E H 0.7124(28) 0.8707(27) 0.4335(27)
H3E H 0.5672(27) 0.8486(29) 0.4927(28)
H2E H 0.4465(28) 0.8670(31) 0.4072(28)
C5F C 0.6306(2) 0.6867(2) 0.1785(2)
C4F C 0.6342(3) 0.5999(2) 0.1650(3)
C3F C 0.6343(3) 0.5689(2) 0.0820(4)
C2F C 0.6299(3) 0.6261(3) 0.0134(3)
H2F H 0.6330(31) 0.5928(28) -0.0535(28)
H3F H 0.6514(29) 0.5073(28) 0.0672(27)
H4F H 0.6293(27) 0.5665(27) 0.2124(28)
H1F H 0.6311(2) 0.7072(2) 0.2347(2)
loop_
_geom_bond_atom_site_label_1
_geom_bond_atom_site_label_2
_geom_bond_site_symmetry_1
_geom_bond_site_symmetry_2
Cr1 N1 1_555 1_555
N1 C1 1_555 1_555
C1 C2 1_555 1_555
C2 C3 1_555 1_555
C3 C4 1_555 1_555
C4 C5 1_555 1_555
C5 N1 1_555 1_555
Mn1 O1 1_555 1_555
O1 C6 1_555 1_555
O2 Mn1 1_555 1_555
C6 O1M 1_555 1_555
C7 O2 1_555 1_555
B1 F1 1_555 1_555
F1 F2 1_555 1_555
F2 B1 1_555 1_555
H1 C5 1_555 1_555
H2 C2 1_555 1_555
H3 C3 1_555 1_555
H4 C4 1_555 1_555
C1F C1 1_555 1_555
N1F Cr1 1_555 1_555
N1E Cr1 1_555 1_555
C1E N1E 1_555 1_555
C1L C1E 1_555 1_555
N1L Cr1 1_555 1_555
N1T Cr1 1_555 1_555
C1T N1T 1_555 1_555
C1V C1T 1_555 1_555
N1V Cr1 1_555 1_555
C5V N1V 1_555 1_555
C4V C5V 1_555 1_555
C3V C4V 1_555 1_555
C2V C1V 1_555 1_555
H2V C2V 1_555 1_555
H3V C3V 1_555 1_555
H4V C4V 1_555 1_555
H1V C5V 1_555 1_555
C2T C1T 1_555 1_555
C3T C2T 1_555 1_555
C4T C3T 1_555 1_555
C5T N1T 1_555 1_555
H1T C5T 1_555 1_555
H4T C4T 1_555 1_555
H3T C3T 1_555 1_555
H2T C2T 1_555 1_555
C5L N1L 1_555 1_555
C4L C5L 1_555 1_555
C3L C4L 1_555 1_555
C2L C1L 1_555 1_555
H2L C2L 1_555 1_555
H3L C3L 1_555 1_555
H4L C4L 1_555 1_555
H1L C5L 1_555 1_555
C2E C1E 1_555 1_555
C3E C2E 1_555 1_555
C4E C3E 1_555 1_555
C5E N1E 1_555 1_555
H1E C5E 1_555 1_555
H4E C4E 1_555 1_555
H3E C3E 1_555 1_555
H2E C2E 1_555 1_555
C5F N1F 1_555 1_555
C4F C5F 1_555 1_555
C3F C4F 1_555 1_555
C2F C1F 1_555 1_555
H2F C2F 1_555 1_555
H3F C3F 1_555 1_555
H4F C4F 1_555 1_555
H1F C5F 1_555 1_555
O1M Mn1M 1_555 1_555
Mn1M O1R 1_555 1_555
O2M Mn1M 1_555 1_555
O1A Mn1M 1_555 1_555
O2R Mn1M 1_555 1_555
O2A Mn1M 1_555 1_555
C7A C6 1_555 1_555
O2S Mn1 1_555 1_555
O1N Mn1 1_555 1_555
C6N C7 1_555 1_555
O1S Mn1 1_555 1_555
C6S O1S 1_555 1_555
O2T C7 1_555 1_555
Mn1T O2T 1_555 1_555
O1G C6N 1_555 1_555
O2N Mn1 1_555 1_555
C7N C6S 1_555 1_555
F1W B1 1_555 1_555
F1E B1 1_555 1_555
F1U B1 1_555 1_555
F1I B1 1_555 1_555
F1M B1 1_555 1_555
F2U B1 1_555 1_555
F2E B1 1_555 1_555
F2W B1 1_555 1_555
F2I B1 1_555 1_555
F2M B1 1_555 1_555
O1Q C6S 1_555 1_555
Mn1Q O1Q 1_555 1_555
O2K C7N 1_555 1_555
F1 F1W 1_555 1_555
F1 F2U 1_555 1_555
F2 F1I 1_555 1_555
F2 F2I 1_555 1_555
F2 F2U 1_555 1_555
C1F N1F 1_555 1_555
C1L N1L 1_555 1_555
C1V N1V 1_555 1_555
C3V C2V 1_555 1_555
C4T C5T 1_555 1_555
C3L C2L 1_555 1_555
C4E C5E 1_555 1_555
C3F C2F 1_555 1_555
O2A C7A 1_555 1_555
C7A O2S 1_555 1_555
O1N C6N 1_555 1_555
Mn1T O1G 1_555 1_555
O2N C7N 1_555 1_555
F1W F2M 1_555 1_555
F1W F2W 1_555 1_555
F1E F1U 1_555 1_555
F1E F2W 1_555 1_555
F1E F2E 1_555 1_555
F1U F2I 1_555 1_555
F1U F2U 1_555 1_555
F1I F1M 1_555 1_555
F1I F2I 1_555 1_555
F1M F2M 1_555 1_555
F1M F2E 1_555 1_555
F2U F2I 1_555 1_555
F2E F2M 1_555 1_555
F2E F2W 1_555 1_555
F2W F2M 1_555 1_555
Mn1Q O2K 1_555 1_555

#END
