
#######################################################################
#
#                 Cambridge Crystallographic Data Centre
#                                CCDC 
#
#######################################################################
#
# If this CIF has been generated from an entry in the Cambridge 
# Structural Database, then it will include bibliographic, chemical, 
# crystal, experimental, refinement or atomic coordinate data resulting 
# from the CCDC's data processing and validation procedures.
#
#######################################################################

data_ZUQVOW
_symmetry_cell_setting           cubic
_symmetry_space_group_name_H-M   'P 21 3'
_symmetry_Int_Tables_number      198
_space_group_name_Hall           'P 2ac 2ab 3'
loop_
_symmetry_equiv_pos_site_id
_symmetry_equiv_pos_as_xyz
1 x,y,z
2 1/2-x,-y,1/2+z
3 1/2+x,1/2-y,-z
4 z,x,y
5 -x,1/2+y,1/2-z
6 1/2-z,-x,1/2+y
7 1/2+z,1/2-x,-y
8 -z,1/2+x,1/2-y
9 y,z,x
10 1/2+y,1/2-z,-x
11 -y,1/2+z,1/2-x
12 1/2-y,-z,1/2+x
_cell_length_a                   15.515(3)
_cell_length_b                   15.515(3)
_cell_length_c                   15.515(3)
_cell_angle_alpha                90
_cell_angle_beta                 90
_cell_angle_gamma                90
_cell_volume                     3734.7
loop_
_atom_site_label
_atom_site_type_symbol
_atom_site_fract_x
_atom_site_fract_y
_atom_site_fract_z
Cr1 Cr 0.1438(1) 0.6438(1) -0.1438(1)
Na1 Na 0.4002(1) 0.5998(1) 0.0998(1)
O1 O 0.2521(2) 0.6146(2) 0.0831(2)
O2 O 0.3762(2) 0.6108(2) -0.0487(2)
C11 C 0.2316(2) 0.6245(2) 0.0080(2)
C12 C 0.3011(2) 0.6241(2) -0.0653(2)
O3 O 0.1546(1) 0.6354(2) -0.0182(2)
O4 O 0.2702(1) 0.6393(2) -0.1405(2)
O1E O 0.4169(2) 0.7479(2) 0.1146(2)
O2E O 0.5487(2) 0.6238(2) 0.1108(2)
O1J O 0.3854(2) 0.5831(2) 0.2479(2)
O2J O 0.3892(2) 0.4513(2) 0.1238(2)
O3G O 0.0182(2) 0.6546(1) -0.1354(2)
C11G C -0.0080(2) 0.7316(2) -0.1245(2)
O1G O -0.0831(2) 0.7521(2) -0.1146(2)
Na1G Na -0.0998(1) 0.9002(1) -0.0998(1)
O2G O 0.0487(2) 0.8762(2) -0.1108(2)
C12G C 0.0653(2) 0.8011(2) -0.1241(2)
O4G O 0.1405(2) 0.7702(1) -0.1393(2)
O3I O 0.1354(2) 0.5182(2) -0.1546(1)
C11I C 0.1245(2) 0.4920(2) -0.2316(2)
O1I O 0.1146(2) 0.4169(2) -0.2521(2)
Na1I Na 0.0998(1) 0.4002(1) -0.4002(1)
O2I O 0.1108(2) 0.5487(2) -0.3762(2)
C12I C 0.1241(2) 0.5653(2) -0.3011(2)
O4I O 0.1393(2) 0.6405(2) -0.2702(1)
P1 P -0.1255(1) 0.3745(1) 0.1255(1)
F1 F -0.1842(4) 0.4265(4) 0.1908(4)
F2 F -0.0658(4) 0.4368(4) 0.1812(4)
F3 F -0.1853(6) 0.3147(6) 0.1853(4)
F4 F -0.0681(6) 0.4319(6) 0.0681(6)
F1G F -0.1908(4) 0.3158(4) 0.0735(4)
F1I F -0.0735(4) 0.3092(4) 0.1842(4)
F2G F -0.1812(4) 0.4342(4) 0.0632(4)
F2I F -0.0632(4) 0.3188(4) 0.0658(4)
Co1 Co 0.1239(1) 0.1239(1) 0.1239(1)
N1 N 0.1252(2) 0.2489(1) 0.1160(2)
C1 C 0.1261(2) 0.2792(2) 0.0345(2)
C2 C 0.1323(2) 0.3670(2) 0.0177(2)
C3 C 0.1385(3) 0.4237(2) 0.0861(3)
C4 C 0.1386(3) 0.3919(2) 0.1686(3)
C5 C 0.1305(2) 0.3049(2) 0.1818(2)
N2 N 0.1233(2) 0.1308(2) -0.0013(1)
C6 C 0.1216(2) 0.2122(2) -0.0320(2)
C7 C 0.1153(2) 0.2287(2) -0.1202(2)
C8 C 0.1090(3) 0.1601(3) -0.1762(2)
C9 C 0.1112(2) 0.0777(3) -0.1440(2)
C10 C 0.1184(2) 0.0649(2) -0.0567(2)
H1 H 0.1403(26) 0.3845(25) -0.0500(26)
H2 H 0.1433(30) 0.4765(29) 0.0791(29)
H3 H 0.1442(27) 0.4261(26) 0.2158(27)
H4 H 0.1319(23) 0.2819(22) 0.2416(23)
H5 H 0.1156(25) 0.2896(25) -0.1408(25)
H6 H 0.1050(25) 0.1711(25) -0.2350(25)
H7 H 0.1155(27) 0.0320(30) -0.1803(28)
H8 H 0.1151(20) 0.0115(21) -0.0339(21)
N1C N 0.1160(2) 0.1252(2) 0.2489(1)
C1C C 0.0345(2) 0.1261(2) 0.2792(2)
C2C C 0.0177(2) 0.1323(2) 0.3670(2)
C3C C 0.0861(3) 0.1385(3) 0.4237(2)
C4C C 0.1686(3) 0.1386(3) 0.3919(2)
C5C C 0.1818(2) 0.1305(2) 0.3049(2)
H4C H 0.2416(23) 0.1319(23) 0.2819(22)
H3C H 0.2158(27) 0.1442(27) 0.4261(26)
H2C H 0.0791(29) 0.1433(30) 0.4765(29)
H1C H -0.0500(26) 0.1403(26) 0.3845(25)
C6C C -0.0320(2) 0.1216(2) 0.2122(2)
N2C N -0.0013(1) 0.1233(2) 0.1308(2)
N1H N 0.2489(1) 0.1160(2) 0.1252(2)
C1H C 0.2792(2) 0.0345(2) 0.1261(2)
C2H C 0.3670(2) 0.0177(2) 0.1323(2)
C3H C 0.4237(2) 0.0861(3) 0.1385(3)
C4H C 0.3919(2) 0.1686(3) 0.1386(3)
C5H C 0.3049(2) 0.1818(2) 0.1305(2)
H4H H 0.2819(22) 0.2416(23) 0.1319(23)
H3H H 0.4261(26) 0.2158(27) 0.1442(27)
H2H H 0.4765(29) 0.0791(29) 0.1433(30)
H1H H 0.3845(25) -0.0500(26) 0.1403(26)
C6H C 0.2122(2) -0.0320(2) 0.1216(2)
N2H N 0.1308(2) -0.0013(1) 0.1233(2)
C10H C 0.0649(2) -0.0567(2) 0.1184(2)
C9H C 0.0777(3) -0.1440(2) 0.1112(2)
C8H C 0.1601(3) -0.1762(2) 0.1090(3)
C7H C 0.2287(2) -0.1202(2) 0.1153(2)
H5H H 0.2896(25) -0.1408(25) 0.1156(25)
H6H H 0.1711(25) -0.2350(25) 0.1050(25)
H7H H 0.0320(30) -0.1803(28) 0.1155(27)
H8H H 0.0115(21) -0.0339(21) 0.1151(20)
C10C C -0.0567(2) 0.1184(2) 0.0649(2)
C9C C -0.1440(2) 0.1112(2) 0.0777(3)
C8C C -0.1762(2) 0.1090(3) 0.1601(3)
C7C C -0.1202(2) 0.1153(2) 0.2287(2)
H5C H -0.1408(25) 0.1156(25) 0.2896(25)
H6C H -0.2350(25) 0.1050(25) 0.1711(25)
H7C H -0.1803(28) 0.1155(27) 0.0320(30)
H8C H -0.0339(21) 0.1151(20) 0.0115(21)
F5? F -0.0541(11) 0.3051(11) 0.1244(13)
F6? F -0.1151(7) 0.3033(7) 0.2006(7)
F7? F -0.1431(6) 0.4486(6) 0.0548(6)
F8? F -0.1284(17) 0.2941(15) 0.0476(15)
loop_
_geom_bond_atom_site_label_1
_geom_bond_atom_site_label_2
_geom_bond_site_symmetry_1
_geom_bond_site_symmetry_2
Co1 N1 1_555 1_555
N1 C1 1_555 1_555
C1 C2 1_555 1_555
C2 C3 1_555 1_555
C3 C4 1_555 1_555
C4 C5 1_555 1_555
C5 N1 1_555 1_555
N2 Co1 1_555 1_555
C6 C1 1_555 1_555
C7 C6 1_555 1_555
C8 C7 1_555 1_555
C9 C8 1_555 1_555
C10 N2 1_555 1_555
Cr1 O3 1_555 1_555
Na1 O1 1_555 1_555
O1 C11 1_555 1_555
O2 Na1 1_555 1_555
C11 C12 1_555 1_555
C12 O2 1_555 1_555
O3 C11 1_555 1_555
O4 Cr1 1_555 1_555
P1 F1 1_555 1_555
F2 P1 1_555 1_555
F3 P1 1_555 1_555
F4 P1 1_555 1_555
H1 C2 1_555 1_555
H2 C3 1_555 1_555
H3 C4 1_555 1_555
H4 C5 1_555 1_555
H5 C7 1_555 1_555
H6 C8 1_555 1_555
H7 C9 1_555 1_555
H8 C10 1_555 1_555
N1C Co1 1_555 1_555
C1C N1C 1_555 1_555
C2C C1C 1_555 1_555
C3C C2C 1_555 1_555
C4C C3C 1_555 1_555
C5C N1C 1_555 1_555
H4C C5C 1_555 1_555
H3C C4C 1_555 1_555
H2C C3C 1_555 1_555
H1C C2C 1_555 1_555
C6C C1C 1_555 1_555
N2C Co1 1_555 1_555
N1H Co1 1_555 1_555
C1H N1H 1_555 1_555
C2H C1H 1_555 1_555
C3H C2H 1_555 1_555
C4H C3H 1_555 1_555
C5H N1H 1_555 1_555
H4H C5H 1_555 1_555
H3H C4H 1_555 1_555
H2H C3H 1_555 1_555
H1H C2H 1_555 1_555
C6H C1H 1_555 1_555
N2H Co1 1_555 1_555
C10H N2H 1_555 1_555
C9H C10H 1_555 1_555
C8H C9H 1_555 1_555
C7H C6H 1_555 1_555
H5H C7H 1_555 1_555
H6H C8H 1_555 1_555
H7H C9H 1_555 1_555
H8H C10H 1_555 1_555
C10C N2C 1_555 1_555
C9C C10C 1_555 1_555
C8C C9C 1_555 1_555
C7C C6C 1_555 1_555
H5C C7C 1_555 1_555
H6C C8C 1_555 1_555
H7C C9C 1_555 1_555
H8C C10C 1_555 1_555
O1E Na1 1_555 1_555
O2E Na1 1_555 1_555
O1J Na1 1_555 1_555
O2J Na1 1_555 1_555
O3G Cr1 1_555 1_555
C11G O3G 1_555 1_555
O1G C11G 1_555 1_555
Na1G O1G 1_555 1_555
O2G Na1G 1_555 1_555
C12G C11G 1_555 1_555
O4G Cr1 1_555 1_555
O3I Cr1 1_555 1_555
C11I O3I 1_555 1_555
O1I C11I 1_555 1_555
Na1I O1I 1_555 1_555
O2I Na1I 1_555 1_555
C12I C11I 1_555 1_555
O4I Cr1 1_555 1_555
F1G P1 1_555 1_555
F1I P1 1_555 1_555
F2G P1 1_555 1_555
F2I P1 1_555 1_555
N2 C6 1_555 1_555
C9 C10 1_555 1_555
C12 O4 1_555 1_555
C4C C5C 1_555 1_555
C6C N2C 1_555 1_555
C4H C5H 1_555 1_555
C6H N2H 1_555 1_555
C8H C7H 1_555 1_555
C8C C7C 1_555 1_555
O2G C12G 1_555 1_555
C12G O4G 1_555 1_555
O2I C12I 1_555 1_555
C12I O4I 1_555 1_555

#END
