
#######################################################################
#
#                 Cambridge Crystallographic Data Centre
#                                CCDC 
#
#######################################################################
#
# If this CIF has been generated from an entry in the Cambridge 
# Structural Database, then it will include bibliographic, chemical, 
# crystal, experimental, refinement or atomic coordinate data resulting 
# from the CCDC's data processing and validation procedures.
#
#######################################################################

data_ZUQVUC
_symmetry_cell_setting           orthorhombic
_symmetry_space_group_name_H-M   'P 21 21 21'
_symmetry_Int_Tables_number      19
_space_group_name_Hall           'P 2ac 2ab'
loop_
_symmetry_equiv_pos_site_id
_symmetry_equiv_pos_as_xyz
1 x,y,z
2 1/2-x,-y,1/2+z
3 1/2+x,1/2-y,-z
4 -x,1/2+y,1/2-z
_cell_length_a                   16.238(4)
_cell_length_b                   16.225(4)
_cell_length_c                   18.371(5)
_cell_angle_alpha                90
_cell_angle_beta                 90
_cell_angle_gamma                90
_cell_volume                     4840.05
loop_
_atom_site_label
_atom_site_type_symbol
_atom_site_fract_x
_atom_site_fract_y
_atom_site_fract_z
Co1 Co 0.5821(1) 0.1188(1) 0.9192(1)
S1 S 0.5726(2) 0.2562(2) 0.9181(2)
S2 S 0.4482(2) 0.1107(2) 0.8908(2)
S3 S 0.5591(3) 0.1121(2) 1.0399(2)
S4 S 0.7186(2) 0.1333(3) 0.9440(2)
S5 S 0.6209(2) 0.1284(2) 0.8023(1)
S6 S 0.5912(2) -0.0197(2) 0.9124(2)
C1 C 0.4810(6) 0.2780(7) 0.8806(7)
C2 C 0.4171(7) 0.2061(7) 0.8691(7)
O1 O 0.4598(5) 0.3489(5) 0.8621(8)
O2 O 0.3503(5) 0.2267(5) 0.8434(5)
C3 C 0.6611(8) 0.1152(7) 1.0791(6)
C4 C 0.7165(11) 0.1164(9) 1.0156(12)
O3 O 0.6735(9) 0.1155(7) 1.1453(5)
O4 O 0.8024(7) 0.1043(9) 1.0556(6)
C5 C 0.6384(7) 0.0298(6) 0.7735(5)
C6 C 0.6263(8) -0.0423(7) 0.8273(6)
O5 O 0.6590(6) 0.0128(4) 0.7112(4)
O6 O 0.6444(7) -0.1108(5) 0.8051(5)
Na1 Na 0.3261(3) 0.3721(3) 0.8204(2)
Na1C Na 0.6739(3) -0.1279(3) 0.6796(2)
O1C O 0.5402(5) -0.1511(5) 0.6379(8)
O2C O 0.6497(5) -0.2733(5) 0.6566(5)
O3A O 0.8265(9) -0.1155(7) 0.6453(5)
O4A O 0.6976(7) -0.1043(9) 0.5556(6)
Na1B Na 0.8261(3) 0.1279(3) 1.1796(2)
Ni1 Ni 0.8602(1) 0.6448(1) 0.8570(1)
N1 N 0.8788(5) 0.6526(5) 0.7448(5)
C7 C 0.8263(8) 0.6642(7) 0.6910(6)
C8 C 0.8504(10) 0.6730(8) 0.6200(6)
C9 C 0.9322(10) 0.6681(7) 0.6022(7)
C10 C 1.0789(8) 0.6492(7) 0.6443(7)
C11 C 1.1290(8) 0.6354(7) 0.6971(7)
C12 C 1.1566(7) 0.6113(7) 0.8285(7)
C13 C 1.1234(7) 0.6066(8) 0.8977(7)
C14 C 1.0394(6) 0.6163(7) 0.9080(6)
N2 N 0.9863(5) 0.6309(5) 0.8553(4)
C15 C 1.0206(6) 0.6341(6) 0.7862(6)
C16 C 1.1027(7) 0.6285(7) 0.7701(7)
C17 C 0.9594(6) 0.6483(6) 0.7275(5)
C18 C 0.9916(7) 0.6558(6) 0.6562(6)
N3 N 0.7309(5) 0.6465(5) 0.8478(5)
C19 C 0.6819(8) 0.7094(8) 0.8501(7)
C20 C 0.5950(9) 0.7011(9) 0.8369(8)
C21 C 0.5640(7) 0.6277(9) 0.8209(7)
C22 C 0.5897(9) 0.4779(9) 0.8036(7)
C23 C 0.6397(9) 0.4121(8) 0.8047(7)
C24 C 0.7806(11) 0.3590(9) 0.8225(8)
C25 C 0.8610(11) 0.3751(8) 0.8407(10)
C26 C 0.8885(8) 0.4558(7) 0.8521(9)
N4 N 0.8374(5) 0.5183(5) 0.8486(5)
C27 C 0.7569(8) 0.5023(7) 0.8486(5)
C28 C 0.7255(9) 0.4238(8) 0.8206(7)
C29 C 0.6993(7) 0.5708(7) 0.8332(5)
C30 C 0.6167(7) 0.5577(8) 0.8185(7)
N5 N 0.8624(5) 0.7736(5) 0.8707(5)
C31 C 0.8642(8) 0.8323(6) 0.8208(6)
C32 C 0.8583(10) 0.9147(7) 0.8381(8)
C33 C 0.8516(9) 0.9376(7) 0.9080(8)
C34 C 0.8519(9) 0.8973(9) 1.0382(8)
C35 C 0.8536(8) 0.8374(10) 1.0874(7)
C36 C 0.8592(10) 0.6835(11) 1.1181(7)
C37 C 0.8623(11) 0.6053(10) 1.0933(8)
C38 C 0.8624(9) 0.5925(8) 1.0195(6)
N6 N 0.8581(5) 0.6517(5) 0.9708(4)
C39 C 0.8591(7) 0.7316(7) 0.9943(6)
C40 C 0.8600(8) 0.7508(9) 1.0688(7)
C41 C 0.8601(7) 0.7952(7) 0.9426(6)
C42 C 0.8527(7) 0.8789(7) 0.9639(6)
H1 H 0.7704(8) 0.6664(7) 0.7018(6)
H2 H 0.8113(10) 0.6824(8) 0.5839(6)
H3 H 0.9483(10) 0.6729(7) 0.5538(7)
H4 H 1.0995(8) 0.6551(7) 0.5974(7)
H5 H 1.1848(8) 0.6296(7) 0.6867(7)
H6 H 1.2126(7) 0.6034(7) 0.8206(7)
H7 H 1.1576(7) 0.5969(8) 0.9374(7)
H8 H 1.0192(6) 0.6123(7) 0.9553(6)
H9 H 0.7034(8) 0.7612(8) 0.8604(7)
H10 H 0.5607(9) 0.7469(9) 0.8397(8)
H11 H 0.5081(7) 0.6220(9) 0.8112(7)
H12 H 0.5344(9) 0.4699(9) 0.7925(7)
H13 H 0.6191(9) 0.3596(8) 0.7953(7)
H14 H 0.7636(11) 0.3057(9) 0.8117(8)
H15 H 0.8979(11) 0.3315(8) 0.8455(10)
H16 H 0.9438(8) 0.4652(7) 0.8623(9)
H17 H 0.8697(8) 0.8174(6) 0.7721(6)
H18 H 0.8589(10) 0.9542(7) 0.8015(8)
H19 H 0.8462(9) 0.9932(7) 0.9195(8)
H20 H 0.8501(9) 0.9519(9) 1.0533(8)
H21 H 0.8506(8) 0.8517(10) 1.1363(7)
H22 H 0.8566(10) 0.6933(11) 1.1679(7)
H23 H 0.8642(11) 0.5611(10) 1.1254(8)
H24 H 0.8657(9) 0.5385(8) 1.0029(6)
C43 C 0.5990(22) 0.6197(11) 1.0923(9)
C44 C 0.6133(24) 0.5449(15) 1.1369(18)
O7 O 0.5852(32) 0.6701(21) 1.1379(19)
C45 C 0.6108(32) 0.6536(27) 1.0187(14)
loop_
_geom_bond_atom_site_label_1
_geom_bond_atom_site_label_2
_geom_bond_site_symmetry_1
_geom_bond_site_symmetry_2
Co1 S1 1_555 1_555
S1 C1 1_555 1_555
S2 Co1 1_555 1_555
S3 Co1 1_555 1_555
S4 Co1 1_555 1_555
S5 Co1 1_555 1_555
S6 Co1 1_555 1_555
C1 C2 1_555 1_555
C2 S2 1_555 1_555
O1 C1 1_555 1_555
O2 C2 1_555 1_555
C3 S3 1_555 1_555
C4 S4 1_555 1_555
O3 C3 1_555 1_555
O4 C4 1_555 1_555
C5 S5 1_555 1_555
C6 S6 1_555 1_555
O5 C5 1_555 1_555
O6 C6 1_555 1_555
Na1 O1 1_555 1_555
Ni1 N1 1_555 1_555
N1 C7 1_555 1_555
C7 C8 1_555 1_555
C8 C9 1_555 1_555
C9 C18 1_555 1_555
C10 C11 1_555 1_555
C11 C16 1_555 1_555
C12 C13 1_555 1_555
C13 C14 1_555 1_555
C14 N2 1_555 1_555
N2 Ni1 1_555 1_555
C15 N2 1_555 1_555
C16 C12 1_555 1_555
C17 N1 1_555 1_555
C18 C10 1_555 1_555
N3 Ni1 1_555 1_555
C19 N3 1_555 1_555
C20 C19 1_555 1_555
C21 C20 1_555 1_555
C22 C23 1_555 1_555
C23 C28 1_555 1_555
C24 C25 1_555 1_555
C25 C26 1_555 1_555
C26 N4 1_555 1_555
N4 Ni1 1_555 1_555
C27 N4 1_555 1_555
C28 C24 1_555 1_555
C29 N3 1_555 1_555
C30 C21 1_555 1_555
N5 Ni1 1_555 1_555
C31 N5 1_555 1_555
C32 C31 1_555 1_555
C33 C32 1_555 1_555
C34 C35 1_555 1_555
C35 C40 1_555 1_555
C36 C37 1_555 1_555
C37 C38 1_555 1_555
C38 N6 1_555 1_555
N6 Ni1 1_555 1_555
C39 N6 1_555 1_555
C40 C36 1_555 1_555
C41 N5 1_555 1_555
C42 C33 1_555 1_555
C43 C44 1_555 1_555
O7 C43 1_555 1_555
C45 C43 1_555 1_555
H1 C7 1_555 1_555
H2 C8 1_555 1_555
H3 C9 1_555 1_555
H4 C10 1_555 1_555
H5 C11 1_555 1_555
H6 C12 1_555 1_555
H7 C13 1_555 1_555
H8 C14 1_555 1_555
H9 C19 1_555 1_555
H10 C20 1_555 1_555
H11 C21 1_555 1_555
H12 C22 1_555 1_555
H13 C23 1_555 1_555
H14 C24 1_555 1_555
H15 C25 1_555 1_555
H16 C26 1_555 1_555
H17 C31 1_555 1_555
H18 C32 1_555 1_555
H19 C33 1_555 1_555
H20 C34 1_555 1_555
H21 C35 1_555 1_555
H22 C36 1_555 1_555
H23 C37 1_555 1_555
H24 C38 1_555 1_555
Na1C O5 1_555 1_555
O1C Na1C 1_555 1_555
O2C Na1C 1_555 1_555
O3A Na1C 1_555 1_555
O4A Na1C 1_555 1_555
Na1B O3 1_555 1_555
O2 Na1 1_555 1_555
C3 C4 1_555 1_555
O4 Na1B 1_555 1_555
C5 C6 1_555 1_555
O6 Na1C 1_555 1_555
C15 C17 1_555 1_555
C15 C16 1_555 1_555
C17 C18 1_555 1_555
C22 C30 1_555 1_555
C27 C29 1_555 1_555
C27 C28 1_555 1_555
C29 C30 1_555 1_555
C34 C42 1_555 1_555
C39 C41 1_555 1_555
C39 C40 1_555 1_555
C41 C42 1_555 1_555

#END
