
#######################################################################
#
#                 Cambridge Crystallographic Data Centre
#                                CCDC 
#
#######################################################################
#
# If this CIF has been generated from an entry in the Cambridge 
# Structural Database, then it will include bibliographic, chemical, 
# crystal, experimental, refinement or atomic coordinate data resulting 
# from the CCDC's data processing and validation procedures.
#
#######################################################################

data_ZUQVAI
_symmetry_cell_setting           cubic
_symmetry_space_group_name_H-M   'P 21 3'
_symmetry_Int_Tables_number      198
_space_group_name_Hall           'P 2ac 2ab 3'
loop_
_symmetry_equiv_pos_site_id
_symmetry_equiv_pos_as_xyz
1 x,y,z
2 1/2-x,-y,1/2+z
3 1/2+x,1/2-y,-z
4 z,x,y
5 -x,1/2+y,1/2-z
6 1/2-z,-x,1/2+y
7 1/2+z,1/2-x,-y
8 -z,1/2+x,1/2-y
9 y,z,x
10 1/2+y,1/2-z,-x
11 -y,1/2+z,1/2-x
12 1/2-y,-z,1/2+x
_cell_length_a                   15.523(4)
_cell_length_b                   15.523(4)
_cell_length_c                   15.523(4)
_cell_angle_alpha                90
_cell_angle_beta                 90
_cell_angle_gamma                90
_cell_volume                     3740.48
loop_
_atom_site_label
_atom_site_type_symbol
_atom_site_fract_x
_atom_site_fract_y
_atom_site_fract_z
Cr1 Cr 0.8740(1) 0.8740(1) 0.8740(1)
N1 N 0.8713(3) 0.7425(3) 0.8851(3)
C1 C 0.8719(4) 0.7123(4) 0.9670(4)
C2 C 0.8682(4) 0.6250(4) 0.9840(5)
C3 C 0.8641(5) 0.5676(4) 0.9158(6)
C4 C 0.8639(5) 0.5983(5) 0.8325(5)
C5 C 0.8687(4) 0.6863(4) 0.8199(5)
N2 N 0.8770(3) 0.8609(3) 1.0051(3)
C6 C 0.8763(4) 0.7785(4) 1.0344(4)
C7 C 0.8792(5) 0.7609(4) 1.1219(4)
C8 C 0.8855(5) 0.8286(6) 1.1793(4)
C9 C 0.8864(5) 0.9118(5) 1.1486(4)
C10 C 0.8825(5) 0.9254(5) 1.0619(4)
H1 H 0.8683(4) 0.6050(4) 1.0405(5)
H2 H 0.8616(5) 0.5087(4) 0.9261(6)
H3 H 0.8605(5) 0.5608(5) 0.7859(5)
H4 H 0.8702(4) 0.7073(4) 0.7638(5)
H5 H 0.8769(5) 0.7044(4) 1.1416(4)
H6 H 0.8892(5) 0.8180(6) 1.2382(4)
H7 H 0.8895(2) 0.9581(5) 1.1865(4)
H8 H 0.8837(5) 0.9817(5) 1.0415(4)
N1C N 0.8851(3) 0.8713(3) 0.7425(3)
C1C C 0.9670(4) 0.8719(4) 0.7123(4)
C2C C 0.9840(5) 0.8682(4) 0.6250(4)
C3C C 0.9158(6) 0.8641(5) 0.5676(4)
C4C C 0.8325(5) 0.8639(5) 0.5983(5)
C5C C 0.8199(5) 0.8687(4) 0.6863(4)
H4C H 0.7638(5) 0.8702(4) 0.7073(4)
H3C H 0.7859(5) 0.8605(5) 0.5608(5)
H2C H 0.9261(6) 0.8616(5) 0.5087(4)
H1C H 1.0405(5) 0.8683(4) 0.6050(4)
C6C C 1.0344(4) 0.8763(4) 0.7785(4)
N2C N 1.0051(3) 0.8770(3) 0.8609(3)
N1H N 0.7425(3) 0.8851(3) 0.8713(3)
C1H C 0.7123(4) 0.9670(4) 0.8719(4)
C2H C 0.6250(4) 0.9840(5) 0.8682(4)
C3H C 0.5676(4) 0.9158(6) 0.8641(5)
C4H C 0.5983(5) 0.8325(5) 0.8639(5)
C5H C 0.6863(4) 0.8199(5) 0.8687(4)
H4H H 0.7073(4) 0.7638(5) 0.8702(4)
H3H H 0.5608(5) 0.7859(5) 0.8605(5)
H2H H 0.5087(4) 0.9261(6) 0.8616(5)
H1H H 0.6050(4) 1.0405(5) 0.8683(4)
C6H C 0.7785(4) 1.0344(4) 0.8763(4)
N2H N 0.8609(3) 1.0051(3) 0.8770(3)
C10H C 0.9254(5) 1.0619(4) 0.8825(5)
C9H C 0.9118(5) 1.1486(4) 0.8864(5)
C8H C 0.8286(6) 1.1793(4) 0.8855(5)
C7H C 0.7609(4) 1.1219(4) 0.8792(5)
H5H H 0.7044(4) 1.1416(4) 0.8769(5)
H6H H 0.8180(6) 1.2382(4) 0.8892(5)
H7H H 0.9581(5) 1.1865(4) 0.8895(2)
H8H H 0.9817(5) 1.0415(4) 0.8837(5)
C10C C 1.0619(4) 0.8825(5) 0.9254(5)
C9C C 1.1486(4) 0.8864(5) 0.9118(5)
C8C C 1.1793(4) 0.8855(5) 0.8286(6)
C7C C 1.1219(4) 0.8792(5) 0.7609(4)
H5C H 1.1416(4) 0.8769(5) 0.7044(4)
H6C H 1.2382(4) 0.8892(5) 0.8180(6)
H7C H 1.1865(4) 0.8895(2) 0.9581(5)
H8C H 1.0415(4) 0.8837(5) 0.9817(5)
Na1 Na 0.8460(2) 0.3460(2) 1.1540(2)
Cr2 Cr 0.6033(1) 0.3967(1) 0.8967(1)
O1 O 0.7290(3) 0.3867(3) 0.9075(3)
O2 O 0.6057(3) 0.3912(3) 1.0226(3)
C11 C 0.7559(4) 0.3741(4) 0.9847(4)
C12 C 0.6802(4) 0.3750(5) 1.0547(4)
O3 O 0.8298(3) 0.3638(4) 1.0065(3)
O4 O 0.6977(3) 0.3592(3) 1.1292(3)
O1E O 0.5925(3) 0.2710(3) 0.8867(3)
C11E C 0.5153(4) 0.2441(4) 0.8741(4)
C12E C 0.4453(4) 0.3198(4) 0.8750(5)
O2E O 0.4774(3) 0.3943(3) 0.8912(3)
O1J O 0.6133(3) 0.4075(3) 0.7710(3)
C11J C 0.6259(4) 0.4847(4) 0.7441(4)
C12J C 0.6250(5) 0.5547(4) 0.8198(4)
O2J O 0.6088(3) 0.5226(3) 0.8943(3)
O3G O 0.9935(3) 0.3298(3) 1.1362(4)
O4G O 0.8708(3) 0.1977(3) 1.1408(3)
O3I O 0.8638(4) 0.4935(3) 1.1702(3)
O4I O 0.8592(3) 0.3708(3) 1.3023(3)
O4J O 0.6408(3) 0.6292(3) 0.8023(3)
Na1J Na 0.6540(2) 0.6540(2) 0.6540(2)
O3J O 0.6362(4) 0.5065(3) 0.6702(3)
O4E O 0.3708(3) 0.3023(3) 0.8592(3)
Na1E Na 0.3460(2) 0.1540(2) 0.8460(2)
O3E O 0.4935(3) 0.1702(3) 0.8638(4)
Cl1 Cl 1.1246(1) 0.6246(1) 0.8754(1)
O5 O 1.0699(11) 0.5699(11) 0.9301(11)
O6 O 1.1619(12) 0.5698(10) 0.8131(10)
O6G O 1.1869(10) 0.6619(12) 0.9302(10)
O6I O 1.0698(10) 0.6869(10) 0.8381(12)
O7? O 1.1779(12) 0.6779(12) 0.8221(12)
O8? O 1.0820(11) 0.5615(9) 0.8215(10)
loop_
_geom_bond_atom_site_label_1
_geom_bond_atom_site_label_2
_geom_bond_site_symmetry_1
_geom_bond_site_symmetry_2
Cr1 N1 1_555 1_555
N1 C1 1_555 1_555
C1 C2 1_555 1_555
C2 C3 1_555 1_555
C3 C4 1_555 1_555
C4 C5 1_555 1_555
C5 N1 1_555 1_555
N2 Cr1 1_555 1_555
C6 C1 1_555 1_555
C7 C6 1_555 1_555
C8 C7 1_555 1_555
C9 C8 1_555 1_555
C10 N2 1_555 1_555
Na1 O3 1_555 1_555
Cr2 O1 1_555 1_555
O1 C11 1_555 1_555
O2 Cr2 1_555 1_555
C11 C12 1_555 1_555
C12 O2 1_555 1_555
O3 C11 1_555 1_555
O4 Na1 1_555 1_555
Cl1 O5 1_555 1_555
O6 Cl1 1_555 1_555
H1 C2 1_555 1_555
H2 C3 1_555 1_555
H3 C4 1_555 1_555
H4 C5 1_555 1_555
H5 C7 1_555 1_555
H6 C8 1_555 1_555
H7 C9 1_555 1_555
H8 C10 1_555 1_555
N1C Cr1 1_555 1_555
C1C N1C 1_555 1_555
C2C C1C 1_555 1_555
C3C C2C 1_555 1_555
C4C C3C 1_555 1_555
C5C N1C 1_555 1_555
H4C C5C 1_555 1_555
H3C C4C 1_555 1_555
H2C C3C 1_555 1_555
H1C C2C 1_555 1_555
C6C C1C 1_555 1_555
N2C Cr1 1_555 1_555
N1H Cr1 1_555 1_555
C1H N1H 1_555 1_555
C2H C1H 1_555 1_555
C3H C2H 1_555 1_555
C4H C3H 1_555 1_555
C5H N1H 1_555 1_555
H4H C5H 1_555 1_555
H3H C4H 1_555 1_555
H2H C3H 1_555 1_555
H1H C2H 1_555 1_555
C6H C1H 1_555 1_555
N2H Cr1 1_555 1_555
C10H N2H 1_555 1_555
C9H C10H 1_555 1_555
C8H C9H 1_555 1_555
C7H C6H 1_555 1_555
H5H C7H 1_555 1_555
H6H C8H 1_555 1_555
H7H C9H 1_555 1_555
H8H C10H 1_555 1_555
C10C N2C 1_555 1_555
C9C C10C 1_555 1_555
C8C C9C 1_555 1_555
C7C C6C 1_555 1_555
H5C C7C 1_555 1_555
H6C C8C 1_555 1_555
H7C C9C 1_555 1_555
H8C C10C 1_555 1_555
O1E Cr2 1_555 1_555
C11E O1E 1_555 1_555
C12E C11E 1_555 1_555
O2E Cr2 1_555 1_555
O1J Cr2 1_555 1_555
C11J O1J 1_555 1_555
C12J C11J 1_555 1_555
O2J Cr2 1_555 1_555
O3G Na1 1_555 1_555
O4G Na1 1_555 1_555
O3I Na1 1_555 1_555
O4I Na1 1_555 1_555
O4J C12J 1_555 1_555
Na1J O4J 1_555 1_555
O3J C11J 1_555 1_555
O4E C12E 1_555 1_555
Na1E O4E 1_555 1_555
O3E C11E 1_555 1_555
O6G Cl1 1_555 1_555
O6I Cl1 1_555 1_555
N2 C6 1_555 1_555
C9 C10 1_555 1_555
C12 O4 1_555 1_555
C4C C5C 1_555 1_555
C6C N2C 1_555 1_555
C4H C5H 1_555 1_555
C6H N2H 1_555 1_555
C8H C7H 1_555 1_555
C8C C7C 1_555 1_555
C12E O2E 1_555 1_555
C12J O2J 1_555 1_555
Na1J O3J 1_555 1_555
Na1E O3E 1_555 1_555

#END
