
#######################################################################
#
#                 Cambridge Crystallographic Data Centre
#                                CCDC 
#
#######################################################################
#
# If this CIF has been generated from an entry in the Cambridge 
# Structural Database, then it will include bibliographic, chemical, 
# crystal, experimental, refinement or atomic coordinate data resulting 
# from the CCDC's data processing and validation procedures.
#
#######################################################################

data_ZUQWEP
_symmetry_cell_setting           triclinic
_symmetry_space_group_name_H-M   'P -1'
_symmetry_Int_Tables_number      2
_space_group_name_Hall           '-P 1'
loop_
_symmetry_equiv_pos_site_id
_symmetry_equiv_pos_as_xyz
1 x,y,z
2 -x,-y,-z
_cell_length_a                   9.9830(2)
_cell_length_b                   10.9338(2)
_cell_length_c                   13.1074(2)
_cell_angle_alpha                77.3910(10)
_cell_angle_beta                 73.6930(10)
_cell_angle_gamma                70.8860(10)
_cell_volume                     1284.79
loop_
_atom_site_label
_atom_site_type_symbol
_atom_site_fract_x
_atom_site_fract_y
_atom_site_fract_z
C1 C 1.1070(3) 0.0073(2) -0.18106(19)
H1 H 1.1510 -0.0668 -0.1388
N1 N 1.07054(19) 0.11226(17) -0.35462(14)
C2 C -0.4724(2) 1.4804(2) 0.37078(15)
C3 C -0.1817(2) 1.19423(19) 0.47292(15)
C4 C -0.5839(2) 1.4229(2) 0.38744(16)
H2 H -0.6736 1.4736 0.3736
C5 C 0.5274(3) 0.6999(3) -0.10612(19)
H3 H 0.4731 0.7488 -0.1560
C6 C -0.5618(2) 1.2904(2) 0.42451(16)
C7 C 0.2557(2) 1.0175(2) 0.14605(17)
C8 C 0.4094(2) 0.8818(2) 0.00338(18)
C9 C -0.4289(2) 1.2162(2) 0.44872(15)
H4 H -0.4130 1.1271 0.4721
C10 C -0.6800(2) 1.2272(2) 0.44149(16)
C11 C 0.0869(2) 1.2320(2) 0.24080(18)
H5 H 0.0310 1.3065 0.2723
C12 C -0.3196(2) 1.27382(19) 0.43842(15)
C13 C 0.2281(2) 1.0190(2) 0.25534(17)
H6 H 0.2689 0.9432 0.2977
C14 C 0.9785(2) 0.2156(2) -0.30946(18)
H7 H 0.9312 0.2863 -0.3529
C15 C 0.8028(3) 0.3686(3) -0.0645(2)
C16 C 0.6907(3) 0.5534(2) 0.04048(19)
H8 H 0.7453 0.5045 0.0903
C17 C -0.3402(2) 1.40578(19) 0.39707(16)
H9 H -0.2661 1.4441 0.3870
C18 C 0.5128(3) 0.7493(2) -0.01360(17)
C19 C -0.5004(2) 1.6219(2) 0.32944(16)
C20 C 0.1061(3) 1.2368(2) 0.13252(19)
H10 H 0.0613 1.3129 0.0924
C21 C 0.9500(2) 0.2226(2) -0.20110(18)
C22 C 1.0149(3) 0.1156(2) -0.13474(19)
H11 H 0.9970 0.1167 -0.0613
C23 C 0.1917(3) 1.1289(2) 0.08247(18)
H12 H 0.2059 1.1309 0.0090
C24 C 0.5970(3) 0.6755(2) 0.05875(18)
H13 H 0.5903 0.7086 0.1202
C25 C 0.7039(3) 0.5033(2) -0.05154(18)
C26 C 0.6218(3) 0.5788(3) -0.1247(2)
H14 H 0.6307 0.5470 -0.1873
Co1 Co 0.11607(3) 1.12111(3) 0.47394(2)
N2 N 0.14571(19) 1.12396(17) 0.30344(14)
N3 N 0.3471(2) 0.90029(18) 0.10713(14)
H15 H 0.3653 0.8329 0.1547
N4 N 0.8566(3) 0.3409(2) -0.16607(16)
H16 H 0.8306 0.4032 -0.2156
C27 C 1.1332(2) 0.0097(2) -0.29007(18)
H17 H 1.1975 -0.0633 -0.3203
O1 O -0.16641(16) 1.07524(13) 0.50624(12)
O2 O -0.08718(14) 1.24951(14) 0.46678(12)
O3 O -0.61092(17) 1.68764(15) 0.29985(13)
O4 O -0.39314(18) 1.66901(16) 0.32668(13)
O5 O -0.81082(16) 1.29520(15) 0.45748(14)
O6 O -0.64829(16) 1.10639(14) 0.44077(13)
O7 O 0.3836(2) 0.96590(17) -0.07206(13)
O8 O 0.8273(3) 0.2880(2) 0.01373(15)
H18 H -0.414(3) 1.748(3) 0.309(2)
N1_2 N 0.07054(19) 1.11226(17) 0.64538(14)
Co1_2 Co -0.88393(3) 1.12111(3) 0.47394(2)
Co1_3 Co 1.11607(3) 0.12111(3) -0.52606(2)
Co1A Co -0.11607(3) 0.87889(3) 0.52606(2)
O1A O 0.16641(16) 0.92476(13) 0.49376(12)
O5_2 O 0.18918(16) 1.29520(15) 0.45748(14)
O6_2 O 0.35171(16) 1.10639(14) 0.44077(13)
O9 O 0.5559(2) 0.92406(18) 0.28999(18)
H19 H 0.576(4) 0.963(3) 0.226(3)
H20 H 0.512(4) 0.975(3) 0.326(3)
O10 O 0.9896(3) 0.5143(2) 0.3661(2)
loop_
_geom_bond_atom_site_label_1
_geom_bond_atom_site_label_2
_geom_bond_site_symmetry_1
_geom_bond_site_symmetry_2
C1 H1 1_555 1_555
N1 C14 1_555 1_555
C2 C4 1_555 1_555
C3 C12 1_555 1_555
C4 H2 1_555 1_555
C5 H3 1_555 1_555
C6 C4 1_555 1_555
C7 C13 1_555 1_555
C8 C18 1_555 1_555
C9 C6 1_555 1_555
H4 C9 1_555 1_555
C10 C6 1_555 1_555
C11 H5 1_555 1_555
C12 C9 1_555 1_555
C13 H6 1_555 1_555
C14 H7 1_555 1_555
C15 C25 1_555 1_555
C16 H8 1_555 1_555
C17 C2 1_555 1_555
H9 C17 1_555 1_555
C18 C5 1_555 1_555
C19 C2 1_555 1_555
C20 C11 1_555 1_555
H10 C20 1_555 1_555
C21 C14 1_555 1_555
C22 C1 1_555 1_555
H11 C22 1_555 1_555
C23 C7 1_555 1_555
H12 C23 1_555 1_555
C24 C16 1_555 1_555
H13 C24 1_555 1_555
C25 C16 1_555 1_555
C26 C5 1_555 1_555
H14 C26 1_555 1_555
Co1 N2 1_555 1_555
N2 C11 1_555 1_555
N3 C7 1_555 1_555
H15 N3 1_555 1_555
N4 C15 1_555 1_555
H16 N4 1_555 1_555
C27 C1 1_555 1_555
H17 C27 1_555 1_555
O1 C3 1_555 1_555
O2 C3 1_555 1_555
O3 C19 1_555 1_555
O4 C19 1_555 1_555
O5 C10 1_555 1_555
O6 C10 1_555 1_555
O7 C8 1_555 1_555
O8 C15 1_555 1_555
H18 O4 1_555 1_555
O9 H19 1_555 1_555
H20 O9 1_555 1_555
N1_2 Co1 1_555 1_555
Co1_2 O5 1_555 1_555
Co1_3 N1 1_555 1_555
Co1A O1 1_555 1_555
O1A Co1 1_555 1_555
O5_2 Co1 1_555 1_555
O6_2 Co1 1_555 1_555
N1 C27 1_555 1_555
C8 N3 1_555 1_555
C12 C17 1_555 1_555
C13 N2 1_555 1_555
C18 C24 1_555 1_555
C20 C23 1_555 1_555
C21 C22 1_555 1_555
C21 N4 1_555 1_555
C25 C26 1_555 1_555
Co1 O2 1_555 1_555
O6 Co1_2 1_555 1_555

#END
