
#######################################################################
#
#                 Cambridge Crystallographic Data Centre
#                                CCDC 
#
#######################################################################
#
# If this CIF has been generated from an entry in the Cambridge 
# Structural Database, then it will include bibliographic, chemical, 
# crystal, experimental, refinement or atomic coordinate data resulting 
# from the CCDC's data processing and validation procedures.
#
#######################################################################

data_ZUQWIR
_symmetry_cell_setting           orthorhombic
_symmetry_space_group_name_H-M   'P 21 21 21'
_symmetry_Int_Tables_number      19
_space_group_name_Hall           'P 2ac 2ab'
loop_
_symmetry_equiv_pos_site_id
_symmetry_equiv_pos_as_xyz
1 x,y,z
2 1/2-x,-y,1/2+z
3 1/2+x,1/2-y,-z
4 -x,1/2+y,1/2-z
_cell_length_a                   17.1966(2)
_cell_length_b                   7.2125(2)
_cell_length_c                   27.8282(4)
_cell_angle_alpha                90
_cell_angle_beta                 90
_cell_angle_gamma                90
_cell_volume                     3451.54
loop_
_atom_site_label
_atom_site_type_symbol
_atom_site_fract_x
_atom_site_fract_y
_atom_site_fract_z
U1 U 0.6140(2) 0.241(1) 0.1362(1)
U2 U 0.5006(2) -0.249(1) 0.1215(1)
U3 U 0.3166(2) 0.346(1) 0.2188(1)
P1 P 0.4364(9) 0.239(3) 0.1127(6)
P2 P 0.6791(6) -0.250(3) 0.1470(5)
P3 P 0.3020(8) -0.165(3) 0.1476(6)
P4 P 0.7718(9) 0.311(3) 0.2150(6)
O1 O 0.4863(14) 0.060(3) 0.1206(9)
O2 O 0.3660(10) 0.244(6) 0.1465(7)
O3 O 0.4924(13) 0.404(3) 0.1215(10)
O4 O 0.6251(14) -0.086(3) 0.1375(10)
O5 O 0.7172(14) -0.239(7) 0.1978(6)
O6 O 0.6334(14) -0.434(3) 0.1407(11)
O7 O 0.3083(16) -0.313(3) 0.1868(11)
O8 O 0.3694(10) -0.202(7) 0.1093(8)
O9 O 0.3161(21) 0.031(3) 0.1691(12)
O10 O 0.7380(19) 0.127(5) 0.2348(12)
O11 O 0.7473(14) 0.322(6) 0.1598(6)
O12 O 0.7383(17) 0.492(5) 0.2399(17)
O13 O 0.6350(14) 0.241(5) 0.0749(4)
O14 O 0.5874(14) 0.222(5) 0.1977(4)
O15 O 0.4910(15) -0.278(5) 0.1847(4)
O16 O 0.5247(15) -0.271(5) 0.0605(4)
O17 O 0.2159(8) 0.334(4) 0.1989(9)
O18 O 0.4082(8) 0.341(3) 0.2403(8)
C1 C 0.3982(19) 0.231(10) 0.0515(6)
C2 C 0.3236(22) 0.294(16) 0.0428(8)
C3 C 0.2980(17) 0.313(10) -0.0041(10)
C4 C 0.3496(22) 0.292(10) -0.0417(7)
C5 C 0.4272(20) 0.258(9) -0.0320(8)
C6 C 0.4470(22) 0.194(1) 0.0133(7)
C7 C 0.7590(10) -0.244(6) 0.1041(8)
C8 C 0.7501(17) -0.308(17) 0.0576(14)
C9 C 0.8147(19) -0.335(9) 0.0288(11)
C10 C 0.8881(16) -0.308(8) 0.0479(13)
C11 C 0.8955(14) -0.206(11) 0.0896(15)
C12 C 0.8325(13) -0.198(11) 0.1206(13)
C13 C 0.2131(11) -0.175(4) 0.1136(9)
C14 C 0.1961(28) -0.024(6) 0.0841(21)
C15 C 0.1360(40) -0.036(9) 0.0513(25)
C16 C 0.1002(23) -0.204(10) 0.0436(16)
C17 C 0.1350(40) -0.364(8) 0.0612(23)
C18 C 0.1873(30) -0.348(5) 0.0985(23)
C19 C 0.8762(9) 0.304(5) 0.2151(11)
C20 C 0.9155(18) 0.436(7) 0.1881(25)
C21 C 0.9835(34) 0.392(11) 0.1643(29)
C22 C 1.0207(19) 0.227(12) 0.1754(19)
C23 C 0.9780(40) 0.086(9) 0.1960(26)
C24 C 0.9110(19) 0.131(6) 0.2212(9)
O6_2 O 0.6334(14) 0.566(3) 0.1407(11)
O3_2 O 0.4924(13) -0.596(3) 0.1215(10)
O5C O 0.2828(14) 0.261(7) 0.3022(6)
O7_2 O 0.3083(16) 0.687(3) 0.1868(11)
O10C O 0.2620(19) 0.627(5) 0.2652(12)
U2_2 U 0.5006(2) 0.751(1) 0.1215(1)
U3C U 0.6834(2) -0.154(1) 0.2812(1)
U1_2 U 0.6140(2) -0.759(1) 0.1362(1)
U3_2 U 0.3166(2) -0.654(1) 0.2188(1)
O19 O 0.5906(17) 0.434(4) 0.2680(10)
loop_
_geom_bond_atom_site_label_1
_geom_bond_atom_site_label_2
_geom_bond_site_symmetry_1
_geom_bond_site_symmetry_2
U1 O1 1_555 1_555
U2 O1 1_555 1_555
U3 O2 1_555 1_555
P1 O1 1_555 1_555
P2 O4 1_555 1_555
P3 O7 1_555 1_555
P4 O10 1_555 1_555
O2 P1 1_555 1_555
O3 U1 1_555 1_555
O4 U1 1_555 1_555
O5 P2 1_555 1_555
O6 U2 1_555 1_555
O7 U3_2 1_555 1_555
O8 U2 1_555 1_555
O9 U3 1_555 1_555
O10 U3C 1_555 1_555
O11 U1 1_555 1_555
O12 P4 1_555 1_555
O13 U1 1_555 1_555
O14 U1 1_555 1_555
O15 U2 1_555 1_555
O16 U2 1_555 1_555
O17 U3 1_555 1_555
O18 U3 1_555 1_555
C1 P1 1_555 1_555
C2 C1 1_555 1_555
C3 C2 1_555 1_555
C4 C3 1_555 1_555
C5 C4 1_555 1_555
C6 C1 1_555 1_555
C7 P2 1_555 1_555
C8 C7 1_555 1_555
C9 C8 1_555 1_555
C10 C9 1_555 1_555
C11 C10 1_555 1_555
C12 C7 1_555 1_555
C13 P3 1_555 1_555
C14 C13 1_555 1_555
C15 C14 1_555 1_555
C16 C15 1_555 1_555
C17 C16 1_555 1_555
C18 C13 1_555 1_555
C19 P4 1_555 1_555
C20 C19 1_555 1_555
C21 C20 1_555 1_555
C22 C21 1_555 1_555
C23 C22 1_555 1_555
C24 C19 1_555 1_555
O6_2 U1 1_555 1_555
O3_2 U2 1_555 1_555
O5C U3 1_555 1_555
O7_2 U3 1_555 1_555
O10C U3 1_555 1_555
U2_2 O3 1_555 1_555
U3C O5 1_555 1_555
U1_2 O6 1_555 1_555
U2 O4 1_555 1_555
P1 O3 1_555 1_555
P2 O6 1_555 1_555
P3 O8 1_555 1_555
P3 O9 1_555 1_555
P4 O11 1_555 1_555
C5 C6 1_555 1_555
C11 C12 1_555 1_555
C17 C18 1_555 1_555
C23 C24 1_555 1_555
O6_2 U2_2 1_555 1_555
O3_2 U1_2 1_555 1_555

#END
