
#######################################################################
#
#                 Cambridge Crystallographic Data Centre
#                                CCDC 
#
#######################################################################
#
# If this CIF has been generated from an entry in the Cambridge 
# Structural Database, then it will include bibliographic, chemical, 
# crystal, experimental, refinement or atomic coordinate data resulting 
# from the CCDC's data processing and validation procedures.
#
#######################################################################

data_ZUQZUI
_symmetry_cell_setting           monoclinic
_symmetry_space_group_name_H-M   'P 21/n'
_symmetry_Int_Tables_number      14
_space_group_name_Hall           '-P 2yn'
loop_
_symmetry_equiv_pos_site_id
_symmetry_equiv_pos_as_xyz
1 x,y,z
2 1/2-x,1/2+y,1/2-z
3 -x,-y,-z
4 1/2+x,1/2-y,1/2+z
_cell_length_a                   10.1850(4)
_cell_length_b                   21.7330(8)
_cell_length_c                   12.9570(5)
_cell_angle_alpha                90
_cell_angle_beta                 112.9730(10)
_cell_angle_gamma                90
_cell_volume                     2640.57
loop_
_atom_site_label
_atom_site_type_symbol
_atom_site_fract_x
_atom_site_fract_y
_atom_site_fract_z
C1 C 0.7280(2) 0.21848(12) 0.0034(2)
H1 H 0.7540 0.2402 0.0750
H2 H 0.7477 0.2449 -0.0501
H3 H 0.7840 0.1806 0.0151
C2 C 0.5690(2) 0.20252(11) -0.04283(17)
C3 C 0.5381(2) 0.16140(11) -0.14526(19)
H4 H 0.5721 0.1813 -0.1991
H5 H 0.5874 0.1214 -0.1225
C4 C 0.3300(2) 0.11810(10) -0.28967(17)
C5 C 0.4082(3) 0.08704(11) -0.34104(19)
H6 H 0.5095 0.0885 -0.3108
C6 C 0.3332(3) 0.05408(11) -0.4376(2)
H7 H 0.3830 0.0324 -0.4748
C7 C 0.1857(3) 0.05268(11) -0.4798(2)
H8 H 0.1327 0.0304 -0.5461
C8 C 0.1178(3) 0.08451(11) -0.42290(19)
H9 H 0.0166 0.0833 -0.4511
C9 C 0.4780(2) 0.26055(10) -0.07427(18)
H10 H 0.3756 0.2499 -0.0999
H11 H 0.5034 0.2884 -0.0088
C10 C 0.4446(2) 0.34490(10) -0.20087(17)
C11 C 0.3460(2) 0.37332(11) -0.16670(18)
H12 H 0.3142 0.3541 -0.1147
C12 C 0.2960(3) 0.43047(11) -0.2112(2)
H13 H 0.2293 0.4515 -0.1893
C13 C 0.3433(3) 0.45737(12) -0.2880(2)
H14 H 0.3113 0.4970 -0.3181
C14 C 0.4377(3) 0.42479(11) -0.3190(2)
H15 H 0.4683 0.4423 -0.3731
C15 C 0.5321(2) 0.16662(11) 0.04353(17)
H16 H 0.4302 0.1547 0.0115
H17 H 0.5905 0.1288 0.0657
C16 C 0.5094(2) 0.18841(10) 0.21647(17)
C17 C 0.4559(2) 0.13004(11) 0.22143(19)
H18 H 0.4533 0.0989 0.1691
C18 C 0.4067(3) 0.11893(11) 0.3051(2)
H19 H 0.3697 0.0796 0.3113
C19 C 0.4113(3) 0.16518(12) 0.3801(2)
H20 H 0.3772 0.1583 0.4377
C20 C 0.4666(2) 0.22133(11) 0.36903(18)
H21 H 0.4698 0.2532 0.4202
N1 N 0.1879(2) 0.11715(9) -0.32953(15)
N2 N 0.4886(2) 0.36928(9) -0.27628(15)
N3 N 0.51640(19) 0.23317(9) 0.28889(14)
N4 N 0.1267(2) 0.09666(10) -0.02445(16)
N5 N 0.7381(2) 0.20773(11) -0.40239(17)
O1 O 0.38577(17) 0.15243(8) -0.19612(13)
O2 O 0.50638(18) 0.28985(8) -0.16324(13)
O3 O 0.56116(17) 0.20605(7) 0.13971(12)
O4 O 0.1917(2) 0.09514(9) -0.08795(16)
O5 O 0.1635(3) 0.06114(13) 0.0568(2)
O6 O 0.0285(2) 0.13418(10) -0.03965(19)
O7 O 0.6724(3) 0.19870(11) -0.34023(18)
O8 O 0.7442(2) 0.26175(9) -0.43399(17)
O9 O 0.7947(2) 0.16481(10) -0.43256(17)
Ag1 Ag 0.095784(19) 0.176725(8) -0.234434(15)
Ag2 Ag 0.62312(2) 0.312901(9) -0.335632(16)
N3C N 0.01640(19) 0.26683(9) -0.21111(14)
O6C O 0.5285(2) 0.36582(10) -0.53965(19)
Ag1C Ag 0.595784(19) 0.323275(8) 0.265566(15)
Ag2C Ag 0.12312(2) 0.187099(9) 0.164368(16)
C21 C -0.1926(4) 0.05290(18) -0.2524(3)
H22 H -0.0941 0.0509 -0.2474
H23 H -0.2096 0.0191 -0.2092
H24 H -0.2082 0.0923 -0.2221
O10 O -0.2862(2) 0.04786(10) -0.36427(19)
H25 H -0.2788 0.0791 -0.3997
O11 O 0.5000 0.0000 0.0000
O12? O 0.5715(6) 0.0055(2) -0.0641(5)
loop_
_geom_bond_atom_site_label_1
_geom_bond_atom_site_label_2
_geom_bond_site_symmetry_1
_geom_bond_site_symmetry_2
C1 H1 1_555 1_555
H2 C1 1_555 1_555
H3 C1 1_555 1_555
C2 C1 1_555 1_555
C3 C2 1_555 1_555
H4 C3 1_555 1_555
H5 C3 1_555 1_555
C4 C5 1_555 1_555
C5 H6 1_555 1_555
C6 C5 1_555 1_555
H7 C6 1_555 1_555
C7 C6 1_555 1_555
H8 C7 1_555 1_555
C8 C7 1_555 1_555
H9 C8 1_555 1_555
C9 C2 1_555 1_555
H10 C9 1_555 1_555
H11 C9 1_555 1_555
C10 C11 1_555 1_555
C11 H12 1_555 1_555
C12 C11 1_555 1_555
H13 C12 1_555 1_555
C13 C12 1_555 1_555
H14 C13 1_555 1_555
C14 C13 1_555 1_555
H15 C14 1_555 1_555
C15 C2 1_555 1_555
H16 C15 1_555 1_555
H17 C15 1_555 1_555
C16 C17 1_555 1_555
C17 H18 1_555 1_555
C18 C17 1_555 1_555
H19 C18 1_555 1_555
C19 C18 1_555 1_555
H20 C19 1_555 1_555
C20 C19 1_555 1_555
H21 C20 1_555 1_555
N1 C4 1_555 1_555
N2 C10 1_555 1_555
N3 C16 1_555 1_555
N4 O4 1_555 1_555
N5 O7 1_555 1_555
O1 C3 1_555 1_555
O2 C9 1_555 1_555
O3 C15 1_555 1_555
O4 Ag1 1_555 1_555
O5 N4 1_555 1_555
O6 N4 1_555 1_555
O7 Ag2 1_555 1_555
O8 N5 1_555 1_555
O9 N5 1_555 1_555
Ag1 N1 1_555 1_555
Ag2 N2 1_555 1_555
C21 H22 1_555 1_555
H23 C21 1_555 1_555
H24 C21 1_555 1_555
O10 C21 1_555 1_555
H25 O10 1_555 1_555
N3C Ag1 1_555 1_555
O6C Ag2 1_555 1_555
Ag1C N3 1_555 1_555
Ag2C O6 1_555 1_555
C4 O1 1_555 1_555
C8 N1 1_555 1_555
C10 O2 1_555 1_555
C14 N2 1_555 1_555
C16 O3 1_555 1_555
C20 N3 1_555 1_555
O8 Ag2 1_555 1_555

#END
